
###############################################################################
#
# This file contains modified crystal structure data generated from the
# MOF subset of the Cambridge Structural Database (CSD) v543 
# hosted by the Cambridge Crystallographic Data Centre (CCDC).
#
# This work is licensed under the Creative Commons
# Attribution-NonCommercial-ShareAlike 4.0 International License.
# To view a copy of this license, visit
# http://creativecommons.org/licenses/by-nc-sa/4.0/
# or send a letter to
# Creative Commons, PO Box 1866, Mountain View, CA 94042, USA.
#
# CIF created using the CSD Python API on 29 September 2022
# The structure has been converted into the P1 space group
# The structure has a 3D framework
# The original CSD entry KOTLOX is in the orthorhombic crystal system
# The framework has been calculated to contain at least 10.0% void space
# The void calculation uses a probe of radius 1.32A, grid spacing 0.4
# H atom positions have been added when not included in the experimental data
# Generated hydrogen atom positions removed from atoms on special positions
#
###############################################################################

data_KOTLOX
_chemical_formula_moiety         '(C220 H246 Fe23 O118)n'
_symmetry_cell_setting           triclinic
_symmetry_space_group_name_H-M   'P 1'
_symmetry_Int_Tables_number      1
_space_group_name_Hall           'P 1'
loop_
_symmetry_equiv_pos_site_id
_symmetry_equiv_pos_as_xyz
1 x,y,z
_cell_length_a                   20.972(4)
_cell_length_b                   37.496(7)
_cell_length_c                   10.814(2)
_cell_angle_alpha                90
_cell_angle_beta                 90
_cell_angle_gamma                90
_cell_volume                     8503.76
loop_
_atom_site_label
_atom_site_type_symbol
_atom_site_fract_x
_atom_site_fract_y
_atom_site_fract_z
O10 O 0.2689(8) 0.6720(4) 0.0735(12)
O14 O 0.2689(8) 0.8280(4) 0.0735(12)
Fe7 Fe 0.20074(7) 0.59261(4) 0.13054(13)
Fe12 Fe 0.20074(7) 0.90739(4) 0.13054(13)
Fe16 Fe 0.2500 0.66828(6) 0.2500
Fe18 Fe 0.2500 0.83172(6) 0.2500
O1 O 0.2311(8) 0.6720(4) 0.4265(12)
O2 O 0.2646(4) 0.6226(2) 0.5163(7)
O3 O 0.3383(5) 0.6732(3) 0.2790(13)
O4 O 0.3768(4) 0.6240(2) 0.3642(7)
O5 O 0.3478(3) 0.56309(19) 0.2427(7)
O6 O 0.2681(4) 0.5558(2) 0.1068(8)
O7 O 0.2500 0.6175(4) 0.2500
C1 C 0.2497(8) 0.6530(4) 0.5218(13)
C2 C 0.2501(10) 0.6732(4) 0.6409(13)
C3 C 0.2500 0.6569(6) 0.7500
H1 H 0.2500 0.6321 0.7500
C4 C 0.2524(10) 0.7107(4) 0.6442(15)
H2 H 0.2558 0.7228 0.5695
C5 C 0.2500 0.7303(6) 0.7500
C6 C 0.3815(8) 0.6559(5) 0.3348(16)
C7 C 0.4431(8) 0.6745(5) 0.3364(16)
C8 C 0.4432(8) 0.7110(4) 0.327(3)
H3 H 0.4051 0.7236 0.3282
C9 C 0.5000 0.7286(6) 0.318(4)
C10 C 0.5000 0.6552(6) 0.338(2)
H4 H 0.5000 0.6304 0.3403
C11 C 0.3255(5) 0.5502(3) 0.1456(11)
C12 C 0.3632(5) 0.5247(3) 0.0710(11)
C13 C 0.3315(8) 0.5000 0.0000
H5 H 0.2871 0.5000 0.0000
C14 C 0.4296(6) 0.5250(3) 0.0720(11)
H6 H 0.4512 0.5417 0.1199
C15 C 0.4647(7) 0.5000 0.0000
O8 O 0.2500 0.7233(3) 0.2500
O11 O 0.2354(4) 0.6226(2) 0.9837(7)
C16 C 0.2503(8) 0.6530(4) 0.9782(13)
C17 C 0.2499(10) 0.6732(4) 0.8591(13)
C18 C 0.2476(10) 0.7107(4) 0.8558(15)
H7 H 0.2442 0.7228 0.9305
O12 O 0.2311(8) 0.8280(4) 0.4265(12)
O13 O 0.2646(4) 0.8774(2) 0.5163(7)
C19 C 0.2497(8) 0.8470(4) 0.5218(13)
C20 C 0.2501(10) 0.8268(4) 0.6409(13)
C21 C 0.2500 0.8431(6) 0.7500
H8 H 0.2500 0.8679 0.7500
C22 C 0.2524(10) 0.7893(4) 0.6442(15)
H9 H 0.2558 0.7772 0.5695
C23 C 0.2500 0.7697(6) 0.7500
O15 O 0.2354(4) 0.8774(2) 0.9837(7)
C24 C 0.2503(8) 0.8470(4) 0.9782(13)
C25 C 0.2499(10) 0.8268(4) 0.8591(13)
C26 C 0.2476(10) 0.7893(4) 0.8558(15)
H10 H 0.2442 0.7772 0.9305
O16 O 0.6617(5) 0.8268(3) 0.2790(13)
O17 O 0.6232(4) 0.8760(2) 0.3642(7)
C27 C 0.6185(8) 0.8441(5) 0.3348(16)
C28 C 0.5569(8) 0.8255(5) 0.3364(16)
C29 C 0.5568(8) 0.7890(4) 0.327(3)
H11 H 0.5949 0.7764 0.3282
C30 C 0.5000 0.7714(6) 0.318(4)
C31 C 0.5000 0.8448(6) 0.338(2)
H12 H 0.5000 0.8696 0.3403
O18 O 0.3383(5) 0.8268(3) 0.2790(13)
O19 O 0.3768(4) 0.8760(2) 0.3642(7)
C32 C 0.3815(8) 0.8441(5) 0.3348(16)
C33 C 0.4431(8) 0.8255(5) 0.3364(16)
C34 C 0.4432(8) 0.7890(4) 0.327(3)
H13 H 0.4051 0.7764 0.3282
O20 O 0.6617(5) 0.6732(3) 0.2790(13)
O21 O 0.6232(4) 0.6240(2) 0.3642(7)
C35 C 0.6185(8) 0.6559(5) 0.3348(16)
C36 C 0.5569(8) 0.6745(5) 0.3364(16)
C37 C 0.5568(8) 0.7110(4) 0.327(3)
H14 H 0.5949 0.7236 0.3282
C43 C 0.6685(8) 0.5000 0.0000
H16 H 0.7129 0.5000 0.0000
C45 C 0.5353(7) 0.5000 0.0000
O26 O 0.6522(3) 0.56309(19) 0.2427(7)
O27 O 0.7319(4) 0.5558(2) 0.1068(8)
C46 C 0.6745(5) 0.5502(3) 0.1456(11)
C47 C 0.6368(5) 0.5247(3) 0.0710(11)
C48 C 0.5704(6) 0.5250(3) 0.0720(11)
H18 H 0.5488 0.5417 0.1199
O28 O 0.2500 0.8825(4) 0.2500
O29 O 0.2500 0.7767(3) 0.2500
Fe5 Fe 0.79926(7) 0.59261(4) 0.13054(13)
Fe6 Fe 0.29926(7) 0.59261(4) 0.36946(13)
O32 O 0.3473(4) 0.5644(2) 0.5015(9)
Fe10 Fe 0.70074(7) 0.90739(4) 0.36946(13)
Fe13 Fe 0.29926(7) 0.90739(4) 0.36946(13)
Fe14 Fe 0.70074(7) 0.59261(4) 0.36946(13)
Fe17 Fe 0.7500 0.83172(6) 0.2500
Fe19 Fe 0.7500 0.66828(6) 0.2500
O38 O 0.1617(5) 0.6732(3) 0.2210(13)
O39 O 0.1617(5) 0.8268(3) 0.2210(13)
O40 O 0.1232(4) 0.6240(2) 0.1358(7)
O41 O 0.1232(4) 0.8760(2) 0.1358(7)
O42 O 0.8768(4) 0.6240(2) 0.1358(7)
O43 O 0.1522(3) 0.56309(19) 0.2573(7)
O44 O 0.1522(3) 0.93691(19) 0.2573(7)
O45 O 0.8478(3) 0.56309(19) 0.2573(7)
O46 O 0.2319(4) 0.5558(2) 0.3932(8)
O47 O 0.2681(4) 0.9442(2) 0.1068(8)
O48 O 0.7500 0.6175(4) 0.2500
H21 H 0.145695 0.539623 0.0279386
H24 H 0.106625 0.9296 0.00234684
C13_2 C 0.3315(8) 0.5000 1.0000
H5_2 H 0.2871 0.5000 1.0000
C15_2 C 0.4647(7) 0.5000 1.0000
O9 O 0.1527(4) 0.5644(2) 0.9985(9)
O22 O 0.3478(3) 0.43691(19) 0.7573(7)
O23 O 0.2681(4) 0.4442(2) 0.8932(8)
C38 C 0.3255(5) 0.4498(3) 0.8544(11)
C39 C 0.3632(5) 0.4753(3) 0.9290(11)
C40 C 0.4296(6) 0.4750(3) 0.9280(11)
H15 H 0.4512 0.4583 0.8801
O24 O 0.6522(3) 0.43691(19) 0.7573(7)
O25 O 0.7319(4) 0.4442(2) 0.8932(8)
C41 C 0.6745(5) 0.4498(3) 0.8544(11)
C42 C 0.6368(5) 0.4753(3) 0.9290(11)
C43_2 C 0.6685(8) 0.5000 1.0000
H16_2 H 0.7129 0.5000 1.0000
C44 C 0.5704(6) 0.4750(3) 0.9280(11)
H17 H 0.5488 0.4583 0.8801
C45_2 C 0.5353(7) 0.5000 1.0000
O30 O 0.1527(4) 0.9356(2) 0.9985(9)
O31 O 0.8473(4) 0.5644(2) 0.9985(9)
Fe8 Fe 0.20074(7) 0.40739(4) 0.86946(13)
Fe9 Fe 0.29926(7) 0.40739(4) 0.63054(13)
Fe11 Fe 0.79926(7) 0.40739(4) 0.86946(13)
Fe15 Fe 0.70074(7) 0.40739(4) 0.63054(13)
O37 O 0.7646(4) 0.6226(2) 0.9837(7)
C13_3 C 0.6685(8) 0.0000 0.0000
H5_3 H 0.7129 0.0000 0.0000
C15_3 C 0.5353(7) 0.0000 0.0000
C43_3 C 0.3315(8) 0.0000 0.0000
H16_3 H 0.2871 0.0000 0.0000
C45_3 C 0.4647(7) 0.0000 0.0000
C13_4 C 0.6685(8) 0.0000 1.0000
H5_4 H 0.7129 0.0000 1.0000
C15_4 C 0.5353(7) 0.0000 1.0000
O22_2 O 0.6522(3) 0.06309(19) 0.7573(7)
O23_2 O 0.7319(4) 0.0558(2) 0.8932(8)
C38_2 C 0.6745(5) 0.0502(3) 0.8544(11)
C39_2 C 0.6368(5) 0.0247(3) 0.9290(11)
C40_2 C 0.5704(6) 0.0250(3) 0.9280(11)
H15_2 H 0.5488 0.0417 0.8801
O24_2 O 0.3478(3) 0.06309(19) 0.7573(7)
O25_2 O 0.2681(4) 0.0558(2) 0.8932(8)
C41_2 C 0.3255(5) 0.0502(3) 0.8544(11)
C42_2 C 0.3632(5) 0.0247(3) 0.9290(11)
C43_4 C 0.3315(8) 0.0000 1.0000
H16_4 H 0.2871 0.0000 1.0000
C44_2 C 0.4296(6) 0.0250(3) 0.9280(11)
H17_2 H 0.4512 0.0417 0.8801
C45_4 C 0.4647(7) 0.0000 1.0000
Fe8_2 Fe 0.79926(7) 0.09261(4) 0.86946(13)
Fe9_2 Fe 0.70074(7) 0.09261(4) 0.63054(13)
Fe11_2 Fe 0.20074(7) 0.09261(4) 0.86946(13)
Fe15_2 Fe 0.29926(7) 0.09261(4) 0.63054(13)
O10_2 O 0.7311(8) 0.8280(4) 0.0735(12)
O14_2 O 0.7311(8) 0.6720(4) 0.0735(12)
Fe7_2 Fe 0.79926(7) 0.90739(4) 0.13054(13)
O1_2 O 0.7689(8) 0.8280(4) 0.4265(12)
O2_2 O 0.7354(4) 0.8774(2) 0.5163(7)
O5_2 O 0.6522(3) 0.93691(19) 0.2427(7)
O6_2 O 0.7319(4) 0.9442(2) 0.1068(8)
O7_2 O 0.7500 0.8825(4) 0.2500
C1_2 C 0.7503(8) 0.8470(4) 0.5218(13)
C2_2 C 0.7499(10) 0.8268(4) 0.6409(13)
C3_2 C 0.7500 0.8431(6) 0.7500
H1_2 H 0.7500 0.8679 0.7500
C4_2 C 0.7476(10) 0.7893(4) 0.6442(15)
H2_2 H 0.7442 0.7772 0.5695
C5_2 C 0.7500 0.7697(6) 0.7500
C11_2 C 0.6745(5) 0.9498(3) 0.1456(11)
C12_2 C 0.6368(5) 0.9753(3) 0.0710(11)
C13_5 C 0.6685(8) 1.0000 0.0000
H5_5 H 0.7129 1.0000 0.0000
C14_2 C 0.5704(6) 0.9750(3) 0.0720(11)
H6_2 H 0.5488 0.9583 0.1199
C15_5 C 0.5353(7) 1.0000 0.0000
O8_2 O 0.7500 0.7767(3) 0.2500
O11_2 O 0.7646(4) 0.8774(2) 0.9837(7)
C16_2 C 0.7497(8) 0.8470(4) 0.9782(13)
C17_2 C 0.7501(10) 0.8268(4) 0.8591(13)
C18_2 C 0.7524(10) 0.7893(4) 0.8558(15)
H7_2 H 0.7558 0.7772 0.9305
O12_2 O 0.7689(8) 0.6720(4) 0.4265(12)
O13_2 O 0.7354(4) 0.6226(2) 0.5163(7)
C19_2 C 0.7503(8) 0.6530(4) 0.5218(13)
C20_2 C 0.7499(10) 0.6732(4) 0.6409(13)
C21_2 C 0.7500 0.6569(6) 0.7500
H8_2 H 0.7500 0.6321 0.7500
C22_2 C 0.7476(10) 0.7107(4) 0.6442(15)
H9_2 H 0.7442 0.7228 0.5695
C23_2 C 0.7500 0.7303(6) 0.7500
C24_2 C 0.7497(8) 0.6530(4) 0.9782(13)
C25_2 C 0.7501(10) 0.6732(4) 0.8591(13)
C26_2 C 0.7524(10) 0.7107(4) 0.8558(15)
H10_2 H 0.7558 0.7228 0.9305
C43_5 C 0.3315(8) 1.0000 0.0000
H16_5 H 0.2871 1.0000 0.0000
C45_5 C 0.4647(7) 1.0000 0.0000
O26_2 O 0.3478(3) 0.93691(19) 0.2427(7)
C46_2 C 0.3255(5) 0.9498(3) 0.1456(11)
C47_2 C 0.3632(5) 0.9753(3) 0.0710(11)
C48_2 C 0.4296(6) 0.9750(3) 0.0720(11)
H18_2 H 0.4512 0.9583 0.1199
O29_2 O 0.7500 0.7233(3) 0.2500
O32_2 O 0.6527(4) 0.9356(2) 0.5015(9)
O38_2 O 0.8383(5) 0.8268(3) 0.2210(13)
O39_2 O 0.8383(5) 0.6732(3) 0.2210(13)
O40_2 O 0.8768(4) 0.8760(2) 0.1358(7)
O43_2 O 0.8478(3) 0.93691(19) 0.2573(7)
O46_2 O 0.7681(4) 0.9442(2) 0.3932(8)
H21_2 H 0.854305 0.960377 0.0279386
H24_2 H 0.893375 0.5704 0.00234684
C13_6 C 0.6685(8) 1.0000 1.0000
H5_6 H 0.7129 1.0000 1.0000
C15_6 C 0.5353(7) 1.0000 1.0000
O9_2 O 0.8473(4) 0.9356(2) 0.9985(9)
C43_6 C 0.3315(8) 1.0000 1.0000
H16_6 H 0.2871 1.0000 1.0000
C45_6 C 0.4647(7) 1.0000 1.0000
O9_3 O 0.8473(4) 0.0644(2) 0.0015(9)
O30_2 O 0.8473(4) 0.4356(2) 0.0015(9)
O31_2 O 0.1527(4) 0.0644(2) 0.0015(9)
O35 O 0.7646(4) 0.1226(2) 0.0163(7)
O36 O 0.7646(4) 0.3774(2) 0.0163(7)
O37_2 O 0.2354(4) 0.1226(2) 0.0163(7)
Fe2 Fe 0.7500 0.16828(6) 0.7500
O1_3 O 0.7689(8) 0.1720(4) 0.5735(12)
O2_3 O 0.7354(4) 0.1226(2) 0.4837(7)
O3_2 O 0.6617(5) 0.1732(3) 0.7210(13)
O4_2 O 0.6232(4) 0.1240(2) 0.6358(7)
O7_3 O 0.7500 0.1175(4) 0.7500
C1_3 C 0.7503(8) 0.1530(4) 0.4782(13)
C2_3 C 0.7499(10) 0.1732(4) 0.3591(13)
C3_3 C 0.7500 0.1569(6) 0.2500
H1_3 H 0.7500 0.1321 0.2500
C4_3 C 0.7476(10) 0.2107(4) 0.3558(15)
H2_3 H 0.7442 0.2228 0.4305
C5_3 C 0.7500 0.2303(6) 0.2500
C6_2 C 0.6185(8) 0.1559(5) 0.6652(16)
C7_2 C 0.5569(8) 0.1745(5) 0.6636(16)
C8_2 C 0.5568(8) 0.2110(4) 0.673(3)
H3_2 H 0.5949 0.2236 0.6718
C9_2 C 0.5000 0.2286(6) 0.682(4)
C10_2 C 0.5000 0.1552(6) 0.662(2)
H4_2 H 0.5000 0.1304 0.6597
O8_3 O 0.7500 0.2233(3) 0.7500
C16_3 C 0.7497(8) 0.1530(4) 0.0218(13)
C17_3 C 0.7501(10) 0.1732(4) 0.1409(13)
C18_3 C 0.7524(10) 0.2107(4) 0.1442(15)
H7_3 H 0.7558 0.2228 0.0695
O12_3 O 0.7689(8) 0.3280(4) 0.5735(12)
O13_3 O 0.7354(4) 0.3774(2) 0.4837(7)
C19_3 C 0.7503(8) 0.3470(4) 0.4782(13)
C20_3 C 0.7499(10) 0.3268(4) 0.3591(13)
C21_3 C 0.7500 0.3431(6) 0.2500
H8_3 H 0.7500 0.3679 0.2500
C22_3 C 0.7476(10) 0.2893(4) 0.3558(15)
H9_3 H 0.7442 0.2772 0.4305
C23_3 C 0.7500 0.2697(6) 0.2500
C24_3 C 0.7497(8) 0.3470(4) 0.0218(13)
C25_3 C 0.7501(10) 0.3268(4) 0.1409(13)
C26_3 C 0.7524(10) 0.2893(4) 0.1442(15)
H10_3 H 0.7558 0.2772 0.0695
O16_2 O 0.3383(5) 0.3268(3) 0.7210(13)
O17_2 O 0.3768(4) 0.3760(2) 0.6358(7)
C27_2 C 0.3815(8) 0.3441(5) 0.6652(16)
C28_2 C 0.4431(8) 0.3255(5) 0.6636(16)
C29_2 C 0.4432(8) 0.2890(4) 0.673(3)
H11_2 H 0.4051 0.2764 0.6718
C30_2 C 0.5000 0.2714(6) 0.682(4)
C31_2 C 0.5000 0.3448(6) 0.662(2)
H12_2 H 0.5000 0.3696 0.6597
O18_2 O 0.6617(5) 0.3268(3) 0.7210(13)
O19_2 O 0.6232(4) 0.3760(2) 0.6358(7)
C32_2 C 0.6185(8) 0.3441(5) 0.6652(16)
C33_2 C 0.5569(8) 0.3255(5) 0.6636(16)
C34_2 C 0.5568(8) 0.2890(4) 0.673(3)
H13_2 H 0.5949 0.2764 0.6718
O20_2 O 0.3383(5) 0.1732(3) 0.7210(13)
O21_2 O 0.3768(4) 0.1240(2) 0.6358(7)
C35_2 C 0.3815(8) 0.1559(5) 0.6652(16)
C36_2 C 0.4431(8) 0.1745(5) 0.6636(16)
C37_2 C 0.4432(8) 0.2110(4) 0.673(3)
H14_2 H 0.4051 0.2236 0.6718
Fe4 Fe 0.7500 0.33172(6) 0.7500
O28_2 O 0.7500 0.3825(4) 0.7500
O29_3 O 0.7500 0.2767(3) 0.7500
O32_3 O 0.6527(4) 0.0644(2) 0.4985(9)
Fe17_2 Fe 0.2500 0.33172(6) 0.7500
Fe19_2 Fe 0.2500 0.16828(6) 0.7500
O33 O 0.7311(8) 0.1720(4) 0.9265(12)
O34 O 0.7311(8) 0.3280(4) 0.9265(12)
O38_3 O 0.8383(5) 0.1732(3) 0.7790(13)
O39_3 O 0.8383(5) 0.3268(3) 0.7790(13)
O40_3 O 0.8768(4) 0.1240(2) 0.8642(7)
O41_2 O 0.8768(4) 0.3760(2) 0.8642(7)
O42_2 O 0.1232(4) 0.1240(2) 0.8642(7)
O43_3 O 0.8478(3) 0.06309(19) 0.7427(7)
O44_2 O 0.8478(3) 0.43691(19) 0.7427(7)
O45_2 O 0.1522(3) 0.06309(19) 0.7427(7)
O46_3 O 0.7681(4) 0.0558(2) 0.6068(8)
O48_2 O 0.2500 0.1175(4) 0.7500
H21_3 H 0.854305 0.0396228 0.972061
H24_3 H 0.893375 0.4296 0.997653
O9_4 O 0.1527(4) 0.4356(2) 0.0015(9)
O35_2 O 0.2354(4) 0.3774(2) 0.0163(7)
O1_4 O 0.2311(8) 0.3280(4) 0.5735(12)
O2_4 O 0.2646(4) 0.3774(2) 0.4837(7)
O7_4 O 0.2500 0.3825(4) 0.7500
C1_4 C 0.2497(8) 0.3470(4) 0.4782(13)
C2_4 C 0.2501(10) 0.3268(4) 0.3591(13)
C3_4 C 0.2500 0.3431(6) 0.2500
H1_4 H 0.2500 0.3679 0.2500
C4_4 C 0.2524(10) 0.2893(4) 0.3558(15)
H2_4 H 0.2558 0.2772 0.4305
C5_4 C 0.2500 0.2697(6) 0.2500
O8_4 O 0.2500 0.2767(3) 0.7500
C16_4 C 0.2503(8) 0.3470(4) 0.0218(13)
C17_4 C 0.2499(10) 0.3268(4) 0.1409(13)
C18_4 C 0.2476(10) 0.2893(4) 0.1442(15)
H7_4 H 0.2442 0.2772 0.0695
O12_4 O 0.2311(8) 0.1720(4) 0.5735(12)
O13_4 O 0.2646(4) 0.1226(2) 0.4837(7)
C19_4 C 0.2497(8) 0.1530(4) 0.4782(13)
C20_4 C 0.2501(10) 0.1732(4) 0.3591(13)
C21_4 C 0.2500 0.1569(6) 0.2500
H8_4 H 0.2500 0.1321 0.2500
C22_4 C 0.2524(10) 0.2107(4) 0.3558(15)
H9_4 H 0.2558 0.2228 0.4305
C23_4 C 0.2500 0.2303(6) 0.2500
C24_4 C 0.2503(8) 0.1530(4) 0.0218(13)
C25_4 C 0.2499(10) 0.1732(4) 0.1409(13)
C26_4 C 0.2476(10) 0.2107(4) 0.1442(15)
H10_4 H 0.2442 0.2228 0.0695
O29_4 O 0.2500 0.2233(3) 0.7500
O32_4 O 0.3473(4) 0.4356(2) 0.4985(9)
O33_2 O 0.2689(8) 0.3280(4) 0.9265(12)
O34_2 O 0.2689(8) 0.1720(4) 0.9265(12)
O38_4 O 0.1617(5) 0.3268(3) 0.7790(13)
O39_4 O 0.1617(5) 0.1732(3) 0.7790(13)
O40_4 O 0.1232(4) 0.3760(2) 0.8642(7)
O43_4 O 0.1522(3) 0.43691(19) 0.7427(7)
O46_4 O 0.2319(4) 0.4442(2) 0.6068(8)
H21_4 H 0.145695 0.460377 0.972061
H24_4 H 0.106625 0.0704002 0.997653
C9_3 C 0.0000 0.2286(6) 0.818(4)
C10_3 C 0.0000 0.1552(6) 0.838(2)
H4_3 H -0.0000 0.1304 0.8403
C27_3 C 0.1185(8) 0.3441(5) 0.8348(16)
C28_3 C 0.0569(8) 0.3255(5) 0.8364(16)
C29_3 C 0.0568(8) 0.2890(4) 0.827(3)
H11_3 H 0.0949 0.2764 0.8282
C30_3 C -0.0000 0.2714(6) 0.818(4)
C31_3 C 0.0000 0.3448(6) 0.838(2)
H12_3 H 0.0000 0.3696 0.8403
C35_3 C 0.1185(8) 0.1559(5) 0.8348(16)
C36_3 C 0.0569(8) 0.1745(5) 0.8364(16)
C37_3 C 0.0568(8) 0.2110(4) 0.827(3)
H14_3 H 0.0949 0.2236 0.8282
C43_7 C 0.1685(8) 0.0000 0.5000
H16_7 H 0.2129 0.0000 0.5000
C45_7 C 0.0353(7) 0.0000 0.5000
O27_2 O 0.2319(4) 0.0558(2) 0.6068(8)
C46_3 C 0.1745(5) 0.0502(3) 0.6456(11)
C47_3 C 0.1368(5) 0.0247(3) 0.5710(11)
C48_3 C 0.0704(6) 0.0250(3) 0.5720(11)
H18_3 H 0.0488 0.0417 0.6199
O31_3 O 0.3473(4) 0.0644(2) 0.4985(9)
O25_3 O 0.2319(4) 0.9442(2) 0.3932(8)
C41_3 C 0.1745(5) 0.9498(3) 0.3544(11)
C42_3 C 0.1368(5) 0.9753(3) 0.4290(11)
C43_8 C 0.1685(8) 1.0000 0.5000
H16_8 H 0.2129 1.0000 0.5000
C44_3 C 0.0704(6) 0.9750(3) 0.4280(11)
H17_3 H 0.0488 0.9583 0.3801
C45_8 C 0.0353(7) 1.0000 0.5000
C6_3 C 0.8815(8) 0.1559(5) 0.8348(16)
C7_3 C 0.9431(8) 0.1745(5) 0.8364(16)
C8_3 C 0.9432(8) 0.2110(4) 0.827(3)
H3_3 H 0.9051 0.2236 0.8282
C9_4 C 1.0000 0.2286(6) 0.818(4)
C10_4 C 1.0000 0.1552(6) 0.838(2)
H4_4 H 1.0000 0.1304 0.8403
C11_3 C 0.8255(5) 0.0502(3) 0.6456(11)
C12_3 C 0.8632(5) 0.0247(3) 0.5710(11)
C13_7 C 0.8315(8) 0.0000 0.5000
H5_7 H 0.7871 0.0000 0.5000
C14_3 C 0.9296(6) 0.0250(3) 0.5720(11)
H6_3 H 0.9512 0.0417 0.6199
C15_7 C 0.9647(7) 0.0000 0.5000
C30_4 C 1.0000 0.2714(6) 0.818(4)
C31_4 C 1.0000 0.3448(6) 0.838(2)
H12_4 H 1.0000 0.3696 0.8403
C32_3 C 0.8815(8) 0.3441(5) 0.8348(16)
C33_3 C 0.9431(8) 0.3255(5) 0.8364(16)
C34_3 C 0.9432(8) 0.2890(4) 0.827(3)
H13_3 H 0.9051 0.2764 0.8282
O30_3 O 0.6527(4) 0.4356(2) 0.4985(9)
O47_2 O 0.7681(4) 0.4442(2) 0.6068(8)
H26 H 0.872558 0.04521 0.961435
C13_8 C 0.8315(8) 1.0000 0.5000
H5_8 H 0.7871 1.0000 0.5000
C15_8 C 0.9647(7) 1.0000 0.5000
C38_3 C 0.8255(5) 0.9498(3) 0.3544(11)
C39_3 C 0.8632(5) 0.9753(3) 0.4290(11)
C40_3 C 0.9296(6) 0.9750(3) 0.4280(11)
H15_3 H 0.9512 0.9583 0.3801
C11_4 C 0.1745(5) 0.4498(3) 0.6456(11)
C12_4 C 0.1368(5) 0.4753(3) 0.5710(11)
C13_9 C 0.1685(8) 0.5000 0.5000
H5_9 H 0.2129 0.5000 0.5000
C14_4 C 0.0704(6) 0.4750(3) 0.5720(11)
H6_4 H 0.0488 0.4583 0.6199
C15_9 C 0.0353(7) 0.5000 0.5000
C38_4 C 0.1745(5) 0.5502(3) 0.3544(11)
C39_4 C 0.1368(5) 0.5247(3) 0.4290(11)
C40_4 C 0.0704(6) 0.5250(3) 0.4280(11)
H15_4 H 0.0488 0.5417 0.3801
H26_2 H 0.127442 0.45479 0.961435
O25_4 O 0.7681(4) 0.5558(2) 0.3932(8)
C41_4 C 0.8255(5) 0.5502(3) 0.3544(11)
C42_4 C 0.8632(5) 0.5247(3) 0.4290(11)
C43_9 C 0.8315(8) 0.5000 0.5000
H16_9 H 0.7871 0.5000 0.5000
C44_4 C 0.9296(6) 0.5250(3) 0.4280(11)
H17_4 H 0.9512 0.5417 0.3801
C45_9 C 0.9647(7) 0.5000 0.5000
C46_4 C 0.8255(5) 0.4498(3) 0.6456(11)
C47_4 C 0.8632(5) 0.4753(3) 0.5710(11)
C48_4 C 0.9296(6) 0.4750(3) 0.5720(11)
H18_4 H 0.9512 0.4583 0.6199
C6_4 C 0.1185(8) 0.6559(5) 0.1652(16)
C7_4 C 0.0569(8) 0.6745(5) 0.1636(16)
C8_4 C 0.0568(8) 0.7110(4) 0.173(3)
H3_4 H 0.0949 0.7236 0.1718
C9_5 C 0.0000 0.7286(6) 0.182(4)
C10_5 C 0.0000 0.6552(6) 0.162(2)
H4_5 H 0.0000 0.6304 0.1597
C30_5 C 0.0000 0.7714(6) 0.182(4)
C31_5 C 0.0000 0.8448(6) 0.162(2)
H12_5 H 0.0000 0.8696 0.1597
C32_4 C 0.1185(8) 0.8441(5) 0.1652(16)
C33_4 C 0.0569(8) 0.8255(5) 0.1636(16)
C34_4 C 0.0568(8) 0.7890(4) 0.173(3)
H13_4 H 0.0949 0.7764 0.1718
O30_4 O 0.3473(4) 0.9356(2) 0.5015(9)
H26_3 H 0.127442 0.54521 0.0385646
C9_6 C 1.0000 0.7286(6) 0.182(4)
C10_6 C 1.0000 0.6552(6) 0.162(2)
H4_6 H 1.0000 0.6304 0.1597
C27_4 C 0.8815(8) 0.8441(5) 0.1652(16)
C28_4 C 0.9431(8) 0.8255(5) 0.1636(16)
C29_4 C 0.9432(8) 0.7890(4) 0.173(3)
H11_4 H 0.9051 0.7764 0.1718
C30_6 C 1.0000 0.7714(6) 0.182(4)
C31_6 C 1.0000 0.8448(6) 0.162(2)
H12_6 H 1.0000 0.8696 0.1597
C35_4 C 0.8815(8) 0.6559(5) 0.1652(16)
C36_4 C 0.9431(8) 0.6745(5) 0.1636(16)
C37_4 C 0.9432(8) 0.7110(4) 0.173(3)
H14_4 H 0.9051 0.7236 0.1718
O31_4 O 0.6527(4) 0.5644(2) 0.5015(9)
H26_4 H 0.872558 0.95479 0.0385646
H21_5 H 0.854305 0.460377 0.972061
H24_5 H 0.893375 0.0704002 0.997653
H21_6 H 0.145695 0.0396228 0.972061
H24_6 H 0.106625 0.4296 0.997653
H21_7 H 0.145695 0.960377 0.0279386
H24_7 H 0.106625 0.5704 0.00234684
H21_8 H 0.854305 0.539623 0.0279386
H24_8 H 0.893375 0.9296 0.00234684
H26_5 H 0.127442 0.95479 0.0385646
H26_6 H 0.872558 0.54521 0.0385646
H26_7 H 0.872558 0.45479 0.961435
H26_8 H 0.127442 0.04521 0.961435
loop_
_geom_bond_atom_site_label_1
_geom_bond_atom_site_label_2
_geom_bond_site_symmetry_1
_geom_bond_site_symmetry_2
Fe16 O10 1_555 1_555
Fe18 O14 1_555 1_555
Fe7 O6 1_555 1_555
Fe16 O1 1_555 1_555
O1 C1 1_555 1_555
O2 C1 1_555 1_555
O3 Fe16 1_555 1_555
O4 C6 1_555 1_555
O5 C11 1_555 1_555
O6 C11 1_555 1_555
O7 Fe7 1_555 1_555
C1 C2 1_555 1_555
C2 C3 1_555 1_555
C3 H1 1_555 1_555
C4 C2 1_555 1_555
H2 C4 1_555 1_555
C5 C4 1_555 1_555
C6 O3 1_555 1_555
C7 C6 1_555 1_555
C8 C7 1_555 1_555
H3 C8 1_555 1_555
C9 C8 1_555 1_555
C10 C7 1_555 1_555
H4 C10 1_555 1_555
C11 C12 1_555 1_555
C12 C13 1_555 1_555
C13 H5 1_555 1_555
C14 C12 1_555 1_555
H6 C14 1_555 1_555
C15 C14 1_555 1_555
O8 Fe16 1_555 1_555
O11 C16 1_555 1_555
C16 C17 1_555 1_555
C17 C3 1_555 1_555
C18 C5 1_555 1_555
H7 C18 1_555 1_555
O12 C19 1_555 1_555
O13 C19 1_555 1_555
C19 C20 1_555 1_555
C20 C21 1_555 1_555
C21 H8 1_555 1_555
C22 C20 1_555 1_555
H9 C22 1_555 1_555
C23 C5 1_555 1_555
O15 C24 1_555 1_555
C24 C25 1_555 1_555
C25 C21 1_555 1_555
C26 C23 1_555 1_555
H10 C26 1_555 1_555
O16 C27 1_555 1_555
O17 C27 1_555 1_555
C27 C28 1_555 1_555
C28 C29 1_555 1_555
C29 H11 1_555 1_555
C30 C9 1_555 1_555
C31 C28 1_555 1_555
H12 C31 1_555 1_555
O18 C32 1_555 1_555
O19 C32 1_555 1_555
C32 C33 1_555 1_555
C33 C31 1_555 1_555
C34 C30 1_555 1_555
H13 C34 1_555 1_555
O20 C35 1_555 1_555
O21 C35 1_555 1_555
C35 C36 1_555 1_555
C36 C10 1_555 1_555
C37 C9 1_555 1_555
H14 C37 1_555 1_555
C43 H16 1_555 1_555
C45 C15 1_555 1_555
O26 C46 1_555 1_555
O27 C46 1_555 1_555
C46 C47 1_555 1_555
C47 C43 1_555 1_555
C48 C45 1_555 1_555
H18 C48 1_555 1_555
Fe12 O28 1_555 1_555
Fe18 O12 1_555 1_555
O28 Fe18 1_555 1_555
O29 Fe18 1_555 1_555
Fe5 O27 1_555 1_555
Fe6 O2 1_555 1_555
O32 Fe6 1_555 1_555
Fe10 O17 1_555 1_555
Fe13 O13 1_555 1_555
Fe14 O21 1_555 1_555
Fe17 O16 1_555 1_555
Fe19 O20 1_555 1_555
O38 Fe16 1_555 1_555
O39 Fe18 1_555 1_555
O40 Fe7 1_555 1_555
O41 Fe12 1_555 1_555
O42 Fe5 1_555 1_555
O43 Fe7 1_555 1_555
O44 Fe12 1_555 1_555
O45 Fe5 1_555 1_555
O46 Fe6 1_555 1_555
O47 Fe12 1_555 1_555
O48 Fe5 1_555 1_555
Fe16 O7 1_555 1_555
O4 Fe6 1_555 1_555
O5 Fe6 1_555 1_555
O7 Fe6 1_555 1_555
C17 C18 1_555 1_555
C22 C23 1_555 1_555
C25 C26 1_555 1_555
C29 C30 1_555 1_555
O18 Fe18 1_555 1_555
O19 Fe13 1_555 1_555
C33 C34 1_555 1_555
C36 C37 1_555 1_555
O26 Fe14 1_555 1_555
C47 C48 1_555 1_555
O28 Fe13 1_555 1_555
Fe14 O48 1_555 1_555
Fe19 O48 1_555 1_555
C13_2 H5_2 1_555 1_555
O22 C38 1_555 1_555
O23 C38 1_555 1_555
C38 C39 1_555 1_555
C39 C13_2 1_555 1_555
C40 C15_2 1_555 1_555
H15 C40 1_555 1_555
O24 C41 1_555 1_555
O25 C41 1_555 1_555
C41 C42 1_555 1_555
C42 C43_2 1_555 1_555
C43_2 H16_2 1_555 1_555
C44 C42 1_555 1_555
H17 C44 1_555 1_555
C45_2 C15_2 1_555 1_555
Fe8 O23 1_555 1_555
Fe9 O22 1_555 1_555
Fe11 O25 1_555 1_555
Fe15 O24 1_555 1_555
C39 C40 1_555 1_555
C44 C45_2 1_555 1_555
C13_3 H5_3 1_555 1_555
C43_3 H16_3 1_555 1_555
C45_3 C15_3 1_555 1_555
C13_4 H5_4 1_555 1_555
O22_2 C38_2 1_555 1_555
O23_2 C38_2 1_555 1_555
C38_2 C39_2 1_555 1_555
C39_2 C13_4 1_555 1_555
C40_2 C15_4 1_555 1_555
H15_2 C40_2 1_555 1_555
O24_2 C41_2 1_555 1_555
O25_2 C41_2 1_555 1_555
C41_2 C42_2 1_555 1_555
C42_2 C43_4 1_555 1_555
C43_4 H16_4 1_555 1_555
C44_2 C42_2 1_555 1_555
H17_2 C44_2 1_555 1_555
C45_4 C15_4 1_555 1_555
Fe8_2 O23_2 1_555 1_555
Fe9_2 O22_2 1_555 1_555
Fe11_2 O25_2 1_555 1_555
Fe15_2 O24_2 1_555 1_555
C39_2 C40_2 1_555 1_555
C44_2 C45_4 1_555 1_555
Fe17 O10_2 1_555 1_555
Fe19 O14_2 1_555 1_555
Fe7_2 O6_2 1_555 1_555
Fe17 O1_2 1_555 1_555
O1_2 C1_2 1_555 1_555
O2_2 C1_2 1_555 1_555
O5_2 C11_2 1_555 1_555
O6_2 C11_2 1_555 1_555
O7_2 Fe7_2 1_555 1_555
C1_2 C2_2 1_555 1_555
C2_2 C3_2 1_555 1_555
C3_2 H1_2 1_555 1_555
C4_2 C2_2 1_555 1_555
H2_2 C4_2 1_555 1_555
C5_2 C4_2 1_555 1_555
C11_2 C12_2 1_555 1_555
C12_2 C13_5 1_555 1_555
C13_5 H5_5 1_555 1_555
C14_2 C12_2 1_555 1_555
H6_2 C14_2 1_555 1_555
C15_5 C14_2 1_555 1_555
O8_2 Fe17 1_555 1_555
O11_2 C16_2 1_555 1_555
C16_2 C17_2 1_555 1_555
C17_2 C3_2 1_555 1_555
C18_2 C5_2 1_555 1_555
H7_2 C18_2 1_555 1_555
O12_2 C19_2 1_555 1_555
O13_2 C19_2 1_555 1_555
C19_2 C20_2 1_555 1_555
C20_2 C21_2 1_555 1_555
C21_2 H8_2 1_555 1_555
C22_2 C20_2 1_555 1_555
H9_2 C22_2 1_555 1_555
C23_2 C5_2 1_555 1_555
O37 C24_2 1_555 1_555
C24_2 C25_2 1_555 1_555
C25_2 C21_2 1_555 1_555
C26_2 C23_2 1_555 1_555
H10_2 C26_2 1_555 1_555
C43_5 H16_5 1_555 1_555
C45_5 C15_5 1_555 1_555
O26_2 C46_2 1_555 1_555
O47 C46_2 1_555 1_555
C46_2 C47_2 1_555 1_555
C47_2 C43_5 1_555 1_555
C48_2 C45_5 1_555 1_555
H18_2 C48_2 1_555 1_555
Fe19 O12_2 1_555 1_555
O29_2 Fe19 1_555 1_555
Fe10 O2_2 1_555 1_555
O32_2 Fe10 1_555 1_555
Fe14 O13_2 1_555 1_555
O38_2 Fe17 1_555 1_555
O39_2 Fe19 1_555 1_555
O40_2 Fe7_2 1_555 1_555
O43_2 Fe7_2 1_555 1_555
O46_2 Fe10 1_555 1_555
Fe17 O7_2 1_555 1_555
O5_2 Fe10 1_555 1_555
O7_2 Fe10 1_555 1_555
C17_2 C18_2 1_555 1_555
C22_2 C23_2 1_555 1_555
C25_2 C26_2 1_555 1_555
O26_2 Fe13 1_555 1_555
C47_2 C48_2 1_555 1_555
C13_6 H5_6 1_555 1_555
C43_6 H16_6 1_555 1_555
C45_6 C15_6 1_555 1_555
Fe2 O1_3 1_555 1_555
O1_3 C1_3 1_555 1_555
O2_3 C1_3 1_555 1_555
O3_2 Fe2 1_555 1_555
O4_2 C6_2 1_555 1_555
O7_3 Fe8_2 1_555 1_555
C1_3 C2_3 1_555 1_555
C2_3 C3_3 1_555 1_555
C3_3 H1_3 1_555 1_555
C4_3 C2_3 1_555 1_555
H2_3 C4_3 1_555 1_555
C5_3 C4_3 1_555 1_555
C6_2 O3_2 1_555 1_555
C7_2 C6_2 1_555 1_555
C8_2 C7_2 1_555 1_555
H3_2 C8_2 1_555 1_555
C9_2 C8_2 1_555 1_555
C10_2 C7_2 1_555 1_555
H4_2 C10_2 1_555 1_555
O8_3 Fe2 1_555 1_555
O35 C16_3 1_555 1_555
C16_3 C17_3 1_555 1_555
C17_3 C3_3 1_555 1_555
C18_3 C5_3 1_555 1_555
H7_3 C18_3 1_555 1_555
O12_3 C19_3 1_555 1_555
O13_3 C19_3 1_555 1_555
C19_3 C20_3 1_555 1_555
C20_3 C21_3 1_555 1_555
C21_3 H8_3 1_555 1_555
C22_3 C20_3 1_555 1_555
H9_3 C22_3 1_555 1_555
C23_3 C5_3 1_555 1_555
O36 C24_3 1_555 1_555
C24_3 C25_3 1_555 1_555
C25_3 C21_3 1_555 1_555
C26_3 C23_3 1_555 1_555
H10_3 C26_3 1_555 1_555
O16_2 C27_2 1_555 1_555
O17_2 C27_2 1_555 1_555
C27_2 C28_2 1_555 1_555
C28_2 C29_2 1_555 1_555
C29_2 H11_2 1_555 1_555
C30_2 C9_2 1_555 1_555
C31_2 C28_2 1_555 1_555
H12_2 C31_2 1_555 1_555
O18_2 C32_2 1_555 1_555
O19_2 C32_2 1_555 1_555
C32_2 C33_2 1_555 1_555
C33_2 C31_2 1_555 1_555
C34_2 C30_2 1_555 1_555
H13_2 C34_2 1_555 1_555
O20_2 C35_2 1_555 1_555
O21_2 C35_2 1_555 1_555
C35_2 C36_2 1_555 1_555
C36_2 C10_2 1_555 1_555
C37_2 C9_2 1_555 1_555
H14_2 C37_2 1_555 1_555
Fe11 O28_2 1_555 1_555
Fe4 O12_3 1_555 1_555
O28_2 Fe4 1_555 1_555
O29_3 Fe4 1_555 1_555
Fe9_2 O2_3 1_555 1_555
O32_3 Fe9_2 1_555 1_555
Fe9 O17_2 1_555 1_555
Fe15 O13_3 1_555 1_555
Fe15_2 O21_2 1_555 1_555
Fe17_2 O16_2 1_555 1_555
Fe19_2 O20_2 1_555 1_555
O33 Fe2 1_555 1_555
O34 Fe4 1_555 1_555
O38_3 Fe2 1_555 1_555
O39_3 Fe4 1_555 1_555
O40_3 Fe8_2 1_555 1_555
O41_2 Fe11 1_555 1_555
O42_2 Fe11_2 1_555 1_555
O43_3 Fe8_2 1_555 1_555
O44_2 Fe11 1_555 1_555
O45_2 Fe11_2 1_555 1_555
O46_3 Fe9_2 1_555 1_555
O48_2 Fe11_2 1_555 1_555
Fe2 O7_3 1_555 1_555
O4_2 Fe9_2 1_555 1_555
O7_3 Fe9_2 1_555 1_555
C17_3 C18_3 1_555 1_555
C22_3 C23_3 1_555 1_555
C25_3 C26_3 1_555 1_555
C29_2 C30_2 1_555 1_555
O18_2 Fe4 1_555 1_555
O19_2 Fe15 1_555 1_555
C33_2 C34_2 1_555 1_555
C36_2 C37_2 1_555 1_555
O28_2 Fe15 1_555 1_555
Fe15_2 O48_2 1_555 1_555
Fe19_2 O48_2 1_555 1_555
Fe17_2 O1_4 1_555 1_555
O1_4 C1_4 1_555 1_555
O2_4 C1_4 1_555 1_555
O7_4 Fe8 1_555 1_555
C1_4 C2_4 1_555 1_555
C2_4 C3_4 1_555 1_555
C3_4 H1_4 1_555 1_555
C4_4 C2_4 1_555 1_555
H2_4 C4_4 1_555 1_555
C5_4 C4_4 1_555 1_555
O8_4 Fe17_2 1_555 1_555
O35_2 C16_4 1_555 1_555
C16_4 C17_4 1_555 1_555
C17_4 C3_4 1_555 1_555
C18_4 C5_4 1_555 1_555
H7_4 C18_4 1_555 1_555
O12_4 C19_4 1_555 1_555
O13_4 C19_4 1_555 1_555
C19_4 C20_4 1_555 1_555
C20_4 C21_4 1_555 1_555
C21_4 H8_4 1_555 1_555
C22_4 C20_4 1_555 1_555
H9_4 C22_4 1_555 1_555
C23_4 C5_4 1_555 1_555
O37_2 C24_4 1_555 1_555
C24_4 C25_4 1_555 1_555
C25_4 C21_4 1_555 1_555
C26_4 C23_4 1_555 1_555
H10_4 C26_4 1_555 1_555
Fe19_2 O12_4 1_555 1_555
O29_4 Fe19_2 1_555 1_555
Fe9 O2_4 1_555 1_555
O32_4 Fe9 1_555 1_555
Fe15_2 O13_4 1_555 1_555
O33_2 Fe17_2 1_555 1_555
O34_2 Fe19_2 1_555 1_555
O38_4 Fe17_2 1_555 1_555
O39_4 Fe19_2 1_555 1_555
O40_4 Fe8 1_555 1_555
O43_4 Fe8 1_555 1_555
O46_4 Fe9 1_555 1_555
Fe17_2 O7_4 1_555 1_555
O7_4 Fe9 1_555 1_555
C17_4 C18_4 1_555 1_555
C22_4 C23_4 1_555 1_555
C25_4 C26_4 1_555 1_555
H4_3 C10_3 1_555 1_555
O38_4 C27_3 1_555 1_555
O40_4 C27_3 1_555 1_555
C27_3 C28_3 1_555 1_555
C28_3 C29_3 1_555 1_555
C29_3 H11_3 1_555 1_555
C30_3 C9_3 1_555 1_555
C31_3 C28_3 1_555 1_555
H12_3 C31_3 1_555 1_555
O39_4 C35_3 1_555 1_555
O42_2 C35_3 1_555 1_555
C35_3 C36_3 1_555 1_555
C36_3 C10_3 1_555 1_555
C37_3 C9_3 1_555 1_555
H14_3 C37_3 1_555 1_555
C43_7 H16_7 1_555 1_555
O45_2 C46_3 1_555 1_555
O27_2 C46_3 1_555 1_555
C46_3 C47_3 1_555 1_555
C47_3 C43_7 1_555 1_555
C48_3 C45_7 1_555 1_555
H18_3 C48_3 1_555 1_555
Fe15_2 O27_2 1_555 1_555
O31_3 Fe15_2 1_555 1_555
C29_3 C30_3 1_555 1_555
C36_3 C37_3 1_555 1_555
C47_3 C48_3 1_555 1_555
O44 C41_3 1_555 1_555
O25_3 C41_3 1_555 1_555
C41_3 C42_3 1_555 1_555
C42_3 C43_8 1_555 1_555
C43_8 H16_8 1_555 1_555
C44_3 C42_3 1_555 1_555
H17_3 C44_3 1_555 1_555
Fe13 O25_3 1_555 1_555
C44_3 C45_8 1_555 1_555
O40_3 C6_3 1_555 1_555
O43_3 C11_3 1_555 1_555
O46_3 C11_3 1_555 1_555
C6_3 O38_3 1_555 1_555
C7_3 C6_3 1_555 1_555
C8_3 C7_3 1_555 1_555
H3_3 C8_3 1_555 1_555
C9_4 C8_3 1_555 1_555
C10_4 C7_3 1_555 1_555
H4_4 C10_4 1_555 1_555
C11_3 C12_3 1_555 1_555
C12_3 C13_7 1_555 1_555
C13_7 H5_7 1_555 1_555
C14_3 C12_3 1_555 1_555
H6_3 C14_3 1_555 1_555
C15_7 C14_3 1_555 1_555
C30_4 C9_4 1_555 1_555
H12_4 C31_4 1_555 1_555
O39_3 C32_3 1_555 1_555
O41_2 C32_3 1_555 1_555
C32_3 C33_3 1_555 1_555
C33_3 C31_4 1_555 1_555
C34_3 C30_4 1_555 1_555
H13_3 C34_3 1_555 1_555
O30_3 Fe15 1_555 1_555
O47_2 Fe15 1_555 1_555
C33_3 C34_3 1_555 1_555
C13_8 H5_8 1_555 1_555
O43_2 C38_3 1_555 1_555
O46_2 C38_3 1_555 1_555
C38_3 C39_3 1_555 1_555
C39_3 C13_8 1_555 1_555
C40_3 C15_8 1_555 1_555
H15_3 C40_3 1_555 1_555
C39_3 C40_3 1_555 1_555
O43_4 C11_4 1_555 1_555
O46_4 C11_4 1_555 1_555
C11_4 C12_4 1_555 1_555
C12_4 C13_9 1_555 1_555
C13_9 H5_9 1_555 1_555
C14_4 C12_4 1_555 1_555
H6_4 C14_4 1_555 1_555
C15_9 C14_4 1_555 1_555
O43 C38_4 1_555 1_555
O46 C38_4 1_555 1_555
C38_4 C39_4 1_555 1_555
C39_4 C13_9 1_555 1_555
C40_4 C15_9 1_555 1_555
H15_4 C40_4 1_555 1_555
C39_4 C40_4 1_555 1_555
O45 C41_4 1_555 1_555
O25_4 C41_4 1_555 1_555
C41_4 C42_4 1_555 1_555
C42_4 C43_9 1_555 1_555
C43_9 H16_9 1_555 1_555
C44_4 C42_4 1_555 1_555
H17_4 C44_4 1_555 1_555
O44_2 C46_4 1_555 1_555
O47_2 C46_4 1_555 1_555
C46_4 C47_4 1_555 1_555
C47_4 C43_9 1_555 1_555
C48_4 C45_9 1_555 1_555
H18_4 C48_4 1_555 1_555
Fe14 O25_4 1_555 1_555
C44_4 C45_9 1_555 1_555
C47_4 C48_4 1_555 1_555
O40 C6_4 1_555 1_555
C6_4 O38 1_555 1_555
C7_4 C6_4 1_555 1_555
C8_4 C7_4 1_555 1_555
H3_4 C8_4 1_555 1_555
C9_5 C8_4 1_555 1_555
C10_5 C7_4 1_555 1_555
H4_5 C10_5 1_555 1_555
C30_5 C9_5 1_555 1_555
H12_5 C31_5 1_555 1_555
O39 C32_4 1_555 1_555
O41 C32_4 1_555 1_555
C32_4 C33_4 1_555 1_555
C33_4 C31_5 1_555 1_555
C34_4 C30_5 1_555 1_555
H13_4 C34_4 1_555 1_555
O30_4 Fe13 1_555 1_555
C33_4 C34_4 1_555 1_555
H4_6 C10_6 1_555 1_555
O38_2 C27_4 1_555 1_555
O40_2 C27_4 1_555 1_555
C27_4 C28_4 1_555 1_555
C28_4 C29_4 1_555 1_555
C29_4 H11_4 1_555 1_555
C30_6 C9_6 1_555 1_555
C31_6 C28_4 1_555 1_555
H12_6 C31_6 1_555 1_555
O39_2 C35_4 1_555 1_555
O42 C35_4 1_555 1_555
C35_4 C36_4 1_555 1_555
C36_4 C10_6 1_555 1_555
C37_4 C9_6 1_555 1_555
H14_4 C37_4 1_555 1_555
O31_4 Fe14 1_555 1_555
C29_4 C30_6 1_555 1_555
C36_4 C37_4 1_555 1_555

#END
