
###############################################################################
#
# This file contains modified crystal structure data generated from the
# MOF subset of the Cambridge Structural Database (CSD) v543 
# hosted by the Cambridge Crystallographic Data Centre (CCDC).
#
# This work is licensed under the Creative Commons
# Attribution-NonCommercial-ShareAlike 4.0 International License.
# To view a copy of this license, visit
# http://creativecommons.org/licenses/by-nc-sa/4.0/
# or send a letter to
# Creative Commons, PO Box 1866, Mountain View, CA 94042, USA.
#
# CIF created using the CSD Python API on 29 September 2022
# The structure has been converted into the P1 space group
# The structure has a 3D framework
# The original CSD entry KOTSIX is in the triclinic crystal system
# The framework has been calculated to contain at least 10.0% void space
# The void calculation uses a probe of radius 1.32A, grid spacing 0.4
# H atom positions have been added when not included in the experimental data
#
###############################################################################

data_KOTSIX
_chemical_formula_moiety         '(C106 H74 N8 O36 Zn6)n'
_symmetry_cell_setting           triclinic
_symmetry_space_group_name_H-M   'P 1'
_symmetry_Int_Tables_number      1
_space_group_name_Hall           'P 1'
loop_
_symmetry_equiv_pos_site_id
_symmetry_equiv_pos_as_xyz
1 x,y,z
_cell_length_a                   15.1690(9)
_cell_length_b                   15.4530(9)
_cell_length_c                   16.4504(8)
_cell_angle_alpha                67.469(2)
_cell_angle_beta                 80.559(2)
_cell_angle_gamma                61.982(7)
_cell_volume                     3143.72
loop_
_atom_site_label
_atom_site_type_symbol
_atom_site_fract_x
_atom_site_fract_y
_atom_site_fract_z
_atom_site_U_iso_or_equiv
_atom_site_thermal_displace_type
H49 H 0.0319 0.2346 0.4239 0.0380 Uiso
C82 C 0.1008(3) 0.0191(3) 0.6611(2) 0.0370 Uani
H52 H 0.0433 0.0284 0.6942 0.0440 Uiso
C83 C 0.0915(2) 0.0648(2) 0.5696(2) 0.0272 Uani
C84 C 0.1805(2) 0.0490(2) 0.5215(2) 0.0319 Uani
H53 H 0.1778 0.0785 0.4604 0.0380 Uiso
C81 C 0.1930(2) 0.9603(2) 0.7042(2) 0.0336 Uani
H51 H 0.1965 0.9319 0.7653 0.0400 Uiso
C85 C 0.2724(3) 0.9887(2) 0.5662(2) 0.0307 Uani
H54 H 0.3304 0.9788 0.5337 0.0370 Uiso
N7 N 0.2807(2) 0.9437(2) 0.65594(18) 0.0366 Uani
Zn11 Zn 0.42293(3) 0.86626(3) 0.71017(3) 0.0363 Uani
C34 C 0.2574(2) 0.2484(2) 0.4980(2) 0.0289 Uani
C35 C 0.2160(2) 0.2418(2) 0.5810(2) 0.0272 Uani
H25 H 0.1486 0.2844 0.5853 0.0330 Uiso
C36 C 0.2744(2) 0.1718(2) 0.65884(19) 0.0263 Uani
C37 C 0.3788(2) 0.1096(2) 0.6515(2) 0.0290 Uani
C38 C 0.4187(2) 0.1124(2) 0.5683(2) 0.0268 Uani
H26 H 0.4855 0.0677 0.5642 0.0320 Uiso
C39 C 0.3601(2) 0.1817(2) 0.4889(2) 0.0271 Uani
C40 C 0.1913(2) 0.3368(2) 0.4201(2) 0.0254 Uani
C41 C 0.2241(2) 0.1718(2) 0.7447(2) 0.0300 Uani
C42 C 0.4063(3) 0.1697(2) 0.4038(2) 0.0328 Uani
C43 C 0.0521(2) 0.3979(3) 0.0593(2) 0.0314 Uani
H27 H 0.0858 0.3301 0.0987 0.0380 Uiso
C44 C 0.0003(2) 0.4812(2) 0.0913(2) 0.0292 Uani
C46 C 0.0088(2) 0.4552(2) 0.1883(2) 0.0304 Uani
C48 C 0.5829(2) 0.2886(2) 0.1306(2) 0.0307 Uani
C49 C 0.5434(3) 0.3957(3) 0.0590(2) 0.0387 Uani
C50 C 0.4781(2) 0.4787(2) 0.0893(2) 0.0338 Uani
H28 H 0.4629 0.4642 0.1487 0.0410 Uiso
C51 C 0.4353(3) 0.5849(2) 0.0291(2) 0.0311 Uani
C52 C 0.3805(3) 0.6654(3) 0.0718(2) 0.0362 Uani
C53 C 0.4445(2) 0.0359(3) 0.7328(2) 0.0321 Uani
O1 O 0.09851(17) 0.36601(17) 0.43118(15) 0.0341 Uani
O2 O 0.22613(17) 0.38173(16) 0.35236(15) 0.0313 Uani
O3 O 0.13073(17) 0.21654(16) 0.75086(14) 0.0325 Uani
O4 O 0.28048(18) 0.11874(17) 0.81298(15) 0.0361 Uani
O6 O 0.49595(17) 0.06574(17) 0.75795(15) 0.0338 Uani
O7 O 0.49681(17) 0.15338(16) 0.39806(14) 0.0319 Uani
O8 O 0.35647(17) 0.17696(17) 0.34654(16) 0.0352 Uani
O10 O 0.02634(17) 0.36799(18) 0.24381(16) 0.0389 Uani
O13 O 0.53469(18) 0.27796(18) 0.20156(16) 0.0388 Uani
O14 O 0.65930(17) 0.21231(17) 0.11642(15) 0.0352 Uani
O15 O 0.42083(18) 0.65436(17) 0.13895(16) 0.0391 Uani
O16 O 0.30260(18) 0.74335(18) 0.03462(16) 0.0384 Uani
O17 O 0.02883(17) 0.61557(16) 0.33609(15) 0.0342 Uani
H31 H 0.0282 0.6611 0.2766 0.0410 Uiso
H32 H 0.0916 0.5894 0.3641 0.0410 Uiso
Zn1 Zn 0.01026(3) 0.49186(3) 0.33552(3) 0.0333 Uani
Zn2 Zn 0.57707(3) 0.13374(3) 0.28983(3) 0.0363 Uani
O38 O 0.28720(19) 0.03461(17) 0.01275(15) 0.0386 Uani
H71 H 0.2728 0.0610 0.0600 0.0460 Uiso
N9 N 0.7193(2) 0.0563(2) 0.34406(18) 0.0366 Uani
O42 O 0.54485(17) 0.05527(19) 0.23578(15) 0.0378 Uani
Zn13 Zn 0.18728(3) 0.13567(3) 0.91624(3) 0.0359 Uani
H73 H 0.486549 0.655167 0.123039 . .
C56 C 0.0536(3) 0.4164(2) 0.9657(2) 0.0322 Uani
C58 C 0.1197(3) 0.3263(2) 0.9368(2) 0.0332 Uani
O20 O 0.00020(17) 0.47035(17) 0.79179(15) 0.0337 Uani
O22 O 0.19733(17) 0.32187(17) 0.89454(15) 0.0345 Uani
O23 O 0.09574(17) 0.25282(17) 0.95842(15) 0.0371 Uani
C59 C 0.4171(2) 0.7114(2) 0.8694(2) 0.0307 Uani
C60 C 0.4566(3) 0.6043(3) 0.9410(2) 0.0387 Uani
C61 C 0.5219(2) 0.5213(2) 0.9107(2) 0.0338 Uani
H38 H 0.5371 0.5358 0.8513 0.0410 Uiso
C62 C 0.5647(3) 0.4151(2) 0.9709(2) 0.0311 Uani
C63 C 0.6195(3) 0.3346(3) 0.9282(2) 0.0362 Uani
O24 O 0.46531(18) 0.72204(18) 0.79844(16) 0.0388 Uani
O25 O 0.34070(17) 0.78769(17) 0.88358(15) 0.0352 Uani
O26 O 0.57917(18) 0.34564(17) 0.86105(16) 0.0391 Uani
O27 O 0.69740(18) 0.25665(18) 0.96538(16) 0.0384 Uani
C64 C 0.6176(2) 0.3439(2) 0.4208(2) 0.0311 Uani
C65 C 0.5335(2) 0.3621(2) 0.3781(2) 0.0316 Uani
H39 H 0.5402 0.3565 0.3229 0.0380 Uiso
C66 C 0.4406(2) 0.3884(2) 0.4181(2) 0.0314 Uani
H40 H 0.3861 0.4018 0.3881 0.0380 Uiso
C67 C 0.4267(2) 0.3955(2) 0.5023(2) 0.0278 Uani
C68 C 0.5119(2) 0.3745(2) 0.5454(2) 0.0280 Uani
H41 H 0.5056 0.3762 0.6021 0.0340 Uiso
C69 C 0.6058(2) 0.3512(2) 0.5051(2) 0.0292 Uani
H42 H 0.6596 0.3408 0.5340 0.0350 Uiso
C70 C 0.1433(2) 0.5185(2) 0.5291(2) 0.0293 Uani
H43 H 0.0863 0.5643 0.4936 0.0350 Uiso
C71 C 0.2387(2) 0.4944(2) 0.4893(2) 0.0282 Uani
H44 H 0.2438 0.5241 0.4288 0.0340 Uiso
C72 C 0.3273(2) 0.4231(2) 0.5444(2) 0.0278 Uani
C73 C 0.3128(3) 0.3884(2) 0.6353(2) 0.0305 Uani
H45 H 0.3679 0.3472 0.6736 0.0370 Uiso
C74 C 0.2177(2) 0.4145(2) 0.6691(2) 0.0305 Uani
H46 H 0.2112 0.3886 0.7298 0.0370 Uiso
C75 C 0.8058(2) 0.2555(2) 0.4268(2) 0.0305 Uani
C76 C 0.8174(3) 0.1698(2) 0.4990(2) 0.0319 Uani
H47 H 0.7654 0.1511 0.5162 0.0380 Uiso
C77 C 0.9082(2) 0.1087(2) 0.5486(2) 0.0313 Uani
H48 H 0.9123 0.0545 0.6011 0.0380 Uiso
C78 C 0.9934(2) 0.1280(2) 0.5198(2) 0.0273 Uani
C79 C 0.9789(3) 0.2179(2) 0.4441(2) 0.0317 Uani
C80 C 0.8870(2) 0.2822(2) 0.3988(2) 0.0304 Uani
H50 H 0.8788 0.3422 0.3505 0.0370 Uiso
C86 C 0.7139(2) 0.3768(2) 0.2835(2) 0.0295 Uani
C87 C 0.7835(2) 0.3189(3) 0.2311(2) 0.0333 Uani
H55 H 0.8252 0.2477 0.2564 0.0400 Uiso
C88 C 0.7868(2) 0.3734(2) 0.1395(2) 0.0294 Uani
H56 H 0.8332 0.3368 0.1056 0.0350 Uiso
C89 C 0.7241(2) 0.4790(2) 0.0983(2) 0.0304 Uani
C90 C 0.6544(2) 0.5314(2) 0.1525(2) 0.0314 Uani
H57 H 0.6104 0.6018 0.1270 0.0380 Uiso
C91 C 0.6493(2) 0.4798(2) 0.2456(2) 0.0283 Uani
H58 H 0.6027 0.5163 0.2795 0.0340 Uiso
C94 C 0.7252(2) 0.5335(2) 0.0006(2) 0.0317 Uani
N5 N 0.7125(2) 0.3219(2) 0.37639(18) 0.0314 Uani
N6 N 0.1329(2) 0.4766(2) 0.61763(18) 0.0341 Uani
O37 O 0.11125(18) 0.05118(18) 0.93553(16) 0.0381 Uani
H70 H 0.0430 0.0906 0.9484 0.0460 Uiso
H72 H 0.3526 0.0252 0.9911 0.0460 Uiso
H74 H 0.569438 0.413382 0.814154 . .
O5 O 0.45515(17) 0.94473(19) 0.76422(15) 0.0378 Uani
H30 H 0.4934 0.9118 0.8094 0.0570 Uiso
H66 H 0.5066 0.0882 0.1906 0.0570 Uiso
C1 C 0.3824(2) 0.6561(2) 0.5792(2) 0.0311 Uani
C2 C 0.4665(2) 0.6379(2) 0.6219(2) 0.0316 Uani
H1 H 0.4598 0.6435 0.6771 0.0380 Uiso
C3 C 0.5594(2) 0.6116(2) 0.5819(2) 0.0314 Uani
H2 H 0.6139 0.5982 0.6119 0.0380 Uiso
C4 C 0.5733(2) 0.6045(2) 0.4977(2) 0.0278 Uani
C5 C 0.4881(2) 0.6255(2) 0.4546(2) 0.0280 Uani
H3 H 0.4944 0.6238 0.3979 0.0340 Uiso
C6 C 0.3942(2) 0.6488(2) 0.4949(2) 0.0292 Uani
H4 H 0.3404 0.6592 0.4660 0.0350 Uiso
C7 C 0.8567(2) 0.4815(2) 0.4709(2) 0.0293 Uani
H5 H 0.9137 0.4357 0.5064 0.0350 Uiso
C8 C 0.7613(2) 0.5056(2) 0.5107(2) 0.0282 Uani
H6 H 0.7562 0.4759 0.5712 0.0340 Uiso
C9 C 0.6727(2) 0.5769(2) 0.4556(2) 0.0278 Uani
C10 C 0.6872(3) 0.6116(2) 0.3647(2) 0.0305 Uani
H7 H 0.6321 0.6528 0.3264 0.0370 Uiso
C11 C 0.7823(2) 0.5855(2) 0.3309(2) 0.0305 Uani
H8 H 0.7888 0.6114 0.2702 0.0370 Uiso
C12 C 0.1942(2) 0.7445(2) 0.5732(2) 0.0305 Uani
C13 C 0.1826(3) 0.8302(2) 0.5010(2) 0.0319 Uani
H9 H 0.2346 0.8489 0.4838 0.0380 Uiso
C14 C 0.0918(2) 0.8913(2) 0.4514(2) 0.0313 Uani
H10 H 0.0877 0.9455 0.3989 0.0380 Uiso
C15 C 0.0066(2) 0.8720(2) 0.4802(2) 0.0273 Uani
C16 C 0.0211(3) 0.7821(2) 0.5559(2) 0.0317 Uani
C17 C 0.1130(2) 0.7178(2) 0.6012(2) 0.0304 Uani
H12 H 0.1212 0.6578 0.6495 0.0370 Uiso
C23 C 0.2861(2) 0.6232(2) 0.7165(2) 0.0295 Uani
C24 C 0.2165(2) 0.6811(3) 0.7689(2) 0.0333 Uani
H17 H 0.1748 0.7523 0.7436 0.0400 Uiso
C25 C 0.2132(2) 0.6266(2) 0.8605(2) 0.0294 Uani
H18 H 0.1668 0.6632 0.8944 0.0350 Uiso
C26 C 0.2759(2) 0.5210(2) 0.9017(2) 0.0304 Uani
C27 C 0.3456(2) 0.4686(2) 0.8475(2) 0.0314 Uani
H19 H 0.3896 0.3982 0.8730 0.0380 Uiso
C28 C 0.3507(2) 0.5202(2) 0.7544(2) 0.0283 Uani
H20 H 0.3973 0.4837 0.7205 0.0340 Uiso
C31 C 0.2748(2) 0.4665(2) 0.9994(2) 0.0317 Uani
C45 C 0.9464(3) 0.5836(2) 0.0343(2) 0.0322 Uani
C47 C 0.8803(3) 0.6737(2) 0.0632(2) 0.0332 Uani
N1 N 0.2875(2) 0.6781(2) 0.62361(18) 0.0314 Uani
N2 N 0.8671(2) 0.5234(2) 0.38237(18) 0.0341 Uani
O9 O 0.99980(17) 0.52965(17) 0.20821(15) 0.0337 Uani
O11 O 0.80267(17) 0.67813(17) 0.10546(15) 0.0345 Uani
O12 O 0.90426(17) 0.74718(17) 0.04158(15) 0.0371 Uani
O18 O 0.88875(18) 0.94882(18) 0.06447(16) 0.0381 Uani
H34 H 0.9570 0.9094 0.0516 0.0460 Uiso
H36 H 0.6474 0.9748 0.0089 0.0460 Uiso
Zn3 Zn 0.81272(3) 0.86433(3) 0.08376(3) 0.0359 Uani
O40 O 0.71952(18) 0.88126(17) 0.18702(15) 0.0361 Uani
O19 O 0.71280(19) 0.96539(17) 0.98725(15) 0.0386 Uani
H35 H 0.7272 0.9390 0.9400 0.0460 Uiso
C54 C 0.9479(2) 0.6021(3) 0.9407(2) 0.0314 Uani
H37 H 0.9142 0.6699 0.9013 0.0380 Uiso
C55 C 0.9997(2) 0.5188(2) 0.9087(2) 0.0292 Uani
C57 C 0.9912(2) 0.5448(2) 0.8117(2) 0.0304 Uani
O21 O 0.97366(17) 0.63201(18) 0.75619(16) 0.0389 Uani
C97 C 0.7426(2) 0.7516(2) 0.5020(2) 0.0289 Uani
C98 C 0.7840(2) 0.7582(2) 0.4190(2) 0.0272 Uani
H63 H 0.8514 0.7156 0.4147 0.0330 Uiso
C99 C 0.7256(2) 0.8282(2) 0.34116(19) 0.0263 Uani
C100 C 0.6212(2) 0.8904(2) 0.3485(2) 0.0290 Uani
C101 C 0.5813(2) 0.8876(2) 0.4317(2) 0.0268 Uani
H64 H 0.5145 0.9323 0.4358 0.0320 Uiso
C102 C 0.6399(2) 0.8183(2) 0.5111(2) 0.0271 Uani
C103 C 0.8087(2) 0.6632(2) 0.5799(2) 0.0254 Uani
C104 C 0.7759(2) 0.8282(2) 0.2553(2) 0.0300 Uani
C105 C 0.5937(3) 0.8303(2) 0.5962(2) 0.0328 Uani
C106 C 0.5555(2) 0.9641(3) 0.2672(2) 0.0321 Uani
O28 O 0.90149(17) 0.63399(17) 0.56882(15) 0.0341 Uani
O29 O 0.77387(17) 0.61827(16) 0.64764(15) 0.0313 Uani
O30 O 0.86927(17) 0.78346(16) 0.24914(14) 0.0325 Uani
O33 O 0.50405(17) 0.93426(17) 0.24205(15) 0.0338 Uani
O34 O 0.50319(17) 0.84662(16) 0.60194(14) 0.0319 Uani
O35 O 0.64353(17) 0.82304(17) 0.65346(16) 0.0352 Uani
O36 O 0.97117(17) 0.38443(16) 0.66391(15) 0.0342 Uani
H67 H 0.9718 0.3389 0.7234 0.0410 Uiso
H68 H 0.9084 0.4106 0.6359 0.0410 Uiso
Zn4 Zn 0.98974(3) 0.50814(3) 0.66448(3) 0.0333 Uani
C18 C 0.8070(2) 0.0397(2) 0.2958(2) 0.0336 Uani
H13 H 0.8035 0.0681 0.2347 0.0400 Uiso
C22 C 0.7276(3) 0.0113(2) 0.4338(2) 0.0307 Uani
H16 H 0.6696 0.0212 0.4663 0.0370 Uiso
H74_2 H 0.430562 0.586618 0.185846 . .
H73_2 H 0.513451 0.344833 0.876961 . .
C92 C 0.6723(2) 0.6917(3) 0.8688(2) 0.0327 Uani
H59 H 0.6393 0.7643 0.8434 0.0390 Uiso
C93 C 0.6760(3) 0.6417(3) 0.9615(2) 0.0337 Uani
H60 H 0.6448 0.6823 0.9968 0.0410 Uiso
C95 C 0.7738(3) 0.4746(3) 0.9455(2) 0.0361 Uani
H61 H 0.8088 0.4020 0.9690 0.0430 Uiso
C96 C 0.7682(3) 0.5290(2) 0.8526(2) 0.0341 Uani
H62 H 0.8008 0.4915 0.8152 0.0410 Uiso
N8 N 0.7164(2) 0.6336(2) 0.81885(19) 0.0418 Uani
H65 H 0.7118 0.6640 0.7626 0.0500 Uiso
H69 H 0.1410 0.9865 0.9840 0.0460 Uiso
H33 H 0.8590 0.0135 0.0160 0.0460 Uiso
C29 C 0.3277(2) 0.3083(3) 0.1312(2) 0.0327 Uani
H21 H 0.3607 0.2357 0.1566 0.0390 Uiso
C30 C 0.3240(3) 0.3583(3) 0.0385(2) 0.0337 Uani
H22 H 0.3552 0.3177 0.0032 0.0410 Uiso
C32 C 0.2262(3) 0.5254(3) 0.0545(2) 0.0361 Uani
H23 H 0.1912 0.5980 0.0310 0.0430 Uiso
C33 C 0.2318(3) 0.4710(2) 0.1474(2) 0.0341 Uani
H24 H 0.1992 0.5085 0.1848 0.0410 Uiso
N4 N 0.2836(2) 0.3664(2) 0.18115(19) 0.0418 Uani
H29 H 0.2882 0.3360 0.2374 0.0500 Uiso
H11 H 0.9681 0.7654 0.5761 0.0380 Uiso
C19 C 0.8992(3) 0.9809(3) 0.3389(2) 0.0370 Uani
H14 H 0.9567 0.9716 0.3058 0.0440 Uiso
C20 C 0.9085(2) 0.9352(2) 0.4304(2) 0.0272 Uani
C21 C 0.8195(2) 0.9510(2) 0.4785(2) 0.0319 Uani
H15 H 0.8222 0.9215 0.5396 0.0380 Uiso
loop_
_atom_site_aniso_label
_atom_site_aniso_U_11
_atom_site_aniso_U_22
_atom_site_aniso_U_33
_atom_site_aniso_U_23
_atom_site_aniso_U_13
_atom_site_aniso_U_12
C82 0.028 0.0348 0.0343 -0.006 0.0117 -0.0115
C83 0.0268 0.0236 0.0258 -0.0052 -0.0054 -0.0079
C84 0.0276 0.0339 0.0322 -0.0127 -0.006 -0.0092
C81 0.0325 0.028 0.0289 -0.0056 0.0076 -0.0102
C85 0.0329 0.032 0.0232 -0.0074 -0.0057 -0.0113
N7 0.0204 0.04 0.0308 -0.0101 0.0024 -0.0015
Zn11 0.0242 0.0394 0.0273 -0.00986 0.00018 -0.00162
C34 0.0249 0.0239 0.0272 -0.0063 0.0036 -0.0057
C35 0.0236 0.0331 0.0261 -0.011 -0.0037 -0.0119
C36 0.0301 0.0277 0.0158 -0.0067 -0.0037 -0.0083
C37 0.0259 0.0299 0.0306 -0.0111 -0.0104 -0.0082
C38 0.017 0.0302 0.0285 -0.0064 -0.0065 -0.0077
C39 0.0234 0.0294 0.0267 -0.0098 -0.0029 -0.0093
C40 0.0244 0.0322 0.0203 -0.0083 -0.0058 -0.0119
C41 0.0275 0.028 0.0226 -0.0075 0.0016 -0.0045
C42 0.0217 0.0237 0.0298 -0.0058 -0.0007 0.0054
C43 0.0176 0.0342 0.0329 -0.0137 0.01 -0.0056
C44 0.0212 0.0351 0.024 -0.0105 0.009 -0.0096
C46 0.0258 0.0318 0.0256 -0.0056 0.0095 -0.013
C48 0.0232 0.031 0.0313 -0.0108 -0.0084 -0.0043
C49 0.0278 0.0383 0.0348 -0.0004 0.0098 -0.0155
C50 0.0301 0.0293 0.0285 0.0076 -0.0037 -0.0153
C51 0.0355 0.028 0.0249 -0.0041 -0.0085 -0.0116
C52 0.0372 0.0318 0.0375 -0.0095 -0.0178 -0.0101
C53 0.0204 0.0379 0.0317 -0.0144 -0.0107 -0.003
O1 0.0294 0.0364 0.0271 -0.0098 0.0077 -0.0106
O2 0.0317 0.0325 0.0283 -0.01 -0.0083 -0.0111
O3 0.0251 0.0313 0.0295 -0.0108 0.0091 -0.0062
O4 0.0337 0.038 0.0324 -0.0135 -0.0014 -0.0112
O6 0.0363 0.0339 0.0305 -0.0076 -0.014 -0.0134
O7 0.0282 0.0342 0.026 -0.0107 0.0113 -0.0115
O8 0.0259 0.0351 0.0377 -0.0149 0.0081 -0.0089
O10 0.0291 0.0358 0.0316 0.0085 -0.01 -0.0113
O13 0.0291 0.0389 0.0309 -0.0093 0.0016 -0.0042
O14 0.0288 0.0344 0.034 -0.0104 0.009 -0.0114
O15 0.0404 0.0378 0.0451 -0.0169 -0.0137 -0.0157
O16 0.0395 0.0402 0.0366 -0.0125 -0.0067 -0.0172
O17 0.0326 0.0315 0.0296 -0.0115 0.0052 -0.0082
Zn1 0.0316 0.03293 0.0272 -0.01116 0.0083 -0.01006
Zn2 0.0242 0.0394 0.0273 -0.00986 0.00018 -0.00162
O38 0.0403 0.0324 0.0316 -0.0096 0.0083 -0.011
N9 0.0204 0.04 0.0308 -0.0101 0.0024 -0.0015
O42 0.0278 0.0482 0.0243 -0.0102 0.0079 -0.0112
Zn13 0.0342 0.03746 0.0326 -0.0134 0.00139 -0.01266
C56 0.0327 0.0355 0.021 -0.0095 0.0116 -0.0133
C58 0.0377 0.0275 0.0338 -0.01 -0.007 -0.0123
O20 0.0333 0.0343 0.0269 -0.0112 0.0083 -0.012
O22 0.0333 0.0331 0.033 -0.0113 -0.0094 -0.0087
O23 0.0303 0.0358 0.0352 -0.0113 0.0114 -0.0113
C59 0.0232 0.031 0.0313 -0.0108 -0.0084 -0.0043
C60 0.0278 0.0383 0.0348 -0.0004 0.0098 -0.0155
C61 0.0301 0.0293 0.0285 0.0076 -0.0037 -0.0153
C62 0.0355 0.028 0.0249 -0.0041 -0.0085 -0.0116
C63 0.0372 0.0318 0.0375 -0.0095 -0.0178 -0.0101
O24 0.0291 0.0389 0.0309 -0.0093 0.0016 -0.0042
O25 0.0288 0.0344 0.034 -0.0104 0.009 -0.0114
O26 0.0404 0.0378 0.0451 -0.0169 -0.0137 -0.0157
O27 0.0395 0.0402 0.0366 -0.0125 -0.0067 -0.0172
C64 0.0249 0.0346 0.0295 -0.0135 0.0154 -0.0128
C65 0.0256 0.0363 0.0285 -0.015 0.0155 -0.0122
C66 0.0238 0.0378 0.0262 -0.0095 0.0135 -0.0143
C67 0.0285 0.0248 0.0309 -0.0112 -0.0038 -0.0101
C68 0.0184 0.0326 0.0275 -0.0117 0.0051 -0.0078
C69 0.024 0.0298 0.0267 -0.0077 0.0058 -0.0098
C70 0.0232 0.0356 0.0268 -0.0108 -0.0068 -0.0092
C71 0.0266 0.0278 0.0283 -0.0082 -0.0106 -0.0085
C72 0.0236 0.0269 0.0299 -0.0102 -0.0052 -0.007
C73 0.0312 0.0257 0.0275 -0.008 0.005 -0.0097
C74 0.0382 0.0325 0.029 -0.0149 0.0065 -0.0208
C75 0.0305 0.0372 0.0296 -0.0169 0.0032 -0.0164
C76 0.0274 0.0293 0.0284 -0.0043 0.0026 -0.0096
C77 0.0267 0.034 0.0304 -0.0135 -0.0048 -0.008
C78 0.0176 0.027 0.0341 -0.0075 -0.0096 -0.0068
C79 0.0313 0.0307 0.0321 -0.0094 -0.0097 -0.0111
C80 0.0275 0.0249 0.0329 -0.0084 -0.0103 -0.005
C86 0.0231 0.0303 0.0285 -0.0106 0.0107 -0.0098
C87 0.0253 0.0364 0.0341 -0.0151 0.0087 -0.0111
C88 0.021 0.0338 0.0246 -0.01 0.0138 -0.0098
C89 0.0309 0.0343 0.0182 -0.0077 0.01 -0.0126
C90 0.0255 0.0346 0.0307 -0.0144 0.015 -0.013
C91 0.0219 0.0308 0.0247 -0.0095 0.0109 -0.0095
C94 0.0287 0.0384 0.0256 -0.0105 0.0088 -0.0162
N5 0.0222 0.0347 0.0316 -0.0129 0.0087 -0.0099
N6 0.037 0.0306 0.0248 -0.0092 0.0068 -0.0098
O37 0.0336 0.0397 0.0378 -0.0144 0.0045 -0.0145
O5 0.0278 0.0482 0.0243 -0.0102 0.0079 -0.0112
C1 0.0249 0.0346 0.0295 -0.0135 0.0154 -0.0128
C2 0.0256 0.0363 0.0285 -0.015 0.0155 -0.0122
C3 0.0238 0.0378 0.0262 -0.0095 0.0135 -0.0143
C4 0.0285 0.0248 0.0309 -0.0112 -0.0038 -0.0101
C5 0.0184 0.0326 0.0275 -0.0117 0.0051 -0.0078
C6 0.024 0.0298 0.0267 -0.0077 0.0058 -0.0098
C7 0.0232 0.0356 0.0268 -0.0108 -0.0068 -0.0092
C8 0.0266 0.0278 0.0283 -0.0082 -0.0106 -0.0085
C9 0.0236 0.0269 0.0299 -0.0102 -0.0052 -0.007
C10 0.0312 0.0257 0.0275 -0.008 0.005 -0.0097
C11 0.0382 0.0325 0.029 -0.0149 0.0065 -0.0208
C12 0.0305 0.0372 0.0296 -0.0169 0.0032 -0.0164
C13 0.0274 0.0293 0.0284 -0.0043 0.0026 -0.0096
C14 0.0267 0.034 0.0304 -0.0135 -0.0048 -0.008
C15 0.0176 0.027 0.0341 -0.0075 -0.0096 -0.0068
C16 0.0313 0.0307 0.0321 -0.0094 -0.0097 -0.0111
C17 0.0275 0.0249 0.0329 -0.0084 -0.0103 -0.005
C23 0.0231 0.0303 0.0285 -0.0106 0.0107 -0.0098
C24 0.0253 0.0364 0.0341 -0.0151 0.0087 -0.0111
C25 0.021 0.0338 0.0246 -0.01 0.0138 -0.0098
C26 0.0309 0.0343 0.0182 -0.0077 0.01 -0.0126
C27 0.0255 0.0346 0.0307 -0.0144 0.015 -0.013
C28 0.0219 0.0308 0.0247 -0.0095 0.0109 -0.0095
C31 0.0287 0.0384 0.0256 -0.0105 0.0088 -0.0162
C45 0.0327 0.0355 0.021 -0.0095 0.0116 -0.0133
C47 0.0377 0.0275 0.0338 -0.01 -0.007 -0.0123
N1 0.0222 0.0347 0.0316 -0.0129 0.0087 -0.0099
N2 0.037 0.0306 0.0248 -0.0092 0.0068 -0.0098
O9 0.0333 0.0343 0.0269 -0.0112 0.0083 -0.012
O11 0.0333 0.0331 0.033 -0.0113 -0.0094 -0.0087
O12 0.0303 0.0358 0.0352 -0.0113 0.0114 -0.0113
O18 0.0336 0.0397 0.0378 -0.0144 0.0045 -0.0145
Zn3 0.0342 0.03746 0.0326 -0.0134 0.00139 -0.01266
O40 0.0337 0.038 0.0324 -0.0135 -0.0014 -0.0112
O19 0.0403 0.0324 0.0316 -0.0096 0.0083 -0.011
C54 0.0176 0.0342 0.0329 -0.0137 0.01 -0.0056
C55 0.0212 0.0351 0.024 -0.0105 0.009 -0.0096
C57 0.0258 0.0318 0.0256 -0.0056 0.0095 -0.013
O21 0.0291 0.0358 0.0316 0.0085 -0.01 -0.0113
C97 0.0249 0.0239 0.0272 -0.0063 0.0036 -0.0057
C98 0.0236 0.0331 0.0261 -0.011 -0.0037 -0.0119
C99 0.0301 0.0277 0.0158 -0.0067 -0.0037 -0.0083
C100 0.0259 0.0299 0.0306 -0.0111 -0.0104 -0.0082
C101 0.017 0.0302 0.0285 -0.0064 -0.0065 -0.0077
C102 0.0234 0.0294 0.0267 -0.0098 -0.0029 -0.0093
C103 0.0244 0.0322 0.0203 -0.0083 -0.0058 -0.0119
C104 0.0275 0.028 0.0226 -0.0075 0.0016 -0.0045
C105 0.0217 0.0237 0.0298 -0.0058 -0.0007 0.0054
C106 0.0204 0.0379 0.0317 -0.0144 -0.0107 -0.003
O28 0.0294 0.0364 0.0271 -0.0098 0.0077 -0.0106
O29 0.0317 0.0325 0.0283 -0.01 -0.0083 -0.0111
O30 0.0251 0.0313 0.0295 -0.0108 0.0091 -0.0062
O33 0.0363 0.0339 0.0305 -0.0076 -0.014 -0.0134
O34 0.0282 0.0342 0.026 -0.0107 0.0113 -0.0115
O35 0.0259 0.0351 0.0377 -0.0149 0.0081 -0.0089
O36 0.0326 0.0315 0.0296 -0.0115 0.0052 -0.0082
Zn4 0.0316 0.03293 0.0272 -0.01116 0.0083 -0.01006
C18 0.0325 0.028 0.0289 -0.0056 0.0076 -0.0102
C22 0.0329 0.032 0.0232 -0.0074 -0.0057 -0.0113
C92 0.0276 0.0295 0.0366 -0.0092 -0.0119 -0.0073
C93 0.028 0.0361 0.0259 -0.0094 0.0106 -0.0099
C95 0.0328 0.0389 0.0255 -0.0085 0.0128 -0.0133
C96 0.034 0.0337 0.0271 -0.0096 0.0068 -0.0121
N8 0.0365 0.0412 0.0242 -0.0074 -0.0116 0.0015
C29 0.0276 0.0295 0.0366 -0.0092 -0.0119 -0.0073
C30 0.028 0.0361 0.0259 -0.0094 0.0106 -0.0099
C32 0.0328 0.0389 0.0255 -0.0085 0.0128 -0.0133
C33 0.034 0.0337 0.0271 -0.0096 0.0068 -0.0121
N4 0.0365 0.0412 0.0242 -0.0074 -0.0116 0.0015
C19 0.028 0.0348 0.0343 -0.006 0.0117 -0.0115
C20 0.0268 0.0236 0.0258 -0.0052 -0.0054 -0.0079
C21 0.0276 0.0339 0.0322 -0.0127 -0.006 -0.0092
loop_
_geom_bond_atom_site_label_1
_geom_bond_atom_site_label_2
_geom_bond_site_symmetry_1
_geom_bond_site_symmetry_2
H52 C82 1_555 1_555
C84 C83 1_555 1_555
H53 C84 1_555 1_555
C82 C83 1_555 1_555
C81 H51 1_555 1_555
H54 C85 1_555 1_555
N7 C81 1_555 1_555
Zn11 N7 1_555 1_555
C85 N7 1_555 1_555
C34 C35 1_555 1_555
C35 H25 1_555 1_555
C36 C35 1_555 1_555
C37 C36 1_555 1_555
C38 C37 1_555 1_555
H26 C38 1_555 1_555
C39 C34 1_555 1_555
C40 C34 1_555 1_555
C41 C36 1_555 1_555
C42 C39 1_555 1_555
C43 H27 1_555 1_555
C44 C43 1_555 1_555
C46 C44 1_555 1_555
C48 C49 1_555 1_555
C49 C50 1_555 1_555
C50 H28 1_555 1_555
C51 C50 1_555 1_555
C52 C51 1_555 1_555
C53 C37 1_555 1_555
O1 C40 1_555 1_555
O2 C40 1_555 1_555
O3 C41 1_555 1_555
O4 C41 1_555 1_555
O6 C53 1_555 1_555
O7 C42 1_555 1_555
O8 C42 1_555 1_555
O10 C46 1_555 1_555
O13 C48 1_555 1_555
O14 C48 1_555 1_555
O15 C52 1_555 1_555
O16 C52 1_555 1_555
O17 H31 1_555 1_555
H32 O17 1_555 1_555
Zn2 O7 1_555 1_555
O38 H71 1_555 1_555
N9 Zn2 1_555 1_555
O42 Zn2 1_555 1_555
Zn13 O4 1_555 1_555
C38 C39 1_555 1_555
O1 Zn1 1_555 1_555
O13 Zn2 1_555 1_555
O17 Zn1 1_555 1_555
O15 H73 1_555 1_555
C58 C56 1_555 1_555
O22 C58 1_555 1_555
O23 C58 1_555 1_555
C59 C60 1_555 1_555
C61 C60 1_555 1_555
H38 C61 1_555 1_555
C63 C62 1_555 1_555
O24 C59 1_555 1_555
O25 C59 1_555 1_555
O26 C63 1_555 1_555
O27 C63 1_555 1_555
C64 C65 1_555 1_555
C65 H39 1_555 1_555
C66 C65 1_555 1_555
H40 C66 1_555 1_555
C67 C66 1_555 1_555
C68 C67 1_555 1_555
H41 C68 1_555 1_555
C69 C64 1_555 1_555
H42 C69 1_555 1_555
C70 H43 1_555 1_555
C71 C70 1_555 1_555
H44 C71 1_555 1_555
C72 C67 1_555 1_555
C73 C72 1_555 1_555
H45 C73 1_555 1_555
C74 C73 1_555 1_555
H46 C74 1_555 1_555
C75 C76 1_555 1_555
C76 H47 1_555 1_555
C77 C76 1_555 1_555
H48 C77 1_555 1_555
C78 C77 1_555 1_555
C79 C78 1_555 1_555
C80 C75 1_555 1_555
H50 C80 1_555 1_555
C86 C87 1_555 1_555
C87 H55 1_555 1_555
C88 C87 1_555 1_555
H56 C88 1_555 1_555
C89 C88 1_555 1_555
C90 C89 1_555 1_555
H57 C90 1_555 1_555
C91 C86 1_555 1_555
H58 C91 1_555 1_555
C94 C89 1_555 1_555
N5 C64 1_555 1_555
N6 C70 1_555 1_555
H70 O37 1_555 1_555
Zn13 O23 1_555 1_555
Zn11 O24 1_555 1_555
C61 C62 1_555 1_555
C68 C69 1_555 1_555
C71 C72 1_555 1_555
C74 N6 1_555 1_555
C75 N5 1_555 1_555
C79 C80 1_555 1_555
C86 N5 1_555 1_555
C90 C91 1_555 1_555
O37 Zn13 1_555 1_555
O26 H74 1_555 1_555
H30 O5 1_555 1_555
Zn11 O5 1_555 1_555
H66 O42 1_555 1_555
C1 C2 1_555 1_555
C2 H1 1_555 1_555
C3 C2 1_555 1_555
H2 C3 1_555 1_555
C4 C3 1_555 1_555
C5 C4 1_555 1_555
H3 C5 1_555 1_555
C6 C1 1_555 1_555
H4 C6 1_555 1_555
C7 H5 1_555 1_555
C8 C7 1_555 1_555
H6 C8 1_555 1_555
C9 C4 1_555 1_555
C10 C9 1_555 1_555
H7 C10 1_555 1_555
C11 C10 1_555 1_555
H8 C11 1_555 1_555
C12 C13 1_555 1_555
C13 H9 1_555 1_555
C14 C13 1_555 1_555
H10 C14 1_555 1_555
C15 C14 1_555 1_555
C16 C15 1_555 1_555
C17 C12 1_555 1_555
H12 C17 1_555 1_555
C23 C24 1_555 1_555
C24 H17 1_555 1_555
C25 C24 1_555 1_555
H18 C25 1_555 1_555
C26 C25 1_555 1_555
C27 C26 1_555 1_555
H19 C27 1_555 1_555
C28 C23 1_555 1_555
H20 C28 1_555 1_555
C31 C26 1_555 1_555
C47 C45 1_555 1_555
N1 C1 1_555 1_555
N2 C7 1_555 1_555
O11 C47 1_555 1_555
O12 C47 1_555 1_555
H34 O18 1_555 1_555
Zn3 O12 1_555 1_555
O40 Zn3 1_555 1_555
C5 C6 1_555 1_555
C8 C9 1_555 1_555
C11 N2 1_555 1_555
C12 N1 1_555 1_555
C16 C17 1_555 1_555
C23 N1 1_555 1_555
C27 C28 1_555 1_555
O18 Zn3 1_555 1_555
O19 H35 1_555 1_555
H37 C54 1_555 1_555
C55 C54 1_555 1_555
C57 C55 1_555 1_555
O21 C57 1_555 1_555
C97 C98 1_555 1_555
C98 H63 1_555 1_555
C99 C98 1_555 1_555
C100 C99 1_555 1_555
C101 C100 1_555 1_555
H64 C101 1_555 1_555
C102 C97 1_555 1_555
C103 C97 1_555 1_555
C104 C99 1_555 1_555
C105 C102 1_555 1_555
C106 C100 1_555 1_555
O28 C103 1_555 1_555
O29 C103 1_555 1_555
O30 C104 1_555 1_555
O40 C104 1_555 1_555
O33 C106 1_555 1_555
O34 C105 1_555 1_555
O35 C105 1_555 1_555
O36 H67 1_555 1_555
H68 O36 1_555 1_555
Zn11 O34 1_555 1_555
C101 C102 1_555 1_555
O28 Zn4 1_555 1_555
O36 Zn4 1_555 1_555
C18 H13 1_555 1_555
H16 C22 1_555 1_555
N9 C18 1_555 1_555
C22 N9 1_555 1_555
O15 H74_2 1_555 1_555
O26 H73_2 1_555 1_555
C92 H59 1_555 1_555
C93 C92 1_555 1_555
H60 C93 1_555 1_555
H61 C95 1_555 1_555
C96 C95 1_555 1_555
H62 C96 1_555 1_555
N8 C92 1_555 1_555
H65 N8 1_555 1_555
C96 N8 1_555 1_555
C29 H21 1_555 1_555
C30 C29 1_555 1_555
H22 C30 1_555 1_555
H23 C32 1_555 1_555
C33 C32 1_555 1_555
H24 C33 1_555 1_555
N4 C29 1_555 1_555
H29 N4 1_555 1_555
C33 N4 1_555 1_555
H14 C19 1_555 1_555
C21 C20 1_555 1_555
H15 C21 1_555 1_555
C19 C20 1_555 1_555

#END
