
###############################################################################
#
# This file contains modified crystal structure data generated from the
# MOF subset of the Cambridge Structural Database (CSD) v543 
# hosted by the Cambridge Crystallographic Data Centre (CCDC).
#
# This work is licensed under the Creative Commons
# Attribution-NonCommercial-ShareAlike 4.0 International License.
# To view a copy of this license, visit
# http://creativecommons.org/licenses/by-nc-sa/4.0/
# or send a letter to
# Creative Commons, PO Box 1866, Mountain View, CA 94042, USA.
#
# CIF created using the CSD Python API on 29 September 2022
# The structure has been converted into the P1 space group
# The structure has a 3D framework
# The original CSD entry KOVHAH is in the monoclinic crystal system
# The framework has been calculated to contain at least 10.0% void space
# The void calculation uses a probe of radius 1.32A, grid spacing 0.4
# The framework is charged, counterions have been retained in the structure
# H atom positions have been added when not included in the experimental data
#
###############################################################################

data_KOVHAH
_chemical_formula_moiety         '(C444 H288 N104 O84 Zn32 4-)n'
_symmetry_cell_setting           triclinic
_symmetry_space_group_name_H-M   'P 1'
_symmetry_Int_Tables_number      1
_space_group_name_Hall           'P 1'
loop_
_symmetry_equiv_pos_site_id
_symmetry_equiv_pos_as_xyz
1 x,y,z
_cell_length_a                   20.5074(9)
_cell_length_b                   29.3383(12)
_cell_length_c                   26.3661(14)
_cell_angle_alpha                90
_cell_angle_beta                 106.383(5)
_cell_angle_gamma                90
_cell_volume                     15219.1
loop_
_atom_site_label
_atom_site_type_symbol
_atom_site_fract_x
_atom_site_fract_y
_atom_site_fract_z
Zn7 Zn 0.04856(10) 0.40868(6) 0.02794(8)
O20 O 0.1179(5) 0.4529(3) 0.0771(4)
O27 O 0.0843(6) 0.3540(3) 0.0756(4)
O28 O 0.0028(7) 0.3330(4) 0.0041(4)
H69 H 0.116873 0.448595 0.114223
H70 H 0.164292 0.446305 0.0743874
N27 N 0.0708(5) 0.4116(4) 0.9588(4)
Zn1 Zn 0.58057(8) 0.13989(5) 0.27531(6)
Zn2 Zn 0.41461(8) 0.13983(5) 0.21761(6)
Zn3 Zn 0.55028(8) 0.52055(6) 0.13188(7)
Zn4 Zn 0.44961(8) 0.51937(6) 0.36817(7)
Zn5 Zn 0.48518(9) 0.06547(7) 0.29943(8)
Zn6 Zn 0.51685(9) 0.07487(7) 0.18538(8)
Zn8 Zn 0.55442(11) 0.90580(7) 0.03889(8)
O1 O 0.4972(4) 0.1045(3) 0.2459(3)
O2 O 0.1588(4) 0.6051(3) 0.2625(3)
N1 N 0.3779(5) 0.1445(3) 0.1384(4)
O3 O 0.8452(4) 0.6026(3) 0.2426(3)
N2 N 0.6156(5) 0.1426(3) 0.3534(4)
O4 O 0.5859(4) 0.2011(3) 0.2500(4)
O5 O 0.5139(4) 0.1841(3) 0.1715(4)
O7 O 0.9703(5) 0.4330(3) 0.0455(4)
N3 N 0.5426(6) 0.0823(4) 0.3698(4)
N4 N 0.4901(6) 0.4800(4) 0.1616(5)
O8 O 0.4082(5) 0.2016(3) 0.2415(4)
O9 O 0.0688(5) 0.4679(4) 0.5197(5)
O10 O 0.5140(5) 0.5122(3) 0.4500(4)
O11 O 0.4860(6) 0.5170(4) 0.0517(4)
N5 N 0.4967(5) 0.5773(4) 0.3501(4)
N6 N 0.6108(5) 0.4645(4) 0.1306(5)
N7 N 0.6841(6) 0.2053(4) 0.3492(5)
H1 H 0.653214 0.217675 0.321714
H2 H 0.701833 0.228386 0.369754
N8 N 0.3886(5) 0.4640(3) 0.3652(4)
N9 N 0.4489(5) 0.0854(4) 0.1187(4)
O12 O 0.8952(5) 0.5880(4) 0.3287(4)
N10 N 0.5059(5) 0.5778(3) 0.1535(4)
N11 N 0.3755(5) 0.5604(3) 0.3840(4)
N12 N 0.3066(6) 0.2059(4) 0.1445(5)
H3 H 0.275085 0.191972 0.154517
H4 H 0.339555 0.212432 0.172306
O13 O 0.1087(6) 0.5679(6) 0.1918(4)
N13 N 0.5708(5) 0.0884(4) 0.4588(4)
N14 N 0.4200(7) 0.0954(5) 0.0288(5)
N15 N 0.3092(6) 0.1857(4) 0.0615(5)
C1 C 0.4011(6) 0.2917(4) 0.2717(5)
H5 H 0.363537 0.280251 0.246271
N16 N 0.6819(6) 0.1829(4) 0.4319(5)
N17 N 0.6259(5) 0.5618(4) 0.1180(4)
O14 O 0.0222(6) 0.4334(4) 0.4436(5)
C2 C 0.4001(6) 0.1190(5) 0.1037(5)
O15 O 0.4157(6) 0.8540(3) 0.4244(4)
C3 C 0.5947(6) 0.3371(4) 0.2095(5)
H6 H 0.630752 0.355251 0.228019
C4 C 0.5927(7) 0.1160(5) 0.3860(5)
C5 C 0.6513(6) 0.5497(4) 0.3079(5)
N19 N 0.5114(5) 0.4805(3) 0.3365(5)
C6 C 0.7600(4) 0.4924(3) 0.0783(3)
C7 C 0.8203(4) 0.4758(4) 0.1119(2)
H7 H 0.824787 0.472422 0.147758
C8 C 0.8740(4) 0.4643(4) 0.0918(3)
H8 H 0.914304 0.453187 0.114270
C9 C 0.8673(4) 0.4694(3) 0.0382(3)
C10 C 0.8070(4) 0.4860(3) 0.0046(2)
C11 C 0.7534(3) 0.4975(3) 0.0246(3)
H10 H 0.713041 0.508584 0.002183
C12 C 0.6101(7) 0.1193(4) 0.4381(6)
C13 C 0.3196(6) 0.5461(4) 0.3979(5)
C14 C 0.6582(7) 0.1739(5) 0.3789(6)
C15 C 0.4039(8) 0.3376(4) 0.2827(5)
H11 H 0.369593 0.356329 0.262693
C16 C 0.3342(6) 0.1780(5) 0.1145(6)
C17 C 0.6818(7) 0.5490(5) 0.1043(5)
C18 C 0.4491(8) 0.2131(5) 0.2862(7)
C19 C 0.4036(7) 0.4188(6) 0.3576(6)
C20 C 0.3462(7) 0.5680(5) 0.2418(6)
H14 H 0.386567 0.571638 0.268553
C21 C 0.6647(7) 0.4638(5) 0.1097(6)
C22 C 0.9253(5) 0.4561(3) 0.0169(4)
C23 C 0.0691(6) 0.4563(4) 0.4751(6)
C24 C 0.3471(7) 0.5504(4) 0.1930(6)
C25 C 0.6392(8) 0.3913(5) 0.1219(6)
H15 H 0.638359 0.359565 0.122291
C26 C 0.4045(6) 0.4576(5) 0.1984(6)
H16 H 0.367957 0.458607 0.212750
C27 C 0.4584(6) 0.0742(4) 0.0696(6)
H17 H 0.490506 0.052822 0.066366
C28 C 0.2860(7) 0.5857(5) 0.4128(5)
H18 H 0.246747 0.585588 0.423807
C29 C 0.4532(6) 0.4046(5) 0.3371(5)
C30 C 0.5975(6) 0.4563(5) 0.2993(5)
H19 H 0.634784 0.457649 0.285836
C31 C 0.5353(7) 0.0685(5) 0.4166(6)
H20 H 0.505219 0.045223 0.418349
C32 C 0.7169(7) 0.5785(5) 0.2529(5)
H21 H 0.718881 0.589405 0.220229
O16 O 0.4810(6) 0.1857(3) 0.3162(4)
C33 C 0.4519(6) 0.2621(4) 0.2971(5)
C34 C 0.3320(6) 0.1593(5) 0.0268(6)
C35 C 0.2391(7) 0.4914(5) 0.4185(6)
C36 C 0.5396(6) 0.3572(5) 0.1708(5)
N21 N 0.5363(6) 0.0136(3) 0.1979(4)
C40 C 0.5832(6) 0.5407(4) 0.3192(5)
C41 C 0.8429(6) 0.5873(5) 0.2855(6)
C42 C 0.5404(7) 0.4051(4) 0.1587(6)
C43 C 0.5613(7) 0.4196(5) 0.3047(6)
H23 H 0.569552 0.389914 0.295724
C44 C 0.4897(8) 0.3279(4) 0.1460(6)
H24 H 0.451848 0.339719 0.121085
C45 C 0.5543(7) 0.5771(5) 0.3335(5)
C46 C 0.7102(8) 0.5440(5) 0.3476(6)
H25 H 0.708067 0.533483 0.380350
C47 C 0.4335(6) 0.4954(5) 0.1789(6)
H27 H 0.428448 0.000191 0.337241
C48 C 0.4137(6) 0.5406(5) 0.1807(5)
C49 C 0.6985(6) 0.5015(5) 0.0986(5)
C50 C 0.5655(6) 0.4926(6) 0.3189(6)
C51 C 0.5477(7) 0.2120(5) 0.2040(7)
O17 O 0.4972(7) 0.8330(4) 0.4959(4)
C52 C 0.4389(6) 0.4203(5) 0.1925(6)
H28 H 0.428842 0.390719 0.200624
C53 C 0.7192(7) 0.5872(4) 0.0948(5)
H29 H 0.758076 0.587147 0.083203
C54 C 0.7774(6) 0.5731(5) 0.2945(5)
C55 C 0.6846(7) 0.4181(5) 0.1045(5)
H30 H 0.720390 0.408139 0.092051
C56 C 0.2270(7) 0.5681(5) 0.2139(6)
C57 C 0.5963(7) 0.4191(5) 0.1382(6)
C58 C 0.3533(7) 0.3913(5) 0.3691(5)
H31 H 0.350148 0.359865 0.364639
C59 C 0.3002(7) 0.5012(5) 0.4001(5)
C60 C 0.4544(7) 0.3568(5) 0.3214(6)
C61 C 0.2882(7) 0.5398(5) 0.1575(6)
H32 H 0.288869 0.525675 0.126111
N25 N 0.6849(7) 0.1621(4) 0.5139(5)
H33 H 0.715569 0.182771 0.523981
H34 H 0.672492 0.146174 0.536894
C62 C 0.5432(8) 0.2636(4) 0.1906(7)
C63 C 0.1280(7) 0.4666(5) 0.4549(6)
C64 C 0.4918(8) 0.2816(5) 0.1554(6)
H35 H 0.456428 0.263128 0.136521
C65 C 0.4818(7) 0.6204(5) 0.3621(6)
C66 C 0.2254(7) 0.5495(5) 0.1666(5)
H36 H 0.184583 0.543409 0.141201
C67 C 0.2859(7) 0.5797(5) 0.2501(5)
H37 H 0.285038 0.595664 0.280381
C68 C 0.1908(8) 0.4803(6) 0.4907(6)
H38 H 0.196230 0.480229 0.526965
C69 C 0.5063(7) 0.4334(5) 0.3272(6)
C70 C 0.6558(7) 0.5677(5) 0.2604(6)
H39 H 0.616293 0.572589 0.233211
C71 C 0.2440(8) 0.4936(6) 0.4712(6)
H40 H 0.283966 0.504416 0.494473
C72 C 0.4961(7) 0.4336(4) 0.1709(5)
C73 C 0.3311(7) 0.4620(5) 0.3858(5)
C74 C 0.6267(8) 0.6077(4) 0.1188(6)
C75 C 0.3787(7) 0.6067(5) 0.3900(5)
C76 C 0.5342(8) 0.6531(5) 0.3512(6)
H41 H 0.538633 0.684358 0.357168
C77 C 0.5123(7) 0.3265(5) 0.3503(6)
H42 H 0.549558 0.337841 0.376126
C78 C 0.4302(8) 0.6353(5) 0.3805(6)
C79 C 0.3113(8) 0.4165(5) 0.3871(7)
H43 H 0.275186 0.405869 0.398584
C80 C 0.4486(7) 0.5775(5) 0.1706(5)
C81 C 0.4734(7) 0.6554(5) 0.1595(6)
C82 C 0.4250(8) 0.6257(5) 0.1748(6)
C83 C 0.5954(7) 0.2913(5) 0.2199(6)
H44 H 0.630780 0.278801 0.246436
C84 C 0.6864(9) 0.6231(6) 0.1061(7)
H45 H 0.699983 0.653344 0.105893
C85 C 0.5233(8) 0.6227(5) 0.1478(6)
C86 C 0.5801(7) 0.6375(5) 0.1329(6)
C87 C 0.6567(8) 0.1550(6) 0.4629(6)
C88 C 0.3217(7) 0.6214(5) 0.4077(6)
H46 H 0.311941 0.651410 0.414361
C89 C 0.3829(8) 0.1265(6) 0.0511(6)
C90 C 0.4324(6) 0.6848(3) 0.4022(4)
C91 C 0.3853(5) 0.7172(4) 0.3761(4)
H47 H 0.349158 0.708670 0.347590
C92 C 0.3924(5) 0.7624(3) 0.3927(4)
H48 H 0.360901 0.784037 0.375322
C93 C 0.4465(4) 0.7751(2) 0.4354(3)
C94 C 0.4935(5) 0.7427(3) 0.4615(4)
H49 H 0.529727 0.751279 0.489998
C95 C 0.4865(6) 0.6976(3) 0.4448(5)
H50 H 0.517985 0.675912 0.462267
C96 C 0.1594(7) 0.5859(6) 0.2261(6)
C97 C 0.7735(8) 0.5536(6) 0.3400(6)
H51 H 0.813066 0.546449 0.366255
C98 C 0.1239(9) 0.4668(6) 0.4024(7)
H52 H 0.082727 0.458418 0.378742
C99 C 0.5072(7) 0.2815(5) 0.3364(7)
H53 H 0.542271 0.262159 0.353925
C100 C 0.1752(9) 0.4783(6) 0.3825(6)
H54 H 0.169489 0.477696 0.346281
C101 C 0.5815(6) 0.7604(4) 0.0820(4)
H55 H 0.572597 0.775604 0.049839
C102 C 0.5967(4) 0.7850(3) 0.1290(4)
C103 C 0.6101(7) 0.7623(4) 0.1770(4)
H56 H 0.620239 0.778711 0.208451
C104 C 0.6082(8) 0.7149(4) 0.1782(4)
H57 H 0.617169 0.699695 0.210380
C105 C 0.5930(6) 0.6903(3) 0.1313(5)
C106 C 0.5797(7) 0.7130(4) 0.0832(4)
H58 H 0.569527 0.696586 0.051767
C107 C 0.5730(7) 0.6246(5) 0.3303(6)
H59 H 0.607013 0.634387 0.315826
C109 C 0.4537(5) 0.8250(5) 0.4534(5)
O18 O 0.6051(10) 0.8582(6) 0.1704(6)
O19 O 0.5932(6) 0.8541(3) 0.0815(5)
C111 C 0.5986(5) 0.8375(5) 0.1273(5)
O21 O 0.6184(5) 0.9585(4) 0.0769(4)
Zn9 Zn 0.91943(8) 0.63989(5) 0.22469(6)
Zn10 Zn 0.08539(8) 0.63983(5) 0.28239(6)
Zn11 Zn 0.01482(9) 0.56547(7) 0.20057(8)
Zn12 Zn 0.98315(9) 0.57487(7) 0.31462(8)
Zn13 Zn 0.45144(10) 0.90868(6) 0.47206(8)
Zn14 Zn 0.54856(10) 0.09132(6) 0.52794(8)
O22 O 0.3412(4) 0.1051(3) 0.2375(3)
O23 O 0.6548(4) 0.1026(3) 0.2574(3)
O24 O 0.6048(5) 0.0880(4) 0.1713(4)
O25 O 0.3913(6) 0.0679(6) 0.3082(4)
O26 O 0.4778(6) 0.9334(4) 0.0564(5)
H62 H 0.440287 0.529188 0.0500915
H63 H 0.5063 0.535393 0.0284029
H64 H 0.509814 0.539959 0.470403
H65 H 0.499164 0.485168 0.466523
H66 H 0.473228 0.692461 0.157163
H67 H 0.380674 0.63625 0.186849
H68 H 0.648364 0.848883 0.196282
H71 H 0.665747 0.95186 0.0765384
H72 H 0.603284 0.987675 0.0581797
O6 O 0.9256(5) 0.4689(3) 0.9720(4)
H9 H 0.802559 0.489348 0.968697
N20 N 0.3102(7) 0.1685(4) 0.9782(4)
H12 H 0.282083 0.190677 0.967813
H13 H 0.323390 0.152730 0.955459
Zn16 Zn 0.44558(11) 0.09420(7) 0.96111(8)
N28 N 0.5800(7) 0.9046(5) 0.9712(5)
Zn15 Zn 0.94558(11) 0.40580(7) 0.46111(8)
Zn4_2 Zn 0.05039(8) 0.01937(6) 0.13183(7)
O11_2 O 0.0140(6) 0.0170(4) 0.4483(4)
N5_2 N 0.0033(5) 0.0773(4) 0.1499(4)
N11_2 N 0.1245(5) 0.0604(3) 0.1160(4)
C13_2 C 0.1804(6) 0.0461(4) 0.1021(5)
C20_2 C 0.1538(7) 0.0680(5) 0.2582(6)
H14_2 H 0.113433 0.071638 0.231447
C24_2 C 0.1529(7) 0.0504(4) 0.3070(6)
C28_2 C 0.2140(7) 0.0857(5) 0.0872(5)
H18_2 H 0.253253 0.085588 0.076193
C48_2 C 0.0863(6) 0.0406(5) 0.3193(5)
C56_2 C 0.2730(7) 0.0681(5) 0.2861(6)
C59_2 C 0.1998(7) 0.0012(5) 0.0999(5)
C61_2 C 0.2118(7) 0.0398(5) 0.3425(6)
H32_2 H 0.211131 0.025675 0.373889
C65_2 C 0.0182(7) 0.1204(5) 0.1379(6)
C66_2 C 0.2746(7) 0.0495(5) 0.3334(5)
H36_2 H 0.315417 0.043409 0.358799
C67_2 C 0.2141(7) 0.0797(5) 0.2499(5)
H37_2 H 0.214962 0.095664 0.219619
H40_2 H 0.216034 0.004416 0.005527
C75_2 C 0.1213(7) 0.1067(5) 0.1100(5)
C78_2 C 0.0698(8) 0.1353(5) 0.1195(6)
C80_2 C 0.0514(7) 0.0775(5) 0.3294(5)
C81_2 C 0.0266(7) 0.1554(5) 0.3405(6)
C82_2 C 0.0750(8) 0.1257(5) 0.3252(6)
C88_2 C 0.1783(7) 0.1214(5) 0.0923(6)
H46_2 H 0.188059 0.151410 0.085639
C90_2 C 0.0676(6) 0.1848(3) 0.0978(4)
C91_2 C 0.1147(5) 0.2172(4) 0.1239(4)
H47_2 H 0.150842 0.208670 0.152410
C92_2 C 0.1076(5) 0.2624(3) 0.1073(4)
H48_2 H 0.139099 0.284037 0.124678
C93_2 C 0.0535(4) 0.2751(2) 0.0646(3)
C94_2 C 0.0065(5) 0.2427(3) 0.0385(4)
C95_2 C 0.0135(6) 0.1976(3) 0.0552(5)
C96_2 C 0.3406(7) 0.0859(6) 0.2739(6)
C109_2 C 0.0463(5) 0.3250(5) 0.0466(5)
H62_2 H 0.0597129 0.0291881 0.449909
H66_2 H 0.0267716 0.192461 0.342837
H67_2 H 0.119326 0.13625 0.313151
O1_2 O 0.0028(4) 0.6045(3) 0.2541(3)
N1_2 N 0.1221(5) 0.6445(3) 0.3616(4)
N4_2 N 0.0099(6) 0.9800(4) 0.3384(5)
O8_2 O 0.0918(5) 0.7016(3) 0.2585(4)
N8_2 N 0.1114(5) 0.9640(3) 0.1348(4)
N9_2 N 0.0511(5) 0.5854(4) 0.3813(4)
N12_2 N 0.1934(6) 0.7059(4) 0.3555(5)
H3_2 H 0.224915 0.691972 0.345483
H4_2 H 0.160445 0.712432 0.327694
N14_2 N 0.0800(7) 0.5954(5) 0.4712(5)
N15_2 N 0.1908(6) 0.6857(4) 0.4385(5)
C1_2 C 0.0989(6) 0.7917(4) 0.2283(5)
H5_2 H 0.136463 0.780251 0.253729
C2_2 C 0.0999(6) 0.6190(5) 0.3963(5)
N18 N 0.0122(5) 0.4959(4) 0.2261(4)
C15_2 C 0.0961(8) 0.8376(4) 0.2173(5)
H11_2 H 0.130407 0.856329 0.237307
C16_2 C 0.1658(6) 0.6780(5) 0.3855(6)
C18_2 C 0.0509(8) 0.7131(5) 0.2138(7)
C19_2 C 0.0964(7) 0.9188(6) 0.1424(6)
N20_2 N 0.1898(7) 0.6685(4) 0.5218(4)
H12_2 H 0.217917 0.690677 0.532187
H13_2 H 0.176610 0.652730 0.544541
C23_2 C 0.4309(6) 0.9563(4) 0.0249(6)
C26_2 C 0.0955(6) 0.9576(5) 0.3016(6)
H16_2 H 0.132043 0.958607 0.287250
C27_2 C 0.0416(6) 0.5742(4) 0.4304(6)
H17_2 H 0.009494 0.552822 0.433634
C29_2 C 0.0468(6) 0.9046(5) 0.1629(5)
O16_2 O 0.0190(6) 0.6857(3) 0.1838(4)
C33_2 C 0.0481(6) 0.7621(4) 0.2029(5)
C34_2 C 0.1680(6) 0.6593(5) 0.4732(6)
C35_2 C 0.2609(7) 0.9914(5) 0.0815(6)
C44_2 C 0.0103(8) 0.8279(4) 0.3540(6)
H24_2 H 0.048152 0.839719 0.378915
N23 N 0.0128(8) 0.4186(5) 0.2051(6)
C47_2 C 0.0665(6) 0.9954(5) 0.3211(6)
N24 N 0.0625(6) 0.4721(5) 0.1671(5)
H26 H 0.077399 0.451041 0.150563
H27_2 H 0.071552 0.500191 0.162759
C52_2 C 0.0611(6) 0.9203(5) 0.3075(6)
H28_2 H 0.071158 0.890719 0.299376
C58_2 C 0.1467(7) 0.8913(5) 0.1309(5)
H31_2 H 0.149852 0.859865 0.135361
C60_2 C 0.0456(7) 0.8568(5) 0.1786(6)
C63_2 C 0.3720(7) 0.9666(5) 0.0451(6)
C64_2 C 0.0082(8) 0.7816(5) 0.3446(6)
H35_2 H 0.043572 0.763128 0.363479
C68_2 C 0.3092(8) 0.9803(6) 0.0093(6)
C71_2 C 0.2560(8) 0.9936(6) 0.0288(6)
C72_2 C 0.0039(7) 0.9336(4) 0.3291(5)
C73_2 C 0.1689(7) 0.9620(5) 0.1142(5)
C79_2 C 0.1887(8) 0.9165(5) 0.1129(7)
H43_2 H 0.224814 0.905869 0.101416
C89_2 C 0.1171(8) 0.6265(6) 0.4489(6)
C98_2 C 0.3761(9) 0.9668(6) 0.0976(7)
H52_2 H 0.417273 0.958418 0.121258
C100_2 C 0.3248(9) 0.9783(6) 0.1175(6)
H54_2 H 0.330511 0.977696 0.153719
C110 C 0.0218(8) 0.4601(6) 0.2026(6)
Zn16_2 Zn 0.05442(11) 0.59420(7) 0.53889(8)
H65_2 H 0.000835613 0.985168 0.0334774
Zn3_2 Zn 0.94972(8) 0.02055(6) 0.36812(7)
O10_2 O 0.9860(5) 0.0122(3) 0.0500(4)
N10_2 N 0.9941(5) 0.0778(3) 0.3465(4)
N17_2 N 0.8741(5) 0.0618(4) 0.3820(4)
C5_2 C 0.8487(6) 0.0497(4) 0.1921(5)
H10_2 H 0.786959 0.008584 0.497817
C17_2 C 0.8182(7) 0.0490(5) 0.3957(5)
C32_2 C 0.7831(7) 0.0785(5) 0.2471(5)
H21_2 H 0.781119 0.089405 0.279771
C40_2 C 0.9168(6) 0.0407(4) 0.1808(5)
C41_2 C 0.6571(6) 0.0873(5) 0.2145(6)
C45_2 C 0.9457(7) 0.0771(5) 0.1665(5)
C46_2 C 0.7898(8) 0.0440(5) 0.1524(6)
H25_2 H 0.791933 0.033483 0.119650
C49_2 C 0.8015(6) 0.0015(5) 0.4014(5)
C53_2 C 0.7808(7) 0.0872(4) 0.4052(5)
H29_2 H 0.741924 0.087147 0.416797
C54_2 C 0.7226(6) 0.0731(5) 0.2055(5)
C70_2 C 0.8442(7) 0.0677(5) 0.2396(6)
H39_2 H 0.883707 0.072589 0.266789
C74_2 C 0.8733(8) 0.1077(4) 0.3812(6)
C76_2 C 0.9658(8) 0.1531(5) 0.1488(6)
H41_2 H 0.961367 0.184358 0.142832
C84_2 C 0.8136(9) 0.1231(6) 0.3939(7)
H45_2 H 0.800017 0.153344 0.394107
C85_2 C 0.9767(8) 0.1227(5) 0.3522(6)
C86_2 C 0.9199(7) 0.1375(5) 0.3671(6)
H49_2 H 0.970273 0.251279 0.010002
H50_2 H 0.982015 0.175912 0.037733
C97_2 C 0.7265(8) 0.0536(6) 0.1600(6)
H51_2 H 0.686934 0.046449 0.133745
C101_2 C 0.9185(6) 0.2604(4) 0.4180(4)
H55_2 H 0.927403 0.275604 0.450161
C102_2 C 0.9033(4) 0.2850(3) 0.3710(4)
C103_2 C 0.8899(7) 0.2623(4) 0.3230(4)
H56_2 H 0.879761 0.278711 0.291549
C104_2 C 0.8918(8) 0.2149(4) 0.3218(4)
H57_2 H 0.882831 0.199695 0.289620
C105_2 C 0.9070(6) 0.1903(3) 0.3687(5)
C106_2 C 0.9203(7) 0.2130(4) 0.4168(4)
H58_2 H 0.930473 0.196586 0.448233
C107_2 C 0.9270(7) 0.1246(5) 0.1697(6)
H59_2 H 0.892987 0.134387 0.184174
O18_2 O 0.8949(10) 0.3582(6) 0.3296(6)
O19_2 O 0.9068(6) 0.3541(3) 0.4185(5)
C111_2 C 0.9014(5) 0.3375(5) 0.3727(5)
O21_2 O 0.8816(5) 0.4585(4) 0.4231(4)
N28_2 N 0.9200(7) 0.4046(5) 0.5288(5)
H63_2 H 0.9937 0.0353932 0.471597
H64_2 H 0.990186 0.0399587 0.0295967
H68_2 H 0.851636 0.348883 0.303718
H71_2 H 0.834253 0.45186 0.423462
H72_2 H 0.896716 0.487675 0.44182
N2_2 N 0.8844(5) 0.6426(3) 0.1466(4)
O4_2 O 0.9141(4) 0.7011(3) 0.2500(4)
O5_2 O 0.9861(4) 0.6841(3) 0.3285(4)
O6_2 O 0.5744(5) 0.9689(3) 0.5280(4)
O7_2 O 0.5297(5) 0.9330(3) 0.4545(4)
N3_2 N 0.9574(6) 0.5823(4) 0.1302(4)
N6_2 N 0.8892(5) 0.9645(4) 0.3694(5)
N7_2 N 0.8159(6) 0.7053(4) 0.1508(5)
H1_2 H 0.846786 0.717675 0.178286
H2_2 H 0.798167 0.728386 0.130246
N13_2 N 0.9292(5) 0.5884(4) 0.0412(4)
N16_2 N 0.8181(6) 0.6829(4) 0.0681(5)
C3_2 C 0.9053(6) 0.8371(4) 0.2905(5)
H6_2 H 0.869248 0.855251 0.271981
C4_2 C 0.9073(7) 0.6160(5) 0.1140(5)
N19_2 N 0.9886(5) 0.9805(3) 0.1635(5)
C6_2 C 0.7400(4) 0.9924(3) 0.4217(3)
C7_2 C 0.6797(4) 0.9758(4) 0.3881(2)
H7_2 H 0.675213 0.972422 0.352242
C8_2 C 0.6260(4) 0.9643(4) 0.4082(3)
H8_2 H 0.585696 0.953187 0.385730
C9_2 C 0.6327(4) 0.9694(3) 0.4618(3)
C10_2 C 0.6930(4) 0.9860(3) 0.4954(2)
H9_2 H 0.697441 0.989348 0.531303
C11_2 C 0.7466(3) 0.9975(3) 0.4754(3)
C12_2 C 0.8899(7) 0.6193(4) 0.0619(6)
C14_2 C 0.8418(7) 0.6739(5) 0.1211(6)
C21_2 C 0.8353(7) 0.9638(5) 0.3903(6)
C22_2 C 0.5747(5) 0.9561(3) 0.4831(4)
C25_2 C 0.8608(8) 0.8913(5) 0.3781(6)
H15_2 H 0.861641 0.859565 0.377709
C30_2 C 0.9025(6) 0.9563(5) 0.2007(5)
H19_2 H 0.865216 0.957649 0.214164
C31_2 C 0.9647(7) 0.5685(5) 0.0834(6)
H20_2 H 0.994781 0.545223 0.081651
C36_2 C 0.9604(6) 0.8572(5) 0.3292(5)
N21_2 N 0.9637(6) 0.5136(3) 0.3021(4)
C37 C 0.9831(6) 0.4852(3) 0.2652(4)
C38 C 0.9626(7) 0.4400(3) 0.2722(4)
N22 N 0.9305(6) 0.4404(3) 0.3135(4)
C39 C 0.9312(6) 0.4859(4) 0.3319(4)
H22 H 0.913426 0.495881 0.358796
C42_2 C 0.9596(7) 0.9051(4) 0.3413(6)
C43_2 C 0.9387(7) 0.9196(5) 0.1953(6)
H23_2 H 0.930448 0.889914 0.204276
C50_2 C 0.9345(6) 0.9926(6) 0.1811(6)
C51_2 C 0.9523(7) 0.7120(5) 0.2960(7)
C55_2 C 0.8154(7) 0.9181(5) 0.3955(5)
H30_2 H 0.779610 0.908139 0.407949
C57_2 C 0.9037(7) 0.9191(5) 0.3618(6)
C62_2 C 0.9568(8) 0.7636(4) 0.3094(7)
C69_2 C 0.9937(7) 0.9334(5) 0.1728(6)
C77_2 C 0.9877(7) 0.8265(5) 0.1497(6)
H42_2 H 0.950442 0.837841 0.123874
C83_2 C 0.9046(7) 0.7913(5) 0.2801(6)
H44_2 H 0.869220 0.778801 0.253564
C87_2 C 0.8433(8) 0.6550(6) 0.0371(6)
C99_2 C 0.9928(7) 0.7815(5) 0.1636(7)
H53_2 H 0.957729 0.762159 0.146075
C108 C 0.9838(11) 0.4039(6) 0.2415(7)
N26 N 0.9570(12) 0.3616(5) 0.2412(7)
H60 H 0.958092 0.342585 0.216618
H61 H 0.938858 0.353785 0.265600
O20_2 O 0.3821(5) 0.9529(3) 0.4229(4)
N27_2 N 0.4292(5) 0.9116(4) 0.5412(4)
H69_2 H 0.383127 0.948595 0.385777
H70_2 H 0.335708 0.946305 0.425613
N25_2 N 0.8151(7) 0.6621(4) 0.9861(5)
H33_2 H 0.784431 0.682771 0.976019
H34_2 H 0.827508 0.646174 0.963106
Zn14_2 Zn 0.95144(10) 0.59132(6) 0.97206(8)
O6_3 O 0.0744(5) 0.5311(3) 0.0280(4)
H9_3 H 0.197441 0.510652 0.031303
N20_3 N 0.6898(7) 0.8315(4) 0.0218(4)
H12_3 H 0.717917 0.809323 0.032187
H13_3 H 0.676610 0.847270 0.044541
Zn1_2 Zn 0.41943(8) 0.86011(5) 0.72469(6)
Zn2_2 Zn 0.58539(8) 0.86017(5) 0.78239(6)
Zn3_3 Zn 0.44972(8) 0.47945(6) 0.86812(7)
Zn4_3 Zn 0.55039(8) 0.48063(6) 0.63183(7)
Zn5_2 Zn 0.51482(9) 0.93453(7) 0.70057(8)
Zn6_2 Zn 0.48315(9) 0.92513(7) 0.81462(8)
O1_3 O 0.5028(4) 0.8955(3) 0.7541(3)
O2_2 O 0.8412(4) 0.3949(3) 0.7375(3)
N1_3 N 0.6221(5) 0.8555(3) 0.8616(4)
O3_2 O 0.1548(4) 0.3974(3) 0.7574(3)
N2_3 N 0.3844(5) 0.8574(3) 0.6466(4)
O4_3 O 0.4141(4) 0.7989(3) 0.7500(4)
O5_3 O 0.4861(4) 0.8159(3) 0.8285(4)
O7_3 O 0.0297(5) 0.5670(3) 0.9545(4)
N3_3 N 0.4574(6) 0.9177(4) 0.6302(4)
N4_3 N 0.5099(6) 0.5200(4) 0.8384(5)
O8_3 O 0.5918(5) 0.7984(3) 0.7585(4)
O9_2 O 0.9312(5) 0.5321(4) 0.4803(5)
O10_3 O 0.4860(5) 0.4878(3) 0.5500(4)
O11_3 O 0.5140(6) 0.4830(4) 0.9483(4)
N5_3 N 0.5033(5) 0.4227(4) 0.6499(4)
N6_3 N 0.3892(5) 0.5355(4) 0.8694(5)
N7_3 N 0.3159(6) 0.7947(4) 0.6508(5)
H1_3 H 0.346786 0.782325 0.678286
H2_3 H 0.298167 0.771614 0.630246
N8_3 N 0.6114(5) 0.5360(3) 0.6348(4)
N9_3 N 0.5511(5) 0.9146(4) 0.8813(4)
O12_2 O 0.1048(5) 0.4120(4) 0.6713(4)
N10_3 N 0.4941(5) 0.4222(3) 0.8465(4)
N11_3 N 0.6245(5) 0.4396(3) 0.6160(4)
N12_3 N 0.6934(6) 0.7941(4) 0.8555(5)
H3_3 H 0.724915 0.808028 0.845483
H4_3 H 0.660445 0.787568 0.827694
O13_2 O 0.8913(6) 0.4321(6) 0.8082(4)
N15_3 N 0.6908(6) 0.8143(4) 0.9385(5)
C1_3 C 0.5989(6) 0.7083(4) 0.7283(5)
H5_3 H 0.636463 0.719749 0.753729
N16_3 N 0.3181(6) 0.8171(4) 0.5681(5)
N17_3 N 0.3741(5) 0.4382(4) 0.8820(4)
O14_2 O 0.9778(6) 0.5666(4) 0.5564(5)
C2_3 C 0.5999(6) 0.8810(5) 0.8963(5)
O15_2 O 0.5843(6) 0.1460(3) 0.5756(4)
C3_3 C 0.4053(6) 0.6629(4) 0.7905(5)
H6_3 H 0.369248 0.644749 0.771981
C4_3 C 0.4073(7) 0.8840(5) 0.6140(5)
C5_3 C 0.3487(6) 0.4503(4) 0.6921(5)
N19_3 N 0.4886(5) 0.5195(3) 0.6635(5)
C6_3 C 0.2400(4) 0.5076(3) 0.9217(3)
C7_3 C 0.1797(4) 0.5242(4) 0.8881(2)
H7_3 H 0.175213 0.527578 0.852242
C8_3 C 0.1260(4) 0.5357(4) 0.9082(3)
H8_3 H 0.085696 0.546813 0.885730
C9_3 C 0.1327(4) 0.5306(3) 0.9618(3)
C10_3 C 0.1930(4) 0.5140(3) 0.9954(2)
C11_3 C 0.2466(3) 0.5025(3) 0.9754(3)
H10_3 H 0.286959 0.491416 0.997817
C12_3 C 0.3899(7) 0.8807(4) 0.5619(6)
C13_3 C 0.6804(6) 0.4539(4) 0.6021(5)
C14_3 C 0.3418(7) 0.8261(5) 0.6211(6)
C15_3 C 0.5961(8) 0.6624(4) 0.7173(5)
H11_3 H 0.630407 0.643671 0.737307
C16_3 C 0.6658(6) 0.8220(5) 0.8855(6)
C17_3 C 0.3182(7) 0.4510(5) 0.8957(5)
C18_3 C 0.5509(8) 0.7869(5) 0.7138(7)
C19_3 C 0.5964(7) 0.5812(6) 0.6424(6)
C20_3 C 0.6538(7) 0.4320(5) 0.7582(6)
H14_3 H 0.613433 0.428362 0.731447
C21_3 C 0.3353(7) 0.5362(5) 0.8903(6)
C22_3 C 0.0747(5) 0.5439(3) 0.9831(4)
C23_3 C 0.9309(6) 0.5437(4) 0.5249(6)
C24_3 C 0.6529(7) 0.4496(4) 0.8070(6)
C25_3 C 0.3608(8) 0.6087(5) 0.8781(6)
H15_3 H 0.361641 0.640435 0.877709
C26_3 C 0.5955(6) 0.5424(5) 0.8016(6)
H16_3 H 0.632043 0.541393 0.787250
C27_3 C 0.5416(6) 0.9258(4) 0.9304(6)
H17_3 H 0.509494 0.947178 0.933634
C28_3 C 0.7140(7) 0.4143(5) 0.5872(5)
H18_3 H 0.753253 0.414412 0.576193
C29_3 C 0.5468(6) 0.5954(5) 0.6629(5)
C30_3 C 0.4025(6) 0.5437(5) 0.7007(5)
H19_3 H 0.365216 0.542351 0.714164
C31_3 C 0.4647(7) 0.9315(5) 0.5834(6)
H20_3 H 0.494781 0.954777 0.581651
C32_3 C 0.2831(7) 0.4215(5) 0.7471(5)
H21_3 H 0.281119 0.410595 0.779771
O16_3 O 0.5190(6) 0.8143(3) 0.6838(4)
C33_3 C 0.5481(6) 0.7379(4) 0.7029(5)
C34_3 C 0.6680(6) 0.8407(5) 0.9732(6)
C35_3 C 0.7609(7) 0.5086(5) 0.5815(6)
C36_3 C 0.4604(6) 0.6428(5) 0.8292(5)
N21_3 N 0.4637(6) 0.9864(3) 0.8021(4)
C40_3 C 0.4168(6) 0.4593(4) 0.6808(5)
C41_3 C 0.1571(6) 0.4127(5) 0.7145(6)
C42_3 C 0.4596(7) 0.5949(4) 0.8413(6)
C43_3 C 0.4387(7) 0.5804(5) 0.6953(6)
H23_3 H 0.430448 0.610086 0.704276
C44_3 C 0.5103(8) 0.6721(4) 0.8540(6)
H24_3 H 0.548152 0.660281 0.878915
C45_3 C 0.4457(7) 0.4229(5) 0.6665(5)
C46_3 C 0.2898(8) 0.4560(5) 0.6524(6)
H25_3 H 0.291933 0.466517 0.619650
C47_3 C 0.5665(6) 0.5046(5) 0.8211(6)
H27_3 H 0.571552 0.999809 0.662759
C48_3 C 0.5863(6) 0.4594(5) 0.8193(5)
C49_3 C 0.3015(6) 0.4985(5) 0.9014(5)
C50_3 C 0.4345(6) 0.5074(6) 0.6811(6)
C51_3 C 0.4523(7) 0.7880(5) 0.7960(7)
O17_2 O 0.5028(7) 0.1670(4) 0.5041(4)
C52_3 C 0.5611(6) 0.5797(5) 0.8075(6)
H28_3 H 0.571158 0.609281 0.799376
C53_3 C 0.2808(7) 0.4128(4) 0.9052(5)
H29_3 H 0.241924 0.412853 0.916797
C54_3 C 0.2226(6) 0.4269(5) 0.7055(5)
C55_3 C 0.3154(7) 0.5819(5) 0.8955(5)
H30_3 H 0.279610 0.591861 0.907949
C56_3 C 0.7730(7) 0.4319(5) 0.7861(6)
C57_3 C 0.4037(7) 0.5809(5) 0.8618(6)
C58_3 C 0.6467(7) 0.6087(5) 0.6309(5)
H31_3 H 0.649852 0.640135 0.635361
C59_3 C 0.6998(7) 0.4988(5) 0.5999(5)
C60_3 C 0.5456(7) 0.6432(5) 0.6786(6)
C61_3 C 0.7118(7) 0.4602(5) 0.8425(6)
H32_3 H 0.711131 0.474325 0.873889
N25_3 N 0.3151(7) 0.8379(4) 0.4861(5)
H33_3 H 0.284431 0.817229 0.476019
H34_3 H 0.327508 0.853826 0.463106
C62_3 C 0.4568(8) 0.7364(4) 0.8094(7)
C63_3 C 0.8720(7) 0.5334(5) 0.5451(6)
C64_3 C 0.5082(8) 0.7184(5) 0.8446(6)
H35_3 H 0.543572 0.736872 0.863479
C65_3 C 0.5182(7) 0.3796(5) 0.6379(6)
C66_3 C 0.7746(7) 0.4505(5) 0.8334(5)
H36_3 H 0.815417 0.456591 0.858799
C67_3 C 0.7141(7) 0.4203(5) 0.7499(5)
H37_3 H 0.714962 0.404336 0.719619
C68_3 C 0.8092(8) 0.5197(6) 0.5093(6)
H38_2 H 0.803770 0.519771 0.473035
C69_3 C 0.4937(7) 0.5666(5) 0.6728(6)
C70_3 C 0.3442(7) 0.4323(5) 0.7396(6)
H39_3 H 0.383707 0.427411 0.766789
C71_3 C 0.7560(8) 0.5064(6) 0.5288(6)
H40_3 H 0.716034 0.495584 0.505527
C72_3 C 0.5039(7) 0.5664(4) 0.8291(5)
C73_3 C 0.6689(7) 0.5380(5) 0.6142(5)
C74_3 C 0.3733(8) 0.3923(4) 0.8812(6)
C75_3 C 0.6213(7) 0.3933(5) 0.6100(5)
C76_3 C 0.4658(8) 0.3469(5) 0.6488(6)
H41_3 H 0.461367 0.315642 0.642832
C77_3 C 0.4877(7) 0.6735(5) 0.6497(6)
H42_3 H 0.450442 0.662159 0.623874
C78_3 C 0.5698(8) 0.3647(5) 0.6195(6)
C79_3 C 0.6887(8) 0.5835(5) 0.6129(7)
H43_3 H 0.724814 0.594131 0.601416
C80_3 C 0.5514(7) 0.4225(5) 0.8294(5)
C81_3 C 0.5266(7) 0.3446(5) 0.8405(6)
C82_3 C 0.5750(8) 0.3743(5) 0.8252(6)
C83_3 C 0.4046(7) 0.7087(5) 0.7801(6)
H44_3 H 0.369220 0.721199 0.753564
C84_3 C 0.3136(9) 0.3769(6) 0.8939(7)
H45_3 H 0.300017 0.346656 0.894107
C85_3 C 0.4767(8) 0.3773(5) 0.8522(6)
C86_3 C 0.4199(7) 0.3625(5) 0.8671(6)
C87_3 C 0.3433(8) 0.8450(6) 0.5371(6)
C88_3 C 0.6783(7) 0.3786(5) 0.5923(6)
H46_3 H 0.688059 0.348590 0.585639
C89_3 C 0.6171(8) 0.8735(6) 0.9489(6)
C90_3 C 0.5676(6) 0.3152(3) 0.5978(4)
C91_3 C 0.6147(5) 0.2828(4) 0.6239(4)
H47_3 H 0.650842 0.291330 0.652410
C92_3 C 0.6076(5) 0.2376(3) 0.6073(4)
H48_3 H 0.639099 0.215963 0.624678
C93_3 C 0.5535(4) 0.2249(2) 0.5646(3)
C94_3 C 0.5065(5) 0.2573(3) 0.5385(4)
H49_3 H 0.470273 0.248721 0.510002
C95_3 C 0.5135(6) 0.3024(3) 0.5552(5)
H50_3 H 0.482015 0.324088 0.537733
C96_3 C 0.8406(7) 0.4141(6) 0.7739(6)
C97_3 C 0.2265(8) 0.4464(6) 0.6600(6)
H51_3 H 0.186934 0.453551 0.633745
C98_3 C 0.8761(9) 0.5332(6) 0.5976(7)
H52_3 H 0.917273 0.541582 0.621258
C99_3 C 0.4928(7) 0.7185(5) 0.6636(7)
H53_3 H 0.457729 0.737841 0.646075
C100_3 C 0.8248(9) 0.5217(6) 0.6175(6)
H54_3 H 0.830511 0.522304 0.653719
C101_3 C 0.4185(6) 0.2396(4) 0.9180(4)
H55_3 H 0.427403 0.224396 0.950161
C102_3 C 0.4033(4) 0.2150(3) 0.8710(4)
C103_3 C 0.3899(7) 0.2377(4) 0.8230(4)
H56_3 H 0.379761 0.221289 0.791549
C104_3 C 0.3918(8) 0.2851(4) 0.8218(4)
H57_3 H 0.382831 0.300305 0.789620
C105_3 C 0.4070(6) 0.3097(3) 0.8687(5)
C106_3 C 0.4203(7) 0.2870(4) 0.9168(4)
H58_3 H 0.430473 0.303414 0.948233
C107_3 C 0.4270(7) 0.3754(5) 0.6697(6)
H59_3 H 0.392987 0.365613 0.684174
C109_3 C 0.5463(5) 0.1750(5) 0.5466(5)
O18_3 O 0.3949(10) 0.1418(6) 0.8296(6)
O19_3 O 0.4068(6) 0.1459(3) 0.9185(5)
C111_3 C 0.4014(5) 0.1625(5) 0.8727(5)
O21_3 O 0.3816(5) 0.0415(4) 0.9231(4)
Zn9_2 Zn 0.08057(8) 0.36011(5) 0.77531(6)
Zn10_2 Zn 0.91461(8) 0.36017(5) 0.71761(6)
Zn11_2 Zn 0.98518(9) 0.43453(7) 0.79943(8)
Zn12_2 Zn 0.01685(9) 0.42513(7) 0.68538(8)
O22_2 O 0.6588(4) 0.8949(3) 0.7625(3)
O23_2 O 0.3452(4) 0.8974(3) 0.7426(3)
O24_2 O 0.3952(5) 0.9120(4) 0.8287(4)
O25_2 O 0.6087(6) 0.9321(6) 0.6918(4)
O26_2 O 0.5222(6) 0.0666(4) 0.9436(5)
H62_3 H 0.559713 0.470812 0.949909
H63_3 H 0.4937 0.464607 0.971597
H64_3 H 0.490186 0.460041 0.529597
H65_3 H 0.500836 0.514832 0.533477
H66_3 H 0.526772 0.307539 0.842837
H67_3 H 0.619326 0.36375 0.813151
H68_3 H 0.351636 0.151117 0.803718
H71_3 H 0.334253 0.0481397 0.923462
H72_3 H 0.396716 0.0123249 0.94182
O20_3 O 0.8821(5) 0.5471(3) 0.9229(4)
O27_2 O 0.9157(6) 0.6460(3) 0.9244(4)
O28_2 O 0.9972(7) 0.6670(4) 0.9959(4)
H69_3 H 0.883127 0.551405 0.885777
H70_3 H 0.835708 0.553695 0.925613
N25_4 N 0.1849(7) 0.3379(4) 0.0139(5)
H33_4 H 0.215569 0.317229 0.023981
H34_4 H 0.172492 0.353826 0.036894
N2_4 N 0.1156(5) 0.3574(3) 0.8534(4)
O4_4 O 0.0859(4) 0.2989(3) 0.7500(4)
O5_4 O 0.0139(4) 0.3159(3) 0.6715(4)
O6_4 O 0.4256(5) 0.0311(3) 0.4720(4)
O7_4 O 0.4703(5) 0.0670(3) 0.5455(4)
N3_4 N 0.0426(6) 0.4177(4) 0.8698(4)
N6_4 N 0.1108(5) 0.0355(4) 0.6306(5)
N7_4 N 0.1841(6) 0.2947(4) 0.8492(5)
H1_4 H 0.153214 0.282325 0.821714
H2_4 H 0.201833 0.271614 0.869754
N16_4 N 0.1819(6) 0.3171(4) 0.9319(5)
C3_4 C 0.0947(6) 0.1629(4) 0.7095(5)
H6_4 H 0.130752 0.144749 0.728019
C4_4 C 0.0927(7) 0.3840(5) 0.8860(5)
N19_4 N 0.0114(5) 0.0195(3) 0.8365(5)
C6_4 C 0.2600(4) 0.0076(3) 0.5783(3)
C7_4 C 0.3203(4) 0.0242(4) 0.6119(2)
H7_4 H 0.324787 0.027578 0.647758
C8_4 C 0.3740(4) 0.0357(4) 0.5918(3)
H8_4 H 0.414304 0.046813 0.614270
C9_4 C 0.3673(4) 0.0306(3) 0.5382(3)
C10_4 C 0.3070(4) 0.0140(3) 0.5046(2)
H9_4 H 0.302559 0.010652 0.468697
C11_4 C 0.2534(3) 0.0025(3) 0.5246(3)
C12_4 C 0.1101(7) 0.3807(4) 0.9381(6)
C14_4 C 0.1582(7) 0.3261(5) 0.8789(6)
C21_4 C 0.1647(7) 0.0362(5) 0.6097(6)
C22_4 C 0.4253(5) 0.0439(3) 0.5169(4)
C25_4 C 0.1392(8) 0.1087(5) 0.6219(6)
H15_4 H 0.138359 0.140435 0.622291
C30_4 C 0.0975(6) 0.0437(5) 0.7993(5)
H19_4 H 0.134784 0.042351 0.785836
C31_4 C 0.0353(7) 0.4315(5) 0.9166(6)
H20_4 H 0.005219 0.454777 0.918349
C36_4 C 0.0396(6) 0.1428(5) 0.6708(5)
N21_4 N 0.0363(6) 0.4864(3) 0.6979(4)
C37_2 C 0.0169(6) 0.5148(3) 0.7348(4)
C38_2 C 0.0374(7) 0.5600(3) 0.7278(4)
N22_2 N 0.0695(6) 0.5596(3) 0.6865(4)
C39_2 C 0.0688(6) 0.5141(4) 0.6681(4)
H22_2 H 0.086574 0.504119 0.641204
C42_4 C 0.0404(7) 0.0949(4) 0.6587(6)
C43_4 C 0.0613(7) 0.0804(5) 0.8047(6)
H23_4 H 0.069552 0.110086 0.795724
C50_4 C 0.0655(6) 0.0074(6) 0.8189(6)
C51_4 C 0.0477(7) 0.2880(5) 0.7040(7)
C55_4 C 0.1846(7) 0.0819(5) 0.6045(5)
H30_4 H 0.220390 0.091861 0.592051
C57_4 C 0.0963(7) 0.0809(5) 0.6382(6)
C62_4 C 0.0432(8) 0.2364(4) 0.6906(7)
C69_4 C 0.0063(7) 0.0666(5) 0.8272(6)
C77_4 C 0.0123(7) 0.1735(5) 0.8503(6)
H42_4 H 0.049558 0.162159 0.876126
C83_4 C 0.0954(7) 0.2087(5) 0.7199(6)
H44_4 H 0.130780 0.221199 0.746436
C87_4 C 0.1567(8) 0.3450(6) 0.9629(6)
C99_4 C 0.0072(7) 0.2185(5) 0.8364(7)
H53_4 H 0.042271 0.237841 0.853925
C108_2 C 0.0162(11) 0.5961(6) 0.7585(7)
N26_2 N 0.0430(12) 0.6384(5) 0.7588(7)
H60_2 H 0.041908 0.657415 0.783382
H61_2 H 0.061142 0.646215 0.734400
O20_4 O 0.6179(5) 0.0471(3) 0.5771(4)
H69_4 H 0.616873 0.0514047 0.614223
H70_4 H 0.664292 0.053695 0.574387
Zn3_4 Zn 0.05028(8) 0.97945(6) 0.63188(7)
O10_4 O 0.0140(5) 0.9878(3) 0.9500(4)
N10_4 N 0.0059(5) 0.9222(3) 0.6535(4)
N17_4 N 0.1259(5) 0.9382(4) 0.6180(4)
C5_4 C 0.1513(6) 0.9503(4) 0.8079(5)
H10_4 H 0.213041 0.991416 0.502183
C17_4 C 0.1818(7) 0.9510(5) 0.6043(5)
C32_4 C 0.2169(7) 0.9215(5) 0.7529(5)
H21_4 H 0.218881 0.910595 0.720229
C40_4 C 0.0832(6) 0.9593(4) 0.8192(5)
C41_4 C 0.3429(6) 0.9127(5) 0.7855(6)
C45_4 C 0.0543(7) 0.9229(5) 0.8335(5)
C46_4 C 0.2102(8) 0.9560(5) 0.8476(6)
H25_4 H 0.208067 0.966517 0.880350
C49_4 C 0.1985(6) 0.9985(5) 0.5986(5)
C53_4 C 0.2192(7) 0.9128(4) 0.5948(5)
H29_4 H 0.258076 0.912853 0.583203
C54_4 C 0.2774(6) 0.9269(5) 0.7945(5)
C70_4 C 0.1558(7) 0.9323(5) 0.7604(6)
H39_4 H 0.116293 0.927411 0.733211
C74_4 C 0.1267(8) 0.8923(4) 0.6188(6)
C76_4 C 0.0342(8) 0.8469(5) 0.8512(6)
H41_4 H 0.038633 0.815642 0.857168
C84_4 C 0.1864(9) 0.8769(6) 0.6061(7)
H45_4 H 0.199983 0.846656 0.605893
C85_4 C 0.0233(8) 0.8773(5) 0.6478(6)
C86_4 C 0.0801(7) 0.8625(5) 0.6329(6)
H49_4 H 0.029727 0.748721 0.989998
H50_4 H 0.017985 0.824088 0.962267
C97_4 C 0.2735(8) 0.9464(6) 0.8400(6)
H51_4 H 0.313066 0.953551 0.866255
C101_4 C 0.0815(6) 0.7396(4) 0.5820(4)
H55_4 H 0.072597 0.724396 0.549839
C102_4 C 0.0967(4) 0.7150(3) 0.6290(4)
C103_4 C 0.1101(7) 0.7377(4) 0.6770(4)
H56_4 H 0.120239 0.721289 0.708451
C104_4 C 0.1082(8) 0.7851(4) 0.6782(4)
H57_4 H 0.117169 0.800305 0.710380
C105_4 C 0.0930(6) 0.8097(3) 0.6313(5)
C106_4 C 0.0797(7) 0.7870(4) 0.5832(4)
H58_4 H 0.069527 0.803414 0.551767
C107_4 C 0.0730(7) 0.8754(5) 0.8303(6)
H59_4 H 0.107013 0.865613 0.815826
O18_4 O 0.1051(10) 0.6418(6) 0.6704(6)
O19_4 O 0.0932(6) 0.6459(3) 0.5815(5)
C111_4 C 0.0986(5) 0.6625(5) 0.6273(5)
O21_4 O 0.1184(5) 0.5415(4) 0.5769(4)
H63_4 H 0.00629954 0.964607 0.528403
H64_4 H 0.00981436 0.960041 0.970403
H68_4 H 0.148364 0.651117 0.696282
H71_4 H 0.165747 0.54814 0.576538
H72_4 H 0.103284 0.512325 0.55818
O1_4 O 0.9972(4) 0.3955(3) 0.7459(3)
N1_4 N 0.8779(5) 0.3555(3) 0.6384(4)
N4_4 N 0.9901(6) 0.0200(4) 0.6616(5)
O8_4 O 0.9082(5) 0.2984(3) 0.7415(4)
N8_4 N 0.8886(5) 0.0360(3) 0.8652(4)
N9_4 N 0.9489(5) 0.4146(4) 0.6187(4)
N12_4 N 0.8066(6) 0.2941(4) 0.6445(5)
H3_4 H 0.775085 0.308028 0.654517
H4_4 H 0.839555 0.287568 0.672306
N15_4 N 0.8092(6) 0.3143(4) 0.5615(5)
C1_4 C 0.9011(6) 0.2083(4) 0.7717(5)
H5_4 H 0.863537 0.219749 0.746271
C2_4 C 0.9001(6) 0.3810(5) 0.6037(5)
N18_2 N 0.9878(5) 0.5041(4) 0.7739(4)
C15_4 C 0.9039(8) 0.1624(4) 0.7827(5)
H11_4 H 0.869593 0.143671 0.762693
C16_4 C 0.8342(6) 0.3220(5) 0.6145(6)
C18_4 C 0.9491(8) 0.2869(5) 0.7862(7)
C19_4 C 0.9036(7) 0.0812(6) 0.8576(6)
N20_4 N 0.8102(7) 0.3315(4) 0.4782(4)
H12_4 H 0.782083 0.309323 0.467813
H13_4 H 0.823390 0.347270 0.455459
C23_4 C 0.5691(6) 0.0437(4) 0.9751(6)
C26_4 C 0.9045(6) 0.0424(5) 0.6984(6)
H16_4 H 0.867957 0.041393 0.712750
C27_4 C 0.9584(6) 0.4258(4) 0.5696(6)
H17_4 H 0.990506 0.447178 0.566366
C29_4 C 0.9532(6) 0.0954(5) 0.8371(5)
O16_4 O 0.9810(6) 0.3143(3) 0.8162(4)
C33_4 C 0.9519(6) 0.2379(4) 0.7971(5)
C34_4 C 0.8320(6) 0.3407(5) 0.5268(6)
C35_4 C 0.7391(7) 0.0086(5) 0.9185(6)
C44_4 C 0.9897(8) 0.1721(4) 0.6460(6)
H24_4 H 0.951848 0.160281 0.621085
N23_2 N 0.9872(8) 0.5814(5) 0.7949(6)
C47_4 C 0.9335(6) 0.0046(5) 0.6789(6)
N24_2 N 0.9375(6) 0.5279(5) 0.8329(5)
H26_2 H 0.922601 0.548959 0.849437
H27_4 H 0.928448 0.499809 0.837241
C52_4 C 0.9389(6) 0.0797(5) 0.6925(6)
H28_4 H 0.928842 0.109281 0.700624
C58_4 C 0.8533(7) 0.1087(5) 0.8691(5)
H31_4 H 0.850148 0.140135 0.864639
C60_4 C 0.9544(7) 0.1432(5) 0.8214(6)
C63_4 C 0.6280(7) 0.0334(5) 0.9549(6)
C64_4 C 0.9918(8) 0.2184(5) 0.6554(6)
H35_4 H 0.956428 0.236872 0.636521
C68_4 C 0.6908(8) 0.0197(6) 0.9907(6)
C71_4 C 0.7440(8) 0.0064(6) 0.9712(6)
C72_4 C 0.9961(7) 0.0664(4) 0.6709(5)
C73_4 C 0.8311(7) 0.0380(5) 0.8858(5)
C79_4 C 0.8113(8) 0.0835(5) 0.8871(7)
H43_4 H 0.775186 0.094131 0.898584
C89_4 C 0.8829(8) 0.3735(6) 0.5511(6)
C98_4 C 0.6239(9) 0.0332(6) 0.9024(7)
H52_4 H 0.582727 0.041582 0.878742
C100_4 C 0.6752(9) 0.0217(6) 0.8825(6)
H54_4 H 0.669489 0.022304 0.846281
C110_2 C 0.9782(8) 0.5399(6) 0.7974(6)
H65_4 H 0.999164 0.0148315 0.966523
Zn4_4 Zn 0.94961(8) 0.98063(6) 0.86817(7)
O11_4 O 0.9860(6) 0.9830(4) 0.5517(4)
N5_4 N 0.9967(5) 0.9227(4) 0.8501(4)
N11_4 N 0.8755(5) 0.9396(3) 0.8840(4)
C13_4 C 0.8196(6) 0.9539(4) 0.8979(5)
C20_4 C 0.8462(7) 0.9320(5) 0.7418(6)
H14_4 H 0.886567 0.928362 0.768553
C24_4 C 0.8471(7) 0.9496(4) 0.6930(6)
C28_4 C 0.7860(7) 0.9143(5) 0.9128(5)
H18_4 H 0.746747 0.914412 0.923807
C48_4 C 0.9137(6) 0.9594(5) 0.6807(5)
C56_4 C 0.7270(7) 0.9319(5) 0.7139(6)
C59_4 C 0.8002(7) 0.9988(5) 0.9001(5)
C61_4 C 0.7882(7) 0.9602(5) 0.6575(6)
H32_4 H 0.788869 0.974325 0.626111
C65_4 C 0.9818(7) 0.8796(5) 0.8621(6)
C66_4 C 0.7254(7) 0.9505(5) 0.6666(5)
H36_4 H 0.684583 0.956591 0.641201
C67_4 C 0.7859(7) 0.9203(5) 0.7501(5)
H37_4 H 0.785038 0.904336 0.780381
H40_4 H 0.783966 0.995584 0.994473
C75_4 C 0.8787(7) 0.8933(5) 0.8900(5)
C78_4 C 0.9302(8) 0.8647(5) 0.8805(6)
C80_4 C 0.9486(7) 0.9225(5) 0.6706(5)
C81_4 C 0.9734(7) 0.8446(5) 0.6595(6)
C82_4 C 0.9250(8) 0.8743(5) 0.6748(6)
C88_4 C 0.8217(7) 0.8786(5) 0.9077(6)
H46_4 H 0.811941 0.848590 0.914361
C90_4 C 0.9324(6) 0.8152(3) 0.9022(4)
C91_4 C 0.8853(5) 0.7828(4) 0.8761(4)
H47_4 H 0.849158 0.791330 0.847590
C92_4 C 0.8924(5) 0.7376(3) 0.8927(4)
H48_4 H 0.860901 0.715963 0.875322
C93_4 C 0.9465(4) 0.7249(2) 0.9354(3)
C94_4 C 0.9935(5) 0.7573(3) 0.9615(4)
C95_4 C 0.9865(6) 0.8024(3) 0.9448(5)
C96_4 C 0.6594(7) 0.9141(6) 0.7261(6)
C109_4 C 0.9537(5) 0.6750(5) 0.9534(5)
H62_4 H 0.940287 0.970812 0.550091
H66_4 H 0.973228 0.807539 0.657163
H67_4 H 0.880674 0.86375 0.686849
N18_3 N 0.4878(5) 0.9959(4) 0.2739(4)
C37_3 C 0.5169(6) 0.9852(3) 0.2348(4)
C38_3 C 0.5374(7) 0.9400(3) 0.2278(4)
N22_3 N 0.5695(6) 0.9404(3) 0.1865(4)
C39_3 C 0.5688(6) 0.9859(4) 0.1681(4)
H22_3 H 0.586574 0.995881 0.141204
N23_3 N 0.4872(8) 0.9186(5) 0.2949(6)
N24_3 N 0.4375(6) 0.9721(5) 0.3329(5)
H26_3 H 0.422601 0.951041 0.349437
C108_3 C 0.5162(11) 0.9039(6) 0.2585(7)
N26_3 N 0.5430(12) 0.8616(5) 0.2588(7)
H60_3 H 0.541908 0.842585 0.283382
H61_3 H 0.561142 0.853785 0.234400
C110_3 C 0.4782(8) 0.9601(6) 0.2974(6)
O9_3 O 0.4312(5) 0.9679(4) 0.9803(5)
H38_3 H 0.303770 0.980229 0.973035
N18_4 N 0.5122(5) 0.0041(4) 0.7261(4)
C37_4 C 0.4831(6) 0.0148(3) 0.7652(4)
C38_4 C 0.4626(7) 0.0600(3) 0.7722(4)
N22_4 N 0.4305(6) 0.0596(3) 0.8135(4)
C39_4 C 0.4312(6) 0.0141(4) 0.8319(4)
H22_4 H 0.413426 0.004119 0.858796
N23_4 N 0.5128(8) 0.0814(5) 0.7051(6)
N24_4 N 0.5625(6) 0.0279(5) 0.6671(5)
H26_4 H 0.577399 0.048959 0.650563
C108_4 C 0.4838(11) 0.0961(6) 0.7415(7)
N26_4 N 0.4570(12) 0.1384(5) 0.7412(7)
H60_4 H 0.458092 0.157415 0.716618
H61_4 H 0.438858 0.146215 0.765600
C110_4 C 0.5218(8) 0.0399(6) 0.7026(6)
O9_4 O 0.5688(5) 0.0321(4) 0.0197(5)
H38_4 H 0.696230 0.019771 0.026965
loop_
_geom_bond_atom_site_label_1
_geom_bond_atom_site_label_2
_geom_bond_site_symmetry_1
_geom_bond_site_symmetry_2
O20 Zn7 1_555 1_555
O27 Zn7 1_555 1_555
O28 Zn7 1_555 1_555
O20 H69 1_555 1_555
O20 H70 1_555 1_555
Zn1 O1 1_555 1_555
Zn2 O1 1_555 1_555
Zn3 N4 1_555 1_555
Zn4 O10 1_555 1_555
Zn5 O1 1_555 1_555
Zn6 O1 1_555 1_555
Zn8 O19 1_555 1_555
O2 C96 1_555 1_555
N1 Zn2 1_555 1_555
O3 C41 1_555 1_555
N2 Zn1 1_555 1_555
O4 Zn1 1_555 1_555
O5 C51 1_555 1_555
O7 C22 1_555 1_555
N3 Zn5 1_555 1_555
N4 C47 1_555 1_555
O8 Zn2 1_555 1_555
O9 C23 1_555 1_555
O11 Zn3 1_555 1_555
N5 Zn4 1_555 1_555
N6 Zn3 1_555 1_555
N7 H1 1_555 1_555
H2 N7 1_555 1_555
N8 Zn4 1_555 1_555
N9 Zn6 1_555 1_555
O12 C41 1_555 1_555
N10 Zn3 1_555 1_555
N11 Zn4 1_555 1_555
N12 H3 1_555 1_555
H4 N12 1_555 1_555
O13 C96 1_555 1_555
N13 C12 1_555 1_555
N14 C27 1_555 1_555
N15 C16 1_555 1_555
C1 H5 1_555 1_555
N16 C14 1_555 1_555
N17 Zn3 1_555 1_555
O14 C23 1_555 1_555
C2 N1 1_555 1_555
O15 C109 1_555 1_555
C3 H6 1_555 1_555
C4 N2 1_555 1_555
C5 C40 1_555 1_555
N19 Zn4 1_555 1_555
C6 C7 1_555 1_555
C7 H7 1_555 1_555
C8 C7 1_555 1_555
H8 C8 1_555 1_555
C9 C8 1_555 1_555
C10 C9 1_555 1_555
C11 C6 1_555 1_555
H10 C11 1_555 1_555
C12 C4 1_555 1_555
C13 N11 1_555 1_555
C14 N2 1_555 1_555
C15 C1 1_555 1_555
H11 C15 1_555 1_555
C16 N1 1_555 1_555
C17 N17 1_555 1_555
C18 O8 1_555 1_555
C19 N8 1_555 1_555
C20 H14 1_555 1_555
C21 N6 1_555 1_555
C22 C9 1_555 1_555
C23 C63 1_555 1_555
C24 C20 1_555 1_555
C25 H15 1_555 1_555
C26 H16 1_555 1_555
C27 N9 1_555 1_555
H17 C27 1_555 1_555
C28 C13 1_555 1_555
H18 C28 1_555 1_555
C29 C19 1_555 1_555
C30 H19 1_555 1_555
C31 N3 1_555 1_555
H20 C31 1_555 1_555
C32 H21 1_555 1_555
O16 C18 1_555 1_555
C33 C1 1_555 1_555
C34 N15 1_555 1_555
C35 C59 1_555 1_555
C36 C3 1_555 1_555
N21 Zn6 1_555 1_555
C40 C45 1_555 1_555
C41 C54 1_555 1_555
C42 C36 1_555 1_555
C43 C30 1_555 1_555
H23 C43 1_555 1_555
C44 C36 1_555 1_555
H24 C44 1_555 1_555
C45 N5 1_555 1_555
C46 C5 1_555 1_555
H25 C46 1_555 1_555
C47 C26 1_555 1_555
C48 C24 1_555 1_555
C49 C6 1_555 1_555
C50 N19 1_555 1_555
C51 O4 1_555 1_555
O17 C109 1_555 1_555
C52 C26 1_555 1_555
H28 C52 1_555 1_555
C53 C17 1_555 1_555
H29 C53 1_555 1_555
C54 C32 1_555 1_555
C55 C21 1_555 1_555
H30 C55 1_555 1_555
C56 C66 1_555 1_555
C57 N6 1_555 1_555
C58 C19 1_555 1_555
H31 C58 1_555 1_555
C59 C13 1_555 1_555
C60 C15 1_555 1_555
C61 C24 1_555 1_555
H32 C61 1_555 1_555
N25 H33 1_555 1_555
H34 N25 1_555 1_555
C62 C51 1_555 1_555
C63 C68 1_555 1_555
C64 C44 1_555 1_555
H35 C64 1_555 1_555
C65 N5 1_555 1_555
C66 C61 1_555 1_555
H36 C66 1_555 1_555
C67 C20 1_555 1_555
H37 C67 1_555 1_555
C68 H38 1_555 1_555
C69 N19 1_555 1_555
C70 C5 1_555 1_555
H39 C70 1_555 1_555
C71 C35 1_555 1_555
H40 C71 1_555 1_555
C72 N4 1_555 1_555
C73 N8 1_555 1_555
C74 N17 1_555 1_555
C75 N11 1_555 1_555
C76 C65 1_555 1_555
H41 C76 1_555 1_555
C77 C60 1_555 1_555
H42 C77 1_555 1_555
C78 C65 1_555 1_555
C79 C58 1_555 1_555
H43 C79 1_555 1_555
C80 N10 1_555 1_555
C81 C82 1_555 1_555
C82 C80 1_555 1_555
C83 C3 1_555 1_555
H44 C83 1_555 1_555
C84 C53 1_555 1_555
H45 C84 1_555 1_555
C85 N10 1_555 1_555
C86 C74 1_555 1_555
C87 N16 1_555 1_555
C88 C28 1_555 1_555
H46 C88 1_555 1_555
C89 N14 1_555 1_555
C90 C78 1_555 1_555
C91 C90 1_555 1_555
H47 C91 1_555 1_555
C92 C91 1_555 1_555
H48 C92 1_555 1_555
C93 C92 1_555 1_555
C94 C93 1_555 1_555
H49 C94 1_555 1_555
C95 C90 1_555 1_555
H50 C95 1_555 1_555
C96 C56 1_555 1_555
C97 C46 1_555 1_555
H51 C97 1_555 1_555
C98 C63 1_555 1_555
H52 C98 1_555 1_555
C99 C33 1_555 1_555
H53 C99 1_555 1_555
C100 C35 1_555 1_555
H54 C100 1_555 1_555
C101 H55 1_555 1_555
C102 C101 1_555 1_555
C103 C102 1_555 1_555
H56 C103 1_555 1_555
C104 C103 1_555 1_555
H57 C104 1_555 1_555
C105 C86 1_555 1_555
C106 C101 1_555 1_555
H58 C106 1_555 1_555
C107 C45 1_555 1_555
H59 C107 1_555 1_555
C109 C93 1_555 1_555
O18 C111 1_555 1_555
O19 C111 1_555 1_555
C111 C102 1_555 1_555
O21 Zn8 1_555 1_555
Zn9 O3 1_555 1_555
Zn10 O2 1_555 1_555
Zn11 O13 1_555 1_555
Zn12 O12 1_555 1_555
Zn13 O15 1_555 1_555
Zn14 N13 1_555 1_555
O22 Zn2 1_555 1_555
O23 Zn1 1_555 1_555
O24 Zn6 1_555 1_555
O25 Zn5 1_555 1_555
O26 Zn8 1_555 1_555
N3 C4 1_555 1_555
N7 C14 1_555 1_555
N9 C2 1_555 1_555
N12 C16 1_555 1_555
N13 C31 1_555 1_555
C2 C89 1_555 1_555
C10 C11 1_555 1_555
C12 C87 1_555 1_555
C17 C49 1_555 1_555
C18 C33 1_555 1_555
C21 C49 1_555 1_555
C25 C55 1_555 1_555
C25 C57 1_555 1_555
C29 C60 1_555 1_555
C29 C69 1_555 1_555
C30 C50 1_555 1_555
C32 C70 1_555 1_555
C34 C89 1_555 1_555
C40 C50 1_555 1_555
C42 C57 1_555 1_555
C42 C72 1_555 1_555
C43 C69 1_555 1_555
C47 C48 1_555 1_555
C48 C80 1_555 1_555
O17 Zn13 1_555 1_555
C52 C72 1_555 1_555
C54 C97 1_555 1_555
C56 C67 1_555 1_555
C59 C73 1_555 1_555
N25 C87 1_555 1_555
C62 C64 1_555 1_555
C62 C83 1_555 1_555
C68 C71 1_555 1_555
C73 C79 1_555 1_555
C74 C84 1_555 1_555
C75 C78 1_555 1_555
C75 C88 1_555 1_555
C76 C107 1_555 1_555
C77 C99 1_555 1_555
C81 C85 1_555 1_555
C85 C86 1_555 1_555
C94 C95 1_555 1_555
C98 C100 1_555 1_555
C104 C105 1_555 1_555
C105 C106 1_555 1_555
O11 H62 1_555 1_555
O11 H63 1_555 1_555
O10 H64 1_555 1_555
O10 H65 1_555 1_555
C81 H66 1_555 1_555
C82 H67 1_555 1_555
O18 H68 1_555 1_555
O21 H71 1_555 1_555
O21 H72 1_555 1_555
N20 H12 1_555 1_555
H13 N20 1_555 1_555
O22 C96_2 1_555 1_555
N5_2 Zn4_2 1_555 1_555
N11_2 Zn4_2 1_555 1_555
O25 C96_2 1_555 1_555
O27 C109_2 1_555 1_555
C13_2 N11_2 1_555 1_555
C20_2 H14_2 1_555 1_555
C24_2 C20_2 1_555 1_555
C28_2 C13_2 1_555 1_555
H18_2 C28_2 1_555 1_555
C48_2 C24_2 1_555 1_555
O28 C109_2 1_555 1_555
C56_2 C66_2 1_555 1_555
C59_2 C13_2 1_555 1_555
C61_2 C24_2 1_555 1_555
H32_2 C61_2 1_555 1_555
C65_2 N5_2 1_555 1_555
C66_2 C61_2 1_555 1_555
H36_2 C66_2 1_555 1_555
C67_2 C20_2 1_555 1_555
H37_2 C67_2 1_555 1_555
C75_2 N11_2 1_555 1_555
C78_2 C65_2 1_555 1_555
C81_2 C82_2 1_555 1_555
C82_2 C80_2 1_555 1_555
C88_2 C28_2 1_555 1_555
H46_2 C88_2 1_555 1_555
C90_2 C78_2 1_555 1_555
C91_2 C90_2 1_555 1_555
H47_2 C91_2 1_555 1_555
C92_2 C91_2 1_555 1_555
H48_2 C92_2 1_555 1_555
C93_2 C92_2 1_555 1_555
C94_2 C93_2 1_555 1_555
C95_2 C90_2 1_555 1_555
C96_2 C56_2 1_555 1_555
C109_2 C93_2 1_555 1_555
C48_2 C80_2 1_555 1_555
C56_2 C67_2 1_555 1_555
C75_2 C78_2 1_555 1_555
C75_2 C88_2 1_555 1_555
C94_2 C95_2 1_555 1_555
O11_2 H62_2 1_555 1_555
C81_2 H66_2 1_555 1_555
C82_2 H67_2 1_555 1_555
Zn10 O1_2 1_555 1_555
Zn11 O1_2 1_555 1_555
N1_2 Zn10 1_555 1_555
N4_2 C47_2 1_555 1_555
O8_2 Zn10 1_555 1_555
N12_2 H3_2 1_555 1_555
H4_2 N12_2 1_555 1_555
N14_2 C27_2 1_555 1_555
N15_2 C16_2 1_555 1_555
C1_2 H5_2 1_555 1_555
O26 C23_2 1_555 1_555
C2_2 N1_2 1_555 1_555
N18 Zn11 1_555 1_555
C15_2 C1_2 1_555 1_555
H11_2 C15_2 1_555 1_555
C16_2 N1_2 1_555 1_555
C18_2 O8_2 1_555 1_555
C19_2 N8_2 1_555 1_555
N20_2 H12_2 1_555 1_555
H13_2 N20_2 1_555 1_555
C23_2 C63_2 1_555 1_555
C26_2 H16_2 1_555 1_555
C27_2 N9_2 1_555 1_555
H17_2 C27_2 1_555 1_555
C29_2 C19_2 1_555 1_555
O16_2 C18_2 1_555 1_555
C33_2 C1_2 1_555 1_555
C34_2 N15_2 1_555 1_555
H24_2 C44_2 1_555 1_555
C47_2 C26_2 1_555 1_555
N24 H26 1_555 1_555
H27_2 N24 1_555 1_555
C52_2 C26_2 1_555 1_555
H28_2 C52_2 1_555 1_555
C58_2 C19_2 1_555 1_555
H31_2 C58_2 1_555 1_555
C60_2 C15_2 1_555 1_555
C63_2 C68_2 1_555 1_555
C64_2 C44_2 1_555 1_555
H35_2 C64_2 1_555 1_555
C71_2 C35_2 1_555 1_555
C72_2 N4_2 1_555 1_555
C73_2 N8_2 1_555 1_555
C79_2 C58_2 1_555 1_555
H43_2 C79_2 1_555 1_555
C89_2 N14_2 1_555 1_555
C98_2 C63_2 1_555 1_555
H52_2 C98_2 1_555 1_555
C100_2 C35_2 1_555 1_555
H54_2 C100_2 1_555 1_555
C110 N18 1_555 1_555
Zn16_2 N14_2 1_555 1_555
N9_2 C2_2 1_555 1_555
N12_2 C16_2 1_555 1_555
C2_2 C89_2 1_555 1_555
C18_2 C33_2 1_555 1_555
N20_2 C34_2 1_555 1_555
C29_2 C60_2 1_555 1_555
C34_2 C89_2 1_555 1_555
N23 C110 1_555 1_555
N24 C110 1_555 1_555
C52_2 C72_2 1_555 1_555
C68_2 C71_2 1_555 1_555
C73_2 C79_2 1_555 1_555
C98_2 C100_2 1_555 1_555
Zn15 O19_2 1_555 1_555
O23 C41_2 1_555 1_555
O24 C41_2 1_555 1_555
N10_2 Zn3_2 1_555 1_555
N17_2 Zn3_2 1_555 1_555
C5_2 C40_2 1_555 1_555
C17_2 N17_2 1_555 1_555
C32_2 H21_2 1_555 1_555
C40_2 C45_2 1_555 1_555
C41_2 C54_2 1_555 1_555
C46_2 C5_2 1_555 1_555
H25_2 C46_2 1_555 1_555
C53_2 C17_2 1_555 1_555
H29_2 C53_2 1_555 1_555
C54_2 C32_2 1_555 1_555
C70_2 C5_2 1_555 1_555
H39_2 C70_2 1_555 1_555
C74_2 N17_2 1_555 1_555
H41_2 C76_2 1_555 1_555
C84_2 C53_2 1_555 1_555
H45_2 C84_2 1_555 1_555
C85_2 N10_2 1_555 1_555
C86_2 C74_2 1_555 1_555
C97_2 C46_2 1_555 1_555
H51_2 C97_2 1_555 1_555
C101_2 H55_2 1_555 1_555
C102_2 C101_2 1_555 1_555
C103_2 C102_2 1_555 1_555
H56_2 C103_2 1_555 1_555
C104_2 C103_2 1_555 1_555
H57_2 C104_2 1_555 1_555
C105_2 C86_2 1_555 1_555
C106_2 C101_2 1_555 1_555
H58_2 C106_2 1_555 1_555
C107_2 C45_2 1_555 1_555
H59_2 C107_2 1_555 1_555
O18_2 C111_2 1_555 1_555
O19_2 C111_2 1_555 1_555
C111_2 C102_2 1_555 1_555
O21_2 Zn15 1_555 1_555
N28_2 Zn15 1_555 1_555
C17_2 C49_2 1_555 1_555
C32_2 C70_2 1_555 1_555
C54_2 C97_2 1_555 1_555
C74_2 C84_2 1_555 1_555
C76_2 C107_2 1_555 1_555
C85_2 C86_2 1_555 1_555
C104_2 C105_2 1_555 1_555
C105_2 C106_2 1_555 1_555
O10_2 H64_2 1_555 1_555
O18_2 H68_2 1_555 1_555
O21_2 H71_2 1_555 1_555
O21_2 H72_2 1_555 1_555
Zn13 O7_2 1_555 1_555
N2_2 Zn9 1_555 1_555
O4_2 Zn9 1_555 1_555
O5_2 C51_2 1_555 1_555
O6_2 C22_2 1_555 1_555
O7_2 C22_2 1_555 1_555
N7_2 H1_2 1_555 1_555
H2_2 N7_2 1_555 1_555
N13_2 C12_2 1_555 1_555
N16_2 C14_2 1_555 1_555
C3_2 H6_2 1_555 1_555
C4_2 N2_2 1_555 1_555
C6_2 C7_2 1_555 1_555
C7_2 H7_2 1_555 1_555
C8_2 C7_2 1_555 1_555
H8_2 C8_2 1_555 1_555
C9_2 C8_2 1_555 1_555
C10_2 C9_2 1_555 1_555
H9_2 C10_2 1_555 1_555
C11_2 C6_2 1_555 1_555
C12_2 C4_2 1_555 1_555
C14_2 N2_2 1_555 1_555
C21_2 N6_2 1_555 1_555
C22_2 C9_2 1_555 1_555
C25_2 H15_2 1_555 1_555
C30_2 H19_2 1_555 1_555
C31_2 N3_2 1_555 1_555
H20_2 C31_2 1_555 1_555
C36_2 C3_2 1_555 1_555
N21_2 Zn12 1_555 1_555
C38 C37 1_555 1_555
N22 C38 1_555 1_555
C39 N21_2 1_555 1_555
H22 C39 1_555 1_555
C42_2 C36_2 1_555 1_555
C43_2 C30_2 1_555 1_555
H23_2 C43_2 1_555 1_555
C50_2 N19_2 1_555 1_555
C51_2 O4_2 1_555 1_555
C55_2 C21_2 1_555 1_555
H30_2 C55_2 1_555 1_555
C57_2 N6_2 1_555 1_555
C62_2 C51_2 1_555 1_555
C69_2 N19_2 1_555 1_555
H42_2 C77_2 1_555 1_555
C83_2 C3_2 1_555 1_555
H44_2 C83_2 1_555 1_555
C87_2 N16_2 1_555 1_555
H53_2 C99_2 1_555 1_555
C108 C38 1_555 1_555
N26 C108 1_555 1_555
H60 N26 1_555 1_555
H61 N26 1_555 1_555
O20_2 Zn13 1_555 1_555
N27_2 Zn13 1_555 1_555
N3_2 C4_2 1_555 1_555
N7_2 C14_2 1_555 1_555
N13_2 C31_2 1_555 1_555
C10_2 C11_2 1_555 1_555
C12_2 C87_2 1_555 1_555
C25_2 C55_2 1_555 1_555
C25_2 C57_2 1_555 1_555
C30_2 C50_2 1_555 1_555
N21_2 C37 1_555 1_555
N22 C39 1_555 1_555
C42_2 C57_2 1_555 1_555
C43_2 C69_2 1_555 1_555
C62_2 C83_2 1_555 1_555
C77_2 C99_2 1_555 1_555
O20_2 H69_2 1_555 1_555
O20_2 H70_2 1_555 1_555
N25_2 H33_2 1_555 1_555
H34_2 N25_2 1_555 1_555
N20_3 H12_3 1_555 1_555
H13_3 N20_3 1_555 1_555
Zn1_2 O1_3 1_555 1_555
Zn2_2 O1_3 1_555 1_555
Zn3_3 N4_3 1_555 1_555
Zn4_3 O10_3 1_555 1_555
Zn5_2 O1_3 1_555 1_555
Zn6_2 O1_3 1_555 1_555
Zn16 O19_3 1_555 1_555
O2_2 C96_3 1_555 1_555
N1_3 Zn2_2 1_555 1_555
O3_2 C41_3 1_555 1_555
N2_3 Zn1_2 1_555 1_555
O4_3 Zn1_2 1_555 1_555
O5_3 C51_3 1_555 1_555
O7_3 C22_3 1_555 1_555
N3_3 Zn5_2 1_555 1_555
N4_3 C47_3 1_555 1_555
O8_3 Zn2_2 1_555 1_555
O9_2 C23_3 1_555 1_555
O11_3 Zn3_3 1_555 1_555
N5_3 Zn4_3 1_555 1_555
N6_3 Zn3_3 1_555 1_555
N7_3 H1_3 1_555 1_555
H2_3 N7_3 1_555 1_555
N8_3 Zn4_3 1_555 1_555
N9_3 Zn6_2 1_555 1_555
O12_2 C41_3 1_555 1_555
N10_3 Zn3_3 1_555 1_555
N11_3 Zn4_3 1_555 1_555
N12_3 H3_3 1_555 1_555
H4_3 N12_3 1_555 1_555
O13_2 C96_3 1_555 1_555
N27_2 C12_3 1_555 1_555
N28 C27_3 1_555 1_555
N15_3 C16_3 1_555 1_555
C1_3 H5_3 1_555 1_555
N16_3 C14_3 1_555 1_555
N17_3 Zn3_3 1_555 1_555
O14_2 C23_3 1_555 1_555
C2_3 N1_3 1_555 1_555
O15_2 C109_3 1_555 1_555
C3_3 H6_3 1_555 1_555
C4_3 N2_3 1_555 1_555
C5_3 C40_3 1_555 1_555
N19_3 Zn4_3 1_555 1_555
C6_3 C7_3 1_555 1_555
C7_3 H7_3 1_555 1_555
C8_3 C7_3 1_555 1_555
H8_3 C8_3 1_555 1_555
C9_3 C8_3 1_555 1_555
C10_3 C9_3 1_555 1_555
C11_3 C6_3 1_555 1_555
H10_3 C11_3 1_555 1_555
C12_3 C4_3 1_555 1_555
C13_3 N11_3 1_555 1_555
C14_3 N2_3 1_555 1_555
C15_3 C1_3 1_555 1_555
H11_3 C15_3 1_555 1_555
C16_3 N1_3 1_555 1_555
C17_3 N17_3 1_555 1_555
C18_3 O8_3 1_555 1_555
C19_3 N8_3 1_555 1_555
C20_3 H14_3 1_555 1_555
C21_3 N6_3 1_555 1_555
C22_3 C9_3 1_555 1_555
C23_3 C63_3 1_555 1_555
C24_3 C20_3 1_555 1_555
C25_3 H15_3 1_555 1_555
C26_3 H16_3 1_555 1_555
C27_3 N9_3 1_555 1_555
H17_3 C27_3 1_555 1_555
C28_3 C13_3 1_555 1_555
H18_3 C28_3 1_555 1_555
C29_3 C19_3 1_555 1_555
C30_3 H19_3 1_555 1_555
C31_3 N3_3 1_555 1_555
H20_3 C31_3 1_555 1_555
C32_3 H21_3 1_555 1_555
O16_3 C18_3 1_555 1_555
C33_3 C1_3 1_555 1_555
C34_3 N15_3 1_555 1_555
C35_3 C59_3 1_555 1_555
C36_3 C3_3 1_555 1_555
N21_3 Zn6_2 1_555 1_555
C40_3 C45_3 1_555 1_555
C41_3 C54_3 1_555 1_555
C42_3 C36_3 1_555 1_555
C43_3 C30_3 1_555 1_555
H23_3 C43_3 1_555 1_555
C44_3 C36_3 1_555 1_555
H24_3 C44_3 1_555 1_555
C45_3 N5_3 1_555 1_555
C46_3 C5_3 1_555 1_555
H25_3 C46_3 1_555 1_555
C47_3 C26_3 1_555 1_555
C48_3 C24_3 1_555 1_555
C49_3 C6_3 1_555 1_555
C50_3 N19_3 1_555 1_555
C51_3 O4_3 1_555 1_555
O17_2 C109_3 1_555 1_555
C52_3 C26_3 1_555 1_555
H28_3 C52_3 1_555 1_555
C53_3 C17_3 1_555 1_555
H29_3 C53_3 1_555 1_555
C54_3 C32_3 1_555 1_555
C55_3 C21_3 1_555 1_555
H30_3 C55_3 1_555 1_555
C56_3 C66_3 1_555 1_555
C57_3 N6_3 1_555 1_555
C58_3 C19_3 1_555 1_555
H31_3 C58_3 1_555 1_555
C59_3 C13_3 1_555 1_555
C60_3 C15_3 1_555 1_555
C61_3 C24_3 1_555 1_555
H32_3 C61_3 1_555 1_555
N25_3 H33_3 1_555 1_555
H34_3 N25_3 1_555 1_555
C62_3 C51_3 1_555 1_555
C63_3 C68_3 1_555 1_555
C64_3 C44_3 1_555 1_555
H35_3 C64_3 1_555 1_555
C65_3 N5_3 1_555 1_555
C66_3 C61_3 1_555 1_555
H36_3 C66_3 1_555 1_555
C67_3 C20_3 1_555 1_555
H37_3 C67_3 1_555 1_555
C68_3 H38_2 1_555 1_555
C69_3 N19_3 1_555 1_555
C70_3 C5_3 1_555 1_555
H39_3 C70_3 1_555 1_555
C71_3 C35_3 1_555 1_555
H40_3 C71_3 1_555 1_555
C72_3 N4_3 1_555 1_555
C73_3 N8_3 1_555 1_555
C74_3 N17_3 1_555 1_555
C75_3 N11_3 1_555 1_555
C76_3 C65_3 1_555 1_555
H41_3 C76_3 1_555 1_555
C77_3 C60_3 1_555 1_555
H42_3 C77_3 1_555 1_555
C78_3 C65_3 1_555 1_555
C79_3 C58_3 1_555 1_555
H43_3 C79_3 1_555 1_555
C80_3 N10_3 1_555 1_555
C81_3 C82_3 1_555 1_555
C82_3 C80_3 1_555 1_555
C83_3 C3_3 1_555 1_555
H44_3 C83_3 1_555 1_555
C84_3 C53_3 1_555 1_555
H45_3 C84_3 1_555 1_555
C85_3 N10_3 1_555 1_555
C86_3 C74_3 1_555 1_555
C87_3 N16_3 1_555 1_555
C88_3 C28_3 1_555 1_555
H46_3 C88_3 1_555 1_555
C89_3 N28 1_555 1_555
C90_3 C78_3 1_555 1_555
C91_3 C90_3 1_555 1_555
H47_3 C91_3 1_555 1_555
C92_3 C91_3 1_555 1_555
H48_3 C92_3 1_555 1_555
C93_3 C92_3 1_555 1_555
C94_3 C93_3 1_555 1_555
H49_3 C94_3 1_555 1_555
C95_3 C90_3 1_555 1_555
H50_3 C95_3 1_555 1_555
C96_3 C56_3 1_555 1_555
C97_3 C46_3 1_555 1_555
H51_3 C97_3 1_555 1_555
C98_3 C63_3 1_555 1_555
H52_3 C98_3 1_555 1_555
C99_3 C33_3 1_555 1_555
H53_3 C99_3 1_555 1_555
C100_3 C35_3 1_555 1_555
H54_3 C100_3 1_555 1_555
C101_3 H55_3 1_555 1_555
C102_3 C101_3 1_555 1_555
C103_3 C102_3 1_555 1_555
H56_3 C103_3 1_555 1_555
C104_3 C103_3 1_555 1_555
H57_3 C104_3 1_555 1_555
C105_3 C86_3 1_555 1_555
C106_3 C101_3 1_555 1_555
H58_3 C106_3 1_555 1_555
C107_3 C45_3 1_555 1_555
H59_3 C107_3 1_555 1_555
C109_3 C93_3 1_555 1_555
O18_3 C111_3 1_555 1_555
O19_3 C111_3 1_555 1_555
C111_3 C102_3 1_555 1_555
O21_3 Zn16 1_555 1_555
Zn9_2 O3_2 1_555 1_555
Zn10_2 O2_2 1_555 1_555
Zn11_2 O13_2 1_555 1_555
Zn12_2 O12_2 1_555 1_555
Zn14 O15_2 1_555 1_555
O22_2 Zn2_2 1_555 1_555
O23_2 Zn1_2 1_555 1_555
O24_2 Zn6_2 1_555 1_555
O25_2 Zn5_2 1_555 1_555
O26_2 Zn16 1_555 1_555
N3_3 C4_3 1_555 1_555
N7_3 C14_3 1_555 1_555
N9_3 C2_3 1_555 1_555
N12_3 C16_3 1_555 1_555
N27_2 C31_3 1_555 1_555
C2_3 C89_3 1_555 1_555
C10_3 C11_3 1_555 1_555
C12_3 C87_3 1_555 1_555
C17_3 C49_3 1_555 1_555
C18_3 C33_3 1_555 1_555
C21_3 C49_3 1_555 1_555
C25_3 C55_3 1_555 1_555
C25_3 C57_3 1_555 1_555
C29_3 C60_3 1_555 1_555
C29_3 C69_3 1_555 1_555
C30_3 C50_3 1_555 1_555
C32_3 C70_3 1_555 1_555
C34_3 C89_3 1_555 1_555
C40_3 C50_3 1_555 1_555
C42_3 C57_3 1_555 1_555
C42_3 C72_3 1_555 1_555
C43_3 C69_3 1_555 1_555
C47_3 C48_3 1_555 1_555
C48_3 C80_3 1_555 1_555
O17_2 Zn14 1_555 1_555
C52_3 C72_3 1_555 1_555
C54_3 C97_3 1_555 1_555
C56_3 C67_3 1_555 1_555
C59_3 C73_3 1_555 1_555
N25_3 C87_3 1_555 1_555
C62_3 C64_3 1_555 1_555
C62_3 C83_3 1_555 1_555
C68_3 C71_3 1_555 1_555
C73_3 C79_3 1_555 1_555
C74_3 C84_3 1_555 1_555
C75_3 C78_3 1_555 1_555
C75_3 C88_3 1_555 1_555
C76_3 C107_3 1_555 1_555
C77_3 C99_3 1_555 1_555
C81_3 C85_3 1_555 1_555
C85_3 C86_3 1_555 1_555
C94_3 C95_3 1_555 1_555
C98_3 C100_3 1_555 1_555
C104_3 C105_3 1_555 1_555
C105_3 C106_3 1_555 1_555
O11_3 H62_3 1_555 1_555
O11_3 H63_3 1_555 1_555
O10_3 H64_3 1_555 1_555
O10_3 H65_3 1_555 1_555
C81_3 H66_3 1_555 1_555
C82_3 H67_3 1_555 1_555
O18_3 H68_3 1_555 1_555
O21_3 H71_3 1_555 1_555
O21_3 H72_3 1_555 1_555
O20_3 Zn14_2 1_555 1_555
O27_2 Zn14_2 1_555 1_555
O28_2 Zn14_2 1_555 1_555
O20_3 H69_3 1_555 1_555
O20_3 H70_3 1_555 1_555
N25_4 H33_4 1_555 1_555
H34_4 N25_4 1_555 1_555
Zn14 O7_4 1_555 1_555
N2_4 Zn9_2 1_555 1_555
O4_4 Zn9_2 1_555 1_555
O5_4 C51_4 1_555 1_555
O6_4 C22_4 1_555 1_555
O7_4 C22_4 1_555 1_555
N7_4 H1_4 1_555 1_555
H2_4 N7_4 1_555 1_555
N27 C12_4 1_555 1_555
N16_4 C14_4 1_555 1_555
C3_4 H6_4 1_555 1_555
C4_4 N2_4 1_555 1_555
C6_4 C7_4 1_555 1_555
C7_4 H7_4 1_555 1_555
C8_4 C7_4 1_555 1_555
H8_4 C8_4 1_555 1_555
C9_4 C8_4 1_555 1_555
C10_4 C9_4 1_555 1_555
H9_4 C10_4 1_555 1_555
C11_4 C6_4 1_555 1_555
C12_4 C4_4 1_555 1_555
C14_4 N2_4 1_555 1_555
C21_4 N6_4 1_555 1_555
C22_4 C9_4 1_555 1_555
C25_4 H15_4 1_555 1_555
C30_4 H19_4 1_555 1_555
C31_4 N3_4 1_555 1_555
H20_4 C31_4 1_555 1_555
C36_4 C3_4 1_555 1_555
N21_4 Zn12_2 1_555 1_555
C38_2 C37_2 1_555 1_555
N22_2 C38_2 1_555 1_555
C39_2 N21_4 1_555 1_555
H22_2 C39_2 1_555 1_555
C42_4 C36_4 1_555 1_555
C43_4 C30_4 1_555 1_555
H23_4 C43_4 1_555 1_555
C50_4 N19_4 1_555 1_555
C51_4 O4_4 1_555 1_555
C55_4 C21_4 1_555 1_555
H30_4 C55_4 1_555 1_555
C57_4 N6_4 1_555 1_555
C62_4 C51_4 1_555 1_555
C69_4 N19_4 1_555 1_555
H42_4 C77_4 1_555 1_555
C83_4 C3_4 1_555 1_555
H44_4 C83_4 1_555 1_555
C87_4 N16_4 1_555 1_555
H53_4 C99_4 1_555 1_555
C108_2 C38_2 1_555 1_555
N26_2 C108_2 1_555 1_555
H60_2 N26_2 1_555 1_555
H61_2 N26_2 1_555 1_555
O20_4 Zn14 1_555 1_555
N3_4 C4_4 1_555 1_555
N7_4 C14_4 1_555 1_555
N27 C31_4 1_555 1_555
C10_4 C11_4 1_555 1_555
C12_4 C87_4 1_555 1_555
C25_4 C55_4 1_555 1_555
C25_4 C57_4 1_555 1_555
C30_4 C50_4 1_555 1_555
N21_4 C37_2 1_555 1_555
N22_2 C39_2 1_555 1_555
C42_4 C57_4 1_555 1_555
C43_4 C69_4 1_555 1_555
C62_4 C83_4 1_555 1_555
C77_4 C99_4 1_555 1_555
O20_4 H69_4 1_555 1_555
O20_4 H70_4 1_555 1_555
Zn16_2 O19_4 1_555 1_555
O23_2 C41_4 1_555 1_555
O24_2 C41_4 1_555 1_555
N10_4 Zn3_4 1_555 1_555
N17_4 Zn3_4 1_555 1_555
C5_4 C40_4 1_555 1_555
C17_4 N17_4 1_555 1_555
C32_4 H21_4 1_555 1_555
C40_4 C45_4 1_555 1_555
C41_4 C54_4 1_555 1_555
C46_4 C5_4 1_555 1_555
H25_4 C46_4 1_555 1_555
C53_4 C17_4 1_555 1_555
H29_4 C53_4 1_555 1_555
C54_4 C32_4 1_555 1_555
C70_4 C5_4 1_555 1_555
H39_4 C70_4 1_555 1_555
C74_4 N17_4 1_555 1_555
H41_4 C76_4 1_555 1_555
C84_4 C53_4 1_555 1_555
H45_4 C84_4 1_555 1_555
C85_4 N10_4 1_555 1_555
C86_4 C74_4 1_555 1_555
C97_4 C46_4 1_555 1_555
H51_4 C97_4 1_555 1_555
C101_4 H55_4 1_555 1_555
C102_4 C101_4 1_555 1_555
C103_4 C102_4 1_555 1_555
H56_4 C103_4 1_555 1_555
C104_4 C103_4 1_555 1_555
H57_4 C104_4 1_555 1_555
C105_4 C86_4 1_555 1_555
C106_4 C101_4 1_555 1_555
H58_4 C106_4 1_555 1_555
C107_4 C45_4 1_555 1_555
H59_4 C107_4 1_555 1_555
O18_4 C111_4 1_555 1_555
O19_4 C111_4 1_555 1_555
C111_4 C102_4 1_555 1_555
O21_4 Zn16_2 1_555 1_555
C17_4 C49_4 1_555 1_555
C32_4 C70_4 1_555 1_555
C54_4 C97_4 1_555 1_555
C74_4 C84_4 1_555 1_555
C76_4 C107_4 1_555 1_555
C85_4 C86_4 1_555 1_555
C104_4 C105_4 1_555 1_555
C105_4 C106_4 1_555 1_555
O10_4 H64_4 1_555 1_555
O18_4 H68_4 1_555 1_555
O21_4 H71_4 1_555 1_555
O21_4 H72_4 1_555 1_555
Zn10_2 O1_4 1_555 1_555
Zn11_2 O1_4 1_555 1_555
N1_4 Zn10_2 1_555 1_555
N4_4 C47_4 1_555 1_555
O8_4 Zn10_2 1_555 1_555
N12_4 H3_4 1_555 1_555
H4_4 N12_4 1_555 1_555
N28_2 C27_4 1_555 1_555
N15_4 C16_4 1_555 1_555
C1_4 H5_4 1_555 1_555
O26_2 C23_4 1_555 1_555
C2_4 N1_4 1_555 1_555
N18_2 Zn11_2 1_555 1_555
C15_4 C1_4 1_555 1_555
H11_4 C15_4 1_555 1_555
C16_4 N1_4 1_555 1_555
C18_4 O8_4 1_555 1_555
C19_4 N8_4 1_555 1_555
N20_4 H12_4 1_555 1_555
H13_4 N20_4 1_555 1_555
C23_4 C63_4 1_555 1_555
C26_4 H16_4 1_555 1_555
C27_4 N9_4 1_555 1_555
H17_4 C27_4 1_555 1_555
C29_4 C19_4 1_555 1_555
O16_4 C18_4 1_555 1_555
C33_4 C1_4 1_555 1_555
C34_4 N15_4 1_555 1_555
H24_4 C44_4 1_555 1_555
C47_4 C26_4 1_555 1_555
N24_2 H26_2 1_555 1_555
H27_4 N24_2 1_555 1_555
C52_4 C26_4 1_555 1_555
H28_4 C52_4 1_555 1_555
C58_4 C19_4 1_555 1_555
H31_4 C58_4 1_555 1_555
C60_4 C15_4 1_555 1_555
C63_4 C68_4 1_555 1_555
C64_4 C44_4 1_555 1_555
H35_4 C64_4 1_555 1_555
C71_4 C35_4 1_555 1_555
C72_4 N4_4 1_555 1_555
C73_4 N8_4 1_555 1_555
C79_4 C58_4 1_555 1_555
H43_4 C79_4 1_555 1_555
C89_4 N28_2 1_555 1_555
C98_4 C63_4 1_555 1_555
H52_4 C98_4 1_555 1_555
C100_4 C35_4 1_555 1_555
H54_4 C100_4 1_555 1_555
C110_2 N18_2 1_555 1_555
N9_4 C2_4 1_555 1_555
N12_4 C16_4 1_555 1_555
C2_4 C89_4 1_555 1_555
C18_4 C33_4 1_555 1_555
N20_4 C34_4 1_555 1_555
C29_4 C60_4 1_555 1_555
C34_4 C89_4 1_555 1_555
N23_2 C110_2 1_555 1_555
N24_2 C110_2 1_555 1_555
C52_4 C72_4 1_555 1_555
C68_4 C71_4 1_555 1_555
C73_4 C79_4 1_555 1_555
C98_4 C100_4 1_555 1_555
O22_2 C96_4 1_555 1_555
N5_4 Zn4_4 1_555 1_555
N11_4 Zn4_4 1_555 1_555
O25_2 C96_4 1_555 1_555
O27_2 C109_4 1_555 1_555
C13_4 N11_4 1_555 1_555
C20_4 H14_4 1_555 1_555
C24_4 C20_4 1_555 1_555
C28_4 C13_4 1_555 1_555
H18_4 C28_4 1_555 1_555
C48_4 C24_4 1_555 1_555
O28_2 C109_4 1_555 1_555
C56_4 C66_4 1_555 1_555
C59_4 C13_4 1_555 1_555
C61_4 C24_4 1_555 1_555
H32_4 C61_4 1_555 1_555
C65_4 N5_4 1_555 1_555
C66_4 C61_4 1_555 1_555
H36_4 C66_4 1_555 1_555
C67_4 C20_4 1_555 1_555
H37_4 C67_4 1_555 1_555
C75_4 N11_4 1_555 1_555
C78_4 C65_4 1_555 1_555
C81_4 C82_4 1_555 1_555
C82_4 C80_4 1_555 1_555
C88_4 C28_4 1_555 1_555
H46_4 C88_4 1_555 1_555
C90_4 C78_4 1_555 1_555
C91_4 C90_4 1_555 1_555
H47_4 C91_4 1_555 1_555
C92_4 C91_4 1_555 1_555
H48_4 C92_4 1_555 1_555
C93_4 C92_4 1_555 1_555
C94_4 C93_4 1_555 1_555
C95_4 C90_4 1_555 1_555
C96_4 C56_4 1_555 1_555
C109_4 C93_4 1_555 1_555
C48_4 C80_4 1_555 1_555
C56_4 C67_4 1_555 1_555
C75_4 C78_4 1_555 1_555
C75_4 C88_4 1_555 1_555
C94_4 C95_4 1_555 1_555
O11_4 H62_4 1_555 1_555
C81_4 H66_4 1_555 1_555
C82_4 H67_4 1_555 1_555
C37_3 N18_3 1_555 1_555
C38_3 C37_3 1_555 1_555
N22_3 C38_3 1_555 1_555
H22_3 C39_3 1_555 1_555
N23_3 C108_3 1_555 1_555
N24_3 H26_3 1_555 1_555
C108_3 C38_3 1_555 1_555
N26_3 C108_3 1_555 1_555
H60_3 N26_3 1_555 1_555
H61_3 N26_3 1_555 1_555
C110_3 N18_3 1_555 1_555
N22_3 C39_3 1_555 1_555
N23_3 C110_3 1_555 1_555
N24_3 C110_3 1_555 1_555
C37_4 N18_4 1_555 1_555
C38_4 C37_4 1_555 1_555
N22_4 C38_4 1_555 1_555
H22_4 C39_4 1_555 1_555
N23_4 C108_4 1_555 1_555
N24_4 H26_4 1_555 1_555
C108_4 C38_4 1_555 1_555
N26_4 C108_4 1_555 1_555
H60_4 N26_4 1_555 1_555
H61_4 N26_4 1_555 1_555
C110_4 N18_4 1_555 1_555
N22_4 C39_4 1_555 1_555
N23_4 C110_4 1_555 1_555
N24_4 C110_4 1_555 1_555

#END
