
###############################################################################
#
# This file contains modified crystal structure data generated from the
# MOF subset of the Cambridge Structural Database (CSD) v543 
# hosted by the Cambridge Crystallographic Data Centre (CCDC).
#
# This work is licensed under the Creative Commons
# Attribution-NonCommercial-ShareAlike 4.0 International License.
# To view a copy of this license, visit
# http://creativecommons.org/licenses/by-nc-sa/4.0/
# or send a letter to
# Creative Commons, PO Box 1866, Mountain View, CA 94042, USA.
#
# CIF created using the CSD Python API on 29 September 2022
# The structure has been converted into the P1 space group
# The structure has a 3D framework
# The original CSD entry KOXFOU is in the monoclinic crystal system
# The framework has been calculated to contain at least 10.0% void space
# The void calculation uses a probe of radius 1.32A, grid spacing 0.4
#
###############################################################################

data_KOXFOU
_chemical_formula_moiety         '(C288 H244 Cl16 Co8 N32 O32)n'
_symmetry_cell_setting           triclinic
_symmetry_space_group_name_H-M   'P 1'
_symmetry_Int_Tables_number      1
_space_group_name_Hall           'P 1'
loop_
_symmetry_equiv_pos_site_id
_symmetry_equiv_pos_as_xyz
1 x,y,z
_cell_length_a                   18.259(2)
_cell_length_b                   16.7070(10)
_cell_length_c                   27.6920(10)
_cell_angle_alpha                90
_cell_angle_beta                 91.634(8)
_cell_angle_gamma                90
_cell_volume                     8444.1
loop_
_atom_site_label
_atom_site_type_symbol
_atom_site_fract_x
_atom_site_fract_y
_atom_site_fract_z
Co1 Co 0.55967(2) 0.76274(3) 0.475009(18)
Cl1 Cl 0.64931(5) 0.65533(6) 0.48121(4)
Cl2 Cl 0.46628(5) 0.87043(6) 0.46786(4)
O1 O 0.22579(13) 0.41585(15) 0.70096(10)
O2 O 0.41471(12) 0.61271(15) 0.69582(10)
O3 O 0.41448(12) 0.41278(14) 0.75005(9)
O4 O 0.23557(14) 0.61962(16) 0.75381(10)
N1 N 0.11202(15) 0.33238(17) 0.53246(12)
N2 N 0.49565(15) 0.69938(18) 0.52721(11)
N3 N 0.49912(15) 0.30145(18) 0.91925(11)
N4 N 0.12844(15) 0.68069(18) 0.92273(12)
C1 C 0.31910(17) 0.5150(2) 0.69836(13)
C2 C 0.26803(18) 0.4661(2) 0.67391(14)
C3 C 0.26101(17) 0.4659(2) 0.62379(14)
C4 C 0.30846(18) 0.5145(2) 0.59807(14)
H1 H 0.3051 0.5142 0.5645
C5 C 0.36055(18) 0.5633(2) 0.62097(14)
C6 C 0.36527(17) 0.5634(2) 0.67124(14)
C7 C 0.20534(18) 0.4191(2) 0.59560(14)
C8 C 0.19361(19) 0.3379(2) 0.60211(14)
H2 H 0.2163 0.3110 0.6278
C9 C 0.14772(18) 0.2972(2) 0.56992(14)
H3 H 0.1412 0.2425 0.5745
C10 C 0.1207(2) 0.4111(2) 0.52805(15)
H4 H 0.0946 0.4372 0.5034
C11 C 0.16620(19) 0.4560(2) 0.55791(15)
H5 H 0.1707 0.5108 0.5529
C12 C 0.40869(18) 0.6115(2) 0.58982(14)
C13 C 0.44353(19) 0.5751(2) 0.55205(15)
H6 H 0.4379 0.5205 0.5467
C14 C 0.4865(2) 0.6198(2) 0.52261(15)
H7 H 0.5106 0.5937 0.4980
C15 C 0.46077(19) 0.7341(2) 0.56327(15)
H8 H 0.4655 0.7892 0.5670
C16 C 0.41829(19) 0.6937(2) 0.59530(15)
H9 H 0.3962 0.7209 0.6203
C17 C 0.1521(2) 0.4449(3) 0.70775(18)
H10 H 0.1539 0.4923 0.7273
H11 H 0.1240 0.4045 0.7235
H12 H 0.1295 0.4572 0.6769
C18 C 0.48949(19) 0.5924(3) 0.69130(16)
H13 H 0.4996 0.5434 0.7084
H14 H 0.5196 0.6344 0.7047
H15 H 0.5000 0.5856 0.6578
C19 C 0.32273(17) 0.5141(2) 0.75218(13)
C20 C 0.36800(17) 0.4588(2) 0.77695(14)
C21 C 0.36745(18) 0.4525(2) 0.82687(14)
C22 C 0.31978(18) 0.5012(2) 0.85154(14)
H16 H 0.3181 0.4962 0.8849
C23 C 0.27431(18) 0.5572(2) 0.82870(14)
C24 C 0.27823(18) 0.5645(2) 0.77893(14)
C25 C 0.41455(19) 0.3970(2) 0.85619(14)
C26 C 0.48957(18) 0.3891(2) 0.85112(14)
H17 H 0.5129 0.4150 0.8261
C27 C 0.52896(19) 0.3425(2) 0.88361(14)
H18 H 0.5795 0.3395 0.8805
C28 C 0.42568(19) 0.3060(2) 0.92246(15)
H19 H 0.4032 0.2758 0.9461
C29 C 0.38259(19) 0.3527(2) 0.89274(15)
H20 H 0.3323 0.3549 0.8969
C30 C 0.24671(19) 0.6284(2) 0.90499(15)
H21 H 0.2946 0.6183 0.9157
C31 C 0.22387(18) 0.6048(2) 0.85929(14)
C32 C 0.19880(19) 0.6670(2) 0.93504(15)
H22 H 0.2163 0.6841 0.9652
C33 C 0.10602(19) 0.6580(2) 0.87772(14)
H23 H 0.0575 0.6674 0.8682
C34 C 0.15126(19) 0.6219(2) 0.84554(15)
H24 H 0.1337 0.6089 0.8147
C35 C 0.3921(2) 0.3307(2) 0.74431(16)
H25 H 0.3890 0.3060 0.7755
H26 H 0.4273 0.3026 0.7256
H27 H 0.3450 0.3287 0.7280
C36 C 0.2694(3) 0.6968(3) 0.7518(2)
H28 H 0.2692 0.7212 0.7832
H29 H 0.2428 0.7300 0.7291
H30 H 0.3191 0.6911 0.7417
Co2 Co 0.05967(2) 0.26274(3) 0.475009(18)
Co3 Co 0.55967(2) 0.23726(3) 0.975009(18)
Co4 Co 0.05967(2) 0.73726(3) 0.975009(18)
N5 N 0.61202(15) 0.83238(17) 0.53246(12)
N6 N 0.49912(15) 0.69855(18) 0.41925(11)
N7 N 0.62844(15) 0.81931(18) 0.42273(12)
Cl1_2 Cl 0.14931(5) 0.15533(6) 0.48121(4)
H7_2 H 0.0106 0.0937 0.4980
H14_2 H 0.0196 0.1344 0.7047
H15_2 H 0.0000 0.0856 0.6578
N7_2 N 0.12844(15) 0.31931(18) 0.42273(12)
H17_2 H 0.0129 0.9150 0.8261
C27_2 C 0.02896(19) 0.8425(2) 0.88361(14)
H18_2 H 0.0795 0.8395 0.8805
Cl2_2 Cl 0.96628(5) 0.37043(6) 0.46786(4)
O2_2 O 0.91471(12) 0.11271(15) 0.69582(10)
O4_2 O 0.73557(14) 0.11962(16) 0.75381(10)
N2_2 N 0.99565(15) 0.19938(18) 0.52721(11)
N4_2 N 0.62844(15) 0.18069(18) 0.92273(12)
C1_2 C 0.81910(17) 0.0150(2) 0.69836(13)
C4_2 C 0.80846(18) 0.0145(2) 0.59807(14)
H1_2 H 0.8051 0.0142 0.5645
C5_2 C 0.86055(18) 0.0633(2) 0.62097(14)
C6_2 C 0.86527(17) 0.0634(2) 0.67124(14)
H5_2 H 0.6707 0.0108 0.5529
C12_2 C 0.90869(18) 0.1115(2) 0.58982(14)
C13_2 C 0.94353(19) 0.0751(2) 0.55205(15)
H6_2 H 0.9379 0.0205 0.5467
C14_2 C 0.9865(2) 0.1198(2) 0.52261(15)
C15_2 C 0.96077(19) 0.2341(2) 0.56327(15)
H8_2 H 0.9655 0.2892 0.5670
C16_2 C 0.91829(19) 0.1937(2) 0.59530(15)
H9_2 H 0.8962 0.2209 0.6203
C18_2 C 0.98949(19) 0.0924(3) 0.69130(16)
H13_2 H 0.9996 0.0434 0.7084
H15_3 H 1.0000 0.0856 0.6578
C19_2 C 0.82273(17) 0.0141(2) 0.75218(13)
C22_2 C 0.81978(18) 0.0012(2) 0.85154(14)
C23_2 C 0.77431(18) 0.0572(2) 0.82870(14)
C24_2 C 0.77823(18) 0.0645(2) 0.77893(14)
C30_2 C 0.74671(19) 0.1284(2) 0.90499(15)
H21_2 H 0.7946 0.1183 0.9157
C31_2 C 0.72387(18) 0.1048(2) 0.85929(14)
C32_2 C 0.69880(19) 0.1670(2) 0.93504(15)
H22_2 H 0.7163 0.1841 0.9652
C33_2 C 0.60602(19) 0.1580(2) 0.87772(14)
H23_2 H 0.5575 0.1674 0.8682
C34_2 C 0.65126(19) 0.1219(2) 0.84554(15)
H24_2 H 0.6337 0.1089 0.8147
C36_2 C 0.7694(3) 0.1968(3) 0.7518(2)
H28_2 H 0.7692 0.2212 0.7832
H29_2 H 0.7428 0.2300 0.7291
H30_2 H 0.8191 0.1911 0.7417
N6_2 N 0.99912(15) 0.19855(18) 0.41925(11)
O1_2 O 0.72579(13) 0.91585(15) 0.70096(10)
O3_2 O 0.91448(12) 0.91278(14) 0.75005(9)
N3_2 N 0.99912(15) 0.80145(18) 0.91925(11)
C2_2 C 0.76803(18) 0.9661(2) 0.67391(14)
C3_2 C 0.76101(17) 0.9659(2) 0.62379(14)
C7_2 C 0.70534(18) 0.9191(2) 0.59560(14)
C8_2 C 0.69361(19) 0.8379(2) 0.60211(14)
H2_2 H 0.7163 0.8110 0.6278
C9_2 C 0.64772(18) 0.7972(2) 0.56992(14)
H3_2 H 0.6412 0.7425 0.5745
C10_2 C 0.6207(2) 0.9111(2) 0.52805(15)
H4_2 H 0.5946 0.9372 0.5034
C11_2 C 0.66620(19) 0.9560(2) 0.55791(15)
C17_2 C 0.6521(2) 0.9449(3) 0.70775(18)
H10_2 H 0.6539 0.9923 0.7273
H11_2 H 0.6240 0.9045 0.7235
H12_2 H 0.6295 0.9572 0.6769
C20_2 C 0.86800(17) 0.9588(2) 0.77695(14)
C21_2 C 0.86745(18) 0.9525(2) 0.82687(14)
H16_2 H 0.8181 0.9962 0.8849
C25_2 C 0.91455(19) 0.8970(2) 0.85619(14)
C26_2 C 0.98957(18) 0.8891(2) 0.85112(14)
C28_2 C 0.92568(19) 0.8060(2) 0.92246(15)
H19_2 H 0.9032 0.7758 0.9461
C29_2 C 0.88259(19) 0.8527(2) 0.89274(15)
H20_2 H 0.8323 0.8549 0.8969
C35_2 C 0.8921(2) 0.8307(2) 0.74431(16)
H25_2 H 0.8890 0.8060 0.7755
H26_2 H 0.9273 0.8026 0.7256
H27_2 H 0.8450 0.8287 0.7280
O1_3 O 0.22579(13) 0.58415(15) 0.20096(10)
O2_3 O 0.41471(12) 0.38729(15) 0.19582(10)
O3_3 O 0.41448(12) 0.58722(14) 0.25005(9)
O4_3 O 0.23557(14) 0.38038(16) 0.25381(10)
N1_2 N 0.11202(15) 0.66762(17) 0.03246(12)
N2_3 N 0.49565(15) 0.30062(18) 0.02721(11)
C1_3 C 0.31910(17) 0.4850(2) 0.19836(13)
C2_3 C 0.26803(18) 0.5339(2) 0.17391(14)
C3_3 C 0.26101(17) 0.5341(2) 0.12379(14)
C4_3 C 0.30846(18) 0.4855(2) 0.09807(14)
H1_3 H 0.3051 0.4858 0.0645
C5_3 C 0.36055(18) 0.4367(2) 0.12097(14)
C6_3 C 0.36527(17) 0.4366(2) 0.17124(14)
C7_3 C 0.20534(18) 0.5809(2) 0.09560(14)
C8_3 C 0.19361(19) 0.6621(2) 0.10211(14)
H2_3 H 0.2163 0.6890 0.1278
C9_3 C 0.14772(18) 0.7028(2) 0.06992(14)
H3_3 H 0.1412 0.7575 0.0745
C10_3 C 0.1207(2) 0.5889(2) 0.02805(15)
H4_3 H 0.0946 0.5628 0.0034
C11_3 C 0.16620(19) 0.5440(2) 0.05791(15)
H5_3 H 0.1707 0.4892 0.0529
C12_3 C 0.40869(18) 0.3885(2) 0.08982(14)
C13_3 C 0.44353(19) 0.4249(2) 0.05205(15)
H6_3 H 0.4379 0.4795 0.0467
C14_3 C 0.4865(2) 0.3802(2) 0.02261(15)
C15_3 C 0.46077(19) 0.2659(2) 0.06327(15)
H8_3 H 0.4655 0.2108 0.0670
C16_3 C 0.41829(19) 0.3063(2) 0.09530(15)
H9_3 H 0.3962 0.2791 0.1203
C17_3 C 0.1521(2) 0.5551(3) 0.20775(18)
H10_3 H 0.1539 0.5077 0.2273
H11_3 H 0.1240 0.5955 0.2235
H12_3 H 0.1295 0.5428 0.1769
C18_3 C 0.48949(19) 0.4076(3) 0.19130(16)
H13_3 H 0.4996 0.4566 0.2084
H14_3 H 0.5196 0.3656 0.2047
H15_4 H 0.5000 0.4144 0.1578
C19_3 C 0.32273(17) 0.4859(2) 0.25218(13)
C20_3 C 0.36800(17) 0.5412(2) 0.27695(14)
C21_3 C 0.36745(18) 0.5475(2) 0.32687(14)
C22_3 C 0.31978(18) 0.4988(2) 0.35154(14)
H16_3 H 0.3181 0.5038 0.3849
C23_3 C 0.27431(18) 0.4428(2) 0.32870(14)
C24_3 C 0.27823(18) 0.4355(2) 0.27893(14)
C25_3 C 0.41455(19) 0.6030(2) 0.35619(14)
C26_3 C 0.48957(18) 0.6109(2) 0.35112(14)
H17_3 H 0.5129 0.5850 0.3261
C27_3 C 0.52896(19) 0.6575(2) 0.38361(14)
H18_3 H 0.5795 0.6605 0.3805
C28_3 C 0.42568(19) 0.6940(2) 0.42246(15)
H19_3 H 0.4032 0.7242 0.4461
C29_3 C 0.38259(19) 0.6473(2) 0.39274(15)
H20_3 H 0.3323 0.6451 0.3969
C30_3 C 0.24671(19) 0.3716(2) 0.40499(15)
H21_3 H 0.2946 0.3817 0.4157
C31_3 C 0.22387(18) 0.3952(2) 0.35929(14)
C32_3 C 0.19880(19) 0.3330(2) 0.43504(15)
H22_3 H 0.2163 0.3159 0.4652
C33_3 C 0.10602(19) 0.3420(2) 0.37772(14)
H23_3 H 0.0575 0.3326 0.3682
C34_3 C 0.15126(19) 0.3781(2) 0.34554(15)
H24_3 H 0.1337 0.3911 0.3147
C35_3 C 0.3921(2) 0.6693(2) 0.24431(16)
H25_3 H 0.3890 0.6940 0.2755
H26_3 H 0.4273 0.6974 0.2256
H27_3 H 0.3450 0.6713 0.2280
C36_3 C 0.2694(3) 0.3032(3) 0.2518(2)
H28_3 H 0.2692 0.2788 0.2832
H29_3 H 0.2428 0.2700 0.2291
H30_3 H 0.3191 0.3089 0.2417
N5_2 N 0.61202(15) 0.16762(17) 0.03246(12)
Cl1_3 Cl 0.64931(5) 0.34467(6) 0.98121(4)
Cl2_3 Cl 0.46628(5) 0.12957(6) 0.96786(4)
H7_3 H 0.5106 0.4063 0.9980
H17_4 H 0.0129 0.0850 0.3261
C27_4 C 0.02896(19) 0.1575(2) 0.38361(14)
H18_4 H 0.0795 0.1605 0.3805
H14_4 H 0.0196 0.8656 0.2047
H15_5 H -0.0000 0.9144 0.1578
Cl1_4 Cl 0.14931(5) 0.84467(6) 0.98121(4)
H7_4 H 0.0106 0.9063 0.9980
O1_4 O 0.72579(13) 0.08415(15) 0.20096(10)
O3_4 O 0.91448(12) 0.08722(14) 0.25005(9)
C2_4 C 0.76803(18) 0.0339(2) 0.17391(14)
C3_4 C 0.76101(17) 0.0341(2) 0.12379(14)
C7_4 C 0.70534(18) 0.0809(2) 0.09560(14)
C8_4 C 0.69361(19) 0.1621(2) 0.10211(14)
H2_4 H 0.7163 0.1890 0.1278
C9_4 C 0.64772(18) 0.2028(2) 0.06992(14)
H3_4 H 0.6412 0.2575 0.0745
C10_4 C 0.6207(2) 0.0889(2) 0.02805(15)
H4_4 H 0.5946 0.0628 0.0034
C11_4 C 0.66620(19) 0.0440(2) 0.05791(15)
C17_4 C 0.6521(2) 0.0551(3) 0.20775(18)
H10_4 H 0.6539 0.0077 0.2273
H11_4 H 0.6240 0.0955 0.2235
H12_4 H 0.6295 0.0428 0.1769
C20_4 C 0.86800(17) 0.0412(2) 0.27695(14)
C21_4 C 0.86745(18) 0.0475(2) 0.32687(14)
H16_4 H 0.8181 0.0038 0.3849
C25_4 C 0.91455(19) 0.1030(2) 0.35619(14)
C26_4 C 0.98957(18) 0.1109(2) 0.35112(14)
C28_4 C 0.92568(19) 0.1940(2) 0.42246(15)
H19_4 H 0.9032 0.2242 0.4461
C29_4 C 0.88259(19) 0.1473(2) 0.39274(15)
H20_4 H 0.8323 0.1451 0.3969
C35_4 C 0.8921(2) 0.1693(2) 0.24431(16)
H25_4 H 0.8890 0.1940 0.2755
H26_4 H 0.9273 0.1974 0.2256
H27_4 H 0.8450 0.1713 0.2280
O2_4 O 0.91471(12) 0.88729(15) 0.19582(10)
O4_4 O 0.73557(14) 0.88038(16) 0.25381(10)
N2_4 N 0.99565(15) 0.80062(18) 0.02721(11)
C1_4 C 0.81910(17) 0.9850(2) 0.19836(13)
C4_4 C 0.80846(18) 0.9855(2) 0.09807(14)
H1_4 H 0.8051 0.9858 0.0645
C5_4 C 0.86055(18) 0.9367(2) 0.12097(14)
C6_4 C 0.86527(17) 0.9366(2) 0.17124(14)
H5_4 H 0.6707 0.9892 0.0529
C12_4 C 0.90869(18) 0.8885(2) 0.08982(14)
C13_4 C 0.94353(19) 0.9249(2) 0.05205(15)
H6_4 H 0.9379 0.9795 0.0467
C14_4 C 0.9865(2) 0.8802(2) 0.02261(15)
C15_4 C 0.96077(19) 0.7659(2) 0.06327(15)
H8_4 H 0.9655 0.7108 0.0670
C16_4 C 0.91829(19) 0.8063(2) 0.09530(15)
H9_4 H 0.8962 0.7791 0.1203
C18_4 C 0.98949(19) 0.9076(3) 0.19130(16)
H13_4 H 0.9996 0.9566 0.2084
H15_6 H 1.0000 0.9144 0.1578
C19_4 C 0.82273(17) 0.9859(2) 0.25218(13)
C22_4 C 0.81978(18) 0.9988(2) 0.35154(14)
C23_4 C 0.77431(18) 0.9428(2) 0.32870(14)
C24_4 C 0.77823(18) 0.9355(2) 0.27893(14)
C30_4 C 0.74671(19) 0.8716(2) 0.40499(15)
H21_4 H 0.7946 0.8817 0.4157
C31_4 C 0.72387(18) 0.8952(2) 0.35929(14)
C32_4 C 0.69880(19) 0.8330(2) 0.43504(15)
H22_4 H 0.7163 0.8159 0.4652
C33_4 C 0.60602(19) 0.8420(2) 0.37772(14)
H23_4 H 0.5575 0.8326 0.3682
C34_4 C 0.65126(19) 0.8781(2) 0.34554(15)
H24_4 H 0.6337 0.8911 0.3147
C36_4 C 0.7694(3) 0.8032(3) 0.2518(2)
H28_4 H 0.7692 0.7788 0.2832
H29_4 H 0.7428 0.7700 0.2291
H30_4 H 0.8191 0.8089 0.2417
Cl2_4 Cl 0.96628(5) 0.62957(6) 0.96786(4)
Co1_2 Co 0.44033(2) 0.76274(3) 0.024991(18)
Cl1_5 Cl 0.35069(5) 0.65533(6) 0.01879(4)
Cl2_5 Cl 0.53372(5) 0.87043(6) 0.03214(4)
H7_5 H 0.4894 0.5937 0.0020
Co2_2 Co 0.94033(2) 0.26274(3) 0.024991(18)
N6_3 N 0.50088(15) 0.69855(18) 0.08075(11)
N7_3 N 0.37156(15) 0.81931(18) 0.07727(12)
O1_5 O 0.77421(13) 0.41585(15) 0.79904(10)
O2_5 O 0.58529(12) 0.61271(15) 0.80418(10)
O3_5 O 0.58552(12) 0.41278(14) 0.74995(9)
O4_5 O 0.76443(14) 0.61962(16) 0.74619(10)
N1_3 N 0.88798(15) 0.33238(17) 0.96754(12)
N2_5 N 0.50435(15) 0.69938(18) 0.97279(11)
N3_3 N 0.50088(15) 0.30145(18) 0.58075(11)
N4_3 N 0.87156(15) 0.68069(18) 0.57727(12)
C1_5 C 0.68090(17) 0.5150(2) 0.80164(13)
C2_5 C 0.73197(18) 0.4661(2) 0.82609(14)
C3_5 C 0.73899(17) 0.4659(2) 0.87621(14)
C4_5 C 0.69154(18) 0.5145(2) 0.90193(14)
H1_5 H 0.6949 0.5142 0.9355
C5_5 C 0.63945(18) 0.5633(2) 0.87903(14)
C6_5 C 0.63473(17) 0.5634(2) 0.82876(14)
C7_5 C 0.79466(18) 0.4191(2) 0.90440(14)
C8_5 C 0.80639(19) 0.3379(2) 0.89789(14)
H2_5 H 0.7837 0.3110 0.8722
C9_5 C 0.85228(18) 0.2972(2) 0.93008(14)
H3_5 H 0.8588 0.2425 0.9255
C10_5 C 0.8793(2) 0.4111(2) 0.97195(15)
H4_5 H 0.9054 0.4372 0.9966
C11_5 C 0.83380(19) 0.4560(2) 0.94209(15)
H5_5 H 0.8293 0.5108 0.9471
C12_5 C 0.59131(18) 0.6115(2) 0.91018(14)
C13_5 C 0.55647(19) 0.5751(2) 0.94795(15)
H6_5 H 0.5621 0.5205 0.9533
C14_5 C 0.5135(2) 0.6198(2) 0.97739(15)
C15_5 C 0.53923(19) 0.7341(2) 0.93673(15)
H8_5 H 0.5345 0.7892 0.9330
C16_5 C 0.58171(19) 0.6937(2) 0.90470(15)
H9_5 H 0.6038 0.7209 0.8797
C17_5 C 0.8479(2) 0.4449(3) 0.79225(18)
H10_5 H 0.8461 0.4923 0.7727
H11_5 H 0.8760 0.4045 0.7765
H12_5 H 0.8705 0.4572 0.8231
C18_5 C 0.51051(19) 0.5924(3) 0.80870(16)
H13_5 H 0.5004 0.5434 0.7916
H14_5 H 0.4804 0.6344 0.7953
H15_7 H 0.5000 0.5856 0.8422
C19_5 C 0.67727(17) 0.5141(2) 0.74782(13)
C20_5 C 0.63200(17) 0.4588(2) 0.72305(14)
C21_5 C 0.63255(18) 0.4525(2) 0.67313(14)
C22_5 C 0.68022(18) 0.5012(2) 0.64846(14)
H16_5 H 0.6819 0.4962 0.6151
C23_5 C 0.72569(18) 0.5572(2) 0.67130(14)
C24_5 C 0.72177(18) 0.5645(2) 0.72107(14)
C25_5 C 0.58545(19) 0.3970(2) 0.64381(14)
C26_5 C 0.51043(18) 0.3891(2) 0.64888(14)
H17_5 H 0.4871 0.4150 0.6739
C27_5 C 0.47104(19) 0.3425(2) 0.61639(14)
H18_5 H 0.4205 0.3395 0.6195
C28_5 C 0.57432(19) 0.3060(2) 0.57754(15)
H19_5 H 0.5968 0.2758 0.5539
C29_5 C 0.61741(19) 0.3527(2) 0.60726(15)
H20_5 H 0.6677 0.3549 0.6031
C30_5 C 0.75329(19) 0.6284(2) 0.59501(15)
H21_5 H 0.7054 0.6183 0.5843
C31_5 C 0.77613(18) 0.6048(2) 0.64071(14)
C32_5 C 0.80120(19) 0.6670(2) 0.56496(15)
H22_5 H 0.7837 0.6841 0.5348
C33_5 C 0.89398(19) 0.6580(2) 0.62228(14)
H23_5 H 0.9425 0.6674 0.6318
C34_5 C 0.84874(19) 0.6219(2) 0.65446(15)
H24_5 H 0.8663 0.6089 0.6853
C35_5 C 0.6079(2) 0.3307(2) 0.75569(16)
H25_5 H 0.6110 0.3060 0.7245
H26_5 H 0.5727 0.3026 0.7744
H27_5 H 0.6550 0.3287 0.7720
C36_5 C 0.7306(3) 0.6968(3) 0.7482(2)
H28_5 H 0.7308 0.7212 0.7168
H29_5 H 0.7572 0.7300 0.7709
H30_5 H 0.6809 0.6911 0.7583
Co3_2 Co 0.44033(2) 0.23726(3) 0.524991(18)
Co4_2 Co 0.94033(2) 0.73726(3) 0.524991(18)
N5_3 N 0.38798(15) 0.83238(17) 0.96754(12)
Cl2_6 Cl 0.03372(5) 0.37043(6) 0.03214(4)
N6_4 N 0.00088(15) 0.19855(18) 0.08075(11)
O2_6 O 0.08529(12) 0.11271(15) 0.80418(10)
O4_6 O 0.26443(14) 0.11962(16) 0.74619(10)
N2_6 N 0.00435(15) 0.19938(18) 0.97279(11)
N4_4 N 0.37156(15) 0.18069(18) 0.57727(12)
C1_6 C 0.18090(17) 0.0150(2) 0.80164(13)
C4_6 C 0.19154(18) 0.0145(2) 0.90193(14)
H1_6 H 0.1949 0.0142 0.9355
C5_6 C 0.13945(18) 0.0633(2) 0.87903(14)
C6_6 C 0.13473(17) 0.0634(2) 0.82876(14)
H5_6 H 0.3293 0.0108 0.9471
C12_6 C 0.09131(18) 0.1115(2) 0.91018(14)
C13_6 C 0.05647(19) 0.0751(2) 0.94795(15)
H6_6 H 0.0621 0.0205 0.9533
C14_6 C 0.0135(2) 0.1198(2) 0.97739(15)
C15_6 C 0.03923(19) 0.2341(2) 0.93673(15)
H8_6 H 0.0345 0.2892 0.9330
C16_6 C 0.08171(19) 0.1937(2) 0.90470(15)
H9_6 H 0.1038 0.2209 0.8797
C18_6 C 0.01051(19) 0.0924(3) 0.80870(16)
H13_6 H 0.0004 0.0434 0.7916
H15_8 H 0.0000 0.0856 0.8422
C19_6 C 0.17727(17) 0.0141(2) 0.74782(13)
C22_6 C 0.18022(18) 0.0012(2) 0.64846(14)
C23_6 C 0.22569(18) 0.0572(2) 0.67130(14)
C24_6 C 0.22177(18) 0.0645(2) 0.72107(14)
C30_6 C 0.25329(19) 0.1284(2) 0.59501(15)
H21_6 H 0.2054 0.1183 0.5843
C31_6 C 0.27613(18) 0.1048(2) 0.64071(14)
C32_6 C 0.30120(19) 0.1670(2) 0.56496(15)
H22_6 H 0.2837 0.1841 0.5348
C33_6 C 0.39398(19) 0.1580(2) 0.62228(14)
H23_6 H 0.4425 0.1674 0.6318
C34_6 C 0.34874(19) 0.1219(2) 0.65446(15)
H24_6 H 0.3663 0.1089 0.6853
C36_6 C 0.2306(3) 0.1968(3) 0.7482(2)
H28_6 H 0.2308 0.2212 0.7168
H29_6 H 0.2572 0.2300 0.7709
H30_6 H 0.1809 0.1911 0.7583
O1_6 O 0.27421(13) 0.91585(15) 0.79904(10)
O3_6 O 0.08552(12) 0.91278(14) 0.74995(9)
N3_4 N 0.00088(15) 0.80145(18) 0.58075(11)
C2_6 C 0.23197(18) 0.9661(2) 0.82609(14)
C3_6 C 0.23899(17) 0.9659(2) 0.87621(14)
C7_6 C 0.29466(18) 0.9191(2) 0.90440(14)
C8_6 C 0.30639(19) 0.8379(2) 0.89789(14)
H2_6 H 0.2837 0.8110 0.8722
C9_6 C 0.35228(18) 0.7972(2) 0.93008(14)
H3_6 H 0.3588 0.7425 0.9255
C10_6 C 0.3793(2) 0.9111(2) 0.97195(15)
H4_6 H 0.4054 0.9372 0.9966
C11_6 C 0.33380(19) 0.9560(2) 0.94209(15)
C17_6 C 0.3479(2) 0.9449(3) 0.79225(18)
H10_6 H 0.3461 0.9923 0.7727
H11_6 H 0.3760 0.9045 0.7765
H12_6 H 0.3705 0.9572 0.8231
C20_6 C 0.13200(17) 0.9588(2) 0.72305(14)
C21_6 C 0.13255(18) 0.9525(2) 0.67313(14)
H16_6 H 0.1819 0.9962 0.6151
C25_6 C 0.08545(19) 0.8970(2) 0.64381(14)
C26_6 C 0.01043(18) 0.8891(2) 0.64888(14)
C28_6 C 0.07432(19) 0.8060(2) 0.57754(15)
H19_6 H 0.0968 0.7758 0.5539
C29_6 C 0.11741(19) 0.8527(2) 0.60726(15)
H20_6 H 0.1677 0.8549 0.6031
C35_6 C 0.1079(2) 0.8307(2) 0.75569(16)
H25_6 H 0.1110 0.8060 0.7245
H26_6 H 0.0727 0.8026 0.7744
H27_6 H 0.1550 0.8287 0.7720
Cl1_6 Cl 0.85069(5) 0.15533(6) 0.01879(4)
H7_6 H 0.9894 0.0937 0.0020
N7_4 N 0.87156(15) 0.31931(18) 0.07727(12)
H14_6 H 0.9804 0.1344 0.7953
H15_9 H 1.0000 0.0856 0.8422
H17_6 H 0.9871 0.9150 0.6739
C27_6 C 0.97104(19) 0.8425(2) 0.61639(14)
H18_6 H 0.9205 0.8395 0.6195
Cl1_7 Cl 0.35069(5) 0.34467(6) 0.51879(4)
Cl2_7 Cl 0.53372(5) 0.12957(6) 0.53214(4)
O1_7 O 0.77421(13) 0.58415(15) 0.29904(10)
O2_7 O 0.58529(12) 0.38729(15) 0.30418(10)
O3_7 O 0.58552(12) 0.58722(14) 0.24995(9)
O4_7 O 0.76443(14) 0.38038(16) 0.24619(10)
N1_4 N 0.88798(15) 0.66762(17) 0.46754(12)
N2_7 N 0.50435(15) 0.30062(18) 0.47279(11)
C1_7 C 0.68090(17) 0.4850(2) 0.30164(13)
C2_7 C 0.73197(18) 0.5339(2) 0.32609(14)
C3_7 C 0.73899(17) 0.5341(2) 0.37621(14)
C4_7 C 0.69154(18) 0.4855(2) 0.40193(14)
H1_7 H 0.6949 0.4858 0.4355
C5_7 C 0.63945(18) 0.4367(2) 0.37903(14)
C6_7 C 0.63473(17) 0.4366(2) 0.32876(14)
C7_7 C 0.79466(18) 0.5809(2) 0.40440(14)
C8_7 C 0.80639(19) 0.6621(2) 0.39789(14)
H2_7 H 0.7837 0.6890 0.3722
C9_7 C 0.85228(18) 0.7028(2) 0.43008(14)
H3_7 H 0.8588 0.7575 0.4255
C10_7 C 0.8793(2) 0.5889(2) 0.47195(15)
H4_7 H 0.9054 0.5628 0.4966
C11_7 C 0.83380(19) 0.5440(2) 0.44209(15)
H5_7 H 0.8293 0.4892 0.4471
C12_7 C 0.59131(18) 0.3885(2) 0.41018(14)
C13_7 C 0.55647(19) 0.4249(2) 0.44795(15)
H6_7 H 0.5621 0.4795 0.4533
C14_7 C 0.5135(2) 0.3802(2) 0.47739(15)
H7_7 H 0.4894 0.4063 0.5020
C15_7 C 0.53923(19) 0.2659(2) 0.43673(15)
H8_7 H 0.5345 0.2108 0.4330
C16_7 C 0.58171(19) 0.3063(2) 0.40470(15)
H9_7 H 0.6038 0.2791 0.3797
C17_7 C 0.8479(2) 0.5551(3) 0.29225(18)
H10_7 H 0.8461 0.5077 0.2727
H11_7 H 0.8760 0.5955 0.2765
H12_7 H 0.8705 0.5428 0.3231
C18_7 C 0.51051(19) 0.4076(3) 0.30870(16)
H13_7 H 0.5004 0.4566 0.2916
H14_7 H 0.4804 0.3656 0.2953
H15_10 H 0.5000 0.4144 0.3422
C19_7 C 0.67727(17) 0.4859(2) 0.24782(13)
C20_7 C 0.63200(17) 0.5412(2) 0.22305(14)
C21_7 C 0.63255(18) 0.5475(2) 0.17313(14)
C22_7 C 0.68022(18) 0.4988(2) 0.14846(14)
H16_7 H 0.6819 0.5038 0.1151
C23_7 C 0.72569(18) 0.4428(2) 0.17130(14)
C24_7 C 0.72177(18) 0.4355(2) 0.22107(14)
C25_7 C 0.58545(19) 0.6030(2) 0.14381(14)
C26_7 C 0.51043(18) 0.6109(2) 0.14888(14)
H17_7 H 0.4871 0.5850 0.1739
C27_7 C 0.47104(19) 0.6575(2) 0.11639(14)
H18_7 H 0.4205 0.6605 0.1195
C28_7 C 0.57432(19) 0.6940(2) 0.07754(15)
H19_7 H 0.5968 0.7242 0.0539
C29_7 C 0.61741(19) 0.6473(2) 0.10726(15)
H20_7 H 0.6677 0.6451 0.1031
C30_7 C 0.75329(19) 0.3716(2) 0.09501(15)
H21_7 H 0.7054 0.3817 0.0843
C31_7 C 0.77613(18) 0.3952(2) 0.14071(14)
C32_7 C 0.80120(19) 0.3330(2) 0.06496(15)
H22_7 H 0.7837 0.3159 0.0348
C33_7 C 0.89398(19) 0.3420(2) 0.12228(14)
H23_7 H 0.9425 0.3326 0.1318
C34_7 C 0.84874(19) 0.3781(2) 0.15446(15)
H24_7 H 0.8663 0.3911 0.1853
C35_7 C 0.6079(2) 0.6693(2) 0.25569(16)
H25_7 H 0.6110 0.6940 0.2245
H26_7 H 0.5727 0.6974 0.2744
H27_7 H 0.6550 0.6713 0.2720
C36_7 C 0.7306(3) 0.3032(3) 0.2482(2)
H28_7 H 0.7308 0.2788 0.2168
H29_7 H 0.7572 0.2700 0.2709
H30_7 H 0.6809 0.3089 0.2583
N5_4 N 0.38798(15) 0.16762(17) 0.46754(12)
O1_8 O 0.27421(13) 0.08415(15) 0.29904(10)
O3_8 O 0.08552(12) 0.08722(14) 0.24995(9)
C2_8 C 0.23197(18) 0.0339(2) 0.32609(14)
C3_8 C 0.23899(17) 0.0341(2) 0.37621(14)
C7_8 C 0.29466(18) 0.0809(2) 0.40440(14)
C8_8 C 0.30639(19) 0.1621(2) 0.39789(14)
H2_8 H 0.2837 0.1890 0.3722
C9_8 C 0.35228(18) 0.2028(2) 0.43008(14)
H3_8 H 0.3588 0.2575 0.4255
C10_8 C 0.3793(2) 0.0889(2) 0.47195(15)
H4_8 H 0.4054 0.0628 0.4966
C11_8 C 0.33380(19) 0.0440(2) 0.44209(15)
C17_8 C 0.3479(2) 0.0551(3) 0.29225(18)
H10_8 H 0.3461 0.0077 0.2727
H11_8 H 0.3760 0.0955 0.2765
H12_8 H 0.3705 0.0428 0.3231
C20_8 C 0.13200(17) 0.0412(2) 0.22305(14)
C21_8 C 0.13255(18) 0.0475(2) 0.17313(14)
H16_8 H 0.1819 0.0038 0.1151
C25_8 C 0.08545(19) 0.1030(2) 0.14381(14)
C26_8 C 0.01043(18) 0.1109(2) 0.14888(14)
C28_8 C 0.07432(19) 0.1940(2) 0.07754(15)
H19_8 H 0.0968 0.2242 0.0539
C29_8 C 0.11741(19) 0.1473(2) 0.10726(15)
H20_8 H 0.1677 0.1451 0.1031
C35_8 C 0.1079(2) 0.1693(2) 0.25569(16)
H25_8 H 0.1110 0.1940 0.2245
H26_8 H 0.0727 0.1974 0.2744
H27_8 H 0.1550 0.1713 0.2720
Cl2_8 Cl 0.03372(5) 0.62957(6) 0.53214(4)
O2_8 O 0.08529(12) 0.88729(15) 0.30418(10)
O4_8 O 0.26443(14) 0.88038(16) 0.24619(10)
N2_8 N 0.00435(15) 0.80062(18) 0.47279(11)
C1_8 C 0.18090(17) 0.9850(2) 0.30164(13)
C4_8 C 0.19154(18) 0.9855(2) 0.40193(14)
H1_8 H 0.1949 0.9858 0.4355
C5_8 C 0.13945(18) 0.9367(2) 0.37903(14)
C6_8 C 0.13473(17) 0.9366(2) 0.32876(14)
H5_8 H 0.3293 0.9892 0.4471
C12_8 C 0.09131(18) 0.8885(2) 0.41018(14)
C13_8 C 0.05647(19) 0.9249(2) 0.44795(15)
H6_8 H 0.0621 0.9795 0.4533
C14_8 C 0.0135(2) 0.8802(2) 0.47739(15)
C15_8 C 0.03923(19) 0.7659(2) 0.43673(15)
H8_8 H 0.0345 0.7108 0.4330
C16_8 C 0.08171(19) 0.8063(2) 0.40470(15)
H9_8 H 0.1038 0.7791 0.3797
C18_8 C 0.01051(19) 0.9076(3) 0.30870(16)
H13_8 H 0.0004 0.9566 0.2916
H15_11 H 0.0000 0.9144 0.3422
C19_8 C 0.17727(17) 0.9859(2) 0.24782(13)
C22_8 C 0.18022(18) 0.9988(2) 0.14846(14)
C23_8 C 0.22569(18) 0.9428(2) 0.17130(14)
C24_8 C 0.22177(18) 0.9355(2) 0.22107(14)
C30_8 C 0.25329(19) 0.8716(2) 0.09501(15)
H21_8 H 0.2054 0.8817 0.0843
C31_8 C 0.27613(18) 0.8952(2) 0.14071(14)
C32_8 C 0.30120(19) 0.8330(2) 0.06496(15)
H22_8 H 0.2837 0.8159 0.0348
C33_8 C 0.39398(19) 0.8420(2) 0.12228(14)
H23_8 H 0.4425 0.8326 0.1318
C34_8 C 0.34874(19) 0.8781(2) 0.15446(15)
H24_8 H 0.3663 0.8911 0.1853
C36_8 C 0.2306(3) 0.8032(3) 0.2482(2)
H28_8 H 0.2308 0.7788 0.2168
H29_8 H 0.2572 0.7700 0.2709
H30_8 H 0.1809 0.8089 0.2583
H17_8 H 0.9871 0.0850 0.1739
C27_8 C 0.97104(19) 0.1575(2) 0.11639(14)
H18_8 H 0.9205 0.1605 0.1195
Cl1_8 Cl 0.85069(5) 0.84467(6) 0.51879(4)
H7_8 H 0.9894 0.9063 0.5020
H14_8 H 0.9804 0.8656 0.2953
H15_12 H 1.0000 0.9144 0.3422
loop_
_geom_bond_atom_site_label_1
_geom_bond_atom_site_label_2
_geom_bond_site_symmetry_1
_geom_bond_site_symmetry_2
Co1 Cl1 1_555 1_555
Cl2 Co1 1_555 1_555
O1 C2 1_555 1_555
O2 C6 1_555 1_555
O3 C20 1_555 1_555
O4 C24 1_555 1_555
N1 C9 1_555 1_555
N2 Co1 1_555 1_555
N3 C27 1_555 1_555
N4 C32 1_555 1_555
C1 C2 1_555 1_555
C2 C3 1_555 1_555
C3 C4 1_555 1_555
C4 H1 1_555 1_555
C5 C4 1_555 1_555
C6 C1 1_555 1_555
C7 C3 1_555 1_555
C8 C7 1_555 1_555
H2 C8 1_555 1_555
C9 C8 1_555 1_555
H3 C9 1_555 1_555
C10 N1 1_555 1_555
H4 C10 1_555 1_555
C11 C7 1_555 1_555
H5 C11 1_555 1_555
C12 C5 1_555 1_555
C13 C12 1_555 1_555
H6 C13 1_555 1_555
C14 N2 1_555 1_555
H7 C14 1_555 1_555
C15 N2 1_555 1_555
H8 C15 1_555 1_555
C16 C12 1_555 1_555
H9 C16 1_555 1_555
C17 O1 1_555 1_555
H10 C17 1_555 1_555
H11 C17 1_555 1_555
H12 C17 1_555 1_555
C18 O2 1_555 1_555
H13 C18 1_555 1_555
H14 C18 1_555 1_555
H15 C18 1_555 1_555
C19 C1 1_555 1_555
C20 C19 1_555 1_555
C21 C20 1_555 1_555
C22 C21 1_555 1_555
H16 C22 1_555 1_555
C23 C22 1_555 1_555
C24 C19 1_555 1_555
C25 C21 1_555 1_555
C26 C25 1_555 1_555
H17 C26 1_555 1_555
C27 C26 1_555 1_555
H18 C27 1_555 1_555
C28 N3 1_555 1_555
H19 C28 1_555 1_555
C29 C25 1_555 1_555
H20 C29 1_555 1_555
C30 H21 1_555 1_555
C31 C23 1_555 1_555
C32 C30 1_555 1_555
H22 C32 1_555 1_555
C33 N4 1_555 1_555
H23 C33 1_555 1_555
C34 C31 1_555 1_555
H24 C34 1_555 1_555
C35 O3 1_555 1_555
H25 C35 1_555 1_555
H26 C35 1_555 1_555
H27 C35 1_555 1_555
C36 O4 1_555 1_555
H28 C36 1_555 1_555
H29 C36 1_555 1_555
H30 C36 1_555 1_555
Co2 N1 1_555 1_555
Co3 N3 1_555 1_555
Co4 N4 1_555 1_555
N5 Co1 1_555 1_555
N6 Co1 1_555 1_555
N7 Co1 1_555 1_555
C5 C6 1_555 1_555
C10 C11 1_555 1_555
C13 C14 1_555 1_555
C15 C16 1_555 1_555
C23 C24 1_555 1_555
C28 C29 1_555 1_555
C30 C31 1_555 1_555
C33 C34 1_555 1_555
Co2 Cl1_2 1_555 1_555
N7_2 Co2 1_555 1_555
H18_2 C27_2 1_555 1_555
O2_2 C6_2 1_555 1_555
O4_2 C24_2 1_555 1_555
N4_2 C32_2 1_555 1_555
C4_2 H1_2 1_555 1_555
C5_2 C4_2 1_555 1_555
C6_2 C1_2 1_555 1_555
C12_2 C5_2 1_555 1_555
C13_2 C12_2 1_555 1_555
H6_2 C13_2 1_555 1_555
C14_2 N2_2 1_555 1_555
C15_2 N2_2 1_555 1_555
H8_2 C15_2 1_555 1_555
C16_2 C12_2 1_555 1_555
H9_2 C16_2 1_555 1_555
C18_2 O2_2 1_555 1_555
H13_2 C18_2 1_555 1_555
H15_3 C18_2 1_555 1_555
C19_2 C1_2 1_555 1_555
C23_2 C22_2 1_555 1_555
C24_2 C19_2 1_555 1_555
C30_2 H21_2 1_555 1_555
C31_2 C23_2 1_555 1_555
C32_2 C30_2 1_555 1_555
H22_2 C32_2 1_555 1_555
C33_2 N4_2 1_555 1_555
H23_2 C33_2 1_555 1_555
C34_2 C31_2 1_555 1_555
H24_2 C34_2 1_555 1_555
C36_2 O4_2 1_555 1_555
H28_2 C36_2 1_555 1_555
H29_2 C36_2 1_555 1_555
H30_2 C36_2 1_555 1_555
Co3 N4_2 1_555 1_555
C5_2 C6_2 1_555 1_555
C13_2 C14_2 1_555 1_555
C15_2 C16_2 1_555 1_555
C23_2 C24_2 1_555 1_555
C30_2 C31_2 1_555 1_555
C33_2 C34_2 1_555 1_555
O1_2 C2_2 1_555 1_555
O3_2 C20_2 1_555 1_555
N5 C9_2 1_555 1_555
C2_2 C3_2 1_555 1_555
C7_2 C3_2 1_555 1_555
C8_2 C7_2 1_555 1_555
H2_2 C8_2 1_555 1_555
C9_2 C8_2 1_555 1_555
H3_2 C9_2 1_555 1_555
C10_2 N5 1_555 1_555
H4_2 C10_2 1_555 1_555
C11_2 C7_2 1_555 1_555
C17_2 O1_2 1_555 1_555
H10_2 C17_2 1_555 1_555
H11_2 C17_2 1_555 1_555
H12_2 C17_2 1_555 1_555
C21_2 C20_2 1_555 1_555
C25_2 C21_2 1_555 1_555
C26_2 C25_2 1_555 1_555
C28_2 N3_2 1_555 1_555
H19_2 C28_2 1_555 1_555
C29_2 C25_2 1_555 1_555
H20_2 C29_2 1_555 1_555
C35_2 O3_2 1_555 1_555
H25_2 C35_2 1_555 1_555
H26_2 C35_2 1_555 1_555
H27_2 C35_2 1_555 1_555
C10_2 C11_2 1_555 1_555
C28_2 C29_2 1_555 1_555
O1_3 C2_3 1_555 1_555
O2_3 C6_3 1_555 1_555
O3_3 C20_3 1_555 1_555
O4_3 C24_3 1_555 1_555
N1_2 C9_3 1_555 1_555
N6 C27_3 1_555 1_555
N7_2 C32_3 1_555 1_555
C1_3 C2_3 1_555 1_555
C2_3 C3_3 1_555 1_555
C3_3 C4_3 1_555 1_555
C4_3 H1_3 1_555 1_555
C5_3 C4_3 1_555 1_555
C6_3 C1_3 1_555 1_555
C7_3 C3_3 1_555 1_555
C8_3 C7_3 1_555 1_555
H2_3 C8_3 1_555 1_555
C9_3 C8_3 1_555 1_555
H3_3 C9_3 1_555 1_555
C10_3 N1_2 1_555 1_555
H4_3 C10_3 1_555 1_555
C11_3 C7_3 1_555 1_555
H5_3 C11_3 1_555 1_555
C12_3 C5_3 1_555 1_555
C13_3 C12_3 1_555 1_555
H6_3 C13_3 1_555 1_555
C14_3 N2_3 1_555 1_555
C15_3 N2_3 1_555 1_555
H8_3 C15_3 1_555 1_555
C16_3 C12_3 1_555 1_555
H9_3 C16_3 1_555 1_555
C17_3 O1_3 1_555 1_555
H10_3 C17_3 1_555 1_555
H11_3 C17_3 1_555 1_555
H12_3 C17_3 1_555 1_555
C18_3 O2_3 1_555 1_555
H13_3 C18_3 1_555 1_555
H14_3 C18_3 1_555 1_555
H15_4 C18_3 1_555 1_555
C19_3 C1_3 1_555 1_555
C20_3 C19_3 1_555 1_555
C21_3 C20_3 1_555 1_555
C22_3 C21_3 1_555 1_555
H16_3 C22_3 1_555 1_555
C23_3 C22_3 1_555 1_555
C24_3 C19_3 1_555 1_555
C25_3 C21_3 1_555 1_555
C26_3 C25_3 1_555 1_555
H17_3 C26_3 1_555 1_555
C27_3 C26_3 1_555 1_555
H18_3 C27_3 1_555 1_555
C28_3 N6 1_555 1_555
H19_3 C28_3 1_555 1_555
C29_3 C25_3 1_555 1_555
H20_3 C29_3 1_555 1_555
C30_3 H21_3 1_555 1_555
C31_3 C23_3 1_555 1_555
C32_3 C30_3 1_555 1_555
H22_3 C32_3 1_555 1_555
C33_3 N7_2 1_555 1_555
H23_3 C33_3 1_555 1_555
C34_3 C31_3 1_555 1_555
H24_3 C34_3 1_555 1_555
C35_3 O3_3 1_555 1_555
H25_3 C35_3 1_555 1_555
H26_3 C35_3 1_555 1_555
H27_3 C35_3 1_555 1_555
C36_3 O4_3 1_555 1_555
H28_3 C36_3 1_555 1_555
H29_3 C36_3 1_555 1_555
H30_3 C36_3 1_555 1_555
C5_3 C6_3 1_555 1_555
C10_3 C11_3 1_555 1_555
C13_3 C14_3 1_555 1_555
C15_3 C16_3 1_555 1_555
C23_3 C24_3 1_555 1_555
C28_3 C29_3 1_555 1_555
C30_3 C31_3 1_555 1_555
C33_3 C34_3 1_555 1_555
Co3 Cl1_3 1_555 1_555
Cl2_3 Co3 1_555 1_555
H18_4 C27_4 1_555 1_555
Co4 Cl1_4 1_555 1_555
O1_4 C2_4 1_555 1_555
O3_4 C20_4 1_555 1_555
N5_2 C9_4 1_555 1_555
C2_4 C3_4 1_555 1_555
C7_4 C3_4 1_555 1_555
C8_4 C7_4 1_555 1_555
H2_4 C8_4 1_555 1_555
C9_4 C8_4 1_555 1_555
H3_4 C9_4 1_555 1_555
C10_4 N5_2 1_555 1_555
H4_4 C10_4 1_555 1_555
C11_4 C7_4 1_555 1_555
C17_4 O1_4 1_555 1_555
H10_4 C17_4 1_555 1_555
H11_4 C17_4 1_555 1_555
H12_4 C17_4 1_555 1_555
C21_4 C20_4 1_555 1_555
C25_4 C21_4 1_555 1_555
C26_4 C25_4 1_555 1_555
C28_4 N6_2 1_555 1_555
H19_4 C28_4 1_555 1_555
C29_4 C25_4 1_555 1_555
H20_4 C29_4 1_555 1_555
C35_4 O3_4 1_555 1_555
H25_4 C35_4 1_555 1_555
H26_4 C35_4 1_555 1_555
H27_4 C35_4 1_555 1_555
C10_4 C11_4 1_555 1_555
C28_4 C29_4 1_555 1_555
O2_4 C6_4 1_555 1_555
O4_4 C24_4 1_555 1_555
N7 C32_4 1_555 1_555
C4_4 H1_4 1_555 1_555
C5_4 C4_4 1_555 1_555
C6_4 C1_4 1_555 1_555
C12_4 C5_4 1_555 1_555
C13_4 C12_4 1_555 1_555
H6_4 C13_4 1_555 1_555
C14_4 N2_4 1_555 1_555
C15_4 N2_4 1_555 1_555
H8_4 C15_4 1_555 1_555
C16_4 C12_4 1_555 1_555
H9_4 C16_4 1_555 1_555
C18_4 O2_4 1_555 1_555
H13_4 C18_4 1_555 1_555
H15_6 C18_4 1_555 1_555
C19_4 C1_4 1_555 1_555
C23_4 C22_4 1_555 1_555
C24_4 C19_4 1_555 1_555
C30_4 H21_4 1_555 1_555
C31_4 C23_4 1_555 1_555
C32_4 C30_4 1_555 1_555
H22_4 C32_4 1_555 1_555
C33_4 N7 1_555 1_555
H23_4 C33_4 1_555 1_555
C34_4 C31_4 1_555 1_555
H24_4 C34_4 1_555 1_555
C36_4 O4_4 1_555 1_555
H28_4 C36_4 1_555 1_555
H29_4 C36_4 1_555 1_555
H30_4 C36_4 1_555 1_555
C5_4 C6_4 1_555 1_555
C13_4 C14_4 1_555 1_555
C15_4 C16_4 1_555 1_555
C23_4 C24_4 1_555 1_555
C30_4 C31_4 1_555 1_555
C33_4 C34_4 1_555 1_555
Co1_2 Cl1_5 1_555 1_555
Cl2_5 Co1_2 1_555 1_555
N6_3 Co1_2 1_555 1_555
N7_3 Co1_2 1_555 1_555
O1_5 C2_5 1_555 1_555
O2_5 C6_5 1_555 1_555
O3_5 C20_5 1_555 1_555
O4_5 C24_5 1_555 1_555
N1_3 C9_5 1_555 1_555
N3_3 C27_5 1_555 1_555
N4_3 C32_5 1_555 1_555
C1_5 C2_5 1_555 1_555
C2_5 C3_5 1_555 1_555
C3_5 C4_5 1_555 1_555
C4_5 H1_5 1_555 1_555
C5_5 C4_5 1_555 1_555
C6_5 C1_5 1_555 1_555
C7_5 C3_5 1_555 1_555
C8_5 C7_5 1_555 1_555
H2_5 C8_5 1_555 1_555
C9_5 C8_5 1_555 1_555
H3_5 C9_5 1_555 1_555
C10_5 N1_3 1_555 1_555
H4_5 C10_5 1_555 1_555
C11_5 C7_5 1_555 1_555
H5_5 C11_5 1_555 1_555
C12_5 C5_5 1_555 1_555
C13_5 C12_5 1_555 1_555
H6_5 C13_5 1_555 1_555
C14_5 N2_5 1_555 1_555
C15_5 N2_5 1_555 1_555
H8_5 C15_5 1_555 1_555
C16_5 C12_5 1_555 1_555
H9_5 C16_5 1_555 1_555
C17_5 O1_5 1_555 1_555
H10_5 C17_5 1_555 1_555
H11_5 C17_5 1_555 1_555
H12_5 C17_5 1_555 1_555
C18_5 O2_5 1_555 1_555
H13_5 C18_5 1_555 1_555
H14_5 C18_5 1_555 1_555
H15_7 C18_5 1_555 1_555
C19_5 C1_5 1_555 1_555
C20_5 C19_5 1_555 1_555
C21_5 C20_5 1_555 1_555
C22_5 C21_5 1_555 1_555
H16_5 C22_5 1_555 1_555
C23_5 C22_5 1_555 1_555
C24_5 C19_5 1_555 1_555
C25_5 C21_5 1_555 1_555
C26_5 C25_5 1_555 1_555
H17_5 C26_5 1_555 1_555
C27_5 C26_5 1_555 1_555
H18_5 C27_5 1_555 1_555
C28_5 N3_3 1_555 1_555
H19_5 C28_5 1_555 1_555
C29_5 C25_5 1_555 1_555
H20_5 C29_5 1_555 1_555
C30_5 H21_5 1_555 1_555
C31_5 C23_5 1_555 1_555
C32_5 C30_5 1_555 1_555
H22_5 C32_5 1_555 1_555
C33_5 N4_3 1_555 1_555
H23_5 C33_5 1_555 1_555
C34_5 C31_5 1_555 1_555
H24_5 C34_5 1_555 1_555
C35_5 O3_5 1_555 1_555
H25_5 C35_5 1_555 1_555
H26_5 C35_5 1_555 1_555
H27_5 C35_5 1_555 1_555
C36_5 O4_5 1_555 1_555
H28_5 C36_5 1_555 1_555
H29_5 C36_5 1_555 1_555
H30_5 C36_5 1_555 1_555
Co3_2 N3_3 1_555 1_555
Co4_2 N4_3 1_555 1_555
C5_5 C6_5 1_555 1_555
C10_5 C11_5 1_555 1_555
C13_5 C14_5 1_555 1_555
C15_5 C16_5 1_555 1_555
C23_5 C24_5 1_555 1_555
C28_5 C29_5 1_555 1_555
C30_5 C31_5 1_555 1_555
C33_5 C34_5 1_555 1_555
O2_6 C6_6 1_555 1_555
O4_6 C24_6 1_555 1_555
N4_4 C32_6 1_555 1_555
C4_6 H1_6 1_555 1_555
C5_6 C4_6 1_555 1_555
C6_6 C1_6 1_555 1_555
C12_6 C5_6 1_555 1_555
C13_6 C12_6 1_555 1_555
H6_6 C13_6 1_555 1_555
C14_6 N2_6 1_555 1_555
C15_6 N2_6 1_555 1_555
H8_6 C15_6 1_555 1_555
C16_6 C12_6 1_555 1_555
H9_6 C16_6 1_555 1_555
C18_6 O2_6 1_555 1_555
H13_6 C18_6 1_555 1_555
H15_8 C18_6 1_555 1_555
C19_6 C1_6 1_555 1_555
C23_6 C22_6 1_555 1_555
C24_6 C19_6 1_555 1_555
C30_6 H21_6 1_555 1_555
C31_6 C23_6 1_555 1_555
C32_6 C30_6 1_555 1_555
H22_6 C32_6 1_555 1_555
C33_6 N4_4 1_555 1_555
H23_6 C33_6 1_555 1_555
C34_6 C31_6 1_555 1_555
H24_6 C34_6 1_555 1_555
C36_6 O4_6 1_555 1_555
H28_6 C36_6 1_555 1_555
H29_6 C36_6 1_555 1_555
H30_6 C36_6 1_555 1_555
Co3_2 N4_4 1_555 1_555
C5_6 C6_6 1_555 1_555
C13_6 C14_6 1_555 1_555
C15_6 C16_6 1_555 1_555
C23_6 C24_6 1_555 1_555
C30_6 C31_6 1_555 1_555
C33_6 C34_6 1_555 1_555
O1_6 C2_6 1_555 1_555
O3_6 C20_6 1_555 1_555
N5_3 C9_6 1_555 1_555
C2_6 C3_6 1_555 1_555
C7_6 C3_6 1_555 1_555
C8_6 C7_6 1_555 1_555
H2_6 C8_6 1_555 1_555
C9_6 C8_6 1_555 1_555
H3_6 C9_6 1_555 1_555
C10_6 N5_3 1_555 1_555
H4_6 C10_6 1_555 1_555
C11_6 C7_6 1_555 1_555
C17_6 O1_6 1_555 1_555
H10_6 C17_6 1_555 1_555
H11_6 C17_6 1_555 1_555
H12_6 C17_6 1_555 1_555
C21_6 C20_6 1_555 1_555
C25_6 C21_6 1_555 1_555
C26_6 C25_6 1_555 1_555
C28_6 N3_4 1_555 1_555
H19_6 C28_6 1_555 1_555
C29_6 C25_6 1_555 1_555
H20_6 C29_6 1_555 1_555
C35_6 O3_6 1_555 1_555
H25_6 C35_6 1_555 1_555
H26_6 C35_6 1_555 1_555
H27_6 C35_6 1_555 1_555
C10_6 C11_6 1_555 1_555
C28_6 C29_6 1_555 1_555
Co2_2 Cl1_6 1_555 1_555
N7_4 Co2_2 1_555 1_555
H18_6 C27_6 1_555 1_555
Co3_2 Cl1_7 1_555 1_555
Cl2_7 Co3_2 1_555 1_555
O1_7 C2_7 1_555 1_555
O2_7 C6_7 1_555 1_555
O3_7 C20_7 1_555 1_555
O4_7 C24_7 1_555 1_555
N1_4 C9_7 1_555 1_555
N2_7 Co3_2 1_555 1_555
N6_3 C27_7 1_555 1_555
N7_4 C32_7 1_555 1_555
C1_7 C2_7 1_555 1_555
C2_7 C3_7 1_555 1_555
C3_7 C4_7 1_555 1_555
C4_7 H1_7 1_555 1_555
C5_7 C4_7 1_555 1_555
C6_7 C1_7 1_555 1_555
C7_7 C3_7 1_555 1_555
C8_7 C7_7 1_555 1_555
H2_7 C8_7 1_555 1_555
C9_7 C8_7 1_555 1_555
H3_7 C9_7 1_555 1_555
C10_7 N1_4 1_555 1_555
H4_7 C10_7 1_555 1_555
C11_7 C7_7 1_555 1_555
H5_7 C11_7 1_555 1_555
C12_7 C5_7 1_555 1_555
C13_7 C12_7 1_555 1_555
H6_7 C13_7 1_555 1_555
C14_7 N2_7 1_555 1_555
H7_7 C14_7 1_555 1_555
C15_7 N2_7 1_555 1_555
H8_7 C15_7 1_555 1_555
C16_7 C12_7 1_555 1_555
H9_7 C16_7 1_555 1_555
C17_7 O1_7 1_555 1_555
H10_7 C17_7 1_555 1_555
H11_7 C17_7 1_555 1_555
H12_7 C17_7 1_555 1_555
C18_7 O2_7 1_555 1_555
H13_7 C18_7 1_555 1_555
H14_7 C18_7 1_555 1_555
H15_10 C18_7 1_555 1_555
C19_7 C1_7 1_555 1_555
C20_7 C19_7 1_555 1_555
C21_7 C20_7 1_555 1_555
C22_7 C21_7 1_555 1_555
H16_7 C22_7 1_555 1_555
C23_7 C22_7 1_555 1_555
C24_7 C19_7 1_555 1_555
C25_7 C21_7 1_555 1_555
C26_7 C25_7 1_555 1_555
H17_7 C26_7 1_555 1_555
C27_7 C26_7 1_555 1_555
H18_7 C27_7 1_555 1_555
C28_7 N6_3 1_555 1_555
H19_7 C28_7 1_555 1_555
C29_7 C25_7 1_555 1_555
H20_7 C29_7 1_555 1_555
C30_7 H21_7 1_555 1_555
C31_7 C23_7 1_555 1_555
C32_7 C30_7 1_555 1_555
H22_7 C32_7 1_555 1_555
C33_7 N7_4 1_555 1_555
H23_7 C33_7 1_555 1_555
C34_7 C31_7 1_555 1_555
H24_7 C34_7 1_555 1_555
C35_7 O3_7 1_555 1_555
H25_7 C35_7 1_555 1_555
H26_7 C35_7 1_555 1_555
H27_7 C35_7 1_555 1_555
C36_7 O4_7 1_555 1_555
H28_7 C36_7 1_555 1_555
H29_7 C36_7 1_555 1_555
H30_7 C36_7 1_555 1_555
Co4_2 N1_4 1_555 1_555
N5_4 Co3_2 1_555 1_555
C5_7 C6_7 1_555 1_555
C10_7 C11_7 1_555 1_555
C13_7 C14_7 1_555 1_555
C15_7 C16_7 1_555 1_555
C23_7 C24_7 1_555 1_555
C28_7 C29_7 1_555 1_555
C30_7 C31_7 1_555 1_555
C33_7 C34_7 1_555 1_555
O1_8 C2_8 1_555 1_555
O3_8 C20_8 1_555 1_555
N5_4 C9_8 1_555 1_555
C2_8 C3_8 1_555 1_555
C7_8 C3_8 1_555 1_555
C8_8 C7_8 1_555 1_555
H2_8 C8_8 1_555 1_555
C9_8 C8_8 1_555 1_555
H3_8 C9_8 1_555 1_555
C10_8 N5_4 1_555 1_555
H4_8 C10_8 1_555 1_555
C11_8 C7_8 1_555 1_555
C17_8 O1_8 1_555 1_555
H10_8 C17_8 1_555 1_555
H11_8 C17_8 1_555 1_555
H12_8 C17_8 1_555 1_555
C21_8 C20_8 1_555 1_555
C25_8 C21_8 1_555 1_555
C26_8 C25_8 1_555 1_555
C28_8 N6_4 1_555 1_555
H19_8 C28_8 1_555 1_555
C29_8 C25_8 1_555 1_555
H20_8 C29_8 1_555 1_555
C35_8 O3_8 1_555 1_555
H25_8 C35_8 1_555 1_555
H26_8 C35_8 1_555 1_555
H27_8 C35_8 1_555 1_555
C10_8 C11_8 1_555 1_555
C28_8 C29_8 1_555 1_555
O2_8 C6_8 1_555 1_555
O4_8 C24_8 1_555 1_555
N7_3 C32_8 1_555 1_555
C4_8 H1_8 1_555 1_555
C5_8 C4_8 1_555 1_555
C6_8 C1_8 1_555 1_555
C12_8 C5_8 1_555 1_555
C13_8 C12_8 1_555 1_555
H6_8 C13_8 1_555 1_555
C14_8 N2_8 1_555 1_555
C15_8 N2_8 1_555 1_555
H8_8 C15_8 1_555 1_555
C16_8 C12_8 1_555 1_555
H9_8 C16_8 1_555 1_555
C18_8 O2_8 1_555 1_555
H13_8 C18_8 1_555 1_555
H15_11 C18_8 1_555 1_555
C19_8 C1_8 1_555 1_555
C23_8 C22_8 1_555 1_555
C24_8 C19_8 1_555 1_555
C30_8 H21_8 1_555 1_555
C31_8 C23_8 1_555 1_555
C32_8 C30_8 1_555 1_555
H22_8 C32_8 1_555 1_555
C33_8 N7_3 1_555 1_555
H23_8 C33_8 1_555 1_555
C34_8 C31_8 1_555 1_555
H24_8 C34_8 1_555 1_555
C36_8 O4_8 1_555 1_555
H28_8 C36_8 1_555 1_555
H29_8 C36_8 1_555 1_555
H30_8 C36_8 1_555 1_555
C5_8 C6_8 1_555 1_555
C13_8 C14_8 1_555 1_555
C15_8 C16_8 1_555 1_555
C23_8 C24_8 1_555 1_555
C30_8 C31_8 1_555 1_555
C33_8 C34_8 1_555 1_555
H18_8 C27_8 1_555 1_555
Co4_2 Cl1_8 1_555 1_555

#END
