
###############################################################################
#
# This file contains modified crystal structure data generated from the
# MOF subset of the Cambridge Structural Database (CSD) v543 
# hosted by the Cambridge Crystallographic Data Centre (CCDC).
#
# This work is licensed under the Creative Commons
# Attribution-NonCommercial-ShareAlike 4.0 International License.
# To view a copy of this license, visit
# http://creativecommons.org/licenses/by-nc-sa/4.0/
# or send a letter to
# Creative Commons, PO Box 1866, Mountain View, CA 94042, USA.
#
# CIF created using the CSD Python API on 29 September 2022
# The structure has been converted into the P1 space group
# The structure has a 3D framework
# The original CSD entry KOXFUA is in the monoclinic crystal system
# The framework has been calculated to contain at least 10.0% void space
# The void calculation uses a probe of radius 1.32A, grid spacing 0.4
#
###############################################################################

data_KOXFUA
_chemical_formula_moiety         '(C288 H240 Cd8 Cl16 N32 O32)n'
_symmetry_cell_setting           triclinic
_symmetry_space_group_name_H-M   'P 1'
_symmetry_Int_Tables_number      1
_space_group_name_Hall           'P 1'
loop_
_symmetry_equiv_pos_site_id
_symmetry_equiv_pos_as_xyz
1 x,y,z
_cell_length_a                   18.369(4)
_cell_length_b                   17.305(4)
_cell_length_c                   28.133(6)
_cell_angle_alpha                90
_cell_angle_beta                 91.083(6)
_cell_angle_gamma                90
_cell_volume                     8941.2
loop_
_atom_site_label
_atom_site_type_symbol
_atom_site_fract_x
_atom_site_fract_y
_atom_site_fract_z
O2 O 0.77485(16) 0.08448(18) 0.29757(10)
O4 O 0.58901(15) 0.09099(18) 0.25017(10)
N2 N 0.8870(2) 0.1651(2) 0.46217(12)
N4 N 0.50631(19) 0.1981(2) 0.08476(13)
C1 C 0.4759(2) 0.1600(3) 0.11997(15)
H1 H 0.4259 0.1643 0.1235
C2 C 0.5144(2) 0.1141(3) 0.15176(15)
H2 H 0.4906 0.0899 0.1766
C3 C 0.5898(2) 0.1045(3) 0.14626(15)
C4 C 0.5788(2) 0.1919(3) 0.08047(16)
H3 H 0.6013 0.2202 0.0568
C5 C 0.6211(2) 0.1460(3) 0.10923(16)
H4 H 0.6709 0.1424 0.1042
C13 C 0.7395(2) 0.0357(3) 0.37364(15)
C14 C 0.7328(2) 0.0362(3) 0.32426(15)
C18 C 0.8477(2) 0.0551(3) 0.29053(18)
H13 H 0.8718 0.0482 0.3208
H14 H 0.8747 0.0912 0.2719
H15 H 0.8450 0.0064 0.2743
C19 C 0.7943(2) 0.0818(3) 0.40128(15)
C20 C 0.8364(2) 0.0453(3) 0.43649(16)
C21 C 0.8814(3) 0.0885(3) 0.46537(17)
H17 H 0.9095 0.0631 0.4884
C22 C 0.8482(2) 0.2002(3) 0.42749(15)
H18 H 0.8524 0.2535 0.4243
C23 C 0.8024(2) 0.1608(3) 0.39616(15)
H19 H 0.7775 0.1871 0.3721
C27 C 0.6799(2) 0.0006(3) 0.14973(15)
H20 H 0.6816 0.0048 0.1168
C28 C 0.6342(2) 0.0498(3) 0.17450(15)
C29 C 0.6340(2) 0.0445(3) 0.22383(14)
C30 C 0.6126(3) 0.1691(3) 0.25511(17)
H21 H 0.6575 0.1706 0.2731
H22 H 0.5763 0.1984 0.2713
H23 H 0.6200 0.1910 0.2242
Cd2 Cd 0.940296(17) 0.23761(2) 0.524422(11)
Cd3 Cd 0.440296(17) 0.26239(2) 0.024422(11)
Cd1 Cd 0.440296(17) 0.73761(2) 0.524422(11)
Cl1 Cl 0.54095(6) 0.62699(7) 0.53146(4)
Cl2 Cl 0.34791(6) 0.85010(7) 0.51819(4)
O1 O 0.58714(15) 0.89425(18) 0.30385(10)
O3 O 0.76135(17) 0.88547(19) 0.24634(11)
N1 N 0.5113(2) 0.8056(2) 0.46946(13)
N3 N 0.8667(2) 0.8212(2) 0.08055(13)
C6 C 0.5179(3) 0.8820(3) 0.47479(17)
H5 H 0.4930 0.9059 0.4992
C7 C 0.5602(3) 0.9271(3) 0.44546(17)
H6 H 0.5655 0.9797 0.4513
C8 C 0.5944(2) 0.8932(3) 0.40770(15)
C9 C 0.5864(3) 0.8140(3) 0.40172(16)
H7 H 0.6084 0.7890 0.3765
C10 C 0.5458(3) 0.7728(3) 0.43346(16)
H8 H 0.5422 0.7196 0.4296
C11 C 0.6409(2) 0.9418(3) 0.37710(15)
C12 C 0.6929(2) 0.9885(3) 0.39933(15)
H9 H 0.6968 0.9883 0.4323
C15 C 0.6359(2) 0.9420(3) 0.32777(15)
C16 C 0.6807(2) 0.9886(3) 0.30097(14)
C17 C 0.5115(3) 0.9163(3) 0.30876(18)
H10 H 0.5006 0.9211 0.3419
H11 H 0.4808 0.8776 0.2945
H12 H 0.5032 0.9650 0.2932
H16 H 0.8340 0.9920 0.4403
C24 C 0.6771(2) 0.9898(2) 0.24813(14)
C25 C 0.7199(2) 0.9399(3) 0.22193(15)
C26 C 0.7233(2) 0.9452(3) 0.17242(15)
C31 C 0.7281(3) 0.8096(3) 0.2464(2)
H24 H 0.6805 0.8129 0.2597
H25 H 0.7577 0.7749 0.2651
H26 H 0.7242 0.7907 0.2144
C32 C 0.7725(2) 0.8978(3) 0.14277(15)
C33 C 0.8442(3) 0.8796(3) 0.15663(16)
H27 H 0.8617 0.8922 0.1869
C34 C 0.8883(2) 0.8427(3) 0.12465(16)
H28 H 0.9361 0.8320 0.1341
C35 C 0.7972(2) 0.8359(3) 0.06825(16)
H29 H 0.7802 0.8194 0.0386
C36 C 0.7497(2) 0.8743(3) 0.09741(15)
H30 H 0.7024 0.8846 0.0868
Cd4 Cd 0.940296(17) 0.76239(2) 0.024422(11)
N5 N 0.3870(2) 0.6651(2) 0.46217(12)
N6 N 0.3667(2) 0.6788(2) 0.58055(13)
N7 N 0.50631(19) 0.8019(2) 0.58476(13)
Cl1_2 Cl 0.04095(6) 0.12699(7) 0.53146(4)
O1_2 O 0.08714(15) 0.39425(18) 0.30385(10)
O2_2 O 0.27485(16) 0.58448(18) 0.29757(10)
O3_2 O 0.26135(17) 0.38547(19) 0.24634(11)
O4_2 O 0.08901(15) 0.59099(18) 0.25017(10)
N1_2 N 0.0113(2) 0.3056(2) 0.46946(13)
N3_2 N 0.3667(2) 0.3212(2) 0.08055(13)
N4_2 N 0.00631(19) 0.6981(2) 0.08476(13)
C2_2 C 0.0144(2) 0.6141(3) 0.15176(15)
C3_2 C 0.0898(2) 0.6045(3) 0.14626(15)
C4_2 C 0.0788(2) 0.6919(3) 0.08047(16)
H3_2 H 0.1013 0.7202 0.0568
C5_2 C 0.1211(2) 0.6460(3) 0.10923(16)
H4_2 H 0.1709 0.6424 0.1042
C6_2 C 0.0179(3) 0.3820(3) 0.47479(17)
C7_2 C 0.0602(3) 0.4271(3) 0.44546(17)
H6_2 H 0.0655 0.4797 0.4513
C8_2 C 0.0944(2) 0.3932(3) 0.40770(15)
C9_2 C 0.0864(3) 0.3140(3) 0.40172(16)
H7_2 H 0.1084 0.2890 0.3765
C10_2 C 0.0458(3) 0.2728(3) 0.43346(16)
H8_2 H 0.0422 0.2196 0.4296
C11_2 C 0.1409(2) 0.4418(3) 0.37710(15)
C12_2 C 0.1929(2) 0.4885(3) 0.39933(15)
H9_2 H 0.1968 0.4883 0.4323
C13_2 C 0.2395(2) 0.5357(3) 0.37364(15)
C14_2 C 0.2328(2) 0.5362(3) 0.32426(15)
C15_2 C 0.1359(2) 0.4420(3) 0.32777(15)
C16_2 C 0.1807(2) 0.4886(3) 0.30097(14)
C17_2 C 0.0115(3) 0.4163(3) 0.30876(18)
H10_2 H 0.0006 0.4211 0.3419
H12_2 H 0.0032 0.4650 0.2932
C18_2 C 0.3477(2) 0.5551(3) 0.29053(18)
H13_2 H 0.3718 0.5482 0.3208
H14_2 H 0.3747 0.5912 0.2719
H15_2 H 0.3450 0.5064 0.2743
C19_2 C 0.2943(2) 0.5818(3) 0.40128(15)
C20_2 C 0.3364(2) 0.5453(3) 0.43649(16)
H16_2 H 0.3340 0.4920 0.4403
C21_2 C 0.3814(3) 0.5885(3) 0.46537(17)
H17_2 H 0.4095 0.5631 0.4884
C22_2 C 0.3482(2) 0.7002(3) 0.42749(15)
H18_2 H 0.3524 0.7535 0.4243
C23_2 C 0.3024(2) 0.6608(3) 0.39616(15)
H19_2 H 0.2775 0.6871 0.3721
C24_2 C 0.1771(2) 0.4898(2) 0.24813(14)
C25_2 C 0.2199(2) 0.4399(3) 0.22193(15)
C26_2 C 0.2233(2) 0.4452(3) 0.17242(15)
C27_2 C 0.1799(2) 0.5006(3) 0.14973(15)
H20_2 H 0.1816 0.5048 0.1168
C28_2 C 0.1342(2) 0.5498(3) 0.17450(15)
C29_2 C 0.1340(2) 0.5445(3) 0.22383(14)
C30_2 C 0.1126(3) 0.6691(3) 0.25511(17)
H21_2 H 0.1575 0.6706 0.2731
H22_2 H 0.0763 0.6984 0.2713
H23_2 H 0.1200 0.6910 0.2242
C31_2 C 0.2281(3) 0.3096(3) 0.2464(2)
H24_2 H 0.1805 0.3129 0.2597
H25_2 H 0.2577 0.2749 0.2651
H26_2 H 0.2242 0.2907 0.2144
C32_2 C 0.2725(2) 0.3978(3) 0.14277(15)
C33_2 C 0.3442(3) 0.3796(3) 0.15663(16)
H27_2 H 0.3617 0.3922 0.1869
C34_2 C 0.3883(2) 0.3427(3) 0.12465(16)
H28_2 H 0.4361 0.3320 0.1341
C35_2 C 0.2972(2) 0.3359(3) 0.06825(16)
H29_2 H 0.2802 0.3194 0.0386
C36_2 C 0.2497(2) 0.3743(3) 0.09741(15)
H30_2 H 0.2024 0.3846 0.0868
N7_2 N 0.00631(19) 0.3019(2) 0.58476(13)
Cl2_2 Cl 0.84791(6) 0.35010(7) 0.51819(4)
C1_2 C 0.9759(2) 0.6600(3) 0.11997(15)
H1_2 H 0.9259 0.6643 0.1235
H2_2 H 0.9906 0.5899 0.1766
H5_2 H 0.9930 0.4059 0.4992
H11_2 H 0.9808 0.3776 0.2945
N6_2 N 0.8667(2) 0.1788(2) 0.58055(13)
Cl1_3 Cl 0.54095(6) 0.37301(7) 0.03146(4)
Cl2_3 Cl 0.34791(6) 0.14990(7) 0.01819(4)
O1_3 O 0.58714(15) 0.10575(18) 0.80385(10)
O3_3 O 0.76135(17) 0.11453(19) 0.74634(11)
N1_3 N 0.5113(2) 0.1944(2) 0.96946(13)
C6_3 C 0.5179(3) 0.1180(3) 0.97479(17)
H5_3 H 0.4930 0.0941 0.9992
C7_3 C 0.5602(3) 0.0729(3) 0.94546(17)
H6_3 H 0.5655 0.0203 0.9513
C8_3 C 0.5944(2) 0.1068(3) 0.90770(15)
C9_3 C 0.5864(3) 0.1860(3) 0.90172(16)
H7_3 H 0.6084 0.2110 0.8765
C10_3 C 0.5458(3) 0.2272(3) 0.93346(16)
H8_3 H 0.5422 0.2804 0.9296
C11_3 C 0.6409(2) 0.0582(3) 0.87710(15)
C12_3 C 0.6929(2) 0.0115(3) 0.89933(15)
H9_3 H 0.6968 0.0117 0.9323
C15_3 C 0.6359(2) 0.0580(3) 0.82777(15)
C16_3 C 0.6807(2) 0.0114(3) 0.80097(14)
C17_3 C 0.5115(3) 0.0837(3) 0.80876(18)
H10_3 H 0.5006 0.0789 0.8419
H11_3 H 0.4808 0.1224 0.7945
H12_3 H 0.5032 0.0350 0.7932
H16_3 H 0.8340 0.0080 0.9403
C24_3 C 0.6771(2) 0.0102(2) 0.74813(14)
C25_3 C 0.7199(2) 0.0601(3) 0.72193(15)
C26_3 C 0.7233(2) 0.0548(3) 0.67242(15)
C31_3 C 0.7281(3) 0.1904(3) 0.7464(2)
H24_3 H 0.6805 0.1871 0.7597
H25_3 H 0.7577 0.2251 0.7651
H26_3 H 0.7242 0.2093 0.7144
C32_3 C 0.7725(2) 0.1022(3) 0.64277(15)
C33_3 C 0.8442(3) 0.1204(3) 0.65663(16)
H27_3 H 0.8617 0.1078 0.6869
C34_3 C 0.8883(2) 0.1573(3) 0.62465(16)
H28_3 H 0.9361 0.1680 0.6341
C35_3 C 0.7972(2) 0.1641(3) 0.56825(16)
H29_3 H 0.7802 0.1806 0.5386
C36_3 C 0.7497(2) 0.1257(3) 0.59741(15)
H30_3 H 0.7024 0.1154 0.5868
N5_2 N 0.3870(2) 0.3349(2) 0.96217(12)
O2_3 O 0.77485(16) 0.91552(18) 0.79757(10)
O4_3 O 0.58901(15) 0.90901(18) 0.75017(10)
N2_2 N 0.8870(2) 0.8349(2) 0.96217(12)
C1_3 C 0.4759(2) 0.8400(3) 0.61997(15)
H1_3 H 0.4259 0.8357 0.6235
C2_3 C 0.5144(2) 0.8859(3) 0.65176(15)
H2_3 H 0.4906 0.9101 0.6766
C3_3 C 0.5898(2) 0.8955(3) 0.64626(15)
C4_3 C 0.5788(2) 0.8081(3) 0.58047(16)
H3_3 H 0.6013 0.7798 0.5568
C5_3 C 0.6211(2) 0.8540(3) 0.60923(16)
H4_3 H 0.6709 0.8576 0.6042
C13_3 C 0.7395(2) 0.9643(3) 0.87364(15)
C14_3 C 0.7328(2) 0.9638(3) 0.82426(15)
C18_3 C 0.8477(2) 0.9449(3) 0.79053(18)
H13_3 H 0.8718 0.9518 0.8208
H14_3 H 0.8747 0.9088 0.7719
H15_3 H 0.8450 0.9936 0.7743
C19_3 C 0.7943(2) 0.9182(3) 0.90128(15)
C20_3 C 0.8364(2) 0.9547(3) 0.93649(16)
C21_3 C 0.8814(3) 0.9115(3) 0.96537(17)
H17_3 H 0.9095 0.9369 0.9884
C22_3 C 0.8482(2) 0.7998(3) 0.92749(15)
H18_3 H 0.8524 0.7465 0.9243
C23_3 C 0.8024(2) 0.8392(3) 0.89616(15)
H19_3 H 0.7775 0.8129 0.8721
C27_3 C 0.6799(2) 0.9994(3) 0.64973(15)
H20_3 H 0.6816 0.9952 0.6168
C28_3 C 0.6342(2) 0.9502(3) 0.67450(15)
C29_3 C 0.6340(2) 0.9555(3) 0.72383(14)
C30_3 C 0.6126(3) 0.8309(3) 0.75511(17)
H21_3 H 0.6575 0.8294 0.7731
H22_3 H 0.5763 0.8016 0.7713
H23_3 H 0.6200 0.8090 0.7242
Cl1_4 Cl 0.04095(6) 0.87301(7) 0.03146(4)
O1_4 O 0.08714(15) 0.60575(18) 0.80385(10)
O2_4 O 0.27485(16) 0.41552(18) 0.79757(10)
O3_4 O 0.26135(17) 0.61453(19) 0.74634(11)
O4_4 O 0.08901(15) 0.40901(18) 0.75017(10)
N1_4 N 0.0113(2) 0.6944(2) 0.96946(13)
C2_4 C 0.0144(2) 0.3859(3) 0.65176(15)
C3_4 C 0.0898(2) 0.3955(3) 0.64626(15)
C4_4 C 0.0788(2) 0.3081(3) 0.58047(16)
H3_4 H 0.1013 0.2798 0.5568
C5_4 C 0.1211(2) 0.3540(3) 0.60923(16)
H4_4 H 0.1709 0.3576 0.6042
C6_4 C 0.0179(3) 0.6180(3) 0.97479(17)
C7_4 C 0.0602(3) 0.5729(3) 0.94546(17)
H6_4 H 0.0655 0.5203 0.9513
C8_4 C 0.0944(2) 0.6068(3) 0.90770(15)
C9_4 C 0.0864(3) 0.6860(3) 0.90172(16)
H7_4 H 0.1084 0.7110 0.8765
C10_4 C 0.0458(3) 0.7272(3) 0.93346(16)
H8_4 H 0.0422 0.7804 0.9296
C11_4 C 0.1409(2) 0.5582(3) 0.87710(15)
C12_4 C 0.1929(2) 0.5115(3) 0.89933(15)
H9_4 H 0.1968 0.5117 0.9323
C13_4 C 0.2395(2) 0.4643(3) 0.87364(15)
C14_4 C 0.2328(2) 0.4638(3) 0.82426(15)
C15_4 C 0.1359(2) 0.5580(3) 0.82777(15)
C16_4 C 0.1807(2) 0.5114(3) 0.80097(14)
C17_4 C 0.0115(3) 0.5837(3) 0.80876(18)
H10_4 H 0.0006 0.5789 0.8419
H12_4 H 0.0032 0.5350 0.7932
C18_4 C 0.3477(2) 0.4449(3) 0.79053(18)
H13_4 H 0.3718 0.4518 0.8208
H14_4 H 0.3747 0.4088 0.7719
H15_4 H 0.3450 0.4936 0.7743
C19_4 C 0.2943(2) 0.4182(3) 0.90128(15)
C20_4 C 0.3364(2) 0.4547(3) 0.93649(16)
H16_4 H 0.3340 0.5080 0.9403
C21_4 C 0.3814(3) 0.4115(3) 0.96537(17)
H17_4 H 0.4095 0.4369 0.9884
C22_4 C 0.3482(2) 0.2998(3) 0.92749(15)
H18_4 H 0.3524 0.2465 0.9243
C23_4 C 0.3024(2) 0.3392(3) 0.89616(15)
H19_4 H 0.2775 0.3129 0.8721
C24_4 C 0.1771(2) 0.5102(2) 0.74813(14)
C25_4 C 0.2199(2) 0.5601(3) 0.72193(15)
C26_4 C 0.2233(2) 0.5548(3) 0.67242(15)
C27_4 C 0.1799(2) 0.4994(3) 0.64973(15)
H20_4 H 0.1816 0.4952 0.6168
C28_4 C 0.1342(2) 0.4502(3) 0.67450(15)
C29_4 C 0.1340(2) 0.4555(3) 0.72383(14)
C30_4 C 0.1126(3) 0.3309(3) 0.75511(17)
H21_4 H 0.1575 0.3294 0.7731
H22_4 H 0.0763 0.3016 0.7713
H23_4 H 0.1200 0.3090 0.7242
C31_4 C 0.2281(3) 0.6904(3) 0.7464(2)
H24_4 H 0.1805 0.6871 0.7597
H25_4 H 0.2577 0.7251 0.7651
H26_4 H 0.2242 0.7093 0.7144
C32_4 C 0.2725(2) 0.6022(3) 0.64277(15)
C33_4 C 0.3442(3) 0.6204(3) 0.65663(16)
H27_4 H 0.3617 0.6078 0.6869
C34_4 C 0.3883(2) 0.6573(3) 0.62465(16)
H28_4 H 0.4361 0.6680 0.6341
C35_4 C 0.2972(2) 0.6641(3) 0.56825(16)
H29_4 H 0.2802 0.6806 0.5386
C36_4 C 0.2497(2) 0.6257(3) 0.59741(15)
H30_4 H 0.2024 0.6154 0.5868
Cl2_4 Cl 0.84791(6) 0.64990(7) 0.01819(4)
C1_4 C 0.9759(2) 0.3400(3) 0.61997(15)
H1_4 H 0.9259 0.3357 0.6235
H2_4 H 0.9906 0.4101 0.6766
H5_4 H 0.9930 0.5941 0.9992
H11_4 H 0.9808 0.6224 0.7945
O2_5 O 0.22515(16) 0.08448(18) 0.20243(10)
O4_5 O 0.41099(15) 0.09099(18) 0.24983(10)
N2_3 N 0.1130(2) 0.1651(2) 0.03783(12)
N4_3 N 0.49369(19) 0.1981(2) 0.41524(13)
C1_5 C 0.5241(2) 0.1600(3) 0.38003(15)
H1_5 H 0.5741 0.1643 0.3765
C2_5 C 0.4856(2) 0.1141(3) 0.34824(15)
H2_5 H 0.5094 0.0899 0.3234
C3_5 C 0.4102(2) 0.1045(3) 0.35374(15)
C4_5 C 0.4212(2) 0.1919(3) 0.41953(16)
H3_5 H 0.3987 0.2202 0.4432
C5_5 C 0.3789(2) 0.1460(3) 0.39077(16)
H4_5 H 0.3291 0.1424 0.3958
C13_5 C 0.2605(2) 0.0357(3) 0.12636(15)
C14_5 C 0.2672(2) 0.0362(3) 0.17574(15)
C18_5 C 0.1523(2) 0.0551(3) 0.20947(18)
H13_5 H 0.1282 0.0482 0.1792
H14_5 H 0.1253 0.0912 0.2281
H15_5 H 0.1550 0.0064 0.2257
C19_5 C 0.2057(2) 0.0818(3) 0.09872(15)
C20_5 C 0.1636(2) 0.0453(3) 0.06351(16)
C21_5 C 0.1186(3) 0.0885(3) 0.03463(17)
H17_5 H 0.0905 0.0631 0.0116
C22_5 C 0.1518(2) 0.2002(3) 0.07251(15)
H18_5 H 0.1476 0.2535 0.0757
C23_5 C 0.1976(2) 0.1608(3) 0.10384(15)
H19_5 H 0.2225 0.1871 0.1279
C27_5 C 0.3201(2) 0.0006(3) 0.35027(15)
H20_5 H 0.3184 0.0048 0.3832
C28_5 C 0.3658(2) 0.0498(3) 0.32550(15)
C29_5 C 0.3660(2) 0.0445(3) 0.27617(14)
C30_5 C 0.3874(3) 0.1691(3) 0.24489(17)
H21_5 H 0.3425 0.1706 0.2269
H22_5 H 0.4237 0.1984 0.2287
H23_5 H 0.3800 0.1910 0.2758
Cd3_2 Cd 0.559704(17) 0.26239(2) 0.475578(11)
Cd2_2 Cd 0.059704(17) 0.23761(2) 0.975578(11)
O1_5 O 0.41286(15) 0.89425(18) 0.19615(10)
O3_5 O 0.23865(17) 0.88547(19) 0.25366(11)
N1_5 N 0.4887(2) 0.8056(2) 0.03054(13)
N3_3 N 0.1333(2) 0.8212(2) 0.41945(13)
C6_5 C 0.4821(3) 0.8820(3) 0.02521(17)
H5_5 H 0.5070 0.9059 0.0008
C7_5 C 0.4398(3) 0.9271(3) 0.05454(17)
H6_5 H 0.4345 0.9797 0.0487
C8_5 C 0.4056(2) 0.8932(3) 0.09230(15)
C9_5 C 0.4136(3) 0.8140(3) 0.09828(16)
H7_5 H 0.3916 0.7890 0.1235
C10_5 C 0.4542(3) 0.7728(3) 0.06654(16)
H8_5 H 0.4578 0.7196 0.0704
C11_5 C 0.3591(2) 0.9418(3) 0.12290(15)
C12_5 C 0.3071(2) 0.9885(3) 0.10067(15)
H9_5 H 0.3032 0.9883 0.0677
C15_5 C 0.3641(2) 0.9420(3) 0.17223(15)
C16_5 C 0.3193(2) 0.9886(3) 0.19903(14)
C17_5 C 0.4885(3) 0.9163(3) 0.19124(18)
H10_5 H 0.4994 0.9211 0.1581
H11_5 H 0.5192 0.8776 0.2055
H12_5 H 0.4968 0.9650 0.2068
H16_5 H 0.1660 0.9920 0.0597
C24_5 C 0.3229(2) 0.9898(2) 0.25187(14)
C25_5 C 0.2801(2) 0.9399(3) 0.27807(15)
C26_5 C 0.2767(2) 0.9452(3) 0.32758(15)
C31_5 C 0.2719(3) 0.8096(3) 0.2536(2)
H24_5 H 0.3195 0.8129 0.2403
H25_5 H 0.2423 0.7749 0.2349
H26_5 H 0.2758 0.7907 0.2856
C32_5 C 0.2275(2) 0.8978(3) 0.35723(15)
C33_5 C 0.1558(3) 0.8796(3) 0.34337(16)
H27_5 H 0.1383 0.8922 0.3131
C34_5 C 0.1117(2) 0.8427(3) 0.37535(16)
H28_5 H 0.0639 0.8320 0.3659
C35_5 C 0.2028(2) 0.8359(3) 0.43175(16)
H29_5 H 0.2198 0.8194 0.4614
C36_5 C 0.2503(2) 0.8743(3) 0.40259(15)
H30_5 H 0.2976 0.8846 0.4132
Cd4_2 Cd 0.059704(17) 0.76239(2) 0.475578(11)
N5_3 N 0.6130(2) 0.6651(2) 0.03783(12)
Cd1_2 Cd 0.559704(17) 0.73761(2) 0.975578(11)
Cl1_5 Cl 0.45905(6) 0.62699(7) 0.96854(4)
Cl2_5 Cl 0.65209(6) 0.85010(7) 0.98181(4)
N6_3 N 0.6333(2) 0.6788(2) 0.91945(13)
N7_3 N 0.49369(19) 0.8019(2) 0.91524(13)
C1_6 C 0.0241(2) 0.6600(3) 0.38003(15)
H1_6 H 0.0741 0.6643 0.3765
H2_6 H 0.0094 0.5899 0.3234
H5_6 H 0.0070 0.4059 0.0008
H11_6 H 0.0192 0.3776 0.2055
Cl2_6 Cl 0.15209(6) 0.35010(7) 0.98181(4)
N6_4 N 0.1333(2) 0.1788(2) 0.91945(13)
O1_6 O 0.91286(15) 0.39425(18) 0.19615(10)
O2_6 O 0.72515(16) 0.58448(18) 0.20243(10)
O3_6 O 0.73865(17) 0.38547(19) 0.25366(11)
O4_6 O 0.91099(15) 0.59099(18) 0.24983(10)
N1_6 N 0.9887(2) 0.3056(2) 0.03054(13)
N3_4 N 0.6333(2) 0.3212(2) 0.41945(13)
N4_4 N 0.99369(19) 0.6981(2) 0.41524(13)
C2_6 C 0.9856(2) 0.6141(3) 0.34824(15)
C3_6 C 0.9102(2) 0.6045(3) 0.35374(15)
C4_6 C 0.9212(2) 0.6919(3) 0.41953(16)
H3_6 H 0.8987 0.7202 0.4432
C5_6 C 0.8789(2) 0.6460(3) 0.39077(16)
H4_6 H 0.8291 0.6424 0.3958
C6_6 C 0.9821(3) 0.3820(3) 0.02521(17)
C7_6 C 0.9398(3) 0.4271(3) 0.05454(17)
H6_6 H 0.9345 0.4797 0.0487
C8_6 C 0.9056(2) 0.3932(3) 0.09230(15)
C9_6 C 0.9136(3) 0.3140(3) 0.09828(16)
H7_6 H 0.8916 0.2890 0.1235
C10_6 C 0.9542(3) 0.2728(3) 0.06654(16)
H8_6 H 0.9578 0.2196 0.0704
C11_6 C 0.8591(2) 0.4418(3) 0.12290(15)
C12_6 C 0.8071(2) 0.4885(3) 0.10067(15)
H9_6 H 0.8032 0.4883 0.0677
C13_6 C 0.7605(2) 0.5357(3) 0.12636(15)
C14_6 C 0.7672(2) 0.5362(3) 0.17574(15)
C15_6 C 0.8641(2) 0.4420(3) 0.17223(15)
C16_6 C 0.8193(2) 0.4886(3) 0.19903(14)
C17_6 C 0.9885(3) 0.4163(3) 0.19124(18)
H10_6 H 0.9994 0.4211 0.1581
H12_6 H 0.9968 0.4650 0.2068
C18_6 C 0.6523(2) 0.5551(3) 0.20947(18)
H13_6 H 0.6282 0.5482 0.1792
H14_6 H 0.6253 0.5912 0.2281
H15_6 H 0.6550 0.5064 0.2257
C19_6 C 0.7057(2) 0.5818(3) 0.09872(15)
C20_6 C 0.6636(2) 0.5453(3) 0.06351(16)
H16_6 H 0.6660 0.4920 0.0597
C21_6 C 0.6186(3) 0.5885(3) 0.03463(17)
H17_6 H 0.5905 0.5631 0.0116
C22_6 C 0.6518(2) 0.7002(3) 0.07251(15)
H18_6 H 0.6476 0.7535 0.0757
C23_6 C 0.6976(2) 0.6608(3) 0.10384(15)
H19_6 H 0.7225 0.6871 0.1279
C24_6 C 0.8229(2) 0.4898(2) 0.25187(14)
C25_6 C 0.7801(2) 0.4399(3) 0.27807(15)
C26_6 C 0.7767(2) 0.4452(3) 0.32758(15)
C27_6 C 0.8201(2) 0.5006(3) 0.35027(15)
H20_6 H 0.8184 0.5048 0.3832
C28_6 C 0.8658(2) 0.5498(3) 0.32550(15)
C29_6 C 0.8660(2) 0.5445(3) 0.27617(14)
C30_6 C 0.8874(3) 0.6691(3) 0.24489(17)
H21_6 H 0.8425 0.6706 0.2269
H22_6 H 0.9237 0.6984 0.2287
H23_6 H 0.8800 0.6910 0.2758
C31_6 C 0.7719(3) 0.3096(3) 0.2536(2)
H24_6 H 0.8195 0.3129 0.2403
H25_6 H 0.7423 0.2749 0.2349
H26_6 H 0.7758 0.2907 0.2856
C32_6 C 0.7275(2) 0.3978(3) 0.35723(15)
C33_6 C 0.6558(3) 0.3796(3) 0.34337(16)
H27_6 H 0.6383 0.3922 0.3131
C34_6 C 0.6117(2) 0.3427(3) 0.37535(16)
H28_6 H 0.5639 0.3320 0.3659
C35_6 C 0.7028(2) 0.3359(3) 0.43175(16)
H29_6 H 0.7198 0.3194 0.4614
C36_6 C 0.7503(2) 0.3743(3) 0.40259(15)
H30_6 H 0.7976 0.3846 0.4132
Cl1_6 Cl 0.95905(6) 0.12699(7) 0.96854(4)
N7_4 N 0.99369(19) 0.3019(2) 0.91524(13)
Cl1_7 Cl 0.45905(6) 0.37301(7) 0.46854(4)
Cl2_7 Cl 0.65209(6) 0.14990(7) 0.48181(4)
O1_7 O 0.41286(15) 0.10575(18) 0.69615(10)
O3_7 O 0.23865(17) 0.11453(19) 0.75366(11)
N1_7 N 0.4887(2) 0.1944(2) 0.53054(13)
C6_7 C 0.4821(3) 0.1180(3) 0.52521(17)
H5_7 H 0.5070 0.0941 0.5008
C7_7 C 0.4398(3) 0.0729(3) 0.55454(17)
H6_7 H 0.4345 0.0203 0.5487
C8_7 C 0.4056(2) 0.1068(3) 0.59230(15)
C9_7 C 0.4136(3) 0.1860(3) 0.59828(16)
H7_7 H 0.3916 0.2110 0.6235
C10_7 C 0.4542(3) 0.2272(3) 0.56654(16)
H8_7 H 0.4578 0.2804 0.5704
C11_7 C 0.3591(2) 0.0582(3) 0.62290(15)
C12_7 C 0.3071(2) 0.0115(3) 0.60067(15)
H9_7 H 0.3032 0.0117 0.5677
C15_7 C 0.3641(2) 0.0580(3) 0.67223(15)
C16_7 C 0.3193(2) 0.0114(3) 0.69903(14)
C17_7 C 0.4885(3) 0.0837(3) 0.69124(18)
H10_7 H 0.4994 0.0789 0.6581
H11_7 H 0.5192 0.1224 0.7055
H12_7 H 0.4968 0.0350 0.7068
H16_7 H 0.1660 0.0080 0.5597
C24_7 C 0.3229(2) 0.0102(2) 0.75187(14)
C25_7 C 0.2801(2) 0.0601(3) 0.77807(15)
C26_7 C 0.2767(2) 0.0548(3) 0.82758(15)
C31_7 C 0.2719(3) 0.1904(3) 0.7536(2)
H24_7 H 0.3195 0.1871 0.7403
H25_7 H 0.2423 0.2251 0.7349
H26_7 H 0.2758 0.2093 0.7856
C32_7 C 0.2275(2) 0.1022(3) 0.85723(15)
C33_7 C 0.1558(3) 0.1204(3) 0.84337(16)
H27_7 H 0.1383 0.1078 0.8131
C34_7 C 0.1117(2) 0.1573(3) 0.87535(16)
H28_7 H 0.0639 0.1680 0.8659
C35_7 C 0.2028(2) 0.1641(3) 0.93175(16)
H29_7 H 0.2198 0.1806 0.9614
C36_7 C 0.2503(2) 0.1257(3) 0.90259(15)
H30_7 H 0.2976 0.1154 0.9132
N5_4 N 0.6130(2) 0.3349(2) 0.53783(12)
O2_7 O 0.22515(16) 0.91552(18) 0.70243(10)
O4_7 O 0.41099(15) 0.90901(18) 0.74983(10)
N2_4 N 0.1130(2) 0.8349(2) 0.53783(12)
C1_7 C 0.5241(2) 0.8400(3) 0.88003(15)
H1_7 H 0.5741 0.8357 0.8765
C2_7 C 0.4856(2) 0.8859(3) 0.84824(15)
H2_7 H 0.5094 0.9101 0.8234
C3_7 C 0.4102(2) 0.8955(3) 0.85374(15)
C4_7 C 0.4212(2) 0.8081(3) 0.91953(16)
H3_7 H 0.3987 0.7798 0.9432
C5_7 C 0.3789(2) 0.8540(3) 0.89077(16)
H4_7 H 0.3291 0.8576 0.8958
C13_7 C 0.2605(2) 0.9643(3) 0.62636(15)
C14_7 C 0.2672(2) 0.9638(3) 0.67574(15)
C18_7 C 0.1523(2) 0.9449(3) 0.70947(18)
H13_7 H 0.1282 0.9518 0.6792
H14_7 H 0.1253 0.9088 0.7281
H15_7 H 0.1550 0.9936 0.7257
C19_7 C 0.2057(2) 0.9182(3) 0.59872(15)
C20_7 C 0.1636(2) 0.9547(3) 0.56351(16)
C21_7 C 0.1186(3) 0.9115(3) 0.53463(17)
H17_7 H 0.0905 0.9369 0.5116
C22_7 C 0.1518(2) 0.7998(3) 0.57251(15)
H18_7 H 0.1476 0.7465 0.5757
C23_7 C 0.1976(2) 0.8392(3) 0.60384(15)
H19_7 H 0.2225 0.8129 0.6279
C27_7 C 0.3201(2) 0.9994(3) 0.85027(15)
H20_7 H 0.3184 0.9952 0.8832
C28_7 C 0.3658(2) 0.9502(3) 0.82550(15)
C29_7 C 0.3660(2) 0.9555(3) 0.77617(14)
C30_7 C 0.3874(3) 0.8309(3) 0.74489(17)
H21_7 H 0.3425 0.8294 0.7269
H22_7 H 0.4237 0.8016 0.7287
H23_7 H 0.3800 0.8090 0.7758
Cl2_8 Cl 0.15209(6) 0.64990(7) 0.48181(4)
C1_8 C 0.0241(2) 0.3400(3) 0.88003(15)
H1_8 H 0.0741 0.3357 0.8765
H2_8 H 0.0094 0.4101 0.8234
H5_8 H 0.0070 0.5941 0.5008
H11_8 H 0.0192 0.6224 0.7055
Cl1_8 Cl 0.95905(6) 0.87301(7) 0.46854(4)
O1_8 O 0.91286(15) 0.60575(18) 0.69615(10)
O2_8 O 0.72515(16) 0.41552(18) 0.70243(10)
O3_8 O 0.73865(17) 0.61453(19) 0.75366(11)
O4_8 O 0.91099(15) 0.40901(18) 0.74983(10)
N1_8 N 0.9887(2) 0.6944(2) 0.53054(13)
C2_8 C 0.9856(2) 0.3859(3) 0.84824(15)
C3_8 C 0.9102(2) 0.3955(3) 0.85374(15)
C4_8 C 0.9212(2) 0.3081(3) 0.91953(16)
H3_8 H 0.8987 0.2798 0.9432
C5_8 C 0.8789(2) 0.3540(3) 0.89077(16)
H4_8 H 0.8291 0.3576 0.8958
C6_8 C 0.9821(3) 0.6180(3) 0.52521(17)
C7_8 C 0.9398(3) 0.5729(3) 0.55454(17)
H6_8 H 0.9345 0.5203 0.5487
C8_8 C 0.9056(2) 0.6068(3) 0.59230(15)
C9_8 C 0.9136(3) 0.6860(3) 0.59828(16)
H7_8 H 0.8916 0.7110 0.6235
C10_8 C 0.9542(3) 0.7272(3) 0.56654(16)
H8_8 H 0.9578 0.7804 0.5704
C11_8 C 0.8591(2) 0.5582(3) 0.62290(15)
C12_8 C 0.8071(2) 0.5115(3) 0.60067(15)
H9_8 H 0.8032 0.5117 0.5677
C13_8 C 0.7605(2) 0.4643(3) 0.62636(15)
C14_8 C 0.7672(2) 0.4638(3) 0.67574(15)
C15_8 C 0.8641(2) 0.5580(3) 0.67223(15)
C16_8 C 0.8193(2) 0.5114(3) 0.69903(14)
C17_8 C 0.9885(3) 0.5837(3) 0.69124(18)
H10_8 H 0.9994 0.5789 0.6581
H12_8 H 0.9968 0.5350 0.7068
C18_8 C 0.6523(2) 0.4449(3) 0.70947(18)
H13_8 H 0.6282 0.4518 0.6792
H14_8 H 0.6253 0.4088 0.7281
H15_8 H 0.6550 0.4936 0.7257
C19_8 C 0.7057(2) 0.4182(3) 0.59872(15)
C20_8 C 0.6636(2) 0.4547(3) 0.56351(16)
H16_8 H 0.6660 0.5080 0.5597
C21_8 C 0.6186(3) 0.4115(3) 0.53463(17)
H17_8 H 0.5905 0.4369 0.5116
C22_8 C 0.6518(2) 0.2998(3) 0.57251(15)
H18_8 H 0.6476 0.2465 0.5757
C23_8 C 0.6976(2) 0.3392(3) 0.60384(15)
H19_8 H 0.7225 0.3129 0.6279
C24_8 C 0.8229(2) 0.5102(2) 0.75187(14)
C25_8 C 0.7801(2) 0.5601(3) 0.77807(15)
C26_8 C 0.7767(2) 0.5548(3) 0.82758(15)
C27_8 C 0.8201(2) 0.4994(3) 0.85027(15)
H20_8 H 0.8184 0.4952 0.8832
C28_8 C 0.8658(2) 0.4502(3) 0.82550(15)
C29_8 C 0.8660(2) 0.4555(3) 0.77617(14)
C30_8 C 0.8874(3) 0.3309(3) 0.74489(17)
H21_8 H 0.8425 0.3294 0.7269
H22_8 H 0.9237 0.3016 0.7287
H23_8 H 0.8800 0.3090 0.7758
C31_8 C 0.7719(3) 0.6904(3) 0.7536(2)
H24_8 H 0.8195 0.6871 0.7403
H25_8 H 0.7423 0.7251 0.7349
H26_8 H 0.7758 0.7093 0.7856
C32_8 C 0.7275(2) 0.6022(3) 0.85723(15)
C33_8 C 0.6558(3) 0.6204(3) 0.84337(16)
H27_8 H 0.6383 0.6078 0.8131
C34_8 C 0.6117(2) 0.6573(3) 0.87535(16)
H28_8 H 0.5639 0.6680 0.8659
C35_8 C 0.7028(2) 0.6641(3) 0.93175(16)
H29_8 H 0.7198 0.6806 0.9614
C36_8 C 0.7503(2) 0.6257(3) 0.90259(15)
H30_8 H 0.7976 0.6154 0.9132
loop_
_geom_bond_atom_site_label_1
_geom_bond_atom_site_label_2
_geom_bond_site_symmetry_1
_geom_bond_site_symmetry_2
O2 C14 1_555 1_555
O4 C29 1_555 1_555
N2 C21 1_555 1_555
N4 C1 1_555 1_555
C1 H1 1_555 1_555
C2 C1 1_555 1_555
H2 C2 1_555 1_555
C3 C2 1_555 1_555
C4 N4 1_555 1_555
H3 C4 1_555 1_555
C5 C3 1_555 1_555
H4 C5 1_555 1_555
C14 C13 1_555 1_555
C18 O2 1_555 1_555
H13 C18 1_555 1_555
H14 C18 1_555 1_555
H15 C18 1_555 1_555
C19 C13 1_555 1_555
C20 C19 1_555 1_555
C21 C20 1_555 1_555
H17 C21 1_555 1_555
C22 N2 1_555 1_555
H18 C22 1_555 1_555
C23 C19 1_555 1_555
H19 C23 1_555 1_555
H20 C27 1_555 1_555
C28 C3 1_555 1_555
C30 O4 1_555 1_555
H21 C30 1_555 1_555
H22 C30 1_555 1_555
H23 C30 1_555 1_555
Cd2 N2 1_555 1_555
Cd3 N4 1_555 1_555
C4 C5 1_555 1_555
C22 C23 1_555 1_555
C27 C28 1_555 1_555
C28 C29 1_555 1_555
Cd1 Cl1 1_555 1_555
Cl2 Cd1 1_555 1_555
O1 C15 1_555 1_555
O3 C25 1_555 1_555
N1 Cd1 1_555 1_555
N3 C34 1_555 1_555
C6 N1 1_555 1_555
H5 C6 1_555 1_555
C7 C6 1_555 1_555
H6 C7 1_555 1_555
C8 C7 1_555 1_555
C9 C8 1_555 1_555
H7 C9 1_555 1_555
C10 N1 1_555 1_555
H8 C10 1_555 1_555
C11 C8 1_555 1_555
C12 C11 1_555 1_555
H9 C12 1_555 1_555
C15 C11 1_555 1_555
C17 O1 1_555 1_555
H10 C17 1_555 1_555
H11 C17 1_555 1_555
H12 C17 1_555 1_555
C24 C16 1_555 1_555
C25 C24 1_555 1_555
C26 C25 1_555 1_555
C31 O3 1_555 1_555
H24 C31 1_555 1_555
H25 C31 1_555 1_555
H26 C31 1_555 1_555
C32 C26 1_555 1_555
C33 C32 1_555 1_555
H27 C33 1_555 1_555
C34 C33 1_555 1_555
H28 C34 1_555 1_555
C35 N3 1_555 1_555
H29 C35 1_555 1_555
C36 C32 1_555 1_555
H30 C36 1_555 1_555
Cd4 N3 1_555 1_555
N5 Cd1 1_555 1_555
N6 Cd1 1_555 1_555
N7 Cd1 1_555 1_555
C9 C10 1_555 1_555
C15 C16 1_555 1_555
C35 C36 1_555 1_555
O1_2 C15_2 1_555 1_555
O2_2 C14_2 1_555 1_555
O3_2 C25_2 1_555 1_555
O4_2 C29_2 1_555 1_555
N5 C21_2 1_555 1_555
N3_2 C34_2 1_555 1_555
C3_2 C2_2 1_555 1_555
C4_2 N4_2 1_555 1_555
H3_2 C4_2 1_555 1_555
C5_2 C3_2 1_555 1_555
H4_2 C5_2 1_555 1_555
C6_2 N1_2 1_555 1_555
C7_2 C6_2 1_555 1_555
H6_2 C7_2 1_555 1_555
C8_2 C7_2 1_555 1_555
C9_2 C8_2 1_555 1_555
H7_2 C9_2 1_555 1_555
C10_2 N1_2 1_555 1_555
H8_2 C10_2 1_555 1_555
C11_2 C8_2 1_555 1_555
C12_2 C11_2 1_555 1_555
H9_2 C12_2 1_555 1_555
C13_2 C12_2 1_555 1_555
C14_2 C13_2 1_555 1_555
C15_2 C11_2 1_555 1_555
C16_2 C14_2 1_555 1_555
C17_2 O1_2 1_555 1_555
H10_2 C17_2 1_555 1_555
H12_2 C17_2 1_555 1_555
C18_2 O2_2 1_555 1_555
H13_2 C18_2 1_555 1_555
H14_2 C18_2 1_555 1_555
H15_2 C18_2 1_555 1_555
C19_2 C13_2 1_555 1_555
C20_2 C19_2 1_555 1_555
H16_2 C20_2 1_555 1_555
C21_2 C20_2 1_555 1_555
H17_2 C21_2 1_555 1_555
C22_2 N5 1_555 1_555
H18_2 C22_2 1_555 1_555
C23_2 C19_2 1_555 1_555
H19_2 C23_2 1_555 1_555
C24_2 C16_2 1_555 1_555
C25_2 C24_2 1_555 1_555
C26_2 C25_2 1_555 1_555
C27_2 C26_2 1_555 1_555
H20_2 C27_2 1_555 1_555
C28_2 C3_2 1_555 1_555
C29_2 C24_2 1_555 1_555
C30_2 O4_2 1_555 1_555
H21_2 C30_2 1_555 1_555
H22_2 C30_2 1_555 1_555
H23_2 C30_2 1_555 1_555
C31_2 O3_2 1_555 1_555
H24_2 C31_2 1_555 1_555
H25_2 C31_2 1_555 1_555
H26_2 C31_2 1_555 1_555
C32_2 C26_2 1_555 1_555
C33_2 C32_2 1_555 1_555
H27_2 C33_2 1_555 1_555
C34_2 C33_2 1_555 1_555
H28_2 C34_2 1_555 1_555
C35_2 N3_2 1_555 1_555
H29_2 C35_2 1_555 1_555
C36_2 C32_2 1_555 1_555
H30_2 C36_2 1_555 1_555
Cd3 N3_2 1_555 1_555
C4_2 C5_2 1_555 1_555
C9_2 C10_2 1_555 1_555
C15_2 C16_2 1_555 1_555
C22_2 C23_2 1_555 1_555
C27_2 C28_2 1_555 1_555
C28_2 C29_2 1_555 1_555
C35_2 C36_2 1_555 1_555
Cl2_2 Cd2 1_555 1_555
C1_2 H1_2 1_555 1_555
N6_2 Cd2 1_555 1_555
Cd3 Cl1_3 1_555 1_555
Cl2_3 Cd3 1_555 1_555
O1_3 C15_3 1_555 1_555
O3_3 C25_3 1_555 1_555
N6_2 C34_3 1_555 1_555
C6_3 N1_3 1_555 1_555
H5_3 C6_3 1_555 1_555
C7_3 C6_3 1_555 1_555
H6_3 C7_3 1_555 1_555
C8_3 C7_3 1_555 1_555
C9_3 C8_3 1_555 1_555
H7_3 C9_3 1_555 1_555
C10_3 N1_3 1_555 1_555
H8_3 C10_3 1_555 1_555
C11_3 C8_3 1_555 1_555
C12_3 C11_3 1_555 1_555
H9_3 C12_3 1_555 1_555
C15_3 C11_3 1_555 1_555
C17_3 O1_3 1_555 1_555
H10_3 C17_3 1_555 1_555
H11_3 C17_3 1_555 1_555
H12_3 C17_3 1_555 1_555
C24_3 C16_3 1_555 1_555
C25_3 C24_3 1_555 1_555
C26_3 C25_3 1_555 1_555
C31_3 O3_3 1_555 1_555
H24_3 C31_3 1_555 1_555
H25_3 C31_3 1_555 1_555
H26_3 C31_3 1_555 1_555
C32_3 C26_3 1_555 1_555
C33_3 C32_3 1_555 1_555
H27_3 C33_3 1_555 1_555
C34_3 C33_3 1_555 1_555
H28_3 C34_3 1_555 1_555
C35_3 N6_2 1_555 1_555
H29_3 C35_3 1_555 1_555
C36_3 C32_3 1_555 1_555
H30_3 C36_3 1_555 1_555
C9_3 C10_3 1_555 1_555
C15_3 C16_3 1_555 1_555
C35_3 C36_3 1_555 1_555
O2_3 C14_3 1_555 1_555
O4_3 C29_3 1_555 1_555
N2_2 C21_3 1_555 1_555
N7 C1_3 1_555 1_555
C1_3 H1_3 1_555 1_555
C2_3 C1_3 1_555 1_555
H2_3 C2_3 1_555 1_555
C3_3 C2_3 1_555 1_555
C4_3 N7 1_555 1_555
H3_3 C4_3 1_555 1_555
C5_3 C3_3 1_555 1_555
H4_3 C5_3 1_555 1_555
C14_3 C13_3 1_555 1_555
C18_3 O2_3 1_555 1_555
H13_3 C18_3 1_555 1_555
H14_3 C18_3 1_555 1_555
H15_3 C18_3 1_555 1_555
C19_3 C13_3 1_555 1_555
C20_3 C19_3 1_555 1_555
C21_3 C20_3 1_555 1_555
H17_3 C21_3 1_555 1_555
C22_3 N2_2 1_555 1_555
H18_3 C22_3 1_555 1_555
C23_3 C19_3 1_555 1_555
H19_3 C23_3 1_555 1_555
H20_3 C27_3 1_555 1_555
C28_3 C3_3 1_555 1_555
C30_3 O4_3 1_555 1_555
H21_3 C30_3 1_555 1_555
H22_3 C30_3 1_555 1_555
H23_3 C30_3 1_555 1_555
C4_3 C5_3 1_555 1_555
C22_3 C23_3 1_555 1_555
C27_3 C28_3 1_555 1_555
C28_3 C29_3 1_555 1_555
O1_4 C15_4 1_555 1_555
O2_4 C14_4 1_555 1_555
O3_4 C25_4 1_555 1_555
O4_4 C29_4 1_555 1_555
N5_2 C21_4 1_555 1_555
N6 C34_4 1_555 1_555
C3_4 C2_4 1_555 1_555
C4_4 N7_2 1_555 1_555
H3_4 C4_4 1_555 1_555
C5_4 C3_4 1_555 1_555
H4_4 C5_4 1_555 1_555
C6_4 N1_4 1_555 1_555
C7_4 C6_4 1_555 1_555
H6_4 C7_4 1_555 1_555
C8_4 C7_4 1_555 1_555
C9_4 C8_4 1_555 1_555
H7_4 C9_4 1_555 1_555
C10_4 N1_4 1_555 1_555
H8_4 C10_4 1_555 1_555
C11_4 C8_4 1_555 1_555
C12_4 C11_4 1_555 1_555
H9_4 C12_4 1_555 1_555
C13_4 C12_4 1_555 1_555
C14_4 C13_4 1_555 1_555
C15_4 C11_4 1_555 1_555
C16_4 C14_4 1_555 1_555
C17_4 O1_4 1_555 1_555
H10_4 C17_4 1_555 1_555
H12_4 C17_4 1_555 1_555
C18_4 O2_4 1_555 1_555
H13_4 C18_4 1_555 1_555
H14_4 C18_4 1_555 1_555
H15_4 C18_4 1_555 1_555
C19_4 C13_4 1_555 1_555
C20_4 C19_4 1_555 1_555
H16_4 C20_4 1_555 1_555
C21_4 C20_4 1_555 1_555
H17_4 C21_4 1_555 1_555
C22_4 N5_2 1_555 1_555
H18_4 C22_4 1_555 1_555
C23_4 C19_4 1_555 1_555
H19_4 C23_4 1_555 1_555
C24_4 C16_4 1_555 1_555
C25_4 C24_4 1_555 1_555
C26_4 C25_4 1_555 1_555
C27_4 C26_4 1_555 1_555
H20_4 C27_4 1_555 1_555
C28_4 C3_4 1_555 1_555
C29_4 C24_4 1_555 1_555
C30_4 O4_4 1_555 1_555
H21_4 C30_4 1_555 1_555
H22_4 C30_4 1_555 1_555
H23_4 C30_4 1_555 1_555
C31_4 O3_4 1_555 1_555
H24_4 C31_4 1_555 1_555
H25_4 C31_4 1_555 1_555
H26_4 C31_4 1_555 1_555
C32_4 C26_4 1_555 1_555
C33_4 C32_4 1_555 1_555
H27_4 C33_4 1_555 1_555
C34_4 C33_4 1_555 1_555
H28_4 C34_4 1_555 1_555
C35_4 N6 1_555 1_555
H29_4 C35_4 1_555 1_555
C36_4 C32_4 1_555 1_555
H30_4 C36_4 1_555 1_555
C4_4 C5_4 1_555 1_555
C9_4 C10_4 1_555 1_555
C15_4 C16_4 1_555 1_555
C22_4 C23_4 1_555 1_555
C27_4 C28_4 1_555 1_555
C28_4 C29_4 1_555 1_555
C35_4 C36_4 1_555 1_555
Cl2_4 Cd4 1_555 1_555
C1_4 H1_4 1_555 1_555
O2_5 C14_5 1_555 1_555
O4_5 C29_5 1_555 1_555
N2_3 C21_5 1_555 1_555
N4_3 C1_5 1_555 1_555
C1_5 H1_5 1_555 1_555
C2_5 C1_5 1_555 1_555
H2_5 C2_5 1_555 1_555
C3_5 C2_5 1_555 1_555
C4_5 N4_3 1_555 1_555
H3_5 C4_5 1_555 1_555
C5_5 C3_5 1_555 1_555
H4_5 C5_5 1_555 1_555
C14_5 C13_5 1_555 1_555
C18_5 O2_5 1_555 1_555
H13_5 C18_5 1_555 1_555
H14_5 C18_5 1_555 1_555
H15_5 C18_5 1_555 1_555
C19_5 C13_5 1_555 1_555
C20_5 C19_5 1_555 1_555
C21_5 C20_5 1_555 1_555
H17_5 C21_5 1_555 1_555
C22_5 N2_3 1_555 1_555
H18_5 C22_5 1_555 1_555
C23_5 C19_5 1_555 1_555
H19_5 C23_5 1_555 1_555
H20_5 C27_5 1_555 1_555
C28_5 C3_5 1_555 1_555
C30_5 O4_5 1_555 1_555
H21_5 C30_5 1_555 1_555
H22_5 C30_5 1_555 1_555
H23_5 C30_5 1_555 1_555
Cd3_2 N4_3 1_555 1_555
C4_5 C5_5 1_555 1_555
C22_5 C23_5 1_555 1_555
C27_5 C28_5 1_555 1_555
C28_5 C29_5 1_555 1_555
O1_5 C15_5 1_555 1_555
O3_5 C25_5 1_555 1_555
N3_3 C34_5 1_555 1_555
C6_5 N1_5 1_555 1_555
H5_5 C6_5 1_555 1_555
C7_5 C6_5 1_555 1_555
H6_5 C7_5 1_555 1_555
C8_5 C7_5 1_555 1_555
C9_5 C8_5 1_555 1_555
H7_5 C9_5 1_555 1_555
C10_5 N1_5 1_555 1_555
H8_5 C10_5 1_555 1_555
C11_5 C8_5 1_555 1_555
C12_5 C11_5 1_555 1_555
H9_5 C12_5 1_555 1_555
C15_5 C11_5 1_555 1_555
C17_5 O1_5 1_555 1_555
H10_5 C17_5 1_555 1_555
H11_5 C17_5 1_555 1_555
H12_5 C17_5 1_555 1_555
C24_5 C16_5 1_555 1_555
C25_5 C24_5 1_555 1_555
C26_5 C25_5 1_555 1_555
C31_5 O3_5 1_555 1_555
H24_5 C31_5 1_555 1_555
H25_5 C31_5 1_555 1_555
H26_5 C31_5 1_555 1_555
C32_5 C26_5 1_555 1_555
C33_5 C32_5 1_555 1_555
H27_5 C33_5 1_555 1_555
C34_5 C33_5 1_555 1_555
H28_5 C34_5 1_555 1_555
C35_5 N3_3 1_555 1_555
H29_5 C35_5 1_555 1_555
C36_5 C32_5 1_555 1_555
H30_5 C36_5 1_555 1_555
Cd4_2 N3_3 1_555 1_555
C9_5 C10_5 1_555 1_555
C15_5 C16_5 1_555 1_555
C35_5 C36_5 1_555 1_555
Cd1_2 Cl1_5 1_555 1_555
Cl2_5 Cd1_2 1_555 1_555
N6_3 Cd1_2 1_555 1_555
N7_3 Cd1_2 1_555 1_555
C1_6 H1_6 1_555 1_555
Cl2_6 Cd2_2 1_555 1_555
N6_4 Cd2_2 1_555 1_555
O1_6 C15_6 1_555 1_555
O2_6 C14_6 1_555 1_555
O3_6 C25_6 1_555 1_555
O4_6 C29_6 1_555 1_555
N5_3 C21_6 1_555 1_555
N3_4 C34_6 1_555 1_555
C3_6 C2_6 1_555 1_555
C4_6 N4_4 1_555 1_555
H3_6 C4_6 1_555 1_555
C5_6 C3_6 1_555 1_555
H4_6 C5_6 1_555 1_555
C6_6 N1_6 1_555 1_555
C7_6 C6_6 1_555 1_555
H6_6 C7_6 1_555 1_555
C8_6 C7_6 1_555 1_555
C9_6 C8_6 1_555 1_555
H7_6 C9_6 1_555 1_555
C10_6 N1_6 1_555 1_555
H8_6 C10_6 1_555 1_555
C11_6 C8_6 1_555 1_555
C12_6 C11_6 1_555 1_555
H9_6 C12_6 1_555 1_555
C13_6 C12_6 1_555 1_555
C14_6 C13_6 1_555 1_555
C15_6 C11_6 1_555 1_555
C16_6 C14_6 1_555 1_555
C17_6 O1_6 1_555 1_555
H10_6 C17_6 1_555 1_555
H12_6 C17_6 1_555 1_555
C18_6 O2_6 1_555 1_555
H13_6 C18_6 1_555 1_555
H14_6 C18_6 1_555 1_555
H15_6 C18_6 1_555 1_555
C19_6 C13_6 1_555 1_555
C20_6 C19_6 1_555 1_555
H16_6 C20_6 1_555 1_555
C21_6 C20_6 1_555 1_555
H17_6 C21_6 1_555 1_555
C22_6 N5_3 1_555 1_555
H18_6 C22_6 1_555 1_555
C23_6 C19_6 1_555 1_555
H19_6 C23_6 1_555 1_555
C24_6 C16_6 1_555 1_555
C25_6 C24_6 1_555 1_555
C26_6 C25_6 1_555 1_555
C27_6 C26_6 1_555 1_555
H20_6 C27_6 1_555 1_555
C28_6 C3_6 1_555 1_555
C29_6 C24_6 1_555 1_555
C30_6 O4_6 1_555 1_555
H21_6 C30_6 1_555 1_555
H22_6 C30_6 1_555 1_555
H23_6 C30_6 1_555 1_555
C31_6 O3_6 1_555 1_555
H24_6 C31_6 1_555 1_555
H25_6 C31_6 1_555 1_555
H26_6 C31_6 1_555 1_555
C32_6 C26_6 1_555 1_555
C33_6 C32_6 1_555 1_555
H27_6 C33_6 1_555 1_555
C34_6 C33_6 1_555 1_555
H28_6 C34_6 1_555 1_555
C35_6 N3_4 1_555 1_555
H29_6 C35_6 1_555 1_555
C36_6 C32_6 1_555 1_555
H30_6 C36_6 1_555 1_555
Cd3_2 N3_4 1_555 1_555
C4_6 C5_6 1_555 1_555
C9_6 C10_6 1_555 1_555
C15_6 C16_6 1_555 1_555
C22_6 C23_6 1_555 1_555
C27_6 C28_6 1_555 1_555
C28_6 C29_6 1_555 1_555
C35_6 C36_6 1_555 1_555
Cd3_2 Cl1_7 1_555 1_555
Cl2_7 Cd3_2 1_555 1_555
O1_7 C15_7 1_555 1_555
O3_7 C25_7 1_555 1_555
N1_7 Cd3_2 1_555 1_555
N6_4 C34_7 1_555 1_555
C6_7 N1_7 1_555 1_555
H5_7 C6_7 1_555 1_555
C7_7 C6_7 1_555 1_555
H6_7 C7_7 1_555 1_555
C8_7 C7_7 1_555 1_555
C9_7 C8_7 1_555 1_555
H7_7 C9_7 1_555 1_555
C10_7 N1_7 1_555 1_555
H8_7 C10_7 1_555 1_555
C11_7 C8_7 1_555 1_555
C12_7 C11_7 1_555 1_555
H9_7 C12_7 1_555 1_555
C15_7 C11_7 1_555 1_555
C17_7 O1_7 1_555 1_555
H10_7 C17_7 1_555 1_555
H11_7 C17_7 1_555 1_555
H12_7 C17_7 1_555 1_555
C24_7 C16_7 1_555 1_555
C25_7 C24_7 1_555 1_555
C26_7 C25_7 1_555 1_555
C31_7 O3_7 1_555 1_555
H24_7 C31_7 1_555 1_555
H25_7 C31_7 1_555 1_555
H26_7 C31_7 1_555 1_555
C32_7 C26_7 1_555 1_555
C33_7 C32_7 1_555 1_555
H27_7 C33_7 1_555 1_555
C34_7 C33_7 1_555 1_555
H28_7 C34_7 1_555 1_555
C35_7 N6_4 1_555 1_555
H29_7 C35_7 1_555 1_555
C36_7 C32_7 1_555 1_555
H30_7 C36_7 1_555 1_555
N5_4 Cd3_2 1_555 1_555
C9_7 C10_7 1_555 1_555
C15_7 C16_7 1_555 1_555
C35_7 C36_7 1_555 1_555
O2_7 C14_7 1_555 1_555
O4_7 C29_7 1_555 1_555
N2_4 C21_7 1_555 1_555
N7_3 C1_7 1_555 1_555
C1_7 H1_7 1_555 1_555
C2_7 C1_7 1_555 1_555
H2_7 C2_7 1_555 1_555
C3_7 C2_7 1_555 1_555
C4_7 N7_3 1_555 1_555
H3_7 C4_7 1_555 1_555
C5_7 C3_7 1_555 1_555
H4_7 C5_7 1_555 1_555
C14_7 C13_7 1_555 1_555
C18_7 O2_7 1_555 1_555
H13_7 C18_7 1_555 1_555
H14_7 C18_7 1_555 1_555
H15_7 C18_7 1_555 1_555
C19_7 C13_7 1_555 1_555
C20_7 C19_7 1_555 1_555
C21_7 C20_7 1_555 1_555
H17_7 C21_7 1_555 1_555
C22_7 N2_4 1_555 1_555
H18_7 C22_7 1_555 1_555
C23_7 C19_7 1_555 1_555
H19_7 C23_7 1_555 1_555
H20_7 C27_7 1_555 1_555
C28_7 C3_7 1_555 1_555
C30_7 O4_7 1_555 1_555
H21_7 C30_7 1_555 1_555
H22_7 C30_7 1_555 1_555
H23_7 C30_7 1_555 1_555
Cd4_2 N2_4 1_555 1_555
C4_7 C5_7 1_555 1_555
C22_7 C23_7 1_555 1_555
C27_7 C28_7 1_555 1_555
C28_7 C29_7 1_555 1_555
Cl2_8 Cd4_2 1_555 1_555
C1_8 H1_8 1_555 1_555
O1_8 C15_8 1_555 1_555
O2_8 C14_8 1_555 1_555
O3_8 C25_8 1_555 1_555
O4_8 C29_8 1_555 1_555
N5_4 C21_8 1_555 1_555
N6_3 C34_8 1_555 1_555
C3_8 C2_8 1_555 1_555
C4_8 N7_4 1_555 1_555
H3_8 C4_8 1_555 1_555
C5_8 C3_8 1_555 1_555
H4_8 C5_8 1_555 1_555
C6_8 N1_8 1_555 1_555
C7_8 C6_8 1_555 1_555
H6_8 C7_8 1_555 1_555
C8_8 C7_8 1_555 1_555
C9_8 C8_8 1_555 1_555
H7_8 C9_8 1_555 1_555
C10_8 N1_8 1_555 1_555
H8_8 C10_8 1_555 1_555
C11_8 C8_8 1_555 1_555
C12_8 C11_8 1_555 1_555
H9_8 C12_8 1_555 1_555
C13_8 C12_8 1_555 1_555
C14_8 C13_8 1_555 1_555
C15_8 C11_8 1_555 1_555
C16_8 C14_8 1_555 1_555
C17_8 O1_8 1_555 1_555
H10_8 C17_8 1_555 1_555
H12_8 C17_8 1_555 1_555
C18_8 O2_8 1_555 1_555
H13_8 C18_8 1_555 1_555
H14_8 C18_8 1_555 1_555
H15_8 C18_8 1_555 1_555
C19_8 C13_8 1_555 1_555
C20_8 C19_8 1_555 1_555
H16_8 C20_8 1_555 1_555
C21_8 C20_8 1_555 1_555
H17_8 C21_8 1_555 1_555
C22_8 N5_4 1_555 1_555
H18_8 C22_8 1_555 1_555
C23_8 C19_8 1_555 1_555
H19_8 C23_8 1_555 1_555
C24_8 C16_8 1_555 1_555
C25_8 C24_8 1_555 1_555
C26_8 C25_8 1_555 1_555
C27_8 C26_8 1_555 1_555
H20_8 C27_8 1_555 1_555
C28_8 C3_8 1_555 1_555
C29_8 C24_8 1_555 1_555
C30_8 O4_8 1_555 1_555
H21_8 C30_8 1_555 1_555
H22_8 C30_8 1_555 1_555
H23_8 C30_8 1_555 1_555
C31_8 O3_8 1_555 1_555
H24_8 C31_8 1_555 1_555
H25_8 C31_8 1_555 1_555
H26_8 C31_8 1_555 1_555
C32_8 C26_8 1_555 1_555
C33_8 C32_8 1_555 1_555
H27_8 C33_8 1_555 1_555
C34_8 C33_8 1_555 1_555
H28_8 C34_8 1_555 1_555
C35_8 N6_3 1_555 1_555
H29_8 C35_8 1_555 1_555
C36_8 C32_8 1_555 1_555
H30_8 C36_8 1_555 1_555
C4_8 C5_8 1_555 1_555
C9_8 C10_8 1_555 1_555
C15_8 C16_8 1_555 1_555
C22_8 C23_8 1_555 1_555
C27_8 C28_8 1_555 1_555
C28_8 C29_8 1_555 1_555
C35_8 C36_8 1_555 1_555

#END
