
###############################################################################
#
# This file contains modified crystal structure data generated from the
# MOF subset of the Cambridge Structural Database (CSD) v543 
# hosted by the Cambridge Crystallographic Data Centre (CCDC).
#
# This work is licensed under the Creative Commons
# Attribution-NonCommercial-ShareAlike 4.0 International License.
# To view a copy of this license, visit
# http://creativecommons.org/licenses/by-nc-sa/4.0/
# or send a letter to
# Creative Commons, PO Box 1866, Mountain View, CA 94042, USA.
#
# CIF created using the CSD Python API on 29 September 2022
# The structure has been converted into the P1 space group
# The structure has a 3D framework
# The original CSD entry KOXGAH is in the tetragonal crystal system
# The original CSD entry KOXGAH is in a Sohncke space group
# The framework has been calculated to contain at least 10.0% void space
# The void calculation uses a probe of radius 1.32A, grid spacing 0.4
#
###############################################################################

data_KOXGAH
_chemical_formula_moiety         '(C288 H240 Cu16 I16 N32 O32)n'
_symmetry_cell_setting           triclinic
_symmetry_space_group_name_H-M   'P 1'
_symmetry_Int_Tables_number      1
_space_group_name_Hall           'P 1'
loop_
_symmetry_equiv_pos_site_id
_symmetry_equiv_pos_as_xyz
1 x,y,z
_cell_length_a                   12.7160(10)
_cell_length_b                   12.7160(10)
_cell_length_c                   62.0780(10)
_cell_angle_alpha                90
_cell_angle_beta                 90
_cell_angle_gamma                90
_cell_volume                     10037.8
loop_
_atom_site_label
_atom_site_type_symbol
_atom_site_fract_x
_atom_site_fract_y
_atom_site_fract_z
O2 O 0.1311(4) 0.4446(6) 0.04215(8)
N2 N 0.3169(5) 0.4861(6) 0.11505(11)
C5 C 0.0414(6) 0.4670(7) 0.07592(12)
C6 C 0.0370(5) 0.4534(6) 0.05359(12)
C12 C 0.1383(7) 0.4714(7) 0.08856(13)
C13 C 0.1516(7) 0.4107(7) 0.10703(13)
H6 H 0.0995 0.3605 0.1108
C14 C 0.2389(7) 0.4224(8) 0.11991(14)
H7 H 0.2431 0.3828 0.1329
C15 C 0.3079(7) 0.5435(9) 0.09686(15)
H8 H 0.3620 0.5919 0.0933
C16 C 0.2228(7) 0.5339(8) 0.08335(13)
H9 H 0.2224 0.5713 0.0701
C18 C 0.1770(8) 0.3399(8) 0.04378(17)
H13 H 0.1833 0.3202 0.0590
H14 H 0.2469 0.3399 0.0371
H15 H 0.1318 0.2891 0.0363
C36 C 0.0417(8) 0.6823(7) 0.02135(16)
H28 H 0.0869 0.6270 0.0273
H29 H 0.0350 0.7395 0.0318
H30 H 0.0728 0.7095 0.0080
Cu5 Cu 0.44477(8) 0.50476(9) 0.134657(15)
I2 I 0.16220(5) 0.95407(5) 0.909790(9)
C26 C 0.0148(7) 0.1733(6) 0.97657(13)
H17 H 0.0620 0.1777 0.9884
C27 C 0.0170(7) 0.0862(7) 0.96238(13)
H18 H 0.0683 0.0332 0.9647
C31 C 0.0167(7) 0.6439(6) 0.95309(12)
H21 H 0.0599 0.5851 0.9498
C32 C 0.0214(7) 0.7336(6) 0.94075(12)
H22 H 0.0706 0.7359 0.9293
N6 N 0.0139(6) 0.8169(5) 0.86505(11)
N5 N 0.9976(6) 0.0729(5) 0.86434(11)
N7 N 0.9516(6) 0.0749(5) 0.94607(9)
O1 O 0.7579(4) 0.4689(5) 0.04154(8)
O3 O 0.9502(5) 0.2631(4) 0.01923(8)
O4 O 0.9410(5) 0.6402(4) 0.01689(8)
N1 N 0.5729(5) 0.5024(6) 0.11434(11)
C1 C 0.9455(6) 0.4568(5) 0.04227(11)
C2 C 0.8506(6) 0.4690(6) 0.05372(12)
C3 C 0.8514(7) 0.4773(7) 0.07568(13)
C4 C 0.9443(7) 0.4777(7) 0.08605(11)
H1 H 0.9436 0.4857 0.1013
C7 C 0.7516(6) 0.4858(7) 0.08870(13)
C8 C 0.7405(7) 0.5656(8) 0.10422(14)
H2 H 0.7942 0.6167 0.1061
C9 C 0.6521(7) 0.5689(8) 0.11642(14)
H3 H 0.6468 0.6222 0.1271
C10 C 0.5821(8) 0.4269(9) 0.09926(15)
H4 H 0.5264 0.3778 0.0977
C11 C 0.6672(7) 0.4174(8) 0.08616(15)
H5 H 0.6690 0.3646 0.0754
C17 C 0.7077(8) 0.5689(9) 0.03944(15)
H10 H 0.6773 0.5894 0.0533
H11 H 0.6518 0.5643 0.0286
H12 H 0.7595 0.6215 0.0350
C19 C 0.9448(6) 0.4514(6) 0.01806(11)
C20 C 0.9440(6) 0.3564(6) 0.00746(11)
C24 C 0.9420(6) 0.5446(6) 0.00594(12)
C35 C 0.8486(7) 0.2217(7) 0.02550(15)
H25 H 0.8107 0.2746 0.0340
H26 H 0.8585 0.1581 0.0342
H27 H 0.8078 0.2044 0.0126
I1 I 0.80180(5) 0.94362(5) 0.900866(10)
Cu1 Cu 0.97011(8) 0.94923(8) 0.925305(14)
Cu2 Cu 0.99524(9) 0.94477(8) 0.884657(15)
N4 N 0.9602(5) 0.8180(5) 0.94408(10)
C21 C 0.9399(7) 0.3517(6) 0.98477(11)
C22 C 0.9422(7) 0.4437(7) 0.97359(11)
H16 H 0.9425 0.4407 0.9583
C23 C 0.9440(6) 0.5424(6) 0.98349(12)
C25 C 0.9422(7) 0.2513(6) 0.97273(12)
C28 C 0.8798(7) 0.1485(7) 0.94262(12)
H19 H 0.8324 0.1405 0.9309
C29 C 0.8720(7) 0.2365(7) 0.95556(13)
H20 H 0.8189 0.2873 0.9528
C30 C 0.9480(7) 0.6405(6) 0.97042(12)
C33 C 0.8918(7) 0.8119(7) 0.96057(13)
H23 H 0.8460 0.8697 0.9630
C34 C 0.8847(7) 0.7273(7) 0.97398(13)
H24 H 0.8366 0.7279 0.9857
O1_2 O 0.0311(5) 0.2579(4) 0.79154(8)
O2_2 O 0.0554(6) 0.6311(4) 0.79215(8)
O3_2 O 0.2369(4) 0.4502(5) 0.76923(8)
N3 N 0.4251(5) 0.4516(6) 0.69607(9)
C1_2 C 0.0432(5) 0.4455(6) 0.79227(11)
C2_2 C 0.0310(6) 0.3506(6) 0.80372(12)
C3_2 C 0.0227(7) 0.3514(7) 0.82568(13)
C4_2 C 0.0223(7) 0.4443(7) 0.83605(11)
H1_2 H 0.0143 0.4436 0.8513
C5_2 C 0.0330(7) 0.5414(6) 0.82592(12)
C6_2 C 0.0466(6) 0.5370(5) 0.80359(12)
C7_2 C 0.0142(7) 0.2516(6) 0.83870(13)
C10_2 C 0.0731(9) 0.0821(8) 0.84926(15)
H4_2 H 0.1222 0.0264 0.8477
C11_2 C 0.0826(8) 0.1672(7) 0.83616(15)
H5_2 H 0.1354 0.1690 0.8254
C12_2 C 0.0286(7) 0.6383(7) 0.83856(13)
C13_2 C 0.0893(7) 0.6516(7) 0.85703(13)
H6_2 H 0.1395 0.5995 0.8608
C14_2 C 0.0776(8) 0.7389(7) 0.86991(14)
H7_2 H 0.1172 0.7431 0.8829
C18_2 C 0.1601(8) 0.6770(8) 0.79378(17)
H13_2 H 0.1798 0.6833 0.8090
H14_2 H 0.1601 0.7469 0.7871
H15_2 H 0.2109 0.6318 0.7863
C19_2 C 0.0486(6) 0.4448(6) 0.76806(11)
C20_2 C 0.1436(6) 0.4440(6) 0.75746(11)
C21_2 C 0.1483(6) 0.4399(7) 0.73477(11)
C22_2 C 0.0563(7) 0.4422(7) 0.72359(11)
H16_2 H 0.0593 0.4425 0.7083
C25_2 C 0.2487(6) 0.4422(7) 0.72273(12)
C26_2 C 0.3267(6) 0.5148(7) 0.72657(13)
H17_2 H 0.3223 0.5620 0.7384
C27_2 C 0.4138(7) 0.5170(7) 0.71238(13)
H18_2 H 0.4668 0.5683 0.7147
C28_2 C 0.3515(7) 0.3798(7) 0.69262(12)
H19_2 H 0.3595 0.3324 0.6809
C29_2 C 0.2635(7) 0.3720(7) 0.70556(13)
H20_2 H 0.2127 0.3189 0.7028
C35_2 C 0.2783(7) 0.3486(7) 0.77550(15)
H25_2 H 0.2254 0.3107 0.7840
H26_2 H 0.3419 0.3585 0.7842
H27_2 H 0.2956 0.3078 0.7626
Cu3 Cu 0.55077(8) 0.47011(8) 0.675305(14)
I1_2 I 0.55638(5) 0.30180(5) 0.650866(10)
I2_2 I 0.54593(5) 0.66220(5) 0.659790(9)
Cu2_2 Cu 0.55523(8) 0.49524(9) 0.634657(15)
O4_2 O 0.8598(4) 0.4410(5) 0.76689(8)
N4_2 N 0.6820(5) 0.4602(5) 0.69408(10)
C8_2 C 0.9344(8) 0.2405(7) 0.85422(14)
H2_2 H 0.8833 0.2942 0.8561
C9_2 C 0.9311(8) 0.1521(7) 0.86642(14)
H3_2 H 0.8778 0.1468 0.8771
C15_2 C 0.9565(9) 0.8079(7) 0.84686(15)
H8_2 H 0.9081 0.8620 0.8433
C16_2 C 0.9661(8) 0.7228(7) 0.83335(13)
H9_2 H 0.9287 0.7224 0.8201
C17_2 C 0.9311(9) 0.2077(8) 0.78944(15)
H10_2 H 0.9106 0.1773 0.8033
H11_2 H 0.9357 0.1518 0.7786
H12_2 H 0.8785 0.2595 0.7850
C23_2 C 0.9576(6) 0.4440(6) 0.73349(12)
C24_2 C 0.9554(6) 0.4420(6) 0.75594(12)
C30_2 C 0.8595(6) 0.4480(7) 0.72042(12)
C31_2 C 0.8561(6) 0.5167(7) 0.70309(12)
H21_2 H 0.9149 0.5599 0.6998
C32_2 C 0.7664(6) 0.5214(7) 0.69075(12)
H22_2 H 0.7641 0.5706 0.6793
C33_2 C 0.6881(7) 0.3918(7) 0.71057(13)
H23_2 H 0.6303 0.3460 0.7130
C34_2 C 0.7727(7) 0.3847(7) 0.72398(13)
H24_2 H 0.7721 0.3366 0.7357
C36_2 C 0.8177(7) 0.5417(8) 0.77135(16)
H28_2 H 0.8730 0.5869 0.7773
H29_2 H 0.7605 0.5350 0.7818
H30_2 H 0.7905 0.5728 0.7580
N5_2 N 0.4271(5) 0.4976(6) 0.61434(11)
N6_2 N 0.6831(5) 0.5139(6) 0.61505(11)
Cu3_2 Cu 0.02989(8) 0.05077(8) 0.425305(14)
I1_3 I 0.19820(5) 0.05638(5) 0.400866(10)
Cu2_3 Cu 0.00476(9) 0.05523(8) 0.384657(15)
O1_3 O 0.2421(4) 0.5311(5) 0.54154(8)
O3_3 O 0.0498(5) 0.7369(4) 0.51923(8)
O4_3 O 0.0590(5) 0.3598(4) 0.51689(8)
N3_2 N 0.0484(6) 0.9251(5) 0.44607(9)
N4_3 N 0.0398(5) 0.1820(5) 0.44408(10)
C1_3 C 0.0545(6) 0.5432(5) 0.54227(11)
C2_3 C 0.1494(6) 0.5310(6) 0.55372(12)
C3_3 C 0.1486(7) 0.5227(7) 0.57568(13)
C4_3 C 0.0557(7) 0.5223(7) 0.58605(11)
H1_3 H 0.0564 0.5143 0.6013
C7_3 C 0.2484(6) 0.5142(7) 0.58870(13)
C8_3 C 0.2595(7) 0.4344(8) 0.60422(14)
H2_3 H 0.2058 0.3833 0.6061
C9_3 C 0.3479(7) 0.4311(8) 0.61642(14)
H3_3 H 0.3532 0.3778 0.6271
C10_3 C 0.4179(8) 0.5731(9) 0.59926(15)
H4_3 H 0.4736 0.6222 0.5977
C11_3 C 0.3328(7) 0.5826(8) 0.58616(15)
H5_3 H 0.3310 0.6354 0.5754
C17_3 C 0.2923(8) 0.4311(9) 0.53944(15)
H10_3 H 0.3227 0.4106 0.5533
H11_3 H 0.3482 0.4357 0.5286
H12_3 H 0.2405 0.3785 0.5350
C19_3 C 0.0552(6) 0.5486(6) 0.51806(11)
C20_3 C 0.0560(6) 0.6436(6) 0.50746(11)
C21_3 C 0.0601(7) 0.6483(6) 0.48477(11)
C22_3 C 0.0578(7) 0.5563(7) 0.47359(11)
H16_3 H 0.0575 0.5593 0.4583
C23_3 C 0.0560(6) 0.4576(6) 0.48349(12)
C24_3 C 0.0580(6) 0.4554(6) 0.50594(12)
C25_3 C 0.0578(7) 0.7487(6) 0.47273(12)
C28_3 C 0.1202(7) 0.8515(7) 0.44262(12)
H19_3 H 0.1676 0.8595 0.4309
C29_3 C 0.1280(7) 0.7635(7) 0.45556(13)
H20_3 H 0.1811 0.7127 0.4528
C30_3 C 0.0520(7) 0.3595(6) 0.47042(12)
C33_3 C 0.1082(7) 0.1881(7) 0.46057(13)
H23_3 H 0.1540 0.1303 0.4630
C34_3 C 0.1153(7) 0.2727(7) 0.47398(13)
H24_3 H 0.1634 0.2721 0.4857
C35_3 C 0.1514(7) 0.7783(7) 0.52550(15)
H25_3 H 0.1893 0.7254 0.5340
H26_3 H 0.1415 0.8419 0.5342
H27_3 H 0.1922 0.7956 0.5126
N5_3 N 0.0024(6) 0.9271(5) 0.36434(11)
I2_3 I 0.83780(5) 0.04593(5) 0.409790(9)
O2_3 O 0.8689(4) 0.5554(6) 0.54215(8)
C5_3 C 0.9586(6) 0.5330(7) 0.57592(12)
C6_3 C 0.9630(5) 0.5466(6) 0.55359(12)
C12_3 C 0.8617(7) 0.5286(7) 0.58856(13)
C13_3 C 0.8484(7) 0.5893(7) 0.60703(13)
H6_3 H 0.9005 0.6395 0.6108
C14_3 C 0.7611(7) 0.5776(8) 0.61991(14)
H7_3 H 0.7569 0.6172 0.6329
C15_3 C 0.6921(7) 0.4565(9) 0.59686(15)
H8_3 H 0.6380 0.4081 0.5933
C16_3 C 0.7772(7) 0.4661(8) 0.58335(13)
H9_3 H 0.7776 0.4287 0.5701
C18_3 C 0.8230(8) 0.6601(8) 0.54378(17)
H13_3 H 0.8167 0.6798 0.5590
H14_3 H 0.7531 0.6601 0.5371
H15_3 H 0.8682 0.7109 0.5363
C26_3 C 0.9852(7) 0.8267(6) 0.47657(13)
H17_3 H 0.9380 0.8223 0.4884
C27_3 C 0.9830(7) 0.9138(7) 0.46238(13)
H18_3 H 0.9317 0.9668 0.4647
C31_3 C 0.9833(7) 0.3561(6) 0.45309(12)
H21_3 H 0.9401 0.4149 0.4498
C32_3 C 0.9786(7) 0.2664(6) 0.44075(12)
H22_3 H 0.9294 0.2641 0.4293
C36_3 C 0.9583(8) 0.3177(7) 0.52135(16)
H28_3 H 0.9131 0.3730 0.5273
H29_3 H 0.9650 0.2605 0.5318
H30_3 H 0.9272 0.2905 0.5080
N6_3 N 0.9861(6) 0.1831(5) 0.36505(11)
I1_4 I 0.44362(5) 0.69820(5) 0.150866(10)
I2_4 I 0.45407(5) 0.33780(5) 0.159790(9)
Cu1_2 Cu 0.44923(8) 0.52989(8) 0.175305(14)
O4_4 O 0.1402(4) 0.5590(5) 0.26689(8)
N4_4 N 0.3180(5) 0.5398(5) 0.19408(10)
C8_4 C 0.0656(8) 0.7595(7) 0.35422(14)
H2_4 H 0.1167 0.7058 0.3561
C9_4 C 0.0689(8) 0.8479(7) 0.36642(14)
H3_4 H 0.1222 0.8532 0.3771
C15_4 C 0.0435(9) 0.1921(7) 0.34686(15)
H8_4 H 0.0919 0.1380 0.3433
C16_4 C 0.0339(8) 0.2772(7) 0.33335(13)
H9_4 H 0.0713 0.2776 0.3201
C17_4 C 0.0689(9) 0.7923(8) 0.28944(15)
H10_4 H 0.0894 0.8227 0.3033
H11_4 H 0.0643 0.8482 0.2786
H12_4 H 0.1215 0.7405 0.2850
C23_4 C 0.0424(6) 0.5560(6) 0.23349(12)
C24_4 C 0.0446(6) 0.5580(6) 0.25594(12)
C30_4 C 0.1405(6) 0.5520(7) 0.22042(12)
C31_4 C 0.1439(6) 0.4833(7) 0.20309(12)
H21_4 H 0.0851 0.4401 0.1998
C32_4 C 0.2336(6) 0.4786(7) 0.19075(12)
H22_4 H 0.2359 0.4294 0.1793
C33_4 C 0.3119(7) 0.6082(7) 0.21057(13)
H23_4 H 0.3697 0.6540 0.2130
C34_4 C 0.2273(7) 0.6153(7) 0.22398(13)
H24_4 H 0.2279 0.6634 0.2357
C36_4 C 0.1823(7) 0.4583(8) 0.27135(16)
H28_4 H 0.1270 0.4131 0.2773
H29_4 H 0.2395 0.4650 0.2818
H30_4 H 0.2095 0.4272 0.2580
N7_2 N 0.5749(5) 0.5484(6) 0.19607(9)
O1_4 O 0.9689(5) 0.7421(4) 0.29154(8)
O2_4 O 0.9446(6) 0.3689(4) 0.29215(8)
O3_4 O 0.7631(4) 0.5498(5) 0.26923(8)
C1_4 C 0.9568(5) 0.5545(6) 0.29227(11)
C2_4 C 0.9690(6) 0.6494(6) 0.30372(12)
C3_4 C 0.9773(7) 0.6486(7) 0.32568(13)
C4_4 C 0.9777(7) 0.5557(7) 0.33605(11)
H1_4 H 0.9857 0.5564 0.3513
C5_4 C 0.9670(7) 0.4586(6) 0.32592(12)
C6_4 C 0.9534(6) 0.4630(5) 0.30359(12)
C7_4 C 0.9858(7) 0.7484(6) 0.33870(13)
C10_4 C 0.9269(9) 0.9179(8) 0.34926(15)
H4_4 H 0.8778 0.9736 0.3477
C11_4 C 0.9174(8) 0.8328(7) 0.33616(15)
H5_4 H 0.8646 0.8310 0.3254
C12_4 C 0.9714(7) 0.3617(7) 0.33856(13)
C13_4 C 0.9107(7) 0.3484(7) 0.35703(13)
H6_4 H 0.8605 0.4005 0.3608
C14_4 C 0.9224(8) 0.2611(7) 0.36991(14)
H7_4 H 0.8828 0.2569 0.3829
C18_4 C 0.8399(8) 0.3230(8) 0.29378(17)
H13_4 H 0.8202 0.3167 0.3090
H14_4 H 0.8399 0.2531 0.2871
H15_4 H 0.7891 0.3682 0.2863
C19_4 C 0.9514(6) 0.5552(6) 0.26806(11)
C20_4 C 0.8564(6) 0.5560(6) 0.25746(11)
C21_4 C 0.8517(6) 0.5601(7) 0.23477(11)
C22_4 C 0.9437(7) 0.5578(7) 0.22359(11)
H16_4 H 0.9407 0.5575 0.2083
C25_4 C 0.7513(6) 0.5578(7) 0.22273(12)
C26_4 C 0.6733(6) 0.4852(7) 0.22657(13)
H17_4 H 0.6777 0.4380 0.2384
C27_4 C 0.5862(7) 0.4830(7) 0.21238(13)
H18_4 H 0.5332 0.4317 0.2147
C28_4 C 0.6485(7) 0.6202(7) 0.19262(12)
H19_4 H 0.6405 0.6676 0.1809
C29_4 C 0.7365(7) 0.6280(7) 0.20556(13)
H20_4 H 0.7873 0.6811 0.2028
C35_4 C 0.7217(7) 0.6514(7) 0.27550(15)
H25_4 H 0.7746 0.6893 0.2840
H26_4 H 0.6581 0.6415 0.2842
H27_4 H 0.7044 0.6922 0.2626
O1_5 O 0.2579(4) 0.0311(5) 0.20846(8)
O2_5 O 0.6311(4) 0.0554(6) 0.20785(8)
O3_5 O 0.4502(5) 0.2369(4) 0.23077(8)
N2_2 N 0.8169(5) 0.0139(6) 0.13495(11)
N3_3 N 0.4516(6) 0.4251(5) 0.30393(9)
C1_5 C 0.4455(6) 0.0432(5) 0.20773(11)
C2_5 C 0.3506(6) 0.0310(6) 0.19628(12)
C3_5 C 0.3514(7) 0.0227(7) 0.17432(13)
C4_5 C 0.4443(7) 0.0223(7) 0.16395(11)
H1_5 H 0.4436 0.0143 0.1487
C5_5 C 0.5414(6) 0.0330(7) 0.17408(12)
C6_5 C 0.5370(5) 0.0466(6) 0.19641(12)
C7_5 C 0.2516(6) 0.0142(7) 0.16130(13)
C10_5 C 0.0821(8) 0.0731(9) 0.15074(15)
H4_5 H 0.0264 0.1222 0.1523
C11_5 C 0.1672(7) 0.0826(8) 0.16384(15)
H5_5 H 0.1690 0.1354 0.1746
C12_5 C 0.6383(7) 0.0286(7) 0.16144(13)
C13_5 C 0.6516(7) 0.0893(7) 0.14297(13)
H6_5 H 0.5995 0.1395 0.1392
C14_5 C 0.7389(7) 0.0776(8) 0.13009(14)
H7_5 H 0.7431 0.1172 0.1171
C18_5 C 0.6770(8) 0.1601(8) 0.20622(17)
H13_5 H 0.6833 0.1798 0.1910
H14_5 H 0.7469 0.1601 0.2129
H15_5 H 0.6318 0.2109 0.2137
C19_5 C 0.4448(6) 0.0486(6) 0.23194(11)
C20_5 C 0.4440(6) 0.1436(6) 0.24254(11)
C21_5 C 0.4399(7) 0.1483(6) 0.26523(11)
C22_5 C 0.4422(7) 0.0563(7) 0.27641(11)
H16_5 H 0.4425 0.0593 0.2917
C25_5 C 0.4422(7) 0.2487(6) 0.27727(12)
C26_5 C 0.5148(7) 0.3267(6) 0.27343(13)
H17_5 H 0.5620 0.3223 0.2616
C27_5 C 0.5170(7) 0.4138(7) 0.28762(13)
H18_5 H 0.5683 0.4668 0.2853
C28_5 C 0.3798(7) 0.3515(7) 0.30738(12)
H19_5 H 0.3324 0.3595 0.3191
C29_5 C 0.3720(7) 0.2635(7) 0.29444(13)
H20_5 H 0.3189 0.2127 0.2972
C35_5 C 0.3486(7) 0.2783(7) 0.22450(15)
H25_5 H 0.3107 0.2254 0.2160
H26_5 H 0.3585 0.3419 0.2158
H27_5 H 0.3078 0.2956 0.2374
Cu3_3 Cu 0.47011(8) 0.55077(8) 0.324695(14)
I1_5 I 0.30180(5) 0.55638(5) 0.349134(10)
I2_5 I 0.66220(5) 0.54593(5) 0.340210(9)
Cu2_4 Cu 0.49524(9) 0.55523(8) 0.365343(15)
O4_5 O 0.4410(5) 0.8598(4) 0.23311(8)
N1_2 N 0.0729(5) 0.9976(6) 0.13566(11)
N4_5 N 0.4602(5) 0.6820(5) 0.30592(10)
C8_5 C 0.2405(7) 0.9344(8) 0.14578(14)
H2_5 H 0.2942 0.8833 0.1439
C9_5 C 0.1521(7) 0.9311(8) 0.13358(14)
H3_5 H 0.1468 0.8778 0.1229
C15_5 C 0.8079(7) 0.9565(9) 0.15314(15)
H8_5 H 0.8620 0.9081 0.1567
C16_5 C 0.7228(7) 0.9661(8) 0.16665(13)
H9_5 H 0.7224 0.9287 0.1799
C17_5 C 0.2077(8) 0.9311(9) 0.21056(15)
H10_5 H 0.1773 0.9106 0.1967
H11_5 H 0.1518 0.9357 0.2214
H12_5 H 0.2595 0.8785 0.2150
C23_5 C 0.4440(6) 0.9576(6) 0.26651(12)
C24_5 C 0.4420(6) 0.9554(6) 0.24406(12)
C30_5 C 0.4480(7) 0.8595(6) 0.27958(12)
C31_5 C 0.5167(7) 0.8561(6) 0.29691(12)
H21_5 H 0.5599 0.9149 0.3002
C32_5 C 0.5214(7) 0.7664(6) 0.30925(12)
H22_5 H 0.5706 0.7641 0.3207
C33_5 C 0.3918(7) 0.6881(7) 0.28943(13)
H23_5 H 0.3460 0.6303 0.2870
C34_5 C 0.3847(7) 0.7727(7) 0.27602(13)
H24_5 H 0.3366 0.7721 0.2643
C36_5 C 0.5417(8) 0.8177(7) 0.22865(16)
H28_5 H 0.5869 0.8730 0.2227
H29_5 H 0.5350 0.7605 0.2182
H30_5 H 0.5728 0.7905 0.2420
Cu5_2 Cu 0.94477(8) 0.99524(9) 0.115343(15)
N5_4 N 0.4976(6) 0.4271(5) 0.38566(11)
N6_4 N 0.5139(6) 0.6831(5) 0.38495(11)
Cu4 Cu 0.05523(8) 0.00476(9) 0.615343(15)
I1_6 I 0.69820(5) 0.44362(5) 0.849134(10)
I2_6 I 0.33780(5) 0.45407(5) 0.840210(9)
Cu1_3 Cu 0.52989(8) 0.44923(8) 0.824695(14)
Cu2_5 Cu 0.50476(9) 0.44477(8) 0.865343(15)
O4_6 O 0.5590(5) 0.1402(4) 0.73311(8)
N1_3 N 0.9271(5) 0.0024(6) 0.63566(11)
N4_6 N 0.5398(5) 0.3180(5) 0.80592(10)
C8_6 C 0.7595(7) 0.0656(8) 0.64578(14)
H2_6 H 0.7058 0.1167 0.6439
C9_6 C 0.8479(7) 0.0689(8) 0.63358(14)
H3_6 H 0.8532 0.1222 0.6229
C15_6 C 0.1921(7) 0.0435(9) 0.65314(15)
H8_6 H 0.1380 0.0919 0.6567
C16_6 C 0.2772(7) 0.0339(8) 0.66665(13)
H9_6 H 0.2776 0.0713 0.6799
C17_6 C 0.7923(8) 0.0689(9) 0.71056(15)
H10_6 H 0.8227 0.0894 0.6967
H11_6 H 0.8482 0.0643 0.7214
H12_6 H 0.7405 0.1215 0.7150
C23_6 C 0.5560(6) 0.0424(6) 0.76651(12)
C24_6 C 0.5580(6) 0.0446(6) 0.74406(12)
C30_6 C 0.5520(7) 0.1405(6) 0.77958(12)
C31_6 C 0.4833(7) 0.1439(6) 0.79691(12)
H21_6 H 0.4401 0.0851 0.8002
C32_6 C 0.4786(7) 0.2336(6) 0.80925(12)
H22_6 H 0.4294 0.2359 0.8207
C33_6 C 0.6082(7) 0.3119(7) 0.78943(13)
H23_6 H 0.6540 0.3697 0.7870
C34_6 C 0.6153(7) 0.2273(7) 0.77602(13)
H24_6 H 0.6634 0.2279 0.7643
C36_6 C 0.4583(8) 0.1823(7) 0.72865(16)
H28_6 H 0.4131 0.1270 0.7227
H29_6 H 0.4650 0.2395 0.7182
H30_6 H 0.4272 0.2095 0.7420
N5_5 N 0.5024(6) 0.5729(5) 0.88566(11)
N6_5 N 0.4861(6) 0.3169(5) 0.88495(11)
N7_3 N 0.5484(6) 0.5749(5) 0.80393(9)
O1_6 O 0.7421(4) 0.9689(5) 0.70846(8)
O2_6 O 0.3689(4) 0.9446(6) 0.70785(8)
O3_6 O 0.5498(5) 0.7631(4) 0.73077(8)
N2_3 N 0.1831(5) 0.9861(6) 0.63495(11)
C1_6 C 0.5545(6) 0.9568(5) 0.70773(11)
C2_6 C 0.6494(6) 0.9690(6) 0.69628(12)
C3_6 C 0.6486(7) 0.9773(7) 0.67432(13)
C4_6 C 0.5557(7) 0.9777(7) 0.66395(11)
H1_6 H 0.5564 0.9857 0.6487
C5_6 C 0.4586(6) 0.9670(7) 0.67408(12)
C6_6 C 0.4630(5) 0.9534(6) 0.69641(12)
C7_6 C 0.7484(6) 0.9858(7) 0.66130(13)
C10_6 C 0.9179(8) 0.9269(9) 0.65074(15)
H4_6 H 0.9736 0.8778 0.6523
C11_6 C 0.8328(7) 0.9174(8) 0.66384(15)
H5_6 H 0.8310 0.8646 0.6746
C12_6 C 0.3617(7) 0.9714(7) 0.66144(13)
C13_6 C 0.3484(7) 0.9107(7) 0.64297(13)
H6_6 H 0.4005 0.8605 0.6392
C14_6 C 0.2611(7) 0.9224(8) 0.63009(14)
H7_6 H 0.2569 0.8828 0.6171
C18_6 C 0.3230(8) 0.8399(8) 0.70622(17)
H13_6 H 0.3167 0.8202 0.6910
H14_6 H 0.2531 0.8399 0.7129
H15_6 H 0.3682 0.7891 0.7137
C19_6 C 0.5552(6) 0.9514(6) 0.73194(11)
C20_6 C 0.5560(6) 0.8564(6) 0.74254(11)
C21_6 C 0.5601(7) 0.8517(6) 0.76523(11)
C22_6 C 0.5578(7) 0.9437(7) 0.77641(11)
H16_6 H 0.5575 0.9407 0.7917
C25_6 C 0.5578(7) 0.7513(6) 0.77727(12)
C26_6 C 0.4852(7) 0.6733(6) 0.77343(13)
H17_6 H 0.4380 0.6777 0.7616
C27_6 C 0.4830(7) 0.5862(7) 0.78762(13)
H18_6 H 0.4317 0.5332 0.7853
C28_6 C 0.6202(7) 0.6485(7) 0.80738(12)
H19_6 H 0.6676 0.6405 0.8191
C29_6 C 0.6280(7) 0.7365(7) 0.79444(13)
H20_6 H 0.6811 0.7873 0.7972
C35_6 C 0.6514(7) 0.7217(7) 0.72450(15)
H25_6 H 0.6893 0.7746 0.7160
H26_6 H 0.6415 0.6581 0.7158
H27_6 H 0.6922 0.7044 0.7374
N7_4 N 0.0749(5) 0.9516(6) 0.05393(9)
I2_7 I 0.95407(5) 0.16220(5) 0.090210(9)
C26_7 C 0.1733(6) 0.0148(7) 0.02343(13)
H17_7 H 0.1777 0.0620 0.0116
C27_7 C 0.0862(7) 0.0170(7) 0.03762(13)
H18_7 H 0.0332 0.0683 0.0353
C31_7 C 0.6439(6) 0.0167(7) 0.04691(12)
H21_7 H 0.5851 0.0599 0.0502
C32_7 C 0.7336(6) 0.0214(7) 0.05925(12)
H22_7 H 0.7359 0.0706 0.0707
O2_7 O 0.4446(6) 0.1311(4) 0.95785(8)
C5_7 C 0.4670(7) 0.0414(6) 0.92408(12)
C6_7 C 0.4534(6) 0.0370(5) 0.94641(12)
C12_7 C 0.4714(7) 0.1383(7) 0.91144(13)
C13_7 C 0.4107(7) 0.1516(7) 0.89297(13)
H6_7 H 0.3605 0.0995 0.8892
C14_7 C 0.4224(8) 0.2389(7) 0.88009(14)
H7_7 H 0.3828 0.2431 0.8671
C15_7 C 0.5435(9) 0.3079(7) 0.90314(15)
H8_7 H 0.5919 0.3620 0.9067
C16_7 C 0.5339(8) 0.2228(7) 0.91665(13)
H9_7 H 0.5713 0.2224 0.9299
C18_7 C 0.3399(8) 0.1770(8) 0.95622(17)
H13_7 H 0.3202 0.1833 0.9410
H14_7 H 0.3399 0.2469 0.9629
H15_7 H 0.2891 0.1318 0.9637
C36_7 C 0.6823(7) 0.0417(8) 0.97865(16)
H28_7 H 0.6270 0.0869 0.9727
H29_7 H 0.7395 0.0350 0.9682
H30_7 H 0.7095 0.0728 0.9920
I1_7 I 0.94362(5) 0.80180(5) 0.099134(10)
Cu1_4 Cu 0.94923(8) 0.97011(8) 0.074695(14)
N4_7 N 0.8180(5) 0.9602(5) 0.05592(10)
C21_7 C 0.3517(6) 0.9399(7) 0.01523(11)
C22_7 C 0.4437(7) 0.9422(7) 0.02641(11)
H16_7 H 0.4407 0.9425 0.0417
C23_7 C 0.5424(6) 0.9440(6) 0.01651(12)
C25_7 C 0.2513(6) 0.9422(7) 0.02727(12)
C28_7 C 0.1485(7) 0.8798(7) 0.05738(12)
H19_7 H 0.1405 0.8324 0.0691
C29_7 C 0.2365(7) 0.8720(7) 0.04444(13)
H20_7 H 0.2873 0.8189 0.0472
C30_7 C 0.6405(6) 0.9480(7) 0.02958(12)
C33_7 C 0.8119(7) 0.8918(7) 0.03943(13)
H23_7 H 0.8697 0.8460 0.0370
C34_7 C 0.7273(7) 0.8847(7) 0.02602(13)
H24_7 H 0.7279 0.8366 0.0143
O1_7 O 0.4689(5) 0.7579(4) 0.95846(8)
O3_7 O 0.2631(4) 0.9502(5) 0.98077(8)
O4_7 O 0.6402(4) 0.9410(5) 0.98311(8)
C1_7 C 0.4568(5) 0.9455(6) 0.95773(11)
C2_7 C 0.4690(6) 0.8506(6) 0.94628(12)
C3_7 C 0.4773(7) 0.8514(7) 0.92432(13)
C4_7 C 0.4777(7) 0.9443(7) 0.91395(11)
H1_7 H 0.4857 0.9436 0.8987
C7_7 C 0.4858(7) 0.7516(6) 0.91130(13)
C8_7 C 0.5656(8) 0.7405(7) 0.89578(14)
H2_7 H 0.6167 0.7942 0.8939
C9_7 C 0.5689(8) 0.6521(7) 0.88358(14)
H3_7 H 0.6222 0.6468 0.8729
C10_7 C 0.4269(9) 0.5821(8) 0.90074(15)
H4_7 H 0.3778 0.5264 0.9023
C11_7 C 0.4174(8) 0.6672(7) 0.91384(15)
H5_7 H 0.3646 0.6690 0.9246
C17_7 C 0.5689(9) 0.7077(8) 0.96056(15)
H10_7 H 0.5894 0.6773 0.9467
H11_7 H 0.5643 0.6518 0.9714
H12_7 H 0.6215 0.7595 0.9650
C19_7 C 0.4514(6) 0.9448(6) 0.98194(11)
C20_7 C 0.3564(6) 0.9440(6) 0.99254(11)
C24_7 C 0.5446(6) 0.9420(6) 0.99406(12)
C35_7 C 0.2217(7) 0.8486(7) 0.97450(15)
H25_7 H 0.2746 0.8107 0.9660
H26_7 H 0.1581 0.8585 0.9658
H27_7 H 0.2044 0.8078 0.9874
Cu3_4 Cu 0.05077(8) 0.02989(8) 0.574695(14)
I1_8 I 0.05638(5) 0.19820(5) 0.599134(10)
O1_8 O 0.5311(5) 0.2421(4) 0.45846(8)
O3_8 O 0.7369(4) 0.0498(5) 0.48077(8)
O4_8 O 0.3598(4) 0.0590(5) 0.48311(8)
N3_4 N 0.9251(5) 0.0484(6) 0.55393(9)
N4_8 N 0.1820(5) 0.0398(5) 0.55592(10)
C1_8 C 0.5432(5) 0.0545(6) 0.45773(11)
C2_8 C 0.5310(6) 0.1494(6) 0.44628(12)
C3_8 C 0.5227(7) 0.1486(7) 0.42432(13)
C4_8 C 0.5223(7) 0.0557(7) 0.41395(11)
H1_8 H 0.5143 0.0564 0.3987
C7_8 C 0.5142(7) 0.2484(6) 0.41130(13)
C8_8 C 0.4344(8) 0.2595(7) 0.39578(14)
H2_8 H 0.3833 0.2058 0.3939
C9_8 C 0.4311(8) 0.3479(7) 0.38358(14)
H3_8 H 0.3778 0.3532 0.3729
C10_8 C 0.5731(9) 0.4179(8) 0.40074(15)
H4_8 H 0.6222 0.4736 0.4023
C11_8 C 0.5826(8) 0.3328(7) 0.41384(15)
H5_8 H 0.6354 0.3310 0.4246
C17_8 C 0.4311(9) 0.2923(8) 0.46056(15)
H10_8 H 0.4106 0.3227 0.4467
H11_8 H 0.4357 0.3482 0.4714
H12_8 H 0.3785 0.2405 0.4650
C19_8 C 0.5486(6) 0.0552(6) 0.48194(11)
C20_8 C 0.6436(6) 0.0560(6) 0.49254(11)
C21_8 C 0.6483(6) 0.0601(7) 0.51523(11)
C22_8 C 0.5563(7) 0.0578(7) 0.52641(11)
H16_8 H 0.5593 0.0575 0.5417
C23_8 C 0.4576(6) 0.0560(6) 0.51651(12)
C24_8 C 0.4554(6) 0.0580(6) 0.49406(12)
C25_8 C 0.7487(6) 0.0578(7) 0.52727(12)
C28_8 C 0.8515(7) 0.1202(7) 0.55738(12)
H19_8 H 0.8595 0.1676 0.5691
C29_8 C 0.7635(7) 0.1280(7) 0.54444(13)
H20_8 H 0.7127 0.1811 0.5472
C30_8 C 0.3595(6) 0.0520(7) 0.52958(12)
C33_8 C 0.1881(7) 0.1082(7) 0.53943(13)
H23_8 H 0.1303 0.1540 0.5370
C34_8 C 0.2727(7) 0.1153(7) 0.52602(13)
H24_8 H 0.2721 0.1634 0.5143
C35_8 C 0.7783(7) 0.1514(7) 0.47450(15)
H25_8 H 0.7254 0.1893 0.4660
H26_8 H 0.8419 0.1415 0.4658
H27_8 H 0.7956 0.1922 0.4874
I2_8 I 0.04593(5) 0.83780(5) 0.590210(9)
O2_8 O 0.5554(6) 0.8689(4) 0.45785(8)
C5_8 C 0.5330(7) 0.9586(6) 0.42408(12)
C6_8 C 0.5466(6) 0.9630(5) 0.44641(12)
C12_8 C 0.5286(7) 0.8617(7) 0.41144(13)
C13_8 C 0.5893(7) 0.8484(7) 0.39297(13)
H6_8 H 0.6395 0.9005 0.3892
C14_8 C 0.5776(8) 0.7611(7) 0.38009(14)
H7_8 H 0.6172 0.7569 0.3671
C15_8 C 0.4565(9) 0.6921(7) 0.40314(15)
H8_8 H 0.4081 0.6380 0.4067
C16_8 C 0.4661(8) 0.7772(7) 0.41665(13)
H9_8 H 0.4287 0.7776 0.4299
C18_8 C 0.6601(8) 0.8230(8) 0.45622(17)
H13_8 H 0.6798 0.8167 0.4410
H14_8 H 0.6601 0.7531 0.4629
H15_8 H 0.7109 0.8682 0.4637
C26_8 C 0.8267(6) 0.9852(7) 0.52343(13)
H17_8 H 0.8223 0.9380 0.5116
C27_8 C 0.9138(7) 0.9830(7) 0.53762(13)
H18_8 H 0.9668 0.9317 0.5353
C31_8 C 0.3561(6) 0.9833(7) 0.54691(12)
H21_8 H 0.4149 0.9401 0.5502
C32_8 C 0.2664(6) 0.9786(7) 0.55925(12)
H22_8 H 0.2641 0.9294 0.5707
C36_8 C 0.3177(7) 0.9583(8) 0.47865(16)
H28_8 H 0.3730 0.9131 0.4727
H29_8 H 0.2605 0.9650 0.4682
H30_8 H 0.2905 0.9272 0.4920
loop_
_geom_bond_atom_site_label_1
_geom_bond_atom_site_label_2
_geom_bond_site_symmetry_1
_geom_bond_site_symmetry_2
O2 C6 1_555 1_555
N2 C14 1_555 1_555
C12 C5 1_555 1_555
C13 C12 1_555 1_555
H6 C13 1_555 1_555
C14 C13 1_555 1_555
H7 C14 1_555 1_555
C15 N2 1_555 1_555
H8 C15 1_555 1_555
C16 C12 1_555 1_555
H9 C16 1_555 1_555
C18 O2 1_555 1_555
H13 C18 1_555 1_555
H14 C18 1_555 1_555
H15 C18 1_555 1_555
H28 C36 1_555 1_555
H29 C36 1_555 1_555
H30 C36 1_555 1_555
Cu5 N2 1_555 1_555
C5 C6 1_555 1_555
C15 C16 1_555 1_555
H17 C26 1_555 1_555
C27 C26 1_555 1_555
H18 C27 1_555 1_555
H21 C31 1_555 1_555
H22 C32 1_555 1_555
C31 C32 1_555 1_555
O1 C2 1_555 1_555
O3 C20 1_555 1_555
O4 C24 1_555 1_555
N1 C9 1_555 1_555
C1 C2 1_555 1_555
C2 C3 1_555 1_555
C3 C4 1_555 1_555
C4 H1 1_555 1_555
C7 C3 1_555 1_555
C8 C7 1_555 1_555
H2 C8 1_555 1_555
C9 C8 1_555 1_555
H3 C9 1_555 1_555
C10 N1 1_555 1_555
H4 C10 1_555 1_555
C11 C7 1_555 1_555
H5 C11 1_555 1_555
C17 O1 1_555 1_555
H10 C17 1_555 1_555
H11 C17 1_555 1_555
H12 C17 1_555 1_555
C19 C1 1_555 1_555
C20 C19 1_555 1_555
C24 C19 1_555 1_555
C35 O3 1_555 1_555
H25 C35 1_555 1_555
H26 C35 1_555 1_555
H27 C35 1_555 1_555
Cu5 N1 1_555 1_555
C10 C11 1_555 1_555
I1 Cu1 1_555 1_555
Cu1 Cu2 1_555 1_555
Cu2 I1 1_555 1_555
N4 Cu1 1_555 1_555
C22 C21 1_555 1_555
H16 C22 1_555 1_555
C23 C22 1_555 1_555
C25 C21 1_555 1_555
C28 N7 1_555 1_555
H19 C28 1_555 1_555
C29 C25 1_555 1_555
H20 C29 1_555 1_555
C30 C23 1_555 1_555
C33 N4 1_555 1_555
H23 C33 1_555 1_555
C34 C30 1_555 1_555
H24 C34 1_555 1_555
C28 C29 1_555 1_555
C33 C34 1_555 1_555
O1_2 C2_2 1_555 1_555
O2_2 C6_2 1_555 1_555
O3_2 C20_2 1_555 1_555
N6 C14_2 1_555 1_555
N3 C27_2 1_555 1_555
C1_2 C2_2 1_555 1_555
C2_2 C3_2 1_555 1_555
C3_2 C4_2 1_555 1_555
C4_2 H1_2 1_555 1_555
C5_2 C4_2 1_555 1_555
C6_2 C1_2 1_555 1_555
C7_2 C3_2 1_555 1_555
H4_2 C10_2 1_555 1_555
C11_2 C7_2 1_555 1_555
H5_2 C11_2 1_555 1_555
C12_2 C5_2 1_555 1_555
C13_2 C12_2 1_555 1_555
H6_2 C13_2 1_555 1_555
C14_2 C13_2 1_555 1_555
H7_2 C14_2 1_555 1_555
C18_2 O2_2 1_555 1_555
H13_2 C18_2 1_555 1_555
H14_2 C18_2 1_555 1_555
H15_2 C18_2 1_555 1_555
C19_2 C1_2 1_555 1_555
C20_2 C19_2 1_555 1_555
C21_2 C20_2 1_555 1_555
C22_2 C21_2 1_555 1_555
H16_2 C22_2 1_555 1_555
C25_2 C21_2 1_555 1_555
C26_2 C25_2 1_555 1_555
H17_2 C26_2 1_555 1_555
C27_2 C26_2 1_555 1_555
H18_2 C27_2 1_555 1_555
C28_2 N3 1_555 1_555
H19_2 C28_2 1_555 1_555
C29_2 C25_2 1_555 1_555
H20_2 C29_2 1_555 1_555
C35_2 O3_2 1_555 1_555
H25_2 C35_2 1_555 1_555
H26_2 C35_2 1_555 1_555
H27_2 C35_2 1_555 1_555
Cu3 N3 1_555 1_555
C5_2 C6_2 1_555 1_555
C10_2 C11_2 1_555 1_555
C28_2 C29_2 1_555 1_555
I1_2 Cu3 1_555 1_555
I2_2 Cu3 1_555 1_555
Cu3 Cu2_2 1_555 1_555
Cu2_2 I1_2 1_555 1_555
O4_2 C24_2 1_555 1_555
N5 C9_2 1_555 1_555
N4_2 Cu3 1_555 1_555
H2_2 C8_2 1_555 1_555
C9_2 C8_2 1_555 1_555
H3_2 C9_2 1_555 1_555
H8_2 C15_2 1_555 1_555
H9_2 C16_2 1_555 1_555
H10_2 C17_2 1_555 1_555
H11_2 C17_2 1_555 1_555
H12_2 C17_2 1_555 1_555
C30_2 C23_2 1_555 1_555
C31_2 C30_2 1_555 1_555
H21_2 C31_2 1_555 1_555
C32_2 N4_2 1_555 1_555
H22_2 C32_2 1_555 1_555
C33_2 N4_2 1_555 1_555
H23_2 C33_2 1_555 1_555
C34_2 C30_2 1_555 1_555
H24_2 C34_2 1_555 1_555
C36_2 O4_2 1_555 1_555
H28_2 C36_2 1_555 1_555
H29_2 C36_2 1_555 1_555
H30_2 C36_2 1_555 1_555
N5_2 Cu2_2 1_555 1_555
N6_2 Cu2_2 1_555 1_555
I2_2 Cu2_2 1_555 1_555
C15_2 C16_2 1_555 1_555
C23_2 C24_2 1_555 1_555
C31_2 C32_2 1_555 1_555
C33_2 C34_2 1_555 1_555
I1_3 Cu3_2 1_555 1_555
Cu3_2 Cu2_3 1_555 1_555
Cu2_3 I1_3 1_555 1_555
O1_3 C2_3 1_555 1_555
O3_3 C20_3 1_555 1_555
O4_3 C24_3 1_555 1_555
N5_2 C9_3 1_555 1_555
N4_3 Cu3_2 1_555 1_555
C1_3 C2_3 1_555 1_555
C2_3 C3_3 1_555 1_555
C3_3 C4_3 1_555 1_555
C4_3 H1_3 1_555 1_555
C7_3 C3_3 1_555 1_555
C8_3 C7_3 1_555 1_555
H2_3 C8_3 1_555 1_555
C9_3 C8_3 1_555 1_555
H3_3 C9_3 1_555 1_555
C10_3 N5_2 1_555 1_555
H4_3 C10_3 1_555 1_555
C11_3 C7_3 1_555 1_555
H5_3 C11_3 1_555 1_555
C17_3 O1_3 1_555 1_555
H10_3 C17_3 1_555 1_555
H11_3 C17_3 1_555 1_555
H12_3 C17_3 1_555 1_555
C19_3 C1_3 1_555 1_555
C20_3 C19_3 1_555 1_555
C21_3 C20_3 1_555 1_555
C22_3 C21_3 1_555 1_555
H16_3 C22_3 1_555 1_555
C23_3 C22_3 1_555 1_555
C24_3 C19_3 1_555 1_555
C25_3 C21_3 1_555 1_555
C28_3 N3_2 1_555 1_555
H19_3 C28_3 1_555 1_555
C29_3 C25_3 1_555 1_555
H20_3 C29_3 1_555 1_555
C30_3 C23_3 1_555 1_555
C33_3 N4_3 1_555 1_555
H23_3 C33_3 1_555 1_555
C34_3 C30_3 1_555 1_555
H24_3 C34_3 1_555 1_555
C35_3 O3_3 1_555 1_555
H25_3 C35_3 1_555 1_555
H26_3 C35_3 1_555 1_555
H27_3 C35_3 1_555 1_555
C10_3 C11_3 1_555 1_555
C23_3 C24_3 1_555 1_555
C28_3 C29_3 1_555 1_555
C33_3 C34_3 1_555 1_555
O2_3 C6_3 1_555 1_555
N6_2 C14_3 1_555 1_555
C12_3 C5_3 1_555 1_555
C13_3 C12_3 1_555 1_555
H6_3 C13_3 1_555 1_555
C14_3 C13_3 1_555 1_555
H7_3 C14_3 1_555 1_555
C15_3 N6_2 1_555 1_555
H8_3 C15_3 1_555 1_555
C16_3 C12_3 1_555 1_555
H9_3 C16_3 1_555 1_555
C18_3 O2_3 1_555 1_555
H13_3 C18_3 1_555 1_555
H14_3 C18_3 1_555 1_555
H15_3 C18_3 1_555 1_555
H17_3 C26_3 1_555 1_555
C27_3 C26_3 1_555 1_555
H18_3 C27_3 1_555 1_555
H21_3 C31_3 1_555 1_555
H22_3 C32_3 1_555 1_555
H28_3 C36_3 1_555 1_555
H29_3 C36_3 1_555 1_555
H30_3 C36_3 1_555 1_555
C5_3 C6_3 1_555 1_555
C15_3 C16_3 1_555 1_555
C31_3 C32_3 1_555 1_555
I1_4 Cu1_2 1_555 1_555
I2_4 Cu1_2 1_555 1_555
Cu1_2 Cu5 1_555 1_555
Cu5 I1_4 1_555 1_555
O4_4 C24_4 1_555 1_555
N5_3 C9_4 1_555 1_555
N4_4 Cu1_2 1_555 1_555
H2_4 C8_4 1_555 1_555
C9_4 C8_4 1_555 1_555
H3_4 C9_4 1_555 1_555
H8_4 C15_4 1_555 1_555
H9_4 C16_4 1_555 1_555
H10_4 C17_4 1_555 1_555
H11_4 C17_4 1_555 1_555
H12_4 C17_4 1_555 1_555
C30_4 C23_4 1_555 1_555
C31_4 C30_4 1_555 1_555
H21_4 C31_4 1_555 1_555
C32_4 N4_4 1_555 1_555
H22_4 C32_4 1_555 1_555
C33_4 N4_4 1_555 1_555
H23_4 C33_4 1_555 1_555
C34_4 C30_4 1_555 1_555
H24_4 C34_4 1_555 1_555
C36_4 O4_4 1_555 1_555
H28_4 C36_4 1_555 1_555
H29_4 C36_4 1_555 1_555
H30_4 C36_4 1_555 1_555
N7_2 Cu1_2 1_555 1_555
I2_4 Cu5 1_555 1_555
C15_4 C16_4 1_555 1_555
C23_4 C24_4 1_555 1_555
C31_4 C32_4 1_555 1_555
C33_4 C34_4 1_555 1_555
O1_4 C2_4 1_555 1_555
O2_4 C6_4 1_555 1_555
O3_4 C20_4 1_555 1_555
N6_3 C14_4 1_555 1_555
N7_2 C27_4 1_555 1_555
C1_4 C2_4 1_555 1_555
C2_4 C3_4 1_555 1_555
C3_4 C4_4 1_555 1_555
C4_4 H1_4 1_555 1_555
C5_4 C4_4 1_555 1_555
C6_4 C1_4 1_555 1_555
C7_4 C3_4 1_555 1_555
H4_4 C10_4 1_555 1_555
C11_4 C7_4 1_555 1_555
H5_4 C11_4 1_555 1_555
C12_4 C5_4 1_555 1_555
C13_4 C12_4 1_555 1_555
H6_4 C13_4 1_555 1_555
C14_4 C13_4 1_555 1_555
H7_4 C14_4 1_555 1_555
C18_4 O2_4 1_555 1_555
H13_4 C18_4 1_555 1_555
H14_4 C18_4 1_555 1_555
H15_4 C18_4 1_555 1_555
C19_4 C1_4 1_555 1_555
C20_4 C19_4 1_555 1_555
C21_4 C20_4 1_555 1_555
C22_4 C21_4 1_555 1_555
H16_4 C22_4 1_555 1_555
C25_4 C21_4 1_555 1_555
C26_4 C25_4 1_555 1_555
H17_4 C26_4 1_555 1_555
C27_4 C26_4 1_555 1_555
H18_4 C27_4 1_555 1_555
C28_4 N7_2 1_555 1_555
H19_4 C28_4 1_555 1_555
C29_4 C25_4 1_555 1_555
H20_4 C29_4 1_555 1_555
C35_4 O3_4 1_555 1_555
H25_4 C35_4 1_555 1_555
H26_4 C35_4 1_555 1_555
H27_4 C35_4 1_555 1_555
C5_4 C6_4 1_555 1_555
C10_4 C11_4 1_555 1_555
C28_4 C29_4 1_555 1_555
O1_5 C2_5 1_555 1_555
O2_5 C6_5 1_555 1_555
O3_5 C20_5 1_555 1_555
N2_2 C14_5 1_555 1_555
N3_3 C27_5 1_555 1_555
C1_5 C2_5 1_555 1_555
C2_5 C3_5 1_555 1_555
C3_5 C4_5 1_555 1_555
C4_5 H1_5 1_555 1_555
C5_5 C4_5 1_555 1_555
C6_5 C1_5 1_555 1_555
C7_5 C3_5 1_555 1_555
H4_5 C10_5 1_555 1_555
C11_5 C7_5 1_555 1_555
H5_5 C11_5 1_555 1_555
C12_5 C5_5 1_555 1_555
C13_5 C12_5 1_555 1_555
H6_5 C13_5 1_555 1_555
C14_5 C13_5 1_555 1_555
H7_5 C14_5 1_555 1_555
C18_5 O2_5 1_555 1_555
H13_5 C18_5 1_555 1_555
H14_5 C18_5 1_555 1_555
H15_5 C18_5 1_555 1_555
C19_5 C1_5 1_555 1_555
C20_5 C19_5 1_555 1_555
C21_5 C20_5 1_555 1_555
C22_5 C21_5 1_555 1_555
H16_5 C22_5 1_555 1_555
C25_5 C21_5 1_555 1_555
C26_5 C25_5 1_555 1_555
H17_5 C26_5 1_555 1_555
C27_5 C26_5 1_555 1_555
H18_5 C27_5 1_555 1_555
C28_5 N3_3 1_555 1_555
H19_5 C28_5 1_555 1_555
C29_5 C25_5 1_555 1_555
H20_5 C29_5 1_555 1_555
C35_5 O3_5 1_555 1_555
H25_5 C35_5 1_555 1_555
H26_5 C35_5 1_555 1_555
H27_5 C35_5 1_555 1_555
Cu3_3 N3_3 1_555 1_555
C5_5 C6_5 1_555 1_555
C10_5 C11_5 1_555 1_555
C28_5 C29_5 1_555 1_555
I1_5 Cu3_3 1_555 1_555
I2_5 Cu3_3 1_555 1_555
Cu3_3 Cu2_4 1_555 1_555
Cu2_4 I1_5 1_555 1_555
O4_5 C24_5 1_555 1_555
N1_2 C9_5 1_555 1_555
N4_5 Cu3_3 1_555 1_555
H2_5 C8_5 1_555 1_555
C9_5 C8_5 1_555 1_555
H3_5 C9_5 1_555 1_555
H8_5 C15_5 1_555 1_555
H9_5 C16_5 1_555 1_555
H10_5 C17_5 1_555 1_555
H11_5 C17_5 1_555 1_555
H12_5 C17_5 1_555 1_555
C30_5 C23_5 1_555 1_555
C31_5 C30_5 1_555 1_555
H21_5 C31_5 1_555 1_555
C32_5 N4_5 1_555 1_555
H22_5 C32_5 1_555 1_555
C33_5 N4_5 1_555 1_555
H23_5 C33_5 1_555 1_555
C34_5 C30_5 1_555 1_555
H24_5 C34_5 1_555 1_555
C36_5 O4_5 1_555 1_555
H28_5 C36_5 1_555 1_555
H29_5 C36_5 1_555 1_555
H30_5 C36_5 1_555 1_555
N5_4 Cu2_4 1_555 1_555
N6_4 Cu2_4 1_555 1_555
I2_5 Cu2_4 1_555 1_555
C15_5 C16_5 1_555 1_555
C23_5 C24_5 1_555 1_555
C31_5 C32_5 1_555 1_555
C33_5 C34_5 1_555 1_555
I1_6 Cu1_3 1_555 1_555
I2_6 Cu1_3 1_555 1_555
Cu1_3 Cu2_5 1_555 1_555
Cu2_5 I1_6 1_555 1_555
O4_6 C24_6 1_555 1_555
N1_3 C9_6 1_555 1_555
N4_6 Cu1_3 1_555 1_555
H2_6 C8_6 1_555 1_555
C9_6 C8_6 1_555 1_555
H3_6 C9_6 1_555 1_555
H8_6 C15_6 1_555 1_555
H9_6 C16_6 1_555 1_555
H10_6 C17_6 1_555 1_555
H11_6 C17_6 1_555 1_555
H12_6 C17_6 1_555 1_555
C30_6 C23_6 1_555 1_555
C31_6 C30_6 1_555 1_555
H21_6 C31_6 1_555 1_555
C32_6 N4_6 1_555 1_555
H22_6 C32_6 1_555 1_555
C33_6 N4_6 1_555 1_555
H23_6 C33_6 1_555 1_555
C34_6 C30_6 1_555 1_555
H24_6 C34_6 1_555 1_555
C36_6 O4_6 1_555 1_555
H28_6 C36_6 1_555 1_555
H29_6 C36_6 1_555 1_555
H30_6 C36_6 1_555 1_555
N5_5 Cu2_5 1_555 1_555
N6_5 Cu2_5 1_555 1_555
N7_3 Cu1_3 1_555 1_555
I2_6 Cu2_5 1_555 1_555
C15_6 C16_6 1_555 1_555
C23_6 C24_6 1_555 1_555
C31_6 C32_6 1_555 1_555
C33_6 C34_6 1_555 1_555
O1_6 C2_6 1_555 1_555
O2_6 C6_6 1_555 1_555
O3_6 C20_6 1_555 1_555
N2_3 C14_6 1_555 1_555
N7_3 C27_6 1_555 1_555
C1_6 C2_6 1_555 1_555
C2_6 C3_6 1_555 1_555
C3_6 C4_6 1_555 1_555
C4_6 H1_6 1_555 1_555
C5_6 C4_6 1_555 1_555
C6_6 C1_6 1_555 1_555
C7_6 C3_6 1_555 1_555
H4_6 C10_6 1_555 1_555
C11_6 C7_6 1_555 1_555
H5_6 C11_6 1_555 1_555
C12_6 C5_6 1_555 1_555
C13_6 C12_6 1_555 1_555
H6_6 C13_6 1_555 1_555
C14_6 C13_6 1_555 1_555
H7_6 C14_6 1_555 1_555
C18_6 O2_6 1_555 1_555
H13_6 C18_6 1_555 1_555
H14_6 C18_6 1_555 1_555
H15_6 C18_6 1_555 1_555
C19_6 C1_6 1_555 1_555
C20_6 C19_6 1_555 1_555
C21_6 C20_6 1_555 1_555
C22_6 C21_6 1_555 1_555
H16_6 C22_6 1_555 1_555
C25_6 C21_6 1_555 1_555
C26_6 C25_6 1_555 1_555
H17_6 C26_6 1_555 1_555
C27_6 C26_6 1_555 1_555
H18_6 C27_6 1_555 1_555
C28_6 N7_3 1_555 1_555
H19_6 C28_6 1_555 1_555
C29_6 C25_6 1_555 1_555
H20_6 C29_6 1_555 1_555
C35_6 O3_6 1_555 1_555
H25_6 C35_6 1_555 1_555
H26_6 C35_6 1_555 1_555
H27_6 C35_6 1_555 1_555
C5_6 C6_6 1_555 1_555
C10_6 C11_6 1_555 1_555
C28_6 C29_6 1_555 1_555
H17_7 C26_7 1_555 1_555
C27_7 C26_7 1_555 1_555
H18_7 C27_7 1_555 1_555
H21_7 C31_7 1_555 1_555
H22_7 C32_7 1_555 1_555
C31_7 C32_7 1_555 1_555
O2_7 C6_7 1_555 1_555
N6_5 C14_7 1_555 1_555
C12_7 C5_7 1_555 1_555
C13_7 C12_7 1_555 1_555
H6_7 C13_7 1_555 1_555
C14_7 C13_7 1_555 1_555
H7_7 C14_7 1_555 1_555
C15_7 N6_5 1_555 1_555
H8_7 C15_7 1_555 1_555
C16_7 C12_7 1_555 1_555
H9_7 C16_7 1_555 1_555
C18_7 O2_7 1_555 1_555
H13_7 C18_7 1_555 1_555
H14_7 C18_7 1_555 1_555
H15_7 C18_7 1_555 1_555
H28_7 C36_7 1_555 1_555
H29_7 C36_7 1_555 1_555
H30_7 C36_7 1_555 1_555
C5_7 C6_7 1_555 1_555
C15_7 C16_7 1_555 1_555
I1_7 Cu1_4 1_555 1_555
Cu1_4 Cu5_2 1_555 1_555
Cu5_2 I1_7 1_555 1_555
N4_7 Cu1_4 1_555 1_555
C22_7 C21_7 1_555 1_555
H16_7 C22_7 1_555 1_555
C23_7 C22_7 1_555 1_555
C25_7 C21_7 1_555 1_555
C28_7 N7_4 1_555 1_555
H19_7 C28_7 1_555 1_555
C29_7 C25_7 1_555 1_555
H20_7 C29_7 1_555 1_555
C30_7 C23_7 1_555 1_555
C33_7 N4_7 1_555 1_555
H23_7 C33_7 1_555 1_555
C34_7 C30_7 1_555 1_555
H24_7 C34_7 1_555 1_555
C28_7 C29_7 1_555 1_555
C33_7 C34_7 1_555 1_555
O1_7 C2_7 1_555 1_555
O3_7 C20_7 1_555 1_555
O4_7 C24_7 1_555 1_555
N5_5 C9_7 1_555 1_555
C1_7 C2_7 1_555 1_555
C2_7 C3_7 1_555 1_555
C3_7 C4_7 1_555 1_555
C4_7 H1_7 1_555 1_555
C7_7 C3_7 1_555 1_555
C8_7 C7_7 1_555 1_555
H2_7 C8_7 1_555 1_555
C9_7 C8_7 1_555 1_555
H3_7 C9_7 1_555 1_555
C10_7 N5_5 1_555 1_555
H4_7 C10_7 1_555 1_555
C11_7 C7_7 1_555 1_555
H5_7 C11_7 1_555 1_555
C17_7 O1_7 1_555 1_555
H10_7 C17_7 1_555 1_555
H11_7 C17_7 1_555 1_555
H12_7 C17_7 1_555 1_555
C19_7 C1_7 1_555 1_555
C20_7 C19_7 1_555 1_555
C24_7 C19_7 1_555 1_555
C35_7 O3_7 1_555 1_555
H25_7 C35_7 1_555 1_555
H26_7 C35_7 1_555 1_555
H27_7 C35_7 1_555 1_555
C10_7 C11_7 1_555 1_555
I1_8 Cu3_4 1_555 1_555
Cu3_4 Cu4 1_555 1_555
Cu4 I1_8 1_555 1_555
O1_8 C2_8 1_555 1_555
O3_8 C20_8 1_555 1_555
O4_8 C24_8 1_555 1_555
N5_4 C9_8 1_555 1_555
N4_8 Cu3_4 1_555 1_555
C1_8 C2_8 1_555 1_555
C2_8 C3_8 1_555 1_555
C3_8 C4_8 1_555 1_555
C4_8 H1_8 1_555 1_555
C7_8 C3_8 1_555 1_555
C8_8 C7_8 1_555 1_555
H2_8 C8_8 1_555 1_555
C9_8 C8_8 1_555 1_555
H3_8 C9_8 1_555 1_555
C10_8 N5_4 1_555 1_555
H4_8 C10_8 1_555 1_555
C11_8 C7_8 1_555 1_555
H5_8 C11_8 1_555 1_555
C17_8 O1_8 1_555 1_555
H10_8 C17_8 1_555 1_555
H11_8 C17_8 1_555 1_555
H12_8 C17_8 1_555 1_555
C19_8 C1_8 1_555 1_555
C20_8 C19_8 1_555 1_555
C21_8 C20_8 1_555 1_555
C22_8 C21_8 1_555 1_555
H16_8 C22_8 1_555 1_555
C23_8 C22_8 1_555 1_555
C24_8 C19_8 1_555 1_555
C25_8 C21_8 1_555 1_555
C28_8 N3_4 1_555 1_555
H19_8 C28_8 1_555 1_555
C29_8 C25_8 1_555 1_555
H20_8 C29_8 1_555 1_555
C30_8 C23_8 1_555 1_555
C33_8 N4_8 1_555 1_555
H23_8 C33_8 1_555 1_555
C34_8 C30_8 1_555 1_555
H24_8 C34_8 1_555 1_555
C35_8 O3_8 1_555 1_555
H25_8 C35_8 1_555 1_555
H26_8 C35_8 1_555 1_555
H27_8 C35_8 1_555 1_555
C10_8 C11_8 1_555 1_555
C23_8 C24_8 1_555 1_555
C28_8 C29_8 1_555 1_555
C33_8 C34_8 1_555 1_555
O2_8 C6_8 1_555 1_555
N6_4 C14_8 1_555 1_555
C12_8 C5_8 1_555 1_555
C13_8 C12_8 1_555 1_555
H6_8 C13_8 1_555 1_555
C14_8 C13_8 1_555 1_555
H7_8 C14_8 1_555 1_555
C15_8 N6_4 1_555 1_555
H8_8 C15_8 1_555 1_555
C16_8 C12_8 1_555 1_555
H9_8 C16_8 1_555 1_555
C18_8 O2_8 1_555 1_555
H13_8 C18_8 1_555 1_555
H14_8 C18_8 1_555 1_555
H15_8 C18_8 1_555 1_555
H17_8 C26_8 1_555 1_555
C27_8 C26_8 1_555 1_555
H18_8 C27_8 1_555 1_555
H21_8 C31_8 1_555 1_555
H22_8 C32_8 1_555 1_555
H28_8 C36_8 1_555 1_555
H29_8 C36_8 1_555 1_555
H30_8 C36_8 1_555 1_555
C5_8 C6_8 1_555 1_555
C15_8 C16_8 1_555 1_555
C31_8 C32_8 1_555 1_555

#END
