
###############################################################################
#
# This file contains modified crystal structure data generated from the
# MOF subset of the Cambridge Structural Database (CSD) v543 
# hosted by the Cambridge Crystallographic Data Centre (CCDC).
#
# This work is licensed under the Creative Commons
# Attribution-NonCommercial-ShareAlike 4.0 International License.
# To view a copy of this license, visit
# http://creativecommons.org/licenses/by-nc-sa/4.0/
# or send a letter to
# Creative Commons, PO Box 1866, Mountain View, CA 94042, USA.
#
# CIF created using the CSD Python API on 29 September 2022
# The structure has been converted into the P1 space group
# The structure has a 3D framework
# The original CSD entry KOYRAT is in the orthorhombic crystal system
# The framework has been calculated to contain at least 10.0% void space
# The void calculation uses a probe of radius 1.32A, grid spacing 0.4
#
###############################################################################

data_KOYRAT
_chemical_formula_moiety         '(C240 H192 N8 O64 Ru4 Zn6)n'
_symmetry_cell_setting           triclinic
_symmetry_space_group_name_H-M   'P 1'
_symmetry_Int_Tables_number      1
_space_group_name_Hall           'P 1'
loop_
_symmetry_equiv_pos_site_id
_symmetry_equiv_pos_as_xyz
1 x,y,z
_cell_length_a                   24.572(6)
_cell_length_b                   14.514(4)
_cell_length_c                   22.314(5)
_cell_angle_alpha                90
_cell_angle_beta                 90
_cell_angle_gamma                90
_cell_volume                     7958.02
loop_
_atom_site_label
_atom_site_type_symbol
_atom_site_fract_x
_atom_site_fract_y
_atom_site_fract_z
H31 H 0.0139 0.3863 0.0093
Ru4 Ru 0.15484(7) 0.50366(18) 0.00960(16)
C5 C 0.0698(8) 0.4593(17) 0.9167(10)
H30 H 0.0053 0.4056 0.8283
C51 C 0.0170(2) 0.4044(3) 0.9188(3)
O1 O 0.0809(5) 0.4983(11) 0.9662(6)
O14 O 0.0910(6) 0.4712(11) 0.8690(7)
Zn5 Zn 0.15568(8) 0.54227(16) 0.85209(14)
C1 C 0.0886(9) 0.5867(16) 0.1120(10)
C6 C 0.1841(3) 0.5412(4) 0.6687(2)
C7 C 0.2216(3) 0.5745(4) 0.6275(2)
H1 H 0.2510 0.6121 0.6405
C8 C 0.2162(3) 0.5528(4) 0.5671(2)
H2 H 0.2419 0.5756 0.5389
C9 C 0.1733(3) 0.4978(4) 0.5479(2)
C10 C 0.1357(3) 0.4645(4) 0.5892(2)
H3 H 0.1064 0.4270 0.5761
C11 C 0.1411(3) 0.4862(4) 0.6496(2)
H4 H 0.1155 0.4635 0.6778
C12 C 0.1654(2) 0.4743(3) 0.4810(2)
C13 C 0.2090(2) 0.4778(3) 0.4415(2)
H5 H 0.2446 0.4902 0.4560
C14 C 0.20062(19) 0.4630(3) 0.3806(2)
H6 H 0.2305 0.4654 0.3536
C15 C 0.14857(18) 0.4448(3) 0.3593(2)
C16 C 0.1049(2) 0.4413(3) 0.3988(2)
H7 H 0.0693 0.4288 0.3843
C17 C 0.1133(2) 0.4561(3) 0.4597(2)
H8 H 0.0835 0.4537 0.4867
C18 C 0.13452(18) 0.2300(3) 0.0684(2)
C19 C 0.12928(19) 0.1553(3) 0.1069(2)
H9 H 0.1257 0.1652 0.1488
C20 C 0.1293(2) 0.0662(3) 0.0842(3)
H10 H 0.1257 0.0151 0.1106
C21 C 0.1345(2) 0.0517(3) 0.0229(3)
C23 C 0.13976(19) 0.2155(3) 0.0071(2)
C30 C 0.03636(14) 0.6394(2) 0.1118(2)
C31 C 0.02050(14) 0.6798(2) 0.0581(2)
H17 H 0.0416 0.6705 0.0229
C35 C 0.00551(14) 0.6529(2) 0.1633(2)
H20 H 0.0163 0.6253 0.2000
C54 C 0.1892(7) 0.5635(14) 0.7305(9)
C55 C 0.1379(8) 0.3270(15) 0.0957(9)
C56 C 0.1373(6) 0.4398(15) 0.2943(9)
O3 O 0.1289(6) 0.3894(9) 0.0590(6)
O4 O 0.1219(6) 0.5928(10) 0.0732(6)
O6 O 0.2314(6) 0.6043(12) 0.7511(7)
O7 O 0.1495(6) 0.5372(12) 0.7664(5)
O8 O 0.1755(6) 0.4583(11) 0.2591(5)
O12 O 0.1483(6) 0.3343(11) 0.1472(7)
O13 O 0.0945(6) 0.5383(10) 0.1626(7)
O16 O 0.0926(6) 0.4069(12) 0.2782(7)
Zn2 Zn 0.15813(8) 0.46243(17) 0.17378(14)
O18 O 0.2249(6) 0.5192(11) 0.1497(7)
C25 C 0.1607(3) 0.8846(3) 0.0349(3)
H13 H 0.1714 0.8971 0.0750
C26 C 0.1661(3) 0.7962(3) 0.0118(3)
H14 H 0.1805 0.7482 0.0361
C2 C 0.1569(8) 0.6833(16) 0.9318(11)
C24 C 0.1396(2) 0.9547(3) 0.9994(3)
C27 C 0.1505(3) 0.7778(3) 0.9531(3)
C28 C 0.1294(3) 0.8479(3) 0.9176(3)
H15 H 0.1188 0.8354 0.8775
C29 C 0.1240(3) 0.9364(3) 0.9407(3)
H16 H 0.1096 0.9843 0.9164
O10 O 0.1788(6) 0.6238(9) 0.9634(6)
O11 O 0.1437(6) 0.6696(10) 0.8763(7)
H32 H 0.9347 0.2967 0.0098
O19 O 0.6289(6) 0.1106(9) 0.0590(6)
Zn6 Zn 0.65813(8) 0.03757(17) 0.17378(14)
C4 C 0.7272(7) 0.0744(13) 0.9110(7)
C42 C 0.77886(19) 0.1327(3) 0.9147(3)
C43 C 0.8170(2) 0.1258(3) 0.8689(3)
H25 H 0.8110 0.0845 0.8365
C44 C 0.8639(2) 0.1794(3) 0.8704(3)
H26 H 0.8899 0.1747 0.8391
C45 C 0.8726(2) 0.2398(3) 0.9178(3)
C46 C 0.8344(2) 0.2467(3) 0.9636(3)
H27 H 0.8404 0.2880 0.9959
C47 C 0.7876(2) 0.1931(3) 0.9620(3)
H28 H 0.7615 0.1978 0.9933
C48 C 0.9229(2) 0.2980(3) 0.9194(3)
C49 C 0.9439(2) 0.3304(3) 0.8655(3)
H29 H 0.9261 0.3161 0.8288
C50 C 0.9910(2) 0.3835(3) 0.8652(3)
C52 C 0.9961(2) 0.3720(3) 0.9726(3)
C53 C 0.9490(2) 0.3188(3) 0.9729(3)
O5 O 0.7249(4) 0.0174(9) 0.8695(6)
O15 O 0.6910(5) 0.0873(9) 0.9496(6)
O17 O 0.5809(5) 0.0017(11) 0.9662(6)
O24 O 0.5910(6) 0.0288(11) 0.8690(7)
C3 C 0.7448(9) 0.9677(15) 0.0982(10)
C32 C 0.97379(14) 0.7337(2) 0.0558(2)
H18 H 0.9629 0.7613 0.0191
C33 C 0.94293(14) 0.7472(2) 0.1073(2)
C34 C 0.95879(14) 0.7068(2) 0.1610(2)
H19 H 0.9377 0.7160 0.1962
C36 C 0.89190(14) 0.8043(2) 0.1030(2)
C37 C 0.85864(14) 0.8017(3) 0.0526(2)
H21 H 0.8684 0.7644 0.0193
C38 C 0.81113(15) 0.8536(3) 0.0510(2)
H22 H 0.7884 0.8518 0.0166
C39 C 0.79687(15) 0.9081(3) 0.0997(3)
C40 C 0.83014(16) 0.9107(3) 0.1501(2)
H23 H 0.8204 0.9480 0.1834
C41 C 0.87765(15) 0.8588(3) 0.1517(2)
H24 H 0.9004 0.8606 0.1861
O2 O 0.7249(6) 0.9808(11) 0.1497(7)
O9 O 0.7297(6) 0.9905(11) 0.0494(7)
Ru1 Ru 0.65484(7) 0.99634(18) 0.00960(16)
O20 O 0.6219(6) 0.9072(10) 0.0732(6)
Zn1 Zn 0.65568(8) 0.95773(16) 0.85209(14)
O21 O 0.6495(6) 0.9628(12) 0.7664(5)
O22 O 0.6788(6) 0.8762(9) 0.9634(6)
O23 O 0.6437(6) 0.8304(10) 0.8763(7)
C9_2 C 0.6733(3) 0.0022(4) 0.5479(2)
C10_2 C 0.6357(3) 0.0355(4) 0.5892(2)
H3_2 H 0.6064 0.0730 0.5761
C11_2 C 0.6411(3) 0.0138(4) 0.6496(2)
H4_2 H 0.6155 0.0365 0.6778
C12_2 C 0.6654(2) 0.0257(3) 0.4810(2)
C13_2 C 0.7090(2) 0.0222(3) 0.4415(2)
H5_2 H 0.7446 0.0098 0.4560
C14_2 C 0.70062(19) 0.0370(3) 0.3806(2)
H6_2 H 0.7305 0.0346 0.3536
C15_2 C 0.64857(18) 0.0552(3) 0.3593(2)
C16_2 C 0.6049(2) 0.0587(3) 0.3988(2)
H7_2 H 0.5693 0.0712 0.3843
C17_2 C 0.6133(2) 0.0439(3) 0.4597(2)
H8_2 H 0.5835 0.0463 0.4867
C18_2 C 0.63452(18) 0.2700(3) 0.0684(2)
C19_2 C 0.62928(19) 0.3447(3) 0.1069(2)
H9_2 H 0.6257 0.3348 0.1488
C20_2 C 0.6293(2) 0.4338(3) 0.0842(3)
H10_2 H 0.6257 0.4849 0.1106
C21_2 C 0.6345(2) 0.4483(3) 0.0229(3)
C23_2 C 0.63976(19) 0.2845(3) 0.0071(2)
C25_2 C 0.6607(3) 0.6154(3) 0.0349(3)
H13_2 H 0.6714 0.6029 0.0750
C26_2 C 0.6661(3) 0.7038(3) 0.0118(3)
H14_2 H 0.6805 0.7518 0.0361
C55_2 C 0.6379(8) 0.1730(15) 0.0957(9)
C56_2 C 0.6373(6) 0.0602(15) 0.2943(9)
O8_2 O 0.6755(6) 0.0417(11) 0.2591(5)
O12_2 O 0.6483(6) 0.1657(11) 0.1472(7)
O16_2 O 0.5926(6) 0.0931(12) 0.2782(7)
C2_2 C 0.6569(8) 0.8167(16) 0.9318(11)
C22 C 0.6398(2) 0.3736(3) 0.9843(3)
H11 H 0.6433 0.3835 0.9424
H12 H 0.6433 0.2334 0.9807
C24_2 C 0.6396(2) 0.5453(3) 0.9994(3)
C27_2 C 0.6505(3) 0.7222(3) 0.9531(3)
C28_2 C 0.6294(3) 0.6521(3) 0.9176(3)
H15_2 H 0.6188 0.6646 0.8775
C29_2 C 0.6240(3) 0.5636(3) 0.9407(3)
H16_2 H 0.6096 0.5157 0.9164
C1_2 C 0.5886(9) 0.9133(16) 0.1120(10)
C3_2 C 0.2448(9) 0.5323(15) 0.0982(10)
C6_2 C 0.6841(3) 0.9588(4) 0.6687(2)
C7_2 C 0.7216(3) 0.9255(4) 0.6275(2)
H1_2 H 0.7510 0.8879 0.6405
C8_2 C 0.7162(3) 0.9472(4) 0.5671(2)
H2_2 H 0.7419 0.9244 0.5389
C30_2 C 0.53636(14) 0.8606(2) 0.1118(2)
C31_2 C 0.52050(14) 0.8202(2) 0.0581(2)
H17_2 H 0.5416 0.8295 0.0229
C32_2 C 0.47379(14) 0.7663(2) 0.0558(2)
H18_2 H 0.4629 0.7387 0.0191
C33_2 C 0.44293(14) 0.7528(2) 0.1073(2)
C34_2 C 0.45879(14) 0.7932(2) 0.1610(2)
H19_2 H 0.4377 0.7840 0.1962
C35_2 C 0.50551(14) 0.8471(2) 0.1633(2)
H20_2 H 0.5163 0.8747 0.2000
C36_2 C 0.39190(14) 0.6957(2) 0.1030(2)
C37_2 C 0.35864(14) 0.6983(3) 0.0526(2)
H21_2 H 0.3684 0.7356 0.0193
C38_2 C 0.31113(15) 0.6464(3) 0.0510(2)
H22_2 H 0.2884 0.6482 0.0166
C39_2 C 0.29687(15) 0.5919(3) 0.0997(3)
C40_2 C 0.33014(16) 0.5893(3) 0.1501(2)
H23_2 H 0.3204 0.5520 0.1834
C41_2 C 0.37765(15) 0.6412(3) 0.1517(2)
H24_2 H 0.4004 0.6394 0.1861
H31_2 H 0.5139 0.1137 0.0093
H32_2 H 0.4347 0.2033 0.0098
C54_2 C 0.6892(7) 0.9365(14) 0.7305(9)
O6_2 O 0.7314(6) 0.8957(12) 0.7511(7)
O9_2 O 0.2297(6) 0.5095(11) 0.0494(7)
O13_2 O 0.5945(6) 0.9617(10) 0.1626(7)
C4_2 C 0.2272(7) 0.4256(13) 0.9110(7)
C5_2 C 0.5698(8) 0.0407(17) 0.9167(10)
C42_2 C 0.27886(19) 0.3673(3) 0.9147(3)
C43_2 C 0.3170(2) 0.3742(3) 0.8689(3)
H25_2 H 0.3110 0.4155 0.8365
C44_2 C 0.3639(2) 0.3206(3) 0.8704(3)
H26_2 H 0.3899 0.3253 0.8391
C45_2 C 0.3726(2) 0.2602(3) 0.9178(3)
C46_2 C 0.3344(2) 0.2533(3) 0.9636(3)
H27_2 H 0.3404 0.2120 0.9959
C47_2 C 0.2876(2) 0.3069(3) 0.9620(3)
H28_2 H 0.2615 0.3022 0.9933
C48_2 C 0.4229(2) 0.2020(3) 0.9194(3)
C49_2 C 0.4439(2) 0.1696(3) 0.8655(3)
H29_2 H 0.4261 0.1839 0.8288
C50_2 C 0.4910(2) 0.1165(3) 0.8652(3)
H30_2 H 0.5053 0.0944 0.8283
C51_2 C 0.5170(2) 0.0956(3) 0.9188(3)
C52_2 C 0.4961(2) 0.1280(3) 0.9726(3)
C53_2 C 0.4490(2) 0.1812(3) 0.9729(3)
O5_2 O 0.2249(4) 0.4826(9) 0.8695(6)
O15_2 O 0.1910(5) 0.4127(9) 0.9496(6)
C22_2 C 0.1398(2) 0.1264(3) 0.9843(3)
H11_2 H 0.1433 0.1165 0.9424
H12_2 H 0.1433 0.2666 0.9807
C3_3 C 0.2552(9) 0.0323(15) 0.5982(10)
C32_3 C 0.02621(14) 0.2663(2) 0.5558(2)
H18_3 H 0.0371 0.2387 0.5191
C33_3 C 0.05707(14) 0.2528(2) 0.6073(2)
C34_3 C 0.04121(14) 0.2932(2) 0.6610(2)
H19_3 H 0.0623 0.2840 0.6962
C36_3 C 0.10810(14) 0.1957(2) 0.6030(2)
C37_3 C 0.14136(14) 0.1983(3) 0.5526(2)
H21_3 H 0.1316 0.2356 0.5193
C38_3 C 0.18887(15) 0.1464(3) 0.5510(2)
H22_3 H 0.2116 0.1482 0.5166
C39_3 C 0.20313(15) 0.0919(3) 0.5997(3)
C40_3 C 0.16986(16) 0.0893(3) 0.6501(2)
H23_3 H 0.1796 0.0520 0.6834
C41_3 C 0.12235(15) 0.1412(3) 0.6517(2)
H24_3 H 0.0996 0.1394 0.6861
O2_2 O 0.2751(6) 0.0192(11) 0.6497(7)
O9_3 O 0.2703(6) 0.0095(11) 0.5494(7)
Ru1_2 Ru 0.34516(7) 0.00366(18) 0.50960(16)
Zn1_2 Zn 0.34432(8) 0.04227(16) 0.35209(14)
O20_2 O 0.3781(6) 0.0928(10) 0.5732(6)
O21_2 O 0.3505(6) 0.0372(12) 0.2664(5)
O22_2 O 0.3212(6) 0.1238(9) 0.4634(6)
O23_2 O 0.3563(6) 0.1696(10) 0.3763(7)
C4_3 C 0.2728(7) 0.9256(13) 0.4110(7)
C42_3 C 0.22114(19) 0.8673(3) 0.4147(3)
C43_3 C 0.1830(2) 0.8742(3) 0.3689(3)
H25_3 H 0.1890 0.9155 0.3365
C44_3 C 0.1361(2) 0.8206(3) 0.3704(3)
H26_3 H 0.1101 0.8253 0.3391
C45_3 C 0.1274(2) 0.7602(3) 0.4178(3)
C46_3 C 0.1656(2) 0.7533(3) 0.4636(3)
H27_3 H 0.1596 0.7120 0.4959
C47_3 C 0.2124(2) 0.8069(3) 0.4620(3)
H28_3 H 0.2385 0.8022 0.4933
C48_3 C 0.0771(2) 0.7020(3) 0.4194(3)
C49_3 C 0.0561(2) 0.6696(3) 0.3655(3)
H29_3 H 0.0739 0.6839 0.3288
C50_3 C 0.0090(2) 0.6165(3) 0.3652(3)
C52_3 C 0.0039(2) 0.6280(3) 0.4726(3)
C53_3 C 0.0510(2) 0.6812(3) 0.4729(3)
H32_3 H 0.0653 0.7033 0.5098
O5_3 O 0.2751(4) 0.9826(9) 0.3695(6)
O15_3 O 0.3090(5) 0.9127(9) 0.4496(6)
O17_2 O 0.4191(5) 0.9983(11) 0.4662(6)
O19_2 O 0.3711(6) 0.8894(9) 0.5590(6)
O24_2 O 0.4090(6) 0.9712(11) 0.3690(7)
Zn6_2 Zn 0.34187(8) 0.96243(17) 0.67378(14)
C2_3 C 0.8431(8) 0.3167(16) 0.4318(11)
C24_3 C 0.8604(2) 0.0453(3) 0.4994(3)
C25_3 C 0.8393(3) 0.1154(3) 0.5349(3)
H13_3 H 0.8286 0.1029 0.5750
C26_3 C 0.8339(3) 0.2038(3) 0.5118(3)
H14_3 H 0.8195 0.2518 0.5361
C27_3 C 0.8495(3) 0.2222(3) 0.4531(3)
C28_3 C 0.8706(3) 0.1521(3) 0.4176(3)
H15_3 H 0.8812 0.1646 0.3775
C29_3 C 0.8760(3) 0.0636(3) 0.4407(3)
H16_3 H 0.8904 0.0157 0.4164
O10_2 O 0.8212(6) 0.3762(9) 0.4634(6)
O11_2 O 0.8563(6) 0.3304(10) 0.3763(7)
Ru2 Ru 0.84516(7) 0.49634(18) 0.50960(16)
Zn3 Zn 0.84432(8) 0.45773(16) 0.35209(14)
C6_3 C 0.8159(3) 0.4588(4) 0.1687(2)
C7_3 C 0.7784(3) 0.4255(4) 0.1275(2)
H1_3 H 0.7490 0.3879 0.1405
C8_3 C 0.7838(3) 0.4472(4) 0.0671(2)
H2_3 H 0.7581 0.4244 0.0389
C9_3 C 0.8267(3) 0.5022(4) 0.0479(2)
C10_3 C 0.8643(3) 0.5355(4) 0.0892(2)
H3_3 H 0.8936 0.5730 0.0761
C11_3 C 0.8589(3) 0.5138(4) 0.1496(2)
H4_3 H 0.8845 0.5365 0.1778
C54_3 C 0.8108(7) 0.4365(14) 0.2305(9)
O6_3 O 0.7686(6) 0.3957(12) 0.2511(7)
O7_2 O 0.8505(6) 0.4628(12) 0.2664(5)
C1_3 C 0.9114(9) 0.4133(16) 0.6120(10)
C12_3 C 0.8346(2) 0.5257(3) 0.9810(2)
C13_3 C 0.7910(2) 0.5222(3) 0.9415(2)
H5_3 H 0.7554 0.5098 0.9560
C14_3 C 0.79938(19) 0.5370(3) 0.8806(2)
H6_3 H 0.7695 0.5346 0.8536
C15_3 C 0.85143(18) 0.5552(3) 0.8593(2)
C16_3 C 0.8951(2) 0.5587(3) 0.8988(2)
H7_3 H 0.9307 0.5712 0.8843
C17_3 C 0.8867(2) 0.5439(3) 0.9597(2)
H8_3 H 0.9165 0.5463 0.9867
C18_3 C 0.86548(18) 0.7700(3) 0.5684(2)
C19_3 C 0.87072(19) 0.8447(3) 0.6069(2)
H9_3 H 0.8743 0.8348 0.6488
C20_3 C 0.8707(2) 0.9338(3) 0.5842(3)
H10_3 H 0.8743 0.9849 0.6106
C21_3 C 0.8655(2) 0.9483(3) 0.5229(3)
C22_3 C 0.8602(2) 0.8736(3) 0.4843(3)
H11_3 H 0.8567 0.8835 0.4424
C23_3 C 0.86024(19) 0.7845(3) 0.5071(2)
H12_3 H 0.8567 0.7334 0.4807
C30_3 C 0.96364(14) 0.3606(2) 0.6118(2)
C31_3 C 0.97950(14) 0.3202(2) 0.5581(2)
H17_3 H 0.9584 0.3295 0.5229
C35_3 C 0.99449(14) 0.3471(2) 0.6633(2)
H20_3 H 0.9837 0.3747 0.7000
C55_3 C 0.8621(8) 0.6730(15) 0.5957(9)
C56_3 C 0.8627(6) 0.5602(15) 0.7943(9)
O3_2 O 0.8711(6) 0.6106(9) 0.5590(6)
O4_2 O 0.8781(6) 0.4072(10) 0.5732(6)
O8_3 O 0.8245(6) 0.5417(11) 0.7591(5)
O12_3 O 0.8517(6) 0.6657(11) 0.6472(7)
O13_3 O 0.9055(6) 0.4617(10) 0.6626(7)
O16_3 O 0.9074(6) 0.5931(12) 0.7782(7)
Zn2_2 Zn 0.84187(8) 0.53757(17) 0.67378(14)
O18_2 O 0.7751(6) 0.4808(11) 0.6497(7)
C5_3 C 0.9302(8) 0.5407(17) 0.4167(10)
H30_3 H 0.9947 0.5944 0.3283
C51_3 C 0.9830(2) 0.5956(3) 0.4188(3)
H31_3 H 0.9861 0.6137 0.5093
O1_2 O 0.9191(5) 0.5017(11) 0.4662(6)
O14_2 O 0.9090(6) 0.5288(11) 0.3690(7)
C6_4 C 0.3159(3) 0.0412(4) 0.1687(2)
C7_4 C 0.2784(3) 0.0745(4) 0.1275(2)
H1_4 H 0.2490 0.1121 0.1405
C8_4 C 0.2838(3) 0.0528(4) 0.0671(2)
H2_4 H 0.2581 0.0756 0.0389
C54_4 C 0.3108(7) 0.0635(14) 0.2305(9)
O6_4 O 0.2686(6) 0.1043(12) 0.2511(7)
C1_4 C 0.4114(9) 0.0867(16) 0.6120(10)
C3_4 C 0.7552(9) 0.4677(15) 0.5982(10)
C4_4 C 0.7728(7) 0.5744(13) 0.4110(7)
C5_4 C 0.4302(8) 0.9593(17) 0.4167(10)
C30_4 C 0.46364(14) 0.1394(2) 0.6118(2)
C31_4 C 0.47950(14) 0.1798(2) 0.5581(2)
H17_4 H 0.4584 0.1705 0.5229
C32_4 C 0.52621(14) 0.2337(2) 0.5558(2)
H18_4 H 0.5371 0.2613 0.5191
C33_4 C 0.55707(14) 0.2472(2) 0.6073(2)
C34_4 C 0.54121(14) 0.2068(2) 0.6610(2)
H19_4 H 0.5623 0.2160 0.6962
C35_4 C 0.49449(14) 0.1529(2) 0.6633(2)
H20_4 H 0.4837 0.1253 0.7000
C36_4 C 0.60810(14) 0.3043(2) 0.6030(2)
C37_4 C 0.64136(14) 0.3017(3) 0.5526(2)
H21_4 H 0.6316 0.2644 0.5193
C38_4 C 0.68887(15) 0.3536(3) 0.5510(2)
H22_4 H 0.7116 0.3518 0.5166
C39_4 C 0.70313(15) 0.4081(3) 0.5997(3)
C40_4 C 0.66986(16) 0.4107(3) 0.6501(2)
H23_4 H 0.6796 0.4480 0.6834
C41_4 C 0.62235(15) 0.3588(3) 0.6517(2)
H24_4 H 0.5996 0.3606 0.6861
C42_4 C 0.72114(19) 0.6327(3) 0.4147(3)
C43_4 C 0.6830(2) 0.6258(3) 0.3689(3)
H25_4 H 0.6890 0.5845 0.3365
C44_4 C 0.6361(2) 0.6794(3) 0.3704(3)
H26_4 H 0.6101 0.6747 0.3391
C45_4 C 0.6274(2) 0.7398(3) 0.4178(3)
C46_4 C 0.6656(2) 0.7467(3) 0.4636(3)
H27_4 H 0.6596 0.7880 0.4959
C47_4 C 0.7124(2) 0.6931(3) 0.4620(3)
H28_4 H 0.7385 0.6978 0.4933
C48_4 C 0.5771(2) 0.7980(3) 0.4194(3)
C49_4 C 0.5561(2) 0.8304(3) 0.3655(3)
H29_4 H 0.5739 0.8161 0.3288
C50_4 C 0.5090(2) 0.8835(3) 0.3652(3)
H30_4 H 0.4947 0.9056 0.3283
C51_4 C 0.4830(2) 0.9044(3) 0.4188(3)
C52_4 C 0.5039(2) 0.8720(3) 0.4726(3)
H31_4 H 0.4861 0.8863 0.5093
C53_4 C 0.5510(2) 0.8188(3) 0.4729(3)
H32_4 H 0.5653 0.7967 0.5098
O5_4 O 0.7751(4) 0.5174(9) 0.3695(6)
O9_4 O 0.7703(6) 0.4905(11) 0.5494(7)
O13_4 O 0.4055(6) 0.0383(10) 0.6626(7)
O15_4 O 0.8090(5) 0.5873(9) 0.4496(6)
C2_4 C 0.3431(8) 0.1833(16) 0.4318(11)
C12_4 C 0.3346(2) 0.9743(3) 0.9810(2)
C13_4 C 0.2910(2) 0.9778(3) 0.9415(2)
H5_4 H 0.2554 0.9902 0.9560
C14_4 C 0.29938(19) 0.9630(3) 0.8806(2)
H6_4 H 0.2695 0.9654 0.8536
C15_4 C 0.35143(18) 0.9448(3) 0.8593(2)
C16_4 C 0.3951(2) 0.9413(3) 0.8988(2)
H7_4 H 0.4307 0.9288 0.8843
C17_4 C 0.3867(2) 0.9561(3) 0.9597(2)
H8_4 H 0.4165 0.9537 0.9867
C18_4 C 0.36548(18) 0.7300(3) 0.5684(2)
C19_4 C 0.37072(19) 0.6553(3) 0.6069(2)
H9_4 H 0.3743 0.6652 0.6488
C20_4 C 0.3707(2) 0.5662(3) 0.5842(3)
H10_4 H 0.3743 0.5151 0.6106
C21_4 C 0.3655(2) 0.5517(3) 0.5229(3)
C22_4 C 0.3602(2) 0.6264(3) 0.4843(3)
H11_4 H 0.3567 0.6165 0.4424
C23_4 C 0.36024(19) 0.7155(3) 0.5071(2)
H12_4 H 0.3567 0.7666 0.4807
C24_4 C 0.3604(2) 0.4547(3) 0.4994(3)
C25_4 C 0.3393(3) 0.3846(3) 0.5349(3)
H13_4 H 0.3286 0.3971 0.5750
C26_4 C 0.3339(3) 0.2962(3) 0.5118(3)
H14_4 H 0.3195 0.2482 0.5361
C27_4 C 0.3495(3) 0.2778(3) 0.4531(3)
C28_4 C 0.3706(3) 0.3479(3) 0.4176(3)
H15_4 H 0.3812 0.3354 0.3775
C29_4 C 0.3760(3) 0.4364(3) 0.4407(3)
H16_4 H 0.3904 0.4843 0.4164
C55_4 C 0.3621(8) 0.8270(15) 0.5957(9)
C56_4 C 0.3627(6) 0.9398(15) 0.7943(9)
O8_4 O 0.3245(6) 0.9583(11) 0.7591(5)
O12_4 O 0.3517(6) 0.8343(11) 0.6472(7)
O16_4 O 0.4074(6) 0.9069(12) 0.7782(7)
C9_4 C 0.3267(3) 0.9978(4) 0.0479(2)
C10_4 C 0.3643(3) 0.9645(4) 0.0892(2)
H3_4 H 0.3936 0.9270 0.0761
C11_4 C 0.3589(3) 0.9862(4) 0.1496(2)
H4_4 H 0.3845 0.9635 0.1778
H33 H 0.0302 0.3578 0.1150
N1 N 0.0114(8) 0.3607(16) 0.2018(8)
H36 H 0.0208 0.3005 0.2069
H37 H 0.0413 0.3951 0.2109
C57 C 0.9988(10) 0.375(2) 0.1396(9)
H34 H 0.9675 0.3366 0.1285
H35 H 0.9899 0.4399 0.1329
C58 C 0.9694(11) 0.382(3) 0.2442(12)
H38 H 0.9825 0.3702 0.2849
H39 H 0.9597 0.4477 0.2405
H40 H 0.9373 0.3444 0.2360
C57_2 C 0.0012(10) 0.625(2) 0.6396(9)
H34_2 H 0.0325 0.6634 0.6285
H35_2 H 0.0101 0.5601 0.6329
C58_2 C 0.0306(11) 0.618(3) 0.7442(12)
H38_2 H 0.0175 0.6298 0.7849
H39_2 H 0.0403 0.5523 0.7405
H40_2 H 0.0627 0.6556 0.7360
H33_2 H 0.9698 0.6422 0.6150
N1_2 N 0.9886(8) 0.6393(16) 0.7018(8)
H36_2 H 0.9792 0.6995 0.7069
H37_2 H 0.9587 0.6049 0.7109
C57_3 C 0.4988(10) 0.125(2) 0.1396(9)
H33_3 H 0.5302 0.1422 0.1150
H34_3 H 0.4675 0.1634 0.1285
H35_3 H 0.4899 0.0601 0.1329
N1_3 N 0.5114(8) 0.1393(16) 0.2018(8)
H36_3 H 0.5208 0.1995 0.2069
H37_3 H 0.5413 0.1049 0.2109
C58_3 C 0.4694(11) 0.118(3) 0.2442(12)
H38_3 H 0.4825 0.1298 0.2849
H39_3 H 0.4597 0.0523 0.2405
H40_3 H 0.4373 0.1556 0.2360
C57_4 C 0.5012(10) 0.875(2) 0.6396(9)
H33_4 H 0.4698 0.8578 0.6150
H34_4 H 0.5325 0.8366 0.6285
H35_4 H 0.5101 0.9399 0.6329
N1_4 N 0.4886(8) 0.8607(16) 0.7018(8)
H36_4 H 0.4792 0.8005 0.7069
H37_4 H 0.4587 0.8951 0.7109
C58_4 C 0.5306(11) 0.882(3) 0.7442(12)
H38_4 H 0.5175 0.8702 0.7849
H39_4 H 0.5403 0.9477 0.7405
H40_4 H 0.5627 0.8444 0.7360
C59 C 0.3497(10) 0.671(2) 0.7873(10)
H41 H 0.3637 0.6201 0.7632
H42 H 0.3291 0.7135 0.7616
H43 H 0.3802 0.7044 0.8057
N2 N 0.3145(8) 0.6358(14) 0.8335(8)
H44 H 0.3340 0.5953 0.8562
H45 H 0.2872 0.6037 0.8157
C60 C 0.2907(9) 0.7034(18) 0.8729(11)
H46 H 0.2677 0.6724 0.9025
H47 H 0.3197 0.7374 0.8935
H48 H 0.2686 0.7465 0.8494
C59_2 C 0.6503(10) 0.329(2) 0.2873(10)
H41_2 H 0.6363 0.3799 0.2632
H42_2 H 0.6709 0.2865 0.2616
H43_2 H 0.6198 0.2956 0.3057
N2_2 N 0.6855(8) 0.3642(14) 0.3335(8)
H44_2 H 0.6660 0.4047 0.3562
H45_2 H 0.7128 0.3963 0.3157
C60_2 C 0.7093(9) 0.2966(18) 0.3729(11)
H46_2 H 0.7323 0.3276 0.4025
H47_2 H 0.6803 0.2626 0.3935
H48_2 H 0.7314 0.2535 0.3494
C59_3 C 0.8497(10) 0.829(2) 0.7873(10)
H41_3 H 0.8637 0.8799 0.7632
H42_3 H 0.8291 0.7865 0.7616
H43_3 H 0.8802 0.7956 0.8057
N2_3 N 0.8145(8) 0.8642(14) 0.8335(8)
H44_3 H 0.8340 0.9047 0.8562
H45_3 H 0.7872 0.8963 0.8157
C60_3 C 0.7907(9) 0.7966(18) 0.8729(11)
H46_3 H 0.7677 0.8276 0.9025
H47_3 H 0.8197 0.7626 0.8935
H48_3 H 0.7686 0.7535 0.8494
C59_4 C 0.1503(10) 0.171(2) 0.2873(10)
H41_4 H 0.1363 0.1201 0.2632
H42_4 H 0.1709 0.2135 0.2616
H43_4 H 0.1198 0.2044 0.3057
N2_4 N 0.1855(8) 0.1358(14) 0.3335(8)
H44_4 H 0.1660 0.0953 0.3562
H45_4 H 0.2128 0.1037 0.3157
C60_4 C 0.2093(9) 0.2034(18) 0.3729(11)
H46_4 H 0.2323 0.1724 0.4025
H47_4 H 0.1803 0.2374 0.3935
H48_4 H 0.2314 0.2465 0.3494
loop_
_geom_bond_atom_site_label_1
_geom_bond_atom_site_label_2
_geom_bond_site_symmetry_1
_geom_bond_site_symmetry_2
C5 C51 1_555 1_555
O1 C5 1_555 1_555
O14 C5 1_555 1_555
Zn5 O14 1_555 1_555
C1 C30 1_555 1_555
C6 C7 1_555 1_555
C7 H1 1_555 1_555
C8 C7 1_555 1_555
H2 C8 1_555 1_555
C9 C8 1_555 1_555
C10 C9 1_555 1_555
H3 C10 1_555 1_555
C11 C6 1_555 1_555
H4 C11 1_555 1_555
C12 C9 1_555 1_555
C13 C12 1_555 1_555
H5 C13 1_555 1_555
C14 C13 1_555 1_555
H6 C14 1_555 1_555
C15 C14 1_555 1_555
C16 C15 1_555 1_555
H7 C16 1_555 1_555
C17 C12 1_555 1_555
H8 C17 1_555 1_555
C18 C19 1_555 1_555
C19 H9 1_555 1_555
C20 C19 1_555 1_555
H10 C20 1_555 1_555
C21 C20 1_555 1_555
C23 C18 1_555 1_555
C30 C31 1_555 1_555
C31 H17 1_555 1_555
C35 C30 1_555 1_555
H20 C35 1_555 1_555
C54 C6 1_555 1_555
C55 C18 1_555 1_555
C56 C15 1_555 1_555
O3 C55 1_555 1_555
O4 C1 1_555 1_555
O6 C54 1_555 1_555
O7 C54 1_555 1_555
O8 C56 1_555 1_555
O12 C55 1_555 1_555
O13 C1 1_555 1_555
O16 C56 1_555 1_555
Zn2 O8 1_555 1_555
O18 Zn2 1_555 1_555
Ru4 O3 1_555 1_555
Zn5 O7 1_555 1_555
C10 C11 1_555 1_555
C16 C17 1_555 1_555
O4 Ru4 1_555 1_555
O12 Zn2 1_555 1_555
O13 Zn2 1_555 1_555
H13 C25 1_555 1_555
C26 C25 1_555 1_555
H14 C26 1_555 1_555
C2 C27 1_555 1_555
C28 C27 1_555 1_555
H15 C28 1_555 1_555
C29 C24 1_555 1_555
H16 C29 1_555 1_555
O10 C2 1_555 1_555
O11 C2 1_555 1_555
Zn5 O11 1_555 1_555
C28 C29 1_555 1_555
C4 C42 1_555 1_555
C42 C43 1_555 1_555
C43 H25 1_555 1_555
C44 C43 1_555 1_555
H26 C44 1_555 1_555
C45 C44 1_555 1_555
C46 C45 1_555 1_555
H27 C46 1_555 1_555
C47 C42 1_555 1_555
H28 C47 1_555 1_555
C48 C45 1_555 1_555
C49 C48 1_555 1_555
H29 C49 1_555 1_555
C50 C49 1_555 1_555
C53 C48 1_555 1_555
O5 C4 1_555 1_555
O15 C4 1_555 1_555
C46 C47 1_555 1_555
C52 C53 1_555 1_555
C3 C39 1_555 1_555
H18 C32 1_555 1_555
C33 C32 1_555 1_555
C34 C33 1_555 1_555
H19 C34 1_555 1_555
C36 C33 1_555 1_555
C37 C36 1_555 1_555
H21 C37 1_555 1_555
C38 C37 1_555 1_555
H22 C38 1_555 1_555
C39 C38 1_555 1_555
C40 C39 1_555 1_555
H23 C40 1_555 1_555
C41 C36 1_555 1_555
H24 C41 1_555 1_555
O2 C3 1_555 1_555
O9 C3 1_555 1_555
Ru1 O9 1_555 1_555
O20 Ru1 1_555 1_555
C40 C41 1_555 1_555
O21 Zn1 1_555 1_555
O23 Zn1 1_555 1_555
C10_2 C9_2 1_555 1_555
H3_2 C10_2 1_555 1_555
H4_2 C11_2 1_555 1_555
C12_2 C9_2 1_555 1_555
C13_2 C12_2 1_555 1_555
H5_2 C13_2 1_555 1_555
C14_2 C13_2 1_555 1_555
H6_2 C14_2 1_555 1_555
C15_2 C14_2 1_555 1_555
C16_2 C15_2 1_555 1_555
H7_2 C16_2 1_555 1_555
C17_2 C12_2 1_555 1_555
H8_2 C17_2 1_555 1_555
C18_2 C19_2 1_555 1_555
C19_2 H9_2 1_555 1_555
C20_2 C19_2 1_555 1_555
H10_2 C20_2 1_555 1_555
C21_2 C20_2 1_555 1_555
C23_2 C18_2 1_555 1_555
H13_2 C25_2 1_555 1_555
C26_2 C25_2 1_555 1_555
H14_2 C26_2 1_555 1_555
C55_2 C18_2 1_555 1_555
C56_2 C15_2 1_555 1_555
O19 C55_2 1_555 1_555
O8_2 C56_2 1_555 1_555
O12_2 C55_2 1_555 1_555
O16_2 C56_2 1_555 1_555
Zn6 O8_2 1_555 1_555
C10_2 C11_2 1_555 1_555
C16_2 C17_2 1_555 1_555
O12_2 Zn6 1_555 1_555
C2_2 C27_2 1_555 1_555
H11 C22 1_555 1_555
C28_2 C27_2 1_555 1_555
H15_2 C28_2 1_555 1_555
C29_2 C24_2 1_555 1_555
H16_2 C29_2 1_555 1_555
O22 C2_2 1_555 1_555
O23 C2_2 1_555 1_555
C28_2 C29_2 1_555 1_555
C1_2 C30_2 1_555 1_555
C3_2 C39_2 1_555 1_555
C6_2 C7_2 1_555 1_555
C7_2 H1_2 1_555 1_555
C8_2 C7_2 1_555 1_555
H2_2 C8_2 1_555 1_555
C30_2 C31_2 1_555 1_555
C31_2 H17_2 1_555 1_555
C32_2 C31_2 1_555 1_555
H18_2 C32_2 1_555 1_555
C33_2 C32_2 1_555 1_555
C34_2 C33_2 1_555 1_555
H19_2 C34_2 1_555 1_555
C35_2 C30_2 1_555 1_555
H20_2 C35_2 1_555 1_555
C36_2 C33_2 1_555 1_555
C37_2 C36_2 1_555 1_555
H21_2 C37_2 1_555 1_555
C38_2 C37_2 1_555 1_555
H22_2 C38_2 1_555 1_555
C39_2 C38_2 1_555 1_555
C40_2 C39_2 1_555 1_555
H23_2 C40_2 1_555 1_555
C41_2 C36_2 1_555 1_555
H24_2 C41_2 1_555 1_555
C54_2 C6_2 1_555 1_555
O18 C3_2 1_555 1_555
O20 C1_2 1_555 1_555
O6_2 C54_2 1_555 1_555
O21 C54_2 1_555 1_555
O9_2 C3_2 1_555 1_555
O13_2 C1_2 1_555 1_555
Ru4 O9_2 1_555 1_555
C34_2 C35_2 1_555 1_555
C40_2 C41_2 1_555 1_555
C4_2 C42_2 1_555 1_555
C5_2 C51_2 1_555 1_555
C42_2 C43_2 1_555 1_555
C43_2 H25_2 1_555 1_555
C44_2 C43_2 1_555 1_555
H26_2 C44_2 1_555 1_555
C45_2 C44_2 1_555 1_555
C46_2 C45_2 1_555 1_555
H27_2 C46_2 1_555 1_555
C47_2 C42_2 1_555 1_555
H28_2 C47_2 1_555 1_555
C48_2 C45_2 1_555 1_555
C49_2 C48_2 1_555 1_555
H29_2 C49_2 1_555 1_555
C50_2 C49_2 1_555 1_555
H30_2 C50_2 1_555 1_555
C51_2 C50_2 1_555 1_555
C52_2 C51_2 1_555 1_555
C53_2 C48_2 1_555 1_555
O17 C5_2 1_555 1_555
O5_2 C4_2 1_555 1_555
O24 C5_2 1_555 1_555
O15_2 C4_2 1_555 1_555
Zn5 O5_2 1_555 1_555
C46_2 C47_2 1_555 1_555
C52_2 C53_2 1_555 1_555
H11_2 C22_2 1_555 1_555
C3_3 C39_3 1_555 1_555
H18_3 C32_3 1_555 1_555
C33_3 C32_3 1_555 1_555
C34_3 C33_3 1_555 1_555
H19_3 C34_3 1_555 1_555
C36_3 C33_3 1_555 1_555
C37_3 C36_3 1_555 1_555
H21_3 C37_3 1_555 1_555
C38_3 C37_3 1_555 1_555
H22_3 C38_3 1_555 1_555
C39_3 C38_3 1_555 1_555
C40_3 C39_3 1_555 1_555
H23_3 C40_3 1_555 1_555
C41_3 C36_3 1_555 1_555
H24_3 C41_3 1_555 1_555
O2_2 C3_3 1_555 1_555
O9_3 C3_3 1_555 1_555
Ru1_2 O9_3 1_555 1_555
O20_2 Ru1_2 1_555 1_555
O21_2 Zn1_2 1_555 1_555
O22_2 Ru1_2 1_555 1_555
O23_2 Zn1_2 1_555 1_555
C40_3 C41_3 1_555 1_555
C4_3 C42_3 1_555 1_555
C42_3 C43_3 1_555 1_555
C43_3 H25_3 1_555 1_555
C44_3 C43_3 1_555 1_555
H26_3 C44_3 1_555 1_555
C45_3 C44_3 1_555 1_555
C46_3 C45_3 1_555 1_555
H27_3 C46_3 1_555 1_555
C47_3 C42_3 1_555 1_555
H28_3 C47_3 1_555 1_555
C48_3 C45_3 1_555 1_555
C49_3 C48_3 1_555 1_555
H29_3 C49_3 1_555 1_555
C50_3 C49_3 1_555 1_555
C53_3 C48_3 1_555 1_555
H32_3 C53_3 1_555 1_555
O5_3 C4_3 1_555 1_555
O15_3 C4_3 1_555 1_555
C46_3 C47_3 1_555 1_555
C52_3 C53_3 1_555 1_555
C2_3 C27_3 1_555 1_555
C25_3 C24_3 1_555 1_555
H13_3 C25_3 1_555 1_555
C26_3 C25_3 1_555 1_555
H14_3 C26_3 1_555 1_555
C27_3 C26_3 1_555 1_555
C28_3 C27_3 1_555 1_555
H15_3 C28_3 1_555 1_555
C29_3 C24_3 1_555 1_555
H16_3 C29_3 1_555 1_555
O10_2 C2_3 1_555 1_555
O11_2 C2_3 1_555 1_555
Ru2 O10_2 1_555 1_555
Zn3 O11_2 1_555 1_555
C28_3 C29_3 1_555 1_555
C6_3 C7_3 1_555 1_555
C7_3 H1_3 1_555 1_555
C8_3 C7_3 1_555 1_555
H2_3 C8_3 1_555 1_555
C9_3 C8_3 1_555 1_555
C10_3 C9_3 1_555 1_555
H3_3 C10_3 1_555 1_555
C11_3 C6_3 1_555 1_555
H4_3 C11_3 1_555 1_555
C54_3 C6_3 1_555 1_555
O6_3 C54_3 1_555 1_555
O7_2 C54_3 1_555 1_555
Zn3 O7_2 1_555 1_555
C10_3 C11_3 1_555 1_555
C1_3 C30_3 1_555 1_555
C13_3 C12_3 1_555 1_555
H5_3 C13_3 1_555 1_555
C14_3 C13_3 1_555 1_555
H6_3 C14_3 1_555 1_555
C15_3 C14_3 1_555 1_555
C16_3 C15_3 1_555 1_555
H7_3 C16_3 1_555 1_555
C17_3 C12_3 1_555 1_555
H8_3 C17_3 1_555 1_555
C18_3 C19_3 1_555 1_555
C19_3 H9_3 1_555 1_555
C20_3 C19_3 1_555 1_555
H10_3 C20_3 1_555 1_555
C21_3 C20_3 1_555 1_555
C22_3 C21_3 1_555 1_555
H11_3 C22_3 1_555 1_555
C23_3 C18_3 1_555 1_555
H12_3 C23_3 1_555 1_555
C30_3 C31_3 1_555 1_555
C31_3 H17_3 1_555 1_555
C35_3 C30_3 1_555 1_555
H20_3 C35_3 1_555 1_555
C55_3 C18_3 1_555 1_555
C56_3 C15_3 1_555 1_555
O3_2 C55_3 1_555 1_555
O4_2 C1_3 1_555 1_555
O8_3 C56_3 1_555 1_555
O12_3 C55_3 1_555 1_555
O13_3 C1_3 1_555 1_555
O16_3 C56_3 1_555 1_555
Zn2_2 O8_3 1_555 1_555
O18_2 Zn2_2 1_555 1_555
Ru2 O3_2 1_555 1_555
C16_3 C17_3 1_555 1_555
C22_3 C23_3 1_555 1_555
O4_2 Ru2 1_555 1_555
O12_3 Zn2_2 1_555 1_555
O13_3 Zn2_2 1_555 1_555
C5_3 C51_3 1_555 1_555
O1_2 C5_3 1_555 1_555
O14_2 C5_3 1_555 1_555
Ru2 O1_2 1_555 1_555
Zn3 O14_2 1_555 1_555
C6_4 C7_4 1_555 1_555
C7_4 H1_4 1_555 1_555
C8_4 C7_4 1_555 1_555
H2_4 C8_4 1_555 1_555
C54_4 C6_4 1_555 1_555
O6_4 C54_4 1_555 1_555
O21_2 C54_4 1_555 1_555
C1_4 C30_4 1_555 1_555
C3_4 C39_4 1_555 1_555
C4_4 C42_4 1_555 1_555
C5_4 C51_4 1_555 1_555
C30_4 C31_4 1_555 1_555
C31_4 H17_4 1_555 1_555
C32_4 C31_4 1_555 1_555
H18_4 C32_4 1_555 1_555
C33_4 C32_4 1_555 1_555
C34_4 C33_4 1_555 1_555
H19_4 C34_4 1_555 1_555
C35_4 C30_4 1_555 1_555
H20_4 C35_4 1_555 1_555
C36_4 C33_4 1_555 1_555
C37_4 C36_4 1_555 1_555
H21_4 C37_4 1_555 1_555
C38_4 C37_4 1_555 1_555
H22_4 C38_4 1_555 1_555
C39_4 C38_4 1_555 1_555
C40_4 C39_4 1_555 1_555
H23_4 C40_4 1_555 1_555
C41_4 C36_4 1_555 1_555
H24_4 C41_4 1_555 1_555
C42_4 C43_4 1_555 1_555
C43_4 H25_4 1_555 1_555
C44_4 C43_4 1_555 1_555
H26_4 C44_4 1_555 1_555
C45_4 C44_4 1_555 1_555
C46_4 C45_4 1_555 1_555
H27_4 C46_4 1_555 1_555
C47_4 C42_4 1_555 1_555
H28_4 C47_4 1_555 1_555
C48_4 C45_4 1_555 1_555
C49_4 C48_4 1_555 1_555
H29_4 C49_4 1_555 1_555
C50_4 C49_4 1_555 1_555
H30_4 C50_4 1_555 1_555
C51_4 C50_4 1_555 1_555
C52_4 C51_4 1_555 1_555
H31_4 C52_4 1_555 1_555
C53_4 C48_4 1_555 1_555
H32_4 C53_4 1_555 1_555
O17_2 C5_4 1_555 1_555
O18_2 C3_4 1_555 1_555
O20_2 C1_4 1_555 1_555
O5_4 C4_4 1_555 1_555
O9_4 C3_4 1_555 1_555
O13_4 C1_4 1_555 1_555
O24_2 C5_4 1_555 1_555
O15_4 C4_4 1_555 1_555
Ru2 O9_4 1_555 1_555
Zn3 O5_4 1_555 1_555
C34_4 C35_4 1_555 1_555
C40_4 C41_4 1_555 1_555
C46_4 C47_4 1_555 1_555
C52_4 C53_4 1_555 1_555
O15_4 Ru2 1_555 1_555
C2_4 C27_4 1_555 1_555
C13_4 C12_4 1_555 1_555
H5_4 C13_4 1_555 1_555
C14_4 C13_4 1_555 1_555
H6_4 C14_4 1_555 1_555
C15_4 C14_4 1_555 1_555
C16_4 C15_4 1_555 1_555
H7_4 C16_4 1_555 1_555
C17_4 C12_4 1_555 1_555
H8_4 C17_4 1_555 1_555
C18_4 C19_4 1_555 1_555
C19_4 H9_4 1_555 1_555
C20_4 C19_4 1_555 1_555
H10_4 C20_4 1_555 1_555
C21_4 C20_4 1_555 1_555
C22_4 C21_4 1_555 1_555
H11_4 C22_4 1_555 1_555
C23_4 C18_4 1_555 1_555
H12_4 C23_4 1_555 1_555
C24_4 C21_4 1_555 1_555
C25_4 C24_4 1_555 1_555
H13_4 C25_4 1_555 1_555
C26_4 C25_4 1_555 1_555
H14_4 C26_4 1_555 1_555
C27_4 C26_4 1_555 1_555
C28_4 C27_4 1_555 1_555
H15_4 C28_4 1_555 1_555
C29_4 C24_4 1_555 1_555
H16_4 C29_4 1_555 1_555
C55_4 C18_4 1_555 1_555
C56_4 C15_4 1_555 1_555
O19_2 C55_4 1_555 1_555
O8_4 C56_4 1_555 1_555
O22_2 C2_4 1_555 1_555
O23_2 C2_4 1_555 1_555
O12_4 C55_4 1_555 1_555
O16_4 C56_4 1_555 1_555
Zn6_2 O8_4 1_555 1_555
C16_4 C17_4 1_555 1_555
C22_4 C23_4 1_555 1_555
C28_4 C29_4 1_555 1_555
O12_4 Zn6_2 1_555 1_555
C10_4 C9_4 1_555 1_555
H3_4 C10_4 1_555 1_555
H4_4 C11_4 1_555 1_555
C10_4 C11_4 1_555 1_555
H36 N1 1_555 1_555
H37 N1 1_555 1_555
H34 C57 1_555 1_555
H35 C57 1_555 1_555
H38 C58 1_555 1_555
H39 C58 1_555 1_555
H40 C58 1_555 1_555
H34_2 C57_2 1_555 1_555
H35_2 C57_2 1_555 1_555
H38_2 C58_2 1_555 1_555
H39_2 C58_2 1_555 1_555
H40_2 C58_2 1_555 1_555
H36_2 N1_2 1_555 1_555
H37_2 N1_2 1_555 1_555
C57_3 H33_3 1_555 1_555
H34_3 C57_3 1_555 1_555
H35_3 C57_3 1_555 1_555
N1_3 C57_3 1_555 1_555
H36_3 N1_3 1_555 1_555
H37_3 N1_3 1_555 1_555
C58_3 N1_3 1_555 1_555
H38_3 C58_3 1_555 1_555
H39_3 C58_3 1_555 1_555
H40_3 C58_3 1_555 1_555
C57_4 H33_4 1_555 1_555
H34_4 C57_4 1_555 1_555
H35_4 C57_4 1_555 1_555
N1_4 C57_4 1_555 1_555
H36_4 N1_4 1_555 1_555
H37_4 N1_4 1_555 1_555
C58_4 N1_4 1_555 1_555
H38_4 C58_4 1_555 1_555
H39_4 C58_4 1_555 1_555
H40_4 C58_4 1_555 1_555
C59 H41 1_555 1_555
H42 C59 1_555 1_555
H43 C59 1_555 1_555
N2 C59 1_555 1_555
H44 N2 1_555 1_555
H45 N2 1_555 1_555
C60 N2 1_555 1_555
H46 C60 1_555 1_555
H47 C60 1_555 1_555
H48 C60 1_555 1_555
C59_2 H41_2 1_555 1_555
H42_2 C59_2 1_555 1_555
H43_2 C59_2 1_555 1_555
N2_2 C59_2 1_555 1_555
H44_2 N2_2 1_555 1_555
H45_2 N2_2 1_555 1_555
C60_2 N2_2 1_555 1_555
H46_2 C60_2 1_555 1_555
H47_2 C60_2 1_555 1_555
H48_2 C60_2 1_555 1_555
C59_3 H41_3 1_555 1_555
H42_3 C59_3 1_555 1_555
H43_3 C59_3 1_555 1_555
N2_3 C59_3 1_555 1_555
H44_3 N2_3 1_555 1_555
H45_3 N2_3 1_555 1_555
C60_3 N2_3 1_555 1_555
H46_3 C60_3 1_555 1_555
H47_3 C60_3 1_555 1_555
H48_3 C60_3 1_555 1_555
C59_4 H41_4 1_555 1_555
H42_4 C59_4 1_555 1_555
H43_4 C59_4 1_555 1_555
N2_4 C59_4 1_555 1_555
H44_4 N2_4 1_555 1_555
H45_4 N2_4 1_555 1_555
C60_4 N2_4 1_555 1_555
H46_4 C60_4 1_555 1_555
H47_4 C60_4 1_555 1_555
H48_4 C60_4 1_555 1_555

#END
