
###############################################################################
#
# This file contains modified crystal structure data generated from the
# MOF subset of the Cambridge Structural Database (CSD) v543 
# hosted by the Cambridge Crystallographic Data Centre (CCDC).
#
# This work is licensed under the Creative Commons
# Attribution-NonCommercial-ShareAlike 4.0 International License.
# To view a copy of this license, visit
# http://creativecommons.org/licenses/by-nc-sa/4.0/
# or send a letter to
# Creative Commons, PO Box 1866, Mountain View, CA 94042, USA.
#
# CIF created using the CSD Python API on 29 September 2022
# The structure has been converted into the P1 space group
# The structure has a 3D framework
# The original CSD entry KOZDEK is in the monoclinic crystal system
# The framework has been calculated to contain at least 10.0% void space
# The void calculation uses a probe of radius 1.32A, grid spacing 0.4
# The framework is charged, counterions have been retained in the structure
# H atom positions have been added when not included in the experimental data
#
###############################################################################

data_KOZDEK
_chemical_formula_moiety         '(C60 H36 Mn4 O32 4-)n'
_symmetry_cell_setting           triclinic
_symmetry_space_group_name_H-M   'P 1'
_symmetry_Int_Tables_number      1
_space_group_name_Hall           'P 1'
loop_
_symmetry_equiv_pos_site_id
_symmetry_equiv_pos_as_xyz
1 x,y,z
_cell_length_a                   14.5688(7)
_cell_length_b                   14.2833(9)
_cell_length_c                   9.8497(6)
_cell_angle_alpha                90
_cell_angle_beta                 100.280(3)
_cell_angle_gamma                90
_cell_volume                     2016.73
loop_
_atom_site_label
_atom_site_type_symbol
_atom_site_fract_x
_atom_site_fract_y
_atom_site_fract_z
O1 O 0.30835(19) 0.2324(2) 0.0849(3)
C1 C 0.1532(3) 0.1740(3) 0.0179(4)
C2 C 0.1208(3) 0.2157(3) 0.1280(4)
H1 H 0.1612 0.2517 0.1909
C3 C 0.0292(3) 0.2041(3) 0.1451(5)
H2 H 0.0081 0.2317 0.2193
C13 C 0.2531(3) 0.1827(3) 0.0007(4)
O10 O 0.4157(2) 0.0526(2) 0.1371(3)
O11 O 0.5379(2) 0.2325(2) 0.1278(3)
Mn1 Mn 0.43216(4) 0.16315(4) 0.99251(6)
O2 O 0.2799(2) 0.1392(2) 0.9040(3)
C6 C 0.0917(3) 0.1198(3) 0.9246(4)
H4 H 0.1128 0.0907 0.8515
O8 O 0.4224(2) 0.2772(2) 0.8420(3)
O9 O 0.49181(18) 0.0705(2) 0.8693(3)
H8 H 0.434037 0.33787 0.891295
H9 H 0.469659 0.267755 0.782049
O5 O 0.5355(2) 0.1148(2) 0.5764(3)
O6 O 0.5379(2) 0.2675(2) 0.6278(3)
C5 C 0.9997(3) 0.1090(3) 0.9399(5)
H3 H 0.9588 0.0739 0.8765
C7 C 0.8059(3) 0.1460(3) 0.9640(4)
C8 C 0.8046(3) 0.2160(3) 0.8669(5)
H5 H 0.8562 0.2546 0.8686
C9 C 0.7256(3) 0.2281(3) 0.7672(5)
H6 H 0.7241 0.2756 0.7023
C10 C 0.6481(3) 0.1701(3) 0.7625(4)
C11 C 0.6512(3) 0.0982(3) 0.8592(4)
C12 C 0.7310(3) 0.0862(3) 0.9603(4)
C14 C 0.5690(3) 0.0336(3) 0.8637(4)
C15 C 0.5667(3) 0.1842(3) 0.6458(4)
Mn4 Mn 0.43216(4) 0.33685(4) 0.49251(6)
Mn3 Mn 0.56784(4) 0.83685(4) 0.00749(6)
O4 O 0.5843(2) 0.9474(2) 0.8629(3)
O3 O 0.50819(18) 0.5705(2) 0.6307(3)
O4_2 O 0.4157(2) 0.4474(2) 0.6371(3)
O5_2 O 0.4645(2) 0.6148(2) 0.9236(3)
O6_2 O 0.4621(2) 0.7675(2) 0.8722(3)
O7 O 0.12054(19) 0.6363(3) 0.4248(3)
C4 C 0.0308(3) 0.6510(3) 0.4498(4)
C5_2 C 0.0003(3) 0.6090(3) 0.5601(5)
H3_2 H 0.0412 0.5739 0.6235
C7_2 C 0.1941(3) 0.6460(3) 0.5360(4)
C8_2 C 0.1954(3) 0.7160(3) 0.6331(5)
H5_2 H 0.1438 0.7546 0.6314
C9_2 C 0.2744(3) 0.7281(3) 0.7328(5)
H6_2 H 0.2759 0.7756 0.7977
C10_2 C 0.3519(3) 0.6701(3) 0.7375(4)
C11_2 C 0.3488(3) 0.5982(3) 0.6408(4)
C12_2 C 0.2690(3) 0.5862(3) 0.5397(4)
H7 H 0.2664 0.5382 0.4753
C14_2 C 0.4310(3) 0.5336(3) 0.6363(4)
C15_2 C 0.4333(3) 0.6842(3) 0.8542(4)
Mn2 Mn 0.56784(4) 0.66315(4) 0.50749(6)
O1_2 O 0.69165(19) 0.7324(2) 0.4151(3)
O2_2 O 0.7201(2) 0.6392(2) 0.5960(3)
C1_2 C 0.8468(3) 0.6740(3) 0.4821(4)
C2_2 C 0.8792(3) 0.7157(3) 0.3720(4)
H1_2 H 0.8388 0.7517 0.3091
C3_2 C 0.9708(3) 0.7041(3) 0.3549(5)
H2_2 H 0.9919 0.7317 0.2807
C6_2 C 0.9083(3) 0.6198(3) 0.5754(4)
H4_2 H 0.8872 0.5907 0.6485
C13_2 C 0.7469(3) 0.6827(3) 0.4993(4)
O8_2 O 0.5776(2) 0.7772(2) 0.6580(3)
O10_2 O 0.5843(2) 0.5526(2) 0.3629(3)
O11_2 O 0.4621(2) 0.7325(2) 0.3722(3)
H8_2 H 0.565963 0.83787 0.608705
H9_2 H 0.530341 0.767755 0.717951
O3_2 O 0.50819(18) 0.9295(2) 0.1307(3)
O5_3 O 0.4645(2) 0.8852(2) 0.4236(3)
C5_3 C 0.0003(3) 0.8910(3) 0.0601(5)
H3_3 H 0.0412 0.9261 0.1235
C7_3 C 0.1941(3) 0.8540(3) 0.0360(4)
C8_3 C 0.1954(3) 0.7840(3) 0.1331(5)
H5_3 H 0.1438 0.7454 0.1314
C9_3 C 0.2744(3) 0.7719(3) 0.2328(5)
H6_3 H 0.2759 0.7244 0.2977
C10_3 C 0.3519(3) 0.8299(3) 0.2375(4)
C11_3 C 0.3488(3) 0.9018(3) 0.1408(4)
C12_3 C 0.2690(3) 0.9138(3) 0.0397(4)
C14_3 C 0.4310(3) 0.9664(3) 0.1363(4)
C15_3 C 0.4333(3) 0.8158(3) 0.3542(4)
O2_3 O 0.7201(2) 0.8608(2) 0.0960(3)
C6_3 C 0.9083(3) 0.8802(3) 0.0754(4)
H4_3 H 0.8872 0.9093 0.1485
O8_3 O 0.5776(2) 0.7228(2) 0.1580(3)
H8_3 H 0.565963 0.66213 0.108705
H9_3 H 0.530341 0.732245 0.217951
O1_3 O 0.69165(19) 0.7676(2) 0.9151(3)
C1_3 C 0.8468(3) 0.8260(3) 0.9821(4)
C2_3 C 0.8792(3) 0.7843(3) 0.8720(4)
H1_3 H 0.8388 0.7483 0.8091
C3_3 C 0.9708(3) 0.7959(3) 0.8549(5)
H2_3 H 0.9919 0.7683 0.7807
C13_3 C 0.7469(3) 0.8173(3) 0.9993(4)
O1_4 O 0.30835(19) 0.2676(2) 0.5849(3)
O2_4 O 0.2799(2) 0.3608(2) 0.4040(3)
C1_4 C 0.1532(3) 0.3260(3) 0.5179(4)
C2_4 C 0.1208(3) 0.2843(3) 0.6280(4)
H1_4 H 0.1612 0.2483 0.6909
C3_4 C 0.0292(3) 0.2959(3) 0.6451(5)
H2_4 H 0.0081 0.2683 0.7193
C6_4 C 0.0917(3) 0.3802(3) 0.4246(4)
H4_4 H 0.1128 0.4093 0.3515
C13_4 C 0.2531(3) 0.3173(3) 0.5007(4)
O8_4 O 0.4224(2) 0.2228(2) 0.3420(3)
O9_2 O 0.49181(18) 0.4295(2) 0.3693(3)
H8_4 H 0.434037 0.16213 0.391295
H9_4 H 0.469659 0.232245 0.282049
O5_4 O 0.5355(2) 0.3852(2) 0.0764(3)
O7_2 O 0.87946(19) 0.3637(3) 0.5752(3)
C4_2 C 0.9692(3) 0.3490(3) 0.5502(4)
C5_4 C 0.9997(3) 0.3910(3) 0.4399(5)
H3_4 H 0.9588 0.4261 0.3765
C7_4 C 0.8059(3) 0.3540(3) 0.4640(4)
C8_4 C 0.8046(3) 0.2840(3) 0.3669(5)
H5_4 H 0.8562 0.2454 0.3686
C9_4 C 0.7256(3) 0.2719(3) 0.2672(5)
H6_4 H 0.7241 0.2244 0.2023
C10_4 C 0.6481(3) 0.3299(3) 0.2625(4)
C11_4 C 0.6512(3) 0.4018(3) 0.3592(4)
C12_4 C 0.7310(3) 0.4138(3) 0.4603(4)
H7_2 H 0.7336 0.4618 0.5247
C14_4 C 0.5690(3) 0.4664(3) 0.3637(4)
C15_4 C 0.5667(3) 0.3158(3) 0.1458(4)
O7_3 O 0.87946(19) 0.1363(3) 0.0752(3)
C4_3 C 0.9692(3) 0.1510(3) 0.0502(4)
H7_3 H 0.7336 0.0382 0.0247
O7_4 O 0.12054(19) 0.8637(3) 0.9248(3)
C4_4 C 0.0308(3) 0.8490(3) 0.9498(4)
H7_4 H 0.2664 0.9618 0.9753
loop_
_geom_bond_atom_site_label_1
_geom_bond_atom_site_label_2
_geom_bond_site_symmetry_1
_geom_bond_site_symmetry_2
O1 C13 1_555 1_555
C1 C2 1_555 1_555
C2 H1 1_555 1_555
C3 C2 1_555 1_555
H2 C3 1_555 1_555
C1 C13 1_555 1_555
O2 Mn1 1_555 1_555
H4 C6 1_555 1_555
O8 Mn1 1_555 1_555
O9 Mn1 1_555 1_555
O8 H8 1_555 1_555
O8 H9 1_555 1_555
O9 C14 1_555 1_555
O5 C15 1_555 1_555
O6 C15 1_555 1_555
H3 C5 1_555 1_555
C8 C7 1_555 1_555
H5 C8 1_555 1_555
C9 C8 1_555 1_555
H6 C9 1_555 1_555
C10 C9 1_555 1_555
C11 C10 1_555 1_555
C12 C7 1_555 1_555
C14 C11 1_555 1_555
C15 C10 1_555 1_555
Mn4 O6 1_555 1_555
C11 C12 1_555 1_555
O3 C14_2 1_555 1_555
O4_2 C14_2 1_555 1_555
O5_2 C15_2 1_555 1_555
O6_2 C15_2 1_555 1_555
O7 C4 1_555 1_555
C5_2 C4 1_555 1_555
H3_2 C5_2 1_555 1_555
C7_2 O7 1_555 1_555
C8_2 C7_2 1_555 1_555
H5_2 C8_2 1_555 1_555
C9_2 C8_2 1_555 1_555
H6_2 C9_2 1_555 1_555
C10_2 C9_2 1_555 1_555
C11_2 C10_2 1_555 1_555
C12_2 C7_2 1_555 1_555
H7 C12_2 1_555 1_555
C14_2 C11_2 1_555 1_555
C15_2 C10_2 1_555 1_555
Mn2 O3 1_555 1_555
Mn4 O4_2 1_555 1_555
C11_2 C12_2 1_555 1_555
Mn2 O1_2 1_555 1_555
O1_2 C13_2 1_555 1_555
O2_2 Mn2 1_555 1_555
C1_2 C2_2 1_555 1_555
C2_2 H1_2 1_555 1_555
C3_2 C2_2 1_555 1_555
H2_2 C3_2 1_555 1_555
C6_2 C1_2 1_555 1_555
H4_2 C6_2 1_555 1_555
C13_2 O2_2 1_555 1_555
O8_2 Mn2 1_555 1_555
O10_2 Mn2 1_555 1_555
O11_2 Mn2 1_555 1_555
C1_2 C13_2 1_555 1_555
O8_2 H8_2 1_555 1_555
O8_2 H9_2 1_555 1_555
O3_2 C14_3 1_555 1_555
O5_3 C15_3 1_555 1_555
O11_2 C15_3 1_555 1_555
H3_3 C5_3 1_555 1_555
C8_3 C7_3 1_555 1_555
H5_3 C8_3 1_555 1_555
C9_3 C8_3 1_555 1_555
H6_3 C9_3 1_555 1_555
C10_3 C9_3 1_555 1_555
C11_3 C10_3 1_555 1_555
C12_3 C7_3 1_555 1_555
C14_3 C11_3 1_555 1_555
C15_3 C10_3 1_555 1_555
Mn3 O3_2 1_555 1_555
C11_3 C12_3 1_555 1_555
O2_3 Mn3 1_555 1_555
H4_3 C6_3 1_555 1_555
O8_3 Mn3 1_555 1_555
O8_3 H8_3 1_555 1_555
O8_3 H9_3 1_555 1_555
O1_3 C13_3 1_555 1_555
C1_3 C2_3 1_555 1_555
C2_3 H1_3 1_555 1_555
C3_3 C2_3 1_555 1_555
H2_3 C3_3 1_555 1_555
C1_3 C13_3 1_555 1_555
Mn4 O1_4 1_555 1_555
O1_4 C13_4 1_555 1_555
O2_4 Mn4 1_555 1_555
C1_4 C2_4 1_555 1_555
C2_4 H1_4 1_555 1_555
C3_4 C2_4 1_555 1_555
H2_4 C3_4 1_555 1_555
C6_4 C1_4 1_555 1_555
H4_4 C6_4 1_555 1_555
C13_4 O2_4 1_555 1_555
O8_4 Mn4 1_555 1_555
O9_2 Mn4 1_555 1_555
C1_4 C13_4 1_555 1_555
O8_4 H8_4 1_555 1_555
O8_4 H9_4 1_555 1_555
O9_2 C14_4 1_555 1_555
O10_2 C14_4 1_555 1_555
O5_4 C15_4 1_555 1_555
O11 C15_4 1_555 1_555
O7_2 C4_2 1_555 1_555
C5_4 C4_2 1_555 1_555
H3_4 C5_4 1_555 1_555
C7_4 O7_2 1_555 1_555
C8_4 C7_4 1_555 1_555
H5_4 C8_4 1_555 1_555
C9_4 C8_4 1_555 1_555
H6_4 C9_4 1_555 1_555
C10_4 C9_4 1_555 1_555
C11_4 C10_4 1_555 1_555
C12_4 C7_4 1_555 1_555
H7_2 C12_4 1_555 1_555
C14_4 C11_4 1_555 1_555
C15_4 C10_4 1_555 1_555
C11_4 C12_4 1_555 1_555
O7_3 C4_3 1_555 1_555
O7_4 C4_4 1_555 1_555

#END
