
###############################################################################
#
# This file contains modified crystal structure data generated from the
# MOF subset of the Cambridge Structural Database (CSD) v543 
# hosted by the Cambridge Crystallographic Data Centre (CCDC).
#
# This work is licensed under the Creative Commons
# Attribution-NonCommercial-ShareAlike 4.0 International License.
# To view a copy of this license, visit
# http://creativecommons.org/licenses/by-nc-sa/4.0/
# or send a letter to
# Creative Commons, PO Box 1866, Mountain View, CA 94042, USA.
#
# CIF created using the CSD Python API on 29 September 2022
# The structure has been converted into the P1 space group
# The structure has a 3D framework
# The original CSD entry KOZQEX is in the cubic crystal system
# The framework has been calculated to contain at least 10.0% void space
# The void calculation uses a probe of radius 1.32A, grid spacing 0.4
# H atom positions have been added when not included in the experimental data
# Generated hydrogen atom positions removed from atoms on special positions
#
###############################################################################

data_KOZQEX
_chemical_formula_moiety         '(C252 H336 Cu36 N12 O108)n'
_symmetry_cell_setting           triclinic
_symmetry_space_group_name_H-M   'P 1'
_symmetry_Int_Tables_number      1
_space_group_name_Hall           'P 1'
loop_
_symmetry_equiv_pos_site_id
_symmetry_equiv_pos_as_xyz
1 x,y,z
_cell_length_a                   27.860(3)
_cell_length_b                   27.860(3)
_cell_length_c                   27.860(3)
_cell_angle_alpha                90
_cell_angle_beta                 90
_cell_angle_gamma                90
_cell_volume                     21624.4
loop_
_atom_site_label
_atom_site_type_symbol
_atom_site_fract_x
_atom_site_fract_y
_atom_site_fract_z
Cu8 Cu -0.0000 0.45244(5) 0.0000
Cu10 Cu 0.0000 0.54756(5) 0.0000
Cu8_2 Cu -0.0000 0.45244(5) 1.0000
Cu10_2 Cu -0.0000 0.54756(5) 1.0000
Cu1 Cu 0.5000 0.5000 0.24979(3)
Cu2 Cu 0.5000 0.5000 0.15536(3)
Cu3 Cu 0.45244(5) 0.0000 0.0000
O1 O 0.5000 0.43028(10) 0.16273(9)
O2 O 0.5000 0.43002(9) 0.24268(9)
O3 O 0.5000 0.5000 0.07856(19)
O4 O 0.5000 0.5000 0.32754(17)
O5 O 0.46012(18) 0.04997(8) 0.04997(8)
O6 O 0.3728(4) 0.0000 0.0000
N1 N 0.5000 0.20824(12) 0.20824(12)
C1 C 0.5000 0.40931(15) 0.20265(15)
C2 C 0.5000 0.35600(15) 0.20259(15)
C3 C 0.5000 0.33142(17) 0.15853(15)
H1 H 0.5000 0.3486 0.1299
C4 C 0.5000 0.28211(19) 0.15742(17)
H2 H 0.5000 0.2659 0.1282
C5 C 0.5000 0.25683(17) 0.19996(16)
C6 C 0.5000 0.28092(15) 0.24477(13)
C7 C 0.5000 0.33046(14) 0.24496(14)
H3 H 0.5000 0.3468 0.2741
C8 C 0.5000 0.17224(16) 0.17224(16)
C9 C 0.4612(3) 0.15591(16) 0.15591(16)
H4 H 0.4323 0.1678 0.1678
C10 C 0.4603(3) 0.11866(16) 0.11866(16)
H5 H 0.4310 0.1073 0.1073
C11 C 0.5000 0.10148(15) 0.10148(15)
C12 C 0.5000 0.06376(18) 0.06376(18)
O7 O 0.5000 0.16273(9) 0.43028(10)
O8 O 0.5000 0.24268(9) 0.43002(9)
O9 O 0.53988(18) 0.04997(8) 0.04997(8)
C13 C 0.5000 0.20265(15) 0.40931(15)
C14 C 0.5000 0.20259(15) 0.35600(15)
C15 C 0.5000 0.15853(15) 0.33142(17)
H6 H 0.5000 0.1299 0.3486
C16 C 0.5000 0.15742(17) 0.28211(19)
H7 H 0.5000 0.1282 0.2659
C17 C 0.5000 0.19996(16) 0.25683(17)
C18 C 0.5000 0.24477(13) 0.28092(15)
C19 C 0.5000 0.24496(14) 0.33046(14)
H8 H 0.5000 0.2741 0.3468
C20 C 0.5388(3) 0.15591(16) 0.15591(16)
H9 H 0.5677 0.1678 0.1678
C21 C 0.5397(3) 0.11866(16) 0.11866(16)
H10 H 0.5690 0.1073 0.1073
O10 O 0.56972(10) 0.5000 0.16273(9)
O11 O 0.56998(9) 0.5000 0.24268(9)
O12 O 0.95003(8) 0.46012(18) 0.04997(8)
N2 N 0.79176(12) 0.5000 0.20824(12)
C22 C 0.59069(15) 0.5000 0.20265(15)
C23 C 0.64400(15) 0.5000 0.20259(15)
C24 C 0.66858(17) 0.5000 0.15853(15)
H11 H 0.6514 0.5000 0.1299
C25 C 0.71789(19) 0.5000 0.15742(17)
H12 H 0.7341 0.5000 0.1282
C26 C 0.74317(17) 0.5000 0.19996(16)
C27 C 0.71908(15) 0.5000 0.24477(13)
C28 C 0.66954(14) 0.5000 0.24496(14)
H13 H 0.6532 0.5000 0.2741
C29 C 0.82776(16) 0.5000 0.17224(16)
C30 C 0.84409(16) 0.4612(3) 0.15591(16)
H14 H 0.8322 0.4323 0.1678
C31 C 0.88134(16) 0.4603(3) 0.11866(16)
H15 H 0.8927 0.4310 0.1073
C32 C 0.89852(15) 0.5000 0.10148(15)
C33 C 0.93624(18) 0.5000 0.06376(18)
O13 O 0.83727(9) 0.5000 0.43028(10)
O14 O 0.75732(9) 0.5000 0.43002(9)
O15 O 0.95003(8) 0.53988(18) 0.04997(8)
C34 C 0.79735(15) 0.5000 0.40931(15)
C35 C 0.79741(15) 0.5000 0.35600(15)
C36 C 0.84147(15) 0.5000 0.33142(17)
H16 H 0.8701 0.5000 0.3486
C37 C 0.84258(17) 0.5000 0.28211(19)
H17 H 0.8718 0.5000 0.2659
C38 C 0.80004(16) 0.5000 0.25683(17)
C39 C 0.75523(13) 0.5000 0.28092(15)
C40 C 0.75504(14) 0.5000 0.33046(14)
H18 H 0.7259 0.5000 0.3468
C41 C 0.84409(16) 0.5388(3) 0.15591(16)
H19 H 0.8322 0.5677 0.1678
C42 C 0.88134(16) 0.5397(3) 0.11866(16)
H20 H 0.8927 0.5690 0.1073
Cu4 Cu 0.5000 0.24979(3) 0.5000
Cu5 Cu 0.75021(3) 0.5000 0.5000
Cu6 Cu 0.5000 0.15536(3) 0.5000
Cu7 Cu 0.84464(3) 0.5000 0.5000
Cu8_3 Cu 1.0000 0.45244(5) 0.0000
Cu9 Cu 0.54756(5) 0.0000 0.0000
Cu10_3 Cu 1.0000 0.54756(5) 0.0000
O16 O 0.5000 0.56972(10) 0.16273(9)
O17 O 0.43028(10) 0.5000 0.16273(9)
O18 O 0.5000 0.56998(9) 0.24268(9)
O19 O 0.43002(9) 0.5000 0.24268(9)
Cu3_2 Cu 0.45244(5) -0.0000 1.0000
O6_2 O 0.3728(4) -0.0000 1.0000
Cu8_4 Cu 1.0000 0.45244(5) 1.0000
Cu9_2 Cu 0.54756(5) -0.0000 1.0000
Cu10_4 Cu 1.0000 0.54756(5) 1.0000
O22 O 0.46012(18) 0.04997(8) 0.95003(8)
Cu3_3 Cu 0.45244(5) 1.0000 0.0000
O6_3 O 0.3728(4) 1.0000 0.0000
Cu9_3 Cu 0.54756(5) 1.0000 0.0000
O21 O 0.46012(18) 0.95003(8) 0.04997(8)
Cu3_4 Cu 0.45244(5) 1.0000 1.0000
O6_4 O 0.3728(4) 1.0000 1.0000
Cu9_4 Cu 0.54756(5) 1.0000 1.0000
O20 O 0.46012(18) 0.95003(8) 0.95003(8)
O6_5 O 0.0000 0.3728(4) 0.0000
O21_2 O 0.04997(8) 0.46012(18) 0.04997(8)
O6_6 O -0.0000 0.3728(4) 1.0000
O20_2 O 0.04997(8) 0.46012(18) 0.95003(8)
O6_7 O 1.0000 0.3728(4) 0.0000
O12_2 O 0.53988(18) 0.95003(8) 0.04997(8)
N2_2 N 0.5000 0.79176(12) 0.20824(12)
C22_2 C 0.5000 0.59069(15) 0.20265(15)
C23_2 C 0.5000 0.64400(15) 0.20259(15)
C24_2 C 0.5000 0.66858(17) 0.15853(15)
H11_2 H 0.5000 0.6514 0.1299
C25_2 C 0.5000 0.71789(19) 0.15742(17)
H12_2 H 0.5000 0.7341 0.1282
C26_2 C 0.5000 0.74317(17) 0.19996(16)
C27_2 C 0.5000 0.71908(15) 0.24477(13)
C28_2 C 0.5000 0.66954(14) 0.24496(14)
H13_2 H 0.5000 0.6532 0.2741
C29_2 C 0.5000 0.82776(16) 0.17224(16)
C30_2 C 0.5388(3) 0.84409(16) 0.15591(16)
H14_2 H 0.5677 0.8322 0.1678
C31_2 C 0.5397(3) 0.88134(16) 0.11866(16)
H15_2 H 0.5690 0.8927 0.1073
C32_2 C 0.5000 0.89852(15) 0.10148(15)
C33_2 C 0.5000 0.93624(18) 0.06376(18)
O13_2 O 0.5000 0.83727(9) 0.43028(10)
O14_2 O 0.5000 0.75732(9) 0.43002(9)
C34_2 C 0.5000 0.79735(15) 0.40931(15)
C35_2 C 0.5000 0.79741(15) 0.35600(15)
C36_2 C 0.5000 0.84147(15) 0.33142(17)
H16_2 H 0.5000 0.8701 0.3486
C37_2 C 0.5000 0.84258(17) 0.28211(19)
H17_2 H 0.5000 0.8718 0.2659
C38_2 C 0.5000 0.80004(16) 0.25683(17)
C39_2 C 0.5000 0.75523(13) 0.28092(15)
C40_2 C 0.5000 0.75504(14) 0.33046(14)
H18_2 H 0.5000 0.7259 0.3468
C41_2 C 0.4612(3) 0.84409(16) 0.15591(16)
H19_2 H 0.4323 0.8322 0.1678
C42_2 C 0.4603(3) 0.88134(16) 0.11866(16)
H20_2 H 0.4310 0.8927 0.1073
Cu5_2 Cu 0.5000 0.75021(3) 0.5000
Cu7_2 Cu 0.5000 0.84464(3) 0.5000
O6_8 O 1.0000 0.3728(4) 1.0000
O22_2 O 0.95003(8) 0.46012(18) 0.95003(8)
O6_9 O 0.6272(4) 0.0000 0.0000
O6_10 O 0.6272(4) -0.0000 1.0000
O20_3 O 0.53988(18) 0.04997(8) 0.95003(8)
O6_11 O 0.6272(4) 1.0000 0.0000
O12_3 O 0.04997(8) 0.53988(18) 0.04997(8)
N2_3 N 0.20824(12) 0.5000 0.20824(12)
C22_3 C 0.40931(15) 0.5000 0.20265(15)
C23_3 C 0.35600(15) 0.5000 0.20259(15)
C24_3 C 0.33142(17) 0.5000 0.15853(15)
H11_3 H 0.3486 0.5000 0.1299
C25_3 C 0.28211(19) 0.5000 0.15742(17)
H12_3 H 0.2659 0.5000 0.1282
C26_3 C 0.25683(17) 0.5000 0.19996(16)
C27_3 C 0.28092(15) 0.5000 0.24477(13)
C28_3 C 0.33046(14) 0.5000 0.24496(14)
H13_3 H 0.3468 0.5000 0.2741
C29_3 C 0.17224(16) 0.5000 0.17224(16)
C30_3 C 0.15591(16) 0.5388(3) 0.15591(16)
H14_3 H 0.1678 0.5677 0.1678
C31_3 C 0.11866(16) 0.5397(3) 0.11866(16)
H15_3 H 0.1073 0.5690 0.1073
C32_3 C 0.10148(15) 0.5000 0.10148(15)
C33_3 C 0.06376(18) 0.5000 0.06376(18)
O13_3 O 0.16273(9) 0.5000 0.43028(10)
O14_3 O 0.24268(9) 0.5000 0.43002(9)
C34_3 C 0.20265(15) 0.5000 0.40931(15)
C35_3 C 0.20259(15) 0.5000 0.35600(15)
C36_3 C 0.15853(15) 0.5000 0.33142(17)
H16_3 H 0.1299 0.5000 0.3486
C37_3 C 0.15742(17) 0.5000 0.28211(19)
H17_3 H 0.1282 0.5000 0.2659
C38_3 C 0.19996(16) 0.5000 0.25683(17)
C39_3 C 0.24477(13) 0.5000 0.28092(15)
C40_3 C 0.24496(14) 0.5000 0.33046(14)
H18_3 H 0.2741 0.5000 0.3468
C41_3 C 0.15591(16) 0.4612(3) 0.15591(16)
H19_3 H 0.1678 0.4323 0.1678
C42_3 C 0.11866(16) 0.4603(3) 0.11866(16)
H20_3 H 0.1073 0.4310 0.1073
Cu5_3 Cu 0.24979(3) 0.5000 0.5000
Cu7_3 Cu 0.15536(3) 0.5000 0.5000
O6_12 O 0.6272(4) 1.0000 1.0000
O22_3 O 0.53988(18) 0.95003(8) 0.95003(8)
O6_13 O -0.0000 0.6272(4) 0.0000
O6_14 O -0.0000 0.6272(4) 1.0000
O22_4 O 0.04997(8) 0.53988(18) 0.95003(8)
O6_15 O 1.0000 0.6272(4) 0.0000
O6_16 O 1.0000 0.6272(4) 1.0000
O20_4 O 0.95003(8) 0.53988(18) 0.95003(8)
Cu1_2 Cu 0.5000 0.5000 0.75021(3)
Cu2_2 Cu 0.5000 0.5000 0.84464(3)
O1_2 O 0.5000 0.56972(10) 0.83727(9)
O2_2 O 0.5000 0.56998(9) 0.75732(9)
O3_2 O 0.5000 0.5000 0.92144(19)
O4_2 O 0.5000 0.5000 0.67246(17)
N1_2 N 0.5000 0.79176(12) 0.79176(12)
C1_2 C 0.5000 0.59069(15) 0.79735(15)
C2_2 C 0.5000 0.64400(15) 0.79741(15)
C3_2 C 0.5000 0.66858(17) 0.84147(15)
H1_2 H 0.5000 0.6514 0.8701
C4_2 C 0.5000 0.71789(19) 0.84258(17)
H2_2 H 0.5000 0.7341 0.8718
C5_2 C 0.5000 0.74317(17) 0.80004(16)
C6_2 C 0.5000 0.71908(15) 0.75523(13)
C7_2 C 0.5000 0.66954(14) 0.75504(14)
H3_2 H 0.5000 0.6532 0.7259
C8_2 C 0.5000 0.82776(16) 0.82776(16)
C9_2 C 0.4612(3) 0.84409(16) 0.84409(16)
H4_2 H 0.4323 0.8322 0.8322
C10_2 C 0.4603(3) 0.88134(16) 0.88134(16)
H5_2 H 0.4310 0.8927 0.8927
C11_2 C 0.5000 0.89852(15) 0.89852(15)
C12_2 C 0.5000 0.93624(18) 0.93624(18)
O7_2 O 0.5000 0.83727(9) 0.56972(10)
O8_2 O 0.5000 0.75732(9) 0.56998(9)
C13_2 C 0.5000 0.79735(15) 0.59069(15)
C14_2 C 0.5000 0.79741(15) 0.64400(15)
C15_2 C 0.5000 0.84147(15) 0.66858(17)
H6_2 H 0.5000 0.8701 0.6514
C16_2 C 0.5000 0.84258(17) 0.71789(19)
H7_2 H 0.5000 0.8718 0.7341
C17_2 C 0.5000 0.80004(16) 0.74317(17)
C18_2 C 0.5000 0.75523(13) 0.71908(15)
C19_2 C 0.5000 0.75504(14) 0.66954(14)
H8_2 H 0.5000 0.7259 0.6532
C20_2 C 0.5388(3) 0.84409(16) 0.84409(16)
H9_2 H 0.5677 0.8322 0.8322
C21_2 C 0.5397(3) 0.88134(16) 0.88134(16)
H10_2 H 0.5690 0.8927 0.8927
O10_2 O 0.56972(10) 0.5000 0.83727(9)
O11_2 O 0.56998(9) 0.5000 0.75732(9)
N2_4 N 0.79176(12) 0.5000 0.79176(12)
C22_4 C 0.59069(15) 0.5000 0.79735(15)
C23_4 C 0.64400(15) 0.5000 0.79741(15)
C24_4 C 0.66858(17) 0.5000 0.84147(15)
H11_4 H 0.6514 0.5000 0.8701
C25_4 C 0.71789(19) 0.5000 0.84258(17)
H12_4 H 0.7341 0.5000 0.8718
C26_4 C 0.74317(17) 0.5000 0.80004(16)
C27_4 C 0.71908(15) 0.5000 0.75523(13)
C28_4 C 0.66954(14) 0.5000 0.75504(14)
H13_4 H 0.6532 0.5000 0.7259
C29_4 C 0.82776(16) 0.5000 0.82776(16)
C30_4 C 0.84409(16) 0.5388(3) 0.84409(16)
H14_4 H 0.8322 0.5677 0.8322
C31_4 C 0.88134(16) 0.5397(3) 0.88134(16)
H15_4 H 0.8927 0.5690 0.8927
C32_4 C 0.89852(15) 0.5000 0.89852(15)
C33_4 C 0.93624(18) 0.5000 0.93624(18)
O13_4 O 0.83727(9) 0.5000 0.56972(10)
O14_4 O 0.75732(9) 0.5000 0.56998(9)
C34_4 C 0.79735(15) 0.5000 0.59069(15)
C35_4 C 0.79741(15) 0.5000 0.64400(15)
C36_4 C 0.84147(15) 0.5000 0.66858(17)
H16_4 H 0.8701 0.5000 0.6514
C37_4 C 0.84258(17) 0.5000 0.71789(19)
H17_4 H 0.8718 0.5000 0.7341
C38_4 C 0.80004(16) 0.5000 0.74317(17)
C39_4 C 0.75523(13) 0.5000 0.71908(15)
C40_4 C 0.75504(14) 0.5000 0.66954(14)
H18_4 H 0.7259 0.5000 0.6532
C41_4 C 0.84409(16) 0.4612(3) 0.84409(16)
H19_4 H 0.8322 0.4323 0.8322
C42_4 C 0.88134(16) 0.4603(3) 0.88134(16)
H20_4 H 0.8927 0.4310 0.8927
O16_2 O 0.5000 0.43028(10) 0.83727(9)
O17_2 O 0.43028(10) 0.5000 0.83727(9)
O18_2 O 0.5000 0.43002(9) 0.75732(9)
O19_2 O 0.43002(9) 0.5000 0.75732(9)
N1_3 N 0.20824(12) 0.5000 0.79176(12)
C1_3 C 0.40931(15) 0.5000 0.79735(15)
C2_3 C 0.35600(15) 0.5000 0.79741(15)
C3_3 C 0.33142(17) 0.5000 0.84147(15)
H1_3 H 0.3486 0.5000 0.8701
C4_3 C 0.28211(19) 0.5000 0.84258(17)
H2_3 H 0.2659 0.5000 0.8718
C5_3 C 0.25683(17) 0.5000 0.80004(16)
C6_3 C 0.28092(15) 0.5000 0.75523(13)
C7_3 C 0.33046(14) 0.5000 0.75504(14)
H3_3 H 0.3468 0.5000 0.7259
C8_3 C 0.17224(16) 0.5000 0.82776(16)
C9_3 C 0.15591(16) 0.4612(3) 0.84409(16)
H4_3 H 0.1678 0.4323 0.8322
C10_3 C 0.11866(16) 0.4603(3) 0.88134(16)
H5_3 H 0.1073 0.4310 0.8927
C11_3 C 0.10148(15) 0.5000 0.89852(15)
C12_3 C 0.06376(18) 0.5000 0.93624(18)
O7_3 O 0.16273(9) 0.5000 0.56972(10)
O8_3 O 0.24268(9) 0.5000 0.56998(9)
C13_3 C 0.20265(15) 0.5000 0.59069(15)
C14_3 C 0.20259(15) 0.5000 0.64400(15)
C15_3 C 0.15853(15) 0.5000 0.66858(17)
H6_3 H 0.1299 0.5000 0.6514
C16_3 C 0.15742(17) 0.5000 0.71789(19)
H7_3 H 0.1282 0.5000 0.7341
C17_3 C 0.19996(16) 0.5000 0.74317(17)
C18_3 C 0.24477(13) 0.5000 0.71908(15)
C19_3 C 0.24496(14) 0.5000 0.66954(14)
H8_3 H 0.2741 0.5000 0.6532
C20_3 C 0.15591(16) 0.5388(3) 0.84409(16)
H9_3 H 0.1678 0.5677 0.8322
C21_3 C 0.11866(16) 0.5397(3) 0.88134(16)
H10_3 H 0.1073 0.5690 0.8927
N1_4 N 0.5000 0.20824(12) 0.79176(12)
C1_4 C 0.5000 0.40931(15) 0.79735(15)
C2_4 C 0.5000 0.35600(15) 0.79741(15)
C3_4 C 0.5000 0.33142(17) 0.84147(15)
H1_4 H 0.5000 0.3486 0.8701
C4_4 C 0.5000 0.28211(19) 0.84258(17)
H2_4 H 0.5000 0.2659 0.8718
C5_4 C 0.5000 0.25683(17) 0.80004(16)
C6_4 C 0.5000 0.28092(15) 0.75523(13)
C7_4 C 0.5000 0.33046(14) 0.75504(14)
H3_4 H 0.5000 0.3468 0.7259
C8_4 C 0.5000 0.17224(16) 0.82776(16)
C9_4 C 0.5388(3) 0.15591(16) 0.84409(16)
H4_4 H 0.5677 0.1678 0.8322
C10_4 C 0.5397(3) 0.11866(16) 0.88134(16)
H5_4 H 0.5690 0.1073 0.8927
C11_4 C 0.5000 0.10148(15) 0.89852(15)
C12_4 C 0.5000 0.06376(18) 0.93624(18)
O7_4 O 0.5000 0.16273(9) 0.56972(10)
O8_4 O 0.5000 0.24268(9) 0.56998(9)
C13_4 C 0.5000 0.20265(15) 0.59069(15)
C14_4 C 0.5000 0.20259(15) 0.64400(15)
C15_4 C 0.5000 0.15853(15) 0.66858(17)
H6_4 H 0.5000 0.1299 0.6514
C16_4 C 0.5000 0.15742(17) 0.71789(19)
H7_4 H 0.5000 0.1282 0.7341
C17_4 C 0.5000 0.19996(16) 0.74317(17)
C18_4 C 0.5000 0.24477(13) 0.71908(15)
C19_4 C 0.5000 0.24496(14) 0.66954(14)
H8_4 H 0.5000 0.2741 0.6532
C20_4 C 0.4612(3) 0.15591(16) 0.84409(16)
H9_4 H 0.4323 0.1678 0.8322
C21_4 C 0.4603(3) 0.11866(16) 0.88134(16)
H10_4 H 0.4310 0.1073 0.8927
Cu8_5 Cu -0.0000 -0.0000 0.45244(5)
Cu10_5 Cu 0.0000 0.0000 0.54756(5)
O3_3 O 0.07856(19) 0.5000 0.5000
O4_3 O 0.32754(17) 0.5000 0.5000
O10_3 O 0.16273(9) 0.56972(10) 0.5000
O11_3 O 0.24268(9) 0.56998(9) 0.5000
O12_4 O 0.04997(8) 0.95003(8) 0.46012(18)
N2_5 N 0.20824(12) 0.79176(12) 0.5000
C22_5 C 0.20265(15) 0.59069(15) 0.5000
C23_5 C 0.20259(15) 0.64400(15) 0.5000
C24_5 C 0.15853(15) 0.66858(17) 0.5000
H11_5 H 0.1299 0.6514 0.5000
C25_5 C 0.15742(17) 0.71789(19) 0.5000
H12_5 H 0.1282 0.7341 0.5000
C26_5 C 0.19996(16) 0.74317(17) 0.5000
C27_5 C 0.24477(13) 0.71908(15) 0.5000
C28_5 C 0.24496(14) 0.66954(14) 0.5000
H13_5 H 0.2741 0.6532 0.5000
C29_5 C 0.17224(16) 0.82776(16) 0.5000
C30_5 C 0.15591(16) 0.84409(16) 0.4612(3)
H14_5 H 0.1678 0.8322 0.4323
C31_5 C 0.11866(16) 0.88134(16) 0.4603(3)
H15_5 H 0.1073 0.8927 0.4310
C32_5 C 0.10148(15) 0.89852(15) 0.5000
C33_5 C 0.06376(18) 0.93624(18) 0.5000
O13_5 O 0.43028(10) 0.83727(9) 0.5000
O14_5 O 0.43002(9) 0.75732(9) 0.5000
O15_2 O 0.04997(8) 0.95003(8) 0.53988(18)
C34_5 C 0.40931(15) 0.79735(15) 0.5000
C35_5 C 0.35600(15) 0.79741(15) 0.5000
C36_5 C 0.33142(17) 0.84147(15) 0.5000
H16_5 H 0.3486 0.8701 0.5000
C37_5 C 0.28211(19) 0.84258(17) 0.5000
H17_5 H 0.2659 0.8718 0.5000
C38_5 C 0.25683(17) 0.80004(16) 0.5000
C39_5 C 0.28092(15) 0.75523(13) 0.5000
C40_5 C 0.33046(14) 0.75504(14) 0.5000
H18_5 H 0.3468 0.7259 0.5000
C41_5 C 0.15591(16) 0.84409(16) 0.5388(3)
H19_5 H 0.1678 0.8322 0.5677
C42_5 C 0.11866(16) 0.88134(16) 0.5397(3)
H20_5 H 0.1073 0.8927 0.5690
Cu8_6 Cu -0.0000 1.0000 0.45244(5)
Cu10_6 Cu -0.0000 1.0000 0.54756(5)
O17_3 O 0.16273(9) 0.43028(10) 0.5000
O19_3 O 0.24268(9) 0.43002(9) 0.5000
Cu8_7 Cu 1.0000 -0.0000 0.45244(5)
Cu10_7 Cu 1.0000 0.0000 0.54756(5)
Cu8_8 Cu 1.0000 1.0000 0.45244(5)
Cu10_8 Cu 1.0000 1.0000 0.54756(5)
O3_4 O 0.5000 0.07856(19) 0.5000
O4_4 O 0.5000 0.32754(17) 0.5000
O10_4 O 0.43028(10) 0.16273(9) 0.5000
O11_4 O 0.43002(9) 0.24268(9) 0.5000
O12_5 O 0.04997(8) 0.04997(8) 0.46012(18)
N2_6 N 0.20824(12) 0.20824(12) 0.5000
C22_6 C 0.40931(15) 0.20265(15) 0.5000
C23_6 C 0.35600(15) 0.20259(15) 0.5000
C24_6 C 0.33142(17) 0.15853(15) 0.5000
H11_6 H 0.3486 0.1299 0.5000
C25_6 C 0.28211(19) 0.15742(17) 0.5000
H12_6 H 0.2659 0.1282 0.5000
C26_6 C 0.25683(17) 0.19996(16) 0.5000
C27_6 C 0.28092(15) 0.24477(13) 0.5000
C28_6 C 0.33046(14) 0.24496(14) 0.5000
H13_6 H 0.3468 0.2741 0.5000
C29_6 C 0.17224(16) 0.17224(16) 0.5000
C30_6 C 0.15591(16) 0.15591(16) 0.4612(3)
H14_6 H 0.1678 0.1678 0.4323
C31_6 C 0.11866(16) 0.11866(16) 0.4603(3)
H15_6 H 0.1073 0.1073 0.4310
C32_6 C 0.10148(15) 0.10148(15) 0.5000
C33_6 C 0.06376(18) 0.06376(18) 0.5000
O15_3 O 0.04997(8) 0.04997(8) 0.53988(18)
C34_6 C 0.20265(15) 0.40931(15) 0.5000
C35_6 C 0.20259(15) 0.35600(15) 0.5000
C36_6 C 0.15853(15) 0.33142(17) 0.5000
H16_6 H 0.1299 0.3486 0.5000
C37_6 C 0.15742(17) 0.28211(19) 0.5000
H17_6 H 0.1282 0.2659 0.5000
C38_6 C 0.19996(16) 0.25683(17) 0.5000
C39_6 C 0.24477(13) 0.28092(15) 0.5000
C40_6 C 0.24496(14) 0.33046(14) 0.5000
H18_6 H 0.2741 0.3468 0.5000
C41_6 C 0.15591(16) 0.15591(16) 0.5388(3)
H19_6 H 0.1678 0.1678 0.5677
C42_6 C 0.11866(16) 0.11866(16) 0.5397(3)
H20_6 H 0.1073 0.1073 0.5690
O17_4 O 0.56972(10) 0.16273(9) 0.5000
O19_4 O 0.56998(9) 0.24268(9) 0.5000
O3_5 O 0.92144(19) 0.5000 0.5000
O4_5 O 0.67246(17) 0.5000 0.5000
O10_5 O 0.83727(9) 0.43028(10) 0.5000
O11_5 O 0.75732(9) 0.43002(9) 0.5000
O12_6 O 0.95003(8) 0.04997(8) 0.46012(18)
N2_7 N 0.79176(12) 0.20824(12) 0.5000
C22_7 C 0.79735(15) 0.40931(15) 0.5000
C23_7 C 0.79741(15) 0.35600(15) 0.5000
C24_7 C 0.84147(15) 0.33142(17) 0.5000
H11_7 H 0.8701 0.3486 0.5000
C25_7 C 0.84258(17) 0.28211(19) 0.5000
H12_7 H 0.8718 0.2659 0.5000
C26_7 C 0.80004(16) 0.25683(17) 0.5000
C27_7 C 0.75523(13) 0.28092(15) 0.5000
C28_7 C 0.75504(14) 0.33046(14) 0.5000
H13_7 H 0.7259 0.3468 0.5000
C29_7 C 0.82776(16) 0.17224(16) 0.5000
C30_7 C 0.84409(16) 0.15591(16) 0.4612(3)
H14_7 H 0.8322 0.1678 0.4323
C31_7 C 0.88134(16) 0.11866(16) 0.4603(3)
H15_7 H 0.8927 0.1073 0.4310
C32_7 C 0.89852(15) 0.10148(15) 0.5000
C33_7 C 0.93624(18) 0.06376(18) 0.5000
O15_4 O 0.95003(8) 0.04997(8) 0.53988(18)
C34_7 C 0.59069(15) 0.20265(15) 0.5000
C35_7 C 0.64400(15) 0.20259(15) 0.5000
C36_7 C 0.66858(17) 0.15853(15) 0.5000
H16_7 H 0.6514 0.1299 0.5000
C37_7 C 0.71789(19) 0.15742(17) 0.5000
H17_7 H 0.7341 0.1282 0.5000
C38_7 C 0.74317(17) 0.19996(16) 0.5000
C39_7 C 0.71908(15) 0.24477(13) 0.5000
C40_7 C 0.66954(14) 0.24496(14) 0.5000
H18_7 H 0.6532 0.2741 0.5000
C41_7 C 0.84409(16) 0.15591(16) 0.5388(3)
H19_7 H 0.8322 0.1678 0.5677
C42_7 C 0.88134(16) 0.11866(16) 0.5397(3)
H20_7 H 0.8927 0.1073 0.5690
O17_5 O 0.83727(9) 0.56972(10) 0.5000
O19_5 O 0.75732(9) 0.56998(9) 0.5000
O3_6 O 0.5000 0.92144(19) 0.5000
O4_6 O 0.5000 0.67246(17) 0.5000
O10_6 O 0.56972(10) 0.83727(9) 0.5000
O11_6 O 0.56998(9) 0.75732(9) 0.5000
O12_7 O 0.95003(8) 0.95003(8) 0.46012(18)
N2_8 N 0.79176(12) 0.79176(12) 0.5000
C22_8 C 0.59069(15) 0.79735(15) 0.5000
C23_8 C 0.64400(15) 0.79741(15) 0.5000
C24_8 C 0.66858(17) 0.84147(15) 0.5000
H11_8 H 0.6514 0.8701 0.5000
C25_8 C 0.71789(19) 0.84258(17) 0.5000
H12_8 H 0.7341 0.8718 0.5000
C26_8 C 0.74317(17) 0.80004(16) 0.5000
C27_8 C 0.71908(15) 0.75523(13) 0.5000
C28_8 C 0.66954(14) 0.75504(14) 0.5000
H13_8 H 0.6532 0.7259 0.5000
C29_8 C 0.82776(16) 0.82776(16) 0.5000
C30_8 C 0.84409(16) 0.84409(16) 0.4612(3)
H14_8 H 0.8322 0.8322 0.4323
C31_8 C 0.88134(16) 0.88134(16) 0.4603(3)
H15_8 H 0.8927 0.8927 0.4310
C32_8 C 0.89852(15) 0.89852(15) 0.5000
C33_8 C 0.93624(18) 0.93624(18) 0.5000
O15_5 O 0.95003(8) 0.95003(8) 0.53988(18)
C34_8 C 0.79735(15) 0.59069(15) 0.5000
C35_8 C 0.79741(15) 0.64400(15) 0.5000
C36_8 C 0.84147(15) 0.66858(17) 0.5000
H16_8 H 0.8701 0.6514 0.5000
C37_8 C 0.84258(17) 0.71789(19) 0.5000
H17_8 H 0.8718 0.7341 0.5000
C38_8 C 0.80004(16) 0.74317(17) 0.5000
C39_8 C 0.75523(13) 0.71908(15) 0.5000
C40_8 C 0.75504(14) 0.66954(14) 0.5000
H18_8 H 0.7259 0.6532 0.5000
C41_8 C 0.84409(16) 0.84409(16) 0.5388(3)
H19_8 H 0.8322 0.8322 0.5677
C42_8 C 0.88134(16) 0.88134(16) 0.5397(3)
H20_8 H 0.8927 0.8927 0.5690
O6_17 O 0.0000 0.0000 0.3728(4)
O6_18 O -0.0000 1.0000 0.3728(4)
O6_19 O 1.0000 0.0000 0.3728(4)
O6_20 O 1.0000 1.0000 0.3728(4)
O6_21 O -0.0000 -0.0000 0.6272(4)
O6_22 O -0.0000 1.0000 0.6272(4)
O6_23 O 1.0000 -0.0000 0.6272(4)
O6_24 O 1.0000 1.0000 0.6272(4)
loop_
_geom_bond_atom_site_label_1
_geom_bond_atom_site_label_2
_geom_bond_site_symmetry_1
_geom_bond_site_symmetry_2
Cu8 Cu10 1_555 1_555
Cu8_2 Cu10_2 1_555 1_555
Cu1 Cu2 1_555 1_555
Cu2 O1 1_555 1_555
Cu3 O5 1_555 1_555
O1 C1 1_555 1_555
O2 Cu1 1_555 1_555
O3 Cu2 1_555 1_555
O4 Cu1 1_555 1_555
O5 C12 1_555 1_555
O6 Cu3 1_555 1_555
N1 C5 1_555 1_555
C1 O2 1_555 1_555
C2 C1 1_555 1_555
C3 C2 1_555 1_555
H1 C3 1_555 1_555
C4 C3 1_555 1_555
H2 C4 1_555 1_555
C5 C4 1_555 1_555
C6 C5 1_555 1_555
C7 C2 1_555 1_555
H3 C7 1_555 1_555
C8 N1 1_555 1_555
C9 C8 1_555 1_555
H4 C9 1_555 1_555
C10 C9 1_555 1_555
H5 C10 1_555 1_555
C11 C10 1_555 1_555
C12 C11 1_555 1_555
O7 C13 1_555 1_555
O8 C13 1_555 1_555
O9 C12 1_555 1_555
C13 C14 1_555 1_555
C14 C15 1_555 1_555
C15 H6 1_555 1_555
C16 C15 1_555 1_555
H7 C16 1_555 1_555
C17 N1 1_555 1_555
C18 C6 1_555 1_555
C19 C14 1_555 1_555
H8 C19 1_555 1_555
C20 C8 1_555 1_555
H9 C20 1_555 1_555
C21 C11 1_555 1_555
H10 C21 1_555 1_555
O10 Cu2 1_555 1_555
O11 Cu1 1_555 1_555
O12 C33 1_555 1_555
N2 C26 1_555 1_555
C22 O10 1_555 1_555
C23 C22 1_555 1_555
C24 C23 1_555 1_555
H11 C24 1_555 1_555
C25 C24 1_555 1_555
H12 C25 1_555 1_555
C26 C25 1_555 1_555
C27 C26 1_555 1_555
C28 C23 1_555 1_555
H13 C28 1_555 1_555
C29 N2 1_555 1_555
C30 C29 1_555 1_555
H14 C30 1_555 1_555
C31 C30 1_555 1_555
H15 C31 1_555 1_555
C32 C31 1_555 1_555
C33 C32 1_555 1_555
O13 C34 1_555 1_555
O14 C34 1_555 1_555
O15 C33 1_555 1_555
C34 C35 1_555 1_555
C35 C36 1_555 1_555
C36 H16 1_555 1_555
C37 C36 1_555 1_555
H17 C37 1_555 1_555
C38 N2 1_555 1_555
C39 C27 1_555 1_555
C40 C35 1_555 1_555
H18 C40 1_555 1_555
C41 C29 1_555 1_555
H19 C41 1_555 1_555
C42 C32 1_555 1_555
H20 C42 1_555 1_555
Cu4 O8 1_555 1_555
Cu5 O14 1_555 1_555
Cu6 O7 1_555 1_555
Cu7 O13 1_555 1_555
Cu8_3 O12 1_555 1_555
Cu9 Cu3 1_555 1_555
Cu10_3 O15 1_555 1_555
O16 Cu2 1_555 1_555
O17 Cu2 1_555 1_555
O18 Cu1 1_555 1_555
O19 Cu1 1_555 1_555
C6 C7 1_555 1_555
O9 Cu9 1_555 1_555
C16 C17 1_555 1_555
C17 C18 1_555 1_555
C18 C19 1_555 1_555
C20 C21 1_555 1_555
O11 C22 1_555 1_555
C27 C28 1_555 1_555
C37 C38 1_555 1_555
C38 C39 1_555 1_555
C39 C40 1_555 1_555
C41 C42 1_555 1_555
Cu4 Cu6 1_555 1_555
Cu5 Cu7 1_555 1_555
Cu8_3 Cu10_3 1_555 1_555
O6_2 Cu3_2 1_555 1_555
Cu9_2 Cu3_2 1_555 1_555
O22 Cu3_2 1_555 1_555
Cu8_4 Cu10_4 1_555 1_555
O6_3 Cu3_3 1_555 1_555
Cu9_3 Cu3_3 1_555 1_555
O21 Cu3_3 1_555 1_555
O6_4 Cu3_4 1_555 1_555
Cu9_4 Cu3_4 1_555 1_555
O20 Cu3_4 1_555 1_555
O6_5 Cu8 1_555 1_555
O21_2 Cu8 1_555 1_555
O6_6 Cu8_2 1_555 1_555
O20_2 Cu8_2 1_555 1_555
O6_7 Cu8_3 1_555 1_555
O12_2 C33_2 1_555 1_555
N2_2 C26_2 1_555 1_555
C22_2 O16 1_555 1_555
C23_2 C22_2 1_555 1_555
C24_2 C23_2 1_555 1_555
H11_2 C24_2 1_555 1_555
C25_2 C24_2 1_555 1_555
H12_2 C25_2 1_555 1_555
C26_2 C25_2 1_555 1_555
C27_2 C26_2 1_555 1_555
C28_2 C23_2 1_555 1_555
H13_2 C28_2 1_555 1_555
C29_2 N2_2 1_555 1_555
C30_2 C29_2 1_555 1_555
H14_2 C30_2 1_555 1_555
C31_2 C30_2 1_555 1_555
H15_2 C31_2 1_555 1_555
C32_2 C31_2 1_555 1_555
C33_2 C32_2 1_555 1_555
O13_2 C34_2 1_555 1_555
O14_2 C34_2 1_555 1_555
O21 C33_2 1_555 1_555
C34_2 C35_2 1_555 1_555
C35_2 C36_2 1_555 1_555
C36_2 H16_2 1_555 1_555
C37_2 C36_2 1_555 1_555
H17_2 C37_2 1_555 1_555
C38_2 N2_2 1_555 1_555
C39_2 C27_2 1_555 1_555
C40_2 C35_2 1_555 1_555
H18_2 C40_2 1_555 1_555
C41_2 C29_2 1_555 1_555
H19_2 C41_2 1_555 1_555
C42_2 C32_2 1_555 1_555
H20_2 C42_2 1_555 1_555
Cu5_2 O14_2 1_555 1_555
Cu7_2 O13_2 1_555 1_555
Cu9_3 O12_2 1_555 1_555
O18 C22_2 1_555 1_555
C27_2 C28_2 1_555 1_555
C37_2 C38_2 1_555 1_555
C38_2 C39_2 1_555 1_555
C39_2 C40_2 1_555 1_555
C41_2 C42_2 1_555 1_555
Cu5_2 Cu7_2 1_555 1_555
O6_8 Cu8_4 1_555 1_555
O22_2 Cu8_4 1_555 1_555
O6_9 Cu9 1_555 1_555
O6_10 Cu9_2 1_555 1_555
O20_3 Cu9_2 1_555 1_555
O6_11 Cu9_3 1_555 1_555
O12_3 C33_3 1_555 1_555
N2_3 C26_3 1_555 1_555
C22_3 O17 1_555 1_555
C23_3 C22_3 1_555 1_555
C24_3 C23_3 1_555 1_555
H11_3 C24_3 1_555 1_555
C25_3 C24_3 1_555 1_555
H12_3 C25_3 1_555 1_555
C26_3 C25_3 1_555 1_555
C27_3 C26_3 1_555 1_555
C28_3 C23_3 1_555 1_555
H13_3 C28_3 1_555 1_555
C29_3 N2_3 1_555 1_555
C30_3 C29_3 1_555 1_555
H14_3 C30_3 1_555 1_555
C31_3 C30_3 1_555 1_555
H15_3 C31_3 1_555 1_555
C32_3 C31_3 1_555 1_555
C33_3 C32_3 1_555 1_555
O13_3 C34_3 1_555 1_555
O14_3 C34_3 1_555 1_555
O21_2 C33_3 1_555 1_555
C34_3 C35_3 1_555 1_555
C35_3 C36_3 1_555 1_555
C36_3 H16_3 1_555 1_555
C37_3 C36_3 1_555 1_555
H17_3 C37_3 1_555 1_555
C38_3 N2_3 1_555 1_555
C39_3 C27_3 1_555 1_555
C40_3 C35_3 1_555 1_555
H18_3 C40_3 1_555 1_555
C41_3 C29_3 1_555 1_555
H19_3 C41_3 1_555 1_555
C42_3 C32_3 1_555 1_555
H20_3 C42_3 1_555 1_555
Cu5_3 O14_3 1_555 1_555
Cu7_3 O13_3 1_555 1_555
Cu10 O12_3 1_555 1_555
O19 C22_3 1_555 1_555
C27_3 C28_3 1_555 1_555
C37_3 C38_3 1_555 1_555
C38_3 C39_3 1_555 1_555
C39_3 C40_3 1_555 1_555
C41_3 C42_3 1_555 1_555
Cu5_3 Cu7_3 1_555 1_555
O6_12 Cu9_4 1_555 1_555
O22_3 Cu9_4 1_555 1_555
O6_13 Cu10 1_555 1_555
O6_14 Cu10_2 1_555 1_555
O22_4 Cu10_2 1_555 1_555
O6_15 Cu10_3 1_555 1_555
O6_16 Cu10_4 1_555 1_555
O20_4 Cu10_4 1_555 1_555
Cu1_2 Cu2_2 1_555 1_555
Cu2_2 O1_2 1_555 1_555
O1_2 C1_2 1_555 1_555
O2_2 Cu1_2 1_555 1_555
O3_2 Cu2_2 1_555 1_555
O4_2 Cu1_2 1_555 1_555
O20 C12_2 1_555 1_555
N1_2 C5_2 1_555 1_555
C1_2 O2_2 1_555 1_555
C2_2 C1_2 1_555 1_555
C3_2 C2_2 1_555 1_555
H1_2 C3_2 1_555 1_555
C4_2 C3_2 1_555 1_555
H2_2 C4_2 1_555 1_555
C5_2 C4_2 1_555 1_555
C6_2 C5_2 1_555 1_555
C7_2 C2_2 1_555 1_555
H3_2 C7_2 1_555 1_555
C8_2 N1_2 1_555 1_555
C9_2 C8_2 1_555 1_555
H4_2 C9_2 1_555 1_555
C10_2 C9_2 1_555 1_555
H5_2 C10_2 1_555 1_555
C11_2 C10_2 1_555 1_555
C12_2 C11_2 1_555 1_555
O7_2 C13_2 1_555 1_555
O8_2 C13_2 1_555 1_555
O22_3 C12_2 1_555 1_555
C13_2 C14_2 1_555 1_555
C14_2 C15_2 1_555 1_555
C15_2 H6_2 1_555 1_555
C16_2 C15_2 1_555 1_555
H7_2 C16_2 1_555 1_555
C17_2 N1_2 1_555 1_555
C18_2 C6_2 1_555 1_555
C19_2 C14_2 1_555 1_555
H8_2 C19_2 1_555 1_555
C20_2 C8_2 1_555 1_555
H9_2 C20_2 1_555 1_555
C21_2 C11_2 1_555 1_555
H10_2 C21_2 1_555 1_555
O10_2 Cu2_2 1_555 1_555
O11_2 Cu1_2 1_555 1_555
O20_4 C33_4 1_555 1_555
N2_4 C26_4 1_555 1_555
C22_4 O10_2 1_555 1_555
C23_4 C22_4 1_555 1_555
C24_4 C23_4 1_555 1_555
H11_4 C24_4 1_555 1_555
C25_4 C24_4 1_555 1_555
H12_4 C25_4 1_555 1_555
C26_4 C25_4 1_555 1_555
C27_4 C26_4 1_555 1_555
C28_4 C23_4 1_555 1_555
H13_4 C28_4 1_555 1_555
C29_4 N2_4 1_555 1_555
C30_4 C29_4 1_555 1_555
H14_4 C30_4 1_555 1_555
C31_4 C30_4 1_555 1_555
H15_4 C31_4 1_555 1_555
C32_4 C31_4 1_555 1_555
C33_4 C32_4 1_555 1_555
O13_4 C34_4 1_555 1_555
O14_4 C34_4 1_555 1_555
O22_2 C33_4 1_555 1_555
C34_4 C35_4 1_555 1_555
C35_4 C36_4 1_555 1_555
C36_4 H16_4 1_555 1_555
C37_4 C36_4 1_555 1_555
H17_4 C37_4 1_555 1_555
C38_4 N2_4 1_555 1_555
C39_4 C27_4 1_555 1_555
C40_4 C35_4 1_555 1_555
H18_4 C40_4 1_555 1_555
C41_4 C29_4 1_555 1_555
H19_4 C41_4 1_555 1_555
C42_4 C32_4 1_555 1_555
H20_4 C42_4 1_555 1_555
Cu5_2 O8_2 1_555 1_555
Cu5 O14_4 1_555 1_555
Cu7_2 O7_2 1_555 1_555
Cu7 O13_4 1_555 1_555
O16_2 Cu2_2 1_555 1_555
O17_2 Cu2_2 1_555 1_555
O18_2 Cu1_2 1_555 1_555
O19_2 Cu1_2 1_555 1_555
C6_2 C7_2 1_555 1_555
C16_2 C17_2 1_555 1_555
C17_2 C18_2 1_555 1_555
C18_2 C19_2 1_555 1_555
C20_2 C21_2 1_555 1_555
O11_2 C22_4 1_555 1_555
C27_4 C28_4 1_555 1_555
C37_4 C38_4 1_555 1_555
C38_4 C39_4 1_555 1_555
C39_4 C40_4 1_555 1_555
C41_4 C42_4 1_555 1_555
O17_2 C1_3 1_555 1_555
O20_2 C12_3 1_555 1_555
N1_3 C5_3 1_555 1_555
C1_3 O19_2 1_555 1_555
C2_3 C1_3 1_555 1_555
C3_3 C2_3 1_555 1_555
H1_3 C3_3 1_555 1_555
C4_3 C3_3 1_555 1_555
H2_3 C4_3 1_555 1_555
C5_3 C4_3 1_555 1_555
C6_3 C5_3 1_555 1_555
C7_3 C2_3 1_555 1_555
H3_3 C7_3 1_555 1_555
C8_3 N1_3 1_555 1_555
C9_3 C8_3 1_555 1_555
H4_3 C9_3 1_555 1_555
C10_3 C9_3 1_555 1_555
H5_3 C10_3 1_555 1_555
C11_3 C10_3 1_555 1_555
C12_3 C11_3 1_555 1_555
O7_3 C13_3 1_555 1_555
O8_3 C13_3 1_555 1_555
O22_4 C12_3 1_555 1_555
C13_3 C14_3 1_555 1_555
C14_3 C15_3 1_555 1_555
C15_3 H6_3 1_555 1_555
C16_3 C15_3 1_555 1_555
H7_3 C16_3 1_555 1_555
C17_3 N1_3 1_555 1_555
C18_3 C6_3 1_555 1_555
C19_3 C14_3 1_555 1_555
H8_3 C19_3 1_555 1_555
C20_3 C8_3 1_555 1_555
H9_3 C20_3 1_555 1_555
C21_3 C11_3 1_555 1_555
H10_3 C21_3 1_555 1_555
Cu5_3 O8_3 1_555 1_555
Cu7_3 O7_3 1_555 1_555
C6_3 C7_3 1_555 1_555
C16_3 C17_3 1_555 1_555
C17_3 C18_3 1_555 1_555
C18_3 C19_3 1_555 1_555
C20_3 C21_3 1_555 1_555
O16_2 C1_4 1_555 1_555
O20_3 C12_4 1_555 1_555
N1_4 C5_4 1_555 1_555
C1_4 O18_2 1_555 1_555
C2_4 C1_4 1_555 1_555
C3_4 C2_4 1_555 1_555
H1_4 C3_4 1_555 1_555
C4_4 C3_4 1_555 1_555
H2_4 C4_4 1_555 1_555
C5_4 C4_4 1_555 1_555
C6_4 C5_4 1_555 1_555
C7_4 C2_4 1_555 1_555
H3_4 C7_4 1_555 1_555
C8_4 N1_4 1_555 1_555
C9_4 C8_4 1_555 1_555
H4_4 C9_4 1_555 1_555
C10_4 C9_4 1_555 1_555
H5_4 C10_4 1_555 1_555
C11_4 C10_4 1_555 1_555
C12_4 C11_4 1_555 1_555
O7_4 C13_4 1_555 1_555
O8_4 C13_4 1_555 1_555
O22 C12_4 1_555 1_555
C13_4 C14_4 1_555 1_555
C14_4 C15_4 1_555 1_555
C15_4 H6_4 1_555 1_555
C16_4 C15_4 1_555 1_555
H7_4 C16_4 1_555 1_555
C17_4 N1_4 1_555 1_555
C18_4 C6_4 1_555 1_555
C19_4 C14_4 1_555 1_555
H8_4 C19_4 1_555 1_555
C20_4 C8_4 1_555 1_555
H9_4 C20_4 1_555 1_555
C21_4 C11_4 1_555 1_555
H10_4 C21_4 1_555 1_555
Cu4 O8_4 1_555 1_555
Cu6 O7_4 1_555 1_555
C6_4 C7_4 1_555 1_555
C16_4 C17_4 1_555 1_555
C17_4 C18_4 1_555 1_555
C18_4 C19_4 1_555 1_555
C20_4 C21_4 1_555 1_555
Cu8_5 Cu10_5 1_555 1_555
O3_3 Cu7_3 1_555 1_555
O4_3 Cu5_3 1_555 1_555
O10_3 Cu7_3 1_555 1_555
O11_3 Cu5_3 1_555 1_555
O12_4 C33_5 1_555 1_555
N2_5 C26_5 1_555 1_555
C22_5 O10_3 1_555 1_555
C23_5 C22_5 1_555 1_555
C24_5 C23_5 1_555 1_555
H11_5 C24_5 1_555 1_555
C25_5 C24_5 1_555 1_555
H12_5 C25_5 1_555 1_555
C26_5 C25_5 1_555 1_555
C27_5 C26_5 1_555 1_555
C28_5 C23_5 1_555 1_555
H13_5 C28_5 1_555 1_555
C29_5 N2_5 1_555 1_555
C30_5 C29_5 1_555 1_555
H14_5 C30_5 1_555 1_555
C31_5 C30_5 1_555 1_555
H15_5 C31_5 1_555 1_555
C32_5 C31_5 1_555 1_555
C33_5 C32_5 1_555 1_555
O13_5 C34_5 1_555 1_555
O14_5 C34_5 1_555 1_555
O15_2 C33_5 1_555 1_555
C34_5 C35_5 1_555 1_555
C35_5 C36_5 1_555 1_555
C36_5 H16_5 1_555 1_555
C37_5 C36_5 1_555 1_555
H17_5 C37_5 1_555 1_555
C38_5 N2_5 1_555 1_555
C39_5 C27_5 1_555 1_555
C40_5 C35_5 1_555 1_555
H18_5 C40_5 1_555 1_555
C41_5 C29_5 1_555 1_555
H19_5 C41_5 1_555 1_555
C42_5 C32_5 1_555 1_555
H20_5 C42_5 1_555 1_555
Cu5_2 O14_5 1_555 1_555
Cu7_2 O13_5 1_555 1_555
Cu8_6 O12_4 1_555 1_555
Cu10_6 O15_2 1_555 1_555
O17_3 Cu7_3 1_555 1_555
O19_3 Cu5_3 1_555 1_555
O11_3 C22_5 1_555 1_555
C27_5 C28_5 1_555 1_555
C37_5 C38_5 1_555 1_555
C38_5 C39_5 1_555 1_555
C39_5 C40_5 1_555 1_555
C41_5 C42_5 1_555 1_555
Cu8_6 Cu10_6 1_555 1_555
Cu8_7 Cu10_7 1_555 1_555
Cu8_8 Cu10_8 1_555 1_555
O3_4 Cu6 1_555 1_555
O4_4 Cu4 1_555 1_555
O10_4 Cu6 1_555 1_555
O11_4 Cu4 1_555 1_555
O12_5 C33_6 1_555 1_555
N2_6 C26_6 1_555 1_555
C22_6 O10_4 1_555 1_555
C23_6 C22_6 1_555 1_555
C24_6 C23_6 1_555 1_555
H11_6 C24_6 1_555 1_555
C25_6 C24_6 1_555 1_555
H12_6 C25_6 1_555 1_555
C26_6 C25_6 1_555 1_555
C27_6 C26_6 1_555 1_555
C28_6 C23_6 1_555 1_555
H13_6 C28_6 1_555 1_555
C29_6 N2_6 1_555 1_555
C30_6 C29_6 1_555 1_555
H14_6 C30_6 1_555 1_555
C31_6 C30_6 1_555 1_555
H15_6 C31_6 1_555 1_555
C32_6 C31_6 1_555 1_555
C33_6 C32_6 1_555 1_555
O17_3 C34_6 1_555 1_555
O19_3 C34_6 1_555 1_555
O15_3 C33_6 1_555 1_555
C34_6 C35_6 1_555 1_555
C35_6 C36_6 1_555 1_555
C36_6 H16_6 1_555 1_555
C37_6 C36_6 1_555 1_555
H17_6 C37_6 1_555 1_555
C38_6 N2_6 1_555 1_555
C39_6 C27_6 1_555 1_555
C40_6 C35_6 1_555 1_555
H18_6 C40_6 1_555 1_555
C41_6 C29_6 1_555 1_555
H19_6 C41_6 1_555 1_555
C42_6 C32_6 1_555 1_555
H20_6 C42_6 1_555 1_555
Cu8_5 O12_5 1_555 1_555
Cu10_5 O15_3 1_555 1_555
O17_4 Cu6 1_555 1_555
O19_4 Cu4 1_555 1_555
O11_4 C22_6 1_555 1_555
C27_6 C28_6 1_555 1_555
C37_6 C38_6 1_555 1_555
C38_6 C39_6 1_555 1_555
C39_6 C40_6 1_555 1_555
C41_6 C42_6 1_555 1_555
O3_5 Cu7 1_555 1_555
O4_5 Cu5 1_555 1_555
O10_5 Cu7 1_555 1_555
O11_5 Cu5 1_555 1_555
O12_6 C33_7 1_555 1_555
N2_7 C26_7 1_555 1_555
C22_7 O10_5 1_555 1_555
C23_7 C22_7 1_555 1_555
C24_7 C23_7 1_555 1_555
H11_7 C24_7 1_555 1_555
C25_7 C24_7 1_555 1_555
H12_7 C25_7 1_555 1_555
C26_7 C25_7 1_555 1_555
C27_7 C26_7 1_555 1_555
C28_7 C23_7 1_555 1_555
H13_7 C28_7 1_555 1_555
C29_7 N2_7 1_555 1_555
C30_7 C29_7 1_555 1_555
H14_7 C30_7 1_555 1_555
C31_7 C30_7 1_555 1_555
H15_7 C31_7 1_555 1_555
C32_7 C31_7 1_555 1_555
C33_7 C32_7 1_555 1_555
O17_4 C34_7 1_555 1_555
O19_4 C34_7 1_555 1_555
O15_4 C33_7 1_555 1_555
C34_7 C35_7 1_555 1_555
C35_7 C36_7 1_555 1_555
C36_7 H16_7 1_555 1_555
C37_7 C36_7 1_555 1_555
H17_7 C37_7 1_555 1_555
C38_7 N2_7 1_555 1_555
C39_7 C27_7 1_555 1_555
C40_7 C35_7 1_555 1_555
H18_7 C40_7 1_555 1_555
C41_7 C29_7 1_555 1_555
H19_7 C41_7 1_555 1_555
C42_7 C32_7 1_555 1_555
H20_7 C42_7 1_555 1_555
Cu8_7 O12_6 1_555 1_555
Cu10_7 O15_4 1_555 1_555
O17_5 Cu7 1_555 1_555
O19_5 Cu5 1_555 1_555
O11_5 C22_7 1_555 1_555
C27_7 C28_7 1_555 1_555
C37_7 C38_7 1_555 1_555
C38_7 C39_7 1_555 1_555
C39_7 C40_7 1_555 1_555
C41_7 C42_7 1_555 1_555
O3_6 Cu7_2 1_555 1_555
O4_6 Cu5_2 1_555 1_555
O10_6 Cu7_2 1_555 1_555
O11_6 Cu5_2 1_555 1_555
O12_7 C33_8 1_555 1_555
N2_8 C26_8 1_555 1_555
C22_8 O10_6 1_555 1_555
C23_8 C22_8 1_555 1_555
C24_8 C23_8 1_555 1_555
H11_8 C24_8 1_555 1_555
C25_8 C24_8 1_555 1_555
H12_8 C25_8 1_555 1_555
C26_8 C25_8 1_555 1_555
C27_8 C26_8 1_555 1_555
C28_8 C23_8 1_555 1_555
H13_8 C28_8 1_555 1_555
C29_8 N2_8 1_555 1_555
C30_8 C29_8 1_555 1_555
H14_8 C30_8 1_555 1_555
C31_8 C30_8 1_555 1_555
H15_8 C31_8 1_555 1_555
C32_8 C31_8 1_555 1_555
C33_8 C32_8 1_555 1_555
O17_5 C34_8 1_555 1_555
O19_5 C34_8 1_555 1_555
O15_5 C33_8 1_555 1_555
C34_8 C35_8 1_555 1_555
C35_8 C36_8 1_555 1_555
C36_8 H16_8 1_555 1_555
C37_8 C36_8 1_555 1_555
H17_8 C37_8 1_555 1_555
C38_8 N2_8 1_555 1_555
C39_8 C27_8 1_555 1_555
C40_8 C35_8 1_555 1_555
H18_8 C40_8 1_555 1_555
C41_8 C29_8 1_555 1_555
H19_8 C41_8 1_555 1_555
C42_8 C32_8 1_555 1_555
H20_8 C42_8 1_555 1_555
Cu8_8 O12_7 1_555 1_555
Cu10_8 O15_5 1_555 1_555
O11_6 C22_8 1_555 1_555
C27_8 C28_8 1_555 1_555
C37_8 C38_8 1_555 1_555
C38_8 C39_8 1_555 1_555
C39_8 C40_8 1_555 1_555
C41_8 C42_8 1_555 1_555
O6_17 Cu8_5 1_555 1_555
O6_18 Cu8_6 1_555 1_555
O6_19 Cu8_7 1_555 1_555
O6_20 Cu8_8 1_555 1_555
O6_21 Cu10_5 1_555 1_555
O6_22 Cu10_6 1_555 1_555
O6_23 Cu10_7 1_555 1_555
O6_24 Cu10_8 1_555 1_555

#END
