
###############################################################################
#
# This file contains modified crystal structure data generated from the
# MOF subset of the Cambridge Structural Database (CSD) v543 
# hosted by the Cambridge Crystallographic Data Centre (CCDC).
#
# This work is licensed under the Creative Commons
# Attribution-NonCommercial-ShareAlike 4.0 International License.
# To view a copy of this license, visit
# http://creativecommons.org/licenses/by-nc-sa/4.0/
# or send a letter to
# Creative Commons, PO Box 1866, Mountain View, CA 94042, USA.
#
# CIF created using the CSD Python API on 29 September 2022
# The structure has been converted into the P1 space group
# The structure has a 3D framework
# The original CSD entry KOZSEZ is in the rhombohedral crystal system
# The framework has been calculated to contain at least 10.0% void space
# The void calculation uses a probe of radius 1.32A, grid spacing 0.4
#
###############################################################################

data_KOZSEZ
_chemical_formula_moiety         '(C396 H270 N54 Zn12)n'
_symmetry_cell_setting           triclinic
_symmetry_space_group_name_H-M   'P 1'
_symmetry_Int_Tables_number      1
_space_group_name_Hall           'P 1'
loop_
_symmetry_equiv_pos_site_id
_symmetry_equiv_pos_as_xyz
1 x,y,z
_cell_length_a                   32.9136(15)
_cell_length_b                   32.9136(15)
_cell_length_c                   9.2886(5)
_cell_angle_alpha                90
_cell_angle_beta                 90
_cell_angle_gamma                120
_cell_volume                     8714.28
loop_
_atom_site_label
_atom_site_type_symbol
_atom_site_fract_x
_atom_site_fract_y
_atom_site_fract_z
Zn1 Zn 0.5000 0.0000 0.0000
N1 N 0.49917(5) 0.05897(5) 0.07195(14)
N2 N 0.53442(5) 0.00111(5) 0.18889(14)
C1 C 0.47470(6) 0.07750(6) 0.00794(17)
C2 C 0.47737(6) 0.11489(6) 0.09648(18)
H1 H 0.4639 0.1339 0.0756
C3 C 0.50266(6) 0.11773(6) 0.21459(19)
H2 H 0.5102 0.1390 0.2925
C4 C 0.51608(6) 0.08215(6) 0.19993(17)
C5 C 0.54092(6) 0.07198(6) 0.30359(17)
C6 C 0.55049(6) 0.03478(6) 0.29424(17)
C7 C 0.58156(6) 0.02828(6) 0.38907(19)
H3 H 0.5970 0.0465 0.4718
C11 C 0.55902(6) 0.10334(6) 0.43211(18)
C12 C 0.54334(6) 0.08565(6) 0.57014(18)
H5 H 0.5214 0.0532 0.5826
C13 C 0.55945(6) 0.11495(7) 0.68951(19)
H6 H 0.5480 0.1023 0.7824
C14 C 0.59193(7) 0.16243(7) 0.6758(2)
C15 C 0.60774(7) 0.17987(7) 0.5385(2)
H7 H 0.6300 0.2122 0.5267
C16 C 0.59164(6) 0.15103(6) 0.4184(2)
H8 H 0.6030 0.1639 0.3256
C17 C 0.61014(9) 0.19324(8) 0.8080(2)
H9 H 0.5853 0.1822 0.8807
H10 H 0.6200 0.2257 0.7818
H11 H 0.6370 0.1918 0.8472
C7_2 C 0.78005(8) 0.08511(6) 0.05574(19)
H3_2 H 0.7828 0.0697 0.1385
C8 C 0.74024(8) 0.08208(6) 0.00482(19)
H4 H 0.7096 0.0640 0.0447
C11_2 C 0.87765(8) 0.10765(6) 0.09878(18)
C12_2 C 0.87564(8) 0.12333(6) 0.23681(18)
H5_2 H 0.8651 0.1453 0.2493
C13_2 C 0.88883(9) 0.10722(6) 0.35618(19)
H6_2 H 0.8876 0.1187 0.4491
C14_2 C 0.90383(10) 0.07474(7) 0.3425(2)
C15_2 C 0.90546(10) 0.05893(7) 0.2052(2)
H7_2 H 0.9155 0.0367 0.1934
C16_2 C 0.89272(8) 0.07503(6) 0.0851(2)
C17_2 C 0.91643(12) 0.05653(9) 0.4747(2)
H9_2 H 0.9302 0.0814 0.5474
H10_2 H 0.9390 0.0467 0.4485
H11_2 H 0.8881 0.0297 0.5139
H13 H 0.5962 0.0936 0.0545
Zn1_2 Zn 0.5000 -0.0000 1.0000
C30 C 0.41541(6) 0.00850(6) 0.66185(19)
H19 H 0.3973 0.0210 0.6220
C31 C 0.44485(6) 0.02542(6) 0.78862(17)
C32 C 0.44949(6) 0.06185(6) 0.87801(18)
N6 N 0.37678(5) 0.13443(7) 0.75777(15)
C40 C 0.42379(6) 0.08648(8) 0.83386(18)
C41 C 0.43981(6) 0.11883(8) 0.72206(19)
H27 H 0.4671 0.1252 0.6694
C42 C 0.41547(6) 0.14175(8) 0.68858(19)
H28 H 0.4269 0.1640 0.6122
C43 C 0.36117(6) 0.10298(8) 0.86422(18)
H29 H 0.3335 0.0971 0.9140
C44 C 0.38335(6) 0.07851(8) 0.90548(18)
H30 H 0.3710 0.0565 0.9821
Zn3 Zn 0.3333 0.1667 0.6667
N7 N 0.57568(9) 0.04345(5) 0.90890(15)
Zn1_3 Zn 0.5000 1.0000 0.0000
N3 N 0.62322(5) 0.86557(7) 0.24223(15)
C8_2 C 0.58459(6) 0.99150(6) 0.33815(19)
H4_2 H 0.6027 0.9790 0.3780
C9 C 0.55515(6) 0.97458(6) 0.21138(17)
C10 C 0.55051(6) 0.93815(6) 0.12199(18)
C18 C 0.57621(6) 0.91352(8) 0.16614(18)
C19 C 0.56019(6) 0.88117(8) 0.27794(19)
H12 H 0.5329 0.8748 0.3306
C20 C 0.58453(6) 0.85825(8) 0.31142(19)
H13_2 H 0.5731 0.8360 0.3878
C21 C 0.63883(6) 0.89702(8) 0.13578(18)
H14 H 0.6665 0.9029 0.0860
C22 C 0.61665(6) 0.92149(8) 0.09452(18)
H15 H 0.6290 0.9435 0.0179
Zn2 Zn 0.6667 0.8333 0.3333
N8 N 0.42432(9) 0.95655(5) 0.09110(15)
Zn1_4 Zn 0.0000 0.5000 0.0000
N3_2 N 0.13443(7) 0.75765(9) 0.24223(15)
C8_3 C 0.00850(6) 0.59309(8) 0.33815(19)
H4_3 H 0.0210 0.6237 0.3780
C9_2 C 0.02542(6) 0.58057(8) 0.21138(17)
C10_2 C 0.06185(6) 0.61236(8) 0.12199(18)
C18_2 C 0.08648(8) 0.66269(10) 0.16614(18)
C19_2 C 0.11883(8) 0.67902(10) 0.27794(19)
H12_2 H 0.1252 0.6581 0.3306
C20_2 C 0.14175(8) 0.72628(10) 0.31142(19)
H13_3 H 0.1640 0.7371 0.3878
C21_2 C 0.10298(8) 0.74181(10) 0.13578(18)
H14_2 H 0.0971 0.7636 0.0860
C22_2 C 0.07851(8) 0.69516(10) 0.09452(18)
H15_2 H 0.0565 0.6855 0.0179
Zn2_2 Zn 0.1667 0.8333 0.3333
N8_2 N 0.04345(5) 0.46776(10) 0.09110(15)
Zn1_5 Zn 1.0000 0.5000 1.0000
C30_2 C 0.99150(6) 0.40691(8) 0.66185(19)
H19_2 H 0.9790 0.3763 0.6220
C31_2 C 0.97458(6) 0.41943(8) 0.78862(17)
C32_2 C 0.93815(6) 0.38764(8) 0.87801(18)
N6_2 N 0.86557(7) 0.24235(9) 0.75777(15)
C40_2 C 0.91352(8) 0.33731(10) 0.83386(18)
C41_2 C 0.88117(8) 0.32098(10) 0.72206(19)
H27_2 H 0.8748 0.3419 0.6694
C42_2 C 0.85825(8) 0.27372(10) 0.68858(19)
H28_2 H 0.8360 0.2629 0.6122
C43_2 C 0.89702(8) 0.25819(10) 0.86422(18)
H29_2 H 0.9029 0.2364 0.9140
C44_2 C 0.92149(8) 0.30484(10) 0.90548(18)
H30_2 H 0.9435 0.3145 0.9821
Zn3_2 Zn 0.8333 0.1667 0.6667
N7_2 N 0.95655(5) 0.53224(10) 0.90890(15)
Zn1_6 Zn 0.5000 0.5000 0.0000
N1_2 N 0.55980(7) 0.50083(5) 0.07195(14)
N2_2 N 0.46669(7) 0.46558(5) 0.18889(14)
N3_3 N 0.24235(9) 0.37678(5) 0.24223(15)
C1_2 C 0.60280(8) 0.52530(6) 0.00794(17)
C2_2 C 0.63752(8) 0.52263(6) 0.09648(18)
H1_2 H 0.6700 0.5361 0.0756
C3_2 C 0.61507(8) 0.49734(6) 0.21459(19)
H2_2 H 0.6288 0.4898 0.2925
C4_2 C 0.56607(8) 0.48392(6) 0.19993(17)
C5_2 C 0.53106(8) 0.45908(6) 0.30359(17)
C6_2 C 0.48429(8) 0.44951(6) 0.29424(17)
C7_3 C 0.44672(8) 0.41844(6) 0.38907(19)
H3_3 H 0.4495 0.4030 0.4718
C8_4 C 0.40691(8) 0.41541(6) 0.33815(19)
H4_4 H 0.3763 0.3973 0.3780
C9_3 C 0.41943(8) 0.44485(6) 0.21138(17)
C10_3 C 0.38764(8) 0.44949(6) 0.12199(18)
C11_3 C 0.54432(8) 0.44098(6) 0.43211(18)
C12_3 C 0.54231(8) 0.45666(6) 0.57014(18)
H5_3 H 0.5318 0.4786 0.5826
C13_3 C 0.55550(9) 0.44055(6) 0.68951(19)
H6_3 H 0.5543 0.4520 0.7824
C14_3 C 0.57050(10) 0.40807(7) 0.6758(2)
C15_3 C 0.57213(10) 0.39226(7) 0.5385(2)
H7_3 H 0.5822 0.3700 0.5267
C16_3 C 0.55939(8) 0.40836(6) 0.4184(2)
H8_2 H 0.5609 0.3970 0.3256
C17_3 C 0.58310(12) 0.38986(9) 0.8080(2)
H9_3 H 0.5969 0.4147 0.8807
H10_3 H 0.6057 0.3800 0.7818
H11_3 H 0.5548 0.3630 0.8472
C18_3 C 0.33731(10) 0.42379(6) 0.16614(18)
C19_3 C 0.32098(10) 0.43981(6) 0.27794(19)
H12_3 H 0.3419 0.4671 0.3306
C20_3 C 0.27372(10) 0.41547(6) 0.31142(19)
H13_4 H 0.2629 0.4269 0.3878
C21_3 C 0.25819(10) 0.36117(6) 0.13578(18)
H14_3 H 0.2364 0.3335 0.0860
C22_3 C 0.30484(10) 0.38335(6) 0.09452(18)
H15_3 H 0.3145 0.3710 0.0179
Zn2_3 Zn 0.1667 0.3333 0.3333
N8_3 N 0.53224(10) 0.57568(9) 0.09110(15)
Zn1_7 Zn 0.5000 0.5000 1.0000
N4 N 0.44020(7) 0.49917(5) 0.92805(14)
N5 N 0.53331(7) 0.53442(5) 0.81111(14)
C23 C 0.39720(8) 0.47470(6) 0.99206(17)
C24 C 0.36248(8) 0.47737(6) 0.90352(18)
H16 H 0.3300 0.4639 0.9244
C25 C 0.38493(8) 0.50266(6) 0.78541(19)
H17 H 0.3712 0.5102 0.7075
C26 C 0.43393(8) 0.51608(6) 0.80007(17)
C27 C 0.46894(8) 0.54092(6) 0.69641(17)
C28 C 0.51571(8) 0.55049(6) 0.70576(17)
C29 C 0.55328(8) 0.58156(6) 0.61093(19)
H18 H 0.5505 0.5970 0.5282
C30_3 C 0.59309(8) 0.58459(6) 0.66185(19)
H19_3 H 0.6237 0.6027 0.6220
C31_3 C 0.58057(8) 0.55515(6) 0.78862(17)
C32_3 C 0.61236(8) 0.55051(6) 0.87801(18)
C33 C 0.45568(8) 0.55902(6) 0.56789(18)
C34 C 0.45769(8) 0.54334(6) 0.42986(18)
H20 H 0.4682 0.5214 0.4174
C35 C 0.44450(9) 0.55945(6) 0.31049(19)
H21 H 0.4457 0.5480 0.2176
C36 C 0.42950(10) 0.59193(7) 0.3242(2)
C37 C 0.42787(10) 0.60774(7) 0.4615(2)
H22 H 0.4178 0.6300 0.4733
C38 C 0.44061(8) 0.59164(6) 0.5816(2)
H23 H 0.4391 0.6030 0.6744
C39 C 0.41690(12) 0.61014(9) 0.1920(2)
H24 H 0.4031 0.5853 0.1193
H25 H 0.3943 0.6200 0.2182
H26 H 0.4452 0.6370 0.1528
N6_3 N 0.75765(9) 0.62322(5) 0.75777(15)
C40_3 C 0.66269(10) 0.57621(6) 0.83386(18)
C41_3 C 0.67902(10) 0.56019(6) 0.72206(19)
H27_3 H 0.6581 0.5329 0.6694
C42_3 C 0.72628(10) 0.58453(6) 0.68858(19)
H28_3 H 0.7371 0.5731 0.6122
C43_3 C 0.74181(10) 0.63883(6) 0.86422(18)
H29_3 H 0.7636 0.6665 0.9140
C44_3 C 0.69516(10) 0.61665(6) 0.90548(18)
H30_3 H 0.6855 0.6290 0.9821
Zn3_3 Zn 0.8333 0.6667 0.6667
N7_3 N 0.46776(10) 0.42432(9) 0.90890(15)
N1_3 N 0.16584(5) 0.39230(5) 0.40528(14)
N2_3 N 0.20109(5) 0.33444(5) 0.52222(14)
N3_4 N 0.28989(5) 0.19890(7) 0.57556(15)
C1_3 C 0.14137(6) 0.41083(6) 0.34127(17)
C2_3 C 0.14404(6) 0.44822(6) 0.42981(18)
H1_3 H 0.1306 0.4672 0.4089
C3_3 C 0.16933(6) 0.45106(6) 0.54792(19)
H2_3 H 0.1769 0.4723 0.6258
C4_3 C 0.18275(6) 0.41548(6) 0.53326(17)
C5_3 C 0.20759(6) 0.40531(6) 0.63692(17)
C6_3 C 0.21716(6) 0.36811(6) 0.62757(17)
C7_4 C 0.24823(6) 0.36161(6) 0.72240(19)
H3_4 H 0.2637 0.3798 0.8051
C8_5 C 0.25126(6) 0.32483(6) 0.67148(19)
H4_5 H 0.2694 0.3123 0.7113
C9_4 C 0.22182(6) 0.30791(6) 0.54471(17)
C10_4 C 0.21718(6) 0.27148(6) 0.45532(18)
C11_4 C 0.22569(6) 0.43667(6) 0.76544(18)
C12_4 C 0.21001(6) 0.41898(6) 0.90347(18)
H5_4 H 0.1881 0.3865 0.9159
C15_4 C 0.27441(7) 0.51320(7) 0.8718(2)
H7_4 H 0.2967 0.5455 0.8600
C16_4 C 0.25831(6) 0.48436(6) 0.7517(2)
H8_3 H 0.2697 0.4972 0.6589
C18_4 C 0.24288(6) 0.24685(8) 0.49947(18)
C19_4 C 0.22686(6) 0.21450(8) 0.61127(19)
H12_4 H 0.1996 0.2081 0.6639
C20_4 C 0.25120(6) 0.19158(8) 0.64475(19)
H13_5 H 0.2398 0.1693 0.7211
C21_4 C 0.30550(6) 0.23035(8) 0.46911(18)
H14_4 H 0.3332 0.2362 0.4193
C22_4 C 0.28332(6) 0.25482(8) 0.42785(18)
H15_4 H 0.2957 0.2768 0.3512
N4_2 N 0.16750(5) 0.27436(5) 0.26138(14)
N5_2 N 0.13225(5) 0.33222(5) 0.14444(14)
C23_2 C 0.19197(6) 0.25583(6) 0.32539(17)
C24_2 C 0.18930(6) 0.21844(6) 0.23685(18)
H16_2 H 0.2028 0.1994 0.2577
C25_2 C 0.16401(6) 0.21560(6) 0.11874(19)
H17_2 H 0.1565 0.1943 0.0408
C26_2 C 0.15059(6) 0.25118(6) 0.13340(17)
C27_2 C 0.12575(6) 0.26135(6) 0.02974(17)
C28_2 C 0.11618(6) 0.29855(6) 0.03909(17)
C31_4 C 0.11152(6) 0.35875(6) 0.12195(17)
C32_4 C 0.11616(6) 0.39518(6) 0.21134(18)
H23_2 H 0.0637 0.1694 0.0077
C40_4 C 0.09046(6) 0.41981(8) 0.16719(18)
C41_4 C 0.10648(6) 0.45216(8) 0.05539(19)
H27_4 H 0.1338 0.4585 0.0027
C42_4 C 0.08214(6) 0.47508(8) 0.02191(19)
C43_4 C 0.02784(6) 0.43631(8) 0.19755(18)
H29_4 H 0.0002 0.4304 0.2473
C44_4 C 0.05002(6) 0.41184(8) 0.23881(18)
H30_4 H 0.0377 0.3898 0.3154
N8_4 N 0.09098(9) 0.28989(5) 0.42444(15)
N3_5 N 0.80110(7) 0.09098(9) 0.57556(15)
C19_5 C 0.78550(8) 0.01235(10) 0.61127(19)
C20_5 C 0.80842(8) 0.05961(10) 0.64475(19)
H13_6 H 0.8307 0.0704 0.7211
C21_5 C 0.76965(8) 0.07514(10) 0.46911(18)
H14_5 H 0.7638 0.0969 0.4193
C22_5 C 0.74518(8) 0.02849(10) 0.42785(18)
H15_5 H 0.7232 0.0188 0.3512
H16_3 H 0.8006 0.0033 0.2577
N1_4 N 0.60770(5) 0.77353(7) 0.40528(14)
N2_4 N 0.66556(5) 0.86664(7) 0.52222(14)
C1_4 C 0.58917(6) 0.73053(8) 0.34127(17)
C2_4 C 0.55178(6) 0.69581(8) 0.42981(18)
H1_4 H 0.5328 0.6633 0.4089
C3_4 C 0.54894(6) 0.71826(8) 0.54792(19)
H2_4 H 0.5277 0.7045 0.6258
C4_4 C 0.58452(6) 0.76726(8) 0.53326(17)
C5_4 C 0.59469(6) 0.80227(8) 0.63692(17)
C6_4 C 0.63189(6) 0.84904(8) 0.62757(17)
C7_5 C 0.63839(6) 0.88661(8) 0.72240(19)
H3_5 H 0.6202 0.8838 0.8051
C8_6 C 0.67517(6) 0.92642(8) 0.67148(19)
H4_6 H 0.6877 0.9570 0.7113
C9_5 C 0.69209(6) 0.91390(8) 0.54471(17)
C10_5 C 0.72852(6) 0.94569(8) 0.45532(18)
C11_5 C 0.56333(6) 0.78901(8) 0.76544(18)
C12_5 C 0.58102(6) 0.79102(8) 0.90347(18)
H5_5 H 0.6135 0.8015 0.9159
C15_5 C 0.48680(7) 0.76120(10) 0.8718(2)
H7_5 H 0.4545 0.7511 0.8600
C16_5 C 0.51564(6) 0.77394(8) 0.7517(2)
H8_4 H 0.5028 0.7724 0.6589
C18_5 C 0.75315(8) 0.99602(10) 0.49947(18)
H12_5 H 0.7919 0.9914 0.6639
N4_3 N 0.72564(5) 0.89313(7) 0.26138(14)
N5_3 N 0.66778(5) 0.80002(7) 0.14444(14)
C23_3 C 0.74417(6) 0.93613(8) 0.32539(17)
C24_3 C 0.78156(6) 0.97085(8) 0.23685(18)
C25_3 C 0.78440(6) 0.94840(8) 0.11874(19)
H17_3 H 0.8057 0.9621 0.0408
C26_3 C 0.74882(6) 0.89940(8) 0.13340(17)
C27_3 C 0.73865(6) 0.86439(8) 0.02974(17)
C28_3 C 0.70145(6) 0.81762(8) 0.03909(17)
C31_5 C 0.64125(6) 0.75276(8) 0.12195(17)
C32_5 C 0.60482(6) 0.72097(8) 0.21134(18)
H23_3 H 0.8306 0.8942 0.0077
C40_5 C 0.58019(8) 0.67064(10) 0.16719(18)
C41_5 C 0.54784(8) 0.65431(10) 0.05539(19)
H27_5 H 0.5415 0.6752 0.0027
C42_5 C 0.52492(8) 0.60705(10) 0.02191(19)
C43_5 C 0.56369(8) 0.59152(10) 0.19755(18)
H29_5 H 0.5696 0.5697 0.2473
C44_5 C 0.58816(8) 0.63817(10) 0.23881(18)
H30_5 H 0.6102 0.6478 0.3154
N8_5 N 0.71011(5) 0.80110(10) 0.42444(15)
C29_2 C 0.69495(6) 0.78005(8) 0.94426(19)
H18_2 H 0.7132 0.7828 0.8615
C30_4 C 0.65817(6) 0.74024(8) 0.99518(19)
H19_4 H 0.6457 0.7096 0.9553
C33_2 C 0.77001(6) 0.87765(8) 0.90122(18)
C34_2 C 0.75232(6) 0.87564(8) 0.76319(18)
H20_2 H 0.7199 0.8651 0.7507
C35_2 C 0.78162(7) 0.88883(9) 0.64382(19)
H21_2 H 0.7690 0.8876 0.5509
C36_2 C 0.82910(7) 0.90383(10) 0.6575(2)
C37_2 C 0.84654(7) 0.90546(10) 0.7948(2)
H22_2 H 0.8789 0.9155 0.8066
C38_2 C 0.81770(6) 0.89272(8) 0.9149(2)
C39_2 C 0.85991(8) 0.91643(12) 0.5253(2)
H24_2 H 0.8489 0.9302 0.4526
H25_2 H 0.8924 0.9390 0.5515
H26_2 H 0.8585 0.8881 0.4861
H28_4 H 0.5027 0.5962 0.9455
N1_5 N 0.22647(7) 0.83416(5) 0.40528(14)
N2_5 N 0.13336(7) 0.79891(5) 0.52222(14)
C1_5 C 0.26947(8) 0.85863(6) 0.34127(17)
C2_5 C 0.30419(8) 0.85596(6) 0.42981(18)
H1_5 H 0.3367 0.8694 0.4089
C3_5 C 0.28174(8) 0.83067(6) 0.54792(19)
H2_5 H 0.2955 0.8231 0.6258
C4_5 C 0.23274(8) 0.81725(6) 0.53326(17)
C5_5 C 0.19773(8) 0.79241(6) 0.63692(17)
C6_5 C 0.15096(8) 0.78284(6) 0.62757(17)
C7_6 C 0.11339(8) 0.75177(6) 0.72240(19)
H3_6 H 0.1162 0.7363 0.8051
C8_7 C 0.07358(8) 0.74874(6) 0.67148(19)
H4_7 H 0.0430 0.7306 0.7113
C9_6 C 0.08610(8) 0.77818(6) 0.54471(17)
C10_6 C 0.05431(8) 0.78282(6) 0.45532(18)
C11_6 C 0.21099(8) 0.77431(6) 0.76544(18)
C12_6 C 0.20898(8) 0.78999(6) 0.90347(18)
H5_6 H 0.1985 0.8119 0.9159
C15_6 C 0.23880(10) 0.72559(7) 0.8718(2)
H7_6 H 0.2489 0.7033 0.8600
C16_6 C 0.22606(8) 0.74169(6) 0.7517(2)
H8_5 H 0.2276 0.7303 0.6589
C18_6 C 0.00398(10) 0.75712(6) 0.49947(18)
H12_6 H 0.0086 0.8004 0.6639
N4_4 N 0.10687(7) 0.83250(5) 0.26138(14)
N5_4 N 0.19998(7) 0.86775(5) 0.14444(14)
C23_4 C 0.06387(8) 0.80803(6) 0.32539(17)
C24_4 C 0.02915(8) 0.81070(6) 0.23685(18)
C25_4 C 0.05160(8) 0.83599(6) 0.11874(19)
H17_4 H 0.0379 0.8435 0.0408
C26_4 C 0.10060(8) 0.84941(6) 0.13340(17)
C27_4 C 0.13561(8) 0.87425(6) 0.02974(17)
C28_4 C 0.18238(8) 0.88382(6) 0.03909(17)
C31_6 C 0.24724(8) 0.88848(6) 0.12195(17)
C32_6 C 0.27903(8) 0.88384(6) 0.21134(18)
H23_4 H 0.1058 0.9363 0.0077
C40_6 C 0.32936(10) 0.90954(6) 0.16719(18)
C41_6 C 0.34569(10) 0.89352(6) 0.05539(19)
H27_6 H 0.3248 0.8662 0.0027
C42_6 C 0.39295(10) 0.91786(6) 0.02191(19)
C43_6 C 0.40848(10) 0.97216(6) 0.19755(18)
H29_6 H 0.4303 0.9998 0.2473
C44_6 C 0.36183(10) 0.94998(6) 0.23881(18)
H30_6 H 0.3522 0.9623 0.3154
N8_6 N 0.19890(10) 0.90902(9) 0.42444(15)
N3_6 N 0.90902(9) 0.71011(5) 0.57556(15)
C19_6 C 0.98765(10) 0.77314(6) 0.61127(19)
C20_6 C 0.94039(10) 0.74880(6) 0.64475(19)
H13_7 H 0.9296 0.7602 0.7211
C21_6 C 0.92486(10) 0.69450(6) 0.46911(18)
H14_6 H 0.9031 0.6668 0.4193
C22_6 C 0.97151(10) 0.71668(6) 0.42785(18)
H15_6 H 0.9812 0.7043 0.3512
H16_4 H 0.9967 0.7972 0.2577
N1_6 N 0.83250(5) 0.72564(5) 0.73862(14)
N2_6 N 0.86775(5) 0.66778(5) 0.85556(14)
C1_6 C 0.80803(6) 0.74417(6) 0.67461(17)
C2_6 C 0.81070(6) 0.78156(6) 0.76315(18)
H1_6 H 0.7972 0.8006 0.7423
C3_6 C 0.83599(6) 0.78440(6) 0.88126(19)
H2_6 H 0.8435 0.8057 0.9592
C4_6 C 0.84941(6) 0.74882(6) 0.86660(17)
C5_6 C 0.87425(6) 0.73865(6) 0.97026(17)
C6_6 C 0.88382(6) 0.70145(6) 0.96091(17)
C9_7 C 0.88848(6) 0.64125(6) 0.87805(17)
C10_7 C 0.88384(6) 0.60482(6) 0.78866(18)
H8_6 H 0.9363 0.8306 0.9923
C18_7 C 0.90954(6) 0.58019(8) 0.83281(18)
C19_7 C 0.89352(6) 0.54784(8) 0.94461(19)
H12_7 H 0.8662 0.5415 0.9973
C20_7 C 0.91786(6) 0.52492(8) 0.97809(19)
C21_7 C 0.97216(6) 0.56369(8) 0.80245(18)
H14_7 H 0.9998 0.5696 0.7527
C22_7 C 0.94998(6) 0.58816(8) 0.76119(18)
H15_7 H 0.9623 0.6102 0.6846
N4_5 N 0.83416(5) 0.60770(5) 0.59472(14)
N5_5 N 0.79891(5) 0.66556(5) 0.47778(14)
C23_5 C 0.85863(6) 0.58917(6) 0.65873(17)
C24_5 C 0.85596(6) 0.55178(6) 0.57019(18)
H16_5 H 0.8694 0.5328 0.5911
C25_5 C 0.83067(6) 0.54894(6) 0.45208(19)
H17_5 H 0.8231 0.5277 0.3742
C26_5 C 0.81725(6) 0.58452(6) 0.46674(17)
C27_5 C 0.79241(6) 0.59469(6) 0.36308(17)
C28_5 C 0.78284(6) 0.63189(6) 0.37243(17)
C29_3 C 0.75177(6) 0.63839(6) 0.27760(19)
H18_3 H 0.7363 0.6202 0.1949
C30_5 C 0.74874(6) 0.67517(6) 0.32852(19)
H19_5 H 0.7306 0.6877 0.2887
C31_7 C 0.77818(6) 0.69209(6) 0.45529(17)
C32_7 C 0.78282(6) 0.72852(6) 0.54468(18)
C33_3 C 0.77431(6) 0.56333(6) 0.23456(18)
C34_3 C 0.78999(6) 0.58102(6) 0.09653(18)
H20_3 H 0.8119 0.6135 0.0841
C37_3 C 0.72559(7) 0.48680(7) 0.1282(2)
H22_3 H 0.7033 0.4545 0.1400
C38_3 C 0.74169(6) 0.51564(6) 0.2483(2)
H23_5 H 0.7303 0.5028 0.3411
C40_7 C 0.75712(6) 0.75315(8) 0.50053(18)
C41_7 C 0.77314(6) 0.78550(8) 0.38873(19)
H27_7 H 0.8004 0.7919 0.3361
C42_7 C 0.74880(6) 0.80842(8) 0.35525(19)
H28_5 H 0.7602 0.8307 0.2789
C43_7 C 0.69450(6) 0.76965(8) 0.53089(18)
H29_7 H 0.6668 0.7638 0.5807
C44_7 C 0.71668(6) 0.74518(8) 0.57215(18)
H30_7 H 0.7043 0.7232 0.6488
C7_7 C 0.30505(6) 0.21995(8) 0.05574(19)
H3_7 H 0.2868 0.2172 0.1385
C8_8 C 0.34183(6) 0.25976(8) 0.00482(19)
H4_8 H 0.3543 0.2904 0.0447
C11_7 C 0.22999(6) 0.12235(8) 0.09878(18)
C12_7 C 0.24768(6) 0.12436(8) 0.23681(18)
H5_7 H 0.2801 0.1349 0.2493
C13_4 C 0.21838(7) 0.11117(9) 0.35618(19)
H6_4 H 0.2310 0.1124 0.4491
C14_4 C 0.17090(7) 0.09617(10) 0.3425(2)
C15_7 C 0.15346(7) 0.09454(10) 0.2052(2)
H7_7 H 0.1211 0.0845 0.1934
C16_7 C 0.18230(6) 0.10728(8) 0.0851(2)
C17_4 C 0.14009(8) 0.08357(12) 0.4747(2)
H9_4 H 0.1511 0.0698 0.5474
H10_4 H 0.1076 0.0610 0.4485
H11_4 H 0.1415 0.1119 0.5139
H13_8 H 0.4973 0.4038 0.0545
N1_7 N 0.27436(5) 0.10687(7) 0.73862(14)
N2_7 N 0.33222(5) 0.19998(7) 0.85556(14)
C1_7 C 0.25583(6) 0.06387(8) 0.67461(17)
C2_7 C 0.21844(6) 0.02915(8) 0.76315(18)
C3_7 C 0.21560(6) 0.05160(8) 0.88126(19)
H2_7 H 0.1943 0.0379 0.9592
C4_7 C 0.25118(6) 0.10060(8) 0.86660(17)
C5_7 C 0.26135(6) 0.13561(8) 0.97026(17)
C6_7 C 0.29855(6) 0.18238(8) 0.96091(17)
C9_8 C 0.35875(6) 0.24724(8) 0.87805(17)
C10_8 C 0.39518(6) 0.27903(8) 0.78866(18)
H8_7 H 0.1694 0.1058 0.9923
C18_8 C 0.41981(8) 0.32936(10) 0.83281(18)
C19_8 C 0.45216(8) 0.34569(10) 0.94461(19)
H12_8 H 0.4585 0.3248 0.9973
C20_8 C 0.47508(8) 0.39295(10) 0.97809(19)
C21_8 C 0.43631(8) 0.40848(10) 0.80245(18)
H14_8 H 0.4304 0.4303 0.7527
C22_8 C 0.41184(8) 0.36183(10) 0.76119(18)
H15_8 H 0.3898 0.3522 0.6846
N4_6 N 0.39230(5) 0.22647(7) 0.59472(14)
N5_6 N 0.33444(5) 0.13336(7) 0.47778(14)
C23_6 C 0.41083(6) 0.26947(8) 0.65873(17)
C24_6 C 0.44822(6) 0.30419(8) 0.57019(18)
H16_6 H 0.4672 0.3367 0.5911
C25_6 C 0.45106(6) 0.28174(8) 0.45208(19)
H17_6 H 0.4723 0.2955 0.3742
C26_6 C 0.41548(6) 0.23274(8) 0.46674(17)
C27_6 C 0.40531(6) 0.19773(8) 0.36308(17)
C28_6 C 0.36811(6) 0.15096(8) 0.37243(17)
C29_4 C 0.36161(6) 0.11339(8) 0.27760(19)
H18_4 H 0.3798 0.1162 0.1949
C30_6 C 0.32483(6) 0.07358(8) 0.32852(19)
H19_6 H 0.3123 0.0430 0.2887
C31_8 C 0.30791(6) 0.08610(8) 0.45529(17)
C32_8 C 0.27148(6) 0.05431(8) 0.54468(18)
C33_4 C 0.43667(6) 0.21099(8) 0.23456(18)
C34_4 C 0.41898(6) 0.20898(8) 0.09653(18)
H20_4 H 0.3865 0.1985 0.0841
C37_4 C 0.51320(7) 0.23880(10) 0.1282(2)
H22_4 H 0.5455 0.2489 0.1400
C38_4 C 0.48436(6) 0.22606(8) 0.2483(2)
H23_6 H 0.4972 0.2276 0.3411
C40_8 C 0.24685(8) 0.00398(10) 0.50053(18)
H27_8 H 0.2081 0.0086 0.3361
H1_7 H 0.1994 0.9967 0.7423
C41_8 C 0.21450(8) 0.98765(10) 0.38873(19)
C42_8 C 0.19158(8) 0.94039(10) 0.35525(19)
H28_6 H 0.1693 0.9296 0.2789
C43_8 C 0.23035(8) 0.92486(10) 0.53089(18)
H29_8 H 0.2362 0.9031 0.5807
C44_8 C 0.25482(8) 0.97151(10) 0.57215(18)
H30_8 H 0.2768 0.9812 0.6488
H1_8 H 0.0033 0.2028 0.7423
C41_9 C 0.01235(10) 0.22686(6) 0.38873(19)
C42_9 C 0.05961(10) 0.25120(6) 0.35525(19)
H28_7 H 0.0704 0.2398 0.2789
C43_9 C 0.07514(10) 0.30550(6) 0.53089(18)
H29_9 H 0.0969 0.3332 0.5807
C44_9 C 0.02849(10) 0.28332(6) 0.57215(18)
H30_9 H 0.0188 0.2957 0.6488
N1_8 N 0.89313(7) 0.16750(5) 0.73862(14)
N2_8 N 0.80002(7) 0.13225(5) 0.85556(14)
C1_8 C 0.93613(8) 0.19197(6) 0.67461(17)
C2_8 C 0.97085(8) 0.18930(6) 0.76315(18)
C3_8 C 0.94840(8) 0.16401(6) 0.88126(19)
H2_8 H 0.9621 0.1565 0.9592
C4_8 C 0.89940(8) 0.15059(6) 0.86660(17)
C5_8 C 0.86439(8) 0.12575(6) 0.97026(17)
C6_8 C 0.81762(8) 0.11618(6) 0.96091(17)
C9_9 C 0.75276(8) 0.11152(6) 0.87805(17)
C10_9 C 0.72097(8) 0.11616(6) 0.78866(18)
H8_8 H 0.8942 0.0637 0.9923
C18_9 C 0.67064(10) 0.09046(6) 0.83281(18)
C19_9 C 0.65431(10) 0.10648(6) 0.94461(19)
H12_9 H 0.6752 0.1338 0.9973
C20_9 C 0.60705(10) 0.08214(6) 0.97809(19)
C21_9 C 0.59152(10) 0.02784(6) 0.80245(18)
H14_9 H 0.5697 0.0002 0.7527
C22_9 C 0.63817(10) 0.05002(6) 0.76119(18)
H15_9 H 0.6478 0.0377 0.6846
N4_7 N 0.77353(7) 0.16584(5) 0.59472(14)
N5_7 N 0.86664(7) 0.20109(5) 0.47778(14)
C23_7 C 0.73053(8) 0.14137(6) 0.65873(17)
C24_7 C 0.69581(8) 0.14404(6) 0.57019(18)
H16_7 H 0.6633 0.1306 0.5911
C25_7 C 0.71826(8) 0.16933(6) 0.45208(19)
H17_7 H 0.7045 0.1769 0.3742
C26_7 C 0.76726(8) 0.18275(6) 0.46674(17)
C27_7 C 0.80227(8) 0.20759(6) 0.36308(17)
C28_7 C 0.84904(8) 0.21716(6) 0.37243(17)
C29_5 C 0.88661(8) 0.24823(6) 0.27760(19)
H18_5 H 0.8838 0.2637 0.1949
C30_7 C 0.92642(8) 0.25126(6) 0.32852(19)
H19_7 H 0.9570 0.2694 0.2887
C31_9 C 0.91390(8) 0.22182(6) 0.45529(17)
C32_9 C 0.94569(8) 0.21718(6) 0.54468(18)
C33_5 C 0.78901(8) 0.22569(6) 0.23456(18)
C34_5 C 0.79102(8) 0.21001(6) 0.09653(18)
H20_5 H 0.8015 0.1881 0.0841
C37_5 C 0.76120(10) 0.27441(7) 0.1282(2)
H22_5 H 0.7511 0.2967 0.1400
C38_5 C 0.77394(8) 0.25831(6) 0.2483(2)
H23_7 H 0.7724 0.2697 0.3411
C40_9 C 0.99602(10) 0.24288(6) 0.50053(18)
H27_9 H 0.9914 0.1996 0.3361
Zn1_8 Zn 0.5000 1.0000 1.0000
N4_8 N 0.50083(5) 0.94103(5) 0.92805(14)
N5_8 N 0.46558(5) 0.99889(5) 0.81111(14)
C23_8 C 0.52530(6) 0.92250(6) 0.99206(17)
C24_8 C 0.52263(6) 0.88511(6) 0.90352(18)
H16_8 H 0.5361 0.8661 0.9244
C25_8 C 0.49734(6) 0.88227(6) 0.78541(19)
H17_8 H 0.4898 0.8610 0.7075
C26_8 C 0.48392(6) 0.91785(6) 0.80007(17)
C27_8 C 0.45908(6) 0.92802(6) 0.69641(17)
C28_8 C 0.44951(6) 0.96522(6) 0.70576(17)
C29_6 C 0.41844(6) 0.97172(6) 0.61093(19)
H18_6 H 0.4030 0.9535 0.5282
C33_6 C 0.44098(6) 0.89666(6) 0.56789(18)
C34_6 C 0.45666(6) 0.91435(6) 0.42986(18)
H20_6 H 0.4786 0.9468 0.4174
C35_3 C 0.44055(6) 0.88505(7) 0.31049(19)
H21_3 H 0.4520 0.8977 0.2176
C36_3 C 0.40807(7) 0.83757(7) 0.3242(2)
C37_6 C 0.39226(7) 0.82013(7) 0.4615(2)
H22_6 H 0.3700 0.7878 0.4733
C38_6 C 0.40836(6) 0.84897(6) 0.5816(2)
H23_8 H 0.3970 0.8361 0.6744
C39_3 C 0.38986(9) 0.80676(8) 0.1920(2)
H24_3 H 0.4147 0.8178 0.1193
H25_3 H 0.3800 0.7743 0.2182
H26_3 H 0.3630 0.8082 0.1528
C29_7 C 0.21995(8) 0.91489(6) 0.94426(19)
H18_7 H 0.2172 0.9303 0.8615
C30_8 C 0.25976(8) 0.91792(6) 0.99518(19)
H19_8 H 0.2904 0.9360 0.9553
C33_7 C 0.12235(8) 0.89235(6) 0.90122(18)
C34_7 C 0.12436(8) 0.87667(6) 0.76319(18)
H20_7 H 0.1349 0.8547 0.7507
C35_4 C 0.11117(9) 0.89278(6) 0.64382(19)
H21_4 H 0.1124 0.8813 0.5509
C36_4 C 0.09617(10) 0.92526(7) 0.6575(2)
C37_7 C 0.09454(10) 0.94107(7) 0.7948(2)
H22_7 H 0.0845 0.9633 0.8066
C38_7 C 0.10728(8) 0.92497(6) 0.9149(2)
C39_4 C 0.08357(12) 0.94347(9) 0.5253(2)
H24_4 H 0.0698 0.9186 0.4526
H25_4 H 0.0610 0.9533 0.5515
H26_4 H 0.1119 0.9703 0.4861
H28_8 H 0.4038 0.9064 0.9455
Zn1_9 Zn 0.0000 0.5000 1.0000
N4_9 N 0.05897(5) 0.55980(7) 0.92805(14)
N5_9 N 0.00111(5) 0.46669(7) 0.81111(14)
C23_9 C 0.07750(6) 0.60280(8) 0.99206(17)
C24_9 C 0.11489(6) 0.63752(8) 0.90352(18)
H16_9 H 0.1339 0.6700 0.9244
C25_9 C 0.11773(6) 0.61507(8) 0.78541(19)
H17_9 H 0.1390 0.6288 0.7075
C26_9 C 0.08215(6) 0.56607(8) 0.80007(17)
C27_9 C 0.07198(6) 0.53106(8) 0.69641(17)
C28_9 C 0.03478(6) 0.48429(8) 0.70576(17)
C29_8 C 0.02828(6) 0.44672(8) 0.61093(19)
H18_8 H 0.0465 0.4495 0.5282
C33_8 C 0.10334(6) 0.54432(8) 0.56789(18)
C34_8 C 0.08565(6) 0.54231(8) 0.42986(18)
H20_8 H 0.0532 0.5318 0.4174
C35_5 C 0.11495(7) 0.55550(9) 0.31049(19)
H21_5 H 0.1023 0.5543 0.2176
C36_5 C 0.16243(7) 0.57050(10) 0.3242(2)
C37_8 C 0.17987(7) 0.57213(10) 0.4615(2)
H22_8 H 0.2122 0.5822 0.4733
C38_8 C 0.15103(6) 0.55939(8) 0.5816(2)
H23_9 H 0.1639 0.5609 0.6744
C39_5 C 0.19324(8) 0.58310(12) 0.1920(2)
H24_5 H 0.1822 0.5969 0.1193
H25_5 H 0.2257 0.6057 0.2182
H26_5 H 0.1918 0.5548 0.1528
C29_9 C 0.08511(6) 0.30505(6) 0.94426(19)
H18_9 H 0.0697 0.2868 0.8615
C30_9 C 0.08208(6) 0.34183(6) 0.99518(19)
H19_9 H 0.0640 0.3543 0.9553
C33_9 C 0.10765(6) 0.22999(6) 0.90122(18)
C34_9 C 0.12333(6) 0.24768(6) 0.76319(18)
H20_9 H 0.1453 0.2801 0.7507
C35_6 C 0.10722(6) 0.21838(7) 0.64382(19)
H21_6 H 0.1187 0.2310 0.5509
C36_6 C 0.07474(7) 0.17090(7) 0.6575(2)
C37_9 C 0.05893(7) 0.15346(7) 0.7948(2)
H22_9 H 0.0367 0.1211 0.8066
C38_9 C 0.07503(6) 0.18230(6) 0.9149(2)
C39_6 C 0.05653(9) 0.14009(8) 0.5253(2)
H24_6 H 0.0814 0.1511 0.4526
H25_6 H 0.0467 0.1076 0.5515
H26_6 H 0.0297 0.1415 0.4861
H28_9 H 0.0936 0.4973 0.9455
Zn1_10 Zn 1.0000 0.5000 0.0000
N1_9 N 0.94103(5) 0.44020(7) 0.07195(14)
N2_9 N 0.99889(5) 0.53331(7) 0.18889(14)
C1_9 C 0.92250(6) 0.39720(8) 0.00794(17)
C2_9 C 0.88511(6) 0.36248(8) 0.09648(18)
H1_9 H 0.8661 0.3300 0.0756
C3_9 C 0.88227(6) 0.38493(8) 0.21459(19)
H2_9 H 0.8610 0.3712 0.2925
C4_9 C 0.91785(6) 0.43393(8) 0.19993(17)
C5_9 C 0.92802(6) 0.46894(8) 0.30359(17)
C6_9 C 0.96522(6) 0.51571(8) 0.29424(17)
C7_8 C 0.97172(6) 0.55328(8) 0.38907(19)
H3_8 H 0.9535 0.5505 0.4718
C11_8 C 0.89666(6) 0.45568(8) 0.43211(18)
C12_8 C 0.91435(6) 0.45769(8) 0.57014(18)
H5_8 H 0.9468 0.4682 0.5826
C13_5 C 0.88505(7) 0.44450(9) 0.68951(19)
H6_5 H 0.8977 0.4457 0.7824
C14_5 C 0.83757(7) 0.42950(10) 0.6758(2)
C15_8 C 0.82013(7) 0.42787(10) 0.5385(2)
H7_8 H 0.7878 0.4178 0.5267
C16_8 C 0.84897(6) 0.44061(8) 0.4184(2)
H8_9 H 0.8361 0.4391 0.3256
C17_5 C 0.80676(8) 0.41690(12) 0.8080(2)
H9_5 H 0.8178 0.4031 0.8807
H10_5 H 0.7743 0.3943 0.7818
H11_5 H 0.8082 0.4452 0.8472
C7_9 C 0.91489(6) 0.69495(6) 0.05574(19)
H3_9 H 0.9303 0.7132 0.1385
C8_9 C 0.91792(6) 0.65817(6) 0.00482(19)
H4_9 H 0.9360 0.6457 0.0447
C11_9 C 0.89235(6) 0.77001(6) 0.09878(18)
C12_9 C 0.87667(6) 0.75232(6) 0.23681(18)
H5_9 H 0.8547 0.7199 0.2493
C13_6 C 0.89278(6) 0.78162(7) 0.35618(19)
H6_6 H 0.8813 0.7690 0.4491
C14_6 C 0.92526(7) 0.82910(7) 0.3425(2)
C15_9 C 0.94107(7) 0.84654(7) 0.2052(2)
H7_9 H 0.9633 0.8789 0.1934
C16_9 C 0.92497(6) 0.81770(6) 0.0851(2)
C17_6 C 0.94347(9) 0.85991(8) 0.4747(2)
H9_6 H 0.9186 0.8489 0.5474
H10_6 H 0.9533 0.8924 0.4485
H11_6 H 0.9703 0.8585 0.5139
H13_9 H 0.9064 0.5027 0.0545
C13_7 C 0.22612(6) 0.44828(7) 0.02284(19)
H6_7 H 0.2147 0.4356 0.1157
C14_7 C 0.25860(7) 0.49576(7) 0.0091(2)
C17_7 C 0.27681(9) 0.52657(8) 0.1413(2)
H9_7 H 0.2520 0.5155 0.2140
H10_7 H 0.2867 0.5590 0.1151
H11_7 H 0.3037 0.5251 0.1805
C13_8 C 0.55172(7) 0.77783(9) 0.02284(19)
H6_8 H 0.5644 0.7790 0.1157
C14_8 C 0.50424(7) 0.76283(10) 0.0091(2)
C17_8 C 0.47343(8) 0.75023(12) 0.1413(2)
H9_8 H 0.4845 0.7364 0.2140
H10_8 H 0.4410 0.7276 0.1151
H11_8 H 0.4749 0.7785 0.1805
C13_9 C 0.22217(9) 0.77388(6) 0.02284(19)
H6_9 H 0.2210 0.7853 0.1157
C14_9 C 0.23717(10) 0.74140(7) 0.0091(2)
C17_9 C 0.24977(12) 0.72319(9) 0.1413(2)
H9_9 H 0.2636 0.7480 0.2140
H10_9 H 0.2724 0.7133 0.1151
H11_9 H 0.2215 0.6963 0.1805
C35_7 C 0.77388(6) 0.55172(7) 0.97716(19)
H21_7 H 0.7853 0.5644 0.8843
C36_7 C 0.74140(7) 0.50424(7) 0.9909(2)
C39_7 C 0.72319(9) 0.47343(8) 0.8587(2)
H24_7 H 0.7480 0.4845 0.7860
H25_7 H 0.7133 0.4410 0.8849
H26_7 H 0.6963 0.4749 0.8195
C35_8 C 0.44828(7) 0.22217(9) 0.97716(19)
H21_8 H 0.4356 0.2210 0.8843
C36_8 C 0.49576(7) 0.23717(10) 0.9909(2)
C39_8 C 0.52657(8) 0.24977(12) 0.8587(2)
H24_8 H 0.5155 0.2636 0.7860
H25_8 H 0.5590 0.2724 0.8849
H26_8 H 0.5251 0.2215 0.8195
C35_9 C 0.77783(9) 0.22612(6) 0.97716(19)
H21_9 H 0.7790 0.2147 0.8843
C36_9 C 0.76283(10) 0.25860(7) 0.9909(2)
C39_9 C 0.75023(12) 0.27681(9) 0.8587(2)
H24_9 H 0.7364 0.2520 0.7860
H25_9 H 0.7276 0.2867 0.8849
H26_9 H 0.7785 0.3037 0.8195
loop_
_geom_bond_atom_site_label_1
_geom_bond_atom_site_label_2
_geom_bond_site_symmetry_1
_geom_bond_site_symmetry_2
Zn1 N1 1_555 1_555
N1 C1 1_555 1_555
N2 Zn1 1_555 1_555
C1 C2 1_555 1_555
C2 H1 1_555 1_555
C3 C2 1_555 1_555
H2 C3 1_555 1_555
C4 N1 1_555 1_555
C5 C4 1_555 1_555
C6 N2 1_555 1_555
C7 C6 1_555 1_555
H3 C7 1_555 1_555
C11 C5 1_555 1_555
C12 C11 1_555 1_555
H5 C12 1_555 1_555
C13 C12 1_555 1_555
H6 C13 1_555 1_555
C14 C13 1_555 1_555
C15 C14 1_555 1_555
H7 C15 1_555 1_555
C16 C11 1_555 1_555
H8 C16 1_555 1_555
C17 C14 1_555 1_555
H9 C17 1_555 1_555
H10 C17 1_555 1_555
H11 C17 1_555 1_555
C3 C4 1_555 1_555
C5 C6 1_555 1_555
C15 C16 1_555 1_555
H3_2 C7_2 1_555 1_555
C8 C7_2 1_555 1_555
H4 C8 1_555 1_555
C12_2 C11_2 1_555 1_555
H5_2 C12_2 1_555 1_555
C13_2 C12_2 1_555 1_555
H6_2 C13_2 1_555 1_555
C14_2 C13_2 1_555 1_555
C15_2 C14_2 1_555 1_555
H7_2 C15_2 1_555 1_555
C16_2 C11_2 1_555 1_555
C17_2 C14_2 1_555 1_555
H9_2 C17_2 1_555 1_555
H10_2 C17_2 1_555 1_555
H11_2 C17_2 1_555 1_555
C15_2 C16_2 1_555 1_555
H19 C30 1_555 1_555
N6 C42 1_555 1_555
C40 C32 1_555 1_555
C41 C40 1_555 1_555
H27 C41 1_555 1_555
C42 C41 1_555 1_555
H28 C42 1_555 1_555
C43 N6 1_555 1_555
H29 C43 1_555 1_555
C44 C40 1_555 1_555
H30 C44 1_555 1_555
Zn3 N6 1_555 1_555
N7 Zn1_2 1_555 1_555
C30 C31 1_555 1_555
C31 C32 1_555 1_555
C43 C44 1_555 1_555
N3 C20 1_555 1_555
H4_2 C8_2 1_555 1_555
C10 C9 1_555 1_555
C18 C10 1_555 1_555
C19 C18 1_555 1_555
H12 C19 1_555 1_555
C20 C19 1_555 1_555
H13_2 C20 1_555 1_555
C21 N3 1_555 1_555
H14 C21 1_555 1_555
C22 C18 1_555 1_555
H15 C22 1_555 1_555
Zn2 N3 1_555 1_555
N8 Zn1_3 1_555 1_555
C8_2 C9 1_555 1_555
C21 C22 1_555 1_555
N3_2 C20_2 1_555 1_555
H4_3 C8_3 1_555 1_555
C10_2 C9_2 1_555 1_555
C18_2 C10_2 1_555 1_555
C19_2 C18_2 1_555 1_555
H12_2 C19_2 1_555 1_555
C20_2 C19_2 1_555 1_555
H13_3 C20_2 1_555 1_555
C21_2 N3_2 1_555 1_555
H14_2 C21_2 1_555 1_555
C22_2 C18_2 1_555 1_555
H15_2 C22_2 1_555 1_555
Zn2_2 N3_2 1_555 1_555
N8_2 Zn1_4 1_555 1_555
C8_3 C9_2 1_555 1_555
C21_2 C22_2 1_555 1_555
H19_2 C30_2 1_555 1_555
N6_2 C42_2 1_555 1_555
C40_2 C32_2 1_555 1_555
C41_2 C40_2 1_555 1_555
H27_2 C41_2 1_555 1_555
C42_2 C41_2 1_555 1_555
H28_2 C42_2 1_555 1_555
C43_2 N6_2 1_555 1_555
H29_2 C43_2 1_555 1_555
C44_2 C40_2 1_555 1_555
H30_2 C44_2 1_555 1_555
Zn3_2 N6_2 1_555 1_555
N7_2 Zn1_5 1_555 1_555
C30_2 C31_2 1_555 1_555
C31_2 C32_2 1_555 1_555
C43_2 C44_2 1_555 1_555
Zn1_6 N1_2 1_555 1_555
N1_2 C1_2 1_555 1_555
N2_2 Zn1_6 1_555 1_555
N3_3 C20_3 1_555 1_555
C1_2 C2_2 1_555 1_555
C2_2 H1_2 1_555 1_555
C3_2 C2_2 1_555 1_555
H2_2 C3_2 1_555 1_555
C4_2 N1_2 1_555 1_555
C5_2 C4_2 1_555 1_555
C6_2 N2_2 1_555 1_555
C7_3 C6_2 1_555 1_555
H3_3 C7_3 1_555 1_555
C8_4 C7_3 1_555 1_555
H4_4 C8_4 1_555 1_555
C9_3 N2_2 1_555 1_555
C10_3 C9_3 1_555 1_555
C11_3 C5_2 1_555 1_555
C12_3 C11_3 1_555 1_555
H5_3 C12_3 1_555 1_555
C13_3 C12_3 1_555 1_555
H6_3 C13_3 1_555 1_555
C14_3 C13_3 1_555 1_555
C15_3 C14_3 1_555 1_555
H7_3 C15_3 1_555 1_555
C16_3 C11_3 1_555 1_555
H8_2 C16_3 1_555 1_555
C17_3 C14_3 1_555 1_555
H9_3 C17_3 1_555 1_555
H10_3 C17_3 1_555 1_555
H11_3 C17_3 1_555 1_555
C18_3 C10_3 1_555 1_555
C19_3 C18_3 1_555 1_555
H12_3 C19_3 1_555 1_555
C20_3 C19_3 1_555 1_555
H13_4 C20_3 1_555 1_555
C21_3 N3_3 1_555 1_555
H14_3 C21_3 1_555 1_555
C22_3 C18_3 1_555 1_555
H15_3 C22_3 1_555 1_555
Zn2_3 N3_3 1_555 1_555
N8_3 Zn1_6 1_555 1_555
C3_2 C4_2 1_555 1_555
C5_2 C6_2 1_555 1_555
C8_4 C9_3 1_555 1_555
C15_3 C16_3 1_555 1_555
C21_3 C22_3 1_555 1_555
N4 Zn1_7 1_555 1_555
N5 Zn1_7 1_555 1_555
C24 C23 1_555 1_555
H16 C24 1_555 1_555
C25 C24 1_555 1_555
H17 C25 1_555 1_555
C26 N4 1_555 1_555
C27 C26 1_555 1_555
C28 N5 1_555 1_555
C29 C28 1_555 1_555
H18 C29 1_555 1_555
C30_3 C29 1_555 1_555
H19_3 C30_3 1_555 1_555
C31_3 N5 1_555 1_555
C33 C27 1_555 1_555
C34 C33 1_555 1_555
H20 C34 1_555 1_555
C35 C34 1_555 1_555
H21 C35 1_555 1_555
C36 C35 1_555 1_555
C37 C36 1_555 1_555
H22 C37 1_555 1_555
C38 C33 1_555 1_555
H23 C38 1_555 1_555
C39 C36 1_555 1_555
H24 C39 1_555 1_555
H25 C39 1_555 1_555
H26 C39 1_555 1_555
N6_3 C42_3 1_555 1_555
C40_3 C32_3 1_555 1_555
C41_3 C40_3 1_555 1_555
H27_3 C41_3 1_555 1_555
C42_3 C41_3 1_555 1_555
H28_3 C42_3 1_555 1_555
C43_3 N6_3 1_555 1_555
H29_3 C43_3 1_555 1_555
C44_3 C40_3 1_555 1_555
H30_3 C44_3 1_555 1_555
Zn3_3 N6_3 1_555 1_555
N7_3 Zn1_7 1_555 1_555
N4 C23 1_555 1_555
C25 C26 1_555 1_555
C27 C28 1_555 1_555
C30_3 C31_3 1_555 1_555
C31_3 C32_3 1_555 1_555
C37 C38 1_555 1_555
C43_3 C44_3 1_555 1_555
Zn2_3 N1_3 1_555 1_555
N1_3 C1_3 1_555 1_555
N2_3 Zn2_3 1_555 1_555
N3_4 C20_4 1_555 1_555
C1_3 C2_3 1_555 1_555
C2_3 H1_3 1_555 1_555
C3_3 C2_3 1_555 1_555
H2_3 C3_3 1_555 1_555
C4_3 N1_3 1_555 1_555
C5_3 C4_3 1_555 1_555
C6_3 N2_3 1_555 1_555
C7_4 C6_3 1_555 1_555
H3_4 C7_4 1_555 1_555
C8_5 C7_4 1_555 1_555
H4_5 C8_5 1_555 1_555
C9_4 N2_3 1_555 1_555
C10_4 C9_4 1_555 1_555
C11_4 C5_3 1_555 1_555
C12_4 C11_4 1_555 1_555
H5_4 C12_4 1_555 1_555
H7_4 C15_4 1_555 1_555
C16_4 C11_4 1_555 1_555
H8_3 C16_4 1_555 1_555
C18_4 C10_4 1_555 1_555
C19_4 C18_4 1_555 1_555
H12_4 C19_4 1_555 1_555
C20_4 C19_4 1_555 1_555
H13_5 C20_4 1_555 1_555
C21_4 N3_4 1_555 1_555
H14_4 C21_4 1_555 1_555
C22_4 C18_4 1_555 1_555
H15_4 C22_4 1_555 1_555
N4_2 Zn2_3 1_555 1_555
N5_2 Zn2_3 1_555 1_555
C23_2 C10_4 1_555 1_555
C24_2 C23_2 1_555 1_555
H16_2 C24_2 1_555 1_555
C25_2 C24_2 1_555 1_555
H17_2 C25_2 1_555 1_555
C26_2 N4_2 1_555 1_555
C27_2 C26_2 1_555 1_555
C28_2 N5_2 1_555 1_555
C31_4 N5_2 1_555 1_555
C32_4 C1_3 1_555 1_555
N8_2 C42_4 1_555 1_555
C40_4 C32_4 1_555 1_555
C41_4 C40_4 1_555 1_555
H27_4 C41_4 1_555 1_555
C42_4 C41_4 1_555 1_555
C43_4 N8_2 1_555 1_555
H29_4 C43_4 1_555 1_555
C44_4 C40_4 1_555 1_555
H30_4 C44_4 1_555 1_555
Zn3 N3_4 1_555 1_555
N8_4 Zn2_3 1_555 1_555
C3_3 C4_3 1_555 1_555
C5_3 C6_3 1_555 1_555
C8_5 C9_4 1_555 1_555
C15_4 C16_4 1_555 1_555
C21_4 C22_4 1_555 1_555
N4_2 C23_2 1_555 1_555
C25_2 C26_2 1_555 1_555
C27_2 C28_2 1_555 1_555
C31_4 C32_4 1_555 1_555
C43_4 C44_4 1_555 1_555
N3_5 C20_5 1_555 1_555
C20_5 C19_5 1_555 1_555
H13_6 C20_5 1_555 1_555
C21_5 N3_5 1_555 1_555
H14_5 C21_5 1_555 1_555
H15_5 C22_5 1_555 1_555
Zn3_2 N3_5 1_555 1_555
C21_5 C22_5 1_555 1_555
Zn2 N1_4 1_555 1_555
N1_4 C1_4 1_555 1_555
N2_4 Zn2 1_555 1_555
C1_4 C2_4 1_555 1_555
C2_4 H1_4 1_555 1_555
C3_4 C2_4 1_555 1_555
H2_4 C3_4 1_555 1_555
C4_4 N1_4 1_555 1_555
C5_4 C4_4 1_555 1_555
C6_4 N2_4 1_555 1_555
C7_5 C6_4 1_555 1_555
H3_5 C7_5 1_555 1_555
C8_6 C7_5 1_555 1_555
H4_6 C8_6 1_555 1_555
C9_5 N2_4 1_555 1_555
C10_5 C9_5 1_555 1_555
C11_5 C5_4 1_555 1_555
C12_5 C11_5 1_555 1_555
H5_5 C12_5 1_555 1_555
H7_5 C15_5 1_555 1_555
C16_5 C11_5 1_555 1_555
H8_4 C16_5 1_555 1_555
C18_5 C10_5 1_555 1_555
N4_3 Zn2 1_555 1_555
N5_3 Zn2 1_555 1_555
C23_3 C10_5 1_555 1_555
C24_3 C23_3 1_555 1_555
C25_3 C24_3 1_555 1_555
H17_3 C25_3 1_555 1_555
C26_3 N4_3 1_555 1_555
C27_3 C26_3 1_555 1_555
C28_3 N5_3 1_555 1_555
C31_5 N5_3 1_555 1_555
C32_5 C1_4 1_555 1_555
N8_3 C42_5 1_555 1_555
C40_5 C32_5 1_555 1_555
C41_5 C40_5 1_555 1_555
H27_5 C41_5 1_555 1_555
C42_5 C41_5 1_555 1_555
C43_5 N8_3 1_555 1_555
H29_5 C43_5 1_555 1_555
C44_5 C40_5 1_555 1_555
H30_5 C44_5 1_555 1_555
N8_5 Zn2 1_555 1_555
C3_4 C4_4 1_555 1_555
C5_4 C6_4 1_555 1_555
C8_6 C9_5 1_555 1_555
C15_5 C16_5 1_555 1_555
N4_3 C23_3 1_555 1_555
C25_3 C26_3 1_555 1_555
C27_3 C28_3 1_555 1_555
C31_5 C32_5 1_555 1_555
C43_5 C44_5 1_555 1_555
H18_2 C29_2 1_555 1_555
C30_4 C29_2 1_555 1_555
H19_4 C30_4 1_555 1_555
C34_2 C33_2 1_555 1_555
H20_2 C34_2 1_555 1_555
C35_2 C34_2 1_555 1_555
H21_2 C35_2 1_555 1_555
C36_2 C35_2 1_555 1_555
C37_2 C36_2 1_555 1_555
H22_2 C37_2 1_555 1_555
C38_2 C33_2 1_555 1_555
C39_2 C36_2 1_555 1_555
H24_2 C39_2 1_555 1_555
H25_2 C39_2 1_555 1_555
H26_2 C39_2 1_555 1_555
C37_2 C38_2 1_555 1_555
Zn2_2 N1_5 1_555 1_555
N1_5 C1_5 1_555 1_555
N2_5 Zn2_2 1_555 1_555
C1_5 C2_5 1_555 1_555
C2_5 H1_5 1_555 1_555
C3_5 C2_5 1_555 1_555
H2_5 C3_5 1_555 1_555
C4_5 N1_5 1_555 1_555
C5_5 C4_5 1_555 1_555
C6_5 N2_5 1_555 1_555
C7_6 C6_5 1_555 1_555
H3_6 C7_6 1_555 1_555
C8_7 C7_6 1_555 1_555
H4_7 C8_7 1_555 1_555
C9_6 N2_5 1_555 1_555
C10_6 C9_6 1_555 1_555
C11_6 C5_5 1_555 1_555
C12_6 C11_6 1_555 1_555
H5_6 C12_6 1_555 1_555
H7_6 C15_6 1_555 1_555
C16_6 C11_6 1_555 1_555
H8_5 C16_6 1_555 1_555
C18_6 C10_6 1_555 1_555
N4_4 Zn2_2 1_555 1_555
N5_4 Zn2_2 1_555 1_555
C23_4 C10_6 1_555 1_555
C24_4 C23_4 1_555 1_555
C25_4 C24_4 1_555 1_555
H17_4 C25_4 1_555 1_555
C26_4 N4_4 1_555 1_555
C27_4 C26_4 1_555 1_555
C28_4 N5_4 1_555 1_555
C31_6 N5_4 1_555 1_555
C32_6 C1_5 1_555 1_555
N8 C42_6 1_555 1_555
C40_6 C32_6 1_555 1_555
C41_6 C40_6 1_555 1_555
H27_6 C41_6 1_555 1_555
C42_6 C41_6 1_555 1_555
C43_6 N8 1_555 1_555
H29_6 C43_6 1_555 1_555
C44_6 C40_6 1_555 1_555
H30_6 C44_6 1_555 1_555
N8_6 Zn2_2 1_555 1_555
C3_5 C4_5 1_555 1_555
C5_5 C6_5 1_555 1_555
C8_7 C9_6 1_555 1_555
C15_6 C16_6 1_555 1_555
N4_4 C23_4 1_555 1_555
C25_4 C26_4 1_555 1_555
C27_4 C28_4 1_555 1_555
C31_6 C32_6 1_555 1_555
C43_6 C44_6 1_555 1_555
N3_6 C20_6 1_555 1_555
C20_6 C19_6 1_555 1_555
H13_7 C20_6 1_555 1_555
C21_6 N3_6 1_555 1_555
H14_6 C21_6 1_555 1_555
H15_6 C22_6 1_555 1_555
Zn3_3 N3_6 1_555 1_555
C21_6 C22_6 1_555 1_555
Zn3_3 N1_6 1_555 1_555
N1_6 C1_6 1_555 1_555
N2_6 Zn3_3 1_555 1_555
N7_2 C20_7 1_555 1_555
C1_6 C2_6 1_555 1_555
C2_6 H1_6 1_555 1_555
C3_6 C2_6 1_555 1_555
H2_6 C3_6 1_555 1_555
C4_6 N1_6 1_555 1_555
C5_6 C4_6 1_555 1_555
C6_6 N2_6 1_555 1_555
C9_7 N2_6 1_555 1_555
C10_7 C9_7 1_555 1_555
C18_7 C10_7 1_555 1_555
C19_7 C18_7 1_555 1_555
H12_7 C19_7 1_555 1_555
C20_7 C19_7 1_555 1_555
C21_7 N7_2 1_555 1_555
H14_7 C21_7 1_555 1_555
C22_7 C18_7 1_555 1_555
H15_7 C22_7 1_555 1_555
N4_5 Zn3_3 1_555 1_555
N5_5 Zn3_3 1_555 1_555
C23_5 C10_7 1_555 1_555
C24_5 C23_5 1_555 1_555
H16_5 C24_5 1_555 1_555
C25_5 C24_5 1_555 1_555
H17_5 C25_5 1_555 1_555
C26_5 N4_5 1_555 1_555
C27_5 C26_5 1_555 1_555
C28_5 N5_5 1_555 1_555
C29_3 C28_5 1_555 1_555
H18_3 C29_3 1_555 1_555
C30_5 C29_3 1_555 1_555
H19_5 C30_5 1_555 1_555
C31_7 N5_5 1_555 1_555
C32_7 C1_6 1_555 1_555
C33_3 C27_5 1_555 1_555
C34_3 C33_3 1_555 1_555
H20_3 C34_3 1_555 1_555
H22_3 C37_3 1_555 1_555
C38_3 C33_3 1_555 1_555
H23_5 C38_3 1_555 1_555
N8_5 C42_7 1_555 1_555
C40_7 C32_7 1_555 1_555
C41_7 C40_7 1_555 1_555
H27_7 C41_7 1_555 1_555
C42_7 C41_7 1_555 1_555
H28_5 C42_7 1_555 1_555
C43_7 N8_5 1_555 1_555
H29_7 C43_7 1_555 1_555
C44_7 C40_7 1_555 1_555
H30_7 C44_7 1_555 1_555
C3_6 C4_6 1_555 1_555
C5_6 C6_6 1_555 1_555
C21_7 C22_7 1_555 1_555
N4_5 C23_5 1_555 1_555
C25_5 C26_5 1_555 1_555
C27_5 C28_5 1_555 1_555
C30_5 C31_7 1_555 1_555
C31_7 C32_7 1_555 1_555
C37_3 C38_3 1_555 1_555
C43_7 C44_7 1_555 1_555
H3_7 C7_7 1_555 1_555
C8_8 C7_7 1_555 1_555
H4_8 C8_8 1_555 1_555
C12_7 C11_7 1_555 1_555
H5_7 C12_7 1_555 1_555
C13_4 C12_7 1_555 1_555
H6_4 C13_4 1_555 1_555
C14_4 C13_4 1_555 1_555
C15_7 C14_4 1_555 1_555
H7_7 C15_7 1_555 1_555
C16_7 C11_7 1_555 1_555
C17_4 C14_4 1_555 1_555
H9_4 C17_4 1_555 1_555
H10_4 C17_4 1_555 1_555
H11_4 C17_4 1_555 1_555
C15_7 C16_7 1_555 1_555
Zn3 N1_7 1_555 1_555
N1_7 C1_7 1_555 1_555
N2_7 Zn3 1_555 1_555
N7_3 C20_8 1_555 1_555
C1_7 C2_7 1_555 1_555
C3_7 C2_7 1_555 1_555
H2_7 C3_7 1_555 1_555
C4_7 N1_7 1_555 1_555
C5_7 C4_7 1_555 1_555
C6_7 N2_7 1_555 1_555
C9_8 N2_7 1_555 1_555
C10_8 C9_8 1_555 1_555
C18_8 C10_8 1_555 1_555
C19_8 C18_8 1_555 1_555
H12_8 C19_8 1_555 1_555
C20_8 C19_8 1_555 1_555
C21_8 N7_3 1_555 1_555
H14_8 C21_8 1_555 1_555
C22_8 C18_8 1_555 1_555
H15_8 C22_8 1_555 1_555
N4_6 Zn3 1_555 1_555
N5_6 Zn3 1_555 1_555
C23_6 C10_8 1_555 1_555
C24_6 C23_6 1_555 1_555
H16_6 C24_6 1_555 1_555
C25_6 C24_6 1_555 1_555
H17_6 C25_6 1_555 1_555
C26_6 N4_6 1_555 1_555
C27_6 C26_6 1_555 1_555
C28_6 N5_6 1_555 1_555
C29_4 C28_6 1_555 1_555
H18_4 C29_4 1_555 1_555
C30_6 C29_4 1_555 1_555
H19_6 C30_6 1_555 1_555
C31_8 N5_6 1_555 1_555
C32_8 C1_7 1_555 1_555
C33_4 C27_6 1_555 1_555
C34_4 C33_4 1_555 1_555
H20_4 C34_4 1_555 1_555
H22_4 C37_4 1_555 1_555
C38_4 C33_4 1_555 1_555
H23_6 C38_4 1_555 1_555
C40_8 C32_8 1_555 1_555
C3_7 C4_7 1_555 1_555
C5_7 C6_7 1_555 1_555
C21_8 C22_8 1_555 1_555
N4_6 C23_6 1_555 1_555
C25_6 C26_6 1_555 1_555
C27_6 C28_6 1_555 1_555
C30_6 C31_8 1_555 1_555
C31_8 C32_8 1_555 1_555
C37_4 C38_4 1_555 1_555
N8_6 C42_8 1_555 1_555
C42_8 C41_8 1_555 1_555
H28_6 C42_8 1_555 1_555
C43_8 N8_6 1_555 1_555
H29_8 C43_8 1_555 1_555
H30_8 C44_8 1_555 1_555
C43_8 C44_8 1_555 1_555
N8_4 C42_9 1_555 1_555
C42_9 C41_9 1_555 1_555
H28_7 C42_9 1_555 1_555
C43_9 N8_4 1_555 1_555
H29_9 C43_9 1_555 1_555
H30_9 C44_9 1_555 1_555
C43_9 C44_9 1_555 1_555
Zn3_2 N1_8 1_555 1_555
N1_8 C1_8 1_555 1_555
N2_8 Zn3_2 1_555 1_555
N7 C20_9 1_555 1_555
C1_8 C2_8 1_555 1_555
C3_8 C2_8 1_555 1_555
H2_8 C3_8 1_555 1_555
C4_8 N1_8 1_555 1_555
C5_8 C4_8 1_555 1_555
C6_8 N2_8 1_555 1_555
C9_9 N2_8 1_555 1_555
C10_9 C9_9 1_555 1_555
C18_9 C10_9 1_555 1_555
C19_9 C18_9 1_555 1_555
H12_9 C19_9 1_555 1_555
C20_9 C19_9 1_555 1_555
C21_9 N7 1_555 1_555
H14_9 C21_9 1_555 1_555
C22_9 C18_9 1_555 1_555
H15_9 C22_9 1_555 1_555
N4_7 Zn3_2 1_555 1_555
N5_7 Zn3_2 1_555 1_555
C23_7 C10_9 1_555 1_555
C24_7 C23_7 1_555 1_555
H16_7 C24_7 1_555 1_555
C25_7 C24_7 1_555 1_555
H17_7 C25_7 1_555 1_555
C26_7 N4_7 1_555 1_555
C27_7 C26_7 1_555 1_555
C28_7 N5_7 1_555 1_555
C29_5 C28_7 1_555 1_555
H18_5 C29_5 1_555 1_555
C30_7 C29_5 1_555 1_555
H19_7 C30_7 1_555 1_555
C31_9 N5_7 1_555 1_555
C32_9 C1_8 1_555 1_555
C33_5 C27_7 1_555 1_555
C34_5 C33_5 1_555 1_555
H20_5 C34_5 1_555 1_555
H22_5 C37_5 1_555 1_555
C38_5 C33_5 1_555 1_555
H23_7 C38_5 1_555 1_555
C40_9 C32_9 1_555 1_555
C3_8 C4_8 1_555 1_555
C5_8 C6_8 1_555 1_555
C21_9 C22_9 1_555 1_555
N4_7 C23_7 1_555 1_555
C25_7 C26_7 1_555 1_555
C27_7 C28_7 1_555 1_555
C30_7 C31_9 1_555 1_555
C31_9 C32_9 1_555 1_555
C37_5 C38_5 1_555 1_555
N4_8 Zn1_8 1_555 1_555
N5_8 Zn1_8 1_555 1_555
C24_8 C23_8 1_555 1_555
H16_8 C24_8 1_555 1_555
C25_8 C24_8 1_555 1_555
H17_8 C25_8 1_555 1_555
C26_8 N4_8 1_555 1_555
C27_8 C26_8 1_555 1_555
C28_8 N5_8 1_555 1_555
C29_6 C28_8 1_555 1_555
H18_6 C29_6 1_555 1_555
C33_6 C27_8 1_555 1_555
C34_6 C33_6 1_555 1_555
H20_6 C34_6 1_555 1_555
C35_3 C34_6 1_555 1_555
H21_3 C35_3 1_555 1_555
C36_3 C35_3 1_555 1_555
C37_6 C36_3 1_555 1_555
H22_6 C37_6 1_555 1_555
C38_6 C33_6 1_555 1_555
H23_8 C38_6 1_555 1_555
C39_3 C36_3 1_555 1_555
H24_3 C39_3 1_555 1_555
H25_3 C39_3 1_555 1_555
H26_3 C39_3 1_555 1_555
N4_8 C23_8 1_555 1_555
C25_8 C26_8 1_555 1_555
C27_8 C28_8 1_555 1_555
C37_6 C38_6 1_555 1_555
H18_7 C29_7 1_555 1_555
C30_8 C29_7 1_555 1_555
H19_8 C30_8 1_555 1_555
C34_7 C33_7 1_555 1_555
H20_7 C34_7 1_555 1_555
C35_4 C34_7 1_555 1_555
H21_4 C35_4 1_555 1_555
C36_4 C35_4 1_555 1_555
C37_7 C36_4 1_555 1_555
H22_7 C37_7 1_555 1_555
C38_7 C33_7 1_555 1_555
C39_4 C36_4 1_555 1_555
H24_4 C39_4 1_555 1_555
H25_4 C39_4 1_555 1_555
H26_4 C39_4 1_555 1_555
C37_7 C38_7 1_555 1_555
N4_9 Zn1_9 1_555 1_555
N5_9 Zn1_9 1_555 1_555
C24_9 C23_9 1_555 1_555
H16_9 C24_9 1_555 1_555
C25_9 C24_9 1_555 1_555
H17_9 C25_9 1_555 1_555
C26_9 N4_9 1_555 1_555
C27_9 C26_9 1_555 1_555
C28_9 N5_9 1_555 1_555
C29_8 C28_9 1_555 1_555
H18_8 C29_8 1_555 1_555
C33_8 C27_9 1_555 1_555
C34_8 C33_8 1_555 1_555
H20_8 C34_8 1_555 1_555
C35_5 C34_8 1_555 1_555
H21_5 C35_5 1_555 1_555
C36_5 C35_5 1_555 1_555
C37_8 C36_5 1_555 1_555
H22_8 C37_8 1_555 1_555
C38_8 C33_8 1_555 1_555
H23_9 C38_8 1_555 1_555
C39_5 C36_5 1_555 1_555
H24_5 C39_5 1_555 1_555
H25_5 C39_5 1_555 1_555
H26_5 C39_5 1_555 1_555
N4_9 C23_9 1_555 1_555
C25_9 C26_9 1_555 1_555
C27_9 C28_9 1_555 1_555
C37_8 C38_8 1_555 1_555
H18_9 C29_9 1_555 1_555
C30_9 C29_9 1_555 1_555
H19_9 C30_9 1_555 1_555
C34_9 C33_9 1_555 1_555
H20_9 C34_9 1_555 1_555
C35_6 C34_9 1_555 1_555
H21_6 C35_6 1_555 1_555
C36_6 C35_6 1_555 1_555
C37_9 C36_6 1_555 1_555
H22_9 C37_9 1_555 1_555
C38_9 C33_9 1_555 1_555
C39_6 C36_6 1_555 1_555
H24_6 C39_6 1_555 1_555
H25_6 C39_6 1_555 1_555
H26_6 C39_6 1_555 1_555
C37_9 C38_9 1_555 1_555
Zn1_10 N1_9 1_555 1_555
N1_9 C1_9 1_555 1_555
N2_9 Zn1_10 1_555 1_555
C1_9 C2_9 1_555 1_555
C2_9 H1_9 1_555 1_555
C3_9 C2_9 1_555 1_555
H2_9 C3_9 1_555 1_555
C4_9 N1_9 1_555 1_555
C5_9 C4_9 1_555 1_555
C6_9 N2_9 1_555 1_555
C7_8 C6_9 1_555 1_555
H3_8 C7_8 1_555 1_555
C11_8 C5_9 1_555 1_555
C12_8 C11_8 1_555 1_555
H5_8 C12_8 1_555 1_555
C13_5 C12_8 1_555 1_555
H6_5 C13_5 1_555 1_555
C14_5 C13_5 1_555 1_555
C15_8 C14_5 1_555 1_555
H7_8 C15_8 1_555 1_555
C16_8 C11_8 1_555 1_555
H8_9 C16_8 1_555 1_555
C17_5 C14_5 1_555 1_555
H9_5 C17_5 1_555 1_555
H10_5 C17_5 1_555 1_555
H11_5 C17_5 1_555 1_555
C3_9 C4_9 1_555 1_555
C5_9 C6_9 1_555 1_555
C15_8 C16_8 1_555 1_555
H3_9 C7_9 1_555 1_555
C8_9 C7_9 1_555 1_555
H4_9 C8_9 1_555 1_555
C12_9 C11_9 1_555 1_555
H5_9 C12_9 1_555 1_555
C13_6 C12_9 1_555 1_555
H6_6 C13_6 1_555 1_555
C14_6 C13_6 1_555 1_555
C15_9 C14_6 1_555 1_555
H7_9 C15_9 1_555 1_555
C16_9 C11_9 1_555 1_555
C17_6 C14_6 1_555 1_555
H9_6 C17_6 1_555 1_555
H10_6 C17_6 1_555 1_555
H11_6 C17_6 1_555 1_555
C15_9 C16_9 1_555 1_555
H6_7 C13_7 1_555 1_555
C14_7 C13_7 1_555 1_555
C17_7 C14_7 1_555 1_555
H9_7 C17_7 1_555 1_555
H10_7 C17_7 1_555 1_555
H11_7 C17_7 1_555 1_555
H6_8 C13_8 1_555 1_555
C14_8 C13_8 1_555 1_555
C17_8 C14_8 1_555 1_555
H9_8 C17_8 1_555 1_555
H10_8 C17_8 1_555 1_555
H11_8 C17_8 1_555 1_555
H6_9 C13_9 1_555 1_555
C14_9 C13_9 1_555 1_555
C17_9 C14_9 1_555 1_555
H9_9 C17_9 1_555 1_555
H10_9 C17_9 1_555 1_555
H11_9 C17_9 1_555 1_555
H21_7 C35_7 1_555 1_555
C36_7 C35_7 1_555 1_555
C39_7 C36_7 1_555 1_555
H24_7 C39_7 1_555 1_555
H25_7 C39_7 1_555 1_555
H26_7 C39_7 1_555 1_555
H21_8 C35_8 1_555 1_555
C36_8 C35_8 1_555 1_555
C39_8 C36_8 1_555 1_555
H24_8 C39_8 1_555 1_555
H25_8 C39_8 1_555 1_555
H26_8 C39_8 1_555 1_555
H21_9 C35_9 1_555 1_555
C36_9 C35_9 1_555 1_555
C39_9 C36_9 1_555 1_555
H24_9 C39_9 1_555 1_555
H25_9 C39_9 1_555 1_555
H26_9 C39_9 1_555 1_555

#END
