
###############################################################################
#
# This file contains modified crystal structure data generated from the
# MOF subset of the Cambridge Structural Database (CSD) v543 
# hosted by the Cambridge Crystallographic Data Centre (CCDC).
#
# This work is licensed under the Creative Commons
# Attribution-NonCommercial-ShareAlike 4.0 International License.
# To view a copy of this license, visit
# http://creativecommons.org/licenses/by-nc-sa/4.0/
# or send a letter to
# Creative Commons, PO Box 1866, Mountain View, CA 94042, USA.
#
# CIF created using the CSD Python API on 29 September 2022
# The structure has been converted into the P1 space group
# The structure has a 3D framework
# The original CSD entry KOZSID is in the rhombohedral crystal system
# The framework has been calculated to contain at least 10.0% void space
# The void calculation uses a probe of radius 1.32A, grid spacing 0.4
#
###############################################################################

data_KOZSID
_chemical_formula_moiety         '(C396 H270 Co12 N54)n'
_symmetry_cell_setting           triclinic
_symmetry_space_group_name_H-M   'P 1'
_symmetry_Int_Tables_number      1
_space_group_name_Hall           'P 1'
loop_
_symmetry_equiv_pos_site_id
_symmetry_equiv_pos_as_xyz
1 x,y,z
_cell_length_a                   32.721(5)
_cell_length_b                   32.721(5)
_cell_length_c                   9.3160(19)
_cell_angle_alpha                90
_cell_angle_beta                 90
_cell_angle_gamma                120
_cell_volume                     8638
loop_
_atom_site_label
_atom_site_type_symbol
_atom_site_fract_x
_atom_site_fract_y
_atom_site_fract_z
Co1 Co 0.5000 0.0000 0.0000
N4 N 0.46684(7) 0.00214(7) 0.1788(2)
N5 N 0.55826(6) 0.05675(6) 0.0709(2)
C25 C 0.44684(9) 0.02792(10) 0.3833(3)
H17 H 0.4499 0.0459 0.4668
C26 C 0.48425(8) 0.03498(8) 0.2872(3)
C27 C 0.53064(8) 0.07204(8) 0.2994(3)
C28 C 0.56504(8) 0.08153(8) 0.1964(3)
C29 C 0.61395(9) 0.11798(9) 0.2103(3)
H18 H 0.6275 0.1400 0.2866
C30 C 0.63654(9) 0.11468(9) 0.0950(3)
H19 H 0.6692 0.1339 0.0746
C31 C 0.60233(8) 0.07673(8) 0.0075(3)
C36 C 0.54419(8) 0.10380(9) 0.4281(3)
C37 C 0.55775(10) 0.15095(10) 0.4144(3)
H22 H 0.5581 0.1635 0.3222
C38 C 0.57095(11) 0.18044(11) 0.5348(4)
H23 H 0.5800 0.2127 0.5233
C39 C 0.57103(10) 0.16318(11) 0.6703(3)
C40 C 0.55749(10) 0.11596(11) 0.6833(3)
H24 H 0.5574 0.1035 0.7755
C41 C 0.54408(9) 0.08652(10) 0.5650(3)
H25 H 0.5347 0.0542 0.5771
C42 C 0.58396(15) 0.19446(15) 0.8026(4)
H26 H 0.5967 0.1826 0.8765
H27 H 0.6078 0.2268 0.7770
H28 H 0.5558 0.1941 0.8395
H6 H 0.4997 0.0949 0.0477
H16 H 0.3548 0.0645 0.0408
C25_2 C 0.30541(10) 0.08559(13) 0.0500(3)
H17_2 H 0.2874 0.0707 0.1335
C36_2 C 0.22953(9) 0.10706(12) 0.0948(3)
C37_2 C 0.18238(10) 0.07347(14) 0.0811(3)
C38_2 C 0.15289(11) 0.05718(16) 0.2015(4)
H23_2 H 0.1206 0.0340 0.1900
C39_2 C 0.17015(11) 0.07452(15) 0.3370(3)
C40_2 C 0.21737(11) 0.10820(15) 0.3500(3)
H24_2 H 0.2298 0.1206 0.4422
C41_2 C 0.24681(10) 0.12423(13) 0.2317(3)
H25_2 H 0.2791 0.1472 0.2438
C42_2 C 0.13887(15) 0.05617(21) 0.4693(4)
H26_2 H 0.1507 0.0808 0.5432
H27_2 H 0.1065 0.0477 0.4437
H28_2 H 0.1392 0.0284 0.5062
Co1_2 Co 0.5000 -0.0000 1.0000
C1 C 0.58079(8) 0.02505(9) 0.7948(3)
C2 C 0.59308(9) 0.00873(10) 0.6668(3)
H1 H 0.6237 0.0215 0.6259
C32 C 0.61315(8) 0.06163(9) 0.8808(3)
C33 C 0.66385(8) 0.08699(9) 0.8367(3)
C34 C 0.68009(9) 0.12004(10) 0.7271(3)
H20 H 0.6588 0.1263 0.6753
C35 C 0.69675(9) 0.07932(10) 0.9075(3)
H21 H 0.6872 0.0569 0.9831
N6 N 0.75955(10) 0.13679(7) 0.7618(2)
C43 C 0.72764(13) 0.14373(9) 0.6943(3)
H29 H 0.7382 0.1664 0.6190
C44 C 0.74358(13) 0.10481(10) 0.8666(3)
H30 H 0.7656 0.0992 0.9162
Co3 Co 0.8333 0.1667 0.6667
N7 N 0.47012(7) 0.04391(12) 0.9049(2)
Co1_3 Co 0.5000 1.0000 0.0000
N3 N 0.24045(10) 0.86321(7) 0.2382(2)
C10 C 0.38685(8) 0.93837(9) 0.1192(3)
C11 C 0.33615(8) 0.91301(9) 0.1633(3)
C12 C 0.31991(9) 0.87996(10) 0.2729(3)
H5 H 0.3412 0.8737 0.3247
C13 C 0.27236(13) 0.85627(9) 0.3057(3)
H6_2 H 0.2618 0.8336 0.3810
C14 C 0.25642(13) 0.89519(10) 0.1334(3)
H7 H 0.2344 0.9008 0.0838
C15 C 0.30325(9) 0.92068(10) 0.0925(3)
H8 H 0.3128 0.9431 0.0169
C23 C 0.41921(8) 0.97495(9) 0.2052(3)
C24 C 0.40692(9) 0.99127(10) 0.3332(3)
H16_2 H 0.3763 0.9785 0.3741
Co2 Co 0.1667 0.8333 0.3333
N8 N 0.52988(7) 0.95609(12) 0.0951(2)
Co1_4 Co -0.0000 0.5000 0.0000
N3_2 N 0.13679(7) 0.37724(12) 0.2382(2)
C10_2 C 0.06163(9) 0.44848(12) 0.1192(3)
C11_2 C 0.08699(9) 0.42314(12) 0.1633(3)
C12_2 C 0.12004(10) 0.43995(13) 0.2729(3)
H5_2 H 0.1263 0.4675 0.3247
C13_2 C 0.14373(9) 0.41609(16) 0.3057(3)
H6_3 H 0.1664 0.4282 0.3810
C14_2 C 0.10481(10) 0.36123(16) 0.1334(3)
H7_2 H 0.0992 0.3336 0.0838
C15_2 C 0.07932(10) 0.38257(13) 0.0925(3)
H8_2 H 0.0569 0.3697 0.0169
C23_2 C 0.02505(9) 0.44426(12) 0.2052(3)
C24_2 C 0.00873(10) 0.41565(13) 0.3332(3)
H16_3 H 0.0215 0.3978 0.3741
Co2_2 Co 0.1667 0.3333 0.3333
N8_2 N 0.04391(12) 0.57378(14) 0.0951(2)
Co1_5 Co 1.0000 0.5000 1.0000
C1_2 C 0.97495(9) 0.55574(12) 0.7948(3)
C2_2 C 0.99127(10) 0.58435(13) 0.6668(3)
H1_2 H 0.9785 0.6022 0.6259
C32_2 C 0.93837(9) 0.55152(12) 0.8808(3)
C33_2 C 0.91301(9) 0.57686(12) 0.8367(3)
C34_2 C 0.87996(10) 0.56005(13) 0.7271(3)
H20_2 H 0.8737 0.5325 0.6753
C35_2 C 0.92068(10) 0.61743(13) 0.9075(3)
H21_2 H 0.9431 0.6303 0.9831
N6_2 N 0.86321(7) 0.62276(12) 0.7618(2)
C43_2 C 0.85627(9) 0.58391(16) 0.6943(3)
H29_2 H 0.8336 0.5718 0.6190
C44_2 C 0.89519(10) 0.63877(16) 0.8666(3)
H30_2 H 0.9008 0.6664 0.9162
Co3_2 Co 0.8333 0.6667 0.6667
N7_2 N 0.95609(12) 0.42622(14) 0.9049(2)
Co1_6 Co 0.5000 0.5000 0.0000
N3_3 N 0.62276(12) 0.75955(10) 0.2382(2)
C10_3 C 0.55152(12) 0.61315(8) 0.1192(3)
C11_3 C 0.57686(12) 0.66385(8) 0.1633(3)
C12_3 C 0.56005(13) 0.68009(9) 0.2729(3)
H5_3 H 0.5325 0.6588 0.3247
C13_3 C 0.58391(16) 0.72764(13) 0.3057(3)
H6_4 H 0.5718 0.7382 0.3810
C14_3 C 0.63877(16) 0.74358(13) 0.1334(3)
H7_3 H 0.6664 0.7656 0.0838
C15_3 C 0.61743(13) 0.69675(9) 0.0925(3)
H8_3 H 0.6303 0.6872 0.0169
N4_2 N 0.53530(10) 0.53316(7) 0.1788(2)
N5_2 N 0.49849(8) 0.44174(6) 0.0709(2)
C23_3 C 0.55574(12) 0.58079(8) 0.2052(3)
C24_3 C 0.58435(13) 0.59308(9) 0.3332(3)
H16_4 H 0.6022 0.6237 0.3741
C25_3 C 0.58108(13) 0.55316(9) 0.3833(3)
H17_3 H 0.5960 0.5501 0.4668
C26_2 C 0.55073(11) 0.51575(8) 0.2872(3)
C27_2 C 0.54140(11) 0.46936(8) 0.2994(3)
C28_2 C 0.51649(11) 0.43496(8) 0.1964(3)
C29_2 C 0.50403(13) 0.38605(9) 0.2103(3)
H18_2 H 0.5125 0.3725 0.2866
C30_2 C 0.47814(13) 0.36346(9) 0.0950(3)
H19_2 H 0.4647 0.3308 0.0746
C31_2 C 0.47440(11) 0.39767(8) 0.0075(3)
C36_3 C 0.55961(12) 0.45581(8) 0.4281(3)
C37_3 C 0.59320(14) 0.44225(10) 0.4144(3)
H22_2 H 0.6054 0.4419 0.3222
C38_3 C 0.60949(16) 0.42905(11) 0.5348(4)
H23_3 H 0.6327 0.4200 0.5233
C39_3 C 0.59215(15) 0.42897(10) 0.6703(3)
C40_3 C 0.55847(15) 0.44251(10) 0.6833(3)
H24_3 H 0.5461 0.4426 0.7755
C41_3 C 0.54244(13) 0.45592(9) 0.5650(3)
H25_3 H 0.5195 0.4653 0.5771
C42_3 C 0.61050(21) 0.41604(15) 0.8026(4)
H26_3 H 0.5859 0.4033 0.8765
H27_3 H 0.6190 0.3922 0.7770
H28_3 H 0.6383 0.4442 0.8395
Co2_3 Co 0.6667 0.8333 0.3333
N8_3 N 0.42622(14) 0.47012(7) 0.0951(2)
Co1_7 Co 0.5000 0.5000 1.0000
N1 N 0.46470(10) 0.46684(7) 0.8212(2)
N2 N 0.50151(8) 0.55826(6) 0.9291(2)
C1_3 C 0.44426(12) 0.41921(8) 0.7948(3)
C2_3 C 0.41565(13) 0.40692(9) 0.6668(3)
H1_3 H 0.3978 0.3763 0.6259
C3 C 0.41892(13) 0.44684(9) 0.6167(3)
H2 H 0.4040 0.4499 0.5332
C4 C 0.44927(11) 0.48425(8) 0.7128(3)
C5 C 0.45860(11) 0.53064(8) 0.7006(3)
C6 C 0.48351(11) 0.56504(8) 0.8036(3)
C7 C 0.49597(13) 0.61395(9) 0.7897(3)
H3 H 0.4875 0.6275 0.7134
C8 C 0.52186(13) 0.63654(9) 0.9050(3)
H4 H 0.5353 0.6692 0.9254
C9 C 0.52560(11) 0.60233(8) 0.9925(3)
C16 C 0.44039(12) 0.54419(8) 0.5719(3)
C17 C 0.40680(14) 0.55775(10) 0.5856(3)
H9 H 0.3946 0.5581 0.6778
C18 C 0.39051(16) 0.57095(11) 0.4652(4)
H10 H 0.3673 0.5800 0.4767
C19 C 0.40785(15) 0.57103(10) 0.3297(3)
C20 C 0.44153(15) 0.55749(10) 0.3167(3)
H11 H 0.4539 0.5574 0.2245
C21 C 0.45756(13) 0.54408(9) 0.4350(3)
H12 H 0.4805 0.5347 0.4229
C22 C 0.38950(21) 0.58396(15) 0.1974(4)
H13 H 0.4141 0.5967 0.1235
H14 H 0.3810 0.6078 0.2230
H15 H 0.3617 0.5558 0.1605
C32_3 C 0.44848(12) 0.38685(8) 0.8808(3)
C33_3 C 0.42314(12) 0.33615(8) 0.8367(3)
C34_3 C 0.43995(13) 0.31991(9) 0.7271(3)
H20_3 H 0.4675 0.3412 0.6753
C35_3 C 0.38257(13) 0.30325(9) 0.9075(3)
H21_3 H 0.3697 0.3128 0.9831
N6_3 N 0.37724(12) 0.24045(10) 0.7618(2)
C43_3 C 0.41609(16) 0.27236(13) 0.6943(3)
H29_3 H 0.4282 0.2618 0.6190
C44_3 C 0.36123(16) 0.25642(13) 0.8666(3)
H30_3 H 0.3336 0.2344 0.9162
Co3_3 Co 0.3333 0.1667 0.6667
N7_3 N 0.57378(14) 0.52988(7) 0.9049(2)
N1_2 N 0.19983(7) 0.33119(7) 0.1545(2)
N2_2 N 0.10841(6) 0.27658(6) 0.2624(2)
C1_4 C 0.24746(8) 0.35838(9) 0.1281(3)
C2_4 C 0.25975(9) 0.34206(10) 0.0001(3)
C4_2 C 0.18242(8) 0.29835(8) 0.0461(3)
C5_2 C 0.13603(8) 0.26129(8) 0.0339(3)
C6_2 C 0.10163(8) 0.25180(8) 0.1369(3)
C7_2 C 0.05272(9) 0.21535(9) 0.1230(3)
H3_2 H 0.0392 0.1933 0.0467
C8_2 C 0.03013(9) 0.21865(9) 0.2383(3)
C9_2 C 0.06434(8) 0.25660(8) 0.3258(3)
C10_4 C 0.05352(8) 0.27170(9) 0.4525(3)
C11_4 C 0.00282(8) 0.24634(9) 0.4966(3)
H5_4 H 0.0079 0.2070 0.6580
H9_2 H 0.1086 0.1698 0.0111
N4_3 N 0.13351(7) 0.33547(7) 0.5121(2)
N5_3 N 0.22493(6) 0.39008(6) 0.4042(2)
C23_4 C 0.08588(8) 0.30828(9) 0.5385(3)
C24_4 C 0.07359(9) 0.32460(10) 0.6665(3)
H16_5 H 0.0430 0.3118 0.7074
C25_4 C 0.11351(9) 0.36125(10) 0.7166(3)
H17_4 H 0.1166 0.3792 0.8001
C26_3 C 0.15092(8) 0.36831(8) 0.6205(3)
C27_3 C 0.19731(8) 0.40537(8) 0.6327(3)
C28_3 C 0.23171(8) 0.41486(8) 0.5297(3)
C29_3 C 0.28062(9) 0.45131(9) 0.5436(3)
H18_3 H 0.2942 0.4733 0.6199
C30_3 C 0.30321(9) 0.44801(9) 0.4283(3)
H19_3 H 0.3359 0.4672 0.4079
C31_3 C 0.26900(8) 0.41006(8) 0.3408(3)
C32_4 C 0.27982(8) 0.39496(9) 0.2141(3)
C33_4 C 0.33052(8) 0.42032(9) 0.1700(3)
C34_4 C 0.34676(9) 0.45337(10) 0.0604(3)
H20_4 H 0.3255 0.4596 0.0086
C35_4 C 0.36342(9) 0.41265(10) 0.2408(3)
H21_4 H 0.3539 0.3902 0.3164
C36_4 C 0.21086(8) 0.43713(9) 0.7614(3)
C37_4 C 0.22442(10) 0.48428(10) 0.7477(3)
H22_3 H 0.2248 0.4968 0.6555
C38_4 C 0.23762(11) 0.51377(11) 0.8681(4)
H23_4 H 0.2467 0.5460 0.8566
C41_4 C 0.21075(9) 0.41985(10) 0.8983(3)
H25_4 H 0.2014 0.3875 0.9104
C43_4 C 0.39431(13) 0.47706(9) 0.0276(3)
C44_4 C 0.41025(13) 0.43814(10) 0.1999(3)
H30_4 H 0.4323 0.4325 0.2495
N8_4 N 0.19654(7) 0.28943(12) 0.4285(2)
H1_4 H 0.2904 0.3548 0.9592
C3_2 C 0.21983(9) 0.30541(10) 0.9500(3)
H2_2 H 0.2168 0.2874 0.8665
C16_2 C 0.12248(8) 0.22953(9) 0.9052(3)
C17_2 C 0.10892(10) 0.18238(10) 0.9189(3)
C18_2 C 0.09572(11) 0.15289(11) 0.7985(4)
H10_2 H 0.0867 0.1206 0.8100
C19_2 C 0.09564(10) 0.17015(11) 0.6630(3)
C20_2 C 0.10918(10) 0.21737(11) 0.6500(3)
H11_2 H 0.1093 0.2298 0.5578
C21_2 C 0.12259(9) 0.24681(10) 0.7683(3)
H12_2 H 0.1320 0.2791 0.7562
C22_2 C 0.08271(15) 0.13887(15) 0.5307(4)
H13_2 H 0.0700 0.1507 0.4568
H14_2 H 0.0589 0.1065 0.5563
H15_2 H 0.1109 0.1392 0.4938
H29_4 H 0.4049 0.4997 0.9523
N3_4 N 0.90712(10) 0.19654(7) 0.5715(2)
H4_2 H 0.9975 0.1994 0.2587
C12_4 C 0.98658(9) 0.21329(10) 0.6062(3)
C13_4 C 0.93903(13) 0.18960(9) 0.6390(3)
H6_5 H 0.9285 0.1669 0.7143
C14_4 C 0.92309(13) 0.22852(10) 0.4667(3)
H7_4 H 0.9011 0.2341 0.4171
C15_4 C 0.96992(9) 0.25401(10) 0.4258(3)
H8_4 H 0.9795 0.2764 0.3502
N1_3 N 0.66881(7) 0.86863(10) 0.1545(2)
N2_3 N 0.72342(6) 0.83182(8) 0.2624(2)
N3_5 N 0.80346(7) 0.71057(12) 0.5715(2)
C1_5 C 0.64162(9) 0.88907(12) 0.1281(3)
C2_5 C 0.65794(10) 0.91768(13) 0.0001(3)
C4_3 C 0.70165(8) 0.88406(11) 0.0461(3)
C5_3 C 0.73871(8) 0.87473(11) 0.0339(3)
C6_3 C 0.74820(8) 0.84982(11) 0.1369(3)
C7_3 C 0.78465(9) 0.83736(13) 0.1230(3)
H3_3 H 0.8067 0.8458 0.0467
C8_3 C 0.78135(9) 0.81147(13) 0.2383(3)
H4_3 H 0.8006 0.7980 0.2587
C9_3 C 0.74340(8) 0.80773(11) 0.3258(3)
C10_5 C 0.72830(9) 0.78181(12) 0.4525(3)
C11_5 C 0.75366(9) 0.75647(12) 0.4966(3)
C12_5 C 0.78671(10) 0.77328(13) 0.6062(3)
H5_5 H 0.7930 0.8008 0.6580
C13_5 C 0.81040(9) 0.74942(16) 0.6390(3)
H6_6 H 0.8331 0.7615 0.7143
C14_5 C 0.77148(10) 0.69456(16) 0.4667(3)
H7_5 H 0.7659 0.6669 0.4171
C15_5 C 0.74599(10) 0.71590(13) 0.4258(3)
H8_5 H 0.7236 0.7030 0.3502
H9_3 H 0.8302 0.9387 0.0111
N4_4 N 0.66453(7) 0.79803(10) 0.5121(2)
N5_4 N 0.60992(6) 0.83484(8) 0.4042(2)
C23_5 C 0.69172(9) 0.77759(12) 0.5385(3)
C24_5 C 0.67540(10) 0.74898(13) 0.6665(3)
H16_6 H 0.6882 0.7311 0.7074
C25_5 C 0.63875(10) 0.75225(13) 0.7166(3)
H17_5 H 0.6208 0.7373 0.8001
C26_4 C 0.63169(8) 0.78260(11) 0.6205(3)
C27_4 C 0.59463(8) 0.79193(11) 0.6327(3)
C28_4 C 0.58514(8) 0.81684(11) 0.5297(3)
C29_4 C 0.54869(9) 0.82930(13) 0.5436(3)
H18_4 H 0.5267 0.8208 0.6199
C30_4 C 0.55199(9) 0.85519(13) 0.4283(3)
H19_4 H 0.5328 0.8686 0.4079
C31_4 C 0.58994(8) 0.85893(11) 0.3408(3)
C32_5 C 0.60504(9) 0.88485(12) 0.2141(3)
C33_5 C 0.57968(9) 0.91019(12) 0.1700(3)
C34_5 C 0.54663(10) 0.89338(13) 0.0604(3)
H20_5 H 0.5404 0.8658 0.0086
C35_5 C 0.58735(10) 0.95076(13) 0.2408(3)
H21_5 H 0.6098 0.9636 0.3164
C36_5 C 0.56287(9) 0.77372(12) 0.7614(3)
C37_5 C 0.51572(10) 0.74013(14) 0.7477(3)
H22_4 H 0.5032 0.7279 0.6555
C38_5 C 0.48623(11) 0.72384(16) 0.8681(4)
H23_5 H 0.4540 0.7006 0.8566
C41_5 C 0.58015(10) 0.79089(13) 0.8983(3)
H25_5 H 0.6125 0.8138 0.9104
C43_5 C 0.52294(9) 0.91724(16) 0.0276(3)
C44_5 C 0.56186(10) 0.97210(16) 0.1999(3)
H30_5 H 0.5675 0.9997 0.2495
N8_5 N 0.71057(12) 0.90712(14) 0.4285(2)
N3_6 N 0.28943(12) 0.09288(10) 0.5715(2)
H4_4 H 0.2020 0.0025 0.2587
C12_6 C 0.22672(13) 0.01342(9) 0.6062(3)
C13_6 C 0.25058(16) 0.06097(13) 0.6390(3)
H6_7 H 0.2385 0.0715 0.7143
C14_6 C 0.30544(16) 0.07691(13) 0.4667(3)
H7_6 H 0.3331 0.0989 0.4171
C15_6 C 0.28410(13) 0.03008(9) 0.4258(3)
H8_6 H 0.2970 0.0205 0.3502
N1_4 N 0.13137(10) 0.80017(7) 0.1545(2)
N2_4 N 0.16818(8) 0.89159(6) 0.2624(2)
C1_6 C 0.11093(12) 0.75254(8) 0.1281(3)
C2_6 C 0.08232(13) 0.74025(9) 0.0001(3)
C4_4 C 0.11594(11) 0.81758(8) 0.0461(3)
C5_4 C 0.12527(11) 0.86397(8) 0.0339(3)
C6_4 C 0.15018(11) 0.89837(8) 0.1369(3)
C7_4 C 0.16264(13) 0.94728(9) 0.1230(3)
H3_4 H 0.1542 0.9608 0.0467
C8_4 C 0.18853(13) 0.96987(9) 0.2383(3)
C9_4 C 0.19227(11) 0.93566(8) 0.3258(3)
C10_6 C 0.21819(12) 0.94648(8) 0.4525(3)
C11_6 C 0.24353(12) 0.99718(8) 0.4966(3)
H5_6 H 0.1992 0.9921 0.6580
H9_4 H 0.0613 0.8914 0.0111
N4_5 N 0.20197(10) 0.86649(7) 0.5121(2)
N5_5 N 0.16516(8) 0.77507(6) 0.4042(2)
C23_6 C 0.22241(12) 0.91412(8) 0.5385(3)
C24_6 C 0.25102(13) 0.92641(9) 0.6665(3)
H16_7 H 0.2689 0.9570 0.7074
C25_6 C 0.24775(13) 0.88649(9) 0.7166(3)
H17_6 H 0.2627 0.8834 0.8001
C26_5 C 0.21740(11) 0.84908(8) 0.6205(3)
C27_5 C 0.20807(11) 0.80269(8) 0.6327(3)
C28_5 C 0.18316(11) 0.76829(8) 0.5297(3)
C29_5 C 0.17070(13) 0.71938(9) 0.5436(3)
H18_5 H 0.1792 0.7058 0.6199
C30_5 C 0.14481(13) 0.69679(9) 0.4283(3)
H19_5 H 0.1314 0.6641 0.4079
C31_5 C 0.14107(11) 0.73100(8) 0.3408(3)
C32_6 C 0.11515(12) 0.72018(8) 0.2141(3)
C33_6 C 0.08981(12) 0.66948(8) 0.1700(3)
C34_6 C 0.10662(13) 0.65324(9) 0.0604(3)
H20_6 H 0.1342 0.6745 0.0086
C35_6 C 0.04924(13) 0.63658(9) 0.2408(3)
H21_6 H 0.0364 0.6461 0.3164
C36_6 C 0.22628(12) 0.78914(8) 0.7614(3)
C37_6 C 0.25987(14) 0.77558(10) 0.7477(3)
H22_5 H 0.2721 0.7752 0.6555
C38_6 C 0.27616(16) 0.76238(11) 0.8681(4)
H23_6 H 0.2994 0.7533 0.8566
C41_6 C 0.20911(13) 0.78925(9) 0.8983(3)
H25_6 H 0.1862 0.7986 0.9104
C43_6 C 0.08276(16) 0.60569(13) 0.0276(3)
C44_6 C 0.02790(16) 0.58975(13) 0.1999(3)
H30_6 H 0.0003 0.5677 0.2495
N8_6 N 0.09288(14) 0.80346(7) 0.4285(2)
H19_6 H 0.0025 0.8006 0.7413
C34_7 C 0.01342(9) 0.78671(10) 0.3938(3)
C35_7 C 0.03008(9) 0.74599(10) 0.5742(3)
H21_7 H 0.0205 0.7236 0.6498
C43_7 C 0.06097(13) 0.81040(9) 0.3610(3)
H29_5 H 0.0715 0.8331 0.2857
C44_7 C 0.07691(13) 0.77148(10) 0.5333(3)
H30_7 H 0.0989 0.7659 0.5829
H6_8 H 0.5951 0.5003 0.0477
H16_8 H 0.7096 0.6452 0.0408
C25_7 C 0.78017(9) 0.69459(10) 0.0500(3)
H17_7 H 0.7832 0.7126 0.1335
C36_7 C 0.87752(8) 0.77047(9) 0.0948(3)
C37_7 C 0.89108(10) 0.81762(10) 0.0811(3)
C38_7 C 0.90428(11) 0.84711(11) 0.2015(4)
H23_7 H 0.9133 0.8794 0.1900
C39_4 C 0.90436(10) 0.82985(11) 0.3370(3)
C40_4 C 0.89082(10) 0.78263(11) 0.3500(3)
H24_4 H 0.8907 0.7702 0.4422
C41_7 C 0.87741(9) 0.75319(10) 0.2317(3)
H25_7 H 0.8680 0.7209 0.2438
C42_4 C 0.91729(15) 0.86113(15) 0.4693(4)
H26_4 H 0.9300 0.8493 0.5432
H27_4 H 0.9411 0.8935 0.4437
H28_4 H 0.8891 0.8608 0.5062
N1_5 N 0.86649(7) 0.66453(7) 0.4879(2)
N2_5 N 0.77507(6) 0.60992(6) 0.5958(2)
C1_7 C 0.91412(8) 0.69172(9) 0.4615(3)
C2_7 C 0.92641(9) 0.67540(10) 0.3335(3)
H1_5 H 0.9570 0.6882 0.2926
C3_3 C 0.88649(9) 0.63875(10) 0.2834(3)
H2_3 H 0.8834 0.6208 0.1999
C4_5 C 0.84908(8) 0.63169(8) 0.3795(3)
C5_5 C 0.80269(8) 0.59463(8) 0.3673(3)
C6_5 C 0.76829(8) 0.58514(8) 0.4703(3)
C7_5 C 0.71938(9) 0.54869(9) 0.4564(3)
H3_5 H 0.7058 0.5267 0.3801
C8_5 C 0.69679(9) 0.55199(9) 0.5717(3)
H4_5 H 0.6641 0.5328 0.5921
C9_5 C 0.73100(8) 0.58994(8) 0.6592(3)
C10_7 C 0.72018(8) 0.60504(9) 0.7859(3)
C11_7 C 0.66948(8) 0.57968(9) 0.8300(3)
C12_7 C 0.65324(9) 0.54663(10) 0.9396(3)
H5_7 H 0.6745 0.5404 0.9914
C13_7 C 0.60569(13) 0.52294(9) 0.9724(3)
C14_7 C 0.58975(13) 0.56186(10) 0.8001(3)
H7_7 H 0.5677 0.5675 0.7505
C15_7 C 0.63658(9) 0.58735(10) 0.7592(3)
H8_7 H 0.6461 0.6098 0.6836
C16_3 C 0.78914(8) 0.56287(9) 0.2386(3)
C17_3 C 0.77558(10) 0.51572(10) 0.2523(3)
H9_5 H 0.7752 0.5032 0.3445
C18_3 C 0.76238(11) 0.48623(11) 0.1319(4)
H10_3 H 0.7533 0.4540 0.1434
C21_3 C 0.78925(9) 0.58015(10) 0.1017(3)
H12_3 H 0.7986 0.6125 0.0896
N4_6 N 0.80017(7) 0.66881(7) 0.8455(2)
N5_6 N 0.89159(6) 0.72342(6) 0.7376(2)
C23_7 C 0.75254(8) 0.64162(9) 0.8719(3)
C24_7 C 0.74025(9) 0.65794(10) 0.9999(3)
C26_6 C 0.81758(8) 0.70165(8) 0.9539(3)
C27_6 C 0.86397(8) 0.73871(8) 0.9661(3)
C28_6 C 0.89837(8) 0.74820(8) 0.8631(3)
C29_6 C 0.94728(9) 0.78465(9) 0.8770(3)
H18_6 H 0.9608 0.8067 0.9533
C30_6 C 0.96987(9) 0.78135(9) 0.7617(3)
C31_6 C 0.93566(8) 0.74340(8) 0.6742(3)
C32_7 C 0.94648(8) 0.72830(9) 0.5475(3)
C33_7 C 0.99718(8) 0.75366(9) 0.5034(3)
H20_7 H 0.9921 0.7930 0.3420
H22_6 H 0.8914 0.8302 0.9889
N1_6 N 0.33547(7) 0.20197(10) 0.4879(2)
N2_6 N 0.39008(6) 0.16516(8) 0.5958(2)
C1_8 C 0.30828(9) 0.22241(12) 0.4615(3)
C2_8 C 0.32460(10) 0.25102(13) 0.3335(3)
H1_6 H 0.3118 0.2689 0.2926
C3_4 C 0.36125(10) 0.24775(13) 0.2834(3)
H2_4 H 0.3792 0.2627 0.1999
C4_6 C 0.36831(8) 0.21740(11) 0.3795(3)
C5_6 C 0.40537(8) 0.20807(11) 0.3673(3)
C6_6 C 0.41486(8) 0.18316(11) 0.4703(3)
C7_6 C 0.45131(9) 0.17070(13) 0.4564(3)
H3_6 H 0.4733 0.1792 0.3801
C8_6 C 0.44801(9) 0.14481(13) 0.5717(3)
H4_6 H 0.4672 0.1314 0.5921
C9_6 C 0.41006(8) 0.14107(11) 0.6592(3)
C10_8 C 0.39496(9) 0.11515(12) 0.7859(3)
C11_8 C 0.42032(9) 0.08981(12) 0.8300(3)
C12_8 C 0.45337(10) 0.10662(13) 0.9396(3)
H5_8 H 0.4596 0.1342 0.9914
C13_8 C 0.47706(9) 0.08276(16) 0.9724(3)
C14_8 C 0.43814(10) 0.02790(16) 0.8001(3)
H7_8 H 0.4325 0.0003 0.7505
C15_8 C 0.41265(10) 0.04924(13) 0.7592(3)
H8_8 H 0.3902 0.0364 0.6836
C16_4 C 0.43713(9) 0.22628(12) 0.2386(3)
C17_4 C 0.48428(10) 0.25987(14) 0.2523(3)
H9_6 H 0.4968 0.2721 0.3445
C18_4 C 0.51377(11) 0.27616(16) 0.1319(4)
H10_4 H 0.5460 0.2994 0.1434
C21_4 C 0.41985(10) 0.20911(13) 0.1017(3)
H12_4 H 0.3875 0.1862 0.0896
N4_7 N 0.33119(7) 0.13137(10) 0.8455(2)
N5_7 N 0.27658(6) 0.16818(8) 0.7376(2)
C23_8 C 0.35838(9) 0.11093(12) 0.8719(3)
C24_8 C 0.34206(10) 0.08232(13) 0.9999(3)
C26_7 C 0.29835(8) 0.11594(11) 0.9539(3)
C27_7 C 0.26129(8) 0.12527(11) 0.9661(3)
C28_7 C 0.25180(8) 0.15018(11) 0.8631(3)
C29_7 C 0.21535(9) 0.16264(13) 0.8770(3)
H18_7 H 0.1933 0.1542 0.9533
C30_7 C 0.21865(9) 0.18853(13) 0.7617(3)
H19_7 H 0.1994 0.2020 0.7413
C31_7 C 0.25660(8) 0.19227(11) 0.6742(3)
C32_8 C 0.27170(9) 0.21819(12) 0.5475(3)
C33_8 C 0.24634(9) 0.24353(12) 0.5034(3)
C34_8 C 0.21329(10) 0.22672(13) 0.3938(3)
H20_8 H 0.2070 0.1992 0.3420
C35_8 C 0.25401(10) 0.28410(13) 0.5742(3)
H21_8 H 0.2764 0.2970 0.6498
H22_7 H 0.1698 0.0613 0.9889
C43_8 C 0.18960(9) 0.25058(16) 0.3610(3)
H29_6 H 0.1669 0.2385 0.2857
C44_8 C 0.22852(10) 0.30544(16) 0.5333(3)
H30_8 H 0.2341 0.3331 0.5829
N1_7 N 0.79803(10) 0.13351(7) 0.4879(2)
N2_7 N 0.83484(8) 0.22493(6) 0.5958(2)
C1_9 C 0.77759(12) 0.08588(8) 0.4615(3)
C2_9 C 0.74898(13) 0.07359(9) 0.3335(3)
H1_7 H 0.7311 0.0430 0.2926
C3_5 C 0.75225(13) 0.11351(9) 0.2834(3)
H2_5 H 0.7373 0.1166 0.1999
C4_7 C 0.78260(11) 0.15092(8) 0.3795(3)
C5_7 C 0.79193(11) 0.19731(8) 0.3673(3)
C6_7 C 0.81684(11) 0.23171(8) 0.4703(3)
C7_7 C 0.82930(13) 0.28062(9) 0.4564(3)
H3_7 H 0.8208 0.2942 0.3801
C8_7 C 0.85519(13) 0.30321(9) 0.5717(3)
H4_7 H 0.8686 0.3359 0.5921
C9_7 C 0.85893(11) 0.26900(8) 0.6592(3)
C10_9 C 0.88485(12) 0.27982(8) 0.7859(3)
C11_9 C 0.91019(12) 0.33052(8) 0.8300(3)
C12_9 C 0.89338(13) 0.34676(9) 0.9396(3)
H5_9 H 0.8658 0.3255 0.9914
C13_9 C 0.91724(16) 0.39431(13) 0.9724(3)
C14_9 C 0.97210(16) 0.41025(13) 0.8001(3)
H7_9 H 0.9997 0.4323 0.7505
C15_9 C 0.95076(13) 0.36342(9) 0.7592(3)
H8_9 H 0.9636 0.3539 0.6836
C16_5 C 0.77372(12) 0.21086(8) 0.2386(3)
C17_5 C 0.74013(14) 0.22442(10) 0.2523(3)
H9_7 H 0.7279 0.2248 0.3445
C18_5 C 0.72384(16) 0.23762(11) 0.1319(4)
H10_5 H 0.7006 0.2467 0.1434
C21_5 C 0.79089(13) 0.21075(9) 0.1017(3)
H12_5 H 0.8138 0.2014 0.0896
N4_8 N 0.86863(10) 0.19983(7) 0.8455(2)
N5_8 N 0.83182(8) 0.10841(6) 0.7376(2)
C23_9 C 0.88907(12) 0.24746(8) 0.8719(3)
C24_9 C 0.91768(13) 0.25975(9) 0.9999(3)
C26_8 C 0.88406(11) 0.18242(8) 0.9539(3)
C27_8 C 0.87473(11) 0.13603(8) 0.9661(3)
C28_8 C 0.84982(11) 0.10163(8) 0.8631(3)
C29_8 C 0.83736(13) 0.05272(9) 0.8770(3)
H18_8 H 0.8458 0.0392 0.9533
C30_8 C 0.81147(13) 0.03013(9) 0.7617(3)
C31_8 C 0.80773(11) 0.06434(8) 0.6742(3)
C32_9 C 0.78181(12) 0.05352(8) 0.5475(3)
C33_9 C 0.75647(12) 0.00282(8) 0.5034(3)
H20_9 H 0.8008 0.0079 0.3420
H22_8 H 0.9387 0.1086 0.9889
H19_8 H 0.7980 0.9975 0.7413
C34_9 C 0.77328(13) 0.98658(9) 0.3938(3)
C35_9 C 0.71590(13) 0.96992(9) 0.5742(3)
H21_9 H 0.7030 0.9795 0.6498
C43_9 C 0.74942(16) 0.93903(13) 0.3610(3)
H29_7 H 0.7615 0.9285 0.2857
C44_9 C 0.69456(16) 0.92309(13) 0.5333(3)
H30_9 H 0.6669 0.9011 0.5829
Co1_8 Co 0.5000 1.0000 1.0000
N1_8 N 0.53316(7) 0.99786(7) 0.8212(2)
N2_8 N 0.44174(6) 0.94325(6) 0.9291(2)
C3_6 C 0.55316(9) 0.97208(10) 0.6167(3)
H2_6 H 0.5501 0.9541 0.5332
C4_8 C 0.51575(8) 0.96502(8) 0.7128(3)
C5_8 C 0.46936(8) 0.92796(8) 0.7006(3)
C6_8 C 0.43496(8) 0.91847(8) 0.8036(3)
C7_8 C 0.38605(9) 0.88202(9) 0.7897(3)
H3_8 H 0.3725 0.8600 0.7134
C8_8 C 0.36346(9) 0.88532(9) 0.9050(3)
H4_8 H 0.3308 0.8661 0.9254
C9_8 C 0.39767(8) 0.92327(8) 0.9925(3)
C16_6 C 0.45581(8) 0.89620(9) 0.5719(3)
C17_6 C 0.44225(10) 0.84905(10) 0.5856(3)
H9_8 H 0.4419 0.8365 0.6778
C18_6 C 0.42905(11) 0.81956(11) 0.4652(4)
H10_6 H 0.4200 0.7873 0.4767
C19_3 C 0.42897(10) 0.83682(11) 0.3297(3)
C20_3 C 0.44251(10) 0.88404(11) 0.3167(3)
H11_3 H 0.4426 0.8965 0.2245
C21_6 C 0.45592(9) 0.91348(10) 0.4350(3)
H12_6 H 0.4653 0.9458 0.4229
C22_3 C 0.41604(15) 0.80554(15) 0.1974(4)
H13_3 H 0.4033 0.8174 0.1235
H14_3 H 0.3922 0.7732 0.2230
H15_3 H 0.4442 0.8059 0.1605
H1_8 H 0.6452 0.9355 0.9592
C3_7 C 0.69459(10) 0.91441(13) 0.9500(3)
H2_7 H 0.7126 0.9293 0.8665
C16_7 C 0.77047(9) 0.89294(12) 0.9052(3)
C17_7 C 0.81762(10) 0.92653(14) 0.9189(3)
C18_7 C 0.84711(11) 0.94282(16) 0.7985(4)
H10_7 H 0.8794 0.9660 0.8100
C19_4 C 0.82985(11) 0.92548(15) 0.6630(3)
C20_4 C 0.78263(11) 0.89180(15) 0.6500(3)
H11_4 H 0.7702 0.8794 0.5578
C21_7 C 0.75319(10) 0.87577(13) 0.7683(3)
H12_7 H 0.7209 0.8528 0.7562
C22_4 C 0.86113(15) 0.94383(21) 0.5307(4)
H13_4 H 0.8493 0.9192 0.4568
H14_4 H 0.8935 0.9523 0.5563
H15_4 H 0.8608 0.9716 0.4938
H29_8 H 0.5003 0.9051 0.9523
Co1_9 Co -0.0000 0.5000 1.0000
N1_9 N 0.00214(7) 0.53530(10) 0.8212(2)
N2_9 N 0.05675(6) 0.49849(8) 0.9291(2)
C3_8 C 0.02792(10) 0.58108(13) 0.6167(3)
H2_8 H 0.0459 0.5960 0.5332
C4_9 C 0.03498(8) 0.55073(11) 0.7128(3)
C5_9 C 0.07204(8) 0.54140(11) 0.7006(3)
C6_9 C 0.08153(8) 0.51649(11) 0.8036(3)
C7_9 C 0.11798(9) 0.50403(13) 0.7897(3)
H3_9 H 0.1400 0.5125 0.7134
C8_9 C 0.11468(9) 0.47814(13) 0.9050(3)
H4_9 H 0.1339 0.4647 0.9254
C9_9 C 0.07673(8) 0.47440(11) 0.9925(3)
C16_8 C 0.10380(9) 0.55961(12) 0.5719(3)
C17_8 C 0.15095(10) 0.59320(14) 0.5856(3)
H9_9 H 0.1635 0.6054 0.6778
C18_8 C 0.18044(11) 0.60949(16) 0.4652(4)
H10_8 H 0.2127 0.6327 0.4767
C19_5 C 0.16318(11) 0.59215(15) 0.3297(3)
C20_5 C 0.11596(11) 0.55847(15) 0.3167(3)
H11_5 H 0.1035 0.5461 0.2245
C21_8 C 0.08652(10) 0.54244(13) 0.4350(3)
H12_8 H 0.0542 0.5195 0.4229
C22_5 C 0.19446(15) 0.61050(21) 0.1974(4)
H13_5 H 0.1826 0.5859 0.1235
H14_5 H 0.2268 0.6190 0.2230
H15_5 H 0.1941 0.6383 0.1605
H1_9 H 0.0645 0.7096 0.9592
C3_9 C 0.08559(13) 0.78017(9) 0.9500(3)
H2_9 H 0.0707 0.7832 0.8665
C16_9 C 0.10706(12) 0.87752(8) 0.9052(3)
C17_9 C 0.07347(14) 0.89108(10) 0.9189(3)
C18_9 C 0.05718(16) 0.90428(11) 0.7985(4)
H10_9 H 0.0340 0.9133 0.8100
C19_6 C 0.07452(15) 0.90436(10) 0.6630(3)
C20_6 C 0.10820(15) 0.89082(10) 0.6500(3)
H11_6 H 0.1206 0.8907 0.5578
C21_9 C 0.12423(13) 0.87741(9) 0.7683(3)
H12_9 H 0.1472 0.8680 0.7562
C22_6 C 0.05617(21) 0.91729(15) 0.5307(4)
H13_6 H 0.0808 0.9300 0.4568
H14_6 H 0.0477 0.9411 0.5563
H15_6 H 0.0284 0.8891 0.4938
H29_9 H 0.0949 0.5951 0.9523
Co1_10 Co 1.0000 0.5000 0.0000
N4_9 N 0.99786(7) 0.46470(10) 0.1788(2)
N5_9 N 0.94325(6) 0.50151(8) 0.0709(2)
C25_8 C 0.97208(10) 0.41892(13) 0.3833(3)
H17_8 H 0.9541 0.4040 0.4668
C26_9 C 0.96502(8) 0.44927(11) 0.2872(3)
C27_9 C 0.92796(8) 0.45860(11) 0.2994(3)
C28_9 C 0.91847(8) 0.48351(11) 0.1964(3)
C29_9 C 0.88202(9) 0.49597(13) 0.2103(3)
H18_9 H 0.8600 0.4875 0.2866
C30_9 C 0.88532(9) 0.52186(13) 0.0950(3)
H19_9 H 0.8661 0.5353 0.0746
C31_9 C 0.92327(8) 0.52560(11) 0.0075(3)
C36_8 C 0.89620(9) 0.44039(12) 0.4281(3)
C37_8 C 0.84905(10) 0.40680(14) 0.4144(3)
H22_9 H 0.8365 0.3946 0.3222
C38_8 C 0.81956(11) 0.39051(16) 0.5348(4)
H23_8 H 0.7873 0.3673 0.5233
C39_5 C 0.83682(11) 0.40785(15) 0.6703(3)
C40_5 C 0.88404(11) 0.44153(15) 0.6833(3)
H24_5 H 0.8965 0.4539 0.7755
C41_8 C 0.91348(10) 0.45756(13) 0.5650(3)
H25_8 H 0.9458 0.4805 0.5771
C42_5 C 0.80554(15) 0.38950(21) 0.8026(4)
H26_5 H 0.8174 0.4141 0.8765
H27_5 H 0.7732 0.3810 0.7770
H28_5 H 0.8059 0.3617 0.8395
H6_9 H 0.9051 0.4049 0.0477
H16_9 H 0.9355 0.2904 0.0408
C25_9 C 0.91441(13) 0.21983(9) 0.0500(3)
H17_9 H 0.9293 0.2168 0.1335
C36_9 C 0.89294(12) 0.12248(8) 0.0948(3)
C37_9 C 0.92653(14) 0.10892(10) 0.0811(3)
C38_9 C 0.94282(16) 0.09572(11) 0.2015(4)
H23_9 H 0.9660 0.0867 0.1900
C39_6 C 0.92548(15) 0.09564(10) 0.3370(3)
C40_6 C 0.89180(15) 0.10918(10) 0.3500(3)
H24_6 H 0.8794 0.1093 0.4422
C41_9 C 0.87577(13) 0.12259(9) 0.2317(3)
H25_9 H 0.8528 0.1320 0.2438
C42_6 C 0.94383(21) 0.08271(15) 0.4693(4)
H26_6 H 0.9192 0.0700 0.5432
H27_6 H 0.9523 0.0589 0.4437
H28_6 H 0.9716 0.1109 0.5062
C39_7 C 0.23770(10) 0.49651(11) 0.0036(3)
C40_7 C 0.22416(10) 0.44929(11) 0.0166(3)
H24_7 H 0.2241 0.4368 0.1088
C42_7 C 0.25063(15) 0.52779(15) 0.1359(4)
H26_7 H 0.2634 0.5159 0.2098
H27_7 H 0.2745 0.5601 0.1103
H28_7 H 0.2225 0.5274 0.1728
C39_8 C 0.50349(11) 0.74118(15) 0.0036(3)
C40_8 C 0.55071(11) 0.77486(15) 0.0166(3)
H24_8 H 0.5632 0.7872 0.1088
C42_8 C 0.47221(15) 0.72283(21) 0.1359(4)
H26_8 H 0.4841 0.7474 0.2098
H27_8 H 0.4399 0.7143 0.1103
H28_8 H 0.4726 0.6950 0.1728
C39_9 C 0.25882(15) 0.76230(10) 0.0036(3)
C40_9 C 0.22514(15) 0.77584(10) 0.0166(3)
H24_9 H 0.2128 0.7759 0.1088
C42_9 C 0.27717(21) 0.74937(15) 0.1359(4)
H26_9 H 0.2526 0.7366 0.2098
H27_9 H 0.2857 0.7255 0.1103
H28_9 H 0.3050 0.7775 0.1728
C19_7 C 0.76230(10) 0.50349(11) 0.9964(3)
C20_7 C 0.77584(10) 0.55071(11) 0.9834(3)
H11_7 H 0.7759 0.5632 0.8912
C22_7 C 0.74937(15) 0.47221(15) 0.8641(4)
H13_7 H 0.7366 0.4841 0.7902
H14_7 H 0.7255 0.4399 0.8897
H15_7 H 0.7775 0.4726 0.8272
C19_8 C 0.49651(11) 0.25882(15) 0.9964(3)
C20_8 C 0.44929(11) 0.22514(15) 0.9834(3)
H11_8 H 0.4368 0.2128 0.8912
C22_8 C 0.52779(15) 0.27717(21) 0.8641(4)
H13_8 H 0.5159 0.2526 0.7902
H14_8 H 0.5601 0.2857 0.8897
H15_8 H 0.5274 0.3050 0.8272
C19_9 C 0.74118(15) 0.23770(10) 0.9964(3)
C20_9 C 0.77486(15) 0.22416(10) 0.9834(3)
H11_9 H 0.7872 0.2241 0.8912
C22_9 C 0.72283(21) 0.25063(15) 0.8641(4)
H13_9 H 0.7474 0.2634 0.7902
H14_9 H 0.7143 0.2745 0.8897
H15_9 H 0.6950 0.2225 0.8272
loop_
_geom_bond_atom_site_label_1
_geom_bond_atom_site_label_2
_geom_bond_site_symmetry_1
_geom_bond_site_symmetry_2
N4 Co1 1_555 1_555
N5 Co1 1_555 1_555
H17 C25 1_555 1_555
C26 N4 1_555 1_555
C27 C26 1_555 1_555
C28 N5 1_555 1_555
C29 C28 1_555 1_555
H18 C29 1_555 1_555
C30 C29 1_555 1_555
H19 C30 1_555 1_555
C31 N5 1_555 1_555
C36 C27 1_555 1_555
C37 C36 1_555 1_555
H22 C37 1_555 1_555
C38 C37 1_555 1_555
H23 C38 1_555 1_555
C39 C38 1_555 1_555
C40 C39 1_555 1_555
H24 C40 1_555 1_555
C41 C36 1_555 1_555
H25 C41 1_555 1_555
C42 C39 1_555 1_555
H26 C42 1_555 1_555
H27 C42 1_555 1_555
H28 C42 1_555 1_555
C25 C26 1_555 1_555
C27 C28 1_555 1_555
C30 C31 1_555 1_555
C40 C41 1_555 1_555
H17_2 C25_2 1_555 1_555
C37_2 C36_2 1_555 1_555
C38_2 C37_2 1_555 1_555
H23_2 C38_2 1_555 1_555
C39_2 C38_2 1_555 1_555
C40_2 C39_2 1_555 1_555
H24_2 C40_2 1_555 1_555
C41_2 C36_2 1_555 1_555
H25_2 C41_2 1_555 1_555
C42_2 C39_2 1_555 1_555
H26_2 C42_2 1_555 1_555
H27_2 C42_2 1_555 1_555
H28_2 C42_2 1_555 1_555
C40_2 C41_2 1_555 1_555
C1 C2 1_555 1_555
C2 H1 1_555 1_555
C32 C1 1_555 1_555
C33 C32 1_555 1_555
C34 C33 1_555 1_555
H20 C34 1_555 1_555
C35 C33 1_555 1_555
H21 C35 1_555 1_555
N6 C43 1_555 1_555
C43 C34 1_555 1_555
H29 C43 1_555 1_555
C44 C35 1_555 1_555
H30 C44 1_555 1_555
Co3 N6 1_555 1_555
N7 Co1_2 1_555 1_555
N6 C44 1_555 1_555
N3 C13 1_555 1_555
C11 C10 1_555 1_555
C12 C11 1_555 1_555
H5 C12 1_555 1_555
C13 C12 1_555 1_555
H6_2 C13 1_555 1_555
C14 N3 1_555 1_555
H7 C14 1_555 1_555
C15 C11 1_555 1_555
H8 C15 1_555 1_555
C23 C10 1_555 1_555
C24 C23 1_555 1_555
H16_2 C24 1_555 1_555
Co2 N3 1_555 1_555
N8 Co1_3 1_555 1_555
C14 C15 1_555 1_555
N3_2 C13_2 1_555 1_555
C11_2 C10_2 1_555 1_555
C12_2 C11_2 1_555 1_555
H5_2 C12_2 1_555 1_555
C13_2 C12_2 1_555 1_555
H6_3 C13_2 1_555 1_555
C14_2 N3_2 1_555 1_555
H7_2 C14_2 1_555 1_555
C15_2 C11_2 1_555 1_555
H8_2 C15_2 1_555 1_555
C23_2 C10_2 1_555 1_555
C24_2 C23_2 1_555 1_555
H16_3 C24_2 1_555 1_555
Co2_2 N3_2 1_555 1_555
N8_2 Co1_4 1_555 1_555
C14_2 C15_2 1_555 1_555
C1_2 C2_2 1_555 1_555
C2_2 H1_2 1_555 1_555
C32_2 C1_2 1_555 1_555
C33_2 C32_2 1_555 1_555
C34_2 C33_2 1_555 1_555
H20_2 C34_2 1_555 1_555
C35_2 C33_2 1_555 1_555
H21_2 C35_2 1_555 1_555
N6_2 C43_2 1_555 1_555
C43_2 C34_2 1_555 1_555
H29_2 C43_2 1_555 1_555
C44_2 C35_2 1_555 1_555
H30_2 C44_2 1_555 1_555
Co3_2 N6_2 1_555 1_555
N7_2 Co1_5 1_555 1_555
N6_2 C44_2 1_555 1_555
N3_3 C13_3 1_555 1_555
C11_3 C10_3 1_555 1_555
C12_3 C11_3 1_555 1_555
H5_3 C12_3 1_555 1_555
C13_3 C12_3 1_555 1_555
H6_4 C13_3 1_555 1_555
C14_3 N3_3 1_555 1_555
H7_3 C14_3 1_555 1_555
C15_3 C11_3 1_555 1_555
H8_3 C15_3 1_555 1_555
N4_2 Co1_6 1_555 1_555
N5_2 Co1_6 1_555 1_555
C23_3 C10_3 1_555 1_555
C24_3 C23_3 1_555 1_555
H16_4 C24_3 1_555 1_555
C25_3 C24_3 1_555 1_555
H17_3 C25_3 1_555 1_555
C26_2 N4_2 1_555 1_555
C27_2 C26_2 1_555 1_555
C28_2 N5_2 1_555 1_555
C29_2 C28_2 1_555 1_555
H18_2 C29_2 1_555 1_555
C30_2 C29_2 1_555 1_555
H19_2 C30_2 1_555 1_555
C31_2 N5_2 1_555 1_555
C36_3 C27_2 1_555 1_555
C37_3 C36_3 1_555 1_555
H22_2 C37_3 1_555 1_555
C38_3 C37_3 1_555 1_555
H23_3 C38_3 1_555 1_555
C39_3 C38_3 1_555 1_555
C40_3 C39_3 1_555 1_555
H24_3 C40_3 1_555 1_555
C41_3 C36_3 1_555 1_555
H25_3 C41_3 1_555 1_555
C42_3 C39_3 1_555 1_555
H26_3 C42_3 1_555 1_555
H27_3 C42_3 1_555 1_555
H28_3 C42_3 1_555 1_555
Co2_3 N3_3 1_555 1_555
N8_3 Co1_6 1_555 1_555
C14_3 C15_3 1_555 1_555
N4_2 C23_3 1_555 1_555
C25_3 C26_2 1_555 1_555
C27_2 C28_2 1_555 1_555
C30_2 C31_2 1_555 1_555
C40_3 C41_3 1_555 1_555
Co1_7 N1 1_555 1_555
N1 C1_3 1_555 1_555
N2 Co1_7 1_555 1_555
C1_3 C2_3 1_555 1_555
C2_3 H1_3 1_555 1_555
C3 C2_3 1_555 1_555
H2 C3 1_555 1_555
C4 N1 1_555 1_555
C5 C4 1_555 1_555
C6 N2 1_555 1_555
C7 C6 1_555 1_555
H3 C7 1_555 1_555
C8 C7 1_555 1_555
H4 C8 1_555 1_555
C9 N2 1_555 1_555
C16 C5 1_555 1_555
C17 C16 1_555 1_555
H9 C17 1_555 1_555
C18 C17 1_555 1_555
H10 C18 1_555 1_555
C19 C18 1_555 1_555
C20 C19 1_555 1_555
H11 C20 1_555 1_555
C21 C16 1_555 1_555
H12 C21 1_555 1_555
C22 C19 1_555 1_555
H13 C22 1_555 1_555
H14 C22 1_555 1_555
H15 C22 1_555 1_555
C32_3 C1_3 1_555 1_555
C33_3 C32_3 1_555 1_555
C34_3 C33_3 1_555 1_555
H20_3 C34_3 1_555 1_555
C35_3 C33_3 1_555 1_555
H21_3 C35_3 1_555 1_555
N6_3 C43_3 1_555 1_555
C43_3 C34_3 1_555 1_555
H29_3 C43_3 1_555 1_555
C44_3 C35_3 1_555 1_555
H30_3 C44_3 1_555 1_555
Co3_3 N6_3 1_555 1_555
N7_3 Co1_7 1_555 1_555
C3 C4 1_555 1_555
C5 C6 1_555 1_555
C8 C9 1_555 1_555
C20 C21 1_555 1_555
N6_3 C44_3 1_555 1_555
Co2_2 N1_2 1_555 1_555
N1_2 C1_4 1_555 1_555
N2_2 Co2_2 1_555 1_555
C1_4 C2_4 1_555 1_555
C4_2 N1_2 1_555 1_555
C5_2 C4_2 1_555 1_555
C6_2 N2_2 1_555 1_555
C7_2 C6_2 1_555 1_555
H3_2 C7_2 1_555 1_555
C8_2 C7_2 1_555 1_555
C9_2 N2_2 1_555 1_555
C10_4 C9_2 1_555 1_555
C11_4 C10_4 1_555 1_555
N4_3 Co2_2 1_555 1_555
N5_3 Co2_2 1_555 1_555
C23_4 C10_4 1_555 1_555
C24_4 C23_4 1_555 1_555
H16_5 C24_4 1_555 1_555
C25_4 C24_4 1_555 1_555
H17_4 C25_4 1_555 1_555
C26_3 N4_3 1_555 1_555
C27_3 C26_3 1_555 1_555
C28_3 N5_3 1_555 1_555
C29_3 C28_3 1_555 1_555
H18_3 C29_3 1_555 1_555
C30_3 C29_3 1_555 1_555
H19_3 C30_3 1_555 1_555
C31_3 N5_3 1_555 1_555
C32_4 C1_4 1_555 1_555
C33_4 C32_4 1_555 1_555
C34_4 C33_4 1_555 1_555
H20_4 C34_4 1_555 1_555
C35_4 C33_4 1_555 1_555
H21_4 C35_4 1_555 1_555
C36_4 C27_3 1_555 1_555
C37_4 C36_4 1_555 1_555
H22_3 C37_4 1_555 1_555
C38_4 C37_4 1_555 1_555
H23_4 C38_4 1_555 1_555
C41_4 C36_4 1_555 1_555
H25_4 C41_4 1_555 1_555
N8_3 C43_4 1_555 1_555
C43_4 C34_4 1_555 1_555
C44_4 C35_4 1_555 1_555
H30_4 C44_4 1_555 1_555
N8_4 Co2_2 1_555 1_555
C5_2 C6_2 1_555 1_555
C8_2 C9_2 1_555 1_555
N4_3 C23_4 1_555 1_555
C25_4 C26_3 1_555 1_555
C27_3 C28_3 1_555 1_555
C30_3 C31_3 1_555 1_555
C31_3 C32_4 1_555 1_555
N8_3 C44_4 1_555 1_555
H2_2 C3_2 1_555 1_555
C17_2 C16_2 1_555 1_555
C18_2 C17_2 1_555 1_555
H10_2 C18_2 1_555 1_555
C19_2 C18_2 1_555 1_555
C20_2 C19_2 1_555 1_555
H11_2 C20_2 1_555 1_555
C21_2 C16_2 1_555 1_555
H12_2 C21_2 1_555 1_555
C22_2 C19_2 1_555 1_555
H13_2 C22_2 1_555 1_555
H14_2 C22_2 1_555 1_555
H15_2 C22_2 1_555 1_555
C20_2 C21_2 1_555 1_555
N3_4 C13_4 1_555 1_555
C13_4 C12_4 1_555 1_555
H6_5 C13_4 1_555 1_555
C14_4 N3_4 1_555 1_555
H7_4 C14_4 1_555 1_555
H8_4 C15_4 1_555 1_555
Co3 N3_4 1_555 1_555
C14_4 C15_4 1_555 1_555
Co2_3 N1_3 1_555 1_555
N1_3 C1_5 1_555 1_555
N2_3 Co2_3 1_555 1_555
N3_5 C13_5 1_555 1_555
C1_5 C2_5 1_555 1_555
C4_3 N1_3 1_555 1_555
C5_3 C4_3 1_555 1_555
C6_3 N2_3 1_555 1_555
C7_3 C6_3 1_555 1_555
H3_3 C7_3 1_555 1_555
C8_3 C7_3 1_555 1_555
H4_3 C8_3 1_555 1_555
C9_3 N2_3 1_555 1_555
C10_5 C9_3 1_555 1_555
C11_5 C10_5 1_555 1_555
C12_5 C11_5 1_555 1_555
H5_5 C12_5 1_555 1_555
C13_5 C12_5 1_555 1_555
H6_6 C13_5 1_555 1_555
C14_5 N3_5 1_555 1_555
H7_5 C14_5 1_555 1_555
C15_5 C11_5 1_555 1_555
H8_5 C15_5 1_555 1_555
N4_4 Co2_3 1_555 1_555
N5_4 Co2_3 1_555 1_555
C23_5 C10_5 1_555 1_555
C24_5 C23_5 1_555 1_555
H16_6 C24_5 1_555 1_555
C25_5 C24_5 1_555 1_555
H17_5 C25_5 1_555 1_555
C26_4 N4_4 1_555 1_555
C27_4 C26_4 1_555 1_555
C28_4 N5_4 1_555 1_555
C29_4 C28_4 1_555 1_555
H18_4 C29_4 1_555 1_555
C30_4 C29_4 1_555 1_555
H19_4 C30_4 1_555 1_555
C31_4 N5_4 1_555 1_555
C32_5 C1_5 1_555 1_555
C33_5 C32_5 1_555 1_555
C34_5 C33_5 1_555 1_555
H20_5 C34_5 1_555 1_555
C35_5 C33_5 1_555 1_555
H21_5 C35_5 1_555 1_555
C36_5 C27_4 1_555 1_555
C37_5 C36_5 1_555 1_555
H22_4 C37_5 1_555 1_555
C38_5 C37_5 1_555 1_555
H23_5 C38_5 1_555 1_555
C41_5 C36_5 1_555 1_555
H25_5 C41_5 1_555 1_555
N8 C43_5 1_555 1_555
C43_5 C34_5 1_555 1_555
C44_5 C35_5 1_555 1_555
H30_5 C44_5 1_555 1_555
Co3_2 N3_5 1_555 1_555
N8_5 Co2_3 1_555 1_555
C5_3 C6_3 1_555 1_555
C8_3 C9_3 1_555 1_555
C14_5 C15_5 1_555 1_555
N4_4 C23_5 1_555 1_555
C25_5 C26_4 1_555 1_555
C27_4 C28_4 1_555 1_555
C30_4 C31_4 1_555 1_555
C31_4 C32_5 1_555 1_555
N8 C44_5 1_555 1_555
N3_6 C13_6 1_555 1_555
C13_6 C12_6 1_555 1_555
H6_7 C13_6 1_555 1_555
C14_6 N3_6 1_555 1_555
H7_6 C14_6 1_555 1_555
H8_6 C15_6 1_555 1_555
Co3_3 N3_6 1_555 1_555
C14_6 C15_6 1_555 1_555
Co2 N1_4 1_555 1_555
N1_4 C1_6 1_555 1_555
N2_4 Co2 1_555 1_555
C1_6 C2_6 1_555 1_555
C4_4 N1_4 1_555 1_555
C5_4 C4_4 1_555 1_555
C6_4 N2_4 1_555 1_555
C7_4 C6_4 1_555 1_555
H3_4 C7_4 1_555 1_555
C8_4 C7_4 1_555 1_555
C9_4 N2_4 1_555 1_555
C10_6 C9_4 1_555 1_555
C11_6 C10_6 1_555 1_555
N4_5 Co2 1_555 1_555
N5_5 Co2 1_555 1_555
C23_6 C10_6 1_555 1_555
C24_6 C23_6 1_555 1_555
H16_7 C24_6 1_555 1_555
C25_6 C24_6 1_555 1_555
H17_6 C25_6 1_555 1_555
C26_5 N4_5 1_555 1_555
C27_5 C26_5 1_555 1_555
C28_5 N5_5 1_555 1_555
C29_5 C28_5 1_555 1_555
H18_5 C29_5 1_555 1_555
C30_5 C29_5 1_555 1_555
H19_5 C30_5 1_555 1_555
C31_5 N5_5 1_555 1_555
C32_6 C1_6 1_555 1_555
C33_6 C32_6 1_555 1_555
C34_6 C33_6 1_555 1_555
H20_6 C34_6 1_555 1_555
C35_6 C33_6 1_555 1_555
H21_6 C35_6 1_555 1_555
C36_6 C27_5 1_555 1_555
C37_6 C36_6 1_555 1_555
H22_5 C37_6 1_555 1_555
C38_6 C37_6 1_555 1_555
H23_6 C38_6 1_555 1_555
C41_6 C36_6 1_555 1_555
H25_6 C41_6 1_555 1_555
N8_2 C43_6 1_555 1_555
C43_6 C34_6 1_555 1_555
C44_6 C35_6 1_555 1_555
H30_6 C44_6 1_555 1_555
N8_6 Co2 1_555 1_555
C5_4 C6_4 1_555 1_555
C8_4 C9_4 1_555 1_555
N4_5 C23_6 1_555 1_555
C25_6 C26_5 1_555 1_555
C27_5 C28_5 1_555 1_555
C30_5 C31_5 1_555 1_555
C31_5 C32_6 1_555 1_555
N8_2 C44_6 1_555 1_555
H21_7 C35_7 1_555 1_555
N8_6 C43_7 1_555 1_555
C43_7 C34_7 1_555 1_555
H29_5 C43_7 1_555 1_555
C44_7 C35_7 1_555 1_555
H30_7 C44_7 1_555 1_555
N8_6 C44_7 1_555 1_555
H17_7 C25_7 1_555 1_555
C37_7 C36_7 1_555 1_555
C38_7 C37_7 1_555 1_555
H23_7 C38_7 1_555 1_555
C39_4 C38_7 1_555 1_555
C40_4 C39_4 1_555 1_555
H24_4 C40_4 1_555 1_555
C41_7 C36_7 1_555 1_555
H25_7 C41_7 1_555 1_555
C42_4 C39_4 1_555 1_555
H26_4 C42_4 1_555 1_555
H27_4 C42_4 1_555 1_555
H28_4 C42_4 1_555 1_555
C40_4 C41_7 1_555 1_555
Co3_2 N1_5 1_555 1_555
N1_5 C1_7 1_555 1_555
N2_5 Co3_2 1_555 1_555
N7_3 C13_7 1_555 1_555
C1_7 C2_7 1_555 1_555
C2_7 H1_5 1_555 1_555
C3_3 C2_7 1_555 1_555
H2_3 C3_3 1_555 1_555
C4_5 N1_5 1_555 1_555
C5_5 C4_5 1_555 1_555
C6_5 N2_5 1_555 1_555
C7_5 C6_5 1_555 1_555
H3_5 C7_5 1_555 1_555
C8_5 C7_5 1_555 1_555
H4_5 C8_5 1_555 1_555
C9_5 N2_5 1_555 1_555
C10_7 C9_5 1_555 1_555
C11_7 C10_7 1_555 1_555
C12_7 C11_7 1_555 1_555
H5_7 C12_7 1_555 1_555
C13_7 C12_7 1_555 1_555
C14_7 N7_3 1_555 1_555
H7_7 C14_7 1_555 1_555
C15_7 C11_7 1_555 1_555
H8_7 C15_7 1_555 1_555
C16_3 C5_5 1_555 1_555
C17_3 C16_3 1_555 1_555
H9_5 C17_3 1_555 1_555
C18_3 C17_3 1_555 1_555
H10_3 C18_3 1_555 1_555
C21_3 C16_3 1_555 1_555
H12_3 C21_3 1_555 1_555
N4_6 Co3_2 1_555 1_555
N5_6 Co3_2 1_555 1_555
C23_7 C10_7 1_555 1_555
C24_7 C23_7 1_555 1_555
C26_6 N4_6 1_555 1_555
C27_6 C26_6 1_555 1_555
C28_6 N5_6 1_555 1_555
C29_6 C28_6 1_555 1_555
H18_6 C29_6 1_555 1_555
C30_6 C29_6 1_555 1_555
C31_6 N5_6 1_555 1_555
C32_7 C1_7 1_555 1_555
C33_7 C32_7 1_555 1_555
C3_3 C4_5 1_555 1_555
C5_5 C6_5 1_555 1_555
C8_5 C9_5 1_555 1_555
C14_7 C15_7 1_555 1_555
N4_6 C23_7 1_555 1_555
C27_6 C28_6 1_555 1_555
C30_6 C31_6 1_555 1_555
C31_6 C32_7 1_555 1_555
Co3_3 N1_6 1_555 1_555
N1_6 C1_8 1_555 1_555
N2_6 Co3_3 1_555 1_555
N7 C13_8 1_555 1_555
C1_8 C2_8 1_555 1_555
C2_8 H1_6 1_555 1_555
C3_4 C2_8 1_555 1_555
H2_4 C3_4 1_555 1_555
C4_6 N1_6 1_555 1_555
C5_6 C4_6 1_555 1_555
C6_6 N2_6 1_555 1_555
C7_6 C6_6 1_555 1_555
H3_6 C7_6 1_555 1_555
C8_6 C7_6 1_555 1_555
H4_6 C8_6 1_555 1_555
C9_6 N2_6 1_555 1_555
C10_8 C9_6 1_555 1_555
C11_8 C10_8 1_555 1_555
C12_8 C11_8 1_555 1_555
H5_8 C12_8 1_555 1_555
C13_8 C12_8 1_555 1_555
C14_8 N7 1_555 1_555
H7_8 C14_8 1_555 1_555
C15_8 C11_8 1_555 1_555
H8_8 C15_8 1_555 1_555
C16_4 C5_6 1_555 1_555
C17_4 C16_4 1_555 1_555
H9_6 C17_4 1_555 1_555
C18_4 C17_4 1_555 1_555
H10_4 C18_4 1_555 1_555
C21_4 C16_4 1_555 1_555
H12_4 C21_4 1_555 1_555
N4_7 Co3_3 1_555 1_555
N5_7 Co3_3 1_555 1_555
C23_8 C10_8 1_555 1_555
C24_8 C23_8 1_555 1_555
C26_7 N4_7 1_555 1_555
C27_7 C26_7 1_555 1_555
C28_7 N5_7 1_555 1_555
C29_7 C28_7 1_555 1_555
H18_7 C29_7 1_555 1_555
C30_7 C29_7 1_555 1_555
H19_7 C30_7 1_555 1_555
C31_7 N5_7 1_555 1_555
C32_8 C1_8 1_555 1_555
C33_8 C32_8 1_555 1_555
C34_8 C33_8 1_555 1_555
H20_8 C34_8 1_555 1_555
C35_8 C33_8 1_555 1_555
H21_8 C35_8 1_555 1_555
N8_4 C43_8 1_555 1_555
C43_8 C34_8 1_555 1_555
H29_6 C43_8 1_555 1_555
C44_8 C35_8 1_555 1_555
H30_8 C44_8 1_555 1_555
C3_4 C4_6 1_555 1_555
C5_6 C6_6 1_555 1_555
C8_6 C9_6 1_555 1_555
C14_8 C15_8 1_555 1_555
N4_7 C23_8 1_555 1_555
C27_7 C28_7 1_555 1_555
C30_7 C31_7 1_555 1_555
C31_7 C32_8 1_555 1_555
N8_4 C44_8 1_555 1_555
Co3 N1_7 1_555 1_555
N1_7 C1_9 1_555 1_555
N2_7 Co3 1_555 1_555
N7_2 C13_9 1_555 1_555
C1_9 C2_9 1_555 1_555
C2_9 H1_7 1_555 1_555
C3_5 C2_9 1_555 1_555
H2_5 C3_5 1_555 1_555
C4_7 N1_7 1_555 1_555
C5_7 C4_7 1_555 1_555
C6_7 N2_7 1_555 1_555
C7_7 C6_7 1_555 1_555
H3_7 C7_7 1_555 1_555
C8_7 C7_7 1_555 1_555
H4_7 C8_7 1_555 1_555
C9_7 N2_7 1_555 1_555
C10_9 C9_7 1_555 1_555
C11_9 C10_9 1_555 1_555
C12_9 C11_9 1_555 1_555
H5_9 C12_9 1_555 1_555
C13_9 C12_9 1_555 1_555
C14_9 N7_2 1_555 1_555
H7_9 C14_9 1_555 1_555
C15_9 C11_9 1_555 1_555
H8_9 C15_9 1_555 1_555
C16_5 C5_7 1_555 1_555
C17_5 C16_5 1_555 1_555
H9_7 C17_5 1_555 1_555
C18_5 C17_5 1_555 1_555
H10_5 C18_5 1_555 1_555
C21_5 C16_5 1_555 1_555
H12_5 C21_5 1_555 1_555
N4_8 Co3 1_555 1_555
N5_8 Co3 1_555 1_555
C23_9 C10_9 1_555 1_555
C24_9 C23_9 1_555 1_555
C26_8 N4_8 1_555 1_555
C27_8 C26_8 1_555 1_555
C28_8 N5_8 1_555 1_555
C29_8 C28_8 1_555 1_555
H18_8 C29_8 1_555 1_555
C30_8 C29_8 1_555 1_555
C31_8 N5_8 1_555 1_555
C32_9 C1_9 1_555 1_555
C33_9 C32_9 1_555 1_555
C3_5 C4_7 1_555 1_555
C5_7 C6_7 1_555 1_555
C8_7 C9_7 1_555 1_555
C14_9 C15_9 1_555 1_555
N4_8 C23_9 1_555 1_555
C27_8 C28_8 1_555 1_555
C30_8 C31_8 1_555 1_555
C31_8 C32_9 1_555 1_555
H21_9 C35_9 1_555 1_555
N8_5 C43_9 1_555 1_555
C43_9 C34_9 1_555 1_555
H29_7 C43_9 1_555 1_555
C44_9 C35_9 1_555 1_555
H30_9 C44_9 1_555 1_555
N8_5 C44_9 1_555 1_555
Co1_8 N1_8 1_555 1_555
N2_8 Co1_8 1_555 1_555
H2_6 C3_6 1_555 1_555
C4_8 N1_8 1_555 1_555
C5_8 C4_8 1_555 1_555
C6_8 N2_8 1_555 1_555
C7_8 C6_8 1_555 1_555
H3_8 C7_8 1_555 1_555
C8_8 C7_8 1_555 1_555
H4_8 C8_8 1_555 1_555
C9_8 N2_8 1_555 1_555
C16_6 C5_8 1_555 1_555
C17_6 C16_6 1_555 1_555
H9_8 C17_6 1_555 1_555
C18_6 C17_6 1_555 1_555
H10_6 C18_6 1_555 1_555
C19_3 C18_6 1_555 1_555
C20_3 C19_3 1_555 1_555
H11_3 C20_3 1_555 1_555
C21_6 C16_6 1_555 1_555
H12_6 C21_6 1_555 1_555
C22_3 C19_3 1_555 1_555
H13_3 C22_3 1_555 1_555
H14_3 C22_3 1_555 1_555
H15_3 C22_3 1_555 1_555
C3_6 C4_8 1_555 1_555
C5_8 C6_8 1_555 1_555
C8_8 C9_8 1_555 1_555
C20_3 C21_6 1_555 1_555
H2_7 C3_7 1_555 1_555
C17_7 C16_7 1_555 1_555
C18_7 C17_7 1_555 1_555
H10_7 C18_7 1_555 1_555
C19_4 C18_7 1_555 1_555
C20_4 C19_4 1_555 1_555
H11_4 C20_4 1_555 1_555
C21_7 C16_7 1_555 1_555
H12_7 C21_7 1_555 1_555
C22_4 C19_4 1_555 1_555
H13_4 C22_4 1_555 1_555
H14_4 C22_4 1_555 1_555
H15_4 C22_4 1_555 1_555
C20_4 C21_7 1_555 1_555
Co1_9 N1_9 1_555 1_555
N2_9 Co1_9 1_555 1_555
H2_8 C3_8 1_555 1_555
C4_9 N1_9 1_555 1_555
C5_9 C4_9 1_555 1_555
C6_9 N2_9 1_555 1_555
C7_9 C6_9 1_555 1_555
H3_9 C7_9 1_555 1_555
C8_9 C7_9 1_555 1_555
H4_9 C8_9 1_555 1_555
C9_9 N2_9 1_555 1_555
C16_8 C5_9 1_555 1_555
C17_8 C16_8 1_555 1_555
H9_9 C17_8 1_555 1_555
C18_8 C17_8 1_555 1_555
H10_8 C18_8 1_555 1_555
C19_5 C18_8 1_555 1_555
C20_5 C19_5 1_555 1_555
H11_5 C20_5 1_555 1_555
C21_8 C16_8 1_555 1_555
H12_8 C21_8 1_555 1_555
C22_5 C19_5 1_555 1_555
H13_5 C22_5 1_555 1_555
H14_5 C22_5 1_555 1_555
H15_5 C22_5 1_555 1_555
C3_8 C4_9 1_555 1_555
C5_9 C6_9 1_555 1_555
C8_9 C9_9 1_555 1_555
C20_5 C21_8 1_555 1_555
H2_9 C3_9 1_555 1_555
C17_9 C16_9 1_555 1_555
C18_9 C17_9 1_555 1_555
H10_9 C18_9 1_555 1_555
C19_6 C18_9 1_555 1_555
C20_6 C19_6 1_555 1_555
H11_6 C20_6 1_555 1_555
C21_9 C16_9 1_555 1_555
H12_9 C21_9 1_555 1_555
C22_6 C19_6 1_555 1_555
H13_6 C22_6 1_555 1_555
H14_6 C22_6 1_555 1_555
H15_6 C22_6 1_555 1_555
C20_6 C21_9 1_555 1_555
N4_9 Co1_10 1_555 1_555
N5_9 Co1_10 1_555 1_555
H17_8 C25_8 1_555 1_555
C26_9 N4_9 1_555 1_555
C27_9 C26_9 1_555 1_555
C28_9 N5_9 1_555 1_555
C29_9 C28_9 1_555 1_555
H18_9 C29_9 1_555 1_555
C30_9 C29_9 1_555 1_555
H19_9 C30_9 1_555 1_555
C31_9 N5_9 1_555 1_555
C36_8 C27_9 1_555 1_555
C37_8 C36_8 1_555 1_555
H22_9 C37_8 1_555 1_555
C38_8 C37_8 1_555 1_555
H23_8 C38_8 1_555 1_555
C39_5 C38_8 1_555 1_555
C40_5 C39_5 1_555 1_555
H24_5 C40_5 1_555 1_555
C41_8 C36_8 1_555 1_555
H25_8 C41_8 1_555 1_555
C42_5 C39_5 1_555 1_555
H26_5 C42_5 1_555 1_555
H27_5 C42_5 1_555 1_555
H28_5 C42_5 1_555 1_555
C25_8 C26_9 1_555 1_555
C27_9 C28_9 1_555 1_555
C30_9 C31_9 1_555 1_555
C40_5 C41_8 1_555 1_555
H17_9 C25_9 1_555 1_555
C37_9 C36_9 1_555 1_555
C38_9 C37_9 1_555 1_555
H23_9 C38_9 1_555 1_555
C39_6 C38_9 1_555 1_555
C40_6 C39_6 1_555 1_555
H24_6 C40_6 1_555 1_555
C41_9 C36_9 1_555 1_555
H25_9 C41_9 1_555 1_555
C42_6 C39_6 1_555 1_555
H26_6 C42_6 1_555 1_555
H27_6 C42_6 1_555 1_555
H28_6 C42_6 1_555 1_555
C40_6 C41_9 1_555 1_555
C40_7 C39_7 1_555 1_555
H24_7 C40_7 1_555 1_555
C42_7 C39_7 1_555 1_555
H26_7 C42_7 1_555 1_555
H27_7 C42_7 1_555 1_555
H28_7 C42_7 1_555 1_555
C40_8 C39_8 1_555 1_555
H24_8 C40_8 1_555 1_555
C42_8 C39_8 1_555 1_555
H26_8 C42_8 1_555 1_555
H27_8 C42_8 1_555 1_555
H28_8 C42_8 1_555 1_555
C40_9 C39_9 1_555 1_555
H24_9 C40_9 1_555 1_555
C42_9 C39_9 1_555 1_555
H26_9 C42_9 1_555 1_555
H27_9 C42_9 1_555 1_555
H28_9 C42_9 1_555 1_555
C20_7 C19_7 1_555 1_555
H11_7 C20_7 1_555 1_555
C22_7 C19_7 1_555 1_555
H13_7 C22_7 1_555 1_555
H14_7 C22_7 1_555 1_555
H15_7 C22_7 1_555 1_555
C20_8 C19_8 1_555 1_555
H11_8 C20_8 1_555 1_555
C22_8 C19_8 1_555 1_555
H13_8 C22_8 1_555 1_555
H14_8 C22_8 1_555 1_555
H15_8 C22_8 1_555 1_555
C20_9 C19_9 1_555 1_555
H11_9 C20_9 1_555 1_555
C22_9 C19_9 1_555 1_555
H13_9 C22_9 1_555 1_555
H14_9 C22_9 1_555 1_555
H15_9 C22_9 1_555 1_555

#END
