
###############################################################################
#
# This file contains modified crystal structure data generated from the
# MOF subset of the Cambridge Structural Database (CSD) v543 
# hosted by the Cambridge Crystallographic Data Centre (CCDC).
#
# This work is licensed under the Creative Commons
# Attribution-NonCommercial-ShareAlike 4.0 International License.
# To view a copy of this license, visit
# http://creativecommons.org/licenses/by-nc-sa/4.0/
# or send a letter to
# Creative Commons, PO Box 1866, Mountain View, CA 94042, USA.
#
# CIF created using the CSD Python API on 29 September 2022
# The structure has been converted into the P1 space group
# The structure has a 3D framework
# The original CSD entry KUBQAA is in the monoclinic crystal system
# The framework has been calculated to contain at least 10.0% void space
# The void calculation uses a probe of radius 1.32A, grid spacing 0.4
# The framework is charged, counterions have been retained in the structure
#
###############################################################################

data_KUBQAA
_chemical_formula_moiety         '(C448 H352 B16 Cu16 F64 N48 P16)n'
_symmetry_cell_setting           triclinic
_symmetry_space_group_name_H-M   'P 1'
_symmetry_Int_Tables_number      1
_space_group_name_Hall           'P 1'
loop_
_symmetry_equiv_pos_site_id
_symmetry_equiv_pos_as_xyz
1 x,y,z
_cell_length_a                   20.6349(2)
_cell_length_b                   47.1890(8)
_cell_length_c                   17.9398(2)
_cell_angle_alpha                90
_cell_angle_beta                 118.8911(8)
_cell_angle_gamma                90
_cell_volume                     15294.5
loop_
_atom_site_label
_atom_site_type_symbol
_atom_site_fract_x
_atom_site_fract_y
_atom_site_fract_z
Cu1 Cu 0.40429(6) 0.56996(2) 0.01596(6)
P1 P 0.49522(13) 0.60056(5) 0.07008(14)
N1 N 0.3915(4) 0.54034(17) 0.0911(5)
N2 N 0.3933(5) 0.45308(17) 0.4119(5)
C1 C 0.4337(6) 0.5172(2) 0.1196(6)
H1 H 0.4679 0.5135 0.0997
C2 C 0.4303(6) 0.4983(2) 0.1767(6)
H2 H 0.4612 0.4820 0.1938
C3 C 0.3835(5) 0.50282(19) 0.2082(6)
C4 C 0.3351(6) 0.5261(2) 0.1755(7)
H3 H 0.2980 0.5289 0.1916
C5 C 0.3411(6) 0.5446(2) 0.1205(7)
H4 H 0.3100 0.5609 0.1020
C6 C 0.4088(8) 0.4426(2) 0.3562(7)
H5 H 0.4254 0.4235 0.3641
C7 C 0.4036(9) 0.4562(2) 0.2879(8)
H6 H 0.4132 0.4463 0.2481
C8 C 0.3840(5) 0.48499(19) 0.2749(6)
C9 C 0.3662(8) 0.4958(2) 0.3357(8)
H7 H 0.3499 0.5149 0.3313
C10 C 0.3721(9) 0.4795(2) 0.4002(8)
H8 H 0.3601 0.4879 0.4401
H9 H 0.3340 0.6263 0.0260
C65 C 0.5914(5) 0.5896(2) 0.1203(6)
C66 C 0.6065(7) 0.5607(3) 0.1193(8)
H49 H 0.5672 0.5474 0.0929
C67 C 0.6809(11) 0.5515(5) 0.1578(12)
H50 H 0.6934 0.5320 0.1600
C68 C 0.7374(9) 0.5733(7) 0.1938(12)
H51 H 0.7880 0.5680 0.2185
C69 C 0.7208(7) 0.5998(4) 0.1932(10)
H52 H 0.7594 0.6135 0.2182
C70 C 0.6485(7) 0.6085(3) 0.1572(7)
H53 H 0.6379 0.6281 0.1578
C71 C 0.4920(6) 0.6263(2) 0.1441(6)
C72 C 0.4849(8) 0.6162(3) 0.2117(8)
H54 H 0.4812 0.5962 0.2155
C73 C 0.4826(12) 0.6320(4) 0.2730(11)
H55 H 0.4762 0.6241 0.3177
C74 C 0.4904(13) 0.6614(5) 0.2648(16)
H56 H 0.4952 0.6735 0.3096
C75 C 0.4915(14) 0.6729(3) 0.1994(13)
H57 H 0.4854 0.6928 0.1899
C76 C 0.5023(10) 0.6542(2) 0.1409(9)
H58 H 0.5163 0.6617 0.1017
C79 C 0.7171(12) 0.6626(5) 0.0036(13)
H60 H 0.7554 0.6549 0.0550
Cu5 Cu 0.40429(6) 0.43004(2) 0.51596(6)
Cu3 Cu 0.40606(6) 0.68518(2) 0.79663(7)
P2 P 0.49547(13) 0.65375(5) 0.84678(15)
N3 N 0.3023(5) 0.58997(18) 0.9638(5)
N7 N 0.3024(5) 0.66555(19) 0.7557(6)
C11 C 0.2915(6) 0.6161(3) 0.9869(8)
C12 C 0.2251(7) 0.6286(3) 0.9589(9)
H10 H 0.2223 0.6470 0.9789
C13 C 0.1613(6) 0.6151(2) 0.9014(6)
C14 C 0.1697(6) 0.5874(2) 0.8807(8)
H11 H 0.1276 0.5764 0.8446
C15 C 0.2404(6) 0.5761(2) 0.9133(7)
H12 H 0.2447 0.5571 0.8984
C16 C 0.0095(7) 0.6690(2) 0.8236(8)
H13 H 0.0048 0.6889 0.8136
C17 C 0.0790(6) 0.6568(2) 0.8531(8)
H14 H 0.1206 0.6682 0.8632
C18 C 0.0864(6) 0.6282(2) 0.8672(7)
C19 C 0.0231(6) 0.6128(3) 0.8520(8)
H15 H 0.0262 0.5930 0.8622
C31 C 0.2986(6) 0.6386(2) 0.7759(7)
H25 H 0.3435 0.6291 0.8125
C32 C 0.2341(6) 0.6241(3) 0.7469(7)
H26 H 0.2348 0.6045 0.7596
C33 C 0.1670(5) 0.6379(2) 0.6986(6)
C34 C 0.1728(7) 0.6668(3) 0.6868(10)
H27 H 0.1291 0.6779 0.6602
C35 C 0.2393(7) 0.6793(3) 0.7125(10)
H28 H 0.2406 0.6987 0.6989
C36 C 0.0261(6) 0.5808(2) 0.6206(7)
H29 H 0.0258 0.5609 0.6121
C37 C 0.0914(6) 0.5948(2) 0.6532(7)
H30 H 0.1355 0.5845 0.6677
C38 C 0.0951(5) 0.6229(2) 0.6653(6)
C39 C 0.0307(5) 0.6374(2) 0.6453(7)
H31 H 0.0305 0.6573 0.6524
H37 H 0.0034 0.7936 0.4770
C61 C 0.4937(5) 0.6225(2) 0.9894(6)
C62 C 0.4949(5) 0.63381(19) 0.9295(6)
C77 C 0.5922(6) 0.6653(2) 0.8969(7)
C78 C 0.6462(6) 0.6518(4) 0.9694(10)
H59 H 0.6349 0.6361 0.9941
C80 C 0.7328(9) 0.6847(5) 0.9634(14)
H61 H 0.7828 0.6903 0.9842
C81 C 0.6808(11) 0.6978(4) 0.8979(13)
H62 H 0.6906 0.7146 0.8758
C82 C 0.6108(8) 0.6862(4) 0.8624(11)
H63 H 0.5738 0.6937 0.8099
C83 C 0.4896(6) 0.6268(2) 0.7723(7)
C84 C 0.5435(8) 0.6056(3) 0.7896(9)
H64 H 0.5867 0.6045 0.8437
C85 C 0.5319(9) 0.5866(3) 0.7261(11)
H65 H 0.5705 0.5737 0.7355
C86 C 0.4687(11) 0.5854(3) 0.6514(10)
H66 H 0.4635 0.5715 0.6104
C87 C 0.4114(8) 0.6041(3) 0.6333(8)
H67 H 0.3665 0.6028 0.5810
C88 C 0.4205(9) 0.6248(3) 0.6932(7)
H68 H 0.3813 0.6376 0.6820
N13 N 0.3933(5) 0.54692(17) 0.9119(5)
N14 N 0.3926(4) 0.71020(15) 0.6966(5)
N15 N 0.4058(6) 0.7153(2) 0.8804(5)
N6 N 0.8926(4) 0.78980(15) 0.1966(5)
C22 C 0.9251(6) 0.7153(2) 0.0067(6)
H18 H 0.9615 0.7108 0.0633
C26 C 0.9378(7) 0.7690(2) 0.2105(6)
H21 H 0.9749 0.7652 0.2673
C27 C 0.9341(6) 0.7517(2) 0.1443(7)
H22 H 0.9668 0.7360 0.1577
C28 C 0.8854(5) 0.75713(18) 0.0633(5)
C29 C 0.8392(6) 0.7794(2) 0.0483(7)
C30 C 0.8424(6) 0.7953(2) 0.1142(6)
H24 H 0.8086 0.8105 0.1018
Cu6 Cu 0.90606(6) 0.81482(2) 0.29663(7)
Cu2 Cu 0.84775(6) 0.67556(2) 0.76306(6)
Cu4 Cu 0.86219(6) 0.57173(2) 0.54193(7)
P3 P 0.75487(13) 0.64605(5) 0.71453(15)
P4 P 0.76262(13) 0.59841(5) 0.48731(14)
N4 N 0.9480(5) 0.65415(19) 0.8083(6)
N5 N 0.8675(4) 0.70311(16) 0.8599(5)
N8 N 0.9601(4) 0.59419(17) 0.5993(5)
N9 N 0.8551(5) 0.70173(17) 0.6749(5)
N10 N 0.9058(6) 0.7847(2) 0.3804(5)
N11 N 0.8754(5) 0.54495(18) 0.4586(5)
N12 N 0.8655(5) 0.45475(19) 0.1344(5)
C20 C 0.9578(7) 0.6265(3) 0.8228(8)
H16 H 0.9156 0.6154 0.8119
C21 C 0.9174(6) 0.6984(2) 0.9407(7)
H17 H 0.9493 0.6825 0.9533
C23 C 0.8807(5) 0.73874(19) 0.9918(6)
C24 C 0.8292(5) 0.7441(2) 0.9089(6)
H19 H 0.7968 0.7599 0.8950
C25 C 0.8253(6) 0.7262(2) 0.8459(6)
H20 H 0.7902 0.7306 0.7886
H23 H 0.8041 0.7841 0.9914
C40 C 0.9660(6) 0.6215(2) 0.6141(6)
H32 H 0.9220 0.6314 0.6024
C41 C 0.8915(7) 0.7255(3) 0.6958(8)
H33 H 0.9100 0.7319 0.7527
C42 C 0.9054(7) 0.7419(3) 0.6420(7)
H34 H 0.9326 0.7591 0.6617
C43 C 0.8790(7) 0.7332(2) 0.5581(7)
C44 C 0.8413(8) 0.7077(3) 0.5363(7)
H35 H 0.8230 0.7004 0.4803
C45 C 0.8303(9) 0.6930(3) 0.5943(7)
H36 H 0.8037 0.6757 0.5771
C46 C 0.9592(7) 0.7831(3) 0.4604(9)
C47 C 0.9531(9) 0.7665(3) 0.5225(9)
H38 H 0.9914 0.7661 0.5801
C48 C 0.8889(6) 0.7507(2) 0.4958(6)
C49 C 0.8441(11) 0.7493(4) 0.4140(9)
H39 H 0.8042 0.7362 0.3923
C50 C 0.8544(9) 0.7668(3) 0.3591(7)
H40 H 0.8199 0.7652 0.3001
C51 C 0.9147(8) 0.5505(3) 0.4232(8)
H41 H 0.9455 0.5668 0.4423
C52 C 0.9159(7) 0.5343(3) 0.3579(8)
H42 H 0.9439 0.5403 0.3315
C53 C 0.8738(7) 0.5084(2) 0.3320(8)
C54 C 0.8325(12) 0.5031(3) 0.3722(13)
H43 H 0.8034 0.4864 0.3594
C55 C 0.8339(10) 0.5221(3) 0.4306(11)
H44 H 0.8015 0.5184 0.4532
C56 C 0.8071(7) 0.4592(3) 0.1469(8)
H45 H 0.7614 0.4504 0.1089
C57 C 0.8094(7) 0.4756(3) 0.2115(9)
H46 H 0.7668 0.4772 0.2185
C58 C 0.8722(7) 0.4896(2) 0.2650(7)
C59 C 0.9312(7) 0.4873(4) 0.2514(8)
H47 H 0.9750 0.4980 0.2846
C60 C 0.9267(7) 0.4695(3) 0.1895(9)
H48 H 0.9700 0.4672 0.1843
C63 C 0.7531(5) 0.6256(2) 0.6295(6)
C64 C 0.7540(5) 0.61560(19) 0.5712(6)
C89 C 0.6583(6) 0.6588(2) 0.6649(7)
C90 C 0.6467(8) 0.6875(3) 0.6723(12)
H69 H 0.6869 0.6999 0.7049
C91 C 0.5729(12) 0.6977(4) 0.6298(13)
H70 H 0.5643 0.7174 0.6312
C92 C 0.5140(9) 0.6803(4) 0.5871(13)
H71 H 0.4648 0.6874 0.5576
C93 C 0.5291(8) 0.6522(4) 0.5887(11)
H72 H 0.4888 0.6394 0.5626
C94 C 0.5975(7) 0.6419(3) 0.6251(10)
H73 H 0.6043 0.6221 0.6232
C95 C 0.7607(6) 0.6185(2) 0.7891(6)
C96 C 0.7313(8) 0.5915(2) 0.7680(10)
H74 H 0.7051 0.5862 0.7097
C97 C 0.7385(9) 0.5727(3) 0.8260(11)
H75 H 0.7210 0.5539 0.8095
C98 C 0.7702(10) 0.5801(4) 0.9081(13)
H76 H 0.7741 0.5668 0.9498
C99 C 0.7953(11) 0.6052(4) 0.9300(13)
H77 H 0.8152 0.6103 0.9883
C100 C 0.7952(9) 0.6258(3) 0.8735(8)
H78 H 0.8178 0.6438 0.8927
C101 C 0.7577(6) 0.6280(2) 0.4198(6)
C102 C 0.8145(8) 0.6325(3) 0.4022(8)
H79 H 0.8549 0.6196 0.4260
C103 C 0.8177(12) 0.6530(4) 0.3555(11)
H80 H 0.8581 0.6543 0.3441
C104 C 0.7634(18) 0.6720(6) 0.3240(11)
H81 H 0.7677 0.6879 0.2940
C105 C 0.7024(13) 0.6695(3) 0.3332(10)
H82 H 0.6631 0.6828 0.3065
C106 C 0.6969(8) 0.6462(3) 0.3847(9)
H83 H 0.6553 0.6438 0.3933
C107 C 0.6736(6) 0.5804(2) 0.4285(6)
C108 C 0.6573(8) 0.5651(3) 0.3566(7)
H84 H 0.6920 0.5666 0.3363
C109 C 0.6006(9) 0.5487(4) 0.3124(8)
H85 H 0.5945 0.5378 0.2650
C110 C 0.5475(11) 0.5492(4) 0.3444(11)
H86 H 0.5022 0.5393 0.3126
C111 C 0.5578(8) 0.5622(4) 0.4131(9)
H87 H 0.5236 0.5605 0.4340
C112 C 0.6236(7) 0.5793(4) 0.4563(9)
H88 H 0.6317 0.5900 0.5049
Cu8 Cu 0.86219(6) 0.42827(2) 0.04193(7)
N16 N 0.8655(5) 0.54525(19) 0.6344(5)
Cu3_2 Cu 0.40606(6) 0.31482(2) 0.29663(7)
P1_2 P 0.49522(13) 0.39944(5) 0.57008(14)
P2_2 P 0.49547(13) 0.34625(5) 0.34678(15)
N1_2 N 0.3915(4) 0.45966(17) 0.5911(5)
N3_2 N 0.3023(5) 0.41003(18) 0.4638(5)
N7_2 N 0.3024(5) 0.33445(19) 0.2557(6)
C1_2 C 0.4337(6) 0.4828(2) 0.6196(6)
H1_2 H 0.4679 0.4865 0.5997
C2_2 C 0.4303(6) 0.5017(2) 0.6767(6)
H2_2 H 0.4612 0.5180 0.6938
C3_2 C 0.3835(5) 0.49718(19) 0.7082(6)
C4_2 C 0.3351(6) 0.4739(2) 0.6755(7)
H3_2 H 0.2980 0.4711 0.6916
C5_2 C 0.3411(6) 0.4554(2) 0.6205(7)
H4_2 H 0.3100 0.4391 0.6020
C6_2 C 0.4088(8) 0.5574(2) 0.8562(7)
H5_2 H 0.4254 0.5765 0.8641
C7_2 C 0.4036(9) 0.5438(2) 0.7879(8)
H6_2 H 0.4132 0.5537 0.7481
C8_2 C 0.3840(5) 0.51501(19) 0.7749(6)
C9_2 C 0.3662(8) 0.5042(2) 0.8357(8)
H7_2 H 0.3499 0.4851 0.8313
C10_2 C 0.3721(9) 0.5205(2) 0.9002(8)
H8_2 H 0.3601 0.5121 0.9401
C11_2 C 0.2915(6) 0.3839(3) 0.4869(8)
H9_2 H 0.3340 0.3737 0.5260
C12_2 C 0.2251(7) 0.3714(3) 0.4589(9)
H10_2 H 0.2223 0.3530 0.4789
C13_2 C 0.1613(6) 0.3849(2) 0.4014(6)
C14_2 C 0.1697(6) 0.4126(2) 0.3807(8)
H11_2 H 0.1276 0.4236 0.3446
C15_2 C 0.2404(6) 0.4239(2) 0.4133(7)
H12_2 H 0.2447 0.4429 0.3984
C16_2 C 0.0095(7) 0.3310(2) 0.3236(8)
H13_2 H 0.0048 0.3111 0.3136
C17_2 C 0.0790(6) 0.3432(2) 0.3531(8)
H14_2 H 0.1206 0.3318 0.3632
C18_2 C 0.0864(6) 0.3718(2) 0.3672(7)
C19_2 C 0.0231(6) 0.3872(3) 0.3520(8)
H15_2 H 0.0262 0.4070 0.3622
C31_2 C 0.2986(6) 0.3614(2) 0.2759(7)
H25_2 H 0.3435 0.3709 0.3125
C32_2 C 0.2341(6) 0.3759(3) 0.2469(7)
H26_2 H 0.2348 0.3955 0.2596
C33_2 C 0.1670(5) 0.3621(2) 0.1986(6)
C34_2 C 0.1728(7) 0.3332(3) 0.1868(10)
H27_2 H 0.1291 0.3221 0.1602
C35_2 C 0.2393(7) 0.3207(3) 0.2125(10)
H28_2 H 0.2406 0.3013 0.1989
C36_2 C 0.0261(6) 0.4192(2) 0.1206(7)
H29_2 H 0.0258 0.4391 0.1121
C37_2 C 0.0914(6) 0.4052(2) 0.1532(7)
H30_2 H 0.1355 0.4155 0.1677
C38_2 C 0.0951(5) 0.3771(2) 0.1653(6)
C39_2 C 0.0307(5) 0.3626(2) 0.1453(7)
H31_2 H 0.0305 0.3427 0.1524
C61_2 C 0.4937(5) 0.3775(2) 0.4894(6)
C62_2 C 0.4949(5) 0.36619(19) 0.4295(6)
C65_2 C 0.5914(5) 0.4104(2) 0.6203(6)
C66_2 C 0.6065(7) 0.4393(3) 0.6193(8)
H49_2 H 0.5672 0.4526 0.5929
C67_2 C 0.6809(11) 0.4485(5) 0.6578(12)
H50_2 H 0.6934 0.4680 0.6600
C68_2 C 0.7374(9) 0.4267(7) 0.6938(12)
H51_2 H 0.7880 0.4320 0.7185
C69_2 C 0.7208(7) 0.4002(4) 0.6932(10)
H52_2 H 0.7594 0.3865 0.7182
C70_2 C 0.6485(7) 0.3915(3) 0.6572(7)
H53_2 H 0.6379 0.3719 0.6578
C71_2 C 0.4920(6) 0.3737(2) 0.6441(6)
C72_2 C 0.4849(8) 0.3838(3) 0.7117(8)
H54_2 H 0.4812 0.4038 0.7155
C73_2 C 0.4826(12) 0.3680(4) 0.7730(11)
H55_2 H 0.4762 0.3759 0.8177
C74_2 C 0.4904(13) 0.3386(5) 0.7648(16)
H56_2 H 0.4952 0.3265 0.8096
C75_2 C 0.4915(14) 0.3271(3) 0.6994(13)
H57_2 H 0.4854 0.3072 0.6899
C76_2 C 0.5023(10) 0.3458(2) 0.6409(9)
H58_2 H 0.5163 0.3383 0.6017
C77_2 C 0.5922(6) 0.3347(2) 0.3969(7)
C78_2 C 0.6462(6) 0.3482(4) 0.4694(10)
H59_2 H 0.6349 0.3639 0.4941
C79_2 C 0.7171(12) 0.3374(5) 0.5036(13)
H60_2 H 0.7554 0.3451 0.5550
C80_2 C 0.7328(9) 0.3153(5) 0.4634(14)
H61_2 H 0.7828 0.3097 0.4842
C81_2 C 0.6808(11) 0.3022(4) 0.3979(13)
H62_2 H 0.6906 0.2854 0.3758
C82_2 C 0.6108(8) 0.3138(4) 0.3624(11)
H63_2 H 0.5738 0.3063 0.3099
C83_2 C 0.4896(6) 0.3732(2) 0.2723(7)
C84_2 C 0.5435(8) 0.3944(3) 0.2896(9)
H64_2 H 0.5867 0.3955 0.3437
C85_2 C 0.5319(9) 0.4134(3) 0.2261(11)
H65_2 H 0.5705 0.4263 0.2355
C86_2 C 0.4687(11) 0.4146(3) 0.1514(10)
H66_2 H 0.4635 0.4285 0.1104
C87_2 C 0.4114(8) 0.3959(3) 0.1333(8)
H67_2 H 0.3665 0.3972 0.0810
C88_2 C 0.4205(9) 0.3752(3) 0.1932(7)
H68_2 H 0.3813 0.3624 0.1820
N14_2 N 0.3926(4) 0.28980(15) 0.1966(5)
N15_2 N 0.4058(6) 0.2847(2) 0.3804(5)
Cu2_2 Cu 0.84775(6) 0.32444(2) 0.26306(6)
P3_2 P 0.75487(13) 0.35395(5) 0.21453(15)
N4_2 N 0.9480(5) 0.34585(19) 0.3083(6)
N5_2 N 0.8675(4) 0.29689(16) 0.3599(5)
N6_2 N 0.8926(4) 0.21020(15) 0.6966(5)
N8_2 N 0.9601(4) 0.40581(17) 0.0993(5)
N9_2 N 0.8551(5) 0.29827(17) 0.1749(5)
C20_2 C 0.9578(7) 0.3735(3) 0.3228(8)
H16_2 H 0.9156 0.3846 0.3119
C21_2 C 0.9174(6) 0.3016(2) 0.4407(7)
H17_2 H 0.9493 0.3175 0.4533
C22_2 C 0.9251(6) 0.2847(2) 0.5067(6)
H18_2 H 0.9615 0.2892 0.5633
C23_2 C 0.8807(5) 0.26126(19) 0.4918(6)
C24_2 C 0.8292(5) 0.2559(2) 0.4089(6)
H19_2 H 0.7968 0.2401 0.3950
C25_2 C 0.8253(6) 0.2738(2) 0.3459(6)
H20_2 H 0.7902 0.2694 0.2886
C26_2 C 0.9378(7) 0.2310(2) 0.7105(6)
H21_2 H 0.9749 0.2348 0.7673
C27_2 C 0.9341(6) 0.2483(2) 0.6443(7)
H22_2 H 0.9668 0.2640 0.6577
C28_2 C 0.8854(5) 0.24287(18) 0.5633(5)
C29_2 C 0.8392(6) 0.2206(2) 0.5483(7)
H23_2 H 0.8041 0.2159 0.4914
C30_2 C 0.8424(6) 0.2047(2) 0.6142(6)
H24_2 H 0.8086 0.1895 0.6018
C40_2 C 0.9660(6) 0.3785(2) 0.1141(6)
H32_2 H 0.9220 0.3686 0.1024
C41_2 C 0.8915(7) 0.2745(3) 0.1958(8)
H33_2 H 0.9100 0.2681 0.2527
C42_2 C 0.9054(7) 0.2581(3) 0.1420(7)
H34_2 H 0.9326 0.2409 0.1617
C43_2 C 0.8790(7) 0.2668(2) 0.0581(7)
C44_2 C 0.8413(8) 0.2923(3) 0.0363(7)
C45_2 C 0.8303(9) 0.3070(3) 0.0943(7)
H36_2 H 0.8037 0.3243 0.0771
C47_2 C 0.9531(9) 0.2335(3) 0.0225(9)
H38_2 H 0.9914 0.2339 0.0801
C63_2 C 0.7531(5) 0.3744(2) 0.1295(6)
C64_2 C 0.7540(5) 0.38440(19) 0.0712(6)
C89_2 C 0.6583(6) 0.3412(2) 0.1649(7)
C90_2 C 0.6467(8) 0.3125(3) 0.1723(12)
H69_2 H 0.6869 0.3001 0.2049
C91_2 C 0.5729(12) 0.3023(4) 0.1298(13)
H70_2 H 0.5643 0.2826 0.1312
C92_2 C 0.5140(9) 0.3197(4) 0.0871(13)
H71_2 H 0.4648 0.3126 0.0576
C93_2 C 0.5291(8) 0.3478(4) 0.0887(11)
H72_2 H 0.4888 0.3606 0.0626
C94_2 C 0.5975(7) 0.3581(3) 0.1251(10)
H73_2 H 0.6043 0.3779 0.1232
C95_2 C 0.7607(6) 0.3815(2) 0.2891(6)
C96_2 C 0.7313(8) 0.4085(2) 0.2680(10)
H74_2 H 0.7051 0.4138 0.2097
C97_2 C 0.7385(9) 0.4273(3) 0.3260(11)
H75_2 H 0.7210 0.4461 0.3095
C98_2 C 0.7702(10) 0.4199(4) 0.4081(13)
H76_2 H 0.7741 0.4332 0.4498
C99_2 C 0.7953(11) 0.3948(4) 0.4300(13)
H77_2 H 0.8152 0.3897 0.4883
C100_2 C 0.7952(9) 0.3742(3) 0.3735(8)
H78_2 H 0.8178 0.3562 0.3927
H88_2 H 0.6317 0.4100 0.0049
Cu6_2 Cu 0.90606(6) 0.18518(2) 0.79663(7)
P4_2 P 0.76262(13) 0.40159(5) 0.98731(14)
N10_2 N 0.9058(6) 0.2153(2) 0.8804(5)
N11_2 N 0.8754(5) 0.45505(18) 0.9586(5)
H35_2 H 0.8230 0.2996 0.9803
C46_2 C 0.9592(7) 0.2169(3) 0.9604(9)
C48_2 C 0.8889(6) 0.2493(2) 0.9958(6)
C49_2 C 0.8441(11) 0.2507(4) 0.9140(9)
H39_2 H 0.8042 0.2638 0.8923
C50_2 C 0.8544(9) 0.2332(3) 0.8591(7)
H40_2 H 0.8199 0.2348 0.8001
C51_2 C 0.9147(8) 0.4495(3) 0.9232(8)
H41_2 H 0.9455 0.4332 0.9423
C52_2 C 0.9159(7) 0.4657(3) 0.8579(8)
H42_2 H 0.9439 0.4597 0.8315
C53_2 C 0.8738(7) 0.4916(2) 0.8320(8)
C54_2 C 0.8325(12) 0.4969(3) 0.8722(13)
H43_2 H 0.8034 0.5136 0.8594
C55_2 C 0.8339(10) 0.4779(3) 0.9306(11)
H44_2 H 0.8015 0.4816 0.9532
C56_2 C 0.8071(7) 0.5408(3) 0.6469(8)
H45_2 H 0.7614 0.5496 0.6089
C57_2 C 0.8094(7) 0.5244(3) 0.7115(9)
H46_2 H 0.7668 0.5228 0.7185
C58_2 C 0.8722(7) 0.5104(2) 0.7650(7)
C59_2 C 0.9312(7) 0.5127(4) 0.7514(8)
H47_2 H 0.9750 0.5020 0.7846
C60_2 C 0.9267(7) 0.5305(3) 0.6895(9)
H48_2 H 0.9700 0.5328 0.6843
C101_2 C 0.7577(6) 0.3720(2) 0.9198(6)
C102_2 C 0.8145(8) 0.3675(3) 0.9022(8)
H79_2 H 0.8549 0.3804 0.9260
C103_2 C 0.8177(12) 0.3470(4) 0.8555(11)
H80_2 H 0.8581 0.3457 0.8441
C104_2 C 0.7634(18) 0.3280(6) 0.8240(11)
H81_2 H 0.7677 0.3121 0.7940
C105_2 C 0.7024(13) 0.3305(3) 0.8332(10)
H82_2 H 0.6631 0.3172 0.8065
C106_2 C 0.6969(8) 0.3538(3) 0.8847(9)
H83_2 H 0.6553 0.3562 0.8933
C107_2 C 0.6736(6) 0.4196(2) 0.9285(6)
C108_2 C 0.6573(8) 0.4349(3) 0.8566(7)
H84_2 H 0.6920 0.4334 0.8363
C109_2 C 0.6006(9) 0.4513(4) 0.8124(8)
H85_2 H 0.5945 0.4622 0.7650
C110_2 C 0.5475(11) 0.4508(4) 0.8444(11)
H86_2 H 0.5022 0.4607 0.8126
C111_2 C 0.5578(8) 0.4378(4) 0.9131(9)
H87_2 H 0.5236 0.4395 0.9340
C112_2 C 0.6236(7) 0.4207(4) 0.9563(9)
Cu1_2 Cu 0.90429(6) 0.06996(2) 0.01596(6)
P1_3 P 0.99522(13) 0.10056(5) 0.07008(14)
N1_3 N 0.8915(4) 0.04034(17) 0.0911(5)
C1_3 C 0.9337(6) 0.0172(2) 0.1196(6)
H1_3 H 0.9679 0.0135 0.0997
C3_3 C 0.8835(5) 0.00282(19) 0.2082(6)
C4_3 C 0.8351(6) 0.0261(2) 0.1755(7)
H3_3 H 0.7980 0.0289 0.1916
C5_3 C 0.8411(6) 0.0446(2) 0.1205(7)
H4_3 H 0.8100 0.0609 0.1020
H7_3 H 0.8499 0.0149 0.3313
H9_3 H 0.8340 0.1263 0.0260
C22_3 C 0.4251(6) 0.2153(2) 0.0067(6)
H18_3 H 0.4615 0.2108 0.0633
C26_3 C 0.4378(7) 0.2690(2) 0.2105(6)
H21_3 H 0.4749 0.2652 0.2673
C27_3 C 0.4341(6) 0.2517(2) 0.1443(7)
H22_3 H 0.4668 0.2360 0.1577
C28_3 C 0.3854(5) 0.25713(18) 0.0633(5)
C29_3 C 0.3392(6) 0.2794(2) 0.0483(7)
C30_3 C 0.3424(6) 0.2953(2) 0.1142(6)
H24_3 H 0.3086 0.3105 0.1018
C71_3 C 0.9920(6) 0.1263(2) 0.1441(6)
C72_3 C 0.9849(8) 0.1162(3) 0.2117(8)
H54_3 H 0.9812 0.0962 0.2155
C73_3 C 0.9826(12) 0.1320(4) 0.2730(11)
H55_3 H 0.9762 0.1241 0.3177
C74_3 C 0.9904(13) 0.1614(5) 0.2648(16)
H56_3 H 0.9952 0.1735 0.3096
C75_3 C 0.9915(14) 0.1729(3) 0.1994(13)
H57_3 H 0.9854 0.1928 0.1899
Cu2_3 Cu 0.34775(6) 0.17556(2) 0.76306(6)
Cu4_2 Cu 0.36219(6) 0.07173(2) 0.54193(7)
P2_3 P 0.99547(13) 0.15375(5) 0.84678(15)
P3_3 P 0.25487(13) 0.14605(5) 0.71453(15)
P4_3 P 0.26262(13) 0.09841(5) 0.48731(14)
N3_3 N 0.8023(5) 0.08997(18) 0.9638(5)
N4_3 N 0.4480(5) 0.15415(19) 0.8083(6)
N5_3 N 0.3675(4) 0.20311(16) 0.8599(5)
N7_3 N 0.8024(5) 0.16555(19) 0.7557(6)
N8_3 N 0.4601(4) 0.09419(17) 0.5993(5)
N9_3 N 0.3551(5) 0.20173(17) 0.6749(5)
N11_3 N 0.3754(5) 0.04495(18) 0.4586(5)
C11_3 C 0.7915(6) 0.1161(3) 0.9869(8)
C12_3 C 0.7251(7) 0.1286(3) 0.9589(9)
H10_3 H 0.7223 0.1470 0.9789
C13_3 C 0.6613(6) 0.1151(2) 0.9014(6)
C14_3 C 0.6697(6) 0.0874(2) 0.8807(8)
H11_3 H 0.6276 0.0764 0.8446
C15_3 C 0.7404(6) 0.0761(2) 0.9133(7)
H12_3 H 0.7447 0.0571 0.8984
C16_3 C 0.5095(7) 0.1690(2) 0.8236(8)
H13_3 H 0.5048 0.1889 0.8136
C17_3 C 0.5790(6) 0.1568(2) 0.8531(8)
H14_3 H 0.6206 0.1682 0.8632
C18_3 C 0.5864(6) 0.1282(2) 0.8672(7)
C19_3 C 0.5231(6) 0.1128(3) 0.8520(8)
H15_3 H 0.5262 0.0930 0.8622
C20_3 C 0.4578(7) 0.1265(3) 0.8228(8)
H16_3 H 0.4156 0.1154 0.8119
C21_3 C 0.4174(6) 0.1984(2) 0.9407(7)
H17_3 H 0.4493 0.1825 0.9533
C23_3 C 0.3807(5) 0.23874(19) 0.9918(6)
C24_3 C 0.3292(5) 0.2441(2) 0.9089(6)
H19_3 H 0.2968 0.2599 0.8950
C25_3 C 0.3253(6) 0.2262(2) 0.8459(6)
H20_3 H 0.2902 0.2306 0.7886
H23_3 H 0.3041 0.2841 0.9914
C31_3 C 0.7986(6) 0.1386(2) 0.7759(7)
H25_3 H 0.8435 0.1291 0.8125
C32_3 C 0.7341(6) 0.1241(3) 0.7469(7)
H26_3 H 0.7348 0.1045 0.7596
C33_3 C 0.6670(5) 0.1379(2) 0.6986(6)
C34_3 C 0.6728(7) 0.1668(3) 0.6868(10)
H27_3 H 0.6291 0.1779 0.6602
C35_3 C 0.7393(7) 0.1793(3) 0.7125(10)
H28_3 H 0.7406 0.1987 0.6989
C36_3 C 0.5261(6) 0.0808(2) 0.6206(7)
H29_3 H 0.5258 0.0609 0.6121
C37_3 C 0.5914(6) 0.0948(2) 0.6532(7)
H30_3 H 0.6355 0.0845 0.6677
C38_3 C 0.5951(5) 0.1229(2) 0.6653(6)
C39_3 C 0.5307(5) 0.1374(2) 0.6453(7)
H31_3 H 0.5305 0.1573 0.6524
C40_3 C 0.4660(6) 0.1215(2) 0.6141(6)
H32_3 H 0.4220 0.1314 0.6024
C41_3 C 0.3915(7) 0.2255(3) 0.6958(8)
H33_3 H 0.4100 0.2319 0.7527
C42_3 C 0.4054(7) 0.2419(3) 0.6420(7)
H34_3 H 0.4326 0.2591 0.6617
C43_3 C 0.3790(7) 0.2332(2) 0.5581(7)
C44_3 C 0.3413(8) 0.2077(3) 0.5363(7)
H35_3 H 0.3230 0.2004 0.4803
C45_3 C 0.3303(9) 0.1930(3) 0.5943(7)
H36_3 H 0.3037 0.1757 0.5771
C46_3 C 0.4592(7) 0.2831(3) 0.4604(9)
H37_2 H 0.5034 0.2936 0.4770
C47_3 C 0.4531(9) 0.2665(3) 0.5225(9)
H38_3 H 0.4914 0.2661 0.5801
C48_3 C 0.3889(6) 0.2507(2) 0.4958(6)
C49_3 C 0.3441(11) 0.2493(4) 0.4140(9)
H39_3 H 0.3042 0.2362 0.3923
C50_3 C 0.3544(9) 0.2668(3) 0.3591(7)
H40_3 H 0.3199 0.2652 0.3001
C51_3 C 0.4147(8) 0.0505(3) 0.4232(8)
H41_3 H 0.4455 0.0668 0.4423
C52_3 C 0.4159(7) 0.0343(3) 0.3579(8)
H42_3 H 0.4439 0.0403 0.3315
C53_3 C 0.3738(7) 0.0084(2) 0.3320(8)
C54_3 C 0.3325(12) 0.0031(3) 0.3722(13)
C55_3 C 0.3339(10) 0.0221(3) 0.4306(11)
H44_3 H 0.3015 0.0184 0.4532
C61_3 C 0.9937(5) 0.1225(2) 0.9894(6)
C62_3 C 0.9949(5) 0.13381(19) 0.9295(6)
C63_3 C 0.2531(5) 0.1256(2) 0.6295(6)
C64_3 C 0.2540(5) 0.11560(19) 0.5712(6)
C83_3 C 0.9896(6) 0.1268(2) 0.7723(7)
C86_3 C 0.9687(11) 0.0854(3) 0.6514(10)
H66_3 H 0.9635 0.0715 0.6104
C87_3 C 0.9114(8) 0.1041(3) 0.6333(8)
H67_3 H 0.8665 0.1028 0.5810
C88_3 C 0.9205(9) 0.1248(3) 0.6932(7)
H68_3 H 0.8813 0.1376 0.6820
C89_3 C 0.1583(6) 0.1588(2) 0.6649(7)
C90_3 C 0.1467(8) 0.1875(3) 0.6723(12)
H69_3 H 0.1869 0.1999 0.7049
C91_3 C 0.0729(12) 0.1977(4) 0.6298(13)
H70_3 H 0.0643 0.2174 0.6312
C92_3 C 0.0140(9) 0.1803(4) 0.5871(13)
C93_3 C 0.0291(8) 0.1522(4) 0.5887(11)
C94_3 C 0.0975(7) 0.1419(3) 0.6251(10)
H73_3 H 0.1043 0.1221 0.6232
C95_3 C 0.2607(6) 0.1185(2) 0.7891(6)
C96_3 C 0.2313(8) 0.0915(2) 0.7680(10)
H74_3 H 0.2051 0.0862 0.7097
C97_3 C 0.2385(9) 0.0727(3) 0.8260(11)
H75_3 H 0.2210 0.0539 0.8095
C98_3 C 0.2702(10) 0.0801(4) 0.9081(13)
H76_3 H 0.2741 0.0668 0.9498
C99_3 C 0.2953(11) 0.1052(4) 0.9300(13)
H77_3 H 0.3152 0.1103 0.9883
C100_3 C 0.2952(9) 0.1258(3) 0.8735(8)
H78_3 H 0.3178 0.1438 0.8927
C101_3 C 0.2577(6) 0.1280(2) 0.4198(6)
C102_3 C 0.3145(8) 0.1325(3) 0.4022(8)
H79_3 H 0.3549 0.1196 0.4260
C103_3 C 0.3177(12) 0.1530(4) 0.3555(11)
H80_3 H 0.3581 0.1543 0.3441
C104_3 C 0.2634(18) 0.1720(6) 0.3240(11)
H81_3 H 0.2677 0.1879 0.2940
C105_3 C 0.2024(13) 0.1695(3) 0.3332(10)
H82_3 H 0.1631 0.1828 0.3065
C106_3 C 0.1969(8) 0.1462(3) 0.3847(9)
H83_3 H 0.1553 0.1438 0.3933
C107_3 C 0.1736(6) 0.0804(2) 0.4285(6)
C108_3 C 0.1573(8) 0.0651(3) 0.3566(7)
H84_3 H 0.1920 0.0666 0.3363
C109_3 C 0.1006(9) 0.0487(4) 0.3124(8)
H85_3 H 0.0945 0.0378 0.2650
C110_3 C 0.0475(11) 0.0492(4) 0.3444(11)
H86_3 H 0.0022 0.0393 0.3126
C111_3 C 0.0578(8) 0.0622(4) 0.4131(9)
H87_3 H 0.0236 0.0605 0.4340
C112_3 C 0.1236(7) 0.0793(4) 0.4563(9)
H88_3 H 0.1317 0.0900 0.5049
N13_2 N 0.8933(5) 0.04692(17) 0.9119(5)
N16_2 N 0.3655(5) 0.04525(19) 0.6344(5)
N2_2 N 0.8933(5) 0.95308(17) 0.4119(5)
C2_3 C 0.9303(6) 0.9983(2) 0.1767(6)
H2_3 H 0.9612 0.9820 0.1938
C6_3 C 0.9088(8) 0.9426(2) 0.3562(7)
H5_3 H 0.9254 0.9235 0.3641
C7_3 C 0.9036(9) 0.9562(2) 0.2879(8)
H6_3 H 0.9132 0.9463 0.2481
C8_3 C 0.8840(5) 0.98499(19) 0.2749(6)
C9_3 C 0.8662(8) 0.9958(2) 0.3357(8)
C10_3 C 0.8721(9) 0.9795(2) 0.4002(8)
H8_3 H 0.8601 0.9879 0.4401
Cu5_2 Cu 0.90429(6) 0.93004(2) 0.51596(6)
N12_2 N 0.3655(5) 0.95475(19) 0.1344(5)
H43_3 H 0.3034 0.9864 0.3594
C56_3 C 0.3071(7) 0.9592(3) 0.1469(8)
H45_3 H 0.2614 0.9504 0.1089
C57_3 C 0.3094(7) 0.9756(3) 0.2115(9)
H46_3 H 0.2668 0.9772 0.2185
C58_3 C 0.3722(7) 0.9896(2) 0.2650(7)
C59_3 C 0.4312(7) 0.9873(4) 0.2514(8)
H47_3 H 0.4750 0.9980 0.2846
C60_3 C 0.4267(7) 0.9695(3) 0.1895(9)
H48_3 H 0.4700 0.9672 0.1843
Cu8_2 Cu 0.36219(6) 0.92827(2) 0.04193(7)
C2_4 C 0.9303(6) 0.0017(2) 0.6767(6)
H2_4 H 0.9612 0.0180 0.6938
C6_4 C 0.9088(8) 0.0574(2) 0.8562(7)
H5_4 H 0.9254 0.0765 0.8641
C7_4 C 0.9036(9) 0.0438(2) 0.7879(8)
H6_4 H 0.9132 0.0537 0.7481
C8_4 C 0.8840(5) 0.01501(19) 0.7749(6)
C9_4 C 0.8662(8) 0.0042(2) 0.8357(8)
C10_4 C 0.8721(9) 0.0205(2) 0.9002(8)
H8_4 H 0.8601 0.0121 0.9401
H43_4 H 0.3034 0.0136 0.8594
C56_4 C 0.3071(7) 0.0408(3) 0.6469(8)
H45_4 H 0.2614 0.0496 0.6089
C57_4 C 0.3094(7) 0.0244(3) 0.7115(9)
H46_4 H 0.2668 0.0228 0.7185
C58_4 C 0.3722(7) 0.0104(2) 0.7650(7)
C59_4 C 0.4312(7) 0.0127(4) 0.7514(8)
H47_4 H 0.4750 0.0020 0.7846
C60_4 C 0.4267(7) 0.0305(3) 0.6895(9)
H48_4 H 0.4700 0.0328 0.6843
Cu2_4 Cu 0.34775(6) 0.82444(2) 0.26306(6)
P1_4 P 0.99522(13) 0.89944(5) 0.57008(14)
P2_4 P 0.99547(13) 0.84625(5) 0.34678(15)
P3_4 P 0.25487(13) 0.85395(5) 0.21453(15)
N1_4 N 0.8915(4) 0.95966(17) 0.5911(5)
N3_4 N 0.8023(5) 0.91003(18) 0.4638(5)
N4_4 N 0.4480(5) 0.84585(19) 0.3083(6)
N5_4 N 0.3675(4) 0.79689(16) 0.3599(5)
N7_4 N 0.8024(5) 0.83445(19) 0.2557(6)
N8_4 N 0.4601(4) 0.90581(17) 0.0993(5)
N9_4 N 0.3551(5) 0.79827(17) 0.1749(5)
C1_4 C 0.9337(6) 0.9828(2) 0.6196(6)
H1_4 H 0.9679 0.9865 0.5997
C3_4 C 0.8835(5) 0.99718(19) 0.7082(6)
C4_4 C 0.8351(6) 0.9739(2) 0.6755(7)
H3_4 H 0.7980 0.9711 0.6916
C5_4 C 0.8411(6) 0.9554(2) 0.6205(7)
H4_4 H 0.8100 0.9391 0.6020
H7_4 H 0.8499 0.9851 0.8313
C11_4 C 0.7915(6) 0.8839(3) 0.4869(8)
H9_4 H 0.8340 0.8737 0.5260
C12_4 C 0.7251(7) 0.8714(3) 0.4589(9)
H10_4 H 0.7223 0.8530 0.4789
C13_4 C 0.6613(6) 0.8849(2) 0.4014(6)
C14_4 C 0.6697(6) 0.9126(2) 0.3807(8)
H11_4 H 0.6276 0.9236 0.3446
C15_4 C 0.7404(6) 0.9239(2) 0.4133(7)
H12_4 H 0.7447 0.9429 0.3984
C16_4 C 0.5095(7) 0.8310(2) 0.3236(8)
H13_4 H 0.5048 0.8111 0.3136
C17_4 C 0.5790(6) 0.8432(2) 0.3531(8)
H14_4 H 0.6206 0.8318 0.3632
C18_4 C 0.5864(6) 0.8718(2) 0.3672(7)
C19_4 C 0.5231(6) 0.8872(3) 0.3520(8)
H15_4 H 0.5262 0.9070 0.3622
C20_4 C 0.4578(7) 0.8735(3) 0.3228(8)
H16_4 H 0.4156 0.8846 0.3119
C21_4 C 0.4174(6) 0.8016(2) 0.4407(7)
H17_4 H 0.4493 0.8175 0.4533
C22_4 C 0.4251(6) 0.7847(2) 0.5067(6)
H18_4 H 0.4615 0.7892 0.5633
C23_4 C 0.3807(5) 0.76126(19) 0.4918(6)
C24_4 C 0.3292(5) 0.7559(2) 0.4089(6)
H19_4 H 0.2968 0.7401 0.3950
C25_4 C 0.3253(6) 0.7738(2) 0.3459(6)
H20_4 H 0.2902 0.7694 0.2886
C26_4 C 0.4378(7) 0.7310(2) 0.7105(6)
H21_4 H 0.4749 0.7348 0.7673
C27_4 C 0.4341(6) 0.7483(2) 0.6443(7)
H22_4 H 0.4668 0.7640 0.6577
C28_4 C 0.3854(5) 0.74287(18) 0.5633(5)
C29_4 C 0.3392(6) 0.7206(2) 0.5483(7)
H23_4 H 0.3041 0.7159 0.4914
C30_4 C 0.3424(6) 0.7047(2) 0.6142(6)
H24_4 H 0.3086 0.6895 0.6018
C31_4 C 0.7986(6) 0.8614(2) 0.2759(7)
H25_4 H 0.8435 0.8709 0.3125
C32_4 C 0.7341(6) 0.8759(3) 0.2469(7)
H26_4 H 0.7348 0.8955 0.2596
C33_4 C 0.6670(5) 0.8621(2) 0.1986(6)
C34_4 C 0.6728(7) 0.8332(3) 0.1868(10)
H27_4 H 0.6291 0.8221 0.1602
C35_4 C 0.7393(7) 0.8207(3) 0.2125(10)
H28_4 H 0.7406 0.8013 0.1989
C36_4 C 0.5261(6) 0.9192(2) 0.1206(7)
H29_4 H 0.5258 0.9391 0.1121
C37_4 C 0.5914(6) 0.9052(2) 0.1532(7)
H30_4 H 0.6355 0.9155 0.1677
C38_4 C 0.5951(5) 0.8771(2) 0.1653(6)
C39_4 C 0.5307(5) 0.8626(2) 0.1453(7)
H31_4 H 0.5305 0.8427 0.1524
C40_4 C 0.4660(6) 0.8785(2) 0.1141(6)
H32_4 H 0.4220 0.8686 0.1024
C41_4 C 0.3915(7) 0.7745(3) 0.1958(8)
H33_4 H 0.4100 0.7681 0.2527
C42_4 C 0.4054(7) 0.7581(3) 0.1420(7)
H34_4 H 0.4326 0.7409 0.1617
C43_4 C 0.3790(7) 0.7668(2) 0.0581(7)
C44_4 C 0.3413(8) 0.7923(3) 0.0363(7)
C45_4 C 0.3303(9) 0.8070(3) 0.0943(7)
H36_4 H 0.3037 0.8243 0.0771
C47_4 C 0.4531(9) 0.7335(3) 0.0225(9)
H38_4 H 0.4914 0.7339 0.0801
C61_4 C 0.9937(5) 0.8775(2) 0.4894(6)
C62_4 C 0.9949(5) 0.86619(19) 0.4295(6)
C63_4 C 0.2531(5) 0.8744(2) 0.1295(6)
C64_4 C 0.2540(5) 0.88440(19) 0.0712(6)
C71_4 C 0.9920(6) 0.8737(2) 0.6441(6)
C72_4 C 0.9849(8) 0.8838(3) 0.7117(8)
H54_4 H 0.9812 0.9038 0.7155
C73_4 C 0.9826(12) 0.8680(4) 0.7730(11)
H55_4 H 0.9762 0.8759 0.8177
C74_4 C 0.9904(13) 0.8386(5) 0.7648(16)
H56_4 H 0.9952 0.8265 0.8096
C75_4 C 0.9915(14) 0.8271(3) 0.6994(13)
H57_4 H 0.9854 0.8072 0.6899
C83_4 C 0.9896(6) 0.8732(2) 0.2723(7)
C86_4 C 0.9687(11) 0.9146(3) 0.1514(10)
H66_4 H 0.9635 0.9285 0.1104
C87_4 C 0.9114(8) 0.8959(3) 0.1333(8)
H67_4 H 0.8665 0.8972 0.0810
C88_4 C 0.9205(9) 0.8752(3) 0.1932(7)
H68_4 H 0.8813 0.8624 0.1820
C89_4 C 0.1583(6) 0.8412(2) 0.1649(7)
C90_4 C 0.1467(8) 0.8125(3) 0.1723(12)
H69_4 H 0.1869 0.8001 0.2049
C91_4 C 0.0729(12) 0.8023(4) 0.1298(13)
H70_4 H 0.0643 0.7826 0.1312
C92_4 C 0.0140(9) 0.8197(4) 0.0871(13)
C93_4 C 0.0291(8) 0.8478(4) 0.0887(11)
C94_4 C 0.0975(7) 0.8581(3) 0.1251(10)
H73_4 H 0.1043 0.8779 0.1232
C95_4 C 0.2607(6) 0.8815(2) 0.2891(6)
C96_4 C 0.2313(8) 0.9085(2) 0.2680(10)
H74_4 H 0.2051 0.9138 0.2097
C97_4 C 0.2385(9) 0.9273(3) 0.3260(11)
H75_4 H 0.2210 0.9461 0.3095
C98_4 C 0.2702(10) 0.9199(4) 0.4081(13)
H76_4 H 0.2741 0.9332 0.4498
C99_4 C 0.2953(11) 0.8948(4) 0.4300(13)
H77_4 H 0.3152 0.8897 0.4883
C100_4 C 0.2952(9) 0.8742(3) 0.3735(8)
H78_4 H 0.3178 0.8562 0.3927
H88_4 H 0.1317 0.9100 0.0049
P4_4 P 0.26262(13) 0.90159(5) 0.98731(14)
N11_4 N 0.3754(5) 0.95505(18) 0.9586(5)
H35_4 H 0.3230 0.7996 0.9803
C46_4 C 0.4592(7) 0.7169(3) 0.9604(9)
H37_3 H 0.5034 0.7064 0.9770
C48_4 C 0.3889(6) 0.7493(2) 0.9958(6)
C49_4 C 0.3441(11) 0.7507(4) 0.9140(9)
H39_4 H 0.3042 0.7638 0.8923
C50_4 C 0.3544(9) 0.7332(3) 0.8591(7)
H40_4 H 0.3199 0.7348 0.8001
C51_4 C 0.4147(8) 0.9495(3) 0.9232(8)
H41_4 H 0.4455 0.9332 0.9423
C52_4 C 0.4159(7) 0.9657(3) 0.8579(8)
H42_4 H 0.4439 0.9597 0.8315
C53_4 C 0.3738(7) 0.9916(2) 0.8320(8)
C54_4 C 0.3325(12) 0.9969(3) 0.8722(13)
C55_4 C 0.3339(10) 0.9779(3) 0.9306(11)
H44_4 H 0.3015 0.9816 0.9532
C101_4 C 0.2577(6) 0.8720(2) 0.9198(6)
C102_4 C 0.3145(8) 0.8675(3) 0.9022(8)
H79_4 H 0.3549 0.8804 0.9260
C103_4 C 0.3177(12) 0.8470(4) 0.8555(11)
H80_4 H 0.3581 0.8457 0.8441
C104_4 C 0.2634(18) 0.8280(6) 0.8240(11)
H81_4 H 0.2677 0.8121 0.7940
C105_4 C 0.2024(13) 0.8305(3) 0.8332(10)
H82_4 H 0.1631 0.8172 0.8065
C106_4 C 0.1969(8) 0.8538(3) 0.8847(9)
H83_4 H 0.1553 0.8562 0.8933
C107_4 C 0.1736(6) 0.9196(2) 0.9285(6)
C108_4 C 0.1573(8) 0.9349(3) 0.8566(7)
H84_4 H 0.1920 0.9334 0.8363
C109_4 C 0.1006(9) 0.9513(4) 0.8124(8)
H85_4 H 0.0945 0.9622 0.7650
C110_4 C 0.0475(11) 0.9508(4) 0.8444(11)
H86_4 H 0.0022 0.9607 0.8126
C111_4 C 0.0578(8) 0.9378(4) 0.9131(9)
H87_4 H 0.0236 0.9395 0.9340
C112_4 C 0.1236(7) 0.9207(4) 0.9563(9)
H37_4 H 0.0034 0.2064 0.9770
C65_3 C 0.0914(5) 0.0896(2) 0.1203(6)
C66_3 C 0.1065(7) 0.0607(3) 0.1193(8)
H49_3 H 0.0672 0.0474 0.0929
C67_3 C 0.1809(11) 0.0515(5) 0.1578(12)
H50_3 H 0.1934 0.0320 0.1600
C68_3 C 0.2374(9) 0.0733(7) 0.1938(12)
H51_3 H 0.2880 0.0680 0.2185
C69_3 C 0.2208(7) 0.0998(4) 0.1932(10)
H52_3 H 0.2594 0.1135 0.2182
C70_3 C 0.1485(7) 0.1085(3) 0.1572(7)
H53_3 H 0.1379 0.1281 0.1578
C76_3 C 0.0023(10) 0.1542(2) 0.1409(9)
H58_3 H 0.0163 0.1617 0.1017
C79_3 C 0.2171(12) 0.1626(5) 0.0036(13)
H60_3 H 0.2554 0.1549 0.0550
C77_3 C 0.0922(6) 0.1653(2) 0.8969(7)
C78_3 C 0.1462(6) 0.1518(4) 0.9694(10)
H59_3 H 0.1349 0.1361 0.9941
C80_3 C 0.2328(9) 0.1847(5) 0.9634(14)
H61_3 H 0.2828 0.1903 0.9842
C81_3 C 0.1808(11) 0.1978(4) 0.8979(13)
H62_3 H 0.1906 0.2146 0.8758
C82_3 C 0.1108(8) 0.1862(4) 0.8624(11)
H63_3 H 0.0738 0.1937 0.8099
C84_3 C 0.0435(8) 0.1056(3) 0.7896(9)
H64_3 H 0.0867 0.1045 0.8437
C85_3 C 0.0319(9) 0.0866(3) 0.7261(11)
H65_3 H 0.0705 0.0737 0.7355
H71_3 H 0.9648 0.1874 0.5576
H72_3 H 0.9888 0.1394 0.5626
C65_4 C 0.0914(5) 0.9104(2) 0.6203(6)
C66_4 C 0.1065(7) 0.9393(3) 0.6193(8)
H49_4 H 0.0672 0.9526 0.5929
C67_4 C 0.1809(11) 0.9485(5) 0.6578(12)
H50_4 H 0.1934 0.9680 0.6600
C68_4 C 0.2374(9) 0.9267(7) 0.6938(12)
H51_4 H 0.2880 0.9320 0.7185
C69_4 C 0.2208(7) 0.9002(4) 0.6932(10)
H52_4 H 0.2594 0.8865 0.7182
C70_4 C 0.1485(7) 0.8915(3) 0.6572(7)
H53_4 H 0.1379 0.8719 0.6578
C76_4 C 0.0023(10) 0.8458(2) 0.6409(9)
H58_4 H 0.0163 0.8383 0.6017
C77_4 C 0.0922(6) 0.8347(2) 0.3969(7)
C78_4 C 0.1462(6) 0.8482(4) 0.4694(10)
H59_4 H 0.1349 0.8639 0.4941
C79_4 C 0.2171(12) 0.8374(5) 0.5036(13)
H60_4 H 0.2554 0.8451 0.5550
C80_4 C 0.2328(9) 0.8153(5) 0.4634(14)
H61_4 H 0.2828 0.8097 0.4842
C81_4 C 0.1808(11) 0.8022(4) 0.3979(13)
H62_4 H 0.1906 0.7854 0.3758
C82_4 C 0.1108(8) 0.8138(4) 0.3624(11)
H63_4 H 0.0738 0.8063 0.3099
C84_4 C 0.0435(8) 0.8944(3) 0.2896(9)
H64_4 H 0.0867 0.8955 0.3437
C85_4 C 0.0319(9) 0.9134(3) 0.2261(11)
H65_4 H 0.0705 0.9263 0.2355
H71_4 H 0.9648 0.8126 0.0576
H72_4 H 0.9888 0.8606 0.0626
B1 B 0.1095(10) 0.7349(3) 0.7496(12)
F1 F 0.0775(7) 0.7607(2) 0.7363(7)
F2 F 0.0736(13) 0.7182(5) 0.6831(13)
F3 F 0.1069(16) 0.7223(6) 0.8155(15)
F4 F 0.1785(10) 0.7347(5) 0.7605(15)
B1_2 B 0.1095(10) 0.2651(3) 0.2496(12)
F1_2 F 0.0775(7) 0.2393(2) 0.2363(7)
F2_2 F 0.0736(13) 0.2818(5) 0.1831(13)
F3_2 F 0.1069(16) 0.2777(6) 0.3155(15)
F4_2 F 0.1785(10) 0.2653(5) 0.2605(15)
B1_3 B 0.6095(10) 0.2349(3) 0.7496(12)
F1_3 F 0.5775(7) 0.2607(2) 0.7363(7)
F2_3 F 0.5736(13) 0.2182(5) 0.6831(13)
F3_3 F 0.6069(16) 0.2223(6) 0.8155(15)
F4_3 F 0.6785(10) 0.2347(5) 0.7605(15)
B1_4 B 0.6095(10) 0.7651(3) 0.2496(12)
F1_4 F 0.5775(7) 0.7393(2) 0.2363(7)
F2_4 F 0.5736(13) 0.7818(5) 0.1831(13)
F3_4 F 0.6069(16) 0.7777(6) 0.3155(15)
F4_4 F 0.6785(10) 0.7653(5) 0.2605(15)
B2 B 0.6334(13) 0.7760(4) 0.7797(14)
F5 F 0.5846(10) 0.7930(4) 0.7142(11)
F6 F 0.5998(11) 0.7606(4) 0.8095(12)
F7 F 0.6857(9) 0.7913(4) 0.8460(10)
F8 F 0.6633(13) 0.7556(5) 0.7558(14)
B2_2 B 0.6334(13) 0.2240(4) 0.2797(14)
F5_2 F 0.5846(10) 0.2070(4) 0.2142(11)
F6_2 F 0.5998(11) 0.2394(4) 0.3095(12)
F7_2 F 0.6857(9) 0.2087(4) 0.3460(10)
F8_2 F 0.6633(13) 0.2444(5) 0.2558(14)
B2_3 B 0.1334(13) 0.2760(4) 0.7797(14)
F5_3 F 0.0846(10) 0.2930(4) 0.7142(11)
F6_3 F 0.0998(11) 0.2606(4) 0.8095(12)
F7_3 F 0.1857(9) 0.2913(4) 0.8460(10)
F8_3 F 0.1633(13) 0.2556(5) 0.7558(14)
B2_4 B 0.1334(13) 0.7240(4) 0.2797(14)
F5_4 F 0.0846(10) 0.7070(4) 0.2142(11)
F6_4 F 0.0998(11) 0.7394(4) 0.3095(12)
F7_4 F 0.1857(9) 0.7087(4) 0.3460(10)
F8_4 F 0.1633(13) 0.7444(5) 0.2558(14)
B3 B 0.0843(8) 0.9741(3) 0.1114(9)
F9 F 0.0928(7) 0.9814(3) 0.1904(8)
F10 F 0.0149(9) 0.9695(4) 0.0629(11)
F11 F 0.1235(8) 0.9495(3) 0.1226(10)
F12 F 0.1085(14) 0.9946(6) 0.0792(18)
B3_2 B 0.0843(8) 0.0259(3) 0.6114(9)
F9_2 F 0.0928(7) 0.0186(3) 0.6904(8)
F10_2 F 0.0149(9) 0.0305(4) 0.5629(11)
F11_2 F 0.1235(8) 0.0505(3) 0.6226(10)
F12_2 F 0.1085(14) 0.0054(6) 0.5792(18)
B3_3 B 0.5843(8) 0.4741(3) 0.1114(9)
F9_3 F 0.5928(7) 0.4814(3) 0.1904(8)
F10_3 F 0.5149(9) 0.4695(4) 0.0629(11)
F11_3 F 0.6235(8) 0.4495(3) 0.1226(10)
F12_3 F 0.6085(14) 0.4946(6) 0.0792(18)
B3_4 B 0.5843(8) 0.5259(3) 0.6114(9)
F9_4 F 0.5928(7) 0.5186(3) 0.6904(8)
F10_4 F 0.5149(9) 0.5305(4) 0.5629(11)
F11_4 F 0.6235(8) 0.5505(3) 0.6226(10)
F12_4 F 0.6085(14) 0.5054(6) 0.5792(18)
B4 B 0.6463(13) 0.0173(5) 0.7176(17)
F14 F 0.5853(11) 0.0169(5) 0.6452(13)
F15 F 0.6933(11) 0.0394(4) 0.7297(13)
F16 F 0.6188(17) 0.0229(6) 0.7695(18)
F13 F 0.6832(9) 0.9921(3) 0.7265(10)
F13_2 F 0.6832(9) 0.0079(3) 0.2265(10)
B4_2 B 0.6463(13) 0.9827(5) 0.2176(17)
F14_2 F 0.5853(11) 0.9831(5) 0.1452(13)
F15_2 F 0.6933(11) 0.9606(4) 0.2297(13)
F16_2 F 0.6188(17) 0.9771(6) 0.2695(18)
B4_3 B 0.1463(13) 0.5173(5) 0.7176(17)
F13_3 F 0.1832(9) 0.4921(3) 0.7265(10)
F14_3 F 0.0853(11) 0.5169(5) 0.6452(13)
F15_3 F 0.1933(11) 0.5394(4) 0.7297(13)
F16_3 F 0.1188(17) 0.5229(6) 0.7695(18)
B4_4 B 0.1463(13) 0.4827(5) 0.2176(17)
F13_4 F 0.1832(9) 0.5079(3) 0.2265(10)
F14_4 F 0.0853(11) 0.4831(5) 0.1452(13)
F15_4 F 0.1933(11) 0.4606(4) 0.2297(13)
F16_4 F 0.1188(17) 0.4771(6) 0.2695(18)
loop_
_geom_bond_atom_site_label_1
_geom_bond_atom_site_label_2
_geom_bond_site_symmetry_1
_geom_bond_site_symmetry_2
Cu1 P1 1_555 1_555
N1 Cu1 1_555 1_555
N2 C6 1_555 1_555
C1 N1 1_555 1_555
H1 C1 1_555 1_555
C2 C1 1_555 1_555
H2 C2 1_555 1_555
C3 C2 1_555 1_555
C4 C3 1_555 1_555
H3 C4 1_555 1_555
C5 N1 1_555 1_555
H4 C5 1_555 1_555
C6 H5 1_555 1_555
C7 C6 1_555 1_555
H6 C7 1_555 1_555
C8 C3 1_555 1_555
C9 C8 1_555 1_555
H7 C9 1_555 1_555
C10 N2 1_555 1_555
H8 C10 1_555 1_555
C65 P1 1_555 1_555
C66 C65 1_555 1_555
H49 C66 1_555 1_555
C67 C66 1_555 1_555
H50 C67 1_555 1_555
C68 C67 1_555 1_555
H51 C68 1_555 1_555
C69 C68 1_555 1_555
H52 C69 1_555 1_555
C70 C65 1_555 1_555
H53 C70 1_555 1_555
C71 P1 1_555 1_555
C72 C71 1_555 1_555
H54 C72 1_555 1_555
C73 C72 1_555 1_555
H55 C73 1_555 1_555
C74 C73 1_555 1_555
H56 C74 1_555 1_555
C75 C74 1_555 1_555
H57 C75 1_555 1_555
C76 C71 1_555 1_555
H58 C76 1_555 1_555
H60 C79 1_555 1_555
Cu5 N2 1_555 1_555
C4 C5 1_555 1_555
C7 C8 1_555 1_555
C9 C10 1_555 1_555
C69 C70 1_555 1_555
C75 C76 1_555 1_555
Cu3 P2 1_555 1_555
P2 C62 1_555 1_555
N7 Cu3 1_555 1_555
C11 N3 1_555 1_555
C12 C11 1_555 1_555
H10 C12 1_555 1_555
C13 C12 1_555 1_555
C14 C13 1_555 1_555
H11 C14 1_555 1_555
C15 N3 1_555 1_555
H12 C15 1_555 1_555
H13 C16 1_555 1_555
C17 C16 1_555 1_555
H14 C17 1_555 1_555
C18 C13 1_555 1_555
C19 C18 1_555 1_555
H15 C19 1_555 1_555
C31 N7 1_555 1_555
H25 C31 1_555 1_555
C32 C31 1_555 1_555
H26 C32 1_555 1_555
C33 C32 1_555 1_555
C34 C33 1_555 1_555
H27 C34 1_555 1_555
C35 N7 1_555 1_555
H28 C35 1_555 1_555
H29 C36 1_555 1_555
C37 C36 1_555 1_555
H30 C37 1_555 1_555
C38 C33 1_555 1_555
C39 C38 1_555 1_555
H31 C39 1_555 1_555
C61 C62 1_555 1_555
C77 P2 1_555 1_555
C78 C77 1_555 1_555
H59 C78 1_555 1_555
H61 C80 1_555 1_555
C81 C80 1_555 1_555
H62 C81 1_555 1_555
C82 C77 1_555 1_555
H63 C82 1_555 1_555
C83 P2 1_555 1_555
C84 C83 1_555 1_555
H64 C84 1_555 1_555
C85 C84 1_555 1_555
H65 C85 1_555 1_555
C86 C85 1_555 1_555
H66 C86 1_555 1_555
C87 C86 1_555 1_555
H67 C87 1_555 1_555
C88 C83 1_555 1_555
H68 C88 1_555 1_555
N14 Cu3 1_555 1_555
N15 Cu3 1_555 1_555
C14 C15 1_555 1_555
C17 C18 1_555 1_555
C34 C35 1_555 1_555
C37 C38 1_555 1_555
C81 C82 1_555 1_555
C87 C88 1_555 1_555
N6 C26 1_555 1_555
H18 C22 1_555 1_555
C26 H21 1_555 1_555
C27 C26 1_555 1_555
H22 C27 1_555 1_555
C29 C28 1_555 1_555
C30 N6 1_555 1_555
H24 C30 1_555 1_555
Cu6 N6 1_555 1_555
C27 C28 1_555 1_555
C29 C30 1_555 1_555
Cu2 P3 1_555 1_555
Cu4 P4 1_555 1_555
P3 C63 1_555 1_555
P4 C64 1_555 1_555
N4 Cu2 1_555 1_555
N5 Cu2 1_555 1_555
N8 Cu4 1_555 1_555
N9 Cu2 1_555 1_555
N10 C46 1_555 1_555
N11 Cu4 1_555 1_555
N12 C56 1_555 1_555
C20 N4 1_555 1_555
H16 C20 1_555 1_555
C21 N5 1_555 1_555
H17 C21 1_555 1_555
C24 C23 1_555 1_555
H19 C24 1_555 1_555
C25 N5 1_555 1_555
H20 C25 1_555 1_555
C40 N8 1_555 1_555
H32 C40 1_555 1_555
C41 N9 1_555 1_555
H33 C41 1_555 1_555
C42 C41 1_555 1_555
H34 C42 1_555 1_555
C43 C42 1_555 1_555
C44 C43 1_555 1_555
H35 C44 1_555 1_555
C45 N9 1_555 1_555
H36 C45 1_555 1_555
C47 C46 1_555 1_555
H38 C47 1_555 1_555
C48 C43 1_555 1_555
C49 C48 1_555 1_555
H39 C49 1_555 1_555
C50 N10 1_555 1_555
H40 C50 1_555 1_555
C51 N11 1_555 1_555
H41 C51 1_555 1_555
C52 C51 1_555 1_555
H42 C52 1_555 1_555
C53 C52 1_555 1_555
C54 C53 1_555 1_555
H43 C54 1_555 1_555
C55 N11 1_555 1_555
H44 C55 1_555 1_555
C56 H45 1_555 1_555
C57 C56 1_555 1_555
H46 C57 1_555 1_555
C58 C53 1_555 1_555
C59 C58 1_555 1_555
H47 C59 1_555 1_555
C60 N12 1_555 1_555
H48 C60 1_555 1_555
C63 C64 1_555 1_555
C89 P3 1_555 1_555
C90 C89 1_555 1_555
H69 C90 1_555 1_555
C91 C90 1_555 1_555
H70 C91 1_555 1_555
C92 C91 1_555 1_555
H71 C92 1_555 1_555
C93 C92 1_555 1_555
H72 C93 1_555 1_555
C94 C89 1_555 1_555
H73 C94 1_555 1_555
C95 P3 1_555 1_555
C96 C95 1_555 1_555
H74 C96 1_555 1_555
C97 C96 1_555 1_555
H75 C97 1_555 1_555
C98 C97 1_555 1_555
H76 C98 1_555 1_555
C99 C98 1_555 1_555
H77 C99 1_555 1_555
C100 C95 1_555 1_555
H78 C100 1_555 1_555
C101 P4 1_555 1_555
C102 C101 1_555 1_555
H79 C102 1_555 1_555
C103 C102 1_555 1_555
H80 C103 1_555 1_555
C104 C103 1_555 1_555
H81 C104 1_555 1_555
C105 C104 1_555 1_555
H82 C105 1_555 1_555
C106 C101 1_555 1_555
H83 C106 1_555 1_555
C107 P4 1_555 1_555
C108 C107 1_555 1_555
H84 C108 1_555 1_555
C109 C108 1_555 1_555
H85 C109 1_555 1_555
C110 C109 1_555 1_555
H86 C110 1_555 1_555
C111 C110 1_555 1_555
H87 C111 1_555 1_555
C112 C107 1_555 1_555
H88 C112 1_555 1_555
Cu6 N10 1_555 1_555
Cu8 N12 1_555 1_555
N16 Cu4 1_555 1_555
C24 C25 1_555 1_555
C44 C45 1_555 1_555
C47 C48 1_555 1_555
C49 C50 1_555 1_555
C54 C55 1_555 1_555
C57 C58 1_555 1_555
C59 C60 1_555 1_555
C93 C94 1_555 1_555
C99 C100 1_555 1_555
C105 C106 1_555 1_555
C111 C112 1_555 1_555
Cu5 P1_2 1_555 1_555
Cu3_2 P2_2 1_555 1_555
P1_2 C61_2 1_555 1_555
P2_2 C62_2 1_555 1_555
N1_2 Cu5 1_555 1_555
N13 C6_2 1_555 1_555
N3_2 Cu5 1_555 1_555
N7_2 Cu3_2 1_555 1_555
C1_2 N1_2 1_555 1_555
H1_2 C1_2 1_555 1_555
C2_2 C1_2 1_555 1_555
H2_2 C2_2 1_555 1_555
C3_2 C2_2 1_555 1_555
C4_2 C3_2 1_555 1_555
H3_2 C4_2 1_555 1_555
C5_2 N1_2 1_555 1_555
H4_2 C5_2 1_555 1_555
C6_2 H5_2 1_555 1_555
C7_2 C6_2 1_555 1_555
H6_2 C7_2 1_555 1_555
C8_2 C3_2 1_555 1_555
C9_2 C8_2 1_555 1_555
H7_2 C9_2 1_555 1_555
C10_2 N13 1_555 1_555
H8_2 C10_2 1_555 1_555
C11_2 N3_2 1_555 1_555
H9_2 C11_2 1_555 1_555
C12_2 C11_2 1_555 1_555
H10_2 C12_2 1_555 1_555
C13_2 C12_2 1_555 1_555
C14_2 C13_2 1_555 1_555
H11_2 C14_2 1_555 1_555
C15_2 N3_2 1_555 1_555
H12_2 C15_2 1_555 1_555
H13_2 C16_2 1_555 1_555
C17_2 C16_2 1_555 1_555
H14_2 C17_2 1_555 1_555
C18_2 C13_2 1_555 1_555
C19_2 C18_2 1_555 1_555
H15_2 C19_2 1_555 1_555
C31_2 N7_2 1_555 1_555
H25_2 C31_2 1_555 1_555
C32_2 C31_2 1_555 1_555
H26_2 C32_2 1_555 1_555
C33_2 C32_2 1_555 1_555
C34_2 C33_2 1_555 1_555
H27_2 C34_2 1_555 1_555
C35_2 N7_2 1_555 1_555
H28_2 C35_2 1_555 1_555
H29_2 C36_2 1_555 1_555
C37_2 C36_2 1_555 1_555
H30_2 C37_2 1_555 1_555
C38_2 C33_2 1_555 1_555
C39_2 C38_2 1_555 1_555
H31_2 C39_2 1_555 1_555
C61_2 C62_2 1_555 1_555
C65_2 P1_2 1_555 1_555
C66_2 C65_2 1_555 1_555
H49_2 C66_2 1_555 1_555
C67_2 C66_2 1_555 1_555
H50_2 C67_2 1_555 1_555
C68_2 C67_2 1_555 1_555
H51_2 C68_2 1_555 1_555
C69_2 C68_2 1_555 1_555
H52_2 C69_2 1_555 1_555
C70_2 C65_2 1_555 1_555
H53_2 C70_2 1_555 1_555
C71_2 P1_2 1_555 1_555
C72_2 C71_2 1_555 1_555
H54_2 C72_2 1_555 1_555
C73_2 C72_2 1_555 1_555
H55_2 C73_2 1_555 1_555
C74_2 C73_2 1_555 1_555
H56_2 C74_2 1_555 1_555
C75_2 C74_2 1_555 1_555
H57_2 C75_2 1_555 1_555
C76_2 C71_2 1_555 1_555
H58_2 C76_2 1_555 1_555
C77_2 P2_2 1_555 1_555
C78_2 C77_2 1_555 1_555
H59_2 C78_2 1_555 1_555
C79_2 C78_2 1_555 1_555
H60_2 C79_2 1_555 1_555
C80_2 C79_2 1_555 1_555
H61_2 C80_2 1_555 1_555
C81_2 C80_2 1_555 1_555
H62_2 C81_2 1_555 1_555
C82_2 C77_2 1_555 1_555
H63_2 C82_2 1_555 1_555
C83_2 P2_2 1_555 1_555
C84_2 C83_2 1_555 1_555
H64_2 C84_2 1_555 1_555
C85_2 C84_2 1_555 1_555
H65_2 C85_2 1_555 1_555
C86_2 C85_2 1_555 1_555
H66_2 C86_2 1_555 1_555
C87_2 C86_2 1_555 1_555
H67_2 C87_2 1_555 1_555
C88_2 C83_2 1_555 1_555
H68_2 C88_2 1_555 1_555
N14_2 Cu3_2 1_555 1_555
N15_2 Cu3_2 1_555 1_555
C4_2 C5_2 1_555 1_555
C7_2 C8_2 1_555 1_555
C9_2 C10_2 1_555 1_555
C14_2 C15_2 1_555 1_555
C17_2 C18_2 1_555 1_555
C34_2 C35_2 1_555 1_555
C37_2 C38_2 1_555 1_555
C69_2 C70_2 1_555 1_555
C75_2 C76_2 1_555 1_555
C81_2 C82_2 1_555 1_555
C87_2 C88_2 1_555 1_555
Cu2_2 P3_2 1_555 1_555
P3_2 C63_2 1_555 1_555
N4_2 Cu2_2 1_555 1_555
N5_2 Cu2_2 1_555 1_555
N6_2 C26_2 1_555 1_555
N8_2 Cu8 1_555 1_555
N9_2 Cu2_2 1_555 1_555
C20_2 N4_2 1_555 1_555
H16_2 C20_2 1_555 1_555
C21_2 N5_2 1_555 1_555
H17_2 C21_2 1_555 1_555
C22_2 C21_2 1_555 1_555
H18_2 C22_2 1_555 1_555
C23_2 C22_2 1_555 1_555
C24_2 C23_2 1_555 1_555
H19_2 C24_2 1_555 1_555
C25_2 N5_2 1_555 1_555
H20_2 C25_2 1_555 1_555
C26_2 H21_2 1_555 1_555
C27_2 C26_2 1_555 1_555
H22_2 C27_2 1_555 1_555
C28_2 C23_2 1_555 1_555
C29_2 C28_2 1_555 1_555
H23_2 C29_2 1_555 1_555
C30_2 N6_2 1_555 1_555
H24_2 C30_2 1_555 1_555
C40_2 N8_2 1_555 1_555
H32_2 C40_2 1_555 1_555
C41_2 N9_2 1_555 1_555
H33_2 C41_2 1_555 1_555
C42_2 C41_2 1_555 1_555
H34_2 C42_2 1_555 1_555
C43_2 C42_2 1_555 1_555
C44_2 C43_2 1_555 1_555
C45_2 N9_2 1_555 1_555
H36_2 C45_2 1_555 1_555
H38_2 C47_2 1_555 1_555
C63_2 C64_2 1_555 1_555
C89_2 P3_2 1_555 1_555
C90_2 C89_2 1_555 1_555
H69_2 C90_2 1_555 1_555
C91_2 C90_2 1_555 1_555
H70_2 C91_2 1_555 1_555
C92_2 C91_2 1_555 1_555
H71_2 C92_2 1_555 1_555
C93_2 C92_2 1_555 1_555
H72_2 C93_2 1_555 1_555
C94_2 C89_2 1_555 1_555
H73_2 C94_2 1_555 1_555
C95_2 P3_2 1_555 1_555
C96_2 C95_2 1_555 1_555
H74_2 C96_2 1_555 1_555
C97_2 C96_2 1_555 1_555
H75_2 C97_2 1_555 1_555
C98_2 C97_2 1_555 1_555
H76_2 C98_2 1_555 1_555
C99_2 C98_2 1_555 1_555
H77_2 C99_2 1_555 1_555
C100_2 C95_2 1_555 1_555
H78_2 C100_2 1_555 1_555
Cu6_2 N6_2 1_555 1_555
C24_2 C25_2 1_555 1_555
C27_2 C28_2 1_555 1_555
C29_2 C30_2 1_555 1_555
C44_2 C45_2 1_555 1_555
C93_2 C94_2 1_555 1_555
C99_2 C100_2 1_555 1_555
N10_2 C46_2 1_555 1_555
N16 C56_2 1_555 1_555
C49_2 C48_2 1_555 1_555
H39_2 C49_2 1_555 1_555
C50_2 N10_2 1_555 1_555
H40_2 C50_2 1_555 1_555
C51_2 N11_2 1_555 1_555
H41_2 C51_2 1_555 1_555
C52_2 C51_2 1_555 1_555
H42_2 C52_2 1_555 1_555
C53_2 C52_2 1_555 1_555
C54_2 C53_2 1_555 1_555
H43_2 C54_2 1_555 1_555
C55_2 N11_2 1_555 1_555
H44_2 C55_2 1_555 1_555
C56_2 H45_2 1_555 1_555
C57_2 C56_2 1_555 1_555
H46_2 C57_2 1_555 1_555
C58_2 C53_2 1_555 1_555
C59_2 C58_2 1_555 1_555
H47_2 C59_2 1_555 1_555
C60_2 N16 1_555 1_555
H48_2 C60_2 1_555 1_555
C101_2 P4_2 1_555 1_555
C102_2 C101_2 1_555 1_555
H79_2 C102_2 1_555 1_555
C103_2 C102_2 1_555 1_555
H80_2 C103_2 1_555 1_555
C104_2 C103_2 1_555 1_555
H81_2 C104_2 1_555 1_555
C105_2 C104_2 1_555 1_555
H82_2 C105_2 1_555 1_555
C106_2 C101_2 1_555 1_555
H83_2 C106_2 1_555 1_555
C107_2 P4_2 1_555 1_555
C108_2 C107_2 1_555 1_555
H84_2 C108_2 1_555 1_555
C109_2 C108_2 1_555 1_555
H85_2 C109_2 1_555 1_555
C110_2 C109_2 1_555 1_555
H86_2 C110_2 1_555 1_555
C111_2 C110_2 1_555 1_555
H87_2 C111_2 1_555 1_555
C112_2 C107_2 1_555 1_555
Cu6_2 N10_2 1_555 1_555
C49_2 C50_2 1_555 1_555
C54_2 C55_2 1_555 1_555
C57_2 C58_2 1_555 1_555
C59_2 C60_2 1_555 1_555
C105_2 C106_2 1_555 1_555
C111_2 C112_2 1_555 1_555
Cu1_2 P1_3 1_555 1_555
N1_3 Cu1_2 1_555 1_555
N14_2 C26_3 1_555 1_555
C1_3 N1_3 1_555 1_555
H1_3 C1_3 1_555 1_555
C4_3 C3_3 1_555 1_555
H3_3 C4_3 1_555 1_555
C5_3 N1_3 1_555 1_555
H4_3 C5_3 1_555 1_555
H18_3 C22_3 1_555 1_555
C26_3 H21_3 1_555 1_555
C27_3 C26_3 1_555 1_555
H22_3 C27_3 1_555 1_555
C29_3 C28_3 1_555 1_555
C30_3 N14_2 1_555 1_555
H24_3 C30_3 1_555 1_555
C71_3 P1_3 1_555 1_555
C72_3 C71_3 1_555 1_555
H54_3 C72_3 1_555 1_555
C73_3 C72_3 1_555 1_555
H55_3 C73_3 1_555 1_555
C74_3 C73_3 1_555 1_555
H56_3 C74_3 1_555 1_555
C75_3 C74_3 1_555 1_555
H57_3 C75_3 1_555 1_555
C4_3 C5_3 1_555 1_555
C27_3 C28_3 1_555 1_555
C29_3 C30_3 1_555 1_555
Cu2_3 P3_3 1_555 1_555
Cu6_2 P2_3 1_555 1_555
Cu4_2 P4_3 1_555 1_555
P2_3 C62_3 1_555 1_555
P3_3 C63_3 1_555 1_555
P4_3 C64_3 1_555 1_555
N4_3 Cu2_3 1_555 1_555
N5_3 Cu2_3 1_555 1_555
N7_3 Cu6_2 1_555 1_555
N8_3 Cu4_2 1_555 1_555
N9_3 Cu2_3 1_555 1_555
N15_2 C46_3 1_555 1_555
N11_3 Cu4_2 1_555 1_555
C11_3 N3_3 1_555 1_555
C12_3 C11_3 1_555 1_555
H10_3 C12_3 1_555 1_555
C13_3 C12_3 1_555 1_555
C14_3 C13_3 1_555 1_555
H11_3 C14_3 1_555 1_555
C15_3 N3_3 1_555 1_555
H12_3 C15_3 1_555 1_555
C16_3 N4_3 1_555 1_555
H13_3 C16_3 1_555 1_555
C17_3 C16_3 1_555 1_555
H14_3 C17_3 1_555 1_555
C18_3 C13_3 1_555 1_555
C19_3 C18_3 1_555 1_555
H15_3 C19_3 1_555 1_555
C20_3 N4_3 1_555 1_555
H16_3 C20_3 1_555 1_555
C21_3 N5_3 1_555 1_555
H17_3 C21_3 1_555 1_555
C24_3 C23_3 1_555 1_555
H19_3 C24_3 1_555 1_555
C25_3 N5_3 1_555 1_555
H20_3 C25_3 1_555 1_555
C31_3 N7_3 1_555 1_555
H25_3 C31_3 1_555 1_555
C32_3 C31_3 1_555 1_555
H26_3 C32_3 1_555 1_555
C33_3 C32_3 1_555 1_555
C34_3 C33_3 1_555 1_555
H27_3 C34_3 1_555 1_555
C35_3 N7_3 1_555 1_555
H28_3 C35_3 1_555 1_555
C36_3 N8_3 1_555 1_555
H29_3 C36_3 1_555 1_555
C37_3 C36_3 1_555 1_555
H30_3 C37_3 1_555 1_555
C38_3 C33_3 1_555 1_555
C39_3 C38_3 1_555 1_555
H31_3 C39_3 1_555 1_555
C40_3 N8_3 1_555 1_555
H32_3 C40_3 1_555 1_555
C41_3 N9_3 1_555 1_555
H33_3 C41_3 1_555 1_555
C42_3 C41_3 1_555 1_555
H34_3 C42_3 1_555 1_555
C43_3 C42_3 1_555 1_555
C44_3 C43_3 1_555 1_555
H35_3 C44_3 1_555 1_555
C45_3 N9_3 1_555 1_555
H36_3 C45_3 1_555 1_555
C46_3 H37_2 1_555 1_555
C47_3 C46_3 1_555 1_555
H38_3 C47_3 1_555 1_555
C48_3 C43_3 1_555 1_555
C49_3 C48_3 1_555 1_555
H39_3 C49_3 1_555 1_555
C50_3 N15_2 1_555 1_555
H40_3 C50_3 1_555 1_555
C51_3 N11_3 1_555 1_555
H41_3 C51_3 1_555 1_555
C52_3 C51_3 1_555 1_555
H42_3 C52_3 1_555 1_555
C53_3 C52_3 1_555 1_555
C54_3 C53_3 1_555 1_555
C55_3 N11_3 1_555 1_555
H44_3 C55_3 1_555 1_555
C61_3 C62_3 1_555 1_555
C63_3 C64_3 1_555 1_555
C83_3 P2_3 1_555 1_555
H66_3 C86_3 1_555 1_555
C87_3 C86_3 1_555 1_555
H67_3 C87_3 1_555 1_555
C88_3 C83_3 1_555 1_555
H68_3 C88_3 1_555 1_555
C89_3 P3_3 1_555 1_555
C90_3 C89_3 1_555 1_555
H69_3 C90_3 1_555 1_555
C91_3 C90_3 1_555 1_555
H70_3 C91_3 1_555 1_555
C92_3 C91_3 1_555 1_555
C93_3 C92_3 1_555 1_555
C94_3 C89_3 1_555 1_555
H73_3 C94_3 1_555 1_555
C95_3 P3_3 1_555 1_555
C96_3 C95_3 1_555 1_555
H74_3 C96_3 1_555 1_555
C97_3 C96_3 1_555 1_555
H75_3 C97_3 1_555 1_555
C98_3 C97_3 1_555 1_555
H76_3 C98_3 1_555 1_555
C99_3 C98_3 1_555 1_555
H77_3 C99_3 1_555 1_555
C100_3 C95_3 1_555 1_555
H78_3 C100_3 1_555 1_555
C101_3 P4_3 1_555 1_555
C102_3 C101_3 1_555 1_555
H79_3 C102_3 1_555 1_555
C103_3 C102_3 1_555 1_555
H80_3 C103_3 1_555 1_555
C104_3 C103_3 1_555 1_555
H81_3 C104_3 1_555 1_555
C105_3 C104_3 1_555 1_555
H82_3 C105_3 1_555 1_555
C106_3 C101_3 1_555 1_555
H83_3 C106_3 1_555 1_555
C107_3 P4_3 1_555 1_555
C108_3 C107_3 1_555 1_555
H84_3 C108_3 1_555 1_555
C109_3 C108_3 1_555 1_555
H85_3 C109_3 1_555 1_555
C110_3 C109_3 1_555 1_555
H86_3 C110_3 1_555 1_555
C111_3 C110_3 1_555 1_555
H87_3 C111_3 1_555 1_555
C112_3 C107_3 1_555 1_555
H88_3 C112_3 1_555 1_555
N16_2 Cu4_2 1_555 1_555
C14_3 C15_3 1_555 1_555
C17_3 C18_3 1_555 1_555
C19_3 C20_3 1_555 1_555
C24_3 C25_3 1_555 1_555
C34_3 C35_3 1_555 1_555
C37_3 C38_3 1_555 1_555
C39_3 C40_3 1_555 1_555
C44_3 C45_3 1_555 1_555
C47_3 C48_3 1_555 1_555
C49_3 C50_3 1_555 1_555
C54_3 C55_3 1_555 1_555
C87_3 C88_3 1_555 1_555
C93_3 C94_3 1_555 1_555
C99_3 C100_3 1_555 1_555
C105_3 C106_3 1_555 1_555
C111_3 C112_3 1_555 1_555
N2_2 C6_3 1_555 1_555
H2_3 C2_3 1_555 1_555
C6_3 H5_3 1_555 1_555
C7_3 C6_3 1_555 1_555
H6_3 C7_3 1_555 1_555
C9_3 C8_3 1_555 1_555
C10_3 N2_2 1_555 1_555
H8_3 C10_3 1_555 1_555
Cu5_2 N2_2 1_555 1_555
C7_3 C8_3 1_555 1_555
C9_3 C10_3 1_555 1_555
N12_2 C56_3 1_555 1_555
C56_3 H45_3 1_555 1_555
C57_3 C56_3 1_555 1_555
H46_3 C57_3 1_555 1_555
C59_3 C58_3 1_555 1_555
H47_3 C59_3 1_555 1_555
C60_3 N12_2 1_555 1_555
H48_3 C60_3 1_555 1_555
Cu8_2 N12_2 1_555 1_555
C57_3 C58_3 1_555 1_555
C59_3 C60_3 1_555 1_555
N13_2 C6_4 1_555 1_555
H2_4 C2_4 1_555 1_555
C6_4 H5_4 1_555 1_555
C7_4 C6_4 1_555 1_555
H6_4 C7_4 1_555 1_555
C9_4 C8_4 1_555 1_555
C10_4 N13_2 1_555 1_555
H8_4 C10_4 1_555 1_555
C7_4 C8_4 1_555 1_555
C9_4 C10_4 1_555 1_555
N16_2 C56_4 1_555 1_555
C56_4 H45_4 1_555 1_555
C57_4 C56_4 1_555 1_555
H46_4 C57_4 1_555 1_555
C59_4 C58_4 1_555 1_555
H47_4 C59_4 1_555 1_555
C60_4 N16_2 1_555 1_555
H48_4 C60_4 1_555 1_555
C57_4 C58_4 1_555 1_555
C59_4 C60_4 1_555 1_555
Cu5_2 P1_4 1_555 1_555
Cu2_4 P3_4 1_555 1_555
Cu6 P2_4 1_555 1_555
P1_4 C61_4 1_555 1_555
P2_4 C62_4 1_555 1_555
P3_4 C63_4 1_555 1_555
N1_4 Cu5_2 1_555 1_555
N3_4 Cu5_2 1_555 1_555
N4_4 Cu2_4 1_555 1_555
N5_4 Cu2_4 1_555 1_555
N14 C26_4 1_555 1_555
N7_4 Cu6 1_555 1_555
N8_4 Cu8_2 1_555 1_555
N9_4 Cu2_4 1_555 1_555
C1_4 N1_4 1_555 1_555
H1_4 C1_4 1_555 1_555
C4_4 C3_4 1_555 1_555
H3_4 C4_4 1_555 1_555
C5_4 N1_4 1_555 1_555
H4_4 C5_4 1_555 1_555
C11_4 N3_4 1_555 1_555
H9_4 C11_4 1_555 1_555
C12_4 C11_4 1_555 1_555
H10_4 C12_4 1_555 1_555
C13_4 C12_4 1_555 1_555
C14_4 C13_4 1_555 1_555
H11_4 C14_4 1_555 1_555
C15_4 N3_4 1_555 1_555
H12_4 C15_4 1_555 1_555
C16_4 N4_4 1_555 1_555
H13_4 C16_4 1_555 1_555
C17_4 C16_4 1_555 1_555
H14_4 C17_4 1_555 1_555
C18_4 C13_4 1_555 1_555
C19_4 C18_4 1_555 1_555
H15_4 C19_4 1_555 1_555
C20_4 N4_4 1_555 1_555
H16_4 C20_4 1_555 1_555
C21_4 N5_4 1_555 1_555
H17_4 C21_4 1_555 1_555
C22_4 C21_4 1_555 1_555
H18_4 C22_4 1_555 1_555
C23_4 C22_4 1_555 1_555
C24_4 C23_4 1_555 1_555
H19_4 C24_4 1_555 1_555
C25_4 N5_4 1_555 1_555
H20_4 C25_4 1_555 1_555
C26_4 H21_4 1_555 1_555
C27_4 C26_4 1_555 1_555
H22_4 C27_4 1_555 1_555
C28_4 C23_4 1_555 1_555
C29_4 C28_4 1_555 1_555
H23_4 C29_4 1_555 1_555
C30_4 N14 1_555 1_555
H24_4 C30_4 1_555 1_555
C31_4 N7_4 1_555 1_555
H25_4 C31_4 1_555 1_555
C32_4 C31_4 1_555 1_555
H26_4 C32_4 1_555 1_555
C33_4 C32_4 1_555 1_555
C34_4 C33_4 1_555 1_555
H27_4 C34_4 1_555 1_555
C35_4 N7_4 1_555 1_555
H28_4 C35_4 1_555 1_555
C36_4 N8_4 1_555 1_555
H29_4 C36_4 1_555 1_555
C37_4 C36_4 1_555 1_555
H30_4 C37_4 1_555 1_555
C38_4 C33_4 1_555 1_555
C39_4 C38_4 1_555 1_555
H31_4 C39_4 1_555 1_555
C40_4 N8_4 1_555 1_555
H32_4 C40_4 1_555 1_555
C41_4 N9_4 1_555 1_555
H33_4 C41_4 1_555 1_555
C42_4 C41_4 1_555 1_555
H34_4 C42_4 1_555 1_555
C43_4 C42_4 1_555 1_555
C44_4 C43_4 1_555 1_555
C45_4 N9_4 1_555 1_555
H36_4 C45_4 1_555 1_555
H38_4 C47_4 1_555 1_555
C61_4 C62_4 1_555 1_555
C63_4 C64_4 1_555 1_555
C71_4 P1_4 1_555 1_555
C72_4 C71_4 1_555 1_555
H54_4 C72_4 1_555 1_555
C73_4 C72_4 1_555 1_555
H55_4 C73_4 1_555 1_555
C74_4 C73_4 1_555 1_555
H56_4 C74_4 1_555 1_555
C75_4 C74_4 1_555 1_555
H57_4 C75_4 1_555 1_555
C83_4 P2_4 1_555 1_555
H66_4 C86_4 1_555 1_555
C87_4 C86_4 1_555 1_555
H67_4 C87_4 1_555 1_555
C88_4 C83_4 1_555 1_555
H68_4 C88_4 1_555 1_555
C89_4 P3_4 1_555 1_555
C90_4 C89_4 1_555 1_555
H69_4 C90_4 1_555 1_555
C91_4 C90_4 1_555 1_555
H70_4 C91_4 1_555 1_555
C92_4 C91_4 1_555 1_555
C93_4 C92_4 1_555 1_555
C94_4 C89_4 1_555 1_555
H73_4 C94_4 1_555 1_555
C95_4 P3_4 1_555 1_555
C96_4 C95_4 1_555 1_555
H74_4 C96_4 1_555 1_555
C97_4 C96_4 1_555 1_555
H75_4 C97_4 1_555 1_555
C98_4 C97_4 1_555 1_555
H76_4 C98_4 1_555 1_555
C99_4 C98_4 1_555 1_555
H77_4 C99_4 1_555 1_555
C100_4 C95_4 1_555 1_555
H78_4 C100_4 1_555 1_555
C4_4 C5_4 1_555 1_555
C14_4 C15_4 1_555 1_555
C17_4 C18_4 1_555 1_555
C19_4 C20_4 1_555 1_555
C24_4 C25_4 1_555 1_555
C27_4 C28_4 1_555 1_555
C29_4 C30_4 1_555 1_555
C34_4 C35_4 1_555 1_555
C37_4 C38_4 1_555 1_555
C39_4 C40_4 1_555 1_555
C44_4 C45_4 1_555 1_555
C87_4 C88_4 1_555 1_555
C93_4 C94_4 1_555 1_555
C99_4 C100_4 1_555 1_555
N15 C46_4 1_555 1_555
C46_4 H37_3 1_555 1_555
C49_4 C48_4 1_555 1_555
H39_4 C49_4 1_555 1_555
C50_4 N15 1_555 1_555
H40_4 C50_4 1_555 1_555
C51_4 N11_4 1_555 1_555
H41_4 C51_4 1_555 1_555
C52_4 C51_4 1_555 1_555
H42_4 C52_4 1_555 1_555
C53_4 C52_4 1_555 1_555
C54_4 C53_4 1_555 1_555
C55_4 N11_4 1_555 1_555
H44_4 C55_4 1_555 1_555
C101_4 P4_4 1_555 1_555
C102_4 C101_4 1_555 1_555
H79_4 C102_4 1_555 1_555
C103_4 C102_4 1_555 1_555
H80_4 C103_4 1_555 1_555
C104_4 C103_4 1_555 1_555
H81_4 C104_4 1_555 1_555
C105_4 C104_4 1_555 1_555
H82_4 C105_4 1_555 1_555
C106_4 C101_4 1_555 1_555
H83_4 C106_4 1_555 1_555
C107_4 P4_4 1_555 1_555
C108_4 C107_4 1_555 1_555
H84_4 C108_4 1_555 1_555
C109_4 C108_4 1_555 1_555
H85_4 C109_4 1_555 1_555
C110_4 C109_4 1_555 1_555
H86_4 C110_4 1_555 1_555
C111_4 C110_4 1_555 1_555
H87_4 C111_4 1_555 1_555
C112_4 C107_4 1_555 1_555
C49_4 C50_4 1_555 1_555
C54_4 C55_4 1_555 1_555
C105_4 C106_4 1_555 1_555
C111_4 C112_4 1_555 1_555
C66_3 C65_3 1_555 1_555
H49_3 C66_3 1_555 1_555
C67_3 C66_3 1_555 1_555
H50_3 C67_3 1_555 1_555
C68_3 C67_3 1_555 1_555
H51_3 C68_3 1_555 1_555
C69_3 C68_3 1_555 1_555
H52_3 C69_3 1_555 1_555
C70_3 C65_3 1_555 1_555
H53_3 C70_3 1_555 1_555
H58_3 C76_3 1_555 1_555
H60_3 C79_3 1_555 1_555
C69_3 C70_3 1_555 1_555
C78_3 C77_3 1_555 1_555
H59_3 C78_3 1_555 1_555
H61_3 C80_3 1_555 1_555
C81_3 C80_3 1_555 1_555
H62_3 C81_3 1_555 1_555
C82_3 C77_3 1_555 1_555
H63_3 C82_3 1_555 1_555
H64_3 C84_3 1_555 1_555
C85_3 C84_3 1_555 1_555
H65_3 C85_3 1_555 1_555
C81_3 C82_3 1_555 1_555
C66_4 C65_4 1_555 1_555
H49_4 C66_4 1_555 1_555
C67_4 C66_4 1_555 1_555
H50_4 C67_4 1_555 1_555
C68_4 C67_4 1_555 1_555
H51_4 C68_4 1_555 1_555
C69_4 C68_4 1_555 1_555
H52_4 C69_4 1_555 1_555
C70_4 C65_4 1_555 1_555
H53_4 C70_4 1_555 1_555
H58_4 C76_4 1_555 1_555
C78_4 C77_4 1_555 1_555
H59_4 C78_4 1_555 1_555
C79_4 C78_4 1_555 1_555
H60_4 C79_4 1_555 1_555
C80_4 C79_4 1_555 1_555
H61_4 C80_4 1_555 1_555
C81_4 C80_4 1_555 1_555
H62_4 C81_4 1_555 1_555
C82_4 C77_4 1_555 1_555
H63_4 C82_4 1_555 1_555
H64_4 C84_4 1_555 1_555
C85_4 C84_4 1_555 1_555
H65_4 C85_4 1_555 1_555
C69_4 C70_4 1_555 1_555
C81_4 C82_4 1_555 1_555
B1 F1 1_555 1_555
F2 B1 1_555 1_555
F3 B1 1_555 1_555
F4 B1 1_555 1_555
B1_2 F1_2 1_555 1_555
F2_2 B1_2 1_555 1_555
F3_2 B1_2 1_555 1_555
F4_2 B1_2 1_555 1_555
B1_3 F1_3 1_555 1_555
F2_3 B1_3 1_555 1_555
F3_3 B1_3 1_555 1_555
F4_3 B1_3 1_555 1_555
B1_4 F1_4 1_555 1_555
F2_4 B1_4 1_555 1_555
F3_4 B1_4 1_555 1_555
F4_4 B1_4 1_555 1_555
B2 F5 1_555 1_555
F6 B2 1_555 1_555
F7 B2 1_555 1_555
F8 B2 1_555 1_555
B2_2 F5_2 1_555 1_555
F6_2 B2_2 1_555 1_555
F7_2 B2_2 1_555 1_555
F8_2 B2_2 1_555 1_555
B2_3 F5_3 1_555 1_555
F6_3 B2_3 1_555 1_555
F7_3 B2_3 1_555 1_555
F8_3 B2_3 1_555 1_555
B2_4 F5_4 1_555 1_555
F6_4 B2_4 1_555 1_555
F7_4 B2_4 1_555 1_555
F8_4 B2_4 1_555 1_555
B3 F9 1_555 1_555
F10 B3 1_555 1_555
F11 B3 1_555 1_555
F12 B3 1_555 1_555
B3_2 F9_2 1_555 1_555
F10_2 B3_2 1_555 1_555
F11_2 B3_2 1_555 1_555
F12_2 B3_2 1_555 1_555
B3_3 F9_3 1_555 1_555
F10_3 B3_3 1_555 1_555
F11_3 B3_3 1_555 1_555
F12_3 B3_3 1_555 1_555
B3_4 F9_4 1_555 1_555
F10_4 B3_4 1_555 1_555
F11_4 B3_4 1_555 1_555
F12_4 B3_4 1_555 1_555
F14 B4 1_555 1_555
F15 B4 1_555 1_555
F16 B4 1_555 1_555
F14_2 B4_2 1_555 1_555
F15_2 B4_2 1_555 1_555
F16_2 B4_2 1_555 1_555
B4_3 F13_3 1_555 1_555
F14_3 B4_3 1_555 1_555
F15_3 B4_3 1_555 1_555
F16_3 B4_3 1_555 1_555
B4_4 F13_4 1_555 1_555
F14_4 B4_4 1_555 1_555
F15_4 B4_4 1_555 1_555
F16_4 B4_4 1_555 1_555

#END
