
###############################################################################
#
# This file contains modified crystal structure data generated from the
# MOF subset of the Cambridge Structural Database (CSD) v543 
# hosted by the Cambridge Crystallographic Data Centre (CCDC).
#
# This work is licensed under the Creative Commons
# Attribution-NonCommercial-ShareAlike 4.0 International License.
# To view a copy of this license, visit
# http://creativecommons.org/licenses/by-nc-sa/4.0/
# or send a letter to
# Creative Commons, PO Box 1866, Mountain View, CA 94042, USA.
#
# CIF created using the CSD Python API on 29 September 2022
# The structure has been converted into the P1 space group
# The structure has a 3D framework
# The original CSD entry KUBXOW is in the monoclinic crystal system
# The framework has been calculated to contain at least 10.0% void space
# The void calculation uses a probe of radius 1.32A, grid spacing 0.4
#
###############################################################################

data_KUBXOW
_chemical_formula_moiety         '(C96 H64 Mg6 N8 O14)n'
_symmetry_cell_setting           triclinic
_symmetry_space_group_name_H-M   'P 1'
_symmetry_Int_Tables_number      1
_space_group_name_Hall           'P 1'
loop_
_symmetry_equiv_pos_site_id
_symmetry_equiv_pos_as_xyz
1 x,y,z
_cell_length_a                   19.0449(7)
_cell_length_b                   15.5344(5)
_cell_length_c                   8.4791(4)
_cell_angle_alpha                90
_cell_angle_beta                 110.522(5)
_cell_angle_gamma                90
_cell_volume                     2349.35
loop_
_atom_site_label
_atom_site_type_symbol
_atom_site_fract_x
_atom_site_fract_y
_atom_site_fract_z
Mg5 Mg -0.0000 0.42584(6) 0.2500
O1 O 0.43721(9) 0.01637(11) 0.0913(2)
C3 C 0.29016(18) 0.0435(2) 0.0711(4)
H1 H 0.3200 0.0068 0.1544
C4 C 0.2182(2) 0.0632(3) 0.0641(6)
H2 H 0.1995 0.0391 0.1418
N2 N 0.93633(12) 0.32331(13) 0.0645(3)
H15 H 0.8185 0.1675 0.0067
C24 C 0.89327(16) 0.26331(18) 0.0976(4)
H16 H 0.8935 0.2589 0.2071
Mg5_2 Mg 1.0000 0.42584(6) 0.2500
Mg1 Mg 0.5000 0.07416(6) 0.7500
O2 O 0.41785(9) 0.08928(11) 0.8539(2)
N1 N 0.06367(12) 0.32331(13) 0.4355(3)
C1 C 0.39719(13) 0.05876(14) 0.9675(3)
C2 C 0.31762(14) 0.07797(16) 0.9553(3)
C5 C 0.1741(2) 0.1187(3) 0.9415(5)
H3 H 0.1266 0.1334 0.9402
C6 C 0.19991(16) 0.1526(2) 0.8206(4)
C7 C 0.27207(14) 0.13119(16) 0.8292(3)
H4 H 0.2902 0.1530 0.7487
C8 C 0.06439(16) 0.32625(19) 0.5937(4)
H5 H 0.0351 0.3676 0.6204
C9 C 0.10609(17) 0.2715(2) 0.7191(4)
H6 H 0.1032 0.2755 0.8261
C10 C 0.15218(15) 0.21060(18) 0.6868(4)
C11 C 0.15169(17) 0.20727(19) 0.5225(4)
H7 H 0.1815 0.1675 0.4933
C12 C 0.10673(16) 0.26331(18) 0.4024(4)
H8 H 0.1065 0.2589 0.2929
O3 O 0.56279(9) 0.01637(11) 0.4087(2)
O4 O 0.58215(9) 0.08928(11) 0.6461(2)
C13 C 0.60281(13) 0.05876(14) 0.5325(3)
C14 C 0.68238(14) 0.07797(16) 0.5447(3)
C15 C 0.70984(18) 0.0435(2) 0.4289(4)
H9 H 0.6800 0.0068 0.3456
C16 C 0.7818(2) 0.0632(3) 0.4359(6)
H10 H 0.8005 0.0391 0.3582
C17 C 0.8259(2) 0.1187(3) 0.5585(5)
H11 H 0.8734 0.1334 0.5598
C18 C 0.80009(16) 0.1526(2) 0.6794(4)
C19 C 0.72793(14) 0.13119(16) 0.6708(3)
H12 H 0.7098 0.1530 0.7513
C20 C 0.93561(16) 0.32625(19) 0.9063(4)
H13 H 0.9649 0.3676 0.8796
C21 C 0.89391(17) 0.2715(2) 0.7809(4)
H14 H 0.8968 0.2755 0.6739
C22 C 0.84782(15) 0.21060(18) 0.8132(4)
C23 C 0.84831(17) 0.20727(19) 0.9775(4)
N3 N 0.43633(12) 0.17669(13) 0.5645(3)
N4 N 0.56367(12) 0.17669(13) 0.9355(3)
Mg3 Mg 0.5000 0.92584(6) 0.2500
O5 O 0.56279(9) 0.98363(11) 0.9087(2)
O6 O 0.43721(9) 0.98363(11) 0.5913(2)
N2_2 N 0.43633(12) 0.82331(13) 0.0645(3)
H15_2 H 0.3185 0.6675 0.0067
C24_2 C 0.39327(16) 0.76331(18) 0.0976(4)
H16_2 H 0.3935 0.7589 0.2071
Mg1_2 Mg -0.0000 0.57416(6) 0.7500
O3_2 O 0.06279(9) 0.51637(11) 0.4087(2)
O4_2 O 0.08215(9) 0.58928(11) 0.6461(2)
C13_2 C 0.10281(13) 0.55876(14) 0.5325(3)
C14_2 C 0.18238(14) 0.57797(16) 0.5447(3)
C15_2 C 0.20984(18) 0.5435(2) 0.4289(4)
H9_2 H 0.1800 0.5068 0.3456
C16_2 C 0.2818(2) 0.5632(3) 0.4359(6)
H10_2 H 0.3005 0.5391 0.3582
C17_2 C 0.3259(2) 0.6187(3) 0.5585(5)
H11_2 H 0.3734 0.6334 0.5598
C18_2 C 0.30009(16) 0.6526(2) 0.6794(4)
C19_2 C 0.22793(14) 0.63119(16) 0.6708(3)
H12_2 H 0.2098 0.6530 0.7513
C20_2 C 0.43561(16) 0.82625(19) 0.9063(4)
H13_2 H 0.4649 0.8676 0.8796
C21_2 C 0.39391(17) 0.7715(2) 0.7809(4)
H14_2 H 0.3968 0.7755 0.6739
C22_2 C 0.34782(15) 0.71060(18) 0.8132(4)
C23_2 C 0.34831(17) 0.70727(19) 0.9775(4)
O5_2 O 0.06279(9) 0.48363(11) 0.9087(2)
N4_2 N 0.06367(12) 0.67669(13) 0.9355(3)
O1_2 O 0.93721(9) 0.51637(11) 0.0913(2)
C3_2 C 0.79016(18) 0.5435(2) 0.0711(4)
H1_2 H 0.8200 0.5068 0.1544
C4_2 C 0.7182(2) 0.5632(3) 0.0641(6)
H2_2 H 0.6995 0.5391 0.1418
Mg1_3 Mg 1.0000 0.57416(6) 0.7500
O2_2 O 0.91785(9) 0.58928(11) 0.8539(2)
N1_2 N 0.56367(12) 0.82331(13) 0.4355(3)
C1_2 C 0.89719(13) 0.55876(14) 0.9675(3)
C2_2 C 0.81762(14) 0.57797(16) 0.9553(3)
C5_2 C 0.6741(2) 0.6187(3) 0.9415(5)
H3_2 H 0.6266 0.6334 0.9402
C6_2 C 0.69991(16) 0.6526(2) 0.8206(4)
C7_2 C 0.77207(14) 0.63119(16) 0.8292(3)
H4_2 H 0.7902 0.6530 0.7487
C8_2 C 0.56439(16) 0.82625(19) 0.5937(4)
H5_2 H 0.5351 0.8676 0.6204
C9_2 C 0.60609(17) 0.7715(2) 0.7191(4)
H6_2 H 0.6032 0.7755 0.8261
C10_2 C 0.65218(15) 0.71060(18) 0.6868(4)
C11_2 C 0.65169(17) 0.70727(19) 0.5225(4)
H7_2 H 0.6815 0.6675 0.4933
C12_2 C 0.60673(16) 0.76331(18) 0.4024(4)
H8_2 H 0.6065 0.7589 0.2929
O6_2 O 0.93721(9) 0.48363(11) 0.5913(2)
N3_2 N 0.93633(12) 0.67669(13) 0.5645(3)
O2_3 O 0.58215(9) 0.91072(11) 0.1461(2)
C1_3 C 0.60281(13) 0.94124(14) 0.0325(3)
C2_3 C 0.68238(14) 0.92203(16) 0.0447(3)
C5_3 C 0.8259(2) 0.8813(3) 0.0585(5)
H3_3 H 0.8734 0.8666 0.0598
C6_3 C 0.80009(16) 0.8474(2) 0.1794(4)
C7_3 C 0.72793(14) 0.86881(16) 0.1708(3)
H4_3 H 0.7098 0.8470 0.2513
C8_3 C 0.93561(16) 0.67375(19) 0.4063(4)
H5_3 H 0.9649 0.6324 0.3796
C9_3 C 0.89391(17) 0.7285(2) 0.2809(4)
H6_3 H 0.8968 0.7245 0.1739
C10_3 C 0.84782(15) 0.78940(18) 0.3132(4)
C11_3 C 0.84831(17) 0.79273(19) 0.4775(4)
H7_3 H 0.8185 0.8325 0.5067
C12_3 C 0.89327(16) 0.73669(18) 0.5976(4)
H8_3 H 0.8935 0.7411 0.7071
O4_3 O 0.41785(9) 0.91072(11) 0.3539(2)
C13_3 C 0.39719(13) 0.94124(14) 0.4675(3)
C14_3 C 0.31762(14) 0.92203(16) 0.4553(3)
C15_3 C 0.29016(18) 0.9565(2) 0.5711(4)
H9_3 H 0.3200 0.9932 0.6544
C16_3 C 0.2182(2) 0.9368(3) 0.5641(6)
H10_3 H 0.1995 0.9609 0.6418
C17_3 C 0.1741(2) 0.8813(3) 0.4415(5)
H11_3 H 0.1266 0.8666 0.4402
C18_3 C 0.19991(16) 0.8474(2) 0.3206(4)
C19_3 C 0.27207(14) 0.86881(16) 0.3292(3)
H12_3 H 0.2902 0.8470 0.2487
C20_3 C 0.06439(16) 0.67375(19) 0.0937(4)
H13_3 H 0.0351 0.6324 0.1204
C21_3 C 0.10609(17) 0.7285(2) 0.2191(4)
H14_3 H 0.1032 0.7245 0.3261
C22_3 C 0.15218(15) 0.78940(18) 0.1868(4)
C23_3 C 0.15169(17) 0.79273(19) 0.0225(4)
C3_3 C 0.70984(18) 0.9565(2) 0.9289(4)
H1_3 H 0.6800 0.9932 0.8456
C4_3 C 0.7818(2) 0.9368(3) 0.9359(6)
H2_3 H 0.8005 0.9609 0.8582
H15_3 H 0.1815 0.8325 0.9933
C24_3 C 0.10673(16) 0.73669(18) 0.9024(4)
H16_3 H 0.1065 0.7411 0.7929
O2_4 O 0.08215(9) 0.41072(11) 0.1461(2)
C1_4 C 0.10281(13) 0.44124(14) 0.0325(3)
C2_4 C 0.18238(14) 0.42203(16) 0.0447(3)
C5_4 C 0.3259(2) 0.3813(3) 0.0585(5)
H3_4 H 0.3734 0.3666 0.0598
C6_4 C 0.30009(16) 0.3474(2) 0.1794(4)
C7_4 C 0.22793(14) 0.36881(16) 0.1708(3)
H4_4 H 0.2098 0.3470 0.2513
C8_4 C 0.43561(16) 0.17375(19) 0.4063(4)
H5_4 H 0.4649 0.1324 0.3796
C9_4 C 0.39391(17) 0.2285(2) 0.2809(4)
H6_4 H 0.3968 0.2245 0.1739
C10_4 C 0.34782(15) 0.28940(18) 0.3132(4)
C11_4 C 0.34831(17) 0.29273(19) 0.4775(4)
H7_4 H 0.3185 0.3325 0.5067
C12_4 C 0.39327(16) 0.23669(18) 0.5976(4)
H8_4 H 0.3935 0.2411 0.7071
C3_4 C 0.20984(18) 0.4565(2) 0.9289(4)
H1_4 H 0.1800 0.4932 0.8456
C4_4 C 0.2818(2) 0.4368(3) 0.9359(6)
H2_4 H 0.3005 0.4609 0.8582
O4_4 O 0.91785(9) 0.41072(11) 0.3539(2)
C13_4 C 0.89719(13) 0.44124(14) 0.4675(3)
C14_4 C 0.81762(14) 0.42203(16) 0.4553(3)
C15_4 C 0.79016(18) 0.4565(2) 0.5711(4)
H9_4 H 0.8200 0.4932 0.6544
C16_4 C 0.7182(2) 0.4368(3) 0.5641(6)
H10_4 H 0.6995 0.4609 0.6418
C17_4 C 0.6741(2) 0.3813(3) 0.4415(5)
H11_4 H 0.6266 0.3666 0.4402
C18_4 C 0.69991(16) 0.3474(2) 0.3206(4)
C19_4 C 0.77207(14) 0.36881(16) 0.3292(3)
H12_4 H 0.7902 0.3470 0.2487
C20_4 C 0.56439(16) 0.17375(19) 0.0937(4)
H13_4 H 0.5351 0.1324 0.1204
C21_4 C 0.60609(17) 0.2285(2) 0.2191(4)
H14_4 H 0.6032 0.2245 0.3261
C22_4 C 0.65218(15) 0.28940(18) 0.1868(4)
C23_4 C 0.65169(17) 0.29273(19) 0.0225(4)
H15_4 H 0.6815 0.3325 0.9933
C24_4 C 0.60673(16) 0.23669(18) 0.9024(4)
H16_4 H 0.6065 0.2411 0.7929
loop_
_geom_bond_atom_site_label_1
_geom_bond_atom_site_label_2
_geom_bond_site_symmetry_1
_geom_bond_site_symmetry_2
C3 H1 1_555 1_555
C4 C3 1_555 1_555
H2 C4 1_555 1_555
C24 N2 1_555 1_555
H16 C24 1_555 1_555
Mg5_2 N2 1_555 1_555
Mg1 O2 1_555 1_555
O2 C1 1_555 1_555
N1 C8 1_555 1_555
C1 C2 1_555 1_555
H3 C5 1_555 1_555
C6 C5 1_555 1_555
C7 C2 1_555 1_555
H4 C7 1_555 1_555
C8 H5 1_555 1_555
C9 C8 1_555 1_555
H6 C9 1_555 1_555
C10 C6 1_555 1_555
C11 C10 1_555 1_555
H7 C11 1_555 1_555
C12 N1 1_555 1_555
H8 C12 1_555 1_555
O3 C13 1_555 1_555
O4 Mg1 1_555 1_555
C13 O4 1_555 1_555
C14 C13 1_555 1_555
C15 C14 1_555 1_555
H9 C15 1_555 1_555
C16 C15 1_555 1_555
H10 C16 1_555 1_555
C17 C16 1_555 1_555
H11 C17 1_555 1_555
C18 C17 1_555 1_555
C19 C14 1_555 1_555
H12 C19 1_555 1_555
C20 H13 1_555 1_555
C21 C20 1_555 1_555
H14 C21 1_555 1_555
C22 C18 1_555 1_555
C23 C22 1_555 1_555
Mg5 N1 1_555 1_555
N3 Mg1 1_555 1_555
N4 Mg1 1_555 1_555
C6 C7 1_555 1_555
C9 C10 1_555 1_555
C11 C12 1_555 1_555
C18 C19 1_555 1_555
C21 C22 1_555 1_555
C24_2 N2_2 1_555 1_555
H16_2 C24_2 1_555 1_555
Mg3 N2_2 1_555 1_555
O3_2 C13_2 1_555 1_555
O4_2 Mg1_2 1_555 1_555
C13_2 O4_2 1_555 1_555
C14_2 C13_2 1_555 1_555
C15_2 C14_2 1_555 1_555
H9_2 C15_2 1_555 1_555
C16_2 C15_2 1_555 1_555
H10_2 C16_2 1_555 1_555
C17_2 C16_2 1_555 1_555
H11_2 C17_2 1_555 1_555
C18_2 C17_2 1_555 1_555
C19_2 C14_2 1_555 1_555
H12_2 C19_2 1_555 1_555
C20_2 H13_2 1_555 1_555
C21_2 C20_2 1_555 1_555
H14_2 C21_2 1_555 1_555
C22_2 C18_2 1_555 1_555
C23_2 C22_2 1_555 1_555
Mg5 O3_2 1_555 1_555
O5_2 Mg1_2 1_555 1_555
N4_2 Mg1_2 1_555 1_555
C18_2 C19_2 1_555 1_555
C21_2 C22_2 1_555 1_555
C3_2 H1_2 1_555 1_555
C4_2 C3_2 1_555 1_555
H2_2 C4_2 1_555 1_555
Mg5_2 O1_2 1_555 1_555
Mg1_3 O2_2 1_555 1_555
O2_2 C1_2 1_555 1_555
N1_2 C8_2 1_555 1_555
C1_2 C2_2 1_555 1_555
H3_2 C5_2 1_555 1_555
C6_2 C5_2 1_555 1_555
C7_2 C2_2 1_555 1_555
H4_2 C7_2 1_555 1_555
C8_2 H5_2 1_555 1_555
C9_2 C8_2 1_555 1_555
H6_2 C9_2 1_555 1_555
C10_2 C6_2 1_555 1_555
C11_2 C10_2 1_555 1_555
H7_2 C11_2 1_555 1_555
C12_2 N1_2 1_555 1_555
H8_2 C12_2 1_555 1_555
Mg3 N1_2 1_555 1_555
O6_2 Mg1_3 1_555 1_555
N3_2 Mg1_3 1_555 1_555
C6_2 C7_2 1_555 1_555
C9_2 C10_2 1_555 1_555
C11_2 C12_2 1_555 1_555
Mg3 O2_3 1_555 1_555
O2_3 C1_3 1_555 1_555
N3_2 C8_3 1_555 1_555
C1_3 C2_3 1_555 1_555
H3_3 C5_3 1_555 1_555
C6_3 C5_3 1_555 1_555
C7_3 C2_3 1_555 1_555
H4_3 C7_3 1_555 1_555
C8_3 H5_3 1_555 1_555
C9_3 C8_3 1_555 1_555
H6_3 C9_3 1_555 1_555
C10_3 C6_3 1_555 1_555
C11_3 C10_3 1_555 1_555
H7_3 C11_3 1_555 1_555
C12_3 N3_2 1_555 1_555
H8_3 C12_3 1_555 1_555
O6 C13_3 1_555 1_555
O4_3 Mg3 1_555 1_555
C13_3 O4_3 1_555 1_555
C14_3 C13_3 1_555 1_555
C15_3 C14_3 1_555 1_555
H9_3 C15_3 1_555 1_555
C16_3 C15_3 1_555 1_555
H10_3 C16_3 1_555 1_555
C17_3 C16_3 1_555 1_555
H11_3 C17_3 1_555 1_555
C18_3 C17_3 1_555 1_555
C19_3 C14_3 1_555 1_555
H12_3 C19_3 1_555 1_555
C20_3 H13_3 1_555 1_555
C21_3 C20_3 1_555 1_555
H14_3 C21_3 1_555 1_555
C22_3 C18_3 1_555 1_555
C23_3 C22_3 1_555 1_555
C6_3 C7_3 1_555 1_555
C9_3 C10_3 1_555 1_555
C11_3 C12_3 1_555 1_555
C18_3 C19_3 1_555 1_555
C21_3 C22_3 1_555 1_555
C3_3 H1_3 1_555 1_555
C4_3 C3_3 1_555 1_555
H2_3 C4_3 1_555 1_555
C24_3 N4_2 1_555 1_555
H16_3 C24_3 1_555 1_555
Mg5 O2_4 1_555 1_555
O2_4 C1_4 1_555 1_555
N3 C8_4 1_555 1_555
C1_4 C2_4 1_555 1_555
H3_4 C5_4 1_555 1_555
C6_4 C5_4 1_555 1_555
C7_4 C2_4 1_555 1_555
H4_4 C7_4 1_555 1_555
C8_4 H5_4 1_555 1_555
C9_4 C8_4 1_555 1_555
H6_4 C9_4 1_555 1_555
C10_4 C6_4 1_555 1_555
C11_4 C10_4 1_555 1_555
H7_4 C11_4 1_555 1_555
C12_4 N3 1_555 1_555
H8_4 C12_4 1_555 1_555
C6_4 C7_4 1_555 1_555
C9_4 C10_4 1_555 1_555
C11_4 C12_4 1_555 1_555
C3_4 H1_4 1_555 1_555
C4_4 C3_4 1_555 1_555
H2_4 C4_4 1_555 1_555
O6_2 C13_4 1_555 1_555
O4_4 Mg5_2 1_555 1_555
C13_4 O4_4 1_555 1_555
C14_4 C13_4 1_555 1_555
C15_4 C14_4 1_555 1_555
H9_4 C15_4 1_555 1_555
C16_4 C15_4 1_555 1_555
H10_4 C16_4 1_555 1_555
C17_4 C16_4 1_555 1_555
H11_4 C17_4 1_555 1_555
C18_4 C17_4 1_555 1_555
C19_4 C14_4 1_555 1_555
H12_4 C19_4 1_555 1_555
C20_4 H13_4 1_555 1_555
C21_4 C20_4 1_555 1_555
H14_4 C21_4 1_555 1_555
C22_4 C18_4 1_555 1_555
C23_4 C22_4 1_555 1_555
C18_4 C19_4 1_555 1_555
C21_4 C22_4 1_555 1_555
C24_4 N4 1_555 1_555
H16_4 C24_4 1_555 1_555

#END
