
###############################################################################
#
# This file contains modified crystal structure data generated from the
# MOF subset of the Cambridge Structural Database (CSD) v543 
# hosted by the Cambridge Crystallographic Data Centre (CCDC).
#
# This work is licensed under the Creative Commons
# Attribution-NonCommercial-ShareAlike 4.0 International License.
# To view a copy of this license, visit
# http://creativecommons.org/licenses/by-nc-sa/4.0/
# or send a letter to
# Creative Commons, PO Box 1866, Mountain View, CA 94042, USA.
#
# CIF created using the CSD Python API on 29 September 2022
# The structure has been converted into the P1 space group
# The structure has a 3D framework
# The original CSD entry KUCDIW is in the cubic crystal system
# The original CSD entry KUCDIW is in a Sohncke space group
# The framework has been calculated to contain at least 10.0% void space
# The void calculation uses a probe of radius 1.32A, grid spacing 0.4
#
###############################################################################

data_KUCDIW
_chemical_formula_moiety         '(C384 H480 B24 Cu24 N192)n'
_symmetry_cell_setting           triclinic
_symmetry_space_group_name_H-M   'P 1'
_symmetry_Int_Tables_number      1
_space_group_name_Hall           'P 1'
loop_
_symmetry_equiv_pos_site_id
_symmetry_equiv_pos_as_xyz
1 x,y,z
_cell_length_a                   26.81520(10)
_cell_length_b                   26.81520(10)
_cell_length_c                   26.81520(10)
_cell_angle_alpha                90
_cell_angle_beta                 90
_cell_angle_gamma                90
_cell_volume                     19281.6
loop_
_atom_site_label
_atom_site_type_symbol
_atom_site_fract_x
_atom_site_fract_y
_atom_site_fract_z
Cu1 Cu 0.246725(18) 0.38951(2) 0.10842(2)
B1 B 0.0989(2) 0.40114(19) 0.24908(17)
N1 N 0.13353(14) 0.37414(13) 0.21157(13)
N2 N 0.19411(15) 0.36425(14) 0.15523(14)
C1 C 0.17377(16) 0.39438(16) 0.18869(16)
H1 H 0.1861 0.4268 0.1959
C2 C 0.16586(19) 0.32145(16) 0.15681(18)
C3 C 0.12837(19) 0.32771(18) 0.19056(18)
H2 H 0.1031 0.3041 0.1982
C4 C 0.1787(3) 0.2771(2) 0.1249(3)
H3 H 0.1622 0.2473 0.1383
H4 H 0.2149 0.2720 0.1251
H5 H 0.1673 0.2830 0.0907
N3 N 0.11889(13) 0.45375(13) 0.25879(13)
N4 N 0.12889(15) 0.53578(14) 0.25553(14)
C5 C 0.10088(16) 0.49775(17) 0.24294(15)
H6 H 0.0708 0.5010 0.2244
C6 C 0.16803(18) 0.51529(17) 0.28199(17)
C7 C 0.16221(17) 0.46558(18) 0.28440(18)
H7 H 0.1838 0.4427 0.3007
C8 C 0.2082(3) 0.5472(2) 0.3034(2)
H8 H 0.2331 0.5260 0.3198
H9 H 0.1937 0.5702 0.3279
H10 H 0.2241 0.5663 0.2767
N5 N 0.09758(13) 0.37363(13) 0.29994(13)
N6 N 0.10087(14) 0.31487(14) 0.35821(14)
C9 C 0.10918(16) 0.32598(16) 0.31136(15)
H11 H 0.1221 0.3029 0.2878
C10 C 0.08232(17) 0.35836(17) 0.37921(16)
C11 C 0.08015(17) 0.39385(17) 0.34400(16)
H12 H 0.0687 0.4271 0.3486
C12 C 0.0681(2) 0.3630(2) 0.43332(19)
H13 H 0.0532 0.3958 0.4393
H14 H 0.0980 0.3592 0.4541
H15 H 0.0440 0.3369 0.4418
N7 N 0.04594(13) 0.40230(13) 0.22687(13)
C13 C 0.00287(17) 0.39088(15) 0.24921(15)
H16 H 0.0007 0.3797 0.2828
C15 C 0.03249(18) 0.41584(18) 0.17886(17)
H17 H 0.0546 0.4257 0.1530
Cu2 Cu 0.10842(2) 0.61049(2) 0.246725(18)
Cu4 Cu 0.10842(2) 0.246725(18) 0.38951(2)
Cu6 Cu 0.38951(2) 0.753275(18) 0.10842(2)
B2 B 0.24908(17) 0.59886(19) 0.0989(2)
N9 N 0.21157(13) 0.62586(13) 0.13353(14)
N10 N 0.15523(14) 0.63575(14) 0.19411(15)
C17 C 0.18869(16) 0.60562(16) 0.17377(16)
H21 H 0.1959 0.5732 0.1861
C18 C 0.15681(18) 0.67855(16) 0.16586(19)
C19 C 0.19056(18) 0.67229(18) 0.12837(19)
H22 H 0.1982 0.6959 0.1031
C20 C 0.1249(3) 0.7229(2) 0.1787(3)
H23 H 0.1383 0.7527 0.1622
H24 H 0.1251 0.7280 0.2149
H25 H 0.0907 0.7170 0.1673
N11 N 0.25879(13) 0.54625(13) 0.11889(13)
N12 N 0.25553(14) 0.46422(14) 0.12889(15)
C21 C 0.24294(15) 0.50225(17) 0.10088(16)
H26 H 0.2244 0.4990 0.0708
C22 C 0.28199(17) 0.48471(17) 0.16803(18)
C23 C 0.28440(18) 0.53442(18) 0.16221(17)
H27 H 0.3007 0.5573 0.1838
C24 C 0.3034(2) 0.4528(2) 0.2082(3)
H28 H 0.3198 0.4740 0.2331
H29 H 0.3279 0.4298 0.1937
H30 H 0.2767 0.4337 0.2241
N13 N 0.29994(13) 0.62637(13) 0.09758(13)
N14 N 0.35821(14) 0.68513(14) 0.10087(14)
N15 N 0.31487(14) 0.35821(14) 0.10087(14)
N16 N 0.10087(14) 0.64179(14) 0.31487(14)
C25 C 0.31136(15) 0.67402(16) 0.10918(16)
H31 H 0.2878 0.6971 0.1221
C26 C 0.37921(16) 0.64164(17) 0.08232(17)
C27 C 0.34400(16) 0.60615(17) 0.08015(17)
H32 H 0.3486 0.5729 0.0687
C28 C 0.43332(19) 0.6370(2) 0.0681(2)
H33 H 0.4393 0.6042 0.0532
H34 H 0.4541 0.6408 0.0980
H35 H 0.4418 0.6631 0.0440
N17 N 0.22687(13) 0.59770(13) 0.04594(13)
N19 N 0.22018(14) 0.39660(14) 0.03609(14)
N20 N 0.03609(14) 0.60340(14) 0.22018(14)
C29 C 0.24921(15) 0.60912(15) 0.00287(17)
H36 H 0.2828 0.6203 0.0007
C31 C 0.17886(17) 0.58416(18) 0.03249(18)
H37 H 0.1530 0.5743 0.0546
Cu3 Cu 0.246725(18) 0.61049(2) 0.89158(2)
N18 N 0.22018(14) 0.60340(14) 0.96391(14)
C30 C 0.17540(17) 0.58753(17) 0.98259(18)
C32 C 0.1313(2) 0.5768(2) 0.9491(2)
H38 H 0.1239 0.6062 0.9288
H39 H 0.1022 0.5685 0.9695
H40 H 0.1392 0.5486 0.9272
N8 N 0.96391(14) 0.39660(14) 0.22018(14)
C14 C 0.98259(18) 0.41247(17) 0.17540(17)
C16 C 0.9491(2) 0.4232(2) 0.1313(2)
H18 H 0.9288 0.3938 0.1239
H19 H 0.9695 0.4315 0.1022
H20 H 0.9272 0.4514 0.1392
Cu5 Cu 0.89158(2) 0.38951(2) 0.246725(18)
C14_2 C 0.01741(18) 0.58753(17) 0.17540(17)
C16_2 C 0.0509(2) 0.5768(2) 0.1313(2)
H18_2 H 0.0712 0.6062 0.1239
H19_2 H 0.0305 0.5685 0.1022
H20_2 H 0.0728 0.5486 0.1392
Cu1_2 Cu 0.753275(18) 0.61049(2) 0.10842(2)
B1_2 B 0.9011(2) 0.59886(19) 0.24908(17)
N1_2 N 0.86647(14) 0.62586(13) 0.21157(13)
N2_2 N 0.80589(15) 0.63575(14) 0.15523(14)
C1_2 C 0.82623(16) 0.60562(16) 0.18869(16)
H1_2 H 0.8139 0.5732 0.1959
C2_2 C 0.83414(19) 0.67855(16) 0.15681(18)
C3_2 C 0.87163(19) 0.67229(18) 0.19056(18)
H2_2 H 0.8969 0.6959 0.1982
C4_2 C 0.8213(3) 0.7229(2) 0.1249(3)
H3_2 H 0.8378 0.7527 0.1383
H4_2 H 0.7851 0.7280 0.1251
H5_2 H 0.8327 0.7170 0.0907
N3_2 N 0.88111(13) 0.54625(13) 0.25879(13)
N4_2 N 0.87111(15) 0.46422(14) 0.25553(14)
C5_2 C 0.89912(16) 0.50225(17) 0.24294(15)
H6_2 H 0.9292 0.4990 0.2244
C6_2 C 0.83197(18) 0.48471(17) 0.28199(17)
C7_2 C 0.83779(17) 0.53442(18) 0.28440(18)
H7_2 H 0.8162 0.5573 0.3007
C8_2 C 0.7918(3) 0.4528(2) 0.3034(2)
H8_2 H 0.7669 0.4740 0.3198
H9_2 H 0.8063 0.4298 0.3279
H10_2 H 0.7759 0.4337 0.2767
N5_2 N 0.90242(13) 0.62637(13) 0.29994(13)
N6_2 N 0.89913(14) 0.68513(14) 0.35821(14)
C9_2 C 0.89082(16) 0.67402(16) 0.31136(15)
H11_2 H 0.8779 0.6971 0.2878
C10_2 C 0.91768(17) 0.64164(17) 0.37921(16)
C11_2 C 0.91985(17) 0.60615(17) 0.34400(16)
H12_2 H 0.9313 0.5729 0.3486
C12_2 C 0.9319(2) 0.6370(2) 0.43332(19)
H13_2 H 0.9468 0.6042 0.4393
H14_2 H 0.9020 0.6408 0.4541
H15_2 H 0.9560 0.6631 0.4418
N7_2 N 0.95406(13) 0.59770(13) 0.22687(13)
C13_2 C 0.99713(17) 0.60912(15) 0.24921(15)
H16_2 H 0.9993 0.6203 0.2828
C15_2 C 0.96751(18) 0.58416(18) 0.17886(17)
H17_2 H 0.9454 0.5743 0.1530
Cu4_2 Cu 0.89158(2) 0.753275(18) 0.38951(2)
Cu6_2 Cu 0.61049(2) 0.246725(18) 0.10842(2)
B2_2 B 0.75092(17) 0.40114(19) 0.0989(2)
N9_2 N 0.78843(13) 0.37414(13) 0.13353(14)
N10_2 N 0.84477(14) 0.36425(14) 0.19411(15)
C17_2 C 0.81131(16) 0.39438(16) 0.17377(16)
H21_2 H 0.8041 0.4268 0.1861
C18_2 C 0.84319(18) 0.32145(16) 0.16586(19)
C19_2 C 0.80944(18) 0.32771(18) 0.12837(19)
H22_2 H 0.8018 0.3041 0.1031
C20_2 C 0.8751(3) 0.2771(2) 0.1787(3)
H23_2 H 0.8617 0.2473 0.1622
H24_2 H 0.8749 0.2720 0.2149
H25_2 H 0.9093 0.2830 0.1673
N11_2 N 0.74121(13) 0.45375(13) 0.11889(13)
N12_2 N 0.74447(14) 0.53578(14) 0.12889(15)
C21_2 C 0.75706(15) 0.49775(17) 0.10088(16)
H26_2 H 0.7756 0.5010 0.0708
C22_2 C 0.71801(17) 0.51529(17) 0.16803(18)
C23_2 C 0.71560(18) 0.46558(18) 0.16221(17)
H27_2 H 0.6993 0.4427 0.1838
C24_2 C 0.6966(2) 0.5472(2) 0.2082(3)
H28_2 H 0.6802 0.5260 0.2331
H29_2 H 0.6721 0.5702 0.1937
H30_2 H 0.7233 0.5663 0.2241
N13_2 N 0.70006(13) 0.37363(13) 0.09758(13)
N14_2 N 0.64179(14) 0.31487(14) 0.10087(14)
N15_2 N 0.68513(14) 0.64179(14) 0.10087(14)
N16_2 N 0.89913(14) 0.35821(14) 0.31487(14)
C25_2 C 0.68864(15) 0.32598(16) 0.10918(16)
H31_2 H 0.7122 0.3029 0.1221
C26_2 C 0.62079(16) 0.35836(17) 0.08232(17)
C27_2 C 0.65600(16) 0.39385(17) 0.08015(17)
H32_2 H 0.6514 0.4271 0.0687
C28_2 C 0.56668(19) 0.3630(2) 0.0681(2)
H33_2 H 0.5607 0.3958 0.0532
H34_2 H 0.5459 0.3592 0.0980
H35_2 H 0.5582 0.3369 0.0440
N17_2 N 0.77313(13) 0.40230(13) 0.04594(13)
N19_2 N 0.77982(14) 0.60340(14) 0.03609(14)
C29_2 C 0.75079(15) 0.39088(15) 0.00287(17)
H36_2 H 0.7172 0.3797 0.0007
C31_2 C 0.82114(17) 0.41584(18) 0.03249(18)
H37_2 H 0.8470 0.4257 0.0546
Cu3_2 Cu 0.753275(18) 0.38951(2) 0.89158(2)
N18_2 N 0.77982(14) 0.39660(14) 0.96391(14)
C30_2 C 0.82460(17) 0.41247(17) 0.98259(18)
C32_2 C 0.8687(2) 0.4232(2) 0.9491(2)
H38_2 H 0.8761 0.3938 0.9288
H39_2 H 0.8978 0.4315 0.9695
H40_2 H 0.8608 0.4514 0.9272
N8_2 N 0.03609(14) 0.39660(14) 0.77982(14)
C14_3 C 0.01741(18) 0.41247(17) 0.82460(17)
C16_3 C 0.0509(2) 0.4232(2) 0.8687(2)
H18_3 H 0.0712 0.3938 0.8761
H19_3 H 0.0305 0.4315 0.8978
H20_3 H 0.0728 0.4514 0.8608
Cu5_2 Cu 0.10842(2) 0.38951(2) 0.753275(18)
C30_3 C 0.82460(17) 0.58753(17) 0.01741(18)
C32_3 C 0.8687(2) 0.5768(2) 0.0509(2)
H38_3 H 0.8761 0.6062 0.0712
H39_3 H 0.8978 0.5685 0.0305
H40_3 H 0.8608 0.5486 0.0728
B1_3 B 0.9011(2) 0.40114(19) 0.75092(17)
N1_3 N 0.86647(14) 0.37414(13) 0.78843(13)
N2_3 N 0.80589(15) 0.36425(14) 0.84477(14)
C1_3 C 0.82623(16) 0.39438(16) 0.81131(16)
H1_3 H 0.8139 0.4268 0.8041
C2_3 C 0.83414(19) 0.32145(16) 0.84319(18)
C3_3 C 0.87163(19) 0.32771(18) 0.80944(18)
H2_3 H 0.8969 0.3041 0.8018
C4_3 C 0.8213(3) 0.2771(2) 0.8751(3)
H3_3 H 0.8378 0.2473 0.8617
H4_3 H 0.7851 0.2720 0.8749
H5_3 H 0.8327 0.2830 0.9093
N3_3 N 0.88111(13) 0.45375(13) 0.74121(13)
N4_3 N 0.87111(15) 0.53578(14) 0.74447(14)
C5_3 C 0.89912(16) 0.49775(17) 0.75706(15)
H6_3 H 0.9292 0.5010 0.7756
C6_3 C 0.83197(18) 0.51529(17) 0.71801(17)
C7_3 C 0.83779(17) 0.46558(18) 0.71560(18)
H7_3 H 0.8162 0.4427 0.6993
C8_3 C 0.7918(3) 0.5472(2) 0.6966(2)
H8_3 H 0.7669 0.5260 0.6802
H9_3 H 0.8063 0.5702 0.6721
H10_3 H 0.7759 0.5663 0.7233
N5_3 N 0.90242(13) 0.37363(13) 0.70006(13)
N6_3 N 0.89913(14) 0.31487(14) 0.64179(14)
C9_3 C 0.89082(16) 0.32598(16) 0.68864(15)
H11_3 H 0.8779 0.3029 0.7122
C10_3 C 0.91768(17) 0.35836(17) 0.62079(16)
C11_3 C 0.91985(17) 0.39385(17) 0.65600(16)
H12_3 H 0.9313 0.4271 0.6514
C12_3 C 0.9319(2) 0.3630(2) 0.56668(19)
H13_3 H 0.9468 0.3958 0.5607
H14_3 H 0.9020 0.3592 0.5459
H15_3 H 0.9560 0.3369 0.5582
N7_3 N 0.95406(13) 0.40230(13) 0.77313(13)
C13_3 C 0.99713(17) 0.39088(15) 0.75079(15)
H16_3 H 0.9993 0.3797 0.7172
C15_3 C 0.96751(18) 0.41584(18) 0.82114(17)
H17_3 H 0.9454 0.4257 0.8470
Cu2_2 Cu 0.89158(2) 0.61049(2) 0.753275(18)
Cu4_3 Cu 0.89158(2) 0.246725(18) 0.61049(2)
Cu6_3 Cu 0.61049(2) 0.753275(18) 0.89158(2)
B2_3 B 0.75092(17) 0.59886(19) 0.9011(2)
N9_3 N 0.78843(13) 0.62586(13) 0.86647(14)
N10_3 N 0.84477(14) 0.63575(14) 0.80589(15)
C17_3 C 0.81131(16) 0.60562(16) 0.82623(16)
H21_3 H 0.8041 0.5732 0.8139
C18_3 C 0.84319(18) 0.67855(16) 0.83414(19)
C19_3 C 0.80944(18) 0.67229(18) 0.87163(19)
H22_3 H 0.8018 0.6959 0.8969
C20_3 C 0.8751(3) 0.7229(2) 0.8213(3)
H23_3 H 0.8617 0.7527 0.8378
H24_3 H 0.8749 0.7280 0.7851
H25_3 H 0.9093 0.7170 0.8327
N11_3 N 0.74121(13) 0.54625(13) 0.88111(13)
N12_3 N 0.74447(14) 0.46422(14) 0.87111(15)
C21_3 C 0.75706(15) 0.50225(17) 0.89912(16)
H26_3 H 0.7756 0.4990 0.9292
C22_3 C 0.71801(17) 0.48471(17) 0.83197(18)
C23_3 C 0.71560(18) 0.53442(18) 0.83779(17)
H27_3 H 0.6993 0.5573 0.8162
C24_3 C 0.6966(2) 0.4528(2) 0.7918(3)
H28_3 H 0.6802 0.4740 0.7669
H29_3 H 0.6721 0.4298 0.8063
H30_3 H 0.7233 0.4337 0.7759
N13_3 N 0.70006(13) 0.62637(13) 0.90242(13)
N14_3 N 0.64179(14) 0.68513(14) 0.89913(14)
N15_3 N 0.68513(14) 0.35821(14) 0.89913(14)
N16_3 N 0.89913(14) 0.64179(14) 0.68513(14)
C25_3 C 0.68864(15) 0.67402(16) 0.89082(16)
H31_3 H 0.7122 0.6971 0.8779
C26_3 C 0.62079(16) 0.64164(17) 0.91768(17)
C27_3 C 0.65600(16) 0.60615(17) 0.91985(17)
H32_3 H 0.6514 0.5729 0.9313
C28_3 C 0.56668(19) 0.6370(2) 0.9319(2)
H33_3 H 0.5607 0.6042 0.9468
H34_3 H 0.5459 0.6408 0.9020
H35_3 H 0.5582 0.6631 0.9560
N17_3 N 0.77313(13) 0.59770(13) 0.95406(13)
N20_2 N 0.96391(14) 0.60340(14) 0.77982(14)
C29_3 C 0.75079(15) 0.60912(15) 0.99713(17)
H36_3 H 0.7172 0.6203 0.9993
C31_3 C 0.82114(17) 0.58416(18) 0.96751(18)
H37_3 H 0.8470 0.5743 0.9454
C30_4 C 0.17540(17) 0.41247(17) 0.01741(18)
C32_4 C 0.1313(2) 0.4232(2) 0.0509(2)
H38_4 H 0.1239 0.3938 0.0712
H39_4 H 0.1022 0.4315 0.0305
H40_4 H 0.1392 0.4514 0.0728
B1_4 B 0.0989(2) 0.59886(19) 0.75092(17)
N1_4 N 0.13353(14) 0.62586(13) 0.78843(13)
N2_4 N 0.19411(15) 0.63575(14) 0.84477(14)
C1_4 C 0.17377(16) 0.60562(16) 0.81131(16)
H1_4 H 0.1861 0.5732 0.8041
C2_4 C 0.16586(19) 0.67855(16) 0.84319(18)
C3_4 C 0.12837(19) 0.67229(18) 0.80944(18)
H2_4 H 0.1031 0.6959 0.8018
C4_4 C 0.1787(3) 0.7229(2) 0.8751(3)
H3_4 H 0.1622 0.7527 0.8617
H4_4 H 0.2149 0.7280 0.8749
H5_4 H 0.1673 0.7170 0.9093
N3_4 N 0.11889(13) 0.54625(13) 0.74121(13)
N4_4 N 0.12889(15) 0.46422(14) 0.74447(14)
C5_4 C 0.10088(16) 0.50225(17) 0.75706(15)
H6_4 H 0.0708 0.4990 0.7756
C6_4 C 0.16803(18) 0.48471(17) 0.71801(17)
C7_4 C 0.16221(17) 0.53442(18) 0.71560(18)
H7_4 H 0.1838 0.5573 0.6993
C8_4 C 0.2082(3) 0.4528(2) 0.6966(2)
H8_4 H 0.2331 0.4740 0.6802
H9_4 H 0.1937 0.4298 0.6721
H10_4 H 0.2241 0.4337 0.7233
N5_4 N 0.09758(13) 0.62637(13) 0.70006(13)
N6_4 N 0.10087(14) 0.68513(14) 0.64179(14)
C9_4 C 0.10918(16) 0.67402(16) 0.68864(15)
H11_4 H 0.1221 0.6971 0.7122
C10_4 C 0.08232(17) 0.64164(17) 0.62079(16)
C11_4 C 0.08015(17) 0.60615(17) 0.65600(16)
H12_4 H 0.0687 0.5729 0.6514
C12_4 C 0.0681(2) 0.6370(2) 0.56668(19)
H13_4 H 0.0532 0.6042 0.5607
H14_4 H 0.0980 0.6408 0.5459
H15_4 H 0.0440 0.6631 0.5582
N7_4 N 0.04594(13) 0.59770(13) 0.77313(13)
C13_4 C 0.00287(17) 0.60912(15) 0.75079(15)
H16_4 H 0.0007 0.6203 0.7172
C15_4 C 0.03249(18) 0.58416(18) 0.82114(17)
H17_4 H 0.0546 0.5743 0.8470
Cu4_4 Cu 0.10842(2) 0.753275(18) 0.61049(2)
Cu6_4 Cu 0.38951(2) 0.246725(18) 0.89158(2)
B2_4 B 0.24908(17) 0.40114(19) 0.9011(2)
N9_4 N 0.21157(13) 0.37414(13) 0.86647(14)
N10_4 N 0.15523(14) 0.36425(14) 0.80589(15)
C17_4 C 0.18869(16) 0.39438(16) 0.82623(16)
H21_4 H 0.1959 0.4268 0.8139
C18_4 C 0.15681(18) 0.32145(16) 0.83414(19)
C19_4 C 0.19056(18) 0.32771(18) 0.87163(19)
H22_4 H 0.1982 0.3041 0.8969
C20_4 C 0.1249(3) 0.2771(2) 0.8213(3)
H23_4 H 0.1383 0.2473 0.8378
H24_4 H 0.1251 0.2720 0.7851
H25_4 H 0.0907 0.2830 0.8327
N11_4 N 0.25879(13) 0.45375(13) 0.88111(13)
N12_4 N 0.25553(14) 0.53578(14) 0.87111(15)
C21_4 C 0.24294(15) 0.49775(17) 0.89912(16)
H26_4 H 0.2244 0.5010 0.9292
C22_4 C 0.28199(17) 0.51529(17) 0.83197(18)
C23_4 C 0.28440(18) 0.46558(18) 0.83779(17)
H27_4 H 0.3007 0.4427 0.8162
C24_4 C 0.3034(2) 0.5472(2) 0.7918(3)
H28_4 H 0.3198 0.5260 0.7669
H29_4 H 0.3279 0.5702 0.8063
H30_4 H 0.2767 0.5663 0.7759
N13_4 N 0.29994(13) 0.37363(13) 0.90242(13)
N14_4 N 0.35821(14) 0.31487(14) 0.89913(14)
N15_4 N 0.31487(14) 0.64179(14) 0.89913(14)
N16_4 N 0.10087(14) 0.35821(14) 0.68513(14)
C25_4 C 0.31136(15) 0.32598(16) 0.89082(16)
H31_4 H 0.2878 0.3029 0.8779
C26_4 C 0.37921(16) 0.35836(17) 0.91768(17)
C27_4 C 0.34400(16) 0.39385(17) 0.91985(17)
H32_4 H 0.3486 0.4271 0.9313
C28_4 C 0.43332(19) 0.3630(2) 0.9319(2)
H33_4 H 0.4393 0.3958 0.9468
H34_4 H 0.4541 0.3592 0.9020
H35_4 H 0.4418 0.3369 0.9560
N17_4 N 0.22687(13) 0.40230(13) 0.95406(13)
C29_4 C 0.24921(15) 0.39088(15) 0.99713(17)
H36_4 H 0.2828 0.3797 0.9993
C31_4 C 0.17886(17) 0.41584(18) 0.96751(18)
H37_4 H 0.1530 0.4257 0.9454
C14_4 C 0.98259(18) 0.58753(17) 0.82460(17)
C16_4 C 0.9491(2) 0.5768(2) 0.8687(2)
H18_4 H 0.9288 0.6062 0.8761
H19_4 H 0.9695 0.5685 0.8978
H20_4 H 0.9272 0.5486 0.8608
B1_5 B 0.24908(17) 0.0989(2) 0.40114(19)
N1_5 N 0.21157(13) 0.13353(14) 0.37414(13)
N2_5 N 0.15523(14) 0.19411(15) 0.36425(14)
C1_5 C 0.18869(16) 0.17377(16) 0.39438(16)
H1_5 H 0.1959 0.1861 0.4268
C2_5 C 0.15681(18) 0.16586(19) 0.32145(16)
C3_5 C 0.19056(18) 0.12837(19) 0.32771(18)
H2_5 H 0.1982 0.1031 0.3041
C4_5 C 0.1249(3) 0.1787(3) 0.2771(2)
H3_5 H 0.1383 0.1622 0.2473
H4_5 H 0.1251 0.2149 0.2720
H5_5 H 0.0907 0.1673 0.2830
N3_5 N 0.25879(13) 0.11889(13) 0.45375(13)
N4_5 N 0.25553(14) 0.12889(15) 0.53578(14)
C5_5 C 0.24294(15) 0.10088(16) 0.49775(17)
H6_5 H 0.2244 0.0708 0.5010
C6_5 C 0.28199(17) 0.16803(18) 0.51529(17)
C7_5 C 0.28440(18) 0.16221(17) 0.46558(18)
H7_5 H 0.3007 0.1838 0.4427
C8_5 C 0.3034(2) 0.2082(3) 0.5472(2)
H8_5 H 0.3198 0.2331 0.5260
H9_5 H 0.3279 0.1937 0.5702
H10_5 H 0.2767 0.2241 0.5663
N5_5 N 0.29994(13) 0.09758(13) 0.37363(13)
N6_5 N 0.35821(14) 0.10087(14) 0.31487(14)
C9_5 C 0.31136(15) 0.10918(16) 0.32598(16)
H11_5 H 0.2878 0.1221 0.3029
C10_5 C 0.37921(16) 0.08232(17) 0.35836(17)
C11_5 C 0.34400(16) 0.08015(17) 0.39385(17)
H12_5 H 0.3486 0.0687 0.4271
C12_5 C 0.43332(19) 0.0681(2) 0.3630(2)
H13_5 H 0.4393 0.0532 0.3958
H14_5 H 0.4541 0.0980 0.3592
H15_5 H 0.4418 0.0440 0.3369
N7_5 N 0.22687(13) 0.04594(13) 0.40230(13)
C13_5 C 0.24921(15) 0.00287(17) 0.39088(15)
H16_5 H 0.2828 0.0007 0.3797
C15_5 C 0.17886(17) 0.03249(18) 0.41584(18)
H17_5 H 0.1530 0.0546 0.4257
Cu2_3 Cu 0.246725(18) 0.10842(2) 0.61049(2)
Cu4_5 Cu 0.38951(2) 0.10842(2) 0.246725(18)
B2_5 B 0.0989(2) 0.24908(17) 0.59886(19)
N9_5 N 0.13353(14) 0.21157(13) 0.62586(13)
N10_5 N 0.19411(15) 0.15523(14) 0.63575(14)
C17_5 C 0.17377(16) 0.18869(16) 0.60562(16)
H21_5 H 0.1861 0.1959 0.5732
C18_5 C 0.16586(19) 0.15681(18) 0.67855(16)
C19_5 C 0.12837(19) 0.19056(18) 0.67229(18)
H22_5 H 0.1031 0.1982 0.6959
C20_5 C 0.1787(3) 0.1249(3) 0.7229(2)
H23_5 H 0.1622 0.1383 0.7527
H24_5 H 0.2149 0.1251 0.7280
H25_5 H 0.1673 0.0907 0.7170
N11_5 N 0.11889(13) 0.25879(13) 0.54625(13)
N12_5 N 0.12889(15) 0.25553(14) 0.46422(14)
C21_5 C 0.10088(16) 0.24294(15) 0.50225(17)
H26_5 H 0.0708 0.2244 0.4990
C22_5 C 0.16803(18) 0.28199(17) 0.48471(17)
C23_5 C 0.16221(17) 0.28440(18) 0.53442(18)
H27_5 H 0.1838 0.3007 0.5573
C24_5 C 0.2082(3) 0.3034(2) 0.4528(2)
H28_5 H 0.2331 0.3198 0.4740
H29_5 H 0.1937 0.3279 0.4298
H30_5 H 0.2241 0.2767 0.4337
N13_5 N 0.09758(13) 0.29994(13) 0.62637(13)
N16_5 N 0.31487(14) 0.10087(14) 0.64179(14)
C25_5 C 0.10918(16) 0.31136(15) 0.67402(16)
H31_5 H 0.1221 0.2878 0.6971
C26_5 C 0.08232(17) 0.37921(16) 0.64164(17)
C27_5 C 0.08015(17) 0.34400(16) 0.60615(17)
H32_5 H 0.0687 0.3486 0.5729
C28_5 C 0.0681(2) 0.43332(19) 0.6370(2)
H33_5 H 0.0532 0.4393 0.6042
H34_5 H 0.0980 0.4541 0.6408
H35_5 H 0.0440 0.4418 0.6631
N17_5 N 0.04594(13) 0.22687(13) 0.59770(13)
N19_3 N 0.03609(14) 0.22018(14) 0.39660(14)
N20_3 N 0.22018(14) 0.03609(14) 0.60340(14)
C29_5 C 0.00287(17) 0.24921(15) 0.60912(15)
H36_5 H 0.0007 0.2828 0.6203
C31_5 C 0.03249(18) 0.17886(17) 0.58416(18)
H37_5 H 0.0546 0.1530 0.5743
N8_3 N 0.22018(14) 0.96391(14) 0.39660(14)
C14_5 C 0.17540(17) 0.98259(18) 0.41247(17)
C16_5 C 0.1313(2) 0.9491(2) 0.4232(2)
H18_5 H 0.1239 0.9288 0.3938
H19_5 H 0.1022 0.9695 0.4315
H20_5 H 0.1392 0.9272 0.4514
Cu5_3 Cu 0.246725(18) 0.89158(2) 0.38951(2)
N18_3 N 0.96391(14) 0.22018(14) 0.60340(14)
C30_5 C 0.98259(18) 0.17540(17) 0.58753(17)
C32_5 C 0.9491(2) 0.1313(2) 0.5768(2)
H38_5 H 0.9288 0.1239 0.6062
H39_5 H 0.9695 0.1022 0.5685
H40_5 H 0.9272 0.1392 0.5486
C14_6 C 0.17540(17) 0.01741(18) 0.58753(17)
C16_6 C 0.1313(2) 0.0509(2) 0.5768(2)
H18_6 H 0.1239 0.0712 0.6062
H19_6 H 0.1022 0.0305 0.5685
H20_6 H 0.1392 0.0728 0.5486
B1_6 B 0.24908(17) 0.9011(2) 0.59886(19)
N1_6 N 0.21157(13) 0.86647(14) 0.62586(13)
N2_6 N 0.15523(14) 0.80589(15) 0.63575(14)
C1_6 C 0.18869(16) 0.82623(16) 0.60562(16)
H1_6 H 0.1959 0.8139 0.5732
C2_6 C 0.15681(18) 0.83414(19) 0.67855(16)
C3_6 C 0.19056(18) 0.87163(19) 0.67229(18)
H2_6 H 0.1982 0.8969 0.6959
C4_6 C 0.1249(3) 0.8213(3) 0.7229(2)
H3_6 H 0.1383 0.8378 0.7527
H4_6 H 0.1251 0.7851 0.7280
H5_6 H 0.0907 0.8327 0.7170
N3_6 N 0.25879(13) 0.88111(13) 0.54625(13)
N4_6 N 0.25553(14) 0.87111(15) 0.46422(14)
C5_6 C 0.24294(15) 0.89912(16) 0.50225(17)
H6_6 H 0.2244 0.9292 0.4990
C6_6 C 0.28199(17) 0.83197(18) 0.48471(17)
C7_6 C 0.28440(18) 0.83779(17) 0.53442(18)
H7_6 H 0.3007 0.8162 0.5573
C8_6 C 0.3034(2) 0.7918(3) 0.4528(2)
H8_6 H 0.3198 0.7669 0.4740
H9_6 H 0.3279 0.8063 0.4298
H10_6 H 0.2767 0.7759 0.4337
N5_6 N 0.29994(13) 0.90242(13) 0.62637(13)
N6_6 N 0.35821(14) 0.89913(14) 0.68513(14)
C9_6 C 0.31136(15) 0.89082(16) 0.67402(16)
H11_6 H 0.2878 0.8779 0.6971
C10_6 C 0.37921(16) 0.91768(17) 0.64164(17)
C11_6 C 0.34400(16) 0.91985(17) 0.60615(17)
H12_6 H 0.3486 0.9313 0.5729
C12_6 C 0.43332(19) 0.9319(2) 0.6370(2)
H13_6 H 0.4393 0.9468 0.6042
H14_6 H 0.4541 0.9020 0.6408
H15_6 H 0.4418 0.9560 0.6631
N7_6 N 0.22687(13) 0.95406(13) 0.59770(13)
C13_6 C 0.24921(15) 0.99713(17) 0.60912(15)
H16_6 H 0.2828 0.9993 0.6203
C15_6 C 0.17886(17) 0.96751(18) 0.58416(18)
H17_6 H 0.1530 0.9454 0.5743
Cu4_6 Cu 0.38951(2) 0.89158(2) 0.753275(18)
B2_6 B 0.0989(2) 0.75092(17) 0.40114(19)
N9_6 N 0.13353(14) 0.78843(13) 0.37414(13)
N10_6 N 0.19411(15) 0.84477(14) 0.36425(14)
C17_6 C 0.17377(16) 0.81131(16) 0.39438(16)
H21_6 H 0.1861 0.8041 0.4268
C18_6 C 0.16586(19) 0.84319(18) 0.32145(16)
C19_6 C 0.12837(19) 0.80944(18) 0.32771(18)
H22_6 H 0.1031 0.8018 0.3041
C20_6 C 0.1787(3) 0.8751(3) 0.2771(2)
H23_6 H 0.1622 0.8617 0.2473
H24_6 H 0.2149 0.8749 0.2720
H25_6 H 0.1673 0.9093 0.2830
N11_6 N 0.11889(13) 0.74121(13) 0.45375(13)
N12_6 N 0.12889(15) 0.74447(14) 0.53578(14)
C21_6 C 0.10088(16) 0.75706(15) 0.49775(17)
H26_6 H 0.0708 0.7756 0.5010
C22_6 C 0.16803(18) 0.71801(17) 0.51529(17)
C23_6 C 0.16221(17) 0.71560(18) 0.46558(18)
H27_6 H 0.1838 0.6993 0.4427
C24_6 C 0.2082(3) 0.6966(2) 0.5472(2)
H28_6 H 0.2331 0.6802 0.5260
H29_6 H 0.1937 0.6721 0.5702
H30_6 H 0.2241 0.7233 0.5663
N13_6 N 0.09758(13) 0.70006(13) 0.37363(13)
N16_6 N 0.31487(14) 0.89913(14) 0.35821(14)
C25_6 C 0.10918(16) 0.68864(15) 0.32598(16)
H31_6 H 0.1221 0.7122 0.3029
C26_6 C 0.08232(17) 0.62079(16) 0.35836(17)
C27_6 C 0.08015(17) 0.65600(16) 0.39385(17)
H32_6 H 0.0687 0.6514 0.4271
C28_6 C 0.0681(2) 0.56668(19) 0.3630(2)
H33_6 H 0.0532 0.5607 0.3958
H34_6 H 0.0980 0.5459 0.3592
H35_6 H 0.0440 0.5582 0.3369
N17_6 N 0.04594(13) 0.77313(13) 0.40230(13)
N19_4 N 0.03609(14) 0.77982(14) 0.60340(14)
C29_6 C 0.00287(17) 0.75079(15) 0.39088(15)
H36_6 H 0.0007 0.7172 0.3797
C31_6 C 0.03249(18) 0.82114(17) 0.41584(18)
H37_6 H 0.0546 0.8470 0.4257
N18_4 N 0.96391(14) 0.77982(14) 0.39660(14)
C30_6 C 0.98259(18) 0.82460(17) 0.41247(17)
C32_6 C 0.9491(2) 0.8687(2) 0.4232(2)
H38_6 H 0.9288 0.8761 0.3938
H39_6 H 0.9695 0.8978 0.4315
H40_6 H 0.9272 0.8608 0.4514
C30_7 C 0.01741(18) 0.82460(17) 0.58753(17)
C32_7 C 0.0509(2) 0.8687(2) 0.5768(2)
H38_7 H 0.0712 0.8761 0.6062
H39_7 H 0.0305 0.8978 0.5685
H40_7 H 0.0728 0.8608 0.5486
N8_4 N 0.77982(14) 0.03609(14) 0.39660(14)
C14_7 C 0.82460(17) 0.01741(18) 0.41247(17)
C16_7 C 0.8687(2) 0.0509(2) 0.4232(2)
H18_7 H 0.8761 0.0712 0.3938
H19_7 H 0.8978 0.0305 0.4315
H20_7 H 0.8608 0.0728 0.4514
Cu5_4 Cu 0.753275(18) 0.10842(2) 0.38951(2)
B1_7 B 0.75092(17) 0.9011(2) 0.40114(19)
N1_7 N 0.78843(13) 0.86647(14) 0.37414(13)
N2_7 N 0.84477(14) 0.80589(15) 0.36425(14)
C1_7 C 0.81131(16) 0.82623(16) 0.39438(16)
H1_7 H 0.8041 0.8139 0.4268
C2_7 C 0.84319(18) 0.83414(19) 0.32145(16)
C3_7 C 0.80944(18) 0.87163(19) 0.32771(18)
H2_7 H 0.8018 0.8969 0.3041
C4_7 C 0.8751(3) 0.8213(3) 0.2771(2)
H3_7 H 0.8617 0.8378 0.2473
H4_7 H 0.8749 0.7851 0.2720
H5_7 H 0.9093 0.8327 0.2830
N3_7 N 0.74121(13) 0.88111(13) 0.45375(13)
N4_7 N 0.74447(14) 0.87111(15) 0.53578(14)
C5_7 C 0.75706(15) 0.89912(16) 0.49775(17)
H6_7 H 0.7756 0.9292 0.5010
C6_7 C 0.71801(17) 0.83197(18) 0.51529(17)
C7_7 C 0.71560(18) 0.83779(17) 0.46558(18)
H7_7 H 0.6993 0.8162 0.4427
C8_7 C 0.6966(2) 0.7918(3) 0.5472(2)
H8_7 H 0.6802 0.7669 0.5260
H9_7 H 0.6721 0.8063 0.5702
H10_7 H 0.7233 0.7759 0.5663
N5_7 N 0.70006(13) 0.90242(13) 0.37363(13)
N6_7 N 0.64179(14) 0.89913(14) 0.31487(14)
C9_7 C 0.68864(15) 0.89082(16) 0.32598(16)
H11_7 H 0.7122 0.8779 0.3029
C10_7 C 0.62079(16) 0.91768(17) 0.35836(17)
C11_7 C 0.65600(16) 0.91985(17) 0.39385(17)
H12_7 H 0.6514 0.9313 0.4271
C12_7 C 0.56668(19) 0.9319(2) 0.3630(2)
H13_7 H 0.5607 0.9468 0.3958
H14_7 H 0.5459 0.9020 0.3592
H15_7 H 0.5582 0.9560 0.3369
N7_7 N 0.77313(13) 0.95406(13) 0.40230(13)
C13_7 C 0.75079(15) 0.99713(17) 0.39088(15)
H16_7 H 0.7172 0.9993 0.3797
C15_7 C 0.82114(17) 0.96751(18) 0.41584(18)
H17_7 H 0.8470 0.9454 0.4257
Cu2_4 Cu 0.753275(18) 0.89158(2) 0.61049(2)
Cu4_7 Cu 0.61049(2) 0.89158(2) 0.246725(18)
B2_7 B 0.9011(2) 0.75092(17) 0.59886(19)
N9_7 N 0.86647(14) 0.78843(13) 0.62586(13)
N10_7 N 0.80589(15) 0.84477(14) 0.63575(14)
C17_7 C 0.82623(16) 0.81131(16) 0.60562(16)
H21_7 H 0.8139 0.8041 0.5732
C18_7 C 0.83414(19) 0.84319(18) 0.67855(16)
C19_7 C 0.87163(19) 0.80944(18) 0.67229(18)
H22_7 H 0.8969 0.8018 0.6959
C20_7 C 0.8213(3) 0.8751(3) 0.7229(2)
H23_7 H 0.8378 0.8617 0.7527
H24_7 H 0.7851 0.8749 0.7280
H25_7 H 0.8327 0.9093 0.7170
N11_7 N 0.88111(13) 0.74121(13) 0.54625(13)
N12_7 N 0.87111(15) 0.74447(14) 0.46422(14)
C21_7 C 0.89912(16) 0.75706(15) 0.50225(17)
H26_7 H 0.9292 0.7756 0.4990
C22_7 C 0.83197(18) 0.71801(17) 0.48471(17)
C23_7 C 0.83779(17) 0.71560(18) 0.53442(18)
H27_7 H 0.8162 0.6993 0.5573
C24_7 C 0.7918(3) 0.6966(2) 0.4528(2)
H28_7 H 0.7669 0.6802 0.4740
H29_7 H 0.8063 0.6721 0.4298
H30_7 H 0.7759 0.7233 0.4337
N13_7 N 0.90242(13) 0.70006(13) 0.62637(13)
N16_7 N 0.68513(14) 0.89913(14) 0.64179(14)
C25_7 C 0.89082(16) 0.68864(15) 0.67402(16)
H31_7 H 0.8779 0.7122 0.6971
C26_7 C 0.91768(17) 0.62079(16) 0.64164(17)
C27_7 C 0.91985(17) 0.65600(16) 0.60615(17)
H32_7 H 0.9313 0.6514 0.5729
C28_7 C 0.9319(2) 0.56668(19) 0.6370(2)
H33_7 H 0.9468 0.5607 0.6042
H34_7 H 0.9020 0.5459 0.6408
H35_7 H 0.9560 0.5582 0.6631
N17_7 N 0.95406(13) 0.77313(13) 0.59770(13)
N20_4 N 0.77982(14) 0.96391(14) 0.60340(14)
C29_7 C 0.99713(17) 0.75079(15) 0.60912(15)
H36_7 H 0.9993 0.7172 0.6203
C31_7 C 0.96751(18) 0.82114(17) 0.58416(18)
H37_7 H 0.9454 0.8470 0.5743
C30_8 C 0.01741(18) 0.17540(17) 0.41247(17)
C32_8 C 0.0509(2) 0.1313(2) 0.4232(2)
H38_8 H 0.0712 0.1239 0.3938
H39_8 H 0.0305 0.1022 0.4315
H40_8 H 0.0728 0.1392 0.4514
B1_8 B 0.75092(17) 0.0989(2) 0.59886(19)
N1_8 N 0.78843(13) 0.13353(14) 0.62586(13)
N2_8 N 0.84477(14) 0.19411(15) 0.63575(14)
C1_8 C 0.81131(16) 0.17377(16) 0.60562(16)
H1_8 H 0.8041 0.1861 0.5732
C2_8 C 0.84319(18) 0.16586(19) 0.67855(16)
C3_8 C 0.80944(18) 0.12837(19) 0.67229(18)
H2_8 H 0.8018 0.1031 0.6959
C4_8 C 0.8751(3) 0.1787(3) 0.7229(2)
H3_8 H 0.8617 0.1622 0.7527
H4_8 H 0.8749 0.2149 0.7280
H5_8 H 0.9093 0.1673 0.7170
N3_8 N 0.74121(13) 0.11889(13) 0.54625(13)
N4_8 N 0.74447(14) 0.12889(15) 0.46422(14)
C5_8 C 0.75706(15) 0.10088(16) 0.50225(17)
H6_8 H 0.7756 0.0708 0.4990
C6_8 C 0.71801(17) 0.16803(18) 0.48471(17)
C7_8 C 0.71560(18) 0.16221(17) 0.53442(18)
H7_8 H 0.6993 0.1838 0.5573
C8_8 C 0.6966(2) 0.2082(3) 0.4528(2)
H8_8 H 0.6802 0.2331 0.4740
H9_8 H 0.6721 0.1937 0.4298
H10_8 H 0.7233 0.2241 0.4337
N5_8 N 0.70006(13) 0.09758(13) 0.62637(13)
N6_8 N 0.64179(14) 0.10087(14) 0.68513(14)
C9_8 C 0.68864(15) 0.10918(16) 0.67402(16)
H11_8 H 0.7122 0.1221 0.6971
C10_8 C 0.62079(16) 0.08232(17) 0.64164(17)
C11_8 C 0.65600(16) 0.08015(17) 0.60615(17)
H12_8 H 0.6514 0.0687 0.5729
C12_8 C 0.56668(19) 0.0681(2) 0.6370(2)
H13_8 H 0.5607 0.0532 0.6042
H14_8 H 0.5459 0.0980 0.6408
H15_8 H 0.5582 0.0440 0.6631
N7_8 N 0.77313(13) 0.04594(13) 0.59770(13)
C13_8 C 0.75079(15) 0.00287(17) 0.60912(15)
H16_8 H 0.7172 0.0007 0.6203
C15_8 C 0.82114(17) 0.03249(18) 0.58416(18)
H17_8 H 0.8470 0.0546 0.5743
Cu4_8 Cu 0.61049(2) 0.10842(2) 0.753275(18)
B2_8 B 0.9011(2) 0.24908(17) 0.40114(19)
N9_8 N 0.86647(14) 0.21157(13) 0.37414(13)
N10_8 N 0.80589(15) 0.15523(14) 0.36425(14)
C17_8 C 0.82623(16) 0.18869(16) 0.39438(16)
H21_8 H 0.8139 0.1959 0.4268
C18_8 C 0.83414(19) 0.15681(18) 0.32145(16)
C19_8 C 0.87163(19) 0.19056(18) 0.32771(18)
H22_8 H 0.8969 0.1982 0.3041
C20_8 C 0.8213(3) 0.1249(3) 0.2771(2)
H23_8 H 0.8378 0.1383 0.2473
H24_8 H 0.7851 0.1251 0.2720
H25_8 H 0.8327 0.0907 0.2830
N11_8 N 0.88111(13) 0.25879(13) 0.45375(13)
N12_8 N 0.87111(15) 0.25553(14) 0.53578(14)
C21_8 C 0.89912(16) 0.24294(15) 0.49775(17)
H26_8 H 0.9292 0.2244 0.5010
C22_8 C 0.83197(18) 0.28199(17) 0.51529(17)
C23_8 C 0.83779(17) 0.28440(18) 0.46558(18)
H27_8 H 0.8162 0.3007 0.4427
C24_8 C 0.7918(3) 0.3034(2) 0.5472(2)
H28_8 H 0.7669 0.3198 0.5260
H29_8 H 0.8063 0.3279 0.5702
H30_8 H 0.7759 0.2767 0.5663
N13_8 N 0.90242(13) 0.29994(13) 0.37363(13)
N16_8 N 0.68513(14) 0.10087(14) 0.35821(14)
C25_8 C 0.89082(16) 0.31136(15) 0.32598(16)
H31_8 H 0.8779 0.2878 0.3029
C26_8 C 0.91768(17) 0.37921(16) 0.35836(17)
C27_8 C 0.91985(17) 0.34400(16) 0.39385(17)
H32_8 H 0.9313 0.3486 0.4271
C28_8 C 0.9319(2) 0.43332(19) 0.3630(2)
H33_8 H 0.9468 0.4393 0.3958
H34_8 H 0.9020 0.4541 0.3592
H35_8 H 0.9560 0.4418 0.3369
N17_8 N 0.95406(13) 0.22687(13) 0.40230(13)
C29_8 C 0.99713(17) 0.24921(15) 0.39088(15)
H36_8 H 0.9993 0.2828 0.3797
C31_8 C 0.96751(18) 0.17886(17) 0.41584(18)
H37_8 H 0.9454 0.1530 0.4257
C14_8 C 0.82460(17) 0.98259(18) 0.58753(17)
C16_8 C 0.8687(2) 0.9491(2) 0.5768(2)
H18_8 H 0.8761 0.9288 0.6062
H19_8 H 0.8978 0.9695 0.5685
H20_8 H 0.8608 0.9272 0.5486
B1_9 B 0.40114(19) 0.24908(17) 0.0989(2)
N1_9 N 0.37414(13) 0.21157(13) 0.13353(14)
N2_9 N 0.36425(14) 0.15523(14) 0.19411(15)
C1_9 C 0.39438(16) 0.18869(16) 0.17377(16)
H1_9 H 0.4268 0.1959 0.1861
C2_9 C 0.32145(16) 0.15681(18) 0.16586(19)
C3_9 C 0.32771(18) 0.19056(18) 0.12837(19)
H2_9 H 0.3041 0.1982 0.1031
C4_9 C 0.2771(2) 0.1249(3) 0.1787(3)
H3_9 H 0.2473 0.1383 0.1622
H4_9 H 0.2720 0.1251 0.2149
H5_9 H 0.2830 0.0907 0.1673
N3_9 N 0.45375(13) 0.25879(13) 0.11889(13)
N4_9 N 0.53578(14) 0.25553(14) 0.12889(15)
C5_9 C 0.49775(17) 0.24294(15) 0.10088(16)
H6_9 H 0.5010 0.2244 0.0708
C6_9 C 0.51529(17) 0.28199(17) 0.16803(18)
C7_9 C 0.46558(18) 0.28440(18) 0.16221(17)
H7_9 H 0.4427 0.3007 0.1838
C8_9 C 0.5472(2) 0.3034(2) 0.2082(3)
H8_9 H 0.5260 0.3198 0.2331
H9_9 H 0.5702 0.3279 0.1937
H10_9 H 0.5663 0.2767 0.2241
N5_9 N 0.37363(13) 0.29994(13) 0.09758(13)
C9_9 C 0.32598(16) 0.31136(15) 0.10918(16)
H11_9 H 0.3029 0.2878 0.1221
C10_9 C 0.35836(17) 0.37921(16) 0.08232(17)
C11_9 C 0.39385(17) 0.34400(16) 0.08015(17)
H12_9 H 0.4271 0.3486 0.0687
C12_9 C 0.3630(2) 0.43332(19) 0.0681(2)
H13_9 H 0.3958 0.4393 0.0532
H14_9 H 0.3592 0.4541 0.0980
H15_9 H 0.3369 0.4418 0.0440
N7_9 N 0.40230(13) 0.22687(13) 0.04594(13)
C13_9 C 0.39088(15) 0.24921(15) 0.00287(17)
H16_9 H 0.3797 0.2828 0.0007
C15_9 C 0.41584(18) 0.17886(17) 0.03249(18)
H17_9 H 0.4257 0.1530 0.0546
B2_9 B 0.59886(19) 0.0989(2) 0.24908(17)
N9_9 N 0.62586(13) 0.13353(14) 0.21157(13)
N10_9 N 0.63575(14) 0.19411(15) 0.15523(14)
C17_9 C 0.60562(16) 0.17377(16) 0.18869(16)
H21_9 H 0.5732 0.1861 0.1959
C18_9 C 0.67855(16) 0.16586(19) 0.15681(18)
C19_9 C 0.67229(18) 0.12837(19) 0.19056(18)
H22_9 H 0.6959 0.1031 0.1982
C20_9 C 0.7229(2) 0.1787(3) 0.1249(3)
H23_9 H 0.7527 0.1622 0.1383
H24_9 H 0.7280 0.2149 0.1251
H25_9 H 0.7170 0.1673 0.0907
N11_9 N 0.54625(13) 0.11889(13) 0.25879(13)
N12_9 N 0.46422(14) 0.12889(15) 0.25553(14)
C21_9 C 0.50225(17) 0.10088(16) 0.24294(15)
H26_9 H 0.4990 0.0708 0.2244
C22_9 C 0.48471(17) 0.16803(18) 0.28199(17)
C23_9 C 0.53442(18) 0.16221(17) 0.28440(18)
H27_9 H 0.5573 0.1838 0.3007
C24_9 C 0.4528(2) 0.2082(3) 0.3034(2)
H28_9 H 0.4740 0.2331 0.3198
H29_9 H 0.4298 0.1937 0.3279
H30_9 H 0.4337 0.2241 0.2767
N13_9 N 0.62637(13) 0.09758(13) 0.29994(13)
C25_9 C 0.67402(16) 0.10918(16) 0.31136(15)
H31_9 H 0.6971 0.1221 0.2878
C26_9 C 0.64164(17) 0.08232(17) 0.37921(16)
C27_9 C 0.60615(17) 0.08015(17) 0.34400(16)
H32_9 H 0.5729 0.0687 0.3486
C28_9 C 0.6370(2) 0.0681(2) 0.43332(19)
H33_9 H 0.6042 0.0532 0.4393
H34_9 H 0.6408 0.0980 0.4541
H35_9 H 0.6631 0.0440 0.4418
N17_9 N 0.59770(13) 0.04594(13) 0.22687(13)
N19_5 N 0.39660(14) 0.03609(14) 0.22018(14)
N20_5 N 0.60340(14) 0.22018(14) 0.03609(14)
C29_9 C 0.60912(15) 0.00287(17) 0.24921(15)
H36_9 H 0.6203 0.0007 0.2828
C31_9 C 0.58416(18) 0.03249(18) 0.17886(17)
H37_9 H 0.5743 0.0546 0.1530
N8_5 N 0.39660(14) 0.22018(14) 0.96391(14)
C14_9 C 0.41247(17) 0.17540(17) 0.98259(18)
C16_9 C 0.4232(2) 0.1313(2) 0.9491(2)
H18_9 H 0.3938 0.1239 0.9288
H19_9 H 0.4315 0.1022 0.9695
H20_9 H 0.4514 0.1392 0.9272
N18_5 N 0.60340(14) 0.96391(14) 0.22018(14)
C30_9 C 0.58753(17) 0.98259(18) 0.17540(17)
C32_9 C 0.5768(2) 0.9491(2) 0.1313(2)
H38_9 H 0.6062 0.9288 0.1239
H39_9 H 0.5685 0.9695 0.1022
H40_9 H 0.5486 0.9272 0.1392
C14_10 C 0.58753(17) 0.17540(17) 0.01741(18)
C16_10 C 0.5768(2) 0.1313(2) 0.0509(2)
H18_10 H 0.6062 0.1239 0.0712
H19_10 H 0.5685 0.1022 0.0305
H20_10 H 0.5486 0.1392 0.0728
B1_10 B 0.59886(19) 0.24908(17) 0.9011(2)
N1_10 N 0.62586(13) 0.21157(13) 0.86647(14)
N2_10 N 0.63575(14) 0.15523(14) 0.80589(15)
C1_10 C 0.60562(16) 0.18869(16) 0.82623(16)
H1_10 H 0.5732 0.1959 0.8139
C2_10 C 0.67855(16) 0.15681(18) 0.83414(19)
C3_10 C 0.67229(18) 0.19056(18) 0.87163(19)
H2_10 H 0.6959 0.1982 0.8969
C4_10 C 0.7229(2) 0.1249(3) 0.8213(3)
H3_10 H 0.7527 0.1383 0.8378
H4_10 H 0.7280 0.1251 0.7851
H5_10 H 0.7170 0.0907 0.8327
N3_10 N 0.54625(13) 0.25879(13) 0.88111(13)
N4_10 N 0.46422(14) 0.25553(14) 0.87111(15)
C5_10 C 0.50225(17) 0.24294(15) 0.89912(16)
H6_10 H 0.4990 0.2244 0.9292
C6_10 C 0.48471(17) 0.28199(17) 0.83197(18)
C7_10 C 0.53442(18) 0.28440(18) 0.83779(17)
H7_10 H 0.5573 0.3007 0.8162
C8_10 C 0.4528(2) 0.3034(2) 0.7918(3)
H8_10 H 0.4740 0.3198 0.7669
H9_10 H 0.4298 0.3279 0.8063
H10_10 H 0.4337 0.2767 0.7759
N5_10 N 0.62637(13) 0.29994(13) 0.90242(13)
C9_10 C 0.67402(16) 0.31136(15) 0.89082(16)
H11_10 H 0.6971 0.2878 0.8779
C10_10 C 0.64164(17) 0.37921(16) 0.91768(17)
C11_10 C 0.60615(17) 0.34400(16) 0.91985(17)
H12_10 H 0.5729 0.3486 0.9313
C12_10 C 0.6370(2) 0.43332(19) 0.9319(2)
H13_10 H 0.6042 0.4393 0.9468
H14_10 H 0.6408 0.4541 0.9020
H15_10 H 0.6631 0.4418 0.9560
N7_10 N 0.59770(13) 0.22687(13) 0.95406(13)
C13_10 C 0.60912(15) 0.24921(15) 0.99713(17)
H16_10 H 0.6203 0.2828 0.9993
C15_10 C 0.58416(18) 0.17886(17) 0.96751(18)
H17_10 H 0.5743 0.1530 0.9454
B2_10 B 0.40114(19) 0.0989(2) 0.75092(17)
N9_10 N 0.37414(13) 0.13353(14) 0.78843(13)
N10_10 N 0.36425(14) 0.19411(15) 0.84477(14)
C17_10 C 0.39438(16) 0.17377(16) 0.81131(16)
H21_10 H 0.4268 0.1861 0.8041
C18_10 C 0.32145(16) 0.16586(19) 0.84319(18)
C19_10 C 0.32771(18) 0.12837(19) 0.80944(18)
H22_10 H 0.3041 0.1031 0.8018
C20_10 C 0.2771(2) 0.1787(3) 0.8751(3)
H23_10 H 0.2473 0.1622 0.8617
H24_10 H 0.2720 0.2149 0.8749
H25_10 H 0.2830 0.1673 0.9093
N11_10 N 0.45375(13) 0.11889(13) 0.74121(13)
N12_10 N 0.53578(14) 0.12889(15) 0.74447(14)
C21_10 C 0.49775(17) 0.10088(16) 0.75706(15)
H26_10 H 0.5010 0.0708 0.7756
C22_10 C 0.51529(17) 0.16803(18) 0.71801(17)
C23_10 C 0.46558(18) 0.16221(17) 0.71560(18)
H27_10 H 0.4427 0.1838 0.6993
C24_10 C 0.5472(2) 0.2082(3) 0.6966(2)
H28_10 H 0.5260 0.2331 0.6802
H29_10 H 0.5702 0.1937 0.6721
H30_10 H 0.5663 0.2241 0.7233
N13_10 N 0.37363(13) 0.09758(13) 0.70006(13)
C25_10 C 0.32598(16) 0.10918(16) 0.68864(15)
H31_10 H 0.3029 0.1221 0.7122
C26_10 C 0.35836(17) 0.08232(17) 0.62079(16)
C27_10 C 0.39385(17) 0.08015(17) 0.65600(16)
H32_10 H 0.4271 0.0687 0.6514
C28_10 C 0.3630(2) 0.0681(2) 0.56668(19)
H33_10 H 0.3958 0.0532 0.5607
H34_10 H 0.3592 0.0980 0.5459
H35_10 H 0.3369 0.0440 0.5582
N17_10 N 0.40230(13) 0.04594(13) 0.77313(13)
N19_6 N 0.60340(14) 0.03609(14) 0.77982(14)
C29_10 C 0.39088(15) 0.00287(17) 0.75079(15)
H36_10 H 0.3797 0.0007 0.7172
C31_10 C 0.41584(18) 0.03249(18) 0.82114(17)
H37_10 H 0.4257 0.0546 0.8470
N18_6 N 0.39660(14) 0.96391(14) 0.77982(14)
C30_10 C 0.41247(17) 0.98259(18) 0.82460(17)
C32_10 C 0.4232(2) 0.9491(2) 0.8687(2)
H38_10 H 0.3938 0.9288 0.8761
H39_10 H 0.4315 0.9695 0.8978
H40_10 H 0.4514 0.9272 0.8608
C30_11 C 0.58753(17) 0.01741(18) 0.82460(17)
C32_11 C 0.5768(2) 0.0509(2) 0.8687(2)
H38_11 H 0.6062 0.0712 0.8761
H39_11 H 0.5685 0.0305 0.8978
H40_11 H 0.5486 0.0728 0.8608
N8_6 N 0.39660(14) 0.77982(14) 0.03609(14)
C14_11 C 0.41247(17) 0.82460(17) 0.01741(18)
C16_11 C 0.4232(2) 0.8687(2) 0.0509(2)
H18_11 H 0.3938 0.8761 0.0712
H19_11 H 0.4315 0.8978 0.0305
H20_11 H 0.4514 0.8608 0.0728
B1_11 B 0.40114(19) 0.75092(17) 0.9011(2)
N1_11 N 0.37414(13) 0.78843(13) 0.86647(14)
N2_11 N 0.36425(14) 0.84477(14) 0.80589(15)
C1_11 C 0.39438(16) 0.81131(16) 0.82623(16)
H1_11 H 0.4268 0.8041 0.8139
C2_11 C 0.32145(16) 0.84319(18) 0.83414(19)
C3_11 C 0.32771(18) 0.80944(18) 0.87163(19)
H2_11 H 0.3041 0.8018 0.8969
C4_11 C 0.2771(2) 0.8751(3) 0.8213(3)
H3_11 H 0.2473 0.8617 0.8378
H4_11 H 0.2720 0.8749 0.7851
H5_11 H 0.2830 0.9093 0.8327
N3_11 N 0.45375(13) 0.74121(13) 0.88111(13)
N4_11 N 0.53578(14) 0.74447(14) 0.87111(15)
C5_11 C 0.49775(17) 0.75706(15) 0.89912(16)
H6_11 H 0.5010 0.7756 0.9292
C6_11 C 0.51529(17) 0.71801(17) 0.83197(18)
C7_11 C 0.46558(18) 0.71560(18) 0.83779(17)
H7_11 H 0.4427 0.6993 0.8162
C8_11 C 0.5472(2) 0.6966(2) 0.7918(3)
H8_11 H 0.5260 0.6802 0.7669
H9_11 H 0.5702 0.6721 0.8063
H10_11 H 0.5663 0.7233 0.7759
N5_11 N 0.37363(13) 0.70006(13) 0.90242(13)
C9_11 C 0.32598(16) 0.68864(15) 0.89082(16)
H11_11 H 0.3029 0.7122 0.8779
C10_11 C 0.35836(17) 0.62079(16) 0.91768(17)
C11_11 C 0.39385(17) 0.65600(16) 0.91985(17)
H12_11 H 0.4271 0.6514 0.9313
C12_11 C 0.3630(2) 0.56668(19) 0.9319(2)
H13_11 H 0.3958 0.5607 0.9468
H14_11 H 0.3592 0.5459 0.9020
H15_11 H 0.3369 0.5582 0.9560
N7_11 N 0.40230(13) 0.77313(13) 0.95406(13)
C13_11 C 0.39088(15) 0.75079(15) 0.99713(17)
H16_11 H 0.3797 0.7172 0.9993
C15_11 C 0.41584(18) 0.82114(17) 0.96751(18)
H17_11 H 0.4257 0.8470 0.9454
B2_11 B 0.59886(19) 0.9011(2) 0.75092(17)
N9_11 N 0.62586(13) 0.86647(14) 0.78843(13)
N10_11 N 0.63575(14) 0.80589(15) 0.84477(14)
C17_11 C 0.60562(16) 0.82623(16) 0.81131(16)
H21_11 H 0.5732 0.8139 0.8041
C18_11 C 0.67855(16) 0.83414(19) 0.84319(18)
C19_11 C 0.67229(18) 0.87163(19) 0.80944(18)
H22_11 H 0.6959 0.8969 0.8018
C20_11 C 0.7229(2) 0.8213(3) 0.8751(3)
H23_11 H 0.7527 0.8378 0.8617
H24_11 H 0.7280 0.7851 0.8749
H25_11 H 0.7170 0.8327 0.9093
N11_11 N 0.54625(13) 0.88111(13) 0.74121(13)
N12_11 N 0.46422(14) 0.87111(15) 0.74447(14)
C21_11 C 0.50225(17) 0.89912(16) 0.75706(15)
H26_11 H 0.4990 0.9292 0.7756
C22_11 C 0.48471(17) 0.83197(18) 0.71801(17)
C23_11 C 0.53442(18) 0.83779(17) 0.71560(18)
H27_11 H 0.5573 0.8162 0.6993
C24_11 C 0.4528(2) 0.7918(3) 0.6966(2)
H28_11 H 0.4740 0.7669 0.6802
H29_11 H 0.4298 0.8063 0.6721
H30_11 H 0.4337 0.7759 0.7233
N13_11 N 0.62637(13) 0.90242(13) 0.70006(13)
C25_11 C 0.67402(16) 0.89082(16) 0.68864(15)
H31_11 H 0.6971 0.8779 0.7122
C26_11 C 0.64164(17) 0.91768(17) 0.62079(16)
C27_11 C 0.60615(17) 0.91985(17) 0.65600(16)
H32_11 H 0.5729 0.9313 0.6514
C28_11 C 0.6370(2) 0.9319(2) 0.56668(19)
H33_11 H 0.6042 0.9468 0.5607
H34_11 H 0.6408 0.9020 0.5459
H35_11 H 0.6631 0.9560 0.5582
N17_11 N 0.59770(13) 0.95406(13) 0.77313(13)
N20_6 N 0.60340(14) 0.77982(14) 0.96391(14)
C29_11 C 0.60912(15) 0.99713(17) 0.75079(15)
H36_11 H 0.6203 0.9993 0.7172
C31_11 C 0.58416(18) 0.96751(18) 0.82114(17)
H37_11 H 0.5743 0.9454 0.8470
C30_12 C 0.41247(17) 0.01741(18) 0.17540(17)
C32_12 C 0.4232(2) 0.0509(2) 0.1313(2)
H38_12 H 0.3938 0.0712 0.1239
H39_12 H 0.4315 0.0305 0.1022
H40_12 H 0.4514 0.0728 0.1392
B1_12 B 0.59886(19) 0.75092(17) 0.0989(2)
N1_12 N 0.62586(13) 0.78843(13) 0.13353(14)
N2_12 N 0.63575(14) 0.84477(14) 0.19411(15)
C1_12 C 0.60562(16) 0.81131(16) 0.17377(16)
H1_12 H 0.5732 0.8041 0.1861
C2_12 C 0.67855(16) 0.84319(18) 0.16586(19)
C3_12 C 0.67229(18) 0.80944(18) 0.12837(19)
H2_12 H 0.6959 0.8018 0.1031
C4_12 C 0.7229(2) 0.8751(3) 0.1787(3)
H3_12 H 0.7527 0.8617 0.1622
H4_12 H 0.7280 0.8749 0.2149
H5_12 H 0.7170 0.9093 0.1673
N3_12 N 0.54625(13) 0.74121(13) 0.11889(13)
N4_12 N 0.46422(14) 0.74447(14) 0.12889(15)
C5_12 C 0.50225(17) 0.75706(15) 0.10088(16)
H6_12 H 0.4990 0.7756 0.0708
C6_12 C 0.48471(17) 0.71801(17) 0.16803(18)
C7_12 C 0.53442(18) 0.71560(18) 0.16221(17)
H7_12 H 0.5573 0.6993 0.1838
C8_12 C 0.4528(2) 0.6966(2) 0.2082(3)
H8_12 H 0.4740 0.6802 0.2331
H9_12 H 0.4298 0.6721 0.1937
H10_12 H 0.4337 0.7233 0.2241
N5_12 N 0.62637(13) 0.70006(13) 0.09758(13)
C9_12 C 0.67402(16) 0.68864(15) 0.10918(16)
H11_12 H 0.6971 0.7122 0.1221
C10_12 C 0.64164(17) 0.62079(16) 0.08232(17)
C11_12 C 0.60615(17) 0.65600(16) 0.08015(17)
H12_12 H 0.5729 0.6514 0.0687
C12_12 C 0.6370(2) 0.56668(19) 0.0681(2)
H13_12 H 0.6042 0.5607 0.0532
H14_12 H 0.6408 0.5459 0.0980
H15_12 H 0.6631 0.5582 0.0440
N7_12 N 0.59770(13) 0.77313(13) 0.04594(13)
C13_12 C 0.60912(15) 0.75079(15) 0.00287(17)
H16_12 H 0.6203 0.7172 0.0007
C15_12 C 0.58416(18) 0.82114(17) 0.03249(18)
H17_12 H 0.5743 0.8470 0.0546
B2_12 B 0.40114(19) 0.9011(2) 0.24908(17)
N9_12 N 0.37414(13) 0.86647(14) 0.21157(13)
N10_12 N 0.36425(14) 0.80589(15) 0.15523(14)
C17_12 C 0.39438(16) 0.82623(16) 0.18869(16)
H21_12 H 0.4268 0.8139 0.1959
C18_12 C 0.32145(16) 0.83414(19) 0.15681(18)
C19_12 C 0.32771(18) 0.87163(19) 0.19056(18)
H22_12 H 0.3041 0.8969 0.1982
C20_12 C 0.2771(2) 0.8213(3) 0.1249(3)
H23_12 H 0.2473 0.8378 0.1383
H24_12 H 0.2720 0.7851 0.1251
H25_12 H 0.2830 0.8327 0.0907
N11_12 N 0.45375(13) 0.88111(13) 0.25879(13)
N12_12 N 0.53578(14) 0.87111(15) 0.25553(14)
C21_12 C 0.49775(17) 0.89912(16) 0.24294(15)
H26_12 H 0.5010 0.9292 0.2244
C22_12 C 0.51529(17) 0.83197(18) 0.28199(17)
C23_12 C 0.46558(18) 0.83779(17) 0.28440(18)
H27_12 H 0.4427 0.8162 0.3007
C24_12 C 0.5472(2) 0.7918(3) 0.3034(2)
H28_12 H 0.5260 0.7669 0.3198
H29_12 H 0.5702 0.8063 0.3279
H30_12 H 0.5663 0.7759 0.2767
N13_12 N 0.37363(13) 0.90242(13) 0.29994(13)
C25_12 C 0.32598(16) 0.89082(16) 0.31136(15)
H31_12 H 0.3029 0.8779 0.2878
C26_12 C 0.35836(17) 0.91768(17) 0.37921(16)
C27_12 C 0.39385(17) 0.91985(17) 0.34400(16)
H32_12 H 0.4271 0.9313 0.3486
C28_12 C 0.3630(2) 0.9319(2) 0.43332(19)
H33_12 H 0.3958 0.9468 0.4393
H34_12 H 0.3592 0.9020 0.4541
H35_12 H 0.3369 0.9560 0.4418
N17_12 N 0.40230(13) 0.95406(13) 0.22687(13)
C29_12 C 0.39088(15) 0.99713(17) 0.24921(15)
H36_12 H 0.3797 0.9993 0.2828
C31_12 C 0.41584(18) 0.96751(18) 0.17886(17)
H37_12 H 0.4257 0.9454 0.1530
C14_12 C 0.58753(17) 0.82460(17) 0.98259(18)
C16_12 C 0.5768(2) 0.8687(2) 0.9491(2)
H18_12 H 0.6062 0.8761 0.9288
H19_12 H 0.5685 0.8978 0.9695
H20_12 H 0.5486 0.8608 0.9272
loop_
_geom_bond_atom_site_label_1
_geom_bond_atom_site_label_2
_geom_bond_site_symmetry_1
_geom_bond_site_symmetry_2
Cu1 N2 1_555 1_555
B1 N1 1_555 1_555
N1 C1 1_555 1_555
N2 C1 1_555 1_555
C1 H1 1_555 1_555
C2 N2 1_555 1_555
C3 N1 1_555 1_555
H2 C3 1_555 1_555
C4 C2 1_555 1_555
H3 C4 1_555 1_555
H4 C4 1_555 1_555
H5 C4 1_555 1_555
N3 B1 1_555 1_555
N4 C5 1_555 1_555
C5 N3 1_555 1_555
H6 C5 1_555 1_555
C6 N4 1_555 1_555
C7 N3 1_555 1_555
H7 C7 1_555 1_555
C8 C6 1_555 1_555
H8 C8 1_555 1_555
H9 C8 1_555 1_555
H10 C8 1_555 1_555
N5 B1 1_555 1_555
N6 C9 1_555 1_555
C9 N5 1_555 1_555
H11 C9 1_555 1_555
C10 N6 1_555 1_555
C11 N5 1_555 1_555
H12 C11 1_555 1_555
C12 C10 1_555 1_555
H13 C12 1_555 1_555
H14 C12 1_555 1_555
H15 C12 1_555 1_555
N7 B1 1_555 1_555
C13 N7 1_555 1_555
H16 C13 1_555 1_555
C15 N7 1_555 1_555
H17 C15 1_555 1_555
Cu2 N4 1_555 1_555
Cu4 N6 1_555 1_555
Cu6 N14 1_555 1_555
B2 N9 1_555 1_555
N9 C17 1_555 1_555
N10 Cu2 1_555 1_555
C17 N10 1_555 1_555
H21 C17 1_555 1_555
C18 N10 1_555 1_555
C19 N9 1_555 1_555
H22 C19 1_555 1_555
C20 C18 1_555 1_555
H23 C20 1_555 1_555
H24 C20 1_555 1_555
H25 C20 1_555 1_555
N11 B2 1_555 1_555
N12 Cu1 1_555 1_555
C21 N11 1_555 1_555
H26 C21 1_555 1_555
C22 N12 1_555 1_555
C23 N11 1_555 1_555
H27 C23 1_555 1_555
C24 C22 1_555 1_555
H28 C24 1_555 1_555
H29 C24 1_555 1_555
H30 C24 1_555 1_555
N13 B2 1_555 1_555
N14 C25 1_555 1_555
N15 Cu1 1_555 1_555
N16 Cu2 1_555 1_555
C25 N13 1_555 1_555
H31 C25 1_555 1_555
C26 N14 1_555 1_555
C27 N13 1_555 1_555
H32 C27 1_555 1_555
C28 C26 1_555 1_555
H33 C28 1_555 1_555
H34 C28 1_555 1_555
H35 C28 1_555 1_555
N17 B2 1_555 1_555
N19 Cu1 1_555 1_555
N20 Cu2 1_555 1_555
C29 N17 1_555 1_555
H36 C29 1_555 1_555
C31 N17 1_555 1_555
H37 C31 1_555 1_555
C2 C3 1_555 1_555
C6 C7 1_555 1_555
C10 C11 1_555 1_555
C18 C19 1_555 1_555
N12 C21 1_555 1_555
C22 C23 1_555 1_555
C26 C27 1_555 1_555
Cu3 N18 1_555 1_555
C30 N18 1_555 1_555
C32 C30 1_555 1_555
H38 C32 1_555 1_555
H39 C32 1_555 1_555
H40 C32 1_555 1_555
C14 N8 1_555 1_555
C16 C14 1_555 1_555
H18 C16 1_555 1_555
H19 C16 1_555 1_555
H20 C16 1_555 1_555
Cu5 N8 1_555 1_555
C14_2 N20 1_555 1_555
C16_2 C14_2 1_555 1_555
H18_2 C16_2 1_555 1_555
H19_2 C16_2 1_555 1_555
H20_2 C16_2 1_555 1_555
Cu1_2 N2_2 1_555 1_555
B1_2 N1_2 1_555 1_555
N1_2 C1_2 1_555 1_555
N2_2 C1_2 1_555 1_555
C1_2 H1_2 1_555 1_555
C2_2 N2_2 1_555 1_555
C3_2 N1_2 1_555 1_555
H2_2 C3_2 1_555 1_555
C4_2 C2_2 1_555 1_555
H3_2 C4_2 1_555 1_555
H4_2 C4_2 1_555 1_555
H5_2 C4_2 1_555 1_555
N3_2 B1_2 1_555 1_555
N4_2 C5_2 1_555 1_555
C5_2 N3_2 1_555 1_555
H6_2 C5_2 1_555 1_555
C6_2 N4_2 1_555 1_555
C7_2 N3_2 1_555 1_555
H7_2 C7_2 1_555 1_555
C8_2 C6_2 1_555 1_555
H8_2 C8_2 1_555 1_555
H9_2 C8_2 1_555 1_555
H10_2 C8_2 1_555 1_555
N5_2 B1_2 1_555 1_555
N6_2 C9_2 1_555 1_555
C9_2 N5_2 1_555 1_555
H11_2 C9_2 1_555 1_555
C10_2 N6_2 1_555 1_555
C11_2 N5_2 1_555 1_555
H12_2 C11_2 1_555 1_555
C12_2 C10_2 1_555 1_555
H13_2 C12_2 1_555 1_555
H14_2 C12_2 1_555 1_555
H15_2 C12_2 1_555 1_555
N7_2 B1_2 1_555 1_555
C13_2 N7_2 1_555 1_555
H16_2 C13_2 1_555 1_555
C15_2 N7_2 1_555 1_555
H17_2 C15_2 1_555 1_555
Cu5 N4_2 1_555 1_555
Cu4_2 N6_2 1_555 1_555
Cu6_2 N14_2 1_555 1_555
B2_2 N9_2 1_555 1_555
N9_2 C17_2 1_555 1_555
N10_2 Cu5 1_555 1_555
C17_2 N10_2 1_555 1_555
H21_2 C17_2 1_555 1_555
C18_2 N10_2 1_555 1_555
C19_2 N9_2 1_555 1_555
H22_2 C19_2 1_555 1_555
C20_2 C18_2 1_555 1_555
H23_2 C20_2 1_555 1_555
H24_2 C20_2 1_555 1_555
H25_2 C20_2 1_555 1_555
N11_2 B2_2 1_555 1_555
N12_2 Cu1_2 1_555 1_555
C21_2 N11_2 1_555 1_555
H26_2 C21_2 1_555 1_555
C22_2 N12_2 1_555 1_555
C23_2 N11_2 1_555 1_555
H27_2 C23_2 1_555 1_555
C24_2 C22_2 1_555 1_555
H28_2 C24_2 1_555 1_555
H29_2 C24_2 1_555 1_555
H30_2 C24_2 1_555 1_555
N13_2 B2_2 1_555 1_555
N14_2 C25_2 1_555 1_555
N15_2 Cu1_2 1_555 1_555
N16_2 Cu5 1_555 1_555
C25_2 N13_2 1_555 1_555
H31_2 C25_2 1_555 1_555
C26_2 N14_2 1_555 1_555
C27_2 N13_2 1_555 1_555
H32_2 C27_2 1_555 1_555
C28_2 C26_2 1_555 1_555
H33_2 C28_2 1_555 1_555
H34_2 C28_2 1_555 1_555
H35_2 C28_2 1_555 1_555
N17_2 B2_2 1_555 1_555
N19_2 Cu1_2 1_555 1_555
C29_2 N17_2 1_555 1_555
H36_2 C29_2 1_555 1_555
C31_2 N17_2 1_555 1_555
H37_2 C31_2 1_555 1_555
C2_2 C3_2 1_555 1_555
C6_2 C7_2 1_555 1_555
C10_2 C11_2 1_555 1_555
C18_2 C19_2 1_555 1_555
N12_2 C21_2 1_555 1_555
C22_2 C23_2 1_555 1_555
C26_2 C27_2 1_555 1_555
Cu3_2 N18_2 1_555 1_555
C30_2 N18_2 1_555 1_555
C32_2 C30_2 1_555 1_555
H38_2 C32_2 1_555 1_555
H39_2 C32_2 1_555 1_555
H40_2 C32_2 1_555 1_555
C14_3 N8_2 1_555 1_555
C16_3 C14_3 1_555 1_555
H18_3 C16_3 1_555 1_555
H19_3 C16_3 1_555 1_555
H20_3 C16_3 1_555 1_555
Cu5_2 N8_2 1_555 1_555
C30_3 N19_2 1_555 1_555
C32_3 C30_3 1_555 1_555
H38_3 C32_3 1_555 1_555
H39_3 C32_3 1_555 1_555
H40_3 C32_3 1_555 1_555
Cu3_2 N2_3 1_555 1_555
B1_3 N1_3 1_555 1_555
N1_3 C1_3 1_555 1_555
N2_3 C1_3 1_555 1_555
C1_3 H1_3 1_555 1_555
C2_3 N2_3 1_555 1_555
C3_3 N1_3 1_555 1_555
H2_3 C3_3 1_555 1_555
C4_3 C2_3 1_555 1_555
H3_3 C4_3 1_555 1_555
H4_3 C4_3 1_555 1_555
H5_3 C4_3 1_555 1_555
N3_3 B1_3 1_555 1_555
N4_3 C5_3 1_555 1_555
C5_3 N3_3 1_555 1_555
H6_3 C5_3 1_555 1_555
C6_3 N4_3 1_555 1_555
C7_3 N3_3 1_555 1_555
H7_3 C7_3 1_555 1_555
C8_3 C6_3 1_555 1_555
H8_3 C8_3 1_555 1_555
H9_3 C8_3 1_555 1_555
H10_3 C8_3 1_555 1_555
N5_3 B1_3 1_555 1_555
N6_3 C9_3 1_555 1_555
C9_3 N5_3 1_555 1_555
H11_3 C9_3 1_555 1_555
C10_3 N6_3 1_555 1_555
C11_3 N5_3 1_555 1_555
H12_3 C11_3 1_555 1_555
C12_3 C10_3 1_555 1_555
H13_3 C12_3 1_555 1_555
H14_3 C12_3 1_555 1_555
H15_3 C12_3 1_555 1_555
N7_3 B1_3 1_555 1_555
C13_3 N7_3 1_555 1_555
H16_3 C13_3 1_555 1_555
C15_3 N7_3 1_555 1_555
H17_3 C15_3 1_555 1_555
Cu2_2 N4_3 1_555 1_555
Cu4_3 N6_3 1_555 1_555
Cu6_3 N14_3 1_555 1_555
B2_3 N9_3 1_555 1_555
N9_3 C17_3 1_555 1_555
N10_3 Cu2_2 1_555 1_555
C17_3 N10_3 1_555 1_555
H21_3 C17_3 1_555 1_555
C18_3 N10_3 1_555 1_555
C19_3 N9_3 1_555 1_555
H22_3 C19_3 1_555 1_555
C20_3 C18_3 1_555 1_555
H23_3 C20_3 1_555 1_555
H24_3 C20_3 1_555 1_555
H25_3 C20_3 1_555 1_555
N11_3 B2_3 1_555 1_555
N12_3 Cu3_2 1_555 1_555
C21_3 N11_3 1_555 1_555
H26_3 C21_3 1_555 1_555
C22_3 N12_3 1_555 1_555
C23_3 N11_3 1_555 1_555
H27_3 C23_3 1_555 1_555
C24_3 C22_3 1_555 1_555
H28_3 C24_3 1_555 1_555
H29_3 C24_3 1_555 1_555
H30_3 C24_3 1_555 1_555
N13_3 B2_3 1_555 1_555
N14_3 C25_3 1_555 1_555
N15_3 Cu3_2 1_555 1_555
N16_3 Cu2_2 1_555 1_555
C25_3 N13_3 1_555 1_555
H31_3 C25_3 1_555 1_555
C26_3 N14_3 1_555 1_555
C27_3 N13_3 1_555 1_555
H32_3 C27_3 1_555 1_555
C28_3 C26_3 1_555 1_555
H33_3 C28_3 1_555 1_555
H34_3 C28_3 1_555 1_555
H35_3 C28_3 1_555 1_555
N17_3 B2_3 1_555 1_555
N20_2 Cu2_2 1_555 1_555
C29_3 N17_3 1_555 1_555
H36_3 C29_3 1_555 1_555
C31_3 N17_3 1_555 1_555
H37_3 C31_3 1_555 1_555
C2_3 C3_3 1_555 1_555
C6_3 C7_3 1_555 1_555
C10_3 C11_3 1_555 1_555
C18_3 C19_3 1_555 1_555
N12_3 C21_3 1_555 1_555
C22_3 C23_3 1_555 1_555
C26_3 C27_3 1_555 1_555
C30_4 N19 1_555 1_555
C32_4 C30_4 1_555 1_555
H38_4 C32_4 1_555 1_555
H39_4 C32_4 1_555 1_555
H40_4 C32_4 1_555 1_555
Cu3 N2_4 1_555 1_555
B1_4 N1_4 1_555 1_555
N1_4 C1_4 1_555 1_555
N2_4 C1_4 1_555 1_555
C1_4 H1_4 1_555 1_555
C2_4 N2_4 1_555 1_555
C3_4 N1_4 1_555 1_555
H2_4 C3_4 1_555 1_555
C4_4 C2_4 1_555 1_555
H3_4 C4_4 1_555 1_555
H4_4 C4_4 1_555 1_555
H5_4 C4_4 1_555 1_555
N3_4 B1_4 1_555 1_555
N4_4 C5_4 1_555 1_555
C5_4 N3_4 1_555 1_555
H6_4 C5_4 1_555 1_555
C6_4 N4_4 1_555 1_555
C7_4 N3_4 1_555 1_555
H7_4 C7_4 1_555 1_555
C8_4 C6_4 1_555 1_555
H8_4 C8_4 1_555 1_555
H9_4 C8_4 1_555 1_555
H10_4 C8_4 1_555 1_555
N5_4 B1_4 1_555 1_555
N6_4 C9_4 1_555 1_555
C9_4 N5_4 1_555 1_555
H11_4 C9_4 1_555 1_555
C10_4 N6_4 1_555 1_555
C11_4 N5_4 1_555 1_555
H12_4 C11_4 1_555 1_555
C12_4 C10_4 1_555 1_555
H13_4 C12_4 1_555 1_555
H14_4 C12_4 1_555 1_555
H15_4 C12_4 1_555 1_555
N7_4 B1_4 1_555 1_555
C13_4 N7_4 1_555 1_555
H16_4 C13_4 1_555 1_555
C15_4 N7_4 1_555 1_555
H17_4 C15_4 1_555 1_555
Cu5_2 N4_4 1_555 1_555
Cu4_4 N6_4 1_555 1_555
Cu6_4 N14_4 1_555 1_555
B2_4 N9_4 1_555 1_555
N9_4 C17_4 1_555 1_555
N10_4 Cu5_2 1_555 1_555
C17_4 N10_4 1_555 1_555
H21_4 C17_4 1_555 1_555
C18_4 N10_4 1_555 1_555
C19_4 N9_4 1_555 1_555
H22_4 C19_4 1_555 1_555
C20_4 C18_4 1_555 1_555
H23_4 C20_4 1_555 1_555
H24_4 C20_4 1_555 1_555
H25_4 C20_4 1_555 1_555
N11_4 B2_4 1_555 1_555
N12_4 Cu3 1_555 1_555
C21_4 N11_4 1_555 1_555
H26_4 C21_4 1_555 1_555
C22_4 N12_4 1_555 1_555
C23_4 N11_4 1_555 1_555
H27_4 C23_4 1_555 1_555
C24_4 C22_4 1_555 1_555
H28_4 C24_4 1_555 1_555
H29_4 C24_4 1_555 1_555
H30_4 C24_4 1_555 1_555
N13_4 B2_4 1_555 1_555
N14_4 C25_4 1_555 1_555
N15_4 Cu3 1_555 1_555
N16_4 Cu5_2 1_555 1_555
C25_4 N13_4 1_555 1_555
H31_4 C25_4 1_555 1_555
C26_4 N14_4 1_555 1_555
C27_4 N13_4 1_555 1_555
H32_4 C27_4 1_555 1_555
C28_4 C26_4 1_555 1_555
H33_4 C28_4 1_555 1_555
H34_4 C28_4 1_555 1_555
H35_4 C28_4 1_555 1_555
N17_4 B2_4 1_555 1_555
C29_4 N17_4 1_555 1_555
H36_4 C29_4 1_555 1_555
C31_4 N17_4 1_555 1_555
H37_4 C31_4 1_555 1_555
C2_4 C3_4 1_555 1_555
C6_4 C7_4 1_555 1_555
C10_4 C11_4 1_555 1_555
C18_4 C19_4 1_555 1_555
N12_4 C21_4 1_555 1_555
C22_4 C23_4 1_555 1_555
C26_4 C27_4 1_555 1_555
C14_4 N20_2 1_555 1_555
C16_4 C14_4 1_555 1_555
H18_4 C16_4 1_555 1_555
H19_4 C16_4 1_555 1_555
H20_4 C16_4 1_555 1_555
Cu4 N2_5 1_555 1_555
B1_5 N1_5 1_555 1_555
N1_5 C1_5 1_555 1_555
N2_5 C1_5 1_555 1_555
C1_5 H1_5 1_555 1_555
C2_5 N2_5 1_555 1_555
C3_5 N1_5 1_555 1_555
H2_5 C3_5 1_555 1_555
C4_5 C2_5 1_555 1_555
H3_5 C4_5 1_555 1_555
H4_5 C4_5 1_555 1_555
H5_5 C4_5 1_555 1_555
N3_5 B1_5 1_555 1_555
N4_5 C5_5 1_555 1_555
C5_5 N3_5 1_555 1_555
H6_5 C5_5 1_555 1_555
C6_5 N4_5 1_555 1_555
C7_5 N3_5 1_555 1_555
H7_5 C7_5 1_555 1_555
C8_5 C6_5 1_555 1_555
H8_5 C8_5 1_555 1_555
H9_5 C8_5 1_555 1_555
H10_5 C8_5 1_555 1_555
N5_5 B1_5 1_555 1_555
N6_5 C9_5 1_555 1_555
C9_5 N5_5 1_555 1_555
H11_5 C9_5 1_555 1_555
C10_5 N6_5 1_555 1_555
C11_5 N5_5 1_555 1_555
H12_5 C11_5 1_555 1_555
C12_5 C10_5 1_555 1_555
H13_5 C12_5 1_555 1_555
H14_5 C12_5 1_555 1_555
H15_5 C12_5 1_555 1_555
N7_5 B1_5 1_555 1_555
C13_5 N7_5 1_555 1_555
H16_5 C13_5 1_555 1_555
C15_5 N7_5 1_555 1_555
H17_5 C15_5 1_555 1_555
Cu2_3 N4_5 1_555 1_555
Cu4_5 N6_5 1_555 1_555
B2_5 N9_5 1_555 1_555
N9_5 C17_5 1_555 1_555
N10_5 Cu2_3 1_555 1_555
C17_5 N10_5 1_555 1_555
H21_5 C17_5 1_555 1_555
C18_5 N10_5 1_555 1_555
C19_5 N9_5 1_555 1_555
H22_5 C19_5 1_555 1_555
C20_5 C18_5 1_555 1_555
H23_5 C20_5 1_555 1_555
H24_5 C20_5 1_555 1_555
H25_5 C20_5 1_555 1_555
N11_5 B2_5 1_555 1_555
N12_5 Cu4 1_555 1_555
C21_5 N11_5 1_555 1_555
H26_5 C21_5 1_555 1_555
C22_5 N12_5 1_555 1_555
C23_5 N11_5 1_555 1_555
H27_5 C23_5 1_555 1_555
C24_5 C22_5 1_555 1_555
H28_5 C24_5 1_555 1_555
H29_5 C24_5 1_555 1_555
H30_5 C24_5 1_555 1_555
N13_5 B2_5 1_555 1_555
N16_4 C25_5 1_555 1_555
N16_5 Cu2_3 1_555 1_555
C25_5 N13_5 1_555 1_555
H31_5 C25_5 1_555 1_555
C26_5 N16_4 1_555 1_555
C27_5 N13_5 1_555 1_555
H32_5 C27_5 1_555 1_555
C28_5 C26_5 1_555 1_555
H33_5 C28_5 1_555 1_555
H34_5 C28_5 1_555 1_555
H35_5 C28_5 1_555 1_555
N17_5 B2_5 1_555 1_555
N19_3 Cu4 1_555 1_555
N20_3 Cu2_3 1_555 1_555
C29_5 N17_5 1_555 1_555
H36_5 C29_5 1_555 1_555
C31_5 N17_5 1_555 1_555
H37_5 C31_5 1_555 1_555
C2_5 C3_5 1_555 1_555
C6_5 C7_5 1_555 1_555
C10_5 C11_5 1_555 1_555
C18_5 C19_5 1_555 1_555
N12_5 C21_5 1_555 1_555
C22_5 C23_5 1_555 1_555
C26_5 C27_5 1_555 1_555
C14_5 N8_3 1_555 1_555
C16_5 C14_5 1_555 1_555
H18_5 C16_5 1_555 1_555
H19_5 C16_5 1_555 1_555
H20_5 C16_5 1_555 1_555
Cu5_3 N8_3 1_555 1_555
Cu4_3 N18_3 1_555 1_555
C30_5 N18_3 1_555 1_555
C32_5 C30_5 1_555 1_555
H38_5 C32_5 1_555 1_555
H39_5 C32_5 1_555 1_555
H40_5 C32_5 1_555 1_555
C14_6 N20_3 1_555 1_555
C16_6 C14_6 1_555 1_555
H18_6 C16_6 1_555 1_555
H19_6 C16_6 1_555 1_555
H20_6 C16_6 1_555 1_555
Cu4_4 N2_6 1_555 1_555
B1_6 N1_6 1_555 1_555
N1_6 C1_6 1_555 1_555
N2_6 C1_6 1_555 1_555
C1_6 H1_6 1_555 1_555
C2_6 N2_6 1_555 1_555
C3_6 N1_6 1_555 1_555
H2_6 C3_6 1_555 1_555
C4_6 C2_6 1_555 1_555
H3_6 C4_6 1_555 1_555
H4_6 C4_6 1_555 1_555
H5_6 C4_6 1_555 1_555
N3_6 B1_6 1_555 1_555
N4_6 C5_6 1_555 1_555
C5_6 N3_6 1_555 1_555
H6_6 C5_6 1_555 1_555
C6_6 N4_6 1_555 1_555
C7_6 N3_6 1_555 1_555
H7_6 C7_6 1_555 1_555
C8_6 C6_6 1_555 1_555
H8_6 C8_6 1_555 1_555
H9_6 C8_6 1_555 1_555
H10_6 C8_6 1_555 1_555
N5_6 B1_6 1_555 1_555
N6_6 C9_6 1_555 1_555
C9_6 N5_6 1_555 1_555
H11_6 C9_6 1_555 1_555
C10_6 N6_6 1_555 1_555
C11_6 N5_6 1_555 1_555
H12_6 C11_6 1_555 1_555
C12_6 C10_6 1_555 1_555
H13_6 C12_6 1_555 1_555
H14_6 C12_6 1_555 1_555
H15_6 C12_6 1_555 1_555
N7_6 B1_6 1_555 1_555
C13_6 N7_6 1_555 1_555
H16_6 C13_6 1_555 1_555
C15_6 N7_6 1_555 1_555
H17_6 C15_6 1_555 1_555
Cu5_3 N4_6 1_555 1_555
Cu4_6 N6_6 1_555 1_555
B2_6 N9_6 1_555 1_555
N9_6 C17_6 1_555 1_555
N10_6 Cu5_3 1_555 1_555
C17_6 N10_6 1_555 1_555
H21_6 C17_6 1_555 1_555
C18_6 N10_6 1_555 1_555
C19_6 N9_6 1_555 1_555
H22_6 C19_6 1_555 1_555
C20_6 C18_6 1_555 1_555
H23_6 C20_6 1_555 1_555
H24_6 C20_6 1_555 1_555
H25_6 C20_6 1_555 1_555
N11_6 B2_6 1_555 1_555
N12_6 Cu4_4 1_555 1_555
C21_6 N11_6 1_555 1_555
H26_6 C21_6 1_555 1_555
C22_6 N12_6 1_555 1_555
C23_6 N11_6 1_555 1_555
H27_6 C23_6 1_555 1_555
C24_6 C22_6 1_555 1_555
H28_6 C24_6 1_555 1_555
H29_6 C24_6 1_555 1_555
H30_6 C24_6 1_555 1_555
N13_6 B2_6 1_555 1_555
N16 C25_6 1_555 1_555
N16_6 Cu5_3 1_555 1_555
C25_6 N13_6 1_555 1_555
H31_6 C25_6 1_555 1_555
C26_6 N16 1_555 1_555
C27_6 N13_6 1_555 1_555
H32_6 C27_6 1_555 1_555
C28_6 C26_6 1_555 1_555
H33_6 C28_6 1_555 1_555
H34_6 C28_6 1_555 1_555
H35_6 C28_6 1_555 1_555
N17_6 B2_6 1_555 1_555
N19_4 Cu4_4 1_555 1_555
C29_6 N17_6 1_555 1_555
H36_6 C29_6 1_555 1_555
C31_6 N17_6 1_555 1_555
H37_6 C31_6 1_555 1_555
C2_6 C3_6 1_555 1_555
C6_6 C7_6 1_555 1_555
C10_6 C11_6 1_555 1_555
C18_6 C19_6 1_555 1_555
N12_6 C21_6 1_555 1_555
C22_6 C23_6 1_555 1_555
C26_6 C27_6 1_555 1_555
Cu4_2 N18_4 1_555 1_555
C30_6 N18_4 1_555 1_555
C32_6 C30_6 1_555 1_555
H38_6 C32_6 1_555 1_555
H39_6 C32_6 1_555 1_555
H40_6 C32_6 1_555 1_555
C30_7 N19_4 1_555 1_555
C32_7 C30_7 1_555 1_555
H38_7 C32_7 1_555 1_555
H39_7 C32_7 1_555 1_555
H40_7 C32_7 1_555 1_555
C14_7 N8_4 1_555 1_555
C16_7 C14_7 1_555 1_555
H18_7 C16_7 1_555 1_555
H19_7 C16_7 1_555 1_555
H20_7 C16_7 1_555 1_555
Cu5_4 N8_4 1_555 1_555
Cu4_2 N2_7 1_555 1_555
B1_7 N1_7 1_555 1_555
N1_7 C1_7 1_555 1_555
N2_7 C1_7 1_555 1_555
C1_7 H1_7 1_555 1_555
C2_7 N2_7 1_555 1_555
C3_7 N1_7 1_555 1_555
H2_7 C3_7 1_555 1_555
C4_7 C2_7 1_555 1_555
H3_7 C4_7 1_555 1_555
H4_7 C4_7 1_555 1_555
H5_7 C4_7 1_555 1_555
N3_7 B1_7 1_555 1_555
N4_7 C5_7 1_555 1_555
C5_7 N3_7 1_555 1_555
H6_7 C5_7 1_555 1_555
C6_7 N4_7 1_555 1_555
C7_7 N3_7 1_555 1_555
H7_7 C7_7 1_555 1_555
C8_7 C6_7 1_555 1_555
H8_7 C8_7 1_555 1_555
H9_7 C8_7 1_555 1_555
H10_7 C8_7 1_555 1_555
N5_7 B1_7 1_555 1_555
N6_7 C9_7 1_555 1_555
C9_7 N5_7 1_555 1_555
H11_7 C9_7 1_555 1_555
C10_7 N6_7 1_555 1_555
C11_7 N5_7 1_555 1_555
H12_7 C11_7 1_555 1_555
C12_7 C10_7 1_555 1_555
H13_7 C12_7 1_555 1_555
H14_7 C12_7 1_555 1_555
H15_7 C12_7 1_555 1_555
N7_7 B1_7 1_555 1_555
C13_7 N7_7 1_555 1_555
H16_7 C13_7 1_555 1_555
C15_7 N7_7 1_555 1_555
H17_7 C15_7 1_555 1_555
Cu2_4 N4_7 1_555 1_555
Cu4_7 N6_7 1_555 1_555
B2_7 N9_7 1_555 1_555
N9_7 C17_7 1_555 1_555
N10_7 Cu2_4 1_555 1_555
C17_7 N10_7 1_555 1_555
H21_7 C17_7 1_555 1_555
C18_7 N10_7 1_555 1_555
C19_7 N9_7 1_555 1_555
H22_7 C19_7 1_555 1_555
C20_7 C18_7 1_555 1_555
H23_7 C20_7 1_555 1_555
H24_7 C20_7 1_555 1_555
H25_7 C20_7 1_555 1_555
N11_7 B2_7 1_555 1_555
N12_7 Cu4_2 1_555 1_555
C21_7 N11_7 1_555 1_555
H26_7 C21_7 1_555 1_555
C22_7 N12_7 1_555 1_555
C23_7 N11_7 1_555 1_555
H27_7 C23_7 1_555 1_555
C24_7 C22_7 1_555 1_555
H28_7 C24_7 1_555 1_555
H29_7 C24_7 1_555 1_555
H30_7 C24_7 1_555 1_555
N13_7 B2_7 1_555 1_555
N16_3 C25_7 1_555 1_555
N16_7 Cu2_4 1_555 1_555
C25_7 N13_7 1_555 1_555
H31_7 C25_7 1_555 1_555
C26_7 N16_3 1_555 1_555
C27_7 N13_7 1_555 1_555
H32_7 C27_7 1_555 1_555
C28_7 C26_7 1_555 1_555
H33_7 C28_7 1_555 1_555
H34_7 C28_7 1_555 1_555
H35_7 C28_7 1_555 1_555
N17_7 B2_7 1_555 1_555
N20_4 Cu2_4 1_555 1_555
C29_7 N17_7 1_555 1_555
H36_7 C29_7 1_555 1_555
C31_7 N17_7 1_555 1_555
H37_7 C31_7 1_555 1_555
C2_7 C3_7 1_555 1_555
C6_7 C7_7 1_555 1_555
C10_7 C11_7 1_555 1_555
C18_7 C19_7 1_555 1_555
N12_7 C21_7 1_555 1_555
C22_7 C23_7 1_555 1_555
C26_7 C27_7 1_555 1_555
C30_8 N19_3 1_555 1_555
C32_8 C30_8 1_555 1_555
H38_8 C32_8 1_555 1_555
H39_8 C32_8 1_555 1_555
H40_8 C32_8 1_555 1_555
Cu4_3 N2_8 1_555 1_555
B1_8 N1_8 1_555 1_555
N1_8 C1_8 1_555 1_555
N2_8 C1_8 1_555 1_555
C1_8 H1_8 1_555 1_555
C2_8 N2_8 1_555 1_555
C3_8 N1_8 1_555 1_555
H2_8 C3_8 1_555 1_555
C4_8 C2_8 1_555 1_555
H3_8 C4_8 1_555 1_555
H4_8 C4_8 1_555 1_555
H5_8 C4_8 1_555 1_555
N3_8 B1_8 1_555 1_555
N4_8 C5_8 1_555 1_555
C5_8 N3_8 1_555 1_555
H6_8 C5_8 1_555 1_555
C6_8 N4_8 1_555 1_555
C7_8 N3_8 1_555 1_555
H7_8 C7_8 1_555 1_555
C8_8 C6_8 1_555 1_555
H8_8 C8_8 1_555 1_555
H9_8 C8_8 1_555 1_555
H10_8 C8_8 1_555 1_555
N5_8 B1_8 1_555 1_555
N6_8 C9_8 1_555 1_555
C9_8 N5_8 1_555 1_555
H11_8 C9_8 1_555 1_555
C10_8 N6_8 1_555 1_555
C11_8 N5_8 1_555 1_555
H12_8 C11_8 1_555 1_555
C12_8 C10_8 1_555 1_555
H13_8 C12_8 1_555 1_555
H14_8 C12_8 1_555 1_555
H15_8 C12_8 1_555 1_555
N7_8 B1_8 1_555 1_555
C13_8 N7_8 1_555 1_555
H16_8 C13_8 1_555 1_555
C15_8 N7_8 1_555 1_555
H17_8 C15_8 1_555 1_555
Cu5_4 N4_8 1_555 1_555
Cu4_8 N6_8 1_555 1_555
B2_8 N9_8 1_555 1_555
N9_8 C17_8 1_555 1_555
N10_8 Cu5_4 1_555 1_555
C17_8 N10_8 1_555 1_555
H21_8 C17_8 1_555 1_555
C18_8 N10_8 1_555 1_555
C19_8 N9_8 1_555 1_555
H22_8 C19_8 1_555 1_555
C20_8 C18_8 1_555 1_555
H23_8 C20_8 1_555 1_555
H24_8 C20_8 1_555 1_555
H25_8 C20_8 1_555 1_555
N11_8 B2_8 1_555 1_555
N12_8 Cu4_3 1_555 1_555
C21_8 N11_8 1_555 1_555
H26_8 C21_8 1_555 1_555
C22_8 N12_8 1_555 1_555
C23_8 N11_8 1_555 1_555
H27_8 C23_8 1_555 1_555
C24_8 C22_8 1_555 1_555
H28_8 C24_8 1_555 1_555
H29_8 C24_8 1_555 1_555
H30_8 C24_8 1_555 1_555
N13_8 B2_8 1_555 1_555
N16_2 C25_8 1_555 1_555
N16_8 Cu5_4 1_555 1_555
C25_8 N13_8 1_555 1_555
H31_8 C25_8 1_555 1_555
C26_8 N16_2 1_555 1_555
C27_8 N13_8 1_555 1_555
H32_8 C27_8 1_555 1_555
C28_8 C26_8 1_555 1_555
H33_8 C28_8 1_555 1_555
H34_8 C28_8 1_555 1_555
H35_8 C28_8 1_555 1_555
N17_8 B2_8 1_555 1_555
C29_8 N17_8 1_555 1_555
H36_8 C29_8 1_555 1_555
C31_8 N17_8 1_555 1_555
H37_8 C31_8 1_555 1_555
C2_8 C3_8 1_555 1_555
C6_8 C7_8 1_555 1_555
C10_8 C11_8 1_555 1_555
C18_8 C19_8 1_555 1_555
N12_8 C21_8 1_555 1_555
C22_8 C23_8 1_555 1_555
C26_8 C27_8 1_555 1_555
C14_8 N20_4 1_555 1_555
C16_8 C14_8 1_555 1_555
H18_8 C16_8 1_555 1_555
H19_8 C16_8 1_555 1_555
H20_8 C16_8 1_555 1_555
Cu4_5 N2_9 1_555 1_555
B1_9 N1_9 1_555 1_555
N1_9 C1_9 1_555 1_555
N2_9 C1_9 1_555 1_555
C1_9 H1_9 1_555 1_555
C2_9 N2_9 1_555 1_555
C3_9 N1_9 1_555 1_555
H2_9 C3_9 1_555 1_555
C4_9 C2_9 1_555 1_555
H3_9 C4_9 1_555 1_555
H4_9 C4_9 1_555 1_555
H5_9 C4_9 1_555 1_555
N3_9 B1_9 1_555 1_555
N4_9 C5_9 1_555 1_555
C5_9 N3_9 1_555 1_555
H6_9 C5_9 1_555 1_555
C6_9 N4_9 1_555 1_555
C7_9 N3_9 1_555 1_555
H7_9 C7_9 1_555 1_555
C8_9 C6_9 1_555 1_555
H8_9 C8_9 1_555 1_555
H9_9 C8_9 1_555 1_555
H10_9 C8_9 1_555 1_555
N5_9 B1_9 1_555 1_555
N15 C9_9 1_555 1_555
C9_9 N5_9 1_555 1_555
H11_9 C9_9 1_555 1_555
C10_9 N15 1_555 1_555
C11_9 N5_9 1_555 1_555
H12_9 C11_9 1_555 1_555
C12_9 C10_9 1_555 1_555
H13_9 C12_9 1_555 1_555
H14_9 C12_9 1_555 1_555
H15_9 C12_9 1_555 1_555
N7_9 B1_9 1_555 1_555
C13_9 N7_9 1_555 1_555
H16_9 C13_9 1_555 1_555
C15_9 N7_9 1_555 1_555
H17_9 C15_9 1_555 1_555
Cu6_2 N4_9 1_555 1_555
B2_9 N9_9 1_555 1_555
N9_9 C17_9 1_555 1_555
N10_9 Cu6_2 1_555 1_555
C17_9 N10_9 1_555 1_555
H21_9 C17_9 1_555 1_555
C18_9 N10_9 1_555 1_555
C19_9 N9_9 1_555 1_555
H22_9 C19_9 1_555 1_555
C20_9 C18_9 1_555 1_555
H23_9 C20_9 1_555 1_555
H24_9 C20_9 1_555 1_555
H25_9 C20_9 1_555 1_555
N11_9 B2_9 1_555 1_555
N12_9 Cu4_5 1_555 1_555
C21_9 N11_9 1_555 1_555
H26_9 C21_9 1_555 1_555
C22_9 N12_9 1_555 1_555
C23_9 N11_9 1_555 1_555
H27_9 C23_9 1_555 1_555
C24_9 C22_9 1_555 1_555
H28_9 C24_9 1_555 1_555
H29_9 C24_9 1_555 1_555
H30_9 C24_9 1_555 1_555
N13_9 B2_9 1_555 1_555
N16_8 C25_9 1_555 1_555
C25_9 N13_9 1_555 1_555
H31_9 C25_9 1_555 1_555
C26_9 N16_8 1_555 1_555
C27_9 N13_9 1_555 1_555
H32_9 C27_9 1_555 1_555
C28_9 C26_9 1_555 1_555
H33_9 C28_9 1_555 1_555
H34_9 C28_9 1_555 1_555
H35_9 C28_9 1_555 1_555
N17_9 B2_9 1_555 1_555
N19_5 Cu4_5 1_555 1_555
N20_5 Cu6_2 1_555 1_555
C29_9 N17_9 1_555 1_555
H36_9 C29_9 1_555 1_555
C31_9 N17_9 1_555 1_555
H37_9 C31_9 1_555 1_555
C2_9 C3_9 1_555 1_555
C6_9 C7_9 1_555 1_555
C10_9 C11_9 1_555 1_555
C18_9 C19_9 1_555 1_555
N12_9 C21_9 1_555 1_555
C22_9 C23_9 1_555 1_555
C26_9 C27_9 1_555 1_555
C14_9 N8_5 1_555 1_555
C16_9 C14_9 1_555 1_555
H18_9 C16_9 1_555 1_555
H19_9 C16_9 1_555 1_555
H20_9 C16_9 1_555 1_555
Cu6_4 N8_5 1_555 1_555
Cu4_7 N18_5 1_555 1_555
C30_9 N18_5 1_555 1_555
C32_9 C30_9 1_555 1_555
H38_9 C32_9 1_555 1_555
H39_9 C32_9 1_555 1_555
H40_9 C32_9 1_555 1_555
C14_10 N20_5 1_555 1_555
C16_10 C14_10 1_555 1_555
H18_10 C16_10 1_555 1_555
H19_10 C16_10 1_555 1_555
H20_10 C16_10 1_555 1_555
Cu4_8 N2_10 1_555 1_555
B1_10 N1_10 1_555 1_555
N1_10 C1_10 1_555 1_555
N2_10 C1_10 1_555 1_555
C1_10 H1_10 1_555 1_555
C2_10 N2_10 1_555 1_555
C3_10 N1_10 1_555 1_555
H2_10 C3_10 1_555 1_555
C4_10 C2_10 1_555 1_555
H3_10 C4_10 1_555 1_555
H4_10 C4_10 1_555 1_555
H5_10 C4_10 1_555 1_555
N3_10 B1_10 1_555 1_555
N4_10 C5_10 1_555 1_555
C5_10 N3_10 1_555 1_555
H6_10 C5_10 1_555 1_555
C6_10 N4_10 1_555 1_555
C7_10 N3_10 1_555 1_555
H7_10 C7_10 1_555 1_555
C8_10 C6_10 1_555 1_555
H8_10 C8_10 1_555 1_555
H9_10 C8_10 1_555 1_555
H10_10 C8_10 1_555 1_555
N5_10 B1_10 1_555 1_555
N15_3 C9_10 1_555 1_555
C9_10 N5_10 1_555 1_555
H11_10 C9_10 1_555 1_555
C10_10 N15_3 1_555 1_555
C11_10 N5_10 1_555 1_555
H12_10 C11_10 1_555 1_555
C12_10 C10_10 1_555 1_555
H13_10 C12_10 1_555 1_555
H14_10 C12_10 1_555 1_555
H15_10 C12_10 1_555 1_555
N7_10 B1_10 1_555 1_555
C13_10 N7_10 1_555 1_555
H16_10 C13_10 1_555 1_555
C15_10 N7_10 1_555 1_555
H17_10 C15_10 1_555 1_555
Cu6_4 N4_10 1_555 1_555
B2_10 N9_10 1_555 1_555
N9_10 C17_10 1_555 1_555
N10_10 Cu6_4 1_555 1_555
C17_10 N10_10 1_555 1_555
H21_10 C17_10 1_555 1_555
C18_10 N10_10 1_555 1_555
C19_10 N9_10 1_555 1_555
H22_10 C19_10 1_555 1_555
C20_10 C18_10 1_555 1_555
H23_10 C20_10 1_555 1_555
H24_10 C20_10 1_555 1_555
H25_10 C20_10 1_555 1_555
N11_10 B2_10 1_555 1_555
N12_10 Cu4_8 1_555 1_555
C21_10 N11_10 1_555 1_555
H26_10 C21_10 1_555 1_555
C22_10 N12_10 1_555 1_555
C23_10 N11_10 1_555 1_555
H27_10 C23_10 1_555 1_555
C24_10 C22_10 1_555 1_555
H28_10 C24_10 1_555 1_555
H29_10 C24_10 1_555 1_555
H30_10 C24_10 1_555 1_555
N13_10 B2_10 1_555 1_555
N16_5 C25_10 1_555 1_555
C25_10 N13_10 1_555 1_555
H31_10 C25_10 1_555 1_555
C26_10 N16_5 1_555 1_555
C27_10 N13_10 1_555 1_555
H32_10 C27_10 1_555 1_555
C28_10 C26_10 1_555 1_555
H33_10 C28_10 1_555 1_555
H34_10 C28_10 1_555 1_555
H35_10 C28_10 1_555 1_555
N17_10 B2_10 1_555 1_555
N19_6 Cu4_8 1_555 1_555
C29_10 N17_10 1_555 1_555
H36_10 C29_10 1_555 1_555
C31_10 N17_10 1_555 1_555
H37_10 C31_10 1_555 1_555
C2_10 C3_10 1_555 1_555
C6_10 C7_10 1_555 1_555
C10_10 C11_10 1_555 1_555
C18_10 C19_10 1_555 1_555
N12_10 C21_10 1_555 1_555
C22_10 C23_10 1_555 1_555
C26_10 C27_10 1_555 1_555
Cu4_6 N18_6 1_555 1_555
C30_10 N18_6 1_555 1_555
C32_10 C30_10 1_555 1_555
H38_10 C32_10 1_555 1_555
H39_10 C32_10 1_555 1_555
H40_10 C32_10 1_555 1_555
C30_11 N19_6 1_555 1_555
C32_11 C30_11 1_555 1_555
H38_11 C32_11 1_555 1_555
H39_11 C32_11 1_555 1_555
H40_11 C32_11 1_555 1_555
C14_11 N8_6 1_555 1_555
C16_11 C14_11 1_555 1_555
H18_11 C16_11 1_555 1_555
H19_11 C16_11 1_555 1_555
H20_11 C16_11 1_555 1_555
Cu6 N8_6 1_555 1_555
Cu4_6 N2_11 1_555 1_555
B1_11 N1_11 1_555 1_555
N1_11 C1_11 1_555 1_555
N2_11 C1_11 1_555 1_555
C1_11 H1_11 1_555 1_555
C2_11 N2_11 1_555 1_555
C3_11 N1_11 1_555 1_555
H2_11 C3_11 1_555 1_555
C4_11 C2_11 1_555 1_555
H3_11 C4_11 1_555 1_555
H4_11 C4_11 1_555 1_555
H5_11 C4_11 1_555 1_555
N3_11 B1_11 1_555 1_555
N4_11 C5_11 1_555 1_555
C5_11 N3_11 1_555 1_555
H6_11 C5_11 1_555 1_555
C6_11 N4_11 1_555 1_555
C7_11 N3_11 1_555 1_555
H7_11 C7_11 1_555 1_555
C8_11 C6_11 1_555 1_555
H8_11 C8_11 1_555 1_555
H9_11 C8_11 1_555 1_555
H10_11 C8_11 1_555 1_555
N5_11 B1_11 1_555 1_555
N15_4 C9_11 1_555 1_555
C9_11 N5_11 1_555 1_555
H11_11 C9_11 1_555 1_555
C10_11 N15_4 1_555 1_555
C11_11 N5_11 1_555 1_555
H12_11 C11_11 1_555 1_555
C12_11 C10_11 1_555 1_555
H13_11 C12_11 1_555 1_555
H14_11 C12_11 1_555 1_555
H15_11 C12_11 1_555 1_555
N7_11 B1_11 1_555 1_555
C13_11 N7_11 1_555 1_555
H16_11 C13_11 1_555 1_555
C15_11 N7_11 1_555 1_555
H17_11 C15_11 1_555 1_555
Cu6_3 N4_11 1_555 1_555
B2_11 N9_11 1_555 1_555
N9_11 C17_11 1_555 1_555
N10_11 Cu6_3 1_555 1_555
C17_11 N10_11 1_555 1_555
H21_11 C17_11 1_555 1_555
C18_11 N10_11 1_555 1_555
C19_11 N9_11 1_555 1_555
H22_11 C19_11 1_555 1_555
C20_11 C18_11 1_555 1_555
H23_11 C20_11 1_555 1_555
H24_11 C20_11 1_555 1_555
H25_11 C20_11 1_555 1_555
N11_11 B2_11 1_555 1_555
N12_11 Cu4_6 1_555 1_555
C21_11 N11_11 1_555 1_555
H26_11 C21_11 1_555 1_555
C22_11 N12_11 1_555 1_555
C23_11 N11_11 1_555 1_555
H27_11 C23_11 1_555 1_555
C24_11 C22_11 1_555 1_555
H28_11 C24_11 1_555 1_555
H29_11 C24_11 1_555 1_555
H30_11 C24_11 1_555 1_555
N13_11 B2_11 1_555 1_555
N16_7 C25_11 1_555 1_555
C25_11 N13_11 1_555 1_555
H31_11 C25_11 1_555 1_555
C26_11 N16_7 1_555 1_555
C27_11 N13_11 1_555 1_555
H32_11 C27_11 1_555 1_555
C28_11 C26_11 1_555 1_555
H33_11 C28_11 1_555 1_555
H34_11 C28_11 1_555 1_555
H35_11 C28_11 1_555 1_555
N17_11 B2_11 1_555 1_555
N20_6 Cu6_3 1_555 1_555
C29_11 N17_11 1_555 1_555
H36_11 C29_11 1_555 1_555
C31_11 N17_11 1_555 1_555
H37_11 C31_11 1_555 1_555
C2_11 C3_11 1_555 1_555
C6_11 C7_11 1_555 1_555
C10_11 C11_11 1_555 1_555
C18_11 C19_11 1_555 1_555
N12_11 C21_11 1_555 1_555
C22_11 C23_11 1_555 1_555
C26_11 C27_11 1_555 1_555
C30_12 N19_5 1_555 1_555
C32_12 C30_12 1_555 1_555
H38_12 C32_12 1_555 1_555
H39_12 C32_12 1_555 1_555
H40_12 C32_12 1_555 1_555
Cu4_7 N2_12 1_555 1_555
B1_12 N1_12 1_555 1_555
N1_12 C1_12 1_555 1_555
N2_12 C1_12 1_555 1_555
C1_12 H1_12 1_555 1_555
C2_12 N2_12 1_555 1_555
C3_12 N1_12 1_555 1_555
H2_12 C3_12 1_555 1_555
C4_12 C2_12 1_555 1_555
H3_12 C4_12 1_555 1_555
H4_12 C4_12 1_555 1_555
H5_12 C4_12 1_555 1_555
N3_12 B1_12 1_555 1_555
N4_12 C5_12 1_555 1_555
C5_12 N3_12 1_555 1_555
H6_12 C5_12 1_555 1_555
C6_12 N4_12 1_555 1_555
C7_12 N3_12 1_555 1_555
H7_12 C7_12 1_555 1_555
C8_12 C6_12 1_555 1_555
H8_12 C8_12 1_555 1_555
H9_12 C8_12 1_555 1_555
H10_12 C8_12 1_555 1_555
N5_12 B1_12 1_555 1_555
N15_2 C9_12 1_555 1_555
C9_12 N5_12 1_555 1_555
H11_12 C9_12 1_555 1_555
C10_12 N15_2 1_555 1_555
C11_12 N5_12 1_555 1_555
H12_12 C11_12 1_555 1_555
C12_12 C10_12 1_555 1_555
H13_12 C12_12 1_555 1_555
H14_12 C12_12 1_555 1_555
H15_12 C12_12 1_555 1_555
N7_12 B1_12 1_555 1_555
C13_12 N7_12 1_555 1_555
H16_12 C13_12 1_555 1_555
C15_12 N7_12 1_555 1_555
H17_12 C15_12 1_555 1_555
Cu6 N4_12 1_555 1_555
B2_12 N9_12 1_555 1_555
N9_12 C17_12 1_555 1_555
N10_12 Cu6 1_555 1_555
C17_12 N10_12 1_555 1_555
H21_12 C17_12 1_555 1_555
C18_12 N10_12 1_555 1_555
C19_12 N9_12 1_555 1_555
H22_12 C19_12 1_555 1_555
C20_12 C18_12 1_555 1_555
H23_12 C20_12 1_555 1_555
H24_12 C20_12 1_555 1_555
H25_12 C20_12 1_555 1_555
N11_12 B2_12 1_555 1_555
N12_12 Cu4_7 1_555 1_555
C21_12 N11_12 1_555 1_555
H26_12 C21_12 1_555 1_555
C22_12 N12_12 1_555 1_555
C23_12 N11_12 1_555 1_555
H27_12 C23_12 1_555 1_555
C24_12 C22_12 1_555 1_555
H28_12 C24_12 1_555 1_555
H29_12 C24_12 1_555 1_555
H30_12 C24_12 1_555 1_555
N13_12 B2_12 1_555 1_555
N16_6 C25_12 1_555 1_555
C25_12 N13_12 1_555 1_555
H31_12 C25_12 1_555 1_555
C26_12 N16_6 1_555 1_555
C27_12 N13_12 1_555 1_555
H32_12 C27_12 1_555 1_555
C28_12 C26_12 1_555 1_555
H33_12 C28_12 1_555 1_555
H34_12 C28_12 1_555 1_555
H35_12 C28_12 1_555 1_555
N17_12 B2_12 1_555 1_555
C29_12 N17_12 1_555 1_555
H36_12 C29_12 1_555 1_555
C31_12 N17_12 1_555 1_555
H37_12 C31_12 1_555 1_555
C2_12 C3_12 1_555 1_555
C6_12 C7_12 1_555 1_555
C10_12 C11_12 1_555 1_555
C18_12 C19_12 1_555 1_555
N12_12 C21_12 1_555 1_555
C22_12 C23_12 1_555 1_555
C26_12 C27_12 1_555 1_555
C14_12 N20_6 1_555 1_555
C16_12 C14_12 1_555 1_555
H18_12 C16_12 1_555 1_555
H19_12 C16_12 1_555 1_555
H20_12 C16_12 1_555 1_555

#END
