
###############################################################################
#
# This file contains modified crystal structure data generated from the
# MOF subset of the Cambridge Structural Database (CSD) v543 
# hosted by the Cambridge Crystallographic Data Centre (CCDC).
#
# This work is licensed under the Creative Commons
# Attribution-NonCommercial-ShareAlike 4.0 International License.
# To view a copy of this license, visit
# http://creativecommons.org/licenses/by-nc-sa/4.0/
# or send a letter to
# Creative Commons, PO Box 1866, Mountain View, CA 94042, USA.
#
# CIF created using the CSD Python API on 29 September 2022
# The structure has been converted into the P1 space group
# The structure has a 3D framework
# The original CSD entry KUDLUR is in the trigonal crystal system
# The framework has been calculated to contain at least 10.0% void space
# The void calculation uses a probe of radius 1.32A, grid spacing 0.4
# H atom positions have been added when not included in the experimental data
#
###############################################################################

data_KUDLUR
_chemical_formula_moiety         '(C48 H84 Cu5 Dy4 N12 O48)n'
_symmetry_cell_setting           triclinic
_symmetry_space_group_name_H-M   'P 1'
_symmetry_Int_Tables_number      1
_space_group_name_Hall           'P 1'
loop_
_symmetry_equiv_pos_site_id
_symmetry_equiv_pos_as_xyz
1 x,y,z
_cell_length_a                   13.3503(15)
_cell_length_b                   13.3503(15)
_cell_length_c                   14.3853(19)
_cell_angle_alpha                90
_cell_angle_beta                 90
_cell_angle_gamma                120
_cell_volume                     2220.4
loop_
_atom_site_label
_atom_site_type_symbol
_atom_site_fract_x
_atom_site_fract_y
_atom_site_fract_z
Cu1 Cu 0.0000 0.5000 0.0000
Cu5 Cu 0.0000 0.5000 0.5000
N7 N 0.0422(4) 0.3896(4) 0.0582(3)
H9 H 0.0238 0.3502 0.4216
O31 O 0.0751(4) 0.5983(3) 0.1082(3)
H38 H 0.0962325 0.428345 0.112735
H39 H 0.0819466 0.365241 0.0105255
Cu1_2 Cu 0.0000 0.5000 1.0000
H1 H 0.0238 0.6736 0.9216
O10 O 0.1888(3) 0.5489(3) 0.9405(3)
Dy1 Dy 0.6667 0.3333 0.16750(2)
Cu1_3 Cu 1.0000 0.5000 0.0000
O1 O 0.8112(3) 0.4511(3) 0.0595(3)
O2 O 0.7543(3) 0.5608(4) 0.1280(3)
C1 C 0.8150(5) 0.5467(5) 0.0699(4)
C2 C 0.9018(5) 0.6483(5) 0.0102(4)
H3 H 0.9602 0.7072 0.0500
Dy2 Dy 0.6667 0.3333 0.66750(2)
Cu2 Cu 0.5000 0.0000 0.5000
Cu3 Cu 0.5000 0.5000 0.0000
Cu4 Cu 0.5000 0.0000 0.0000
Cu5_2 Cu 1.0000 0.5000 0.5000
Cu6 Cu 0.5000 0.5000 0.5000
N2 N 0.3896(4) 0.0422(4) 0.4418(3)
N5 N 0.9578(4) 0.3474(6) 0.4418(3)
N6 N 0.6526(6) 0.6104(4) 0.4418(3)
N9 N 0.6104(4) 0.6526(6) 0.0582(3)
H10 H 0.6498 0.6736 0.4216
H11 H 0.9762 0.3264 0.0784
H12 H 0.6736 0.0238 0.5784
H13 H 0.6736 0.6498 0.0784
O5 O 0.5489(3) 0.1888(3) 0.5595(3)
O6 O 0.5489(3) 0.3601(4) 0.0595(3)
O7 O 0.6399(4) 0.1888(3) 0.0595(3)
O8 O 0.8112(3) 0.3601(4) 0.5595(3)
O9 O 0.6399(4) 0.4511(3) 0.5595(3)
O13 O 0.4392(4) 0.2457(3) 0.6280(3)
O14 O 0.4392(4) 0.1935(5) 0.1280(3)
O15 O 0.8065(5) 0.2457(3) 0.1280(3)
O16 O 0.7543(3) 0.1935(5) 0.6280(3)
O17 O 0.8065(5) 0.5608(4) 0.6280(3)
O18 O 0.6191(4) 0.1845(3) 0.2705(3)
O21 O 0.8155(3) 0.4346(5) 0.2705(3)
O22 O 0.5654(5) 0.3809(4) 0.2705(3)
O23 O 0.8155(3) 0.3809(4) 0.7705(3)
O24 O 0.5654(5) 0.1845(3) 0.7705(3)
O25 O 0.6191(4) 0.4346(5) 0.7705(3)
O26 O 0.5983(3) 0.0751(4) 0.3918(3)
O29 O 0.9249(4) 0.5232(5) 0.3918(3)
O30 O 0.4768(5) 0.4017(3) 0.3918(3)
O33 O 0.4017(3) 0.4768(5) 0.1082(3)
C5 C 0.4533(5) 0.1850(5) 0.5699(4)
C6 C 0.4533(5) 0.2683(7) 0.0699(4)
C7 C 0.7317(7) 0.1850(5) 0.0699(4)
C8 C 0.8150(5) 0.2683(7) 0.5699(4)
C9 C 0.7317(7) 0.5467(5) 0.5699(4)
C10 C 0.3517(5) 0.0982(5) 0.5102(4)
C11 C 0.3517(5) 0.2535(7) 0.0102(4)
C12 C 0.7465(7) 0.0982(5) 0.0102(4)
C13 C 0.9018(5) 0.2535(7) 0.5102(4)
C14 C 0.7465(7) 0.6483(5) 0.5102(4)
H14 H 0.3178 0.1380 0.4781
H17 H 0.8620 0.1798 0.4781
H18 H 0.8202 0.6822 0.4781
H19 H 0.2928 0.0398 0.5500
H20 H 0.2928 0.2530 0.0500
H21 H 0.7470 0.0398 0.0500
H22 H 0.9602 0.2530 0.5500
H23 H 0.7470 0.7072 0.5500
C15 C 0.5634(5) 0.1263(4) 0.3391(3)
C18 C 0.8737(4) 0.4371(6) 0.3391(3)
C19 C 0.5629(6) 0.4366(5) 0.3391(3)
C20 C 0.4479(5) 0.1172(5) 0.3595(4)
C23 C 0.8828(5) 0.3307(7) 0.3595(4)
C24 C 0.6693(7) 0.5521(5) 0.3595(4)
H24 H 0.3982 0.0858 0.3056
H27 H 0.9142 0.3124 0.3056
H28 H 0.6876 0.6018 0.3056
H29 H 0.4597 0.1940 0.3710
H32 H 0.8060 0.2657 0.3710
H33 H 0.7343 0.5403 0.3710
H36 H 0.571655 0.667888 0.112735
H37 H 0.634759 0.716706 0.0105255
Cu1_4 Cu 1.0000 0.5000 1.0000
N1 N 0.9578(4) 0.6104(4) 0.9418(3)
O4 O 0.9249(4) 0.4017(3) 0.8918(3)
H2 H 0.8620 0.6822 0.9781
C3 C 0.8737(4) 0.4366(5) 0.8391(3)
C4 C 0.8828(5) 0.5521(5) 0.8595(4)
H4 H 0.9142 0.6018 0.8056
H5 H 0.8060 0.5403 0.8710
Cu3_2 Cu 0.5000 0.5000 1.0000
Cu4_2 Cu 0.5000 0.0000 1.0000
N3 N 0.3896(4) 0.3474(6) 0.9418(3)
N4 N 0.6526(6) 0.0422(4) 0.9418(3)
H7 H 0.3264 0.3502 0.9216
O12 O 0.4511(3) 0.6399(4) 0.9405(3)
O27 O 0.5983(3) 0.5232(5) 0.8918(3)
O28 O 0.4768(5) 0.0751(4) 0.8918(3)
H15 H 0.3178 0.1798 0.9781
H16 H 0.8202 0.1380 0.9781
C16 C 0.5634(5) 0.4371(6) 0.8391(3)
C17 C 0.5629(6) 0.1263(4) 0.8391(3)
C21 C 0.4479(5) 0.3307(7) 0.8595(4)
C22 C 0.6693(7) 0.1172(5) 0.8595(4)
H25 H 0.3982 0.3124 0.8056
H26 H 0.6876 0.0858 0.8056
H30 H 0.4597 0.2657 0.8710
H31 H 0.7343 0.1940 0.8710
Cu2_2 Cu 0.5000 1.0000 0.5000
Cu4_3 Cu 0.5000 1.0000 0.0000
N8 N 0.6104(4) 0.9578(4) 0.5582(3)
H6 H 0.3264 0.9762 0.4216
O11 O 0.4511(3) 0.8112(3) 0.4405(3)
O32 O 0.4017(3) 0.9249(4) 0.6082(3)
H34 H 0.634759 0.918053 0.510525
H35 H 0.571655 0.903767 0.612735
Cu4_4 Cu 0.5000 1.0000 1.0000
H8 H 0.6498 0.9762 0.9216
N8_2 N 0.0422(4) 0.6526(6) 0.5582(3)
O11_2 O 0.1888(3) 0.6399(4) 0.4405(3)
O32_2 O 0.0751(4) 0.4768(5) 0.6082(3)
H34_2 H 0.0819466 0.716706 0.510525
H35_2 H 0.0962325 0.667888 0.612735
H12_2 H 0.9762 0.6498 0.5784
H13_2 H 0.3502 0.0238 0.0784
N9_2 N 0.3474(6) 0.9578(7) 0.0582(3)
O33_2 O 0.5232(5) 0.9249(6) 0.1082(3)
H36_2 H 0.332112 0.903767 0.112735
H37_2 H 0.283294 0.918053 0.0105255
O12_2 O 0.3601(4) 0.8112(5) 0.9405(3)
N8_3 N 0.3474(6) 0.3896(4) 0.5582(3)
H12_3 H 0.3502 0.3264 0.5784
O11_3 O 0.3601(4) 0.5489(3) 0.4405(3)
O32_3 O 0.5232(5) 0.5983(3) 0.6082(3)
H34_3 H 0.283294 0.365241 0.510525
H35_3 H 0.332112 0.428345 0.612735
H38_2 H 0.428345 0.0962325 0.387265
H39_2 H 0.365241 0.0819466 0.489475
Dy1_2 Dy 0.3333 0.6667 0.33250(2)
O2_2 O 0.5608(4) 0.7543(3) 0.3720(3)
O3 O 0.3809(4) 0.8155(3) 0.7295(3)
C1_2 C 0.5467(5) 0.8150(5) 0.4301(4)
C2_2 C 0.6483(5) 0.9018(5) 0.4898(4)
H2_2 H 0.6822 0.8620 0.5219
H3_2 H 0.7072 0.9602 0.4500
C3_2 C 0.4366(5) 0.8737(4) 0.6609(3)
C4_2 C 0.5521(5) 0.8828(5) 0.6405(4)
H4_2 H 0.6018 0.9142 0.6944
H5_2 H 0.5403 0.8060 0.6290
Dy3 Dy 0.3333 0.6667 0.83250(2)
O14_2 O 0.1935(5) 0.4392(4) 0.3720(3)
O15_2 O 0.2457(3) 0.8065(5) 0.3720(3)
O18_2 O 0.1845(3) 0.6191(4) 0.2295(3)
O19 O 0.4346(5) 0.6191(4) 0.7295(3)
O20 O 0.1845(3) 0.5654(5) 0.7295(3)
O21_2 O 0.4346(5) 0.8155(3) 0.2295(3)
O22_2 O 0.3809(4) 0.5654(5) 0.2295(3)
C6_2 C 0.2683(7) 0.4533(5) 0.4301(4)
C7_2 C 0.1850(5) 0.7317(7) 0.4301(4)
C11_2 C 0.2535(7) 0.3517(5) 0.4898(4)
C12_2 C 0.0982(5) 0.7465(7) 0.4898(4)
H14_2 H 0.1380 0.3178 0.0219
H15_2 H 0.1798 0.3178 0.5219
H16_2 H 0.1380 0.8202 0.5219
H17_2 H 0.1798 0.8620 0.0219
H18_2 H 0.6822 0.8202 0.0219
H20_2 H 0.2530 0.2928 0.4500
H21_2 H 0.0398 0.7470 0.4500
C15_2 C 0.1263(4) 0.5634(5) 0.1609(3)
C16_2 C 0.4371(6) 0.5634(5) 0.6609(3)
C17_2 C 0.1263(4) 0.5629(6) 0.6609(3)
C18_2 C 0.4371(6) 0.8737(4) 0.1609(3)
C19_2 C 0.4366(5) 0.5629(6) 0.1609(3)
C20_2 C 0.1172(5) 0.4479(5) 0.1405(4)
C21_2 C 0.3307(7) 0.4479(5) 0.6405(4)
C22_2 C 0.1172(5) 0.6693(7) 0.6405(4)
C23_2 C 0.3307(7) 0.8828(5) 0.1405(4)
C24_2 C 0.5521(5) 0.6693(7) 0.1405(4)
H24_2 H 0.0858 0.3982 0.1944
H25_2 H 0.3124 0.3982 0.6944
H26_2 H 0.0858 0.6876 0.6944
H27_2 H 0.3124 0.9142 0.1944
H28_2 H 0.6018 0.6876 0.1944
H29_2 H 0.1940 0.4597 0.1290
H30_2 H 0.2657 0.4597 0.6290
H31_2 H 0.1940 0.7343 0.6290
H32_2 H 0.2657 0.8060 0.1290
H33_2 H 0.5403 0.7343 0.1290
H36_3 H 0.667888 0.571655 0.387265
H37_3 H 0.716706 0.634759 0.489475
O13_2 O 0.2457(3) 0.4392(4) 0.8720(3)
O16_2 O 0.1935(5) 0.7543(3) 0.8720(3)
O17_2 O 0.5608(4) 0.8065(5) 0.8720(3)
C5_2 C 0.1850(5) 0.4533(5) 0.9301(4)
C8_2 C 0.2683(7) 0.8150(5) 0.9301(4)
C9_2 C 0.5467(5) 0.7317(7) 0.9301(4)
C10_2 C 0.0982(5) 0.3517(5) 0.9898(4)
C13_2 C 0.2535(7) 0.9018(5) 0.9898(4)
C14_2 C 0.6483(5) 0.7465(7) 0.9898(4)
H19_2 H 0.0398 0.2928 0.9500
H22_2 H 0.2530 0.9602 0.9500
H23_2 H 0.7072 0.7470 0.9500
H34_4 H 0.918053 0.634759 0.989475
H35_4 H 0.903767 0.571655 0.887265
H34_5 H 0.365241 0.283294 0.989475
H35_5 H 0.428345 0.332112 0.887265
H38_3 H 0.903767 0.332112 0.387265
H39_3 H 0.918053 0.283294 0.489475
H34_6 H 0.716706 0.0819466 0.989475
H35_6 H 0.667888 0.0962325 0.887265
loop_
_geom_bond_atom_site_label_1
_geom_bond_atom_site_label_2
_geom_bond_site_symmetry_1
_geom_bond_site_symmetry_2
N7 Cu1 1_555 1_555
O31 Cu1 1_555 1_555
N7 H38 1_555 1_555
N7 H39 1_555 1_555
O10 Cu1_2 1_555 1_555
Dy1 O1 1_555 1_555
O1 Cu1_3 1_555 1_555
O2 Dy1 1_555 1_555
C1 O1 1_555 1_555
H3 C2 1_555 1_555
Dy2 O5 1_555 1_555
Cu2 N2 1_555 1_555
Cu5_2 N5 1_555 1_555
Cu6 N6 1_555 1_555
N6 H10 1_555 1_555
N9 Cu3 1_555 1_555
H13 N9 1_555 1_555
O5 Cu2 1_555 1_555
O6 Dy1 1_555 1_555
O7 Dy1 1_555 1_555
O8 Dy2 1_555 1_555
O9 Dy2 1_555 1_555
O13 Dy2 1_555 1_555
O14 Dy1 1_555 1_555
O15 Dy1 1_555 1_555
O16 Dy2 1_555 1_555
O17 Dy2 1_555 1_555
O18 Dy1 1_555 1_555
O21 Dy1 1_555 1_555
O22 Dy1 1_555 1_555
O23 Dy2 1_555 1_555
O24 Dy2 1_555 1_555
O25 Dy2 1_555 1_555
O26 Cu2 1_555 1_555
O29 Cu5_2 1_555 1_555
O30 Cu6 1_555 1_555
O33 Cu3 1_555 1_555
C5 O5 1_555 1_555
C6 O6 1_555 1_555
C7 O7 1_555 1_555
C8 O8 1_555 1_555
C9 O9 1_555 1_555
C10 N2 1_555 1_555
C13 N5 1_555 1_555
C14 N6 1_555 1_555
H14 C10 1_555 1_555
H17 C13 1_555 1_555
H18 C14 1_555 1_555
H19 C10 1_555 1_555
H20 C11 1_555 1_555
H21 C12 1_555 1_555
H22 C13 1_555 1_555
H23 C14 1_555 1_555
C15 O18 1_555 1_555
C18 O21 1_555 1_555
C19 O22 1_555 1_555
C20 N2 1_555 1_555
C23 N5 1_555 1_555
C24 N6 1_555 1_555
H24 C20 1_555 1_555
H27 C23 1_555 1_555
H28 C24 1_555 1_555
H29 C20 1_555 1_555
H32 C23 1_555 1_555
H33 C24 1_555 1_555
O2 C1 1_555 1_555
C1 C2 1_555 1_555
Cu3 O6 1_555 1_555
Cu4 O7 1_555 1_555
Cu5_2 O8 1_555 1_555
Cu6 O9 1_555 1_555
O13 C5 1_555 1_555
O14 C6 1_555 1_555
O15 C7 1_555 1_555
O16 C8 1_555 1_555
O17 C9 1_555 1_555
O26 C15 1_555 1_555
O29 C18 1_555 1_555
O30 C19 1_555 1_555
C5 C10 1_555 1_555
C6 C11 1_555 1_555
C7 C12 1_555 1_555
C8 C13 1_555 1_555
C9 C14 1_555 1_555
C15 C20 1_555 1_555
C18 C23 1_555 1_555
C19 C24 1_555 1_555
N9 H36 1_555 1_555
N9 H37 1_555 1_555
Cu1_4 N1 1_555 1_555
O23 C3 1_555 1_555
O4 Cu1_4 1_555 1_555
C3 O4 1_555 1_555
C4 N1 1_555 1_555
H4 C4 1_555 1_555
H5 C4 1_555 1_555
Cu3_2 N3 1_555 1_555
Cu4_2 N4 1_555 1_555
N3 H7 1_555 1_555
O12 Cu3_2 1_555 1_555
O27 Cu3_2 1_555 1_555
O28 Cu4_2 1_555 1_555
C16 O25 1_555 1_555
C17 O24 1_555 1_555
C21 N3 1_555 1_555
C22 N4 1_555 1_555
H25 C21 1_555 1_555
H26 C22 1_555 1_555
H30 C21 1_555 1_555
H31 C22 1_555 1_555
C3 C4 1_555 1_555
O27 C16 1_555 1_555
O28 C17 1_555 1_555
C16 C21 1_555 1_555
C17 C22 1_555 1_555
N8 Cu2_2 1_555 1_555
O11 Cu2_2 1_555 1_555
O32 Cu2_2 1_555 1_555
N8 H34 1_555 1_555
N8 H35 1_555 1_555
N8_2 Cu5 1_555 1_555
O11_2 Cu5 1_555 1_555
O32_2 Cu5 1_555 1_555
N8_2 H34_2 1_555 1_555
N8_2 H35_2 1_555 1_555
N9_2 Cu4_3 1_555 1_555
O33_2 Cu4_3 1_555 1_555
N9_2 H36_2 1_555 1_555
N9_2 H37_2 1_555 1_555
O12_2 Cu4_4 1_555 1_555
N8_3 Cu6 1_555 1_555
H12_3 N8_3 1_555 1_555
O11_3 Cu6 1_555 1_555
O32_3 Cu6 1_555 1_555
N8_3 H34_3 1_555 1_555
N8_3 H35_3 1_555 1_555
N2 H38_2 1_555 1_555
N2 H39_2 1_555 1_555
Dy1_2 O11 1_555 1_555
O2_2 Dy1_2 1_555 1_555
O3 C3_2 1_555 1_555
C1_2 O11 1_555 1_555
C2_2 N8 1_555 1_555
H2_2 C2_2 1_555 1_555
H3_2 C2_2 1_555 1_555
C3_2 O32 1_555 1_555
C4_2 N8 1_555 1_555
H4_2 C4_2 1_555 1_555
H5_2 C4_2 1_555 1_555
Dy3 O3 1_555 1_555
O11_3 Dy1_2 1_555 1_555
O11_2 Dy1_2 1_555 1_555
O14_2 Dy1_2 1_555 1_555
O15_2 Dy1_2 1_555 1_555
O18_2 Dy1_2 1_555 1_555
O19 Dy3 1_555 1_555
O20 Dy3 1_555 1_555
O21_2 Dy1_2 1_555 1_555
O22_2 Dy1_2 1_555 1_555
C6_2 O11_3 1_555 1_555
C7_2 O11_2 1_555 1_555
C11_2 N8_3 1_555 1_555
C12_2 N8_2 1_555 1_555
H15_2 C11_2 1_555 1_555
H16_2 C12_2 1_555 1_555
H20_2 C11_2 1_555 1_555
H21_2 C12_2 1_555 1_555
C15_2 O18_2 1_555 1_555
C16_2 O19 1_555 1_555
C17_2 O20 1_555 1_555
C18_2 O21_2 1_555 1_555
C19_2 O22_2 1_555 1_555
C20_2 N7 1_555 1_555
C21_2 N8_3 1_555 1_555
C22_2 N8_2 1_555 1_555
C23_2 N9_2 1_555 1_555
C24_2 N9 1_555 1_555
H24_2 C20_2 1_555 1_555
H25_2 C21_2 1_555 1_555
H26_2 C22_2 1_555 1_555
H27_2 C23_2 1_555 1_555
H28_2 C24_2 1_555 1_555
H29_2 C20_2 1_555 1_555
H30_2 C21_2 1_555 1_555
H31_2 C22_2 1_555 1_555
H32_2 C23_2 1_555 1_555
H33_2 C24_2 1_555 1_555
O2_2 C1_2 1_555 1_555
C1_2 C2_2 1_555 1_555
C3_2 C4_2 1_555 1_555
O14_2 C6_2 1_555 1_555
O15_2 C7_2 1_555 1_555
O31 C15_2 1_555 1_555
O32_3 C16_2 1_555 1_555
O32_2 C17_2 1_555 1_555
O33_2 C18_2 1_555 1_555
O33 C19_2 1_555 1_555
C6_2 C11_2 1_555 1_555
C7_2 C12_2 1_555 1_555
C15_2 C20_2 1_555 1_555
C16_2 C21_2 1_555 1_555
C17_2 C22_2 1_555 1_555
C18_2 C23_2 1_555 1_555
C19_2 C24_2 1_555 1_555
N6 H36_3 1_555 1_555
N6 H37_3 1_555 1_555
Dy3 O10 1_555 1_555
O12_2 Dy3 1_555 1_555
O12 Dy3 1_555 1_555
O13_2 Dy3 1_555 1_555
O16_2 Dy3 1_555 1_555
O17_2 Dy3 1_555 1_555
C5_2 O10 1_555 1_555
C8_2 O12_2 1_555 1_555
C9_2 O12 1_555 1_555
H19_2 C10_2 1_555 1_555
H22_2 C13_2 1_555 1_555
H23_2 C14_2 1_555 1_555
O13_2 C5_2 1_555 1_555
O16_2 C8_2 1_555 1_555
O17_2 C9_2 1_555 1_555
C5_2 C10_2 1_555 1_555
C8_2 C13_2 1_555 1_555
C9_2 C14_2 1_555 1_555
N1 H34_4 1_555 1_555
N1 H35_4 1_555 1_555
N3 H34_5 1_555 1_555
N3 H35_5 1_555 1_555
N5 H38_3 1_555 1_555
N5 H39_3 1_555 1_555
N4 H34_6 1_555 1_555
N4 H35_6 1_555 1_555

#END
