
###############################################################################
#
# This file contains modified crystal structure data generated from the
# MOF subset of the Cambridge Structural Database (CSD) v543 
# hosted by the Cambridge Crystallographic Data Centre (CCDC).
#
# This work is licensed under the Creative Commons
# Attribution-NonCommercial-ShareAlike 4.0 International License.
# To view a copy of this license, visit
# http://creativecommons.org/licenses/by-nc-sa/4.0/
# or send a letter to
# Creative Commons, PO Box 1866, Mountain View, CA 94042, USA.
#
# CIF created using the CSD Python API on 29 September 2022
# The structure has been converted into the P1 space group
# The structure has a 3D framework
# The original CSD entry KUDMAY is in the trigonal crystal system
# The framework has been calculated to contain at least 10.0% void space
# The void calculation uses a probe of radius 1.32A, grid spacing 0.4
# H atom positions have been added when not included in the experimental data
#
###############################################################################

data_KUDMAY
_chemical_formula_moiety         '(C48 H84 Cu5 N12 O48 Tb4)n'
_symmetry_cell_setting           triclinic
_symmetry_space_group_name_H-M   'P 1'
_symmetry_Int_Tables_number      1
_space_group_name_Hall           'P 1'
loop_
_symmetry_equiv_pos_site_id
_symmetry_equiv_pos_as_xyz
1 x,y,z
_cell_length_a                   13.352(1)
_cell_length_b                   13.352(1)
_cell_length_c                   14.414(2)
_cell_angle_alpha                90
_cell_angle_beta                 90
_cell_angle_gamma                120
_cell_volume                     2225.4
loop_
_atom_site_label
_atom_site_type_symbol
_atom_site_fract_x
_atom_site_fract_y
_atom_site_fract_z
Cu5 Cu 0.0000 0.5000 0.0000
H9 H 0.0239 0.6732 0.0788
O28 O 0.1887(4) 0.5494(6) 0.0586(3)
H1 H 0.0239 0.3507 0.5788
Cu2 Cu -0.0000 0.5000 0.5000
Cu5_2 Cu 0.0000 0.5000 1.0000
N9 N 0.0420(4) 0.3898(6) 0.9414(3)
O20 O 0.0745(4) 0.5981(6) 0.8923(3)
H34 H 0.0817733 0.365236 0.988783
H35 H 0.0959715 0.428735 0.88698
Cu1 Cu 0.5000 0.0000 0.0000
Tb2 Tb 0.6667 0.3333 0.33240(3)
Cu5_3 Cu 1.0000 0.5000 0.0000
Cu6 Cu 0.5000 0.5000 0.0000
N2 N 0.6522(4) 0.0420(4) 0.0586(3)
N5 N 0.9580(4) 0.6102(6) 0.0586(3)
N6 N 0.3898(6) 0.3478(4) 0.0586(3)
H10 H 0.3268 0.3507 0.0788
O5 O 0.5654(4) 0.1842(4) 0.2287(3)
O8 O 0.8158(4) 0.3812(6) 0.2287(3)
O9 O 0.6188(6) 0.4346(4) 0.2287(3)
O13 O 0.4764(4) 0.0745(4) 0.1077(3)
O16 O 0.9255(4) 0.4019(6) 0.1077(3)
O17 O 0.5981(6) 0.5236(4) 0.1077(3)
C5 C 0.5642(5) 0.1264(5) 0.1602(4)
C8 C 0.8736(5) 0.4378(7) 0.1602(4)
C9 C 0.5622(7) 0.4358(5) 0.1602(4)
C10 C 0.6687(5) 0.1170(6) 0.1404(4)
C13 C 0.8830(6) 0.5517(8) 0.1404(4)
C14 C 0.4483(8) 0.3313(5) 0.1404(4)
H14 H 0.6866 0.0854 0.1944
H17 H 0.9146 0.6012 0.1944
H18 H 0.3988 0.3134 0.1944
H19 H 0.7339 0.1936 0.1291
H22 H 0.8064 0.5403 0.1291
H23 H 0.4597 0.2661 0.1291
H24 H 0.8200 0.1388 0.0228
H27 H 0.8612 0.6812 0.0228
H28 H 0.3188 0.1800 0.0228
Tb1 Tb 0.6667 0.3333 0.83240(3)
Cu1_2 Cu 0.5000 0.0000 1.0000
N1 N 0.9580(4) 0.3478(4) 0.5586(3)
O1 O 0.8158(4) 0.4346(4) 0.7287(3)
O2 O 0.9255(4) 0.5236(4) 0.6077(3)
O3 O 0.8113(4) 0.3607(4) 0.4414(3)
O4 O 0.7553(4) 0.1942(4) 0.3724(3)
C1 C 0.8736(5) 0.4358(5) 0.6602(4)
C2 C 0.8830(6) 0.3313(5) 0.6404(4)
H2 H 0.9146 0.3134 0.6944
H3 H 0.8064 0.2661 0.6291
C3 C 0.8162(5) 0.2696(5) 0.4303(4)
C4 C 0.9018(5) 0.2534(5) 0.4905(4)
H4 H 0.8612 0.1800 0.5228
H5 H 0.9602 0.2522 0.4512
Cu2_2 Cu 1.0000 0.5000 0.5000
Cu3 Cu 0.5000 0.5000 0.5000
Cu4 Cu 0.5000 0.0000 0.5000
Cu5_4 Cu 1.0000 0.5000 1.0000
Cu6_2 Cu 0.5000 0.5000 1.0000
N3 N 0.6522(4) 0.6102(6) 0.5586(3)
N4 N 0.3898(6) 0.0420(4) 0.5586(3)
N8 N 0.3478(4) 0.3898(6) 0.4414(3)
H7 H 0.6493 0.6732 0.5788
H11 H 0.3507 0.0239 0.9212
H12 H 0.3507 0.3268 0.4212
H13 H 0.9761 0.3268 0.9212
O6 O 0.5654(4) 0.3812(6) 0.7287(3)
O7 O 0.6188(6) 0.1842(4) 0.7287(3)
O14 O 0.4764(4) 0.4019(6) 0.6077(3)
O15 O 0.5981(6) 0.0745(4) 0.6077(3)
O19 O 0.5236(4) 0.5981(6) 0.3923(3)
O21 O 0.6393(4) 0.1887(4) 0.9414(3)
O22 O 0.6393(4) 0.4506(6) 0.4414(3)
O23 O 0.5494(6) 0.1887(4) 0.4414(3)
O24 O 0.8113(4) 0.4506(6) 0.9414(3)
O25 O 0.5494(6) 0.3607(4) 0.9414(3)
O27 O 0.3607(4) 0.5494(6) 0.5586(3)
O29 O 0.8058(4) 0.2447(4) 0.8724(3)
O30 O 0.8058(4) 0.5611(6) 0.3724(3)
O31 O 0.4389(6) 0.2447(4) 0.3724(3)
O32 O 0.7553(4) 0.5611(6) 0.8724(3)
O33 O 0.4389(6) 0.1942(4) 0.8724(3)
C6 C 0.5642(5) 0.4378(7) 0.6602(4)
C7 C 0.5622(7) 0.1264(5) 0.6602(4)
C11 C 0.6687(5) 0.5517(8) 0.6404(4)
C12 C 0.4483(8) 0.1170(6) 0.6404(4)
H15 H 0.6866 0.6012 0.6944
H16 H 0.3988 0.0854 0.6944
H20 H 0.7339 0.5403 0.6291
H21 H 0.4597 0.1936 0.6291
C15 C 0.7304(5) 0.1838(5) 0.9303(4)
C16 C 0.7304(5) 0.5466(7) 0.4303(4)
C17 C 0.4534(7) 0.1838(5) 0.4303(4)
C18 C 0.8162(5) 0.5466(7) 0.9303(4)
C19 C 0.4534(7) 0.2696(5) 0.9303(4)
C20 C 0.7466(5) 0.0982(5) 0.9905(4)
C21 C 0.7466(5) 0.6484(7) 0.4905(4)
C22 C 0.3516(7) 0.0982(5) 0.4905(4)
C23 C 0.9018(5) 0.6484(7) 0.9905(4)
C24 C 0.3516(7) 0.2534(5) 0.9905(4)
H25 H 0.8200 0.6812 0.5228
H26 H 0.3188 0.1388 0.5228
H29 H 0.7478 0.0398 0.9512
H30 H 0.7478 0.7080 0.4512
H31 H 0.2920 0.0398 0.4512
H32 H 0.9602 0.7080 0.9512
H33 H 0.2920 0.2522 0.9512
H36 H 0.332763 0.428735 0.38698
H37 H 0.283463 0.365236 0.488783
Cu1_3 Cu 0.5000 1.0000 0.0000
H6 H 0.6493 0.9761 0.0788
O26 O 0.3607(4) 0.8113(4) 0.0586(3)
Cu1_4 Cu 0.5000 1.0000 1.0000
Cu4_2 Cu 0.5000 1.0000 0.5000
N7 N 0.3478(4) 0.9580(4) 0.9414(3)
H8 H 0.3268 0.9761 0.5788
O18 O 0.5236(4) 0.9255(4) 0.8923(3)
H38 H 0.283463 0.918227 0.988783
H39 H 0.332763 0.904028 0.88698
O28_2 O 0.4506(6) 0.6393(7) 0.0586(3)
N9_2 N 0.6102(6) 0.6522(7) 0.9414(3)
H12_2 H 0.6732 0.0239 0.4212
H13_2 H 0.6732 0.6493 0.9212
O20_2 O 0.4019(6) 0.4764(7) 0.8923(3)
H34_2 H 0.634764 0.716537 0.988783
H35_2 H 0.571265 0.667237 0.88698
N8_2 N 0.6102(6) 0.9580(7) 0.4414(3)
O19_2 O 0.4019(6) 0.9255(7) 0.3923(3)
O27_2 O 0.4506(6) 0.8113(7) 0.5586(3)
H36_2 H 0.571265 0.904028 0.38698
H37_2 H 0.634764 0.918227 0.488783
N8_3 N 0.0420(7) 0.6522(4) 0.4414(3)
O19_3 O 0.0745(7) 0.4764(4) 0.3923(3)
O27_3 O 0.1887(7) 0.6393(4) 0.5586(3)
H36_3 H 0.0959715 0.667237 0.38698
H37_3 H 0.0817733 0.716537 0.488783
H12_3 H 0.9761 0.6493 0.4212
H34_3 H 0.365236 0.0817733 0.511217
H35_3 H 0.428735 0.0959715 0.61302
O4_2 O 0.1942(4) 0.7553(4) 0.1276(3)
C3_2 C 0.2696(5) 0.8162(5) 0.0697(4)
C4_2 C 0.2534(5) 0.9018(5) 0.0095(4)
H5_2 H 0.2522 0.9602 0.0488
Tb3 Tb 0.3333 0.6667 0.16760(3)
O10 O 0.1842(4) 0.5654(4) 0.2713(3)
O11 O 0.3812(6) 0.8158(4) 0.2713(3)
O12 O 0.4346(4) 0.6188(6) 0.2713(3)
O30_2 O 0.5611(6) 0.8058(4) 0.1276(3)
O31_2 O 0.2447(4) 0.4389(6) 0.1276(3)
C16_2 C 0.5466(7) 0.7304(5) 0.0697(4)
C17_2 C 0.1838(5) 0.4534(7) 0.0697(4)
C21_2 C 0.6484(7) 0.7466(5) 0.0095(4)
C22_2 C 0.0982(5) 0.3516(7) 0.0095(4)
H30_2 H 0.7080 0.7478 0.0488
H31_2 H 0.0398 0.2920 0.0488
H36_4 H 0.428735 0.332763 0.11302
H37_4 H 0.365236 0.283463 0.0112167
Tb1_2 Tb 0.3333 0.6667 0.66760(3)
O1_2 O 0.4346(4) 0.8158(4) 0.7713(3)
C1_2 C 0.4358(5) 0.8736(5) 0.8398(4)
C2_2 C 0.3313(5) 0.8830(6) 0.8596(4)
H2_2 H 0.3134 0.9146 0.8056
H3_2 H 0.2661 0.8064 0.8709
H4_2 H 0.1800 0.8612 0.9772
O6_2 O 0.3812(6) 0.5654(4) 0.7713(3)
O7_2 O 0.1842(4) 0.6188(6) 0.7713(3)
O29_2 O 0.2447(4) 0.8058(4) 0.6276(3)
O32_2 O 0.5611(6) 0.7553(4) 0.6276(3)
O33_2 O 0.1942(4) 0.4389(6) 0.6276(3)
C5_2 C 0.1264(5) 0.5642(5) 0.3398(4)
C6_2 C 0.4378(7) 0.5642(5) 0.8398(4)
C7_2 C 0.1264(5) 0.5622(7) 0.8398(4)
C8_2 C 0.4378(7) 0.8736(5) 0.3398(4)
C9_2 C 0.4358(5) 0.5622(7) 0.3398(4)
C10_2 C 0.1170(6) 0.6687(5) 0.3596(4)
C11_2 C 0.5517(8) 0.6687(5) 0.8596(4)
C12_2 C 0.1170(6) 0.4483(8) 0.8596(4)
C13_2 C 0.5517(8) 0.8830(6) 0.3596(4)
C14_2 C 0.3313(5) 0.4483(8) 0.3596(4)
H14_2 H 0.0854 0.6866 0.3056
H15_2 H 0.6012 0.6866 0.8056
H16_2 H 0.0854 0.3988 0.8056
H17_2 H 0.6012 0.9146 0.3056
H18_2 H 0.3134 0.3988 0.3056
H19_2 H 0.1936 0.7339 0.3709
H20_2 H 0.5403 0.7339 0.8709
H21_2 H 0.1936 0.4597 0.8709
H22_2 H 0.5403 0.8064 0.3709
H23_2 H 0.2661 0.4597 0.3709
C15_2 C 0.1838(5) 0.7304(5) 0.5697(4)
C18_2 C 0.5466(7) 0.8162(5) 0.5697(4)
C19_2 C 0.2696(5) 0.4534(7) 0.5697(4)
C20_2 C 0.0982(5) 0.7466(5) 0.5095(4)
C23_2 C 0.6484(7) 0.9018(5) 0.5095(4)
C24_2 C 0.2534(5) 0.3516(7) 0.5095(4)
H24_2 H 0.1388 0.8200 0.4772
H25_2 H 0.6812 0.8200 0.9772
H26_2 H 0.1388 0.3188 0.9772
H27_2 H 0.6812 0.8612 0.4772
H28_2 H 0.1800 0.3188 0.4772
H29_2 H 0.0398 0.7478 0.5488
H32_2 H 0.7080 0.9602 0.5488
H33_2 H 0.2522 0.2920 0.5488
H38_2 H 0.918227 0.283463 0.511217
H39_2 H 0.904028 0.332763 0.61302
H36_5 H 0.667237 0.0959715 0.11302
H37_5 H 0.716537 0.0817733 0.0112167
H38_3 H 0.716537 0.634764 0.511217
H39_3 H 0.667237 0.571265 0.61302
H36_6 H 0.904028 0.571265 0.11302
H37_6 H 0.918227 0.634764 0.0112167
loop_
_geom_bond_atom_site_label_1
_geom_bond_atom_site_label_2
_geom_bond_site_symmetry_1
_geom_bond_site_symmetry_2
O28 Cu5 1_555 1_555
N9 Cu5_2 1_555 1_555
O20 Cu5_2 1_555 1_555
N9 H34 1_555 1_555
N9 H35 1_555 1_555
Cu1 N2 1_555 1_555
Tb2 O5 1_555 1_555
Cu5_3 N5 1_555 1_555
Cu6 N6 1_555 1_555
N6 H10 1_555 1_555
O5 C5 1_555 1_555
O8 Tb2 1_555 1_555
O9 Tb2 1_555 1_555
O13 Cu1 1_555 1_555
O16 Cu5_3 1_555 1_555
O17 Cu6 1_555 1_555
C5 O13 1_555 1_555
C8 O8 1_555 1_555
C9 O9 1_555 1_555
C10 N2 1_555 1_555
C13 N5 1_555 1_555
C14 N6 1_555 1_555
H14 C10 1_555 1_555
H17 C13 1_555 1_555
H18 C14 1_555 1_555
H19 C10 1_555 1_555
H22 C13 1_555 1_555
H23 C14 1_555 1_555
O16 C8 1_555 1_555
O17 C9 1_555 1_555
C5 C10 1_555 1_555
C8 C13 1_555 1_555
C9 C14 1_555 1_555
Tb1 O1 1_555 1_555
O1 C1 1_555 1_555
O2 C1 1_555 1_555
O3 C3 1_555 1_555
O4 C3 1_555 1_555
C1 C2 1_555 1_555
C2 N1 1_555 1_555
H2 C2 1_555 1_555
H3 C2 1_555 1_555
C3 C4 1_555 1_555
C4 N1 1_555 1_555
H4 C4 1_555 1_555
H5 C4 1_555 1_555
Tb2 O3 1_555 1_555
Cu2_2 N1 1_555 1_555
Cu3 N3 1_555 1_555
Cu4 N4 1_555 1_555
N3 H7 1_555 1_555
N8 Cu3 1_555 1_555
H12 N8 1_555 1_555
O6 Tb1 1_555 1_555
O7 Tb1 1_555 1_555
O14 Cu3 1_555 1_555
O15 Cu4 1_555 1_555
O19 Cu3 1_555 1_555
O21 Tb1 1_555 1_555
O22 Tb2 1_555 1_555
O23 Tb2 1_555 1_555
O24 Tb1 1_555 1_555
O25 Tb1 1_555 1_555
O27 Cu3 1_555 1_555
O29 Tb1 1_555 1_555
O30 Tb2 1_555 1_555
O31 Tb2 1_555 1_555
O32 Tb1 1_555 1_555
O33 Tb1 1_555 1_555
C6 O6 1_555 1_555
C7 O7 1_555 1_555
C11 N3 1_555 1_555
C12 N4 1_555 1_555
H15 C11 1_555 1_555
H16 C12 1_555 1_555
H20 C11 1_555 1_555
H21 C12 1_555 1_555
C15 O21 1_555 1_555
C16 O22 1_555 1_555
C17 O23 1_555 1_555
C18 O24 1_555 1_555
C19 O25 1_555 1_555
C21 N3 1_555 1_555
C22 N4 1_555 1_555
H25 C21 1_555 1_555
H26 C22 1_555 1_555
H29 C20 1_555 1_555
H30 C21 1_555 1_555
H31 C22 1_555 1_555
H32 C23 1_555 1_555
H33 C24 1_555 1_555
Cu1_2 O21 1_555 1_555
O2 Cu2_2 1_555 1_555
O3 Cu2_2 1_555 1_555
O4 Tb2 1_555 1_555
Cu3 O22 1_555 1_555
Cu4 O23 1_555 1_555
Cu5_4 O24 1_555 1_555
Cu6_2 O25 1_555 1_555
O14 C6 1_555 1_555
O15 C7 1_555 1_555
O29 C15 1_555 1_555
O30 C16 1_555 1_555
O31 C17 1_555 1_555
O32 C18 1_555 1_555
O33 C19 1_555 1_555
C6 C11 1_555 1_555
C7 C12 1_555 1_555
C15 C20 1_555 1_555
C16 C21 1_555 1_555
C17 C22 1_555 1_555
C18 C23 1_555 1_555
C19 C24 1_555 1_555
N8 H36 1_555 1_555
N8 H37 1_555 1_555
O26 Cu1_3 1_555 1_555
N7 Cu1_4 1_555 1_555
O18 Cu1_4 1_555 1_555
N7 H38 1_555 1_555
N7 H39 1_555 1_555
O28_2 Cu6 1_555 1_555
N9_2 Cu6_2 1_555 1_555
H13_2 N9_2 1_555 1_555
O20_2 Cu6_2 1_555 1_555
N9_2 H34_2 1_555 1_555
N9_2 H35_2 1_555 1_555
N8_2 Cu4_2 1_555 1_555
O19_2 Cu4_2 1_555 1_555
O27_2 Cu4_2 1_555 1_555
N8_2 H36_2 1_555 1_555
N8_2 H37_2 1_555 1_555
N8_3 Cu2 1_555 1_555
O19_3 Cu2 1_555 1_555
O27_3 Cu2 1_555 1_555
N8_3 H36_3 1_555 1_555
N8_3 H37_3 1_555 1_555
N4 H34_3 1_555 1_555
N4 H35_3 1_555 1_555
O26 C3_2 1_555 1_555
O4_2 C3_2 1_555 1_555
C3_2 C4_2 1_555 1_555
H5_2 C4_2 1_555 1_555
Tb3 O26 1_555 1_555
O10 Tb3 1_555 1_555
O11 Tb3 1_555 1_555
O12 Tb3 1_555 1_555
O28_2 Tb3 1_555 1_555
O28 Tb3 1_555 1_555
O30_2 Tb3 1_555 1_555
O31_2 Tb3 1_555 1_555
C16_2 O28_2 1_555 1_555
C17_2 O28 1_555 1_555
H30_2 C21_2 1_555 1_555
H31_2 C22_2 1_555 1_555
O4_2 Tb3 1_555 1_555
O30_2 C16_2 1_555 1_555
O31_2 C17_2 1_555 1_555
C16_2 C21_2 1_555 1_555
C17_2 C22_2 1_555 1_555
N6 H36_4 1_555 1_555
N6 H37_4 1_555 1_555
Tb1_2 O1_2 1_555 1_555
O1_2 C1_2 1_555 1_555
O18 C1_2 1_555 1_555
C1_2 C2_2 1_555 1_555
C2_2 N7 1_555 1_555
H2_2 C2_2 1_555 1_555
H3_2 C2_2 1_555 1_555
O10 C5_2 1_555 1_555
O6_2 Tb1_2 1_555 1_555
O7_2 Tb1_2 1_555 1_555
O27_3 Tb1_2 1_555 1_555
O27_2 Tb1_2 1_555 1_555
O27 Tb1_2 1_555 1_555
O29_2 Tb1_2 1_555 1_555
O32_2 Tb1_2 1_555 1_555
O33_2 Tb1_2 1_555 1_555
C5_2 O19_3 1_555 1_555
C6_2 O6_2 1_555 1_555
C7_2 O7_2 1_555 1_555
C8_2 O11 1_555 1_555
C9_2 O12 1_555 1_555
C10_2 N8_3 1_555 1_555
C11_2 N9_2 1_555 1_555
C12_2 N9 1_555 1_555
C13_2 N8_2 1_555 1_555
C14_2 N8 1_555 1_555
H14_2 C10_2 1_555 1_555
H15_2 C11_2 1_555 1_555
H16_2 C12_2 1_555 1_555
H17_2 C13_2 1_555 1_555
H18_2 C14_2 1_555 1_555
H19_2 C10_2 1_555 1_555
H20_2 C11_2 1_555 1_555
H21_2 C12_2 1_555 1_555
H22_2 C13_2 1_555 1_555
H23_2 C14_2 1_555 1_555
C15_2 O27_3 1_555 1_555
C18_2 O27_2 1_555 1_555
C19_2 O27 1_555 1_555
C20_2 N8_3 1_555 1_555
C23_2 N8_2 1_555 1_555
C24_2 N8 1_555 1_555
H24_2 C20_2 1_555 1_555
H27_2 C23_2 1_555 1_555
H28_2 C24_2 1_555 1_555
H29_2 C20_2 1_555 1_555
H32_2 C23_2 1_555 1_555
H33_2 C24_2 1_555 1_555
O20_2 C6_2 1_555 1_555
O20 C7_2 1_555 1_555
O19_2 C8_2 1_555 1_555
O19 C9_2 1_555 1_555
O29_2 C15_2 1_555 1_555
O32_2 C18_2 1_555 1_555
O33_2 C19_2 1_555 1_555
C5_2 C10_2 1_555 1_555
C6_2 C11_2 1_555 1_555
C7_2 C12_2 1_555 1_555
C8_2 C13_2 1_555 1_555
C9_2 C14_2 1_555 1_555
C15_2 C20_2 1_555 1_555
C18_2 C23_2 1_555 1_555
C19_2 C24_2 1_555 1_555
N1 H38_2 1_555 1_555
N1 H39_2 1_555 1_555
N2 H36_5 1_555 1_555
N2 H37_5 1_555 1_555
N3 H38_3 1_555 1_555
N3 H39_3 1_555 1_555
N5 H36_6 1_555 1_555
N5 H37_6 1_555 1_555

#END
