
###############################################################################
#
# This file contains modified crystal structure data generated from the
# MOF subset of the Cambridge Structural Database (CSD) v543 
# hosted by the Cambridge Crystallographic Data Centre (CCDC).
#
# This work is licensed under the Creative Commons
# Attribution-NonCommercial-ShareAlike 4.0 International License.
# To view a copy of this license, visit
# http://creativecommons.org/licenses/by-nc-sa/4.0/
# or send a letter to
# Creative Commons, PO Box 1866, Mountain View, CA 94042, USA.
#
# CIF created using the CSD Python API on 29 September 2022
# The structure has been converted into the P1 space group
# The structure has a 3D framework
# The original CSD entry KUDWAJ is in the monoclinic crystal system
# The framework has been calculated to contain at least 10.0% void space
# The void calculation uses a probe of radius 1.32A, grid spacing 0.4
#
###############################################################################

data_KUDWAJ
_chemical_formula_moiety         '(C176 H162 Cu16 N40 O74)n'
_symmetry_cell_setting           triclinic
_symmetry_space_group_name_H-M   'P 1'
_symmetry_Int_Tables_number      1
_space_group_name_Hall           'P 1'
loop_
_symmetry_equiv_pos_site_id
_symmetry_equiv_pos_as_xyz
1 x,y,z
_cell_length_a                   22.877(3)
_cell_length_b                   23.111(3)
_cell_length_c                   18.364(2)
_cell_angle_alpha                90
_cell_angle_beta                 105.399(2)
_cell_angle_gamma                90
_cell_volume                     9360.68
loop_
_atom_site_label
_atom_site_type_symbol
_atom_site_fract_x
_atom_site_fract_y
_atom_site_fract_z
Cu11 Cu 0.149068(18) 0.278315(19) 0.05791(2)
O6 O 0.07562(11) 0.30110(14) 0.98047(16)
O7 O 0.11434(12) 0.33985(14) 0.89259(16)
C8 C 0.00939(17) 0.3533(2) 0.8821(2)
H8 H 0.0132 0.3933 0.8680
C9 C 0.07176(17) 0.32993(18) 0.9208(2)
Cu1 Cu 0.649068(18) 0.221685(19) 0.55791(2)
Cu2 Cu 0.720613(17) 0.304009(18) 0.46079(2)
N1 N 0.80909(13) 0.37014(13) 0.81423(17)
N2 N 0.90687(13) 0.37745(14) 0.89286(16)
N3 N 0.84510(13) 0.45933(13) 0.86592(17)
N4 N 0.59607(14) 0.22744(15) 0.62796(19)
N5 N 0.64209(13) 0.31474(13) 0.38500(17)
O1 O 0.75089(13) 0.44995(14) 0.78887(18)
O2 O 0.94174(12) 0.46511(13) 0.94194(17)
O3 O 0.87213(14) 0.29255(13) 0.83689(18)
O4 O 0.71807(11) 0.25569(12) 0.63610(13)
O5 O 0.68619(12) 0.33369(12) 0.56805(15)
O8 O 0.81934(16) 0.63457(12) 0.90306(19)
O9 O 0.74469(11) 0.61597(11) 0.95446(16)
O10 O 0.80094(9) 0.27594(9) 0.51526(12)
H1 H 0.8187 0.2987 0.5608
C1 C 0.79890(16) 0.42750(18) 0.8212(2)
C2 C 0.90116(16) 0.43571(17) 0.9031(2)
C3 C 0.86319(16) 0.34348(17) 0.8471(2)
C4 C 0.76147(16) 0.33643(18) 0.7610(2)
H2 H 0.7219 0.3489 0.7646
H3 H 0.7660 0.2957 0.7740
C5 C 0.76614(18) 0.34507(19) 0.6808(2)
H4 H 0.7602 0.3857 0.6676
H5 H 0.8065 0.3343 0.6782
C6 C 0.72017(16) 0.30976(17) 0.6249(2)
C7 C 0.96574(15) 0.35017(18) 0.9310(2)
H6 H 0.9591 0.3100 0.9419
H7 H 0.9832 0.3697 0.9785
H9 H 0.9928 0.3315 0.8361
C10 C 0.83681(18) 0.52215(16) 0.8717(2)
H10 H 0.8157 0.5373 0.8225
H11 H 0.8762 0.5407 0.8873
C11 C 0.80093(19) 0.53662(17) 0.9280(2)
H12 H 0.8237 0.5247 0.9781
H13 H 0.7630 0.5154 0.9150
C12 C 0.78793(17) 0.60102(17) 0.9280(2)
C13 C 0.5869(3) 0.2748(3) 0.6633(4)
H14 H 0.6069 0.3085 0.6563
C14 C 0.5489(3) 0.2765(3) 0.7103(4)
H15 H 0.5430 0.3114 0.7326
C15 C 0.52010(19) 0.2289(2) 0.7247(2)
C16 C 0.5278(3) 0.1797(2) 0.6870(3)
H16 H 0.5074 0.1460 0.6930
C17 C 0.5660(3) 0.1798(2) 0.6400(3)
H17 H 0.5711 0.1457 0.6156
C18 C 0.59196(18) 0.3295(2) 0.4039(2)
H18 H 0.5949 0.3394 0.4539
C19 C 0.53567(17) 0.3309(2) 0.3526(2)
H19 H 0.5016 0.3404 0.3686
C20 C 0.52984(15) 0.31834(16) 0.2775(2)
C21 C 0.58189(19) 0.3036(2) 0.2591(2)
H20 H 0.5804 0.2948 0.2092
C22 C 0.63613(18) 0.3016(2) 0.3128(2)
H21 H 0.6705 0.2905 0.2983
N6 N 0.40393(14) 0.22744(15) 0.87204(19)
C23 C 0.4131(3) 0.2748(3) 0.8367(4)
H22 H 0.3931 0.3085 0.8437
C24 C 0.4511(3) 0.2765(3) 0.7897(4)
H23 H 0.4570 0.3114 0.7674
C25 C 0.47990(19) 0.2289(2) 0.7753(2)
C26 C 0.4722(3) 0.1797(2) 0.8130(3)
H24 H 0.4926 0.1460 0.8070
C27 C 0.4340(3) 0.1798(2) 0.8600(3)
H25 H 0.4289 0.1457 0.8844
N7 N 0.35791(13) 0.31474(13) 0.11500(17)
C28 C 0.40804(18) 0.3295(2) 0.0961(2)
H26 H 0.4051 0.3394 0.0461
C29 C 0.46433(17) 0.3309(2) 0.1474(2)
H27 H 0.4984 0.3404 0.1314
C30 C 0.47016(15) 0.31834(16) 0.2225(2)
C31 C 0.41811(19) 0.3036(2) 0.2409(2)
H28 H 0.4196 0.2948 0.2908
C32 C 0.36387(18) 0.3016(2) 0.1872(2)
H29 H 0.3295 0.2905 0.2017
Cu4 Cu 0.279387(17) 0.304009(18) 0.03921(2)
Cu5 Cu 0.350932(18) 0.221685(19) 0.94209(2)
Cu7 Cu 0.850932(18) 0.721685(19) 0.94209(2)
Cu9 Cu 0.850932(18) 0.278315(19) 0.44209(2)
Cu13 Cu 0.720613(17) 0.695991(18) 0.96079(2)
Cu14 Cu 0.779387(17) 0.195991(18) 0.53921(2)
O21 O 0.42438(11) 0.19890(14) 0.01953(16)
O22 O 0.57562(11) 0.19890(14) 0.48047(16)
O24 O 0.68066(16) 0.13457(12) 0.59694(19)
O25 O 0.25531(11) 0.38403(11) 0.04554(16)
O26 O 0.74469(11) 0.38403(11) 0.45446(16)
O27 O 0.69906(9) 0.22406(9) 0.48474(12)
O28 O 0.30094(9) 0.22406(9) 0.01526(12)
N8 N 0.19091(13) 0.37014(13) 0.68577(17)
N9 N 0.09313(13) 0.37745(14) 0.60714(16)
N10 N 0.15490(13) 0.45933(13) 0.63408(17)
O11 O 0.24911(13) 0.44995(14) 0.71113(18)
O12 O 0.05826(12) 0.46511(13) 0.55806(17)
O13 O 0.12787(14) 0.29255(13) 0.66311(18)
O14 O 0.28193(11) 0.25569(12) 0.86390(13)
O15 O 0.31381(12) 0.33369(12) 0.93195(15)
O18 O 0.18066(16) 0.63457(12) 0.59694(19)
O19 O 0.25531(11) 0.61597(11) 0.54554(16)
O20 O 0.19906(9) 0.27594(9) 0.98474(12)
H30 H 0.1813 0.2987 0.9392
C33 C 0.20110(16) 0.42750(18) 0.6788(2)
C34 C 0.09884(16) 0.43571(17) 0.5969(2)
C35 C 0.13681(16) 0.34348(17) 0.6529(2)
C36 C 0.23853(16) 0.33643(18) 0.7390(2)
H31 H 0.2781 0.3489 0.7354
H32 H 0.2340 0.2957 0.7260
C37 C 0.23386(18) 0.34507(19) 0.8192(2)
H33 H 0.2398 0.3857 0.8324
H34 H 0.1935 0.3343 0.8218
C38 C 0.27983(16) 0.30976(17) 0.8751(2)
C39 C 0.03426(15) 0.35017(18) 0.5690(2)
H35 H 0.0409 0.3100 0.5581
H36 H 0.0168 0.3697 0.5215
H38 H 0.0072 0.3315 0.6639
C42 C 0.16319(18) 0.52215(16) 0.6283(2)
H39 H 0.1843 0.5373 0.6775
H40 H 0.1238 0.5407 0.6127
C43 C 0.19907(19) 0.53662(17) 0.5720(2)
H41 H 0.1763 0.5247 0.5219
H42 H 0.2370 0.5154 0.5850
C44 C 0.21207(17) 0.60102(17) 0.5720(2)
Cu6 Cu 0.149068(18) 0.721685(19) 0.55791(2)
Cu12 Cu 0.279387(17) 0.695991(18) 0.53921(2)
Cu15 Cu 0.220613(17) 0.195991(18) 0.96079(2)
O23 O 0.31934(16) 0.13457(12) 0.90306(19)
O16 O 0.92438(11) 0.30110(14) 0.51953(16)
O17 O 0.88566(12) 0.33985(14) 0.60741(16)
C40 C 0.99061(17) 0.3533(2) 0.6179(2)
H37 H 0.9868 0.3933 0.6320
C41 C 0.92824(17) 0.32993(18) 0.5792(2)
O9_2 O 0.24469(11) 0.11597(11) 0.95446(16)
C10_2 C 0.33681(18) 0.02215(16) 0.8717(2)
H10_2 H 0.3157 0.0373 0.8225
H11_2 H 0.3762 0.0407 0.8873
C11_2 C 0.30093(19) 0.03662(17) 0.9280(2)
H12_2 H 0.3237 0.0247 0.9781
H13_2 H 0.2630 0.0154 0.9150
C12_2 C 0.28793(17) 0.10102(17) 0.9280(2)
Cu11_2 Cu 0.649068(18) 0.778315(19) 0.05791(2)
Cu2_2 Cu 0.220613(17) 0.804009(18) 0.46079(2)
N1_2 N 0.30909(13) 0.87014(13) 0.81423(17)
N2_2 N 0.40687(13) 0.87745(14) 0.89286(16)
N3_2 N 0.34510(13) 0.95933(13) 0.86592(17)
N4_2 N 0.09607(14) 0.72744(15) 0.62796(19)
N5_2 N 0.14209(13) 0.81474(13) 0.38500(17)
O1_2 O 0.25089(13) 0.94995(14) 0.78887(18)
O2_2 O 0.44174(12) 0.96511(13) 0.94194(17)
O3_2 O 0.37213(14) 0.79255(13) 0.83689(18)
O4_2 O 0.21807(11) 0.75569(12) 0.63610(13)
O5_2 O 0.18619(12) 0.83369(12) 0.56805(15)
O6_2 O 0.57562(11) 0.80110(14) 0.98047(16)
O7_2 O 0.61434(12) 0.83985(14) 0.89259(16)
O10_2 O 0.30094(9) 0.77594(9) 0.51526(12)
H1_2 H 0.3187 0.7987 0.5608
C1_2 C 0.29890(16) 0.92750(18) 0.8212(2)
C2_2 C 0.40116(16) 0.93571(17) 0.9031(2)
C3_2 C 0.36319(16) 0.84348(17) 0.8471(2)
C4_2 C 0.26147(16) 0.83643(18) 0.7610(2)
H2_2 H 0.2219 0.8489 0.7646
H3_2 H 0.2660 0.7957 0.7740
C5_2 C 0.26614(18) 0.84507(19) 0.6808(2)
H4_2 H 0.2602 0.8857 0.6676
H5_2 H 0.3065 0.8343 0.6782
C6_2 C 0.22017(16) 0.80976(17) 0.6249(2)
C7_2 C 0.46574(15) 0.85017(18) 0.9310(2)
H6_2 H 0.4591 0.8100 0.9419
H7_2 H 0.4832 0.8697 0.9785
C8_2 C 0.50939(17) 0.8533(2) 0.8821(2)
H8_2 H 0.5132 0.8933 0.8680
H9_2 H 0.4928 0.8315 0.8361
C9_2 C 0.57176(17) 0.82993(18) 0.9208(2)
C13_2 C 0.0869(3) 0.7748(3) 0.6633(4)
H14_2 H 0.1069 0.8085 0.6563
C14_2 C 0.0489(3) 0.7765(3) 0.7103(4)
H15_2 H 0.0430 0.8114 0.7326
C15_2 C 0.02010(19) 0.7289(2) 0.7247(2)
C16_2 C 0.0278(3) 0.6797(2) 0.6870(3)
H16_2 H 0.0074 0.6460 0.6930
C17_2 C 0.0660(3) 0.6798(2) 0.6400(3)
H17_2 H 0.0711 0.6457 0.6156
C18_2 C 0.09196(18) 0.8295(2) 0.4039(2)
H18_2 H 0.0949 0.8394 0.4539
C19_2 C 0.03567(17) 0.8309(2) 0.3526(2)
H19_2 H 0.0016 0.8404 0.3686
C20_2 C 0.02984(15) 0.81834(16) 0.2775(2)
C21_2 C 0.08189(19) 0.8036(2) 0.2591(2)
H20_2 H 0.0804 0.7948 0.2092
C22_2 C 0.13613(18) 0.8016(2) 0.3128(2)
H21_2 H 0.1705 0.7905 0.2983
Cu9_2 Cu 0.350932(18) 0.778315(19) 0.44209(2)
O22_2 O 0.07562(11) 0.69890(14) 0.48047(16)
O26_2 O 0.24469(11) 0.88403(11) 0.45446(16)
O27_2 O 0.19906(9) 0.72406(9) 0.48474(12)
O19_2 O 0.75531(11) 0.11597(11) 0.54554(16)
C42_2 C 0.66319(18) 0.02215(16) 0.6283(2)
H39_2 H 0.6843 0.0373 0.6775
H40_2 H 0.6238 0.0407 0.6127
C43_2 C 0.69907(19) 0.03662(17) 0.5720(2)
H41_2 H 0.6763 0.0247 0.5219
H42_2 H 0.7370 0.0154 0.5850
C44_2 C 0.71207(17) 0.10102(17) 0.5720(2)
N6_2 N 0.90393(14) 0.72744(15) 0.87204(19)
C23_2 C 0.9131(3) 0.7748(3) 0.8367(4)
H22_2 H 0.8931 0.8085 0.8437
C24_2 C 0.9511(3) 0.7765(3) 0.7897(4)
H23_2 H 0.9570 0.8114 0.7674
C25_2 C 0.97990(19) 0.7289(2) 0.7753(2)
C26_2 C 0.9722(3) 0.6797(2) 0.8130(3)
H24_2 H 0.9926 0.6460 0.8070
C27_2 C 0.9340(3) 0.6798(2) 0.8600(3)
H25_2 H 0.9289 0.6457 0.8844
N7_2 N 0.85791(13) 0.81474(13) 0.11500(17)
C28_2 C 0.90804(18) 0.8295(2) 0.0961(2)
H26_2 H 0.9051 0.8394 0.0461
C29_2 C 0.96433(17) 0.8309(2) 0.1474(2)
H27_2 H 0.9984 0.8404 0.1314
C30_2 C 0.97016(15) 0.81834(16) 0.2225(2)
C31_2 C 0.91811(19) 0.8036(2) 0.2409(2)
H28_2 H 0.9196 0.7948 0.2908
C32_2 C 0.86387(18) 0.8016(2) 0.1872(2)
H29_2 H 0.8295 0.7905 0.2017
Cu4_2 Cu 0.779387(17) 0.804009(18) 0.03921(2)
O21_2 O 0.92438(11) 0.69890(14) 0.01953(16)
O25_2 O 0.75531(11) 0.88403(11) 0.04554(16)
O28_2 O 0.80094(9) 0.72406(9) 0.01526(12)
N8_2 N 0.69091(13) 0.87014(13) 0.68577(17)
N9_2 N 0.59313(13) 0.87745(14) 0.60714(16)
N10_2 N 0.65490(13) 0.95933(13) 0.63408(17)
O11_2 O 0.74911(13) 0.94995(14) 0.71113(18)
O12_2 O 0.55826(12) 0.96511(13) 0.55806(17)
O13_2 O 0.62787(14) 0.79255(13) 0.66311(18)
O14_2 O 0.78193(11) 0.75569(12) 0.86390(13)
O15_2 O 0.81381(12) 0.83369(12) 0.93195(15)
O16_2 O 0.42438(11) 0.80110(14) 0.51953(16)
O17_2 O 0.38566(12) 0.83985(14) 0.60741(16)
O20_2 O 0.69906(9) 0.77594(9) 0.98474(12)
H30_2 H 0.6813 0.7987 0.9392
C33_2 C 0.70110(16) 0.92750(18) 0.6788(2)
C34_2 C 0.59884(16) 0.93571(17) 0.5969(2)
C35_2 C 0.63681(16) 0.84348(17) 0.6529(2)
C36_2 C 0.73853(16) 0.83643(18) 0.7390(2)
H31_2 H 0.7781 0.8489 0.7354
H32_2 H 0.7340 0.7957 0.7260
C37_2 C 0.73386(18) 0.84507(19) 0.8192(2)
H33_2 H 0.7398 0.8857 0.8324
H34_2 H 0.6935 0.8343 0.8218
C38_2 C 0.77983(16) 0.80976(17) 0.8751(2)
C39_2 C 0.53426(15) 0.85017(18) 0.5690(2)
H35_2 H 0.5409 0.8100 0.5581
H36_2 H 0.5168 0.8697 0.5215
C40_2 C 0.49061(17) 0.8533(2) 0.6179(2)
H37_2 H 0.4868 0.8933 0.6320
H38_2 H 0.5072 0.8315 0.6639
C41_2 C 0.42824(17) 0.82993(18) 0.5792(2)
O17_3 O 0.11434(12) 0.66015(14) 0.39259(16)
C40_3 C 0.00939(17) 0.6467(2) 0.3821(2)
H37_3 H 0.0132 0.6067 0.3680
C41_3 C 0.07176(17) 0.67007(18) 0.4208(2)
N8_3 N 0.80909(13) 0.62986(13) 0.31423(17)
N9_3 N 0.90687(13) 0.62255(14) 0.39286(16)
N10_3 N 0.84510(13) 0.54067(13) 0.36592(17)
O11_3 O 0.75089(13) 0.55005(14) 0.28887(18)
O12_3 O 0.94174(12) 0.53489(13) 0.44194(17)
O13_3 O 0.87213(14) 0.70745(13) 0.33689(18)
O14_3 O 0.71807(11) 0.74431(12) 0.13610(13)
O15_3 O 0.68619(12) 0.66631(12) 0.06805(15)
O18_2 O 0.81934(16) 0.36543(12) 0.40306(19)
H30_3 H 0.8187 0.7013 0.0608
C33_3 C 0.79890(16) 0.57250(18) 0.3212(2)
C34_3 C 0.90116(16) 0.56429(17) 0.4031(2)
C35_3 C 0.86319(16) 0.65652(17) 0.3471(2)
C36_3 C 0.76147(16) 0.66357(18) 0.2610(2)
H31_3 H 0.7219 0.6511 0.2646
H32_3 H 0.7660 0.7043 0.2740
C37_3 C 0.76614(18) 0.65493(19) 0.1808(2)
H33_3 H 0.7602 0.6143 0.1676
H34_3 H 0.8065 0.6657 0.1782
C38_3 C 0.72017(16) 0.69024(17) 0.1249(2)
C39_3 C 0.96574(15) 0.64983(18) 0.4310(2)
H35_3 H 0.9591 0.6900 0.4419
H36_3 H 0.9832 0.6303 0.4785
H38_3 H 0.9928 0.6685 0.3361
C42_3 C 0.83681(18) 0.47785(16) 0.3717(2)
H39_3 H 0.8157 0.4627 0.3225
H40_3 H 0.8762 0.4593 0.3873
C43_3 C 0.80093(19) 0.46338(17) 0.4280(2)
H41_3 H 0.8237 0.4753 0.4781
H42_3 H 0.7630 0.4846 0.4150
C44_3 C 0.78793(17) 0.39898(17) 0.4280(2)
N11 N 0.59607(14) 0.77256(15) 0.12796(19)
O23_2 O 0.68066(16) 0.86543(12) 0.09694(19)
N1_3 N 0.19091(13) 0.62986(13) 0.18577(17)
N2_3 N 0.09313(13) 0.62255(14) 0.10714(16)
N3_3 N 0.15490(13) 0.54067(13) 0.13408(17)
N4_3 N 0.40393(14) 0.77256(15) 0.37204(19)
N5_3 N 0.35791(13) 0.68526(13) 0.61500(17)
O1_3 O 0.24911(13) 0.55005(14) 0.21113(18)
O2_3 O 0.05826(12) 0.53489(13) 0.05806(17)
O3_3 O 0.12787(14) 0.70745(13) 0.16311(18)
O4_3 O 0.28193(11) 0.74431(12) 0.36390(13)
O5_3 O 0.31381(12) 0.66631(12) 0.43195(15)
O8_2 O 0.18066(16) 0.36543(12) 0.09694(19)
H1_3 H 0.1813 0.7013 0.4392
C1_3 C 0.20110(16) 0.57250(18) 0.1788(2)
C2_3 C 0.09884(16) 0.56429(17) 0.0969(2)
C3_3 C 0.13681(16) 0.65652(17) 0.1529(2)
C4_3 C 0.23853(16) 0.66357(18) 0.2390(2)
H2_3 H 0.2781 0.6511 0.2354
H3_3 H 0.2340 0.7043 0.2260
C5_3 C 0.23386(18) 0.65493(19) 0.3192(2)
H4_3 H 0.2398 0.6143 0.3324
H5_3 H 0.1935 0.6657 0.3218
C6_3 C 0.27983(16) 0.69024(17) 0.3751(2)
C7_3 C 0.03426(15) 0.64983(18) 0.0690(2)
H6_3 H 0.0409 0.6900 0.0581
H7_3 H 0.0168 0.6303 0.0215
H9_3 H 0.0072 0.6685 0.1639
C10_3 C 0.16319(18) 0.47785(16) 0.1283(2)
H10_3 H 0.1843 0.4627 0.1775
H11_3 H 0.1238 0.4593 0.1127
C11_3 C 0.19907(19) 0.46338(17) 0.0720(2)
H12_3 H 0.1763 0.4753 0.0219
H13_3 H 0.2370 0.4846 0.0850
C12_3 C 0.21207(17) 0.39898(17) 0.0720(2)
C13_3 C 0.4131(3) 0.7252(3) 0.3367(4)
H14_3 H 0.3931 0.6915 0.3437
C14_3 C 0.4511(3) 0.7235(3) 0.2897(4)
H15_3 H 0.4570 0.6886 0.2674
C15_3 C 0.47990(19) 0.7711(2) 0.2753(2)
C16_3 C 0.4722(3) 0.8203(2) 0.3130(3)
H16_3 H 0.4926 0.8540 0.3070
C17_3 C 0.4340(3) 0.8202(2) 0.3600(3)
H17_3 H 0.4289 0.8543 0.3844
C18_3 C 0.40804(18) 0.6705(2) 0.5961(2)
H18_3 H 0.4051 0.6606 0.5461
C19_3 C 0.46433(17) 0.6691(2) 0.6474(2)
H19_3 H 0.4984 0.6596 0.6314
C20_3 C 0.47016(15) 0.68166(16) 0.7225(2)
C21_3 C 0.41811(19) 0.6964(2) 0.7409(2)
H20_3 H 0.4196 0.7052 0.7908
C22_3 C 0.36387(18) 0.6984(2) 0.6872(2)
H21_3 H 0.3295 0.7095 0.7017
C23_3 C 0.5869(3) 0.7252(3) 0.1633(4)
H22_3 H 0.6069 0.6915 0.1563
C24_3 C 0.5489(3) 0.7235(3) 0.2103(4)
H23_3 H 0.5430 0.6886 0.2326
C25_3 C 0.52010(19) 0.7711(2) 0.2247(2)
C26_3 C 0.5278(3) 0.8203(2) 0.1870(3)
H24_3 H 0.5074 0.8540 0.1930
C27_3 C 0.5660(3) 0.8202(2) 0.1400(3)
H25_3 H 0.5711 0.8543 0.1156
N7_3 N 0.64209(13) 0.68526(13) 0.88500(17)
C28_3 C 0.59196(18) 0.6705(2) 0.9039(2)
H26_3 H 0.5949 0.6606 0.9539
C29_3 C 0.53567(17) 0.6691(2) 0.8526(2)
H27_3 H 0.5016 0.6596 0.8686
C30_3 C 0.52984(15) 0.68166(16) 0.7775(2)
C31_3 C 0.58189(19) 0.6964(2) 0.7591(2)
H28_3 H 0.5804 0.7052 0.7092
C32_3 C 0.63613(18) 0.6984(2) 0.8128(2)
H29_3 H 0.6705 0.7095 0.7983
O24_2 O 0.31934(16) 0.86543(12) 0.40306(19)
O7_3 O 0.88566(12) 0.66015(14) 0.10741(16)
C8_3 C 0.99061(17) 0.6467(2) 0.1179(2)
H8_3 H 0.9868 0.6067 0.1320
C9_3 C 0.92824(17) 0.67007(18) 0.0792(2)
N8_4 N 0.30909(13) 0.12986(13) 0.31423(17)
N9_4 N 0.40687(13) 0.12255(14) 0.39286(16)
N10_4 N 0.34510(13) 0.04067(13) 0.36592(17)
O11_4 O 0.25089(13) 0.05005(14) 0.28887(18)
O12_4 O 0.44174(12) 0.03489(13) 0.44194(17)
O13_4 O 0.37213(14) 0.20745(13) 0.33689(18)
O14_4 O 0.21807(11) 0.24431(12) 0.13610(13)
O15_4 O 0.18619(12) 0.16631(12) 0.06805(15)
O17_4 O 0.61434(12) 0.16015(14) 0.39259(16)
H30_4 H 0.3187 0.2013 0.0608
C33_4 C 0.29890(16) 0.07250(18) 0.3212(2)
C34_4 C 0.40116(16) 0.06429(17) 0.4031(2)
C35_4 C 0.36319(16) 0.15652(17) 0.3471(2)
C36_4 C 0.26147(16) 0.16357(18) 0.2610(2)
H31_4 H 0.2219 0.1511 0.2646
H32_4 H 0.2660 0.2043 0.2740
C37_4 C 0.26614(18) 0.15493(19) 0.1808(2)
H33_4 H 0.2602 0.1143 0.1676
H34_4 H 0.3065 0.1657 0.1782
C38_4 C 0.22017(16) 0.19024(17) 0.1249(2)
C39_4 C 0.46574(15) 0.14983(18) 0.4310(2)
H35_4 H 0.4591 0.1900 0.4419
H36_4 H 0.4832 0.1303 0.4785
C40_4 C 0.50939(17) 0.1467(2) 0.3821(2)
H37_4 H 0.5132 0.1067 0.3680
H38_4 H 0.4928 0.1685 0.3361
C41_4 C 0.57176(17) 0.17007(18) 0.4208(2)
N11_2 N 0.09607(14) 0.27256(15) 0.12796(19)
C23_4 C 0.0869(3) 0.2252(3) 0.1633(4)
H22_4 H 0.1069 0.1915 0.1563
C24_4 C 0.0489(3) 0.2235(3) 0.2103(4)
H23_4 H 0.0430 0.1886 0.2326
C25_4 C 0.02010(19) 0.2711(2) 0.2247(2)
C26_4 C 0.0278(3) 0.3203(2) 0.1870(3)
H24_4 H 0.0074 0.3540 0.1930
C27_4 C 0.0660(3) 0.3202(2) 0.1400(3)
H25_4 H 0.0711 0.3543 0.1156
N7_4 N 0.14209(13) 0.18526(13) 0.88500(17)
C28_4 C 0.09196(18) 0.1705(2) 0.9039(2)
H26_4 H 0.0949 0.1606 0.9539
C29_4 C 0.03567(17) 0.1691(2) 0.8526(2)
H27_4 H 0.0016 0.1596 0.8686
C30_4 C 0.02984(15) 0.18166(16) 0.7775(2)
C31_4 C 0.08189(19) 0.1964(2) 0.7591(2)
H28_4 H 0.0804 0.2052 0.7092
C32_4 C 0.13613(18) 0.1984(2) 0.8128(2)
H29_4 H 0.1705 0.2095 0.7983
C42_4 C 0.33681(18) 0.97785(16) 0.3717(2)
H39_4 H 0.3157 0.9627 0.3225
H40_4 H 0.3762 0.9593 0.3873
C43_4 C 0.30093(19) 0.96338(17) 0.4280(2)
H41_4 H 0.3237 0.9753 0.4781
H42_4 H 0.2630 0.9846 0.4150
C44_4 C 0.28793(17) 0.89898(17) 0.4280(2)
N1_4 N 0.69091(13) 0.12986(13) 0.18577(17)
N2_4 N 0.59313(13) 0.12255(14) 0.10714(16)
N3_4 N 0.65490(13) 0.04067(13) 0.13408(17)
N4_4 N 0.90393(14) 0.27256(15) 0.37204(19)
N5_4 N 0.85791(13) 0.18526(13) 0.61500(17)
O1_4 O 0.74911(13) 0.05005(14) 0.21113(18)
O2_4 O 0.55826(12) 0.03489(13) 0.05806(17)
O3_4 O 0.62787(14) 0.20745(13) 0.16311(18)
O4_4 O 0.78193(11) 0.24431(12) 0.36390(13)
O5_4 O 0.81381(12) 0.16631(12) 0.43195(15)
O7_4 O 0.38566(12) 0.16015(14) 0.10741(16)
H1_4 H 0.6813 0.2013 0.4392
C1_4 C 0.70110(16) 0.07250(18) 0.1788(2)
C2_4 C 0.59884(16) 0.06429(17) 0.0969(2)
C3_4 C 0.63681(16) 0.15652(17) 0.1529(2)
C4_4 C 0.73853(16) 0.16357(18) 0.2390(2)
H2_4 H 0.7781 0.1511 0.2354
H3_4 H 0.7340 0.2043 0.2260
C5_4 C 0.73386(18) 0.15493(19) 0.3192(2)
H4_4 H 0.7398 0.1143 0.3324
H5_4 H 0.6935 0.1657 0.3218
C6_4 C 0.77983(16) 0.19024(17) 0.3751(2)
C7_4 C 0.53426(15) 0.14983(18) 0.0690(2)
H6_4 H 0.5409 0.1900 0.0581
H7_4 H 0.5168 0.1303 0.0215
C8_4 C 0.49061(17) 0.1467(2) 0.1179(2)
H8_4 H 0.4868 0.1067 0.1320
H9_4 H 0.5072 0.1685 0.1639
C9_4 C 0.42824(17) 0.17007(18) 0.0792(2)
C13_4 C 0.9131(3) 0.2252(3) 0.3367(4)
H14_4 H 0.8931 0.1915 0.3437
C14_4 C 0.9511(3) 0.2235(3) 0.2897(4)
H15_4 H 0.9570 0.1886 0.2674
C15_4 C 0.97990(19) 0.2711(2) 0.2753(2)
C16_4 C 0.9722(3) 0.3203(2) 0.3130(3)
H16_4 H 0.9926 0.3540 0.3070
C17_4 C 0.9340(3) 0.3202(2) 0.3600(3)
H17_4 H 0.9289 0.3543 0.3844
C18_4 C 0.90804(18) 0.1705(2) 0.5961(2)
H18_4 H 0.9051 0.1606 0.5461
C19_4 C 0.96433(17) 0.1691(2) 0.6474(2)
H19_4 H 0.9984 0.1596 0.6314
C20_4 C 0.97016(15) 0.18166(16) 0.7225(2)
C21_4 C 0.91811(19) 0.1964(2) 0.7409(2)
H20_4 H 0.9196 0.2052 0.7908
C22_4 C 0.86387(18) 0.1984(2) 0.6872(2)
H21_4 H 0.8295 0.2095 0.7017
C10_4 C 0.66319(18) 0.97785(16) 0.1283(2)
H10_4 H 0.6843 0.9627 0.1775
H11_4 H 0.6238 0.9593 0.1127
C11_4 C 0.69907(19) 0.96338(17) 0.0720(2)
H12_4 H 0.6763 0.9753 0.0219
H13_4 H 0.7370 0.9846 0.0850
C12_4 C 0.71207(17) 0.89898(17) 0.0720(2)
loop_
_geom_bond_atom_site_label_1
_geom_bond_atom_site_label_2
_geom_bond_site_symmetry_1
_geom_bond_site_symmetry_2
O6 C9 1_555 1_555
O7 C9 1_555 1_555
H8 C8 1_555 1_555
C9 C8 1_555 1_555
Cu1 N4 1_555 1_555
Cu2 N5 1_555 1_555
N1 C1 1_555 1_555
N2 C2 1_555 1_555
N3 C1 1_555 1_555
N4 C13 1_555 1_555
N5 C18 1_555 1_555
O1 C1 1_555 1_555
O2 C2 1_555 1_555
O3 C3 1_555 1_555
O4 Cu1 1_555 1_555
O5 Cu1 1_555 1_555
O8 C12 1_555 1_555
O9 C12 1_555 1_555
O10 Cu2 1_555 1_555
H1 O10 1_555 1_555
C2 N3 1_555 1_555
C3 N1 1_555 1_555
C4 N1 1_555 1_555
H2 C4 1_555 1_555
H3 C4 1_555 1_555
C5 C4 1_555 1_555
H4 C5 1_555 1_555
H5 C5 1_555 1_555
C6 O4 1_555 1_555
C7 N2 1_555 1_555
H6 C7 1_555 1_555
H7 C7 1_555 1_555
C10 N3 1_555 1_555
H10 C10 1_555 1_555
H11 C10 1_555 1_555
C11 C10 1_555 1_555
H12 C11 1_555 1_555
H13 C11 1_555 1_555
C12 C11 1_555 1_555
C13 H14 1_555 1_555
C14 C13 1_555 1_555
H15 C14 1_555 1_555
C15 C14 1_555 1_555
C16 C15 1_555 1_555
H16 C16 1_555 1_555
C17 N4 1_555 1_555
H17 C17 1_555 1_555
C18 H18 1_555 1_555
C19 C18 1_555 1_555
H19 C19 1_555 1_555
C20 C19 1_555 1_555
C21 C20 1_555 1_555
H20 C21 1_555 1_555
C22 N5 1_555 1_555
H21 C22 1_555 1_555
N6 C23 1_555 1_555
C23 H22 1_555 1_555
C24 C23 1_555 1_555
H23 C24 1_555 1_555
C25 C15 1_555 1_555
C26 C25 1_555 1_555
H24 C26 1_555 1_555
C27 N6 1_555 1_555
H25 C27 1_555 1_555
N7 C28 1_555 1_555
C28 H26 1_555 1_555
C29 C28 1_555 1_555
H27 C29 1_555 1_555
C30 C20 1_555 1_555
C31 C30 1_555 1_555
H28 C31 1_555 1_555
C32 N7 1_555 1_555
H29 C32 1_555 1_555
Cu4 N7 1_555 1_555
Cu5 N6 1_555 1_555
Cu7 O8 1_555 1_555
Cu9 O10 1_555 1_555
Cu13 O9 1_555 1_555
Cu14 O10 1_555 1_555
O22 Cu1 1_555 1_555
O24 Cu1 1_555 1_555
O25 Cu4 1_555 1_555
O26 Cu2 1_555 1_555
O27 Cu1 1_555 1_555
Cu2 O5 1_555 1_555
Cu2 O27 1_555 1_555
N2 C3 1_555 1_555
O5 C6 1_555 1_555
C5 C6 1_555 1_555
C16 C17 1_555 1_555
C21 C22 1_555 1_555
C24 C25 1_555 1_555
C26 C27 1_555 1_555
C29 C30 1_555 1_555
C31 C32 1_555 1_555
Cu4 O28 1_555 1_555
Cu14 O27 1_555 1_555
Cu5 O14 1_555 1_555
N8 C33 1_555 1_555
N9 C34 1_555 1_555
N10 C33 1_555 1_555
O11 C33 1_555 1_555
O12 C34 1_555 1_555
O13 C35 1_555 1_555
O14 C38 1_555 1_555
O15 Cu5 1_555 1_555
O18 C44 1_555 1_555
O19 C44 1_555 1_555
H30 O20 1_555 1_555
C34 N10 1_555 1_555
C35 N8 1_555 1_555
C36 N8 1_555 1_555
H31 C36 1_555 1_555
H32 C36 1_555 1_555
C37 C36 1_555 1_555
H33 C37 1_555 1_555
H34 C37 1_555 1_555
C38 O15 1_555 1_555
C39 N9 1_555 1_555
H35 C39 1_555 1_555
H36 C39 1_555 1_555
C42 N10 1_555 1_555
H39 C42 1_555 1_555
H40 C42 1_555 1_555
C43 C42 1_555 1_555
H41 C43 1_555 1_555
H42 C43 1_555 1_555
C44 C43 1_555 1_555
Cu6 O18 1_555 1_555
Cu12 O19 1_555 1_555
Cu15 O20 1_555 1_555
O23 Cu5 1_555 1_555
N9 C35 1_555 1_555
C37 C38 1_555 1_555
O16 C41 1_555 1_555
O17 C41 1_555 1_555
H37 C40 1_555 1_555
C41 C40 1_555 1_555
Cu9 O16 1_555 1_555
O23 C12_2 1_555 1_555
O9_2 C12_2 1_555 1_555
H10_2 C10_2 1_555 1_555
H11_2 C10_2 1_555 1_555
C11_2 C10_2 1_555 1_555
H12_2 C11_2 1_555 1_555
H13_2 C11_2 1_555 1_555
C12_2 C11_2 1_555 1_555
Cu15 O9_2 1_555 1_555
Cu6 N4_2 1_555 1_555
Cu2_2 N5_2 1_555 1_555
N1_2 C1_2 1_555 1_555
N2_2 C2_2 1_555 1_555
N3_2 C1_2 1_555 1_555
N4_2 C13_2 1_555 1_555
N5_2 C18_2 1_555 1_555
O1_2 C1_2 1_555 1_555
O2_2 C2_2 1_555 1_555
O3_2 C3_2 1_555 1_555
O4_2 Cu6 1_555 1_555
O5_2 Cu6 1_555 1_555
O6_2 C9_2 1_555 1_555
O7_2 C9_2 1_555 1_555
O10_2 Cu2_2 1_555 1_555
H1_2 O10_2 1_555 1_555
C2_2 N3_2 1_555 1_555
C3_2 N1_2 1_555 1_555
C4_2 N1_2 1_555 1_555
H2_2 C4_2 1_555 1_555
H3_2 C4_2 1_555 1_555
C5_2 C4_2 1_555 1_555
H4_2 C5_2 1_555 1_555
H5_2 C5_2 1_555 1_555
C6_2 O4_2 1_555 1_555
C7_2 N2_2 1_555 1_555
H6_2 C7_2 1_555 1_555
H7_2 C7_2 1_555 1_555
C8_2 C7_2 1_555 1_555
H8_2 C8_2 1_555 1_555
H9_2 C8_2 1_555 1_555
C9_2 C8_2 1_555 1_555
C13_2 H14_2 1_555 1_555
C14_2 C13_2 1_555 1_555
H15_2 C14_2 1_555 1_555
C15_2 C14_2 1_555 1_555
C16_2 C15_2 1_555 1_555
H16_2 C16_2 1_555 1_555
C17_2 N4_2 1_555 1_555
H17_2 C17_2 1_555 1_555
C18_2 H18_2 1_555 1_555
C19_2 C18_2 1_555 1_555
H19_2 C19_2 1_555 1_555
C20_2 C19_2 1_555 1_555
C21_2 C20_2 1_555 1_555
H20_2 C21_2 1_555 1_555
C22_2 N5_2 1_555 1_555
H21_2 C22_2 1_555 1_555
Cu9_2 O10_2 1_555 1_555
Cu12 O10_2 1_555 1_555
O22_2 Cu6 1_555 1_555
O26_2 Cu2_2 1_555 1_555
O27_2 Cu6 1_555 1_555
Cu2_2 O5_2 1_555 1_555
Cu2_2 O27_2 1_555 1_555
N2_2 C3_2 1_555 1_555
O5_2 C6_2 1_555 1_555
C5_2 C6_2 1_555 1_555
C16_2 C17_2 1_555 1_555
C21_2 C22_2 1_555 1_555
Cu12 O27_2 1_555 1_555
O24 C44_2 1_555 1_555
O19_2 C44_2 1_555 1_555
H39_2 C42_2 1_555 1_555
H40_2 C42_2 1_555 1_555
C43_2 C42_2 1_555 1_555
H41_2 C43_2 1_555 1_555
H42_2 C43_2 1_555 1_555
C44_2 C43_2 1_555 1_555
Cu14 O19_2 1_555 1_555
N6_2 C23_2 1_555 1_555
C23_2 H22_2 1_555 1_555
C24_2 C23_2 1_555 1_555
H23_2 C24_2 1_555 1_555
C26_2 C25_2 1_555 1_555
H24_2 C26_2 1_555 1_555
C27_2 N6_2 1_555 1_555
H25_2 C27_2 1_555 1_555
N7_2 C28_2 1_555 1_555
C28_2 H26_2 1_555 1_555
C29_2 C28_2 1_555 1_555
H27_2 C29_2 1_555 1_555
C31_2 C30_2 1_555 1_555
H28_2 C31_2 1_555 1_555
C32_2 N7_2 1_555 1_555
H29_2 C32_2 1_555 1_555
Cu4_2 N7_2 1_555 1_555
Cu7 N6_2 1_555 1_555
O25_2 Cu4_2 1_555 1_555
C24_2 C25_2 1_555 1_555
C26_2 C27_2 1_555 1_555
C29_2 C30_2 1_555 1_555
C31_2 C32_2 1_555 1_555
Cu4_2 O28_2 1_555 1_555
Cu7 O14_2 1_555 1_555
N8_2 C33_2 1_555 1_555
N9_2 C34_2 1_555 1_555
N10_2 C33_2 1_555 1_555
O11_2 C33_2 1_555 1_555
O12_2 C34_2 1_555 1_555
O13_2 C35_2 1_555 1_555
O14_2 C38_2 1_555 1_555
O15_2 Cu7 1_555 1_555
O16_2 C41_2 1_555 1_555
O17_2 C41_2 1_555 1_555
H30_2 O20_2 1_555 1_555
C34_2 N10_2 1_555 1_555
C35_2 N8_2 1_555 1_555
C36_2 N8_2 1_555 1_555
H31_2 C36_2 1_555 1_555
H32_2 C36_2 1_555 1_555
C37_2 C36_2 1_555 1_555
H33_2 C37_2 1_555 1_555
H34_2 C37_2 1_555 1_555
C38_2 O15_2 1_555 1_555
C39_2 N9_2 1_555 1_555
H35_2 C39_2 1_555 1_555
H36_2 C39_2 1_555 1_555
C40_2 C39_2 1_555 1_555
H37_2 C40_2 1_555 1_555
H38_2 C40_2 1_555 1_555
C41_2 C40_2 1_555 1_555
Cu9_2 O16_2 1_555 1_555
Cu13 O20_2 1_555 1_555
N9_2 C35_2 1_555 1_555
C37_2 C38_2 1_555 1_555
O22_2 C41_3 1_555 1_555
O17_3 C41_3 1_555 1_555
H37_3 C40_3 1_555 1_555
C41_3 C40_3 1_555 1_555
Cu11_2 O14_3 1_555 1_555
N8_3 C33_3 1_555 1_555
N9_3 C34_3 1_555 1_555
N10_3 C33_3 1_555 1_555
O11_3 C33_3 1_555 1_555
O12_3 C34_3 1_555 1_555
O13_3 C35_3 1_555 1_555
O14_3 C38_3 1_555 1_555
O15_3 Cu11_2 1_555 1_555
O18_2 C44_3 1_555 1_555
O26 C44_3 1_555 1_555
H30_3 O28_2 1_555 1_555
C34_3 N10_3 1_555 1_555
C35_3 N8_3 1_555 1_555
C36_3 N8_3 1_555 1_555
H31_3 C36_3 1_555 1_555
H32_3 C36_3 1_555 1_555
C37_3 C36_3 1_555 1_555
H33_3 C37_3 1_555 1_555
H34_3 C37_3 1_555 1_555
C38_3 O15_3 1_555 1_555
C39_3 N9_3 1_555 1_555
H35_3 C39_3 1_555 1_555
H36_3 C39_3 1_555 1_555
C42_3 N10_3 1_555 1_555
H39_3 C42_3 1_555 1_555
H40_3 C42_3 1_555 1_555
C43_3 C42_3 1_555 1_555
H41_3 C43_3 1_555 1_555
H42_3 C43_3 1_555 1_555
C44_3 C43_3 1_555 1_555
Cu9 O18_2 1_555 1_555
N11 Cu11_2 1_555 1_555
O23_2 Cu11_2 1_555 1_555
N9_3 C35_3 1_555 1_555
C37_3 C38_3 1_555 1_555
Cu9_2 N4_3 1_555 1_555
Cu12 N5_3 1_555 1_555
N1_3 C1_3 1_555 1_555
N2_3 C2_3 1_555 1_555
N3_3 C1_3 1_555 1_555
N4_3 C13_3 1_555 1_555
N5_3 C18_3 1_555 1_555
O1_3 C1_3 1_555 1_555
O2_3 C2_3 1_555 1_555
O3_3 C3_3 1_555 1_555
O4_3 Cu9_2 1_555 1_555
O5_3 Cu9_2 1_555 1_555
O8_2 C12_3 1_555 1_555
O25 C12_3 1_555 1_555
H1_3 O27_2 1_555 1_555
C2_3 N3_3 1_555 1_555
C3_3 N1_3 1_555 1_555
C4_3 N1_3 1_555 1_555
H2_3 C4_3 1_555 1_555
H3_3 C4_3 1_555 1_555
C5_3 C4_3 1_555 1_555
H4_3 C5_3 1_555 1_555
H5_3 C5_3 1_555 1_555
C6_3 O4_3 1_555 1_555
C7_3 N2_3 1_555 1_555
H6_3 C7_3 1_555 1_555
H7_3 C7_3 1_555 1_555
C10_3 N3_3 1_555 1_555
H10_3 C10_3 1_555 1_555
H11_3 C10_3 1_555 1_555
C11_3 C10_3 1_555 1_555
H12_3 C11_3 1_555 1_555
H13_3 C11_3 1_555 1_555
C12_3 C11_3 1_555 1_555
C13_3 H14_3 1_555 1_555
C14_3 C13_3 1_555 1_555
H15_3 C14_3 1_555 1_555
C15_3 C14_3 1_555 1_555
C16_3 C15_3 1_555 1_555
H16_3 C16_3 1_555 1_555
C17_3 N4_3 1_555 1_555
H17_3 C17_3 1_555 1_555
C18_3 H18_3 1_555 1_555
C19_3 C18_3 1_555 1_555
H19_3 C19_3 1_555 1_555
C20_3 C19_3 1_555 1_555
C21_3 C20_3 1_555 1_555
H20_3 C21_3 1_555 1_555
C22_3 N5_3 1_555 1_555
H21_3 C22_3 1_555 1_555
N11 C23_3 1_555 1_555
C23_3 H22_3 1_555 1_555
C24_3 C23_3 1_555 1_555
H23_3 C24_3 1_555 1_555
C25_3 C15_3 1_555 1_555
C26_3 C25_3 1_555 1_555
H24_3 C26_3 1_555 1_555
C27_3 N11 1_555 1_555
H25_3 C27_3 1_555 1_555
N7_3 C28_3 1_555 1_555
C28_3 H26_3 1_555 1_555
C29_3 C28_3 1_555 1_555
H27_3 C29_3 1_555 1_555
C30_3 C20_3 1_555 1_555
C31_3 C30_3 1_555 1_555
H28_3 C31_3 1_555 1_555
C32_3 N7_3 1_555 1_555
H29_3 C32_3 1_555 1_555
Cu13 N7_3 1_555 1_555
Cu11 O8_2 1_555 1_555
O24_2 Cu9_2 1_555 1_555
Cu12 O5_3 1_555 1_555
N2_3 C3_3 1_555 1_555
O5_3 C6_3 1_555 1_555
C5_3 C6_3 1_555 1_555
C16_3 C17_3 1_555 1_555
C21_3 C22_3 1_555 1_555
C24_3 C25_3 1_555 1_555
C26_3 C27_3 1_555 1_555
C29_3 C30_3 1_555 1_555
C31_3 C32_3 1_555 1_555
O21_2 C9_3 1_555 1_555
O7_3 C9_3 1_555 1_555
H8_3 C8_3 1_555 1_555
C9_3 C8_3 1_555 1_555
Cu11 O14_4 1_555 1_555
N8_4 C33_4 1_555 1_555
N9_4 C34_4 1_555 1_555
N10_4 C33_4 1_555 1_555
O11_4 C33_4 1_555 1_555
O12_4 C34_4 1_555 1_555
O13_4 C35_4 1_555 1_555
O14_4 C38_4 1_555 1_555
O15_4 Cu11 1_555 1_555
O22 C41_4 1_555 1_555
O17_4 C41_4 1_555 1_555
H30_4 O28 1_555 1_555
C34_4 N10_4 1_555 1_555
C35_4 N8_4 1_555 1_555
C36_4 N8_4 1_555 1_555
H31_4 C36_4 1_555 1_555
H32_4 C36_4 1_555 1_555
C37_4 C36_4 1_555 1_555
H33_4 C37_4 1_555 1_555
H34_4 C37_4 1_555 1_555
C38_4 O15_4 1_555 1_555
C39_4 N9_4 1_555 1_555
H35_4 C39_4 1_555 1_555
H36_4 C39_4 1_555 1_555
C40_4 C39_4 1_555 1_555
H37_4 C40_4 1_555 1_555
H38_4 C40_4 1_555 1_555
C41_4 C40_4 1_555 1_555
N11_2 Cu11 1_555 1_555
N9_4 C35_4 1_555 1_555
C37_4 C38_4 1_555 1_555
N11_2 C23_4 1_555 1_555
C23_4 H22_4 1_555 1_555
C24_4 C23_4 1_555 1_555
H23_4 C24_4 1_555 1_555
C26_4 C25_4 1_555 1_555
H24_4 C26_4 1_555 1_555
C27_4 N11_2 1_555 1_555
H25_4 C27_4 1_555 1_555
N7_4 C28_4 1_555 1_555
C28_4 H26_4 1_555 1_555
C29_4 C28_4 1_555 1_555
H27_4 C29_4 1_555 1_555
C31_4 C30_4 1_555 1_555
H28_4 C31_4 1_555 1_555
C32_4 N7_4 1_555 1_555
H29_4 C32_4 1_555 1_555
Cu15 N7_4 1_555 1_555
C24_4 C25_4 1_555 1_555
C26_4 C27_4 1_555 1_555
C29_4 C30_4 1_555 1_555
C31_4 C32_4 1_555 1_555
O24_2 C44_4 1_555 1_555
O26_2 C44_4 1_555 1_555
H39_4 C42_4 1_555 1_555
H40_4 C42_4 1_555 1_555
C43_4 C42_4 1_555 1_555
H41_4 C43_4 1_555 1_555
H42_4 C43_4 1_555 1_555
C44_4 C43_4 1_555 1_555
Cu9 N4_4 1_555 1_555
Cu14 N5_4 1_555 1_555
N1_4 C1_4 1_555 1_555
N2_4 C2_4 1_555 1_555
N3_4 C1_4 1_555 1_555
N4_4 C13_4 1_555 1_555
N5_4 C18_4 1_555 1_555
O1_4 C1_4 1_555 1_555
O2_4 C2_4 1_555 1_555
O3_4 C3_4 1_555 1_555
O4_4 Cu9 1_555 1_555
O5_4 Cu9 1_555 1_555
O21 C9_4 1_555 1_555
O7_4 C9_4 1_555 1_555
H1_4 O27 1_555 1_555
C2_4 N3_4 1_555 1_555
C3_4 N1_4 1_555 1_555
C4_4 N1_4 1_555 1_555
H2_4 C4_4 1_555 1_555
H3_4 C4_4 1_555 1_555
C5_4 C4_4 1_555 1_555
H4_4 C5_4 1_555 1_555
H5_4 C5_4 1_555 1_555
C6_4 O4_4 1_555 1_555
C7_4 N2_4 1_555 1_555
H6_4 C7_4 1_555 1_555
H7_4 C7_4 1_555 1_555
C8_4 C7_4 1_555 1_555
H8_4 C8_4 1_555 1_555
H9_4 C8_4 1_555 1_555
C9_4 C8_4 1_555 1_555
C13_4 H14_4 1_555 1_555
C14_4 C13_4 1_555 1_555
H15_4 C14_4 1_555 1_555
C15_4 C14_4 1_555 1_555
C16_4 C15_4 1_555 1_555
H16_4 C16_4 1_555 1_555
C17_4 N4_4 1_555 1_555
H17_4 C17_4 1_555 1_555
C18_4 H18_4 1_555 1_555
C19_4 C18_4 1_555 1_555
H19_4 C19_4 1_555 1_555
C20_4 C19_4 1_555 1_555
C21_4 C20_4 1_555 1_555
H20_4 C21_4 1_555 1_555
C22_4 N5_4 1_555 1_555
H21_4 C22_4 1_555 1_555
Cu14 O5_4 1_555 1_555
N2_4 C3_4 1_555 1_555
O5_4 C6_4 1_555 1_555
C5_4 C6_4 1_555 1_555
C16_4 C17_4 1_555 1_555
C21_4 C22_4 1_555 1_555
O23_2 C12_4 1_555 1_555
O25_2 C12_4 1_555 1_555
H10_4 C10_4 1_555 1_555
H11_4 C10_4 1_555 1_555
C11_4 C10_4 1_555 1_555
H12_4 C11_4 1_555 1_555
H13_4 C11_4 1_555 1_555
C12_4 C11_4 1_555 1_555

#END
