
###############################################################################
#
# This file contains modified crystal structure data generated from the
# MOF subset of the Cambridge Structural Database (CSD) v543 
# hosted by the Cambridge Crystallographic Data Centre (CCDC).
#
# This work is licensed under the Creative Commons
# Attribution-NonCommercial-ShareAlike 4.0 International License.
# To view a copy of this license, visit
# http://creativecommons.org/licenses/by-nc-sa/4.0/
# or send a letter to
# Creative Commons, PO Box 1866, Mountain View, CA 94042, USA.
#
# CIF created using the CSD Python API on 29 September 2022
# The structure has been converted into the P1 space group
# The structure has a 3D framework
# The original CSD entry KUFBEU is in the monoclinic crystal system
# The framework has been calculated to contain at least 10.0% void space
# The void calculation uses a probe of radius 1.32A, grid spacing 0.4
# H atom positions have been added when not included in the experimental data
# Generated hydrogen atom positions removed from atoms on special positions
#
###############################################################################

data_KUFBEU
_chemical_formula_moiety         '(C12 H32 La6 O32)n'
_symmetry_cell_setting           triclinic
_symmetry_space_group_name_H-M   'P 1'
_symmetry_Int_Tables_number      1
_space_group_name_Hall           'P 1'
loop_
_symmetry_equiv_pos_site_id
_symmetry_equiv_pos_as_xyz
1 x,y,z
_cell_length_a                   10.415(2)
_cell_length_b                   10.226(2)
_cell_length_c                   8.7198(17)
_cell_angle_alpha                90
_cell_angle_beta                 109.45(3)
_cell_angle_gamma                90
_cell_volume                     875.694
loop_
_atom_site_label
_atom_site_type_symbol
_atom_site_fract_x
_atom_site_fract_y
_atom_site_fract_z
O16 O 0.1078(6) 0.1660(7) 0.0455(7)
La2 La -0.0000 0.26379(6) 0.7500
O7 O 0.1117(6) 0.3673(6) 0.5646(8)
O8 O 0.0000 0.0032(9) 0.7500
C3 C 0.0679(8) 0.4729(8) 0.4923(10)
O17 O 0.2455(6) 0.1940(6) 0.8302(7)
O19 O 0.1205(6) 0.4614(7) 0.9079(8)
O22 O 0.1205(6) 0.5386(7) 0.4079(8)
La6 La -0.0000 0.73621(6) 0.2500
O12 O 0.4245(6) 0.0978(6) 0.0067(7)
H4 H 0.697574 0.149171 0.0862159
O1 O 0.7021(6) 0.0817(6) 0.2744(7)
O2 O 0.5755(6) 0.0978(6) 0.4933(7)
C1 C 0.7710(8) 0.1299(8) 0.4102(10)
C2 C 0.6953(8) 0.1430(8) 0.5357(9)
O3 O 0.8922(6) 0.1660(7) 0.4545(7)
O4 O 0.7545(6) 0.1940(6) 0.6698(7)
O5 O 0.7133(7) 0.1552(8) 0.9802(8)
O6 O 0.5000 0.3042(11) 0.7500
La2_2 La 1.0000 0.26379(6) 0.7500
O8_2 O 1.0000 0.0032(9) 0.7500
O9 O 0.8795(6) 0.4614(7) 0.5921(8)
La3 La 0.5000 0.06804(6) 0.7500
O13 O 0.2867(7) 0.1552(8) 0.5198(8)
O18 O 0.8883(6) 0.3673(6) 0.9354(8)
C6 C 0.9321(8) 0.5271(8) 0.5077(10)
O23 O 0.8883(6) 0.6327(6) 0.4354(8)
La6_2 La 1.0000 0.73621(6) 0.2500
H3 H 0.729632 0.247839 0.957936
La4 La 0.5000 0.93196(6) 0.2500
C5 C 0.6953(8) 0.8570(8) 0.0357(9)
O21 O 0.7545(6) 0.8060(6) 0.1698(7)
O10 O 0.4245(6) 0.9022(6) 0.5067(7)
O11 O 0.7021(6) 0.9183(6) 0.7744(7)
O14 O 0.5755(6) 0.9022(6) 0.9933(7)
O15 O 0.2979(6) 0.9183(6) 0.7256(7)
C4 C 0.7710(8) 0.8701(8) 0.9102(10)
O20 O 0.8922(6) 0.8340(7) 0.9545(7)
O1_2 O 0.2979(6) 0.0817(6) 0.2256(7)
C1_2 C 0.2290(8) 0.1299(8) 0.0898(10)
O23_2 O 0.1117(6) 0.6327(6) 0.0646(8)
H7 H 0.738529 0.0928162 0.0727489
C2_2 C 0.3047(8) 0.1430(8) 0.9643(9)
C6_2 C 0.0679(8) 0.5271(8) 0.9923(10)
H8 H 0.790402 0.164221 0.937954
C4_2 C 0.2290(8) 0.8701(8) 0.5898(10)
C5_2 C 0.3047(8) 0.8570(8) 0.4643(9)
O20_2 O 0.1078(6) 0.8340(7) 0.5455(7)
O21_2 O 0.2455(6) 0.8060(6) 0.3302(7)
C3_2 C 0.9321(8) 0.4729(8) 0.0077(10)
O22_2 O 0.8795(6) 0.5386(7) 0.0921(8)
H1 H 0.946235 0.970832 0.817278
H2 H 0.958706 0.970832 0.636806
O5_2 O 0.2867(7) 0.8448(8) 0.0198(8)
O6_2 O 0.5000 0.6958(11) 0.2500
O8_3 O 0.0000 0.9968(9) 0.2500
O13_2 O 0.7133(7) 0.8448(8) 0.4802(8)
H3_2 H 0.270368 0.752161 0.042064
H4_2 H 0.302426 0.850829 0.913784
O8_4 O 1.0000 0.9968(9) 0.2500
H1_2 H 0.0537647 0.0291685 0.182722
H2_2 H 0.0412937 0.0291685 0.363194
H8_2 H 0.209598 0.835779 0.0620464
H7_2 H 0.261471 0.907184 0.927251
H1_3 H 0.0537647 0.970832 0.682722
H2_3 H 0.0412937 0.970832 0.863194
H1_4 H 0.946235 0.0291685 0.317278
H2_4 H 0.958706 0.0291685 0.136806
loop_
_geom_bond_atom_site_label_1
_geom_bond_atom_site_label_2
_geom_bond_site_symmetry_1
_geom_bond_site_symmetry_2
O7 La2 1_555 1_555
O8 La2 1_555 1_555
C3 O7 1_555 1_555
O17 La2 1_555 1_555
O19 La2 1_555 1_555
O22 C3 1_555 1_555
La6 O22 1_555 1_555
O1 C1 1_555 1_555
C1 C2 1_555 1_555
C2 O2 1_555 1_555
O3 C1 1_555 1_555
O4 C2 1_555 1_555
O5 La3 1_555 1_555
O6 La3 1_555 1_555
La2_2 O3 1_555 1_555
O8_2 La2_2 1_555 1_555
O9 La2_2 1_555 1_555
La3 O2 1_555 1_555
O13 La3 1_555 1_555
O18 La2_2 1_555 1_555
C6 O9 1_555 1_555
O23 C6 1_555 1_555
O4 La2_2 1_555 1_555
O23 La6_2 1_555 1_555
O5 H3 1_555 1_555
O21 C5 1_555 1_555
O21 La6_2 1_555 1_555
O10 La4 1_555 1_555
C4 O11 1_555 1_555
O20 C4 1_555 1_555
O1_2 C1_2 1_555 1_555
O16 C1_2 1_555 1_555
O23_2 La6 1_555 1_555
O17 C2_2 1_555 1_555
C6_2 O19 1_555 1_555
O5 H8 1_555 1_555
C4_2 O15 1_555 1_555
C5_2 O10 1_555 1_555
O20_2 C4_2 1_555 1_555
O21_2 C5_2 1_555 1_555
La6 O20_2 1_555 1_555
C4_2 C5_2 1_555 1_555
O21_2 La6 1_555 1_555
O22_2 C3_2 1_555 1_555
La6_2 O22_2 1_555 1_555
O5_2 La4 1_555 1_555
O6_2 La4 1_555 1_555
O8_3 La6 1_555 1_555
O13_2 La4 1_555 1_555
O5_2 H3_2 1_555 1_555
O8_4 La6_2 1_555 1_555
O5_2 H8_2 1_555 1_555

#END
