
###############################################################################
#
# This file contains modified crystal structure data generated from the
# MOF subset of the Cambridge Structural Database (CSD) v543 
# hosted by the Cambridge Crystallographic Data Centre (CCDC).
#
# This work is licensed under the Creative Commons
# Attribution-NonCommercial-ShareAlike 4.0 International License.
# To view a copy of this license, visit
# http://creativecommons.org/licenses/by-nc-sa/4.0/
# or send a letter to
# Creative Commons, PO Box 1866, Mountain View, CA 94042, USA.
#
# CIF created using the CSD Python API on 29 September 2022
# The structure has been converted into the P1 space group
# The structure has a 3D framework
# The original CSD entry KUFTAI is in the monoclinic crystal system
# The framework has been calculated to contain at least 10.0% void space
# The void calculation uses a probe of radius 1.32A, grid spacing 0.4
#
###############################################################################

data_KUFTAI
_chemical_formula_moiety         '(C192 H96 Fe6 Mn4 N16 O36)n'
_symmetry_cell_setting           triclinic
_symmetry_space_group_name_H-M   'P 1'
_symmetry_Int_Tables_number      1
_space_group_name_Hall           'P 1'
loop_
_symmetry_equiv_pos_site_id
_symmetry_equiv_pos_as_xyz
1 x,y,z
_cell_length_a                   14.908(6)
_cell_length_b                   15.345(6)
_cell_length_c                   27.753(11)
_cell_angle_alpha                90
_cell_angle_beta                 90.424(6)
_cell_angle_gamma                90
_cell_volume                     6348.69
loop_
_atom_site_label
_atom_site_type_symbol
_atom_site_fract_x
_atom_site_fract_y
_atom_site_fract_z
C90 C 0.0750(3) 0.2466(3) 0.17369(15)
C94 C 0.0239(3) 0.1475(3) 0.11207(17)
H47 H 0.0374 0.1046 0.0885
C95 C 0.0939(3) 0.1846(3) 0.13872(18)
H48 H 0.1541 0.1676 0.1330
C96 C 0.1492(4) 0.2892(3) 0.20064(16)
O16 O 0.13045(19) 0.3555(2) 0.22765(10)
O17 O 0.2271(2) 0.2619(2) 0.19713(11)
Fe10 Fe 0.26858(4) 0.37803(4) 0.24476(2)
C1 C 0.1636(3) 0.0477(3) 0.39804(16)
C2 C 0.1378(3) 0.0021(3) 0.35530(18)
H1 H 0.0955 0.0226 0.3322
C11 C 0.4059(3) 0.0053(3) 0.57172(16)
C12 C 0.4393(4) 0.0517(4) 0.61251(17)
H5 H 0.4739 0.0281 0.6382
C13 C 0.4129(4) 0.1349(4) 0.60798(19)
H6 H 0.4267 0.1814 0.6294
C14 C 0.3590(3) 0.1405(3) 0.56404(17)
C15 C 0.3153(3) 0.2137(3) 0.54897(17)
C16 C 0.2568(3) 0.2157(3) 0.51030(17)
C17 C 0.2051(4) 0.2900(3) 0.49592(19)
H7 H 0.2071 0.3464 0.5101
C18 C 0.1537(4) 0.2653(3) 0.45900(19)
H8 H 0.1115 0.3012 0.4425
C19 C 0.1722(3) 0.1755(3) 0.44803(18)
C20 C 0.1365(3) 0.1305(3) 0.40997(16)
C35 C 0.3558(3) 0.4446(3) 0.63617(15)
C36 C 0.4239(4) 0.4120(3) 0.60880(17)
H17 H 0.4811 0.4394 0.6092
C37 C 0.4091(4) 0.3370(4) 0.57972(18)
H18 H 0.4569 0.3155 0.5606
C38 C 0.3291(3) 0.2952(3) 0.57846(16)
C39 C 0.2609(4) 0.3304(4) 0.6061(2)
H19 H 0.2037 0.3031 0.6061
C40 C 0.2746(4) 0.4041(4) 0.63355(19)
H20 H 0.2258 0.4274 0.6512
C41 C 0.3693(4) 0.5207(3) 0.66825(16)
C43 C 0.0141(3) 0.2691(3) 0.31938(16)
H21 H 0.0285 0.3112 0.2955
C44 C 0.0825(3) 0.2321(3) 0.34613(16)
H22 H 0.1429 0.2488 0.3403
C45 C 0.0644(3) 0.1713(3) 0.38104(14)
Mn1 Mn 0.27614(4) 0.02189(4) 0.48830(2)
N3 N 0.3556(2) 0.0601(2) 0.54241(12)
N4 N 0.2365(2) 0.1452(2) 0.48083(12)
O5 O 0.4475(2) 0.54480(19) 0.67727(10)
O6 O 0.2988(2) 0.5560(2) 0.68396(11)
C59 C 0.5941(3) 0.0053(3) 0.92828(16)
C60 C 0.5607(4) 0.0517(4) 0.88749(17)
H29 H 0.5261 0.0281 0.8618
C61 C 0.5871(4) 0.1349(4) 0.89202(19)
H30 H 0.5733 0.1814 0.8706
C62 C 0.6410(3) 0.1405(3) 0.93596(17)
C63 C 0.6847(3) 0.2137(3) 0.95103(17)
C64 C 0.7432(3) 0.2157(3) 0.98970(17)
H31 H 0.7929 0.3464 0.9899
C83 C 0.6442(3) 0.4446(3) 0.86383(15)
C84 C 0.5761(4) 0.4120(3) 0.89120(17)
H41 H 0.5189 0.4394 0.8908
C85 C 0.5909(4) 0.3370(4) 0.92028(18)
H42 H 0.5431 0.3155 0.9394
C86 C 0.6709(3) 0.2952(3) 0.92154(16)
C87 C 0.7391(4) 0.3304(4) 0.8939(2)
H43 H 0.7963 0.3031 0.8939
C88 C 0.7254(4) 0.4041(4) 0.86645(19)
H44 H 0.7742 0.4274 0.8488
C89 C 0.6307(4) 0.5207(3) 0.83175(16)
N7 N 0.6444(2) 0.0601(2) 0.95759(12)
O14 O 0.5525(2) 0.54480(19) 0.82273(10)
O15 O 0.7012(2) 0.5560(2) 0.81604(11)
Fe4 Fe 0.5000 0.55912(6) 0.7500
Fe7 Fe 0.73142(4) 0.62197(4) 0.75524(2)
Fe8 Fe 0.26858(4) 0.62197(4) 0.74476(2)
C51 C 0.8190(4) 0.9275(3) 0.14745(18)
H26 H 0.8237 0.8855 0.1725
C52 C 0.7638(3) 0.9224(3) 0.10565(17)
C53 C 0.7115(3) 0.8520(3) 0.09284(17)
C54 C 0.6625(3) 0.8463(3) 0.05094(17)
C55 C 0.6146(4) 0.7707(3) 0.0351(2)
H27 H 0.6079 0.7179 0.0526
C69 C 0.6881(3) 0.6256(3) 0.18303(16)
C70 C 0.7625(3) 0.6385(3) 0.1544(2)
H33 H 0.8091 0.5963 0.1541
C71 C 0.7690(4) 0.7121(4) 0.1267(2)
H34 H 0.8200 0.7194 0.1067
C72 C 0.7046(3) 0.7749(3) 0.12684(17)
C73 C 0.6339(3) 0.7632(3) 0.15614(18)
H35 H 0.5894 0.8074 0.1578
C74 C 0.6242(4) 0.6900(4) 0.18355(18)
H36 H 0.5727 0.6836 0.2032
C75 C 0.6753(4) 0.5425(3) 0.21105(17)
N5 N 0.7734(2) 0.9969(2) 0.07820(12)
N6 N 0.6549(2) 0.9100(2) 0.01478(13)
O10 O 0.6005(2) 0.53305(19) 0.23103(11)
O11 O 0.7415(2) 0.4896(2) 0.21367(12)
Fe6 Fe 0.5000 0.44088(6) 0.2500
Fe12 Fe 0.73142(4) 0.37803(4) 0.25524(2)
C3 C 0.1810(4) 0.9275(3) 0.35255(18)
H2 H 0.1763 0.8855 0.3275
C4 C 0.2362(3) 0.9224(3) 0.39435(17)
C5 C 0.2885(3) 0.8520(3) 0.40716(17)
C6 C 0.3375(3) 0.8463(3) 0.44906(17)
C7 C 0.3854(4) 0.7707(3) 0.4649(2)
H3 H 0.3921 0.7179 0.4474
C8 C 0.4195(4) 0.7878(3) 0.50911(19)
H4 H 0.4533 0.7484 0.5284
C9 C 0.3965(3) 0.8742(3) 0.52193(17)
C10 C 0.4224(3) 0.9143(3) 0.56214(17)
C21 C 0.3119(3) 0.6256(3) 0.31697(16)
C22 C 0.2375(3) 0.6385(3) 0.3456(2)
H9 H 0.1909 0.5963 0.3459
C23 C 0.2310(4) 0.7121(4) 0.3733(2)
H10 H 0.1800 0.7194 0.3933
C24 C 0.2954(3) 0.7749(3) 0.37316(17)
C25 C 0.3661(3) 0.7632(3) 0.34386(18)
H11 H 0.4106 0.8074 0.3422
C26 C 0.3758(4) 0.6900(4) 0.31645(18)
H12 H 0.4273 0.6836 0.2968
C27 C 0.3247(4) 0.5425(3) 0.28895(17)
C28 C 0.5747(3) 0.7666(3) 0.66403(15)
C29 C 0.4829(3) 0.7641(3) 0.66471(16)
H13 H 0.4531 0.7287 0.6876
C30 C 0.4335(3) 0.8127(3) 0.63239(17)
H14 H 0.3698 0.8103 0.6334
C31 C 0.4741(3) 0.8644(3) 0.59893(16)
C32 C 0.5670(4) 0.8683(4) 0.6003(2)
H15 H 0.5968 0.9063 0.5787
C33 C 0.6173(3) 0.8195(4) 0.63169(18)
H16 H 0.6809 0.8223 0.6311
C34 C 0.6301(3) 0.7116(3) 0.69744(15)
N1 N 0.2266(2) 0.9969(2) 0.42180(12)
N2 N 0.3451(2) 0.9100(2) 0.48522(13)
O1 O 0.3995(2) 0.53305(19) 0.26897(11)
O2 O 0.2585(2) 0.4896(2) 0.28633(12)
O3 O 0.59384(18) 0.66434(18) 0.73004(9)
O4 O 0.7136(2) 0.7124(2) 0.69435(11)
O9 O 0.1893(4) 0.9759(3) 0.52579(18)
C56 C 0.5805(4) 0.7878(3) 0.99089(19)
H28 H 0.5467 0.7484 0.9716
C57 C 0.6035(3) 0.8742(3) 0.97807(17)
C58 C 0.5776(3) 0.9143(3) 0.93786(17)
C76 C 0.4253(3) 0.7666(3) 0.83597(15)
C77 C 0.5171(3) 0.7641(3) 0.83529(16)
H37 H 0.5469 0.7287 0.8124
C78 C 0.5665(3) 0.8127(3) 0.86761(17)
H38 H 0.6302 0.8103 0.8666
C79 C 0.5259(3) 0.8644(3) 0.90107(16)
C80 C 0.4330(4) 0.8683(4) 0.8997(2)
H39 H 0.4032 0.9063 0.9213
C81 C 0.3827(3) 0.8195(4) 0.86831(18)
H40 H 0.3191 0.8223 0.8689
C82 C 0.3699(3) 0.7116(3) 0.80256(15)
O12 O 0.40616(18) 0.66434(18) 0.76996(9)
O13 O 0.2864(2) 0.7124(2) 0.80565(11)
O18 O 0.8107(4) 0.9759(3) 0.97421(18)
O19 O 0.6005(2) 0.46695(19) 0.73103(11)
O20 O 0.3995(2) 0.46695(19) 0.76897(11)
O21 O 0.7415(2) 0.5104(2) 0.71367(12)
O22 O 0.2585(2) 0.5104(2) 0.78633(12)
O27 O 0.13045(19) 0.6445(2) 0.72765(10)
O28 O 0.86955(19) 0.6445(2) 0.77235(10)
O29 O 0.2271(2) 0.7381(2) 0.69713(11)
O30 O 0.7729(2) 0.7381(2) 0.80287(11)
C42 C 0.9250(3) 0.2466(3) 0.32631(15)
C46 C 0.9761(3) 0.1475(3) 0.38793(17)
H23 H 0.9626 0.1046 0.4115
C47 C 0.9061(3) 0.1846(3) 0.36128(18)
H24 H 0.8459 0.1676 0.3670
C48 C 0.8508(4) 0.2892(3) 0.29936(16)
O7 O 0.86955(19) 0.3555(2) 0.27235(10)
O8 O 0.7729(2) 0.2619(2) 0.30287(11)
C42_2 C 0.0750(3) 0.7534(3) 0.67369(15)
C46_2 C 0.0239(3) 0.8525(3) 0.61207(17)
H23_2 H 0.0374 0.8954 0.5885
C47_2 C 0.0939(3) 0.8154(3) 0.63872(18)
H24_2 H 0.1541 0.8324 0.6330
C48_2 C 0.1492(4) 0.7108(3) 0.70064(16)
C3_2 C 0.8190(4) 0.0725(3) 0.64745(18)
H2_2 H 0.8237 0.1145 0.6725
C4_2 C 0.7638(3) 0.0776(3) 0.60565(17)
C5_2 C 0.7115(3) 0.1480(3) 0.59284(17)
C6_2 C 0.6625(3) 0.1537(3) 0.55094(17)
C7_2 C 0.6146(4) 0.2293(3) 0.5351(2)
H3_2 H 0.6079 0.2821 0.5526
C8_2 C 0.5805(4) 0.2122(3) 0.49089(19)
H4_2 H 0.5467 0.2516 0.4716
C9_2 C 0.6035(3) 0.1258(3) 0.47807(17)
C10_2 C 0.5776(3) 0.0857(3) 0.43786(17)
C21_2 C 0.6881(3) 0.3744(3) 0.68303(16)
C22_2 C 0.7625(3) 0.3615(3) 0.6544(2)
H9_2 H 0.8091 0.4037 0.6541
C23_2 C 0.7690(4) 0.2879(4) 0.6267(2)
H10_2 H 0.8200 0.2806 0.6067
C24_2 C 0.7046(3) 0.2251(3) 0.62684(17)
C25_2 C 0.6339(3) 0.2368(3) 0.65614(18)
H11_2 H 0.5894 0.1926 0.6578
C26_2 C 0.6242(4) 0.3100(4) 0.68355(18)
H12_2 H 0.5727 0.3164 0.7032
C27_2 C 0.6753(4) 0.4575(3) 0.71105(17)
C28_2 C 0.4253(3) 0.2334(3) 0.33597(15)
C29_2 C 0.5171(3) 0.2359(3) 0.33529(16)
H13_2 H 0.5469 0.2713 0.3124
C30_2 C 0.5665(3) 0.1873(3) 0.36761(17)
H14_2 H 0.6302 0.1897 0.3666
C31_2 C 0.5259(3) 0.1356(3) 0.40107(16)
C32_2 C 0.4330(4) 0.1317(4) 0.3997(2)
H15_2 H 0.4032 0.0937 0.4213
C33_2 C 0.3827(3) 0.1805(4) 0.36831(18)
H16_2 H 0.3191 0.1777 0.3689
C34_2 C 0.3699(3) 0.2884(3) 0.30256(15)
N1_2 N 0.7734(2) 0.0031(2) 0.57820(12)
N2_2 N 0.6549(2) 0.0900(2) 0.51478(13)
O3_2 O 0.40616(18) 0.33566(18) 0.26996(9)
O4_2 O 0.2864(2) 0.2876(2) 0.30565(11)
O9_2 O 0.8107(4) 0.0241(3) 0.47421(18)
C56_2 C 0.4195(4) 0.2122(3) 0.00911(19)
H28_2 H 0.4533 0.2516 0.0284
C57_2 C 0.3965(3) 0.1258(3) 0.02193(17)
C58_2 C 0.4224(3) 0.0857(3) 0.06214(17)
C76_2 C 0.5747(3) 0.2334(3) 0.16403(15)
C77_2 C 0.4829(3) 0.2359(3) 0.16471(16)
H37_2 H 0.4531 0.2713 0.1876
C78_2 C 0.4335(3) 0.1873(3) 0.13239(17)
H38_2 H 0.3698 0.1897 0.1334
C79_2 C 0.4741(3) 0.1356(3) 0.09893(16)
C80_2 C 0.5670(4) 0.1317(4) 0.1003(2)
H39_2 H 0.5968 0.0937 0.0787
C81_2 C 0.6173(3) 0.1805(4) 0.13169(18)
H40_2 H 0.6809 0.1777 0.1311
C82_2 C 0.6301(3) 0.2884(3) 0.19744(15)
O12_2 O 0.59384(18) 0.33566(18) 0.23004(9)
O13_2 O 0.7136(2) 0.2876(2) 0.19435(11)
O18_2 O 0.1893(4) 0.0241(3) 0.02579(18)
O23 O 0.5525(2) 0.45520(19) 0.32273(10)
O24 O 0.4475(2) 0.45520(19) 0.17727(10)
O25 O 0.7012(2) 0.4440(2) 0.31604(11)
O26 O 0.2988(2) 0.4440(2) 0.18396(11)
C51_2 C 0.1810(4) 0.0725(3) 0.85255(18)
H26_2 H 0.1763 0.1145 0.8275
C52_2 C 0.2362(3) 0.0776(3) 0.89435(17)
C53_2 C 0.2885(3) 0.1480(3) 0.90716(17)
C54_2 C 0.3375(3) 0.1537(3) 0.94906(17)
C55_2 C 0.3854(4) 0.2293(3) 0.9649(2)
H27_2 H 0.3921 0.2821 0.9474
C69_2 C 0.3119(3) 0.3744(3) 0.81697(16)
C70_2 C 0.2375(3) 0.3615(3) 0.8456(2)
H33_2 H 0.1909 0.4037 0.8459
C71_2 C 0.2310(4) 0.2879(4) 0.8733(2)
H34_2 H 0.1800 0.2806 0.8933
C72_2 C 0.2954(3) 0.2251(3) 0.87316(17)
C73_2 C 0.3661(3) 0.2368(3) 0.84386(18)
H35_2 H 0.4106 0.1926 0.8422
C74_2 C 0.3758(4) 0.3100(4) 0.81645(18)
H36_2 H 0.4273 0.3164 0.7968
C75_2 C 0.3247(4) 0.4575(3) 0.78895(17)
N5_2 N 0.2266(2) 0.0031(2) 0.92180(12)
N6_2 N 0.3451(2) 0.0900(2) 0.98522(13)
C1_2 C 0.8364(3) 0.9523(3) 0.60196(16)
C2_2 C 0.8622(3) 0.9979(3) 0.64470(18)
H1_2 H 0.9045 0.9774 0.6678
C11_2 C 0.5941(3) 0.9947(3) 0.42828(16)
C12_2 C 0.5607(4) 0.9483(4) 0.38749(17)
H5_2 H 0.5261 0.9719 0.3618
C13_2 C 0.5871(4) 0.8651(4) 0.39202(19)
H6_2 H 0.5733 0.8186 0.3706
C14_2 C 0.6410(3) 0.8595(3) 0.43596(17)
C15_2 C 0.6847(3) 0.7863(3) 0.45103(17)
C16_2 C 0.7432(3) 0.7843(3) 0.48970(17)
C17_2 C 0.7949(4) 0.7100(3) 0.50408(19)
H7_2 H 0.7929 0.6536 0.4899
C18_2 C 0.8463(4) 0.7347(3) 0.54100(19)
H8_2 H 0.8885 0.6988 0.5575
C19_2 C 0.8278(3) 0.8245(3) 0.55197(18)
C20_2 C 0.8635(3) 0.8695(3) 0.59003(16)
C35_2 C 0.6442(3) 0.5554(3) 0.36383(15)
C36_2 C 0.5761(4) 0.5880(3) 0.39120(17)
H17_2 H 0.5189 0.5606 0.3908
C37_2 C 0.5909(4) 0.6630(4) 0.42028(18)
H18_2 H 0.5431 0.6845 0.4394
C38_2 C 0.6709(3) 0.7048(3) 0.42154(16)
C39_2 C 0.7391(4) 0.6696(4) 0.3939(2)
H19_2 H 0.7963 0.6969 0.3939
C40_2 C 0.7254(4) 0.5959(4) 0.36645(19)
H20_2 H 0.7742 0.5726 0.3488
C41_2 C 0.6307(4) 0.4793(3) 0.33175(16)
C43_2 C 0.9859(3) 0.7309(3) 0.68062(16)
H21_2 H 0.9715 0.6888 0.7045
C44_2 C 0.9175(3) 0.7679(3) 0.65387(16)
H22_2 H 0.8571 0.7512 0.6597
C45_2 C 0.9356(3) 0.8287(3) 0.61896(14)
Mn1_2 Mn 0.72386(4) 0.97811(4) 0.51170(2)
N3_2 N 0.6444(2) 0.9399(2) 0.45759(12)
N4_2 N 0.7635(2) 0.8548(2) 0.51917(12)
C59_2 C 0.4059(3) 0.9947(3) 0.07172(16)
C60_2 C 0.4393(4) 0.9483(4) 0.11251(17)
H29_2 H 0.4739 0.9719 0.1382
C61_2 C 0.4129(4) 0.8651(4) 0.10798(19)
H30_2 H 0.4267 0.8186 0.1294
C62_2 C 0.3590(3) 0.8595(3) 0.06404(17)
C63_2 C 0.3153(3) 0.7863(3) 0.04897(17)
C64_2 C 0.2568(3) 0.7843(3) 0.01030(17)
H31_2 H 0.2071 0.6536 0.0101
C83_2 C 0.3558(3) 0.5554(3) 0.13617(15)
C84_2 C 0.4239(4) 0.5880(3) 0.10880(17)
H41_2 H 0.4811 0.5606 0.1092
C85_2 C 0.4091(4) 0.6630(4) 0.07972(18)
H42_2 H 0.4569 0.6845 0.0606
C86_2 C 0.3291(3) 0.7048(3) 0.07846(16)
C87_2 C 0.2609(4) 0.6696(4) 0.1061(2)
H43_2 H 0.2037 0.6969 0.1061
C88_2 C 0.2746(4) 0.5959(4) 0.13355(19)
H44_2 H 0.2258 0.5726 0.1512
C89_2 C 0.3693(4) 0.4793(3) 0.16825(16)
N7_2 N 0.3556(2) 0.9399(2) 0.04241(12)
C90_2 C 0.9250(3) 0.7534(3) 0.82631(15)
C94_2 C 0.9761(3) 0.8525(3) 0.88793(17)
H47_2 H 0.9626 0.8954 0.9115
C95_2 C 0.9061(3) 0.8154(3) 0.86128(18)
H48_2 H 0.8459 0.8324 0.8670
C96_2 C 0.8508(4) 0.7108(3) 0.79936(16)
C49 C 0.8364(3) 0.0477(3) 0.10196(16)
C50 C 0.8622(3) 0.0021(3) 0.14470(18)
H25 H 0.9045 0.0226 0.1678
C65 C 0.7949(4) 0.2900(3) 0.00408(19)
C66 C 0.8463(4) 0.2653(3) 0.04100(19)
H32 H 0.8885 0.3012 0.0575
C67 C 0.8278(3) 0.1755(3) 0.05197(18)
C68 C 0.8635(3) 0.1305(3) 0.09003(16)
C91 C 0.9859(3) 0.2691(3) 0.18062(16)
H45 H 0.9715 0.3112 0.2045
C92 C 0.9175(3) 0.2321(3) 0.15387(16)
H46 H 0.8571 0.2488 0.1597
C93 C 0.9356(3) 0.1713(3) 0.11896(14)
Mn2 Mn 0.72386(4) 0.02189(4) 0.01170(2)
N8 N 0.7635(2) 0.1452(2) 0.01917(12)
C49_2 C 0.1636(3) 0.9523(3) 0.89804(16)
C50_2 C 0.1378(3) 0.9979(3) 0.85530(18)
H25_2 H 0.0955 0.9774 0.8322
C65_2 C 0.2051(4) 0.7100(3) 0.99592(19)
C66_2 C 0.1537(4) 0.7347(3) 0.95900(19)
H32_2 H 0.1115 0.6988 0.9425
C67_2 C 0.1722(3) 0.8245(3) 0.94803(18)
C68_2 C 0.1365(3) 0.8695(3) 0.90997(16)
C91_2 C 0.0141(3) 0.7309(3) 0.81938(16)
H45_2 H 0.0285 0.6888 0.7955
C92_2 C 0.0825(3) 0.7679(3) 0.84613(16)
H46_2 H 0.1429 0.7512 0.8403
C93_2 C 0.0644(3) 0.8287(3) 0.88104(14)
Mn2_2 Mn 0.27614(4) 0.97811(4) 0.98830(2)
N8_2 N 0.2365(2) 0.8548(2) 0.98083(12)
loop_
_geom_bond_atom_site_label_1
_geom_bond_atom_site_label_2
_geom_bond_site_symmetry_1
_geom_bond_site_symmetry_2
H47 C94 1_555 1_555
C95 C90 1_555 1_555
H48 C95 1_555 1_555
C96 C90 1_555 1_555
O16 C96 1_555 1_555
O17 C96 1_555 1_555
Fe10 O16 1_555 1_555
C94 C95 1_555 1_555
O17 Fe10 1_555 1_555
C1 C2 1_555 1_555
C2 H1 1_555 1_555
C12 C11 1_555 1_555
H5 C12 1_555 1_555
C13 C12 1_555 1_555
H6 C13 1_555 1_555
C14 C13 1_555 1_555
C15 C14 1_555 1_555
C16 C15 1_555 1_555
C17 C16 1_555 1_555
H7 C17 1_555 1_555
C18 C17 1_555 1_555
H8 C18 1_555 1_555
C19 C18 1_555 1_555
C20 C1 1_555 1_555
C35 C36 1_555 1_555
C36 H17 1_555 1_555
C37 C36 1_555 1_555
H18 C37 1_555 1_555
C38 C15 1_555 1_555
C39 C38 1_555 1_555
H19 C39 1_555 1_555
C40 C35 1_555 1_555
H20 C40 1_555 1_555
C41 C35 1_555 1_555
C43 H21 1_555 1_555
C44 C43 1_555 1_555
H22 C44 1_555 1_555
C45 C20 1_555 1_555
N3 C11 1_555 1_555
N4 C16 1_555 1_555
O5 C41 1_555 1_555
O6 C41 1_555 1_555
C60 C59 1_555 1_555
H29 C60 1_555 1_555
C61 C60 1_555 1_555
H30 C61 1_555 1_555
C62 C61 1_555 1_555
C63 C62 1_555 1_555
C64 C63 1_555 1_555
C83 C84 1_555 1_555
C84 H41 1_555 1_555
C85 C84 1_555 1_555
H42 C85 1_555 1_555
C86 C63 1_555 1_555
C87 C86 1_555 1_555
H43 C87 1_555 1_555
C88 C83 1_555 1_555
H44 C88 1_555 1_555
C89 C83 1_555 1_555
N7 C59 1_555 1_555
O14 C89 1_555 1_555
O15 C89 1_555 1_555
Fe4 O5 1_555 1_555
Fe7 O15 1_555 1_555
Fe8 O6 1_555 1_555
C14 N3 1_555 1_555
C19 C20 1_555 1_555
C19 N4 1_555 1_555
C37 C38 1_555 1_555
C39 C40 1_555 1_555
C44 C45 1_555 1_555
Mn1 N3 1_555 1_555
Mn1 N4 1_555 1_555
C62 N7 1_555 1_555
C85 C86 1_555 1_555
C87 C88 1_555 1_555
O14 Fe4 1_555 1_555
H26 C51 1_555 1_555
C52 C51 1_555 1_555
C53 C52 1_555 1_555
C54 C53 1_555 1_555
C55 C54 1_555 1_555
H27 C55 1_555 1_555
C69 C70 1_555 1_555
C70 H33 1_555 1_555
C71 C70 1_555 1_555
H34 C71 1_555 1_555
C72 C53 1_555 1_555
C73 C72 1_555 1_555
H35 C73 1_555 1_555
C74 C69 1_555 1_555
H36 C74 1_555 1_555
C75 C69 1_555 1_555
N6 C54 1_555 1_555
O10 C75 1_555 1_555
O11 C75 1_555 1_555
Fe6 O10 1_555 1_555
Fe12 O11 1_555 1_555
C52 N5 1_555 1_555
C71 C72 1_555 1_555
C73 C74 1_555 1_555
H2 C3 1_555 1_555
C4 C3 1_555 1_555
C5 C4 1_555 1_555
C6 C5 1_555 1_555
C7 C6 1_555 1_555
H3 C7 1_555 1_555
C8 C7 1_555 1_555
H4 C8 1_555 1_555
C9 C8 1_555 1_555
C10 C9 1_555 1_555
C21 C22 1_555 1_555
C22 H9 1_555 1_555
C23 C22 1_555 1_555
H10 C23 1_555 1_555
C24 C5 1_555 1_555
C25 C24 1_555 1_555
H11 C25 1_555 1_555
C26 C21 1_555 1_555
H12 C26 1_555 1_555
C27 C21 1_555 1_555
C28 C29 1_555 1_555
C29 H13 1_555 1_555
C30 C29 1_555 1_555
H14 C30 1_555 1_555
C31 C10 1_555 1_555
C32 C31 1_555 1_555
H15 C32 1_555 1_555
C33 C28 1_555 1_555
H16 C33 1_555 1_555
C34 C28 1_555 1_555
Fe4 O3 1_555 1_555
Fe7 O3 1_555 1_555
N2 C6 1_555 1_555
O1 C27 1_555 1_555
O2 C27 1_555 1_555
O3 C34 1_555 1_555
O4 C34 1_555 1_555
H28 C56 1_555 1_555
C57 C56 1_555 1_555
C58 C57 1_555 1_555
C76 C77 1_555 1_555
C77 H37 1_555 1_555
C78 C77 1_555 1_555
H38 C78 1_555 1_555
C79 C58 1_555 1_555
C80 C79 1_555 1_555
H39 C80 1_555 1_555
C81 C76 1_555 1_555
H40 C81 1_555 1_555
C82 C76 1_555 1_555
Fe8 O12 1_555 1_555
O12 Fe4 1_555 1_555
O13 C82 1_555 1_555
Fe6 O1 1_555 1_555
Fe10 O2 1_555 1_555
O19 Fe4 1_555 1_555
O20 Fe4 1_555 1_555
O21 Fe7 1_555 1_555
O22 Fe8 1_555 1_555
O27 Fe8 1_555 1_555
O28 Fe7 1_555 1_555
O29 Fe8 1_555 1_555
O30 Fe7 1_555 1_555
C4 N1 1_555 1_555
C9 N2 1_555 1_555
C23 C24 1_555 1_555
C25 C26 1_555 1_555
C30 C31 1_555 1_555
C32 C33 1_555 1_555
Fe7 O4 1_555 1_555
C78 C79 1_555 1_555
C80 C81 1_555 1_555
C82 O12 1_555 1_555
Fe8 O13 1_555 1_555
H23 C46 1_555 1_555
C47 C42 1_555 1_555
H24 C47 1_555 1_555
C48 C42 1_555 1_555
O7 C48 1_555 1_555
O8 C48 1_555 1_555
Fe12 O7 1_555 1_555
C46 C47 1_555 1_555
O8 Fe12 1_555 1_555
H23_2 C46_2 1_555 1_555
C47_2 C42_2 1_555 1_555
H24_2 C47_2 1_555 1_555
C48_2 C42_2 1_555 1_555
O27 C48_2 1_555 1_555
O29 C48_2 1_555 1_555
C46_2 C47_2 1_555 1_555
H2_2 C3_2 1_555 1_555
C4_2 C3_2 1_555 1_555
C5_2 C4_2 1_555 1_555
C6_2 C5_2 1_555 1_555
C7_2 C6_2 1_555 1_555
H3_2 C7_2 1_555 1_555
C8_2 C7_2 1_555 1_555
H4_2 C8_2 1_555 1_555
C9_2 C8_2 1_555 1_555
C10_2 C9_2 1_555 1_555
C21_2 C22_2 1_555 1_555
C22_2 H9_2 1_555 1_555
C23_2 C22_2 1_555 1_555
H10_2 C23_2 1_555 1_555
C24_2 C5_2 1_555 1_555
C25_2 C24_2 1_555 1_555
H11_2 C25_2 1_555 1_555
C26_2 C21_2 1_555 1_555
H12_2 C26_2 1_555 1_555
C27_2 C21_2 1_555 1_555
C28_2 C29_2 1_555 1_555
C29_2 H13_2 1_555 1_555
C30_2 C29_2 1_555 1_555
H14_2 C30_2 1_555 1_555
C31_2 C10_2 1_555 1_555
C32_2 C31_2 1_555 1_555
H15_2 C32_2 1_555 1_555
C33_2 C28_2 1_555 1_555
H16_2 C33_2 1_555 1_555
C34_2 C28_2 1_555 1_555
Fe6 O3_2 1_555 1_555
Fe10 O3_2 1_555 1_555
N2_2 C6_2 1_555 1_555
O19 C27_2 1_555 1_555
O21 C27_2 1_555 1_555
O3_2 C34_2 1_555 1_555
O4_2 C34_2 1_555 1_555
H28_2 C56_2 1_555 1_555
C57_2 C56_2 1_555 1_555
C58_2 C57_2 1_555 1_555
C76_2 C77_2 1_555 1_555
C77_2 H37_2 1_555 1_555
C78_2 C77_2 1_555 1_555
H38_2 C78_2 1_555 1_555
C79_2 C58_2 1_555 1_555
C80_2 C79_2 1_555 1_555
H39_2 C80_2 1_555 1_555
C81_2 C76_2 1_555 1_555
H40_2 C81_2 1_555 1_555
C82_2 C76_2 1_555 1_555
Fe12 O12_2 1_555 1_555
O12_2 Fe6 1_555 1_555
O13_2 C82_2 1_555 1_555
O23 Fe6 1_555 1_555
O24 Fe6 1_555 1_555
O25 Fe12 1_555 1_555
O26 Fe10 1_555 1_555
C4_2 N1_2 1_555 1_555
C9_2 N2_2 1_555 1_555
C23_2 C24_2 1_555 1_555
C25_2 C26_2 1_555 1_555
C30_2 C31_2 1_555 1_555
C32_2 C33_2 1_555 1_555
Fe10 O4_2 1_555 1_555
C78_2 C79_2 1_555 1_555
C80_2 C81_2 1_555 1_555
C82_2 O12_2 1_555 1_555
Fe12 O13_2 1_555 1_555
H26_2 C51_2 1_555 1_555
C52_2 C51_2 1_555 1_555
C53_2 C52_2 1_555 1_555
C54_2 C53_2 1_555 1_555
C55_2 C54_2 1_555 1_555
H27_2 C55_2 1_555 1_555
C69_2 C70_2 1_555 1_555
C70_2 H33_2 1_555 1_555
C71_2 C70_2 1_555 1_555
H34_2 C71_2 1_555 1_555
C72_2 C53_2 1_555 1_555
C73_2 C72_2 1_555 1_555
H35_2 C73_2 1_555 1_555
C74_2 C69_2 1_555 1_555
H36_2 C74_2 1_555 1_555
C75_2 C69_2 1_555 1_555
N6_2 C54_2 1_555 1_555
O20 C75_2 1_555 1_555
O22 C75_2 1_555 1_555
C52_2 N5_2 1_555 1_555
C71_2 C72_2 1_555 1_555
C73_2 C74_2 1_555 1_555
C1_2 C2_2 1_555 1_555
C2_2 H1_2 1_555 1_555
C12_2 C11_2 1_555 1_555
H5_2 C12_2 1_555 1_555
C13_2 C12_2 1_555 1_555
H6_2 C13_2 1_555 1_555
C14_2 C13_2 1_555 1_555
C15_2 C14_2 1_555 1_555
C16_2 C15_2 1_555 1_555
C17_2 C16_2 1_555 1_555
H7_2 C17_2 1_555 1_555
C18_2 C17_2 1_555 1_555
H8_2 C18_2 1_555 1_555
C19_2 C18_2 1_555 1_555
C20_2 C1_2 1_555 1_555
C35_2 C36_2 1_555 1_555
C36_2 H17_2 1_555 1_555
C37_2 C36_2 1_555 1_555
H18_2 C37_2 1_555 1_555
C38_2 C15_2 1_555 1_555
C39_2 C38_2 1_555 1_555
H19_2 C39_2 1_555 1_555
C40_2 C35_2 1_555 1_555
H20_2 C40_2 1_555 1_555
C41_2 C35_2 1_555 1_555
C43_2 H21_2 1_555 1_555
C44_2 C43_2 1_555 1_555
H22_2 C44_2 1_555 1_555
C45_2 C20_2 1_555 1_555
N3_2 C11_2 1_555 1_555
N4_2 C16_2 1_555 1_555
O23 C41_2 1_555 1_555
O25 C41_2 1_555 1_555
C60_2 C59_2 1_555 1_555
H29_2 C60_2 1_555 1_555
C61_2 C60_2 1_555 1_555
H30_2 C61_2 1_555 1_555
C62_2 C61_2 1_555 1_555
C63_2 C62_2 1_555 1_555
C64_2 C63_2 1_555 1_555
C83_2 C84_2 1_555 1_555
C84_2 H41_2 1_555 1_555
C85_2 C84_2 1_555 1_555
H42_2 C85_2 1_555 1_555
C86_2 C63_2 1_555 1_555
C87_2 C86_2 1_555 1_555
H43_2 C87_2 1_555 1_555
C88_2 C83_2 1_555 1_555
H44_2 C88_2 1_555 1_555
C89_2 C83_2 1_555 1_555
N7_2 C59_2 1_555 1_555
O24 C89_2 1_555 1_555
O26 C89_2 1_555 1_555
C14_2 N3_2 1_555 1_555
C19_2 C20_2 1_555 1_555
C19_2 N4_2 1_555 1_555
C37_2 C38_2 1_555 1_555
C39_2 C40_2 1_555 1_555
C44_2 C45_2 1_555 1_555
Mn1_2 N3_2 1_555 1_555
Mn1_2 N4_2 1_555 1_555
C62_2 N7_2 1_555 1_555
C85_2 C86_2 1_555 1_555
C87_2 C88_2 1_555 1_555
H47_2 C94_2 1_555 1_555
C95_2 C90_2 1_555 1_555
H48_2 C95_2 1_555 1_555
C96_2 C90_2 1_555 1_555
O28 C96_2 1_555 1_555
O30 C96_2 1_555 1_555
C94_2 C95_2 1_555 1_555
C49 C50 1_555 1_555
C50 H25 1_555 1_555
C66 C65 1_555 1_555
H32 C66 1_555 1_555
C67 C66 1_555 1_555
C68 C49 1_555 1_555
C91 H45 1_555 1_555
C92 C91 1_555 1_555
H46 C92 1_555 1_555
C93 C68 1_555 1_555
C67 C68 1_555 1_555
C67 N8 1_555 1_555
C92 C93 1_555 1_555
Mn2 N8 1_555 1_555
C49_2 C50_2 1_555 1_555
C50_2 H25_2 1_555 1_555
C66_2 C65_2 1_555 1_555
H32_2 C66_2 1_555 1_555
C67_2 C66_2 1_555 1_555
C68_2 C49_2 1_555 1_555
C91_2 H45_2 1_555 1_555
C92_2 C91_2 1_555 1_555
H46_2 C92_2 1_555 1_555
C93_2 C68_2 1_555 1_555
C67_2 C68_2 1_555 1_555
C67_2 N8_2 1_555 1_555
C92_2 C93_2 1_555 1_555
Mn2_2 N8_2 1_555 1_555

#END
