
###############################################################################
#
# This file contains modified crystal structure data generated from the
# MOF subset of the Cambridge Structural Database (CSD) v543 
# hosted by the Cambridge Crystallographic Data Centre (CCDC).
#
# This work is licensed under the Creative Commons
# Attribution-NonCommercial-ShareAlike 4.0 International License.
# To view a copy of this license, visit
# http://creativecommons.org/licenses/by-nc-sa/4.0/
# or send a letter to
# Creative Commons, PO Box 1866, Mountain View, CA 94042, USA.
#
# CIF created using the CSD Python API on 29 September 2022
# The structure has been converted into the P1 space group
# The structure has a 3D framework
# The original CSD entry KUFVEO is in the monoclinic crystal system
# The framework has been calculated to contain at least 10.0% void space
# The void calculation uses a probe of radius 1.32A, grid spacing 0.4
#
###############################################################################

data_KUFVEO
_chemical_formula_moiety         '(C116 H84 Mn6 N12 O36)n'
_symmetry_cell_setting           triclinic
_symmetry_space_group_name_H-M   'P 1'
_symmetry_Int_Tables_number      1
_space_group_name_Hall           'P 1'
loop_
_symmetry_equiv_pos_site_id
_symmetry_equiv_pos_as_xyz
1 x,y,z
_cell_length_a                   13.288(2)
_cell_length_b                   13.919(2)
_cell_length_c                   18.477(3)
_cell_angle_alpha                90
_cell_angle_beta                 96.318(3)
_cell_angle_gamma                90
_cell_volume                     3396.67
loop_
_atom_site_label
_atom_site_type_symbol
_atom_site_fract_x
_atom_site_fract_y
_atom_site_fract_z
Mn2 Mn 0.06664(5) 0.20730(4) 0.36906(3)
C1 C 0.1655(3) 0.0103(3) 0.3382(2)
C25 C 0.0376(7) 0.1265(6) 0.5979(4)
H13 H 0.0581 0.0744 0.6274
C26 C 0.0482(5) 0.1255(5) 0.5255(3)
H14 H 0.0770 0.0715 0.5064
C27 C 0.3646(7) 0.3598(8) 0.5098(6)
H15 H 0.3520 0.2919 0.5068
H16 H 0.3454 0.3839 0.5550
H17 H 0.4354 0.3718 0.5075
C28 C 0.3329(7) 0.5065(6) 0.4319(6)
H18 H 0.3256 0.5477 0.4726
H19 H 0.2888 0.5279 0.3904
H20 H 0.4018 0.5084 0.4208
C29 C 0.2265(5) 0.3656(5) 0.4114(3)
H21 H 0.1912 0.4009 0.3741
N2 N 0.0205(3) 0.1957(3) 0.4816(2)
N3 N 0.3063(4) 0.4075(4) 0.4501(3)
O1 O 0.1501(3) 0.0765(2) 0.38142(17)
O2 O 0.1280(3) 0.0053(2) 0.27203(16)
O9 O 0.1979(3) 0.2856(3) 0.4221(2)
O10 O 0.1003(3) 0.2597(2) 0.26534(17)
O11 O 0.0481(3) 0.1686(2) 0.16993(16)
C2 C 0.2328(3) 0.9289(3) 0.3671(2)
C3 C 0.2854(3) 0.8743(3) 0.3211(2)
H1 H 0.2814 0.8893 0.2718
C4 C 0.3435(3) 0.7979(3) 0.3483(2)
C5 C 0.3459(3) 0.7738(3) 0.4216(2)
H2 H 0.3843 0.7214 0.4394
C6 C 0.2922(3) 0.8266(3) 0.4691(2)
C7 C 0.2385(3) 0.9060(3) 0.4403(2)
H3 H 0.2055 0.9449 0.4712
C8 C 0.4032(4) 0.7375(3) 0.3002(2)
C9 C 0.2836(3) 0.7382(3) 0.6917(2)
H4 H 0.2835 0.7208 0.7403
C10 C 0.2231(3) 0.8112(3) 0.6633(2)
C11 C 0.2250(3) 0.8397(3) 0.5915(2)
H5 H 0.1820 0.8883 0.5725
C12 C 0.2910(3) 0.7961(3) 0.5473(2)
C13 C 0.3478(3) 0.7200(3) 0.5759(2)
H6 H 0.3892 0.6878 0.5465
C14 C 0.3460(3) 0.6894(3) 0.6475(2)
C15 C 0.4015(3) 0.6019(3) 0.6750(2)
C16 C 0.1492(4) 0.8561(3) 0.7086(2)
O3 O 0.3997(3) 0.7597(2) 0.23466(17)
O4 O 0.4519(3) 0.6686(2) 0.33007(16)
O5 O 0.4450(3) 0.5498(2) 0.63239(17)
O6 O 0.4033(3) 0.5804(2) 0.74129(17)
O7 O 0.0621(2) 0.88240(19) 0.67677(15)
O8 O 0.1706(3) 0.8668(3) 0.77530(16)
Mn3 Mn 0.51295(5) 0.55414(4) 0.27741(3)
Mn4 Mn 0.01295(5) 0.94586(4) 0.77741(3)
Mn5 Mn 0.48705(5) 0.44586(4) 0.72259(3)
Mn6 Mn 0.43336(5) 0.70730(4) 0.13094(3)
Mn1 Mn 0.98705(5) 0.05414(4) 0.22259(3)
C17 C 0.9370(5) 0.4035(4) 0.3370(4)
H7 H 0.9536 0.3954 0.2898
C18 C 0.8796(5) 0.4825(5) 0.3505(5)
H8 H 0.8569 0.5249 0.3134
C19 C 0.8576(7) 0.4963(6) 0.4184(6)
H9 H 0.8213 0.5504 0.4298
C20 C 0.8882(6) 0.4315(5) 0.4706(5)
H10 H 0.8718 0.4402 0.5178
C21 C 0.9435(5) 0.3528(4) 0.4540(3)
C22 C 0.9761(5) 0.2776(4) 0.5072(3)
C23 C 0.9625(6) 0.2846(5) 0.5822(3)
H11 H 0.9331 0.3384 0.6011
C24 C 0.9955(7) 0.2068(6) 0.6262(4)
H12 H 0.9890 0.2091 0.6758
N1 N 0.9702(3) 0.3382(3) 0.3857(2)
O14 O 0.9379(2) 0.11760(19) 0.32323(15)
O15 O 0.8294(3) 0.1332(3) 0.22470(16)
Mn7 Mn 0.93336(5) 0.79270(4) 0.63094(3)
O12 O 0.9450(3) 0.9502(2) 0.13239(17)
O13 O 0.9033(3) 0.9196(2) 0.24129(17)
C1_2 C 0.3345(3) 0.5103(3) 0.1618(2)
C2_2 C 0.2672(3) 0.4289(3) 0.1329(2)
C3_2 C 0.2146(3) 0.3743(3) 0.1789(2)
H1_2 H 0.2186 0.3893 0.2282
C4_2 C 0.1565(3) 0.2979(3) 0.1517(2)
C5_2 C 0.1541(3) 0.2738(3) 0.0784(2)
H2_2 H 0.1157 0.2214 0.0606
C6_2 C 0.2078(3) 0.3266(3) 0.0309(2)
C7_2 C 0.2615(3) 0.4060(3) 0.0597(2)
H3_2 H 0.2945 0.4449 0.0288
C8_2 C 0.0968(4) 0.2375(3) 0.1998(2)
C17_2 C 0.5630(5) 0.9035(4) 0.1630(4)
H7_2 H 0.5464 0.8954 0.2102
C18_2 C 0.6204(5) 0.9825(5) 0.1495(5)
C19_2 C 0.6424(7) 0.9963(6) 0.0816(6)
C20_2 C 0.6118(6) 0.9315(5) 0.0294(5)
C21_2 C 0.5565(5) 0.8528(4) 0.0460(3)
C29_2 C 0.2735(5) 0.8656(5) 0.0886(3)
H21_2 H 0.3088 0.9009 0.1259
N1_2 N 0.5298(3) 0.8382(3) 0.1143(2)
N2_2 N 0.4795(3) 0.6957(3) 0.0184(2)
N3_2 N 0.1937(4) 0.9075(4) 0.0499(3)
O1_2 O 0.3499(3) 0.5765(2) 0.11858(17)
O2_2 O 0.3720(3) 0.5053(2) 0.22797(16)
O9_2 O 0.3021(3) 0.7856(3) 0.0779(2)
O12_2 O 0.5550(3) 0.4502(2) 0.36761(17)
O13_2 O 0.5967(3) 0.4196(2) 0.25871(17)
O14_2 O 0.5621(2) 0.61760(19) 0.17677(15)
O15_2 O 0.6706(3) 0.6332(3) 0.27530(16)
C9_2 C 0.2164(3) 0.2382(3) 0.8083(2)
H4_2 H 0.2165 0.2208 0.7597
C10_2 C 0.2769(3) 0.3112(3) 0.8367(2)
C11_2 C 0.2750(3) 0.3397(3) 0.9085(2)
H5_2 H 0.3180 0.3883 0.9275
C12_2 C 0.2090(3) 0.2961(3) 0.9527(2)
C13_2 C 0.1522(3) 0.2200(3) 0.9241(2)
H6_2 H 0.1108 0.1878 0.9535
C14_2 C 0.1540(3) 0.1894(3) 0.8525(2)
C15_2 C 0.0985(3) 0.1019(3) 0.8250(2)
C16_2 C 0.3508(4) 0.3561(3) 0.7914(2)
H10_2 H 0.6282 0.9402 0.9822
C22_2 C 0.5239(5) 0.7776(4) 0.9928(3)
C23_2 C 0.5375(6) 0.7846(5) 0.9178(3)
H11_2 H 0.5669 0.8384 0.8989
C24_2 C 0.5045(7) 0.7068(6) 0.8738(4)
H12_2 H 0.5110 0.7091 0.8242
C25_2 C 0.4624(7) 0.6265(6) 0.9021(4)
H13_2 H 0.4419 0.5744 0.8726
C26_2 C 0.4518(5) 0.6255(5) 0.9745(3)
H14_2 H 0.4230 0.5715 0.9936
C27_2 C 0.1354(7) 0.8598(8) 0.9902(6)
H15_2 H 0.1480 0.7919 0.9932
H16_2 H 0.1546 0.8839 0.9450
H17_2 H 0.0646 0.8718 0.9925
O5_2 O 0.0550(3) 0.0498(2) 0.86761(17)
O6_2 O 0.0967(3) 0.0804(2) 0.75871(17)
O7_2 O 0.4379(2) 0.38240(19) 0.82323(15)
O8_2 O 0.3294(3) 0.3668(3) 0.72470(16)
Mn7_2 Mn 0.56664(5) 0.29270(4) 0.86906(3)
C17_3 C 0.0630(5) 0.5965(4) 0.6630(4)
H7_3 H 0.0464 0.6046 0.7102
C18_3 C 0.1204(5) 0.5175(5) 0.6495(5)
H8_2 H 0.1431 0.4751 0.6866
C19_3 C 0.1424(7) 0.5037(6) 0.5816(6)
H9_2 H 0.1787 0.4496 0.5702
C20_3 C 0.1118(6) 0.5685(5) 0.5294(5)
H10_3 H 0.1282 0.5598 0.4822
C21_3 C 0.0565(5) 0.6472(4) 0.5460(3)
C22_3 C 0.0239(5) 0.7224(4) 0.4928(3)
C23_3 C 0.0375(6) 0.7154(5) 0.4178(3)
H11_3 H 0.0669 0.6616 0.3989
C24_3 C 0.0045(7) 0.7932(6) 0.3738(4)
H12_3 H 0.0110 0.7909 0.3242
N1_3 N 0.0298(3) 0.6618(3) 0.6143(2)
C2_3 C 0.7672(3) 0.0711(3) 0.6329(2)
C3_3 C 0.7146(3) 0.1257(3) 0.6789(2)
H1_3 H 0.7186 0.1107 0.7282
C4_3 C 0.6565(3) 0.2021(3) 0.6517(2)
C5_3 C 0.6541(3) 0.2262(3) 0.5784(2)
H2_3 H 0.6157 0.2786 0.5606
C6_3 C 0.7078(3) 0.1734(3) 0.5309(2)
C7_3 C 0.7615(3) 0.0940(3) 0.5597(2)
H3_3 H 0.7945 0.0551 0.5288
C8_3 C 0.5968(4) 0.2625(3) 0.6998(2)
C9_3 C 0.7164(3) 0.2618(3) 0.3083(2)
H4_3 H 0.7165 0.2792 0.2597
C10_3 C 0.7769(3) 0.1888(3) 0.3367(2)
C11_3 C 0.7750(3) 0.1603(3) 0.4085(2)
H5_3 H 0.8180 0.1117 0.4275
C12_3 C 0.7090(3) 0.2039(3) 0.4527(2)
C13_3 C 0.6522(3) 0.2800(3) 0.4241(2)
H6_3 H 0.6108 0.3122 0.4535
C14_3 C 0.6540(3) 0.3106(3) 0.3525(2)
C15_3 C 0.5985(3) 0.3981(3) 0.3250(2)
C16_3 C 0.8508(4) 0.1439(3) 0.2914(2)
O3_2 O 0.6003(3) 0.2403(2) 0.76534(17)
O4_2 O 0.5481(3) 0.3314(2) 0.66993(16)
C1_3 C 0.8345(3) 0.9897(3) 0.6618(2)
C25_3 C 0.9624(7) 0.8735(6) 0.4021(4)
H13_3 H 0.9419 0.9256 0.3726
C26_3 C 0.9518(5) 0.8745(5) 0.4745(3)
H14_3 H 0.9230 0.9285 0.4936
C27_3 C 0.6354(7) 0.6402(8) 0.4902(6)
H15_3 H 0.6480 0.7081 0.4932
H16_3 H 0.6546 0.6161 0.4450
H17_3 H 0.5646 0.6282 0.4925
C28_2 C 0.6671(7) 0.4935(6) 0.5681(6)
H18_2 H 0.6744 0.4523 0.5274
H19_2 H 0.7112 0.4721 0.6096
H20_2 H 0.5982 0.4916 0.5792
C29_3 C 0.7735(5) 0.6344(5) 0.5886(3)
H21_3 H 0.8088 0.5991 0.6259
N2_3 N 0.9795(3) 0.8043(3) 0.5184(2)
N3_3 N 0.6937(4) 0.5925(4) 0.5499(3)
O1_3 O 0.8499(3) 0.9235(2) 0.61858(17)
O2_3 O 0.8720(3) 0.9947(2) 0.72797(16)
O9_3 O 0.8021(3) 0.7144(3) 0.5779(2)
O10_2 O 0.8997(3) 0.7403(2) 0.73466(17)
O11_2 O 0.9519(3) 0.8314(2) 0.83007(16)
C9_4 C 0.7836(3) 0.7618(3) 0.1917(2)
H4_4 H 0.7835 0.7792 0.2403
C10_4 C 0.7231(3) 0.6888(3) 0.1633(2)
C11_4 C 0.7250(3) 0.6603(3) 0.0915(2)
H5_4 H 0.6820 0.6117 0.0725
C12_4 C 0.7910(3) 0.7039(3) 0.0473(2)
C13_4 C 0.8478(3) 0.7800(3) 0.0759(2)
H6_4 H 0.8892 0.8122 0.0465
C14_4 C 0.8460(3) 0.8106(3) 0.1475(2)
C15_4 C 0.9015(3) 0.8981(3) 0.1750(2)
C16_4 C 0.6492(4) 0.6439(3) 0.2086(2)
H10_4 H 0.3718 0.0598 0.0178
C22_4 C 0.4761(5) 0.2224(4) 0.0072(3)
C23_4 C 0.4625(6) 0.2154(5) 0.0822(3)
H11_4 H 0.4331 0.1616 0.1011
C24_4 C 0.4955(7) 0.2932(6) 0.1262(4)
H12_4 H 0.4890 0.2909 0.1758
C25_4 C 0.5376(7) 0.3735(6) 0.0979(4)
H13_4 H 0.5581 0.4256 0.1274
C26_4 C 0.5482(5) 0.3745(5) 0.0255(3)
H14_4 H 0.5770 0.4285 0.0064
C27_4 C 0.8646(7) 0.1402(8) 0.0098(6)
H15_4 H 0.8520 0.2081 0.0068
H16_4 H 0.8454 0.1161 0.0550
H17_4 H 0.9354 0.1282 0.0075
C1_4 C 0.6655(3) 0.4897(3) 0.8382(2)
C2_4 C 0.7328(3) 0.5711(3) 0.8671(2)
C3_4 C 0.7854(3) 0.6257(3) 0.8211(2)
H1_4 H 0.7814 0.6107 0.7718
C4_4 C 0.8435(3) 0.7021(3) 0.8483(2)
C5_4 C 0.8459(3) 0.7262(3) 0.9216(2)
H2_4 H 0.8843 0.7786 0.9394
C6_4 C 0.7922(3) 0.6734(3) 0.9691(2)
C7_4 C 0.7385(3) 0.5940(3) 0.9403(2)
H3_4 H 0.7055 0.5551 0.9712
C8_4 C 0.9032(4) 0.7625(3) 0.8002(2)
C17_4 C 0.4370(5) 0.0965(4) 0.8370(4)
H7_4 H 0.4536 0.1046 0.7898
C18_4 C 0.3796(5) 0.0175(5) 0.8505(5)
C19_4 C 0.3576(7) 0.0037(6) 0.9184(6)
C20_4 C 0.3882(6) 0.0685(5) 0.9706(5)
C21_4 C 0.4435(5) 0.1472(4) 0.9540(3)
C29_4 C 0.7265(5) 0.1344(5) 0.9114(3)
H21_4 H 0.6912 0.0991 0.8741
N1_4 N 0.4702(3) 0.1618(3) 0.8857(2)
N2_4 N 0.5205(3) 0.3043(3) 0.9816(2)
N3_4 N 0.8063(4) 0.0925(4) 0.9501(3)
O1_4 O 0.6501(3) 0.4235(2) 0.88142(17)
O2_4 O 0.6280(3) 0.4947(2) 0.77203(16)
O9_4 O 0.6979(3) 0.2144(3) 0.9221(2)
H8_3 H 0.6431 0.0249 0.1866
H9_3 H 0.6787 0.0504 0.0702
C28_3 C 0.1671(7) 0.0065(6) 0.0681(6)
H18_3 H 0.1744 0.0477 0.0274
H19_3 H 0.2112 0.0279 0.1096
H20_3 H 0.0982 0.0084 0.0792
H8_4 H 0.3569 0.9751 0.8134
H9_4 H 0.3213 0.9496 0.9298
C28_4 C 0.8329(7) 0.9935(6) 0.9319(6)
H18_4 H 0.8256 0.9523 0.9726
H19_4 H 0.7888 0.9721 0.8904
H20_4 H 0.9018 0.9916 0.9208
loop_
_geom_bond_atom_site_label_1
_geom_bond_atom_site_label_2
_geom_bond_site_symmetry_1
_geom_bond_site_symmetry_2
H13 C25 1_555 1_555
C26 C25 1_555 1_555
H14 C26 1_555 1_555
C27 H15 1_555 1_555
H16 C27 1_555 1_555
H17 C27 1_555 1_555
C28 H18 1_555 1_555
H19 C28 1_555 1_555
H20 C28 1_555 1_555
C29 H21 1_555 1_555
N2 Mn2 1_555 1_555
N3 C27 1_555 1_555
O1 Mn2 1_555 1_555
O2 C1 1_555 1_555
O9 Mn2 1_555 1_555
O10 Mn2 1_555 1_555
C1 O1 1_555 1_555
C26 N2 1_555 1_555
C28 N3 1_555 1_555
C29 N3 1_555 1_555
C29 O9 1_555 1_555
C2 C3 1_555 1_555
C3 H1 1_555 1_555
C4 C3 1_555 1_555
C5 C4 1_555 1_555
H2 C5 1_555 1_555
C6 C5 1_555 1_555
C7 C2 1_555 1_555
H3 C7 1_555 1_555
C8 C4 1_555 1_555
C9 H4 1_555 1_555
C10 C9 1_555 1_555
C11 C10 1_555 1_555
H5 C11 1_555 1_555
C12 C6 1_555 1_555
C13 C12 1_555 1_555
H6 C13 1_555 1_555
C14 C9 1_555 1_555
C15 C14 1_555 1_555
C16 C10 1_555 1_555
O3 C8 1_555 1_555
O4 C8 1_555 1_555
O5 C15 1_555 1_555
O6 C15 1_555 1_555
O7 C16 1_555 1_555
O8 C16 1_555 1_555
Mn3 O4 1_555 1_555
Mn4 O7 1_555 1_555
Mn5 O5 1_555 1_555
Mn6 O3 1_555 1_555
C6 C7 1_555 1_555
C11 C12 1_555 1_555
C13 C14 1_555 1_555
O6 Mn5 1_555 1_555
O8 Mn4 1_555 1_555
C17 H7 1_555 1_555
C18 C17 1_555 1_555
H8 C18 1_555 1_555
C19 C18 1_555 1_555
H9 C19 1_555 1_555
C20 C19 1_555 1_555
H10 C20 1_555 1_555
C21 C20 1_555 1_555
C22 C21 1_555 1_555
C23 C22 1_555 1_555
H11 C23 1_555 1_555
C24 C23 1_555 1_555
H12 C24 1_555 1_555
N1 C17 1_555 1_555
O14 Mn1 1_555 1_555
O15 Mn1 1_555 1_555
C21 N1 1_555 1_555
Mn3 O2_2 1_555 1_555
Mn6 N1_2 1_555 1_555
C1_2 C2_2 1_555 1_555
C2_2 C3_2 1_555 1_555
C3_2 H1_2 1_555 1_555
C4_2 C3_2 1_555 1_555
C5_2 C4_2 1_555 1_555
H2_2 C5_2 1_555 1_555
C6_2 C5_2 1_555 1_555
C7_2 C2_2 1_555 1_555
H3_2 C7_2 1_555 1_555
C8_2 C4_2 1_555 1_555
C17_2 H7_2 1_555 1_555
C18_2 C17_2 1_555 1_555
C19_2 C18_2 1_555 1_555
C20_2 C19_2 1_555 1_555
C21_2 C20_2 1_555 1_555
C29_2 H21_2 1_555 1_555
N1_2 C17_2 1_555 1_555
N2_2 Mn6 1_555 1_555
O1_2 Mn6 1_555 1_555
O2_2 C1_2 1_555 1_555
O10 C8_2 1_555 1_555
O11 C8_2 1_555 1_555
O9_2 Mn6 1_555 1_555
O12_2 Mn3 1_555 1_555
O13_2 Mn3 1_555 1_555
O14_2 Mn3 1_555 1_555
O15_2 Mn3 1_555 1_555
Mn6 O14_2 1_555 1_555
C1_2 O1_2 1_555 1_555
C6_2 C7_2 1_555 1_555
C21_2 N1_2 1_555 1_555
C29_2 N3_2 1_555 1_555
C29_2 O9_2 1_555 1_555
C9_2 H4_2 1_555 1_555
C10_2 C9_2 1_555 1_555
C11_2 C10_2 1_555 1_555
H5_2 C11_2 1_555 1_555
C13_2 C12_2 1_555 1_555
H6_2 C13_2 1_555 1_555
C14_2 C9_2 1_555 1_555
C15_2 C14_2 1_555 1_555
C16_2 C10_2 1_555 1_555
C23_2 C22_2 1_555 1_555
H11_2 C23_2 1_555 1_555
C24_2 C23_2 1_555 1_555
H12_2 C24_2 1_555 1_555
C25_2 C24_2 1_555 1_555
H13_2 C25_2 1_555 1_555
C26_2 C25_2 1_555 1_555
H14_2 C26_2 1_555 1_555
C27_2 H15_2 1_555 1_555
H16_2 C27_2 1_555 1_555
H17_2 C27_2 1_555 1_555
O5_2 C15_2 1_555 1_555
O6_2 C15_2 1_555 1_555
O7_2 C16_2 1_555 1_555
O8_2 C16_2 1_555 1_555
Mn5 O7_2 1_555 1_555
Mn7_2 O7_2 1_555 1_555
C11_2 C12_2 1_555 1_555
C13_2 C14_2 1_555 1_555
O8_2 Mn5 1_555 1_555
C17_3 H7_3 1_555 1_555
C18_3 C17_3 1_555 1_555
H8_2 C18_3 1_555 1_555
C19_3 C18_3 1_555 1_555
H9_2 C19_3 1_555 1_555
C20_3 C19_3 1_555 1_555
H10_3 C20_3 1_555 1_555
C21_3 C20_3 1_555 1_555
C22_3 C21_3 1_555 1_555
C23_3 C22_3 1_555 1_555
H11_3 C23_3 1_555 1_555
C24_3 C23_3 1_555 1_555
H12_3 C24_3 1_555 1_555
N1_3 C17_3 1_555 1_555
C21_3 N1_3 1_555 1_555
C2_3 C3_3 1_555 1_555
C3_3 H1_3 1_555 1_555
C4_3 C3_3 1_555 1_555
C5_3 C4_3 1_555 1_555
H2_3 C5_3 1_555 1_555
C6_3 C5_3 1_555 1_555
C7_3 C2_3 1_555 1_555
H3_3 C7_3 1_555 1_555
C8_3 C4_3 1_555 1_555
C9_3 H4_3 1_555 1_555
C10_3 C9_3 1_555 1_555
C11_3 C10_3 1_555 1_555
H5_3 C11_3 1_555 1_555
C12_3 C6_3 1_555 1_555
C13_3 C12_3 1_555 1_555
H6_3 C13_3 1_555 1_555
C14_3 C9_3 1_555 1_555
C15_3 C14_3 1_555 1_555
C16_3 C10_3 1_555 1_555
O3_2 C8_3 1_555 1_555
O4_2 C8_3 1_555 1_555
O12_2 C15_3 1_555 1_555
O13_2 C15_3 1_555 1_555
O14 C16_3 1_555 1_555
O15 C16_3 1_555 1_555
Mn5 O4_2 1_555 1_555
Mn7_2 O3_2 1_555 1_555
C6_3 C7_3 1_555 1_555
C11_3 C12_3 1_555 1_555
C13_3 C14_3 1_555 1_555
H13_3 C25_3 1_555 1_555
C26_3 C25_3 1_555 1_555
H14_3 C26_3 1_555 1_555
C27_3 H15_3 1_555 1_555
H16_3 C27_3 1_555 1_555
H17_3 C27_3 1_555 1_555
C28_2 H18_2 1_555 1_555
H19_2 C28_2 1_555 1_555
H20_2 C28_2 1_555 1_555
C29_3 H21_3 1_555 1_555
N2_3 Mn7 1_555 1_555
N3_3 C27_3 1_555 1_555
O1_3 Mn7 1_555 1_555
O2_3 C1_3 1_555 1_555
O9_3 Mn7 1_555 1_555
O10_2 Mn7 1_555 1_555
C1_3 O1_3 1_555 1_555
C26_3 N2_3 1_555 1_555
C28_2 N3_3 1_555 1_555
C29_3 N3_3 1_555 1_555
C29_3 O9_3 1_555 1_555
C9_4 H4_4 1_555 1_555
C10_4 C9_4 1_555 1_555
C11_4 C10_4 1_555 1_555
H5_4 C11_4 1_555 1_555
C13_4 C12_4 1_555 1_555
H6_4 C13_4 1_555 1_555
C14_4 C9_4 1_555 1_555
C15_4 C14_4 1_555 1_555
C16_4 C10_4 1_555 1_555
C23_4 C22_4 1_555 1_555
H11_4 C23_4 1_555 1_555
C24_4 C23_4 1_555 1_555
H12_4 C24_4 1_555 1_555
C25_4 C24_4 1_555 1_555
H13_4 C25_4 1_555 1_555
C26_4 C25_4 1_555 1_555
H14_4 C26_4 1_555 1_555
C27_4 H15_4 1_555 1_555
H16_4 C27_4 1_555 1_555
H17_4 C27_4 1_555 1_555
O12 C15_4 1_555 1_555
O13 C15_4 1_555 1_555
O14_2 C16_4 1_555 1_555
O15_2 C16_4 1_555 1_555
C11_4 C12_4 1_555 1_555
C13_4 C14_4 1_555 1_555
Mn5 O2_4 1_555 1_555
Mn7_2 N1_4 1_555 1_555
C1_4 C2_4 1_555 1_555
C2_4 C3_4 1_555 1_555
C3_4 H1_4 1_555 1_555
C4_4 C3_4 1_555 1_555
C5_4 C4_4 1_555 1_555
H2_4 C5_4 1_555 1_555
C6_4 C5_4 1_555 1_555
C7_4 C2_4 1_555 1_555
H3_4 C7_4 1_555 1_555
C8_4 C4_4 1_555 1_555
C17_4 H7_4 1_555 1_555
C18_4 C17_4 1_555 1_555
C19_4 C18_4 1_555 1_555
C20_4 C19_4 1_555 1_555
C21_4 C20_4 1_555 1_555
C29_4 H21_4 1_555 1_555
N1_4 C17_4 1_555 1_555
N2_4 Mn7_2 1_555 1_555
O1_4 Mn7_2 1_555 1_555
O2_4 C1_4 1_555 1_555
O10_2 C8_4 1_555 1_555
O11_2 C8_4 1_555 1_555
O9_4 Mn7_2 1_555 1_555
C1_4 O1_4 1_555 1_555
C6_4 C7_4 1_555 1_555
C21_4 N1_4 1_555 1_555
C29_4 N3_4 1_555 1_555
C29_4 O9_4 1_555 1_555
C28_3 H18_3 1_555 1_555
H19_3 C28_3 1_555 1_555
H20_3 C28_3 1_555 1_555
C28_4 H18_4 1_555 1_555
H19_4 C28_4 1_555 1_555
H20_4 C28_4 1_555 1_555

#END
