
###############################################################################
#
# This file contains modified crystal structure data generated from the
# MOF subset of the Cambridge Structural Database (CSD) v543 
# hosted by the Cambridge Crystallographic Data Centre (CCDC).
#
# This work is licensed under the Creative Commons
# Attribution-NonCommercial-ShareAlike 4.0 International License.
# To view a copy of this license, visit
# http://creativecommons.org/licenses/by-nc-sa/4.0/
# or send a letter to
# Creative Commons, PO Box 1866, Mountain View, CA 94042, USA.
#
# CIF created using the CSD Python API on 29 September 2022
# The structure has been converted into the P1 space group
# The structure has a 3D framework
# The original CSD entry KUFVIS is in the monoclinic crystal system
# The framework has been calculated to contain at least 10.0% void space
# The void calculation uses a probe of radius 1.32A, grid spacing 0.4
# H atom positions have been added when not included in the experimental data
#
###############################################################################

data_KUFVIS
_chemical_formula_moiety         '(C124 H84 Mn8 N12 O36)n'
_symmetry_cell_setting           triclinic
_symmetry_space_group_name_H-M   'P 1'
_symmetry_Int_Tables_number      1
_space_group_name_Hall           'P 1'
loop_
_symmetry_equiv_pos_site_id
_symmetry_equiv_pos_as_xyz
1 x,y,z
_cell_length_a                   13.153(3)
_cell_length_b                   13.986(4)
_cell_length_c                   21.683(4)
_cell_angle_alpha                90
_cell_angle_beta                 121.056(11)
_cell_angle_gamma                90
_cell_volume                     3417.02
loop_
_atom_site_label
_atom_site_type_symbol
_atom_site_fract_x
_atom_site_fract_y
_atom_site_fract_z
H9 H 0.0490 0.0499 0.8682
H10 H 0.1819 0.0195 0.9985
C22 C 0.1683(11) 0.9098(14) 0.0546(9)
H11 H 0.2328 0.9277 0.0989
C23 C 0.1031(9) 0.8238(9) 0.0497(6)
C24 C 0.1339(11) 0.7727(14) 0.1043(7)
H12 H 0.1974 0.7908 0.1490
C25 C 0.0681(12) 0.6836(13) 0.0967(6)
H13 H 0.0902 0.6434 0.1358
C19 C 0.0039(14) 0.9973(10) 0.8658(11)
C20 C 0.0363(11) 0.9448(8) 0.9267(9)
C21 C 0.1361(14) 0.9664(12) 0.9940(11)
C27 C 0.0016(7) 0.8018(7) 0.9809(5)
O3 O 0.3596(4) 0.0023(4) 0.7200(2)
O4 O 0.2681(4) 0.0713(3) 0.6120(2)
C5 C 0.3249(5) 0.0039(5) 0.6544(3)
H8 H 0.8903 0.0102 0.7643
H16 H 0.6156 0.0062 0.9662
Mn3 Mn 0.27474(7) 0.04571(6) 0.77474(4)
Mn6 Mn 0.22375(9) 0.20394(7) 0.63960(5)
Mn1 Mn 0.72526(7) 0.54571(6) 0.72526(4)
Mn2 Mn 0.77625(9) 0.70394(7) 0.86040(5)
O1 O 0.5907(4) 0.6433(3) 0.6614(2)
O2 O 0.6365(4) 0.7371(4) 0.7550(2)
O5 O 0.3068(5) 0.5588(4) 0.3563(2)
O6 O 0.1564(4) 0.5870(4) 0.2483(2)
O9 O 0.6846(8) 0.7783(7) 0.9051(5)
N1 N 0.9385(6) 0.7202(5) 0.9713(3)
N2 N 0.8703(6) 0.8398(4) 0.8581(4)
N3 N 0.6337(10) 0.8672(10) 0.9695(8)
C1 C 0.5732(6) 0.7137(5) 0.6895(3)
C2 C 0.4705(5) 0.7779(4) 0.6421(3)
C3 C 0.4463(5) 0.8577(4) 0.6698(3)
H1 H 0.4918 0.8707 0.7188
C4 C 0.3538(5) 0.9188(4) 0.6244(3)
C6 C 0.2868(5) 0.8982(5) 0.5507(3)
H2 H 0.2286 0.9412 0.5199
C7 C 0.3047(5) 0.8162(4) 0.5226(3)
C8 C 0.4000(5) 0.7561(5) 0.5698(3)
H3 H 0.4154 0.7010 0.5519
C9 C 0.2270(5) 0.7894(4) 0.4448(3)
C10 C 0.2578(5) 0.7175(4) 0.4136(3)
H4 H 0.3297 0.6859 0.4415
C11 C 0.1849(5) 0.6911(4) 0.3420(3)
C12 C 0.2170(6) 0.6094(4) 0.3125(3)
C13 C 0.0772(5) 0.7398(5) 0.2994(3)
H5 H 0.0297 0.7256 0.2507
C14 C 0.0427(5) 0.8081(4) 0.3298(3)
C16 C 0.1159(5) 0.8338(4) 0.4022(3)
H6 H 0.0909 0.8803 0.4222
C17 C 0.8383(10) 0.8924(6) 0.7999(6)
H7 H 0.7704 0.8773 0.7564
C18 C 0.9111(17) 0.9741(10) 0.8052(11)
C28 C 0.9677(8) 0.8642(6) 0.9183(5)
C29 C 0.6400(13) 0.8391(12) 0.9184(9)
H15 H 0.5959 0.8781 0.8785
C31 C 0.5828(13) 0.9520(10) 0.9771(9)
H18 H 0.4984 0.9505 0.9446
Mn4 Mn 0.27474(7) 0.45429(6) 0.27474(4)
O10 O 0.6404(4) 0.5023(4) 0.7800(2)
O11 O 0.7319(4) 0.5713(3) 0.8880(2)
O12 O 0.6932(5) 0.4412(4) 0.6437(2)
O13 O 0.8436(4) 0.4130(4) 0.7517(2)
O14 O 0.8776(4) 0.6328(4) 0.7212(2)
O15 O 0.8716(4) 0.6182(3) 0.8201(2)
O7 O 0.8776(4) 0.8672(4) 0.2212(2)
O8 O 0.8716(4) 0.8818(3) 0.3201(2)
C15 C 0.9235(5) 0.8549(4) 0.2866(3)
Mn5 Mn 0.72526(7) 0.95429(6) 0.22526(4)
Mn7 Mn 0.77625(9) 0.79606(7) 0.36040(5)
O7_2 O 0.1224(4) 0.3672(4) 0.2788(2)
O8_2 O 0.1284(4) 0.3818(3) 0.1799(2)
C15_2 C 0.0765(5) 0.3549(4) 0.2134(3)
Mn7_2 Mn 0.22375(9) 0.29606(7) 0.13960(5)
O1_2 O 0.4093(4) 0.1433(3) 0.8386(2)
O2_2 O 0.3635(4) 0.2371(4) 0.7450(2)
O9_2 O 0.3154(8) 0.2783(7) 0.5949(5)
N1_2 N 0.0615(6) 0.2202(5) 0.5287(3)
N2_2 N 0.1297(6) 0.3398(4) 0.6419(4)
N3_2 N 0.3663(10) 0.3672(10) 0.5305(8)
C1_2 C 0.4268(6) 0.2137(5) 0.8105(3)
C2_2 C 0.5295(5) 0.2779(4) 0.8579(3)
C3_2 C 0.5537(5) 0.3577(4) 0.8302(3)
H1_2 H 0.5082 0.3707 0.7812
C4_2 C 0.6462(5) 0.4188(4) 0.8756(3)
C5_2 C 0.6751(5) 0.5039(5) 0.8456(3)
C6_2 C 0.7132(5) 0.3982(5) 0.9493(3)
H2_2 H 0.7714 0.4412 0.9801
C7_2 C 0.6953(5) 0.3162(4) 0.9774(3)
C8_2 C 0.6000(5) 0.2561(5) 0.9302(3)
H3_2 H 0.5846 0.2010 0.9481
C17_2 C 0.1617(10) 0.3924(6) 0.7001(6)
H7_2 H 0.2296 0.3773 0.7436
C18_2 C 0.0889(17) 0.4741(10) 0.6948(11)
H8_2 H 0.1097 0.5102 0.7357
C26 C 0.0330(9) 0.1609(9) 0.4744(5)
H14 H 0.0768 0.1055 0.4816
C28_2 C 0.0323(8) 0.3642(6) 0.5817(5)
C29_2 C 0.3600(13) 0.3391(12) 0.5816(9)
H15_2 H 0.4041 0.3781 0.6215
C30 C 0.3168(13) 0.3177(12) 0.4617(9)
C31_2 C 0.4172(13) 0.4520(10) 0.5229(9)
H16_2 H 0.3844 0.5062 0.5338
H17 H 0.4003 0.4570 0.4743
H18_2 H 0.5016 0.4505 0.5554
O14_2 O 0.1224(4) 0.1328(4) 0.7788(2)
O15_2 O 0.1284(4) 0.1182(3) 0.6799(2)
H19 H 0.221208 0.310351 0.437474
H20 H 0.335351 0.35868 0.425902
H21 H 0.356875 0.247104 0.470345
C15_3 C 0.0765(5) 0.1451(4) 0.7134(3)
O1_3 O 0.4093(4) 0.3567(3) 0.3386(2)
O2_3 O 0.3635(4) 0.2629(4) 0.2450(2)
O9_3 O 0.3154(8) 0.2217(7) 0.0949(5)
N1_3 N 0.0615(6) 0.2798(5) 0.0287(3)
N2_3 N 0.1297(6) 0.1602(4) 0.1419(4)
N3_3 N 0.3663(10) 0.1328(10) 0.0305(8)
C1_3 C 0.4268(6) 0.2863(5) 0.3105(3)
C2_3 C 0.5295(5) 0.2221(4) 0.3579(3)
C3_3 C 0.5537(5) 0.1423(4) 0.3302(3)
H1_3 H 0.5082 0.1293 0.2812
C4_3 C 0.6462(5) 0.0812(4) 0.3756(3)
C6_3 C 0.7132(5) 0.1018(5) 0.4493(3)
H2_3 H 0.7714 0.0588 0.4801
C7_3 C 0.6953(5) 0.1838(4) 0.4774(3)
C8_3 C 0.6000(5) 0.2439(5) 0.4302(3)
H3_3 H 0.5846 0.2990 0.4481
C9_2 C 0.7730(5) 0.2106(4) 0.5552(3)
C10_2 C 0.7422(5) 0.2825(4) 0.5864(3)
H4_2 H 0.6703 0.3141 0.5585
C11_2 C 0.8151(5) 0.3089(4) 0.6580(3)
C12_2 C 0.7830(6) 0.3906(4) 0.6875(3)
C13_2 C 0.9228(5) 0.2602(5) 0.7006(3)
H5_2 H 0.9703 0.2744 0.7493
C14_2 C 0.9573(5) 0.1919(4) 0.6702(3)
C16_2 C 0.8841(5) 0.1662(4) 0.5978(3)
H6_2 H 0.9091 0.1197 0.5778
C17_3 C 0.1617(10) 0.1076(6) 0.2001(6)
H7_3 H 0.2296 0.1227 0.2436
C18_3 C 0.0889(17) 0.0259(10) 0.1948(11)
C28_3 C 0.0323(8) 0.1358(6) 0.0817(5)
C29_3 C 0.3600(13) 0.1609(12) 0.0816(9)
H15_3 H 0.4041 0.1219 0.1215
C31_3 C 0.4172(13) 0.0480(10) 0.0229(9)
H18_3 H 0.5016 0.0495 0.0554
O10_2 O 0.3596(4) 0.4977(4) 0.2200(2)
O11_2 O 0.2681(4) 0.4287(3) 0.1120(2)
O3_2 O 0.6404(4) 0.9977(4) 0.2800(2)
O4_2 O 0.7319(4) 0.9287(3) 0.3880(2)
C5_3 C 0.6751(5) 0.9961(5) 0.3456(3)
H8_3 H 0.1097 0.9898 0.2357
H16_3 H 0.3844 0.9938 0.0338
O1_4 O 0.5907(4) 0.8567(3) 0.1614(2)
O2_4 O 0.6365(4) 0.7629(4) 0.2550(2)
O9_4 O 0.6846(8) 0.7217(7) 0.4051(5)
N1_4 N 0.9385(6) 0.7798(5) 0.4713(3)
N2_4 N 0.8703(6) 0.6602(4) 0.3581(4)
N3_4 N 0.6337(10) 0.6328(10) 0.4695(8)
C1_4 C 0.5732(6) 0.7863(5) 0.1895(3)
C2_4 C 0.4705(5) 0.7221(4) 0.1421(3)
C3_4 C 0.4463(5) 0.6423(4) 0.1698(3)
H1_4 H 0.4918 0.6293 0.2188
C4_4 C 0.3538(5) 0.5812(4) 0.1244(3)
C5_4 C 0.3249(5) 0.4961(5) 0.1544(3)
C6_4 C 0.2868(5) 0.6018(5) 0.0507(3)
H2_4 H 0.2286 0.5588 0.0199
C7_4 C 0.3047(5) 0.6838(4) 0.0226(3)
C8_4 C 0.4000(5) 0.7439(5) 0.0698(3)
H3_4 H 0.4154 0.7990 0.0519
C17_4 C 0.8383(10) 0.6076(6) 0.2999(6)
H7_4 H 0.7704 0.6227 0.2564
C18_4 C 0.9111(17) 0.5259(10) 0.3052(11)
H8_4 H 0.8903 0.4898 0.2643
C26_2 C 0.9670(9) 0.8391(9) 0.5256(5)
H14_2 H 0.9232 0.8945 0.5184
C28_4 C 0.9677(8) 0.6358(6) 0.4183(5)
C29_4 C 0.6400(13) 0.6609(12) 0.4184(9)
H15_4 H 0.5959 0.6219 0.3785
C30_2 C 0.6832(13) 0.6823(12) 0.5383(9)
C31_4 C 0.5828(13) 0.5480(10) 0.4771(9)
H16_4 H 0.6156 0.4938 0.4662
H17_2 H 0.5997 0.5430 0.5257
H18_4 H 0.4984 0.5495 0.4446
H19_2 H 0.778792 0.689649 0.562526
H20_2 H 0.664649 0.64132 0.574098
H21_2 H 0.643125 0.752896 0.529655
C15_4 C 0.9235(5) 0.6451(4) 0.7866(3)
C26_3 C 0.9670(9) 0.6609(9) 0.0256(5)
H14_3 H 0.9232 0.6055 0.0184
C30_3 C 0.6832(13) 0.8177(12) 0.0383(9)
H17_3 H 0.5997 0.9570 0.0257
H19_3 H 0.778792 0.810351 0.0625259
H20_3 H 0.664649 0.85868 0.0740976
H21_3 H 0.643125 0.747104 0.0296551
O5_2 O 0.6932(5) 0.0588(4) 0.1437(2)
O6_2 O 0.8436(4) 0.0870(4) 0.2517(2)
C9_3 C 0.7730(5) 0.2894(4) 0.0552(3)
C10_3 C 0.7422(5) 0.2175(4) 0.0864(3)
H4_3 H 0.6703 0.1859 0.0585
C11_3 C 0.8151(5) 0.1911(4) 0.1580(3)
C12_3 C 0.7830(6) 0.1094(4) 0.1875(3)
C13_3 C 0.9228(5) 0.2398(5) 0.2006(3)
H5_3 H 0.9703 0.2256 0.2493
C14_3 C 0.9573(5) 0.3081(4) 0.1702(3)
C16_3 C 0.8841(5) 0.3338(4) 0.0978(3)
H6_3 H 0.9091 0.3803 0.0778
O12_2 O 0.3068(5) 0.9412(4) 0.8563(2)
O13_2 O 0.1564(4) 0.9130(4) 0.7483(2)
C9_4 C 0.2270(5) 0.7106(4) 0.9448(3)
C10_4 C 0.2578(5) 0.7825(4) 0.9136(3)
H4_4 H 0.3297 0.8141 0.9415
C11_4 C 0.1849(5) 0.8089(4) 0.8420(3)
C12_4 C 0.2170(6) 0.8906(4) 0.8125(3)
C13_4 C 0.0772(5) 0.7602(5) 0.7994(3)
H5_4 H 0.0297 0.7744 0.7507
C14_4 C 0.0427(5) 0.6919(4) 0.8298(3)
C16_4 C 0.1159(5) 0.6662(4) 0.9022(3)
H6_4 H 0.0909 0.6197 0.9222
C19_2 C 0.9961(14) 0.4973(10) 0.6342(11)
H9_2 H 0.9510 0.5499 0.6318
C20_2 C 0.9637(11) 0.4448(8) 0.5733(9)
C21_2 C 0.8639(14) 0.4664(12) 0.5060(11)
H10_2 H 0.8181 0.5195 0.5015
C22_2 C 0.8317(11) 0.4098(14) 0.4454(9)
H11_2 H 0.7672 0.4277 0.4011
C23_2 C 0.8969(9) 0.3238(9) 0.4503(6)
C24_2 C 0.8661(11) 0.2727(14) 0.3957(7)
H12_2 H 0.8026 0.2908 0.3510
C25_2 C 0.9319(12) 0.1836(13) 0.4033(6)
H13_2 H 0.9098 0.1434 0.3642
C27_2 C 0.9984(7) 0.3018(7) 0.5191(5)
C26_4 C 0.0330(9) 0.3391(9) 0.9744(5)
H14_4 H 0.0768 0.3945 0.9816
C30_4 C 0.3168(13) 0.1823(12) 0.9617(9)
H17_4 H 0.4003 0.0430 0.9743
H19_4 H 0.221208 0.189649 0.937474
H20_4 H 0.335351 0.14132 0.925902
H21_4 H 0.356875 0.252896 0.970345
C19_3 C 0.9961(14) 0.0027(10) 0.1342(11)
C20_3 C 0.9637(11) 0.0552(8) 0.0733(9)
C21_3 C 0.8639(14) 0.0336(12) 0.0060(11)
C27_3 C 0.9984(7) 0.1982(7) 0.0191(5)
C22_3 C 0.8317(11) 0.0902(14) 0.9454(9)
H11_3 H 0.7672 0.0723 0.9011
C23_3 C 0.8969(9) 0.1762(9) 0.9503(6)
C24_3 C 0.8661(11) 0.2273(14) 0.8957(7)
H12_3 H 0.8026 0.2092 0.8510
C25_3 C 0.9319(12) 0.3164(13) 0.9033(6)
H13_3 H 0.9098 0.3566 0.8642
H9_3 H 0.9510 0.9501 0.1318
H10_3 H 0.8181 0.9805 0.0015
C19_4 C 0.0039(14) 0.5027(10) 0.3658(11)
H9_4 H 0.0490 0.4501 0.3682
C20_4 C 0.0363(11) 0.5552(8) 0.4267(9)
C21_4 C 0.1361(14) 0.5336(12) 0.4940(11)
H10_4 H 0.1819 0.4805 0.4985
C22_4 C 0.1683(11) 0.5902(14) 0.5546(9)
H11_4 H 0.2328 0.5723 0.5989
C23_4 C 0.1031(9) 0.6762(9) 0.5497(6)
C24_4 C 0.1339(11) 0.7273(14) 0.6043(7)
H12_4 H 0.1974 0.7092 0.6490
C25_4 C 0.0681(12) 0.8164(13) 0.5967(6)
H13_4 H 0.0902 0.8566 0.6358
C27_4 C 0.0016(7) 0.6982(7) 0.4809(5)
loop_
_geom_bond_atom_site_label_1
_geom_bond_atom_site_label_2
_geom_bond_site_symmetry_1
_geom_bond_site_symmetry_2
H11 C22 1_555 1_555
C23 C22 1_555 1_555
C24 C23 1_555 1_555
H12 C24 1_555 1_555
C25 C24 1_555 1_555
H13 C25 1_555 1_555
C20 C19 1_555 1_555
C21 C20 1_555 1_555
O3 C5 1_555 1_555
O4 C5 1_555 1_555
Mn3 O3 1_555 1_555
Mn6 O4 1_555 1_555
Mn1 O1 1_555 1_555
Mn2 O2 1_555 1_555
O1 C1 1_555 1_555
O2 C1 1_555 1_555
O5 C12 1_555 1_555
O6 C12 1_555 1_555
O9 Mn2 1_555 1_555
N1 Mn2 1_555 1_555
N2 Mn2 1_555 1_555
N3 C29 1_555 1_555
C1 C2 1_555 1_555
C2 C3 1_555 1_555
C3 H1 1_555 1_555
C4 C3 1_555 1_555
C6 C4 1_555 1_555
H2 C6 1_555 1_555
C7 C6 1_555 1_555
C8 C2 1_555 1_555
H3 C8 1_555 1_555
C9 C7 1_555 1_555
C10 C9 1_555 1_555
H4 C10 1_555 1_555
C11 C10 1_555 1_555
C12 C11 1_555 1_555
C13 C11 1_555 1_555
H5 C13 1_555 1_555
C14 C13 1_555 1_555
C16 C9 1_555 1_555
H6 C16 1_555 1_555
C17 N2 1_555 1_555
H7 C17 1_555 1_555
C18 C17 1_555 1_555
C28 N2 1_555 1_555
C29 O9 1_555 1_555
H15 C29 1_555 1_555
C31 N3 1_555 1_555
H18 C31 1_555 1_555
Mn4 O5 1_555 1_555
O10 Mn1 1_555 1_555
O11 Mn2 1_555 1_555
O12 Mn1 1_555 1_555
O13 Mn1 1_555 1_555
O14 Mn1 1_555 1_555
O15 Mn1 1_555 1_555
Mn2 O15 1_555 1_555
O6 Mn4 1_555 1_555
C7 C8 1_555 1_555
C14 C16 1_555 1_555
O7 C15 1_555 1_555
O8 C15 1_555 1_555
Mn5 O7 1_555 1_555
Mn7 O8 1_555 1_555
O8 Mn5 1_555 1_555
O7_2 C15_2 1_555 1_555
O8_2 C15_2 1_555 1_555
Mn4 O7_2 1_555 1_555
Mn7_2 O8_2 1_555 1_555
O8_2 Mn4 1_555 1_555
Mn3 O1_2 1_555 1_555
Mn6 O2_2 1_555 1_555
O1_2 C1_2 1_555 1_555
O2_2 C1_2 1_555 1_555
O10 C5_2 1_555 1_555
O11 C5_2 1_555 1_555
O9_2 Mn6 1_555 1_555
N1_2 Mn6 1_555 1_555
N2_2 Mn6 1_555 1_555
N3_2 C29_2 1_555 1_555
C1_2 C2_2 1_555 1_555
C2_2 C3_2 1_555 1_555
C3_2 H1_2 1_555 1_555
C4_2 C3_2 1_555 1_555
C5_2 C4_2 1_555 1_555
C6_2 C4_2 1_555 1_555
H2_2 C6_2 1_555 1_555
C7_2 C6_2 1_555 1_555
C8_2 C2_2 1_555 1_555
H3_2 C8_2 1_555 1_555
C17_2 N2_2 1_555 1_555
H7_2 C17_2 1_555 1_555
C18_2 C17_2 1_555 1_555
H8_2 C18_2 1_555 1_555
C26 N1_2 1_555 1_555
H14 C26 1_555 1_555
C28_2 N2_2 1_555 1_555
C29_2 O9_2 1_555 1_555
H15_2 C29_2 1_555 1_555
C30 N3_2 1_555 1_555
C31_2 N3_2 1_555 1_555
H16_2 C31_2 1_555 1_555
H17 C31_2 1_555 1_555
H18_2 C31_2 1_555 1_555
O14_2 Mn3 1_555 1_555
O15_2 Mn3 1_555 1_555
Mn6 O15_2 1_555 1_555
C7_2 C8_2 1_555 1_555
C30 H19 1_555 1_555
C30 H20 1_555 1_555
C30 H21 1_555 1_555
O14_2 C15_3 1_555 1_555
O15_2 C15_3 1_555 1_555
Mn4 O1_3 1_555 1_555
Mn7_2 O2_3 1_555 1_555
O1_3 C1_3 1_555 1_555
O2_3 C1_3 1_555 1_555
O12 C12_2 1_555 1_555
O13 C12_2 1_555 1_555
O9_3 Mn7_2 1_555 1_555
N1_3 Mn7_2 1_555 1_555
N2_3 Mn7_2 1_555 1_555
N3_3 C29_3 1_555 1_555
C1_3 C2_3 1_555 1_555
C2_3 C3_3 1_555 1_555
C3_3 H1_3 1_555 1_555
C4_3 C3_3 1_555 1_555
C6_3 C4_3 1_555 1_555
H2_3 C6_3 1_555 1_555
C7_3 C6_3 1_555 1_555
C8_3 C2_3 1_555 1_555
H3_3 C8_3 1_555 1_555
C9_2 C7_3 1_555 1_555
C10_2 C9_2 1_555 1_555
H4_2 C10_2 1_555 1_555
C11_2 C10_2 1_555 1_555
C12_2 C11_2 1_555 1_555
C13_2 C11_2 1_555 1_555
H5_2 C13_2 1_555 1_555
C14_2 C13_2 1_555 1_555
C16_2 C9_2 1_555 1_555
H6_2 C16_2 1_555 1_555
C17_3 N2_3 1_555 1_555
H7_3 C17_3 1_555 1_555
C18_3 C17_3 1_555 1_555
C28_3 N2_3 1_555 1_555
C29_3 O9_3 1_555 1_555
H15_3 C29_3 1_555 1_555
C31_3 N3_3 1_555 1_555
H18_3 C31_3 1_555 1_555
O10_2 Mn4 1_555 1_555
O11_2 Mn7_2 1_555 1_555
C7_3 C8_3 1_555 1_555
C14_2 C16_2 1_555 1_555
O3_2 C5_3 1_555 1_555
O4_2 C5_3 1_555 1_555
Mn5 O3_2 1_555 1_555
Mn7 O4_2 1_555 1_555
Mn5 O1_4 1_555 1_555
Mn7 O2_4 1_555 1_555
O1_4 C1_4 1_555 1_555
O2_4 C1_4 1_555 1_555
O10_2 C5_4 1_555 1_555
O11_2 C5_4 1_555 1_555
O9_4 Mn7 1_555 1_555
N1_4 Mn7 1_555 1_555
N2_4 Mn7 1_555 1_555
N3_4 C29_4 1_555 1_555
C1_4 C2_4 1_555 1_555
C2_4 C3_4 1_555 1_555
C3_4 H1_4 1_555 1_555
C4_4 C3_4 1_555 1_555
C5_4 C4_4 1_555 1_555
C6_4 C4_4 1_555 1_555
H2_4 C6_4 1_555 1_555
C7_4 C6_4 1_555 1_555
C8_4 C2_4 1_555 1_555
H3_4 C8_4 1_555 1_555
C17_4 N2_4 1_555 1_555
H7_4 C17_4 1_555 1_555
C18_4 C17_4 1_555 1_555
H8_4 C18_4 1_555 1_555
C26_2 N1_4 1_555 1_555
H14_2 C26_2 1_555 1_555
C28_4 N2_4 1_555 1_555
C29_4 O9_4 1_555 1_555
H15_4 C29_4 1_555 1_555
C30_2 N3_4 1_555 1_555
C31_4 N3_4 1_555 1_555
H16_4 C31_4 1_555 1_555
H17_2 C31_4 1_555 1_555
H18_4 C31_4 1_555 1_555
C7_4 C8_4 1_555 1_555
C30_2 H19_2 1_555 1_555
C30_2 H20_2 1_555 1_555
C30_2 H21_2 1_555 1_555
O14 C15_4 1_555 1_555
O15 C15_4 1_555 1_555
H14_3 C26_3 1_555 1_555
C30_3 H19_3 1_555 1_555
C30_3 H20_3 1_555 1_555
C30_3 H21_3 1_555 1_555
O5_2 C12_3 1_555 1_555
O6_2 C12_3 1_555 1_555
C10_3 C9_3 1_555 1_555
H4_3 C10_3 1_555 1_555
C11_3 C10_3 1_555 1_555
C12_3 C11_3 1_555 1_555
C13_3 C11_3 1_555 1_555
H5_3 C13_3 1_555 1_555
C14_3 C13_3 1_555 1_555
C16_3 C9_3 1_555 1_555
H6_3 C16_3 1_555 1_555
C14_3 C16_3 1_555 1_555
O12_2 C12_4 1_555 1_555
O13_2 C12_4 1_555 1_555
C10_4 C9_4 1_555 1_555
H4_4 C10_4 1_555 1_555
C11_4 C10_4 1_555 1_555
C12_4 C11_4 1_555 1_555
C13_4 C11_4 1_555 1_555
H5_4 C13_4 1_555 1_555
C14_4 C13_4 1_555 1_555
C16_4 C9_4 1_555 1_555
H6_4 C16_4 1_555 1_555
C14_4 C16_4 1_555 1_555
H9_2 C19_2 1_555 1_555
C20_2 C19_2 1_555 1_555
C21_2 C20_2 1_555 1_555
H10_2 C21_2 1_555 1_555
C22_2 C21_2 1_555 1_555
H11_2 C22_2 1_555 1_555
C23_2 C22_2 1_555 1_555
C24_2 C23_2 1_555 1_555
H12_2 C24_2 1_555 1_555
C25_2 C24_2 1_555 1_555
H13_2 C25_2 1_555 1_555
C23_2 C27_2 1_555 1_555
H14_4 C26_4 1_555 1_555
C30_4 H19_4 1_555 1_555
C30_4 H20_4 1_555 1_555
C30_4 H21_4 1_555 1_555
C20_3 C19_3 1_555 1_555
C21_3 C20_3 1_555 1_555
H11_3 C22_3 1_555 1_555
C23_3 C22_3 1_555 1_555
C24_3 C23_3 1_555 1_555
H12_3 C24_3 1_555 1_555
C25_3 C24_3 1_555 1_555
H13_3 C25_3 1_555 1_555
H9_4 C19_4 1_555 1_555
C20_4 C19_4 1_555 1_555
C21_4 C20_4 1_555 1_555
H10_4 C21_4 1_555 1_555
C22_4 C21_4 1_555 1_555
H11_4 C22_4 1_555 1_555
C23_4 C22_4 1_555 1_555
C24_4 C23_4 1_555 1_555
H12_4 C24_4 1_555 1_555
C25_4 C24_4 1_555 1_555
H13_4 C25_4 1_555 1_555
C23_4 C27_4 1_555 1_555

#END
