
###############################################################################
#
# This file contains modified crystal structure data generated from the
# MOF subset of the Cambridge Structural Database (CSD) v543 
# hosted by the Cambridge Crystallographic Data Centre (CCDC).
#
# This work is licensed under the Creative Commons
# Attribution-NonCommercial-ShareAlike 4.0 International License.
# To view a copy of this license, visit
# http://creativecommons.org/licenses/by-nc-sa/4.0/
# or send a letter to
# Creative Commons, PO Box 1866, Mountain View, CA 94042, USA.
#
# CIF created using the CSD Python API on 29 September 2022
# The structure has been converted into the P1 space group
# The structure has a 3D framework
# The original CSD entry KUGZIW is in the trigonal crystal system
# The framework has been calculated to contain at least 10.0% void space
# The void calculation uses a probe of radius 1.32A, grid spacing 0.4
# The framework is charged, counterions have been retained in the structure
# H atom positions have been added when not included in the experimental data
# Generated hydrogen atom positions removed from atoms on special positions
#
###############################################################################

data_KUGZIW
_chemical_formula_moiety         '(C96 H84 Ni6 O31 4-)n'
_symmetry_cell_setting           triclinic
_symmetry_space_group_name_H-M   'P 1'
_symmetry_Int_Tables_number      1
_space_group_name_Hall           'P 1'
loop_
_symmetry_equiv_pos_site_id
_symmetry_equiv_pos_as_xyz
1 x,y,z
_cell_length_a                   15.5510(3)
_cell_length_b                   15.5510(3)
_cell_length_c                   16.3640(5)
_cell_angle_alpha                90
_cell_angle_beta                 90
_cell_angle_gamma                120
_cell_volume                     3427.18
loop_
_atom_site_label
_atom_site_type_symbol
_atom_site_fract_x
_atom_site_fract_y
_atom_site_fract_z
Ni1 Ni 0.5200 0.2600 0.2500
O1 O 0.6667 0.3333 0.2500
O2 O 0.50899(17) 0.35858(16) 0.17434(13)
O3 O 0.66449(18) 0.48082(17) 0.14853(14)
O4 O 0.3660 0.1830 0.2500
C1 C 0.5347(2) 0.4663(2) 0.06512(19)
C2 C 0.5731(3) 0.4313(3) 0.13614(19)
C3 C 0.5198(3) 0.5466(3) 0.0765(2)
H1 H 0.5478 0.3082 0.0197
C6 C 0.5376(3) 0.5960(3) 0.1538(2)
H2 H 0.5602 0.5735 0.1985
C8 C 0.5231(4) 0.6734(4) 0.1643(3)
H4 H 0.5352 0.7046 0.2163
Ni4 Ni 0.7400 0.4800 0.2500
Ni5 Ni 0.7400 0.2600 0.2500
O8 O 0.50899(17) 0.15041(23) 0.32566(13)
O10 O 0.64142(16) 0.15041(23) 0.17434(13)
O15 O 0.66449(18) 0.18367(25) 0.35147(14)
O17 O 0.51918(17) 0.18367(25) 0.14853(14)
O19 O 0.51918(17) 0.33551(18) 0.35147(14)
C10 C 0.5347(2) 0.0684(3) 0.43488(19)
C12 C 0.5337(2) 0.0684(3) 0.06512(19)
C15 C 0.5731(3) 0.1418(4) 0.36386(19)
C17 C 0.5687(3) 0.1418(4) 0.13614(19)
C21 C 0.4802(3) 0.0268(4) 0.5765(2)
C24 C 0.4849(3) 0.5814(2) 0.01050(19)
C25 C 0.5151(3) 0.0965(4) 0.51050(19)
C29 C 0.4725(3) 0.6660(3) 0.0241(2)
C30 C 0.5275(3) 0.1935(4) 0.5241(2)
H6 H 0.5478 0.2396 0.4803
H8 H 0.6918 0.2396 0.0197
C36 C 0.4624(3) 0.0584(4) 0.6538(2)
H12 H 0.4398 0.0133 0.6985
C39 C 0.4894(4) 0.7093(3) 0.0984(3)
C40 C 0.5106(4) 0.2199(5) 0.5984(3)
H15 H 0.4788 0.7637 0.1069
H16 H 0.5212 0.2849 0.6069
C46 C 0.4769(4) 0.1503(6) 0.6643(3)
H22 H 0.4648 0.1694 0.7163
C4 C 0.5151(3) 0.4186(2) 0.98950(19)
C5 C 0.5275(3) 0.3340(3) 0.9759(2)
C7 C 0.5106(4) 0.2907(3) 0.9016(3)
H3 H 0.5212 0.2363 0.8931
Ni2 Ni 0.4800 0.7400 0.7500
Ni6 Ni 0.2600 0.5200 0.7500
O5 O 0.3333 0.6667 0.7500
O7 O 0.49101(17) 0.64142(16) 0.82566(13)
O12 O 0.49101(17) 0.84959(23) 0.67434(13)
O14 O 0.33551(18) 0.51918(17) 0.85147(14)
O20 O 0.48082(17) 0.81633(25) 0.85147(14)
O21 O 0.48082(17) 0.66449(18) 0.64853(14)
O24 O 0.6340 0.8170 0.7500
C9 C 0.4653(2) 0.5337(2) 0.93488(19)
C14 C 0.4269(3) 0.5687(3) 0.86386(19)
C19 C 0.4802(3) 0.4534(3) 0.9235(2)
C23 C 0.5466(3) 0.0268(4) 0.9235(2)
C27 C 0.5814(2) 0.0965(4) 0.98950(19)
C32 C 0.6660(3) 0.1935(4) 0.9759(2)
H5 H 0.4522 0.6918 0.9803
C34 C 0.4624(3) 0.4040(3) 0.8462(2)
C38 C 0.5960(3) 0.0584(4) 0.8462(2)
H10 H 0.4398 0.4265 0.8015
H14 H 0.5735 0.0133 0.8015
C42 C 0.7093(3) 0.2199(5) 0.9016(3)
H18 H 0.7637 0.2849 0.8931
C44 C 0.4769(4) 0.3266(4) 0.8357(3)
C48 C 0.6734(4) 0.1503(6) 0.8357(3)
H20 H 0.4648 0.2954 0.7837
H24 H 0.7046 0.1694 0.7837
Ni7 Ni 0.2600 0.7400 0.7500
O16 O 0.33551(18) 0.81633(25) 0.64853(14)
C11 C 0.4653(2) 0.9316(3) 0.56512(19)
C16 C 0.4269(3) 0.8582(4) 0.63614(19)
C20 C 0.5198(3) 0.9732(4) 0.4235(2)
C22 C 0.4534(3) 0.9732(4) 0.0765(2)
C26 C 0.4849(3) 0.9035(4) 0.48950(19)
C28 C 0.4186(2) 0.9035(4) 0.01050(19)
C31 C 0.4725(3) 0.8065(4) 0.4759(2)
C33 C 0.3340(3) 0.8065(4) 0.0241(2)
H7 H 0.4522 0.7604 0.5197
C35 C 0.5376(3) 0.9416(4) 0.3462(2)
C37 C 0.4040(3) 0.9416(4) 0.1538(2)
H11 H 0.5602 0.9867 0.3015
H13 H 0.4265 0.9867 0.1985
C41 C 0.4894(4) 0.7801(5) 0.4016(3)
C43 C 0.2907(3) 0.7801(5) 0.0984(3)
H17 H 0.4788 0.7151 0.3931
H19 H 0.2363 0.7151 0.1069
C45 C 0.5231(4) 0.8497(6) 0.3357(3)
C47 C 0.3266(4) 0.8497(6) 0.1643(3)
H21 H 0.5352 0.8306 0.2837
H23 H 0.2954 0.8306 0.2163
O11 O 0.35858(16) 0.84959(23) 0.82566(13)
C13 C 0.4663(2) 0.9316(3) 0.93488(19)
C18 C 0.4313(3) 0.8582(4) 0.86386(19)
H9 H 0.3082 0.7604 0.9803
O9 O 0.15041(23) 0.64142(29) 0.67434(13)
O16_2 O 0.18367(25) 0.51918(31) 0.64853(14)
O23 O 0.18367(25) 0.66449(30) 0.85147(14)
O25 O 0.1830 0.8170 0.7500
C11_2 C 0.0684(3) 0.5337(4) 0.56512(19)
C16_2 C 0.1418(4) 0.5687(5) 0.63614(19)
C20_2 C 0.0268(4) 0.5466(5) 0.4235(2)
C22_2 C 0.0268(4) 0.4802(5) 0.0765(2)
C26_2 C 0.0965(4) 0.5814(5) 0.48950(19)
C28_2 C 0.0965(4) 0.5151(4) 0.01050(19)
C31_2 C 0.1935(4) 0.6660(5) 0.4759(2)
C33_2 C 0.1935(4) 0.5275(5) 0.0241(2)
H7_2 H 0.2396 0.6918 0.5197
C35_2 C 0.0584(4) 0.5960(5) 0.3462(2)
C37_2 C 0.0584(4) 0.4624(5) 0.1538(2)
H11_2 H 0.0133 0.5735 0.3015
H13_2 H 0.0133 0.4398 0.1985
C41_2 C 0.2199(5) 0.7093(6) 0.4016(3)
C43_2 C 0.2199(5) 0.5106(6) 0.0984(3)
H17_2 H 0.2849 0.7637 0.3931
H19_2 H 0.2849 0.5212 0.1069
C45_2 C 0.1503(6) 0.6734(7) 0.3357(3)
C47_2 C 0.1503(6) 0.4769(7) 0.1643(3)
H21_2 H 0.1694 0.7046 0.2837
H23_2 H 0.1694 0.4648 0.2163
O11_2 O 0.15041(23) 0.50899(28) 0.82566(13)
C13_2 C 0.0684(3) 0.5347(4) 0.93488(19)
C18_2 C 0.1418(4) 0.5731(5) 0.86386(19)
H9_2 H 0.2396 0.5478 0.9803
O4_2 O 0.8170 0.1830 0.2500
O8_2 O 0.84959(23) 0.35858(29) 0.32566(13)
O10_2 O 0.84959(23) 0.49101(28) 0.17434(13)
O15_2 O 0.81633(25) 0.48082(31) 0.35147(14)
O17_2 O 0.81633(25) 0.33551(30) 0.14853(14)
C10_2 C 0.9316(3) 0.4663(4) 0.43488(19)
C12_2 C 0.9316(3) 0.4653(4) 0.06512(19)
C15_2 C 0.8582(4) 0.4313(5) 0.36386(19)
C17_2 C 0.8582(4) 0.4269(5) 0.13614(19)
C21_2 C 0.9732(4) 0.4534(5) 0.5765(2)
C25_2 C 0.9035(4) 0.4186(5) 0.51050(19)
C30_2 C 0.8065(4) 0.3340(5) 0.5241(2)
H6_2 H 0.7604 0.3082 0.4803
H8_2 H 0.7604 0.4522 0.0197
C36_2 C 0.9416(4) 0.4040(5) 0.6538(2)
H12_2 H 0.9867 0.4265 0.6985
C40_2 C 0.7801(5) 0.2907(6) 0.5984(3)
H16_2 H 0.7151 0.2363 0.6069
C46_2 C 0.8497(6) 0.3266(7) 0.6643(3)
H22_2 H 0.8306 0.2954 0.7163
C23_2 C 0.9732(4) 0.5198(5) 0.9235(2)
C27_2 C 0.9035(4) 0.4849(4) 0.98950(19)
C32_2 C 0.8065(4) 0.4725(5) 0.9759(2)
C38_2 C 0.9416(4) 0.5376(5) 0.8462(2)
H14_2 H 0.9867 0.5602 0.8015
C42_2 C 0.7801(5) 0.4894(6) 0.9016(3)
H18_2 H 0.7151 0.4788 0.8931
C48_2 C 0.8497(6) 0.5231(7) 0.8357(3)
H24_2 H 0.8306 0.5352 0.7837
O12_2 O 0.35858(29) 0.50899(17) 0.67434(13)
O24_2 O 0.1830 0.3660 0.7500
O4_3 O 0.8170 0.6340 0.2500
O8_3 O 0.64142(29) 0.49101(17) 0.32566(13)
C10_3 C 0.5337(4) 0.4653(2) 0.43488(19)
C11_3 C 0.4663(4) 0.5347(2) 0.56512(19)
C15_3 C 0.5687(5) 0.4269(3) 0.36386(19)
C16_3 C 0.4313(5) 0.5731(3) 0.63614(19)
C20_3 C 0.4534(5) 0.4802(3) 0.4235(2)
C21_3 C 0.5466(5) 0.5198(3) 0.5765(2)
C25_3 C 0.5814(5) 0.4849(3) 0.51050(19)
C26_3 C 0.4186(5) 0.5151(3) 0.48950(19)
C30_3 C 0.6660(5) 0.4725(3) 0.5241(2)
C31_3 C 0.3340(5) 0.5275(3) 0.4759(2)
H6_3 H 0.6918 0.4522 0.4803
H7_3 H 0.3082 0.5478 0.5197
C35_3 C 0.4040(5) 0.4624(3) 0.3462(2)
C36_3 C 0.5960(5) 0.5376(3) 0.6538(2)
H11_3 H 0.4265 0.4398 0.3015
H12_3 H 0.5735 0.5602 0.6985
C40_3 C 0.7093(6) 0.4894(4) 0.5984(3)
C41_3 C 0.2907(6) 0.5106(4) 0.4016(3)
H16_3 H 0.7637 0.4788 0.6069
H17_3 H 0.2363 0.5212 0.3931
C45_3 C 0.3266(7) 0.4769(4) 0.3357(3)
C46_3 C 0.6734(7) 0.5231(4) 0.6643(3)
H21_3 H 0.2954 0.4648 0.2837
H22_3 H 0.7046 0.5352 0.7163
loop_
_geom_bond_atom_site_label_1
_geom_bond_atom_site_label_2
_geom_bond_site_symmetry_1
_geom_bond_site_symmetry_2
Ni1 O1 1_555 1_555
O1 Ni4 1_555 1_555
O2 Ni1 1_555 1_555
O3 C2 1_555 1_555
O4 Ni1 1_555 1_555
C1 C2 1_555 1_555
C2 O2 1_555 1_555
C3 C1 1_555 1_555
C6 C3 1_555 1_555
H2 C6 1_555 1_555
C8 C6 1_555 1_555
H4 C8 1_555 1_555
Ni4 O3 1_555 1_555
Ni5 O1 1_555 1_555
O8 Ni1 1_555 1_555
O10 Ni5 1_555 1_555
O15 Ni5 1_555 1_555
O17 Ni1 1_555 1_555
O19 Ni1 1_555 1_555
C10 C15 1_555 1_555
C12 C17 1_555 1_555
C15 O8 1_555 1_555
C17 O10 1_555 1_555
C24 C3 1_555 1_555
C25 C10 1_555 1_555
C29 C24 1_555 1_555
C30 C25 1_555 1_555
H6 C30 1_555 1_555
C36 C21 1_555 1_555
H12 C36 1_555 1_555
C39 C8 1_555 1_555
C40 C30 1_555 1_555
H15 C39 1_555 1_555
H16 C40 1_555 1_555
C46 C36 1_555 1_555
H22 C46 1_555 1_555
O15 C15 1_555 1_555
O17 C17 1_555 1_555
C21 C25 1_555 1_555
C29 C39 1_555 1_555
C40 C46 1_555 1_555
C5 C4 1_555 1_555
C7 C5 1_555 1_555
H3 C7 1_555 1_555
Ni2 O5 1_555 1_555
Ni6 O5 1_555 1_555
O7 Ni2 1_555 1_555
O12 Ni2 1_555 1_555
O14 Ni6 1_555 1_555
O20 Ni2 1_555 1_555
O21 Ni2 1_555 1_555
O24 Ni2 1_555 1_555
C9 C14 1_555 1_555
C14 O7 1_555 1_555
C19 C4 1_555 1_555
C32 C27 1_555 1_555
C34 C19 1_555 1_555
C38 C23 1_555 1_555
H10 C34 1_555 1_555
H14 C38 1_555 1_555
C42 C32 1_555 1_555
H18 C42 1_555 1_555
C44 C7 1_555 1_555
C48 C38 1_555 1_555
H20 C44 1_555 1_555
H24 C48 1_555 1_555
O14 C14 1_555 1_555
C9 C19 1_555 1_555
C23 C27 1_555 1_555
C34 C44 1_555 1_555
C42 C48 1_555 1_555
Ni7 O5 1_555 1_555
O16 Ni7 1_555 1_555
C11 C16 1_555 1_555
C16 O12 1_555 1_555
C26 C11 1_555 1_555
C31 C26 1_555 1_555
C33 C28 1_555 1_555
H7 C31 1_555 1_555
C35 C20 1_555 1_555
C37 C22 1_555 1_555
H11 C35 1_555 1_555
H13 C37 1_555 1_555
C41 C31 1_555 1_555
C43 C33 1_555 1_555
H17 C41 1_555 1_555
H19 C43 1_555 1_555
C45 C35 1_555 1_555
C47 C37 1_555 1_555
H21 C45 1_555 1_555
H23 C47 1_555 1_555
O16 C16 1_555 1_555
C20 C26 1_555 1_555
C22 C28 1_555 1_555
C41 C45 1_555 1_555
C43 C47 1_555 1_555
Ni7 O11 1_555 1_555
O11 C18 1_555 1_555
O20 C18 1_555 1_555
C13 C18 1_555 1_555
O9 Ni7 1_555 1_555
O16_2 Ni6 1_555 1_555
O23 Ni7 1_555 1_555
O25 Ni7 1_555 1_555
C11_2 C16_2 1_555 1_555
C16_2 O9 1_555 1_555
C26_2 C11_2 1_555 1_555
C31_2 C26_2 1_555 1_555
C33_2 C28_2 1_555 1_555
H7_2 C31_2 1_555 1_555
C35_2 C20_2 1_555 1_555
C37_2 C22_2 1_555 1_555
H11_2 C35_2 1_555 1_555
H13_2 C37_2 1_555 1_555
C41_2 C31_2 1_555 1_555
C43_2 C33_2 1_555 1_555
H17_2 C41_2 1_555 1_555
H19_2 C43_2 1_555 1_555
C45_2 C35_2 1_555 1_555
C47_2 C37_2 1_555 1_555
H21_2 C45_2 1_555 1_555
H23_2 C47_2 1_555 1_555
O16_2 C16_2 1_555 1_555
C20_2 C26_2 1_555 1_555
C22_2 C28_2 1_555 1_555
C41_2 C45_2 1_555 1_555
C43_2 C47_2 1_555 1_555
Ni6 O11_2 1_555 1_555
O11_2 C18_2 1_555 1_555
O23 C18_2 1_555 1_555
C13_2 C18_2 1_555 1_555
O4_2 Ni5 1_555 1_555
O8_2 Ni5 1_555 1_555
O10_2 Ni4 1_555 1_555
O15_2 Ni4 1_555 1_555
O17_2 Ni5 1_555 1_555
C10_2 C15_2 1_555 1_555
C12_2 C17_2 1_555 1_555
C15_2 O8_2 1_555 1_555
C17_2 O10_2 1_555 1_555
C25_2 C10_2 1_555 1_555
C30_2 C25_2 1_555 1_555
H6_2 C30_2 1_555 1_555
C36_2 C21_2 1_555 1_555
H12_2 C36_2 1_555 1_555
C40_2 C30_2 1_555 1_555
H16_2 C40_2 1_555 1_555
C46_2 C36_2 1_555 1_555
H22_2 C46_2 1_555 1_555
O15_2 C15_2 1_555 1_555
O17_2 C17_2 1_555 1_555
C21_2 C25_2 1_555 1_555
C40_2 C46_2 1_555 1_555
C32_2 C27_2 1_555 1_555
C38_2 C23_2 1_555 1_555
H14_2 C38_2 1_555 1_555
C42_2 C32_2 1_555 1_555
H18_2 C42_2 1_555 1_555
C48_2 C38_2 1_555 1_555
H24_2 C48_2 1_555 1_555
C23_2 C27_2 1_555 1_555
C42_2 C48_2 1_555 1_555
O12_2 Ni6 1_555 1_555
O24_2 Ni6 1_555 1_555
O4_3 Ni4 1_555 1_555
O8_3 Ni4 1_555 1_555
C10_3 C15_3 1_555 1_555
C11_3 C16_3 1_555 1_555
C15_3 O8_3 1_555 1_555
C16_3 O12_2 1_555 1_555
C20_3 C10_3 1_555 1_555
C21_3 C11_3 1_555 1_555
C25_3 C10_3 1_555 1_555
C26_3 C11_3 1_555 1_555
C30_3 C25_3 1_555 1_555
C31_3 C26_3 1_555 1_555
H6_3 C30_3 1_555 1_555
H7_3 C31_3 1_555 1_555
C35_3 C20_3 1_555 1_555
C36_3 C21_3 1_555 1_555
H11_3 C35_3 1_555 1_555
H12_3 C36_3 1_555 1_555
C40_3 C30_3 1_555 1_555
C41_3 C31_3 1_555 1_555
H16_3 C40_3 1_555 1_555
H17_3 C41_3 1_555 1_555
C45_3 C35_3 1_555 1_555
C46_3 C36_3 1_555 1_555
H21_3 C45_3 1_555 1_555
H22_3 C46_3 1_555 1_555
O19 C15_3 1_555 1_555
O21 C16_3 1_555 1_555
C20_3 C26_3 1_555 1_555
C21_3 C25_3 1_555 1_555
C40_3 C46_3 1_555 1_555
C41_3 C45_3 1_555 1_555

#END
