
###############################################################################
#
# This file contains modified crystal structure data generated from the
# MOF subset of the Cambridge Structural Database (CSD) v543 
# hosted by the Cambridge Crystallographic Data Centre (CCDC).
#
# This work is licensed under the Creative Commons
# Attribution-NonCommercial-ShareAlike 4.0 International License.
# To view a copy of this license, visit
# http://creativecommons.org/licenses/by-nc-sa/4.0/
# or send a letter to
# Creative Commons, PO Box 1866, Mountain View, CA 94042, USA.
#
# CIF created using the CSD Python API on 29 September 2022
# The structure has been converted into the P1 space group
# The structure has a 3D framework
# The original CSD entry KUJDEB is in the orthorhombic crystal system
# The framework has been calculated to contain at least 10.0% void space
# The void calculation uses a probe of radius 1.32A, grid spacing 0.4
#
###############################################################################

data_KUJDEB
_chemical_formula_moiety         '(C192 H176 Cd8 N32 O32)n'
_symmetry_cell_setting           triclinic
_symmetry_space_group_name_H-M   'P 1'
_symmetry_Int_Tables_number      1
_space_group_name_Hall           'P 1'
loop_
_symmetry_equiv_pos_site_id
_symmetry_equiv_pos_as_xyz
1 x,y,z
_cell_length_a                   15.5094(9)
_cell_length_b                   19.0397(12)
_cell_length_c                   20.0994(13)
_cell_angle_alpha                90
_cell_angle_beta                 90
_cell_angle_gamma                90
_cell_volume                     5935.24
loop_
_atom_site_label
_atom_site_type_symbol
_atom_site_fract_x
_atom_site_fract_y
_atom_site_fract_z
C21 C 0.0136(3) 0.6941(3) 0.2944(3)
H17 H 0.0674 0.6725 0.2846
Cd1 Cd 0.51232(2) 0.72893(2) 0.63923(3)
O1 O 0.47597(17) 0.60550(15) 0.6369(4)
O2 O 0.37383(18) 0.68596(16) 0.6465(3)
O3 O 0.5553(3) 0.7160(2) 0.5249(2)
O4 O 0.6526(2) 0.73309(18) 0.60326(18)
N1 N 0.1305(3) 0.4222(2) 0.5936(2)
N2 N 0.0393(2) 0.3357(2) 0.6082(2)
N3 N 0.8967(3) 0.7273(2) 0.3460(2)
N4 N 0.9660(4) 0.7337(2) 0.2507(3)
C1 C 0.3973(2) 0.6235(2) 0.6361(4)
C2 C 0.3283(3) 0.5695(2) 0.6262(3)
C3 C 0.2446(3) 0.5910(3) 0.6163(3)
H1 H 0.2316 0.6398 0.6164
C4 C 0.1791(3) 0.5427(2) 0.6062(3)
H2 H 0.1213 0.5579 0.6005
C5 C 0.1993(3) 0.4719(3) 0.6046(3)
C6 C 0.2839(3) 0.4485(3) 0.6131(3)
H3 H 0.2970 0.3998 0.6113
C7 C 0.3483(3) 0.4975(3) 0.6242(4)
H4 H 0.4061 0.4825 0.6304
C8 C 0.0733(3) 0.4251(3) 0.5407(3)
H5 H 0.0728 0.4584 0.5054
C9 C 0.0184(3) 0.3708(3) 0.5497(3)
C10 C 0.1069(3) 0.3674(2) 0.6339(4)
C11 C 0.1448(3) 0.3527(3) 0.7007(3)
H7 H 0.2080 0.3594 0.6990
H8 H 0.1332 0.3033 0.7132
C12 C 0.1065(5) 0.4009(4) 0.7520(4)
H9 H 0.1225 0.4495 0.7418
H10 H 0.1286 0.3883 0.7961
H11 H 0.0436 0.3964 0.7516
C13 C 0.6318(3) 0.7255(2) 0.5432(3)
C14 C 0.7015(3) 0.7277(3) 0.4909(3)
C15 C 0.6817(4) 0.7150(3) 0.4246(3)
H12 H 0.6239 0.7054 0.4119
C16 C 0.7459(6) 0.7163(3) 0.3774(4)
H13 H 0.7319 0.7073 0.3322
C17 C 0.8300(3) 0.7304(3) 0.3943(3)
C18 C 0.8512(4) 0.7444(3) 0.4608(3)
H14 H 0.9090 0.7547 0.4730
C19 C 0.7867(3) 0.7428(2) 0.5086(3)
H15 H 0.8005 0.7521 0.5538
C20 C 0.9724(3) 0.6906(3) 0.3532(3)
H16 H 0.9919 0.6671 0.3921
C22 C 0.8952(4) 0.7533(3) 0.2827(3)
C23 C 0.8287(4) 0.8011(3) 0.2543(3)
H18 H 0.7726 0.7763 0.2540
H19 H 0.8441 0.8117 0.2076
C24 C 0.8183(5) 0.8709(4) 0.2926(4)
H20 H 0.7963 0.8613 0.3374
H21 H 0.7776 0.9013 0.2689
H22 H 0.8744 0.8944 0.2958
Cd3 Cd 0.98768(2) 0.72893(2) 0.13923(3)
N5 N 0.4607(2) 0.8357(2) 0.6082(2)
N6 N 0.5340(4) 0.7337(2) 0.7507(3)
O1_2 O 0.02403(17) 0.10550(15) 0.6369(4)
O2_2 O 0.12617(18) 0.18596(16) 0.6465(3)
C1_2 C 0.1027(2) 0.1235(2) 0.6361(4)
C2_2 C 0.1717(3) 0.0695(2) 0.6262(3)
C3_2 C 0.2554(3) 0.0910(3) 0.6163(3)
H1_2 H 0.2684 0.1398 0.6164
C4_2 C 0.3209(3) 0.0427(2) 0.6062(3)
H2_2 H 0.3787 0.0579 0.6005
N1_2 N 0.3695(3) 0.9222(2) 0.5936(2)
C5_2 C 0.3007(3) 0.9719(3) 0.6046(3)
C6_2 C 0.2161(3) 0.9485(3) 0.6131(3)
H3_2 H 0.2030 0.8998 0.6113
C7_2 C 0.1517(3) 0.9975(3) 0.6242(4)
H4_2 H 0.0939 0.9825 0.6304
C8_2 C 0.4267(3) 0.9251(3) 0.5407(3)
H5_2 H 0.4272 0.9584 0.5054
C9_2 C 0.4816(3) 0.8708(3) 0.5497(3)
H6 H 0.5274 0.8584 0.5205
C10_2 C 0.3931(3) 0.8674(2) 0.6339(4)
C11_2 C 0.3552(3) 0.8527(3) 0.7007(3)
H7_2 H 0.2920 0.8594 0.6990
H8_2 H 0.3668 0.8033 0.7132
C12_2 C 0.3935(5) 0.9009(4) 0.7520(4)
H9_2 H 0.3775 0.9495 0.7418
H10_2 H 0.3714 0.8883 0.7961
H11_2 H 0.4564 0.8964 0.7516
H6_2 H 0.9726 0.8584 0.0205
O3_2 O 0.9447(3) 0.7160(2) 0.0249(2)
O4_2 O 0.8474(2) 0.73309(18) 0.10326(18)
C13_2 C 0.8682(3) 0.7255(2) 0.0432(3)
C19_2 C 0.7133(3) 0.7428(2) 0.0086(3)
H15_2 H 0.6995 0.7521 0.0538
N3_2 N 0.6033(3) 0.7273(2) 0.8460(2)
C14_2 C 0.7985(3) 0.7277(3) 0.9909(3)
C15_2 C 0.8183(4) 0.7150(3) 0.9246(3)
H12_2 H 0.8761 0.7054 0.9119
C16_2 C 0.7541(6) 0.7163(3) 0.8774(4)
H13_2 H 0.7681 0.7073 0.8322
C17_2 C 0.6700(3) 0.7304(3) 0.8943(3)
C18_2 C 0.6488(4) 0.7444(3) 0.9608(3)
H14_2 H 0.5910 0.7547 0.9730
C20_2 C 0.5276(3) 0.6906(3) 0.8532(3)
H16_2 H 0.5081 0.6671 0.8921
C21_2 C 0.4864(3) 0.6941(3) 0.7944(3)
H17_2 H 0.4326 0.6725 0.7846
C22_2 C 0.6048(4) 0.7533(3) 0.7827(3)
C23_2 C 0.6713(4) 0.8011(3) 0.7543(3)
H18_2 H 0.7274 0.7763 0.7540
H19_2 H 0.6559 0.8117 0.7076
C24_2 C 0.6817(5) 0.8709(4) 0.7926(4)
H20_2 H 0.7037 0.8613 0.8374
H21_2 H 0.7224 0.9013 0.7689
H22_2 H 0.6256 0.8944 0.7958
H6_3 H 0.9726 0.3584 0.5205
Cd2 Cd 0.98768(2) 0.22893(2) 0.63923(3)
O3_3 O 0.9447(3) 0.2160(2) 0.5249(2)
O4_3 O 0.8474(2) 0.23309(18) 0.60326(18)
N3_3 N 0.6033(3) 0.2273(2) 0.3460(2)
N4_2 N 0.5340(4) 0.2337(2) 0.2507(3)
C13_3 C 0.8682(3) 0.2255(2) 0.5432(3)
C14_3 C 0.7985(3) 0.2277(3) 0.4909(3)
C15_3 C 0.8183(4) 0.2150(3) 0.4246(3)
H12_3 H 0.8761 0.2054 0.4119
C16_3 C 0.7541(6) 0.2163(3) 0.3774(4)
H13_3 H 0.7681 0.2073 0.3322
C17_3 C 0.6700(3) 0.2304(3) 0.3943(3)
C18_3 C 0.6488(4) 0.2444(3) 0.4608(3)
H14_3 H 0.5910 0.2547 0.4730
C19_3 C 0.7133(3) 0.2428(2) 0.5086(3)
H15_3 H 0.6995 0.2521 0.5538
C20_3 C 0.5276(3) 0.1906(3) 0.3532(3)
H16_3 H 0.5081 0.1671 0.3921
C21_3 C 0.4864(3) 0.1941(3) 0.2944(3)
H17_3 H 0.4326 0.1725 0.2846
C22_3 C 0.6048(4) 0.2533(3) 0.2827(3)
C23_3 C 0.6713(4) 0.3011(3) 0.2543(3)
H18_3 H 0.7274 0.2763 0.2540
H19_3 H 0.6559 0.3117 0.2076
C24_3 C 0.6817(5) 0.3709(4) 0.2926(4)
H20_3 H 0.7037 0.3613 0.3374
H21_3 H 0.7224 0.4013 0.2689
H22_3 H 0.6256 0.3944 0.2958
Cd3_2 Cd 0.51232(2) 0.22893(2) 0.13923(3)
N6_2 N 0.9660(4) 0.2337(2) 0.7507(3)
O1_3 O 0.47597(17) 0.10550(15) 0.1369(4)
O2_3 O 0.37383(18) 0.18596(16) 0.1465(3)
O3_4 O 0.5553(3) 0.2160(2) 0.0249(2)
O4_4 O 0.6526(2) 0.23309(18) 0.10326(18)
C1_3 C 0.3973(2) 0.1235(2) 0.1361(4)
C2_3 C 0.3283(3) 0.0695(2) 0.1262(3)
C3_3 C 0.2446(3) 0.0910(3) 0.1163(3)
H1_3 H 0.2316 0.1398 0.1164
C4_3 C 0.1791(3) 0.0427(2) 0.1062(3)
H2_3 H 0.1213 0.0579 0.1005
C13_4 C 0.6318(3) 0.2255(2) 0.0432(3)
C19_4 C 0.7867(3) 0.2428(2) 0.0086(3)
H15_4 H 0.8005 0.2521 0.0538
N5_2 N 0.4607(2) 0.3357(2) 0.1082(2)
N3_4 N 0.8967(3) 0.2273(2) 0.8460(2)
C14_4 C 0.7015(3) 0.2277(3) 0.9909(3)
C15_4 C 0.6817(4) 0.2150(3) 0.9246(3)
H12_4 H 0.6239 0.2054 0.9119
C16_4 C 0.7459(6) 0.2163(3) 0.8774(4)
H13_4 H 0.7319 0.2073 0.8322
C17_4 C 0.8300(3) 0.2304(3) 0.8943(3)
C18_4 C 0.8512(4) 0.2444(3) 0.9608(3)
H14_4 H 0.9090 0.2547 0.9730
C20_4 C 0.9724(3) 0.1906(3) 0.8532(3)
H16_4 H 0.9919 0.1671 0.8921
C22_4 C 0.8952(4) 0.2533(3) 0.7827(3)
C23_4 C 0.8287(4) 0.3011(3) 0.7543(3)
H18_4 H 0.7726 0.2763 0.7540
H19_4 H 0.8441 0.3117 0.7076
C24_4 C 0.8183(5) 0.3709(4) 0.7926(4)
H20_4 H 0.7963 0.3613 0.8374
H21_4 H 0.7776 0.4013 0.7689
H22_4 H 0.8744 0.3944 0.7958
N1_3 N 0.1305(3) 0.9222(2) 0.0936(2)
N2_2 N 0.0393(2) 0.8357(2) 0.1082(2)
C5_3 C 0.1993(3) 0.9719(3) 0.1046(3)
C6_3 C 0.2839(3) 0.9485(3) 0.1131(3)
H3_3 H 0.2970 0.8998 0.1113
C7_3 C 0.3483(3) 0.9975(3) 0.1242(4)
H4_3 H 0.4061 0.9825 0.1304
C8_3 C 0.0733(3) 0.9251(3) 0.0407(3)
H5_3 H 0.0728 0.9584 0.0054
C9_3 C 0.0184(3) 0.8708(3) 0.0497(3)
C10_3 C 0.1069(3) 0.8674(2) 0.1339(4)
C11_3 C 0.1448(3) 0.8527(3) 0.2007(3)
H7_3 H 0.2080 0.8594 0.1990
H8_3 H 0.1332 0.8033 0.2132
C12_3 C 0.1065(5) 0.9009(4) 0.2520(4)
H9_3 H 0.1225 0.9495 0.2418
H10_3 H 0.1286 0.8883 0.2961
H11_3 H 0.0436 0.8964 0.2516
O1_4 O 0.02403(17) 0.60550(15) 0.1369(4)
O2_4 O 0.12617(18) 0.68596(16) 0.1465(3)
N1_4 N 0.3695(3) 0.4222(2) 0.0936(2)
C1_4 C 0.1027(2) 0.6235(2) 0.1361(4)
C2_4 C 0.1717(3) 0.5695(2) 0.1262(3)
C3_4 C 0.2554(3) 0.5910(3) 0.1163(3)
H1_4 H 0.2684 0.6398 0.1164
C4_4 C 0.3209(3) 0.5427(2) 0.1062(3)
H2_4 H 0.3787 0.5579 0.1005
C5_4 C 0.3007(3) 0.4719(3) 0.1046(3)
C6_4 C 0.2161(3) 0.4485(3) 0.1131(3)
H3_4 H 0.2030 0.3998 0.1113
C7_4 C 0.1517(3) 0.4975(3) 0.1242(4)
H4_4 H 0.0939 0.4825 0.1304
C8_4 C 0.4267(3) 0.4251(3) 0.0407(3)
H5_4 H 0.4272 0.4584 0.0054
C9_4 C 0.4816(3) 0.3708(3) 0.0497(3)
H6_4 H 0.5274 0.3584 0.0205
C10_4 C 0.3931(3) 0.3674(2) 0.1339(4)
C11_4 C 0.3552(3) 0.3527(3) 0.2007(3)
H7_4 H 0.2920 0.3594 0.1990
H8_4 H 0.3668 0.3033 0.2132
C12_4 C 0.3935(5) 0.4009(4) 0.2520(4)
H9_4 H 0.3775 0.4495 0.2418
H10_4 H 0.3714 0.3883 0.2961
H11_4 H 0.4564 0.3964 0.2516
H6_5 H 0.0274 0.6416 0.5205
Cd2_2 Cd 0.01232(2) 0.77107(2) 0.63923(3)
O3_5 O 0.0553(3) 0.7840(2) 0.5249(2)
O4_5 O 0.1526(2) 0.76691(18) 0.60326(18)
N3_5 N 0.3967(3) 0.7727(2) 0.3460(2)
N4_3 N 0.4660(4) 0.7663(2) 0.2507(3)
C13_5 C 0.1318(3) 0.7745(2) 0.5432(3)
C14_5 C 0.2015(3) 0.7723(3) 0.4909(3)
C15_5 C 0.1817(4) 0.7850(3) 0.4246(3)
H12_5 H 0.1239 0.7946 0.4119
C16_5 C 0.2459(6) 0.7837(3) 0.3774(4)
H13_5 H 0.2319 0.7927 0.3322
C17_5 C 0.3300(3) 0.7696(3) 0.3943(3)
C18_5 C 0.3512(4) 0.7556(3) 0.4608(3)
H14_5 H 0.4090 0.7453 0.4730
C19_5 C 0.2867(3) 0.7572(2) 0.5086(3)
H15_5 H 0.3005 0.7479 0.5538
C20_5 C 0.4724(3) 0.8094(3) 0.3532(3)
H16_5 H 0.4919 0.8329 0.3921
C21_4 C 0.5136(3) 0.8059(3) 0.2944(3)
H17_4 H 0.5674 0.8275 0.2846
C22_5 C 0.3952(4) 0.7467(3) 0.2827(3)
C23_5 C 0.3287(4) 0.6989(3) 0.2543(3)
H18_5 H 0.2726 0.7237 0.2540
H19_5 H 0.3441 0.6883 0.2076
C24_5 C 0.3183(5) 0.6291(4) 0.2926(4)
H20_5 H 0.2963 0.6387 0.3374
H21_5 H 0.2776 0.5987 0.2689
H22_5 H 0.3744 0.6056 0.2958
Cd3_3 Cd 0.48768(2) 0.77107(2) 0.13923(3)
N6_3 N 0.0340(4) 0.7663(2) 0.7507(3)
N1_5 N 0.8695(3) 0.0778(2) 0.0936(2)
N2_3 N 0.9607(2) 0.1643(2) 0.1082(2)
C5_5 C 0.8007(3) 0.0281(3) 0.1046(3)
C6_5 C 0.7161(3) 0.0515(3) 0.1131(3)
H3_5 H 0.7030 0.1002 0.1113
C7_5 C 0.6517(3) 0.0025(3) 0.1242(4)
H4_5 H 0.5939 0.0175 0.1304
C8_5 C 0.9267(3) 0.0749(3) 0.0407(3)
H5_5 H 0.9272 0.0416 0.0054
C9_5 C 0.9816(3) 0.1292(3) 0.0497(3)
C10_5 C 0.8931(3) 0.1326(2) 0.1339(4)
C11_5 C 0.8552(3) 0.1473(3) 0.2007(3)
H7_5 H 0.7920 0.1406 0.1990
H8_5 H 0.8668 0.1967 0.2132
C12_5 C 0.8935(5) 0.0991(4) 0.2520(4)
H9_5 H 0.8775 0.0505 0.2418
H10_5 H 0.8714 0.1117 0.2961
H11_5 H 0.9564 0.1036 0.2516
O1_5 O 0.52403(17) 0.89450(15) 0.1369(4)
O2_5 O 0.62617(18) 0.81404(16) 0.1465(3)
O3_6 O 0.4447(3) 0.7840(2) 0.0249(2)
O4_6 O 0.3474(2) 0.76691(18) 0.10326(18)
C1_5 C 0.6027(2) 0.8765(2) 0.1361(4)
C2_5 C 0.6717(3) 0.9305(2) 0.1262(3)
C3_5 C 0.7554(3) 0.9090(3) 0.1163(3)
H1_5 H 0.7684 0.8602 0.1164
C4_5 C 0.8209(3) 0.9573(2) 0.1062(3)
H2_5 H 0.8787 0.9421 0.1005
C13_6 C 0.3682(3) 0.7745(2) 0.0432(3)
C19_6 C 0.2133(3) 0.7572(2) 0.0086(3)
H15_6 H 0.1995 0.7479 0.0538
N5_3 N 0.5393(2) 0.6643(2) 0.1082(2)
N3_6 N 0.1033(3) 0.7727(2) 0.8460(2)
C14_6 C 0.2985(3) 0.7723(3) 0.9909(3)
C15_6 C 0.3183(4) 0.7850(3) 0.9246(3)
H12_6 H 0.3761 0.7946 0.9119
C16_6 C 0.2541(6) 0.7837(3) 0.8774(4)
H13_6 H 0.2681 0.7927 0.8322
C17_6 C 0.1700(3) 0.7696(3) 0.8943(3)
C18_6 C 0.1488(4) 0.7556(3) 0.9608(3)
H14_6 H 0.0910 0.7453 0.9730
C20_6 C 0.0276(3) 0.8094(3) 0.8532(3)
H16_6 H 0.0081 0.8329 0.8921
C22_6 C 0.1048(4) 0.7467(3) 0.7827(3)
C23_6 C 0.1713(4) 0.6989(3) 0.7543(3)
H18_6 H 0.2274 0.7237 0.7540
H19_6 H 0.1559 0.6883 0.7076
C24_6 C 0.1817(5) 0.6291(4) 0.7926(4)
H20_6 H 0.2037 0.6387 0.8374
H21_6 H 0.2224 0.5987 0.7689
H22_6 H 0.1256 0.6056 0.7958
O1_6 O 0.97597(17) 0.39450(15) 0.1369(4)
O2_6 O 0.87383(18) 0.31404(16) 0.1465(3)
N1_6 N 0.6305(3) 0.5778(2) 0.0936(2)
C1_6 C 0.8973(2) 0.3765(2) 0.1361(4)
C2_6 C 0.8283(3) 0.4305(2) 0.1262(3)
C3_6 C 0.7446(3) 0.4090(3) 0.1163(3)
H1_6 H 0.7316 0.3602 0.1164
C4_6 C 0.6791(3) 0.4573(2) 0.1062(3)
H2_6 H 0.6213 0.4421 0.1005
C5_6 C 0.6993(3) 0.5281(3) 0.1046(3)
C6_6 C 0.7839(3) 0.5515(3) 0.1131(3)
H3_6 H 0.7970 0.6002 0.1113
C7_6 C 0.8483(3) 0.5025(3) 0.1242(4)
H4_6 H 0.9061 0.5175 0.1304
C8_6 C 0.5733(3) 0.5749(3) 0.0407(3)
H5_6 H 0.5728 0.5416 0.0054
C9_6 C 0.5184(3) 0.6292(3) 0.0497(3)
H6_6 H 0.4726 0.6416 0.0205
C10_6 C 0.6069(3) 0.6326(2) 0.1339(4)
C11_6 C 0.6448(3) 0.6473(3) 0.2007(3)
H7_6 H 0.7080 0.6406 0.1990
H8_6 H 0.6332 0.6967 0.2132
C12_6 C 0.6065(5) 0.5991(4) 0.2520(4)
H9_6 H 0.6225 0.5505 0.2418
H10_6 H 0.6286 0.6117 0.2961
H11_6 H 0.5436 0.6036 0.2516
Cd1_2 Cd 0.48768(2) 0.27107(2) 0.63923(3)
O1_7 O 0.52403(17) 0.39450(15) 0.6369(4)
O2_7 O 0.62617(18) 0.31404(16) 0.6465(3)
O3_7 O 0.4447(3) 0.2840(2) 0.5249(2)
O4_7 O 0.3474(2) 0.26691(18) 0.60326(18)
N1_7 N 0.8695(3) 0.5778(2) 0.5936(2)
N2_4 N 0.9607(2) 0.6643(2) 0.6082(2)
N3_7 N 0.1033(3) 0.2727(2) 0.3460(2)
N4_4 N 0.0340(4) 0.2663(2) 0.2507(3)
C1_7 C 0.6027(2) 0.3765(2) 0.6361(4)
C2_7 C 0.6717(3) 0.4305(2) 0.6262(3)
C3_7 C 0.7554(3) 0.4090(3) 0.6163(3)
H1_7 H 0.7684 0.3602 0.6164
C4_7 C 0.8209(3) 0.4573(2) 0.6062(3)
H2_7 H 0.8787 0.4421 0.6005
C5_7 C 0.8007(3) 0.5281(3) 0.6046(3)
C6_7 C 0.7161(3) 0.5515(3) 0.6131(3)
H3_7 H 0.7030 0.6002 0.6113
C7_7 C 0.6517(3) 0.5025(3) 0.6242(4)
H4_7 H 0.5939 0.5175 0.6304
C8_7 C 0.9267(3) 0.5749(3) 0.5407(3)
H5_7 H 0.9272 0.5416 0.5054
C9_7 C 0.9816(3) 0.6292(3) 0.5497(3)
C10_7 C 0.8931(3) 0.6326(2) 0.6339(4)
C11_7 C 0.8552(3) 0.6473(3) 0.7007(3)
H7_7 H 0.7920 0.6406 0.6990
H8_7 H 0.8668 0.6967 0.7132
C12_7 C 0.8935(5) 0.5991(4) 0.7520(4)
H9_7 H 0.8775 0.5505 0.7418
H10_7 H 0.8714 0.6117 0.7961
H11_7 H 0.9564 0.6036 0.7516
C13_7 C 0.3682(3) 0.2745(2) 0.5432(3)
C14_7 C 0.2985(3) 0.2723(3) 0.4909(3)
C15_7 C 0.3183(4) 0.2850(3) 0.4246(3)
H12_7 H 0.3761 0.2946 0.4119
C16_7 C 0.2541(6) 0.2837(3) 0.3774(4)
H13_7 H 0.2681 0.2927 0.3322
C17_7 C 0.1700(3) 0.2696(3) 0.3943(3)
C18_7 C 0.1488(4) 0.2556(3) 0.4608(3)
H14_7 H 0.0910 0.2453 0.4730
C19_7 C 0.2133(3) 0.2572(2) 0.5086(3)
H15_7 H 0.1995 0.2479 0.5538
C20_7 C 0.0276(3) 0.3094(3) 0.3532(3)
H16_7 H 0.0081 0.3329 0.3921
C22_7 C 0.1048(4) 0.2467(3) 0.2827(3)
C23_7 C 0.1713(4) 0.1989(3) 0.2543(3)
H18_7 H 0.2274 0.2237 0.2540
H19_7 H 0.1559 0.1883 0.2076
C24_7 C 0.1817(5) 0.1291(4) 0.2926(4)
H20_7 H 0.2037 0.1387 0.3374
H21_7 H 0.2224 0.0987 0.2689
H22_7 H 0.1256 0.1056 0.2958
Cd3_4 Cd 0.01232(2) 0.27107(2) 0.13923(3)
N5_4 N 0.5393(2) 0.1643(2) 0.6082(2)
N6_4 N 0.4660(4) 0.2663(2) 0.7507(3)
N1_8 N 0.6305(3) 0.0778(2) 0.5936(2)
C5_8 C 0.6993(3) 0.0281(3) 0.6046(3)
C6_8 C 0.7839(3) 0.0515(3) 0.6131(3)
H3_8 H 0.7970 0.1002 0.6113
C7_8 C 0.8483(3) 0.0025(3) 0.6242(4)
H4_8 H 0.9061 0.0175 0.6304
C8_8 C 0.5733(3) 0.0749(3) 0.5407(3)
H5_8 H 0.5728 0.0416 0.5054
C9_8 C 0.5184(3) 0.1292(3) 0.5497(3)
H6_7 H 0.4726 0.1416 0.5205
C10_8 C 0.6069(3) 0.1326(2) 0.6339(4)
C11_8 C 0.6448(3) 0.1473(3) 0.7007(3)
H7_8 H 0.7080 0.1406 0.6990
H8_8 H 0.6332 0.1967 0.7132
C12_8 C 0.6065(5) 0.0991(4) 0.7520(4)
H9_8 H 0.6225 0.0505 0.7418
H10_8 H 0.6286 0.1117 0.7961
H11_8 H 0.5436 0.1036 0.7516
O1_8 O 0.97597(17) 0.89450(15) 0.6369(4)
O2_8 O 0.87383(18) 0.81404(16) 0.6465(3)
C1_8 C 0.8973(2) 0.8765(2) 0.6361(4)
C2_8 C 0.8283(3) 0.9305(2) 0.6262(3)
C3_8 C 0.7446(3) 0.9090(3) 0.6163(3)
H1_8 H 0.7316 0.8602 0.6164
C4_8 C 0.6791(3) 0.9573(2) 0.6062(3)
H2_8 H 0.6213 0.9421 0.6005
H6_8 H 0.0274 0.1416 0.0205
O3_8 O 0.0553(3) 0.2840(2) 0.0249(2)
O4_8 O 0.1526(2) 0.26691(18) 0.10326(18)
C13_8 C 0.1318(3) 0.2745(2) 0.0432(3)
C19_8 C 0.2867(3) 0.2572(2) 0.0086(3)
H15_8 H 0.3005 0.2479 0.0538
N3_8 N 0.3967(3) 0.2727(2) 0.8460(2)
C14_8 C 0.2015(3) 0.2723(3) 0.9909(3)
C15_8 C 0.1817(4) 0.2850(3) 0.9246(3)
H12_8 H 0.1239 0.2946 0.9119
C16_8 C 0.2459(6) 0.2837(3) 0.8774(4)
H13_8 H 0.2319 0.2927 0.8322
C17_8 C 0.3300(3) 0.2696(3) 0.8943(3)
C18_8 C 0.3512(4) 0.2556(3) 0.9608(3)
H14_8 H 0.4090 0.2453 0.9730
C20_8 C 0.4724(3) 0.3094(3) 0.8532(3)
H16_8 H 0.4919 0.3329 0.8921
C21_5 C 0.5136(3) 0.3059(3) 0.7944(3)
H17_5 H 0.5674 0.3275 0.7846
C22_8 C 0.3952(4) 0.2467(3) 0.7827(3)
C23_8 C 0.3287(4) 0.1989(3) 0.7543(3)
H18_8 H 0.2726 0.2237 0.7540
H19_8 H 0.3441 0.1883 0.7076
C24_8 C 0.3183(5) 0.1291(4) 0.7926(4)
H20_8 H 0.2963 0.1387 0.8374
H21_8 H 0.2776 0.0987 0.7689
H22_8 H 0.3744 0.1056 0.7958
C21_6 C 0.9864(3) 0.3059(3) 0.2944(3)
H17_6 H 0.9326 0.3275 0.2846
C21_7 C 0.0136(3) 0.1941(3) 0.7944(3)
H17_7 H 0.0674 0.1725 0.7846
C21_8 C 0.9864(3) 0.8059(3) 0.7944(3)
H17_8 H 0.9326 0.8275 0.7846
loop_
_geom_bond_atom_site_label_1
_geom_bond_atom_site_label_2
_geom_bond_site_symmetry_1
_geom_bond_site_symmetry_2
H17 C21 1_555 1_555
Cd1 O1 1_555 1_555
O1 C1 1_555 1_555
O2 Cd1 1_555 1_555
O3 Cd1 1_555 1_555
O4 Cd1 1_555 1_555
N1 C5 1_555 1_555
N2 C9 1_555 1_555
N3 C17 1_555 1_555
C1 O2 1_555 1_555
C2 C1 1_555 1_555
C3 C2 1_555 1_555
H1 C3 1_555 1_555
C4 C3 1_555 1_555
H2 C4 1_555 1_555
C5 C4 1_555 1_555
C6 C5 1_555 1_555
H3 C6 1_555 1_555
C7 C2 1_555 1_555
H4 C7 1_555 1_555
C8 N1 1_555 1_555
H5 C8 1_555 1_555
C9 C8 1_555 1_555
C10 N1 1_555 1_555
C11 C10 1_555 1_555
H7 C11 1_555 1_555
H8 C11 1_555 1_555
C12 C11 1_555 1_555
H9 C12 1_555 1_555
H10 C12 1_555 1_555
H11 C12 1_555 1_555
C13 O3 1_555 1_555
C14 C13 1_555 1_555
C15 C14 1_555 1_555
H12 C15 1_555 1_555
C16 C15 1_555 1_555
H13 C16 1_555 1_555
C17 C16 1_555 1_555
C18 C17 1_555 1_555
H14 C18 1_555 1_555
C19 C14 1_555 1_555
H15 C19 1_555 1_555
C20 N3 1_555 1_555
H16 C20 1_555 1_555
C22 N3 1_555 1_555
C23 C22 1_555 1_555
H18 C23 1_555 1_555
H19 C23 1_555 1_555
C24 C23 1_555 1_555
H20 C24 1_555 1_555
H21 C24 1_555 1_555
H22 C24 1_555 1_555
Cd3 N4 1_555 1_555
N5 Cd1 1_555 1_555
N6 Cd1 1_555 1_555
O4 C13 1_555 1_555
N2 C10 1_555 1_555
N4 C22 1_555 1_555
C6 C7 1_555 1_555
C18 C19 1_555 1_555
O1_2 C1_2 1_555 1_555
C1_2 O2_2 1_555 1_555
C2_2 C1_2 1_555 1_555
C3_2 C2_2 1_555 1_555
H1_2 C3_2 1_555 1_555
C4_2 C3_2 1_555 1_555
H2_2 C4_2 1_555 1_555
N1_2 C5_2 1_555 1_555
N5 C9_2 1_555 1_555
C6_2 C5_2 1_555 1_555
H3_2 C6_2 1_555 1_555
H4_2 C7_2 1_555 1_555
C8_2 N1_2 1_555 1_555
H5_2 C8_2 1_555 1_555
C9_2 C8_2 1_555 1_555
H6 C9_2 1_555 1_555
C10_2 N1_2 1_555 1_555
C11_2 C10_2 1_555 1_555
H7_2 C11_2 1_555 1_555
H8_2 C11_2 1_555 1_555
C12_2 C11_2 1_555 1_555
H9_2 C12_2 1_555 1_555
H10_2 C12_2 1_555 1_555
H11_2 C12_2 1_555 1_555
N5 C10_2 1_555 1_555
C6_2 C7_2 1_555 1_555
O3_2 Cd3 1_555 1_555
O4_2 Cd3 1_555 1_555
C13_2 O3_2 1_555 1_555
H15_2 C19_2 1_555 1_555
O4_2 C13_2 1_555 1_555
N3_2 C17_2 1_555 1_555
N6 C21_2 1_555 1_555
C15_2 C14_2 1_555 1_555
H12_2 C15_2 1_555 1_555
C16_2 C15_2 1_555 1_555
H13_2 C16_2 1_555 1_555
C17_2 C16_2 1_555 1_555
C18_2 C17_2 1_555 1_555
H14_2 C18_2 1_555 1_555
C20_2 N3_2 1_555 1_555
H16_2 C20_2 1_555 1_555
C21_2 C20_2 1_555 1_555
H17_2 C21_2 1_555 1_555
C22_2 N3_2 1_555 1_555
C23_2 C22_2 1_555 1_555
H18_2 C23_2 1_555 1_555
H19_2 C23_2 1_555 1_555
C24_2 C23_2 1_555 1_555
H20_2 C24_2 1_555 1_555
H21_2 C24_2 1_555 1_555
H22_2 C24_2 1_555 1_555
N6 C22_2 1_555 1_555
O3_3 Cd2 1_555 1_555
O4_3 Cd2 1_555 1_555
N3_3 C17_3 1_555 1_555
N4_2 C21_3 1_555 1_555
C13_3 O3_3 1_555 1_555
C14_3 C13_3 1_555 1_555
C15_3 C14_3 1_555 1_555
H12_3 C15_3 1_555 1_555
C16_3 C15_3 1_555 1_555
H13_3 C16_3 1_555 1_555
C17_3 C16_3 1_555 1_555
C18_3 C17_3 1_555 1_555
H14_3 C18_3 1_555 1_555
C19_3 C14_3 1_555 1_555
H15_3 C19_3 1_555 1_555
C20_3 N3_3 1_555 1_555
H16_3 C20_3 1_555 1_555
C21_3 C20_3 1_555 1_555
H17_3 C21_3 1_555 1_555
C22_3 N3_3 1_555 1_555
C23_3 C22_3 1_555 1_555
H18_3 C23_3 1_555 1_555
H19_3 C23_3 1_555 1_555
C24_3 C23_3 1_555 1_555
H20_3 C24_3 1_555 1_555
H21_3 C24_3 1_555 1_555
H22_3 C24_3 1_555 1_555
Cd3_2 N4_2 1_555 1_555
N6_2 Cd2 1_555 1_555
O4_3 C13_3 1_555 1_555
N4_2 C22_3 1_555 1_555
C18_3 C19_3 1_555 1_555
Cd3_2 O1_3 1_555 1_555
O1_3 C1_3 1_555 1_555
O2_3 Cd3_2 1_555 1_555
O3_4 Cd3_2 1_555 1_555
O4_4 Cd3_2 1_555 1_555
C1_3 O2_3 1_555 1_555
C2_3 C1_3 1_555 1_555
C3_3 C2_3 1_555 1_555
H1_3 C3_3 1_555 1_555
C4_3 C3_3 1_555 1_555
H2_3 C4_3 1_555 1_555
C13_4 O3_4 1_555 1_555
H15_4 C19_4 1_555 1_555
N5_2 Cd3_2 1_555 1_555
O4_4 C13_4 1_555 1_555
N3_4 C17_4 1_555 1_555
C15_4 C14_4 1_555 1_555
H12_4 C15_4 1_555 1_555
C16_4 C15_4 1_555 1_555
H13_4 C16_4 1_555 1_555
C17_4 C16_4 1_555 1_555
C18_4 C17_4 1_555 1_555
H14_4 C18_4 1_555 1_555
C20_4 N3_4 1_555 1_555
H16_4 C20_4 1_555 1_555
C22_4 N3_4 1_555 1_555
C23_4 C22_4 1_555 1_555
H18_4 C23_4 1_555 1_555
H19_4 C23_4 1_555 1_555
C24_4 C23_4 1_555 1_555
H20_4 C24_4 1_555 1_555
H21_4 C24_4 1_555 1_555
H22_4 C24_4 1_555 1_555
N6_2 C22_4 1_555 1_555
N1_3 C5_3 1_555 1_555
N2_2 C9_3 1_555 1_555
C6_3 C5_3 1_555 1_555
H3_3 C6_3 1_555 1_555
H4_3 C7_3 1_555 1_555
C8_3 N1_3 1_555 1_555
H5_3 C8_3 1_555 1_555
C9_3 C8_3 1_555 1_555
C10_3 N1_3 1_555 1_555
C11_3 C10_3 1_555 1_555
H7_3 C11_3 1_555 1_555
H8_3 C11_3 1_555 1_555
C12_3 C11_3 1_555 1_555
H9_3 C12_3 1_555 1_555
H10_3 C12_3 1_555 1_555
H11_3 C12_3 1_555 1_555
N2_2 C10_3 1_555 1_555
C6_3 C7_3 1_555 1_555
O1_4 C1_4 1_555 1_555
N1_4 C5_4 1_555 1_555
N5_2 C9_4 1_555 1_555
C1_4 O2_4 1_555 1_555
C2_4 C1_4 1_555 1_555
C3_4 C2_4 1_555 1_555
H1_4 C3_4 1_555 1_555
C4_4 C3_4 1_555 1_555
H2_4 C4_4 1_555 1_555
C5_4 C4_4 1_555 1_555
C6_4 C5_4 1_555 1_555
H3_4 C6_4 1_555 1_555
C7_4 C2_4 1_555 1_555
H4_4 C7_4 1_555 1_555
C8_4 N1_4 1_555 1_555
H5_4 C8_4 1_555 1_555
C9_4 C8_4 1_555 1_555
H6_4 C9_4 1_555 1_555
C10_4 N1_4 1_555 1_555
C11_4 C10_4 1_555 1_555
H7_4 C11_4 1_555 1_555
H8_4 C11_4 1_555 1_555
C12_4 C11_4 1_555 1_555
H9_4 C12_4 1_555 1_555
H10_4 C12_4 1_555 1_555
H11_4 C12_4 1_555 1_555
N5_2 C10_4 1_555 1_555
C6_4 C7_4 1_555 1_555
O3_5 Cd2_2 1_555 1_555
O4_5 Cd2_2 1_555 1_555
N3_5 C17_5 1_555 1_555
N4_3 C21_4 1_555 1_555
C13_5 O3_5 1_555 1_555
C14_5 C13_5 1_555 1_555
C15_5 C14_5 1_555 1_555
H12_5 C15_5 1_555 1_555
C16_5 C15_5 1_555 1_555
H13_5 C16_5 1_555 1_555
C17_5 C16_5 1_555 1_555
C18_5 C17_5 1_555 1_555
H14_5 C18_5 1_555 1_555
C19_5 C14_5 1_555 1_555
H15_5 C19_5 1_555 1_555
C20_5 N3_5 1_555 1_555
H16_5 C20_5 1_555 1_555
C21_4 C20_5 1_555 1_555
H17_4 C21_4 1_555 1_555
C22_5 N3_5 1_555 1_555
C23_5 C22_5 1_555 1_555
H18_5 C23_5 1_555 1_555
H19_5 C23_5 1_555 1_555
C24_5 C23_5 1_555 1_555
H20_5 C24_5 1_555 1_555
H21_5 C24_5 1_555 1_555
H22_5 C24_5 1_555 1_555
Cd3_3 N4_3 1_555 1_555
N6_3 Cd2_2 1_555 1_555
O4_5 C13_5 1_555 1_555
N4_3 C22_5 1_555 1_555
C18_5 C19_5 1_555 1_555
N1_5 C5_5 1_555 1_555
N2_3 C9_5 1_555 1_555
C6_5 C5_5 1_555 1_555
H3_5 C6_5 1_555 1_555
H4_5 C7_5 1_555 1_555
C8_5 N1_5 1_555 1_555
H5_5 C8_5 1_555 1_555
C9_5 C8_5 1_555 1_555
C10_5 N1_5 1_555 1_555
C11_5 C10_5 1_555 1_555
H7_5 C11_5 1_555 1_555
H8_5 C11_5 1_555 1_555
C12_5 C11_5 1_555 1_555
H9_5 C12_5 1_555 1_555
H10_5 C12_5 1_555 1_555
H11_5 C12_5 1_555 1_555
N2_3 C10_5 1_555 1_555
C6_5 C7_5 1_555 1_555
Cd3_3 O1_5 1_555 1_555
O1_5 C1_5 1_555 1_555
O2_5 Cd3_3 1_555 1_555
O3_6 Cd3_3 1_555 1_555
O4_6 Cd3_3 1_555 1_555
C1_5 O2_5 1_555 1_555
C2_5 C1_5 1_555 1_555
C3_5 C2_5 1_555 1_555
H1_5 C3_5 1_555 1_555
C4_5 C3_5 1_555 1_555
H2_5 C4_5 1_555 1_555
C13_6 O3_6 1_555 1_555
H15_6 C19_6 1_555 1_555
N5_3 Cd3_3 1_555 1_555
O4_6 C13_6 1_555 1_555
N3_6 C17_6 1_555 1_555
C15_6 C14_6 1_555 1_555
H12_6 C15_6 1_555 1_555
C16_6 C15_6 1_555 1_555
H13_6 C16_6 1_555 1_555
C17_6 C16_6 1_555 1_555
C18_6 C17_6 1_555 1_555
H14_6 C18_6 1_555 1_555
C20_6 N3_6 1_555 1_555
H16_6 C20_6 1_555 1_555
C22_6 N3_6 1_555 1_555
C23_6 C22_6 1_555 1_555
H18_6 C23_6 1_555 1_555
H19_6 C23_6 1_555 1_555
C24_6 C23_6 1_555 1_555
H20_6 C24_6 1_555 1_555
H21_6 C24_6 1_555 1_555
H22_6 C24_6 1_555 1_555
N6_3 C22_6 1_555 1_555
O1_6 C1_6 1_555 1_555
N1_6 C5_6 1_555 1_555
N5_3 C9_6 1_555 1_555
C1_6 O2_6 1_555 1_555
C2_6 C1_6 1_555 1_555
C3_6 C2_6 1_555 1_555
H1_6 C3_6 1_555 1_555
C4_6 C3_6 1_555 1_555
H2_6 C4_6 1_555 1_555
C5_6 C4_6 1_555 1_555
C6_6 C5_6 1_555 1_555
H3_6 C6_6 1_555 1_555
C7_6 C2_6 1_555 1_555
H4_6 C7_6 1_555 1_555
C8_6 N1_6 1_555 1_555
H5_6 C8_6 1_555 1_555
C9_6 C8_6 1_555 1_555
H6_6 C9_6 1_555 1_555
C10_6 N1_6 1_555 1_555
C11_6 C10_6 1_555 1_555
H7_6 C11_6 1_555 1_555
H8_6 C11_6 1_555 1_555
C12_6 C11_6 1_555 1_555
H9_6 C12_6 1_555 1_555
H10_6 C12_6 1_555 1_555
H11_6 C12_6 1_555 1_555
N5_3 C10_6 1_555 1_555
C6_6 C7_6 1_555 1_555
Cd1_2 O1_7 1_555 1_555
O1_7 C1_7 1_555 1_555
O2_7 Cd1_2 1_555 1_555
O3_7 Cd1_2 1_555 1_555
O4_7 Cd1_2 1_555 1_555
N1_7 C5_7 1_555 1_555
N2_4 C9_7 1_555 1_555
N3_7 C17_7 1_555 1_555
C1_7 O2_7 1_555 1_555
C2_7 C1_7 1_555 1_555
C3_7 C2_7 1_555 1_555
H1_7 C3_7 1_555 1_555
C4_7 C3_7 1_555 1_555
H2_7 C4_7 1_555 1_555
C5_7 C4_7 1_555 1_555
C6_7 C5_7 1_555 1_555
H3_7 C6_7 1_555 1_555
C7_7 C2_7 1_555 1_555
H4_7 C7_7 1_555 1_555
C8_7 N1_7 1_555 1_555
H5_7 C8_7 1_555 1_555
C9_7 C8_7 1_555 1_555
C10_7 N1_7 1_555 1_555
C11_7 C10_7 1_555 1_555
H7_7 C11_7 1_555 1_555
H8_7 C11_7 1_555 1_555
C12_7 C11_7 1_555 1_555
H9_7 C12_7 1_555 1_555
H10_7 C12_7 1_555 1_555
H11_7 C12_7 1_555 1_555
C13_7 O3_7 1_555 1_555
C14_7 C13_7 1_555 1_555
C15_7 C14_7 1_555 1_555
H12_7 C15_7 1_555 1_555
C16_7 C15_7 1_555 1_555
H13_7 C16_7 1_555 1_555
C17_7 C16_7 1_555 1_555
C18_7 C17_7 1_555 1_555
H14_7 C18_7 1_555 1_555
C19_7 C14_7 1_555 1_555
H15_7 C19_7 1_555 1_555
C20_7 N3_7 1_555 1_555
H16_7 C20_7 1_555 1_555
C22_7 N3_7 1_555 1_555
C23_7 C22_7 1_555 1_555
H18_7 C23_7 1_555 1_555
H19_7 C23_7 1_555 1_555
C24_7 C23_7 1_555 1_555
H20_7 C24_7 1_555 1_555
H21_7 C24_7 1_555 1_555
H22_7 C24_7 1_555 1_555
Cd3_4 N4_4 1_555 1_555
N5_4 Cd1_2 1_555 1_555
N6_4 Cd1_2 1_555 1_555
O4_7 C13_7 1_555 1_555
N2_4 C10_7 1_555 1_555
N4_4 C22_7 1_555 1_555
C6_7 C7_7 1_555 1_555
C18_7 C19_7 1_555 1_555
N1_8 C5_8 1_555 1_555
N5_4 C9_8 1_555 1_555
C6_8 C5_8 1_555 1_555
H3_8 C6_8 1_555 1_555
H4_8 C7_8 1_555 1_555
C8_8 N1_8 1_555 1_555
H5_8 C8_8 1_555 1_555
C9_8 C8_8 1_555 1_555
H6_7 C9_8 1_555 1_555
C10_8 N1_8 1_555 1_555
C11_8 C10_8 1_555 1_555
H7_8 C11_8 1_555 1_555
H8_8 C11_8 1_555 1_555
C12_8 C11_8 1_555 1_555
H9_8 C12_8 1_555 1_555
H10_8 C12_8 1_555 1_555
H11_8 C12_8 1_555 1_555
N5_4 C10_8 1_555 1_555
C6_8 C7_8 1_555 1_555
O1_8 C1_8 1_555 1_555
C1_8 O2_8 1_555 1_555
C2_8 C1_8 1_555 1_555
C3_8 C2_8 1_555 1_555
H1_8 C3_8 1_555 1_555
C4_8 C3_8 1_555 1_555
H2_8 C4_8 1_555 1_555
O3_8 Cd3_4 1_555 1_555
O4_8 Cd3_4 1_555 1_555
C13_8 O3_8 1_555 1_555
H15_8 C19_8 1_555 1_555
O4_8 C13_8 1_555 1_555
N3_8 C17_8 1_555 1_555
N6_4 C21_5 1_555 1_555
C15_8 C14_8 1_555 1_555
H12_8 C15_8 1_555 1_555
C16_8 C15_8 1_555 1_555
H13_8 C16_8 1_555 1_555
C17_8 C16_8 1_555 1_555
C18_8 C17_8 1_555 1_555
H14_8 C18_8 1_555 1_555
C20_8 N3_8 1_555 1_555
H16_8 C20_8 1_555 1_555
C21_5 C20_8 1_555 1_555
H17_5 C21_5 1_555 1_555
C22_8 N3_8 1_555 1_555
C23_8 C22_8 1_555 1_555
H18_8 C23_8 1_555 1_555
H19_8 C23_8 1_555 1_555
C24_8 C23_8 1_555 1_555
H20_8 C24_8 1_555 1_555
H21_8 C24_8 1_555 1_555
H22_8 C24_8 1_555 1_555
N6_4 C22_8 1_555 1_555
H17_6 C21_6 1_555 1_555
H17_7 C21_7 1_555 1_555
H17_8 C21_8 1_555 1_555

#END
