
###############################################################################
#
# This file contains modified crystal structure data generated from the
# MOF subset of the Cambridge Structural Database (CSD) v543 
# hosted by the Cambridge Crystallographic Data Centre (CCDC).
#
# This work is licensed under the Creative Commons
# Attribution-NonCommercial-ShareAlike 4.0 International License.
# To view a copy of this license, visit
# http://creativecommons.org/licenses/by-nc-sa/4.0/
# or send a letter to
# Creative Commons, PO Box 1866, Mountain View, CA 94042, USA.
#
# CIF created using the CSD Python API on 29 September 2022
# The structure has been converted into the P1 space group
# The structure has a 3D framework
# The original CSD entry KUJNUZ is in the tetragonal crystal system
# The framework has been calculated to contain at least 10.0% void space
# The void calculation uses a probe of radius 1.32A, grid spacing 0.4
# H atom positions have been added when not included in the experimental data
#
###############################################################################

data_KUJNUZ
_chemical_formula_moiety         '(C832 H608 N320 O160 Zn80)n'
_symmetry_cell_setting           triclinic
_symmetry_space_group_name_H-M   'P 1'
_symmetry_Int_Tables_number      1
_space_group_name_Hall           'P 1'
loop_
_symmetry_equiv_pos_site_id
_symmetry_equiv_pos_as_xyz
1 x,y,z
_cell_length_a                   30.048(5)
_cell_length_b                   30.048(5)
_cell_length_c                   37.908(5)
_cell_angle_alpha                90
_cell_angle_beta                 90
_cell_angle_gamma                90
_cell_volume                     34226.5
loop_
_atom_site_label
_atom_site_type_symbol
_atom_site_fract_x
_atom_site_fract_y
_atom_site_fract_z
Zn1 Zn 0.30861(3) 0.08589(3) 0.62523(4)
Zn2 Zn 0.29210(4) 0.18012(4) 0.56836(4)
Zn3 Zn 0.40330(4) 0.10827(4) 0.68159(4)
Zn4 Zn 0.21167(3) 0.07288(4) 0.67940(4)
C1 C 0.3154(3) 0.3652(2) 0.4730(2)
C2 C 0.3382(3) 0.3289(3) 0.4606(2)
C3 C 0.3347(3) 0.2887(3) 0.4776(3)
H1 H 0.3501 0.2641 0.4691
C4 C 0.3085(3) 0.2849(2) 0.5070(2)
C5 C 0.2857(2) 0.3212(3) 0.5195(2)
H2 H 0.2680 0.3186 0.5394
C6 C 0.2892(2) 0.3614(3) 0.5025(2)
H3 H 0.2738 0.3860 0.5109
C7 C 0.3033(5) 0.2432(5) 0.5259(4)
C8 C 0.3195(4) 0.4114(4) 0.4534(4)
C9 C 0.5276(3) 0.1029(3) 0.7239(2)
C10 C 0.5682(4) 0.1168(3) 0.7114(2)
C11 C 0.6058(3) 0.1108(3) 0.7314(3)
H4 H 0.6333 0.1202 0.7229
C12 C 0.6029(3) 0.0908(3) 0.7639(3)
C13 C 0.5624(3) 0.0769(2) 0.7764(2)
H5 H 0.5604 0.0634 0.7984
C14 C 0.5247(2) 0.0829(2) 0.7564(3)
H6 H 0.4973 0.0735 0.7649
C15 C 0.4836(5) 0.1100(5) 0.7036(4)
C16 C 0.6458(5) 0.0850(6) 0.7801(4)
C23 C 0.3724(2) 0.2124(3) 0.6133(2)
C24 C 0.3989(3) 0.1954(2) 0.6397(3)
C25 C 0.4337(3) 0.2202(3) 0.6529(2)
H11 H 0.4515 0.2087 0.6707
C26 C 0.4420(2) 0.2621(3) 0.6397(3)
H12 H 0.4654 0.2789 0.6486
C27 C 0.4155(3) 0.2792(2) 0.6133(3)
H13 H 0.4211 0.3075 0.6043
C28 C 0.3807(3) 0.2544(3) 0.6001(2)
H14 H 0.3628 0.2659 0.5822
C29 C 0.2876(3) 0.0740(2) 0.7371(2)
C30 C 0.3331(3) 0.0829(2) 0.73719(19)
C31 C 0.3568(2) 0.0816(2) 0.7687(3)
H15 H 0.3872 0.0875 0.7687
C32 C 0.3352(3) 0.0713(2) 0.8001(2)
H16 H 0.3511 0.0704 0.8212
C33 C 0.2897(3) 0.0625(2) 0.8000(2)
H17 H 0.2752 0.0556 0.8210
C34 C 0.2659(2) 0.0638(2) 0.7686(3)
H18 H 0.2355 0.0579 0.7685
C35 C 0.3002(2) 0.0584(3) 0.51513(17)
C36 C 0.2923(2) 0.1040(3) 0.51440(19)
C37 C 0.2832(2) 0.1251(2) 0.4825(2)
H19 H 0.2779 0.1556 0.4820
C38 C 0.28219(19) 0.1006(3) 0.45139(19)
H20 H 0.2762 0.1148 0.4301
C39 C 0.2901(2) 0.0550(3) 0.45212(18)
H21 H 0.2894 0.0387 0.4313
C40 C 0.29915(19) 0.0339(2) 0.4840(2)
H22 H 0.3045 0.0034 0.4845
C42 C 0.4336(3) 0.0175(2) 0.6425(2)
C43 C 0.4733(3) 0.0071(3) 0.6571(2)
H23 H 0.4862 0.0261 0.6735
C47 C 0.1807(3) 0.1563(2) 0.6360(2)
C48 C 0.2004(2) 0.1819(3) 0.6113(2)
C49 C 0.1786(3) 0.2172(3) 0.5977(2)
H27 H 0.1922 0.2348 0.5807
C50 C 0.1371(3) 0.2269(3) 0.6089(3)
H28 H 0.1221 0.2513 0.5995
C51 C 0.1174(2) 0.2014(3) 0.6336(3)
H29 H 0.0888 0.2081 0.6413
C52 C 0.1392(3) 0.1660(3) 0.6472(2)
H30 H 0.1256 0.1484 0.6642
N2 N 0.2662(2) 0.0261(3) 0.6260(2)
N3 N 0.2288(3) 0.0228(2) 0.6457(2)
N4 N 0.3423(3) 0.1818(3) 0.6027(2)
N5 N 0.3488(2) 0.1473(3) 0.6238(2)
N6 N 0.3824(3) 0.1543(2) 0.6454(2)
N7 N 0.2713(3) 0.0776(3) 0.7030(3)
N8 N 0.3072(3) 0.0868(2) 0.6834(2)
N9 N 0.3437(2) 0.0896(2) 0.7035(2)
N10 N 0.3092(2) 0.0481(3) 0.5497(2)
N11 N 0.3052(2) 0.0862(3) 0.5675(2)
N12 N 0.2954(3) 0.1203(3) 0.5467(2)
N13 N 0.3747(3) 0.0066(2) 0.6082(2)
N14 N 0.3682(2) 0.0449(3) 0.6256(2)
N15 N 0.4035(2) 0.0534(2) 0.6459(2)
N16 N 0.2106(3) 0.1249(2) 0.6448(2)
N17 N 0.2473(2) 0.1314(2) 0.6250(2)
N18 N 0.2426(3) 0.1663(3) 0.6039(2)
N19 N 0.3583(5) 0.3256(5) 0.4308(3)
H31 H 0.3583 0.3477 0.4164
H32 H 0.3718 0.3013 0.4253
N20 N 0.5704(4) 0.1367(5) 0.6833(4)
H33 H 0.5466 0.1420 0.6715
H34 H 0.5958 0.1455 0.6755
O1 O 0.2754(3) 0.2415(3) 0.5518(3)
O2 O 0.3278(3) 0.2126(3) 0.5216(3)
O3 O 0.3001(3) 0.4441(2) 0.4666(2)
O4 O 0.3417(3) 0.4155(3) 0.4257(3)
O5 O 0.4486(2) 0.0920(3) 0.7181(2)
O6 O 0.4816(3) 0.1285(3) 0.6747(3)
O7 O 0.6460(3) 0.0603(3) 0.8077(3)
O8 O 0.6803(3) 0.1049(4) 0.7740(3)
O10 O 0.3952(3) 0.1704(3) 0.7190(3)
Zn6 Zn 0.71167(3) 0.07288(4) 0.82060(4)
Zn7 Zn 0.32794(4) 0.48754(4) 0.42910(4)
O13 O 0.1460(3) 0.0603(3) 0.6923(3)
O14 O 0.1803(3) 0.1049(4) 0.7260(3)
H35 H 0.363844 0.180807 0.718387
H36 H 0.403219 0.161877 0.743498
Zn5 Zn 0.32794(4) 0.98754(4) 0.57090(4)
C17 C 0.2390(2) 0.9617(3) 0.6159(2)
C18 C 0.2112(3) 0.9832(2) 0.6390(2)
C19 C 0.1737(3) 0.9622(3) 0.6513(2)
H7 H 0.1549 0.9768 0.6669
C20 C 0.1641(3) 0.9197(3) 0.6405(3)
H8 H 0.1387 0.9055 0.6488
C21 C 0.1919(4) 0.8982(2) 0.6174(3)
H9 H 0.1853 0.8694 0.6100
C22 C 0.2293(3) 0.9192(3) 0.6051(2)
H10 H 0.2482 0.9046 0.5894
C41 C 0.4149(2) 0.9899(3) 0.6186(2)
C44 C 0.4943(2) 0.9691(3) 0.6478(2)
H24 H 0.5216 0.9620 0.6578
C45 C 0.4755(3) 0.9415(2) 0.6239(3)
H25 H 0.4900 0.9154 0.6175
C46 C 0.4359(3) 0.9519(3) 0.6093(2)
H26 H 0.4230 0.9329 0.5929
N1 N 0.2731(2) 0.9901(3) 0.6077(2)
O9 O 0.3869(2) 0.9894(2) 0.53363(19)
O11 O 0.3001(3) 0.9441(2) 0.5334(2)
O12 O 0.3417(3) 0.9155(3) 0.5743(3)
H37 H 0.414844 0.991883 0.547475
H38 H 0.387556 0.961659 0.519404
C9_2 C 0.0276(3) 0.6029(3) 0.2239(2)
C10_2 C 0.0682(4) 0.6168(3) 0.2114(2)
C11_2 C 0.1058(3) 0.6108(3) 0.2314(3)
H4_2 H 0.1333 0.6202 0.2229
C12_2 C 0.1029(3) 0.5908(3) 0.2639(3)
C13_2 C 0.0624(3) 0.5769(2) 0.2764(2)
H5_2 H 0.0604 0.5634 0.2984
C14_2 C 0.0247(2) 0.5829(2) 0.2564(3)
C16_2 C 0.1458(5) 0.5850(6) 0.2801(4)
H24_2 H 0.0216 0.4620 0.1578
N20_2 N 0.0704(4) 0.6367(5) 0.1833(4)
H33_2 H 0.0466 0.6420 0.1715
H34_2 H 0.0958 0.6455 0.1755
O7_2 O 0.1460(3) 0.5603(3) 0.3077(3)
O8_2 O 0.1803(3) 0.6049(4) 0.2740(3)
Zn6_2 Zn 0.21167(3) 0.57288(4) 0.32060(4)
Zn1_2 Zn 0.80861(3) 0.58589(3) 0.12523(4)
Zn2_2 Zn 0.79210(4) 0.68012(4) 0.06836(4)
Zn3_2 Zn 0.90330(4) 0.60827(4) 0.18159(4)
Zn4_2 Zn 0.71167(3) 0.57288(4) 0.17940(4)
Zn5_2 Zn 0.82794(4) 0.48754(4) 0.07090(4)
C4_2 C 0.8085(3) 0.7849(2) 0.0070(2)
C5_2 C 0.7857(2) 0.8212(3) 0.0195(2)
H2_2 H 0.7680 0.8186 0.0394
C6_2 C 0.7892(2) 0.8614(3) 0.0025(2)
H3_2 H 0.7738 0.8860 0.0109
C7_2 C 0.8033(5) 0.7432(5) 0.0259(4)
H6_2 H 0.9973 0.5735 0.2649
C15_2 C 0.9836(5) 0.6100(5) 0.2036(4)
C17_2 C 0.7390(2) 0.4617(3) 0.1159(2)
C18_2 C 0.7112(3) 0.4832(2) 0.1390(2)
C19_2 C 0.6737(3) 0.4622(3) 0.1513(2)
H7_2 H 0.6549 0.4768 0.1669
C20_2 C 0.6641(3) 0.4197(3) 0.1405(3)
H8_2 H 0.6387 0.4055 0.1488
C21_2 C 0.6919(4) 0.3982(2) 0.1174(3)
H9_2 H 0.6853 0.3694 0.1100
C22_2 C 0.7293(3) 0.4192(3) 0.1051(2)
H10_2 H 0.7482 0.4046 0.0894
C23_2 C 0.8724(2) 0.7124(3) 0.1133(2)
C24_2 C 0.8989(3) 0.6954(2) 0.1397(3)
C25_2 C 0.9337(3) 0.7202(3) 0.1529(2)
H11_2 H 0.9515 0.7087 0.1707
C26_2 C 0.9420(2) 0.7621(3) 0.1397(3)
H12_2 H 0.9654 0.7789 0.1486
C27_2 C 0.9155(3) 0.7792(2) 0.1133(3)
H13_2 H 0.9211 0.8075 0.1043
C28_2 C 0.8807(3) 0.7544(3) 0.1001(2)
H14_2 H 0.8628 0.7659 0.0822
C29_2 C 0.7876(3) 0.5740(2) 0.2371(2)
C30_2 C 0.8331(3) 0.5829(2) 0.23719(19)
C31_2 C 0.8568(2) 0.5816(2) 0.2687(3)
H15_2 H 0.8872 0.5875 0.2687
C32_2 C 0.8352(3) 0.5713(2) 0.3001(2)
H16_2 H 0.8511 0.5704 0.3212
C33_2 C 0.7897(3) 0.5625(2) 0.3000(2)
H17_2 H 0.7752 0.5556 0.3210
C34_2 C 0.7659(2) 0.5638(2) 0.2686(3)
H18_2 H 0.7355 0.5579 0.2685
C35_2 C 0.8002(2) 0.5584(3) 0.01513(17)
C36_2 C 0.7923(2) 0.6040(3) 0.01440(19)
C41_2 C 0.9149(2) 0.4899(3) 0.1186(2)
C42_2 C 0.9336(3) 0.5175(2) 0.1425(2)
C43_2 C 0.9733(3) 0.5071(3) 0.1571(2)
H23_2 H 0.9862 0.5261 0.1735
C44_2 C 0.9943(2) 0.4691(3) 0.1478(2)
C45_2 C 0.9755(3) 0.4415(2) 0.1239(3)
H25_2 H 0.9900 0.4154 0.1175
C46_2 C 0.9359(3) 0.4519(3) 0.1093(2)
H26_2 H 0.9230 0.4329 0.0929
C47_2 C 0.6807(3) 0.6563(2) 0.1360(2)
C48_2 C 0.7004(2) 0.6819(3) 0.1113(2)
C49_2 C 0.6786(3) 0.7172(3) 0.0977(2)
H27_2 H 0.6922 0.7348 0.0807
C50_2 C 0.6371(3) 0.7269(3) 0.1089(3)
H28_2 H 0.6221 0.7513 0.0995
C51_2 C 0.6174(2) 0.7014(3) 0.1336(3)
H29_2 H 0.5888 0.7081 0.1413
C52_2 C 0.6392(3) 0.6660(3) 0.1472(2)
H30_2 H 0.6256 0.6484 0.1642
N1_2 N 0.7731(2) 0.4901(3) 0.1077(2)
N2_2 N 0.7662(2) 0.5261(3) 0.1260(2)
N3_2 N 0.7288(3) 0.5228(2) 0.1457(2)
N4_2 N 0.8423(3) 0.6818(3) 0.1027(2)
N5_2 N 0.8488(2) 0.6473(3) 0.1238(2)
N6_2 N 0.8824(3) 0.6543(2) 0.1454(2)
N7_2 N 0.7713(3) 0.5776(3) 0.2030(3)
N8_2 N 0.8072(3) 0.5868(2) 0.1834(2)
N9_2 N 0.8437(2) 0.5896(2) 0.2035(2)
N10_2 N 0.8092(2) 0.5481(3) 0.0497(2)
N11_2 N 0.8052(2) 0.5862(3) 0.0675(2)
N12_2 N 0.7954(3) 0.6203(3) 0.0467(2)
N13_2 N 0.8747(3) 0.5066(2) 0.1082(2)
N14_2 N 0.8682(2) 0.5449(3) 0.1256(2)
N15_2 N 0.9035(2) 0.5534(2) 0.1459(2)
N16_2 N 0.7106(3) 0.6249(2) 0.1448(2)
N17_2 N 0.7473(2) 0.6314(2) 0.1250(2)
N18_2 N 0.7426(3) 0.6663(3) 0.1039(2)
O1_2 O 0.7754(3) 0.7415(3) 0.0518(3)
O2_2 O 0.8278(3) 0.7126(3) 0.0216(3)
O5_2 O 0.9486(2) 0.5920(3) 0.2181(2)
O6_2 O 0.9816(3) 0.6285(3) 0.1747(3)
O9_2 O 0.8869(2) 0.4894(2) 0.03363(19)
O10_2 O 0.8952(3) 0.6704(3) 0.2190(3)
O11_2 O 0.8001(3) 0.4441(2) 0.0334(2)
O12_2 O 0.8417(3) 0.4155(3) 0.0743(3)
O13_2 O 0.6460(3) 0.5603(3) 0.1923(3)
O14_2 O 0.6803(3) 0.6049(4) 0.2260(3)
H35_2 H 0.863844 0.680807 0.218387
H36_2 H 0.903219 0.661877 0.243498
H37_2 H 0.914844 0.491883 0.0474745
H38_2 H 0.887556 0.461659 0.0194035
Zn1_3 Zn 0.30861(3) 0.58589(3) 0.37477(4)
Zn2_3 Zn 0.29210(4) 0.68012(4) 0.43164(4)
Zn3_3 Zn 0.40330(4) 0.60827(4) 0.31841(4)
C1_2 C 0.3154(3) 0.8652(2) 0.5270(2)
C2_2 C 0.3382(3) 0.8289(3) 0.5394(2)
C3_2 C 0.3347(3) 0.7887(3) 0.5224(3)
H1_2 H 0.3501 0.7641 0.5309
C4_3 C 0.3085(3) 0.7849(2) 0.4930(2)
C5_3 C 0.2857(2) 0.8212(3) 0.4805(2)
H2_3 H 0.2680 0.8186 0.4606
C6_3 C 0.2892(2) 0.8614(3) 0.4975(2)
H3_3 H 0.2738 0.8860 0.4891
C7_3 C 0.3033(5) 0.7432(5) 0.4741(4)
C8_2 C 0.3195(4) 0.9114(4) 0.5466(4)
C9_3 C 0.5276(3) 0.6029(3) 0.2761(2)
C10_3 C 0.5682(4) 0.6168(3) 0.2886(2)
C11_3 C 0.6058(3) 0.6108(3) 0.2686(3)
H4_3 H 0.6333 0.6202 0.2771
C12_3 C 0.6029(3) 0.5908(3) 0.2361(3)
C13_3 C 0.5624(3) 0.5769(2) 0.2236(2)
H5_3 H 0.5604 0.5634 0.2016
C14_3 C 0.5247(2) 0.5829(2) 0.2436(3)
H6_3 H 0.4973 0.5735 0.2351
C15_3 C 0.4836(5) 0.6100(5) 0.2964(4)
C16_3 C 0.6458(5) 0.5850(6) 0.2199(4)
C17_3 C 0.2390(2) 0.4617(3) 0.3841(2)
C18_3 C 0.2112(3) 0.4832(2) 0.3610(2)
C19_3 C 0.1737(3) 0.4622(3) 0.3487(2)
H7_3 H 0.1549 0.4768 0.3331
C20_3 C 0.1641(3) 0.4197(3) 0.3595(3)
H8_3 H 0.1387 0.4055 0.3512
C21_3 C 0.1919(4) 0.3982(2) 0.3826(3)
H9_3 H 0.1853 0.3694 0.3900
C22_3 C 0.2293(3) 0.4192(3) 0.3949(2)
H10_3 H 0.2482 0.4046 0.4106
C23_3 C 0.3724(2) 0.7124(3) 0.3867(2)
C24_3 C 0.3989(3) 0.6954(2) 0.3603(3)
C25_3 C 0.4337(3) 0.7202(3) 0.3471(2)
H11_3 H 0.4515 0.7087 0.3293
C26_3 C 0.4420(2) 0.7621(3) 0.3603(3)
H12_3 H 0.4654 0.7789 0.3514
C27_3 C 0.4155(3) 0.7792(2) 0.3867(3)
H13_3 H 0.4211 0.8075 0.3957
C28_3 C 0.3807(3) 0.7544(3) 0.3999(2)
H14_3 H 0.3628 0.7659 0.4178
C29_3 C 0.2876(3) 0.5740(2) 0.2629(2)
C30_3 C 0.3331(3) 0.5829(2) 0.26281(19)
C31_3 C 0.3568(2) 0.5816(2) 0.2313(3)
H15_3 H 0.3872 0.5875 0.2313
C32_3 C 0.3352(3) 0.5713(2) 0.1999(2)
H16_3 H 0.3511 0.5704 0.1788
C33_3 C 0.2897(3) 0.5625(2) 0.2000(2)
H17_3 H 0.2752 0.5556 0.1790
C34_3 C 0.2659(2) 0.5638(2) 0.2314(3)
H18_3 H 0.2355 0.5579 0.2315
C35_3 C 0.3002(2) 0.5584(3) 0.48487(17)
C36_3 C 0.2923(2) 0.6040(3) 0.48560(19)
C37_2 C 0.2832(2) 0.6251(2) 0.5175(2)
H19_2 H 0.2779 0.6556 0.5180
C38_2 C 0.28219(19) 0.6006(3) 0.54861(19)
H20_2 H 0.2762 0.6148 0.5699
C39_2 C 0.2901(2) 0.5550(3) 0.54788(18)
H21_2 H 0.2894 0.5387 0.5687
C40_2 C 0.29915(19) 0.5339(2) 0.5160(2)
H22_2 H 0.3045 0.5034 0.5155
C41_3 C 0.4149(2) 0.4899(3) 0.3814(2)
C42_3 C 0.4336(3) 0.5175(2) 0.3575(2)
C43_3 C 0.4733(3) 0.5071(3) 0.3429(2)
H23_3 H 0.4862 0.5261 0.3265
C44_3 C 0.4943(2) 0.4691(3) 0.3522(2)
H24_3 H 0.5216 0.4620 0.3422
C45_3 C 0.4755(3) 0.4415(2) 0.3761(3)
H25_3 H 0.4900 0.4154 0.3825
C46_3 C 0.4359(3) 0.4519(3) 0.3907(2)
H26_3 H 0.4230 0.4329 0.4071
C47_3 C 0.1807(3) 0.6563(2) 0.3640(2)
C48_3 C 0.2004(2) 0.6819(3) 0.3887(2)
C49_3 C 0.1786(3) 0.7172(3) 0.4023(2)
H27_3 H 0.1922 0.7348 0.4193
C50_3 C 0.1371(3) 0.7269(3) 0.3911(3)
H28_3 H 0.1221 0.7513 0.4005
C51_3 C 0.1174(2) 0.7014(3) 0.3664(3)
H29_3 H 0.0888 0.7081 0.3587
C52_3 C 0.1392(3) 0.6660(3) 0.3528(2)
H30_3 H 0.1256 0.6484 0.3358
N1_3 N 0.2731(2) 0.4901(3) 0.3923(2)
N2_3 N 0.2662(2) 0.5261(3) 0.3740(2)
N3_3 N 0.2288(3) 0.5228(2) 0.3543(2)
N4_3 N 0.3423(3) 0.6818(3) 0.3973(2)
N5_3 N 0.3488(2) 0.6473(3) 0.3762(2)
N6_3 N 0.3824(3) 0.6543(2) 0.3546(2)
N7_3 N 0.2713(3) 0.5776(3) 0.2970(3)
N8_3 N 0.3072(3) 0.5868(2) 0.3166(2)
N9_3 N 0.3437(2) 0.5896(2) 0.2965(2)
N10_3 N 0.3092(2) 0.5481(3) 0.4503(2)
N11_3 N 0.3052(2) 0.5862(3) 0.4325(2)
N12_3 N 0.2954(3) 0.6203(3) 0.4533(2)
N13_3 N 0.3747(3) 0.5066(2) 0.3918(2)
N14_3 N 0.3682(2) 0.5449(3) 0.3744(2)
N15_3 N 0.4035(2) 0.5534(2) 0.3541(2)
N16_3 N 0.2106(3) 0.6249(2) 0.3552(2)
N17_3 N 0.2473(2) 0.6314(2) 0.3750(2)
N18_3 N 0.2426(3) 0.6663(3) 0.3961(2)
N19_2 N 0.3583(5) 0.8256(5) 0.5692(3)
H31_2 H 0.3583 0.8477 0.5836
H32_2 H 0.3718 0.8013 0.5747
N20_3 N 0.5704(4) 0.6367(5) 0.3167(4)
H33_3 H 0.5466 0.6420 0.3285
H34_3 H 0.5958 0.6455 0.3245
O1_3 O 0.2754(3) 0.7415(3) 0.4482(3)
O2_3 O 0.3278(3) 0.7126(3) 0.4784(3)
O5_3 O 0.4486(2) 0.5920(3) 0.2819(2)
O6_3 O 0.4816(3) 0.6285(3) 0.3253(3)
O9_3 O 0.3869(2) 0.4894(2) 0.46637(19)
O10_3 O 0.3952(3) 0.6704(3) 0.2810(3)
H35_3 H 0.363844 0.680807 0.281613
H36_3 H 0.403219 0.661877 0.256502
H37_3 H 0.414844 0.491883 0.452525
H38_3 H 0.387556 0.461659 0.480596
C9_4 C 0.0276(3) 0.1029(3) 0.7761(2)
C10_4 C 0.0682(4) 0.1168(3) 0.7886(2)
C11_4 C 0.1058(3) 0.1108(3) 0.7686(3)
H4_4 H 0.1333 0.1202 0.7771
C12_4 C 0.1029(3) 0.0908(3) 0.7361(3)
C13_4 C 0.0624(3) 0.0769(2) 0.7236(2)
H5_4 H 0.0604 0.0634 0.7016
C14_4 C 0.0247(2) 0.0829(2) 0.7436(3)
C16_4 C 0.1458(5) 0.0850(6) 0.7199(4)
N20_4 N 0.0704(4) 0.1367(5) 0.8167(4)
H33_4 H 0.0466 0.1420 0.8285
H34_4 H 0.0958 0.1455 0.8245
C1_3 C 0.8154(3) 0.3652(2) 0.0270(2)
C2_3 C 0.8382(3) 0.3289(3) 0.0394(2)
C3_3 C 0.8347(3) 0.2887(3) 0.0224(3)
H1_3 H 0.8501 0.2641 0.0309
C8_3 C 0.8195(4) 0.4114(4) 0.0466(4)
C37_3 C 0.7832(2) 0.1251(2) 0.0175(2)
H19_3 H 0.7779 0.1556 0.0180
C38_3 C 0.78219(19) 0.1006(3) 0.04861(19)
H20_3 H 0.7762 0.1148 0.0699
C39_3 C 0.7901(2) 0.0550(3) 0.04788(18)
H21_3 H 0.7894 0.0387 0.0687
C40_3 C 0.79915(19) 0.0339(2) 0.0160(2)
H22_3 H 0.8045 0.0034 0.0155
N19_3 N 0.8583(5) 0.3256(5) 0.0692(3)
H31_3 H 0.8583 0.3477 0.0836
H32_3 H 0.8718 0.3013 0.0747
Zn1_4 Zn 0.80861(3) 0.08589(3) 0.87477(4)
Zn2_4 Zn 0.79210(4) 0.18012(4) 0.93164(4)
Zn3_4 Zn 0.90330(4) 0.10827(4) 0.81841(4)
C4_4 C 0.8085(3) 0.2849(2) 0.9930(2)
C5_4 C 0.7857(2) 0.3212(3) 0.9805(2)
H2_4 H 0.7680 0.3186 0.9606
C6_4 C 0.7892(2) 0.3614(3) 0.9975(2)
H3_4 H 0.7738 0.3860 0.9891
C7_4 C 0.8033(5) 0.2432(5) 0.9741(4)
H6_4 H 0.9973 0.0735 0.7351
C15_4 C 0.9836(5) 0.1100(5) 0.7964(4)
C23_4 C 0.8724(2) 0.2124(3) 0.8867(2)
C24_4 C 0.8989(3) 0.1954(2) 0.8603(3)
C25_4 C 0.9337(3) 0.2202(3) 0.8471(2)
H11_4 H 0.9515 0.2087 0.8293
C26_4 C 0.9420(2) 0.2621(3) 0.8603(3)
H12_4 H 0.9654 0.2789 0.8514
C27_4 C 0.9155(3) 0.2792(2) 0.8867(3)
H13_4 H 0.9211 0.3075 0.8957
C28_4 C 0.8807(3) 0.2544(3) 0.8999(2)
H14_4 H 0.8628 0.2659 0.9178
C29_4 C 0.7876(3) 0.0740(2) 0.7629(2)
C30_4 C 0.8331(3) 0.0829(2) 0.76281(19)
C31_4 C 0.8568(2) 0.0816(2) 0.7313(3)
H15_4 H 0.8872 0.0875 0.7313
C32_4 C 0.8352(3) 0.0713(2) 0.6999(2)
H16_4 H 0.8511 0.0704 0.6788
C33_4 C 0.7897(3) 0.0625(2) 0.7000(2)
H17_4 H 0.7752 0.0556 0.6790
C34_4 C 0.7659(2) 0.0638(2) 0.7314(3)
H18_4 H 0.7355 0.0579 0.7315
C35_4 C 0.8002(2) 0.0584(3) 0.98487(17)
C36_4 C 0.7923(2) 0.1040(3) 0.98560(19)
C42_4 C 0.9336(3) 0.0175(2) 0.8575(2)
C43_4 C 0.9733(3) 0.0071(3) 0.8429(2)
H23_4 H 0.9862 0.0261 0.8265
C47_4 C 0.6807(3) 0.1563(2) 0.8640(2)
C48_4 C 0.7004(2) 0.1819(3) 0.8887(2)
C49_4 C 0.6786(3) 0.2172(3) 0.9023(2)
H27_4 H 0.6922 0.2348 0.9193
C50_4 C 0.6371(3) 0.2269(3) 0.8911(3)
H28_4 H 0.6221 0.2513 0.9005
C51_4 C 0.6174(2) 0.2014(3) 0.8664(3)
H29_4 H 0.5888 0.2081 0.8587
C52_4 C 0.6392(3) 0.1660(3) 0.8528(2)
H30_4 H 0.6256 0.1484 0.8358
N2_4 N 0.7662(2) 0.0261(3) 0.8740(2)
N3_4 N 0.7288(3) 0.0228(2) 0.8543(2)
N4_4 N 0.8423(3) 0.1818(3) 0.8973(2)
N5_4 N 0.8488(2) 0.1473(3) 0.8762(2)
N6_4 N 0.8824(3) 0.1543(2) 0.8546(2)
N7_4 N 0.7713(3) 0.0776(3) 0.7970(3)
N8_4 N 0.8072(3) 0.0868(2) 0.8166(2)
N9_4 N 0.8437(2) 0.0896(2) 0.7965(2)
N10_4 N 0.8092(2) 0.0481(3) 0.9503(2)
N11_4 N 0.8052(2) 0.0862(3) 0.9325(2)
N12_4 N 0.7954(3) 0.1203(3) 0.9533(2)
N13_4 N 0.8747(3) 0.0066(2) 0.8918(2)
N14_4 N 0.8682(2) 0.0449(3) 0.8744(2)
N15_4 N 0.9035(2) 0.0534(2) 0.8541(2)
N16_4 N 0.7106(3) 0.1249(2) 0.8552(2)
N17_4 N 0.7473(2) 0.1314(2) 0.8750(2)
N18_4 N 0.7426(3) 0.1663(3) 0.8961(2)
O1_4 O 0.7754(3) 0.2415(3) 0.9482(3)
O2_4 O 0.8278(3) 0.2126(3) 0.9784(3)
O5_4 O 0.9486(2) 0.0920(3) 0.7819(2)
O6_4 O 0.9816(3) 0.1285(3) 0.8253(3)
O10_4 O 0.8952(3) 0.1704(3) 0.7810(3)
H35_4 H 0.863844 0.180807 0.781613
H36_4 H 0.903219 0.161877 0.756502
Zn1_5 Zn 0.69139(3) 0.41411(3) 0.62523(4)
Zn2_5 Zn 0.70790(4) 0.31988(4) 0.56836(4)
Zn3_5 Zn 0.59670(4) 0.39173(4) 0.68159(4)
Zn4_3 Zn 0.78833(3) 0.42712(4) 0.67940(4)
Zn5_3 Zn 0.67206(4) 0.51246(4) 0.57090(4)
C1_4 C 0.6846(3) 0.1348(2) 0.4730(2)
C2_4 C 0.6618(3) 0.1711(3) 0.4606(2)
C3_4 C 0.6653(3) 0.2113(3) 0.4776(3)
H1_4 H 0.6499 0.2359 0.4691
C4_5 C 0.6915(3) 0.2151(2) 0.5070(2)
C5_5 C 0.7143(2) 0.1788(3) 0.5195(2)
H2_5 H 0.7320 0.1814 0.5394
C6_5 C 0.7108(2) 0.1386(3) 0.5025(2)
H3_5 H 0.7262 0.1140 0.5109
C7_5 C 0.6967(5) 0.2568(5) 0.5259(4)
C8_4 C 0.6805(4) 0.0886(4) 0.4534(4)
C9_5 C 0.4724(3) 0.3971(3) 0.7239(2)
C10_5 C 0.4318(4) 0.3832(3) 0.7114(2)
C11_5 C 0.3942(3) 0.3892(3) 0.7314(3)
H4_5 H 0.3667 0.3798 0.7229
C12_5 C 0.3971(3) 0.4092(3) 0.7639(3)
C13_5 C 0.4376(3) 0.4231(2) 0.7764(2)
H5_5 H 0.4396 0.4366 0.7984
C14_5 C 0.4753(2) 0.4171(2) 0.7564(3)
H6_5 H 0.5027 0.4265 0.7649
C15_5 C 0.5164(5) 0.3900(5) 0.7036(4)
C16_5 C 0.3542(5) 0.4150(6) 0.7801(4)
C17_4 C 0.7610(2) 0.5383(3) 0.6159(2)
C18_4 C 0.7888(3) 0.5168(2) 0.6390(2)
C19_4 C 0.8263(3) 0.5378(3) 0.6513(2)
H7_4 H 0.8451 0.5232 0.6669
C20_4 C 0.8359(3) 0.5803(3) 0.6405(3)
H8_4 H 0.8613 0.5945 0.6488
C21_4 C 0.8081(4) 0.6018(2) 0.6174(3)
H9_4 H 0.8147 0.6306 0.6100
C22_4 C 0.7707(3) 0.5808(3) 0.6051(2)
H10_4 H 0.7518 0.5954 0.5894
C23_5 C 0.6276(2) 0.2876(3) 0.6133(2)
C24_5 C 0.6011(3) 0.3046(2) 0.6397(3)
C25_5 C 0.5663(3) 0.2798(3) 0.6529(2)
H11_5 H 0.5485 0.2913 0.6707
C26_5 C 0.5580(2) 0.2379(3) 0.6397(3)
H12_5 H 0.5346 0.2211 0.6486
C27_5 C 0.5845(3) 0.2208(2) 0.6133(3)
H13_5 H 0.5789 0.1925 0.6043
C28_5 C 0.6193(3) 0.2456(3) 0.6001(2)
H14_5 H 0.6372 0.2341 0.5822
C29_5 C 0.7124(3) 0.4260(2) 0.7371(2)
C30_5 C 0.6669(3) 0.4171(2) 0.73719(19)
C31_5 C 0.6432(2) 0.4184(2) 0.7687(3)
H15_5 H 0.6128 0.4125 0.7687
C32_5 C 0.6648(3) 0.4287(2) 0.8001(2)
H16_5 H 0.6489 0.4296 0.8212
C33_5 C 0.7103(3) 0.4375(2) 0.8000(2)
H17_5 H 0.7248 0.4444 0.8210
C34_5 C 0.7341(2) 0.4362(2) 0.7686(3)
H18_5 H 0.7645 0.4421 0.7685
C35_5 C 0.6998(2) 0.4416(3) 0.51513(17)
C36_5 C 0.7077(2) 0.3960(3) 0.51440(19)
C37_4 C 0.7168(2) 0.3749(2) 0.4825(2)
H19_4 H 0.7221 0.3444 0.4820
C38_4 C 0.71781(19) 0.3994(3) 0.45139(19)
H20_4 H 0.7238 0.3852 0.4301
C39_4 C 0.7099(2) 0.4450(3) 0.45212(18)
H21_4 H 0.7106 0.4613 0.4313
C40_4 C 0.70085(19) 0.4661(2) 0.4840(2)
H22_4 H 0.6955 0.4966 0.4845
C41_4 C 0.5851(2) 0.5101(3) 0.6186(2)
C42_5 C 0.5664(3) 0.4825(2) 0.6425(2)
C43_5 C 0.5267(3) 0.4929(3) 0.6571(2)
H23_5 H 0.5138 0.4739 0.6735
C44_4 C 0.5057(2) 0.5309(3) 0.6478(2)
H24_4 H 0.4784 0.5380 0.6578
C45_4 C 0.5245(3) 0.5585(2) 0.6239(3)
H25_4 H 0.5100 0.5846 0.6175
C46_4 C 0.5641(3) 0.5481(3) 0.6093(2)
H26_4 H 0.5770 0.5671 0.5929
C47_5 C 0.8193(3) 0.3437(2) 0.6360(2)
C48_5 C 0.7996(2) 0.3181(3) 0.6113(2)
C49_5 C 0.8214(3) 0.2828(3) 0.5977(2)
H27_5 H 0.8078 0.2652 0.5807
C50_5 C 0.8629(3) 0.2731(3) 0.6089(3)
H28_5 H 0.8779 0.2487 0.5995
C51_5 C 0.8826(2) 0.2986(3) 0.6336(3)
H29_5 H 0.9112 0.2919 0.6413
C52_5 C 0.8608(3) 0.3340(3) 0.6472(2)
H30_5 H 0.8744 0.3516 0.6642
N1_4 N 0.7269(2) 0.5099(3) 0.6077(2)
N2_5 N 0.7338(2) 0.4739(3) 0.6260(2)
N3_5 N 0.7712(3) 0.4772(2) 0.6457(2)
N4_5 N 0.6577(3) 0.3182(3) 0.6027(2)
N5_5 N 0.6512(2) 0.3527(3) 0.6238(2)
N6_5 N 0.6176(3) 0.3457(2) 0.6454(2)
N7_5 N 0.7287(3) 0.4224(3) 0.7030(3)
N8_5 N 0.6928(3) 0.4132(2) 0.6834(2)
N9_5 N 0.6563(2) 0.4104(2) 0.7035(2)
N10_5 N 0.6908(2) 0.4519(3) 0.5497(2)
N11_5 N 0.6948(2) 0.4138(3) 0.5675(2)
N12_5 N 0.7046(3) 0.3797(3) 0.5467(2)
N13_5 N 0.6253(3) 0.4934(2) 0.6082(2)
N14_5 N 0.6318(2) 0.4551(3) 0.6256(2)
N15_5 N 0.5965(2) 0.4466(2) 0.6459(2)
N16_5 N 0.7894(3) 0.3751(2) 0.6448(2)
N17_5 N 0.7527(2) 0.3686(2) 0.6250(2)
N18_5 N 0.7574(3) 0.3337(3) 0.6039(2)
N19_4 N 0.6417(5) 0.1744(5) 0.4308(3)
H31_4 H 0.6417 0.1523 0.4164
H32_4 H 0.6282 0.1987 0.4253
N20_5 N 0.4296(4) 0.3633(5) 0.6833(4)
H33_5 H 0.4534 0.3580 0.6715
H34_5 H 0.4042 0.3545 0.6755
O1_5 O 0.7246(3) 0.2585(3) 0.5518(3)
O2_5 O 0.6722(3) 0.2874(3) 0.5216(3)
O3_2 O 0.6999(3) 0.0559(2) 0.4666(2)
O4_2 O 0.6583(3) 0.0845(3) 0.4257(3)
O5_5 O 0.5514(2) 0.4080(3) 0.7181(2)
O6_5 O 0.5184(3) 0.3715(3) 0.6747(3)
O7_3 O 0.3540(3) 0.4397(3) 0.8077(3)
O8_3 O 0.3197(3) 0.3951(4) 0.7740(3)
O9_4 O 0.6131(2) 0.5106(2) 0.53363(19)
O10_5 O 0.6048(3) 0.3296(3) 0.7190(3)
Zn6_3 Zn 0.28833(3) 0.42712(4) 0.82060(4)
Zn7_2 Zn 0.67206(4) 0.01246(4) 0.42910(4)
O11_3 O 0.6999(3) 0.5559(2) 0.5334(2)
O12_3 O 0.6583(3) 0.5845(3) 0.5743(3)
O13_3 O 0.8540(3) 0.4397(3) 0.6923(3)
O14_3 O 0.8197(3) 0.3951(4) 0.7260(3)
H35_5 H 0.636156 0.319193 0.718387
H36_5 H 0.596781 0.338123 0.743498
H37_4 H 0.585156 0.508117 0.547475
H38_4 H 0.612444 0.538341 0.519404
Zn1_6 Zn 0.19139(3) 0.91411(3) 0.12523(4)
Zn2_6 Zn 0.20790(4) 0.81988(4) 0.06836(4)
Zn3_6 Zn 0.09670(4) 0.89173(4) 0.18159(4)
Zn4_4 Zn 0.28833(3) 0.92712(4) 0.17940(4)
C4_6 C 0.1915(3) 0.7151(2) 0.0070(2)
C5_6 C 0.2143(2) 0.6788(3) 0.0195(2)
H2_6 H 0.2320 0.6814 0.0394
C6_6 C 0.2108(2) 0.6386(3) 0.0025(2)
H3_6 H 0.2262 0.6140 0.0109
C7_6 C 0.1967(5) 0.7568(5) 0.0259(4)
H6_6 H 0.0027 0.9265 0.2649
C15_6 C 0.0164(5) 0.8900(5) 0.2036(4)
C23_6 C 0.1276(2) 0.7876(3) 0.1133(2)
C24_6 C 0.1011(3) 0.8046(2) 0.1397(3)
C25_6 C 0.0663(3) 0.7798(3) 0.1529(2)
H11_6 H 0.0485 0.7913 0.1707
C26_6 C 0.0580(2) 0.7379(3) 0.1397(3)
H12_6 H 0.0346 0.7211 0.1486
C27_6 C 0.0845(3) 0.7208(2) 0.1133(3)
H13_6 H 0.0789 0.6925 0.1043
C28_6 C 0.1193(3) 0.7456(3) 0.1001(2)
H14_6 H 0.1372 0.7341 0.0822
C29_6 C 0.2124(3) 0.9260(2) 0.2371(2)
C30_6 C 0.1669(3) 0.9171(2) 0.23719(19)
C31_6 C 0.1432(2) 0.9184(2) 0.2687(3)
H15_6 H 0.1128 0.9125 0.2687
C32_6 C 0.1648(3) 0.9287(2) 0.3001(2)
H16_6 H 0.1489 0.9296 0.3212
C33_6 C 0.2103(3) 0.9375(2) 0.3000(2)
H17_6 H 0.2248 0.9444 0.3210
C34_6 C 0.2341(2) 0.9362(2) 0.2686(3)
H18_6 H 0.2645 0.9421 0.2685
C35_6 C 0.1998(2) 0.9416(3) 0.01513(17)
C36_6 C 0.2077(2) 0.8960(3) 0.01440(19)
C42_6 C 0.0664(3) 0.9825(2) 0.1425(2)
C43_6 C 0.0267(3) 0.9929(3) 0.1571(2)
H23_6 H 0.0138 0.9739 0.1735
C47_6 C 0.3193(3) 0.8437(2) 0.1360(2)
C48_6 C 0.2996(2) 0.8181(3) 0.1113(2)
C49_6 C 0.3214(3) 0.7828(3) 0.0977(2)
H27_6 H 0.3078 0.7652 0.0807
C50_6 C 0.3629(3) 0.7731(3) 0.1089(3)
H28_6 H 0.3779 0.7487 0.0995
C51_6 C 0.3826(2) 0.7986(3) 0.1336(3)
H29_6 H 0.4112 0.7919 0.1413
C52_6 C 0.3608(3) 0.8340(3) 0.1472(2)
H30_6 H 0.3744 0.8516 0.1642
N2_6 N 0.2338(2) 0.9739(3) 0.1260(2)
N3_6 N 0.2712(3) 0.9772(2) 0.1457(2)
N4_6 N 0.1577(3) 0.8182(3) 0.1027(2)
N5_6 N 0.1512(2) 0.8527(3) 0.1238(2)
N6_6 N 0.1176(3) 0.8457(2) 0.1454(2)
N7_6 N 0.2287(3) 0.9224(3) 0.2030(3)
N8_6 N 0.1928(3) 0.9132(2) 0.1834(2)
N9_6 N 0.1563(2) 0.9104(2) 0.2035(2)
N10_6 N 0.1908(2) 0.9519(3) 0.0497(2)
N11_6 N 0.1948(2) 0.9138(3) 0.0675(2)
N12_6 N 0.2046(3) 0.8797(3) 0.0467(2)
N13_6 N 0.1253(3) 0.9934(2) 0.1082(2)
N14_6 N 0.1318(2) 0.9551(3) 0.1256(2)
N15_6 N 0.0965(2) 0.9466(2) 0.1459(2)
N16_6 N 0.2894(3) 0.8751(2) 0.1448(2)
N17_6 N 0.2527(2) 0.8686(2) 0.1250(2)
N18_6 N 0.2574(3) 0.8337(3) 0.1039(2)
O1_6 O 0.2246(3) 0.7585(3) 0.0518(3)
O2_6 O 0.1722(3) 0.7874(3) 0.0216(3)
O5_6 O 0.0514(2) 0.9080(3) 0.2181(2)
O6_6 O 0.0184(3) 0.8715(3) 0.1747(3)
O10_6 O 0.1048(3) 0.8296(3) 0.2190(3)
O13_4 O 0.3540(3) 0.9397(3) 0.1923(3)
O14_4 O 0.3197(3) 0.8951(4) 0.2260(3)
H35_6 H 0.136156 0.819193 0.218387
H36_6 H 0.0967809 0.838123 0.243498
C1_5 C 0.1846(3) 0.6348(2) 0.9730(2)
C2_5 C 0.1618(3) 0.6711(3) 0.9606(2)
C3_5 C 0.1653(3) 0.7113(3) 0.9776(3)
H1_5 H 0.1499 0.7359 0.9691
C8_5 C 0.1805(4) 0.5886(4) 0.9534(4)
C37_5 C 0.2168(2) 0.8749(2) 0.9825(2)
H19_5 H 0.2221 0.8444 0.9820
C38_5 C 0.21781(19) 0.8994(3) 0.95139(19)
H20_5 H 0.2238 0.8852 0.9301
C39_5 C 0.2099(2) 0.9450(3) 0.95212(18)
H21_5 H 0.2106 0.9613 0.9313
C40_5 C 0.20085(19) 0.9661(2) 0.9840(2)
H22_5 H 0.1955 0.9966 0.9845
N19_5 N 0.1417(5) 0.6744(5) 0.9308(3)
H31_5 H 0.1417 0.6523 0.9164
H32_5 H 0.1282 0.6987 0.9253
O3_3 O 0.1999(3) 0.5559(2) 0.9666(2)
O4_3 O 0.1583(3) 0.5845(3) 0.9257(3)
Zn7_3 Zn 0.17206(4) 0.51246(4) 0.92910(4)
C9_6 C 0.9724(3) 0.8971(3) 0.2239(2)
C10_6 C 0.9318(4) 0.8832(3) 0.2114(2)
C11_6 C 0.8942(3) 0.8892(3) 0.2314(3)
H4_6 H 0.8667 0.8798 0.2229
C12_6 C 0.8971(3) 0.9092(3) 0.2639(3)
C13_6 C 0.9376(3) 0.9231(2) 0.2764(2)
H5_6 H 0.9396 0.9366 0.2984
C14_6 C 0.9753(2) 0.9171(2) 0.2564(3)
C16_6 C 0.8542(5) 0.9150(6) 0.2801(4)
N20_6 N 0.9296(4) 0.8633(5) 0.1833(4)
H33_6 H 0.9534 0.8580 0.1715
H34_6 H 0.9042 0.8545 0.1755
O7_4 O 0.8540(3) 0.9397(3) 0.3077(3)
O8_4 O 0.8197(3) 0.8951(4) 0.2740(3)
Zn6_4 Zn 0.78833(3) 0.92712(4) 0.32060(4)
C17_5 C 0.7610(2) 0.0383(3) 0.3841(2)
C18_5 C 0.7888(3) 0.0168(2) 0.3610(2)
C19_5 C 0.8263(3) 0.0378(3) 0.3487(2)
H7_5 H 0.8451 0.0232 0.3331
C20_5 C 0.8359(3) 0.0803(3) 0.3595(3)
H8_5 H 0.8613 0.0945 0.3512
C21_5 C 0.8081(4) 0.1018(2) 0.3826(3)
H9_5 H 0.8147 0.1306 0.3900
C22_5 C 0.7707(3) 0.0808(3) 0.3949(2)
H10_5 H 0.7518 0.0954 0.4106
C41_5 C 0.5851(2) 0.0101(3) 0.3814(2)
C44_5 C 0.5057(2) 0.0309(3) 0.3522(2)
H24_5 H 0.4784 0.0380 0.3422
C45_5 C 0.5245(3) 0.0585(2) 0.3761(3)
H25_5 H 0.5100 0.0846 0.3825
C46_5 C 0.5641(3) 0.0481(3) 0.3907(2)
H26_5 H 0.5770 0.0671 0.4071
N1_5 N 0.7269(2) 0.0099(3) 0.3923(2)
O9_5 O 0.6131(2) 0.0106(2) 0.46637(19)
H37_5 H 0.585156 0.00811655 0.452525
H38_5 H 0.612444 0.0383409 0.480596
Zn1_7 Zn 0.69139(3) 0.91411(3) 0.37477(4)
Zn2_7 Zn 0.70790(4) 0.81988(4) 0.43164(4)
Zn3_7 Zn 0.59670(4) 0.89173(4) 0.31841(4)
C1_6 C 0.6846(3) 0.6348(2) 0.5270(2)
C2_6 C 0.6618(3) 0.6711(3) 0.5394(2)
C3_6 C 0.6653(3) 0.7113(3) 0.5224(3)
H1_6 H 0.6499 0.7359 0.5309
C4_7 C 0.6915(3) 0.7151(2) 0.4930(2)
C5_7 C 0.7143(2) 0.6788(3) 0.4805(2)
H2_7 H 0.7320 0.6814 0.4606
C6_7 C 0.7108(2) 0.6386(3) 0.4975(2)
H3_7 H 0.7262 0.6140 0.4891
C7_7 C 0.6967(5) 0.7568(5) 0.4741(4)
C8_6 C 0.6805(4) 0.5886(4) 0.5466(4)
C9_7 C 0.4724(3) 0.8971(3) 0.2761(2)
C10_7 C 0.4318(4) 0.8832(3) 0.2886(2)
C11_7 C 0.3942(3) 0.8892(3) 0.2686(3)
H4_7 H 0.3667 0.8798 0.2771
C12_7 C 0.3971(3) 0.9092(3) 0.2361(3)
C13_7 C 0.4376(3) 0.9231(2) 0.2236(2)
H5_7 H 0.4396 0.9366 0.2016
C14_7 C 0.4753(2) 0.9171(2) 0.2436(3)
H6_7 H 0.5027 0.9265 0.2351
C15_7 C 0.5164(5) 0.8900(5) 0.2964(4)
C16_7 C 0.3542(5) 0.9150(6) 0.2199(4)
C23_7 C 0.6276(2) 0.7876(3) 0.3867(2)
C24_7 C 0.6011(3) 0.8046(2) 0.3603(3)
C25_7 C 0.5663(3) 0.7798(3) 0.3471(2)
H11_7 H 0.5485 0.7913 0.3293
C26_7 C 0.5580(2) 0.7379(3) 0.3603(3)
H12_7 H 0.5346 0.7211 0.3514
C27_7 C 0.5845(3) 0.7208(2) 0.3867(3)
H13_7 H 0.5789 0.6925 0.3957
C28_7 C 0.6193(3) 0.7456(3) 0.3999(2)
H14_7 H 0.6372 0.7341 0.4178
C29_7 C 0.7124(3) 0.9260(2) 0.2629(2)
C30_7 C 0.6669(3) 0.9171(2) 0.26281(19)
C31_7 C 0.6432(2) 0.9184(2) 0.2313(3)
H15_7 H 0.6128 0.9125 0.2313
C32_7 C 0.6648(3) 0.9287(2) 0.1999(2)
H16_7 H 0.6489 0.9296 0.1788
C33_7 C 0.7103(3) 0.9375(2) 0.2000(2)
H17_7 H 0.7248 0.9444 0.1790
C34_7 C 0.7341(2) 0.9362(2) 0.2314(3)
H18_7 H 0.7645 0.9421 0.2315
C35_7 C 0.6998(2) 0.9416(3) 0.48487(17)
C36_7 C 0.7077(2) 0.8960(3) 0.48560(19)
C37_6 C 0.7168(2) 0.8749(2) 0.5175(2)
H19_6 H 0.7221 0.8444 0.5180
C38_6 C 0.71781(19) 0.8994(3) 0.54861(19)
H20_6 H 0.7238 0.8852 0.5699
C39_6 C 0.7099(2) 0.9450(3) 0.54788(18)
H21_6 H 0.7106 0.9613 0.5687
C40_6 C 0.70085(19) 0.9661(2) 0.5160(2)
H22_6 H 0.6955 0.9966 0.5155
C42_7 C 0.5664(3) 0.9825(2) 0.3575(2)
C43_7 C 0.5267(3) 0.9929(3) 0.3429(2)
H23_7 H 0.5138 0.9739 0.3265
C47_7 C 0.8193(3) 0.8437(2) 0.3640(2)
C48_7 C 0.7996(2) 0.8181(3) 0.3887(2)
C49_7 C 0.8214(3) 0.7828(3) 0.4023(2)
H27_7 H 0.8078 0.7652 0.4193
C50_7 C 0.8629(3) 0.7731(3) 0.3911(3)
H28_7 H 0.8779 0.7487 0.4005
C51_7 C 0.8826(2) 0.7986(3) 0.3664(3)
H29_7 H 0.9112 0.7919 0.3587
C52_7 C 0.8608(3) 0.8340(3) 0.3528(2)
H30_7 H 0.8744 0.8516 0.3358
N2_7 N 0.7338(2) 0.9739(3) 0.3740(2)
N3_7 N 0.7712(3) 0.9772(2) 0.3543(2)
N4_7 N 0.6577(3) 0.8182(3) 0.3973(2)
N5_7 N 0.6512(2) 0.8527(3) 0.3762(2)
N6_7 N 0.6176(3) 0.8457(2) 0.3546(2)
N7_7 N 0.7287(3) 0.9224(3) 0.2970(3)
N8_7 N 0.6928(3) 0.9132(2) 0.3166(2)
N9_7 N 0.6563(2) 0.9104(2) 0.2965(2)
N10_7 N 0.6908(2) 0.9519(3) 0.4503(2)
N11_7 N 0.6948(2) 0.9138(3) 0.4325(2)
N12_7 N 0.7046(3) 0.8797(3) 0.4533(2)
N13_7 N 0.6253(3) 0.9934(2) 0.3918(2)
N14_7 N 0.6318(2) 0.9551(3) 0.3744(2)
N15_7 N 0.5965(2) 0.9466(2) 0.3541(2)
N16_7 N 0.7894(3) 0.8751(2) 0.3552(2)
N17_7 N 0.7527(2) 0.8686(2) 0.3750(2)
N18_7 N 0.7574(3) 0.8337(3) 0.3961(2)
N19_6 N 0.6417(5) 0.6744(5) 0.5692(3)
H31_6 H 0.6417 0.6523 0.5836
H32_6 H 0.6282 0.6987 0.5747
N20_7 N 0.4296(4) 0.8633(5) 0.3167(4)
H33_7 H 0.4534 0.8580 0.3285
H34_7 H 0.4042 0.8545 0.3245
O1_7 O 0.7246(3) 0.7585(3) 0.4482(3)
O2_7 O 0.6722(3) 0.7874(3) 0.4784(3)
O5_7 O 0.5514(2) 0.9080(3) 0.2819(2)
O6_7 O 0.5184(3) 0.8715(3) 0.3253(3)
O10_7 O 0.6048(3) 0.8296(3) 0.2810(3)
H35_7 H 0.636156 0.819193 0.281613
H36_7 H 0.596781 0.838123 0.256502
Zn1_8 Zn 0.19139(3) 0.41411(3) 0.87477(4)
Zn2_8 Zn 0.20790(4) 0.31988(4) 0.93164(4)
Zn3_8 Zn 0.09670(4) 0.39173(4) 0.81841(4)
C4_8 C 0.1915(3) 0.2151(2) 0.9930(2)
C5_8 C 0.2143(2) 0.1788(3) 0.9805(2)
H2_8 H 0.2320 0.1814 0.9606
C6_8 C 0.2108(2) 0.1386(3) 0.9975(2)
H3_8 H 0.2262 0.1140 0.9891
C7_8 C 0.1967(5) 0.2568(5) 0.9741(4)
H6_8 H 0.0027 0.4265 0.7351
C15_8 C 0.0164(5) 0.3900(5) 0.7964(4)
C17_6 C 0.2610(2) 0.5383(3) 0.8841(2)
C18_6 C 0.2888(3) 0.5168(2) 0.8610(2)
C19_6 C 0.3263(3) 0.5378(3) 0.8487(2)
H7_6 H 0.3451 0.5232 0.8331
C20_6 C 0.3359(3) 0.5803(3) 0.8595(3)
H8_6 H 0.3613 0.5945 0.8512
C21_6 C 0.3081(4) 0.6018(2) 0.8826(3)
H9_6 H 0.3147 0.6306 0.8900
C22_6 C 0.2707(3) 0.5808(3) 0.8949(2)
H10_6 H 0.2518 0.5954 0.9106
C23_8 C 0.1276(2) 0.2876(3) 0.8867(2)
C24_8 C 0.1011(3) 0.3046(2) 0.8603(3)
C25_8 C 0.0663(3) 0.2798(3) 0.8471(2)
H11_8 H 0.0485 0.2913 0.8293
C26_8 C 0.0580(2) 0.2379(3) 0.8603(3)
H12_8 H 0.0346 0.2211 0.8514
C27_8 C 0.0845(3) 0.2208(2) 0.8867(3)
H13_8 H 0.0789 0.1925 0.8957
C28_8 C 0.1193(3) 0.2456(3) 0.8999(2)
H14_8 H 0.1372 0.2341 0.9178
C29_8 C 0.2124(3) 0.4260(2) 0.7629(2)
C30_8 C 0.1669(3) 0.4171(2) 0.76281(19)
C31_8 C 0.1432(2) 0.4184(2) 0.7313(3)
H15_8 H 0.1128 0.4125 0.7313
C32_8 C 0.1648(3) 0.4287(2) 0.6999(2)
H16_8 H 0.1489 0.4296 0.6788
C33_8 C 0.2103(3) 0.4375(2) 0.7000(2)
H17_8 H 0.2248 0.4444 0.6790
C34_8 C 0.2341(2) 0.4362(2) 0.7314(3)
H18_8 H 0.2645 0.4421 0.7315
C35_8 C 0.1998(2) 0.4416(3) 0.98487(17)
C36_8 C 0.2077(2) 0.3960(3) 0.98560(19)
C41_6 C 0.0851(2) 0.5101(3) 0.8814(2)
C42_8 C 0.0664(3) 0.4825(2) 0.8575(2)
C43_8 C 0.0267(3) 0.4929(3) 0.8429(2)
H23_8 H 0.0138 0.4739 0.8265
C44_6 C 0.0057(2) 0.5309(3) 0.8522(2)
C45_6 C 0.0245(3) 0.5585(2) 0.8761(3)
H25_6 H 0.0100 0.5846 0.8825
C46_6 C 0.0641(3) 0.5481(3) 0.8907(2)
H26_6 H 0.0770 0.5671 0.9071
C47_8 C 0.3193(3) 0.3437(2) 0.8640(2)
C48_8 C 0.2996(2) 0.3181(3) 0.8887(2)
C49_8 C 0.3214(3) 0.2828(3) 0.9023(2)
H27_8 H 0.3078 0.2652 0.9193
C50_8 C 0.3629(3) 0.2731(3) 0.8911(3)
H28_8 H 0.3779 0.2487 0.9005
C51_8 C 0.3826(2) 0.2986(3) 0.8664(3)
H29_8 H 0.4112 0.2919 0.8587
C52_8 C 0.3608(3) 0.3340(3) 0.8528(2)
H30_8 H 0.3744 0.3516 0.8358
N1_6 N 0.2269(2) 0.5099(3) 0.8923(2)
N2_8 N 0.2338(2) 0.4739(3) 0.8740(2)
N3_8 N 0.2712(3) 0.4772(2) 0.8543(2)
N4_8 N 0.1577(3) 0.3182(3) 0.8973(2)
N5_8 N 0.1512(2) 0.3527(3) 0.8762(2)
N6_8 N 0.1176(3) 0.3457(2) 0.8546(2)
N7_8 N 0.2287(3) 0.4224(3) 0.7970(3)
N8_8 N 0.1928(3) 0.4132(2) 0.8166(2)
N9_8 N 0.1563(2) 0.4104(2) 0.7965(2)
N10_8 N 0.1908(2) 0.4519(3) 0.9503(2)
N11_8 N 0.1948(2) 0.4138(3) 0.9325(2)
N12_8 N 0.2046(3) 0.3797(3) 0.9533(2)
N13_8 N 0.1253(3) 0.4934(2) 0.8918(2)
N14_8 N 0.1318(2) 0.4551(3) 0.8744(2)
N15_8 N 0.0965(2) 0.4466(2) 0.8541(2)
N16_8 N 0.2894(3) 0.3751(2) 0.8552(2)
N17_8 N 0.2527(2) 0.3686(2) 0.8750(2)
N18_8 N 0.2574(3) 0.3337(3) 0.8961(2)
O1_8 O 0.2246(3) 0.2585(3) 0.9482(3)
O2_8 O 0.1722(3) 0.2874(3) 0.9784(3)
O5_8 O 0.0514(2) 0.4080(3) 0.7819(2)
O6_8 O 0.0184(3) 0.3715(3) 0.8253(3)
O9_6 O 0.1131(2) 0.5106(2) 0.96637(19)
O10_8 O 0.1048(3) 0.3296(3) 0.7810(3)
H35_8 H 0.136156 0.319193 0.781613
H36_8 H 0.0967809 0.338123 0.756502
H37_6 H 0.0851557 0.508117 0.952525
H38_6 H 0.112444 0.538341 0.980596
C9_8 C 0.9724(3) 0.3971(3) 0.7761(2)
C10_8 C 0.9318(4) 0.3832(3) 0.7886(2)
C11_8 C 0.8942(3) 0.3892(3) 0.7686(3)
H4_8 H 0.8667 0.3798 0.7771
C12_8 C 0.8971(3) 0.4092(3) 0.7361(3)
C13_8 C 0.9376(3) 0.4231(2) 0.7236(2)
H5_8 H 0.9396 0.4366 0.7016
C14_8 C 0.9753(2) 0.4171(2) 0.7436(3)
C16_8 C 0.8542(5) 0.4150(6) 0.7199(4)
H24_6 H 0.9784 0.5380 0.8422
N20_8 N 0.9296(4) 0.3633(5) 0.8167(4)
H33_8 H 0.9534 0.3580 0.8285
H34_8 H 0.9042 0.3545 0.8245
C12_9 C 0.6592(3) 0.8529(3) 0.0139(3)
C13_9 C 0.6731(2) 0.8124(3) 0.0264(2)
H5_9 H 0.6866 0.8104 0.0484
C14_9 C 0.6671(2) 0.7747(2) 0.0064(3)
H6_9 H 0.6765 0.7473 0.0149
C16_9 C 0.6650(6) 0.8958(5) 0.0301(4)
C31_9 C 0.6684(2) 0.6068(2) 0.0187(3)
H15_9 H 0.6625 0.6372 0.0187
C32_9 C 0.6787(2) 0.5852(3) 0.0501(2)
H16_9 H 0.6796 0.6011 0.0712
C33_9 C 0.6875(2) 0.5397(3) 0.0500(2)
H17_9 H 0.6944 0.5252 0.0710
C34_9 C 0.6862(2) 0.5159(2) 0.0186(3)
H18_9 H 0.6921 0.4855 0.0185
O7_5 O 0.6897(3) 0.8960(3) 0.0577(3)
O8_5 O 0.6451(4) 0.9303(3) 0.0240(3)
Zn6_5 Zn 0.67712(4) 0.96167(3) 0.07060(4)
C17_7 C 0.7883(3) 0.9890(2) 0.1341(2)
C18_7 C 0.7668(2) 0.9612(3) 0.1110(2)
C19_7 C 0.7878(3) 0.9237(3) 0.0987(2)
H7_7 H 0.7732 0.9049 0.0831
C20_7 C 0.8303(3) 0.9141(3) 0.1095(3)
H8_7 H 0.8445 0.8887 0.1012
C21_7 C 0.8518(2) 0.9419(4) 0.1326(3)
H9_7 H 0.8806 0.9353 0.1400
C22_7 C 0.8308(3) 0.9793(3) 0.1449(2)
H10_7 H 0.8454 0.9982 0.1606
C47_9 C 0.5937(2) 0.9307(3) 0.1140(2)
C48_9 C 0.5681(3) 0.9504(2) 0.1387(2)
C49_9 C 0.5328(3) 0.9286(3) 0.1523(2)
H27_9 H 0.5152 0.9422 0.1693
C50_9 C 0.5231(3) 0.8871(3) 0.1411(3)
H28_9 H 0.4987 0.8721 0.1505
C51_9 C 0.5486(3) 0.8674(2) 0.1164(3)
H29_9 H 0.5419 0.8388 0.1087
C52_9 C 0.5840(3) 0.8892(3) 0.1028(2)
H30_9 H 0.6016 0.8756 0.0858
N3_9 N 0.7272(2) 0.9788(3) 0.1043(2)
N16_9 N 0.6251(2) 0.9606(3) 0.1052(2)
N17_9 N 0.6186(2) 0.9973(2) 0.1250(2)
N18_9 N 0.5837(3) 0.9926(3) 0.1461(2)
Zn1_9 Zn 0.66411(3) 0.55861(3) 0.87523(4)
Zn2_9 Zn 0.56988(4) 0.54210(4) 0.81836(4)
Zn3_9 Zn 0.64173(4) 0.65330(4) 0.93159(4)
Zn4_5 Zn 0.67712(4) 0.46167(3) 0.92940(4)
Zn5_4 Zn 0.76246(4) 0.57794(4) 0.82090(4)
C1_7 C 0.3848(2) 0.5654(3) 0.7230(2)
C2_7 C 0.4211(3) 0.5882(3) 0.7106(2)
C3_7 C 0.4613(3) 0.5847(3) 0.7276(3)
H1_7 H 0.4859 0.6001 0.7191
C4_9 C 0.4651(2) 0.5585(3) 0.7570(2)
C5_9 C 0.4288(3) 0.5357(2) 0.7695(2)
H2_9 H 0.4314 0.5180 0.7894
C6_9 C 0.3886(3) 0.5392(2) 0.7525(2)
H3_9 H 0.3640 0.5238 0.7609
C7_9 C 0.5068(5) 0.5533(5) 0.7759(4)
C8_7 C 0.3386(4) 0.5695(4) 0.7034(4)
C9_9 C 0.6471(3) 0.7776(3) 0.9739(2)
C10_9 C 0.6332(3) 0.8182(4) 0.9614(2)
C11_9 C 0.6392(3) 0.8558(3) 0.9814(3)
H4_9 H 0.6298 0.8833 0.9729
C15_9 C 0.6400(5) 0.7336(5) 0.9536(4)
C17_8 C 0.7883(3) 0.4890(2) 0.8659(2)
C18_8 C 0.7668(2) 0.4612(3) 0.8890(2)
C19_8 C 0.7878(3) 0.4237(3) 0.9013(2)
H7_8 H 0.7732 0.4049 0.9169
C20_8 C 0.8303(3) 0.4141(3) 0.8905(3)
H8_8 H 0.8445 0.3887 0.8988
C21_8 C 0.8518(2) 0.4419(4) 0.8674(3)
H9_8 H 0.8806 0.4353 0.8600
C22_8 C 0.8308(3) 0.4793(3) 0.8551(2)
H10_8 H 0.8454 0.4982 0.8394
C23_9 C 0.5376(3) 0.6224(2) 0.8633(2)
C24_9 C 0.5546(2) 0.6489(3) 0.8897(3)
C25_9 C 0.5298(3) 0.6837(3) 0.9029(2)
H11_9 H 0.5413 0.7015 0.9207
C26_9 C 0.4879(3) 0.6920(2) 0.8897(3)
H12_9 H 0.4711 0.7154 0.8986
C27_9 C 0.4708(2) 0.6655(3) 0.8633(3)
H13_9 H 0.4425 0.6711 0.8543
C28_9 C 0.4956(3) 0.6307(3) 0.8501(2)
H14_9 H 0.4841 0.6128 0.8322
C29_9 C 0.6760(2) 0.5376(3) 0.9871(2)
C30_9 C 0.6671(2) 0.5831(3) 0.98719(19)
C35_9 C 0.6916(3) 0.5502(2) 0.76513(17)
C36_9 C 0.6460(3) 0.5423(2) 0.76440(19)
C37_7 C 0.6249(2) 0.5332(2) 0.7325(2)
H19_7 H 0.5944 0.5279 0.7320
C38_7 C 0.6494(3) 0.53219(19) 0.70139(19)
H20_7 H 0.6352 0.5262 0.6801
C39_7 C 0.6950(3) 0.5401(2) 0.70212(18)
H21_7 H 0.7113 0.5394 0.6813
C40_7 C 0.7161(2) 0.54915(19) 0.7340(2)
H22_7 H 0.7466 0.5545 0.7345
C41_7 C 0.7601(3) 0.6649(2) 0.8686(2)
C42_9 C 0.7325(2) 0.6836(3) 0.8925(2)
C43_9 C 0.7429(3) 0.7233(3) 0.9071(2)
H23_9 H 0.7239 0.7362 0.9235
C44_7 C 0.7809(3) 0.7443(2) 0.8978(2)
H24_7 H 0.7880 0.7716 0.9078
C45_7 C 0.8085(2) 0.7255(3) 0.8739(3)
H25_7 H 0.8346 0.7400 0.8675
C46_7 C 0.7981(3) 0.6859(3) 0.8593(2)
H26_7 H 0.8171 0.6730 0.8429
C47_10 C 0.5937(2) 0.4307(3) 0.8860(2)
C48_10 C 0.5681(3) 0.4504(2) 0.8613(2)
C49_10 C 0.5328(3) 0.4286(3) 0.8477(2)
H27_10 H 0.5152 0.4422 0.8307
C50_10 C 0.5231(3) 0.3871(3) 0.8589(3)
H28_10 H 0.4987 0.3721 0.8495
C51_10 C 0.5486(3) 0.3674(2) 0.8836(3)
H29_10 H 0.5419 0.3388 0.8913
C52_10 C 0.5840(3) 0.3892(3) 0.8972(2)
H30_10 H 0.6016 0.3756 0.9142
N1_7 N 0.7599(3) 0.5231(2) 0.8577(2)
N2_9 N 0.7239(3) 0.5162(2) 0.8760(2)
N3_10 N 0.7272(2) 0.4788(3) 0.8957(2)
N4_9 N 0.5682(3) 0.5923(3) 0.8527(2)
N5_9 N 0.6027(3) 0.5988(2) 0.8738(2)
N6_9 N 0.5957(2) 0.6324(3) 0.8954(2)
N7_9 N 0.6724(3) 0.5213(3) 0.9530(3)
N8_9 N 0.6632(2) 0.5572(3) 0.9334(2)
N9_9 N 0.6604(2) 0.5937(2) 0.9535(2)
N10_9 N 0.7019(3) 0.5592(2) 0.7997(2)
N11_9 N 0.6638(3) 0.5552(2) 0.8175(2)
N12_9 N 0.6297(3) 0.5454(3) 0.7967(2)
N13_9 N 0.7434(2) 0.6247(3) 0.8582(2)
N14_9 N 0.7051(3) 0.6182(2) 0.8756(2)
N15_9 N 0.6966(2) 0.6535(2) 0.8959(2)
N16_10 N 0.6251(2) 0.4606(3) 0.8948(2)
N17_10 N 0.6186(2) 0.4973(2) 0.8750(2)
N18_10 N 0.5837(3) 0.4926(3) 0.8539(2)
N19_7 N 0.4244(5) 0.6083(5) 0.6808(3)
H31_7 H 0.4023 0.6083 0.6664
H32_7 H 0.4487 0.6218 0.6753
N20_9 N 0.6133(5) 0.8204(4) 0.9333(4)
H33_9 H 0.6080 0.7966 0.9215
H34_9 H 0.6045 0.8458 0.9255
O1_9 O 0.5085(3) 0.5254(3) 0.8018(3)
O2_9 O 0.5374(3) 0.5778(3) 0.7716(3)
O3_4 O 0.3059(2) 0.5501(3) 0.7166(2)
O4_4 O 0.3345(3) 0.5917(3) 0.6757(3)
O5_9 O 0.6580(3) 0.6986(2) 0.9681(2)
O6_9 O 0.6215(3) 0.7316(3) 0.9247(3)
O9_7 O 0.7606(2) 0.6369(2) 0.78363(19)
O10_9 O 0.5796(3) 0.6452(3) 0.9690(3)
Zn7_4 Zn 0.26246(4) 0.57794(4) 0.67910(4)
O11_4 O 0.8059(2) 0.5501(3) 0.7834(2)
O12_4 O 0.8345(3) 0.5917(3) 0.8243(3)
O13_5 O 0.6897(3) 0.3960(3) 0.9423(3)
O14_5 O 0.6451(4) 0.4303(3) 0.9760(3)
H35_9 H 0.569193 0.613844 0.968387
H36_9 H 0.588123 0.653219 0.993498
H37_7 H 0.758117 0.664844 0.797475
H38_7 H 0.788341 0.637556 0.769404
Zn1_10 Zn 0.16411(3) 0.05861(3) 0.37523(4)
Zn2_10 Zn 0.06988(4) 0.04210(4) 0.31836(4)
Zn3_10 Zn 0.14173(4) 0.15330(4) 0.43159(4)
Zn5_5 Zn 0.26246(4) 0.07794(4) 0.32090(4)
C7_10 C 0.0068(5) 0.0533(5) 0.2759(4)
C9_10 C 0.1471(3) 0.2776(3) 0.4739(2)
C10_10 C 0.1332(3) 0.3182(4) 0.4614(2)
C11_10 C 0.1392(3) 0.3558(3) 0.4814(3)
H4_10 H 0.1298 0.3833 0.4729
C12_10 C 0.1592(3) 0.3529(3) 0.5139(3)
C13_10 C 0.1731(2) 0.3124(3) 0.5264(2)
H5_10 H 0.1866 0.3104 0.5484
C14_10 C 0.1671(2) 0.2747(2) 0.5064(3)
H6_10 H 0.1765 0.2473 0.5149
C15_10 C 0.1400(5) 0.2336(5) 0.4536(4)
C16_10 C 0.1650(6) 0.3958(5) 0.5301(4)
C23_10 C 0.0376(3) 0.1224(2) 0.3633(2)
C24_10 C 0.0546(2) 0.1489(3) 0.3897(3)
C25_10 C 0.0298(3) 0.1837(3) 0.4029(2)
H11_10 H 0.0413 0.2015 0.4207
C29_10 C 0.1760(2) 0.0376(3) 0.4871(2)
C30_10 C 0.1671(2) 0.0831(3) 0.48719(19)
C31_10 C 0.1684(2) 0.1068(2) 0.5187(3)
H15_10 H 0.1625 0.1372 0.5187
C32_10 C 0.1787(2) 0.0852(3) 0.5501(2)
H16_10 H 0.1796 0.1011 0.5712
C33_10 C 0.1875(2) 0.0397(3) 0.5500(2)
H17_10 H 0.1944 0.0252 0.5710
C34_10 C 0.1862(2) 0.0159(2) 0.5186(3)
C35_10 C 0.1916(3) 0.0502(2) 0.26513(17)
C36_10 C 0.1460(3) 0.0423(2) 0.26440(19)
C37_8 C 0.1249(2) 0.0332(2) 0.2325(2)
H19_8 H 0.0944 0.0279 0.2320
C38_8 C 0.1494(3) 0.03219(19) 0.20139(19)
H20_8 H 0.1352 0.0262 0.1801
C39_8 C 0.1950(3) 0.0401(2) 0.20212(18)
H21_8 H 0.2113 0.0394 0.1813
C40_8 C 0.2161(2) 0.04915(19) 0.2340(2)
H22_8 H 0.2466 0.0545 0.2345
C41_8 C 0.2601(3) 0.1649(2) 0.3686(2)
C42_10 C 0.2325(2) 0.1836(3) 0.3925(2)
C43_10 C 0.2429(3) 0.2233(3) 0.4071(2)
H23_10 H 0.2239 0.2362 0.4235
C44_8 C 0.2809(3) 0.2443(2) 0.3978(2)
H24_8 H 0.2880 0.2716 0.4078
C45_8 C 0.3085(2) 0.2255(3) 0.3739(3)
H25_8 H 0.3346 0.2400 0.3675
C46_8 C 0.2981(3) 0.1859(3) 0.3593(2)
H26_8 H 0.3171 0.1730 0.3429
N1_8 N 0.2599(3) 0.0231(2) 0.3577(2)
N2_10 N 0.2239(3) 0.0162(2) 0.3760(2)
N4_10 N 0.0682(3) 0.0923(3) 0.3527(2)
N5_10 N 0.1027(3) 0.0988(2) 0.3738(2)
N6_10 N 0.0957(2) 0.1324(3) 0.3954(2)
N7_10 N 0.1724(3) 0.0213(3) 0.4530(3)
N8_10 N 0.1632(2) 0.0572(3) 0.4334(2)
N9_10 N 0.1604(2) 0.0937(2) 0.4535(2)
N10_10 N 0.2019(3) 0.0592(2) 0.2997(2)
N11_10 N 0.1638(3) 0.0552(2) 0.3175(2)
N12_10 N 0.1297(3) 0.0454(3) 0.2967(2)
N13_10 N 0.2434(2) 0.1247(3) 0.3582(2)
N14_10 N 0.2051(3) 0.1182(2) 0.3756(2)
N15_10 N 0.1966(2) 0.1535(2) 0.3959(2)
N20_10 N 0.1133(5) 0.3204(4) 0.4333(4)
H33_10 H 0.1080 0.2966 0.4215
H34_10 H 0.1045 0.3458 0.4255
O1_10 O 0.0085(3) 0.0254(3) 0.3018(3)
O2_10 O 0.0374(3) 0.0778(3) 0.2716(3)
O5_10 O 0.1580(3) 0.1986(2) 0.4681(2)
O6_10 O 0.1215(3) 0.2316(3) 0.4247(3)
O7_6 O 0.1897(3) 0.3960(3) 0.5577(3)
O8_6 O 0.1451(4) 0.4303(3) 0.5240(3)
O9_8 O 0.2606(2) 0.1369(2) 0.28363(19)
O10_10 O 0.0796(3) 0.1452(3) 0.4690(3)
Zn6_6 Zn 0.17712(4) 0.46167(3) 0.57060(4)
O11_5 O 0.3059(2) 0.0501(3) 0.2834(2)
O12_5 O 0.3345(3) 0.0917(3) 0.3243(3)
H35_10 H 0.069193 0.113844 0.468387
H36_10 H 0.0881235 0.153219 0.493498
H37_8 H 0.258117 0.164844 0.297475
H38_8 H 0.288341 0.137556 0.269404
Zn4_6 Zn 0.17712(4) 0.96167(3) 0.42940(4)
C17_9 C 0.2883(3) 0.9890(2) 0.3659(2)
C18_9 C 0.2668(2) 0.9612(3) 0.3890(2)
C19_9 C 0.2878(3) 0.9237(3) 0.4013(2)
H7_9 H 0.2732 0.9049 0.4169
C20_9 C 0.3303(3) 0.9141(3) 0.3905(3)
H8_9 H 0.3445 0.8887 0.3988
C21_9 C 0.3518(2) 0.9419(4) 0.3674(3)
H9_9 H 0.3806 0.9353 0.3600
C22_9 C 0.3308(3) 0.9793(3) 0.3551(2)
H10_9 H 0.3454 0.9982 0.3394
H18_10 H 0.1921 0.9855 0.5185
C47_11 C 0.0937(2) 0.9307(3) 0.3860(2)
C48_11 C 0.0681(3) 0.9504(2) 0.3613(2)
C49_11 C 0.0328(3) 0.9286(3) 0.3477(2)
H27_11 H 0.0152 0.9422 0.3307
C50_11 C 0.0231(3) 0.8871(3) 0.3589(3)
C51_11 C 0.0486(3) 0.8674(2) 0.3836(3)
H29_11 H 0.0419 0.8388 0.3913
C52_11 C 0.0840(3) 0.8892(3) 0.3972(2)
H30_11 H 0.1016 0.8756 0.4142
N3_11 N 0.2272(2) 0.9788(3) 0.3957(2)
N16_11 N 0.1251(2) 0.9606(3) 0.3948(2)
N17_11 N 0.1186(2) 0.9973(2) 0.3750(2)
N18_11 N 0.0837(3) 0.9926(3) 0.3539(2)
O13_6 O 0.1897(3) 0.8960(3) 0.4423(3)
O14_6 O 0.1451(4) 0.9303(3) 0.4760(3)
C1_8 C 0.8848(2) 0.0654(3) 0.2230(2)
C2_8 C 0.9211(3) 0.0882(3) 0.2106(2)
C3_8 C 0.9613(3) 0.0847(3) 0.2276(3)
H1_8 H 0.9859 0.1001 0.2191
C4_10 C 0.9651(2) 0.0585(3) 0.2570(2)
C5_10 C 0.9288(3) 0.0357(2) 0.2695(2)
H2_10 H 0.9314 0.0180 0.2894
C6_10 C 0.8886(3) 0.0392(2) 0.2525(2)
H3_10 H 0.8640 0.0238 0.2609
C8_8 C 0.8386(4) 0.0695(4) 0.2034(4)
C26_10 C 0.9879(3) 0.1920(2) 0.3897(3)
H12_10 H 0.9711 0.2154 0.3986
C27_10 C 0.9708(2) 0.1655(3) 0.3633(3)
H13_10 H 0.9425 0.1711 0.3543
C28_10 C 0.9956(3) 0.1307(3) 0.3501(2)
H14_10 H 0.9841 0.1128 0.3322
N19_8 N 0.9244(5) 0.1083(5) 0.1808(3)
H31_8 H 0.9023 0.1083 0.1664
H32_8 H 0.9487 0.1218 0.1753
O3_5 O 0.8059(2) 0.0501(3) 0.2166(2)
O4_5 O 0.8345(3) 0.0917(3) 0.1757(3)
Zn7_5 Zn 0.76246(4) 0.07794(4) 0.17910(4)
Zn1_11 Zn 0.66411(3) 0.05861(3) 0.12477(4)
Zn2_11 Zn 0.56988(4) 0.04210(4) 0.18164(4)
Zn3_11 Zn 0.64173(4) 0.15330(4) 0.06841(4)
C1_9 C 0.3848(2) 0.0654(3) 0.2770(2)
C2_9 C 0.4211(3) 0.0882(3) 0.2894(2)
C3_9 C 0.4613(3) 0.0847(3) 0.2724(3)
H1_9 H 0.4859 0.1001 0.2809
C4_11 C 0.4651(2) 0.0585(3) 0.2430(2)
C5_11 C 0.4288(3) 0.0357(2) 0.2305(2)
H2_11 H 0.4314 0.0180 0.2106
C6_11 C 0.3886(3) 0.0392(2) 0.2475(2)
H3_11 H 0.3640 0.0238 0.2391
C7_11 C 0.5068(5) 0.0533(5) 0.2241(4)
C8_9 C 0.3386(4) 0.0695(4) 0.2966(4)
C9_11 C 0.6471(3) 0.2776(3) 0.0261(2)
C10_11 C 0.6332(3) 0.3182(4) 0.0386(2)
C11_11 C 0.6392(3) 0.3558(3) 0.0186(3)
H4_11 H 0.6298 0.3833 0.0271
C15_11 C 0.6400(5) 0.2336(5) 0.0464(4)
C23_11 C 0.5376(3) 0.1224(2) 0.1367(2)
C24_11 C 0.5546(2) 0.1489(3) 0.1103(3)
C25_11 C 0.5298(3) 0.1837(3) 0.0971(2)
H11_11 H 0.5413 0.2015 0.0793
C26_11 C 0.4879(3) 0.1920(2) 0.1103(3)
H12_11 H 0.4711 0.2154 0.1014
C27_11 C 0.4708(2) 0.1655(3) 0.1367(3)
H13_11 H 0.4425 0.1711 0.1457
C28_11 C 0.4956(3) 0.1307(3) 0.1499(2)
H14_11 H 0.4841 0.1128 0.1678
C29_11 C 0.6760(2) 0.0376(3) 0.0129(2)
C30_11 C 0.6671(2) 0.0831(3) 0.01281(19)
C35_11 C 0.6916(3) 0.0502(2) 0.23487(17)
C36_11 C 0.6460(3) 0.0423(2) 0.23560(19)
C37_9 C 0.6249(2) 0.0332(2) 0.2675(2)
H19_9 H 0.5944 0.0279 0.2680
C38_9 C 0.6494(3) 0.03219(19) 0.29861(19)
H20_9 H 0.6352 0.0262 0.3199
C39_9 C 0.6950(3) 0.0401(2) 0.29788(18)
H21_9 H 0.7113 0.0394 0.3187
C40_9 C 0.7161(2) 0.04915(19) 0.2660(2)
H22_9 H 0.7466 0.0545 0.2655
C41_9 C 0.7601(3) 0.1649(2) 0.1314(2)
C42_11 C 0.7325(2) 0.1836(3) 0.1075(2)
C43_11 C 0.7429(3) 0.2233(3) 0.0929(2)
H23_11 H 0.7239 0.2362 0.0765
C44_9 C 0.7809(3) 0.2443(2) 0.1022(2)
H24_9 H 0.7880 0.2716 0.0922
C45_9 C 0.8085(2) 0.2255(3) 0.1261(3)
H25_9 H 0.8346 0.2400 0.1325
C46_9 C 0.7981(3) 0.1859(3) 0.1407(2)
H26_9 H 0.8171 0.1730 0.1571
N1_9 N 0.7599(3) 0.0231(2) 0.1423(2)
N2_11 N 0.7239(3) 0.0162(2) 0.1240(2)
N4_11 N 0.5682(3) 0.0923(3) 0.1473(2)
N5_11 N 0.6027(3) 0.0988(2) 0.1262(2)
N6_11 N 0.5957(2) 0.1324(3) 0.1046(2)
N7_11 N 0.6724(3) 0.0213(3) 0.0470(3)
N8_11 N 0.6632(2) 0.0572(3) 0.0666(2)
N9_11 N 0.6604(2) 0.0937(2) 0.0465(2)
N10_11 N 0.7019(3) 0.0592(2) 0.2003(2)
N11_11 N 0.6638(3) 0.0552(2) 0.1825(2)
N12_11 N 0.6297(3) 0.0454(3) 0.2033(2)
N13_11 N 0.7434(2) 0.1247(3) 0.1418(2)
N14_11 N 0.7051(3) 0.1182(2) 0.1244(2)
N15_11 N 0.6966(2) 0.1535(2) 0.1041(2)
N19_9 N 0.4244(5) 0.1083(5) 0.3192(3)
H31_9 H 0.4023 0.1083 0.3336
H32_9 H 0.4487 0.1218 0.3247
N20_11 N 0.6133(5) 0.3204(4) 0.0667(4)
H33_11 H 0.6080 0.2966 0.0785
H34_11 H 0.6045 0.3458 0.0745
O1_11 O 0.5085(3) 0.0254(3) 0.1982(3)
O2_11 O 0.5374(3) 0.0778(3) 0.2284(3)
O5_11 O 0.6580(3) 0.1986(2) 0.0319(2)
O6_11 O 0.6215(3) 0.2316(3) 0.0753(3)
O9_9 O 0.7606(2) 0.1369(2) 0.21637(19)
O10_11 O 0.5796(3) 0.1452(3) 0.0310(3)
H35_11 H 0.569193 0.113844 0.0316126
H36_11 H 0.588123 0.153219 0.00650248
H37_9 H 0.758117 0.164844 0.202525
H38_9 H 0.788341 0.137556 0.230596
C12_11 C 0.6592(3) 0.3529(3) 0.9861(3)
C13_11 C 0.6731(2) 0.3124(3) 0.9736(2)
H5_11 H 0.6866 0.3104 0.9516
C14_11 C 0.6671(2) 0.2747(2) 0.9936(3)
H6_11 H 0.6765 0.2473 0.9851
C16_11 C 0.6650(6) 0.3958(5) 0.9699(4)
C31_11 C 0.6684(2) 0.1068(2) 0.9813(3)
H15_11 H 0.6625 0.1372 0.9813
C32_11 C 0.6787(2) 0.0852(3) 0.9499(2)
H16_11 H 0.6796 0.1011 0.9288
C33_11 C 0.6875(2) 0.0397(3) 0.9500(2)
H17_11 H 0.6944 0.0252 0.9290
C34_11 C 0.6862(2) 0.0159(2) 0.9814(3)
Zn1_12 Zn 0.16411(3) 0.55861(3) 0.62477(4)
Zn2_12 Zn 0.06988(4) 0.54210(4) 0.68164(4)
Zn3_12 Zn 0.14173(4) 0.65330(4) 0.56841(4)
C7_12 C 0.0068(5) 0.5533(5) 0.7241(4)
C9_12 C 0.1471(3) 0.7776(3) 0.5261(2)
C10_12 C 0.1332(3) 0.8182(4) 0.5386(2)
C11_12 C 0.1392(3) 0.8558(3) 0.5186(3)
H4_12 H 0.1298 0.8833 0.5271
C12_12 C 0.1592(3) 0.8529(3) 0.4861(3)
C13_12 C 0.1731(2) 0.8124(3) 0.4736(2)
H5_12 H 0.1866 0.8104 0.4516
C14_12 C 0.1671(2) 0.7747(2) 0.4936(3)
H6_12 H 0.1765 0.7473 0.4851
C15_12 C 0.1400(5) 0.7336(5) 0.5464(4)
C16_12 C 0.1650(6) 0.8958(5) 0.4699(4)
C17_10 C 0.2883(3) 0.4890(2) 0.6341(2)
C18_10 C 0.2668(2) 0.4612(3) 0.6110(2)
C19_10 C 0.2878(3) 0.4237(3) 0.5987(2)
H7_10 H 0.2732 0.4049 0.5831
C20_10 C 0.3303(3) 0.4141(3) 0.6095(3)
H8_10 H 0.3445 0.3887 0.6012
C21_10 C 0.3518(2) 0.4419(4) 0.6326(3)
H9_10 H 0.3806 0.4353 0.6400
C22_10 C 0.3308(3) 0.4793(3) 0.6449(2)
H10_10 H 0.3454 0.4982 0.6606
C23_12 C 0.0376(3) 0.6224(2) 0.6367(2)
C24_12 C 0.0546(2) 0.6489(3) 0.6103(3)
C25_12 C 0.0298(3) 0.6837(3) 0.5971(2)
H11_12 H 0.0413 0.7015 0.5793
C29_12 C 0.1760(2) 0.5376(3) 0.5129(2)
C30_12 C 0.1671(2) 0.5831(3) 0.51281(19)
C31_12 C 0.1684(2) 0.6068(2) 0.4813(3)
H15_12 H 0.1625 0.6372 0.4813
C32_12 C 0.1787(2) 0.5852(3) 0.4499(2)
H16_12 H 0.1796 0.6011 0.4288
C33_12 C 0.1875(2) 0.5397(3) 0.4500(2)
H17_12 H 0.1944 0.5252 0.4290
C34_12 C 0.1862(2) 0.5159(2) 0.4814(3)
H18_11 H 0.1921 0.4855 0.4815
C35_12 C 0.1916(3) 0.5502(2) 0.73487(17)
C36_12 C 0.1460(3) 0.5423(2) 0.73560(19)
C37_10 C 0.1249(2) 0.5332(2) 0.7675(2)
H19_10 H 0.0944 0.5279 0.7680
C38_10 C 0.1494(3) 0.53219(19) 0.79861(19)
H20_10 H 0.1352 0.5262 0.8199
C39_10 C 0.1950(3) 0.5401(2) 0.79788(18)
H21_10 H 0.2113 0.5394 0.8187
C40_10 C 0.2161(2) 0.54915(19) 0.7660(2)
H22_10 H 0.2466 0.5545 0.7655
C41_10 C 0.2601(3) 0.6649(2) 0.6314(2)
C42_12 C 0.2325(2) 0.6836(3) 0.6075(2)
C43_12 C 0.2429(3) 0.7233(3) 0.5929(2)
H23_12 H 0.2239 0.7362 0.5765
C44_10 C 0.2809(3) 0.7443(2) 0.6022(2)
H24_10 H 0.2880 0.7716 0.5922
C45_10 C 0.3085(2) 0.7255(3) 0.6261(3)
H25_10 H 0.3346 0.7400 0.6325
C46_10 C 0.2981(3) 0.6859(3) 0.6407(2)
H26_10 H 0.3171 0.6730 0.6571
C47_12 C 0.0937(2) 0.4307(3) 0.6140(2)
C48_12 C 0.0681(3) 0.4504(2) 0.6387(2)
C49_12 C 0.0328(3) 0.4286(3) 0.6523(2)
H27_12 H 0.0152 0.4422 0.6693
C50_12 C 0.0231(3) 0.3871(3) 0.6411(3)
C51_12 C 0.0486(3) 0.3674(2) 0.6164(3)
H29_12 H 0.0419 0.3388 0.6087
C52_12 C 0.0840(3) 0.3892(3) 0.6028(2)
H30_12 H 0.1016 0.3756 0.5858
N1_10 N 0.2599(3) 0.5231(2) 0.6423(2)
N2_12 N 0.2239(3) 0.5162(2) 0.6240(2)
N3_12 N 0.2272(2) 0.4788(3) 0.6043(2)
N4_12 N 0.0682(3) 0.5923(3) 0.6473(2)
N5_12 N 0.1027(3) 0.5988(2) 0.6262(2)
N6_12 N 0.0957(2) 0.6324(3) 0.6046(2)
N7_12 N 0.1724(3) 0.5213(3) 0.5470(3)
N8_12 N 0.1632(2) 0.5572(3) 0.5666(2)
N9_12 N 0.1604(2) 0.5937(2) 0.5465(2)
N10_12 N 0.2019(3) 0.5592(2) 0.7003(2)
N11_12 N 0.1638(3) 0.5552(2) 0.6825(2)
N12_12 N 0.1297(3) 0.5454(3) 0.7033(2)
N13_12 N 0.2434(2) 0.6247(3) 0.6418(2)
N14_12 N 0.2051(3) 0.6182(2) 0.6244(2)
N15_12 N 0.1966(2) 0.6535(2) 0.6041(2)
N16_12 N 0.1251(2) 0.4606(3) 0.6052(2)
N17_12 N 0.1186(2) 0.4973(2) 0.6250(2)
N18_12 N 0.0837(3) 0.4926(3) 0.6461(2)
N20_12 N 0.1133(5) 0.8204(4) 0.5667(4)
H33_12 H 0.1080 0.7966 0.5785
H34_12 H 0.1045 0.8458 0.5745
O1_12 O 0.0085(3) 0.5254(3) 0.6982(3)
O2_12 O 0.0374(3) 0.5778(3) 0.7284(3)
O5_12 O 0.1580(3) 0.6986(2) 0.5319(2)
O6_12 O 0.1215(3) 0.7316(3) 0.5753(3)
O9_10 O 0.2606(2) 0.6369(2) 0.71637(19)
O10_12 O 0.0796(3) 0.6452(3) 0.5310(3)
H35_12 H 0.069193 0.613844 0.531613
H36_12 H 0.0881235 0.653219 0.506502
H37_10 H 0.258117 0.664844 0.702525
H38_10 H 0.288341 0.637556 0.730596
C1_10 C 0.8848(2) 0.5654(3) 0.7770(2)
C2_10 C 0.9211(3) 0.5882(3) 0.7894(2)
C3_10 C 0.9613(3) 0.5847(3) 0.7724(3)
H1_10 H 0.9859 0.6001 0.7809
C4_12 C 0.9651(2) 0.5585(3) 0.7430(2)
C5_12 C 0.9288(3) 0.5357(2) 0.7305(2)
H2_12 H 0.9314 0.5180 0.7106
C6_12 C 0.8886(3) 0.5392(2) 0.7475(2)
H3_12 H 0.8640 0.5238 0.7391
C8_10 C 0.8386(4) 0.5695(4) 0.7966(4)
C26_12 C 0.9879(3) 0.6920(2) 0.6103(3)
H12_12 H 0.9711 0.7154 0.6014
C27_12 C 0.9708(2) 0.6655(3) 0.6367(3)
H13_12 H 0.9425 0.6711 0.6457
C28_12 C 0.9956(3) 0.6307(3) 0.6499(2)
H14_12 H 0.9841 0.6128 0.6678
H28_11 H 0.9987 0.3721 0.6505
N19_10 N 0.9244(5) 0.6083(5) 0.8192(3)
H31_10 H 0.9023 0.6083 0.8336
H32_10 H 0.9487 0.6218 0.8247
H18_12 H 0.3079 0.0145 0.0185
Zn4_7 Zn 0.32288(4) 0.03833(3) 0.92940(4)
C17_11 C 0.2117(3) 0.0110(2) 0.8659(2)
C18_11 C 0.2332(2) 0.0388(3) 0.8890(2)
C19_11 C 0.2122(3) 0.0763(3) 0.9013(2)
H7_11 H 0.2268 0.0951 0.9169
C20_11 C 0.1697(3) 0.0859(3) 0.8905(3)
H8_11 H 0.1555 0.1113 0.8988
C21_11 C 0.1482(2) 0.0581(4) 0.8674(3)
H9_11 H 0.1194 0.0647 0.8600
C22_11 C 0.1692(3) 0.0207(3) 0.8551(2)
H10_11 H 0.1546 0.0018 0.8394
C47_13 C 0.4063(2) 0.0693(3) 0.8860(2)
C48_13 C 0.4319(3) 0.0496(2) 0.8613(2)
C49_13 C 0.4672(3) 0.0714(3) 0.8477(2)
H27_13 H 0.4848 0.0578 0.8307
C50_13 C 0.4769(3) 0.1129(3) 0.8589(3)
H28_12 H 0.5013 0.1279 0.8495
C51_13 C 0.4514(3) 0.1326(2) 0.8836(3)
H29_13 H 0.4581 0.1612 0.8913
C52_13 C 0.4160(3) 0.1108(3) 0.8972(2)
H30_13 H 0.3984 0.1244 0.9142
N3_13 N 0.2728(2) 0.0212(3) 0.8957(2)
N16_13 N 0.3749(2) 0.0394(3) 0.8948(2)
N17_13 N 0.3814(2) 0.0027(2) 0.8750(2)
N18_13 N 0.4163(3) 0.0074(3) 0.8539(2)
O13_7 O 0.3103(3) 0.1040(3) 0.9423(3)
O14_7 O 0.3549(4) 0.0697(3) 0.9760(3)
C12_13 C 0.3408(3) 0.1471(3) 0.9861(3)
C13_13 C 0.3269(2) 0.1876(3) 0.9736(2)
H5_13 H 0.3134 0.1896 0.9516
C14_13 C 0.3329(2) 0.2253(2) 0.9936(3)
H6_13 H 0.3235 0.2527 0.9851
C16_13 C 0.3350(6) 0.1042(5) 0.9699(4)
C31_13 C 0.3316(2) 0.3932(2) 0.9813(3)
H15_13 H 0.3375 0.3628 0.9813
C32_13 C 0.3213(2) 0.4148(3) 0.9499(2)
H16_13 H 0.3204 0.3989 0.9288
C33_13 C 0.3125(2) 0.4603(3) 0.9500(2)
H17_13 H 0.3056 0.4748 0.9290
C34_13 C 0.3138(2) 0.4841(2) 0.9814(3)
H18_13 H 0.3079 0.5145 0.9815
C12_14 C 0.3408(3) 0.6471(3) 0.0139(3)
C13_14 C 0.3269(2) 0.6876(3) 0.0264(2)
H5_14 H 0.3134 0.6896 0.0484
C14_14 C 0.3329(2) 0.7253(2) 0.0064(3)
H6_14 H 0.3235 0.7527 0.0149
C16_14 C 0.3350(6) 0.6042(5) 0.0301(4)
C31_14 C 0.3316(2) 0.8932(2) 0.0187(3)
H15_14 H 0.3375 0.8628 0.0187
C32_14 C 0.3213(2) 0.9148(3) 0.0501(2)
H16_14 H 0.3204 0.8989 0.0712
C33_14 C 0.3125(2) 0.9603(3) 0.0500(2)
H17_14 H 0.3056 0.9748 0.0710
C34_14 C 0.3138(2) 0.9841(2) 0.0186(3)
O7_7 O 0.3103(3) 0.6040(3) 0.0577(3)
O8_7 O 0.3549(4) 0.5697(3) 0.0240(3)
Zn6_7 Zn 0.32288(4) 0.53833(3) 0.07060(4)
Zn1_13 Zn 0.33589(3) 0.94139(3) 0.87523(4)
Zn2_13 Zn 0.43012(4) 0.95790(4) 0.81836(4)
Zn3_13 Zn 0.35827(4) 0.84670(4) 0.93159(4)
Zn5_6 Zn 0.23754(4) 0.92206(4) 0.82090(4)
C1_11 C 0.6152(2) 0.9346(3) 0.7230(2)
C2_11 C 0.5789(3) 0.9118(3) 0.7106(2)
C3_11 C 0.5387(3) 0.9153(3) 0.7276(3)
H1_11 H 0.5141 0.8999 0.7191
C4_13 C 0.5349(2) 0.9415(3) 0.7570(2)
C5_13 C 0.5712(3) 0.9643(2) 0.7695(2)
H2_13 H 0.5686 0.9820 0.7894
C6_13 C 0.6114(3) 0.9608(2) 0.7525(2)
H3_13 H 0.6360 0.9762 0.7609
C7_13 C 0.4932(5) 0.9467(5) 0.7759(4)
C8_11 C 0.6614(4) 0.9305(4) 0.7034(4)
C9_13 C 0.3529(3) 0.7224(3) 0.9739(2)
C10_13 C 0.3668(3) 0.6818(4) 0.9614(2)
C11_13 C 0.3608(3) 0.6442(3) 0.9814(3)
H4_13 H 0.3702 0.6167 0.9729
C15_13 C 0.3600(5) 0.7664(5) 0.9536(4)
C23_13 C 0.4624(3) 0.8776(2) 0.8633(2)
C24_13 C 0.4454(2) 0.8511(3) 0.8897(3)
C25_13 C 0.4702(3) 0.8163(3) 0.9029(2)
H11_13 H 0.4587 0.7985 0.9207
C26_13 C 0.5121(3) 0.8080(2) 0.8897(3)
H12_13 H 0.5289 0.7846 0.8986
C27_13 C 0.5292(2) 0.8345(3) 0.8633(3)
H13_13 H 0.5575 0.8289 0.8543
C28_13 C 0.5044(3) 0.8693(3) 0.8501(2)
H14_13 H 0.5159 0.8872 0.8322
C29_13 C 0.3240(2) 0.9624(3) 0.9871(2)
C30_13 C 0.3329(2) 0.9169(3) 0.98719(19)
C35_13 C 0.3084(3) 0.9498(2) 0.76513(17)
C36_13 C 0.3540(3) 0.9577(2) 0.76440(19)
C37_11 C 0.3751(2) 0.9668(2) 0.7325(2)
H19_11 H 0.4056 0.9721 0.7320
C38_11 C 0.3506(3) 0.96781(19) 0.70139(19)
H20_11 H 0.3648 0.9738 0.6801
C39_11 C 0.3050(3) 0.9599(2) 0.70212(18)
H21_11 H 0.2887 0.9606 0.6813
C40_11 C 0.2839(2) 0.95085(19) 0.7340(2)
H22_11 H 0.2534 0.9455 0.7345
C41_11 C 0.2399(3) 0.8351(2) 0.8686(2)
C42_13 C 0.2675(2) 0.8164(3) 0.8925(2)
C43_13 C 0.2571(3) 0.7767(3) 0.9071(2)
H23_13 H 0.2761 0.7638 0.9235
C44_11 C 0.2191(3) 0.7557(2) 0.8978(2)
H24_11 H 0.2120 0.7284 0.9078
C45_11 C 0.1915(2) 0.7745(3) 0.8739(3)
H25_11 H 0.1654 0.7600 0.8675
C46_11 C 0.2019(3) 0.8141(3) 0.8593(2)
H26_11 H 0.1829 0.8270 0.8429
N1_11 N 0.2401(3) 0.9769(2) 0.8577(2)
N2_13 N 0.2761(3) 0.9838(2) 0.8760(2)
N4_13 N 0.4318(3) 0.9077(3) 0.8527(2)
N5_13 N 0.3973(3) 0.9012(2) 0.8738(2)
N6_13 N 0.4043(2) 0.8676(3) 0.8954(2)
N7_13 N 0.3276(3) 0.9787(3) 0.9530(3)
N8_13 N 0.3368(2) 0.9428(3) 0.9334(2)
N9_13 N 0.3396(2) 0.9063(2) 0.9535(2)
N10_13 N 0.2981(3) 0.9408(2) 0.7997(2)
N11_13 N 0.3362(3) 0.9448(2) 0.8175(2)
N12_13 N 0.3703(3) 0.9546(3) 0.7967(2)
N13_13 N 0.2566(2) 0.8753(3) 0.8582(2)
N14_13 N 0.2949(3) 0.8818(2) 0.8756(2)
N15_13 N 0.3034(2) 0.8465(2) 0.8959(2)
N19_11 N 0.5756(5) 0.8917(5) 0.6808(3)
H31_11 H 0.5977 0.8917 0.6664
H32_11 H 0.5513 0.8782 0.6753
N20_13 N 0.3867(5) 0.6796(4) 0.9333(4)
H33_13 H 0.3920 0.7034 0.9215
H34_13 H 0.3955 0.6542 0.9255
O1_13 O 0.4915(3) 0.9746(3) 0.8018(3)
O2_13 O 0.4626(3) 0.9222(3) 0.7716(3)
O3_6 O 0.6941(2) 0.9499(3) 0.7166(2)
O4_6 O 0.6655(3) 0.9083(3) 0.6757(3)
O5_13 O 0.3420(3) 0.8014(2) 0.9681(2)
O6_13 O 0.3785(3) 0.7684(3) 0.9247(3)
O9_11 O 0.2394(2) 0.8631(2) 0.78363(19)
O10_13 O 0.4204(3) 0.8548(3) 0.9690(3)
Zn7_6 Zn 0.73754(4) 0.92206(4) 0.67910(4)
O11_6 O 0.1941(2) 0.9499(3) 0.7834(2)
O12_6 O 0.1655(3) 0.9083(3) 0.8243(3)
H35_13 H 0.430807 0.886156 0.968387
H36_13 H 0.411877 0.846781 0.993498
H37_11 H 0.241883 0.835156 0.797475
H38_11 H 0.211659 0.862444 0.769404
C1_12 C 0.1152(2) 0.4346(3) 0.2230(2)
C2_12 C 0.0789(3) 0.4118(3) 0.2106(2)
C3_12 C 0.0387(3) 0.4153(3) 0.2276(3)
H1_12 H 0.0141 0.3999 0.2191
C4_14 C 0.0349(2) 0.4415(3) 0.2570(2)
C5_14 C 0.0712(3) 0.4643(2) 0.2695(2)
H2_14 H 0.0686 0.4820 0.2894
C6_14 C 0.1114(3) 0.4608(2) 0.2525(2)
H3_14 H 0.1360 0.4762 0.2609
C8_12 C 0.1614(4) 0.4305(4) 0.2034(4)
C26_14 C 0.0121(3) 0.3080(2) 0.3897(3)
H12_14 H 0.0289 0.2846 0.3986
C27_14 C 0.0292(2) 0.3345(3) 0.3633(3)
H13_14 H 0.0575 0.3289 0.3543
C28_14 C 0.0044(3) 0.3693(3) 0.3501(2)
H14_14 H 0.0159 0.3872 0.3322
H28_13 H 0.0013 0.6279 0.3495
N19_12 N 0.0756(5) 0.3917(5) 0.1808(3)
H31_12 H 0.0977 0.3917 0.1664
H32_12 H 0.0513 0.3782 0.1753
O3_7 O 0.1941(2) 0.4499(3) 0.2166(2)
O4_7 O 0.1655(3) 0.4083(3) 0.1757(3)
Zn7_7 Zn 0.23754(4) 0.42206(4) 0.17910(4)
Zn1_14 Zn 0.83589(3) 0.44139(3) 0.37523(4)
Zn2_14 Zn 0.93012(4) 0.45790(4) 0.31836(4)
Zn3_14 Zn 0.85827(4) 0.34670(4) 0.43159(4)
Zn4_8 Zn 0.82288(4) 0.53833(3) 0.42940(4)
Zn5_7 Zn 0.73754(4) 0.42206(4) 0.32090(4)
C7_14 C 0.9932(5) 0.4467(5) 0.2759(4)
C9_14 C 0.8529(3) 0.2224(3) 0.4739(2)
C10_14 C 0.8668(3) 0.1818(4) 0.4614(2)
C11_14 C 0.8608(3) 0.1442(3) 0.4814(3)
H4_14 H 0.8702 0.1167 0.4729
C12_15 C 0.8408(3) 0.1471(3) 0.5139(3)
C13_15 C 0.8269(2) 0.1876(3) 0.5264(2)
H5_15 H 0.8134 0.1896 0.5484
C14_15 C 0.8329(2) 0.2253(2) 0.5064(3)
H6_15 H 0.8235 0.2527 0.5149
C15_14 C 0.8600(5) 0.2664(5) 0.4536(4)
C16_15 C 0.8350(6) 0.1042(5) 0.5301(4)
C17_12 C 0.7117(3) 0.5110(2) 0.3659(2)
C18_12 C 0.7332(2) 0.5388(3) 0.3890(2)
C19_12 C 0.7122(3) 0.5763(3) 0.4013(2)
H7_12 H 0.7268 0.5951 0.4169
C20_12 C 0.6697(3) 0.5859(3) 0.3905(3)
H8_12 H 0.6555 0.6113 0.3988
C21_12 C 0.6482(2) 0.5581(4) 0.3674(3)
H9_12 H 0.6194 0.5647 0.3600
C22_12 C 0.6692(3) 0.5207(3) 0.3551(2)
H10_12 H 0.6546 0.5018 0.3394
C23_14 C 0.9624(3) 0.3776(2) 0.3633(2)
C24_14 C 0.9454(2) 0.3511(3) 0.3897(3)
C25_14 C 0.9702(3) 0.3163(3) 0.4029(2)
H11_14 H 0.9587 0.2985 0.4207
C29_14 C 0.8240(2) 0.4624(3) 0.4871(2)
C30_14 C 0.8329(2) 0.4169(3) 0.48719(19)
C31_15 C 0.8316(2) 0.3932(2) 0.5187(3)
H15_15 H 0.8375 0.3628 0.5187
C32_15 C 0.8213(2) 0.4148(3) 0.5501(2)
H16_15 H 0.8204 0.3989 0.5712
C33_15 C 0.8125(2) 0.4603(3) 0.5500(2)
H17_15 H 0.8056 0.4748 0.5710
C34_15 C 0.8138(2) 0.4841(2) 0.5186(3)
H18_14 H 0.8079 0.5145 0.5185
C35_14 C 0.8084(3) 0.4498(2) 0.26513(17)
C36_14 C 0.8540(3) 0.4577(2) 0.26440(19)
C37_12 C 0.8751(2) 0.4668(2) 0.2325(2)
H19_12 H 0.9056 0.4721 0.2320
C38_12 C 0.8506(3) 0.46781(19) 0.20139(19)
H20_12 H 0.8648 0.4738 0.1801
C39_12 C 0.8050(3) 0.4599(2) 0.20212(18)
H21_12 H 0.7887 0.4606 0.1813
C40_12 C 0.7839(2) 0.45085(19) 0.2340(2)
H22_12 H 0.7534 0.4455 0.2345
C41_12 C 0.7399(3) 0.3351(2) 0.3686(2)
C42_14 C 0.7675(2) 0.3164(3) 0.3925(2)
C43_14 C 0.7571(3) 0.2767(3) 0.4071(2)
H23_14 H 0.7761 0.2638 0.4235
C44_12 C 0.7191(3) 0.2557(2) 0.3978(2)
H24_12 H 0.7120 0.2284 0.4078
C45_12 C 0.6915(2) 0.2745(3) 0.3739(3)
H25_12 H 0.6654 0.2600 0.3675
C46_12 C 0.7019(3) 0.3141(3) 0.3593(2)
H26_12 H 0.6829 0.3270 0.3429
C47_14 C 0.9063(2) 0.5693(3) 0.3860(2)
C48_14 C 0.9319(3) 0.5496(2) 0.3613(2)
C49_14 C 0.9672(3) 0.5714(3) 0.3477(2)
H27_14 H 0.9848 0.5578 0.3307
C50_14 C 0.9769(3) 0.6129(3) 0.3589(3)
C51_14 C 0.9514(3) 0.6326(2) 0.3836(3)
H29_14 H 0.9581 0.6612 0.3913
C52_14 C 0.9160(3) 0.6108(3) 0.3972(2)
H30_14 H 0.8984 0.6244 0.4142
N1_12 N 0.7401(3) 0.4769(2) 0.3577(2)
N2_14 N 0.7761(3) 0.4838(2) 0.3760(2)
N3_14 N 0.7728(2) 0.5212(3) 0.3957(2)
N4_14 N 0.9318(3) 0.4077(3) 0.3527(2)
N5_14 N 0.8973(3) 0.4012(2) 0.3738(2)
N6_14 N 0.9043(2) 0.3676(3) 0.3954(2)
N7_14 N 0.8276(3) 0.4787(3) 0.4530(3)
N8_14 N 0.8368(2) 0.4428(3) 0.4334(2)
N9_14 N 0.8396(2) 0.4063(2) 0.4535(2)
N10_14 N 0.7981(3) 0.4408(2) 0.2997(2)
N11_14 N 0.8362(3) 0.4448(2) 0.3175(2)
N12_14 N 0.8703(3) 0.4546(3) 0.2967(2)
N13_14 N 0.7566(2) 0.3753(3) 0.3582(2)
N14_14 N 0.7949(3) 0.3818(2) 0.3756(2)
N15_14 N 0.8034(2) 0.3465(2) 0.3959(2)
N16_14 N 0.8749(2) 0.5394(3) 0.3948(2)
N17_14 N 0.8814(2) 0.5027(2) 0.3750(2)
N18_14 N 0.9163(3) 0.5074(3) 0.3539(2)
N20_14 N 0.8867(5) 0.1796(4) 0.4333(4)
H33_14 H 0.8920 0.2034 0.4215
H34_14 H 0.8955 0.1542 0.4255
O1_14 O 0.9915(3) 0.4746(3) 0.3018(3)
O2_14 O 0.9626(3) 0.4222(3) 0.2716(3)
O5_14 O 0.8420(3) 0.3014(2) 0.4681(2)
O6_14 O 0.8785(3) 0.2684(3) 0.4247(3)
O7_8 O 0.8103(3) 0.1040(3) 0.5577(3)
O8_8 O 0.8549(4) 0.0697(3) 0.5240(3)
O9_12 O 0.7394(2) 0.3631(2) 0.28363(19)
O10_14 O 0.9204(3) 0.3548(3) 0.4690(3)
Zn6_8 Zn 0.82288(4) 0.03833(3) 0.57060(4)
O11_7 O 0.6941(2) 0.4499(3) 0.2834(2)
O12_7 O 0.6655(3) 0.4083(3) 0.3243(3)
O13_8 O 0.8103(3) 0.6040(3) 0.4423(3)
O14_8 O 0.8549(4) 0.5697(3) 0.4760(3)
H35_14 H 0.930807 0.386156 0.468387
H36_14 H 0.911877 0.346781 0.493498
H37_12 H 0.741883 0.335156 0.297475
H38_12 H 0.711659 0.362444 0.269404
Zn1_15 Zn 0.33589(3) 0.44139(3) 0.12477(4)
Zn2_15 Zn 0.43012(4) 0.45790(4) 0.18164(4)
Zn3_15 Zn 0.35827(4) 0.34670(4) 0.06841(4)
C1_13 C 0.6152(2) 0.4346(3) 0.2770(2)
C2_13 C 0.5789(3) 0.4118(3) 0.2894(2)
C3_13 C 0.5387(3) 0.4153(3) 0.2724(3)
H1_13 H 0.5141 0.3999 0.2809
C4_15 C 0.5349(2) 0.4415(3) 0.2430(2)
C5_15 C 0.5712(3) 0.4643(2) 0.2305(2)
H2_15 H 0.5686 0.4820 0.2106
C6_15 C 0.6114(3) 0.4608(2) 0.2475(2)
H3_15 H 0.6360 0.4762 0.2391
C7_15 C 0.4932(5) 0.4467(5) 0.2241(4)
C8_13 C 0.6614(4) 0.4305(4) 0.2966(4)
C9_15 C 0.3529(3) 0.2224(3) 0.0261(2)
C10_15 C 0.3668(3) 0.1818(4) 0.0386(2)
C11_15 C 0.3608(3) 0.1442(3) 0.0186(3)
H4_15 H 0.3702 0.1167 0.0271
C15_15 C 0.3600(5) 0.2664(5) 0.0464(4)
C17_13 C 0.2117(3) 0.5110(2) 0.1341(2)
C18_13 C 0.2332(2) 0.5388(3) 0.1110(2)
C19_13 C 0.2122(3) 0.5763(3) 0.0987(2)
H7_13 H 0.2268 0.5951 0.0831
C20_13 C 0.1697(3) 0.5859(3) 0.1095(3)
H8_13 H 0.1555 0.6113 0.1012
C21_13 C 0.1482(2) 0.5581(4) 0.1326(3)
H9_13 H 0.1194 0.5647 0.1400
C22_13 C 0.1692(3) 0.5207(3) 0.1449(2)
H10_13 H 0.1546 0.5018 0.1606
C23_15 C 0.4624(3) 0.3776(2) 0.1367(2)
C24_15 C 0.4454(2) 0.3511(3) 0.1103(3)
C25_15 C 0.4702(3) 0.3163(3) 0.0971(2)
H11_15 H 0.4587 0.2985 0.0793
C26_15 C 0.5121(3) 0.3080(2) 0.1103(3)
H12_15 H 0.5289 0.2846 0.1014
C27_15 C 0.5292(2) 0.3345(3) 0.1367(3)
H13_15 H 0.5575 0.3289 0.1457
C28_15 C 0.5044(3) 0.3693(3) 0.1499(2)
H14_15 H 0.5159 0.3872 0.1678
C29_15 C 0.3240(2) 0.4624(3) 0.0129(2)
C30_15 C 0.3329(2) 0.4169(3) 0.01281(19)
C35_15 C 0.3084(3) 0.4498(2) 0.23487(17)
C36_15 C 0.3540(3) 0.4577(2) 0.23560(19)
C37_13 C 0.3751(2) 0.4668(2) 0.2675(2)
H19_13 H 0.4056 0.4721 0.2680
C38_13 C 0.3506(3) 0.46781(19) 0.29861(19)
H20_13 H 0.3648 0.4738 0.3199
C39_13 C 0.3050(3) 0.4599(2) 0.29788(18)
H21_13 H 0.2887 0.4606 0.3187
C40_13 C 0.2839(2) 0.45085(19) 0.2660(2)
H22_13 H 0.2534 0.4455 0.2655
C41_13 C 0.2399(3) 0.3351(2) 0.1314(2)
C42_15 C 0.2675(2) 0.3164(3) 0.1075(2)
C43_15 C 0.2571(3) 0.2767(3) 0.0929(2)
H23_15 H 0.2761 0.2638 0.0765
C44_13 C 0.2191(3) 0.2557(2) 0.1022(2)
H24_13 H 0.2120 0.2284 0.0922
C45_13 C 0.1915(2) 0.2745(3) 0.1261(3)
H25_13 H 0.1654 0.2600 0.1325
C46_13 C 0.2019(3) 0.3141(3) 0.1407(2)
H26_13 H 0.1829 0.3270 0.1571
C47_15 C 0.4063(2) 0.5693(3) 0.1140(2)
C48_15 C 0.4319(3) 0.5496(2) 0.1387(2)
C49_15 C 0.4672(3) 0.5714(3) 0.1523(2)
H27_15 H 0.4848 0.5578 0.1693
C50_15 C 0.4769(3) 0.6129(3) 0.1411(3)
H28_14 H 0.5013 0.6279 0.1505
C51_15 C 0.4514(3) 0.6326(2) 0.1164(3)
H29_15 H 0.4581 0.6612 0.1087
C52_15 C 0.4160(3) 0.6108(3) 0.1028(2)
H30_15 H 0.3984 0.6244 0.0858
N1_13 N 0.2401(3) 0.4769(2) 0.1423(2)
N2_15 N 0.2761(3) 0.4838(2) 0.1240(2)
N3_15 N 0.2728(2) 0.5212(3) 0.1043(2)
N4_15 N 0.4318(3) 0.4077(3) 0.1473(2)
N5_15 N 0.3973(3) 0.4012(2) 0.1262(2)
N6_15 N 0.4043(2) 0.3676(3) 0.1046(2)
N7_15 N 0.3276(3) 0.4787(3) 0.0470(3)
N8_15 N 0.3368(2) 0.4428(3) 0.0666(2)
N9_15 N 0.3396(2) 0.4063(2) 0.0465(2)
N10_15 N 0.2981(3) 0.4408(2) 0.2003(2)
N11_15 N 0.3362(3) 0.4448(2) 0.1825(2)
N12_15 N 0.3703(3) 0.4546(3) 0.2033(2)
N13_15 N 0.2566(2) 0.3753(3) 0.1418(2)
N14_15 N 0.2949(3) 0.3818(2) 0.1244(2)
N15_15 N 0.3034(2) 0.3465(2) 0.1041(2)
N16_15 N 0.3749(2) 0.5394(3) 0.1052(2)
N17_15 N 0.3814(2) 0.5027(2) 0.1250(2)
N18_15 N 0.4163(3) 0.5074(3) 0.1461(2)
N19_13 N 0.5756(5) 0.3917(5) 0.3192(3)
H31_13 H 0.5977 0.3917 0.3336
H32_13 H 0.5513 0.3782 0.3247
N20_15 N 0.3867(5) 0.1796(4) 0.0667(4)
H33_15 H 0.3920 0.2034 0.0785
H34_15 H 0.3955 0.1542 0.0745
O1_15 O 0.4915(3) 0.4746(3) 0.1982(3)
O2_15 O 0.4626(3) 0.4222(3) 0.2284(3)
O5_15 O 0.3420(3) 0.3014(2) 0.0319(2)
O6_15 O 0.3785(3) 0.2684(3) 0.0753(3)
O9_13 O 0.2394(2) 0.3631(2) 0.21637(19)
O10_15 O 0.4204(3) 0.3548(3) 0.0310(3)
H35_15 H 0.430807 0.386156 0.0316126
H36_15 H 0.411877 0.346781 0.00650248
H37_13 H 0.241883 0.335156 0.202525
H38_13 H 0.211659 0.362444 0.230596
C1_14 C 0.1152(2) 0.9346(3) 0.7770(2)
C2_14 C 0.0789(3) 0.9118(3) 0.7894(2)
C3_14 C 0.0387(3) 0.9153(3) 0.7724(3)
H1_14 H 0.0141 0.8999 0.7809
C4_16 C 0.0349(2) 0.9415(3) 0.7430(2)
C5_16 C 0.0712(3) 0.9643(2) 0.7305(2)
H2_16 H 0.0686 0.9820 0.7106
C6_16 C 0.1114(3) 0.9608(2) 0.7475(2)
H3_16 H 0.1360 0.9762 0.7391
C8_14 C 0.1614(4) 0.9305(4) 0.7966(4)
C26_16 C 0.0121(3) 0.8080(2) 0.6103(3)
H12_16 H 0.0289 0.7846 0.6014
C27_16 C 0.0292(2) 0.8345(3) 0.6367(3)
H13_16 H 0.0575 0.8289 0.6457
C28_16 C 0.0044(3) 0.8693(3) 0.6499(2)
H14_16 H 0.0159 0.8872 0.6678
N19_14 N 0.0756(5) 0.8917(5) 0.8192(3)
H31_14 H 0.0977 0.8917 0.8336
H32_14 H 0.0513 0.8782 0.8247
C17_14 C 0.7117(3) 0.0110(2) 0.6341(2)
C18_14 C 0.7332(2) 0.0388(3) 0.6110(2)
C19_14 C 0.7122(3) 0.0763(3) 0.5987(2)
H7_14 H 0.7268 0.0951 0.5831
C20_14 C 0.6697(3) 0.0859(3) 0.6095(3)
H8_14 H 0.6555 0.1113 0.6012
C21_14 C 0.6482(2) 0.0581(4) 0.6326(3)
H9_14 H 0.6194 0.0647 0.6400
C22_14 C 0.6692(3) 0.0207(3) 0.6449(2)
H10_14 H 0.6546 0.0018 0.6606
H18_15 H 0.8079 0.0145 0.4815
C47_16 C 0.9063(2) 0.0693(3) 0.6140(2)
C48_16 C 0.9319(3) 0.0496(2) 0.6387(2)
C49_16 C 0.9672(3) 0.0714(3) 0.6523(2)
H27_16 H 0.9848 0.0578 0.6693
C50_16 C 0.9769(3) 0.1129(3) 0.6411(3)
C51_16 C 0.9514(3) 0.1326(2) 0.6164(3)
H29_16 H 0.9581 0.1612 0.6087
C52_16 C 0.9160(3) 0.1108(3) 0.6028(2)
H30_16 H 0.8984 0.1244 0.5858
N3_16 N 0.7728(2) 0.0212(3) 0.6043(2)
N16_16 N 0.8749(2) 0.0394(3) 0.6052(2)
N17_16 N 0.8814(2) 0.0027(2) 0.6250(2)
N18_16 N 0.9163(3) 0.0074(3) 0.6461(2)
Zn1_16 Zn 0.83589(3) 0.94139(3) 0.62477(4)
Zn2_16 Zn 0.93012(4) 0.95790(4) 0.68164(4)
Zn3_16 Zn 0.85827(4) 0.84670(4) 0.56841(4)
C7_16 C 0.9932(5) 0.9467(5) 0.7241(4)
C9_16 C 0.8529(3) 0.7224(3) 0.5261(2)
C10_16 C 0.8668(3) 0.6818(4) 0.5386(2)
C11_16 C 0.8608(3) 0.6442(3) 0.5186(3)
H4_16 H 0.8702 0.6167 0.5271
C12_16 C 0.8408(3) 0.6471(3) 0.4861(3)
C13_16 C 0.8269(2) 0.6876(3) 0.4736(2)
H5_16 H 0.8134 0.6896 0.4516
C14_16 C 0.8329(2) 0.7253(2) 0.4936(3)
H6_16 H 0.8235 0.7527 0.4851
C15_16 C 0.8600(5) 0.7664(5) 0.5464(4)
C16_16 C 0.8350(6) 0.6042(5) 0.4699(4)
C23_16 C 0.9624(3) 0.8776(2) 0.6367(2)
C24_16 C 0.9454(2) 0.8511(3) 0.6103(3)
C25_16 C 0.9702(3) 0.8163(3) 0.5971(2)
H11_16 H 0.9587 0.7985 0.5793
C29_16 C 0.8240(2) 0.9624(3) 0.5129(2)
C30_16 C 0.8329(2) 0.9169(3) 0.51281(19)
C31_16 C 0.8316(2) 0.8932(2) 0.4813(3)
H15_16 H 0.8375 0.8628 0.4813
C32_16 C 0.8213(2) 0.9148(3) 0.4499(2)
H16_16 H 0.8204 0.8989 0.4288
C33_16 C 0.8125(2) 0.9603(3) 0.4500(2)
H17_16 H 0.8056 0.9748 0.4290
C34_16 C 0.8138(2) 0.9841(2) 0.4814(3)
C35_16 C 0.8084(3) 0.9498(2) 0.73487(17)
C36_16 C 0.8540(3) 0.9577(2) 0.73560(19)
C37_14 C 0.8751(2) 0.9668(2) 0.7675(2)
H19_14 H 0.9056 0.9721 0.7680
C38_14 C 0.8506(3) 0.96781(19) 0.79861(19)
H20_14 H 0.8648 0.9738 0.8199
C39_14 C 0.8050(3) 0.9599(2) 0.79788(18)
H21_14 H 0.7887 0.9606 0.8187
C40_14 C 0.7839(2) 0.95085(19) 0.7660(2)
H22_14 H 0.7534 0.9455 0.7655
C41_14 C 0.7399(3) 0.8351(2) 0.6314(2)
C42_16 C 0.7675(2) 0.8164(3) 0.6075(2)
C43_16 C 0.7571(3) 0.7767(3) 0.5929(2)
H23_16 H 0.7761 0.7638 0.5765
C44_14 C 0.7191(3) 0.7557(2) 0.6022(2)
H24_14 H 0.7120 0.7284 0.5922
C45_14 C 0.6915(2) 0.7745(3) 0.6261(3)
H25_14 H 0.6654 0.7600 0.6325
C46_14 C 0.7019(3) 0.8141(3) 0.6407(2)
H26_14 H 0.6829 0.8270 0.6571
N1_14 N 0.7401(3) 0.9769(2) 0.6423(2)
N2_16 N 0.7761(3) 0.9838(2) 0.6240(2)
N4_16 N 0.9318(3) 0.9077(3) 0.6473(2)
N5_16 N 0.8973(3) 0.9012(2) 0.6262(2)
N6_16 N 0.9043(2) 0.8676(3) 0.6046(2)
N7_16 N 0.8276(3) 0.9787(3) 0.5470(3)
N8_16 N 0.8368(2) 0.9428(3) 0.5666(2)
N9_16 N 0.8396(2) 0.9063(2) 0.5465(2)
N10_16 N 0.7981(3) 0.9408(2) 0.7003(2)
N11_16 N 0.8362(3) 0.9448(2) 0.6825(2)
N12_16 N 0.8703(3) 0.9546(3) 0.7033(2)
N13_16 N 0.7566(2) 0.8753(3) 0.6418(2)
N14_16 N 0.7949(3) 0.8818(2) 0.6244(2)
N15_16 N 0.8034(2) 0.8465(2) 0.6041(2)
N20_16 N 0.8867(5) 0.6796(4) 0.5667(4)
H33_16 H 0.8920 0.7034 0.5785
H34_16 H 0.8955 0.6542 0.5745
O1_16 O 0.9915(3) 0.9746(3) 0.6982(3)
O2_16 O 0.9626(3) 0.9222(3) 0.7284(3)
O5_16 O 0.8420(3) 0.8014(2) 0.5319(2)
O6_16 O 0.8785(3) 0.7684(3) 0.5753(3)
O9_14 O 0.7394(2) 0.8631(2) 0.71637(19)
O10_16 O 0.9204(3) 0.8548(3) 0.5310(3)
H35_16 H 0.930807 0.886156 0.531613
H36_16 H 0.911877 0.846781 0.506502
H37_14 H 0.741883 0.835156 0.702525
H38_14 H 0.711659 0.862444 0.730596
C1_15 C 0.8154(3) 0.8652(2) 0.9730(2)
C2_15 C 0.8382(3) 0.8289(3) 0.9606(2)
C3_15 C 0.8347(3) 0.7887(3) 0.9776(3)
H1_15 H 0.8501 0.7641 0.9691
C8_15 C 0.8195(4) 0.9114(4) 0.9534(4)
C37_15 C 0.7832(2) 0.6251(2) 0.9825(2)
H19_15 H 0.7779 0.6556 0.9820
C38_15 C 0.78219(19) 0.6006(3) 0.95139(19)
H20_15 H 0.7762 0.6148 0.9301
C39_15 C 0.7901(2) 0.5550(3) 0.95212(18)
H21_15 H 0.7894 0.5387 0.9313
C40_15 C 0.79915(19) 0.5339(2) 0.9840(2)
H22_15 H 0.8045 0.5034 0.9845
N19_15 N 0.8583(5) 0.8256(5) 0.9308(3)
H31_15 H 0.8583 0.8477 0.9164
H32_15 H 0.8718 0.8013 0.9253
O3_8 O 0.8001(3) 0.9441(2) 0.9666(2)
O4_8 O 0.8417(3) 0.9155(3) 0.9257(3)
Zn7_8 Zn 0.82794(4) 0.98754(4) 0.92910(4)
C17_15 C 0.7390(2) 0.9617(3) 0.8841(2)
C18_15 C 0.7112(3) 0.9832(2) 0.8610(2)
C19_15 C 0.6737(3) 0.9622(3) 0.8487(2)
H7_15 H 0.6549 0.9768 0.8331
C20_15 C 0.6641(3) 0.9197(3) 0.8595(3)
H8_15 H 0.6387 0.9055 0.8512
C21_15 C 0.6919(4) 0.8982(2) 0.8826(3)
H9_15 H 0.6853 0.8694 0.8900
C22_15 C 0.7293(3) 0.9192(3) 0.8949(2)
H10_15 H 0.7482 0.9046 0.9106
C41_15 C 0.9149(2) 0.9899(3) 0.8814(2)
C44_15 C 0.9943(2) 0.9691(3) 0.8522(2)
C45_15 C 0.9755(3) 0.9415(2) 0.8761(3)
H25_15 H 0.9900 0.9154 0.8825
C46_15 C 0.9359(3) 0.9519(3) 0.8907(2)
H26_15 H 0.9230 0.9329 0.9071
N1_15 N 0.7731(2) 0.9901(3) 0.8923(2)
O9_15 O 0.8869(2) 0.9894(2) 0.96637(19)
H37_15 H 0.914844 0.991883 0.952525
H38_15 H 0.887556 0.961659 0.980596
Zn5_8 Zn 0.17206(4) 0.01246(4) 0.07090(4)
C17_16 C 0.2610(2) 0.0383(3) 0.1159(2)
C18_16 C 0.2888(3) 0.0168(2) 0.1390(2)
C19_16 C 0.3263(3) 0.0378(3) 0.1513(2)
H7_16 H 0.3451 0.0232 0.1669
C20_16 C 0.3359(3) 0.0803(3) 0.1405(3)
H8_16 H 0.3613 0.0945 0.1488
C21_16 C 0.3081(4) 0.1018(2) 0.1174(3)
H9_16 H 0.3147 0.1306 0.1100
C22_16 C 0.2707(3) 0.0808(3) 0.1051(2)
H10_16 H 0.2518 0.0954 0.0894
C41_16 C 0.0851(2) 0.0101(3) 0.1186(2)
C44_16 C 0.0057(2) 0.0309(3) 0.1478(2)
C45_16 C 0.0245(3) 0.0585(2) 0.1239(3)
H25_16 H 0.0100 0.0846 0.1175
C46_16 C 0.0641(3) 0.0481(3) 0.1093(2)
H26_16 H 0.0770 0.0671 0.0929
N1_16 N 0.2269(2) 0.0099(3) 0.1077(2)
O9_16 O 0.1131(2) 0.0106(2) 0.03363(19)
O11_8 O 0.1999(3) 0.0559(2) 0.0334(2)
O12_8 O 0.1583(3) 0.0845(3) 0.0743(3)
H37_16 H 0.0851557 0.00811655 0.0474745
H38_16 H 0.112444 0.0383409 0.0194035
C1_16 C 0.1846(3) 0.1348(2) 0.0270(2)
C2_16 C 0.1618(3) 0.1711(3) 0.0394(2)
C3_16 C 0.1653(3) 0.2113(3) 0.0224(3)
H1_16 H 0.1499 0.2359 0.0309
C8_16 C 0.1805(4) 0.0886(4) 0.0466(4)
C37_16 C 0.2168(2) 0.3749(2) 0.0175(2)
H19_16 H 0.2221 0.3444 0.0180
C38_16 C 0.21781(19) 0.3994(3) 0.04861(19)
H20_16 H 0.2238 0.3852 0.0699
C39_16 C 0.2099(2) 0.4450(3) 0.04788(18)
H21_16 H 0.2106 0.4613 0.0687
C40_16 C 0.20085(19) 0.4661(2) 0.0160(2)
H22_16 H 0.1955 0.4966 0.0155
N19_16 N 0.1417(5) 0.1744(5) 0.0692(3)
H31_16 H 0.1417 0.1523 0.0836
H32_16 H 0.1282 0.1987 0.0747
H24_15 H 0.9784 0.0380 0.1578
H28_15 H 0.9987 0.8721 0.3495
H18_16 H 0.6921 0.9855 0.9815
H24_16 H 0.0216 0.9620 0.8422
H28_16 H 0.0013 0.1279 0.6505
loop_
_geom_bond_atom_site_label_1
_geom_bond_atom_site_label_2
_geom_bond_site_symmetry_1
_geom_bond_site_symmetry_2
Zn1 N2 1_555 1_555
Zn2 N4 1_555 1_555
Zn3 N6 1_555 1_555
Zn4 N3 1_555 1_555
C1 C2 1_555 1_555
C2 C3 1_555 1_555
C3 H1 1_555 1_555
C4 C3 1_555 1_555
C5 C4 1_555 1_555
H2 C5 1_555 1_555
C6 C1 1_555 1_555
H3 C6 1_555 1_555
C7 C4 1_555 1_555
C8 C1 1_555 1_555
C9 C10 1_555 1_555
C10 C11 1_555 1_555
C11 H4 1_555 1_555
C12 C11 1_555 1_555
C13 C12 1_555 1_555
H5 C13 1_555 1_555
C14 C9 1_555 1_555
H6 C14 1_555 1_555
C15 C9 1_555 1_555
C16 C12 1_555 1_555
C23 C24 1_555 1_555
C24 C25 1_555 1_555
C25 H11 1_555 1_555
C26 C25 1_555 1_555
H12 C26 1_555 1_555
C27 C26 1_555 1_555
H13 C27 1_555 1_555
C28 C23 1_555 1_555
H14 C28 1_555 1_555
C29 C30 1_555 1_555
C30 C31 1_555 1_555
C31 H15 1_555 1_555
C32 C31 1_555 1_555
H16 C32 1_555 1_555
C33 C32 1_555 1_555
H17 C33 1_555 1_555
C34 C29 1_555 1_555
H18 C34 1_555 1_555
C35 C36 1_555 1_555
C36 C37 1_555 1_555
C37 H19 1_555 1_555
C38 C37 1_555 1_555
H20 C38 1_555 1_555
C39 C38 1_555 1_555
H21 C39 1_555 1_555
C40 C35 1_555 1_555
H22 C40 1_555 1_555
C42 C43 1_555 1_555
C43 H23 1_555 1_555
C47 C48 1_555 1_555
C48 C49 1_555 1_555
C49 H27 1_555 1_555
C50 C49 1_555 1_555
H28 C50 1_555 1_555
C51 C50 1_555 1_555
H29 C51 1_555 1_555
C52 C47 1_555 1_555
H30 C52 1_555 1_555
N4 C23 1_555 1_555
N5 Zn1 1_555 1_555
N6 C24 1_555 1_555
N7 Zn4 1_555 1_555
N8 Zn1 1_555 1_555
N9 Zn3 1_555 1_555
N11 Zn1 1_555 1_555
N12 Zn2 1_555 1_555
N14 Zn1 1_555 1_555
N15 Zn3 1_555 1_555
N16 Zn4 1_555 1_555
N17 Zn1 1_555 1_555
N18 Zn2 1_555 1_555
N19 C2 1_555 1_555
H31 N19 1_555 1_555
H32 N19 1_555 1_555
N20 C10 1_555 1_555
H33 N20 1_555 1_555
H34 N20 1_555 1_555
O1 Zn2 1_555 1_555
O2 Zn2 1_555 1_555
O3 C8 1_555 1_555
O4 C8 1_555 1_555
O5 Zn3 1_555 1_555
O6 Zn3 1_555 1_555
O7 C16 1_555 1_555
O8 C16 1_555 1_555
O10 Zn3 1_555 1_555
Zn6 O7 1_555 1_555
Zn7 O3 1_555 1_555
O13 Zn4 1_555 1_555
O14 Zn4 1_555 1_555
C5 C6 1_555 1_555
C7 O1 1_555 1_555
C7 O2 1_555 1_555
C13 C14 1_555 1_555
C15 O5 1_555 1_555
C15 O6 1_555 1_555
C27 C28 1_555 1_555
C29 N7 1_555 1_555
C30 N9 1_555 1_555
C33 C34 1_555 1_555
C35 N10 1_555 1_555
C36 N12 1_555 1_555
C39 C40 1_555 1_555
C42 N15 1_555 1_555
C47 N16 1_555 1_555
C48 N18 1_555 1_555
C51 C52 1_555 1_555
N2 N3 1_555 1_555
N4 N5 1_555 1_555
N5 N6 1_555 1_555
N7 N8 1_555 1_555
N8 N9 1_555 1_555
N10 N11 1_555 1_555
N11 N12 1_555 1_555
N13 N14 1_555 1_555
N14 N15 1_555 1_555
N16 N17 1_555 1_555
N17 N18 1_555 1_555
O4 Zn7 1_555 1_555
O8 Zn6 1_555 1_555
O10 H35 1_555 1_555
O10 H36 1_555 1_555
Zn5 N1 1_555 1_555
C17 C18 1_555 1_555
C18 C19 1_555 1_555
C19 H7 1_555 1_555
C20 C19 1_555 1_555
H8 C20 1_555 1_555
C21 C20 1_555 1_555
H9 C21 1_555 1_555
C22 C17 1_555 1_555
H10 C22 1_555 1_555
H24 C44 1_555 1_555
C45 C44 1_555 1_555
H25 C45 1_555 1_555
C46 C41 1_555 1_555
H26 C46 1_555 1_555
N1 C17 1_555 1_555
O9 Zn5 1_555 1_555
O11 Zn5 1_555 1_555
O12 Zn5 1_555 1_555
C21 C22 1_555 1_555
C45 C46 1_555 1_555
O9 H37 1_555 1_555
O9 H38 1_555 1_555
C9_2 C10_2 1_555 1_555
C10_2 C11_2 1_555 1_555
C11_2 H4_2 1_555 1_555
C12_2 C11_2 1_555 1_555
C13_2 C12_2 1_555 1_555
H5_2 C13_2 1_555 1_555
C14_2 C9_2 1_555 1_555
C16_2 C12_2 1_555 1_555
N20_2 C10_2 1_555 1_555
H33_2 N20_2 1_555 1_555
H34_2 N20_2 1_555 1_555
O7_2 C16_2 1_555 1_555
O8_2 C16_2 1_555 1_555
Zn6_2 O7_2 1_555 1_555
C13_2 C14_2 1_555 1_555
O8_2 Zn6_2 1_555 1_555
Zn1_2 N2_2 1_555 1_555
Zn2_2 N4_2 1_555 1_555
Zn3_2 N6_2 1_555 1_555
Zn4_2 N3_2 1_555 1_555
Zn5_2 N1_2 1_555 1_555
C5_2 C4_2 1_555 1_555
H2_2 C5_2 1_555 1_555
H3_2 C6_2 1_555 1_555
C7_2 C4_2 1_555 1_555
C17_2 C18_2 1_555 1_555
C18_2 C19_2 1_555 1_555
C19_2 H7_2 1_555 1_555
C20_2 C19_2 1_555 1_555
H8_2 C20_2 1_555 1_555
C21_2 C20_2 1_555 1_555
H9_2 C21_2 1_555 1_555
C22_2 C17_2 1_555 1_555
H10_2 C22_2 1_555 1_555
C23_2 C24_2 1_555 1_555
C24_2 C25_2 1_555 1_555
C25_2 H11_2 1_555 1_555
C26_2 C25_2 1_555 1_555
H12_2 C26_2 1_555 1_555
C27_2 C26_2 1_555 1_555
H13_2 C27_2 1_555 1_555
C28_2 C23_2 1_555 1_555
H14_2 C28_2 1_555 1_555
C29_2 C30_2 1_555 1_555
C30_2 C31_2 1_555 1_555
C31_2 H15_2 1_555 1_555
C32_2 C31_2 1_555 1_555
H16_2 C32_2 1_555 1_555
C33_2 C32_2 1_555 1_555
H17_2 C33_2 1_555 1_555
C34_2 C29_2 1_555 1_555
H18_2 C34_2 1_555 1_555
C35_2 C36_2 1_555 1_555
C41_2 C42_2 1_555 1_555
C42_2 C43_2 1_555 1_555
C43_2 H23_2 1_555 1_555
C44_2 C43_2 1_555 1_555
C45_2 C44_2 1_555 1_555
H25_2 C45_2 1_555 1_555
C46_2 C41_2 1_555 1_555
H26_2 C46_2 1_555 1_555
C47_2 C48_2 1_555 1_555
C48_2 C49_2 1_555 1_555
C49_2 H27_2 1_555 1_555
C50_2 C49_2 1_555 1_555
H28_2 C50_2 1_555 1_555
C51_2 C50_2 1_555 1_555
H29_2 C51_2 1_555 1_555
C52_2 C47_2 1_555 1_555
H30_2 C52_2 1_555 1_555
N1_2 C17_2 1_555 1_555
N2_2 N1_2 1_555 1_555
N3_2 C18_2 1_555 1_555
N4_2 C23_2 1_555 1_555
N5_2 Zn1_2 1_555 1_555
N6_2 C24_2 1_555 1_555
N7_2 Zn4_2 1_555 1_555
N8_2 Zn1_2 1_555 1_555
N9_2 Zn3_2 1_555 1_555
N10_2 Zn5_2 1_555 1_555
N11_2 Zn1_2 1_555 1_555
N12_2 Zn2_2 1_555 1_555
N13_2 Zn5_2 1_555 1_555
N14_2 Zn1_2 1_555 1_555
N15_2 Zn3_2 1_555 1_555
N16_2 Zn4_2 1_555 1_555
N17_2 Zn1_2 1_555 1_555
N18_2 Zn2_2 1_555 1_555
O1_2 Zn2_2 1_555 1_555
O2_2 Zn2_2 1_555 1_555
O5_2 Zn3_2 1_555 1_555
O6_2 Zn3_2 1_555 1_555
O9_2 Zn5_2 1_555 1_555
O10_2 Zn3_2 1_555 1_555
O11_2 Zn5_2 1_555 1_555
O12_2 Zn5_2 1_555 1_555
O13_2 Zn4_2 1_555 1_555
O14_2 Zn4_2 1_555 1_555
C5_2 C6_2 1_555 1_555
C7_2 O1_2 1_555 1_555
C7_2 O2_2 1_555 1_555
C15_2 O5_2 1_555 1_555
C15_2 O6_2 1_555 1_555
C21_2 C22_2 1_555 1_555
C27_2 C28_2 1_555 1_555
C29_2 N7_2 1_555 1_555
C30_2 N9_2 1_555 1_555
C33_2 C34_2 1_555 1_555
C35_2 N10_2 1_555 1_555
C36_2 N12_2 1_555 1_555
C41_2 N13_2 1_555 1_555
C42_2 N15_2 1_555 1_555
C45_2 C46_2 1_555 1_555
C47_2 N16_2 1_555 1_555
C48_2 N18_2 1_555 1_555
C51_2 C52_2 1_555 1_555
N2_2 N3_2 1_555 1_555
N4_2 N5_2 1_555 1_555
N5_2 N6_2 1_555 1_555
N7_2 N8_2 1_555 1_555
N8_2 N9_2 1_555 1_555
N10_2 N11_2 1_555 1_555
N11_2 N12_2 1_555 1_555
N13_2 N14_2 1_555 1_555
N14_2 N15_2 1_555 1_555
N16_2 N17_2 1_555 1_555
N17_2 N18_2 1_555 1_555
O10_2 H35_2 1_555 1_555
O10_2 H36_2 1_555 1_555
O9_2 H37_2 1_555 1_555
O9_2 H38_2 1_555 1_555
Zn1_3 N2_3 1_555 1_555
Zn2_3 N4_3 1_555 1_555
Zn3_3 N6_3 1_555 1_555
Zn6_2 N3_3 1_555 1_555
Zn7 N1_3 1_555 1_555
C1_2 C2_2 1_555 1_555
C2_2 C3_2 1_555 1_555
C3_2 H1_2 1_555 1_555
C4_3 C3_2 1_555 1_555
C5_3 C4_3 1_555 1_555
H2_3 C5_3 1_555 1_555
C6_3 C1_2 1_555 1_555
H3_3 C6_3 1_555 1_555
C7_3 C4_3 1_555 1_555
C8_2 C1_2 1_555 1_555
C9_3 C10_3 1_555 1_555
C10_3 C11_3 1_555 1_555
C11_3 H4_3 1_555 1_555
C12_3 C11_3 1_555 1_555
C13_3 C12_3 1_555 1_555
H5_3 C13_3 1_555 1_555
C14_3 C9_3 1_555 1_555
H6_3 C14_3 1_555 1_555
C15_3 C9_3 1_555 1_555
C16_3 C12_3 1_555 1_555
C17_3 C18_3 1_555 1_555
C18_3 C19_3 1_555 1_555
C19_3 H7_3 1_555 1_555
C20_3 C19_3 1_555 1_555
H8_3 C20_3 1_555 1_555
C21_3 C20_3 1_555 1_555
H9_3 C21_3 1_555 1_555
C22_3 C17_3 1_555 1_555
H10_3 C22_3 1_555 1_555
C23_3 C24_3 1_555 1_555
C24_3 C25_3 1_555 1_555
C25_3 H11_3 1_555 1_555
C26_3 C25_3 1_555 1_555
H12_3 C26_3 1_555 1_555
C27_3 C26_3 1_555 1_555
H13_3 C27_3 1_555 1_555
C28_3 C23_3 1_555 1_555
H14_3 C28_3 1_555 1_555
C29_3 C30_3 1_555 1_555
C30_3 C31_3 1_555 1_555
C31_3 H15_3 1_555 1_555
C32_3 C31_3 1_555 1_555
H16_3 C32_3 1_555 1_555
C33_3 C32_3 1_555 1_555
H17_3 C33_3 1_555 1_555
C34_3 C29_3 1_555 1_555
H18_3 C34_3 1_555 1_555
C35_3 C36_3 1_555 1_555
C36_3 C37_2 1_555 1_555
C37_2 H19_2 1_555 1_555
C38_2 C37_2 1_555 1_555
H20_2 C38_2 1_555 1_555
C39_2 C38_2 1_555 1_555
H21_2 C39_2 1_555 1_555
C40_2 C35_3 1_555 1_555
H22_2 C40_2 1_555 1_555
C41_3 C42_3 1_555 1_555
C42_3 C43_3 1_555 1_555
C43_3 H23_3 1_555 1_555
C44_3 C43_3 1_555 1_555
H24_3 C44_3 1_555 1_555
C45_3 C44_3 1_555 1_555
H25_3 C45_3 1_555 1_555
C46_3 C41_3 1_555 1_555
H26_3 C46_3 1_555 1_555
C47_3 C48_3 1_555 1_555
C48_3 C49_3 1_555 1_555
C49_3 H27_3 1_555 1_555
C50_3 C49_3 1_555 1_555
H28_3 C50_3 1_555 1_555
C51_3 C50_3 1_555 1_555
H29_3 C51_3 1_555 1_555
C52_3 C47_3 1_555 1_555
H30_3 C52_3 1_555 1_555
N1_3 C17_3 1_555 1_555
N2_3 N1_3 1_555 1_555
N3_3 C18_3 1_555 1_555
N4_3 C23_3 1_555 1_555
N5_3 Zn1_3 1_555 1_555
N6_3 C24_3 1_555 1_555
N7_3 Zn6_2 1_555 1_555
N8_3 Zn1_3 1_555 1_555
N9_3 Zn3_3 1_555 1_555
N10_3 Zn7 1_555 1_555
N11_3 Zn1_3 1_555 1_555
N12_3 Zn2_3 1_555 1_555
N13_3 Zn7 1_555 1_555
N14_3 Zn1_3 1_555 1_555
N15_3 Zn3_3 1_555 1_555
N16_3 Zn6_2 1_555 1_555
N17_3 Zn1_3 1_555 1_555
N18_3 Zn2_3 1_555 1_555
N19_2 C2_2 1_555 1_555
H31_2 N19_2 1_555 1_555
H32_2 N19_2 1_555 1_555
N20_3 C10_3 1_555 1_555
H33_3 N20_3 1_555 1_555
H34_3 N20_3 1_555 1_555
O1_3 Zn2_3 1_555 1_555
O2_3 Zn2_3 1_555 1_555
O11 C8_2 1_555 1_555
O12 C8_2 1_555 1_555
O5_3 Zn3_3 1_555 1_555
O6_3 Zn3_3 1_555 1_555
O13_2 C16_3 1_555 1_555
O14_2 C16_3 1_555 1_555
O9_3 Zn7 1_555 1_555
O10_3 Zn3_3 1_555 1_555
C5_3 C6_3 1_555 1_555
C7_3 O1_3 1_555 1_555
C7_3 O2_3 1_555 1_555
C13_3 C14_3 1_555 1_555
C15_3 O5_3 1_555 1_555
C15_3 O6_3 1_555 1_555
C21_3 C22_3 1_555 1_555
C27_3 C28_3 1_555 1_555
C29_3 N7_3 1_555 1_555
C30_3 N9_3 1_555 1_555
C33_3 C34_3 1_555 1_555
C35_3 N10_3 1_555 1_555
C36_3 N12_3 1_555 1_555
C39_2 C40_2 1_555 1_555
C41_3 N13_3 1_555 1_555
C42_3 N15_3 1_555 1_555
C45_3 C46_3 1_555 1_555
C47_3 N16_3 1_555 1_555
C48_3 N18_3 1_555 1_555
C51_3 C52_3 1_555 1_555
N2_3 N3_3 1_555 1_555
N4_3 N5_3 1_555 1_555
N5_3 N6_3 1_555 1_555
N7_3 N8_3 1_555 1_555
N8_3 N9_3 1_555 1_555
N10_3 N11_3 1_555 1_555
N11_3 N12_3 1_555 1_555
N13_3 N14_3 1_555 1_555
N14_3 N15_3 1_555 1_555
N16_3 N17_3 1_555 1_555
N17_3 N18_3 1_555 1_555
O10_3 H35_3 1_555 1_555
O10_3 H36_3 1_555 1_555
O9_3 H37_3 1_555 1_555
O9_3 H38_3 1_555 1_555
C9_4 C10_4 1_555 1_555
C10_4 C11_4 1_555 1_555
C11_4 H4_4 1_555 1_555
C12_4 C11_4 1_555 1_555
C13_4 C12_4 1_555 1_555
H5_4 C13_4 1_555 1_555
C14_4 C9_4 1_555 1_555
C16_4 C12_4 1_555 1_555
N20_4 C10_4 1_555 1_555
H33_4 N20_4 1_555 1_555
H34_4 N20_4 1_555 1_555
O13 C16_4 1_555 1_555
O14 C16_4 1_555 1_555
C13_4 C14_4 1_555 1_555
C1_3 C2_3 1_555 1_555
C2_3 C3_3 1_555 1_555
C3_3 H1_3 1_555 1_555
C8_3 C1_3 1_555 1_555
C37_3 H19_3 1_555 1_555
C38_3 C37_3 1_555 1_555
H20_3 C38_3 1_555 1_555
C39_3 C38_3 1_555 1_555
H21_3 C39_3 1_555 1_555
H22_3 C40_3 1_555 1_555
N19_3 C2_3 1_555 1_555
H31_3 N19_3 1_555 1_555
H32_3 N19_3 1_555 1_555
O11_2 C8_3 1_555 1_555
O12_2 C8_3 1_555 1_555
C39_3 C40_3 1_555 1_555
Zn1_4 N2_4 1_555 1_555
Zn2_4 N4_4 1_555 1_555
Zn3_4 N6_4 1_555 1_555
Zn6 N3_4 1_555 1_555
C5_4 C4_4 1_555 1_555
H2_4 C5_4 1_555 1_555
H3_4 C6_4 1_555 1_555
C7_4 C4_4 1_555 1_555
C23_4 C24_4 1_555 1_555
C24_4 C25_4 1_555 1_555
C25_4 H11_4 1_555 1_555
C26_4 C25_4 1_555 1_555
H12_4 C26_4 1_555 1_555
C27_4 C26_4 1_555 1_555
H13_4 C27_4 1_555 1_555
C28_4 C23_4 1_555 1_555
H14_4 C28_4 1_555 1_555
C29_4 C30_4 1_555 1_555
C30_4 C31_4 1_555 1_555
C31_4 H15_4 1_555 1_555
C32_4 C31_4 1_555 1_555
H16_4 C32_4 1_555 1_555
C33_4 C32_4 1_555 1_555
H17_4 C33_4 1_555 1_555
C34_4 C29_4 1_555 1_555
H18_4 C34_4 1_555 1_555
C35_4 C36_4 1_555 1_555
C42_4 C43_4 1_555 1_555
C43_4 H23_4 1_555 1_555
C47_4 C48_4 1_555 1_555
C48_4 C49_4 1_555 1_555
C49_4 H27_4 1_555 1_555
C50_4 C49_4 1_555 1_555
H28_4 C50_4 1_555 1_555
C51_4 C50_4 1_555 1_555
H29_4 C51_4 1_555 1_555
C52_4 C47_4 1_555 1_555
H30_4 C52_4 1_555 1_555
N4_4 C23_4 1_555 1_555
N5_4 Zn1_4 1_555 1_555
N6_4 C24_4 1_555 1_555
N7_4 Zn6 1_555 1_555
N8_4 Zn1_4 1_555 1_555
N9_4 Zn3_4 1_555 1_555
N11_4 Zn1_4 1_555 1_555
N12_4 Zn2_4 1_555 1_555
N14_4 Zn1_4 1_555 1_555
N15_4 Zn3_4 1_555 1_555
N16_4 Zn6 1_555 1_555
N17_4 Zn1_4 1_555 1_555
N18_4 Zn2_4 1_555 1_555
O1_4 Zn2_4 1_555 1_555
O2_4 Zn2_4 1_555 1_555
O5_4 Zn3_4 1_555 1_555
O6_4 Zn3_4 1_555 1_555
O10_4 Zn3_4 1_555 1_555
C5_4 C6_4 1_555 1_555
C7_4 O1_4 1_555 1_555
C7_4 O2_4 1_555 1_555
C15_4 O5_4 1_555 1_555
C15_4 O6_4 1_555 1_555
C27_4 C28_4 1_555 1_555
C29_4 N7_4 1_555 1_555
C30_4 N9_4 1_555 1_555
C33_4 C34_4 1_555 1_555
C35_4 N10_4 1_555 1_555
C36_4 N12_4 1_555 1_555
C42_4 N15_4 1_555 1_555
C47_4 N16_4 1_555 1_555
C48_4 N18_4 1_555 1_555
C51_4 C52_4 1_555 1_555
N2_4 N3_4 1_555 1_555
N4_4 N5_4 1_555 1_555
N5_4 N6_4 1_555 1_555
N7_4 N8_4 1_555 1_555
N8_4 N9_4 1_555 1_555
N10_4 N11_4 1_555 1_555
N11_4 N12_4 1_555 1_555
N13_4 N14_4 1_555 1_555
N14_4 N15_4 1_555 1_555
N16_4 N17_4 1_555 1_555
N17_4 N18_4 1_555 1_555
O10_4 H35_4 1_555 1_555
O10_4 H36_4 1_555 1_555
Zn1_5 N2_5 1_555 1_555
Zn2_5 N4_5 1_555 1_555
Zn3_5 N6_5 1_555 1_555
Zn4_3 N3_5 1_555 1_555
Zn5_3 N1_4 1_555 1_555
C1_4 C2_4 1_555 1_555
C2_4 C3_4 1_555 1_555
C3_4 H1_4 1_555 1_555
C4_5 C3_4 1_555 1_555
C5_5 C4_5 1_555 1_555
H2_5 C5_5 1_555 1_555
C6_5 C1_4 1_555 1_555
H3_5 C6_5 1_555 1_555
C7_5 C4_5 1_555 1_555
C8_4 C1_4 1_555 1_555
C9_5 C10_5 1_555 1_555
C10_5 C11_5 1_555 1_555
C11_5 H4_5 1_555 1_555
C12_5 C11_5 1_555 1_555
C13_5 C12_5 1_555 1_555
H5_5 C13_5 1_555 1_555
C14_5 C9_5 1_555 1_555
H6_5 C14_5 1_555 1_555
C15_5 C9_5 1_555 1_555
C16_5 C12_5 1_555 1_555
C17_4 C18_4 1_555 1_555
C18_4 C19_4 1_555 1_555
C19_4 H7_4 1_555 1_555
C20_4 C19_4 1_555 1_555
H8_4 C20_4 1_555 1_555
C21_4 C20_4 1_555 1_555
H9_4 C21_4 1_555 1_555
C22_4 C17_4 1_555 1_555
H10_4 C22_4 1_555 1_555
C23_5 C24_5 1_555 1_555
C24_5 C25_5 1_555 1_555
C25_5 H11_5 1_555 1_555
C26_5 C25_5 1_555 1_555
H12_5 C26_5 1_555 1_555
C27_5 C26_5 1_555 1_555
H13_5 C27_5 1_555 1_555
C28_5 C23_5 1_555 1_555
H14_5 C28_5 1_555 1_555
C29_5 C30_5 1_555 1_555
C30_5 C31_5 1_555 1_555
C31_5 H15_5 1_555 1_555
C32_5 C31_5 1_555 1_555
H16_5 C32_5 1_555 1_555
C33_5 C32_5 1_555 1_555
H17_5 C33_5 1_555 1_555
C34_5 C29_5 1_555 1_555
H18_5 C34_5 1_555 1_555
C35_5 C36_5 1_555 1_555
C36_5 C37_4 1_555 1_555
C37_4 H19_4 1_555 1_555
C38_4 C37_4 1_555 1_555
H20_4 C38_4 1_555 1_555
C39_4 C38_4 1_555 1_555
H21_4 C39_4 1_555 1_555
C40_4 C35_5 1_555 1_555
H22_4 C40_4 1_555 1_555
C41_4 C42_5 1_555 1_555
C42_5 C43_5 1_555 1_555
C43_5 H23_5 1_555 1_555
C44_4 C43_5 1_555 1_555
H24_4 C44_4 1_555 1_555
C45_4 C44_4 1_555 1_555
H25_4 C45_4 1_555 1_555
C46_4 C41_4 1_555 1_555
H26_4 C46_4 1_555 1_555
C47_5 C48_5 1_555 1_555
C48_5 C49_5 1_555 1_555
C49_5 H27_5 1_555 1_555
C50_5 C49_5 1_555 1_555
H28_5 C50_5 1_555 1_555
C51_5 C50_5 1_555 1_555
H29_5 C51_5 1_555 1_555
C52_5 C47_5 1_555 1_555
H30_5 C52_5 1_555 1_555
N1_4 C17_4 1_555 1_555
N2_5 N1_4 1_555 1_555
N3_5 C18_4 1_555 1_555
N4_5 C23_5 1_555 1_555
N5_5 Zn1_5 1_555 1_555
N6_5 C24_5 1_555 1_555
N7_5 Zn4_3 1_555 1_555
N8_5 Zn1_5 1_555 1_555
N9_5 Zn3_5 1_555 1_555
N10_5 Zn5_3 1_555 1_555
N11_5 Zn1_5 1_555 1_555
N12_5 Zn2_5 1_555 1_555
N13_5 Zn5_3 1_555 1_555
N14_5 Zn1_5 1_555 1_555
N15_5 Zn3_5 1_555 1_555
N16_5 Zn4_3 1_555 1_555
N17_5 Zn1_5 1_555 1_555
N18_5 Zn2_5 1_555 1_555
N19_4 C2_4 1_555 1_555
H31_4 N19_4 1_555 1_555
H32_4 N19_4 1_555 1_555
N20_5 C10_5 1_555 1_555
H33_5 N20_5 1_555 1_555
H34_5 N20_5 1_555 1_555
O1_5 Zn2_5 1_555 1_555
O2_5 Zn2_5 1_555 1_555
O3_2 C8_4 1_555 1_555
O4_2 C8_4 1_555 1_555
O5_5 Zn3_5 1_555 1_555
O6_5 Zn3_5 1_555 1_555
O7_3 C16_5 1_555 1_555
O8_3 C16_5 1_555 1_555
O9_4 Zn5_3 1_555 1_555
O10_5 Zn3_5 1_555 1_555
Zn6_3 O7_3 1_555 1_555
Zn7_2 O3_2 1_555 1_555
O11_3 Zn5_3 1_555 1_555
O12_3 Zn5_3 1_555 1_555
O13_3 Zn4_3 1_555 1_555
O14_3 Zn4_3 1_555 1_555
C5_5 C6_5 1_555 1_555
C7_5 O1_5 1_555 1_555
C7_5 O2_5 1_555 1_555
C13_5 C14_5 1_555 1_555
C15_5 O5_5 1_555 1_555
C15_5 O6_5 1_555 1_555
C21_4 C22_4 1_555 1_555
C27_5 C28_5 1_555 1_555
C29_5 N7_5 1_555 1_555
C30_5 N9_5 1_555 1_555
C33_5 C34_5 1_555 1_555
C35_5 N10_5 1_555 1_555
C36_5 N12_5 1_555 1_555
C39_4 C40_4 1_555 1_555
C41_4 N13_5 1_555 1_555
C42_5 N15_5 1_555 1_555
C45_4 C46_4 1_555 1_555
C47_5 N16_5 1_555 1_555
C48_5 N18_5 1_555 1_555
C51_5 C52_5 1_555 1_555
N2_5 N3_5 1_555 1_555
N4_5 N5_5 1_555 1_555
N5_5 N6_5 1_555 1_555
N7_5 N8_5 1_555 1_555
N8_5 N9_5 1_555 1_555
N10_5 N11_5 1_555 1_555
N11_5 N12_5 1_555 1_555
N13_5 N14_5 1_555 1_555
N14_5 N15_5 1_555 1_555
N16_5 N17_5 1_555 1_555
N17_5 N18_5 1_555 1_555
O4_2 Zn7_2 1_555 1_555
O8_3 Zn6_3 1_555 1_555
O10_5 H35_5 1_555 1_555
O10_5 H36_5 1_555 1_555
O9_4 H37_4 1_555 1_555
O9_4 H38_4 1_555 1_555
Zn1_6 N2_6 1_555 1_555
Zn2_6 N4_6 1_555 1_555
Zn3_6 N6_6 1_555 1_555
Zn4_4 N3_6 1_555 1_555
C5_6 C4_6 1_555 1_555
H2_6 C5_6 1_555 1_555
H3_6 C6_6 1_555 1_555
C7_6 C4_6 1_555 1_555
C23_6 C24_6 1_555 1_555
C24_6 C25_6 1_555 1_555
C25_6 H11_6 1_555 1_555
C26_6 C25_6 1_555 1_555
H12_6 C26_6 1_555 1_555
C27_6 C26_6 1_555 1_555
H13_6 C27_6 1_555 1_555
C28_6 C23_6 1_555 1_555
H14_6 C28_6 1_555 1_555
C29_6 C30_6 1_555 1_555
C30_6 C31_6 1_555 1_555
C31_6 H15_6 1_555 1_555
C32_6 C31_6 1_555 1_555
H16_6 C32_6 1_555 1_555
C33_6 C32_6 1_555 1_555
H17_6 C33_6 1_555 1_555
C34_6 C29_6 1_555 1_555
H18_6 C34_6 1_555 1_555
C35_6 C36_6 1_555 1_555
C42_6 C43_6 1_555 1_555
C43_6 H23_6 1_555 1_555
C47_6 C48_6 1_555 1_555
C48_6 C49_6 1_555 1_555
C49_6 H27_6 1_555 1_555
C50_6 C49_6 1_555 1_555
H28_6 C50_6 1_555 1_555
C51_6 C50_6 1_555 1_555
H29_6 C51_6 1_555 1_555
C52_6 C47_6 1_555 1_555
H30_6 C52_6 1_555 1_555
N4_6 C23_6 1_555 1_555
N5_6 Zn1_6 1_555 1_555
N6_6 C24_6 1_555 1_555
N7_6 Zn4_4 1_555 1_555
N8_6 Zn1_6 1_555 1_555
N9_6 Zn3_6 1_555 1_555
N11_6 Zn1_6 1_555 1_555
N12_6 Zn2_6 1_555 1_555
N14_6 Zn1_6 1_555 1_555
N15_6 Zn3_6 1_555 1_555
N16_6 Zn4_4 1_555 1_555
N17_6 Zn1_6 1_555 1_555
N18_6 Zn2_6 1_555 1_555
O1_6 Zn2_6 1_555 1_555
O2_6 Zn2_6 1_555 1_555
O5_6 Zn3_6 1_555 1_555
O6_6 Zn3_6 1_555 1_555
O10_6 Zn3_6 1_555 1_555
O13_4 Zn4_4 1_555 1_555
O14_4 Zn4_4 1_555 1_555
C5_6 C6_6 1_555 1_555
C7_6 O1_6 1_555 1_555
C7_6 O2_6 1_555 1_555
C15_6 O5_6 1_555 1_555
C15_6 O6_6 1_555 1_555
C27_6 C28_6 1_555 1_555
C29_6 N7_6 1_555 1_555
C30_6 N9_6 1_555 1_555
C33_6 C34_6 1_555 1_555
C35_6 N10_6 1_555 1_555
C36_6 N12_6 1_555 1_555
C42_6 N15_6 1_555 1_555
C47_6 N16_6 1_555 1_555
C48_6 N18_6 1_555 1_555
C51_6 C52_6 1_555 1_555
N2_6 N3_6 1_555 1_555
N4_6 N5_6 1_555 1_555
N5_6 N6_6 1_555 1_555
N7_6 N8_6 1_555 1_555
N8_6 N9_6 1_555 1_555
N10_6 N11_6 1_555 1_555
N11_6 N12_6 1_555 1_555
N13_6 N14_6 1_555 1_555
N14_6 N15_6 1_555 1_555
N16_6 N17_6 1_555 1_555
N17_6 N18_6 1_555 1_555
O10_6 H35_6 1_555 1_555
O10_6 H36_6 1_555 1_555
C1_5 C2_5 1_555 1_555
C2_5 C3_5 1_555 1_555
C3_5 H1_5 1_555 1_555
C8_5 C1_5 1_555 1_555
C37_5 H19_5 1_555 1_555
C38_5 C37_5 1_555 1_555
H20_5 C38_5 1_555 1_555
C39_5 C38_5 1_555 1_555
H21_5 C39_5 1_555 1_555
H22_5 C40_5 1_555 1_555
N19_5 C2_5 1_555 1_555
H31_5 N19_5 1_555 1_555
H32_5 N19_5 1_555 1_555
O3_3 C8_5 1_555 1_555
O4_3 C8_5 1_555 1_555
Zn7_3 O3_3 1_555 1_555
C39_5 C40_5 1_555 1_555
O4_3 Zn7_3 1_555 1_555
C9_6 C10_6 1_555 1_555
C10_6 C11_6 1_555 1_555
C11_6 H4_6 1_555 1_555
C12_6 C11_6 1_555 1_555
C13_6 C12_6 1_555 1_555
H5_6 C13_6 1_555 1_555
C14_6 C9_6 1_555 1_555
C16_6 C12_6 1_555 1_555
N20_6 C10_6 1_555 1_555
H33_6 N20_6 1_555 1_555
H34_6 N20_6 1_555 1_555
O7_4 C16_6 1_555 1_555
O8_4 C16_6 1_555 1_555
Zn6_4 O7_4 1_555 1_555
C13_6 C14_6 1_555 1_555
O8_4 Zn6_4 1_555 1_555
Zn7_2 N1_5 1_555 1_555
C17_5 C18_5 1_555 1_555
C18_5 C19_5 1_555 1_555
C19_5 H7_5 1_555 1_555
C20_5 C19_5 1_555 1_555
H8_5 C20_5 1_555 1_555
C21_5 C20_5 1_555 1_555
H9_5 C21_5 1_555 1_555
C22_5 C17_5 1_555 1_555
H10_5 C22_5 1_555 1_555
H24_5 C44_5 1_555 1_555
C45_5 C44_5 1_555 1_555
H25_5 C45_5 1_555 1_555
C46_5 C41_5 1_555 1_555
H26_5 C46_5 1_555 1_555
N1_5 C17_5 1_555 1_555
O9_5 Zn7_2 1_555 1_555
C21_5 C22_5 1_555 1_555
C45_5 C46_5 1_555 1_555
O9_5 H37_5 1_555 1_555
O9_5 H38_5 1_555 1_555
Zn1_7 N2_7 1_555 1_555
Zn2_7 N4_7 1_555 1_555
Zn3_7 N6_7 1_555 1_555
Zn6_4 N3_7 1_555 1_555
C1_6 C2_6 1_555 1_555
C2_6 C3_6 1_555 1_555
C3_6 H1_6 1_555 1_555
C4_7 C3_6 1_555 1_555
C5_7 C4_7 1_555 1_555
H2_7 C5_7 1_555 1_555
C6_7 C1_6 1_555 1_555
H3_7 C6_7 1_555 1_555
C7_7 C4_7 1_555 1_555
C8_6 C1_6 1_555 1_555
C9_7 C10_7 1_555 1_555
C10_7 C11_7 1_555 1_555
C11_7 H4_7 1_555 1_555
C12_7 C11_7 1_555 1_555
C13_7 C12_7 1_555 1_555
H5_7 C13_7 1_555 1_555
C14_7 C9_7 1_555 1_555
H6_7 C14_7 1_555 1_555
C15_7 C9_7 1_555 1_555
C16_7 C12_7 1_555 1_555
C23_7 C24_7 1_555 1_555
C24_7 C25_7 1_555 1_555
C25_7 H11_7 1_555 1_555
C26_7 C25_7 1_555 1_555
H12_7 C26_7 1_555 1_555
C27_7 C26_7 1_555 1_555
H13_7 C27_7 1_555 1_555
C28_7 C23_7 1_555 1_555
H14_7 C28_7 1_555 1_555
C29_7 C30_7 1_555 1_555
C30_7 C31_7 1_555 1_555
C31_7 H15_7 1_555 1_555
C32_7 C31_7 1_555 1_555
H16_7 C32_7 1_555 1_555
C33_7 C32_7 1_555 1_555
H17_7 C33_7 1_555 1_555
C34_7 C29_7 1_555 1_555
H18_7 C34_7 1_555 1_555
C35_7 C36_7 1_555 1_555
C36_7 C37_6 1_555 1_555
C37_6 H19_6 1_555 1_555
C38_6 C37_6 1_555 1_555
H20_6 C38_6 1_555 1_555
C39_6 C38_6 1_555 1_555
H21_6 C39_6 1_555 1_555
C40_6 C35_7 1_555 1_555
H22_6 C40_6 1_555 1_555
C42_7 C43_7 1_555 1_555
C43_7 H23_7 1_555 1_555
C47_7 C48_7 1_555 1_555
C48_7 C49_7 1_555 1_555
C49_7 H27_7 1_555 1_555
C50_7 C49_7 1_555 1_555
H28_7 C50_7 1_555 1_555
C51_7 C50_7 1_555 1_555
H29_7 C51_7 1_555 1_555
C52_7 C47_7 1_555 1_555
H30_7 C52_7 1_555 1_555
N4_7 C23_7 1_555 1_555
N5_7 Zn1_7 1_555 1_555
N6_7 C24_7 1_555 1_555
N7_7 Zn6_4 1_555 1_555
N8_7 Zn1_7 1_555 1_555
N9_7 Zn3_7 1_555 1_555
N11_7 Zn1_7 1_555 1_555
N12_7 Zn2_7 1_555 1_555
N14_7 Zn1_7 1_555 1_555
N15_7 Zn3_7 1_555 1_555
N16_7 Zn6_4 1_555 1_555
N17_7 Zn1_7 1_555 1_555
N18_7 Zn2_7 1_555 1_555
N19_6 C2_6 1_555 1_555
H31_6 N19_6 1_555 1_555
H32_6 N19_6 1_555 1_555
N20_7 C10_7 1_555 1_555
H33_7 N20_7 1_555 1_555
H34_7 N20_7 1_555 1_555
O1_7 Zn2_7 1_555 1_555
O2_7 Zn2_7 1_555 1_555
O11_3 C8_6 1_555 1_555
O12_3 C8_6 1_555 1_555
O5_7 Zn3_7 1_555 1_555
O6_7 Zn3_7 1_555 1_555
O13_4 C16_7 1_555 1_555
O14_4 C16_7 1_555 1_555
O10_7 Zn3_7 1_555 1_555
C5_7 C6_7 1_555 1_555
C7_7 O1_7 1_555 1_555
C7_7 O2_7 1_555 1_555
C13_7 C14_7 1_555 1_555
C15_7 O5_7 1_555 1_555
C15_7 O6_7 1_555 1_555
C27_7 C28_7 1_555 1_555
C29_7 N7_7 1_555 1_555
C30_7 N9_7 1_555 1_555
C33_7 C34_7 1_555 1_555
C35_7 N10_7 1_555 1_555
C36_7 N12_7 1_555 1_555
C39_6 C40_6 1_555 1_555
C42_7 N15_7 1_555 1_555
C47_7 N16_7 1_555 1_555
C48_7 N18_7 1_555 1_555
C51_7 C52_7 1_555 1_555
N2_7 N3_7 1_555 1_555
N4_7 N5_7 1_555 1_555
N5_7 N6_7 1_555 1_555
N7_7 N8_7 1_555 1_555
N8_7 N9_7 1_555 1_555
N10_7 N11_7 1_555 1_555
N11_7 N12_7 1_555 1_555
N13_7 N14_7 1_555 1_555
N14_7 N15_7 1_555 1_555
N16_7 N17_7 1_555 1_555
N17_7 N18_7 1_555 1_555
O10_7 H35_7 1_555 1_555
O10_7 H36_7 1_555 1_555
Zn1_8 N2_8 1_555 1_555
Zn2_8 N4_8 1_555 1_555
Zn3_8 N6_8 1_555 1_555
Zn6_3 N3_8 1_555 1_555
Zn7_3 N1_6 1_555 1_555
C5_8 C4_8 1_555 1_555
H2_8 C5_8 1_555 1_555
H3_8 C6_8 1_555 1_555
C7_8 C4_8 1_555 1_555
C17_6 C18_6 1_555 1_555
C18_6 C19_6 1_555 1_555
C19_6 H7_6 1_555 1_555
C20_6 C19_6 1_555 1_555
H8_6 C20_6 1_555 1_555
C21_6 C20_6 1_555 1_555
H9_6 C21_6 1_555 1_555
C22_6 C17_6 1_555 1_555
H10_6 C22_6 1_555 1_555
C23_8 C24_8 1_555 1_555
C24_8 C25_8 1_555 1_555
C25_8 H11_8 1_555 1_555
C26_8 C25_8 1_555 1_555
H12_8 C26_8 1_555 1_555
C27_8 C26_8 1_555 1_555
H13_8 C27_8 1_555 1_555
C28_8 C23_8 1_555 1_555
H14_8 C28_8 1_555 1_555
C29_8 C30_8 1_555 1_555
C30_8 C31_8 1_555 1_555
C31_8 H15_8 1_555 1_555
C32_8 C31_8 1_555 1_555
H16_8 C32_8 1_555 1_555
C33_8 C32_8 1_555 1_555
H17_8 C33_8 1_555 1_555
C34_8 C29_8 1_555 1_555
H18_8 C34_8 1_555 1_555
C35_8 C36_8 1_555 1_555
C41_6 C42_8 1_555 1_555
C42_8 C43_8 1_555 1_555
C43_8 H23_8 1_555 1_555
C44_6 C43_8 1_555 1_555
C45_6 C44_6 1_555 1_555
H25_6 C45_6 1_555 1_555
C46_6 C41_6 1_555 1_555
H26_6 C46_6 1_555 1_555
C47_8 C48_8 1_555 1_555
C48_8 C49_8 1_555 1_555
C49_8 H27_8 1_555 1_555
C50_8 C49_8 1_555 1_555
H28_8 C50_8 1_555 1_555
C51_8 C50_8 1_555 1_555
H29_8 C51_8 1_555 1_555
C52_8 C47_8 1_555 1_555
H30_8 C52_8 1_555 1_555
N1_6 C17_6 1_555 1_555
N2_8 N1_6 1_555 1_555
N3_8 C18_6 1_555 1_555
N4_8 C23_8 1_555 1_555
N5_8 Zn1_8 1_555 1_555
N6_8 C24_8 1_555 1_555
N7_8 Zn6_3 1_555 1_555
N8_8 Zn1_8 1_555 1_555
N9_8 Zn3_8 1_555 1_555
N10_8 Zn7_3 1_555 1_555
N11_8 Zn1_8 1_555 1_555
N12_8 Zn2_8 1_555 1_555
N13_8 Zn7_3 1_555 1_555
N14_8 Zn1_8 1_555 1_555
N15_8 Zn3_8 1_555 1_555
N16_8 Zn6_3 1_555 1_555
N17_8 Zn1_8 1_555 1_555
N18_8 Zn2_8 1_555 1_555
O1_8 Zn2_8 1_555 1_555
O2_8 Zn2_8 1_555 1_555
O5_8 Zn3_8 1_555 1_555
O6_8 Zn3_8 1_555 1_555
O9_6 Zn7_3 1_555 1_555
O10_8 Zn3_8 1_555 1_555
C5_8 C6_8 1_555 1_555
C7_8 O1_8 1_555 1_555
C7_8 O2_8 1_555 1_555
C15_8 O5_8 1_555 1_555
C15_8 O6_8 1_555 1_555
C21_6 C22_6 1_555 1_555
C27_8 C28_8 1_555 1_555
C29_8 N7_8 1_555 1_555
C30_8 N9_8 1_555 1_555
C33_8 C34_8 1_555 1_555
C35_8 N10_8 1_555 1_555
C36_8 N12_8 1_555 1_555
C41_6 N13_8 1_555 1_555
C42_8 N15_8 1_555 1_555
C45_6 C46_6 1_555 1_555
C47_8 N16_8 1_555 1_555
C48_8 N18_8 1_555 1_555
C51_8 C52_8 1_555 1_555
N2_8 N3_8 1_555 1_555
N4_8 N5_8 1_555 1_555
N5_8 N6_8 1_555 1_555
N7_8 N8_8 1_555 1_555
N8_8 N9_8 1_555 1_555
N10_8 N11_8 1_555 1_555
N11_8 N12_8 1_555 1_555
N13_8 N14_8 1_555 1_555
N14_8 N15_8 1_555 1_555
N16_8 N17_8 1_555 1_555
N17_8 N18_8 1_555 1_555
O10_8 H35_8 1_555 1_555
O10_8 H36_8 1_555 1_555
O9_6 H37_6 1_555 1_555
O9_6 H38_6 1_555 1_555
C9_8 C10_8 1_555 1_555
C10_8 C11_8 1_555 1_555
C11_8 H4_8 1_555 1_555
C12_8 C11_8 1_555 1_555
C13_8 C12_8 1_555 1_555
H5_8 C13_8 1_555 1_555
C14_8 C9_8 1_555 1_555
C16_8 C12_8 1_555 1_555
N20_8 C10_8 1_555 1_555
H33_8 N20_8 1_555 1_555
H34_8 N20_8 1_555 1_555
O13_3 C16_8 1_555 1_555
O14_3 C16_8 1_555 1_555
C13_8 C14_8 1_555 1_555
C13_9 C12_9 1_555 1_555
H5_9 C13_9 1_555 1_555
H6_9 C14_9 1_555 1_555
C16_9 C12_9 1_555 1_555
C31_9 H15_9 1_555 1_555
C32_9 C31_9 1_555 1_555
H16_9 C32_9 1_555 1_555
C33_9 C32_9 1_555 1_555
H17_9 C33_9 1_555 1_555
H18_9 C34_9 1_555 1_555
O7_5 C16_9 1_555 1_555
O8_5 C16_9 1_555 1_555
Zn6_5 O7_5 1_555 1_555
C13_9 C14_9 1_555 1_555
C33_9 C34_9 1_555 1_555
O8_5 Zn6_5 1_555 1_555
Zn6_5 N3_9 1_555 1_555
C17_7 C18_7 1_555 1_555
C18_7 C19_7 1_555 1_555
C19_7 H7_7 1_555 1_555
C20_7 C19_7 1_555 1_555
H8_7 C20_7 1_555 1_555
C21_7 C20_7 1_555 1_555
H9_7 C21_7 1_555 1_555
C22_7 C17_7 1_555 1_555
H10_7 C22_7 1_555 1_555
C47_9 C48_9 1_555 1_555
C48_9 C49_9 1_555 1_555
C49_9 H27_9 1_555 1_555
C50_9 C49_9 1_555 1_555
H28_9 C50_9 1_555 1_555
C51_9 C50_9 1_555 1_555
H29_9 C51_9 1_555 1_555
C52_9 C47_9 1_555 1_555
H30_9 C52_9 1_555 1_555
N3_9 C18_7 1_555 1_555
N16_9 Zn6_5 1_555 1_555
C21_7 C22_7 1_555 1_555
C47_9 N16_9 1_555 1_555
C48_9 N18_9 1_555 1_555
C51_9 C52_9 1_555 1_555
N16_9 N17_9 1_555 1_555
N17_9 N18_9 1_555 1_555
Zn1_9 N2_9 1_555 1_555
Zn2_9 N4_9 1_555 1_555
Zn3_9 N6_9 1_555 1_555
Zn4_5 N3_10 1_555 1_555
Zn5_4 N1_7 1_555 1_555
C1_7 C2_7 1_555 1_555
C2_7 C3_7 1_555 1_555
C3_7 H1_7 1_555 1_555
C4_9 C3_7 1_555 1_555
C5_9 C4_9 1_555 1_555
H2_9 C5_9 1_555 1_555
C6_9 C1_7 1_555 1_555
H3_9 C6_9 1_555 1_555
C7_9 C4_9 1_555 1_555
C8_7 C1_7 1_555 1_555
C9_9 C10_9 1_555 1_555
C10_9 C11_9 1_555 1_555
C11_9 H4_9 1_555 1_555
C15_9 C9_9 1_555 1_555
C17_8 C18_8 1_555 1_555
C18_8 C19_8 1_555 1_555
C19_8 H7_8 1_555 1_555
C20_8 C19_8 1_555 1_555
H8_8 C20_8 1_555 1_555
C21_8 C20_8 1_555 1_555
H9_8 C21_8 1_555 1_555
C22_8 C17_8 1_555 1_555
H10_8 C22_8 1_555 1_555
C23_9 C24_9 1_555 1_555
C24_9 C25_9 1_555 1_555
C25_9 H11_9 1_555 1_555
C26_9 C25_9 1_555 1_555
H12_9 C26_9 1_555 1_555
C27_9 C26_9 1_555 1_555
H13_9 C27_9 1_555 1_555
C28_9 C23_9 1_555 1_555
H14_9 C28_9 1_555 1_555
C29_9 C30_9 1_555 1_555
C35_9 C36_9 1_555 1_555
C36_9 C37_7 1_555 1_555
C37_7 H19_7 1_555 1_555
C38_7 C37_7 1_555 1_555
H20_7 C38_7 1_555 1_555
C39_7 C38_7 1_555 1_555
H21_7 C39_7 1_555 1_555
C40_7 C35_9 1_555 1_555
H22_7 C40_7 1_555 1_555
C41_7 C42_9 1_555 1_555
C42_9 C43_9 1_555 1_555
C43_9 H23_9 1_555 1_555
C44_7 C43_9 1_555 1_555
H24_7 C44_7 1_555 1_555
C45_7 C44_7 1_555 1_555
H25_7 C45_7 1_555 1_555
C46_7 C41_7 1_555 1_555
H26_7 C46_7 1_555 1_555
C47_10 C48_10 1_555 1_555
C48_10 C49_10 1_555 1_555
C49_10 H27_10 1_555 1_555
C50_10 C49_10 1_555 1_555
H28_10 C50_10 1_555 1_555
C51_10 C50_10 1_555 1_555
H29_10 C51_10 1_555 1_555
C52_10 C47_10 1_555 1_555
H30_10 C52_10 1_555 1_555
N1_7 C17_8 1_555 1_555
N2_9 N1_7 1_555 1_555
N3_10 C18_8 1_555 1_555
N4_9 C23_9 1_555 1_555
N5_9 Zn1_9 1_555 1_555
N6_9 C24_9 1_555 1_555
N7_9 Zn4_5 1_555 1_555
N8_9 Zn1_9 1_555 1_555
N9_9 Zn3_9 1_555 1_555
N10_9 Zn5_4 1_555 1_555
N11_9 Zn1_9 1_555 1_555
N12_9 Zn2_9 1_555 1_555
N13_9 Zn5_4 1_555 1_555
N14_9 Zn1_9 1_555 1_555
N15_9 Zn3_9 1_555 1_555
N16_10 Zn4_5 1_555 1_555
N17_10 Zn1_9 1_555 1_555
N18_10 Zn2_9 1_555 1_555
N19_7 C2_7 1_555 1_555
H31_7 N19_7 1_555 1_555
H32_7 N19_7 1_555 1_555
N20_9 C10_9 1_555 1_555
H33_9 N20_9 1_555 1_555
H34_9 N20_9 1_555 1_555
O1_9 Zn2_9 1_555 1_555
O2_9 Zn2_9 1_555 1_555
O3_4 C8_7 1_555 1_555
O4_4 C8_7 1_555 1_555
O5_9 Zn3_9 1_555 1_555
O6_9 Zn3_9 1_555 1_555
O9_7 Zn5_4 1_555 1_555
O10_9 Zn3_9 1_555 1_555
Zn7_4 O3_4 1_555 1_555
O11_4 Zn5_4 1_555 1_555
O12_4 Zn5_4 1_555 1_555
O13_5 Zn4_5 1_555 1_555
O14_5 Zn4_5 1_555 1_555
C5_9 C6_9 1_555 1_555
C7_9 O1_9 1_555 1_555
C7_9 O2_9 1_555 1_555
C15_9 O5_9 1_555 1_555
C15_9 O6_9 1_555 1_555
C21_8 C22_8 1_555 1_555
C27_9 C28_9 1_555 1_555
C29_9 N7_9 1_555 1_555
C30_9 N9_9 1_555 1_555
C35_9 N10_9 1_555 1_555
C36_9 N12_9 1_555 1_555
C39_7 C40_7 1_555 1_555
C41_7 N13_9 1_555 1_555
C42_9 N15_9 1_555 1_555
C45_7 C46_7 1_555 1_555
C47_10 N16_10 1_555 1_555
C48_10 N18_10 1_555 1_555
C51_10 C52_10 1_555 1_555
N2_9 N3_10 1_555 1_555
N4_9 N5_9 1_555 1_555
N5_9 N6_9 1_555 1_555
N7_9 N8_9 1_555 1_555
N8_9 N9_9 1_555 1_555
N10_9 N11_9 1_555 1_555
N11_9 N12_9 1_555 1_555
N13_9 N14_9 1_555 1_555
N14_9 N15_9 1_555 1_555
N16_10 N17_10 1_555 1_555
N17_10 N18_10 1_555 1_555
O4_4 Zn7_4 1_555 1_555
O10_9 H35_9 1_555 1_555
O10_9 H36_9 1_555 1_555
O9_7 H37_7 1_555 1_555
O9_7 H38_7 1_555 1_555
Zn1_10 N2_10 1_555 1_555
Zn2_10 N4_10 1_555 1_555
Zn3_10 N6_10 1_555 1_555
Zn5_5 N1_8 1_555 1_555
C9_10 C10_10 1_555 1_555
C10_10 C11_10 1_555 1_555
C11_10 H4_10 1_555 1_555
C12_10 C11_10 1_555 1_555
C13_10 C12_10 1_555 1_555
H5_10 C13_10 1_555 1_555
C14_10 C9_10 1_555 1_555
H6_10 C14_10 1_555 1_555
C15_10 C9_10 1_555 1_555
C16_10 C12_10 1_555 1_555
C23_10 C24_10 1_555 1_555
C24_10 C25_10 1_555 1_555
C25_10 H11_10 1_555 1_555
C29_10 C30_10 1_555 1_555
C30_10 C31_10 1_555 1_555
C31_10 H15_10 1_555 1_555
C32_10 C31_10 1_555 1_555
H16_10 C32_10 1_555 1_555
C33_10 C32_10 1_555 1_555
H17_10 C33_10 1_555 1_555
C34_10 C29_10 1_555 1_555
C35_10 C36_10 1_555 1_555
C36_10 C37_8 1_555 1_555
C37_8 H19_8 1_555 1_555
C38_8 C37_8 1_555 1_555
H20_8 C38_8 1_555 1_555
C39_8 C38_8 1_555 1_555
H21_8 C39_8 1_555 1_555
C40_8 C35_10 1_555 1_555
H22_8 C40_8 1_555 1_555
C41_8 C42_10 1_555 1_555
C42_10 C43_10 1_555 1_555
C43_10 H23_10 1_555 1_555
C44_8 C43_10 1_555 1_555
H24_8 C44_8 1_555 1_555
C45_8 C44_8 1_555 1_555
H25_8 C45_8 1_555 1_555
C46_8 C41_8 1_555 1_555
H26_8 C46_8 1_555 1_555
N2_10 N1_8 1_555 1_555
N4_10 C23_10 1_555 1_555
N5_10 Zn1_10 1_555 1_555
N6_10 C24_10 1_555 1_555
N8_10 Zn1_10 1_555 1_555
N9_10 Zn3_10 1_555 1_555
N10_10 Zn5_5 1_555 1_555
N11_10 Zn1_10 1_555 1_555
N12_10 Zn2_10 1_555 1_555
N13_10 Zn5_5 1_555 1_555
N14_10 Zn1_10 1_555 1_555
N15_10 Zn3_10 1_555 1_555
N20_10 C10_10 1_555 1_555
H33_10 N20_10 1_555 1_555
H34_10 N20_10 1_555 1_555
O1_10 Zn2_10 1_555 1_555
O2_10 Zn2_10 1_555 1_555
O5_10 Zn3_10 1_555 1_555
O6_10 Zn3_10 1_555 1_555
O7_6 C16_10 1_555 1_555
O8_6 C16_10 1_555 1_555
O9_8 Zn5_5 1_555 1_555
O10_10 Zn3_10 1_555 1_555
Zn6_6 O7_6 1_555 1_555
O11_5 Zn5_5 1_555 1_555
O12_5 Zn5_5 1_555 1_555
C7_10 O1_10 1_555 1_555
C7_10 O2_10 1_555 1_555
C13_10 C14_10 1_555 1_555
C15_10 O5_10 1_555 1_555
C15_10 O6_10 1_555 1_555
C29_10 N7_10 1_555 1_555
C30_10 N9_10 1_555 1_555
C33_10 C34_10 1_555 1_555
C35_10 N10_10 1_555 1_555
C36_10 N12_10 1_555 1_555
C39_8 C40_8 1_555 1_555
C41_8 N13_10 1_555 1_555
C42_10 N15_10 1_555 1_555
C45_8 C46_8 1_555 1_555
N4_10 N5_10 1_555 1_555
N5_10 N6_10 1_555 1_555
N7_10 N8_10 1_555 1_555
N8_10 N9_10 1_555 1_555
N10_10 N11_10 1_555 1_555
N11_10 N12_10 1_555 1_555
N13_10 N14_10 1_555 1_555
N14_10 N15_10 1_555 1_555
O8_6 Zn6_6 1_555 1_555
O10_10 H35_10 1_555 1_555
O10_10 H36_10 1_555 1_555
O9_8 H37_8 1_555 1_555
O9_8 H38_8 1_555 1_555
Zn4_6 N3_11 1_555 1_555
C17_9 C18_9 1_555 1_555
C18_9 C19_9 1_555 1_555
C19_9 H7_9 1_555 1_555
C20_9 C19_9 1_555 1_555
H8_9 C20_9 1_555 1_555
C21_9 C20_9 1_555 1_555
H9_9 C21_9 1_555 1_555
C22_9 C17_9 1_555 1_555
H10_9 C22_9 1_555 1_555
C47_11 C48_11 1_555 1_555
C48_11 C49_11 1_555 1_555
C49_11 H27_11 1_555 1_555
C50_11 C49_11 1_555 1_555
C51_11 C50_11 1_555 1_555
H29_11 C51_11 1_555 1_555
C52_11 C47_11 1_555 1_555
H30_11 C52_11 1_555 1_555
N3_11 C18_9 1_555 1_555
N16_11 Zn4_6 1_555 1_555
O13_6 Zn4_6 1_555 1_555
O14_6 Zn4_6 1_555 1_555
C21_9 C22_9 1_555 1_555
C47_11 N16_11 1_555 1_555
C48_11 N18_11 1_555 1_555
C51_11 C52_11 1_555 1_555
N16_11 N17_11 1_555 1_555
N17_11 N18_11 1_555 1_555
C1_8 C2_8 1_555 1_555
C2_8 C3_8 1_555 1_555
C3_8 H1_8 1_555 1_555
C4_10 C3_8 1_555 1_555
C5_10 C4_10 1_555 1_555
H2_10 C5_10 1_555 1_555
C6_10 C1_8 1_555 1_555
H3_10 C6_10 1_555 1_555
C8_8 C1_8 1_555 1_555
H12_10 C26_10 1_555 1_555
C27_10 C26_10 1_555 1_555
H13_10 C27_10 1_555 1_555
H14_10 C28_10 1_555 1_555
N19_8 C2_8 1_555 1_555
H31_8 N19_8 1_555 1_555
H32_8 N19_8 1_555 1_555
O3_5 C8_8 1_555 1_555
O4_5 C8_8 1_555 1_555
Zn7_5 O3_5 1_555 1_555
C5_10 C6_10 1_555 1_555
C27_10 C28_10 1_555 1_555
O4_5 Zn7_5 1_555 1_555
Zn1_11 N2_11 1_555 1_555
Zn2_11 N4_11 1_555 1_555
Zn3_11 N6_11 1_555 1_555
Zn7_5 N1_9 1_555 1_555
C1_9 C2_9 1_555 1_555
C2_9 C3_9 1_555 1_555
C3_9 H1_9 1_555 1_555
C4_11 C3_9 1_555 1_555
C5_11 C4_11 1_555 1_555
H2_11 C5_11 1_555 1_555
C6_11 C1_9 1_555 1_555
H3_11 C6_11 1_555 1_555
C7_11 C4_11 1_555 1_555
C8_9 C1_9 1_555 1_555
C9_11 C10_11 1_555 1_555
C10_11 C11_11 1_555 1_555
C11_11 H4_11 1_555 1_555
C15_11 C9_11 1_555 1_555
C23_11 C24_11 1_555 1_555
C24_11 C25_11 1_555 1_555
C25_11 H11_11 1_555 1_555
C26_11 C25_11 1_555 1_555
H12_11 C26_11 1_555 1_555
C27_11 C26_11 1_555 1_555
H13_11 C27_11 1_555 1_555
C28_11 C23_11 1_555 1_555
H14_11 C28_11 1_555 1_555
C29_11 C30_11 1_555 1_555
C35_11 C36_11 1_555 1_555
C36_11 C37_9 1_555 1_555
C37_9 H19_9 1_555 1_555
C38_9 C37_9 1_555 1_555
H20_9 C38_9 1_555 1_555
C39_9 C38_9 1_555 1_555
H21_9 C39_9 1_555 1_555
C40_9 C35_11 1_555 1_555
H22_9 C40_9 1_555 1_555
C41_9 C42_11 1_555 1_555
C42_11 C43_11 1_555 1_555
C43_11 H23_11 1_555 1_555
C44_9 C43_11 1_555 1_555
H24_9 C44_9 1_555 1_555
C45_9 C44_9 1_555 1_555
H25_9 C45_9 1_555 1_555
C46_9 C41_9 1_555 1_555
H26_9 C46_9 1_555 1_555
N2_11 N1_9 1_555 1_555
N4_11 C23_11 1_555 1_555
N5_11 Zn1_11 1_555 1_555
N6_11 C24_11 1_555 1_555
N8_11 Zn1_11 1_555 1_555
N9_11 Zn3_11 1_555 1_555
N10_11 Zn7_5 1_555 1_555
N11_11 Zn1_11 1_555 1_555
N12_11 Zn2_11 1_555 1_555
N13_11 Zn7_5 1_555 1_555
N14_11 Zn1_11 1_555 1_555
N15_11 Zn3_11 1_555 1_555
N19_9 C2_9 1_555 1_555
H31_9 N19_9 1_555 1_555
H32_9 N19_9 1_555 1_555
N20_11 C10_11 1_555 1_555
H33_11 N20_11 1_555 1_555
H34_11 N20_11 1_555 1_555
O1_11 Zn2_11 1_555 1_555
O2_11 Zn2_11 1_555 1_555
O11_5 C8_9 1_555 1_555
O12_5 C8_9 1_555 1_555
O5_11 Zn3_11 1_555 1_555
O6_11 Zn3_11 1_555 1_555
O9_9 Zn7_5 1_555 1_555
O10_11 Zn3_11 1_555 1_555
C5_11 C6_11 1_555 1_555
C7_11 O1_11 1_555 1_555
C7_11 O2_11 1_555 1_555
C15_11 O5_11 1_555 1_555
C15_11 O6_11 1_555 1_555
C27_11 C28_11 1_555 1_555
C29_11 N7_11 1_555 1_555
C30_11 N9_11 1_555 1_555
C35_11 N10_11 1_555 1_555
C36_11 N12_11 1_555 1_555
C39_9 C40_9 1_555 1_555
C41_9 N13_11 1_555 1_555
C42_11 N15_11 1_555 1_555
C45_9 C46_9 1_555 1_555
N4_11 N5_11 1_555 1_555
N5_11 N6_11 1_555 1_555
N7_11 N8_11 1_555 1_555
N8_11 N9_11 1_555 1_555
N10_11 N11_11 1_555 1_555
N11_11 N12_11 1_555 1_555
N13_11 N14_11 1_555 1_555
N14_11 N15_11 1_555 1_555
O10_11 H35_11 1_555 1_555
O10_11 H36_11 1_555 1_555
O9_9 H37_9 1_555 1_555
O9_9 H38_9 1_555 1_555
C13_11 C12_11 1_555 1_555
H5_11 C13_11 1_555 1_555
H6_11 C14_11 1_555 1_555
C16_11 C12_11 1_555 1_555
C31_11 H15_11 1_555 1_555
C32_11 C31_11 1_555 1_555
H16_11 C32_11 1_555 1_555
C33_11 C32_11 1_555 1_555
H17_11 C33_11 1_555 1_555
O13_5 C16_11 1_555 1_555
O14_5 C16_11 1_555 1_555
C13_11 C14_11 1_555 1_555
C33_11 C34_11 1_555 1_555
Zn1_12 N2_12 1_555 1_555
Zn2_12 N4_12 1_555 1_555
Zn3_12 N6_12 1_555 1_555
Zn6_6 N3_12 1_555 1_555
Zn7_4 N1_10 1_555 1_555
C9_12 C10_12 1_555 1_555
C10_12 C11_12 1_555 1_555
C11_12 H4_12 1_555 1_555
C12_12 C11_12 1_555 1_555
C13_12 C12_12 1_555 1_555
H5_12 C13_12 1_555 1_555
C14_12 C9_12 1_555 1_555
H6_12 C14_12 1_555 1_555
C15_12 C9_12 1_555 1_555
C16_12 C12_12 1_555 1_555
C17_10 C18_10 1_555 1_555
C18_10 C19_10 1_555 1_555
C19_10 H7_10 1_555 1_555
C20_10 C19_10 1_555 1_555
H8_10 C20_10 1_555 1_555
C21_10 C20_10 1_555 1_555
H9_10 C21_10 1_555 1_555
C22_10 C17_10 1_555 1_555
H10_10 C22_10 1_555 1_555
C23_12 C24_12 1_555 1_555
C24_12 C25_12 1_555 1_555
C25_12 H11_12 1_555 1_555
C29_12 C30_12 1_555 1_555
C30_12 C31_12 1_555 1_555
C31_12 H15_12 1_555 1_555
C32_12 C31_12 1_555 1_555
H16_12 C32_12 1_555 1_555
C33_12 C32_12 1_555 1_555
H17_12 C33_12 1_555 1_555
C34_12 C29_12 1_555 1_555
H18_11 C34_12 1_555 1_555
C35_12 C36_12 1_555 1_555
C36_12 C37_10 1_555 1_555
C37_10 H19_10 1_555 1_555
C38_10 C37_10 1_555 1_555
H20_10 C38_10 1_555 1_555
C39_10 C38_10 1_555 1_555
H21_10 C39_10 1_555 1_555
C40_10 C35_12 1_555 1_555
H22_10 C40_10 1_555 1_555
C41_10 C42_12 1_555 1_555
C42_12 C43_12 1_555 1_555
C43_12 H23_12 1_555 1_555
C44_10 C43_12 1_555 1_555
H24_10 C44_10 1_555 1_555
C45_10 C44_10 1_555 1_555
H25_10 C45_10 1_555 1_555
C46_10 C41_10 1_555 1_555
H26_10 C46_10 1_555 1_555
C47_12 C48_12 1_555 1_555
C48_12 C49_12 1_555 1_555
C49_12 H27_12 1_555 1_555
C50_12 C49_12 1_555 1_555
C51_12 C50_12 1_555 1_555
H29_12 C51_12 1_555 1_555
C52_12 C47_12 1_555 1_555
H30_12 C52_12 1_555 1_555
N1_10 C17_10 1_555 1_555
N2_12 N1_10 1_555 1_555
N3_12 C18_10 1_555 1_555
N4_12 C23_12 1_555 1_555
N5_12 Zn1_12 1_555 1_555
N6_12 C24_12 1_555 1_555
N7_12 Zn6_6 1_555 1_555
N8_12 Zn1_12 1_555 1_555
N9_12 Zn3_12 1_555 1_555
N10_12 Zn7_4 1_555 1_555
N11_12 Zn1_12 1_555 1_555
N12_12 Zn2_12 1_555 1_555
N13_12 Zn7_4 1_555 1_555
N14_12 Zn1_12 1_555 1_555
N15_12 Zn3_12 1_555 1_555
N16_12 Zn6_6 1_555 1_555
N17_12 Zn1_12 1_555 1_555
N18_12 Zn2_12 1_555 1_555
N20_12 C10_12 1_555 1_555
H33_12 N20_12 1_555 1_555
H34_12 N20_12 1_555 1_555
O1_12 Zn2_12 1_555 1_555
O2_12 Zn2_12 1_555 1_555
O5_12 Zn3_12 1_555 1_555
O6_12 Zn3_12 1_555 1_555
O13_6 C16_12 1_555 1_555
O14_6 C16_12 1_555 1_555
O9_10 Zn7_4 1_555 1_555
O10_12 Zn3_12 1_555 1_555
C7_12 O1_12 1_555 1_555
C7_12 O2_12 1_555 1_555
C13_12 C14_12 1_555 1_555
C15_12 O5_12 1_555 1_555
C15_12 O6_12 1_555 1_555
C21_10 C22_10 1_555 1_555
C29_12 N7_12 1_555 1_555
C30_12 N9_12 1_555 1_555
C33_12 C34_12 1_555 1_555
C35_12 N10_12 1_555 1_555
C36_12 N12_12 1_555 1_555
C39_10 C40_10 1_555 1_555
C41_10 N13_12 1_555 1_555
C42_12 N15_12 1_555 1_555
C45_10 C46_10 1_555 1_555
C47_12 N16_12 1_555 1_555
C48_12 N18_12 1_555 1_555
C51_12 C52_12 1_555 1_555
N2_12 N3_12 1_555 1_555
N4_12 N5_12 1_555 1_555
N5_12 N6_12 1_555 1_555
N7_12 N8_12 1_555 1_555
N8_12 N9_12 1_555 1_555
N10_12 N11_12 1_555 1_555
N11_12 N12_12 1_555 1_555
N13_12 N14_12 1_555 1_555
N14_12 N15_12 1_555 1_555
N16_12 N17_12 1_555 1_555
N17_12 N18_12 1_555 1_555
O10_12 H35_12 1_555 1_555
O10_12 H36_12 1_555 1_555
O9_10 H37_10 1_555 1_555
O9_10 H38_10 1_555 1_555
C1_10 C2_10 1_555 1_555
C2_10 C3_10 1_555 1_555
C3_10 H1_10 1_555 1_555
C4_12 C3_10 1_555 1_555
C5_12 C4_12 1_555 1_555
H2_12 C5_12 1_555 1_555
C6_12 C1_10 1_555 1_555
H3_12 C6_12 1_555 1_555
C8_10 C1_10 1_555 1_555
H12_12 C26_12 1_555 1_555
C27_12 C26_12 1_555 1_555
H13_12 C27_12 1_555 1_555
H14_12 C28_12 1_555 1_555
N19_10 C2_10 1_555 1_555
H31_10 N19_10 1_555 1_555
H32_10 N19_10 1_555 1_555
O11_4 C8_10 1_555 1_555
O12_4 C8_10 1_555 1_555
C5_12 C6_12 1_555 1_555
C27_12 C28_12 1_555 1_555
Zn4_7 N3_13 1_555 1_555
C17_11 C18_11 1_555 1_555
C18_11 C19_11 1_555 1_555
C19_11 H7_11 1_555 1_555
C20_11 C19_11 1_555 1_555
H8_11 C20_11 1_555 1_555
C21_11 C20_11 1_555 1_555
H9_11 C21_11 1_555 1_555
C22_11 C17_11 1_555 1_555
H10_11 C22_11 1_555 1_555
C47_13 C48_13 1_555 1_555
C48_13 C49_13 1_555 1_555
C49_13 H27_13 1_555 1_555
C50_13 C49_13 1_555 1_555
H28_12 C50_13 1_555 1_555
C51_13 C50_13 1_555 1_555
H29_13 C51_13 1_555 1_555
C52_13 C47_13 1_555 1_555
H30_13 C52_13 1_555 1_555
N3_13 C18_11 1_555 1_555
N16_13 Zn4_7 1_555 1_555
O13_7 Zn4_7 1_555 1_555
O14_7 Zn4_7 1_555 1_555
C21_11 C22_11 1_555 1_555
C47_13 N16_13 1_555 1_555
C48_13 N18_13 1_555 1_555
C51_13 C52_13 1_555 1_555
N16_13 N17_13 1_555 1_555
N17_13 N18_13 1_555 1_555
C13_13 C12_13 1_555 1_555
H5_13 C13_13 1_555 1_555
H6_13 C14_13 1_555 1_555
C16_13 C12_13 1_555 1_555
C31_13 H15_13 1_555 1_555
C32_13 C31_13 1_555 1_555
H16_13 C32_13 1_555 1_555
C33_13 C32_13 1_555 1_555
H17_13 C33_13 1_555 1_555
H18_13 C34_13 1_555 1_555
O13_7 C16_13 1_555 1_555
O14_7 C16_13 1_555 1_555
C13_13 C14_13 1_555 1_555
C33_13 C34_13 1_555 1_555
C13_14 C12_14 1_555 1_555
H5_14 C13_14 1_555 1_555
H6_14 C14_14 1_555 1_555
C16_14 C12_14 1_555 1_555
C31_14 H15_14 1_555 1_555
C32_14 C31_14 1_555 1_555
H16_14 C32_14 1_555 1_555
C33_14 C32_14 1_555 1_555
H17_14 C33_14 1_555 1_555
O7_7 C16_14 1_555 1_555
O8_7 C16_14 1_555 1_555
Zn6_7 O7_7 1_555 1_555
C13_14 C14_14 1_555 1_555
C33_14 C34_14 1_555 1_555
O8_7 Zn6_7 1_555 1_555
Zn1_13 N2_13 1_555 1_555
Zn2_13 N4_13 1_555 1_555
Zn3_13 N6_13 1_555 1_555
Zn5_6 N1_11 1_555 1_555
C1_11 C2_11 1_555 1_555
C2_11 C3_11 1_555 1_555
C3_11 H1_11 1_555 1_555
C4_13 C3_11 1_555 1_555
C5_13 C4_13 1_555 1_555
H2_13 C5_13 1_555 1_555
C6_13 C1_11 1_555 1_555
H3_13 C6_13 1_555 1_555
C7_13 C4_13 1_555 1_555
C8_11 C1_11 1_555 1_555
C9_13 C10_13 1_555 1_555
C10_13 C11_13 1_555 1_555
C11_13 H4_13 1_555 1_555
C15_13 C9_13 1_555 1_555
C23_13 C24_13 1_555 1_555
C24_13 C25_13 1_555 1_555
C25_13 H11_13 1_555 1_555
C26_13 C25_13 1_555 1_555
H12_13 C26_13 1_555 1_555
C27_13 C26_13 1_555 1_555
H13_13 C27_13 1_555 1_555
C28_13 C23_13 1_555 1_555
H14_13 C28_13 1_555 1_555
C29_13 C30_13 1_555 1_555
C35_13 C36_13 1_555 1_555
C36_13 C37_11 1_555 1_555
C37_11 H19_11 1_555 1_555
C38_11 C37_11 1_555 1_555
H20_11 C38_11 1_555 1_555
C39_11 C38_11 1_555 1_555
H21_11 C39_11 1_555 1_555
C40_11 C35_13 1_555 1_555
H22_11 C40_11 1_555 1_555
C41_11 C42_13 1_555 1_555
C42_13 C43_13 1_555 1_555
C43_13 H23_13 1_555 1_555
C44_11 C43_13 1_555 1_555
H24_11 C44_11 1_555 1_555
C45_11 C44_11 1_555 1_555
H25_11 C45_11 1_555 1_555
C46_11 C41_11 1_555 1_555
H26_11 C46_11 1_555 1_555
N2_13 N1_11 1_555 1_555
N4_13 C23_13 1_555 1_555
N5_13 Zn1_13 1_555 1_555
N6_13 C24_13 1_555 1_555
N8_13 Zn1_13 1_555 1_555
N9_13 Zn3_13 1_555 1_555
N10_13 Zn5_6 1_555 1_555
N11_13 Zn1_13 1_555 1_555
N12_13 Zn2_13 1_555 1_555
N13_13 Zn5_6 1_555 1_555
N14_13 Zn1_13 1_555 1_555
N15_13 Zn3_13 1_555 1_555
N19_11 C2_11 1_555 1_555
H31_11 N19_11 1_555 1_555
H32_11 N19_11 1_555 1_555
N20_13 C10_13 1_555 1_555
H33_13 N20_13 1_555 1_555
H34_13 N20_13 1_555 1_555
O1_13 Zn2_13 1_555 1_555
O2_13 Zn2_13 1_555 1_555
O3_6 C8_11 1_555 1_555
O4_6 C8_11 1_555 1_555
O5_13 Zn3_13 1_555 1_555
O6_13 Zn3_13 1_555 1_555
O9_11 Zn5_6 1_555 1_555
O10_13 Zn3_13 1_555 1_555
Zn7_6 O3_6 1_555 1_555
O11_6 Zn5_6 1_555 1_555
O12_6 Zn5_6 1_555 1_555
C5_13 C6_13 1_555 1_555
C7_13 O1_13 1_555 1_555
C7_13 O2_13 1_555 1_555
C15_13 O5_13 1_555 1_555
C15_13 O6_13 1_555 1_555
C27_13 C28_13 1_555 1_555
C29_13 N7_13 1_555 1_555
C30_13 N9_13 1_555 1_555
C35_13 N10_13 1_555 1_555
C36_13 N12_13 1_555 1_555
C39_11 C40_11 1_555 1_555
C41_11 N13_13 1_555 1_555
C42_13 N15_13 1_555 1_555
C45_11 C46_11 1_555 1_555
N4_13 N5_13 1_555 1_555
N5_13 N6_13 1_555 1_555
N7_13 N8_13 1_555 1_555
N8_13 N9_13 1_555 1_555
N10_13 N11_13 1_555 1_555
N11_13 N12_13 1_555 1_555
N13_13 N14_13 1_555 1_555
N14_13 N15_13 1_555 1_555
O4_6 Zn7_6 1_555 1_555
O10_13 H35_13 1_555 1_555
O10_13 H36_13 1_555 1_555
O9_11 H37_11 1_555 1_555
O9_11 H38_11 1_555 1_555
C1_12 C2_12 1_555 1_555
C2_12 C3_12 1_555 1_555
C3_12 H1_12 1_555 1_555
C4_14 C3_12 1_555 1_555
C5_14 C4_14 1_555 1_555
H2_14 C5_14 1_555 1_555
C6_14 C1_12 1_555 1_555
H3_14 C6_14 1_555 1_555
C8_12 C1_12 1_555 1_555
H12_14 C26_14 1_555 1_555
C27_14 C26_14 1_555 1_555
H13_14 C27_14 1_555 1_555
H14_14 C28_14 1_555 1_555
N19_12 C2_12 1_555 1_555
H31_12 N19_12 1_555 1_555
H32_12 N19_12 1_555 1_555
O3_7 C8_12 1_555 1_555
O4_7 C8_12 1_555 1_555
Zn7_7 O3_7 1_555 1_555
C5_14 C6_14 1_555 1_555
C27_14 C28_14 1_555 1_555
O4_7 Zn7_7 1_555 1_555
Zn1_14 N2_14 1_555 1_555
Zn2_14 N4_14 1_555 1_555
Zn3_14 N6_14 1_555 1_555
Zn4_8 N3_14 1_555 1_555
Zn5_7 N1_12 1_555 1_555
C9_14 C10_14 1_555 1_555
C10_14 C11_14 1_555 1_555
C11_14 H4_14 1_555 1_555
C12_15 C11_14 1_555 1_555
C13_15 C12_15 1_555 1_555
H5_15 C13_15 1_555 1_555
C14_15 C9_14 1_555 1_555
H6_15 C14_15 1_555 1_555
C15_14 C9_14 1_555 1_555
C16_15 C12_15 1_555 1_555
C17_12 C18_12 1_555 1_555
C18_12 C19_12 1_555 1_555
C19_12 H7_12 1_555 1_555
C20_12 C19_12 1_555 1_555
H8_12 C20_12 1_555 1_555
C21_12 C20_12 1_555 1_555
H9_12 C21_12 1_555 1_555
C22_12 C17_12 1_555 1_555
H10_12 C22_12 1_555 1_555
C23_14 C24_14 1_555 1_555
C24_14 C25_14 1_555 1_555
C25_14 H11_14 1_555 1_555
C29_14 C30_14 1_555 1_555
C30_14 C31_15 1_555 1_555
C31_15 H15_15 1_555 1_555
C32_15 C31_15 1_555 1_555
H16_15 C32_15 1_555 1_555
C33_15 C32_15 1_555 1_555
H17_15 C33_15 1_555 1_555
C34_15 C29_14 1_555 1_555
H18_14 C34_15 1_555 1_555
C35_14 C36_14 1_555 1_555
C36_14 C37_12 1_555 1_555
C37_12 H19_12 1_555 1_555
C38_12 C37_12 1_555 1_555
H20_12 C38_12 1_555 1_555
C39_12 C38_12 1_555 1_555
H21_12 C39_12 1_555 1_555
C40_12 C35_14 1_555 1_555
H22_12 C40_12 1_555 1_555
C41_12 C42_14 1_555 1_555
C42_14 C43_14 1_555 1_555
C43_14 H23_14 1_555 1_555
C44_12 C43_14 1_555 1_555
H24_12 C44_12 1_555 1_555
C45_12 C44_12 1_555 1_555
H25_12 C45_12 1_555 1_555
C46_12 C41_12 1_555 1_555
H26_12 C46_12 1_555 1_555
C47_14 C48_14 1_555 1_555
C48_14 C49_14 1_555 1_555
C49_14 H27_14 1_555 1_555
C50_14 C49_14 1_555 1_555
C51_14 C50_14 1_555 1_555
H29_14 C51_14 1_555 1_555
C52_14 C47_14 1_555 1_555
H30_14 C52_14 1_555 1_555
N1_12 C17_12 1_555 1_555
N2_14 N1_12 1_555 1_555
N3_14 C18_12 1_555 1_555
N4_14 C23_14 1_555 1_555
N5_14 Zn1_14 1_555 1_555
N6_14 C24_14 1_555 1_555
N7_14 Zn4_8 1_555 1_555
N8_14 Zn1_14 1_555 1_555
N9_14 Zn3_14 1_555 1_555
N10_14 Zn5_7 1_555 1_555
N11_14 Zn1_14 1_555 1_555
N12_14 Zn2_14 1_555 1_555
N13_14 Zn5_7 1_555 1_555
N14_14 Zn1_14 1_555 1_555
N15_14 Zn3_14 1_555 1_555
N16_14 Zn4_8 1_555 1_555
N17_14 Zn1_14 1_555 1_555
N18_14 Zn2_14 1_555 1_555
N20_14 C10_14 1_555 1_555
H33_14 N20_14 1_555 1_555
H34_14 N20_14 1_555 1_555
O1_14 Zn2_14 1_555 1_555
O2_14 Zn2_14 1_555 1_555
O5_14 Zn3_14 1_555 1_555
O6_14 Zn3_14 1_555 1_555
O7_8 C16_15 1_555 1_555
O8_8 C16_15 1_555 1_555
O9_12 Zn5_7 1_555 1_555
O10_14 Zn3_14 1_555 1_555
Zn6_8 O7_8 1_555 1_555
O11_7 Zn5_7 1_555 1_555
O12_7 Zn5_7 1_555 1_555
O13_8 Zn4_8 1_555 1_555
O14_8 Zn4_8 1_555 1_555
C7_14 O1_14 1_555 1_555
C7_14 O2_14 1_555 1_555
C13_15 C14_15 1_555 1_555
C15_14 O5_14 1_555 1_555
C15_14 O6_14 1_555 1_555
C21_12 C22_12 1_555 1_555
C29_14 N7_14 1_555 1_555
C30_14 N9_14 1_555 1_555
C33_15 C34_15 1_555 1_555
C35_14 N10_14 1_555 1_555
C36_14 N12_14 1_555 1_555
C39_12 C40_12 1_555 1_555
C41_12 N13_14 1_555 1_555
C42_14 N15_14 1_555 1_555
C45_12 C46_12 1_555 1_555
C47_14 N16_14 1_555 1_555
C48_14 N18_14 1_555 1_555
C51_14 C52_14 1_555 1_555
N2_14 N3_14 1_555 1_555
N4_14 N5_14 1_555 1_555
N5_14 N6_14 1_555 1_555
N7_14 N8_14 1_555 1_555
N8_14 N9_14 1_555 1_555
N10_14 N11_14 1_555 1_555
N11_14 N12_14 1_555 1_555
N13_14 N14_14 1_555 1_555
N14_14 N15_14 1_555 1_555
N16_14 N17_14 1_555 1_555
N17_14 N18_14 1_555 1_555
O8_8 Zn6_8 1_555 1_555
O10_14 H35_14 1_555 1_555
O10_14 H36_14 1_555 1_555
O9_12 H37_12 1_555 1_555
O9_12 H38_12 1_555 1_555
Zn1_15 N2_15 1_555 1_555
Zn2_15 N4_15 1_555 1_555
Zn3_15 N6_15 1_555 1_555
Zn6_7 N3_15 1_555 1_555
Zn7_7 N1_13 1_555 1_555
C1_13 C2_13 1_555 1_555
C2_13 C3_13 1_555 1_555
C3_13 H1_13 1_555 1_555
C4_15 C3_13 1_555 1_555
C5_15 C4_15 1_555 1_555
H2_15 C5_15 1_555 1_555
C6_15 C1_13 1_555 1_555
H3_15 C6_15 1_555 1_555
C7_15 C4_15 1_555 1_555
C8_13 C1_13 1_555 1_555
C9_15 C10_15 1_555 1_555
C10_15 C11_15 1_555 1_555
C11_15 H4_15 1_555 1_555
C15_15 C9_15 1_555 1_555
C17_13 C18_13 1_555 1_555
C18_13 C19_13 1_555 1_555
C19_13 H7_13 1_555 1_555
C20_13 C19_13 1_555 1_555
H8_13 C20_13 1_555 1_555
C21_13 C20_13 1_555 1_555
H9_13 C21_13 1_555 1_555
C22_13 C17_13 1_555 1_555
H10_13 C22_13 1_555 1_555
C23_15 C24_15 1_555 1_555
C24_15 C25_15 1_555 1_555
C25_15 H11_15 1_555 1_555
C26_15 C25_15 1_555 1_555
H12_15 C26_15 1_555 1_555
C27_15 C26_15 1_555 1_555
H13_15 C27_15 1_555 1_555
C28_15 C23_15 1_555 1_555
H14_15 C28_15 1_555 1_555
C29_15 C30_15 1_555 1_555
C35_15 C36_15 1_555 1_555
C36_15 C37_13 1_555 1_555
C37_13 H19_13 1_555 1_555
C38_13 C37_13 1_555 1_555
H20_13 C38_13 1_555 1_555
C39_13 C38_13 1_555 1_555
H21_13 C39_13 1_555 1_555
C40_13 C35_15 1_555 1_555
H22_13 C40_13 1_555 1_555
C41_13 C42_15 1_555 1_555
C42_15 C43_15 1_555 1_555
C43_15 H23_15 1_555 1_555
C44_13 C43_15 1_555 1_555
H24_13 C44_13 1_555 1_555
C45_13 C44_13 1_555 1_555
H25_13 C45_13 1_555 1_555
C46_13 C41_13 1_555 1_555
H26_13 C46_13 1_555 1_555
C47_15 C48_15 1_555 1_555
C48_15 C49_15 1_555 1_555
C49_15 H27_15 1_555 1_555
C50_15 C49_15 1_555 1_555
H28_14 C50_15 1_555 1_555
C51_15 C50_15 1_555 1_555
H29_15 C51_15 1_555 1_555
C52_15 C47_15 1_555 1_555
H30_15 C52_15 1_555 1_555
N1_13 C17_13 1_555 1_555
N2_15 N1_13 1_555 1_555
N3_15 C18_13 1_555 1_555
N4_15 C23_15 1_555 1_555
N5_15 Zn1_15 1_555 1_555
N6_15 C24_15 1_555 1_555
N7_15 Zn6_7 1_555 1_555
N8_15 Zn1_15 1_555 1_555
N9_15 Zn3_15 1_555 1_555
N10_15 Zn7_7 1_555 1_555
N11_15 Zn1_15 1_555 1_555
N12_15 Zn2_15 1_555 1_555
N13_15 Zn7_7 1_555 1_555
N14_15 Zn1_15 1_555 1_555
N15_15 Zn3_15 1_555 1_555
N16_15 Zn6_7 1_555 1_555
N17_15 Zn1_15 1_555 1_555
N18_15 Zn2_15 1_555 1_555
N19_13 C2_13 1_555 1_555
H31_13 N19_13 1_555 1_555
H32_13 N19_13 1_555 1_555
N20_15 C10_15 1_555 1_555
H33_15 N20_15 1_555 1_555
H34_15 N20_15 1_555 1_555
O1_15 Zn2_15 1_555 1_555
O2_15 Zn2_15 1_555 1_555
O11_7 C8_13 1_555 1_555
O12_7 C8_13 1_555 1_555
O5_15 Zn3_15 1_555 1_555
O6_15 Zn3_15 1_555 1_555
O9_13 Zn7_7 1_555 1_555
O10_15 Zn3_15 1_555 1_555
C5_15 C6_15 1_555 1_555
C7_15 O1_15 1_555 1_555
C7_15 O2_15 1_555 1_555
C15_15 O5_15 1_555 1_555
C15_15 O6_15 1_555 1_555
C21_13 C22_13 1_555 1_555
C27_15 C28_15 1_555 1_555
C29_15 N7_15 1_555 1_555
C30_15 N9_15 1_555 1_555
C35_15 N10_15 1_555 1_555
C36_15 N12_15 1_555 1_555
C39_13 C40_13 1_555 1_555
C41_13 N13_15 1_555 1_555
C42_15 N15_15 1_555 1_555
C45_13 C46_13 1_555 1_555
C47_15 N16_15 1_555 1_555
C48_15 N18_15 1_555 1_555
C51_15 C52_15 1_555 1_555
N2_15 N3_15 1_555 1_555
N4_15 N5_15 1_555 1_555
N5_15 N6_15 1_555 1_555
N7_15 N8_15 1_555 1_555
N8_15 N9_15 1_555 1_555
N10_15 N11_15 1_555 1_555
N11_15 N12_15 1_555 1_555
N13_15 N14_15 1_555 1_555
N14_15 N15_15 1_555 1_555
N16_15 N17_15 1_555 1_555
N17_15 N18_15 1_555 1_555
O10_15 H35_15 1_555 1_555
O10_15 H36_15 1_555 1_555
O9_13 H37_13 1_555 1_555
O9_13 H38_13 1_555 1_555
C1_14 C2_14 1_555 1_555
C2_14 C3_14 1_555 1_555
C3_14 H1_14 1_555 1_555
C4_16 C3_14 1_555 1_555
C5_16 C4_16 1_555 1_555
H2_16 C5_16 1_555 1_555
C6_16 C1_14 1_555 1_555
H3_16 C6_16 1_555 1_555
C8_14 C1_14 1_555 1_555
H12_16 C26_16 1_555 1_555
C27_16 C26_16 1_555 1_555
H13_16 C27_16 1_555 1_555
H14_16 C28_16 1_555 1_555
N19_14 C2_14 1_555 1_555
H31_14 N19_14 1_555 1_555
H32_14 N19_14 1_555 1_555
O11_6 C8_14 1_555 1_555
O12_6 C8_14 1_555 1_555
C5_16 C6_16 1_555 1_555
C27_16 C28_16 1_555 1_555
Zn6_8 N3_16 1_555 1_555
C17_14 C18_14 1_555 1_555
C18_14 C19_14 1_555 1_555
C19_14 H7_14 1_555 1_555
C20_14 C19_14 1_555 1_555
H8_14 C20_14 1_555 1_555
C21_14 C20_14 1_555 1_555
H9_14 C21_14 1_555 1_555
C22_14 C17_14 1_555 1_555
H10_14 C22_14 1_555 1_555
C47_16 C48_16 1_555 1_555
C48_16 C49_16 1_555 1_555
C49_16 H27_16 1_555 1_555
C50_16 C49_16 1_555 1_555
C51_16 C50_16 1_555 1_555
H29_16 C51_16 1_555 1_555
C52_16 C47_16 1_555 1_555
H30_16 C52_16 1_555 1_555
N3_16 C18_14 1_555 1_555
N16_16 Zn6_8 1_555 1_555
C21_14 C22_14 1_555 1_555
C47_16 N16_16 1_555 1_555
C48_16 N18_16 1_555 1_555
C51_16 C52_16 1_555 1_555
N16_16 N17_16 1_555 1_555
N17_16 N18_16 1_555 1_555
Zn1_16 N2_16 1_555 1_555
Zn2_16 N4_16 1_555 1_555
Zn3_16 N6_16 1_555 1_555
Zn7_6 N1_14 1_555 1_555
C9_16 C10_16 1_555 1_555
C10_16 C11_16 1_555 1_555
C11_16 H4_16 1_555 1_555
C12_16 C11_16 1_555 1_555
C13_16 C12_16 1_555 1_555
H5_16 C13_16 1_555 1_555
C14_16 C9_16 1_555 1_555
H6_16 C14_16 1_555 1_555
C15_16 C9_16 1_555 1_555
C16_16 C12_16 1_555 1_555
C23_16 C24_16 1_555 1_555
C24_16 C25_16 1_555 1_555
C25_16 H11_16 1_555 1_555
C29_16 C30_16 1_555 1_555
C30_16 C31_16 1_555 1_555
C31_16 H15_16 1_555 1_555
C32_16 C31_16 1_555 1_555
H16_16 C32_16 1_555 1_555
C33_16 C32_16 1_555 1_555
H17_16 C33_16 1_555 1_555
C34_16 C29_16 1_555 1_555
C35_16 C36_16 1_555 1_555
C36_16 C37_14 1_555 1_555
C37_14 H19_14 1_555 1_555
C38_14 C37_14 1_555 1_555
H20_14 C38_14 1_555 1_555
C39_14 C38_14 1_555 1_555
H21_14 C39_14 1_555 1_555
C40_14 C35_16 1_555 1_555
H22_14 C40_14 1_555 1_555
C41_14 C42_16 1_555 1_555
C42_16 C43_16 1_555 1_555
C43_16 H23_16 1_555 1_555
C44_14 C43_16 1_555 1_555
H24_14 C44_14 1_555 1_555
C45_14 C44_14 1_555 1_555
H25_14 C45_14 1_555 1_555
C46_14 C41_14 1_555 1_555
H26_14 C46_14 1_555 1_555
N2_16 N1_14 1_555 1_555
N4_16 C23_16 1_555 1_555
N5_16 Zn1_16 1_555 1_555
N6_16 C24_16 1_555 1_555
N8_16 Zn1_16 1_555 1_555
N9_16 Zn3_16 1_555 1_555
N10_16 Zn7_6 1_555 1_555
N11_16 Zn1_16 1_555 1_555
N12_16 Zn2_16 1_555 1_555
N13_16 Zn7_6 1_555 1_555
N14_16 Zn1_16 1_555 1_555
N15_16 Zn3_16 1_555 1_555
N20_16 C10_16 1_555 1_555
H33_16 N20_16 1_555 1_555
H34_16 N20_16 1_555 1_555
O1_16 Zn2_16 1_555 1_555
O2_16 Zn2_16 1_555 1_555
O5_16 Zn3_16 1_555 1_555
O6_16 Zn3_16 1_555 1_555
O13_8 C16_16 1_555 1_555
O14_8 C16_16 1_555 1_555
O9_14 Zn7_6 1_555 1_555
O10_16 Zn3_16 1_555 1_555
C7_16 O1_16 1_555 1_555
C7_16 O2_16 1_555 1_555
C13_16 C14_16 1_555 1_555
C15_16 O5_16 1_555 1_555
C15_16 O6_16 1_555 1_555
C29_16 N7_16 1_555 1_555
C30_16 N9_16 1_555 1_555
C33_16 C34_16 1_555 1_555
C35_16 N10_16 1_555 1_555
C36_16 N12_16 1_555 1_555
C39_14 C40_14 1_555 1_555
C41_14 N13_16 1_555 1_555
C42_16 N15_16 1_555 1_555
C45_14 C46_14 1_555 1_555
N4_16 N5_16 1_555 1_555
N5_16 N6_16 1_555 1_555
N7_16 N8_16 1_555 1_555
N8_16 N9_16 1_555 1_555
N10_16 N11_16 1_555 1_555
N11_16 N12_16 1_555 1_555
N13_16 N14_16 1_555 1_555
N14_16 N15_16 1_555 1_555
O10_16 H35_16 1_555 1_555
O10_16 H36_16 1_555 1_555
O9_14 H37_14 1_555 1_555
O9_14 H38_14 1_555 1_555
C1_15 C2_15 1_555 1_555
C2_15 C3_15 1_555 1_555
C3_15 H1_15 1_555 1_555
C8_15 C1_15 1_555 1_555
C37_15 H19_15 1_555 1_555
C38_15 C37_15 1_555 1_555
H20_15 C38_15 1_555 1_555
C39_15 C38_15 1_555 1_555
H21_15 C39_15 1_555 1_555
H22_15 C40_15 1_555 1_555
N19_15 C2_15 1_555 1_555
H31_15 N19_15 1_555 1_555
H32_15 N19_15 1_555 1_555
O3_8 C8_15 1_555 1_555
O4_8 C8_15 1_555 1_555
Zn7_8 O3_8 1_555 1_555
C39_15 C40_15 1_555 1_555
O4_8 Zn7_8 1_555 1_555
Zn7_8 N1_15 1_555 1_555
C17_15 C18_15 1_555 1_555
C18_15 C19_15 1_555 1_555
C19_15 H7_15 1_555 1_555
C20_15 C19_15 1_555 1_555
H8_15 C20_15 1_555 1_555
C21_15 C20_15 1_555 1_555
H9_15 C21_15 1_555 1_555
C22_15 C17_15 1_555 1_555
H10_15 C22_15 1_555 1_555
C45_15 C44_15 1_555 1_555
H25_15 C45_15 1_555 1_555
C46_15 C41_15 1_555 1_555
H26_15 C46_15 1_555 1_555
N1_15 C17_15 1_555 1_555
O9_15 Zn7_8 1_555 1_555
C21_15 C22_15 1_555 1_555
C45_15 C46_15 1_555 1_555
O9_15 H37_15 1_555 1_555
O9_15 H38_15 1_555 1_555
Zn5_8 N1_16 1_555 1_555
C17_16 C18_16 1_555 1_555
C18_16 C19_16 1_555 1_555
C19_16 H7_16 1_555 1_555
C20_16 C19_16 1_555 1_555
H8_16 C20_16 1_555 1_555
C21_16 C20_16 1_555 1_555
H9_16 C21_16 1_555 1_555
C22_16 C17_16 1_555 1_555
H10_16 C22_16 1_555 1_555
C45_16 C44_16 1_555 1_555
H25_16 C45_16 1_555 1_555
C46_16 C41_16 1_555 1_555
H26_16 C46_16 1_555 1_555
N1_16 C17_16 1_555 1_555
O9_16 Zn5_8 1_555 1_555
O11_8 Zn5_8 1_555 1_555
O12_8 Zn5_8 1_555 1_555
C21_16 C22_16 1_555 1_555
C45_16 C46_16 1_555 1_555
O9_16 H37_16 1_555 1_555
O9_16 H38_16 1_555 1_555
C1_16 C2_16 1_555 1_555
C2_16 C3_16 1_555 1_555
C3_16 H1_16 1_555 1_555
C8_16 C1_16 1_555 1_555
C37_16 H19_16 1_555 1_555
C38_16 C37_16 1_555 1_555
H20_16 C38_16 1_555 1_555
C39_16 C38_16 1_555 1_555
H21_16 C39_16 1_555 1_555
H22_16 C40_16 1_555 1_555
N19_16 C2_16 1_555 1_555
H31_16 N19_16 1_555 1_555
H32_16 N19_16 1_555 1_555
O11_8 C8_16 1_555 1_555
O12_8 C8_16 1_555 1_555
C39_16 C40_16 1_555 1_555

#END
