
###############################################################################
#
# This file contains modified crystal structure data generated from the
# MOF subset of the Cambridge Structural Database (CSD) v543 
# hosted by the Cambridge Crystallographic Data Centre (CCDC).
#
# This work is licensed under the Creative Commons
# Attribution-NonCommercial-ShareAlike 4.0 International License.
# To view a copy of this license, visit
# http://creativecommons.org/licenses/by-nc-sa/4.0/
# or send a letter to
# Creative Commons, PO Box 1866, Mountain View, CA 94042, USA.
#
# CIF created using the CSD Python API on 29 September 2022
# The structure has been converted into the P1 space group
# The structure has a 3D framework
# The original CSD entry KUJNOT is in the tetragonal crystal system
# The framework has been calculated to contain at least 10.0% void space
# The void calculation uses a probe of radius 1.32A, grid spacing 0.4
# H atom positions have been added when not included in the experimental data
#
###############################################################################

data_KUJNOT
_chemical_formula_moiety         '(C832 H576 N288 O160 Zn80)n'
_symmetry_cell_setting           triclinic
_symmetry_space_group_name_H-M   'P 1'
_symmetry_Int_Tables_number      1
_space_group_name_Hall           'P 1'
loop_
_symmetry_equiv_pos_site_id
_symmetry_equiv_pos_as_xyz
1 x,y,z
_cell_length_a                   30.048(5)
_cell_length_b                   30.048(5)
_cell_length_c                   37.908(5)
_cell_angle_alpha                90
_cell_angle_beta                 90
_cell_angle_gamma                90
_cell_volume                     34226.5
loop_
_atom_site_label
_atom_site_type_symbol
_atom_site_fract_x
_atom_site_fract_y
_atom_site_fract_z
Zn1 Zn 0.663636(17) 0.055031(17) 0.125198(16)
Zn3 Zn 0.569706(19) 0.03982(2) 0.182095(17)
Zn4 Zn 0.64483(2) 0.152142(19) 0.071470(17)
Zn5 Zn 0.762555(19) 0.06888(2) 0.178921(17)
C9 C 0.46115(13) 0.04909(15) 0.24244(13)
C10 C 0.45998(13) 0.06846(16) 0.27488(13)
H5 H 0.4860 0.0793 0.2850
C11 C 0.42084(17) 0.07198(16) 0.29257(10)
H6 H 0.4201 0.0852 0.3147
C12 C 0.38285(13) 0.05611(15) 0.27780(12)
C13 C 0.38400(14) 0.03674(14) 0.24536(12)
H7 H 0.3579 0.0259 0.2353
C14 C 0.42315(17) 0.03321(14) 0.22768(10)
H8 H 0.4239 0.0200 0.2055
C15 C 0.5040(3) 0.0458(3) 0.2216(2)
C16 C 0.3388(2) 0.0611(2) 0.29724(19)
C17 C 0.73257(13) 0.17870(15) 0.11360(11)
C18 C 0.75984(16) 0.15761(12) 0.13752(12)
C19 C 0.79790(15) 0.17824(17) 0.14922(12)
H9 H 0.8163 0.1640 0.1654
C20 C 0.80872(15) 0.21993(18) 0.13701(15)
H10 H 0.8345 0.2339 0.1449
C21 C 0.78146(19) 0.24100(13) 0.11309(15)
H11 H 0.7888 0.2692 0.1048
C22 C 0.74338(17) 0.22039(15) 0.10139(12)
H12 H 0.7250 0.2346 0.0852
C29 C 0.55602(14) 0.14815(18) 0.11374(15)
C30 C 0.53791(18) 0.12138(15) 0.13961(14)
C31 C 0.49477(19) 0.12821(19) 0.15064(15)
H17 H 0.4825 0.1102 0.1681
C32 C 0.46973(15) 0.1618(2) 0.1358(2)
H18 H 0.4406 0.1664 0.1432
C33 C 0.4879(2) 0.18852(17) 0.10993(19)
H19 H 0.4709 0.2112 0.0999
C34 C 0.5310(2) 0.18171(17) 0.09890(15)
H20 H 0.5432 0.1997 0.0815
C41 C 0.64669(12) 0.03931(11) 0.23691(9)
C42 C 0.69211(12) 0.04518(11) 0.23521(9)
C43 C 0.71722(11) 0.04353(11) 0.26567(11)
H25 H 0.7479 0.0475 0.2645
C44 C 0.69697(15) 0.03603(12) 0.29785(9)
H26 H 0.7140 0.0350 0.3183
C45 C 0.65157(15) 0.03015(12) 0.29953(9)
H27 H 0.6379 0.0251 0.3212
C46 C 0.62643(11) 0.03180(11) 0.26905(11)
H28 H 0.5958 0.0278 0.2702
C47 C 0.67336(11) 0.03597(12) 0.01333(9)
C48 C 0.66736(11) 0.08149(12) 0.01444(9)
N1 N 0.74304(14) 0.11649(13) 0.14445(10)
N2 N 0.70617(14) 0.11310(13) 0.12575(10)
N4 N 0.69881(14) 0.14995(14) 0.10667(10)
N7 N 0.56911(15) 0.09068(14) 0.14828(12)
N8 N 0.60353(14) 0.09836(13) 0.12777(11)
N9 N 0.59743(15) 0.13327(14) 0.10692(12)
N11 N 0.72263(13) 0.01058(13) 0.12306(10)
N12 N 0.75947(14) 0.01630(14) 0.14162(10)
N13 N 0.63049(13) 0.04284(13) 0.20381(10)
N14 N 0.66562(13) 0.05042(12) 0.18270(10)
N15 N 0.70280(13) 0.05193(13) 0.20125(10)
N16 N 0.67037(13) 0.02107(12) 0.04692(10)
N17 N 0.66326(12) 0.05602(13) 0.06752(10)
N18 N 0.66065(13) 0.09292(13) 0.04841(10)
O5 O 0.50649(17) 0.02320(17) 0.19530(16)
O6 O 0.53674(16) 0.0681(2) 0.23087(14)
O7 O 0.30501(14) 0.04391(17) 0.28413(11)
O8 O 0.33645(15) 0.08106(18) 0.32446(14)
O9 O 0.75933(17) 0.12894(16) 0.21995(14)
O10 O 0.5818(2) 0.1469(2) 0.03412(18)
Zn7 Zn 0.262555(19) 0.06888(2) 0.321079(17)
O11 O 0.6295(2) 0.23240(16) 0.07832(14)
O12 O 0.65922(18) 0.19615(14) 0.03479(12)
O13 O 0.80501(14) 0.04391(17) 0.21587(11)
O14 O 0.83645(15) 0.08106(18) 0.17554(14)
H33 H 0.554533 0.14369 0.0486992
H34 H 0.579509 0.174244 0.0195222
H35 H 0.728588 0.141029 0.220699
H36 H 0.767819 0.118069 0.243754
C1 C 0.65183(15) 0.77391(14) 0.97242(13)
C5 C 0.65005(16) 0.85183(13) 0.97661(14)
H3 H 0.6451 0.8795 0.9663
C6 C 0.64460(16) 0.81418(18) 0.95733(10)
H4 H 0.6359 0.8160 0.9338
C7 C 0.6459(3) 0.7316(2) 0.9514(2)
H32 H 0.6848 0.9843 0.9807
O1 O 0.6295(2) 0.73240(16) 0.92168(14)
O2 O 0.65922(18) 0.69615(14) 0.96521(12)
Zn6 Zn 0.64483(2) 0.652142(19) 0.928530(17)
Zn1_2 Zn 0.163636(17) 0.555031(17) 0.625198(16)
Zn2 Zn 0.17406(2) 0.459762(18) 0.569018(16)
Zn3_2 Zn 0.069706(19) 0.53982(2) 0.682095(17)
Zn4_2 Zn 0.14483(2) 0.652142(19) 0.571470(17)
Zn5_2 Zn 0.262555(19) 0.56888(2) 0.678921(17)
C1_2 C 0.15183(15) 0.27391(14) 0.47242(13)
C2 C 0.16450(16) 0.27127(13) 0.50682(13)
H1 H 0.1694 0.2436 0.5171
C3 C 0.16997(16) 0.30893(17) 0.52609(11)
H2 H 0.1787 0.3071 0.5496
C4 C 0.16273(15) 0.34920(14) 0.51101(14)
C5_2 C 0.15005(16) 0.35183(13) 0.47661(14)
H3_2 H 0.1451 0.3795 0.4663
C6_2 C 0.14460(16) 0.31418(18) 0.45733(10)
H4_2 H 0.1359 0.3160 0.4338
C7_2 C 0.1459(3) 0.2316(2) 0.4514(2)
C8 C 0.1697(3) 0.3920(3) 0.5328(2)
C15_2 C 0.0040(3) 0.5458(3) 0.7216(2)
C17_2 C 0.23257(13) 0.67870(15) 0.61360(11)
C18_2 C 0.25984(16) 0.65761(12) 0.63752(12)
C19_2 C 0.29790(15) 0.67824(17) 0.64922(12)
H9_2 H 0.3163 0.6640 0.6654
C20_2 C 0.30872(15) 0.71993(18) 0.63701(15)
H10_2 H 0.3345 0.7339 0.6449
C21_2 C 0.28146(19) 0.74100(13) 0.61309(15)
H11_2 H 0.2888 0.7692 0.6048
C22_2 C 0.24338(17) 0.72039(15) 0.60139(12)
H12_2 H 0.2250 0.7346 0.5852
C23 C 0.06651(16) 0.45156(13) 0.63931(12)
C24 C 0.09234(14) 0.43200(16) 0.61306(12)
C25 C 0.08269(17) 0.38923(17) 0.60144(12)
H13 H 0.1000 0.3762 0.5839
C26 C 0.0472(2) 0.36601(15) 0.61604(16)
H14 H 0.0407 0.3374 0.6083
C27 C 0.02137(16) 0.38555(18) 0.64229(15)
C28 C 0.03104(15) 0.42832(18) 0.65391(12)
H16 H 0.0138 0.4414 0.6714
C29_2 C 0.05602(14) 0.64815(18) 0.61374(15)
C30_2 C 0.03791(18) 0.62138(15) 0.63961(14)
C34_2 C 0.0310(2) 0.68171(17) 0.59890(15)
H20_2 H 0.0432 0.6997 0.5815
C35 C 0.28625(16) 0.48167(13) 0.63331(11)
C36 C 0.26429(13) 0.45524(15) 0.60934(11)
C37 C 0.28436(17) 0.41752(14) 0.59645(11)
H21 H 0.2695 0.3996 0.5802
C38 C 0.32638(18) 0.40622(14) 0.60753(14)
H22 H 0.3400 0.3807 0.5988
C39 C 0.34833(13) 0.43265(19) 0.63150(14)
H23 H 0.3768 0.4250 0.6390
C40 C 0.32828(16) 0.47037(17) 0.64439(11)
H24 H 0.3431 0.4882 0.6606
C41_2 C 0.14669(12) 0.53931(11) 0.73691(9)
C42_2 C 0.19211(12) 0.54518(11) 0.73521(9)
C43_2 C 0.21722(11) 0.54353(11) 0.76567(11)
H25_2 H 0.2479 0.5475 0.7645
C44_2 C 0.19697(15) 0.53603(12) 0.79785(9)
H26_2 H 0.2140 0.5350 0.8183
C45_2 C 0.15157(15) 0.53015(12) 0.79953(9)
H27_2 H 0.1379 0.5251 0.8212
C46_2 C 0.12643(11) 0.53180(11) 0.76905(11)
H28_2 H 0.0958 0.5278 0.7702
C47_2 C 0.17336(11) 0.53597(12) 0.51333(9)
C48_2 C 0.16736(11) 0.58149(12) 0.51444(9)
C49 C 0.16877(11) 0.60606(11) 0.48370(11)
H29 H 0.1647 0.6367 0.4845
C50 C 0.17618(12) 0.58510(15) 0.45182(9)
H30 H 0.1771 0.6017 0.4311
C51 C 0.18219(12) 0.53959(15) 0.45071(9)
H31 H 0.1872 0.5255 0.4292
C52 C 0.18078(11) 0.51502(11) 0.48145(11)
H32_2 H 0.1848 0.4843 0.4807
N1_2 N 0.24304(14) 0.61649(13) 0.64445(10)
N2_2 N 0.20617(14) 0.61310(13) 0.62575(10)
N3 N 0.08439(14) 0.49110(14) 0.64624(11)
N4_2 N 0.19881(14) 0.64995(14) 0.60667(10)
N5 N 0.11903(13) 0.49624(13) 0.62475(11)
N6 N 0.12357(14) 0.46112(14) 0.60390(11)
N7_2 N 0.06911(15) 0.59068(14) 0.64828(12)
N8_2 N 0.10353(14) 0.59836(13) 0.62777(11)
N9_2 N 0.09743(15) 0.63327(14) 0.60692(12)
N10 N 0.22447(14) 0.47372(14) 0.60328(10)
N11_2 N 0.22263(13) 0.51058(13) 0.62306(10)
N12_2 N 0.25947(14) 0.51630(14) 0.64162(10)
N13_2 N 0.13049(13) 0.54284(13) 0.70381(10)
N14_2 N 0.16562(13) 0.55042(12) 0.68270(10)
N15_2 N 0.20280(13) 0.55193(13) 0.70125(10)
N16_2 N 0.17037(13) 0.52107(12) 0.54692(10)
N17_2 N 0.16326(12) 0.55602(13) 0.56752(10)
N18_2 N 0.16065(13) 0.59292(13) 0.54841(10)
O1_2 O 0.1295(2) 0.23240(16) 0.42168(14)
O2_2 O 0.15922(18) 0.19615(14) 0.46521(12)
O3 O 0.1559(3) 0.42652(15) 0.52215(14)
O4 O 0.1852(2) 0.38984(19) 0.56192(18)
O5_2 O 0.00649(17) 0.52320(17) 0.69530(16)
O6_2 O 0.03674(16) 0.5681(2) 0.73087(14)
O9_2 O 0.25933(17) 0.62894(16) 0.71995(14)
O10_2 O 0.0818(2) 0.6469(2) 0.53412(18)
Zn6_2 Zn 0.14483(2) 0.152142(19) 0.428530(17)
O11_2 O 0.1295(2) 0.73240(16) 0.57832(14)
O12_2 O 0.15922(18) 0.69615(14) 0.53479(12)
O13_2 O 0.30501(14) 0.54391(17) 0.71587(11)
O14_2 O 0.33645(15) 0.58106(18) 0.67554(14)
H33_2 H 0.0545326 0.64369 0.548699
H34_2 H 0.0795094 0.674244 0.519522
H35_2 H 0.228588 0.641029 0.720699
H36_2 H 0.267819 0.618069 0.743754
C9_2 C 0.96115(13) 0.54909(15) 0.74244(13)
C10_2 C 0.95998(13) 0.56846(16) 0.77488(13)
H5_2 H 0.9860 0.5793 0.7850
C11_2 C 0.92084(17) 0.57198(16) 0.79257(10)
H6_2 H 0.9201 0.5852 0.8147
C12_2 C 0.88285(13) 0.55611(15) 0.77780(12)
C13_2 C 0.88400(14) 0.53674(14) 0.74536(12)
H7_2 H 0.8579 0.5259 0.7353
C14_2 C 0.92315(17) 0.53321(14) 0.72768(10)
H8_2 H 0.9239 0.5200 0.7055
C16_2 C 0.8388(2) 0.5611(2) 0.79724(19)
H15 H 0.9976 0.3700 0.6521
C31_2 C 0.99477(19) 0.62821(19) 0.65064(15)
H17_2 H 0.9825 0.6102 0.6681
C32_2 C 0.96973(15) 0.6618(2) 0.6358(2)
H18_2 H 0.9406 0.6664 0.6432
C33_2 C 0.9879(2) 0.68852(17) 0.60993(19)
H19_2 H 0.9709 0.7112 0.5999
O7_2 O 0.80501(14) 0.54391(17) 0.78413(11)
O8_2 O 0.83645(15) 0.58106(18) 0.82446(14)
Zn7_2 Zn 0.762555(19) 0.56888(2) 0.821079(17)
C1_3 C 0.65183(15) 0.27391(14) 0.02758(13)
C5_3 C 0.65005(16) 0.35183(13) 0.02339(14)
H3_3 H 0.6451 0.3795 0.0337
C6_3 C 0.64460(16) 0.31418(18) 0.04267(10)
H4_3 H 0.6359 0.3160 0.0662
C7_3 C 0.6459(3) 0.2316(2) 0.0486(2)
C49_2 C 0.66877(11) 0.60606(11) 0.01630(11)
H29_2 H 0.6647 0.6367 0.0155
C50_2 C 0.67618(12) 0.58510(15) 0.04818(9)
H30_2 H 0.6771 0.6017 0.0689
C51_2 C 0.68219(12) 0.53959(15) 0.04929(9)
H31_2 H 0.6872 0.5255 0.0708
C52_2 C 0.68078(11) 0.51502(11) 0.01855(11)
H32_3 H 0.6848 0.4843 0.0193
Zn1_3 Zn 0.663636(17) 0.555031(17) 0.874802(16)
Zn2_2 Zn 0.67406(2) 0.459762(18) 0.930982(16)
Zn3_3 Zn 0.569706(19) 0.53982(2) 0.817905(17)
C2_2 C 0.66450(16) 0.27127(13) 0.99318(13)
H1_2 H 0.6694 0.2436 0.9829
C3_2 C 0.66997(16) 0.30893(17) 0.97391(11)
H2_2 H 0.6787 0.3071 0.9504
C4_2 C 0.66273(15) 0.34920(14) 0.98899(14)
C8_2 C 0.6697(3) 0.3920(3) 0.9672(2)
C9_3 C 0.46115(13) 0.54909(15) 0.75756(13)
C10_3 C 0.45998(13) 0.56846(16) 0.72512(13)
H5_3 H 0.4860 0.5793 0.7150
C11_3 C 0.42084(17) 0.57198(16) 0.70743(10)
H6_3 H 0.4201 0.5852 0.6853
C12_3 C 0.38285(13) 0.55611(15) 0.72220(12)
C13_3 C 0.38400(14) 0.53674(14) 0.75464(12)
H7_3 H 0.3579 0.5259 0.7647
C14_3 C 0.42315(17) 0.53321(14) 0.77232(10)
H8_3 H 0.4239 0.5200 0.7945
C15_3 C 0.5040(3) 0.5458(3) 0.7784(2)
C16_3 C 0.3388(2) 0.5611(2) 0.70276(19)
C17_3 C 0.73257(13) 0.67870(15) 0.88640(11)
C18_3 C 0.75984(16) 0.65761(12) 0.86248(12)
C19_3 C 0.79790(15) 0.67824(17) 0.85078(12)
H9_3 H 0.8163 0.6640 0.8346
C20_3 C 0.80872(15) 0.71993(18) 0.86299(15)
H10_3 H 0.8345 0.7339 0.8551
C21_3 C 0.78146(19) 0.74100(13) 0.88691(15)
H11_3 H 0.7888 0.7692 0.8952
C22_3 C 0.74338(17) 0.72039(15) 0.89861(12)
H12_3 H 0.7250 0.7346 0.9148
C23_2 C 0.56651(16) 0.45156(13) 0.86069(12)
C24_2 C 0.59234(14) 0.43200(16) 0.88694(12)
C25_2 C 0.58269(17) 0.38923(17) 0.89856(12)
H13_2 H 0.6000 0.3762 0.9161
C26_2 C 0.5472(2) 0.36601(15) 0.88396(16)
H14_2 H 0.5407 0.3374 0.8917
C27_2 C 0.52137(16) 0.38555(18) 0.85771(15)
H15_2 H 0.4976 0.3700 0.8479
C28_2 C 0.53104(15) 0.42832(18) 0.84609(12)
H16_2 H 0.5138 0.4414 0.8286
C29_3 C 0.55602(14) 0.64815(18) 0.88626(15)
C30_3 C 0.53791(18) 0.62138(15) 0.86039(14)
C31_3 C 0.49477(19) 0.62821(19) 0.84936(15)
H17_3 H 0.4825 0.6102 0.8319
C32_3 C 0.46973(15) 0.6618(2) 0.8642(2)
H18_3 H 0.4406 0.6664 0.8568
C33_3 C 0.4879(2) 0.68852(17) 0.89007(19)
H19_3 H 0.4709 0.7112 0.9001
C34_3 C 0.5310(2) 0.68171(17) 0.90110(15)
H20_3 H 0.5432 0.6997 0.9185
C35_2 C 0.78625(16) 0.48167(13) 0.86669(11)
C36_2 C 0.76429(13) 0.45524(15) 0.89066(11)
C37_2 C 0.78436(17) 0.41752(14) 0.90355(11)
H21_2 H 0.7695 0.3996 0.9198
C38_2 C 0.82638(18) 0.40622(14) 0.89247(14)
H22_2 H 0.8400 0.3807 0.9012
C39_2 C 0.84833(13) 0.43265(19) 0.86850(14)
H23_2 H 0.8768 0.4250 0.8610
C40_2 C 0.82828(16) 0.47037(17) 0.85561(11)
H24_2 H 0.8431 0.4882 0.8394
C41_3 C 0.64669(12) 0.53931(11) 0.76309(9)
C42_3 C 0.69211(12) 0.54518(11) 0.76479(9)
C43_3 C 0.71722(11) 0.54353(11) 0.73433(11)
H25_3 H 0.7479 0.5475 0.7355
C44_3 C 0.69697(15) 0.53603(12) 0.70215(9)
H26_3 H 0.7140 0.5350 0.6817
C45_3 C 0.65157(15) 0.53015(12) 0.70047(9)
H27_3 H 0.6379 0.5251 0.6788
C46_3 C 0.62643(11) 0.53180(11) 0.73095(11)
H28_3 H 0.5958 0.5278 0.7298
C47_3 C 0.67336(11) 0.53597(12) 0.98667(9)
C48_3 C 0.66736(11) 0.58149(12) 0.98556(9)
N1_3 N 0.74304(14) 0.61649(13) 0.85555(10)
N2_3 N 0.70617(14) 0.61310(13) 0.87425(10)
N3_2 N 0.58439(14) 0.49110(14) 0.85376(11)
N4_3 N 0.69881(14) 0.64995(14) 0.89333(10)
N5_2 N 0.61903(13) 0.49624(13) 0.87525(11)
N6_2 N 0.62357(14) 0.46112(14) 0.89610(11)
N7_3 N 0.56911(15) 0.59068(14) 0.85172(12)
N8_3 N 0.60353(14) 0.59836(13) 0.87223(11)
N9_3 N 0.59743(15) 0.63327(14) 0.89308(12)
N10_2 N 0.72447(14) 0.47372(14) 0.89672(10)
N11_3 N 0.72263(13) 0.51058(13) 0.87694(10)
N12_3 N 0.75947(14) 0.51630(14) 0.85838(10)
N13_3 N 0.63049(13) 0.54284(13) 0.79619(10)
N14_3 N 0.66562(13) 0.55042(12) 0.81730(10)
N15_3 N 0.70280(13) 0.55193(13) 0.79875(10)
N16_3 N 0.67037(13) 0.52107(12) 0.95308(10)
N17_3 N 0.66326(12) 0.55602(13) 0.93248(10)
N18_3 N 0.66065(13) 0.59292(13) 0.95159(10)
O3_2 O 0.6559(3) 0.42652(15) 0.97785(14)
O4_2 O 0.6852(2) 0.38984(19) 0.93808(18)
O5_3 O 0.50649(17) 0.52320(17) 0.80470(16)
O6_3 O 0.53674(16) 0.5681(2) 0.76913(14)
O9_3 O 0.75933(17) 0.62894(16) 0.78005(14)
O10_3 O 0.5818(2) 0.6469(2) 0.96588(18)
H33_3 H 0.554533 0.64369 0.951301
H34_3 H 0.579509 0.674244 0.980478
H35_3 H 0.728588 0.641029 0.779301
H36_3 H 0.767819 0.618069 0.756246
Zn1_4 Zn 0.163636(17) 0.055031(17) 0.374802(16)
Zn3_4 Zn 0.069706(19) 0.03982(2) 0.317905(17)
C15_4 C 0.0040(3) 0.0458(3) 0.2784(2)
C17_4 C 0.23257(13) 0.17870(15) 0.38640(11)
C18_4 C 0.25984(16) 0.15761(12) 0.36248(12)
C19_4 C 0.29790(15) 0.17824(17) 0.35078(12)
H9_4 H 0.3163 0.1640 0.3346
C20_4 C 0.30872(15) 0.21993(18) 0.36299(15)
H10_4 H 0.3345 0.2339 0.3551
C21_4 C 0.28146(19) 0.24100(13) 0.38691(15)
H11_4 H 0.2888 0.2692 0.3952
C22_4 C 0.24338(17) 0.22039(15) 0.39861(12)
H12_4 H 0.2250 0.2346 0.4148
C29_4 C 0.05602(14) 0.14815(18) 0.38626(15)
C30_4 C 0.03791(18) 0.12138(15) 0.36039(14)
C34_4 C 0.0310(2) 0.18171(17) 0.40110(15)
H20_4 H 0.0432 0.1997 0.4185
C41_4 C 0.14669(12) 0.03931(11) 0.26309(9)
C42_4 C 0.19211(12) 0.04518(11) 0.26479(9)
C43_4 C 0.21722(11) 0.04353(11) 0.23433(11)
H25_4 H 0.2479 0.0475 0.2355
C44_4 C 0.19697(15) 0.03603(12) 0.20215(9)
H26_4 H 0.2140 0.0350 0.1817
C45_4 C 0.15157(15) 0.03015(12) 0.20047(9)
H27_4 H 0.1379 0.0251 0.1788
C46_4 C 0.12643(11) 0.03180(11) 0.23095(11)
H28_4 H 0.0958 0.0278 0.2298
C47_4 C 0.17336(11) 0.03597(12) 0.48667(9)
C48_4 C 0.16736(11) 0.08149(12) 0.48556(9)
C49_3 C 0.16877(11) 0.10606(11) 0.51630(11)
H29_3 H 0.1647 0.1367 0.5155
C50_3 C 0.17618(12) 0.08510(15) 0.54818(9)
H30_3 H 0.1771 0.1017 0.5689
C51_3 C 0.18219(12) 0.03959(15) 0.54929(9)
H31_3 H 0.1872 0.0255 0.5708
C52_3 C 0.18078(11) 0.01502(11) 0.51855(11)
N1_4 N 0.24304(14) 0.11649(13) 0.35555(10)
N2_4 N 0.20617(14) 0.11310(13) 0.37425(10)
N4_4 N 0.19881(14) 0.14995(14) 0.39333(10)
N7_4 N 0.06911(15) 0.09068(14) 0.35172(12)
N8_4 N 0.10353(14) 0.09836(13) 0.37223(11)
N9_4 N 0.09743(15) 0.13327(14) 0.39308(12)
N11_4 N 0.22263(13) 0.01058(13) 0.37694(10)
N12_4 N 0.25947(14) 0.01630(14) 0.35838(10)
N13_4 N 0.13049(13) 0.04284(13) 0.29619(10)
N14_4 N 0.16562(13) 0.05042(12) 0.31730(10)
N15_4 N 0.20280(13) 0.05193(13) 0.29875(10)
N16_4 N 0.17037(13) 0.02107(12) 0.45308(10)
N17_4 N 0.16326(12) 0.05602(13) 0.43248(10)
N18_4 N 0.16065(13) 0.09292(13) 0.45159(10)
O5_4 O 0.00649(17) 0.02320(17) 0.30470(16)
O6_4 O 0.03674(16) 0.0681(2) 0.26913(14)
O9_4 O 0.25933(17) 0.12894(16) 0.28005(14)
O10_4 O 0.0818(2) 0.1469(2) 0.46588(18)
H33_4 H 0.0545326 0.14369 0.451301
H34_4 H 0.0795094 0.174244 0.480478
H35_4 H 0.228588 0.141029 0.279301
H36_4 H 0.267819 0.118069 0.256246
Zn2_3 Zn 0.17406(2) 0.959762(18) 0.430982(16)
C1_4 C 0.15183(15) 0.77391(14) 0.52758(13)
C2_3 C 0.16450(16) 0.77127(13) 0.49318(13)
H1_3 H 0.1694 0.7436 0.4829
C3_3 C 0.16997(16) 0.80893(17) 0.47391(11)
H2_3 H 0.1787 0.8071 0.4504
C4_3 C 0.16273(15) 0.84920(14) 0.48899(14)
C5_4 C 0.15005(16) 0.85183(13) 0.52339(14)
H3_4 H 0.1451 0.8795 0.5337
C6_4 C 0.14460(16) 0.81418(18) 0.54267(10)
H4_4 H 0.1359 0.8160 0.5662
C7_4 C 0.1459(3) 0.7316(2) 0.5486(2)
C8_3 C 0.1697(3) 0.8920(3) 0.4672(2)
C23_3 C 0.06651(16) 0.95156(13) 0.36069(12)
C24_3 C 0.09234(14) 0.93200(16) 0.38694(12)
C25_3 C 0.08269(17) 0.88923(17) 0.39856(12)
H13_3 H 0.1000 0.8762 0.4161
C26_3 C 0.0472(2) 0.86601(15) 0.38396(16)
H14_3 H 0.0407 0.8374 0.3917
C27_3 C 0.02137(16) 0.88555(18) 0.35771(15)
C28_3 C 0.03104(15) 0.92832(18) 0.34609(12)
H16_3 H 0.0138 0.9414 0.3286
C35_3 C 0.28625(16) 0.98167(13) 0.36669(11)
C36_3 C 0.26429(13) 0.95524(15) 0.39066(11)
C37_3 C 0.28436(17) 0.91752(14) 0.40355(11)
H21_3 H 0.2695 0.8996 0.4198
C38_3 C 0.32638(18) 0.90622(14) 0.39247(14)
H22_3 H 0.3400 0.8807 0.4012
C39_3 C 0.34833(13) 0.93265(19) 0.36850(14)
H23_3 H 0.3768 0.9250 0.3610
C40_3 C 0.32828(16) 0.97037(17) 0.35561(11)
H24_3 H 0.3431 0.9882 0.3394
H32_4 H 0.1848 0.9843 0.5193
N3_3 N 0.08439(14) 0.99110(14) 0.35376(11)
N5_3 N 0.11903(13) 0.99624(13) 0.37525(11)
N6_3 N 0.12357(14) 0.96112(14) 0.39610(11)
N10_3 N 0.22447(14) 0.97372(14) 0.39672(10)
O3_3 O 0.1559(3) 0.92652(15) 0.47785(14)
O4_3 O 0.1852(2) 0.88984(19) 0.43808(18)
C9_4 C 0.96115(13) 0.04909(15) 0.25756(13)
C10_4 C 0.95998(13) 0.06846(16) 0.22512(13)
H5_4 H 0.9860 0.0793 0.2150
C11_4 C 0.92084(17) 0.07198(16) 0.20743(10)
H6_4 H 0.9201 0.0852 0.1853
C12_4 C 0.88285(13) 0.05611(15) 0.22220(12)
C13_4 C 0.88400(14) 0.03674(14) 0.25464(12)
H7_4 H 0.8579 0.0259 0.2647
C14_4 C 0.92315(17) 0.03321(14) 0.27232(10)
H8_4 H 0.9239 0.0200 0.2945
C16_4 C 0.8388(2) 0.0611(2) 0.20276(19)
C31_4 C 0.99477(19) 0.12821(19) 0.34936(15)
H17_4 H 0.9825 0.1102 0.3319
C32_4 C 0.96973(15) 0.1618(2) 0.3642(2)
H18_4 H 0.9406 0.1664 0.3568
C33_4 C 0.9879(2) 0.18852(17) 0.39007(19)
H19_4 H 0.9709 0.2112 0.4001
C49_4 C 0.66877(11) 0.10606(11) 0.98370(11)
H29_4 H 0.6647 0.1367 0.9845
C50_4 C 0.67618(12) 0.08510(15) 0.95182(9)
H30_4 H 0.6771 0.1017 0.9311
C51_4 C 0.68219(12) 0.03959(15) 0.95071(9)
H31_4 H 0.6872 0.0255 0.9292
C52_4 C 0.68078(11) 0.01502(11) 0.98145(11)
Zn2_4 Zn 0.67406(2) 0.959762(18) 0.069018(16)
C2_4 C 0.66450(16) 0.77127(13) 0.00682(13)
H1_4 H 0.6694 0.7436 0.0171
C3_4 C 0.66997(16) 0.80893(17) 0.02609(11)
H2_4 H 0.6787 0.8071 0.0496
C4_4 C 0.66273(15) 0.84920(14) 0.01101(14)
C8_4 C 0.6697(3) 0.8920(3) 0.0328(2)
C23_4 C 0.56651(16) 0.95156(13) 0.13931(12)
C24_4 C 0.59234(14) 0.93200(16) 0.11306(12)
C25_4 C 0.58269(17) 0.88923(17) 0.10144(12)
H13_4 H 0.6000 0.8762 0.0839
C26_4 C 0.5472(2) 0.86601(15) 0.11604(16)
H14_4 H 0.5407 0.8374 0.1083
C27_4 C 0.52137(16) 0.88555(18) 0.14229(15)
H15_3 H 0.4976 0.8700 0.1521
C28_4 C 0.53104(15) 0.92832(18) 0.15391(12)
H16_4 H 0.5138 0.9414 0.1714
C35_4 C 0.78625(16) 0.98167(13) 0.13331(11)
C36_4 C 0.76429(13) 0.95524(15) 0.10934(11)
C37_4 C 0.78436(17) 0.91752(14) 0.09645(11)
H21_4 H 0.7695 0.8996 0.0802
C38_4 C 0.82638(18) 0.90622(14) 0.10753(14)
H22_4 H 0.8400 0.8807 0.0988
C39_4 C 0.84833(13) 0.93265(19) 0.13150(14)
H23_4 H 0.8768 0.9250 0.1390
C40_4 C 0.82828(16) 0.97037(17) 0.14439(11)
H24_4 H 0.8431 0.9882 0.1606
N3_4 N 0.58439(14) 0.99110(14) 0.14624(11)
N5_4 N 0.61903(13) 0.99624(13) 0.12475(11)
N6_4 N 0.62357(14) 0.96112(14) 0.10390(11)
N10_4 N 0.72447(14) 0.97372(14) 0.10328(10)
O3_4 O 0.6559(3) 0.92652(15) 0.02215(14)
O4_4 O 0.6852(2) 0.88984(19) 0.06192(18)
Zn1_5 Zn 0.336364(17) 0.444969(17) 0.125198(16)
Zn2_5 Zn 0.32594(2) 0.540238(18) 0.069018(16)
Zn3_5 Zn 0.430294(19) 0.46018(2) 0.182095(17)
Zn4_3 Zn 0.35517(2) 0.347858(19) 0.071470(17)
Zn5_3 Zn 0.237445(19) 0.43112(2) 0.178921(17)
C2_5 C 0.33550(16) 0.72873(13) 0.00682(13)
H1_5 H 0.3306 0.7564 0.0171
C3_5 C 0.33003(16) 0.69107(17) 0.02609(11)
H2_5 H 0.3213 0.6929 0.0496
C4_5 C 0.33727(15) 0.65080(14) 0.01101(14)
C8_5 C 0.3303(3) 0.6080(3) 0.0328(2)
C9_5 C 0.53885(13) 0.45091(15) 0.24244(13)
C10_5 C 0.54002(13) 0.43154(16) 0.27488(13)
H5_5 H 0.5140 0.4207 0.2850
C11_5 C 0.57916(17) 0.42802(16) 0.29257(10)
H6_5 H 0.5799 0.4148 0.3147
C12_5 C 0.61715(13) 0.44389(15) 0.27780(12)
C13_5 C 0.61600(14) 0.46326(14) 0.24536(12)
H7_5 H 0.6421 0.4741 0.2353
C14_5 C 0.57685(17) 0.46679(14) 0.22768(10)
H8_5 H 0.5761 0.4800 0.2055
C15_5 C 0.4960(3) 0.4542(3) 0.2216(2)
C16_5 C 0.6612(2) 0.4389(2) 0.29724(19)
C17_5 C 0.26743(13) 0.32130(15) 0.11360(11)
C18_5 C 0.24016(16) 0.34239(12) 0.13752(12)
C19_5 C 0.20210(15) 0.32176(17) 0.14922(12)
H9_5 H 0.1837 0.3360 0.1654
C20_5 C 0.19128(15) 0.28007(18) 0.13701(15)
H10_5 H 0.1655 0.2661 0.1449
C21_5 C 0.21854(19) 0.25900(13) 0.11309(15)
H11_5 H 0.2112 0.2308 0.1048
C22_5 C 0.25662(17) 0.27961(15) 0.10139(12)
H12_5 H 0.2750 0.2654 0.0852
C23_5 C 0.43349(16) 0.54844(13) 0.13931(12)
C24_5 C 0.40766(14) 0.56800(16) 0.11306(12)
C25_5 C 0.41731(17) 0.61077(17) 0.10144(12)
H13_5 H 0.4000 0.6238 0.0839
C26_5 C 0.4528(2) 0.63399(15) 0.11604(16)
H14_5 H 0.4593 0.6626 0.1083
C27_5 C 0.47863(16) 0.61445(18) 0.14229(15)
H15_4 H 0.5024 0.6300 0.1521
C28_5 C 0.46896(15) 0.57168(18) 0.15391(12)
H16_5 H 0.4862 0.5586 0.1714
C29_5 C 0.44398(14) 0.35185(18) 0.11374(15)
C30_5 C 0.46209(18) 0.37862(15) 0.13961(14)
C31_5 C 0.50523(19) 0.37179(19) 0.15064(15)
H17_5 H 0.5175 0.3898 0.1681
C32_5 C 0.53027(15) 0.3382(2) 0.1358(2)
H18_5 H 0.5594 0.3336 0.1432
C33_5 C 0.5121(2) 0.31148(17) 0.10993(19)
H19_5 H 0.5291 0.2888 0.0999
C34_5 C 0.4690(2) 0.31829(17) 0.09890(15)
H20_5 H 0.4568 0.3003 0.0815
C35_5 C 0.21375(16) 0.51833(13) 0.13331(11)
C36_5 C 0.23571(13) 0.54476(15) 0.10934(11)
C37_5 C 0.21564(17) 0.58248(14) 0.09645(11)
H21_5 H 0.2305 0.6004 0.0802
C38_5 C 0.17362(18) 0.59378(14) 0.10753(14)
H22_5 H 0.1600 0.6193 0.0988
C39_5 C 0.15167(13) 0.56735(19) 0.13150(14)
H23_5 H 0.1232 0.5750 0.1390
C40_5 C 0.17172(16) 0.52963(17) 0.14439(11)
H24_5 H 0.1569 0.5118 0.1606
C41_5 C 0.35331(12) 0.46069(11) 0.23691(9)
C42_5 C 0.30789(12) 0.45482(11) 0.23521(9)
C43_5 C 0.28278(11) 0.45647(11) 0.26567(11)
H25_5 H 0.2521 0.4525 0.2645
C44_5 C 0.30303(15) 0.46397(12) 0.29785(9)
H26_5 H 0.2860 0.4650 0.3183
C45_5 C 0.34843(15) 0.46985(12) 0.29953(9)
H27_5 H 0.3621 0.4749 0.3212
C46_5 C 0.37357(11) 0.46820(11) 0.26905(11)
H28_5 H 0.4042 0.4722 0.2702
C47_5 C 0.32664(11) 0.46403(12) 0.01333(9)
C48_5 C 0.33264(11) 0.41851(12) 0.01444(9)
N1_5 N 0.25696(14) 0.38351(13) 0.14445(10)
N2_5 N 0.29383(14) 0.38690(13) 0.12575(10)
N3_5 N 0.41561(14) 0.50890(14) 0.14624(11)
N4_5 N 0.30119(14) 0.35005(14) 0.10667(10)
N5_5 N 0.38097(13) 0.50376(13) 0.12475(11)
N6_5 N 0.37643(14) 0.53888(14) 0.10390(11)
N7_5 N 0.43089(15) 0.40932(14) 0.14828(12)
N8_5 N 0.39647(14) 0.40164(13) 0.12777(11)
N9_5 N 0.40257(15) 0.36673(14) 0.10692(12)
N10_5 N 0.27553(14) 0.52628(14) 0.10328(10)
N11_5 N 0.27737(13) 0.48942(13) 0.12306(10)
N12_5 N 0.24053(14) 0.48370(14) 0.14162(10)
N13_5 N 0.36951(13) 0.45716(13) 0.20381(10)
N14_5 N 0.33438(13) 0.44958(12) 0.18270(10)
N15_5 N 0.29720(13) 0.44807(13) 0.20125(10)
N16_5 N 0.32963(13) 0.47893(12) 0.04692(10)
N17_5 N 0.33674(12) 0.44398(13) 0.06752(10)
N18_5 N 0.33935(13) 0.40708(13) 0.04841(10)
O3_5 O 0.3441(3) 0.57348(15) 0.02215(14)
O4_5 O 0.3148(2) 0.61016(19) 0.06192(18)
O5_5 O 0.49351(17) 0.47680(17) 0.19530(16)
O6_5 O 0.46326(16) 0.4319(2) 0.23087(14)
O7_3 O 0.69499(14) 0.45609(17) 0.28413(11)
O8_3 O 0.66355(15) 0.41894(18) 0.32446(14)
O9_5 O 0.24067(17) 0.37106(16) 0.21995(14)
O10_5 O 0.4182(2) 0.3531(2) 0.03412(18)
Zn7_3 Zn 0.737445(19) 0.43112(2) 0.321079(17)
O11_3 O 0.3705(2) 0.26760(16) 0.07832(14)
O12_3 O 0.34078(18) 0.30385(14) 0.03479(12)
O13_3 O 0.19499(14) 0.45609(17) 0.21587(11)
O14_3 O 0.16355(15) 0.41894(18) 0.17554(14)
H33_5 H 0.445467 0.35631 0.0486992
H34_5 H 0.420491 0.325756 0.0195222
H35_5 H 0.271412 0.358971 0.220699
H36_5 H 0.232181 0.381931 0.243754
C1_5 C 0.34817(15) 0.72609(14) 0.97242(13)
C5_5 C 0.34995(16) 0.64817(13) 0.97661(14)
H3_5 H 0.3549 0.6205 0.9663
C6_5 C 0.35540(16) 0.68582(18) 0.95733(10)
H4_5 H 0.3641 0.6840 0.9338
C7_5 C 0.3541(3) 0.7684(2) 0.9514(2)
C49_5 C 0.33123(11) 0.39394(11) 0.98370(11)
H29_5 H 0.3353 0.3633 0.9845
C50_5 C 0.32382(12) 0.41490(15) 0.95182(9)
H30_5 H 0.3229 0.3983 0.9311
C51_5 C 0.31781(12) 0.46041(15) 0.95071(9)
H31_5 H 0.3128 0.4745 0.9292
C52_5 C 0.31922(11) 0.48498(11) 0.98145(11)
H32_5 H 0.3152 0.5157 0.9807
O1_3 O 0.3705(2) 0.76760(16) 0.92168(14)
O2_3 O 0.34078(18) 0.80385(14) 0.96521(12)
Zn6_3 Zn 0.35517(2) 0.847858(19) 0.928530(17)
C9_6 C 0.03885(13) 0.95091(15) 0.74244(13)
C10_6 C 0.04002(13) 0.93154(16) 0.77488(13)
H5_6 H 0.0140 0.9207 0.7850
C11_6 C 0.07916(17) 0.92802(16) 0.79257(10)
H6_6 H 0.0799 0.9148 0.8147
C12_6 C 0.11715(13) 0.94389(15) 0.77780(12)
C13_6 C 0.11600(14) 0.96326(14) 0.74536(12)
H7_6 H 0.1421 0.9741 0.7353
C14_6 C 0.07685(17) 0.96679(14) 0.72768(10)
H8_6 H 0.0761 0.9800 0.7055
C16_6 C 0.1612(2) 0.9389(2) 0.79724(19)
C31_6 C 0.00523(19) 0.87179(19) 0.65064(15)
H17_6 H 0.0175 0.8898 0.6681
C32_6 C 0.03027(15) 0.8382(2) 0.6358(2)
H18_6 H 0.0594 0.8336 0.6432
C33_6 C 0.0121(2) 0.81148(17) 0.60993(19)
H19_6 H 0.0291 0.7888 0.5999
O7_4 O 0.19499(14) 0.95609(17) 0.78413(11)
O8_4 O 0.16355(15) 0.91894(18) 0.82446(14)
Zn7_4 Zn 0.237445(19) 0.93112(2) 0.821079(17)
Zn2_6 Zn 0.82594(2) 0.040238(18) 0.569018(16)
C1_6 C 0.84817(15) 0.22609(14) 0.47242(13)
C2_6 C 0.83550(16) 0.22873(13) 0.50682(13)
H1_6 H 0.8306 0.2564 0.5171
C3_6 C 0.83003(16) 0.19107(17) 0.52609(11)
H2_6 H 0.8213 0.1929 0.5496
C4_6 C 0.83727(15) 0.15080(14) 0.51101(14)
C5_6 C 0.84995(16) 0.14817(13) 0.47661(14)
H3_6 H 0.8549 0.1205 0.4663
C6_6 C 0.85540(16) 0.18582(18) 0.45733(10)
H4_6 H 0.8641 0.1840 0.4338
C7_6 C 0.8541(3) 0.2684(2) 0.4514(2)
C8_6 C 0.8303(3) 0.1080(3) 0.5328(2)
C23_6 C 0.93349(16) 0.04844(13) 0.63931(12)
C24_6 C 0.90766(14) 0.06800(16) 0.61306(12)
C25_6 C 0.91731(17) 0.11077(17) 0.60144(12)
H13_6 H 0.9000 0.1238 0.5839
C26_6 C 0.9528(2) 0.13399(15) 0.61604(16)
H14_6 H 0.9593 0.1626 0.6083
C27_6 C 0.97863(16) 0.11445(18) 0.64229(15)
C28_6 C 0.96896(15) 0.07168(18) 0.65391(12)
H16_6 H 0.9862 0.0586 0.6714
C35_6 C 0.71375(16) 0.01833(13) 0.63331(11)
C36_6 C 0.73571(13) 0.04476(15) 0.60934(11)
C37_6 C 0.71564(17) 0.08248(14) 0.59645(11)
H21_6 H 0.7305 0.1004 0.5802
C38_6 C 0.67362(18) 0.09378(14) 0.60753(14)
H22_6 H 0.6600 0.1193 0.5988
C39_6 C 0.65167(13) 0.06735(19) 0.63150(14)
H23_6 H 0.6232 0.0750 0.6390
C40_6 C 0.67172(16) 0.02963(17) 0.64439(11)
H24_6 H 0.6569 0.0118 0.6606
H32_6 H 0.8152 0.0157 0.4807
N3_6 N 0.91561(14) 0.00890(14) 0.64624(11)
N5_6 N 0.88097(13) 0.00376(13) 0.62475(11)
N6_6 N 0.87643(14) 0.03888(14) 0.60390(11)
N10_6 N 0.77553(14) 0.02628(14) 0.60328(10)
O1_4 O 0.8705(2) 0.26760(16) 0.42168(14)
O2_4 O 0.84078(18) 0.30385(14) 0.46521(12)
O3_6 O 0.8441(3) 0.07348(15) 0.52215(14)
O4_6 O 0.8148(2) 0.11016(19) 0.56192(18)
Zn6_4 Zn 0.85517(2) 0.347858(19) 0.428530(17)
Zn1_6 Zn 0.836364(17) 0.944969(17) 0.625198(16)
Zn3_6 Zn 0.930294(19) 0.96018(2) 0.682095(17)
Zn4_4 Zn 0.85517(2) 0.847858(19) 0.571470(17)
Zn5_4 Zn 0.737445(19) 0.93112(2) 0.678921(17)
C15_6 C 0.9960(3) 0.9542(3) 0.7216(2)
C17_6 C 0.76743(13) 0.82130(15) 0.61360(11)
C18_6 C 0.74016(16) 0.84239(12) 0.63752(12)
C19_6 C 0.70210(15) 0.82176(17) 0.64922(12)
H9_6 H 0.6837 0.8360 0.6654
C20_6 C 0.69128(15) 0.78007(18) 0.63701(15)
H10_6 H 0.6655 0.7661 0.6449
C21_6 C 0.71854(19) 0.75900(13) 0.61309(15)
H11_6 H 0.7112 0.7308 0.6048
C22_6 C 0.75662(17) 0.77961(15) 0.60139(12)
H12_6 H 0.7750 0.7654 0.5852
C29_6 C 0.94398(14) 0.85185(18) 0.61374(15)
C30_6 C 0.96209(18) 0.87862(15) 0.63961(14)
C34_6 C 0.9690(2) 0.81829(17) 0.59890(15)
H20_6 H 0.9568 0.8003 0.5815
C41_6 C 0.85331(12) 0.96069(11) 0.73691(9)
C42_6 C 0.80789(12) 0.95482(11) 0.73521(9)
C43_6 C 0.78278(11) 0.95647(11) 0.76567(11)
H25_6 H 0.7521 0.9525 0.7645
C44_6 C 0.80303(15) 0.96397(12) 0.79785(9)
H26_6 H 0.7860 0.9650 0.8183
C45_6 C 0.84843(15) 0.96985(12) 0.79953(9)
H27_6 H 0.8621 0.9749 0.8212
C46_6 C 0.87357(11) 0.96820(11) 0.76905(11)
H28_6 H 0.9042 0.9722 0.7702
C47_6 C 0.82664(11) 0.96403(12) 0.51333(9)
C48_6 C 0.83264(11) 0.91851(12) 0.51444(9)
C49_6 C 0.83123(11) 0.89394(11) 0.48370(11)
H29_6 H 0.8353 0.8633 0.4845
C50_6 C 0.82382(12) 0.91490(15) 0.45182(9)
H30_6 H 0.8229 0.8983 0.4311
C51_6 C 0.81781(12) 0.96041(15) 0.45071(9)
H31_6 H 0.8128 0.9745 0.4292
C52_6 C 0.81922(11) 0.98498(11) 0.48145(11)
N1_6 N 0.75696(14) 0.88351(13) 0.64445(10)
N2_6 N 0.79383(14) 0.88690(13) 0.62575(10)
N4_6 N 0.80119(14) 0.85005(14) 0.60667(10)
N7_6 N 0.93089(15) 0.90932(14) 0.64828(12)
N8_6 N 0.89647(14) 0.90164(13) 0.62777(11)
N9_6 N 0.90257(15) 0.86673(14) 0.60692(12)
N11_6 N 0.77737(13) 0.98942(13) 0.62306(10)
N12_6 N 0.74053(14) 0.98370(14) 0.64162(10)
N13_6 N 0.86951(13) 0.95716(13) 0.70381(10)
N14_6 N 0.83438(13) 0.94958(12) 0.68270(10)
N15_6 N 0.79720(13) 0.94807(13) 0.70125(10)
N16_6 N 0.82963(13) 0.97893(12) 0.54692(10)
N17_6 N 0.83674(12) 0.94398(13) 0.56752(10)
N18_6 N 0.83935(13) 0.90708(13) 0.54841(10)
O5_6 O 0.99351(17) 0.97680(17) 0.69530(16)
O6_6 O 0.96326(16) 0.9319(2) 0.73087(14)
O9_6 O 0.74067(17) 0.87106(16) 0.71995(14)
O10_6 O 0.9182(2) 0.8531(2) 0.53412(18)
O11_4 O 0.8705(2) 0.76760(16) 0.57832(14)
O12_4 O 0.84078(18) 0.80385(14) 0.53479(12)
O13_4 O 0.69499(14) 0.95609(17) 0.71587(11)
O14_4 O 0.66355(15) 0.91894(18) 0.67554(14)
H33_6 H 0.945467 0.85631 0.548699
H34_6 H 0.920491 0.825756 0.519522
H35_6 H 0.771412 0.858971 0.720699
H36_6 H 0.732181 0.881931 0.743754
C1_7 C 0.34817(15) 0.22609(14) 0.02758(13)
C5_7 C 0.34995(16) 0.14817(13) 0.02339(14)
H3_7 H 0.3549 0.1205 0.0337
C6_7 C 0.35540(16) 0.18582(18) 0.04267(10)
H4_7 H 0.3641 0.1840 0.0662
C7_7 C 0.3541(3) 0.2684(2) 0.0486(2)
H32_7 H 0.3152 0.0157 0.0193
Zn1_7 Zn 0.336364(17) 0.944969(17) 0.874802(16)
Zn3_7 Zn 0.430294(19) 0.96018(2) 0.817905(17)
C9_7 C 0.53885(13) 0.95091(15) 0.75756(13)
C10_7 C 0.54002(13) 0.93154(16) 0.72512(13)
H5_7 H 0.5140 0.9207 0.7150
C11_7 C 0.57916(17) 0.92802(16) 0.70743(10)
H6_7 H 0.5799 0.9148 0.6853
C12_7 C 0.61715(13) 0.94389(15) 0.72220(12)
C13_7 C 0.61600(14) 0.96326(14) 0.75464(12)
H7_7 H 0.6421 0.9741 0.7647
C14_7 C 0.57685(17) 0.96679(14) 0.77232(10)
H8_7 H 0.5761 0.9800 0.7945
C15_7 C 0.4960(3) 0.9542(3) 0.7784(2)
C16_7 C 0.6612(2) 0.9389(2) 0.70276(19)
C17_7 C 0.26743(13) 0.82130(15) 0.88640(11)
C18_7 C 0.24016(16) 0.84239(12) 0.86248(12)
C19_7 C 0.20210(15) 0.82176(17) 0.85078(12)
H9_7 H 0.1837 0.8360 0.8346
C20_7 C 0.19128(15) 0.78007(18) 0.86299(15)
H10_7 H 0.1655 0.7661 0.8551
C21_7 C 0.21854(19) 0.75900(13) 0.88691(15)
H11_7 H 0.2112 0.7308 0.8952
C22_7 C 0.25662(17) 0.77961(15) 0.89861(12)
H12_7 H 0.2750 0.7654 0.9148
C29_7 C 0.44398(14) 0.85185(18) 0.88626(15)
C30_7 C 0.46209(18) 0.87862(15) 0.86039(14)
C31_7 C 0.50523(19) 0.87179(19) 0.84936(15)
H17_7 H 0.5175 0.8898 0.8319
C32_7 C 0.53027(15) 0.8382(2) 0.8642(2)
H18_7 H 0.5594 0.8336 0.8568
C33_7 C 0.5121(2) 0.81148(17) 0.89007(19)
H19_7 H 0.5291 0.7888 0.9001
C34_7 C 0.4690(2) 0.81829(17) 0.90110(15)
H20_7 H 0.4568 0.8003 0.9185
C41_7 C 0.35331(12) 0.96069(11) 0.76309(9)
C42_7 C 0.30789(12) 0.95482(11) 0.76479(9)
C43_7 C 0.28278(11) 0.95647(11) 0.73433(11)
H25_7 H 0.2521 0.9525 0.7355
C44_7 C 0.30303(15) 0.96397(12) 0.70215(9)
H26_7 H 0.2860 0.9650 0.6817
C45_7 C 0.34843(15) 0.96985(12) 0.70047(9)
H27_7 H 0.3621 0.9749 0.6788
C46_7 C 0.37357(11) 0.96820(11) 0.73095(11)
H28_7 H 0.4042 0.9722 0.7298
C47_7 C 0.32664(11) 0.96403(12) 0.98667(9)
C48_7 C 0.33264(11) 0.91851(12) 0.98556(9)
N1_7 N 0.25696(14) 0.88351(13) 0.85555(10)
N2_7 N 0.29383(14) 0.88690(13) 0.87425(10)
N4_7 N 0.30119(14) 0.85005(14) 0.89333(10)
N7_7 N 0.43089(15) 0.90932(14) 0.85172(12)
N8_7 N 0.39647(14) 0.90164(13) 0.87223(11)
N9_7 N 0.40257(15) 0.86673(14) 0.89308(12)
N11_7 N 0.27737(13) 0.98942(13) 0.87694(10)
N12_7 N 0.24053(14) 0.98370(14) 0.85838(10)
N13_7 N 0.36951(13) 0.95716(13) 0.79619(10)
N14_7 N 0.33438(13) 0.94958(12) 0.81730(10)
N15_7 N 0.29720(13) 0.94807(13) 0.79875(10)
N16_7 N 0.32963(13) 0.97893(12) 0.95308(10)
N17_7 N 0.33674(12) 0.94398(13) 0.93248(10)
N18_7 N 0.33935(13) 0.90708(13) 0.95159(10)
O5_7 O 0.49351(17) 0.97680(17) 0.80470(16)
O6_7 O 0.46326(16) 0.9319(2) 0.76913(14)
O9_7 O 0.24067(17) 0.87106(16) 0.78005(14)
O10_7 O 0.4182(2) 0.8531(2) 0.96588(18)
H33_7 H 0.445467 0.85631 0.951301
H34_7 H 0.420491 0.825756 0.980478
H35_7 H 0.271412 0.858971 0.779301
H36_7 H 0.232181 0.881931 0.756246
C9_8 C 0.03885(13) 0.45091(15) 0.25756(13)
C10_8 C 0.04002(13) 0.43154(16) 0.22512(13)
H5_8 H 0.0140 0.4207 0.2150
C11_8 C 0.07916(17) 0.42802(16) 0.20743(10)
H6_8 H 0.0799 0.4148 0.1853
C12_8 C 0.11715(13) 0.44389(15) 0.22220(12)
C13_8 C 0.11600(14) 0.46326(14) 0.25464(12)
H7_8 H 0.1421 0.4741 0.2647
C14_8 C 0.07685(17) 0.46679(14) 0.27232(10)
H8_8 H 0.0761 0.4800 0.2945
C16_8 C 0.1612(2) 0.4389(2) 0.20276(19)
H15_5 H 0.0024 0.6300 0.3479
C31_8 C 0.00523(19) 0.37179(19) 0.34936(15)
H17_8 H 0.0175 0.3898 0.3319
C32_8 C 0.03027(15) 0.3382(2) 0.3642(2)
H18_8 H 0.0594 0.3336 0.3568
C33_8 C 0.0121(2) 0.31148(17) 0.39007(19)
H19_8 H 0.0291 0.2888 0.4001
Zn1_8 Zn 0.836364(17) 0.444969(17) 0.374802(16)
Zn2_7 Zn 0.82594(2) 0.540238(18) 0.430982(16)
Zn3_8 Zn 0.930294(19) 0.46018(2) 0.317905(17)
C1_8 C 0.84817(15) 0.72609(14) 0.52758(13)
C2_7 C 0.83550(16) 0.72873(13) 0.49318(13)
H1_7 H 0.8306 0.7564 0.4829
C3_7 C 0.83003(16) 0.69107(17) 0.47391(11)
H2_7 H 0.8213 0.6929 0.4504
C4_7 C 0.83727(15) 0.65080(14) 0.48899(14)
C5_8 C 0.84995(16) 0.64817(13) 0.52339(14)
H3_8 H 0.8549 0.6205 0.5337
C6_8 C 0.85540(16) 0.68582(18) 0.54267(10)
H4_8 H 0.8641 0.6840 0.5662
C7_8 C 0.8541(3) 0.7684(2) 0.5486(2)
C8_7 C 0.8303(3) 0.6080(3) 0.4672(2)
C15_8 C 0.9960(3) 0.4542(3) 0.2784(2)
C17_8 C 0.76743(13) 0.32130(15) 0.38640(11)
C18_8 C 0.74016(16) 0.34239(12) 0.36248(12)
C19_8 C 0.70210(15) 0.32176(17) 0.35078(12)
H9_8 H 0.6837 0.3360 0.3346
C20_8 C 0.69128(15) 0.28007(18) 0.36299(15)
H10_8 H 0.6655 0.2661 0.3551
C21_8 C 0.71854(19) 0.25900(13) 0.38691(15)
H11_8 H 0.7112 0.2308 0.3952
C22_8 C 0.75662(17) 0.27961(15) 0.39861(12)
H12_8 H 0.7750 0.2654 0.4148
C23_7 C 0.93349(16) 0.54844(13) 0.36069(12)
C24_7 C 0.90766(14) 0.56800(16) 0.38694(12)
C25_7 C 0.91731(17) 0.61077(17) 0.39856(12)
H13_7 H 0.9000 0.6238 0.4161
C26_7 C 0.9528(2) 0.63399(15) 0.38396(16)
H14_7 H 0.9593 0.6626 0.3917
C27_7 C 0.97863(16) 0.61445(18) 0.35771(15)
C28_7 C 0.96896(15) 0.57168(18) 0.34609(12)
H16_7 H 0.9862 0.5586 0.3286
C29_8 C 0.94398(14) 0.35185(18) 0.38626(15)
C30_8 C 0.96209(18) 0.37862(15) 0.36039(14)
C34_8 C 0.9690(2) 0.31829(17) 0.40110(15)
H20_8 H 0.9568 0.3003 0.4185
C35_7 C 0.71375(16) 0.51833(13) 0.36669(11)
C36_7 C 0.73571(13) 0.54476(15) 0.39066(11)
C37_7 C 0.71564(17) 0.58248(14) 0.40355(11)
H21_7 H 0.7305 0.6004 0.4198
C38_7 C 0.67362(18) 0.59378(14) 0.39247(14)
H22_7 H 0.6600 0.6193 0.4012
C39_7 C 0.65167(13) 0.56735(19) 0.36850(14)
H23_7 H 0.6232 0.5750 0.3610
C40_7 C 0.67172(16) 0.52963(17) 0.35561(11)
H24_7 H 0.6569 0.5118 0.3394
C41_8 C 0.85331(12) 0.46069(11) 0.26309(9)
C42_8 C 0.80789(12) 0.45482(11) 0.26479(9)
C43_8 C 0.78278(11) 0.45647(11) 0.23433(11)
H25_8 H 0.7521 0.4525 0.2355
C44_8 C 0.80303(15) 0.46397(12) 0.20215(9)
H26_8 H 0.7860 0.4650 0.1817
C45_8 C 0.84843(15) 0.46985(12) 0.20047(9)
H27_8 H 0.8621 0.4749 0.1788
C46_8 C 0.87357(11) 0.46820(11) 0.23095(11)
H28_8 H 0.9042 0.4722 0.2298
C47_8 C 0.82664(11) 0.46403(12) 0.48667(9)
C48_8 C 0.83264(11) 0.41851(12) 0.48556(9)
C49_7 C 0.83123(11) 0.39394(11) 0.51630(11)
H29_7 H 0.8353 0.3633 0.5155
C50_7 C 0.82382(12) 0.41490(15) 0.54818(9)
H30_7 H 0.8229 0.3983 0.5689
C51_7 C 0.81781(12) 0.46041(15) 0.54929(9)
H31_7 H 0.8128 0.4745 0.5708
C52_7 C 0.81922(11) 0.48498(11) 0.51855(11)
H32_8 H 0.8152 0.5157 0.5193
N1_8 N 0.75696(14) 0.38351(13) 0.35555(10)
N2_8 N 0.79383(14) 0.38690(13) 0.37425(10)
N3_7 N 0.91561(14) 0.50890(14) 0.35376(11)
N4_8 N 0.80119(14) 0.35005(14) 0.39333(10)
N5_7 N 0.88097(13) 0.50376(13) 0.37525(11)
N6_7 N 0.87643(14) 0.53888(14) 0.39610(11)
N7_8 N 0.93089(15) 0.40932(14) 0.35172(12)
N8_8 N 0.89647(14) 0.40164(13) 0.37223(11)
N9_8 N 0.90257(15) 0.36673(14) 0.39308(12)
N10_7 N 0.77553(14) 0.52628(14) 0.39672(10)
N11_8 N 0.77737(13) 0.48942(13) 0.37694(10)
N12_8 N 0.74053(14) 0.48370(14) 0.35838(10)
N13_8 N 0.86951(13) 0.45716(13) 0.29619(10)
N14_8 N 0.83438(13) 0.44958(12) 0.31730(10)
N15_8 N 0.79720(13) 0.44807(13) 0.29875(10)
N16_8 N 0.82963(13) 0.47893(12) 0.45308(10)
N17_8 N 0.83674(12) 0.44398(13) 0.43248(10)
N18_8 N 0.83935(13) 0.40708(13) 0.45159(10)
O3_7 O 0.8441(3) 0.57348(15) 0.47785(14)
O4_7 O 0.8148(2) 0.61016(19) 0.43808(18)
O5_8 O 0.99351(17) 0.47680(17) 0.30470(16)
O6_8 O 0.96326(16) 0.4319(2) 0.26913(14)
O9_8 O 0.74067(17) 0.37106(16) 0.28005(14)
O10_8 O 0.9182(2) 0.3531(2) 0.46588(18)
H33_8 H 0.945467 0.35631 0.451301
H34_8 H 0.920491 0.325756 0.480478
H35_8 H 0.771412 0.358971 0.279301
H36_8 H 0.732181 0.381931 0.256246
H1_8 H 0.0064 0.9194 0.2671
C7_9 C 0.0184(2) 0.8959(3) 0.2014(2)
O1_5 O 0.01760(16) 0.8795(2) 0.17168(14)
O2_5 O 0.05385(14) 0.90922(18) 0.21521(12)
Zn6_5 Zn 0.097858(19) 0.89483(2) 0.178530(17)
Zn5_5 Zn 0.68112(2) 0.012555(19) 0.428921(17)
C18_9 C 0.59239(12) 0.00984(16) 0.38752(12)
C19_9 C 0.57176(17) 0.04790(15) 0.39922(12)
H9_9 H 0.5860 0.0663 0.4154
C20_9 C 0.53007(18) 0.05872(15) 0.38701(15)
H10_9 H 0.5161 0.0845 0.3949
C21_9 C 0.50900(13) 0.03146(19) 0.36309(15)
H11_9 H 0.4808 0.0388 0.3548
C35_8 C 0.76833(13) 0.03625(16) 0.38331(11)
C36_8 C 0.79476(15) 0.01429(13) 0.35934(11)
C37_8 C 0.83248(14) 0.03436(17) 0.34645(11)
H21_8 H 0.8504 0.0195 0.3302
C38_8 C 0.84378(14) 0.07638(18) 0.35753(14)
H22_8 H 0.8693 0.0900 0.3488
C39_8 C 0.81735(19) 0.09833(13) 0.38150(14)
H23_8 H 0.8250 0.1268 0.3890
C40_8 C 0.77963(17) 0.07828(16) 0.39439(11)
H24_8 H 0.7618 0.0931 0.4106
N12_9 N 0.73370(14) 0.00947(14) 0.39162(10)
O9_9 O 0.62106(16) 0.00933(17) 0.46995(14)
O13_5 O 0.70609(17) 0.05501(14) 0.46587(11)
O14_5 O 0.66894(18) 0.08645(15) 0.42554(14)
H36_9 H 0.631931 0.0178193 0.493754
Zn1_9 Zn 0.694969(17) 0.913636(17) 0.375198(16)
Zn2_8 Zn 0.790238(18) 0.92406(2) 0.319018(16)
Zn3_9 Zn 0.71018(2) 0.819706(19) 0.432095(17)
Zn4_5 Zn 0.597858(19) 0.89483(2) 0.321470(17)
C1_9 C 0.97609(14) 0.90183(15) 0.22242(13)
C2_8 C 0.97873(13) 0.91450(16) 0.25682(13)
C3_8 C 0.94107(17) 0.91997(16) 0.27609(11)
H2_8 H 0.9429 0.9287 0.2996
C4_8 C 0.90080(14) 0.91273(15) 0.26101(14)
C5_9 C 0.89817(13) 0.90005(16) 0.22661(14)
H3_9 H 0.8705 0.8951 0.2163
C6_9 C 0.93582(18) 0.89460(16) 0.20733(10)
H4_9 H 0.9340 0.8859 0.1838
C8_8 C 0.8580(3) 0.9197(3) 0.2828(2)
C9_9 C 0.70091(15) 0.71115(13) 0.49244(13)
C10_9 C 0.68154(16) 0.70998(13) 0.52488(13)
H5_9 H 0.6707 0.7360 0.5350
C11_9 C 0.67802(16) 0.67084(17) 0.54257(10)
H6_9 H 0.6648 0.6701 0.5647
C12_9 C 0.69389(15) 0.63285(13) 0.52780(12)
C13_9 C 0.71326(14) 0.63400(14) 0.49536(12)
H7_9 H 0.7241 0.6079 0.4853
C14_9 C 0.71679(14) 0.67315(17) 0.47768(10)
H8_9 H 0.7300 0.6739 0.4555
C15_9 C 0.7042(3) 0.7540(3) 0.4716(2)
C16_9 C 0.6889(2) 0.5888(2) 0.54724(19)
C17_9 C 0.57130(15) 0.98257(13) 0.36360(11)
C22_9 C 0.52961(15) 0.99338(17) 0.35139(12)
H12_9 H 0.5154 0.9750 0.3352
C23_8 C 0.79844(13) 0.81651(16) 0.38931(12)
C24_8 C 0.81800(16) 0.84234(14) 0.36306(12)
C25_8 C 0.86077(17) 0.83269(17) 0.35144(12)
H13_8 H 0.8738 0.8500 0.3339
C26_8 C 0.88399(15) 0.7972(2) 0.36604(16)
H14_8 H 0.9126 0.7907 0.3583
C27_8 C 0.86445(18) 0.77137(16) 0.39229(15)
H15_6 H 0.8800 0.7476 0.4021
C28_8 C 0.82168(18) 0.78104(15) 0.40391(12)
H16_8 H 0.8086 0.7638 0.4214
C29_9 C 0.60185(18) 0.80602(14) 0.36374(15)
C30_9 C 0.62862(15) 0.78791(18) 0.38961(14)
C31_9 C 0.62179(19) 0.74477(19) 0.40064(15)
H17_9 H 0.6398 0.7325 0.4181
C32_9 C 0.5882(2) 0.71973(15) 0.3858(2)
H18_9 H 0.5836 0.6906 0.3932
C33_9 C 0.56148(17) 0.7379(2) 0.35993(19)
H19_9 H 0.5388 0.7209 0.3499
C34_9 C 0.56829(17) 0.7810(2) 0.34890(15)
H20_9 H 0.5503 0.7932 0.3315
C41_9 C 0.71069(11) 0.89669(12) 0.48691(9)
C42_9 C 0.70482(11) 0.94211(12) 0.48521(9)
C43_9 C 0.70647(11) 0.96722(11) 0.51567(11)
H25_9 H 0.7025 0.9979 0.5145
C44_9 C 0.71397(12) 0.94697(15) 0.54785(9)
H26_9 H 0.7150 0.9640 0.5683
C45_9 C 0.71985(12) 0.90157(15) 0.54953(9)
H27_9 H 0.7249 0.8879 0.5712
C46_9 C 0.71820(11) 0.87643(11) 0.51905(11)
H28_9 H 0.7222 0.8458 0.5202
C47_9 C 0.71403(12) 0.92336(11) 0.26333(9)
C48_9 C 0.66851(12) 0.91736(11) 0.26444(9)
C49_8 C 0.64394(11) 0.91877(11) 0.23370(11)
H29_8 H 0.6133 0.9147 0.2345
C50_8 C 0.66490(15) 0.92618(12) 0.20182(9)
H30_8 H 0.6483 0.9271 0.1811
C51_8 C 0.71041(15) 0.93219(12) 0.20071(9)
H31_8 H 0.7245 0.9372 0.1792
C52_8 C 0.73498(11) 0.93078(11) 0.23145(11)
H32_9 H 0.7657 0.9348 0.2307
N1_9 N 0.63351(13) 0.99304(14) 0.39445(10)
N2_9 N 0.63690(13) 0.95617(14) 0.37575(10)
N3_8 N 0.75890(14) 0.83439(14) 0.39624(11)
N4_9 N 0.60005(14) 0.94881(14) 0.35667(10)
N5_8 N 0.75376(13) 0.86903(13) 0.37475(11)
N6_8 N 0.78888(14) 0.87357(14) 0.35390(11)
N7_9 N 0.65932(14) 0.81911(15) 0.39828(12)
N8_9 N 0.65164(13) 0.85353(14) 0.37777(11)
N9_9 N 0.61673(14) 0.84743(15) 0.35692(12)
N10_8 N 0.77628(14) 0.97447(14) 0.35328(10)
N11_9 N 0.73942(13) 0.97263(13) 0.37306(10)
N13_9 N 0.70716(13) 0.88049(13) 0.45381(10)
N14_9 N 0.69958(12) 0.91562(13) 0.43270(10)
N15_9 N 0.69807(13) 0.95280(13) 0.45125(10)
N16_9 N 0.72893(12) 0.92037(13) 0.29692(10)
N17_9 N 0.69398(13) 0.91326(12) 0.31752(10)
N18_9 N 0.65708(13) 0.91065(13) 0.29841(10)
O3_8 O 0.82348(15) 0.9059(3) 0.27215(14)
O4_8 O 0.86016(19) 0.9352(2) 0.31192(18)
O5_9 O 0.72680(17) 0.75649(17) 0.44530(16)
O6_9 O 0.6819(2) 0.78674(16) 0.48087(14)
O7_5 O 0.70609(17) 0.55501(14) 0.53413(11)
O8_5 O 0.66894(18) 0.58645(15) 0.57446(14)
O10_9 O 0.6031(2) 0.8318(2) 0.28412(18)
Zn7_5 Zn 0.68112(2) 0.512555(19) 0.571079(17)
O11_5 O 0.51760(16) 0.8795(2) 0.32832(14)
O12_5 O 0.55385(14) 0.90922(18) 0.28479(12)
H33_9 H 0.60631 0.804533 0.298699
H34_9 H 0.575756 0.829509 0.269522
H35_9 H 0.608971 0.978588 0.470699
Zn1_10 Zn 0.194969(17) 0.413636(17) 0.875198(16)
Zn2_9 Zn 0.290238(18) 0.42406(2) 0.819018(16)
Zn3_10 Zn 0.21018(2) 0.319706(19) 0.932095(17)
Zn4_6 Zn 0.097858(19) 0.39483(2) 0.821470(17)
Zn5_6 Zn 0.18112(2) 0.512555(19) 0.928921(17)
C1_10 C 0.47609(14) 0.40183(15) 0.72242(13)
C2_9 C 0.47873(13) 0.41450(16) 0.75682(13)
H1_9 H 0.5064 0.4194 0.7671
C3_9 C 0.44107(17) 0.41997(16) 0.77609(11)
H2_9 H 0.4429 0.4287 0.7996
C4_9 C 0.40080(14) 0.41273(15) 0.76101(14)
C5_10 C 0.39817(13) 0.40005(16) 0.72661(14)
H3_10 H 0.3705 0.3951 0.7163
C6_10 C 0.43582(18) 0.39460(16) 0.70733(10)
H4_10 H 0.4340 0.3859 0.6838
C7_10 C 0.5184(2) 0.3959(3) 0.7014(2)
C8_9 C 0.3580(3) 0.4197(3) 0.7828(2)
C9_10 C 0.20091(15) 0.21115(13) 0.99244(13)
C13_10 C 0.21326(14) 0.13400(14) 0.99536(12)
H7_10 H 0.2241 0.1079 0.9853
C14_10 C 0.21679(14) 0.17315(17) 0.97768(10)
H8_10 H 0.2300 0.1739 0.9555
C15_10 C 0.2042(3) 0.2540(3) 0.9716(2)
C17_10 C 0.07130(15) 0.48257(13) 0.86360(11)
C18_10 C 0.09239(12) 0.50984(16) 0.88752(12)
C19_10 C 0.07176(17) 0.54790(15) 0.89922(12)
H9_10 H 0.0860 0.5663 0.9154
C20_10 C 0.03007(18) 0.55872(15) 0.88701(15)
H10_10 H 0.0161 0.5845 0.8949
C21_10 C 0.00900(13) 0.53146(19) 0.86309(15)
C22_10 C 0.02961(15) 0.49338(17) 0.85139(12)
H12_10 H 0.0154 0.4750 0.8352
C23_9 C 0.29844(13) 0.31651(16) 0.88931(12)
C24_9 C 0.31800(16) 0.34234(14) 0.86306(12)
C25_9 C 0.36077(17) 0.33269(17) 0.85144(12)
H13_9 H 0.3738 0.3500 0.8339
C26_9 C 0.38399(15) 0.2972(2) 0.86604(16)
H14_9 H 0.4126 0.2907 0.8583
C27_9 C 0.36445(18) 0.27137(16) 0.89229(15)
H15_7 H 0.3800 0.2476 0.9021
C28_9 C 0.32168(18) 0.28104(15) 0.90391(12)
H16_9 H 0.3086 0.2638 0.9214
C29_10 C 0.10185(18) 0.30602(14) 0.86374(15)
C30_10 C 0.12862(15) 0.28791(18) 0.88961(14)
C31_10 C 0.12179(19) 0.24477(19) 0.90064(15)
H17_10 H 0.1398 0.2325 0.9181
C32_10 C 0.0882(2) 0.21973(15) 0.8858(2)
H18_10 H 0.0836 0.1906 0.8932
C33_10 C 0.06148(17) 0.2379(2) 0.85993(19)
H19_10 H 0.0388 0.2209 0.8499
C34_10 C 0.06829(17) 0.2810(2) 0.84890(15)
H20_10 H 0.0503 0.2932 0.8315
C35_9 C 0.26833(13) 0.53625(16) 0.88331(11)
C36_9 C 0.29476(15) 0.51429(13) 0.85934(11)
C37_9 C 0.33248(14) 0.53436(17) 0.84645(11)
H21_9 H 0.3504 0.5195 0.8302
C38_9 C 0.34378(14) 0.57638(18) 0.85753(14)
H22_9 H 0.3693 0.5900 0.8488
C39_9 C 0.31735(19) 0.59833(13) 0.88150(14)
H23_9 H 0.3250 0.6268 0.8890
C40_9 C 0.27963(17) 0.57828(16) 0.89439(11)
H24_9 H 0.2618 0.5931 0.9106
C41_10 C 0.21069(11) 0.39669(12) 0.98691(9)
C42_10 C 0.20482(11) 0.44211(12) 0.98521(9)
C47_10 C 0.21403(12) 0.42336(11) 0.76333(9)
C48_10 C 0.16851(12) 0.41736(11) 0.76444(9)
C49_9 C 0.14394(11) 0.41877(11) 0.73370(11)
H29_9 H 0.1133 0.4147 0.7345
C50_9 C 0.16490(15) 0.42618(12) 0.70182(9)
H30_9 H 0.1483 0.4271 0.6811
C51_9 C 0.21041(15) 0.43219(12) 0.70071(9)
H31_9 H 0.2245 0.4372 0.6792
C52_9 C 0.23498(11) 0.43078(11) 0.73145(11)
H32_10 H 0.2657 0.4348 0.7307
N1_10 N 0.13351(13) 0.49304(14) 0.89445(10)
N2_10 N 0.13690(13) 0.45617(14) 0.87575(10)
N3_9 N 0.25890(14) 0.33439(14) 0.89624(11)
N4_10 N 0.10005(14) 0.44881(14) 0.85667(10)
N5_9 N 0.25376(13) 0.36903(13) 0.87475(11)
N6_9 N 0.28888(14) 0.37357(14) 0.85390(11)
N7_10 N 0.15932(14) 0.31911(15) 0.89828(12)
N8_10 N 0.15164(13) 0.35353(14) 0.87777(11)
N9_10 N 0.11673(14) 0.34743(15) 0.85692(12)
N10_9 N 0.27628(14) 0.47447(14) 0.85328(10)
N11_10 N 0.23942(13) 0.47263(13) 0.87306(10)
N12_10 N 0.23370(14) 0.50947(14) 0.89162(10)
N13_10 N 0.20716(13) 0.38049(13) 0.95381(10)
N14_10 N 0.19958(12) 0.41562(13) 0.93270(10)
N15_10 N 0.19807(13) 0.45280(13) 0.95125(10)
N16_10 N 0.22893(12) 0.42037(13) 0.79692(10)
N17_10 N 0.19398(13) 0.41326(12) 0.81752(10)
N18_10 N 0.15708(13) 0.41065(13) 0.79841(10)
O1_6 O 0.51760(16) 0.3795(2) 0.67168(14)
O2_6 O 0.55385(14) 0.40922(18) 0.71521(12)
O3_9 O 0.32348(15) 0.4059(3) 0.77215(14)
O4_9 O 0.36016(19) 0.4352(2) 0.81192(18)
O5_10 O 0.22680(17) 0.25649(17) 0.94530(16)
O6_10 O 0.1819(2) 0.28674(16) 0.98087(14)
O9_10 O 0.12106(16) 0.50933(17) 0.96995(14)
O10_10 O 0.1031(2) 0.3318(2) 0.78412(18)
Zn6_6 Zn 0.597858(19) 0.39483(2) 0.678530(17)
O11_6 O 0.01760(16) 0.3795(2) 0.82832(14)
O12_6 O 0.05385(14) 0.40922(18) 0.78479(12)
O13_6 O 0.20609(17) 0.55501(14) 0.96587(11)
O14_6 O 0.16894(18) 0.58645(15) 0.92554(14)
H33_10 H 0.10631 0.304533 0.798699
H34_10 H 0.0757558 0.329509 0.769522
H35_10 H 0.108971 0.478588 0.970699
H36_10 H 0.131931 0.517819 0.993754
H1_10 H 0.0064 0.4194 0.7329
C7_11 C 0.0184(2) 0.3959(3) 0.7986(2)
Zn1_11 Zn 0.694969(17) 0.413636(17) 0.624802(16)
Zn2_10 Zn 0.790238(18) 0.42406(2) 0.680982(16)
Zn3_11 Zn 0.71018(2) 0.319706(19) 0.567905(17)
C1_11 C 0.97609(14) 0.40183(15) 0.77758(13)
C2_10 C 0.97873(13) 0.41450(16) 0.74318(13)
C3_10 C 0.94107(17) 0.41997(16) 0.72391(11)
H2_10 H 0.9429 0.4287 0.7004
C4_10 C 0.90080(14) 0.41273(15) 0.73899(14)
C5_11 C 0.89817(13) 0.40005(16) 0.77339(14)
H3_11 H 0.8705 0.3951 0.7837
C6_11 C 0.93582(18) 0.39460(16) 0.79267(10)
H4_11 H 0.9340 0.3859 0.8162
C8_10 C 0.8580(3) 0.4197(3) 0.7172(2)
C9_11 C 0.70091(15) 0.21115(13) 0.50756(13)
C10_10 C 0.68154(16) 0.20998(13) 0.47512(13)
H5_10 H 0.6707 0.2360 0.4650
C11_10 C 0.67802(16) 0.17084(17) 0.45743(10)
H6_10 H 0.6648 0.1701 0.4353
C12_10 C 0.69389(15) 0.13285(13) 0.47220(12)
C13_11 C 0.71326(14) 0.13400(14) 0.50464(12)
H7_11 H 0.7241 0.1079 0.5147
C14_11 C 0.71679(14) 0.17315(17) 0.52232(10)
H8_11 H 0.7300 0.1739 0.5445
C15_11 C 0.7042(3) 0.2540(3) 0.5284(2)
C16_10 C 0.6889(2) 0.0888(2) 0.45276(19)
C17_11 C 0.57130(15) 0.48257(13) 0.63640(11)
C18_11 C 0.59239(12) 0.50984(16) 0.61248(12)
C19_11 C 0.57176(17) 0.54790(15) 0.60078(12)
H9_11 H 0.5860 0.5663 0.5846
C20_11 C 0.53007(18) 0.55872(15) 0.61299(15)
H10_11 H 0.5161 0.5845 0.6051
C21_11 C 0.50900(13) 0.53146(19) 0.63691(15)
H11_10 H 0.4808 0.5388 0.6452
C22_11 C 0.52961(15) 0.49338(17) 0.64861(12)
H12_11 H 0.5154 0.4750 0.6648
C23_10 C 0.79844(13) 0.31651(16) 0.61069(12)
C24_10 C 0.81800(16) 0.34234(14) 0.63694(12)
C25_10 C 0.86077(17) 0.33269(17) 0.64856(12)
H13_10 H 0.8738 0.3500 0.6661
C26_10 C 0.88399(15) 0.2972(2) 0.63396(16)
H14_10 H 0.9126 0.2907 0.6417
C27_10 C 0.86445(18) 0.27137(16) 0.60771(15)
H15_8 H 0.8800 0.2476 0.5979
C28_10 C 0.82168(18) 0.28104(15) 0.59609(12)
H16_10 H 0.8086 0.2638 0.5786
C29_11 C 0.60185(18) 0.30602(14) 0.63626(15)
C30_11 C 0.62862(15) 0.28791(18) 0.61039(14)
C31_11 C 0.62179(19) 0.24477(19) 0.59936(15)
H17_11 H 0.6398 0.2325 0.5819
C32_11 C 0.5882(2) 0.21973(15) 0.6142(2)
H18_11 H 0.5836 0.1906 0.6068
C33_11 C 0.56148(17) 0.2379(2) 0.64007(19)
H19_11 H 0.5388 0.2209 0.6501
C34_11 C 0.56829(17) 0.2810(2) 0.65110(15)
H20_11 H 0.5503 0.2932 0.6685
C35_10 C 0.76833(13) 0.53625(16) 0.61669(11)
C36_10 C 0.79476(15) 0.51429(13) 0.64066(11)
C37_10 C 0.83248(14) 0.53436(17) 0.65355(11)
H21_10 H 0.8504 0.5195 0.6698
C38_10 C 0.84378(14) 0.57638(18) 0.64247(14)
H22_10 H 0.8693 0.5900 0.6512
C39_10 C 0.81735(19) 0.59833(13) 0.61850(14)
H23_10 H 0.8250 0.6268 0.6110
C40_10 C 0.77963(17) 0.57828(16) 0.60561(11)
H24_10 H 0.7618 0.5931 0.5894
C41_11 C 0.71069(11) 0.39669(12) 0.51309(9)
C42_11 C 0.70482(11) 0.44211(12) 0.51479(9)
C43_10 C 0.70647(11) 0.46722(11) 0.48433(11)
H25_10 H 0.7025 0.4979 0.4855
C44_10 C 0.71397(12) 0.44697(15) 0.45215(9)
H26_10 H 0.7150 0.4640 0.4317
C45_10 C 0.71985(12) 0.40157(15) 0.45047(9)
H27_10 H 0.7249 0.3879 0.4288
C46_10 C 0.71820(11) 0.37643(11) 0.48095(11)
H28_10 H 0.7222 0.3458 0.4798
C47_11 C 0.71403(12) 0.42336(11) 0.73667(9)
C48_11 C 0.66851(12) 0.41736(11) 0.73556(9)
C49_10 C 0.64394(11) 0.41877(11) 0.76630(11)
H29_10 H 0.6133 0.4147 0.7655
C50_10 C 0.66490(15) 0.42618(12) 0.79818(9)
H30_10 H 0.6483 0.4271 0.8189
C51_10 C 0.71041(15) 0.43219(12) 0.79929(9)
H31_10 H 0.7245 0.4372 0.8208
C52_10 C 0.73498(11) 0.43078(11) 0.76855(11)
H32_11 H 0.7657 0.4348 0.7693
N1_11 N 0.63351(13) 0.49304(14) 0.60555(10)
N2_11 N 0.63690(13) 0.45617(14) 0.62425(10)
N3_10 N 0.75890(14) 0.33439(14) 0.60376(11)
N4_11 N 0.60005(14) 0.44881(14) 0.64333(10)
N5_10 N 0.75376(13) 0.36903(13) 0.62525(11)
N6_10 N 0.78888(14) 0.37357(14) 0.64610(11)
N7_11 N 0.65932(14) 0.31911(15) 0.60172(12)
N8_11 N 0.65164(13) 0.35353(14) 0.62223(11)
N9_11 N 0.61673(14) 0.34743(15) 0.64308(12)
N10_10 N 0.77628(14) 0.47447(14) 0.64672(10)
N11_11 N 0.73942(13) 0.47263(13) 0.62694(10)
N12_11 N 0.73370(14) 0.50947(14) 0.60838(10)
N13_11 N 0.70716(13) 0.38049(13) 0.54619(10)
N14_11 N 0.69958(12) 0.41562(13) 0.56730(10)
N15_11 N 0.69807(13) 0.45280(13) 0.54875(10)
N16_11 N 0.72893(12) 0.42037(13) 0.70308(10)
N17_11 N 0.69398(13) 0.41326(12) 0.68248(10)
N18_11 N 0.65708(13) 0.41065(13) 0.70159(10)
O3_10 O 0.82348(15) 0.4059(3) 0.72785(14)
O4_10 O 0.86016(19) 0.4352(2) 0.68808(18)
O5_11 O 0.72680(17) 0.25649(17) 0.55470(16)
O6_11 O 0.6819(2) 0.28674(16) 0.51913(14)
O9_11 O 0.62106(16) 0.50933(17) 0.53005(14)
O10_11 O 0.6031(2) 0.3318(2) 0.71588(18)
H33_11 H 0.60631 0.304533 0.701301
H34_11 H 0.575756 0.329509 0.730478
H35_11 H 0.608971 0.478588 0.529301
H36_11 H 0.631931 0.517819 0.506246
Zn1_12 Zn 0.194969(17) 0.913636(17) 0.124802(16)
Zn2_11 Zn 0.290238(18) 0.92406(2) 0.180982(16)
Zn3_12 Zn 0.21018(2) 0.819706(19) 0.067905(17)
C1_12 C 0.47609(14) 0.90183(15) 0.27758(13)
C2_11 C 0.47873(13) 0.91450(16) 0.24318(13)
H1_11 H 0.5064 0.9194 0.2329
C3_11 C 0.44107(17) 0.91997(16) 0.22391(11)
H2_11 H 0.4429 0.9287 0.2004
C4_11 C 0.40080(14) 0.91273(15) 0.23899(14)
C5_12 C 0.39817(13) 0.90005(16) 0.27339(14)
H3_12 H 0.3705 0.8951 0.2837
C6_12 C 0.43582(18) 0.89460(16) 0.29267(10)
H4_12 H 0.4340 0.8859 0.3162
C7_12 C 0.5184(2) 0.8959(3) 0.2986(2)
C8_11 C 0.3580(3) 0.9197(3) 0.2172(2)
C9_12 C 0.20091(15) 0.71115(13) 0.00756(13)
C13_12 C 0.21326(14) 0.63400(14) 0.00464(12)
H7_12 H 0.2241 0.6079 0.0147
C14_12 C 0.21679(14) 0.67315(17) 0.02232(10)
H8_12 H 0.2300 0.6739 0.0445
C15_12 C 0.2042(3) 0.7540(3) 0.0284(2)
C17_12 C 0.07130(15) 0.98257(13) 0.13640(11)
C22_12 C 0.02961(15) 0.99338(17) 0.14861(12)
H12_12 H 0.0154 0.9750 0.1648
C23_11 C 0.29844(13) 0.81651(16) 0.11069(12)
C24_11 C 0.31800(16) 0.84234(14) 0.13694(12)
C25_11 C 0.36077(17) 0.83269(17) 0.14856(12)
H13_11 H 0.3738 0.8500 0.1661
C26_11 C 0.38399(15) 0.7972(2) 0.13396(16)
H14_11 H 0.4126 0.7907 0.1417
C27_11 C 0.36445(18) 0.77137(16) 0.10771(15)
H15_9 H 0.3800 0.7476 0.0979
C28_11 C 0.32168(18) 0.78104(15) 0.09609(12)
H16_11 H 0.3086 0.7638 0.0786
C29_12 C 0.10185(18) 0.80602(14) 0.13626(15)
C30_12 C 0.12862(15) 0.78791(18) 0.11039(14)
C31_12 C 0.12179(19) 0.74477(19) 0.09936(15)
H17_12 H 0.1398 0.7325 0.0819
C32_12 C 0.0882(2) 0.71973(15) 0.1142(2)
H18_12 H 0.0836 0.6906 0.1068
C33_12 C 0.06148(17) 0.7379(2) 0.14007(19)
H19_12 H 0.0388 0.7209 0.1501
C34_12 C 0.06829(17) 0.7810(2) 0.15110(15)
H20_12 H 0.0503 0.7932 0.1685
C41_12 C 0.21069(11) 0.89669(12) 0.01309(9)
C42_12 C 0.20482(11) 0.94211(12) 0.01479(9)
C47_12 C 0.21403(12) 0.92336(11) 0.23667(9)
C48_12 C 0.16851(12) 0.91736(11) 0.23556(9)
C49_11 C 0.14394(11) 0.91877(11) 0.26630(11)
H29_11 H 0.1133 0.9147 0.2655
C50_11 C 0.16490(15) 0.92618(12) 0.29818(9)
H30_11 H 0.1483 0.9271 0.3189
C51_11 C 0.21041(15) 0.93219(12) 0.29929(9)
H31_11 H 0.2245 0.9372 0.3208
C52_11 C 0.23498(11) 0.93078(11) 0.26855(11)
H32_12 H 0.2657 0.9348 0.2693
N1_12 N 0.13351(13) 0.99304(14) 0.10555(10)
N2_12 N 0.13690(13) 0.95617(14) 0.12425(10)
N3_11 N 0.25890(14) 0.83439(14) 0.10376(11)
N4_12 N 0.10005(14) 0.94881(14) 0.14333(10)
N5_11 N 0.25376(13) 0.86903(13) 0.12525(11)
N6_11 N 0.28888(14) 0.87357(14) 0.14610(11)
N7_12 N 0.15932(14) 0.81911(15) 0.10172(12)
N8_12 N 0.15164(13) 0.85353(14) 0.12223(11)
N9_12 N 0.11673(14) 0.84743(15) 0.14308(12)
N10_11 N 0.27628(14) 0.97447(14) 0.14672(10)
N11_12 N 0.23942(13) 0.97263(13) 0.12694(10)
N13_12 N 0.20716(13) 0.88049(13) 0.04619(10)
N14_12 N 0.19958(12) 0.91562(13) 0.06730(10)
N15_12 N 0.19807(13) 0.95280(13) 0.04875(10)
N16_12 N 0.22893(12) 0.92037(13) 0.20308(10)
N17_12 N 0.19398(13) 0.91326(12) 0.18248(10)
N18_12 N 0.15708(13) 0.91065(13) 0.20159(10)
O3_11 O 0.32348(15) 0.9059(3) 0.22785(14)
O4_11 O 0.36016(19) 0.9352(2) 0.18808(18)
O5_12 O 0.22680(17) 0.75649(17) 0.05470(16)
O6_12 O 0.1819(2) 0.78674(16) 0.01913(14)
O10_12 O 0.1031(2) 0.8318(2) 0.21588(18)
H33_12 H 0.10631 0.804533 0.201301
H34_12 H 0.0757558 0.829509 0.230478
H35_12 H 0.108971 0.978588 0.0293012
C10_11 C 0.18154(16) 0.70998(13) 0.97512(13)
H5_11 H 0.1707 0.7360 0.9650
C11_11 C 0.17802(16) 0.67084(17) 0.95743(10)
H6_11 H 0.1648 0.6701 0.9353
C12_11 C 0.19389(15) 0.63285(13) 0.97220(12)
C16_11 C 0.1889(2) 0.5888(2) 0.95276(19)
C43_11 C 0.20647(11) 0.96722(11) 0.98433(11)
H25_11 H 0.2025 0.9979 0.9855
C44_11 C 0.21397(12) 0.94697(15) 0.95215(9)
H26_11 H 0.2150 0.9640 0.9317
C45_11 C 0.21985(12) 0.90157(15) 0.95047(9)
H27_11 H 0.2249 0.8879 0.9288
C46_11 C 0.21820(11) 0.87643(11) 0.98095(11)
H28_11 H 0.2222 0.8458 0.9798
Zn1_13 Zn 0.305031(17) 0.586364(17) 0.375198(16)
Zn2_12 Zn 0.209762(18) 0.57594(2) 0.319018(16)
Zn3_13 Zn 0.28982(2) 0.680294(19) 0.432095(17)
Zn4_7 Zn 0.402142(19) 0.60517(2) 0.321470(17)
Zn5_7 Zn 0.31888(2) 0.487445(19) 0.428921(17)
C1_13 C 0.02391(14) 0.59817(15) 0.22242(13)
C2_12 C 0.02127(13) 0.58550(16) 0.25682(13)
C3_12 C 0.05893(17) 0.58003(16) 0.27609(11)
H2_12 H 0.0571 0.5713 0.2996
C4_12 C 0.09920(14) 0.58727(15) 0.26101(14)
C5_13 C 0.10183(13) 0.59995(16) 0.22661(14)
H3_13 H 0.1295 0.6049 0.2163
C6_13 C 0.06418(18) 0.60540(16) 0.20733(10)
H4_13 H 0.0660 0.6141 0.1838
C8_12 C 0.1420(3) 0.5803(3) 0.2828(2)
C9_13 C 0.29909(15) 0.78885(13) 0.49244(13)
C10_12 C 0.31846(16) 0.79002(13) 0.52488(13)
H5_12 H 0.3293 0.7640 0.5350
C11_12 C 0.32198(16) 0.82916(17) 0.54257(10)
H6_12 H 0.3352 0.8299 0.5647
C12_12 C 0.30611(15) 0.86715(13) 0.52780(12)
C13_13 C 0.28674(14) 0.86600(14) 0.49536(12)
H7_13 H 0.2759 0.8921 0.4853
C14_13 C 0.28321(14) 0.82685(17) 0.47768(10)
H8_13 H 0.2700 0.8261 0.4555
C15_13 C 0.2958(3) 0.7460(3) 0.4716(2)
C16_12 C 0.3111(2) 0.9112(2) 0.54724(19)
C17_13 C 0.42870(15) 0.51743(13) 0.36360(11)
C18_12 C 0.40761(12) 0.49016(16) 0.38752(12)
C19_12 C 0.42824(17) 0.45210(15) 0.39922(12)
H9_12 H 0.4140 0.4337 0.4154
C20_12 C 0.46993(18) 0.44128(15) 0.38701(15)
H10_12 H 0.4839 0.4155 0.3949
C21_12 C 0.49100(13) 0.46854(19) 0.36309(15)
H11_11 H 0.5192 0.4612 0.3548
C22_13 C 0.47039(15) 0.50662(17) 0.35139(12)
H12_13 H 0.4846 0.5250 0.3352
C23_12 C 0.20156(13) 0.68349(16) 0.38931(12)
C24_12 C 0.18200(16) 0.65766(14) 0.36306(12)
C25_12 C 0.13923(17) 0.66731(17) 0.35144(12)
H13_12 H 0.1262 0.6500 0.3339
C26_12 C 0.11601(15) 0.7028(2) 0.36604(16)
H14_12 H 0.0874 0.7093 0.3583
C27_12 C 0.13555(18) 0.72863(16) 0.39229(15)
H15_10 H 0.1200 0.7524 0.4021
C28_12 C 0.17832(18) 0.71896(15) 0.40391(12)
H16_12 H 0.1914 0.7362 0.4214
C29_13 C 0.39815(18) 0.69398(14) 0.36374(15)
C30_13 C 0.37138(15) 0.71209(18) 0.38961(14)
C31_13 C 0.37821(19) 0.75523(19) 0.40064(15)
H17_13 H 0.3602 0.7675 0.4181
C32_13 C 0.4118(2) 0.78027(15) 0.3858(2)
H18_13 H 0.4164 0.8094 0.3932
C33_13 C 0.43852(17) 0.7621(2) 0.35993(19)
H19_13 H 0.4612 0.7791 0.3499
C34_13 C 0.43171(17) 0.7190(2) 0.34890(15)
H20_13 H 0.4497 0.7068 0.3315
C35_11 C 0.23167(13) 0.46375(16) 0.38331(11)
C36_11 C 0.20524(15) 0.48571(13) 0.35934(11)
C37_11 C 0.16752(14) 0.46564(17) 0.34645(11)
H21_11 H 0.1496 0.4805 0.3302
C38_11 C 0.15622(14) 0.42362(18) 0.35753(14)
H22_11 H 0.1307 0.4100 0.3488
C39_11 C 0.18265(19) 0.40167(13) 0.38150(14)
H23_11 H 0.1750 0.3732 0.3890
C40_11 C 0.22037(17) 0.42172(16) 0.39439(11)
H24_11 H 0.2382 0.4069 0.4106
C41_13 C 0.28931(11) 0.60331(12) 0.48691(9)
C42_13 C 0.29518(11) 0.55789(12) 0.48521(9)
C43_12 C 0.29353(11) 0.53278(11) 0.51567(11)
H25_12 H 0.2975 0.5021 0.5145
C44_12 C 0.28603(12) 0.55303(15) 0.54785(9)
H26_12 H 0.2850 0.5360 0.5683
C45_12 C 0.28015(12) 0.59843(15) 0.54953(9)
H27_12 H 0.2751 0.6121 0.5712
C46_12 C 0.28180(11) 0.62357(11) 0.51905(11)
H28_12 H 0.2778 0.6542 0.5202
C47_13 C 0.28597(12) 0.57664(11) 0.26333(9)
C48_13 C 0.33149(12) 0.58264(11) 0.26444(9)
C49_12 C 0.35606(11) 0.58123(11) 0.23370(11)
H29_12 H 0.3867 0.5853 0.2345
C50_12 C 0.33510(15) 0.57382(12) 0.20182(9)
H30_12 H 0.3517 0.5729 0.1811
C51_12 C 0.28959(15) 0.56781(12) 0.20071(9)
H31_12 H 0.2755 0.5628 0.1792
C52_12 C 0.26502(11) 0.56922(11) 0.23145(11)
H32_13 H 0.2343 0.5652 0.2307
N1_13 N 0.36649(13) 0.50696(14) 0.39445(10)
N2_13 N 0.36310(13) 0.54383(14) 0.37575(10)
N3_12 N 0.24110(14) 0.66561(14) 0.39624(11)
N4_13 N 0.39995(14) 0.55119(14) 0.35667(10)
N5_12 N 0.24624(13) 0.63097(13) 0.37475(11)
N6_12 N 0.21112(14) 0.62643(14) 0.35390(11)
N7_13 N 0.34068(14) 0.68089(15) 0.39828(12)
N8_13 N 0.34836(13) 0.64647(14) 0.37777(11)
N9_13 N 0.38327(14) 0.65257(15) 0.35692(12)
N10_12 N 0.22372(14) 0.52553(14) 0.35328(10)
N11_13 N 0.26058(13) 0.52737(13) 0.37306(10)
N12_12 N 0.26630(14) 0.49053(14) 0.39162(10)
N13_13 N 0.29284(13) 0.61951(13) 0.45381(10)
N14_13 N 0.30042(12) 0.58438(13) 0.43270(10)
N15_13 N 0.30193(13) 0.54720(13) 0.45125(10)
N16_13 N 0.27107(12) 0.57963(13) 0.29692(10)
N17_13 N 0.30602(13) 0.58674(12) 0.31752(10)
N18_13 N 0.34292(13) 0.58935(13) 0.29841(10)
O3_12 O 0.17652(15) 0.5941(3) 0.27215(14)
O4_12 O 0.13984(19) 0.5648(2) 0.31192(18)
O5_13 O 0.27320(17) 0.74351(17) 0.44530(16)
O6_13 O 0.3181(2) 0.71326(16) 0.48087(14)
O7_6 O 0.29391(17) 0.94499(14) 0.53413(11)
O8_6 O 0.33106(18) 0.91355(15) 0.57446(14)
O9_12 O 0.37894(16) 0.49067(17) 0.46995(14)
O10_13 O 0.3969(2) 0.6682(2) 0.28412(18)
Zn7_6 Zn 0.31888(2) 0.987445(19) 0.571079(17)
O11_7 O 0.48240(16) 0.6205(2) 0.32832(14)
O12_7 O 0.44615(14) 0.59078(18) 0.28479(12)
O13_7 O 0.29391(17) 0.44499(14) 0.46587(11)
O14_7 O 0.33106(18) 0.41355(15) 0.42554(14)
H33_13 H 0.39369 0.695467 0.298699
H34_13 H 0.424244 0.670491 0.269522
H35_13 H 0.391029 0.521412 0.470699
H36_12 H 0.368069 0.482181 0.493754
H1_12 H 0.9936 0.5806 0.2671
C7_13 C 0.9816(2) 0.6041(3) 0.2014(2)
O1_7 O 0.98240(16) 0.6205(2) 0.17168(14)
O2_7 O 0.94615(14) 0.59078(18) 0.21521(12)
Zn6_7 Zn 0.902142(19) 0.60517(2) 0.178530(17)
C10_13 C 0.81846(16) 0.29002(13) 0.02488(13)
H5_13 H 0.8293 0.2640 0.0350
C11_13 C 0.82198(16) 0.32916(17) 0.04257(10)
H6_13 H 0.8352 0.3299 0.0647
C12_13 C 0.80611(15) 0.36715(13) 0.02780(12)
C16_13 C 0.8111(2) 0.4112(2) 0.04724(19)
C43_13 C 0.79353(11) 0.03278(11) 0.01567(11)
H25_13 H 0.7975 0.0021 0.0145
C44_13 C 0.78603(12) 0.05303(15) 0.04785(9)
H26_13 H 0.7850 0.0360 0.0683
C45_13 C 0.78015(12) 0.09843(15) 0.04953(9)
H27_13 H 0.7751 0.1121 0.0712
C46_13 C 0.78180(11) 0.12357(11) 0.01905(11)
H28_13 H 0.7778 0.1542 0.0202
O7_7 O 0.79391(17) 0.44499(14) 0.03413(11)
O8_7 O 0.83106(18) 0.41355(15) 0.07446(14)
Zn7_7 Zn 0.81888(2) 0.487445(19) 0.071079(17)
Zn1_14 Zn 0.805031(17) 0.086364(17) 0.875198(16)
Zn2_13 Zn 0.709762(18) 0.07594(2) 0.819018(16)
Zn3_14 Zn 0.78982(2) 0.180294(19) 0.932095(17)
Zn4_8 Zn 0.902142(19) 0.10517(2) 0.821470(17)
C1_14 C 0.52391(14) 0.09817(15) 0.72242(13)
C2_13 C 0.52127(13) 0.08550(16) 0.75682(13)
H1_13 H 0.4936 0.0806 0.7671
C3_13 C 0.55893(17) 0.08003(16) 0.77609(11)
H2_13 H 0.5571 0.0713 0.7996
C4_13 C 0.59920(14) 0.08727(15) 0.76101(14)
C5_14 C 0.60183(13) 0.09995(16) 0.72661(14)
H3_14 H 0.6295 0.1049 0.7163
C6_14 C 0.56418(18) 0.10540(16) 0.70733(10)
H4_14 H 0.5660 0.1141 0.6838
C7_14 C 0.4816(2) 0.1041(3) 0.7014(2)
C8_13 C 0.6420(3) 0.0803(3) 0.7828(2)
C9_14 C 0.79909(15) 0.28885(13) 0.99244(13)
C13_14 C 0.78674(14) 0.36600(14) 0.99536(12)
H7_14 H 0.7759 0.3921 0.9853
C14_14 C 0.78321(14) 0.32685(17) 0.97768(10)
H8_14 H 0.7700 0.3261 0.9555
C15_14 C 0.7958(3) 0.2460(3) 0.9716(2)
C17_14 C 0.92870(15) 0.01743(13) 0.86360(11)
C22_14 C 0.97039(15) 0.00662(17) 0.85139(12)
H12_14 H 0.9846 0.0250 0.8352
C23_13 C 0.70156(13) 0.18349(16) 0.88931(12)
C24_13 C 0.68200(16) 0.15766(14) 0.86306(12)
C25_13 C 0.63923(17) 0.16731(17) 0.85144(12)
H13_13 H 0.6262 0.1500 0.8339
C26_13 C 0.61601(15) 0.2028(2) 0.86604(16)
H14_13 H 0.5874 0.2093 0.8583
C27_13 C 0.63555(18) 0.22863(16) 0.89229(15)
H15_11 H 0.6200 0.2524 0.9021
C28_13 C 0.67832(18) 0.21896(15) 0.90391(12)
H16_13 H 0.6914 0.2362 0.9214
C29_14 C 0.89815(18) 0.19398(14) 0.86374(15)
C30_14 C 0.87138(15) 0.21209(18) 0.88961(14)
C31_14 C 0.87821(19) 0.25523(19) 0.90064(15)
H17_14 H 0.8602 0.2675 0.9181
C32_14 C 0.9118(2) 0.28027(15) 0.8858(2)
H18_14 H 0.9164 0.3094 0.8932
C33_14 C 0.93852(17) 0.2621(2) 0.85993(19)
H19_14 H 0.9612 0.2791 0.8499
C34_14 C 0.93171(17) 0.2190(2) 0.84890(15)
H20_14 H 0.9497 0.2068 0.8315
C41_14 C 0.78931(11) 0.10331(12) 0.98691(9)
C42_14 C 0.79518(11) 0.05789(12) 0.98521(9)
C47_14 C 0.78597(12) 0.07664(11) 0.76333(9)
C48_14 C 0.83149(12) 0.08264(11) 0.76444(9)
C49_13 C 0.85606(11) 0.08123(11) 0.73370(11)
H29_13 H 0.8867 0.0853 0.7345
C50_13 C 0.83510(15) 0.07382(12) 0.70182(9)
H30_13 H 0.8517 0.0729 0.6811
C51_13 C 0.78959(15) 0.06781(12) 0.70071(9)
H31_13 H 0.7755 0.0628 0.6792
C52_13 C 0.76502(11) 0.06922(11) 0.73145(11)
H32_14 H 0.7343 0.0652 0.7307
N1_14 N 0.86649(13) 0.00696(14) 0.89445(10)
N2_14 N 0.86310(13) 0.04383(14) 0.87575(10)
N3_13 N 0.74110(14) 0.16561(14) 0.89624(11)
N4_14 N 0.89995(14) 0.05119(14) 0.85667(10)
N5_13 N 0.74624(13) 0.13097(13) 0.87475(11)
N6_13 N 0.71112(14) 0.12643(14) 0.85390(11)
N7_14 N 0.84068(14) 0.18089(15) 0.89828(12)
N8_14 N 0.84836(13) 0.14647(14) 0.87777(11)
N9_14 N 0.88327(14) 0.15257(15) 0.85692(12)
N10_13 N 0.72372(14) 0.02553(14) 0.85328(10)
N11_14 N 0.76058(13) 0.02737(13) 0.87306(10)
N13_14 N 0.79284(13) 0.11951(13) 0.95381(10)
N14_14 N 0.80042(12) 0.08438(13) 0.93270(10)
N15_14 N 0.80193(13) 0.04720(13) 0.95125(10)
N16_14 N 0.77107(12) 0.07963(13) 0.79692(10)
N17_14 N 0.80602(13) 0.08674(12) 0.81752(10)
N18_14 N 0.84292(13) 0.08935(13) 0.79841(10)
O1_8 O 0.48240(16) 0.1205(2) 0.67168(14)
O2_8 O 0.44615(14) 0.09078(18) 0.71521(12)
O3_13 O 0.67652(15) 0.0941(3) 0.77215(14)
O4_13 O 0.63984(19) 0.0648(2) 0.81192(18)
O5_14 O 0.77320(17) 0.24351(17) 0.94530(16)
O6_14 O 0.8181(2) 0.21326(16) 0.98087(14)
O10_14 O 0.8969(2) 0.1682(2) 0.78412(18)
Zn6_8 Zn 0.402142(19) 0.10517(2) 0.678530(17)
O11_8 O 0.98240(16) 0.1205(2) 0.82832(14)
O12_8 O 0.94615(14) 0.09078(18) 0.78479(12)
H33_14 H 0.89369 0.195467 0.798699
H34_14 H 0.924244 0.170491 0.769522
H35_14 H 0.891029 0.0214119 0.970699
Zn1_15 Zn 0.305031(17) 0.086364(17) 0.624802(16)
Zn2_14 Zn 0.209762(18) 0.07594(2) 0.680982(16)
Zn3_15 Zn 0.28982(2) 0.180294(19) 0.567905(17)
C1_15 C 0.02391(14) 0.09817(15) 0.77758(13)
C2_14 C 0.02127(13) 0.08550(16) 0.74318(13)
C3_14 C 0.05893(17) 0.08003(16) 0.72391(11)
H2_14 H 0.0571 0.0713 0.7004
C4_14 C 0.09920(14) 0.08727(15) 0.73899(14)
C5_15 C 0.10183(13) 0.09995(16) 0.77339(14)
H3_15 H 0.1295 0.1049 0.7837
C6_15 C 0.06418(18) 0.10540(16) 0.79267(10)
H4_15 H 0.0660 0.1141 0.8162
C8_14 C 0.1420(3) 0.0803(3) 0.7172(2)
C9_15 C 0.29909(15) 0.28885(13) 0.50756(13)
C10_14 C 0.31846(16) 0.29002(13) 0.47512(13)
H5_14 H 0.3293 0.2640 0.4650
C11_14 C 0.32198(16) 0.32916(17) 0.45743(10)
H6_14 H 0.3352 0.3299 0.4353
C12_14 C 0.30611(15) 0.36715(13) 0.47220(12)
C13_15 C 0.28674(14) 0.36600(14) 0.50464(12)
H7_15 H 0.2759 0.3921 0.5147
C14_15 C 0.28321(14) 0.32685(17) 0.52232(10)
H8_15 H 0.2700 0.3261 0.5445
C15_15 C 0.2958(3) 0.2460(3) 0.5284(2)
C16_14 C 0.3111(2) 0.4112(2) 0.45276(19)
C17_15 C 0.42870(15) 0.01743(13) 0.63640(11)
C22_15 C 0.47039(15) 0.00662(17) 0.64861(12)
H12_15 H 0.4846 0.0250 0.6648
C23_14 C 0.20156(13) 0.18349(16) 0.61069(12)
C24_14 C 0.18200(16) 0.15766(14) 0.63694(12)
C25_14 C 0.13923(17) 0.16731(17) 0.64856(12)
H13_14 H 0.1262 0.1500 0.6661
C26_14 C 0.11601(15) 0.2028(2) 0.63396(16)
H14_14 H 0.0874 0.2093 0.6417
C27_14 C 0.13555(18) 0.22863(16) 0.60771(15)
H15_12 H 0.1200 0.2524 0.5979
C28_14 C 0.17832(18) 0.21896(15) 0.59609(12)
H16_14 H 0.1914 0.2362 0.5786
C29_15 C 0.39815(18) 0.19398(14) 0.63626(15)
C30_15 C 0.37138(15) 0.21209(18) 0.61039(14)
C31_15 C 0.37821(19) 0.25523(19) 0.59936(15)
H17_15 H 0.3602 0.2675 0.5819
C32_15 C 0.4118(2) 0.28027(15) 0.6142(2)
H18_15 H 0.4164 0.3094 0.6068
C33_15 C 0.43852(17) 0.2621(2) 0.64007(19)
H19_15 H 0.4612 0.2791 0.6501
C34_15 C 0.43171(17) 0.2190(2) 0.65110(15)
H20_15 H 0.4497 0.2068 0.6685
C41_15 C 0.28931(11) 0.10331(12) 0.51309(9)
C42_15 C 0.29518(11) 0.05789(12) 0.51479(9)
C43_14 C 0.29353(11) 0.03278(11) 0.48433(11)
H25_14 H 0.2975 0.0021 0.4855
C44_14 C 0.28603(12) 0.05303(15) 0.45215(9)
H26_14 H 0.2850 0.0360 0.4317
C45_14 C 0.28015(12) 0.09843(15) 0.45047(9)
H27_14 H 0.2751 0.1121 0.4288
C46_14 C 0.28180(11) 0.12357(11) 0.48095(11)
H28_14 H 0.2778 0.1542 0.4798
C47_15 C 0.28597(12) 0.07664(11) 0.73667(9)
C48_15 C 0.33149(12) 0.08264(11) 0.73556(9)
C49_14 C 0.35606(11) 0.08123(11) 0.76630(11)
H29_14 H 0.3867 0.0853 0.7655
C50_14 C 0.33510(15) 0.07382(12) 0.79818(9)
H30_14 H 0.3517 0.0729 0.8189
C51_14 C 0.28959(15) 0.06781(12) 0.79929(9)
H31_14 H 0.2755 0.0628 0.8208
C52_14 C 0.26502(11) 0.06922(11) 0.76855(11)
H32_15 H 0.2343 0.0652 0.7693
N1_15 N 0.36649(13) 0.00696(14) 0.60555(10)
N2_15 N 0.36310(13) 0.04383(14) 0.62425(10)
N3_14 N 0.24110(14) 0.16561(14) 0.60376(11)
N4_15 N 0.39995(14) 0.05119(14) 0.64333(10)
N5_14 N 0.24624(13) 0.13097(13) 0.62525(11)
N6_14 N 0.21112(14) 0.12643(14) 0.64610(11)
N7_15 N 0.34068(14) 0.18089(15) 0.60172(12)
N8_15 N 0.34836(13) 0.14647(14) 0.62223(11)
N9_15 N 0.38327(14) 0.15257(15) 0.64308(12)
N10_14 N 0.22372(14) 0.02553(14) 0.64672(10)
N11_15 N 0.26058(13) 0.02737(13) 0.62694(10)
N13_15 N 0.29284(13) 0.11951(13) 0.54619(10)
N14_15 N 0.30042(12) 0.08438(13) 0.56730(10)
N15_15 N 0.30193(13) 0.04720(13) 0.54875(10)
N16_15 N 0.27107(12) 0.07963(13) 0.70308(10)
N17_15 N 0.30602(13) 0.08674(12) 0.68248(10)
N18_15 N 0.34292(13) 0.08935(13) 0.70159(10)
O3_14 O 0.17652(15) 0.0941(3) 0.72785(14)
O4_14 O 0.13984(19) 0.0648(2) 0.68808(18)
O5_15 O 0.27320(17) 0.24351(17) 0.55470(16)
O6_15 O 0.3181(2) 0.21326(16) 0.51913(14)
O10_15 O 0.3969(2) 0.1682(2) 0.71588(18)
H33_15 H 0.39369 0.195467 0.701301
H34_15 H 0.424244 0.170491 0.730478
H35_15 H 0.391029 0.0214119 0.529301
C18_13 C 0.40761(12) 0.99016(16) 0.61248(12)
C19_13 C 0.42824(17) 0.95210(15) 0.60078(12)
H9_13 H 0.4140 0.9337 0.5846
C20_13 C 0.46993(18) 0.94128(15) 0.61299(15)
H10_13 H 0.4839 0.9155 0.6051
C21_13 C 0.49100(13) 0.96854(19) 0.63691(15)
H11_12 H 0.5192 0.9612 0.6452
C35_12 C 0.23167(13) 0.96375(16) 0.61669(11)
C36_12 C 0.20524(15) 0.98571(13) 0.64066(11)
C37_12 C 0.16752(14) 0.96564(17) 0.65355(11)
H21_12 H 0.1496 0.9805 0.6698
C38_12 C 0.15622(14) 0.92362(18) 0.64247(14)
H22_12 H 0.1307 0.9100 0.6512
C39_12 C 0.18265(19) 0.90167(13) 0.61850(14)
H23_12 H 0.1750 0.8732 0.6110
C40_12 C 0.22037(17) 0.92172(16) 0.60561(11)
H24_12 H 0.2382 0.9069 0.5894
N12_13 N 0.26630(14) 0.99053(14) 0.60838(10)
O9_13 O 0.37894(16) 0.99067(17) 0.53005(14)
H36_13 H 0.368069 0.982181 0.506246
H1_14 H 0.9936 0.0806 0.7329
C7_15 C 0.9816(2) 0.1041(3) 0.7986(2)
Zn1_16 Zn 0.805031(17) 0.586364(17) 0.124802(16)
Zn2_15 Zn 0.709762(18) 0.57594(2) 0.180982(16)
Zn3_16 Zn 0.78982(2) 0.680294(19) 0.067905(17)
C1_16 C 0.52391(14) 0.59817(15) 0.27758(13)
C2_15 C 0.52127(13) 0.58550(16) 0.24318(13)
H1_15 H 0.4936 0.5806 0.2329
C3_15 C 0.55893(17) 0.58003(16) 0.22391(11)
H2_15 H 0.5571 0.5713 0.2004
C4_15 C 0.59920(14) 0.58727(15) 0.23899(14)
C5_16 C 0.60183(13) 0.59995(16) 0.27339(14)
H3_16 H 0.6295 0.6049 0.2837
C6_16 C 0.56418(18) 0.60540(16) 0.29267(10)
H4_16 H 0.5660 0.6141 0.3162
C7_16 C 0.4816(2) 0.6041(3) 0.2986(2)
C8_15 C 0.6420(3) 0.5803(3) 0.2172(2)
C9_16 C 0.79909(15) 0.78885(13) 0.00756(13)
C13_16 C 0.78674(14) 0.86600(14) 0.00464(12)
H7_16 H 0.7759 0.8921 0.0147
C14_16 C 0.78321(14) 0.82685(17) 0.02232(10)
H8_16 H 0.7700 0.8261 0.0445
C15_16 C 0.7958(3) 0.7460(3) 0.0284(2)
C17_16 C 0.92870(15) 0.51743(13) 0.13640(11)
C18_14 C 0.90761(12) 0.49016(16) 0.11248(12)
C19_14 C 0.92824(17) 0.45210(15) 0.10078(12)
H9_14 H 0.9140 0.4337 0.0846
C20_14 C 0.96993(18) 0.44128(15) 0.11299(15)
H10_14 H 0.9839 0.4155 0.1051
C21_14 C 0.99100(13) 0.46854(19) 0.13691(15)
C22_16 C 0.97039(15) 0.50662(17) 0.14861(12)
H12_16 H 0.9846 0.5250 0.1648
C23_15 C 0.70156(13) 0.68349(16) 0.11069(12)
C24_15 C 0.68200(16) 0.65766(14) 0.13694(12)
C25_15 C 0.63923(17) 0.66731(17) 0.14856(12)
H13_15 H 0.6262 0.6500 0.1661
C26_15 C 0.61601(15) 0.7028(2) 0.13396(16)
H14_15 H 0.5874 0.7093 0.1417
C27_15 C 0.63555(18) 0.72863(16) 0.10771(15)
H15_13 H 0.6200 0.7524 0.0979
C28_15 C 0.67832(18) 0.71896(15) 0.09609(12)
H16_15 H 0.6914 0.7362 0.0786
C29_16 C 0.89815(18) 0.69398(14) 0.13626(15)
C30_16 C 0.87138(15) 0.71209(18) 0.11039(14)
C31_16 C 0.87821(19) 0.75523(19) 0.09936(15)
H17_16 H 0.8602 0.7675 0.0819
C32_16 C 0.9118(2) 0.78027(15) 0.1142(2)
H18_16 H 0.9164 0.8094 0.1068
C33_16 C 0.93852(17) 0.7621(2) 0.14007(19)
H19_16 H 0.9612 0.7791 0.1501
C34_16 C 0.93171(17) 0.7190(2) 0.15110(15)
H20_16 H 0.9497 0.7068 0.1685
C35_13 C 0.73167(13) 0.46375(16) 0.11669(11)
C36_13 C 0.70524(15) 0.48571(13) 0.14066(11)
C37_13 C 0.66752(14) 0.46564(17) 0.15355(11)
H21_13 H 0.6496 0.4805 0.1698
C38_13 C 0.65622(14) 0.42362(18) 0.14247(14)
H22_13 H 0.6307 0.4100 0.1512
C39_13 C 0.68265(19) 0.40167(13) 0.11850(14)
H23_13 H 0.6750 0.3732 0.1110
C40_13 C 0.72037(17) 0.42172(16) 0.10561(11)
H24_13 H 0.7382 0.4069 0.0894
C41_16 C 0.78931(11) 0.60331(12) 0.01309(9)
C42_16 C 0.79518(11) 0.55789(12) 0.01479(9)
C47_16 C 0.78597(12) 0.57664(11) 0.23667(9)
C48_16 C 0.83149(12) 0.58264(11) 0.23556(9)
C49_15 C 0.85606(11) 0.58123(11) 0.26630(11)
H29_15 H 0.8867 0.5853 0.2655
C50_15 C 0.83510(15) 0.57382(12) 0.29818(9)
H30_15 H 0.8517 0.5729 0.3189
C51_15 C 0.78959(15) 0.56781(12) 0.29929(9)
H31_15 H 0.7755 0.5628 0.3208
C52_15 C 0.76502(11) 0.56922(11) 0.26855(11)
H32_16 H 0.7343 0.5652 0.2693
N1_16 N 0.86649(13) 0.50696(14) 0.10555(10)
N2_16 N 0.86310(13) 0.54383(14) 0.12425(10)
N3_15 N 0.74110(14) 0.66561(14) 0.10376(11)
N4_16 N 0.89995(14) 0.55119(14) 0.14333(10)
N5_15 N 0.74624(13) 0.63097(13) 0.12525(11)
N6_15 N 0.71112(14) 0.62643(14) 0.14610(11)
N7_16 N 0.84068(14) 0.68089(15) 0.10172(12)
N8_16 N 0.84836(13) 0.64647(14) 0.12223(11)
N9_16 N 0.88327(14) 0.65257(15) 0.14308(12)
N10_15 N 0.72372(14) 0.52553(14) 0.14672(10)
N11_16 N 0.76058(13) 0.52737(13) 0.12694(10)
N12_14 N 0.76630(14) 0.49053(14) 0.10838(10)
N13_16 N 0.79284(13) 0.61951(13) 0.04619(10)
N14_16 N 0.80042(12) 0.58438(13) 0.06730(10)
N15_16 N 0.80193(13) 0.54720(13) 0.04875(10)
N16_16 N 0.77107(12) 0.57963(13) 0.20308(10)
N17_16 N 0.80602(13) 0.58674(12) 0.18248(10)
N18_16 N 0.84292(13) 0.58935(13) 0.20159(10)
O3_15 O 0.67652(15) 0.5941(3) 0.22785(14)
O4_15 O 0.63984(19) 0.5648(2) 0.18808(18)
O5_16 O 0.77320(17) 0.74351(17) 0.05470(16)
O6_16 O 0.8181(2) 0.71326(16) 0.01913(14)
O9_14 O 0.87894(16) 0.49067(17) 0.03005(14)
O10_16 O 0.8969(2) 0.6682(2) 0.21588(18)
H33_16 H 0.89369 0.695467 0.201301
H34_16 H 0.924244 0.670491 0.230478
H35_16 H 0.891029 0.521412 0.0293012
H36_14 H 0.868069 0.482181 0.00624581
H15_14 H 0.0024 0.1300 0.6521
C10_15 C 0.18154(16) 0.20998(13) 0.02488(13)
H5_15 H 0.1707 0.2360 0.0350
C11_15 C 0.17802(16) 0.17084(17) 0.04257(10)
H6_15 H 0.1648 0.1701 0.0647
C12_15 C 0.19389(15) 0.13285(13) 0.02780(12)
C16_15 C 0.1889(2) 0.0888(2) 0.04724(19)
C43_15 C 0.20647(11) 0.46722(11) 0.01567(11)
H25_15 H 0.2025 0.4979 0.0145
C44_15 C 0.21397(12) 0.44697(15) 0.04785(9)
H26_15 H 0.2150 0.4640 0.0683
C45_15 C 0.21985(12) 0.40157(15) 0.04953(9)
H27_15 H 0.2249 0.3879 0.0712
C46_15 C 0.21820(11) 0.37643(11) 0.01905(11)
H28_15 H 0.2222 0.3458 0.0202
O7_8 O 0.20609(17) 0.05501(14) 0.03413(11)
O8_8 O 0.16894(18) 0.08645(15) 0.07446(14)
Zn7_8 Zn 0.18112(2) 0.012555(19) 0.071079(17)
C18_15 C 0.09239(12) 0.00984(16) 0.11248(12)
C19_15 C 0.07176(17) 0.04790(15) 0.10078(12)
H9_15 H 0.0860 0.0663 0.0846
C20_15 C 0.03007(18) 0.05872(15) 0.11299(15)
H10_15 H 0.0161 0.0845 0.1051
C21_15 C 0.00900(13) 0.03146(19) 0.13691(15)
C35_14 C 0.26833(13) 0.03625(16) 0.11669(11)
C36_14 C 0.29476(15) 0.01429(13) 0.14066(11)
C37_14 C 0.33248(14) 0.03436(17) 0.15355(11)
H21_14 H 0.3504 0.0195 0.1698
C38_14 C 0.34378(14) 0.07638(18) 0.14247(14)
H22_14 H 0.3693 0.0900 0.1512
C39_14 C 0.31735(19) 0.09833(13) 0.11850(14)
H23_14 H 0.3250 0.1268 0.1110
C40_14 C 0.27963(17) 0.07828(16) 0.10561(11)
H24_14 H 0.2618 0.0931 0.0894
N12_15 N 0.23370(14) 0.00947(14) 0.10838(10)
O9_15 O 0.12106(16) 0.00933(17) 0.03005(14)
H36_15 H 0.131931 0.0178193 0.00624581
H11_13 H 0.9808 0.5388 0.8548
H11_14 H 0.0192 0.9612 0.8548
Zn5_8 Zn 0.81888(2) 0.987445(19) 0.928921(17)
C18_16 C 0.90761(12) 0.99016(16) 0.88752(12)
C19_16 C 0.92824(17) 0.95210(15) 0.89922(12)
H9_16 H 0.9140 0.9337 0.9154
C20_16 C 0.96993(18) 0.94128(15) 0.88701(15)
H10_16 H 0.9839 0.9155 0.8949
C21_16 C 0.99100(13) 0.96854(19) 0.86309(15)
C35_15 C 0.73167(13) 0.96375(16) 0.88331(11)
C36_15 C 0.70524(15) 0.98571(13) 0.85934(11)
C37_15 C 0.66752(14) 0.96564(17) 0.84645(11)
H21_15 H 0.6496 0.9805 0.8302
C38_15 C 0.65622(14) 0.92362(18) 0.85753(14)
H22_15 H 0.6307 0.9100 0.8488
C39_15 C 0.68265(19) 0.90167(13) 0.88150(14)
H23_15 H 0.6750 0.8732 0.8890
C40_15 C 0.72037(17) 0.92172(16) 0.89439(11)
H24_15 H 0.7382 0.9069 0.9106
N12_16 N 0.76630(14) 0.99053(14) 0.89162(10)
O9_16 O 0.87894(16) 0.99067(17) 0.96995(14)
O13_8 O 0.79391(17) 0.94499(14) 0.96587(11)
O14_8 O 0.83106(18) 0.91355(15) 0.92554(14)
H36_16 H 0.868069 0.982181 0.993754
C10_16 C 0.81846(16) 0.79002(13) 0.97512(13)
H5_16 H 0.8293 0.7640 0.9650
C11_16 C 0.82198(16) 0.82916(17) 0.95743(10)
H6_16 H 0.8352 0.8299 0.9353
C12_16 C 0.80611(15) 0.86715(13) 0.97220(12)
C16_16 C 0.8111(2) 0.9112(2) 0.95276(19)
C43_16 C 0.79353(11) 0.53278(11) 0.98433(11)
H25_16 H 0.7975 0.5021 0.9855
C44_16 C 0.78603(12) 0.55303(15) 0.95215(9)
H26_16 H 0.7850 0.5360 0.9317
C45_16 C 0.78015(12) 0.59843(15) 0.95047(9)
H27_16 H 0.7751 0.6121 0.9288
C46_16 C 0.78180(11) 0.62357(11) 0.98095(11)
H28_16 H 0.7778 0.6542 0.9798
Zn2_16 Zn 0.32594(2) 0.040238(18) 0.930982(16)
C2_16 C 0.33550(16) 0.22873(13) 0.99318(13)
H1_16 H 0.3306 0.2564 0.9829
C3_16 C 0.33003(16) 0.19107(17) 0.97391(11)
H2_16 H 0.3213 0.1929 0.9504
C4_16 C 0.33727(15) 0.15080(14) 0.98899(14)
C8_16 C 0.3303(3) 0.1080(3) 0.9672(2)
C23_16 C 0.43349(16) 0.04844(13) 0.86069(12)
C24_16 C 0.40766(14) 0.06800(16) 0.88694(12)
C25_16 C 0.41731(17) 0.11077(17) 0.89856(12)
H13_16 H 0.4000 0.1238 0.9161
C26_16 C 0.4528(2) 0.13399(15) 0.88396(16)
H14_16 H 0.4593 0.1626 0.8917
C27_16 C 0.47863(16) 0.11445(18) 0.85771(15)
H15_15 H 0.5024 0.1300 0.8479
C28_16 C 0.46896(15) 0.07168(18) 0.84609(12)
H16_16 H 0.4862 0.0586 0.8286
C35_16 C 0.21375(16) 0.01833(13) 0.86669(11)
C36_16 C 0.23571(13) 0.04476(15) 0.89066(11)
C37_16 C 0.21564(17) 0.08248(14) 0.90355(11)
H21_16 H 0.2305 0.1004 0.9198
C38_16 C 0.17362(18) 0.09378(14) 0.89247(14)
H22_16 H 0.1600 0.1193 0.9012
C39_16 C 0.15167(13) 0.06735(19) 0.86850(14)
H23_16 H 0.1232 0.0750 0.8610
C40_16 C 0.17172(16) 0.02963(17) 0.85561(11)
H24_16 H 0.1569 0.0118 0.8394
N3_16 N 0.41561(14) 0.00890(14) 0.85376(11)
N5_16 N 0.38097(13) 0.00376(13) 0.87525(11)
N6_16 N 0.37643(14) 0.03888(14) 0.89610(11)
N10_16 N 0.27553(14) 0.02628(14) 0.89672(10)
O3_16 O 0.3441(3) 0.07348(15) 0.97785(14)
O4_16 O 0.3148(2) 0.11016(19) 0.93808(18)
C49_16 C 0.33123(11) 0.89394(11) 0.01630(11)
H29_16 H 0.3353 0.8633 0.0155
C50_16 C 0.32382(12) 0.91490(15) 0.04818(9)
H30_16 H 0.3229 0.8983 0.0689
C51_16 C 0.31781(12) 0.96041(15) 0.04929(9)
H31_16 H 0.3128 0.9745 0.0708
C52_16 C 0.31922(11) 0.98498(11) 0.01855(11)
H15_16 H 0.9976 0.8700 0.3479
H11_15 H 0.0192 0.4612 0.1452
H11_16 H 0.9808 0.0388 0.1452
loop_
_geom_bond_atom_site_label_1
_geom_bond_atom_site_label_2
_geom_bond_site_symmetry_1
_geom_bond_site_symmetry_2
Zn1 N2 1_555 1_555
Zn4 N4 1_555 1_555
Zn5 N1 1_555 1_555
C9 C10 1_555 1_555
C10 H5 1_555 1_555
C11 C10 1_555 1_555
H6 C11 1_555 1_555
C12 C11 1_555 1_555
C13 C12 1_555 1_555
H7 C13 1_555 1_555
C14 C9 1_555 1_555
H8 C14 1_555 1_555
C15 C9 1_555 1_555
C16 C12 1_555 1_555
C17 C18 1_555 1_555
C18 C19 1_555 1_555
C19 H9 1_555 1_555
C20 C19 1_555 1_555
H10 C20 1_555 1_555
C21 C20 1_555 1_555
H11 C21 1_555 1_555
C22 C17 1_555 1_555
H12 C22 1_555 1_555
C29 C30 1_555 1_555
C30 C31 1_555 1_555
C31 H17 1_555 1_555
C32 C31 1_555 1_555
H18 C32 1_555 1_555
C33 C32 1_555 1_555
H19 C33 1_555 1_555
C34 C29 1_555 1_555
H20 C34 1_555 1_555
C41 C42 1_555 1_555
C42 C43 1_555 1_555
C43 H25 1_555 1_555
C44 C43 1_555 1_555
H26 C44 1_555 1_555
C45 C44 1_555 1_555
H27 C45 1_555 1_555
C46 C41 1_555 1_555
H28 C46 1_555 1_555
C47 C48 1_555 1_555
N1 C18 1_555 1_555
N2 N1 1_555 1_555
N4 C17 1_555 1_555
N7 Zn3 1_555 1_555
N8 Zn1 1_555 1_555
N9 Zn4 1_555 1_555
N11 Zn1 1_555 1_555
N12 Zn5 1_555 1_555
N13 Zn3 1_555 1_555
N14 Zn1 1_555 1_555
N15 Zn5 1_555 1_555
N17 Zn1 1_555 1_555
N18 Zn4 1_555 1_555
O5 Zn3 1_555 1_555
O6 Zn3 1_555 1_555
O7 C16 1_555 1_555
O8 C16 1_555 1_555
O9 Zn5 1_555 1_555
O10 Zn4 1_555 1_555
Zn7 O7 1_555 1_555
O11 Zn4 1_555 1_555
O12 Zn4 1_555 1_555
O13 Zn5 1_555 1_555
O14 Zn5 1_555 1_555
C13 C14 1_555 1_555
C15 O5 1_555 1_555
C15 O6 1_555 1_555
C21 C22 1_555 1_555
C29 N9 1_555 1_555
C30 N7 1_555 1_555
C33 C34 1_555 1_555
C41 N13 1_555 1_555
C42 N15 1_555 1_555
C45 C46 1_555 1_555
C47 N16 1_555 1_555
C48 N18 1_555 1_555
N2 N4 1_555 1_555
N7 N8 1_555 1_555
N8 N9 1_555 1_555
N11 N12 1_555 1_555
N13 N14 1_555 1_555
N14 N15 1_555 1_555
N16 N17 1_555 1_555
N17 N18 1_555 1_555
O8 Zn7 1_555 1_555
O10 H33 1_555 1_555
O10 H34 1_555 1_555
O9 H35 1_555 1_555
O9 H36 1_555 1_555
H3 C5 1_555 1_555
C6 C1 1_555 1_555
H4 C6 1_555 1_555
C7 C1 1_555 1_555
O1 C7 1_555 1_555
O2 C7 1_555 1_555
Zn6 O1 1_555 1_555
C5 C6 1_555 1_555
O2 Zn6 1_555 1_555
Zn1_2 N2_2 1_555 1_555
Zn2 N6 1_555 1_555
Zn3_2 N3 1_555 1_555
Zn4_2 N4_2 1_555 1_555
Zn5_2 N1_2 1_555 1_555
C1_2 C2 1_555 1_555
C2 H1 1_555 1_555
C3 C2 1_555 1_555
H2 C3 1_555 1_555
C4 C3 1_555 1_555
C5_2 C4 1_555 1_555
H3_2 C5_2 1_555 1_555
C6_2 C1_2 1_555 1_555
H4_2 C6_2 1_555 1_555
C7_2 C1_2 1_555 1_555
C8 C4 1_555 1_555
C17_2 C18_2 1_555 1_555
C18_2 C19_2 1_555 1_555
C19_2 H9_2 1_555 1_555
C20_2 C19_2 1_555 1_555
H10_2 C20_2 1_555 1_555
C21_2 C20_2 1_555 1_555
H11_2 C21_2 1_555 1_555
C22_2 C17_2 1_555 1_555
H12_2 C22_2 1_555 1_555
C23 C24 1_555 1_555
C24 C25 1_555 1_555
C25 H13 1_555 1_555
C26 C25 1_555 1_555
H14 C26 1_555 1_555
C27 C26 1_555 1_555
C28 C23 1_555 1_555
H16 C28 1_555 1_555
C29_2 C30_2 1_555 1_555
C34_2 C29_2 1_555 1_555
H20_2 C34_2 1_555 1_555
C35 C36 1_555 1_555
C36 C37 1_555 1_555
C37 H21 1_555 1_555
C38 C37 1_555 1_555
H22 C38 1_555 1_555
C39 C38 1_555 1_555
H23 C39 1_555 1_555
C40 C35 1_555 1_555
H24 C40 1_555 1_555
C41_2 C42_2 1_555 1_555
C42_2 C43_2 1_555 1_555
C43_2 H25_2 1_555 1_555
C44_2 C43_2 1_555 1_555
H26_2 C44_2 1_555 1_555
C45_2 C44_2 1_555 1_555
H27_2 C45_2 1_555 1_555
C46_2 C41_2 1_555 1_555
H28_2 C46_2 1_555 1_555
C47_2 C48_2 1_555 1_555
C48_2 C49 1_555 1_555
C49 H29 1_555 1_555
C50 C49 1_555 1_555
H30 C50 1_555 1_555
C51 C50 1_555 1_555
H31 C51 1_555 1_555
C52 C47_2 1_555 1_555
H32_2 C52 1_555 1_555
N1_2 C18_2 1_555 1_555
N2_2 N1_2 1_555 1_555
N3 C23 1_555 1_555
N4_2 C17_2 1_555 1_555
N5 Zn1_2 1_555 1_555
N6 C24 1_555 1_555
N7_2 Zn3_2 1_555 1_555
N8_2 Zn1_2 1_555 1_555
N9_2 Zn4_2 1_555 1_555
N10 Zn2 1_555 1_555
N11_2 Zn1_2 1_555 1_555
N12_2 Zn5_2 1_555 1_555
N13_2 Zn3_2 1_555 1_555
N14_2 Zn1_2 1_555 1_555
N15_2 Zn5_2 1_555 1_555
N16_2 Zn2 1_555 1_555
N17_2 Zn1_2 1_555 1_555
N18_2 Zn4_2 1_555 1_555
O1_2 C7_2 1_555 1_555
O2_2 C7_2 1_555 1_555
O3 Zn2 1_555 1_555
O4 Zn2 1_555 1_555
O5_2 Zn3_2 1_555 1_555
O6_2 Zn3_2 1_555 1_555
O9_2 Zn5_2 1_555 1_555
O10_2 Zn4_2 1_555 1_555
Zn6_2 O1_2 1_555 1_555
O11_2 Zn4_2 1_555 1_555
O12_2 Zn4_2 1_555 1_555
O13_2 Zn5_2 1_555 1_555
O14_2 Zn5_2 1_555 1_555
C5_2 C6_2 1_555 1_555
C8 O3 1_555 1_555
C8 O4 1_555 1_555
C15_2 O5_2 1_555 1_555
C15_2 O6_2 1_555 1_555
C21_2 C22_2 1_555 1_555
C27 C28 1_555 1_555
C29_2 N9_2 1_555 1_555
C30_2 N7_2 1_555 1_555
C35 N12_2 1_555 1_555
C36 N10 1_555 1_555
C39 C40 1_555 1_555
C41_2 N13_2 1_555 1_555
C42_2 N15_2 1_555 1_555
C45_2 C46_2 1_555 1_555
C47_2 N16_2 1_555 1_555
C48_2 N18_2 1_555 1_555
C51 C52 1_555 1_555
N2_2 N4_2 1_555 1_555
N3 N5 1_555 1_555
N5 N6 1_555 1_555
N7_2 N8_2 1_555 1_555
N8_2 N9_2 1_555 1_555
N10 N11_2 1_555 1_555
N11_2 N12_2 1_555 1_555
N13_2 N14_2 1_555 1_555
N14_2 N15_2 1_555 1_555
N16_2 N17_2 1_555 1_555
N17_2 N18_2 1_555 1_555
O2_2 Zn6_2 1_555 1_555
O10_2 H33_2 1_555 1_555
O10_2 H34_2 1_555 1_555
O9_2 H35_2 1_555 1_555
O9_2 H36_2 1_555 1_555
C9_2 C10_2 1_555 1_555
C10_2 H5_2 1_555 1_555
C11_2 C10_2 1_555 1_555
H6_2 C11_2 1_555 1_555
C12_2 C11_2 1_555 1_555
C13_2 C12_2 1_555 1_555
H7_2 C13_2 1_555 1_555
C14_2 C9_2 1_555 1_555
H8_2 C14_2 1_555 1_555
C16_2 C12_2 1_555 1_555
C31_2 H17_2 1_555 1_555
C32_2 C31_2 1_555 1_555
H18_2 C32_2 1_555 1_555
C33_2 C32_2 1_555 1_555
H19_2 C33_2 1_555 1_555
O7_2 C16_2 1_555 1_555
O8_2 C16_2 1_555 1_555
Zn7_2 O7_2 1_555 1_555
C13_2 C14_2 1_555 1_555
O8_2 Zn7_2 1_555 1_555
H3_3 C5_3 1_555 1_555
C6_3 C1_3 1_555 1_555
H4_3 C6_3 1_555 1_555
C7_3 C1_3 1_555 1_555
C49_2 H29_2 1_555 1_555
C50_2 C49_2 1_555 1_555
H30_2 C50_2 1_555 1_555
C51_2 C50_2 1_555 1_555
H31_2 C51_2 1_555 1_555
H32_3 C52_2 1_555 1_555
O11 C7_3 1_555 1_555
O12 C7_3 1_555 1_555
C5_3 C6_3 1_555 1_555
C51_2 C52_2 1_555 1_555
Zn1_3 N2_3 1_555 1_555
Zn2_2 N6_2 1_555 1_555
Zn3_3 N3_2 1_555 1_555
Zn6 N4_3 1_555 1_555
Zn7_2 N1_3 1_555 1_555
C2_2 H1_2 1_555 1_555
C3_2 C2_2 1_555 1_555
H2_2 C3_2 1_555 1_555
C4_2 C3_2 1_555 1_555
C8_2 C4_2 1_555 1_555
C9_3 C10_3 1_555 1_555
C10_3 H5_3 1_555 1_555
C11_3 C10_3 1_555 1_555
H6_3 C11_3 1_555 1_555
C12_3 C11_3 1_555 1_555
C13_3 C12_3 1_555 1_555
H7_3 C13_3 1_555 1_555
C14_3 C9_3 1_555 1_555
H8_3 C14_3 1_555 1_555
C15_3 C9_3 1_555 1_555
C16_3 C12_3 1_555 1_555
C17_3 C18_3 1_555 1_555
C18_3 C19_3 1_555 1_555
C19_3 H9_3 1_555 1_555
C20_3 C19_3 1_555 1_555
H10_3 C20_3 1_555 1_555
C21_3 C20_3 1_555 1_555
H11_3 C21_3 1_555 1_555
C22_3 C17_3 1_555 1_555
H12_3 C22_3 1_555 1_555
C23_2 C24_2 1_555 1_555
C24_2 C25_2 1_555 1_555
C25_2 H13_2 1_555 1_555
C26_2 C25_2 1_555 1_555
H14_2 C26_2 1_555 1_555
C27_2 C26_2 1_555 1_555
H15_2 C27_2 1_555 1_555
C28_2 C23_2 1_555 1_555
H16_2 C28_2 1_555 1_555
C29_3 C30_3 1_555 1_555
C30_3 C31_3 1_555 1_555
C31_3 H17_3 1_555 1_555
C32_3 C31_3 1_555 1_555
H18_3 C32_3 1_555 1_555
C33_3 C32_3 1_555 1_555
H19_3 C33_3 1_555 1_555
C34_3 C29_3 1_555 1_555
H20_3 C34_3 1_555 1_555
C35_2 C36_2 1_555 1_555
C36_2 C37_2 1_555 1_555
C37_2 H21_2 1_555 1_555
C38_2 C37_2 1_555 1_555
H22_2 C38_2 1_555 1_555
C39_2 C38_2 1_555 1_555
H23_2 C39_2 1_555 1_555
C40_2 C35_2 1_555 1_555
H24_2 C40_2 1_555 1_555
C41_3 C42_3 1_555 1_555
C42_3 C43_3 1_555 1_555
C43_3 H25_3 1_555 1_555
C44_3 C43_3 1_555 1_555
H26_3 C44_3 1_555 1_555
C45_3 C44_3 1_555 1_555
H27_3 C45_3 1_555 1_555
C46_3 C41_3 1_555 1_555
H28_3 C46_3 1_555 1_555
C47_3 C48_3 1_555 1_555
N1_3 C18_3 1_555 1_555
N2_3 N1_3 1_555 1_555
N3_2 C23_2 1_555 1_555
N4_3 C17_3 1_555 1_555
N5_2 Zn1_3 1_555 1_555
N6_2 C24_2 1_555 1_555
N7_3 Zn3_3 1_555 1_555
N8_3 Zn1_3 1_555 1_555
N9_3 Zn6 1_555 1_555
N10_2 Zn2_2 1_555 1_555
N11_3 Zn1_3 1_555 1_555
N12_3 Zn7_2 1_555 1_555
N13_3 Zn3_3 1_555 1_555
N14_3 Zn1_3 1_555 1_555
N15_3 Zn7_2 1_555 1_555
N16_3 Zn2_2 1_555 1_555
N17_3 Zn1_3 1_555 1_555
N18_3 Zn6 1_555 1_555
O3_2 Zn2_2 1_555 1_555
O4_2 Zn2_2 1_555 1_555
O5_3 Zn3_3 1_555 1_555
O6_3 Zn3_3 1_555 1_555
O13_2 C16_3 1_555 1_555
O14_2 C16_3 1_555 1_555
O9_3 Zn7_2 1_555 1_555
O10_3 Zn6 1_555 1_555
C8_2 O3_2 1_555 1_555
C8_2 O4_2 1_555 1_555
C13_3 C14_3 1_555 1_555
C15_3 O5_3 1_555 1_555
C15_3 O6_3 1_555 1_555
C21_3 C22_3 1_555 1_555
C27_2 C28_2 1_555 1_555
C29_3 N9_3 1_555 1_555
C30_3 N7_3 1_555 1_555
C33_3 C34_3 1_555 1_555
C35_2 N12_3 1_555 1_555
C36_2 N10_2 1_555 1_555
C39_2 C40_2 1_555 1_555
C41_3 N13_3 1_555 1_555
C42_3 N15_3 1_555 1_555
C45_3 C46_3 1_555 1_555
C47_3 N16_3 1_555 1_555
C48_3 N18_3 1_555 1_555
N2_3 N4_3 1_555 1_555
N3_2 N5_2 1_555 1_555
N5_2 N6_2 1_555 1_555
N7_3 N8_3 1_555 1_555
N8_3 N9_3 1_555 1_555
N10_2 N11_3 1_555 1_555
N11_3 N12_3 1_555 1_555
N13_3 N14_3 1_555 1_555
N14_3 N15_3 1_555 1_555
N16_3 N17_3 1_555 1_555
N17_3 N18_3 1_555 1_555
O10_3 H33_3 1_555 1_555
O10_3 H34_3 1_555 1_555
O9_3 H35_3 1_555 1_555
O9_3 H36_3 1_555 1_555
Zn1_4 N2_4 1_555 1_555
Zn6_2 N4_4 1_555 1_555
Zn7 N1_4 1_555 1_555
C17_4 C18_4 1_555 1_555
C18_4 C19_4 1_555 1_555
C19_4 H9_4 1_555 1_555
C20_4 C19_4 1_555 1_555
H10_4 C20_4 1_555 1_555
C21_4 C20_4 1_555 1_555
H11_4 C21_4 1_555 1_555
C22_4 C17_4 1_555 1_555
H12_4 C22_4 1_555 1_555
C29_4 C30_4 1_555 1_555
C34_4 C29_4 1_555 1_555
H20_4 C34_4 1_555 1_555
C41_4 C42_4 1_555 1_555
C42_4 C43_4 1_555 1_555
C43_4 H25_4 1_555 1_555
C44_4 C43_4 1_555 1_555
H26_4 C44_4 1_555 1_555
C45_4 C44_4 1_555 1_555
H27_4 C45_4 1_555 1_555
C46_4 C41_4 1_555 1_555
H28_4 C46_4 1_555 1_555
C47_4 C48_4 1_555 1_555
C48_4 C49_3 1_555 1_555
C49_3 H29_3 1_555 1_555
C50_3 C49_3 1_555 1_555
H30_3 C50_3 1_555 1_555
C51_3 C50_3 1_555 1_555
H31_3 C51_3 1_555 1_555
C52_3 C47_4 1_555 1_555
N1_4 C18_4 1_555 1_555
N2_4 N1_4 1_555 1_555
N4_4 C17_4 1_555 1_555
N7_4 Zn3_4 1_555 1_555
N8_4 Zn1_4 1_555 1_555
N9_4 Zn6_2 1_555 1_555
N11_4 Zn1_4 1_555 1_555
N12_4 Zn7 1_555 1_555
N13_4 Zn3_4 1_555 1_555
N14_4 Zn1_4 1_555 1_555
N15_4 Zn7 1_555 1_555
N17_4 Zn1_4 1_555 1_555
N18_4 Zn6_2 1_555 1_555
O5_4 Zn3_4 1_555 1_555
O6_4 Zn3_4 1_555 1_555
O9_4 Zn7 1_555 1_555
O10_4 Zn6_2 1_555 1_555
C15_4 O5_4 1_555 1_555
C15_4 O6_4 1_555 1_555
C21_4 C22_4 1_555 1_555
C29_4 N9_4 1_555 1_555
C30_4 N7_4 1_555 1_555
C41_4 N13_4 1_555 1_555
C42_4 N15_4 1_555 1_555
C45_4 C46_4 1_555 1_555
C47_4 N16_4 1_555 1_555
C48_4 N18_4 1_555 1_555
C51_3 C52_3 1_555 1_555
N2_4 N4_4 1_555 1_555
N7_4 N8_4 1_555 1_555
N8_4 N9_4 1_555 1_555
N11_4 N12_4 1_555 1_555
N13_4 N14_4 1_555 1_555
N14_4 N15_4 1_555 1_555
N16_4 N17_4 1_555 1_555
N17_4 N18_4 1_555 1_555
O10_4 H33_4 1_555 1_555
O10_4 H34_4 1_555 1_555
O9_4 H35_4 1_555 1_555
O9_4 H36_4 1_555 1_555
Zn2_3 N6_3 1_555 1_555
C1_4 C2_3 1_555 1_555
C2_3 H1_3 1_555 1_555
C3_3 C2_3 1_555 1_555
H2_3 C3_3 1_555 1_555
C4_3 C3_3 1_555 1_555
C5_4 C4_3 1_555 1_555
H3_4 C5_4 1_555 1_555
C6_4 C1_4 1_555 1_555
H4_4 C6_4 1_555 1_555
C7_4 C1_4 1_555 1_555
C8_3 C4_3 1_555 1_555
C23_3 C24_3 1_555 1_555
C24_3 C25_3 1_555 1_555
C25_3 H13_3 1_555 1_555
C26_3 C25_3 1_555 1_555
H14_3 C26_3 1_555 1_555
C27_3 C26_3 1_555 1_555
C28_3 C23_3 1_555 1_555
H16_3 C28_3 1_555 1_555
C35_3 C36_3 1_555 1_555
C36_3 C37_3 1_555 1_555
C37_3 H21_3 1_555 1_555
C38_3 C37_3 1_555 1_555
H22_3 C38_3 1_555 1_555
C39_3 C38_3 1_555 1_555
H23_3 C39_3 1_555 1_555
C40_3 C35_3 1_555 1_555
H24_3 C40_3 1_555 1_555
N3_3 C23_3 1_555 1_555
N6_3 C24_3 1_555 1_555
N10_3 Zn2_3 1_555 1_555
O11_2 C7_4 1_555 1_555
O12_2 C7_4 1_555 1_555
O3_3 Zn2_3 1_555 1_555
O4_3 Zn2_3 1_555 1_555
C5_4 C6_4 1_555 1_555
C8_3 O3_3 1_555 1_555
C8_3 O4_3 1_555 1_555
C27_3 C28_3 1_555 1_555
C36_3 N10_3 1_555 1_555
C39_3 C40_3 1_555 1_555
N3_3 N5_3 1_555 1_555
N5_3 N6_3 1_555 1_555
C9_4 C10_4 1_555 1_555
C10_4 H5_4 1_555 1_555
C11_4 C10_4 1_555 1_555
H6_4 C11_4 1_555 1_555
C12_4 C11_4 1_555 1_555
C13_4 C12_4 1_555 1_555
H7_4 C13_4 1_555 1_555
C14_4 C9_4 1_555 1_555
H8_4 C14_4 1_555 1_555
C16_4 C12_4 1_555 1_555
C31_4 H17_4 1_555 1_555
C32_4 C31_4 1_555 1_555
H18_4 C32_4 1_555 1_555
C33_4 C32_4 1_555 1_555
H19_4 C33_4 1_555 1_555
O13 C16_4 1_555 1_555
O14 C16_4 1_555 1_555
C13_4 C14_4 1_555 1_555
C49_4 H29_4 1_555 1_555
C50_4 C49_4 1_555 1_555
H30_4 C50_4 1_555 1_555
C51_4 C50_4 1_555 1_555
H31_4 C51_4 1_555 1_555
C51_4 C52_4 1_555 1_555
Zn2_4 N6_4 1_555 1_555
C2_4 H1_4 1_555 1_555
C3_4 C2_4 1_555 1_555
H2_4 C3_4 1_555 1_555
C4_4 C3_4 1_555 1_555
C8_4 C4_4 1_555 1_555
C23_4 C24_4 1_555 1_555
C24_4 C25_4 1_555 1_555
C25_4 H13_4 1_555 1_555
C26_4 C25_4 1_555 1_555
H14_4 C26_4 1_555 1_555
C27_4 C26_4 1_555 1_555
H15_3 C27_4 1_555 1_555
C28_4 C23_4 1_555 1_555
H16_4 C28_4 1_555 1_555
C35_4 C36_4 1_555 1_555
C36_4 C37_4 1_555 1_555
C37_4 H21_4 1_555 1_555
C38_4 C37_4 1_555 1_555
H22_4 C38_4 1_555 1_555
C39_4 C38_4 1_555 1_555
H23_4 C39_4 1_555 1_555
C40_4 C35_4 1_555 1_555
H24_4 C40_4 1_555 1_555
N3_4 C23_4 1_555 1_555
N6_4 C24_4 1_555 1_555
N10_4 Zn2_4 1_555 1_555
O3_4 Zn2_4 1_555 1_555
O4_4 Zn2_4 1_555 1_555
C8_4 O3_4 1_555 1_555
C8_4 O4_4 1_555 1_555
C27_4 C28_4 1_555 1_555
C36_4 N10_4 1_555 1_555
C39_4 C40_4 1_555 1_555
N3_4 N5_4 1_555 1_555
N5_4 N6_4 1_555 1_555
Zn1_5 N2_5 1_555 1_555
Zn2_5 N6_5 1_555 1_555
Zn3_5 N3_5 1_555 1_555
Zn4_3 N4_5 1_555 1_555
Zn5_3 N1_5 1_555 1_555
C2_5 H1_5 1_555 1_555
C3_5 C2_5 1_555 1_555
H2_5 C3_5 1_555 1_555
C4_5 C3_5 1_555 1_555
C8_5 C4_5 1_555 1_555
C9_5 C10_5 1_555 1_555
C10_5 H5_5 1_555 1_555
C11_5 C10_5 1_555 1_555
H6_5 C11_5 1_555 1_555
C12_5 C11_5 1_555 1_555
C13_5 C12_5 1_555 1_555
H7_5 C13_5 1_555 1_555
C14_5 C9_5 1_555 1_555
H8_5 C14_5 1_555 1_555
C15_5 C9_5 1_555 1_555
C16_5 C12_5 1_555 1_555
C17_5 C18_5 1_555 1_555
C18_5 C19_5 1_555 1_555
C19_5 H9_5 1_555 1_555
C20_5 C19_5 1_555 1_555
H10_5 C20_5 1_555 1_555
C21_5 C20_5 1_555 1_555
H11_5 C21_5 1_555 1_555
C22_5 C17_5 1_555 1_555
H12_5 C22_5 1_555 1_555
C23_5 C24_5 1_555 1_555
C24_5 C25_5 1_555 1_555
C25_5 H13_5 1_555 1_555
C26_5 C25_5 1_555 1_555
H14_5 C26_5 1_555 1_555
C27_5 C26_5 1_555 1_555
H15_4 C27_5 1_555 1_555
C28_5 C23_5 1_555 1_555
H16_5 C28_5 1_555 1_555
C29_5 C30_5 1_555 1_555
C30_5 C31_5 1_555 1_555
C31_5 H17_5 1_555 1_555
C32_5 C31_5 1_555 1_555
H18_5 C32_5 1_555 1_555
C33_5 C32_5 1_555 1_555
H19_5 C33_5 1_555 1_555
C34_5 C29_5 1_555 1_555
H20_5 C34_5 1_555 1_555
C35_5 C36_5 1_555 1_555
C36_5 C37_5 1_555 1_555
C37_5 H21_5 1_555 1_555
C38_5 C37_5 1_555 1_555
H22_5 C38_5 1_555 1_555
C39_5 C38_5 1_555 1_555
H23_5 C39_5 1_555 1_555
C40_5 C35_5 1_555 1_555
H24_5 C40_5 1_555 1_555
C41_5 C42_5 1_555 1_555
C42_5 C43_5 1_555 1_555
C43_5 H25_5 1_555 1_555
C44_5 C43_5 1_555 1_555
H26_5 C44_5 1_555 1_555
C45_5 C44_5 1_555 1_555
H27_5 C45_5 1_555 1_555
C46_5 C41_5 1_555 1_555
H28_5 C46_5 1_555 1_555
C47_5 C48_5 1_555 1_555
N1_5 C18_5 1_555 1_555
N2_5 N1_5 1_555 1_555
N3_5 C23_5 1_555 1_555
N4_5 C17_5 1_555 1_555
N5_5 Zn1_5 1_555 1_555
N6_5 C24_5 1_555 1_555
N7_5 Zn3_5 1_555 1_555
N8_5 Zn1_5 1_555 1_555
N9_5 Zn4_3 1_555 1_555
N10_5 Zn2_5 1_555 1_555
N11_5 Zn1_5 1_555 1_555
N12_5 Zn5_3 1_555 1_555
N13_5 Zn3_5 1_555 1_555
N14_5 Zn1_5 1_555 1_555
N15_5 Zn5_3 1_555 1_555
N16_5 Zn2_5 1_555 1_555
N17_5 Zn1_5 1_555 1_555
N18_5 Zn4_3 1_555 1_555
O3_5 Zn2_5 1_555 1_555
O4_5 Zn2_5 1_555 1_555
O5_5 Zn3_5 1_555 1_555
O6_5 Zn3_5 1_555 1_555
O7_3 C16_5 1_555 1_555
O8_3 C16_5 1_555 1_555
O9_5 Zn5_3 1_555 1_555
O10_5 Zn4_3 1_555 1_555
Zn7_3 O7_3 1_555 1_555
O11_3 Zn4_3 1_555 1_555
O12_3 Zn4_3 1_555 1_555
O13_3 Zn5_3 1_555 1_555
O14_3 Zn5_3 1_555 1_555
C8_5 O3_5 1_555 1_555
C8_5 O4_5 1_555 1_555
C13_5 C14_5 1_555 1_555
C15_5 O5_5 1_555 1_555
C15_5 O6_5 1_555 1_555
C21_5 C22_5 1_555 1_555
C27_5 C28_5 1_555 1_555
C29_5 N9_5 1_555 1_555
C30_5 N7_5 1_555 1_555
C33_5 C34_5 1_555 1_555
C35_5 N12_5 1_555 1_555
C36_5 N10_5 1_555 1_555
C39_5 C40_5 1_555 1_555
C41_5 N13_5 1_555 1_555
C42_5 N15_5 1_555 1_555
C45_5 C46_5 1_555 1_555
C47_5 N16_5 1_555 1_555
C48_5 N18_5 1_555 1_555
N2_5 N4_5 1_555 1_555
N3_5 N5_5 1_555 1_555
N5_5 N6_5 1_555 1_555
N7_5 N8_5 1_555 1_555
N8_5 N9_5 1_555 1_555
N10_5 N11_5 1_555 1_555
N11_5 N12_5 1_555 1_555
N13_5 N14_5 1_555 1_555
N14_5 N15_5 1_555 1_555
N16_5 N17_5 1_555 1_555
N17_5 N18_5 1_555 1_555
O8_3 Zn7_3 1_555 1_555
O10_5 H33_5 1_555 1_555
O10_5 H34_5 1_555 1_555
O9_5 H35_5 1_555 1_555
O9_5 H36_5 1_555 1_555
H3_5 C5_5 1_555 1_555
C6_5 C1_5 1_555 1_555
H4_5 C6_5 1_555 1_555
C7_5 C1_5 1_555 1_555
C49_5 H29_5 1_555 1_555
C50_5 C49_5 1_555 1_555
H30_5 C50_5 1_555 1_555
C51_5 C50_5 1_555 1_555
H31_5 C51_5 1_555 1_555
H32_5 C52_5 1_555 1_555
O1_3 C7_5 1_555 1_555
O2_3 C7_5 1_555 1_555
Zn6_3 O1_3 1_555 1_555
C5_5 C6_5 1_555 1_555
C51_5 C52_5 1_555 1_555
O2_3 Zn6_3 1_555 1_555
C9_6 C10_6 1_555 1_555
C10_6 H5_6 1_555 1_555
C11_6 C10_6 1_555 1_555
H6_6 C11_6 1_555 1_555
C12_6 C11_6 1_555 1_555
C13_6 C12_6 1_555 1_555
H7_6 C13_6 1_555 1_555
C14_6 C9_6 1_555 1_555
H8_6 C14_6 1_555 1_555
C16_6 C12_6 1_555 1_555
C31_6 H17_6 1_555 1_555
C32_6 C31_6 1_555 1_555
H18_6 C32_6 1_555 1_555
C33_6 C32_6 1_555 1_555
H19_6 C33_6 1_555 1_555
O7_4 C16_6 1_555 1_555
O8_4 C16_6 1_555 1_555
Zn7_4 O7_4 1_555 1_555
C13_6 C14_6 1_555 1_555
O8_4 Zn7_4 1_555 1_555
Zn2_6 N6_6 1_555 1_555
C1_6 C2_6 1_555 1_555
C2_6 H1_6 1_555 1_555
C3_6 C2_6 1_555 1_555
H2_6 C3_6 1_555 1_555
C4_6 C3_6 1_555 1_555
C5_6 C4_6 1_555 1_555
H3_6 C5_6 1_555 1_555
C6_6 C1_6 1_555 1_555
H4_6 C6_6 1_555 1_555
C7_6 C1_6 1_555 1_555
C8_6 C4_6 1_555 1_555
C23_6 C24_6 1_555 1_555
C24_6 C25_6 1_555 1_555
C25_6 H13_6 1_555 1_555
C26_6 C25_6 1_555 1_555
H14_6 C26_6 1_555 1_555
C27_6 C26_6 1_555 1_555
C28_6 C23_6 1_555 1_555
H16_6 C28_6 1_555 1_555
C35_6 C36_6 1_555 1_555
C36_6 C37_6 1_555 1_555
C37_6 H21_6 1_555 1_555
C38_6 C37_6 1_555 1_555
H22_6 C38_6 1_555 1_555
C39_6 C38_6 1_555 1_555
H23_6 C39_6 1_555 1_555
C40_6 C35_6 1_555 1_555
H24_6 C40_6 1_555 1_555
N3_6 C23_6 1_555 1_555
N6_6 C24_6 1_555 1_555
N10_6 Zn2_6 1_555 1_555
O1_4 C7_6 1_555 1_555
O2_4 C7_6 1_555 1_555
O3_6 Zn2_6 1_555 1_555
O4_6 Zn2_6 1_555 1_555
Zn6_4 O1_4 1_555 1_555
C5_6 C6_6 1_555 1_555
C8_6 O3_6 1_555 1_555
C8_6 O4_6 1_555 1_555
C27_6 C28_6 1_555 1_555
C36_6 N10_6 1_555 1_555
C39_6 C40_6 1_555 1_555
N3_6 N5_6 1_555 1_555
N5_6 N6_6 1_555 1_555
O2_4 Zn6_4 1_555 1_555
Zn1_6 N2_6 1_555 1_555
Zn4_4 N4_6 1_555 1_555
Zn5_4 N1_6 1_555 1_555
C17_6 C18_6 1_555 1_555
C18_6 C19_6 1_555 1_555
C19_6 H9_6 1_555 1_555
C20_6 C19_6 1_555 1_555
H10_6 C20_6 1_555 1_555
C21_6 C20_6 1_555 1_555
H11_6 C21_6 1_555 1_555
C22_6 C17_6 1_555 1_555
H12_6 C22_6 1_555 1_555
C29_6 C30_6 1_555 1_555
C34_6 C29_6 1_555 1_555
H20_6 C34_6 1_555 1_555
C41_6 C42_6 1_555 1_555
C42_6 C43_6 1_555 1_555
C43_6 H25_6 1_555 1_555
C44_6 C43_6 1_555 1_555
H26_6 C44_6 1_555 1_555
C45_6 C44_6 1_555 1_555
H27_6 C45_6 1_555 1_555
C46_6 C41_6 1_555 1_555
H28_6 C46_6 1_555 1_555
C47_6 C48_6 1_555 1_555
C48_6 C49_6 1_555 1_555
C49_6 H29_6 1_555 1_555
C50_6 C49_6 1_555 1_555
H30_6 C50_6 1_555 1_555
C51_6 C50_6 1_555 1_555
H31_6 C51_6 1_555 1_555
C52_6 C47_6 1_555 1_555
N1_6 C18_6 1_555 1_555
N2_6 N1_6 1_555 1_555
N4_6 C17_6 1_555 1_555
N7_6 Zn3_6 1_555 1_555
N8_6 Zn1_6 1_555 1_555
N9_6 Zn4_4 1_555 1_555
N11_6 Zn1_6 1_555 1_555
N12_6 Zn5_4 1_555 1_555
N13_6 Zn3_6 1_555 1_555
N14_6 Zn1_6 1_555 1_555
N15_6 Zn5_4 1_555 1_555
N17_6 Zn1_6 1_555 1_555
N18_6 Zn4_4 1_555 1_555
O5_6 Zn3_6 1_555 1_555
O6_6 Zn3_6 1_555 1_555
O9_6 Zn5_4 1_555 1_555
O10_6 Zn4_4 1_555 1_555
O11_4 Zn4_4 1_555 1_555
O12_4 Zn4_4 1_555 1_555
O13_4 Zn5_4 1_555 1_555
O14_4 Zn5_4 1_555 1_555
C15_6 O5_6 1_555 1_555
C15_6 O6_6 1_555 1_555
C21_6 C22_6 1_555 1_555
C29_6 N9_6 1_555 1_555
C30_6 N7_6 1_555 1_555
C41_6 N13_6 1_555 1_555
C42_6 N15_6 1_555 1_555
C45_6 C46_6 1_555 1_555
C47_6 N16_6 1_555 1_555
C48_6 N18_6 1_555 1_555
C51_6 C52_6 1_555 1_555
N2_6 N4_6 1_555 1_555
N7_6 N8_6 1_555 1_555
N8_6 N9_6 1_555 1_555
N11_6 N12_6 1_555 1_555
N13_6 N14_6 1_555 1_555
N14_6 N15_6 1_555 1_555
N16_6 N17_6 1_555 1_555
N17_6 N18_6 1_555 1_555
O10_6 H33_6 1_555 1_555
O10_6 H34_6 1_555 1_555
O9_6 H35_6 1_555 1_555
O9_6 H36_6 1_555 1_555
H3_7 C5_7 1_555 1_555
C6_7 C1_7 1_555 1_555
H4_7 C6_7 1_555 1_555
C7_7 C1_7 1_555 1_555
O11_3 C7_7 1_555 1_555
O12_3 C7_7 1_555 1_555
C5_7 C6_7 1_555 1_555
Zn1_7 N2_7 1_555 1_555
Zn6_3 N4_7 1_555 1_555
Zn7_4 N1_7 1_555 1_555
C9_7 C10_7 1_555 1_555
C10_7 H5_7 1_555 1_555
C11_7 C10_7 1_555 1_555
H6_7 C11_7 1_555 1_555
C12_7 C11_7 1_555 1_555
C13_7 C12_7 1_555 1_555
H7_7 C13_7 1_555 1_555
C14_7 C9_7 1_555 1_555
H8_7 C14_7 1_555 1_555
C15_7 C9_7 1_555 1_555
C16_7 C12_7 1_555 1_555
C17_7 C18_7 1_555 1_555
C18_7 C19_7 1_555 1_555
C19_7 H9_7 1_555 1_555
C20_7 C19_7 1_555 1_555
H10_7 C20_7 1_555 1_555
C21_7 C20_7 1_555 1_555
H11_7 C21_7 1_555 1_555
C22_7 C17_7 1_555 1_555
H12_7 C22_7 1_555 1_555
C29_7 C30_7 1_555 1_555
C30_7 C31_7 1_555 1_555
C31_7 H17_7 1_555 1_555
C32_7 C31_7 1_555 1_555
H18_7 C32_7 1_555 1_555
C33_7 C32_7 1_555 1_555
H19_7 C33_7 1_555 1_555
C34_7 C29_7 1_555 1_555
H20_7 C34_7 1_555 1_555
C41_7 C42_7 1_555 1_555
C42_7 C43_7 1_555 1_555
C43_7 H25_7 1_555 1_555
C44_7 C43_7 1_555 1_555
H26_7 C44_7 1_555 1_555
C45_7 C44_7 1_555 1_555
H27_7 C45_7 1_555 1_555
C46_7 C41_7 1_555 1_555
H28_7 C46_7 1_555 1_555
C47_7 C48_7 1_555 1_555
N1_7 C18_7 1_555 1_555
N2_7 N1_7 1_555 1_555
N4_7 C17_7 1_555 1_555
N7_7 Zn3_7 1_555 1_555
N8_7 Zn1_7 1_555 1_555
N9_7 Zn6_3 1_555 1_555
N11_7 Zn1_7 1_555 1_555
N12_7 Zn7_4 1_555 1_555
N13_7 Zn3_7 1_555 1_555
N14_7 Zn1_7 1_555 1_555
N15_7 Zn7_4 1_555 1_555
N17_7 Zn1_7 1_555 1_555
N18_7 Zn6_3 1_555 1_555
O5_7 Zn3_7 1_555 1_555
O6_7 Zn3_7 1_555 1_555
O13_4 C16_7 1_555 1_555
O14_4 C16_7 1_555 1_555
O9_7 Zn7_4 1_555 1_555
O10_7 Zn6_3 1_555 1_555
C13_7 C14_7 1_555 1_555
C15_7 O5_7 1_555 1_555
C15_7 O6_7 1_555 1_555
C21_7 C22_7 1_555 1_555
C29_7 N9_7 1_555 1_555
C30_7 N7_7 1_555 1_555
C33_7 C34_7 1_555 1_555
C41_7 N13_7 1_555 1_555
C42_7 N15_7 1_555 1_555
C45_7 C46_7 1_555 1_555
C47_7 N16_7 1_555 1_555
C48_7 N18_7 1_555 1_555
N2_7 N4_7 1_555 1_555
N7_7 N8_7 1_555 1_555
N8_7 N9_7 1_555 1_555
N11_7 N12_7 1_555 1_555
N13_7 N14_7 1_555 1_555
N14_7 N15_7 1_555 1_555
N16_7 N17_7 1_555 1_555
N17_7 N18_7 1_555 1_555
O10_7 H33_7 1_555 1_555
O10_7 H34_7 1_555 1_555
O9_7 H35_7 1_555 1_555
O9_7 H36_7 1_555 1_555
C9_8 C10_8 1_555 1_555
C10_8 H5_8 1_555 1_555
C11_8 C10_8 1_555 1_555
H6_8 C11_8 1_555 1_555
C12_8 C11_8 1_555 1_555
C13_8 C12_8 1_555 1_555
H7_8 C13_8 1_555 1_555
C14_8 C9_8 1_555 1_555
H8_8 C14_8 1_555 1_555
C16_8 C12_8 1_555 1_555
C31_8 H17_8 1_555 1_555
C32_8 C31_8 1_555 1_555
H18_8 C32_8 1_555 1_555
C33_8 C32_8 1_555 1_555
H19_8 C33_8 1_555 1_555
O13_3 C16_8 1_555 1_555
O14_3 C16_8 1_555 1_555
C13_8 C14_8 1_555 1_555
Zn1_8 N2_8 1_555 1_555
Zn2_7 N6_7 1_555 1_555
Zn3_8 N3_7 1_555 1_555
Zn6_4 N4_8 1_555 1_555
Zn7_3 N1_8 1_555 1_555
C1_8 C2_7 1_555 1_555
C2_7 H1_7 1_555 1_555
C3_7 C2_7 1_555 1_555
H2_7 C3_7 1_555 1_555
C4_7 C3_7 1_555 1_555
C5_8 C4_7 1_555 1_555
H3_8 C5_8 1_555 1_555
C6_8 C1_8 1_555 1_555
H4_8 C6_8 1_555 1_555
C7_8 C1_8 1_555 1_555
C8_7 C4_7 1_555 1_555
C17_8 C18_8 1_555 1_555
C18_8 C19_8 1_555 1_555
C19_8 H9_8 1_555 1_555
C20_8 C19_8 1_555 1_555
H10_8 C20_8 1_555 1_555
C21_8 C20_8 1_555 1_555
H11_8 C21_8 1_555 1_555
C22_8 C17_8 1_555 1_555
H12_8 C22_8 1_555 1_555
C23_7 C24_7 1_555 1_555
C24_7 C25_7 1_555 1_555
C25_7 H13_7 1_555 1_555
C26_7 C25_7 1_555 1_555
H14_7 C26_7 1_555 1_555
C27_7 C26_7 1_555 1_555
C28_7 C23_7 1_555 1_555
H16_7 C28_7 1_555 1_555
C29_8 C30_8 1_555 1_555
C34_8 C29_8 1_555 1_555
H20_8 C34_8 1_555 1_555
C35_7 C36_7 1_555 1_555
C36_7 C37_7 1_555 1_555
C37_7 H21_7 1_555 1_555
C38_7 C37_7 1_555 1_555
H22_7 C38_7 1_555 1_555
C39_7 C38_7 1_555 1_555
H23_7 C39_7 1_555 1_555
C40_7 C35_7 1_555 1_555
H24_7 C40_7 1_555 1_555
C41_8 C42_8 1_555 1_555
C42_8 C43_8 1_555 1_555
C43_8 H25_8 1_555 1_555
C44_8 C43_8 1_555 1_555
H26_8 C44_8 1_555 1_555
C45_8 C44_8 1_555 1_555
H27_8 C45_8 1_555 1_555
C46_8 C41_8 1_555 1_555
H28_8 C46_8 1_555 1_555
C47_8 C48_8 1_555 1_555
C48_8 C49_7 1_555 1_555
C49_7 H29_7 1_555 1_555
C50_7 C49_7 1_555 1_555
H30_7 C50_7 1_555 1_555
C51_7 C50_7 1_555 1_555
H31_7 C51_7 1_555 1_555
C52_7 C47_8 1_555 1_555
H32_8 C52_7 1_555 1_555
N1_8 C18_8 1_555 1_555
N2_8 N1_8 1_555 1_555
N3_7 C23_7 1_555 1_555
N4_8 C17_8 1_555 1_555
N5_7 Zn1_8 1_555 1_555
N6_7 C24_7 1_555 1_555
N7_8 Zn3_8 1_555 1_555
N8_8 Zn1_8 1_555 1_555
N9_8 Zn6_4 1_555 1_555
N10_7 Zn2_7 1_555 1_555
N11_8 Zn1_8 1_555 1_555
N12_8 Zn7_3 1_555 1_555
N13_8 Zn3_8 1_555 1_555
N14_8 Zn1_8 1_555 1_555
N15_8 Zn7_3 1_555 1_555
N16_8 Zn2_7 1_555 1_555
N17_8 Zn1_8 1_555 1_555
N18_8 Zn6_4 1_555 1_555
O11_4 C7_8 1_555 1_555
O12_4 C7_8 1_555 1_555
O3_7 Zn2_7 1_555 1_555
O4_7 Zn2_7 1_555 1_555
O5_8 Zn3_8 1_555 1_555
O6_8 Zn3_8 1_555 1_555
O9_8 Zn7_3 1_555 1_555
O10_8 Zn6_4 1_555 1_555
C5_8 C6_8 1_555 1_555
C8_7 O3_7 1_555 1_555
C8_7 O4_7 1_555 1_555
C15_8 O5_8 1_555 1_555
C15_8 O6_8 1_555 1_555
C21_8 C22_8 1_555 1_555
C27_7 C28_7 1_555 1_555
C29_8 N9_8 1_555 1_555
C30_8 N7_8 1_555 1_555
C35_7 N12_8 1_555 1_555
C36_7 N10_7 1_555 1_555
C39_7 C40_7 1_555 1_555
C41_8 N13_8 1_555 1_555
C42_8 N15_8 1_555 1_555
C45_8 C46_8 1_555 1_555
C47_8 N16_8 1_555 1_555
C48_8 N18_8 1_555 1_555
C51_7 C52_7 1_555 1_555
N2_8 N4_8 1_555 1_555
N3_7 N5_7 1_555 1_555
N5_7 N6_7 1_555 1_555
N7_8 N8_8 1_555 1_555
N8_8 N9_8 1_555 1_555
N10_7 N11_8 1_555 1_555
N11_8 N12_8 1_555 1_555
N13_8 N14_8 1_555 1_555
N14_8 N15_8 1_555 1_555
N16_8 N17_8 1_555 1_555
N17_8 N18_8 1_555 1_555
O10_8 H33_8 1_555 1_555
O10_8 H34_8 1_555 1_555
O9_8 H35_8 1_555 1_555
O9_8 H36_8 1_555 1_555
O1_5 C7_9 1_555 1_555
O2_5 C7_9 1_555 1_555
Zn6_5 O1_5 1_555 1_555
O2_5 Zn6_5 1_555 1_555
C18_9 C19_9 1_555 1_555
C19_9 H9_9 1_555 1_555
C20_9 C19_9 1_555 1_555
H10_9 C20_9 1_555 1_555
C21_9 C20_9 1_555 1_555
H11_9 C21_9 1_555 1_555
C35_8 C36_8 1_555 1_555
C36_8 C37_8 1_555 1_555
C37_8 H21_8 1_555 1_555
C38_8 C37_8 1_555 1_555
H22_8 C38_8 1_555 1_555
C39_8 C38_8 1_555 1_555
H23_8 C39_8 1_555 1_555
C40_8 C35_8 1_555 1_555
H24_8 C40_8 1_555 1_555
N12_9 Zn5_5 1_555 1_555
O9_9 Zn5_5 1_555 1_555
O13_5 Zn5_5 1_555 1_555
O14_5 Zn5_5 1_555 1_555
C35_8 N12_9 1_555 1_555
C39_8 C40_8 1_555 1_555
O9_9 H36_9 1_555 1_555
Zn1_9 N2_9 1_555 1_555
Zn2_8 N6_8 1_555 1_555
Zn3_9 N3_8 1_555 1_555
Zn4_5 N4_9 1_555 1_555
C1_9 C2_8 1_555 1_555
C3_8 C2_8 1_555 1_555
H2_8 C3_8 1_555 1_555
C4_8 C3_8 1_555 1_555
C5_9 C4_8 1_555 1_555
H3_9 C5_9 1_555 1_555
C6_9 C1_9 1_555 1_555
H4_9 C6_9 1_555 1_555
C8_8 C4_8 1_555 1_555
C9_9 C10_9 1_555 1_555
C10_9 H5_9 1_555 1_555
C11_9 C10_9 1_555 1_555
H6_9 C11_9 1_555 1_555
C12_9 C11_9 1_555 1_555
C13_9 C12_9 1_555 1_555
H7_9 C13_9 1_555 1_555
C14_9 C9_9 1_555 1_555
H8_9 C14_9 1_555 1_555
C15_9 C9_9 1_555 1_555
C16_9 C12_9 1_555 1_555
C22_9 C17_9 1_555 1_555
H12_9 C22_9 1_555 1_555
C23_8 C24_8 1_555 1_555
C24_8 C25_8 1_555 1_555
C25_8 H13_8 1_555 1_555
C26_8 C25_8 1_555 1_555
H14_8 C26_8 1_555 1_555
C27_8 C26_8 1_555 1_555
H15_6 C27_8 1_555 1_555
C28_8 C23_8 1_555 1_555
H16_8 C28_8 1_555 1_555
C29_9 C30_9 1_555 1_555
C30_9 C31_9 1_555 1_555
C31_9 H17_9 1_555 1_555
C32_9 C31_9 1_555 1_555
H18_9 C32_9 1_555 1_555
C33_9 C32_9 1_555 1_555
H19_9 C33_9 1_555 1_555
C34_9 C29_9 1_555 1_555
H20_9 C34_9 1_555 1_555
C41_9 C42_9 1_555 1_555
C42_9 C43_9 1_555 1_555
C43_9 H25_9 1_555 1_555
C44_9 C43_9 1_555 1_555
H26_9 C44_9 1_555 1_555
C45_9 C44_9 1_555 1_555
H27_9 C45_9 1_555 1_555
C46_9 C41_9 1_555 1_555
H28_9 C46_9 1_555 1_555
C47_9 C48_9 1_555 1_555
C48_9 C49_8 1_555 1_555
C49_8 H29_8 1_555 1_555
C50_8 C49_8 1_555 1_555
H30_8 C50_8 1_555 1_555
C51_8 C50_8 1_555 1_555
H31_8 C51_8 1_555 1_555
C52_8 C47_9 1_555 1_555
H32_9 C52_8 1_555 1_555
N2_9 N1_9 1_555 1_555
N3_8 C23_8 1_555 1_555
N4_9 C17_9 1_555 1_555
N5_8 Zn1_9 1_555 1_555
N6_8 C24_8 1_555 1_555
N7_9 Zn3_9 1_555 1_555
N8_9 Zn1_9 1_555 1_555
N9_9 Zn4_5 1_555 1_555
N10_8 Zn2_8 1_555 1_555
N11_9 Zn1_9 1_555 1_555
N13_9 Zn3_9 1_555 1_555
N14_9 Zn1_9 1_555 1_555
N16_9 Zn2_8 1_555 1_555
N17_9 Zn1_9 1_555 1_555
N18_9 Zn4_5 1_555 1_555
O3_8 Zn2_8 1_555 1_555
O4_8 Zn2_8 1_555 1_555
O5_9 Zn3_9 1_555 1_555
O6_9 Zn3_9 1_555 1_555
O7_5 C16_9 1_555 1_555
O8_5 C16_9 1_555 1_555
O10_9 Zn4_5 1_555 1_555
Zn7_5 O7_5 1_555 1_555
O11_5 Zn4_5 1_555 1_555
O12_5 Zn4_5 1_555 1_555
C5_9 C6_9 1_555 1_555
C8_8 O3_8 1_555 1_555
C8_8 O4_8 1_555 1_555
C13_9 C14_9 1_555 1_555
C15_9 O5_9 1_555 1_555
C15_9 O6_9 1_555 1_555
C27_8 C28_8 1_555 1_555
C29_9 N9_9 1_555 1_555
C30_9 N7_9 1_555 1_555
C33_9 C34_9 1_555 1_555
C41_9 N13_9 1_555 1_555
C42_9 N15_9 1_555 1_555
C45_9 C46_9 1_555 1_555
C47_9 N16_9 1_555 1_555
C48_9 N18_9 1_555 1_555
C51_8 C52_8 1_555 1_555
N2_9 N4_9 1_555 1_555
N3_8 N5_8 1_555 1_555
N5_8 N6_8 1_555 1_555
N7_9 N8_9 1_555 1_555
N8_9 N9_9 1_555 1_555
N10_8 N11_9 1_555 1_555
N13_9 N14_9 1_555 1_555
N14_9 N15_9 1_555 1_555
N16_9 N17_9 1_555 1_555
N17_9 N18_9 1_555 1_555
O8_5 Zn7_5 1_555 1_555
O10_9 H33_9 1_555 1_555
O10_9 H34_9 1_555 1_555
Zn1_10 N2_10 1_555 1_555
Zn2_9 N6_9 1_555 1_555
Zn3_10 N3_9 1_555 1_555
Zn4_6 N4_10 1_555 1_555
Zn5_6 N1_10 1_555 1_555
C1_10 C2_9 1_555 1_555
C2_9 H1_9 1_555 1_555
C3_9 C2_9 1_555 1_555
H2_9 C3_9 1_555 1_555
C4_9 C3_9 1_555 1_555
C5_10 C4_9 1_555 1_555
H3_10 C5_10 1_555 1_555
C6_10 C1_10 1_555 1_555
H4_10 C6_10 1_555 1_555
C7_10 C1_10 1_555 1_555
C8_9 C4_9 1_555 1_555
H7_10 C13_10 1_555 1_555
C14_10 C9_10 1_555 1_555
H8_10 C14_10 1_555 1_555
C15_10 C9_10 1_555 1_555
C17_10 C18_10 1_555 1_555
C18_10 C19_10 1_555 1_555
C19_10 H9_10 1_555 1_555
C20_10 C19_10 1_555 1_555
H10_10 C20_10 1_555 1_555
C21_10 C20_10 1_555 1_555
C22_10 C17_10 1_555 1_555
H12_10 C22_10 1_555 1_555
C23_9 C24_9 1_555 1_555
C24_9 C25_9 1_555 1_555
C25_9 H13_9 1_555 1_555
C26_9 C25_9 1_555 1_555
H14_9 C26_9 1_555 1_555
C27_9 C26_9 1_555 1_555
H15_7 C27_9 1_555 1_555
C28_9 C23_9 1_555 1_555
H16_9 C28_9 1_555 1_555
C29_10 C30_10 1_555 1_555
C30_10 C31_10 1_555 1_555
C31_10 H17_10 1_555 1_555
C32_10 C31_10 1_555 1_555
H18_10 C32_10 1_555 1_555
C33_10 C32_10 1_555 1_555
H19_10 C33_10 1_555 1_555
C34_10 C29_10 1_555 1_555
H20_10 C34_10 1_555 1_555
C35_9 C36_9 1_555 1_555
C36_9 C37_9 1_555 1_555
C37_9 H21_9 1_555 1_555
C38_9 C37_9 1_555 1_555
H22_9 C38_9 1_555 1_555
C39_9 C38_9 1_555 1_555
H23_9 C39_9 1_555 1_555
C40_9 C35_9 1_555 1_555
H24_9 C40_9 1_555 1_555
C41_10 C42_10 1_555 1_555
C47_10 C48_10 1_555 1_555
C48_10 C49_9 1_555 1_555
C49_9 H29_9 1_555 1_555
C50_9 C49_9 1_555 1_555
H30_9 C50_9 1_555 1_555
C51_9 C50_9 1_555 1_555
H31_9 C51_9 1_555 1_555
C52_9 C47_10 1_555 1_555
H32_10 C52_9 1_555 1_555
N1_10 C18_10 1_555 1_555
N2_10 N1_10 1_555 1_555
N3_9 C23_9 1_555 1_555
N4_10 C17_10 1_555 1_555
N5_9 Zn1_10 1_555 1_555
N6_9 C24_9 1_555 1_555
N7_10 Zn3_10 1_555 1_555
N8_10 Zn1_10 1_555 1_555
N9_10 Zn4_6 1_555 1_555
N10_9 Zn2_9 1_555 1_555
N11_10 Zn1_10 1_555 1_555
N12_10 Zn5_6 1_555 1_555
N13_10 Zn3_10 1_555 1_555
N14_10 Zn1_10 1_555 1_555
N15_10 Zn5_6 1_555 1_555
N16_10 Zn2_9 1_555 1_555
N17_10 Zn1_10 1_555 1_555
N18_10 Zn4_6 1_555 1_555
O1_6 C7_10 1_555 1_555
O2_6 C7_10 1_555 1_555
O3_9 Zn2_9 1_555 1_555
O4_9 Zn2_9 1_555 1_555
O5_10 Zn3_10 1_555 1_555
O6_10 Zn3_10 1_555 1_555
O9_10 Zn5_6 1_555 1_555
O10_10 Zn4_6 1_555 1_555
Zn6_6 O1_6 1_555 1_555
O11_6 Zn4_6 1_555 1_555
O12_6 Zn4_6 1_555 1_555
O13_6 Zn5_6 1_555 1_555
O14_6 Zn5_6 1_555 1_555
C5_10 C6_10 1_555 1_555
C8_9 O3_9 1_555 1_555
C8_9 O4_9 1_555 1_555
C13_10 C14_10 1_555 1_555
C15_10 O5_10 1_555 1_555
C15_10 O6_10 1_555 1_555
C21_10 C22_10 1_555 1_555
C27_9 C28_9 1_555 1_555
C29_10 N9_10 1_555 1_555
C30_10 N7_10 1_555 1_555
C33_10 C34_10 1_555 1_555
C35_9 N12_10 1_555 1_555
C36_9 N10_9 1_555 1_555
C39_9 C40_9 1_555 1_555
C41_10 N13_10 1_555 1_555
C42_10 N15_10 1_555 1_555
C47_10 N16_10 1_555 1_555
C48_10 N18_10 1_555 1_555
C51_9 C52_9 1_555 1_555
N2_10 N4_10 1_555 1_555
N3_9 N5_9 1_555 1_555
N5_9 N6_9 1_555 1_555
N7_10 N8_10 1_555 1_555
N8_10 N9_10 1_555 1_555
N10_9 N11_10 1_555 1_555
N11_10 N12_10 1_555 1_555
N13_10 N14_10 1_555 1_555
N14_10 N15_10 1_555 1_555
N16_10 N17_10 1_555 1_555
N17_10 N18_10 1_555 1_555
O2_6 Zn6_6 1_555 1_555
O10_10 H33_10 1_555 1_555
O10_10 H34_10 1_555 1_555
O9_10 H35_10 1_555 1_555
O9_10 H36_10 1_555 1_555
O11_6 C7_11 1_555 1_555
O12_6 C7_11 1_555 1_555
Zn1_11 N2_11 1_555 1_555
Zn2_10 N6_10 1_555 1_555
Zn3_11 N3_10 1_555 1_555
Zn6_6 N4_11 1_555 1_555
Zn7_5 N1_11 1_555 1_555
C1_11 C2_10 1_555 1_555
C3_10 C2_10 1_555 1_555
H2_10 C3_10 1_555 1_555
C4_10 C3_10 1_555 1_555
C5_11 C4_10 1_555 1_555
H3_11 C5_11 1_555 1_555
C6_11 C1_11 1_555 1_555
H4_11 C6_11 1_555 1_555
C8_10 C4_10 1_555 1_555
C9_11 C10_10 1_555 1_555
C10_10 H5_10 1_555 1_555
C11_10 C10_10 1_555 1_555
H6_10 C11_10 1_555 1_555
C12_10 C11_10 1_555 1_555
C13_11 C12_10 1_555 1_555
H7_11 C13_11 1_555 1_555
C14_11 C9_11 1_555 1_555
H8_11 C14_11 1_555 1_555
C15_11 C9_11 1_555 1_555
C16_10 C12_10 1_555 1_555
C17_11 C18_11 1_555 1_555
C18_11 C19_11 1_555 1_555
C19_11 H9_11 1_555 1_555
C20_11 C19_11 1_555 1_555
H10_11 C20_11 1_555 1_555
C21_11 C20_11 1_555 1_555
H11_10 C21_11 1_555 1_555
C22_11 C17_11 1_555 1_555
H12_11 C22_11 1_555 1_555
C23_10 C24_10 1_555 1_555
C24_10 C25_10 1_555 1_555
C25_10 H13_10 1_555 1_555
C26_10 C25_10 1_555 1_555
H14_10 C26_10 1_555 1_555
C27_10 C26_10 1_555 1_555
H15_8 C27_10 1_555 1_555
C28_10 C23_10 1_555 1_555
H16_10 C28_10 1_555 1_555
C29_11 C30_11 1_555 1_555
C30_11 C31_11 1_555 1_555
C31_11 H17_11 1_555 1_555
C32_11 C31_11 1_555 1_555
H18_11 C32_11 1_555 1_555
C33_11 C32_11 1_555 1_555
H19_11 C33_11 1_555 1_555
C34_11 C29_11 1_555 1_555
H20_11 C34_11 1_555 1_555
C35_10 C36_10 1_555 1_555
C36_10 C37_10 1_555 1_555
C37_10 H21_10 1_555 1_555
C38_10 C37_10 1_555 1_555
H22_10 C38_10 1_555 1_555
C39_10 C38_10 1_555 1_555
H23_10 C39_10 1_555 1_555
C40_10 C35_10 1_555 1_555
H24_10 C40_10 1_555 1_555
C41_11 C42_11 1_555 1_555
C42_11 C43_10 1_555 1_555
C43_10 H25_10 1_555 1_555
C44_10 C43_10 1_555 1_555
H26_10 C44_10 1_555 1_555
C45_10 C44_10 1_555 1_555
H27_10 C45_10 1_555 1_555
C46_10 C41_11 1_555 1_555
H28_10 C46_10 1_555 1_555
C47_11 C48_11 1_555 1_555
C48_11 C49_10 1_555 1_555
C49_10 H29_10 1_555 1_555
C50_10 C49_10 1_555 1_555
H30_10 C50_10 1_555 1_555
C51_10 C50_10 1_555 1_555
H31_10 C51_10 1_555 1_555
C52_10 C47_11 1_555 1_555
H32_11 C52_10 1_555 1_555
N1_11 C18_11 1_555 1_555
N2_11 N1_11 1_555 1_555
N3_10 C23_10 1_555 1_555
N4_11 C17_11 1_555 1_555
N5_10 Zn1_11 1_555 1_555
N6_10 C24_10 1_555 1_555
N7_11 Zn3_11 1_555 1_555
N8_11 Zn1_11 1_555 1_555
N9_11 Zn6_6 1_555 1_555
N10_10 Zn2_10 1_555 1_555
N11_11 Zn1_11 1_555 1_555
N12_11 Zn7_5 1_555 1_555
N13_11 Zn3_11 1_555 1_555
N14_11 Zn1_11 1_555 1_555
N15_11 Zn7_5 1_555 1_555
N16_11 Zn2_10 1_555 1_555
N17_11 Zn1_11 1_555 1_555
N18_11 Zn6_6 1_555 1_555
O3_10 Zn2_10 1_555 1_555
O4_10 Zn2_10 1_555 1_555
O5_11 Zn3_11 1_555 1_555
O6_11 Zn3_11 1_555 1_555
O13_5 C16_10 1_555 1_555
O14_5 C16_10 1_555 1_555
O9_11 Zn7_5 1_555 1_555
O10_11 Zn6_6 1_555 1_555
C5_11 C6_11 1_555 1_555
C8_10 O3_10 1_555 1_555
C8_10 O4_10 1_555 1_555
C13_11 C14_11 1_555 1_555
C15_11 O5_11 1_555 1_555
C15_11 O6_11 1_555 1_555
C21_11 C22_11 1_555 1_555
C27_10 C28_10 1_555 1_555
C29_11 N9_11 1_555 1_555
C30_11 N7_11 1_555 1_555
C33_11 C34_11 1_555 1_555
C35_10 N12_11 1_555 1_555
C36_10 N10_10 1_555 1_555
C39_10 C40_10 1_555 1_555
C41_11 N13_11 1_555 1_555
C42_11 N15_11 1_555 1_555
C45_10 C46_10 1_555 1_555
C47_11 N16_11 1_555 1_555
C48_11 N18_11 1_555 1_555
C51_10 C52_10 1_555 1_555
N2_11 N4_11 1_555 1_555
N3_10 N5_10 1_555 1_555
N5_10 N6_10 1_555 1_555
N7_11 N8_11 1_555 1_555
N8_11 N9_11 1_555 1_555
N10_10 N11_11 1_555 1_555
N11_11 N12_11 1_555 1_555
N13_11 N14_11 1_555 1_555
N14_11 N15_11 1_555 1_555
N16_11 N17_11 1_555 1_555
N17_11 N18_11 1_555 1_555
O10_11 H33_11 1_555 1_555
O10_11 H34_11 1_555 1_555
O9_11 H35_11 1_555 1_555
O9_11 H36_11 1_555 1_555
Zn1_12 N2_12 1_555 1_555
Zn2_11 N6_11 1_555 1_555
Zn3_12 N3_11 1_555 1_555
Zn6_5 N4_12 1_555 1_555
C1_12 C2_11 1_555 1_555
C2_11 H1_11 1_555 1_555
C3_11 C2_11 1_555 1_555
H2_11 C3_11 1_555 1_555
C4_11 C3_11 1_555 1_555
C5_12 C4_11 1_555 1_555
H3_12 C5_12 1_555 1_555
C6_12 C1_12 1_555 1_555
H4_12 C6_12 1_555 1_555
C7_12 C1_12 1_555 1_555
C8_11 C4_11 1_555 1_555
H7_12 C13_12 1_555 1_555
C14_12 C9_12 1_555 1_555
H8_12 C14_12 1_555 1_555
C15_12 C9_12 1_555 1_555
C22_12 C17_12 1_555 1_555
H12_12 C22_12 1_555 1_555
C23_11 C24_11 1_555 1_555
C24_11 C25_11 1_555 1_555
C25_11 H13_11 1_555 1_555
C26_11 C25_11 1_555 1_555
H14_11 C26_11 1_555 1_555
C27_11 C26_11 1_555 1_555
H15_9 C27_11 1_555 1_555
C28_11 C23_11 1_555 1_555
H16_11 C28_11 1_555 1_555
C29_12 C30_12 1_555 1_555
C30_12 C31_12 1_555 1_555
C31_12 H17_12 1_555 1_555
C32_12 C31_12 1_555 1_555
H18_12 C32_12 1_555 1_555
C33_12 C32_12 1_555 1_555
H19_12 C33_12 1_555 1_555
C34_12 C29_12 1_555 1_555
H20_12 C34_12 1_555 1_555
C41_12 C42_12 1_555 1_555
C47_12 C48_12 1_555 1_555
C48_12 C49_11 1_555 1_555
C49_11 H29_11 1_555 1_555
C50_11 C49_11 1_555 1_555
H30_11 C50_11 1_555 1_555
C51_11 C50_11 1_555 1_555
H31_11 C51_11 1_555 1_555
C52_11 C47_12 1_555 1_555
H32_12 C52_11 1_555 1_555
N2_12 N1_12 1_555 1_555
N3_11 C23_11 1_555 1_555
N4_12 C17_12 1_555 1_555
N5_11 Zn1_12 1_555 1_555
N6_11 C24_11 1_555 1_555
N7_12 Zn3_12 1_555 1_555
N8_12 Zn1_12 1_555 1_555
N9_12 Zn6_5 1_555 1_555
N10_11 Zn2_11 1_555 1_555
N11_12 Zn1_12 1_555 1_555
N13_12 Zn3_12 1_555 1_555
N14_12 Zn1_12 1_555 1_555
N16_12 Zn2_11 1_555 1_555
N17_12 Zn1_12 1_555 1_555
N18_12 Zn6_5 1_555 1_555
O11_5 C7_12 1_555 1_555
O12_5 C7_12 1_555 1_555
O3_11 Zn2_11 1_555 1_555
O4_11 Zn2_11 1_555 1_555
O5_12 Zn3_12 1_555 1_555
O6_12 Zn3_12 1_555 1_555
O10_12 Zn6_5 1_555 1_555
C5_12 C6_12 1_555 1_555
C8_11 O3_11 1_555 1_555
C8_11 O4_11 1_555 1_555
C13_12 C14_12 1_555 1_555
C15_12 O5_12 1_555 1_555
C15_12 O6_12 1_555 1_555
C27_11 C28_11 1_555 1_555
C29_12 N9_12 1_555 1_555
C30_12 N7_12 1_555 1_555
C33_12 C34_12 1_555 1_555
C41_12 N13_12 1_555 1_555
C42_12 N15_12 1_555 1_555
C47_12 N16_12 1_555 1_555
C48_12 N18_12 1_555 1_555
C51_11 C52_11 1_555 1_555
N2_12 N4_12 1_555 1_555
N3_11 N5_11 1_555 1_555
N5_11 N6_11 1_555 1_555
N7_12 N8_12 1_555 1_555
N8_12 N9_12 1_555 1_555
N10_11 N11_12 1_555 1_555
N13_12 N14_12 1_555 1_555
N14_12 N15_12 1_555 1_555
N16_12 N17_12 1_555 1_555
N17_12 N18_12 1_555 1_555
O10_12 H33_12 1_555 1_555
O10_12 H34_12 1_555 1_555
C10_11 H5_11 1_555 1_555
C11_11 C10_11 1_555 1_555
H6_11 C11_11 1_555 1_555
C12_11 C11_11 1_555 1_555
C16_11 C12_11 1_555 1_555
C43_11 H25_11 1_555 1_555
C44_11 C43_11 1_555 1_555
H26_11 C44_11 1_555 1_555
C45_11 C44_11 1_555 1_555
H27_11 C45_11 1_555 1_555
H28_11 C46_11 1_555 1_555
O13_6 C16_11 1_555 1_555
O14_6 C16_11 1_555 1_555
C45_11 C46_11 1_555 1_555
Zn1_13 N2_13 1_555 1_555
Zn2_12 N6_12 1_555 1_555
Zn3_13 N3_12 1_555 1_555
Zn4_7 N4_13 1_555 1_555
Zn5_7 N1_13 1_555 1_555
C1_13 C2_12 1_555 1_555
C3_12 C2_12 1_555 1_555
H2_12 C3_12 1_555 1_555
C4_12 C3_12 1_555 1_555
C5_13 C4_12 1_555 1_555
H3_13 C5_13 1_555 1_555
C6_13 C1_13 1_555 1_555
H4_13 C6_13 1_555 1_555
C8_12 C4_12 1_555 1_555
C9_13 C10_12 1_555 1_555
C10_12 H5_12 1_555 1_555
C11_12 C10_12 1_555 1_555
H6_12 C11_12 1_555 1_555
C12_12 C11_12 1_555 1_555
C13_13 C12_12 1_555 1_555
H7_13 C13_13 1_555 1_555
C14_13 C9_13 1_555 1_555
H8_13 C14_13 1_555 1_555
C15_13 C9_13 1_555 1_555
C16_12 C12_12 1_555 1_555
C17_13 C18_12 1_555 1_555
C18_12 C19_12 1_555 1_555
C19_12 H9_12 1_555 1_555
C20_12 C19_12 1_555 1_555
H10_12 C20_12 1_555 1_555
C21_12 C20_12 1_555 1_555
H11_11 C21_12 1_555 1_555
C22_13 C17_13 1_555 1_555
H12_13 C22_13 1_555 1_555
C23_12 C24_12 1_555 1_555
C24_12 C25_12 1_555 1_555
C25_12 H13_12 1_555 1_555
C26_12 C25_12 1_555 1_555
H14_12 C26_12 1_555 1_555
C27_12 C26_12 1_555 1_555
H15_10 C27_12 1_555 1_555
C28_12 C23_12 1_555 1_555
H16_12 C28_12 1_555 1_555
C29_13 C30_13 1_555 1_555
C30_13 C31_13 1_555 1_555
C31_13 H17_13 1_555 1_555
C32_13 C31_13 1_555 1_555
H18_13 C32_13 1_555 1_555
C33_13 C32_13 1_555 1_555
H19_13 C33_13 1_555 1_555
C34_13 C29_13 1_555 1_555
H20_13 C34_13 1_555 1_555
C35_11 C36_11 1_555 1_555
C36_11 C37_11 1_555 1_555
C37_11 H21_11 1_555 1_555
C38_11 C37_11 1_555 1_555
H22_11 C38_11 1_555 1_555
C39_11 C38_11 1_555 1_555
H23_11 C39_11 1_555 1_555
C40_11 C35_11 1_555 1_555
H24_11 C40_11 1_555 1_555
C41_13 C42_13 1_555 1_555
C42_13 C43_12 1_555 1_555
C43_12 H25_12 1_555 1_555
C44_12 C43_12 1_555 1_555
H26_12 C44_12 1_555 1_555
C45_12 C44_12 1_555 1_555
H27_12 C45_12 1_555 1_555
C46_12 C41_13 1_555 1_555
H28_12 C46_12 1_555 1_555
C47_13 C48_13 1_555 1_555
C48_13 C49_12 1_555 1_555
C49_12 H29_12 1_555 1_555
C50_12 C49_12 1_555 1_555
H30_12 C50_12 1_555 1_555
C51_12 C50_12 1_555 1_555
H31_12 C51_12 1_555 1_555
C52_12 C47_13 1_555 1_555
H32_13 C52_12 1_555 1_555
N1_13 C18_12 1_555 1_555
N2_13 N1_13 1_555 1_555
N3_12 C23_12 1_555 1_555
N4_13 C17_13 1_555 1_555
N5_12 Zn1_13 1_555 1_555
N6_12 C24_12 1_555 1_555
N7_13 Zn3_13 1_555 1_555
N8_13 Zn1_13 1_555 1_555
N9_13 Zn4_7 1_555 1_555
N10_12 Zn2_12 1_555 1_555
N11_13 Zn1_13 1_555 1_555
N12_12 Zn5_7 1_555 1_555
N13_13 Zn3_13 1_555 1_555
N14_13 Zn1_13 1_555 1_555
N15_13 Zn5_7 1_555 1_555
N16_13 Zn2_12 1_555 1_555
N17_13 Zn1_13 1_555 1_555
N18_13 Zn4_7 1_555 1_555
O3_12 Zn2_12 1_555 1_555
O4_12 Zn2_12 1_555 1_555
O5_13 Zn3_13 1_555 1_555
O6_13 Zn3_13 1_555 1_555
O7_6 C16_12 1_555 1_555
O8_6 C16_12 1_555 1_555
O9_12 Zn5_7 1_555 1_555
O10_13 Zn4_7 1_555 1_555
Zn7_6 O7_6 1_555 1_555
O11_7 Zn4_7 1_555 1_555
O12_7 Zn4_7 1_555 1_555
O13_7 Zn5_7 1_555 1_555
O14_7 Zn5_7 1_555 1_555
C5_13 C6_13 1_555 1_555
C8_12 O3_12 1_555 1_555
C8_12 O4_12 1_555 1_555
C13_13 C14_13 1_555 1_555
C15_13 O5_13 1_555 1_555
C15_13 O6_13 1_555 1_555
C21_12 C22_13 1_555 1_555
C27_12 C28_12 1_555 1_555
C29_13 N9_13 1_555 1_555
C30_13 N7_13 1_555 1_555
C33_13 C34_13 1_555 1_555
C35_11 N12_12 1_555 1_555
C36_11 N10_12 1_555 1_555
C39_11 C40_11 1_555 1_555
C41_13 N13_13 1_555 1_555
C42_13 N15_13 1_555 1_555
C45_12 C46_12 1_555 1_555
C47_13 N16_13 1_555 1_555
C48_13 N18_13 1_555 1_555
C51_12 C52_12 1_555 1_555
N2_13 N4_13 1_555 1_555
N3_12 N5_12 1_555 1_555
N5_12 N6_12 1_555 1_555
N7_13 N8_13 1_555 1_555
N8_13 N9_13 1_555 1_555
N10_12 N11_13 1_555 1_555
N11_13 N12_12 1_555 1_555
N13_13 N14_13 1_555 1_555
N14_13 N15_13 1_555 1_555
N16_13 N17_13 1_555 1_555
N17_13 N18_13 1_555 1_555
O8_6 Zn7_6 1_555 1_555
O10_13 H33_13 1_555 1_555
O10_13 H34_13 1_555 1_555
O9_12 H35_13 1_555 1_555
O9_12 H36_12 1_555 1_555
O1_7 C7_13 1_555 1_555
O2_7 C7_13 1_555 1_555
Zn6_7 O1_7 1_555 1_555
O2_7 Zn6_7 1_555 1_555
C10_13 H5_13 1_555 1_555
C11_13 C10_13 1_555 1_555
H6_13 C11_13 1_555 1_555
C12_13 C11_13 1_555 1_555
C16_13 C12_13 1_555 1_555
C43_13 H25_13 1_555 1_555
C44_13 C43_13 1_555 1_555
H26_13 C44_13 1_555 1_555
C45_13 C44_13 1_555 1_555
H27_13 C45_13 1_555 1_555
H28_13 C46_13 1_555 1_555
O7_7 C16_13 1_555 1_555
O8_7 C16_13 1_555 1_555
Zn7_7 O7_7 1_555 1_555
C45_13 C46_13 1_555 1_555
O8_7 Zn7_7 1_555 1_555
Zn1_14 N2_14 1_555 1_555
Zn2_13 N6_13 1_555 1_555
Zn3_14 N3_13 1_555 1_555
Zn4_8 N4_14 1_555 1_555
C1_14 C2_13 1_555 1_555
C2_13 H1_13 1_555 1_555
C3_13 C2_13 1_555 1_555
H2_13 C3_13 1_555 1_555
C4_13 C3_13 1_555 1_555
C5_14 C4_13 1_555 1_555
H3_14 C5_14 1_555 1_555
C6_14 C1_14 1_555 1_555
H4_14 C6_14 1_555 1_555
C7_14 C1_14 1_555 1_555
C8_13 C4_13 1_555 1_555
H7_14 C13_14 1_555 1_555
C14_14 C9_14 1_555 1_555
H8_14 C14_14 1_555 1_555
C15_14 C9_14 1_555 1_555
C22_14 C17_14 1_555 1_555
H12_14 C22_14 1_555 1_555
C23_13 C24_13 1_555 1_555
C24_13 C25_13 1_555 1_555
C25_13 H13_13 1_555 1_555
C26_13 C25_13 1_555 1_555
H14_13 C26_13 1_555 1_555
C27_13 C26_13 1_555 1_555
H15_11 C27_13 1_555 1_555
C28_13 C23_13 1_555 1_555
H16_13 C28_13 1_555 1_555
C29_14 C30_14 1_555 1_555
C30_14 C31_14 1_555 1_555
C31_14 H17_14 1_555 1_555
C32_14 C31_14 1_555 1_555
H18_14 C32_14 1_555 1_555
C33_14 C32_14 1_555 1_555
H19_14 C33_14 1_555 1_555
C34_14 C29_14 1_555 1_555
H20_14 C34_14 1_555 1_555
C41_14 C42_14 1_555 1_555
C47_14 C48_14 1_555 1_555
C48_14 C49_13 1_555 1_555
C49_13 H29_13 1_555 1_555
C50_13 C49_13 1_555 1_555
H30_13 C50_13 1_555 1_555
C51_13 C50_13 1_555 1_555
H31_13 C51_13 1_555 1_555
C52_13 C47_14 1_555 1_555
H32_14 C52_13 1_555 1_555
N2_14 N1_14 1_555 1_555
N3_13 C23_13 1_555 1_555
N4_14 C17_14 1_555 1_555
N5_13 Zn1_14 1_555 1_555
N6_13 C24_13 1_555 1_555
N7_14 Zn3_14 1_555 1_555
N8_14 Zn1_14 1_555 1_555
N9_14 Zn4_8 1_555 1_555
N10_13 Zn2_13 1_555 1_555
N11_14 Zn1_14 1_555 1_555
N13_14 Zn3_14 1_555 1_555
N14_14 Zn1_14 1_555 1_555
N16_14 Zn2_13 1_555 1_555
N17_14 Zn1_14 1_555 1_555
N18_14 Zn4_8 1_555 1_555
O1_8 C7_14 1_555 1_555
O2_8 C7_14 1_555 1_555
O3_13 Zn2_13 1_555 1_555
O4_13 Zn2_13 1_555 1_555
O5_14 Zn3_14 1_555 1_555
O6_14 Zn3_14 1_555 1_555
O10_14 Zn4_8 1_555 1_555
Zn6_8 O1_8 1_555 1_555
O11_8 Zn4_8 1_555 1_555
O12_8 Zn4_8 1_555 1_555
C5_14 C6_14 1_555 1_555
C8_13 O3_13 1_555 1_555
C8_13 O4_13 1_555 1_555
C13_14 C14_14 1_555 1_555
C15_14 O5_14 1_555 1_555
C15_14 O6_14 1_555 1_555
C27_13 C28_13 1_555 1_555
C29_14 N9_14 1_555 1_555
C30_14 N7_14 1_555 1_555
C33_14 C34_14 1_555 1_555
C41_14 N13_14 1_555 1_555
C42_14 N15_14 1_555 1_555
C47_14 N16_14 1_555 1_555
C48_14 N18_14 1_555 1_555
C51_13 C52_13 1_555 1_555
N2_14 N4_14 1_555 1_555
N3_13 N5_13 1_555 1_555
N5_13 N6_13 1_555 1_555
N7_14 N8_14 1_555 1_555
N8_14 N9_14 1_555 1_555
N10_13 N11_14 1_555 1_555
N13_14 N14_14 1_555 1_555
N14_14 N15_14 1_555 1_555
N16_14 N17_14 1_555 1_555
N17_14 N18_14 1_555 1_555
O2_8 Zn6_8 1_555 1_555
O10_14 H33_14 1_555 1_555
O10_14 H34_14 1_555 1_555
Zn1_15 N2_15 1_555 1_555
Zn2_14 N6_14 1_555 1_555
Zn3_15 N3_14 1_555 1_555
Zn6_8 N4_15 1_555 1_555
C1_15 C2_14 1_555 1_555
C3_14 C2_14 1_555 1_555
H2_14 C3_14 1_555 1_555
C4_14 C3_14 1_555 1_555
C5_15 C4_14 1_555 1_555
H3_15 C5_15 1_555 1_555
C6_15 C1_15 1_555 1_555
H4_15 C6_15 1_555 1_555
C8_14 C4_14 1_555 1_555
C9_15 C10_14 1_555 1_555
C10_14 H5_14 1_555 1_555
C11_14 C10_14 1_555 1_555
H6_14 C11_14 1_555 1_555
C12_14 C11_14 1_555 1_555
C13_15 C12_14 1_555 1_555
H7_15 C13_15 1_555 1_555
C14_15 C9_15 1_555 1_555
H8_15 C14_15 1_555 1_555
C15_15 C9_15 1_555 1_555
C16_14 C12_14 1_555 1_555
C22_15 C17_15 1_555 1_555
H12_15 C22_15 1_555 1_555
C23_14 C24_14 1_555 1_555
C24_14 C25_14 1_555 1_555
C25_14 H13_14 1_555 1_555
C26_14 C25_14 1_555 1_555
H14_14 C26_14 1_555 1_555
C27_14 C26_14 1_555 1_555
H15_12 C27_14 1_555 1_555
C28_14 C23_14 1_555 1_555
H16_14 C28_14 1_555 1_555
C29_15 C30_15 1_555 1_555
C30_15 C31_15 1_555 1_555
C31_15 H17_15 1_555 1_555
C32_15 C31_15 1_555 1_555
H18_15 C32_15 1_555 1_555
C33_15 C32_15 1_555 1_555
H19_15 C33_15 1_555 1_555
C34_15 C29_15 1_555 1_555
H20_15 C34_15 1_555 1_555
C41_15 C42_15 1_555 1_555
C42_15 C43_14 1_555 1_555
C43_14 H25_14 1_555 1_555
C44_14 C43_14 1_555 1_555
H26_14 C44_14 1_555 1_555
C45_14 C44_14 1_555 1_555
H27_14 C45_14 1_555 1_555
C46_14 C41_15 1_555 1_555
H28_14 C46_14 1_555 1_555
C47_15 C48_15 1_555 1_555
C48_15 C49_14 1_555 1_555
C49_14 H29_14 1_555 1_555
C50_14 C49_14 1_555 1_555
H30_14 C50_14 1_555 1_555
C51_14 C50_14 1_555 1_555
H31_14 C51_14 1_555 1_555
C52_14 C47_15 1_555 1_555
H32_15 C52_14 1_555 1_555
N2_15 N1_15 1_555 1_555
N3_14 C23_14 1_555 1_555
N4_15 C17_15 1_555 1_555
N5_14 Zn1_15 1_555 1_555
N6_14 C24_14 1_555 1_555
N7_15 Zn3_15 1_555 1_555
N8_15 Zn1_15 1_555 1_555
N9_15 Zn6_8 1_555 1_555
N10_14 Zn2_14 1_555 1_555
N11_15 Zn1_15 1_555 1_555
N13_15 Zn3_15 1_555 1_555
N14_15 Zn1_15 1_555 1_555
N16_15 Zn2_14 1_555 1_555
N17_15 Zn1_15 1_555 1_555
N18_15 Zn6_8 1_555 1_555
O3_14 Zn2_14 1_555 1_555
O4_14 Zn2_14 1_555 1_555
O5_15 Zn3_15 1_555 1_555
O6_15 Zn3_15 1_555 1_555
O13_7 C16_14 1_555 1_555
O14_7 C16_14 1_555 1_555
O10_15 Zn6_8 1_555 1_555
C5_15 C6_15 1_555 1_555
C8_14 O3_14 1_555 1_555
C8_14 O4_14 1_555 1_555
C13_15 C14_15 1_555 1_555
C15_15 O5_15 1_555 1_555
C15_15 O6_15 1_555 1_555
C27_14 C28_14 1_555 1_555
C29_15 N9_15 1_555 1_555
C30_15 N7_15 1_555 1_555
C33_15 C34_15 1_555 1_555
C41_15 N13_15 1_555 1_555
C42_15 N15_15 1_555 1_555
C45_14 C46_14 1_555 1_555
C47_15 N16_15 1_555 1_555
C48_15 N18_15 1_555 1_555
C51_14 C52_14 1_555 1_555
N2_15 N4_15 1_555 1_555
N3_14 N5_14 1_555 1_555
N5_14 N6_14 1_555 1_555
N7_15 N8_15 1_555 1_555
N8_15 N9_15 1_555 1_555
N10_14 N11_15 1_555 1_555
N13_15 N14_15 1_555 1_555
N14_15 N15_15 1_555 1_555
N16_15 N17_15 1_555 1_555
N17_15 N18_15 1_555 1_555
O10_15 H33_15 1_555 1_555
O10_15 H34_15 1_555 1_555
C18_13 C19_13 1_555 1_555
C19_13 H9_13 1_555 1_555
C20_13 C19_13 1_555 1_555
H10_13 C20_13 1_555 1_555
C21_13 C20_13 1_555 1_555
H11_12 C21_13 1_555 1_555
C35_12 C36_12 1_555 1_555
C36_12 C37_12 1_555 1_555
C37_12 H21_12 1_555 1_555
C38_12 C37_12 1_555 1_555
H22_12 C38_12 1_555 1_555
C39_12 C38_12 1_555 1_555
H23_12 C39_12 1_555 1_555
C40_12 C35_12 1_555 1_555
H24_12 C40_12 1_555 1_555
N12_13 Zn7_6 1_555 1_555
O9_13 Zn7_6 1_555 1_555
C35_12 N12_13 1_555 1_555
C39_12 C40_12 1_555 1_555
O9_13 H36_13 1_555 1_555
O11_8 C7_15 1_555 1_555
O12_8 C7_15 1_555 1_555
Zn1_16 N2_16 1_555 1_555
Zn2_15 N6_15 1_555 1_555
Zn3_16 N3_15 1_555 1_555
Zn6_7 N4_16 1_555 1_555
Zn7_7 N1_16 1_555 1_555
C1_16 C2_15 1_555 1_555
C2_15 H1_15 1_555 1_555
C3_15 C2_15 1_555 1_555
H2_15 C3_15 1_555 1_555
C4_15 C3_15 1_555 1_555
C5_16 C4_15 1_555 1_555
H3_16 C5_16 1_555 1_555
C6_16 C1_16 1_555 1_555
H4_16 C6_16 1_555 1_555
C7_16 C1_16 1_555 1_555
C8_15 C4_15 1_555 1_555
H7_16 C13_16 1_555 1_555
C14_16 C9_16 1_555 1_555
H8_16 C14_16 1_555 1_555
C15_16 C9_16 1_555 1_555
C17_16 C18_14 1_555 1_555
C18_14 C19_14 1_555 1_555
C19_14 H9_14 1_555 1_555
C20_14 C19_14 1_555 1_555
H10_14 C20_14 1_555 1_555
C21_14 C20_14 1_555 1_555
C22_16 C17_16 1_555 1_555
H12_16 C22_16 1_555 1_555
C23_15 C24_15 1_555 1_555
C24_15 C25_15 1_555 1_555
C25_15 H13_15 1_555 1_555
C26_15 C25_15 1_555 1_555
H14_15 C26_15 1_555 1_555
C27_15 C26_15 1_555 1_555
H15_13 C27_15 1_555 1_555
C28_15 C23_15 1_555 1_555
H16_15 C28_15 1_555 1_555
C29_16 C30_16 1_555 1_555
C30_16 C31_16 1_555 1_555
C31_16 H17_16 1_555 1_555
C32_16 C31_16 1_555 1_555
H18_16 C32_16 1_555 1_555
C33_16 C32_16 1_555 1_555
H19_16 C33_16 1_555 1_555
C34_16 C29_16 1_555 1_555
H20_16 C34_16 1_555 1_555
C35_13 C36_13 1_555 1_555
C36_13 C37_13 1_555 1_555
C37_13 H21_13 1_555 1_555
C38_13 C37_13 1_555 1_555
H22_13 C38_13 1_555 1_555
C39_13 C38_13 1_555 1_555
H23_13 C39_13 1_555 1_555
C40_13 C35_13 1_555 1_555
H24_13 C40_13 1_555 1_555
C41_16 C42_16 1_555 1_555
C47_16 C48_16 1_555 1_555
C48_16 C49_15 1_555 1_555
C49_15 H29_15 1_555 1_555
C50_15 C49_15 1_555 1_555
H30_15 C50_15 1_555 1_555
C51_15 C50_15 1_555 1_555
H31_15 C51_15 1_555 1_555
C52_15 C47_16 1_555 1_555
H32_16 C52_15 1_555 1_555
N1_16 C18_14 1_555 1_555
N2_16 N1_16 1_555 1_555
N3_15 C23_15 1_555 1_555
N4_16 C17_16 1_555 1_555
N5_15 Zn1_16 1_555 1_555
N6_15 C24_15 1_555 1_555
N7_16 Zn3_16 1_555 1_555
N8_16 Zn1_16 1_555 1_555
N9_16 Zn6_7 1_555 1_555
N10_15 Zn2_15 1_555 1_555
N11_16 Zn1_16 1_555 1_555
N12_14 Zn7_7 1_555 1_555
N13_16 Zn3_16 1_555 1_555
N14_16 Zn1_16 1_555 1_555
N15_16 Zn7_7 1_555 1_555
N16_16 Zn2_15 1_555 1_555
N17_16 Zn1_16 1_555 1_555
N18_16 Zn6_7 1_555 1_555
O11_7 C7_16 1_555 1_555
O12_7 C7_16 1_555 1_555
O3_15 Zn2_15 1_555 1_555
O4_15 Zn2_15 1_555 1_555
O5_16 Zn3_16 1_555 1_555
O6_16 Zn3_16 1_555 1_555
O9_14 Zn7_7 1_555 1_555
O10_16 Zn6_7 1_555 1_555
C5_16 C6_16 1_555 1_555
C8_15 O3_15 1_555 1_555
C8_15 O4_15 1_555 1_555
C13_16 C14_16 1_555 1_555
C15_16 O5_16 1_555 1_555
C15_16 O6_16 1_555 1_555
C21_14 C22_16 1_555 1_555
C27_15 C28_15 1_555 1_555
C29_16 N9_16 1_555 1_555
C30_16 N7_16 1_555 1_555
C33_16 C34_16 1_555 1_555
C35_13 N12_14 1_555 1_555
C36_13 N10_15 1_555 1_555
C39_13 C40_13 1_555 1_555
C41_16 N13_16 1_555 1_555
C42_16 N15_16 1_555 1_555
C47_16 N16_16 1_555 1_555
C48_16 N18_16 1_555 1_555
C51_15 C52_15 1_555 1_555
N2_16 N4_16 1_555 1_555
N3_15 N5_15 1_555 1_555
N5_15 N6_15 1_555 1_555
N7_16 N8_16 1_555 1_555
N8_16 N9_16 1_555 1_555
N10_15 N11_16 1_555 1_555
N11_16 N12_14 1_555 1_555
N13_16 N14_16 1_555 1_555
N14_16 N15_16 1_555 1_555
N16_16 N17_16 1_555 1_555
N17_16 N18_16 1_555 1_555
O10_16 H33_16 1_555 1_555
O10_16 H34_16 1_555 1_555
O9_14 H35_16 1_555 1_555
O9_14 H36_14 1_555 1_555
C10_15 H5_15 1_555 1_555
C11_15 C10_15 1_555 1_555
H6_15 C11_15 1_555 1_555
C12_15 C11_15 1_555 1_555
C16_15 C12_15 1_555 1_555
C43_15 H25_15 1_555 1_555
C44_15 C43_15 1_555 1_555
H26_15 C44_15 1_555 1_555
C45_15 C44_15 1_555 1_555
H27_15 C45_15 1_555 1_555
H28_15 C46_15 1_555 1_555
O7_8 C16_15 1_555 1_555
O8_8 C16_15 1_555 1_555
Zn7_8 O7_8 1_555 1_555
C45_15 C46_15 1_555 1_555
O8_8 Zn7_8 1_555 1_555
C18_15 C19_15 1_555 1_555
C19_15 H9_15 1_555 1_555
C20_15 C19_15 1_555 1_555
H10_15 C20_15 1_555 1_555
C21_15 C20_15 1_555 1_555
C35_14 C36_14 1_555 1_555
C36_14 C37_14 1_555 1_555
C37_14 H21_14 1_555 1_555
C38_14 C37_14 1_555 1_555
H22_14 C38_14 1_555 1_555
C39_14 C38_14 1_555 1_555
H23_14 C39_14 1_555 1_555
C40_14 C35_14 1_555 1_555
H24_14 C40_14 1_555 1_555
N12_15 Zn7_8 1_555 1_555
O9_15 Zn7_8 1_555 1_555
C35_14 N12_15 1_555 1_555
C39_14 C40_14 1_555 1_555
O9_15 H36_15 1_555 1_555
C18_16 C19_16 1_555 1_555
C19_16 H9_16 1_555 1_555
C20_16 C19_16 1_555 1_555
H10_16 C20_16 1_555 1_555
C21_16 C20_16 1_555 1_555
C35_15 C36_15 1_555 1_555
C36_15 C37_15 1_555 1_555
C37_15 H21_15 1_555 1_555
C38_15 C37_15 1_555 1_555
H22_15 C38_15 1_555 1_555
C39_15 C38_15 1_555 1_555
H23_15 C39_15 1_555 1_555
C40_15 C35_15 1_555 1_555
H24_15 C40_15 1_555 1_555
N12_16 Zn5_8 1_555 1_555
O9_16 Zn5_8 1_555 1_555
O13_8 Zn5_8 1_555 1_555
O14_8 Zn5_8 1_555 1_555
C35_15 N12_16 1_555 1_555
C39_15 C40_15 1_555 1_555
O9_16 H36_16 1_555 1_555
C10_16 H5_16 1_555 1_555
C11_16 C10_16 1_555 1_555
H6_16 C11_16 1_555 1_555
C12_16 C11_16 1_555 1_555
C16_16 C12_16 1_555 1_555
C43_16 H25_16 1_555 1_555
C44_16 C43_16 1_555 1_555
H26_16 C44_16 1_555 1_555
C45_16 C44_16 1_555 1_555
H27_16 C45_16 1_555 1_555
H28_16 C46_16 1_555 1_555
O13_8 C16_16 1_555 1_555
O14_8 C16_16 1_555 1_555
C45_16 C46_16 1_555 1_555
Zn2_16 N6_16 1_555 1_555
C2_16 H1_16 1_555 1_555
C3_16 C2_16 1_555 1_555
H2_16 C3_16 1_555 1_555
C4_16 C3_16 1_555 1_555
C8_16 C4_16 1_555 1_555
C23_16 C24_16 1_555 1_555
C24_16 C25_16 1_555 1_555
C25_16 H13_16 1_555 1_555
C26_16 C25_16 1_555 1_555
H14_16 C26_16 1_555 1_555
C27_16 C26_16 1_555 1_555
H15_15 C27_16 1_555 1_555
C28_16 C23_16 1_555 1_555
H16_16 C28_16 1_555 1_555
C35_16 C36_16 1_555 1_555
C36_16 C37_16 1_555 1_555
C37_16 H21_16 1_555 1_555
C38_16 C37_16 1_555 1_555
H22_16 C38_16 1_555 1_555
C39_16 C38_16 1_555 1_555
H23_16 C39_16 1_555 1_555
C40_16 C35_16 1_555 1_555
H24_16 C40_16 1_555 1_555
N3_16 C23_16 1_555 1_555
N6_16 C24_16 1_555 1_555
N10_16 Zn2_16 1_555 1_555
O3_16 Zn2_16 1_555 1_555
O4_16 Zn2_16 1_555 1_555
C8_16 O3_16 1_555 1_555
C8_16 O4_16 1_555 1_555
C27_16 C28_16 1_555 1_555
C36_16 N10_16 1_555 1_555
C39_16 C40_16 1_555 1_555
N3_16 N5_16 1_555 1_555
N5_16 N6_16 1_555 1_555
C49_16 H29_16 1_555 1_555
C50_16 C49_16 1_555 1_555
H30_16 C50_16 1_555 1_555
C51_16 C50_16 1_555 1_555
H31_16 C51_16 1_555 1_555
C51_16 C52_16 1_555 1_555

#END
