
###############################################################################
#
# This file contains modified crystal structure data generated from the
# MOF subset of the Cambridge Structural Database (CSD) v543 
# hosted by the Cambridge Crystallographic Data Centre (CCDC).
#
# This work is licensed under the Creative Commons
# Attribution-NonCommercial-ShareAlike 4.0 International License.
# To view a copy of this license, visit
# http://creativecommons.org/licenses/by-nc-sa/4.0/
# or send a letter to
# Creative Commons, PO Box 1866, Mountain View, CA 94042, USA.
#
# CIF created using the CSD Python API on 29 September 2022
# The structure has been converted into the P1 space group
# The structure has a 3D framework
# The original CSD entry KUJTUG is in the trigonal crystal system
# The original CSD entry KUJTUG is in a Sohncke space group
# The framework has been calculated to contain at least 10.0% void space
# The void calculation uses a probe of radius 1.32A, grid spacing 0.4
#
###############################################################################

data_KUJTUG
_chemical_formula_moiety         '(C156 H96 N18 O36 Zn11)n'
_symmetry_cell_setting           triclinic
_symmetry_space_group_name_H-M   'P 1'
_symmetry_Int_Tables_number      1
_space_group_name_Hall           'P 1'
loop_
_symmetry_equiv_pos_site_id
_symmetry_equiv_pos_as_xyz
1 x,y,z
_cell_length_a                   13.9538(2)
_cell_length_b                   13.9538(2)
_cell_length_c                   24.9246(7)
_cell_angle_alpha                90
_cell_angle_beta                 90
_cell_angle_gamma                120
_cell_volume                     4202.85
loop_
_atom_site_label
_atom_site_type_symbol
_atom_site_fract_x
_atom_site_fract_y
_atom_site_fract_z
Zn10 Zn -0.0000 0.70335(5) 0.1667
O9 O 0.7033(3) 0.3951(4) 0.25940(13)
O10 O 0.8390(2) 0.3857(4) 0.29461(14)
C39 C 0.5334(3) 0.0551(4) 0.22493(14)
H25 H 0.4651 0.0211 0.2077
C40 C 0.5855(3) 0.1658(4) 0.23599(13)
H26 H 0.5517 0.2064 0.2266
C41 C 0.6880(3) 0.2184(4) 0.26095(13)
C42 C 0.7363(3) 0.1557(4) 0.27467(14)
H27 H 0.8054 0.1900 0.2911
C43 C 0.6847(3) 0.0452(4) 0.26458(15)
H28 H 0.7179 0.0043 0.2745
C51 C 0.7476(4) 0.3404(6) 0.27254(13)
Zn7 Zn 0.85003(3) 0.54251(4) 0.286571(15)
Zn1 Zn 0.14997(3) 0.69248(3) 0.046762(15)
O1 O 0.0029(2) 0.6128(3) 0.10615(16)
H13 H 0.3313 0.8977 0.0041
O8 O 0.0227(2) 0.6287(4) 0.31260(16)
O11 O 0.8711(2) 0.7207(3) 0.17101(11)
O12 O 0.7942(3) 0.6274(4) 0.24516(12)
N6 N 0.5252(2) 0.8777(3) 0.22885(12)
C32 C 0.4104(3) 0.8165(4) 0.23961(14)
C33 C 0.3380(3) 0.7419(4) 0.20115(14)
H21 H 0.3655 0.7304 0.1693
C34 C 0.2263(3) 0.6863(4) 0.21098(14)
H22 H 0.1782 0.6371 0.1854
C35 C 0.1843(3) 0.7021(4) 0.25793(15)
C36 C 0.2554(3) 0.7733(5) 0.29604(17)
H23 H 0.2271 0.7824 0.3282
C37 C 0.3682(3) 0.8315(4) 0.28733(15)
H24 H 0.4155 0.8803 0.3132
C38 C 0.5821(3) 0.9934(4) 0.23930(13)
C44 C 0.5847(3) 0.8220(4) 0.21853(13)
C45 C 0.6755(3) 0.8697(4) 0.18365(17)
H29 H 0.6913 0.9328 0.1642
C46 C 0.7414(3) 0.8225(4) 0.17826(16)
H30 H 0.8018 0.8544 0.1551
C47 C 0.7191(3) 0.7287(4) 0.20657(14)
C48 C 0.6252(3) 0.6782(4) 0.23762(16)
H31 H 0.6064 0.6119 0.2548
C49 C 0.5581(3) 0.7245(4) 0.24363(16)
H32 H 0.4949 0.6893 0.2648
C50 C 0.0622(3) 0.6436(5) 0.2673(2)
C52 C 0.7999(3) 0.6878(4) 0.20773(14)
Zn10_2 Zn 1.0000 0.70335(5) 0.1667
O13 O 0.2967(3) 0.6918(3) 0.07393(13)
O15 O 0.1610(2) 0.5467(3) 0.03872(14)
O17 O 0.1289(2) 0.8496(2) 0.16232(11)
O19 O 0.2058(3) 0.8332(2) 0.08817(12)
O2 O 0.9773(2) 0.6060(3) 0.02073(16)
N1 N 0.4748(2) 0.3525(2) 0.10448(12)
C1 C 0.5896(3) 0.4061(3) 0.09372(14)
C2 C 0.6620(3) 0.4039(3) 0.13218(14)
H1 H 0.6345 0.3649 0.1640
C3 C 0.7737(3) 0.4600(3) 0.12235(14)
H2 H 0.8218 0.4589 0.1479
C4 C 0.8157(3) 0.5178(3) 0.07540(15)
C5 C 0.7446(3) 0.5179(4) 0.03729(17)
H3 H 0.7729 0.5553 0.0051
C6 C 0.6318(3) 0.4633(3) 0.04600(15)
H4 H 0.5845 0.4648 0.0201
C7 C 0.4179(3) 0.4113(3) 0.09403(13)
C8 C 0.4666(3) 0.5217(3) 0.10840(14)
H5 H 0.5349 0.5560 0.1256
C9 C 0.4145(3) 0.5803(3) 0.09734(13)
H6 H 0.4483 0.6547 0.1067
C10 C 0.3120(3) 0.5304(3) 0.07238(13)
C11 C 0.2637(3) 0.4194(3) 0.05866(14)
H7 H 0.1946 0.3846 0.0422
C12 C 0.3153(3) 0.3605(3) 0.06875(15)
H8 H 0.2821 0.2864 0.0588
C13 C 0.4153(3) 0.2373(3) 0.11480(13)
C14 C 0.3245(3) 0.1942(3) 0.14968(17)
H9 H 0.3087 0.2415 0.1691
C15 C 0.2586(3) 0.0811(3) 0.15507(16)
H10 H 0.1982 0.0526 0.1782
C16 C 0.2809(3) 0.0096(3) 0.12676(14)
C17 C 0.3748(3) 0.0530(3) 0.09571(16)
H11 H 0.3936 0.0055 0.0785
C18 C 0.4419(3) 0.1664(3) 0.08970(16)
H12 H 0.5051 0.1944 0.0685
C19 C 0.9378(3) 0.5814(4) 0.0660(2)
C20 C 0.2524(4) 0.5928(4) 0.06079(13)
O7 O 0.9971(2) 0.6099(4) 0.22718(16)
N7 N 0.7962(2) 0.5645(3) 0.35985(11)
C21 C 0.2001(3) 0.8879(3) 0.12560(14)
H17 H 0.8977 0.3313 0.9959
Zn8 Zn 0.69248(3) 0.14997(5) 0.953238(15)
O3 O 0.3951(4) 0.7033(3) 0.74060(13)
O4 O 0.3857(4) 0.8390(2) 0.70539(14)
C8_2 C 0.0551(4) 0.5334(3) 0.77507(14)
H5_2 H 0.0211 0.4651 0.7923
C9_2 C 0.1658(4) 0.5855(3) 0.76401(13)
H6_2 H 0.2064 0.5517 0.7734
C10_2 C 0.2184(4) 0.6880(3) 0.73905(13)
C11_2 C 0.1557(4) 0.7363(3) 0.72533(14)
H7_2 H 0.1900 0.8054 0.7089
C12_2 C 0.0452(4) 0.6847(3) 0.73542(15)
H8_2 H 0.0043 0.7179 0.7255
C20_2 C 0.3404(6) 0.7476(4) 0.72746(13)
Zn5 Zn 0.54251(4) 0.85003(3) 0.713429(15)
Zn9 Zn 0.70335(5) 0.0000 0.8334
O2_2 O 0.6287(4) 0.0227(2) 0.68740(16)
O5 O 0.7207(3) 0.8711(2) 0.82899(11)
O6 O 0.6274(4) 0.7942(3) 0.75484(12)
N1_2 N 0.8777(3) 0.5252(2) 0.77115(12)
C1_2 C 0.8165(4) 0.4104(3) 0.76039(14)
C2_2 C 0.7419(4) 0.3380(3) 0.79885(14)
H1_2 H 0.7304 0.3655 0.8307
C3_2 C 0.6863(4) 0.2263(3) 0.78902(14)
H2_2 H 0.6371 0.1782 0.8146
C4_2 C 0.7021(4) 0.1843(3) 0.74207(15)
C5_2 C 0.7733(5) 0.2554(3) 0.70396(17)
H3_2 H 0.7824 0.2271 0.6718
C6_2 C 0.8315(4) 0.3682(3) 0.71267(15)
H4_2 H 0.8803 0.4155 0.6868
C7_2 C 0.9934(4) 0.5821(3) 0.76070(13)
C13_2 C 0.8220(4) 0.5847(3) 0.78147(13)
C14_2 C 0.8697(4) 0.6755(3) 0.81635(17)
H9_2 H 0.9328 0.6913 0.8358
C15_2 C 0.8225(4) 0.7414(3) 0.82174(16)
H10_2 H 0.8544 0.8018 0.8449
C16_2 C 0.7287(4) 0.7191(3) 0.79343(14)
C17_2 C 0.6782(4) 0.6252(3) 0.76238(16)
H11_2 H 0.6119 0.6064 0.7452
C18_2 C 0.7245(4) 0.5581(3) 0.75637(16)
H12_2 H 0.6893 0.4949 0.7352
C19_2 C 0.6436(5) 0.0622(3) 0.7327(2)
C21_2 C 0.6878(4) 0.7999(3) 0.79227(14)
O7_2 O 0.6128(4) 0.0029(2) 0.89385(16)
Zn9_2 Zn 0.70335(5) 1.0000 0.8334
O14 O 0.6918(5) 0.2967(3) 0.92607(13)
O16 O 0.5467(4) 0.1610(2) 0.96128(14)
O18 O 0.8496(4) 0.1289(2) 0.83768(11)
O20 O 0.8332(5) 0.2058(3) 0.91183(12)
O1_2 O 0.6099(4) 0.9971(2) 0.77282(16)
N2 N 0.5645(3) 0.7962(2) 0.64015(11)
N3 N 0.6444(4) 0.6953(3) 0.49730(12)
C22 C 0.5771(4) 0.7077(3) 0.63900(15)
H13_2 H 0.5664 0.6687 0.6708
C23 C 0.6050(4) 0.6702(3) 0.59375(14)
H14 H 0.6165 0.6101 0.5951
C24 C 0.6152(4) 0.7249(3) 0.54707(14)
C25 C 0.5935(4) 0.8110(3) 0.54615(14)
H15 H 0.5949 0.8455 0.5140
C26 C 0.5699(4) 0.8448(3) 0.59322(15)
H16 H 0.5572 0.9042 0.5926
N5 N 0.6953(5) 0.6444(4) 0.50270(12)
C27 C 0.7077(5) 0.5771(4) 0.36100(15)
H17_2 H 0.6687 0.5664 0.3292
C28 C 0.6702(5) 0.6050(4) 0.40625(14)
H18 H 0.6101 0.6165 0.4049
C29 C 0.7249(5) 0.6152(4) 0.45293(14)
C30 C 0.8110(5) 0.5935(4) 0.45385(14)
H19 H 0.8455 0.5949 0.4860
C31 C 0.8448(5) 0.5699(4) 0.40678(15)
H20 H 0.9042 0.5572 0.4074
O8_2 O 0.6060(4) 0.9773(2) 0.97927(16)
N6_2 N 0.3525(4) 0.4748(2) 0.89552(12)
C32_2 C 0.4061(5) 0.5896(3) 0.90628(14)
C33_2 C 0.4039(5) 0.6620(3) 0.86782(14)
H21_2 H 0.3649 0.6345 0.8360
C34_2 C 0.4600(5) 0.7737(3) 0.87765(14)
H22_2 H 0.4589 0.8218 0.8521
C35_2 C 0.5178(5) 0.8157(3) 0.92460(15)
C36_2 C 0.5179(6) 0.7446(3) 0.96271(17)
H23_2 H 0.5553 0.7729 0.9949
C37_2 C 0.4633(5) 0.6318(3) 0.95400(15)
H24_2 H 0.4648 0.5845 0.9799
C38_2 C 0.4113(5) 0.4179(3) 0.90597(13)
C39_2 C 0.5217(5) 0.4666(3) 0.89160(14)
H25_2 H 0.5560 0.5349 0.8744
C40_2 C 0.5803(5) 0.4145(3) 0.90266(13)
H26_2 H 0.6547 0.4483 0.8933
C41_2 C 0.5304(5) 0.3120(3) 0.92762(13)
C42_2 C 0.4194(5) 0.2637(3) 0.94134(14)
H27_2 H 0.3846 0.1946 0.9578
C43_2 C 0.3605(5) 0.3153(3) 0.93125(15)
H28_2 H 0.2864 0.2821 0.9412
C44_2 C 0.2373(5) 0.4153(3) 0.88520(13)
C45_2 C 0.1942(5) 0.3245(3) 0.85032(17)
H29_2 H 0.2415 0.3087 0.8309
C46_2 C 0.0811(5) 0.2586(3) 0.84493(16)
H30_2 H 0.0526 0.1982 0.8218
C47_2 C 0.0096(5) 0.2809(3) 0.87324(14)
C48_2 C 0.0530(5) 0.3748(3) 0.90429(16)
H31_2 H 0.0055 0.3936 0.9215
C49_2 C 0.1664(5) 0.4419(3) 0.91030(16)
H32_2 H 0.1944 0.5051 0.9315
C50_2 C 0.5814(6) 0.9378(3) 0.9340(2)
C51_2 C 0.5928(7) 0.2524(4) 0.93921(13)
C52_2 C 0.8879(5) 0.2001(3) 0.87440(14)
H14_2 H 0.3899 0.0064 0.9284
N4 N 0.4355(3) 0.2317(2) 0.69319(11)
N5_2 N 0.3556(4) 0.0509(3) 0.83604(12)
C27_2 C 0.4229(4) 0.1306(3) 0.69434(15)
H17_3 H 0.4336 0.1023 0.6626
C28_2 C 0.3950(4) 0.0652(3) 0.73959(14)
C29_2 C 0.3848(4) 0.1097(3) 0.78627(14)
C30_2 C 0.4065(4) 0.2175(3) 0.78719(14)
H19_2 H 0.4051 0.2506 0.8194
C31_2 C 0.4301(4) 0.2749(3) 0.74012(15)
H20_2 H 0.4428 0.3470 0.7408
Zn8_2 Zn 0.45749(4) 0.30752(3) 0.619905(15)
N2_2 N 0.2038(2) 0.7683(2) 0.97348(11)
N3_2 N 0.3047(3) 0.9491(3) 0.83063(12)
C22_2 C 0.2923(3) 0.8694(3) 0.97233(15)
C23_2 C 0.3298(3) 0.9348(3) 0.92708(14)
C24_2 C 0.2751(3) 0.8903(3) 0.88040(14)
C25_2 C 0.1890(3) 0.7825(3) 0.87948(14)
H15_2 H 0.1545 0.7494 0.8473
C26_2 C 0.1552(3) 0.7251(3) 0.92655(15)
H16_2 H 0.0958 0.6530 0.9259
H18_2 H 0.3835 0.9936 0.7383
O5_2 O 0.1504(2) 0.2793(3) 0.49565(11)
O6_2 O 0.1668(2) 0.3726(4) 0.42150(12)
C21_3 C 0.1121(3) 0.3122(4) 0.45893(14)
Zn4 Zn 0.30752(3) 0.45749(4) 0.380095(15)
Zn9_3 Zn 0.29665(5) 0.29665(5) 0.5000
O11_2 O 0.2793(3) 0.1504(4) 0.50435(11)
O12_2 O 0.3726(4) 0.1668(5) 0.57850(12)
C52_3 C 0.3122(4) 0.1121(5) 0.54107(14)
O1_3 O 0.3872(3) 0.3901(4) 0.43948(16)
O2_3 O 0.3940(3) 0.3713(4) 0.35406(16)
N1_3 N 0.6475(2) 0.1223(3) 0.43781(12)
N2_3 N 0.2317(2) 0.4355(3) 0.30681(11)
N3_3 N 0.0509(3) 0.3556(4) 0.16396(12)
C1_3 C 0.5939(3) 0.1835(4) 0.42705(14)
C2_3 C 0.5961(3) 0.2581(4) 0.46551(14)
H1_3 H 0.6351 0.2696 0.4973
C3_3 C 0.5400(3) 0.3137(4) 0.45568(14)
H2_3 H 0.5411 0.3629 0.4812
C4_3 C 0.4822(3) 0.2979(4) 0.40873(15)
C5_3 C 0.4821(4) 0.2267(5) 0.37062(17)
H3_3 H 0.4447 0.2176 0.3384
C6_3 C 0.5367(3) 0.1685(4) 0.37933(15)
H4_3 H 0.5352 0.1197 0.3534
C7_3 C 0.5887(3) 0.0066(4) 0.42736(13)
C13_3 C 0.7627(3) 0.1780(4) 0.44813(13)
C14_3 C 0.8058(3) 0.1303(4) 0.48301(17)
H9_3 H 0.7585 0.0672 0.5024
C15_3 C 0.9189(3) 0.1775(4) 0.48840(16)
H10_3 H 0.9474 0.1456 0.5115
C16_3 C 0.9904(3) 0.2713(4) 0.46009(14)
C17_3 C 0.9470(3) 0.3218(4) 0.42904(16)
H11_3 H 0.9945 0.3881 0.4118
C18_3 C 0.8336(3) 0.2755(4) 0.42303(16)
H12_3 H 0.8056 0.3107 0.4018
C19_3 C 0.4186(4) 0.3564(5) 0.3993(2)
C22_3 C 0.1306(3) 0.4229(4) 0.30566(15)
H13_3 H 0.1023 0.4336 0.3374
C23_3 C 0.0652(3) 0.3950(4) 0.26041(14)
C24_3 C 0.1097(3) 0.3848(4) 0.21373(14)
C25_3 C 0.2175(3) 0.4065(4) 0.21281(14)
H15_3 H 0.2506 0.4051 0.1806
C26_3 C 0.2749(3) 0.4301(4) 0.25988(15)
H16_3 H 0.3470 0.4428 0.2592
H18_3 H 0.0064 0.3899 0.0716
O7_3 O 0.3901(4) 0.3872(4) 0.56052(16)
O8_3 O 0.3713(4) 0.3940(4) 0.64594(16)
N6_3 N 0.1223(3) 0.6475(4) 0.56219(12)
C32_3 C 0.1835(4) 0.5939(5) 0.57295(14)
C33_3 C 0.2581(4) 0.5961(5) 0.53449(14)
H21_3 H 0.2696 0.6351 0.5027
C34_3 C 0.3137(4) 0.5400(5) 0.54432(14)
H22_3 H 0.3629 0.5411 0.5188
C35_3 C 0.2979(4) 0.4822(5) 0.59127(15)
C36_3 C 0.2267(5) 0.4821(6) 0.62938(17)
H23_3 H 0.2176 0.4447 0.6616
C37_3 C 0.1685(4) 0.5367(5) 0.62067(15)
H24_3 H 0.1197 0.5352 0.6466
C38_3 C 0.0066(4) 0.5887(5) 0.57264(13)
C44_3 C 0.1780(4) 0.7627(5) 0.55187(13)
C45_3 C 0.1303(4) 0.8058(5) 0.51699(17)
H29_3 H 0.0672 0.7585 0.4976
C46_3 C 0.1775(4) 0.9189(5) 0.51160(16)
H30_3 H 0.1456 0.9474 0.4885
C47_3 C 0.2713(4) 0.9904(5) 0.53991(14)
C48_3 C 0.3218(4) 0.9470(5) 0.57096(16)
H31_3 H 0.3881 0.9945 0.5882
C49_3 C 0.2755(4) 0.8336(5) 0.57697(16)
H32_3 H 0.3107 0.8056 0.5982
C50_3 C 0.3564(5) 0.4186(6) 0.6007(2)
O13_2 O 0.3082(3) 0.6049(4) 0.40726(13)
O14_2 O 0.6049(4) 0.3082(5) 0.59274(13)
O15_2 O 0.4533(3) 0.6143(4) 0.37205(14)
O16_2 O 0.6143(4) 0.4533(4) 0.62795(14)
C8_3 C 0.4783(3) 0.9449(4) 0.44173(14)
H5_3 H 0.4440 0.9789 0.4589
C9_3 C 0.4197(3) 0.8342(4) 0.43067(13)
H6_3 H 0.3453 0.7936 0.4400
C10_3 C 0.4696(3) 0.7816(4) 0.40571(13)
C11_3 C 0.5806(3) 0.8443(4) 0.39199(14)
H7_3 H 0.6154 0.8100 0.3755
C12_3 C 0.6395(3) 0.9548(4) 0.40208(15)
H8_3 H 0.7136 0.9957 0.3921
C20_3 C 0.4072(4) 0.6596(6) 0.39412(13)
H14_3 H 0.9936 0.3835 0.2617
N4_2 N 0.7683(2) 0.2038(4) 0.02652(11)
N5_3 N 0.9491(3) 0.3047(5) 0.16937(12)
C27_3 C 0.8694(3) 0.2923(5) 0.02767(15)
C28_3 C 0.9348(3) 0.3298(5) 0.07292(14)
C29_3 C 0.8903(3) 0.2751(5) 0.11960(14)
C30_3 C 0.7825(3) 0.1890(5) 0.12052(14)
H19_3 H 0.7494 0.1545 0.1527
C31_3 C 0.7251(3) 0.1552(5) 0.07345(15)
H20_3 H 0.6530 0.0958 0.0741
C39_3 C 0.9449(4) 0.4783(5) 0.55827(14)
H25_3 H 0.9789 0.4440 0.5411
C40_3 C 0.8342(4) 0.4197(5) 0.56933(13)
H26_3 H 0.7936 0.3453 0.5600
C41_3 C 0.7816(4) 0.4696(5) 0.59429(13)
C42_3 C 0.8443(4) 0.5806(5) 0.60801(14)
H27_3 H 0.8100 0.6154 0.6245
C43_3 C 0.9548(4) 0.6395(5) 0.59792(15)
H28_3 H 0.9957 0.7136 0.6079
C51_3 C 0.6596(6) 0.4072(7) 0.60588(13)
loop_
_geom_bond_atom_site_label_1
_geom_bond_atom_site_label_2
_geom_bond_site_symmetry_1
_geom_bond_site_symmetry_2
O9 C51 1_555 1_555
O10 C51 1_555 1_555
H25 C39 1_555 1_555
C40 C39 1_555 1_555
H26 C40 1_555 1_555
C41 C40 1_555 1_555
C42 C41 1_555 1_555
H27 C42 1_555 1_555
H28 C43 1_555 1_555
C51 C41 1_555 1_555
Zn7 O9 1_555 1_555
O10 Zn7 1_555 1_555
C42 C43 1_555 1_555
Zn1 O1 1_555 1_555
Zn10 O1 1_555 1_555
O11 C52 1_555 1_555
O12 C52 1_555 1_555
N6 C32 1_555 1_555
C32 C33 1_555 1_555
C33 H21 1_555 1_555
C34 C33 1_555 1_555
H22 C34 1_555 1_555
C35 C34 1_555 1_555
C36 C35 1_555 1_555
H23 C36 1_555 1_555
C37 C32 1_555 1_555
H24 C37 1_555 1_555
C38 N6 1_555 1_555
C44 N6 1_555 1_555
C45 C44 1_555 1_555
H29 C45 1_555 1_555
C46 C45 1_555 1_555
H30 C46 1_555 1_555
C47 C46 1_555 1_555
C48 C47 1_555 1_555
H31 C48 1_555 1_555
C49 C44 1_555 1_555
H32 C49 1_555 1_555
C52 C47 1_555 1_555
Zn7 O12 1_555 1_555
Zn10_2 O11 1_555 1_555
O13 Zn1 1_555 1_555
O15 Zn1 1_555 1_555
O17 Zn10 1_555 1_555
O19 Zn1 1_555 1_555
O8 C50 1_555 1_555
C35 C50 1_555 1_555
C36 C37 1_555 1_555
C48 C49 1_555 1_555
O13 C20 1_555 1_555
O15 C20 1_555 1_555
N1 C1 1_555 1_555
C1 C2 1_555 1_555
C2 H1 1_555 1_555
C3 C2 1_555 1_555
H2 C3 1_555 1_555
C4 C3 1_555 1_555
C5 C4 1_555 1_555
H3 C5 1_555 1_555
C6 C1 1_555 1_555
H4 C6 1_555 1_555
C7 N1 1_555 1_555
C8 C7 1_555 1_555
H5 C8 1_555 1_555
C9 C8 1_555 1_555
H6 C9 1_555 1_555
C10 C9 1_555 1_555
C11 C10 1_555 1_555
H7 C11 1_555 1_555
C12 C7 1_555 1_555
H8 C12 1_555 1_555
C13 N1 1_555 1_555
C14 C13 1_555 1_555
H9 C14 1_555 1_555
C15 C14 1_555 1_555
H10 C15 1_555 1_555
C16 C15 1_555 1_555
C17 C16 1_555 1_555
H11 C17 1_555 1_555
C18 C13 1_555 1_555
H12 C18 1_555 1_555
C19 O2 1_555 1_555
C20 C10 1_555 1_555
Zn7 O7 1_555 1_555
O7 Zn10_2 1_555 1_555
N7 Zn7 1_555 1_555
C4 C19 1_555 1_555
C5 C6 1_555 1_555
C11 C12 1_555 1_555
C17 C18 1_555 1_555
O17 C21 1_555 1_555
O19 C21 1_555 1_555
O3 C20_2 1_555 1_555
O4 C20_2 1_555 1_555
H5_2 C8_2 1_555 1_555
C9_2 C8_2 1_555 1_555
H6_2 C9_2 1_555 1_555
C10_2 C9_2 1_555 1_555
C11_2 C10_2 1_555 1_555
H7_2 C11_2 1_555 1_555
H8_2 C12_2 1_555 1_555
C20_2 C10_2 1_555 1_555
Zn5 O3 1_555 1_555
O4 Zn5 1_555 1_555
C11_2 C12_2 1_555 1_555
O5 C21_2 1_555 1_555
O6 C21_2 1_555 1_555
N1_2 C1_2 1_555 1_555
C1_2 C2_2 1_555 1_555
C2_2 H1_2 1_555 1_555
C3_2 C2_2 1_555 1_555
H2_2 C3_2 1_555 1_555
C4_2 C3_2 1_555 1_555
C5_2 C4_2 1_555 1_555
H3_2 C5_2 1_555 1_555
C6_2 C1_2 1_555 1_555
H4_2 C6_2 1_555 1_555
C7_2 N1_2 1_555 1_555
C13_2 N1_2 1_555 1_555
C14_2 C13_2 1_555 1_555
H9_2 C14_2 1_555 1_555
C15_2 C14_2 1_555 1_555
H10_2 C15_2 1_555 1_555
C16_2 C15_2 1_555 1_555
C17_2 C16_2 1_555 1_555
H11_2 C17_2 1_555 1_555
C18_2 C13_2 1_555 1_555
H12_2 C18_2 1_555 1_555
C19_2 O2_2 1_555 1_555
C21_2 C16_2 1_555 1_555
Zn8 O7_2 1_555 1_555
O7_2 Zn9 1_555 1_555
Zn5 O6 1_555 1_555
Zn9_2 O5 1_555 1_555
O14 Zn8 1_555 1_555
O16 Zn8 1_555 1_555
O18 Zn9 1_555 1_555
O20 Zn8 1_555 1_555
C4_2 C19_2 1_555 1_555
C5_2 C6_2 1_555 1_555
C17_2 C18_2 1_555 1_555
Zn5 O1_2 1_555 1_555
Zn9_2 O1_2 1_555 1_555
N2 Zn5 1_555 1_555
N3 C24 1_555 1_555
C22 N2 1_555 1_555
H13_2 C22 1_555 1_555
C23 C22 1_555 1_555
H14 C23 1_555 1_555
C24 C23 1_555 1_555
C25 C24 1_555 1_555
H15 C25 1_555 1_555
C26 N2 1_555 1_555
H16 C26 1_555 1_555
N7 C27 1_555 1_555
N5 N3 1_555 1_555
C27 H17_2 1_555 1_555
C28 C27 1_555 1_555
H18 C28 1_555 1_555
C29 N5 1_555 1_555
C30 C29 1_555 1_555
H19 C30 1_555 1_555
C31 N7 1_555 1_555
H20 C31 1_555 1_555
O14 C51_2 1_555 1_555
O16 C51_2 1_555 1_555
N6_2 C32_2 1_555 1_555
C32_2 C33_2 1_555 1_555
C33_2 H21_2 1_555 1_555
C34_2 C33_2 1_555 1_555
H22_2 C34_2 1_555 1_555
C35_2 C34_2 1_555 1_555
C36_2 C35_2 1_555 1_555
H23_2 C36_2 1_555 1_555
C37_2 C32_2 1_555 1_555
H24_2 C37_2 1_555 1_555
C38_2 N6_2 1_555 1_555
C39_2 C38_2 1_555 1_555
H25_2 C39_2 1_555 1_555
C40_2 C39_2 1_555 1_555
H26_2 C40_2 1_555 1_555
C41_2 C40_2 1_555 1_555
C42_2 C41_2 1_555 1_555
H27_2 C42_2 1_555 1_555
C43_2 C38_2 1_555 1_555
H28_2 C43_2 1_555 1_555
C44_2 N6_2 1_555 1_555
C45_2 C44_2 1_555 1_555
H29_2 C45_2 1_555 1_555
C46_2 C45_2 1_555 1_555
H30_2 C46_2 1_555 1_555
C47_2 C46_2 1_555 1_555
C48_2 C47_2 1_555 1_555
H31_2 C48_2 1_555 1_555
C49_2 C44_2 1_555 1_555
H32_2 C49_2 1_555 1_555
C51_2 C41_2 1_555 1_555
C25 C26 1_555 1_555
C28 C29 1_555 1_555
C30 C31 1_555 1_555
O8_2 C50_2 1_555 1_555
C35_2 C50_2 1_555 1_555
C36_2 C37_2 1_555 1_555
C42_2 C43_2 1_555 1_555
C48_2 C49_2 1_555 1_555
O18 C52_2 1_555 1_555
O20 C52_2 1_555 1_555
N4 C27_2 1_555 1_555
C27_2 H17_3 1_555 1_555
C28_2 C27_2 1_555 1_555
C29_2 N5_2 1_555 1_555
C30_2 C29_2 1_555 1_555
H19_2 C30_2 1_555 1_555
C31_2 N4 1_555 1_555
H20_2 C31_2 1_555 1_555
Zn8_2 N4 1_555 1_555
C28_2 C29_2 1_555 1_555
C30_2 C31_2 1_555 1_555
N3_2 C24_2 1_555 1_555
C22_2 N2_2 1_555 1_555
C23_2 C22_2 1_555 1_555
C24_2 C23_2 1_555 1_555
C25_2 C24_2 1_555 1_555
H15_2 C25_2 1_555 1_555
C26_2 N2_2 1_555 1_555
H16_2 C26_2 1_555 1_555
C25_2 C26_2 1_555 1_555
O5_2 C21_3 1_555 1_555
O6_2 C21_3 1_555 1_555
Zn4 O6_2 1_555 1_555
Zn9_3 O5_2 1_555 1_555
O11_2 C52_3 1_555 1_555
O12_2 C52_3 1_555 1_555
Zn8_2 O12_2 1_555 1_555
Zn9_3 O11_2 1_555 1_555
Zn4 O1_3 1_555 1_555
Zn9_3 O1_3 1_555 1_555
O1_3 C19_3 1_555 1_555
O2_3 Zn4 1_555 1_555
N1_3 C1_3 1_555 1_555
N2_3 Zn4 1_555 1_555
N3_3 C24_3 1_555 1_555
C1_3 C2_3 1_555 1_555
C2_3 H1_3 1_555 1_555
C3_3 C2_3 1_555 1_555
H2_3 C3_3 1_555 1_555
C4_3 C3_3 1_555 1_555
C5_3 C4_3 1_555 1_555
H3_3 C5_3 1_555 1_555
C6_3 C1_3 1_555 1_555
H4_3 C6_3 1_555 1_555
C7_3 N1_3 1_555 1_555
C13_3 N1_3 1_555 1_555
C14_3 C13_3 1_555 1_555
H9_3 C14_3 1_555 1_555
C15_3 C14_3 1_555 1_555
H10_3 C15_3 1_555 1_555
C16_3 C15_3 1_555 1_555
C17_3 C16_3 1_555 1_555
H11_3 C17_3 1_555 1_555
C18_3 C13_3 1_555 1_555
H12_3 C18_3 1_555 1_555
C19_3 O2_3 1_555 1_555
C22_3 N2_3 1_555 1_555
H13_3 C22_3 1_555 1_555
C23_3 C22_3 1_555 1_555
C24_3 C23_3 1_555 1_555
C25_3 C24_3 1_555 1_555
H15_3 C25_3 1_555 1_555
C26_3 N2_3 1_555 1_555
H16_3 C26_3 1_555 1_555
Zn8_2 O7_3 1_555 1_555
O7_3 Zn9_3 1_555 1_555
O8_3 Zn8_2 1_555 1_555
N6_3 C32_3 1_555 1_555
C32_3 C33_3 1_555 1_555
C33_3 H21_3 1_555 1_555
C34_3 C33_3 1_555 1_555
H22_3 C34_3 1_555 1_555
C35_3 C34_3 1_555 1_555
C36_3 C35_3 1_555 1_555
H23_3 C36_3 1_555 1_555
C37_3 C32_3 1_555 1_555
H24_3 C37_3 1_555 1_555
C38_3 N6_3 1_555 1_555
C44_3 N6_3 1_555 1_555
C45_3 C44_3 1_555 1_555
H29_3 C45_3 1_555 1_555
C46_3 C45_3 1_555 1_555
H30_3 C46_3 1_555 1_555
C47_3 C46_3 1_555 1_555
C48_3 C47_3 1_555 1_555
H31_3 C48_3 1_555 1_555
C49_3 C44_3 1_555 1_555
H32_3 C49_3 1_555 1_555
C50_3 O7_3 1_555 1_555
O13_2 Zn4 1_555 1_555
O14_2 Zn8_2 1_555 1_555
O15_2 Zn4 1_555 1_555
O16_2 Zn8_2 1_555 1_555
C4_3 C19_3 1_555 1_555
C5_3 C6_3 1_555 1_555
C17_3 C18_3 1_555 1_555
C25_3 C26_3 1_555 1_555
O8_3 C50_3 1_555 1_555
C35_3 C50_3 1_555 1_555
C36_3 C37_3 1_555 1_555
C48_3 C49_3 1_555 1_555
O13_2 C20_3 1_555 1_555
O15_2 C20_3 1_555 1_555
H5_3 C8_3 1_555 1_555
C9_3 C8_3 1_555 1_555
H6_3 C9_3 1_555 1_555
C10_3 C9_3 1_555 1_555
C11_3 C10_3 1_555 1_555
H7_3 C11_3 1_555 1_555
H8_3 C12_3 1_555 1_555
C20_3 C10_3 1_555 1_555
C11_3 C12_3 1_555 1_555
N4_2 C27_3 1_555 1_555
C28_3 C27_3 1_555 1_555
C29_3 N5_3 1_555 1_555
C30_3 C29_3 1_555 1_555
H19_3 C30_3 1_555 1_555
C31_3 N4_2 1_555 1_555
H20_3 C31_3 1_555 1_555
O14_2 C51_3 1_555 1_555
O16_2 C51_3 1_555 1_555
H25_3 C39_3 1_555 1_555
C40_3 C39_3 1_555 1_555
H26_3 C40_3 1_555 1_555
C41_3 C40_3 1_555 1_555
C42_3 C41_3 1_555 1_555
H27_3 C42_3 1_555 1_555
H28_3 C43_3 1_555 1_555
C51_3 C41_3 1_555 1_555
C28_3 C29_3 1_555 1_555
C30_3 C31_3 1_555 1_555
C42_3 C43_3 1_555 1_555

#END
