
###############################################################################
#
# This file contains modified crystal structure data generated from the
# MOF subset of the Cambridge Structural Database (CSD) v543 
# hosted by the Cambridge Crystallographic Data Centre (CCDC).
#
# This work is licensed under the Creative Commons
# Attribution-NonCommercial-ShareAlike 4.0 International License.
# To view a copy of this license, visit
# http://creativecommons.org/licenses/by-nc-sa/4.0/
# or send a letter to
# Creative Commons, PO Box 1866, Mountain View, CA 94042, USA.
#
# CIF created using the CSD Python API on 29 September 2022
# The structure has been converted into the P1 space group
# The structure has a 3D framework
# The original CSD entry KUKHAB is in the monoclinic crystal system
# The framework has been calculated to contain at least 10.0% void space
# The void calculation uses a probe of radius 1.32A, grid spacing 0.4
# H atom positions have been added when not included in the experimental data
#
###############################################################################

data_KUKHAB
_chemical_formula_moiety         '(C224 H200 N24 O48 Zn8)n'
_symmetry_cell_setting           triclinic
_symmetry_space_group_name_H-M   'P 1'
_symmetry_Int_Tables_number      1
_space_group_name_Hall           'P 1'
loop_
_symmetry_equiv_pos_site_id
_symmetry_equiv_pos_as_xyz
1 x,y,z
_cell_length_a                   26.0328(6)
_cell_length_b                   9.1655(2)
_cell_length_c                   27.4382(6)
_cell_angle_alpha                90
_cell_angle_beta                 117.8140(10)
_cell_angle_gamma                90
_cell_volume                     5790.48
loop_
_atom_site_label
_atom_site_type_symbol
_atom_site_fract_x
_atom_site_fract_y
_atom_site_fract_z
Zn1 Zn 0.113173(11) 0.13603(3) 0.164574(11)
N1 N 0.25625(8) 0.4711(2) 0.48284(8)
C1 C 0.16437(11) 0.3693(3) 0.31366(10)
C2 C 0.14670(11) 0.4840(3) 0.33493(11)
H1 H 0.1147 0.5396 0.3116
C3 C 0.17629(10) 0.5173(3) 0.39087(10)
H2 H 0.1633 0.5932 0.4048
C4 C 0.22498(9) 0.4379(3) 0.42591(9)
C5 C 0.24286(11) 0.3234(3) 0.40395(10)
H3 H 0.2756 0.2693 0.4267
C6 C 0.21254(11) 0.2898(3) 0.34903(10)
H4 H 0.2247 0.2118 0.3353
C7 C 0.31806(9) 0.4635(3) 0.51029(9)
C8 C 0.34809(10) 0.4149(3) 0.56471(10)
H5 H 0.3277 0.3869 0.5834
C9 C 0.40797(10) 0.4082(3) 0.59087(10)
H6 H 0.4275 0.3753 0.6271
C10 C 0.43937(10) 0.4495(3) 0.56418(10)
C11 C 0.40953(10) 0.4968(3) 0.50997(10)
H7 H 0.4302 0.5242 0.4914
C12 C 0.34984(10) 0.5039(3) 0.48325(9)
H8 H 0.3306 0.5358 0.4469
C13 C 0.22662(9) 0.5206(3) 0.51187(9)
C14 C 0.17390(10) 0.4597(3) 0.50230(10)
H9 H 0.1583 0.3835 0.4772
C15 C 0.14447(10) 0.5109(3) 0.52957(10)
H10 H 0.1089 0.4698 0.5223
C16 C 0.16746(11) 0.6240(3) 0.56800(10)
C17 C 0.22107(11) 0.6807(3) 0.57852(10)
H11 H 0.2376 0.7541 0.6047
C18 C 0.25022(10) 0.6307(3) 0.55097(10)
H12 H 0.2860 0.6709 0.5586
C19 C 0.13261(11) 0.3325(3) 0.25244(11)
C20 C 0.50518(10) 0.4441(3) 0.59277(10)
C21 C 0.13346(11) 0.6840(3) 0.59564(10)
O1 O 0.09562(11) 0.4157(3) 0.22118(8)
O2 O 0.14827(9) 0.2147(3) 0.23944(8)
O3 O 0.53176(8) 0.5049(3) 0.57113(8)
O4 O 0.52930(7) 0.3780(2) 0.63824(8)
O5 O 0.15705(8) 0.7887(2) 0.62848(7)
O6 O 0.08533(9) 0.6329(2) 0.58398(10)
Zn2 Zn 0.113173(11) 0.86397(3) 0.664574(11)
Zn3 Zn 0.613173(11) 0.36397(3) 0.664574(11)
O7 O 0.02930(7) 0.1220(2) 0.13824(8)
O8 O 0.15705(8) 0.2113(2) 0.12848(7)
C20_2 C 0.00518(10) 0.9441(3) 0.59277(10)
O4_2 O 0.02930(7) 0.8780(2) 0.63824(8)
H1_2 H 0.6147 0.0396 0.3116
C3_2 C 0.67629(10) 0.0173(3) 0.39087(10)
H2_2 H 0.6633 0.0932 0.4048
H7_2 H 0.9302 0.0242 0.4914
C12_2 C 0.84984(10) 0.0039(3) 0.48325(9)
H8_2 H 0.8306 0.0358 0.4469
C13_2 C 0.72662(9) 0.0206(3) 0.51187(9)
C15_2 C 0.64447(10) 0.0109(3) 0.52957(10)
C16_2 C 0.66746(11) 0.1240(3) 0.56800(10)
C17_2 C 0.72107(11) 0.1807(3) 0.57852(10)
H11_2 H 0.7376 0.2541 0.6047
C18_2 C 0.75022(10) 0.1307(3) 0.55097(10)
H12_2 H 0.7860 0.1709 0.5586
C21_2 C 0.63346(11) 0.1840(3) 0.59564(10)
O5_2 O 0.65705(8) 0.2887(2) 0.62848(7)
O6_2 O 0.58533(9) 0.1329(2) 0.58398(10)
Zn1_2 Zn 0.613173(11) 0.63603(3) 0.164574(11)
N1_2 N 0.75625(8) 0.9711(2) 0.48284(8)
N2 N 0.65023(9) 0.4277(3) 0.18693(9)
C1_2 C 0.66437(11) 0.8693(3) 0.31366(10)
C2_2 C 0.64670(11) 0.9840(3) 0.33493(11)
C4_2 C 0.72498(9) 0.9379(3) 0.42591(9)
C5_2 C 0.74286(11) 0.8234(3) 0.40395(10)
H3_2 H 0.7756 0.7693 0.4267
C6_2 C 0.71254(11) 0.7898(3) 0.34903(10)
H4_2 H 0.7247 0.7118 0.3353
C7_2 C 0.81806(9) 0.9635(3) 0.51029(9)
C8_2 C 0.84809(10) 0.9149(3) 0.56471(10)
H5_2 H 0.8277 0.8869 0.5834
C9_2 C 0.90797(10) 0.9082(3) 0.59087(10)
H6_2 H 0.9275 0.8753 0.6271
C10_2 C 0.93937(10) 0.9495(3) 0.56418(10)
C11_2 C 0.90953(10) 0.9968(3) 0.50997(10)
C14_2 C 0.67390(10) 0.9597(3) 0.50230(10)
H9_2 H 0.6583 0.8835 0.4772
H10_2 H 0.6089 0.9698 0.5223
C19_2 C 0.63261(11) 0.8325(3) 0.25244(11)
C22 C 0.67943(15) 0.3853(4) 0.23944(14)
H13 H 0.6852 0.4522 0.2670
C23 C 0.70127(19) 0.2465(5) 0.25428(18)
H14 H 0.7220 0.2213 0.2913
C24 C 0.69252(18) 0.1462(4) 0.2146(2)
H15 H 0.7059 0.0509 0.2239
C25 C 0.66394(16) 0.1882(4) 0.16112(19)
H16 H 0.6583 0.1226 0.1332
C26 C 0.64335(13) 0.3285(3) 0.14844(14)
H17 H 0.6238 0.3558 0.1116
O1_2 O 0.59562(11) 0.9157(3) 0.22118(8)
O2_2 O 0.64827(9) 0.7147(3) 0.23944(8)
O7_2 O 0.52930(7) 0.6220(2) 0.13824(8)
O8_2 O 0.65705(8) 0.7113(2) 0.12848(7)
C7_3 C 0.31806(9) 0.5365(3) 0.01029(9)
C8_3 C 0.34809(10) 0.5851(3) 0.06471(10)
H5_3 H 0.3277 0.6131 0.0834
C9_3 C 0.40797(10) 0.5918(3) 0.09087(10)
H6_3 H 0.4275 0.6247 0.1271
C10_3 C 0.43937(10) 0.5505(3) 0.06418(10)
C11_3 C 0.40953(10) 0.5032(3) 0.00997(10)
C13_3 C 0.22662(9) 0.4794(3) 0.01187(9)
C14_3 C 0.17390(10) 0.5403(3) 0.00230(10)
C15_3 C 0.14447(10) 0.4891(3) 0.02957(10)
H10_3 H 0.1089 0.5302 0.0223
C16_3 C 0.16746(11) 0.3760(3) 0.06800(10)
C17_3 C 0.22107(11) 0.3193(3) 0.07852(10)
H11_3 H 0.2376 0.2459 0.1047
C18_3 C 0.25022(10) 0.3693(3) 0.05097(10)
H12_3 H 0.2860 0.3291 0.0586
C20_3 C 0.50518(10) 0.5559(3) 0.09277(10)
C21_3 C 0.13346(11) 0.3160(3) 0.09564(10)
O3_2 O 0.53176(8) 0.4951(3) 0.07113(8)
O6_3 O 0.08533(9) 0.3671(2) 0.08398(10)
N1_3 N 0.25625(8) 0.5289(2) 0.98284(8)
C1_3 C 0.16437(11) 0.6307(3) 0.81366(10)
C2_3 C 0.14670(11) 0.5160(3) 0.83493(11)
H1_3 H 0.1147 0.4604 0.8116
C3_3 C 0.17629(10) 0.4827(3) 0.89087(10)
H2_3 H 0.1633 0.4068 0.9048
C4_3 C 0.22498(9) 0.5621(3) 0.92591(9)
C5_3 C 0.24286(11) 0.6766(3) 0.90395(10)
H3_3 H 0.2756 0.7307 0.9267
C6_3 C 0.21254(11) 0.7102(3) 0.84903(10)
H4_3 H 0.2247 0.7882 0.8353
H7_3 H 0.4302 0.4758 0.9914
C12_3 C 0.34984(10) 0.4961(3) 0.98325(9)
H8_3 H 0.3306 0.4642 0.9469
H9_3 H 0.1583 0.6165 0.9772
C19_3 C 0.13261(11) 0.6675(3) 0.75244(11)
O1_3 O 0.09562(11) 0.5843(3) 0.72118(8)
O2_3 O 0.14827(9) 0.7853(3) 0.73944(8)
C20_4 C 0.00518(10) 0.0559(3) 0.09277(10)
N1_4 N 0.75625(8) 0.0289(2) 0.98284(8)
N2_2 N 0.65023(9) 0.5723(3) 0.68693(9)
C1_4 C 0.66437(11) 0.1307(3) 0.81366(10)
C2_4 C 0.64670(11) 0.0160(3) 0.83493(11)
C4_4 C 0.72498(9) 0.0621(3) 0.92591(9)
C5_4 C 0.74286(11) 0.1766(3) 0.90395(10)
H3_4 H 0.7756 0.2307 0.9267
C6_4 C 0.71254(11) 0.2102(3) 0.84903(10)
H4_4 H 0.7247 0.2882 0.8353
H9_4 H 0.6583 0.1165 0.9772
C19_4 C 0.63261(11) 0.1675(3) 0.75244(11)
C22_2 C 0.67943(15) 0.6147(4) 0.73944(14)
H13_2 H 0.6852 0.5478 0.7670
C23_2 C 0.70127(19) 0.7535(5) 0.75428(18)
H14_2 H 0.7220 0.7787 0.7913
C24_2 C 0.69252(18) 0.8538(4) 0.7146(2)
H15_2 H 0.7059 0.9491 0.7239
C25_2 C 0.66394(16) 0.8118(4) 0.66112(19)
H16_2 H 0.6583 0.8774 0.6332
C26_2 C 0.64335(13) 0.6715(3) 0.64844(14)
H17_2 H 0.6238 0.6442 0.6116
O1_4 O 0.59562(11) 0.0843(3) 0.72118(8)
O2_4 O 0.64827(9) 0.2853(3) 0.73944(8)
C13_4 C 0.72662(9) 0.9794(3) 0.01187(9)
C15_4 C 0.64447(10) 0.9891(3) 0.02957(10)
C16_4 C 0.66746(11) 0.8760(3) 0.06800(10)
C17_4 C 0.72107(11) 0.8193(3) 0.07852(10)
H11_4 H 0.7376 0.7459 0.1047
C18_4 C 0.75022(10) 0.8693(3) 0.05097(10)
H12_4 H 0.7860 0.8291 0.0586
C21_4 C 0.63346(11) 0.8160(3) 0.09564(10)
O6_4 O 0.58533(9) 0.8671(2) 0.08398(10)
N2_3 N 0.15023(9) 0.9277(3) 0.18693(9)
C22_3 C 0.17943(15) 0.8853(4) 0.23944(14)
H13_3 H 0.1852 0.9522 0.2670
C23_3 C 0.20127(19) 0.7465(5) 0.25428(18)
H14_3 H 0.2220 0.7213 0.2913
C24_3 C 0.19252(18) 0.6462(4) 0.2146(2)
H15_3 H 0.2059 0.5509 0.2239
C25_3 C 0.16394(16) 0.6882(4) 0.16112(19)
H16_3 H 0.1583 0.6226 0.1332
C26_3 C 0.14335(13) 0.8285(3) 0.14844(14)
H17_3 H 0.1238 0.8558 0.1116
Zn1_3 Zn 0.886827(11) 0.13603(3) 0.335426(11)
N1_5 N 0.74375(8) 0.4711(2) 0.01716(8)
C1_5 C 0.83563(11) 0.3693(3) 0.18634(10)
C2_5 C 0.85330(11) 0.4840(3) 0.16507(11)
H1_4 H 0.8853 0.5396 0.1884
C3_4 C 0.82371(10) 0.5173(3) 0.10913(10)
H2_4 H 0.8367 0.5932 0.0952
C4_5 C 0.77502(9) 0.4379(3) 0.07409(9)
C5_5 C 0.75714(11) 0.3234(3) 0.09605(10)
H3_5 H 0.7244 0.2693 0.0733
C6_5 C 0.78746(11) 0.2898(3) 0.15097(10)
H4_5 H 0.7753 0.2118 0.1647
H7_4 H 0.5698 0.5242 0.0086
C12_4 C 0.65016(10) 0.5039(3) 0.01675(9)
H8_4 H 0.6694 0.5358 0.0531
H9_5 H 0.8417 0.3835 0.0228
C19_5 C 0.86739(11) 0.3325(3) 0.24756(11)
O1_5 O 0.90438(11) 0.4157(3) 0.27882(8)
O2_5 O 0.85173(9) 0.2147(3) 0.26056(8)
O7_3 O 0.97070(7) 0.1220(2) 0.36176(8)
O8_3 O 0.84295(8) 0.2113(2) 0.37152(7)
C7_4 C 0.68194(9) 0.4635(3) 0.98971(9)
C8_4 C 0.65191(10) 0.4149(3) 0.93529(10)
H5_4 H 0.6723 0.3869 0.9166
C9_4 C 0.59203(10) 0.4082(3) 0.90913(10)
H6_4 H 0.5725 0.3753 0.8729
C10_4 C 0.56063(10) 0.4495(3) 0.93582(10)
C11_4 C 0.59047(10) 0.4968(3) 0.99003(10)
C13_5 C 0.77338(9) 0.5206(3) 0.98813(9)
C14_4 C 0.82610(10) 0.4597(3) 0.99770(10)
C15_5 C 0.85553(10) 0.5109(3) 0.97043(10)
H10_4 H 0.8911 0.4698 0.9777
C16_5 C 0.83254(11) 0.6240(3) 0.93200(10)
C17_5 C 0.77893(11) 0.6807(3) 0.92148(10)
H11_5 H 0.7624 0.7541 0.8953
C18_5 C 0.74978(10) 0.6307(3) 0.94903(10)
H12_5 H 0.7140 0.6709 0.9414
C20_5 C 0.49482(10) 0.4441(3) 0.90723(10)
C21_5 C 0.86654(11) 0.6840(3) 0.90436(10)
O3_3 O 0.46824(8) 0.5049(3) 0.92887(8)
O4_3 O 0.47070(7) 0.3780(2) 0.86176(8)
O5_3 O 0.84295(8) 0.7887(2) 0.87152(7)
O6_5 O 0.91467(9) 0.6329(2) 0.91602(10)
Zn2_2 Zn 0.886827(11) 0.86397(3) 0.835426(11)
Zn3_2 Zn 0.386827(11) 0.36397(3) 0.835426(11)
C13_6 C 0.27338(9) 0.0206(3) 0.98813(9)
C15_6 C 0.35553(10) 0.0109(3) 0.97043(10)
C16_6 C 0.33254(11) 0.1240(3) 0.93200(10)
C17_6 C 0.27893(11) 0.1807(3) 0.92148(10)
H11_6 H 0.2624 0.2541 0.8953
C18_6 C 0.24978(10) 0.1307(3) 0.94903(10)
H12_6 H 0.2140 0.1709 0.9414
C21_6 C 0.36654(11) 0.1840(3) 0.90436(10)
O5_4 O 0.34295(8) 0.2887(2) 0.87152(7)
O6_6 O 0.41467(9) 0.1329(2) 0.91602(10)
Zn1_4 Zn 0.386827(11) 0.63603(3) 0.335426(11)
N1_6 N 0.24375(8) 0.9711(2) 0.01716(8)
N2_4 N 0.34977(9) 0.4277(3) 0.31307(9)
C1_6 C 0.33563(11) 0.8693(3) 0.18634(10)
C2_6 C 0.35330(11) 0.9840(3) 0.16507(11)
C4_6 C 0.27502(9) 0.9379(3) 0.07409(9)
C5_6 C 0.25714(11) 0.8234(3) 0.09605(10)
H3_6 H 0.2244 0.7693 0.0733
C6_6 C 0.28746(11) 0.7898(3) 0.15097(10)
H4_6 H 0.2753 0.7118 0.1647
H9_6 H 0.3417 0.8835 0.0228
C19_6 C 0.36739(11) 0.8325(3) 0.24756(11)
C22_4 C 0.32057(15) 0.3853(4) 0.26056(14)
H13_4 H 0.3148 0.4522 0.2330
C23_4 C 0.29873(19) 0.2465(5) 0.24572(18)
H14_4 H 0.2780 0.2213 0.2087
C24_4 C 0.30748(18) 0.1462(4) 0.2854(2)
H15_4 H 0.2941 0.0509 0.2761
C25_4 C 0.33606(16) 0.1882(4) 0.33888(19)
H16_4 H 0.3417 0.1226 0.3668
C26_4 C 0.35665(13) 0.3285(3) 0.35156(14)
H17_4 H 0.3762 0.3558 0.3884
O1_6 O 0.40438(11) 0.9157(3) 0.27882(8)
O2_6 O 0.35173(9) 0.7147(3) 0.26056(8)
O7_4 O 0.47070(7) 0.6220(2) 0.36176(8)
O8_4 O 0.34295(8) 0.7113(2) 0.37152(7)
C20_6 C 0.99482(10) 0.9441(3) 0.90723(10)
O4_4 O 0.97070(7) 0.8780(2) 0.86176(8)
N1_7 N 0.74375(8) 0.5289(2) 0.51716(8)
C1_7 C 0.83563(11) 0.6307(3) 0.68634(10)
C2_7 C 0.85330(11) 0.5160(3) 0.66507(11)
H1_5 H 0.8853 0.4604 0.6884
C3_5 C 0.82371(10) 0.4827(3) 0.60913(10)
H2_5 H 0.8367 0.4068 0.5952
C4_7 C 0.77502(9) 0.5621(3) 0.57409(9)
C5_7 C 0.75714(11) 0.6766(3) 0.59605(10)
H3_7 H 0.7244 0.7307 0.5733
C6_7 C 0.78746(11) 0.7102(3) 0.65097(10)
H4_7 H 0.7753 0.7882 0.6647
C7_5 C 0.68194(9) 0.5365(3) 0.48971(9)
C8_5 C 0.65191(10) 0.5851(3) 0.43529(10)
H5_5 H 0.6723 0.6131 0.4166
C9_5 C 0.59203(10) 0.5918(3) 0.40913(10)
H6_5 H 0.5725 0.6247 0.3729
C10_5 C 0.56063(10) 0.5505(3) 0.43582(10)
C11_5 C 0.59047(10) 0.5032(3) 0.49003(10)
H7_5 H 0.5698 0.4758 0.5086
C12_5 C 0.65016(10) 0.4961(3) 0.51675(9)
H8_5 H 0.6694 0.4642 0.5531
C13_7 C 0.77338(9) 0.4794(3) 0.48813(9)
C14_5 C 0.82610(10) 0.5403(3) 0.49770(10)
H9_7 H 0.8417 0.6165 0.5228
C15_7 C 0.85553(10) 0.4891(3) 0.47043(10)
H10_5 H 0.8911 0.5302 0.4777
C16_7 C 0.83254(11) 0.3760(3) 0.43200(10)
C17_7 C 0.77893(11) 0.3193(3) 0.42148(10)
H11_7 H 0.7624 0.2459 0.3953
C18_7 C 0.74978(10) 0.3693(3) 0.44903(10)
H12_7 H 0.7140 0.3291 0.4414
C19_7 C 0.86739(11) 0.6675(3) 0.74756(11)
C20_7 C 0.49482(10) 0.5559(3) 0.40723(10)
C21_7 C 0.86654(11) 0.3160(3) 0.40436(10)
O1_7 O 0.90438(11) 0.5843(3) 0.77882(8)
O2_7 O 0.85173(9) 0.7853(3) 0.76056(8)
O3_4 O 0.46824(8) 0.4951(3) 0.42887(8)
O6_7 O 0.91467(9) 0.3671(2) 0.41602(10)
N1_8 N 0.24375(8) 0.0289(2) 0.51716(8)
N2_5 N 0.34977(9) 0.5723(3) 0.81307(9)
C1_8 C 0.33563(11) 0.1307(3) 0.68634(10)
C2_8 C 0.35330(11) 0.0160(3) 0.66507(11)
C4_8 C 0.27502(9) 0.0621(3) 0.57409(9)
C5_8 C 0.25714(11) 0.1766(3) 0.59605(10)
H3_8 H 0.2244 0.2307 0.5733
C6_8 C 0.28746(11) 0.2102(3) 0.65097(10)
H4_8 H 0.2753 0.2882 0.6647
C7_6 C 0.18194(9) 0.0365(3) 0.48971(9)
C8_6 C 0.15191(10) 0.0851(3) 0.43529(10)
H5_6 H 0.1723 0.1131 0.4166
C9_6 C 0.09203(10) 0.0918(3) 0.40913(10)
H6_6 H 0.0725 0.1247 0.3729
C10_6 C 0.06063(10) 0.0505(3) 0.43582(10)
C11_6 C 0.09047(10) 0.0032(3) 0.49003(10)
C14_6 C 0.32610(10) 0.0403(3) 0.49770(10)
H9_8 H 0.3417 0.1165 0.5228
H10_6 H 0.3911 0.0302 0.4777
C19_8 C 0.36739(11) 0.1675(3) 0.74756(11)
C22_5 C 0.32057(15) 0.6147(4) 0.76056(14)
H13_5 H 0.3148 0.5478 0.7330
C23_5 C 0.29873(19) 0.7535(5) 0.74572(18)
H14_5 H 0.2780 0.7787 0.7087
C24_5 C 0.30748(18) 0.8538(4) 0.7854(2)
H15_5 H 0.2941 0.9491 0.7761
C25_5 C 0.33606(16) 0.8118(4) 0.83888(19)
H16_5 H 0.3417 0.8774 0.8668
C26_5 C 0.35665(13) 0.6715(3) 0.85156(14)
H17_5 H 0.3762 0.6442 0.8884
O1_8 O 0.40438(11) 0.0843(3) 0.77882(8)
O2_8 O 0.35173(9) 0.2853(3) 0.76056(8)
H1_6 H 0.3853 0.9604 0.6884
C3_6 C 0.32371(10) 0.9827(3) 0.60913(10)
H2_6 H 0.3367 0.9068 0.5952
H7_6 H 0.0698 0.9758 0.5086
C12_6 C 0.15016(10) 0.9961(3) 0.51675(9)
H8_6 H 0.1694 0.9642 0.5531
C13_8 C 0.27338(9) 0.9794(3) 0.48813(9)
C15_8 C 0.35553(10) 0.9891(3) 0.47043(10)
C16_8 C 0.33254(11) 0.8760(3) 0.43200(10)
C17_8 C 0.27893(11) 0.8193(3) 0.42148(10)
H11_8 H 0.2624 0.7459 0.3953
C18_8 C 0.24978(10) 0.8693(3) 0.44903(10)
H12_8 H 0.2140 0.8291 0.4414
C21_8 C 0.36654(11) 0.8160(3) 0.40436(10)
O6_8 O 0.41467(9) 0.8671(2) 0.41602(10)
C20_8 C 0.99482(10) 0.0559(3) 0.40723(10)
N2_6 N 0.84977(9) 0.9277(3) 0.31307(9)
C22_6 C 0.82057(15) 0.8853(4) 0.26056(14)
H13_6 H 0.8148 0.9522 0.2330
C23_6 C 0.79873(19) 0.7465(5) 0.24572(18)
H14_6 H 0.7780 0.7213 0.2087
C24_6 C 0.80748(18) 0.6462(4) 0.2854(2)
H15_6 H 0.7941 0.5509 0.2761
C25_6 C 0.83606(16) 0.6882(4) 0.33888(19)
H16_6 H 0.8417 0.6226 0.3668
C26_6 C 0.85665(13) 0.8285(3) 0.35156(14)
H17_6 H 0.8762 0.8558 0.3884
O3_5 O 0.03176(8) 0.0049(3) 0.57113(8)
H1_7 H 0.3853 0.0396 0.1884
C3_7 C 0.32371(10) 0.0173(3) 0.10913(10)
H2_7 H 0.3367 0.0932 0.0952
H7_7 H 0.0698 0.0242 0.0086
C12_7 C 0.15016(10) 0.0039(3) 0.01675(9)
H8_7 H 0.1694 0.0358 0.0531
C7_7 C 0.18194(9) 0.9635(3) 0.98971(9)
C8_7 C 0.15191(10) 0.9149(3) 0.93529(10)
H5_7 H 0.1723 0.8869 0.9166
C9_7 C 0.09203(10) 0.9082(3) 0.90913(10)
H6_7 H 0.0725 0.8753 0.8729
C10_7 C 0.06063(10) 0.9495(3) 0.93582(10)
C11_7 C 0.09047(10) 0.9968(3) 0.99003(10)
C14_7 C 0.32610(10) 0.9597(3) 0.99770(10)
H10_7 H 0.3911 0.9698 0.9777
O3_6 O 0.96824(8) 0.0049(3) 0.92887(8)
N2_7 N 0.84977(9) 0.0723(3) 0.81307(9)
C22_7 C 0.82057(15) 0.1147(4) 0.76056(14)
H13_7 H 0.8148 0.0478 0.7330
C23_7 C 0.79873(19) 0.2535(5) 0.74572(18)
H14_7 H 0.7780 0.2787 0.7087
C24_7 C 0.80748(18) 0.3538(4) 0.7854(2)
H15_7 H 0.7941 0.4491 0.7761
C25_7 C 0.83606(16) 0.3118(4) 0.83888(19)
H16_7 H 0.8417 0.3774 0.8668
C26_7 C 0.85665(13) 0.1715(3) 0.85156(14)
H17_7 H 0.8762 0.1442 0.8884
N2_8 N 0.15023(9) 0.0723(3) 0.68693(9)
C22_8 C 0.17943(15) 0.1147(4) 0.73944(14)
H13_8 H 0.1852 0.0478 0.7670
C23_8 C 0.20127(19) 0.2535(5) 0.75428(18)
H14_8 H 0.2220 0.2787 0.7913
C24_8 C 0.19252(18) 0.3538(4) 0.7146(2)
H15_8 H 0.2059 0.4491 0.7239
C25_8 C 0.16394(16) 0.3118(4) 0.66112(19)
H16_8 H 0.1583 0.3774 0.6332
C26_8 C 0.14335(13) 0.1715(3) 0.64844(14)
H17_8 H 0.1238 0.1442 0.6116
O3_7 O 0.96824(8) 0.9951(3) 0.42887(8)
O3_8 O 0.03176(8) 0.9951(3) 0.07113(8)
C7_8 C 0.81806(9) 0.0365(3) 0.01029(9)
C8_8 C 0.84809(10) 0.0851(3) 0.06471(10)
H5_8 H 0.8277 0.1131 0.0834
C9_8 C 0.90797(10) 0.0918(3) 0.09087(10)
H6_8 H 0.9275 0.1247 0.1271
C10_8 C 0.93937(10) 0.0505(3) 0.06418(10)
C11_8 C 0.90953(10) 0.0032(3) 0.00997(10)
C14_8 C 0.67390(10) 0.0403(3) 0.00230(10)
H10_8 H 0.6089 0.0302 0.0223
H1_8 H 0.6147 0.9604 0.8116
C3_8 C 0.67629(10) 0.9827(3) 0.89087(10)
H2_8 H 0.6633 0.9068 0.9048
H7_8 H 0.9302 0.9758 0.9914
C12_8 C 0.84984(10) 0.9961(3) 0.98325(9)
H8_8 H 0.8306 0.9642 0.9469
N3 N 0.02184(11) 0.5527(3) 0.12440(11)
H18 H 0.0517 0.5373 0.1194
C27 C 0.0159(2) 0.6817(5) 0.1529(2)
H19 H 0.0495 0.7426 0.1642
H20 H 0.0123 0.6518 0.1847
H25 H 0.0414321 0.498408 0.160808
H21 H 0.9819 0.7354 0.1284
C28 C 0.97306(15) 0.4535(5) 0.10540(18)
H22 H 0.9797 0.3722 0.0870
H23 H 0.9383 0.5035 0.0803
H24 H 0.9688 0.4189 0.1363
H21_2 H 0.0181 0.7354 0.3716
C28_2 C 0.02694(15) 0.4535(5) 0.39460(18)
H22_2 H 0.0203 0.3722 0.4130
H23_2 H 0.0617 0.5035 0.4197
H24_2 H 0.0312 0.4189 0.3637
N3_2 N 0.97816(11) 0.5527(3) 0.37560(11)
H18_2 H 0.9483 0.5373 0.3806
C27_2 C 0.9841(2) 0.6817(5) 0.3471(2)
H19_2 H 0.9505 0.7426 0.3358
H20_2 H 0.9877 0.6518 0.3153
H25_2 H 0.958568 0.498408 0.339192
N3_3 N 0.52184(11) 0.0527(3) 0.12440(11)
H18_3 H 0.5517 0.0373 0.1194
C27_3 C 0.5159(2) 0.1817(5) 0.1529(2)
H19_3 H 0.5495 0.2426 0.1642
H20_3 H 0.5123 0.1518 0.1847
H21_3 H 0.4819 0.2354 0.1284
H23_3 H 0.4383 0.0035 0.0803
C28_3 C 0.47306(15) 0.9535(5) 0.10540(18)
H22_3 H 0.4797 0.8722 0.0870
H24_3 H 0.4688 0.9189 0.1363
H25_3 H 0.541432 0.998408 0.160808
N3_4 N 0.47816(11) 0.0527(3) 0.37560(11)
H18_4 H 0.4483 0.0373 0.3806
C27_4 C 0.4841(2) 0.1817(5) 0.3471(2)
H19_4 H 0.4505 0.2426 0.3358
H20_4 H 0.4877 0.1518 0.3153
H21_4 H 0.5181 0.2354 0.3716
H23_4 H 0.5617 0.0035 0.4197
C28_4 C 0.52694(15) 0.9535(5) 0.39460(18)
H22_4 H 0.5203 0.8722 0.4130
H24_4 H 0.5312 0.9189 0.3637
H25_4 H 0.458568 0.998408 0.339192
H21_5 H 0.0181 0.2646 0.8716
C28_5 C 0.02694(15) 0.5465(5) 0.89460(18)
H22_5 H 0.0203 0.6278 0.9130
H23_5 H 0.0617 0.4965 0.9197
H24_5 H 0.0312 0.5811 0.8637
N3_5 N 0.97816(11) 0.4473(3) 0.87560(11)
H18_5 H 0.9483 0.4627 0.8806
C27_5 C 0.9841(2) 0.3183(5) 0.8471(2)
H19_5 H 0.9505 0.2574 0.8358
H20_5 H 0.9877 0.3482 0.8153
H25_5 H 0.958568 0.501592 0.839192
N3_6 N 0.02184(11) 0.4473(3) 0.62440(11)
H18_6 H 0.0517 0.4627 0.6194
C27_6 C 0.0159(2) 0.3183(5) 0.6529(2)
H19_6 H 0.0495 0.2574 0.6642
H20_6 H 0.0123 0.3482 0.6847
H25_6 H 0.0414321 0.501592 0.660808
H21_6 H 0.9819 0.2646 0.6284
C28_6 C 0.97306(15) 0.5465(5) 0.60540(18)
H22_6 H 0.9797 0.6278 0.5870
H23_6 H 0.9383 0.4965 0.5803
H24_6 H 0.9688 0.5811 0.6363
C28_7 C 0.52694(15) 0.0465(5) 0.89460(18)
H22_7 H 0.5203 0.1278 0.9130
H24_7 H 0.5312 0.0811 0.8637
H25_7 H 0.458568 0.00159162 0.839192
N3_7 N 0.47816(11) 0.9473(3) 0.87560(11)
H18_7 H 0.4483 0.9627 0.8806
C27_7 C 0.4841(2) 0.8183(5) 0.8471(2)
H19_7 H 0.4505 0.7574 0.8358
H20_7 H 0.4877 0.8482 0.8153
H21_7 H 0.5181 0.7646 0.8716
H23_7 H 0.5617 0.9965 0.9197
C28_8 C 0.47306(15) 0.0465(5) 0.60540(18)
H22_8 H 0.4797 0.1278 0.5870
H24_8 H 0.4688 0.0811 0.6363
H25_8 H 0.541432 0.00159162 0.660808
N3_8 N 0.52184(11) 0.9473(3) 0.62440(11)
H18_8 H 0.5517 0.9627 0.6194
C27_8 C 0.5159(2) 0.8183(5) 0.6529(2)
H19_8 H 0.5495 0.7574 0.6642
H20_8 H 0.5123 0.8482 0.6847
H21_8 H 0.4819 0.7646 0.6284
H23_8 H 0.4383 0.9965 0.5803
loop_
_geom_bond_atom_site_label_1
_geom_bond_atom_site_label_2
_geom_bond_site_symmetry_1
_geom_bond_site_symmetry_2
N1 C4 1_555 1_555
C1 C2 1_555 1_555
C2 H1 1_555 1_555
C3 C2 1_555 1_555
H2 C3 1_555 1_555
C4 C3 1_555 1_555
C5 C4 1_555 1_555
H3 C5 1_555 1_555
C6 C1 1_555 1_555
H4 C6 1_555 1_555
C7 N1 1_555 1_555
C8 C7 1_555 1_555
H5 C8 1_555 1_555
C9 C8 1_555 1_555
H6 C9 1_555 1_555
C10 C9 1_555 1_555
C11 C10 1_555 1_555
H7 C11 1_555 1_555
C12 C7 1_555 1_555
H8 C12 1_555 1_555
C13 N1 1_555 1_555
C14 C13 1_555 1_555
H9 C14 1_555 1_555
C15 C14 1_555 1_555
H10 C15 1_555 1_555
C16 C15 1_555 1_555
C17 C16 1_555 1_555
H11 C17 1_555 1_555
C18 C13 1_555 1_555
H12 C18 1_555 1_555
C19 C1 1_555 1_555
C20 C10 1_555 1_555
C21 C16 1_555 1_555
O1 C19 1_555 1_555
O2 Zn1 1_555 1_555
O3 C20 1_555 1_555
O4 C20 1_555 1_555
O5 C21 1_555 1_555
O6 C21 1_555 1_555
Zn2 O5 1_555 1_555
Zn3 O4 1_555 1_555
O7 Zn1 1_555 1_555
O8 Zn1 1_555 1_555
C5 C6 1_555 1_555
C11 C12 1_555 1_555
C17 C18 1_555 1_555
C19 O2 1_555 1_555
O4_2 C20_2 1_555 1_555
Zn2 O4_2 1_555 1_555
H2_2 C3_2 1_555 1_555
H8_2 C12_2 1_555 1_555
C16_2 C15_2 1_555 1_555
C17_2 C16_2 1_555 1_555
H11_2 C17_2 1_555 1_555
C18_2 C13_2 1_555 1_555
H12_2 C18_2 1_555 1_555
C21_2 C16_2 1_555 1_555
O5_2 C21_2 1_555 1_555
O6_2 C21_2 1_555 1_555
Zn3 O5_2 1_555 1_555
C17_2 C18_2 1_555 1_555
Zn1_2 N2 1_555 1_555
N1_2 C4_2 1_555 1_555
N2 C22 1_555 1_555
C1_2 C2_2 1_555 1_555
C5_2 C4_2 1_555 1_555
H3_2 C5_2 1_555 1_555
C6_2 C1_2 1_555 1_555
H4_2 C6_2 1_555 1_555
C7_2 N1_2 1_555 1_555
C8_2 C7_2 1_555 1_555
H5_2 C8_2 1_555 1_555
C9_2 C8_2 1_555 1_555
H6_2 C9_2 1_555 1_555
C10_2 C9_2 1_555 1_555
C11_2 C10_2 1_555 1_555
H9_2 C14_2 1_555 1_555
C19_2 C1_2 1_555 1_555
C22 H13 1_555 1_555
C23 C22 1_555 1_555
H14 C23 1_555 1_555
C24 C23 1_555 1_555
H15 C24 1_555 1_555
C25 C24 1_555 1_555
H16 C25 1_555 1_555
C26 N2 1_555 1_555
H17 C26 1_555 1_555
O1_2 C19_2 1_555 1_555
O2_2 Zn1_2 1_555 1_555
O7_2 Zn1_2 1_555 1_555
O8_2 Zn1_2 1_555 1_555
C5_2 C6_2 1_555 1_555
C19_2 O2_2 1_555 1_555
C25 C26 1_555 1_555
C8_3 C7_3 1_555 1_555
H5_3 C8_3 1_555 1_555
C9_3 C8_3 1_555 1_555
H6_3 C9_3 1_555 1_555
C10_3 C9_3 1_555 1_555
C11_3 C10_3 1_555 1_555
C14_3 C13_3 1_555 1_555
C15_3 C14_3 1_555 1_555
H10_3 C15_3 1_555 1_555
C16_3 C15_3 1_555 1_555
C17_3 C16_3 1_555 1_555
H11_3 C17_3 1_555 1_555
C18_3 C13_3 1_555 1_555
H12_3 C18_3 1_555 1_555
C20_3 C10_3 1_555 1_555
C21_3 C16_3 1_555 1_555
O3_2 C20_3 1_555 1_555
O7_2 C20_3 1_555 1_555
O8 C21_3 1_555 1_555
O6_3 C21_3 1_555 1_555
C17_3 C18_3 1_555 1_555
N1_3 C4_3 1_555 1_555
C1_3 C2_3 1_555 1_555
C2_3 H1_3 1_555 1_555
C3_3 C2_3 1_555 1_555
H2_3 C3_3 1_555 1_555
C4_3 C3_3 1_555 1_555
C5_3 C4_3 1_555 1_555
H3_3 C5_3 1_555 1_555
C6_3 C1_3 1_555 1_555
H4_3 C6_3 1_555 1_555
H8_3 C12_3 1_555 1_555
C19_3 C1_3 1_555 1_555
O1_3 C19_3 1_555 1_555
O2_3 Zn2 1_555 1_555
C5_3 C6_3 1_555 1_555
C19_3 O2_3 1_555 1_555
O7 C20_4 1_555 1_555
Zn3 N2_2 1_555 1_555
N1_4 C4_4 1_555 1_555
N2_2 C22_2 1_555 1_555
C1_4 C2_4 1_555 1_555
C5_4 C4_4 1_555 1_555
H3_4 C5_4 1_555 1_555
C6_4 C1_4 1_555 1_555
H4_4 C6_4 1_555 1_555
C19_4 C1_4 1_555 1_555
C22_2 H13_2 1_555 1_555
C23_2 C22_2 1_555 1_555
H14_2 C23_2 1_555 1_555
C24_2 C23_2 1_555 1_555
H15_2 C24_2 1_555 1_555
C25_2 C24_2 1_555 1_555
H16_2 C25_2 1_555 1_555
C26_2 N2_2 1_555 1_555
H17_2 C26_2 1_555 1_555
O1_4 C19_4 1_555 1_555
O2_4 Zn3 1_555 1_555
C5_4 C6_4 1_555 1_555
C19_4 O2_4 1_555 1_555
C25_2 C26_2 1_555 1_555
C16_4 C15_4 1_555 1_555
C17_4 C16_4 1_555 1_555
H11_4 C17_4 1_555 1_555
C18_4 C13_4 1_555 1_555
H12_4 C18_4 1_555 1_555
C21_4 C16_4 1_555 1_555
O8_2 C21_4 1_555 1_555
O6_4 C21_4 1_555 1_555
C17_4 C18_4 1_555 1_555
N2_3 C22_3 1_555 1_555
C22_3 H13_3 1_555 1_555
C23_3 C22_3 1_555 1_555
H14_3 C23_3 1_555 1_555
C24_3 C23_3 1_555 1_555
H15_3 C24_3 1_555 1_555
C25_3 C24_3 1_555 1_555
H16_3 C25_3 1_555 1_555
C26_3 N2_3 1_555 1_555
H17_3 C26_3 1_555 1_555
C25_3 C26_3 1_555 1_555
N1_5 C4_5 1_555 1_555
C1_5 C2_5 1_555 1_555
C2_5 H1_4 1_555 1_555
C3_4 C2_5 1_555 1_555
H2_4 C3_4 1_555 1_555
C4_5 C3_4 1_555 1_555
C5_5 C4_5 1_555 1_555
H3_5 C5_5 1_555 1_555
C6_5 C1_5 1_555 1_555
H4_5 C6_5 1_555 1_555
H8_4 C12_4 1_555 1_555
C19_5 C1_5 1_555 1_555
O1_5 C19_5 1_555 1_555
O2_5 Zn1_3 1_555 1_555
O7_3 Zn1_3 1_555 1_555
O8_3 Zn1_3 1_555 1_555
C5_5 C6_5 1_555 1_555
C19_5 O2_5 1_555 1_555
C8_4 C7_4 1_555 1_555
H5_4 C8_4 1_555 1_555
C9_4 C8_4 1_555 1_555
H6_4 C9_4 1_555 1_555
C10_4 C9_4 1_555 1_555
C11_4 C10_4 1_555 1_555
C14_4 C13_5 1_555 1_555
C15_5 C14_4 1_555 1_555
H10_4 C15_5 1_555 1_555
C16_5 C15_5 1_555 1_555
C17_5 C16_5 1_555 1_555
H11_5 C17_5 1_555 1_555
C18_5 C13_5 1_555 1_555
H12_5 C18_5 1_555 1_555
C20_5 C10_4 1_555 1_555
C21_5 C16_5 1_555 1_555
O3_3 C20_5 1_555 1_555
O4_3 C20_5 1_555 1_555
O5_3 C21_5 1_555 1_555
O6_5 C21_5 1_555 1_555
Zn2_2 O5_3 1_555 1_555
Zn3_2 O4_3 1_555 1_555
C17_5 C18_5 1_555 1_555
C16_6 C15_6 1_555 1_555
C17_6 C16_6 1_555 1_555
H11_6 C17_6 1_555 1_555
C18_6 C13_6 1_555 1_555
H12_6 C18_6 1_555 1_555
C21_6 C16_6 1_555 1_555
O5_4 C21_6 1_555 1_555
O6_6 C21_6 1_555 1_555
Zn3_2 O5_4 1_555 1_555
C17_6 C18_6 1_555 1_555
Zn1_4 N2_4 1_555 1_555
N1_6 C4_6 1_555 1_555
N2_4 C22_4 1_555 1_555
C1_6 C2_6 1_555 1_555
C5_6 C4_6 1_555 1_555
H3_6 C5_6 1_555 1_555
C6_6 C1_6 1_555 1_555
H4_6 C6_6 1_555 1_555
C19_6 C1_6 1_555 1_555
C22_4 H13_4 1_555 1_555
C23_4 C22_4 1_555 1_555
H14_4 C23_4 1_555 1_555
C24_4 C23_4 1_555 1_555
H15_4 C24_4 1_555 1_555
C25_4 C24_4 1_555 1_555
H16_4 C25_4 1_555 1_555
C26_4 N2_4 1_555 1_555
H17_4 C26_4 1_555 1_555
O1_6 C19_6 1_555 1_555
O2_6 Zn1_4 1_555 1_555
O7_4 Zn1_4 1_555 1_555
O8_4 Zn1_4 1_555 1_555
C5_6 C6_6 1_555 1_555
C19_6 O2_6 1_555 1_555
C25_4 C26_4 1_555 1_555
O4_4 C20_6 1_555 1_555
Zn2_2 O4_4 1_555 1_555
N1_7 C4_7 1_555 1_555
C1_7 C2_7 1_555 1_555
C2_7 H1_5 1_555 1_555
C3_5 C2_7 1_555 1_555
H2_5 C3_5 1_555 1_555
C4_7 C3_5 1_555 1_555
C5_7 C4_7 1_555 1_555
H3_7 C5_7 1_555 1_555
C6_7 C1_7 1_555 1_555
H4_7 C6_7 1_555 1_555
C7_5 N1_7 1_555 1_555
C8_5 C7_5 1_555 1_555
H5_5 C8_5 1_555 1_555
C9_5 C8_5 1_555 1_555
H6_5 C9_5 1_555 1_555
C10_5 C9_5 1_555 1_555
C11_5 C10_5 1_555 1_555
H7_5 C11_5 1_555 1_555
C12_5 C7_5 1_555 1_555
H8_5 C12_5 1_555 1_555
C13_7 N1_7 1_555 1_555
C14_5 C13_7 1_555 1_555
H9_7 C14_5 1_555 1_555
C15_7 C14_5 1_555 1_555
H10_5 C15_7 1_555 1_555
C16_7 C15_7 1_555 1_555
C17_7 C16_7 1_555 1_555
H11_7 C17_7 1_555 1_555
C18_7 C13_7 1_555 1_555
H12_7 C18_7 1_555 1_555
C19_7 C1_7 1_555 1_555
C20_7 C10_5 1_555 1_555
C21_7 C16_7 1_555 1_555
O1_7 C19_7 1_555 1_555
O2_7 Zn2_2 1_555 1_555
O3_4 C20_7 1_555 1_555
O7_4 C20_7 1_555 1_555
O8_3 C21_7 1_555 1_555
O6_7 C21_7 1_555 1_555
C5_7 C6_7 1_555 1_555
C11_5 C12_5 1_555 1_555
C17_7 C18_7 1_555 1_555
C19_7 O2_7 1_555 1_555
Zn3_2 N2_5 1_555 1_555
N1_8 C4_8 1_555 1_555
N2_5 C22_5 1_555 1_555
C1_8 C2_8 1_555 1_555
C5_8 C4_8 1_555 1_555
H3_8 C5_8 1_555 1_555
C6_8 C1_8 1_555 1_555
H4_8 C6_8 1_555 1_555
C7_6 N1_8 1_555 1_555
C8_6 C7_6 1_555 1_555
H5_6 C8_6 1_555 1_555
C9_6 C8_6 1_555 1_555
H6_6 C9_6 1_555 1_555
C10_6 C9_6 1_555 1_555
C11_6 C10_6 1_555 1_555
H9_8 C14_6 1_555 1_555
C19_8 C1_8 1_555 1_555
C22_5 H13_5 1_555 1_555
C23_5 C22_5 1_555 1_555
H14_5 C23_5 1_555 1_555
C24_5 C23_5 1_555 1_555
H15_5 C24_5 1_555 1_555
C25_5 C24_5 1_555 1_555
H16_5 C25_5 1_555 1_555
C26_5 N2_5 1_555 1_555
H17_5 C26_5 1_555 1_555
O1_8 C19_8 1_555 1_555
O2_8 Zn3_2 1_555 1_555
C5_8 C6_8 1_555 1_555
C19_8 O2_8 1_555 1_555
C25_5 C26_5 1_555 1_555
H2_6 C3_6 1_555 1_555
H8_6 C12_6 1_555 1_555
C16_8 C15_8 1_555 1_555
C17_8 C16_8 1_555 1_555
H11_8 C17_8 1_555 1_555
C18_8 C13_8 1_555 1_555
H12_8 C18_8 1_555 1_555
C21_8 C16_8 1_555 1_555
O8_4 C21_8 1_555 1_555
O6_8 C21_8 1_555 1_555
C17_8 C18_8 1_555 1_555
O7_3 C20_8 1_555 1_555
N2_6 C22_6 1_555 1_555
C22_6 H13_6 1_555 1_555
C23_6 C22_6 1_555 1_555
H14_6 C23_6 1_555 1_555
C24_6 C23_6 1_555 1_555
H15_6 C24_6 1_555 1_555
C25_6 C24_6 1_555 1_555
H16_6 C25_6 1_555 1_555
C26_6 N2_6 1_555 1_555
H17_6 C26_6 1_555 1_555
C25_6 C26_6 1_555 1_555
H2_7 C3_7 1_555 1_555
H8_7 C12_7 1_555 1_555
C8_7 C7_7 1_555 1_555
H5_7 C8_7 1_555 1_555
C9_7 C8_7 1_555 1_555
H6_7 C9_7 1_555 1_555
C10_7 C9_7 1_555 1_555
C11_7 C10_7 1_555 1_555
N2_7 C22_7 1_555 1_555
C22_7 H13_7 1_555 1_555
C23_7 C22_7 1_555 1_555
H14_7 C23_7 1_555 1_555
C24_7 C23_7 1_555 1_555
H15_7 C24_7 1_555 1_555
C25_7 C24_7 1_555 1_555
H16_7 C25_7 1_555 1_555
C26_7 N2_7 1_555 1_555
H17_7 C26_7 1_555 1_555
C25_7 C26_7 1_555 1_555
N2_8 C22_8 1_555 1_555
C22_8 H13_8 1_555 1_555
C23_8 C22_8 1_555 1_555
H14_8 C23_8 1_555 1_555
C24_8 C23_8 1_555 1_555
H15_8 C24_8 1_555 1_555
C25_8 C24_8 1_555 1_555
H16_8 C25_8 1_555 1_555
C26_8 N2_8 1_555 1_555
H17_8 C26_8 1_555 1_555
C25_8 C26_8 1_555 1_555
C8_8 C7_8 1_555 1_555
H5_8 C8_8 1_555 1_555
C9_8 C8_8 1_555 1_555
H6_8 C9_8 1_555 1_555
C10_8 C9_8 1_555 1_555
C11_8 C10_8 1_555 1_555
H2_8 C3_8 1_555 1_555
H8_8 C12_8 1_555 1_555
N3 H18 1_555 1_555
C27 N3 1_555 1_555
H19 C27 1_555 1_555
H20 C27 1_555 1_555
N3 H25 1_555 1_555
H22 C28 1_555 1_555
H23 C28 1_555 1_555
H24 C28 1_555 1_555
H22_2 C28_2 1_555 1_555
H23_2 C28_2 1_555 1_555
H24_2 C28_2 1_555 1_555
N3_2 H18_2 1_555 1_555
C27_2 N3_2 1_555 1_555
H19_2 C27_2 1_555 1_555
H20_2 C27_2 1_555 1_555
N3_2 H25_2 1_555 1_555
N3_3 H18_3 1_555 1_555
C27_3 N3_3 1_555 1_555
H19_3 C27_3 1_555 1_555
H20_3 C27_3 1_555 1_555
H21_3 C27_3 1_555 1_555
H22_3 C28_3 1_555 1_555
H24_3 C28_3 1_555 1_555
N3_4 H18_4 1_555 1_555
C27_4 N3_4 1_555 1_555
H19_4 C27_4 1_555 1_555
H20_4 C27_4 1_555 1_555
H21_4 C27_4 1_555 1_555
H22_4 C28_4 1_555 1_555
H24_4 C28_4 1_555 1_555
H22_5 C28_5 1_555 1_555
H23_5 C28_5 1_555 1_555
H24_5 C28_5 1_555 1_555
N3_5 H18_5 1_555 1_555
C27_5 N3_5 1_555 1_555
H19_5 C27_5 1_555 1_555
H20_5 C27_5 1_555 1_555
N3_5 H25_5 1_555 1_555
N3_6 H18_6 1_555 1_555
C27_6 N3_6 1_555 1_555
H19_6 C27_6 1_555 1_555
H20_6 C27_6 1_555 1_555
N3_6 H25_6 1_555 1_555
H22_6 C28_6 1_555 1_555
H23_6 C28_6 1_555 1_555
H24_6 C28_6 1_555 1_555
H22_7 C28_7 1_555 1_555
H24_7 C28_7 1_555 1_555
N3_7 H18_7 1_555 1_555
C27_7 N3_7 1_555 1_555
H19_7 C27_7 1_555 1_555
H20_7 C27_7 1_555 1_555
H21_7 C27_7 1_555 1_555
H22_8 C28_8 1_555 1_555
H24_8 C28_8 1_555 1_555
N3_8 H18_8 1_555 1_555
C27_8 N3_8 1_555 1_555
H19_8 C27_8 1_555 1_555
H20_8 C27_8 1_555 1_555
H21_8 C27_8 1_555 1_555

#END
