
###############################################################################
#
# This file contains modified crystal structure data generated from the
# MOF subset of the Cambridge Structural Database (CSD) v543 
# hosted by the Cambridge Crystallographic Data Centre (CCDC).
#
# This work is licensed under the Creative Commons
# Attribution-NonCommercial-ShareAlike 4.0 International License.
# To view a copy of this license, visit
# http://creativecommons.org/licenses/by-nc-sa/4.0/
# or send a letter to
# Creative Commons, PO Box 1866, Mountain View, CA 94042, USA.
#
# CIF created using the CSD Python API on 29 September 2022
# The structure has been converted into the P1 space group
# The structure has a 3D framework
# The original CSD entry KUKMUA is in the orthorhombic crystal system
# The framework has been calculated to contain at least 10.0% void space
# The void calculation uses a probe of radius 1.32A, grid spacing 0.4
# H atom positions have been added when not included in the experimental data
#
###############################################################################

data_KUKMUA
_chemical_formula_moiety         '(C352 H320 Cu54 N32 O273 S32)n'
_symmetry_cell_setting           triclinic
_symmetry_space_group_name_H-M   'P 1'
_symmetry_Int_Tables_number      1
_space_group_name_Hall           'P 1'
loop_
_symmetry_equiv_pos_site_id
_symmetry_equiv_pos_as_xyz
1 x,y,z
_cell_length_a                   24.748(5)
_cell_length_b                   32.354(5)
_cell_length_c                   21.712(5)
_cell_angle_alpha                90
_cell_angle_beta                 90
_cell_angle_gamma                90
_cell_volume                     17384.7
loop_
_atom_site_label
_atom_site_type_symbol
_atom_site_fract_x
_atom_site_fract_y
_atom_site_fract_z
Cu11 Cu 0.07767(5) 0.32398(3) 0.51391(10)
Cu13 Cu 0.00600(6) 0.24623(4) 0.58346(7)
C1 C 0.5914(5) 0.3229(4) 0.2089(7)
C2 C 0.5685(3) 0.3093(3) 0.2628(8)
H1 H 0.5428 0.2884 0.2615
C3 C 0.5832(4) 0.3263(3) 0.3201(6)
C4 C 0.6248(5) 0.3565(4) 0.3210(7)
H2 H 0.6397 0.3654 0.3580
C5 C 0.6425(3) 0.3723(2) 0.2655(8)
C6 C 0.6255(5) 0.3578(3) 0.2104(6)
H3 H 0.6361 0.3707 0.1741
C7 C 0.5707(5) 0.3067(4) 0.1498(6)
C8 C 0.5655(5) 0.3097(4) 0.3820(6)
C9 C 0.8254(4) 0.4443(4) 0.6317(5)
C13 C 0.8479(6) 0.3441(5) 0.2962(7)
H5 H 0.8135 0.3464 0.3132
C14 C 0.8559(6) 0.2762(4) 0.3453(8)
H6 H 0.8830 0.2551 0.3495
H7 H 0.8248 0.2650 0.3250
H8 H 0.8458 0.2861 0.3854
C15 C 0.9349(6) 0.3062(4) 0.2931(8)
H9 H 0.9481 0.2799 0.3068
H10 H 0.9550 0.3279 0.3128
H11 H 0.9391 0.3083 0.2493
C16 C 0.8164(5) 0.4388(4) 0.4006(6)
C17 C 0.8739(4) 0.3918(3) 0.4596(6)
H12 H 0.8811 0.3786 0.4225
C18 C 0.8409(5) 0.4247(3) 0.4593(6)
C19 C 0.8232(3) 0.4413(2) 0.5134(7)
H13 H 0.7992 0.4634 0.5130
C20 C 0.8412(5) 0.4248(4) 0.5702(6)
C21 C 0.8830(4) 0.3940(4) 0.5697(6)
H14 H 0.8997 0.3861 0.6062
C22 C 0.8982(4) 0.3763(3) 0.5139(8)
N1 N 0.8774(4) 0.3101(3) 0.3092(5)
O1 O 0.5433(3) 0.2745(3) 0.1509(4)
O2 O 0.5938(3) 0.3223(2) 0.1019(3)
O3 O 0.6910(3) 0.4329(3) 0.2088(4)
O4 O 0.7443(3) 0.38681(19) 0.2731(6)
O5 O 0.6858(5) 0.4373(3) 0.3204(5)
O6 O 0.5516(2) 0.26726(15) 0.0137(5)
O7 O 0.4592(2) 0.22908(15) 0.0124(5)
O8 O 0.7858(3) 0.4701(2) 0.4012(4)
O9 O 0.6158(3) 0.3778(2) 0.0137(7)
O10 O 0.8316(3) 0.4221(2) 0.6762(4)
O11 O 0.7971(3) 0.4757(2) 0.6303(4)
O12 O 0.5332(3) 0.2799(3) 0.3809(4)
O13 O 0.5751(3) 0.3319(2) 0.4253(3)
O14 O 0.8656(3) 0.3737(2) 0.2608(6)
O15 O 0.8394(3) 0.4233(2) 0.3513(4)
O16 O 0.9390(5) 0.3116(3) 0.5682(6)
O17 O 0.9970(3) 0.3573(2) 0.5175(8)
S1 S 0.69501(10) 0.41073(7) 0.2668(2)
S2 S 0.94647(9) 0.33648(7) 0.5132(2)
Cu2 Cu 0.82347(4) 0.42376(3) 0.26319(10)
Cu3 Cu 0.57767(5) 0.32398(3) 0.01391(10)
Cu4 Cu 0.50600(6) 0.24623(4) 0.08346(7)
O18 O 0.9392(5) 0.3154(3) 0.4588(6)
O20 O 0.5642(5) 0.1873(3) 0.0704(5)
O21 O 0.7908(2) 0.47908(15) 0.2624(5)
O22 O 0.4642(3) 0.2201(2) 0.1512(4)
O26 O 0.8251(3) 0.4181(2) 0.1753(3)
O27 O 0.4390(5) 0.3116(3) 0.0682(6)
O28 O 0.4970(3) 0.3573(2) 0.0175(8)
Cu5 Cu 0.74192(6) 0.49579(4) 0.19505(8)
Cu6 Cu 0.49192(6) 0.25421(4) 0.44505(8)
Cu7 Cu 0.75808(6) 0.50421(4) 0.69505(8)
Cu8 Cu 0.42653(4) 0.17376(3) 0.01319(10)
Cu9 Cu 0.57347(4) 0.32624(3) 0.51319(10)
Cu10 Cu 0.82767(5) 0.42602(3) 0.76391(10)
Cu12 Cu 0.74400(6) 0.49623(4) 0.33346(7)
H17 H 0.681358 0.439328 0.0377464
C10 C 0.5978(6) 0.4066(3) 0.9824(5)
H4 H 0.5620 0.4053 0.9696
C11 C 0.6805(8) 0.4395(6) 0.9876(14)
C12 C 0.6047(8) 0.4680(6) 0.9300(9)
N2 N 0.6256(5) 0.4376(4) 0.9668(6)
Cu1 Cu 0.50808(6) 0.24579(4) 0.94505(8)
O19 O 0.5590(3) 0.1829(3) 0.9588(4)
O23 O 0.5816(3) 0.3279(2) 0.9262(4)
O24 O 0.5471(3) 0.2743(2) 0.8803(4)
O25 O 0.4668(3) 0.2201(3) 0.8809(4)
H15 H 0.702626 0.412857 0.970183
H16 H 0.699235 0.467759 0.970677
H18 H 0.569707 0.481771 0.952442
H19 H 0.635237 0.491669 0.922246
H20 H 0.592527 0.454747 0.886032
C1_2 C 0.4086(5) 0.6771(4) 0.2089(7)
C2_2 C 0.4315(3) 0.6907(3) 0.2628(8)
H1_2 H 0.4572 0.7116 0.2615
C3_2 C 0.4168(4) 0.6737(3) 0.3201(6)
C4_2 C 0.3752(5) 0.6435(4) 0.3210(7)
H2_2 H 0.3603 0.6346 0.3580
C5_2 C 0.3575(3) 0.6277(2) 0.2655(8)
C6_2 C 0.3745(5) 0.6422(3) 0.2104(6)
H3_2 H 0.3639 0.6293 0.1741
C7_2 C 0.4293(5) 0.6933(4) 0.1498(6)
C8_2 C 0.4345(5) 0.6903(4) 0.3820(6)
C9_2 C 0.1746(4) 0.5557(4) 0.6317(5)
C13_2 C 0.1521(6) 0.6559(5) 0.2962(7)
H5_2 H 0.1865 0.6536 0.3132
C14_2 C 0.1441(6) 0.7238(4) 0.3453(8)
H6_2 H 0.1170 0.7449 0.3495
H7_2 H 0.1752 0.7350 0.3250
H8_2 H 0.1542 0.7139 0.3854
C15_2 C 0.0651(6) 0.6938(4) 0.2931(8)
H9_2 H 0.0519 0.7201 0.3068
H10_2 H 0.0450 0.6721 0.3128
H11_2 H 0.0609 0.6917 0.2493
C16_2 C 0.1836(5) 0.5612(4) 0.4006(6)
C17_2 C 0.1261(4) 0.6082(3) 0.4596(6)
H12_2 H 0.1189 0.6214 0.4225
C18_2 C 0.1591(5) 0.5753(3) 0.4593(6)
C19_2 C 0.1768(3) 0.5587(2) 0.5134(7)
H13_2 H 0.2008 0.5366 0.5130
C20_2 C 0.1588(5) 0.5752(4) 0.5702(6)
C21_2 C 0.1170(4) 0.6060(4) 0.5697(6)
H14_2 H 0.1003 0.6139 0.6062
C22_2 C 0.1018(4) 0.6237(3) 0.5139(8)
N1_2 N 0.1226(4) 0.6899(3) 0.3092(5)
O1_2 O 0.4567(3) 0.7255(3) 0.1509(4)
O2_2 O 0.4062(3) 0.6777(2) 0.1019(3)
O3_2 O 0.3090(3) 0.5671(3) 0.2088(4)
O4_2 O 0.2557(3) 0.61319(19) 0.2731(6)
O5_2 O 0.3142(5) 0.5627(3) 0.3204(5)
O6_2 O 0.4484(2) 0.73274(15) 0.0137(5)
O7_2 O 0.5408(2) 0.77092(15) 0.0124(5)
O8_2 O 0.2142(3) 0.5299(2) 0.4012(4)
O9_2 O 0.3842(3) 0.6222(2) 0.0137(7)
O10_2 O 0.1684(3) 0.5779(2) 0.6762(4)
O11_2 O 0.2029(3) 0.5243(2) 0.6303(4)
O12_2 O 0.4668(3) 0.7201(3) 0.3809(4)
O13_2 O 0.4249(3) 0.6681(2) 0.4253(3)
O14_2 O 0.1344(3) 0.6263(2) 0.2608(6)
O15_2 O 0.1606(3) 0.5767(2) 0.3513(4)
O16_2 O 0.0610(5) 0.6884(3) 0.5682(6)
O17_2 O 0.0030(3) 0.6427(2) 0.5175(8)
S1_2 S 0.30499(10) 0.58927(7) 0.2668(2)
S2_2 S 0.05353(9) 0.66352(7) 0.5132(2)
Cu2_2 Cu 0.17653(4) 0.57624(3) 0.26319(10)
Cu3_2 Cu 0.42233(5) 0.67602(3) 0.01391(10)
Cu4_2 Cu 0.49400(6) 0.75377(4) 0.08346(7)
O18_2 O 0.0608(5) 0.6846(3) 0.4588(6)
O20_2 O 0.4358(5) 0.8127(3) 0.0704(5)
O21_2 O 0.2092(2) 0.52092(15) 0.2624(5)
O22_2 O 0.5358(3) 0.7799(2) 0.1512(4)
O26_2 O 0.1749(3) 0.5819(2) 0.1753(3)
O27_2 O 0.5610(5) 0.6884(3) 0.0682(6)
O28_2 O 0.5030(3) 0.6427(2) 0.0175(8)
Cu5_2 Cu 0.25808(6) 0.50421(4) 0.19505(8)
Cu6_2 Cu 0.50808(6) 0.74579(4) 0.44505(8)
Cu7_2 Cu 0.24192(6) 0.49579(4) 0.69505(8)
Cu8_2 Cu 0.57347(4) 0.82624(3) 0.01319(10)
Cu9_2 Cu 0.42653(4) 0.67376(3) 0.51319(10)
Cu10_2 Cu 0.17233(5) 0.57398(3) 0.76391(10)
Cu12_2 Cu 0.25600(6) 0.50377(4) 0.33346(7)
H17_2 H 0.318642 0.560672 0.0377464
C10_2 C 0.4022(6) 0.5934(3) 0.9824(5)
H4_2 H 0.4380 0.5947 0.9696
C11_2 C 0.3195(8) 0.5605(6) 0.9876(14)
C12_2 C 0.3953(8) 0.5320(6) 0.9300(9)
N2_2 N 0.3744(5) 0.5624(4) 0.9668(6)
Cu1_2 Cu 0.49192(6) 0.75421(4) 0.94505(8)
O19_2 O 0.4410(3) 0.8171(3) 0.9588(4)
O23_2 O 0.4184(3) 0.6721(2) 0.9262(4)
O24_2 O 0.4529(3) 0.7257(2) 0.8803(4)
O25_2 O 0.5332(3) 0.7799(3) 0.8809(4)
H15_2 H 0.297374 0.587143 0.970183
H16_2 H 0.300765 0.532241 0.970677
H18_2 H 0.430293 0.518229 0.952442
H19_2 H 0.364763 0.508331 0.922246
H20_2 H 0.407473 0.545253 0.886032
Cu11_2 Cu 0.92233(5) 0.67602(3) 0.51391(10)
Cu13_2 Cu 0.99400(6) 0.75377(4) 0.58346(7)
C1_3 C 0.6586(5) 0.5729(4) 0.4589(7)
C2_3 C 0.6815(3) 0.5593(3) 0.5128(8)
H1_3 H 0.7072 0.5384 0.5115
C3_3 C 0.6668(4) 0.5763(3) 0.5701(6)
C4_3 C 0.6252(5) 0.6065(4) 0.5710(7)
H2_3 H 0.6103 0.6154 0.6080
C5_3 C 0.6075(3) 0.6223(2) 0.5155(8)
C6_3 C 0.6245(5) 0.6078(3) 0.4604(6)
H3_3 H 0.6139 0.6207 0.4241
C7_3 C 0.6793(5) 0.5567(4) 0.3998(6)
C8_3 C 0.6845(5) 0.5597(4) 0.6320(6)
C9_3 C 0.4246(4) 0.6943(4) 0.8817(5)
C10_3 C 0.6522(6) 0.6566(3) 0.2324(5)
H4_3 H 0.6880 0.6553 0.2196
C11_3 C 0.5695(8) 0.6895(6) 0.2376(14)
C12_3 C 0.6453(8) 0.7180(6) 0.1800(9)
C13_3 C 0.4021(6) 0.5941(5) 0.5462(7)
H5_3 H 0.4365 0.5964 0.5632
C14_3 C 0.3941(6) 0.5262(4) 0.5953(8)
H6_3 H 0.3670 0.5051 0.5995
H7_3 H 0.4252 0.5150 0.5750
H8_3 H 0.4042 0.5361 0.6354
C15_3 C 0.3151(6) 0.5562(4) 0.5431(8)
H9_3 H 0.3019 0.5299 0.5568
H10_3 H 0.2950 0.5779 0.5628
H11_3 H 0.3109 0.5583 0.4993
C16_3 C 0.4336(5) 0.6888(4) 0.6506(6)
C17_3 C 0.3761(4) 0.6418(3) 0.7096(6)
H12_3 H 0.3689 0.6286 0.6725
C18_3 C 0.4091(5) 0.6747(3) 0.7093(6)
C19_3 C 0.4268(3) 0.6913(2) 0.7634(7)
H13_3 H 0.4508 0.7134 0.7630
C20_3 C 0.4088(5) 0.6748(4) 0.8202(6)
C21_3 C 0.3670(4) 0.6440(4) 0.8197(6)
H14_3 H 0.3503 0.6361 0.8562
C22_3 C 0.3518(4) 0.6263(3) 0.7639(8)
N1_3 N 0.3726(4) 0.5601(3) 0.5592(5)
N2_3 N 0.6244(5) 0.6876(4) 0.2168(6)
O1_3 O 0.7067(3) 0.5245(3) 0.4009(4)
O2_3 O 0.6562(3) 0.5723(2) 0.3519(3)
O3_3 O 0.5590(3) 0.6829(3) 0.4588(4)
O4_3 O 0.5057(3) 0.63681(19) 0.5231(6)
O5_3 O 0.5642(5) 0.6873(3) 0.5704(5)
O6_3 O 0.6984(2) 0.51726(15) 0.2637(5)
O8_3 O 0.4642(3) 0.7201(2) 0.6512(4)
O9_3 O 0.6342(3) 0.6278(2) 0.2637(7)
O12_3 O 0.7168(3) 0.5299(3) 0.6309(4)
O13_3 O 0.6749(3) 0.5819(2) 0.6753(3)
O14_3 O 0.3844(3) 0.6237(2) 0.5108(6)
O15_3 O 0.4106(3) 0.6733(2) 0.6013(4)
O16_3 O 0.3110(5) 0.5616(3) 0.8182(6)
O17_3 O 0.2530(3) 0.6073(2) 0.7675(8)
S1_3 S 0.55499(10) 0.66073(7) 0.5168(2)
S2_3 S 0.30353(9) 0.58648(7) 0.7632(2)
Cu3_3 Cu 0.67233(5) 0.57398(3) 0.26391(10)
O18_3 O 0.3108(5) 0.5654(3) 0.7088(6)
O21_3 O 0.4592(2) 0.72908(15) 0.5124(5)
O23_3 O 0.6684(3) 0.5779(2) 0.1762(4)
O24_3 O 0.7029(3) 0.5243(2) 0.1303(4)
O25_3 O 0.7832(3) 0.4701(3) 0.1309(4)
O27_3 O 0.8110(5) 0.5616(3) 0.3182(6)
O28_3 O 0.7530(3) 0.6073(2) 0.2675(8)
Cu9_3 Cu 0.67653(4) 0.57624(3) 0.76319(10)
Cu12_3 Cu 0.50600(6) 0.74623(4) 0.58346(7)
Cu13_3 Cu 0.24400(6) 0.49623(4) 0.83346(7)
H15_3 H 0.547374 0.662857 0.220183
H16_3 H 0.550765 0.717759 0.220677
H17_3 H 0.568642 0.689328 0.287746
H18_3 H 0.680293 0.731771 0.202442
H19_3 H 0.614763 0.741669 0.172246
H20_3 H 0.657473 0.704747 0.136032
Cu13_4 Cu 0.25600(6) 0.00377(4) 0.83346(7)
Cu10_3 Cu 0.07767(5) 0.82398(3) 0.01391(10)
C9_4 C 0.0754(4) 0.8057(4) 0.8817(5)
C13_4 C 0.0979(6) 0.9059(5) 0.5462(7)
H5_4 H 0.0635 0.9036 0.5632
C14_4 C 0.1059(6) 0.9738(4) 0.5953(8)
H6_4 H 0.1330 0.9949 0.5995
H7_4 H 0.0748 0.9850 0.5750
H8_4 H 0.0958 0.9639 0.6354
C15_4 C 0.1849(6) 0.9438(4) 0.5431(8)
H9_4 H 0.1981 0.9701 0.5568
H10_4 H 0.2050 0.9221 0.5628
H11_4 H 0.1891 0.9417 0.4993
C16_4 C 0.0664(5) 0.8112(4) 0.6506(6)
C17_4 C 0.1239(4) 0.8582(3) 0.7096(6)
H12_4 H 0.1311 0.8714 0.6725
C18_4 C 0.0909(5) 0.8253(3) 0.7093(6)
C19_4 C 0.0732(3) 0.8087(2) 0.7634(7)
H13_4 H 0.0492 0.7866 0.7630
C20_4 C 0.0912(5) 0.8252(4) 0.8202(6)
C21_4 C 0.1330(4) 0.8560(4) 0.8197(6)
H14_4 H 0.1497 0.8639 0.8562
C22_4 C 0.1482(4) 0.8737(3) 0.7639(8)
N1_4 N 0.1274(4) 0.9399(3) 0.5592(5)
O8_4 O 0.0358(3) 0.7799(2) 0.6512(4)
O10_3 O 0.0816(3) 0.8279(2) 0.9262(4)
O11_3 O 0.0471(3) 0.7743(2) 0.8803(4)
O14_4 O 0.1156(3) 0.8763(2) 0.5108(6)
O15_4 O 0.0894(3) 0.8267(2) 0.6013(4)
O16_4 O 0.1890(5) 0.9384(3) 0.8182(6)
O17_4 O 0.2470(3) 0.8927(2) 0.7675(8)
S2_4 S 0.19647(9) 0.91352(7) 0.7632(2)
Cu2_3 Cu 0.07347(4) 0.82624(3) 0.51319(10)
O18_4 O 0.1892(5) 0.9346(3) 0.7088(6)
O21_4 O 0.0408(2) 0.77092(15) 0.5124(5)
O26_3 O 0.0751(3) 0.8319(2) 0.4253(3)
Cu7_3 Cu 0.00808(6) 0.74579(4) 0.94505(8)
Cu11_3 Cu 0.32767(5) 0.92602(3) 0.76391(10)
O7_3 O 0.7092(2) 0.02092(15) 0.2624(5)
Cu1_3 Cu 0.75808(6) 0.00421(4) 0.19505(8)
Cu4_3 Cu 0.75600(6) 0.00377(4) 0.33346(7)
O19_3 O 0.8090(3) 0.0671(3) 0.2088(4)
O20_3 O 0.8142(5) 0.0627(3) 0.3204(5)
O22_3 O 0.7142(3) 0.0299(2) 0.4012(4)
O25_4 O 0.7168(3) 0.0299(3) 0.1309(4)
Cu8_3 Cu 0.67653(4) 0.07624(3) 0.26319(10)
C1_4 C 0.8414(5) 0.9271(4) 0.4589(7)
C2_4 C 0.8185(3) 0.9407(3) 0.5128(8)
H1_4 H 0.7928 0.9616 0.5115
C3_4 C 0.8332(4) 0.9237(3) 0.5701(6)
C4_4 C 0.8748(5) 0.8935(4) 0.5710(7)
H2_4 H 0.8897 0.8846 0.6080
C5_4 C 0.8925(3) 0.8777(2) 0.5155(8)
C6_4 C 0.8755(5) 0.8922(3) 0.4604(6)
H3_4 H 0.8861 0.8793 0.4241
C7_4 C 0.8207(5) 0.9433(4) 0.3998(6)
C8_4 C 0.8155(5) 0.9403(4) 0.6320(6)
C10_4 C 0.8478(6) 0.8434(3) 0.2324(5)
H4_4 H 0.8120 0.8447 0.2196
C11_4 C 0.9305(8) 0.8105(6) 0.2376(14)
C12_4 C 0.8547(8) 0.7820(6) 0.1800(9)
N2_4 N 0.8756(5) 0.8124(4) 0.2168(6)
O1_4 O 0.7933(3) 0.9755(3) 0.4009(4)
O2_4 O 0.8438(3) 0.9277(2) 0.3519(3)
O3_4 O 0.9410(3) 0.8171(3) 0.4588(4)
O4_4 O 0.9943(3) 0.86319(19) 0.5231(6)
O5_4 O 0.9358(5) 0.8127(3) 0.5704(5)
O6_4 O 0.8016(2) 0.98274(15) 0.2637(5)
O9_4 O 0.8658(3) 0.8722(2) 0.2637(7)
O12_4 O 0.7832(3) 0.9701(3) 0.6309(4)
O13_4 O 0.8251(3) 0.9181(2) 0.6753(3)
S1_4 S 0.94501(10) 0.83927(7) 0.5168(2)
Cu3_4 Cu 0.82767(5) 0.92602(3) 0.26391(10)
O23_4 O 0.8316(3) 0.9221(2) 0.1762(4)
O24_4 O 0.7971(3) 0.9757(2) 0.1303(4)
O27_4 O 0.6890(5) 0.9384(3) 0.3182(6)
O28_4 O 0.7470(3) 0.8927(2) 0.2675(8)
Cu5_3 Cu 0.99192(6) 0.75421(4) 0.44505(8)
Cu6_3 Cu 0.74192(6) 0.99579(4) 0.69505(8)
Cu9_4 Cu 0.82347(4) 0.92376(3) 0.76319(10)
H15_4 H 0.952626 0.837143 0.220183
H16_4 H 0.949235 0.782241 0.220677
H17_4 H 0.931358 0.810672 0.287746
H18_4 H 0.819707 0.768229 0.202442
H19_4 H 0.885237 0.758331 0.172246
H20_4 H 0.842527 0.795253 0.136032
Cu13_5 Cu 0.00600(6) 0.74623(4) 0.08346(7)
C9_5 C 0.8254(4) 0.9443(4) 0.1317(5)
C19_5 C 0.8232(3) 0.9413(2) 0.0134(7)
H13_5 H 0.7992 0.9634 0.0130
C20_5 C 0.8412(5) 0.9248(4) 0.0702(6)
C21_5 C 0.8830(4) 0.8940(4) 0.0697(6)
H14_5 H 0.8997 0.8861 0.1062
C22_5 C 0.8982(4) 0.8763(3) 0.0139(8)
O16_5 O 0.9390(5) 0.8116(3) 0.0682(6)
O17_5 O 0.9970(3) 0.8573(2) 0.0175(8)
S2_5 S 0.94647(9) 0.83648(7) 0.0132(2)
C1_5 C 0.5914(5) 0.8229(4) 0.7089(7)
C2_5 C 0.5685(3) 0.8093(3) 0.7628(8)
H1_5 H 0.5428 0.7884 0.7615
C3_5 C 0.5832(4) 0.8263(3) 0.8201(6)
C4_5 C 0.6248(5) 0.8565(4) 0.8210(7)
H2_5 H 0.6397 0.8654 0.8580
C5_5 C 0.6425(3) 0.8723(2) 0.7655(8)
C6_5 C 0.6255(5) 0.8578(3) 0.7104(6)
H3_5 H 0.6361 0.8707 0.6741
C7_5 C 0.5707(5) 0.8067(4) 0.6498(6)
C8_5 C 0.5655(5) 0.8097(4) 0.8820(6)
C10_5 C 0.5978(6) 0.9066(3) 0.4824(5)
H4_5 H 0.5620 0.9053 0.4696
C11_5 C 0.6805(8) 0.9395(6) 0.4876(14)
C12_5 C 0.6047(8) 0.9680(6) 0.4300(9)
C13_5 C 0.8479(6) 0.8441(5) 0.7962(7)
H5_5 H 0.8135 0.8464 0.8132
C14_5 C 0.8559(6) 0.7762(4) 0.8453(8)
H6_5 H 0.8830 0.7551 0.8495
H7_5 H 0.8248 0.7650 0.8250
H8_5 H 0.8458 0.7861 0.8854
C15_5 C 0.9349(6) 0.8062(4) 0.7931(8)
H9_5 H 0.9481 0.7799 0.8068
H10_5 H 0.9550 0.8279 0.8128
H11_5 H 0.9391 0.8083 0.7493
C16_5 C 0.8164(5) 0.9388(4) 0.9006(6)
C17_5 C 0.8739(4) 0.8918(3) 0.9596(6)
H12_5 H 0.8811 0.8786 0.9225
C18_5 C 0.8409(5) 0.9247(3) 0.9593(6)
N1_5 N 0.8774(4) 0.8101(3) 0.8092(5)
N2_5 N 0.6256(5) 0.9376(4) 0.4668(6)
O1_5 O 0.5433(3) 0.7745(3) 0.6509(4)
O2_5 O 0.5938(3) 0.8223(2) 0.6019(3)
O3_5 O 0.6910(3) 0.9329(3) 0.7088(4)
O4_5 O 0.7443(3) 0.88681(19) 0.7731(6)
O5_5 O 0.6858(5) 0.9373(3) 0.8204(5)
O6_5 O 0.5516(2) 0.76726(15) 0.5137(5)
O8_5 O 0.7858(3) 0.9701(2) 0.9012(4)
O9_5 O 0.6158(3) 0.8778(2) 0.5137(7)
O13_5 O 0.5751(3) 0.8319(2) 0.9253(3)
O14_5 O 0.8656(3) 0.8737(2) 0.7608(6)
O15_5 O 0.8394(3) 0.9233(2) 0.8513(4)
S1_5 S 0.69501(10) 0.91073(7) 0.7668(2)
Cu3_5 Cu 0.57767(5) 0.82398(3) 0.51391(10)
O18_5 O 0.9392(5) 0.8154(3) 0.9588(6)
O21_5 O 0.7908(2) 0.97908(15) 0.7624(5)
O23_5 O 0.5816(3) 0.8279(2) 0.4262(4)
O24_5 O 0.5471(3) 0.7743(2) 0.3803(4)
O27_5 O 0.4390(5) 0.8116(3) 0.5682(6)
O28_5 O 0.4970(3) 0.8573(2) 0.5175(8)
Cu12_4 Cu 0.74400(6) 0.99623(4) 0.83346(7)
H15_5 H 0.702626 0.912857 0.470183
H16_5 H 0.699235 0.967759 0.470677
H17_5 H 0.681358 0.939328 0.537746
H18_5 H 0.569707 0.981771 0.452442
H19_5 H 0.635237 0.991669 0.422246
H20_5 H 0.592527 0.954747 0.386032
C9_6 C 0.1746(4) 0.0557(4) 0.1317(5)
C19_6 C 0.1768(3) 0.0587(2) 0.0134(7)
H13_6 H 0.2008 0.0366 0.0130
C20_6 C 0.1588(5) 0.0752(4) 0.0702(6)
C21_6 C 0.1170(4) 0.1060(4) 0.0697(6)
H14_6 H 0.1003 0.1139 0.1062
C22_6 C 0.1018(4) 0.1237(3) 0.0139(8)
O10_4 O 0.1684(3) 0.0779(2) 0.1762(4)
O11_4 O 0.2029(3) 0.0243(2) 0.1303(4)
O16_6 O 0.0610(5) 0.1884(3) 0.0682(6)
O17_6 O 0.0030(3) 0.1427(2) 0.0175(8)
S2_6 S 0.05353(9) 0.16352(7) 0.0132(2)
Cu10_4 Cu 0.17233(5) 0.07398(3) 0.26391(10)
C1_6 C 0.4086(5) 0.1771(4) 0.7089(7)
C2_6 C 0.4315(3) 0.1907(3) 0.7628(8)
H1_6 H 0.4572 0.2116 0.7615
C3_6 C 0.4168(4) 0.1737(3) 0.8201(6)
C4_6 C 0.3752(5) 0.1435(4) 0.8210(7)
H2_6 H 0.3603 0.1346 0.8580
C5_6 C 0.3575(3) 0.1277(2) 0.7655(8)
C6_6 C 0.3745(5) 0.1422(3) 0.7104(6)
H3_6 H 0.3639 0.1293 0.6741
C7_6 C 0.4293(5) 0.1933(4) 0.6498(6)
C8_6 C 0.4345(5) 0.1903(4) 0.8820(6)
C10_6 C 0.4022(6) 0.0934(3) 0.4824(5)
H4_6 H 0.4380 0.0947 0.4696
C11_6 C 0.3195(8) 0.0605(6) 0.4876(14)
C12_6 C 0.3953(8) 0.0320(6) 0.4300(9)
C13_6 C 0.1521(6) 0.1559(5) 0.7962(7)
H5_6 H 0.1865 0.1536 0.8132
C14_6 C 0.1441(6) 0.2238(4) 0.8453(8)
H6_6 H 0.1170 0.2449 0.8495
H7_6 H 0.1752 0.2350 0.8250
H8_6 H 0.1542 0.2139 0.8854
C15_6 C 0.0651(6) 0.1938(4) 0.7931(8)
H9_6 H 0.0519 0.2201 0.8068
H10_6 H 0.0450 0.1721 0.8128
H11_6 H 0.0609 0.1917 0.7493
C16_6 C 0.1836(5) 0.0612(4) 0.9006(6)
C17_6 C 0.1261(4) 0.1082(3) 0.9596(6)
H12_6 H 0.1189 0.1214 0.9225
C18_6 C 0.1591(5) 0.0753(3) 0.9593(6)
N1_6 N 0.1226(4) 0.1899(3) 0.8092(5)
N2_6 N 0.3744(5) 0.0624(4) 0.4668(6)
O1_6 O 0.4567(3) 0.2255(3) 0.6509(4)
O2_6 O 0.4062(3) 0.1777(2) 0.6019(3)
O3_6 O 0.3090(3) 0.0671(3) 0.7088(4)
O4_6 O 0.2557(3) 0.11319(19) 0.7731(6)
O5_6 O 0.3142(5) 0.0627(3) 0.8204(5)
O6_6 O 0.4484(2) 0.23274(15) 0.5137(5)
O7_4 O 0.5408(2) 0.27092(15) 0.5124(5)
O8_6 O 0.2142(3) 0.0299(2) 0.9012(4)
O9_6 O 0.3842(3) 0.1222(2) 0.5137(7)
O13_6 O 0.4249(3) 0.1681(2) 0.9253(3)
O14_6 O 0.1344(3) 0.1263(2) 0.7608(6)
O15_6 O 0.1606(3) 0.0767(2) 0.8513(4)
S1_6 S 0.30499(10) 0.08927(7) 0.7668(2)
Cu2_4 Cu 0.17653(4) 0.07624(3) 0.76319(10)
Cu3_6 Cu 0.42233(5) 0.17602(3) 0.51391(10)
Cu4_4 Cu 0.49400(6) 0.25377(4) 0.58346(7)
O18_6 O 0.0608(5) 0.1846(3) 0.9588(6)
O19_4 O 0.4410(3) 0.3171(3) 0.4588(4)
O20_4 O 0.4358(5) 0.3127(3) 0.5704(5)
O21_6 O 0.2092(2) 0.02092(15) 0.7624(5)
O22_4 O 0.5358(3) 0.2799(2) 0.6512(4)
O23_6 O 0.4184(3) 0.1721(2) 0.4262(4)
O24_6 O 0.4529(3) 0.2257(2) 0.3803(4)
O26_4 O 0.1749(3) 0.0819(2) 0.6753(3)
O27_6 O 0.5610(5) 0.1884(3) 0.5682(6)
O28_6 O 0.5030(3) 0.1427(2) 0.5175(8)
Cu5_4 Cu 0.25808(6) 0.00421(4) 0.69505(8)
H15_6 H 0.297374 0.0871432 0.470183
H16_6 H 0.300765 0.0322407 0.470677
H17_6 H 0.318642 0.0606722 0.537746
H18_6 H 0.430293 0.0182289 0.452442
H19_6 H 0.364763 0.00833067 0.422246
H20_6 H 0.407473 0.0452528 0.386032
Cu7_4 Cu 0.24192(6) 0.99579(4) 0.19505(8)
Cu11_4 Cu 0.92233(5) 0.17602(3) 0.01391(10)
Cu13_6 Cu 0.99400(6) 0.25377(4) 0.08346(7)
C2_7 C 0.6815(3) 0.0593(3) 0.0128(8)
H1_7 H 0.7072 0.0384 0.0115
C3_7 C 0.6668(4) 0.0763(3) 0.0701(6)
C4_7 C 0.6252(5) 0.1065(4) 0.0710(7)
H2_7 H 0.6103 0.1154 0.1080
C5_7 C 0.6075(3) 0.1223(2) 0.0155(8)
C8_7 C 0.6845(5) 0.0597(4) 0.1320(6)
C9_7 C 0.4246(4) 0.1943(4) 0.3817(5)
C13_7 C 0.4021(6) 0.0941(5) 0.0462(7)
H5_7 H 0.4365 0.0964 0.0632
C14_7 C 0.3941(6) 0.0262(4) 0.0953(8)
H6_7 H 0.3670 0.0051 0.0995
H7_7 H 0.4252 0.0150 0.0750
H8_7 H 0.4042 0.0361 0.1354
C15_7 C 0.3151(6) 0.0562(4) 0.0431(8)
H9_7 H 0.3019 0.0299 0.0568
H10_7 H 0.2950 0.0779 0.0628
C16_7 C 0.4336(5) 0.1888(4) 0.1506(6)
C17_7 C 0.3761(4) 0.1418(3) 0.2096(6)
H12_7 H 0.3689 0.1286 0.1725
C18_7 C 0.4091(5) 0.1747(3) 0.2093(6)
C19_7 C 0.4268(3) 0.1913(2) 0.2634(7)
H13_7 H 0.4508 0.2134 0.2630
C20_7 C 0.4088(5) 0.1748(4) 0.3202(6)
C21_7 C 0.3670(4) 0.1440(4) 0.3197(6)
H14_7 H 0.3503 0.1361 0.3562
C22_7 C 0.3518(4) 0.1263(3) 0.2639(8)
N1_7 N 0.3726(4) 0.0601(3) 0.0592(5)
O4_7 O 0.5057(3) 0.13681(19) 0.0231(6)
O13_7 O 0.6749(3) 0.0819(2) 0.1753(3)
O14_7 O 0.3844(3) 0.1237(2) 0.0108(6)
O15_7 O 0.4106(3) 0.1733(2) 0.1013(4)
O16_7 O 0.3110(5) 0.0616(3) 0.3182(6)
O17_7 O 0.2530(3) 0.1073(2) 0.2675(8)
S1_7 S 0.55499(10) 0.16073(7) 0.0168(2)
S2_7 S 0.30353(9) 0.08648(7) 0.2632(2)
O18_7 O 0.3108(5) 0.0654(3) 0.2088(6)
C1_7 C 0.6586(5) 0.0729(4) 0.9589(7)
C6_7 C 0.6245(5) 0.1078(3) 0.9604(6)
H3_7 H 0.6139 0.1207 0.9241
C7_7 C 0.6793(5) 0.0567(4) 0.8998(6)
C10_7 C 0.6522(6) 0.1566(3) 0.7324(5)
H4_7 H 0.6880 0.1553 0.7196
C11_7 C 0.5695(8) 0.1895(6) 0.7376(14)
C12_7 C 0.6453(8) 0.2180(6) 0.6800(9)
H11_7 H 0.3109 0.0583 0.9993
N2_7 N 0.6244(5) 0.1876(4) 0.7168(6)
O1_7 O 0.7067(3) 0.0245(3) 0.9009(4)
O2_7 O 0.6562(3) 0.0723(2) 0.8519(3)
O6_7 O 0.6984(2) 0.01726(15) 0.7637(5)
O9_7 O 0.6342(3) 0.1278(2) 0.7637(7)
Cu3_7 Cu 0.67233(5) 0.07398(3) 0.76391(10)
O23_7 O 0.6684(3) 0.0779(2) 0.6762(4)
O24_7 O 0.7029(3) 0.0243(2) 0.6303(4)
O27_7 O 0.8110(5) 0.0616(3) 0.8182(6)
O28_7 O 0.7530(3) 0.1073(2) 0.7675(8)
H15_7 H 0.547374 0.162857 0.720183
H16_7 H 0.550765 0.217759 0.720677
H17_7 H 0.568642 0.189328 0.787746
H18_7 H 0.680293 0.231771 0.702442
H19_7 H 0.614763 0.241669 0.672246
H20_7 H 0.657473 0.204747 0.636032
Cu13_7 Cu 0.24400(6) 0.99623(4) 0.33346(7)
C9_8 C 0.0754(4) 0.3057(4) 0.3817(5)
C13_8 C 0.0979(6) 0.4059(5) 0.0462(7)
H5_8 H 0.0635 0.4036 0.0632
C14_8 C 0.1059(6) 0.4738(4) 0.0953(8)
H6_8 H 0.1330 0.4949 0.0995
H7_8 H 0.0748 0.4850 0.0750
H8_8 H 0.0958 0.4639 0.1354
C15_8 C 0.1849(6) 0.4438(4) 0.0431(8)
H9_8 H 0.1981 0.4701 0.0568
H10_8 H 0.2050 0.4221 0.0628
C16_8 C 0.0664(5) 0.3112(4) 0.1506(6)
C17_8 C 0.1239(4) 0.3582(3) 0.2096(6)
H12_8 H 0.1311 0.3714 0.1725
C18_8 C 0.0909(5) 0.3253(3) 0.2093(6)
C19_8 C 0.0732(3) 0.3087(2) 0.2634(7)
H13_8 H 0.0492 0.2866 0.2630
C20_8 C 0.0912(5) 0.3252(4) 0.3202(6)
C21_8 C 0.1330(4) 0.3560(4) 0.3197(6)
H14_8 H 0.1497 0.3639 0.3562
C22_8 C 0.1482(4) 0.3737(3) 0.2639(8)
N1_8 N 0.1274(4) 0.4399(3) 0.0592(5)
O8_7 O 0.0358(3) 0.2799(2) 0.1512(4)
O10_5 O 0.0816(3) 0.3279(2) 0.4262(4)
O11_5 O 0.0471(3) 0.2743(2) 0.3803(4)
O14_8 O 0.1156(3) 0.3763(2) 0.0108(6)
O15_8 O 0.0894(3) 0.3267(2) 0.1013(4)
O16_8 O 0.1890(5) 0.4384(3) 0.3182(6)
O17_8 O 0.2470(3) 0.3927(2) 0.2675(8)
S2_8 S 0.19647(9) 0.41352(7) 0.2632(2)
Cu2_5 Cu 0.07347(4) 0.32624(3) 0.01319(10)
O18_8 O 0.1892(5) 0.4346(3) 0.2088(6)
O21_7 O 0.0408(2) 0.27092(15) 0.0124(5)
Cu7_5 Cu 0.00808(6) 0.24579(4) 0.44505(8)
Cu11_5 Cu 0.32767(5) 0.42602(3) 0.26391(10)
H11_8 H 0.1891 0.4417 0.9993
O26_5 O 0.0751(3) 0.3319(2) 0.9253(3)
C2_8 C 0.8185(3) 0.4407(3) 0.0128(8)
H1_8 H 0.7928 0.4616 0.0115
C3_8 C 0.8332(4) 0.4237(3) 0.0701(6)
C4_8 C 0.8748(5) 0.3935(4) 0.0710(7)
H2_8 H 0.8897 0.3846 0.1080
C5_8 C 0.8925(3) 0.3777(2) 0.0155(8)
C8_8 C 0.8155(5) 0.4403(4) 0.1320(6)
O4_8 O 0.9943(3) 0.36319(19) 0.0231(6)
O5_7 O 0.9358(5) 0.3127(3) 0.0704(5)
S1_8 S 0.94501(10) 0.33927(7) 0.0168(2)
C1_8 C 0.8414(5) 0.4271(4) 0.9589(7)
C6_8 C 0.8755(5) 0.3922(3) 0.9604(6)
H3_8 H 0.8861 0.3793 0.9241
C7_8 C 0.8207(5) 0.4433(4) 0.8998(6)
C10_8 C 0.8478(6) 0.3434(3) 0.7324(5)
H4_8 H 0.8120 0.3447 0.7196
C11_8 C 0.9305(8) 0.3105(6) 0.7376(14)
C12_8 C 0.8547(8) 0.2820(6) 0.6800(9)
N2_8 N 0.8756(5) 0.3124(4) 0.7168(6)
O1_8 O 0.7933(3) 0.4755(3) 0.9009(4)
O2_8 O 0.8438(3) 0.4277(2) 0.8519(3)
O3_7 O 0.9410(3) 0.3171(3) 0.9588(4)
O6_8 O 0.8016(2) 0.48274(15) 0.7637(5)
O7_5 O 0.7092(2) 0.52092(15) 0.7624(5)
O9_8 O 0.8658(3) 0.3722(2) 0.7637(7)
Cu4_5 Cu 0.75600(6) 0.50377(4) 0.83346(7)
O19_5 O 0.8090(3) 0.5671(3) 0.7088(4)
O20_5 O 0.8142(5) 0.5627(3) 0.8204(5)
O22_5 O 0.7142(3) 0.5299(2) 0.9012(4)
O27_8 O 0.6890(5) 0.4384(3) 0.8182(6)
O28_8 O 0.7470(3) 0.3927(2) 0.7675(8)
Cu5_5 Cu 0.99192(6) 0.25421(4) 0.94505(8)
H15_8 H 0.952626 0.337143 0.720183
H16_8 H 0.949235 0.282241 0.720677
H17_8 H 0.931358 0.310672 0.787746
H18_8 H 0.819707 0.268229 0.702442
H19_8 H 0.885237 0.258331 0.672246
H20_8 H 0.842527 0.295253 0.636032
C9_9 C 0.3254(4) 0.4443(4) 0.1317(5)
C19_9 C 0.3232(3) 0.4413(2) 0.0134(7)
H13_9 H 0.2992 0.4634 0.0130
C20_9 C 0.3412(5) 0.4248(4) 0.0702(6)
C21_9 C 0.3830(4) 0.3940(4) 0.0697(6)
H14_9 H 0.3997 0.3861 0.1062
C22_9 C 0.3982(4) 0.3763(3) 0.0139(8)
O10_6 O 0.3316(3) 0.4221(2) 0.1762(4)
O11_6 O 0.2971(3) 0.4757(2) 0.1303(4)
S2_9 S 0.44647(9) 0.33648(7) 0.0132(2)
C1_9 C 0.0914(5) 0.3229(4) 0.7089(7)
C2_9 C 0.0685(3) 0.3093(3) 0.7628(8)
H1_9 H 0.0428 0.2884 0.7615
C3_9 C 0.0832(4) 0.3263(3) 0.8201(6)
C4_9 C 0.1248(5) 0.3565(4) 0.8210(7)
H2_9 H 0.1397 0.3654 0.8580
C5_9 C 0.1425(3) 0.3723(2) 0.7655(8)
C6_9 C 0.1255(5) 0.3578(3) 0.7104(6)
H3_9 H 0.1361 0.3707 0.6741
C7_9 C 0.0707(5) 0.3067(4) 0.6498(6)
C8_9 C 0.0655(5) 0.3097(4) 0.8820(6)
C10_9 C 0.0978(6) 0.4066(3) 0.4824(5)
H4_9 H 0.0620 0.4053 0.4696
C11_9 C 0.1805(8) 0.4395(6) 0.4876(14)
C12_9 C 0.1047(8) 0.4680(6) 0.4300(9)
C13_9 C 0.3479(6) 0.3441(5) 0.7962(7)
H5_9 H 0.3135 0.3464 0.8132
C14_9 C 0.3559(6) 0.2762(4) 0.8453(8)
H6_9 H 0.3830 0.2551 0.8495
H7_9 H 0.3248 0.2650 0.8250
H8_9 H 0.3458 0.2861 0.8854
C15_9 C 0.4349(6) 0.3062(4) 0.7931(8)
H9_9 H 0.4481 0.2799 0.8068
H10_9 H 0.4550 0.3279 0.8128
H11_9 H 0.4391 0.3083 0.7493
C16_9 C 0.3164(5) 0.4388(4) 0.9006(6)
C17_9 C 0.3739(4) 0.3918(3) 0.9596(6)
H12_9 H 0.3811 0.3786 0.9225
C18_9 C 0.3409(5) 0.4247(3) 0.9593(6)
N1_9 N 0.3774(4) 0.3101(3) 0.8092(5)
N2_9 N 0.1256(5) 0.4376(4) 0.4668(6)
O1_9 O 0.0433(3) 0.2745(3) 0.6509(4)
O2_9 O 0.0938(3) 0.3223(2) 0.6019(3)
O3_8 O 0.1910(3) 0.4329(3) 0.7088(4)
O4_9 O 0.2443(3) 0.38681(19) 0.7731(6)
O5_8 O 0.1858(5) 0.4373(3) 0.8204(5)
O6_9 O 0.0516(2) 0.26726(15) 0.5137(5)
O8_8 O 0.2858(3) 0.4701(2) 0.9012(4)
O9_9 O 0.1158(3) 0.3778(2) 0.5137(7)
O12_5 O 0.0332(3) 0.2799(3) 0.8809(4)
O14_9 O 0.3656(3) 0.3737(2) 0.7608(6)
O15_9 O 0.3394(3) 0.4233(2) 0.8513(4)
S1_9 S 0.19501(10) 0.41073(7) 0.7668(2)
Cu2_6 Cu 0.32347(4) 0.42376(3) 0.76319(10)
O18_9 O 0.4392(5) 0.3154(3) 0.9588(6)
O19_6 O 0.0590(3) 0.1829(3) 0.4588(4)
O20_6 O 0.0642(5) 0.1873(3) 0.5704(5)
O21_8 O 0.2908(2) 0.47908(15) 0.7624(5)
O26_6 O 0.3251(3) 0.4181(2) 0.6753(3)
H15_9 H 0.202626 0.412857 0.470183
H16_9 H 0.199235 0.467759 0.470677
H17_9 H 0.181358 0.439328 0.537746
H18_9 H 0.0697067 0.481771 0.452442
H19_9 H 0.135237 0.491669 0.422246
H20_9 H 0.0925272 0.454747 0.386032
O7_6 O 0.9592(2) 0.22908(15) 0.5124(5)
O22_6 O 0.9642(3) 0.2201(2) 0.6512(4)
O25_5 O 0.9668(3) 0.2201(3) 0.3809(4)
Cu8_4 Cu 0.92653(4) 0.17376(3) 0.51319(10)
O25_6 O 0.0332(3) 0.7799(3) 0.3809(4)
C9_10 C 0.6746(4) 0.5557(4) 0.1317(5)
C19_10 C 0.6768(3) 0.5587(2) 0.0134(7)
H13_10 H 0.7008 0.5366 0.0130
C20_10 C 0.6588(5) 0.5752(4) 0.0702(6)
C21_10 C 0.6170(4) 0.6060(4) 0.0697(6)
H14_10 H 0.6003 0.6139 0.1062
C22_10 C 0.6018(4) 0.6237(3) 0.0139(8)
S2_10 S 0.55353(9) 0.66352(7) 0.0132(2)
Cu9_5 Cu 0.92653(4) 0.67376(3) 0.01319(10)
C1_10 C 0.9086(5) 0.6771(4) 0.7089(7)
C2_10 C 0.9315(3) 0.6907(3) 0.7628(8)
H1_10 H 0.9572 0.7116 0.7615
C3_10 C 0.9168(4) 0.6737(3) 0.8201(6)
C4_10 C 0.8752(5) 0.6435(4) 0.8210(7)
H2_10 H 0.8603 0.6346 0.8580
C5_10 C 0.8575(3) 0.6277(2) 0.7655(8)
C6_10 C 0.8745(5) 0.6422(3) 0.7104(6)
H3_10 H 0.8639 0.6293 0.6741
C7_10 C 0.9293(5) 0.6933(4) 0.6498(6)
C8_10 C 0.9345(5) 0.6903(4) 0.8820(6)
C10_10 C 0.9022(6) 0.5934(3) 0.4824(5)
H4_10 H 0.9380 0.5947 0.4696
C11_10 C 0.8195(8) 0.5605(6) 0.4876(14)
C12_10 C 0.8953(8) 0.5320(6) 0.4300(9)
C13_10 C 0.6521(6) 0.6559(5) 0.7962(7)
H5_10 H 0.6865 0.6536 0.8132
C14_10 C 0.6441(6) 0.7238(4) 0.8453(8)
H6_10 H 0.6170 0.7449 0.8495
H7_10 H 0.6752 0.7350 0.8250
H8_10 H 0.6542 0.7139 0.8854
C15_10 C 0.5651(6) 0.6938(4) 0.7931(8)
H9_10 H 0.5519 0.7201 0.8068
H10_10 H 0.5450 0.6721 0.8128
H11_10 H 0.5609 0.6917 0.7493
C16_10 C 0.6836(5) 0.5612(4) 0.9006(6)
C17_10 C 0.6261(4) 0.6082(3) 0.9596(6)
H12_10 H 0.6189 0.6214 0.9225
C18_10 C 0.6591(5) 0.5753(3) 0.9593(6)
N1_10 N 0.6226(4) 0.6899(3) 0.8092(5)
N2_10 N 0.8744(5) 0.5624(4) 0.4668(6)
O1_10 O 0.9567(3) 0.7255(3) 0.6509(4)
O2_10 O 0.9062(3) 0.6777(2) 0.6019(3)
O4_10 O 0.7557(3) 0.61319(19) 0.7731(6)
O6_10 O 0.9484(2) 0.73274(15) 0.5137(5)
O9_10 O 0.8842(3) 0.6222(2) 0.5137(7)
O12_6 O 0.9668(3) 0.7201(3) 0.8809(4)
O13_8 O 0.9249(3) 0.6681(2) 0.9253(3)
O14_10 O 0.6344(3) 0.6263(2) 0.7608(6)
O15_10 O 0.6606(3) 0.5767(2) 0.8513(4)
S1_10 S 0.80499(10) 0.58927(7) 0.7668(2)
O18_10 O 0.5608(5) 0.6846(3) 0.9588(6)
O23_8 O 0.9184(3) 0.6721(2) 0.4262(4)
O24_8 O 0.9529(3) 0.7257(2) 0.3803(4)
H15_10 H 0.797374 0.587143 0.470183
H16_10 H 0.800765 0.532241 0.470677
H17_10 H 0.818642 0.560672 0.537746
H18_10 H 0.930293 0.518229 0.452442
H19_10 H 0.864763 0.508331 0.422246
H20_10 H 0.907473 0.545253 0.386032
C2_11 C 0.1815(3) 0.5593(3) 0.0128(8)
H1_11 H 0.2072 0.5384 0.0115
C3_11 C 0.1668(4) 0.5763(3) 0.0701(6)
C4_11 C 0.1252(5) 0.6065(4) 0.0710(7)
H2_11 H 0.1103 0.6154 0.1080
C5_11 C 0.1075(3) 0.6223(2) 0.0155(8)
C8_11 C 0.1845(5) 0.5597(4) 0.1320(6)
O4_11 O 0.0057(3) 0.63681(19) 0.0231(6)
O5_9 O 0.0642(5) 0.6873(3) 0.0704(5)
O12_7 O 0.2168(3) 0.5299(3) 0.1309(4)
S1_11 S 0.05499(10) 0.66073(7) 0.0168(2)
C1_11 C 0.1586(5) 0.5729(4) 0.9589(7)
C6_11 C 0.1245(5) 0.6078(3) 0.9604(6)
H3_11 H 0.1139 0.6207 0.9241
C7_11 C 0.1793(5) 0.5567(4) 0.8998(6)
C10_11 C 0.1522(6) 0.6566(3) 0.7324(5)
H4_11 H 0.1880 0.6553 0.7196
C11_11 C 0.0695(8) 0.6895(6) 0.7376(14)
C12_11 C 0.1453(8) 0.7180(6) 0.6800(9)
N2_11 N 0.1244(5) 0.6876(4) 0.7168(6)
O1_11 O 0.2067(3) 0.5245(3) 0.9009(4)
O2_11 O 0.1562(3) 0.5723(2) 0.8519(3)
O3_9 O 0.0590(3) 0.6829(3) 0.9588(4)
O6_11 O 0.1984(2) 0.51726(15) 0.7637(5)
O9_11 O 0.1342(3) 0.6278(2) 0.7637(7)
O25_7 O 0.2832(3) 0.4701(3) 0.6309(4)
H15_11 H 0.0473738 0.662857 0.720183
H16_11 H 0.0507653 0.717759 0.720677
H17_11 H 0.0686421 0.689328 0.787746
H18_11 H 0.180293 0.731771 0.702442
H19_11 H 0.114763 0.741669 0.672246
H20_11 H 0.157473 0.704747 0.636032
C9_11 C 0.9246(4) 0.6943(4) 0.3817(5)
C13_11 C 0.9021(6) 0.5941(5) 0.0462(7)
H5_11 H 0.9365 0.5964 0.0632
C14_11 C 0.8941(6) 0.5262(4) 0.0953(8)
H6_11 H 0.8670 0.5051 0.0995
H7_11 H 0.9252 0.5150 0.0750
H8_11 H 0.9042 0.5361 0.1354
C15_11 C 0.8151(6) 0.5562(4) 0.0431(8)
H9_11 H 0.8019 0.5299 0.0568
H10_11 H 0.7950 0.5779 0.0628
C16_11 C 0.9336(5) 0.6888(4) 0.1506(6)
C17_11 C 0.8761(4) 0.6418(3) 0.2096(6)
H12_11 H 0.8689 0.6286 0.1725
C18_11 C 0.9091(5) 0.6747(3) 0.2093(6)
C19_11 C 0.9268(3) 0.6913(2) 0.2634(7)
H13_11 H 0.9508 0.7134 0.2630
C20_11 C 0.9088(5) 0.6748(4) 0.3202(6)
C21_11 C 0.8670(4) 0.6440(4) 0.3197(6)
H14_11 H 0.8503 0.6361 0.3562
C22_11 C 0.8518(4) 0.6263(3) 0.2639(8)
N1_11 N 0.8726(4) 0.5601(3) 0.0592(5)
O8_9 O 0.9642(3) 0.7201(2) 0.1512(4)
O14_11 O 0.8844(3) 0.6237(2) 0.0108(6)
O15_11 O 0.9106(3) 0.6733(2) 0.1013(4)
S2_11 S 0.80353(9) 0.58648(7) 0.2632(2)
O18_11 O 0.8108(5) 0.5654(3) 0.2088(6)
O21_9 O 0.9592(2) 0.72908(15) 0.0124(5)
H11_11 H 0.8109 0.5583 0.9993
O25_8 O 0.2168(3) 0.0299(3) 0.6309(4)
C2_12 C 0.3185(3) 0.9407(3) 0.0128(8)
H1_12 H 0.2928 0.9616 0.0115
C3_12 C 0.3332(4) 0.9237(3) 0.0701(6)
C4_12 C 0.3748(5) 0.8935(4) 0.0710(7)
H2_12 H 0.3897 0.8846 0.1080
C5_12 C 0.3925(3) 0.8777(2) 0.0155(8)
C8_12 C 0.3155(5) 0.9403(4) 0.1320(6)
C9_12 C 0.5754(4) 0.8057(4) 0.3817(5)
C13_12 C 0.5979(6) 0.9059(5) 0.0462(7)
H5_12 H 0.5635 0.9036 0.0632
C14_12 C 0.6059(6) 0.9738(4) 0.0953(8)
H6_12 H 0.6330 0.9949 0.0995
H7_12 H 0.5748 0.9850 0.0750
H8_12 H 0.5958 0.9639 0.1354
C15_12 C 0.6849(6) 0.9438(4) 0.0431(8)
H9_12 H 0.6981 0.9701 0.0568
H10_12 H 0.7050 0.9221 0.0628
C16_12 C 0.5664(5) 0.8112(4) 0.1506(6)
C17_12 C 0.6239(4) 0.8582(3) 0.2096(6)
H12_12 H 0.6311 0.8714 0.1725
C18_12 C 0.5909(5) 0.8253(3) 0.2093(6)
C19_12 C 0.5732(3) 0.8087(2) 0.2634(7)
H13_12 H 0.5492 0.7866 0.2630
C20_12 C 0.5912(5) 0.8252(4) 0.3202(6)
C21_12 C 0.6330(4) 0.8560(4) 0.3197(6)
H14_12 H 0.6497 0.8639 0.3562
C22_12 C 0.6482(4) 0.8737(3) 0.2639(8)
N1_12 N 0.6274(4) 0.9399(3) 0.0592(5)
O4_12 O 0.4943(3) 0.86319(19) 0.0231(6)
O12_8 O 0.2832(3) 0.9701(3) 0.1309(4)
O13_9 O 0.3251(3) 0.9181(2) 0.1753(3)
O14_12 O 0.6156(3) 0.8763(2) 0.0108(6)
O15_12 O 0.5894(3) 0.8267(2) 0.1013(4)
S1_12 S 0.44501(10) 0.83927(7) 0.0168(2)
S2_12 S 0.69647(9) 0.91352(7) 0.2632(2)
O18_12 O 0.6892(5) 0.9346(3) 0.2088(6)
Cu9_6 Cu 0.32347(4) 0.92376(3) 0.26319(10)
C1_12 C 0.3414(5) 0.9271(4) 0.9589(7)
C6_12 C 0.3755(5) 0.8922(3) 0.9604(6)
H3_12 H 0.3861 0.8793 0.9241
C7_12 C 0.3207(5) 0.9433(4) 0.8998(6)
C10_12 C 0.3478(6) 0.8434(3) 0.7324(5)
H4_12 H 0.3120 0.8447 0.7196
C11_12 C 0.4305(8) 0.8105(6) 0.7376(14)
C12_12 C 0.3547(8) 0.7820(6) 0.6800(9)
H11_12 H 0.6891 0.9417 0.9993
N2_12 N 0.3756(5) 0.8124(4) 0.7168(6)
O1_12 O 0.2933(3) 0.9755(3) 0.9009(4)
O2_12 O 0.3438(3) 0.9277(2) 0.8519(3)
O6_12 O 0.3016(2) 0.98274(15) 0.7637(5)
O9_12 O 0.3658(3) 0.8722(2) 0.7637(7)
O23_9 O 0.3316(3) 0.9221(2) 0.6762(4)
O24_9 O 0.2971(3) 0.9757(2) 0.6303(4)
H15_12 H 0.452626 0.837143 0.720183
H16_12 H 0.449235 0.782241 0.720677
H17_12 H 0.431358 0.810672 0.787746
H18_12 H 0.319707 0.768229 0.702442
H19_12 H 0.385237 0.758331 0.672246
H20_12 H 0.342527 0.795253 0.636032
C1_13 C 0.0914(5) 0.8229(4) 0.2089(7)
C2_13 C 0.0685(3) 0.8093(3) 0.2628(8)
H1_13 H 0.0428 0.7884 0.2615
C3_13 C 0.0832(4) 0.8263(3) 0.3201(6)
C4_13 C 0.1248(5) 0.8565(4) 0.3210(7)
H2_13 H 0.1397 0.8654 0.3580
C5_13 C 0.1425(3) 0.8723(2) 0.2655(8)
C6_13 C 0.1255(5) 0.8578(3) 0.2104(6)
H3_13 H 0.1361 0.8707 0.1741
C7_13 C 0.0707(5) 0.8067(4) 0.1498(6)
C8_13 C 0.0655(5) 0.8097(4) 0.3820(6)
C9_13 C 0.3254(4) 0.9443(4) 0.6317(5)
C13_13 C 0.3479(6) 0.8441(5) 0.2962(7)
H5_13 H 0.3135 0.8464 0.3132
C14_13 C 0.3559(6) 0.7762(4) 0.3453(8)
H6_13 H 0.3830 0.7551 0.3495
H7_13 H 0.3248 0.7650 0.3250
H8_13 H 0.3458 0.7861 0.3854
C15_13 C 0.4349(6) 0.8062(4) 0.2931(8)
H9_13 H 0.4481 0.7799 0.3068
H10_13 H 0.4550 0.8279 0.3128
H11_13 H 0.4391 0.8083 0.2493
C16_13 C 0.3164(5) 0.9388(4) 0.4006(6)
C17_13 C 0.3739(4) 0.8918(3) 0.4596(6)
H12_13 H 0.3811 0.8786 0.4225
C18_13 C 0.3409(5) 0.9247(3) 0.4593(6)
C19_13 C 0.3232(3) 0.9413(2) 0.5134(7)
H13_13 H 0.2992 0.9634 0.5130
C20_13 C 0.3412(5) 0.9248(4) 0.5702(6)
C21_13 C 0.3830(4) 0.8940(4) 0.5697(6)
H14_13 H 0.3997 0.8861 0.6062
C22_13 C 0.3982(4) 0.8763(3) 0.5139(8)
N1_13 N 0.3774(4) 0.8101(3) 0.3092(5)
O1_13 O 0.0433(3) 0.7745(3) 0.1509(4)
O2_13 O 0.0938(3) 0.8223(2) 0.1019(3)
O3_10 O 0.1910(3) 0.9329(3) 0.2088(4)
O4_13 O 0.2443(3) 0.88681(19) 0.2731(6)
O5_10 O 0.1858(5) 0.9373(3) 0.3204(5)
O6_13 O 0.0516(2) 0.76726(15) 0.0137(5)
O8_10 O 0.2858(3) 0.9701(2) 0.4012(4)
O9_13 O 0.1158(3) 0.8778(2) 0.0137(7)
O14_13 O 0.3656(3) 0.8737(2) 0.2608(6)
O15_13 O 0.3394(3) 0.9233(2) 0.3513(4)
S1_13 S 0.19501(10) 0.91073(7) 0.2668(2)
S2_13 S 0.44647(9) 0.83648(7) 0.5132(2)
O18_13 O 0.4392(5) 0.8154(3) 0.4588(6)
O21_10 O 0.2908(2) 0.97908(15) 0.2624(5)
H17_13 H 0.181358 0.939328 0.0377464
C10_13 C 0.0978(6) 0.9066(3) 0.9824(5)
H4_13 H 0.0620 0.9053 0.9696
C11_13 C 0.1805(8) 0.9395(6) 0.9876(14)
C12_13 C 0.1047(8) 0.9680(6) 0.9300(9)
N2_13 N 0.1256(5) 0.9376(4) 0.9668(6)
H15_13 H 0.202626 0.912857 0.970183
H16_13 H 0.199235 0.967759 0.970677
H18_13 H 0.0697067 0.981771 0.952442
H19_13 H 0.135237 0.991669 0.922246
H20_13 H 0.0925272 0.954747 0.886032
C1_14 C 0.9086(5) 0.1771(4) 0.2089(7)
C2_14 C 0.9315(3) 0.1907(3) 0.2628(8)
H1_14 H 0.9572 0.2116 0.2615
C3_14 C 0.9168(4) 0.1737(3) 0.3201(6)
C4_14 C 0.8752(5) 0.1435(4) 0.3210(7)
H2_14 H 0.8603 0.1346 0.3580
C5_14 C 0.8575(3) 0.1277(2) 0.2655(8)
C6_14 C 0.8745(5) 0.1422(3) 0.2104(6)
H3_14 H 0.8639 0.1293 0.1741
C7_14 C 0.9293(5) 0.1933(4) 0.1498(6)
C8_14 C 0.9345(5) 0.1903(4) 0.3820(6)
C9_14 C 0.6746(4) 0.0557(4) 0.6317(5)
C13_14 C 0.6521(6) 0.1559(5) 0.2962(7)
H5_14 H 0.6865 0.1536 0.3132
C14_14 C 0.6441(6) 0.2238(4) 0.3453(8)
H6_14 H 0.6170 0.2449 0.3495
H7_14 H 0.6752 0.2350 0.3250
H8_14 H 0.6542 0.2139 0.3854
C15_14 C 0.5651(6) 0.1938(4) 0.2931(8)
H9_14 H 0.5519 0.2201 0.3068
H10_14 H 0.5450 0.1721 0.3128
H11_14 H 0.5609 0.1917 0.2493
C16_14 C 0.6836(5) 0.0612(4) 0.4006(6)
C17_14 C 0.6261(4) 0.1082(3) 0.4596(6)
H12_14 H 0.6189 0.1214 0.4225
C18_14 C 0.6591(5) 0.0753(3) 0.4593(6)
C19_14 C 0.6768(3) 0.0587(2) 0.5134(7)
H13_14 H 0.7008 0.0366 0.5130
C20_14 C 0.6588(5) 0.0752(4) 0.5702(6)
C21_14 C 0.6170(4) 0.1060(4) 0.5697(6)
H14_14 H 0.6003 0.1139 0.6062
C22_14 C 0.6018(4) 0.1237(3) 0.5139(8)
N1_14 N 0.6226(4) 0.1899(3) 0.3092(5)
O1_14 O 0.9567(3) 0.2255(3) 0.1509(4)
O2_14 O 0.9062(3) 0.1777(2) 0.1019(3)
O4_14 O 0.7557(3) 0.11319(19) 0.2731(6)
O6_14 O 0.9484(2) 0.23274(15) 0.0137(5)
O9_14 O 0.8842(3) 0.1222(2) 0.0137(7)
O13_10 O 0.9249(3) 0.1681(2) 0.4253(3)
O14_14 O 0.6344(3) 0.1263(2) 0.2608(6)
O15_14 O 0.6606(3) 0.0767(2) 0.3513(4)
S1_14 S 0.80499(10) 0.08927(7) 0.2668(2)
S2_14 S 0.55353(9) 0.16352(7) 0.5132(2)
O18_14 O 0.5608(5) 0.1846(3) 0.4588(6)
H17_14 H 0.818642 0.0606722 0.0377464
C10_14 C 0.9022(6) 0.0934(3) 0.9824(5)
H4_14 H 0.9380 0.0947 0.9696
C11_14 C 0.8195(8) 0.0605(6) 0.9876(14)
C12_14 C 0.8953(8) 0.0320(6) 0.9300(9)
N2_14 N 0.8744(5) 0.0624(4) 0.9668(6)
O23_10 O 0.9184(3) 0.1721(2) 0.9262(4)
O24_10 O 0.9529(3) 0.2257(2) 0.8803(4)
H15_14 H 0.797374 0.0871432 0.970183
H16_14 H 0.800765 0.0322407 0.970677
H18_14 H 0.930293 0.0182289 0.952442
H19_14 H 0.864763 0.00833067 0.922246
H20_14 H 0.907473 0.0452528 0.886032
C1_15 C 0.1586(5) 0.0729(4) 0.4589(7)
C2_15 C 0.1815(3) 0.0593(3) 0.5128(8)
H1_15 H 0.2072 0.0384 0.5115
C3_15 C 0.1668(4) 0.0763(3) 0.5701(6)
C4_15 C 0.1252(5) 0.1065(4) 0.5710(7)
H2_15 H 0.1103 0.1154 0.6080
C5_15 C 0.1075(3) 0.1223(2) 0.5155(8)
C6_15 C 0.1245(5) 0.1078(3) 0.4604(6)
H3_15 H 0.1139 0.1207 0.4241
C7_15 C 0.1793(5) 0.0567(4) 0.3998(6)
C8_15 C 0.1845(5) 0.0597(4) 0.6320(6)
C10_15 C 0.1522(6) 0.1566(3) 0.2324(5)
H4_15 H 0.1880 0.1553 0.2196
C11_15 C 0.0695(8) 0.1895(6) 0.2376(14)
C12_15 C 0.1453(8) 0.2180(6) 0.1800(9)
N2_15 N 0.1244(5) 0.1876(4) 0.2168(6)
O1_15 O 0.2067(3) 0.0245(3) 0.4009(4)
O2_15 O 0.1562(3) 0.0723(2) 0.3519(3)
O4_15 O 0.0057(3) 0.13681(19) 0.5231(6)
O6_15 O 0.1984(2) 0.01726(15) 0.2637(5)
O9_15 O 0.1342(3) 0.1278(2) 0.2637(7)
S1_15 S 0.05499(10) 0.16073(7) 0.5168(2)
H15_15 H 0.0473738 0.162857 0.220183
H16_15 H 0.0507653 0.217759 0.220677
H17_15 H 0.0686421 0.189328 0.287746
H18_15 H 0.180293 0.231771 0.202442
H19_15 H 0.114763 0.241669 0.172246
H20_15 H 0.157473 0.204747 0.136032
C9_15 C 0.9246(4) 0.1943(4) 0.8817(5)
C13_15 C 0.9021(6) 0.0941(5) 0.5462(7)
H5_15 H 0.9365 0.0964 0.5632
C14_15 C 0.8941(6) 0.0262(4) 0.5953(8)
H6_15 H 0.8670 0.0051 0.5995
H7_15 H 0.9252 0.0150 0.5750
H8_15 H 0.9042 0.0361 0.6354
C15_15 C 0.8151(6) 0.0562(4) 0.5431(8)
H9_15 H 0.8019 0.0299 0.5568
H10_15 H 0.7950 0.0779 0.5628
H11_15 H 0.8109 0.0583 0.4993
C16_15 C 0.9336(5) 0.1888(4) 0.6506(6)
C17_15 C 0.8761(4) 0.1418(3) 0.7096(6)
H12_15 H 0.8689 0.1286 0.6725
C18_15 C 0.9091(5) 0.1747(3) 0.7093(6)
C19_15 C 0.9268(3) 0.1913(2) 0.7634(7)
H13_15 H 0.9508 0.2134 0.7630
C20_15 C 0.9088(5) 0.1748(4) 0.8202(6)
C21_15 C 0.8670(4) 0.1440(4) 0.8197(6)
H14_15 H 0.8503 0.1361 0.8562
C22_15 C 0.8518(4) 0.1263(3) 0.7639(8)
N1_15 N 0.8726(4) 0.0601(3) 0.5592(5)
O14_15 O 0.8844(3) 0.1237(2) 0.5108(6)
O15_15 O 0.9106(3) 0.1733(2) 0.6013(4)
S2_15 S 0.80353(9) 0.08648(7) 0.7632(2)
O18_15 O 0.8108(5) 0.0654(3) 0.7088(6)
C1_16 C 0.3414(5) 0.4271(4) 0.4589(7)
C2_16 C 0.3185(3) 0.4407(3) 0.5128(8)
H1_16 H 0.2928 0.4616 0.5115
C3_16 C 0.3332(4) 0.4237(3) 0.5701(6)
C4_16 C 0.3748(5) 0.3935(4) 0.5710(7)
H2_16 H 0.3897 0.3846 0.6080
C5_16 C 0.3925(3) 0.3777(2) 0.5155(8)
C6_16 C 0.3755(5) 0.3922(3) 0.4604(6)
H3_16 H 0.3861 0.3793 0.4241
C7_16 C 0.3207(5) 0.4433(4) 0.3998(6)
C8_16 C 0.3155(5) 0.4403(4) 0.6320(6)
C9_16 C 0.5754(4) 0.3057(4) 0.8817(5)
C10_16 C 0.3478(6) 0.3434(3) 0.2324(5)
H4_16 H 0.3120 0.3447 0.2196
C11_16 C 0.4305(8) 0.3105(6) 0.2376(14)
C12_16 C 0.3547(8) 0.2820(6) 0.1800(9)
C13_16 C 0.5979(6) 0.4059(5) 0.5462(7)
H5_16 H 0.5635 0.4036 0.5632
C14_16 C 0.6059(6) 0.4738(4) 0.5953(8)
H6_16 H 0.6330 0.4949 0.5995
H7_16 H 0.5748 0.4850 0.5750
H8_16 H 0.5958 0.4639 0.6354
C15_16 C 0.6849(6) 0.4438(4) 0.5431(8)
H9_16 H 0.6981 0.4701 0.5568
H10_16 H 0.7050 0.4221 0.5628
H11_16 H 0.6891 0.4417 0.4993
C16_16 C 0.5664(5) 0.3112(4) 0.6506(6)
C17_16 C 0.6239(4) 0.3582(3) 0.7096(6)
H12_16 H 0.6311 0.3714 0.6725
C18_16 C 0.5909(5) 0.3253(3) 0.7093(6)
C19_16 C 0.5732(3) 0.3087(2) 0.7634(7)
H13_16 H 0.5492 0.2866 0.7630
C20_16 C 0.5912(5) 0.3252(4) 0.8202(6)
C21_16 C 0.6330(4) 0.3560(4) 0.8197(6)
H14_16 H 0.6497 0.3639 0.8562
C22_16 C 0.6482(4) 0.3737(3) 0.7639(8)
N1_16 N 0.6274(4) 0.4399(3) 0.5592(5)
N2_16 N 0.3756(5) 0.3124(4) 0.2168(6)
O1_16 O 0.2933(3) 0.4755(3) 0.4009(4)
O2_16 O 0.3438(3) 0.4277(2) 0.3519(3)
O4_16 O 0.4943(3) 0.36319(19) 0.5231(6)
O6_16 O 0.3016(2) 0.48274(15) 0.2637(5)
O9_16 O 0.3658(3) 0.3722(2) 0.2637(7)
O14_16 O 0.6156(3) 0.3763(2) 0.5108(6)
O15_16 O 0.5894(3) 0.3267(2) 0.6013(4)
S1_16 S 0.44501(10) 0.33927(7) 0.5168(2)
S2_16 S 0.69647(9) 0.41352(7) 0.7632(2)
O18_16 O 0.6892(5) 0.4346(3) 0.7088(6)
H15_16 H 0.452626 0.337143 0.220183
H16_16 H 0.449235 0.282241 0.220677
H17_16 H 0.431358 0.310672 0.287746
H18_16 H 0.319707 0.268229 0.202442
H19_16 H 0.385237 0.258331 0.172246
H20_16 H 0.342527 0.295253 0.136032
loop_
_geom_bond_atom_site_label_1
_geom_bond_atom_site_label_2
_geom_bond_site_symmetry_1
_geom_bond_site_symmetry_2
C1 C2 1_555 1_555
C2 H1 1_555 1_555
C3 C2 1_555 1_555
C4 C3 1_555 1_555
H2 C4 1_555 1_555
C5 C4 1_555 1_555
C6 C1 1_555 1_555
H3 C6 1_555 1_555
C7 C1 1_555 1_555
C8 C3 1_555 1_555
C9 C20 1_555 1_555
C13 H5 1_555 1_555
C14 H6 1_555 1_555
H7 C14 1_555 1_555
H8 C14 1_555 1_555
C15 H9 1_555 1_555
H10 C15 1_555 1_555
H11 C15 1_555 1_555
C16 C18 1_555 1_555
C17 H12 1_555 1_555
C18 C17 1_555 1_555
C19 C18 1_555 1_555
H13 C19 1_555 1_555
C20 C19 1_555 1_555
C21 C20 1_555 1_555
H14 C21 1_555 1_555
C22 C17 1_555 1_555
N1 C13 1_555 1_555
O1 C7 1_555 1_555
O2 C7 1_555 1_555
O3 S1 1_555 1_555
O4 S1 1_555 1_555
O5 S1 1_555 1_555
O8 C16 1_555 1_555
O10 C9 1_555 1_555
O11 C9 1_555 1_555
O12 C8 1_555 1_555
O13 C8 1_555 1_555
O14 C13 1_555 1_555
O15 C16 1_555 1_555
O16 S2 1_555 1_555
O17 S2 1_555 1_555
S1 C5 1_555 1_555
S2 C22 1_555 1_555
Cu2 O4 1_555 1_555
Cu3 O2 1_555 1_555
Cu4 O1 1_555 1_555
O18 S2 1_555 1_555
O20 Cu4 1_555 1_555
O21 Cu2 1_555 1_555
O22 Cu4 1_555 1_555
O26 Cu2 1_555 1_555
O27 Cu4 1_555 1_555
O28 Cu3 1_555 1_555
Cu5 O3 1_555 1_555
Cu6 O12 1_555 1_555
Cu7 O11 1_555 1_555
Cu8 O7 1_555 1_555
Cu9 O13 1_555 1_555
Cu10 O10 1_555 1_555
Cu12 O5 1_555 1_555
C5 C6 1_555 1_555
C14 N1 1_555 1_555
C15 N1 1_555 1_555
C21 C22 1_555 1_555
O6 Cu3 1_555 1_555
O6 Cu4 1_555 1_555
O7 Cu4 1_555 1_555
O8 Cu12 1_555 1_555
O9 Cu3 1_555 1_555
O14 Cu2 1_555 1_555
O15 Cu2 1_555 1_555
O21 Cu5 1_555 1_555
O21 Cu12 1_555 1_555
C10 H4 1_555 1_555
C11 N2 1_555 1_555
C12 N2 1_555 1_555
N2 C10 1_555 1_555
Cu1 O19 1_555 1_555
O24 Cu1 1_555 1_555
O25 Cu1 1_555 1_555
C11 H15 1_555 1_555
C11 H16 1_555 1_555
C12 H18 1_555 1_555
C12 H19 1_555 1_555
C12 H20 1_555 1_555
C1_2 C2_2 1_555 1_555
C2_2 H1_2 1_555 1_555
C3_2 C2_2 1_555 1_555
C4_2 C3_2 1_555 1_555
H2_2 C4_2 1_555 1_555
C5_2 C4_2 1_555 1_555
C6_2 C1_2 1_555 1_555
H3_2 C6_2 1_555 1_555
C7_2 C1_2 1_555 1_555
C8_2 C3_2 1_555 1_555
C9_2 C20_2 1_555 1_555
C13_2 H5_2 1_555 1_555
C14_2 H6_2 1_555 1_555
H7_2 C14_2 1_555 1_555
H8_2 C14_2 1_555 1_555
C15_2 H9_2 1_555 1_555
H10_2 C15_2 1_555 1_555
H11_2 C15_2 1_555 1_555
C16_2 C18_2 1_555 1_555
C17_2 H12_2 1_555 1_555
C18_2 C17_2 1_555 1_555
C19_2 C18_2 1_555 1_555
H13_2 C19_2 1_555 1_555
C20_2 C19_2 1_555 1_555
C21_2 C20_2 1_555 1_555
H14_2 C21_2 1_555 1_555
C22_2 C17_2 1_555 1_555
N1_2 C13_2 1_555 1_555
O1_2 C7_2 1_555 1_555
O2_2 C7_2 1_555 1_555
O3_2 S1_2 1_555 1_555
O4_2 S1_2 1_555 1_555
O5_2 S1_2 1_555 1_555
O8_2 C16_2 1_555 1_555
O10_2 C9_2 1_555 1_555
O11_2 C9_2 1_555 1_555
O12_2 C8_2 1_555 1_555
O13_2 C8_2 1_555 1_555
O14_2 C13_2 1_555 1_555
O15_2 C16_2 1_555 1_555
O16_2 S2_2 1_555 1_555
O17_2 S2_2 1_555 1_555
S1_2 C5_2 1_555 1_555
S2_2 C22_2 1_555 1_555
Cu2_2 O4_2 1_555 1_555
Cu3_2 O2_2 1_555 1_555
Cu4_2 O1_2 1_555 1_555
O18_2 S2_2 1_555 1_555
O20_2 Cu4_2 1_555 1_555
O21_2 Cu2_2 1_555 1_555
O22_2 Cu4_2 1_555 1_555
O26_2 Cu2_2 1_555 1_555
O27_2 Cu4_2 1_555 1_555
O28_2 Cu3_2 1_555 1_555
Cu5_2 O3_2 1_555 1_555
Cu6_2 O12_2 1_555 1_555
Cu7_2 O11_2 1_555 1_555
Cu8_2 O7_2 1_555 1_555
Cu9_2 O13_2 1_555 1_555
Cu10_2 O10_2 1_555 1_555
Cu12_2 O5_2 1_555 1_555
C5_2 C6_2 1_555 1_555
C14_2 N1_2 1_555 1_555
C15_2 N1_2 1_555 1_555
C21_2 C22_2 1_555 1_555
O6_2 Cu3_2 1_555 1_555
O6_2 Cu4_2 1_555 1_555
O7_2 Cu4_2 1_555 1_555
O8_2 Cu12_2 1_555 1_555
O9_2 Cu3_2 1_555 1_555
O14_2 Cu2_2 1_555 1_555
O15_2 Cu2_2 1_555 1_555
O21_2 Cu5_2 1_555 1_555
O21_2 Cu12_2 1_555 1_555
C10_2 H4_2 1_555 1_555
C11_2 N2_2 1_555 1_555
C12_2 N2_2 1_555 1_555
N2_2 C10_2 1_555 1_555
Cu1_2 O19_2 1_555 1_555
O24_2 Cu1_2 1_555 1_555
O25_2 Cu1_2 1_555 1_555
C11_2 H15_2 1_555 1_555
C11_2 H16_2 1_555 1_555
C12_2 H18_2 1_555 1_555
C12_2 H19_2 1_555 1_555
C12_2 H20_2 1_555 1_555
C1_3 C2_3 1_555 1_555
C2_3 H1_3 1_555 1_555
C3_3 C2_3 1_555 1_555
C4_3 C3_3 1_555 1_555
H2_3 C4_3 1_555 1_555
C5_3 C4_3 1_555 1_555
C6_3 C1_3 1_555 1_555
H3_3 C6_3 1_555 1_555
C7_3 C1_3 1_555 1_555
C8_3 C3_3 1_555 1_555
C9_3 C20_3 1_555 1_555
C10_3 H4_3 1_555 1_555
C11_3 N2_3 1_555 1_555
C12_3 N2_3 1_555 1_555
C13_3 H5_3 1_555 1_555
C14_3 H6_3 1_555 1_555
H7_3 C14_3 1_555 1_555
H8_3 C14_3 1_555 1_555
C15_3 H9_3 1_555 1_555
H10_3 C15_3 1_555 1_555
H11_3 C15_3 1_555 1_555
C16_3 C18_3 1_555 1_555
C17_3 H12_3 1_555 1_555
C18_3 C17_3 1_555 1_555
C19_3 C18_3 1_555 1_555
H13_3 C19_3 1_555 1_555
C20_3 C19_3 1_555 1_555
C21_3 C20_3 1_555 1_555
H14_3 C21_3 1_555 1_555
C22_3 C17_3 1_555 1_555
N1_3 C13_3 1_555 1_555
N2_3 C10_3 1_555 1_555
O1_3 C7_3 1_555 1_555
O2_3 C7_3 1_555 1_555
O3_3 S1_3 1_555 1_555
O4_3 S1_3 1_555 1_555
O5_3 S1_3 1_555 1_555
O6_3 Cu5 1_555 1_555
O8_3 C16_3 1_555 1_555
O9_3 C10_3 1_555 1_555
O23_2 C9_3 1_555 1_555
O24_2 C9_3 1_555 1_555
O12_3 C8_3 1_555 1_555
O13_3 C8_3 1_555 1_555
O14_3 C13_3 1_555 1_555
O15_3 C16_3 1_555 1_555
O16_3 S2_3 1_555 1_555
O17_3 S2_3 1_555 1_555
S1_3 C5_3 1_555 1_555
S2_3 C22_3 1_555 1_555
Cu9_2 O4_3 1_555 1_555
Cu3_3 O2_3 1_555 1_555
Cu12 O1_3 1_555 1_555
O18_3 S2_3 1_555 1_555
O21_3 Cu9_2 1_555 1_555
O23_3 Cu3_3 1_555 1_555
O24_3 Cu5 1_555 1_555
O25_3 Cu5 1_555 1_555
O27_3 Cu12 1_555 1_555
O28_3 Cu3_3 1_555 1_555
Cu6_2 O3_3 1_555 1_555
Cu7 O12_3 1_555 1_555
Cu9_3 O13_3 1_555 1_555
Cu10_2 O17_3 1_555 1_555
Cu12_3 O5_3 1_555 1_555
Cu13_3 O16_3 1_555 1_555
C5_3 C6_3 1_555 1_555
C14_3 N1_3 1_555 1_555
C15_3 N1_3 1_555 1_555
C21_3 C22_3 1_555 1_555
O6_3 Cu3_3 1_555 1_555
O6_3 Cu12 1_555 1_555
O8_3 Cu12_3 1_555 1_555
O9_3 Cu3_3 1_555 1_555
O14_3 Cu9_2 1_555 1_555
O15_3 Cu9_2 1_555 1_555
O21_3 Cu6_2 1_555 1_555
O21_3 Cu12_3 1_555 1_555
C11_3 H15_3 1_555 1_555
C11_3 H16_3 1_555 1_555
C11_3 H17_3 1_555 1_555
C12_3 H18_3 1_555 1_555
C12_3 H19_3 1_555 1_555
C12_3 H20_3 1_555 1_555
C9_4 C20_4 1_555 1_555
C13_4 H5_4 1_555 1_555
C14_4 H6_4 1_555 1_555
H7_4 C14_4 1_555 1_555
H8_4 C14_4 1_555 1_555
C15_4 H9_4 1_555 1_555
H10_4 C15_4 1_555 1_555
H11_4 C15_4 1_555 1_555
C16_4 C18_4 1_555 1_555
C17_4 H12_4 1_555 1_555
C18_4 C17_4 1_555 1_555
C19_4 C18_4 1_555 1_555
H13_4 C19_4 1_555 1_555
C20_4 C19_4 1_555 1_555
C21_4 C20_4 1_555 1_555
H14_4 C21_4 1_555 1_555
C22_4 C17_4 1_555 1_555
N1_4 C13_4 1_555 1_555
O8_4 C16_4 1_555 1_555
O10_3 C9_4 1_555 1_555
O11_3 C9_4 1_555 1_555
O14_4 C13_4 1_555 1_555
O15_4 C16_4 1_555 1_555
O16_4 S2_4 1_555 1_555
O17_4 S2_4 1_555 1_555
S2_4 C22_4 1_555 1_555
O18_4 S2_4 1_555 1_555
O21_4 Cu2_3 1_555 1_555
O26_3 Cu2_3 1_555 1_555
Cu7_3 O11_3 1_555 1_555
Cu11_3 O17_4 1_555 1_555
C14_4 N1_4 1_555 1_555
C15_4 N1_4 1_555 1_555
C21_4 C22_4 1_555 1_555
O14_4 Cu2_3 1_555 1_555
O15_4 Cu2_3 1_555 1_555
O7_3 Cu1_3 1_555 1_555
Cu1_3 O19_3 1_555 1_555
O20_3 Cu4_3 1_555 1_555
O22_3 Cu4_3 1_555 1_555
O25_4 Cu1_3 1_555 1_555
Cu8_3 O7_3 1_555 1_555
O7_3 Cu4_3 1_555 1_555
C1_4 C2_4 1_555 1_555
C2_4 H1_4 1_555 1_555
C3_4 C2_4 1_555 1_555
C4_4 C3_4 1_555 1_555
H2_4 C4_4 1_555 1_555
C5_4 C4_4 1_555 1_555
C6_4 C1_4 1_555 1_555
H3_4 C6_4 1_555 1_555
C7_4 C1_4 1_555 1_555
C8_4 C3_4 1_555 1_555
C10_4 H4_4 1_555 1_555
C11_4 N2_4 1_555 1_555
C12_4 N2_4 1_555 1_555
N2_4 C10_4 1_555 1_555
O1_4 C7_4 1_555 1_555
O2_4 C7_4 1_555 1_555
O3_4 S1_4 1_555 1_555
O4_4 S1_4 1_555 1_555
O5_4 S1_4 1_555 1_555
O9_4 C10_4 1_555 1_555
O12_4 C8_4 1_555 1_555
O13_4 C8_4 1_555 1_555
S1_4 C5_4 1_555 1_555
Cu3_4 O2_4 1_555 1_555
O23_4 Cu3_4 1_555 1_555
O28_4 Cu3_4 1_555 1_555
Cu5_3 O3_4 1_555 1_555
Cu6_3 O12_4 1_555 1_555
Cu9_4 O13_4 1_555 1_555
Cu13_2 O5_4 1_555 1_555
C5_4 C6_4 1_555 1_555
O6_4 Cu3_4 1_555 1_555
O9_4 Cu3_4 1_555 1_555
C11_4 H15_4 1_555 1_555
C11_4 H16_4 1_555 1_555
C11_4 H17_4 1_555 1_555
C12_4 H18_4 1_555 1_555
C12_4 H19_4 1_555 1_555
C12_4 H20_4 1_555 1_555
C9_5 C20_5 1_555 1_555
H13_5 C19_5 1_555 1_555
C20_5 C19_5 1_555 1_555
C21_5 C20_5 1_555 1_555
H14_5 C21_5 1_555 1_555
O23_4 C9_5 1_555 1_555
O24_4 C9_5 1_555 1_555
O16_5 S2_5 1_555 1_555
O17_5 S2_5 1_555 1_555
S2_5 C22_5 1_555 1_555
C21_5 C22_5 1_555 1_555
C1_5 C2_5 1_555 1_555
C2_5 H1_5 1_555 1_555
C3_5 C2_5 1_555 1_555
C4_5 C3_5 1_555 1_555
H2_5 C4_5 1_555 1_555
C5_5 C4_5 1_555 1_555
C6_5 C1_5 1_555 1_555
H3_5 C6_5 1_555 1_555
C7_5 C1_5 1_555 1_555
C8_5 C3_5 1_555 1_555
C10_5 H4_5 1_555 1_555
C11_5 N2_5 1_555 1_555
C12_5 N2_5 1_555 1_555
C13_5 H5_5 1_555 1_555
C14_5 H6_5 1_555 1_555
H7_5 C14_5 1_555 1_555
H8_5 C14_5 1_555 1_555
C15_5 H9_5 1_555 1_555
H10_5 C15_5 1_555 1_555
H11_5 C15_5 1_555 1_555
C16_5 C18_5 1_555 1_555
C17_5 H12_5 1_555 1_555
C18_5 C17_5 1_555 1_555
N1_5 C13_5 1_555 1_555
N2_5 C10_5 1_555 1_555
O1_5 C7_5 1_555 1_555
O2_5 C7_5 1_555 1_555
O3_5 S1_5 1_555 1_555
O4_5 S1_5 1_555 1_555
O5_5 S1_5 1_555 1_555
O6_5 Cu6_2 1_555 1_555
O8_5 C16_5 1_555 1_555
O9_5 C10_5 1_555 1_555
O25_2 C8_5 1_555 1_555
O13_5 C8_5 1_555 1_555
O14_5 C13_5 1_555 1_555
O15_5 C16_5 1_555 1_555
S1_5 C5_5 1_555 1_555
Cu9_4 O4_5 1_555 1_555
Cu3_5 O2_5 1_555 1_555
Cu12_3 O1_5 1_555 1_555
O21_5 Cu9_4 1_555 1_555
O23_5 Cu3_5 1_555 1_555
O24_5 Cu6_2 1_555 1_555
O27_5 Cu12_3 1_555 1_555
O28_5 Cu3_5 1_555 1_555
Cu6_3 O3_5 1_555 1_555
Cu12_4 O5_5 1_555 1_555
C5_5 C6_5 1_555 1_555
C14_5 N1_5 1_555 1_555
C15_5 N1_5 1_555 1_555
O6_5 Cu3_5 1_555 1_555
O6_5 Cu12_3 1_555 1_555
O8_5 Cu12_4 1_555 1_555
O9_5 Cu3_5 1_555 1_555
O14_5 Cu9_4 1_555 1_555
O15_5 Cu9_4 1_555 1_555
O21_5 Cu6_3 1_555 1_555
O21_5 Cu12_4 1_555 1_555
C11_5 H15_5 1_555 1_555
C11_5 H16_5 1_555 1_555
C11_5 H17_5 1_555 1_555
C12_5 H18_5 1_555 1_555
C12_5 H19_5 1_555 1_555
C12_5 H20_5 1_555 1_555
C9_6 C20_6 1_555 1_555
H13_6 C19_6 1_555 1_555
C20_6 C19_6 1_555 1_555
C21_6 C20_6 1_555 1_555
H14_6 C21_6 1_555 1_555
O10_4 C9_6 1_555 1_555
O11_4 C9_6 1_555 1_555
O16_6 S2_6 1_555 1_555
O17_6 S2_6 1_555 1_555
S2_6 C22_6 1_555 1_555
Cu10_4 O10_4 1_555 1_555
C21_6 C22_6 1_555 1_555
C1_6 C2_6 1_555 1_555
C2_6 H1_6 1_555 1_555
C3_6 C2_6 1_555 1_555
C4_6 C3_6 1_555 1_555
H2_6 C4_6 1_555 1_555
C5_6 C4_6 1_555 1_555
C6_6 C1_6 1_555 1_555
H3_6 C6_6 1_555 1_555
C7_6 C1_6 1_555 1_555
C8_6 C3_6 1_555 1_555
C10_6 H4_6 1_555 1_555
C11_6 N2_6 1_555 1_555
C12_6 N2_6 1_555 1_555
C13_6 H5_6 1_555 1_555
C14_6 H6_6 1_555 1_555
H7_6 C14_6 1_555 1_555
H8_6 C14_6 1_555 1_555
C15_6 H9_6 1_555 1_555
H10_6 C15_6 1_555 1_555
H11_6 C15_6 1_555 1_555
C16_6 C18_6 1_555 1_555
C17_6 H12_6 1_555 1_555
C18_6 C17_6 1_555 1_555
N1_6 C13_6 1_555 1_555
N2_6 C10_6 1_555 1_555
O1_6 C7_6 1_555 1_555
O2_6 C7_6 1_555 1_555
O3_6 S1_6 1_555 1_555
O4_6 S1_6 1_555 1_555
O5_6 S1_6 1_555 1_555
O6_6 Cu6 1_555 1_555
O7_4 Cu6 1_555 1_555
O8_6 C16_6 1_555 1_555
O9_6 C10_6 1_555 1_555
O25 C8_6 1_555 1_555
O13_6 C8_6 1_555 1_555
O14_6 C13_6 1_555 1_555
O15_6 C16_6 1_555 1_555
S1_6 C5_6 1_555 1_555
Cu6 O19_4 1_555 1_555
Cu2_4 O4_6 1_555 1_555
Cu3_6 O2_6 1_555 1_555
Cu4_4 O1_6 1_555 1_555
O20_4 Cu4_4 1_555 1_555
O21_6 Cu2_4 1_555 1_555
O22_4 Cu4_4 1_555 1_555
O23_6 Cu3_6 1_555 1_555
O24_6 Cu6 1_555 1_555
O26_4 Cu2_4 1_555 1_555
O27_6 Cu4_4 1_555 1_555
O28_6 Cu3_6 1_555 1_555
Cu5_4 O3_6 1_555 1_555
Cu9 O7_4 1_555 1_555
Cu13_4 O5_6 1_555 1_555
C5_6 C6_6 1_555 1_555
C14_6 N1_6 1_555 1_555
C15_6 N1_6 1_555 1_555
O6_6 Cu3_6 1_555 1_555
O6_6 Cu4_4 1_555 1_555
O7_4 Cu4_4 1_555 1_555
O8_6 Cu13_4 1_555 1_555
O9_6 Cu3_6 1_555 1_555
O14_6 Cu2_4 1_555 1_555
O15_6 Cu2_4 1_555 1_555
O21_6 Cu5_4 1_555 1_555
O21_6 Cu13_4 1_555 1_555
C11_6 H15_6 1_555 1_555
C11_6 H16_6 1_555 1_555
C11_6 H17_6 1_555 1_555
C12_6 H18_6 1_555 1_555
C12_6 H19_6 1_555 1_555
C12_6 H20_6 1_555 1_555
C2_7 H1_7 1_555 1_555
C3_7 C2_7 1_555 1_555
C4_7 C3_7 1_555 1_555
H2_7 C4_7 1_555 1_555
C5_7 C4_7 1_555 1_555
C8_7 C3_7 1_555 1_555
C9_7 C20_7 1_555 1_555
C13_7 H5_7 1_555 1_555
C14_7 H6_7 1_555 1_555
H7_7 C14_7 1_555 1_555
H8_7 C14_7 1_555 1_555
C15_7 H9_7 1_555 1_555
H10_7 C15_7 1_555 1_555
C16_7 C18_7 1_555 1_555
C17_7 H12_7 1_555 1_555
C18_7 C17_7 1_555 1_555
C19_7 C18_7 1_555 1_555
H13_7 C19_7 1_555 1_555
C20_7 C19_7 1_555 1_555
C21_7 C20_7 1_555 1_555
H14_7 C21_7 1_555 1_555
C22_7 C17_7 1_555 1_555
N1_7 C13_7 1_555 1_555
O4_7 S1_7 1_555 1_555
O20 S1_7 1_555 1_555
O22 C16_7 1_555 1_555
O23_6 C9_7 1_555 1_555
O24_6 C9_7 1_555 1_555
O25_4 C8_7 1_555 1_555
O13_7 C8_7 1_555 1_555
O14_7 C13_7 1_555 1_555
O15_7 C16_7 1_555 1_555
O16_7 S2_7 1_555 1_555
O17_7 S2_7 1_555 1_555
S1_7 C5_7 1_555 1_555
S2_7 C22_7 1_555 1_555
Cu8 O4_7 1_555 1_555
O18_7 S2_7 1_555 1_555
Cu8_3 O13_7 1_555 1_555
Cu10_4 O17_7 1_555 1_555
C14_7 N1_7 1_555 1_555
C15_7 N1_7 1_555 1_555
C21_7 C22_7 1_555 1_555
O14_7 Cu8 1_555 1_555
O15_7 Cu8 1_555 1_555
C6_7 C1_7 1_555 1_555
H3_7 C6_7 1_555 1_555
C7_7 C1_7 1_555 1_555
C10_7 H4_7 1_555 1_555
C11_7 N2_7 1_555 1_555
C12_7 N2_7 1_555 1_555
N2_7 C10_7 1_555 1_555
O1_7 C7_7 1_555 1_555
O2_7 C7_7 1_555 1_555
O9_7 C10_7 1_555 1_555
Cu3_7 O2_7 1_555 1_555
O23_7 Cu3_7 1_555 1_555
O28_7 Cu3_7 1_555 1_555
O6_7 Cu3_7 1_555 1_555
O9_7 Cu3_7 1_555 1_555
C11_7 H15_7 1_555 1_555
C11_7 H16_7 1_555 1_555
C11_7 H17_7 1_555 1_555
C12_7 H18_7 1_555 1_555
C12_7 H19_7 1_555 1_555
C12_7 H20_7 1_555 1_555
C9_8 C20_8 1_555 1_555
C13_8 H5_8 1_555 1_555
C14_8 H6_8 1_555 1_555
H7_8 C14_8 1_555 1_555
H8_8 C14_8 1_555 1_555
C15_8 H9_8 1_555 1_555
H10_8 C15_8 1_555 1_555
C16_8 C18_8 1_555 1_555
C17_8 H12_8 1_555 1_555
C18_8 C17_8 1_555 1_555
C19_8 C18_8 1_555 1_555
H13_8 C19_8 1_555 1_555
C20_8 C19_8 1_555 1_555
C21_8 C20_8 1_555 1_555
H14_8 C21_8 1_555 1_555
C22_8 C17_8 1_555 1_555
N1_8 C13_8 1_555 1_555
O8_7 C16_8 1_555 1_555
O10_5 C9_8 1_555 1_555
O11_5 C9_8 1_555 1_555
O14_8 C13_8 1_555 1_555
O15_8 C16_8 1_555 1_555
O16_8 S2_8 1_555 1_555
O17_8 S2_8 1_555 1_555
S2_8 C22_8 1_555 1_555
O18_8 S2_8 1_555 1_555
O21_7 Cu2_5 1_555 1_555
Cu7_5 O11_5 1_555 1_555
Cu11 O10_5 1_555 1_555
Cu11_5 O17_8 1_555 1_555
Cu12_2 O16_8 1_555 1_555
C14_8 N1_8 1_555 1_555
C15_8 N1_8 1_555 1_555
C21_8 C22_8 1_555 1_555
O14_8 Cu2_5 1_555 1_555
O15_8 Cu2_5 1_555 1_555
C2_8 H1_8 1_555 1_555
C3_8 C2_8 1_555 1_555
C4_8 C3_8 1_555 1_555
H2_8 C4_8 1_555 1_555
C5_8 C4_8 1_555 1_555
C8_8 C3_8 1_555 1_555
O4_8 S1_8 1_555 1_555
O5_7 S1_8 1_555 1_555
O25_3 C8_8 1_555 1_555
O26 C8_8 1_555 1_555
S1_8 C5_8 1_555 1_555
Cu13_6 O5_7 1_555 1_555
C6_8 C1_8 1_555 1_555
H3_8 C6_8 1_555 1_555
C7_8 C1_8 1_555 1_555
C10_8 H4_8 1_555 1_555
C11_8 N2_8 1_555 1_555
C12_8 N2_8 1_555 1_555
N2_8 C10_8 1_555 1_555
O1_8 C7_8 1_555 1_555
O2_8 C7_8 1_555 1_555
O6_8 Cu7 1_555 1_555
O7_5 Cu7 1_555 1_555
O9_8 C10_8 1_555 1_555
Cu7 O19_5 1_555 1_555
Cu10 O2_8 1_555 1_555
Cu4_5 O1_8 1_555 1_555
O20_5 Cu4_5 1_555 1_555
O22_5 Cu4_5 1_555 1_555
O27_8 Cu4_5 1_555 1_555
O28_8 Cu10 1_555 1_555
Cu5_5 O3_7 1_555 1_555
Cu9_3 O7_5 1_555 1_555
O6_8 Cu10 1_555 1_555
O6_8 Cu4_5 1_555 1_555
O7_5 Cu4_5 1_555 1_555
O9_8 Cu10 1_555 1_555
C11_8 H15_8 1_555 1_555
C11_8 H16_8 1_555 1_555
C11_8 H17_8 1_555 1_555
C12_8 H18_8 1_555 1_555
C12_8 H19_8 1_555 1_555
C12_8 H20_8 1_555 1_555
C9_9 C20_9 1_555 1_555
H13_9 C19_9 1_555 1_555
C20_9 C19_9 1_555 1_555
C21_9 C20_9 1_555 1_555
H14_9 C21_9 1_555 1_555
O10_6 C9_9 1_555 1_555
O11_6 C9_9 1_555 1_555
O27 S2_9 1_555 1_555
O28 S2_9 1_555 1_555
S2_9 C22_9 1_555 1_555
Cu5_2 O11_6 1_555 1_555
Cu11_5 O10_6 1_555 1_555
C21_9 C22_9 1_555 1_555
C1_9 C2_9 1_555 1_555
C2_9 H1_9 1_555 1_555
C3_9 C2_9 1_555 1_555
C4_9 C3_9 1_555 1_555
H2_9 C4_9 1_555 1_555
C5_9 C4_9 1_555 1_555
C6_9 C1_9 1_555 1_555
H3_9 C6_9 1_555 1_555
C7_9 C1_9 1_555 1_555
C8_9 C3_9 1_555 1_555
C10_9 H4_9 1_555 1_555
C11_9 N2_9 1_555 1_555
C12_9 N2_9 1_555 1_555
C13_9 H5_9 1_555 1_555
C14_9 H6_9 1_555 1_555
H7_9 C14_9 1_555 1_555
H8_9 C14_9 1_555 1_555
C15_9 H9_9 1_555 1_555
H10_9 C15_9 1_555 1_555
H11_9 C15_9 1_555 1_555
C16_9 C18_9 1_555 1_555
C17_9 H12_9 1_555 1_555
C18_9 C17_9 1_555 1_555
N1_9 C13_9 1_555 1_555
N2_9 C10_9 1_555 1_555
O1_9 C7_9 1_555 1_555
O2_9 C7_9 1_555 1_555
O3_8 S1_9 1_555 1_555
O4_9 S1_9 1_555 1_555
O5_8 S1_9 1_555 1_555
O6_9 Cu7_5 1_555 1_555
O8_8 C16_9 1_555 1_555
O9_9 C10_9 1_555 1_555
O12_5 C8_9 1_555 1_555
O26_5 C8_9 1_555 1_555
O14_9 C13_9 1_555 1_555
O15_9 C16_9 1_555 1_555
S1_9 C5_9 1_555 1_555
Cu7_5 O19_6 1_555 1_555
Cu2_6 O4_9 1_555 1_555
Cu11 O2_9 1_555 1_555
Cu13 O1_9 1_555 1_555
O20_6 Cu13 1_555 1_555
O21_8 Cu2_6 1_555 1_555
O26_6 Cu2_6 1_555 1_555
Cu7_2 O3_8 1_555 1_555
Cu13_3 O5_8 1_555 1_555
C5_9 C6_9 1_555 1_555
C14_9 N1_9 1_555 1_555
C15_9 N1_9 1_555 1_555
O6_9 Cu11 1_555 1_555
O6_9 Cu13 1_555 1_555
O8_8 Cu13_3 1_555 1_555
O9_9 Cu11 1_555 1_555
O14_9 Cu2_6 1_555 1_555
O15_9 Cu2_6 1_555 1_555
O21_8 Cu7_2 1_555 1_555
O21_8 Cu13_3 1_555 1_555
C11_9 H15_9 1_555 1_555
C11_9 H16_9 1_555 1_555
C11_9 H17_9 1_555 1_555
C12_9 H18_9 1_555 1_555
C12_9 H19_9 1_555 1_555
C12_9 H20_9 1_555 1_555
Cu8_4 O7_6 1_555 1_555
C9_10 C20_10 1_555 1_555
H13_10 C19_10 1_555 1_555
C20_10 C19_10 1_555 1_555
C21_10 C20_10 1_555 1_555
H14_10 C21_10 1_555 1_555
O23_3 C9_10 1_555 1_555
O24_3 C9_10 1_555 1_555
O27_2 S2_10 1_555 1_555
O28_2 S2_10 1_555 1_555
S2_10 C22_10 1_555 1_555
C21_10 C22_10 1_555 1_555
C1_10 C2_10 1_555 1_555
C2_10 H1_10 1_555 1_555
C3_10 C2_10 1_555 1_555
C4_10 C3_10 1_555 1_555
H2_10 C4_10 1_555 1_555
C5_10 C4_10 1_555 1_555
C6_10 C1_10 1_555 1_555
H3_10 C6_10 1_555 1_555
C7_10 C1_10 1_555 1_555
C8_10 C3_10 1_555 1_555
C10_10 H4_10 1_555 1_555
C11_10 N2_10 1_555 1_555
C12_10 N2_10 1_555 1_555
C13_10 H5_10 1_555 1_555
C14_10 H6_10 1_555 1_555
H7_10 C14_10 1_555 1_555
H8_10 C14_10 1_555 1_555
C15_10 H9_10 1_555 1_555
H10_10 C15_10 1_555 1_555
H11_10 C15_10 1_555 1_555
C16_10 C18_10 1_555 1_555
C17_10 H12_10 1_555 1_555
C18_10 C17_10 1_555 1_555
N1_10 C13_10 1_555 1_555
N2_10 C10_10 1_555 1_555
O1_10 C7_10 1_555 1_555
O2_10 C7_10 1_555 1_555
O19_5 S1_10 1_555 1_555
O4_10 S1_10 1_555 1_555
O20_5 S1_10 1_555 1_555
O6_10 Cu5_3 1_555 1_555
O22_5 C16_10 1_555 1_555
O9_10 C10_10 1_555 1_555
O12_6 C8_10 1_555 1_555
O13_8 C8_10 1_555 1_555
O14_10 C13_10 1_555 1_555
O15_10 C16_10 1_555 1_555
S1_10 C5_10 1_555 1_555
Cu9_3 O4_10 1_555 1_555
Cu11_2 O2_10 1_555 1_555
Cu13_2 O1_10 1_555 1_555
O23_8 Cu11_2 1_555 1_555
O24_8 Cu5_3 1_555 1_555
C5_10 C6_10 1_555 1_555
C14_10 N1_10 1_555 1_555
C15_10 N1_10 1_555 1_555
O6_10 Cu11_2 1_555 1_555
O6_10 Cu13_2 1_555 1_555
O9_10 Cu11_2 1_555 1_555
O14_10 Cu9_3 1_555 1_555
O15_10 Cu9_3 1_555 1_555
C11_10 H15_10 1_555 1_555
C11_10 H16_10 1_555 1_555
C11_10 H17_10 1_555 1_555
C12_10 H18_10 1_555 1_555
C12_10 H19_10 1_555 1_555
C12_10 H20_10 1_555 1_555
C2_11 H1_11 1_555 1_555
C3_11 C2_11 1_555 1_555
C4_11 C3_11 1_555 1_555
H2_11 C4_11 1_555 1_555
C5_11 C4_11 1_555 1_555
C8_11 C3_11 1_555 1_555
O4_11 S1_11 1_555 1_555
O5_9 S1_11 1_555 1_555
O12_7 C8_11 1_555 1_555
O26_2 C8_11 1_555 1_555
S1_11 C5_11 1_555 1_555
Cu5_2 O12_7 1_555 1_555
Cu13_5 O5_9 1_555 1_555
C6_11 C1_11 1_555 1_555
H3_11 C6_11 1_555 1_555
C7_11 C1_11 1_555 1_555
C10_11 H4_11 1_555 1_555
C11_11 N2_11 1_555 1_555
C12_11 N2_11 1_555 1_555
N2_11 C10_11 1_555 1_555
O1_11 C7_11 1_555 1_555
O2_11 C7_11 1_555 1_555
O6_11 Cu7_2 1_555 1_555
O9_11 C10_11 1_555 1_555
Cu10_2 O2_11 1_555 1_555
Cu13_3 O1_11 1_555 1_555
O25_7 Cu7_2 1_555 1_555
Cu7_3 O3_9 1_555 1_555
O6_11 Cu10_2 1_555 1_555
O6_11 Cu13_3 1_555 1_555
O9_11 Cu10_2 1_555 1_555
C11_11 H15_11 1_555 1_555
C11_11 H16_11 1_555 1_555
C11_11 H17_11 1_555 1_555
C12_11 H18_11 1_555 1_555
C12_11 H19_11 1_555 1_555
C12_11 H20_11 1_555 1_555
C9_11 C20_11 1_555 1_555
C13_11 H5_11 1_555 1_555
C14_11 H6_11 1_555 1_555
H7_11 C14_11 1_555 1_555
H8_11 C14_11 1_555 1_555
C15_11 H9_11 1_555 1_555
H10_11 C15_11 1_555 1_555
C16_11 C18_11 1_555 1_555
C17_11 H12_11 1_555 1_555
C18_11 C17_11 1_555 1_555
C19_11 C18_11 1_555 1_555
H13_11 C19_11 1_555 1_555
C20_11 C19_11 1_555 1_555
C21_11 C20_11 1_555 1_555
H14_11 C21_11 1_555 1_555
C22_11 C17_11 1_555 1_555
N1_11 C13_11 1_555 1_555
O8_9 C16_11 1_555 1_555
O23_8 C9_11 1_555 1_555
O24_8 C9_11 1_555 1_555
O14_11 C13_11 1_555 1_555
O15_11 C16_11 1_555 1_555
O27_3 S2_11 1_555 1_555
O28_3 S2_11 1_555 1_555
S2_11 C22_11 1_555 1_555
O18_11 S2_11 1_555 1_555
O21_9 Cu9_5 1_555 1_555
C14_11 N1_11 1_555 1_555
C15_11 N1_11 1_555 1_555
C21_11 C22_11 1_555 1_555
O14_11 Cu9_5 1_555 1_555
O15_11 Cu9_5 1_555 1_555
O25_8 Cu5_4 1_555 1_555
C2_12 H1_12 1_555 1_555
C3_12 C2_12 1_555 1_555
C4_12 C3_12 1_555 1_555
H2_12 C4_12 1_555 1_555
C5_12 C4_12 1_555 1_555
C8_12 C3_12 1_555 1_555
C9_12 C20_12 1_555 1_555
C13_12 H5_12 1_555 1_555
C14_12 H6_12 1_555 1_555
H7_12 C14_12 1_555 1_555
H8_12 C14_12 1_555 1_555
C15_12 H9_12 1_555 1_555
H10_12 C15_12 1_555 1_555
C16_12 C18_12 1_555 1_555
C17_12 H12_12 1_555 1_555
C18_12 C17_12 1_555 1_555
C19_12 C18_12 1_555 1_555
H13_12 C19_12 1_555 1_555
C20_12 C19_12 1_555 1_555
C21_12 C20_12 1_555 1_555
H14_12 C21_12 1_555 1_555
C22_12 C17_12 1_555 1_555
N1_12 C13_12 1_555 1_555
O4_12 S1_12 1_555 1_555
O20_2 S1_12 1_555 1_555
O22_2 C16_12 1_555 1_555
O23_5 C9_12 1_555 1_555
O24_5 C9_12 1_555 1_555
O12_8 C8_12 1_555 1_555
O13_9 C8_12 1_555 1_555
O14_12 C13_12 1_555 1_555
O15_12 C16_12 1_555 1_555
O27_4 S2_12 1_555 1_555
O28_4 S2_12 1_555 1_555
S1_12 C5_12 1_555 1_555
S2_12 C22_12 1_555 1_555
Cu8_2 O4_12 1_555 1_555
O18_12 S2_12 1_555 1_555
Cu7_4 O12_8 1_555 1_555
Cu9_6 O13_9 1_555 1_555
C14_12 N1_12 1_555 1_555
C15_12 N1_12 1_555 1_555
C21_12 C22_12 1_555 1_555
O14_12 Cu8_2 1_555 1_555
O15_12 Cu8_2 1_555 1_555
C6_12 C1_12 1_555 1_555
H3_12 C6_12 1_555 1_555
C7_12 C1_12 1_555 1_555
C10_12 H4_12 1_555 1_555
C11_12 N2_12 1_555 1_555
C12_12 N2_12 1_555 1_555
N2_12 C10_12 1_555 1_555
O1_12 C7_12 1_555 1_555
O2_12 C7_12 1_555 1_555
O9_12 C10_12 1_555 1_555
Cu11_3 O2_12 1_555 1_555
O23_9 Cu11_3 1_555 1_555
O6_12 Cu11_3 1_555 1_555
O9_12 Cu11_3 1_555 1_555
C11_12 H15_12 1_555 1_555
C11_12 H16_12 1_555 1_555
C11_12 H17_12 1_555 1_555
C12_12 H18_12 1_555 1_555
C12_12 H19_12 1_555 1_555
C12_12 H20_12 1_555 1_555
C1_13 C2_13 1_555 1_555
C2_13 H1_13 1_555 1_555
C3_13 C2_13 1_555 1_555
C4_13 C3_13 1_555 1_555
H2_13 C4_13 1_555 1_555
C5_13 C4_13 1_555 1_555
C6_13 C1_13 1_555 1_555
H3_13 C6_13 1_555 1_555
C7_13 C1_13 1_555 1_555
C8_13 C3_13 1_555 1_555
C9_13 C20_13 1_555 1_555
C13_13 H5_13 1_555 1_555
C14_13 H6_13 1_555 1_555
H7_13 C14_13 1_555 1_555
H8_13 C14_13 1_555 1_555
C15_13 H9_13 1_555 1_555
H10_13 C15_13 1_555 1_555
H11_13 C15_13 1_555 1_555
C16_13 C18_13 1_555 1_555
C17_13 H12_13 1_555 1_555
C18_13 C17_13 1_555 1_555
C19_13 C18_13 1_555 1_555
H13_13 C19_13 1_555 1_555
C20_13 C19_13 1_555 1_555
C21_13 C20_13 1_555 1_555
H14_13 C21_13 1_555 1_555
C22_13 C17_13 1_555 1_555
N1_13 C13_13 1_555 1_555
O1_13 C7_13 1_555 1_555
O2_13 C7_13 1_555 1_555
O3_10 S1_13 1_555 1_555
O4_13 S1_13 1_555 1_555
O5_10 S1_13 1_555 1_555
O8_10 C16_13 1_555 1_555
O23_9 C9_13 1_555 1_555
O24_9 C9_13 1_555 1_555
O25_6 C8_13 1_555 1_555
O26_3 C8_13 1_555 1_555
O14_13 C13_13 1_555 1_555
O15_13 C16_13 1_555 1_555
O27_5 S2_13 1_555 1_555
O28_5 S2_13 1_555 1_555
S1_13 C5_13 1_555 1_555
S2_13 C22_13 1_555 1_555
Cu9_6 O4_13 1_555 1_555
Cu10_3 O2_13 1_555 1_555
Cu13_5 O1_13 1_555 1_555
O18_13 S2_13 1_555 1_555
O21_10 Cu9_6 1_555 1_555
Cu7_4 O3_10 1_555 1_555
Cu13_7 O5_10 1_555 1_555
C5_13 C6_13 1_555 1_555
C14_13 N1_13 1_555 1_555
C15_13 N1_13 1_555 1_555
C21_13 C22_13 1_555 1_555
O6_13 Cu10_3 1_555 1_555
O6_13 Cu13_5 1_555 1_555
O8_10 Cu13_7 1_555 1_555
O9_13 Cu10_3 1_555 1_555
O14_13 Cu9_6 1_555 1_555
O15_13 Cu9_6 1_555 1_555
O21_10 Cu7_4 1_555 1_555
O21_10 Cu13_7 1_555 1_555
C10_13 H4_13 1_555 1_555
C11_13 N2_13 1_555 1_555
C12_13 N2_13 1_555 1_555
N2_13 C10_13 1_555 1_555
C11_13 H15_13 1_555 1_555
C11_13 H16_13 1_555 1_555
C12_13 H18_13 1_555 1_555
C12_13 H19_13 1_555 1_555
C12_13 H20_13 1_555 1_555
C1_14 C2_14 1_555 1_555
C2_14 H1_14 1_555 1_555
C3_14 C2_14 1_555 1_555
C4_14 C3_14 1_555 1_555
H2_14 C4_14 1_555 1_555
C5_14 C4_14 1_555 1_555
C6_14 C1_14 1_555 1_555
H3_14 C6_14 1_555 1_555
C7_14 C1_14 1_555 1_555
C8_14 C3_14 1_555 1_555
C9_14 C20_14 1_555 1_555
C13_14 H5_14 1_555 1_555
C14_14 H6_14 1_555 1_555
H7_14 C14_14 1_555 1_555
H8_14 C14_14 1_555 1_555
C15_14 H9_14 1_555 1_555
H10_14 C15_14 1_555 1_555
H11_14 C15_14 1_555 1_555
C16_14 C18_14 1_555 1_555
C17_14 H12_14 1_555 1_555
C18_14 C17_14 1_555 1_555
C19_14 C18_14 1_555 1_555
H13_14 C19_14 1_555 1_555
C20_14 C19_14 1_555 1_555
C21_14 C20_14 1_555 1_555
H14_14 C21_14 1_555 1_555
C22_14 C17_14 1_555 1_555
N1_14 C13_14 1_555 1_555
O1_14 C7_14 1_555 1_555
O2_14 C7_14 1_555 1_555
O19_3 S1_14 1_555 1_555
O4_14 S1_14 1_555 1_555
O20_3 S1_14 1_555 1_555
O22_3 C16_14 1_555 1_555
O23_7 C9_14 1_555 1_555
O24_7 C9_14 1_555 1_555
O25_5 C8_14 1_555 1_555
O13_10 C8_14 1_555 1_555
O14_14 C13_14 1_555 1_555
O15_14 C16_14 1_555 1_555
O27_6 S2_14 1_555 1_555
O28_6 S2_14 1_555 1_555
S1_14 C5_14 1_555 1_555
S2_14 C22_14 1_555 1_555
Cu8_3 O4_14 1_555 1_555
Cu11_4 O2_14 1_555 1_555
Cu13_6 O1_14 1_555 1_555
O18_14 S2_14 1_555 1_555
Cu8_4 O13_10 1_555 1_555
C5_14 C6_14 1_555 1_555
C14_14 N1_14 1_555 1_555
C15_14 N1_14 1_555 1_555
C21_14 C22_14 1_555 1_555
O6_14 Cu11_4 1_555 1_555
O6_14 Cu13_6 1_555 1_555
O9_14 Cu11_4 1_555 1_555
O14_14 Cu8_3 1_555 1_555
O15_14 Cu8_3 1_555 1_555
C10_14 H4_14 1_555 1_555
C11_14 N2_14 1_555 1_555
C12_14 N2_14 1_555 1_555
N2_14 C10_14 1_555 1_555
O24_10 Cu5_5 1_555 1_555
C11_14 H15_14 1_555 1_555
C11_14 H16_14 1_555 1_555
C12_14 H18_14 1_555 1_555
C12_14 H19_14 1_555 1_555
C12_14 H20_14 1_555 1_555
C1_15 C2_15 1_555 1_555
C2_15 H1_15 1_555 1_555
C3_15 C2_15 1_555 1_555
C4_15 C3_15 1_555 1_555
H2_15 C4_15 1_555 1_555
C5_15 C4_15 1_555 1_555
C6_15 C1_15 1_555 1_555
H3_15 C6_15 1_555 1_555
C7_15 C1_15 1_555 1_555
C8_15 C3_15 1_555 1_555
C10_15 H4_15 1_555 1_555
C11_15 N2_15 1_555 1_555
C12_15 N2_15 1_555 1_555
N2_15 C10_15 1_555 1_555
O1_15 C7_15 1_555 1_555
O2_15 C7_15 1_555 1_555
O19_6 S1_15 1_555 1_555
O4_15 S1_15 1_555 1_555
O20_6 S1_15 1_555 1_555
O9_15 C10_15 1_555 1_555
O25_8 C8_15 1_555 1_555
O26_4 C8_15 1_555 1_555
S1_15 C5_15 1_555 1_555
Cu10_4 O2_15 1_555 1_555
C5_15 C6_15 1_555 1_555
O6_15 Cu10_4 1_555 1_555
O9_15 Cu10_4 1_555 1_555
C11_15 H15_15 1_555 1_555
C11_15 H16_15 1_555 1_555
C11_15 H17_15 1_555 1_555
C12_15 H18_15 1_555 1_555
C12_15 H19_15 1_555 1_555
C12_15 H20_15 1_555 1_555
C9_15 C20_15 1_555 1_555
C13_15 H5_15 1_555 1_555
C14_15 H6_15 1_555 1_555
H7_15 C14_15 1_555 1_555
H8_15 C14_15 1_555 1_555
C15_15 H9_15 1_555 1_555
H10_15 C15_15 1_555 1_555
H11_15 C15_15 1_555 1_555
C16_15 C18_15 1_555 1_555
C17_15 H12_15 1_555 1_555
C18_15 C17_15 1_555 1_555
C19_15 C18_15 1_555 1_555
H13_15 C19_15 1_555 1_555
C20_15 C19_15 1_555 1_555
C21_15 C20_15 1_555 1_555
H14_15 C21_15 1_555 1_555
C22_15 C17_15 1_555 1_555
N1_15 C13_15 1_555 1_555
O22_6 C16_15 1_555 1_555
O23_10 C9_15 1_555 1_555
O24_10 C9_15 1_555 1_555
O14_15 C13_15 1_555 1_555
O15_15 C16_15 1_555 1_555
O27_7 S2_15 1_555 1_555
O28_7 S2_15 1_555 1_555
S2_15 C22_15 1_555 1_555
O18_15 S2_15 1_555 1_555
C14_15 N1_15 1_555 1_555
C15_15 N1_15 1_555 1_555
C21_15 C22_15 1_555 1_555
O14_15 Cu8_4 1_555 1_555
O15_15 Cu8_4 1_555 1_555
C1_16 C2_16 1_555 1_555
C2_16 H1_16 1_555 1_555
C3_16 C2_16 1_555 1_555
C4_16 C3_16 1_555 1_555
H2_16 C4_16 1_555 1_555
C5_16 C4_16 1_555 1_555
C6_16 C1_16 1_555 1_555
H3_16 C6_16 1_555 1_555
C7_16 C1_16 1_555 1_555
C8_16 C3_16 1_555 1_555
C9_16 C20_16 1_555 1_555
C10_16 H4_16 1_555 1_555
C11_16 N2_16 1_555 1_555
C12_16 N2_16 1_555 1_555
C13_16 H5_16 1_555 1_555
C14_16 H6_16 1_555 1_555
H7_16 C14_16 1_555 1_555
H8_16 C14_16 1_555 1_555
C15_16 H9_16 1_555 1_555
H10_16 C15_16 1_555 1_555
H11_16 C15_16 1_555 1_555
C16_16 C18_16 1_555 1_555
C17_16 H12_16 1_555 1_555
C18_16 C17_16 1_555 1_555
C19_16 C18_16 1_555 1_555
H13_16 C19_16 1_555 1_555
C20_16 C19_16 1_555 1_555
C21_16 C20_16 1_555 1_555
H14_16 C21_16 1_555 1_555
C22_16 C17_16 1_555 1_555
N1_16 C13_16 1_555 1_555
N2_16 C10_16 1_555 1_555
O1_16 C7_16 1_555 1_555
O2_16 C7_16 1_555 1_555
O19_4 S1_16 1_555 1_555
O4_16 S1_16 1_555 1_555
O20_4 S1_16 1_555 1_555
O6_16 Cu5_2 1_555 1_555
O22_4 C16_16 1_555 1_555
O9_16 C10_16 1_555 1_555
O23 C9_16 1_555 1_555
O24 C9_16 1_555 1_555
O25_7 C8_16 1_555 1_555
O26_6 C8_16 1_555 1_555
O14_16 C13_16 1_555 1_555
O15_16 C16_16 1_555 1_555
O27_8 S2_16 1_555 1_555
O28_8 S2_16 1_555 1_555
S1_16 C5_16 1_555 1_555
S2_16 C22_16 1_555 1_555
Cu9 O4_16 1_555 1_555
Cu11_5 O2_16 1_555 1_555
Cu12_2 O1_16 1_555 1_555
O18_16 S2_16 1_555 1_555
C5_16 C6_16 1_555 1_555
C14_16 N1_16 1_555 1_555
C15_16 N1_16 1_555 1_555
C21_16 C22_16 1_555 1_555
O6_16 Cu11_5 1_555 1_555
O6_16 Cu12_2 1_555 1_555
O9_16 Cu11_5 1_555 1_555
O14_16 Cu9 1_555 1_555
O15_16 Cu9 1_555 1_555
C11_16 H15_16 1_555 1_555
C11_16 H16_16 1_555 1_555
C11_16 H17_16 1_555 1_555
C12_16 H18_16 1_555 1_555
C12_16 H19_16 1_555 1_555
C12_16 H20_16 1_555 1_555

#END
