
###############################################################################
#
# This file contains modified crystal structure data generated from the
# MOF subset of the Cambridge Structural Database (CSD) v543 
# hosted by the Cambridge Crystallographic Data Centre (CCDC).
#
# This work is licensed under the Creative Commons
# Attribution-NonCommercial-ShareAlike 4.0 International License.
# To view a copy of this license, visit
# http://creativecommons.org/licenses/by-nc-sa/4.0/
# or send a letter to
# Creative Commons, PO Box 1866, Mountain View, CA 94042, USA.
#
# CIF created using the CSD Python API on 29 September 2022
# The structure has been converted into the P1 space group
# The structure has a 3D framework
# The original CSD entry KUKPOX is in the monoclinic crystal system
# The framework has been calculated to contain at least 10.0% void space
# The void calculation uses a probe of radius 1.32A, grid spacing 0.4
# The framework is charged, counterions have been retained in the structure
#
###############################################################################

data_KUKPOX
_chemical_formula_moiety         '(C72 H48 Cl12 Cu14 N24 O22)n'
_symmetry_cell_setting           triclinic
_symmetry_space_group_name_H-M   'P 1'
_symmetry_Int_Tables_number      1
_space_group_name_Hall           'P 1'
loop_
_symmetry_equiv_pos_site_id
_symmetry_equiv_pos_as_xyz
1 x,y,z
_cell_length_a                   13.3069(10)
_cell_length_b                   25.629(2)
_cell_length_c                   9.8560(8)
_cell_angle_alpha                90
_cell_angle_beta                 91.455(8)
_cell_angle_gamma                90
_cell_volume                     3360.23
loop_
_atom_site_label
_atom_site_type_symbol
_atom_site_fract_x
_atom_site_fract_y
_atom_site_fract_z
Cl1 Cl 0.31124(12) 0.84342(6) 0.43356(16)
Cl1_2 Cl 0.31124(12) 0.15658(6) 0.93356(16)
Cl1_3 Cl 0.81124(12) 0.34342(6) 0.43356(16)
Cl1_4 Cl 0.81124(12) 0.65658(6) 0.93356(16)
N2 N 0.1426(3) 0.57175(16) 0.1580(4)
N3 N 0.1494(3) 0.51823(14) 0.1593(4)
C5 C 0.0652(4) 0.4990(2) 0.1966(5)
H3 H 0.0509 0.4629 0.2074
C18 C 0.0515(4) 0.5833(2) 0.1917(5)
H12 H 0.0251 0.6176 0.1969
Cu5 Cu 0.28158(4) 0.48549(2) 0.11777(5)
Cu13 Cu 0.26672(4) 0.61054(2) 0.10964(5)
Cu7 Cu 0.45975(4) 0.54032(2) 0.05024(6)
Cu1 Cu 0.28158(4) 0.51451(2) 0.61777(5)
Cu2 Cu 0.45975(4) 0.45968(2) 0.55024(6)
Cu3 Cu 0.38741(4) 0.54877(2) 0.35097(5)
Cl3 Cl 0.30079(10) 0.54860(4) 0.86157(12)
O1 O 0.2984(3) 0.60839(12) 0.3860(3)
N1 N 0.0147(3) 0.80025(15) 0.5239(4)
O2 O 0.3470(3) 0.44926(11) 0.6645(3)
O3 O 0.4127(2) 0.53335(12) 0.5417(3)
O4 O 0.5814(3) 0.47359(14) 0.4574(3)
C1 C 0.1754(4) 0.66059(18) 0.4889(5)
O5 O 0.2088(3) 0.57561(13) 0.5557(3)
N4 N 0.9999(3) 0.53904(15) 0.2181(4)
C2 C 0.7008(4) 0.51602(19) 0.3220(5)
O6 O 0.5254(3) 0.52945(14) 0.2960(3)
C3 C 0.1906(4) 0.70248(19) 0.3948(5)
H1 H 0.2371 0.6990 0.3238
C4 C 0.8219(4) 0.5663(2) 0.2073(5)
H2 H 0.8377 0.5949 0.1506
C6 C 0.1367(4) 0.74773(18) 0.4095(5)
H4 H 0.1458 0.7758 0.3481
C7 C 0.1061(4) 0.6669(2) 0.5882(5)
H5 H 0.0943 0.6389 0.6491
C8 C 0.8745(4) 0.4922(2) 0.3462(6)
H6 H 0.9262 0.4711 0.3854
C9 C 0.7257(4) 0.5562(2) 0.2410(6)
H7 H 0.6739 0.5783 0.2063
C10 C 0.8973(4) 0.53318(19) 0.2585(5)
C11 C 0.0509(4) 0.85026(18) 0.5139(5)
H8 H 0.1172 0.8597 0.4900
C12 C 0.7768(4) 0.4833(2) 0.3737(6)
H9 H 0.7595 0.4544 0.4289
C13 C 0.0540(4) 0.7119(2) 0.6017(6)
H10 H 0.0069 0.7159 0.6718
C15 C 0.2314(4) 0.61062(18) 0.4739(4)
C16 C 0.5927(4) 0.50499(19) 0.3609(5)
C17 C 0.0714(4) 0.75263(18) 0.5096(5)
Cu9 Cu 0.38741(4) 0.45123(2) 0.85097(5)
Cu10 Cu 0.26672(4) 0.38946(2) 0.60964(5)
Cl4 Cl 0.30079(10) 0.45140(4) 0.36157(12)
O8 O 0.3470(3) 0.55074(11) 0.1645(3)
N8 N 0.1494(3) 0.48177(14) 0.6593(4)
O10 O 0.5254(3) 0.47055(14) 0.7960(3)
N9 N 0.4794(3) 0.38240(15) 0.5425(4)
Cu4 Cu 0.76672(4) 0.88946(2) 0.60964(5)
Cl2 Cl 0.67617(10) 0.81998(5) 0.54022(13)
N5 N 0.9794(3) 0.88240(15) 0.5425(4)
N6 N 0.8953(3) 0.85350(15) 0.5716(4)
C14 C 0.9192(4) 0.80565(18) 0.5587(5)
H11 H 0.8744 0.7773 0.5723
Cu8 Cu 0.95975(4) 0.95968(2) 0.55024(6)
Cl5 Cl 0.80079(10) 0.95140(4) 0.36157(12)
O7 O 0.7984(3) 0.89161(12) 0.8860(3)
O9 O 0.8470(3) 0.94926(11) 0.6645(3)
N7 N 0.6426(3) 0.92825(16) 0.6580(4)
N2_2 N 0.1426(3) 0.42825(16) 0.6580(4)
C5_2 C 0.0652(4) 0.5010(2) 0.6966(5)
H3_2 H 0.0509 0.5371 0.7074
C18_2 C 0.0515(4) 0.4167(2) 0.6917(5)
H12_2 H 0.0251 0.3824 0.6969
N1_2 N 0.0147(3) 0.19975(15) 0.0239(4)
O3_2 O 0.4127(2) 0.46665(12) 0.0417(3)
O5_2 O 0.2088(3) 0.42439(13) 0.0557(3)
C7_2 C 0.1061(4) 0.3331(2) 0.0882(5)
H5_2 H 0.0943 0.3611 0.1491
C11_2 C 0.0509(4) 0.14974(18) 0.0139(5)
C13_2 C 0.0540(4) 0.2881(2) 0.1017(6)
H10_2 H 0.0069 0.2841 0.1718
C17_2 C 0.0714(4) 0.24737(18) 0.0096(5)
N9_2 N 0.4794(3) 0.61760(15) 0.0425(4)
O1_2 O 0.2984(3) 0.39161(12) 0.8860(3)
O4_2 O 0.5814(3) 0.52641(14) 0.9574(3)
C1_2 C 0.1754(4) 0.33941(18) 0.9889(5)
N4_2 N 0.9999(3) 0.46096(15) 0.7181(4)
C2_2 C 0.7008(4) 0.48398(19) 0.8220(5)
C3_2 C 0.1906(4) 0.29752(19) 0.8948(5)
H1_2 H 0.2371 0.3010 0.8238
C4_2 C 0.8219(4) 0.4337(2) 0.7073(5)
H2_2 H 0.8377 0.4051 0.6506
C6_2 C 0.1367(4) 0.25227(18) 0.9095(5)
H4_2 H 0.1458 0.2242 0.8481
C8_2 C 0.8745(4) 0.5078(2) 0.8462(6)
H6_2 H 0.9262 0.5289 0.8854
C9_2 C 0.7257(4) 0.4438(2) 0.7410(6)
H7_2 H 0.6739 0.4217 0.7063
C10_2 C 0.8973(4) 0.46682(19) 0.7585(5)
H8_2 H 0.1172 0.1403 0.9900
C12_2 C 0.7768(4) 0.5167(2) 0.8737(6)
H9_2 H 0.7595 0.5456 0.9289
C15_2 C 0.2314(4) 0.38938(18) 0.9739(4)
C16_2 C 0.5927(4) 0.49501(19) 0.8609(5)
Cu4_2 Cu 0.76672(4) 0.11054(2) 0.10964(5)
Cl2_2 Cl 0.67617(10) 0.18002(5) 0.04022(13)
N5_2 N 0.9794(3) 0.11760(15) 0.0425(4)
N6_2 N 0.8953(3) 0.14650(15) 0.0716(4)
C14_2 C 0.9192(4) 0.19435(18) 0.0587(5)
H11_2 H 0.8744 0.2227 0.0723
Cu8_2 Cu 0.95975(4) 0.04032(2) 0.05024(6)
O7_2 O 0.7984(3) 0.10839(12) 0.3860(3)
O9_2 O 0.8470(3) 0.05074(11) 0.1645(3)
N7_2 N 0.6426(3) 0.07175(16) 0.1580(4)
Cl5_2 Cl 0.80079(10) 0.04860(4) 0.86157(12)
N3_2 N 0.6494(3) 0.01823(14) 0.1593(4)
N4_3 N 0.4999(3) 0.03904(15) 0.2181(4)
C2_3 C 0.2008(4) 0.01602(19) 0.3220(5)
O6_2 O 0.0254(3) 0.02945(14) 0.2960(3)
C4_3 C 0.3219(4) 0.0663(2) 0.2073(5)
H2_3 H 0.3377 0.0949 0.1506
C9_3 C 0.2257(4) 0.0562(2) 0.2410(6)
H7_3 H 0.1739 0.0783 0.2063
C10_3 C 0.3973(4) 0.03318(19) 0.2585(5)
C16_3 C 0.0927(4) 0.00499(19) 0.3609(5)
C18_3 C 0.5515(4) 0.0833(2) 0.1917(5)
H12_3 H 0.5251 0.1176 0.1969
O4_3 O 0.0814(3) 0.97359(14) 0.4574(3)
C5_3 C 0.5652(4) 0.9990(2) 0.1966(5)
H3_3 H 0.5509 0.9629 0.2074
C8_3 C 0.3745(4) 0.9922(2) 0.3462(6)
H6_3 H 0.4262 0.9711 0.3854
C12_3 C 0.2768(4) 0.9833(2) 0.3737(6)
H9_3 H 0.2595 0.9544 0.4289
Cu5_2 Cu 0.78158(4) 0.98549(2) 0.11777(5)
O10_2 O 0.0254(3) 0.97055(14) 0.7960(3)
Cu1_2 Cu 0.78158(4) 0.01451(2) 0.61777(5)
Cu3_2 Cu 0.88741(4) 0.04877(2) 0.35097(5)
Cl2_3 Cl 0.17617(10) 0.31998(5) 0.54022(13)
N1_3 N 0.5147(3) 0.30025(15) 0.5239(4)
O3_3 O 0.9127(2) 0.03335(12) 0.5417(3)
C1_3 C 0.6754(4) 0.16059(18) 0.4889(5)
O5_3 O 0.7088(3) 0.07561(13) 0.5557(3)
C3_3 C 0.6906(4) 0.20248(19) 0.3948(5)
H1_3 H 0.7371 0.1990 0.3238
C6_3 C 0.6367(4) 0.24773(18) 0.4095(5)
H4_3 H 0.6458 0.2758 0.3481
C7_3 C 0.6061(4) 0.1669(2) 0.5882(5)
H5_3 H 0.5943 0.1389 0.6491
N6_3 N 0.3953(3) 0.35350(15) 0.5716(4)
C11_3 C 0.5509(4) 0.35026(18) 0.5139(5)
H8_3 H 0.6172 0.3597 0.4900
C13_3 C 0.5540(4) 0.2119(2) 0.6017(6)
H10_3 H 0.5069 0.2159 0.6718
C14_3 C 0.4192(4) 0.30565(18) 0.5587(5)
H11_3 H 0.3744 0.2773 0.5723
C15_3 C 0.7314(4) 0.11062(18) 0.4739(4)
C17_3 C 0.5714(4) 0.25263(18) 0.5096(5)
Cu9_2 Cu 0.88741(4) 0.95123(2) 0.85097(5)
N8_2 N 0.6494(3) 0.98177(14) 0.6593(4)
O4_4 O 0.0814(3) 0.02641(14) 0.9574(3)
C5_4 C 0.5652(4) 0.0010(2) 0.6966(5)
H3_4 H 0.5509 0.0371 0.7074
C8_4 C 0.3745(4) 0.0078(2) 0.8462(6)
H6_4 H 0.4262 0.0289 0.8854
C12_4 C 0.2768(4) 0.0167(2) 0.8737(6)
H9_4 H 0.2595 0.0456 0.9289
N4_4 N 0.4999(3) 0.96096(15) 0.7181(4)
C2_4 C 0.2008(4) 0.98398(19) 0.8220(5)
C4_4 C 0.3219(4) 0.9337(2) 0.7073(5)
H2_4 H 0.3377 0.9051 0.6506
C9_4 C 0.2257(4) 0.9438(2) 0.7410(6)
H7_4 H 0.1739 0.9217 0.7063
C10_4 C 0.3973(4) 0.96682(19) 0.7585(5)
C16_4 C 0.0927(4) 0.99501(19) 0.8609(5)
C18_4 C 0.5515(4) 0.9167(2) 0.6917(5)
H12_4 H 0.5251 0.8824 0.6969
Cl2_4 Cl 0.17617(10) 0.68002(5) 0.04022(13)
N1_4 N 0.5147(3) 0.69975(15) 0.0239(4)
O3_4 O 0.9127(2) 0.96665(12) 0.0417(3)
O5_4 O 0.7088(3) 0.92439(13) 0.0557(3)
C7_4 C 0.6061(4) 0.8331(2) 0.0882(5)
H5_4 H 0.5943 0.8611 0.1491
N6_4 N 0.3953(3) 0.64650(15) 0.0716(4)
C11_4 C 0.5509(4) 0.64974(18) 0.0139(5)
C13_4 C 0.5540(4) 0.7881(2) 0.1017(6)
H10_4 H 0.5069 0.7841 0.1718
C14_4 C 0.4192(4) 0.69435(18) 0.0587(5)
H11_4 H 0.3744 0.7227 0.0723
C17_4 C 0.5714(4) 0.74737(18) 0.0096(5)
C1_4 C 0.6754(4) 0.83941(18) 0.9889(5)
C3_4 C 0.6906(4) 0.79752(19) 0.8948(5)
H1_4 H 0.7371 0.8010 0.8238
C6_4 C 0.6367(4) 0.75227(18) 0.9095(5)
H4_4 H 0.6458 0.7242 0.8481
H8_4 H 0.6172 0.6403 0.9900
C15_4 C 0.7314(4) 0.88938(18) 0.9739(4)
loop_
_geom_bond_atom_site_label_1
_geom_bond_atom_site_label_2
_geom_bond_site_symmetry_1
_geom_bond_site_symmetry_2
N2 N3 1_555 1_555
N3 C5 1_555 1_555
C5 H3 1_555 1_555
C18 N2 1_555 1_555
H12 C18 1_555 1_555
Cu5 N3 1_555 1_555
Cu13 N2 1_555 1_555
Cu1 Cu2 1_555 1_555
Cu2 O2 1_555 1_555
Cu3 O1 1_555 1_555
Cl3 Cu1 1_555 1_555
O1 C15 1_555 1_555
N1 C11 1_555 1_555
O2 Cu1 1_555 1_555
O3 Cu1 1_555 1_555
O4 Cu2 1_555 1_555
C1 C3 1_555 1_555
O5 Cu1 1_555 1_555
C2 C9 1_555 1_555
O6 Cu3 1_555 1_555
C3 H1 1_555 1_555
C4 H2 1_555 1_555
C6 C3 1_555 1_555
H4 C6 1_555 1_555
C7 C1 1_555 1_555
H5 C7 1_555 1_555
C8 H6 1_555 1_555
C9 C4 1_555 1_555
H7 C9 1_555 1_555
C10 N4 1_555 1_555
H8 C11 1_555 1_555
C12 C2 1_555 1_555
H9 C12 1_555 1_555
C13 C7 1_555 1_555
H10 C13 1_555 1_555
C15 C1 1_555 1_555
C16 O4 1_555 1_555
C17 N1 1_555 1_555
Cu7 O6 1_555 1_555
Cu9 Cl3 1_555 1_555
Cu10 O2 1_555 1_555
Cu13 O1 1_555 1_555
Cl4 Cu2 1_555 1_555
O8 Cu3 1_555 1_555
N8 Cu1 1_555 1_555
O10 Cu2 1_555 1_555
N9 Cu2 1_555 1_555
Cu2 O3 1_555 1_555
Cu3 O3 1_555 1_555
Cu3 Cl4 1_555 1_555
O2 Cu9 1_555 1_555
O5 C15 1_555 1_555
C2 C16 1_555 1_555
O6 C16 1_555 1_555
C4 C10 1_555 1_555
C6 C17 1_555 1_555
C8 C10 1_555 1_555
C8 C12 1_555 1_555
C13 C17 1_555 1_555
Cu7 O8 1_555 1_555
Cu9 O10 1_555 1_555
Cu10 Cl4 1_555 1_555
Cu13 O8 1_555 1_555
Cu4 Cl2 1_555 1_555
N5 N6 1_555 1_555
N6 Cu4 1_555 1_555
H11 C14 1_555 1_555
Cu8 N5 1_555 1_555
Cl5 Cu4 1_555 1_555
O7 Cu4 1_555 1_555
O9 Cu4 1_555 1_555
N7 Cu4 1_555 1_555
N6 C14 1_555 1_555
Cu8 Cl5 1_555 1_555
Cu8 O9 1_555 1_555
N2_2 N8 1_555 1_555
N8 C5_2 1_555 1_555
C5_2 H3_2 1_555 1_555
C18_2 N2_2 1_555 1_555
H12_2 C18_2 1_555 1_555
Cu10 N2_2 1_555 1_555
Cu5 Cu7 1_555 1_555
Cl4 Cu5 1_555 1_555
N1_2 C11_2 1_555 1_555
O8 Cu5 1_555 1_555
O3_2 Cu5 1_555 1_555
O5_2 Cu5 1_555 1_555
H5_2 C7_2 1_555 1_555
C13_2 C7_2 1_555 1_555
H10_2 C13_2 1_555 1_555
C17_2 N1_2 1_555 1_555
N9_2 Cu7 1_555 1_555
Cu7 O3_2 1_555 1_555
C13_2 C17_2 1_555 1_555
Cu9 O1_2 1_555 1_555
O1_2 C15_2 1_555 1_555
C1_2 C3_2 1_555 1_555
C2_2 C9_2 1_555 1_555
C3_2 H1_2 1_555 1_555
C4_2 H2_2 1_555 1_555
C6_2 C3_2 1_555 1_555
H4_2 C6_2 1_555 1_555
C8_2 H6_2 1_555 1_555
C9_2 C4_2 1_555 1_555
H7_2 C9_2 1_555 1_555
C10_2 N4_2 1_555 1_555
C12_2 C2_2 1_555 1_555
H9_2 C12_2 1_555 1_555
C15_2 C1_2 1_555 1_555
C16_2 O4_2 1_555 1_555
Cu10 O1_2 1_555 1_555
C2_2 C16_2 1_555 1_555
O10 C16_2 1_555 1_555
C4_2 C10_2 1_555 1_555
C8_2 C10_2 1_555 1_555
C8_2 C12_2 1_555 1_555
Cu4_2 Cl2_2 1_555 1_555
N5_2 N6_2 1_555 1_555
N6_2 Cu4_2 1_555 1_555
H11_2 C14_2 1_555 1_555
Cu8_2 N5_2 1_555 1_555
O7_2 Cu4_2 1_555 1_555
O9_2 Cu4_2 1_555 1_555
N7_2 Cu4_2 1_555 1_555
N6_2 C14_2 1_555 1_555
Cu8_2 O9_2 1_555 1_555
N7_2 N3_2 1_555 1_555
C2_3 C9_3 1_555 1_555
C4_3 H2_3 1_555 1_555
C9_3 C4_3 1_555 1_555
H7_3 C9_3 1_555 1_555
C10_3 N4_3 1_555 1_555
C18_3 N7_2 1_555 1_555
H12_3 C18_3 1_555 1_555
N4_3 C18_3 1_555 1_555
C2_3 C16_3 1_555 1_555
O6_2 C16_3 1_555 1_555
C4_3 C10_3 1_555 1_555
C5_3 H3_3 1_555 1_555
C8_3 H6_3 1_555 1_555
H9_3 C12_3 1_555 1_555
C8_3 C12_3 1_555 1_555
Cu3_2 O7_2 1_555 1_555
Cu10 Cl2_3 1_555 1_555
Cl5_2 Cu1_2 1_555 1_555
O7_2 C15_3 1_555 1_555
N1_3 C11_3 1_555 1_555
O3_3 Cu1_2 1_555 1_555
C1_3 C3_3 1_555 1_555
O5_3 Cu1_2 1_555 1_555
N9 N6_3 1_555 1_555
C3_3 H1_3 1_555 1_555
C6_3 C3_3 1_555 1_555
H4_3 C6_3 1_555 1_555
C7_3 C1_3 1_555 1_555
H5_3 C7_3 1_555 1_555
N6_3 Cu10 1_555 1_555
C11_3 N9 1_555 1_555
H8_3 C11_3 1_555 1_555
C13_3 C7_3 1_555 1_555
H10_3 C13_3 1_555 1_555
C14_3 N1_3 1_555 1_555
H11_3 C14_3 1_555 1_555
C15_3 C1_3 1_555 1_555
C17_3 N1_3 1_555 1_555
O9_2 Cu3_2 1_555 1_555
Cu3_2 O3_3 1_555 1_555
O5_3 C15_3 1_555 1_555
C6_3 C17_3 1_555 1_555
N6_3 C14_3 1_555 1_555
C13_3 C17_3 1_555 1_555
O9 Cu9_2 1_555 1_555
C5_4 H3_4 1_555 1_555
C8_4 H6_4 1_555 1_555
H9_4 C12_4 1_555 1_555
C8_4 C12_4 1_555 1_555
N7 N8_2 1_555 1_555
C2_4 C9_4 1_555 1_555
C4_4 H2_4 1_555 1_555
C9_4 C4_4 1_555 1_555
H7_4 C9_4 1_555 1_555
C10_4 N4_4 1_555 1_555
C18_4 N7 1_555 1_555
H12_4 C18_4 1_555 1_555
N4_4 C18_4 1_555 1_555
C2_4 C16_4 1_555 1_555
O10_2 C16_4 1_555 1_555
C4_4 C10_4 1_555 1_555
Cu13 Cl2_4 1_555 1_555
Cl5 Cu5_2 1_555 1_555
N1_4 C11_4 1_555 1_555
O3_4 Cu5_2 1_555 1_555
O5_4 Cu5_2 1_555 1_555
N9_2 N6_4 1_555 1_555
H5_4 C7_4 1_555 1_555
N6_4 Cu13 1_555 1_555
C11_4 N9_2 1_555 1_555
C13_4 C7_4 1_555 1_555
H10_4 C13_4 1_555 1_555
C14_4 N1_4 1_555 1_555
H11_4 C14_4 1_555 1_555
C17_4 N1_4 1_555 1_555
N6_4 C14_4 1_555 1_555
C13_4 C17_4 1_555 1_555
Cu9_2 O7 1_555 1_555
O7 C15_4 1_555 1_555
C1_4 C3_4 1_555 1_555
C3_4 H1_4 1_555 1_555
C6_4 C3_4 1_555 1_555
H4_4 C6_4 1_555 1_555
C15_4 C1_4 1_555 1_555

#END
