
###############################################################################
#
# This file contains modified crystal structure data generated from the
# MOF subset of the Cambridge Structural Database (CSD) v543 
# hosted by the Cambridge Crystallographic Data Centre (CCDC).
#
# This work is licensed under the Creative Commons
# Attribution-NonCommercial-ShareAlike 4.0 International License.
# To view a copy of this license, visit
# http://creativecommons.org/licenses/by-nc-sa/4.0/
# or send a letter to
# Creative Commons, PO Box 1866, Mountain View, CA 94042, USA.
#
# CIF created using the CSD Python API on 29 September 2022
# The structure has been converted into the P1 space group
# The structure has a 3D framework
# The original CSD entry KUKWAR is in the tetragonal crystal system
# The original CSD entry KUKWAR is in a Sohncke space group
# The framework has been calculated to contain at least 10.0% void space
# The void calculation uses a probe of radius 1.32A, grid spacing 0.4
# H atom positions have been added when not included in the experimental data
#
###############################################################################

data_KUKWAR
_chemical_formula_moiety         '(C84 H34 Al6 O32)n'
_symmetry_cell_setting           triclinic
_symmetry_space_group_name_H-M   'P 1'
_symmetry_Int_Tables_number      1
_space_group_name_Hall           'P 1'
loop_
_symmetry_equiv_pos_site_id
_symmetry_equiv_pos_as_xyz
1 x,y,z
_cell_length_a                   14.829580(64)
_cell_length_b                   14.829580(64)
_cell_length_c                   11.773164(51)
_cell_angle_alpha                90
_cell_angle_beta                 90
_cell_angle_gamma                90
_cell_volume                     2589.11
loop_
_atom_site_label
_atom_site_type_symbol
_atom_site_fract_x
_atom_site_fract_y
_atom_site_fract_z
O4 O 0.713248(87) 0.397815(86) 0.24869(15)
O5 O 0.62165(10) 0.373714(97) 0.39436(12)
C6 C 0.63961(14) 0.40720(15) 0.30547(19)
C7 C 0.568194(68) 0.45502(10) 0.242784(95)
C8 C 0.500 0.500 0.30351(14)
C9 C 0.571382(71) 0.45929(10) 0.122836(80)
C10 C 0.500 0.500 0.06526(11)
O8 O 0.286752(87) 0.602185(86) 0.24869(15)
O9 O 0.37835(10) 0.626286(97) 0.39436(12)
C14 C 0.36039(14) 0.59280(15) 0.30547(19)
C15 C 0.431806(68) 0.54498(10) 0.242784(95)
C16 C 0.428618(71) 0.54071(10) 0.122836(80)
Al2 Al 0.805740(49) 0.305740(49) 0.250
O10 O 0.74256(13) 0.250 0.125
Al3 Al 0.805740(49) 0.194260(49) 0.000
Al4 Al 0.694260(49) 0.305740(49) 0.500
Al7 Al 0.305740(49) 0.694260(49) 0.500
Al9 Al 0.194260(49) 0.694260(49) 0.250
O12 O 0.750 0.24256(13) 0.375
O13 O 0.897815(86) 0.213248(87) 0.25131(15)
O16 O 0.873714(97) 0.37835(10) 0.14436(12)
O18 O 0.87835(10) 0.373714(97) 0.35564(12)
H2 H 0.5 0.5 0.396008
H4 H 0.628417 0.431356 0.0763951
H6 H 0.371583 0.568644 0.0763951
O1 O 0.75744(13) 0.250 0.625
O2 O 0.602185(86) 0.286752(87) 0.75131(15)
O3 O 0.626286(97) 0.37835(10) 0.60564(12)
C1 C 0.59280(15) 0.36039(14) 0.69453(19)
C2 C 0.54498(10) 0.431806(68) 0.757216(95)
C3 C 0.500 0.500 0.69649(14)
C4 C 0.54071(10) 0.428618(71) 0.877164(80)
C5 C 0.500 0.500 0.93474(11)
O6 O 0.397815(86) 0.713248(87) 0.75131(15)
O7 O 0.373714(97) 0.62165(10) 0.60564(12)
C11 C 0.40720(15) 0.63961(14) 0.69453(19)
C12 C 0.45502(10) 0.568194(68) 0.757216(95)
C13 C 0.45929(10) 0.571382(71) 0.877164(80)
Al3_2 Al 0.805740(49) 0.194260(49) 1.000
Al5 Al 0.694260(49) 0.194260(49) 0.750
Al8 Al 0.305740(49) 0.805740(49) 0.750
O14 O 0.786752(87) 0.397815(86) 0.50131(15)
O15 O 0.602185(86) 0.213248(87) 0.49869(15)
H1 H 0.5 0.5 0.603992
H3 H 0.568644 0.371583 0.923605
H5 H 0.431356 0.628417 0.923605
Al7_2 Al 0.194260(49) 0.805740(49) 0.000
C3_2 C -0.000 1.000 0.19649(14)
C5_2 C -0.000 1.000 0.43474(11)
C8_2 C -0.000 1.000 0.80351(14)
C10_2 C -0.000 1.000 0.56526(11)
O6_2 O 0.102185(86) 0.786752(87) 0.25131(15)
O7_2 O 0.126286(97) 0.87835(10) 0.10564(12)
C11_2 C 0.09280(15) 0.86039(14) 0.19453(19)
C12_2 C 0.04498(10) 0.931806(68) 0.257216(95)
C13_2 C 0.04071(10) 0.928618(71) 0.377164(80)
O8_2 O 0.213248(87) 0.897815(86) 0.74869(15)
O9_2 O 0.12165(10) 0.873714(97) 0.89436(12)
C14_2 C 0.13961(14) 0.90720(15) 0.80547(19)
C15_2 C 0.068194(68) 0.95502(10) 0.742784(95)
C16_2 C 0.071382(71) 0.95929(10) 0.622836(80)
Al7_3 Al 0.194260(49) 0.805740(49) 1.000
H1_2 H -2.22045e-16 1 0.103992
H2_2 H 1.84889e-32 1 0.896008
H5_2 H 0.0686438 0.871583 0.423605
H6_2 H 0.128417 0.931356 0.576395
O3_2 O 0.873714(97) 0.12165(10) 0.10564(12)
C1_2 C 0.90720(15) 0.13961(14) 0.19453(19)
C2_2 C 0.95502(10) 0.068194(68) 0.257216(95)
C3_3 C 1.000 -0.000 0.19649(14)
C4_2 C 0.95929(10) 0.071382(71) 0.377164(80)
C5_3 C 1.000 -0.000 0.43474(11)
O4_2 O 0.786752(87) 0.102185(86) 0.74869(15)
O5_2 O 0.87835(10) 0.126286(97) 0.89436(12)
C6_2 C 0.86039(14) 0.09280(15) 0.80547(19)
C7_2 C 0.931806(68) 0.04498(10) 0.742784(95)
C8_3 C 1.000 0.000 0.80351(14)
C9_2 C 0.928618(71) 0.04071(10) 0.622836(80)
C10_3 C 1.000 -0.000 0.56526(11)
O12_2 O 0.750 0.25744(13) 0.875
O14_2 O 0.713248(87) 0.102185(86) 0.00131(15)
O16_2 O 0.626286(97) 0.12165(10) 0.64436(12)
O18_2 O 0.62165(10) 0.126286(97) 0.85564(12)
H1_3 H 1 -2.22045e-16 0.103992
H2_3 H 1 6.16298e-33 0.896008
H3_2 H 0.931356 0.128417 0.423605
H4_2 H 0.871583 0.0686438 0.576395
O15_2 O 0.897815(86) 0.286752(87) 0.99869(15)
C3_4 C -0.000 0.500 0.05351(14)
O7_3 O 0.126286(97) 0.62165(10) 0.14436(12)
C11_3 C 0.09280(15) 0.63961(14) 0.05547(19)
H1_4 H -2.22045e-16 0.5 0.146008
C5_4 C -0.000 0.500 0.81526(11)
C8_4 C -0.000 0.500 0.44649(14)
C10_4 C -0.000 0.500 0.68474(11)
O6_3 O 0.102185(86) 0.713248(87) 0.99869(15)
C12_3 C 0.04498(10) 0.568194(68) 0.992784(95)
C13_3 C 0.04071(10) 0.571382(71) 0.872836(80)
O8_3 O 0.213248(87) 0.602185(86) 0.50131(15)
O9_3 O 0.12165(10) 0.626286(97) 0.35564(12)
C14_3 C 0.13961(14) 0.59280(15) 0.44453(19)
C15_3 C 0.068194(68) 0.54498(10) 0.507216(95)
C16_3 C 0.071382(71) 0.54071(10) 0.627164(80)
H2_4 H 9.24446e-33 0.5 0.353992
H5_3 H 0.0686438 0.628417 0.826395
H6_3 H 0.128417 0.568644 0.673605
C1_3 C 0.90720(15) 0.36039(14) 0.05547(19)
C3_5 C 1.000 0.500 0.05351(14)
H1_5 H 1 0.5 0.146008
C2_3 C 0.95502(10) 0.431806(68) 0.992784(95)
C4_3 C 0.95929(10) 0.428618(71) 0.872836(80)
C5_5 C 1.000 0.500 0.81526(11)
C6_3 C 0.86039(14) 0.40720(15) 0.44453(19)
C7_3 C 0.931806(68) 0.45502(10) 0.507216(95)
C8_5 C 1.000 0.500 0.44649(14)
C9_3 C 0.928618(71) 0.45929(10) 0.627164(80)
C10_5 C 1.000 0.500 0.68474(11)
H2_5 H 1 0.5 0.353992
H3_3 H 0.931356 0.371583 0.826395
H4_3 H 0.871583 0.431356 0.673605
C2_4 C 0.568194(68) 0.04498(10) 0.007216(95)
C4_4 C 0.571382(71) 0.04071(10) 0.127164(80)
C5_6 C 0.500 0.000 0.18474(11)
C6_4 C 0.59280(15) 0.13961(14) 0.55547(19)
C7_4 C 0.54498(10) 0.068194(68) 0.492784(95)
C8_6 C 0.500 0.000 0.55351(14)
C9_4 C 0.54071(10) 0.071382(71) 0.372836(80)
C10_6 C 0.500 0.000 0.31526(11)
H2_6 H 0.5 0 0.646008
H3_4 H 0.628417 0.0686438 0.173605
H4_4 H 0.568644 0.128417 0.326395
C1_4 C 0.63961(14) 0.09280(15) 0.94453(19)
C3_6 C 0.500 0.000 0.94649(14)
H1_6 H 0.5 2.22045e-16 0.853992
C5_7 C 0.500 1.000 0.18474(11)
C8_7 C 0.500 1.000 0.55351(14)
C10_7 C 0.500 1.000 0.31526(11)
O6_4 O 0.286752(87) 0.897815(86) 0.00131(15)
C12_4 C 0.431806(68) 0.95502(10) 0.007216(95)
C13_4 C 0.428618(71) 0.95929(10) 0.127164(80)
O8_4 O 0.397815(86) 0.786752(87) 0.49869(15)
O9_4 O 0.373714(97) 0.87835(10) 0.64436(12)
C14_4 C 0.40720(15) 0.86039(14) 0.55547(19)
C15_4 C 0.45502(10) 0.931806(68) 0.492784(95)
C16_4 C 0.45929(10) 0.928618(71) 0.372836(80)
H2_7 H 0.5 1 0.646008
H5_4 H 0.371583 0.931356 0.173605
H6_4 H 0.431356 0.871583 0.326395
C3_7 C 0.500 1.000 0.94649(14)
O7_4 O 0.37835(10) 0.873714(97) 0.85564(12)
C11_4 C 0.36039(14) 0.90720(15) 0.94453(19)
H1_7 H 0.5 1 0.853992
O10_2 O 0.25744(13) 0.750 0.125
O12_3 O 0.250 0.75744(13) 0.375
O1_2 O 0.24256(13) 0.750 0.625
O11 O 0.250 0.74256(13) 0.875
C3_8 C -0.000 -0.000 0.19649(14)
C5_8 C -0.000 -0.000 0.43474(11)
C8_8 C -0.000 0.000 0.80351(14)
C10_8 C -0.000 -0.000 0.56526(11)
H1_8 H -2.22045e-16 -2.22045e-16 0.103992
H2_8 H 6.16298e-33 6.16298e-33 0.896008
C3_9 C 1.000 1.000 0.19649(14)
C5_9 C 1.000 1.000 0.43474(11)
C8_9 C 1.000 1.000 0.80351(14)
C10_9 C 1.000 1.000 0.56526(11)
H1_9 H 1 1 0.103992
H2_9 H 1 1 0.896008
loop_
_geom_bond_atom_site_label_1
_geom_bond_atom_site_label_2
_geom_bond_site_symmetry_1
_geom_bond_site_symmetry_2
O4 C6 1_555 1_555
O5 C6 1_555 1_555
C6 C7 1_555 1_555
C7 C8 1_555 1_555
C8 C15 1_555 1_555
C9 C7 1_555 1_555
O8 C14 1_555 1_555
O9 C14 1_555 1_555
C14 C15 1_555 1_555
C15 C16 1_555 1_555
C16 C10 1_555 1_555
Al2 O4 1_555 1_555
O10 Al2 1_555 1_555
Al3 O10 1_555 1_555
Al4 O5 1_555 1_555
Al7 O9 1_555 1_555
Al9 O8 1_555 1_555
O12 Al2 1_555 1_555
O13 Al2 1_555 1_555
O16 Al2 1_555 1_555
O18 Al2 1_555 1_555
C9 C10 1_555 1_555
Al4 O12 1_555 1_555
C8 H2 1_555 1_555
C9 H4 1_555 1_555
C16 H6 1_555 1_555
Al4 O1 1_555 1_555
O1 Al5 1_555 1_555
O2 C1 1_555 1_555
O3 Al4 1_555 1_555
C1 O3 1_555 1_555
C2 C1 1_555 1_555
C3 C2 1_555 1_555
C4 C2 1_555 1_555
C5 C4 1_555 1_555
O6 C11 1_555 1_555
O7 C11 1_555 1_555
C11 C12 1_555 1_555
C12 C3 1_555 1_555
C13 C5 1_555 1_555
Al5 O2 1_555 1_555
Al7 O7 1_555 1_555
Al8 O6 1_555 1_555
O14 Al4 1_555 1_555
O15 Al4 1_555 1_555
C12 C13 1_555 1_555
C3 H1 1_555 1_555
C4 H3 1_555 1_555
C13 H5 1_555 1_555
C8_2 C15_2 1_555 1_555
C10_2 C5_2 1_555 1_555
O6_2 C11_2 1_555 1_555
O7_2 C11_2 1_555 1_555
C11_2 C12_2 1_555 1_555
C12_2 C3_2 1_555 1_555
C13_2 C5_2 1_555 1_555
O8_2 C14_2 1_555 1_555
O9_2 C14_2 1_555 1_555
C14_2 C15_2 1_555 1_555
C15_2 C16_2 1_555 1_555
C16_2 C10_2 1_555 1_555
Al7_2 O7_2 1_555 1_555
Al7_3 O9_2 1_555 1_555
Al9 O6_2 1_555 1_555
Al8 O8_2 1_555 1_555
C12_2 C13_2 1_555 1_555
C3_2 H1_2 1_555 1_555
C8_2 H2_2 1_555 1_555
C13_2 H5_2 1_555 1_555
C16_2 H6_2 1_555 1_555
O13 C1_2 1_555 1_555
O3_2 Al3 1_555 1_555
C1_2 O3_2 1_555 1_555
C2_2 C1_2 1_555 1_555
C3_3 C2_2 1_555 1_555
C4_2 C2_2 1_555 1_555
C5_3 C4_2 1_555 1_555
O4_2 C6_2 1_555 1_555
O5_2 C6_2 1_555 1_555
C6_2 C7_2 1_555 1_555
C7_2 C8_3 1_555 1_555
C9_2 C7_2 1_555 1_555
C10_3 C5_3 1_555 1_555
Al5 O4_2 1_555 1_555
Al3_2 O5_2 1_555 1_555
O12_2 Al5 1_555 1_555
O14_2 Al3 1_555 1_555
O16_2 Al5 1_555 1_555
O18_2 Al5 1_555 1_555
C9_2 C10_3 1_555 1_555
Al3_2 O12_2 1_555 1_555
C3_3 H1_3 1_555 1_555
C8_3 H2_3 1_555 1_555
C4_2 H3_2 1_555 1_555
C9_2 H4_2 1_555 1_555
O15_2 Al3_2 1_555 1_555
O7_3 C11_3 1_555 1_555
Al9 O7_3 1_555 1_555
C3_4 H1_4 1_555 1_555
C8_4 C15_3 1_555 1_555
C10_4 C5_4 1_555 1_555
C13_3 C5_4 1_555 1_555
O8_3 C14_3 1_555 1_555
O9_3 C14_3 1_555 1_555
C14_3 C15_3 1_555 1_555
C15_3 C16_3 1_555 1_555
C16_3 C10_4 1_555 1_555
Al9 O9_3 1_555 1_555
Al7_3 O6_3 1_555 1_555
Al7 O8_3 1_555 1_555
C12_3 C13_3 1_555 1_555
C8_4 H2_4 1_555 1_555
C13_3 H5_3 1_555 1_555
C16_3 H6_3 1_555 1_555
C1_3 O16 1_555 1_555
C3_5 H1_5 1_555 1_555
C4_3 C2_3 1_555 1_555
C5_5 C4_3 1_555 1_555
O14 C6_3 1_555 1_555
O18 C6_3 1_555 1_555
C6_3 C7_3 1_555 1_555
C7_3 C8_5 1_555 1_555
C9_3 C7_3 1_555 1_555
C10_5 C5_5 1_555 1_555
C9_3 C10_5 1_555 1_555
C8_5 H2_5 1_555 1_555
C4_3 H3_3 1_555 1_555
C9_3 H4_3 1_555 1_555
C4_4 C2_4 1_555 1_555
C5_6 C4_4 1_555 1_555
O15 C6_4 1_555 1_555
O16_2 C6_4 1_555 1_555
C6_4 C7_4 1_555 1_555
C7_4 C8_6 1_555 1_555
C9_4 C7_4 1_555 1_555
C10_6 C5_6 1_555 1_555
C9_4 C10_6 1_555 1_555
C8_6 H2_6 1_555 1_555
C4_4 H3_4 1_555 1_555
C9_4 H4_4 1_555 1_555
C1_4 O18_2 1_555 1_555
C3_6 H1_6 1_555 1_555
C8_7 C15_4 1_555 1_555
C10_7 C5_7 1_555 1_555
C13_4 C5_7 1_555 1_555
O8_4 C14_4 1_555 1_555
O9_4 C14_4 1_555 1_555
C14_4 C15_4 1_555 1_555
C15_4 C16_4 1_555 1_555
C16_4 C10_7 1_555 1_555
Al8 O9_4 1_555 1_555
Al7_2 O6_4 1_555 1_555
Al7 O8_4 1_555 1_555
C12_4 C13_4 1_555 1_555
C8_7 H2_7 1_555 1_555
C13_4 H5_4 1_555 1_555
C16_4 H6_4 1_555 1_555
O7_4 C11_4 1_555 1_555
Al8 O7_4 1_555 1_555
C3_7 H1_7 1_555 1_555
O10_2 Al9 1_555 1_555
Al7_2 O10_2 1_555 1_555
O12_3 Al9 1_555 1_555
Al7 O12_3 1_555 1_555
Al7 O1_2 1_555 1_555
O1_2 Al8 1_555 1_555
O11 Al8 1_555 1_555
O11 Al7_3 1_555 1_555
C10_8 C5_8 1_555 1_555
C3_8 H1_8 1_555 1_555
C8_8 H2_8 1_555 1_555
C10_9 C5_9 1_555 1_555
C3_9 H1_9 1_555 1_555
C8_9 H2_9 1_555 1_555

#END
