
###############################################################################
#
# This file contains modified crystal structure data generated from the
# MOF subset of the Cambridge Structural Database (CSD) v543 
# hosted by the Cambridge Crystallographic Data Centre (CCDC).
#
# This work is licensed under the Creative Commons
# Attribution-NonCommercial-ShareAlike 4.0 International License.
# To view a copy of this license, visit
# http://creativecommons.org/licenses/by-nc-sa/4.0/
# or send a letter to
# Creative Commons, PO Box 1866, Mountain View, CA 94042, USA.
#
# CIF created using the CSD Python API on 29 September 2022
# The structure has been converted into the P1 space group
# The structure has a 3D framework
# The original CSD entry KUKZOH is in the monoclinic crystal system
# The framework has been calculated to contain at least 10.0% void space
# The void calculation uses a probe of radius 1.32A, grid spacing 0.4
# H atom positions have been added when not included in the experimental data
#
###############################################################################

data_KUKZOH
_chemical_formula_moiety         '(C384 H272 N96 O120 Zn32)n'
_symmetry_cell_setting           triclinic
_symmetry_space_group_name_H-M   'P 1'
_symmetry_Int_Tables_number      1
_space_group_name_Hall           'P 1'
loop_
_symmetry_equiv_pos_site_id
_symmetry_equiv_pos_as_xyz
1 x,y,z
_cell_length_a                   26.0338(8)
_cell_length_b                   26.3415(7)
_cell_length_c                   27.5327(7)
_cell_angle_alpha                90
_cell_angle_beta                 97.836(3)
_cell_angle_gamma                90
_cell_volume                     18704.8
loop_
_atom_site_label
_atom_site_type_symbol
_atom_site_fract_x
_atom_site_fract_y
_atom_site_fract_z
C9 C 0.10244(19) 0.17350(18) 0.64298(15)
C10 C 0.0671(2) 0.1461(2) 0.60518(16)
C11 C 0.0816(2) 0.0995(2) 0.58818(18)
H5 H 0.1118 0.0831 0.6042
C12 C 0.0527(3) 0.0763(2) 0.5482(2)
H6 H 0.0631 0.0443 0.5369
C13 C 0.0089(2) 0.1000(2) 0.52481(18)
C15 C 0.0213(2) 0.1681(2) 0.58336(16)
H8 H 0.0100 0.1992 0.5959
C16 C 0.15520(19) 0.65954(16) 0.12388(15)
C17 C 0.13790(19) 0.61452(18) 0.09253(16)
C18 C 0.0907(2) 0.59205(19) 0.0973(2)
H9 H 0.0697 0.6060 0.1196
C19 C 0.0736(2) 0.5498(2) 0.0702(2)
H10 H 0.0408 0.5353 0.0735
C20 C 0.1045(2) 0.52835(18) 0.03793(18)
C21 C 0.15031(18) 0.55338(18) 0.03080(17)
H11 H 0.1701 0.5414 0.0066
C22 C 0.16672(18) 0.59469(18) 0.05825(17)
H12 H 0.1987 0.6103 0.0538
C23 C 0.0531(2) 0.4505(2) 0.0135(2)
N3 N 0.02281(17) 0.45594(16) 0.04836(15)
N5 N 0.09078(17) 0.48556(16) 0.00907(16)
N9 N 0.0374(2) 0.0230(2) 0.45787(17)
O3 O 0.14664(14) 0.15311(13) 0.65657(11)
O4 O 0.08780(12) 0.21461(11) 0.65957(10)
O5 O 0.12604(13) 0.67298(12) 0.15422(11)
O6 O 0.19813(12) 0.67925(12) 0.11908(11)
Zn5 Zn 0.24273(2) 0.71856(2) 0.169810(19)
Zn7 Zn 0.20441(2) 0.17755(2) 0.703826(18)
Zn10 Zn 0.12854(2) 0.732283(19) 0.197710(17)
Zn12 Zn 0.12854(2) 0.267717(19) 0.697710(17)
C41 C 0.11366(17) 0.29700(15) 0.78977(15)
C42 C 0.08581(16) 0.30774(15) 0.83232(14)
C43 C 0.03424(18) 0.29279(15) 0.83358(15)
H21 H 0.0159 0.2753 0.8064
C44 C 0.00985(18) 0.30327(16) 0.87403(16)
C45 C 0.03641(19) 0.32870(17) 0.91418(17)
C46 C 0.08818(19) 0.3433(2) 0.91343(17)
H23 H 0.1068 0.3605 0.9406
C47 C 0.11173(18) 0.33239(17) 0.87261(16)
H24 H 0.1468 0.3421 0.8723
C48 C 0.0171(2) 0.3766(2) 0.98723(19)
H27 H 0.1089 0.4805 0.9848
N11 N 0.01075(17) 0.33690(17) 0.95536(15)
N12 N 0.05206(17) 0.41236(17) 0.98129(15)
O11 O 0.08759(11) 0.27886(10) 0.75094(9)
O12 O 0.16055(13) 0.30856(15) 0.79306(12)
Zn9 Zn 0.22724(2) 0.26724(2) 0.783012(19)
C24 C 0.1888(3) 0.8425(2) 0.30050(16)
C25 C 0.1636(3) 0.8761(2) 0.33398(16)
C26 C 0.1394(3) 0.9190(3) 0.31777(19)
H13 H 0.1389 0.9287 0.2845
C27 C 0.1151(3) 0.9495(3) 0.3488(2)
H14 H 0.0982 0.9798 0.3366
C28 C 0.1154(2) 0.9363(2) 0.39743(18)
C29 C 0.1394(4) 0.8937(3) 0.41409(19)
H15 H 0.1409 0.8850 0.4477
C30 C 0.1622(4) 0.8616(3) 0.3826(2)
H16 H 0.1768 0.8301 0.3942
C40 C 0.0491(3) 0.9953(3) 0.4200(2)
N6 N 0.0928(2) 0.9669(2) 0.43019(16)
H28 H 0.1084 0.9678 0.4606
N10 N 0.02229(19) 0.9937(2) 0.37452(16)
O7 O 0.19764(16) 0.86259(12) 0.26061(11)
O8 O 0.1966(2) 0.79704(16) 0.31232(12)
Zn6 Zn 0.20441(2) 0.82245(2) 0.203826(18)
Zn8 Zn 0.22724(2) 0.73276(2) 0.283012(19)
C1 C 0.79067(18) 0.31630(17) 0.14808(16)
C2 C 0.83598(19) 0.34219(17) 0.13135(16)
C3 C 0.8638(2) 0.3203(2) 0.0978(2)
H1 H 0.8547 0.2873 0.0858
C4 C 0.9048(2) 0.3455(2) 0.0813(2)
H2 H 0.9235 0.3300 0.0579
C5 C 0.9184(2) 0.39411(19) 0.09934(17)
C6 C 0.8909(2) 0.41562(18) 0.13403(18)
H3 H 0.9003 0.4481 0.1472
C7 C 0.84967(18) 0.38955(17) 0.14933(15)
H4 H 0.8306 0.4047 0.1726
C8 C 0.9891(2) 0.4169(2) 0.04985(18)
C14 C 0.9921(2) 0.1457(2) 0.54385(16)
H7 H 0.9607 0.1610 0.5294
C31 C 0.79410(19) 0.15335(18) 0.2378(2)
C32 C 0.83405(18) 0.1169(2) 0.2588(2)
C33 C 0.8386(2) 0.1064(3) 0.3089(2)
H17 H 0.8151 0.1217 0.3280
C34 C 0.8767(2) 0.0743(3) 0.3312(2)
H18 H 0.8785 0.0671 0.3652
C35 C 0.9126(2) 0.0524(2) 0.30386(19)
C36 C 0.9061(2) 0.0606(2) 0.25363(18)
H19 H 0.9282 0.0439 0.2341
C37 C 0.86732(19) 0.0931(2) 0.2312(2)
H20 H 0.8640 0.0989 0.1969
C38 C 0.9796(2) 0.0215(2) 0.37037(18)
C39 C 0.9943(3) 0.0500(3) 0.4473(2)
N1 N 0.95866(19) 0.42313(17) 0.08632(16)
H25 H 0.9660 0.4503 0.1046
N2 N 0.98465(19) 0.37625(16) 0.02170(15)
N4 N 0.9801(2) 0.0827(2) 0.48123(17)
H26 H 0.9484 0.0948 0.4749
N7 N 0.95316(17) 0.0215(2) 0.32369(15)
N8 N 0.96283(19) 0.0506(2) 0.40452(15)
O1 O 0.78214(13) 0.26989(12) 0.13624(11)
O2 O 0.76512(13) 0.34184(12) 0.17451(12)
O9 O 0.79574(13) 0.16968(13) 0.19460(14)
O10 O 0.75912(15) 0.16502(14) 0.26228(18)
O13 O 0.7917(3) 0.2706(3) 0.2731(3)
O14 O 0.7600(2) 0.21644(19) 0.35392(18)
O15 O 0.70014(10) 0.25091(10) 0.21252(9)
Zn1 Zn 0.74273(2) 0.21856(2) 0.169810(19)
Zn2 Zn 0.70441(2) 0.32245(2) 0.203826(18)
Zn3 Zn 0.72724(2) 0.23276(2) 0.283012(19)
Zn4 Zn 0.62854(2) 0.232283(19) 0.197710(17)
O16 O 0.64664(14) 0.34689(13) 0.15657(11)
O17 O 0.58780(12) 0.28539(11) 0.15957(10)
O18 O 0.62604(13) 0.17298(12) 0.15422(11)
O19 O 0.69813(12) 0.17925(12) 0.11908(11)
O20 O 0.69764(16) 0.36259(12) 0.26061(11)
O21 O 0.6966(2) 0.29704(16) 0.31232(12)
O22 O 0.58759(11) 0.22114(10) 0.25094(9)
O23 O 0.66055(13) 0.19144(15) 0.29306(12)
H31 H 0.798213 0.213707 0.355292
H32 H 0.751597 0.243991 0.376161
H33 H 0.797875 0.267111 0.238454
H34 H 0.787511 0.307053 0.280869
C16_2 C 0.65520(19) 0.15954(16) 0.12388(15)
C17_2 C 0.63790(19) 0.11452(18) 0.09253(16)
C18_2 C 0.5907(2) 0.09205(19) 0.0973(2)
H9_2 H 0.5697 0.1060 0.1196
C19_2 C 0.5736(2) 0.0498(2) 0.0702(2)
H10_2 H 0.5408 0.0353 0.0735
C20_2 C 0.6045(2) 0.02835(18) 0.03793(18)
C21_2 C 0.65031(18) 0.05338(18) 0.03080(17)
H11_2 H 0.6701 0.0414 0.0066
C22_2 C 0.66672(18) 0.09469(18) 0.05825(17)
H12_2 H 0.6987 0.1103 0.0538
C1_2 C 0.29067(18) 0.81630(17) 0.14808(16)
C2_2 C 0.33598(19) 0.84219(17) 0.13135(16)
C3_2 C 0.3638(2) 0.8203(2) 0.0978(2)
H1_2 H 0.3547 0.7873 0.0858
C4_2 C 0.4048(2) 0.8455(2) 0.0813(2)
H2_2 H 0.4235 0.8300 0.0579
C5_2 C 0.4184(2) 0.89411(19) 0.09934(17)
C6_2 C 0.3909(2) 0.91562(18) 0.13403(18)
H3_2 H 0.4003 0.9481 0.1472
C7_2 C 0.34967(18) 0.88955(17) 0.14933(15)
H4_2 H 0.3306 0.9047 0.1726
C8_2 C 0.4891(2) 0.9169(2) 0.04985(18)
C9_2 C 0.60244(19) 0.67350(18) 0.64298(15)
C10_2 C 0.5671(2) 0.6461(2) 0.60518(16)
C11_2 C 0.5816(2) 0.5995(2) 0.58818(18)
H5_2 H 0.6118 0.5831 0.6042
C12_2 C 0.5527(3) 0.5763(2) 0.5482(2)
H6_2 H 0.5631 0.5443 0.5369
C13_2 C 0.5089(2) 0.6000(2) 0.52481(18)
C14_2 C 0.4921(2) 0.6457(2) 0.54385(16)
H7_2 H 0.4607 0.6610 0.5294
C15_2 C 0.5213(2) 0.6681(2) 0.58336(16)
H8_2 H 0.5100 0.6992 0.5959
C23_2 C 0.5531(2) 0.9505(2) 0.0135(2)
C24_2 C 0.6888(3) 0.3425(2) 0.30050(16)
C25_2 C 0.6636(3) 0.3761(2) 0.33398(16)
C26_2 C 0.6394(3) 0.4190(3) 0.31777(19)
H13_2 H 0.6389 0.4287 0.2845
C27_2 C 0.6151(3) 0.4495(3) 0.3488(2)
H14_2 H 0.5982 0.4798 0.3366
C28_2 C 0.6154(2) 0.4363(2) 0.39743(18)
C29_2 C 0.6394(4) 0.3937(3) 0.41409(19)
H15_2 H 0.6409 0.3850 0.4477
C30_2 C 0.6622(4) 0.3616(3) 0.3826(2)
H16_2 H 0.6768 0.3301 0.3942
C31_2 C 0.29410(19) 0.65335(18) 0.2378(2)
C32_2 C 0.33405(18) 0.6169(2) 0.2588(2)
C33_2 C 0.3386(2) 0.6064(3) 0.3089(2)
H17_2 H 0.3151 0.6217 0.3280
C34_2 C 0.3767(2) 0.5743(3) 0.3312(2)
H18_2 H 0.3785 0.5671 0.3652
C35_2 C 0.4126(2) 0.5524(2) 0.30386(19)
C36_2 C 0.4061(2) 0.5606(2) 0.25363(18)
H19_2 H 0.4282 0.5439 0.2341
C37_2 C 0.36732(19) 0.5931(2) 0.2312(2)
H20_2 H 0.3640 0.5989 0.1969
C38_2 C 0.4796(2) 0.5215(2) 0.37037(18)
C39_2 C 0.4943(3) 0.5500(3) 0.4473(2)
C40_2 C 0.5491(3) 0.4953(3) 0.4200(2)
N1_2 N 0.45866(19) 0.92313(17) 0.08632(16)
H25_2 H 0.4660 0.9503 0.1046
N2_2 N 0.48465(19) 0.87625(16) 0.02170(15)
N3_2 N 0.52281(17) 0.95594(16) 0.04836(15)
N4_2 N 0.4801(2) 0.5827(2) 0.48123(17)
H26_2 H 0.4484 0.5948 0.4749
N5_2 N 0.59078(17) 0.98556(16) 0.00907(16)
N6_2 N 0.5928(2) 0.4669(2) 0.43019(16)
H28_2 H 0.6084 0.4678 0.4606
N7_2 N 0.45316(17) 0.5215(2) 0.32369(15)
H29 H 0.4634 0.4988 0.3036
N8_2 N 0.46283(19) 0.5506(2) 0.40452(15)
N9_2 N 0.5374(2) 0.5230(2) 0.45787(17)
N10_2 N 0.52229(19) 0.4937(2) 0.37452(16)
O1_2 O 0.28214(13) 0.76989(12) 0.13624(11)
O2_2 O 0.26512(13) 0.84184(12) 0.17451(12)
O3_2 O 0.64664(14) 0.65311(13) 0.65657(11)
O4_2 O 0.58780(12) 0.71461(11) 0.65957(10)
O9_2 O 0.29574(13) 0.66968(13) 0.19460(14)
O10_2 O 0.25912(15) 0.66502(14) 0.26228(18)
O13_2 O 0.2917(3) 0.7706(3) 0.2731(3)
O14_2 O 0.2600(2) 0.71644(19) 0.35392(18)
O15_2 O 0.20014(10) 0.75091(10) 0.21252(9)
O16_2 O 0.14664(14) 0.84689(13) 0.15657(11)
O17_2 O 0.08780(12) 0.78539(11) 0.15957(10)
O22_2 O 0.08759(11) 0.72114(10) 0.25094(9)
O23_2 O 0.16055(13) 0.69144(15) 0.29306(12)
Zn7_2 Zn 0.70441(2) 0.67755(2) 0.703826(18)
Zn12_2 Zn 0.62854(2) 0.767717(19) 0.697710(17)
H31_2 H 0.298213 0.713707 0.355292
H32_2 H 0.251597 0.743991 0.376161
H33_2 H 0.297875 0.767111 0.238454
H34_2 H 0.287511 0.807053 0.280869
C41_2 C 0.61366(17) 0.79700(15) 0.78977(15)
C42_2 C 0.58581(16) 0.80774(15) 0.83232(14)
C43_2 C 0.53424(18) 0.79279(15) 0.83358(15)
H21_2 H 0.5159 0.7753 0.8064
C44_2 C 0.50985(18) 0.80327(16) 0.87403(16)
H22 H 0.4749 0.7931 0.8744
C45_2 C 0.53641(19) 0.82870(17) 0.91418(17)
C46_2 C 0.58818(19) 0.8433(2) 0.91343(17)
H23_2 H 0.6068 0.8605 0.9406
C47_2 C 0.61173(18) 0.83239(17) 0.87261(16)
H24_2 H 0.6468 0.8421 0.8723
C48_2 C 0.5171(2) 0.8766(2) 0.98723(19)
H27_2 H 0.6089 0.9805 0.9848
N11_2 N 0.51075(17) 0.83690(17) 0.95536(15)
H30 H 0.4881 0.8137 0.9611
N12_2 N 0.55206(17) 0.91236(17) 0.98129(15)
O11_2 O 0.58759(11) 0.77886(10) 0.75094(9)
O12_2 O 0.66055(13) 0.80856(15) 0.79306(12)
Zn9_2 Zn 0.72724(2) 0.76724(2) 0.783012(19)
C24_3 C 0.1888(3) 0.1575(2) 0.80050(16)
C25_3 C 0.1636(3) 0.1239(2) 0.83398(16)
C26_3 C 0.1394(3) 0.0810(3) 0.81777(19)
H13_3 H 0.1389 0.0713 0.7845
C27_3 C 0.1151(3) 0.0505(3) 0.8488(2)
H14_3 H 0.0982 0.0202 0.8366
C28_3 C 0.1154(2) 0.0637(2) 0.89743(18)
C29_3 C 0.1394(4) 0.1063(3) 0.91409(19)
H15_3 H 0.1409 0.1150 0.9477
C30_3 C 0.1622(4) 0.1384(3) 0.8826(2)
H16_3 H 0.1768 0.1699 0.8942
C40_3 C 0.0491(3) 0.0047(3) 0.9200(2)
N6_3 N 0.0928(2) 0.0331(2) 0.93019(16)
H28_3 H 0.1084 0.0322 0.9606
N10_3 N 0.02229(19) 0.0063(2) 0.87452(16)
O7_2 O 0.19764(16) 0.13741(12) 0.76061(11)
O8_2 O 0.1966(2) 0.20296(16) 0.81232(12)
C9_3 C 0.10244(19) 0.82650(18) 0.14298(15)
C10_3 C 0.0671(2) 0.8539(2) 0.10518(16)
C11_3 C 0.0816(2) 0.9005(2) 0.08818(18)
H5_3 H 0.1118 0.9169 0.1042
C12_3 C 0.0527(3) 0.9237(2) 0.0482(2)
H6_3 H 0.0631 0.9557 0.0369
C13_3 C 0.0089(2) 0.9000(2) 0.02481(18)
C15_3 C 0.0213(2) 0.8319(2) 0.08336(16)
H8_3 H 0.0100 0.8008 0.0959
C16_3 C 0.15520(19) 0.34046(16) 0.62388(15)
C17_3 C 0.13790(19) 0.38548(18) 0.59253(16)
C18_3 C 0.0907(2) 0.40795(19) 0.5973(2)
H9_3 H 0.0697 0.3940 0.6196
C19_3 C 0.0736(2) 0.4502(2) 0.5702(2)
H10_3 H 0.0408 0.4647 0.5735
C20_3 C 0.1045(2) 0.47165(18) 0.53793(18)
C21_3 C 0.15031(18) 0.44662(18) 0.53080(17)
H11_3 H 0.1701 0.4586 0.5066
C22_3 C 0.16672(18) 0.40531(18) 0.55825(17)
H12_3 H 0.1987 0.3897 0.5538
C23_3 C 0.0531(2) 0.5495(2) 0.5135(2)
C41_3 C 0.11366(17) 0.70300(15) 0.28977(15)
C42_3 C 0.08581(16) 0.69226(15) 0.33232(14)
C43_3 C 0.03424(18) 0.70721(15) 0.33358(15)
H21_3 H 0.0159 0.7247 0.3064
C44_3 C 0.00985(18) 0.69673(16) 0.37403(16)
C45_3 C 0.03641(19) 0.67130(17) 0.41418(17)
C46_3 C 0.08818(19) 0.6567(2) 0.41343(17)
H23_3 H 0.1068 0.6395 0.4406
C47_3 C 0.11173(18) 0.66761(17) 0.37261(16)
H24_3 H 0.1468 0.6579 0.3723
C48_3 C 0.0171(2) 0.6234(2) 0.48723(19)
N3_3 N 0.02281(17) 0.54406(16) 0.54836(15)
N5_3 N 0.09078(17) 0.51444(16) 0.50907(16)
H27_3 H 0.1089 0.5195 0.4848
N9_3 N 0.0374(2) 0.9770(2) 0.95787(17)
N11_3 N 0.01075(17) 0.66310(17) 0.45536(15)
N12_3 N 0.05206(17) 0.58764(17) 0.48129(15)
O5_2 O 0.12604(13) 0.32702(12) 0.65422(11)
O6_2 O 0.19813(12) 0.32075(12) 0.61908(11)
Zn5_2 Zn 0.24273(2) 0.28144(2) 0.669810(19)
C1_3 C 0.79067(18) 0.68370(17) 0.64808(16)
C2_3 C 0.83598(19) 0.65781(17) 0.63135(16)
C3_3 C 0.8638(2) 0.6797(2) 0.5978(2)
H1_3 H 0.8547 0.7127 0.5858
C4_3 C 0.9048(2) 0.6545(2) 0.5813(2)
H2_3 H 0.9235 0.6700 0.5579
C5_3 C 0.9184(2) 0.60589(19) 0.59934(17)
C6_3 C 0.8909(2) 0.58438(18) 0.63403(18)
H3_3 H 0.9003 0.5519 0.6472
C7_3 C 0.84967(18) 0.61045(17) 0.64933(15)
H4_3 H 0.8306 0.5953 0.6726
C8_3 C 0.9891(2) 0.5831(2) 0.54985(18)
C31_3 C 0.79410(19) 0.84665(18) 0.7378(2)
C32_3 C 0.83405(18) 0.8831(2) 0.7588(2)
C33_3 C 0.8386(2) 0.8936(3) 0.8089(2)
H17_3 H 0.8151 0.8783 0.8280
C34_3 C 0.8767(2) 0.9257(3) 0.8312(2)
H18_3 H 0.8785 0.9329 0.8652
C35_3 C 0.9126(2) 0.9476(2) 0.80386(19)
C36_3 C 0.9061(2) 0.9394(2) 0.75363(18)
H19_3 H 0.9282 0.9561 0.7341
C37_3 C 0.86732(19) 0.9069(2) 0.7312(2)
H20_3 H 0.8640 0.9011 0.6969
C38_3 C 0.9796(2) 0.9785(2) 0.87037(18)
C39_3 C 0.9943(3) 0.9500(3) 0.9473(2)
H22_2 H 0.9749 0.7069 0.3744
N1_3 N 0.95866(19) 0.57687(17) 0.58632(16)
H25_3 H 0.9660 0.5497 0.6046
N2_3 N 0.98465(19) 0.62375(16) 0.52170(15)
N4_3 N 0.9801(2) 0.9173(2) 0.98123(17)
H26_3 H 0.9484 0.9052 0.9749
N7_3 N 0.95316(17) 0.9785(2) 0.82369(15)
N8_3 N 0.96283(19) 0.9494(2) 0.90452(15)
H30_2 H 0.9881 0.6863 0.4611
O1_3 O 0.78214(13) 0.73011(12) 0.63624(11)
O2_3 O 0.76512(13) 0.65816(12) 0.67451(12)
O9_3 O 0.79574(13) 0.83032(13) 0.69460(14)
O10_3 O 0.75912(15) 0.83498(14) 0.76228(18)
O13_3 O 0.7917(3) 0.7294(3) 0.7731(3)
O14_3 O 0.7600(2) 0.78356(19) 0.85392(18)
O15_3 O 0.70014(10) 0.74909(10) 0.71252(9)
Zn1_2 Zn 0.74273(2) 0.78144(2) 0.669810(19)
O18_2 O 0.62604(13) 0.82702(12) 0.65422(11)
O19_2 O 0.69813(12) 0.82075(12) 0.61908(11)
O20_2 O 0.69764(16) 0.63741(12) 0.76061(11)
O21_2 O 0.6966(2) 0.70296(16) 0.81232(12)
H31_3 H 0.798213 0.786293 0.855292
H32_3 H 0.751597 0.756009 0.876161
H33_3 H 0.797875 0.732889 0.738454
H34_3 H 0.787511 0.692947 0.780869
C9_4 C 0.60244(19) 0.32650(18) 0.14298(15)
C10_4 C 0.5671(2) 0.3539(2) 0.10518(16)
C11_4 C 0.5816(2) 0.4005(2) 0.08818(18)
H5_4 H 0.6118 0.4169 0.1042
C12_4 C 0.5527(3) 0.4237(2) 0.0482(2)
H6_4 H 0.5631 0.4557 0.0369
C13_4 C 0.5089(2) 0.4000(2) 0.02481(18)
C14_3 C 0.4921(2) 0.3543(2) 0.04385(16)
H7_3 H 0.4607 0.3390 0.0294
C15_4 C 0.5213(2) 0.3319(2) 0.08336(16)
H8_4 H 0.5100 0.3008 0.0959
C1_4 C 0.29067(18) 0.18370(17) 0.64808(16)
C2_4 C 0.33598(19) 0.15781(17) 0.63135(16)
C3_4 C 0.3638(2) 0.1797(2) 0.5978(2)
H1_4 H 0.3547 0.2127 0.5858
C4_4 C 0.4048(2) 0.1545(2) 0.5813(2)
H2_4 H 0.4235 0.1700 0.5579
C5_4 C 0.4184(2) 0.10589(19) 0.59934(17)
C6_4 C 0.3909(2) 0.08438(18) 0.63403(18)
H3_4 H 0.4003 0.0519 0.6472
C7_4 C 0.34967(18) 0.11045(17) 0.64933(15)
H4_4 H 0.3306 0.0953 0.6726
C8_4 C 0.4891(2) 0.0831(2) 0.54985(18)
C23_4 C 0.5531(2) 0.0495(2) 0.5135(2)
C24_4 C 0.6888(3) 0.6575(2) 0.80050(16)
C25_4 C 0.6636(3) 0.6239(2) 0.83398(16)
C26_4 C 0.6394(3) 0.5810(3) 0.81777(19)
H13_4 H 0.6389 0.5713 0.7845
C27_4 C 0.6151(3) 0.5505(3) 0.8488(2)
H14_4 H 0.5982 0.5202 0.8366
C28_4 C 0.6154(2) 0.5637(2) 0.89743(18)
C29_4 C 0.6394(4) 0.6063(3) 0.91409(19)
H15_4 H 0.6409 0.6150 0.9477
C30_4 C 0.6622(4) 0.6384(3) 0.8826(2)
H16_4 H 0.6768 0.6699 0.8942
C31_4 C 0.29410(19) 0.34665(18) 0.7378(2)
C32_4 C 0.33405(18) 0.3831(2) 0.7588(2)
C33_4 C 0.3386(2) 0.3936(3) 0.8089(2)
H17_4 H 0.3151 0.3783 0.8280
C34_4 C 0.3767(2) 0.4257(3) 0.8312(2)
H18_4 H 0.3785 0.4329 0.8652
C35_4 C 0.4126(2) 0.4476(2) 0.80386(19)
C36_4 C 0.4061(2) 0.4394(2) 0.75363(18)
H19_4 H 0.4282 0.4561 0.7341
C37_4 C 0.36732(19) 0.4069(2) 0.7312(2)
H20_4 H 0.3640 0.4011 0.6969
C38_4 C 0.4796(2) 0.4785(2) 0.87037(18)
C39_4 C 0.4943(3) 0.4500(3) 0.9473(2)
C40_4 C 0.5491(3) 0.5047(3) 0.9200(2)
C41_4 C 0.61366(17) 0.20300(15) 0.28977(15)
C42_4 C 0.58581(16) 0.19226(15) 0.33232(14)
C43_4 C 0.53424(18) 0.20721(15) 0.33358(15)
H21_4 H 0.5159 0.2247 0.3064
C44_4 C 0.50985(18) 0.19673(16) 0.37403(16)
H22_3 H 0.4749 0.2069 0.3744
C45_4 C 0.53641(19) 0.17130(17) 0.41418(17)
C46_4 C 0.58818(19) 0.1567(2) 0.41343(17)
H23_4 H 0.6068 0.1395 0.4406
C47_4 C 0.61173(18) 0.16761(17) 0.37261(16)
H24_4 H 0.6468 0.1579 0.3723
C48_4 C 0.5171(2) 0.1234(2) 0.48723(19)
N1_4 N 0.45866(19) 0.07687(17) 0.58632(16)
H25_4 H 0.4660 0.0497 0.6046
N2_4 N 0.48465(19) 0.12375(16) 0.52170(15)
N3_4 N 0.52281(17) 0.04406(16) 0.54836(15)
N4_4 N 0.4801(2) 0.4173(2) 0.98123(17)
H26_4 H 0.4484 0.4052 0.9749
N5_4 N 0.59078(17) 0.01444(16) 0.50907(16)
H27_4 H 0.6089 0.0195 0.4848
N6_4 N 0.5928(2) 0.5331(2) 0.93019(16)
H28_4 H 0.6084 0.5322 0.9606
N7_4 N 0.45316(17) 0.4785(2) 0.82369(15)
H29_2 H 0.4634 0.5012 0.8036
N8_4 N 0.46283(19) 0.4494(2) 0.90452(15)
N9_4 N 0.5374(2) 0.4770(2) 0.95787(17)
N10_4 N 0.52229(19) 0.5063(2) 0.87452(16)
N11_4 N 0.51075(17) 0.16310(17) 0.45536(15)
H30_3 H 0.4881 0.1863 0.4611
N12_4 N 0.55206(17) 0.08764(17) 0.48129(15)
O1_4 O 0.28214(13) 0.23011(12) 0.63624(11)
O2_4 O 0.26512(13) 0.15816(12) 0.67451(12)
O9_4 O 0.29574(13) 0.33032(13) 0.69460(14)
O10_4 O 0.25912(15) 0.33498(14) 0.76228(18)
O13_4 O 0.2917(3) 0.2294(3) 0.7731(3)
O14_4 O 0.2600(2) 0.28356(19) 0.85392(18)
O15_4 O 0.20014(10) 0.24909(10) 0.71252(9)
H31_4 H 0.298213 0.286293 0.855292
H32_4 H 0.251597 0.256009 0.876161
H33_4 H 0.297875 0.232889 0.738454
H34_4 H 0.287511 0.192947 0.780869
C16_4 C 0.65520(19) 0.84046(16) 0.62388(15)
C17_4 C 0.63790(19) 0.88548(18) 0.59253(16)
C18_4 C 0.5907(2) 0.90795(19) 0.5973(2)
H9_4 H 0.5697 0.8940 0.6196
C19_4 C 0.5736(2) 0.9502(2) 0.5702(2)
H10_4 H 0.5408 0.9647 0.5735
C20_4 C 0.6045(2) 0.97165(18) 0.53793(18)
C21_4 C 0.65031(18) 0.94662(18) 0.53080(17)
H11_4 H 0.6701 0.9586 0.5066
C22_4 C 0.66672(18) 0.90531(18) 0.55825(17)
H12_4 H 0.6987 0.8897 0.5538
H22_4 H 0.9749 0.2931 0.8744
H30_4 H 0.9881 0.3137 0.9611
H29_3 H 0.9634 0.9988 0.3036
C1_5 C 0.20933(18) 0.31630(17) 0.35192(16)
C2_5 C 0.16402(19) 0.34219(17) 0.36865(16)
C3_5 C 0.1362(2) 0.3203(2) 0.4022(2)
H1_5 H 0.1453 0.2873 0.4142
C4_5 C 0.0952(2) 0.3455(2) 0.4187(2)
H2_5 H 0.0765 0.3300 0.4421
C5_5 C 0.0816(2) 0.39411(19) 0.40066(17)
C6_5 C 0.1091(2) 0.41562(18) 0.36597(18)
H3_5 H 0.0997 0.4481 0.3528
C7_5 C 0.15033(18) 0.38955(17) 0.35067(15)
H4_5 H 0.1694 0.4047 0.3274
C8_5 C 0.0109(2) 0.4169(2) 0.45015(18)
C31_5 C 0.20590(19) 0.15335(18) 0.2622(2)
C32_5 C 0.16595(18) 0.1169(2) 0.2412(2)
C33_5 C 0.1614(2) 0.1064(3) 0.1911(2)
H17_5 H 0.1849 0.1217 0.1720
C34_5 C 0.1233(2) 0.0743(3) 0.1688(2)
H18_5 H 0.1215 0.0671 0.1348
C35_5 C 0.0874(2) 0.0524(2) 0.19614(19)
C36_5 C 0.0939(2) 0.0606(2) 0.24637(18)
H19_5 H 0.0718 0.0439 0.2659
C37_5 C 0.13268(19) 0.0931(2) 0.2688(2)
H20_5 H 0.1360 0.0989 0.3031
C38_5 C 0.0204(2) 0.0215(2) 0.12963(18)
C39_5 C 0.0057(3) 0.0500(3) 0.0527(2)
H22_5 H 0.0251 0.2931 0.6256
N1_5 N 0.04134(19) 0.42313(17) 0.41368(16)
H25_5 H 0.0340 0.4503 0.3954
N2_5 N 0.01535(19) 0.37625(16) 0.47830(15)
N4_5 N 0.0199(2) 0.0827(2) 0.01877(17)
H26_5 H 0.0516 0.0948 0.0251
N7_5 N 0.04684(17) 0.0215(2) 0.17631(15)
N8_5 N 0.03717(19) 0.0506(2) 0.09548(15)
H30_5 H 0.0119 0.3137 0.5389
O1_5 O 0.21786(13) 0.26989(12) 0.36376(11)
O2_5 O 0.23488(13) 0.34184(12) 0.32549(12)
O9_5 O 0.20426(13) 0.16968(13) 0.30540(14)
O10_5 O 0.24088(15) 0.16502(14) 0.23772(18)
O13_5 O 0.2083(3) 0.2706(3) 0.2269(3)
O14_5 O 0.2400(2) 0.21644(19) 0.14608(18)
O15_5 O 0.29986(10) 0.25091(10) 0.28748(9)
Zn1_3 Zn 0.25727(2) 0.21856(2) 0.330190(19)
Zn2_2 Zn 0.29559(2) 0.32245(2) 0.296174(18)
Zn3_2 Zn 0.27276(2) 0.23276(2) 0.216988(19)
Zn4_2 Zn 0.37146(2) 0.232283(19) 0.302290(17)
O16_3 O 0.35336(14) 0.34689(13) 0.34343(11)
O17_3 O 0.41220(12) 0.28539(11) 0.34043(10)
O18_3 O 0.37396(13) 0.17298(12) 0.34578(11)
O19_3 O 0.30187(12) 0.17925(12) 0.38092(11)
O20_3 O 0.30236(16) 0.36259(12) 0.23939(11)
O21_3 O 0.3034(2) 0.29704(16) 0.18768(12)
O22_3 O 0.41241(11) 0.22114(10) 0.24906(9)
O23_3 O 0.33945(13) 0.19144(15) 0.20694(12)
H31_5 H 0.201787 0.213707 0.144708
H32_5 H 0.248403 0.243991 0.123839
H33_5 H 0.202125 0.267111 0.261546
H34_5 H 0.212489 0.307053 0.219131
C16_5 C 0.84480(19) 0.65954(16) 0.37612(15)
C17_5 C 0.86210(19) 0.61452(18) 0.40747(16)
C18_5 C 0.9093(2) 0.59205(19) 0.4027(2)
H9_5 H 0.9303 0.6060 0.3804
C19_5 C 0.9264(2) 0.5498(2) 0.4298(2)
H10_5 H 0.9592 0.5353 0.4265
C20_5 C 0.8955(2) 0.52835(18) 0.46207(18)
C21_5 C 0.84969(18) 0.55338(18) 0.46920(17)
H11_5 H 0.8299 0.5414 0.4934
C22_5 C 0.83328(18) 0.59469(18) 0.44175(17)
H12_5 H 0.8013 0.6103 0.4462
C23_5 C 0.9469(2) 0.4505(2) 0.4865(2)
C41_5 C 0.88634(17) 0.29700(15) 0.71023(15)
C42_5 C 0.91419(16) 0.30774(15) 0.66768(14)
C43_5 C 0.96576(18) 0.29279(15) 0.66642(15)
H21_5 H 0.9841 0.2753 0.6936
C44_5 C 0.99015(18) 0.30327(16) 0.62597(16)
C45_5 C 0.96359(19) 0.32870(17) 0.58582(17)
C46_5 C 0.91182(19) 0.3433(2) 0.58657(17)
H23_5 H 0.8932 0.3605 0.5594
C47_5 C 0.88827(18) 0.33239(17) 0.62739(16)
H24_5 H 0.8532 0.3421 0.6277
C48_5 C 0.9829(2) 0.3766(2) 0.51277(19)
N3_5 N 0.97719(17) 0.45594(16) 0.45164(15)
N5_5 N 0.90922(17) 0.48556(16) 0.49093(16)
H27_5 H 0.8911 0.4805 0.5152
N9_5 N 0.9626(2) 0.0230(2) 0.04213(17)
N11_5 N 0.98925(17) 0.33690(17) 0.54464(15)
N12_5 N 0.94794(17) 0.41236(17) 0.51871(15)
O5_3 O 0.87396(13) 0.67298(12) 0.34578(11)
O6_3 O 0.80187(12) 0.67925(12) 0.38092(11)
O11_3 O 0.91241(11) 0.27886(10) 0.74906(9)
O12_3 O 0.83945(13) 0.30856(15) 0.70694(12)
Zn5_3 Zn 0.75727(2) 0.71856(2) 0.330190(19)
Zn9_3 Zn 0.77276(2) 0.26724(2) 0.716988(19)
Zn10_2 Zn 0.87146(2) 0.732283(19) 0.302290(17)
Zn11 Zn 0.87146(2) 0.267717(19) 0.802290(17)
C9_5 C 0.89756(19) 0.17350(18) 0.85702(15)
C10_5 C 0.9329(2) 0.1461(2) 0.89482(16)
C11_5 C 0.9184(2) 0.0995(2) 0.91182(18)
H5_5 H 0.8882 0.0831 0.8958
C12_5 C 0.9473(3) 0.0763(2) 0.9518(2)
H6_5 H 0.9369 0.0443 0.9631
C13_5 C 0.9911(2) 0.1000(2) 0.97519(18)
C15_5 C 0.9787(2) 0.1681(2) 0.91664(16)
H8_5 H 0.9900 0.1992 0.9041
O3_3 O 0.85336(14) 0.15311(13) 0.84343(11)
O4_3 O 0.91220(12) 0.21461(11) 0.84043(10)
Zn7_3 Zn 0.79559(2) 0.17755(2) 0.796174(18)
C24_5 C 0.8112(3) 0.8425(2) 0.19950(16)
C25_5 C 0.8364(3) 0.8761(2) 0.16602(16)
C26_5 C 0.8606(3) 0.9190(3) 0.18223(19)
H13_5 H 0.8611 0.9287 0.2155
C27_5 C 0.8849(3) 0.9495(3) 0.1512(2)
H14_5 H 0.9018 0.9798 0.1634
C28_5 C 0.8846(2) 0.9363(2) 0.10257(18)
C29_5 C 0.8606(4) 0.8937(3) 0.08591(19)
H15_5 H 0.8591 0.8850 0.0523
C30_5 C 0.8378(4) 0.8616(3) 0.1174(2)
H16_5 H 0.8232 0.8301 0.1058
C40_5 C 0.9509(3) 0.9953(3) 0.0800(2)
N6_5 N 0.9072(2) 0.9669(2) 0.06981(16)
H28_5 H 0.8916 0.9678 0.0394
N10_5 N 0.97771(19) 0.9937(2) 0.12548(16)
O7_3 O 0.80236(16) 0.86259(12) 0.23939(11)
O8_3 O 0.8034(2) 0.79704(16) 0.18768(12)
Zn6_2 Zn 0.79559(2) 0.82245(2) 0.296174(18)
Zn8_2 Zn 0.77276(2) 0.73276(2) 0.216988(19)
C16_6 C 0.34480(19) 0.15954(16) 0.37612(15)
C17_6 C 0.36210(19) 0.11452(18) 0.40747(16)
C18_6 C 0.4093(2) 0.09205(19) 0.4027(2)
H9_6 H 0.4303 0.1060 0.3804
C19_6 C 0.4264(2) 0.0498(2) 0.4298(2)
H10_6 H 0.4592 0.0353 0.4265
C20_6 C 0.3955(2) 0.02835(18) 0.46207(18)
C21_6 C 0.34969(18) 0.05338(18) 0.46920(17)
H11_6 H 0.3299 0.0414 0.4934
C22_6 C 0.33328(18) 0.09469(18) 0.44175(17)
H12_6 H 0.3013 0.1103 0.4462
C1_6 C 0.70933(18) 0.81630(17) 0.35192(16)
C2_6 C 0.66402(19) 0.84219(17) 0.36865(16)
C3_6 C 0.6362(2) 0.8203(2) 0.4022(2)
H1_6 H 0.6453 0.7873 0.4142
C4_6 C 0.5952(2) 0.8455(2) 0.4187(2)
H2_6 H 0.5765 0.8300 0.4421
C5_6 C 0.5816(2) 0.89411(19) 0.40066(17)
C6_6 C 0.6091(2) 0.91562(18) 0.36597(18)
H3_6 H 0.5997 0.9481 0.3528
C7_6 C 0.65033(18) 0.88955(17) 0.35067(15)
H4_6 H 0.6694 0.9047 0.3274
C8_6 C 0.5109(2) 0.9169(2) 0.45015(18)
C23_6 C 0.4469(2) 0.9505(2) 0.4865(2)
C24_6 C 0.3112(3) 0.3425(2) 0.19950(16)
C25_6 C 0.3364(3) 0.3761(2) 0.16602(16)
C26_6 C 0.3606(3) 0.4190(3) 0.18223(19)
H13_6 H 0.3611 0.4287 0.2155
C27_6 C 0.3849(3) 0.4495(3) 0.1512(2)
H14_6 H 0.4018 0.4798 0.1634
C28_6 C 0.3846(2) 0.4363(2) 0.10257(18)
C29_6 C 0.3606(4) 0.3937(3) 0.08591(19)
H15_6 H 0.3591 0.3850 0.0523
C30_6 C 0.3378(4) 0.3616(3) 0.1174(2)
H16_6 H 0.3232 0.3301 0.1058
C31_6 C 0.70590(19) 0.65335(18) 0.2622(2)
C32_6 C 0.66595(18) 0.6169(2) 0.2412(2)
C33_6 C 0.6614(2) 0.6064(3) 0.1911(2)
H17_6 H 0.6849 0.6217 0.1720
C34_6 C 0.6233(2) 0.5743(3) 0.1688(2)
H18_6 H 0.6215 0.5671 0.1348
C35_6 C 0.5874(2) 0.5524(2) 0.19614(19)
C36_6 C 0.5939(2) 0.5606(2) 0.24637(18)
H19_6 H 0.5718 0.5439 0.2659
C37_6 C 0.63268(19) 0.5931(2) 0.2688(2)
H20_6 H 0.6360 0.5989 0.3031
C38_6 C 0.5204(2) 0.5215(2) 0.12963(18)
C39_6 C 0.5057(3) 0.5500(3) 0.0527(2)
C40_6 C 0.4509(3) 0.4953(3) 0.0800(2)
C41_6 C 0.38634(17) 0.79700(15) 0.71023(15)
C42_6 C 0.41419(16) 0.80774(15) 0.66768(14)
C43_6 C 0.46576(18) 0.79279(15) 0.66642(15)
H21_6 H 0.4841 0.7753 0.6936
C44_6 C 0.49015(18) 0.80327(16) 0.62597(16)
H22_6 H 0.5251 0.7931 0.6256
C45_6 C 0.46359(19) 0.82870(17) 0.58582(17)
C46_6 C 0.41182(19) 0.8433(2) 0.58657(17)
H23_6 H 0.3932 0.8605 0.5594
C47_6 C 0.38827(18) 0.83239(17) 0.62739(16)
H24_6 H 0.3532 0.8421 0.6277
C48_6 C 0.4829(2) 0.8766(2) 0.51277(19)
N1_6 N 0.54134(19) 0.92313(17) 0.41368(16)
H25_6 H 0.5340 0.9503 0.3954
N2_6 N 0.51535(19) 0.87625(16) 0.47830(15)
N3_6 N 0.47719(17) 0.95594(16) 0.45164(15)
N4_6 N 0.5199(2) 0.5827(2) 0.01877(17)
H26_6 H 0.5516 0.5948 0.0251
N5_6 N 0.40922(17) 0.98556(16) 0.49093(16)
H27_6 H 0.3911 0.9805 0.5152
N6_6 N 0.4072(2) 0.4669(2) 0.06981(16)
H28_6 H 0.3916 0.4678 0.0394
N7_6 N 0.54684(17) 0.5215(2) 0.17631(15)
H29_4 H 0.5366 0.4988 0.1964
N8_6 N 0.53717(19) 0.5506(2) 0.09548(15)
N9_6 N 0.4626(2) 0.5230(2) 0.04213(17)
N10_6 N 0.47771(19) 0.4937(2) 0.12548(16)
N11_6 N 0.48925(17) 0.83690(17) 0.54464(15)
H30_6 H 0.5119 0.8137 0.5389
N12_6 N 0.44794(17) 0.91236(17) 0.51871(15)
O1_6 O 0.71786(13) 0.76989(12) 0.36376(11)
O2_6 O 0.73488(13) 0.84184(12) 0.32549(12)
O9_6 O 0.70426(13) 0.66968(13) 0.30540(14)
O10_6 O 0.74088(15) 0.66502(14) 0.23772(18)
O11_4 O 0.41241(11) 0.77886(10) 0.74906(9)
O12_4 O 0.33945(13) 0.80856(15) 0.70694(12)
O13_6 O 0.7083(3) 0.7706(3) 0.2269(3)
O14_6 O 0.7400(2) 0.71644(19) 0.14608(18)
O15_6 O 0.79986(10) 0.75091(10) 0.28748(9)
O16_4 O 0.85336(14) 0.84689(13) 0.34343(11)
O17_4 O 0.91220(12) 0.78539(11) 0.34043(10)
O22_4 O 0.91241(11) 0.72114(10) 0.24906(9)
O23_4 O 0.83945(13) 0.69144(15) 0.20694(12)
Zn9_4 Zn 0.27276(2) 0.76724(2) 0.716988(19)
Zn11_2 Zn 0.37146(2) 0.767717(19) 0.802290(17)
H31_6 H 0.701787 0.713707 0.144708
H32_6 H 0.748403 0.743991 0.123839
H33_6 H 0.702125 0.767111 0.261546
H34_6 H 0.712489 0.807053 0.219131
C9_6 C 0.39756(19) 0.67350(18) 0.85702(15)
C10_6 C 0.4329(2) 0.6461(2) 0.89482(16)
C11_6 C 0.4184(2) 0.5995(2) 0.91182(18)
H5_6 H 0.3882 0.5831 0.8958
C12_6 C 0.4473(3) 0.5763(2) 0.9518(2)
H6_6 H 0.4369 0.5443 0.9631
C13_6 C 0.4911(2) 0.6000(2) 0.97519(18)
C14_4 C 0.5079(2) 0.6457(2) 0.95615(16)
H7_4 H 0.5393 0.6610 0.9706
C15_6 C 0.4787(2) 0.6681(2) 0.91664(16)
H8_6 H 0.4900 0.6992 0.9041
O3_4 O 0.35336(14) 0.65311(13) 0.84343(11)
O4_4 O 0.41220(12) 0.71461(11) 0.84043(10)
Zn7_4 Zn 0.29559(2) 0.67755(2) 0.796174(18)
C1_7 C 0.20933(18) 0.68370(17) 0.85192(16)
C2_7 C 0.16402(19) 0.65781(17) 0.86865(16)
C3_7 C 0.1362(2) 0.6797(2) 0.9022(2)
H1_7 H 0.1453 0.7127 0.9142
C4_7 C 0.0952(2) 0.6545(2) 0.9187(2)
H2_7 H 0.0765 0.6700 0.9421
C5_7 C 0.0816(2) 0.60589(19) 0.90066(17)
C6_7 C 0.1091(2) 0.58438(18) 0.86597(18)
H3_7 H 0.0997 0.5519 0.8528
C7_7 C 0.15033(18) 0.61045(17) 0.85067(15)
H4_7 H 0.1694 0.5953 0.8274
C8_7 C 0.0109(2) 0.5831(2) 0.95015(18)
C14_5 C 0.0079(2) 0.8543(2) 0.45615(16)
H7_5 H 0.0393 0.8390 0.4706
C31_7 C 0.20590(19) 0.84665(18) 0.7622(2)
C32_7 C 0.16595(18) 0.8831(2) 0.7412(2)
C33_7 C 0.1614(2) 0.8936(3) 0.6911(2)
H17_7 H 0.1849 0.8783 0.6720
C34_7 C 0.1233(2) 0.9257(3) 0.6688(2)
H18_7 H 0.1215 0.9329 0.6348
C35_7 C 0.0874(2) 0.9476(2) 0.69614(19)
C36_7 C 0.0939(2) 0.9394(2) 0.74637(18)
H19_7 H 0.0718 0.9561 0.7659
C37_7 C 0.13268(19) 0.9069(2) 0.7688(2)
H20_7 H 0.1360 0.9011 0.8031
C38_7 C 0.0204(2) 0.9785(2) 0.62963(18)
C39_7 C 0.0057(3) 0.9500(3) 0.5527(2)
N1_7 N 0.04134(19) 0.57687(17) 0.91368(16)
H25_7 H 0.0340 0.5497 0.8954
N2_7 N 0.01535(19) 0.62375(16) 0.97830(15)
N4_7 N 0.0199(2) 0.9173(2) 0.51877(17)
H26_7 H 0.0516 0.9052 0.5251
N7_7 N 0.04684(17) 0.9785(2) 0.67631(15)
N8_7 N 0.03717(19) 0.9494(2) 0.59548(15)
O1_7 O 0.21786(13) 0.73011(12) 0.86376(11)
O2_7 O 0.23488(13) 0.65816(12) 0.82549(12)
O9_7 O 0.20426(13) 0.83032(13) 0.80540(14)
O10_7 O 0.24088(15) 0.83498(14) 0.73772(18)
O13_7 O 0.2083(3) 0.7294(3) 0.7269(3)
O14_7 O 0.2400(2) 0.78356(19) 0.64608(18)
O15_7 O 0.29986(10) 0.74909(10) 0.78748(9)
Zn1_4 Zn 0.25727(2) 0.78144(2) 0.830190(19)
O18_4 O 0.37396(13) 0.82702(12) 0.84578(11)
O19_4 O 0.30187(12) 0.82075(12) 0.88092(11)
O20_4 O 0.30236(16) 0.63741(12) 0.73939(11)
O21_4 O 0.3034(2) 0.70296(16) 0.68768(12)
H31_7 H 0.201787 0.786293 0.644708
H32_7 H 0.248403 0.756009 0.623839
H33_7 H 0.202125 0.732889 0.761546
H34_7 H 0.212489 0.692947 0.719131
C24_7 C 0.8112(3) 0.1575(2) 0.69950(16)
C25_7 C 0.8364(3) 0.1239(2) 0.66602(16)
C26_7 C 0.8606(3) 0.0810(3) 0.68223(19)
H13_7 H 0.8611 0.0713 0.7155
C27_7 C 0.8849(3) 0.0505(3) 0.6512(2)
H14_7 H 0.9018 0.0202 0.6634
C28_7 C 0.8846(2) 0.0637(2) 0.60257(18)
C29_7 C 0.8606(4) 0.1063(3) 0.58591(19)
H15_7 H 0.8591 0.1150 0.5523
C30_7 C 0.8378(4) 0.1384(3) 0.6174(2)
H16_7 H 0.8232 0.1699 0.6058
C40_7 C 0.9509(3) 0.0047(3) 0.5800(2)
N6_7 N 0.9072(2) 0.0331(2) 0.56981(16)
H28_7 H 0.8916 0.0322 0.5394
N10_7 N 0.97771(19) 0.0063(2) 0.62548(16)
O7_4 O 0.80236(16) 0.13741(12) 0.73939(11)
O8_4 O 0.8034(2) 0.20296(16) 0.68768(12)
C41_7 C 0.88634(17) 0.70300(15) 0.21023(15)
C42_7 C 0.91419(16) 0.69226(15) 0.16768(14)
C43_7 C 0.96576(18) 0.70721(15) 0.16642(15)
H21_7 H 0.9841 0.7247 0.1936
C44_7 C 0.99015(18) 0.69673(16) 0.12597(16)
C45_7 C 0.96359(19) 0.67130(17) 0.08582(17)
C46_7 C 0.91182(19) 0.6567(2) 0.08657(17)
H23_7 H 0.8932 0.6395 0.0594
C47_7 C 0.88827(18) 0.66761(17) 0.12739(16)
H24_7 H 0.8532 0.6579 0.1277
C48_7 C 0.9829(2) 0.6234(2) 0.01277(19)
H27_7 H 0.8911 0.5195 0.0152
N11_7 N 0.98925(17) 0.66310(17) 0.04464(15)
N12_7 N 0.94794(17) 0.58764(17) 0.01871(15)
C9_7 C 0.89756(19) 0.82650(18) 0.35702(15)
C10_7 C 0.9329(2) 0.8539(2) 0.39482(16)
C11_7 C 0.9184(2) 0.9005(2) 0.41182(18)
H5_7 H 0.8882 0.9169 0.3958
C12_7 C 0.9473(3) 0.9237(2) 0.4518(2)
H6_7 H 0.9369 0.9557 0.4631
C13_7 C 0.9911(2) 0.9000(2) 0.47519(18)
C15_7 C 0.9787(2) 0.8319(2) 0.41664(16)
H8_7 H 0.9900 0.8008 0.4041
C16_7 C 0.84480(19) 0.34046(16) 0.87612(15)
C17_7 C 0.86210(19) 0.38548(18) 0.90747(16)
C18_7 C 0.9093(2) 0.40795(19) 0.9027(2)
H9_7 H 0.9303 0.3940 0.8804
C19_7 C 0.9264(2) 0.4502(2) 0.9298(2)
H10_7 H 0.9592 0.4647 0.9265
C20_7 C 0.8955(2) 0.47165(18) 0.96207(18)
C21_7 C 0.84969(18) 0.44662(18) 0.96920(17)
H11_7 H 0.8299 0.4586 0.9934
C22_7 C 0.83328(18) 0.40531(18) 0.94175(17)
H12_7 H 0.8013 0.3897 0.9462
C23_7 C 0.9469(2) 0.5495(2) 0.9865(2)
N3_7 N 0.97719(17) 0.54406(16) 0.95164(15)
N5_7 N 0.90922(17) 0.51444(16) 0.99093(16)
N9_7 N 0.9626(2) 0.9770(2) 0.54213(17)
O5_4 O 0.87396(13) 0.32702(12) 0.84578(11)
O6_4 O 0.80187(12) 0.32075(12) 0.88092(11)
Zn5_4 Zn 0.75727(2) 0.28144(2) 0.830190(19)
C41_8 C 0.38634(17) 0.20300(15) 0.21023(15)
C42_8 C 0.41419(16) 0.19226(15) 0.16768(14)
C43_8 C 0.46576(18) 0.20721(15) 0.16642(15)
H21_8 H 0.4841 0.2247 0.1936
C44_8 C 0.49015(18) 0.19673(16) 0.12597(16)
H22_7 H 0.5251 0.2069 0.1256
C45_8 C 0.46359(19) 0.17130(17) 0.08582(17)
C46_8 C 0.41182(19) 0.1567(2) 0.08657(17)
H23_8 H 0.3932 0.1395 0.0594
C47_8 C 0.38827(18) 0.16761(17) 0.12739(16)
H24_8 H 0.3532 0.1579 0.1277
C48_8 C 0.4829(2) 0.1234(2) 0.01277(19)
H27_8 H 0.3911 0.0195 0.0152
N11_8 N 0.48925(17) 0.16310(17) 0.04464(15)
H30_7 H 0.5119 0.1863 0.0389
N12_8 N 0.44794(17) 0.08764(17) 0.01871(15)
C1_8 C 0.70933(18) 0.18370(17) 0.85192(16)
C2_8 C 0.66402(19) 0.15781(17) 0.86865(16)
C3_8 C 0.6362(2) 0.1797(2) 0.9022(2)
H1_8 H 0.6453 0.2127 0.9142
C4_8 C 0.5952(2) 0.1545(2) 0.9187(2)
H2_8 H 0.5765 0.1700 0.9421
C5_8 C 0.5816(2) 0.10589(19) 0.90066(17)
C6_8 C 0.6091(2) 0.08438(18) 0.86597(18)
H3_8 H 0.5997 0.0519 0.8528
C7_8 C 0.65033(18) 0.11045(17) 0.85067(15)
H4_8 H 0.6694 0.0953 0.8274
C8_8 C 0.5109(2) 0.0831(2) 0.95015(18)
C9_8 C 0.39756(19) 0.32650(18) 0.35702(15)
C10_8 C 0.4329(2) 0.3539(2) 0.39482(16)
C11_8 C 0.4184(2) 0.4005(2) 0.41182(18)
H5_8 H 0.3882 0.4169 0.3958
C12_8 C 0.4473(3) 0.4237(2) 0.4518(2)
H6_8 H 0.4369 0.4557 0.4631
C13_8 C 0.4911(2) 0.4000(2) 0.47519(18)
C14_6 C 0.5079(2) 0.3543(2) 0.45615(16)
H7_6 H 0.5393 0.3390 0.4706
C15_8 C 0.4787(2) 0.3319(2) 0.41664(16)
H8_8 H 0.4900 0.3008 0.4041
C23_8 C 0.4469(2) 0.0495(2) 0.9865(2)
C24_8 C 0.3112(3) 0.6575(2) 0.69950(16)
C25_8 C 0.3364(3) 0.6239(2) 0.66602(16)
C26_8 C 0.3606(3) 0.5810(3) 0.68223(19)
H13_8 H 0.3611 0.5713 0.7155
C27_8 C 0.3849(3) 0.5505(3) 0.6512(2)
H14_8 H 0.4018 0.5202 0.6634
C28_8 C 0.3846(2) 0.5637(2) 0.60257(18)
C29_8 C 0.3606(4) 0.6063(3) 0.58591(19)
H15_8 H 0.3591 0.6150 0.5523
C30_8 C 0.3378(4) 0.6384(3) 0.6174(2)
H16_8 H 0.3232 0.6699 0.6058
C31_8 C 0.70590(19) 0.34665(18) 0.7622(2)
C32_8 C 0.66595(18) 0.3831(2) 0.7412(2)
C33_8 C 0.6614(2) 0.3936(3) 0.6911(2)
H17_8 H 0.6849 0.3783 0.6720
C34_8 C 0.6233(2) 0.4257(3) 0.6688(2)
H18_8 H 0.6215 0.4329 0.6348
C35_8 C 0.5874(2) 0.4476(2) 0.69614(19)
C36_8 C 0.5939(2) 0.4394(2) 0.74637(18)
H19_8 H 0.5718 0.4561 0.7659
C37_8 C 0.63268(19) 0.4069(2) 0.7688(2)
H20_8 H 0.6360 0.4011 0.8031
C38_8 C 0.5204(2) 0.4785(2) 0.62963(18)
C39_8 C 0.5057(3) 0.4500(3) 0.5527(2)
C40_8 C 0.4509(3) 0.5047(3) 0.5800(2)
N1_8 N 0.54134(19) 0.07687(17) 0.91368(16)
H25_8 H 0.5340 0.0497 0.8954
N2_8 N 0.51535(19) 0.12375(16) 0.97830(15)
N3_8 N 0.47719(17) 0.04406(16) 0.95164(15)
N4_8 N 0.5199(2) 0.4173(2) 0.51877(17)
H26_8 H 0.5516 0.4052 0.5251
N5_8 N 0.40922(17) 0.01444(16) 0.99093(16)
N6_8 N 0.4072(2) 0.5331(2) 0.56981(16)
H28_8 H 0.3916 0.5322 0.5394
N7_8 N 0.54684(17) 0.4785(2) 0.67631(15)
H29_5 H 0.5366 0.5012 0.6964
N8_8 N 0.53717(19) 0.4494(2) 0.59548(15)
N9_8 N 0.4626(2) 0.4770(2) 0.54213(17)
N10_8 N 0.47771(19) 0.5063(2) 0.62548(16)
O1_8 O 0.71786(13) 0.23011(12) 0.86376(11)
O2_8 O 0.73488(13) 0.15816(12) 0.82549(12)
O9_8 O 0.70426(13) 0.33032(13) 0.80540(14)
O10_8 O 0.74088(15) 0.33498(14) 0.73772(18)
O13_8 O 0.7083(3) 0.2294(3) 0.7269(3)
O14_8 O 0.7400(2) 0.28356(19) 0.64608(18)
O15_8 O 0.79986(10) 0.24909(10) 0.78748(9)
H31_8 H 0.701787 0.286293 0.644708
H32_8 H 0.748403 0.256009 0.623839
H33_8 H 0.702125 0.232889 0.761546
H34_8 H 0.712489 0.192947 0.719131
C16_8 C 0.34480(19) 0.84046(16) 0.87612(15)
C17_8 C 0.36210(19) 0.88548(18) 0.90747(16)
C18_8 C 0.4093(2) 0.90795(19) 0.9027(2)
H9_8 H 0.4303 0.8940 0.8804
C19_8 C 0.4264(2) 0.9502(2) 0.9298(2)
H10_8 H 0.4592 0.9647 0.9265
C20_8 C 0.3955(2) 0.97165(18) 0.96207(18)
C21_8 C 0.34969(18) 0.94662(18) 0.96920(17)
H11_8 H 0.3299 0.9586 0.9934
C22_8 C 0.33328(18) 0.90531(18) 0.94175(17)
H12_8 H 0.3013 0.8897 0.9462
C14_7 C 0.0079(2) 0.1457(2) 0.95615(16)
H7_7 H 0.0393 0.1610 0.9706
H29_6 H 0.0366 0.9988 0.1964
H29_7 H 0.0366 0.0012 0.6964
H22_8 H 0.0251 0.7069 0.1256
H30_8 H 0.0119 0.6863 0.0389
H29_8 H 0.9634 0.0012 0.8036
C14_8 C 0.9921(2) 0.8543(2) 0.04385(16)
H7_8 H 0.9607 0.8390 0.0294
loop_
_geom_bond_atom_site_label_1
_geom_bond_atom_site_label_2
_geom_bond_site_symmetry_1
_geom_bond_site_symmetry_2
C9 C10 1_555 1_555
C10 C11 1_555 1_555
C11 H5 1_555 1_555
C12 C11 1_555 1_555
H6 C12 1_555 1_555
C13 C12 1_555 1_555
C15 C10 1_555 1_555
H8 C15 1_555 1_555
C16 C17 1_555 1_555
C17 C18 1_555 1_555
C18 H9 1_555 1_555
C19 C18 1_555 1_555
H10 C19 1_555 1_555
C20 C19 1_555 1_555
C21 C20 1_555 1_555
H11 C21 1_555 1_555
C22 C17 1_555 1_555
H12 C22 1_555 1_555
C23 N3 1_555 1_555
N5 C20 1_555 1_555
O3 C9 1_555 1_555
O4 C9 1_555 1_555
O5 C16 1_555 1_555
O6 C16 1_555 1_555
Zn5 O6 1_555 1_555
Zn7 O3 1_555 1_555
Zn10 O5 1_555 1_555
Zn12 O4 1_555 1_555
C21 C22 1_555 1_555
C23 N5 1_555 1_555
C41 C42 1_555 1_555
C42 C43 1_555 1_555
C43 H21 1_555 1_555
C44 C43 1_555 1_555
C45 C44 1_555 1_555
C46 C45 1_555 1_555
H23 C46 1_555 1_555
C47 C42 1_555 1_555
H24 C47 1_555 1_555
N11 C45 1_555 1_555
O11 C41 1_555 1_555
O12 C41 1_555 1_555
Zn9 O12 1_555 1_555
Zn12 O11 1_555 1_555
C46 C47 1_555 1_555
C48 N11 1_555 1_555
C48 N12 1_555 1_555
C24 C25 1_555 1_555
C25 C26 1_555 1_555
C26 H13 1_555 1_555
C27 C26 1_555 1_555
H14 C27 1_555 1_555
C28 C27 1_555 1_555
C29 C28 1_555 1_555
H15 C29 1_555 1_555
C30 C25 1_555 1_555
H16 C30 1_555 1_555
C40 N6 1_555 1_555
N6 C28 1_555 1_555
H28 N6 1_555 1_555
O7 C24 1_555 1_555
O8 C24 1_555 1_555
Zn6 O7 1_555 1_555
Zn8 O8 1_555 1_555
C29 C30 1_555 1_555
C40 N10 1_555 1_555
C1 C2 1_555 1_555
C2 C3 1_555 1_555
C3 H1 1_555 1_555
C4 C3 1_555 1_555
H2 C4 1_555 1_555
C5 C4 1_555 1_555
C6 C5 1_555 1_555
H3 C6 1_555 1_555
C7 C2 1_555 1_555
H4 C7 1_555 1_555
C8 N1 1_555 1_555
H7 C14 1_555 1_555
C31 C32 1_555 1_555
C32 C33 1_555 1_555
C33 H17 1_555 1_555
C34 C33 1_555 1_555
H18 C34 1_555 1_555
C35 C34 1_555 1_555
C36 C35 1_555 1_555
H19 C36 1_555 1_555
C37 C32 1_555 1_555
H20 C37 1_555 1_555
C38 N7 1_555 1_555
C39 N4 1_555 1_555
N1 C5 1_555 1_555
H25 N1 1_555 1_555
N2 C8 1_555 1_555
H26 N4 1_555 1_555
N7 C35 1_555 1_555
N8 C38 1_555 1_555
O1 C1 1_555 1_555
O2 C1 1_555 1_555
O9 C31 1_555 1_555
O10 C31 1_555 1_555
O13 Zn3 1_555 1_555
O14 Zn3 1_555 1_555
O15 Zn1 1_555 1_555
Zn1 O1 1_555 1_555
Zn2 O2 1_555 1_555
Zn3 O10 1_555 1_555
Zn4 O15 1_555 1_555
O16 Zn2 1_555 1_555
O17 Zn4 1_555 1_555
O18 Zn4 1_555 1_555
O19 Zn1 1_555 1_555
O20 Zn2 1_555 1_555
O21 Zn3 1_555 1_555
O22 Zn4 1_555 1_555
O23 Zn3 1_555 1_555
C6 C7 1_555 1_555
C36 C37 1_555 1_555
C39 N8 1_555 1_555
O9 Zn1 1_555 1_555
O15 Zn2 1_555 1_555
O15 Zn3 1_555 1_555
O14 H31 1_555 1_555
O14 H32 1_555 1_555
O13 H33 1_555 1_555
O13 H34 1_555 1_555
C16_2 C17_2 1_555 1_555
C17_2 C18_2 1_555 1_555
C18_2 H9_2 1_555 1_555
C19_2 C18_2 1_555 1_555
H10_2 C19_2 1_555 1_555
C20_2 C19_2 1_555 1_555
C21_2 C20_2 1_555 1_555
H11_2 C21_2 1_555 1_555
C22_2 C17_2 1_555 1_555
H12_2 C22_2 1_555 1_555
O18 C16_2 1_555 1_555
O19 C16_2 1_555 1_555
C21_2 C22_2 1_555 1_555
C1_2 C2_2 1_555 1_555
C2_2 C3_2 1_555 1_555
C3_2 H1_2 1_555 1_555
C4_2 C3_2 1_555 1_555
H2_2 C4_2 1_555 1_555
C5_2 C4_2 1_555 1_555
C6_2 C5_2 1_555 1_555
H3_2 C6_2 1_555 1_555
C7_2 C2_2 1_555 1_555
H4_2 C7_2 1_555 1_555
C8_2 N1_2 1_555 1_555
C9_2 C10_2 1_555 1_555
C10_2 C11_2 1_555 1_555
C11_2 H5_2 1_555 1_555
C12_2 C11_2 1_555 1_555
H6_2 C12_2 1_555 1_555
C13_2 C12_2 1_555 1_555
C14_2 C13_2 1_555 1_555
H7_2 C14_2 1_555 1_555
C15_2 C10_2 1_555 1_555
H8_2 C15_2 1_555 1_555
C23_2 N3_2 1_555 1_555
C24_2 C25_2 1_555 1_555
C25_2 C26_2 1_555 1_555
C26_2 H13_2 1_555 1_555
C27_2 C26_2 1_555 1_555
H14_2 C27_2 1_555 1_555
C28_2 C27_2 1_555 1_555
C29_2 C28_2 1_555 1_555
H15_2 C29_2 1_555 1_555
C30_2 C25_2 1_555 1_555
H16_2 C30_2 1_555 1_555
C31_2 C32_2 1_555 1_555
C32_2 C33_2 1_555 1_555
C33_2 H17_2 1_555 1_555
C34_2 C33_2 1_555 1_555
H18_2 C34_2 1_555 1_555
C35_2 C34_2 1_555 1_555
C36_2 C35_2 1_555 1_555
H19_2 C36_2 1_555 1_555
C37_2 C32_2 1_555 1_555
H20_2 C37_2 1_555 1_555
C38_2 N7_2 1_555 1_555
C39_2 N4_2 1_555 1_555
C40_2 N6_2 1_555 1_555
N1_2 C5_2 1_555 1_555
H25_2 N1_2 1_555 1_555
N2_2 C8_2 1_555 1_555
N3_2 C8_2 1_555 1_555
N4_2 C13_2 1_555 1_555
H26_2 N4_2 1_555 1_555
N6_2 C28_2 1_555 1_555
H28_2 N6_2 1_555 1_555
N7_2 C35_2 1_555 1_555
H29 N7_2 1_555 1_555
N8_2 C38_2 1_555 1_555
N9_2 C39_2 1_555 1_555
N10_2 C38_2 1_555 1_555
O1_2 C1_2 1_555 1_555
O2_2 C1_2 1_555 1_555
O3_2 C9_2 1_555 1_555
O4_2 C9_2 1_555 1_555
O20 C24_2 1_555 1_555
O21 C24_2 1_555 1_555
O9_2 C31_2 1_555 1_555
O10_2 C31_2 1_555 1_555
O13_2 Zn8 1_555 1_555
O14_2 Zn8 1_555 1_555
O15_2 Zn5 1_555 1_555
Zn5 O1_2 1_555 1_555
Zn6 O2_2 1_555 1_555
Zn8 O10_2 1_555 1_555
Zn10 O15_2 1_555 1_555
O16_2 Zn6 1_555 1_555
O17_2 Zn10 1_555 1_555
O22_2 Zn10 1_555 1_555
O23_2 Zn8 1_555 1_555
Zn7_2 O3_2 1_555 1_555
Zn12_2 O4_2 1_555 1_555
C6_2 C7_2 1_555 1_555
C14_2 C15_2 1_555 1_555
C23_2 N5_2 1_555 1_555
C29_2 C30_2 1_555 1_555
C36_2 C37_2 1_555 1_555
C39_2 N8_2 1_555 1_555
C40_2 N9_2 1_555 1_555
C40_2 N10_2 1_555 1_555
O9_2 Zn5 1_555 1_555
O15_2 Zn6 1_555 1_555
O15_2 Zn8 1_555 1_555
O14_2 H31_2 1_555 1_555
O14_2 H32_2 1_555 1_555
O13_2 H33_2 1_555 1_555
O13_2 H34_2 1_555 1_555
C41_2 C42_2 1_555 1_555
C42_2 C43_2 1_555 1_555
C43_2 H21_2 1_555 1_555
C44_2 C43_2 1_555 1_555
H22 C44_2 1_555 1_555
C45_2 C44_2 1_555 1_555
C46_2 C45_2 1_555 1_555
H23_2 C46_2 1_555 1_555
C47_2 C42_2 1_555 1_555
H24_2 C47_2 1_555 1_555
N11_2 C45_2 1_555 1_555
H30 N11_2 1_555 1_555
O11_2 C41_2 1_555 1_555
O12_2 C41_2 1_555 1_555
Zn9_2 O12_2 1_555 1_555
Zn12_2 O11_2 1_555 1_555
C46_2 C47_2 1_555 1_555
C48_2 N11_2 1_555 1_555
C48_2 N12_2 1_555 1_555
C24_3 C25_3 1_555 1_555
C25_3 C26_3 1_555 1_555
C26_3 H13_3 1_555 1_555
C27_3 C26_3 1_555 1_555
H14_3 C27_3 1_555 1_555
C28_3 C27_3 1_555 1_555
C29_3 C28_3 1_555 1_555
H15_3 C29_3 1_555 1_555
C30_3 C25_3 1_555 1_555
H16_3 C30_3 1_555 1_555
C40_3 N6_3 1_555 1_555
N6_3 C28_3 1_555 1_555
H28_3 N6_3 1_555 1_555
O7_2 C24_3 1_555 1_555
O8_2 C24_3 1_555 1_555
Zn7 O7_2 1_555 1_555
Zn9 O8_2 1_555 1_555
C29_3 C30_3 1_555 1_555
C40_3 N10_3 1_555 1_555
C9_3 C10_3 1_555 1_555
C10_3 C11_3 1_555 1_555
C11_3 H5_3 1_555 1_555
C12_3 C11_3 1_555 1_555
H6_3 C12_3 1_555 1_555
C13_3 C12_3 1_555 1_555
C15_3 C10_3 1_555 1_555
H8_3 C15_3 1_555 1_555
O16_2 C9_3 1_555 1_555
O17_2 C9_3 1_555 1_555
C16_3 C17_3 1_555 1_555
C17_3 C18_3 1_555 1_555
C18_3 H9_3 1_555 1_555
C19_3 C18_3 1_555 1_555
H10_3 C19_3 1_555 1_555
C20_3 C19_3 1_555 1_555
C21_3 C20_3 1_555 1_555
H11_3 C21_3 1_555 1_555
C22_3 C17_3 1_555 1_555
H12_3 C22_3 1_555 1_555
C23_3 N3_3 1_555 1_555
C41_3 C42_3 1_555 1_555
C42_3 C43_3 1_555 1_555
C43_3 H21_3 1_555 1_555
C44_3 C43_3 1_555 1_555
C45_3 C44_3 1_555 1_555
C46_3 C45_3 1_555 1_555
H23_3 C46_3 1_555 1_555
C47_3 C42_3 1_555 1_555
H24_3 C47_3 1_555 1_555
N5_3 C20_3 1_555 1_555
H27_3 N5_3 1_555 1_555
N11_3 C45_3 1_555 1_555
N12_3 C23_3 1_555 1_555
O5_2 C16_3 1_555 1_555
O6_2 C16_3 1_555 1_555
O22_2 C41_3 1_555 1_555
O23_2 C41_3 1_555 1_555
Zn5_2 O6_2 1_555 1_555
Zn12 O5_2 1_555 1_555
C21_3 C22_3 1_555 1_555
C23_3 N5_3 1_555 1_555
C46_3 C47_3 1_555 1_555
C48_3 N11_3 1_555 1_555
C48_3 N12_3 1_555 1_555
C1_3 C2_3 1_555 1_555
C2_3 C3_3 1_555 1_555
C3_3 H1_3 1_555 1_555
C4_3 C3_3 1_555 1_555
H2_3 C4_3 1_555 1_555
C5_3 C4_3 1_555 1_555
C6_3 C5_3 1_555 1_555
H3_3 C6_3 1_555 1_555
C7_3 C2_3 1_555 1_555
H4_3 C7_3 1_555 1_555
C8_3 N1_3 1_555 1_555
C31_3 C32_3 1_555 1_555
C32_3 C33_3 1_555 1_555
C33_3 H17_3 1_555 1_555
C34_3 C33_3 1_555 1_555
H18_3 C34_3 1_555 1_555
C35_3 C34_3 1_555 1_555
C36_3 C35_3 1_555 1_555
H19_3 C36_3 1_555 1_555
C37_3 C32_3 1_555 1_555
H20_3 C37_3 1_555 1_555
C38_3 N7_3 1_555 1_555
C39_3 N4_3 1_555 1_555
N1_3 C5_3 1_555 1_555
H25_3 N1_3 1_555 1_555
N2_3 C8_3 1_555 1_555
H26_3 N4_3 1_555 1_555
N7_3 C35_3 1_555 1_555
N8_3 C38_3 1_555 1_555
O1_3 C1_3 1_555 1_555
O2_3 C1_3 1_555 1_555
O9_3 C31_3 1_555 1_555
O10_3 C31_3 1_555 1_555
O13_3 Zn9_2 1_555 1_555
O14_3 Zn9_2 1_555 1_555
O15_3 Zn1_2 1_555 1_555
Zn1_2 O1_3 1_555 1_555
Zn7_2 O2_3 1_555 1_555
Zn9_2 O10_3 1_555 1_555
Zn12_2 O15_3 1_555 1_555
O18_2 Zn12_2 1_555 1_555
O19_2 Zn1_2 1_555 1_555
O20_2 Zn7_2 1_555 1_555
O21_2 Zn9_2 1_555 1_555
C6_3 C7_3 1_555 1_555
C36_3 C37_3 1_555 1_555
C39_3 N8_3 1_555 1_555
O9_3 Zn1_2 1_555 1_555
O15_3 Zn7_2 1_555 1_555
O15_3 Zn9_2 1_555 1_555
O14_3 H31_3 1_555 1_555
O14_3 H32_3 1_555 1_555
O13_3 H33_3 1_555 1_555
O13_3 H34_3 1_555 1_555
C9_4 C10_4 1_555 1_555
C10_4 C11_4 1_555 1_555
C11_4 H5_4 1_555 1_555
C12_4 C11_4 1_555 1_555
H6_4 C12_4 1_555 1_555
C13_4 C12_4 1_555 1_555
C14_3 C13_4 1_555 1_555
H7_3 C14_3 1_555 1_555
C15_4 C10_4 1_555 1_555
H8_4 C15_4 1_555 1_555
O16 C9_4 1_555 1_555
O17 C9_4 1_555 1_555
C14_3 C15_4 1_555 1_555
C1_4 C2_4 1_555 1_555
C2_4 C3_4 1_555 1_555
C3_4 H1_4 1_555 1_555
C4_4 C3_4 1_555 1_555
H2_4 C4_4 1_555 1_555
C5_4 C4_4 1_555 1_555
C6_4 C5_4 1_555 1_555
H3_4 C6_4 1_555 1_555
C7_4 C2_4 1_555 1_555
H4_4 C7_4 1_555 1_555
C8_4 N1_4 1_555 1_555
C23_4 N3_4 1_555 1_555
C24_4 C25_4 1_555 1_555
C25_4 C26_4 1_555 1_555
C26_4 H13_4 1_555 1_555
C27_4 C26_4 1_555 1_555
H14_4 C27_4 1_555 1_555
C28_4 C27_4 1_555 1_555
C29_4 C28_4 1_555 1_555
H15_4 C29_4 1_555 1_555
C30_4 C25_4 1_555 1_555
H16_4 C30_4 1_555 1_555
C31_4 C32_4 1_555 1_555
C32_4 C33_4 1_555 1_555
C33_4 H17_4 1_555 1_555
C34_4 C33_4 1_555 1_555
H18_4 C34_4 1_555 1_555
C35_4 C34_4 1_555 1_555
C36_4 C35_4 1_555 1_555
H19_4 C36_4 1_555 1_555
C37_4 C32_4 1_555 1_555
H20_4 C37_4 1_555 1_555
C38_4 N7_4 1_555 1_555
C39_4 N4_4 1_555 1_555
C40_4 N6_4 1_555 1_555
C41_4 C42_4 1_555 1_555
C42_4 C43_4 1_555 1_555
C43_4 H21_4 1_555 1_555
C44_4 C43_4 1_555 1_555
H22_3 C44_4 1_555 1_555
C45_4 C44_4 1_555 1_555
C46_4 C45_4 1_555 1_555
H23_4 C46_4 1_555 1_555
C47_4 C42_4 1_555 1_555
H24_4 C47_4 1_555 1_555
C48_4 N2_4 1_555 1_555
N1_4 C5_4 1_555 1_555
H25_4 N1_4 1_555 1_555
N2_4 C8_4 1_555 1_555
N3_4 C8_4 1_555 1_555
H26_4 N4_4 1_555 1_555
H27_4 N5_4 1_555 1_555
N6_4 C28_4 1_555 1_555
H28_4 N6_4 1_555 1_555
N7_4 C35_4 1_555 1_555
H29_2 N7_4 1_555 1_555
N8_4 C38_4 1_555 1_555
N9_4 C39_4 1_555 1_555
N10_4 C38_4 1_555 1_555
N11_4 C45_4 1_555 1_555
H30_3 N11_4 1_555 1_555
N12_4 C23_4 1_555 1_555
O1_4 C1_4 1_555 1_555
O2_4 C1_4 1_555 1_555
O20_2 C24_4 1_555 1_555
O21_2 C24_4 1_555 1_555
O9_4 C31_4 1_555 1_555
O10_4 C31_4 1_555 1_555
O22 C41_4 1_555 1_555
O23 C41_4 1_555 1_555
O13_4 Zn9 1_555 1_555
O14_4 Zn9 1_555 1_555
O15_4 Zn5_2 1_555 1_555
Zn5_2 O1_4 1_555 1_555
Zn7 O2_4 1_555 1_555
Zn9 O10_4 1_555 1_555
Zn12 O15_4 1_555 1_555
C6_4 C7_4 1_555 1_555
C23_4 N5_4 1_555 1_555
C29_4 C30_4 1_555 1_555
C36_4 C37_4 1_555 1_555
C39_4 N8_4 1_555 1_555
C40_4 N9_4 1_555 1_555
C40_4 N10_4 1_555 1_555
C46_4 C47_4 1_555 1_555
C48_4 N11_4 1_555 1_555
C48_4 N12_4 1_555 1_555
O9_4 Zn5_2 1_555 1_555
O15_4 Zn7 1_555 1_555
O15_4 Zn9 1_555 1_555
O14_4 H31_4 1_555 1_555
O14_4 H32_4 1_555 1_555
O13_4 H33_4 1_555 1_555
O13_4 H34_4 1_555 1_555
C16_4 C17_4 1_555 1_555
C17_4 C18_4 1_555 1_555
C18_4 H9_4 1_555 1_555
C19_4 C18_4 1_555 1_555
H10_4 C19_4 1_555 1_555
C20_4 C19_4 1_555 1_555
C21_4 C20_4 1_555 1_555
H11_4 C21_4 1_555 1_555
C22_4 C17_4 1_555 1_555
H12_4 C22_4 1_555 1_555
O18_2 C16_4 1_555 1_555
O19_2 C16_4 1_555 1_555
C21_4 C22_4 1_555 1_555
C1_5 C2_5 1_555 1_555
C2_5 C3_5 1_555 1_555
C3_5 H1_5 1_555 1_555
C4_5 C3_5 1_555 1_555
H2_5 C4_5 1_555 1_555
C5_5 C4_5 1_555 1_555
C6_5 C5_5 1_555 1_555
H3_5 C6_5 1_555 1_555
C7_5 C2_5 1_555 1_555
H4_5 C7_5 1_555 1_555
C8_5 N1_5 1_555 1_555
C31_5 C32_5 1_555 1_555
C32_5 C33_5 1_555 1_555
C33_5 H17_5 1_555 1_555
C34_5 C33_5 1_555 1_555
H18_5 C34_5 1_555 1_555
C35_5 C34_5 1_555 1_555
C36_5 C35_5 1_555 1_555
H19_5 C36_5 1_555 1_555
C37_5 C32_5 1_555 1_555
H20_5 C37_5 1_555 1_555
C38_5 N7_5 1_555 1_555
C39_5 N4_5 1_555 1_555
N1_5 C5_5 1_555 1_555
H25_5 N1_5 1_555 1_555
N2_5 C8_5 1_555 1_555
H26_5 N4_5 1_555 1_555
N7_5 C35_5 1_555 1_555
N8_5 C38_5 1_555 1_555
O1_5 C1_5 1_555 1_555
O2_5 C1_5 1_555 1_555
O9_5 C31_5 1_555 1_555
O10_5 C31_5 1_555 1_555
O13_5 Zn3_2 1_555 1_555
O14_5 Zn3_2 1_555 1_555
O15_5 Zn1_3 1_555 1_555
Zn1_3 O1_5 1_555 1_555
Zn2_2 O2_5 1_555 1_555
Zn3_2 O10_5 1_555 1_555
Zn4_2 O15_5 1_555 1_555
O16_3 Zn2_2 1_555 1_555
O17_3 Zn4_2 1_555 1_555
O18_3 Zn4_2 1_555 1_555
O19_3 Zn1_3 1_555 1_555
O20_3 Zn2_2 1_555 1_555
O21_3 Zn3_2 1_555 1_555
O22_3 Zn4_2 1_555 1_555
O23_3 Zn3_2 1_555 1_555
C6_5 C7_5 1_555 1_555
C36_5 C37_5 1_555 1_555
C39_5 N8_5 1_555 1_555
O9_5 Zn1_3 1_555 1_555
O15_5 Zn2_2 1_555 1_555
O15_5 Zn3_2 1_555 1_555
O14_5 H31_5 1_555 1_555
O14_5 H32_5 1_555 1_555
O13_5 H33_5 1_555 1_555
O13_5 H34_5 1_555 1_555
C16_5 C17_5 1_555 1_555
C17_5 C18_5 1_555 1_555
C18_5 H9_5 1_555 1_555
C19_5 C18_5 1_555 1_555
H10_5 C19_5 1_555 1_555
C20_5 C19_5 1_555 1_555
C21_5 C20_5 1_555 1_555
H11_5 C21_5 1_555 1_555
C22_5 C17_5 1_555 1_555
H12_5 C22_5 1_555 1_555
C23_5 N3_5 1_555 1_555
C41_5 C42_5 1_555 1_555
C42_5 C43_5 1_555 1_555
C43_5 H21_5 1_555 1_555
C44_5 C43_5 1_555 1_555
C45_5 C44_5 1_555 1_555
C46_5 C45_5 1_555 1_555
H23_5 C46_5 1_555 1_555
C47_5 C42_5 1_555 1_555
H24_5 C47_5 1_555 1_555
N5_5 C20_5 1_555 1_555
H27_5 N5_5 1_555 1_555
N11_5 C45_5 1_555 1_555
N12_5 C23_5 1_555 1_555
O5_3 C16_5 1_555 1_555
O6_3 C16_5 1_555 1_555
O11_3 C41_5 1_555 1_555
O12_3 C41_5 1_555 1_555
Zn5_3 O6_3 1_555 1_555
Zn9_3 O12_3 1_555 1_555
Zn10_2 O5_3 1_555 1_555
Zn11 O11_3 1_555 1_555
C21_5 C22_5 1_555 1_555
C23_5 N5_5 1_555 1_555
C46_5 C47_5 1_555 1_555
C48_5 N11_5 1_555 1_555
C48_5 N12_5 1_555 1_555
C9_5 C10_5 1_555 1_555
C10_5 C11_5 1_555 1_555
C11_5 H5_5 1_555 1_555
C12_5 C11_5 1_555 1_555
H6_5 C12_5 1_555 1_555
C13_5 C12_5 1_555 1_555
C15_5 C10_5 1_555 1_555
H8_5 C15_5 1_555 1_555
O3_3 C9_5 1_555 1_555
O4_3 C9_5 1_555 1_555
Zn7_3 O3_3 1_555 1_555
Zn11 O4_3 1_555 1_555
C24_5 C25_5 1_555 1_555
C25_5 C26_5 1_555 1_555
C26_5 H13_5 1_555 1_555
C27_5 C26_5 1_555 1_555
H14_5 C27_5 1_555 1_555
C28_5 C27_5 1_555 1_555
C29_5 C28_5 1_555 1_555
H15_5 C29_5 1_555 1_555
C30_5 C25_5 1_555 1_555
H16_5 C30_5 1_555 1_555
C40_5 N6_5 1_555 1_555
N6_5 C28_5 1_555 1_555
H28_5 N6_5 1_555 1_555
O7_3 C24_5 1_555 1_555
O8_3 C24_5 1_555 1_555
Zn6_2 O7_3 1_555 1_555
Zn8_2 O8_3 1_555 1_555
C29_5 C30_5 1_555 1_555
C40_5 N10_5 1_555 1_555
C16_6 C17_6 1_555 1_555
C17_6 C18_6 1_555 1_555
C18_6 H9_6 1_555 1_555
C19_6 C18_6 1_555 1_555
H10_6 C19_6 1_555 1_555
C20_6 C19_6 1_555 1_555
C21_6 C20_6 1_555 1_555
H11_6 C21_6 1_555 1_555
C22_6 C17_6 1_555 1_555
H12_6 C22_6 1_555 1_555
O18_3 C16_6 1_555 1_555
O19_3 C16_6 1_555 1_555
C21_6 C22_6 1_555 1_555
C1_6 C2_6 1_555 1_555
C2_6 C3_6 1_555 1_555
C3_6 H1_6 1_555 1_555
C4_6 C3_6 1_555 1_555
H2_6 C4_6 1_555 1_555
C5_6 C4_6 1_555 1_555
C6_6 C5_6 1_555 1_555
H3_6 C6_6 1_555 1_555
C7_6 C2_6 1_555 1_555
H4_6 C7_6 1_555 1_555
C8_6 N1_6 1_555 1_555
C23_6 N3_6 1_555 1_555
C24_6 C25_6 1_555 1_555
C25_6 C26_6 1_555 1_555
C26_6 H13_6 1_555 1_555
C27_6 C26_6 1_555 1_555
H14_6 C27_6 1_555 1_555
C28_6 C27_6 1_555 1_555
C29_6 C28_6 1_555 1_555
H15_6 C29_6 1_555 1_555
C30_6 C25_6 1_555 1_555
H16_6 C30_6 1_555 1_555
C31_6 C32_6 1_555 1_555
C32_6 C33_6 1_555 1_555
C33_6 H17_6 1_555 1_555
C34_6 C33_6 1_555 1_555
H18_6 C34_6 1_555 1_555
C35_6 C34_6 1_555 1_555
C36_6 C35_6 1_555 1_555
H19_6 C36_6 1_555 1_555
C37_6 C32_6 1_555 1_555
H20_6 C37_6 1_555 1_555
C38_6 N7_6 1_555 1_555
C39_6 N4_6 1_555 1_555
C40_6 N6_6 1_555 1_555
C41_6 C42_6 1_555 1_555
C42_6 C43_6 1_555 1_555
C43_6 H21_6 1_555 1_555
C44_6 C43_6 1_555 1_555
H22_6 C44_6 1_555 1_555
C45_6 C44_6 1_555 1_555
C46_6 C45_6 1_555 1_555
H23_6 C46_6 1_555 1_555
C47_6 C42_6 1_555 1_555
H24_6 C47_6 1_555 1_555
C48_6 N2_6 1_555 1_555
N1_6 C5_6 1_555 1_555
H25_6 N1_6 1_555 1_555
N2_6 C8_6 1_555 1_555
N3_6 C8_6 1_555 1_555
H26_6 N4_6 1_555 1_555
H27_6 N5_6 1_555 1_555
N6_6 C28_6 1_555 1_555
H28_6 N6_6 1_555 1_555
N7_6 C35_6 1_555 1_555
H29_4 N7_6 1_555 1_555
N8_6 C38_6 1_555 1_555
N9_6 C39_6 1_555 1_555
N10_6 C38_6 1_555 1_555
N11_6 C45_6 1_555 1_555
H30_6 N11_6 1_555 1_555
N12_6 C23_6 1_555 1_555
O1_6 C1_6 1_555 1_555
O2_6 C1_6 1_555 1_555
O20_3 C24_6 1_555 1_555
O21_3 C24_6 1_555 1_555
O9_6 C31_6 1_555 1_555
O10_6 C31_6 1_555 1_555
O11_4 C41_6 1_555 1_555
O12_4 C41_6 1_555 1_555
O13_6 Zn8_2 1_555 1_555
O14_6 Zn8_2 1_555 1_555
O15_6 Zn5_3 1_555 1_555
Zn5_3 O1_6 1_555 1_555
Zn6_2 O2_6 1_555 1_555
Zn8_2 O10_6 1_555 1_555
Zn10_2 O15_6 1_555 1_555
O16_4 Zn6_2 1_555 1_555
O17_4 Zn10_2 1_555 1_555
O22_4 Zn10_2 1_555 1_555
O23_4 Zn8_2 1_555 1_555
Zn9_4 O12_4 1_555 1_555
Zn11_2 O11_4 1_555 1_555
C6_6 C7_6 1_555 1_555
C23_6 N5_6 1_555 1_555
C29_6 C30_6 1_555 1_555
C36_6 C37_6 1_555 1_555
C39_6 N8_6 1_555 1_555
C40_6 N9_6 1_555 1_555
C40_6 N10_6 1_555 1_555
C46_6 C47_6 1_555 1_555
C48_6 N11_6 1_555 1_555
C48_6 N12_6 1_555 1_555
O9_6 Zn5_3 1_555 1_555
O15_6 Zn6_2 1_555 1_555
O15_6 Zn8_2 1_555 1_555
O14_6 H31_6 1_555 1_555
O14_6 H32_6 1_555 1_555
O13_6 H33_6 1_555 1_555
O13_6 H34_6 1_555 1_555
C9_6 C10_6 1_555 1_555
C10_6 C11_6 1_555 1_555
C11_6 H5_6 1_555 1_555
C12_6 C11_6 1_555 1_555
H6_6 C12_6 1_555 1_555
C13_6 C12_6 1_555 1_555
C14_4 C13_6 1_555 1_555
H7_4 C14_4 1_555 1_555
C15_6 C10_6 1_555 1_555
H8_6 C15_6 1_555 1_555
O3_4 C9_6 1_555 1_555
O4_4 C9_6 1_555 1_555
Zn7_4 O3_4 1_555 1_555
Zn11_2 O4_4 1_555 1_555
C14_4 C15_6 1_555 1_555
C1_7 C2_7 1_555 1_555
C2_7 C3_7 1_555 1_555
C3_7 H1_7 1_555 1_555
C4_7 C3_7 1_555 1_555
H2_7 C4_7 1_555 1_555
C5_7 C4_7 1_555 1_555
C6_7 C5_7 1_555 1_555
H3_7 C6_7 1_555 1_555
C7_7 C2_7 1_555 1_555
H4_7 C7_7 1_555 1_555
C8_7 N1_7 1_555 1_555
H7_5 C14_5 1_555 1_555
C31_7 C32_7 1_555 1_555
C32_7 C33_7 1_555 1_555
C33_7 H17_7 1_555 1_555
C34_7 C33_7 1_555 1_555
H18_7 C34_7 1_555 1_555
C35_7 C34_7 1_555 1_555
C36_7 C35_7 1_555 1_555
H19_7 C36_7 1_555 1_555
C37_7 C32_7 1_555 1_555
H20_7 C37_7 1_555 1_555
C38_7 N7_7 1_555 1_555
C39_7 N4_7 1_555 1_555
N1_7 C5_7 1_555 1_555
H25_7 N1_7 1_555 1_555
N2_7 C8_7 1_555 1_555
H26_7 N4_7 1_555 1_555
N7_7 C35_7 1_555 1_555
N8_7 C38_7 1_555 1_555
O1_7 C1_7 1_555 1_555
O2_7 C1_7 1_555 1_555
O9_7 C31_7 1_555 1_555
O10_7 C31_7 1_555 1_555
O13_7 Zn9_4 1_555 1_555
O14_7 Zn9_4 1_555 1_555
O15_7 Zn1_4 1_555 1_555
Zn1_4 O1_7 1_555 1_555
Zn7_4 O2_7 1_555 1_555
Zn9_4 O10_7 1_555 1_555
Zn11_2 O15_7 1_555 1_555
O18_4 Zn11_2 1_555 1_555
O19_4 Zn1_4 1_555 1_555
O20_4 Zn7_4 1_555 1_555
O21_4 Zn9_4 1_555 1_555
C6_7 C7_7 1_555 1_555
C36_7 C37_7 1_555 1_555
C39_7 N8_7 1_555 1_555
O9_7 Zn1_4 1_555 1_555
O15_7 Zn7_4 1_555 1_555
O15_7 Zn9_4 1_555 1_555
O14_7 H31_7 1_555 1_555
O14_7 H32_7 1_555 1_555
O13_7 H33_7 1_555 1_555
O13_7 H34_7 1_555 1_555
C24_7 C25_7 1_555 1_555
C25_7 C26_7 1_555 1_555
C26_7 H13_7 1_555 1_555
C27_7 C26_7 1_555 1_555
H14_7 C27_7 1_555 1_555
C28_7 C27_7 1_555 1_555
C29_7 C28_7 1_555 1_555
H15_7 C29_7 1_555 1_555
C30_7 C25_7 1_555 1_555
H16_7 C30_7 1_555 1_555
C40_7 N6_7 1_555 1_555
N6_7 C28_7 1_555 1_555
H28_7 N6_7 1_555 1_555
O7_4 C24_7 1_555 1_555
O8_4 C24_7 1_555 1_555
Zn7_3 O7_4 1_555 1_555
Zn9_3 O8_4 1_555 1_555
C29_7 C30_7 1_555 1_555
C40_7 N10_7 1_555 1_555
C41_7 C42_7 1_555 1_555
C42_7 C43_7 1_555 1_555
C43_7 H21_7 1_555 1_555
C44_7 C43_7 1_555 1_555
C45_7 C44_7 1_555 1_555
C46_7 C45_7 1_555 1_555
H23_7 C46_7 1_555 1_555
C47_7 C42_7 1_555 1_555
H24_7 C47_7 1_555 1_555
N11_7 C45_7 1_555 1_555
O22_4 C41_7 1_555 1_555
O23_4 C41_7 1_555 1_555
C46_7 C47_7 1_555 1_555
C48_7 N11_7 1_555 1_555
C48_7 N12_7 1_555 1_555
C9_7 C10_7 1_555 1_555
C10_7 C11_7 1_555 1_555
C11_7 H5_7 1_555 1_555
C12_7 C11_7 1_555 1_555
H6_7 C12_7 1_555 1_555
C13_7 C12_7 1_555 1_555
C15_7 C10_7 1_555 1_555
H8_7 C15_7 1_555 1_555
C16_7 C17_7 1_555 1_555
C17_7 C18_7 1_555 1_555
C18_7 H9_7 1_555 1_555
C19_7 C18_7 1_555 1_555
H10_7 C19_7 1_555 1_555
C20_7 C19_7 1_555 1_555
C21_7 C20_7 1_555 1_555
H11_7 C21_7 1_555 1_555
C22_7 C17_7 1_555 1_555
H12_7 C22_7 1_555 1_555
C23_7 N3_7 1_555 1_555
N5_7 C20_7 1_555 1_555
O16_4 C9_7 1_555 1_555
O17_4 C9_7 1_555 1_555
O5_4 C16_7 1_555 1_555
O6_4 C16_7 1_555 1_555
Zn5_4 O6_4 1_555 1_555
Zn11 O5_4 1_555 1_555
C21_7 C22_7 1_555 1_555
C23_7 N5_7 1_555 1_555
C41_8 C42_8 1_555 1_555
C42_8 C43_8 1_555 1_555
C43_8 H21_8 1_555 1_555
C44_8 C43_8 1_555 1_555
H22_7 C44_8 1_555 1_555
C45_8 C44_8 1_555 1_555
C46_8 C45_8 1_555 1_555
H23_8 C46_8 1_555 1_555
C47_8 C42_8 1_555 1_555
H24_8 C47_8 1_555 1_555
N11_8 C45_8 1_555 1_555
H30_7 N11_8 1_555 1_555
O22_3 C41_8 1_555 1_555
O23_3 C41_8 1_555 1_555
C46_8 C47_8 1_555 1_555
C48_8 N11_8 1_555 1_555
C48_8 N12_8 1_555 1_555
C1_8 C2_8 1_555 1_555
C2_8 C3_8 1_555 1_555
C3_8 H1_8 1_555 1_555
C4_8 C3_8 1_555 1_555
H2_8 C4_8 1_555 1_555
C5_8 C4_8 1_555 1_555
C6_8 C5_8 1_555 1_555
H3_8 C6_8 1_555 1_555
C7_8 C2_8 1_555 1_555
H4_8 C7_8 1_555 1_555
C8_8 N1_8 1_555 1_555
C9_8 C10_8 1_555 1_555
C10_8 C11_8 1_555 1_555
C11_8 H5_8 1_555 1_555
C12_8 C11_8 1_555 1_555
H6_8 C12_8 1_555 1_555
C13_8 C12_8 1_555 1_555
C14_6 C13_8 1_555 1_555
H7_6 C14_6 1_555 1_555
C15_8 C10_8 1_555 1_555
H8_8 C15_8 1_555 1_555
C23_8 N3_8 1_555 1_555
C24_8 C25_8 1_555 1_555
C25_8 C26_8 1_555 1_555
C26_8 H13_8 1_555 1_555
C27_8 C26_8 1_555 1_555
H14_8 C27_8 1_555 1_555
C28_8 C27_8 1_555 1_555
C29_8 C28_8 1_555 1_555
H15_8 C29_8 1_555 1_555
C30_8 C25_8 1_555 1_555
H16_8 C30_8 1_555 1_555
C31_8 C32_8 1_555 1_555
C32_8 C33_8 1_555 1_555
C33_8 H17_8 1_555 1_555
C34_8 C33_8 1_555 1_555
H18_8 C34_8 1_555 1_555
C35_8 C34_8 1_555 1_555
C36_8 C35_8 1_555 1_555
H19_8 C36_8 1_555 1_555
C37_8 C32_8 1_555 1_555
H20_8 C37_8 1_555 1_555
C38_8 N7_8 1_555 1_555
C39_8 N4_8 1_555 1_555
C40_8 N6_8 1_555 1_555
N1_8 C5_8 1_555 1_555
H25_8 N1_8 1_555 1_555
N2_8 C8_8 1_555 1_555
N3_8 C8_8 1_555 1_555
N4_8 C13_8 1_555 1_555
H26_8 N4_8 1_555 1_555
N6_8 C28_8 1_555 1_555
H28_8 N6_8 1_555 1_555
N7_8 C35_8 1_555 1_555
H29_5 N7_8 1_555 1_555
N8_8 C38_8 1_555 1_555
N9_8 C39_8 1_555 1_555
N10_8 C38_8 1_555 1_555
O1_8 C1_8 1_555 1_555
O2_8 C1_8 1_555 1_555
O16_3 C9_8 1_555 1_555
O17_3 C9_8 1_555 1_555
O20_4 C24_8 1_555 1_555
O21_4 C24_8 1_555 1_555
O9_8 C31_8 1_555 1_555
O10_8 C31_8 1_555 1_555
O13_8 Zn9_3 1_555 1_555
O14_8 Zn9_3 1_555 1_555
O15_8 Zn5_4 1_555 1_555
Zn5_4 O1_8 1_555 1_555
Zn7_3 O2_8 1_555 1_555
Zn9_3 O10_8 1_555 1_555
Zn11 O15_8 1_555 1_555
C6_8 C7_8 1_555 1_555
C14_6 C15_8 1_555 1_555
C23_8 N5_8 1_555 1_555
C29_8 C30_8 1_555 1_555
C36_8 C37_8 1_555 1_555
C39_8 N8_8 1_555 1_555
C40_8 N9_8 1_555 1_555
C40_8 N10_8 1_555 1_555
O9_8 Zn5_4 1_555 1_555
O15_8 Zn7_3 1_555 1_555
O15_8 Zn9_3 1_555 1_555
O14_8 H31_8 1_555 1_555
O14_8 H32_8 1_555 1_555
O13_8 H33_8 1_555 1_555
O13_8 H34_8 1_555 1_555
C16_8 C17_8 1_555 1_555
C17_8 C18_8 1_555 1_555
C18_8 H9_8 1_555 1_555
C19_8 C18_8 1_555 1_555
H10_8 C19_8 1_555 1_555
C20_8 C19_8 1_555 1_555
C21_8 C20_8 1_555 1_555
H11_8 C21_8 1_555 1_555
C22_8 C17_8 1_555 1_555
H12_8 C22_8 1_555 1_555
O18_4 C16_8 1_555 1_555
O19_4 C16_8 1_555 1_555
C21_8 C22_8 1_555 1_555
H7_7 C14_7 1_555 1_555
H7_8 C14_8 1_555 1_555

#END
