
###############################################################################
#
# This file contains modified crystal structure data generated from the
# MOF subset of the Cambridge Structural Database (CSD) v543 
# hosted by the Cambridge Crystallographic Data Centre (CCDC).
#
# This work is licensed under the Creative Commons
# Attribution-NonCommercial-ShareAlike 4.0 International License.
# To view a copy of this license, visit
# http://creativecommons.org/licenses/by-nc-sa/4.0/
# or send a letter to
# Creative Commons, PO Box 1866, Mountain View, CA 94042, USA.
#
# CIF created using the CSD Python API on 29 September 2022
# The structure has been converted into the P1 space group
# The structure has a 3D framework
# The original CSD entry KULLEK is in the monoclinic crystal system
# The framework has been calculated to contain at least 10.0% void space
# The void calculation uses a probe of radius 1.32A, grid spacing 0.4
# H atom positions have been added when not included in the experimental data
#
###############################################################################

data_KULLEK
_chemical_formula_moiety         '(C412 H236 Co20 O92)n'
_symmetry_cell_setting           triclinic
_symmetry_space_group_name_H-M   'P 1'
_symmetry_Int_Tables_number      1
_space_group_name_Hall           'P 1'
loop_
_symmetry_equiv_pos_site_id
_symmetry_equiv_pos_as_xyz
1 x,y,z
_cell_length_a                   21.498(4)
_cell_length_b                   36.910(7)
_cell_length_c                   20.059(4)
_cell_angle_alpha                90
_cell_angle_beta                 106.852(2)
_cell_angle_gamma                90
_cell_volume                     15233.1
loop_
_atom_site_label
_atom_site_type_symbol
_atom_site_fract_x
_atom_site_fract_y
_atom_site_fract_z
C86 C 0.0343(5) 0.1721(3) 0.1830(8)
C87 C 0.0904(5) 0.1855(3) 0.1985(8)
H37 H 0.0961 0.2099 0.2146
C88 C 0.1480(5) 0.1652(3) 0.1931(8)
H38 H 0.1883 0.1775 0.2004
C89 C 0.0860(5) 0.1201(3) 0.1593(8)
H39 H 0.0801 0.0964 0.1399
C90 C 0.0310(5) 0.1392(3) 0.1649(8)
C98 C 0.2006(4) 0.1128(2) 0.1702(5)
C99 C 0.1446(5) 0.1334(3) 0.1796(8)
O17 O 0.2478(3) 0.12994(15) 0.1619(4)
O21 O 0.1946(4) 0.07946(16) 0.1649(5)
Co9 Co 0.30594(4) 0.12278(2) 0.09394(6)
Co12 Co 0.22177(6) 0.04333(3) 0.09676(7)
Co1 Co 0.35708(4) 0.038400(19) 0.04073(5)
C19 C 0.4128(3) 0.11255(15) 0.0327(3)
C20 C 0.4721(3) 0.13568(15) 0.0380(3)
C21 C 0.4682(3) 0.17243(15) 0.0415(4)
H9 H 0.4274 0.1838 0.0361
C22 C 0.5246(3) 0.19333(17) 0.0532(4)
H10 H 0.5215 0.2190 0.0548
C23 C 0.5847(3) 0.17742(16) 0.0623(3)
C24 C 0.5874(4) 0.14093(19) 0.0574(5)
H11 H 0.6278 0.1293 0.0623
C25 C 0.5306(3) 0.12043(16) 0.0450(5)
H12 H 0.5334 0.0948 0.0415
C26 C 0.6422(3) 0.19887(16) 0.0770(4)
C27 C 0.6923(3) 0.21575(16) 0.0949(3)
C28 C 0.7534(3) 0.23404(15) 0.1203(3)
C29 C 0.7569(3) 0.27115(15) 0.1314(3)
H13 H 0.7183 0.2853 0.1187
C30 C 0.8170(3) 0.28789(15) 0.1613(3)
C31 C 0.8744(3) 0.26834(16) 0.1777(3)
H14 H 0.9151 0.2800 0.1969
C32 C 0.8708(3) 0.23014(16) 0.1647(3)
C33 C 0.8106(3) 0.21376(16) 0.1380(3)
H15 H 0.8083 0.1882 0.1317
C34 C 0.8184(3) 0.32599(18) 0.1770(4)
C35 C 0.8199(4) 0.35608(19) 0.1998(5)
C36 C 0.8191(5) 0.3899(3) 0.2329(6)
C37 C 0.9293(4) 0.21007(18) 0.1768(4)
C38 C 0.9782(4) 0.19269(19) 0.1816(4)
C80 C 0.8025(5) 0.4891(2) 0.3362(5)
C81 C 0.8083(5) 0.4543(3) 0.2996(6)
C82 C 0.8652(5) 0.4397(3) 0.3024(6)
H33 H 0.9034 0.4512 0.3306
C83 C 0.8720(5) 0.4094(3) 0.2672(6)
H34 H 0.9140 0.4017 0.2665
C84 C 0.7659(5) 0.4015(3) 0.2375(6)
H35 H 0.7289 0.3863 0.2215
C85 C 0.7570(5) 0.4365(3) 0.2654(6)
H36 H 0.7147 0.4462 0.2590
H40 H 0.9903 0.1271 0.1548
C101 C 0.4884(4) 0.0297(2) 0.1672(6)
H49 H 0.5065 0.0139 0.2075
H50 H 0.4866 0.0546 0.1831
H51 H 0.5161 0.0287 0.1361
C103 C 0.2548(4) 0.2031(2) 0.0885(6)
H55 H 0.2676 0.2286 0.0877
H56 H 0.2390 0.1989 0.1290
H57 H 0.2202 0.1975 0.0458
O2 O 0.3053(2) 0.06599(11) 0.1003(3)
O4 O 0.42239(19) 0.07898(10) 0.0404(2)
O5 O 0.4260(3) 0.01803(13) 0.1316(3)
O8 O 0.2103(2) 0.00421(10) 0.0140(2)
O15 O 0.3085(3) 0.18081(14) 0.0928(4)
O19 O 0.35759(19) 0.12752(10) 0.0200(2)
O20 O 0.8521(3) 0.50472(16) 0.3774(3)
O22 O 0.7437(3) 0.50339(14) 0.3235(4)
O25 O 0.30102(16) 0.06122(8) 0.19152(17)
Co14 Co 0.77823(6) 0.54333(3) 0.40324(7)
O26 O 0.1669(2) 0.07430(11) 0.0030(2)
O30 O 0.3917(2) 0.12659(12) 0.1693(3)
O32 O 0.2230(2) 0.12568(12) 0.0116(3)
O33 O 0.1479(3) 0.00472(16) 0.1226(3)
O35 O 0.2563(3) 0.00339(14) 0.1765(4)
H58 H 0.308414 0.0876551 0.188617
H59 H 0.287853 0.0559466 0.234056
Co2 Co 0.19038(4) 0.038935(19) 0.92905(5)
Co3 Co 0.30017(4) 0.06009(2) 0.86095(5)
C102 C 0.0554(4) 0.0158(2) 0.8413(5)
H52 H 0.0148 0.0049 0.8448
H53 H 0.0734 0.0008 0.8111
H54 H 0.0466 0.0402 0.8217
O1 O 0.28454(18) 0.05965(9) 0.9528(2)
O6 O 0.4060(2) 0.01275(10) 0.9780(3)
O7 O 0.0971(3) 0.01763(15) 0.9033(3)
O12 O 0.2990(2) 0.00921(10) 0.8320(3)
O27 O 0.15553(19) 0.07686(10) 0.8521(2)
O28 O 0.3731(3) 0.08782(14) 0.8511(4)
O29 O 0.2273(2) 0.08319(12) 0.7918(3)
C39 C 0.2563(4) 0.98015(15) 0.0272(3)
C40 C 0.2368(3) 0.94136(16) 0.0223(3)
C41 C 0.2838(3) 0.91516(16) 0.0338(4)
H16 H 0.3280 0.9221 0.0424
C42 C 0.2683(3) 0.87960(16) 0.0331(4)
H17 H 0.3021 0.8621 0.0443
C43 C 0.2043(3) 0.86806(14) 0.0165(3)
C44 C 0.1556(3) 0.89468(17) 0.0033(4)
C45 C 0.1728(3) 0.93096(15) 0.0065(4)
C46 C 0.1887(3) 0.83012(15) 0.0150(3)
C47 C 0.1829(3) 0.79835(16) 0.0146(3)
C48 C 0.1798(3) 0.75965(15) 0.0166(3)
C49 C 0.2363(3) 0.73942(15) 0.0454(3)
H20 H 0.2764 0.7516 0.0649
C50 C 0.2346(3) 0.70206(16) 0.0459(3)
C51 C 0.1759(3) 0.68386(15) 0.0132(3)
H21 H 0.1749 0.6581 0.0114
C73 C 0.5827(4) 0.60825(19) 0.2798(5)
C74 C 0.5168(4) 0.62193(17) 0.2335(4)
C75 C 0.4850(3) 0.6474(2) 0.2585(4)
H31 H 0.5028 0.6562 0.3046
C76 C 0.4253(4) 0.6611(2) 0.2168(4)
H32 H 0.4029 0.6786 0.2358
C77 C 0.3996(4) 0.65015(17) 0.1521(4)
C78 C 0.3396(4) 0.66651(17) 0.1092(4)
C79 C 0.2912(3) 0.68198(16) 0.0785(3)
C93 C 0.4881(5) 0.6083(3) 0.1689(6)
H43 H 0.5087 0.5891 0.1518
C94 C 0.4296(5) 0.6219(3) 0.1273(6)
H44 H 0.4101 0.6121 0.0823
H48 H 0.4463 0.9672 0.0200
O3 O 0.3142(2) 0.98828(10) 0.0412(3)
O16 O 0.6083(2) 0.62659(12) 0.3307(3)
O23 O 0.6060(3) 0.58041(14) 0.2583(3)
Co11 Co 0.69406(4) 0.62278(2) 0.40606(6)
C1 C 0.2560(3) 0.98839(16) 0.8434(4)
C2 C 0.2574(3) 0.94977(15) 0.8215(3)
C3 C 0.3065(3) 0.93729(17) 0.7957(4)
H1 H 0.3403 0.9532 0.7924
C4 C 0.3064(4) 0.90113(18) 0.7743(4)
H2 H 0.3405 0.8924 0.7574
C5 C 0.2571(3) 0.87824(15) 0.7776(4)
C6 C 0.2086(4) 0.89117(17) 0.8038(4)
H3 H 0.1738 0.8756 0.8052
C7 C 0.2096(3) 0.92562(16) 0.8276(4)
H4 H 0.1774 0.9333 0.8485
C8 C 0.2541(3) 0.84148(17) 0.7530(4)
C9 C 0.2500(3) 0.81063(16) 0.7332(3)
C10 C 0.2429(3) 0.77322(14) 0.7151(3)
C11 C 0.2981(3) 0.75209(16) 0.7216(3)
H5 H 0.3400 0.7627 0.7377
C12 C 0.2917(3) 0.71475(14) 0.7041(3)
C13 C 0.2304(3) 0.69964(14) 0.6829(3)
H6 H 0.2259 0.6744 0.6734
C14 C 0.1819(3) 0.75740(15) 0.6910(3)
H7 H 0.1443 0.7720 0.6853
C15 C 0.3467(3) 0.69319(17) 0.7045(4)
C16 C 0.3893(3) 0.67370(17) 0.6986(4)
C17 C 0.4376(4) 0.6488(2) 0.6907(6)
C18 C 0.4203(4) 0.6122(2) 0.6767(5)
H8 H 0.3796 0.6033 0.6791
H18 H 0.1112 0.8879 0.9921
H19 H 0.1397 0.9489 0.9978
C52 C 0.1192(3) 0.70377(15) 0.9832(3)
C53 C 0.1199(3) 0.74073(15) 0.9848(3)
H22 H 0.0810 0.7540 0.9649
H24 H 0.0210 0.6444 0.7822
C61 C 0.0194(4) 0.66878(17) 0.9041(4)
C62 C 0.0606(3) 0.68485(15) 0.9418(3)
C66 C 0.0051(3) 0.63111(19) 0.5803(4)
H28 H 0.0460 0.6193 0.5890
C67 C 0.0040(3) 0.66783(18) 0.5974(3)
C70 C 0.0621(3) 0.68834(17) 0.6263(4)
C71 C 0.1124(3) 0.70429(16) 0.6497(3)
C72 C 0.1747(3) 0.72097(15) 0.6752(3)
C91 C 0.4964(4) 0.6621(2) 0.6836(5)
H41 H 0.5070 0.6871 0.6893
C92 C 0.4651(4) 0.5893(2) 0.6590(5)
H42 H 0.4542 0.5647 0.6481
C95 C 0.5722(4) 0.5761(2) 0.6361(6)
C96 C 0.5244(4) 0.6022(2) 0.6572(6)
C97 C 0.5389(4) 0.6372(2) 0.6676(5)
H45 H 0.5796 0.6456 0.6640
C100 C 0.4195(3) 0.97557(16) 0.9744(4)
H46 H 0.4428 0.9717 0.9396
H47 H 0.3786 0.9619 0.9609
O10 O 0.2128(2) 0.99779(10) 0.8702(2)
O13 O 0.6269(3) 0.58782(14) 0.6489(4)
O24 O 0.5513(3) 0.54640(14) 0.6124(3)
Co8 Co 0.69983(4) 0.56009(2) 0.63905(5)
C54 C 0.8287(3) 0.58787(15) 0.6978(4)
C55 C 0.8773(3) 0.60962(16) 0.7528(4)
C56 C 0.9356(3) 0.61946(17) 0.7422(4)
H23 H 0.9440 0.6128 0.6999
C57 C 0.9809(3) 0.63833(18) 0.7905(4)
C58 C 0.9694(3) 0.64880(17) 0.8515(4)
C59 C 0.9105(4) 0.6401(2) 0.8632(5)
H25 H 0.9017 0.6479 0.9047
C60 C 0.8642(4) 0.6197(2) 0.8140(5)
H26 H 0.8244 0.6130 0.8224
C63 C 0.8291(3) 0.60791(18) 0.5053(4)
C64 C 0.8900(3) 0.62852(15) 0.5402(4)
C65 C 0.9502(3) 0.61173(19) 0.5519(4)
H27 H 0.9528 0.5870 0.5400
C68 C 0.9444(3) 0.68392(18) 0.5867(4)
H29 H 0.9416 0.7086 0.5992
C69 C 0.8885(3) 0.6641(2) 0.5576(5)
H30 H 0.8475 0.6757 0.5495
O9 O 0.8331(2) 0.57430(11) 0.4970(2)
O11 O 0.84447(19) 0.57686(10) 0.6479(2)
O14 O 0.7727(2) 0.58319(12) 0.7082(3)
O18 O 0.7770(2) 0.62568(12) 0.4884(3)
Co6 Co 0.80962(4) 0.538935(19) 0.57095(5)
C54_2 C 0.1713(3) 0.08787(15) 0.8022(4)
C55_2 C 0.1227(3) 0.10962(16) 0.7472(4)
C56_2 C 0.0644(3) 0.11946(17) 0.7578(4)
H23_2 H 0.0560 0.1128 0.8001
C57_2 C 0.0191(3) 0.13833(18) 0.7095(4)
C58_2 C 0.0306(3) 0.14880(17) 0.6485(4)
C59_2 C 0.0895(4) 0.1401(2) 0.6368(5)
H25_2 H 0.0983 0.1479 0.5953
C60_2 C 0.1358(4) 0.1197(2) 0.6860(5)
H26_2 H 0.1756 0.1130 0.6776
C63_2 C 0.1709(3) 0.10791(18) 0.9947(4)
C64_2 C 0.1100(3) 0.12852(15) 0.9598(4)
C65_2 C 0.0498(3) 0.11173(19) 0.9481(4)
H27_2 H 0.0472 0.0870 0.9600
C68_2 C 0.0556(3) 0.18392(18) 0.9133(4)
H29_2 H 0.0584 0.2086 0.9008
C69_2 C 0.1115(3) 0.1641(2) 0.9424(5)
H30_2 H 0.1525 0.1757 0.9505
Co1_2 Co 0.64292(4) 0.538400(19) 0.45927(5)
C1_2 C 0.7440(3) 0.48839(16) 0.6566(4)
C2_2 C 0.7426(3) 0.44977(15) 0.6785(3)
C3_2 C 0.6935(3) 0.43729(17) 0.7043(4)
H1_2 H 0.6597 0.4532 0.7076
C4_2 C 0.6936(4) 0.40113(18) 0.7257(4)
H2_2 H 0.6595 0.3924 0.7426
C5_2 C 0.7429(3) 0.37824(15) 0.7224(4)
C6_2 C 0.7914(4) 0.39117(17) 0.6962(4)
H3_2 H 0.8262 0.3756 0.6948
C7_2 C 0.7904(3) 0.42562(16) 0.6724(4)
H4_2 H 0.8226 0.4333 0.6515
C8_2 C 0.7459(3) 0.34148(17) 0.7470(4)
C9_2 C 0.7500(3) 0.31063(16) 0.7668(3)
C10_2 C 0.7571(3) 0.27322(14) 0.7849(3)
C11_2 C 0.7019(3) 0.25209(16) 0.7784(3)
H5_2 H 0.6600 0.2627 0.7623
C12_2 C 0.7083(3) 0.21475(14) 0.7959(3)
C13_2 C 0.7696(3) 0.19964(14) 0.8171(3)
H6_2 H 0.7741 0.1744 0.8266
C14_2 C 0.8181(3) 0.25740(15) 0.8090(3)
H7_2 H 0.8557 0.2720 0.8147
C15_2 C 0.6533(3) 0.19319(17) 0.7955(4)
C16_2 C 0.6107(3) 0.17370(17) 0.8014(4)
C17_2 C 0.5624(4) 0.1488(2) 0.8093(6)
C18_2 C 0.5797(4) 0.1122(2) 0.8233(5)
H8_2 H 0.6204 0.1033 0.8209
C19_2 C 0.5872(3) 0.61255(15) 0.4673(3)
C20_2 C 0.5279(3) 0.63568(15) 0.4620(3)
C21_2 C 0.5318(3) 0.67243(15) 0.4585(4)
H9_2 H 0.5726 0.6838 0.4639
C22_2 C 0.4754(3) 0.69333(17) 0.4468(4)
H10_2 H 0.4785 0.7190 0.4452
C23_2 C 0.4153(3) 0.67742(16) 0.4377(3)
C24_2 C 0.4126(4) 0.64093(19) 0.4426(5)
H11_2 H 0.3722 0.6293 0.4377
C25_2 C 0.4694(3) 0.62043(16) 0.4550(5)
H12_2 H 0.4666 0.5948 0.4585
C26_2 C 0.3578(3) 0.69887(16) 0.4230(4)
C27_2 C 0.3077(3) 0.71575(16) 0.4051(3)
C28_2 C 0.2466(3) 0.73404(15) 0.3797(3)
C29_2 C 0.2431(3) 0.77115(15) 0.3686(3)
H13_2 H 0.2817 0.7853 0.3813
C30_2 C 0.1830(3) 0.78789(15) 0.3387(3)
C31_2 C 0.1256(3) 0.76834(16) 0.3223(3)
H14_2 H 0.0849 0.7800 0.3031
C32_2 C 0.1292(3) 0.73014(16) 0.3353(3)
C33_2 C 0.1894(3) 0.71376(16) 0.3620(3)
H15_2 H 0.1917 0.6882 0.3683
C34_2 C 0.1816(3) 0.82599(18) 0.3230(4)
C35_2 C 0.1801(4) 0.85608(19) 0.3002(5)
C36_2 C 0.1809(5) 0.8899(3) 0.2671(6)
C37_2 C 0.0707(4) 0.71007(18) 0.3232(4)
C38_2 C 0.0218(4) 0.69269(19) 0.3184(4)
C39_2 C 0.7437(4) 0.48015(15) 0.4728(3)
C40_2 C 0.7632(3) 0.44136(16) 0.4777(3)
C41_2 C 0.7162(3) 0.41516(16) 0.4662(4)
H16_2 H 0.6720 0.4221 0.4576
C42_2 C 0.7317(3) 0.37960(16) 0.4669(4)
H17_2 H 0.6979 0.3621 0.4557
C43_2 C 0.7957(3) 0.36806(14) 0.4835(3)
C44_2 C 0.8444(3) 0.39468(17) 0.4967(4)
H18_2 H 0.8888 0.3879 0.5079
C45_2 C 0.8272(3) 0.43096(15) 0.4935(4)
H19_2 H 0.8603 0.4489 0.5022
C46_2 C 0.8113(3) 0.33012(15) 0.4850(3)
C47_2 C 0.8171(3) 0.29835(16) 0.4854(3)
C48_2 C 0.8202(3) 0.25965(15) 0.4834(3)
C49_2 C 0.7637(3) 0.23942(15) 0.4546(3)
H20_2 H 0.7236 0.2516 0.4351
C50_2 C 0.7654(3) 0.20206(16) 0.4541(3)
C51_2 C 0.8241(3) 0.18386(15) 0.4868(3)
H21_2 H 0.8251 0.1581 0.4886
C52_2 C 0.8808(3) 0.20377(15) 0.5168(3)
C53_2 C 0.8801(3) 0.24073(15) 0.5152(3)
H22_2 H 0.9190 0.2540 0.5351
H24_2 H 0.9790 0.1444 0.7178
C61_2 C 0.9806(4) 0.16878(17) 0.5959(4)
C62_2 C 0.9394(3) 0.18485(15) 0.5582(3)
C66_2 C 0.9949(3) 0.13111(19) 0.9197(4)
H28_2 H 0.9540 0.1193 0.9110
C67_2 C 0.9960(3) 0.16783(18) 0.9026(3)
C70_2 C 0.9379(3) 0.18834(17) 0.8737(4)
C71_2 C 0.8876(3) 0.20429(16) 0.8503(3)
C72_2 C 0.8253(3) 0.22097(15) 0.8248(3)
C73_2 C 0.4173(4) 0.10825(19) 0.2202(5)
C74_2 C 0.4832(4) 0.12193(17) 0.2665(4)
C75_2 C 0.5150(3) 0.1474(2) 0.2415(4)
H31_2 H 0.4972 0.1562 0.1954
C76_2 C 0.5747(4) 0.1611(2) 0.2832(4)
H32_2 H 0.5971 0.1786 0.2642
C77_2 C 0.6004(4) 0.15015(17) 0.3479(4)
C78_2 C 0.6604(4) 0.16651(17) 0.3908(4)
C79_2 C 0.7088(3) 0.18198(16) 0.4215(3)
C80_2 C 0.1975(5) 0.9891(2) 0.1638(5)
C81_2 C 0.1917(5) 0.9543(3) 0.2004(6)
C82_2 C 0.1348(5) 0.9397(3) 0.1976(6)
H33_2 H 0.0966 0.9512 0.1694
C83_2 C 0.1280(5) 0.9094(3) 0.2328(6)
H34_2 H 0.0860 0.9017 0.2335
C84_2 C 0.2341(5) 0.9015(3) 0.2625(6)
H35_2 H 0.2711 0.8863 0.2785
C85_2 C 0.2430(5) 0.9365(3) 0.2346(6)
H36_2 H 0.2853 0.9462 0.2410
H40_2 H 0.0097 0.6271 0.3452
C91_2 C 0.5036(4) 0.1621(2) 0.8164(5)
H41_2 H 0.4930 0.1871 0.8107
C92_2 C 0.5349(4) 0.0893(2) 0.8410(5)
H42_2 H 0.5458 0.0647 0.8519
C93_2 C 0.5119(5) 0.1083(3) 0.3311(6)
H43_2 H 0.4913 0.0891 0.3482
C94_2 C 0.5704(5) 0.1219(3) 0.3727(6)
H44_2 H 0.5899 0.1121 0.4177
C95_2 C 0.4278(4) 0.0761(2) 0.8639(6)
C96_2 C 0.4756(4) 0.1022(2) 0.8428(6)
C97_2 C 0.4611(4) 0.1372(2) 0.8324(5)
H45_2 H 0.4204 0.1456 0.8360
C100_2 C 0.5805(3) 0.47557(16) 0.5256(4)
H46_2 H 0.5572 0.4717 0.5604
H47_2 H 0.6214 0.4619 0.5391
H48_2 H 0.5537 0.4672 0.4800
C101_2 C 0.5116(4) 0.5297(2) 0.3328(6)
H49_2 H 0.4935 0.5139 0.2925
H50_2 H 0.5134 0.5546 0.3169
H51_2 H 0.4839 0.5287 0.3639
C102_2 C 0.9446(4) 0.5158(2) 0.6587(5)
H52_2 H 0.9852 0.5049 0.6552
H53_2 H 0.9266 0.5008 0.6889
H54_2 H 0.9534 0.5402 0.6783
C103_2 C 0.7452(4) 0.7031(2) 0.4115(6)
H55_2 H 0.7324 0.7286 0.4123
H56_2 H 0.7610 0.6989 0.3710
H57_2 H 0.7798 0.6975 0.4542
O1_2 O 0.71546(18) 0.55965(9) 0.5472(2)
O2_2 O 0.6947(2) 0.56599(11) 0.3997(3)
O3_2 O 0.6858(2) 0.48828(10) 0.4588(3)
O4_2 O 0.57761(19) 0.57898(10) 0.4596(2)
O5_2 O 0.5740(3) 0.51803(13) 0.3684(3)
O6_2 O 0.5940(2) 0.51275(10) 0.5220(3)
O7_2 O 0.9029(3) 0.51763(15) 0.5967(3)
O8_2 O 0.7897(2) 0.50421(10) 0.4860(2)
O10_2 O 0.7872(2) 0.49779(10) 0.6298(2)
O12_2 O 0.7010(2) 0.50921(10) 0.6680(3)
O15_2 O 0.6915(3) 0.68081(14) 0.4072(4)
O19_2 O 0.64241(19) 0.62752(10) 0.4800(2)
O23_2 O 0.3940(3) 0.08041(14) 0.2417(3)
O24_2 O 0.4487(3) 0.04640(14) 0.8876(3)
O25_2 O 0.69898(16) 0.56122(8) 0.30848(17)
O31 O 0.7522(3) 0.62994(15) 0.3381(4)
O34 O 0.8054(4) 0.57946(16) 0.3351(5)
H58_2 H 0.691586 0.587655 0.311383
H59_2 H 0.712147 0.555947 0.265944
C86_2 C 0.9657(5) 0.6721(3) 0.3170(8)
C87_2 C 0.9096(5) 0.6855(3) 0.3015(8)
H37_2 H 0.9039 0.7099 0.2854
C88_2 C 0.8520(5) 0.6652(3) 0.3069(8)
H38_2 H 0.8117 0.6775 0.2996
C89_2 C 0.9140(5) 0.6201(3) 0.3407(8)
H39_2 H 0.9199 0.5964 0.3601
C90_2 C 0.9690(5) 0.6392(3) 0.3351(8)
C98_2 C 0.7994(4) 0.6128(2) 0.3298(5)
C99_2 C 0.8554(5) 0.6334(3) 0.3204(8)
C54_3 C 0.1713(3) 0.41213(15) 0.3022(4)
C55_3 C 0.1227(3) 0.39038(16) 0.2472(4)
C56_3 C 0.0644(3) 0.38054(17) 0.2578(4)
H23_3 H 0.0560 0.3872 0.3001
C57_3 C 0.0191(3) 0.36167(18) 0.2095(4)
C58_3 C 0.0306(3) 0.35120(17) 0.1485(4)
C59_3 C 0.0895(4) 0.3599(2) 0.1368(5)
H25_3 H 0.0983 0.3521 0.0953
C60_3 C 0.1358(4) 0.3803(2) 0.1860(5)
H26_3 H 0.1756 0.3870 0.1776
C63_3 C 0.1709(3) 0.39209(18) 0.4947(4)
C64_3 C 0.1100(3) 0.37148(15) 0.4598(4)
C65_3 C 0.0498(3) 0.38827(19) 0.4481(4)
H27_3 H 0.0472 0.4130 0.4600
C68_3 C 0.0556(3) 0.31608(18) 0.4133(4)
H29_3 H 0.0584 0.2914 0.4008
C69_3 C 0.1115(3) 0.3359(2) 0.4424(5)
H30_3 H 0.1525 0.3243 0.4505
O9_2 O 0.1669(2) 0.42570(11) 0.5030(2)
O11_2 O 0.15553(19) 0.42314(10) 0.3521(2)
O14_2 O 0.2273(2) 0.41681(12) 0.2918(3)
O18_2 O 0.2230(2) 0.37432(12) 0.5116(3)
Co6_2 Co 0.19038(4) 0.461065(19) 0.42905(5)
Co7 Co 0.30017(4) 0.43991(2) 0.36095(5)
Co10 Co 0.30594(4) 0.37722(2) 0.59394(6)
Co13 Co 0.22177(6) 0.45667(3) 0.59676(7)
C1_3 C 0.7440(3) 0.01161(16) 0.1566(4)
C2_3 C 0.7426(3) 0.05023(15) 0.1785(3)
C3_3 C 0.6935(3) 0.06271(17) 0.2043(4)
H1_3 H 0.6597 0.0468 0.2076
C4_3 C 0.6936(4) 0.09887(18) 0.2257(4)
H2_3 H 0.6595 0.1076 0.2426
C5_3 C 0.7429(3) 0.12176(15) 0.2224(4)
C6_3 C 0.7914(4) 0.10883(17) 0.1962(4)
H3_3 H 0.8262 0.1244 0.1948
C7_3 C 0.7904(3) 0.07438(16) 0.1724(4)
H4_3 H 0.8226 0.0667 0.1515
C8_3 C 0.7459(3) 0.15852(17) 0.2470(4)
C9_3 C 0.7500(3) 0.18937(16) 0.2668(3)
C10_3 C 0.7571(3) 0.22678(14) 0.2849(3)
C11_3 C 0.7019(3) 0.24791(16) 0.2784(3)
H5_3 H 0.6600 0.2373 0.2623
C12_3 C 0.7083(3) 0.28525(14) 0.2959(3)
C13_3 C 0.7696(3) 0.30036(14) 0.3171(3)
H6_3 H 0.7741 0.3256 0.3266
C14_3 C 0.8181(3) 0.24260(15) 0.3090(3)
H7_3 H 0.8557 0.2280 0.3147
C15_3 C 0.6533(3) 0.30681(17) 0.2955(4)
C16_3 C 0.6107(3) 0.32630(17) 0.3014(4)
C17_3 C 0.5624(4) 0.3512(2) 0.3093(6)
C18_3 C 0.5797(4) 0.3878(2) 0.3233(5)
H8_3 H 0.6204 0.3967 0.3209
H18_3 H 0.8888 0.1121 0.0079
H19_3 H 0.8603 0.0511 0.0022
C52_3 C 0.8808(3) 0.29623(15) 0.0168(3)
C53_3 C 0.8801(3) 0.25927(15) 0.0152(3)
H22_3 H 0.9190 0.2460 0.0351
H24_3 H 0.9790 0.3556 0.2178
C61_3 C 0.9806(4) 0.33122(17) 0.0959(4)
C62_3 C 0.9394(3) 0.31515(15) 0.0582(3)
C66_3 C 0.9949(3) 0.36889(19) 0.4197(4)
H28_3 H 0.9540 0.3807 0.4110
C67_3 C 0.9960(3) 0.33217(18) 0.4026(3)
C70_3 C 0.9379(3) 0.31166(17) 0.3737(4)
C71_3 C 0.8876(3) 0.29571(16) 0.3503(3)
C72_3 C 0.8253(3) 0.27903(15) 0.3248(3)
C91_3 C 0.5036(4) 0.3379(2) 0.3164(5)
H41_3 H 0.4930 0.3129 0.3107
C92_3 C 0.5349(4) 0.4107(2) 0.3410(5)
H42_3 H 0.5458 0.4353 0.3519
C95_3 C 0.4278(4) 0.4239(2) 0.3639(6)
C96_3 C 0.4756(4) 0.3978(2) 0.3428(6)
C97_3 C 0.4611(4) 0.3628(2) 0.3324(5)
H45_3 H 0.4204 0.3544 0.3360
C100_3 C 0.5805(3) 0.02443(16) 0.0256(4)
H46_3 H 0.5572 0.0283 0.0604
H47_3 H 0.6214 0.0381 0.0391
O10_3 O 0.7872(2) 0.00221(10) 0.1298(2)
O13_2 O 0.3731(3) 0.41218(14) 0.3511(4)
O24_3 O 0.4487(3) 0.45360(14) 0.3876(3)
C39_3 C 0.7437(4) 0.01985(15) 0.9728(3)
C40_3 C 0.7632(3) 0.05864(16) 0.9777(3)
C41_3 C 0.7162(3) 0.08484(16) 0.9662(4)
H16_3 H 0.6720 0.0779 0.9576
C42_3 C 0.7317(3) 0.12040(16) 0.9669(4)
H17_3 H 0.6979 0.1379 0.9557
C43_3 C 0.7957(3) 0.13194(14) 0.9835(3)
C44_3 C 0.8444(3) 0.10532(17) 0.9967(4)
C45_3 C 0.8272(3) 0.06904(15) 0.9935(4)
C46_3 C 0.8113(3) 0.16988(15) 0.9850(3)
C47_3 C 0.8171(3) 0.20165(16) 0.9854(3)
C48_3 C 0.8202(3) 0.24035(15) 0.9834(3)
C49_3 C 0.7637(3) 0.26058(15) 0.9546(3)
H20_3 H 0.7236 0.2484 0.9351
C50_3 C 0.7654(3) 0.29794(16) 0.9541(3)
C51_3 C 0.8241(3) 0.31614(15) 0.9868(3)
H21_3 H 0.8251 0.3419 0.9886
C73_3 C 0.4173(4) 0.39175(19) 0.7202(5)
C74_3 C 0.4832(4) 0.37807(17) 0.7665(4)
C75_3 C 0.5150(3) 0.3526(2) 0.7415(4)
H31_3 H 0.4972 0.3438 0.6954
C76_3 C 0.5747(4) 0.3389(2) 0.7832(4)
H32_3 H 0.5971 0.3214 0.7642
C77_3 C 0.6004(4) 0.34985(17) 0.8479(4)
C78_3 C 0.6604(4) 0.33349(17) 0.8908(4)
C79_3 C 0.7088(3) 0.31802(16) 0.9215(3)
C93_3 C 0.5119(5) 0.3917(3) 0.8311(6)
H43_3 H 0.4913 0.4109 0.8482
C94_3 C 0.5704(5) 0.3781(3) 0.8727(6)
H44_3 H 0.5899 0.3879 0.9177
H48_3 H 0.5537 0.0328 0.9800
O3_3 O 0.6858(2) 0.01172(10) 0.9588(3)
O16_2 O 0.3917(2) 0.37341(12) 0.6693(3)
O23_3 O 0.3940(3) 0.41959(14) 0.7417(3)
Co2_2 Co 0.80962(4) 0.961065(19) 0.07095(5)
Co3_2 Co 0.69983(4) 0.93991(2) 0.13905(5)
C102_3 C 0.9446(4) 0.9842(2) 0.1587(5)
H52_3 H 0.9852 0.9951 0.1552
H53_3 H 0.9266 0.9992 0.1889
H54_3 H 0.9534 0.9598 0.1783
O1_3 O 0.71546(18) 0.94035(9) 0.0472(2)
O6_3 O 0.5940(2) 0.98725(10) 0.0220(3)
O7_3 O 0.9029(3) 0.98237(15) 0.0967(3)
O12_3 O 0.7010(2) 0.99079(10) 0.1680(3)
O27_2 O 0.84447(19) 0.92314(10) 0.1479(2)
O28_2 O 0.6269(3) 0.91218(14) 0.1489(4)
O29_2 O 0.7727(2) 0.91681(12) 0.2082(3)
Co1_3 Co 0.64292(4) 0.961600(19) 0.95927(5)
Co4 Co 0.69406(4) 0.87722(2) 0.90606(6)
Co5 Co 0.77823(6) 0.95667(3) 0.90324(7)
C19_3 C 0.5872(3) 0.88745(15) 0.9673(3)
C20_3 C 0.5279(3) 0.86432(15) 0.9620(3)
C21_3 C 0.5318(3) 0.82757(15) 0.9585(4)
H9_3 H 0.5726 0.8162 0.9639
C22_3 C 0.4754(3) 0.80667(17) 0.9468(4)
H10_3 H 0.4785 0.7810 0.9452
C23_3 C 0.4153(3) 0.82258(16) 0.9377(3)
C24_3 C 0.4126(4) 0.85907(19) 0.9426(5)
H11_3 H 0.3722 0.8707 0.9377
C25_3 C 0.4694(3) 0.87957(16) 0.9550(5)
H12_3 H 0.4666 0.9052 0.9585
C26_3 C 0.3578(3) 0.80113(16) 0.9230(4)
C27_3 C 0.3077(3) 0.78425(16) 0.9051(3)
C28_3 C 0.2466(3) 0.76596(15) 0.8797(3)
C29_3 C 0.2431(3) 0.72885(15) 0.8686(3)
H13_3 H 0.2817 0.7147 0.8813
C30_3 C 0.1830(3) 0.71211(15) 0.8387(3)
C31_3 C 0.1256(3) 0.73166(16) 0.8223(3)
H14_3 H 0.0849 0.7200 0.8031
C32_3 C 0.1292(3) 0.76986(16) 0.8353(3)
C33_3 C 0.1894(3) 0.78624(16) 0.8620(3)
H15_3 H 0.1917 0.8118 0.8683
C34_3 C 0.1816(3) 0.67401(18) 0.8230(4)
C35_3 C 0.1801(4) 0.64392(19) 0.8002(5)
C36_3 C 0.1809(5) 0.6101(3) 0.7671(6)
C37_3 C 0.0707(4) 0.78993(18) 0.8232(4)
C38_3 C 0.0218(4) 0.80731(19) 0.8184(4)
C80_3 C 0.1975(5) 0.5109(2) 0.6638(5)
C81_3 C 0.1917(5) 0.5457(3) 0.7004(6)
C82_3 C 0.1348(5) 0.5603(3) 0.6976(6)
H33_3 H 0.0966 0.5488 0.6694
C83_3 C 0.1280(5) 0.5906(3) 0.7328(6)
H34_3 H 0.0860 0.5983 0.7335
C84_3 C 0.2341(5) 0.5985(3) 0.7625(6)
H35_3 H 0.2711 0.6137 0.7785
C85_3 C 0.2430(5) 0.5635(3) 0.7346(6)
H36_3 H 0.2853 0.5538 0.7410
H40_3 H 0.0097 0.8729 0.8452
C101_3 C 0.5116(4) 0.9703(2) 0.8328(6)
H49_3 H 0.4935 0.9861 0.7925
H50_3 H 0.5134 0.9454 0.8169
H51_3 H 0.4839 0.9713 0.8639
C103_3 C 0.7452(4) 0.7969(2) 0.9115(6)
H55_3 H 0.7324 0.7714 0.9123
H56_3 H 0.7610 0.8011 0.8710
H57_3 H 0.7798 0.8025 0.9542
O2_3 O 0.6947(2) 0.93401(11) 0.8997(3)
O4_3 O 0.57761(19) 0.92102(10) 0.9596(2)
O5_3 O 0.5740(3) 0.98197(13) 0.8684(3)
O8_3 O 0.7897(2) 0.99579(10) 0.9860(2)
O15_3 O 0.6915(3) 0.81919(14) 0.9072(4)
O19_3 O 0.64241(19) 0.87248(10) 0.9800(2)
O20_2 O 0.1479(3) 0.49528(16) 0.6226(3)
O22_2 O 0.2563(3) 0.49661(14) 0.6765(4)
O25_3 O 0.69898(16) 0.93878(8) 0.80848(17)
O26_2 O 0.8331(2) 0.92570(11) 0.9970(2)
O30_2 O 0.6083(2) 0.87341(12) 0.8307(3)
O31_2 O 0.7522(3) 0.87006(15) 0.8381(4)
O32_2 O 0.7770(2) 0.87432(12) 0.9884(3)
O33_2 O 0.8521(3) 0.99528(16) 0.8774(3)
O34_2 O 0.8054(4) 0.92054(16) 0.8351(5)
O35_2 O 0.7437(3) 0.99661(14) 0.8235(4)
H58_3 H 0.691586 0.912345 0.811383
H59_3 H 0.712147 0.944053 0.765944
C86_3 C 0.9657(5) 0.8279(3) 0.8170(8)
C87_3 C 0.9096(5) 0.8145(3) 0.8015(8)
H37_3 H 0.9039 0.7901 0.7854
C88_3 C 0.8520(5) 0.8348(3) 0.8069(8)
H38_3 H 0.8117 0.8225 0.7996
C89_3 C 0.9140(5) 0.8799(3) 0.8407(8)
H39_3 H 0.9199 0.9036 0.8601
C90_3 C 0.9690(5) 0.8608(3) 0.8351(8)
C98_3 C 0.7994(4) 0.8872(2) 0.8298(5)
C99_3 C 0.8554(5) 0.8666(3) 0.8204(8)
C86_4 C 0.0343(5) 0.3279(3) 0.6830(8)
C87_4 C 0.0904(5) 0.3145(3) 0.6985(8)
H37_4 H 0.0961 0.2901 0.7146
C88_4 C 0.1480(5) 0.3348(3) 0.6931(8)
H38_4 H 0.1883 0.3225 0.7004
C89_4 C 0.0860(5) 0.3799(3) 0.6593(8)
H39_4 H 0.0801 0.4036 0.6399
C90_4 C 0.0310(5) 0.3608(3) 0.6649(8)
C98_4 C 0.2006(4) 0.3872(2) 0.6702(5)
C99_4 C 0.1446(5) 0.3666(3) 0.6796(8)
O17_2 O 0.2478(3) 0.37006(15) 0.6619(4)
O21_2 O 0.1946(4) 0.42054(16) 0.6649(5)
Co1_4 Co 0.35708(4) 0.461600(19) 0.54073(5)
C1_4 C 0.2560(3) 0.51161(16) 0.3434(4)
C2_4 C 0.2574(3) 0.55023(15) 0.3215(3)
C3_4 C 0.3065(3) 0.56271(17) 0.2957(4)
H1_4 H 0.3403 0.5468 0.2924
C4_4 C 0.3064(4) 0.59887(18) 0.2743(4)
H2_4 H 0.3405 0.6076 0.2574
C5_4 C 0.2571(3) 0.62176(15) 0.2776(4)
C6_4 C 0.2086(4) 0.60883(17) 0.3038(4)
H3_4 H 0.1738 0.6244 0.3052
C7_4 C 0.2096(3) 0.57438(16) 0.3276(4)
H4_4 H 0.1774 0.5667 0.3485
C8_4 C 0.2541(3) 0.65852(17) 0.2530(4)
C9_4 C 0.2500(3) 0.68937(16) 0.2332(3)
C10_4 C 0.2429(3) 0.72678(14) 0.2151(3)
C11_4 C 0.2981(3) 0.74791(16) 0.2216(3)
H5_4 H 0.3400 0.7373 0.2377
C12_4 C 0.2917(3) 0.78525(14) 0.2041(3)
C13_4 C 0.2304(3) 0.80036(14) 0.1829(3)
H6_4 H 0.2259 0.8256 0.1734
C14_4 C 0.1819(3) 0.74260(15) 0.1910(3)
H7_4 H 0.1443 0.7280 0.1853
C15_4 C 0.3467(3) 0.80681(17) 0.2045(4)
C16_4 C 0.3893(3) 0.82630(17) 0.1986(4)
C17_4 C 0.4376(4) 0.8512(2) 0.1907(6)
C18_4 C 0.4203(4) 0.8878(2) 0.1767(5)
H8_4 H 0.3796 0.8967 0.1791
C19_4 C 0.4128(3) 0.38745(15) 0.5327(3)
C20_4 C 0.4721(3) 0.36432(15) 0.5380(3)
C21_4 C 0.4682(3) 0.32757(15) 0.5415(4)
H9_4 H 0.4274 0.3162 0.5361
C22_4 C 0.5246(3) 0.30667(17) 0.5532(4)
H10_4 H 0.5215 0.2810 0.5548
C23_4 C 0.5847(3) 0.32258(16) 0.5623(3)
C24_4 C 0.5874(4) 0.35907(19) 0.5574(5)
H11_4 H 0.6278 0.3707 0.5623
C25_4 C 0.5306(3) 0.37957(16) 0.5450(5)
H12_4 H 0.5334 0.4052 0.5415
C26_4 C 0.6422(3) 0.30113(16) 0.5770(4)
C27_4 C 0.6923(3) 0.28425(16) 0.5949(3)
C28_4 C 0.7534(3) 0.26596(15) 0.6203(3)
C29_4 C 0.7569(3) 0.22885(15) 0.6314(3)
H13_4 H 0.7183 0.2147 0.6187
C30_4 C 0.8170(3) 0.21211(15) 0.6613(3)
C31_4 C 0.8744(3) 0.23166(16) 0.6777(3)
H14_4 H 0.9151 0.2200 0.6969
C32_4 C 0.8708(3) 0.26986(16) 0.6647(3)
C33_4 C 0.8106(3) 0.28624(16) 0.6380(3)
H15_4 H 0.8083 0.3118 0.6317
C34_4 C 0.8184(3) 0.17401(18) 0.6770(4)
C35_4 C 0.8199(4) 0.14392(19) 0.6998(5)
C36_4 C 0.8191(5) 0.1101(3) 0.7329(6)
C37_4 C 0.9293(4) 0.28993(18) 0.6768(4)
C38_4 C 0.9782(4) 0.30731(19) 0.6816(4)
C39_4 C 0.2563(4) 0.51985(15) 0.5272(3)
C40_4 C 0.2368(3) 0.55864(16) 0.5223(3)
C41_4 C 0.2838(3) 0.58484(16) 0.5338(4)
H16_4 H 0.3280 0.5779 0.5424
C42_4 C 0.2683(3) 0.62040(16) 0.5331(4)
H17_4 H 0.3021 0.6379 0.5443
C43_4 C 0.2043(3) 0.63194(14) 0.5165(3)
C44_4 C 0.1556(3) 0.60532(17) 0.5033(4)
H18_4 H 0.1112 0.6121 0.4921
C45_4 C 0.1728(3) 0.56904(15) 0.5065(4)
H19_4 H 0.1397 0.5511 0.4978
C46_4 C 0.1887(3) 0.66988(15) 0.5150(3)
C47_4 C 0.1829(3) 0.70165(16) 0.5146(3)
C48_4 C 0.1798(3) 0.74035(15) 0.5166(3)
C49_4 C 0.2363(3) 0.76058(15) 0.5454(3)
H20_4 H 0.2764 0.7484 0.5649
C50_4 C 0.2346(3) 0.79794(16) 0.5459(3)
C51_4 C 0.1759(3) 0.81614(15) 0.5132(3)
H21_4 H 0.1749 0.8419 0.5114
C52_4 C 0.1192(3) 0.79623(15) 0.4832(3)
C53_4 C 0.1199(3) 0.75927(15) 0.4848(3)
H22_4 H 0.0810 0.7460 0.4649
H24_4 H 0.0210 0.8556 0.2822
C61_4 C 0.0194(4) 0.83122(17) 0.4041(4)
C62_4 C 0.0606(3) 0.81515(15) 0.4418(3)
C66_4 C 0.0051(3) 0.86889(19) 0.0803(4)
H28_4 H 0.0460 0.8807 0.0890
C67_4 C 0.0040(3) 0.83217(18) 0.0974(3)
C70_4 C 0.0621(3) 0.81166(17) 0.1263(4)
C71_4 C 0.1124(3) 0.79571(16) 0.1497(3)
C72_4 C 0.1747(3) 0.77903(15) 0.1752(3)
C73_4 C 0.5827(4) 0.89175(19) 0.7798(5)
C74_4 C 0.5168(4) 0.87807(17) 0.7335(4)
C75_4 C 0.4850(3) 0.8526(2) 0.7585(4)
H31_4 H 0.5028 0.8438 0.8046
C76_4 C 0.4253(4) 0.8389(2) 0.7168(4)
H32_4 H 0.4029 0.8214 0.7358
C77_4 C 0.3996(4) 0.84985(17) 0.6521(4)
C78_4 C 0.3396(4) 0.83349(17) 0.6092(4)
C79_4 C 0.2912(3) 0.81802(16) 0.5785(3)
C80_4 C 0.8025(5) 0.0109(2) 0.8362(5)
C81_4 C 0.8083(5) 0.0457(3) 0.7996(6)
C82_4 C 0.8652(5) 0.0603(3) 0.8024(6)
H33_4 H 0.9034 0.0488 0.8306
C83_4 C 0.8720(5) 0.0906(3) 0.7672(6)
H34_4 H 0.9140 0.0983 0.7665
C84_4 C 0.7659(5) 0.0985(3) 0.7375(6)
H35_4 H 0.7289 0.1137 0.7215
C85_4 C 0.7570(5) 0.0635(3) 0.7654(6)
H36_4 H 0.7147 0.0538 0.7590
H40_4 H 0.9903 0.3729 0.6548
C91_4 C 0.4964(4) 0.8379(2) 0.1836(5)
H41_4 H 0.5070 0.8129 0.1893
C92_4 C 0.4651(4) 0.9107(2) 0.1590(5)
H42_4 H 0.4542 0.9353 0.1481
C93_4 C 0.4881(5) 0.8917(3) 0.6689(6)
H43_4 H 0.5087 0.9109 0.6518
C94_4 C 0.4296(5) 0.8781(3) 0.6273(6)
H44_4 H 0.4101 0.8879 0.5823
C95_4 C 0.5722(4) 0.9239(2) 0.1361(6)
C96_4 C 0.5244(4) 0.8978(2) 0.1572(6)
C97_4 C 0.5389(4) 0.8628(2) 0.1676(5)
H45_4 H 0.5796 0.8544 0.1640
C100_4 C 0.4195(3) 0.52443(16) 0.4744(4)
H46_4 H 0.4428 0.5283 0.4396
H47_4 H 0.3786 0.5381 0.4609
H48_4 H 0.4463 0.5328 0.5200
C101_4 C 0.4884(4) 0.4703(2) 0.6672(6)
H49_4 H 0.5065 0.4861 0.7075
H50_4 H 0.4866 0.4454 0.6831
H51_4 H 0.5161 0.4713 0.6361
C102_4 C 0.0554(4) 0.4842(2) 0.3413(5)
H52_4 H 0.0148 0.4951 0.3448
H53_4 H 0.0734 0.4992 0.3111
H54_4 H 0.0466 0.4598 0.3217
C103_4 C 0.2548(4) 0.2969(2) 0.5885(6)
H55_4 H 0.2676 0.2714 0.5877
H56_4 H 0.2390 0.3011 0.6290
H57_4 H 0.2202 0.3025 0.5458
O1_4 O 0.28454(18) 0.44035(9) 0.4528(2)
O2_4 O 0.3053(2) 0.43401(11) 0.6003(3)
O3_4 O 0.3142(2) 0.51172(10) 0.5412(3)
O4_4 O 0.42239(19) 0.42102(10) 0.5404(2)
O5_4 O 0.4260(3) 0.48197(13) 0.6316(3)
O6_4 O 0.4060(2) 0.48725(10) 0.4780(3)
O7_4 O 0.0971(3) 0.48237(15) 0.4033(3)
O8_4 O 0.2103(2) 0.49579(10) 0.5140(2)
O10_4 O 0.2128(2) 0.50221(10) 0.3702(2)
O12_4 O 0.2990(2) 0.49079(10) 0.3320(3)
O15_4 O 0.3085(3) 0.31919(14) 0.5928(4)
O19_4 O 0.35759(19) 0.37248(10) 0.5200(2)
O23_4 O 0.6060(3) 0.91959(14) 0.7583(3)
O24_4 O 0.5513(3) 0.95360(14) 0.1124(3)
O25_4 O 0.30102(16) 0.43878(8) 0.69152(17)
H58_4 H 0.308414 0.412345 0.688617
H59_4 H 0.287853 0.444053 0.734056
C54_4 C 0.8287(3) 0.91213(15) 0.1978(4)
C55_4 C 0.8773(3) 0.89038(16) 0.2528(4)
C56_4 C 0.9356(3) 0.88054(17) 0.2422(4)
H23_4 H 0.9440 0.8872 0.1999
C57_4 C 0.9809(3) 0.86167(18) 0.2905(4)
C58_4 C 0.9694(3) 0.85120(17) 0.3515(4)
C59_4 C 0.9105(4) 0.8599(2) 0.3632(5)
H25_4 H 0.9017 0.8521 0.4047
C60_4 C 0.8642(4) 0.8803(2) 0.3140(5)
H26_4 H 0.8244 0.8870 0.3224
C63_4 C 0.8291(3) 0.89209(18) 0.0053(4)
C64_4 C 0.8900(3) 0.87148(15) 0.0402(4)
C65_4 C 0.9502(3) 0.88827(19) 0.0519(4)
H27_4 H 0.9528 0.9130 0.0400
C68_4 C 0.9444(3) 0.81608(18) 0.0867(4)
H29_4 H 0.9416 0.7914 0.0992
C69_4 C 0.8885(3) 0.8359(2) 0.0576(5)
H30_4 H 0.8475 0.8243 0.0495
loop_
_geom_bond_atom_site_label_1
_geom_bond_atom_site_label_2
_geom_bond_site_symmetry_1
_geom_bond_site_symmetry_2
C87 C86 1_555 1_555
H37 C87 1_555 1_555
C88 C87 1_555 1_555
H38 C88 1_555 1_555
C89 H39 1_555 1_555
C90 C86 1_555 1_555
C98 C99 1_555 1_555
C99 C88 1_555 1_555
O17 C98 1_555 1_555
O21 C98 1_555 1_555
Co9 O17 1_555 1_555
Co12 O21 1_555 1_555
C89 C90 1_555 1_555
C89 C99 1_555 1_555
Co9 O2 1_555 1_555
Co12 O2 1_555 1_555
C19 C20 1_555 1_555
C20 C21 1_555 1_555
C21 H9 1_555 1_555
C22 C21 1_555 1_555
H10 C22 1_555 1_555
C23 C22 1_555 1_555
C24 C23 1_555 1_555
H11 C24 1_555 1_555
C25 C20 1_555 1_555
H12 C25 1_555 1_555
C26 C23 1_555 1_555
C27 C26 1_555 1_555
C28 C27 1_555 1_555
C29 C28 1_555 1_555
H13 C29 1_555 1_555
C30 C29 1_555 1_555
C31 C30 1_555 1_555
H14 C31 1_555 1_555
C32 C31 1_555 1_555
C33 C28 1_555 1_555
H15 C33 1_555 1_555
C34 C30 1_555 1_555
C35 C34 1_555 1_555
C36 C35 1_555 1_555
C37 C32 1_555 1_555
C38 C37 1_555 1_555
C80 C81 1_555 1_555
C81 C82 1_555 1_555
C82 H33 1_555 1_555
C83 C36 1_555 1_555
H34 C83 1_555 1_555
C84 C36 1_555 1_555
H35 C84 1_555 1_555
C85 C81 1_555 1_555
H36 C85 1_555 1_555
C101 H49 1_555 1_555
H50 C101 1_555 1_555
H51 C101 1_555 1_555
C103 H55 1_555 1_555
H56 C103 1_555 1_555
H57 C103 1_555 1_555
O2 Co1 1_555 1_555
O4 Co1 1_555 1_555
O5 Co1 1_555 1_555
O15 Co9 1_555 1_555
O19 Co9 1_555 1_555
O20 C80 1_555 1_555
O22 C80 1_555 1_555
O25 Co12 1_555 1_555
Co14 O20 1_555 1_555
O30 Co9 1_555 1_555
O32 Co9 1_555 1_555
O33 Co12 1_555 1_555
O35 Co12 1_555 1_555
Co12 O8 1_555 1_555
Co12 O26 1_555 1_555
C19 O4 1_555 1_555
C19 O19 1_555 1_555
C24 C25 1_555 1_555
C32 C33 1_555 1_555
C82 C83 1_555 1_555
C84 C85 1_555 1_555
C101 O5 1_555 1_555
C103 O15 1_555 1_555
O22 Co14 1_555 1_555
O25 H58 1_555 1_555
O25 H59 1_555 1_555
Co2 O1 1_555 1_555
Co3 O1 1_555 1_555
C102 H52 1_555 1_555
H53 C102 1_555 1_555
H54 C102 1_555 1_555
O7 Co2 1_555 1_555
O12 Co3 1_555 1_555
O27 Co2 1_555 1_555
O28 Co3 1_555 1_555
O29 Co3 1_555 1_555
C102 O7 1_555 1_555
C39 C40 1_555 1_555
C40 C41 1_555 1_555
C41 H16 1_555 1_555
C42 C41 1_555 1_555
H17 C42 1_555 1_555
C43 C42 1_555 1_555
C44 C43 1_555 1_555
C45 C40 1_555 1_555
C46 C43 1_555 1_555
C47 C46 1_555 1_555
C48 C47 1_555 1_555
C49 C48 1_555 1_555
H20 C49 1_555 1_555
C50 C49 1_555 1_555
C51 C50 1_555 1_555
H21 C51 1_555 1_555
C73 C74 1_555 1_555
C74 C75 1_555 1_555
C75 H31 1_555 1_555
C76 C75 1_555 1_555
H32 C76 1_555 1_555
C77 C76 1_555 1_555
C78 C77 1_555 1_555
C79 C50 1_555 1_555
C93 C74 1_555 1_555
H43 C93 1_555 1_555
C94 C77 1_555 1_555
H44 C94 1_555 1_555
O16 C73 1_555 1_555
O23 C73 1_555 1_555
Co11 O16 1_555 1_555
C39 O3 1_555 1_555
C44 C45 1_555 1_555
C78 C79 1_555 1_555
C93 C94 1_555 1_555
C1 C2 1_555 1_555
C2 C3 1_555 1_555
C3 H1 1_555 1_555
C4 C3 1_555 1_555
H2 C4 1_555 1_555
C5 C4 1_555 1_555
C6 C5 1_555 1_555
H3 C6 1_555 1_555
C7 C2 1_555 1_555
H4 C7 1_555 1_555
C8 C5 1_555 1_555
C9 C8 1_555 1_555
C10 C9 1_555 1_555
C11 C10 1_555 1_555
H5 C11 1_555 1_555
C12 C11 1_555 1_555
C13 C12 1_555 1_555
H6 C13 1_555 1_555
C14 C10 1_555 1_555
H7 C14 1_555 1_555
C15 C12 1_555 1_555
C16 C15 1_555 1_555
C17 C16 1_555 1_555
C18 C17 1_555 1_555
H8 C18 1_555 1_555
H22 C53 1_555 1_555
C62 C52 1_555 1_555
H28 C66 1_555 1_555
C67 C66 1_555 1_555
C70 C67 1_555 1_555
C71 C70 1_555 1_555
C72 C13 1_555 1_555
C91 C17 1_555 1_555
H41 C91 1_555 1_555
C92 C18 1_555 1_555
H42 C92 1_555 1_555
C95 C96 1_555 1_555
C96 C92 1_555 1_555
C97 C91 1_555 1_555
H45 C97 1_555 1_555
C100 H46 1_555 1_555
H47 C100 1_555 1_555
O13 C95 1_555 1_555
O24 C95 1_555 1_555
Co8 O13 1_555 1_555
C1 O10 1_555 1_555
C6 C7 1_555 1_555
C14 C72 1_555 1_555
C52 C53 1_555 1_555
C61 C62 1_555 1_555
C71 C72 1_555 1_555
C96 C97 1_555 1_555
C54 C55 1_555 1_555
C55 C56 1_555 1_555
C56 H23 1_555 1_555
C57 C56 1_555 1_555
C58 C57 1_555 1_555
C59 C58 1_555 1_555
H25 C59 1_555 1_555
C60 C55 1_555 1_555
H26 C60 1_555 1_555
C63 C64 1_555 1_555
C64 C65 1_555 1_555
C65 H27 1_555 1_555
H29 C68 1_555 1_555
C69 C64 1_555 1_555
H30 C69 1_555 1_555
O9 C63 1_555 1_555
O11 C54 1_555 1_555
O14 C54 1_555 1_555
O18 C63 1_555 1_555
Co6 O9 1_555 1_555
Co8 O14 1_555 1_555
Co11 O18 1_555 1_555
Co14 O9 1_555 1_555
C59 C60 1_555 1_555
C68 C69 1_555 1_555
O11 Co6 1_555 1_555
C54_2 C55_2 1_555 1_555
C55_2 C56_2 1_555 1_555
C56_2 H23_2 1_555 1_555
C57_2 C56_2 1_555 1_555
C58_2 C57_2 1_555 1_555
C59_2 C58_2 1_555 1_555
H25_2 C59_2 1_555 1_555
C60_2 C55_2 1_555 1_555
H26_2 C60_2 1_555 1_555
C63_2 C64_2 1_555 1_555
C64_2 C65_2 1_555 1_555
C65_2 H27_2 1_555 1_555
H29_2 C68_2 1_555 1_555
C69_2 C64_2 1_555 1_555
H30_2 C69_2 1_555 1_555
O27 C54_2 1_555 1_555
O29 C54_2 1_555 1_555
C59_2 C60_2 1_555 1_555
C68_2 C69_2 1_555 1_555
Co1_2 O1_2 1_555 1_555
Co6 O1_2 1_555 1_555
Co8 O1_2 1_555 1_555
Co11 O2_2 1_555 1_555
Co14 O2_2 1_555 1_555
C1_2 C2_2 1_555 1_555
C2_2 C3_2 1_555 1_555
C3_2 H1_2 1_555 1_555
C4_2 C3_2 1_555 1_555
H2_2 C4_2 1_555 1_555
C5_2 C4_2 1_555 1_555
C6_2 C5_2 1_555 1_555
H3_2 C6_2 1_555 1_555
C7_2 C2_2 1_555 1_555
H4_2 C7_2 1_555 1_555
C8_2 C5_2 1_555 1_555
C9_2 C8_2 1_555 1_555
C10_2 C9_2 1_555 1_555
C11_2 C10_2 1_555 1_555
H5_2 C11_2 1_555 1_555
C12_2 C11_2 1_555 1_555
C13_2 C12_2 1_555 1_555
H6_2 C13_2 1_555 1_555
C14_2 C10_2 1_555 1_555
H7_2 C14_2 1_555 1_555
C15_2 C12_2 1_555 1_555
C16_2 C15_2 1_555 1_555
C17_2 C16_2 1_555 1_555
C18_2 C17_2 1_555 1_555
H8_2 C18_2 1_555 1_555
C19_2 C20_2 1_555 1_555
C20_2 C21_2 1_555 1_555
C21_2 H9_2 1_555 1_555
C22_2 C21_2 1_555 1_555
H10_2 C22_2 1_555 1_555
C23_2 C22_2 1_555 1_555
C24_2 C23_2 1_555 1_555
H11_2 C24_2 1_555 1_555
C25_2 C20_2 1_555 1_555
H12_2 C25_2 1_555 1_555
C26_2 C23_2 1_555 1_555
C27_2 C26_2 1_555 1_555
C28_2 C27_2 1_555 1_555
C29_2 C28_2 1_555 1_555
H13_2 C29_2 1_555 1_555
C30_2 C29_2 1_555 1_555
C31_2 C30_2 1_555 1_555
H14_2 C31_2 1_555 1_555
C32_2 C31_2 1_555 1_555
C33_2 C28_2 1_555 1_555
H15_2 C33_2 1_555 1_555
C34_2 C30_2 1_555 1_555
C35_2 C34_2 1_555 1_555
C36_2 C35_2 1_555 1_555
C37_2 C32_2 1_555 1_555
C38_2 C37_2 1_555 1_555
C39_2 C40_2 1_555 1_555
C40_2 C41_2 1_555 1_555
C41_2 H16_2 1_555 1_555
C42_2 C41_2 1_555 1_555
H17_2 C42_2 1_555 1_555
C43_2 C42_2 1_555 1_555
C44_2 C43_2 1_555 1_555
H18_2 C44_2 1_555 1_555
C45_2 C40_2 1_555 1_555
H19_2 C45_2 1_555 1_555
C46_2 C43_2 1_555 1_555
C47_2 C46_2 1_555 1_555
C48_2 C47_2 1_555 1_555
C49_2 C48_2 1_555 1_555
H20_2 C49_2 1_555 1_555
C50_2 C49_2 1_555 1_555
C51_2 C50_2 1_555 1_555
H21_2 C51_2 1_555 1_555
C52_2 C51_2 1_555 1_555
C53_2 C48_2 1_555 1_555
H22_2 C53_2 1_555 1_555
C62_2 C52_2 1_555 1_555
H28_2 C66_2 1_555 1_555
C67_2 C66_2 1_555 1_555
C70_2 C67_2 1_555 1_555
C71_2 C70_2 1_555 1_555
C72_2 C13_2 1_555 1_555
C73_2 C74_2 1_555 1_555
C74_2 C75_2 1_555 1_555
C75_2 H31_2 1_555 1_555
C76_2 C75_2 1_555 1_555
H32_2 C76_2 1_555 1_555
C77_2 C76_2 1_555 1_555
C78_2 C77_2 1_555 1_555
C79_2 C50_2 1_555 1_555
C80_2 C81_2 1_555 1_555
C81_2 C82_2 1_555 1_555
C82_2 H33_2 1_555 1_555
C83_2 C36_2 1_555 1_555
H34_2 C83_2 1_555 1_555
C84_2 C36_2 1_555 1_555
H35_2 C84_2 1_555 1_555
C85_2 C81_2 1_555 1_555
H36_2 C85_2 1_555 1_555
C91_2 C17_2 1_555 1_555
H41_2 C91_2 1_555 1_555
C92_2 C18_2 1_555 1_555
H42_2 C92_2 1_555 1_555
C93_2 C74_2 1_555 1_555
H43_2 C93_2 1_555 1_555
C94_2 C77_2 1_555 1_555
H44_2 C94_2 1_555 1_555
C95_2 C96_2 1_555 1_555
C96_2 C92_2 1_555 1_555
C97_2 C91_2 1_555 1_555
H45_2 C97_2 1_555 1_555
C100_2 H46_2 1_555 1_555
H47_2 C100_2 1_555 1_555
H48_2 C100_2 1_555 1_555
C101_2 H49_2 1_555 1_555
H50_2 C101_2 1_555 1_555
H51_2 C101_2 1_555 1_555
C102_2 H52_2 1_555 1_555
H53_2 C102_2 1_555 1_555
H54_2 C102_2 1_555 1_555
C103_2 H55_2 1_555 1_555
H56_2 C103_2 1_555 1_555
H57_2 C103_2 1_555 1_555
O2_2 Co1_2 1_555 1_555
O3_2 Co1_2 1_555 1_555
O4_2 Co1_2 1_555 1_555
O5_2 Co1_2 1_555 1_555
O6_2 Co1_2 1_555 1_555
O7_2 Co6 1_555 1_555
O8_2 Co6 1_555 1_555
O10_2 Co6 1_555 1_555
O12_2 Co8 1_555 1_555
O28 C95_2 1_555 1_555
O15_2 Co11 1_555 1_555
O30 C73_2 1_555 1_555
O19_2 Co11 1_555 1_555
O23_2 C73_2 1_555 1_555
O24_2 C95_2 1_555 1_555
O25_2 Co14 1_555 1_555
O31 Co11 1_555 1_555
O34 Co14 1_555 1_555
Co14 O8_2 1_555 1_555
C1_2 O10_2 1_555 1_555
C1_2 O12_2 1_555 1_555
C6_2 C7_2 1_555 1_555
C14_2 C72_2 1_555 1_555
C19_2 O4_2 1_555 1_555
C19_2 O19_2 1_555 1_555
C24_2 C25_2 1_555 1_555
C32_2 C33_2 1_555 1_555
C39_2 O3_2 1_555 1_555
C39_2 O8_2 1_555 1_555
C44_2 C45_2 1_555 1_555
C52_2 C53_2 1_555 1_555
C61_2 C62_2 1_555 1_555
C71_2 C72_2 1_555 1_555
C78_2 C79_2 1_555 1_555
C82_2 C83_2 1_555 1_555
C84_2 C85_2 1_555 1_555
C93_2 C94_2 1_555 1_555
C96_2 C97_2 1_555 1_555
C100_2 O6_2 1_555 1_555
C101_2 O5_2 1_555 1_555
C102_2 O7_2 1_555 1_555
C103_2 O15_2 1_555 1_555
O25_2 H58_2 1_555 1_555
O25_2 H59_2 1_555 1_555
C87_2 C86_2 1_555 1_555
H37_2 C87_2 1_555 1_555
C88_2 C87_2 1_555 1_555
H38_2 C88_2 1_555 1_555
C89_2 H39_2 1_555 1_555
C90_2 C86_2 1_555 1_555
C98_2 C99_2 1_555 1_555
C99_2 C88_2 1_555 1_555
O31 C98_2 1_555 1_555
O34 C98_2 1_555 1_555
C89_2 C90_2 1_555 1_555
C89_2 C99_2 1_555 1_555
C54_3 C55_3 1_555 1_555
C55_3 C56_3 1_555 1_555
C56_3 H23_3 1_555 1_555
C57_3 C56_3 1_555 1_555
C58_3 C57_3 1_555 1_555
C59_3 C58_3 1_555 1_555
H25_3 C59_3 1_555 1_555
C60_3 C55_3 1_555 1_555
H26_3 C60_3 1_555 1_555
C63_3 C64_3 1_555 1_555
C64_3 C65_3 1_555 1_555
C65_3 H27_3 1_555 1_555
H29_3 C68_3 1_555 1_555
C69_3 C64_3 1_555 1_555
H30_3 C69_3 1_555 1_555
O9_2 C63_3 1_555 1_555
O11_2 C54_3 1_555 1_555
O14_2 C54_3 1_555 1_555
O18_2 C63_3 1_555 1_555
Co6_2 O9_2 1_555 1_555
Co7 O14_2 1_555 1_555
Co10 O18_2 1_555 1_555
Co13 O9_2 1_555 1_555
C59_3 C60_3 1_555 1_555
C68_3 C69_3 1_555 1_555
O11_2 Co6_2 1_555 1_555
C1_3 C2_3 1_555 1_555
C2_3 C3_3 1_555 1_555
C3_3 H1_3 1_555 1_555
C4_3 C3_3 1_555 1_555
H2_3 C4_3 1_555 1_555
C5_3 C4_3 1_555 1_555
C6_3 C5_3 1_555 1_555
H3_3 C6_3 1_555 1_555
C7_3 C2_3 1_555 1_555
H4_3 C7_3 1_555 1_555
C8_3 C5_3 1_555 1_555
C9_3 C8_3 1_555 1_555
C10_3 C9_3 1_555 1_555
C11_3 C10_3 1_555 1_555
H5_3 C11_3 1_555 1_555
C12_3 C11_3 1_555 1_555
C13_3 C12_3 1_555 1_555
H6_3 C13_3 1_555 1_555
C14_3 C10_3 1_555 1_555
H7_3 C14_3 1_555 1_555
C15_3 C12_3 1_555 1_555
C16_3 C15_3 1_555 1_555
C17_3 C16_3 1_555 1_555
C18_3 C17_3 1_555 1_555
H8_3 C18_3 1_555 1_555
H22_3 C53_3 1_555 1_555
C62_3 C52_3 1_555 1_555
H28_3 C66_3 1_555 1_555
C67_3 C66_3 1_555 1_555
C70_3 C67_3 1_555 1_555
C71_3 C70_3 1_555 1_555
C72_3 C13_3 1_555 1_555
C91_3 C17_3 1_555 1_555
H41_3 C91_3 1_555 1_555
C92_3 C18_3 1_555 1_555
H42_3 C92_3 1_555 1_555
C95_3 C96_3 1_555 1_555
C96_3 C92_3 1_555 1_555
C97_3 C91_3 1_555 1_555
H45_3 C97_3 1_555 1_555
C100_3 H46_3 1_555 1_555
H47_3 C100_3 1_555 1_555
O13_2 C95_3 1_555 1_555
O24_3 C95_3 1_555 1_555
Co7 O13_2 1_555 1_555
C1_3 O10_3 1_555 1_555
C6_3 C7_3 1_555 1_555
C14_3 C72_3 1_555 1_555
C52_3 C53_3 1_555 1_555
C61_3 C62_3 1_555 1_555
C71_3 C72_3 1_555 1_555
C96_3 C97_3 1_555 1_555
C39_3 C40_3 1_555 1_555
C40_3 C41_3 1_555 1_555
C41_3 H16_3 1_555 1_555
C42_3 C41_3 1_555 1_555
H17_3 C42_3 1_555 1_555
C43_3 C42_3 1_555 1_555
C44_3 C43_3 1_555 1_555
C45_3 C40_3 1_555 1_555
C46_3 C43_3 1_555 1_555
C47_3 C46_3 1_555 1_555
C48_3 C47_3 1_555 1_555
C49_3 C48_3 1_555 1_555
H20_3 C49_3 1_555 1_555
C50_3 C49_3 1_555 1_555
C51_3 C50_3 1_555 1_555
H21_3 C51_3 1_555 1_555
C73_3 C74_3 1_555 1_555
C74_3 C75_3 1_555 1_555
C75_3 H31_3 1_555 1_555
C76_3 C75_3 1_555 1_555
H32_3 C76_3 1_555 1_555
C77_3 C76_3 1_555 1_555
C78_3 C77_3 1_555 1_555
C79_3 C50_3 1_555 1_555
C93_3 C74_3 1_555 1_555
H43_3 C93_3 1_555 1_555
C94_3 C77_3 1_555 1_555
H44_3 C94_3 1_555 1_555
O16_2 C73_3 1_555 1_555
O23_3 C73_3 1_555 1_555
Co10 O16_2 1_555 1_555
C39_3 O3_3 1_555 1_555
C44_3 C45_3 1_555 1_555
C78_3 C79_3 1_555 1_555
C93_3 C94_3 1_555 1_555
Co2_2 O1_3 1_555 1_555
Co3_2 O1_3 1_555 1_555
C102_3 H52_3 1_555 1_555
H53_3 C102_3 1_555 1_555
H54_3 C102_3 1_555 1_555
O7_3 Co2_2 1_555 1_555
O12_3 Co3_2 1_555 1_555
O27_2 Co2_2 1_555 1_555
O28_2 Co3_2 1_555 1_555
O29_2 Co3_2 1_555 1_555
C102_3 O7_3 1_555 1_555
Co4 O2_3 1_555 1_555
Co5 O2_3 1_555 1_555
C19_3 C20_3 1_555 1_555
C20_3 C21_3 1_555 1_555
C21_3 H9_3 1_555 1_555
C22_3 C21_3 1_555 1_555
H10_3 C22_3 1_555 1_555
C23_3 C22_3 1_555 1_555
C24_3 C23_3 1_555 1_555
H11_3 C24_3 1_555 1_555
C25_3 C20_3 1_555 1_555
H12_3 C25_3 1_555 1_555
C26_3 C23_3 1_555 1_555
C27_3 C26_3 1_555 1_555
C28_3 C27_3 1_555 1_555
C29_3 C28_3 1_555 1_555
H13_3 C29_3 1_555 1_555
C30_3 C29_3 1_555 1_555
C31_3 C30_3 1_555 1_555
H14_3 C31_3 1_555 1_555
C32_3 C31_3 1_555 1_555
C33_3 C28_3 1_555 1_555
H15_3 C33_3 1_555 1_555
C34_3 C30_3 1_555 1_555
C35_3 C34_3 1_555 1_555
C36_3 C35_3 1_555 1_555
C37_3 C32_3 1_555 1_555
C38_3 C37_3 1_555 1_555
C80_3 C81_3 1_555 1_555
C81_3 C82_3 1_555 1_555
C82_3 H33_3 1_555 1_555
C83_3 C36_3 1_555 1_555
H34_3 C83_3 1_555 1_555
C84_3 C36_3 1_555 1_555
H35_3 C84_3 1_555 1_555
C85_3 C81_3 1_555 1_555
H36_3 C85_3 1_555 1_555
C101_3 H49_3 1_555 1_555
H50_3 C101_3 1_555 1_555
H51_3 C101_3 1_555 1_555
C103_3 H55_3 1_555 1_555
H56_3 C103_3 1_555 1_555
H57_3 C103_3 1_555 1_555
O2_3 Co1_3 1_555 1_555
O4_3 Co1_3 1_555 1_555
O5_3 Co1_3 1_555 1_555
O15_3 Co4 1_555 1_555
O19_3 Co4 1_555 1_555
O20_2 C80_3 1_555 1_555
O22_2 C80_3 1_555 1_555
O25_3 Co5 1_555 1_555
Co13 O20_2 1_555 1_555
O30_2 Co4 1_555 1_555
O31_2 Co4 1_555 1_555
O32_2 Co4 1_555 1_555
O33_2 Co5 1_555 1_555
O34_2 Co5 1_555 1_555
O35_2 Co5 1_555 1_555
Co5 O8_3 1_555 1_555
Co5 O26_2 1_555 1_555
C19_3 O4_3 1_555 1_555
C19_3 O19_3 1_555 1_555
C24_3 C25_3 1_555 1_555
C32_3 C33_3 1_555 1_555
C82_3 C83_3 1_555 1_555
C84_3 C85_3 1_555 1_555
C101_3 O5_3 1_555 1_555
C103_3 O15_3 1_555 1_555
O22_2 Co13 1_555 1_555
O25_3 H58_3 1_555 1_555
O25_3 H59_3 1_555 1_555
C87_3 C86_3 1_555 1_555
H37_3 C87_3 1_555 1_555
C88_3 C87_3 1_555 1_555
H38_3 C88_3 1_555 1_555
C89_3 H39_3 1_555 1_555
C90_3 C86_3 1_555 1_555
C98_3 C99_3 1_555 1_555
C99_3 C88_3 1_555 1_555
O31_2 C98_3 1_555 1_555
O34_2 C98_3 1_555 1_555
C89_3 C90_3 1_555 1_555
C89_3 C99_3 1_555 1_555
C87_4 C86_4 1_555 1_555
H37_4 C87_4 1_555 1_555
C88_4 C87_4 1_555 1_555
H38_4 C88_4 1_555 1_555
C89_4 H39_4 1_555 1_555
C90_4 C86_4 1_555 1_555
C98_4 C99_4 1_555 1_555
C99_4 C88_4 1_555 1_555
O17_2 C98_4 1_555 1_555
O21_2 C98_4 1_555 1_555
Co10 O17_2 1_555 1_555
Co13 O21_2 1_555 1_555
C89_4 C90_4 1_555 1_555
C89_4 C99_4 1_555 1_555
Co1_4 O1_4 1_555 1_555
Co6_2 O1_4 1_555 1_555
Co7 O1_4 1_555 1_555
Co10 O2_4 1_555 1_555
Co13 O2_4 1_555 1_555
C1_4 C2_4 1_555 1_555
C2_4 C3_4 1_555 1_555
C3_4 H1_4 1_555 1_555
C4_4 C3_4 1_555 1_555
H2_4 C4_4 1_555 1_555
C5_4 C4_4 1_555 1_555
C6_4 C5_4 1_555 1_555
H3_4 C6_4 1_555 1_555
C7_4 C2_4 1_555 1_555
H4_4 C7_4 1_555 1_555
C8_4 C5_4 1_555 1_555
C9_4 C8_4 1_555 1_555
C10_4 C9_4 1_555 1_555
C11_4 C10_4 1_555 1_555
H5_4 C11_4 1_555 1_555
C12_4 C11_4 1_555 1_555
C13_4 C12_4 1_555 1_555
H6_4 C13_4 1_555 1_555
C14_4 C10_4 1_555 1_555
H7_4 C14_4 1_555 1_555
C15_4 C12_4 1_555 1_555
C16_4 C15_4 1_555 1_555
C17_4 C16_4 1_555 1_555
C18_4 C17_4 1_555 1_555
H8_4 C18_4 1_555 1_555
C19_4 C20_4 1_555 1_555
C20_4 C21_4 1_555 1_555
C21_4 H9_4 1_555 1_555
C22_4 C21_4 1_555 1_555
H10_4 C22_4 1_555 1_555
C23_4 C22_4 1_555 1_555
C24_4 C23_4 1_555 1_555
H11_4 C24_4 1_555 1_555
C25_4 C20_4 1_555 1_555
H12_4 C25_4 1_555 1_555
C26_4 C23_4 1_555 1_555
C27_4 C26_4 1_555 1_555
C28_4 C27_4 1_555 1_555
C29_4 C28_4 1_555 1_555
H13_4 C29_4 1_555 1_555
C30_4 C29_4 1_555 1_555
C31_4 C30_4 1_555 1_555
H14_4 C31_4 1_555 1_555
C32_4 C31_4 1_555 1_555
C33_4 C28_4 1_555 1_555
H15_4 C33_4 1_555 1_555
C34_4 C30_4 1_555 1_555
C35_4 C34_4 1_555 1_555
C36_4 C35_4 1_555 1_555
C37_4 C32_4 1_555 1_555
C38_4 C37_4 1_555 1_555
C39_4 C40_4 1_555 1_555
C40_4 C41_4 1_555 1_555
C41_4 H16_4 1_555 1_555
C42_4 C41_4 1_555 1_555
H17_4 C42_4 1_555 1_555
C43_4 C42_4 1_555 1_555
C44_4 C43_4 1_555 1_555
H18_4 C44_4 1_555 1_555
C45_4 C40_4 1_555 1_555
H19_4 C45_4 1_555 1_555
C46_4 C43_4 1_555 1_555
C47_4 C46_4 1_555 1_555
C48_4 C47_4 1_555 1_555
C49_4 C48_4 1_555 1_555
H20_4 C49_4 1_555 1_555
C50_4 C49_4 1_555 1_555
C51_4 C50_4 1_555 1_555
H21_4 C51_4 1_555 1_555
C52_4 C51_4 1_555 1_555
C53_4 C48_4 1_555 1_555
H22_4 C53_4 1_555 1_555
C62_4 C52_4 1_555 1_555
H28_4 C66_4 1_555 1_555
C67_4 C66_4 1_555 1_555
C70_4 C67_4 1_555 1_555
C71_4 C70_4 1_555 1_555
C72_4 C13_4 1_555 1_555
C73_4 C74_4 1_555 1_555
C74_4 C75_4 1_555 1_555
C75_4 H31_4 1_555 1_555
C76_4 C75_4 1_555 1_555
H32_4 C76_4 1_555 1_555
C77_4 C76_4 1_555 1_555
C78_4 C77_4 1_555 1_555
C79_4 C50_4 1_555 1_555
C80_4 C81_4 1_555 1_555
C81_4 C82_4 1_555 1_555
C82_4 H33_4 1_555 1_555
C83_4 C36_4 1_555 1_555
H34_4 C83_4 1_555 1_555
C84_4 C36_4 1_555 1_555
H35_4 C84_4 1_555 1_555
C85_4 C81_4 1_555 1_555
H36_4 C85_4 1_555 1_555
C91_4 C17_4 1_555 1_555
H41_4 C91_4 1_555 1_555
C92_4 C18_4 1_555 1_555
H42_4 C92_4 1_555 1_555
C93_4 C74_4 1_555 1_555
H43_4 C93_4 1_555 1_555
C94_4 C77_4 1_555 1_555
H44_4 C94_4 1_555 1_555
C95_4 C96_4 1_555 1_555
C96_4 C92_4 1_555 1_555
C97_4 C91_4 1_555 1_555
H45_4 C97_4 1_555 1_555
C100_4 H46_4 1_555 1_555
H47_4 C100_4 1_555 1_555
H48_4 C100_4 1_555 1_555
C101_4 H49_4 1_555 1_555
H50_4 C101_4 1_555 1_555
H51_4 C101_4 1_555 1_555
C102_4 H52_4 1_555 1_555
H53_4 C102_4 1_555 1_555
H54_4 C102_4 1_555 1_555
C103_4 H55_4 1_555 1_555
H56_4 C103_4 1_555 1_555
H57_4 C103_4 1_555 1_555
O2_4 Co1_4 1_555 1_555
O3_4 Co1_4 1_555 1_555
O4_4 Co1_4 1_555 1_555
O5_4 Co1_4 1_555 1_555
O6_4 Co1_4 1_555 1_555
O7_4 Co6_2 1_555 1_555
O8_4 Co6_2 1_555 1_555
O10_4 Co6_2 1_555 1_555
O12_4 Co7 1_555 1_555
O28_2 C95_4 1_555 1_555
O15_4 Co10 1_555 1_555
O30_2 C73_4 1_555 1_555
O19_4 Co10 1_555 1_555
O23_4 C73_4 1_555 1_555
O24_4 C95_4 1_555 1_555
O25_4 Co13 1_555 1_555
Co13 O8_4 1_555 1_555
C1_4 O10_4 1_555 1_555
C1_4 O12_4 1_555 1_555
C6_4 C7_4 1_555 1_555
C14_4 C72_4 1_555 1_555
C19_4 O4_4 1_555 1_555
C19_4 O19_4 1_555 1_555
C24_4 C25_4 1_555 1_555
C32_4 C33_4 1_555 1_555
C39_4 O3_4 1_555 1_555
C39_4 O8_4 1_555 1_555
C44_4 C45_4 1_555 1_555
C52_4 C53_4 1_555 1_555
C61_4 C62_4 1_555 1_555
C71_4 C72_4 1_555 1_555
C78_4 C79_4 1_555 1_555
C82_4 C83_4 1_555 1_555
C84_4 C85_4 1_555 1_555
C93_4 C94_4 1_555 1_555
C96_4 C97_4 1_555 1_555
C100_4 O6_4 1_555 1_555
C101_4 O5_4 1_555 1_555
C102_4 O7_4 1_555 1_555
C103_4 O15_4 1_555 1_555
O25_4 H58_4 1_555 1_555
O25_4 H59_4 1_555 1_555
C54_4 C55_4 1_555 1_555
C55_4 C56_4 1_555 1_555
C56_4 H23_4 1_555 1_555
C57_4 C56_4 1_555 1_555
C58_4 C57_4 1_555 1_555
C59_4 C58_4 1_555 1_555
H25_4 C59_4 1_555 1_555
C60_4 C55_4 1_555 1_555
H26_4 C60_4 1_555 1_555
C63_4 C64_4 1_555 1_555
C64_4 C65_4 1_555 1_555
C65_4 H27_4 1_555 1_555
H29_4 C68_4 1_555 1_555
C69_4 C64_4 1_555 1_555
H30_4 C69_4 1_555 1_555
O27_2 C54_4 1_555 1_555
O29_2 C54_4 1_555 1_555
C59_4 C60_4 1_555 1_555
C68_4 C69_4 1_555 1_555

#END
