
###############################################################################
#
# This file contains modified crystal structure data generated from the
# MOF subset of the Cambridge Structural Database (CSD) v543 
# hosted by the Cambridge Crystallographic Data Centre (CCDC).
#
# This work is licensed under the Creative Commons
# Attribution-NonCommercial-ShareAlike 4.0 International License.
# To view a copy of this license, visit
# http://creativecommons.org/licenses/by-nc-sa/4.0/
# or send a letter to
# Creative Commons, PO Box 1866, Mountain View, CA 94042, USA.
#
# CIF created using the CSD Python API on 29 September 2022
# The structure has been converted into the P1 space group
# The structure has a 3D framework
# The original CSD entry KULLAG is in the monoclinic crystal system
# The framework has been calculated to contain at least 10.0% void space
# The void calculation uses a probe of radius 1.32A, grid spacing 0.4
# H atom positions have been added when not included in the experimental data
#
###############################################################################

data_KULLAG
_chemical_formula_moiety         '(C458 H294 Co22 N16 O94)n'
_symmetry_cell_setting           triclinic
_symmetry_space_group_name_H-M   'P 1'
_symmetry_Int_Tables_number      1
_space_group_name_Hall           'P 1'
loop_
_symmetry_equiv_pos_site_id
_symmetry_equiv_pos_as_xyz
1 x,y,z
_cell_length_a                   25.056(3)
_cell_length_b                   36.884(4)
_cell_length_c                   19.669(2)
_cell_angle_alpha                90
_cell_angle_beta                 123.272(2)
_cell_angle_gamma                90
_cell_volume                     15197.7
loop_
_atom_site_label
_atom_site_type_symbol
_atom_site_fract_x
_atom_site_fract_y
_atom_site_fract_z
Co9 Co 0.00174(2) 0.676349(13) 0.58080(3)
Co13 Co -0.0000 0.64626(2) 0.7500
H25 H 0.7910 0.2894 0.0096
H27 H 0.8545 0.2287 0.0240
O18 O 0.95242(19) 0.65103(12) 0.4362(3)
O19 O 0.9164(2) 0.65498(13) 0.5101(3)
C75 C 0.5279(2) 0.29545(11) 0.0319(3)
H37 H 0.5496 0.2751 0.0656
C76 C 0.5392(2) 0.32957(11) 0.0665(3)
H38 H 0.5683 0.3323 0.1235
C77 C 0.50913(18) 0.35932(10) 0.0198(2)
C80 C 0.51924(18) 0.39566(10) 0.0526(2)
C81 C 0.52479(16) 0.42659(9) 0.0736(2)
C82 C 0.52733(16) 0.46479(9) 0.09077(19)
C83 C 0.58562(16) 0.48309(9) 0.1330(2)
H41 H 0.6244 0.4702 0.1540
C84 C 0.58647(16) 0.52040(9) 0.14417(19)
C85 C 0.52945(16) 0.53912(9) 0.1129(2)
H42 H 0.5303 0.5646 0.1203
C86 C 0.47133(16) 0.52120(9) 0.0711(2)
C87 C 0.47062(16) 0.48367(9) 0.0604(2)
H43 H 0.4311 0.4710 0.0322
C88 C 0.64532(18) 0.54018(10) 0.1908(2)
C89 C 0.69142(19) 0.55857(12) 0.2309(3)
C90 C 0.7471(2) 0.58058(12) 0.2838(3)
C91 C 0.7923(2) 0.58753(15) 0.2661(3)
H44 H 0.7876 0.5779 0.2183
C92 C 0.8451(2) 0.60893(16) 0.3194(4)
H45 H 0.8755 0.6144 0.3064
C93 C 0.8538(2) 0.62210(13) 0.3893(3)
C94 C 0.8100(3) 0.61390(15) 0.4073(3)
H46 H 0.8161 0.6225 0.4567
C95 C 0.7570(2) 0.59342(16) 0.3552(3)
H47 H 0.7269 0.5881 0.3690
C96 C 0.9114(3) 0.64475(13) 0.4485(4)
C97 C 0.41288(18) 0.54118(10) 0.0388(2)
C98 C 0.36604(19) 0.55938(11) 0.0122(2)
H48 H 0.3518 0.6299 0.0063
H68 H 0.619958 0.0487139 0.012478
H69 H 0.568405 0.0208576 0.0257527
Co1 Co 0.59880(2) 0.213954(11) 0.75703(3)
Co2 Co 0.50174(2) 0.176349(13) 0.58080(3)
Co3 Co 0.5000 0.14626(2) 0.7500
O1 O 0.49531(12) 0.22727(7) 0.54152(16)
O2 O 0.56700(11) 0.25160(6) 0.66395(16)
O3 O 0.04758(19) 0.65103(12) 0.0638(3)
O5 O 0.85946(15) 0.67818(8) 0.64253(17)
O6 O 0.91402(15) 0.62625(8) 0.6842(2)
O7 O 0.08310(13) 0.65746(9) 0.60298(18)
O8 O 0.15088(11) 0.68313(7) 0.72381(17)
O9 O 0.55182(10) 0.24561(6) 0.80058(15)
O10 O 0.51278(11) 0.18554(7) 0.68706(17)
O11 O 0.5079(3) 0.1130(2) 0.6530(5)
O12 O 0.67753(11) 0.24775(7) 0.82805(17)
N1 N 0.78096(17) 0.25562(13) 0.9272(3)
C1 C 0.52646(17) 0.25368(9) 0.5883(2)
C2 C 0.51399(18) 0.29049(10) 0.5497(2)
C3 C 0.4721(2) 0.29545(11) 0.4681(3)
H1 H 0.4504 0.2751 0.4344
C4 C 0.4608(2) 0.32957(11) 0.4335(3)
H2 H 0.4317 0.3323 0.3765
C5 C 0.49087(18) 0.35932(10) 0.4802(2)
C6 C 0.5351(2) 0.35444(11) 0.5646(3)
H3 H 0.5576 0.3747 0.5982
C7 C 0.5457(2) 0.32017(11) 0.5981(3)
H4 H 0.5751 0.3170 0.6549
C8 C 0.48076(18) 0.39566(10) 0.4474(2)
C9 C 0.47521(16) 0.42659(9) 0.4264(2)
C10 C 0.47267(16) 0.46479(9) 0.40923(19)
C11 C 0.41438(16) 0.48309(9) 0.3670(2)
H5 H 0.3756 0.4702 0.3460
C12 C 0.41353(16) 0.52040(9) 0.35583(19)
C13 C 0.47055(16) 0.53912(9) 0.3871(2)
H6 H 0.4697 0.5646 0.3797
C14 C 0.52867(16) 0.52120(9) 0.4289(2)
C15 C 0.52938(16) 0.48367(9) 0.4396(2)
H7 H 0.5689 0.4710 0.4678
C16 C 0.35468(18) 0.54018(10) 0.3092(2)
C17 C 0.30858(19) 0.55857(12) 0.2691(3)
C18 C 0.2529(2) 0.58058(12) 0.2162(3)
C19 C 0.2077(2) 0.58753(15) 0.2339(3)
H8 H 0.2124 0.5779 0.2817
C20 C 0.1549(2) 0.60893(16) 0.1806(4)
H9 H 0.1245 0.6144 0.1936
C21 C 0.1462(2) 0.62210(13) 0.1107(3)
C22 C 0.1900(3) 0.61390(15) 0.0927(3)
H10 H 0.1839 0.6225 0.0433
C23 C 0.2430(2) 0.59342(16) 0.1448(3)
H11 H 0.2731 0.5881 0.1310
C24 C 0.0886(3) 0.64475(13) 0.0515(4)
C25 C 0.58712(18) 0.54118(10) 0.4612(2)
C26 C 0.63396(19) 0.55938(11) 0.4878(2)
C27 C 0.69072(19) 0.58118(11) 0.5225(3)
C28 C 0.6884(2) 0.61798(12) 0.5208(3)
H12 H 0.6482 0.6299 0.4937
C29 C 0.7442(2) 0.63855(12) 0.5583(3)
H13 H 0.7411 0.6642 0.5557
C30 C 0.8028(2) 0.62292(11) 0.5986(3)
C31 C 0.8044(3) 0.58561(14) 0.5976(5)
H14 H 0.8444 0.5735 0.6247
C32 C 0.7493(3) 0.56579(15) 0.5583(5)
H15 H 0.7522 0.5402 0.5558
C33 C 0.8629(2) 0.64425(11) 0.6444(3)
C34 C 0.5000 0.26144(12) 0.7500
C35 C 0.5000 0.30221(12) 0.7500
C36 C 0.44278(17) 0.32132(9) 0.7051(2)
H16 H 0.4036 0.3085 0.6742
C37 C 0.44257(17) 0.35895(9) 0.7052(2)
H17 H 0.4035 0.3719 0.6748
C38 C 0.5000 0.37737(12) 0.7500
C39 C 0.5000 0.41699(12) 0.7500
C40 C 0.5000 0.44933(13) 0.7500
C41 C 0.5000 0.48842(12) 0.7500
C42 C 0.44327(16) 0.50728(9) 0.7201(2)
H18 H 0.4043 0.4944 0.6981
C43 C 0.5000 0.56395(12) 0.7500
H19 H 0.5000 0.5897 0.7500
C44 C 0.44358(16) 0.54510(9) 0.7223(2)
C45 C 0.38677(17) 0.56487(10) 0.7006(2)
C46 C 0.34150(19) 0.58150(11) 0.6889(2)
C47 C 0.29016(18) 0.60209(11) 0.6820(3)
C48 C 0.2314(2) 0.60404(15) 0.6096(3)
H20 H 0.2246 0.5920 0.5628
C49 C 0.13762(18) 0.66263(11) 0.6663(3)
C50 C 0.19126(18) 0.64183(11) 0.6707(3)
C51 C 0.25032(18) 0.63980(13) 0.7443(3)
H21 H 0.2570 0.6521 0.7908
C52 C 0.29889(19) 0.61995(12) 0.7496(3)
H22 H 0.3389 0.6184 0.8001
C53 C 0.1821(2) 0.62348(14) 0.6050(3)
H23 H 0.1413 0.6240 0.5553
C54 C 0.7326(2) 0.23700(13) 0.8675(3)
C55 C 0.7733(3) 0.28957(19) 0.9511(5)
H24 H 0.7957 0.3077 0.9393
H26 H 0.7278 0.2956 0.9212
C56 C 0.8466(3) 0.2401(2) 0.9742(5)
H28 H 0.8779 0.2594 0.9886
H29 H 0.8507 0.2218 0.9411
N2 N 0.4791(11) 0.0658(6) 0.5574(13)
C57 C 0.4719(9) 0.0854(6) 0.6149(13)
C58 C 0.4270(12) 0.0361(7) 0.5182(16)
C59 C 0.5392(15) 0.0755(8) 0.5571(18)
O13 O 0.44818(10) 0.24561(6) 0.69942(15)
C60 C 0.55722(17) 0.32132(9) 0.7949(2)
H30 H 0.5964 0.3085 0.8258
C61 C 0.55743(17) 0.35895(9) 0.7948(2)
H31 H 0.5965 0.3719 0.8252
C62 C 0.55673(16) 0.50728(9) 0.7799(2)
H32 H 0.5957 0.4944 0.8019
C63 C 0.55642(16) 0.54510(9) 0.7777(2)
C64 C 0.61323(17) 0.56487(10) 0.7994(2)
C65 C 0.65850(19) 0.58150(11) 0.8111(2)
C66 C 0.70984(18) 0.60209(11) 0.8180(3)
C67 C 0.7686(2) 0.60404(15) 0.8904(3)
H33 H 0.7754 0.5920 0.9372
O14 O 0.91690(13) 0.65746(9) 0.89702(18)
O15 O 0.84912(11) 0.68313(7) 0.77619(17)
C68 C 0.86238(18) 0.66263(11) 0.8337(3)
C69 C 0.80874(18) 0.64183(11) 0.8293(3)
C70 C 0.74968(18) 0.63980(13) 0.7557(3)
H34 H 0.7430 0.6521 0.7092
C71 C 0.70111(19) 0.61995(12) 0.7504(3)
H35 H 0.6611 0.6184 0.6999
C72 C 0.8179(2) 0.62348(14) 0.8950(3)
H36 H 0.8587 0.6240 0.9447
Co4 Co 0.40120(2) 0.213954(11) 0.74297(3)
Co5 Co 0.49826(2) 0.176349(13) 0.91920(3)
O16 O 0.50469(12) 0.22727(7) 0.95848(16)
O17 O 0.43300(11) 0.25160(6) 0.83605(16)
O20 O 0.14054(15) 0.67818(8) 0.85747(17)
O21 O 0.08598(15) 0.62625(8) 0.8158(2)
O22 O 0.48722(11) 0.18554(7) 0.81294(17)
O23 O 0.4921(3) 0.1130(2) 0.8470(5)
O24 O 0.32247(11) 0.24775(7) 0.67195(17)
N3 N 0.21904(17) 0.25562(13) 0.5728(3)
C73 C 0.47354(17) 0.25368(9) 0.9117(2)
C74 C 0.48601(18) 0.29049(10) 0.9503(2)
C78 C 0.4649(2) 0.35444(11) 0.9354(3)
H39 H 0.4424 0.3747 0.9018
C79 C 0.4543(2) 0.32017(11) 0.9019(3)
H40 H 0.4249 0.3170 0.8451
C99 C 0.30928(19) 0.58118(11) 0.9775(3)
C100 C 0.3116(2) 0.61798(12) 0.9792(3)
C101 C 0.2558(2) 0.63855(12) 0.9417(3)
H49 H 0.2589 0.6642 0.9443
C102 C 0.1972(2) 0.62292(11) 0.9014(3)
C103 C 0.1956(3) 0.58561(14) 0.9024(5)
H50 H 0.1556 0.5735 0.8753
C104 C 0.2507(3) 0.56579(15) 0.9417(5)
H51 H 0.2478 0.5402 0.9442
C105 C 0.1371(2) 0.64425(11) 0.8556(3)
C106 C 0.2674(2) 0.23700(13) 0.6325(3)
C107 C 0.2267(3) 0.28957(19) 0.5489(5)
H52 H 0.2043 0.3077 0.5607
H53 H 0.2090 0.2894 0.4904
H54 H 0.2722 0.2956 0.5788
C108 C 0.1534(3) 0.2401(2) 0.5258(5)
H55 H 0.1455 0.2287 0.4760
H56 H 0.1221 0.2594 0.5114
H57 H 0.1493 0.2218 0.5589
N4 N 0.5209(11) 0.0658(6) 0.9426(13)
C109 C 0.5281(9) 0.0854(6) 0.8851(13)
C110 C 0.5730(12) 0.0361(7) 0.9818(16)
C111 C 0.4608(15) 0.0755(8) 0.9429(18)
Co6 Co 0.09880(2) 0.713954(11) 0.75703(3)
Co7 Co 0.90120(2) 0.713954(11) 0.74297(3)
Co11 Co 0.99826(2) 0.676349(13) 0.91920(3)
Co13_2 Co 1.0000 0.64626(2) 0.7500
O25 O 0.5836(2) 0.15498(13) 0.9899(3)
O26 O 0.4164(2) 0.15498(13) 0.5101(3)
O27 O 0.35946(15) 0.17818(8) 0.64253(17)
O28 O 0.64054(15) 0.17818(8) 0.85747(17)
O29 O 0.41402(15) 0.12625(8) 0.6842(2)
O30 O 0.58598(15) 0.12625(8) 0.8158(2)
O31 O 0.58310(13) 0.15746(9) 0.60298(18)
O32 O 0.41690(13) 0.15746(9) 0.89702(18)
O33 O 0.65088(11) 0.18313(7) 0.72381(17)
O34 O 0.34912(11) 0.18313(7) 0.77619(17)
H58 H 0.742656 0.210461 0.852758
H59 H 0.380042 0.0487139 0.487522
H60 H 0.431595 0.0208576 0.474247
H61 H 0.432695 0.017826 0.565242
H62 H 0.435935 0.0769809 0.626492
H63 H 0.581859 0.0699912 0.61682
H64 H 0.540074 0.0591912 0.511567
H65 H 0.537867 0.104128 0.542703
H66 H 0.564065 0.0769809 0.873508
H67 H 0.257344 0.210461 0.647242
H70 H 0.567305 0.017826 0.934758
H71 H 0.418141 0.0699912 0.88318
H72 H 0.459926 0.0591912 0.988433
H73 H 0.462133 0.104128 0.957297
O4 O 0.0836(2) 0.65498(13) 0.9899(3)
O18_2 O 0.45242(19) 0.15103(12) 0.4362(3)
C84_2 C 0.08647(16) 0.02040(9) 0.14417(19)
C85_2 C 0.02945(16) 0.03912(9) 0.1129(2)
H42_2 H 0.0303 0.0646 0.1203
C88_2 C 0.14532(18) 0.04018(10) 0.1908(2)
C89_2 C 0.19142(19) 0.05857(12) 0.2309(3)
C90_2 C 0.2471(2) 0.08058(12) 0.2838(3)
C91_2 C 0.2923(2) 0.08753(15) 0.2661(3)
H44_2 H 0.2876 0.0779 0.2183
C92_2 C 0.3451(2) 0.10893(16) 0.3194(4)
H45_2 H 0.3755 0.1144 0.3064
C93_2 C 0.3538(2) 0.12210(13) 0.3893(3)
C94_2 C 0.3100(3) 0.11390(15) 0.4073(3)
H46_2 H 0.3161 0.1225 0.4567
C95_2 C 0.2570(2) 0.09342(16) 0.3552(3)
H47_2 H 0.2269 0.0881 0.3690
C96_2 C 0.4114(3) 0.14475(13) 0.4485(4)
C14_2 C 0.02867(16) 0.02120(9) 0.4289(2)
C25_2 C 0.08712(18) 0.04118(10) 0.4612(2)
C26_2 C 0.13396(19) 0.05938(11) 0.4878(2)
C27_2 C 0.19072(19) 0.08118(11) 0.5225(3)
C28_2 C 0.1884(2) 0.11798(12) 0.5208(3)
H12_2 H 0.1482 0.1299 0.4937
C29_2 C 0.2442(2) 0.13855(12) 0.5583(3)
H13_2 H 0.2411 0.1642 0.5557
C30_2 C 0.3028(2) 0.12292(11) 0.5986(3)
C31_2 C 0.3044(3) 0.08561(14) 0.5976(5)
H14_2 H 0.3444 0.0735 0.6247
C32_2 C 0.2493(3) 0.06579(15) 0.5583(5)
H15_2 H 0.2522 0.0402 0.5558
C33_2 C 0.3629(2) 0.14425(11) 0.6444(3)
C43_2 C 0.0000 0.06395(12) 0.7500
H19_2 H 0.0000 0.0897 0.7500
C62_2 C 0.05673(16) 0.00728(9) 0.7799(2)
C63_2 C 0.05642(16) 0.04510(9) 0.7777(2)
C64_2 C 0.11323(17) 0.06487(10) 0.7994(2)
C65_2 C 0.15850(19) 0.08150(11) 0.8111(2)
C66_2 C 0.20984(18) 0.10209(11) 0.8180(3)
C67_2 C 0.2686(2) 0.10404(15) 0.8904(3)
H33_2 H 0.2754 0.0920 0.9372
C68_2 C 0.36238(18) 0.16263(11) 0.8337(3)
C69_2 C 0.30874(18) 0.14183(11) 0.8293(3)
C70_2 C 0.24968(18) 0.13980(13) 0.7557(3)
H34_2 H 0.2430 0.1521 0.7092
C71_2 C 0.20111(19) 0.11995(12) 0.7504(3)
H35_2 H 0.1611 0.1184 0.6999
C72_2 C 0.3179(2) 0.12348(14) 0.8950(3)
H36_2 H 0.3587 0.1240 0.9447
O2_2 O 0.06700(11) 0.75160(6) 0.66395(16)
O9_2 O 0.05182(10) 0.74561(6) 0.80058(15)
O10_2 O 0.01278(11) 0.68554(7) 0.68706(17)
O11_2 O 0.0079(3) 0.6130(2) 0.6530(5)
O12_2 O 0.17753(11) 0.74775(7) 0.82805(17)
N1_2 N 0.28096(17) 0.75562(13) 0.9272(3)
C1_2 C 0.02646(17) 0.75368(9) 0.5883(2)
C2_2 C 0.01399(18) 0.79049(10) 0.5497(2)
C6_2 C 0.0351(2) 0.85444(11) 0.5646(3)
H3_2 H 0.0576 0.8747 0.5982
C7_2 C 0.0457(2) 0.82017(11) 0.5981(3)
H4_2 H 0.0751 0.8170 0.6549
C15_2 C 0.02938(16) 0.98367(9) 0.4396(2)
H7_2 H 0.0689 0.9710 0.4678
C34_2 C 0.0000 0.76144(12) 0.7500
C35_2 C 0.0000 0.80221(12) 0.7500
C38_2 C 0.0000 0.87737(12) 0.7500
C39_2 C 0.0000 0.91699(12) 0.7500
C40_2 C 0.0000 0.94933(13) 0.7500
C41_2 C 0.0000 0.98842(12) 0.7500
C54_2 C 0.2326(2) 0.73700(13) 0.8675(3)
C55_2 C 0.2733(3) 0.78957(19) 0.9511(5)
H24_2 H 0.2957 0.8077 0.9393
H26_2 H 0.2278 0.7956 0.9212
C56_2 C 0.3466(3) 0.7401(2) 0.9742(5)
H28_2 H 0.3779 0.7594 0.9886
H29_2 H 0.3507 0.7218 0.9411
C59_2 C 0.0392(15) 0.5755(8) 0.5571(18)
C60_2 C 0.05722(17) 0.82132(9) 0.7949(2)
H30_2 H 0.0964 0.8085 0.8258
C61_2 C 0.05743(17) 0.85895(9) 0.7948(2)
H31_2 H 0.0965 0.8719 0.8252
H32_2 H 0.0957 0.9944 0.8019
O16_2 O 0.00469(12) 0.72727(7) 0.95848(16)
N4_2 N 0.0209(11) 0.5658(6) 0.9426(13)
C109_2 C 0.0281(9) 0.5854(6) 0.8851(13)
C110_2 C 0.0730(12) 0.5361(7) 0.9818(16)
H58_2 H 0.242656 0.710461 0.852758
H63_2 H 0.081859 0.569991 0.61682
H64_2 H 0.0400737 0.559191 0.511567
H65_2 H 0.0378667 0.604128 0.542703
H66_2 H 0.0640655 0.576981 0.873508
H70_2 H 0.0673048 0.517826 0.934758
O3_2 O 0.54758(19) 0.15103(12) 0.0638(3)
C12_2 C 0.91353(16) 0.02040(9) 0.35583(19)
C13_2 C 0.97055(16) 0.03912(9) 0.3871(2)
H6_2 H 0.9697 0.0646 0.3797
C16_2 C 0.85468(18) 0.04018(10) 0.3092(2)
C17_2 C 0.80858(19) 0.05857(12) 0.2691(3)
C18_2 C 0.7529(2) 0.08058(12) 0.2162(3)
C19_2 C 0.7077(2) 0.08753(15) 0.2339(3)
H8_2 H 0.7124 0.0779 0.2817
C20_2 C 0.6549(2) 0.10893(16) 0.1806(4)
H9_2 H 0.6245 0.1144 0.1936
C21_2 C 0.6462(2) 0.12210(13) 0.1107(3)
C22_2 C 0.6900(3) 0.11390(15) 0.0927(3)
H10_2 H 0.6839 0.1225 0.0433
C23_2 C 0.7430(2) 0.09342(16) 0.1448(3)
H11_2 H 0.7731 0.0881 0.1310
C24_2 C 0.5886(3) 0.14475(13) 0.0515(4)
C42_2 C 0.94327(16) 0.00728(9) 0.7201(2)
C43_3 C 1.0000 0.06395(12) 0.7500
H19_3 H 1.0000 0.0897 0.7500
C44_2 C 0.94358(16) 0.04510(9) 0.7223(2)
C45_2 C 0.88677(17) 0.06487(10) 0.7006(2)
C46_2 C 0.84150(19) 0.08150(11) 0.6889(2)
C47_2 C 0.79016(18) 0.10209(11) 0.6820(3)
C48_2 C 0.7314(2) 0.10404(15) 0.6096(3)
H20_2 H 0.7246 0.0920 0.5628
C49_2 C 0.63762(18) 0.16263(11) 0.6663(3)
C50_2 C 0.69126(18) 0.14183(11) 0.6707(3)
C51_2 C 0.75032(18) 0.13980(13) 0.7443(3)
H21_2 H 0.7570 0.1521 0.7908
C52_2 C 0.79889(19) 0.11995(12) 0.7496(3)
H22_2 H 0.8389 0.1184 0.8001
C53_2 C 0.6821(2) 0.12348(14) 0.6050(3)
H23_2 H 0.6413 0.1240 0.5553
C99_2 C 0.80928(19) 0.08118(11) 0.9775(3)
C100_2 C 0.8116(2) 0.11798(12) 0.9792(3)
C101_2 C 0.7558(2) 0.13855(12) 0.9417(3)
H49_2 H 0.7589 0.1642 0.9443
C102_2 C 0.6972(2) 0.12292(11) 0.9014(3)
C103_2 C 0.6956(3) 0.08561(14) 0.9024(5)
H50_2 H 0.6556 0.0735 0.8753
C104_2 C 0.7507(3) 0.06579(15) 0.9417(5)
H51_2 H 0.7478 0.0402 0.9442
C105_2 C 0.6371(2) 0.14425(11) 0.8556(3)
O1_2 O 0.99531(12) 0.72727(7) 0.54152(16)
C3_2 C 0.9721(2) 0.79545(11) 0.4681(3)
H1_2 H 0.9504 0.7751 0.4344
C4_2 C 0.9608(2) 0.82957(11) 0.4335(3)
H2_2 H 0.9317 0.8323 0.3765
C5_2 C 0.99087(18) 0.85932(10) 0.4802(2)
C8_2 C 0.98076(18) 0.89566(10) 0.4474(2)
C9_2 C 0.97521(16) 0.92659(9) 0.4264(2)
C10_2 C 0.97267(16) 0.96479(9) 0.40923(19)
C11_2 C 0.91438(16) 0.98309(9) 0.3670(2)
H5_2 H 0.8756 0.9702 0.3460
C34_3 C 1.0000 0.76144(12) 0.7500
C35_3 C 1.0000 0.80221(12) 0.7500
C36_2 C 0.94278(17) 0.82132(9) 0.7051(2)
H16_2 H 0.9036 0.8085 0.6742
C37_2 C 0.94257(17) 0.85895(9) 0.7052(2)
H17_2 H 0.9035 0.8719 0.6748
C38_3 C 1.0000 0.87737(12) 0.7500
C39_3 C 1.0000 0.91699(12) 0.7500
C40_3 C 1.0000 0.94933(13) 0.7500
C41_3 C 1.0000 0.98842(12) 0.7500
H18_2 H 0.9043 0.9944 0.6981
N2_2 N 0.9791(11) 0.5658(6) 0.5574(13)
C57_2 C 0.9719(9) 0.5854(6) 0.6149(13)
C58_2 C 0.9270(12) 0.5361(7) 0.5182(16)
O13_2 O 0.94818(10) 0.74561(6) 0.69942(15)
O17_2 O 0.93300(11) 0.75160(6) 0.83605(16)
O22_2 O 0.98722(11) 0.68554(7) 0.81294(17)
O23_2 O 0.9921(3) 0.6130(2) 0.8470(5)
O24_2 O 0.82247(11) 0.74775(7) 0.67195(17)
N3_2 N 0.71904(17) 0.75562(13) 0.5728(3)
C73_2 C 0.97354(17) 0.75368(9) 0.9117(2)
C74_2 C 0.98601(18) 0.79049(10) 0.9503(2)
C78_2 C 0.9649(2) 0.85444(11) 0.9354(3)
H39_2 H 0.9424 0.8747 0.9018
C79_2 C 0.9543(2) 0.82017(11) 0.9019(3)
H40_2 H 0.9249 0.8170 0.8451
C106_2 C 0.7674(2) 0.73700(13) 0.6325(3)
C107_2 C 0.7267(3) 0.78957(19) 0.5489(5)
H52_2 H 0.7043 0.8077 0.5607
H53_2 H 0.7090 0.7894 0.4904
H54_2 H 0.7722 0.7956 0.5788
C108_2 C 0.6534(3) 0.7401(2) 0.5258(5)
H55_2 H 0.6455 0.7287 0.4760
H56_2 H 0.6221 0.7594 0.5114
H57_2 H 0.6493 0.7218 0.5589
C111_2 C 0.9608(15) 0.5755(8) 0.9429(18)
H59_2 H 0.880042 0.548714 0.487522
H60_2 H 0.931595 0.520858 0.474247
H61_2 H 0.932695 0.517826 0.565242
H62_2 H 0.935935 0.576981 0.626492
H67_2 H 0.757344 0.710461 0.647242
H71_2 H 0.918141 0.569991 0.88318
H72_2 H 0.959926 0.559191 0.988433
H73_2 H 0.962133 0.604128 0.957297
H25_2 H 0.2910 0.7894 0.0096
H27_2 H 0.3545 0.7287 0.0240
C75_2 C 0.0279(2) 0.79545(11) 0.0319(3)
H37_2 H 0.0496 0.7751 0.0656
C76_2 C 0.0392(2) 0.82957(11) 0.0665(3)
H38_2 H 0.0683 0.8323 0.1235
C77_2 C 0.00913(18) 0.85932(10) 0.0198(2)
C80_2 C 0.01924(18) 0.89566(10) 0.0526(2)
C81_2 C 0.02479(16) 0.92659(9) 0.0736(2)
C82_2 C 0.02733(16) 0.96479(9) 0.09077(19)
C83_2 C 0.08562(16) 0.98309(9) 0.1330(2)
H41_2 H 0.1244 0.9702 0.1540
H68_2 H 0.119958 0.548714 0.012478
H69_2 H 0.0684045 0.520858 0.0257527
C86_2 C 0.97133(16) 0.02120(9) 0.0711(2)
C97_2 C 0.91288(18) 0.04118(10) 0.0388(2)
C98_2 C 0.86604(19) 0.05938(11) 0.0122(2)
H48_2 H 0.8518 0.1299 0.0063
C87_2 C 0.97062(16) 0.98367(9) 0.0604(2)
H43_2 H 0.9311 0.9710 0.0322
Co10 Co 0.00174(2) 0.323651(13) 0.08080(3)
Co12 Co -0.0000 0.35374(2) 0.2500
O4_2 O 0.9164(2) 0.34502(13) 0.0101(3)
Co1_2 Co 0.40120(2) 0.786046(11) 0.24297(3)
Co2_2 Co 0.49826(2) 0.823651(13) 0.41920(3)
Co3_2 Co 0.5000 0.85374(2) 0.2500
O1_3 O 0.50469(12) 0.77273(7) 0.45848(16)
O2_3 O 0.43300(11) 0.74840(6) 0.33605(16)
O3_3 O 0.95242(19) 0.34897(12) 0.9362(3)
O5_2 O 0.14054(15) 0.32182(8) 0.35747(17)
O6_2 O 0.08598(15) 0.37375(8) 0.3158(2)
O7_2 O 0.91690(13) 0.34254(9) 0.39702(18)
O8_2 O 0.84912(11) 0.31687(7) 0.27619(17)
O9_3 O 0.44818(10) 0.75439(6) 0.19942(15)
O10_3 O 0.48722(11) 0.81446(7) 0.31294(17)
O11_3 O 0.4921(3) 0.8870(2) 0.3470(5)
O12_3 O 0.32247(11) 0.75225(7) 0.17195(17)
N1_3 N 0.21904(17) 0.74438(13) 0.0728(3)
C1_3 C 0.47354(17) 0.74632(9) 0.4117(2)
C2_3 C 0.48601(18) 0.70951(10) 0.4503(2)
C3_3 C 0.5279(2) 0.70455(11) 0.5319(3)
H1_3 H 0.5496 0.7249 0.5656
C4_3 C 0.5392(2) 0.67043(11) 0.5665(3)
H2_3 H 0.5683 0.6677 0.6235
C5_3 C 0.50913(18) 0.64068(10) 0.5198(2)
C6_3 C 0.4649(2) 0.64556(11) 0.4354(3)
H3_3 H 0.4424 0.6253 0.4018
C7_3 C 0.4543(2) 0.67983(11) 0.4019(3)
H4_3 H 0.4249 0.6830 0.3451
C8_3 C 0.51924(18) 0.60434(10) 0.5526(2)
C9_3 C 0.52479(16) 0.57341(9) 0.5736(2)
C10_3 C 0.52733(16) 0.53521(9) 0.59077(19)
C11_3 C 0.58562(16) 0.51691(9) 0.6330(2)
H5_3 H 0.6244 0.5298 0.6540
C12_3 C 0.58647(16) 0.47960(9) 0.64417(19)
C13_3 C 0.52945(16) 0.46088(9) 0.6129(2)
H6_3 H 0.5303 0.4354 0.6203
C14_3 C 0.47133(16) 0.47880(9) 0.5711(2)
C15_3 C 0.47062(16) 0.51633(9) 0.5604(2)
H7_3 H 0.4311 0.5290 0.5322
C16_3 C 0.64532(18) 0.45982(10) 0.6908(2)
C17_3 C 0.69142(19) 0.44143(12) 0.7309(3)
C18_3 C 0.7471(2) 0.41942(12) 0.7838(3)
C19_3 C 0.7923(2) 0.41247(15) 0.7661(3)
H8_3 H 0.7876 0.4221 0.7183
C20_3 C 0.8451(2) 0.39107(16) 0.8194(4)
H9_3 H 0.8755 0.3856 0.8064
C21_3 C 0.8538(2) 0.37790(13) 0.8893(3)
C22_3 C 0.8100(3) 0.38610(15) 0.9073(3)
H10_3 H 0.8161 0.3775 0.9567
C23_3 C 0.7570(2) 0.40658(16) 0.8552(3)
H11_3 H 0.7269 0.4119 0.8690
C24_3 C 0.9114(3) 0.35525(13) 0.9485(4)
C25_3 C 0.41288(18) 0.45882(10) 0.5388(2)
C26_3 C 0.36604(19) 0.44062(11) 0.5122(2)
C27_3 C 0.30928(19) 0.41882(11) 0.4775(3)
C28_3 C 0.3116(2) 0.38202(12) 0.4792(3)
H12_3 H 0.3518 0.3701 0.5063
C29_3 C 0.2558(2) 0.36145(12) 0.4417(3)
H13_3 H 0.2589 0.3358 0.4443
C30_3 C 0.1972(2) 0.37708(11) 0.4014(3)
C31_3 C 0.1956(3) 0.41439(14) 0.4024(5)
H14_3 H 0.1556 0.4265 0.3753
C32_3 C 0.2507(3) 0.43421(15) 0.4417(5)
H15_3 H 0.2478 0.4598 0.4442
C33_3 C 0.1371(2) 0.35575(11) 0.3556(3)
C34_4 C 0.5000 0.73856(12) 0.2500
C35_4 C 0.5000 0.69779(12) 0.2500
C36_3 C 0.55722(17) 0.67868(9) 0.2949(2)
H16_3 H 0.5964 0.6915 0.3258
C37_3 C 0.55743(17) 0.64105(9) 0.2948(2)
H17_3 H 0.5965 0.6281 0.3252
C38_4 C 0.5000 0.62263(12) 0.2500
C39_4 C 0.5000 0.58301(12) 0.2500
C40_4 C 0.5000 0.55067(13) 0.2500
C41_4 C 0.5000 0.51158(12) 0.2500
C42_3 C 0.55673(16) 0.49272(9) 0.2799(2)
H18_3 H 0.5957 0.5056 0.3019
C43_4 C 0.5000 0.43605(12) 0.2500
H19_4 H 0.5000 0.4103 0.2500
C44_3 C 0.55642(16) 0.45490(9) 0.2777(2)
C45_3 C 0.61323(17) 0.43513(10) 0.2994(2)
C46_3 C 0.65850(19) 0.41850(11) 0.3111(2)
C47_3 C 0.70984(18) 0.39791(11) 0.3180(3)
C48_3 C 0.7686(2) 0.39596(15) 0.3904(3)
H20_3 H 0.7754 0.4080 0.4372
C49_3 C 0.86238(18) 0.33737(11) 0.3337(3)
C50_3 C 0.80874(18) 0.35817(11) 0.3293(3)
C51_3 C 0.74968(18) 0.36020(13) 0.2557(3)
H21_3 H 0.7430 0.3479 0.2092
C52_3 C 0.70111(19) 0.38005(12) 0.2504(3)
H22_3 H 0.6611 0.3816 0.1999
C53_3 C 0.8179(2) 0.37652(14) 0.3950(3)
H23_3 H 0.8587 0.3760 0.4447
C54_3 C 0.2674(2) 0.76300(13) 0.1325(3)
C55_3 C 0.2267(3) 0.71043(19) 0.0489(5)
H24_3 H 0.2043 0.6923 0.0607
H26_3 H 0.2722 0.7044 0.0788
C56_3 C 0.1534(3) 0.7599(2) 0.0258(5)
H28_3 H 0.1221 0.7406 0.0114
H29_3 H 0.1493 0.7782 0.0589
N2_3 N 0.5209(11) 0.9342(6) 0.4426(13)
C57_3 C 0.5281(9) 0.9146(6) 0.3851(13)
C58_3 C 0.5730(12) 0.9639(7) 0.4818(16)
C59_3 C 0.4608(15) 0.9245(8) 0.4429(18)
O13_3 O 0.55182(10) 0.75439(6) 0.30058(15)
C60_3 C 0.44278(17) 0.67868(9) 0.2051(2)
H30_3 H 0.4036 0.6915 0.1742
C61_3 C 0.44257(17) 0.64105(9) 0.2052(2)
H31_3 H 0.4035 0.6281 0.1748
C62_3 C 0.44327(16) 0.49272(9) 0.2201(2)
H32_3 H 0.4043 0.5056 0.1981
C63_3 C 0.44358(16) 0.45490(9) 0.2223(2)
C64_3 C 0.38677(17) 0.43513(10) 0.2006(2)
C65_3 C 0.34150(19) 0.41850(11) 0.1889(2)
C66_3 C 0.29016(18) 0.39791(11) 0.1820(3)
C67_3 C 0.2314(2) 0.39596(15) 0.1096(3)
H33_3 H 0.2246 0.4080 0.0628
O14_2 O 0.08310(13) 0.34254(9) 0.10298(18)
O15_2 O 0.15088(11) 0.31687(7) 0.22381(17)
C68_3 C 0.13762(18) 0.33737(11) 0.1663(3)
C69_3 C 0.19126(18) 0.35817(11) 0.1707(3)
C70_3 C 0.25032(18) 0.36020(13) 0.2443(3)
H34_3 H 0.2570 0.3479 0.2908
C71_3 C 0.29889(19) 0.38005(12) 0.2496(3)
H35_3 H 0.3389 0.3816 0.3001
C72_3 C 0.1821(2) 0.37652(14) 0.1050(3)
H36_3 H 0.1413 0.3760 0.0553
Co4_2 Co 0.59880(2) 0.786046(11) 0.25703(3)
Co5_2 Co 0.50174(2) 0.823651(13) 0.08080(3)
O16_3 O 0.49531(12) 0.77273(7) 0.04152(16)
O17_3 O 0.56700(11) 0.74840(6) 0.16395(16)
O20_2 O 0.85946(15) 0.32182(8) 0.14253(17)
O21_2 O 0.91402(15) 0.37375(8) 0.1842(2)
O22_3 O 0.51278(11) 0.81446(7) 0.18706(17)
O23_3 O 0.5079(3) 0.8870(2) 0.1530(5)
O24_3 O 0.67753(11) 0.75225(7) 0.32805(17)
N3_3 N 0.78096(17) 0.74438(13) 0.4272(3)
C73_3 C 0.52646(17) 0.74632(9) 0.0883(2)
C74_3 C 0.51399(18) 0.70951(10) 0.0497(2)
C78_3 C 0.5351(2) 0.64556(11) 0.0646(3)
H39_3 H 0.5576 0.6253 0.0982
C79_3 C 0.5457(2) 0.67983(11) 0.0981(3)
H40_3 H 0.5751 0.6830 0.1549
C99_3 C 0.69072(19) 0.41882(11) 0.0225(3)
C100_3 C 0.6884(2) 0.38202(12) 0.0208(3)
C101_3 C 0.7442(2) 0.36145(12) 0.0583(3)
H49_3 H 0.7411 0.3358 0.0557
C102_3 C 0.8028(2) 0.37708(11) 0.0986(3)
C103_3 C 0.8044(3) 0.41439(14) 0.0976(5)
H50_3 H 0.8444 0.4265 0.1247
C104_3 C 0.7493(3) 0.43421(15) 0.0583(5)
H51_3 H 0.7522 0.4598 0.0558
C105_3 C 0.8629(2) 0.35575(11) 0.1444(3)
C106_3 C 0.7326(2) 0.76300(13) 0.3675(3)
C107_3 C 0.7733(3) 0.71043(19) 0.4511(5)
H52_3 H 0.7957 0.6923 0.4393
H53_3 H 0.7910 0.7106 0.5096
H54_3 H 0.7278 0.7044 0.4212
C108_3 C 0.8466(3) 0.7599(2) 0.4742(5)
H55_3 H 0.8545 0.7713 0.5240
H56_3 H 0.8779 0.7406 0.4886
H57_3 H 0.8507 0.7782 0.4411
N4_3 N 0.4791(11) 0.9342(6) 0.0574(13)
C109_3 C 0.4719(9) 0.9146(6) 0.1149(13)
C110_3 C 0.4270(12) 0.9639(7) 0.0182(16)
C111_3 C 0.5392(15) 0.9245(8) 0.0571(18)
Co6_2 Co 0.90120(2) 0.286046(11) 0.24297(3)
Co7_2 Co 0.09880(2) 0.286046(11) 0.25703(3)
Co8 Co 0.99826(2) 0.323651(13) 0.41920(3)
Co12_2 Co 1.0000 0.35374(2) 0.2500
O25_2 O 0.4164(2) 0.84502(13) 0.0101(3)
O26_2 O 0.5836(2) 0.84502(13) 0.4899(3)
O27_2 O 0.64054(15) 0.82182(8) 0.35747(17)
O28_2 O 0.35946(15) 0.82182(8) 0.14253(17)
O29_2 O 0.58598(15) 0.87375(8) 0.3158(2)
O30_2 O 0.41402(15) 0.87375(8) 0.1842(2)
O31_2 O 0.41690(13) 0.84254(9) 0.39702(18)
O32_2 O 0.58310(13) 0.84254(9) 0.10298(18)
O33_2 O 0.34912(11) 0.81687(7) 0.27619(17)
O34_2 O 0.65088(11) 0.81687(7) 0.22381(17)
H58_3 H 0.257344 0.789539 0.147242
H59_3 H 0.619958 0.951286 0.512478
H60_3 H 0.568405 0.979142 0.525753
H61_3 H 0.567305 0.982174 0.434758
H62_3 H 0.564065 0.923019 0.373508
H63_3 H 0.418141 0.930009 0.38318
H64_3 H 0.459926 0.940809 0.488433
H65_3 H 0.462133 0.895872 0.457297
H66_3 H 0.435935 0.923019 0.126492
H67_3 H 0.742656 0.789539 0.352758
H70_3 H 0.432695 0.982174 0.0652421
H71_3 H 0.581859 0.930009 0.11682
H72_3 H 0.540074 0.940809 0.0115668
H73_3 H 0.537867 0.895872 0.0427026
H25_3 H 0.2090 0.7106 0.9904
H27_3 H 0.1455 0.7713 0.9760
O18_3 O 0.04758(19) 0.34897(12) 0.5638(3)
O19_2 O 0.0836(2) 0.34502(13) 0.4899(3)
C75_3 C 0.4721(2) 0.70455(11) 0.9681(3)
H37_3 H 0.4504 0.7249 0.9344
C76_3 C 0.4608(2) 0.67043(11) 0.9335(3)
H38_3 H 0.4317 0.6677 0.8765
C77_3 C 0.49087(18) 0.64068(10) 0.9802(2)
C80_3 C 0.48076(18) 0.60434(10) 0.9474(2)
C81_3 C 0.47521(16) 0.57341(9) 0.9264(2)
C82_3 C 0.47267(16) 0.53521(9) 0.90923(19)
C83_3 C 0.41438(16) 0.51691(9) 0.8670(2)
H41_3 H 0.3756 0.5298 0.8460
C84_3 C 0.41353(16) 0.47960(9) 0.85583(19)
C85_3 C 0.47055(16) 0.46088(9) 0.8871(2)
H42_3 H 0.4697 0.4354 0.8797
C86_3 C 0.52867(16) 0.47880(9) 0.9289(2)
C87_3 C 0.52938(16) 0.51633(9) 0.9396(2)
H43_3 H 0.5689 0.5290 0.9678
C88_3 C 0.35468(18) 0.45982(10) 0.8092(2)
C89_3 C 0.30858(19) 0.44143(12) 0.7691(3)
C90_3 C 0.2529(2) 0.41942(12) 0.7162(3)
C91_3 C 0.2077(2) 0.41247(15) 0.7339(3)
H44_3 H 0.2124 0.4221 0.7817
C92_3 C 0.1549(2) 0.39107(16) 0.6806(4)
H45_3 H 0.1245 0.3856 0.6936
C93_3 C 0.1462(2) 0.37790(13) 0.6107(3)
C94_3 C 0.1900(3) 0.38610(15) 0.5927(3)
H46_3 H 0.1839 0.3775 0.5433
C95_3 C 0.2430(2) 0.40658(16) 0.6448(3)
H47_3 H 0.2731 0.4119 0.6310
C96_3 C 0.0886(3) 0.35525(13) 0.5515(4)
C97_3 C 0.58712(18) 0.45882(10) 0.9612(2)
C98_3 C 0.63396(19) 0.44062(11) 0.9878(2)
H48_3 H 0.6482 0.3701 0.9937
H68_3 H 0.380042 0.951286 0.987522
H69_3 H 0.431595 0.979142 0.974247
O1_4 O 0.00469(12) 0.27273(7) 0.45848(16)
C3_4 C 0.0279(2) 0.20455(11) 0.5319(3)
H1_4 H 0.0496 0.2249 0.5656
C4_4 C 0.0392(2) 0.17043(11) 0.5665(3)
H2_4 H 0.0683 0.1677 0.6235
C5_4 C 0.00913(18) 0.14068(10) 0.5198(2)
C8_4 C 0.01924(18) 0.10434(10) 0.5526(2)
C9_4 C 0.02479(16) 0.07341(9) 0.5736(2)
C10_4 C 0.02733(16) 0.03521(9) 0.59077(19)
C11_4 C 0.08562(16) 0.01691(9) 0.6330(2)
H5_4 H 0.1244 0.0298 0.6540
C34_5 C 0.0000 0.23856(12) 0.2500
C35_5 C 0.0000 0.19779(12) 0.2500
C36_4 C 0.05722(17) 0.17868(9) 0.2949(2)
H16_4 H 0.0964 0.1915 0.3258
C37_4 C 0.05743(17) 0.14105(9) 0.2948(2)
H17_4 H 0.0965 0.1281 0.3252
C38_5 C 0.0000 0.12263(12) 0.2500
C39_5 C 0.0000 0.08301(12) 0.2500
C40_5 C 0.0000 0.05067(13) 0.2500
C41_5 C 0.0000 0.01158(12) 0.2500
H18_4 H 0.0957 0.0056 0.3019
N2_4 N 0.0209(11) 0.4342(6) 0.4426(13)
C57_4 C 0.0281(9) 0.4146(6) 0.3851(13)
C58_4 C 0.0730(12) 0.4639(7) 0.4818(16)
O13_4 O 0.05182(10) 0.25439(6) 0.30058(15)
O17_4 O 0.06700(11) 0.24840(6) 0.16395(16)
O22_4 O 0.01278(11) 0.31446(7) 0.18706(17)
O23_4 O 0.0079(3) 0.3870(2) 0.1530(5)
O24_4 O 0.17753(11) 0.25225(7) 0.32805(17)
N3_4 N 0.28096(17) 0.24438(13) 0.4272(3)
C73_4 C 0.02646(17) 0.24632(9) 0.0883(2)
C74_4 C 0.01399(18) 0.20951(10) 0.0497(2)
C78_4 C 0.0351(2) 0.14556(11) 0.0646(3)
H39_4 H 0.0576 0.1253 0.0982
C79_4 C 0.0457(2) 0.17983(11) 0.0981(3)
H40_4 H 0.0751 0.1830 0.1549
C106_4 C 0.2326(2) 0.26300(13) 0.3675(3)
C107_4 C 0.2733(3) 0.21043(19) 0.4511(5)
H52_4 H 0.2957 0.1923 0.4393
H53_4 H 0.2910 0.2106 0.5096
H54_4 H 0.2278 0.2044 0.4212
C108_4 C 0.3466(3) 0.2599(2) 0.4742(5)
H55_4 H 0.3545 0.2713 0.5240
H56_4 H 0.3779 0.2406 0.4886
H57_4 H 0.3507 0.2782 0.4411
C111_4 C 0.0392(15) 0.4245(8) 0.0571(18)
H59_4 H 0.119958 0.451286 0.512478
H60_4 H 0.0684045 0.479142 0.525753
H61_4 H 0.0673048 0.482174 0.434758
H62_4 H 0.0640655 0.423019 0.373508
H67_4 H 0.242656 0.289539 0.352758
H71_4 H 0.081859 0.430009 0.11682
H72_4 H 0.0400737 0.440809 0.0115668
H73_4 H 0.0378667 0.395872 0.0427026
O3_4 O 0.45242(19) 0.84897(12) 0.9362(3)
C12_4 C 0.08647(16) 0.97960(9) 0.64417(19)
C13_4 C 0.02945(16) 0.96088(9) 0.6129(2)
H6_4 H 0.0303 0.9354 0.6203
C16_4 C 0.14532(18) 0.95982(10) 0.6908(2)
C17_4 C 0.19142(19) 0.94143(12) 0.7309(3)
C18_4 C 0.2471(2) 0.91942(12) 0.7838(3)
C19_4 C 0.2923(2) 0.91247(15) 0.7661(3)
H8_4 H 0.2876 0.9221 0.7183
C20_4 C 0.3451(2) 0.89107(16) 0.8194(4)
H9_4 H 0.3755 0.8856 0.8064
C21_4 C 0.3538(2) 0.87790(13) 0.8893(3)
C22_4 C 0.3100(3) 0.88610(15) 0.9073(3)
H10_4 H 0.3161 0.8775 0.9567
C23_4 C 0.2570(2) 0.90658(16) 0.8552(3)
H11_4 H 0.2269 0.9119 0.8690
C24_4 C 0.4114(3) 0.85525(13) 0.9485(4)
C42_4 C 0.05673(16) 0.99272(9) 0.2799(2)
C43_5 C 0.0000 0.93605(12) 0.2500
H19_5 H 0.0000 0.9103 0.2500
C44_4 C 0.05642(16) 0.95490(9) 0.2777(2)
C45_4 C 0.11323(17) 0.93513(10) 0.2994(2)
C46_4 C 0.15850(19) 0.91850(11) 0.3111(2)
C47_4 C 0.20984(18) 0.89791(11) 0.3180(3)
C48_4 C 0.2686(2) 0.89596(15) 0.3904(3)
H20_4 H 0.2754 0.9080 0.4372
C49_4 C 0.36238(18) 0.83737(11) 0.3337(3)
C50_4 C 0.30874(18) 0.85817(11) 0.3293(3)
C51_4 C 0.24968(18) 0.86020(13) 0.2557(3)
H21_4 H 0.2430 0.8479 0.2092
C52_4 C 0.20111(19) 0.88005(12) 0.2504(3)
H22_4 H 0.1611 0.8816 0.1999
C53_4 C 0.3179(2) 0.87652(14) 0.3950(3)
H23_4 H 0.3587 0.8760 0.4447
C99_4 C 0.19072(19) 0.91882(11) 0.0225(3)
C100_4 C 0.1884(2) 0.88202(12) 0.0208(3)
C101_4 C 0.2442(2) 0.86145(12) 0.0583(3)
H49_4 H 0.2411 0.8358 0.0557
C102_4 C 0.3028(2) 0.87708(11) 0.0986(3)
C103_4 C 0.3044(3) 0.91439(14) 0.0976(5)
H50_4 H 0.3444 0.9265 0.1247
C104_4 C 0.2493(3) 0.93421(15) 0.0583(5)
H51_4 H 0.2522 0.9598 0.0558
C105_4 C 0.3629(2) 0.85575(11) 0.1444(3)
O2_4 O 0.93300(11) 0.24840(6) 0.33605(16)
O9_4 O 0.94818(10) 0.25439(6) 0.19942(15)
O10_4 O 0.98722(11) 0.31446(7) 0.31294(17)
O11_4 O 0.9921(3) 0.3870(2) 0.3470(5)
O12_4 O 0.82247(11) 0.25225(7) 0.17195(17)
N1_4 N 0.71904(17) 0.24438(13) 0.0728(3)
C1_4 C 0.97354(17) 0.24632(9) 0.4117(2)
C2_4 C 0.98601(18) 0.20951(10) 0.4503(2)
C6_4 C 0.9649(2) 0.14556(11) 0.4354(3)
H3_4 H 0.9424 0.1253 0.4018
C7_4 C 0.9543(2) 0.17983(11) 0.4019(3)
H4_4 H 0.9249 0.1830 0.3451
C15_4 C 0.97062(16) 0.01633(9) 0.5604(2)
H7_4 H 0.9311 0.0290 0.5322
C34_6 C 1.0000 0.23856(12) 0.2500
C35_6 C 1.0000 0.19779(12) 0.2500
C38_6 C 1.0000 0.12263(12) 0.2500
C39_6 C 1.0000 0.08301(12) 0.2500
C40_6 C 1.0000 0.05067(13) 0.2500
C41_6 C 1.0000 0.01158(12) 0.2500
C54_4 C 0.7674(2) 0.26300(13) 0.1325(3)
C55_4 C 0.7267(3) 0.21043(19) 0.0489(5)
H24_4 H 0.7043 0.1923 0.0607
H26_4 H 0.7722 0.2044 0.0788
C56_4 C 0.6534(3) 0.2599(2) 0.0258(5)
H28_4 H 0.6221 0.2406 0.0114
H29_4 H 0.6493 0.2782 0.0589
C59_4 C 0.9608(15) 0.4245(8) 0.4429(18)
C60_4 C 0.94278(17) 0.17868(9) 0.2051(2)
H30_4 H 0.9036 0.1915 0.1742
C61_4 C 0.94257(17) 0.14105(9) 0.2052(2)
H31_4 H 0.9035 0.1281 0.1748
H32_4 H 0.9043 0.0056 0.1981
O16_4 O 0.99531(12) 0.27273(7) 0.04152(16)
N4_4 N 0.9791(11) 0.4342(6) 0.0574(13)
C109_4 C 0.9719(9) 0.4146(6) 0.1149(13)
C110_4 C 0.9270(12) 0.4639(7) 0.0182(16)
H58_4 H 0.757344 0.289539 0.147242
H63_4 H 0.918141 0.430009 0.38318
H64_4 H 0.959926 0.440809 0.488433
H65_4 H 0.962133 0.395872 0.457297
H66_4 H 0.935935 0.423019 0.126492
H70_4 H 0.932695 0.482174 0.0652421
C14_4 C 0.97133(16) 0.97880(9) 0.5711(2)
C25_4 C 0.91288(18) 0.95882(10) 0.5388(2)
C26_4 C 0.86604(19) 0.94062(11) 0.5122(2)
C27_4 C 0.80928(19) 0.91882(11) 0.4775(3)
C28_4 C 0.8116(2) 0.88202(12) 0.4792(3)
H12_4 H 0.8518 0.8701 0.5063
C29_4 C 0.7558(2) 0.86145(12) 0.4417(3)
H13_4 H 0.7589 0.8358 0.4443
C30_4 C 0.6972(2) 0.87708(11) 0.4014(3)
C31_4 C 0.6956(3) 0.91439(14) 0.4024(5)
H14_4 H 0.6556 0.9265 0.3753
C32_4 C 0.7507(3) 0.93421(15) 0.4417(5)
H15_4 H 0.7478 0.9598 0.4442
C33_4 C 0.6371(2) 0.85575(11) 0.3556(3)
C43_6 C 1.0000 0.93605(12) 0.2500
H19_6 H 1.0000 0.9103 0.2500
C62_4 C 0.94327(16) 0.99272(9) 0.2201(2)
C63_4 C 0.94358(16) 0.95490(9) 0.2223(2)
C64_4 C 0.88677(17) 0.93513(10) 0.2006(2)
C65_4 C 0.84150(19) 0.91850(11) 0.1889(2)
C66_4 C 0.79016(18) 0.89791(11) 0.1820(3)
C67_4 C 0.7314(2) 0.89596(15) 0.1096(3)
H33_4 H 0.7246 0.9080 0.0628
C68_4 C 0.63762(18) 0.83737(11) 0.1663(3)
C69_4 C 0.69126(18) 0.85817(11) 0.1707(3)
C70_4 C 0.75032(18) 0.86020(13) 0.2443(3)
H34_4 H 0.7570 0.8479 0.2908
C71_4 C 0.79889(19) 0.88005(12) 0.2496(3)
H35_4 H 0.8389 0.8816 0.3001
C72_4 C 0.6821(2) 0.87652(14) 0.1050(3)
H36_4 H 0.6413 0.8760 0.0553
O18_4 O 0.54758(19) 0.84897(12) 0.5638(3)
C84_4 C 0.91353(16) 0.97960(9) 0.85583(19)
C85_4 C 0.97055(16) 0.96088(9) 0.8871(2)
H42_4 H 0.9697 0.9354 0.8797
C88_4 C 0.85468(18) 0.95982(10) 0.8092(2)
C89_4 C 0.80858(19) 0.94143(12) 0.7691(3)
C90_4 C 0.7529(2) 0.91942(12) 0.7162(3)
C91_4 C 0.7077(2) 0.91247(15) 0.7339(3)
H44_4 H 0.7124 0.9221 0.7817
C92_4 C 0.6549(2) 0.89107(16) 0.6806(4)
H45_4 H 0.6245 0.8856 0.6936
C93_4 C 0.6462(2) 0.87790(13) 0.6107(3)
C94_4 C 0.6900(3) 0.88610(15) 0.5927(3)
H46_4 H 0.6839 0.8775 0.5433
C95_4 C 0.7430(2) 0.90658(16) 0.6448(3)
H47_4 H 0.7731 0.9119 0.6310
C96_4 C 0.5886(3) 0.85525(13) 0.5515(4)
C87_4 C 0.02938(16) 0.01633(9) 0.9396(2)
H43_4 H 0.0689 0.0290 0.9678
C86_4 C 0.02867(16) 0.97880(9) 0.9289(2)
C97_4 C 0.08712(18) 0.95882(10) 0.9612(2)
C98_4 C 0.13396(19) 0.94062(11) 0.9878(2)
H48_4 H 0.1482 0.8701 0.9937
H25_4 H 0.7090 0.2106 0.9904
H27_4 H 0.6455 0.2713 0.9760
C75_4 C 0.9721(2) 0.20455(11) 0.9681(3)
H37_4 H 0.9504 0.2249 0.9344
C76_4 C 0.9608(2) 0.17043(11) 0.9335(3)
H38_4 H 0.9317 0.1677 0.8765
C77_4 C 0.99087(18) 0.14068(10) 0.9802(2)
C80_4 C 0.98076(18) 0.10434(10) 0.9474(2)
C81_4 C 0.97521(16) 0.07341(9) 0.9264(2)
C82_4 C 0.97267(16) 0.03521(9) 0.90923(19)
C83_4 C 0.91438(16) 0.01691(9) 0.8670(2)
H41_4 H 0.8756 0.0298 0.8460
H68_4 H 0.880042 0.451286 0.987522
H69_4 H 0.931595 0.479142 0.974247
loop_
_geom_bond_atom_site_label_1
_geom_bond_atom_site_label_2
_geom_bond_site_symmetry_1
_geom_bond_site_symmetry_2
O18 C96 1_555 1_555
O19 C96 1_555 1_555
H37 C75 1_555 1_555
C76 C75 1_555 1_555
H38 C76 1_555 1_555
C77 C76 1_555 1_555
C80 C77 1_555 1_555
C81 C80 1_555 1_555
C82 C81 1_555 1_555
C83 C82 1_555 1_555
H41 C83 1_555 1_555
C84 C83 1_555 1_555
C85 C84 1_555 1_555
H42 C85 1_555 1_555
C86 C85 1_555 1_555
C87 C82 1_555 1_555
H43 C87 1_555 1_555
C88 C84 1_555 1_555
C89 C88 1_555 1_555
C90 C89 1_555 1_555
C91 C90 1_555 1_555
H44 C91 1_555 1_555
C92 C91 1_555 1_555
H45 C92 1_555 1_555
C93 C92 1_555 1_555
C94 C93 1_555 1_555
H46 C94 1_555 1_555
C95 C90 1_555 1_555
H47 C95 1_555 1_555
C96 C93 1_555 1_555
C97 C86 1_555 1_555
C98 C97 1_555 1_555
C86 C87 1_555 1_555
C94 C95 1_555 1_555
Co1 O2 1_555 1_555
Co2 O1 1_555 1_555
Co3 O10 1_555 1_555
O1 C1 1_555 1_555
O2 C1 1_555 1_555
O3 C24 1_555 1_555
O5 C33 1_555 1_555
O6 C33 1_555 1_555
O7 C49 1_555 1_555
O8 C49 1_555 1_555
O9 Co1 1_555 1_555
O10 Co1 1_555 1_555
O11 Co3 1_555 1_555
O12 Co1 1_555 1_555
N1 C54 1_555 1_555
C1 C2 1_555 1_555
C2 C3 1_555 1_555
C3 H1 1_555 1_555
C4 C3 1_555 1_555
H2 C4 1_555 1_555
C5 C4 1_555 1_555
C6 C5 1_555 1_555
H3 C6 1_555 1_555
C7 C2 1_555 1_555
H4 C7 1_555 1_555
C8 C5 1_555 1_555
C9 C8 1_555 1_555
C10 C9 1_555 1_555
C11 C10 1_555 1_555
H5 C11 1_555 1_555
C12 C11 1_555 1_555
C13 C12 1_555 1_555
H6 C13 1_555 1_555
C14 C13 1_555 1_555
C15 C10 1_555 1_555
H7 C15 1_555 1_555
C16 C12 1_555 1_555
C17 C16 1_555 1_555
C18 C17 1_555 1_555
C19 C18 1_555 1_555
H8 C19 1_555 1_555
C20 C19 1_555 1_555
H9 C20 1_555 1_555
C21 C20 1_555 1_555
C22 C21 1_555 1_555
H10 C22 1_555 1_555
C23 C18 1_555 1_555
H11 C23 1_555 1_555
C24 C21 1_555 1_555
C25 C14 1_555 1_555
C26 C25 1_555 1_555
C27 C26 1_555 1_555
C28 C27 1_555 1_555
H12 C28 1_555 1_555
C29 C28 1_555 1_555
H13 C29 1_555 1_555
C30 C29 1_555 1_555
C31 C30 1_555 1_555
H14 C31 1_555 1_555
C32 C27 1_555 1_555
H15 C32 1_555 1_555
C33 C30 1_555 1_555
C34 O9 1_555 1_555
C35 C34 1_555 1_555
C36 C35 1_555 1_555
H16 C36 1_555 1_555
C37 C36 1_555 1_555
H17 C37 1_555 1_555
C38 C37 1_555 1_555
C39 C38 1_555 1_555
C40 C39 1_555 1_555
C41 C40 1_555 1_555
C42 C41 1_555 1_555
H18 C42 1_555 1_555
C43 H19 1_555 1_555
C44 C42 1_555 1_555
C45 C44 1_555 1_555
C46 C45 1_555 1_555
C47 C46 1_555 1_555
C48 C47 1_555 1_555
H20 C48 1_555 1_555
C49 C50 1_555 1_555
C50 C51 1_555 1_555
C51 H21 1_555 1_555
C52 C47 1_555 1_555
H22 C52 1_555 1_555
C53 C48 1_555 1_555
H23 C53 1_555 1_555
C54 O12 1_555 1_555
C55 N1 1_555 1_555
H24 C55 1_555 1_555
H26 C55 1_555 1_555
C56 N1 1_555 1_555
H28 C56 1_555 1_555
H29 C56 1_555 1_555
N2 C57 1_555 1_555
C57 O11 1_555 1_555
C58 N2 1_555 1_555
C59 N2 1_555 1_555
O13 C34 1_555 1_555
C60 C35 1_555 1_555
H30 C60 1_555 1_555
C61 C38 1_555 1_555
H31 C61 1_555 1_555
C62 C41 1_555 1_555
H32 C62 1_555 1_555
C63 C43 1_555 1_555
C64 C63 1_555 1_555
C65 C64 1_555 1_555
C66 C65 1_555 1_555
C67 C66 1_555 1_555
H33 C67 1_555 1_555
O14 C68 1_555 1_555
O15 C68 1_555 1_555
C68 C69 1_555 1_555
C69 C70 1_555 1_555
C70 H34 1_555 1_555
C71 C66 1_555 1_555
H35 C71 1_555 1_555
C72 C67 1_555 1_555
H36 C72 1_555 1_555
Co4 O13 1_555 1_555
Co5 O16 1_555 1_555
O16 C73 1_555 1_555
O17 Co4 1_555 1_555
O20 C105 1_555 1_555
O21 C105 1_555 1_555
O22 Co3 1_555 1_555
O23 Co3 1_555 1_555
O24 Co4 1_555 1_555
N3 C106 1_555 1_555
C73 O17 1_555 1_555
C74 C73 1_555 1_555
H39 C78 1_555 1_555
C79 C74 1_555 1_555
H40 C79 1_555 1_555
C100 C99 1_555 1_555
C101 C100 1_555 1_555
H49 C101 1_555 1_555
C102 C101 1_555 1_555
C103 C102 1_555 1_555
H50 C103 1_555 1_555
C104 C99 1_555 1_555
H51 C104 1_555 1_555
C105 C102 1_555 1_555
C106 O24 1_555 1_555
C107 N3 1_555 1_555
H52 C107 1_555 1_555
H53 C107 1_555 1_555
H54 C107 1_555 1_555
C108 N3 1_555 1_555
H55 C108 1_555 1_555
H56 C108 1_555 1_555
H57 C108 1_555 1_555
N4 C109 1_555 1_555
C109 O23 1_555 1_555
C110 N4 1_555 1_555
C111 N4 1_555 1_555
Co6 O8 1_555 1_555
Co7 O5 1_555 1_555
Co9 O7 1_555 1_555
Co11 O14 1_555 1_555
Co13 O21 1_555 1_555
Co13_2 O6 1_555 1_555
O25 Co5 1_555 1_555
O26 Co2 1_555 1_555
O27 Co4 1_555 1_555
O28 Co1 1_555 1_555
O29 Co3 1_555 1_555
O30 Co3 1_555 1_555
O31 Co2 1_555 1_555
O32 Co5 1_555 1_555
O33 Co1 1_555 1_555
O34 Co4 1_555 1_555
Co2 O10 1_555 1_555
C6 C7 1_555 1_555
C14 C15 1_555 1_555
C22 C23 1_555 1_555
C31 C32 1_555 1_555
C43 C44 1_555 1_555
C50 C53 1_555 1_555
C51 C52 1_555 1_555
C60 C61 1_555 1_555
C62 C63 1_555 1_555
O15 Co7 1_555 1_555
C69 C72 1_555 1_555
C70 C71 1_555 1_555
Co4 O22 1_555 1_555
Co5 O22 1_555 1_555
O20 Co6 1_555 1_555
C78 C79 1_555 1_555
C103 C104 1_555 1_555
C54 H58 1_555 1_555
C58 H59 1_555 1_555
C58 H60 1_555 1_555
C58 H61 1_555 1_555
C57 H62 1_555 1_555
C59 H63 1_555 1_555
C59 H64 1_555 1_555
C59 H65 1_555 1_555
C109 H66 1_555 1_555
C106 H67 1_555 1_555
C110 H70 1_555 1_555
C111 H71 1_555 1_555
C111 H72 1_555 1_555
C111 H73 1_555 1_555
O18_2 C96_2 1_555 1_555
O26 C96_2 1_555 1_555
C85_2 C84_2 1_555 1_555
H42_2 C85_2 1_555 1_555
C88_2 C84_2 1_555 1_555
C89_2 C88_2 1_555 1_555
C90_2 C89_2 1_555 1_555
C91_2 C90_2 1_555 1_555
H44_2 C91_2 1_555 1_555
C92_2 C91_2 1_555 1_555
H45_2 C92_2 1_555 1_555
C93_2 C92_2 1_555 1_555
C94_2 C93_2 1_555 1_555
H46_2 C94_2 1_555 1_555
C95_2 C90_2 1_555 1_555
H47_2 C95_2 1_555 1_555
C96_2 C93_2 1_555 1_555
C94_2 C95_2 1_555 1_555
O27 C33_2 1_555 1_555
O29 C33_2 1_555 1_555
C25_2 C14_2 1_555 1_555
C26_2 C25_2 1_555 1_555
C27_2 C26_2 1_555 1_555
C28_2 C27_2 1_555 1_555
H12_2 C28_2 1_555 1_555
C29_2 C28_2 1_555 1_555
H13_2 C29_2 1_555 1_555
C30_2 C29_2 1_555 1_555
C31_2 C30_2 1_555 1_555
H14_2 C31_2 1_555 1_555
C32_2 C27_2 1_555 1_555
H15_2 C32_2 1_555 1_555
C33_2 C30_2 1_555 1_555
C43_2 H19_2 1_555 1_555
C63_2 C43_2 1_555 1_555
C64_2 C63_2 1_555 1_555
C65_2 C64_2 1_555 1_555
C66_2 C65_2 1_555 1_555
C67_2 C66_2 1_555 1_555
H33_2 C67_2 1_555 1_555
O32 C68_2 1_555 1_555
O34 C68_2 1_555 1_555
C68_2 C69_2 1_555 1_555
C69_2 C70_2 1_555 1_555
C70_2 H34_2 1_555 1_555
C71_2 C66_2 1_555 1_555
H35_2 C71_2 1_555 1_555
C72_2 C67_2 1_555 1_555
H36_2 C72_2 1_555 1_555
C31_2 C32_2 1_555 1_555
C62_2 C63_2 1_555 1_555
C69_2 C72_2 1_555 1_555
C70_2 C71_2 1_555 1_555
Co6 O2_2 1_555 1_555
Co13 O10_2 1_555 1_555
O2_2 C1_2 1_555 1_555
O9_2 Co6 1_555 1_555
O10_2 Co6 1_555 1_555
O11_2 Co13 1_555 1_555
O12_2 Co6 1_555 1_555
N1_2 C54_2 1_555 1_555
C1_2 C2_2 1_555 1_555
H3_2 C6_2 1_555 1_555
C7_2 C2_2 1_555 1_555
H4_2 C7_2 1_555 1_555
H7_2 C15_2 1_555 1_555
C34_2 O9_2 1_555 1_555
C35_2 C34_2 1_555 1_555
C39_2 C38_2 1_555 1_555
C40_2 C39_2 1_555 1_555
C41_2 C40_2 1_555 1_555
C54_2 O12_2 1_555 1_555
C55_2 N1_2 1_555 1_555
H24_2 C55_2 1_555 1_555
H26_2 C55_2 1_555 1_555
C56_2 N1_2 1_555 1_555
H28_2 C56_2 1_555 1_555
H29_2 C56_2 1_555 1_555
C60_2 C35_2 1_555 1_555
H30_2 C60_2 1_555 1_555
C61_2 C38_2 1_555 1_555
H31_2 C61_2 1_555 1_555
N4_2 C109_2 1_555 1_555
C110_2 N4_2 1_555 1_555
Co9 O10_2 1_555 1_555
C6_2 C7_2 1_555 1_555
C60_2 C61_2 1_555 1_555
C54_2 H58_2 1_555 1_555
C59_2 H63_2 1_555 1_555
C59_2 H64_2 1_555 1_555
C59_2 H65_2 1_555 1_555
C109_2 H66_2 1_555 1_555
C110_2 H70_2 1_555 1_555
O3_2 C24_2 1_555 1_555
O31 C49_2 1_555 1_555
O33 C49_2 1_555 1_555
C13_2 C12_2 1_555 1_555
H6_2 C13_2 1_555 1_555
C16_2 C12_2 1_555 1_555
C17_2 C16_2 1_555 1_555
C18_2 C17_2 1_555 1_555
C19_2 C18_2 1_555 1_555
H8_2 C19_2 1_555 1_555
C20_2 C19_2 1_555 1_555
H9_2 C20_2 1_555 1_555
C21_2 C20_2 1_555 1_555
C22_2 C21_2 1_555 1_555
H10_2 C22_2 1_555 1_555
C23_2 C18_2 1_555 1_555
H11_2 C23_2 1_555 1_555
C24_2 C21_2 1_555 1_555
C43_3 H19_3 1_555 1_555
C44_2 C42_2 1_555 1_555
C45_2 C44_2 1_555 1_555
C46_2 C45_2 1_555 1_555
C47_2 C46_2 1_555 1_555
C48_2 C47_2 1_555 1_555
H20_2 C48_2 1_555 1_555
C49_2 C50_2 1_555 1_555
C50_2 C51_2 1_555 1_555
C51_2 H21_2 1_555 1_555
C52_2 C47_2 1_555 1_555
H22_2 C52_2 1_555 1_555
C53_2 C48_2 1_555 1_555
H23_2 C53_2 1_555 1_555
O28 C105_2 1_555 1_555
O30 C105_2 1_555 1_555
C100_2 C99_2 1_555 1_555
C101_2 C100_2 1_555 1_555
H49_2 C101_2 1_555 1_555
C102_2 C101_2 1_555 1_555
C103_2 C102_2 1_555 1_555
H50_2 C103_2 1_555 1_555
C104_2 C99_2 1_555 1_555
H51_2 C104_2 1_555 1_555
C105_2 C102_2 1_555 1_555
C22_2 C23_2 1_555 1_555
C43_3 C44_2 1_555 1_555
C50_2 C53_2 1_555 1_555
C51_2 C52_2 1_555 1_555
C103_2 C104_2 1_555 1_555
C3_2 H1_2 1_555 1_555
C4_2 C3_2 1_555 1_555
H2_2 C4_2 1_555 1_555
C5_2 C4_2 1_555 1_555
C8_2 C5_2 1_555 1_555
C9_2 C8_2 1_555 1_555
C10_2 C9_2 1_555 1_555
C11_2 C10_2 1_555 1_555
H5_2 C11_2 1_555 1_555
C35_3 C34_3 1_555 1_555
C36_2 C35_3 1_555 1_555
H16_2 C36_2 1_555 1_555
C37_2 C36_2 1_555 1_555
H17_2 C37_2 1_555 1_555
C38_3 C37_2 1_555 1_555
C39_3 C38_3 1_555 1_555
C40_3 C39_3 1_555 1_555
C41_3 C40_3 1_555 1_555
N2_2 C57_2 1_555 1_555
C58_2 N2_2 1_555 1_555
O13_2 C34_3 1_555 1_555
Co7 O13_2 1_555 1_555
O17_2 Co7 1_555 1_555
O22_2 Co13_2 1_555 1_555
O23_2 Co13_2 1_555 1_555
O24_2 Co7 1_555 1_555
N3_2 C106_2 1_555 1_555
C73_2 O17_2 1_555 1_555
C74_2 C73_2 1_555 1_555
H39_2 C78_2 1_555 1_555
C79_2 C74_2 1_555 1_555
H40_2 C79_2 1_555 1_555
C106_2 O24_2 1_555 1_555
C107_2 N3_2 1_555 1_555
H52_2 C107_2 1_555 1_555
H53_2 C107_2 1_555 1_555
H54_2 C107_2 1_555 1_555
C108_2 N3_2 1_555 1_555
H55_2 C108_2 1_555 1_555
H56_2 C108_2 1_555 1_555
H57_2 C108_2 1_555 1_555
Co7 O22_2 1_555 1_555
Co11 O22_2 1_555 1_555
C78_2 C79_2 1_555 1_555
C58_2 H59_2 1_555 1_555
C58_2 H60_2 1_555 1_555
C58_2 H61_2 1_555 1_555
C57_2 H62_2 1_555 1_555
C106_2 H67_2 1_555 1_555
C111_2 H71_2 1_555 1_555
C111_2 H72_2 1_555 1_555
C111_2 H73_2 1_555 1_555
H37_2 C75_2 1_555 1_555
C76_2 C75_2 1_555 1_555
H38_2 C76_2 1_555 1_555
C77_2 C76_2 1_555 1_555
C80_2 C77_2 1_555 1_555
C81_2 C80_2 1_555 1_555
C82_2 C81_2 1_555 1_555
C83_2 C82_2 1_555 1_555
H41_2 C83_2 1_555 1_555
C97_2 C86_2 1_555 1_555
C98_2 C97_2 1_555 1_555
H43_2 C87_2 1_555 1_555
Co1_2 O2_3 1_555 1_555
Co2_2 O1_3 1_555 1_555
Co3_2 O10_3 1_555 1_555
O1_3 C1_3 1_555 1_555
O2_3 C1_3 1_555 1_555
O3_3 C24_3 1_555 1_555
O5_2 C33_3 1_555 1_555
O6_2 C33_3 1_555 1_555
O7_2 C49_3 1_555 1_555
O8_2 C49_3 1_555 1_555
O9_3 Co1_2 1_555 1_555
O10_3 Co1_2 1_555 1_555
O11_3 Co3_2 1_555 1_555
O12_3 Co1_2 1_555 1_555
N1_3 C54_3 1_555 1_555
C1_3 C2_3 1_555 1_555
C2_3 C3_3 1_555 1_555
C3_3 H1_3 1_555 1_555
C4_3 C3_3 1_555 1_555
H2_3 C4_3 1_555 1_555
C5_3 C4_3 1_555 1_555
C6_3 C5_3 1_555 1_555
H3_3 C6_3 1_555 1_555
C7_3 C2_3 1_555 1_555
H4_3 C7_3 1_555 1_555
C8_3 C5_3 1_555 1_555
C9_3 C8_3 1_555 1_555
C10_3 C9_3 1_555 1_555
C11_3 C10_3 1_555 1_555
H5_3 C11_3 1_555 1_555
C12_3 C11_3 1_555 1_555
C13_3 C12_3 1_555 1_555
H6_3 C13_3 1_555 1_555
C14_3 C13_3 1_555 1_555
C15_3 C10_3 1_555 1_555
H7_3 C15_3 1_555 1_555
C16_3 C12_3 1_555 1_555
C17_3 C16_3 1_555 1_555
C18_3 C17_3 1_555 1_555
C19_3 C18_3 1_555 1_555
H8_3 C19_3 1_555 1_555
C20_3 C19_3 1_555 1_555
H9_3 C20_3 1_555 1_555
C21_3 C20_3 1_555 1_555
C22_3 C21_3 1_555 1_555
H10_3 C22_3 1_555 1_555
C23_3 C18_3 1_555 1_555
H11_3 C23_3 1_555 1_555
C24_3 C21_3 1_555 1_555
C25_3 C14_3 1_555 1_555
C26_3 C25_3 1_555 1_555
C27_3 C26_3 1_555 1_555
C28_3 C27_3 1_555 1_555
H12_3 C28_3 1_555 1_555
C29_3 C28_3 1_555 1_555
H13_3 C29_3 1_555 1_555
C30_3 C29_3 1_555 1_555
C31_3 C30_3 1_555 1_555
H14_3 C31_3 1_555 1_555
C32_3 C27_3 1_555 1_555
H15_3 C32_3 1_555 1_555
C33_3 C30_3 1_555 1_555
C34_4 O9_3 1_555 1_555
C35_4 C34_4 1_555 1_555
C36_3 C35_4 1_555 1_555
H16_3 C36_3 1_555 1_555
C37_3 C36_3 1_555 1_555
H17_3 C37_3 1_555 1_555
C38_4 C37_3 1_555 1_555
C39_4 C38_4 1_555 1_555
C40_4 C39_4 1_555 1_555
C41_4 C40_4 1_555 1_555
C42_3 C41_4 1_555 1_555
H18_3 C42_3 1_555 1_555
C43_4 H19_4 1_555 1_555
C44_3 C42_3 1_555 1_555
C45_3 C44_3 1_555 1_555
C46_3 C45_3 1_555 1_555
C47_3 C46_3 1_555 1_555
C48_3 C47_3 1_555 1_555
H20_3 C48_3 1_555 1_555
C49_3 C50_3 1_555 1_555
C50_3 C51_3 1_555 1_555
C51_3 H21_3 1_555 1_555
C52_3 C47_3 1_555 1_555
H22_3 C52_3 1_555 1_555
C53_3 C48_3 1_555 1_555
H23_3 C53_3 1_555 1_555
C54_3 O12_3 1_555 1_555
C55_3 N1_3 1_555 1_555
H24_3 C55_3 1_555 1_555
H26_3 C55_3 1_555 1_555
C56_3 N1_3 1_555 1_555
H28_3 C56_3 1_555 1_555
H29_3 C56_3 1_555 1_555
N2_3 C57_3 1_555 1_555
C57_3 O11_3 1_555 1_555
C58_3 N2_3 1_555 1_555
C59_3 N2_3 1_555 1_555
O13_3 C34_4 1_555 1_555
C60_3 C35_4 1_555 1_555
H30_3 C60_3 1_555 1_555
C61_3 C38_4 1_555 1_555
H31_3 C61_3 1_555 1_555
C62_3 C41_4 1_555 1_555
H32_3 C62_3 1_555 1_555
C63_3 C43_4 1_555 1_555
C64_3 C63_3 1_555 1_555
C65_3 C64_3 1_555 1_555
C66_3 C65_3 1_555 1_555
C67_3 C66_3 1_555 1_555
H33_3 C67_3 1_555 1_555
O14_2 C68_3 1_555 1_555
O15_2 C68_3 1_555 1_555
C68_3 C69_3 1_555 1_555
C69_3 C70_3 1_555 1_555
C70_3 H34_3 1_555 1_555
C71_3 C66_3 1_555 1_555
H35_3 C71_3 1_555 1_555
C72_3 C67_3 1_555 1_555
H36_3 C72_3 1_555 1_555
Co4_2 O13_3 1_555 1_555
Co5_2 O16_3 1_555 1_555
O16_3 C73_3 1_555 1_555
O17_3 Co4_2 1_555 1_555
O20_2 C105_3 1_555 1_555
O21_2 C105_3 1_555 1_555
O22_3 Co3_2 1_555 1_555
O23_3 Co3_2 1_555 1_555
O24_3 Co4_2 1_555 1_555
N3_3 C106_3 1_555 1_555
C73_3 O17_3 1_555 1_555
C74_3 C73_3 1_555 1_555
H39_3 C78_3 1_555 1_555
C79_3 C74_3 1_555 1_555
H40_3 C79_3 1_555 1_555
C100_3 C99_3 1_555 1_555
C101_3 C100_3 1_555 1_555
H49_3 C101_3 1_555 1_555
C102_3 C101_3 1_555 1_555
C103_3 C102_3 1_555 1_555
H50_3 C103_3 1_555 1_555
C104_3 C99_3 1_555 1_555
H51_3 C104_3 1_555 1_555
C105_3 C102_3 1_555 1_555
C106_3 O24_3 1_555 1_555
C107_3 N3_3 1_555 1_555
H52_3 C107_3 1_555 1_555
H53_3 C107_3 1_555 1_555
H54_3 C107_3 1_555 1_555
C108_3 N3_3 1_555 1_555
H55_3 C108_3 1_555 1_555
H56_3 C108_3 1_555 1_555
H57_3 C108_3 1_555 1_555
N4_3 C109_3 1_555 1_555
C109_3 O23_3 1_555 1_555
C110_3 N4_3 1_555 1_555
C111_3 N4_3 1_555 1_555
Co6_2 O8_2 1_555 1_555
Co7_2 O5_2 1_555 1_555
Co8 O7_2 1_555 1_555
Co10 O14_2 1_555 1_555
Co12_2 O21_2 1_555 1_555
Co12 O6_2 1_555 1_555
O25_2 Co5_2 1_555 1_555
O26_2 Co2_2 1_555 1_555
O27_2 Co4_2 1_555 1_555
O28_2 Co1_2 1_555 1_555
O29_2 Co3_2 1_555 1_555
O30_2 Co3_2 1_555 1_555
O31_2 Co2_2 1_555 1_555
O32_2 Co5_2 1_555 1_555
O33_2 Co1_2 1_555 1_555
O34_2 Co4_2 1_555 1_555
Co2_2 O10_3 1_555 1_555
C6_3 C7_3 1_555 1_555
C14_3 C15_3 1_555 1_555
C22_3 C23_3 1_555 1_555
C31_3 C32_3 1_555 1_555
C43_4 C44_3 1_555 1_555
C50_3 C53_3 1_555 1_555
C51_3 C52_3 1_555 1_555
C60_3 C61_3 1_555 1_555
C62_3 C63_3 1_555 1_555
O15_2 Co7_2 1_555 1_555
C69_3 C72_3 1_555 1_555
C70_3 C71_3 1_555 1_555
Co4_2 O22_3 1_555 1_555
Co5_2 O22_3 1_555 1_555
O20_2 Co6_2 1_555 1_555
C78_3 C79_3 1_555 1_555
C103_3 C104_3 1_555 1_555
C54_3 H58_3 1_555 1_555
C58_3 H59_3 1_555 1_555
C58_3 H60_3 1_555 1_555
C58_3 H61_3 1_555 1_555
C57_3 H62_3 1_555 1_555
C59_3 H63_3 1_555 1_555
C59_3 H64_3 1_555 1_555
C59_3 H65_3 1_555 1_555
C109_3 H66_3 1_555 1_555
C106_3 H67_3 1_555 1_555
C110_3 H70_3 1_555 1_555
C111_3 H71_3 1_555 1_555
C111_3 H72_3 1_555 1_555
C111_3 H73_3 1_555 1_555
O18_3 C96_3 1_555 1_555
O19_2 C96_3 1_555 1_555
H37_3 C75_3 1_555 1_555
C76_3 C75_3 1_555 1_555
H38_3 C76_3 1_555 1_555
C77_3 C76_3 1_555 1_555
C80_3 C77_3 1_555 1_555
C81_3 C80_3 1_555 1_555
C82_3 C81_3 1_555 1_555
C83_3 C82_3 1_555 1_555
H41_3 C83_3 1_555 1_555
C84_3 C83_3 1_555 1_555
C85_3 C84_3 1_555 1_555
H42_3 C85_3 1_555 1_555
C86_3 C85_3 1_555 1_555
C87_3 C82_3 1_555 1_555
H43_3 C87_3 1_555 1_555
C88_3 C84_3 1_555 1_555
C89_3 C88_3 1_555 1_555
C90_3 C89_3 1_555 1_555
C91_3 C90_3 1_555 1_555
H44_3 C91_3 1_555 1_555
C92_3 C91_3 1_555 1_555
H45_3 C92_3 1_555 1_555
C93_3 C92_3 1_555 1_555
C94_3 C93_3 1_555 1_555
H46_3 C94_3 1_555 1_555
C95_3 C90_3 1_555 1_555
H47_3 C95_3 1_555 1_555
C96_3 C93_3 1_555 1_555
C97_3 C86_3 1_555 1_555
C98_3 C97_3 1_555 1_555
C86_3 C87_3 1_555 1_555
C94_3 C95_3 1_555 1_555
C3_4 H1_4 1_555 1_555
C4_4 C3_4 1_555 1_555
H2_4 C4_4 1_555 1_555
C5_4 C4_4 1_555 1_555
C8_4 C5_4 1_555 1_555
C9_4 C8_4 1_555 1_555
C10_4 C9_4 1_555 1_555
C11_4 C10_4 1_555 1_555
H5_4 C11_4 1_555 1_555
C35_5 C34_5 1_555 1_555
C36_4 C35_5 1_555 1_555
H16_4 C36_4 1_555 1_555
C37_4 C36_4 1_555 1_555
H17_4 C37_4 1_555 1_555
C38_5 C37_4 1_555 1_555
C39_5 C38_5 1_555 1_555
C40_5 C39_5 1_555 1_555
C41_5 C40_5 1_555 1_555
N2_4 C57_4 1_555 1_555
C58_4 N2_4 1_555 1_555
O13_4 C34_5 1_555 1_555
Co7_2 O13_4 1_555 1_555
O17_4 Co7_2 1_555 1_555
O22_4 Co12 1_555 1_555
O23_4 Co12 1_555 1_555
O24_4 Co7_2 1_555 1_555
N3_4 C106_4 1_555 1_555
C73_4 O17_4 1_555 1_555
C74_4 C73_4 1_555 1_555
H39_4 C78_4 1_555 1_555
C79_4 C74_4 1_555 1_555
H40_4 C79_4 1_555 1_555
C106_4 O24_4 1_555 1_555
C107_4 N3_4 1_555 1_555
H52_4 C107_4 1_555 1_555
H53_4 C107_4 1_555 1_555
H54_4 C107_4 1_555 1_555
C108_4 N3_4 1_555 1_555
H55_4 C108_4 1_555 1_555
H56_4 C108_4 1_555 1_555
H57_4 C108_4 1_555 1_555
Co7_2 O22_4 1_555 1_555
Co10 O22_4 1_555 1_555
C78_4 C79_4 1_555 1_555
C58_4 H59_4 1_555 1_555
C58_4 H60_4 1_555 1_555
C58_4 H61_4 1_555 1_555
C57_4 H62_4 1_555 1_555
C106_4 H67_4 1_555 1_555
C111_4 H71_4 1_555 1_555
C111_4 H72_4 1_555 1_555
C111_4 H73_4 1_555 1_555
O3_4 C24_4 1_555 1_555
O31_2 C49_4 1_555 1_555
O33_2 C49_4 1_555 1_555
C13_4 C12_4 1_555 1_555
H6_4 C13_4 1_555 1_555
C16_4 C12_4 1_555 1_555
C17_4 C16_4 1_555 1_555
C18_4 C17_4 1_555 1_555
C19_4 C18_4 1_555 1_555
H8_4 C19_4 1_555 1_555
C20_4 C19_4 1_555 1_555
H9_4 C20_4 1_555 1_555
C21_4 C20_4 1_555 1_555
C22_4 C21_4 1_555 1_555
H10_4 C22_4 1_555 1_555
C23_4 C18_4 1_555 1_555
H11_4 C23_4 1_555 1_555
C24_4 C21_4 1_555 1_555
C43_5 H19_5 1_555 1_555
C44_4 C42_4 1_555 1_555
C45_4 C44_4 1_555 1_555
C46_4 C45_4 1_555 1_555
C47_4 C46_4 1_555 1_555
C48_4 C47_4 1_555 1_555
H20_4 C48_4 1_555 1_555
C49_4 C50_4 1_555 1_555
C50_4 C51_4 1_555 1_555
C51_4 H21_4 1_555 1_555
C52_4 C47_4 1_555 1_555
H22_4 C52_4 1_555 1_555
C53_4 C48_4 1_555 1_555
H23_4 C53_4 1_555 1_555
O28_2 C105_4 1_555 1_555
O30_2 C105_4 1_555 1_555
C100_4 C99_4 1_555 1_555
C101_4 C100_4 1_555 1_555
H49_4 C101_4 1_555 1_555
C102_4 C101_4 1_555 1_555
C103_4 C102_4 1_555 1_555
H50_4 C103_4 1_555 1_555
C104_4 C99_4 1_555 1_555
H51_4 C104_4 1_555 1_555
C105_4 C102_4 1_555 1_555
C22_4 C23_4 1_555 1_555
C43_5 C44_4 1_555 1_555
C50_4 C53_4 1_555 1_555
C51_4 C52_4 1_555 1_555
C103_4 C104_4 1_555 1_555
Co6_2 O2_4 1_555 1_555
Co12_2 O10_4 1_555 1_555
O2_4 C1_4 1_555 1_555
O9_4 Co6_2 1_555 1_555
O10_4 Co6_2 1_555 1_555
O11_4 Co12_2 1_555 1_555
O12_4 Co6_2 1_555 1_555
N1_4 C54_4 1_555 1_555
C1_4 C2_4 1_555 1_555
H3_4 C6_4 1_555 1_555
C7_4 C2_4 1_555 1_555
H4_4 C7_4 1_555 1_555
H7_4 C15_4 1_555 1_555
C34_6 O9_4 1_555 1_555
C35_6 C34_6 1_555 1_555
C39_6 C38_6 1_555 1_555
C40_6 C39_6 1_555 1_555
C41_6 C40_6 1_555 1_555
C54_4 O12_4 1_555 1_555
C55_4 N1_4 1_555 1_555
H24_4 C55_4 1_555 1_555
H26_4 C55_4 1_555 1_555
C56_4 N1_4 1_555 1_555
H28_4 C56_4 1_555 1_555
H29_4 C56_4 1_555 1_555
C60_4 C35_6 1_555 1_555
H30_4 C60_4 1_555 1_555
C61_4 C38_6 1_555 1_555
H31_4 C61_4 1_555 1_555
N4_4 C109_4 1_555 1_555
C110_4 N4_4 1_555 1_555
Co8 O10_4 1_555 1_555
C6_4 C7_4 1_555 1_555
C60_4 C61_4 1_555 1_555
C54_4 H58_4 1_555 1_555
C59_4 H63_4 1_555 1_555
C59_4 H64_4 1_555 1_555
C59_4 H65_4 1_555 1_555
C109_4 H66_4 1_555 1_555
C110_4 H70_4 1_555 1_555
O27_2 C33_4 1_555 1_555
O29_2 C33_4 1_555 1_555
C25_4 C14_4 1_555 1_555
C26_4 C25_4 1_555 1_555
C27_4 C26_4 1_555 1_555
C28_4 C27_4 1_555 1_555
H12_4 C28_4 1_555 1_555
C29_4 C28_4 1_555 1_555
H13_4 C29_4 1_555 1_555
C30_4 C29_4 1_555 1_555
C31_4 C30_4 1_555 1_555
H14_4 C31_4 1_555 1_555
C32_4 C27_4 1_555 1_555
H15_4 C32_4 1_555 1_555
C33_4 C30_4 1_555 1_555
C43_6 H19_6 1_555 1_555
C63_4 C43_6 1_555 1_555
C64_4 C63_4 1_555 1_555
C65_4 C64_4 1_555 1_555
C66_4 C65_4 1_555 1_555
C67_4 C66_4 1_555 1_555
H33_4 C67_4 1_555 1_555
O32_2 C68_4 1_555 1_555
O34_2 C68_4 1_555 1_555
C68_4 C69_4 1_555 1_555
C69_4 C70_4 1_555 1_555
C70_4 H34_4 1_555 1_555
C71_4 C66_4 1_555 1_555
H35_4 C71_4 1_555 1_555
C72_4 C67_4 1_555 1_555
H36_4 C72_4 1_555 1_555
C31_4 C32_4 1_555 1_555
C62_4 C63_4 1_555 1_555
C69_4 C72_4 1_555 1_555
C70_4 C71_4 1_555 1_555
O18_4 C96_4 1_555 1_555
O26_2 C96_4 1_555 1_555
C85_4 C84_4 1_555 1_555
H42_4 C85_4 1_555 1_555
C88_4 C84_4 1_555 1_555
C89_4 C88_4 1_555 1_555
C90_4 C89_4 1_555 1_555
C91_4 C90_4 1_555 1_555
H44_4 C91_4 1_555 1_555
C92_4 C91_4 1_555 1_555
H45_4 C92_4 1_555 1_555
C93_4 C92_4 1_555 1_555
C94_4 C93_4 1_555 1_555
H46_4 C94_4 1_555 1_555
C95_4 C90_4 1_555 1_555
H47_4 C95_4 1_555 1_555
C96_4 C93_4 1_555 1_555
C94_4 C95_4 1_555 1_555
H43_4 C87_4 1_555 1_555
C97_4 C86_4 1_555 1_555
C98_4 C97_4 1_555 1_555
H37_4 C75_4 1_555 1_555
C76_4 C75_4 1_555 1_555
H38_4 C76_4 1_555 1_555
C77_4 C76_4 1_555 1_555
C80_4 C77_4 1_555 1_555
C81_4 C80_4 1_555 1_555
C82_4 C81_4 1_555 1_555
C83_4 C82_4 1_555 1_555
H41_4 C83_4 1_555 1_555

#END
