
###############################################################################
#
# This file contains modified crystal structure data generated from the
# MOF subset of the Cambridge Structural Database (CSD) v543 
# hosted by the Cambridge Crystallographic Data Centre (CCDC).
#
# This work is licensed under the Creative Commons
# Attribution-NonCommercial-ShareAlike 4.0 International License.
# To view a copy of this license, visit
# http://creativecommons.org/licenses/by-nc-sa/4.0/
# or send a letter to
# Creative Commons, PO Box 1866, Mountain View, CA 94042, USA.
#
# CIF created using the CSD Python API on 29 September 2022
# The structure has been converted into the P1 space group
# The structure has a 3D framework
# The original CSD entry KULRIT is in the monoclinic crystal system
# The framework has been calculated to contain at least 10.0% void space
# The void calculation uses a probe of radius 1.32A, grid spacing 0.4
#
###############################################################################

data_KULRIT
_chemical_formula_moiety         '(C48 H64 N4 O26 Yb4)n'
_symmetry_cell_setting           triclinic
_symmetry_space_group_name_H-M   'P 1'
_symmetry_Int_Tables_number      1
_space_group_name_Hall           'P 1'
loop_
_symmetry_equiv_pos_site_id
_symmetry_equiv_pos_as_xyz
1 x,y,z
_cell_length_a                   8.5773(8)
_cell_length_b                   16.7281(15)
_cell_length_c                   12.1397(11)
_cell_angle_alpha                90
_cell_angle_beta                 93.036(2)
_cell_angle_gamma                90
_cell_volume                     1739.38
loop_
_atom_site_label
_atom_site_type_symbol
_atom_site_fract_x
_atom_site_fract_y
_atom_site_fract_z
C11 C 0.0658(13) 0.1993(8) 0.7391(14)
H11 H 0.0898 0.2126 0.8150
H12 H 0.0598 0.2474 0.6959
H13 H 0.1463 0.1654 0.7129
C1 C 0.1702(8) 0.1663(4) 0.2450(7)
H1 H 0.1507 0.2068 0.1889
H2 H 0.2642 0.1813 0.2881
C2 C 0.1968(8) 0.0866(4) 0.1894(6)
H3 H 0.229(9) 0.047(4) 0.245(6)
C3 C 0.0451(8) 0.0583(4) 0.1260(6)
H4 H 0.0619 0.0057 0.0952
H5 H 0.0203 0.0947 0.0654
C6 C 0.0332(9) 0.1642(4) 0.3204(7)
H9 H 0.058(9) 0.127(5) 0.381(6)
C7 C 0.3205(8) 0.0923(4) 0.1051(7)
C9 C 0.0176(9) 0.2479(5) 0.3677(7)
O1 O 0.3382(7) 0.1537(3) 0.0510(5)
O2 O 0.4054(6) 0.0310(3) 0.0870(4)
O5 O 0.1032(6) 0.2679(3) 0.4498(4)
Yb5 Yb 0.01840(3) 0.401966(17) 0.43117(3)
O9 O 0.7137(6) 0.0840(3) 0.0603(5)
Yb1 Yb 0.51840(3) 0.098034(17) 0.93117(3)
C10 C 0.8317(12) 0.1434(6) 0.8096(10)
H10 H 0.8662 0.1613 0.8792
C12 C 0.8679(17) 0.1369(9) 0.6164(11)
H14 H 0.9334 0.0953 0.5903
H15 H 0.8739 0.1828 0.5694
H16 H 0.7619 0.1184 0.6157
O7 O 0.7059(7) 0.1075(3) 0.8032(5)
N1 N 0.9205(9) 0.1588(5) 0.7293(8)
O10 O 0.3030(6) 0.0343(3) 0.8539(4)
O11 O 0.6032(6) 0.2321(3) 0.9498(4)
O12 O 0.4268(6) 0.2021(3) 0.8195(5)
Yb2 Yb 0.48160(3) 0.901966(17) 0.06883(3)
O8 O 0.5946(6) 0.9690(3) 0.9130(4)
C4 C 0.9050(8) 0.0549(4) 0.2028(6)
H6 H 0.924(8) 0.014(4) 0.260(6)
C5 C 0.8851(8) 0.1362(5) 0.2568(7)
H7 H 0.8009 0.1331 0.3070
H8 H 0.8560 0.1752 0.2003
C8 C 0.7597(8) 0.0333(4) 0.1314(6)
O6 O 0.9268(6) 0.2979(3) 0.3195(5)
O4 O 0.6970(6) 0.9657(3) 0.1461(4)
C1_2 C 0.3298(8) 0.6663(4) 0.2550(7)
H1_2 H 0.3493 0.7068 0.3111
H2_2 H 0.2358 0.6813 0.2119
C2_2 C 0.3032(8) 0.5866(4) 0.3106(6)
H3_2 H 0.271(9) 0.547(4) 0.255(6)
C3_2 C 0.4549(8) 0.5583(4) 0.3740(6)
H4_2 H 0.4381 0.5057 0.4048
H5_2 H 0.4797 0.5947 0.4346
C4_2 C 0.5950(8) 0.5549(4) 0.2972(6)
H6_2 H 0.576(8) 0.514(4) 0.240(6)
C5_2 C 0.6149(8) 0.6362(5) 0.2432(7)
H7_2 H 0.6991 0.6331 0.1930
H8_2 H 0.6440 0.6752 0.2997
C6_2 C 0.4668(9) 0.6642(4) 0.1796(7)
H9_2 H 0.442(9) 0.627(5) 0.119(6)
C7_2 C 0.1795(8) 0.5923(4) 0.3949(7)
C8_2 C 0.7403(8) 0.5333(4) 0.3686(6)
C9_2 C 0.4824(9) 0.7479(5) 0.1323(7)
O1_2 O 0.1618(7) 0.6537(3) 0.4490(5)
O2_2 O 0.0946(6) 0.5310(3) 0.4130(4)
O3 O 0.7863(6) 0.5840(3) 0.4397(5)
O4_2 O 0.8030(6) 0.4657(3) 0.3539(4)
O5_2 O 0.3968(6) 0.7679(3) 0.0502(4)
O6_2 O 0.5732(6) 0.7979(3) 0.1805(5)
Yb3 Yb 0.98160(3) 0.598034(17) 0.56883(3)
O10_2 O 0.1970(6) 0.5343(3) 0.6461(4)
O12_2 O 0.0732(6) 0.7021(3) 0.6805(5)
C10_2 C 0.6683(12) 0.6434(6) 0.6904(10)
H10_2 H 0.6338 0.6613 0.6208
C11_2 C 0.4342(13) 0.6993(8) 0.7609(14)
H11_2 H 0.4102 0.7126 0.6850
H12_2 H 0.4402 0.7474 0.8041
H13_2 H 0.3537 0.6654 0.7871
C12_2 C 0.6321(17) 0.6369(9) 0.8836(11)
H14_2 H 0.5666 0.5953 0.9097
H15_2 H 0.6261 0.6828 0.9306
H16_2 H 0.7381 0.6184 0.8843
O7_2 O 0.7941(7) 0.6075(3) 0.6968(5)
N1_2 N 0.5795(9) 0.6588(5) 0.7707(8)
O8_2 O 0.9054(6) 0.4690(3) 0.5870(4)
O11_2 O 0.8968(6) 0.7321(3) 0.5502(4)
C4_3 C 0.0950(8) 0.9451(4) 0.7972(6)
H6_3 H 0.076(8) 0.986(4) 0.740(6)
C5_3 C 0.1149(8) 0.8638(5) 0.7432(7)
H7_3 H 0.1991 0.8669 0.6930
H8_3 H 0.1440 0.8248 0.7997
C8_3 C 0.2403(8) 0.9667(4) 0.8686(6)
O3_2 O 0.2863(6) 0.9160(3) 0.9397(5)
C10_3 C 0.1683(12) 0.8566(6) 0.1904(10)
H10_3 H 0.1338 0.8387 0.1208
C12_3 C 0.1321(17) 0.8631(9) 0.3836(11)
H14_3 H 0.0666 0.9047 0.4097
H15_3 H 0.1261 0.8172 0.4306
H16_3 H 0.2381 0.8816 0.3843
O7_3 O 0.2941(7) 0.8925(3) 0.1968(5)
N1_3 N 0.0795(9) 0.8412(5) 0.2707(8)
C1_3 C 0.8298(8) 0.8337(4) 0.7550(7)
H1_3 H 0.8493 0.7932 0.8111
H2_3 H 0.7358 0.8187 0.7119
C2_3 C 0.8032(8) 0.9134(4) 0.8106(6)
H3_3 H 0.771(9) 0.953(4) 0.755(6)
C3_3 C 0.9549(8) 0.9417(4) 0.8740(6)
H4_3 H 0.9381 0.9943 0.9048
H5_3 H 0.9797 0.9053 0.9346
C6_3 C 0.9668(9) 0.8358(4) 0.6796(7)
H9_3 H 0.942(9) 0.873(5) 0.619(6)
C7_3 C 0.6795(8) 0.9077(4) 0.8949(7)
C9_3 C 0.9824(9) 0.7521(5) 0.6323(7)
O1_3 O 0.6618(7) 0.8463(3) 0.9490(5)
C10_4 C 0.3317(12) 0.3566(6) 0.3096(10)
H10_4 H 0.3662 0.3387 0.3792
C11_3 C 0.5658(13) 0.3007(8) 0.2391(14)
H11_3 H 0.5898 0.2874 0.3150
H12_3 H 0.5598 0.2526 0.1959
H13_3 H 0.6463 0.3346 0.2129
C12_4 C 0.3679(17) 0.3631(9) 0.1164(11)
H14_4 H 0.4334 0.4047 0.0903
H15_4 H 0.3739 0.3172 0.0694
H16_4 H 0.2619 0.3816 0.1157
O7_4 O 0.2059(7) 0.3925(3) 0.3032(5)
N1_4 N 0.4205(9) 0.3412(5) 0.2293(8)
O9_2 O 0.2137(6) 0.4160(3) 0.5603(5)
C1_4 C 0.6702(8) 0.3337(4) 0.7450(7)
H1_4 H 0.6507 0.2932 0.6889
H2_4 H 0.7642 0.3187 0.7881
C2_4 C 0.6968(8) 0.4134(4) 0.6894(6)
H3_4 H 0.729(9) 0.453(4) 0.745(6)
C3_4 C 0.5451(8) 0.4417(4) 0.6260(6)
H4_4 H 0.5619 0.4943 0.5952
H5_4 H 0.5203 0.4053 0.5654
C4_4 C 0.4050(8) 0.4451(4) 0.7028(6)
H6_4 H 0.424(8) 0.486(4) 0.760(6)
C5_4 C 0.3851(8) 0.3638(5) 0.7568(7)
H7_4 H 0.3009 0.3669 0.8070
H8_4 H 0.3560 0.3248 0.7003
C6_4 C 0.5332(9) 0.3358(4) 0.8204(7)
H9_4 H 0.558(9) 0.373(5) 0.881(6)
C7_4 C 0.8205(8) 0.4077(4) 0.6051(7)
C8_4 C 0.2597(8) 0.4667(4) 0.6314(6)
C9_4 C 0.5176(9) 0.2521(5) 0.8677(7)
O1_4 O 0.8382(7) 0.3463(3) 0.5510(5)
C11_4 C 0.9342(13) 0.8007(8) 0.2609(14)
H11_4 H 0.9102 0.7874 0.1850
H12_4 H 0.9402 0.7526 0.3041
H13_4 H 0.8537 0.8346 0.2871
loop_
_geom_bond_atom_site_label_1
_geom_bond_atom_site_label_2
_geom_bond_site_symmetry_1
_geom_bond_site_symmetry_2
C11 H11 1_555 1_555
H12 C11 1_555 1_555
H13 C11 1_555 1_555
C1 H1 1_555 1_555
H2 C1 1_555 1_555
C2 C1 1_555 1_555
H3 C2 1_555 1_555
C3 C2 1_555 1_555
H4 C3 1_555 1_555
H5 C3 1_555 1_555
C6 C1 1_555 1_555
H9 C6 1_555 1_555
C7 C2 1_555 1_555
C9 C6 1_555 1_555
O1 C7 1_555 1_555
O5 C9 1_555 1_555
Yb5 O5 1_555 1_555
C7 O2 1_555 1_555
C10 H10 1_555 1_555
C12 H14 1_555 1_555
H15 C12 1_555 1_555
H16 C12 1_555 1_555
O7 Yb1 1_555 1_555
N1 C10 1_555 1_555
O10 Yb1 1_555 1_555
O11 Yb1 1_555 1_555
O12 Yb1 1_555 1_555
C10 O7 1_555 1_555
C12 N1 1_555 1_555
H6 C4 1_555 1_555
C5 C4 1_555 1_555
H7 C5 1_555 1_555
H8 C5 1_555 1_555
C8 C4 1_555 1_555
O9 C8 1_555 1_555
Yb2 O4 1_555 1_555
C1_2 H1_2 1_555 1_555
H2_2 C1_2 1_555 1_555
C2_2 C1_2 1_555 1_555
H3_2 C2_2 1_555 1_555
C3_2 C2_2 1_555 1_555
H4_2 C3_2 1_555 1_555
H5_2 C3_2 1_555 1_555
C4_2 C3_2 1_555 1_555
H6_2 C4_2 1_555 1_555
C5_2 C4_2 1_555 1_555
H7_2 C5_2 1_555 1_555
H8_2 C5_2 1_555 1_555
C6_2 C1_2 1_555 1_555
H9_2 C6_2 1_555 1_555
C7_2 C2_2 1_555 1_555
C8_2 C4_2 1_555 1_555
C9_2 C6_2 1_555 1_555
O1_2 C7_2 1_555 1_555
O3 C8_2 1_555 1_555
O4_2 C8_2 1_555 1_555
O5_2 C9_2 1_555 1_555
O6_2 C9_2 1_555 1_555
Yb5 O2_2 1_555 1_555
Yb3 O3 1_555 1_555
Yb2 O5_2 1_555 1_555
C5_2 C6_2 1_555 1_555
C7_2 O2_2 1_555 1_555
O6_2 Yb2 1_555 1_555
C10_2 H10_2 1_555 1_555
C11_2 H11_2 1_555 1_555
H12_2 C11_2 1_555 1_555
H13_2 C11_2 1_555 1_555
C12_2 H14_2 1_555 1_555
H15_2 C12_2 1_555 1_555
H16_2 C12_2 1_555 1_555
O7_2 Yb3 1_555 1_555
N1_2 C10_2 1_555 1_555
O8_2 Yb3 1_555 1_555
O11_2 Yb3 1_555 1_555
C10_2 O7_2 1_555 1_555
C11_2 N1_2 1_555 1_555
C12_2 N1_2 1_555 1_555
H6_3 C4_3 1_555 1_555
C5_3 C4_3 1_555 1_555
H7_3 C5_3 1_555 1_555
H8_3 C5_3 1_555 1_555
C8_3 C4_3 1_555 1_555
O3_2 C8_3 1_555 1_555
C10_3 H10_3 1_555 1_555
C12_3 H14_3 1_555 1_555
H15_3 C12_3 1_555 1_555
H16_3 C12_3 1_555 1_555
O7_3 Yb2 1_555 1_555
N1_3 C10_3 1_555 1_555
C10_3 O7_3 1_555 1_555
C12_3 N1_3 1_555 1_555
C1_3 H1_3 1_555 1_555
H2_3 C1_3 1_555 1_555
C2_3 C1_3 1_555 1_555
H3_3 C2_3 1_555 1_555
C3_3 C2_3 1_555 1_555
H4_3 C3_3 1_555 1_555
H5_3 C3_3 1_555 1_555
C6_3 C1_3 1_555 1_555
H9_3 C6_3 1_555 1_555
C7_3 C2_3 1_555 1_555
C9_3 C6_3 1_555 1_555
O1_3 C7_3 1_555 1_555
O11_2 C9_3 1_555 1_555
C7_3 O8 1_555 1_555
C10_4 H10_4 1_555 1_555
C11_3 H11_3 1_555 1_555
H12_3 C11_3 1_555 1_555
H13_3 C11_3 1_555 1_555
C12_4 H14_4 1_555 1_555
H15_4 C12_4 1_555 1_555
H16_4 C12_4 1_555 1_555
O7_4 Yb5 1_555 1_555
N1_4 C10_4 1_555 1_555
O9_2 Yb5 1_555 1_555
C10_4 O7_4 1_555 1_555
C11_3 N1_4 1_555 1_555
C12_4 N1_4 1_555 1_555
C1_4 H1_4 1_555 1_555
H2_4 C1_4 1_555 1_555
C2_4 C1_4 1_555 1_555
H3_4 C2_4 1_555 1_555
C3_4 C2_4 1_555 1_555
H4_4 C3_4 1_555 1_555
H5_4 C3_4 1_555 1_555
C4_4 C3_4 1_555 1_555
H6_4 C4_4 1_555 1_555
C5_4 C4_4 1_555 1_555
H7_4 C5_4 1_555 1_555
H8_4 C5_4 1_555 1_555
C6_4 C1_4 1_555 1_555
H9_4 C6_4 1_555 1_555
C7_4 C2_4 1_555 1_555
C8_4 C4_4 1_555 1_555
C9_4 C6_4 1_555 1_555
O1_4 C7_4 1_555 1_555
O9_2 C8_4 1_555 1_555
O10_2 C8_4 1_555 1_555
O11 C9_4 1_555 1_555
O12 C9_4 1_555 1_555
C5_4 C6_4 1_555 1_555
C7_4 O8_2 1_555 1_555
C11_4 H11_4 1_555 1_555
H12_4 C11_4 1_555 1_555
H13_4 C11_4 1_555 1_555

#END
