
###############################################################################
#
# This file contains modified crystal structure data generated from the
# MOF subset of the Cambridge Structural Database (CSD) v543 
# hosted by the Cambridge Crystallographic Data Centre (CCDC).
#
# This work is licensed under the Creative Commons
# Attribution-NonCommercial-ShareAlike 4.0 International License.
# To view a copy of this license, visit
# http://creativecommons.org/licenses/by-nc-sa/4.0/
# or send a letter to
# Creative Commons, PO Box 1866, Mountain View, CA 94042, USA.
#
# CIF created using the CSD Python API on 29 September 2022
# The structure has been converted into the P1 space group
# The structure has a 3D framework
# The original CSD entry KULYUO is in the monoclinic crystal system
# The framework has been calculated to contain at least 10.0% void space
# The void calculation uses a probe of radius 1.32A, grid spacing 0.4
# H atom positions have been added when not included in the experimental data
#
###############################################################################

data_KULYUO
_chemical_formula_moiety         '(C336 H240 Lu16 O124)n'
_symmetry_cell_setting           triclinic
_symmetry_space_group_name_H-M   'P 1'
_symmetry_Int_Tables_number      1
_space_group_name_Hall           'P 1'
loop_
_symmetry_equiv_pos_site_id
_symmetry_equiv_pos_as_xyz
1 x,y,z
_cell_length_a                   17.7407(7)
_cell_length_b                   18.0064(5)
_cell_length_c                   35.9267(10)
_cell_angle_alpha                90
_cell_angle_beta                 98.087(3)
_cell_angle_gamma                90
_cell_volume                     11362.5
loop_
_atom_site_label
_atom_site_type_symbol
_atom_site_fract_x
_atom_site_fract_y
_atom_site_fract_z
Lu1 Lu 0.06362(4) 0.43336(4) 0.03208(2)
O13 O 0.0604(10) 0.3091(8) 0.0409(4)
H1 H 0.084968 0.287516 0.025211
O14 O 0.1821(7) 0.4104(8) 0.0212(3)
H2 H 0.188115 0.363343 0.016709
H3 H 0.214586 0.422703 0.040682
O21 O 0.1261(7) 0.4218(7) 0.0909(3)
O22 O 0.0494(7) 0.5452(6) 0.0615(3)
H30 H 0.00672174 0.291793 0.0370274
O8 O 0.0340(7) 0.3819(6) 0.9746(3)
O9 O 0.0517(7) 0.1136(7) 0.9419(3)
H9 H 0.027576 0.254787 0.949967
C8 C 0.0078(10) 0.1268(10) 0.9124(5)
Lu5 Lu 0.06362(4) 0.56664(4) 0.53208(2)
O18 O 0.0769(7) 0.5293(6) 0.9901(3)
O19 O 0.9231(7) 0.4707(6) 0.0099(3)
O20 O 0.9611(6) 0.4112(7) 0.0610(3)
Lu2 Lu 0.46649(4) 0.48546(4) 0.56255(2)
O1 O 0.5671(7) 0.5014(7) 0.5370(3)
O2 O 0.6289(6) 0.5053(6) 0.4866(3)
O3 O 0.9231(7) 0.5293(6) 0.5099(3)
O4 O 0.9611(6) 0.5888(7) 0.5610(3)
O5 O 0.8739(7) 0.5782(7) 0.9091(3)
O6 O 0.7528(8) 0.5507(9) 0.9091(3)
O7 O 0.9506(7) 0.4548(6) 0.9385(3)
O10 O 0.9791(7) 0.0740(6) 0.8920(3)
O11 O 0.5340(7) 0.4159(6) 0.6061(3)
O12 O 0.5375(8) 0.2951(8) 0.5936(4)
O15 O 0.4488(8) 0.3674(7) 0.5408(4)
H4 H 0.405903 0.364063 0.527789
H5 H 0.467443 0.335913 0.557789
O16 O 0.3749(8) 0.4770(9) 0.5994(4)
H6 H 0.383940 0.439840 0.614023
H7 H 0.332040 0.471066 0.585740
C1 C 0.9148(7) 0.2895(5) 0.8566(2)
C2 C 0.9300(7) 0.3474(4) 0.8821(3)
H8 H 0.911806 0.394848 0.875753
C3 C 0.9722(7) 0.3344(4) 0.9171(2)
C4 C 0.9993(6) 0.2635(5) 0.9266(2)
C5 C 0.9842(7) 0.2055(4) 0.9010(3)
C6 C 0.9420(7) 0.2185(4) 0.8660(2)
H10 H 0.931835 0.179779 0.848945
C7 C 0.9859(9) 0.3943(9) 0.9451(4)
C9 C 0.8671(6) 0.3023(7) 0.8189(3)
C10 C 0.8806(6) 0.2628(7) 0.7873(3)
H11 H 0.922461 0.231303 0.788551
C11 C 0.8315(7) 0.2702(7) 0.7538(3)
H12 H 0.840473 0.243793 0.732615
C12 C 0.7689(7) 0.3172(7) 0.7519(2)
C13 C 0.7555(6) 0.3568(7) 0.7836(3)
H13 H 0.713591 0.388210 0.782308
C14 C 0.8046(7) 0.3493(7) 0.8171(3)
H14 H 0.795578 0.375720 0.838245
C15 C 0.7113(6) 0.3229(6) 0.7160(3)
C16 C 0.6942(7) 0.2623(5) 0.6923(3)
H15 H 0.716070 0.216256 0.698771
C17 C 0.6444(7) 0.2704(5) 0.6591(3)
H16 H 0.632971 0.229857 0.643269
C18 C 0.6117(6) 0.3392(6) 0.6495(3)
C19 C 0.6288(7) 0.3998(5) 0.6731(3)
H17 H 0.606934 0.445778 0.666693
C20 C 0.6786(7) 0.3916(5) 0.7064(3)
H18 H 0.690033 0.432178 0.722195
C21 C 0.5585(11) 0.3526(10) 0.6121(5)
C22 C 0.7682(5) 0.5295(6) 0.53174(19)
H19 H 0.767908 0.527626 0.505852
C23 C 0.7008(4) 0.5201(6) 0.5468(2)
C24 C 0.7012(4) 0.5229(7) 0.5855(2)
H20 H 0.656144 0.516590 0.595525
C25 C 0.7691(6) 0.5353(7) 0.60913(19)
C26 C 0.8365(4) 0.5447(7) 0.5941(2)
H21 H 0.881849 0.552966 0.609923
C27 C 0.8360(4) 0.5419(7) 0.5554(3)
C28 C 0.9106(8) 0.5535(8) 0.5414(4)
C29 C 0.6299(10) 0.5081(9) 0.5233(4)
C30 C 0.7736(7) 0.5398(8) 0.6521(2)
C31 C 0.7184(6) 0.5783(8) 0.6682(3)
H22 H 0.677269 0.599450 0.652933
C32 C 0.7248(6) 0.5854(7) 0.7070(3)
H23 H 0.687880 0.611151 0.717769
C33 C 0.7863(7) 0.5538(7) 0.7298(2)
C34 C 0.8415(6) 0.5153(8) 0.7137(3)
H24 H 0.882636 0.494149 0.728958
C35 C 0.8351(6) 0.5082(8) 0.6749(3)
H25 H 0.872027 0.482448 0.664121
C36 C 0.7921(7) 0.5593(7) 0.7725(2)
C37 C 0.7264(5) 0.5592(7) 0.7894(3)
H26 H 0.678893 0.558360 0.774729
C38 C 0.7317(5) 0.5605(7) 0.8284(3)
H27 H 0.687704 0.560477 0.839764
C39 C 0.8027(6) 0.5618(7) 0.85040(19)
C40 C 0.8684(5) 0.5618(7) 0.8334(3)
H28 H 0.915961 0.562705 0.848141
C41 C 0.8632(6) 0.5606(7) 0.7945(3)
H29 H 0.907151 0.560588 0.783105
C42 C 0.8109(11) 0.5627(10) 0.8932(2)
Lu3 Lu 0.93638(4) 0.43336(4) 0.46792(2)
Lu4 Lu 0.93638(4) 0.56664(4) 0.96792(2)
Lu7 Lu 0.53351(4) 0.51454(4) 0.43745(2)
O17 O 0.3711(6) 0.4947(6) 0.5134(3)
O23 O 0.4483(7) 0.6136(7) 0.5581(3)
O24 O 0.5209(7) 0.5740(6) 0.6080(3)
O2_2 O 0.3711(6) 0.5053(6) 0.0134(3)
Lu7_2 Lu 0.46649(4) 0.51454(4) 0.06255(2)
Lu2_2 Lu 0.53351(4) 0.48546(4) 0.93745(2)
O1_2 O 0.4329(7) 0.5014(7) 0.9630(3)
O4_2 O 0.0389(6) 0.5888(7) 0.9390(3)
O5_2 O 0.1261(7) 0.5782(7) 0.5909(3)
O6_2 O 0.2472(8) 0.5507(9) 0.5909(3)
O7_2 O 0.0494(7) 0.4548(6) 0.5615(3)
O10_2 O 0.0209(7) 0.0740(6) 0.6080(3)
O11_2 O 0.4660(7) 0.4159(6) 0.8939(3)
O12_2 O 0.4625(8) 0.2951(8) 0.9064(4)
O15_2 O 0.5512(8) 0.3674(7) 0.9592(4)
H4_2 H 0.594097 0.364063 0.972211
H5_2 H 0.532557 0.335913 0.942211
O16_2 O 0.6251(8) 0.4770(9) 0.9006(4)
H6_2 H 0.616060 0.439840 0.885977
H7_2 H 0.667960 0.471066 0.914260
C1_2 C 0.0852(7) 0.2895(5) 0.6434(2)
C2_2 C 0.0700(7) 0.3474(4) 0.6179(3)
H8_2 H 0.088194 0.394848 0.624247
C3_2 C 0.0278(7) 0.3344(4) 0.5829(2)
C4_2 C 0.0007(6) 0.2635(5) 0.5734(2)
C5_2 C 0.0158(7) 0.2055(4) 0.5990(3)
C6_2 C 0.0580(7) 0.2185(4) 0.6340(2)
H10_2 H 0.068165 0.179779 0.651055
C7_2 C 0.0141(9) 0.3943(9) 0.5549(4)
C9_2 C 0.1329(6) 0.3023(7) 0.6811(3)
C10_2 C 0.1194(6) 0.2628(7) 0.7127(3)
H11_2 H 0.077539 0.231303 0.711449
C11_2 C 0.1685(7) 0.2702(7) 0.7462(3)
H12_2 H 0.159527 0.243793 0.767385
C12_2 C 0.2311(7) 0.3172(7) 0.7481(2)
C13_2 C 0.2445(6) 0.3568(7) 0.7164(3)
H13_2 H 0.286409 0.388210 0.717692
C14_2 C 0.1954(7) 0.3493(7) 0.6829(3)
H14_2 H 0.204422 0.375720 0.661755
C15_2 C 0.2887(6) 0.3229(6) 0.7840(3)
C16_2 C 0.3058(7) 0.2623(5) 0.8077(3)
H15_2 H 0.283930 0.216256 0.801229
C17_2 C 0.3556(7) 0.2704(5) 0.8409(3)
H16_2 H 0.367029 0.229857 0.856731
C18_2 C 0.3883(6) 0.3392(6) 0.8505(3)
C19_2 C 0.3712(7) 0.3998(5) 0.8269(3)
H17_2 H 0.393066 0.445778 0.833307
C20_2 C 0.3214(7) 0.3916(5) 0.7936(3)
H18_2 H 0.309967 0.432178 0.777805
C21_2 C 0.4415(11) 0.3526(10) 0.8879(5)
C22_2 C 0.2318(5) 0.5295(6) 0.96826(19)
H19_2 H 0.232092 0.527626 0.994148
C23_2 C 0.2992(4) 0.5201(6) 0.9532(2)
C24_2 C 0.2988(4) 0.5229(7) 0.9145(2)
H20_2 H 0.343856 0.516590 0.904475
C25_2 C 0.2309(6) 0.5353(7) 0.89087(19)
C26_2 C 0.1635(4) 0.5447(7) 0.9059(2)
H21_2 H 0.118151 0.552966 0.890077
C27_2 C 0.1640(4) 0.5419(7) 0.9446(3)
C28_2 C 0.0894(8) 0.5535(8) 0.9586(4)
C29_2 C 0.3701(10) 0.5081(9) 0.9767(4)
C30_2 C 0.2264(7) 0.5398(8) 0.8479(2)
C31_2 C 0.2816(6) 0.5783(8) 0.8318(3)
H22_2 H 0.322731 0.599450 0.847067
C32_2 C 0.2752(6) 0.5854(7) 0.7930(3)
H23_2 H 0.312120 0.611151 0.782231
C33_2 C 0.2137(7) 0.5538(7) 0.7702(2)
C34_2 C 0.1585(6) 0.5153(8) 0.7863(3)
H24_2 H 0.117364 0.494149 0.771042
C35_2 C 0.1649(6) 0.5082(8) 0.8251(3)
H25_2 H 0.127973 0.482448 0.835879
C36_2 C 0.2079(7) 0.5593(7) 0.7275(2)
C37_2 C 0.2736(5) 0.5592(7) 0.7106(3)
H26_2 H 0.321107 0.558360 0.725271
C38_2 C 0.2683(5) 0.5605(7) 0.6716(3)
H27_2 H 0.312296 0.560477 0.660236
C39_2 C 0.1973(6) 0.5618(7) 0.64960(19)
C40_2 C 0.1316(5) 0.5618(7) 0.6666(3)
H28_2 H 0.084039 0.562705 0.651859
C41_2 C 0.1368(6) 0.5606(7) 0.7055(3)
H29_2 H 0.092849 0.560588 0.716895
C42_2 C 0.1891(11) 0.5627(10) 0.6068(2)
O17_2 O 0.6289(6) 0.4947(6) 0.9866(3)
O19_2 O 0.0769(7) 0.4707(6) 0.4901(3)
O20_2 O 0.0389(6) 0.4112(7) 0.4390(3)
O23_2 O 0.5517(7) 0.6136(7) 0.9419(3)
O24_2 O 0.4791(7) 0.5740(6) 0.8920(3)
O8_2 O 0.9660(7) 0.3819(6) 0.5254(3)
O9_2 O 0.9483(7) 0.1136(7) 0.5581(3)
O13_2 O 0.9396(10) 0.3091(8) 0.4591(4)
H1_2 H 0.915032 0.287516 0.474789
O14_2 O 0.8179(7) 0.4104(8) 0.4788(3)
H2_2 H 0.811885 0.363343 0.483291
H3_2 H 0.785414 0.422703 0.459318
H9_2 H 0.972424 0.254787 0.550033
C8_2 C 0.9922(10) 0.1268(10) 0.5876(5)
O21_2 O 0.8739(7) 0.4218(7) 0.4091(3)
O22_2 O 0.9506(7) 0.5452(6) 0.4385(3)
H30_2 H 0.993278 0.291793 0.462973
Lu6 Lu 0.96649(4) 0.98546(4) 0.56255(2)
O22_3 O 0.5494(7) 0.0452(6) 0.0615(3)
O1_3 O 0.0671(7) 0.0014(7) 0.5370(3)
O2_3 O 0.1289(6) 0.0053(6) 0.4866(3)
O3_2 O 0.4231(7) 0.0293(6) 0.5099(3)
O4_3 O 0.4611(6) 0.0888(7) 0.5610(3)
O5_3 O 0.3739(7) 0.0782(7) 0.9091(3)
O6_3 O 0.2528(8) 0.0507(9) 0.9091(3)
C22_3 C 0.2682(5) 0.0295(6) 0.53174(19)
H19_3 H 0.267908 0.027626 0.505852
C23_3 C 0.2008(4) 0.0201(6) 0.5468(2)
C24_3 C 0.2012(4) 0.0229(7) 0.5855(2)
H20_3 H 0.156144 0.016590 0.595525
C25_3 C 0.2691(6) 0.0353(7) 0.60913(19)
C26_3 C 0.3365(4) 0.0447(7) 0.5941(2)
H21_3 H 0.381849 0.052966 0.609923
C27_3 C 0.3360(4) 0.0419(7) 0.5554(3)
C28_3 C 0.4106(8) 0.0535(8) 0.5414(4)
C29_3 C 0.1299(10) 0.0081(9) 0.5233(4)
C30_3 C 0.2736(7) 0.0398(8) 0.6521(2)
C31_3 C 0.2184(6) 0.0783(8) 0.6682(3)
H22_3 H 0.177269 0.099450 0.652933
C32_3 C 0.2248(6) 0.0854(7) 0.7070(3)
H23_3 H 0.187880 0.111151 0.717769
C33_3 C 0.2863(7) 0.0538(7) 0.7298(2)
C34_3 C 0.3415(6) 0.0153(8) 0.7137(3)
C35_3 C 0.3351(6) 0.0082(8) 0.6749(3)
C36_3 C 0.2921(7) 0.0593(7) 0.7725(2)
C37_3 C 0.2264(5) 0.0592(7) 0.7894(3)
H26_3 H 0.178893 0.058360 0.774729
C38_3 C 0.2317(5) 0.0605(7) 0.8284(3)
H27_3 H 0.187704 0.060477 0.839764
C39_3 C 0.3027(6) 0.0618(7) 0.85040(19)
C40_3 C 0.3684(5) 0.0618(7) 0.8334(3)
H28_3 H 0.415961 0.062705 0.848141
C41_3 C 0.3632(6) 0.0606(7) 0.7945(3)
H29_3 H 0.407151 0.060588 0.783105
C42_3 C 0.3109(11) 0.0627(10) 0.8932(2)
Lu4_2 Lu 0.43638(4) 0.06664(4) 0.96792(2)
Lu5_2 Lu 0.56362(4) 0.06664(4) 0.53208(2)
Lu7_3 Lu 0.03351(4) 0.01454(4) 0.43745(2)
O18_2 O 0.5769(7) 0.0293(6) 0.9901(3)
Lu1_2 Lu 0.56362(4) 0.93336(4) 0.03208(2)
O13_3 O 0.5604(10) 0.8091(8) 0.0409(4)
H1_3 H 0.584968 0.787516 0.025211
O14_3 O 0.6821(7) 0.9104(8) 0.0212(3)
H2_3 H 0.688115 0.863343 0.016709
H3_3 H 0.714586 0.922703 0.040682
O19_3 O 0.4231(7) 0.9707(6) 0.0099(3)
O20_3 O 0.4611(6) 0.9112(7) 0.0610(3)
O21_3 O 0.6261(7) 0.9218(7) 0.0909(3)
H30_3 H 0.506722 0.791793 0.0370274
O7_3 O 0.4506(7) 0.9548(6) 0.9385(3)
O8_3 O 0.5340(7) 0.8819(6) 0.9746(3)
O11_3 O 0.0340(7) 0.9159(6) 0.6061(3)
O12_3 O 0.0375(8) 0.7951(8) 0.5936(4)
C1_3 C 0.4148(7) 0.7895(5) 0.8566(2)
C2_3 C 0.4300(7) 0.8474(4) 0.8821(3)
H8_3 H 0.411806 0.894848 0.875753
C3_3 C 0.4722(7) 0.8344(4) 0.9171(2)
C4_3 C 0.4993(6) 0.7635(5) 0.9266(2)
H9_3 H 0.527576 0.754787 0.949967
C5_3 C 0.4842(7) 0.7055(4) 0.9010(3)
C6_3 C 0.4420(7) 0.7185(4) 0.8660(2)
H10_3 H 0.431835 0.679779 0.848945
C7_3 C 0.4859(9) 0.8943(9) 0.9451(4)
C8_3 C 0.5078(10) 0.6268(10) 0.9124(5)
C9_3 C 0.3671(6) 0.8023(7) 0.8189(3)
C10_3 C 0.3806(6) 0.7628(7) 0.7873(3)
H11_3 H 0.422461 0.731303 0.788551
C11_3 C 0.3315(7) 0.7702(7) 0.7538(3)
H12_3 H 0.340473 0.743793 0.732615
C12_3 C 0.2689(7) 0.8172(7) 0.7519(2)
C13_3 C 0.2555(6) 0.8568(7) 0.7836(3)
H13_3 H 0.213591 0.888210 0.782308
C14_3 C 0.3046(7) 0.8493(7) 0.8171(3)
H14_3 H 0.295578 0.875720 0.838245
C15_3 C 0.2113(6) 0.8229(6) 0.7160(3)
C16_3 C 0.1942(7) 0.7623(5) 0.6923(3)
H15_3 H 0.216070 0.716256 0.698771
C17_3 C 0.1444(7) 0.7704(5) 0.6591(3)
H16_3 H 0.132971 0.729857 0.643269
C18_3 C 0.1117(6) 0.8392(6) 0.6495(3)
C19_3 C 0.1288(7) 0.8998(5) 0.6731(3)
H17_3 H 0.106934 0.945778 0.666693
C20_3 C 0.1786(7) 0.8916(5) 0.7064(3)
H18_3 H 0.190033 0.932178 0.722195
C21_3 C 0.0585(11) 0.8526(10) 0.6121(5)
H24_3 H 0.382636 0.994149 0.728958
H25_3 H 0.372027 0.982448 0.664121
Lu3_2 Lu 0.43638(4) 0.93336(4) 0.46792(2)
O15_3 O 0.9488(8) 0.8674(7) 0.5408(4)
H4_3 H 0.905903 0.864063 0.527789
H5_3 H 0.967443 0.835913 0.557789
O16_3 O 0.8749(8) 0.9770(9) 0.5994(4)
H6_3 H 0.883940 0.939840 0.614023
H7_3 H 0.832040 0.971066 0.585740
O17_3 O 0.8711(6) 0.9947(6) 0.5134(3)
O1_4 O 0.9329(7) 0.0014(7) 0.9630(3)
O4_4 O 0.5389(6) 0.0888(7) 0.9390(3)
O5_4 O 0.6261(7) 0.0782(7) 0.5909(3)
O6_4 O 0.7472(8) 0.0507(9) 0.5909(3)
C22_4 C 0.7318(5) 0.0295(6) 0.96826(19)
H19_4 H 0.732092 0.027626 0.994148
C23_4 C 0.7992(4) 0.0201(6) 0.9532(2)
C24_4 C 0.7988(4) 0.0229(7) 0.9145(2)
H20_4 H 0.843856 0.016590 0.904475
C25_4 C 0.7309(6) 0.0353(7) 0.89087(19)
C26_4 C 0.6635(4) 0.0447(7) 0.9059(2)
H21_4 H 0.618151 0.052966 0.890077
C27_4 C 0.6640(4) 0.0419(7) 0.9446(3)
C28_4 C 0.5894(8) 0.0535(8) 0.9586(4)
C29_4 C 0.8701(10) 0.0081(9) 0.9767(4)
C30_4 C 0.7264(7) 0.0398(8) 0.8479(2)
C31_4 C 0.7816(6) 0.0783(8) 0.8318(3)
H22_4 H 0.822731 0.099450 0.847067
C32_4 C 0.7752(6) 0.0854(7) 0.7930(3)
H23_4 H 0.812120 0.111151 0.782231
C33_4 C 0.7137(7) 0.0538(7) 0.7702(2)
C34_4 C 0.6585(6) 0.0153(8) 0.7863(3)
C35_4 C 0.6649(6) 0.0082(8) 0.8251(3)
C36_4 C 0.7079(7) 0.0593(7) 0.7275(2)
C37_4 C 0.7736(5) 0.0592(7) 0.7106(3)
H26_4 H 0.821107 0.058360 0.725271
C38_4 C 0.7683(5) 0.0605(7) 0.6716(3)
H27_4 H 0.812296 0.060477 0.660236
C39_4 C 0.6973(6) 0.0618(7) 0.64960(19)
C40_4 C 0.6316(5) 0.0618(7) 0.6666(3)
H28_4 H 0.584039 0.062705 0.651859
C41_4 C 0.6368(6) 0.0606(7) 0.7055(3)
H29_4 H 0.592849 0.060588 0.716895
C42_4 C 0.6891(11) 0.0627(10) 0.6068(2)
O22_4 O 0.4506(7) 0.0452(6) 0.4385(3)
O7_4 O 0.5494(7) 0.9548(6) 0.5615(3)
O8_4 O 0.4660(7) 0.8819(6) 0.5254(3)
O11_4 O 0.9660(7) 0.9159(6) 0.8939(3)
O12_4 O 0.9625(8) 0.7951(8) 0.9064(4)
O13_4 O 0.4396(10) 0.8091(8) 0.4591(4)
H1_4 H 0.415032 0.787516 0.474789
O14_4 O 0.3179(7) 0.9104(8) 0.4788(3)
H2_4 H 0.311885 0.863343 0.483291
H3_4 H 0.285414 0.922703 0.459318
C1_4 C 0.5852(7) 0.7895(5) 0.6434(2)
C2_4 C 0.5700(7) 0.8474(4) 0.6179(3)
H8_4 H 0.588194 0.894848 0.624247
C3_4 C 0.5278(7) 0.8344(4) 0.5829(2)
C4_4 C 0.5007(6) 0.7635(5) 0.5734(2)
H9_4 H 0.472424 0.754787 0.550033
C5_4 C 0.5158(7) 0.7055(4) 0.5990(3)
C6_4 C 0.5580(7) 0.7185(4) 0.6340(2)
H10_4 H 0.568165 0.679779 0.651055
C7_4 C 0.5141(9) 0.8943(9) 0.5549(4)
C8_4 C 0.4922(10) 0.6268(10) 0.5876(5)
C9_4 C 0.6329(6) 0.8023(7) 0.6811(3)
C10_4 C 0.6194(6) 0.7628(7) 0.7127(3)
H11_4 H 0.577539 0.731303 0.711449
C11_4 C 0.6685(7) 0.7702(7) 0.7462(3)
H12_4 H 0.659527 0.743793 0.767385
C12_4 C 0.7311(7) 0.8172(7) 0.7481(2)
C13_4 C 0.7445(6) 0.8568(7) 0.7164(3)
H13_4 H 0.786409 0.888210 0.717692
C14_4 C 0.6954(7) 0.8493(7) 0.6829(3)
H14_4 H 0.704422 0.875720 0.661755
C15_4 C 0.7887(6) 0.8229(6) 0.7840(3)
C16_4 C 0.8058(7) 0.7623(5) 0.8077(3)
H15_4 H 0.783930 0.716256 0.801229
C17_4 C 0.8556(7) 0.7704(5) 0.8409(3)
H16_4 H 0.867029 0.729857 0.856731
C18_4 C 0.8883(6) 0.8392(6) 0.8505(3)
C19_4 C 0.8712(7) 0.8998(5) 0.8269(3)
H17_4 H 0.893066 0.945778 0.833307
C20_4 C 0.8214(7) 0.8916(5) 0.7936(3)
H18_4 H 0.809967 0.932178 0.777805
C21_4 C 0.9415(11) 0.8526(10) 0.8879(5)
H24_4 H 0.617364 0.994149 0.771042
H25_4 H 0.627973 0.982448 0.835879
O19_4 O 0.5769(7) 0.9707(6) 0.4901(3)
O20_4 O 0.5389(6) 0.9112(7) 0.4390(3)
O21_4 O 0.3739(7) 0.9218(7) 0.4091(3)
H30_4 H 0.493278 0.791793 0.462973
O1_5 O 0.4329(7) 0.4986(7) 0.4630(3)
O6_5 O 0.2472(8) 0.4493(9) 0.0909(3)
O10_3 O 0.0209(7) 0.9260(6) 0.1080(3)
O11_5 O 0.4660(7) 0.5841(6) 0.3939(3)
O12_5 O 0.4625(8) 0.7049(8) 0.4064(4)
O15_4 O 0.5512(8) 0.6326(7) 0.4592(4)
H4_4 H 0.594097 0.635937 0.472211
H5_4 H 0.532557 0.664087 0.442211
O16_4 O 0.6251(8) 0.5230(9) 0.4006(4)
H6_4 H 0.616060 0.560160 0.385977
H7_4 H 0.667960 0.528934 0.414260
C1_5 C 0.0852(7) 0.7105(5) 0.1434(2)
C2_5 C 0.0700(7) 0.6526(4) 0.1179(3)
H8_5 H 0.088194 0.605152 0.124247
C3_5 C 0.0278(7) 0.6656(4) 0.0829(2)
C4_5 C 0.0007(6) 0.7365(5) 0.0734(2)
C5_5 C 0.0158(7) 0.7945(4) 0.0990(3)
C6_5 C 0.0580(7) 0.7815(4) 0.1340(2)
H10_5 H 0.068165 0.820221 0.151055
C7_5 C 0.0141(9) 0.6057(9) 0.0549(4)
C9_5 C 0.1329(6) 0.6977(7) 0.1811(3)
C10_5 C 0.1194(6) 0.7372(7) 0.2127(3)
H11_5 H 0.077539 0.768697 0.211449
C11_5 C 0.1685(7) 0.7298(7) 0.2462(3)
H12_5 H 0.159527 0.756207 0.267385
C12_5 C 0.2311(7) 0.6828(7) 0.2481(2)
C13_5 C 0.2445(6) 0.6432(7) 0.2164(3)
H13_5 H 0.286409 0.611790 0.217692
C14_5 C 0.1954(7) 0.6507(7) 0.1829(3)
H14_5 H 0.204422 0.624280 0.161755
C15_5 C 0.2887(6) 0.6771(6) 0.2840(3)
C16_5 C 0.3058(7) 0.7377(5) 0.3077(3)
H15_5 H 0.283930 0.783744 0.301229
C17_5 C 0.3556(7) 0.7296(5) 0.3409(3)
H16_5 H 0.367029 0.770143 0.356731
C18_5 C 0.3883(6) 0.6608(6) 0.3505(3)
C19_5 C 0.3712(7) 0.6002(5) 0.3269(3)
H17_5 H 0.393066 0.554222 0.333307
C20_5 C 0.3214(7) 0.6084(5) 0.2936(3)
H18_5 H 0.309967 0.567822 0.277805
C21_5 C 0.4415(11) 0.6474(10) 0.3879(5)
C22_5 C 0.2318(5) 0.4705(6) 0.46826(19)
H19_5 H 0.232092 0.472374 0.494148
C23_5 C 0.2992(4) 0.4799(6) 0.4532(2)
C24_5 C 0.2988(4) 0.4771(7) 0.4145(2)
H20_5 H 0.343856 0.483410 0.404475
C25_5 C 0.2309(6) 0.4647(7) 0.39087(19)
C26_5 C 0.1635(4) 0.4553(7) 0.4059(2)
H21_5 H 0.118151 0.447034 0.390077
C27_5 C 0.1640(4) 0.4581(7) 0.4446(3)
C28_5 C 0.0894(8) 0.4465(8) 0.4586(4)
C29_5 C 0.3701(10) 0.4919(9) 0.4767(4)
C30_5 C 0.2264(7) 0.4602(8) 0.3479(2)
C31_5 C 0.2816(6) 0.4217(8) 0.3318(3)
H22_5 H 0.322731 0.400550 0.347067
C32_5 C 0.2752(6) 0.4146(7) 0.2930(3)
H23_5 H 0.312120 0.388849 0.282231
C33_5 C 0.2137(7) 0.4462(7) 0.2702(2)
C34_5 C 0.1585(6) 0.4847(8) 0.2863(3)
H24_5 H 0.117364 0.505851 0.271042
C35_5 C 0.1649(6) 0.4918(8) 0.3251(3)
H25_5 H 0.127973 0.517552 0.335879
C36_5 C 0.2079(7) 0.4407(7) 0.2275(2)
C37_5 C 0.2736(5) 0.4408(7) 0.2106(3)
H26_5 H 0.321107 0.441640 0.225271
C38_5 C 0.2683(5) 0.4395(7) 0.1716(3)
H27_5 H 0.312296 0.439523 0.160236
C39_5 C 0.1973(6) 0.4382(7) 0.14960(19)
C40_5 C 0.1316(5) 0.4382(7) 0.1666(3)
H28_5 H 0.084039 0.437295 0.151859
C41_5 C 0.1368(6) 0.4394(7) 0.2055(3)
H29_5 H 0.092849 0.439412 0.216895
C42_5 C 0.1891(11) 0.4373(10) 0.1068(2)
O23_3 O 0.5517(7) 0.3864(7) 0.4419(3)
O24_3 O 0.4791(7) 0.4260(6) 0.3920(3)
O8_5 O 0.9660(7) 0.6181(6) 0.0254(3)
O9_3 O 0.9483(7) 0.8864(7) 0.0581(3)
H9_5 H 0.972424 0.745213 0.050033
C8_5 C 0.9922(10) 0.8732(10) 0.0876(5)
O13_5 O 0.9396(10) 0.6909(8) 0.9591(4)
H1_5 H 0.915032 0.712484 0.974789
O14_5 O 0.8179(7) 0.5896(8) 0.9788(3)
H2_5 H 0.811885 0.636657 0.983291
H3_5 H 0.785414 0.577297 0.959318
H30_5 H 0.993278 0.708207 0.962973
O8_6 O 0.0340(7) 0.6181(6) 0.4746(3)
O9_4 O 0.0517(7) 0.8864(7) 0.4419(3)
O13_6 O 0.0604(10) 0.6909(8) 0.5409(4)
H1_6 H 0.084968 0.712484 0.525211
O14_6 O 0.1821(7) 0.5896(8) 0.5212(3)
H2_6 H 0.188115 0.636657 0.516709
H3_6 H 0.214586 0.577297 0.540682
H9_6 H 0.027576 0.745213 0.449967
C8_6 C 0.0078(10) 0.8732(10) 0.4124(5)
H30_6 H 0.00672174 0.708207 0.537027
O1_6 O 0.5671(7) 0.4986(7) 0.0370(3)
O6_6 O 0.7528(8) 0.4493(9) 0.4091(3)
O10_4 O 0.9791(7) 0.9260(6) 0.3920(3)
O11_6 O 0.5340(7) 0.5841(6) 0.1061(3)
O12_6 O 0.5375(8) 0.7049(8) 0.0936(4)
O15_5 O 0.4488(8) 0.6326(7) 0.0408(4)
H4_5 H 0.405903 0.635937 0.027789
H5_5 H 0.467443 0.664087 0.057789
O16_5 O 0.3749(8) 0.5230(9) 0.0994(4)
H6_5 H 0.383940 0.560160 0.114023
H7_5 H 0.332040 0.528934 0.085740
C1_6 C 0.9148(7) 0.7105(5) 0.3566(2)
C2_6 C 0.9300(7) 0.6526(4) 0.3821(3)
H8_6 H 0.911806 0.605152 0.375753
C3_6 C 0.9722(7) 0.6656(4) 0.4171(2)
C4_6 C 0.9993(6) 0.7365(5) 0.4266(2)
C5_6 C 0.9842(7) 0.7945(4) 0.4010(3)
C6_6 C 0.9420(7) 0.7815(4) 0.3660(2)
H10_6 H 0.931835 0.820221 0.348945
C7_6 C 0.9859(9) 0.6057(9) 0.4451(4)
C9_6 C 0.8671(6) 0.6977(7) 0.3189(3)
C10_6 C 0.8806(6) 0.7372(7) 0.2873(3)
H11_6 H 0.922461 0.768697 0.288551
C11_6 C 0.8315(7) 0.7298(7) 0.2538(3)
H12_6 H 0.840473 0.756207 0.232615
C12_6 C 0.7689(7) 0.6828(7) 0.2519(2)
C13_6 C 0.7555(6) 0.6432(7) 0.2836(3)
H13_6 H 0.713591 0.611790 0.282308
C14_6 C 0.8046(7) 0.6507(7) 0.3171(3)
H14_6 H 0.795578 0.624280 0.338245
C15_6 C 0.7113(6) 0.6771(6) 0.2160(3)
C16_6 C 0.6942(7) 0.7377(5) 0.1923(3)
H15_6 H 0.716070 0.783744 0.198771
C17_6 C 0.6444(7) 0.7296(5) 0.1591(3)
H16_6 H 0.632971 0.770143 0.143269
C18_6 C 0.6117(6) 0.6608(6) 0.1495(3)
C19_6 C 0.6288(7) 0.6002(5) 0.1731(3)
H17_6 H 0.606934 0.554222 0.166693
C20_6 C 0.6786(7) 0.6084(5) 0.2064(3)
H18_6 H 0.690033 0.567822 0.222195
C21_6 C 0.5585(11) 0.6474(10) 0.1121(5)
C22_6 C 0.7682(5) 0.4705(6) 0.03174(19)
H19_6 H 0.767908 0.472374 0.005852
C23_6 C 0.7008(4) 0.4799(6) 0.0468(2)
C24_6 C 0.7012(4) 0.4771(7) 0.0855(2)
H20_6 H 0.656144 0.483410 0.095525
C25_6 C 0.7691(6) 0.4647(7) 0.10913(19)
C26_6 C 0.8365(4) 0.4553(7) 0.0941(2)
H21_6 H 0.881849 0.447034 0.109923
C27_6 C 0.8360(4) 0.4581(7) 0.0554(3)
C28_6 C 0.9106(8) 0.4465(8) 0.0414(4)
C29_6 C 0.6299(10) 0.4919(9) 0.0233(4)
C30_6 C 0.7736(7) 0.4602(8) 0.1521(2)
C31_6 C 0.7184(6) 0.4217(8) 0.1682(3)
H22_6 H 0.677269 0.400550 0.152933
C32_6 C 0.7248(6) 0.4146(7) 0.2070(3)
H23_6 H 0.687880 0.388849 0.217769
C33_6 C 0.7863(7) 0.4462(7) 0.2298(2)
C34_6 C 0.8415(6) 0.4847(8) 0.2137(3)
H24_6 H 0.882636 0.505851 0.228958
C35_6 C 0.8351(6) 0.4918(8) 0.1749(3)
H25_6 H 0.872027 0.517552 0.164121
C36_6 C 0.7921(7) 0.4407(7) 0.2725(2)
C37_6 C 0.7264(5) 0.4408(7) 0.2894(3)
H26_6 H 0.678893 0.441640 0.274729
C38_6 C 0.7317(5) 0.4395(7) 0.3284(3)
H27_6 H 0.687704 0.439523 0.339764
C39_6 C 0.8027(6) 0.4382(7) 0.35040(19)
C40_6 C 0.8684(5) 0.4382(7) 0.3334(3)
H28_6 H 0.915961 0.437295 0.348141
C41_6 C 0.8632(6) 0.4394(7) 0.2945(3)
H29_6 H 0.907151 0.439412 0.283105
C42_6 C 0.8109(11) 0.4373(10) 0.3932(2)
O23_4 O 0.4483(7) 0.3864(7) 0.0581(3)
O24_4 O 0.5209(7) 0.4260(6) 0.1080(3)
O15_6 O 0.0512(8) 0.1326(7) 0.4592(4)
H4_6 H 0.094097 0.135937 0.472211
H5_6 H 0.032557 0.164087 0.442211
O16_6 O 0.1251(8) 0.0230(9) 0.4006(4)
H6_6 H 0.116060 0.060160 0.385977
H7_6 H 0.167960 0.028934 0.414260
O8_7 O 0.4660(7) 0.1181(6) 0.0254(3)
O11_7 O 0.9660(7) 0.0841(6) 0.3939(3)
O12_7 O 0.9625(8) 0.2049(8) 0.4064(4)
C1_7 C 0.5852(7) 0.2105(5) 0.1434(2)
C2_7 C 0.5700(7) 0.1526(4) 0.1179(3)
H8_7 H 0.588194 0.105152 0.124247
C3_7 C 0.5278(7) 0.1656(4) 0.0829(2)
C4_7 C 0.5007(6) 0.2365(5) 0.0734(2)
H9_7 H 0.472424 0.245213 0.050033
C5_7 C 0.5158(7) 0.2945(4) 0.0990(3)
C6_7 C 0.5580(7) 0.2815(4) 0.1340(2)
H10_7 H 0.568165 0.320221 0.151055
C7_7 C 0.5141(9) 0.1057(9) 0.0549(4)
C8_7 C 0.4922(10) 0.3732(10) 0.0876(5)
C9_7 C 0.6329(6) 0.1977(7) 0.1811(3)
C10_7 C 0.6194(6) 0.2372(7) 0.2127(3)
H11_7 H 0.577539 0.268697 0.211449
C11_7 C 0.6685(7) 0.2298(7) 0.2462(3)
H12_7 H 0.659527 0.256207 0.267385
C12_7 C 0.7311(7) 0.1828(7) 0.2481(2)
C13_7 C 0.7445(6) 0.1432(7) 0.2164(3)
H13_7 H 0.786409 0.111790 0.217692
C14_7 C 0.6954(7) 0.1507(7) 0.1829(3)
H14_7 H 0.704422 0.124280 0.161755
C15_7 C 0.7887(6) 0.1771(6) 0.2840(3)
C16_7 C 0.8058(7) 0.2377(5) 0.3077(3)
H15_7 H 0.783930 0.283744 0.301229
C17_7 C 0.8556(7) 0.2296(5) 0.3409(3)
H16_7 H 0.867029 0.270143 0.356731
C18_7 C 0.8883(6) 0.1608(6) 0.3505(3)
C19_7 C 0.8712(7) 0.1002(5) 0.3269(3)
H17_7 H 0.893066 0.054222 0.333307
C20_7 C 0.8214(7) 0.1084(5) 0.2936(3)
H18_7 H 0.809967 0.067822 0.277805
C21_7 C 0.9415(11) 0.1474(10) 0.3879(5)
H24_7 H 0.617364 0.005851 0.271042
H25_7 H 0.627973 0.017552 0.335879
O13_7 O 0.4396(10) 0.1909(8) 0.9591(4)
H1_7 H 0.415032 0.212484 0.974789
O14_7 O 0.3179(7) 0.0896(8) 0.9788(3)
H2_7 H 0.311885 0.136657 0.983291
H3_7 H 0.285414 0.077297 0.959318
H30_7 H 0.493278 0.208207 0.962973
O1_7 O 0.9329(7) 0.9986(7) 0.4630(3)
O6_7 O 0.7472(8) 0.9493(9) 0.0909(3)
C22_7 C 0.7318(5) 0.9705(6) 0.46826(19)
H19_7 H 0.732092 0.972374 0.494148
C23_7 C 0.7992(4) 0.9799(6) 0.4532(2)
C24_7 C 0.7988(4) 0.9771(7) 0.4145(2)
H20_7 H 0.843856 0.983410 0.404475
C25_7 C 0.7309(6) 0.9647(7) 0.39087(19)
C26_7 C 0.6635(4) 0.9553(7) 0.4059(2)
H21_7 H 0.618151 0.947034 0.390077
C27_7 C 0.6640(4) 0.9581(7) 0.4446(3)
C28_7 C 0.5894(8) 0.9465(8) 0.4586(4)
C29_7 C 0.8701(10) 0.9919(9) 0.4767(4)
C30_7 C 0.7264(7) 0.9602(8) 0.3479(2)
C31_7 C 0.7816(6) 0.9217(8) 0.3318(3)
H22_7 H 0.822731 0.900550 0.347067
C32_7 C 0.7752(6) 0.9146(7) 0.2930(3)
H23_7 H 0.812120 0.888849 0.282231
C33_7 C 0.7137(7) 0.9462(7) 0.2702(2)
C34_7 C 0.6585(6) 0.9847(8) 0.2863(3)
C35_7 C 0.6649(6) 0.9918(8) 0.3251(3)
C36_7 C 0.7079(7) 0.9407(7) 0.2275(2)
C37_7 C 0.7736(5) 0.9408(7) 0.2106(3)
H26_7 H 0.821107 0.941640 0.225271
C38_7 C 0.7683(5) 0.9395(7) 0.1716(3)
H27_7 H 0.812296 0.939523 0.160236
C39_7 C 0.6973(6) 0.9382(7) 0.14960(19)
C40_7 C 0.6316(5) 0.9382(7) 0.1666(3)
H28_7 H 0.584039 0.937295 0.151859
C41_7 C 0.6368(6) 0.9394(7) 0.2055(3)
H29_7 H 0.592849 0.939412 0.216895
C42_7 C 0.6891(11) 0.9373(10) 0.1068(2)
O8_8 O 0.5340(7) 0.1181(6) 0.4746(3)
O11_8 O 0.0340(7) 0.0841(6) 0.1061(3)
O12_8 O 0.0375(8) 0.2049(8) 0.0936(4)
O13_8 O 0.5604(10) 0.1909(8) 0.5409(4)
H1_8 H 0.584968 0.212484 0.525211
O14_8 O 0.6821(7) 0.0896(8) 0.5212(3)
H2_8 H 0.688115 0.136657 0.516709
H3_8 H 0.714586 0.077297 0.540682
C1_8 C 0.4148(7) 0.2105(5) 0.3566(2)
C2_8 C 0.4300(7) 0.1526(4) 0.3821(3)
H8_8 H 0.411806 0.105152 0.375753
C3_8 C 0.4722(7) 0.1656(4) 0.4171(2)
C4_8 C 0.4993(6) 0.2365(5) 0.4266(2)
H9_8 H 0.527576 0.245213 0.449967
C5_8 C 0.4842(7) 0.2945(4) 0.4010(3)
C6_8 C 0.4420(7) 0.2815(4) 0.3660(2)
H10_8 H 0.431835 0.320221 0.348945
C7_8 C 0.4859(9) 0.1057(9) 0.4451(4)
C8_8 C 0.5078(10) 0.3732(10) 0.4124(5)
C9_8 C 0.3671(6) 0.1977(7) 0.3189(3)
C10_8 C 0.3806(6) 0.2372(7) 0.2873(3)
H11_8 H 0.422461 0.268697 0.288551
C11_8 C 0.3315(7) 0.2298(7) 0.2538(3)
H12_8 H 0.340473 0.256207 0.232615
C12_8 C 0.2689(7) 0.1828(7) 0.2519(2)
C13_8 C 0.2555(6) 0.1432(7) 0.2836(3)
H13_8 H 0.213591 0.111790 0.282308
C14_8 C 0.3046(7) 0.1507(7) 0.3171(3)
H14_8 H 0.295578 0.124280 0.338245
C15_8 C 0.2113(6) 0.1771(6) 0.2160(3)
C16_8 C 0.1942(7) 0.2377(5) 0.1923(3)
H15_8 H 0.216070 0.283744 0.198771
C17_8 C 0.1444(7) 0.2296(5) 0.1591(3)
H16_8 H 0.132971 0.270143 0.143269
C18_8 C 0.1117(6) 0.1608(6) 0.1495(3)
C19_8 C 0.1288(7) 0.1002(5) 0.1731(3)
H17_8 H 0.106934 0.054222 0.166693
C20_8 C 0.1786(7) 0.1084(5) 0.2064(3)
H18_8 H 0.190033 0.067822 0.222195
C21_8 C 0.0585(11) 0.1474(10) 0.1121(5)
H24_8 H 0.382636 0.005851 0.228958
H25_8 H 0.372027 0.017552 0.164121
H30_8 H 0.506722 0.208207 0.537027
O1_8 O 0.0671(7) 0.9986(7) 0.0370(3)
O6_8 O 0.2528(8) 0.9493(9) 0.4091(3)
C22_8 C 0.2682(5) 0.9705(6) 0.03174(19)
H19_8 H 0.267908 0.972374 0.005852
C23_8 C 0.2008(4) 0.9799(6) 0.0468(2)
C24_8 C 0.2012(4) 0.9771(7) 0.0855(2)
H20_8 H 0.156144 0.983410 0.095525
C25_8 C 0.2691(6) 0.9647(7) 0.10913(19)
C26_8 C 0.3365(4) 0.9553(7) 0.0941(2)
H21_8 H 0.381849 0.947034 0.109923
C27_8 C 0.3360(4) 0.9581(7) 0.0554(3)
C28_8 C 0.4106(8) 0.9465(8) 0.0414(4)
C29_8 C 0.1299(10) 0.9919(9) 0.0233(4)
C30_8 C 0.2736(7) 0.9602(8) 0.1521(2)
C31_8 C 0.2184(6) 0.9217(8) 0.1682(3)
H22_8 H 0.177269 0.900550 0.152933
C32_8 C 0.2248(6) 0.9146(7) 0.2070(3)
H23_8 H 0.187880 0.888849 0.217769
C33_8 C 0.2863(7) 0.9462(7) 0.2298(2)
C34_8 C 0.3415(6) 0.9847(8) 0.2137(3)
C35_8 C 0.3351(6) 0.9918(8) 0.1749(3)
C36_8 C 0.2921(7) 0.9407(7) 0.2725(2)
C37_8 C 0.2264(5) 0.9408(7) 0.2894(3)
H26_8 H 0.178893 0.941640 0.274729
C38_8 C 0.2317(5) 0.9395(7) 0.3284(3)
H27_8 H 0.187704 0.939523 0.339764
C39_8 C 0.3027(6) 0.9382(7) 0.35040(19)
C40_8 C 0.3684(5) 0.9382(7) 0.3334(3)
H28_8 H 0.415961 0.937295 0.348141
C41_8 C 0.3632(6) 0.9394(7) 0.2945(3)
H29_8 H 0.407151 0.939412 0.283105
C42_8 C 0.3109(11) 0.9373(10) 0.3932(2)
Lu6_2 Lu 0.03351(4) 0.98546(4) 0.93745(2)
O15_7 O 0.0512(8) 0.8674(7) 0.9592(4)
H4_7 H 0.094097 0.864063 0.972211
H5_7 H 0.032557 0.835913 0.942211
O16_7 O 0.1251(8) 0.9770(9) 0.9006(4)
H6_7 H 0.116060 0.939840 0.885977
H7_7 H 0.167960 0.971066 0.914260
O17_4 O 0.1289(6) 0.9947(6) 0.9866(3)
O2_4 O 0.8711(6) 0.0053(6) 0.0134(3)
Lu7_4 Lu 0.96649(4) 0.01454(4) 0.06255(2)
O15_8 O 0.9488(8) 0.1326(7) 0.0408(4)
H4_8 H 0.905903 0.135937 0.027789
H5_8 H 0.967443 0.164087 0.057789
O16_8 O 0.8749(8) 0.0230(9) 0.0994(4)
H6_8 H 0.883940 0.060160 0.114023
H7_8 H 0.832040 0.028934 0.085740
loop_
_geom_bond_atom_site_label_1
_geom_bond_atom_site_label_2
_geom_bond_site_symmetry_1
_geom_bond_site_symmetry_2
O13 Lu1 1_555 1_555
H1 O13 1_555 1_555
O14 Lu1 1_555 1_555
H2 O14 1_555 1_555
H3 O14 1_555 1_555
O21 Lu1 1_555 1_555
O22 Lu1 1_555 1_555
O13 H30 1_555 1_555
O9 C8 1_555 1_555
Lu2 O1 1_555 1_555
O1 C29 1_555 1_555
O2 C29 1_555 1_555
O3 C28 1_555 1_555
O4 C28 1_555 1_555
O5 C42 1_555 1_555
O6 C42 1_555 1_555
O7 C7 1_555 1_555
O11 Lu2 1_555 1_555
O12 C21 1_555 1_555
O15 Lu2 1_555 1_555
H4 O15 1_555 1_555
H5 O15 1_555 1_555
O16 Lu2 1_555 1_555
H6 O16 1_555 1_555
H7 O16 1_555 1_555
C1 C2 1_555 1_555
C2 H8 1_555 1_555
C3 C2 1_555 1_555
C4 C3 1_555 1_555
C5 C4 1_555 1_555
C6 C1 1_555 1_555
H10 C6 1_555 1_555
C7 C3 1_555 1_555
C9 C1 1_555 1_555
C10 C9 1_555 1_555
H11 C10 1_555 1_555
C11 C10 1_555 1_555
H12 C11 1_555 1_555
C12 C11 1_555 1_555
C13 C12 1_555 1_555
H13 C13 1_555 1_555
C14 C9 1_555 1_555
H14 C14 1_555 1_555
C15 C12 1_555 1_555
C16 C15 1_555 1_555
H15 C16 1_555 1_555
C17 C16 1_555 1_555
H16 C17 1_555 1_555
C18 C17 1_555 1_555
C19 C18 1_555 1_555
H17 C19 1_555 1_555
C20 C15 1_555 1_555
H18 C20 1_555 1_555
C21 O11 1_555 1_555
C22 H19 1_555 1_555
C23 C22 1_555 1_555
C24 C23 1_555 1_555
H20 C24 1_555 1_555
C25 C24 1_555 1_555
C26 C25 1_555 1_555
H21 C26 1_555 1_555
C27 C22 1_555 1_555
C28 C27 1_555 1_555
C29 C23 1_555 1_555
C30 C25 1_555 1_555
C31 C30 1_555 1_555
H22 C31 1_555 1_555
C32 C31 1_555 1_555
H23 C32 1_555 1_555
C33 C32 1_555 1_555
C34 C33 1_555 1_555
H24 C34 1_555 1_555
C35 C30 1_555 1_555
H25 C35 1_555 1_555
C36 C33 1_555 1_555
C37 C36 1_555 1_555
H26 C37 1_555 1_555
C38 C37 1_555 1_555
H27 C38 1_555 1_555
C39 C38 1_555 1_555
C40 C39 1_555 1_555
H28 C40 1_555 1_555
C41 C36 1_555 1_555
H29 C41 1_555 1_555
C42 C39 1_555 1_555
Lu3 O3 1_555 1_555
Lu4 O5 1_555 1_555
Lu7 O2 1_555 1_555
O17 Lu2 1_555 1_555
O23 Lu2 1_555 1_555
O24 Lu2 1_555 1_555
O7 Lu4 1_555 1_555
C5 C6 1_555 1_555
C13 C14 1_555 1_555
C18 C21 1_555 1_555
C19 C20 1_555 1_555
C26 C27 1_555 1_555
C34 C35 1_555 1_555
C40 C41 1_555 1_555
Lu7_2 O2_2 1_555 1_555
Lu2_2 O1_2 1_555 1_555
O1_2 C29_2 1_555 1_555
O18 C28_2 1_555 1_555
O4_2 C28_2 1_555 1_555
O5_2 C42_2 1_555 1_555
O6_2 C42_2 1_555 1_555
O7_2 C7_2 1_555 1_555
O11_2 Lu2_2 1_555 1_555
O12_2 C21_2 1_555 1_555
O15_2 Lu2_2 1_555 1_555
H4_2 O15_2 1_555 1_555
H5_2 O15_2 1_555 1_555
O16_2 Lu2_2 1_555 1_555
H6_2 O16_2 1_555 1_555
H7_2 O16_2 1_555 1_555
C1_2 C2_2 1_555 1_555
C2_2 H8_2 1_555 1_555
C3_2 C2_2 1_555 1_555
C4_2 C3_2 1_555 1_555
C5_2 C4_2 1_555 1_555
C6_2 C1_2 1_555 1_555
H10_2 C6_2 1_555 1_555
C7_2 C3_2 1_555 1_555
C9_2 C1_2 1_555 1_555
C10_2 C9_2 1_555 1_555
H11_2 C10_2 1_555 1_555
C11_2 C10_2 1_555 1_555
H12_2 C11_2 1_555 1_555
C12_2 C11_2 1_555 1_555
C13_2 C12_2 1_555 1_555
H13_2 C13_2 1_555 1_555
C14_2 C9_2 1_555 1_555
H14_2 C14_2 1_555 1_555
C15_2 C12_2 1_555 1_555
C16_2 C15_2 1_555 1_555
H15_2 C16_2 1_555 1_555
C17_2 C16_2 1_555 1_555
H16_2 C17_2 1_555 1_555
C18_2 C17_2 1_555 1_555
C19_2 C18_2 1_555 1_555
H17_2 C19_2 1_555 1_555
C20_2 C15_2 1_555 1_555
H18_2 C20_2 1_555 1_555
C21_2 O11_2 1_555 1_555
C22_2 H19_2 1_555 1_555
C23_2 C22_2 1_555 1_555
C24_2 C23_2 1_555 1_555
H20_2 C24_2 1_555 1_555
C25_2 C24_2 1_555 1_555
C26_2 C25_2 1_555 1_555
H21_2 C26_2 1_555 1_555
C27_2 C22_2 1_555 1_555
C28_2 C27_2 1_555 1_555
C29_2 C23_2 1_555 1_555
C30_2 C25_2 1_555 1_555
C31_2 C30_2 1_555 1_555
H22_2 C31_2 1_555 1_555
C32_2 C31_2 1_555 1_555
H23_2 C32_2 1_555 1_555
C33_2 C32_2 1_555 1_555
C34_2 C33_2 1_555 1_555
H24_2 C34_2 1_555 1_555
C35_2 C30_2 1_555 1_555
H25_2 C35_2 1_555 1_555
C36_2 C33_2 1_555 1_555
C37_2 C36_2 1_555 1_555
H26_2 C37_2 1_555 1_555
C38_2 C37_2 1_555 1_555
H27_2 C38_2 1_555 1_555
C39_2 C38_2 1_555 1_555
C40_2 C39_2 1_555 1_555
H28_2 C40_2 1_555 1_555
C41_2 C36_2 1_555 1_555
H29_2 C41_2 1_555 1_555
C42_2 C39_2 1_555 1_555
Lu5 O5_2 1_555 1_555
O17_2 Lu2_2 1_555 1_555
O23_2 Lu2_2 1_555 1_555
O24_2 Lu2_2 1_555 1_555
O7_2 Lu5 1_555 1_555
C5_2 C6_2 1_555 1_555
C13_2 C14_2 1_555 1_555
C18_2 C21_2 1_555 1_555
C19_2 C20_2 1_555 1_555
C26_2 C27_2 1_555 1_555
C34_2 C35_2 1_555 1_555
C40_2 C41_2 1_555 1_555
Lu5 O19_2 1_555 1_555
Lu3 O8_2 1_555 1_555
O9_2 C8_2 1_555 1_555
O13_2 Lu3 1_555 1_555
H1_2 O13_2 1_555 1_555
O14_2 Lu3 1_555 1_555
H2_2 O14_2 1_555 1_555
H3_2 O14_2 1_555 1_555
O21_2 Lu3 1_555 1_555
O22_2 Lu3 1_555 1_555
O13_2 H30_2 1_555 1_555
O1_3 C29_3 1_555 1_555
O2_3 C29_3 1_555 1_555
O3_2 C28_3 1_555 1_555
O4_3 C28_3 1_555 1_555
O5_3 C42_3 1_555 1_555
O6_3 C42_3 1_555 1_555
C22_3 H19_3 1_555 1_555
C23_3 C22_3 1_555 1_555
C24_3 C23_3 1_555 1_555
H20_3 C24_3 1_555 1_555
C25_3 C24_3 1_555 1_555
C26_3 C25_3 1_555 1_555
H21_3 C26_3 1_555 1_555
C27_3 C22_3 1_555 1_555
C28_3 C27_3 1_555 1_555
C29_3 C23_3 1_555 1_555
C30_3 C25_3 1_555 1_555
C31_3 C30_3 1_555 1_555
H22_3 C31_3 1_555 1_555
C32_3 C31_3 1_555 1_555
H23_3 C32_3 1_555 1_555
C33_3 C32_3 1_555 1_555
C34_3 C33_3 1_555 1_555
C35_3 C30_3 1_555 1_555
C36_3 C33_3 1_555 1_555
C37_3 C36_3 1_555 1_555
H26_3 C37_3 1_555 1_555
C38_3 C37_3 1_555 1_555
H27_3 C38_3 1_555 1_555
C39_3 C38_3 1_555 1_555
C40_3 C39_3 1_555 1_555
H28_3 C40_3 1_555 1_555
C41_3 C36_3 1_555 1_555
H29_3 C41_3 1_555 1_555
C42_3 C39_3 1_555 1_555
Lu4_2 O5_3 1_555 1_555
Lu5_2 O3_2 1_555 1_555
Lu7_3 O2_3 1_555 1_555
O4_3 Lu5_2 1_555 1_555
C26_3 C27_3 1_555 1_555
C34_3 C35_3 1_555 1_555
C40_3 C41_3 1_555 1_555
Lu4_2 O18_2 1_555 1_555
O13_3 Lu1_2 1_555 1_555
H1_3 O13_3 1_555 1_555
O14_3 Lu1_2 1_555 1_555
H2_3 O14_3 1_555 1_555
H3_3 O14_3 1_555 1_555
O19_3 Lu1_2 1_555 1_555
O20_3 Lu1_2 1_555 1_555
O21_3 Lu1_2 1_555 1_555
O13_3 H30_3 1_555 1_555
O7_3 C7_3 1_555 1_555
O8_3 C7_3 1_555 1_555
O23_2 C8_3 1_555 1_555
O24_2 C8_3 1_555 1_555
O12_3 C21_3 1_555 1_555
C1_3 C2_3 1_555 1_555
C2_3 H8_3 1_555 1_555
C3_3 C2_3 1_555 1_555
C4_3 C3_3 1_555 1_555
H9_3 C4_3 1_555 1_555
C5_3 C4_3 1_555 1_555
C6_3 C1_3 1_555 1_555
H10_3 C6_3 1_555 1_555
C7_3 C3_3 1_555 1_555
C8_3 C5_3 1_555 1_555
C9_3 C1_3 1_555 1_555
C10_3 C9_3 1_555 1_555
H11_3 C10_3 1_555 1_555
C11_3 C10_3 1_555 1_555
H12_3 C11_3 1_555 1_555
C12_3 C11_3 1_555 1_555
C13_3 C12_3 1_555 1_555
H13_3 C13_3 1_555 1_555
C14_3 C9_3 1_555 1_555
H14_3 C14_3 1_555 1_555
C15_3 C12_3 1_555 1_555
C16_3 C15_3 1_555 1_555
H15_3 C16_3 1_555 1_555
C17_3 C16_3 1_555 1_555
H16_3 C17_3 1_555 1_555
C18_3 C17_3 1_555 1_555
C19_3 C18_3 1_555 1_555
H17_3 C19_3 1_555 1_555
C20_3 C15_3 1_555 1_555
H18_3 C20_3 1_555 1_555
C21_3 O11_3 1_555 1_555
C5_3 C6_3 1_555 1_555
C13_3 C14_3 1_555 1_555
C18_3 C21_3 1_555 1_555
C19_3 C20_3 1_555 1_555
O15_3 Lu6 1_555 1_555
H4_3 O15_3 1_555 1_555
H5_3 O15_3 1_555 1_555
O16_3 Lu6 1_555 1_555
H6_3 O16_3 1_555 1_555
H7_3 O16_3 1_555 1_555
O17_3 Lu6 1_555 1_555
O1_4 C29_4 1_555 1_555
O18_2 C28_4 1_555 1_555
O4_4 C28_4 1_555 1_555
O5_4 C42_4 1_555 1_555
O6_4 C42_4 1_555 1_555
C22_4 H19_4 1_555 1_555
C23_4 C22_4 1_555 1_555
C24_4 C23_4 1_555 1_555
H20_4 C24_4 1_555 1_555
C25_4 C24_4 1_555 1_555
C26_4 C25_4 1_555 1_555
H21_4 C26_4 1_555 1_555
C27_4 C22_4 1_555 1_555
C28_4 C27_4 1_555 1_555
C29_4 C23_4 1_555 1_555
C30_4 C25_4 1_555 1_555
C31_4 C30_4 1_555 1_555
H22_4 C31_4 1_555 1_555
C32_4 C31_4 1_555 1_555
H23_4 C32_4 1_555 1_555
C33_4 C32_4 1_555 1_555
C34_4 C33_4 1_555 1_555
C35_4 C30_4 1_555 1_555
C36_4 C33_4 1_555 1_555
C37_4 C36_4 1_555 1_555
H26_4 C37_4 1_555 1_555
C38_4 C37_4 1_555 1_555
H27_4 C38_4 1_555 1_555
C39_4 C38_4 1_555 1_555
C40_4 C39_4 1_555 1_555
H28_4 C40_4 1_555 1_555
C41_4 C36_4 1_555 1_555
H29_4 C41_4 1_555 1_555
C42_4 C39_4 1_555 1_555
Lu5_2 O5_4 1_555 1_555
O4_4 Lu4_2 1_555 1_555
C26_4 C27_4 1_555 1_555
C34_4 C35_4 1_555 1_555
C40_4 C41_4 1_555 1_555
Lu3_2 O8_4 1_555 1_555
O7_4 C7_4 1_555 1_555
O8_4 C7_4 1_555 1_555
O23 C8_4 1_555 1_555
O24 C8_4 1_555 1_555
O12_4 C21_4 1_555 1_555
O13_4 Lu3_2 1_555 1_555
H1_4 O13_4 1_555 1_555
O14_4 Lu3_2 1_555 1_555
H2_4 O14_4 1_555 1_555
H3_4 O14_4 1_555 1_555
C1_4 C2_4 1_555 1_555
C2_4 H8_4 1_555 1_555
C3_4 C2_4 1_555 1_555
C4_4 C3_4 1_555 1_555
H9_4 C4_4 1_555 1_555
C5_4 C4_4 1_555 1_555
C6_4 C1_4 1_555 1_555
H10_4 C6_4 1_555 1_555
C7_4 C3_4 1_555 1_555
C8_4 C5_4 1_555 1_555
C9_4 C1_4 1_555 1_555
C10_4 C9_4 1_555 1_555
H11_4 C10_4 1_555 1_555
C11_4 C10_4 1_555 1_555
H12_4 C11_4 1_555 1_555
C12_4 C11_4 1_555 1_555
C13_4 C12_4 1_555 1_555
H13_4 C13_4 1_555 1_555
C14_4 C9_4 1_555 1_555
H14_4 C14_4 1_555 1_555
C15_4 C12_4 1_555 1_555
C16_4 C15_4 1_555 1_555
H15_4 C16_4 1_555 1_555
C17_4 C16_4 1_555 1_555
H16_4 C17_4 1_555 1_555
C18_4 C17_4 1_555 1_555
C19_4 C18_4 1_555 1_555
H17_4 C19_4 1_555 1_555
C20_4 C15_4 1_555 1_555
H18_4 C20_4 1_555 1_555
C21_4 O11_4 1_555 1_555
O19_4 Lu3_2 1_555 1_555
O20_4 Lu3_2 1_555 1_555
O21_4 Lu3_2 1_555 1_555
C5_4 C6_4 1_555 1_555
C13_4 C14_4 1_555 1_555
C18_4 C21_4 1_555 1_555
C19_4 C20_4 1_555 1_555
O13_4 H30_4 1_555 1_555
Lu7 O1_5 1_555 1_555
O1_5 C29_5 1_555 1_555
O17 C29_5 1_555 1_555
O19_2 C28_5 1_555 1_555
O20_2 C28_5 1_555 1_555
O21 C42_5 1_555 1_555
O6_5 C42_5 1_555 1_555
O22 C7_5 1_555 1_555
O11_5 Lu7 1_555 1_555
O12_5 C21_5 1_555 1_555
O15_4 Lu7 1_555 1_555
H4_4 O15_4 1_555 1_555
H5_4 O15_4 1_555 1_555
O16_4 Lu7 1_555 1_555
H6_4 O16_4 1_555 1_555
H7_4 O16_4 1_555 1_555
C1_5 C2_5 1_555 1_555
C2_5 H8_5 1_555 1_555
C3_5 C2_5 1_555 1_555
C4_5 C3_5 1_555 1_555
C5_5 C4_5 1_555 1_555
C6_5 C1_5 1_555 1_555
H10_5 C6_5 1_555 1_555
C7_5 C3_5 1_555 1_555
C9_5 C1_5 1_555 1_555
C10_5 C9_5 1_555 1_555
H11_5 C10_5 1_555 1_555
C11_5 C10_5 1_555 1_555
H12_5 C11_5 1_555 1_555
C12_5 C11_5 1_555 1_555
C13_5 C12_5 1_555 1_555
H13_5 C13_5 1_555 1_555
C14_5 C9_5 1_555 1_555
H14_5 C14_5 1_555 1_555
C15_5 C12_5 1_555 1_555
C16_5 C15_5 1_555 1_555
H15_5 C16_5 1_555 1_555
C17_5 C16_5 1_555 1_555
H16_5 C17_5 1_555 1_555
C18_5 C17_5 1_555 1_555
C19_5 C18_5 1_555 1_555
H17_5 C19_5 1_555 1_555
C20_5 C15_5 1_555 1_555
H18_5 C20_5 1_555 1_555
C21_5 O11_5 1_555 1_555
C22_5 H19_5 1_555 1_555
C23_5 C22_5 1_555 1_555
C24_5 C23_5 1_555 1_555
H20_5 C24_5 1_555 1_555
C25_5 C24_5 1_555 1_555
C26_5 C25_5 1_555 1_555
H21_5 C26_5 1_555 1_555
C27_5 C22_5 1_555 1_555
C28_5 C27_5 1_555 1_555
C29_5 C23_5 1_555 1_555
C30_5 C25_5 1_555 1_555
C31_5 C30_5 1_555 1_555
H22_5 C31_5 1_555 1_555
C32_5 C31_5 1_555 1_555
H23_5 C32_5 1_555 1_555
C33_5 C32_5 1_555 1_555
C34_5 C33_5 1_555 1_555
H24_5 C34_5 1_555 1_555
C35_5 C30_5 1_555 1_555
H25_5 C35_5 1_555 1_555
C36_5 C33_5 1_555 1_555
C37_5 C36_5 1_555 1_555
H26_5 C37_5 1_555 1_555
C38_5 C37_5 1_555 1_555
H27_5 C38_5 1_555 1_555
C39_5 C38_5 1_555 1_555
C40_5 C39_5 1_555 1_555
H28_5 C40_5 1_555 1_555
C41_5 C36_5 1_555 1_555
H29_5 C41_5 1_555 1_555
C42_5 C39_5 1_555 1_555
O23_3 Lu7 1_555 1_555
O24_3 Lu7 1_555 1_555
C5_5 C6_5 1_555 1_555
C13_5 C14_5 1_555 1_555
C18_5 C21_5 1_555 1_555
C19_5 C20_5 1_555 1_555
C26_5 C27_5 1_555 1_555
C34_5 C35_5 1_555 1_555
C40_5 C41_5 1_555 1_555
O9_3 C8_5 1_555 1_555
O13_5 Lu4 1_555 1_555
H1_5 O13_5 1_555 1_555
O14_5 Lu4 1_555 1_555
H2_5 O14_5 1_555 1_555
H3_5 O14_5 1_555 1_555
O13_5 H30_5 1_555 1_555
Lu5 O8_6 1_555 1_555
O9_4 C8_6 1_555 1_555
O13_6 Lu5 1_555 1_555
H1_6 O13_6 1_555 1_555
O14_6 Lu5 1_555 1_555
H2_6 O14_6 1_555 1_555
H3_6 O14_6 1_555 1_555
O13_6 H30_6 1_555 1_555
Lu7_2 O1_6 1_555 1_555
O1_6 C29_6 1_555 1_555
O19 C28_6 1_555 1_555
O20 C28_6 1_555 1_555
O21_2 C42_6 1_555 1_555
O6_6 C42_6 1_555 1_555
O22_2 C7_6 1_555 1_555
O11_6 Lu7_2 1_555 1_555
O12_6 C21_6 1_555 1_555
O15_5 Lu7_2 1_555 1_555
H4_5 O15_5 1_555 1_555
H5_5 O15_5 1_555 1_555
O16_5 Lu7_2 1_555 1_555
H6_5 O16_5 1_555 1_555
H7_5 O16_5 1_555 1_555
C1_6 C2_6 1_555 1_555
C2_6 H8_6 1_555 1_555
C3_6 C2_6 1_555 1_555
C4_6 C3_6 1_555 1_555
C5_6 C4_6 1_555 1_555
C6_6 C1_6 1_555 1_555
H10_6 C6_6 1_555 1_555
C7_6 C3_6 1_555 1_555
C9_6 C1_6 1_555 1_555
C10_6 C9_6 1_555 1_555
H11_6 C10_6 1_555 1_555
C11_6 C10_6 1_555 1_555
H12_6 C11_6 1_555 1_555
C12_6 C11_6 1_555 1_555
C13_6 C12_6 1_555 1_555
H13_6 C13_6 1_555 1_555
C14_6 C9_6 1_555 1_555
H14_6 C14_6 1_555 1_555
C15_6 C12_6 1_555 1_555
C16_6 C15_6 1_555 1_555
H15_6 C16_6 1_555 1_555
C17_6 C16_6 1_555 1_555
H16_6 C17_6 1_555 1_555
C18_6 C17_6 1_555 1_555
C19_6 C18_6 1_555 1_555
H17_6 C19_6 1_555 1_555
C20_6 C15_6 1_555 1_555
H18_6 C20_6 1_555 1_555
C21_6 O11_6 1_555 1_555
C22_6 H19_6 1_555 1_555
C23_6 C22_6 1_555 1_555
C24_6 C23_6 1_555 1_555
H20_6 C24_6 1_555 1_555
C25_6 C24_6 1_555 1_555
C26_6 C25_6 1_555 1_555
H21_6 C26_6 1_555 1_555
C27_6 C22_6 1_555 1_555
C28_6 C27_6 1_555 1_555
C29_6 C23_6 1_555 1_555
C30_6 C25_6 1_555 1_555
C31_6 C30_6 1_555 1_555
H22_6 C31_6 1_555 1_555
C32_6 C31_6 1_555 1_555
H23_6 C32_6 1_555 1_555
C33_6 C32_6 1_555 1_555
C34_6 C33_6 1_555 1_555
H24_6 C34_6 1_555 1_555
C35_6 C30_6 1_555 1_555
H25_6 C35_6 1_555 1_555
C36_6 C33_6 1_555 1_555
C37_6 C36_6 1_555 1_555
H26_6 C37_6 1_555 1_555
C38_6 C37_6 1_555 1_555
H27_6 C38_6 1_555 1_555
C39_6 C38_6 1_555 1_555
C40_6 C39_6 1_555 1_555
H28_6 C40_6 1_555 1_555
C41_6 C36_6 1_555 1_555
H29_6 C41_6 1_555 1_555
C42_6 C39_6 1_555 1_555
O23_4 Lu7_2 1_555 1_555
O24_4 Lu7_2 1_555 1_555
C5_6 C6_6 1_555 1_555
C13_6 C14_6 1_555 1_555
C18_6 C21_6 1_555 1_555
C19_6 C20_6 1_555 1_555
C26_6 C27_6 1_555 1_555
C34_6 C35_6 1_555 1_555
C40_6 C41_6 1_555 1_555
O15_6 Lu7_3 1_555 1_555
H4_6 O15_6 1_555 1_555
H5_6 O15_6 1_555 1_555
O16_6 Lu7_3 1_555 1_555
H6_6 O16_6 1_555 1_555
H7_6 O16_6 1_555 1_555
O22_3 C7_7 1_555 1_555
O8_7 C7_7 1_555 1_555
O23_4 C8_7 1_555 1_555
O24_4 C8_7 1_555 1_555
O12_7 C21_7 1_555 1_555
C1_7 C2_7 1_555 1_555
C2_7 H8_7 1_555 1_555
C3_7 C2_7 1_555 1_555
C4_7 C3_7 1_555 1_555
H9_7 C4_7 1_555 1_555
C5_7 C4_7 1_555 1_555
C6_7 C1_7 1_555 1_555
H10_7 C6_7 1_555 1_555
C7_7 C3_7 1_555 1_555
C8_7 C5_7 1_555 1_555
C9_7 C1_7 1_555 1_555
C10_7 C9_7 1_555 1_555
H11_7 C10_7 1_555 1_555
C11_7 C10_7 1_555 1_555
H12_7 C11_7 1_555 1_555
C12_7 C11_7 1_555 1_555
C13_7 C12_7 1_555 1_555
H13_7 C13_7 1_555 1_555
C14_7 C9_7 1_555 1_555
H14_7 C14_7 1_555 1_555
C15_7 C12_7 1_555 1_555
C16_7 C15_7 1_555 1_555
H15_7 C16_7 1_555 1_555
C17_7 C16_7 1_555 1_555
H16_7 C17_7 1_555 1_555
C18_7 C17_7 1_555 1_555
C19_7 C18_7 1_555 1_555
H17_7 C19_7 1_555 1_555
C20_7 C15_7 1_555 1_555
H18_7 C20_7 1_555 1_555
C21_7 O11_7 1_555 1_555
C5_7 C6_7 1_555 1_555
C13_7 C14_7 1_555 1_555
C18_7 C21_7 1_555 1_555
C19_7 C20_7 1_555 1_555
O13_7 Lu4_2 1_555 1_555
H1_7 O13_7 1_555 1_555
O14_7 Lu4_2 1_555 1_555
H2_7 O14_7 1_555 1_555
H3_7 O14_7 1_555 1_555
O13_7 H30_7 1_555 1_555
O1_7 C29_7 1_555 1_555
O17_3 C29_7 1_555 1_555
O19_4 C28_7 1_555 1_555
O20_4 C28_7 1_555 1_555
O21_3 C42_7 1_555 1_555
O6_7 C42_7 1_555 1_555
C22_7 H19_7 1_555 1_555
C23_7 C22_7 1_555 1_555
C24_7 C23_7 1_555 1_555
H20_7 C24_7 1_555 1_555
C25_7 C24_7 1_555 1_555
C26_7 C25_7 1_555 1_555
H21_7 C26_7 1_555 1_555
C27_7 C22_7 1_555 1_555
C28_7 C27_7 1_555 1_555
C29_7 C23_7 1_555 1_555
C30_7 C25_7 1_555 1_555
C31_7 C30_7 1_555 1_555
H22_7 C31_7 1_555 1_555
C32_7 C31_7 1_555 1_555
H23_7 C32_7 1_555 1_555
C33_7 C32_7 1_555 1_555
C34_7 C33_7 1_555 1_555
C35_7 C30_7 1_555 1_555
C36_7 C33_7 1_555 1_555
C37_7 C36_7 1_555 1_555
H26_7 C37_7 1_555 1_555
C38_7 C37_7 1_555 1_555
H27_7 C38_7 1_555 1_555
C39_7 C38_7 1_555 1_555
C40_7 C39_7 1_555 1_555
H28_7 C40_7 1_555 1_555
C41_7 C36_7 1_555 1_555
H29_7 C41_7 1_555 1_555
C42_7 C39_7 1_555 1_555
C26_7 C27_7 1_555 1_555
C34_7 C35_7 1_555 1_555
C40_7 C41_7 1_555 1_555
Lu5_2 O8_8 1_555 1_555
O22_4 C7_8 1_555 1_555
O8_8 C7_8 1_555 1_555
O23_3 C8_8 1_555 1_555
O24_3 C8_8 1_555 1_555
O12_8 C21_8 1_555 1_555
O13_8 Lu5_2 1_555 1_555
H1_8 O13_8 1_555 1_555
O14_8 Lu5_2 1_555 1_555
H2_8 O14_8 1_555 1_555
H3_8 O14_8 1_555 1_555
C1_8 C2_8 1_555 1_555
C2_8 H8_8 1_555 1_555
C3_8 C2_8 1_555 1_555
C4_8 C3_8 1_555 1_555
H9_8 C4_8 1_555 1_555
C5_8 C4_8 1_555 1_555
C6_8 C1_8 1_555 1_555
H10_8 C6_8 1_555 1_555
C7_8 C3_8 1_555 1_555
C8_8 C5_8 1_555 1_555
C9_8 C1_8 1_555 1_555
C10_8 C9_8 1_555 1_555
H11_8 C10_8 1_555 1_555
C11_8 C10_8 1_555 1_555
H12_8 C11_8 1_555 1_555
C12_8 C11_8 1_555 1_555
C13_8 C12_8 1_555 1_555
H13_8 C13_8 1_555 1_555
C14_8 C9_8 1_555 1_555
H14_8 C14_8 1_555 1_555
C15_8 C12_8 1_555 1_555
C16_8 C15_8 1_555 1_555
H15_8 C16_8 1_555 1_555
C17_8 C16_8 1_555 1_555
H16_8 C17_8 1_555 1_555
C18_8 C17_8 1_555 1_555
C19_8 C18_8 1_555 1_555
H17_8 C19_8 1_555 1_555
C20_8 C15_8 1_555 1_555
H18_8 C20_8 1_555 1_555
C21_8 O11_8 1_555 1_555
C5_8 C6_8 1_555 1_555
C13_8 C14_8 1_555 1_555
C18_8 C21_8 1_555 1_555
C19_8 C20_8 1_555 1_555
O13_8 H30_8 1_555 1_555
O1_8 C29_8 1_555 1_555
O19_3 C28_8 1_555 1_555
O20_3 C28_8 1_555 1_555
O21_4 C42_8 1_555 1_555
O6_8 C42_8 1_555 1_555
C22_8 H19_8 1_555 1_555
C23_8 C22_8 1_555 1_555
C24_8 C23_8 1_555 1_555
H20_8 C24_8 1_555 1_555
C25_8 C24_8 1_555 1_555
C26_8 C25_8 1_555 1_555
H21_8 C26_8 1_555 1_555
C27_8 C22_8 1_555 1_555
C28_8 C27_8 1_555 1_555
C29_8 C23_8 1_555 1_555
C30_8 C25_8 1_555 1_555
C31_8 C30_8 1_555 1_555
H22_8 C31_8 1_555 1_555
C32_8 C31_8 1_555 1_555
H23_8 C32_8 1_555 1_555
C33_8 C32_8 1_555 1_555
C34_8 C33_8 1_555 1_555
C35_8 C30_8 1_555 1_555
C36_8 C33_8 1_555 1_555
C37_8 C36_8 1_555 1_555
H26_8 C37_8 1_555 1_555
C38_8 C37_8 1_555 1_555
H27_8 C38_8 1_555 1_555
C39_8 C38_8 1_555 1_555
C40_8 C39_8 1_555 1_555
H28_8 C40_8 1_555 1_555
C41_8 C36_8 1_555 1_555
H29_8 C41_8 1_555 1_555
C42_8 C39_8 1_555 1_555
C26_8 C27_8 1_555 1_555
C34_8 C35_8 1_555 1_555
C40_8 C41_8 1_555 1_555
O15_7 Lu6_2 1_555 1_555
H4_7 O15_7 1_555 1_555
H5_7 O15_7 1_555 1_555
O16_7 Lu6_2 1_555 1_555
H6_7 O16_7 1_555 1_555
H7_7 O16_7 1_555 1_555
O17_4 Lu6_2 1_555 1_555
Lu7_4 O2_4 1_555 1_555
O15_8 Lu7_4 1_555 1_555
H4_8 O15_8 1_555 1_555
H5_8 O15_8 1_555 1_555
O16_8 Lu7_4 1_555 1_555
H6_8 O16_8 1_555 1_555
H7_8 O16_8 1_555 1_555

#END
