
###############################################################################
#
# This file contains modified crystal structure data generated from the
# MOF subset of the Cambridge Structural Database (CSD) v543 
# hosted by the Cambridge Crystallographic Data Centre (CCDC).
#
# This work is licensed under the Creative Commons
# Attribution-NonCommercial-ShareAlike 4.0 International License.
# To view a copy of this license, visit
# http://creativecommons.org/licenses/by-nc-sa/4.0/
# or send a letter to
# Creative Commons, PO Box 1866, Mountain View, CA 94042, USA.
#
# CIF created using the CSD Python API on 29 September 2022
# The structure has been converted into the P1 space group
# The structure has a 3D framework
# The original CSD entry KULZEY is in the monoclinic crystal system
# The framework has been calculated to contain at least 10.0% void space
# The void calculation uses a probe of radius 1.32A, grid spacing 0.4
#
###############################################################################

data_KULZEY
_chemical_formula_moiety         '(C424 H352 Co16 N32 O128)n'
_symmetry_cell_setting           triclinic
_symmetry_space_group_name_H-M   'P 1'
_symmetry_Int_Tables_number      1
_space_group_name_Hall           'P 1'
loop_
_symmetry_equiv_pos_site_id
_symmetry_equiv_pos_as_xyz
1 x,y,z
_cell_length_a                   46.330(7)
_cell_length_b                   10.7270(15)
_cell_length_c                   23.714(3)
_cell_angle_alpha                90
_cell_angle_beta                 95.872(3)
_cell_angle_gamma                90
_cell_volume                     11723.6
loop_
_atom_site_label
_atom_site_type_symbol
_atom_site_fract_x
_atom_site_fract_y
_atom_site_fract_z
C29 C 0.06705(6) 0.0733(3) 0.20704(12)
C30 C 0.05143(6) 0.2692(3) 0.17036(12)
H17 H 0.0525 0.3555 0.1735
C31 C 0.06783(6) 0.1998(3) 0.21029(13)
H18 H 0.0794 0.2390 0.2394
C32 C 0.03384(6) 0.1009(3) 0.12481(13)
H19 H 0.0226 0.0646 0.0944
C33 C 0.04889(6) 0.0227(3) 0.16342(13)
C34 C 0.10135(6) 0.0427(2) 0.28628(12)
H21 H 0.0916 0.1023 0.3086
H22 H 0.1172 0.0847 0.2703
H32 H 0.1531 0.0074 0.3495
C49 C 0.15653(6) 0.2873(3) 0.50885(12)
H37 H 0.1497 0.3506 0.5308
C50 C 0.14606(6) 0.1333(3) 0.43777(12)
C51 C 0.13705(6) 0.2269(3) 0.47039(12)
H38 H 0.1176 0.2504 0.4667
C52 C 0.17467(6) 0.1007(3) 0.44502(12)
H39 H 0.1818 0.0364 0.4241
C53 C 0.19254(6) 0.1660(3) 0.48430(12)
H40 H 0.2120 0.1426 0.4891
Co1 Co 0.008540(8) 0.33105(4) 0.069107(17)
N2 N 0.18474(5) 0.2594(2) 0.51605(10)
N3 N 0.03426(5) 0.2226(2) 0.12791(10)
O12 O 0.02789(4) 0.50068(15) 0.09254(8)
H43 H 0.0172 0.5400 0.1203
O14 O 0.12621(4) 0.07824(17) 0.40072(8)
H44 H 0.0277 0.5533 0.0598
Co6 Co 0.214902(8) 0.34836(4) 0.574686(17)
N5 N 0.03733(5) 0.3085(2) 0.00475(10)
H20 H 0.0468 0.9367 0.1601
C35 C 0.02922(6) 0.7554(3) 0.45765(13)
H23 H 0.0098 0.7786 0.4514
C36 C 0.06505(6) 0.6540(3) 0.51022(13)
H24 H 0.0713 0.6051 0.5415
C37 C 0.08454(7) 0.6823(3) 0.47365(13)
H25 H 0.1036 0.6540 0.4802
C38 C 0.04689(6) 0.7900(3) 0.41776(13)
H26 H 0.0398 0.8359 0.3861
C39 C 0.07587(6) 0.7542(3) 0.42607(13)
C40 C 0.08723(6) 0.8820(3) 0.34971(12)
H27 H 0.0773 0.9490 0.3673
H28 H 0.0737 0.8451 0.3205
C41 C 0.12668(6) 0.8369(3) 0.28835(12)
H29 H 0.1350 0.7706 0.3127
H30 H 0.1124 0.8011 0.2601
C42 C 0.11279(6) 0.9348(3) 0.32289(12)
C43 C 0.13647(6) 0.9790(3) 0.36780(11)
H31 H 0.1427 0.9099 0.3925
C44 C 0.17679(6) 0.6632(3) 0.17204(13)
H33 H 0.1750 0.5783 0.1646
C45 C 0.16326(6) 0.8373(3) 0.22508(13)
C46 C 0.19675(7) 0.8463(3) 0.15546(13)
H34 H 0.2094 0.8939 0.1362
C47 C 0.16083(6) 0.7120(3) 0.21318(13)
H35 H 0.1488 0.6613 0.2323
C48 C 0.18213(7) 0.9066(3) 0.19552(14)
H36 H 0.1848 0.9914 0.2025
N1 N 0.03733(5) 0.6915(2) 0.50475(10)
N4 N 0.19441(5) 0.7283(2) 0.14228(10)
O13 O 0.08142(4) 0.99262(17) 0.24222(8)
O15 O 0.09613(4) 0.78881(18) 0.39189(9)
O16 O 0.14870(4) 0.89930(18) 0.26183(9)
Co3 Co 0.008540(8) 0.66895(4) 0.569107(17)
Co4 Co 0.214902(8) 0.65164(4) 0.074686(17)
C1 C 0.96536(6) 0.2458(3) 0.00762(12)
H2 H 0.9424 0.0270 0.0203
C15 C 0.76232(6) 0.2374(3) 0.12012(12)
C16 C 0.78956(6) 0.2895(3) 0.15004(12)
C17 C 0.80483(6) 0.2236(3) 0.19302(13)
H9 H 0.7984 0.1451 0.2027
C18 C 0.79952(6) 0.4022(3) 0.13581(14)
H10 H 0.7894 0.4467 0.1064
C19 C 0.83914(6) 0.3884(3) 0.20702(14)
C20 C 0.82972(7) 0.2730(3) 0.22212(14)
H11 H 0.8399 0.2285 0.2514
C21 C 0.82485(7) 0.4540(3) 0.16435(14)
H12 H 0.8316 0.5316 0.1541
C22 C 0.93684(6) 0.5271(3) 0.22180(12)
H13 H 0.9511 0.5775 0.2403
C23 C 0.94286(6) 0.4610(3) 0.17419(13)
C24 C 0.89375(6) 0.3852(3) 0.16580(13)
H14 H 0.8790 0.3394 0.1459
C25 C 0.88858(6) 0.4475(3) 0.21384(13)
C26 C 0.97223(6) 0.4633(3) 0.15247(13)
C27 C 0.91002(6) 0.5197(3) 0.24241(13)
H15 H 0.9065 0.5627 0.2751
C28 C 0.92094(6) 0.3900(3) 0.14666(13)
H16 H 0.9245 0.3447 0.1147
Co2 Co 0.714902(8) 0.15164(4) 0.074686(17)
O1 O 0.73662(4) 0.06998(17) 0.00953(8)
O2 O 0.74815(4) 0.29807(16) 0.08169(8)
O3 O 0.75372(4) 0.13046(18) 0.13415(8)
O4 O 0.97763(4) 0.37051(18) 0.12293(9)
O5 O 0.98889(4) 0.55155(18) 0.16421(9)
O6 O 0.98100(4) 0.18032(16) 0.04303(8)
O11 O 0.86324(4) 0.4398(2) 0.23925(9)
N6 N 0.68474(5) 0.2406(2) 0.01605(10)
N7 N 0.69441(5) 0.2283(2) 0.14228(10)
H3 H 0.0950 0.9230 0.5330
C8 C 0.17133(6) 0.7084(3) 0.56969(13)
C9 C 0.13849(6) 0.8996(3) 0.60500(14)
C10 C 0.15677(7) 0.9206(3) 0.56530(15)
C11 C 0.13610(6) 0.7869(3) 0.62834(14)
H6 H 0.1235 0.7735 0.6558
C12 C 0.15299(6) 0.6902(3) 0.61039(14)
H7 H 0.1517 0.6116 0.6265
C13 C 0.17274(7) 0.8251(3) 0.54632(15)
H8 H 0.1846 0.8391 0.5176
C14 C 0.18973(7) 0.6034(3) 0.55113(14)
O8 O 0.19182(4) 0.50827(17) 0.58136(8)
O9 O 0.20181(6) 0.6191(2) 0.50707(12)
O17 O 0.30818(4) 0.99173(17) 0.41864(8)
C1_2 C 0.46536(6) 0.7458(3) 0.00762(12)
H2_2 H 0.4424 0.5270 0.0203
C15_2 C 0.26232(6) 0.7374(3) 0.12012(12)
C16_2 C 0.28956(6) 0.7895(3) 0.15004(12)
C17_2 C 0.30483(6) 0.7236(3) 0.19302(13)
H9_2 H 0.2984 0.6451 0.2027
C18_2 C 0.29952(6) 0.9022(3) 0.13581(14)
H10_2 H 0.2894 0.9467 0.1064
C19_2 C 0.33914(6) 0.8884(3) 0.20702(14)
C20_2 C 0.32972(7) 0.7730(3) 0.22212(14)
H11_2 H 0.3399 0.7285 0.2514
C21_2 C 0.32485(7) 0.9540(3) 0.16435(14)
C23_2 C 0.44286(6) 0.9610(3) 0.17419(13)
C24_2 C 0.39375(6) 0.8852(3) 0.16580(13)
H14_2 H 0.3790 0.8394 0.1459
C25_2 C 0.38858(6) 0.9475(3) 0.21384(13)
C26_2 C 0.47223(6) 0.9633(3) 0.15247(13)
C28_2 C 0.42094(6) 0.8900(3) 0.14666(13)
H16_2 H 0.4245 0.8447 0.1147
C29_2 C 0.56705(6) 0.5733(3) 0.20704(12)
C30_2 C 0.55143(6) 0.7692(3) 0.17036(12)
H17_2 H 0.5525 0.8555 0.1735
C31_2 C 0.56783(6) 0.6998(3) 0.21029(13)
H18_2 H 0.5794 0.7390 0.2394
C32_2 C 0.53384(6) 0.6009(3) 0.12481(13)
H19_2 H 0.5226 0.5646 0.0944
C33_2 C 0.54889(6) 0.5227(3) 0.16342(13)
H20_2 H 0.5468 0.4367 0.1601
C34_2 C 0.60135(6) 0.5427(2) 0.28628(12)
H21_2 H 0.5916 0.6023 0.3086
H22_2 H 0.6172 0.5847 0.2703
C35_2 C 0.52922(6) 0.2554(3) 0.45765(13)
H23_2 H 0.5098 0.2786 0.4514
C36_2 C 0.56505(6) 0.1540(3) 0.51022(13)
H24_2 H 0.5713 0.1051 0.5415
C37_2 C 0.58454(7) 0.1823(3) 0.47365(13)
H25_2 H 0.6036 0.1540 0.4802
C38_2 C 0.54689(6) 0.2900(3) 0.41776(13)
H26_2 H 0.5398 0.3359 0.3861
C39_2 C 0.57587(6) 0.2542(3) 0.42607(13)
C40_2 C 0.58723(6) 0.3820(3) 0.34971(12)
H27_2 H 0.5773 0.4490 0.3673
H28_2 H 0.5737 0.3451 0.3205
C41_2 C 0.62668(6) 0.3369(3) 0.28835(12)
H29_2 H 0.6350 0.2706 0.3127
H30_2 H 0.6124 0.3011 0.2601
C42_2 C 0.61279(6) 0.4348(3) 0.32289(12)
C43_2 C 0.63647(6) 0.4790(3) 0.36780(11)
H31_2 H 0.6427 0.4099 0.3925
H32_2 H 0.6531 0.5074 0.3495
C44_2 C 0.67679(6) 0.1632(3) 0.17204(13)
H33_2 H 0.6750 0.0783 0.1646
C45_2 C 0.66326(6) 0.3373(3) 0.22508(13)
C46_2 C 0.69675(7) 0.3463(3) 0.15546(13)
H34_2 H 0.7094 0.3939 0.1362
C47_2 C 0.66083(6) 0.2120(3) 0.21318(13)
H35_2 H 0.6488 0.1613 0.2323
C48_2 C 0.68213(7) 0.4066(3) 0.19552(14)
H36_2 H 0.6848 0.4914 0.2025
C49_2 C 0.65653(6) 0.7873(3) 0.50885(12)
H37_2 H 0.6497 0.8506 0.5308
C50_2 C 0.64606(6) 0.6333(3) 0.43777(12)
C51_2 C 0.63705(6) 0.7269(3) 0.47039(12)
H38_2 H 0.6176 0.7504 0.4667
C52_2 C 0.67467(6) 0.6007(3) 0.44502(12)
H39_2 H 0.6818 0.5364 0.4241
C53_2 C 0.69254(6) 0.6660(3) 0.48430(12)
H40_2 H 0.7120 0.6426 0.4891
Co1_2 Co 0.508540(8) 0.83105(4) 0.069107(17)
N1_2 N 0.53733(5) 0.1915(2) 0.50475(10)
N2_2 N 0.68474(5) 0.7594(2) 0.51605(10)
N3_2 N 0.53426(5) 0.7226(2) 0.12791(10)
O1_2 O 0.23662(4) 0.56998(17) 0.00953(8)
O2_2 O 0.24815(4) 0.79807(16) 0.08169(8)
O3_2 O 0.25372(4) 0.63046(18) 0.13415(8)
O4_2 O 0.47763(4) 0.87051(18) 0.12293(9)
O6_2 O 0.48100(4) 0.68032(16) 0.04303(8)
O11_2 O 0.36324(4) 0.9398(2) 0.23925(9)
O13_2 O 0.58142(4) 0.49262(17) 0.24222(8)
O14_2 O 0.62621(4) 0.57824(17) 0.40072(8)
O15_2 O 0.59613(4) 0.28881(18) 0.39189(9)
O16_2 O 0.64870(4) 0.39930(18) 0.26183(9)
Co3_2 Co 0.508540(8) 0.16895(4) 0.569107(17)
Co6_2 Co 0.714902(8) 0.84836(4) 0.574686(17)
N5_2 N 0.53733(5) 0.8085(2) 0.00475(10)
N6_2 N 0.18474(5) 0.7406(2) 0.01605(10)
O17_2 O 0.19182(4) 0.49173(17) 0.08136(8)
H3_2 H 0.0950 0.0770 0.0330
C8_2 C 0.17133(6) 0.2916(3) 0.06969(13)
C9_2 C 0.13849(6) 0.1004(3) 0.10500(14)
C10_2 C 0.15677(7) 0.0794(3) 0.06530(15)
C11_2 C 0.13610(6) 0.2131(3) 0.12834(14)
H6_2 H 0.1235 0.2265 0.1558
C12_2 C 0.15299(6) 0.3098(3) 0.11039(14)
H7_2 H 0.1517 0.3884 0.1265
C13_2 C 0.17274(7) 0.1749(3) 0.04632(15)
H8_2 H 0.1846 0.1609 0.0176
C14_2 C 0.18973(7) 0.3966(3) 0.05113(14)
O9_2 O 0.20181(6) 0.3809(2) 0.00707(12)
C36_3 C 0.06505(6) 0.3460(3) 0.01022(13)
H24_3 H 0.0713 0.3949 0.0415
H20_3 H 0.0468 0.0633 0.6601
C35_3 C 0.02922(6) 0.2446(3) 0.95765(13)
H23_3 H 0.0098 0.2214 0.9514
C37_3 C 0.08454(7) 0.3177(3) 0.97365(13)
H25_3 H 0.1036 0.3460 0.9802
C38_3 C 0.04689(6) 0.2100(3) 0.91776(13)
H26_3 H 0.0398 0.1641 0.8861
C39_3 C 0.07587(6) 0.2458(3) 0.92607(13)
C40_3 C 0.08723(6) 0.1180(3) 0.84971(12)
H27_3 H 0.0773 0.0510 0.8673
H28_3 H 0.0737 0.1549 0.8205
C41_3 C 0.12668(6) 0.1631(3) 0.78835(12)
H29_3 H 0.1350 0.2294 0.8127
H30_3 H 0.1124 0.1989 0.7601
C42_3 C 0.11279(6) 0.0652(3) 0.82289(12)
C43_3 C 0.13647(6) 0.0210(3) 0.86780(11)
H31_3 H 0.1427 0.0901 0.8925
C44_3 C 0.17679(6) 0.3368(3) 0.67204(13)
H33_3 H 0.1750 0.4217 0.6646
C45_3 C 0.16326(6) 0.1627(3) 0.72508(13)
C46_3 C 0.19675(7) 0.1537(3) 0.65546(13)
H34_3 H 0.2094 0.1061 0.6362
C47_3 C 0.16083(6) 0.2880(3) 0.71318(13)
H35_3 H 0.1488 0.3387 0.7323
C48_3 C 0.18213(7) 0.0934(3) 0.69552(14)
H36_3 H 0.1848 0.0086 0.7025
N4_2 N 0.19441(5) 0.2717(2) 0.64228(10)
O13_3 O 0.08142(4) 0.00738(17) 0.74222(8)
O15_3 O 0.09613(4) 0.21119(18) 0.89189(9)
O16_3 O 0.14870(4) 0.10070(18) 0.76183(9)
C49_3 C 0.15653(6) 0.7127(3) 0.00885(12)
H37_3 H 0.1497 0.6494 0.0308
C29_3 C 0.06705(6) 0.9267(3) 0.70704(12)
C30_3 C 0.05143(6) 0.7308(3) 0.67036(12)
H17_3 H 0.0525 0.6445 0.6735
C31_3 C 0.06783(6) 0.8002(3) 0.71029(13)
H18_3 H 0.0794 0.7610 0.7394
C32_3 C 0.03384(6) 0.8991(3) 0.62481(13)
H19_3 H 0.0226 0.9354 0.5944
C33_3 C 0.04889(6) 0.9773(3) 0.66342(13)
C34_3 C 0.10135(6) 0.9573(2) 0.78628(12)
H21_3 H 0.0916 0.8977 0.8086
H22_3 H 0.1172 0.9153 0.7703
H32_3 H 0.1531 0.9926 0.8495
C50_3 C 0.14606(6) 0.8667(3) 0.93777(12)
C51_3 C 0.13705(6) 0.7731(3) 0.97039(12)
H38_3 H 0.1176 0.7496 0.9667
C52_3 C 0.17467(6) 0.8993(3) 0.94502(12)
H39_3 H 0.1818 0.9636 0.9241
C53_3 C 0.19254(6) 0.8340(3) 0.98430(12)
H40_3 H 0.2120 0.8574 0.9891
N3_3 N 0.03426(5) 0.7774(2) 0.62791(10)
O12_2 O 0.02789(4) 0.49932(15) 0.59254(8)
H43_2 H 0.0172 0.4600 0.6203
O14_3 O 0.12621(4) 0.92176(17) 0.90072(8)
H44_2 H 0.0277 0.4467 0.5598
C1_3 C 0.96536(6) 0.7542(3) 0.50762(12)
C2 C 0.93969(6) 0.8140(2) 0.47441(12)
C3 C 0.90251(6) 0.8183(3) 0.39718(13)
H1 H 0.8922 0.7792 0.3664
C4 C 0.89628(6) 0.9383(3) 0.41107(13)
C5 C 0.93237(6) 0.9343(3) 0.48902(13)
H2_3 H 0.9424 0.9730 0.5203
C6 C 0.91025(6) 0.9968(3) 0.45717(13)
C7 C 0.92442(6) 0.7559(3) 0.42977(12)
H4 H 0.9287 0.6739 0.4212
H5 H 0.8415 0.9996 0.4492
C15_3 C 0.76232(6) 0.7626(3) 0.62012(12)
C16_3 C 0.78956(6) 0.7105(3) 0.65004(12)
C17_3 C 0.80483(6) 0.7764(3) 0.69302(13)
H9_3 H 0.7984 0.8549 0.7027
C18_3 C 0.79952(6) 0.5978(3) 0.63581(14)
H10_3 H 0.7894 0.5533 0.6064
C19_3 C 0.83914(6) 0.6116(3) 0.70702(14)
C20_3 C 0.82972(7) 0.7270(3) 0.72212(14)
H11_3 H 0.8399 0.7715 0.7514
C21_3 C 0.82485(7) 0.5460(3) 0.66435(14)
H12_2 H 0.8316 0.4684 0.6541
C22_2 C 0.93684(6) 0.4729(3) 0.72180(12)
H13_2 H 0.9511 0.4225 0.7403
C23_3 C 0.94286(6) 0.5390(3) 0.67419(13)
C24_3 C 0.89375(6) 0.6148(3) 0.66580(13)
H14_3 H 0.8790 0.6606 0.6459
C25_3 C 0.88858(6) 0.5525(3) 0.71384(13)
C26_3 C 0.97223(6) 0.5367(3) 0.65247(13)
C27_2 C 0.91002(6) 0.4803(3) 0.74241(13)
H15_2 H 0.9065 0.4373 0.7751
C28_3 C 0.92094(6) 0.6100(3) 0.64666(13)
H16_3 H 0.9245 0.6553 0.6147
O1_3 O 0.73662(4) 0.93002(17) 0.50953(8)
H41 H 0.7251 0.9970 0.4925
H42 H 0.7394 0.8682 0.4813
O2_3 O 0.74815(4) 0.70193(16) 0.58169(8)
O3_3 O 0.75372(4) 0.86954(18) 0.63415(8)
O4_3 O 0.97763(4) 0.62949(18) 0.62293(9)
O5_2 O 0.98889(4) 0.44845(18) 0.66421(9)
O6_3 O 0.98100(4) 0.81968(16) 0.54303(8)
O7 O 0.97132(4) 0.64124(17) 0.49970(8)
O10 O 0.87618(5) 0.99971(19) 0.37326(9)
O11_3 O 0.86324(4) 0.5602(2) 0.73925(9)
N7_2 N 0.69441(5) 0.7717(2) 0.64228(10)
C36_4 C 0.56505(6) 0.8460(3) 0.01022(13)
H24_4 H 0.5713 0.8949 0.0415
C49_4 C 0.65653(6) 0.2127(3) 0.00885(12)
H37_4 H 0.6497 0.1494 0.0308
C1_4 C 0.46536(6) 0.2542(3) 0.50762(12)
C2_2 C 0.43969(6) 0.3140(2) 0.47441(12)
C3_2 C 0.40251(6) 0.3183(3) 0.39718(13)
H1_2 H 0.3922 0.2792 0.3664
C4_2 C 0.39628(6) 0.4383(3) 0.41107(13)
C5_2 C 0.43237(6) 0.4343(3) 0.48902(13)
H2_4 H 0.4424 0.4730 0.5203
C6_2 C 0.41025(6) 0.4968(3) 0.45717(13)
H3_3 H 0.4050 0.5770 0.4670
C7_2 C 0.42442(6) 0.2559(3) 0.42977(12)
H4_2 H 0.4287 0.1739 0.4212
C8_3 C 0.32867(6) 0.7916(3) 0.43031(13)
C9_3 C 0.36151(6) 0.6004(3) 0.39500(14)
C10_3 C 0.34323(7) 0.5794(3) 0.43470(15)
H5_2 H 0.3415 0.4996 0.4492
C11_3 C 0.36390(6) 0.7131(3) 0.37166(14)
H6_3 H 0.3765 0.7265 0.3442
C12_3 C 0.34701(6) 0.8098(3) 0.38961(14)
H7_3 H 0.3483 0.8884 0.3735
C13_3 C 0.32726(7) 0.6749(3) 0.45368(15)
H8_3 H 0.3154 0.6609 0.4824
C14_3 C 0.31027(7) 0.8966(3) 0.44887(14)
C15_4 C 0.26232(6) 0.2626(3) 0.62012(12)
C16_4 C 0.28956(6) 0.2105(3) 0.65004(12)
C17_4 C 0.30483(6) 0.2764(3) 0.69302(13)
H9_4 H 0.2984 0.3549 0.7027
C18_4 C 0.29952(6) 0.0978(3) 0.63581(14)
H10_4 H 0.2894 0.0533 0.6064
C19_4 C 0.33914(6) 0.1116(3) 0.70702(14)
C20_4 C 0.32972(7) 0.2270(3) 0.72212(14)
H11_4 H 0.3399 0.2715 0.7514
C21_4 C 0.32485(7) 0.0460(3) 0.66435(14)
C23_4 C 0.44286(6) 0.0390(3) 0.67419(13)
C24_4 C 0.39375(6) 0.1148(3) 0.66580(13)
H14_4 H 0.3790 0.1606 0.6459
C25_4 C 0.38858(6) 0.0525(3) 0.71384(13)
C26_4 C 0.47223(6) 0.0367(3) 0.65247(13)
C28_4 C 0.42094(6) 0.1100(3) 0.64666(13)
H16_4 H 0.4245 0.1553 0.6147
C29_4 C 0.56705(6) 0.4267(3) 0.70704(12)
C30_4 C 0.55143(6) 0.2308(3) 0.67036(12)
H17_4 H 0.5525 0.1445 0.6735
C31_4 C 0.56783(6) 0.3002(3) 0.71029(13)
H18_4 H 0.5794 0.2610 0.7394
C32_4 C 0.53384(6) 0.3991(3) 0.62481(13)
H19_4 H 0.5226 0.4354 0.5944
C33_4 C 0.54889(6) 0.4773(3) 0.66342(13)
H20_4 H 0.5468 0.5633 0.6601
C34_4 C 0.60135(6) 0.4573(2) 0.78628(12)
H21_4 H 0.5916 0.3977 0.8086
H22_4 H 0.6172 0.4153 0.7703
C35_4 C 0.52922(6) 0.7446(3) 0.95765(13)
H23_4 H 0.5098 0.7214 0.9514
C37_4 C 0.58454(7) 0.8177(3) 0.97365(13)
H25_4 H 0.6036 0.8460 0.9802
C38_4 C 0.54689(6) 0.7100(3) 0.91776(13)
H26_4 H 0.5398 0.6641 0.8861
C39_4 C 0.57587(6) 0.7458(3) 0.92607(13)
C40_4 C 0.58723(6) 0.6180(3) 0.84971(12)
H27_4 H 0.5773 0.5510 0.8673
H28_4 H 0.5737 0.6549 0.8205
C41_4 C 0.62668(6) 0.6631(3) 0.78835(12)
H29_4 H 0.6350 0.7294 0.8127
H30_4 H 0.6124 0.6989 0.7601
C42_4 C 0.61279(6) 0.5652(3) 0.82289(12)
C43_4 C 0.63647(6) 0.5210(3) 0.86780(11)
H31_4 H 0.6427 0.5901 0.8925
H32_4 H 0.6531 0.4926 0.8495
C44_4 C 0.67679(6) 0.8368(3) 0.67204(13)
H33_4 H 0.6750 0.9217 0.6646
C45_4 C 0.66326(6) 0.6627(3) 0.72508(13)
C46_4 C 0.69675(7) 0.6537(3) 0.65546(13)
H34_4 H 0.7094 0.6061 0.6362
C47_4 C 0.66083(6) 0.7880(3) 0.71318(13)
H35_4 H 0.6488 0.8387 0.7323
C48_4 C 0.68213(7) 0.5934(3) 0.69552(14)
H36_4 H 0.6848 0.5086 0.7025
C50_4 C 0.64606(6) 0.3667(3) 0.93777(12)
C51_4 C 0.63705(6) 0.2731(3) 0.97039(12)
H38_4 H 0.6176 0.2496 0.9667
C52_4 C 0.67467(6) 0.3993(3) 0.94502(12)
H39_4 H 0.6818 0.4636 0.9241
C53_4 C 0.69254(6) 0.3340(3) 0.98430(12)
H40_4 H 0.7120 0.3574 0.9891
N3_4 N 0.53426(5) 0.2774(2) 0.62791(10)
O1_4 O 0.23662(4) 0.43002(17) 0.50953(8)
H41_2 H 0.2251 0.4970 0.4925
H42_2 H 0.2394 0.3682 0.4813
O2_4 O 0.24815(4) 0.20193(16) 0.58169(8)
O3_4 O 0.25372(4) 0.36954(18) 0.63415(8)
O4_4 O 0.47763(4) 0.12949(18) 0.62293(9)
O6_4 O 0.48100(4) 0.31968(16) 0.54303(8)
O7_2 O 0.47132(4) 0.14124(17) 0.49970(8)
O9_3 O 0.29819(6) 0.8809(2) 0.49293(12)
O10_2 O 0.37618(5) 0.49971(19) 0.37326(9)
O11_4 O 0.36324(4) 0.0602(2) 0.73925(9)
O13_4 O 0.58142(4) 0.50738(17) 0.74222(8)
O14_4 O 0.62621(4) 0.42176(17) 0.90072(8)
O15_4 O 0.59613(4) 0.71119(18) 0.89189(9)
O16_4 O 0.64870(4) 0.60070(18) 0.76183(9)
C2_3 C 0.93969(6) 0.1860(2) 0.97441(12)
C3_3 C 0.90251(6) 0.1817(3) 0.89718(13)
H1_3 H 0.8922 0.2208 0.8664
C4_3 C 0.89628(6) 0.0617(3) 0.91107(13)
C5_3 C 0.93237(6) 0.0657(3) 0.98902(13)
C6_3 C 0.91025(6) 0.0032(3) 0.95717(13)
C7_3 C 0.92442(6) 0.2441(3) 0.92977(12)
H4_3 H 0.9287 0.3261 0.9212
H5_3 H 0.8415 0.0004 0.9492
H41_3 H 0.7251 0.0030 0.9925
H42_3 H 0.7394 0.1318 0.9813
O7_3 O 0.97132(4) 0.35876(17) 0.99970(8)
O10_3 O 0.87618(5) 0.00029(19) 0.87326(9)
O17_3 O 0.69182(4) 0.99173(17) 0.08136(8)
C2_4 C 0.56031(6) 0.3140(2) 0.02559(12)
C3_4 C 0.59749(6) 0.3183(3) 0.10282(13)
H1_4 H 0.6078 0.2792 0.1336
C4_4 C 0.60372(6) 0.4383(3) 0.08893(13)
C5_4 C 0.56763(6) 0.4343(3) 0.01098(13)
C6_4 C 0.58975(6) 0.4968(3) 0.04283(13)
H3_4 H 0.5950 0.5770 0.0330
C7_4 C 0.57558(6) 0.2559(3) 0.07023(12)
H4_4 H 0.5713 0.1739 0.0788
C8_4 C 0.67133(6) 0.7916(3) 0.06969(13)
C9_4 C 0.63849(6) 0.6004(3) 0.10500(14)
C10_4 C 0.65677(7) 0.5794(3) 0.06530(15)
H5_4 H 0.6585 0.4996 0.0508
C11_4 C 0.63610(6) 0.7131(3) 0.12834(14)
H6_4 H 0.6235 0.7265 0.1558
C12_4 C 0.65299(6) 0.8098(3) 0.11039(14)
H7_4 H 0.6517 0.8884 0.1265
C13_4 C 0.67274(7) 0.6749(3) 0.04632(15)
H8_4 H 0.6846 0.6609 0.0176
C14_4 C 0.68973(7) 0.8966(3) 0.05113(14)
H41_4 H 0.7749 0.4970 0.0075
H42_4 H 0.7606 0.3682 0.0187
O7_4 O 0.52868(4) 0.14124(17) 0.00030(8)
O9_4 O 0.70181(6) 0.8809(2) 0.00707(12)
O10_4 O 0.62382(5) 0.49971(19) 0.12674(9)
H3_5 H 0.9050 0.9230 0.9670
C8_5 C 0.82867(6) 0.7084(3) 0.93031(13)
C9_5 C 0.86151(6) 0.8996(3) 0.89500(14)
C10_5 C 0.84323(7) 0.9206(3) 0.93470(15)
C11_5 C 0.86390(6) 0.7869(3) 0.87166(14)
H6_5 H 0.8765 0.7735 0.8442
C12_5 C 0.84701(6) 0.6902(3) 0.88961(14)
H7_5 H 0.8483 0.6116 0.8735
C13_5 C 0.82726(7) 0.8251(3) 0.95368(15)
H8_5 H 0.8154 0.8391 0.9824
C14_5 C 0.81027(7) 0.6034(3) 0.94887(14)
O8_2 O 0.80818(4) 0.50827(17) 0.91864(8)
O9_5 O 0.79819(6) 0.6191(2) 0.99293(12)
Co5 Co 0.785098(8) 0.34836(4) 0.925314(17)
C1_5 C 0.03464(6) 0.2458(3) 0.49238(12)
C2_5 C 0.06031(6) 0.1860(2) 0.52559(12)
C3_5 C 0.09749(6) 0.1817(3) 0.60282(13)
H1_5 H 0.1078 0.2208 0.6336
C4_5 C 0.10372(6) 0.0617(3) 0.58893(13)
C5_5 C 0.06763(6) 0.0657(3) 0.51098(13)
H2_5 H 0.0576 0.0270 0.4797
C6_5 C 0.08975(6) 0.0032(3) 0.54283(13)
C7_5 C 0.07558(6) 0.2441(3) 0.57023(12)
H4_5 H 0.0713 0.3261 0.5788
H5_5 H 0.1585 0.0004 0.5508
C15_5 C 0.23768(6) 0.2374(3) 0.37988(12)
C16_5 C 0.21044(6) 0.2895(3) 0.34996(12)
C17_5 C 0.19517(6) 0.2236(3) 0.30698(13)
H9_5 H 0.2016 0.1451 0.2973
C18_5 C 0.20048(6) 0.4022(3) 0.36419(14)
H10_5 H 0.2106 0.4467 0.3936
C19_5 C 0.16086(6) 0.3884(3) 0.29298(14)
C20_5 C 0.17028(7) 0.2730(3) 0.27788(14)
H11_5 H 0.1601 0.2285 0.2486
C21_5 C 0.17515(7) 0.4540(3) 0.33565(14)
H12_3 H 0.1684 0.5316 0.3459
C22_3 C 0.06316(6) 0.5271(3) 0.27820(12)
H13_3 H 0.0489 0.5775 0.2597
C23_5 C 0.05714(6) 0.4610(3) 0.32581(13)
C24_5 C 0.10625(6) 0.3852(3) 0.33420(13)
H14_5 H 0.1210 0.3394 0.3541
C25_5 C 0.11142(6) 0.4475(3) 0.28616(13)
C26_5 C 0.02777(6) 0.4633(3) 0.34753(13)
C27_3 C 0.08998(6) 0.5197(3) 0.25759(13)
H15_3 H 0.0935 0.5627 0.2249
C28_5 C 0.07906(6) 0.3900(3) 0.35334(13)
H16_5 H 0.0755 0.3447 0.3853
Co2_2 Co 0.285098(8) 0.15164(4) 0.425314(17)
O1_5 O 0.26338(4) 0.06998(17) 0.49047(8)
H41_5 H 0.2749 0.0030 0.5075
H42_5 H 0.2606 0.1318 0.5187
O2_5 O 0.25185(4) 0.29807(16) 0.41831(8)
O3_5 O 0.24628(4) 0.13046(18) 0.36585(8)
O4_5 O 0.02237(4) 0.37051(18) 0.37707(9)
O5_3 O 0.01111(4) 0.55155(18) 0.33579(9)
O6_5 O 0.01900(4) 0.18032(16) 0.45697(8)
O7_5 O 0.02868(4) 0.35876(17) 0.50030(8)
O10_5 O 0.12382(5) 0.00029(19) 0.62674(9)
O11_5 O 0.13676(4) 0.4398(2) 0.26075(9)
N6_3 N 0.31526(5) 0.2406(2) 0.48395(10)
N7_3 N 0.30559(5) 0.2283(2) 0.35772(10)
C29_5 C 0.93295(6) 0.0733(3) 0.29296(12)
C30_5 C 0.94857(6) 0.2692(3) 0.32964(12)
H17_5 H 0.9475 0.3555 0.3265
C31_5 C 0.93217(6) 0.1998(3) 0.28971(13)
H18_5 H 0.9206 0.2390 0.2606
C32_5 C 0.96616(6) 0.1009(3) 0.37519(13)
H19_5 H 0.9774 0.0646 0.4056
C33_5 C 0.95111(6) 0.0227(3) 0.33658(13)
C34_5 C 0.89865(6) 0.0427(2) 0.21372(12)
H21_5 H 0.9084 0.1023 0.1914
H22_5 H 0.8828 0.0847 0.2297
H32_5 H 0.8469 0.0074 0.1505
C50_5 C 0.85394(6) 0.1333(3) 0.06223(12)
C51_5 C 0.86295(6) 0.2269(3) 0.02961(12)
H38_5 H 0.8824 0.2504 0.0333
C52_5 C 0.82533(6) 0.1007(3) 0.05498(12)
H39_5 H 0.8182 0.0364 0.0759
C53_5 C 0.80746(6) 0.1660(3) 0.01570(12)
H40_5 H 0.7880 0.1426 0.0109
Co1_3 Co 0.991460(8) 0.33105(4) 0.430893(17)
N3_5 N 0.96574(5) 0.2226(2) 0.37209(10)
O12_3 O 0.97211(4) 0.50068(15) 0.40746(8)
H43_3 H 0.9828 0.5400 0.3797
O14_5 O 0.87379(4) 0.07824(17) 0.09928(8)
H44_3 H 0.9723 0.5533 0.4402
N5_3 N 0.96267(5) 0.3085(2) 0.49525(10)
C49_5 C 0.84347(6) 0.2873(3) 0.99115(12)
H37_5 H 0.8503 0.3506 0.9692
N2_3 N 0.81526(5) 0.2594(2) 0.98395(10)
H20_5 H 0.9532 0.9367 0.3399
C35_5 C 0.97078(6) 0.7554(3) 0.04235(13)
H23_5 H 0.9902 0.7786 0.0486
C37_5 C 0.91546(7) 0.6823(3) 0.02635(13)
H25_5 H 0.8964 0.6540 0.0198
C38_5 C 0.95311(6) 0.7900(3) 0.08224(13)
H26_5 H 0.9602 0.8359 0.1139
C39_5 C 0.92413(6) 0.7542(3) 0.07393(13)
C40_5 C 0.91277(6) 0.8820(3) 0.15029(12)
H27_5 H 0.9227 0.9490 0.1327
H28_5 H 0.9263 0.8451 0.1795
C41_5 C 0.87332(6) 0.8369(3) 0.21165(12)
H29_5 H 0.8650 0.7706 0.1873
H30_5 H 0.8876 0.8011 0.2399
C42_5 C 0.88721(6) 0.9348(3) 0.17711(12)
C43_5 C 0.86353(6) 0.9790(3) 0.13220(11)
H31_5 H 0.8573 0.9099 0.1075
C44_5 C 0.82321(6) 0.6632(3) 0.32796(13)
H33_5 H 0.8250 0.5783 0.3354
C45_5 C 0.83674(6) 0.8373(3) 0.27492(13)
C46_5 C 0.80325(7) 0.8463(3) 0.34454(13)
H34_5 H 0.7906 0.8939 0.3638
C47_5 C 0.83917(6) 0.7120(3) 0.28682(13)
H35_5 H 0.8512 0.6613 0.2677
C48_5 C 0.81787(7) 0.9066(3) 0.30448(14)
H36_5 H 0.8152 0.9914 0.2975
N4_3 N 0.80559(5) 0.7283(2) 0.35772(10)
O13_5 O 0.91858(4) 0.99262(17) 0.25778(8)
O15_5 O 0.90387(4) 0.78881(18) 0.10811(9)
O16_5 O 0.85130(4) 0.89930(18) 0.23817(9)
Co4_2 Co 0.785098(8) 0.65164(4) 0.425314(17)
C36_5 C 0.93495(6) 0.6540(3) 0.98978(13)
H24_5 H 0.9287 0.6051 0.9585
N1_3 N 0.96267(5) 0.6915(2) 0.99525(10)
Co3_3 Co 0.991460(8) 0.66895(4) 0.930893(17)
Co5_2 Co 0.285098(8) 0.84836(4) 0.925314(17)
C1_6 C 0.53464(6) 0.7458(3) 0.49238(12)
C2_6 C 0.56031(6) 0.6860(2) 0.52559(12)
C3_6 C 0.59749(6) 0.6817(3) 0.60282(13)
H1_6 H 0.6078 0.7208 0.6336
C4_6 C 0.60372(6) 0.5617(3) 0.58893(13)
C5_6 C 0.56763(6) 0.5657(3) 0.51098(13)
H2_6 H 0.5576 0.5270 0.4797
C6_6 C 0.58975(6) 0.5032(3) 0.54283(13)
H3_6 H 0.5950 0.4230 0.5330
C7_6 C 0.57558(6) 0.7441(3) 0.57023(12)
H4_6 H 0.5713 0.8261 0.5788
C8_6 C 0.67133(6) 0.2084(3) 0.56969(13)
C9_6 C 0.63849(6) 0.3996(3) 0.60500(14)
C10_6 C 0.65677(7) 0.4206(3) 0.56530(15)
H5_6 H 0.6585 0.5004 0.5508
C11_6 C 0.63610(6) 0.2869(3) 0.62834(14)
H6_6 H 0.6235 0.2735 0.6558
C12_6 C 0.65299(6) 0.1902(3) 0.61039(14)
H7_6 H 0.6517 0.1116 0.6265
C13_6 C 0.67274(7) 0.3251(3) 0.54632(15)
H8_6 H 0.6846 0.3391 0.5176
C14_6 C 0.68973(7) 0.1034(3) 0.55113(14)
C15_6 C 0.73768(6) 0.7374(3) 0.37988(12)
C16_6 C 0.71044(6) 0.7895(3) 0.34996(12)
C17_6 C 0.69517(6) 0.7236(3) 0.30698(13)
H9_6 H 0.7016 0.6451 0.2973
C18_6 C 0.70048(6) 0.9022(3) 0.36419(14)
H10_6 H 0.7106 0.9467 0.3936
C19_6 C 0.66086(6) 0.8884(3) 0.29298(14)
C20_6 C 0.67028(7) 0.7730(3) 0.27788(14)
H11_6 H 0.6601 0.7285 0.2486
C21_6 C 0.67515(7) 0.9540(3) 0.33565(14)
C23_6 C 0.55714(6) 0.9610(3) 0.32581(13)
C24_6 C 0.60625(6) 0.8852(3) 0.33420(13)
H14_6 H 0.6210 0.8394 0.3541
C25_6 C 0.61142(6) 0.9475(3) 0.28616(13)
C26_6 C 0.52777(6) 0.9633(3) 0.34753(13)
C28_6 C 0.57906(6) 0.8900(3) 0.35334(13)
H16_6 H 0.5755 0.8447 0.3853
C29_6 C 0.43295(6) 0.5733(3) 0.29296(12)
C30_6 C 0.44857(6) 0.7692(3) 0.32964(12)
H17_6 H 0.4475 0.8555 0.3265
C31_6 C 0.43217(6) 0.6998(3) 0.28971(13)
H18_6 H 0.4206 0.7390 0.2606
C32_6 C 0.46616(6) 0.6009(3) 0.37519(13)
H19_6 H 0.4774 0.5646 0.4056
C33_6 C 0.45111(6) 0.5227(3) 0.33658(13)
H20_6 H 0.4532 0.4367 0.3399
C34_6 C 0.39865(6) 0.5427(2) 0.21372(12)
H21_6 H 0.4084 0.6023 0.1914
H22_6 H 0.3828 0.5847 0.2297
C35_6 C 0.47078(6) 0.2554(3) 0.04235(13)
H23_6 H 0.4902 0.2786 0.0486
C37_6 C 0.41546(7) 0.1823(3) 0.02635(13)
H25_6 H 0.3964 0.1540 0.0198
C38_6 C 0.45311(6) 0.2900(3) 0.08224(13)
H26_6 H 0.4602 0.3359 0.1139
C39_6 C 0.42413(6) 0.2542(3) 0.07393(13)
C40_6 C 0.41277(6) 0.3820(3) 0.15029(12)
H27_6 H 0.4227 0.4490 0.1327
H28_6 H 0.4263 0.3451 0.1795
C41_6 C 0.37332(6) 0.3369(3) 0.21165(12)
H29_6 H 0.3650 0.2706 0.1873
H30_6 H 0.3876 0.3011 0.2399
C42_6 C 0.38721(6) 0.4348(3) 0.17711(12)
C43_6 C 0.36353(6) 0.4790(3) 0.13220(11)
H31_6 H 0.3573 0.4099 0.1075
H32_6 H 0.3469 0.5074 0.1505
C44_6 C 0.32321(6) 0.1632(3) 0.32796(13)
H33_6 H 0.3250 0.0783 0.3354
C45_6 C 0.33674(6) 0.3373(3) 0.27492(13)
C46_6 C 0.30325(7) 0.3463(3) 0.34454(13)
H34_6 H 0.2906 0.3939 0.3638
C47_6 C 0.33917(6) 0.2120(3) 0.28682(13)
H35_6 H 0.3512 0.1613 0.2677
C48_6 C 0.31787(7) 0.4066(3) 0.30448(14)
H36_6 H 0.3152 0.4914 0.2975
C50_6 C 0.35394(6) 0.6333(3) 0.06223(12)
C51_6 C 0.36295(6) 0.7269(3) 0.02961(12)
H38_6 H 0.3824 0.7504 0.0333
C52_6 C 0.32533(6) 0.6007(3) 0.05498(12)
H39_6 H 0.3182 0.5364 0.0759
C53_6 C 0.30746(6) 0.6660(3) 0.01570(12)
H40_6 H 0.2880 0.6426 0.0109
Co1_4 Co 0.491460(8) 0.83105(4) 0.430893(17)
N3_6 N 0.46574(5) 0.7226(2) 0.37209(10)
O1_6 O 0.76338(4) 0.56998(17) 0.49047(8)
H41_6 H 0.7749 0.5030 0.5075
H42_6 H 0.7606 0.6318 0.5187
O2_6 O 0.75185(4) 0.79807(16) 0.41831(8)
O3_6 O 0.74628(4) 0.63046(18) 0.36585(8)
O4_6 O 0.52237(4) 0.87051(18) 0.37707(9)
O6_6 O 0.51900(4) 0.68032(16) 0.45697(8)
O7_6 O 0.52868(4) 0.85876(17) 0.50030(8)
O8_3 O 0.69182(4) 0.00827(17) 0.58136(8)
O9_6 O 0.70181(6) 0.1191(2) 0.50707(12)
O10_6 O 0.62382(5) 0.50029(19) 0.62674(9)
O11_6 O 0.63676(4) 0.9398(2) 0.26075(9)
O13_6 O 0.41858(4) 0.49262(17) 0.25778(8)
O14_6 O 0.37379(4) 0.57824(17) 0.09928(8)
O15_6 O 0.40387(4) 0.28881(18) 0.10811(9)
O16_6 O 0.35130(4) 0.39930(18) 0.23817(9)
N5_4 N 0.46267(5) 0.8085(2) 0.49525(10)
N6_4 N 0.81526(5) 0.7406(2) 0.48395(10)
O17_4 O 0.80818(4) 0.49173(17) 0.41864(8)
C36_6 C 0.43495(6) 0.1540(3) 0.98978(13)
H24_6 H 0.4287 0.1051 0.9585
C49_6 C 0.34347(6) 0.7873(3) 0.99115(12)
H37_6 H 0.3503 0.8506 0.9692
N1_4 N 0.46267(5) 0.1915(2) 0.99525(10)
N2_4 N 0.31526(5) 0.7594(2) 0.98395(10)
Co3_4 Co 0.491460(8) 0.16895(4) 0.930893(17)
C1_7 C 0.03464(6) 0.7542(3) 0.99238(12)
H2_7 H 0.0576 0.9730 0.9797
C15_7 C 0.23768(6) 0.7626(3) 0.87988(12)
C16_7 C 0.21044(6) 0.7105(3) 0.84996(12)
C17_7 C 0.19517(6) 0.7764(3) 0.80698(13)
H9_7 H 0.2016 0.8549 0.7973
C18_7 C 0.20048(6) 0.5978(3) 0.86419(14)
H10_7 H 0.2106 0.5533 0.8936
C19_7 C 0.16086(6) 0.6116(3) 0.79298(14)
C20_7 C 0.17028(7) 0.7270(3) 0.77788(14)
H11_7 H 0.1601 0.7715 0.7486
C21_7 C 0.17515(7) 0.5460(3) 0.83565(14)
H12_4 H 0.1684 0.4684 0.8459
C22_4 C 0.06316(6) 0.4729(3) 0.77820(12)
H13_4 H 0.0489 0.4225 0.7597
C23_7 C 0.05714(6) 0.5390(3) 0.82581(13)
C24_7 C 0.10625(6) 0.6148(3) 0.83420(13)
H14_7 H 0.1210 0.6606 0.8541
C25_7 C 0.11142(6) 0.5525(3) 0.78616(13)
C26_7 C 0.02777(6) 0.5367(3) 0.84753(13)
C27_4 C 0.08998(6) 0.4803(3) 0.75759(13)
H15_4 H 0.0935 0.4373 0.7249
C28_7 C 0.07906(6) 0.6100(3) 0.85334(13)
H16_7 H 0.0755 0.6553 0.8853
O1_7 O 0.26338(4) 0.93002(17) 0.99047(8)
O2_7 O 0.25185(4) 0.70193(16) 0.91831(8)
O3_7 O 0.24628(4) 0.86954(18) 0.86585(8)
O4_7 O 0.02237(4) 0.62949(18) 0.87707(9)
O5_4 O 0.01111(4) 0.44845(18) 0.83579(9)
O6_7 O 0.01900(4) 0.81968(16) 0.95697(8)
O11_7 O 0.13676(4) 0.5602(2) 0.76075(9)
N7_4 N 0.30559(5) 0.7717(2) 0.85772(10)
H20_7 H 0.9532 0.0633 0.8399
C35_7 C 0.97078(6) 0.2446(3) 0.54235(13)
H23_7 H 0.9902 0.2214 0.5486
C36_7 C 0.93495(6) 0.3460(3) 0.48978(13)
H24_7 H 0.9287 0.3949 0.4585
C37_7 C 0.91546(7) 0.3177(3) 0.52635(13)
H25_7 H 0.8964 0.3460 0.5198
C38_7 C 0.95311(6) 0.2100(3) 0.58224(13)
H26_7 H 0.9602 0.1641 0.6139
C39_7 C 0.92413(6) 0.2458(3) 0.57393(13)
C40_7 C 0.91277(6) 0.1180(3) 0.65029(12)
H27_7 H 0.9227 0.0510 0.6327
H28_7 H 0.9263 0.1549 0.6795
C41_7 C 0.87332(6) 0.1631(3) 0.71165(12)
H29_7 H 0.8650 0.2294 0.6873
H30_7 H 0.8876 0.1989 0.7399
C42_7 C 0.88721(6) 0.0652(3) 0.67711(12)
C43_7 C 0.86353(6) 0.0210(3) 0.63220(11)
H31_7 H 0.8573 0.0901 0.6075
C44_7 C 0.82321(6) 0.3368(3) 0.82796(13)
H33_7 H 0.8250 0.4217 0.8354
C45_7 C 0.83674(6) 0.1627(3) 0.77492(13)
C46_7 C 0.80325(7) 0.1537(3) 0.84454(13)
H34_7 H 0.7906 0.1061 0.8638
C47_7 C 0.83917(6) 0.2880(3) 0.78682(13)
H35_7 H 0.8512 0.3387 0.7677
C48_7 C 0.81787(7) 0.0934(3) 0.80448(14)
H36_7 H 0.8152 0.0086 0.7975
N4_4 N 0.80559(5) 0.2717(2) 0.85772(10)
O13_7 O 0.91858(4) 0.00738(17) 0.75778(8)
O15_7 O 0.90387(4) 0.21119(18) 0.60811(9)
O16_7 O 0.85130(4) 0.10070(18) 0.73817(9)
C29_7 C 0.93295(6) 0.9267(3) 0.79296(12)
C30_7 C 0.94857(6) 0.7308(3) 0.82964(12)
H17_7 H 0.9475 0.6445 0.8265
C31_7 C 0.93217(6) 0.8002(3) 0.78971(13)
H18_7 H 0.9206 0.7610 0.7606
C32_7 C 0.96616(6) 0.8991(3) 0.87519(13)
H19_7 H 0.9774 0.9354 0.9056
C33_7 C 0.95111(6) 0.9773(3) 0.83658(13)
C34_7 C 0.89865(6) 0.9573(2) 0.71372(12)
H21_7 H 0.9084 0.8977 0.6914
H22_7 H 0.8828 0.9153 0.7297
H32_7 H 0.8469 0.9926 0.6505
C49_7 C 0.84347(6) 0.7127(3) 0.49115(12)
H37_7 H 0.8503 0.6494 0.4692
C50_7 C 0.85394(6) 0.8667(3) 0.56223(12)
C51_7 C 0.86295(6) 0.7731(3) 0.52961(12)
H38_7 H 0.8824 0.7496 0.5333
C52_7 C 0.82533(6) 0.8993(3) 0.55498(12)
H39_7 H 0.8182 0.9636 0.5759
C53_7 C 0.80746(6) 0.8340(3) 0.51570(12)
H40_7 H 0.7880 0.8574 0.5109
N3_7 N 0.96574(5) 0.7774(2) 0.87209(10)
O12_4 O 0.97211(4) 0.49932(15) 0.90746(8)
H43_4 H 0.9828 0.4600 0.8797
O14_7 O 0.87379(4) 0.92176(17) 0.59928(8)
H44_4 H 0.9723 0.4467 0.9402
H3_7 H 0.9050 0.0770 0.4670
C8_7 C 0.82867(6) 0.2916(3) 0.43031(13)
C9_7 C 0.86151(6) 0.1004(3) 0.39500(14)
C10_7 C 0.84323(7) 0.0794(3) 0.43470(15)
C11_7 C 0.86390(6) 0.2131(3) 0.37166(14)
H6_7 H 0.8765 0.2265 0.3442
C12_7 C 0.84701(6) 0.3098(3) 0.38961(14)
H7_7 H 0.8483 0.3884 0.3735
C13_7 C 0.82726(7) 0.1749(3) 0.45368(15)
H8_7 H 0.8154 0.1609 0.4824
C14_7 C 0.81027(7) 0.3966(3) 0.44887(14)
O9_7 O 0.79819(6) 0.3809(2) 0.49293(12)
C1_8 C 0.53464(6) 0.2542(3) 0.99238(12)
H2_8 H 0.5576 0.4730 0.9797
C15_8 C 0.73768(6) 0.2626(3) 0.87988(12)
C16_8 C 0.71044(6) 0.2105(3) 0.84996(12)
C17_8 C 0.69517(6) 0.2764(3) 0.80698(13)
H9_8 H 0.7016 0.3549 0.7973
C18_8 C 0.70048(6) 0.0978(3) 0.86419(14)
H10_8 H 0.7106 0.0533 0.8936
C19_8 C 0.66086(6) 0.1116(3) 0.79298(14)
C20_8 C 0.67028(7) 0.2270(3) 0.77788(14)
H11_8 H 0.6601 0.2715 0.7486
C21_8 C 0.67515(7) 0.0460(3) 0.83565(14)
C23_8 C 0.55714(6) 0.0390(3) 0.82581(13)
C24_8 C 0.60625(6) 0.1148(3) 0.83420(13)
H14_8 H 0.6210 0.1606 0.8541
C25_8 C 0.61142(6) 0.0525(3) 0.78616(13)
C26_8 C 0.52777(6) 0.0367(3) 0.84753(13)
C28_8 C 0.57906(6) 0.1100(3) 0.85334(13)
H16_8 H 0.5755 0.1553 0.8853
C29_8 C 0.43295(6) 0.4267(3) 0.79296(12)
C30_8 C 0.44857(6) 0.2308(3) 0.82964(12)
H17_8 H 0.4475 0.1445 0.8265
C31_8 C 0.43217(6) 0.3002(3) 0.78971(13)
H18_8 H 0.4206 0.2610 0.7606
C32_8 C 0.46616(6) 0.3991(3) 0.87519(13)
H19_8 H 0.4774 0.4354 0.9056
C33_8 C 0.45111(6) 0.4773(3) 0.83658(13)
H20_8 H 0.4532 0.5633 0.8399
C34_8 C 0.39865(6) 0.4573(2) 0.71372(12)
H21_8 H 0.4084 0.3977 0.6914
H22_8 H 0.3828 0.4153 0.7297
C35_8 C 0.47078(6) 0.7446(3) 0.54235(13)
H23_8 H 0.4902 0.7214 0.5486
C36_8 C 0.43495(6) 0.8460(3) 0.48978(13)
H24_8 H 0.4287 0.8949 0.4585
C37_8 C 0.41546(7) 0.8177(3) 0.52635(13)
H25_8 H 0.3964 0.8460 0.5198
C38_8 C 0.45311(6) 0.7100(3) 0.58224(13)
H26_8 H 0.4602 0.6641 0.6139
C39_8 C 0.42413(6) 0.7458(3) 0.57393(13)
C40_8 C 0.41277(6) 0.6180(3) 0.65029(12)
H27_8 H 0.4227 0.5510 0.6327
H28_8 H 0.4263 0.6549 0.6795
C41_8 C 0.37332(6) 0.6631(3) 0.71165(12)
H29_8 H 0.3650 0.7294 0.6873
H30_8 H 0.3876 0.6989 0.7399
C42_8 C 0.38721(6) 0.5652(3) 0.67711(12)
C43_8 C 0.36353(6) 0.5210(3) 0.63220(11)
H31_8 H 0.3573 0.5901 0.6075
H32_8 H 0.3469 0.4926 0.6505
C44_8 C 0.32321(6) 0.8368(3) 0.82796(13)
H33_8 H 0.3250 0.9217 0.8354
C45_8 C 0.33674(6) 0.6627(3) 0.77492(13)
C46_8 C 0.30325(7) 0.6537(3) 0.84454(13)
H34_8 H 0.2906 0.6061 0.8638
C47_8 C 0.33917(6) 0.7880(3) 0.78682(13)
H35_8 H 0.3512 0.8387 0.7677
C48_8 C 0.31787(7) 0.5934(3) 0.80448(14)
H36_8 H 0.3152 0.5086 0.7975
C49_8 C 0.34347(6) 0.2127(3) 0.49115(12)
H37_8 H 0.3503 0.1494 0.4692
C50_8 C 0.35394(6) 0.3667(3) 0.56223(12)
C51_8 C 0.36295(6) 0.2731(3) 0.52961(12)
H38_8 H 0.3824 0.2496 0.5333
C52_8 C 0.32533(6) 0.3993(3) 0.55498(12)
H39_8 H 0.3182 0.4636 0.5759
C53_8 C 0.30746(6) 0.3340(3) 0.51570(12)
H40_8 H 0.2880 0.3574 0.5109
N3_8 N 0.46574(5) 0.2774(2) 0.87209(10)
O1_8 O 0.76338(4) 0.43002(17) 0.99047(8)
O2_8 O 0.75185(4) 0.20193(16) 0.91831(8)
O3_8 O 0.74628(4) 0.36954(18) 0.86585(8)
O4_8 O 0.52237(4) 0.12949(18) 0.87707(9)
O6_8 O 0.51900(4) 0.31968(16) 0.95697(8)
O11_8 O 0.63676(4) 0.0602(2) 0.76075(9)
O13_8 O 0.41858(4) 0.50738(17) 0.75778(8)
O14_8 O 0.37379(4) 0.42176(17) 0.59928(8)
O15_8 O 0.40387(4) 0.71119(18) 0.60811(9)
O16_8 O 0.35130(4) 0.60070(18) 0.73817(9)
H12_5 H 0.3316 0.0316 0.1541
C22_5 C 0.43684(6) 0.0271(3) 0.22180(12)
H13_5 H 0.4511 0.0775 0.2403
C27_5 C 0.41002(6) 0.0197(3) 0.24241(13)
H15_5 H 0.4065 0.0627 0.2751
O5_5 O 0.48889(4) 0.05155(18) 0.16421(9)
O12_5 O 0.52789(4) 0.00068(15) 0.09254(8)
H43_5 H 0.5172 0.0400 0.1203
H44_5 H 0.5277 0.0533 0.0598
C2_7 C 0.43969(6) 0.6860(2) 0.97441(12)
C3_7 C 0.40251(6) 0.6817(3) 0.89718(13)
H1_7 H 0.3922 0.7208 0.8664
C4_7 C 0.39628(6) 0.5617(3) 0.91107(13)
C5_7 C 0.43237(6) 0.5657(3) 0.98902(13)
C6_7 C 0.41025(6) 0.5032(3) 0.95717(13)
H3_8 H 0.4050 0.4230 0.9670
C7_7 C 0.42442(6) 0.7441(3) 0.92977(12)
H4_7 H 0.4287 0.8261 0.9212
C8_8 C 0.32867(6) 0.2084(3) 0.93031(13)
C9_8 C 0.36151(6) 0.3996(3) 0.89500(14)
C10_8 C 0.34323(7) 0.4206(3) 0.93470(15)
H5_7 H 0.3415 0.5004 0.9492
C11_8 C 0.36390(6) 0.2869(3) 0.87166(14)
H6_8 H 0.3765 0.2735 0.8442
C12_8 C 0.34701(6) 0.1902(3) 0.88961(14)
H7_8 H 0.3483 0.1116 0.8735
C13_8 C 0.32726(7) 0.3251(3) 0.95368(15)
H8_8 H 0.3154 0.3391 0.9824
C14_8 C 0.31027(7) 0.1034(3) 0.94887(14)
H41_7 H 0.2251 0.5030 0.9925
H42_7 H 0.2394 0.6318 0.9813
O7_7 O 0.47132(4) 0.85876(17) 0.99970(8)
O8_4 O 0.30818(4) 0.00827(17) 0.91864(8)
O9_8 O 0.29819(6) 0.1191(2) 0.99293(12)
O10_7 O 0.37618(5) 0.50029(19) 0.87326(9)
H12_6 H 0.6684 0.0316 0.3459
C22_6 C 0.56316(6) 0.0271(3) 0.27820(12)
H13_6 H 0.5489 0.0775 0.2597
C27_6 C 0.58998(6) 0.0197(3) 0.25759(13)
H15_6 H 0.5935 0.0627 0.2249
O5_6 O 0.51111(4) 0.05155(18) 0.33579(9)
O12_6 O 0.47211(4) 0.00068(15) 0.40746(8)
H43_6 H 0.4828 0.0400 0.3797
H44_6 H 0.4723 0.0533 0.4402
C2_8 C 0.06031(6) 0.8140(2) 0.02559(12)
C3_8 C 0.09749(6) 0.8183(3) 0.10282(13)
H1_8 H 0.1078 0.7792 0.1336
C4_8 C 0.10372(6) 0.9383(3) 0.08893(13)
C5_8 C 0.06763(6) 0.9343(3) 0.01098(13)
C6_8 C 0.08975(6) 0.9968(3) 0.04283(13)
C7_8 C 0.07558(6) 0.7559(3) 0.07023(12)
H4_8 H 0.0713 0.6739 0.0788
H5_8 H 0.1585 0.9996 0.0508
H41_8 H 0.2749 0.9970 0.0075
H42_8 H 0.2606 0.8682 0.0187
O7_8 O 0.02868(4) 0.64124(17) 0.00030(8)
O10_8 O 0.12382(5) 0.99971(19) 0.12674(9)
H12_7 H 0.6684 0.9684 0.8459
C22_7 C 0.56316(6) 0.9729(3) 0.77820(12)
H13_7 H 0.5489 0.9225 0.7597
C27_7 C 0.58998(6) 0.9803(3) 0.75759(13)
H15_7 H 0.5935 0.9373 0.7249
O5_7 O 0.51111(4) 0.94845(18) 0.83579(9)
O12_7 O 0.47211(4) 0.99932(15) 0.90746(8)
H43_7 H 0.4828 0.9600 0.8797
H44_7 H 0.4723 0.9467 0.9402
H12_8 H 0.3316 0.9684 0.6541
C22_8 C 0.43684(6) 0.9729(3) 0.72180(12)
H13_8 H 0.4511 0.9225 0.7403
C27_8 C 0.41002(6) 0.9803(3) 0.74241(13)
H15_8 H 0.4065 0.9373 0.7751
O5_8 O 0.48889(4) 0.94845(18) 0.66421(9)
O12_8 O 0.52789(4) 0.99932(15) 0.59254(8)
H43_8 H 0.5172 0.9600 0.6203
H44_8 H 0.5277 0.9467 0.5598
loop_
_geom_bond_atom_site_label_1
_geom_bond_atom_site_label_2
_geom_bond_site_symmetry_1
_geom_bond_site_symmetry_2
C29 C31 1_555 1_555
C30 H17 1_555 1_555
C31 C30 1_555 1_555
H18 C31 1_555 1_555
C32 H19 1_555 1_555
C33 C29 1_555 1_555
C34 H21 1_555 1_555
H22 C34 1_555 1_555
C49 H37 1_555 1_555
C50 C51 1_555 1_555
C51 C49 1_555 1_555
H38 C51 1_555 1_555
C52 C50 1_555 1_555
H39 C52 1_555 1_555
C53 C52 1_555 1_555
H40 C53 1_555 1_555
Co1 N3 1_555 1_555
N2 C49 1_555 1_555
N3 C30 1_555 1_555
O12 Co1 1_555 1_555
H43 O12 1_555 1_555
H44 O12 1_555 1_555
Co6 N2 1_555 1_555
N5 Co1 1_555 1_555
C32 C33 1_555 1_555
C32 N3 1_555 1_555
C50 O14 1_555 1_555
C53 N2 1_555 1_555
C35 H23 1_555 1_555
C36 H24 1_555 1_555
C37 C36 1_555 1_555
H25 C37 1_555 1_555
C38 C35 1_555 1_555
H26 C38 1_555 1_555
C39 C37 1_555 1_555
C40 H27 1_555 1_555
H28 C40 1_555 1_555
C41 H29 1_555 1_555
H30 C41 1_555 1_555
C43 C42 1_555 1_555
H31 C43 1_555 1_555
C44 H33 1_555 1_555
C45 C47 1_555 1_555
C46 H34 1_555 1_555
C47 C44 1_555 1_555
H35 C47 1_555 1_555
C48 C45 1_555 1_555
H36 C48 1_555 1_555
N1 C35 1_555 1_555
N4 C44 1_555 1_555
O15 C39 1_555 1_555
O16 C41 1_555 1_555
Co3 N1 1_555 1_555
Co4 N4 1_555 1_555
C36 N1 1_555 1_555
C38 C39 1_555 1_555
C40 C42 1_555 1_555
C40 O15 1_555 1_555
C41 C42 1_555 1_555
C45 O16 1_555 1_555
C46 C48 1_555 1_555
C46 N4 1_555 1_555
C15 C16 1_555 1_555
C16 C17 1_555 1_555
C17 H9 1_555 1_555
C18 C16 1_555 1_555
H10 C18 1_555 1_555
C19 C20 1_555 1_555
C20 C17 1_555 1_555
H11 C20 1_555 1_555
C21 C18 1_555 1_555
H12 C21 1_555 1_555
C22 H13 1_555 1_555
C23 C22 1_555 1_555
C24 H14 1_555 1_555
C25 C24 1_555 1_555
C26 C23 1_555 1_555
C27 C22 1_555 1_555
H15 C27 1_555 1_555
C28 C23 1_555 1_555
H16 C28 1_555 1_555
Co2 O1 1_555 1_555
O2 C15 1_555 1_555
O3 C15 1_555 1_555
O4 C26 1_555 1_555
O5 C26 1_555 1_555
O6 C1 1_555 1_555
O11 C19 1_555 1_555
N6 Co2 1_555 1_555
N7 Co2 1_555 1_555
C19 C21 1_555 1_555
C24 C28 1_555 1_555
C25 C27 1_555 1_555
C25 O11 1_555 1_555
Co2 O2 1_555 1_555
Co2 O3 1_555 1_555
C8 C12 1_555 1_555
C9 C10 1_555 1_555
C11 C9 1_555 1_555
H6 C11 1_555 1_555
C12 C11 1_555 1_555
H7 C12 1_555 1_555
C13 C8 1_555 1_555
H8 C13 1_555 1_555
C14 C8 1_555 1_555
O8 C14 1_555 1_555
O9 C14 1_555 1_555
Co6 O8 1_555 1_555
C10 C13 1_555 1_555
C15_2 C16_2 1_555 1_555
C16_2 C17_2 1_555 1_555
C17_2 H9_2 1_555 1_555
C18_2 C16_2 1_555 1_555
H10_2 C18_2 1_555 1_555
C19_2 C20_2 1_555 1_555
C20_2 C17_2 1_555 1_555
H11_2 C20_2 1_555 1_555
C21_2 C18_2 1_555 1_555
C24_2 H14_2 1_555 1_555
C25_2 C24_2 1_555 1_555
C26_2 C23_2 1_555 1_555
C28_2 C23_2 1_555 1_555
H16_2 C28_2 1_555 1_555
C29_2 C31_2 1_555 1_555
C30_2 H17_2 1_555 1_555
C31_2 C30_2 1_555 1_555
H18_2 C31_2 1_555 1_555
C32_2 H19_2 1_555 1_555
C33_2 C29_2 1_555 1_555
H20_2 C33_2 1_555 1_555
C34_2 H21_2 1_555 1_555
H22_2 C34_2 1_555 1_555
C35_2 H23_2 1_555 1_555
C36_2 H24_2 1_555 1_555
C37_2 C36_2 1_555 1_555
H25_2 C37_2 1_555 1_555
C38_2 C35_2 1_555 1_555
H26_2 C38_2 1_555 1_555
C39_2 C37_2 1_555 1_555
C40_2 H27_2 1_555 1_555
H28_2 C40_2 1_555 1_555
C41_2 H29_2 1_555 1_555
H30_2 C41_2 1_555 1_555
C42_2 C34_2 1_555 1_555
C43_2 C42_2 1_555 1_555
H31_2 C43_2 1_555 1_555
H32_2 C43_2 1_555 1_555
C44_2 H33_2 1_555 1_555
C45_2 C47_2 1_555 1_555
C46_2 H34_2 1_555 1_555
C47_2 C44_2 1_555 1_555
H35_2 C47_2 1_555 1_555
C48_2 C45_2 1_555 1_555
H36_2 C48_2 1_555 1_555
C49_2 H37_2 1_555 1_555
C50_2 C51_2 1_555 1_555
C51_2 C49_2 1_555 1_555
H38_2 C51_2 1_555 1_555
C52_2 C50_2 1_555 1_555
H39_2 C52_2 1_555 1_555
C53_2 C52_2 1_555 1_555
H40_2 C53_2 1_555 1_555
Co1_2 N3_2 1_555 1_555
Co4 O1_2 1_555 1_555
N1_2 C35_2 1_555 1_555
N2_2 C49_2 1_555 1_555
N3_2 C30_2 1_555 1_555
N7 C44_2 1_555 1_555
O2_2 C15_2 1_555 1_555
O3_2 C15_2 1_555 1_555
O4_2 C26_2 1_555 1_555
O6_2 C1_2 1_555 1_555
O11_2 C19_2 1_555 1_555
O13_2 C29_2 1_555 1_555
O14_2 C43_2 1_555 1_555
O15_2 C39_2 1_555 1_555
O16_2 C41_2 1_555 1_555
Co3_2 N1_2 1_555 1_555
Co6_2 N2_2 1_555 1_555
N5_2 Co1_2 1_555 1_555
N6_2 Co4 1_555 1_555
O17_2 Co4 1_555 1_555
C19_2 C21_2 1_555 1_555
C24_2 C28_2 1_555 1_555
C25_2 O11_2 1_555 1_555
C32_2 C33_2 1_555 1_555
C32_2 N3_2 1_555 1_555
C34_2 O13_2 1_555 1_555
C36_2 N1_2 1_555 1_555
C38_2 C39_2 1_555 1_555
C40_2 C42_2 1_555 1_555
C40_2 O15_2 1_555 1_555
C41_2 C42_2 1_555 1_555
C45_2 O16_2 1_555 1_555
C46_2 C48_2 1_555 1_555
C46_2 N7 1_555 1_555
C50_2 O14_2 1_555 1_555
C53_2 N2_2 1_555 1_555
Co1_2 O4_2 1_555 1_555
Co1_2 O6_2 1_555 1_555
Co4 O2_2 1_555 1_555
Co4 O3_2 1_555 1_555
C8_2 C12_2 1_555 1_555
C9_2 C10_2 1_555 1_555
C11_2 C9_2 1_555 1_555
H6_2 C11_2 1_555 1_555
C12_2 C11_2 1_555 1_555
H7_2 C12_2 1_555 1_555
C13_2 C8_2 1_555 1_555
H8_2 C13_2 1_555 1_555
C14_2 C8_2 1_555 1_555
O17_2 C14_2 1_555 1_555
O9_2 C14_2 1_555 1_555
C10_2 C13_2 1_555 1_555
C36_3 H24_3 1_555 1_555
C36_3 N5 1_555 1_555
C35_3 H23_3 1_555 1_555
H25_3 C37_3 1_555 1_555
C38_3 C35_3 1_555 1_555
H26_3 C38_3 1_555 1_555
C39_3 C37_3 1_555 1_555
C40_3 H27_3 1_555 1_555
H28_3 C40_3 1_555 1_555
C41_3 H29_3 1_555 1_555
H30_3 C41_3 1_555 1_555
C43_3 C42_3 1_555 1_555
H31_3 C43_3 1_555 1_555
C44_3 H33_3 1_555 1_555
C45_3 C47_3 1_555 1_555
C46_3 H34_3 1_555 1_555
C47_3 C44_3 1_555 1_555
H35_3 C47_3 1_555 1_555
C48_3 C45_3 1_555 1_555
H36_3 C48_3 1_555 1_555
N4_2 C44_3 1_555 1_555
O15_3 C39_3 1_555 1_555
O16_3 C41_3 1_555 1_555
Co6 N4_2 1_555 1_555
C38_3 C39_3 1_555 1_555
C40_3 C42_3 1_555 1_555
C40_3 O15_3 1_555 1_555
C41_3 C42_3 1_555 1_555
C45_3 O16_3 1_555 1_555
C46_3 C48_3 1_555 1_555
C46_3 N4_2 1_555 1_555
C49_3 H37_3 1_555 1_555
N6_2 C49_3 1_555 1_555
C29_3 C31_3 1_555 1_555
C30_3 H17_3 1_555 1_555
C31_3 C30_3 1_555 1_555
H18_3 C31_3 1_555 1_555
C32_3 H19_3 1_555 1_555
C33_3 C29_3 1_555 1_555
C34_3 H21_3 1_555 1_555
H22_3 C34_3 1_555 1_555
C50_3 C51_3 1_555 1_555
H38_3 C51_3 1_555 1_555
C52_3 C50_3 1_555 1_555
H39_3 C52_3 1_555 1_555
C53_3 C52_3 1_555 1_555
H40_3 C53_3 1_555 1_555
Co3 N3_3 1_555 1_555
N3_3 C30_3 1_555 1_555
O12_2 Co3 1_555 1_555
H43_2 O12_2 1_555 1_555
H44_2 O12_2 1_555 1_555
C32_3 C33_3 1_555 1_555
C32_3 N3_3 1_555 1_555
C50_3 O14_3 1_555 1_555
C1_3 C2 1_555 1_555
C2 C5 1_555 1_555
C3 H1 1_555 1_555
C4 C3 1_555 1_555
C5 H2_3 1_555 1_555
C6 C4 1_555 1_555
C7 C2 1_555 1_555
H4 C7 1_555 1_555
C15_3 C16_3 1_555 1_555
C16_3 C17_3 1_555 1_555
C17_3 H9_3 1_555 1_555
C18_3 C16_3 1_555 1_555
H10_3 C18_3 1_555 1_555
C19_3 C20_3 1_555 1_555
C20_3 C17_3 1_555 1_555
H11_3 C20_3 1_555 1_555
C21_3 C18_3 1_555 1_555
H12_2 C21_3 1_555 1_555
C22_2 H13_2 1_555 1_555
C23_3 C22_2 1_555 1_555
C24_3 H14_3 1_555 1_555
C25_3 C24_3 1_555 1_555
C26_3 C23_3 1_555 1_555
C27_2 C22_2 1_555 1_555
H15_2 C27_2 1_555 1_555
C28_3 C23_3 1_555 1_555
H16_3 C28_3 1_555 1_555
Co6_2 O1_3 1_555 1_555
O1_3 H41 1_555 1_555
H42 O1_3 1_555 1_555
O2_3 C15_3 1_555 1_555
O3_3 C15_3 1_555 1_555
O4_3 C26_3 1_555 1_555
O5_2 C26_3 1_555 1_555
O6_3 C1_3 1_555 1_555
O7 C1_3 1_555 1_555
O10 C4 1_555 1_555
O11_3 C19_3 1_555 1_555
N7_2 Co6_2 1_555 1_555
C3 C7 1_555 1_555
C5 C6 1_555 1_555
C19_3 C21_3 1_555 1_555
C24_3 C28_3 1_555 1_555
C25_3 C27_2 1_555 1_555
C25_3 O11_3 1_555 1_555
Co6_2 O2_3 1_555 1_555
Co6_2 O3_3 1_555 1_555
C36_4 H24_4 1_555 1_555
C49_4 H37_4 1_555 1_555
N6 C49_4 1_555 1_555
C36_4 N5_2 1_555 1_555
C1_4 C2_2 1_555 1_555
C2_2 C5_2 1_555 1_555
C3_2 H1_2 1_555 1_555
C4_2 C3_2 1_555 1_555
C5_2 H2_4 1_555 1_555
C6_2 C4_2 1_555 1_555
H3_3 C6_2 1_555 1_555
C7_2 C2_2 1_555 1_555
H4_2 C7_2 1_555 1_555
C8_3 C12_3 1_555 1_555
C9_3 C10_3 1_555 1_555
C10_3 H5_2 1_555 1_555
C11_3 C9_3 1_555 1_555
H6_3 C11_3 1_555 1_555
C12_3 C11_3 1_555 1_555
H7_3 C12_3 1_555 1_555
C13_3 C8_3 1_555 1_555
H8_3 C13_3 1_555 1_555
C14_3 C8_3 1_555 1_555
C15_4 C16_4 1_555 1_555
C16_4 C17_4 1_555 1_555
C17_4 H9_4 1_555 1_555
C18_4 C16_4 1_555 1_555
H10_4 C18_4 1_555 1_555
C19_4 C20_4 1_555 1_555
C20_4 C17_4 1_555 1_555
H11_4 C20_4 1_555 1_555
C21_4 C18_4 1_555 1_555
C24_4 H14_4 1_555 1_555
C25_4 C24_4 1_555 1_555
C26_4 C23_4 1_555 1_555
C28_4 C23_4 1_555 1_555
H16_4 C28_4 1_555 1_555
C29_4 C31_4 1_555 1_555
C30_4 H17_4 1_555 1_555
C31_4 C30_4 1_555 1_555
H18_4 C31_4 1_555 1_555
C32_4 H19_4 1_555 1_555
C33_4 C29_4 1_555 1_555
H20_4 C33_4 1_555 1_555
C34_4 H21_4 1_555 1_555
H22_4 C34_4 1_555 1_555
C35_4 H23_4 1_555 1_555
H25_4 C37_4 1_555 1_555
C38_4 C35_4 1_555 1_555
H26_4 C38_4 1_555 1_555
C39_4 C37_4 1_555 1_555
C40_4 H27_4 1_555 1_555
H28_4 C40_4 1_555 1_555
C41_4 H29_4 1_555 1_555
H30_4 C41_4 1_555 1_555
C42_4 C34_4 1_555 1_555
C43_4 C42_4 1_555 1_555
H31_4 C43_4 1_555 1_555
H32_4 C43_4 1_555 1_555
C44_4 H33_4 1_555 1_555
C45_4 C47_4 1_555 1_555
C46_4 H34_4 1_555 1_555
C47_4 C44_4 1_555 1_555
H35_4 C47_4 1_555 1_555
C48_4 C45_4 1_555 1_555
H36_4 C48_4 1_555 1_555
C50_4 C51_4 1_555 1_555
H38_4 C51_4 1_555 1_555
C52_4 C50_4 1_555 1_555
H39_4 C52_4 1_555 1_555
C53_4 C52_4 1_555 1_555
H40_4 C53_4 1_555 1_555
Co3_2 N3_4 1_555 1_555
Co6 O1_4 1_555 1_555
N3_4 C30_4 1_555 1_555
N7_2 C44_4 1_555 1_555
O1_4 H41_2 1_555 1_555
H42_2 O1_4 1_555 1_555
O2_4 C15_4 1_555 1_555
O3_4 C15_4 1_555 1_555
O4_4 C26_4 1_555 1_555
O6_4 C1_4 1_555 1_555
O7_2 C1_4 1_555 1_555
O17 C14_3 1_555 1_555
O9_3 C14_3 1_555 1_555
O10_2 C4_2 1_555 1_555
O11_4 C19_4 1_555 1_555
O13_4 C29_4 1_555 1_555
O14_4 C43_4 1_555 1_555
O15_4 C39_4 1_555 1_555
O16_4 C41_4 1_555 1_555
C3_2 C7_2 1_555 1_555
C5_2 C6_2 1_555 1_555
C9_3 O10_2 1_555 1_555
C10_3 C13_3 1_555 1_555
C19_4 C21_4 1_555 1_555
C24_4 C28_4 1_555 1_555
C25_4 O11_4 1_555 1_555
C32_4 C33_4 1_555 1_555
C32_4 N3_4 1_555 1_555
C34_4 O13_4 1_555 1_555
C38_4 C39_4 1_555 1_555
C40_4 C42_4 1_555 1_555
C40_4 O15_4 1_555 1_555
C41_4 C42_4 1_555 1_555
C45_4 O16_4 1_555 1_555
C46_4 C48_4 1_555 1_555
C46_4 N7_2 1_555 1_555
C50_4 O14_4 1_555 1_555
Co3_2 O4_4 1_555 1_555
Co3_2 O6_4 1_555 1_555
Co3_2 O7_2 1_555 1_555
Co6 O2_4 1_555 1_555
Co6 O3_4 1_555 1_555
C2_3 C5_3 1_555 1_555
C3_3 H1_3 1_555 1_555
C4_3 C3_3 1_555 1_555
C6_3 C4_3 1_555 1_555
C7_3 C2_3 1_555 1_555
H4_3 C7_3 1_555 1_555
O10_3 C4_3 1_555 1_555
C3_3 C7_3 1_555 1_555
C5_3 C6_3 1_555 1_555
C2_4 C5_4 1_555 1_555
C3_4 H1_4 1_555 1_555
C4_4 C3_4 1_555 1_555
C6_4 C4_4 1_555 1_555
H3_4 C6_4 1_555 1_555
C7_4 C2_4 1_555 1_555
H4_4 C7_4 1_555 1_555
C8_4 C12_4 1_555 1_555
C9_4 C10_4 1_555 1_555
C10_4 H5_4 1_555 1_555
C11_4 C9_4 1_555 1_555
H6_4 C11_4 1_555 1_555
C12_4 C11_4 1_555 1_555
H7_4 C12_4 1_555 1_555
C13_4 C8_4 1_555 1_555
H8_4 C13_4 1_555 1_555
C14_4 C8_4 1_555 1_555
O17_3 C14_4 1_555 1_555
O9_4 C14_4 1_555 1_555
O10_4 C4_4 1_555 1_555
C3_4 C7_4 1_555 1_555
C5_4 C6_4 1_555 1_555
C9_4 O10_4 1_555 1_555
C10_4 C13_4 1_555 1_555
C8_5 C12_5 1_555 1_555
C9_5 C10_5 1_555 1_555
C11_5 C9_5 1_555 1_555
H6_5 C11_5 1_555 1_555
C12_5 C11_5 1_555 1_555
H7_5 C12_5 1_555 1_555
C13_5 C8_5 1_555 1_555
H8_5 C13_5 1_555 1_555
C14_5 C8_5 1_555 1_555
O8_2 C14_5 1_555 1_555
O9_5 C14_5 1_555 1_555
Co5 O8_2 1_555 1_555
C10_5 C13_5 1_555 1_555
C1_5 C2_5 1_555 1_555
C2_5 C5_5 1_555 1_555
C3_5 H1_5 1_555 1_555
C4_5 C3_5 1_555 1_555
C5_5 H2_5 1_555 1_555
C6_5 C4_5 1_555 1_555
C7_5 C2_5 1_555 1_555
H4_5 C7_5 1_555 1_555
C15_5 C16_5 1_555 1_555
C16_5 C17_5 1_555 1_555
C17_5 H9_5 1_555 1_555
C18_5 C16_5 1_555 1_555
H10_5 C18_5 1_555 1_555
C19_5 C20_5 1_555 1_555
C20_5 C17_5 1_555 1_555
H11_5 C20_5 1_555 1_555
C21_5 C18_5 1_555 1_555
H12_3 C21_5 1_555 1_555
C22_3 H13_3 1_555 1_555
C23_5 C22_3 1_555 1_555
C24_5 H14_5 1_555 1_555
C25_5 C24_5 1_555 1_555
C26_5 C23_5 1_555 1_555
C27_3 C22_3 1_555 1_555
H15_3 C27_3 1_555 1_555
C28_5 C23_5 1_555 1_555
H16_5 C28_5 1_555 1_555
Co2_2 O1_5 1_555 1_555
O1_5 H41_5 1_555 1_555
H42_5 O1_5 1_555 1_555
O2_5 C15_5 1_555 1_555
O3_5 C15_5 1_555 1_555
O4_5 C26_5 1_555 1_555
O5_3 C26_5 1_555 1_555
O6_5 C1_5 1_555 1_555
O7_5 C1_5 1_555 1_555
O10_5 C4_5 1_555 1_555
O11_5 C19_5 1_555 1_555
N6_3 Co2_2 1_555 1_555
N7_3 Co2_2 1_555 1_555
C3_5 C7_5 1_555 1_555
C5_5 C6_5 1_555 1_555
C19_5 C21_5 1_555 1_555
C24_5 C28_5 1_555 1_555
C25_5 C27_3 1_555 1_555
C25_5 O11_5 1_555 1_555
Co2_2 O2_5 1_555 1_555
Co2_2 O3_5 1_555 1_555
C29_5 C31_5 1_555 1_555
C30_5 H17_5 1_555 1_555
C31_5 C30_5 1_555 1_555
H18_5 C31_5 1_555 1_555
C32_5 H19_5 1_555 1_555
C33_5 C29_5 1_555 1_555
C34_5 H21_5 1_555 1_555
H22_5 C34_5 1_555 1_555
C50_5 C51_5 1_555 1_555
H38_5 C51_5 1_555 1_555
C52_5 C50_5 1_555 1_555
H39_5 C52_5 1_555 1_555
C53_5 C52_5 1_555 1_555
H40_5 C53_5 1_555 1_555
Co1_3 N3_5 1_555 1_555
N3_5 C30_5 1_555 1_555
O12_3 Co1_3 1_555 1_555
H43_3 O12_3 1_555 1_555
H44_3 O12_3 1_555 1_555
N5_3 Co1_3 1_555 1_555
C32_5 C33_5 1_555 1_555
C32_5 N3_5 1_555 1_555
C50_5 O14_5 1_555 1_555
C49_5 H37_5 1_555 1_555
N2_3 C49_5 1_555 1_555
Co5 N2_3 1_555 1_555
C35_5 H23_5 1_555 1_555
H25_5 C37_5 1_555 1_555
C38_5 C35_5 1_555 1_555
H26_5 C38_5 1_555 1_555
C39_5 C37_5 1_555 1_555
C40_5 H27_5 1_555 1_555
H28_5 C40_5 1_555 1_555
C41_5 H29_5 1_555 1_555
H30_5 C41_5 1_555 1_555
C43_5 C42_5 1_555 1_555
H31_5 C43_5 1_555 1_555
C44_5 H33_5 1_555 1_555
C45_5 C47_5 1_555 1_555
C46_5 H34_5 1_555 1_555
C47_5 C44_5 1_555 1_555
H35_5 C47_5 1_555 1_555
C48_5 C45_5 1_555 1_555
H36_5 C48_5 1_555 1_555
N4_3 C44_5 1_555 1_555
O15_5 C39_5 1_555 1_555
O16_5 C41_5 1_555 1_555
Co4_2 N4_3 1_555 1_555
C38_5 C39_5 1_555 1_555
C40_5 C42_5 1_555 1_555
C40_5 O15_5 1_555 1_555
C41_5 C42_5 1_555 1_555
C45_5 O16_5 1_555 1_555
C46_5 C48_5 1_555 1_555
C46_5 N4_3 1_555 1_555
C36_5 H24_5 1_555 1_555
Co3_3 N1_3 1_555 1_555
C36_5 N1_3 1_555 1_555
C1_6 C2_6 1_555 1_555
C2_6 C5_6 1_555 1_555
C3_6 H1_6 1_555 1_555
C4_6 C3_6 1_555 1_555
C5_6 H2_6 1_555 1_555
C6_6 C4_6 1_555 1_555
H3_6 C6_6 1_555 1_555
C7_6 C2_6 1_555 1_555
H4_6 C7_6 1_555 1_555
C8_6 C12_6 1_555 1_555
C9_6 C10_6 1_555 1_555
C10_6 H5_6 1_555 1_555
C11_6 C9_6 1_555 1_555
H6_6 C11_6 1_555 1_555
C12_6 C11_6 1_555 1_555
H7_6 C12_6 1_555 1_555
C13_6 C8_6 1_555 1_555
H8_6 C13_6 1_555 1_555
C14_6 C8_6 1_555 1_555
C15_6 C16_6 1_555 1_555
C16_6 C17_6 1_555 1_555
C17_6 H9_6 1_555 1_555
C18_6 C16_6 1_555 1_555
H10_6 C18_6 1_555 1_555
C19_6 C20_6 1_555 1_555
C20_6 C17_6 1_555 1_555
H11_6 C20_6 1_555 1_555
C21_6 C18_6 1_555 1_555
C24_6 H14_6 1_555 1_555
C25_6 C24_6 1_555 1_555
C26_6 C23_6 1_555 1_555
C28_6 C23_6 1_555 1_555
H16_6 C28_6 1_555 1_555
C29_6 C31_6 1_555 1_555
C30_6 H17_6 1_555 1_555
C31_6 C30_6 1_555 1_555
H18_6 C31_6 1_555 1_555
C32_6 H19_6 1_555 1_555
C33_6 C29_6 1_555 1_555
H20_6 C33_6 1_555 1_555
C34_6 H21_6 1_555 1_555
H22_6 C34_6 1_555 1_555
C35_6 H23_6 1_555 1_555
H25_6 C37_6 1_555 1_555
C38_6 C35_6 1_555 1_555
H26_6 C38_6 1_555 1_555
C39_6 C37_6 1_555 1_555
C40_6 H27_6 1_555 1_555
H28_6 C40_6 1_555 1_555
C41_6 H29_6 1_555 1_555
H30_6 C41_6 1_555 1_555
C42_6 C34_6 1_555 1_555
C43_6 C42_6 1_555 1_555
H31_6 C43_6 1_555 1_555
H32_6 C43_6 1_555 1_555
C44_6 H33_6 1_555 1_555
C45_6 C47_6 1_555 1_555
C46_6 H34_6 1_555 1_555
C47_6 C44_6 1_555 1_555
H35_6 C47_6 1_555 1_555
C48_6 C45_6 1_555 1_555
H36_6 C48_6 1_555 1_555
C50_6 C51_6 1_555 1_555
H38_6 C51_6 1_555 1_555
C52_6 C50_6 1_555 1_555
H39_6 C52_6 1_555 1_555
C53_6 C52_6 1_555 1_555
H40_6 C53_6 1_555 1_555
Co1_4 N3_6 1_555 1_555
Co4_2 O1_6 1_555 1_555
N3_6 C30_6 1_555 1_555
N7_3 C44_6 1_555 1_555
O1_6 H41_6 1_555 1_555
H42_6 O1_6 1_555 1_555
O2_6 C15_6 1_555 1_555
O3_6 C15_6 1_555 1_555
O4_6 C26_6 1_555 1_555
O6_6 C1_6 1_555 1_555
O7_6 C1_6 1_555 1_555
O8_3 C14_6 1_555 1_555
O9_6 C14_6 1_555 1_555
O10_6 C4_6 1_555 1_555
O11_6 C19_6 1_555 1_555
O13_6 C29_6 1_555 1_555
O14_6 C43_6 1_555 1_555
O15_6 C39_6 1_555 1_555
O16_6 C41_6 1_555 1_555
N5_4 Co1_4 1_555 1_555
N6_4 Co4_2 1_555 1_555
O17_4 Co4_2 1_555 1_555
C3_6 C7_6 1_555 1_555
C5_6 C6_6 1_555 1_555
C9_6 O10_6 1_555 1_555
C10_6 C13_6 1_555 1_555
C19_6 C21_6 1_555 1_555
C24_6 C28_6 1_555 1_555
C25_6 O11_6 1_555 1_555
C32_6 C33_6 1_555 1_555
C32_6 N3_6 1_555 1_555
C34_6 O13_6 1_555 1_555
C38_6 C39_6 1_555 1_555
C40_6 C42_6 1_555 1_555
C40_6 O15_6 1_555 1_555
C41_6 C42_6 1_555 1_555
C45_6 O16_6 1_555 1_555
C46_6 C48_6 1_555 1_555
C46_6 N7_3 1_555 1_555
C50_6 O14_6 1_555 1_555
Co1_4 O4_6 1_555 1_555
Co1_4 O6_6 1_555 1_555
Co1_4 O7_6 1_555 1_555
Co4_2 O2_6 1_555 1_555
Co4_2 O3_6 1_555 1_555
C36_6 H24_6 1_555 1_555
C49_6 H37_6 1_555 1_555
N2_4 C49_6 1_555 1_555
Co3_4 N1_4 1_555 1_555
Co5_2 N2_4 1_555 1_555
C36_6 N1_4 1_555 1_555
C15_7 C16_7 1_555 1_555
C16_7 C17_7 1_555 1_555
C17_7 H9_7 1_555 1_555
C18_7 C16_7 1_555 1_555
H10_7 C18_7 1_555 1_555
C19_7 C20_7 1_555 1_555
C20_7 C17_7 1_555 1_555
H11_7 C20_7 1_555 1_555
C21_7 C18_7 1_555 1_555
H12_4 C21_7 1_555 1_555
C22_4 H13_4 1_555 1_555
C23_7 C22_4 1_555 1_555
C24_7 H14_7 1_555 1_555
C25_7 C24_7 1_555 1_555
C26_7 C23_7 1_555 1_555
C27_4 C22_4 1_555 1_555
H15_4 C27_4 1_555 1_555
C28_7 C23_7 1_555 1_555
H16_7 C28_7 1_555 1_555
Co5_2 O1_7 1_555 1_555
O2_7 C15_7 1_555 1_555
O3_7 C15_7 1_555 1_555
O4_7 C26_7 1_555 1_555
O5_4 C26_7 1_555 1_555
O6_7 C1_7 1_555 1_555
O11_7 C19_7 1_555 1_555
N7_4 Co5_2 1_555 1_555
C19_7 C21_7 1_555 1_555
C24_7 C28_7 1_555 1_555
C25_7 C27_4 1_555 1_555
C25_7 O11_7 1_555 1_555
Co5_2 O2_7 1_555 1_555
Co5_2 O3_7 1_555 1_555
C35_7 H23_7 1_555 1_555
C36_7 H24_7 1_555 1_555
C37_7 C36_7 1_555 1_555
H25_7 C37_7 1_555 1_555
C38_7 C35_7 1_555 1_555
H26_7 C38_7 1_555 1_555
C39_7 C37_7 1_555 1_555
C40_7 H27_7 1_555 1_555
H28_7 C40_7 1_555 1_555
C41_7 H29_7 1_555 1_555
H30_7 C41_7 1_555 1_555
C43_7 C42_7 1_555 1_555
H31_7 C43_7 1_555 1_555
C44_7 H33_7 1_555 1_555
C45_7 C47_7 1_555 1_555
C46_7 H34_7 1_555 1_555
C47_7 C44_7 1_555 1_555
H35_7 C47_7 1_555 1_555
C48_7 C45_7 1_555 1_555
H36_7 C48_7 1_555 1_555
N5_3 C35_7 1_555 1_555
N4_4 C44_7 1_555 1_555
O15_7 C39_7 1_555 1_555
O16_7 C41_7 1_555 1_555
Co5 N4_4 1_555 1_555
C36_7 N5_3 1_555 1_555
C38_7 C39_7 1_555 1_555
C40_7 C42_7 1_555 1_555
C40_7 O15_7 1_555 1_555
C41_7 C42_7 1_555 1_555
C45_7 O16_7 1_555 1_555
C46_7 C48_7 1_555 1_555
C46_7 N4_4 1_555 1_555
C29_7 C31_7 1_555 1_555
C30_7 H17_7 1_555 1_555
C31_7 C30_7 1_555 1_555
H18_7 C31_7 1_555 1_555
C32_7 H19_7 1_555 1_555
C33_7 C29_7 1_555 1_555
C34_7 H21_7 1_555 1_555
H22_7 C34_7 1_555 1_555
C49_7 H37_7 1_555 1_555
C50_7 C51_7 1_555 1_555
C51_7 C49_7 1_555 1_555
H38_7 C51_7 1_555 1_555
C52_7 C50_7 1_555 1_555
H39_7 C52_7 1_555 1_555
C53_7 C52_7 1_555 1_555
H40_7 C53_7 1_555 1_555
Co3_3 N3_7 1_555 1_555
N6_4 C49_7 1_555 1_555
N3_7 C30_7 1_555 1_555
O12_4 Co3_3 1_555 1_555
H43_4 O12_4 1_555 1_555
H44_4 O12_4 1_555 1_555
C32_7 C33_7 1_555 1_555
C32_7 N3_7 1_555 1_555
C50_7 O14_7 1_555 1_555
C53_7 N6_4 1_555 1_555
C8_7 C12_7 1_555 1_555
C9_7 C10_7 1_555 1_555
C11_7 C9_7 1_555 1_555
H6_7 C11_7 1_555 1_555
C12_7 C11_7 1_555 1_555
H7_7 C12_7 1_555 1_555
C13_7 C8_7 1_555 1_555
H8_7 C13_7 1_555 1_555
C14_7 C8_7 1_555 1_555
O17_4 C14_7 1_555 1_555
O9_7 C14_7 1_555 1_555
C10_7 C13_7 1_555 1_555
C15_8 C16_8 1_555 1_555
C16_8 C17_8 1_555 1_555
C17_8 H9_8 1_555 1_555
C18_8 C16_8 1_555 1_555
H10_8 C18_8 1_555 1_555
C19_8 C20_8 1_555 1_555
C20_8 C17_8 1_555 1_555
H11_8 C20_8 1_555 1_555
C21_8 C18_8 1_555 1_555
C24_8 H14_8 1_555 1_555
C25_8 C24_8 1_555 1_555
C26_8 C23_8 1_555 1_555
C28_8 C23_8 1_555 1_555
H16_8 C28_8 1_555 1_555
C29_8 C31_8 1_555 1_555
C30_8 H17_8 1_555 1_555
C31_8 C30_8 1_555 1_555
H18_8 C31_8 1_555 1_555
C32_8 H19_8 1_555 1_555
C33_8 C29_8 1_555 1_555
H20_8 C33_8 1_555 1_555
C34_8 H21_8 1_555 1_555
H22_8 C34_8 1_555 1_555
C35_8 H23_8 1_555 1_555
C36_8 H24_8 1_555 1_555
C37_8 C36_8 1_555 1_555
H25_8 C37_8 1_555 1_555
C38_8 C35_8 1_555 1_555
H26_8 C38_8 1_555 1_555
C39_8 C37_8 1_555 1_555
C40_8 H27_8 1_555 1_555
H28_8 C40_8 1_555 1_555
C41_8 H29_8 1_555 1_555
H30_8 C41_8 1_555 1_555
C42_8 C34_8 1_555 1_555
C43_8 C42_8 1_555 1_555
H31_8 C43_8 1_555 1_555
H32_8 C43_8 1_555 1_555
C44_8 H33_8 1_555 1_555
C45_8 C47_8 1_555 1_555
C46_8 H34_8 1_555 1_555
C47_8 C44_8 1_555 1_555
H35_8 C47_8 1_555 1_555
C48_8 C45_8 1_555 1_555
H36_8 C48_8 1_555 1_555
C49_8 H37_8 1_555 1_555
C50_8 C51_8 1_555 1_555
C51_8 C49_8 1_555 1_555
H38_8 C51_8 1_555 1_555
C52_8 C50_8 1_555 1_555
H39_8 C52_8 1_555 1_555
C53_8 C52_8 1_555 1_555
H40_8 C53_8 1_555 1_555
Co3_4 N3_8 1_555 1_555
Co5 O1_8 1_555 1_555
N5_4 C35_8 1_555 1_555
N6_3 C49_8 1_555 1_555
N3_8 C30_8 1_555 1_555
N7_4 C44_8 1_555 1_555
O2_8 C15_8 1_555 1_555
O3_8 C15_8 1_555 1_555
O4_8 C26_8 1_555 1_555
O6_8 C1_8 1_555 1_555
O11_8 C19_8 1_555 1_555
O13_8 C29_8 1_555 1_555
O14_8 C43_8 1_555 1_555
O15_8 C39_8 1_555 1_555
O16_8 C41_8 1_555 1_555
C19_8 C21_8 1_555 1_555
C24_8 C28_8 1_555 1_555
C25_8 O11_8 1_555 1_555
C32_8 C33_8 1_555 1_555
C32_8 N3_8 1_555 1_555
C34_8 O13_8 1_555 1_555
C36_8 N5_4 1_555 1_555
C38_8 C39_8 1_555 1_555
C40_8 C42_8 1_555 1_555
C40_8 O15_8 1_555 1_555
C41_8 C42_8 1_555 1_555
C45_8 O16_8 1_555 1_555
C46_8 C48_8 1_555 1_555
C46_8 N7_4 1_555 1_555
C50_8 O14_8 1_555 1_555
C53_8 N6_3 1_555 1_555
Co3_4 O4_8 1_555 1_555
Co3_4 O6_8 1_555 1_555
Co5 O2_8 1_555 1_555
Co5 O3_8 1_555 1_555
C22_5 H13_5 1_555 1_555
C27_5 C22_5 1_555 1_555
H15_5 C27_5 1_555 1_555
H43_5 O12_5 1_555 1_555
H44_5 O12_5 1_555 1_555
C2_7 C5_7 1_555 1_555
C3_7 H1_7 1_555 1_555
C4_7 C3_7 1_555 1_555
C6_7 C4_7 1_555 1_555
H3_8 C6_7 1_555 1_555
C7_7 C2_7 1_555 1_555
H4_7 C7_7 1_555 1_555
C8_8 C12_8 1_555 1_555
C9_8 C10_8 1_555 1_555
C10_8 H5_7 1_555 1_555
C11_8 C9_8 1_555 1_555
H6_8 C11_8 1_555 1_555
C12_8 C11_8 1_555 1_555
H7_8 C12_8 1_555 1_555
C13_8 C8_8 1_555 1_555
H8_8 C13_8 1_555 1_555
C14_8 C8_8 1_555 1_555
O8_4 C14_8 1_555 1_555
O9_8 C14_8 1_555 1_555
O10_7 C4_7 1_555 1_555
C3_7 C7_7 1_555 1_555
C5_7 C6_7 1_555 1_555
C9_8 O10_7 1_555 1_555
C10_8 C13_8 1_555 1_555
C22_6 H13_6 1_555 1_555
C27_6 C22_6 1_555 1_555
H15_6 C27_6 1_555 1_555
H43_6 O12_6 1_555 1_555
H44_6 O12_6 1_555 1_555
C2_8 C5_8 1_555 1_555
C3_8 H1_8 1_555 1_555
C4_8 C3_8 1_555 1_555
C6_8 C4_8 1_555 1_555
C7_8 C2_8 1_555 1_555
H4_8 C7_8 1_555 1_555
O10_8 C4_8 1_555 1_555
C3_8 C7_8 1_555 1_555
C5_8 C6_8 1_555 1_555
C22_7 H13_7 1_555 1_555
C27_7 C22_7 1_555 1_555
H15_7 C27_7 1_555 1_555
H43_7 O12_7 1_555 1_555
H44_7 O12_7 1_555 1_555
C22_8 H13_8 1_555 1_555
C27_8 C22_8 1_555 1_555
H15_8 C27_8 1_555 1_555
H43_8 O12_8 1_555 1_555
H44_8 O12_8 1_555 1_555

#END
