
###############################################################################
#
# This file contains modified crystal structure data generated from the
# MOF subset of the Cambridge Structural Database (CSD) v543 
# hosted by the Cambridge Crystallographic Data Centre (CCDC).
#
# This work is licensed under the Creative Commons
# Attribution-NonCommercial-ShareAlike 4.0 International License.
# To view a copy of this license, visit
# http://creativecommons.org/licenses/by-nc-sa/4.0/
# or send a letter to
# Creative Commons, PO Box 1866, Mountain View, CA 94042, USA.
#
# CIF created using the CSD Python API on 29 September 2022
# The structure has been converted into the P1 space group
# The structure has a 3D framework
# The original CSD entry KUMBOL is in the triclinic crystal system
# The framework has been calculated to contain at least 10.0% void space
# The void calculation uses a probe of radius 1.32A, grid spacing 0.4
#
###############################################################################

data_KUMBOL
_chemical_formula_moiety         '(C96 H56 Gd4 N8 O24)n'
_symmetry_cell_setting           triclinic
_symmetry_space_group_name_H-M   'P 1'
_symmetry_Int_Tables_number      1
_space_group_name_Hall           'P 1'
loop_
_symmetry_equiv_pos_site_id
_symmetry_equiv_pos_as_xyz
1 x,y,z
_cell_length_a                   12.6176(19)
_cell_length_b                   14.198(2)
_cell_length_c                   14.896(2)
_cell_angle_alpha                69.221(5)
_cell_angle_beta                 67.598(5)
_cell_angle_gamma                78.395(7)
_cell_volume                     2299.95
loop_
_atom_site_label
_atom_site_type_symbol
_atom_site_fract_x
_atom_site_fract_y
_atom_site_fract_z
H7 H 0.3306 0.2803 0.0475
H12 H 0.2033 0.4218 0.0524
Gd8 Gd 0.55116(3) 0.05390(2) 0.09336(2)
Gd1 Gd 0.06449(3) 0.51862(2) 0.59596(2)
O1 O 0.0554(5) 0.4913(4) 0.7770(4)
O9 O 0.4631(5) 0.1444(4) 0.9747(4)
N1 N 0.2354(6) 0.6388(5) 0.4820(5)
O11 O 0.2125(5) 0.4401(5) 0.6703(4)
N2 N 0.0545(5) 0.6850(4) 0.6358(5)
O12 O 0.3996(5) 0.1240(4) 0.8645(4)
C6 C 0.4023(6) 0.1738(5) 0.9180(5)
C8 C 0.2825(6) 0.3176(5) 0.8378(5)
H2 H 0.3048 0.2924 0.7830
C9 C 0.3263(6) 0.2701(5) 0.9170(5)
H3 H 0.0438 0.2092 0.5293
C11 C 0.1424(7) 0.7466(5) 0.5867(6)
C12 C 0.2345(7) 0.7240(6) 0.5031(6)
C14 C 0.1550(7) 0.4478(5) 0.7572(6)
C17 C 0.2060(6) 0.4019(5) 0.8404(5)
C20 C 0.2983(7) 0.3103(6) 0.9963(6)
C23 C 0.1746(7) 0.4405(6) 0.9218(6)
H8 H 0.1218 0.4964 0.9246
C25 C 0.3218(8) 0.7922(6) 0.4452(6)
C28 C 0.3189(7) 0.6219(7) 0.4029(6)
H11 H 0.3180 0.5647 0.3866
C29 C 0.2225(8) 0.3950(7) 0.9991(6)
C31 C 0.1418(9) 0.8324(6) 0.6141(7)
C35 C 0.3169(9) 0.8791(7) 0.4745(8)
H15 H 0.3737 0.9243 0.4358
C37 C 0.4108(8) 0.7696(7) 0.3614(7)
H17 H 0.4693 0.8127 0.3207
C38 C 0.4096(8) 0.6842(8) 0.3410(8)
H18 H 0.4679 0.6671 0.2869
C39 C 0.2345(10) 0.8972(7) 0.5546(8)
H19 H 0.2363 0.9528 0.5729
C45 C 0.0511(10) 0.8486(7) 0.6981(8)
H25 H 0.0488 0.9035 0.7191
O14 O 0.0302(4) 0.6045(4) 0.4406(4)
O15 O 0.1914(5) 0.4375(4) 0.4808(4)
Gd6 Gd 0.44884(3) 0.94610(2) 0.90664(2)
O2 O 0.6956(4) 0.0469(4) 0.9354(4)
O3 O 0.6305(5) 0.0116(4) 0.8320(4)
O4 O 0.9698(4) 0.3955(4) 0.5594(4)
O10 O 0.9937(6) 0.3455(4) 0.7090(4)
C1 C 0.8406(6) 0.1816(5) 0.7496(5)
H1 H 0.8088 0.2104 0.8022
C2 C 0.7008(6) 0.0471(5) 0.8488(5)
C3 C 0.8000(6) 0.0933(5) 0.7586(5)
C4 C 0.9657(5) 0.3278(5) 0.6449(5)
C5 C 0.9292(6) 0.2269(5) 0.6615(5)
C10 C 0.9836(6) 0.1799(5) 0.5870(5)
C13 C 0.8522(6) 0.0485(5) 0.6817(6)
C16 C 0.9480(7) 0.0884(6) 0.5990(6)
H6 H 0.9880 0.0538 0.5519
C30 C 0.9679(8) 0.7049(6) 0.7144(6)
H13 H 0.9065 0.6642 0.7471
C40 C 0.2141(8) 0.0642(7) 0.8224(7)
H20 H 0.2627 0.1165 0.7885
C44 C 0.9658(9) 0.7844(7) 0.7495(8)
H24 H 0.9068 0.7934 0.8074
C46 C 0.0303(9) 0.0089(9) 0.8660(9)
C47 C 0.1051(10) 0.0814(8) 0.8166(8)
H27 H 0.0828 0.1442 0.7779
Gd5 Gd 0.93551(3) 0.48138(2) 0.40404(2)
O16 O 0.8635(4) 0.5817(4) 0.6376(4)
C33 C 0.1472(8) 0.7230(7) 0.0307(7)
C34 C 0.3671(8) 0.7009(6) 0.0335(7)
H14 H 0.4417 0.6916 0.0349
C36 C 0.2970(9) 0.6209(7) 0.0872(8)
H16 H 0.3255 0.5599 0.1237
C42 C 0.1907(9) 0.6301(7) 0.0872(7)
H22 H 0.1445 0.5761 0.1240
C43 C 0.0353(9) 0.7404(9) 0.0243(8)
O13 O 0.3044(4) 0.9531(4) 0.0646(4)
O17 O 0.5369(5) 0.8556(4) 0.0253(4)
O5 O 0.5704(5) 0.8202(4) 0.8238(4)
O6 O 0.8086(5) 0.5625(4) 0.5192(4)
O8 O 0.4917(5) 0.9511(4) 0.7318(4)
C7 C 0.6064(6) 0.8281(6) 0.6523(5)
N3 N 0.2526(6) 0.9750(5) 0.8748(5)
N4 N 0.3313(5) 0.7912(5) 0.9797(5)
H4 H 0.8233 0.9915 0.6854
C15 C 0.6800(7) 0.7426(6) 0.6565(6)
H5 H 0.7004 0.7106 0.7146
C18 C 0.8036(6) 0.6073(5) 0.5798(5)
C19 C 0.5522(6) 0.8690(5) 0.7411(5)
C21 C 0.1816(6) 0.8975(6) 0.9230(5)
C22 C 0.7248(6) 0.7027(6) 0.5751(5)
C24 C 0.2223(7) 0.8024(6) 0.9785(5)
C26 C 0.5775(8) 0.8768(6) 0.5645(6)
H9 H 0.5276 0.9349 0.5610
C27 C 0.6941(7) 0.7520(6) 0.4891(6)
H10 H 0.7225 0.7254 0.4348
C32 C 0.0688(7) 0.9125(8) 0.9194(7)
C41 C 0.6230(9) 0.8386(7) 0.4819(7)
H21 H 0.6052 0.8718 0.4227
O5_2 O 0.4296(5) 0.1798(4) 0.1762(4)
O7 O 0.1365(4) 0.4183(4) 0.3624(4)
O8_2 O 0.5083(5) 0.0489(4) 0.2682(4)
C7_2 C 0.3936(6) 0.1719(6) 0.3477(5)
N3_2 N 0.7474(6) 0.0250(5) 0.1252(5)
N4_2 N 0.6687(5) 0.2088(5) 0.0203(5)
H4_2 H 0.1767 0.0085 0.3146
C15_2 C 0.3200(7) 0.2574(6) 0.3435(6)
H5_2 H 0.2996 0.2894 0.2854
C18_2 C 0.1964(6) 0.3927(5) 0.4202(5)
C19_2 C 0.4478(6) 0.1310(5) 0.2589(5)
C21_2 C 0.8184(6) 0.1025(6) 0.0770(5)
C22_2 C 0.2752(6) 0.2973(6) 0.4249(5)
C24_2 C 0.7777(7) 0.1976(6) 0.0215(5)
C26_2 C 0.4225(8) 0.1232(6) 0.4355(6)
H9_2 H 0.4724 0.0651 0.4390
C27_2 C 0.3059(7) 0.2480(6) 0.5109(6)
H10_2 H 0.2775 0.2746 0.5652
C32_2 C 0.9312(7) 0.0875(8) 0.0806(7)
C41_2 C 0.3770(9) 0.1614(7) 0.5181(7)
H21_2 H 0.3948 0.1282 0.5773
C33_2 C 0.8528(8) 0.2770(7) 0.9693(7)
C34_2 C 0.6329(8) 0.2991(6) 0.9665(7)
H14_2 H 0.5583 0.3084 0.9651
C36_2 C 0.7030(9) 0.3791(7) 0.9128(8)
H16_2 H 0.6745 0.4401 0.8763
C42_2 C 0.8093(9) 0.3699(7) 0.9128(7)
H22_2 H 0.8555 0.4239 0.8760
C43_2 C 0.9647(9) 0.2596(9) 0.9757(8)
O3_2 O 0.3695(5) 0.9884(4) 0.1680(4)
O10_2 O 0.0063(6) 0.6545(4) 0.2910(4)
C1_2 C 0.1594(6) 0.8184(5) 0.2504(5)
H1_2 H 0.1912 0.7896 0.1978
C2_2 C 0.2992(6) 0.9529(5) 0.1512(5)
C3_2 C 0.2000(6) 0.9067(5) 0.2414(5)
C4_2 C 0.0343(5) 0.6722(5) 0.3551(5)
C5_2 C 0.0708(6) 0.7731(5) 0.3385(5)
C10_2 C 0.0164(6) 0.8201(5) 0.4130(5)
C13_2 C 0.1478(6) 0.9515(5) 0.3183(6)
C16_2 C 0.0520(7) 0.9116(6) 0.4010(6)
H6_2 H 0.0120 0.9462 0.4481
C30_2 C 0.0321(8) 0.2951(6) 0.2856(6)
H13_2 H 0.0935 0.3358 0.2529
C40_2 C 0.7859(8) 0.9358(7) 0.1776(7)
H20_2 H 0.7373 0.8835 0.2115
C44_2 C 0.0342(9) 0.2156(7) 0.2505(8)
H24_2 H 0.0932 0.2066 0.1926
C46_2 C 0.9697(9) 0.9911(9) 0.1340(9)
C47_2 C 0.8949(10) 0.9186(8) 0.1834(8)
H27_2 H 0.9172 0.8558 0.2221
O18 O 0.6004(5) 0.8760(4) 0.1355(4)
O1_2 O 0.9446(5) 0.5087(4) 0.2230(4)
N1_2 N 0.7646(6) 0.3612(5) 0.5180(5)
O11_2 O 0.7875(5) 0.5599(5) 0.3297(4)
N2_2 N 0.9455(5) 0.3150(4) 0.3642(5)
C6_2 C 0.5977(6) 0.8262(5) 0.0820(5)
C8_2 C 0.7175(6) 0.6824(5) 0.1622(5)
H2_2 H 0.6952 0.7076 0.2170
C9_2 C 0.6737(6) 0.7299(5) 0.0830(5)
H3_2 H 0.9562 0.7908 0.4707
C11_2 C 0.8576(7) 0.2534(5) 0.4133(6)
C12_2 C 0.7655(7) 0.2760(6) 0.4969(6)
C14_2 C 0.8450(7) 0.5522(5) 0.2428(6)
C17_2 C 0.7940(6) 0.5981(5) 0.1596(5)
C20_2 C 0.7017(7) 0.6897(6) 0.0037(6)
C23_2 C 0.8254(7) 0.5595(6) 0.0782(6)
H8_2 H 0.8782 0.5036 0.0754
C25_2 C 0.6782(8) 0.2078(6) 0.5548(6)
C28_2 C 0.6811(7) 0.3781(7) 0.5971(6)
H11_2 H 0.6820 0.4353 0.6134
C29_2 C 0.7775(8) 0.6050(7) 0.0009(6)
C31_2 C 0.8582(9) 0.1676(6) 0.3859(7)
C35_2 C 0.6831(9) 0.1209(7) 0.5255(8)
H15_2 H 0.6263 0.0757 0.5642
C37_2 C 0.5892(8) 0.2304(7) 0.6386(7)
H17_2 H 0.5307 0.1873 0.6793
C38_2 C 0.5904(8) 0.3158(8) 0.6590(8)
H18_2 H 0.5321 0.3329 0.7131
C39_2 C 0.7655(10) 0.1028(7) 0.4454(8)
H19_2 H 0.7637 0.0472 0.4271
C45_2 C 0.9489(10) 0.1514(7) 0.3019(8)
H25_2 H 0.9512 0.0965 0.2809
H7_2 H 0.6694 0.7197 0.9525
H12_2 H 0.7967 0.5782 0.9476
H26 H 0.9554 0.0219 0.8649
H23 H 0.9869 0.6879 0.0576
C48 C 0.9970(8) 0.8292(10) 0.9726(8)
H28 H 0.9228 0.8375 0.9708
C48_2 C 0.0030(8) 0.1708(10) 0.0274(8)
H28_2 H 0.0772 0.1625 0.0292
H23_2 H 0.0131 0.3121 0.9424
H26_2 H 0.0446 0.9781 0.1351
loop_
_geom_bond_atom_site_label_1
_geom_bond_atom_site_label_2
_geom_bond_site_symmetry_1
_geom_bond_site_symmetry_2
Gd1 O1 1_555 1_555
O1 C14 1_555 1_555
O9 C6 1_555 1_555
N1 Gd1 1_555 1_555
O11 Gd1 1_555 1_555
N2 Gd1 1_555 1_555
O12 C6 1_555 1_555
C6 C9 1_555 1_555
C8 H2 1_555 1_555
C9 C8 1_555 1_555
C11 N2 1_555 1_555
C12 N1 1_555 1_555
C14 O11 1_555 1_555
C17 C8 1_555 1_555
C20 C9 1_555 1_555
C23 C17 1_555 1_555
H8 C23 1_555 1_555
C25 C12 1_555 1_555
C28 N1 1_555 1_555
H11 C28 1_555 1_555
C29 C20 1_555 1_555
C31 C11 1_555 1_555
C35 C25 1_555 1_555
H15 C35 1_555 1_555
C37 C25 1_555 1_555
H17 C37 1_555 1_555
C38 C28 1_555 1_555
H18 C38 1_555 1_555
C39 C31 1_555 1_555
H19 C39 1_555 1_555
C45 C31 1_555 1_555
H25 C45 1_555 1_555
O14 Gd1 1_555 1_555
O15 Gd1 1_555 1_555
C11 C12 1_555 1_555
C14 C17 1_555 1_555
C23 C29 1_555 1_555
C35 C39 1_555 1_555
C37 C38 1_555 1_555
O2 C2 1_555 1_555
O3 C2 1_555 1_555
C1 H1 1_555 1_555
C2 C3 1_555 1_555
C3 C1 1_555 1_555
C4 O4 1_555 1_555
C5 C1 1_555 1_555
C10 C5 1_555 1_555
C13 C3 1_555 1_555
C16 C10 1_555 1_555
H6 C16 1_555 1_555
H13 C30 1_555 1_555
H20 C40 1_555 1_555
C44 C30 1_555 1_555
H24 C44 1_555 1_555
C47 C40 1_555 1_555
H27 C47 1_555 1_555
Gd5 O4 1_555 1_555
O10 C4 1_555 1_555
C4 C5 1_555 1_555
C13 C16 1_555 1_555
C46 C47 1_555 1_555
H14 C34 1_555 1_555
C36 C34 1_555 1_555
H16 C36 1_555 1_555
C42 C33 1_555 1_555
H22 C42 1_555 1_555
C43 C33 1_555 1_555
C36 C42 1_555 1_555
O5 Gd6 1_555 1_555
O6 C18 1_555 1_555
O16 C18 1_555 1_555
O8 Gd6 1_555 1_555
C7 C15 1_555 1_555
N3 Gd6 1_555 1_555
N4 Gd6 1_555 1_555
C15 H5 1_555 1_555
C18 C22 1_555 1_555
C19 O5 1_555 1_555
C21 N3 1_555 1_555
C22 C15 1_555 1_555
C24 N4 1_555 1_555
C26 C7 1_555 1_555
H9 C26 1_555 1_555
C27 C22 1_555 1_555
H10 C27 1_555 1_555
C32 C21 1_555 1_555
C41 C26 1_555 1_555
H21 C41 1_555 1_555
Gd5 O6 1_555 1_555
O8 C19 1_555 1_555
C7 C19 1_555 1_555
C21 C24 1_555 1_555
C27 C41 1_555 1_555
O5_2 Gd8 1_555 1_555
O15 C18_2 1_555 1_555
O7 C18_2 1_555 1_555
O8_2 Gd8 1_555 1_555
C7_2 C15_2 1_555 1_555
N3_2 Gd8 1_555 1_555
N4_2 Gd8 1_555 1_555
C15_2 H5_2 1_555 1_555
C18_2 C22_2 1_555 1_555
C19_2 O5_2 1_555 1_555
C21_2 N3_2 1_555 1_555
C22_2 C15_2 1_555 1_555
C24_2 N4_2 1_555 1_555
C26_2 C7_2 1_555 1_555
H9_2 C26_2 1_555 1_555
C27_2 C22_2 1_555 1_555
H10_2 C27_2 1_555 1_555
C32_2 C21_2 1_555 1_555
C41_2 C26_2 1_555 1_555
H21_2 C41_2 1_555 1_555
O8_2 C19_2 1_555 1_555
C7_2 C19_2 1_555 1_555
C21_2 C24_2 1_555 1_555
C27_2 C41_2 1_555 1_555
H14_2 C34_2 1_555 1_555
C36_2 C34_2 1_555 1_555
H16_2 C36_2 1_555 1_555
C42_2 C33_2 1_555 1_555
H22_2 C42_2 1_555 1_555
C43_2 C33_2 1_555 1_555
C36_2 C42_2 1_555 1_555
O13 C2_2 1_555 1_555
O3_2 C2_2 1_555 1_555
C1_2 H1_2 1_555 1_555
C2_2 C3_2 1_555 1_555
C3_2 C1_2 1_555 1_555
C4_2 O14 1_555 1_555
C5_2 C1_2 1_555 1_555
C10_2 C5_2 1_555 1_555
C13_2 C3_2 1_555 1_555
C16_2 C10_2 1_555 1_555
H6_2 C16_2 1_555 1_555
H13_2 C30_2 1_555 1_555
H20_2 C40_2 1_555 1_555
C44_2 C30_2 1_555 1_555
H24_2 C44_2 1_555 1_555
C47_2 C40_2 1_555 1_555
H27_2 C47_2 1_555 1_555
O10_2 C4_2 1_555 1_555
C4_2 C5_2 1_555 1_555
C13_2 C16_2 1_555 1_555
C46_2 C47_2 1_555 1_555
Gd5 O1_2 1_555 1_555
O1_2 C14_2 1_555 1_555
O17 C6_2 1_555 1_555
N1_2 Gd5 1_555 1_555
O11_2 Gd5 1_555 1_555
N2_2 Gd5 1_555 1_555
O18 C6_2 1_555 1_555
C6_2 C9_2 1_555 1_555
C8_2 H2_2 1_555 1_555
C9_2 C8_2 1_555 1_555
C11_2 N2_2 1_555 1_555
C12_2 N1_2 1_555 1_555
C14_2 O11_2 1_555 1_555
C17_2 C8_2 1_555 1_555
C20_2 C9_2 1_555 1_555
C23_2 C17_2 1_555 1_555
H8_2 C23_2 1_555 1_555
C25_2 C12_2 1_555 1_555
C28_2 N1_2 1_555 1_555
H11_2 C28_2 1_555 1_555
C29_2 C20_2 1_555 1_555
C31_2 C11_2 1_555 1_555
C35_2 C25_2 1_555 1_555
H15_2 C35_2 1_555 1_555
C37_2 C25_2 1_555 1_555
H17_2 C37_2 1_555 1_555
C38_2 C28_2 1_555 1_555
H18_2 C38_2 1_555 1_555
C39_2 C31_2 1_555 1_555
H19_2 C39_2 1_555 1_555
C45_2 C31_2 1_555 1_555
H25_2 C45_2 1_555 1_555
C11_2 C12_2 1_555 1_555
C14_2 C17_2 1_555 1_555
C23_2 C29_2 1_555 1_555
C35_2 C39_2 1_555 1_555
C37_2 C38_2 1_555 1_555
H28 C48 1_555 1_555
H28_2 C48_2 1_555 1_555

#END
