
###############################################################################
#
# This file contains modified crystal structure data generated from the
# MOF subset of the Cambridge Structural Database (CSD) v543 
# hosted by the Cambridge Crystallographic Data Centre (CCDC).
#
# This work is licensed under the Creative Commons
# Attribution-NonCommercial-ShareAlike 4.0 International License.
# To view a copy of this license, visit
# http://creativecommons.org/licenses/by-nc-sa/4.0/
# or send a letter to
# Creative Commons, PO Box 1866, Mountain View, CA 94042, USA.
#
# CIF created using the CSD Python API on 29 September 2022
# The structure has been converted into the P1 space group
# The structure has a 3D framework
# The original CSD entry KUMGUW is in the trigonal crystal system
# The framework has been calculated to contain at least 10.0% void space
# The void calculation uses a probe of radius 1.32A, grid spacing 0.4
#
###############################################################################

data_KUMGUW
_chemical_formula_moiety         '(C144 H96 Cu12 N72 S16 W4)n'
_symmetry_cell_setting           triclinic
_symmetry_space_group_name_H-M   'P 1'
_symmetry_Int_Tables_number      1
_space_group_name_Hall           'P 1'
loop_
_symmetry_equiv_pos_site_id
_symmetry_equiv_pos_as_xyz
1 x,y,z
_cell_length_a                   27.545(4)
_cell_length_b                   27.545(4)
_cell_length_c                   13.555(3)
_cell_angle_alpha                90
_cell_angle_beta                 90
_cell_angle_gamma                120
_cell_volume                     8906.68
loop_
_atom_site_label
_atom_site_type_symbol
_atom_site_fract_x
_atom_site_fract_y
_atom_site_fract_z
N16 N 0.0043(3) 0.4948(4) 0.0979(5)
N20 N 0.0507(3) 0.5302(4) 0.0454(5)
H26 H 0.1498 0.5988 0.0014
N34 N 0.2332(3) 0.7121(2) 0.2207(5)
N35 N 0.0336(8) 0.6225(6) 0.3351(12)
N36 N 0.0291(8) 0.6204(5) 0.1662(13)
C67 C 0.2062(6) 0.6974(5) 0.3031(7)
H45 H 0.2269 0.7040 0.3608
C68 C 0.1487(7) 0.6726(5) 0.3119(9)
H46 H 0.1328 0.6614 0.3743
C69 C 0.1169(6) 0.6644(4) 0.2404(11)
C70 C 0.1408(9) 0.6743(7) 0.1543(11)
H47 H 0.1187 0.6635 0.0977
C71 C 0.2007(8) 0.7014(6) 0.1447(9)
H48 H 0.2165 0.7115 0.0822
C72 C 0.0575(8) 0.6359(5) 0.2458(14)
Cu9 Cu 0.31817(6) 0.73799(4) 0.20194(6)
N19 N 0.1896(2) 0.6356(3) 0.7776(4)
C37 C 0.1925(3) 0.6326(4) 0.8755(6)
H25 H 0.2271 0.6534 0.9060
C38 C 0.1462(3) 0.5999(5) 0.9334(5)
C39 C 0.0945(3) 0.5689(4) 0.8890(5)
C40 C 0.0906(3) 0.5720(5) 0.7879(5)
H27 H 0.0562 0.5516 0.7563
C41 C 0.1398(3) 0.6066(5) 0.7331(6)
H28 H 0.1374 0.6093 0.6651
C42 C 0.0443(3) 0.5324(4) 0.9495(6)
Cu10 Cu 0.26201(4) 0.68183(6) 0.70194(6)
W1 W 0.6667 0.3333 0.41305(3)
Cu1 Cu 0.58018(4) 0.26201(4) 0.29806(6)
S1 S 0.58902(8) 0.25960(9) 0.46527(14)
S2 S 0.6667 0.3333 0.2437(2)
N1 N 0.5540(2) 0.1896(2) 0.2224(4)
N2 N 0.5211(2) 0.2879(2) 0.2793(5)
N5 N 0.4111(6) 0.3775(6) 0.1649(12)
N6 N 0.4087(6) 0.3796(5) 0.3338(13)
C1 C 0.5599(3) 0.1925(3) 0.1245(6)
H1 H 0.5737 0.2271 0.0940
C2 C 0.5463(4) 0.1462(3) 0.0666(5)
C3 C 0.5256(3) 0.0945(3) 0.1110(5)
C4 C 0.5186(4) 0.0906(3) 0.2121(5)
H3 H 0.5046 0.0562 0.2437
C5 C 0.5332(4) 0.1398(3) 0.2669(6)
H4 H 0.5281 0.1374 0.3349
C6 C 0.5119(3) 0.0443(3) 0.0505(6)
C7 C 0.5088(4) 0.3026(5) 0.1969(7)
H5 H 0.5229 0.2960 0.1392
C8 C 0.4761(5) 0.3274(5) 0.1881(9)
H6 H 0.4714 0.3386 0.1257
C9 C 0.4525(4) 0.3356(4) 0.2596(11)
C10 C 0.4665(6) 0.3257(7) 0.3457(11)
H7 H 0.4552 0.3365 0.4023
C11 C 0.4993(6) 0.2986(6) 0.3553(9)
H8 H 0.5050 0.2885 0.4178
C12 C 0.4216(6) 0.3641(5) 0.2542(14)
N10 N 0.2879(2) 0.5211(2) 0.2207(5)
N11 N 0.3775(6) 0.4111(6) 0.3351(12)
N12 N 0.3796(5) 0.4087(6) 0.1662(13)
C19 C 0.3026(5) 0.5088(4) 0.3031(7)
H13 H 0.2960 0.5229 0.3608
C20 C 0.3274(5) 0.4761(5) 0.3119(9)
H14 H 0.3386 0.4714 0.3743
C21 C 0.3356(4) 0.4525(4) 0.2404(11)
C22 C 0.3257(7) 0.4665(6) 0.1543(11)
H15 H 0.3365 0.4552 0.0977
C23 C 0.2986(6) 0.4993(6) 0.1447(9)
H16 H 0.2885 0.5050 0.0822
C24 C 0.3641(5) 0.4216(6) 0.2458(14)
Cu2 Cu 0.73799(4) 0.31817(6) 0.29806(6)
S3 S 0.74040(9) 0.32942(12) 0.46527(14)
N13 N 0.8104(2) 0.3644(3) 0.2224(4)
N14 N 0.7121(2) 0.2332(3) 0.2793(5)
N17 N 0.6225(6) 0.0336(8) 0.1649(12)
N18 N 0.6204(5) 0.0291(8) 0.3338(13)
C25 C 0.8075(3) 0.3674(4) 0.1245(6)
H17 H 0.7729 0.3466 0.0940
C26 C 0.8538(3) 0.4001(5) 0.0666(5)
C27 C 0.9055(3) 0.4311(4) 0.1110(5)
C28 C 0.9094(3) 0.4280(5) 0.2121(5)
H19 H 0.9438 0.4484 0.2437
C29 C 0.8602(3) 0.3934(5) 0.2669(6)
H20 H 0.8626 0.3907 0.3349
C30 C 0.9557(3) 0.4676(4) 0.0505(6)
C31 C 0.6974(5) 0.2062(6) 0.1969(7)
H21 H 0.7040 0.2269 0.1392
C32 C 0.6726(5) 0.1487(7) 0.1881(9)
H22 H 0.6614 0.1328 0.1257
C33 C 0.6644(4) 0.1169(6) 0.2596(11)
C34 C 0.6743(7) 0.1408(9) 0.3457(11)
H23 H 0.6635 0.1187 0.4023
C35 C 0.7014(6) 0.2007(8) 0.3553(9)
H24 H 0.7115 0.2165 0.4178
C36 C 0.6359(5) 0.0575(8) 0.2542(14)
Cu3 Cu 0.68183(6) 0.41982(4) 0.29806(6)
S4 S 0.67058(12) 0.41098(8) 0.46527(14)
N25 N 0.6356(3) 0.4460(2) 0.2224(4)
N26 N 0.7668(3) 0.4789(2) 0.2793(5)
N28 N 0.5052(4) 0.5095(3) 0.0979(5)
N29 N 0.9664(8) 0.5889(6) 0.1649(12)
N30 N 0.9709(8) 0.5913(6) 0.3338(13)
C49 C 0.6326(4) 0.4401(3) 0.1245(6)
H33 H 0.6534 0.4263 0.0940
C50 C 0.5999(5) 0.4537(4) 0.0666(5)
C51 C 0.5689(4) 0.4744(3) 0.1110(5)
C52 C 0.5720(5) 0.4814(4) 0.2121(5)
H35 H 0.5516 0.4954 0.2437
C53 C 0.6066(5) 0.4668(4) 0.2669(6)
H36 H 0.6093 0.4719 0.3349
C54 C 0.5324(4) 0.4881(3) 0.0505(6)
C55 C 0.7938(6) 0.4912(4) 0.1969(7)
H37 H 0.7731 0.4771 0.1392
C56 C 0.8513(7) 0.5239(5) 0.1881(9)
H38 H 0.8672 0.5286 0.1257
C57 C 0.8831(6) 0.5475(4) 0.2596(11)
C58 C 0.8592(9) 0.5335(6) 0.3457(11)
H39 H 0.8813 0.5448 0.4023
C59 C 0.7993(8) 0.5007(6) 0.3553(9)
H40 H 0.7835 0.4950 0.4178
C60 C 0.9425(8) 0.5784(6) 0.2542(14)
N32 N 0.4698(4) 0.5205(3) 0.0454(5)
H42 H 0.4012 0.5510 0.0014
Cu7 Cu 0.26201(4) 0.58018(4) 0.20194(6)
N3 N 0.5205(3) 0.0507(3) 0.9546(5)
H2 H 0.5510 0.1498 0.9986
N9 N 0.5095(3) 0.0043(3) 0.9021(5)
N15 N 0.9493(3) 0.4698(4) 0.9546(5)
H18 H 0.8502 0.4012 0.9986
N21 N 0.9957(3) 0.5052(4) 0.9021(5)
N27 N 0.5302(4) 0.4795(3) 0.9546(5)
H34 H 0.5988 0.4490 0.9986
N31 N 0.3644(3) 0.5540(2) 0.7776(4)
N33 N 0.4948(4) 0.4905(3) 0.9021(5)
C61 C 0.3674(4) 0.5599(3) 0.8755(6)
H41 H 0.3466 0.5737 0.9060
C62 C 0.4001(5) 0.5463(4) 0.9334(5)
C63 C 0.4311(4) 0.5256(3) 0.8890(5)
C64 C 0.4280(5) 0.5186(4) 0.7879(5)
H43 H 0.4484 0.5046 0.7563
C65 C 0.3934(5) 0.5332(4) 0.7331(6)
H44 H 0.3907 0.5281 0.6651
C66 C 0.4676(4) 0.5119(3) 0.9495(6)
Cu11 Cu 0.31817(6) 0.58018(4) 0.70194(6)
N4 N 0.4905(3) 0.9957(3) 0.0979(5)
N8 N 0.4795(3) 0.9493(3) 0.0454(5)
H10 H 0.4490 0.8502 0.0014
N22 N 0.4789(2) 0.7668(3) 0.2207(5)
N23 N 0.5889(6) 0.9664(8) 0.3351(12)
N24 N 0.5913(6) 0.9709(8) 0.1662(13)
C43 C 0.4912(4) 0.7938(6) 0.3031(7)
H29 H 0.4771 0.7731 0.3608
C44 C 0.5239(5) 0.8513(7) 0.3119(9)
H30 H 0.5286 0.8672 0.3743
C45 C 0.5475(4) 0.8831(6) 0.2404(11)
C46 C 0.5335(6) 0.8592(9) 0.1543(11)
H31 H 0.5448 0.8813 0.0977
C47 C 0.5007(6) 0.7993(8) 0.1447(9)
H32 H 0.4950 0.7835 0.0822
C48 C 0.5784(6) 0.9425(8) 0.2458(14)
Cu8 Cu 0.41982(4) 0.68183(6) 0.20194(6)
N7 N 0.4460(2) 0.8104(2) 0.7776(4)
C13 C 0.4401(3) 0.8075(3) 0.8755(6)
H9 H 0.4263 0.7729 0.9060
C14 C 0.4537(4) 0.8538(3) 0.9334(5)
C15 C 0.4744(3) 0.9055(3) 0.8890(5)
C16 C 0.4814(4) 0.9094(3) 0.7879(5)
H11 H 0.4954 0.9438 0.7563
C17 C 0.4668(4) 0.8602(3) 0.7331(6)
H12 H 0.4719 0.8626 0.6651
C18 C 0.4881(3) 0.9557(3) 0.9495(6)
W2 W 0.3333 0.6667 0.58695(3)
Cu4 Cu 0.41982(4) 0.73799(4) 0.70194(6)
S5 S 0.41098(8) 0.74040(9) 0.53473(14)
S6 S 0.3333 0.6667 0.7563(2)
S7 S 0.25960(9) 0.67058(12) 0.53473(14)
S8 S 0.32942(12) 0.58902(8) 0.53473(14)
N39 N 0.4789(2) 0.7121(2) 0.7207(5)
N40 N 0.2879(2) 0.7668(3) 0.7207(5)
N41 N 0.2332(3) 0.5211(2) 0.7207(5)
N16_2 N 0.4948(4) 0.0043(3) 0.4021(5)
N19_2 N 0.6356(3) 0.1896(2) 0.7224(4)
N20_2 N 0.5302(4) 0.0507(3) 0.4546(5)
C37_2 C 0.6326(4) 0.1925(3) 0.6245(6)
H25_2 H 0.6534 0.2271 0.5940
C38_2 C 0.5999(5) 0.1462(3) 0.5666(5)
H26_2 H 0.5988 0.1498 0.4986
C39_2 C 0.5689(4) 0.0945(3) 0.6110(5)
C40_2 C 0.5720(5) 0.0906(3) 0.7121(5)
H27_2 H 0.5516 0.0562 0.7437
C41_2 C 0.6066(5) 0.1398(3) 0.7669(6)
H28_2 H 0.6093 0.1374 0.8349
C42_2 C 0.5324(4) 0.0443(3) 0.5505(6)
Cu10_2 Cu 0.68183(6) 0.26201(4) 0.79806(6)
W1_2 W 0.3333 0.6667 0.08695(3)
S1_2 S 0.25960(9) 0.58902(8) 0.03473(14)
S2_2 S 0.3333 0.6667 0.2563(2)
N1_2 N 0.1896(2) 0.5540(2) 0.2776(4)
N3_2 N 0.0507(3) 0.5205(3) 0.5454(5)
C1_2 C 0.1925(3) 0.5599(3) 0.3755(6)
H1_2 H 0.2271 0.5737 0.4060
C2_2 C 0.1462(3) 0.5463(4) 0.4334(5)
H2_2 H 0.1498 0.5510 0.5014
C3_2 C 0.0945(3) 0.5256(3) 0.3890(5)
C4_2 C 0.0906(3) 0.5186(4) 0.2879(5)
H3_2 H 0.0562 0.5046 0.2563
C5_2 C 0.1398(3) 0.5332(4) 0.2331(6)
H4_2 H 0.1374 0.5281 0.1651
C6_2 C 0.0443(3) 0.5119(3) 0.4495(6)
N9_2 N 0.0043(3) 0.5095(3) 0.5979(5)
S3_2 S 0.32942(12) 0.74040(9) 0.03473(14)
N13_2 N 0.3644(3) 0.8104(2) 0.2776(4)
N15_2 N 0.4698(4) 0.9493(3) 0.5454(5)
C25_2 C 0.3674(4) 0.8075(3) 0.3755(6)
H17_2 H 0.3466 0.7729 0.4060
C26_2 C 0.4001(5) 0.8538(3) 0.4334(5)
H18_2 H 0.4012 0.8502 0.5014
C27_2 C 0.4311(4) 0.9055(3) 0.3890(5)
C28_2 C 0.4280(5) 0.9094(3) 0.2879(5)
H19_2 H 0.4484 0.9438 0.2563
C29_2 C 0.3934(5) 0.8602(3) 0.2331(6)
H20_2 H 0.3907 0.8626 0.1651
C30_2 C 0.4676(4) 0.9557(3) 0.4495(6)
N21_2 N 0.5052(4) 0.9957(3) 0.5979(5)
S4_2 S 0.41098(8) 0.67058(12) 0.03473(14)
N25_2 N 0.4460(2) 0.6356(3) 0.2776(4)
N27_2 N 0.4795(3) 0.5302(4) 0.5454(5)
N28_2 N 0.5095(3) 0.5052(4) 0.4021(5)
C49_2 C 0.4401(3) 0.6326(4) 0.3755(6)
H33_2 H 0.4263 0.6534 0.4060
C50_2 C 0.4537(4) 0.5999(5) 0.4334(5)
H34_2 H 0.4490 0.5988 0.5014
C51_2 C 0.4744(3) 0.5689(4) 0.3890(5)
C52_2 C 0.4814(4) 0.5720(5) 0.2879(5)
H35_2 H 0.4954 0.5516 0.2563
C53_2 C 0.4668(4) 0.6066(5) 0.2331(6)
H36_2 H 0.4719 0.6093 0.1651
C54_2 C 0.4881(3) 0.5324(4) 0.4495(6)
N31_2 N 0.5540(2) 0.3644(3) 0.7224(4)
N32_2 N 0.5205(3) 0.4698(4) 0.4546(5)
N33_2 N 0.4905(3) 0.4948(4) 0.5979(5)
C61_2 C 0.5599(3) 0.3674(4) 0.6245(6)
H41_2 H 0.5737 0.3466 0.5940
C62_2 C 0.5463(4) 0.4001(5) 0.5666(5)
H42_2 H 0.5510 0.4012 0.4986
C63_2 C 0.5256(3) 0.4311(4) 0.6110(5)
C64_2 C 0.5186(4) 0.4280(5) 0.7121(5)
H43_2 H 0.5046 0.4484 0.7437
C65_2 C 0.5332(4) 0.3934(5) 0.7669(6)
H44_2 H 0.5281 0.3907 0.8349
C66_2 C 0.5119(3) 0.4676(4) 0.5505(6)
Cu11_2 Cu 0.58018(4) 0.31817(6) 0.79806(6)
N4_2 N 0.9957(3) 0.4905(3) 0.4021(5)
N7_2 N 0.8104(2) 0.4460(2) 0.7224(4)
N8_2 N 0.9493(3) 0.4795(3) 0.4546(5)
C13_2 C 0.8075(3) 0.4401(3) 0.6245(6)
H9_2 H 0.7729 0.4263 0.5940
C14_2 C 0.8538(3) 0.4537(4) 0.5666(5)
H10_2 H 0.8502 0.4490 0.4986
C15_2 C 0.9055(3) 0.4744(3) 0.6110(5)
C16_2 C 0.9094(3) 0.4814(4) 0.7121(5)
H11_2 H 0.9438 0.4954 0.7437
C17_2 C 0.8602(3) 0.4668(4) 0.7669(6)
H12_2 H 0.8626 0.4719 0.8349
C18_2 C 0.9557(3) 0.4881(3) 0.5505(6)
W2_2 W 0.6667 0.3333 0.91305(3)
Cu4_2 Cu 0.73799(4) 0.41982(4) 0.79806(6)
S5_2 S 0.74040(9) 0.41098(8) 0.96527(14)
S6_2 S 0.6667 0.3333 0.7437(2)
S7_2 S 0.67058(12) 0.25960(9) 0.96527(14)
S8_2 S 0.58902(8) 0.32942(12) 0.96527(14)
N39_2 N 0.7121(2) 0.4789(2) 0.7793(5)
N40_2 N 0.7668(3) 0.2879(2) 0.7793(5)
N41_2 N 0.5211(2) 0.2332(3) 0.7793(5)
N23_2 N 0.4111(6) 0.0336(8) 0.6649(12)
N24_2 N 0.4087(6) 0.0291(8) 0.8338(13)
C43_2 C 0.5088(4) 0.2062(6) 0.6969(7)
H29_2 H 0.5229 0.2269 0.6392
C44_2 C 0.4761(5) 0.1487(7) 0.6881(9)
H30_2 H 0.4714 0.1328 0.6257
C45_2 C 0.4525(4) 0.1169(6) 0.7596(11)
C46_2 C 0.4665(6) 0.1408(9) 0.8457(11)
H31_2 H 0.4552 0.1187 0.9023
C47_2 C 0.4993(6) 0.2007(8) 0.8553(9)
H32_2 H 0.5050 0.2165 0.9178
C48_2 C 0.4216(6) 0.0575(8) 0.7542(14)
N5_2 N 0.5889(6) 0.6225(6) 0.8351(12)
N6_2 N 0.5913(6) 0.6204(5) 0.6662(13)
C7_2 C 0.4912(4) 0.6974(5) 0.8031(7)
H5_2 H 0.4771 0.7040 0.8608
C8_2 C 0.5239(5) 0.6726(5) 0.8119(9)
H6_2 H 0.5286 0.6614 0.8743
C9_2 C 0.5475(4) 0.6644(4) 0.7404(11)
C10_2 C 0.5335(6) 0.6743(7) 0.6543(11)
H7_2 H 0.5448 0.6635 0.5977
C11_2 C 0.5007(6) 0.7014(6) 0.6447(9)
H8_2 H 0.4950 0.7115 0.5822
C12_2 C 0.5784(6) 0.6359(5) 0.7458(14)
N11_2 N 0.6225(6) 0.5889(6) 0.6649(12)
N12_2 N 0.6204(5) 0.5913(6) 0.8338(13)
C19_2 C 0.6974(5) 0.4912(4) 0.6969(7)
H13_2 H 0.7040 0.4771 0.6392
C20_2 C 0.6726(5) 0.5239(5) 0.6881(9)
H14_2 H 0.6614 0.5286 0.6257
C21_2 C 0.6644(4) 0.5475(4) 0.7596(11)
C22_2 C 0.6743(7) 0.5335(6) 0.8457(11)
H15_2 H 0.6635 0.5448 0.9023
C23_2 C 0.7014(6) 0.5007(6) 0.8553(9)
H16_2 H 0.7115 0.4950 0.9178
C24_2 C 0.6359(5) 0.5784(6) 0.7542(14)
N17_2 N 0.3775(6) 0.9664(8) 0.8351(12)
N18_2 N 0.3796(5) 0.9709(8) 0.6662(13)
C31_2 C 0.3026(5) 0.7938(6) 0.8031(7)
H21_2 H 0.2960 0.7731 0.8608
C32_2 C 0.3274(5) 0.8513(7) 0.8119(9)
H22_2 H 0.3386 0.8672 0.8743
C33_2 C 0.3356(4) 0.8831(6) 0.7404(11)
C34_2 C 0.3257(7) 0.8592(9) 0.6543(11)
H23_2 H 0.3365 0.8813 0.5977
C35_2 C 0.2986(6) 0.7993(8) 0.6447(9)
H24_2 H 0.2885 0.7835 0.5822
C36_2 C 0.3641(5) 0.9425(8) 0.7458(14)
N29_2 N 0.0336(8) 0.4111(6) 0.8351(12)
N30_2 N 0.0291(8) 0.4087(6) 0.6662(13)
C55_2 C 0.2062(6) 0.5088(4) 0.8031(7)
H37_2 H 0.2269 0.5229 0.8608
C56_2 C 0.1487(7) 0.4761(5) 0.8119(9)
H38_2 H 0.1328 0.4714 0.8743
C57_2 C 0.1169(6) 0.4525(4) 0.7404(11)
C58_2 C 0.1408(9) 0.4665(6) 0.6543(11)
H39_2 H 0.1187 0.4552 0.5977
C59_2 C 0.2007(8) 0.4993(6) 0.6447(9)
H40_2 H 0.2165 0.5050 0.5822
C60_2 C 0.0575(8) 0.4216(6) 0.7458(14)
N35_2 N 0.9664(8) 0.3775(6) 0.6649(12)
N36_2 N 0.9709(8) 0.3796(5) 0.8338(13)
C67_2 C 0.7938(6) 0.3026(5) 0.6969(7)
H45_2 H 0.7731 0.2960 0.6392
C68_2 C 0.8513(7) 0.3274(5) 0.6881(9)
H46_2 H 0.8672 0.3386 0.6257
C69_2 C 0.8831(6) 0.3356(4) 0.7596(11)
C70_2 C 0.8592(9) 0.3257(7) 0.8457(11)
H47_2 H 0.8813 0.3365 0.9023
C71_2 C 0.7993(8) 0.2986(6) 0.8553(9)
H48_2 H 0.7835 0.2885 0.9178
C72_2 C 0.9425(8) 0.3641(5) 0.7542(14)
loop_
_geom_bond_atom_site_label_1
_geom_bond_atom_site_label_2
_geom_bond_site_symmetry_1
_geom_bond_site_symmetry_2
N20 N16 1_555 1_555
N34 C67 1_555 1_555
C67 H45 1_555 1_555
C68 C67 1_555 1_555
H46 C68 1_555 1_555
C69 C68 1_555 1_555
C70 C69 1_555 1_555
H47 C70 1_555 1_555
C71 N34 1_555 1_555
H48 C71 1_555 1_555
C72 N35 1_555 1_555
Cu9 N34 1_555 1_555
N36 C72 1_555 1_555
C69 C72 1_555 1_555
C70 C71 1_555 1_555
N19 C37 1_555 1_555
C37 H25 1_555 1_555
C38 C37 1_555 1_555
C39 C38 1_555 1_555
C40 C39 1_555 1_555
H27 C40 1_555 1_555
C41 N19 1_555 1_555
H28 C41 1_555 1_555
Cu10 N19 1_555 1_555
C39 C42 1_555 1_555
C40 C41 1_555 1_555
W1 S1 1_555 1_555
Cu1 S1 1_555 1_555
S2 W1 1_555 1_555
N1 Cu1 1_555 1_555
N2 Cu1 1_555 1_555
N5 C12 1_555 1_555
N6 C12 1_555 1_555
C1 N1 1_555 1_555
H1 C1 1_555 1_555
C2 C1 1_555 1_555
C3 C2 1_555 1_555
C4 C3 1_555 1_555
H3 C4 1_555 1_555
C5 N1 1_555 1_555
H4 C5 1_555 1_555
C6 C3 1_555 1_555
C7 N2 1_555 1_555
H5 C7 1_555 1_555
C8 C7 1_555 1_555
H6 C8 1_555 1_555
C9 C8 1_555 1_555
C10 C9 1_555 1_555
H7 C10 1_555 1_555
C11 N2 1_555 1_555
H8 C11 1_555 1_555
C12 C9 1_555 1_555
N10 C19 1_555 1_555
N11 N6 1_555 1_555
N12 N5 1_555 1_555
C19 H13 1_555 1_555
C20 C19 1_555 1_555
H14 C20 1_555 1_555
C21 C20 1_555 1_555
C22 C21 1_555 1_555
H15 C22 1_555 1_555
C23 N10 1_555 1_555
H16 C23 1_555 1_555
C24 N11 1_555 1_555
Cu2 S2 1_555 1_555
S3 W1 1_555 1_555
N13 Cu2 1_555 1_555
N14 Cu2 1_555 1_555
N17 C36 1_555 1_555
N18 C36 1_555 1_555
C25 N13 1_555 1_555
H17 C25 1_555 1_555
C26 C25 1_555 1_555
C27 C26 1_555 1_555
C28 C27 1_555 1_555
H19 C28 1_555 1_555
C29 N13 1_555 1_555
H20 C29 1_555 1_555
C30 C27 1_555 1_555
C31 N14 1_555 1_555
H21 C31 1_555 1_555
C32 C31 1_555 1_555
H22 C32 1_555 1_555
C33 C32 1_555 1_555
C34 C33 1_555 1_555
H23 C34 1_555 1_555
C35 N14 1_555 1_555
H24 C35 1_555 1_555
C36 C33 1_555 1_555
Cu3 S2 1_555 1_555
S4 W1 1_555 1_555
N25 Cu3 1_555 1_555
N26 Cu3 1_555 1_555
N28 C54 1_555 1_555
N29 C60 1_555 1_555
N30 C60 1_555 1_555
C49 N25 1_555 1_555
H33 C49 1_555 1_555
C50 C49 1_555 1_555
C51 C50 1_555 1_555
C52 C51 1_555 1_555
H35 C52 1_555 1_555
C53 N25 1_555 1_555
H36 C53 1_555 1_555
C54 C51 1_555 1_555
C55 N26 1_555 1_555
H37 C55 1_555 1_555
C56 C55 1_555 1_555
H38 C56 1_555 1_555
C57 C56 1_555 1_555
C58 C57 1_555 1_555
H39 C58 1_555 1_555
C59 N26 1_555 1_555
H40 C59 1_555 1_555
C60 C57 1_555 1_555
N32 N28 1_555 1_555
Cu7 N10 1_555 1_555
Cu1 S2 1_555 1_555
C4 C5 1_555 1_555
C10 C11 1_555 1_555
N12 C24 1_555 1_555
C21 C24 1_555 1_555
C22 C23 1_555 1_555
Cu2 S3 1_555 1_555
C28 C29 1_555 1_555
C34 C35 1_555 1_555
Cu3 S4 1_555 1_555
C52 C53 1_555 1_555
C58 C59 1_555 1_555
N9 N3 1_555 1_555
N21 N15 1_555 1_555
N31 C61 1_555 1_555
N33 N27 1_555 1_555
C61 H41 1_555 1_555
C62 C61 1_555 1_555
C63 C62 1_555 1_555
C64 C63 1_555 1_555
H43 C64 1_555 1_555
C65 N31 1_555 1_555
H44 C65 1_555 1_555
Cu11 N31 1_555 1_555
N33 C66 1_555 1_555
C63 C66 1_555 1_555
C64 C65 1_555 1_555
N8 N4 1_555 1_555
N22 C43 1_555 1_555
C43 H29 1_555 1_555
C44 C43 1_555 1_555
H30 C44 1_555 1_555
C45 C44 1_555 1_555
C46 C45 1_555 1_555
H31 C46 1_555 1_555
C47 N22 1_555 1_555
H32 C47 1_555 1_555
C48 N23 1_555 1_555
Cu8 N22 1_555 1_555
N24 C48 1_555 1_555
C45 C48 1_555 1_555
C46 C47 1_555 1_555
N7 C13 1_555 1_555
C13 H9 1_555 1_555
C14 C13 1_555 1_555
C15 C14 1_555 1_555
C16 C15 1_555 1_555
H11 C16 1_555 1_555
C17 N7 1_555 1_555
H12 C17 1_555 1_555
W2 S5 1_555 1_555
Cu4 N7 1_555 1_555
S5 Cu4 1_555 1_555
S6 W2 1_555 1_555
Cu10 S6 1_555 1_555
S7 W2 1_555 1_555
Cu11 S6 1_555 1_555
S8 W2 1_555 1_555
N39 Cu4 1_555 1_555
N40 Cu10 1_555 1_555
N41 Cu11 1_555 1_555
C15 C18 1_555 1_555
C16 C17 1_555 1_555
Cu4 S6 1_555 1_555
Cu10 S7 1_555 1_555
Cu11 S8 1_555 1_555
N19_2 C37_2 1_555 1_555
N20_2 N16_2 1_555 1_555
C37_2 H25_2 1_555 1_555
C38_2 C37_2 1_555 1_555
H26_2 C38_2 1_555 1_555
C39_2 C38_2 1_555 1_555
C40_2 C39_2 1_555 1_555
H27_2 C40_2 1_555 1_555
C41_2 N19_2 1_555 1_555
H28_2 C41_2 1_555 1_555
C42_2 N20_2 1_555 1_555
Cu10_2 N19_2 1_555 1_555
C39_2 C42_2 1_555 1_555
C40_2 C41_2 1_555 1_555
W1_2 S1_2 1_555 1_555
Cu7 S1_2 1_555 1_555
S2_2 W1_2 1_555 1_555
N1_2 Cu7 1_555 1_555
N3_2 C6_2 1_555 1_555
C1_2 N1_2 1_555 1_555
H1_2 C1_2 1_555 1_555
C2_2 C1_2 1_555 1_555
H2_2 C2_2 1_555 1_555
C3_2 C2_2 1_555 1_555
C4_2 C3_2 1_555 1_555
H3_2 C4_2 1_555 1_555
C5_2 N1_2 1_555 1_555
H4_2 C5_2 1_555 1_555
C6_2 C3_2 1_555 1_555
N9_2 N3_2 1_555 1_555
Cu9 S2_2 1_555 1_555
S3_2 W1_2 1_555 1_555
N13_2 Cu9 1_555 1_555
N15_2 C30_2 1_555 1_555
C25_2 N13_2 1_555 1_555
H17_2 C25_2 1_555 1_555
C26_2 C25_2 1_555 1_555
H18_2 C26_2 1_555 1_555
C27_2 C26_2 1_555 1_555
C28_2 C27_2 1_555 1_555
H19_2 C28_2 1_555 1_555
C29_2 N13_2 1_555 1_555
H20_2 C29_2 1_555 1_555
C30_2 C27_2 1_555 1_555
N21_2 N15_2 1_555 1_555
Cu8 S2_2 1_555 1_555
S4_2 W1_2 1_555 1_555
N25_2 Cu8 1_555 1_555
N27_2 C54_2 1_555 1_555
N28_2 C54_2 1_555 1_555
C49_2 N25_2 1_555 1_555
H33_2 C49_2 1_555 1_555
C50_2 C49_2 1_555 1_555
H34_2 C50_2 1_555 1_555
C51_2 C50_2 1_555 1_555
C52_2 C51_2 1_555 1_555
H35_2 C52_2 1_555 1_555
C53_2 N25_2 1_555 1_555
H36_2 C53_2 1_555 1_555
C54_2 C51_2 1_555 1_555
N31_2 C61_2 1_555 1_555
N32_2 N28_2 1_555 1_555
N33_2 N27_2 1_555 1_555
C61_2 H41_2 1_555 1_555
C62_2 C61_2 1_555 1_555
H42_2 C62_2 1_555 1_555
C63_2 C62_2 1_555 1_555
C64_2 C63_2 1_555 1_555
H43_2 C64_2 1_555 1_555
C65_2 N31_2 1_555 1_555
H44_2 C65_2 1_555 1_555
C66_2 N32_2 1_555 1_555
Cu11_2 N31_2 1_555 1_555
Cu7 S2_2 1_555 1_555
C4_2 C5_2 1_555 1_555
Cu9 S3_2 1_555 1_555
C28_2 C29_2 1_555 1_555
Cu8 S4_2 1_555 1_555
C52_2 C53_2 1_555 1_555
N33_2 C66_2 1_555 1_555
C63_2 C66_2 1_555 1_555
C64_2 C65_2 1_555 1_555
N7_2 C13_2 1_555 1_555
N8_2 N4_2 1_555 1_555
C13_2 H9_2 1_555 1_555
C14_2 C13_2 1_555 1_555
H10_2 C14_2 1_555 1_555
C15_2 C14_2 1_555 1_555
C16_2 C15_2 1_555 1_555
H11_2 C16_2 1_555 1_555
C17_2 N7_2 1_555 1_555
H12_2 C17_2 1_555 1_555
C18_2 N8_2 1_555 1_555
W2_2 S5_2 1_555 1_555
Cu4_2 N7_2 1_555 1_555
S5_2 Cu4_2 1_555 1_555
S6_2 W2_2 1_555 1_555
Cu10_2 S6_2 1_555 1_555
S7_2 W2_2 1_555 1_555
Cu11_2 S6_2 1_555 1_555
S8_2 W2_2 1_555 1_555
N39_2 Cu4_2 1_555 1_555
N40_2 Cu10_2 1_555 1_555
N41_2 Cu11_2 1_555 1_555
C15_2 C18_2 1_555 1_555
C16_2 C17_2 1_555 1_555
Cu4_2 S6_2 1_555 1_555
Cu10_2 S7_2 1_555 1_555
Cu11_2 S8_2 1_555 1_555
N41_2 C43_2 1_555 1_555
C43_2 H29_2 1_555 1_555
C44_2 C43_2 1_555 1_555
H30_2 C44_2 1_555 1_555
C45_2 C44_2 1_555 1_555
C46_2 C45_2 1_555 1_555
H31_2 C46_2 1_555 1_555
C47_2 N41_2 1_555 1_555
H32_2 C47_2 1_555 1_555
C48_2 N23_2 1_555 1_555
N24_2 C48_2 1_555 1_555
C45_2 C48_2 1_555 1_555
C46_2 C47_2 1_555 1_555
N5_2 C12_2 1_555 1_555
N6_2 C12_2 1_555 1_555
C7_2 N39 1_555 1_555
H5_2 C7_2 1_555 1_555
C8_2 C7_2 1_555 1_555
H6_2 C8_2 1_555 1_555
C9_2 C8_2 1_555 1_555
C10_2 C9_2 1_555 1_555
H7_2 C10_2 1_555 1_555
C11_2 N39 1_555 1_555
H8_2 C11_2 1_555 1_555
C12_2 C9_2 1_555 1_555
N39_2 C19_2 1_555 1_555
N11_2 N6_2 1_555 1_555
N12_2 N5_2 1_555 1_555
C19_2 H13_2 1_555 1_555
C20_2 C19_2 1_555 1_555
H14_2 C20_2 1_555 1_555
C21_2 C20_2 1_555 1_555
C22_2 C21_2 1_555 1_555
H15_2 C22_2 1_555 1_555
C23_2 N39_2 1_555 1_555
H16_2 C23_2 1_555 1_555
C24_2 N11_2 1_555 1_555
N17_2 C36_2 1_555 1_555
N18_2 C36_2 1_555 1_555
C31_2 N40 1_555 1_555
H21_2 C31_2 1_555 1_555
C32_2 C31_2 1_555 1_555
H22_2 C32_2 1_555 1_555
C33_2 C32_2 1_555 1_555
C34_2 C33_2 1_555 1_555
H23_2 C34_2 1_555 1_555
C35_2 N40 1_555 1_555
H24_2 C35_2 1_555 1_555
C36_2 C33_2 1_555 1_555
N29_2 C60_2 1_555 1_555
N30_2 C60_2 1_555 1_555
C55_2 N41 1_555 1_555
H37_2 C55_2 1_555 1_555
C56_2 C55_2 1_555 1_555
H38_2 C56_2 1_555 1_555
C57_2 C56_2 1_555 1_555
C58_2 C57_2 1_555 1_555
H39_2 C58_2 1_555 1_555
C59_2 N41 1_555 1_555
H40_2 C59_2 1_555 1_555
C60_2 C57_2 1_555 1_555
C10_2 C11_2 1_555 1_555
N12_2 C24_2 1_555 1_555
C21_2 C24_2 1_555 1_555
C22_2 C23_2 1_555 1_555
C34_2 C35_2 1_555 1_555
C58_2 C59_2 1_555 1_555
N40_2 C67_2 1_555 1_555
C67_2 H45_2 1_555 1_555
C68_2 C67_2 1_555 1_555
H46_2 C68_2 1_555 1_555
C69_2 C68_2 1_555 1_555
C70_2 C69_2 1_555 1_555
H47_2 C70_2 1_555 1_555
C71_2 N40_2 1_555 1_555
H48_2 C71_2 1_555 1_555
C72_2 N35_2 1_555 1_555
N36_2 C72_2 1_555 1_555
C69_2 C72_2 1_555 1_555
C70_2 C71_2 1_555 1_555

#END
