
###############################################################################
#
# This file contains modified crystal structure data generated from the
# MOF subset of the Cambridge Structural Database (CSD) v543 
# hosted by the Cambridge Crystallographic Data Centre (CCDC).
#
# This work is licensed under the Creative Commons
# Attribution-NonCommercial-ShareAlike 4.0 International License.
# To view a copy of this license, visit
# http://creativecommons.org/licenses/by-nc-sa/4.0/
# or send a letter to
# Creative Commons, PO Box 1866, Mountain View, CA 94042, USA.
#
# CIF created using the CSD Python API on 29 September 2022
# The structure has been converted into the P1 space group
# The structure has a 3D framework
# The original CSD entry KUMJIN is in the triclinic crystal system
# The framework has been calculated to contain at least 10.0% void space
# The void calculation uses a probe of radius 1.32A, grid spacing 0.4
#
###############################################################################

data_KUMJIN
_chemical_formula_moiety         '(C96 H56 Eu4 N8 O24)n'
_symmetry_cell_setting           triclinic
_symmetry_space_group_name_H-M   'P 1'
_symmetry_Int_Tables_number      1
_space_group_name_Hall           'P 1'
loop_
_symmetry_equiv_pos_site_id
_symmetry_equiv_pos_as_xyz
1 x,y,z
_cell_length_a                   12.6080(2)
_cell_length_b                   14.21450(10)
_cell_length_c                   14.8980(5)
_cell_angle_alpha                69.321(11)
_cell_angle_beta                 67.503(12)
_cell_angle_gamma                78.329(15)
_cell_volume                     2300.88
loop_
_atom_site_label
_atom_site_type_symbol
_atom_site_fract_x
_atom_site_fract_y
_atom_site_fract_z
Eu8 Eu 0.051544(16) 0.053860(14) 0.092971(14)
H4 H 0.6748 0.0105 0.3136
O8 O 0.0090(3) 0.0471(3) 0.2686(3)
N2 N 0.2466(4) 0.0241(3) 0.1242(3)
N3 N 0.1686(4) 0.2081(3) 0.0197(3)
H6 H 0.8283 0.2793 0.0499
H8 H 0.7023 0.4227 0.0522
C23 C 0.3193(4) 0.0998(4) 0.0769(4)
C25 C 0.2769(4) 0.1965(4) 0.0215(4)
C30 C 0.4314(5) 0.0860(5) 0.0803(5)
C46 C 0.5025(5) 0.1698(7) 0.0283(6)
H26 H 0.5767 0.1619 0.0304
O14 O 0.1287(3) 0.0114(3) 0.8327(3)
O17 O 0.0352(3) 0.8545(3) 0.0248(3)
O2 O 0.0704(3) 0.8209(3) 0.8239(3)
O6 O 0.3627(3) 0.5813(3) 0.6380(3)
O7 O 0.3072(3) 0.5623(3) 0.5205(3)
C9 C 0.3029(4) 0.6077(4) 0.5804(3)
C10 C 0.1052(4) 0.8286(4) 0.6530(4)
C13 C 0.0520(4) 0.8697(4) 0.7423(4)
C16 C 0.1811(4) 0.7426(4) 0.6579(3)
H5 H 0.2028 0.7117 0.7153
C22 C 0.2246(4) 0.7027(4) 0.5767(3)
C26 C 0.0771(5) 0.8771(4) 0.5658(4)
H9 H 0.0274 0.9354 0.5623
C32 C 0.1229(5) 0.8391(5) 0.4834(4)
H13 H 0.1059 0.8731 0.4240
C41 C 0.1933(5) 0.7515(4) 0.4899(4)
H21 H 0.2203 0.7242 0.4361
Eu3 Eu 0.435609(17) 0.481576(14) 0.403678(14)
Eu5 Eu 0.564391(17) 0.518424(14) 0.596322(14)
C31 C 0.7164(6) 0.0633(5) 0.8228(5)
H12 H 0.7666 0.1143 0.7880
C43 C 0.6061(7) 0.0837(6) 0.8160(6)
H23 H 0.5831 0.1475 0.7797
C48 C 0.5324(6) 0.0086(7) 0.8633(6)
H28 H 0.4594 0.0200 0.8582
O18 O 0.8997(3) 0.1226(3) 0.8665(3)
O1 O 0.4436(3) 0.5094(3) 0.2220(3)
O3 O 0.5297(3) 0.6056(2) 0.4401(2)
O4 O 0.8052(3) 0.9528(3) 0.0647(2)
O5 O 0.8713(3) 0.9886(3) 0.1673(3)
C1 C 0.5354(4) 0.6726(3) 0.3549(3)
O10 O 0.5081(4) 0.6555(3) 0.2912(3)
N1 N 0.2659(3) 0.3608(3) 0.5179(3)
O11 O 0.2877(3) 0.5610(4) 0.3287(3)
C2 C 0.7014(4) 0.9063(3) 0.2413(3)
C3 C 0.7993(4) 0.9531(3) 0.1502(3)
O12 O 0.1003(3) 0.8774(3) 0.1335(3)
C4 C 0.1721(4) 0.7313(3) 0.0815(3)
C5 C 0.5700(4) 0.7732(3) 0.3375(3)
C6 C 0.6594(4) 0.8186(3) 0.2500(3)
H1 H 0.6912 0.7899 0.1971
C7 C 0.2942(4) 0.5986(3) 0.1583(3)
C8 C 0.2163(4) 0.6833(3) 0.1604(3)
H2 H 0.1933 0.7082 0.2155
N4 N 0.4462(4) 0.3146(3) 0.3639(3)
C11 C 0.0964(4) 0.8271(3) 0.0805(3)
C12 C 0.5166(4) 0.8208(4) 0.4126(3)
H3 H 0.4564 0.7918 0.4705
C14 C 0.6474(4) 0.9523(4) 0.3182(4)
C15 C 0.3440(4) 0.5531(3) 0.2418(4)
C17 C 0.2644(4) 0.2755(4) 0.4967(4)
C18 C 0.2023(4) 0.6906(4) 0.0023(4)
C19 C 0.3261(5) 0.5601(4) 0.0767(4)
H7 H 0.3792 0.5044 0.0736
C20 C 0.2786(5) 0.6047(4) 0.0007(4)
C21 C 0.3569(4) 0.2526(4) 0.4130(4)
C24 C 0.6476(5) 0.7237(5) 0.0303(4)
C27 C 0.5528(5) 0.9114(4) 0.4017(4)
H10 H 0.5140 0.9449 0.4502
C28 C 0.1773(5) 0.2069(5) 0.5551(5)
C29 C 0.5313(5) 0.2946(4) 0.2856(4)
H11 H 0.5912 0.3369 0.2513
C33 C 0.7985(6) 0.6194(4) 0.0880(5)
H14 H 0.8272 0.5586 0.1244
C34 C 0.3560(6) 0.1676(4) 0.3853(5)
C35 C 0.0905(5) 0.3138(6) 0.6603(5)
H15 H 0.0337 0.3283 0.7168
C36 C 0.1823(6) 0.1196(5) 0.5274(5)
H16 H 0.1256 0.0745 0.5666
C37 C 0.5366(7) 0.2135(5) 0.2511(5)
H17 H 0.5988 0.2018 0.1962
C38 C 0.1789(4) 0.3795(5) 0.5971(4)
H18 H 0.1762 0.4387 0.6113
C39 C 0.8666(5) 0.7029(4) 0.0332(5)
H19 H 0.9411 0.6948 0.0344
C40 C 0.0892(5) 0.2287(5) 0.6380(5)
H20 H 0.0302 0.1859 0.6777
C42 C 0.6892(6) 0.6312(5) 0.0858(5)
H22 H 0.6422 0.5778 0.1211
C44 C 0.2676(6) 0.1006(5) 0.4457(6)
H24 H 0.2683 0.0433 0.4288
C45 C 0.5381(6) 0.7385(7) 0.0242(6)
H25 H 0.4910 0.6851 0.0565
C47 C 0.4467(7) 0.1511(5) 0.3008(5)
H27 H 0.4469 0.0981 0.2779
O13 O 0.4703(3) 0.3944(2) 0.5599(2)
O15 O 0.6373(3) 0.4187(3) 0.3620(3)
O1_2 O 0.5564(3) 0.4906(3) 0.7780(3)
O4_2 O 0.1948(3) 0.0472(3) 0.9353(2)
O9 O 0.9648(3) 0.1455(3) 0.9752(3)
C1_2 C 0.4646(4) 0.3274(3) 0.6451(3)
O10_2 O 0.4919(4) 0.3445(3) 0.7088(3)
N1_2 N 0.7341(3) 0.6392(3) 0.4821(3)
O11_2 O 0.7123(3) 0.4390(4) 0.6713(3)
C2_2 C 0.2986(4) 0.0937(3) 0.7587(3)
C3_2 C 0.2007(4) 0.0469(3) 0.8498(3)
C4_2 C 0.8279(4) 0.2687(3) 0.9185(3)
C5_2 C 0.4300(4) 0.2268(3) 0.6625(3)
C6_2 C 0.3406(4) 0.1814(3) 0.7500(3)
H1_2 H 0.3088 0.2101 0.8029
C7_2 C 0.7058(4) 0.4014(3) 0.8417(3)
C8_2 C 0.7837(4) 0.3167(3) 0.8396(3)
H2_2 H 0.8067 0.2918 0.7845
N4_2 N 0.5538(4) 0.6854(3) 0.6361(3)
C11_2 C 0.9036(4) 0.1729(3) 0.9195(3)
C12_2 C 0.4834(4) 0.1792(4) 0.5874(3)
H3_2 H 0.5436 0.2082 0.5295
C14_2 C 0.3526(4) 0.0477(4) 0.6818(4)
C15_2 C 0.6560(4) 0.4469(3) 0.7582(4)
C17_2 C 0.7356(4) 0.7245(4) 0.5033(4)
C18_2 C 0.7977(4) 0.3094(4) 0.9977(4)
C19_2 C 0.6739(5) 0.4399(4) 0.9233(4)
H7_2 H 0.6208 0.4956 0.9264
C20_2 C 0.7214(5) 0.3953(4) 0.9993(4)
C21_2 C 0.6431(4) 0.7474(4) 0.5870(4)
C24_2 C 0.3524(5) 0.2763(5) 0.9697(4)
C27_2 C 0.4472(5) 0.0886(4) 0.5983(4)
H10_2 H 0.4860 0.0551 0.5498
C28_2 C 0.8227(5) 0.7931(5) 0.4449(5)
C29_2 C 0.4687(5) 0.7054(4) 0.7144(4)
H11_2 H 0.4088 0.6631 0.7487
C33_2 C 0.2015(6) 0.3806(4) 0.9120(5)
H14_2 H 0.1728 0.4414 0.8756
C34_2 C 0.6440(6) 0.8324(4) 0.6147(5)
C35_2 C 0.9095(5) 0.6862(6) 0.3397(5)
H15_2 H 0.9663 0.6717 0.2832
C36_2 C 0.8177(6) 0.8804(5) 0.4726(5)
H16_2 H 0.8744 0.9255 0.4334
C37_2 C 0.4634(7) 0.7865(5) 0.7489(5)
H17_2 H 0.4012 0.7982 0.8038
C38_2 C 0.8211(4) 0.6205(5) 0.4029(4)
H18_2 H 0.8238 0.5613 0.3887
C39_2 C 0.1334(5) 0.2971(4) 0.9668(5)
H19_2 H 0.0589 0.3052 0.9656
C40_2 C 0.9108(5) 0.7713(5) 0.3620(5)
H20_2 H 0.9698 0.8141 0.3223
C42_2 C 0.3108(6) 0.3688(5) 0.9142(5)
H22_2 H 0.3578 0.4222 0.8789
C44_2 C 0.7324(6) 0.8994(5) 0.5543(6)
H24_2 H 0.7317 0.9567 0.5712
C45_2 C 0.4619(6) 0.2615(7) 0.9758(6)
H25_2 H 0.5090 0.3149 0.9435
C47_2 C 0.5533(7) 0.8489(5) 0.6992(5)
H27_2 H 0.5531 0.9019 0.7221
O16 O 0.6928(3) 0.4377(3) 0.4795(3)
C31_2 C 0.2836(6) 0.9367(5) 0.1772(5)
H12_2 H 0.2334 0.8857 0.2120
C43_2 C 0.3939(7) 0.9163(6) 0.1840(6)
H23_2 H 0.4169 0.8525 0.2203
C48_2 C 0.4676(6) 0.9914(7) 0.1367(6)
H28_2 H 0.5406 0.9800 0.1418
O2_2 O 0.9296(3) 0.1791(3) 0.1761(3)
C9_2 C 0.6971(4) 0.3923(4) 0.4196(3)
C10_2 C 0.8948(4) 0.1714(4) 0.3470(4)
C13_2 C 0.9480(4) 0.1303(4) 0.2577(4)
C16_2 C 0.8189(4) 0.2574(4) 0.3421(3)
H5_2 H 0.7972 0.2883 0.2847
C22_2 C 0.7754(4) 0.2973(4) 0.4233(3)
C26_2 C 0.9229(5) 0.1229(4) 0.4342(4)
H9_2 H 0.9726 0.0646 0.4377
C32_2 C 0.8771(5) 0.1609(5) 0.5166(4)
H13_2 H 0.8941 0.1269 0.5760
C41_2 C 0.8067(5) 0.2485(4) 0.5101(4)
H21_2 H 0.7797 0.2758 0.5639
Eu2 Eu 0.948456(16) 0.946140(14) 0.907029(14)
O8_2 O 0.9910(3) 0.9529(3) 0.7314(3)
N2_2 N 0.7534(4) 0.9759(3) 0.8758(3)
N3_2 N 0.8314(4) 0.7919(3) 0.9803(3)
H6_2 H 0.1717 0.7207 0.9501
H8_2 H 0.2977 0.5773 0.9478
C23_2 C 0.6807(4) 0.9002(4) 0.9231(4)
C25_2 C 0.7231(4) 0.8035(4) 0.9785(4)
C30_2 C 0.5686(5) 0.9140(5) 0.9197(5)
C46_2 C 0.4975(5) 0.8302(7) 0.9717(6)
H26_2 H 0.4233 0.8381 0.9696
H4_2 H 0.3252 0.9895 0.6864
loop_
_geom_bond_atom_site_label_1
_geom_bond_atom_site_label_2
_geom_bond_site_symmetry_1
_geom_bond_site_symmetry_2
O8 Eu8 1_555 1_555
N2 Eu8 1_555 1_555
N3 Eu8 1_555 1_555
C23 N2 1_555 1_555
C25 N3 1_555 1_555
C30 C23 1_555 1_555
C46 C30 1_555 1_555
H26 C46 1_555 1_555
C23 C25 1_555 1_555
O2 C13 1_555 1_555
O6 C9 1_555 1_555
O7 C9 1_555 1_555
C9 C22 1_555 1_555
C10 C13 1_555 1_555
C16 C10 1_555 1_555
H5 C16 1_555 1_555
C22 C16 1_555 1_555
C26 C10 1_555 1_555
H9 C26 1_555 1_555
C32 C26 1_555 1_555
H13 C32 1_555 1_555
C41 C22 1_555 1_555
H21 C41 1_555 1_555
Eu3 O7 1_555 1_555
Eu5 O6 1_555 1_555
C32 C41 1_555 1_555
H12 C31 1_555 1_555
C43 C31 1_555 1_555
H23 C43 1_555 1_555
H28 C48 1_555 1_555
C43 C48 1_555 1_555
Eu3 O1 1_555 1_555
O1 C15 1_555 1_555
O3 Eu3 1_555 1_555
O5 C3 1_555 1_555
O17 C11 1_555 1_555
C1 O3 1_555 1_555
O10 Eu3 1_555 1_555
N1 Eu3 1_555 1_555
O11 Eu3 1_555 1_555
C2 C3 1_555 1_555
C3 O4 1_555 1_555
O12 C11 1_555 1_555
C4 C8 1_555 1_555
C5 C1 1_555 1_555
C6 C2 1_555 1_555
H1 C6 1_555 1_555
C7 C8 1_555 1_555
C8 H2 1_555 1_555
N4 Eu3 1_555 1_555
C11 C4 1_555 1_555
C12 C5 1_555 1_555
H3 C12 1_555 1_555
C14 C2 1_555 1_555
C15 O11 1_555 1_555
C17 N1 1_555 1_555
C18 C4 1_555 1_555
C19 C7 1_555 1_555
H7 C19 1_555 1_555
C20 C18 1_555 1_555
C21 N4 1_555 1_555
C27 C12 1_555 1_555
H10 C27 1_555 1_555
C28 C17 1_555 1_555
C29 N4 1_555 1_555
H11 C29 1_555 1_555
C33 H14 1_555 1_555
C34 C21 1_555 1_555
C35 H15 1_555 1_555
C36 C28 1_555 1_555
H16 C36 1_555 1_555
C37 C29 1_555 1_555
H17 C37 1_555 1_555
C38 N1 1_555 1_555
H18 C38 1_555 1_555
H19 C39 1_555 1_555
C40 C28 1_555 1_555
H20 C40 1_555 1_555
C42 C24 1_555 1_555
H22 C42 1_555 1_555
C44 C34 1_555 1_555
H24 C44 1_555 1_555
C45 C24 1_555 1_555
H25 C45 1_555 1_555
C47 C34 1_555 1_555
H27 C47 1_555 1_555
Eu5 O3 1_555 1_555
O13 Eu3 1_555 1_555
O15 Eu3 1_555 1_555
C1 O10 1_555 1_555
C5 C6 1_555 1_555
C7 C15 1_555 1_555
C14 C27 1_555 1_555
C17 C21 1_555 1_555
C19 C20 1_555 1_555
C33 C39 1_555 1_555
C33 C42 1_555 1_555
C35 C38 1_555 1_555
C35 C40 1_555 1_555
C36 C44 1_555 1_555
C37 C47 1_555 1_555
Eu5 O13 1_555 1_555
Eu5 O1_2 1_555 1_555
O1_2 C15_2 1_555 1_555
O14 C3_2 1_555 1_555
O9 C11_2 1_555 1_555
C1_2 O13 1_555 1_555
O10_2 Eu5 1_555 1_555
N1_2 Eu5 1_555 1_555
O11_2 Eu5 1_555 1_555
C2_2 C3_2 1_555 1_555
C3_2 O4_2 1_555 1_555
O18 C11_2 1_555 1_555
C4_2 C8_2 1_555 1_555
C5_2 C1_2 1_555 1_555
C6_2 C2_2 1_555 1_555
H1_2 C6_2 1_555 1_555
C7_2 C8_2 1_555 1_555
C8_2 H2_2 1_555 1_555
N4_2 Eu5 1_555 1_555
C11_2 C4_2 1_555 1_555
C12_2 C5_2 1_555 1_555
H3_2 C12_2 1_555 1_555
C14_2 C2_2 1_555 1_555
C15_2 O11_2 1_555 1_555
C17_2 N1_2 1_555 1_555
C18_2 C4_2 1_555 1_555
C19_2 C7_2 1_555 1_555
H7_2 C19_2 1_555 1_555
C20_2 C18_2 1_555 1_555
C21_2 N4_2 1_555 1_555
C27_2 C12_2 1_555 1_555
H10_2 C27_2 1_555 1_555
C28_2 C17_2 1_555 1_555
C29_2 N4_2 1_555 1_555
H11_2 C29_2 1_555 1_555
C33_2 H14_2 1_555 1_555
C34_2 C21_2 1_555 1_555
C35_2 H15_2 1_555 1_555
C36_2 C28_2 1_555 1_555
H16_2 C36_2 1_555 1_555
C37_2 C29_2 1_555 1_555
H17_2 C37_2 1_555 1_555
C38_2 N1_2 1_555 1_555
H18_2 C38_2 1_555 1_555
H19_2 C39_2 1_555 1_555
C40_2 C28_2 1_555 1_555
H20_2 C40_2 1_555 1_555
C42_2 C24_2 1_555 1_555
H22_2 C42_2 1_555 1_555
C44_2 C34_2 1_555 1_555
H24_2 C44_2 1_555 1_555
C45_2 C24_2 1_555 1_555
H25_2 C45_2 1_555 1_555
C47_2 C34_2 1_555 1_555
H27_2 C47_2 1_555 1_555
O16 Eu5 1_555 1_555
C1_2 O10_2 1_555 1_555
C5_2 C6_2 1_555 1_555
C7_2 C15_2 1_555 1_555
C14_2 C27_2 1_555 1_555
C17_2 C21_2 1_555 1_555
C19_2 C20_2 1_555 1_555
C33_2 C39_2 1_555 1_555
C33_2 C42_2 1_555 1_555
C35_2 C38_2 1_555 1_555
C35_2 C40_2 1_555 1_555
C36_2 C44_2 1_555 1_555
C37_2 C47_2 1_555 1_555
H12_2 C31_2 1_555 1_555
C43_2 C31_2 1_555 1_555
H23_2 C43_2 1_555 1_555
H28_2 C48_2 1_555 1_555
C43_2 C48_2 1_555 1_555
O2_2 C13_2 1_555 1_555
O15 C9_2 1_555 1_555
O16 C9_2 1_555 1_555
C9_2 C22_2 1_555 1_555
C10_2 C13_2 1_555 1_555
C16_2 C10_2 1_555 1_555
H5_2 C16_2 1_555 1_555
C22_2 C16_2 1_555 1_555
C26_2 C10_2 1_555 1_555
H9_2 C26_2 1_555 1_555
C32_2 C26_2 1_555 1_555
H13_2 C32_2 1_555 1_555
C41_2 C22_2 1_555 1_555
H21_2 C41_2 1_555 1_555
C32_2 C41_2 1_555 1_555
O8_2 Eu2 1_555 1_555
N2_2 Eu2 1_555 1_555
N3_2 Eu2 1_555 1_555
C23_2 N2_2 1_555 1_555
C25_2 N3_2 1_555 1_555
C30_2 C23_2 1_555 1_555
C46_2 C30_2 1_555 1_555
H26_2 C46_2 1_555 1_555
C23_2 C25_2 1_555 1_555

#END
