
###############################################################################
#
# This file contains modified crystal structure data generated from the
# MOF subset of the Cambridge Structural Database (CSD) v543 
# hosted by the Cambridge Crystallographic Data Centre (CCDC).
#
# This work is licensed under the Creative Commons
# Attribution-NonCommercial-ShareAlike 4.0 International License.
# To view a copy of this license, visit
# http://creativecommons.org/licenses/by-nc-sa/4.0/
# or send a letter to
# Creative Commons, PO Box 1866, Mountain View, CA 94042, USA.
#
# CIF created using the CSD Python API on 29 September 2022
# The structure has been converted into the P1 space group
# The structure has a 3D framework
# The original CSD entry KUNMUD is in the tetragonal crystal system
# The original CSD entry KUNMUD is in a Sohncke space group
# The framework has been calculated to contain at least 10.0% void space
# The void calculation uses a probe of radius 1.32A, grid spacing 0.4
# The framework is charged, counterions have been retained in the structure
#
###############################################################################

data_KUNMUD
_chemical_formula_moiety         '(C192 H144 Cd2 N48 4+)n'
_symmetry_cell_setting           triclinic
_symmetry_space_group_name_H-M   'P 1'
_symmetry_Int_Tables_number      1
_space_group_name_Hall           'P 1'
loop_
_symmetry_equiv_pos_site_id
_symmetry_equiv_pos_as_xyz
1 x,y,z
_cell_length_a                   15.9333(6)
_cell_length_b                   15.9333(6)
_cell_length_c                   21.1312(14)
_cell_angle_alpha                90
_cell_angle_beta                 90
_cell_angle_gamma                90
_cell_volume                     5364.58
loop_
_atom_site_label
_atom_site_type_symbol
_atom_site_fract_x
_atom_site_fract_y
_atom_site_fract_z
C1 C 0.3019(7) 0.4306(7) 0.1900(5)
H1 H 0.3403 0.4379 0.1574
C2 C 0.2534(7) 0.4653(8) 0.2888(5)
H2 H 0.2575 0.4966 0.3259
C3 C 0.1881(7) 0.4104(8) 0.2826(5)
H3 H 0.1492 0.4058 0.3152
C4 C 0.1782(8) 0.3607(8) 0.2283(5)
C5 C 0.2389(7) 0.3749(7) 0.1816(5)
H4 H 0.2358 0.3453 0.1438
C6 C 0.1122(7) 0.2964(7) 0.2223(5)
C7 C 0.0373(8) 0.3004(8) 0.2580(6)
H5 H 0.0287 0.3449 0.2857
C10 C 0.0633(7) 0.1663(7) 0.1772(5)
C11 C 0.1228(7) 0.2276(7) 0.1828(5)
H8 H 0.1720 0.2230 0.1594
C12 C 0.0712(7) 0.0941(6) 0.1337(4)
N2 N 0.0079(6) 0.0547(6) 0.1089(4)
N3 N 0.1448(5) 0.0594(6) 0.1110(4)
N4 N 0.2259(6) 0.0831(7) 0.1295(5)
H17 H 0.2557 0.0372 0.1379
H18 H 0.2503 0.1115 0.0982
N5 N 0.3120(6) 0.4763(6) 0.2437(4)
H27 H 0.0102 0.1981 0.0425
Cd5 Cd 0.43977(4) 0.56023(4) 0.2500
H9 H 0.1981 0.0102 0.9575
C25 C 0.4306(7) 0.3019(7) 0.8100(5)
H19 H 0.4379 0.3403 0.8426
C26 C 0.4653(8) 0.2534(7) 0.7112(5)
H20 H 0.4966 0.2575 0.6741
C27 C 0.4104(8) 0.1881(7) 0.7174(5)
H21 H 0.4058 0.1492 0.6848
C28 C 0.3607(8) 0.1782(8) 0.7717(5)
C29 C 0.3749(7) 0.2389(7) 0.8184(5)
H22 H 0.3453 0.2358 0.8562
C30 C 0.2964(7) 0.1122(7) 0.7777(5)
C31 C 0.3004(8) 0.0373(8) 0.7420(6)
H23 H 0.3449 0.0287 0.7143
C34 C 0.1663(7) 0.0633(7) 0.8228(5)
C35 C 0.2276(7) 0.1228(7) 0.8172(5)
H26 H 0.2230 0.1720 0.8406
C36 C 0.0941(6) 0.0712(7) 0.8663(4)
N8 N 0.0547(6) 0.0079(6) 0.8911(4)
N9 N 0.0594(6) 0.1448(5) 0.8890(4)
N10 N 0.0831(7) 0.2259(6) 0.8705(5)
H35 H 0.0372 0.2557 0.8621
H36 H 0.1115 0.2503 0.9018
N11 N 0.4763(6) 0.3120(6) 0.7563(4)
Cd3 Cd 0.56023(4) 0.43977(4) 0.7500
C13 C 0.1231(7) 0.9967(7) 0.0702(4)
C14 C 0.1847(7) 0.9425(8) 0.0395(5)
C18 C 0.2746(7) 0.8200(7) 0.0449(5)
C19 C 0.2138(7) 0.8719(7) 0.0709(5)
H12 H 0.1921 0.8590 0.1106
C20 C 0.3059(7) 0.7464(7) 0.0810(5)
C21 C 0.2623(8) 0.7175(8) 0.1348(5)
H13 H 0.2100 0.7397 0.1451
C22 C 0.2986(8) 0.6548(8) 0.1727(6)
H14 H 0.2692 0.6371 0.2083
C23 C 0.4101(7) 0.6422(7) 0.1067(5)
H15 H 0.4599 0.6158 0.0955
C24 C 0.3772(7) 0.7045(7) 0.0668(5)
H16 H 0.4052 0.7173 0.0295
N1 N 0.0396(6) 0.9924(6) 0.0684(4)
N6 N 0.3716(6) 0.6196(6) 0.1609(4)
C15 C 0.2171(9) 0.9631(9) 0.9793(5)
C16 C 0.2782(8) 0.9112(9) 0.9534(5)
H10 H 0.3010 0.9243 0.9141
C17 C 0.3057(8) 0.8403(8) 0.9852(5)
H11 H 0.3455 0.8057 0.9664
C32 C 0.2403(9) 0.9784(8) 0.7479(7)
H24 H 0.2449 0.9292 0.7244
C33 C 0.1710(9) 0.9888(9) 0.7883(5)
H25 H 0.1299 0.9476 0.7918
N13 N 0.0237(6) 0.8120(6) 0.9937(4)
C8 C 0.9784(8) 0.2403(9) 0.2521(7)
H6 H 0.9292 0.2449 0.2756
C9 C 0.9888(9) 0.1710(9) 0.2117(5)
H7 H 0.9476 0.1299 0.2082
C39 C 0.9631(9) 0.2171(9) 0.0207(5)
C40 C 0.9112(9) 0.2782(8) 0.0466(5)
H28 H 0.9243 0.3010 0.0859
C41 C 0.8403(8) 0.3057(8) 0.0148(5)
H29 H 0.8057 0.3455 0.0336
N14 N 0.8120(6) 0.0237(6) 0.0063(4)
C37 C 0.9967(7) 0.1231(7) 0.9298(4)
C38 C 0.9425(8) 0.1847(7) 0.9605(5)
C42 C 0.8200(7) 0.2746(7) 0.9551(5)
C43 C 0.8719(7) 0.2138(7) 0.9291(5)
H30 H 0.8590 0.1921 0.8894
C44 C 0.7464(7) 0.3059(7) 0.9190(5)
C45 C 0.7175(8) 0.2623(8) 0.8652(5)
H31 H 0.7397 0.2100 0.8549
C46 C 0.6548(8) 0.2986(8) 0.8273(6)
H32 H 0.6371 0.2692 0.7917
C47 C 0.6422(7) 0.4101(7) 0.8933(5)
H33 H 0.6158 0.4599 0.9045
C48 C 0.7045(7) 0.3772(7) 0.9332(5)
H34 H 0.7173 0.4052 0.9705
N7 N 0.9924(6) 0.0396(6) 0.9316(4)
N12 N 0.6196(6) 0.3716(6) 0.8391(4)
Cd1 Cd 0.93977(4) 0.93977(4) 0.0000
N16 N 0.8716(6) 0.8804(6) 0.0891(4)
Cd1_2 Cd 0.93977(4) 0.93977(4) 1.0000
N15 N 0.8804(6) 0.8716(6) 0.9109(4)
Cd1_3 Cd 0.06023(4) 0.06023(4) 0.5000
N15_2 N 0.1196(6) 0.1284(6) 0.4109(4)
N16_2 N 0.1284(6) 0.1196(6) 0.5891(4)
C8_2 C 0.0216(8) 0.7597(9) 0.7521(7)
H6_2 H 0.0708 0.7551 0.7756
C9_2 C 0.0112(9) 0.8290(9) 0.7117(5)
H7_2 H 0.0524 0.8701 0.7082
C37_2 C 0.0033(7) 0.8769(7) 0.4298(4)
C38_2 C 0.0575(8) 0.8153(7) 0.4605(5)
C39_2 C 0.0369(9) 0.7829(9) 0.5207(5)
C40_2 C 0.0888(9) 0.7218(8) 0.5466(5)
H28_2 H 0.0757 0.6990 0.5859
C41_2 C 0.1597(8) 0.6943(8) 0.5148(5)
H29_2 H 0.1943 0.6545 0.5336
C42_2 C 0.1800(7) 0.7254(7) 0.4551(5)
C43_2 C 0.1281(7) 0.7862(7) 0.4291(5)
H30_2 H 0.1410 0.8079 0.3894
C44_2 C 0.2536(7) 0.6941(7) 0.4190(5)
C45_2 C 0.2825(8) 0.7377(8) 0.3652(5)
H31_2 H 0.2603 0.7900 0.3549
C46_2 C 0.3452(8) 0.7014(8) 0.3273(6)
H32_2 H 0.3629 0.7308 0.2917
C47_2 C 0.3578(7) 0.5899(7) 0.3933(5)
H33_2 H 0.3842 0.5401 0.4045
C48_2 C 0.2955(7) 0.6228(7) 0.4332(5)
H34_2 H 0.2827 0.5948 0.4705
N7_2 N 0.0076(6) 0.9604(6) 0.4316(4)
N12_2 N 0.3804(6) 0.6284(6) 0.3391(4)
N14_2 N 0.1880(6) 0.9763(6) 0.5063(4)
C13_2 C 0.8769(7) 0.0033(7) 0.5702(4)
C14_2 C 0.8153(7) 0.0575(8) 0.5395(5)
C15_2 C 0.7829(9) 0.0369(9) 0.4793(5)
C16_2 C 0.7218(8) 0.0888(9) 0.4534(5)
H10_2 H 0.6990 0.0757 0.4141
C17_2 C 0.6943(8) 0.1597(8) 0.4852(5)
H11_2 H 0.6545 0.1943 0.4664
C18_2 C 0.7254(7) 0.1800(7) 0.5449(5)
C19_2 C 0.7862(7) 0.1281(7) 0.5709(5)
H12_2 H 0.8079 0.1410 0.6106
C20_2 C 0.6941(7) 0.2536(7) 0.5810(5)
C21_2 C 0.7377(8) 0.2825(8) 0.6348(5)
H13_2 H 0.7900 0.2603 0.6451
C22_2 C 0.7014(8) 0.3452(8) 0.6727(6)
H14_2 H 0.7308 0.3629 0.7083
C23_2 C 0.5899(7) 0.3578(7) 0.6067(5)
H15_2 H 0.5401 0.3842 0.5955
C24_2 C 0.6228(7) 0.2955(7) 0.5668(5)
H16_2 H 0.5948 0.2827 0.5295
N1_2 N 0.9604(6) 0.0076(6) 0.5684(4)
N6_2 N 0.6284(6) 0.3804(6) 0.6609(4)
C32_2 C 0.7597(9) 0.0216(8) 0.2479(7)
H24_2 H 0.7551 0.0708 0.2244
C33_2 C 0.8290(9) 0.0112(9) 0.2883(5)
H25_2 H 0.8701 0.0524 0.2918
N13_2 N 0.9763(6) 0.1880(6) 0.4937(4)
C1_2 C 0.6981(7) 0.5694(7) 0.6900(5)
H1_2 H 0.6597 0.5621 0.6574
C2_2 C 0.7466(7) 0.5347(8) 0.7888(5)
H2_2 H 0.7425 0.5034 0.8259
C3_2 C 0.8119(7) 0.5896(8) 0.7826(5)
H3_2 H 0.8508 0.5942 0.8152
C4_2 C 0.8218(8) 0.6393(8) 0.7283(5)
C5_2 C 0.7611(7) 0.6251(7) 0.6816(5)
H4_2 H 0.7642 0.6547 0.6438
C6_2 C 0.8878(7) 0.7036(7) 0.7223(5)
C7_2 C 0.9627(8) 0.6996(8) 0.7580(6)
H5_2 H 0.9713 0.6551 0.7857
C10_2 C 0.9367(7) 0.8337(7) 0.6772(5)
C11_2 C 0.8772(7) 0.7724(7) 0.6828(5)
H8_2 H 0.8280 0.7770 0.6594
C12_2 C 0.9288(7) 0.9059(6) 0.6337(4)
H9_2 H 0.8019 0.9898 0.4575
N2_2 N 0.9921(6) 0.9453(6) 0.6089(4)
N3_2 N 0.8552(5) 0.9406(6) 0.6110(4)
N4_2 N 0.7741(6) 0.9169(7) 0.6295(5)
H17_2 H 0.7443 0.9628 0.6379
H18_2 H 0.7497 0.8885 0.5982
N5_2 N 0.6880(6) 0.5237(6) 0.7437(4)
C25_2 C 0.5694(7) 0.6981(7) 0.3100(5)
H19_2 H 0.5621 0.6597 0.3426
C26_2 C 0.5347(8) 0.7466(7) 0.2112(5)
H20_2 H 0.5034 0.7425 0.1741
C27_2 C 0.5896(8) 0.8119(7) 0.2174(5)
H21_2 H 0.5942 0.8508 0.1848
C28_2 C 0.6393(8) 0.8218(8) 0.2717(5)
C29_2 C 0.6251(7) 0.7611(7) 0.3184(5)
H22_2 H 0.6547 0.7642 0.3562
C30_2 C 0.7036(7) 0.8878(7) 0.2777(5)
C31_2 C 0.6996(8) 0.9627(8) 0.2420(6)
H23_2 H 0.6551 0.9713 0.2143
C34_2 C 0.8337(7) 0.9367(7) 0.3228(5)
C35_2 C 0.7724(7) 0.8772(7) 0.3172(5)
H26_2 H 0.7770 0.8280 0.3406
C36_2 C 0.9059(6) 0.9288(7) 0.3663(4)
H27_2 H 0.9898 0.8019 0.5425
N8_2 N 0.9453(6) 0.9921(6) 0.3911(4)
N9_2 N 0.9406(6) 0.8552(5) 0.3890(4)
N10_2 N 0.9169(7) 0.7741(6) 0.3705(5)
H35_2 H 0.9628 0.7443 0.3621
H36_2 H 0.8885 0.7497 0.4018
N11_2 N 0.5237(6) 0.6880(6) 0.2563(4)
C2_3 C 0.0347(8) 0.7534(7) 0.0388(5)
H2_3 H 0.0034 0.7575 0.0759
C3_3 C 0.0896(8) 0.6881(7) 0.0326(5)
H3_3 H 0.0942 0.6492 0.0652
C7_3 C 0.1996(8) 0.5373(8) 0.0080(6)
H5_3 H 0.1551 0.5287 0.0357
C8_3 C 0.2597(9) 0.4784(8) 0.0021(7)
H6_3 H 0.2551 0.4292 0.0256
C1_3 C 0.0694(7) 0.8019(7) 0.9400(5)
H1_3 H 0.0621 0.8403 0.9074
C4_3 C 0.1393(8) 0.6782(8) 0.9783(5)
C5_3 C 0.1251(7) 0.7389(7) 0.9316(5)
H4_3 H 0.1547 0.7358 0.8938
C6_3 C 0.2036(7) 0.6122(7) 0.9723(5)
C9_3 C 0.3290(9) 0.4888(9) 0.9617(5)
H7_3 H 0.3701 0.4476 0.9582
C10_3 C 0.3337(7) 0.5633(7) 0.9272(5)
C11_3 C 0.2724(7) 0.6228(7) 0.9328(5)
H8_3 H 0.2770 0.6720 0.9094
C12_3 C 0.4059(6) 0.5712(7) 0.8837(4)
C13_3 C 0.5033(7) 0.6231(7) 0.8202(4)
C14_3 C 0.5575(8) 0.6847(7) 0.7895(5)
C15_3 C 0.5369(9) 0.7171(9) 0.7293(5)
H9_3 H 0.4898 0.6981 0.7075
C16_3 C 0.5888(9) 0.7782(8) 0.7034(5)
H10_3 H 0.5757 0.8010 0.6641
C17_3 C 0.6597(8) 0.8057(8) 0.7352(5)
H11_3 H 0.6943 0.8455 0.7164
C18_3 C 0.6800(7) 0.7746(7) 0.7949(5)
C19_3 C 0.6281(7) 0.7138(7) 0.8209(5)
H12_3 H 0.6410 0.6921 0.8606
C20_3 C 0.7536(7) 0.8059(7) 0.8310(5)
C21_3 C 0.7825(8) 0.7623(8) 0.8848(5)
H13_3 H 0.7603 0.7100 0.8951
C22_3 C 0.8452(8) 0.7986(8) 0.9227(6)
H14_3 H 0.8629 0.7692 0.9583
C23_3 C 0.8578(7) 0.9101(7) 0.8567(5)
H15_3 H 0.8842 0.9599 0.8455
C24_3 C 0.7955(7) 0.8772(7) 0.8168(5)
H16_3 H 0.7827 0.9052 0.7795
N1_3 N 0.5076(6) 0.5396(6) 0.8184(4)
N2_3 N 0.4453(6) 0.5079(6) 0.8589(4)
N3_3 N 0.4406(6) 0.6448(5) 0.8610(4)
N4_3 N 0.4169(7) 0.7259(6) 0.8795(5)
H17_3 H 0.4628 0.7557 0.8879
H18_3 H 0.3885 0.7503 0.8482
C25_3 C 0.1981(7) 0.9306(7) 0.5600(5)
H19_3 H 0.1597 0.9379 0.5926
C26_3 C 0.2466(7) 0.9653(8) 0.4612(5)
H20_3 H 0.2425 0.9966 0.4241
C27_3 C 0.3119(7) 0.9104(8) 0.4674(5)
H21_3 H 0.3508 0.9058 0.4348
C28_3 C 0.3218(8) 0.8607(8) 0.5217(5)
C29_3 C 0.2611(7) 0.8749(7) 0.5684(5)
H22_3 H 0.2642 0.8453 0.6062
C30_3 C 0.3878(7) 0.7964(7) 0.5277(5)
C31_3 C 0.4627(8) 0.8004(8) 0.4920(6)
H23_3 H 0.4713 0.8449 0.4643
C32_3 C 0.5216(8) 0.7403(9) 0.4979(7)
H24_3 H 0.5708 0.7449 0.4744
C33_3 C 0.5112(9) 0.6710(9) 0.5383(5)
H25_3 H 0.5524 0.6299 0.5418
C34_3 C 0.4367(7) 0.6663(7) 0.5728(5)
C35_3 C 0.3772(7) 0.7276(7) 0.5672(5)
H26_3 H 0.3280 0.7230 0.5906
C36_3 C 0.4288(7) 0.5941(6) 0.6163(4)
C37_3 C 0.3769(7) 0.4967(7) 0.6798(4)
C38_3 C 0.3153(7) 0.4425(8) 0.7105(5)
C39_3 C 0.2829(9) 0.4631(9) 0.7707(5)
H27_3 H 0.3019 0.5102 0.7925
C40_3 C 0.2218(8) 0.4112(9) 0.7966(5)
H28_3 H 0.1990 0.4243 0.8359
C41_3 C 0.1943(8) 0.3403(8) 0.7648(5)
H29_3 H 0.1545 0.3057 0.7836
C42_3 C 0.2254(7) 0.3200(7) 0.7051(5)
C43_3 C 0.2862(7) 0.3719(7) 0.6791(5)
H30_3 H 0.3079 0.3590 0.6394
C44_3 C 0.1941(7) 0.2464(7) 0.6690(5)
C45_3 C 0.2377(8) 0.2175(8) 0.6152(5)
H31_3 H 0.2900 0.2397 0.6049
C46_3 C 0.2014(8) 0.1548(8) 0.5773(6)
H32_3 H 0.2308 0.1371 0.5417
C47_3 C 0.0899(7) 0.1422(7) 0.6433(5)
H33_3 H 0.0401 0.1158 0.6545
C48_3 C 0.1228(7) 0.2045(7) 0.6832(5)
H34_3 H 0.0948 0.2173 0.7205
N7_3 N 0.4604(6) 0.4924(6) 0.6816(4)
N8_3 N 0.4921(6) 0.5547(6) 0.6411(4)
N9_3 N 0.3552(5) 0.5594(6) 0.6390(4)
N10_3 N 0.2741(6) 0.5831(7) 0.6205(5)
H35_3 H 0.2443 0.5372 0.6121
H36_3 H 0.2497 0.6115 0.6518
C1_4 C 0.9306(7) 0.1981(7) 0.4400(5)
H1_4 H 0.9379 0.1597 0.4074
C2_4 C 0.9653(8) 0.2466(7) 0.5388(5)
H2_4 H 0.9966 0.2425 0.5759
C3_4 C 0.9104(8) 0.3119(7) 0.5326(5)
H3_4 H 0.9058 0.3508 0.5652
C4_4 C 0.8607(8) 0.3218(8) 0.4783(5)
C5_4 C 0.8749(7) 0.2611(7) 0.4316(5)
H4_4 H 0.8453 0.2642 0.3938
C6_4 C 0.7964(7) 0.3878(7) 0.4723(5)
C7_4 C 0.8004(8) 0.4627(8) 0.5080(6)
H5_4 H 0.8449 0.4713 0.5357
C8_4 C 0.7403(9) 0.5216(8) 0.5021(7)
H6_4 H 0.7449 0.5708 0.5256
C9_4 C 0.6710(9) 0.5112(9) 0.4617(5)
H7_4 H 0.6299 0.5524 0.4582
C10_4 C 0.6663(7) 0.4367(7) 0.4272(5)
C11_4 C 0.7276(7) 0.3772(7) 0.4328(5)
H8_4 H 0.7230 0.3280 0.4094
C12_4 C 0.5941(6) 0.4288(7) 0.3837(4)
C13_4 C 0.4967(7) 0.3769(7) 0.3202(4)
C14_4 C 0.4425(8) 0.3153(7) 0.2895(5)
C15_4 C 0.4631(9) 0.2829(9) 0.2293(5)
H9_4 H 0.5102 0.3019 0.2075
C16_4 C 0.4112(9) 0.2218(8) 0.2034(5)
H10_4 H 0.4243 0.1990 0.1641
C17_4 C 0.3403(8) 0.1943(8) 0.2352(5)
H11_4 H 0.3057 0.1545 0.2164
C18_4 C 0.3200(7) 0.2254(7) 0.2949(5)
C19_4 C 0.3719(7) 0.2862(7) 0.3209(5)
H12_4 H 0.3590 0.3079 0.3606
C20_4 C 0.2464(7) 0.1941(7) 0.3310(5)
C21_4 C 0.2175(8) 0.2377(8) 0.3848(5)
H13_4 H 0.2397 0.2900 0.3951
C22_4 C 0.1548(8) 0.2014(8) 0.4227(6)
H14_4 H 0.1371 0.2308 0.4583
C23_4 C 0.1422(7) 0.0899(7) 0.3567(5)
H15_4 H 0.1158 0.0401 0.3455
C24_4 C 0.2045(7) 0.1228(7) 0.3168(5)
H16_4 H 0.2173 0.0948 0.2795
N1_4 N 0.4924(6) 0.4604(6) 0.3184(4)
N2_4 N 0.5547(6) 0.4921(6) 0.3589(4)
N3_4 N 0.5594(6) 0.3552(5) 0.3610(4)
N4_4 N 0.5831(7) 0.2741(6) 0.3795(5)
H17_4 H 0.5372 0.2443 0.3879
H18_4 H 0.6115 0.2497 0.3482
C25_4 C 0.8019(7) 0.0694(7) 0.0600(5)
H19_4 H 0.8403 0.0621 0.0926
C28_4 C 0.6782(8) 0.1393(8) 0.0217(5)
C29_4 C 0.7389(7) 0.1251(7) 0.0684(5)
H22_4 H 0.7358 0.1547 0.1062
C30_4 C 0.6122(7) 0.2036(7) 0.0277(5)
C33_4 C 0.4888(9) 0.3290(9) 0.0383(5)
H25_4 H 0.4476 0.3701 0.0418
C34_4 C 0.5633(7) 0.3337(7) 0.0728(5)
C35_4 C 0.6228(7) 0.2724(7) 0.0672(5)
H26_4 H 0.6720 0.2770 0.0906
C36_4 C 0.5712(7) 0.4059(6) 0.1163(4)
C37_4 C 0.6231(7) 0.5033(7) 0.1798(4)
C38_4 C 0.6847(7) 0.5575(8) 0.2105(5)
C39_4 C 0.7171(9) 0.5369(9) 0.2707(5)
H27_4 H 0.6981 0.4898 0.2925
C40_4 C 0.7782(8) 0.5888(9) 0.2966(5)
H28_4 H 0.8010 0.5757 0.3359
C41_4 C 0.8057(8) 0.6597(8) 0.2648(5)
H29_4 H 0.8455 0.6943 0.2836
C42_4 C 0.7746(7) 0.6800(7) 0.2051(5)
C43_4 C 0.7138(7) 0.6281(7) 0.1791(5)
H30_4 H 0.6921 0.6410 0.1394
C44_4 C 0.8059(7) 0.7536(7) 0.1690(5)
C45_4 C 0.7623(8) 0.7825(8) 0.1152(5)
H31_4 H 0.7100 0.7603 0.1049
C46_4 C 0.7986(8) 0.8452(8) 0.0773(6)
H32_4 H 0.7692 0.8629 0.0417
C47_4 C 0.9101(7) 0.8578(7) 0.1433(5)
H33_4 H 0.9599 0.8842 0.1545
C48_4 C 0.8772(7) 0.7955(7) 0.1832(5)
H34_4 H 0.9052 0.7827 0.2205
N7_4 N 0.5396(6) 0.5076(6) 0.1816(4)
N8_4 N 0.5079(6) 0.4453(6) 0.1411(4)
N9_4 N 0.6448(5) 0.4406(6) 0.1390(4)
N10_4 N 0.7259(6) 0.4169(7) 0.1205(5)
H35_4 H 0.7557 0.4628 0.1121
H36_4 H 0.7503 0.3885 0.1518
C26_4 C 0.7534(7) 0.0347(8) 0.9612(5)
H20_4 H 0.7575 0.0034 0.9241
C27_4 C 0.6881(7) 0.0896(8) 0.9674(5)
H21_4 H 0.6492 0.0942 0.9348
C31_4 C 0.5373(8) 0.1996(8) 0.9920(6)
H23_4 H 0.5287 0.1551 0.9643
C32_4 C 0.4784(8) 0.2597(9) 0.9979(7)
H24_4 H 0.4292 0.2551 0.9744
loop_
_geom_bond_atom_site_label_1
_geom_bond_atom_site_label_2
_geom_bond_site_symmetry_1
_geom_bond_site_symmetry_2
C1 H1 1_555 1_555
C2 H2 1_555 1_555
C3 C2 1_555 1_555
H3 C3 1_555 1_555
C4 C3 1_555 1_555
C5 C1 1_555 1_555
H4 C5 1_555 1_555
C6 C4 1_555 1_555
C7 C6 1_555 1_555
H5 C7 1_555 1_555
C11 C6 1_555 1_555
H8 C11 1_555 1_555
C12 C10 1_555 1_555
N2 C12 1_555 1_555
N3 C12 1_555 1_555
N4 N3 1_555 1_555
H17 N4 1_555 1_555
H18 N4 1_555 1_555
N5 C1 1_555 1_555
Cd5 N5 1_555 1_555
C2 N5 1_555 1_555
C4 C5 1_555 1_555
C10 C11 1_555 1_555
C25 H19 1_555 1_555
C26 H20 1_555 1_555
C27 C26 1_555 1_555
H21 C27 1_555 1_555
C28 C27 1_555 1_555
C29 C25 1_555 1_555
H22 C29 1_555 1_555
C30 C28 1_555 1_555
C31 C30 1_555 1_555
H23 C31 1_555 1_555
C35 C30 1_555 1_555
H26 C35 1_555 1_555
C36 C34 1_555 1_555
N8 C36 1_555 1_555
N9 C36 1_555 1_555
N10 N9 1_555 1_555
H35 N10 1_555 1_555
H36 N10 1_555 1_555
N11 C25 1_555 1_555
Cd3 N11 1_555 1_555
C26 N11 1_555 1_555
C28 C29 1_555 1_555
C34 C35 1_555 1_555
C13 C14 1_555 1_555
C19 C14 1_555 1_555
H12 C19 1_555 1_555
C20 C18 1_555 1_555
C21 C20 1_555 1_555
H13 C21 1_555 1_555
C22 C21 1_555 1_555
H14 C22 1_555 1_555
C23 H15 1_555 1_555
C24 C20 1_555 1_555
H16 C24 1_555 1_555
N1 C13 1_555 1_555
N6 C22 1_555 1_555
Cd5 N6 1_555 1_555
C18 C19 1_555 1_555
C23 C24 1_555 1_555
C23 N6 1_555 1_555
C16 C15 1_555 1_555
H10 C16 1_555 1_555
C17 C16 1_555 1_555
H11 C17 1_555 1_555
H24 C32 1_555 1_555
C33 C32 1_555 1_555
H25 C33 1_555 1_555
H6 C8 1_555 1_555
C9 C8 1_555 1_555
H7 C9 1_555 1_555
C40 C39 1_555 1_555
H28 C40 1_555 1_555
C41 C40 1_555 1_555
H29 C41 1_555 1_555
C37 C38 1_555 1_555
C43 C38 1_555 1_555
H30 C43 1_555 1_555
C44 C42 1_555 1_555
C45 C44 1_555 1_555
H31 C45 1_555 1_555
C46 C45 1_555 1_555
H32 C46 1_555 1_555
C47 H33 1_555 1_555
C48 C44 1_555 1_555
H34 C48 1_555 1_555
N12 C46 1_555 1_555
Cd3 N12 1_555 1_555
C37 N7 1_555 1_555
C42 C43 1_555 1_555
C47 C48 1_555 1_555
C47 N12 1_555 1_555
N16 Cd1 1_555 1_555
N15 Cd1_2 1_555 1_555
N15_2 Cd1_3 1_555 1_555
N16_2 Cd1_3 1_555 1_555
H6_2 C8_2 1_555 1_555
C9_2 C8_2 1_555 1_555
H7_2 C9_2 1_555 1_555
C37_2 C38_2 1_555 1_555
C38_2 C39_2 1_555 1_555
C40_2 C39_2 1_555 1_555
H28_2 C40_2 1_555 1_555
C41_2 C40_2 1_555 1_555
H29_2 C41_2 1_555 1_555
C42_2 C41_2 1_555 1_555
C43_2 C38_2 1_555 1_555
H30_2 C43_2 1_555 1_555
C44_2 C42_2 1_555 1_555
C45_2 C44_2 1_555 1_555
H31_2 C45_2 1_555 1_555
C46_2 C45_2 1_555 1_555
H32_2 C46_2 1_555 1_555
C47_2 H33_2 1_555 1_555
C48_2 C44_2 1_555 1_555
H34_2 C48_2 1_555 1_555
N12_2 C46_2 1_555 1_555
Cd5 N12_2 1_555 1_555
C37_2 N7_2 1_555 1_555
C42_2 C43_2 1_555 1_555
C47_2 C48_2 1_555 1_555
C47_2 N12_2 1_555 1_555
C13_2 C14_2 1_555 1_555
C14_2 C15_2 1_555 1_555
C16_2 C15_2 1_555 1_555
H10_2 C16_2 1_555 1_555
C17_2 C16_2 1_555 1_555
H11_2 C17_2 1_555 1_555
C18_2 C17_2 1_555 1_555
C19_2 C14_2 1_555 1_555
H12_2 C19_2 1_555 1_555
C20_2 C18_2 1_555 1_555
C21_2 C20_2 1_555 1_555
H13_2 C21_2 1_555 1_555
C22_2 C21_2 1_555 1_555
H14_2 C22_2 1_555 1_555
C23_2 H15_2 1_555 1_555
C24_2 C20_2 1_555 1_555
H16_2 C24_2 1_555 1_555
N1_2 C13_2 1_555 1_555
N6_2 C22_2 1_555 1_555
H24_2 C32_2 1_555 1_555
C33_2 C32_2 1_555 1_555
H25_2 C33_2 1_555 1_555
Cd3 N6_2 1_555 1_555
C18_2 C19_2 1_555 1_555
C23_2 C24_2 1_555 1_555
C23_2 N6_2 1_555 1_555
C1_2 H1_2 1_555 1_555
C2_2 H2_2 1_555 1_555
C3_2 C2_2 1_555 1_555
H3_2 C3_2 1_555 1_555
C4_2 C3_2 1_555 1_555
C5_2 C1_2 1_555 1_555
H4_2 C5_2 1_555 1_555
C6_2 C4_2 1_555 1_555
C7_2 C6_2 1_555 1_555
H5_2 C7_2 1_555 1_555
C11_2 C6_2 1_555 1_555
H8_2 C11_2 1_555 1_555
C12_2 C10_2 1_555 1_555
N2_2 C12_2 1_555 1_555
N3_2 C12_2 1_555 1_555
N4_2 N3_2 1_555 1_555
H17_2 N4_2 1_555 1_555
H18_2 N4_2 1_555 1_555
N5_2 C1_2 1_555 1_555
C25_2 H19_2 1_555 1_555
C26_2 H20_2 1_555 1_555
C27_2 C26_2 1_555 1_555
H21_2 C27_2 1_555 1_555
C28_2 C27_2 1_555 1_555
C29_2 C25_2 1_555 1_555
H22_2 C29_2 1_555 1_555
C30_2 C28_2 1_555 1_555
C31_2 C30_2 1_555 1_555
H23_2 C31_2 1_555 1_555
C35_2 C30_2 1_555 1_555
H26_2 C35_2 1_555 1_555
C36_2 C34_2 1_555 1_555
N8_2 C36_2 1_555 1_555
N9_2 C36_2 1_555 1_555
N10_2 N9_2 1_555 1_555
H35_2 N10_2 1_555 1_555
H36_2 N10_2 1_555 1_555
N11_2 C25_2 1_555 1_555
Cd5 N11_2 1_555 1_555
Cd3 N5_2 1_555 1_555
C2_2 N5_2 1_555 1_555
C4_2 C5_2 1_555 1_555
C10_2 C11_2 1_555 1_555
C26_2 N11_2 1_555 1_555
C28_2 C29_2 1_555 1_555
C34_2 C35_2 1_555 1_555
C2_3 H2_3 1_555 1_555
C3_3 C2_3 1_555 1_555
H3_3 C3_3 1_555 1_555
H5_3 C7_3 1_555 1_555
C8_3 C7_3 1_555 1_555
H6_3 C8_3 1_555 1_555
C1_3 H1_3 1_555 1_555
C5_3 C1_3 1_555 1_555
H4_3 C5_3 1_555 1_555
C6_3 C4_3 1_555 1_555
H7_3 C9_3 1_555 1_555
C10_3 C9_3 1_555 1_555
C11_3 C6_3 1_555 1_555
H8_3 C11_3 1_555 1_555
C12_3 C10_3 1_555 1_555
C13_3 C14_3 1_555 1_555
C14_3 C15_3 1_555 1_555
C15_3 H9_3 1_555 1_555
C16_3 C15_3 1_555 1_555
H10_3 C16_3 1_555 1_555
C17_3 C16_3 1_555 1_555
H11_3 C17_3 1_555 1_555
C18_3 C17_3 1_555 1_555
C19_3 C14_3 1_555 1_555
H12_3 C19_3 1_555 1_555
C20_3 C18_3 1_555 1_555
C21_3 C20_3 1_555 1_555
H13_3 C21_3 1_555 1_555
C22_3 C21_3 1_555 1_555
H14_3 C22_3 1_555 1_555
C23_3 H15_3 1_555 1_555
C24_3 C20_3 1_555 1_555
H16_3 C24_3 1_555 1_555
Cd3 N1_3 1_555 1_555
N1_3 C13_3 1_555 1_555
N2_3 C12_3 1_555 1_555
N3_3 C12_3 1_555 1_555
N4_3 N3_3 1_555 1_555
H17_3 N4_3 1_555 1_555
H18_3 N4_3 1_555 1_555
N13 C1_3 1_555 1_555
N15 C22_3 1_555 1_555
C25_3 H19_3 1_555 1_555
C26_3 H20_3 1_555 1_555
C27_3 C26_3 1_555 1_555
H21_3 C27_3 1_555 1_555
C28_3 C27_3 1_555 1_555
C29_3 C25_3 1_555 1_555
H22_3 C29_3 1_555 1_555
C30_3 C28_3 1_555 1_555
C31_3 C30_3 1_555 1_555
H23_3 C31_3 1_555 1_555
C32_3 C31_3 1_555 1_555
H24_3 C32_3 1_555 1_555
C33_3 C32_3 1_555 1_555
H25_3 C33_3 1_555 1_555
C34_3 C33_3 1_555 1_555
C35_3 C30_3 1_555 1_555
H26_3 C35_3 1_555 1_555
C36_3 C34_3 1_555 1_555
C37_3 C38_3 1_555 1_555
C38_3 C39_3 1_555 1_555
C39_3 H27_3 1_555 1_555
C40_3 C39_3 1_555 1_555
H28_3 C40_3 1_555 1_555
C41_3 C40_3 1_555 1_555
H29_3 C41_3 1_555 1_555
C42_3 C41_3 1_555 1_555
C43_3 C38_3 1_555 1_555
H30_3 C43_3 1_555 1_555
C44_3 C42_3 1_555 1_555
C45_3 C44_3 1_555 1_555
H31_3 C45_3 1_555 1_555
C46_3 C45_3 1_555 1_555
H32_3 C46_3 1_555 1_555
C47_3 H33_3 1_555 1_555
C48_3 C44_3 1_555 1_555
H34_3 C48_3 1_555 1_555
N7_3 Cd3 1_555 1_555
N8_3 C36_3 1_555 1_555
N9_3 C36_3 1_555 1_555
N10_3 N9_3 1_555 1_555
H35_3 N10_3 1_555 1_555
H36_3 N10_3 1_555 1_555
N14_2 C25_3 1_555 1_555
N16_2 C46_3 1_555 1_555
C4_3 C5_3 1_555 1_555
C10_3 C11_3 1_555 1_555
C13_3 N3_3 1_555 1_555
C18_3 C19_3 1_555 1_555
C23_3 C24_3 1_555 1_555
C23_3 N15 1_555 1_555
N1_3 N2_3 1_555 1_555
C26_3 N14_2 1_555 1_555
C28_3 C29_3 1_555 1_555
C34_3 C35_3 1_555 1_555
C37_3 N7_3 1_555 1_555
C37_3 N9_3 1_555 1_555
C42_3 C43_3 1_555 1_555
C47_3 C48_3 1_555 1_555
C47_3 N16_2 1_555 1_555
N7_3 N8_3 1_555 1_555
C1_4 H1_4 1_555 1_555
C2_4 H2_4 1_555 1_555
C3_4 C2_4 1_555 1_555
H3_4 C3_4 1_555 1_555
C4_4 C3_4 1_555 1_555
C5_4 C1_4 1_555 1_555
H4_4 C5_4 1_555 1_555
C6_4 C4_4 1_555 1_555
C7_4 C6_4 1_555 1_555
H5_4 C7_4 1_555 1_555
C8_4 C7_4 1_555 1_555
H6_4 C8_4 1_555 1_555
C9_4 C8_4 1_555 1_555
H7_4 C9_4 1_555 1_555
C10_4 C9_4 1_555 1_555
C11_4 C6_4 1_555 1_555
H8_4 C11_4 1_555 1_555
C12_4 C10_4 1_555 1_555
C13_4 C14_4 1_555 1_555
C14_4 C15_4 1_555 1_555
C15_4 H9_4 1_555 1_555
C16_4 C15_4 1_555 1_555
H10_4 C16_4 1_555 1_555
C17_4 C16_4 1_555 1_555
H11_4 C17_4 1_555 1_555
C18_4 C17_4 1_555 1_555
C19_4 C14_4 1_555 1_555
H12_4 C19_4 1_555 1_555
C20_4 C18_4 1_555 1_555
C21_4 C20_4 1_555 1_555
H13_4 C21_4 1_555 1_555
C22_4 C21_4 1_555 1_555
H14_4 C22_4 1_555 1_555
C23_4 H15_4 1_555 1_555
C24_4 C20_4 1_555 1_555
H16_4 C24_4 1_555 1_555
Cd5 N1_4 1_555 1_555
N1_4 C13_4 1_555 1_555
N2_4 C12_4 1_555 1_555
N3_4 C12_4 1_555 1_555
N4_4 N3_4 1_555 1_555
H17_4 N4_4 1_555 1_555
H18_4 N4_4 1_555 1_555
N13_2 C1_4 1_555 1_555
N15_2 C22_4 1_555 1_555
C25_4 H19_4 1_555 1_555
C29_4 C25_4 1_555 1_555
H22_4 C29_4 1_555 1_555
C30_4 C28_4 1_555 1_555
H25_4 C33_4 1_555 1_555
C34_4 C33_4 1_555 1_555
C35_4 C30_4 1_555 1_555
H26_4 C35_4 1_555 1_555
C36_4 C34_4 1_555 1_555
C37_4 C38_4 1_555 1_555
C38_4 C39_4 1_555 1_555
C39_4 H27_4 1_555 1_555
C40_4 C39_4 1_555 1_555
H28_4 C40_4 1_555 1_555
C41_4 C40_4 1_555 1_555
H29_4 C41_4 1_555 1_555
C42_4 C41_4 1_555 1_555
C43_4 C38_4 1_555 1_555
H30_4 C43_4 1_555 1_555
C44_4 C42_4 1_555 1_555
C45_4 C44_4 1_555 1_555
H31_4 C45_4 1_555 1_555
C46_4 C45_4 1_555 1_555
H32_4 C46_4 1_555 1_555
C47_4 H33_4 1_555 1_555
C48_4 C44_4 1_555 1_555
H34_4 C48_4 1_555 1_555
N7_4 Cd5 1_555 1_555
N8_4 C36_4 1_555 1_555
N9_4 C36_4 1_555 1_555
N10_4 N9_4 1_555 1_555
H35_4 N10_4 1_555 1_555
H36_4 N10_4 1_555 1_555
N14 C25_4 1_555 1_555
N16 C46_4 1_555 1_555
C2_4 N13_2 1_555 1_555
C4_4 C5_4 1_555 1_555
C10_4 C11_4 1_555 1_555
C13_4 N3_4 1_555 1_555
C18_4 C19_4 1_555 1_555
C23_4 C24_4 1_555 1_555
C23_4 N15_2 1_555 1_555
N1_4 N2_4 1_555 1_555
C28_4 C29_4 1_555 1_555
C34_4 C35_4 1_555 1_555
C37_4 N7_4 1_555 1_555
C37_4 N9_4 1_555 1_555
C42_4 C43_4 1_555 1_555
C47_4 C48_4 1_555 1_555
C47_4 N16 1_555 1_555
N7_4 N8_4 1_555 1_555
C26_4 H20_4 1_555 1_555
C27_4 C26_4 1_555 1_555
H21_4 C27_4 1_555 1_555
H23_4 C31_4 1_555 1_555
C32_4 C31_4 1_555 1_555
H24_4 C32_4 1_555 1_555

#END
