
###############################################################################
#
# This file contains modified crystal structure data generated from the
# MOF subset of the Cambridge Structural Database (CSD) v543 
# hosted by the Cambridge Crystallographic Data Centre (CCDC).
#
# This work is licensed under the Creative Commons
# Attribution-NonCommercial-ShareAlike 4.0 International License.
# To view a copy of this license, visit
# http://creativecommons.org/licenses/by-nc-sa/4.0/
# or send a letter to
# Creative Commons, PO Box 1866, Mountain View, CA 94042, USA.
#
# CIF created using the CSD Python API on 29 September 2022
# The structure has been converted into the P1 space group
# The structure has a 3D framework
# The original CSD entry KUNSET is in the monoclinic crystal system
# The framework has been calculated to contain at least 10.0% void space
# The void calculation uses a probe of radius 1.32A, grid spacing 0.4
# The framework is charged, counterions have been retained in the structure
# H atom positions have been added when not included in the experimental data
#
###############################################################################

data_KUNSET
_chemical_formula_moiety         '(C232 H224 Eu8 N32 O58)n'
_symmetry_cell_setting           triclinic
_symmetry_space_group_name_H-M   'P 1'
_symmetry_Int_Tables_number      1
_space_group_name_Hall           'P 1'
loop_
_symmetry_equiv_pos_site_id
_symmetry_equiv_pos_as_xyz
1 x,y,z
_cell_length_a                   31.818(8)
_cell_length_b                   13.992(3)
_cell_length_c                   19.340(5)
_cell_angle_alpha                90
_cell_angle_beta                 98.544(3)
_cell_angle_gamma                90
_cell_volume                     8514.56
loop_
_atom_site_label
_atom_site_type_symbol
_atom_site_fract_x
_atom_site_fract_y
_atom_site_fract_z
O5 O 0.0335(4) 0.8343(8) 0.5800(6)
O6 O 0.0054(4) 0.1330(9) 0.9208(6)
H13 H 0.0153 0.7061 0.6630
Eu2 Eu 0.06042(3) 0.94150(6) 0.49884(5)
Eu5 Eu 0.06042(3) 0.05850(6) 0.99884(5)
Eu4 Eu 0.93958(3) 0.05850(6) 0.50116(5)
Eu1 Eu 0.56042(3) 0.44150(6) 0.49884(5)
N1 N 0.8401(6) 0.4201(12) 0.7103(9)
H1 H 0.8241 0.3759 0.7255
N2 N 0.9074(7) 0.4911(15) 0.7052(10)
H2 H 0.9351 0.4916 0.7183
N3 N 0.8466(5) 0.5629(12) 0.6452(8)
H3 H 0.8347 0.6095 0.6185
N4 N 0.6065(6) 0.5406(13) 0.2935(11)
O1 O 0.6243(4) 0.4094(8) 0.5832(6)
O2 O 0.6302(3) 0.5327(8) 0.5173(6)
O3 O 0.9777(4) 0.9266(9) 0.5501(6)
O4 O 0.9451(4) 0.0511(9) 0.9104(6)
O7 O 0.5851(4) 0.4585(10) 0.3831(8)
O8 O 0.5885(4) 0.2713(12) 0.4812(8)
C1 C 0.6454(6) 0.4740(14) 0.5624(10)
C2 C 0.6923(6) 0.4797(14) 0.5922(10)
C3 C 0.7114(6) 0.4100(14) 0.6357(10)
H4 H 0.6948 0.3577 0.6475
C4 C 0.7543(6) 0.4132(14) 0.6631(10)
H5 H 0.7679 0.3647 0.6928
C5 C 0.7756(7) 0.4920(17) 0.6437(12)
C6 C 0.7588(7) 0.5589(17) 0.6000(12)
H6 H 0.7766 0.6071 0.5853
C7 C 0.7151(7) 0.5599(16) 0.5749(11)
H7 H 0.7019 0.6114 0.5480
C8 C 0.8229(8) 0.4935(18) 0.6681(12)
C9 C 0.8894(8) 0.5590(18) 0.6645(12)
C10 C 0.8833(9) 0.4193(19) 0.7275(14)
C11 C 0.9017(8) 0.3471(18) 0.7743(13)
C12 C 0.8799(7) 0.2770(15) 0.8013(11)
H8 H 0.8498 0.2769 0.7911
C13 C 0.9002(6) 0.2040(14) 0.8440(10)
H9 H 0.8837 0.1584 0.8645
C14 C 0.9447(7) 0.1984(15) 0.8564(11)
C15 C 0.9679(9) 0.2657(19) 0.8273(13)
H10 H 0.9980 0.2604 0.8340
C16 C 0.9486(9) 0.342(2) 0.7881(14)
H11 H 0.9654 0.3900 0.7707
C17 C 0.9164(6) 0.6361(14) 0.6407(10)
C18 C 0.9602(6) 0.6321(15) 0.6660(10)
H12 H 0.9718 0.5818 0.6958
C19 C 0.9857(6) 0.7043(13) 0.6459(9)
C20 C 0.9664(6) 0.7762(13) 0.5985(9)
C21 C 0.9229(6) 0.7774(15) 0.5731(10)
H14 H 0.9107 0.8259 0.5421
C22 C 0.8983(6) 0.7040(14) 0.5952(10)
H15 H 0.8687 0.7013 0.5784
C23 C 0.9952(7) 0.8509(15) 0.5754(10)
C24 C 0.9670(8) 0.1203(16) 0.8987(10)
C25 C 0.6083(7) 0.5191(15) 0.3597(13)
C26 C 0.5745(9) 0.489(2) 0.2435(16)
C27 C 0.5302(8) 0.528(2) 0.248(2)
C28 C 0.6328(8) 0.6111(19) 0.2631(16)
C29 C 0.6056(11) 0.693(2) 0.2303(19)
O9 O 0.5223(4) 0.5734(9) 0.4499(6)
O10 O 0.5549(4) 0.5511(9) 0.5896(6)
O11 O 0.5335(4) 0.3343(8) 0.5800(6)
O12 O 0.5054(4) 0.3670(9) 0.4208(6)
H16 H 0.588545 0.233694 0.524754
H17 H 0.569855 0.23956 0.442165
H18 H 0.529128 0.603828 0.235169
H19 H 0.506863 0.489853 0.211192
H20 H 0.522994 0.51815 0.30085
H21 H 0.575512 0.413161 0.256294
H22 H 0.581646 0.498839 0.190613
H23 H 0.648262 0.576498 0.223163
H24 H 0.656839 0.639 0.304098
H25 H 0.590139 0.727958 0.27009
H26 H 0.625575 0.744377 0.208111
H27 H 0.581561 0.665456 0.189155
H28 H 0.631592 0.556501 0.397054
Eu3 Eu 0.93958(3) 0.94150(6) 0.00116(5)
Eu1_2 Eu 0.43958(3) 0.44150(6) 0.00116(5)
N4_2 N 0.3935(6) 0.5406(13) 0.2065(11)
O7_2 O 0.4149(4) 0.4585(10) 0.1169(8)
O8_2 O 0.4115(4) 0.2713(12) 0.0188(8)
C25_2 C 0.3917(7) 0.5191(15) 0.1403(13)
C26_2 C 0.4255(9) 0.489(2) 0.2565(16)
C27_2 C 0.4698(8) 0.528(2) 0.252(2)
C28_2 C 0.3672(8) 0.6111(19) 0.2369(16)
C29_2 C 0.3944(11) 0.693(2) 0.2697(19)
O9_2 O 0.4777(4) 0.5734(9) 0.0501(6)
O12_2 O 0.4946(4) 0.3670(9) 0.0792(6)
H17_2 H 0.430145 0.23956 0.0578354
H18_2 H 0.470872 0.603828 0.264831
H19_2 H 0.493137 0.489853 0.288808
H20_2 H 0.477006 0.51815 0.19915
H21_2 H 0.424488 0.413161 0.243706
H22_2 H 0.418354 0.498839 0.309387
H23_2 H 0.351738 0.576498 0.276837
H24_2 H 0.343161 0.639 0.195902
H25_2 H 0.409861 0.727958 0.22991
H26_2 H 0.374425 0.744377 0.291889
H27_2 H 0.418439 0.665456 0.310845
H28_2 H 0.368408 0.556501 0.102946
N1_2 N 0.1599(6) 0.4201(12) 0.7897(9)
H1_2 H 0.1759 0.3759 0.7745
N2_2 N 0.0926(7) 0.4911(15) 0.7948(10)
H2_2 H 0.0649 0.4916 0.7817
N3_2 N 0.1534(5) 0.5629(12) 0.8548(8)
H3_2 H 0.1653 0.6095 0.8815
O1_2 O 0.3757(4) 0.4094(8) 0.9168(6)
O2_2 O 0.3698(3) 0.5327(8) 0.9827(6)
O3_2 O 0.0223(4) 0.9266(9) 0.9499(6)
O4_2 O 0.0549(4) 0.0511(9) 0.5896(6)
C1_2 C 0.3546(6) 0.4740(14) 0.9376(10)
C2_2 C 0.3077(6) 0.4797(14) 0.9078(10)
C3_2 C 0.2886(6) 0.4100(14) 0.8643(10)
H4_2 H 0.3052 0.3577 0.8525
C4_2 C 0.2457(6) 0.4132(14) 0.8369(10)
H5_2 H 0.2321 0.3647 0.8072
C5_2 C 0.2244(7) 0.4920(17) 0.8563(12)
C6_2 C 0.2412(7) 0.5589(17) 0.9000(12)
H6_2 H 0.2234 0.6071 0.9147
C7_2 C 0.2849(7) 0.5599(16) 0.9251(11)
H7_2 H 0.2981 0.6114 0.9520
C8_2 C 0.1771(8) 0.4935(18) 0.8319(12)
C9_2 C 0.1106(8) 0.5590(18) 0.8355(12)
C10_2 C 0.1167(9) 0.4193(19) 0.7725(14)
C11_2 C 0.0983(8) 0.3471(18) 0.7257(13)
C12_2 C 0.1201(7) 0.2770(15) 0.6987(11)
H8_2 H 0.1502 0.2769 0.7089
C13_2 C 0.0998(6) 0.2040(14) 0.6560(10)
H9_2 H 0.1163 0.1584 0.6355
C14_2 C 0.0553(7) 0.1984(15) 0.6436(11)
C15_2 C 0.0321(9) 0.2657(19) 0.6727(13)
H10_2 H 0.0020 0.2604 0.6660
C16_2 C 0.0514(9) 0.342(2) 0.7119(14)
H11_2 H 0.0346 0.3900 0.7293
C17_2 C 0.0836(6) 0.6361(14) 0.8593(10)
C18_2 C 0.0398(6) 0.6321(15) 0.8340(10)
H12_2 H 0.0282 0.5818 0.8042
C19_2 C 0.0143(6) 0.7043(13) 0.8541(9)
C20_2 C 0.0336(6) 0.7762(13) 0.9015(9)
C21_2 C 0.0771(6) 0.7774(15) 0.9269(10)
H14_2 H 0.0893 0.8259 0.9579
C22_2 C 0.1017(6) 0.7040(14) 0.9048(10)
H15_2 H 0.1313 0.7013 0.9216
C23_2 C 0.0048(7) 0.8509(15) 0.9246(10)
C24_2 C 0.0330(8) 0.1203(16) 0.6013(10)
O10_2 O 0.4451(4) 0.5511(9) 0.9104(6)
O11_2 O 0.4665(4) 0.3343(8) 0.9200(6)
H16_2 H 0.411455 0.233694 0.975246
O5_2 O 0.9665(4) 0.8343(8) 0.9200(6)
O6_2 O 0.9946(4) 0.1330(9) 0.5792(6)
H13_2 H 0.9847 0.7061 0.8370
N3_3 N 0.3466(5) 0.0629(12) 0.6452(8)
H3_3 H 0.3347 0.1095 0.6185
N4_3 N 0.1065(6) 0.0406(13) 0.2935(11)
O2_3 O 0.1302(3) 0.0327(8) 0.5173(6)
O3_3 O 0.4777(4) 0.4266(9) 0.5501(6)
C6_3 C 0.2588(7) 0.0589(17) 0.6000(12)
H6_3 H 0.2766 0.1071 0.5853
C7_3 C 0.2151(7) 0.0599(16) 0.5749(11)
H7_3 H 0.2019 0.1114 0.5480
C9_3 C 0.3894(8) 0.0590(18) 0.6645(12)
C17_3 C 0.4164(6) 0.1361(14) 0.6407(10)
C18_3 C 0.4602(6) 0.1321(15) 0.6660(10)
H12_3 H 0.4718 0.0818 0.6958
C19_3 C 0.4857(6) 0.2043(13) 0.6459(9)
H13_3 H 0.5153 0.2061 0.6630
C20_3 C 0.4664(6) 0.2762(13) 0.5985(9)
C21_3 C 0.4229(6) 0.2774(15) 0.5731(10)
H14_3 H 0.4107 0.3259 0.5421
C22_3 C 0.3983(6) 0.2040(14) 0.5952(10)
H15_3 H 0.3687 0.2013 0.5784
C23_3 C 0.4952(7) 0.3509(15) 0.5754(10)
C25_3 C 0.1083(7) 0.0191(15) 0.3597(13)
C27_3 C 0.0302(8) 0.028(2) 0.248(2)
C28_3 C 0.1328(8) 0.1111(19) 0.2631(16)
C29_3 C 0.1056(11) 0.193(2) 0.2303(19)
Eu4_2 Eu 0.43958(3) 0.55850(6) 0.50116(5)
O9_3 O 0.0223(4) 0.0734(9) 0.4499(6)
H18_3 H 0.029128 0.103828 0.235169
H20_3 H 0.0229943 0.0181503 0.30085
H23_3 H 0.148262 0.0764983 0.223163
H24_3 H 0.156839 0.139 0.304098
H25_3 H 0.0901388 0.227958 0.27009
H26_3 H 0.125575 0.244377 0.208111
H27_3 H 0.0815612 0.165456 0.189155
H28_3 H 0.131592 0.0565012 0.397054
N1_3 N 0.3401(6) 0.9201(12) 0.7103(9)
H1_3 H 0.3241 0.8759 0.7255
N2_3 N 0.4074(7) 0.9911(15) 0.7052(10)
H2_3 H 0.4351 0.9916 0.7183
O1_3 O 0.1243(4) 0.9094(8) 0.5832(6)
O6_3 O 0.5054(4) 0.6330(9) 0.9208(6)
O7_3 O 0.0851(4) 0.9585(10) 0.3831(8)
O8_3 O 0.0885(4) 0.7713(12) 0.4812(8)
C1_3 C 0.1454(6) 0.9740(14) 0.5624(10)
C2_3 C 0.1923(6) 0.9797(14) 0.5922(10)
C3_3 C 0.2114(6) 0.9100(14) 0.6357(10)
H4_3 H 0.1948 0.8577 0.6475
C4_3 C 0.2543(6) 0.9132(14) 0.6631(10)
H5_3 H 0.2679 0.8647 0.6928
C5_3 C 0.2756(7) 0.9920(17) 0.6437(12)
C8_3 C 0.3229(8) 0.9935(18) 0.6681(12)
C10_3 C 0.3833(9) 0.9193(19) 0.7275(14)
C11_3 C 0.4017(8) 0.8471(18) 0.7743(13)
C12_3 C 0.3799(7) 0.7770(15) 0.8013(11)
H8_3 H 0.3498 0.7769 0.7911
C13_3 C 0.4002(6) 0.7040(14) 0.8440(10)
H9_3 H 0.3837 0.6584 0.8645
C14_3 C 0.4447(7) 0.6984(15) 0.8564(11)
C15_3 C 0.4679(9) 0.7657(19) 0.8273(13)
H10_3 H 0.4980 0.7604 0.8340
C16_3 C 0.4486(9) 0.842(2) 0.7881(14)
H11_3 H 0.4654 0.8900 0.7707
C24_3 C 0.4670(8) 0.6203(16) 0.8987(10)
C26_3 C 0.0745(9) 0.989(2) 0.2435(16)
Eu5_2 Eu 0.56042(3) 0.55850(6) 0.99884(5)
O12_3 O 0.0054(4) 0.8670(9) 0.4208(6)
H16_3 H 0.0885452 0.733694 0.524754
H17_3 H 0.0698546 0.73956 0.442165
H19_3 H 0.00686341 0.989853 0.211192
H21_3 H 0.0755122 0.913161 0.256294
H22_3 H 0.0816459 0.998839 0.190613
N4_4 N 0.8935(6) 0.0406(13) 0.2065(11)
C25_4 C 0.8917(7) 0.0191(15) 0.1403(13)
C27_4 C 0.9698(8) 0.028(2) 0.252(2)
C28_4 C 0.8672(8) 0.1111(19) 0.2369(16)
C29_4 C 0.8944(11) 0.193(2) 0.2697(19)
O9_4 O 0.9777(4) 0.0734(9) 0.0501(6)
H18_4 H 0.970872 0.103828 0.264831
H20_4 H 0.977006 0.0181503 0.19915
H23_4 H 0.851738 0.0764983 0.276837
H24_4 H 0.843161 0.139 0.195902
H25_4 H 0.909861 0.227958 0.22991
H26_4 H 0.874425 0.244377 0.291889
H27_4 H 0.918439 0.165456 0.310845
H28_4 H 0.868408 0.0565012 0.102946
N3_4 N 0.6534(5) 0.0629(12) 0.8548(8)
H3_4 H 0.6653 0.1095 0.8815
O2_4 O 0.8698(3) 0.0327(8) 0.9827(6)
O3_4 O 0.5223(4) 0.4266(9) 0.9499(6)
C6_4 C 0.7412(7) 0.0589(17) 0.9000(12)
H6_4 H 0.7234 0.1071 0.9147
C7_4 C 0.7849(7) 0.0599(16) 0.9251(11)
H7_4 H 0.7981 0.1114 0.9520
C9_4 C 0.6106(8) 0.0590(18) 0.8355(12)
C17_4 C 0.5836(6) 0.1361(14) 0.8593(10)
C18_4 C 0.5398(6) 0.1321(15) 0.8340(10)
H12_4 H 0.5282 0.0818 0.8042
C19_4 C 0.5143(6) 0.2043(13) 0.8541(9)
H13_4 H 0.4847 0.2061 0.8370
C20_4 C 0.5336(6) 0.2762(13) 0.9015(9)
C21_4 C 0.5771(6) 0.2774(15) 0.9269(10)
H14_4 H 0.5893 0.3259 0.9579
C22_4 C 0.6017(6) 0.2040(14) 0.9048(10)
H15_4 H 0.6313 0.2013 0.9216
C23_4 C 0.5048(7) 0.3509(15) 0.9246(10)
O7_4 O 0.9149(4) 0.9585(10) 0.1169(8)
O8_4 O 0.9115(4) 0.7713(12) 0.0188(8)
C26_4 C 0.9255(9) 0.989(2) 0.2565(16)
O12_4 O 0.9946(4) 0.8670(9) 0.0792(6)
H17_4 H 0.930145 0.73956 0.0578354
H19_4 H 0.993137 0.989853 0.288808
H21_4 H 0.924488 0.913161 0.243706
H22_4 H 0.918354 0.998839 0.309387
N1_4 N 0.6599(6) 0.9201(12) 0.7897(9)
H1_4 H 0.6759 0.8759 0.7745
N2_4 N 0.5926(7) 0.9911(15) 0.7948(10)
H2_4 H 0.5649 0.9916 0.7817
O1_4 O 0.8757(4) 0.9094(8) 0.9168(6)
O6_4 O 0.4946(4) 0.6330(9) 0.5792(6)
C1_4 C 0.8546(6) 0.9740(14) 0.9376(10)
C2_4 C 0.8077(6) 0.9797(14) 0.9078(10)
C3_4 C 0.7886(6) 0.9100(14) 0.8643(10)
H4_4 H 0.8052 0.8577 0.8525
C4_4 C 0.7457(6) 0.9132(14) 0.8369(10)
H5_4 H 0.7321 0.8647 0.8072
C5_4 C 0.7244(7) 0.9920(17) 0.8563(12)
C8_4 C 0.6771(8) 0.9935(18) 0.8319(12)
C10_4 C 0.6167(9) 0.9193(19) 0.7725(14)
C11_4 C 0.5983(8) 0.8471(18) 0.7257(13)
C12_4 C 0.6201(7) 0.7770(15) 0.6987(11)
H8_4 H 0.6502 0.7769 0.7089
C13_4 C 0.5998(6) 0.7040(14) 0.6560(10)
H9_4 H 0.6163 0.6584 0.6355
C14_4 C 0.5553(7) 0.6984(15) 0.6436(11)
C15_4 C 0.5321(9) 0.7657(19) 0.6727(13)
H10_4 H 0.5020 0.7604 0.6660
C16_4 C 0.5514(9) 0.842(2) 0.7119(14)
H11_4 H 0.5346 0.8900 0.7293
C24_4 C 0.5330(8) 0.6203(16) 0.6013(10)
H16_4 H 0.911455 0.733694 0.975246
N1_5 N 0.1599(6) 0.5799(12) 0.2897(9)
H1_5 H 0.1759 0.6241 0.2745
N2_5 N 0.0926(7) 0.5089(15) 0.2948(10)
H2_5 H 0.0649 0.5084 0.2817
N3_5 N 0.1534(5) 0.4371(12) 0.3548(8)
H3_5 H 0.1653 0.3905 0.3815
N4_5 N 0.3935(6) 0.4594(13) 0.7065(11)
O1_5 O 0.3757(4) 0.5906(8) 0.4168(6)
O2_5 O 0.3698(3) 0.4673(8) 0.4827(6)
O4_3 O 0.0549(4) 0.9489(9) 0.0896(6)
O7_5 O 0.4149(4) 0.5415(10) 0.6169(8)
O8_5 O 0.4115(4) 0.7287(12) 0.5188(8)
C1_5 C 0.3546(6) 0.5260(14) 0.4376(10)
C2_5 C 0.3077(6) 0.5203(14) 0.4078(10)
C3_5 C 0.2886(6) 0.5900(14) 0.3643(10)
H4_5 H 0.3052 0.6423 0.3525
C4_5 C 0.2457(6) 0.5868(14) 0.3369(10)
H5_5 H 0.2321 0.6353 0.3072
C5_5 C 0.2244(7) 0.5080(17) 0.3563(12)
C6_5 C 0.2412(7) 0.4411(17) 0.4000(12)
H6_5 H 0.2234 0.3929 0.4147
C7_5 C 0.2849(7) 0.4401(16) 0.4251(11)
H7_5 H 0.2981 0.3886 0.4520
C8_5 C 0.1771(8) 0.5065(18) 0.3319(12)
C9_5 C 0.1106(8) 0.4410(18) 0.3355(12)
C10_5 C 0.1167(9) 0.5807(19) 0.2725(14)
C11_5 C 0.0983(8) 0.6529(18) 0.2257(13)
C12_5 C 0.1201(7) 0.7230(15) 0.1987(11)
H8_5 H 0.1502 0.7231 0.2089
C13_5 C 0.0998(6) 0.7960(14) 0.1560(10)
H9_5 H 0.1163 0.8416 0.1355
C14_5 C 0.0553(7) 0.8016(15) 0.1436(11)
C15_5 C 0.0321(9) 0.7343(19) 0.1727(13)
H10_5 H 0.0020 0.7396 0.1660
C16_5 C 0.0514(9) 0.658(2) 0.2119(14)
H11_5 H 0.0346 0.6100 0.2293
C17_5 C 0.0836(6) 0.3639(14) 0.3593(10)
C18_5 C 0.0398(6) 0.3679(15) 0.3340(10)
H12_5 H 0.0282 0.4182 0.3042
C19_5 C 0.0143(6) 0.2957(13) 0.3541(9)
C20_5 C 0.0336(6) 0.2238(13) 0.4015(9)
C21_5 C 0.0771(6) 0.2226(15) 0.4269(10)
H14_5 H 0.0893 0.1741 0.4579
C22_5 C 0.1017(6) 0.2960(14) 0.4048(10)
H15_5 H 0.1313 0.2987 0.4216
C23_5 C 0.0048(7) 0.1491(15) 0.4246(10)
C24_5 C 0.0330(8) 0.8797(16) 0.1013(10)
C25_5 C 0.3917(7) 0.4809(15) 0.6403(13)
C26_5 C 0.4255(9) 0.511(2) 0.7565(16)
C27_5 C 0.4698(8) 0.472(2) 0.752(2)
C28_5 C 0.3672(8) 0.3889(19) 0.7369(16)
C29_5 C 0.3944(11) 0.307(2) 0.7697(19)
O10_3 O 0.4451(4) 0.4489(9) 0.4104(6)
O11_3 O 0.4665(4) 0.6657(8) 0.4200(6)
H16_5 H 0.411455 0.766306 0.475246
H17_5 H 0.430145 0.76044 0.557835
H18_5 H 0.470872 0.396172 0.764831
H19_5 H 0.493137 0.510147 0.788808
H20_5 H 0.477006 0.48185 0.69915
H21_5 H 0.424488 0.586839 0.743706
H22_5 H 0.418354 0.501161 0.809387
H23_5 H 0.351738 0.423502 0.776837
H24_5 H 0.343161 0.361 0.695902
H25_5 H 0.409861 0.272042 0.72991
H26_5 H 0.374425 0.255623 0.791889
H27_5 H 0.418439 0.334544 0.810845
H28_5 H 0.368408 0.443499 0.602946
O5_3 O 0.9665(4) 0.1657(8) 0.4200(6)
H13_5 H 0.9847 0.2939 0.3370
O5_4 O 0.0335(4) 0.1657(8) 0.0800(6)
H13_6 H 0.0153 0.2939 0.1630
N1_6 N 0.8401(6) 0.5799(12) 0.2103(9)
H1_6 H 0.8241 0.6241 0.2255
N2_6 N 0.9074(7) 0.5089(15) 0.2052(10)
H2_6 H 0.9351 0.5084 0.2183
N3_6 N 0.8466(5) 0.4371(12) 0.1452(8)
H3_6 H 0.8347 0.3905 0.1185
O1_6 O 0.6243(4) 0.5906(8) 0.0832(6)
O2_6 O 0.6302(3) 0.4673(8) 0.0173(6)
O4_4 O 0.9451(4) 0.9489(9) 0.4104(6)
C1_6 C 0.6454(6) 0.5260(14) 0.0624(10)
C2_6 C 0.6923(6) 0.5203(14) 0.0922(10)
C3_6 C 0.7114(6) 0.5900(14) 0.1357(10)
H4_6 H 0.6948 0.6423 0.1475
C4_6 C 0.7543(6) 0.5868(14) 0.1631(10)
H5_6 H 0.7679 0.6353 0.1928
C5_6 C 0.7756(7) 0.5080(17) 0.1437(12)
C6_6 C 0.7588(7) 0.4411(17) 0.1000(12)
H6_6 H 0.7766 0.3929 0.0853
C7_6 C 0.7151(7) 0.4401(16) 0.0749(11)
H7_6 H 0.7019 0.3886 0.0480
C8_6 C 0.8229(8) 0.5065(18) 0.1681(12)
C9_6 C 0.8894(8) 0.4410(18) 0.1645(12)
C10_6 C 0.8833(9) 0.5807(19) 0.2275(14)
C11_6 C 0.9017(8) 0.6529(18) 0.2743(13)
C12_6 C 0.8799(7) 0.7230(15) 0.3013(11)
H8_6 H 0.8498 0.7231 0.2911
C13_6 C 0.9002(6) 0.7960(14) 0.3440(10)
H9_6 H 0.8837 0.8416 0.3645
C14_6 C 0.9447(7) 0.8016(15) 0.3564(11)
C15_6 C 0.9679(9) 0.7343(19) 0.3273(13)
H10_6 H 0.9980 0.7396 0.3340
C16_6 C 0.9486(9) 0.658(2) 0.2881(14)
H11_6 H 0.9654 0.6100 0.2707
C17_6 C 0.9164(6) 0.3639(14) 0.1407(10)
C18_6 C 0.9602(6) 0.3679(15) 0.1660(10)
H12_6 H 0.9718 0.4182 0.1958
C19_6 C 0.9857(6) 0.2957(13) 0.1459(9)
C20_6 C 0.9664(6) 0.2238(13) 0.0985(9)
C21_6 C 0.9229(6) 0.2226(15) 0.0731(10)
H14_6 H 0.9107 0.1741 0.0421
C22_6 C 0.8983(6) 0.2960(14) 0.0952(10)
H15_6 H 0.8687 0.2987 0.0784
C23_6 C 0.9952(7) 0.1491(15) 0.0754(10)
C24_6 C 0.9670(8) 0.8797(16) 0.3987(10)
O10_4 O 0.5549(4) 0.4489(9) 0.0896(6)
O11_4 O 0.5335(4) 0.6657(8) 0.0800(6)
H16_6 H 0.588545 0.766306 0.0247542
N4_6 N 0.6065(6) 0.4594(13) 0.7935(11)
O7_6 O 0.5851(4) 0.5415(10) 0.8831(8)
O8_6 O 0.5885(4) 0.7287(12) 0.9812(8)
C25_6 C 0.6083(7) 0.4809(15) 0.8597(13)
C26_6 C 0.5745(9) 0.511(2) 0.7435(16)
C27_6 C 0.5302(8) 0.472(2) 0.748(2)
C28_6 C 0.6328(8) 0.3889(19) 0.7631(16)
C29_6 C 0.6056(11) 0.307(2) 0.7303(19)
H17_6 H 0.569855 0.76044 0.942165
H18_6 H 0.529128 0.396172 0.735169
H19_6 H 0.506863 0.510147 0.711192
H20_6 H 0.522994 0.48185 0.80085
H21_6 H 0.575512 0.586839 0.756294
H22_6 H 0.581646 0.501161 0.690613
H23_6 H 0.648262 0.423502 0.723163
H24_6 H 0.656839 0.361 0.804098
H25_6 H 0.590139 0.272042 0.77009
H26_6 H 0.625575 0.255623 0.708111
H27_6 H 0.581561 0.334544 0.689155
H28_6 H 0.631592 0.443499 0.897054
N1_7 N 0.6599(6) 0.0799(12) 0.2897(9)
H1_7 H 0.6759 0.1241 0.2745
N2_7 N 0.5926(7) 0.0089(15) 0.2948(10)
H2_7 H 0.5649 0.0084 0.2817
O1_7 O 0.8757(4) 0.0906(8) 0.4168(6)
O7_7 O 0.9149(4) 0.0415(10) 0.6169(8)
O8_7 O 0.9115(4) 0.2287(12) 0.5188(8)
C1_7 C 0.8546(6) 0.0260(14) 0.4376(10)
C2_7 C 0.8077(6) 0.0203(14) 0.4078(10)
C3_7 C 0.7886(6) 0.0900(14) 0.3643(10)
H4_7 H 0.8052 0.1423 0.3525
C4_7 C 0.7457(6) 0.0868(14) 0.3369(10)
H5_7 H 0.7321 0.1353 0.3072
C5_7 C 0.7244(7) 0.0080(17) 0.3563(12)
C8_7 C 0.6771(8) 0.0065(18) 0.3319(12)
C10_7 C 0.6167(9) 0.0807(19) 0.2725(14)
C11_7 C 0.5983(8) 0.1529(18) 0.2257(13)
C12_7 C 0.6201(7) 0.2230(15) 0.1987(11)
H8_7 H 0.6502 0.2231 0.2089
C13_7 C 0.5998(6) 0.2960(14) 0.1560(10)
H9_7 H 0.6163 0.3416 0.1355
C14_7 C 0.5553(7) 0.3016(15) 0.1436(11)
C15_7 C 0.5321(9) 0.2343(19) 0.1727(13)
H10_7 H 0.5020 0.2396 0.1660
C16_7 C 0.5514(9) 0.158(2) 0.2119(14)
H11_7 H 0.5346 0.1100 0.2293
C24_7 C 0.5330(8) 0.3797(16) 0.1013(10)
C26_7 C 0.9255(9) 0.011(2) 0.7565(16)
H16_7 H 0.911455 0.266306 0.475246
H17_7 H 0.930145 0.26044 0.557835
H19_7 H 0.993137 0.0101465 0.788808
H21_7 H 0.924488 0.0868393 0.743706
H22_7 H 0.918354 0.00116142 0.809387
N3_7 N 0.6534(5) 0.9371(12) 0.3548(8)
H3_7 H 0.6653 0.8905 0.3815
N4_7 N 0.8935(6) 0.9594(13) 0.7065(11)
O2_7 O 0.8698(3) 0.9673(8) 0.4827(6)
C6_7 C 0.7412(7) 0.9411(17) 0.4000(12)
H6_7 H 0.7234 0.8929 0.4147
C7_7 C 0.7849(7) 0.9401(16) 0.4251(11)
H7_7 H 0.7981 0.8886 0.4520
C9_7 C 0.6106(8) 0.9410(18) 0.3355(12)
C17_7 C 0.5836(6) 0.8639(14) 0.3593(10)
C18_7 C 0.5398(6) 0.8679(15) 0.3340(10)
H12_7 H 0.5282 0.9182 0.3042
C19_7 C 0.5143(6) 0.7957(13) 0.3541(9)
H13_7 H 0.4847 0.7939 0.3370
C20_7 C 0.5336(6) 0.7238(13) 0.4015(9)
C21_7 C 0.5771(6) 0.7226(15) 0.4269(10)
H14_7 H 0.5893 0.6741 0.4579
C22_7 C 0.6017(6) 0.7960(14) 0.4048(10)
H15_7 H 0.6313 0.7987 0.4216
C23_7 C 0.5048(7) 0.6491(15) 0.4246(10)
C25_7 C 0.8917(7) 0.9809(15) 0.6403(13)
C27_7 C 0.9698(8) 0.972(2) 0.752(2)
C28_7 C 0.8672(8) 0.8889(19) 0.7369(16)
C29_7 C 0.8944(11) 0.807(2) 0.7697(19)
H18_7 H 0.970872 0.896172 0.764831
H20_7 H 0.977006 0.98185 0.69915
H23_7 H 0.851738 0.923502 0.776837
H24_7 H 0.843161 0.861 0.695902
H25_7 H 0.909861 0.772042 0.72991
H26_7 H 0.874425 0.755623 0.791889
H27_7 H 0.918439 0.834544 0.810845
H28_7 H 0.868408 0.943499 0.602946
N1_8 N 0.3401(6) 0.0799(12) 0.2103(9)
H1_8 H 0.3241 0.1241 0.2255
N2_8 N 0.4074(7) 0.0089(15) 0.2052(10)
H2_8 H 0.4351 0.0084 0.2183
O1_8 O 0.1243(4) 0.0906(8) 0.0832(6)
C1_8 C 0.1454(6) 0.0260(14) 0.0624(10)
C2_8 C 0.1923(6) 0.0203(14) 0.0922(10)
C3_8 C 0.2114(6) 0.0900(14) 0.1357(10)
H4_8 H 0.1948 0.1423 0.1475
C4_8 C 0.2543(6) 0.0868(14) 0.1631(10)
H5_8 H 0.2679 0.1353 0.1928
C5_8 C 0.2756(7) 0.0080(17) 0.1437(12)
C8_8 C 0.3229(8) 0.0065(18) 0.1681(12)
C10_8 C 0.3833(9) 0.0807(19) 0.2275(14)
C11_8 C 0.4017(8) 0.1529(18) 0.2743(13)
C12_8 C 0.3799(7) 0.2230(15) 0.3013(11)
H8_8 H 0.3498 0.2231 0.2911
C13_8 C 0.4002(6) 0.2960(14) 0.3440(10)
H9_8 H 0.3837 0.3416 0.3645
C14_8 C 0.4447(7) 0.3016(15) 0.3564(11)
C15_8 C 0.4679(9) 0.2343(19) 0.3273(13)
H10_8 H 0.4980 0.2396 0.3340
C16_8 C 0.4486(9) 0.158(2) 0.2881(14)
H11_8 H 0.4654 0.1100 0.2707
C24_8 C 0.4670(8) 0.3797(16) 0.3987(10)
H16_8 H 0.0885452 0.266306 0.0247542
O7_8 O 0.0851(4) 0.0415(10) 0.8831(8)
O8_8 O 0.0885(4) 0.2287(12) 0.9812(8)
C26_8 C 0.0745(9) 0.011(2) 0.7435(16)
H17_8 H 0.0698546 0.26044 0.942165
H19_8 H 0.00686341 0.0101465 0.711192
H21_8 H 0.0755122 0.0868393 0.756294
H22_8 H 0.0816459 0.00116142 0.690613
N3_8 N 0.3466(5) 0.9371(12) 0.1452(8)
H3_8 H 0.3347 0.8905 0.1185
O2_8 O 0.1302(3) 0.9673(8) 0.0173(6)
C6_8 C 0.2588(7) 0.9411(17) 0.1000(12)
H6_8 H 0.2766 0.8929 0.0853
C7_8 C 0.2151(7) 0.9401(16) 0.0749(11)
H7_8 H 0.2019 0.8886 0.0480
C9_8 C 0.3894(8) 0.9410(18) 0.1645(12)
C17_8 C 0.4164(6) 0.8639(14) 0.1407(10)
C18_8 C 0.4602(6) 0.8679(15) 0.1660(10)
H12_8 H 0.4718 0.9182 0.1958
C19_8 C 0.4857(6) 0.7957(13) 0.1459(9)
H13_8 H 0.5153 0.7939 0.1630
C20_8 C 0.4664(6) 0.7238(13) 0.0985(9)
C21_8 C 0.4229(6) 0.7226(15) 0.0731(10)
H14_8 H 0.4107 0.6741 0.0421
C22_8 C 0.3983(6) 0.7960(14) 0.0952(10)
H15_8 H 0.3687 0.7987 0.0784
C23_8 C 0.4952(7) 0.6491(15) 0.0754(10)
N4_8 N 0.1065(6) 0.9594(13) 0.7935(11)
C25_8 C 0.1083(7) 0.9809(15) 0.8597(13)
C27_8 C 0.0302(8) 0.972(2) 0.748(2)
C28_8 C 0.1328(8) 0.8889(19) 0.7631(16)
C29_8 C 0.1056(11) 0.807(2) 0.7303(19)
H18_8 H 0.029128 0.896172 0.735169
H20_8 H 0.0229943 0.98185 0.80085
H23_8 H 0.148262 0.923502 0.723163
H24_8 H 0.156839 0.861 0.804098
H25_8 H 0.0901388 0.772042 0.77009
H26_8 H 0.125575 0.755623 0.708111
H27_8 H 0.0815612 0.834544 0.689155
H28_8 H 0.131592 0.943499 0.897054
loop_
_geom_bond_atom_site_label_1
_geom_bond_atom_site_label_2
_geom_bond_site_symmetry_1
_geom_bond_site_symmetry_2
Eu2 O5 1_555 1_555
Eu5 O6 1_555 1_555
Eu1 O1 1_555 1_555
N1 H1 1_555 1_555
N2 H2 1_555 1_555
N3 H3 1_555 1_555
N4 C25 1_555 1_555
O1 C1 1_555 1_555
O2 Eu1 1_555 1_555
O3 C23 1_555 1_555
O4 C24 1_555 1_555
O7 Eu1 1_555 1_555
O8 Eu1 1_555 1_555
C1 O2 1_555 1_555
C2 C1 1_555 1_555
C3 C2 1_555 1_555
H4 C3 1_555 1_555
C4 C3 1_555 1_555
H5 C4 1_555 1_555
C5 C4 1_555 1_555
C6 C5 1_555 1_555
H6 C6 1_555 1_555
C7 C2 1_555 1_555
H7 C7 1_555 1_555
C8 N1 1_555 1_555
C9 N2 1_555 1_555
C10 N1 1_555 1_555
C11 C10 1_555 1_555
C12 C11 1_555 1_555
H8 C12 1_555 1_555
C13 C12 1_555 1_555
H9 C13 1_555 1_555
C14 C13 1_555 1_555
C15 C14 1_555 1_555
H10 C15 1_555 1_555
C16 C11 1_555 1_555
H11 C16 1_555 1_555
C17 C9 1_555 1_555
C18 C17 1_555 1_555
H12 C18 1_555 1_555
C19 C18 1_555 1_555
C20 C19 1_555 1_555
C21 C20 1_555 1_555
H14 C21 1_555 1_555
C22 C17 1_555 1_555
H15 C22 1_555 1_555
C23 C20 1_555 1_555
C24 C14 1_555 1_555
C25 O7 1_555 1_555
C26 N4 1_555 1_555
C27 C26 1_555 1_555
C28 N4 1_555 1_555
C29 C28 1_555 1_555
O9 Eu1 1_555 1_555
O10 Eu1 1_555 1_555
O11 Eu1 1_555 1_555
O12 Eu1 1_555 1_555
N2 C10 1_555 1_555
N3 C8 1_555 1_555
N3 C9 1_555 1_555
C5 C8 1_555 1_555
C6 C7 1_555 1_555
C15 C16 1_555 1_555
C21 C22 1_555 1_555
O8 H16 1_555 1_555
O8 H17 1_555 1_555
C27 H18 1_555 1_555
C27 H19 1_555 1_555
C27 H20 1_555 1_555
C26 H21 1_555 1_555
C26 H22 1_555 1_555
C28 H23 1_555 1_555
C28 H24 1_555 1_555
C29 H25 1_555 1_555
C29 H26 1_555 1_555
C29 H27 1_555 1_555
C25 H28 1_555 1_555
N4_2 C25_2 1_555 1_555
O7_2 Eu1_2 1_555 1_555
O8_2 Eu1_2 1_555 1_555
C25_2 O7_2 1_555 1_555
C26_2 N4_2 1_555 1_555
C27_2 C26_2 1_555 1_555
C28_2 N4_2 1_555 1_555
C29_2 C28_2 1_555 1_555
O9_2 Eu1_2 1_555 1_555
O12_2 Eu1_2 1_555 1_555
O8_2 H17_2 1_555 1_555
C27_2 H18_2 1_555 1_555
C27_2 H19_2 1_555 1_555
C27_2 H20_2 1_555 1_555
C26_2 H21_2 1_555 1_555
C26_2 H22_2 1_555 1_555
C28_2 H23_2 1_555 1_555
C28_2 H24_2 1_555 1_555
C29_2 H25_2 1_555 1_555
C29_2 H26_2 1_555 1_555
C29_2 H27_2 1_555 1_555
C25_2 H28_2 1_555 1_555
N1_2 H1_2 1_555 1_555
N2_2 H2_2 1_555 1_555
N3_2 H3_2 1_555 1_555
O1_2 C1_2 1_555 1_555
O3_2 C23_2 1_555 1_555
O4_2 C24_2 1_555 1_555
C1_2 O2_2 1_555 1_555
C2_2 C1_2 1_555 1_555
C3_2 C2_2 1_555 1_555
H4_2 C3_2 1_555 1_555
C4_2 C3_2 1_555 1_555
H5_2 C4_2 1_555 1_555
C5_2 C4_2 1_555 1_555
C6_2 C5_2 1_555 1_555
H6_2 C6_2 1_555 1_555
C7_2 C2_2 1_555 1_555
H7_2 C7_2 1_555 1_555
C8_2 N1_2 1_555 1_555
C9_2 N2_2 1_555 1_555
C10_2 N1_2 1_555 1_555
C11_2 C10_2 1_555 1_555
C12_2 C11_2 1_555 1_555
H8_2 C12_2 1_555 1_555
C13_2 C12_2 1_555 1_555
H9_2 C13_2 1_555 1_555
C14_2 C13_2 1_555 1_555
C15_2 C14_2 1_555 1_555
H10_2 C15_2 1_555 1_555
C16_2 C11_2 1_555 1_555
H11_2 C16_2 1_555 1_555
C17_2 C9_2 1_555 1_555
C18_2 C17_2 1_555 1_555
H12_2 C18_2 1_555 1_555
C19_2 C18_2 1_555 1_555
C20_2 C19_2 1_555 1_555
C21_2 C20_2 1_555 1_555
H14_2 C21_2 1_555 1_555
C22_2 C17_2 1_555 1_555
H15_2 C22_2 1_555 1_555
C23_2 C20_2 1_555 1_555
C24_2 C14_2 1_555 1_555
N2_2 C10_2 1_555 1_555
N3_2 C8_2 1_555 1_555
N3_2 C9_2 1_555 1_555
C5_2 C8_2 1_555 1_555
C6_2 C7_2 1_555 1_555
C15_2 C16_2 1_555 1_555
C21_2 C22_2 1_555 1_555
Eu4 O6_2 1_555 1_555
N3_3 H3_3 1_555 1_555
N4_3 C25_3 1_555 1_555
O3_3 C23_3 1_555 1_555
O11 C23_3 1_555 1_555
H6_3 C6_3 1_555 1_555
H7_3 C7_3 1_555 1_555
C17_3 C9_3 1_555 1_555
C18_3 C17_3 1_555 1_555
H12_3 C18_3 1_555 1_555
C19_3 C18_3 1_555 1_555
H13_3 C19_3 1_555 1_555
C20_3 C19_3 1_555 1_555
C21_3 C20_3 1_555 1_555
H14_3 C21_3 1_555 1_555
C22_3 C17_3 1_555 1_555
H15_3 C22_3 1_555 1_555
C23_3 C20_3 1_555 1_555
C28_3 N4_3 1_555 1_555
C29_3 C28_3 1_555 1_555
Eu4_2 O3_3 1_555 1_555
N3_3 C9_3 1_555 1_555
C6_3 C7_3 1_555 1_555
C21_3 C22_3 1_555 1_555
C27_3 H18_3 1_555 1_555
C27_3 H20_3 1_555 1_555
C28_3 H23_3 1_555 1_555
C28_3 H24_3 1_555 1_555
C29_3 H25_3 1_555 1_555
C29_3 H26_3 1_555 1_555
C29_3 H27_3 1_555 1_555
C25_3 H28_3 1_555 1_555
Eu2 O1_3 1_555 1_555
N1_3 H1_3 1_555 1_555
N2_3 H2_3 1_555 1_555
O1_3 C1_3 1_555 1_555
O10_2 C24_3 1_555 1_555
O6_3 C24_3 1_555 1_555
O7_3 Eu2 1_555 1_555
O8_3 Eu2 1_555 1_555
C2_3 C1_3 1_555 1_555
C3_3 C2_3 1_555 1_555
H4_3 C3_3 1_555 1_555
C4_3 C3_3 1_555 1_555
H5_3 C4_3 1_555 1_555
C5_3 C4_3 1_555 1_555
C8_3 N1_3 1_555 1_555
C10_3 N1_3 1_555 1_555
C11_3 C10_3 1_555 1_555
C12_3 C11_3 1_555 1_555
H8_3 C12_3 1_555 1_555
C13_3 C12_3 1_555 1_555
H9_3 C13_3 1_555 1_555
C14_3 C13_3 1_555 1_555
C15_3 C14_3 1_555 1_555
H10_3 C15_3 1_555 1_555
C16_3 C11_3 1_555 1_555
H11_3 C16_3 1_555 1_555
C24_3 C14_3 1_555 1_555
Eu5_2 O6_3 1_555 1_555
O12_3 Eu2 1_555 1_555
N2_3 C10_3 1_555 1_555
C5_3 C8_3 1_555 1_555
C15_3 C16_3 1_555 1_555
O8_3 H16_3 1_555 1_555
O8_3 H17_3 1_555 1_555
C26_3 H21_3 1_555 1_555
C26_3 H22_3 1_555 1_555
N4_4 C25_4 1_555 1_555
C28_4 N4_4 1_555 1_555
C29_4 C28_4 1_555 1_555
C27_4 H18_4 1_555 1_555
C27_4 H20_4 1_555 1_555
C28_4 H23_4 1_555 1_555
C28_4 H24_4 1_555 1_555
C29_4 H25_4 1_555 1_555
C29_4 H26_4 1_555 1_555
C29_4 H27_4 1_555 1_555
C25_4 H28_4 1_555 1_555
N3_4 H3_4 1_555 1_555
O3_4 C23_4 1_555 1_555
O11_2 C23_4 1_555 1_555
H6_4 C6_4 1_555 1_555
H7_4 C7_4 1_555 1_555
C17_4 C9_4 1_555 1_555
C18_4 C17_4 1_555 1_555
H12_4 C18_4 1_555 1_555
C19_4 C18_4 1_555 1_555
H13_4 C19_4 1_555 1_555
C20_4 C19_4 1_555 1_555
C21_4 C20_4 1_555 1_555
H14_4 C21_4 1_555 1_555
C22_4 C17_4 1_555 1_555
H15_4 C22_4 1_555 1_555
C23_4 C20_4 1_555 1_555
Eu5_2 O3_4 1_555 1_555
N3_4 C9_4 1_555 1_555
C6_4 C7_4 1_555 1_555
C21_4 C22_4 1_555 1_555
O7_4 Eu3 1_555 1_555
O8_4 Eu3 1_555 1_555
O12_4 Eu3 1_555 1_555
O8_4 H17_4 1_555 1_555
C26_4 H21_4 1_555 1_555
C26_4 H22_4 1_555 1_555
N1_4 H1_4 1_555 1_555
N2_4 H2_4 1_555 1_555
O1_4 C1_4 1_555 1_555
O10 C24_4 1_555 1_555
O6_4 C24_4 1_555 1_555
C2_4 C1_4 1_555 1_555
C3_4 C2_4 1_555 1_555
H4_4 C3_4 1_555 1_555
C4_4 C3_4 1_555 1_555
H5_4 C4_4 1_555 1_555
C5_4 C4_4 1_555 1_555
C8_4 N1_4 1_555 1_555
C10_4 N1_4 1_555 1_555
C11_4 C10_4 1_555 1_555
C12_4 C11_4 1_555 1_555
H8_4 C12_4 1_555 1_555
C13_4 C12_4 1_555 1_555
H9_4 C13_4 1_555 1_555
C14_4 C13_4 1_555 1_555
C15_4 C14_4 1_555 1_555
H10_4 C15_4 1_555 1_555
C16_4 C11_4 1_555 1_555
H11_4 C16_4 1_555 1_555
C24_4 C14_4 1_555 1_555
Eu4_2 O6_4 1_555 1_555
N2_4 C10_4 1_555 1_555
C5_4 C8_4 1_555 1_555
C15_4 C16_4 1_555 1_555
Eu4_2 O1_5 1_555 1_555
N1_5 H1_5 1_555 1_555
N2_5 H2_5 1_555 1_555
N3_5 H3_5 1_555 1_555
N4_5 C25_5 1_555 1_555
O1_5 C1_5 1_555 1_555
O2_5 Eu4_2 1_555 1_555
O9_3 C23_5 1_555 1_555
O4_3 C24_5 1_555 1_555
O7_5 Eu4_2 1_555 1_555
O8_5 Eu4_2 1_555 1_555
C1_5 O2_5 1_555 1_555
C2_5 C1_5 1_555 1_555
C3_5 C2_5 1_555 1_555
H4_5 C3_5 1_555 1_555
C4_5 C3_5 1_555 1_555
H5_5 C4_5 1_555 1_555
C5_5 C4_5 1_555 1_555
C6_5 C5_5 1_555 1_555
H6_5 C6_5 1_555 1_555
C7_5 C2_5 1_555 1_555
H7_5 C7_5 1_555 1_555
C8_5 N1_5 1_555 1_555
C9_5 N2_5 1_555 1_555
C10_5 N1_5 1_555 1_555
C11_5 C10_5 1_555 1_555
C12_5 C11_5 1_555 1_555
H8_5 C12_5 1_555 1_555
C13_5 C12_5 1_555 1_555
H9_5 C13_5 1_555 1_555
C14_5 C13_5 1_555 1_555
C15_5 C14_5 1_555 1_555
H10_5 C15_5 1_555 1_555
C16_5 C11_5 1_555 1_555
H11_5 C16_5 1_555 1_555
C17_5 C9_5 1_555 1_555
C18_5 C17_5 1_555 1_555
H12_5 C18_5 1_555 1_555
C19_5 C18_5 1_555 1_555
C20_5 C19_5 1_555 1_555
C21_5 C20_5 1_555 1_555
H14_5 C21_5 1_555 1_555
C22_5 C17_5 1_555 1_555
H15_5 C22_5 1_555 1_555
C23_5 C20_5 1_555 1_555
C24_5 C14_5 1_555 1_555
C25_5 O7_5 1_555 1_555
C26_5 N4_5 1_555 1_555
C27_5 C26_5 1_555 1_555
C28_5 N4_5 1_555 1_555
C29_5 C28_5 1_555 1_555
O10_3 Eu4_2 1_555 1_555
O11_3 Eu4_2 1_555 1_555
N2_5 C10_5 1_555 1_555
N3_5 C8_5 1_555 1_555
N3_5 C9_5 1_555 1_555
C5_5 C8_5 1_555 1_555
C6_5 C7_5 1_555 1_555
C15_5 C16_5 1_555 1_555
C21_5 C22_5 1_555 1_555
O8_5 H16_5 1_555 1_555
O8_5 H17_5 1_555 1_555
C27_5 H18_5 1_555 1_555
C27_5 H19_5 1_555 1_555
C27_5 H20_5 1_555 1_555
C26_5 H21_5 1_555 1_555
C26_5 H22_5 1_555 1_555
C28_5 H23_5 1_555 1_555
C28_5 H24_5 1_555 1_555
C29_5 H25_5 1_555 1_555
C29_5 H26_5 1_555 1_555
C29_5 H27_5 1_555 1_555
C25_5 H28_5 1_555 1_555
Eu4 O5_3 1_555 1_555
N1_6 H1_6 1_555 1_555
N2_6 H2_6 1_555 1_555
N3_6 H3_6 1_555 1_555
O1_6 C1_6 1_555 1_555
O9_4 C23_6 1_555 1_555
O4_4 C24_6 1_555 1_555
C1_6 O2_6 1_555 1_555
C2_6 C1_6 1_555 1_555
C3_6 C2_6 1_555 1_555
H4_6 C3_6 1_555 1_555
C4_6 C3_6 1_555 1_555
H5_6 C4_6 1_555 1_555
C5_6 C4_6 1_555 1_555
C6_6 C5_6 1_555 1_555
H6_6 C6_6 1_555 1_555
C7_6 C2_6 1_555 1_555
H7_6 C7_6 1_555 1_555
C8_6 N1_6 1_555 1_555
C9_6 N2_6 1_555 1_555
C10_6 N1_6 1_555 1_555
C11_6 C10_6 1_555 1_555
C12_6 C11_6 1_555 1_555
H8_6 C12_6 1_555 1_555
C13_6 C12_6 1_555 1_555
H9_6 C13_6 1_555 1_555
C14_6 C13_6 1_555 1_555
C15_6 C14_6 1_555 1_555
H10_6 C15_6 1_555 1_555
C16_6 C11_6 1_555 1_555
H11_6 C16_6 1_555 1_555
C17_6 C9_6 1_555 1_555
C18_6 C17_6 1_555 1_555
H12_6 C18_6 1_555 1_555
C19_6 C18_6 1_555 1_555
C20_6 C19_6 1_555 1_555
C21_6 C20_6 1_555 1_555
H14_6 C21_6 1_555 1_555
C22_6 C17_6 1_555 1_555
H15_6 C22_6 1_555 1_555
C23_6 C20_6 1_555 1_555
C24_6 C14_6 1_555 1_555
N2_6 C10_6 1_555 1_555
N3_6 C8_6 1_555 1_555
N3_6 C9_6 1_555 1_555
C5_6 C8_6 1_555 1_555
C6_6 C7_6 1_555 1_555
C15_6 C16_6 1_555 1_555
C21_6 C22_6 1_555 1_555
N4_6 C25_6 1_555 1_555
O7_6 Eu5_2 1_555 1_555
O8_6 Eu5_2 1_555 1_555
C25_6 O7_6 1_555 1_555
C26_6 N4_6 1_555 1_555
C27_6 C26_6 1_555 1_555
C28_6 N4_6 1_555 1_555
C29_6 C28_6 1_555 1_555
O8_6 H17_6 1_555 1_555
C27_6 H18_6 1_555 1_555
C27_6 H19_6 1_555 1_555
C27_6 H20_6 1_555 1_555
C26_6 H21_6 1_555 1_555
C26_6 H22_6 1_555 1_555
C28_6 H23_6 1_555 1_555
C28_6 H24_6 1_555 1_555
C29_6 H25_6 1_555 1_555
C29_6 H26_6 1_555 1_555
C29_6 H27_6 1_555 1_555
C25_6 H28_6 1_555 1_555
Eu4 O1_7 1_555 1_555
N1_7 H1_7 1_555 1_555
N2_7 H2_7 1_555 1_555
O1_7 C1_7 1_555 1_555
O10_4 C24_7 1_555 1_555
O12_2 C24_7 1_555 1_555
O7_7 Eu4 1_555 1_555
O8_7 Eu4 1_555 1_555
C2_7 C1_7 1_555 1_555
C3_7 C2_7 1_555 1_555
H4_7 C3_7 1_555 1_555
C4_7 C3_7 1_555 1_555
H5_7 C4_7 1_555 1_555
C5_7 C4_7 1_555 1_555
C8_7 N1_7 1_555 1_555
C10_7 N1_7 1_555 1_555
C11_7 C10_7 1_555 1_555
C12_7 C11_7 1_555 1_555
H8_7 C12_7 1_555 1_555
C13_7 C12_7 1_555 1_555
H9_7 C13_7 1_555 1_555
C14_7 C13_7 1_555 1_555
C15_7 C14_7 1_555 1_555
H10_7 C15_7 1_555 1_555
C16_7 C11_7 1_555 1_555
H11_7 C16_7 1_555 1_555
C24_7 C14_7 1_555 1_555
N2_7 C10_7 1_555 1_555
C5_7 C8_7 1_555 1_555
C15_7 C16_7 1_555 1_555
O8_7 H16_7 1_555 1_555
O8_7 H17_7 1_555 1_555
C26_7 H21_7 1_555 1_555
C26_7 H22_7 1_555 1_555
N3_7 H3_7 1_555 1_555
N4_7 C25_7 1_555 1_555
O9 C23_7 1_555 1_555
O11_3 C23_7 1_555 1_555
H6_7 C6_7 1_555 1_555
H7_7 C7_7 1_555 1_555
C17_7 C9_7 1_555 1_555
C18_7 C17_7 1_555 1_555
H12_7 C18_7 1_555 1_555
C19_7 C18_7 1_555 1_555
H13_7 C19_7 1_555 1_555
C20_7 C19_7 1_555 1_555
C21_7 C20_7 1_555 1_555
H14_7 C21_7 1_555 1_555
C22_7 C17_7 1_555 1_555
H15_7 C22_7 1_555 1_555
C23_7 C20_7 1_555 1_555
C28_7 N4_7 1_555 1_555
C29_7 C28_7 1_555 1_555
N3_7 C9_7 1_555 1_555
C6_7 C7_7 1_555 1_555
C21_7 C22_7 1_555 1_555
C27_7 H18_7 1_555 1_555
C27_7 H20_7 1_555 1_555
C28_7 H23_7 1_555 1_555
C28_7 H24_7 1_555 1_555
C29_7 H25_7 1_555 1_555
C29_7 H26_7 1_555 1_555
C29_7 H27_7 1_555 1_555
C25_7 H28_7 1_555 1_555
N1_8 H1_8 1_555 1_555
N2_8 H2_8 1_555 1_555
O1_8 C1_8 1_555 1_555
O10_3 C24_8 1_555 1_555
O12 C24_8 1_555 1_555
C2_8 C1_8 1_555 1_555
C3_8 C2_8 1_555 1_555
H4_8 C3_8 1_555 1_555
C4_8 C3_8 1_555 1_555
H5_8 C4_8 1_555 1_555
C5_8 C4_8 1_555 1_555
C8_8 N1_8 1_555 1_555
C10_8 N1_8 1_555 1_555
C11_8 C10_8 1_555 1_555
C12_8 C11_8 1_555 1_555
H8_8 C12_8 1_555 1_555
C13_8 C12_8 1_555 1_555
H9_8 C13_8 1_555 1_555
C14_8 C13_8 1_555 1_555
C15_8 C14_8 1_555 1_555
H10_8 C15_8 1_555 1_555
C16_8 C11_8 1_555 1_555
H11_8 C16_8 1_555 1_555
C24_8 C14_8 1_555 1_555
N2_8 C10_8 1_555 1_555
C5_8 C8_8 1_555 1_555
C15_8 C16_8 1_555 1_555
O7_8 Eu5 1_555 1_555
O8_8 Eu5 1_555 1_555
O8_8 H17_8 1_555 1_555
C26_8 H21_8 1_555 1_555
C26_8 H22_8 1_555 1_555
N3_8 H3_8 1_555 1_555
O9_2 C23_8 1_555 1_555
O11_4 C23_8 1_555 1_555
H6_8 C6_8 1_555 1_555
H7_8 C7_8 1_555 1_555
C17_8 C9_8 1_555 1_555
C18_8 C17_8 1_555 1_555
H12_8 C18_8 1_555 1_555
C19_8 C18_8 1_555 1_555
H13_8 C19_8 1_555 1_555
C20_8 C19_8 1_555 1_555
C21_8 C20_8 1_555 1_555
H14_8 C21_8 1_555 1_555
C22_8 C17_8 1_555 1_555
H15_8 C22_8 1_555 1_555
C23_8 C20_8 1_555 1_555
N3_8 C9_8 1_555 1_555
C6_8 C7_8 1_555 1_555
C21_8 C22_8 1_555 1_555
N4_8 C25_8 1_555 1_555
C28_8 N4_8 1_555 1_555
C29_8 C28_8 1_555 1_555
C27_8 H18_8 1_555 1_555
C27_8 H20_8 1_555 1_555
C28_8 H23_8 1_555 1_555
C28_8 H24_8 1_555 1_555
C29_8 H25_8 1_555 1_555
C29_8 H26_8 1_555 1_555
C29_8 H27_8 1_555 1_555
C25_8 H28_8 1_555 1_555

#END
