
###############################################################################
#
# This file contains modified crystal structure data generated from the
# MOF subset of the Cambridge Structural Database (CSD) v543 
# hosted by the Cambridge Crystallographic Data Centre (CCDC).
#
# This work is licensed under the Creative Commons
# Attribution-NonCommercial-ShareAlike 4.0 International License.
# To view a copy of this license, visit
# http://creativecommons.org/licenses/by-nc-sa/4.0/
# or send a letter to
# Creative Commons, PO Box 1866, Mountain View, CA 94042, USA.
#
# CIF created using the CSD Python API on 29 September 2022
# The structure has been converted into the P1 space group
# The structure has a 3D framework
# The original CSD entry KUNSAP is in the orthorhombic crystal system
# The framework has been calculated to contain at least 10.0% void space
# The void calculation uses a probe of radius 1.32A, grid spacing 0.4
# The framework is charged, counterions have been retained in the structure
#
###############################################################################

data_KUNSAP
_chemical_formula_moiety         '(C864 H480 In48 N96 O384)n'
_symmetry_cell_setting           triclinic
_symmetry_space_group_name_H-M   'P 1'
_symmetry_Int_Tables_number      1
_space_group_name_Hall           'P 1'
loop_
_symmetry_equiv_pos_site_id
_symmetry_equiv_pos_as_xyz
1 x,y,z
_cell_length_a                   32.092(18)
_cell_length_b                   34.184
_cell_length_c                   34.184(19)
_cell_angle_alpha                90
_cell_angle_beta                 90
_cell_angle_gamma                90
_cell_volume                     37501
loop_
_atom_site_label
_atom_site_type_symbol
_atom_site_fract_x
_atom_site_fract_y
_atom_site_fract_z
O7 O 0.0684(6) 0.0712(6) 0.5797(5)
O8 O 0.0359(6) 0.0401(6) 0.6473(6)
O9 O 0.1044(6) 0.0119(7) 0.5675(6)
O18 O 0.3309(8) 0.0073(8) 0.1787(8)
C26 C 0.0811(8) 0.0317(8) 0.5869(7)
C27 C 0.0637(7) 0.0200(9) 0.6280(6)
In4 In 0.03367(8) 0.10396(7) 0.62278(7)
In7 In 0.37660(9) 0.03862(7) 0.10536(8)
O30 O 0.1692(7) 0.0003(7) 0.6098(7)
In2 In 0.10258(8) 0.85720(8) 0.47708(7)
In3 In 0.12340(9) 0.96138(7) 0.60536(8)
N4 N 0.1666(7) 0.8752(5) 0.1909(6)
H4 H 0.1700 0.8945 0.2077
N5 N 0.1853(6) 0.8443(7) 0.1352(5)
H5 H 0.2012 0.8428 0.1143
N6 N 0.1329(5) 0.8204(6) 0.1724(7)
H6 H 0.1136 0.8026 0.1767
O2 O 0.0249(5) 0.9230(6) 0.4039(5)
O3 O 0.0365(5) 0.8407(5) 0.4625(5)
O4 O 0.0760(5) 0.9028(5) 0.4399(5)
O10 O 0.0750(7) 0.9866(7) 0.6426(5)
O13 O 0.0062(6) 0.8876(6) 0.3360(5)
O14 O 0.0098(9) 0.8226(10) 0.3371(9)
O15 O 0.1665(10) 0.6872(10) 0.0040(9)
O16 O 0.0980(8) 0.6940(8) 0.0184(7)
O17 O 0.3308(7) 0.9997(7) 0.1098(7)
O21 O 0.0673(6) 0.8853(6) 0.5291(5)
O22 O 0.1439(6) 0.9045(5) 0.4979(6)
O23 O 0.1524(6) 0.9481(5) 0.5433(5)
O24 O 0.0777(5) 0.9256(5) 0.5767(5)
C1 C 0.0203(8) 0.8610(7) 0.4365(7)
C2 C 0.0427(9) 0.8991(7) 0.4235(8)
C28 C 0.0190(5) 0.8546(11) 0.3259(6)
C29 C 0.0521(6) 0.8490(9) 0.2942(6)
C30 C 0.0745(8) 0.8823(7) 0.2845(7)
H19 H 0.0715 0.9054 0.2997
C31 C 0.1010(7) 0.8818(7) 0.2530(8)
H20 H 0.1163 0.9047 0.2465
C32 C 0.1058(6) 0.8486(9) 0.2307(6)
C33 C 0.0835(8) 0.8154(7) 0.2403(7)
H21 H 0.0865 0.7923 0.2251
C34 C 0.0569(7) 0.8158(7) 0.2718(8)
H22 H 0.0416 0.7929 0.2783
C35 C 0.1378(6) 0.8486(7) 0.1969(5)
C36 C 0.1903(5) 0.8728(6) 0.1600(7)
C37 C 0.1565(7) 0.8178(5) 0.1413(6)
C38 C 0.2268(10) 0.9046(9) 0.1586(11)
C39 C 0.2292(10) 0.9338(11) 0.1856(9)
H23 H 0.2087 0.9357 0.2055
C40 C 0.2608(11) 0.9604(9) 0.1841(9)
H24 H 0.2648 0.9782 0.2051
C41 C 0.2867(10) 0.9613(9) 0.1524(12)
C42 C 0.2834(10) 0.9325(11) 0.1249(9)
H25 H 0.3025 0.9321 0.1036
C43 C 0.2537(12) 0.9046(9) 0.1274(9)
H26 H 0.2514 0.8851 0.1077
C44 C 0.1551(11) 0.7865(7) 0.1119(7)
C45 C 0.1859(7) 0.7791(8) 0.0838(9)
H27 H 0.2114 0.7932 0.0843
C46 C 0.1791(8) 0.7508(9) 0.0550(7)
H28 H 0.1998 0.7456 0.0359
C47 C 0.1415(11) 0.7299(6) 0.0543(7)
C48 C 0.1110(7) 0.7373(8) 0.0820(9)
H29 H 0.0855 0.7232 0.0814
C49 C 0.1176(9) 0.7657(9) 0.1111(7)
H30 H 0.0967 0.7706 0.1302
C50 C 0.1359(10) 0.6975(7) 0.0222(8)
C51 C 0.3202(8) 0.9926(7) 0.1448(9)
C53 C 0.0868(8) 0.9098(9) 0.5440(9)
C54 C 0.1300(7) 0.9211(8) 0.5295(8)
O27 O 0.1169(6) 0.9125(7) 0.6564(5)
O28 O 0.1639(6) 0.9069(6) 0.6116(6)
O29 O 0.0980(8) 0.8060(8) 0.5184(7)
O31 O 0.1550(5) 0.8648(5) 0.4314(5)
O32 O 0.1102(7) 0.8182(5) 0.4258(7)
In6 In 0.10258(8) 0.64280(8) 0.97708(7)
In1 In 0.96633(8) 0.89604(7) 0.37722(7)
N1 N 0.7308(6) 0.7668(6) 0.3063(4)
H1 H 0.7407 0.7587 0.3289
N2 N 0.6843(4) 0.7609(5) 0.2567(6)
H2 H 0.6630 0.7489 0.2458
N3 N 0.7334(6) 0.8086(4) 0.2552(6)
H3 H 0.7450 0.8288 0.2434
O1 O 0.9839(5) 0.8550(5) 0.4261(5)
O5 O 0.9131(7) 0.8521(5) 0.3747(6)
O6 O 0.9126(7) 0.8976(6) 0.3315(5)
O11 O 0.6169(6) 0.5875(7) 0.3436(5)
O12 O 0.6639(6) 0.5931(6) 0.3884(6)
O19 O 0.6550(5) 0.8648(5) 0.0686(5)
O20 O 0.6102(7) 0.8182(5) 0.0742(7)
C3 C 0.8968(8) 0.8677(10) 0.3453(10)
C4 C 0.8543(7) 0.8510(7) 0.3362(8)
C5 C 0.8376(7) 0.8187(7) 0.3543(6)
H7 H 0.8513 0.8074 0.3762
C6 C 0.8010(7) 0.8026(6) 0.3408(7)
H8 H 0.7883 0.7815 0.3545
C7 C 0.7830(6) 0.8170(7) 0.3077(8)
C8 C 0.8015(7) 0.8472(7) 0.2879(6)
H9 H 0.7904 0.8555 0.2635
C9 C 0.8359(8) 0.8654(6) 0.3031(7)
H10 H 0.8470 0.8879 0.2907
C10 C 0.7478(4) 0.7965(6) 0.2887(6)
C11 C 0.6987(6) 0.7487(5) 0.2903(6)
C12 C 0.6813(7) 0.7135(5) 0.3108(7)
C13 C 0.6982(5) 0.7004(7) 0.3461(7)
H11 H 0.7176 0.7162 0.3598
C14 C 0.6866(6) 0.6643(7) 0.3610(6)
H12 H 0.6981 0.6555 0.3850
C15 C 0.6583(7) 0.6409(6) 0.3411(7)
C16 C 0.6412(6) 0.6540(7) 0.3059(7)
H13 H 0.6216 0.6383 0.2922
C17 C 0.6530(6) 0.6902(7) 0.2909(6)
H14 H 0.6415 0.6990 0.2669
C18 C 0.7015(6) 0.7909(6) 0.2390(4)
C19 C 0.6863(8) 0.8045(8) 0.2001(6)
C20 C 0.6509(8) 0.7864(7) 0.1843(7)
H15 H 0.6357 0.7680 0.1995
C21 C 0.6379(7) 0.7954(7) 0.1459(7)
H16 H 0.6166 0.7804 0.1337
C22 C 0.6567(8) 0.8267(8) 0.1260(6)
C23 C 0.6921(8) 0.8451(7) 0.1419(7)
H17 H 0.7059 0.8651 0.1275
C24 C 0.7072(7) 0.8340(7) 0.1789(7)
H18 H 0.7312 0.8463 0.1896
C25 C 0.6440(10) 0.6067(9) 0.3603(10)
C52 C 0.6399(9) 0.8368(9) 0.0841(9)
In5 In 0.60258(8) 0.85720(8) 0.02292(7)
In8 In 0.62340(9) 0.53862(7) 0.39464(8)
O25 O 0.9316(6) 0.9288(6) 0.4203(5)
O26 O 0.9641(6) 0.9599(6) 0.3527(6)
O10_2 O 0.4250(7) 0.0134(7) 0.1426(5)
O21_2 O 0.4327(6) 0.1147(6) 0.0291(5)
O23_2 O 0.3476(6) 0.0519(5) 0.0433(5)
O24_2 O 0.4223(5) 0.0744(5) 0.0767(5)
C53_2 C 0.4132(8) 0.0902(9) 0.0440(9)
C54_2 C 0.3700(7) 0.0789(8) 0.0295(8)
O27_2 O 0.3831(6) 0.0875(7) 0.1564(5)
O28_2 O 0.3361(6) 0.0931(6) 0.1116(6)
O29_2 O 0.4020(8) 0.1940(8) 0.0184(7)
In1_2 In 0.53367(8) 0.10396(7) 0.87722(7)
In2_2 In 0.39742(8) 0.14280(8) 0.97708(7)
N1_2 N 0.7692(6) 0.2332(6) 0.8063(4)
H1_2 H 0.7593 0.2413 0.8289
N2_2 N 0.8157(4) 0.2391(5) 0.7567(6)
H2_2 H 0.8370 0.2511 0.7458
N3_2 N 0.7666(6) 0.1914(4) 0.7552(6)
H3_2 H 0.7550 0.1712 0.7434
N4_2 N 0.3334(7) 0.1248(5) 0.6909(6)
H4_2 H 0.3300 0.1055 0.7077
N5_2 N 0.3147(6) 0.1557(7) 0.6352(5)
H5_2 H 0.2988 0.1572 0.6143
N6_2 N 0.3671(5) 0.1796(6) 0.6724(7)
H6_2 H 0.3864 0.1974 0.6767
O1_2 O 0.5161(5) 0.1450(5) 0.9261(5)
O2_2 O 0.4751(5) 0.0770(6) 0.9039(5)
O3_2 O 0.4635(5) 0.1593(5) 0.9625(5)
O4_2 O 0.4240(5) 0.0972(5) 0.9399(5)
O5_2 O 0.5869(7) 0.1479(5) 0.8747(6)
O6_2 O 0.5874(7) 0.1024(6) 0.8315(5)
O11_2 O 0.8831(6) 0.4125(7) 0.8436(5)
O12_2 O 0.8361(6) 0.4069(6) 0.8884(6)
O13_2 O 0.4938(6) 0.1124(6) 0.8360(5)
O14_2 O 0.4902(9) 0.1774(10) 0.8371(9)
O15_2 O 0.3335(10) 0.3128(10) 0.5040(9)
O16_2 O 0.4020(8) 0.3060(8) 0.5184(7)
O19_2 O 0.8450(5) 0.1352(5) 0.5686(5)
O20_2 O 0.8898(7) 0.1818(5) 0.5742(7)
O22_2 O 0.3561(6) 0.0955(5) 0.9979(6)
C1_2 C 0.4797(8) 0.1390(7) 0.9365(7)
C2_2 C 0.4573(9) 0.1009(7) 0.9235(8)
C3_2 C 0.6032(8) 0.1323(10) 0.8453(10)
C4_2 C 0.6457(7) 0.1490(7) 0.8362(8)
C5_2 C 0.6624(7) 0.1813(7) 0.8543(6)
H7_2 H 0.6487 0.1926 0.8762
C6_2 C 0.6990(7) 0.1974(6) 0.8408(7)
H8_2 H 0.7117 0.2185 0.8545
C7_2 C 0.7170(6) 0.1830(7) 0.8077(8)
C8_2 C 0.6985(7) 0.1528(7) 0.7879(6)
H9_2 H 0.7096 0.1445 0.7635
C9_2 C 0.6641(8) 0.1346(6) 0.8031(7)
H10_2 H 0.6530 0.1121 0.7907
C10_2 C 0.7522(4) 0.2035(6) 0.7887(6)
C11_2 C 0.8013(6) 0.2513(5) 0.7903(6)
C12_2 C 0.8187(7) 0.2865(5) 0.8108(7)
C13_2 C 0.8018(5) 0.2996(7) 0.8461(7)
H11_2 H 0.7824 0.2838 0.8598
C14_2 C 0.8134(6) 0.3357(7) 0.8610(6)
H12_2 H 0.8019 0.3445 0.8850
C15_2 C 0.8417(7) 0.3591(6) 0.8411(7)
C16_2 C 0.8588(6) 0.3460(7) 0.8059(7)
H13_2 H 0.8784 0.3617 0.7922
C17_2 C 0.8470(6) 0.3098(7) 0.7909(6)
H14_2 H 0.8585 0.3010 0.7669
C18_2 C 0.7985(6) 0.2091(6) 0.7390(4)
C19_2 C 0.8137(8) 0.1955(8) 0.7001(6)
C20_2 C 0.8491(8) 0.2136(7) 0.6843(7)
H15_2 H 0.8643 0.2320 0.6995
C21_2 C 0.8621(7) 0.2046(7) 0.6459(7)
H16_2 H 0.8834 0.2196 0.6337
C22_2 C 0.8433(8) 0.1733(8) 0.6260(6)
C23_2 C 0.8079(8) 0.1549(7) 0.6419(7)
H17_2 H 0.7941 0.1349 0.6275
C24_2 C 0.7928(7) 0.1660(7) 0.6789(7)
H18_2 H 0.7688 0.1537 0.6896
C25_2 C 0.8560(10) 0.3933(9) 0.8603(10)
C28_2 C 0.4810(5) 0.1454(11) 0.8259(6)
C29_2 C 0.4479(6) 0.1510(9) 0.7942(6)
C30_2 C 0.4255(8) 0.1177(7) 0.7845(7)
H19_2 H 0.4285 0.0946 0.7997
C31_2 C 0.3990(7) 0.1182(7) 0.7530(8)
H20_2 H 0.3837 0.0953 0.7465
C32_2 C 0.3942(6) 0.1514(9) 0.7307(6)
C33_2 C 0.4165(8) 0.1846(7) 0.7403(7)
H21_2 H 0.4135 0.2077 0.7251
C34_2 C 0.4431(7) 0.1842(7) 0.7718(8)
H22_2 H 0.4584 0.2071 0.7783
C35_2 C 0.3622(6) 0.1514(7) 0.6969(5)
C36_2 C 0.3097(5) 0.1272(6) 0.6600(7)
C37_2 C 0.3435(7) 0.1822(5) 0.6413(6)
C38_2 C 0.2732(10) 0.0954(9) 0.6586(11)
C39_2 C 0.2708(10) 0.0662(11) 0.6856(9)
H23_2 H 0.2913 0.0643 0.7055
C40_2 C 0.2392(11) 0.0396(9) 0.6841(9)
H24_2 H 0.2352 0.0218 0.7051
C41_2 C 0.2133(10) 0.0387(9) 0.6524(12)
C42_2 C 0.2166(10) 0.0675(11) 0.6249(9)
H25_2 H 0.1975 0.0679 0.6036
C43_2 C 0.2463(12) 0.0954(9) 0.6274(9)
H26_2 H 0.2486 0.1149 0.6077
C44_2 C 0.3449(11) 0.2135(7) 0.6119(7)
C45_2 C 0.3141(7) 0.2209(8) 0.5838(9)
H27_2 H 0.2886 0.2068 0.5843
C46_2 C 0.3209(8) 0.2492(9) 0.5550(7)
H28_2 H 0.3002 0.2544 0.5359
C47_2 C 0.3585(11) 0.2701(6) 0.5543(7)
C48_2 C 0.3890(7) 0.2627(8) 0.5820(9)
H29_2 H 0.4145 0.2768 0.5814
C49_2 C 0.3824(9) 0.2343(9) 0.6111(7)
H30_2 H 0.4033 0.2294 0.6302
C50_2 C 0.3641(10) 0.3025(7) 0.5222(8)
C51_2 C 0.1798(8) 0.0074(7) 0.6448(9)
C52_2 C 0.8601(9) 0.1632(9) 0.5841(9)
In5_2 In 0.89742(8) 0.14280(8) 0.52292(7)
In6_2 In 0.39742(8) 0.35720(8) 0.47708(7)
In8_2 In 0.87660(9) 0.46138(7) 0.89464(8)
O25_2 O 0.5684(6) 0.0712(6) 0.9203(5)
O26_2 O 0.5359(6) 0.0401(6) 0.8527(6)
O31_2 O 0.3450(5) 0.1352(5) 0.9314(5)
O32_2 O 0.3898(7) 0.1818(5) 0.9258(7)
O7_2 O 0.4316(6) 0.9288(6) 0.0797(5)
O8_2 O 0.4641(6) 0.9599(6) 0.1473(6)
O9_2 O 0.3956(6) 0.9881(7) 0.0675(6)
C26_2 C 0.4189(8) 0.9683(8) 0.0869(7)
C27_2 C 0.4363(7) 0.9800(9) 0.1280(6)
In4_2 In 0.46633(8) 0.89604(7) 0.12278(7)
O18_2 O 0.1691(8) 0.9927(8) 0.6787(8)
In1_3 In 0.03367(8) 0.39604(7) 0.12278(7)
N1_3 N 0.2692(6) 0.2668(6) 0.1937(4)
H1_3 H 0.2593 0.2587 0.1711
N2_3 N 0.3157(4) 0.2609(5) 0.2433(6)
H2_3 H 0.3370 0.2489 0.2542
N3_3 N 0.2666(6) 0.3086(4) 0.2448(6)
H3_3 H 0.2550 0.3288 0.2566
O1_3 O 0.0161(5) 0.3550(5) 0.0739(5)
O5_3 O 0.0869(7) 0.3521(5) 0.1253(6)
O6_3 O 0.0874(7) 0.3976(6) 0.1685(5)
O19_3 O 0.3450(5) 0.3648(5) 0.4314(5)
O20_3 O 0.3898(7) 0.3182(5) 0.4258(7)
C3_3 C 0.1032(8) 0.3677(10) 0.1547(10)
C4_3 C 0.1457(7) 0.3510(7) 0.1638(8)
C5_3 C 0.1624(7) 0.3187(7) 0.1457(6)
H7_3 H 0.1487 0.3074 0.1238
C6_3 C 0.1990(7) 0.3026(6) 0.1592(7)
H8_3 H 0.2117 0.2815 0.1455
C7_3 C 0.2170(6) 0.3170(7) 0.1923(8)
C8_3 C 0.1985(7) 0.3472(7) 0.2121(6)
H9_3 H 0.2096 0.3555 0.2365
C9_3 C 0.1641(8) 0.3654(6) 0.1969(7)
H10_3 H 0.1530 0.3879 0.2093
C10_3 C 0.2522(4) 0.2965(6) 0.2113(6)
C11_3 C 0.3013(6) 0.2487(5) 0.2097(6)
C12_3 C 0.3187(7) 0.2135(5) 0.1892(7)
C13_3 C 0.3018(5) 0.2004(7) 0.1539(7)
H11_3 H 0.2824 0.2162 0.1402
C14_3 C 0.3134(6) 0.1643(7) 0.1390(6)
H12_3 H 0.3019 0.1555 0.1150
C15_3 C 0.3417(7) 0.1409(6) 0.1589(7)
C16_3 C 0.3588(6) 0.1540(7) 0.1941(7)
H13_3 H 0.3784 0.1383 0.2078
C17_3 C 0.3470(6) 0.1902(7) 0.2091(6)
H14_3 H 0.3585 0.1990 0.2331
C18_3 C 0.2985(6) 0.2909(6) 0.2610(4)
C19_3 C 0.3137(8) 0.3045(8) 0.2999(6)
C20_3 C 0.3491(8) 0.2864(7) 0.3157(7)
H15_3 H 0.3643 0.2680 0.3005
C21_3 C 0.3621(7) 0.2954(7) 0.3541(7)
H16_3 H 0.3834 0.2804 0.3663
C22_3 C 0.3433(8) 0.3267(8) 0.3740(6)
C23_3 C 0.3079(8) 0.3451(7) 0.3581(7)
H17_3 H 0.2941 0.3651 0.3725
C24_3 C 0.2928(7) 0.3340(7) 0.3211(7)
H18_3 H 0.2688 0.3463 0.3104
C25_3 C 0.3560(10) 0.1067(9) 0.1397(10)
C52_3 C 0.3601(9) 0.3368(9) 0.4159(9)
O25_3 O 0.0684(6) 0.4288(6) 0.0797(5)
O26_3 O 0.0359(6) 0.4599(6) 0.1473(6)
In2_3 In 0.89742(8) 0.35720(8) 0.02292(7)
N4_3 N 0.8334(7) 0.3752(5) 0.3091(6)
H4_3 H 0.8300 0.3945 0.2923
N5_3 N 0.8147(6) 0.3443(7) 0.3648(5)
H5_3 H 0.7988 0.3428 0.3857
N6_3 N 0.8671(5) 0.3204(6) 0.3276(7)
H6_3 H 0.8864 0.3026 0.3233
O2_3 O 0.9751(5) 0.4230(6) 0.0961(5)
O3_3 O 0.9635(5) 0.3407(5) 0.0375(5)
O4_3 O 0.9240(5) 0.4028(5) 0.0601(5)
O13_3 O 0.9938(6) 0.3876(6) 0.1640(5)
O14_3 O 0.9902(9) 0.3226(10) 0.1629(9)
O15_3 O 0.8335(10) 0.1872(10) 0.4960(9)
O16_3 O 0.9020(8) 0.1940(8) 0.4816(7)
O17_2 O 0.6692(7) 0.4997(7) 0.3902(7)
O18_3 O 0.6691(8) 0.5073(8) 0.3213(8)
O22_3 O 0.8561(6) 0.4045(5) 0.0021(6)
C1_3 C 0.9797(8) 0.3610(7) 0.0635(7)
C2_3 C 0.9573(9) 0.3991(7) 0.0765(8)
C28_3 C 0.9810(5) 0.3546(11) 0.1741(6)
C29_3 C 0.9479(6) 0.3490(9) 0.2058(6)
C30_3 C 0.9255(8) 0.3823(7) 0.2155(7)
H19_3 H 0.9285 0.4054 0.2003
C31_3 C 0.8990(7) 0.3818(7) 0.2470(8)
H20_3 H 0.8837 0.4047 0.2535
C32_3 C 0.8942(6) 0.3486(9) 0.2693(6)
C33_3 C 0.9165(8) 0.3154(7) 0.2597(7)
H21_3 H 0.9135 0.2923 0.2749
C34_3 C 0.9431(7) 0.3158(7) 0.2282(8)
H22_3 H 0.9584 0.2929 0.2217
C35_3 C 0.8622(6) 0.3486(7) 0.3031(5)
C36_3 C 0.8097(5) 0.3728(6) 0.3400(7)
C37_3 C 0.8435(7) 0.3178(5) 0.3587(6)
C38_3 C 0.7732(10) 0.4046(9) 0.3414(11)
C39_3 C 0.7708(10) 0.4338(11) 0.3144(9)
H23_3 H 0.7913 0.4357 0.2945
C40_3 C 0.7392(11) 0.4604(9) 0.3159(9)
H24_3 H 0.7352 0.4782 0.2949
C41_3 C 0.7133(10) 0.4613(9) 0.3476(12)
C42_3 C 0.7166(10) 0.4325(11) 0.3751(9)
H25_3 H 0.6975 0.4321 0.3964
C43_3 C 0.7463(12) 0.4046(9) 0.3726(9)
H26_3 H 0.7486 0.3851 0.3923
C44_3 C 0.8449(11) 0.2865(7) 0.3881(7)
C45_3 C 0.8141(7) 0.2791(8) 0.4162(9)
H27_3 H 0.7886 0.2932 0.4157
C46_3 C 0.8209(8) 0.2508(9) 0.4450(7)
H28_3 H 0.8002 0.2456 0.4641
C47_3 C 0.8585(11) 0.2299(6) 0.4457(7)
C48_3 C 0.8890(7) 0.2373(8) 0.4180(9)
H29_3 H 0.9145 0.2232 0.4186
C49_3 C 0.8824(9) 0.2657(9) 0.3889(7)
H30_3 H 0.9033 0.2706 0.3698
C50_3 C 0.8641(10) 0.1975(7) 0.4778(8)
C51_3 C 0.6798(8) 0.4926(7) 0.3552(9)
O31_3 O 0.8450(5) 0.3648(5) 0.0686(5)
O32_3 O 0.8898(7) 0.3182(5) 0.0742(7)
O7_3 O 0.9316(6) 0.5712(6) 0.9203(5)
O8_3 O 0.9641(6) 0.5401(6) 0.8527(6)
O9_3 O 0.8956(6) 0.5119(7) 0.9325(6)
O10_3 O 0.9250(7) 0.4866(7) 0.8574(5)
O21_3 O 0.9327(6) 0.3853(6) 0.9709(5)
O23_3 O 0.8476(6) 0.4481(5) 0.9567(5)
O24_3 O 0.9223(5) 0.4256(5) 0.9233(5)
C26_3 C 0.9189(8) 0.5317(8) 0.9131(7)
C27_3 C 0.9363(7) 0.5200(9) 0.8720(6)
C53_3 C 0.9132(8) 0.4098(9) 0.9560(9)
C54_3 C 0.8700(7) 0.4211(8) 0.9705(8)
In4_3 In 0.96633(8) 0.60396(7) 0.87722(7)
O29_3 O 0.9020(8) 0.3060(8) 0.9816(7)
O30_2 O 0.8308(7) 0.5003(7) 0.8902(7)
In1_4 In 0.46633(8) 0.60396(7) 0.62278(7)
In2_4 In 0.60258(8) 0.64280(8) 0.52292(7)
N1_4 N 0.2308(6) 0.7332(6) 0.6937(4)
H1_4 H 0.2407 0.7413 0.6711
N2_4 N 0.1843(4) 0.7391(5) 0.7433(6)
H2_4 H 0.1630 0.7511 0.7542
N3_4 N 0.2334(6) 0.6914(4) 0.7448(6)
H3_4 H 0.2450 0.6712 0.7566
N4_4 N 0.6666(7) 0.6248(5) 0.8091(6)
H4_4 H 0.6700 0.6055 0.7923
N5_4 N 0.6853(6) 0.6557(7) 0.8648(5)
H5_4 H 0.7012 0.6572 0.8857
N6_4 N 0.6329(5) 0.6796(6) 0.8276(7)
H6_4 H 0.6136 0.6974 0.8233
O1_4 O 0.4839(5) 0.6450(5) 0.5739(5)
O2_4 O 0.5249(5) 0.5770(6) 0.5961(5)
O3_4 O 0.5365(5) 0.6593(5) 0.5375(5)
O4_4 O 0.5760(5) 0.5972(5) 0.5601(5)
O5_4 O 0.4131(7) 0.6479(5) 0.6253(6)
O6_4 O 0.4126(7) 0.6024(6) 0.6685(5)
O7_4 O 0.5684(6) 0.4288(6) 0.4203(5)
O8_4 O 0.5359(6) 0.4599(6) 0.3527(6)
O9_4 O 0.6044(6) 0.4881(7) 0.4325(6)
O10_4 O 0.5750(7) 0.5134(7) 0.3574(5)
O13_4 O 0.5062(6) 0.6124(6) 0.6640(5)
O14_4 O 0.5098(9) 0.6774(10) 0.6629(9)
O15_4 O 0.6665(10) 0.8128(10) 0.9960(9)
O16_4 O 0.5980(8) 0.8060(8) 0.9816(7)
O18_4 O 0.8309(8) 0.4927(8) 0.8213(8)
O19_4 O 0.1550(5) 0.6352(5) 0.9314(5)
O20_4 O 0.1102(7) 0.6818(5) 0.9258(7)
O21_4 O 0.5673(6) 0.6147(6) 0.4709(5)
O22_4 O 0.6439(6) 0.5955(5) 0.5021(6)
O23_4 O 0.6524(6) 0.5519(5) 0.4567(5)
O24_4 O 0.5777(5) 0.5744(5) 0.4233(5)
C1_4 C 0.5203(8) 0.6390(7) 0.5635(7)
C2_4 C 0.5427(9) 0.6009(7) 0.5765(8)
C3_4 C 0.3968(8) 0.6323(10) 0.6547(10)
C4_4 C 0.3543(7) 0.6490(7) 0.6638(8)
C5_4 C 0.3376(7) 0.6813(7) 0.6457(6)
H7_4 H 0.3513 0.6926 0.6238
C6_4 C 0.3010(7) 0.6974(6) 0.6592(7)
H8_4 H 0.2883 0.7185 0.6455
C7_4 C 0.2830(6) 0.6830(7) 0.6923(8)
C8_4 C 0.3015(7) 0.6528(7) 0.7121(6)
H9_4 H 0.2904 0.6445 0.7365
C9_4 C 0.3359(8) 0.6346(6) 0.6969(7)
H10_4 H 0.3470 0.6121 0.7093
C10_4 C 0.2478(4) 0.7035(6) 0.7113(6)
C11_4 C 0.1987(6) 0.7513(5) 0.7097(6)
C12_4 C 0.1813(7) 0.7865(5) 0.6892(7)
C13_4 C 0.1982(5) 0.7996(7) 0.6539(7)
H11_4 H 0.2176 0.7838 0.6402
C14_4 C 0.1866(6) 0.8357(7) 0.6390(6)
H12_4 H 0.1981 0.8445 0.6150
C15_4 C 0.1583(7) 0.8591(6) 0.6589(7)
C16_4 C 0.1412(6) 0.8460(7) 0.6941(7)
H13_4 H 0.1216 0.8617 0.7078
C17_4 C 0.1530(6) 0.8098(7) 0.7091(6)
H14_4 H 0.1415 0.8010 0.7331
C18_4 C 0.2015(6) 0.7091(6) 0.7610(4)
C19_4 C 0.1863(8) 0.6955(8) 0.7999(6)
C20_4 C 0.1509(8) 0.7136(7) 0.8157(7)
H15_4 H 0.1357 0.7320 0.8005
C21_4 C 0.1379(7) 0.7046(7) 0.8541(7)
H16_4 H 0.1166 0.7196 0.8663
C22_4 C 0.1567(8) 0.6733(8) 0.8740(6)
C23_4 C 0.1921(8) 0.6549(7) 0.8581(7)
H17_4 H 0.2059 0.6349 0.8725
C24_4 C 0.2072(7) 0.6660(7) 0.8211(7)
H18_4 H 0.2312 0.6537 0.8104
C25_4 C 0.1440(10) 0.8933(9) 0.6397(10)
C26_4 C 0.5811(8) 0.4683(8) 0.4131(7)
C27_4 C 0.5637(7) 0.4800(9) 0.3720(6)
C28_4 C 0.5190(5) 0.6454(11) 0.6741(6)
C29_4 C 0.5521(6) 0.6510(9) 0.7058(6)
C30_4 C 0.5745(8) 0.6177(7) 0.7155(7)
H19_4 H 0.5715 0.5946 0.7003
C31_4 C 0.6010(7) 0.6182(7) 0.7470(8)
H20_4 H 0.6163 0.5953 0.7535
C32_4 C 0.6058(6) 0.6514(9) 0.7693(6)
C33_4 C 0.5835(8) 0.6846(7) 0.7597(7)
H21_4 H 0.5865 0.7077 0.7749
C34_4 C 0.5569(7) 0.6842(7) 0.7282(8)
H22_4 H 0.5416 0.7071 0.7217
C35_4 C 0.6378(6) 0.6514(7) 0.8031(5)
C36_4 C 0.6903(5) 0.6272(6) 0.8400(7)
C37_4 C 0.6565(7) 0.6822(5) 0.8587(6)
C38_4 C 0.7268(10) 0.5954(9) 0.8414(11)
C39_4 C 0.7292(10) 0.5662(11) 0.8144(9)
H23_4 H 0.7087 0.5643 0.7945
C40_4 C 0.7608(11) 0.5396(9) 0.8159(9)
H24_4 H 0.7648 0.5218 0.7949
C41_4 C 0.7867(10) 0.5387(9) 0.8476(12)
C42_4 C 0.7834(10) 0.5675(11) 0.8751(9)
H25_4 H 0.8025 0.5679 0.8964
C43_4 C 0.7537(12) 0.5954(9) 0.8726(9)
H26_4 H 0.7514 0.6149 0.8923
C44_4 C 0.6551(11) 0.7135(7) 0.8881(7)
C45_4 C 0.6859(7) 0.7209(8) 0.9162(9)
H27_4 H 0.7114 0.7068 0.9157
C46_4 C 0.6791(8) 0.7492(9) 0.9450(7)
H28_4 H 0.6998 0.7544 0.9641
C47_4 C 0.6415(11) 0.7701(6) 0.9457(7)
C48_4 C 0.6110(7) 0.7627(8) 0.9180(9)
H29_4 H 0.5855 0.7768 0.9186
C49_4 C 0.6176(9) 0.7343(9) 0.8889(7)
H30_4 H 0.5967 0.7294 0.8698
C50_4 C 0.6359(10) 0.8025(7) 0.9778(8)
C51_4 C 0.8202(8) 0.5074(7) 0.8552(9)
C52_4 C 0.1399(9) 0.6632(9) 0.9159(9)
C53_4 C 0.5868(8) 0.5902(9) 0.4560(9)
C54_4 C 0.6300(7) 0.5789(8) 0.4705(8)
In4_4 In 0.53367(8) 0.39604(7) 0.37722(7)
O25_4 O 0.4316(6) 0.5712(6) 0.5797(5)
O26_4 O 0.4641(6) 0.5401(6) 0.6473(6)
O29_4 O 0.5980(8) 0.6940(8) 0.4816(7)
O31_4 O 0.6550(5) 0.6352(5) 0.5686(5)
O32_4 O 0.6102(7) 0.6818(5) 0.5742(7)
N1_5 N 0.2692(6) 0.2332(6) 0.6937(4)
H1_5 H 0.2593 0.2413 0.6711
N2_5 N 0.3157(4) 0.2391(5) 0.7433(6)
H2_5 H 0.3370 0.2511 0.7542
N3_5 N 0.2666(6) 0.1914(4) 0.7448(6)
H3_5 H 0.2550 0.1712 0.7566
O1_5 O 0.0161(5) 0.1450(5) 0.5739(5)
O5_5 O 0.0869(7) 0.1479(5) 0.6253(6)
O6_5 O 0.0874(7) 0.1024(6) 0.6685(5)
O11_3 O 0.3831(6) 0.4125(7) 0.6564(5)
O12_3 O 0.3361(6) 0.4069(6) 0.6116(6)
C3_5 C 0.1032(8) 0.1323(10) 0.6547(10)
C4_5 C 0.1457(7) 0.1490(7) 0.6638(8)
C5_5 C 0.1624(7) 0.1813(7) 0.6457(6)
H7_5 H 0.1487 0.1926 0.6238
C6_5 C 0.1990(7) 0.1974(6) 0.6592(7)
H8_5 H 0.2117 0.2185 0.6455
C7_5 C 0.2170(6) 0.1830(7) 0.6923(8)
C8_5 C 0.1985(7) 0.1528(7) 0.7121(6)
H9_5 H 0.2096 0.1445 0.7365
C9_5 C 0.1641(8) 0.1346(6) 0.6969(7)
H10_5 H 0.1530 0.1121 0.7093
C10_5 C 0.2522(4) 0.2035(6) 0.7113(6)
C11_5 C 0.3013(6) 0.2513(5) 0.7097(6)
C12_5 C 0.3187(7) 0.2865(5) 0.6892(7)
C13_5 C 0.3018(5) 0.2996(7) 0.6539(7)
H11_5 H 0.2824 0.2838 0.6402
C14_5 C 0.3134(6) 0.3357(7) 0.6390(6)
H12_5 H 0.3019 0.3445 0.6150
C15_5 C 0.3417(7) 0.3591(6) 0.6589(7)
C16_5 C 0.3588(6) 0.3460(7) 0.6941(7)
H13_5 H 0.3784 0.3617 0.7078
C17_5 C 0.3470(6) 0.3098(7) 0.7091(6)
H14_5 H 0.3585 0.3010 0.7331
C18_5 C 0.2985(6) 0.2091(6) 0.7610(4)
C19_5 C 0.3137(8) 0.1955(8) 0.7999(6)
C20_5 C 0.3491(8) 0.2136(7) 0.8157(7)
H15_5 H 0.3643 0.2320 0.8005
C21_5 C 0.3621(7) 0.2046(7) 0.8541(7)
H16_5 H 0.3834 0.2196 0.8663
C22_5 C 0.3433(8) 0.1733(8) 0.8740(6)
C23_5 C 0.3079(8) 0.1549(7) 0.8581(7)
H17_5 H 0.2941 0.1349 0.8725
C24_5 C 0.2928(7) 0.1660(7) 0.8211(7)
H18_5 H 0.2688 0.1537 0.8104
C25_5 C 0.3560(10) 0.3933(9) 0.6397(10)
C52_5 C 0.3601(9) 0.1632(9) 0.9159(9)
In8_3 In 0.37660(9) 0.46138(7) 0.60536(8)
In3_2 In 0.87660(9) 0.03862(7) 0.39464(8)
N4_5 N 0.8334(7) 0.1248(5) 0.8091(6)
H4_5 H 0.8300 0.1055 0.7923
N5_5 N 0.8147(6) 0.1557(7) 0.8648(5)
H5_5 H 0.7988 0.1572 0.8857
N6_5 N 0.8671(5) 0.1796(6) 0.8276(7)
H6_5 H 0.8864 0.1974 0.8233
O2_5 O 0.9751(5) 0.0770(6) 0.5961(5)
O3_5 O 0.9635(5) 0.1593(5) 0.5375(5)
O4_5 O 0.9240(5) 0.0972(5) 0.5601(5)
O10_5 O 0.9250(7) 0.0134(7) 0.3574(5)
O13_5 O 0.9938(6) 0.1124(6) 0.6640(5)
O14_5 O 0.9902(9) 0.1774(10) 0.6629(9)
O15_5 O 0.8335(10) 0.3128(10) 0.9960(9)
O17_3 O 0.6692(7) 0.0003(7) 0.8902(7)
O21_5 O 0.9327(6) 0.1147(6) 0.4709(5)
O22_5 O 0.8561(6) 0.0955(5) 0.5021(6)
O23_5 O 0.8476(6) 0.0519(5) 0.4567(5)
O24_5 O 0.9223(5) 0.0744(5) 0.4233(5)
C1_5 C 0.9797(8) 0.1390(7) 0.5635(7)
C2_5 C 0.9573(9) 0.1009(7) 0.5765(8)
C28_5 C 0.9810(5) 0.1454(11) 0.6741(6)
C29_5 C 0.9479(6) 0.1510(9) 0.7058(6)
C30_5 C 0.9255(8) 0.1177(7) 0.7155(7)
H19_5 H 0.9285 0.0946 0.7003
C31_5 C 0.8990(7) 0.1182(7) 0.7470(8)
H20_5 H 0.8837 0.0953 0.7535
C32_5 C 0.8942(6) 0.1514(9) 0.7693(6)
C33_5 C 0.9165(8) 0.1846(7) 0.7597(7)
H21_5 H 0.9135 0.2077 0.7749
C34_5 C 0.9431(7) 0.1842(7) 0.7282(8)
H22_5 H 0.9584 0.2071 0.7217
C35_5 C 0.8622(6) 0.1514(7) 0.8031(5)
C36_5 C 0.8097(5) 0.1272(6) 0.8400(7)
C37_5 C 0.8435(7) 0.1822(5) 0.8587(6)
C38_5 C 0.7732(10) 0.0954(9) 0.8414(11)
C39_5 C 0.7708(10) 0.0662(11) 0.8144(9)
H23_5 H 0.7913 0.0643 0.7945
C40_5 C 0.7392(11) 0.0396(9) 0.8159(9)
H24_5 H 0.7352 0.0218 0.7949
C41_5 C 0.7133(10) 0.0387(9) 0.8476(12)
C42_5 C 0.7166(10) 0.0675(11) 0.8751(9)
H25_5 H 0.6975 0.0679 0.8964
C43_5 C 0.7463(12) 0.0954(9) 0.8726(9)
H26_5 H 0.7486 0.1149 0.8923
C44_5 C 0.8449(11) 0.2135(7) 0.8881(7)
C45_5 C 0.8141(7) 0.2209(8) 0.9162(9)
H27_5 H 0.7886 0.2068 0.9157
C46_5 C 0.8209(8) 0.2492(9) 0.9450(7)
H28_5 H 0.8002 0.2544 0.9641
C47_5 C 0.8585(11) 0.2701(6) 0.9457(7)
C48_5 C 0.8890(7) 0.2627(8) 0.9180(9)
H29_5 H 0.9145 0.2768 0.9186
C49_5 C 0.8824(9) 0.2343(9) 0.8889(7)
H30_5 H 0.9033 0.2294 0.8698
C50_5 C 0.8641(10) 0.3025(7) 0.9778(8)
C51_5 C 0.6798(8) 0.0074(7) 0.8552(9)
C53_5 C 0.9132(8) 0.0902(9) 0.4560(9)
C54_5 C 0.8700(7) 0.0789(8) 0.4705(8)
O27_3 O 0.8831(6) 0.0875(7) 0.3436(5)
O28_3 O 0.8361(6) 0.0931(6) 0.3884(6)
O9_5 O 0.8956(6) 0.9881(7) 0.4325(6)
O18_5 O 0.6691(8) 0.9927(8) 0.8213(8)
C26_5 C 0.9189(8) 0.9683(8) 0.4131(7)
C27_5 C 0.9363(7) 0.9800(9) 0.3720(6)
In7_2 In 0.62340(9) 0.96138(7) 0.89464(8)
O30_3 O 0.8308(7) 0.9997(7) 0.3902(7)
O18_6 O 0.8309(8) 0.0073(8) 0.3213(8)
O9_6 O 0.6044(6) 0.0119(7) 0.9325(6)
C26_6 C 0.5811(8) 0.0317(8) 0.9131(7)
C27_6 C 0.5637(7) 0.0200(9) 0.8720(6)
N1_6 N 0.2308(6) 0.7668(6) 0.1937(4)
H1_6 H 0.2407 0.7587 0.1711
N2_6 N 0.1843(4) 0.7609(5) 0.2433(6)
H2_6 H 0.1630 0.7489 0.2542
N3_6 N 0.2334(6) 0.8086(4) 0.2448(6)
H3_6 H 0.2450 0.8288 0.2566
N4_6 N 0.6666(7) 0.8752(5) 0.3091(6)
H4_6 H 0.6700 0.8945 0.2923
N5_6 N 0.6853(6) 0.8443(7) 0.3648(5)
H5_6 H 0.7012 0.8428 0.3857
N6_6 N 0.6329(5) 0.8204(6) 0.3276(7)
H6_6 H 0.6136 0.8026 0.3233
O1_6 O 0.4839(5) 0.8550(5) 0.0739(5)
O2_6 O 0.5249(5) 0.9230(6) 0.0961(5)
O3_6 O 0.5365(5) 0.8407(5) 0.0375(5)
O4_6 O 0.5760(5) 0.9028(5) 0.0601(5)
O5_6 O 0.4131(7) 0.8521(5) 0.1253(6)
O6_6 O 0.4126(7) 0.8976(6) 0.1685(5)
O11_4 O 0.1169(6) 0.5875(7) 0.1564(5)
O12_4 O 0.1639(6) 0.5931(6) 0.1116(6)
O13_6 O 0.5062(6) 0.8876(6) 0.1640(5)
O14_6 O 0.5098(9) 0.8226(10) 0.1629(9)
O15_6 O 0.6665(10) 0.6872(10) 0.4960(9)
O22_6 O 0.6439(6) 0.9045(5) 0.0021(6)
C1_6 C 0.5203(8) 0.8610(7) 0.0635(7)
C2_6 C 0.5427(9) 0.8991(7) 0.0765(8)
C3_6 C 0.3968(8) 0.8677(10) 0.1547(10)
C4_6 C 0.3543(7) 0.8510(7) 0.1638(8)
C5_6 C 0.3376(7) 0.8187(7) 0.1457(6)
H7_6 H 0.3513 0.8074 0.1238
C6_6 C 0.3010(7) 0.8026(6) 0.1592(7)
H8_6 H 0.2883 0.7815 0.1455
C7_6 C 0.2830(6) 0.8170(7) 0.1923(8)
C8_6 C 0.3015(7) 0.8472(7) 0.2121(6)
H9_6 H 0.2904 0.8555 0.2365
C9_6 C 0.3359(8) 0.8654(6) 0.1969(7)
H10_6 H 0.3470 0.8879 0.2093
C10_6 C 0.2478(4) 0.7965(6) 0.2113(6)
C11_6 C 0.1987(6) 0.7487(5) 0.2097(6)
C12_6 C 0.1813(7) 0.7135(5) 0.1892(7)
C13_6 C 0.1982(5) 0.7004(7) 0.1539(7)
H11_6 H 0.2176 0.7162 0.1402
C14_6 C 0.1866(6) 0.6643(7) 0.1390(6)
H12_6 H 0.1981 0.6555 0.1150
C15_6 C 0.1583(7) 0.6409(6) 0.1589(7)
C16_6 C 0.1412(6) 0.6540(7) 0.1941(7)
H13_6 H 0.1216 0.6383 0.2078
C17_6 C 0.1530(6) 0.6902(7) 0.2091(6)
H14_6 H 0.1415 0.6990 0.2331
C18_6 C 0.2015(6) 0.7909(6) 0.2610(4)
C19_6 C 0.1863(8) 0.8045(8) 0.2999(6)
C20_6 C 0.1509(8) 0.7864(7) 0.3157(7)
H15_6 H 0.1357 0.7680 0.3005
C21_6 C 0.1379(7) 0.7954(7) 0.3541(7)
H16_6 H 0.1166 0.7804 0.3663
C22_6 C 0.1567(8) 0.8267(8) 0.3740(6)
C23_6 C 0.1921(8) 0.8451(7) 0.3581(7)
H17_6 H 0.2059 0.8651 0.3725
C24_6 C 0.2072(7) 0.8340(7) 0.3211(7)
H18_6 H 0.2312 0.8463 0.3104
C25_6 C 0.1440(10) 0.6067(9) 0.1397(10)
C28_6 C 0.5190(5) 0.8546(11) 0.1741(6)
C29_6 C 0.5521(6) 0.8490(9) 0.2058(6)
C30_6 C 0.5745(8) 0.8823(7) 0.2155(7)
H19_6 H 0.5715 0.9054 0.2003
C31_6 C 0.6010(7) 0.8818(7) 0.2470(8)
H20_6 H 0.6163 0.9047 0.2535
C32_6 C 0.6058(6) 0.8486(9) 0.2693(6)
C33_6 C 0.5835(8) 0.8154(7) 0.2597(7)
H21_6 H 0.5865 0.7923 0.2749
C34_6 C 0.5569(7) 0.8158(7) 0.2282(8)
H22_6 H 0.5416 0.7929 0.2217
C35_6 C 0.6378(6) 0.8486(7) 0.3031(5)
C36_6 C 0.6903(5) 0.8728(6) 0.3400(7)
C37_6 C 0.6565(7) 0.8178(5) 0.3587(6)
C38_6 C 0.7268(10) 0.9046(9) 0.3414(11)
C39_6 C 0.7292(10) 0.9338(11) 0.3144(9)
H23_6 H 0.7087 0.9357 0.2945
C40_6 C 0.7608(11) 0.9604(9) 0.3159(9)
H24_6 H 0.7648 0.9782 0.2949
C41_6 C 0.7867(10) 0.9613(9) 0.3476(12)
C42_6 C 0.7834(10) 0.9325(11) 0.3751(9)
H25_6 H 0.8025 0.9321 0.3964
C43_6 C 0.7537(12) 0.9046(9) 0.3726(9)
H26_6 H 0.7514 0.8851 0.3923
C44_6 C 0.6551(11) 0.7865(7) 0.3881(7)
C45_6 C 0.6859(7) 0.7791(8) 0.4162(9)
H27_6 H 0.7114 0.7932 0.4157
C46_6 C 0.6791(8) 0.7508(9) 0.4450(7)
H28_6 H 0.6998 0.7456 0.4641
C47_6 C 0.6415(11) 0.7299(6) 0.4457(7)
C48_6 C 0.6110(7) 0.7373(8) 0.4180(9)
H29_6 H 0.5855 0.7232 0.4186
C49_6 C 0.6176(9) 0.7657(9) 0.3889(7)
H30_6 H 0.5967 0.7706 0.3698
C50_6 C 0.6359(10) 0.6975(7) 0.4778(8)
C51_6 C 0.8202(8) 0.9926(7) 0.3552(9)
C52_6 C 0.1399(9) 0.8368(9) 0.4159(9)
In8_4 In 0.12340(9) 0.53862(7) 0.10536(8)
O10_6 O 0.5750(7) 0.9866(7) 0.8574(5)
O21_6 O 0.5673(6) 0.8853(6) 0.9709(5)
O23_6 O 0.6524(6) 0.9481(5) 0.9567(5)
O24_6 O 0.5777(5) 0.9256(5) 0.9233(5)
C53_6 C 0.5868(8) 0.9098(9) 0.9560(9)
C54_6 C 0.6300(7) 0.9211(8) 0.9705(8)
O27_4 O 0.6169(6) 0.9125(7) 0.8436(5)
O28_4 O 0.6639(6) 0.9069(6) 0.8884(6)
O9_7 O 0.1044(6) 0.4881(7) 0.0675(6)
O10_7 O 0.0750(7) 0.5134(7) 0.1426(5)
O21_7 O 0.0673(6) 0.6147(6) 0.0291(5)
O23_7 O 0.1524(6) 0.5519(5) 0.0433(5)
O24_7 O 0.0777(5) 0.5744(5) 0.0767(5)
C26_7 C 0.0811(8) 0.4683(8) 0.0869(7)
C27_7 C 0.0637(7) 0.4800(9) 0.1280(6)
C53_7 C 0.0868(8) 0.5902(9) 0.0440(9)
C54_7 C 0.1300(7) 0.5789(8) 0.0295(8)
O30_4 O 0.1692(7) 0.4997(7) 0.1098(7)
N4_7 N 0.1666(7) 0.6248(5) 0.6909(6)
H4_7 H 0.1700 0.6055 0.7077
N5_7 N 0.1853(6) 0.6557(7) 0.6352(5)
H5_7 H 0.2012 0.6572 0.6143
N6_7 N 0.1329(5) 0.6796(6) 0.6724(7)
H6_7 H 0.1136 0.6974 0.6767
O2_7 O 0.0249(5) 0.5770(6) 0.9039(5)
O3_7 O 0.0365(5) 0.6593(5) 0.9625(5)
O4_7 O 0.0760(5) 0.5972(5) 0.9399(5)
O13_7 O 0.0062(6) 0.6124(6) 0.8360(5)
O14_7 O 0.0098(9) 0.6774(10) 0.8371(9)
O15_7 O 0.1665(10) 0.8128(10) 0.5040(9)
O17_4 O 0.3308(7) 0.5003(7) 0.6098(7)
O18_7 O 0.3309(8) 0.4927(8) 0.6787(8)
O22_7 O 0.1439(6) 0.5955(5) 0.9979(6)
C1_7 C 0.0203(8) 0.6390(7) 0.9365(7)
C2_7 C 0.0427(9) 0.6009(7) 0.9235(8)
C28_7 C 0.0190(5) 0.6454(11) 0.8259(6)
C29_7 C 0.0521(6) 0.6510(9) 0.7942(6)
C30_7 C 0.0745(8) 0.6177(7) 0.7845(7)
H19_7 H 0.0715 0.5946 0.7997
C31_7 C 0.1010(7) 0.6182(7) 0.7530(8)
H20_7 H 0.1163 0.5953 0.7465
C32_7 C 0.1058(6) 0.6514(9) 0.7307(6)
C33_7 C 0.0835(8) 0.6846(7) 0.7403(7)
H21_7 H 0.0865 0.7077 0.7251
C34_7 C 0.0569(7) 0.6842(7) 0.7718(8)
H22_7 H 0.0416 0.7071 0.7783
C35_7 C 0.1378(6) 0.6514(7) 0.6969(5)
C36_7 C 0.1903(5) 0.6272(6) 0.6600(7)
C37_7 C 0.1565(7) 0.6822(5) 0.6413(6)
C38_7 C 0.2268(10) 0.5954(9) 0.6586(11)
C39_7 C 0.2292(10) 0.5662(11) 0.6856(9)
H23_7 H 0.2087 0.5643 0.7055
C40_7 C 0.2608(11) 0.5396(9) 0.6841(9)
H24_7 H 0.2648 0.5218 0.7051
C41_7 C 0.2867(10) 0.5387(9) 0.6524(12)
C42_7 C 0.2834(10) 0.5675(11) 0.6249(9)
H25_7 H 0.3025 0.5679 0.6036
C43_7 C 0.2537(12) 0.5954(9) 0.6274(9)
H26_7 H 0.2514 0.6149 0.6077
C44_7 C 0.1551(11) 0.7135(7) 0.6119(7)
C45_7 C 0.1859(7) 0.7209(8) 0.5838(9)
H27_7 H 0.2114 0.7068 0.5843
C46_7 C 0.1791(8) 0.7492(9) 0.5550(7)
H28_7 H 0.1998 0.7544 0.5359
C47_7 C 0.1415(11) 0.7701(6) 0.5543(7)
C48_7 C 0.1110(7) 0.7627(8) 0.5820(9)
H29_7 H 0.0855 0.7768 0.5814
C49_7 C 0.1176(9) 0.7343(9) 0.6111(7)
H30_7 H 0.0967 0.7294 0.6302
C50_7 C 0.1359(10) 0.8025(7) 0.5222(8)
C51_7 C 0.3202(8) 0.5074(7) 0.6448(9)
N1_7 N 0.7308(6) 0.7332(6) 0.8063(4)
H1_7 H 0.7407 0.7413 0.8289
N2_7 N 0.6843(4) 0.7391(5) 0.7567(6)
H2_7 H 0.6630 0.7511 0.7458
N3_7 N 0.7334(6) 0.6914(4) 0.7552(6)
H3_7 H 0.7450 0.6712 0.7434
O1_7 O 0.9839(5) 0.6450(5) 0.9261(5)
O5_7 O 0.9131(7) 0.6479(5) 0.8747(6)
O6_7 O 0.9126(7) 0.6024(6) 0.8315(5)
C3_7 C 0.8968(8) 0.6323(10) 0.8453(10)
C4_7 C 0.8543(7) 0.6490(7) 0.8362(8)
C5_7 C 0.8376(7) 0.6813(7) 0.8543(6)
H7_7 H 0.8513 0.6926 0.8762
C6_7 C 0.8010(7) 0.6974(6) 0.8408(7)
H8_7 H 0.7883 0.7185 0.8545
C7_7 C 0.7830(6) 0.6830(7) 0.8077(8)
C8_7 C 0.8015(7) 0.6528(7) 0.7879(6)
H9_7 H 0.7904 0.6445 0.7635
C9_7 C 0.8359(8) 0.6346(6) 0.8031(7)
H10_7 H 0.8470 0.6121 0.7907
C10_7 C 0.7478(4) 0.7035(6) 0.7887(6)
C11_7 C 0.6987(6) 0.7513(5) 0.7903(6)
C12_7 C 0.6813(7) 0.7865(5) 0.8108(7)
C13_7 C 0.6982(5) 0.7996(7) 0.8461(7)
H11_7 H 0.7176 0.7838 0.8598
C14_7 C 0.6866(6) 0.8357(7) 0.8610(6)
H12_7 H 0.6981 0.8445 0.8850
C15_7 C 0.6583(7) 0.8591(6) 0.8411(7)
C16_7 C 0.6412(6) 0.8460(7) 0.8059(7)
H13_7 H 0.6216 0.8617 0.7922
C17_7 C 0.6530(6) 0.8098(7) 0.7909(6)
H14_7 H 0.6415 0.8010 0.7669
C18_7 C 0.7015(6) 0.7091(6) 0.7390(4)
C19_7 C 0.6863(8) 0.6955(8) 0.7001(6)
C20_7 C 0.6509(8) 0.7136(7) 0.6843(7)
H15_7 H 0.6357 0.7320 0.6995
C21_7 C 0.6379(7) 0.7046(7) 0.6459(7)
H16_7 H 0.6166 0.7196 0.6337
C22_7 C 0.6567(8) 0.6733(8) 0.6260(6)
C23_7 C 0.6921(8) 0.6549(7) 0.6419(7)
H17_7 H 0.7059 0.6349 0.6275
C24_7 C 0.7072(7) 0.6660(7) 0.6789(7)
H18_7 H 0.7312 0.6537 0.6896
C25_7 C 0.6440(10) 0.8933(9) 0.8603(10)
C52_7 C 0.6399(9) 0.6632(9) 0.5841(9)
N1_8 N 0.7692(6) 0.2668(6) 0.3063(4)
H1_8 H 0.7593 0.2587 0.3289
N2_8 N 0.8157(4) 0.2609(5) 0.2567(6)
H2_8 H 0.8370 0.2489 0.2458
N3_8 N 0.7666(6) 0.3086(4) 0.2552(6)
H3_8 H 0.7550 0.3288 0.2434
N4_8 N 0.3334(7) 0.3752(5) 0.1909(6)
H4_8 H 0.3300 0.3945 0.2077
N5_8 N 0.3147(6) 0.3443(7) 0.1352(5)
H5_8 H 0.2988 0.3428 0.1143
N6_8 N 0.3671(5) 0.3204(6) 0.1724(7)
H6_8 H 0.3864 0.3026 0.1767
O1_8 O 0.5161(5) 0.3550(5) 0.4261(5)
O2_8 O 0.4751(5) 0.4230(6) 0.4039(5)
O3_8 O 0.4635(5) 0.3407(5) 0.4625(5)
O4_8 O 0.4240(5) 0.4028(5) 0.4399(5)
O5_8 O 0.5869(7) 0.3521(5) 0.3747(6)
O6_8 O 0.5874(7) 0.3976(6) 0.3315(5)
O9_8 O 0.3956(6) 0.5119(7) 0.5675(6)
O10_8 O 0.4250(7) 0.4866(7) 0.6426(5)
O13_8 O 0.4938(6) 0.3876(6) 0.3360(5)
O14_8 O 0.4902(9) 0.3226(10) 0.3371(9)
O15_8 O 0.3335(10) 0.1872(10) 0.0040(9)
O18_8 O 0.1691(8) 0.5073(8) 0.1787(8)
O21_8 O 0.4327(6) 0.3853(6) 0.5291(5)
O22_8 O 0.3561(6) 0.4045(5) 0.4979(6)
O23_8 O 0.3476(6) 0.4481(5) 0.5433(5)
O24_8 O 0.4223(5) 0.4256(5) 0.5767(5)
C1_8 C 0.4797(8) 0.3610(7) 0.4365(7)
C2_8 C 0.4573(9) 0.3991(7) 0.4235(8)
C3_8 C 0.6032(8) 0.3677(10) 0.3453(10)
C4_8 C 0.6457(7) 0.3510(7) 0.3362(8)
C5_8 C 0.6624(7) 0.3187(7) 0.3543(6)
H7_8 H 0.6487 0.3074 0.3762
C6_8 C 0.6990(7) 0.3026(6) 0.3408(7)
H8_8 H 0.7117 0.2815 0.3545
C7_8 C 0.7170(6) 0.3170(7) 0.3077(8)
C8_8 C 0.6985(7) 0.3472(7) 0.2879(6)
H9_8 H 0.7096 0.3555 0.2635
C9_8 C 0.6641(8) 0.3654(6) 0.3031(7)
H10_8 H 0.6530 0.3879 0.2907
C10_8 C 0.7522(4) 0.2965(6) 0.2887(6)
C11_8 C 0.8013(6) 0.2487(5) 0.2903(6)
C12_8 C 0.8187(7) 0.2135(5) 0.3108(7)
C13_8 C 0.8018(5) 0.2004(7) 0.3461(7)
H11_8 H 0.7824 0.2162 0.3598
C14_8 C 0.8134(6) 0.1643(7) 0.3610(6)
H12_8 H 0.8019 0.1555 0.3850
C15_8 C 0.8417(7) 0.1409(6) 0.3411(7)
C16_8 C 0.8588(6) 0.1540(7) 0.3059(7)
H13_8 H 0.8784 0.1383 0.2922
C17_8 C 0.8470(6) 0.1902(7) 0.2909(6)
H14_8 H 0.8585 0.1990 0.2669
C18_8 C 0.7985(6) 0.2909(6) 0.2390(4)
C19_8 C 0.8137(8) 0.3045(8) 0.2001(6)
C20_8 C 0.8491(8) 0.2864(7) 0.1843(7)
H15_8 H 0.8643 0.2680 0.1995
C21_8 C 0.8621(7) 0.2954(7) 0.1459(7)
H16_8 H 0.8834 0.2804 0.1337
C22_8 C 0.8433(8) 0.3267(8) 0.1260(6)
C23_8 C 0.8079(8) 0.3451(7) 0.1419(7)
H17_8 H 0.7941 0.3651 0.1275
C24_8 C 0.7928(7) 0.3340(7) 0.1789(7)
H18_8 H 0.7688 0.3463 0.1896
C25_8 C 0.8560(10) 0.1067(9) 0.3603(10)
C26_8 C 0.4189(8) 0.5317(8) 0.5869(7)
C27_8 C 0.4363(7) 0.5200(9) 0.6280(6)
C28_8 C 0.4810(5) 0.3546(11) 0.3259(6)
C29_8 C 0.4479(6) 0.3490(9) 0.2942(6)
C30_8 C 0.4255(8) 0.3823(7) 0.2845(7)
H19_8 H 0.4285 0.4054 0.2997
C31_8 C 0.3990(7) 0.3818(7) 0.2530(8)
H20_8 H 0.3837 0.4047 0.2465
C32_8 C 0.3942(6) 0.3486(9) 0.2307(6)
C33_8 C 0.4165(8) 0.3154(7) 0.2403(7)
H21_8 H 0.4135 0.2923 0.2251
C34_8 C 0.4431(7) 0.3158(7) 0.2718(8)
H22_8 H 0.4584 0.2929 0.2783
C35_8 C 0.3622(6) 0.3486(7) 0.1969(5)
C36_8 C 0.3097(5) 0.3728(6) 0.1600(7)
C37_8 C 0.3435(7) 0.3178(5) 0.1413(6)
C38_8 C 0.2732(10) 0.4046(9) 0.1586(11)
C39_8 C 0.2708(10) 0.4338(11) 0.1856(9)
H23_8 H 0.2913 0.4357 0.2055
C40_8 C 0.2392(11) 0.4604(9) 0.1841(9)
H24_8 H 0.2352 0.4782 0.2051
C41_8 C 0.2133(10) 0.4613(9) 0.1524(12)
C42_8 C 0.2166(10) 0.4325(11) 0.1249(9)
H25_8 H 0.1975 0.4321 0.1036
C43_8 C 0.2463(12) 0.4046(9) 0.1274(9)
H26_8 H 0.2486 0.3851 0.1077
C44_8 C 0.3449(11) 0.2865(7) 0.1119(7)
C45_8 C 0.3141(7) 0.2791(8) 0.0838(9)
H27_8 H 0.2886 0.2932 0.0843
C46_8 C 0.3209(8) 0.2508(9) 0.0550(7)
H28_8 H 0.3002 0.2456 0.0359
C47_8 C 0.3585(11) 0.2299(6) 0.0543(7)
C48_8 C 0.3890(7) 0.2373(8) 0.0820(9)
H29_8 H 0.4145 0.2232 0.0814
C49_8 C 0.3824(9) 0.2657(9) 0.1111(7)
H30_8 H 0.4033 0.2706 0.1302
C50_8 C 0.3641(10) 0.1975(7) 0.0222(8)
C51_8 C 0.1798(8) 0.4926(7) 0.1448(9)
C52_8 C 0.8601(9) 0.3368(9) 0.0841(9)
C53_8 C 0.4132(8) 0.4098(9) 0.5440(9)
C54_8 C 0.3700(7) 0.4211(8) 0.5295(8)
In3_3 In 0.62340(9) 0.46138(7) 0.10536(8)
O7_5 O 0.5684(6) 0.5712(6) 0.0797(5)
O8_5 O 0.5359(6) 0.5401(6) 0.1473(6)
O9_9 O 0.6044(6) 0.5119(7) 0.0675(6)
O10_9 O 0.5750(7) 0.4866(7) 0.1426(5)
O21_9 O 0.5673(6) 0.3853(6) 0.0291(5)
O23_9 O 0.6524(6) 0.4481(5) 0.0433(5)
O24_9 O 0.5777(5) 0.4256(5) 0.0767(5)
C26_9 C 0.5811(8) 0.5317(8) 0.0869(7)
C27_9 C 0.5637(7) 0.5200(9) 0.1280(6)
C53_9 C 0.5868(8) 0.4098(9) 0.0440(9)
C54_9 C 0.6300(7) 0.4211(8) 0.0295(8)
In4_5 In 0.53367(8) 0.60396(7) 0.12278(7)
O27_5 O 0.6169(6) 0.4125(7) 0.1564(5)
O28_5 O 0.6639(6) 0.4069(6) 0.1116(6)
O29_5 O 0.5980(8) 0.3060(8) 0.0184(7)
O30_5 O 0.6692(7) 0.5003(7) 0.1098(7)
In1_5 In 0.46633(8) 0.39604(7) 0.87722(7)
In2_5 In 0.60258(8) 0.35720(8) 0.97708(7)
N1_9 N 0.2308(6) 0.2668(6) 0.8063(4)
H1_9 H 0.2407 0.2587 0.8289
N2_9 N 0.1843(4) 0.2609(5) 0.7567(6)
H2_9 H 0.1630 0.2489 0.7458
N3_9 N 0.2334(6) 0.3086(4) 0.7552(6)
H3_9 H 0.2450 0.3288 0.7434
N4_9 N 0.6666(7) 0.3752(5) 0.6909(6)
H4_9 H 0.6700 0.3945 0.7077
N5_9 N 0.6853(6) 0.3443(7) 0.6352(5)
H5_9 H 0.7012 0.3428 0.6143
N6_9 N 0.6329(5) 0.3204(6) 0.6724(7)
H6_9 H 0.6136 0.3026 0.6767
O1_9 O 0.4839(5) 0.3550(5) 0.9261(5)
O2_9 O 0.5249(5) 0.4230(6) 0.9039(5)
O3_9 O 0.5365(5) 0.3407(5) 0.9625(5)
O4_9 O 0.5760(5) 0.4028(5) 0.9399(5)
O5_9 O 0.4131(7) 0.3521(5) 0.8747(6)
O6_9 O 0.4126(7) 0.3976(6) 0.8315(5)
O11_5 O 0.1169(6) 0.0875(7) 0.8436(5)
O12_5 O 0.1639(6) 0.0931(6) 0.8884(6)
O13_9 O 0.5062(6) 0.3876(6) 0.8360(5)
O14_9 O 0.5098(9) 0.3226(10) 0.8371(9)
O15_9 O 0.6665(10) 0.1872(10) 0.5040(9)
O16_5 O 0.5980(8) 0.1940(8) 0.5184(7)
O17_5 O 0.8308(7) 0.4997(7) 0.6098(7)
O18_9 O 0.8309(8) 0.5073(8) 0.6787(8)
O19_5 O 0.1550(5) 0.3648(5) 0.5686(5)
O20_5 O 0.1102(7) 0.3182(5) 0.5742(7)
O22_9 O 0.6439(6) 0.4045(5) 0.9979(6)
C1_9 C 0.5203(8) 0.3610(7) 0.9365(7)
C2_9 C 0.5427(9) 0.3991(7) 0.9235(8)
C3_9 C 0.3968(8) 0.3677(10) 0.8453(10)
C4_9 C 0.3543(7) 0.3510(7) 0.8362(8)
C5_9 C 0.3376(7) 0.3187(7) 0.8543(6)
H7_9 H 0.3513 0.3074 0.8762
C6_9 C 0.3010(7) 0.3026(6) 0.8408(7)
H8_9 H 0.2883 0.2815 0.8545
C7_9 C 0.2830(6) 0.3170(7) 0.8077(8)
C8_9 C 0.3015(7) 0.3472(7) 0.7879(6)
H9_9 H 0.2904 0.3555 0.7635
C9_9 C 0.3359(8) 0.3654(6) 0.8031(7)
H10_9 H 0.3470 0.3879 0.7907
C10_9 C 0.2478(4) 0.2965(6) 0.7887(6)
C11_9 C 0.1987(6) 0.2487(5) 0.7903(6)
C12_9 C 0.1813(7) 0.2135(5) 0.8108(7)
C13_9 C 0.1982(5) 0.2004(7) 0.8461(7)
H11_9 H 0.2176 0.2162 0.8598
C14_9 C 0.1866(6) 0.1643(7) 0.8610(6)
H12_9 H 0.1981 0.1555 0.8850
C15_9 C 0.1583(7) 0.1409(6) 0.8411(7)
C16_9 C 0.1412(6) 0.1540(7) 0.8059(7)
H13_9 H 0.1216 0.1383 0.7922
C17_9 C 0.1530(6) 0.1902(7) 0.7909(6)
H14_9 H 0.1415 0.1990 0.7669
C18_9 C 0.2015(6) 0.2909(6) 0.7390(4)
C19_9 C 0.1863(8) 0.3045(8) 0.7001(6)
C20_9 C 0.1509(8) 0.2864(7) 0.6843(7)
H15_9 H 0.1357 0.2680 0.6995
C21_9 C 0.1379(7) 0.2954(7) 0.6459(7)
H16_9 H 0.1166 0.2804 0.6337
C22_9 C 0.1567(8) 0.3267(8) 0.6260(6)
C23_9 C 0.1921(8) 0.3451(7) 0.6419(7)
H17_9 H 0.2059 0.3651 0.6275
C24_9 C 0.2072(7) 0.3340(7) 0.6789(7)
H18_9 H 0.2312 0.3463 0.6896
C25_9 C 0.1440(10) 0.1067(9) 0.8603(10)
C28_9 C 0.5190(5) 0.3546(11) 0.8259(6)
C29_9 C 0.5521(6) 0.3490(9) 0.7942(6)
C30_9 C 0.5745(8) 0.3823(7) 0.7845(7)
H19_9 H 0.5715 0.4054 0.7997
C31_9 C 0.6010(7) 0.3818(7) 0.7530(8)
H20_9 H 0.6163 0.4047 0.7465
C32_9 C 0.6058(6) 0.3486(9) 0.7307(6)
C33_9 C 0.5835(8) 0.3154(7) 0.7403(7)
H21_9 H 0.5865 0.2923 0.7251
C34_9 C 0.5569(7) 0.3158(7) 0.7718(8)
H22_9 H 0.5416 0.2929 0.7783
C35_9 C 0.6378(6) 0.3486(7) 0.6969(5)
C36_9 C 0.6903(5) 0.3728(6) 0.6600(7)
C37_9 C 0.6565(7) 0.3178(5) 0.6413(6)
C38_9 C 0.7268(10) 0.4046(9) 0.6586(11)
C39_9 C 0.7292(10) 0.4338(11) 0.6856(9)
H23_9 H 0.7087 0.4357 0.7055
C40_9 C 0.7608(11) 0.4604(9) 0.6841(9)
H24_9 H 0.7648 0.4782 0.7051
C41_9 C 0.7867(10) 0.4613(9) 0.6524(12)
C42_9 C 0.7834(10) 0.4325(11) 0.6249(9)
H25_9 H 0.8025 0.4321 0.6036
C43_9 C 0.7537(12) 0.4046(9) 0.6274(9)
H26_9 H 0.7514 0.3851 0.6077
C44_9 C 0.6551(11) 0.2865(7) 0.6119(7)
C45_9 C 0.6859(7) 0.2791(8) 0.5838(9)
H27_9 H 0.7114 0.2932 0.5843
C46_9 C 0.6791(8) 0.2508(9) 0.5550(7)
H28_9 H 0.6998 0.2456 0.5359
C47_9 C 0.6415(11) 0.2299(6) 0.5543(7)
C48_9 C 0.6110(7) 0.2373(8) 0.5820(9)
H29_9 H 0.5855 0.2232 0.5814
C49_9 C 0.6176(9) 0.2657(9) 0.6111(7)
H30_9 H 0.5967 0.2706 0.6302
C50_9 C 0.6359(10) 0.1975(7) 0.5222(8)
C51_9 C 0.8202(8) 0.4926(7) 0.6448(9)
C52_9 C 0.1399(9) 0.3368(9) 0.5841(9)
In5_3 In 0.10258(8) 0.35720(8) 0.52292(7)
In6_3 In 0.60258(8) 0.14280(8) 0.47708(7)
In7_3 In 0.87660(9) 0.53862(7) 0.60536(8)
In8_5 In 0.12340(9) 0.03862(7) 0.89464(8)
O25_5 O 0.4316(6) 0.4288(6) 0.9203(5)
O26_5 O 0.4641(6) 0.4599(6) 0.8527(6)
O31_5 O 0.6550(5) 0.3648(5) 0.9314(5)
O32_5 O 0.6102(7) 0.3182(5) 0.9258(7)
In1_6 In 0.03367(8) 0.60396(7) 0.37722(7)
N1_10 N 0.2692(6) 0.7332(6) 0.3063(4)
H1_10 H 0.2593 0.7413 0.3289
N2_10 N 0.3157(4) 0.7391(5) 0.2567(6)
H2_10 H 0.3370 0.7511 0.2458
N3_10 N 0.2666(6) 0.6914(4) 0.2552(6)
H3_10 H 0.2550 0.6712 0.2434
O1_10 O 0.0161(5) 0.6450(5) 0.4261(5)
O5_10 O 0.0869(7) 0.6479(5) 0.3747(6)
O6_10 O 0.0874(7) 0.6024(6) 0.3315(5)
O11_6 O 0.3831(6) 0.9125(7) 0.3436(5)
O12_6 O 0.3361(6) 0.9069(6) 0.3884(6)
O19_6 O 0.3450(5) 0.6352(5) 0.0686(5)
O20_6 O 0.3898(7) 0.6818(5) 0.0742(7)
C3_10 C 0.1032(8) 0.6323(10) 0.3453(10)
C4_10 C 0.1457(7) 0.6490(7) 0.3362(8)
C5_10 C 0.1624(7) 0.6813(7) 0.3543(6)
H7_10 H 0.1487 0.6926 0.3762
C6_10 C 0.1990(7) 0.6974(6) 0.3408(7)
H8_10 H 0.2117 0.7185 0.3545
C7_10 C 0.2170(6) 0.6830(7) 0.3077(8)
C8_10 C 0.1985(7) 0.6528(7) 0.2879(6)
H9_10 H 0.2096 0.6445 0.2635
C9_10 C 0.1641(8) 0.6346(6) 0.3031(7)
H10_10 H 0.1530 0.6121 0.2907
C10_10 C 0.2522(4) 0.7035(6) 0.2887(6)
C11_10 C 0.3013(6) 0.7513(5) 0.2903(6)
C12_10 C 0.3187(7) 0.7865(5) 0.3108(7)
C13_10 C 0.3018(5) 0.7996(7) 0.3461(7)
H11_10 H 0.2824 0.7838 0.3598
C14_10 C 0.3134(6) 0.8357(7) 0.3610(6)
H12_10 H 0.3019 0.8445 0.3850
C15_10 C 0.3417(7) 0.8591(6) 0.3411(7)
C16_10 C 0.3588(6) 0.8460(7) 0.3059(7)
H13_10 H 0.3784 0.8617 0.2922
C17_10 C 0.3470(6) 0.8098(7) 0.2909(6)
H14_10 H 0.3585 0.8010 0.2669
C18_10 C 0.2985(6) 0.7091(6) 0.2390(4)
C19_10 C 0.3137(8) 0.6955(8) 0.2001(6)
C20_10 C 0.3491(8) 0.7136(7) 0.1843(7)
H15_10 H 0.3643 0.7320 0.1995
C21_10 C 0.3621(7) 0.7046(7) 0.1459(7)
H16_10 H 0.3834 0.7196 0.1337
C22_10 C 0.3433(8) 0.6733(8) 0.1260(6)
C23_10 C 0.3079(8) 0.6549(7) 0.1419(7)
H17_10 H 0.2941 0.6349 0.1275
C24_10 C 0.2928(7) 0.6660(7) 0.1789(7)
H18_10 H 0.2688 0.6537 0.1896
C25_10 C 0.3560(10) 0.8933(9) 0.3603(10)
C52_10 C 0.3601(9) 0.6632(9) 0.0841(9)
In5_4 In 0.39742(8) 0.64280(8) 0.02292(7)
In8_6 In 0.37660(9) 0.96138(7) 0.39464(8)
O25_6 O 0.0684(6) 0.5712(6) 0.4203(5)
O26_6 O 0.0359(6) 0.5401(6) 0.3527(6)
In2_6 In 0.89742(8) 0.64280(8) 0.47708(7)
N4_10 N 0.8334(7) 0.6248(5) 0.1909(6)
H4_10 H 0.8300 0.6055 0.2077
N5_10 N 0.8147(6) 0.6557(7) 0.1352(5)
H5_10 H 0.7988 0.6572 0.1143
N6_10 N 0.8671(5) 0.6796(6) 0.1724(7)
H6_10 H 0.8864 0.6974 0.1767
O2_10 O 0.9751(5) 0.5770(6) 0.4039(5)
O3_10 O 0.9635(5) 0.6593(5) 0.4625(5)
O4_10 O 0.9240(5) 0.5972(5) 0.4399(5)
O7_6 O 0.9316(6) 0.4288(6) 0.5797(5)
O8_6 O 0.9641(6) 0.4599(6) 0.6473(6)
O9_10 O 0.8956(6) 0.4881(7) 0.5675(6)
O10_10 O 0.9250(7) 0.5134(7) 0.6426(5)
O13_10 O 0.9938(6) 0.6124(6) 0.3360(5)
O14_10 O 0.9902(9) 0.6774(10) 0.3371(9)
O15_10 O 0.8335(10) 0.8128(10) 0.0040(9)
O16_6 O 0.9020(8) 0.8060(8) 0.0184(7)
O18_10 O 0.6691(8) 0.4927(8) 0.1787(8)
O21_10 O 0.9327(6) 0.6147(6) 0.5291(5)
O22_10 O 0.8561(6) 0.5955(5) 0.4979(6)
O23_10 O 0.8476(6) 0.5519(5) 0.5433(5)
O24_10 O 0.9223(5) 0.5744(5) 0.5767(5)
C1_10 C 0.9797(8) 0.6390(7) 0.4365(7)
C2_10 C 0.9573(9) 0.6009(7) 0.4235(8)
C26_10 C 0.9189(8) 0.4683(8) 0.5869(7)
C27_10 C 0.9363(7) 0.4800(9) 0.6280(6)
C28_10 C 0.9810(5) 0.6454(11) 0.3259(6)
C29_10 C 0.9479(6) 0.6510(9) 0.2942(6)
C30_10 C 0.9255(8) 0.6177(7) 0.2845(7)
H19_10 H 0.9285 0.5946 0.2997
C31_10 C 0.8990(7) 0.6182(7) 0.2530(8)
H20_10 H 0.8837 0.5953 0.2465
C32_10 C 0.8942(6) 0.6514(9) 0.2307(6)
C33_10 C 0.9165(8) 0.6846(7) 0.2403(7)
H21_10 H 0.9135 0.7077 0.2251
C34_10 C 0.9431(7) 0.6842(7) 0.2718(8)
H22_10 H 0.9584 0.7071 0.2783
C35_10 C 0.8622(6) 0.6514(7) 0.1969(5)
C36_10 C 0.8097(5) 0.6272(6) 0.1600(7)
C37_10 C 0.8435(7) 0.6822(5) 0.1413(6)
C38_10 C 0.7732(10) 0.5954(9) 0.1586(11)
C39_10 C 0.7708(10) 0.5662(11) 0.1856(9)
H23_10 H 0.7913 0.5643 0.2055
C40_10 C 0.7392(11) 0.5396(9) 0.1841(9)
H24_10 H 0.7352 0.5218 0.2051
C41_10 C 0.7133(10) 0.5387(9) 0.1524(12)
C42_10 C 0.7166(10) 0.5675(11) 0.1249(9)
H25_10 H 0.6975 0.5679 0.1036
C43_10 C 0.7463(12) 0.5954(9) 0.1274(9)
H26_10 H 0.7486 0.6149 0.1077
C44_10 C 0.8449(11) 0.7135(7) 0.1119(7)
C45_10 C 0.8141(7) 0.7209(8) 0.0838(9)
H27_10 H 0.7886 0.7068 0.0843
C46_10 C 0.8209(8) 0.7492(9) 0.0550(7)
H28_10 H 0.8002 0.7544 0.0359
C47_10 C 0.8585(11) 0.7701(6) 0.0543(7)
C48_10 C 0.8890(7) 0.7627(8) 0.0820(9)
H29_10 H 0.9145 0.7768 0.0814
C49_10 C 0.8824(9) 0.7343(9) 0.1111(7)
H30_10 H 0.9033 0.7294 0.1302
C50_10 C 0.8641(10) 0.8025(7) 0.0222(8)
C51_10 C 0.6798(8) 0.5074(7) 0.1448(9)
C53_10 C 0.9132(8) 0.5902(9) 0.5440(9)
C54_10 C 0.8700(7) 0.5789(8) 0.5295(8)
In4_6 In 0.96633(8) 0.39604(7) 0.62278(7)
O27_6 O 0.8831(6) 0.5875(7) 0.6564(5)
O28_6 O 0.8361(6) 0.5931(6) 0.6116(6)
O29_6 O 0.9020(8) 0.6940(8) 0.5184(7)
O31_6 O 0.8450(5) 0.6352(5) 0.4314(5)
O32_6 O 0.8898(7) 0.6818(5) 0.4258(7)
In6_4 In 0.89742(8) 0.85720(8) 0.97708(7)
O7_7 O 0.4316(6) 0.0712(6) 0.4203(5)
O8_7 O 0.4641(6) 0.0401(6) 0.3527(6)
O9_11 O 0.3956(6) 0.0119(7) 0.4325(6)
O18_11 O 0.1691(8) 0.0073(8) 0.8213(8)
C26_11 C 0.4189(8) 0.0317(8) 0.4131(7)
C27_11 C 0.4363(7) 0.0200(9) 0.3720(6)
In4_7 In 0.46633(8) 0.10396(7) 0.37722(7)
O30_6 O 0.3308(7) 0.0003(7) 0.3902(7)
In1_7 In 0.53367(8) 0.89604(7) 0.62278(7)
In2_7 In 0.39742(8) 0.85720(8) 0.52292(7)
N1_11 N 0.7692(6) 0.7668(6) 0.6937(4)
H1_11 H 0.7593 0.7587 0.6711
N2_11 N 0.8157(4) 0.7609(5) 0.7433(6)
H2_11 H 0.8370 0.7489 0.7542
N3_11 N 0.7666(6) 0.8086(4) 0.7448(6)
H3_11 H 0.7550 0.8288 0.7566
N4_11 N 0.3334(7) 0.8752(5) 0.8091(6)
H4_11 H 0.3300 0.8945 0.7923
N5_11 N 0.3147(6) 0.8443(7) 0.8648(5)
H5_11 H 0.2988 0.8428 0.8857
N6_11 N 0.3671(5) 0.8204(6) 0.8276(7)
H6_11 H 0.3864 0.8026 0.8233
O1_11 O 0.5161(5) 0.8550(5) 0.5739(5)
O2_11 O 0.4751(5) 0.9230(6) 0.5961(5)
O3_11 O 0.4635(5) 0.8407(5) 0.5375(5)
O4_11 O 0.4240(5) 0.9028(5) 0.5601(5)
O5_11 O 0.5869(7) 0.8521(5) 0.6253(6)
O6_11 O 0.5874(7) 0.8976(6) 0.6685(5)
O10_11 O 0.4250(7) 0.9866(7) 0.3574(5)
O13_11 O 0.4938(6) 0.8876(6) 0.6640(5)
O14_11 O 0.4902(9) 0.8226(10) 0.6629(9)
O15_11 O 0.3335(10) 0.6872(10) 0.9960(9)
O16_7 O 0.4020(8) 0.6940(8) 0.9816(7)
O17_6 O 0.1692(7) 0.9997(7) 0.8902(7)
O19_7 O 0.8450(5) 0.8648(5) 0.9314(5)
O20_7 O 0.8898(7) 0.8182(5) 0.9258(7)
O21_11 O 0.4327(6) 0.8853(6) 0.4709(5)
O22_11 O 0.3561(6) 0.9045(5) 0.5021(6)
O23_11 O 0.3476(6) 0.9481(5) 0.4567(5)
O24_11 O 0.4223(5) 0.9256(5) 0.4233(5)
C1_11 C 0.4797(8) 0.8610(7) 0.5635(7)
C2_11 C 0.4573(9) 0.8991(7) 0.5765(8)
C3_11 C 0.6032(8) 0.8677(10) 0.6547(10)
C4_11 C 0.6457(7) 0.8510(7) 0.6638(8)
C5_11 C 0.6624(7) 0.8187(7) 0.6457(6)
H7_11 H 0.6487 0.8074 0.6238
C6_11 C 0.6990(7) 0.8026(6) 0.6592(7)
H8_11 H 0.7117 0.7815 0.6455
C7_11 C 0.7170(6) 0.8170(7) 0.6923(8)
C8_11 C 0.6985(7) 0.8472(7) 0.7121(6)
H9_11 H 0.7096 0.8555 0.7365
C9_11 C 0.6641(8) 0.8654(6) 0.6969(7)
H10_11 H 0.6530 0.8879 0.7093
C10_11 C 0.7522(4) 0.7965(6) 0.7113(6)
C11_11 C 0.8013(6) 0.7487(5) 0.7097(6)
C12_11 C 0.8187(7) 0.7135(5) 0.6892(7)
C13_11 C 0.8018(5) 0.7004(7) 0.6539(7)
H11_11 H 0.7824 0.7162 0.6402
C14_11 C 0.8134(6) 0.6643(7) 0.6390(6)
H12_11 H 0.8019 0.6555 0.6150
C15_11 C 0.8417(7) 0.6409(6) 0.6589(7)
C16_11 C 0.8588(6) 0.6540(7) 0.6941(7)
H13_11 H 0.8784 0.6383 0.7078
C17_11 C 0.8470(6) 0.6902(7) 0.7091(6)
H14_11 H 0.8585 0.6990 0.7331
C18_11 C 0.7985(6) 0.7909(6) 0.7610(4)
C19_11 C 0.8137(8) 0.8045(8) 0.7999(6)
C20_11 C 0.8491(8) 0.7864(7) 0.8157(7)
H15_11 H 0.8643 0.7680 0.8005
C21_11 C 0.8621(7) 0.7954(7) 0.8541(7)
H16_11 H 0.8834 0.7804 0.8663
C22_11 C 0.8433(8) 0.8267(8) 0.8740(6)
C23_11 C 0.8079(8) 0.8451(7) 0.8581(7)
H17_11 H 0.7941 0.8651 0.8725
C24_11 C 0.7928(7) 0.8340(7) 0.8211(7)
H18_11 H 0.7688 0.8463 0.8104
C25_11 C 0.8560(10) 0.6067(9) 0.6397(10)
C28_11 C 0.4810(5) 0.8546(11) 0.6741(6)
C29_11 C 0.4479(6) 0.8490(9) 0.7058(6)
C30_11 C 0.4255(8) 0.8823(7) 0.7155(7)
H19_11 H 0.4285 0.9054 0.7003
C31_11 C 0.3990(7) 0.8818(7) 0.7470(8)
H20_11 H 0.3837 0.9047 0.7535
C32_11 C 0.3942(6) 0.8486(9) 0.7693(6)
C33_11 C 0.4165(8) 0.8154(7) 0.7597(7)
H21_11 H 0.4135 0.7923 0.7749
C34_11 C 0.4431(7) 0.8158(7) 0.7282(8)
H22_11 H 0.4584 0.7929 0.7217
C35_11 C 0.3622(6) 0.8486(7) 0.8031(5)
C36_11 C 0.3097(5) 0.8728(6) 0.8400(7)
C37_11 C 0.3435(7) 0.8178(5) 0.8587(6)
C38_11 C 0.2732(10) 0.9046(9) 0.8414(11)
C39_11 C 0.2708(10) 0.9338(11) 0.8144(9)
H23_11 H 0.2913 0.9357 0.7945
C40_11 C 0.2392(11) 0.9604(9) 0.8159(9)
H24_11 H 0.2352 0.9782 0.7949
C41_11 C 0.2133(10) 0.9613(9) 0.8476(12)
C42_11 C 0.2166(10) 0.9325(11) 0.8751(9)
H25_11 H 0.1975 0.9321 0.8964
C43_11 C 0.2463(12) 0.9046(9) 0.8726(9)
H26_11 H 0.2486 0.8851 0.8923
C44_11 C 0.3449(11) 0.7865(7) 0.8881(7)
C45_11 C 0.3141(7) 0.7791(8) 0.9162(9)
H27_11 H 0.2886 0.7932 0.9157
C46_11 C 0.3209(8) 0.7508(9) 0.9450(7)
H28_11 H 0.3002 0.7456 0.9641
C47_11 C 0.3585(11) 0.7299(6) 0.9457(7)
C48_11 C 0.3890(7) 0.7373(8) 0.9180(9)
H29_11 H 0.4145 0.7232 0.9186
C49_11 C 0.3824(9) 0.7657(9) 0.8889(7)
H30_11 H 0.4033 0.7706 0.8698
C50_11 C 0.3641(10) 0.6975(7) 0.9778(8)
C51_11 C 0.1798(8) 0.9926(7) 0.8552(9)
C52_11 C 0.8601(9) 0.8368(9) 0.9159(9)
C53_11 C 0.4132(8) 0.9098(9) 0.4560(9)
C54_11 C 0.3700(7) 0.9211(8) 0.4705(8)
O25_7 O 0.5684(6) 0.9288(6) 0.5797(5)
O26_7 O 0.5359(6) 0.9599(6) 0.6473(6)
O29_7 O 0.4020(8) 0.8060(8) 0.4816(7)
O31_7 O 0.3450(5) 0.8648(5) 0.5686(5)
O32_7 O 0.3898(7) 0.8182(5) 0.5742(7)
In2_8 In 0.10258(8) 0.14280(8) 0.02292(7)
N4_12 N 0.1666(7) 0.1248(5) 0.3091(6)
H4_12 H 0.1700 0.1055 0.2923
N5_12 N 0.1853(6) 0.1557(7) 0.3648(5)
H5_12 H 0.2012 0.1572 0.3857
N6_12 N 0.1329(5) 0.1796(6) 0.3276(7)
H6_12 H 0.1136 0.1974 0.3233
O2_12 O 0.0249(5) 0.0770(6) 0.0961(5)
O3_12 O 0.0365(5) 0.1593(5) 0.0375(5)
O4_12 O 0.0760(5) 0.0972(5) 0.0601(5)
O13_12 O 0.0062(6) 0.1124(6) 0.1640(5)
O14_12 O 0.0098(9) 0.1774(10) 0.1629(9)
O15_12 O 0.1665(10) 0.3128(10) 0.4960(9)
O16_8 O 0.0980(8) 0.3060(8) 0.4816(7)
O22_12 O 0.1439(6) 0.0955(5) 0.0021(6)
C1_12 C 0.0203(8) 0.1390(7) 0.0635(7)
C2_12 C 0.0427(9) 0.1009(7) 0.0765(8)
C28_12 C 0.0190(5) 0.1454(11) 0.1741(6)
C29_12 C 0.0521(6) 0.1510(9) 0.2058(6)
C30_12 C 0.0745(8) 0.1177(7) 0.2155(7)
H19_12 H 0.0715 0.0946 0.2003
C31_12 C 0.1010(7) 0.1182(7) 0.2470(8)
H20_12 H 0.1163 0.0953 0.2535
C32_12 C 0.1058(6) 0.1514(9) 0.2693(6)
C33_12 C 0.0835(8) 0.1846(7) 0.2597(7)
H21_12 H 0.0865 0.2077 0.2749
C34_12 C 0.0569(7) 0.1842(7) 0.2282(8)
H22_12 H 0.0416 0.2071 0.2217
C35_12 C 0.1378(6) 0.1514(7) 0.3031(5)
C36_12 C 0.1903(5) 0.1272(6) 0.3400(7)
C37_12 C 0.1565(7) 0.1822(5) 0.3587(6)
C38_12 C 0.2268(10) 0.0954(9) 0.3414(11)
C39_12 C 0.2292(10) 0.0662(11) 0.3144(9)
H23_12 H 0.2087 0.0643 0.2945
C40_12 C 0.2608(11) 0.0396(9) 0.3159(9)
H24_12 H 0.2648 0.0218 0.2949
C41_12 C 0.2867(10) 0.0387(9) 0.3476(12)
C42_12 C 0.2834(10) 0.0675(11) 0.3751(9)
H25_12 H 0.3025 0.0679 0.3964
C43_12 C 0.2537(12) 0.0954(9) 0.3726(9)
H26_12 H 0.2514 0.1149 0.3923
C44_12 C 0.1551(11) 0.2135(7) 0.3881(7)
C45_12 C 0.1859(7) 0.2209(8) 0.4162(9)
H27_12 H 0.2114 0.2068 0.4157
C46_12 C 0.1791(8) 0.2492(9) 0.4450(7)
H28_12 H 0.1998 0.2544 0.4641
C47_12 C 0.1415(11) 0.2701(6) 0.4457(7)
C48_12 C 0.1110(7) 0.2627(8) 0.4180(9)
H29_12 H 0.0855 0.2768 0.4186
C49_12 C 0.1176(9) 0.2343(9) 0.3889(7)
H30_12 H 0.0967 0.2294 0.3698
C50_12 C 0.1359(10) 0.3025(7) 0.4778(8)
C51_12 C 0.3202(8) 0.0074(7) 0.3552(9)
O31_8 O 0.1550(5) 0.1352(5) 0.0686(5)
O32_8 O 0.1102(7) 0.1818(5) 0.0742(7)
O10_12 O 0.0750(7) 0.0134(7) 0.8574(5)
O21_12 O 0.0673(6) 0.1147(6) 0.9709(5)
O23_12 O 0.1524(6) 0.0519(5) 0.9567(5)
O24_12 O 0.0777(5) 0.0744(5) 0.9233(5)
C53_12 C 0.0868(8) 0.0902(9) 0.9560(9)
C54_12 C 0.1300(7) 0.0789(8) 0.9705(8)
O29_8 O 0.0980(8) 0.1940(8) 0.9816(7)
O18_12 O 0.3309(8) 0.9927(8) 0.3213(8)
O7_8 O 0.0684(6) 0.9288(6) 0.9203(5)
O8_8 O 0.0359(6) 0.9599(6) 0.8527(6)
O9_12 O 0.1044(6) 0.9881(7) 0.9325(6)
C26_12 C 0.0811(8) 0.9683(8) 0.9131(7)
C27_12 C 0.0637(7) 0.9800(9) 0.8720(6)
In4_8 In 0.03367(8) 0.89604(7) 0.87722(7)
In1_8 In 0.96633(8) 0.10396(7) 0.12278(7)
N1_12 N 0.7308(6) 0.2332(6) 0.1937(4)
H1_12 H 0.7407 0.2413 0.1711
N2_12 N 0.6843(4) 0.2391(5) 0.2433(6)
H2_12 H 0.6630 0.2511 0.2542
N3_12 N 0.7334(6) 0.1914(4) 0.2448(6)
H3_12 H 0.7450 0.1712 0.2566
O1_12 O 0.9839(5) 0.1450(5) 0.0739(5)
O5_12 O 0.9131(7) 0.1479(5) 0.1253(6)
O6_12 O 0.9126(7) 0.1024(6) 0.1685(5)
O19_8 O 0.6550(5) 0.1352(5) 0.4314(5)
O20_8 O 0.6102(7) 0.1818(5) 0.4258(7)
C3_12 C 0.8968(8) 0.1323(10) 0.1547(10)
C4_12 C 0.8543(7) 0.1490(7) 0.1638(8)
C5_12 C 0.8376(7) 0.1813(7) 0.1457(6)
H7_12 H 0.8513 0.1926 0.1238
C6_12 C 0.8010(7) 0.1974(6) 0.1592(7)
H8_12 H 0.7883 0.2185 0.1455
C7_12 C 0.7830(6) 0.1830(7) 0.1923(8)
C8_12 C 0.8015(7) 0.1528(7) 0.2121(6)
H9_12 H 0.7904 0.1445 0.2365
C9_12 C 0.8359(8) 0.1346(6) 0.1969(7)
H10_12 H 0.8470 0.1121 0.2093
C10_12 C 0.7478(4) 0.2035(6) 0.2113(6)
C11_12 C 0.6987(6) 0.2513(5) 0.2097(6)
C12_12 C 0.6813(7) 0.2865(5) 0.1892(7)
C13_12 C 0.6982(5) 0.2996(7) 0.1539(7)
H11_12 H 0.7176 0.2838 0.1402
C14_12 C 0.6866(6) 0.3357(7) 0.1390(6)
H12_12 H 0.6981 0.3445 0.1150
C15_12 C 0.6583(7) 0.3591(6) 0.1589(7)
C16_12 C 0.6412(6) 0.3460(7) 0.1941(7)
H13_12 H 0.6216 0.3617 0.2078
C17_12 C 0.6530(6) 0.3098(7) 0.2091(6)
H14_12 H 0.6415 0.3010 0.2331
C18_12 C 0.7015(6) 0.2091(6) 0.2610(4)
C19_12 C 0.6863(8) 0.1955(8) 0.2999(6)
C20_12 C 0.6509(8) 0.2136(7) 0.3157(7)
H15_12 H 0.6357 0.2320 0.3005
C21_12 C 0.6379(7) 0.2046(7) 0.3541(7)
H16_12 H 0.6166 0.2196 0.3663
C22_12 C 0.6567(8) 0.1733(8) 0.3740(6)
C23_12 C 0.6921(8) 0.1549(7) 0.3581(7)
H17_12 H 0.7059 0.1349 0.3725
C24_12 C 0.7072(7) 0.1660(7) 0.3211(7)
H18_12 H 0.7312 0.1537 0.3104
C25_12 C 0.6440(10) 0.3933(9) 0.1397(10)
C52_12 C 0.6399(9) 0.1632(9) 0.4159(9)
O25_8 O 0.9316(6) 0.0712(6) 0.0797(5)
O26_8 O 0.9641(6) 0.0401(6) 0.1473(6)
N1_13 N 0.7692(6) 0.7332(6) 0.1937(4)
H1_13 H 0.7593 0.7413 0.1711
N2_13 N 0.8157(4) 0.7391(5) 0.2433(6)
H2_13 H 0.8370 0.7511 0.2542
N3_13 N 0.7666(6) 0.6914(4) 0.2448(6)
H3_13 H 0.7550 0.6712 0.2566
N4_13 N 0.3334(7) 0.6248(5) 0.3091(6)
H4_13 H 0.3300 0.6055 0.2923
N5_13 N 0.3147(6) 0.6557(7) 0.3648(5)
H5_13 H 0.2988 0.6572 0.3857
N6_13 N 0.3671(5) 0.6796(6) 0.3276(7)
H6_13 H 0.3864 0.6974 0.3233
O1_13 O 0.5161(5) 0.6450(5) 0.0739(5)
O2_13 O 0.4751(5) 0.5770(6) 0.0961(5)
O3_13 O 0.4635(5) 0.6593(5) 0.0375(5)
O4_13 O 0.4240(5) 0.5972(5) 0.0601(5)
O5_13 O 0.5869(7) 0.6479(5) 0.1253(6)
O6_13 O 0.5874(7) 0.6024(6) 0.1685(5)
O11_7 O 0.8831(6) 0.9125(7) 0.1564(5)
O12_7 O 0.8361(6) 0.9069(6) 0.1116(6)
O13_13 O 0.4938(6) 0.6124(6) 0.1640(5)
O14_13 O 0.4902(9) 0.6774(10) 0.1629(9)
O15_13 O 0.3335(10) 0.8128(10) 0.4960(9)
O17_7 O 0.1692(7) 0.5003(7) 0.3902(7)
O18_13 O 0.1691(8) 0.4927(8) 0.3213(8)
O22_13 O 0.3561(6) 0.5955(5) 0.0021(6)
C1_13 C 0.4797(8) 0.6390(7) 0.0635(7)
C2_13 C 0.4573(9) 0.6009(7) 0.0765(8)
C3_13 C 0.6032(8) 0.6323(10) 0.1547(10)
C4_13 C 0.6457(7) 0.6490(7) 0.1638(8)
C5_13 C 0.6624(7) 0.6813(7) 0.1457(6)
H7_13 H 0.6487 0.6926 0.1238
C6_13 C 0.6990(7) 0.6974(6) 0.1592(7)
H8_13 H 0.7117 0.7185 0.1455
C7_13 C 0.7170(6) 0.6830(7) 0.1923(8)
C8_13 C 0.6985(7) 0.6528(7) 0.2121(6)
H9_13 H 0.7096 0.6445 0.2365
C9_13 C 0.6641(8) 0.6346(6) 0.1969(7)
H10_13 H 0.6530 0.6121 0.2093
C10_13 C 0.7522(4) 0.7035(6) 0.2113(6)
C11_13 C 0.8013(6) 0.7513(5) 0.2097(6)
C12_13 C 0.8187(7) 0.7865(5) 0.1892(7)
C13_13 C 0.8018(5) 0.7996(7) 0.1539(7)
H11_13 H 0.7824 0.7838 0.1402
C14_13 C 0.8134(6) 0.8357(7) 0.1390(6)
H12_13 H 0.8019 0.8445 0.1150
C15_13 C 0.8417(7) 0.8591(6) 0.1589(7)
C16_13 C 0.8588(6) 0.8460(7) 0.1941(7)
H13_13 H 0.8784 0.8617 0.2078
C17_13 C 0.8470(6) 0.8098(7) 0.2091(6)
H14_13 H 0.8585 0.8010 0.2331
C18_13 C 0.7985(6) 0.7091(6) 0.2610(4)
C19_13 C 0.8137(8) 0.6955(8) 0.2999(6)
C20_13 C 0.8491(8) 0.7136(7) 0.3157(7)
H15_13 H 0.8643 0.7320 0.3005
C21_13 C 0.8621(7) 0.7046(7) 0.3541(7)
H16_13 H 0.8834 0.7196 0.3663
C22_13 C 0.8433(8) 0.6733(8) 0.3740(6)
C23_13 C 0.8079(8) 0.6549(7) 0.3581(7)
H17_13 H 0.7941 0.6349 0.3725
C24_13 C 0.7928(7) 0.6660(7) 0.3211(7)
H18_13 H 0.7688 0.6537 0.3104
C25_13 C 0.8560(10) 0.8933(9) 0.1397(10)
C28_13 C 0.4810(5) 0.6454(11) 0.1741(6)
C29_13 C 0.4479(6) 0.6510(9) 0.2058(6)
C30_13 C 0.4255(8) 0.6177(7) 0.2155(7)
H19_13 H 0.4285 0.5946 0.2003
C31_13 C 0.3990(7) 0.6182(7) 0.2470(8)
H20_13 H 0.3837 0.5953 0.2535
C32_13 C 0.3942(6) 0.6514(9) 0.2693(6)
C33_13 C 0.4165(8) 0.6846(7) 0.2597(7)
H21_13 H 0.4135 0.7077 0.2749
C34_13 C 0.4431(7) 0.6842(7) 0.2282(8)
H22_13 H 0.4584 0.7071 0.2217
C35_13 C 0.3622(6) 0.6514(7) 0.3031(5)
C36_13 C 0.3097(5) 0.6272(6) 0.3400(7)
C37_13 C 0.3435(7) 0.6822(5) 0.3587(6)
C38_13 C 0.2732(10) 0.5954(9) 0.3414(11)
C39_13 C 0.2708(10) 0.5662(11) 0.3144(9)
H23_13 H 0.2913 0.5643 0.2945
C40_13 C 0.2392(11) 0.5396(9) 0.3159(9)
H24_13 H 0.2352 0.5218 0.2949
C41_13 C 0.2133(10) 0.5387(9) 0.3476(12)
C42_13 C 0.2166(10) 0.5675(11) 0.3751(9)
H25_13 H 0.1975 0.5679 0.3964
C43_13 C 0.2463(12) 0.5954(9) 0.3726(9)
H26_13 H 0.2486 0.6149 0.3923
C44_13 C 0.3449(11) 0.7135(7) 0.3881(7)
C45_13 C 0.3141(7) 0.7209(8) 0.4162(9)
H27_13 H 0.2886 0.7068 0.4157
C46_13 C 0.3209(8) 0.7492(9) 0.4450(7)
H28_13 H 0.3002 0.7544 0.4641
C47_13 C 0.3585(11) 0.7701(6) 0.4457(7)
C48_13 C 0.3890(7) 0.7627(8) 0.4180(9)
H29_13 H 0.4145 0.7768 0.4186
C49_13 C 0.3824(9) 0.7343(9) 0.3889(7)
H30_13 H 0.4033 0.7294 0.3698
C50_13 C 0.3641(10) 0.8025(7) 0.4778(8)
C51_13 C 0.1798(8) 0.5074(7) 0.3552(9)
C52_13 C 0.8601(9) 0.6632(9) 0.4159(9)
In7_4 In 0.12340(9) 0.46138(7) 0.39464(8)
In8_7 In 0.87660(9) 0.96138(7) 0.10536(8)
In3_4 In 0.37660(9) 0.53862(7) 0.89464(8)
O9_13 O 0.3956(6) 0.4881(7) 0.9325(6)
O10_13 O 0.4250(7) 0.5134(7) 0.8574(5)
O21_13 O 0.4327(6) 0.6147(6) 0.9709(5)
O23_13 O 0.3476(6) 0.5519(5) 0.9567(5)
O24_13 O 0.4223(5) 0.5744(5) 0.9233(5)
C26_13 C 0.4189(8) 0.4683(8) 0.9131(7)
C27_13 C 0.4363(7) 0.4800(9) 0.8720(6)
C53_13 C 0.4132(8) 0.5902(9) 0.9560(9)
C54_13 C 0.3700(7) 0.5789(8) 0.9705(8)
O27_7 O 0.3831(6) 0.5875(7) 0.8436(5)
O28_7 O 0.3361(6) 0.5931(6) 0.8884(6)
O30_7 O 0.3308(7) 0.4997(7) 0.8902(7)
N4_14 N 0.1666(7) 0.3752(5) 0.8091(6)
H4_14 H 0.1700 0.3945 0.7923
N5_14 N 0.1853(6) 0.3443(7) 0.8648(5)
H5_14 H 0.2012 0.3428 0.8857
N6_14 N 0.1329(5) 0.3204(6) 0.8276(7)
H6_14 H 0.1136 0.3026 0.8233
O2_14 O 0.0249(5) 0.4230(6) 0.5961(5)
O3_14 O 0.0365(5) 0.3407(5) 0.5375(5)
O4_14 O 0.0760(5) 0.4028(5) 0.5601(5)
O9_14 O 0.1044(6) 0.5119(7) 0.4325(6)
O10_14 O 0.0750(7) 0.4866(7) 0.3574(5)
O13_14 O 0.0062(6) 0.3876(6) 0.6640(5)
O14_14 O 0.0098(9) 0.3226(10) 0.6629(9)
O15_14 O 0.1665(10) 0.1872(10) 0.9960(9)
O18_14 O 0.3309(8) 0.5073(8) 0.8213(8)
O21_14 O 0.0673(6) 0.3853(6) 0.4709(5)
O22_14 O 0.1439(6) 0.4045(5) 0.5021(6)
O23_14 O 0.1524(6) 0.4481(5) 0.4567(5)
O24_14 O 0.0777(5) 0.4256(5) 0.4233(5)
C1_14 C 0.0203(8) 0.3610(7) 0.5635(7)
C2_14 C 0.0427(9) 0.3991(7) 0.5765(8)
C26_14 C 0.0811(8) 0.5317(8) 0.4131(7)
C27_14 C 0.0637(7) 0.5200(9) 0.3720(6)
C28_14 C 0.0190(5) 0.3546(11) 0.6741(6)
C29_14 C 0.0521(6) 0.3490(9) 0.7058(6)
C30_14 C 0.0745(8) 0.3823(7) 0.7155(7)
H19_14 H 0.0715 0.4054 0.7003
C31_14 C 0.1010(7) 0.3818(7) 0.7470(8)
H20_14 H 0.1163 0.4047 0.7535
C32_14 C 0.1058(6) 0.3486(9) 0.7693(6)
C33_14 C 0.0835(8) 0.3154(7) 0.7597(7)
H21_14 H 0.0865 0.2923 0.7749
C34_14 C 0.0569(7) 0.3158(7) 0.7282(8)
H22_14 H 0.0416 0.2929 0.7217
C35_14 C 0.1378(6) 0.3486(7) 0.8031(5)
C36_14 C 0.1903(5) 0.3728(6) 0.8400(7)
C37_14 C 0.1565(7) 0.3178(5) 0.8587(6)
C38_14 C 0.2268(10) 0.4046(9) 0.8414(11)
C39_14 C 0.2292(10) 0.4338(11) 0.8144(9)
H23_14 H 0.2087 0.4357 0.7945
C40_14 C 0.2608(11) 0.4604(9) 0.8159(9)
H24_14 H 0.2648 0.4782 0.7949
C41_14 C 0.2867(10) 0.4613(9) 0.8476(12)
C42_14 C 0.2834(10) 0.4325(11) 0.8751(9)
H25_14 H 0.3025 0.4321 0.8964
C43_14 C 0.2537(12) 0.4046(9) 0.8726(9)
H26_14 H 0.2514 0.3851 0.8923
C44_14 C 0.1551(11) 0.2865(7) 0.8881(7)
C45_14 C 0.1859(7) 0.2791(8) 0.9162(9)
H27_14 H 0.2114 0.2932 0.9157
C46_14 C 0.1791(8) 0.2508(9) 0.9450(7)
H28_14 H 0.1998 0.2456 0.9641
C47_14 C 0.1415(11) 0.2299(6) 0.9457(7)
C48_14 C 0.1110(7) 0.2373(8) 0.9180(9)
H29_14 H 0.0855 0.2232 0.9186
C49_14 C 0.1176(9) 0.2657(9) 0.8889(7)
H30_14 H 0.0967 0.2706 0.8698
C50_14 C 0.1359(10) 0.1975(7) 0.9778(8)
C51_14 C 0.3202(8) 0.4926(7) 0.8552(9)
C53_14 C 0.0868(8) 0.4098(9) 0.4560(9)
C54_14 C 0.1300(7) 0.4211(8) 0.4705(8)
O27_8 O 0.1169(6) 0.4125(7) 0.3436(5)
O28_8 O 0.1639(6) 0.4069(6) 0.3884(6)
N1_14 N 0.7308(6) 0.2668(6) 0.6937(4)
H1_14 H 0.7407 0.2587 0.6711
N2_14 N 0.6843(4) 0.2609(5) 0.7433(6)
H2_14 H 0.6630 0.2489 0.7542
N3_14 N 0.7334(6) 0.3086(4) 0.7448(6)
H3_14 H 0.7450 0.3288 0.7566
O1_14 O 0.9839(5) 0.3550(5) 0.5739(5)
O5_14 O 0.9131(7) 0.3521(5) 0.6253(6)
O6_14 O 0.9126(7) 0.3976(6) 0.6685(5)
O11_8 O 0.6169(6) 0.0875(7) 0.6564(5)
O12_8 O 0.6639(6) 0.0931(6) 0.6116(6)
C3_14 C 0.8968(8) 0.3677(10) 0.6547(10)
C4_14 C 0.8543(7) 0.3510(7) 0.6638(8)
C5_14 C 0.8376(7) 0.3187(7) 0.6457(6)
H7_14 H 0.8513 0.3074 0.6238
C6_14 C 0.8010(7) 0.3026(6) 0.6592(7)
H8_14 H 0.7883 0.2815 0.6455
C7_14 C 0.7830(6) 0.3170(7) 0.6923(8)
C8_14 C 0.8015(7) 0.3472(7) 0.7121(6)
H9_14 H 0.7904 0.3555 0.7365
C9_14 C 0.8359(8) 0.3654(6) 0.6969(7)
H10_14 H 0.8470 0.3879 0.7093
C10_14 C 0.7478(4) 0.2965(6) 0.7113(6)
C11_14 C 0.6987(6) 0.2487(5) 0.7097(6)
C12_14 C 0.6813(7) 0.2135(5) 0.6892(7)
C13_14 C 0.6982(5) 0.2004(7) 0.6539(7)
H11_14 H 0.7176 0.2162 0.6402
C14_14 C 0.6866(6) 0.1643(7) 0.6390(6)
H12_14 H 0.6981 0.1555 0.6150
C15_14 C 0.6583(7) 0.1409(6) 0.6589(7)
C16_14 C 0.6412(6) 0.1540(7) 0.6941(7)
H13_14 H 0.6216 0.1383 0.7078
C17_14 C 0.6530(6) 0.1902(7) 0.7091(6)
H14_14 H 0.6415 0.1990 0.7331
C18_14 C 0.7015(6) 0.2909(6) 0.7610(4)
C19_14 C 0.6863(8) 0.3045(8) 0.7999(6)
C20_14 C 0.6509(8) 0.2864(7) 0.8157(7)
H15_14 H 0.6357 0.2680 0.8005
C21_14 C 0.6379(7) 0.2954(7) 0.8541(7)
H16_14 H 0.6166 0.2804 0.8663
C22_14 C 0.6567(8) 0.3267(8) 0.8740(6)
C23_14 C 0.6921(8) 0.3451(7) 0.8581(7)
H17_14 H 0.7059 0.3651 0.8725
C24_14 C 0.7072(7) 0.3340(7) 0.8211(7)
H18_14 H 0.7312 0.3463 0.8104
C25_14 C 0.6440(10) 0.1067(9) 0.6397(10)
C52_14 C 0.6399(9) 0.3368(9) 0.9159(9)
In8_8 In 0.62340(9) 0.03862(7) 0.60536(8)
N1_15 N 0.2308(6) 0.2332(6) 0.3063(4)
H1_15 H 0.2407 0.2413 0.3289
N2_15 N 0.1843(4) 0.2391(5) 0.2567(6)
H2_15 H 0.1630 0.2511 0.2458
N3_15 N 0.2334(6) 0.1914(4) 0.2552(6)
H3_15 H 0.2450 0.1712 0.2434
N4_15 N 0.6666(7) 0.1248(5) 0.1909(6)
H4_15 H 0.6700 0.1055 0.2077
N5_15 N 0.6853(6) 0.1557(7) 0.1352(5)
H5_15 H 0.7012 0.1572 0.1143
N6_15 N 0.6329(5) 0.1796(6) 0.1724(7)
H6_15 H 0.6136 0.1974 0.1767
O1_15 O 0.4839(5) 0.1450(5) 0.4261(5)
O2_15 O 0.5249(5) 0.0770(6) 0.4039(5)
O3_15 O 0.5365(5) 0.1593(5) 0.4625(5)
O4_15 O 0.5760(5) 0.0972(5) 0.4399(5)
O5_15 O 0.4131(7) 0.1479(5) 0.3747(6)
O6_15 O 0.4126(7) 0.1024(6) 0.3315(5)
O10_15 O 0.5750(7) 0.0134(7) 0.6426(5)
O13_15 O 0.5062(6) 0.1124(6) 0.3360(5)
O14_15 O 0.5098(9) 0.1774(10) 0.3371(9)
O15_15 O 0.6665(10) 0.3128(10) 0.0040(9)
O17_8 O 0.8308(7) 0.0003(7) 0.1098(7)
O21_15 O 0.5673(6) 0.1147(6) 0.5291(5)
O22_15 O 0.6439(6) 0.0955(5) 0.4979(6)
O23_15 O 0.6524(6) 0.0519(5) 0.5433(5)
O24_15 O 0.5777(5) 0.0744(5) 0.5767(5)
C1_15 C 0.5203(8) 0.1390(7) 0.4365(7)
C2_15 C 0.5427(9) 0.1009(7) 0.4235(8)
C3_15 C 0.3968(8) 0.1323(10) 0.3453(10)
C4_15 C 0.3543(7) 0.1490(7) 0.3362(8)
C5_15 C 0.3376(7) 0.1813(7) 0.3543(6)
H7_15 H 0.3513 0.1926 0.3762
C6_15 C 0.3010(7) 0.1974(6) 0.3408(7)
H8_15 H 0.2883 0.2185 0.3545
C7_15 C 0.2830(6) 0.1830(7) 0.3077(8)
C8_15 C 0.3015(7) 0.1528(7) 0.2879(6)
H9_15 H 0.2904 0.1445 0.2635
C9_15 C 0.3359(8) 0.1346(6) 0.3031(7)
H10_15 H 0.3470 0.1121 0.2907
C10_15 C 0.2478(4) 0.2035(6) 0.2887(6)
C11_15 C 0.1987(6) 0.2513(5) 0.2903(6)
C12_15 C 0.1813(7) 0.2865(5) 0.3108(7)
C13_15 C 0.1982(5) 0.2996(7) 0.3461(7)
H11_15 H 0.2176 0.2838 0.3598
C14_15 C 0.1866(6) 0.3357(7) 0.3610(6)
H12_15 H 0.1981 0.3445 0.3850
C15_15 C 0.1583(7) 0.3591(6) 0.3411(7)
C16_15 C 0.1412(6) 0.3460(7) 0.3059(7)
H13_15 H 0.1216 0.3617 0.2922
C17_15 C 0.1530(6) 0.3098(7) 0.2909(6)
H14_15 H 0.1415 0.3010 0.2669
C18_15 C 0.2015(6) 0.2091(6) 0.2390(4)
C19_15 C 0.1863(8) 0.1955(8) 0.2001(6)
C20_15 C 0.1509(8) 0.2136(7) 0.1843(7)
H15_15 H 0.1357 0.2320 0.1995
C21_15 C 0.1379(7) 0.2046(7) 0.1459(7)
H16_15 H 0.1166 0.2196 0.1337
C22_15 C 0.1567(8) 0.1733(8) 0.1260(6)
C23_15 C 0.1921(8) 0.1549(7) 0.1419(7)
H17_15 H 0.2059 0.1349 0.1275
C24_15 C 0.2072(7) 0.1660(7) 0.1789(7)
H18_15 H 0.2312 0.1537 0.1896
C25_15 C 0.1440(10) 0.3933(9) 0.3603(10)
C28_15 C 0.5190(5) 0.1454(11) 0.3259(6)
C29_15 C 0.5521(6) 0.1510(9) 0.2942(6)
C30_15 C 0.5745(8) 0.1177(7) 0.2845(7)
H19_15 H 0.5715 0.0946 0.2997
C31_15 C 0.6010(7) 0.1182(7) 0.2530(8)
H20_15 H 0.6163 0.0953 0.2465
C32_15 C 0.6058(6) 0.1514(9) 0.2307(6)
C33_15 C 0.5835(8) 0.1846(7) 0.2403(7)
H21_15 H 0.5865 0.2077 0.2251
C34_15 C 0.5569(7) 0.1842(7) 0.2718(8)
H22_15 H 0.5416 0.2071 0.2783
C35_15 C 0.6378(6) 0.1514(7) 0.1969(5)
C36_15 C 0.6903(5) 0.1272(6) 0.1600(7)
C37_15 C 0.6565(7) 0.1822(5) 0.1413(6)
C38_15 C 0.7268(10) 0.0954(9) 0.1586(11)
C39_15 C 0.7292(10) 0.0662(11) 0.1856(9)
H23_15 H 0.7087 0.0643 0.2055
C40_15 C 0.7608(11) 0.0396(9) 0.1841(9)
H24_15 H 0.7648 0.0218 0.2051
C41_15 C 0.7867(10) 0.0387(9) 0.1524(12)
C42_15 C 0.7834(10) 0.0675(11) 0.1249(9)
H25_15 H 0.8025 0.0679 0.1036
C43_15 C 0.7537(12) 0.0954(9) 0.1274(9)
H26_15 H 0.7514 0.1149 0.1077
C44_15 C 0.6551(11) 0.2135(7) 0.1119(7)
C45_15 C 0.6859(7) 0.2209(8) 0.0838(9)
H27_15 H 0.7114 0.2068 0.0843
C46_15 C 0.6791(8) 0.2492(9) 0.0550(7)
H28_15 H 0.6998 0.2544 0.0359
C47_15 C 0.6415(11) 0.2701(6) 0.0543(7)
C48_15 C 0.6110(7) 0.2627(8) 0.0820(9)
H29_15 H 0.5855 0.2768 0.0814
C49_15 C 0.6176(9) 0.2343(9) 0.1111(7)
H30_15 H 0.5967 0.2294 0.1302
C50_15 C 0.6359(10) 0.3025(7) 0.0222(8)
C51_15 C 0.8202(8) 0.0074(7) 0.1448(9)
C52_15 C 0.1399(9) 0.1632(9) 0.0841(9)
C53_15 C 0.5868(8) 0.0902(9) 0.5440(9)
C54_15 C 0.6300(7) 0.0789(8) 0.5295(8)
O9_15 O 0.6044(6) 0.9881(7) 0.5675(6)
O18_15 O 0.8309(8) 0.9927(8) 0.1787(8)
C26_15 C 0.5811(8) 0.9683(8) 0.5869(7)
C27_15 C 0.5637(7) 0.9800(9) 0.6280(6)
O30_8 O 0.6692(7) 0.9997(7) 0.6098(7)
N1_16 N 0.2692(6) 0.7668(6) 0.8063(4)
H1_16 H 0.2593 0.7587 0.8289
N2_16 N 0.3157(4) 0.7609(5) 0.7567(6)
H2_16 H 0.3370 0.7489 0.7458
N3_16 N 0.2666(6) 0.8086(4) 0.7552(6)
H3_16 H 0.2550 0.8288 0.7434
O1_16 O 0.0161(5) 0.8550(5) 0.9261(5)
O5_16 O 0.0869(7) 0.8521(5) 0.8747(6)
O6_16 O 0.0874(7) 0.8976(6) 0.8315(5)
C3_16 C 0.1032(8) 0.8677(10) 0.8453(10)
C4_16 C 0.1457(7) 0.8510(7) 0.8362(8)
C5_16 C 0.1624(7) 0.8187(7) 0.8543(6)
H7_16 H 0.1487 0.8074 0.8762
C6_16 C 0.1990(7) 0.8026(6) 0.8408(7)
H8_16 H 0.2117 0.7815 0.8545
C7_16 C 0.2170(6) 0.8170(7) 0.8077(8)
C8_16 C 0.1985(7) 0.8472(7) 0.7879(6)
H9_16 H 0.2096 0.8555 0.7635
C9_16 C 0.1641(8) 0.8654(6) 0.8031(7)
H10_16 H 0.1530 0.8879 0.7907
C10_16 C 0.2522(4) 0.7965(6) 0.7887(6)
C11_16 C 0.3013(6) 0.7487(5) 0.7903(6)
C12_16 C 0.3187(7) 0.7135(5) 0.8108(7)
C13_16 C 0.3018(5) 0.7004(7) 0.8461(7)
H11_16 H 0.2824 0.7162 0.8598
C14_16 C 0.3134(6) 0.6643(7) 0.8610(6)
H12_16 H 0.3019 0.6555 0.8850
C15_16 C 0.3417(7) 0.6409(6) 0.8411(7)
C16_16 C 0.3588(6) 0.6540(7) 0.8059(7)
H13_16 H 0.3784 0.6383 0.7922
C17_16 C 0.3470(6) 0.6902(7) 0.7909(6)
H14_16 H 0.3585 0.6990 0.7669
C18_16 C 0.2985(6) 0.7909(6) 0.7390(4)
C19_16 C 0.3137(8) 0.8045(8) 0.7001(6)
C20_16 C 0.3491(8) 0.7864(7) 0.6843(7)
H15_16 H 0.3643 0.7680 0.6995
C21_16 C 0.3621(7) 0.7954(7) 0.6459(7)
H16_16 H 0.3834 0.7804 0.6337
C22_16 C 0.3433(8) 0.8267(8) 0.6260(6)
C23_16 C 0.3079(8) 0.8451(7) 0.6419(7)
H17_16 H 0.2941 0.8651 0.6275
C24_16 C 0.2928(7) 0.8340(7) 0.6789(7)
H18_16 H 0.2688 0.8463 0.6896
C25_16 C 0.3560(10) 0.6067(9) 0.8603(10)
C52_16 C 0.3601(9) 0.8368(9) 0.5841(9)
O9_16 O 0.8956(6) 0.0119(7) 0.0675(6)
C26_16 C 0.9189(8) 0.0317(8) 0.0869(7)
C27_16 C 0.9363(7) 0.0200(9) 0.1280(6)
O18_16 O 0.6691(8) 0.0073(8) 0.6787(8)
O10_16 O 0.9250(7) 0.9866(7) 0.1426(5)
O21_16 O 0.9327(6) 0.8853(6) 0.0291(5)
O23_16 O 0.8476(6) 0.9481(5) 0.0433(5)
O24_16 O 0.9223(5) 0.9256(5) 0.0767(5)
C53_16 C 0.9132(8) 0.9098(9) 0.0440(9)
C54_16 C 0.8700(7) 0.9211(8) 0.0295(8)
N4_16 N 0.8334(7) 0.8752(5) 0.6909(6)
H4_16 H 0.8300 0.8945 0.7077
N5_16 N 0.8147(6) 0.8443(7) 0.6352(5)
H5_16 H 0.7988 0.8428 0.6143
N6_16 N 0.8671(5) 0.8204(6) 0.6724(7)
H6_16 H 0.8864 0.8026 0.6767
O2_16 O 0.9751(5) 0.9230(6) 0.9039(5)
O3_16 O 0.9635(5) 0.8407(5) 0.9625(5)
O4_16 O 0.9240(5) 0.9028(5) 0.9399(5)
O13_16 O 0.9938(6) 0.8876(6) 0.8360(5)
O14_16 O 0.9902(9) 0.8226(10) 0.8371(9)
O15_16 O 0.8335(10) 0.6872(10) 0.5040(9)
O22_16 O 0.8561(6) 0.9045(5) 0.9979(6)
C1_16 C 0.9797(8) 0.8610(7) 0.9365(7)
C2_16 C 0.9573(9) 0.8991(7) 0.9235(8)
C28_16 C 0.9810(5) 0.8546(11) 0.8259(6)
C29_16 C 0.9479(6) 0.8490(9) 0.7942(6)
C30_16 C 0.9255(8) 0.8823(7) 0.7845(7)
H19_16 H 0.9285 0.9054 0.7997
C31_16 C 0.8990(7) 0.8818(7) 0.7530(8)
H20_16 H 0.8837 0.9047 0.7465
C32_16 C 0.8942(6) 0.8486(9) 0.7307(6)
C33_16 C 0.9165(8) 0.8154(7) 0.7403(7)
H21_16 H 0.9135 0.7923 0.7251
C34_16 C 0.9431(7) 0.8158(7) 0.7718(8)
H22_16 H 0.9584 0.7929 0.7783
C35_16 C 0.8622(6) 0.8486(7) 0.6969(5)
C36_16 C 0.8097(5) 0.8728(6) 0.6600(7)
C37_16 C 0.8435(7) 0.8178(5) 0.6413(6)
C38_16 C 0.7732(10) 0.9046(9) 0.6586(11)
C39_16 C 0.7708(10) 0.9338(11) 0.6856(9)
H23_16 H 0.7913 0.9357 0.7055
C40_16 C 0.7392(11) 0.9604(9) 0.6841(9)
H24_16 H 0.7352 0.9782 0.7051
C41_16 C 0.7133(10) 0.9613(9) 0.6524(12)
C42_16 C 0.7166(10) 0.9325(11) 0.6249(9)
H25_16 H 0.6975 0.9321 0.6036
C43_16 C 0.7463(12) 0.9046(9) 0.6274(9)
H26_16 H 0.7486 0.8851 0.6077
C44_16 C 0.8449(11) 0.7865(7) 0.6119(7)
C45_16 C 0.8141(7) 0.7791(8) 0.5838(9)
H27_16 H 0.7886 0.7932 0.5843
C46_16 C 0.8209(8) 0.7508(9) 0.5550(7)
H28_16 H 0.8002 0.7456 0.5359
C47_16 C 0.8585(11) 0.7299(6) 0.5543(7)
C48_16 C 0.8890(7) 0.7373(8) 0.5820(9)
H29_16 H 0.9145 0.7232 0.5814
C49_16 C 0.8824(9) 0.7657(9) 0.6111(7)
H30_16 H 0.9033 0.7706 0.6302
C50_16 C 0.8641(10) 0.6975(7) 0.5222(8)
C51_16 C 0.6798(8) 0.9926(7) 0.6448(9)
loop_
_geom_bond_atom_site_label_1
_geom_bond_atom_site_label_2
_geom_bond_site_symmetry_1
_geom_bond_site_symmetry_2
O7 C26 1_555 1_555
O8 C27 1_555 1_555
O9 C26 1_555 1_555
C26 C27 1_555 1_555
In4 O7 1_555 1_555
O8 In4 1_555 1_555
In2 O3 1_555 1_555
N4 H4 1_555 1_555
N5 H5 1_555 1_555
N6 H6 1_555 1_555
O3 C1 1_555 1_555
O4 In2 1_555 1_555
O10 In3 1_555 1_555
O14 C28 1_555 1_555
O15 C50 1_555 1_555
O16 C50 1_555 1_555
O17 C51 1_555 1_555
O21 In2 1_555 1_555
O22 In2 1_555 1_555
O23 In3 1_555 1_555
O24 In3 1_555 1_555
C1 C2 1_555 1_555
C2 O2 1_555 1_555
C28 O13 1_555 1_555
C29 C28 1_555 1_555
C30 C29 1_555 1_555
H19 C30 1_555 1_555
C31 C30 1_555 1_555
H20 C31 1_555 1_555
C32 C31 1_555 1_555
C33 C32 1_555 1_555
H21 C33 1_555 1_555
C34 C29 1_555 1_555
H22 C34 1_555 1_555
C35 N4 1_555 1_555
C36 N4 1_555 1_555
C37 N5 1_555 1_555
C38 C36 1_555 1_555
C39 C38 1_555 1_555
H23 C39 1_555 1_555
C40 C39 1_555 1_555
H24 C40 1_555 1_555
C41 C40 1_555 1_555
C42 C41 1_555 1_555
H25 C42 1_555 1_555
C43 C38 1_555 1_555
H26 C43 1_555 1_555
C44 C37 1_555 1_555
C45 C44 1_555 1_555
H27 C45 1_555 1_555
C46 C45 1_555 1_555
H28 C46 1_555 1_555
C47 C46 1_555 1_555
C48 C47 1_555 1_555
H29 C48 1_555 1_555
C49 C44 1_555 1_555
H30 C49 1_555 1_555
C50 C47 1_555 1_555
C51 C41 1_555 1_555
C53 O21 1_555 1_555
C54 O22 1_555 1_555
O27 In3 1_555 1_555
O28 In3 1_555 1_555
O29 In2 1_555 1_555
O31 In2 1_555 1_555
O32 In2 1_555 1_555
N5 C36 1_555 1_555
N6 C35 1_555 1_555
N6 C37 1_555 1_555
O4 C2 1_555 1_555
O23 C54 1_555 1_555
O24 C53 1_555 1_555
C32 C35 1_555 1_555
C33 C34 1_555 1_555
C42 C43 1_555 1_555
C48 C49 1_555 1_555
C53 C54 1_555 1_555
In1 O1 1_555 1_555
N1 H1 1_555 1_555
N2 H2 1_555 1_555
N3 H3 1_555 1_555
O5 In1 1_555 1_555
O6 In1 1_555 1_555
O11 C25 1_555 1_555
O12 C25 1_555 1_555
O19 C52 1_555 1_555
O20 C52 1_555 1_555
C3 O5 1_555 1_555
C4 C3 1_555 1_555
C5 C4 1_555 1_555
H7 C5 1_555 1_555
C6 C5 1_555 1_555
H8 C6 1_555 1_555
C7 C6 1_555 1_555
C8 C7 1_555 1_555
H9 C8 1_555 1_555
C9 C4 1_555 1_555
H10 C9 1_555 1_555
C10 N1 1_555 1_555
C11 N1 1_555 1_555
C12 C11 1_555 1_555
C13 C12 1_555 1_555
H11 C13 1_555 1_555
C14 C13 1_555 1_555
H12 C14 1_555 1_555
C15 C14 1_555 1_555
C16 C15 1_555 1_555
H13 C16 1_555 1_555
C17 C12 1_555 1_555
H14 C17 1_555 1_555
C18 N2 1_555 1_555
C19 C18 1_555 1_555
C20 C19 1_555 1_555
H15 C20 1_555 1_555
C21 C20 1_555 1_555
H16 C21 1_555 1_555
C22 C21 1_555 1_555
C23 C22 1_555 1_555
H17 C23 1_555 1_555
C24 C19 1_555 1_555
H18 C24 1_555 1_555
C25 C15 1_555 1_555
C52 C22 1_555 1_555
In5 O19 1_555 1_555
In8 O11 1_555 1_555
O25 In1 1_555 1_555
O26 In1 1_555 1_555
N2 C11 1_555 1_555
N3 C10 1_555 1_555
N3 C18 1_555 1_555
O6 C3 1_555 1_555
O12 In8 1_555 1_555
O20 In5 1_555 1_555
C7 C10 1_555 1_555
C8 C9 1_555 1_555
C16 C17 1_555 1_555
C23 C24 1_555 1_555
O10_2 In7 1_555 1_555
O23_2 In7 1_555 1_555
O24_2 In7 1_555 1_555
C53_2 O21_2 1_555 1_555
O27_2 In7 1_555 1_555
O28_2 In7 1_555 1_555
O23_2 C54_2 1_555 1_555
O24_2 C53_2 1_555 1_555
C53_2 C54_2 1_555 1_555
In1_2 O1_2 1_555 1_555
In2_2 O3_2 1_555 1_555
N1_2 H1_2 1_555 1_555
N2_2 H2_2 1_555 1_555
N3_2 H3_2 1_555 1_555
N4_2 H4_2 1_555 1_555
N5_2 H5_2 1_555 1_555
N6_2 H6_2 1_555 1_555
O1_2 C1_2 1_555 1_555
O2_2 In1_2 1_555 1_555
O3_2 C1_2 1_555 1_555
O4_2 In2_2 1_555 1_555
O5_2 In1_2 1_555 1_555
O6_2 In1_2 1_555 1_555
O11_2 C25_2 1_555 1_555
O12_2 C25_2 1_555 1_555
O13_2 In1_2 1_555 1_555
O14_2 C28_2 1_555 1_555
O15_2 C50_2 1_555 1_555
O16_2 C50_2 1_555 1_555
O30 C51_2 1_555 1_555
O19_2 C52_2 1_555 1_555
O20_2 C52_2 1_555 1_555
O22_2 In2_2 1_555 1_555
C1_2 C2_2 1_555 1_555
C2_2 O2_2 1_555 1_555
C3_2 O5_2 1_555 1_555
C4_2 C3_2 1_555 1_555
C5_2 C4_2 1_555 1_555
H7_2 C5_2 1_555 1_555
C6_2 C5_2 1_555 1_555
H8_2 C6_2 1_555 1_555
C7_2 C6_2 1_555 1_555
C8_2 C7_2 1_555 1_555
H9_2 C8_2 1_555 1_555
C9_2 C4_2 1_555 1_555
H10_2 C9_2 1_555 1_555
C10_2 N1_2 1_555 1_555
C11_2 N1_2 1_555 1_555
C12_2 C11_2 1_555 1_555
C13_2 C12_2 1_555 1_555
H11_2 C13_2 1_555 1_555
C14_2 C13_2 1_555 1_555
H12_2 C14_2 1_555 1_555
C15_2 C14_2 1_555 1_555
C16_2 C15_2 1_555 1_555
H13_2 C16_2 1_555 1_555
C17_2 C12_2 1_555 1_555
H14_2 C17_2 1_555 1_555
C18_2 N2_2 1_555 1_555
C19_2 C18_2 1_555 1_555
C20_2 C19_2 1_555 1_555
H15_2 C20_2 1_555 1_555
C21_2 C20_2 1_555 1_555
H16_2 C21_2 1_555 1_555
C22_2 C21_2 1_555 1_555
C23_2 C22_2 1_555 1_555
H17_2 C23_2 1_555 1_555
C24_2 C19_2 1_555 1_555
H18_2 C24_2 1_555 1_555
C25_2 C15_2 1_555 1_555
C28_2 O13_2 1_555 1_555
C29_2 C28_2 1_555 1_555
C30_2 C29_2 1_555 1_555
H19_2 C30_2 1_555 1_555
C31_2 C30_2 1_555 1_555
H20_2 C31_2 1_555 1_555
C32_2 C31_2 1_555 1_555
C33_2 C32_2 1_555 1_555
H21_2 C33_2 1_555 1_555
C34_2 C29_2 1_555 1_555
H22_2 C34_2 1_555 1_555
C35_2 N4_2 1_555 1_555
C36_2 N4_2 1_555 1_555
C37_2 N5_2 1_555 1_555
C38_2 C36_2 1_555 1_555
C39_2 C38_2 1_555 1_555
H23_2 C39_2 1_555 1_555
C40_2 C39_2 1_555 1_555
H24_2 C40_2 1_555 1_555
C41_2 C40_2 1_555 1_555
C42_2 C41_2 1_555 1_555
H25_2 C42_2 1_555 1_555
C43_2 C38_2 1_555 1_555
H26_2 C43_2 1_555 1_555
C44_2 C37_2 1_555 1_555
C45_2 C44_2 1_555 1_555
H27_2 C45_2 1_555 1_555
C46_2 C45_2 1_555 1_555
H28_2 C46_2 1_555 1_555
C47_2 C46_2 1_555 1_555
C48_2 C47_2 1_555 1_555
H29_2 C48_2 1_555 1_555
C49_2 C44_2 1_555 1_555
H30_2 C49_2 1_555 1_555
C50_2 C47_2 1_555 1_555
C51_2 C41_2 1_555 1_555
C52_2 C22_2 1_555 1_555
In5_2 O19_2 1_555 1_555
In6_2 O16_2 1_555 1_555
In8_2 O11_2 1_555 1_555
O25_2 In1_2 1_555 1_555
O26_2 In1_2 1_555 1_555
O31_2 In2_2 1_555 1_555
O32_2 In2_2 1_555 1_555
N2_2 C11_2 1_555 1_555
N3_2 C10_2 1_555 1_555
N3_2 C18_2 1_555 1_555
N5_2 C36_2 1_555 1_555
N6_2 C35_2 1_555 1_555
N6_2 C37_2 1_555 1_555
O4_2 C2_2 1_555 1_555
O6_2 C3_2 1_555 1_555
O12_2 In8_2 1_555 1_555
O20_2 In5_2 1_555 1_555
C7_2 C10_2 1_555 1_555
C8_2 C9_2 1_555 1_555
C16_2 C17_2 1_555 1_555
C23_2 C24_2 1_555 1_555
C32_2 C35_2 1_555 1_555
C33_2 C34_2 1_555 1_555
C42_2 C43_2 1_555 1_555
C48_2 C49_2 1_555 1_555
O7_2 C26_2 1_555 1_555
O8_2 C27_2 1_555 1_555
O9_2 C26_2 1_555 1_555
C26_2 C27_2 1_555 1_555
In4_2 O7_2 1_555 1_555
O8_2 In4_2 1_555 1_555
In1_3 O1_3 1_555 1_555
N1_3 H1_3 1_555 1_555
N2_3 H2_3 1_555 1_555
N3_3 H3_3 1_555 1_555
O5_3 In1_3 1_555 1_555
O6_3 In1_3 1_555 1_555
O27_2 C25_3 1_555 1_555
O28_2 C25_3 1_555 1_555
O19_3 C52_3 1_555 1_555
O20_3 C52_3 1_555 1_555
C3_3 O5_3 1_555 1_555
C4_3 C3_3 1_555 1_555
C5_3 C4_3 1_555 1_555
H7_3 C5_3 1_555 1_555
C6_3 C5_3 1_555 1_555
H8_3 C6_3 1_555 1_555
C7_3 C6_3 1_555 1_555
C8_3 C7_3 1_555 1_555
H9_3 C8_3 1_555 1_555
C9_3 C4_3 1_555 1_555
H10_3 C9_3 1_555 1_555
C10_3 N1_3 1_555 1_555
C11_3 N1_3 1_555 1_555
C12_3 C11_3 1_555 1_555
C13_3 C12_3 1_555 1_555
H11_3 C13_3 1_555 1_555
C14_3 C13_3 1_555 1_555
H12_3 C14_3 1_555 1_555
C15_3 C14_3 1_555 1_555
C16_3 C15_3 1_555 1_555
H13_3 C16_3 1_555 1_555
C17_3 C12_3 1_555 1_555
H14_3 C17_3 1_555 1_555
C18_3 N2_3 1_555 1_555
C19_3 C18_3 1_555 1_555
C20_3 C19_3 1_555 1_555
H15_3 C20_3 1_555 1_555
C21_3 C20_3 1_555 1_555
H16_3 C21_3 1_555 1_555
C22_3 C21_3 1_555 1_555
C23_3 C22_3 1_555 1_555
H17_3 C23_3 1_555 1_555
C24_3 C19_3 1_555 1_555
H18_3 C24_3 1_555 1_555
C25_3 C15_3 1_555 1_555
C52_3 C22_3 1_555 1_555
In6_2 O19_3 1_555 1_555
O25_3 In1_3 1_555 1_555
O26_3 In1_3 1_555 1_555
N2_3 C11_3 1_555 1_555
N3_3 C10_3 1_555 1_555
N3_3 C18_3 1_555 1_555
O6_3 C3_3 1_555 1_555
O20_3 In6_2 1_555 1_555
C7_3 C10_3 1_555 1_555
C8_3 C9_3 1_555 1_555
C16_3 C17_3 1_555 1_555
C23_3 C24_3 1_555 1_555
In2_3 O3_3 1_555 1_555
N4_3 H4_3 1_555 1_555
N5_3 H5_3 1_555 1_555
N6_3 H6_3 1_555 1_555
O3_3 C1_3 1_555 1_555
O4_3 In2_3 1_555 1_555
O14_3 C28_3 1_555 1_555
O15_3 C50_3 1_555 1_555
O16_3 C50_3 1_555 1_555
O17_2 C51_3 1_555 1_555
O18_3 C51_3 1_555 1_555
O22_3 In2_3 1_555 1_555
C1_3 C2_3 1_555 1_555
C2_3 O2_3 1_555 1_555
C28_3 O13_3 1_555 1_555
C29_3 C28_3 1_555 1_555
C30_3 C29_3 1_555 1_555
H19_3 C30_3 1_555 1_555
C31_3 C30_3 1_555 1_555
H20_3 C31_3 1_555 1_555
C32_3 C31_3 1_555 1_555
C33_3 C32_3 1_555 1_555
H21_3 C33_3 1_555 1_555
C34_3 C29_3 1_555 1_555
H22_3 C34_3 1_555 1_555
C35_3 N4_3 1_555 1_555
C36_3 N4_3 1_555 1_555
C37_3 N5_3 1_555 1_555
C38_3 C36_3 1_555 1_555
C39_3 C38_3 1_555 1_555
H23_3 C39_3 1_555 1_555
C40_3 C39_3 1_555 1_555
H24_3 C40_3 1_555 1_555
C41_3 C40_3 1_555 1_555
C42_3 C41_3 1_555 1_555
H25_3 C42_3 1_555 1_555
C43_3 C38_3 1_555 1_555
H26_3 C43_3 1_555 1_555
C44_3 C37_3 1_555 1_555
C45_3 C44_3 1_555 1_555
H27_3 C45_3 1_555 1_555
C46_3 C45_3 1_555 1_555
H28_3 C46_3 1_555 1_555
C47_3 C46_3 1_555 1_555
C48_3 C47_3 1_555 1_555
H29_3 C48_3 1_555 1_555
C49_3 C44_3 1_555 1_555
H30_3 C49_3 1_555 1_555
C50_3 C47_3 1_555 1_555
C51_3 C41_3 1_555 1_555
In5_2 O16_3 1_555 1_555
In8 O17_2 1_555 1_555
O31_3 In2_3 1_555 1_555
O32_3 In2_3 1_555 1_555
N5_3 C36_3 1_555 1_555
N6_3 C35_3 1_555 1_555
N6_3 C37_3 1_555 1_555
O4_3 C2_3 1_555 1_555
C32_3 C35_3 1_555 1_555
C33_3 C34_3 1_555 1_555
C42_3 C43_3 1_555 1_555
C48_3 C49_3 1_555 1_555
In8_2 O9_3 1_555 1_555
O7_3 C26_3 1_555 1_555
O8_3 C27_3 1_555 1_555
O9_3 C26_3 1_555 1_555
O10_3 In8_2 1_555 1_555
O23_3 In8_2 1_555 1_555
O24_3 In8_2 1_555 1_555
C26_3 C27_3 1_555 1_555
C27_3 O10_3 1_555 1_555
C53_3 O21_3 1_555 1_555
In4_3 O7_3 1_555 1_555
O30_2 In8_2 1_555 1_555
O8_3 In4_3 1_555 1_555
O23_3 C54_3 1_555 1_555
O24_3 C53_3 1_555 1_555
C53_3 C54_3 1_555 1_555
In1_4 O1_4 1_555 1_555
In2_4 O3_4 1_555 1_555
In8 O9_4 1_555 1_555
N1_4 H1_4 1_555 1_555
N2_4 H2_4 1_555 1_555
N3_4 H3_4 1_555 1_555
N4_4 H4_4 1_555 1_555
N5_4 H5_4 1_555 1_555
N6_4 H6_4 1_555 1_555
O1_4 C1_4 1_555 1_555
O2_4 In1_4 1_555 1_555
O3_4 C1_4 1_555 1_555
O4_4 In2_4 1_555 1_555
O5_4 In1_4 1_555 1_555
O6_4 In1_4 1_555 1_555
O7_4 C26_4 1_555 1_555
O8_4 C27_4 1_555 1_555
O9_4 C26_4 1_555 1_555
O10_4 In8 1_555 1_555
O27 C25_4 1_555 1_555
O28 C25_4 1_555 1_555
O13_4 In1_4 1_555 1_555
O14_4 C28_4 1_555 1_555
O15_4 C50_4 1_555 1_555
O16_4 C50_4 1_555 1_555
O30_2 C51_4 1_555 1_555
O18_4 C51_4 1_555 1_555
O19_4 C52_4 1_555 1_555
O20_4 C52_4 1_555 1_555
O21_4 In2_4 1_555 1_555
O22_4 In2_4 1_555 1_555
O23_4 In8 1_555 1_555
O24_4 In8 1_555 1_555
C1_4 C2_4 1_555 1_555
C2_4 O2_4 1_555 1_555
C3_4 O5_4 1_555 1_555
C4_4 C3_4 1_555 1_555
C5_4 C4_4 1_555 1_555
H7_4 C5_4 1_555 1_555
C6_4 C5_4 1_555 1_555
H8_4 C6_4 1_555 1_555
C7_4 C6_4 1_555 1_555
C8_4 C7_4 1_555 1_555
H9_4 C8_4 1_555 1_555
C9_4 C4_4 1_555 1_555
H10_4 C9_4 1_555 1_555
C10_4 N1_4 1_555 1_555
C11_4 N1_4 1_555 1_555
C12_4 C11_4 1_555 1_555
C13_4 C12_4 1_555 1_555
H11_4 C13_4 1_555 1_555
C14_4 C13_4 1_555 1_555
H12_4 C14_4 1_555 1_555
C15_4 C14_4 1_555 1_555
C16_4 C15_4 1_555 1_555
H13_4 C16_4 1_555 1_555
C17_4 C12_4 1_555 1_555
H14_4 C17_4 1_555 1_555
C18_4 N2_4 1_555 1_555
C19_4 C18_4 1_555 1_555
C20_4 C19_4 1_555 1_555
H15_4 C20_4 1_555 1_555
C21_4 C20_4 1_555 1_555
H16_4 C21_4 1_555 1_555
C22_4 C21_4 1_555 1_555
C23_4 C22_4 1_555 1_555
H17_4 C23_4 1_555 1_555
C24_4 C19_4 1_555 1_555
H18_4 C24_4 1_555 1_555
C25_4 C15_4 1_555 1_555
C26_4 C27_4 1_555 1_555
C27_4 O10_4 1_555 1_555
C28_4 O13_4 1_555 1_555
C29_4 C28_4 1_555 1_555
C30_4 C29_4 1_555 1_555
H19_4 C30_4 1_555 1_555
C31_4 C30_4 1_555 1_555
H20_4 C31_4 1_555 1_555
C32_4 C31_4 1_555 1_555
C33_4 C32_4 1_555 1_555
H21_4 C33_4 1_555 1_555
C34_4 C29_4 1_555 1_555
H22_4 C34_4 1_555 1_555
C35_4 N4_4 1_555 1_555
C36_4 N4_4 1_555 1_555
C37_4 N5_4 1_555 1_555
C38_4 C36_4 1_555 1_555
C39_4 C38_4 1_555 1_555
H23_4 C39_4 1_555 1_555
C40_4 C39_4 1_555 1_555
H24_4 C40_4 1_555 1_555
C41_4 C40_4 1_555 1_555
C42_4 C41_4 1_555 1_555
H25_4 C42_4 1_555 1_555
C43_4 C38_4 1_555 1_555
H26_4 C43_4 1_555 1_555
C44_4 C37_4 1_555 1_555
C45_4 C44_4 1_555 1_555
H27_4 C45_4 1_555 1_555
C46_4 C45_4 1_555 1_555
H28_4 C46_4 1_555 1_555
C47_4 C46_4 1_555 1_555
C48_4 C47_4 1_555 1_555
H29_4 C48_4 1_555 1_555
C49_4 C44_4 1_555 1_555
H30_4 C49_4 1_555 1_555
C50_4 C47_4 1_555 1_555
C51_4 C41_4 1_555 1_555
C52_4 C22_4 1_555 1_555
C53_4 O21_4 1_555 1_555
C54_4 O22_4 1_555 1_555
In4_4 O7_4 1_555 1_555
In6 O19_4 1_555 1_555
O25_4 In1_4 1_555 1_555
O26_4 In1_4 1_555 1_555
O29_4 In2_4 1_555 1_555
O31_4 In2_4 1_555 1_555
O32_4 In2_4 1_555 1_555
N2_4 C11_4 1_555 1_555
N3_4 C10_4 1_555 1_555
N3_4 C18_4 1_555 1_555
N5_4 C36_4 1_555 1_555
N6_4 C35_4 1_555 1_555
N6_4 C37_4 1_555 1_555
O4_4 C2_4 1_555 1_555
O6_4 C3_4 1_555 1_555
O8_4 In4_4 1_555 1_555
O20_4 In6 1_555 1_555
O23_4 C54_4 1_555 1_555
O24_4 C53_4 1_555 1_555
C7_4 C10_4 1_555 1_555
C8_4 C9_4 1_555 1_555
C16_4 C17_4 1_555 1_555
C23_4 C24_4 1_555 1_555
C32_4 C35_4 1_555 1_555
C33_4 C34_4 1_555 1_555
C42_4 C43_4 1_555 1_555
C48_4 C49_4 1_555 1_555
C53_4 C54_4 1_555 1_555
In4 O1_5 1_555 1_555
N1_5 H1_5 1_555 1_555
N2_5 H2_5 1_555 1_555
N3_5 H3_5 1_555 1_555
O5_5 In4 1_555 1_555
O6_5 In4 1_555 1_555
O11_3 C25_5 1_555 1_555
O12_3 C25_5 1_555 1_555
O31_2 C52_5 1_555 1_555
O32_2 C52_5 1_555 1_555
C3_5 O5_5 1_555 1_555
C4_5 C3_5 1_555 1_555
C5_5 C4_5 1_555 1_555
H7_5 C5_5 1_555 1_555
C6_5 C5_5 1_555 1_555
H8_5 C6_5 1_555 1_555
C7_5 C6_5 1_555 1_555
C8_5 C7_5 1_555 1_555
H9_5 C8_5 1_555 1_555
C9_5 C4_5 1_555 1_555
H10_5 C9_5 1_555 1_555
C10_5 N1_5 1_555 1_555
C11_5 N1_5 1_555 1_555
C12_5 C11_5 1_555 1_555
C13_5 C12_5 1_555 1_555
H11_5 C13_5 1_555 1_555
C14_5 C13_5 1_555 1_555
H12_5 C14_5 1_555 1_555
C15_5 C14_5 1_555 1_555
C16_5 C15_5 1_555 1_555
H13_5 C16_5 1_555 1_555
C17_5 C12_5 1_555 1_555
H14_5 C17_5 1_555 1_555
C18_5 N2_5 1_555 1_555
C19_5 C18_5 1_555 1_555
C20_5 C19_5 1_555 1_555
H15_5 C20_5 1_555 1_555
C21_5 C20_5 1_555 1_555
H16_5 C21_5 1_555 1_555
C22_5 C21_5 1_555 1_555
C23_5 C22_5 1_555 1_555
H17_5 C23_5 1_555 1_555
C24_5 C19_5 1_555 1_555
H18_5 C24_5 1_555 1_555
C25_5 C15_5 1_555 1_555
C52_5 C22_5 1_555 1_555
In8_3 O11_3 1_555 1_555
N2_5 C11_5 1_555 1_555
N3_5 C10_5 1_555 1_555
N3_5 C18_5 1_555 1_555
O6_5 C3_5 1_555 1_555
O12_3 In8_3 1_555 1_555
C7_5 C10_5 1_555 1_555
C8_5 C9_5 1_555 1_555
C16_5 C17_5 1_555 1_555
C23_5 C24_5 1_555 1_555
In5_2 O3_5 1_555 1_555
N4_5 H4_5 1_555 1_555
N5_5 H5_5 1_555 1_555
N6_5 H6_5 1_555 1_555
O3_5 C1_5 1_555 1_555
O4_5 In5_2 1_555 1_555
O10_5 In3_2 1_555 1_555
O14_5 C28_5 1_555 1_555
O15_5 C50_5 1_555 1_555
O29_3 C50_5 1_555 1_555
O17_3 C51_5 1_555 1_555
O21_5 In5_2 1_555 1_555
O22_5 In5_2 1_555 1_555
O23_5 In3_2 1_555 1_555
O24_5 In3_2 1_555 1_555
C1_5 C2_5 1_555 1_555
C2_5 O2_5 1_555 1_555
C28_5 O13_5 1_555 1_555
C29_5 C28_5 1_555 1_555
C30_5 C29_5 1_555 1_555
H19_5 C30_5 1_555 1_555
C31_5 C30_5 1_555 1_555
H20_5 C31_5 1_555 1_555
C32_5 C31_5 1_555 1_555
C33_5 C32_5 1_555 1_555
H21_5 C33_5 1_555 1_555
C34_5 C29_5 1_555 1_555
H22_5 C34_5 1_555 1_555
C35_5 N4_5 1_555 1_555
C36_5 N4_5 1_555 1_555
C37_5 N5_5 1_555 1_555
C38_5 C36_5 1_555 1_555
C39_5 C38_5 1_555 1_555
H23_5 C39_5 1_555 1_555
C40_5 C39_5 1_555 1_555
H24_5 C40_5 1_555 1_555
C41_5 C40_5 1_555 1_555
C42_5 C41_5 1_555 1_555
H25_5 C42_5 1_555 1_555
C43_5 C38_5 1_555 1_555
H26_5 C43_5 1_555 1_555
C44_5 C37_5 1_555 1_555
C45_5 C44_5 1_555 1_555
H27_5 C45_5 1_555 1_555
C46_5 C45_5 1_555 1_555
H28_5 C46_5 1_555 1_555
C47_5 C46_5 1_555 1_555
C48_5 C47_5 1_555 1_555
H29_5 C48_5 1_555 1_555
C49_5 C44_5 1_555 1_555
H30_5 C49_5 1_555 1_555
C50_5 C47_5 1_555 1_555
C51_5 C41_5 1_555 1_555
C53_5 O21_5 1_555 1_555
C54_5 O22_5 1_555 1_555
O27_3 In3_2 1_555 1_555
O28_3 In3_2 1_555 1_555
N5_5 C36_5 1_555 1_555
N6_5 C35_5 1_555 1_555
N6_5 C37_5 1_555 1_555
O4_5 C2_5 1_555 1_555
O23_5 C54_5 1_555 1_555
O24_5 C53_5 1_555 1_555
C32_5 C35_5 1_555 1_555
C33_5 C34_5 1_555 1_555
C42_5 C43_5 1_555 1_555
C48_5 C49_5 1_555 1_555
C53_5 C54_5 1_555 1_555
O25 C26_5 1_555 1_555
O26 C27_5 1_555 1_555
O9_5 C26_5 1_555 1_555
C26_5 C27_5 1_555 1_555
O25_2 C26_6 1_555 1_555
O26_2 C27_6 1_555 1_555
O9_6 C26_6 1_555 1_555
C26_6 C27_6 1_555 1_555
In4_2 O1_6 1_555 1_555
In5 O3_6 1_555 1_555
N1_6 H1_6 1_555 1_555
N2_6 H2_6 1_555 1_555
N3_6 H3_6 1_555 1_555
N4_6 H4_6 1_555 1_555
N5_6 H5_6 1_555 1_555
N6_6 H6_6 1_555 1_555
O1_6 C1_6 1_555 1_555
O2_6 In4_2 1_555 1_555
O3_6 C1_6 1_555 1_555
O4_6 In5 1_555 1_555
O5_6 In4_2 1_555 1_555
O6_6 In4_2 1_555 1_555
O11_4 C25_6 1_555 1_555
O12_4 C25_6 1_555 1_555
O13_6 In4_2 1_555 1_555
O14_6 C28_6 1_555 1_555
O15_6 C50_6 1_555 1_555
O29_4 C50_6 1_555 1_555
O30_3 C51_6 1_555 1_555
O31 C52_6 1_555 1_555
O32 C52_6 1_555 1_555
O22_6 In5 1_555 1_555
C1_6 C2_6 1_555 1_555
C2_6 O2_6 1_555 1_555
C3_6 O5_6 1_555 1_555
C4_6 C3_6 1_555 1_555
C5_6 C4_6 1_555 1_555
H7_6 C5_6 1_555 1_555
C6_6 C5_6 1_555 1_555
H8_6 C6_6 1_555 1_555
C7_6 C6_6 1_555 1_555
C8_6 C7_6 1_555 1_555
H9_6 C8_6 1_555 1_555
C9_6 C4_6 1_555 1_555
H10_6 C9_6 1_555 1_555
C10_6 N1_6 1_555 1_555
C11_6 N1_6 1_555 1_555
C12_6 C11_6 1_555 1_555
C13_6 C12_6 1_555 1_555
H11_6 C13_6 1_555 1_555
C14_6 C13_6 1_555 1_555
H12_6 C14_6 1_555 1_555
C15_6 C14_6 1_555 1_555
C16_6 C15_6 1_555 1_555
H13_6 C16_6 1_555 1_555
C17_6 C12_6 1_555 1_555
H14_6 C17_6 1_555 1_555
C18_6 N2_6 1_555 1_555
C19_6 C18_6 1_555 1_555
C20_6 C19_6 1_555 1_555
H15_6 C20_6 1_555 1_555
C21_6 C20_6 1_555 1_555
H16_6 C21_6 1_555 1_555
C22_6 C21_6 1_555 1_555
C23_6 C22_6 1_555 1_555
H17_6 C23_6 1_555 1_555
C24_6 C19_6 1_555 1_555
H18_6 C24_6 1_555 1_555
C25_6 C15_6 1_555 1_555
C28_6 O13_6 1_555 1_555
C29_6 C28_6 1_555 1_555
C30_6 C29_6 1_555 1_555
H19_6 C30_6 1_555 1_555
C31_6 C30_6 1_555 1_555
H20_6 C31_6 1_555 1_555
C32_6 C31_6 1_555 1_555
C33_6 C32_6 1_555 1_555
H21_6 C33_6 1_555 1_555
C34_6 C29_6 1_555 1_555
H22_6 C34_6 1_555 1_555
C35_6 N4_6 1_555 1_555
C36_6 N4_6 1_555 1_555
C37_6 N5_6 1_555 1_555
C38_6 C36_6 1_555 1_555
C39_6 C38_6 1_555 1_555
H23_6 C39_6 1_555 1_555
C40_6 C39_6 1_555 1_555
H24_6 C40_6 1_555 1_555
C41_6 C40_6 1_555 1_555
C42_6 C41_6 1_555 1_555
H25_6 C42_6 1_555 1_555
C43_6 C38_6 1_555 1_555
H26_6 C43_6 1_555 1_555
C44_6 C37_6 1_555 1_555
C45_6 C44_6 1_555 1_555
H27_6 C45_6 1_555 1_555
C46_6 C45_6 1_555 1_555
H28_6 C46_6 1_555 1_555
C47_6 C46_6 1_555 1_555
C48_6 C47_6 1_555 1_555
H29_6 C48_6 1_555 1_555
C49_6 C44_6 1_555 1_555
H30_6 C49_6 1_555 1_555
C50_6 C47_6 1_555 1_555
C51_6 C41_6 1_555 1_555
C52_6 C22_6 1_555 1_555
In8_4 O11_4 1_555 1_555
N2_6 C11_6 1_555 1_555
N3_6 C10_6 1_555 1_555
N3_6 C18_6 1_555 1_555
N5_6 C36_6 1_555 1_555
N6_6 C35_6 1_555 1_555
N6_6 C37_6 1_555 1_555
O4_6 C2_6 1_555 1_555
O6_6 C3_6 1_555 1_555
O12_4 In8_4 1_555 1_555
C7_6 C10_6 1_555 1_555
C8_6 C9_6 1_555 1_555
C16_6 C17_6 1_555 1_555
C23_6 C24_6 1_555 1_555
C32_6 C35_6 1_555 1_555
C33_6 C34_6 1_555 1_555
C42_6 C43_6 1_555 1_555
C48_6 C49_6 1_555 1_555
O10_6 In7_2 1_555 1_555
O23_6 In7_2 1_555 1_555
O24_6 In7_2 1_555 1_555
C53_6 O21_6 1_555 1_555
O27_4 In7_2 1_555 1_555
O28_4 In7_2 1_555 1_555
O23_6 C54_6 1_555 1_555
O24_6 C53_6 1_555 1_555
C53_6 C54_6 1_555 1_555
In8_4 O9_7 1_555 1_555
O25_3 C26_7 1_555 1_555
O26_3 C27_7 1_555 1_555
O9_7 C26_7 1_555 1_555
O10_7 In8_4 1_555 1_555
O23_7 In8_4 1_555 1_555
O24_7 In8_4 1_555 1_555
C26_7 C27_7 1_555 1_555
C27_7 O10_7 1_555 1_555
C53_7 O21_7 1_555 1_555
O30_4 In8_4 1_555 1_555
O23_7 C54_7 1_555 1_555
O24_7 C53_7 1_555 1_555
C53_7 C54_7 1_555 1_555
In6 O3_7 1_555 1_555
N4_7 H4_7 1_555 1_555
N5_7 H5_7 1_555 1_555
N6_7 H6_7 1_555 1_555
O3_7 C1_7 1_555 1_555
O4_7 In6 1_555 1_555
O14_7 C28_7 1_555 1_555
O15_7 C50_7 1_555 1_555
O29 C50_7 1_555 1_555
O17_4 C51_7 1_555 1_555
O18_7 C51_7 1_555 1_555
O22_7 In6 1_555 1_555
C1_7 C2_7 1_555 1_555
C2_7 O2_7 1_555 1_555
C28_7 O13_7 1_555 1_555
C29_7 C28_7 1_555 1_555
C30_7 C29_7 1_555 1_555
H19_7 C30_7 1_555 1_555
C31_7 C30_7 1_555 1_555
H20_7 C31_7 1_555 1_555
C32_7 C31_7 1_555 1_555
C33_7 C32_7 1_555 1_555
H21_7 C33_7 1_555 1_555
C34_7 C29_7 1_555 1_555
H22_7 C34_7 1_555 1_555
C35_7 N4_7 1_555 1_555
C36_7 N4_7 1_555 1_555
C37_7 N5_7 1_555 1_555
C38_7 C36_7 1_555 1_555
C39_7 C38_7 1_555 1_555
H23_7 C39_7 1_555 1_555
C40_7 C39_7 1_555 1_555
H24_7 C40_7 1_555 1_555
C41_7 C40_7 1_555 1_555
C42_7 C41_7 1_555 1_555
H25_7 C42_7 1_555 1_555
C43_7 C38_7 1_555 1_555
H26_7 C43_7 1_555 1_555
C44_7 C37_7 1_555 1_555
C45_7 C44_7 1_555 1_555
H27_7 C45_7 1_555 1_555
C46_7 C45_7 1_555 1_555
H28_7 C46_7 1_555 1_555
C47_7 C46_7 1_555 1_555
C48_7 C47_7 1_555 1_555
H29_7 C48_7 1_555 1_555
C49_7 C44_7 1_555 1_555
H30_7 C49_7 1_555 1_555
C50_7 C47_7 1_555 1_555
C51_7 C41_7 1_555 1_555
In8_3 O17_4 1_555 1_555
N5_7 C36_7 1_555 1_555
N6_7 C35_7 1_555 1_555
N6_7 C37_7 1_555 1_555
O4_7 C2_7 1_555 1_555
C32_7 C35_7 1_555 1_555
C33_7 C34_7 1_555 1_555
C42_7 C43_7 1_555 1_555
C48_7 C49_7 1_555 1_555
In4_3 O1_7 1_555 1_555
N1_7 H1_7 1_555 1_555
N2_7 H2_7 1_555 1_555
N3_7 H3_7 1_555 1_555
O5_7 In4_3 1_555 1_555
O6_7 In4_3 1_555 1_555
O27_4 C25_7 1_555 1_555
O28_4 C25_7 1_555 1_555
O31_4 C52_7 1_555 1_555
O32_4 C52_7 1_555 1_555
C3_7 O5_7 1_555 1_555
C4_7 C3_7 1_555 1_555
C5_7 C4_7 1_555 1_555
H7_7 C5_7 1_555 1_555
C6_7 C5_7 1_555 1_555
H8_7 C6_7 1_555 1_555
C7_7 C6_7 1_555 1_555
C8_7 C7_7 1_555 1_555
H9_7 C8_7 1_555 1_555
C9_7 C4_7 1_555 1_555
H10_7 C9_7 1_555 1_555
C10_7 N1_7 1_555 1_555
C11_7 N1_7 1_555 1_555
C12_7 C11_7 1_555 1_555
C13_7 C12_7 1_555 1_555
H11_7 C13_7 1_555 1_555
C14_7 C13_7 1_555 1_555
H12_7 C14_7 1_555 1_555
C15_7 C14_7 1_555 1_555
C16_7 C15_7 1_555 1_555
H13_7 C16_7 1_555 1_555
C17_7 C12_7 1_555 1_555
H14_7 C17_7 1_555 1_555
C18_7 N2_7 1_555 1_555
C19_7 C18_7 1_555 1_555
C20_7 C19_7 1_555 1_555
H15_7 C20_7 1_555 1_555
C21_7 C20_7 1_555 1_555
H16_7 C21_7 1_555 1_555
C22_7 C21_7 1_555 1_555
C23_7 C22_7 1_555 1_555
H17_7 C23_7 1_555 1_555
C24_7 C19_7 1_555 1_555
H18_7 C24_7 1_555 1_555
C25_7 C15_7 1_555 1_555
C52_7 C22_7 1_555 1_555
N2_7 C11_7 1_555 1_555
N3_7 C10_7 1_555 1_555
N3_7 C18_7 1_555 1_555
O6_7 C3_7 1_555 1_555
C7_7 C10_7 1_555 1_555
C8_7 C9_7 1_555 1_555
C16_7 C17_7 1_555 1_555
C23_7 C24_7 1_555 1_555
In4_4 O1_8 1_555 1_555
In6_2 O3_8 1_555 1_555
In8_3 O9_8 1_555 1_555
N1_8 H1_8 1_555 1_555
N2_8 H2_8 1_555 1_555
N3_8 H3_8 1_555 1_555
N4_8 H4_8 1_555 1_555
N5_8 H5_8 1_555 1_555
N6_8 H6_8 1_555 1_555
O1_8 C1_8 1_555 1_555
O2_8 In4_4 1_555 1_555
O3_8 C1_8 1_555 1_555
O4_8 In6_2 1_555 1_555
O5_8 In4_4 1_555 1_555
O6_8 In4_4 1_555 1_555
O25_4 C26_8 1_555 1_555
O26_4 C27_8 1_555 1_555
O9_8 C26_8 1_555 1_555
O10_8 In8_3 1_555 1_555
O27_3 C25_8 1_555 1_555
O28_3 C25_8 1_555 1_555
O13_8 In4_4 1_555 1_555
O14_8 C28_8 1_555 1_555
O15_8 C50_8 1_555 1_555
O29_2 C50_8 1_555 1_555
O30_4 C51_8 1_555 1_555
O18_8 C51_8 1_555 1_555
O31_3 C52_8 1_555 1_555
O32_3 C52_8 1_555 1_555
O21_8 In6_2 1_555 1_555
O22_8 In6_2 1_555 1_555
O23_8 In8_3 1_555 1_555
O24_8 In8_3 1_555 1_555
C1_8 C2_8 1_555 1_555
C2_8 O2_8 1_555 1_555
C3_8 O5_8 1_555 1_555
C4_8 C3_8 1_555 1_555
C5_8 C4_8 1_555 1_555
H7_8 C5_8 1_555 1_555
C6_8 C5_8 1_555 1_555
H8_8 C6_8 1_555 1_555
C7_8 C6_8 1_555 1_555
C8_8 C7_8 1_555 1_555
H9_8 C8_8 1_555 1_555
C9_8 C4_8 1_555 1_555
H10_8 C9_8 1_555 1_555
C10_8 N1_8 1_555 1_555
C11_8 N1_8 1_555 1_555
C12_8 C11_8 1_555 1_555
C13_8 C12_8 1_555 1_555
H11_8 C13_8 1_555 1_555
C14_8 C13_8 1_555 1_555
H12_8 C14_8 1_555 1_555
C15_8 C14_8 1_555 1_555
C16_8 C15_8 1_555 1_555
H13_8 C16_8 1_555 1_555
C17_8 C12_8 1_555 1_555
H14_8 C17_8 1_555 1_555
C18_8 N2_8 1_555 1_555
C19_8 C18_8 1_555 1_555
C20_8 C19_8 1_555 1_555
H15_8 C20_8 1_555 1_555
C21_8 C20_8 1_555 1_555
H16_8 C21_8 1_555 1_555
C22_8 C21_8 1_555 1_555
C23_8 C22_8 1_555 1_555
H17_8 C23_8 1_555 1_555
C24_8 C19_8 1_555 1_555
H18_8 C24_8 1_555 1_555
C25_8 C15_8 1_555 1_555
C26_8 C27_8 1_555 1_555
C27_8 O10_8 1_555 1_555
C28_8 O13_8 1_555 1_555
C29_8 C28_8 1_555 1_555
C30_8 C29_8 1_555 1_555
H19_8 C30_8 1_555 1_555
C31_8 C30_8 1_555 1_555
H20_8 C31_8 1_555 1_555
C32_8 C31_8 1_555 1_555
C33_8 C32_8 1_555 1_555
H21_8 C33_8 1_555 1_555
C34_8 C29_8 1_555 1_555
H22_8 C34_8 1_555 1_555
C35_8 N4_8 1_555 1_555
C36_8 N4_8 1_555 1_555
C37_8 N5_8 1_555 1_555
C38_8 C36_8 1_555 1_555
C39_8 C38_8 1_555 1_555
H23_8 C39_8 1_555 1_555
C40_8 C39_8 1_555 1_555
H24_8 C40_8 1_555 1_555
C41_8 C40_8 1_555 1_555
C42_8 C41_8 1_555 1_555
H25_8 C42_8 1_555 1_555
C43_8 C38_8 1_555 1_555
H26_8 C43_8 1_555 1_555
C44_8 C37_8 1_555 1_555
C45_8 C44_8 1_555 1_555
H27_8 C45_8 1_555 1_555
C46_8 C45_8 1_555 1_555
H28_8 C46_8 1_555 1_555
C47_8 C46_8 1_555 1_555
C48_8 C47_8 1_555 1_555
H29_8 C48_8 1_555 1_555
C49_8 C44_8 1_555 1_555
H30_8 C49_8 1_555 1_555
C50_8 C47_8 1_555 1_555
C51_8 C41_8 1_555 1_555
C52_8 C22_8 1_555 1_555
C53_8 O21_8 1_555 1_555
C54_8 O22_8 1_555 1_555
N2_8 C11_8 1_555 1_555
N3_8 C10_8 1_555 1_555
N3_8 C18_8 1_555 1_555
N5_8 C36_8 1_555 1_555
N6_8 C35_8 1_555 1_555
N6_8 C37_8 1_555 1_555
O4_8 C2_8 1_555 1_555
O6_8 C3_8 1_555 1_555
O23_8 C54_8 1_555 1_555
O24_8 C53_8 1_555 1_555
C7_8 C10_8 1_555 1_555
C8_8 C9_8 1_555 1_555
C16_8 C17_8 1_555 1_555
C23_8 C24_8 1_555 1_555
C32_8 C35_8 1_555 1_555
C33_8 C34_8 1_555 1_555
C42_8 C43_8 1_555 1_555
C48_8 C49_8 1_555 1_555
C53_8 C54_8 1_555 1_555
In3_3 O9_9 1_555 1_555
O7_5 C26_9 1_555 1_555
O8_5 C27_9 1_555 1_555
O9_9 C26_9 1_555 1_555
O10_9 In3_3 1_555 1_555
O23_9 In3_3 1_555 1_555
O24_9 In3_3 1_555 1_555
C26_9 C27_9 1_555 1_555
C27_9 O10_9 1_555 1_555
C53_9 O21_9 1_555 1_555
In4_5 O7_5 1_555 1_555
O27_5 In3_3 1_555 1_555
O28_5 In3_3 1_555 1_555
O30_5 In3_3 1_555 1_555
O8_5 In4_5 1_555 1_555
O23_9 C54_9 1_555 1_555
O24_9 C53_9 1_555 1_555
C53_9 C54_9 1_555 1_555
In1_5 O1_9 1_555 1_555
In2_5 O3_9 1_555 1_555
N1_9 H1_9 1_555 1_555
N2_9 H2_9 1_555 1_555
N3_9 H3_9 1_555 1_555
N4_9 H4_9 1_555 1_555
N5_9 H5_9 1_555 1_555
N6_9 H6_9 1_555 1_555
O1_9 C1_9 1_555 1_555
O2_9 In1_5 1_555 1_555
O3_9 C1_9 1_555 1_555
O4_9 In2_5 1_555 1_555
O5_9 In1_5 1_555 1_555
O6_9 In1_5 1_555 1_555
O11_5 C25_9 1_555 1_555
O12_5 C25_9 1_555 1_555
O13_9 In1_5 1_555 1_555
O14_9 C28_9 1_555 1_555
O15_9 C50_9 1_555 1_555
O16_5 C50_9 1_555 1_555
O17_5 C51_9 1_555 1_555
O18_9 C51_9 1_555 1_555
O19_5 C52_9 1_555 1_555
O20_5 C52_9 1_555 1_555
O22_9 In2_5 1_555 1_555
C1_9 C2_9 1_555 1_555
C2_9 O2_9 1_555 1_555
C3_9 O5_9 1_555 1_555
C4_9 C3_9 1_555 1_555
C5_9 C4_9 1_555 1_555
H7_9 C5_9 1_555 1_555
C6_9 C5_9 1_555 1_555
H8_9 C6_9 1_555 1_555
C7_9 C6_9 1_555 1_555
C8_9 C7_9 1_555 1_555
H9_9 C8_9 1_555 1_555
C9_9 C4_9 1_555 1_555
H10_9 C9_9 1_555 1_555
C10_9 N1_9 1_555 1_555
C11_9 N1_9 1_555 1_555
C12_9 C11_9 1_555 1_555
C13_9 C12_9 1_555 1_555
H11_9 C13_9 1_555 1_555
C14_9 C13_9 1_555 1_555
H12_9 C14_9 1_555 1_555
C15_9 C14_9 1_555 1_555
C16_9 C15_9 1_555 1_555
H13_9 C16_9 1_555 1_555
C17_9 C12_9 1_555 1_555
H14_9 C17_9 1_555 1_555
C18_9 N2_9 1_555 1_555
C19_9 C18_9 1_555 1_555
C20_9 C19_9 1_555 1_555
H15_9 C20_9 1_555 1_555
C21_9 C20_9 1_555 1_555
H16_9 C21_9 1_555 1_555
C22_9 C21_9 1_555 1_555
C23_9 C22_9 1_555 1_555
H17_9 C23_9 1_555 1_555
C24_9 C19_9 1_555 1_555
H18_9 C24_9 1_555 1_555
C25_9 C15_9 1_555 1_555
C28_9 O13_9 1_555 1_555
C29_9 C28_9 1_555 1_555
C30_9 C29_9 1_555 1_555
H19_9 C30_9 1_555 1_555
C31_9 C30_9 1_555 1_555
H20_9 C31_9 1_555 1_555
C32_9 C31_9 1_555 1_555
C33_9 C32_9 1_555 1_555
H21_9 C33_9 1_555 1_555
C34_9 C29_9 1_555 1_555
H22_9 C34_9 1_555 1_555
C35_9 N4_9 1_555 1_555
C36_9 N4_9 1_555 1_555
C37_9 N5_9 1_555 1_555
C38_9 C36_9 1_555 1_555
C39_9 C38_9 1_555 1_555
H23_9 C39_9 1_555 1_555
C40_9 C39_9 1_555 1_555
H24_9 C40_9 1_555 1_555
C41_9 C40_9 1_555 1_555
C42_9 C41_9 1_555 1_555
H25_9 C42_9 1_555 1_555
C43_9 C38_9 1_555 1_555
H26_9 C43_9 1_555 1_555
C44_9 C37_9 1_555 1_555
C45_9 C44_9 1_555 1_555
H27_9 C45_9 1_555 1_555
C46_9 C45_9 1_555 1_555
H28_9 C46_9 1_555 1_555
C47_9 C46_9 1_555 1_555
C48_9 C47_9 1_555 1_555
H29_9 C48_9 1_555 1_555
C49_9 C44_9 1_555 1_555
H30_9 C49_9 1_555 1_555
C50_9 C47_9 1_555 1_555
C51_9 C41_9 1_555 1_555
C52_9 C22_9 1_555 1_555
In5_3 O19_5 1_555 1_555
In6_3 O16_5 1_555 1_555
In7_3 O17_5 1_555 1_555
In8_5 O11_5 1_555 1_555
O25_5 In1_5 1_555 1_555
O26_5 In1_5 1_555 1_555
O31_5 In2_5 1_555 1_555
O32_5 In2_5 1_555 1_555
N2_9 C11_9 1_555 1_555
N3_9 C10_9 1_555 1_555
N3_9 C18_9 1_555 1_555
N5_9 C36_9 1_555 1_555
N6_9 C35_9 1_555 1_555
N6_9 C37_9 1_555 1_555
O4_9 C2_9 1_555 1_555
O6_9 C3_9 1_555 1_555
O12_5 In8_5 1_555 1_555
O20_5 In5_3 1_555 1_555
C7_9 C10_9 1_555 1_555
C8_9 C9_9 1_555 1_555
C16_9 C17_9 1_555 1_555
C23_9 C24_9 1_555 1_555
C32_9 C35_9 1_555 1_555
C33_9 C34_9 1_555 1_555
C42_9 C43_9 1_555 1_555
C48_9 C49_9 1_555 1_555
In1_6 O1_10 1_555 1_555
N1_10 H1_10 1_555 1_555
N2_10 H2_10 1_555 1_555
N3_10 H3_10 1_555 1_555
O5_10 In1_6 1_555 1_555
O6_10 In1_6 1_555 1_555
O11_6 C25_10 1_555 1_555
O12_6 C25_10 1_555 1_555
O19_6 C52_10 1_555 1_555
O20_6 C52_10 1_555 1_555
C3_10 O5_10 1_555 1_555
C4_10 C3_10 1_555 1_555
C5_10 C4_10 1_555 1_555
H7_10 C5_10 1_555 1_555
C6_10 C5_10 1_555 1_555
H8_10 C6_10 1_555 1_555
C7_10 C6_10 1_555 1_555
C8_10 C7_10 1_555 1_555
H9_10 C8_10 1_555 1_555
C9_10 C4_10 1_555 1_555
H10_10 C9_10 1_555 1_555
C10_10 N1_10 1_555 1_555
C11_10 N1_10 1_555 1_555
C12_10 C11_10 1_555 1_555
C13_10 C12_10 1_555 1_555
H11_10 C13_10 1_555 1_555
C14_10 C13_10 1_555 1_555
H12_10 C14_10 1_555 1_555
C15_10 C14_10 1_555 1_555
C16_10 C15_10 1_555 1_555
H13_10 C16_10 1_555 1_555
C17_10 C12_10 1_555 1_555
H14_10 C17_10 1_555 1_555
C18_10 N2_10 1_555 1_555
C19_10 C18_10 1_555 1_555
C20_10 C19_10 1_555 1_555
H15_10 C20_10 1_555 1_555
C21_10 C20_10 1_555 1_555
H16_10 C21_10 1_555 1_555
C22_10 C21_10 1_555 1_555
C23_10 C22_10 1_555 1_555
H17_10 C23_10 1_555 1_555
C24_10 C19_10 1_555 1_555
H18_10 C24_10 1_555 1_555
C25_10 C15_10 1_555 1_555
C52_10 C22_10 1_555 1_555
In5_4 O19_6 1_555 1_555
In8_6 O11_6 1_555 1_555
O25_6 In1_6 1_555 1_555
O26_6 In1_6 1_555 1_555
N2_10 C11_10 1_555 1_555
N3_10 C10_10 1_555 1_555
N3_10 C18_10 1_555 1_555
O6_10 C3_10 1_555 1_555
O12_6 In8_6 1_555 1_555
O20_6 In5_4 1_555 1_555
C7_10 C10_10 1_555 1_555
C8_10 C9_10 1_555 1_555
C16_10 C17_10 1_555 1_555
C23_10 C24_10 1_555 1_555
In2_6 O3_10 1_555 1_555
In7_3 O9_10 1_555 1_555
N4_10 H4_10 1_555 1_555
N5_10 H5_10 1_555 1_555
N6_10 H6_10 1_555 1_555
O3_10 C1_10 1_555 1_555
O4_10 In2_6 1_555 1_555
O7_6 C26_10 1_555 1_555
O8_6 C27_10 1_555 1_555
O9_10 C26_10 1_555 1_555
O10_10 In7_3 1_555 1_555
O14_10 C28_10 1_555 1_555
O15_10 C50_10 1_555 1_555
O16_6 C50_10 1_555 1_555
O30_5 C51_10 1_555 1_555
O18_10 C51_10 1_555 1_555
O21_10 In2_6 1_555 1_555
O22_10 In2_6 1_555 1_555
O23_10 In7_3 1_555 1_555
O24_10 In7_3 1_555 1_555
C1_10 C2_10 1_555 1_555
C2_10 O2_10 1_555 1_555
C26_10 C27_10 1_555 1_555
C27_10 O10_10 1_555 1_555
C28_10 O13_10 1_555 1_555
C29_10 C28_10 1_555 1_555
C30_10 C29_10 1_555 1_555
H19_10 C30_10 1_555 1_555
C31_10 C30_10 1_555 1_555
H20_10 C31_10 1_555 1_555
C32_10 C31_10 1_555 1_555
C33_10 C32_10 1_555 1_555
H21_10 C33_10 1_555 1_555
C34_10 C29_10 1_555 1_555
H22_10 C34_10 1_555 1_555
C35_10 N4_10 1_555 1_555
C36_10 N4_10 1_555 1_555
C37_10 N5_10 1_555 1_555
C38_10 C36_10 1_555 1_555
C39_10 C38_10 1_555 1_555
H23_10 C39_10 1_555 1_555
C40_10 C39_10 1_555 1_555
H24_10 C40_10 1_555 1_555
C41_10 C40_10 1_555 1_555
C42_10 C41_10 1_555 1_555
H25_10 C42_10 1_555 1_555
C43_10 C38_10 1_555 1_555
H26_10 C43_10 1_555 1_555
C44_10 C37_10 1_555 1_555
C45_10 C44_10 1_555 1_555
H27_10 C45_10 1_555 1_555
C46_10 C45_10 1_555 1_555
H28_10 C46_10 1_555 1_555
C47_10 C46_10 1_555 1_555
C48_10 C47_10 1_555 1_555
H29_10 C48_10 1_555 1_555
C49_10 C44_10 1_555 1_555
H30_10 C49_10 1_555 1_555
C50_10 C47_10 1_555 1_555
C51_10 C41_10 1_555 1_555
C53_10 O21_10 1_555 1_555
C54_10 O22_10 1_555 1_555
In4_6 O7_6 1_555 1_555
O27_6 In7_3 1_555 1_555
O28_6 In7_3 1_555 1_555
O29_6 In2_6 1_555 1_555
O31_6 In2_6 1_555 1_555
O32_6 In2_6 1_555 1_555
N5_10 C36_10 1_555 1_555
N6_10 C35_10 1_555 1_555
N6_10 C37_10 1_555 1_555
O4_10 C2_10 1_555 1_555
O8_6 In4_6 1_555 1_555
O23_10 C54_10 1_555 1_555
O24_10 C53_10 1_555 1_555
C32_10 C35_10 1_555 1_555
C33_10 C34_10 1_555 1_555
C42_10 C43_10 1_555 1_555
C48_10 C49_10 1_555 1_555
C53_10 C54_10 1_555 1_555
O7_7 C26_11 1_555 1_555
O8_7 C27_11 1_555 1_555
O9_11 C26_11 1_555 1_555
C26_11 C27_11 1_555 1_555
In4_7 O7_7 1_555 1_555
O8_7 In4_7 1_555 1_555
In1_7 O1_11 1_555 1_555
In2_7 O3_11 1_555 1_555
N1_11 H1_11 1_555 1_555
N2_11 H2_11 1_555 1_555
N3_11 H3_11 1_555 1_555
N4_11 H4_11 1_555 1_555
N5_11 H5_11 1_555 1_555
N6_11 H6_11 1_555 1_555
O1_11 C1_11 1_555 1_555
O2_11 In1_7 1_555 1_555
O3_11 C1_11 1_555 1_555
O4_11 In2_7 1_555 1_555
O5_11 In1_7 1_555 1_555
O6_11 In1_7 1_555 1_555
O10_11 In8_6 1_555 1_555
O27_6 C25_11 1_555 1_555
O28_6 C25_11 1_555 1_555
O13_11 In1_7 1_555 1_555
O14_11 C28_11 1_555 1_555
O15_11 C50_11 1_555 1_555
O16_7 C50_11 1_555 1_555
O17_6 C51_11 1_555 1_555
O19_7 C52_11 1_555 1_555
O20_7 C52_11 1_555 1_555
O21_11 In2_7 1_555 1_555
O22_11 In2_7 1_555 1_555
O23_11 In8_6 1_555 1_555
O24_11 In8_6 1_555 1_555
C1_11 C2_11 1_555 1_555
C2_11 O2_11 1_555 1_555
C3_11 O5_11 1_555 1_555
C4_11 C3_11 1_555 1_555
C5_11 C4_11 1_555 1_555
H7_11 C5_11 1_555 1_555
C6_11 C5_11 1_555 1_555
H8_11 C6_11 1_555 1_555
C7_11 C6_11 1_555 1_555
C8_11 C7_11 1_555 1_555
H9_11 C8_11 1_555 1_555
C9_11 C4_11 1_555 1_555
H10_11 C9_11 1_555 1_555
C10_11 N1_11 1_555 1_555
C11_11 N1_11 1_555 1_555
C12_11 C11_11 1_555 1_555
C13_11 C12_11 1_555 1_555
H11_11 C13_11 1_555 1_555
C14_11 C13_11 1_555 1_555
H12_11 C14_11 1_555 1_555
C15_11 C14_11 1_555 1_555
C16_11 C15_11 1_555 1_555
H13_11 C16_11 1_555 1_555
C17_11 C12_11 1_555 1_555
H14_11 C17_11 1_555 1_555
C18_11 N2_11 1_555 1_555
C19_11 C18_11 1_555 1_555
C20_11 C19_11 1_555 1_555
H15_11 C20_11 1_555 1_555
C21_11 C20_11 1_555 1_555
H16_11 C21_11 1_555 1_555
C22_11 C21_11 1_555 1_555
C23_11 C22_11 1_555 1_555
H17_11 C23_11 1_555 1_555
C24_11 C19_11 1_555 1_555
H18_11 C24_11 1_555 1_555
C25_11 C15_11 1_555 1_555
C28_11 O13_11 1_555 1_555
C29_11 C28_11 1_555 1_555
C30_11 C29_11 1_555 1_555
H19_11 C30_11 1_555 1_555
C31_11 C30_11 1_555 1_555
H20_11 C31_11 1_555 1_555
C32_11 C31_11 1_555 1_555
C33_11 C32_11 1_555 1_555
H21_11 C33_11 1_555 1_555
C34_11 C29_11 1_555 1_555
H22_11 C34_11 1_555 1_555
C35_11 N4_11 1_555 1_555
C36_11 N4_11 1_555 1_555
C37_11 N5_11 1_555 1_555
C38_11 C36_11 1_555 1_555
C39_11 C38_11 1_555 1_555
H23_11 C39_11 1_555 1_555
C40_11 C39_11 1_555 1_555
H24_11 C40_11 1_555 1_555
C41_11 C40_11 1_555 1_555
C42_11 C41_11 1_555 1_555
H25_11 C42_11 1_555 1_555
C43_11 C38_11 1_555 1_555
H26_11 C43_11 1_555 1_555
C44_11 C37_11 1_555 1_555
C45_11 C44_11 1_555 1_555
H27_11 C45_11 1_555 1_555
C46_11 C45_11 1_555 1_555
H28_11 C46_11 1_555 1_555
C47_11 C46_11 1_555 1_555
C48_11 C47_11 1_555 1_555
H29_11 C48_11 1_555 1_555
C49_11 C44_11 1_555 1_555
H30_11 C49_11 1_555 1_555
C50_11 C47_11 1_555 1_555
C51_11 C41_11 1_555 1_555
C52_11 C22_11 1_555 1_555
C53_11 O21_11 1_555 1_555
C54_11 O22_11 1_555 1_555
In6_4 O19_7 1_555 1_555
O25_7 In1_7 1_555 1_555
O26_7 In1_7 1_555 1_555
O29_7 In2_7 1_555 1_555
O31_7 In2_7 1_555 1_555
O32_7 In2_7 1_555 1_555
N2_11 C11_11 1_555 1_555
N3_11 C10_11 1_555 1_555
N3_11 C18_11 1_555 1_555
N5_11 C36_11 1_555 1_555
N6_11 C35_11 1_555 1_555
N6_11 C37_11 1_555 1_555
O4_11 C2_11 1_555 1_555
O6_11 C3_11 1_555 1_555
O20_7 In6_4 1_555 1_555
O23_11 C54_11 1_555 1_555
O24_11 C53_11 1_555 1_555
C7_11 C10_11 1_555 1_555
C8_11 C9_11 1_555 1_555
C16_11 C17_11 1_555 1_555
C23_11 C24_11 1_555 1_555
C32_11 C35_11 1_555 1_555
C33_11 C34_11 1_555 1_555
C42_11 C43_11 1_555 1_555
C48_11 C49_11 1_555 1_555
C53_11 C54_11 1_555 1_555
In2_8 O3_12 1_555 1_555
N4_12 H4_12 1_555 1_555
N5_12 H5_12 1_555 1_555
N6_12 H6_12 1_555 1_555
O3_12 C1_12 1_555 1_555
O4_12 In2_8 1_555 1_555
O14_12 C28_12 1_555 1_555
O15_12 C50_12 1_555 1_555
O16_8 C50_12 1_555 1_555
O30_6 C51_12 1_555 1_555
O22_12 In2_8 1_555 1_555
C1_12 C2_12 1_555 1_555
C2_12 O2_12 1_555 1_555
C28_12 O13_12 1_555 1_555
C29_12 C28_12 1_555 1_555
C30_12 C29_12 1_555 1_555
H19_12 C30_12 1_555 1_555
C31_12 C30_12 1_555 1_555
H20_12 C31_12 1_555 1_555
C32_12 C31_12 1_555 1_555
C33_12 C32_12 1_555 1_555
H21_12 C33_12 1_555 1_555
C34_12 C29_12 1_555 1_555
H22_12 C34_12 1_555 1_555
C35_12 N4_12 1_555 1_555
C36_12 N4_12 1_555 1_555
C37_12 N5_12 1_555 1_555
C38_12 C36_12 1_555 1_555
C39_12 C38_12 1_555 1_555
H23_12 C39_12 1_555 1_555
C40_12 C39_12 1_555 1_555
H24_12 C40_12 1_555 1_555
C41_12 C40_12 1_555 1_555
C42_12 C41_12 1_555 1_555
H25_12 C42_12 1_555 1_555
C43_12 C38_12 1_555 1_555
H26_12 C43_12 1_555 1_555
C44_12 C37_12 1_555 1_555
C45_12 C44_12 1_555 1_555
H27_12 C45_12 1_555 1_555
C46_12 C45_12 1_555 1_555
H28_12 C46_12 1_555 1_555
C47_12 C46_12 1_555 1_555
C48_12 C47_12 1_555 1_555
H29_12 C48_12 1_555 1_555
C49_12 C44_12 1_555 1_555
H30_12 C49_12 1_555 1_555
C50_12 C47_12 1_555 1_555
C51_12 C41_12 1_555 1_555
In5_3 O16_8 1_555 1_555
O31_8 In2_8 1_555 1_555
O32_8 In2_8 1_555 1_555
N5_12 C36_12 1_555 1_555
N6_12 C35_12 1_555 1_555
N6_12 C37_12 1_555 1_555
O4_12 C2_12 1_555 1_555
C32_12 C35_12 1_555 1_555
C33_12 C34_12 1_555 1_555
C42_12 C43_12 1_555 1_555
C48_12 C49_12 1_555 1_555
O10_12 In8_5 1_555 1_555
O23_12 In8_5 1_555 1_555
O24_12 In8_5 1_555 1_555
C53_12 O21_12 1_555 1_555
O23_12 C54_12 1_555 1_555
O24_12 C53_12 1_555 1_555
C53_12 C54_12 1_555 1_555
O7_8 C26_12 1_555 1_555
O8_8 C27_12 1_555 1_555
O9_12 C26_12 1_555 1_555
C26_12 C27_12 1_555 1_555
In4_8 O7_8 1_555 1_555
O8_8 In4_8 1_555 1_555
In1_8 O1_12 1_555 1_555
N1_12 H1_12 1_555 1_555
N2_12 H2_12 1_555 1_555
N3_12 H3_12 1_555 1_555
O5_12 In1_8 1_555 1_555
O6_12 In1_8 1_555 1_555
O27_5 C25_12 1_555 1_555
O28_5 C25_12 1_555 1_555
O19_8 C52_12 1_555 1_555
O20_8 C52_12 1_555 1_555
C3_12 O5_12 1_555 1_555
C4_12 C3_12 1_555 1_555
C5_12 C4_12 1_555 1_555
H7_12 C5_12 1_555 1_555
C6_12 C5_12 1_555 1_555
H8_12 C6_12 1_555 1_555
C7_12 C6_12 1_555 1_555
C8_12 C7_12 1_555 1_555
H9_12 C8_12 1_555 1_555
C9_12 C4_12 1_555 1_555
H10_12 C9_12 1_555 1_555
C10_12 N1_12 1_555 1_555
C11_12 N1_12 1_555 1_555
C12_12 C11_12 1_555 1_555
C13_12 C12_12 1_555 1_555
H11_12 C13_12 1_555 1_555
C14_12 C13_12 1_555 1_555
H12_12 C14_12 1_555 1_555
C15_12 C14_12 1_555 1_555
C16_12 C15_12 1_555 1_555
H13_12 C16_12 1_555 1_555
C17_12 C12_12 1_555 1_555
H14_12 C17_12 1_555 1_555
C18_12 N2_12 1_555 1_555
C19_12 C18_12 1_555 1_555
C20_12 C19_12 1_555 1_555
H15_12 C20_12 1_555 1_555
C21_12 C20_12 1_555 1_555
H16_12 C21_12 1_555 1_555
C22_12 C21_12 1_555 1_555
C23_12 C22_12 1_555 1_555
H17_12 C23_12 1_555 1_555
C24_12 C19_12 1_555 1_555
H18_12 C24_12 1_555 1_555
C25_12 C15_12 1_555 1_555
C52_12 C22_12 1_555 1_555
In6_3 O19_8 1_555 1_555
O25_8 In1_8 1_555 1_555
O26_8 In1_8 1_555 1_555
N2_12 C11_12 1_555 1_555
N3_12 C10_12 1_555 1_555
N3_12 C18_12 1_555 1_555
O6_12 C3_12 1_555 1_555
O20_8 In6_3 1_555 1_555
C7_12 C10_12 1_555 1_555
C8_12 C9_12 1_555 1_555
C16_12 C17_12 1_555 1_555
C23_12 C24_12 1_555 1_555
In4_5 O1_13 1_555 1_555
In5_4 O3_13 1_555 1_555
N1_13 H1_13 1_555 1_555
N2_13 H2_13 1_555 1_555
N3_13 H3_13 1_555 1_555
N4_13 H4_13 1_555 1_555
N5_13 H5_13 1_555 1_555
N6_13 H6_13 1_555 1_555
O1_13 C1_13 1_555 1_555
O2_13 In4_5 1_555 1_555
O3_13 C1_13 1_555 1_555
O4_13 In5_4 1_555 1_555
O5_13 In4_5 1_555 1_555
O6_13 In4_5 1_555 1_555
O11_7 C25_13 1_555 1_555
O12_7 C25_13 1_555 1_555
O13_13 In4_5 1_555 1_555
O14_13 C28_13 1_555 1_555
O15_13 C50_13 1_555 1_555
O29_7 C50_13 1_555 1_555
O17_7 C51_13 1_555 1_555
O18_13 C51_13 1_555 1_555
O31_6 C52_13 1_555 1_555
O32_6 C52_13 1_555 1_555
O22_13 In5_4 1_555 1_555
C1_13 C2_13 1_555 1_555
C2_13 O2_13 1_555 1_555
C3_13 O5_13 1_555 1_555
C4_13 C3_13 1_555 1_555
C5_13 C4_13 1_555 1_555
H7_13 C5_13 1_555 1_555
C6_13 C5_13 1_555 1_555
H8_13 C6_13 1_555 1_555
C7_13 C6_13 1_555 1_555
C8_13 C7_13 1_555 1_555
H9_13 C8_13 1_555 1_555
C9_13 C4_13 1_555 1_555
H10_13 C9_13 1_555 1_555
C10_13 N1_13 1_555 1_555
C11_13 N1_13 1_555 1_555
C12_13 C11_13 1_555 1_555
C13_13 C12_13 1_555 1_555
H11_13 C13_13 1_555 1_555
C14_13 C13_13 1_555 1_555
H12_13 C14_13 1_555 1_555
C15_13 C14_13 1_555 1_555
C16_13 C15_13 1_555 1_555
H13_13 C16_13 1_555 1_555
C17_13 C12_13 1_555 1_555
H14_13 C17_13 1_555 1_555
C18_13 N2_13 1_555 1_555
C19_13 C18_13 1_555 1_555
C20_13 C19_13 1_555 1_555
H15_13 C20_13 1_555 1_555
C21_13 C20_13 1_555 1_555
H16_13 C21_13 1_555 1_555
C22_13 C21_13 1_555 1_555
C23_13 C22_13 1_555 1_555
H17_13 C23_13 1_555 1_555
C24_13 C19_13 1_555 1_555
H18_13 C24_13 1_555 1_555
C25_13 C15_13 1_555 1_555
C28_13 O13_13 1_555 1_555
C29_13 C28_13 1_555 1_555
C30_13 C29_13 1_555 1_555
H19_13 C30_13 1_555 1_555
C31_13 C30_13 1_555 1_555
H20_13 C31_13 1_555 1_555
C32_13 C31_13 1_555 1_555
C33_13 C32_13 1_555 1_555
H21_13 C33_13 1_555 1_555
C34_13 C29_13 1_555 1_555
H22_13 C34_13 1_555 1_555
C35_13 N4_13 1_555 1_555
C36_13 N4_13 1_555 1_555
C37_13 N5_13 1_555 1_555
C38_13 C36_13 1_555 1_555
C39_13 C38_13 1_555 1_555
H23_13 C39_13 1_555 1_555
C40_13 C39_13 1_555 1_555
H24_13 C40_13 1_555 1_555
C41_13 C40_13 1_555 1_555
C42_13 C41_13 1_555 1_555
H25_13 C42_13 1_555 1_555
C43_13 C38_13 1_555 1_555
H26_13 C43_13 1_555 1_555
C44_13 C37_13 1_555 1_555
C45_13 C44_13 1_555 1_555
H27_13 C45_13 1_555 1_555
C46_13 C45_13 1_555 1_555
H28_13 C46_13 1_555 1_555
C47_13 C46_13 1_555 1_555
C48_13 C47_13 1_555 1_555
H29_13 C48_13 1_555 1_555
C49_13 C44_13 1_555 1_555
H30_13 C49_13 1_555 1_555
C50_13 C47_13 1_555 1_555
C51_13 C41_13 1_555 1_555
C52_13 C22_13 1_555 1_555
In7_4 O17_7 1_555 1_555
In8_7 O11_7 1_555 1_555
N2_13 C11_13 1_555 1_555
N3_13 C10_13 1_555 1_555
N3_13 C18_13 1_555 1_555
N5_13 C36_13 1_555 1_555
N6_13 C35_13 1_555 1_555
N6_13 C37_13 1_555 1_555
O4_13 C2_13 1_555 1_555
O6_13 C3_13 1_555 1_555
O12_7 In8_7 1_555 1_555
C7_13 C10_13 1_555 1_555
C8_13 C9_13 1_555 1_555
C16_13 C17_13 1_555 1_555
C23_13 C24_13 1_555 1_555
C32_13 C35_13 1_555 1_555
C33_13 C34_13 1_555 1_555
C42_13 C43_13 1_555 1_555
C48_13 C49_13 1_555 1_555
In3_4 O9_13 1_555 1_555
O25_5 C26_13 1_555 1_555
O26_5 C27_13 1_555 1_555
O9_13 C26_13 1_555 1_555
O10_13 In3_4 1_555 1_555
O23_13 In3_4 1_555 1_555
O24_13 In3_4 1_555 1_555
C26_13 C27_13 1_555 1_555
C27_13 O10_13 1_555 1_555
C53_13 O21_13 1_555 1_555
O27_7 In3_4 1_555 1_555
O28_7 In3_4 1_555 1_555
O30_7 In3_4 1_555 1_555
O23_13 C54_13 1_555 1_555
O24_13 C53_13 1_555 1_555
C53_13 C54_13 1_555 1_555
In5_3 O3_14 1_555 1_555
In7_4 O9_14 1_555 1_555
N4_14 H4_14 1_555 1_555
N5_14 H5_14 1_555 1_555
N6_14 H6_14 1_555 1_555
O3_14 C1_14 1_555 1_555
O4_14 In5_3 1_555 1_555
O25_6 C26_14 1_555 1_555
O26_6 C27_14 1_555 1_555
O9_14 C26_14 1_555 1_555
O10_14 In7_4 1_555 1_555
O14_14 C28_14 1_555 1_555
O15_14 C50_14 1_555 1_555
O29_8 C50_14 1_555 1_555
O30_7 C51_14 1_555 1_555
O18_14 C51_14 1_555 1_555
O21_14 In5_3 1_555 1_555
O22_14 In5_3 1_555 1_555
O23_14 In7_4 1_555 1_555
O24_14 In7_4 1_555 1_555
C1_14 C2_14 1_555 1_555
C2_14 O2_14 1_555 1_555
C26_14 C27_14 1_555 1_555
C27_14 O10_14 1_555 1_555
C28_14 O13_14 1_555 1_555
C29_14 C28_14 1_555 1_555
C30_14 C29_14 1_555 1_555
H19_14 C30_14 1_555 1_555
C31_14 C30_14 1_555 1_555
H20_14 C31_14 1_555 1_555
C32_14 C31_14 1_555 1_555
C33_14 C32_14 1_555 1_555
H21_14 C33_14 1_555 1_555
C34_14 C29_14 1_555 1_555
H22_14 C34_14 1_555 1_555
C35_14 N4_14 1_555 1_555
C36_14 N4_14 1_555 1_555
C37_14 N5_14 1_555 1_555
C38_14 C36_14 1_555 1_555
C39_14 C38_14 1_555 1_555
H23_14 C39_14 1_555 1_555
C40_14 C39_14 1_555 1_555
H24_14 C40_14 1_555 1_555
C41_14 C40_14 1_555 1_555
C42_14 C41_14 1_555 1_555
H25_14 C42_14 1_555 1_555
C43_14 C38_14 1_555 1_555
H26_14 C43_14 1_555 1_555
C44_14 C37_14 1_555 1_555
C45_14 C44_14 1_555 1_555
H27_14 C45_14 1_555 1_555
C46_14 C45_14 1_555 1_555
H28_14 C46_14 1_555 1_555
C47_14 C46_14 1_555 1_555
C48_14 C47_14 1_555 1_555
H29_14 C48_14 1_555 1_555
C49_14 C44_14 1_555 1_555
H30_14 C49_14 1_555 1_555
C50_14 C47_14 1_555 1_555
C51_14 C41_14 1_555 1_555
C53_14 O21_14 1_555 1_555
C54_14 O22_14 1_555 1_555
O27_8 In7_4 1_555 1_555
O28_8 In7_4 1_555 1_555
N5_14 C36_14 1_555 1_555
N6_14 C35_14 1_555 1_555
N6_14 C37_14 1_555 1_555
O4_14 C2_14 1_555 1_555
O23_14 C54_14 1_555 1_555
O24_14 C53_14 1_555 1_555
C32_14 C35_14 1_555 1_555
C33_14 C34_14 1_555 1_555
C42_14 C43_14 1_555 1_555
C48_14 C49_14 1_555 1_555
C53_14 C54_14 1_555 1_555
In4_6 O1_14 1_555 1_555
N1_14 H1_14 1_555 1_555
N2_14 H2_14 1_555 1_555
N3_14 H3_14 1_555 1_555
O5_14 In4_6 1_555 1_555
O6_14 In4_6 1_555 1_555
O11_8 C25_14 1_555 1_555
O12_8 C25_14 1_555 1_555
O31_5 C52_14 1_555 1_555
O32_5 C52_14 1_555 1_555
C3_14 O5_14 1_555 1_555
C4_14 C3_14 1_555 1_555
C5_14 C4_14 1_555 1_555
H7_14 C5_14 1_555 1_555
C6_14 C5_14 1_555 1_555
H8_14 C6_14 1_555 1_555
C7_14 C6_14 1_555 1_555
C8_14 C7_14 1_555 1_555
H9_14 C8_14 1_555 1_555
C9_14 C4_14 1_555 1_555
H10_14 C9_14 1_555 1_555
C10_14 N1_14 1_555 1_555
C11_14 N1_14 1_555 1_555
C12_14 C11_14 1_555 1_555
C13_14 C12_14 1_555 1_555
H11_14 C13_14 1_555 1_555
C14_14 C13_14 1_555 1_555
H12_14 C14_14 1_555 1_555
C15_14 C14_14 1_555 1_555
C16_14 C15_14 1_555 1_555
H13_14 C16_14 1_555 1_555
C17_14 C12_14 1_555 1_555
H14_14 C17_14 1_555 1_555
C18_14 N2_14 1_555 1_555
C19_14 C18_14 1_555 1_555
C20_14 C19_14 1_555 1_555
H15_14 C20_14 1_555 1_555
C21_14 C20_14 1_555 1_555
H16_14 C21_14 1_555 1_555
C22_14 C21_14 1_555 1_555
C23_14 C22_14 1_555 1_555
H17_14 C23_14 1_555 1_555
C24_14 C19_14 1_555 1_555
H18_14 C24_14 1_555 1_555
C25_14 C15_14 1_555 1_555
C52_14 C22_14 1_555 1_555
In8_8 O11_8 1_555 1_555
N2_14 C11_14 1_555 1_555
N3_14 C10_14 1_555 1_555
N3_14 C18_14 1_555 1_555
O6_14 C3_14 1_555 1_555
O12_8 In8_8 1_555 1_555
C7_14 C10_14 1_555 1_555
C8_14 C9_14 1_555 1_555
C16_14 C17_14 1_555 1_555
C23_14 C24_14 1_555 1_555
In4_7 O1_15 1_555 1_555
In6_3 O3_15 1_555 1_555
N1_15 H1_15 1_555 1_555
N2_15 H2_15 1_555 1_555
N3_15 H3_15 1_555 1_555
N4_15 H4_15 1_555 1_555
N5_15 H5_15 1_555 1_555
N6_15 H6_15 1_555 1_555
O1_15 C1_15 1_555 1_555
O2_15 In4_7 1_555 1_555
O3_15 C1_15 1_555 1_555
O4_15 In6_3 1_555 1_555
O5_15 In4_7 1_555 1_555
O6_15 In4_7 1_555 1_555
O10_15 In8_8 1_555 1_555
O27_8 C25_15 1_555 1_555
O28_8 C25_15 1_555 1_555
O13_15 In4_7 1_555 1_555
O14_15 C28_15 1_555 1_555
O15_15 C50_15 1_555 1_555
O29_5 C50_15 1_555 1_555
O17_8 C51_15 1_555 1_555
O31_8 C52_15 1_555 1_555
O32_8 C52_15 1_555 1_555
O21_15 In6_3 1_555 1_555
O22_15 In6_3 1_555 1_555
O23_15 In8_8 1_555 1_555
O24_15 In8_8 1_555 1_555
C1_15 C2_15 1_555 1_555
C2_15 O2_15 1_555 1_555
C3_15 O5_15 1_555 1_555
C4_15 C3_15 1_555 1_555
C5_15 C4_15 1_555 1_555
H7_15 C5_15 1_555 1_555
C6_15 C5_15 1_555 1_555
H8_15 C6_15 1_555 1_555
C7_15 C6_15 1_555 1_555
C8_15 C7_15 1_555 1_555
H9_15 C8_15 1_555 1_555
C9_15 C4_15 1_555 1_555
H10_15 C9_15 1_555 1_555
C10_15 N1_15 1_555 1_555
C11_15 N1_15 1_555 1_555
C12_15 C11_15 1_555 1_555
C13_15 C12_15 1_555 1_555
H11_15 C13_15 1_555 1_555
C14_15 C13_15 1_555 1_555
H12_15 C14_15 1_555 1_555
C15_15 C14_15 1_555 1_555
C16_15 C15_15 1_555 1_555
H13_15 C16_15 1_555 1_555
C17_15 C12_15 1_555 1_555
H14_15 C17_15 1_555 1_555
C18_15 N2_15 1_555 1_555
C19_15 C18_15 1_555 1_555
C20_15 C19_15 1_555 1_555
H15_15 C20_15 1_555 1_555
C21_15 C20_15 1_555 1_555
H16_15 C21_15 1_555 1_555
C22_15 C21_15 1_555 1_555
C23_15 C22_15 1_555 1_555
H17_15 C23_15 1_555 1_555
C24_15 C19_15 1_555 1_555
H18_15 C24_15 1_555 1_555
C25_15 C15_15 1_555 1_555
C28_15 O13_15 1_555 1_555
C29_15 C28_15 1_555 1_555
C30_15 C29_15 1_555 1_555
H19_15 C30_15 1_555 1_555
C31_15 C30_15 1_555 1_555
H20_15 C31_15 1_555 1_555
C32_15 C31_15 1_555 1_555
C33_15 C32_15 1_555 1_555
H21_15 C33_15 1_555 1_555
C34_15 C29_15 1_555 1_555
H22_15 C34_15 1_555 1_555
C35_15 N4_15 1_555 1_555
C36_15 N4_15 1_555 1_555
C37_15 N5_15 1_555 1_555
C38_15 C36_15 1_555 1_555
C39_15 C38_15 1_555 1_555
H23_15 C39_15 1_555 1_555
C40_15 C39_15 1_555 1_555
H24_15 C40_15 1_555 1_555
C41_15 C40_15 1_555 1_555
C42_15 C41_15 1_555 1_555
H25_15 C42_15 1_555 1_555
C43_15 C38_15 1_555 1_555
H26_15 C43_15 1_555 1_555
C44_15 C37_15 1_555 1_555
C45_15 C44_15 1_555 1_555
H27_15 C45_15 1_555 1_555
C46_15 C45_15 1_555 1_555
H28_15 C46_15 1_555 1_555
C47_15 C46_15 1_555 1_555
C48_15 C47_15 1_555 1_555
H29_15 C48_15 1_555 1_555
C49_15 C44_15 1_555 1_555
H30_15 C49_15 1_555 1_555
C50_15 C47_15 1_555 1_555
C51_15 C41_15 1_555 1_555
C52_15 C22_15 1_555 1_555
C53_15 O21_15 1_555 1_555
C54_15 O22_15 1_555 1_555
N2_15 C11_15 1_555 1_555
N3_15 C10_15 1_555 1_555
N3_15 C18_15 1_555 1_555
N5_15 C36_15 1_555 1_555
N6_15 C35_15 1_555 1_555
N6_15 C37_15 1_555 1_555
O4_15 C2_15 1_555 1_555
O6_15 C3_15 1_555 1_555
O23_15 C54_15 1_555 1_555
O24_15 C53_15 1_555 1_555
C7_15 C10_15 1_555 1_555
C8_15 C9_15 1_555 1_555
C16_15 C17_15 1_555 1_555
C23_15 C24_15 1_555 1_555
C32_15 C35_15 1_555 1_555
C33_15 C34_15 1_555 1_555
C42_15 C43_15 1_555 1_555
C48_15 C49_15 1_555 1_555
C53_15 C54_15 1_555 1_555
O25_7 C26_15 1_555 1_555
O26_7 C27_15 1_555 1_555
O9_15 C26_15 1_555 1_555
C26_15 C27_15 1_555 1_555
In4_8 O1_16 1_555 1_555
N1_16 H1_16 1_555 1_555
N2_16 H2_16 1_555 1_555
N3_16 H3_16 1_555 1_555
O5_16 In4_8 1_555 1_555
O6_16 In4_8 1_555 1_555
O27_7 C25_16 1_555 1_555
O28_7 C25_16 1_555 1_555
O31_7 C52_16 1_555 1_555
O32_7 C52_16 1_555 1_555
C3_16 O5_16 1_555 1_555
C4_16 C3_16 1_555 1_555
C5_16 C4_16 1_555 1_555
H7_16 C5_16 1_555 1_555
C6_16 C5_16 1_555 1_555
H8_16 C6_16 1_555 1_555
C7_16 C6_16 1_555 1_555
C8_16 C7_16 1_555 1_555
H9_16 C8_16 1_555 1_555
C9_16 C4_16 1_555 1_555
H10_16 C9_16 1_555 1_555
C10_16 N1_16 1_555 1_555
C11_16 N1_16 1_555 1_555
C12_16 C11_16 1_555 1_555
C13_16 C12_16 1_555 1_555
H11_16 C13_16 1_555 1_555
C14_16 C13_16 1_555 1_555
H12_16 C14_16 1_555 1_555
C15_16 C14_16 1_555 1_555
C16_16 C15_16 1_555 1_555
H13_16 C16_16 1_555 1_555
C17_16 C12_16 1_555 1_555
H14_16 C17_16 1_555 1_555
C18_16 N2_16 1_555 1_555
C19_16 C18_16 1_555 1_555
C20_16 C19_16 1_555 1_555
H15_16 C20_16 1_555 1_555
C21_16 C20_16 1_555 1_555
H16_16 C21_16 1_555 1_555
C22_16 C21_16 1_555 1_555
C23_16 C22_16 1_555 1_555
H17_16 C23_16 1_555 1_555
C24_16 C19_16 1_555 1_555
H18_16 C24_16 1_555 1_555
C25_16 C15_16 1_555 1_555
C52_16 C22_16 1_555 1_555
N2_16 C11_16 1_555 1_555
N3_16 C10_16 1_555 1_555
N3_16 C18_16 1_555 1_555
O6_16 C3_16 1_555 1_555
C7_16 C10_16 1_555 1_555
C8_16 C9_16 1_555 1_555
C16_16 C17_16 1_555 1_555
C23_16 C24_16 1_555 1_555
O25_8 C26_16 1_555 1_555
O26_8 C27_16 1_555 1_555
O9_16 C26_16 1_555 1_555
C26_16 C27_16 1_555 1_555
O10_16 In8_7 1_555 1_555
O23_16 In8_7 1_555 1_555
O24_16 In8_7 1_555 1_555
C53_16 O21_16 1_555 1_555
O23_16 C54_16 1_555 1_555
O24_16 C53_16 1_555 1_555
C53_16 C54_16 1_555 1_555
In6_4 O3_16 1_555 1_555
N4_16 H4_16 1_555 1_555
N5_16 H5_16 1_555 1_555
N6_16 H6_16 1_555 1_555
O3_16 C1_16 1_555 1_555
O4_16 In6_4 1_555 1_555
O14_16 C28_16 1_555 1_555
O15_16 C50_16 1_555 1_555
O29_6 C50_16 1_555 1_555
O30_8 C51_16 1_555 1_555
O22_16 In6_4 1_555 1_555
C1_16 C2_16 1_555 1_555
C2_16 O2_16 1_555 1_555
C28_16 O13_16 1_555 1_555
C29_16 C28_16 1_555 1_555
C30_16 C29_16 1_555 1_555
H19_16 C30_16 1_555 1_555
C31_16 C30_16 1_555 1_555
H20_16 C31_16 1_555 1_555
C32_16 C31_16 1_555 1_555
C33_16 C32_16 1_555 1_555
H21_16 C33_16 1_555 1_555
C34_16 C29_16 1_555 1_555
H22_16 C34_16 1_555 1_555
C35_16 N4_16 1_555 1_555
C36_16 N4_16 1_555 1_555
C37_16 N5_16 1_555 1_555
C38_16 C36_16 1_555 1_555
C39_16 C38_16 1_555 1_555
H23_16 C39_16 1_555 1_555
C40_16 C39_16 1_555 1_555
H24_16 C40_16 1_555 1_555
C41_16 C40_16 1_555 1_555
C42_16 C41_16 1_555 1_555
H25_16 C42_16 1_555 1_555
C43_16 C38_16 1_555 1_555
H26_16 C43_16 1_555 1_555
C44_16 C37_16 1_555 1_555
C45_16 C44_16 1_555 1_555
H27_16 C45_16 1_555 1_555
C46_16 C45_16 1_555 1_555
H28_16 C46_16 1_555 1_555
C47_16 C46_16 1_555 1_555
C48_16 C47_16 1_555 1_555
H29_16 C48_16 1_555 1_555
C49_16 C44_16 1_555 1_555
H30_16 C49_16 1_555 1_555
C50_16 C47_16 1_555 1_555
C51_16 C41_16 1_555 1_555
N5_16 C36_16 1_555 1_555
N6_16 C35_16 1_555 1_555
N6_16 C37_16 1_555 1_555
O4_16 C2_16 1_555 1_555
C32_16 C35_16 1_555 1_555
C33_16 C34_16 1_555 1_555
C42_16 C43_16 1_555 1_555
C48_16 C49_16 1_555 1_555

#END
