
###############################################################################
#
# This file contains modified crystal structure data generated from the
# MOF subset of the Cambridge Structural Database (CSD) v543 
# hosted by the Cambridge Crystallographic Data Centre (CCDC).
#
# This work is licensed under the Creative Commons
# Attribution-NonCommercial-ShareAlike 4.0 International License.
# To view a copy of this license, visit
# http://creativecommons.org/licenses/by-nc-sa/4.0/
# or send a letter to
# Creative Commons, PO Box 1866, Mountain View, CA 94042, USA.
#
# CIF created using the CSD Python API on 29 September 2022
# The structure has been converted into the P1 space group
# The structure has a 3D framework
# The original CSD entry KUNSUJ is in the rhombohedral crystal system
# The framework has been calculated to contain at least 10.0% void space
# The void calculation uses a probe of radius 1.32A, grid spacing 0.4
# H atom positions have been added when not included in the experimental data
#
###############################################################################

data_KUNSUJ
_chemical_formula_moiety         '(C1134 H702 Eu18 In18 O284)n'
_symmetry_cell_setting           triclinic
_symmetry_space_group_name_H-M   'P 1'
_symmetry_Int_Tables_number      1
_space_group_name_Hall           'P 1'
loop_
_symmetry_equiv_pos_site_id
_symmetry_equiv_pos_as_xyz
1 x,y,z
_cell_length_a                   41.604(6)
_cell_length_b                   41.604(6)
_cell_length_c                   40.246(5)
_cell_angle_alpha                90
_cell_angle_beta                 90
_cell_angle_gamma                120
_cell_volume                     60328.6
loop_
_atom_site_label
_atom_site_type_symbol
_atom_site_fract_x
_atom_site_fract_y
_atom_site_fract_z
O23 O 0.07578(28) 0.70074(34) 0.11118(18)
O24 O 0.09086(26) 0.66313(32) 0.08900(17)
C97 C 0.0088(4) 0.6685(5) 0.0843(3)
H54 H 0.0146 0.6881 0.0988
C98 C 0.0333(4) 0.6560(5) 0.0774(3)
C99 C 0.0253(4) 0.6292(5) 0.0577(3)
H55 H 0.0420 0.6207 0.0548
C101 C 0.0689(4) 0.6744(5) 0.0946(3)
Eu6 Eu 0.130852(27) 0.70632(2) 0.121705(19)
O29 O 0.1106(5) 0.4454(6) 0.5179(3)
O30 O 0.0706(6) 0.4603(7) 0.5078(5)
O31 O 0.0113(3) 0.2600(5) 0.7844(4)
H62 H 0.0050 0.4520 0.7614
C116 C 0.0059(3) 0.4337(4) 0.6987(3)
C117 C 0.0022(4) 0.4017(6) 0.7157(4)
C118 C 0.0156(4) 0.3833(6) 0.6997(4)
C119 C 0.0292(4) 0.3914(6) 0.6712(4)
H66 H 0.0366 0.3760 0.6613
C120 C 0.0340(4) 0.4213(6) 0.6537(4)
C121 C 0.0208(4) 0.4433(6) 0.6684(4)
H67 H 0.0225 0.4638 0.6574
C122 C 0.0500(5) 0.4307(7) 0.6221(5)
C123 C 0.0729(5) 0.4220(7) 0.6111(5)
H68 H 0.0805 0.4091 0.6250
C124 C 0.0866(4) 0.4301(6) 0.5804(4)
H69 H 0.1060 0.4261 0.5748
C125 C 0.0744(5) 0.4431(7) 0.5589(5)
C126 C 0.0473(5) 0.4502(8) 0.5687(5)
H70 H 0.0375 0.4605 0.5542
C127 C 0.0356(5) 0.4419(7) 0.6000(5)
H71 H 0.0154 0.4443 0.6063
C128 C 0.0865(6) 0.4495(8) 0.5275(5)
C129 C 0.0224(4) 0.3512(6) 0.7465(4)
H72 H 0.0321 0.3734 0.7582
C130 C 0.0130(3) 0.3498(4) 0.7133(4)
C133 C 0.0047(3) 0.2865(4) 0.7439(4)
C134 C 0.0172(4) 0.3184(6) 0.7625(3)
H75 H 0.0221 0.3185 0.7850
In6 In 0.11020(6) 0.47245(4) 0.46994(3)
In8 In 0.02892(4) 0.22314(6) 0.80328(3)
In1 In 0.86088(4) 0.30441(4) 0.13661(3)
O9 O 0.8411(3) 0.2552(3) 0.1180(2)
O10 O 0.8248(3) 0.2836(3) 0.0887(3)
O15 O 0.8130(4) 0.3040(4) 0.1570(4)
O16 O 0.8664(4) 0.3546(3) 0.1232(4)
C19 C 0.7165(3) 0.1300(3) 0.0276(3)
C20 C 0.6989(3) 0.0994(4) 0.0439(3)
H11 H 0.7047 0.0996 0.0663
C21 C 0.6722(3) 0.0669(4) 0.0303(3)
C23 C 0.6562(3) 0.0325(4) 0.0475(3)
C24 C 0.6742(3) 0.0238(4) 0.0684(3)
H13 H 0.6988 0.0414 0.0728
C28 C 0.6196(3) 0.0063(4) 0.0413(3)
H16 H 0.6062 0.0111 0.0255
C30 C 0.7419(3) 0.1616(3) 0.0425(3)
C31 C 0.7491(3) 0.1966(3) 0.0321(3)
H17 H 0.7384 0.1993 0.0127
C32 C 0.7728(3) 0.2279(3) 0.0514(3)
H18 H 0.7744 0.2506 0.0471
C33 C 0.7937(3) 0.2252(3) 0.0766(3)
C34 C 0.7887(4) 0.1903(3) 0.0855(3)
H19 H 0.8018 0.1880 0.1033
C35 C 0.7640(4) 0.1590(3) 0.0673(3)
H20 H 0.7622 0.1362 0.0717
C36 C 0.8223(4) 0.2573(5) 0.0962(4)
In2 In 0.69559(4) 0.55647(6) 0.13661(3)
O27 O 0.7448(3) 0.5859(4) 0.1180(2)
O28 O 0.7164(3) 0.5412(4) 0.0887(3)
O33 O 0.6960(4) 0.5090(6) 0.1570(4)
O34 O 0.6454(3) 0.5118(5) 0.1232(4)
C91 C 0.8700(3) 0.5865(4) 0.0276(3)
C92 C 0.9006(4) 0.5995(5) 0.0439(3)
H51 H 0.9004 0.6051 0.0663
C93 C 0.9331(4) 0.6053(5) 0.0303(3)
C95 C 0.9675(4) 0.6237(5) 0.0475(3)
C96 C 0.9762(4) 0.6504(5) 0.0684(3)
H53 H 0.9586 0.6574 0.0728
C100 C 0.9937(4) 0.6133(5) 0.0413(3)
H56 H 0.9889 0.5951 0.0255
C102 C 0.8384(3) 0.5803(4) 0.0425(3)
C103 C 0.8034(3) 0.5525(4) 0.0321(3)
H57 H 0.8007 0.5391 0.0127
C104 C 0.7721(3) 0.5449(4) 0.0514(3)
H58 H 0.7494 0.5238 0.0471
C105 C 0.7748(3) 0.5685(4) 0.0766(3)
C106 C 0.8097(3) 0.5984(5) 0.0855(3)
H59 H 0.8120 0.6138 0.1033
C107 C 0.8410(3) 0.6050(5) 0.0673(3)
H60 H 0.8638 0.6260 0.0717
C108 C 0.7427(5) 0.5650(6) 0.0962(4)
In3 In 0.44353(6) 0.13912(4) 0.13661(3)
O37 O 0.29926(34) 0.37504(19) 0.11118(18)
O38 O 0.33687(32) 0.42773(18) 0.08900(17)
O41 O 0.4141(4) 0.1589(3) 0.1180(2)
O42 O 0.4588(4) 0.1752(3) 0.0887(3)
O47 O 0.4910(6) 0.1870(4) 0.1570(4)
O48 O 0.4882(5) 0.1336(4) 0.1232(4)
C145 C 0.4135(4) 0.2835(3) 0.0276(3)
C146 C 0.4005(5) 0.3011(3) 0.0439(3)
H81 H 0.3949 0.2953 0.0663
C147 C 0.3947(5) 0.3278(3) 0.0303(3)
C149 C 0.3763(5) 0.3438(3) 0.0475(3)
C150 C 0.3496(5) 0.3258(3) 0.0684(3)
H83 H 0.3426 0.3012 0.0728
C151 C 0.3315(5) 0.3403(3) 0.0843(3)
H84 H 0.3119 0.3265 0.0988
C152 C 0.3440(5) 0.3773(3) 0.0774(3)
C153 C 0.3708(5) 0.3961(3) 0.0577(3)
H85 H 0.3793 0.4213 0.0548
C154 C 0.3867(5) 0.3804(3) 0.0413(3)
H86 H 0.4049 0.3938 0.0255
C155 C 0.3256(5) 0.3945(3) 0.0946(3)
C156 C 0.4197(4) 0.2581(3) 0.0425(3)
C157 C 0.4475(4) 0.2509(3) 0.0321(3)
H87 H 0.4609 0.2616 0.0127
C158 C 0.4551(4) 0.2272(3) 0.0514(3)
H88 H 0.4762 0.2256 0.0471
C159 C 0.4315(4) 0.2063(3) 0.0766(3)
C160 C 0.4016(5) 0.2113(4) 0.0855(3)
H89 H 0.3862 0.1982 0.1033
C161 C 0.3950(5) 0.2360(4) 0.0673(3)
H90 H 0.3740 0.2378 0.0717
C162 C 0.4350(6) 0.1777(4) 0.0962(4)
Eu4 Eu 0.29368(2) 0.424528(18) 0.121705(19)
O55 O 0.6681(4) 0.5561(5) 0.1846(3)
O56 O 0.4439(5) 0.1121(6) 0.1846(3)
O57 O 0.8879(6) 0.3319(4) 0.1846(3)
O58 O 0.7230(4) 0.5961(6) 0.1745(5)
O59 O 0.4039(6) 0.1270(7) 0.1745(5)
O60 O 0.8730(7) 0.2770(4) 0.1745(5)
O61 O 0.9154(4) 0.3220(3) 0.1177(4)
O62 O 0.6780(3) 0.5933(5) 0.1177(4)
O63 O 0.4067(5) 0.0846(4) 0.1177(4)
H106 H 0.801536 0.284295 0.174169
H107 H 0.820574 0.328489 0.167238
H108 H 0.841475 0.351511 0.119084
H109 H 0.878835 0.37283 0.141383
H110 H 0.715705 0.517241 0.174169
H111 H 0.671511 0.492085 0.167238
H112 H 0.648489 0.489964 0.119084
H113 H 0.62717 0.506005 0.141383
H114 H 0.510036 0.158525 0.119084
H115 H 0.493995 0.121165 0.141383
H116 H 0.482759 0.198464 0.174169
H117 H 0.507915 0.179426 0.167238
Eu1 Eu 0.62701(2) 0.091195(18) 0.788372(19)
O1 O 0.65686(17) 0.14908(15) 0.77182(16)
O2 O 0.61173(19) 0.13110(17) 0.80662(17)
O3 O 0.61558(19) 0.07164(19) 0.83896(16)
O4 O 0.6704(2) 0.11149(18) 0.82791(19)
O7 O 0.5938(2) 0.08110(18) 0.74241(17)
O8 O 0.5683(2) 0.05378(18) 0.7878(2)
O14 O 0.2436(4) 0.0144(3) 0.7403(3)
C1 C 0.6371(3) 0.1556(3) 0.7903(3)
C2 C 0.6437(2) 0.19229(19) 0.7915(2)
C3 C 0.6209(2) 0.2004(2) 0.8096(2)
H1 H 0.6013 0.1822 0.8219
C4 C 0.6277(2) 0.2363(2) 0.8092(2)
H2 H 0.6129 0.2423 0.8221
C5 C 0.6552(2) 0.2634(2) 0.7907(2)
C6 C 0.6777(2) 0.2540(2) 0.7728(2)
H3 H 0.6973 0.2721 0.7604
C7 C 0.6718(2) 0.2189(2) 0.7731(2)
H4 H 0.6869 0.2129 0.7607
C8 C 0.6604(2) 0.2983(2) 0.7905(2)
C9 C 0.6335(2) 0.3048(2) 0.7909(2)
H5 H 0.6095 0.2846 0.7916
C10 C 0.6455(3) 0.0908(3) 0.8483(3)
C11 C 0.6571(3) 0.0946(3) 0.8805(2)
C12 C 0.6923(2) 0.1178(3) 0.8909(2)
H6 H 0.7109 0.1319 0.8757
C13 C 0.7005(2) 0.1203(3) 0.9256(2)
H7 H 0.7245 0.1359 0.9330
C14 C 0.6735(3) 0.1001(3) 0.9474(2)
C15 C 0.6367(3) 0.0772(3) 0.9371(2)
H8 H 0.6181 0.0638 0.9525
C16 C 0.6285(2) 0.0749(3) 0.9034(2)
H9 H 0.6041 0.0604 0.8961
C17 C 0.6817(3) 0.1003(3) 0.9813(3)
C18 C 0.7046(3) 0.1303(3) 0.9968(3)
H10 H 0.7130 0.1529 0.9861
C22 C 0.6639(3) 0.0682(3) 0.9979(3)
H12 H 0.6459 0.0469 0.9873
C37 C 0.5659(3) 0.0604(3) 0.7591(4)
C38 C 0.5307(3) 0.0427(3) 0.7439(3)
C39 C 0.4993(4) 0.0227(4) 0.7608(4)
H21 H 0.5009 0.0197 0.7835
C40 C 0.4677(4) 0.0078(4) 0.7478(3)
C41 C 0.4628(4) 0.0098(4) 0.7146(4)
C42 C 0.4939(4) 0.0314(4) 0.6963(4)
H23 H 0.4918 0.0355 0.6738
C43 C 0.5274(4) 0.0469(3) 0.7108(3)
H24 H 0.5486 0.0606 0.6980
H25 H 0.4034 0.0089 0.7366
C59 C 0.3181(4) 0.0007(4) 0.6948(3)
H33 H 0.3246 0.0079 0.6728
C60 C 0.2886(4) 0.0033(4) 0.7103(4)
H34 H 0.2742 0.0102 0.6980
C63 C 0.2563(4) 0.0003(4) 0.7591(5)
O17 O 0.85092(15) 0.50778(23) 0.77182(16)
O18 O 0.86890(17) 0.48063(25) 0.80662(17)
C64 C 0.8444(3) 0.4815(4) 0.7903(3)
C65 C 0.80771(19) 0.45141(28) 0.7915(2)
C66 C 0.7996(2) 0.4205(3) 0.8096(2)
H36 H 0.8178 0.4191 0.8219
C67 C 0.7637(2) 0.3914(3) 0.8092(2)
H37 H 0.7577 0.3706 0.8221
C68 C 0.7366(2) 0.3918(3) 0.7907(2)
C69 C 0.7460(2) 0.4237(3) 0.7728(2)
H38 H 0.7279 0.4252 0.7604
C70 C 0.7811(2) 0.4529(3) 0.7731(2)
H39 H 0.7871 0.4740 0.7607
C71 C 0.7017(2) 0.3621(3) 0.7905(2)
C72 C 0.6952(2) 0.3287(3) 0.7909(2)
H40 H 0.7154 0.3249 0.7916
O19 O 0.49222(23) 0.34314(17) 0.77182(16)
O20 O 0.51937(25) 0.38827(19) 0.80662(17)
C73 C 0.5185(4) 0.3629(3) 0.7903(3)
C74 C 0.54859(28) 0.3563(2) 0.7915(2)
C75 C 0.5795(3) 0.3791(2) 0.8096(2)
H41 H 0.5809 0.3987 0.8219
C76 C 0.6086(3) 0.3723(2) 0.8092(2)
H42 H 0.6294 0.3871 0.8221
C77 C 0.6082(3) 0.3448(2) 0.7907(2)
C78 C 0.5763(3) 0.3223(2) 0.7728(2)
H43 H 0.5748 0.3027 0.7604
C79 C 0.5471(3) 0.3282(2) 0.7731(2)
H44 H 0.5260 0.3131 0.7607
C80 C 0.6379(3) 0.3396(2) 0.7905(2)
C81 C 0.6713(3) 0.3665(2) 0.7909(2)
H45 H 0.6751 0.3905 0.7916
Eu2 Eu 0.908805(18) 0.535815(27) 0.788372(19)
O21 O 0.92836(19) 0.54394(27) 0.83896(16)
O22 O 0.88851(18) 0.55891(27) 0.82791(19)
O25 O 0.91890(18) 0.51270(27) 0.74241(17)
O26 O 0.94622(18) 0.51452(27) 0.7878(2)
O32 O 0.9856(3) 0.2292(5) 0.7403(3)
C82 C 0.9092(3) 0.5547(4) 0.8483(3)
C83 C 0.9054(3) 0.5625(4) 0.8805(2)
C84 C 0.8822(3) 0.5745(4) 0.8909(2)
H46 H 0.8681 0.5790 0.8757
C85 C 0.8797(3) 0.5802(4) 0.9256(2)
H47 H 0.8641 0.5886 0.9330
C86 C 0.8999(3) 0.5734(4) 0.9474(2)
C87 C 0.9228(3) 0.5595(4) 0.9371(2)
H48 H 0.9362 0.5543 0.9525
C88 C 0.9251(3) 0.5536(4) 0.9034(2)
H49 H 0.9396 0.5437 0.8961
C89 C 0.8997(3) 0.5814(4) 0.9813(3)
C90 C 0.8697(3) 0.5743(4) 0.9968(3)
H50 H 0.8471 0.5601 0.9861
C94 C 0.9318(3) 0.5957(4) 0.9979(3)
H52 H 0.9531 0.5990 0.9873
C109 C 0.9396(3) 0.5055(4) 0.7591(4)
C110 C 0.9573(3) 0.4880(4) 0.7439(3)
C111 C 0.9773(4) 0.4766(6) 0.7608(4)
H61 H 0.9803 0.4812 0.7835
C112 C 0.9922(4) 0.4599(6) 0.7478(3)
C113 C 0.9902(4) 0.4530(6) 0.7146(4)
C114 C 0.9686(4) 0.4625(6) 0.6963(4)
H63 H 0.9645 0.4563 0.6738
C115 C 0.9531(3) 0.4805(5) 0.7108(3)
H64 H 0.9394 0.4880 0.6980
H65 H 0.9911 0.3945 0.7366
C131 C 0.9993(4) 0.3174(6) 0.6948(3)
H73 H 0.9921 0.3167 0.6728
C132 C 0.9967(4) 0.2853(6) 0.7103(4)
H74 H 0.9898 0.2640 0.6980
C135 C 0.9997(4) 0.2560(6) 0.7591(5)
Eu3 Eu 0.464185(27) 0.37299(2) 0.788372(19)
O35 O 0.45606(27) 0.38442(19) 0.83896(16)
O36 O 0.44109(27) 0.3296(2) 0.82791(19)
O39 O 0.48730(27) 0.4062(2) 0.74241(17)
O40 O 0.48548(27) 0.4317(2) 0.7878(2)
O43 O 0.5546(6) 0.6652(4) 0.5179(3)
O44 O 0.5397(7) 0.6103(4) 0.5078(5)
O45 O 0.7400(5) 0.7513(4) 0.7844(4)
O46 O 0.7708(5) 0.7564(4) 0.7403(3)
C136 C 0.4453(4) 0.3545(3) 0.8483(3)
C137 C 0.4375(4) 0.3429(3) 0.8805(2)
C138 C 0.4255(4) 0.3077(2) 0.8909(2)
H76 H 0.4210 0.2891 0.8757
C139 C 0.4198(4) 0.2995(2) 0.9256(2)
H77 H 0.4114 0.2755 0.9330
C140 C 0.4266(4) 0.3265(3) 0.9474(2)
C141 C 0.4405(4) 0.3633(3) 0.9371(2)
H78 H 0.4457 0.3819 0.9525
C142 C 0.4464(4) 0.3715(2) 0.9034(2)
H79 H 0.4563 0.3959 0.8961
C143 C 0.4186(4) 0.3183(3) 0.9813(3)
C144 C 0.4257(4) 0.2954(3) 0.9968(3)
H80 H 0.4399 0.2870 0.9861
C148 C 0.4043(4) 0.3361(3) 0.9979(3)
H82 H 0.4010 0.3541 0.9873
C163 C 0.4945(4) 0.4341(3) 0.7591(4)
C164 C 0.5120(4) 0.4693(3) 0.7439(3)
C165 C 0.5234(6) 0.5007(4) 0.7608(4)
H91 H 0.5188 0.4991 0.7835
C166 C 0.5401(6) 0.5323(4) 0.7478(3)
H92 H 0.5480 0.5530 0.7614
C167 C 0.5470(6) 0.5372(4) 0.7146(4)
C168 C 0.5375(6) 0.5061(4) 0.6963(4)
H93 H 0.5437 0.5082 0.6738
C169 C 0.5195(5) 0.4726(4) 0.7108(3)
H94 H 0.5120 0.4514 0.6980
C170 C 0.5663(4) 0.5722(3) 0.6987(3)
C171 C 0.5983(6) 0.6005(4) 0.7157(4)
H95 H 0.6055 0.5966 0.7366
C172 C 0.6167(6) 0.6323(5) 0.6997(4)
C173 C 0.6086(6) 0.6378(4) 0.6712(4)
H96 H 0.6240 0.6606 0.6613
C174 C 0.5787(6) 0.6127(5) 0.6537(4)
C175 C 0.5567(6) 0.5775(5) 0.6684(4)
H97 H 0.5362 0.5587 0.6574
C176 C 0.5693(7) 0.6193(5) 0.6221(5)
C177 C 0.5780(7) 0.6509(5) 0.6111(5)
H98 H 0.5909 0.6714 0.6250
C178 C 0.5699(6) 0.6565(5) 0.5804(4)
H99 H 0.5739 0.6799 0.5748
C179 C 0.5569(7) 0.6313(5) 0.5589(5)
C180 C 0.5498(8) 0.5971(6) 0.5687(5)
H100 H 0.5395 0.5770 0.5542
C181 C 0.5581(7) 0.5937(5) 0.6000(5)
H101 H 0.5557 0.5711 0.6063
C182 C 0.5505(8) 0.6370(6) 0.5275(5)
C183 C 0.6488(6) 0.6712(4) 0.7465(4)
H102 H 0.6266 0.6587 0.7582
C184 C 0.6502(4) 0.6632(3) 0.7133(4)
C185 C 0.6826(6) 0.6819(4) 0.6948(3)
H103 H 0.6833 0.6754 0.6728
C186 C 0.7147(6) 0.7114(4) 0.7103(4)
H104 H 0.7360 0.7258 0.6980
C187 C 0.7135(4) 0.7182(3) 0.7439(4)
C188 C 0.6816(6) 0.6988(4) 0.7625(3)
H105 H 0.6815 0.7036 0.7850
C189 C 0.7440(6) 0.7437(4) 0.7591(5)
In4 In 0.52755(4) 0.63774(4) 0.46994(3)
In9 In 0.77686(6) 0.80579(4) 0.80328(3)
O49 O 0.95829(19) 0.59089(28) 0.77785(18)
O50 O 0.40911(28) 0.36741(34) 0.77785(18)
O51 O 0.63259(34) 0.04171(19) 0.77785(18)
O52 O 0.90560(18) 0.57581(26) 0.75567(17)
O53 O 0.42419(26) 0.32980(32) 0.75567(17)
O54 O 0.67020(32) 0.09440(18) 0.75567(17)
O5 O 0.62496(19) 0.92422(28) 0.11118(18)
O6 O 0.57227(18) 0.90914(26) 0.08900(17)
C25 C 0.6597(3) 0.9912(4) 0.0843(3)
H14 H 0.6735 0.9854 0.0988
C26 C 0.6227(3) 0.9667(4) 0.0774(3)
C27 C 0.6039(3) 0.9747(4) 0.0577(3)
H15 H 0.5787 0.9580 0.0548
C29 C 0.6055(3) 0.9311(4) 0.0946(3)
Eu5 Eu 0.575472(18) 0.869148(27) 0.121705(19)
O11 O 0.3348(4) 0.8894(5) 0.5179(3)
O12 O 0.3897(4) 0.9294(6) 0.5078(5)
O13 O 0.2487(4) 0.9887(3) 0.7844(4)
H22 H 0.4470 0.9950 0.7614
C44 C 0.4278(3) 0.9941(3) 0.6987(3)
C45 C 0.3995(4) 0.9978(4) 0.7157(4)
C46 C 0.3677(5) 0.9844(4) 0.6997(4)
C47 C 0.3622(4) 0.9708(4) 0.6712(4)
H26 H 0.3394 0.9634 0.6613
C48 C 0.3873(5) 0.9660(4) 0.6537(4)
C49 C 0.4225(5) 0.9792(4) 0.6684(4)
H27 H 0.4413 0.9775 0.6574
C50 C 0.3807(5) 0.9500(5) 0.6221(5)
C51 C 0.3491(5) 0.9271(5) 0.6111(5)
H28 H 0.3286 0.9195 0.6250
C52 C 0.3435(5) 0.9134(4) 0.5804(4)
H29 H 0.3201 0.8940 0.5748
C53 C 0.3687(5) 0.9256(5) 0.5589(5)
C54 C 0.4029(6) 0.9527(5) 0.5687(5)
H30 H 0.4230 0.9625 0.5542
C55 C 0.4063(5) 0.9644(5) 0.6000(5)
H31 H 0.4289 0.9846 0.6063
C56 C 0.3630(6) 0.9135(6) 0.5275(5)
C57 C 0.3288(4) 0.9776(4) 0.7465(4)
H32 H 0.3413 0.9679 0.7582
C58 C 0.3368(3) 0.9870(3) 0.7133(4)
C61 C 0.2818(3) 0.9953(3) 0.7439(4)
C62 C 0.3012(4) 0.9828(4) 0.7625(3)
H35 H 0.2964 0.9779 0.7850
In5 In 0.36226(4) 0.88980(6) 0.46994(3)
In7 In 0.19421(4) 0.97108(4) 0.80328(3)
O23_2 O 0.74245(28) 0.03407(34) 0.44451(18)
C97_2 C 0.6755(4) 0.0018(5) 0.4176(3)
H54_2 H 0.6813 0.0214 0.4321
C101_2 C 0.7356(4) 0.0077(5) 0.4279(3)
O46_2 O 0.4375(5) 0.0897(4) 0.0736(3)
C183_2 C 0.3155(6) 0.0045(4) 0.0798(4)
C185_2 C 0.3493(6) 0.0152(4) 0.0281(3)
H103_2 H 0.3500 0.0087 0.0061
C186_2 C 0.3814(6) 0.0447(4) 0.0436(4)
H104_2 H 0.4027 0.0591 0.0313
C187_2 C 0.3802(4) 0.0515(3) 0.0772(4)
C188_2 C 0.3483(6) 0.0321(4) 0.0958(3)
H105_2 H 0.3482 0.0369 0.1183
C189_2 C 0.4107(6) 0.0770(4) 0.0924(5)
Eu6_2 Eu 0.797518(27) 0.03966(2) 0.455039(19)
O1_2 O 0.32353(17) 0.48241(15) 0.10515(16)
O2_2 O 0.27840(19) 0.46443(17) 0.13995(17)
O3_2 O 0.28225(19) 0.40497(19) 0.17229(16)
O4_2 O 0.3371(2) 0.44482(18) 0.16124(19)
O5_2 O 0.29163(19) 0.25755(28) 0.44451(18)
O6_2 O 0.23894(18) 0.24247(26) 0.42233(17)
O7_2 O 0.2605(2) 0.41443(18) 0.07574(17)
O8_2 O 0.2350(2) 0.38711(18) 0.1211(2)
O9_2 O 0.5078(3) 0.5885(3) 0.4513(2)
O10_2 O 0.4915(3) 0.6169(3) 0.4220(3)
O15_2 O 0.4797(4) 0.6373(4) 0.4903(4)
O16_2 O 0.5331(4) 0.6879(3) 0.4565(4)
C1_2 C 0.3038(3) 0.4889(3) 0.1236(3)
C2_2 C 0.3104(2) 0.52562(19) 0.1248(2)
C3_2 C 0.2876(2) 0.5337(2) 0.1429(2)
H1_2 H 0.2680 0.5155 0.1552
C4_2 C 0.2944(2) 0.5696(2) 0.1425(2)
H2_2 H 0.2796 0.5756 0.1554
C5_2 C 0.3219(2) 0.5967(2) 0.1240(2)
C6_2 C 0.3444(2) 0.5873(2) 0.1061(2)
H3_2 H 0.3640 0.6054 0.0937
C7_2 C 0.3385(2) 0.5522(2) 0.1064(2)
H4_2 H 0.3536 0.5462 0.0940
C8_2 C 0.3271(2) 0.6316(2) 0.1238(2)
C9_2 C 0.3002(2) 0.6381(2) 0.1242(2)
H5_2 H 0.2762 0.6179 0.1249
C10_2 C 0.3122(3) 0.4241(3) 0.1816(3)
C11_2 C 0.3238(3) 0.4279(3) 0.2138(2)
C12_2 C 0.3590(2) 0.4511(3) 0.2242(2)
H6_2 H 0.3776 0.4652 0.2090
C13_2 C 0.3672(2) 0.4536(3) 0.2589(2)
H7_2 H 0.3912 0.4692 0.2663
C14_2 C 0.3402(3) 0.4334(3) 0.2807(2)
C15_2 C 0.3034(3) 0.4105(3) 0.2704(2)
H8_2 H 0.2848 0.3971 0.2858
C16_2 C 0.2952(2) 0.4082(3) 0.2367(2)
H9_2 H 0.2708 0.3937 0.2294
C17_2 C 0.3484(3) 0.4336(3) 0.3146(3)
C18_2 C 0.3713(3) 0.4636(3) 0.3301(3)
H10_2 H 0.3797 0.4862 0.3194
C19_2 C 0.3832(3) 0.4633(3) 0.3609(3)
C20_2 C 0.3656(3) 0.4327(4) 0.3772(3)
H11_2 H 0.3714 0.4329 0.3996
C21_2 C 0.3389(3) 0.4002(4) 0.3636(3)
C22_2 C 0.3306(3) 0.4015(3) 0.3312(3)
H12_2 H 0.3126 0.3802 0.3206
C23_2 C 0.3229(3) 0.3658(4) 0.3808(3)
C24_2 C 0.3409(3) 0.3571(4) 0.4017(3)
H13_2 H 0.3655 0.3747 0.4061
C25_2 C 0.3264(3) 0.3245(4) 0.4176(3)
H14_2 H 0.3402 0.3187 0.4321
C26_2 C 0.2894(3) 0.3000(4) 0.4107(3)
C27_2 C 0.2706(3) 0.3080(4) 0.3910(3)
H15_2 H 0.2454 0.2913 0.3881
C28_2 C 0.2863(3) 0.3396(4) 0.3746(3)
H16_2 H 0.2729 0.3444 0.3588
C29_2 C 0.2722(3) 0.2644(4) 0.4279(3)
C30_2 C 0.4086(3) 0.4949(3) 0.3758(3)
C31_2 C 0.4158(3) 0.5299(3) 0.3654(3)
H17_2 H 0.4051 0.5326 0.3460
C32_2 C 0.4395(3) 0.5612(3) 0.3847(3)
H18_2 H 0.4411 0.5839 0.3804
C33_2 C 0.4604(3) 0.5585(3) 0.4099(3)
C34_2 C 0.4554(4) 0.5236(3) 0.4188(3)
H19_2 H 0.4685 0.5213 0.4366
C35_2 C 0.4307(4) 0.4923(3) 0.4006(3)
H20_2 H 0.4289 0.4695 0.4050
C36_2 C 0.4890(4) 0.5906(5) 0.4295(4)
C37_2 C 0.2326(3) 0.3937(3) 0.0924(4)
C38_2 C 0.1974(3) 0.3760(3) 0.0772(3)
C39_2 C 0.1660(4) 0.3560(4) 0.0941(4)
H21_2 H 0.1676 0.3530 0.1168
C40_2 C 0.1344(4) 0.3411(4) 0.0811(3)
H22_2 H 0.1137 0.3283 0.0947
C41_2 C 0.1295(4) 0.3431(4) 0.0479(4)
C42_2 C 0.1606(4) 0.3647(4) 0.0296(4)
H23_2 H 0.1585 0.3688 0.0071
C43_2 C 0.1941(4) 0.3802(3) 0.0441(3)
H24_2 H 0.2153 0.3939 0.0313
C44_2 C 0.0945(3) 0.3274(3) 0.0320(3)
C45_2 C 0.0662(4) 0.3311(4) 0.0490(4)
H25_2 H 0.0701 0.3422 0.0699
C46_2 C 0.0344(5) 0.3177(4) 0.0330(4)
C47_2 C 0.0289(4) 0.3041(4) 0.0045(4)
C49_2 C 0.0892(5) 0.3125(4) 0.0017(4)
H32_2 H 0.0080 0.3012 0.0915
C58_2 C 0.0035(3) 0.3203(3) 0.0466(4)
O17_2 O 0.51759(15) 0.84111(23) 0.10515(16)
O18_2 O 0.53557(17) 0.81396(25) 0.13995(17)
C64_2 C 0.5111(3) 0.8148(4) 0.1236(3)
C65_2 C 0.47438(19) 0.78474(28) 0.1248(2)
C66_2 C 0.4663(2) 0.7538(3) 0.1429(2)
H36_2 H 0.4845 0.7524 0.1552
C67_2 C 0.4304(2) 0.7247(3) 0.1425(2)
H37_2 H 0.4244 0.7039 0.1554
C68_2 C 0.4033(2) 0.7251(3) 0.1240(2)
C69_2 C 0.4127(2) 0.7570(3) 0.1061(2)
H38_2 H 0.3946 0.7585 0.0937
C70_2 C 0.4478(2) 0.7862(3) 0.1064(2)
H39_2 H 0.4538 0.8073 0.0940
C71_2 C 0.3684(2) 0.6954(3) 0.1238(2)
C72_2 C 0.3619(2) 0.6620(3) 0.1242(2)
H40_2 H 0.3821 0.6582 0.1249
O19_2 O 0.15889(23) 0.67647(17) 0.10515(16)
O20_2 O 0.18604(25) 0.72160(19) 0.13995(17)
C73_2 C 0.1852(4) 0.6962(3) 0.1236(3)
C74_2 C 0.21526(28) 0.6896(2) 0.1248(2)
C75_2 C 0.2462(3) 0.7124(2) 0.1429(2)
H41_2 H 0.2476 0.7320 0.1552
C76_2 C 0.2753(3) 0.7056(2) 0.1425(2)
H42_2 H 0.2961 0.7204 0.1554
C77_2 C 0.2749(3) 0.6781(2) 0.1240(2)
C78_2 C 0.2430(3) 0.6556(2) 0.1061(2)
H43_2 H 0.2415 0.6360 0.0937
C79_2 C 0.2138(3) 0.6615(2) 0.1064(2)
H44_2 H 0.1927 0.6464 0.0940
C80_2 C 0.3046(3) 0.6729(2) 0.1238(2)
C81_2 C 0.3380(3) 0.6998(2) 0.1242(2)
H45_2 H 0.3418 0.7238 0.1249
O21_2 O 0.59503(19) 0.87727(27) 0.17229(16)
O22_2 O 0.55518(18) 0.89224(27) 0.16124(19)
O24_2 O 0.75753(26) 0.99646(32) 0.42233(17)
O25_2 O 0.58557(18) 0.84603(27) 0.07574(17)
O26_2 O 0.61289(18) 0.84785(27) 0.1211(2)
O27_2 O 0.4115(3) 0.9192(4) 0.4513(2)
O28_2 O 0.3831(3) 0.8745(4) 0.4220(3)
O32_2 O 0.6523(3) 0.5625(5) 0.0736(3)
O33_2 O 0.3627(4) 0.8423(6) 0.4903(4)
O34_2 O 0.3121(3) 0.8451(5) 0.4565(4)
C82_2 C 0.5759(3) 0.8880(4) 0.1816(3)
C83_2 C 0.5721(3) 0.8958(4) 0.2138(2)
C84_2 C 0.5489(3) 0.9078(4) 0.2242(2)
H46_2 H 0.5348 0.9123 0.2090
C85_2 C 0.5464(3) 0.9135(4) 0.2589(2)
H47_2 H 0.5308 0.9219 0.2663
C86_2 C 0.5666(3) 0.9067(4) 0.2807(2)
C87_2 C 0.5895(3) 0.8928(4) 0.2704(2)
H48_2 H 0.6029 0.8876 0.2858
C88_2 C 0.5918(3) 0.8869(4) 0.2367(2)
H49_2 H 0.6063 0.8770 0.2294
C89_2 C 0.5664(3) 0.9147(4) 0.3146(3)
C90_2 C 0.5364(3) 0.9076(4) 0.3301(3)
H50_2 H 0.5138 0.8934 0.3194
C91_2 C 0.5367(3) 0.9198(4) 0.3609(3)
C92_2 C 0.5673(4) 0.9328(5) 0.3772(3)
H51_2 H 0.5671 0.9384 0.3996
C93_2 C 0.5998(4) 0.9386(5) 0.3636(3)
C94_2 C 0.5985(3) 0.9290(4) 0.3312(3)
H52_2 H 0.6198 0.9323 0.3206
C95_2 C 0.6342(4) 0.9570(5) 0.3808(3)
C96_2 C 0.6429(4) 0.9837(5) 0.4017(3)
H53_2 H 0.6253 0.9907 0.4061
C98_2 C 0.7000(4) 0.9893(5) 0.4107(3)
C99_2 C 0.6920(4) 0.9625(5) 0.3910(3)
H55_2 H 0.7087 0.9540 0.3881
C100_2 C 0.6604(4) 0.9466(5) 0.3746(3)
H56_2 H 0.6556 0.9284 0.3588
C102_2 C 0.5051(3) 0.9136(4) 0.3758(3)
C103_2 C 0.4701(3) 0.8858(4) 0.3654(3)
H57_2 H 0.4674 0.8724 0.3460
C104_2 C 0.4388(3) 0.8782(4) 0.3847(3)
H58_2 H 0.4161 0.8571 0.3804
C105_2 C 0.4415(3) 0.9018(4) 0.4099(3)
C106_2 C 0.4764(3) 0.9317(5) 0.4188(3)
H59_2 H 0.4787 0.9471 0.4366
C107_2 C 0.5077(3) 0.9383(5) 0.4006(3)
H60_2 H 0.5305 0.9593 0.4050
C108_2 C 0.4094(5) 0.8983(6) 0.4295(4)
C109_2 C 0.6063(3) 0.8388(4) 0.0924(4)
C110_2 C 0.6240(3) 0.8213(4) 0.0772(3)
C111_2 C 0.6440(4) 0.8099(6) 0.0941(4)
H61_2 H 0.6470 0.8145 0.1168
C112_2 C 0.6589(4) 0.7932(6) 0.0811(3)
H62_2 H 0.6717 0.7853 0.0947
C113_2 C 0.6569(4) 0.7863(6) 0.0479(4)
C114_2 C 0.6353(4) 0.7958(6) 0.0296(4)
H63_2 H 0.6312 0.7896 0.0071
C115_2 C 0.6198(3) 0.8138(5) 0.0441(3)
H64_2 H 0.6061 0.8213 0.0313
C116_2 C 0.6726(3) 0.7670(4) 0.0320(3)
C117_2 C 0.6689(4) 0.7350(6) 0.0490(4)
H65_2 H 0.6578 0.7278 0.0699
C118_2 C 0.6823(4) 0.7166(6) 0.0330(4)
C119_2 C 0.6959(4) 0.7247(6) 0.0045(4)
C121_2 C 0.6875(4) 0.7766(6) 0.0017(4)
C129_2 C 0.6891(4) 0.6845(6) 0.0798(4)
H72_2 H 0.6988 0.7067 0.0915
C130_2 C 0.6797(3) 0.6831(4) 0.0466(4)
C131_2 C 0.6660(4) 0.6507(6) 0.0281(3)
H73_2 H 0.6588 0.6500 0.0061
C132_2 C 0.6634(4) 0.6186(6) 0.0436(4)
H74_2 H 0.6565 0.5973 0.0313
C133_2 C 0.6714(3) 0.6198(4) 0.0772(4)
C134_2 C 0.6839(4) 0.6517(6) 0.0958(3)
H75_2 H 0.6888 0.6518 0.1183
C135_2 C 0.6664(4) 0.5893(6) 0.0924(5)
O35_2 O 0.12273(27) 0.71775(19) 0.17229(16)
O36_2 O 0.10776(27) 0.6629(2) 0.16124(19)
O38_2 O 0.00354(32) 0.76106(18) 0.42233(17)
O39_2 O 0.15397(27) 0.7395(2) 0.07574(17)
O40_2 O 0.15215(27) 0.7650(2) 0.1211(2)
O41_2 O 0.0808(4) 0.4922(3) 0.4513(2)
O42_2 O 0.1255(4) 0.5085(3) 0.4220(3)
O47_2 O 0.1577(6) 0.5203(4) 0.4903(4)
O48_2 O 0.1549(5) 0.4669(4) 0.4565(4)
C136_2 C 0.1120(4) 0.6878(3) 0.1816(3)
C137_2 C 0.1042(4) 0.6762(3) 0.2138(2)
C138_2 C 0.0922(4) 0.6410(2) 0.2242(2)
H76_2 H 0.0877 0.6224 0.2090
C139_2 C 0.0865(4) 0.6328(2) 0.2589(2)
H77_2 H 0.0781 0.6088 0.2663
C140_2 C 0.0933(4) 0.6598(3) 0.2807(2)
C141_2 C 0.1072(4) 0.6966(3) 0.2704(2)
H78_2 H 0.1124 0.7152 0.2858
C142_2 C 0.1131(4) 0.7048(2) 0.2367(2)
H79_2 H 0.1230 0.7292 0.2294
C143_2 C 0.0853(4) 0.6516(3) 0.3146(3)
C144_2 C 0.0924(4) 0.6287(3) 0.3301(3)
H80_2 H 0.1066 0.6203 0.3194
C145_2 C 0.0802(4) 0.6168(3) 0.3609(3)
C146_2 C 0.0672(5) 0.6344(3) 0.3772(3)
H81_2 H 0.0616 0.6286 0.3996
C147_2 C 0.0614(5) 0.6611(3) 0.3636(3)
C148_2 C 0.0710(4) 0.6694(3) 0.3312(3)
H82_2 H 0.0677 0.6874 0.3206
C149_2 C 0.0430(5) 0.6771(3) 0.3808(3)
C150_2 C 0.0163(5) 0.6591(3) 0.4017(3)
H83_2 H 0.0093 0.6345 0.4061
C152_2 C 0.0107(5) 0.7106(3) 0.4107(3)
C153_2 C 0.0375(5) 0.7294(3) 0.3910(3)
H85_2 H 0.0460 0.7546 0.3881
C154_2 C 0.0534(5) 0.7137(3) 0.3746(3)
H86_2 H 0.0716 0.7271 0.3588
C156_2 C 0.0864(4) 0.5914(3) 0.3758(3)
C157_2 C 0.1142(4) 0.5842(3) 0.3654(3)
H87_2 H 0.1276 0.5949 0.3460
C158_2 C 0.1218(4) 0.5605(3) 0.3847(3)
H88_2 H 0.1429 0.5589 0.3804
C159_2 C 0.0982(4) 0.5396(3) 0.4099(3)
C160_2 C 0.0683(5) 0.5446(4) 0.4188(3)
H89_2 H 0.0529 0.5315 0.4366
C161_2 C 0.0617(5) 0.5693(4) 0.4006(3)
H90_2 H 0.0407 0.5711 0.4050
C162_2 C 0.1017(6) 0.5110(4) 0.4295(4)
C163_2 C 0.1612(4) 0.7674(3) 0.0924(4)
C164_2 C 0.1787(4) 0.8026(3) 0.0772(3)
C165_2 C 0.1901(6) 0.8340(4) 0.0941(4)
H91_2 H 0.1855 0.8324 0.1168
C166_2 C 0.2068(6) 0.8656(4) 0.0811(3)
H92_2 H 0.2147 0.8863 0.0947
C167_2 C 0.2137(6) 0.8705(4) 0.0479(4)
C168_2 C 0.2042(6) 0.8394(4) 0.0296(4)
H93_2 H 0.2104 0.8415 0.0071
C169_2 C 0.1862(5) 0.8059(4) 0.0441(3)
H94_2 H 0.1787 0.7847 0.0313
C170_2 C 0.2330(4) 0.9055(3) 0.0320(3)
C171_2 C 0.2650(6) 0.9338(4) 0.0490(4)
H95_2 H 0.2722 0.9299 0.0699
C172_2 C 0.2834(6) 0.9656(5) 0.0330(4)
C173_2 C 0.2753(6) 0.9711(4) 0.0045(4)
C175_2 C 0.2234(6) 0.9108(5) 0.0017(4)
H102_2 H 0.2933 0.9920 0.0915
C184_2 C 0.3169(4) 0.9965(3) 0.0466(4)
Eu5_2 Eu 0.242138(18) 0.202482(27) 0.455039(19)
O61_2 O 0.5820(4) 0.6554(3) 0.4511(4)
O62_2 O 0.3446(3) 0.9267(5) 0.4511(4)
O63_2 O 0.0733(5) 0.4180(4) 0.4511(4)
H106_2 H 0.468203 0.617628 0.507503
H107_2 H 0.48724 0.661822 0.500572
H108_2 H 0.508141 0.684844 0.452417
H109_2 H 0.545502 0.706163 0.474717
H110_2 H 0.382372 0.850574 0.507503
H111_2 H 0.338178 0.825418 0.500572
H112_2 H 0.315156 0.823297 0.452417
H113_2 H 0.293837 0.839338 0.474717
H114_2 H 0.176703 0.491859 0.452417
H115_2 H 0.160662 0.454498 0.474717
H116_2 H 0.149426 0.531797 0.507503
H117_2 H 0.174582 0.51276 0.500572
O11_2 O 0.0015(4) 0.2227(5) 0.8512(3)
O12_2 O 0.0564(4) 0.2627(6) 0.8411(5)
H26_2 H 0.0061 0.2967 0.9946
C48_2 C 0.0540(5) 0.2993(4) 0.9870(4)
H27_2 H 0.1080 0.3108 0.9907
C50_2 C 0.0474(5) 0.2833(5) 0.9554(5)
C51_2 C 0.0158(5) 0.2604(5) 0.9444(5)
C52_2 C 0.0102(5) 0.2467(4) 0.9137(4)
C53_2 C 0.0354(5) 0.2589(5) 0.8922(5)
C54_2 C 0.0696(6) 0.2860(5) 0.9020(5)
H30_2 H 0.0897 0.2958 0.8875
C55_2 C 0.0730(5) 0.2977(5) 0.9333(5)
H31_2 H 0.0956 0.3179 0.9396
C56_2 C 0.0297(6) 0.2468(6) 0.8608(5)
O29_2 O 0.7773(5) 0.7787(6) 0.8512(3)
O30_2 O 0.7373(6) 0.7936(7) 0.8411(5)
H66_2 H 0.7033 0.7093 0.9946
C120_2 C 0.7007(4) 0.7546(6) 0.9870(4)
H67_2 H 0.6892 0.7971 0.9907
C122_2 C 0.7167(5) 0.7640(7) 0.9554(5)
C123_2 C 0.7396(5) 0.7553(7) 0.9444(5)
H68_2 H 0.7472 0.7424 0.9583
C124_2 C 0.7533(4) 0.7634(6) 0.9137(4)
H69_2 H 0.7727 0.7594 0.9081
C125_2 C 0.7411(5) 0.7764(7) 0.8922(5)
C126_2 C 0.7140(5) 0.7835(8) 0.9020(5)
H70_2 H 0.7042 0.7938 0.8875
C127_2 C 0.7023(5) 0.7752(7) 0.9333(5)
H71_2 H 0.6821 0.7776 0.9396
C128_2 C 0.7532(6) 0.7828(8) 0.8608(5)
O43_2 O 0.2213(6) 0.9985(4) 0.8512(3)
O44_2 O 0.2064(7) 0.9436(4) 0.8411(5)
H96_2 H 0.2907 0.9939 0.9946
C174_2 C 0.2454(6) 0.9460(5) 0.9870(4)
H97_2 H 0.2029 0.8920 0.9907
C176_2 C 0.2360(7) 0.9526(5) 0.9554(5)
C177_2 C 0.2447(7) 0.9842(5) 0.9444(5)
C178_2 C 0.2366(6) 0.9898(5) 0.9137(4)
C179_2 C 0.2236(7) 0.9646(5) 0.8922(5)
C180_2 C 0.2165(8) 0.9304(6) 0.9020(5)
H100_2 H 0.2062 0.9103 0.8875
C181_2 C 0.2248(7) 0.9270(5) 0.9333(5)
H101_2 H 0.2224 0.9044 0.9396
C182_2 C 0.2172(8) 0.9703(6) 0.8608(5)
O14_2 O 0.9103(4) 0.3477(3) 0.0736(3)
C57_2 C 0.9955(4) 0.3109(4) 0.0798(4)
C59_2 C 0.9848(4) 0.3340(4) 0.0281(3)
H33_2 H 0.9913 0.3412 0.0061
C60_2 C 0.9553(4) 0.3366(4) 0.0436(4)
H34_2 H 0.9409 0.3435 0.0313
C61_2 C 0.9485(3) 0.3286(3) 0.0772(4)
C62_2 C 0.9679(4) 0.3161(4) 0.0958(3)
H35_2 H 0.9631 0.3112 0.1183
C63_2 C 0.9230(4) 0.3336(4) 0.0924(5)
O37_2 O 0.96593(34) 0.70837(19) 0.44451(18)
C151_2 C 0.9982(5) 0.6736(3) 0.4176(3)
H84_2 H 0.9786 0.6598 0.4321
C155_2 C 0.9923(5) 0.7278(3) 0.4279(3)
Eu4_2 Eu 0.96034(2) 0.757862(18) 0.455039(19)
O16_3 O 0.1997(4) 0.0213(3) 0.7899(4)
O17_3 O 0.18425(15) 0.17445(23) 0.43849(16)
O18_3 O 0.20223(17) 0.14730(25) 0.47329(17)
C64_3 C 0.1777(3) 0.1482(4) 0.4570(3)
C65_3 C 0.14104(19) 0.11808(28) 0.4582(2)
C66_3 C 0.1329(2) 0.0872(3) 0.4763(2)
H36_3 H 0.1511 0.0858 0.4886
C67_3 C 0.0970(2) 0.0581(3) 0.4759(2)
H37_3 H 0.0910 0.0373 0.4888
C68_3 C 0.0699(2) 0.0585(3) 0.4574(2)
C69_3 C 0.0793(2) 0.0904(3) 0.4395(2)
H38_3 H 0.0612 0.0919 0.4271
C70_3 C 0.1144(2) 0.1196(3) 0.4398(2)
H39_3 H 0.1204 0.1407 0.4274
C71_3 C 0.0350(2) 0.0288(3) 0.4572(2)
C81_3 C 0.0046(3) 0.0332(2) 0.4576(2)
H45_3 H 0.0084 0.0572 0.4583
O21_3 O 0.26169(19) 0.21061(27) 0.50563(16)
O22_3 O 0.22184(18) 0.22558(27) 0.49458(19)
O25_3 O 0.25223(18) 0.17937(27) 0.40908(17)
O26_3 O 0.27955(18) 0.18119(27) 0.4545(2)
O27_3 O 0.0781(3) 0.2526(4) 0.7847(2)
O28_3 O 0.0497(3) 0.2079(4) 0.7554(3)
O33_3 O 0.0293(4) 0.1757(6) 0.8237(4)
C82_3 C 0.2425(3) 0.2214(4) 0.5150(3)
C83_3 C 0.2387(3) 0.2292(4) 0.5472(2)
C84_3 C 0.2155(3) 0.2412(4) 0.5576(2)
H46_3 H 0.2014 0.2457 0.5424
C85_3 C 0.2130(3) 0.2469(4) 0.5923(2)
H47_3 H 0.1974 0.2553 0.5997
C86_3 C 0.2332(3) 0.2401(4) 0.6141(2)
C87_3 C 0.2561(3) 0.2262(4) 0.6038(2)
H48_3 H 0.2695 0.2210 0.6192
C88_3 C 0.2584(3) 0.2203(4) 0.5701(2)
H49_3 H 0.2729 0.2104 0.5628
C89_3 C 0.2330(3) 0.2481(4) 0.6480(3)
C90_3 C 0.2030(3) 0.2410(4) 0.6635(3)
H50_3 H 0.1804 0.2268 0.6528
C91_3 C 0.2033(3) 0.2532(4) 0.6943(3)
C92_3 C 0.2339(4) 0.2662(5) 0.7106(3)
H51_3 H 0.2337 0.2718 0.7330
C93_3 C 0.2664(4) 0.2720(5) 0.6970(3)
C94_3 C 0.2651(3) 0.2624(4) 0.6646(3)
H52_3 H 0.2864 0.2657 0.6540
C95_3 C 0.3008(4) 0.2904(5) 0.7142(3)
C96_3 C 0.3095(4) 0.3171(5) 0.7351(3)
H53_3 H 0.2919 0.3241 0.7395
C97_3 C 0.3421(4) 0.3352(5) 0.7510(3)
H54_3 H 0.3479 0.3548 0.7655
C98_3 C 0.3666(4) 0.3227(5) 0.7441(3)
C99_3 C 0.3586(4) 0.2959(5) 0.7244(3)
H55_3 H 0.3753 0.2874 0.7215
C100_3 C 0.3270(4) 0.2800(5) 0.7080(3)
H56_3 H 0.3222 0.2618 0.6922
C101_3 C 0.4022(4) 0.3411(5) 0.7613(3)
C102_3 C 0.1717(3) 0.2470(4) 0.7092(3)
C103_3 C 0.1367(3) 0.2192(4) 0.6988(3)
H57_3 H 0.1340 0.2058 0.6794
C104_3 C 0.1054(3) 0.2116(4) 0.7181(3)
H58_3 H 0.0827 0.1905 0.7138
C105_3 C 0.1081(3) 0.2352(4) 0.7433(3)
C106_3 C 0.1430(3) 0.2651(5) 0.7522(3)
H59_3 H 0.1453 0.2805 0.7700
C107_3 C 0.1743(3) 0.2717(5) 0.7340(3)
H60_3 H 0.1971 0.2927 0.7384
C108_3 C 0.0760(5) 0.2317(6) 0.7629(4)
C109_3 C 0.2729(3) 0.1722(4) 0.4258(4)
C110_3 C 0.2906(3) 0.1547(4) 0.4106(3)
C111_3 C 0.3106(4) 0.1433(6) 0.4275(4)
H61_3 H 0.3136 0.1479 0.4502
C112_3 C 0.3255(4) 0.1266(6) 0.4145(3)
H62_3 H 0.3383 0.1187 0.4281
C113_3 C 0.3235(4) 0.1197(6) 0.3813(4)
C114_3 C 0.3019(4) 0.1292(6) 0.3630(4)
H63_3 H 0.2978 0.1230 0.3405
C115_3 C 0.2864(3) 0.1472(5) 0.3775(3)
H64_3 H 0.2727 0.1547 0.3647
C116_3 C 0.3392(3) 0.1004(4) 0.3654(3)
C117_3 C 0.3355(4) 0.0684(6) 0.3824(4)
H65_3 H 0.3244 0.0612 0.4033
C118_3 C 0.3489(4) 0.0500(6) 0.3664(4)
C119_3 C 0.3625(4) 0.0581(6) 0.3379(4)
H66_3 H 0.3699 0.0427 0.3280
C120_3 C 0.3673(4) 0.0880(6) 0.3204(4)
C121_3 C 0.3541(4) 0.1100(6) 0.3351(4)
H67_3 H 0.3558 0.1305 0.3241
C122_3 C 0.3833(5) 0.0974(7) 0.2888(5)
C123_3 C 0.4062(5) 0.0887(7) 0.2778(5)
H68_3 H 0.4138 0.0758 0.2917
C124_3 C 0.4199(4) 0.0968(6) 0.2471(4)
H69_3 H 0.4393 0.0928 0.2415
C125_3 C 0.4077(5) 0.1098(7) 0.2256(5)
C126_3 C 0.3806(5) 0.1169(8) 0.2354(5)
H70_3 H 0.3708 0.1272 0.2209
C127_3 C 0.3689(5) 0.1086(7) 0.2667(5)
H71_3 H 0.3487 0.1110 0.2730
C128_3 C 0.4198(6) 0.1162(8) 0.1942(5)
C129_3 C 0.3557(4) 0.0179(6) 0.4132(4)
H72_3 H 0.3654 0.0401 0.4249
C130_3 C 0.3463(3) 0.0165(4) 0.3800(4)
O46_3 O 0.1041(5) 0.4231(4) 0.4070(3)
C185_3 C 0.0159(6) 0.3486(4) 0.3615(3)
H103_3 H 0.0166 0.3421 0.3395
C186_3 C 0.0480(6) 0.3781(4) 0.3770(4)
H104_3 H 0.0693 0.3925 0.3647
C187_3 C 0.0468(4) 0.3849(3) 0.4106(4)
C188_3 C 0.0149(6) 0.3655(4) 0.4292(3)
H105_3 H 0.0148 0.3703 0.4517
C189_3 C 0.0773(6) 0.4104(4) 0.4258(5)
H108_3 H 0.174808 0.0181777 0.785751
H109_3 H 0.212168 0.0394967 0.80805
H110_3 H 0.0490385 0.183908 0.840836
H111_3 H 0.00484463 0.158752 0.833905
O4_3 O 0.0037(2) 0.77816(18) 0.49458(19)
O9_3 O 0.1744(3) 0.9219(3) 0.7847(2)
O10_3 O 0.1581(3) 0.9503(3) 0.7554(3)
O15_3 O 0.1463(4) 0.9707(4) 0.8237(4)
C6_3 C 0.0110(2) 0.9207(2) 0.4395(2)
H3_3 H 0.0306 0.9388 0.4271
C7_3 C 0.0051(2) 0.8856(2) 0.4398(2)
H4_3 H 0.0202 0.8796 0.4274
C12_3 C 0.0256(2) 0.7845(3) 0.5576(2)
H6_3 H 0.0442 0.7986 0.5424
C13_3 C 0.0338(2) 0.7870(3) 0.5923(2)
H7_3 H 0.0578 0.8026 0.5997
C14_3 C 0.0068(3) 0.7668(3) 0.6141(2)
C17_3 C 0.0150(3) 0.7670(3) 0.6480(3)
C18_3 C 0.0379(3) 0.7970(3) 0.6635(3)
H10_3 H 0.0463 0.8196 0.6528
C19_3 C 0.0498(3) 0.7967(3) 0.6943(3)
C20_3 C 0.0322(3) 0.7661(4) 0.7106(3)
H11_3 H 0.0380 0.7663 0.7330
C21_3 C 0.0055(3) 0.7336(4) 0.6970(3)
C24_3 C 0.0075(3) 0.6905(4) 0.7351(3)
H13_3 H 0.0321 0.7081 0.7395
H14_3 H 0.0068 0.6521 0.7655
C30_3 C 0.0752(3) 0.8283(3) 0.7092(3)
C31_3 C 0.0824(3) 0.8633(3) 0.6988(3)
H17_3 H 0.0717 0.8660 0.6794
C32_3 C 0.1061(3) 0.8946(3) 0.7181(3)
H18_3 H 0.1077 0.9173 0.7138
C33_3 C 0.1270(3) 0.8919(3) 0.7433(3)
C34_3 C 0.1220(4) 0.8570(3) 0.7522(3)
H19_3 H 0.1351 0.8547 0.7700
C35_3 C 0.0973(4) 0.8257(3) 0.7340(3)
H20_3 H 0.0955 0.8029 0.7384
C36_3 C 0.1556(4) 0.9240(5) 0.7629(4)
C72_3 C 0.0285(2) 0.9954(3) 0.4576(2)
H40_3 H 0.0487 0.9916 0.4583
O32_3 O 0.3189(3) 0.8959(5) 0.4070(3)
C131_3 C 0.3326(4) 0.9841(6) 0.3615(3)
H73_3 H 0.3254 0.9834 0.3395
C132_3 C 0.3300(4) 0.9520(6) 0.3770(4)
H74_3 H 0.3231 0.9307 0.3647
C133_3 C 0.3380(3) 0.9532(4) 0.4106(4)
C134_3 C 0.3505(4) 0.9851(6) 0.4292(3)
H75_3 H 0.3554 0.9852 0.4517
C135_3 C 0.3330(4) 0.9227(6) 0.4258(5)
H106_3 H 0.134869 0.950962 0.840836
H107_3 H 0.153907 0.995155 0.833905
O19_3 O 0.82555(23) 0.00981(17) 0.43849(16)
O20_3 O 0.85270(25) 0.05494(19) 0.47329(17)
C73_3 C 0.8518(4) 0.0296(3) 0.4570(3)
C74_3 C 0.88192(28) 0.0230(2) 0.4582(2)
C75_3 C 0.9128(3) 0.0458(2) 0.4763(2)
H41_3 H 0.9142 0.0654 0.4886
C76_3 C 0.9419(3) 0.0390(2) 0.4759(2)
H42_3 H 0.9627 0.0538 0.4888
C77_3 C 0.9415(3) 0.0115(2) 0.4574(2)
C80_3 C 0.9712(3) 0.0063(2) 0.4572(2)
O34_3 O 0.9787(3) 0.1785(5) 0.7899(4)
O35_3 O 0.78939(27) 0.05109(19) 0.50563(16)
O39_3 O 0.82063(27) 0.0729(2) 0.40908(17)
O40_3 O 0.81881(27) 0.0984(2) 0.4545(2)
C136_3 C 0.7786(4) 0.0212(3) 0.5150(3)
C137_3 C 0.7708(4) 0.0096(3) 0.5472(2)
C141_3 C 0.7738(4) 0.0300(3) 0.6038(2)
H78_3 H 0.7790 0.0486 0.6192
C142_3 C 0.7797(4) 0.0382(2) 0.5701(2)
H79_3 H 0.7896 0.0626 0.5628
C148_3 C 0.7376(4) 0.0028(3) 0.6646(3)
H82_3 H 0.7343 0.0208 0.6540
C149_3 C 0.7096(5) 0.0105(3) 0.7142(3)
C151_3 C 0.6648(5) 0.0070(3) 0.7510(3)
C152_3 C 0.6773(5) 0.0440(3) 0.7441(3)
C153_3 C 0.7041(5) 0.0628(3) 0.7244(3)
H85_3 H 0.7126 0.0880 0.7215
C154_3 C 0.7200(5) 0.0471(3) 0.7080(3)
H86_3 H 0.7382 0.0605 0.6922
C155_3 C 0.6589(5) 0.0612(3) 0.7613(3)
C163_3 C 0.8278(4) 0.1008(3) 0.4258(4)
C164_3 C 0.8453(4) 0.1360(3) 0.4106(3)
C165_3 C 0.8567(6) 0.1674(4) 0.4275(4)
H91_3 H 0.8521 0.1658 0.4502
C166_3 C 0.8734(6) 0.1990(4) 0.4145(3)
H92_3 H 0.8813 0.2197 0.4281
C167_3 C 0.8803(6) 0.2039(4) 0.3813(4)
C168_3 C 0.8708(6) 0.1728(4) 0.3630(4)
H93_3 H 0.8770 0.1749 0.3405
C169_3 C 0.8528(5) 0.1393(4) 0.3775(3)
H94_3 H 0.8453 0.1181 0.3647
C170_3 C 0.8996(4) 0.2389(3) 0.3654(3)
C171_3 C 0.9316(6) 0.2672(4) 0.3824(4)
H95_3 H 0.9388 0.2633 0.4033
C172_3 C 0.9500(6) 0.2990(5) 0.3664(4)
C173_3 C 0.9419(6) 0.3045(4) 0.3379(4)
H96_3 H 0.9573 0.3273 0.3280
C174_3 C 0.9120(6) 0.2794(5) 0.3204(4)
C175_3 C 0.8900(6) 0.2442(5) 0.3351(4)
H97_3 H 0.8695 0.2254 0.3241
C176_3 C 0.9026(7) 0.2860(5) 0.2888(5)
C177_3 C 0.9113(7) 0.3176(5) 0.2778(5)
H98_2 H 0.9242 0.3381 0.2917
C178_3 C 0.9032(6) 0.3232(5) 0.2471(4)
H99_2 H 0.9072 0.3466 0.2415
C179_3 C 0.8902(7) 0.2980(5) 0.2256(5)
C180_3 C 0.8831(8) 0.2638(6) 0.2354(5)
H100_3 H 0.8728 0.2437 0.2209
C181_3 C 0.8914(7) 0.2604(5) 0.2667(5)
H101_3 H 0.8890 0.2378 0.2730
C182_3 C 0.8838(8) 0.3037(6) 0.1942(5)
C183_3 C 0.9821(6) 0.3379(4) 0.4132(4)
H102_3 H 0.9599 0.3254 0.4249
C184_3 C 0.9835(4) 0.3299(3) 0.3800(4)
H112_3 H 0.981822 0.15663 0.785751
H113_3 H 0.960503 0.172672 0.80805
O1_3 O 0.99019(17) 0.81575(15) 0.43849(16)
O2_3 O 0.94506(19) 0.79777(17) 0.47329(17)
O3_3 O 0.94891(19) 0.73831(19) 0.50563(16)
O7_3 O 0.9271(2) 0.74777(18) 0.40908(17)
O8_3 O 0.9016(2) 0.72045(18) 0.4545(2)
O14_3 O 0.5769(4) 0.6811(3) 0.4070(3)
C1_3 C 0.9704(3) 0.8223(3) 0.4570(3)
C2_3 C 0.9770(2) 0.85896(19) 0.4582(2)
C3_3 C 0.9542(2) 0.8671(2) 0.4763(2)
H1_3 H 0.9346 0.8489 0.4886
C4_3 C 0.9610(2) 0.9030(2) 0.4759(2)
H2_3 H 0.9462 0.9090 0.4888
C5_3 C 0.9885(2) 0.9301(2) 0.4574(2)
C8_3 C 0.9937(2) 0.9650(2) 0.4572(2)
C9_3 C 0.9668(2) 0.9715(2) 0.4576(2)
H5_3 H 0.9428 0.9513 0.4583
C10_3 C 0.9788(3) 0.7575(3) 0.5150(3)
C11_3 C 0.9904(3) 0.7613(3) 0.5472(2)
C15_3 C 0.9700(3) 0.7439(3) 0.6038(2)
H8_3 H 0.9514 0.7305 0.6192
C16_3 C 0.9618(2) 0.7416(3) 0.5701(2)
H9_3 H 0.9374 0.7271 0.5628
C22_3 C 0.9972(3) 0.7349(3) 0.6646(3)
H12_3 H 0.9792 0.7136 0.6540
C23_3 C 0.9895(3) 0.6992(4) 0.7142(3)
C25_3 C 0.9930(3) 0.6579(4) 0.7510(3)
C26_3 C 0.9560(3) 0.6334(4) 0.7441(3)
C27_3 C 0.9372(3) 0.6414(4) 0.7244(3)
H15_3 H 0.9120 0.6247 0.7215
C28_3 C 0.9529(3) 0.6730(4) 0.7080(3)
H16_3 H 0.9395 0.6778 0.6922
C29_3 C 0.9388(3) 0.5978(4) 0.7613(3)
C37_3 C 0.8992(3) 0.7271(3) 0.4258(4)
C38_3 C 0.8640(3) 0.7094(3) 0.4106(3)
C39_3 C 0.8326(4) 0.6894(4) 0.4275(4)
H21_3 H 0.8342 0.6864 0.4502
C40_3 C 0.8010(4) 0.6745(4) 0.4145(3)
H22_3 H 0.7803 0.6617 0.4281
C41_3 C 0.7961(4) 0.6765(4) 0.3813(4)
C42_3 C 0.8272(4) 0.6981(4) 0.3630(4)
H23_3 H 0.8251 0.7022 0.3405
C43_3 C 0.8607(4) 0.7136(3) 0.3775(3)
H24_3 H 0.8819 0.7273 0.3647
C44_3 C 0.7611(3) 0.6608(3) 0.3654(3)
C45_3 C 0.7328(4) 0.6645(4) 0.3824(4)
H25_3 H 0.7367 0.6756 0.4033
C46_3 C 0.7010(5) 0.6511(4) 0.3664(4)
C47_3 C 0.6955(4) 0.6375(4) 0.3379(4)
H26_3 H 0.6727 0.6301 0.3280
C48_3 C 0.7206(5) 0.6327(4) 0.3204(4)
C49_3 C 0.7558(5) 0.6459(4) 0.3351(4)
H27_3 H 0.7746 0.6442 0.3241
C50_3 C 0.7140(5) 0.6167(5) 0.2888(5)
C51_3 C 0.6824(5) 0.5938(5) 0.2778(5)
H28_2 H 0.6619 0.5862 0.2917
C52_3 C 0.6768(5) 0.5801(4) 0.2471(4)
H29_2 H 0.6534 0.5607 0.2415
C53_3 C 0.7020(5) 0.5923(5) 0.2256(5)
C54_3 C 0.7362(6) 0.6194(5) 0.2354(5)
H30_3 H 0.7563 0.6292 0.2209
C55_3 C 0.7396(5) 0.6311(5) 0.2667(5)
H31_3 H 0.7622 0.6513 0.2730
C56_3 C 0.6963(6) 0.5802(6) 0.1942(5)
C57_3 C 0.6621(4) 0.6443(4) 0.4132(4)
H32_3 H 0.6746 0.6346 0.4249
C58_3 C 0.6701(3) 0.6537(3) 0.3800(4)
C59_3 C 0.6514(4) 0.6674(4) 0.3615(3)
H33_3 H 0.6579 0.6746 0.3395
C60_3 C 0.6219(4) 0.6700(4) 0.3770(4)
H34_3 H 0.6075 0.6769 0.3647
C61_3 C 0.6151(3) 0.6620(3) 0.4106(4)
C62_3 C 0.6345(4) 0.6495(4) 0.4292(3)
H35_3 H 0.6297 0.6446 0.4517
C63_3 C 0.5896(4) 0.6670(4) 0.4258(5)
C78_3 C 0.9096(3) 0.9890(2) 0.4395(2)
H43_3 H 0.9081 0.9694 0.4271
C79_3 C 0.8804(3) 0.9949(2) 0.4398(2)
H44_3 H 0.8593 0.9798 0.4274
O36_3 O 0.77442(27) 0.9963(2) 0.49458(19)
O41_3 O 0.7474(4) 0.8256(3) 0.7847(2)
O42_3 O 0.7921(4) 0.8419(3) 0.7554(3)
O47_3 O 0.8243(6) 0.8537(4) 0.8237(4)
O48_3 O 0.8215(5) 0.8003(4) 0.7899(4)
C138_3 C 0.7588(4) 0.9744(2) 0.5576(2)
H76_3 H 0.7543 0.9558 0.5424
C139_3 C 0.7531(4) 0.9662(2) 0.5923(2)
H77_3 H 0.7447 0.9422 0.5997
C140_3 C 0.7599(4) 0.9932(3) 0.6141(2)
C143_3 C 0.7519(4) 0.9850(3) 0.6480(3)
C144_3 C 0.7590(4) 0.9621(3) 0.6635(3)
H80_3 H 0.7732 0.9537 0.6528
C145_3 C 0.7468(4) 0.9502(3) 0.6943(3)
C146_3 C 0.7338(5) 0.9678(3) 0.7106(3)
H81_3 H 0.7282 0.9620 0.7330
C147_3 C 0.7280(5) 0.9945(3) 0.6970(3)
C150_3 C 0.6829(5) 0.9925(3) 0.7351(3)
H83_3 H 0.6759 0.9679 0.7395
H84_3 H 0.6452 0.9932 0.7655
C156_3 C 0.7530(4) 0.9248(3) 0.7092(3)
C157_3 C 0.7808(4) 0.9176(3) 0.6988(3)
H87_3 H 0.7942 0.9283 0.6794
C158_3 C 0.7884(4) 0.8939(3) 0.7181(3)
H88_3 H 0.8095 0.8923 0.7138
C159_3 C 0.7648(4) 0.8730(3) 0.7433(3)
C160_3 C 0.7349(5) 0.8780(4) 0.7522(3)
H89_3 H 0.7195 0.8649 0.7700
C161_3 C 0.7283(5) 0.9027(4) 0.7340(3)
H90_3 H 0.7073 0.9045 0.7384
C162_3 C 0.7683(6) 0.8444(4) 0.7629(4)
H114_3 H 0.84337 0.825192 0.785751
H115_3 H 0.827328 0.787832 0.80805
H116_3 H 0.816092 0.865131 0.840836
H117_3 H 0.841248 0.846093 0.833905
H98_3 H 0.2576 0.0047 0.9583
H99_3 H 0.2406 0.0132 0.9081
H28_3 H 0.9953 0.2528 0.9583
H29_3 H 0.9868 0.2273 0.9081
O11_3 O 0.6652(4) 0.1106(5) 0.4821(3)
O12_3 O 0.6103(4) 0.0706(6) 0.4922(5)
O13_2 O 0.7513(4) 0.0113(3) 0.2156(4)
H22_4 H 0.5530 0.0050 0.2386
C44_4 C 0.5722(3) 0.0059(3) 0.3013(3)
C45_4 C 0.6005(4) 0.0022(4) 0.2843(4)
C46_4 C 0.6323(5) 0.0156(4) 0.3003(4)
C47_4 C 0.6378(4) 0.0292(4) 0.3288(4)
H26_4 H 0.6606 0.0366 0.3387
C48_4 C 0.6127(5) 0.0340(4) 0.3463(4)
C49_4 C 0.5775(5) 0.0208(4) 0.3316(4)
H27_4 H 0.5587 0.0225 0.3426
C50_4 C 0.6193(5) 0.0500(5) 0.3779(5)
C51_4 C 0.6509(5) 0.0729(5) 0.3889(5)
H28_4 H 0.6714 0.0805 0.3750
C52_4 C 0.6565(5) 0.0866(4) 0.4196(4)
H29_4 H 0.6799 0.1060 0.4252
C53_4 C 0.6313(5) 0.0744(5) 0.4411(5)
C54_4 C 0.5971(6) 0.0473(5) 0.4313(5)
H30_4 H 0.5770 0.0375 0.4458
C55_4 C 0.5937(5) 0.0356(5) 0.4000(5)
H31_4 H 0.5711 0.0154 0.3937
C56_4 C 0.6370(6) 0.0865(6) 0.4725(5)
C57_4 C 0.6712(4) 0.0224(4) 0.2535(4)
H32_4 H 0.6587 0.0321 0.2418
C58_4 C 0.6632(3) 0.0130(3) 0.2867(4)
C61_4 C 0.7182(3) 0.0047(3) 0.2561(4)
C62_4 C 0.6988(4) 0.0172(4) 0.2375(3)
H35_4 H 0.7036 0.0221 0.2150
In5_2 In 0.63774(4) 0.11020(6) 0.53006(3)
In7_2 In 0.80579(4) 0.02892(4) 0.19672(3)
O5_3 O 0.37504(19) 0.07578(28) 0.88882(18)
O6_3 O 0.42773(18) 0.09086(26) 0.91100(17)
C25_4 C 0.3403(3) 0.0088(4) 0.9157(3)
H14_4 H 0.3265 0.0146 0.9012
C26_4 C 0.3773(3) 0.0333(4) 0.9226(3)
C27_4 C 0.3961(3) 0.0253(4) 0.9423(3)
H15_4 H 0.4213 0.0420 0.9452
C29_4 C 0.3945(3) 0.0689(4) 0.9054(3)
Eu5_3 Eu 0.424528(18) 0.130852(27) 0.878295(19)
Eu1_2 Eu 0.37299(2) 0.908805(18) 0.211628(19)
O1_4 O 0.34314(17) 0.85092(15) 0.22818(16)
O2_4 O 0.38827(19) 0.86890(17) 0.19338(17)
O3_4 O 0.38442(19) 0.92836(19) 0.16104(16)
O4_4 O 0.3296(2) 0.88851(18) 0.17209(19)
O7_4 O 0.4062(2) 0.91890(18) 0.25759(17)
O8_4 O 0.4317(2) 0.94622(18) 0.2122(2)
O14_4 O 0.7564(4) 0.9856(3) 0.2597(3)
C1_4 C 0.3629(3) 0.8444(3) 0.2097(3)
C2_4 C 0.3563(2) 0.80771(19) 0.2085(2)
C3_4 C 0.3791(2) 0.7996(2) 0.1904(2)
H1_4 H 0.3987 0.8178 0.1781
C4_4 C 0.3723(2) 0.7637(2) 0.1908(2)
H2_4 H 0.3871 0.7577 0.1779
C5_4 C 0.3448(2) 0.7366(2) 0.2093(2)
C6_4 C 0.3223(2) 0.7460(2) 0.2272(2)
H3_4 H 0.3027 0.7279 0.2396
C7_4 C 0.3282(2) 0.7811(2) 0.2269(2)
H4_4 H 0.3131 0.7871 0.2393
C8_4 C 0.3396(2) 0.7017(2) 0.2095(2)
C9_4 C 0.3665(2) 0.6952(2) 0.2091(2)
H5_4 H 0.3905 0.7154 0.2084
C10_4 C 0.3545(3) 0.9092(3) 0.1517(3)
C11_4 C 0.3429(3) 0.9054(3) 0.1195(2)
C12_4 C 0.3077(2) 0.8822(3) 0.1091(2)
H6_4 H 0.2891 0.8681 0.1243
C13_4 C 0.2995(2) 0.8797(3) 0.0744(2)
H7_4 H 0.2755 0.8641 0.0670
C14_4 C 0.3265(3) 0.8999(3) 0.0526(2)
C15_4 C 0.3633(3) 0.9228(3) 0.0629(2)
H8_4 H 0.3819 0.9362 0.0475
C16_4 C 0.3715(2) 0.9251(3) 0.0966(2)
H9_4 H 0.3959 0.9396 0.1039
C17_4 C 0.3183(3) 0.8997(3) 0.0187(3)
C18_4 C 0.2954(3) 0.8697(3) 0.0032(3)
H10_4 H 0.2870 0.8471 0.0139
C22_4 C 0.3361(3) 0.9318(3) 0.0021(3)
H12_4 H 0.3541 0.9531 0.0127
C37_4 C 0.4341(3) 0.9396(3) 0.2409(4)
C38_4 C 0.4693(3) 0.9573(3) 0.2561(3)
C39_4 C 0.5007(4) 0.9773(4) 0.2392(4)
H21_4 H 0.4991 0.9803 0.2165
C40_4 C 0.5323(4) 0.9922(4) 0.2522(3)
C41_4 C 0.5372(4) 0.9902(4) 0.2854(4)
C42_4 C 0.5061(4) 0.9686(4) 0.3037(4)
H23_4 H 0.5082 0.9645 0.3262
C43_4 C 0.4726(4) 0.9531(3) 0.2892(3)
H24_4 H 0.4514 0.9394 0.3020
H25_4 H 0.5966 0.9911 0.2634
C59_4 C 0.6819(4) 0.9993(4) 0.3052(3)
H33_4 H 0.6754 0.9921 0.3272
C60_4 C 0.7114(4) 0.9967(4) 0.2897(4)
H34_4 H 0.7258 0.9898 0.3020
C63_4 C 0.7437(4) 0.9997(4) 0.2409(5)
O17_4 O 0.14908(15) 0.49222(23) 0.22818(16)
O18_4 O 0.13110(17) 0.51937(25) 0.19338(17)
C64_4 C 0.1556(3) 0.5185(4) 0.2097(3)
C65_4 C 0.19229(19) 0.54859(28) 0.2085(2)
C66_4 C 0.2004(2) 0.5795(3) 0.1904(2)
H36_4 H 0.1822 0.5809 0.1781
C67_4 C 0.2363(2) 0.6086(3) 0.1908(2)
H37_4 H 0.2423 0.6294 0.1779
C68_4 C 0.2634(2) 0.6082(3) 0.2093(2)
C69_4 C 0.2540(2) 0.5763(3) 0.2272(2)
H38_4 H 0.2721 0.5748 0.2396
C70_4 C 0.2189(2) 0.5471(3) 0.2269(2)
H39_4 H 0.2129 0.5260 0.2393
C71_4 C 0.2983(2) 0.6379(3) 0.2095(2)
C72_4 C 0.3048(2) 0.6713(3) 0.2091(2)
H40_4 H 0.2846 0.6751 0.2084
O19_4 O 0.50778(23) 0.65686(17) 0.22818(16)
O20_4 O 0.48063(25) 0.61173(19) 0.19338(17)
C73_4 C 0.4815(4) 0.6371(3) 0.2097(3)
C74_4 C 0.45141(28) 0.6437(2) 0.2085(2)
C75_4 C 0.4205(3) 0.6209(2) 0.1904(2)
H41_4 H 0.4191 0.6013 0.1781
C76_4 C 0.3914(3) 0.6277(2) 0.1908(2)
H42_4 H 0.3706 0.6129 0.1779
C77_4 C 0.3918(3) 0.6552(2) 0.2093(2)
C78_4 C 0.4237(3) 0.6777(2) 0.2272(2)
H43_4 H 0.4252 0.6973 0.2396
C79_4 C 0.4529(3) 0.6718(2) 0.2269(2)
H44_4 H 0.4740 0.6869 0.2393
C80_4 C 0.3621(3) 0.6604(2) 0.2095(2)
C81_4 C 0.3287(3) 0.6335(2) 0.2091(2)
H45_4 H 0.3249 0.6095 0.2084
Eu2_2 Eu 0.091195(18) 0.464185(27) 0.211628(19)
O21_4 O 0.07164(19) 0.45606(27) 0.16104(16)
O22_4 O 0.11149(18) 0.44109(27) 0.17209(19)
O25_4 O 0.08110(18) 0.48730(27) 0.25759(17)
O26_4 O 0.05378(18) 0.48548(27) 0.2122(2)
O32_4 O 0.0144(3) 0.7708(5) 0.2597(3)
C82_4 C 0.0908(3) 0.4453(4) 0.1517(3)
C83_4 C 0.0946(3) 0.4375(4) 0.1195(2)
C84_4 C 0.1178(3) 0.4255(4) 0.1091(2)
H46_4 H 0.1319 0.4210 0.1243
C85_4 C 0.1203(3) 0.4198(4) 0.0744(2)
H47_4 H 0.1359 0.4114 0.0670
C86_4 C 0.1001(3) 0.4266(4) 0.0526(2)
C87_4 C 0.0772(3) 0.4405(4) 0.0629(2)
H48_4 H 0.0638 0.4457 0.0475
C88_4 C 0.0749(3) 0.4464(4) 0.0966(2)
H49_4 H 0.0604 0.4563 0.1039
C89_4 C 0.1003(3) 0.4186(4) 0.0187(3)
C90_4 C 0.1303(3) 0.4257(4) 0.0032(3)
H50_4 H 0.1529 0.4399 0.0139
C94_4 C 0.0682(3) 0.4043(4) 0.0021(3)
H52_4 H 0.0469 0.4010 0.0127
C109_4 C 0.0604(3) 0.4945(4) 0.2409(4)
C110_4 C 0.0427(3) 0.5120(4) 0.2561(3)
C111_4 C 0.0227(4) 0.5234(6) 0.2392(4)
H61_4 H 0.0197 0.5188 0.2165
C112_4 C 0.0078(4) 0.5401(6) 0.2522(3)
C113_4 C 0.0098(4) 0.5470(6) 0.2854(4)
C114_4 C 0.0314(4) 0.5375(6) 0.3037(4)
H63_4 H 0.0355 0.5437 0.3262
C115_4 C 0.0469(3) 0.5195(5) 0.2892(3)
H64_4 H 0.0606 0.5120 0.3020
H65_4 H 0.0089 0.6055 0.2634
C131_4 C 0.0007(4) 0.6826(6) 0.3052(3)
H73_4 H 0.0079 0.6833 0.3272
C132_4 C 0.0033(4) 0.7147(6) 0.2897(4)
H74_4 H 0.0102 0.7360 0.3020
C135_4 C 0.0003(4) 0.7440(6) 0.2409(5)
Eu3_2 Eu 0.535815(27) 0.62701(2) 0.211628(19)
O35_4 O 0.54394(27) 0.61558(19) 0.16104(16)
O36_4 O 0.55891(27) 0.6704(2) 0.17209(19)
O39_4 O 0.51270(27) 0.5938(2) 0.25759(17)
O40_4 O 0.51452(27) 0.5683(2) 0.2122(2)
O43_3 O 0.4454(6) 0.3348(4) 0.4821(3)
O44_3 O 0.4603(7) 0.3897(4) 0.4922(5)
O45_2 O 0.2600(5) 0.2487(4) 0.2156(4)
O46_4 O 0.2292(5) 0.2436(4) 0.2597(3)
C136_4 C 0.5547(4) 0.6455(3) 0.1517(3)
C137_4 C 0.5625(4) 0.6571(3) 0.1195(2)
C138_4 C 0.5745(4) 0.6923(2) 0.1091(2)
H76_4 H 0.5790 0.7109 0.1243
C139_4 C 0.5802(4) 0.7005(2) 0.0744(2)
H77_4 H 0.5886 0.7245 0.0670
C140_4 C 0.5734(4) 0.6735(3) 0.0526(2)
C141_4 C 0.5595(4) 0.6367(3) 0.0629(2)
H78_4 H 0.5543 0.6181 0.0475
C142_4 C 0.5536(4) 0.6285(2) 0.0966(2)
H79_4 H 0.5437 0.6041 0.1039
C143_4 C 0.5814(4) 0.6817(3) 0.0187(3)
C144_4 C 0.5743(4) 0.7046(3) 0.0032(3)
H80_4 H 0.5601 0.7130 0.0139
C148_4 C 0.5957(4) 0.6639(3) 0.0021(3)
H82_4 H 0.5990 0.6459 0.0127
C163_4 C 0.5055(4) 0.5659(3) 0.2409(4)
C164_4 C 0.4880(4) 0.5307(3) 0.2561(3)
C165_4 C 0.4766(6) 0.4993(4) 0.2392(4)
H91_4 H 0.4812 0.5009 0.2165
C166_4 C 0.4599(6) 0.4677(4) 0.2522(3)
H92_4 H 0.4520 0.4470 0.2386
C167_4 C 0.4530(6) 0.4628(4) 0.2854(4)
C168_4 C 0.4625(6) 0.4939(4) 0.3037(4)
H93_4 H 0.4563 0.4918 0.3262
C169_4 C 0.4805(5) 0.5274(4) 0.2892(3)
H94_4 H 0.4880 0.5486 0.3020
C170_4 C 0.4337(4) 0.4278(3) 0.3013(3)
C171_4 C 0.4017(6) 0.3995(4) 0.2843(4)
H95_4 H 0.3945 0.4034 0.2634
C172_4 C 0.3833(6) 0.3677(5) 0.3003(4)
C173_4 C 0.3914(6) 0.3622(4) 0.3288(4)
H96_4 H 0.3760 0.3394 0.3387
C174_4 C 0.4213(6) 0.3873(5) 0.3463(4)
C175_4 C 0.4433(6) 0.4225(5) 0.3316(4)
H97_4 H 0.4638 0.4413 0.3426
C176_4 C 0.4307(7) 0.3807(5) 0.3779(5)
C177_4 C 0.4220(7) 0.3491(5) 0.3889(5)
H98_4 H 0.4091 0.3286 0.3750
C178_4 C 0.4301(6) 0.3435(5) 0.4196(4)
H99_4 H 0.4261 0.3201 0.4252
C179_4 C 0.4431(7) 0.3687(5) 0.4411(5)
C180_4 C 0.4502(8) 0.4029(6) 0.4313(5)
H100_4 H 0.4605 0.4230 0.4458
C181_4 C 0.4419(7) 0.4063(5) 0.4000(5)
H101_4 H 0.4443 0.4289 0.3937
C182_4 C 0.4495(8) 0.3630(6) 0.4725(5)
C183_4 C 0.3512(6) 0.3288(4) 0.2535(4)
H102_4 H 0.3734 0.3413 0.2418
C184_4 C 0.3498(4) 0.3368(3) 0.2867(4)
C185_4 C 0.3174(6) 0.3181(4) 0.3052(3)
H103_4 H 0.3167 0.3246 0.3272
C186_4 C 0.2853(6) 0.2886(4) 0.2897(4)
H104_4 H 0.2640 0.2742 0.3020
C187_4 C 0.2865(4) 0.2818(3) 0.2561(4)
C188_4 C 0.3184(6) 0.3012(4) 0.2375(3)
H105_4 H 0.3185 0.2964 0.2150
C189_4 C 0.2560(6) 0.2563(4) 0.2409(5)
In4_2 In 0.47245(4) 0.36226(4) 0.53006(3)
In9_2 In 0.22314(6) 0.19421(4) 0.19672(3)
O49_2 O 0.04171(19) 0.40911(28) 0.22215(18)
O50_2 O 0.59089(28) 0.63259(34) 0.22215(18)
O51_2 O 0.36741(34) 0.95829(19) 0.22215(18)
O52_2 O 0.09440(18) 0.42419(26) 0.24433(17)
O53_2 O 0.57581(26) 0.67020(32) 0.24433(17)
O54_2 O 0.32980(32) 0.90560(18) 0.24433(17)
In1_2 In 0.13912(4) 0.69559(4) 0.86339(3)
O9_4 O 0.1589(3) 0.7448(3) 0.8820(2)
O10_4 O 0.1752(3) 0.7164(3) 0.9113(3)
O15_4 O 0.1870(4) 0.6960(4) 0.8430(4)
O16_4 O 0.1336(4) 0.6454(3) 0.8768(4)
C19_4 C 0.2835(3) 0.8700(3) 0.9724(3)
C20_4 C 0.3011(3) 0.9006(4) 0.9561(3)
H11_4 H 0.2953 0.9004 0.9337
C21_4 C 0.3278(3) 0.9331(4) 0.9697(3)
C23_4 C 0.3438(3) 0.9675(4) 0.9525(3)
C24_4 C 0.3258(3) 0.9762(4) 0.9316(3)
H13_4 H 0.3012 0.9586 0.9272
C28_4 C 0.3804(3) 0.9937(4) 0.9587(3)
H16_4 H 0.3938 0.9889 0.9745
C30_4 C 0.2581(3) 0.8384(3) 0.9575(3)
C31_4 C 0.2509(3) 0.8034(3) 0.9679(3)
H17_4 H 0.2616 0.8007 0.9873
C32_4 C 0.2272(3) 0.7721(3) 0.9486(3)
H18_4 H 0.2256 0.7494 0.9529
C33_4 C 0.2063(3) 0.7748(3) 0.9234(3)
C34_4 C 0.2113(4) 0.8097(3) 0.9145(3)
H19_4 H 0.1982 0.8120 0.8967
C35_4 C 0.2360(4) 0.8410(3) 0.9327(3)
H20_4 H 0.2378 0.8638 0.9283
C36_4 C 0.1777(4) 0.7427(5) 0.9038(4)
In2_2 In 0.30441(4) 0.44353(6) 0.86339(3)
O27_4 O 0.2552(3) 0.4141(4) 0.8820(2)
O28_4 O 0.2836(3) 0.4588(4) 0.9113(3)
O33_4 O 0.3040(4) 0.4910(6) 0.8430(4)
O34_4 O 0.3546(3) 0.4882(5) 0.8768(4)
C91_4 C 0.1300(3) 0.4135(4) 0.9724(3)
C92_4 C 0.0994(4) 0.4005(5) 0.9561(3)
H51_4 H 0.0996 0.3949 0.9337
C93_4 C 0.0669(4) 0.3947(5) 0.9697(3)
C95_4 C 0.0325(4) 0.3763(5) 0.9525(3)
C96_4 C 0.0238(4) 0.3496(5) 0.9316(3)
H53_4 H 0.0414 0.3426 0.9272
C100_4 C 0.0063(4) 0.3867(5) 0.9587(3)
H56_4 H 0.0111 0.4049 0.9745
C102_4 C 0.1616(3) 0.4197(4) 0.9575(3)
C103_4 C 0.1966(3) 0.4475(4) 0.9679(3)
H57_4 H 0.1993 0.4609 0.9873
C104_4 C 0.2279(3) 0.4551(4) 0.9486(3)
H58_4 H 0.2506 0.4762 0.9529
C105_4 C 0.2252(3) 0.4315(4) 0.9234(3)
C106_4 C 0.1903(3) 0.4016(5) 0.9145(3)
H59_4 H 0.1880 0.3862 0.8967
C107_4 C 0.1590(3) 0.3950(5) 0.9327(3)
H60_4 H 0.1362 0.3740 0.9283
C108_4 C 0.2573(5) 0.4350(6) 0.9038(4)
In3_2 In 0.55647(6) 0.86088(4) 0.86339(3)
O37_3 O 0.70074(34) 0.62496(19) 0.88882(18)
O38_3 O 0.66313(32) 0.57227(18) 0.91100(17)
O41_4 O 0.5859(4) 0.8411(3) 0.8820(2)
O42_4 O 0.5412(4) 0.8248(3) 0.9113(3)
O47_4 O 0.5090(6) 0.8130(4) 0.8430(4)
O48_4 O 0.5118(5) 0.8664(4) 0.8768(4)
C145_4 C 0.5865(4) 0.7165(3) 0.9724(3)
C146_4 C 0.5995(5) 0.6989(3) 0.9561(3)
H81_4 H 0.6051 0.7047 0.9337
C147_4 C 0.6053(5) 0.6722(3) 0.9697(3)
C149_4 C 0.6237(5) 0.6562(3) 0.9525(3)
C150_4 C 0.6504(5) 0.6742(3) 0.9316(3)
H83_4 H 0.6574 0.6988 0.9272
C151_4 C 0.6685(5) 0.6597(3) 0.9157(3)
H84_4 H 0.6881 0.6735 0.9012
C152_4 C 0.6560(5) 0.6227(3) 0.9226(3)
C153_4 C 0.6292(5) 0.6039(3) 0.9423(3)
H85_4 H 0.6207 0.5787 0.9452
C154_4 C 0.6133(5) 0.6196(3) 0.9587(3)
H86_4 H 0.5951 0.6062 0.9745
C155_4 C 0.6744(5) 0.6055(3) 0.9054(3)
C156_4 C 0.5803(4) 0.7419(3) 0.9575(3)
C157_4 C 0.5525(4) 0.7491(3) 0.9679(3)
H87_4 H 0.5391 0.7384 0.9873
C158_4 C 0.5449(4) 0.7728(3) 0.9486(3)
H88_4 H 0.5238 0.7744 0.9529
C159_4 C 0.5685(4) 0.7937(3) 0.9234(3)
C160_4 C 0.5984(5) 0.7887(4) 0.9145(3)
H89_4 H 0.6138 0.8018 0.8967
C161_4 C 0.6050(5) 0.7640(4) 0.9327(3)
H90_4 H 0.6260 0.7622 0.9283
C162_4 C 0.5650(6) 0.8223(4) 0.9038(4)
Eu4_3 Eu 0.70632(2) 0.575472(18) 0.878295(19)
O55_2 O 0.3319(4) 0.4439(5) 0.8154(3)
O56_2 O 0.5561(5) 0.8879(6) 0.8154(3)
O57_2 O 0.1121(6) 0.6681(4) 0.8154(3)
O58_2 O 0.2770(4) 0.4039(6) 0.8255(5)
O59_2 O 0.5961(6) 0.8730(7) 0.8255(5)
O60_2 O 0.1270(7) 0.7230(4) 0.8255(5)
O61_3 O 0.0846(4) 0.6780(3) 0.8823(4)
O62_3 O 0.3220(3) 0.4067(5) 0.8823(4)
O63_3 O 0.5933(5) 0.9154(4) 0.8823(4)
H106_4 H 0.198464 0.715705 0.825831
H107_4 H 0.179426 0.671511 0.832762
H108_4 H 0.158525 0.648489 0.880916
H109_4 H 0.121165 0.62717 0.858617
H110_4 H 0.284295 0.482759 0.825831
H111_4 H 0.328489 0.507915 0.832762
H112_4 H 0.351511 0.510036 0.880916
H113_4 H 0.37283 0.493995 0.858617
H114_4 H 0.489964 0.841475 0.880916
H115_4 H 0.506005 0.878835 0.858617
H116_4 H 0.517241 0.801536 0.825831
H117_4 H 0.492085 0.820574 0.832762
O29_3 O 0.8894(5) 0.5546(6) 0.4821(3)
O30_3 O 0.9294(6) 0.5397(7) 0.4922(5)
O31_2 O 0.9887(3) 0.7400(5) 0.2156(4)
H62_4 H 0.9950 0.5480 0.2386
C116_4 C 0.9941(3) 0.5663(4) 0.3013(3)
C117_4 C 0.9978(4) 0.5983(6) 0.2843(4)
C118_4 C 0.9844(4) 0.6167(6) 0.3003(4)
C119_4 C 0.9708(4) 0.6086(6) 0.3288(4)
H66_4 H 0.9634 0.6240 0.3387
C120_4 C 0.9660(4) 0.5787(6) 0.3463(4)
C121_4 C 0.9792(4) 0.5567(6) 0.3316(4)
H67_4 H 0.9775 0.5362 0.3426
C122_4 C 0.9500(5) 0.5693(7) 0.3779(5)
C123_4 C 0.9271(5) 0.5780(7) 0.3889(5)
H68_4 H 0.9195 0.5909 0.3750
C124_4 C 0.9134(4) 0.5699(6) 0.4196(4)
H69_4 H 0.8940 0.5739 0.4252
C125_4 C 0.9256(5) 0.5569(7) 0.4411(5)
C126_4 C 0.9527(5) 0.5498(8) 0.4313(5)
H70_4 H 0.9625 0.5395 0.4458
C127_4 C 0.9644(5) 0.5581(7) 0.4000(5)
H71_4 H 0.9846 0.5557 0.3937
C128_4 C 0.9135(6) 0.5505(8) 0.4725(5)
C129_4 C 0.9776(4) 0.6488(6) 0.2535(4)
H72_4 H 0.9679 0.6266 0.2418
C130_4 C 0.9870(3) 0.6502(4) 0.2867(4)
C133_4 C 0.9953(3) 0.7135(4) 0.2561(4)
C134_4 C 0.9828(4) 0.6816(6) 0.2375(3)
H75_4 H 0.9779 0.6815 0.2150
In6_2 In 0.88980(6) 0.52755(4) 0.53006(3)
In8_2 In 0.97108(4) 0.77686(6) 0.19672(3)
O23_3 O 0.92422(28) 0.29926(34) 0.88882(18)
O24_3 O 0.90914(26) 0.33687(32) 0.91100(17)
C97_4 C 0.9912(4) 0.3315(5) 0.9157(3)
H54_4 H 0.9854 0.3119 0.9012
C98_4 C 0.9667(4) 0.3440(5) 0.9226(3)
C99_4 C 0.9747(4) 0.3708(5) 0.9423(3)
H55_4 H 0.9580 0.3793 0.9452
C101_4 C 0.9311(4) 0.3256(5) 0.9054(3)
Eu6_3 Eu 0.869148(27) 0.29368(2) 0.878295(19)
O14_5 O 0.0897(4) 0.6523(3) 0.9264(3)
C57_5 C 0.0045(4) 0.6891(4) 0.9202(4)
C59_5 C 0.0152(4) 0.6660(4) 0.9719(3)
H33_5 H 0.0087 0.6588 0.9939
C60_5 C 0.0447(4) 0.6634(4) 0.9564(4)
H34_5 H 0.0591 0.6565 0.9687
C61_5 C 0.0515(3) 0.6714(3) 0.9228(4)
C62_5 C 0.0321(4) 0.6839(4) 0.9042(3)
H35_5 H 0.0369 0.6888 0.8817
C63_5 C 0.0770(4) 0.6664(4) 0.9076(5)
O37_4 O 0.03407(34) 0.29163(19) 0.55549(18)
C151_5 C 0.0018(5) 0.3264(3) 0.5824(3)
H84_5 H 0.0214 0.3402 0.5679
C155_5 C 0.0077(5) 0.2722(3) 0.5721(3)
Eu4_4 Eu 0.03966(2) 0.242138(18) 0.544961(19)
O11_4 O 0.9985(4) 0.7773(5) 0.1488(3)
O12_4 O 0.9436(4) 0.7373(6) 0.1589(5)
H26_5 H 0.9939 0.7033 0.0054
C48_5 C 0.9460(5) 0.7007(4) 0.0130(4)
H27_5 H 0.8920 0.6892 0.0093
C50_5 C 0.9526(5) 0.7167(5) 0.0446(5)
C51_5 C 0.9842(5) 0.7396(5) 0.0556(5)
C52_5 C 0.9898(5) 0.7533(4) 0.0863(4)
C53_5 C 0.9646(5) 0.7411(5) 0.1078(5)
C54_5 C 0.9304(6) 0.7140(5) 0.0980(5)
H30_5 H 0.9103 0.7042 0.1125
C55_5 C 0.9270(5) 0.7023(5) 0.0667(5)
H31_5 H 0.9044 0.6821 0.0604
C56_5 C 0.9703(6) 0.7532(6) 0.1392(5)
O29_4 O 0.2227(5) 0.2213(6) 0.1488(3)
O30_4 O 0.2627(6) 0.2064(7) 0.1589(5)
H66_5 H 0.2967 0.2907 0.0054
C120_5 C 0.2993(4) 0.2454(6) 0.0130(4)
H67_5 H 0.3108 0.2029 0.0093
C122_5 C 0.2833(5) 0.2360(7) 0.0446(5)
C123_5 C 0.2604(5) 0.2447(7) 0.0556(5)
H68_5 H 0.2528 0.2576 0.0417
C124_5 C 0.2467(4) 0.2366(6) 0.0863(4)
H69_5 H 0.2273 0.2406 0.0919
C125_5 C 0.2589(5) 0.2236(7) 0.1078(5)
C126_5 C 0.2860(5) 0.2165(8) 0.0980(5)
H70_5 H 0.2958 0.2062 0.1125
C127_5 C 0.2977(5) 0.2248(7) 0.0667(5)
H71_5 H 0.3179 0.2224 0.0604
C128_5 C 0.2468(6) 0.2172(8) 0.1392(5)
O43_4 O 0.7787(6) 0.0015(4) 0.1488(3)
O44_4 O 0.7936(7) 0.0564(4) 0.1589(5)
H96_5 H 0.7093 0.0061 0.0054
C174_5 C 0.7546(6) 0.0540(5) 0.0130(4)
H97_5 H 0.7971 0.1080 0.0093
C176_5 C 0.7640(7) 0.0474(5) 0.0446(5)
C177_5 C 0.7553(7) 0.0158(5) 0.0556(5)
C178_5 C 0.7634(6) 0.0102(5) 0.0863(4)
C179_5 C 0.7764(7) 0.0354(5) 0.1078(5)
C180_5 C 0.7835(8) 0.0696(6) 0.0980(5)
H100_5 H 0.7938 0.0897 0.1125
C181_5 C 0.7752(7) 0.0730(5) 0.0667(5)
H101_5 H 0.7776 0.0956 0.0604
C182_5 C 0.7828(8) 0.0297(6) 0.1392(5)
O1_5 O 0.67647(17) 0.51759(15) 0.89485(16)
O2_5 O 0.72160(19) 0.53557(17) 0.86005(17)
O3_5 O 0.71775(19) 0.59503(19) 0.82771(16)
O4_5 O 0.6629(2) 0.55518(18) 0.83876(19)
O5_4 O 0.70837(19) 0.74245(28) 0.55549(18)
O6_4 O 0.76106(18) 0.75753(26) 0.57767(17)
O7_5 O 0.7395(2) 0.58557(18) 0.92426(17)
O8_5 O 0.7650(2) 0.61289(18) 0.8789(2)
O9_5 O 0.4922(3) 0.4115(3) 0.5487(2)
O10_5 O 0.5085(3) 0.3831(3) 0.5780(3)
O15_5 O 0.5203(4) 0.3627(4) 0.5097(4)
O16_5 O 0.4669(4) 0.3121(3) 0.5435(4)
C1_5 C 0.6962(3) 0.5111(3) 0.8764(3)
C2_5 C 0.6896(2) 0.47438(19) 0.8752(2)
C3_5 C 0.7124(2) 0.4663(2) 0.8571(2)
H1_5 H 0.7320 0.4845 0.8448
C4_5 C 0.7056(2) 0.4304(2) 0.8575(2)
H2_5 H 0.7204 0.4244 0.8446
C5_5 C 0.6781(2) 0.4033(2) 0.8760(2)
C6_5 C 0.6556(2) 0.4127(2) 0.8939(2)
H3_5 H 0.6360 0.3946 0.9063
C7_5 C 0.6615(2) 0.4478(2) 0.8936(2)
H4_5 H 0.6464 0.4538 0.9060
C8_5 C 0.6729(2) 0.3684(2) 0.8762(2)
C9_5 C 0.6998(2) 0.3619(2) 0.8758(2)
H5_5 H 0.7238 0.3821 0.8751
C10_5 C 0.6878(3) 0.5759(3) 0.8184(3)
C11_5 C 0.6762(3) 0.5721(3) 0.7862(2)
C12_5 C 0.6410(2) 0.5489(3) 0.7758(2)
H6_5 H 0.6224 0.5348 0.7910
C13_5 C 0.6328(2) 0.5464(3) 0.7411(2)
H7_5 H 0.6088 0.5308 0.7337
C14_5 C 0.6598(3) 0.5666(3) 0.7193(2)
C15_5 C 0.6966(3) 0.5895(3) 0.7296(2)
H8_5 H 0.7152 0.6029 0.7142
C16_5 C 0.7048(2) 0.5918(3) 0.7633(2)
H9_5 H 0.7292 0.6063 0.7706
C17_5 C 0.6516(3) 0.5664(3) 0.6854(3)
C18_5 C 0.6287(3) 0.5364(3) 0.6699(3)
H10_5 H 0.6203 0.5138 0.6806
C19_5 C 0.6168(3) 0.5367(3) 0.6391(3)
C20_5 C 0.6344(3) 0.5673(4) 0.6228(3)
H11_5 H 0.6286 0.5671 0.6004
C21_5 C 0.6611(3) 0.5998(4) 0.6364(3)
C22_5 C 0.6694(3) 0.5985(3) 0.6688(3)
H12_5 H 0.6874 0.6198 0.6794
C23_5 C 0.6771(3) 0.6342(4) 0.6192(3)
C24_5 C 0.6591(3) 0.6429(4) 0.5983(3)
H13_5 H 0.6345 0.6253 0.5939
C25_5 C 0.6736(3) 0.6755(4) 0.5824(3)
H14_5 H 0.6598 0.6813 0.5679
C26_5 C 0.7106(3) 0.7000(4) 0.5893(3)
C27_5 C 0.7294(3) 0.6920(4) 0.6090(3)
H15_5 H 0.7546 0.7087 0.6119
C28_5 C 0.7137(3) 0.6604(4) 0.6254(3)
H16_5 H 0.7271 0.6556 0.6412
C29_5 C 0.7278(3) 0.7356(4) 0.5721(3)
C30_5 C 0.5914(3) 0.5051(3) 0.6242(3)
C31_5 C 0.5842(3) 0.4701(3) 0.6346(3)
H17_5 H 0.5949 0.4674 0.6540
C32_5 C 0.5605(3) 0.4388(3) 0.6153(3)
H18_5 H 0.5589 0.4161 0.6196
C33_5 C 0.5396(3) 0.4415(3) 0.5901(3)
C34_5 C 0.5446(4) 0.4764(3) 0.5812(3)
H19_5 H 0.5315 0.4787 0.5634
C35_5 C 0.5693(4) 0.5077(3) 0.5994(3)
H20_5 H 0.5711 0.5305 0.5950
C36_5 C 0.5110(4) 0.4094(5) 0.5705(4)
C37_5 C 0.7674(3) 0.6063(3) 0.9076(4)
C38_5 C 0.8026(3) 0.6240(3) 0.9228(3)
C39_5 C 0.8340(4) 0.6440(4) 0.9059(4)
H21_5 H 0.8324 0.6470 0.8832
C40_5 C 0.8656(4) 0.6589(4) 0.9189(3)
H22_5 H 0.8863 0.6717 0.9053
C41_5 C 0.8705(4) 0.6569(4) 0.9521(4)
C42_5 C 0.8394(4) 0.6353(4) 0.9704(4)
H23_5 H 0.8415 0.6312 0.9929
C43_5 C 0.8059(4) 0.6198(3) 0.9559(3)
H24_5 H 0.7847 0.6061 0.9687
C44_5 C 0.9055(3) 0.6726(3) 0.9680(3)
C45_5 C 0.9338(4) 0.6689(4) 0.9510(4)
H25_5 H 0.9299 0.6578 0.9301
C46_5 C 0.9656(5) 0.6823(4) 0.9670(4)
C47_5 C 0.9711(4) 0.6959(4) 0.9955(4)
C49_5 C 0.9108(5) 0.6875(4) 0.9983(4)
H32_5 H 0.9920 0.6988 0.9085
C58_5 C 0.9965(3) 0.6797(3) 0.9534(4)
O17_5 O 0.48241(15) 0.15889(23) 0.89485(16)
O18_5 O 0.46443(17) 0.18604(25) 0.86005(17)
C64_5 C 0.4889(3) 0.1852(4) 0.8764(3)
C65_5 C 0.52562(19) 0.21526(28) 0.8752(2)
C66_5 C 0.5337(2) 0.2462(3) 0.8571(2)
H36_5 H 0.5155 0.2476 0.8448
C67_5 C 0.5696(2) 0.2753(3) 0.8575(2)
H37_5 H 0.5756 0.2961 0.8446
C68_5 C 0.5967(2) 0.2749(3) 0.8760(2)
C69_5 C 0.5873(2) 0.2430(3) 0.8939(2)
H38_5 H 0.6054 0.2415 0.9063
C70_5 C 0.5522(2) 0.2138(3) 0.8936(2)
H39_5 H 0.5462 0.1927 0.9060
C71_5 C 0.6316(2) 0.3046(3) 0.8762(2)
C72_5 C 0.6381(2) 0.3380(3) 0.8758(2)
H40_5 H 0.6179 0.3418 0.8751
O19_5 O 0.84111(23) 0.32353(17) 0.89485(16)
O20_5 O 0.81396(25) 0.27840(19) 0.86005(17)
C73_5 C 0.8148(4) 0.3038(3) 0.8764(3)
C74_5 C 0.78474(28) 0.3104(2) 0.8752(2)
C75_5 C 0.7538(3) 0.2876(2) 0.8571(2)
H41_5 H 0.7524 0.2680 0.8448
C76_5 C 0.7247(3) 0.2944(2) 0.8575(2)
H42_5 H 0.7039 0.2796 0.8446
C77_5 C 0.7251(3) 0.3219(2) 0.8760(2)
C78_5 C 0.7570(3) 0.3444(2) 0.8939(2)
H43_5 H 0.7585 0.3640 0.9063
C79_5 C 0.7862(3) 0.3385(2) 0.8936(2)
H44_5 H 0.8073 0.3536 0.9060
C80_5 C 0.6954(3) 0.3271(2) 0.8762(2)
C81_5 C 0.6620(3) 0.3002(2) 0.8758(2)
H45_5 H 0.6582 0.2762 0.8751
O21_5 O 0.40497(19) 0.12273(27) 0.82771(16)
O22_5 O 0.44482(18) 0.10776(27) 0.83876(19)
O24_4 O 0.24247(26) 0.00354(32) 0.57767(17)
O25_5 O 0.41443(18) 0.15397(27) 0.92426(17)
O26_5 O 0.38711(18) 0.15215(27) 0.8789(2)
O27_5 O 0.5885(3) 0.0808(4) 0.5487(2)
O28_5 O 0.6169(3) 0.1255(4) 0.5780(3)
O32_5 O 0.3477(3) 0.4375(5) 0.9264(3)
O33_5 O 0.6373(4) 0.1577(6) 0.5097(4)
O34_5 O 0.6879(3) 0.1549(5) 0.5435(4)
C82_5 C 0.4241(3) 0.1120(4) 0.8184(3)
C83_5 C 0.4279(3) 0.1042(4) 0.7862(2)
C84_5 C 0.4511(3) 0.0922(4) 0.7758(2)
H46_5 H 0.4652 0.0877 0.7910
C85_5 C 0.4536(3) 0.0865(4) 0.7411(2)
H47_5 H 0.4692 0.0781 0.7337
C86_5 C 0.4334(3) 0.0933(4) 0.7193(2)
C87_5 C 0.4105(3) 0.1072(4) 0.7296(2)
H48_5 H 0.3971 0.1124 0.7142
C88_5 C 0.4082(3) 0.1131(4) 0.7633(2)
H49_5 H 0.3937 0.1230 0.7706
C89_5 C 0.4336(3) 0.0853(4) 0.6854(3)
C90_5 C 0.4636(3) 0.0924(4) 0.6699(3)
H50_5 H 0.4862 0.1066 0.6806
C91_5 C 0.4633(3) 0.0802(4) 0.6391(3)
C92_5 C 0.4327(4) 0.0672(5) 0.6228(3)
H51_5 H 0.4329 0.0616 0.6004
C93_5 C 0.4002(4) 0.0614(5) 0.6364(3)
C94_5 C 0.4015(3) 0.0710(4) 0.6688(3)
H52_5 H 0.3802 0.0677 0.6794
C95_5 C 0.3658(4) 0.0430(5) 0.6192(3)
C96_5 C 0.3571(4) 0.0163(5) 0.5983(3)
H53_5 H 0.3747 0.0093 0.5939
C98_5 C 0.3000(4) 0.0107(5) 0.5893(3)
C99_5 C 0.3080(4) 0.0375(5) 0.6090(3)
H55_5 H 0.2913 0.0460 0.6119
C100_5 C 0.3396(4) 0.0534(5) 0.6254(3)
H56_5 H 0.3444 0.0716 0.6412
C102_5 C 0.4949(3) 0.0864(4) 0.6242(3)
C103_5 C 0.5299(3) 0.1142(4) 0.6346(3)
H57_5 H 0.5326 0.1276 0.6540
C104_5 C 0.5612(3) 0.1218(4) 0.6153(3)
H58_5 H 0.5839 0.1429 0.6196
C105_5 C 0.5585(3) 0.0982(4) 0.5901(3)
C106_5 C 0.5236(3) 0.0683(5) 0.5812(3)
H59_5 H 0.5213 0.0529 0.5634
C107_5 C 0.4923(3) 0.0617(5) 0.5994(3)
H60_5 H 0.4695 0.0407 0.5950
C108_5 C 0.5906(5) 0.1017(6) 0.5705(4)
C109_5 C 0.3937(3) 0.1612(4) 0.9076(4)
C110_5 C 0.3760(3) 0.1787(4) 0.9228(3)
C111_5 C 0.3560(4) 0.1901(6) 0.9059(4)
H61_5 H 0.3530 0.1855 0.8832
C112_5 C 0.3411(4) 0.2068(6) 0.9189(3)
H62_5 H 0.3283 0.2147 0.9053
C113_5 C 0.3431(4) 0.2137(6) 0.9521(4)
C114_5 C 0.3647(4) 0.2042(6) 0.9704(4)
H63_5 H 0.3688 0.2104 0.9929
C115_5 C 0.3802(3) 0.1862(5) 0.9559(3)
H64_5 H 0.3939 0.1787 0.9687
C116_5 C 0.3274(3) 0.2330(4) 0.9680(3)
C117_5 C 0.3311(4) 0.2650(6) 0.9510(4)
H65_5 H 0.3422 0.2722 0.9301
C118_5 C 0.3177(4) 0.2834(6) 0.9670(4)
C119_5 C 0.3041(4) 0.2753(6) 0.9955(4)
C121_5 C 0.3125(4) 0.2234(6) 0.9983(4)
C129_5 C 0.3109(4) 0.3155(6) 0.9202(4)
H72_5 H 0.3012 0.2933 0.9085
C130_5 C 0.3203(3) 0.3169(4) 0.9534(4)
C131_5 C 0.3340(4) 0.3493(6) 0.9719(3)
H73_5 H 0.3412 0.3500 0.9939
C132_5 C 0.3366(4) 0.3814(6) 0.9564(4)
H74_5 H 0.3435 0.4027 0.9687
C133_5 C 0.3286(3) 0.3802(4) 0.9228(4)
C134_5 C 0.3161(4) 0.3483(6) 0.9042(3)
H75_5 H 0.3112 0.3482 0.8817
C135_5 C 0.3336(4) 0.4107(6) 0.9076(5)
O35_5 O 0.87727(27) 0.28225(19) 0.82771(16)
O36_5 O 0.89224(27) 0.3371(2) 0.83876(19)
O38_4 O 0.99646(32) 0.23894(18) 0.57767(17)
O39_5 O 0.84603(27) 0.2605(2) 0.92426(17)
O40_5 O 0.84785(27) 0.2350(2) 0.8789(2)
O41_5 O 0.9192(4) 0.5078(3) 0.5487(2)
O42_5 O 0.8745(4) 0.4915(3) 0.5780(3)
O47_5 O 0.8423(6) 0.4797(4) 0.5097(4)
O48_5 O 0.8451(5) 0.5331(4) 0.5435(4)
C136_5 C 0.8880(4) 0.3122(3) 0.8184(3)
C137_5 C 0.8958(4) 0.3238(3) 0.7862(2)
C138_5 C 0.9078(4) 0.3590(2) 0.7758(2)
H76_5 H 0.9123 0.3776 0.7910
C139_5 C 0.9135(4) 0.3672(2) 0.7411(2)
H77_5 H 0.9219 0.3912 0.7337
C140_5 C 0.9067(4) 0.3402(3) 0.7193(2)
C141_5 C 0.8928(4) 0.3034(3) 0.7296(2)
H78_5 H 0.8876 0.2848 0.7142
C142_5 C 0.8869(4) 0.2952(2) 0.7633(2)
H79_5 H 0.8770 0.2708 0.7706
C143_5 C 0.9147(4) 0.3484(3) 0.6854(3)
C144_5 C 0.9076(4) 0.3713(3) 0.6699(3)
H80_5 H 0.8934 0.3797 0.6806
C145_5 C 0.9198(4) 0.3832(3) 0.6391(3)
C146_5 C 0.9328(5) 0.3656(3) 0.6228(3)
H81_5 H 0.9384 0.3714 0.6004
C147_5 C 0.9386(5) 0.3389(3) 0.6364(3)
C148_5 C 0.9290(4) 0.3306(3) 0.6688(3)
H82_5 H 0.9323 0.3126 0.6794
C149_5 C 0.9570(5) 0.3229(3) 0.6192(3)
C150_5 C 0.9837(5) 0.3409(3) 0.5983(3)
H83_5 H 0.9907 0.3655 0.5939
C152_5 C 0.9893(5) 0.2894(3) 0.5893(3)
C153_5 C 0.9625(5) 0.2706(3) 0.6090(3)
H85_5 H 0.9540 0.2454 0.6119
C154_5 C 0.9466(5) 0.2863(3) 0.6254(3)
H86_5 H 0.9284 0.2729 0.6412
C156_5 C 0.9136(4) 0.4086(3) 0.6242(3)
C157_5 C 0.8858(4) 0.4158(3) 0.6346(3)
H87_5 H 0.8724 0.4051 0.6540
C158_5 C 0.8782(4) 0.4395(3) 0.6153(3)
H88_5 H 0.8571 0.4411 0.6196
C159_5 C 0.9018(4) 0.4604(3) 0.5901(3)
C160_5 C 0.9317(5) 0.4554(4) 0.5812(3)
H89_5 H 0.9471 0.4685 0.5634
C161_5 C 0.9383(5) 0.4307(4) 0.5994(3)
H90_5 H 0.9593 0.4289 0.5950
C162_5 C 0.8983(6) 0.4890(4) 0.5705(4)
C163_5 C 0.8388(4) 0.2326(3) 0.9076(4)
C164_5 C 0.8213(4) 0.1974(3) 0.9228(3)
C165_5 C 0.8099(6) 0.1660(4) 0.9059(4)
H91_5 H 0.8145 0.1676 0.8832
C166_5 C 0.7932(6) 0.1344(4) 0.9189(3)
H92_5 H 0.7853 0.1137 0.9053
C167_5 C 0.7863(6) 0.1295(4) 0.9521(4)
C168_5 C 0.7958(6) 0.1606(4) 0.9704(4)
H93_5 H 0.7896 0.1585 0.9929
C169_5 C 0.8138(5) 0.1941(4) 0.9559(3)
H94_5 H 0.8213 0.2153 0.9687
C170_5 C 0.7670(4) 0.0945(3) 0.9680(3)
C171_5 C 0.7350(6) 0.0662(4) 0.9510(4)
H95_5 H 0.7278 0.0701 0.9301
C172_5 C 0.7166(6) 0.0344(5) 0.9670(4)
C173_5 C 0.7247(6) 0.0289(4) 0.9955(4)
C175_5 C 0.7766(6) 0.0892(5) 0.9983(4)
H102_5 H 0.7067 0.0080 0.9085
C184_5 C 0.6831(4) 0.0035(3) 0.9534(4)
Eu5_4 Eu 0.757862(18) 0.797518(27) 0.544961(19)
O61_4 O 0.4180(4) 0.3446(3) 0.5489(4)
O62_4 O 0.6554(3) 0.0733(5) 0.5489(4)
O63_4 O 0.9267(5) 0.5820(4) 0.5489(4)
H106_5 H 0.531797 0.382372 0.492497
H107_5 H 0.51276 0.338178 0.499428
H108_5 H 0.491859 0.315156 0.547583
H109_5 H 0.454498 0.293837 0.525283
H110_5 H 0.617628 0.149426 0.492497
H111_5 H 0.661822 0.174582 0.499428
H112_5 H 0.684844 0.176703 0.547583
H113_5 H 0.706163 0.160662 0.525283
H114_5 H 0.823297 0.508141 0.547583
H115_5 H 0.839338 0.545502 0.525283
H116_5 H 0.850574 0.468203 0.492497
H117_5 H 0.825418 0.48724 0.499428
O23_4 O 0.25755(28) 0.96593(34) 0.55549(18)
C97_5 C 0.3245(4) 0.9982(5) 0.5824(3)
H54_5 H 0.3187 0.9786 0.5679
C101_5 C 0.2644(4) 0.9923(5) 0.5721(3)
O46_5 O 0.5625(5) 0.9103(4) 0.9264(3)
C183_5 C 0.6845(6) 0.9955(4) 0.9202(4)
C185_5 C 0.6507(6) 0.9848(4) 0.9719(3)
H103_5 H 0.6500 0.9913 0.9939
C186_5 C 0.6186(6) 0.9553(4) 0.9564(4)
H104_5 H 0.5973 0.9409 0.9687
C187_5 C 0.6198(4) 0.9485(3) 0.9228(4)
C188_5 C 0.6517(6) 0.9679(4) 0.9042(3)
H105_5 H 0.6518 0.9631 0.8817
C189_5 C 0.5893(6) 0.9230(4) 0.9076(5)
Eu6_4 Eu 0.202482(27) 0.96034(2) 0.544961(19)
O1_6 O 0.00981(17) 0.18425(15) 0.56151(16)
O2_6 O 0.05494(19) 0.20223(17) 0.52671(17)
O3_6 O 0.05109(19) 0.26169(19) 0.49437(16)
O7_6 O 0.0729(2) 0.25223(18) 0.59092(17)
O8_6 O 0.0984(2) 0.27955(18) 0.5455(2)
O14_6 O 0.4231(4) 0.3189(3) 0.5930(3)
C1_6 C 0.0296(3) 0.1777(3) 0.5430(3)
C2_6 C 0.0230(2) 0.14104(19) 0.5418(2)
C3_6 C 0.0458(2) 0.1329(2) 0.5237(2)
H1_6 H 0.0654 0.1511 0.5114
C4_6 C 0.0390(2) 0.0970(2) 0.5241(2)
H2_6 H 0.0538 0.0910 0.5112
C5_6 C 0.0115(2) 0.0699(2) 0.5426(2)
C8_6 C 0.0063(2) 0.0350(2) 0.5428(2)
C9_6 C 0.0332(2) 0.0285(2) 0.5424(2)
H5_6 H 0.0572 0.0487 0.5417
C10_6 C 0.0212(3) 0.2425(3) 0.4850(3)
C11_6 C 0.0096(3) 0.2387(3) 0.4528(2)
C15_6 C 0.0300(3) 0.2561(3) 0.3962(2)
H8_6 H 0.0486 0.2695 0.3808
C16_6 C 0.0382(2) 0.2584(3) 0.4299(2)
H9_6 H 0.0626 0.2729 0.4372
C22_6 C 0.0028(3) 0.2651(3) 0.3354(3)
H12_6 H 0.0208 0.2864 0.3460
C23_6 C 0.0105(3) 0.3008(4) 0.2858(3)
C25_6 C 0.0070(3) 0.3421(4) 0.2490(3)
C26_6 C 0.0440(3) 0.3666(4) 0.2559(3)
C27_6 C 0.0628(3) 0.3586(4) 0.2756(3)
H15_6 H 0.0880 0.3753 0.2785
C28_6 C 0.0471(3) 0.3270(4) 0.2920(3)
H16_6 H 0.0605 0.3222 0.3078
C29_6 C 0.0612(3) 0.4022(4) 0.2387(3)
C37_6 C 0.1008(3) 0.2729(3) 0.5742(4)
C38_6 C 0.1360(3) 0.2906(3) 0.5894(3)
C39_6 C 0.1674(4) 0.3106(4) 0.5725(4)
H21_6 H 0.1658 0.3136 0.5498
C40_6 C 0.1990(4) 0.3255(4) 0.5855(3)
H22_6 H 0.2197 0.3383 0.5719
C41_6 C 0.2039(4) 0.3235(4) 0.6187(4)
C42_6 C 0.1728(4) 0.3019(4) 0.6370(4)
H23_6 H 0.1749 0.2978 0.6595
C43_6 C 0.1393(4) 0.2864(3) 0.6225(3)
H24_6 H 0.1181 0.2727 0.6353
C44_6 C 0.2389(3) 0.3392(3) 0.6346(3)
C45_6 C 0.2672(4) 0.3355(4) 0.6176(4)
H25_6 H 0.2633 0.3244 0.5967
C46_6 C 0.2990(5) 0.3489(4) 0.6336(4)
C47_6 C 0.3045(4) 0.3625(4) 0.6621(4)
H26_6 H 0.3273 0.3699 0.6720
C48_6 C 0.2794(5) 0.3673(4) 0.6796(4)
C49_6 C 0.2442(5) 0.3541(4) 0.6649(4)
H27_6 H 0.2254 0.3558 0.6759
C50_6 C 0.2860(5) 0.3833(5) 0.7112(5)
C51_6 C 0.3176(5) 0.4062(5) 0.7222(5)
H28_5 H 0.3381 0.4138 0.7083
C52_6 C 0.3232(5) 0.4199(4) 0.7529(4)
H29_5 H 0.3466 0.4393 0.7585
C53_6 C 0.2980(5) 0.4077(5) 0.7744(5)
C54_6 C 0.2638(6) 0.3806(5) 0.7646(5)
H30_6 H 0.2437 0.3708 0.7791
C55_6 C 0.2604(5) 0.3689(5) 0.7333(5)
H31_6 H 0.2378 0.3487 0.7270
C56_6 C 0.3037(6) 0.4198(6) 0.8058(5)
C57_6 C 0.3379(4) 0.3557(4) 0.5868(4)
H32_6 H 0.3254 0.3654 0.5751
C58_6 C 0.3299(3) 0.3463(3) 0.6200(4)
C59_6 C 0.3486(4) 0.3326(4) 0.6385(3)
H33_6 H 0.3421 0.3254 0.6605
C60_6 C 0.3781(4) 0.3300(4) 0.6230(4)
H34_6 H 0.3925 0.3231 0.6353
C61_6 C 0.3849(3) 0.3380(3) 0.5894(4)
C62_6 C 0.3655(4) 0.3505(4) 0.5708(3)
H35_6 H 0.3703 0.3554 0.5483
C63_6 C 0.4104(4) 0.3330(4) 0.5742(5)
C78_6 C 0.0904(3) 0.0110(2) 0.5605(2)
H43_6 H 0.0919 0.0306 0.5729
C79_6 C 0.1196(3) 0.0051(2) 0.5602(2)
H44_6 H 0.1407 0.0202 0.5726
O36_6 O 0.22558(27) 0.0037(2) 0.50542(19)
O41_6 O 0.2526(4) 0.1744(3) 0.2153(2)
O42_6 O 0.2079(4) 0.1581(3) 0.2446(3)
O47_6 O 0.1757(6) 0.1463(4) 0.1763(4)
O48_6 O 0.1785(5) 0.1997(4) 0.2101(4)
C138_6 C 0.2412(4) 0.0256(2) 0.4424(2)
H76_6 H 0.2457 0.0442 0.4576
C139_6 C 0.2469(4) 0.0338(2) 0.4077(2)
H77_6 H 0.2553 0.0578 0.4003
C140_6 C 0.2401(4) 0.0068(3) 0.3859(2)
C143_6 C 0.2481(4) 0.0150(3) 0.3520(3)
C144_6 C 0.2410(4) 0.0379(3) 0.3365(3)
H80_6 H 0.2268 0.0463 0.3472
C145_6 C 0.2532(4) 0.0498(3) 0.3057(3)
C146_6 C 0.2662(5) 0.0322(3) 0.2894(3)
H81_6 H 0.2718 0.0380 0.2670
C147_6 C 0.2720(5) 0.0055(3) 0.3030(3)
C150_6 C 0.3171(5) 0.0075(3) 0.2649(3)
H83_6 H 0.3241 0.0321 0.2605
H84_6 H 0.3548 0.0068 0.2345
C156_6 C 0.2470(4) 0.0752(3) 0.2908(3)
C157_6 C 0.2192(4) 0.0824(3) 0.3012(3)
H87_6 H 0.2058 0.0717 0.3206
C158_6 C 0.2116(4) 0.1061(3) 0.2819(3)
H88_6 H 0.1905 0.1077 0.2862
C159_6 C 0.2352(4) 0.1270(3) 0.2567(3)
C160_6 C 0.2651(5) 0.1220(4) 0.2478(3)
H89_6 H 0.2805 0.1351 0.2300
C161_6 C 0.2717(5) 0.0973(4) 0.2660(3)
H90_6 H 0.2927 0.0955 0.2616
C162_6 C 0.2317(6) 0.1556(4) 0.2371(4)
H114_6 H 0.15663 0.174808 0.214249
H115_6 H 0.172672 0.212168 0.19195
H116_6 H 0.183908 0.134869 0.159164
H117_6 H 0.158752 0.153907 0.166095
O19_6 O 0.17445(23) 0.99019(17) 0.56151(16)
O20_6 O 0.14730(25) 0.94506(19) 0.52671(17)
C73_6 C 0.1482(4) 0.9704(3) 0.5430(3)
C74_6 C 0.11808(28) 0.9770(2) 0.5418(2)
C75_6 C 0.0872(3) 0.9542(2) 0.5237(2)
H41_6 H 0.0858 0.9346 0.5114
C76_6 C 0.0581(3) 0.9610(2) 0.5241(2)
H42_6 H 0.0373 0.9462 0.5112
C77_6 C 0.0585(3) 0.9885(2) 0.5426(2)
C80_6 C 0.0288(3) 0.9937(2) 0.5428(2)
O34_6 O 0.0213(3) 0.8215(5) 0.2101(4)
O35_6 O 0.21061(27) 0.94891(19) 0.49437(16)
O39_6 O 0.17937(27) 0.9271(2) 0.59092(17)
O40_6 O 0.18119(27) 0.9016(2) 0.5455(2)
C136_6 C 0.2214(4) 0.9788(3) 0.4850(3)
C137_6 C 0.2292(4) 0.9904(3) 0.4528(2)
C141_6 C 0.2262(4) 0.9700(3) 0.3962(2)
H78_6 H 0.2210 0.9514 0.3808
C142_6 C 0.2203(4) 0.9618(2) 0.4299(2)
H79_6 H 0.2104 0.9374 0.4372
C148_6 C 0.2624(4) 0.9972(3) 0.3354(3)
H82_6 H 0.2657 0.9792 0.3460
C149_6 C 0.2904(5) 0.9895(3) 0.2858(3)
C151_6 C 0.3352(5) 0.9930(3) 0.2490(3)
C152_6 C 0.3227(5) 0.9560(3) 0.2559(3)
C153_6 C 0.2959(5) 0.9372(3) 0.2756(3)
H85_6 H 0.2874 0.9120 0.2785
C154_6 C 0.2800(5) 0.9529(3) 0.2920(3)
H86_6 H 0.2618 0.9395 0.3078
C155_6 C 0.3411(5) 0.9388(3) 0.2387(3)
C163_6 C 0.1722(4) 0.8992(3) 0.5742(4)
C164_6 C 0.1547(4) 0.8640(3) 0.5894(3)
C165_6 C 0.1433(6) 0.8326(4) 0.5725(4)
H91_6 H 0.1479 0.8342 0.5498
C166_6 C 0.1266(6) 0.8010(4) 0.5855(3)
H92_6 H 0.1187 0.7803 0.5719
C167_6 C 0.1197(6) 0.7961(4) 0.6187(4)
C168_6 C 0.1292(6) 0.8272(4) 0.6370(4)
H93_6 H 0.1230 0.8251 0.6595
C169_6 C 0.1472(5) 0.8607(4) 0.6225(3)
H94_6 H 0.1547 0.8819 0.6353
C170_6 C 0.1004(4) 0.7611(3) 0.6346(3)
C171_6 C 0.0684(6) 0.7328(4) 0.6176(4)
H95_6 H 0.0612 0.7367 0.5967
C172_6 C 0.0500(6) 0.7010(5) 0.6336(4)
C173_6 C 0.0581(6) 0.6955(4) 0.6621(4)
H96_6 H 0.0427 0.6727 0.6720
C174_6 C 0.0880(6) 0.7206(5) 0.6796(4)
C175_6 C 0.1100(6) 0.7558(5) 0.6649(4)
H97_6 H 0.1305 0.7746 0.6759
C176_6 C 0.0974(7) 0.7140(5) 0.7112(5)
C177_6 C 0.0887(7) 0.6824(5) 0.7222(5)
H98_5 H 0.0758 0.6619 0.7083
C178_6 C 0.0968(6) 0.6768(5) 0.7529(4)
H99_5 H 0.0928 0.6534 0.7585
C179_6 C 0.1098(7) 0.7020(5) 0.7744(5)
C180_6 C 0.1169(8) 0.7362(6) 0.7646(5)
H100_6 H 0.1272 0.7563 0.7791
C181_6 C 0.1086(7) 0.7396(5) 0.7333(5)
H101_6 H 0.1110 0.7622 0.7270
C182_6 C 0.1162(8) 0.6963(6) 0.8058(5)
C183_6 C 0.0179(6) 0.6621(4) 0.5868(4)
H102_6 H 0.0401 0.6746 0.5751
C184_6 C 0.0165(4) 0.6701(3) 0.6200(4)
H112_6 H 0.0181777 0.84337 0.214249
H113_6 H 0.0394967 0.827328 0.19195
O4_6 O 0.9963(2) 0.22184(18) 0.50542(19)
O9_6 O 0.8256(3) 0.0781(3) 0.2153(2)
O10_6 O 0.8419(3) 0.0497(3) 0.2446(3)
O15_6 O 0.8537(4) 0.0293(4) 0.1763(4)
C6_6 C 0.9890(2) 0.0793(2) 0.5605(2)
H3_6 H 0.9694 0.0612 0.5729
C7_6 C 0.9949(2) 0.1144(2) 0.5602(2)
H4_6 H 0.9798 0.1204 0.5726
C12_6 C 0.9744(2) 0.2155(3) 0.4424(2)
H6_6 H 0.9558 0.2014 0.4576
C13_6 C 0.9662(2) 0.2130(3) 0.4077(2)
H7_6 H 0.9422 0.1974 0.4003
C14_6 C 0.9932(3) 0.2332(3) 0.3859(2)
C17_6 C 0.9850(3) 0.2330(3) 0.3520(3)
C18_6 C 0.9621(3) 0.2030(3) 0.3365(3)
H10_6 H 0.9537 0.1804 0.3472
C19_6 C 0.9502(3) 0.2033(3) 0.3057(3)
C20_6 C 0.9678(3) 0.2339(4) 0.2894(3)
H11_6 H 0.9620 0.2337 0.2670
C21_6 C 0.9945(3) 0.2664(4) 0.3030(3)
C24_6 C 0.9925(3) 0.3095(4) 0.2649(3)
H13_6 H 0.9679 0.2919 0.2605
H14_6 H 0.9932 0.3479 0.2345
C30_6 C 0.9248(3) 0.1717(3) 0.2908(3)
C31_6 C 0.9176(3) 0.1367(3) 0.3012(3)
H17_6 H 0.9283 0.1340 0.3206
C32_6 C 0.8939(3) 0.1054(3) 0.2819(3)
H18_6 H 0.8923 0.0827 0.2862
C33_6 C 0.8730(3) 0.1081(3) 0.2567(3)
C34_6 C 0.8780(4) 0.1430(3) 0.2478(3)
H19_6 H 0.8649 0.1453 0.2300
C35_6 C 0.9027(4) 0.1743(3) 0.2660(3)
H20_6 H 0.9045 0.1971 0.2616
C36_6 C 0.8444(4) 0.0760(5) 0.2371(4)
C72_6 C 0.9715(2) 0.0046(3) 0.5424(2)
H40_6 H 0.9513 0.0084 0.5417
O32_6 O 0.6811(3) 0.1041(5) 0.5930(3)
C131_6 C 0.6674(4) 0.0159(6) 0.6385(3)
H73_6 H 0.6746 0.0166 0.6605
C132_6 C 0.6700(4) 0.0480(6) 0.6230(4)
H74_6 H 0.6769 0.0693 0.6353
C133_6 C 0.6620(3) 0.0468(4) 0.5894(4)
C134_6 C 0.6495(4) 0.0149(6) 0.5708(3)
H75_6 H 0.6446 0.0148 0.5483
C135_6 C 0.6670(4) 0.0773(6) 0.5742(5)
H106_6 H 0.865131 0.0490385 0.159164
H107_6 H 0.846093 0.00484463 0.166095
O16_6 O 0.8003(4) 0.9787(3) 0.2101(4)
O17_6 O 0.81575(15) 0.82555(23) 0.56151(16)
O18_6 O 0.79777(17) 0.85270(25) 0.52671(17)
C64_6 C 0.8223(3) 0.8518(4) 0.5430(3)
C65_6 C 0.85896(19) 0.88192(28) 0.5418(2)
C66_6 C 0.8671(2) 0.9128(3) 0.5237(2)
H36_6 H 0.8489 0.9142 0.5114
C67_6 C 0.9030(2) 0.9419(3) 0.5241(2)
H37_6 H 0.9090 0.9627 0.5112
C68_6 C 0.9301(2) 0.9415(3) 0.5426(2)
C69_6 C 0.9207(2) 0.9096(3) 0.5605(2)
H38_6 H 0.9388 0.9081 0.5729
C70_6 C 0.8856(2) 0.8804(3) 0.5602(2)
H39_6 H 0.8796 0.8593 0.5726
C71_6 C 0.9650(2) 0.9712(3) 0.5428(2)
C81_6 C 0.9954(3) 0.9668(2) 0.5424(2)
H45_6 H 0.9916 0.9428 0.5417
O21_6 O 0.73831(19) 0.78939(27) 0.49437(16)
O22_6 O 0.77816(18) 0.77442(27) 0.50542(19)
O25_6 O 0.74777(18) 0.82063(27) 0.59092(17)
O26_6 O 0.72045(18) 0.81881(27) 0.5455(2)
O27_6 O 0.9219(3) 0.7474(4) 0.2153(2)
O28_6 O 0.9503(3) 0.7921(4) 0.2446(3)
O33_6 O 0.9707(4) 0.8243(6) 0.1763(4)
C82_6 C 0.7575(3) 0.7786(4) 0.4850(3)
C83_6 C 0.7613(3) 0.7708(4) 0.4528(2)
C84_6 C 0.7845(3) 0.7588(4) 0.4424(2)
H46_6 H 0.7986 0.7543 0.4576
C85_6 C 0.7870(3) 0.7531(4) 0.4077(2)
H47_6 H 0.8026 0.7447 0.4003
C86_6 C 0.7668(3) 0.7599(4) 0.3859(2)
C87_6 C 0.7439(3) 0.7738(4) 0.3962(2)
H48_6 H 0.7305 0.7790 0.3808
C88_6 C 0.7416(3) 0.7797(4) 0.4299(2)
H49_6 H 0.7271 0.7896 0.4372
C89_6 C 0.7670(3) 0.7519(4) 0.3520(3)
C90_6 C 0.7970(3) 0.7590(4) 0.3365(3)
H50_6 H 0.8196 0.7732 0.3472
C91_6 C 0.7967(3) 0.7468(4) 0.3057(3)
C92_6 C 0.7661(4) 0.7338(5) 0.2894(3)
H51_6 H 0.7663 0.7282 0.2670
C93_6 C 0.7336(4) 0.7280(5) 0.3030(3)
C94_6 C 0.7349(3) 0.7376(4) 0.3354(3)
H52_6 H 0.7136 0.7343 0.3460
C95_6 C 0.6992(4) 0.7096(5) 0.2858(3)
C96_6 C 0.6905(4) 0.6829(5) 0.2649(3)
H53_6 H 0.7081 0.6759 0.2605
C97_6 C 0.6579(4) 0.6648(5) 0.2490(3)
H54_6 H 0.6521 0.6452 0.2345
C98_6 C 0.6334(4) 0.6773(5) 0.2559(3)
C99_6 C 0.6414(4) 0.7041(5) 0.2756(3)
H55_6 H 0.6247 0.7126 0.2785
C100_6 C 0.6730(4) 0.7200(5) 0.2920(3)
H56_6 H 0.6778 0.7382 0.3078
C101_6 C 0.5978(4) 0.6589(5) 0.2387(3)
C102_6 C 0.8283(3) 0.7530(4) 0.2908(3)
C103_6 C 0.8633(3) 0.7808(4) 0.3012(3)
H57_6 H 0.8660 0.7942 0.3206
C104_6 C 0.8946(3) 0.7884(4) 0.2819(3)
H58_6 H 0.9173 0.8095 0.2862
C105_6 C 0.8919(3) 0.7648(4) 0.2567(3)
C106_6 C 0.8570(3) 0.7349(5) 0.2478(3)
H59_6 H 0.8547 0.7195 0.2300
C107_6 C 0.8257(3) 0.7283(5) 0.2660(3)
H60_6 H 0.8029 0.7073 0.2616
C108_6 C 0.9240(5) 0.7683(6) 0.2371(4)
C109_6 C 0.7271(3) 0.8278(4) 0.5742(4)
C110_6 C 0.7094(3) 0.8453(4) 0.5894(3)
C111_6 C 0.6894(4) 0.8567(6) 0.5725(4)
H61_6 H 0.6864 0.8521 0.5498
C112_6 C 0.6745(4) 0.8734(6) 0.5855(3)
H62_6 H 0.6617 0.8813 0.5719
C113_6 C 0.6765(4) 0.8803(6) 0.6187(4)
C114_6 C 0.6981(4) 0.8708(6) 0.6370(4)
H63_6 H 0.7022 0.8770 0.6595
C115_6 C 0.7136(3) 0.8528(5) 0.6225(3)
H64_6 H 0.7273 0.8453 0.6353
C116_6 C 0.6608(3) 0.8996(4) 0.6346(3)
C117_6 C 0.6645(4) 0.9316(6) 0.6176(4)
H65_6 H 0.6756 0.9388 0.5967
C118_6 C 0.6511(4) 0.9500(6) 0.6336(4)
C119_6 C 0.6375(4) 0.9419(6) 0.6621(4)
H66_6 H 0.6301 0.9573 0.6720
C120_6 C 0.6327(4) 0.9120(6) 0.6796(4)
C121_6 C 0.6459(4) 0.8900(6) 0.6649(4)
H67_6 H 0.6442 0.8695 0.6759
C122_6 C 0.6167(5) 0.9026(7) 0.7112(5)
C123_6 C 0.5938(5) 0.9113(7) 0.7222(5)
H68_6 H 0.5862 0.9242 0.7083
C124_6 C 0.5801(4) 0.9032(6) 0.7529(4)
H69_6 H 0.5607 0.9072 0.7585
C125_6 C 0.5923(5) 0.8902(7) 0.7744(5)
C126_6 C 0.6194(5) 0.8831(8) 0.7646(5)
H70_6 H 0.6292 0.8728 0.7791
C127_6 C 0.6311(5) 0.8914(7) 0.7333(5)
H71_6 H 0.6513 0.8890 0.7270
C128_6 C 0.5802(6) 0.8838(8) 0.8058(5)
C129_6 C 0.6443(4) 0.9821(6) 0.5868(4)
H72_6 H 0.6346 0.9599 0.5751
C130_6 C 0.6537(3) 0.9835(4) 0.6200(4)
O46_6 O 0.8959(5) 0.5769(4) 0.5930(3)
C185_6 C 0.9841(6) 0.6514(4) 0.6385(3)
H103_6 H 0.9834 0.6579 0.6605
C186_6 C 0.9520(6) 0.6219(4) 0.6230(4)
H104_6 H 0.9307 0.6075 0.6353
C187_6 C 0.9532(4) 0.6151(3) 0.5894(4)
C188_6 C 0.9851(6) 0.6345(4) 0.5708(3)
H105_6 H 0.9852 0.6297 0.5483
C189_6 C 0.9227(6) 0.5896(4) 0.5742(5)
H108_6 H 0.825192 0.981822 0.214249
H109_6 H 0.787832 0.960503 0.19195
H110_6 H 0.950962 0.816092 0.159164
H111_6 H 0.995155 0.841248 0.166095
H28_6 H 0.0047 0.7472 0.0417
H29_6 H 0.0132 0.7727 0.0919
H98_6 H 0.7424 0.9953 0.0417
H99_6 H 0.7594 0.9868 0.0919
loop_
_geom_bond_atom_site_label_1
_geom_bond_atom_site_label_2
_geom_bond_site_symmetry_1
_geom_bond_site_symmetry_2
O23 C101 1_555 1_555
O24 C101 1_555 1_555
H54 C97 1_555 1_555
C98 C97 1_555 1_555
C99 C98 1_555 1_555
H55 C99 1_555 1_555
C101 C98 1_555 1_555
Eu6 O23 1_555 1_555
O24 Eu6 1_555 1_555
O29 C128 1_555 1_555
O30 C128 1_555 1_555
C117 C116 1_555 1_555
C118 C117 1_555 1_555
C119 C118 1_555 1_555
H66 C119 1_555 1_555
C120 C119 1_555 1_555
C121 C116 1_555 1_555
H67 C121 1_555 1_555
C122 C120 1_555 1_555
C123 C122 1_555 1_555
H68 C123 1_555 1_555
C124 C123 1_555 1_555
H69 C124 1_555 1_555
C125 C124 1_555 1_555
C126 C125 1_555 1_555
H70 C126 1_555 1_555
C127 C122 1_555 1_555
H71 C127 1_555 1_555
C128 C125 1_555 1_555
C129 H72 1_555 1_555
C130 C118 1_555 1_555
C134 C129 1_555 1_555
H75 C134 1_555 1_555
In6 O29 1_555 1_555
In8 O31 1_555 1_555
O30 In6 1_555 1_555
C120 C121 1_555 1_555
C126 C127 1_555 1_555
C129 C130 1_555 1_555
C133 C134 1_555 1_555
In1 O9 1_555 1_555
O9 C36 1_555 1_555
O10 In1 1_555 1_555
O15 In1 1_555 1_555
O16 In1 1_555 1_555
C20 C19 1_555 1_555
H11 C20 1_555 1_555
C21 C20 1_555 1_555
C23 C21 1_555 1_555
C24 C23 1_555 1_555
H13 C24 1_555 1_555
C28 C23 1_555 1_555
H16 C28 1_555 1_555
C30 C19 1_555 1_555
C31 C30 1_555 1_555
H17 C31 1_555 1_555
C32 C31 1_555 1_555
H18 C32 1_555 1_555
C33 C32 1_555 1_555
C34 C33 1_555 1_555
H19 C34 1_555 1_555
C35 C30 1_555 1_555
H20 C35 1_555 1_555
C36 O10 1_555 1_555
In2 O27 1_555 1_555
O27 C108 1_555 1_555
O28 In2 1_555 1_555
O33 In2 1_555 1_555
O34 In2 1_555 1_555
C92 C91 1_555 1_555
H51 C92 1_555 1_555
C93 C92 1_555 1_555
C95 C93 1_555 1_555
C96 C95 1_555 1_555
H53 C96 1_555 1_555
C100 C95 1_555 1_555
H56 C100 1_555 1_555
C102 C91 1_555 1_555
C103 C102 1_555 1_555
H57 C103 1_555 1_555
C104 C103 1_555 1_555
H58 C104 1_555 1_555
C105 C104 1_555 1_555
C106 C105 1_555 1_555
H59 C106 1_555 1_555
C107 C102 1_555 1_555
H60 C107 1_555 1_555
C108 O28 1_555 1_555
In3 O41 1_555 1_555
O37 C155 1_555 1_555
O38 C155 1_555 1_555
O41 C162 1_555 1_555
O42 In3 1_555 1_555
O47 In3 1_555 1_555
O48 In3 1_555 1_555
C146 C145 1_555 1_555
H81 C146 1_555 1_555
C147 C146 1_555 1_555
C149 C147 1_555 1_555
C150 C149 1_555 1_555
H83 C150 1_555 1_555
C151 C150 1_555 1_555
H84 C151 1_555 1_555
C152 C151 1_555 1_555
C153 C152 1_555 1_555
H85 C153 1_555 1_555
C154 C149 1_555 1_555
H86 C154 1_555 1_555
C155 C152 1_555 1_555
C156 C145 1_555 1_555
C157 C156 1_555 1_555
H87 C157 1_555 1_555
C158 C157 1_555 1_555
H88 C158 1_555 1_555
C159 C158 1_555 1_555
C160 C159 1_555 1_555
H89 C160 1_555 1_555
C161 C156 1_555 1_555
H90 C161 1_555 1_555
C162 O42 1_555 1_555
Eu4 O37 1_555 1_555
O55 In2 1_555 1_555
O56 In3 1_555 1_555
O57 In1 1_555 1_555
O58 In2 1_555 1_555
O59 In3 1_555 1_555
O60 In1 1_555 1_555
O61 In1 1_555 1_555
O62 In2 1_555 1_555
O63 In3 1_555 1_555
C33 C36 1_555 1_555
C34 C35 1_555 1_555
C105 C108 1_555 1_555
C106 C107 1_555 1_555
O38 Eu4 1_555 1_555
C153 C154 1_555 1_555
C159 C162 1_555 1_555
C160 C161 1_555 1_555
O15 H106 1_555 1_555
O15 H107 1_555 1_555
O16 H108 1_555 1_555
O16 H109 1_555 1_555
O33 H110 1_555 1_555
O33 H111 1_555 1_555
O34 H112 1_555 1_555
O34 H113 1_555 1_555
O48 H114 1_555 1_555
O48 H115 1_555 1_555
O47 H116 1_555 1_555
O47 H117 1_555 1_555
Eu1 O1 1_555 1_555
O1 C1 1_555 1_555
O2 Eu1 1_555 1_555
O3 Eu1 1_555 1_555
O4 Eu1 1_555 1_555
O7 Eu1 1_555 1_555
O8 Eu1 1_555 1_555
O14 C63 1_555 1_555
C1 O2 1_555 1_555
C2 C1 1_555 1_555
C3 C2 1_555 1_555
H1 C3 1_555 1_555
C4 C3 1_555 1_555
H2 C4 1_555 1_555
C5 C4 1_555 1_555
C6 C5 1_555 1_555
H3 C6 1_555 1_555
C7 C2 1_555 1_555
H4 C7 1_555 1_555
C8 C5 1_555 1_555
C9 C8 1_555 1_555
H5 C9 1_555 1_555
C10 O3 1_555 1_555
C11 C10 1_555 1_555
C12 C11 1_555 1_555
H6 C12 1_555 1_555
C13 C12 1_555 1_555
H7 C13 1_555 1_555
C14 C13 1_555 1_555
C15 C14 1_555 1_555
H8 C15 1_555 1_555
C16 C11 1_555 1_555
H9 C16 1_555 1_555
C17 C14 1_555 1_555
C18 C17 1_555 1_555
H10 C18 1_555 1_555
C22 C17 1_555 1_555
H12 C22 1_555 1_555
C37 O7 1_555 1_555
C38 C37 1_555 1_555
C39 C38 1_555 1_555
H21 C39 1_555 1_555
C40 C39 1_555 1_555
C41 C40 1_555 1_555
C42 C41 1_555 1_555
H23 C42 1_555 1_555
C43 C38 1_555 1_555
H24 C43 1_555 1_555
H33 C59 1_555 1_555
C60 C59 1_555 1_555
H34 C60 1_555 1_555
O17 C64 1_555 1_555
O18 C64 1_555 1_555
C64 C65 1_555 1_555
C65 C66 1_555 1_555
C66 H36 1_555 1_555
C67 C66 1_555 1_555
H37 C67 1_555 1_555
C68 C67 1_555 1_555
C69 C68 1_555 1_555
H38 C69 1_555 1_555
C70 C65 1_555 1_555
H39 C70 1_555 1_555
C71 C68 1_555 1_555
C72 C8 1_555 1_555
H40 C72 1_555 1_555
O19 C73 1_555 1_555
O20 C73 1_555 1_555
C73 C74 1_555 1_555
C74 C75 1_555 1_555
C75 H41 1_555 1_555
C76 C75 1_555 1_555
H42 C76 1_555 1_555
C77 C76 1_555 1_555
C78 C77 1_555 1_555
H43 C78 1_555 1_555
C79 C74 1_555 1_555
H44 C79 1_555 1_555
C80 C9 1_555 1_555
C81 C71 1_555 1_555
H45 C81 1_555 1_555
Eu2 O17 1_555 1_555
O21 Eu2 1_555 1_555
O22 Eu2 1_555 1_555
O25 Eu2 1_555 1_555
O26 Eu2 1_555 1_555
O32 C135 1_555 1_555
C82 O21 1_555 1_555
C83 C82 1_555 1_555
C84 C83 1_555 1_555
H46 C84 1_555 1_555
C85 C84 1_555 1_555
H47 C85 1_555 1_555
C86 C85 1_555 1_555
C87 C86 1_555 1_555
H48 C87 1_555 1_555
C88 C83 1_555 1_555
H49 C88 1_555 1_555
C89 C86 1_555 1_555
C90 C89 1_555 1_555
H50 C90 1_555 1_555
C94 C89 1_555 1_555
H52 C94 1_555 1_555
C109 O25 1_555 1_555
C110 C109 1_555 1_555
C111 C110 1_555 1_555
H61 C111 1_555 1_555
C112 C111 1_555 1_555
C113 C112 1_555 1_555
C114 C113 1_555 1_555
H63 C114 1_555 1_555
C115 C110 1_555 1_555
H64 C115 1_555 1_555
H73 C131 1_555 1_555
C132 C131 1_555 1_555
H74 C132 1_555 1_555
Eu3 O19 1_555 1_555
O35 Eu3 1_555 1_555
O36 Eu3 1_555 1_555
O39 Eu3 1_555 1_555
O40 Eu3 1_555 1_555
O43 C182 1_555 1_555
O44 C182 1_555 1_555
O45 C189 1_555 1_555
O46 C189 1_555 1_555
C136 O35 1_555 1_555
C137 C136 1_555 1_555
C138 C137 1_555 1_555
H76 C138 1_555 1_555
C139 C138 1_555 1_555
H77 C139 1_555 1_555
C140 C139 1_555 1_555
C141 C140 1_555 1_555
H78 C141 1_555 1_555
C142 C137 1_555 1_555
H79 C142 1_555 1_555
C143 C140 1_555 1_555
C144 C143 1_555 1_555
H80 C144 1_555 1_555
C148 C143 1_555 1_555
H82 C148 1_555 1_555
C163 O39 1_555 1_555
C164 C163 1_555 1_555
C165 C164 1_555 1_555
H91 C165 1_555 1_555
C166 C165 1_555 1_555
H92 C166 1_555 1_555
C167 C166 1_555 1_555
C168 C167 1_555 1_555
H93 C168 1_555 1_555
C169 C164 1_555 1_555
H94 C169 1_555 1_555
C170 C167 1_555 1_555
C171 C170 1_555 1_555
H95 C171 1_555 1_555
C172 C171 1_555 1_555
C173 C172 1_555 1_555
H96 C173 1_555 1_555
C174 C173 1_555 1_555
C175 C170 1_555 1_555
H97 C175 1_555 1_555
C176 C174 1_555 1_555
C177 C176 1_555 1_555
H98 C177 1_555 1_555
C178 C177 1_555 1_555
H99 C178 1_555 1_555
C179 C178 1_555 1_555
C180 C179 1_555 1_555
H100 C180 1_555 1_555
C181 C176 1_555 1_555
H101 C181 1_555 1_555
C182 C179 1_555 1_555
C183 H102 1_555 1_555
C184 C172 1_555 1_555
C185 C184 1_555 1_555
H103 C185 1_555 1_555
C186 C185 1_555 1_555
H104 C186 1_555 1_555
C187 C186 1_555 1_555
C188 C183 1_555 1_555
H105 C188 1_555 1_555
C189 C187 1_555 1_555
In4 O43 1_555 1_555
In9 O45 1_555 1_555
O49 Eu2 1_555 1_555
O50 Eu3 1_555 1_555
O51 Eu1 1_555 1_555
O52 Eu2 1_555 1_555
O53 Eu3 1_555 1_555
O54 Eu1 1_555 1_555
O4 C10 1_555 1_555
O8 C37 1_555 1_555
C6 C7 1_555 1_555
C15 C16 1_555 1_555
C42 C43 1_555 1_555
O18 Eu2 1_555 1_555
C69 C70 1_555 1_555
C71 C72 1_555 1_555
O20 Eu3 1_555 1_555
C77 C80 1_555 1_555
C78 C79 1_555 1_555
C80 C81 1_555 1_555
O22 C82 1_555 1_555
O26 C109 1_555 1_555
C87 C88 1_555 1_555
C114 C115 1_555 1_555
O36 C136 1_555 1_555
O40 C163 1_555 1_555
O44 In4 1_555 1_555
C141 C142 1_555 1_555
C168 C169 1_555 1_555
C174 C175 1_555 1_555
C180 C181 1_555 1_555
C183 C184 1_555 1_555
C187 C188 1_555 1_555
O5 C29 1_555 1_555
O6 C29 1_555 1_555
H14 C25 1_555 1_555
C26 C25 1_555 1_555
C27 C26 1_555 1_555
H15 C27 1_555 1_555
C29 C26 1_555 1_555
Eu5 O5 1_555 1_555
O6 Eu5 1_555 1_555
O11 C56 1_555 1_555
O12 C56 1_555 1_555
C45 C44 1_555 1_555
C46 C45 1_555 1_555
C47 C46 1_555 1_555
H26 C47 1_555 1_555
C48 C47 1_555 1_555
C49 C44 1_555 1_555
H27 C49 1_555 1_555
C50 C48 1_555 1_555
C51 C50 1_555 1_555
H28 C51 1_555 1_555
C52 C51 1_555 1_555
H29 C52 1_555 1_555
C53 C52 1_555 1_555
C54 C53 1_555 1_555
H30 C54 1_555 1_555
C55 C50 1_555 1_555
H31 C55 1_555 1_555
C56 C53 1_555 1_555
C57 H32 1_555 1_555
C58 C46 1_555 1_555
C62 C57 1_555 1_555
H35 C62 1_555 1_555
In5 O11 1_555 1_555
In7 O13 1_555 1_555
O12 In5 1_555 1_555
C48 C49 1_555 1_555
C54 C55 1_555 1_555
C57 C58 1_555 1_555
C61 C62 1_555 1_555
O23_2 C101_2 1_555 1_555
H54_2 C97_2 1_555 1_555
O63 C189_2 1_555 1_555
O46_2 C189_2 1_555 1_555
H103_2 C185_2 1_555 1_555
C186_2 C185_2 1_555 1_555
H104_2 C186_2 1_555 1_555
C187_2 C186_2 1_555 1_555
C188_2 C183_2 1_555 1_555
H105_2 C188_2 1_555 1_555
C189_2 C187_2 1_555 1_555
Eu6_2 O23_2 1_555 1_555
C187_2 C188_2 1_555 1_555
Eu4 O1_2 1_555 1_555
In4 O9_2 1_555 1_555
O1_2 C1_2 1_555 1_555
O2_2 Eu4 1_555 1_555
O3_2 Eu4 1_555 1_555
O4_2 Eu4 1_555 1_555
O5_2 C29_2 1_555 1_555
O6_2 C29_2 1_555 1_555
O7_2 Eu4 1_555 1_555
O8_2 Eu4 1_555 1_555
O9_2 C36_2 1_555 1_555
O10_2 In4 1_555 1_555
O15_2 In4 1_555 1_555
O16_2 In4 1_555 1_555
C1_2 O2_2 1_555 1_555
C2_2 C1_2 1_555 1_555
C3_2 C2_2 1_555 1_555
H1_2 C3_2 1_555 1_555
C4_2 C3_2 1_555 1_555
H2_2 C4_2 1_555 1_555
C5_2 C4_2 1_555 1_555
C6_2 C5_2 1_555 1_555
H3_2 C6_2 1_555 1_555
C7_2 C2_2 1_555 1_555
H4_2 C7_2 1_555 1_555
C8_2 C5_2 1_555 1_555
C9_2 C8_2 1_555 1_555
H5_2 C9_2 1_555 1_555
C10_2 O3_2 1_555 1_555
C11_2 C10_2 1_555 1_555
C12_2 C11_2 1_555 1_555
H6_2 C12_2 1_555 1_555
C13_2 C12_2 1_555 1_555
H7_2 C13_2 1_555 1_555
C14_2 C13_2 1_555 1_555
C15_2 C14_2 1_555 1_555
H8_2 C15_2 1_555 1_555
C16_2 C11_2 1_555 1_555
H9_2 C16_2 1_555 1_555
C17_2 C14_2 1_555 1_555
C18_2 C17_2 1_555 1_555
H10_2 C18_2 1_555 1_555
C19_2 C18_2 1_555 1_555
C20_2 C19_2 1_555 1_555
H11_2 C20_2 1_555 1_555
C21_2 C20_2 1_555 1_555
C22_2 C17_2 1_555 1_555
H12_2 C22_2 1_555 1_555
C23_2 C21_2 1_555 1_555
C24_2 C23_2 1_555 1_555
H13_2 C24_2 1_555 1_555
C25_2 C24_2 1_555 1_555
H14_2 C25_2 1_555 1_555
C26_2 C25_2 1_555 1_555
C27_2 C26_2 1_555 1_555
H15_2 C27_2 1_555 1_555
C28_2 C23_2 1_555 1_555
H16_2 C28_2 1_555 1_555
C29_2 C26_2 1_555 1_555
C30_2 C19_2 1_555 1_555
C31_2 C30_2 1_555 1_555
H17_2 C31_2 1_555 1_555
C32_2 C31_2 1_555 1_555
H18_2 C32_2 1_555 1_555
C33_2 C32_2 1_555 1_555
C34_2 C33_2 1_555 1_555
H19_2 C34_2 1_555 1_555
C35_2 C30_2 1_555 1_555
H20_2 C35_2 1_555 1_555
C36_2 O10_2 1_555 1_555
C37_2 O7_2 1_555 1_555
C38_2 C37_2 1_555 1_555
C39_2 C38_2 1_555 1_555
H21_2 C39_2 1_555 1_555
C40_2 C39_2 1_555 1_555
H22_2 C40_2 1_555 1_555
C41_2 C40_2 1_555 1_555
C42_2 C41_2 1_555 1_555
H23_2 C42_2 1_555 1_555
C43_2 C38_2 1_555 1_555
H24_2 C43_2 1_555 1_555
C44_2 C41_2 1_555 1_555
C45_2 C44_2 1_555 1_555
H25_2 C45_2 1_555 1_555
C46_2 C45_2 1_555 1_555
C47_2 C46_2 1_555 1_555
C49_2 C44_2 1_555 1_555
C58_2 C46_2 1_555 1_555
O17_2 C64_2 1_555 1_555
O18_2 C64_2 1_555 1_555
C64_2 C65_2 1_555 1_555
C65_2 C66_2 1_555 1_555
C66_2 H36_2 1_555 1_555
C67_2 C66_2 1_555 1_555
H37_2 C67_2 1_555 1_555
C68_2 C67_2 1_555 1_555
C69_2 C68_2 1_555 1_555
H38_2 C69_2 1_555 1_555
C70_2 C65_2 1_555 1_555
H39_2 C70_2 1_555 1_555
C71_2 C68_2 1_555 1_555
C72_2 C8_2 1_555 1_555
H40_2 C72_2 1_555 1_555
O19_2 C73_2 1_555 1_555
O20_2 C73_2 1_555 1_555
C73_2 C74_2 1_555 1_555
C74_2 C75_2 1_555 1_555
C75_2 H41_2 1_555 1_555
C76_2 C75_2 1_555 1_555
H42_2 C76_2 1_555 1_555
C77_2 C76_2 1_555 1_555
C78_2 C77_2 1_555 1_555
H43_2 C78_2 1_555 1_555
C79_2 C74_2 1_555 1_555
H44_2 C79_2 1_555 1_555
C80_2 C9_2 1_555 1_555
C81_2 C71_2 1_555 1_555
H45_2 C81_2 1_555 1_555
Eu5 O17_2 1_555 1_555
In5 O27_2 1_555 1_555
O21_2 Eu5 1_555 1_555
O22_2 Eu5 1_555 1_555
O25_2 Eu5 1_555 1_555
O26_2 Eu5 1_555 1_555
O27_2 C108_2 1_555 1_555
O28_2 In5 1_555 1_555
O62 C135_2 1_555 1_555
O32_2 C135_2 1_555 1_555
O33_2 In5 1_555 1_555
O34_2 In5 1_555 1_555
C82_2 O21_2 1_555 1_555
C83_2 C82_2 1_555 1_555
C84_2 C83_2 1_555 1_555
H46_2 C84_2 1_555 1_555
C85_2 C84_2 1_555 1_555
H47_2 C85_2 1_555 1_555
C86_2 C85_2 1_555 1_555
C87_2 C86_2 1_555 1_555
H48_2 C87_2 1_555 1_555
C88_2 C83_2 1_555 1_555
H49_2 C88_2 1_555 1_555
C89_2 C86_2 1_555 1_555
C90_2 C89_2 1_555 1_555
H50_2 C90_2 1_555 1_555
C91_2 C90_2 1_555 1_555
C92_2 C91_2 1_555 1_555
H51_2 C92_2 1_555 1_555
C93_2 C92_2 1_555 1_555
C94_2 C89_2 1_555 1_555
H52_2 C94_2 1_555 1_555
C95_2 C93_2 1_555 1_555
C96_2 C95_2 1_555 1_555
H53_2 C96_2 1_555 1_555
C99_2 C98_2 1_555 1_555
H55_2 C99_2 1_555 1_555
C100_2 C95_2 1_555 1_555
H56_2 C100_2 1_555 1_555
C102_2 C91_2 1_555 1_555
C103_2 C102_2 1_555 1_555
H57_2 C103_2 1_555 1_555
C104_2 C103_2 1_555 1_555
H58_2 C104_2 1_555 1_555
C105_2 C104_2 1_555 1_555
C106_2 C105_2 1_555 1_555
H59_2 C106_2 1_555 1_555
C107_2 C102_2 1_555 1_555
H60_2 C107_2 1_555 1_555
C108_2 O28_2 1_555 1_555
C109_2 O25_2 1_555 1_555
C110_2 C109_2 1_555 1_555
C111_2 C110_2 1_555 1_555
H61_2 C111_2 1_555 1_555
C112_2 C111_2 1_555 1_555
H62_2 C112_2 1_555 1_555
C113_2 C112_2 1_555 1_555
C114_2 C113_2 1_555 1_555
H63_2 C114_2 1_555 1_555
C115_2 C110_2 1_555 1_555
H64_2 C115_2 1_555 1_555
C116_2 C113_2 1_555 1_555
C117_2 C116_2 1_555 1_555
H65_2 C117_2 1_555 1_555
C118_2 C117_2 1_555 1_555
C119_2 C118_2 1_555 1_555
C121_2 C116_2 1_555 1_555
C129_2 H72_2 1_555 1_555
C130_2 C118_2 1_555 1_555
C131_2 C130_2 1_555 1_555
H73_2 C131_2 1_555 1_555
C132_2 C131_2 1_555 1_555
H74_2 C132_2 1_555 1_555
C133_2 C132_2 1_555 1_555
C134_2 C129_2 1_555 1_555
H75_2 C134_2 1_555 1_555
C135_2 C133_2 1_555 1_555
Eu6 O19_2 1_555 1_555
In6 O41_2 1_555 1_555
O35_2 Eu6 1_555 1_555
O36_2 Eu6 1_555 1_555
O39_2 Eu6 1_555 1_555
O40_2 Eu6 1_555 1_555
O41_2 C162_2 1_555 1_555
O42_2 In6 1_555 1_555
O47_2 In6 1_555 1_555
O48_2 In6 1_555 1_555
C136_2 O35_2 1_555 1_555
C137_2 C136_2 1_555 1_555
C138_2 C137_2 1_555 1_555
H76_2 C138_2 1_555 1_555
C139_2 C138_2 1_555 1_555
H77_2 C139_2 1_555 1_555
C140_2 C139_2 1_555 1_555
C141_2 C140_2 1_555 1_555
H78_2 C141_2 1_555 1_555
C142_2 C137_2 1_555 1_555
H79_2 C142_2 1_555 1_555
C143_2 C140_2 1_555 1_555
C144_2 C143_2 1_555 1_555
H80_2 C144_2 1_555 1_555
C145_2 C144_2 1_555 1_555
C146_2 C145_2 1_555 1_555
H81_2 C146_2 1_555 1_555
C147_2 C146_2 1_555 1_555
C148_2 C143_2 1_555 1_555
H82_2 C148_2 1_555 1_555
C149_2 C147_2 1_555 1_555
C150_2 C149_2 1_555 1_555
H83_2 C150_2 1_555 1_555
C153_2 C152_2 1_555 1_555
H85_2 C153_2 1_555 1_555
C154_2 C149_2 1_555 1_555
H86_2 C154_2 1_555 1_555
C156_2 C145_2 1_555 1_555
C157_2 C156_2 1_555 1_555
H87_2 C157_2 1_555 1_555
C158_2 C157_2 1_555 1_555
H88_2 C158_2 1_555 1_555
C159_2 C158_2 1_555 1_555
C160_2 C159_2 1_555 1_555
H89_2 C160_2 1_555 1_555
C161_2 C156_2 1_555 1_555
H90_2 C161_2 1_555 1_555
C162_2 O42_2 1_555 1_555
C163_2 O39_2 1_555 1_555
C164_2 C163_2 1_555 1_555
C165_2 C164_2 1_555 1_555
H91_2 C165_2 1_555 1_555
C166_2 C165_2 1_555 1_555
H92_2 C166_2 1_555 1_555
C167_2 C166_2 1_555 1_555
C168_2 C167_2 1_555 1_555
H93_2 C168_2 1_555 1_555
C169_2 C164_2 1_555 1_555
H94_2 C169_2 1_555 1_555
C170_2 C167_2 1_555 1_555
C171_2 C170_2 1_555 1_555
H95_2 C171_2 1_555 1_555
C172_2 C171_2 1_555 1_555
C173_2 C172_2 1_555 1_555
C175_2 C170_2 1_555 1_555
C184_2 C172_2 1_555 1_555
Eu5_2 O5_2 1_555 1_555
O61_2 In4 1_555 1_555
O62_2 In5 1_555 1_555
O63_2 In6 1_555 1_555
O4_2 C10_2 1_555 1_555
O6_2 Eu5_2 1_555 1_555
O8_2 C37_2 1_555 1_555
C6_2 C7_2 1_555 1_555
C15_2 C16_2 1_555 1_555
C21_2 C22_2 1_555 1_555
C27_2 C28_2 1_555 1_555
C33_2 C36_2 1_555 1_555
C34_2 C35_2 1_555 1_555
C42_2 C43_2 1_555 1_555
O18_2 Eu5 1_555 1_555
C69_2 C70_2 1_555 1_555
C71_2 C72_2 1_555 1_555
O20_2 Eu6 1_555 1_555
C77_2 C80_2 1_555 1_555
C78_2 C79_2 1_555 1_555
C80_2 C81_2 1_555 1_555
O22_2 C82_2 1_555 1_555
O26_2 C109_2 1_555 1_555
C87_2 C88_2 1_555 1_555
C93_2 C94_2 1_555 1_555
C99_2 C100_2 1_555 1_555
C105_2 C108_2 1_555 1_555
C106_2 C107_2 1_555 1_555
C114_2 C115_2 1_555 1_555
C129_2 C130_2 1_555 1_555
C133_2 C134_2 1_555 1_555
O36_2 C136_2 1_555 1_555
O40_2 C163_2 1_555 1_555
C141_2 C142_2 1_555 1_555
C147_2 C148_2 1_555 1_555
C153_2 C154_2 1_555 1_555
C159_2 C162_2 1_555 1_555
C160_2 C161_2 1_555 1_555
C168_2 C169_2 1_555 1_555
O15_2 H106_2 1_555 1_555
O15_2 H107_2 1_555 1_555
O16_2 H108_2 1_555 1_555
O16_2 H109_2 1_555 1_555
O33_2 H110_2 1_555 1_555
O33_2 H111_2 1_555 1_555
O34_2 H112_2 1_555 1_555
O34_2 H113_2 1_555 1_555
O48_2 H114_2 1_555 1_555
O48_2 H115_2 1_555 1_555
O47_2 H116_2 1_555 1_555
O47_2 H117_2 1_555 1_555
O11_2 C56_2 1_555 1_555
O12_2 C56_2 1_555 1_555
C50_2 C48_2 1_555 1_555
C51_2 C50_2 1_555 1_555
C52_2 C51_2 1_555 1_555
C53_2 C52_2 1_555 1_555
C54_2 C53_2 1_555 1_555
H30_2 C54_2 1_555 1_555
C55_2 C50_2 1_555 1_555
H31_2 C55_2 1_555 1_555
C56_2 C53_2 1_555 1_555
O29_2 C128_2 1_555 1_555
O30_2 C128_2 1_555 1_555
C122_2 C120_2 1_555 1_555
C123_2 C122_2 1_555 1_555
H68_2 C123_2 1_555 1_555
C124_2 C123_2 1_555 1_555
H69_2 C124_2 1_555 1_555
C125_2 C124_2 1_555 1_555
C126_2 C125_2 1_555 1_555
H70_2 C126_2 1_555 1_555
C127_2 C122_2 1_555 1_555
H71_2 C127_2 1_555 1_555
C128_2 C125_2 1_555 1_555
O43_2 C182_2 1_555 1_555
O44_2 C182_2 1_555 1_555
C176_2 C174_2 1_555 1_555
C177_2 C176_2 1_555 1_555
C178_2 C177_2 1_555 1_555
C179_2 C178_2 1_555 1_555
C180_2 C179_2 1_555 1_555
H100_2 C180_2 1_555 1_555
C181_2 C176_2 1_555 1_555
H101_2 C181_2 1_555 1_555
C182_2 C179_2 1_555 1_555
In7 O43_2 1_555 1_555
In8 O11_2 1_555 1_555
In9 O29_2 1_555 1_555
O12_2 In8 1_555 1_555
C54_2 C55_2 1_555 1_555
O30_2 In9 1_555 1_555
C126_2 C127_2 1_555 1_555
O44_2 In7 1_555 1_555
C180_2 C181_2 1_555 1_555
O61 C63_2 1_555 1_555
O14_2 C63_2 1_555 1_555
H33_2 C59_2 1_555 1_555
C60_2 C59_2 1_555 1_555
H34_2 C60_2 1_555 1_555
C61_2 C60_2 1_555 1_555
C62_2 C57_2 1_555 1_555
H35_2 C62_2 1_555 1_555
C63_2 C61_2 1_555 1_555
O37_2 C155_2 1_555 1_555
H84_2 C151_2 1_555 1_555
Eu4_2 O37_2 1_555 1_555
C61_2 C62_2 1_555 1_555
O17_3 C64_3 1_555 1_555
O18_3 C64_3 1_555 1_555
C64_3 C65_3 1_555 1_555
C65_3 C66_3 1_555 1_555
C66_3 H36_3 1_555 1_555
C67_3 C66_3 1_555 1_555
H37_3 C67_3 1_555 1_555
C68_3 C67_3 1_555 1_555
C69_3 C68_3 1_555 1_555
H38_3 C69_3 1_555 1_555
C70_3 C65_3 1_555 1_555
H39_3 C70_3 1_555 1_555
C71_3 C68_3 1_555 1_555
C81_3 C71_3 1_555 1_555
H45_3 C81_3 1_555 1_555
Eu5_2 O17_3 1_555 1_555
In8 O27_3 1_555 1_555
O21_3 Eu5_2 1_555 1_555
O22_3 Eu5_2 1_555 1_555
O50 C101_3 1_555 1_555
O53 C101_3 1_555 1_555
O25_3 Eu5_2 1_555 1_555
O26_3 Eu5_2 1_555 1_555
O27_3 C108_3 1_555 1_555
O28_3 In8 1_555 1_555
O56 C128_3 1_555 1_555
O59 C128_3 1_555 1_555
O33_3 In8 1_555 1_555
C82_3 O21_3 1_555 1_555
C83_3 C82_3 1_555 1_555
C84_3 C83_3 1_555 1_555
H46_3 C84_3 1_555 1_555
C85_3 C84_3 1_555 1_555
H47_3 C85_3 1_555 1_555
C86_3 C85_3 1_555 1_555
C87_3 C86_3 1_555 1_555
H48_3 C87_3 1_555 1_555
C88_3 C83_3 1_555 1_555
H49_3 C88_3 1_555 1_555
C89_3 C86_3 1_555 1_555
C90_3 C89_3 1_555 1_555
H50_3 C90_3 1_555 1_555
C91_3 C90_3 1_555 1_555
C92_3 C91_3 1_555 1_555
H51_3 C92_3 1_555 1_555
C93_3 C92_3 1_555 1_555
C94_3 C89_3 1_555 1_555
H52_3 C94_3 1_555 1_555
C95_3 C93_3 1_555 1_555
C96_3 C95_3 1_555 1_555
H53_3 C96_3 1_555 1_555
C97_3 C96_3 1_555 1_555
H54_3 C97_3 1_555 1_555
C98_3 C97_3 1_555 1_555
C99_3 C98_3 1_555 1_555
H55_3 C99_3 1_555 1_555
C100_3 C95_3 1_555 1_555
H56_3 C100_3 1_555 1_555
C101_3 C98_3 1_555 1_555
C102_3 C91_3 1_555 1_555
C103_3 C102_3 1_555 1_555
H57_3 C103_3 1_555 1_555
C104_3 C103_3 1_555 1_555
H58_3 C104_3 1_555 1_555
C105_3 C104_3 1_555 1_555
C106_3 C105_3 1_555 1_555
H59_3 C106_3 1_555 1_555
C107_3 C102_3 1_555 1_555
H60_3 C107_3 1_555 1_555
C108_3 O28_3 1_555 1_555
C109_3 O25_3 1_555 1_555
C110_3 C109_3 1_555 1_555
C111_3 C110_3 1_555 1_555
H61_3 C111_3 1_555 1_555
C112_3 C111_3 1_555 1_555
H62_3 C112_3 1_555 1_555
C113_3 C112_3 1_555 1_555
C114_3 C113_3 1_555 1_555
H63_3 C114_3 1_555 1_555
C115_3 C110_3 1_555 1_555
H64_3 C115_3 1_555 1_555
C116_3 C113_3 1_555 1_555
C117_3 C116_3 1_555 1_555
H65_3 C117_3 1_555 1_555
C118_3 C117_3 1_555 1_555
C119_3 C118_3 1_555 1_555
H66_3 C119_3 1_555 1_555
C120_3 C119_3 1_555 1_555
C121_3 C116_3 1_555 1_555
H67_3 C121_3 1_555 1_555
C122_3 C120_3 1_555 1_555
C123_3 C122_3 1_555 1_555
H68_3 C123_3 1_555 1_555
C124_3 C123_3 1_555 1_555
H69_3 C124_3 1_555 1_555
C125_3 C124_3 1_555 1_555
C126_3 C125_3 1_555 1_555
H70_3 C126_3 1_555 1_555
C127_3 C122_3 1_555 1_555
H71_3 C127_3 1_555 1_555
C128_3 C125_3 1_555 1_555
C129_3 H72_3 1_555 1_555
C130_3 C118_3 1_555 1_555
O63_2 C189_3 1_555 1_555
O46_3 C189_3 1_555 1_555
H103_3 C185_3 1_555 1_555
C186_3 C185_3 1_555 1_555
H104_3 C186_3 1_555 1_555
C187_3 C186_3 1_555 1_555
H105_3 C188_3 1_555 1_555
C189_3 C187_3 1_555 1_555
O18_3 Eu5_2 1_555 1_555
C69_3 C70_3 1_555 1_555
O22_3 C82_3 1_555 1_555
O26_3 C109_3 1_555 1_555
C87_3 C88_3 1_555 1_555
C93_3 C94_3 1_555 1_555
C99_3 C100_3 1_555 1_555
C105_3 C108_3 1_555 1_555
C106_3 C107_3 1_555 1_555
C114_3 C115_3 1_555 1_555
C120_3 C121_3 1_555 1_555
C126_3 C127_3 1_555 1_555
C129_3 C130_3 1_555 1_555
C187_3 C188_3 1_555 1_555
O16_3 H108_3 1_555 1_555
O16_3 H109_3 1_555 1_555
O33_3 H110_3 1_555 1_555
O33_3 H111_3 1_555 1_555
In7 O9_3 1_555 1_555
O9_3 C36_3 1_555 1_555
O10_3 In7 1_555 1_555
O15_3 In7 1_555 1_555
H3_3 C6_3 1_555 1_555
H4_3 C7_3 1_555 1_555
H6_3 C12_3 1_555 1_555
C13_3 C12_3 1_555 1_555
H7_3 C13_3 1_555 1_555
C14_3 C13_3 1_555 1_555
C17_3 C14_3 1_555 1_555
C18_3 C17_3 1_555 1_555
H10_3 C18_3 1_555 1_555
C19_3 C18_3 1_555 1_555
C20_3 C19_3 1_555 1_555
H11_3 C20_3 1_555 1_555
C21_3 C20_3 1_555 1_555
H13_3 C24_3 1_555 1_555
C30_3 C19_3 1_555 1_555
C31_3 C30_3 1_555 1_555
H17_3 C31_3 1_555 1_555
C32_3 C31_3 1_555 1_555
H18_3 C32_3 1_555 1_555
C33_3 C32_3 1_555 1_555
C34_3 C33_3 1_555 1_555
H19_3 C34_3 1_555 1_555
C35_3 C30_3 1_555 1_555
H20_3 C35_3 1_555 1_555
C36_3 O10_3 1_555 1_555
H40_3 C72_3 1_555 1_555
O62_2 C135_3 1_555 1_555
O32_3 C135_3 1_555 1_555
H73_3 C131_3 1_555 1_555
C132_3 C131_3 1_555 1_555
H74_3 C132_3 1_555 1_555
C133_3 C132_3 1_555 1_555
H75_3 C134_3 1_555 1_555
C135_3 C133_3 1_555 1_555
C6_3 C7_3 1_555 1_555
C33_3 C36_3 1_555 1_555
C34_3 C35_3 1_555 1_555
C133_3 C134_3 1_555 1_555
O15_3 H106_3 1_555 1_555
O15_3 H107_3 1_555 1_555
O19_3 C73_3 1_555 1_555
O20_3 C73_3 1_555 1_555
C73_3 C74_3 1_555 1_555
C74_3 C75_3 1_555 1_555
C75_3 H41_3 1_555 1_555
C76_3 C75_3 1_555 1_555
H42_3 C76_3 1_555 1_555
C77_3 C76_3 1_555 1_555
Eu6_2 O19_3 1_555 1_555
O35_3 Eu6_2 1_555 1_555
O51 C155_3 1_555 1_555
O54 C155_3 1_555 1_555
O39_3 Eu6_2 1_555 1_555
O40_3 Eu6_2 1_555 1_555
O57 C182_3 1_555 1_555
O60 C182_3 1_555 1_555
C136_3 O35_3 1_555 1_555
C137_3 C136_3 1_555 1_555
H78_3 C141_3 1_555 1_555
C142_3 C137_3 1_555 1_555
H79_3 C142_3 1_555 1_555
H82_3 C148_3 1_555 1_555
C152_3 C151_3 1_555 1_555
C153_3 C152_3 1_555 1_555
H85_3 C153_3 1_555 1_555
C154_3 C149_3 1_555 1_555
H86_3 C154_3 1_555 1_555
C155_3 C152_3 1_555 1_555
C163_3 O39_3 1_555 1_555
C164_3 C163_3 1_555 1_555
C165_3 C164_3 1_555 1_555
H91_3 C165_3 1_555 1_555
C166_3 C165_3 1_555 1_555
H92_3 C166_3 1_555 1_555
C167_3 C166_3 1_555 1_555
C168_3 C167_3 1_555 1_555
H93_3 C168_3 1_555 1_555
C169_3 C164_3 1_555 1_555
H94_3 C169_3 1_555 1_555
C170_3 C167_3 1_555 1_555
C171_3 C170_3 1_555 1_555
H95_3 C171_3 1_555 1_555
C172_3 C171_3 1_555 1_555
C173_3 C172_3 1_555 1_555
H96_3 C173_3 1_555 1_555
C174_3 C173_3 1_555 1_555
C175_3 C170_3 1_555 1_555
H97_3 C175_3 1_555 1_555
C176_3 C174_3 1_555 1_555
C177_3 C176_3 1_555 1_555
H98_2 C177_3 1_555 1_555
C178_3 C177_3 1_555 1_555
H99_2 C178_3 1_555 1_555
C179_3 C178_3 1_555 1_555
C180_3 C179_3 1_555 1_555
H100_3 C180_3 1_555 1_555
C181_3 C176_3 1_555 1_555
H101_3 C181_3 1_555 1_555
C182_3 C179_3 1_555 1_555
C183_3 H102_3 1_555 1_555
C184_3 C172_3 1_555 1_555
O20_3 Eu6_2 1_555 1_555
C77_3 C80_3 1_555 1_555
O40_3 C163_3 1_555 1_555
C141_3 C142_3 1_555 1_555
C153_3 C154_3 1_555 1_555
C168_3 C169_3 1_555 1_555
C174_3 C175_3 1_555 1_555
C180_3 C181_3 1_555 1_555
C183_3 C184_3 1_555 1_555
O34_3 H112_3 1_555 1_555
O34_3 H113_3 1_555 1_555
Eu4_2 O1_3 1_555 1_555
O1_3 C1_3 1_555 1_555
O2_3 Eu4_2 1_555 1_555
O3_3 Eu4_2 1_555 1_555
O49 C29_3 1_555 1_555
O52 C29_3 1_555 1_555
O7_3 Eu4_2 1_555 1_555
O8_3 Eu4_2 1_555 1_555
O55 C56_3 1_555 1_555
O58 C56_3 1_555 1_555
O61_2 C63_3 1_555 1_555
O14_3 C63_3 1_555 1_555
C1_3 O2_3 1_555 1_555
C2_3 C1_3 1_555 1_555
C3_3 C2_3 1_555 1_555
H1_3 C3_3 1_555 1_555
C4_3 C3_3 1_555 1_555
H2_3 C4_3 1_555 1_555
C5_3 C4_3 1_555 1_555
C8_3 C5_3 1_555 1_555
C9_3 C8_3 1_555 1_555
H5_3 C9_3 1_555 1_555
C10_3 O3_3 1_555 1_555
C11_3 C10_3 1_555 1_555
H8_3 C15_3 1_555 1_555
C16_3 C11_3 1_555 1_555
H9_3 C16_3 1_555 1_555
H12_3 C22_3 1_555 1_555
C26_3 C25_3 1_555 1_555
C27_3 C26_3 1_555 1_555
H15_3 C27_3 1_555 1_555
C28_3 C23_3 1_555 1_555
H16_3 C28_3 1_555 1_555
C29_3 C26_3 1_555 1_555
C37_3 O7_3 1_555 1_555
C38_3 C37_3 1_555 1_555
C39_3 C38_3 1_555 1_555
H21_3 C39_3 1_555 1_555
C40_3 C39_3 1_555 1_555
H22_3 C40_3 1_555 1_555
C41_3 C40_3 1_555 1_555
C42_3 C41_3 1_555 1_555
H23_3 C42_3 1_555 1_555
C43_3 C38_3 1_555 1_555
H24_3 C43_3 1_555 1_555
C44_3 C41_3 1_555 1_555
C45_3 C44_3 1_555 1_555
H25_3 C45_3 1_555 1_555
C46_3 C45_3 1_555 1_555
C47_3 C46_3 1_555 1_555
H26_3 C47_3 1_555 1_555
C48_3 C47_3 1_555 1_555
C49_3 C44_3 1_555 1_555
H27_3 C49_3 1_555 1_555
C50_3 C48_3 1_555 1_555
C51_3 C50_3 1_555 1_555
H28_2 C51_3 1_555 1_555
C52_3 C51_3 1_555 1_555
H29_2 C52_3 1_555 1_555
C53_3 C52_3 1_555 1_555
C54_3 C53_3 1_555 1_555
H30_3 C54_3 1_555 1_555
C55_3 C50_3 1_555 1_555
H31_3 C55_3 1_555 1_555
C56_3 C53_3 1_555 1_555
C57_3 H32_3 1_555 1_555
C58_3 C46_3 1_555 1_555
C59_3 C58_3 1_555 1_555
H33_3 C59_3 1_555 1_555
C60_3 C59_3 1_555 1_555
H34_3 C60_3 1_555 1_555
C61_3 C60_3 1_555 1_555
C62_3 C57_3 1_555 1_555
H35_3 C62_3 1_555 1_555
C63_3 C61_3 1_555 1_555
H43_3 C78_3 1_555 1_555
H44_3 C79_3 1_555 1_555
In9 O41_3 1_555 1_555
O41_3 C162_3 1_555 1_555
O42_3 In9 1_555 1_555
O47_3 In9 1_555 1_555
O48_3 In9 1_555 1_555
H76_3 C138_3 1_555 1_555
C139_3 C138_3 1_555 1_555
H77_3 C139_3 1_555 1_555
C140_3 C139_3 1_555 1_555
C143_3 C140_3 1_555 1_555
C144_3 C143_3 1_555 1_555
H80_3 C144_3 1_555 1_555
C145_3 C144_3 1_555 1_555
C146_3 C145_3 1_555 1_555
H81_3 C146_3 1_555 1_555
C147_3 C146_3 1_555 1_555
H83_3 C150_3 1_555 1_555
C156_3 C145_3 1_555 1_555
C157_3 C156_3 1_555 1_555
H87_3 C157_3 1_555 1_555
C158_3 C157_3 1_555 1_555
H88_3 C158_3 1_555 1_555
C159_3 C158_3 1_555 1_555
C160_3 C159_3 1_555 1_555
H89_3 C160_3 1_555 1_555
C161_3 C156_3 1_555 1_555
H90_3 C161_3 1_555 1_555
C162_3 O42_3 1_555 1_555
O8_3 C37_3 1_555 1_555
C15_3 C16_3 1_555 1_555
C27_3 C28_3 1_555 1_555
C42_3 C43_3 1_555 1_555
C48_3 C49_3 1_555 1_555
C54_3 C55_3 1_555 1_555
C57_3 C58_3 1_555 1_555
C61_3 C62_3 1_555 1_555
C78_3 C79_3 1_555 1_555
C159_3 C162_3 1_555 1_555
C160_3 C161_3 1_555 1_555
O48_3 H114_3 1_555 1_555
O48_3 H115_3 1_555 1_555
O47_3 H116_3 1_555 1_555
O47_3 H117_3 1_555 1_555
O11_3 C56_4 1_555 1_555
O12_3 C56_4 1_555 1_555
C45_4 C44_4 1_555 1_555
C46_4 C45_4 1_555 1_555
C47_4 C46_4 1_555 1_555
H26_4 C47_4 1_555 1_555
C48_4 C47_4 1_555 1_555
C49_4 C44_4 1_555 1_555
H27_4 C49_4 1_555 1_555
C50_4 C48_4 1_555 1_555
C51_4 C50_4 1_555 1_555
H28_4 C51_4 1_555 1_555
C52_4 C51_4 1_555 1_555
H29_4 C52_4 1_555 1_555
C53_4 C52_4 1_555 1_555
C54_4 C53_4 1_555 1_555
H30_4 C54_4 1_555 1_555
C55_4 C50_4 1_555 1_555
H31_4 C55_4 1_555 1_555
C56_4 C53_4 1_555 1_555
C57_4 H32_4 1_555 1_555
C58_4 C46_4 1_555 1_555
C62_4 C57_4 1_555 1_555
H35_4 C62_4 1_555 1_555
In5_2 O11_3 1_555 1_555
In7_2 O13_2 1_555 1_555
O12_3 In5_2 1_555 1_555
C48_4 C49_4 1_555 1_555
C54_4 C55_4 1_555 1_555
C57_4 C58_4 1_555 1_555
C61_4 C62_4 1_555 1_555
O5_3 C29_4 1_555 1_555
O6_3 C29_4 1_555 1_555
H14_4 C25_4 1_555 1_555
C26_4 C25_4 1_555 1_555
C27_4 C26_4 1_555 1_555
H15_4 C27_4 1_555 1_555
C29_4 C26_4 1_555 1_555
Eu5_3 O5_3 1_555 1_555
O6_3 Eu5_3 1_555 1_555
Eu1_2 O1_4 1_555 1_555
O1_4 C1_4 1_555 1_555
O2_4 Eu1_2 1_555 1_555
O3_4 Eu1_2 1_555 1_555
O4_4 Eu1_2 1_555 1_555
O7_4 Eu1_2 1_555 1_555
O8_4 Eu1_2 1_555 1_555
O14_4 C63_4 1_555 1_555
C1_4 O2_4 1_555 1_555
C2_4 C1_4 1_555 1_555
C3_4 C2_4 1_555 1_555
H1_4 C3_4 1_555 1_555
C4_4 C3_4 1_555 1_555
H2_4 C4_4 1_555 1_555
C5_4 C4_4 1_555 1_555
C6_4 C5_4 1_555 1_555
H3_4 C6_4 1_555 1_555
C7_4 C2_4 1_555 1_555
H4_4 C7_4 1_555 1_555
C8_4 C5_4 1_555 1_555
C9_4 C8_4 1_555 1_555
H5_4 C9_4 1_555 1_555
C10_4 O3_4 1_555 1_555
C11_4 C10_4 1_555 1_555
C12_4 C11_4 1_555 1_555
H6_4 C12_4 1_555 1_555
C13_4 C12_4 1_555 1_555
H7_4 C13_4 1_555 1_555
C14_4 C13_4 1_555 1_555
C15_4 C14_4 1_555 1_555
H8_4 C15_4 1_555 1_555
C16_4 C11_4 1_555 1_555
H9_4 C16_4 1_555 1_555
C17_4 C14_4 1_555 1_555
C18_4 C17_4 1_555 1_555
H10_4 C18_4 1_555 1_555
C22_4 C17_4 1_555 1_555
H12_4 C22_4 1_555 1_555
C37_4 O7_4 1_555 1_555
C38_4 C37_4 1_555 1_555
C39_4 C38_4 1_555 1_555
H21_4 C39_4 1_555 1_555
C40_4 C39_4 1_555 1_555
C41_4 C40_4 1_555 1_555
C42_4 C41_4 1_555 1_555
H23_4 C42_4 1_555 1_555
C43_4 C38_4 1_555 1_555
H24_4 C43_4 1_555 1_555
H33_4 C59_4 1_555 1_555
C60_4 C59_4 1_555 1_555
H34_4 C60_4 1_555 1_555
O17_4 C64_4 1_555 1_555
O18_4 C64_4 1_555 1_555
C64_4 C65_4 1_555 1_555
C65_4 C66_4 1_555 1_555
C66_4 H36_4 1_555 1_555
C67_4 C66_4 1_555 1_555
H37_4 C67_4 1_555 1_555
C68_4 C67_4 1_555 1_555
C69_4 C68_4 1_555 1_555
H38_4 C69_4 1_555 1_555
C70_4 C65_4 1_555 1_555
H39_4 C70_4 1_555 1_555
C71_4 C68_4 1_555 1_555
C72_4 C8_4 1_555 1_555
H40_4 C72_4 1_555 1_555
O19_4 C73_4 1_555 1_555
O20_4 C73_4 1_555 1_555
C73_4 C74_4 1_555 1_555
C74_4 C75_4 1_555 1_555
C75_4 H41_4 1_555 1_555
C76_4 C75_4 1_555 1_555
H42_4 C76_4 1_555 1_555
C77_4 C76_4 1_555 1_555
C78_4 C77_4 1_555 1_555
H43_4 C78_4 1_555 1_555
C79_4 C74_4 1_555 1_555
H44_4 C79_4 1_555 1_555
C80_4 C9_4 1_555 1_555
C81_4 C71_4 1_555 1_555
H45_4 C81_4 1_555 1_555
Eu2_2 O17_4 1_555 1_555
O21_4 Eu2_2 1_555 1_555
O22_4 Eu2_2 1_555 1_555
O25_4 Eu2_2 1_555 1_555
O26_4 Eu2_2 1_555 1_555
O32_4 C135_4 1_555 1_555
C82_4 O21_4 1_555 1_555
C83_4 C82_4 1_555 1_555
C84_4 C83_4 1_555 1_555
H46_4 C84_4 1_555 1_555
C85_4 C84_4 1_555 1_555
H47_4 C85_4 1_555 1_555
C86_4 C85_4 1_555 1_555
C87_4 C86_4 1_555 1_555
H48_4 C87_4 1_555 1_555
C88_4 C83_4 1_555 1_555
H49_4 C88_4 1_555 1_555
C89_4 C86_4 1_555 1_555
C90_4 C89_4 1_555 1_555
H50_4 C90_4 1_555 1_555
C94_4 C89_4 1_555 1_555
H52_4 C94_4 1_555 1_555
C109_4 O25_4 1_555 1_555
C110_4 C109_4 1_555 1_555
C111_4 C110_4 1_555 1_555
H61_4 C111_4 1_555 1_555
C112_4 C111_4 1_555 1_555
C113_4 C112_4 1_555 1_555
C114_4 C113_4 1_555 1_555
H63_4 C114_4 1_555 1_555
C115_4 C110_4 1_555 1_555
H64_4 C115_4 1_555 1_555
H73_4 C131_4 1_555 1_555
C132_4 C131_4 1_555 1_555
H74_4 C132_4 1_555 1_555
Eu3_2 O19_4 1_555 1_555
O35_4 Eu3_2 1_555 1_555
O36_4 Eu3_2 1_555 1_555
O39_4 Eu3_2 1_555 1_555
O40_4 Eu3_2 1_555 1_555
O43_3 C182_4 1_555 1_555
O44_3 C182_4 1_555 1_555
O45_2 C189_4 1_555 1_555
O46_4 C189_4 1_555 1_555
C136_4 O35_4 1_555 1_555
C137_4 C136_4 1_555 1_555
C138_4 C137_4 1_555 1_555
H76_4 C138_4 1_555 1_555
C139_4 C138_4 1_555 1_555
H77_4 C139_4 1_555 1_555
C140_4 C139_4 1_555 1_555
C141_4 C140_4 1_555 1_555
H78_4 C141_4 1_555 1_555
C142_4 C137_4 1_555 1_555
H79_4 C142_4 1_555 1_555
C143_4 C140_4 1_555 1_555
C144_4 C143_4 1_555 1_555
H80_4 C144_4 1_555 1_555
C148_4 C143_4 1_555 1_555
H82_4 C148_4 1_555 1_555
C163_4 O39_4 1_555 1_555
C164_4 C163_4 1_555 1_555
C165_4 C164_4 1_555 1_555
H91_4 C165_4 1_555 1_555
C166_4 C165_4 1_555 1_555
H92_4 C166_4 1_555 1_555
C167_4 C166_4 1_555 1_555
C168_4 C167_4 1_555 1_555
H93_4 C168_4 1_555 1_555
C169_4 C164_4 1_555 1_555
H94_4 C169_4 1_555 1_555
C170_4 C167_4 1_555 1_555
C171_4 C170_4 1_555 1_555
H95_4 C171_4 1_555 1_555
C172_4 C171_4 1_555 1_555
C173_4 C172_4 1_555 1_555
H96_4 C173_4 1_555 1_555
C174_4 C173_4 1_555 1_555
C175_4 C170_4 1_555 1_555
H97_4 C175_4 1_555 1_555
C176_4 C174_4 1_555 1_555
C177_4 C176_4 1_555 1_555
H98_4 C177_4 1_555 1_555
C178_4 C177_4 1_555 1_555
H99_4 C178_4 1_555 1_555
C179_4 C178_4 1_555 1_555
C180_4 C179_4 1_555 1_555
H100_4 C180_4 1_555 1_555
C181_4 C176_4 1_555 1_555
H101_4 C181_4 1_555 1_555
C182_4 C179_4 1_555 1_555
C183_4 H102_4 1_555 1_555
C184_4 C172_4 1_555 1_555
C185_4 C184_4 1_555 1_555
H103_4 C185_4 1_555 1_555
C186_4 C185_4 1_555 1_555
H104_4 C186_4 1_555 1_555
C187_4 C186_4 1_555 1_555
C188_4 C183_4 1_555 1_555
H105_4 C188_4 1_555 1_555
C189_4 C187_4 1_555 1_555
In4_2 O43_3 1_555 1_555
In9_2 O45_2 1_555 1_555
O49_2 Eu2_2 1_555 1_555
O50_2 Eu3_2 1_555 1_555
O51_2 Eu1_2 1_555 1_555
O52_2 Eu2_2 1_555 1_555
O53_2 Eu3_2 1_555 1_555
O54_2 Eu1_2 1_555 1_555
O4_4 C10_4 1_555 1_555
O8_4 C37_4 1_555 1_555
C6_4 C7_4 1_555 1_555
C15_4 C16_4 1_555 1_555
C42_4 C43_4 1_555 1_555
O18_4 Eu2_2 1_555 1_555
C69_4 C70_4 1_555 1_555
C71_4 C72_4 1_555 1_555
O20_4 Eu3_2 1_555 1_555
C77_4 C80_4 1_555 1_555
C78_4 C79_4 1_555 1_555
C80_4 C81_4 1_555 1_555
O22_4 C82_4 1_555 1_555
O26_4 C109_4 1_555 1_555
C87_4 C88_4 1_555 1_555
C114_4 C115_4 1_555 1_555
O36_4 C136_4 1_555 1_555
O40_4 C163_4 1_555 1_555
O44_3 In4_2 1_555 1_555
C141_4 C142_4 1_555 1_555
C168_4 C169_4 1_555 1_555
C174_4 C175_4 1_555 1_555
C180_4 C181_4 1_555 1_555
C183_4 C184_4 1_555 1_555
C187_4 C188_4 1_555 1_555
In1_2 O9_4 1_555 1_555
O9_4 C36_4 1_555 1_555
O10_4 In1_2 1_555 1_555
O15_4 In1_2 1_555 1_555
O16_4 In1_2 1_555 1_555
C20_4 C19_4 1_555 1_555
H11_4 C20_4 1_555 1_555
C21_4 C20_4 1_555 1_555
C23_4 C21_4 1_555 1_555
C24_4 C23_4 1_555 1_555
H13_4 C24_4 1_555 1_555
C28_4 C23_4 1_555 1_555
H16_4 C28_4 1_555 1_555
C30_4 C19_4 1_555 1_555
C31_4 C30_4 1_555 1_555
H17_4 C31_4 1_555 1_555
C32_4 C31_4 1_555 1_555
H18_4 C32_4 1_555 1_555
C33_4 C32_4 1_555 1_555
C34_4 C33_4 1_555 1_555
H19_4 C34_4 1_555 1_555
C35_4 C30_4 1_555 1_555
H20_4 C35_4 1_555 1_555
C36_4 O10_4 1_555 1_555
In2_2 O27_4 1_555 1_555
O27_4 C108_4 1_555 1_555
O28_4 In2_2 1_555 1_555
O33_4 In2_2 1_555 1_555
O34_4 In2_2 1_555 1_555
C92_4 C91_4 1_555 1_555
H51_4 C92_4 1_555 1_555
C93_4 C92_4 1_555 1_555
C95_4 C93_4 1_555 1_555
C96_4 C95_4 1_555 1_555
H53_4 C96_4 1_555 1_555
C100_4 C95_4 1_555 1_555
H56_4 C100_4 1_555 1_555
C102_4 C91_4 1_555 1_555
C103_4 C102_4 1_555 1_555
H57_4 C103_4 1_555 1_555
C104_4 C103_4 1_555 1_555
H58_4 C104_4 1_555 1_555
C105_4 C104_4 1_555 1_555
C106_4 C105_4 1_555 1_555
H59_4 C106_4 1_555 1_555
C107_4 C102_4 1_555 1_555
H60_4 C107_4 1_555 1_555
C108_4 O28_4 1_555 1_555
In3_2 O41_4 1_555 1_555
O37_3 C155_4 1_555 1_555
O38_3 C155_4 1_555 1_555
O41_4 C162_4 1_555 1_555
O42_4 In3_2 1_555 1_555
O47_4 In3_2 1_555 1_555
O48_4 In3_2 1_555 1_555
C146_4 C145_4 1_555 1_555
H81_4 C146_4 1_555 1_555
C147_4 C146_4 1_555 1_555
C149_4 C147_4 1_555 1_555
C150_4 C149_4 1_555 1_555
H83_4 C150_4 1_555 1_555
C151_4 C150_4 1_555 1_555
H84_4 C151_4 1_555 1_555
C152_4 C151_4 1_555 1_555
C153_4 C152_4 1_555 1_555
H85_4 C153_4 1_555 1_555
C154_4 C149_4 1_555 1_555
H86_4 C154_4 1_555 1_555
C155_4 C152_4 1_555 1_555
C156_4 C145_4 1_555 1_555
C157_4 C156_4 1_555 1_555
H87_4 C157_4 1_555 1_555
C158_4 C157_4 1_555 1_555
H88_4 C158_4 1_555 1_555
C159_4 C158_4 1_555 1_555
C160_4 C159_4 1_555 1_555
H89_4 C160_4 1_555 1_555
C161_4 C156_4 1_555 1_555
H90_4 C161_4 1_555 1_555
C162_4 O42_4 1_555 1_555
Eu4_3 O37_3 1_555 1_555
O55_2 In2_2 1_555 1_555
O56_2 In3_2 1_555 1_555
O57_2 In1_2 1_555 1_555
O58_2 In2_2 1_555 1_555
O59_2 In3_2 1_555 1_555
O60_2 In1_2 1_555 1_555
O61_3 In1_2 1_555 1_555
O62_3 In2_2 1_555 1_555
O63_3 In3_2 1_555 1_555
C33_4 C36_4 1_555 1_555
C34_4 C35_4 1_555 1_555
C105_4 C108_4 1_555 1_555
C106_4 C107_4 1_555 1_555
O38_3 Eu4_3 1_555 1_555
C153_4 C154_4 1_555 1_555
C159_4 C162_4 1_555 1_555
C160_4 C161_4 1_555 1_555
O15_4 H106_4 1_555 1_555
O15_4 H107_4 1_555 1_555
O16_4 H108_4 1_555 1_555
O16_4 H109_4 1_555 1_555
O33_4 H110_4 1_555 1_555
O33_4 H111_4 1_555 1_555
O34_4 H112_4 1_555 1_555
O34_4 H113_4 1_555 1_555
O48_4 H114_4 1_555 1_555
O48_4 H115_4 1_555 1_555
O47_4 H116_4 1_555 1_555
O47_4 H117_4 1_555 1_555
O29_3 C128_4 1_555 1_555
O30_3 C128_4 1_555 1_555
C117_4 C116_4 1_555 1_555
C118_4 C117_4 1_555 1_555
C119_4 C118_4 1_555 1_555
H66_4 C119_4 1_555 1_555
C120_4 C119_4 1_555 1_555
C121_4 C116_4 1_555 1_555
H67_4 C121_4 1_555 1_555
C122_4 C120_4 1_555 1_555
C123_4 C122_4 1_555 1_555
H68_4 C123_4 1_555 1_555
C124_4 C123_4 1_555 1_555
H69_4 C124_4 1_555 1_555
C125_4 C124_4 1_555 1_555
C126_4 C125_4 1_555 1_555
H70_4 C126_4 1_555 1_555
C127_4 C122_4 1_555 1_555
H71_4 C127_4 1_555 1_555
C128_4 C125_4 1_555 1_555
C129_4 H72_4 1_555 1_555
C130_4 C118_4 1_555 1_555
C134_4 C129_4 1_555 1_555
H75_4 C134_4 1_555 1_555
In6_2 O29_3 1_555 1_555
In8_2 O31_2 1_555 1_555
O30_3 In6_2 1_555 1_555
C120_4 C121_4 1_555 1_555
C126_4 C127_4 1_555 1_555
C129_4 C130_4 1_555 1_555
C133_4 C134_4 1_555 1_555
O23_3 C101_4 1_555 1_555
O24_3 C101_4 1_555 1_555
H54_4 C97_4 1_555 1_555
C98_4 C97_4 1_555 1_555
C99_4 C98_4 1_555 1_555
H55_4 C99_4 1_555 1_555
C101_4 C98_4 1_555 1_555
Eu6_3 O23_3 1_555 1_555
O24_3 Eu6_3 1_555 1_555
O61_3 C63_5 1_555 1_555
O14_5 C63_5 1_555 1_555
H33_5 C59_5 1_555 1_555
C60_5 C59_5 1_555 1_555
H34_5 C60_5 1_555 1_555
C61_5 C60_5 1_555 1_555
C62_5 C57_5 1_555 1_555
H35_5 C62_5 1_555 1_555
C63_5 C61_5 1_555 1_555
O37_4 C155_5 1_555 1_555
H84_5 C151_5 1_555 1_555
Eu4_4 O37_4 1_555 1_555
C61_5 C62_5 1_555 1_555
O11_4 C56_5 1_555 1_555
O12_4 C56_5 1_555 1_555
C50_5 C48_5 1_555 1_555
C51_5 C50_5 1_555 1_555
C52_5 C51_5 1_555 1_555
C53_5 C52_5 1_555 1_555
C54_5 C53_5 1_555 1_555
H30_5 C54_5 1_555 1_555
C55_5 C50_5 1_555 1_555
H31_5 C55_5 1_555 1_555
C56_5 C53_5 1_555 1_555
O29_4 C128_5 1_555 1_555
O30_4 C128_5 1_555 1_555
C122_5 C120_5 1_555 1_555
C123_5 C122_5 1_555 1_555
H68_5 C123_5 1_555 1_555
C124_5 C123_5 1_555 1_555
H69_5 C124_5 1_555 1_555
C125_5 C124_5 1_555 1_555
C126_5 C125_5 1_555 1_555
H70_5 C126_5 1_555 1_555
C127_5 C122_5 1_555 1_555
H71_5 C127_5 1_555 1_555
C128_5 C125_5 1_555 1_555
O43_4 C182_5 1_555 1_555
O44_4 C182_5 1_555 1_555
C176_5 C174_5 1_555 1_555
C177_5 C176_5 1_555 1_555
C178_5 C177_5 1_555 1_555
C179_5 C178_5 1_555 1_555
C180_5 C179_5 1_555 1_555
H100_5 C180_5 1_555 1_555
C181_5 C176_5 1_555 1_555
H101_5 C181_5 1_555 1_555
C182_5 C179_5 1_555 1_555
In7_2 O43_4 1_555 1_555
In8_2 O11_4 1_555 1_555
In9_2 O29_4 1_555 1_555
O12_4 In8_2 1_555 1_555
C54_5 C55_5 1_555 1_555
O30_4 In9_2 1_555 1_555
C126_5 C127_5 1_555 1_555
O44_4 In7_2 1_555 1_555
C180_5 C181_5 1_555 1_555
Eu4_3 O1_5 1_555 1_555
In4_2 O9_5 1_555 1_555
O1_5 C1_5 1_555 1_555
O2_5 Eu4_3 1_555 1_555
O3_5 Eu4_3 1_555 1_555
O4_5 Eu4_3 1_555 1_555
O5_4 C29_5 1_555 1_555
O6_4 C29_5 1_555 1_555
O7_5 Eu4_3 1_555 1_555
O8_5 Eu4_3 1_555 1_555
O9_5 C36_5 1_555 1_555
O10_5 In4_2 1_555 1_555
O15_5 In4_2 1_555 1_555
O16_5 In4_2 1_555 1_555
C1_5 O2_5 1_555 1_555
C2_5 C1_5 1_555 1_555
C3_5 C2_5 1_555 1_555
H1_5 C3_5 1_555 1_555
C4_5 C3_5 1_555 1_555
H2_5 C4_5 1_555 1_555
C5_5 C4_5 1_555 1_555
C6_5 C5_5 1_555 1_555
H3_5 C6_5 1_555 1_555
C7_5 C2_5 1_555 1_555
H4_5 C7_5 1_555 1_555
C8_5 C5_5 1_555 1_555
C9_5 C8_5 1_555 1_555
H5_5 C9_5 1_555 1_555
C10_5 O3_5 1_555 1_555
C11_5 C10_5 1_555 1_555
C12_5 C11_5 1_555 1_555
H6_5 C12_5 1_555 1_555
C13_5 C12_5 1_555 1_555
H7_5 C13_5 1_555 1_555
C14_5 C13_5 1_555 1_555
C15_5 C14_5 1_555 1_555
H8_5 C15_5 1_555 1_555
C16_5 C11_5 1_555 1_555
H9_5 C16_5 1_555 1_555
C17_5 C14_5 1_555 1_555
C18_5 C17_5 1_555 1_555
H10_5 C18_5 1_555 1_555
C19_5 C18_5 1_555 1_555
C20_5 C19_5 1_555 1_555
H11_5 C20_5 1_555 1_555
C21_5 C20_5 1_555 1_555
C22_5 C17_5 1_555 1_555
H12_5 C22_5 1_555 1_555
C23_5 C21_5 1_555 1_555
C24_5 C23_5 1_555 1_555
H13_5 C24_5 1_555 1_555
C25_5 C24_5 1_555 1_555
H14_5 C25_5 1_555 1_555
C26_5 C25_5 1_555 1_555
C27_5 C26_5 1_555 1_555
H15_5 C27_5 1_555 1_555
C28_5 C23_5 1_555 1_555
H16_5 C28_5 1_555 1_555
C29_5 C26_5 1_555 1_555
C30_5 C19_5 1_555 1_555
C31_5 C30_5 1_555 1_555
H17_5 C31_5 1_555 1_555
C32_5 C31_5 1_555 1_555
H18_5 C32_5 1_555 1_555
C33_5 C32_5 1_555 1_555
C34_5 C33_5 1_555 1_555
H19_5 C34_5 1_555 1_555
C35_5 C30_5 1_555 1_555
H20_5 C35_5 1_555 1_555
C36_5 O10_5 1_555 1_555
C37_5 O7_5 1_555 1_555
C38_5 C37_5 1_555 1_555
C39_5 C38_5 1_555 1_555
H21_5 C39_5 1_555 1_555
C40_5 C39_5 1_555 1_555
H22_5 C40_5 1_555 1_555
C41_5 C40_5 1_555 1_555
C42_5 C41_5 1_555 1_555
H23_5 C42_5 1_555 1_555
C43_5 C38_5 1_555 1_555
H24_5 C43_5 1_555 1_555
C44_5 C41_5 1_555 1_555
C45_5 C44_5 1_555 1_555
H25_5 C45_5 1_555 1_555
C46_5 C45_5 1_555 1_555
C47_5 C46_5 1_555 1_555
C49_5 C44_5 1_555 1_555
C58_5 C46_5 1_555 1_555
O17_5 C64_5 1_555 1_555
O18_5 C64_5 1_555 1_555
C64_5 C65_5 1_555 1_555
C65_5 C66_5 1_555 1_555
C66_5 H36_5 1_555 1_555
C67_5 C66_5 1_555 1_555
H37_5 C67_5 1_555 1_555
C68_5 C67_5 1_555 1_555
C69_5 C68_5 1_555 1_555
H38_5 C69_5 1_555 1_555
C70_5 C65_5 1_555 1_555
H39_5 C70_5 1_555 1_555
C71_5 C68_5 1_555 1_555
C72_5 C8_5 1_555 1_555
H40_5 C72_5 1_555 1_555
O19_5 C73_5 1_555 1_555
O20_5 C73_5 1_555 1_555
C73_5 C74_5 1_555 1_555
C74_5 C75_5 1_555 1_555
C75_5 H41_5 1_555 1_555
C76_5 C75_5 1_555 1_555
H42_5 C76_5 1_555 1_555
C77_5 C76_5 1_555 1_555
C78_5 C77_5 1_555 1_555
H43_5 C78_5 1_555 1_555
C79_5 C74_5 1_555 1_555
H44_5 C79_5 1_555 1_555
C80_5 C9_5 1_555 1_555
C81_5 C71_5 1_555 1_555
H45_5 C81_5 1_555 1_555
Eu5_3 O17_5 1_555 1_555
In5_2 O27_5 1_555 1_555
O21_5 Eu5_3 1_555 1_555
O22_5 Eu5_3 1_555 1_555
O25_5 Eu5_3 1_555 1_555
O26_5 Eu5_3 1_555 1_555
O27_5 C108_5 1_555 1_555
O28_5 In5_2 1_555 1_555
O62_3 C135_5 1_555 1_555
O32_5 C135_5 1_555 1_555
O33_5 In5_2 1_555 1_555
O34_5 In5_2 1_555 1_555
C82_5 O21_5 1_555 1_555
C83_5 C82_5 1_555 1_555
C84_5 C83_5 1_555 1_555
H46_5 C84_5 1_555 1_555
C85_5 C84_5 1_555 1_555
H47_5 C85_5 1_555 1_555
C86_5 C85_5 1_555 1_555
C87_5 C86_5 1_555 1_555
H48_5 C87_5 1_555 1_555
C88_5 C83_5 1_555 1_555
H49_5 C88_5 1_555 1_555
C89_5 C86_5 1_555 1_555
C90_5 C89_5 1_555 1_555
H50_5 C90_5 1_555 1_555
C91_5 C90_5 1_555 1_555
C92_5 C91_5 1_555 1_555
H51_5 C92_5 1_555 1_555
C93_5 C92_5 1_555 1_555
C94_5 C89_5 1_555 1_555
H52_5 C94_5 1_555 1_555
C95_5 C93_5 1_555 1_555
C96_5 C95_5 1_555 1_555
H53_5 C96_5 1_555 1_555
C99_5 C98_5 1_555 1_555
H55_5 C99_5 1_555 1_555
C100_5 C95_5 1_555 1_555
H56_5 C100_5 1_555 1_555
C102_5 C91_5 1_555 1_555
C103_5 C102_5 1_555 1_555
H57_5 C103_5 1_555 1_555
C104_5 C103_5 1_555 1_555
H58_5 C104_5 1_555 1_555
C105_5 C104_5 1_555 1_555
C106_5 C105_5 1_555 1_555
H59_5 C106_5 1_555 1_555
C107_5 C102_5 1_555 1_555
H60_5 C107_5 1_555 1_555
C108_5 O28_5 1_555 1_555
C109_5 O25_5 1_555 1_555
C110_5 C109_5 1_555 1_555
C111_5 C110_5 1_555 1_555
H61_5 C111_5 1_555 1_555
C112_5 C111_5 1_555 1_555
H62_5 C112_5 1_555 1_555
C113_5 C112_5 1_555 1_555
C114_5 C113_5 1_555 1_555
H63_5 C114_5 1_555 1_555
C115_5 C110_5 1_555 1_555
H64_5 C115_5 1_555 1_555
C116_5 C113_5 1_555 1_555
C117_5 C116_5 1_555 1_555
H65_5 C117_5 1_555 1_555
C118_5 C117_5 1_555 1_555
C119_5 C118_5 1_555 1_555
C121_5 C116_5 1_555 1_555
C129_5 H72_5 1_555 1_555
C130_5 C118_5 1_555 1_555
C131_5 C130_5 1_555 1_555
H73_5 C131_5 1_555 1_555
C132_5 C131_5 1_555 1_555
H74_5 C132_5 1_555 1_555
C133_5 C132_5 1_555 1_555
C134_5 C129_5 1_555 1_555
H75_5 C134_5 1_555 1_555
C135_5 C133_5 1_555 1_555
Eu6_3 O19_5 1_555 1_555
In6_2 O41_5 1_555 1_555
O35_5 Eu6_3 1_555 1_555
O36_5 Eu6_3 1_555 1_555
O39_5 Eu6_3 1_555 1_555
O40_5 Eu6_3 1_555 1_555
O41_5 C162_5 1_555 1_555
O42_5 In6_2 1_555 1_555
O47_5 In6_2 1_555 1_555
O48_5 In6_2 1_555 1_555
C136_5 O35_5 1_555 1_555
C137_5 C136_5 1_555 1_555
C138_5 C137_5 1_555 1_555
H76_5 C138_5 1_555 1_555
C139_5 C138_5 1_555 1_555
H77_5 C139_5 1_555 1_555
C140_5 C139_5 1_555 1_555
C141_5 C140_5 1_555 1_555
H78_5 C141_5 1_555 1_555
C142_5 C137_5 1_555 1_555
H79_5 C142_5 1_555 1_555
C143_5 C140_5 1_555 1_555
C144_5 C143_5 1_555 1_555
H80_5 C144_5 1_555 1_555
C145_5 C144_5 1_555 1_555
C146_5 C145_5 1_555 1_555
H81_5 C146_5 1_555 1_555
C147_5 C146_5 1_555 1_555
C148_5 C143_5 1_555 1_555
H82_5 C148_5 1_555 1_555
C149_5 C147_5 1_555 1_555
C150_5 C149_5 1_555 1_555
H83_5 C150_5 1_555 1_555
C153_5 C152_5 1_555 1_555
H85_5 C153_5 1_555 1_555
C154_5 C149_5 1_555 1_555
H86_5 C154_5 1_555 1_555
C156_5 C145_5 1_555 1_555
C157_5 C156_5 1_555 1_555
H87_5 C157_5 1_555 1_555
C158_5 C157_5 1_555 1_555
H88_5 C158_5 1_555 1_555
C159_5 C158_5 1_555 1_555
C160_5 C159_5 1_555 1_555
H89_5 C160_5 1_555 1_555
C161_5 C156_5 1_555 1_555
H90_5 C161_5 1_555 1_555
C162_5 O42_5 1_555 1_555
C163_5 O39_5 1_555 1_555
C164_5 C163_5 1_555 1_555
C165_5 C164_5 1_555 1_555
H91_5 C165_5 1_555 1_555
C166_5 C165_5 1_555 1_555
H92_5 C166_5 1_555 1_555
C167_5 C166_5 1_555 1_555
C168_5 C167_5 1_555 1_555
H93_5 C168_5 1_555 1_555
C169_5 C164_5 1_555 1_555
H94_5 C169_5 1_555 1_555
C170_5 C167_5 1_555 1_555
C171_5 C170_5 1_555 1_555
H95_5 C171_5 1_555 1_555
C172_5 C171_5 1_555 1_555
C173_5 C172_5 1_555 1_555
C175_5 C170_5 1_555 1_555
C184_5 C172_5 1_555 1_555
Eu5_4 O5_4 1_555 1_555
O61_4 In4_2 1_555 1_555
O62_4 In5_2 1_555 1_555
O63_4 In6_2 1_555 1_555
O4_5 C10_5 1_555 1_555
O6_4 Eu5_4 1_555 1_555
O8_5 C37_5 1_555 1_555
C6_5 C7_5 1_555 1_555
C15_5 C16_5 1_555 1_555
C21_5 C22_5 1_555 1_555
C27_5 C28_5 1_555 1_555
C33_5 C36_5 1_555 1_555
C34_5 C35_5 1_555 1_555
C42_5 C43_5 1_555 1_555
O18_5 Eu5_3 1_555 1_555
C69_5 C70_5 1_555 1_555
C71_5 C72_5 1_555 1_555
O20_5 Eu6_3 1_555 1_555
C77_5 C80_5 1_555 1_555
C78_5 C79_5 1_555 1_555
C80_5 C81_5 1_555 1_555
O22_5 C82_5 1_555 1_555
O26_5 C109_5 1_555 1_555
C87_5 C88_5 1_555 1_555
C93_5 C94_5 1_555 1_555
C99_5 C100_5 1_555 1_555
C105_5 C108_5 1_555 1_555
C106_5 C107_5 1_555 1_555
C114_5 C115_5 1_555 1_555
C129_5 C130_5 1_555 1_555
C133_5 C134_5 1_555 1_555
O36_5 C136_5 1_555 1_555
O40_5 C163_5 1_555 1_555
C141_5 C142_5 1_555 1_555
C147_5 C148_5 1_555 1_555
C153_5 C154_5 1_555 1_555
C159_5 C162_5 1_555 1_555
C160_5 C161_5 1_555 1_555
C168_5 C169_5 1_555 1_555
O15_5 H106_5 1_555 1_555
O15_5 H107_5 1_555 1_555
O16_5 H108_5 1_555 1_555
O16_5 H109_5 1_555 1_555
O33_5 H110_5 1_555 1_555
O33_5 H111_5 1_555 1_555
O34_5 H112_5 1_555 1_555
O34_5 H113_5 1_555 1_555
O48_5 H114_5 1_555 1_555
O48_5 H115_5 1_555 1_555
O47_5 H116_5 1_555 1_555
O47_5 H117_5 1_555 1_555
O23_4 C101_5 1_555 1_555
H54_5 C97_5 1_555 1_555
O63_3 C189_5 1_555 1_555
O46_5 C189_5 1_555 1_555
H103_5 C185_5 1_555 1_555
C186_5 C185_5 1_555 1_555
H104_5 C186_5 1_555 1_555
C187_5 C186_5 1_555 1_555
C188_5 C183_5 1_555 1_555
H105_5 C188_5 1_555 1_555
C189_5 C187_5 1_555 1_555
Eu6_4 O23_4 1_555 1_555
C187_5 C188_5 1_555 1_555
Eu4_4 O1_6 1_555 1_555
O1_6 C1_6 1_555 1_555
O2_6 Eu4_4 1_555 1_555
O3_6 Eu4_4 1_555 1_555
O49_2 C29_6 1_555 1_555
O52_2 C29_6 1_555 1_555
O7_6 Eu4_4 1_555 1_555
O8_6 Eu4_4 1_555 1_555
O55_2 C56_6 1_555 1_555
O58_2 C56_6 1_555 1_555
O61_4 C63_6 1_555 1_555
O14_6 C63_6 1_555 1_555
C1_6 O2_6 1_555 1_555
C2_6 C1_6 1_555 1_555
C3_6 C2_6 1_555 1_555
H1_6 C3_6 1_555 1_555
C4_6 C3_6 1_555 1_555
H2_6 C4_6 1_555 1_555
C5_6 C4_6 1_555 1_555
C8_6 C5_6 1_555 1_555
C9_6 C8_6 1_555 1_555
H5_6 C9_6 1_555 1_555
C10_6 O3_6 1_555 1_555
C11_6 C10_6 1_555 1_555
H8_6 C15_6 1_555 1_555
C16_6 C11_6 1_555 1_555
H9_6 C16_6 1_555 1_555
H12_6 C22_6 1_555 1_555
C26_6 C25_6 1_555 1_555
C27_6 C26_6 1_555 1_555
H15_6 C27_6 1_555 1_555
C28_6 C23_6 1_555 1_555
H16_6 C28_6 1_555 1_555
C29_6 C26_6 1_555 1_555
C37_6 O7_6 1_555 1_555
C38_6 C37_6 1_555 1_555
C39_6 C38_6 1_555 1_555
H21_6 C39_6 1_555 1_555
C40_6 C39_6 1_555 1_555
H22_6 C40_6 1_555 1_555
C41_6 C40_6 1_555 1_555
C42_6 C41_6 1_555 1_555
H23_6 C42_6 1_555 1_555
C43_6 C38_6 1_555 1_555
H24_6 C43_6 1_555 1_555
C44_6 C41_6 1_555 1_555
C45_6 C44_6 1_555 1_555
H25_6 C45_6 1_555 1_555
C46_6 C45_6 1_555 1_555
C47_6 C46_6 1_555 1_555
H26_6 C47_6 1_555 1_555
C48_6 C47_6 1_555 1_555
C49_6 C44_6 1_555 1_555
H27_6 C49_6 1_555 1_555
C50_6 C48_6 1_555 1_555
C51_6 C50_6 1_555 1_555
H28_5 C51_6 1_555 1_555
C52_6 C51_6 1_555 1_555
H29_5 C52_6 1_555 1_555
C53_6 C52_6 1_555 1_555
C54_6 C53_6 1_555 1_555
H30_6 C54_6 1_555 1_555
C55_6 C50_6 1_555 1_555
H31_6 C55_6 1_555 1_555
C56_6 C53_6 1_555 1_555
C57_6 H32_6 1_555 1_555
C58_6 C46_6 1_555 1_555
C59_6 C58_6 1_555 1_555
H33_6 C59_6 1_555 1_555
C60_6 C59_6 1_555 1_555
H34_6 C60_6 1_555 1_555
C61_6 C60_6 1_555 1_555
C62_6 C57_6 1_555 1_555
H35_6 C62_6 1_555 1_555
C63_6 C61_6 1_555 1_555
H43_6 C78_6 1_555 1_555
H44_6 C79_6 1_555 1_555
In9_2 O41_6 1_555 1_555
O41_6 C162_6 1_555 1_555
O42_6 In9_2 1_555 1_555
O47_6 In9_2 1_555 1_555
O48_6 In9_2 1_555 1_555
H76_6 C138_6 1_555 1_555
C139_6 C138_6 1_555 1_555
H77_6 C139_6 1_555 1_555
C140_6 C139_6 1_555 1_555
C143_6 C140_6 1_555 1_555
C144_6 C143_6 1_555 1_555
H80_6 C144_6 1_555 1_555
C145_6 C144_6 1_555 1_555
C146_6 C145_6 1_555 1_555
H81_6 C146_6 1_555 1_555
C147_6 C146_6 1_555 1_555
H83_6 C150_6 1_555 1_555
C156_6 C145_6 1_555 1_555
C157_6 C156_6 1_555 1_555
H87_6 C157_6 1_555 1_555
C158_6 C157_6 1_555 1_555
H88_6 C158_6 1_555 1_555
C159_6 C158_6 1_555 1_555
C160_6 C159_6 1_555 1_555
H89_6 C160_6 1_555 1_555
C161_6 C156_6 1_555 1_555
H90_6 C161_6 1_555 1_555
C162_6 O42_6 1_555 1_555
O8_6 C37_6 1_555 1_555
C15_6 C16_6 1_555 1_555
C27_6 C28_6 1_555 1_555
C42_6 C43_6 1_555 1_555
C48_6 C49_6 1_555 1_555
C54_6 C55_6 1_555 1_555
C57_6 C58_6 1_555 1_555
C61_6 C62_6 1_555 1_555
C78_6 C79_6 1_555 1_555
C159_6 C162_6 1_555 1_555
C160_6 C161_6 1_555 1_555
O48_6 H114_6 1_555 1_555
O48_6 H115_6 1_555 1_555
O47_6 H116_6 1_555 1_555
O47_6 H117_6 1_555 1_555
O19_6 C73_6 1_555 1_555
O20_6 C73_6 1_555 1_555
C73_6 C74_6 1_555 1_555
C74_6 C75_6 1_555 1_555
C75_6 H41_6 1_555 1_555
C76_6 C75_6 1_555 1_555
H42_6 C76_6 1_555 1_555
C77_6 C76_6 1_555 1_555
Eu6_4 O19_6 1_555 1_555
O35_6 Eu6_4 1_555 1_555
O51_2 C155_6 1_555 1_555
O54_2 C155_6 1_555 1_555
O39_6 Eu6_4 1_555 1_555
O40_6 Eu6_4 1_555 1_555
O57_2 C182_6 1_555 1_555
O60_2 C182_6 1_555 1_555
C136_6 O35_6 1_555 1_555
C137_6 C136_6 1_555 1_555
H78_6 C141_6 1_555 1_555
C142_6 C137_6 1_555 1_555
H79_6 C142_6 1_555 1_555
H82_6 C148_6 1_555 1_555
C152_6 C151_6 1_555 1_555
C153_6 C152_6 1_555 1_555
H85_6 C153_6 1_555 1_555
C154_6 C149_6 1_555 1_555
H86_6 C154_6 1_555 1_555
C155_6 C152_6 1_555 1_555
C163_6 O39_6 1_555 1_555
C164_6 C163_6 1_555 1_555
C165_6 C164_6 1_555 1_555
H91_6 C165_6 1_555 1_555
C166_6 C165_6 1_555 1_555
H92_6 C166_6 1_555 1_555
C167_6 C166_6 1_555 1_555
C168_6 C167_6 1_555 1_555
H93_6 C168_6 1_555 1_555
C169_6 C164_6 1_555 1_555
H94_6 C169_6 1_555 1_555
C170_6 C167_6 1_555 1_555
C171_6 C170_6 1_555 1_555
H95_6 C171_6 1_555 1_555
C172_6 C171_6 1_555 1_555
C173_6 C172_6 1_555 1_555
H96_6 C173_6 1_555 1_555
C174_6 C173_6 1_555 1_555
C175_6 C170_6 1_555 1_555
H97_6 C175_6 1_555 1_555
C176_6 C174_6 1_555 1_555
C177_6 C176_6 1_555 1_555
H98_5 C177_6 1_555 1_555
C178_6 C177_6 1_555 1_555
H99_5 C178_6 1_555 1_555
C179_6 C178_6 1_555 1_555
C180_6 C179_6 1_555 1_555
H100_6 C180_6 1_555 1_555
C181_6 C176_6 1_555 1_555
H101_6 C181_6 1_555 1_555
C182_6 C179_6 1_555 1_555
C183_6 H102_6 1_555 1_555
C184_6 C172_6 1_555 1_555
O20_6 Eu6_4 1_555 1_555
C77_6 C80_6 1_555 1_555
O40_6 C163_6 1_555 1_555
C141_6 C142_6 1_555 1_555
C153_6 C154_6 1_555 1_555
C168_6 C169_6 1_555 1_555
C174_6 C175_6 1_555 1_555
C180_6 C181_6 1_555 1_555
C183_6 C184_6 1_555 1_555
O34_6 H112_6 1_555 1_555
O34_6 H113_6 1_555 1_555
In7_2 O9_6 1_555 1_555
O9_6 C36_6 1_555 1_555
O10_6 In7_2 1_555 1_555
O15_6 In7_2 1_555 1_555
H3_6 C6_6 1_555 1_555
H4_6 C7_6 1_555 1_555
H6_6 C12_6 1_555 1_555
C13_6 C12_6 1_555 1_555
H7_6 C13_6 1_555 1_555
C14_6 C13_6 1_555 1_555
C17_6 C14_6 1_555 1_555
C18_6 C17_6 1_555 1_555
H10_6 C18_6 1_555 1_555
C19_6 C18_6 1_555 1_555
C20_6 C19_6 1_555 1_555
H11_6 C20_6 1_555 1_555
C21_6 C20_6 1_555 1_555
H13_6 C24_6 1_555 1_555
C30_6 C19_6 1_555 1_555
C31_6 C30_6 1_555 1_555
H17_6 C31_6 1_555 1_555
C32_6 C31_6 1_555 1_555
H18_6 C32_6 1_555 1_555
C33_6 C32_6 1_555 1_555
C34_6 C33_6 1_555 1_555
H19_6 C34_6 1_555 1_555
C35_6 C30_6 1_555 1_555
H20_6 C35_6 1_555 1_555
C36_6 O10_6 1_555 1_555
H40_6 C72_6 1_555 1_555
O62_4 C135_6 1_555 1_555
O32_6 C135_6 1_555 1_555
H73_6 C131_6 1_555 1_555
C132_6 C131_6 1_555 1_555
H74_6 C132_6 1_555 1_555
C133_6 C132_6 1_555 1_555
H75_6 C134_6 1_555 1_555
C135_6 C133_6 1_555 1_555
C6_6 C7_6 1_555 1_555
C33_6 C36_6 1_555 1_555
C34_6 C35_6 1_555 1_555
C133_6 C134_6 1_555 1_555
O15_6 H106_6 1_555 1_555
O15_6 H107_6 1_555 1_555
O17_6 C64_6 1_555 1_555
O18_6 C64_6 1_555 1_555
C64_6 C65_6 1_555 1_555
C65_6 C66_6 1_555 1_555
C66_6 H36_6 1_555 1_555
C67_6 C66_6 1_555 1_555
H37_6 C67_6 1_555 1_555
C68_6 C67_6 1_555 1_555
C69_6 C68_6 1_555 1_555
H38_6 C69_6 1_555 1_555
C70_6 C65_6 1_555 1_555
H39_6 C70_6 1_555 1_555
C71_6 C68_6 1_555 1_555
C81_6 C71_6 1_555 1_555
H45_6 C81_6 1_555 1_555
Eu5_4 O17_6 1_555 1_555
In8_2 O27_6 1_555 1_555
O21_6 Eu5_4 1_555 1_555
O22_6 Eu5_4 1_555 1_555
O50_2 C101_6 1_555 1_555
O53_2 C101_6 1_555 1_555
O25_6 Eu5_4 1_555 1_555
O26_6 Eu5_4 1_555 1_555
O27_6 C108_6 1_555 1_555
O28_6 In8_2 1_555 1_555
O56_2 C128_6 1_555 1_555
O59_2 C128_6 1_555 1_555
O33_6 In8_2 1_555 1_555
C82_6 O21_6 1_555 1_555
C83_6 C82_6 1_555 1_555
C84_6 C83_6 1_555 1_555
H46_6 C84_6 1_555 1_555
C85_6 C84_6 1_555 1_555
H47_6 C85_6 1_555 1_555
C86_6 C85_6 1_555 1_555
C87_6 C86_6 1_555 1_555
H48_6 C87_6 1_555 1_555
C88_6 C83_6 1_555 1_555
H49_6 C88_6 1_555 1_555
C89_6 C86_6 1_555 1_555
C90_6 C89_6 1_555 1_555
H50_6 C90_6 1_555 1_555
C91_6 C90_6 1_555 1_555
C92_6 C91_6 1_555 1_555
H51_6 C92_6 1_555 1_555
C93_6 C92_6 1_555 1_555
C94_6 C89_6 1_555 1_555
H52_6 C94_6 1_555 1_555
C95_6 C93_6 1_555 1_555
C96_6 C95_6 1_555 1_555
H53_6 C96_6 1_555 1_555
C97_6 C96_6 1_555 1_555
H54_6 C97_6 1_555 1_555
C98_6 C97_6 1_555 1_555
C99_6 C98_6 1_555 1_555
H55_6 C99_6 1_555 1_555
C100_6 C95_6 1_555 1_555
H56_6 C100_6 1_555 1_555
C101_6 C98_6 1_555 1_555
C102_6 C91_6 1_555 1_555
C103_6 C102_6 1_555 1_555
H57_6 C103_6 1_555 1_555
C104_6 C103_6 1_555 1_555
H58_6 C104_6 1_555 1_555
C105_6 C104_6 1_555 1_555
C106_6 C105_6 1_555 1_555
H59_6 C106_6 1_555 1_555
C107_6 C102_6 1_555 1_555
H60_6 C107_6 1_555 1_555
C108_6 O28_6 1_555 1_555
C109_6 O25_6 1_555 1_555
C110_6 C109_6 1_555 1_555
C111_6 C110_6 1_555 1_555
H61_6 C111_6 1_555 1_555
C112_6 C111_6 1_555 1_555
H62_6 C112_6 1_555 1_555
C113_6 C112_6 1_555 1_555
C114_6 C113_6 1_555 1_555
H63_6 C114_6 1_555 1_555
C115_6 C110_6 1_555 1_555
H64_6 C115_6 1_555 1_555
C116_6 C113_6 1_555 1_555
C117_6 C116_6 1_555 1_555
H65_6 C117_6 1_555 1_555
C118_6 C117_6 1_555 1_555
C119_6 C118_6 1_555 1_555
H66_6 C119_6 1_555 1_555
C120_6 C119_6 1_555 1_555
C121_6 C116_6 1_555 1_555
H67_6 C121_6 1_555 1_555
C122_6 C120_6 1_555 1_555
C123_6 C122_6 1_555 1_555
H68_6 C123_6 1_555 1_555
C124_6 C123_6 1_555 1_555
H69_6 C124_6 1_555 1_555
C125_6 C124_6 1_555 1_555
C126_6 C125_6 1_555 1_555
H70_6 C126_6 1_555 1_555
C127_6 C122_6 1_555 1_555
H71_6 C127_6 1_555 1_555
C128_6 C125_6 1_555 1_555
C129_6 H72_6 1_555 1_555
C130_6 C118_6 1_555 1_555
O63_4 C189_6 1_555 1_555
O46_6 C189_6 1_555 1_555
H103_6 C185_6 1_555 1_555
C186_6 C185_6 1_555 1_555
H104_6 C186_6 1_555 1_555
C187_6 C186_6 1_555 1_555
H105_6 C188_6 1_555 1_555
C189_6 C187_6 1_555 1_555
O18_6 Eu5_4 1_555 1_555
C69_6 C70_6 1_555 1_555
O22_6 C82_6 1_555 1_555
O26_6 C109_6 1_555 1_555
C87_6 C88_6 1_555 1_555
C93_6 C94_6 1_555 1_555
C99_6 C100_6 1_555 1_555
C105_6 C108_6 1_555 1_555
C106_6 C107_6 1_555 1_555
C114_6 C115_6 1_555 1_555
C120_6 C121_6 1_555 1_555
C126_6 C127_6 1_555 1_555
C129_6 C130_6 1_555 1_555
C187_6 C188_6 1_555 1_555
O16_6 H108_6 1_555 1_555
O16_6 H109_6 1_555 1_555
O33_6 H110_6 1_555 1_555
O33_6 H111_6 1_555 1_555

#END
