
###############################################################################
#
# This file contains modified crystal structure data generated from the
# MOF subset of the Cambridge Structural Database (CSD) v543 
# hosted by the Cambridge Crystallographic Data Centre (CCDC).
#
# This work is licensed under the Creative Commons
# Attribution-NonCommercial-ShareAlike 4.0 International License.
# To view a copy of this license, visit
# http://creativecommons.org/licenses/by-nc-sa/4.0/
# or send a letter to
# Creative Commons, PO Box 1866, Mountain View, CA 94042, USA.
#
# CIF created using the CSD Python API on 29 September 2022
# The structure has been converted into the P1 space group
# The structure has a 3D framework
# The original CSD entry KUNTAQ03 is in the orthorhombic crystal system
# The framework has been calculated to contain at least 10.0% void space
# The void calculation uses a probe of radius 1.32A, grid spacing 0.4
# H atom positions have been added when not included in the experimental data
#
###############################################################################

data_KUNTAQ03
_chemical_formula_moiety         '(C40 H16 Al3 F2 O16)n'
_symmetry_cell_setting           triclinic
_symmetry_space_group_name_H-M   'P 1'
_symmetry_Int_Tables_number      1
_space_group_name_Hall           'P 1'
loop_
_symmetry_equiv_pos_site_id
_symmetry_equiv_pos_as_xyz
1 x,y,z
_cell_length_a                   6.56394(13)
_cell_length_b                   16.4021(4)
_cell_length_c                   13.1830(5)
_cell_angle_alpha                90
_cell_angle_beta                 90
_cell_angle_gamma                90
_cell_volume                     1419.31
loop_
_atom_site_label
_atom_site_type_symbol
_atom_site_fract_x
_atom_site_fract_y
_atom_site_fract_z
_atom_site_U_iso_or_equiv
_atom_site_thermal_displace_type
Al1 Al 0.250 0.250 0.750 0.0232 Uiso
F1 F -0.000 0.250 0.6907(4) 0.0152 Uiso
O1 O 0.1699(4) 0.16692(17) 0.84153(24) 0.0152 Uiso
C2 C -0.000 0.0616(4) 0.9432(6) 0.0303 Uiso
C3 C -0.000 0.1397(5) 0.8724(6) 0.0303 Uiso
C4 C 0.1945(5) 0.0311(4) 0.9627(5) 0.0303 Uiso
F2 F 0.500 0.250 0.8093(4) 0.0152 Uiso
O5 O 0.1699(4) 0.33308(17) 0.84153(24) 0.0152 Uiso
O6 O 0.3301(4) 0.33308(17) 0.65847(24) 0.0152 Uiso
O7 O 0.3301(4) 0.16692(17) 0.65847(24) 0.0152 Uiso
H2 H 0.331514 0.0527521 0.924699 . .
C5 C 0.1945(5) 0.9689(4) 0.0373(5) 0.0303 Uiso
C6 C -0.000 0.9384(4) 0.0568(6) 0.0303 Uiso
C7 C 0.000 0.8603(5) 0.1276(6) 0.0303 Uiso
O4 O 0.1699(4) 0.83308(17) 0.15847(24) 0.0152 Uiso
Al4 Al 0.250 0.750 0.250 0.0232 Uiso
H4 H 0.331514 0.947248 0.0753007 . .
F1_2 F 1.000 0.250 0.6907(4) 0.0152 Uiso
C1 C 0.8055(5) 0.0311(4) 0.9627(5) 0.0303 Uiso
C2_2 C 1.000 0.0616(4) 0.9432(6) 0.0303 Uiso
C3_2 C 1.000 0.1397(5) 0.8724(6) 0.0303 Uiso
O2 O 0.8301(4) 0.16692(17) 0.84153(24) 0.0152 Uiso
Al2 Al 0.750 0.250 0.750 0.0232 Uiso
H1 H 0.668486 0.0527521 0.924699 . .
O3 O 0.8301(4) 0.83308(17) 0.15847(24) 0.0152 Uiso
C6_2 C 1.000 0.9384(4) 0.0568(6) 0.0303 Uiso
C7_2 C 1.000 0.8603(5) 0.1276(6) 0.0303 Uiso
C8 C 0.8055(5) 0.9689(4) 0.0373(5) 0.0303 Uiso
Al3 Al 0.750 0.750 0.250 0.0232 Uiso
H3 H 0.668486 0.947248 0.0753007 . .
O3_2 O 0.1699(4) 0.66692(17) 0.15847(24) 0.0152 Uiso
C6_3 C -0.000 0.5616(4) 0.0568(6) 0.0303 Uiso
C7_3 C -0.000 0.6397(5) 0.1276(6) 0.0303 Uiso
C8_2 C 0.1945(5) 0.5311(4) 0.0373(5) 0.0303 Uiso
H3_2 H 0.331514 0.552752 0.0753007 . .
C1_2 C 0.1945(5) 0.4689(4) 0.9627(5) 0.0303 Uiso
C2_3 C 0.000 0.4384(4) 0.9432(6) 0.0303 Uiso
C3_3 C 0.000 0.3603(5) 0.8724(6) 0.0303 Uiso
H1_2 H 0.331514 0.447248 0.924699 . .
C5_2 C 0.8055(5) 0.5311(4) 0.0373(5) 0.0303 Uiso
C6_4 C 1.000 0.5616(4) 0.0568(6) 0.0303 Uiso
C7_4 C 1.000 0.6397(5) 0.1276(6) 0.0303 Uiso
O4_2 O 0.8301(4) 0.66692(17) 0.15847(24) 0.0152 Uiso
H4_2 H 0.668486 0.552752 0.0753007 . .
O1_2 O 0.8301(4) 0.33308(17) 0.84153(24) 0.0152 Uiso
C2_4 C 1.000 0.4384(4) 0.9432(6) 0.0303 Uiso
C3_4 C 1.000 0.3603(5) 0.8724(6) 0.0303 Uiso
C4_2 C 0.8055(5) 0.4689(4) 0.9627(5) 0.0303 Uiso
O6_2 O 0.6699(4) 0.16692(17) 0.65847(24) 0.0152 Uiso
O7_2 O 0.6699(4) 0.33308(17) 0.65847(24) 0.0152 Uiso
H2_2 H 0.668486 0.447248 0.924699 . .
F1_3 F -0.000 0.750 0.3093(4) 0.0152 Uiso
F2_2 F 0.500 0.750 0.1907(4) 0.0152 Uiso
O6_3 O 0.3301(4) 0.66692(17) 0.34153(24) 0.0152 Uiso
O7_3 O 0.3301(4) 0.83308(17) 0.34153(24) 0.0152 Uiso
F1_4 F 1.000 0.750 0.3093(4) 0.0152 Uiso
O6_4 O 0.6699(4) 0.83308(17) 0.34153(24) 0.0152 Uiso
O7_4 O 0.6699(4) 0.66692(17) 0.34153(24) 0.0152 Uiso
C1_3 C 0.3055(5) 0.5311(4) 0.4627(5) 0.0303 Uiso
C2_5 C 0.500 0.5616(4) 0.4432(6) 0.0303 Uiso
C3_5 C 0.500 0.6397(5) 0.3724(6) 0.0303 Uiso
C4_3 C 0.6945(5) 0.5311(4) 0.4627(5) 0.0303 Uiso
C5_3 C 0.6945(5) 0.4689(4) 0.5373(5) 0.0303 Uiso
C6_5 C 0.500 0.4384(4) 0.5568(6) 0.0303 Uiso
C7_5 C 0.500 0.3603(5) 0.6276(6) 0.0303 Uiso
C8_3 C 0.3055(5) 0.4689(4) 0.5373(5) 0.0303 Uiso
H1_3 H 0.168486 0.552752 0.424699 . .
H2_3 H 0.831514 0.552752 0.424699 . .
H3_3 H 0.168486 0.447248 0.575301 . .
H4_3 H 0.831514 0.447248 0.575301 . .
C5_4 C 0.3055(5) 0.0311(4) 0.5373(5) 0.0303 Uiso
C6_6 C 0.500 0.0616(4) 0.5568(6) 0.0303 Uiso
C7_6 C 0.500 0.1397(5) 0.6276(6) 0.0303 Uiso
C8_4 C 0.6945(5) 0.0311(4) 0.5373(5) 0.0303 Uiso
H3_4 H 0.831514 0.0527521 0.575301 . .
H4_4 H 0.168486 0.0527521 0.575301 . .
C1_4 C 0.6945(5) 0.9689(4) 0.4627(5) 0.0303 Uiso
C2_6 C 0.500 0.9384(4) 0.4432(6) 0.0303 Uiso
C3_6 C 0.500 0.8603(5) 0.3724(6) 0.0303 Uiso
C4_4 C 0.3055(5) 0.9689(4) 0.4627(5) 0.0303 Uiso
H1_4 H 0.831514 0.947248 0.424699 . .
H2_4 H 0.168486 0.947248 0.424699 . .
loop_
_geom_bond_atom_site_label_1
_geom_bond_atom_site_label_2
_geom_bond_site_symmetry_1
_geom_bond_site_symmetry_2
Al1 F1 1_555 1_555
O1 Al1 1_555 1_555
C2 C3 1_555 1_555
C3 O1 1_555 1_555
C4 C2 1_555 1_555
F2 Al1 1_555 1_555
O5 Al1 1_555 1_555
O6 Al1 1_555 1_555
O7 Al1 1_555 1_555
C4 H2 1_555 1_555
C6 C5 1_555 1_555
C7 C6 1_555 1_555
O4 C7 1_555 1_555
Al4 O4 1_555 1_555
C5 H4 1_555 1_555
F1_2 Al2 1_555 1_555
C1 C2_2 1_555 1_555
C2_2 C3_2 1_555 1_555
O2 C3_2 1_555 1_555
Al2 O2 1_555 1_555
C1 H1 1_555 1_555
O3 C7_2 1_555 1_555
C7_2 C6_2 1_555 1_555
Al3 O3 1_555 1_555
C6_2 C8 1_555 1_555
C8 H3 1_555 1_555
O3_2 C7_3 1_555 1_555
C7_3 C6_3 1_555 1_555
Al4 O3_2 1_555 1_555
C6_3 C8_2 1_555 1_555
C8_2 H3_2 1_555 1_555
C1_2 C2_3 1_555 1_555
C2_3 C3_3 1_555 1_555
O5 C3_3 1_555 1_555
C1_2 H1_2 1_555 1_555
C6_4 C5_2 1_555 1_555
C7_4 C6_4 1_555 1_555
O4_2 C7_4 1_555 1_555
Al3 O4_2 1_555 1_555
C5_2 H4_2 1_555 1_555
O1_2 Al2 1_555 1_555
C2_4 C3_4 1_555 1_555
C3_4 O1_2 1_555 1_555
C4_2 C2_4 1_555 1_555
F2 Al2 1_555 1_555
O6_2 Al2 1_555 1_555
O7_2 Al2 1_555 1_555
C4_2 H2_2 1_555 1_555
Al4 F1_3 1_555 1_555
F2_2 Al4 1_555 1_555
O6_3 Al4 1_555 1_555
O7_3 Al4 1_555 1_555
F1_4 Al3 1_555 1_555
F2_2 Al3 1_555 1_555
O6_4 Al3 1_555 1_555
O7_4 Al3 1_555 1_555
C1_3 C2_5 1_555 1_555
C2_5 C3_5 1_555 1_555
C3_5 O7_4 1_555 1_555
O6_3 C3_5 1_555 1_555
C4_3 C2_5 1_555 1_555
O6 C7_5 1_555 1_555
C5_3 C4_3 1_555 1_555
C6_5 C5_3 1_555 1_555
C7_5 C6_5 1_555 1_555
O7_2 C7_5 1_555 1_555
C8_3 C1_3 1_555 1_555
C6_5 C8_3 1_555 1_555
C1_3 H1_3 1_555 1_555
C4_3 H2_3 1_555 1_555
C8_3 H3_3 1_555 1_555
C5_3 H4_3 1_555 1_555
O6_2 C7_6 1_555 1_555
C6_6 C5_4 1_555 1_555
C7_6 C6_6 1_555 1_555
O7 C7_6 1_555 1_555
C6_6 C8_4 1_555 1_555
C8_4 H3_4 1_555 1_555
C5_4 H4_4 1_555 1_555
C1_4 C2_6 1_555 1_555
C2_6 C3_6 1_555 1_555
C3_6 O7_3 1_555 1_555
O6_4 C3_6 1_555 1_555
C4_4 C2_6 1_555 1_555
C1_4 H1_4 1_555 1_555
C4_4 H2_4 1_555 1_555

#END
