
###############################################################################
#
# This file contains modified crystal structure data generated from the
# MOF subset of the Cambridge Structural Database (CSD) v543 
# hosted by the Cambridge Crystallographic Data Centre (CCDC).
#
# This work is licensed under the Creative Commons
# Attribution-NonCommercial-ShareAlike 4.0 International License.
# To view a copy of this license, visit
# http://creativecommons.org/licenses/by-nc-sa/4.0/
# or send a letter to
# Creative Commons, PO Box 1866, Mountain View, CA 94042, USA.
#
# CIF created using the CSD Python API on 29 September 2022
# The structure has been converted into the P1 space group
# The structure has a 3D framework
# The original CSD entry KUNTAQ01 is in the monoclinic crystal system
# The framework has been calculated to contain at least 10.0% void space
# The void calculation uses a probe of radius 1.32A, grid spacing 0.4
# H atom positions have been added when not included in the experimental data
#
###############################################################################

data_KUNTAQ01
_chemical_formula_moiety         '(C36 H16 Al4 F2 O16)n'
_symmetry_cell_setting           triclinic
_symmetry_space_group_name_H-M   'P 1'
_symmetry_Int_Tables_number      1
_space_group_name_Hall           'P 1'
loop_
_symmetry_equiv_pos_site_id
_symmetry_equiv_pos_as_xyz
1 x,y,z
_cell_length_a                   6.56220(15)
_cell_length_b                   16.4151(5)
_cell_length_c                   13.1768(6)
_cell_angle_alpha                90
_cell_angle_beta                 90
_cell_angle_gamma                90.2748(18)
_cell_volume                     1419.38
loop_
_atom_site_label
_atom_site_type_symbol
_atom_site_fract_x
_atom_site_fract_y
_atom_site_fract_z
_atom_site_U_iso_or_equiv
_atom_site_thermal_displace_type
Al1 Al 0.250 0.250 0.750 0.0463 Uiso
F1 F 0.000 0.250 0.6913(4) 0.0248 Uiso
O1 O 0.1669(9) 0.1699(4) 0.8499(7) 0.0248 Uiso
C2 C 0.0039(27) 0.0608(5) 0.9420(7) 0.0327 Uiso
C3 C 0.0000(20) 0.1386(5) 0.8687(7) 0.0327 Uiso
C4 C 0.1931(19) 0.0363(8) 0.9692(11) 0.0327 Uiso
F2 F 0.500 0.250 0.8087(4) 0.0248 Uiso
O5 O 0.3331(9) 0.3301(4) 0.6501(7) 0.0248 Uiso
O6 O 0.1764(10) 0.3366(4) 0.8360(6) 0.0248 Uiso
O7 O 0.3236(10) 0.1634(4) 0.6640(6) 0.0248 Uiso
H1 H 0.330266 0.0643611 0.938138 . .
C6 C 0.0000(20) 0.8614(5) 0.1313(7) 0.0327 Uiso
O4 O 0.1764(10) 0.8366(4) 0.1640(6) 0.0248 Uiso
C7 C 0.2013(19) 0.9707(8) 0.0419(10) 0.0327 Uiso
Al4 Al 0.250 0.750 0.250 0.0463 Uiso
H3 H 0.338671 0.948371 0.07875 . .
F1_2 F 1.000 0.250 0.6913(4) 0.0248 Uiso
O2 O 0.8236(10) 0.1634(4) 0.8360(6) 0.0248 Uiso
C1 C 0.7987(19) 0.0293(8) 0.9581(10) 0.0327 Uiso
C3_2 C 1.0000(20) 0.1386(5) 0.8687(7) 0.0327 Uiso
Al2 Al 0.750 0.250 0.750 0.0463 Uiso
H2 H 0.661329 0.0516295 0.92125 . .
O3 O 0.8331(9) 0.8301(4) 0.1501(7) 0.0248 Uiso
C5 C 0.9961(27) 0.9392(5) 0.0580(7) 0.0327 Uiso
C6_2 C 1.0000(20) 0.8614(5) 0.1313(7) 0.0327 Uiso
C8 C 0.8069(19) 0.9637(8) 0.0308(11) 0.0327 Uiso
Al3 Al 0.750 0.750 0.250 0.0463 Uiso
H4 H 0.669734 0.935639 0.0618617 . .
O3_2 O 0.1669(9) 0.6699(4) 0.1501(7) 0.0248 Uiso
C5_2 C 0.0039(27) 0.5608(5) 0.0580(7) 0.0327 Uiso
C6_3 C 0.0000(20) 0.6386(5) 0.1313(7) 0.0327 Uiso
C8_2 C 0.1931(19) 0.5363(8) 0.0308(11) 0.0327 Uiso
H4_2 H 0.330266 0.564361 0.0618617 . .
C1_2 C 0.2013(19) 0.4707(8) 0.9581(10) 0.0327 Uiso
C3_3 C -0.0000(20) 0.3614(5) 0.8687(7) 0.0327 Uiso
H2_2 H 0.338671 0.448371 0.92125 . .
C6_4 C 1.0000(20) 0.6386(5) 0.1313(7) 0.0327 Uiso
O4_2 O 0.8236(10) 0.6634(4) 0.1640(6) 0.0248 Uiso
C7_2 C 0.7987(19) 0.5293(8) 0.0419(10) 0.0327 Uiso
H3_2 H 0.661329 0.551629 0.07875 . .
O1_2 O 0.8331(9) 0.3301(4) 0.8499(7) 0.0248 Uiso
C2_2 C 0.9961(27) 0.4392(5) 0.9420(7) 0.0327 Uiso
C3_4 C 1.0000(20) 0.3614(5) 0.8687(7) 0.0327 Uiso
C4_2 C 0.8069(19) 0.4637(8) 0.9692(11) 0.0327 Uiso
O5_2 O 0.6669(9) 0.1699(4) 0.6501(7) 0.0248 Uiso
O7_2 O 0.6764(10) 0.3366(4) 0.6640(6) 0.0248 Uiso
H1_2 H 0.669734 0.435639 0.938138 . .
F2_2 F -0.000 0.750 0.3087(4) 0.0248 Uiso
F1_3 F 0.500 0.750 0.1913(4) 0.0248 Uiso
O1_3 O 0.6669(9) 0.6699(4) 0.3499(7) 0.0248 Uiso
O2_2 O 0.3236(10) 0.6634(4) 0.3360(6) 0.0248 Uiso
C1_3 C 0.2987(19) 0.5293(8) 0.4581(10) 0.0327 Uiso
C2_3 C 0.5039(27) 0.5608(5) 0.4420(7) 0.0327 Uiso
C3_5 C 0.5000(20) 0.6386(5) 0.3687(7) 0.0327 Uiso
C4_3 C 0.6931(19) 0.5363(8) 0.4692(11) 0.0327 Uiso
C5_3 C 0.4961(27) 0.4392(5) 0.5580(7) 0.0327 Uiso
C6_5 C 0.5000(20) 0.3614(5) 0.6313(7) 0.0327 Uiso
C7_3 C 0.7013(19) 0.4707(8) 0.5419(10) 0.0327 Uiso
C8_3 C 0.3069(19) 0.4637(8) 0.5308(11) 0.0327 Uiso
F2_3 F 1.000 0.750 0.3087(4) 0.0248 Uiso
O6_2 O 0.6764(10) 0.8366(4) 0.3360(6) 0.0248 Uiso
H1_3 H 0.830266 0.564361 0.438138 . .
H2_3 H 0.161329 0.551629 0.42125 . .
H3_3 H 0.838671 0.448371 0.57875 . .
H4_3 H 0.169734 0.435639 0.561862 . .
C5_4 C 0.5039(27) 0.0608(5) 0.5580(7) 0.0327 Uiso
C6_6 C 0.5000(20) 0.1386(5) 0.6313(7) 0.0327 Uiso
C7_4 C 0.2987(19) 0.0293(8) 0.5419(10) 0.0327 Uiso
C8_4 C 0.6931(19) 0.0363(8) 0.5308(11) 0.0327 Uiso
H3_4 H 0.161329 0.0516295 0.57875 . .
H4_4 H 0.830266 0.0643611 0.561862 . .
O1_4 O 0.3331(9) 0.8301(4) 0.3499(7) 0.0248 Uiso
C1_4 C 0.7013(19) 0.9707(8) 0.4581(10) 0.0327 Uiso
C2_4 C 0.4961(27) 0.9392(5) 0.4420(7) 0.0327 Uiso
C3_6 C 0.5000(20) 0.8614(5) 0.3687(7) 0.0327 Uiso
C4_4 C 0.3069(19) 0.9637(8) 0.4692(11) 0.0327 Uiso
H1_4 H 0.169734 0.935639 0.438138 . .
H2_4 H 0.838671 0.948371 0.42125 . .
loop_
_geom_bond_atom_site_label_1
_geom_bond_atom_site_label_2
_geom_bond_site_symmetry_1
_geom_bond_site_symmetry_2
Al1 F1 1_555 1_555
O1 Al1 1_555 1_555
C2 C3 1_555 1_555
C3 O1 1_555 1_555
C4 C2 1_555 1_555
F2 Al1 1_555 1_555
O5 Al1 1_555 1_555
O6 Al1 1_555 1_555
O7 Al1 1_555 1_555
C4 H1 1_555 1_555
C6 O4 1_555 1_555
O4 Al4 1_555 1_555
C7 H3 1_555 1_555
F1_2 Al2 1_555 1_555
O2 C3_2 1_555 1_555
Al2 O2 1_555 1_555
C1 H2 1_555 1_555
O3 C6_2 1_555 1_555
C5 C6_2 1_555 1_555
Al3 O3 1_555 1_555
C5 C8 1_555 1_555
C8 H4 1_555 1_555
O3_2 C6_3 1_555 1_555
C5_2 C6_3 1_555 1_555
Al4 O3_2 1_555 1_555
C5_2 C8_2 1_555 1_555
C8_2 H4_2 1_555 1_555
O6 C3_3 1_555 1_555
C1_2 H2_2 1_555 1_555
C6_4 O4_2 1_555 1_555
O4_2 Al3 1_555 1_555
C7_2 H3_2 1_555 1_555
O1_2 Al2 1_555 1_555
C2_2 C3_4 1_555 1_555
C3_4 O1_2 1_555 1_555
C4_2 C2_2 1_555 1_555
F2 Al2 1_555 1_555
O5_2 Al2 1_555 1_555
O7_2 Al2 1_555 1_555
C4_2 H1_2 1_555 1_555
Al3 F1_3 1_555 1_555
F1_3 Al4 1_555 1_555
O1_3 Al3 1_555 1_555
O2_2 C3_5 1_555 1_555
C1_3 C2_3 1_555 1_555
C2_3 C3_5 1_555 1_555
C3_5 O1_3 1_555 1_555
C4_3 C2_3 1_555 1_555
O5 C6_5 1_555 1_555
C5_3 C6_5 1_555 1_555
C6_5 O7_2 1_555 1_555
C7_3 C4_3 1_555 1_555
C8_3 C1_3 1_555 1_555
Al4 O2_2 1_555 1_555
F2_3 Al3 1_555 1_555
O6_2 Al3 1_555 1_555
C5_3 C7_3 1_555 1_555
C5_3 C8_3 1_555 1_555
C4_3 H1_3 1_555 1_555
C1_3 H2_3 1_555 1_555
C7_3 H3_3 1_555 1_555
C8_3 H4_3 1_555 1_555
O5_2 C6_6 1_555 1_555
C5_4 C6_6 1_555 1_555
C6_6 O7 1_555 1_555
C5_4 C7_4 1_555 1_555
C5_4 C8_4 1_555 1_555
C7_4 H3_4 1_555 1_555
C8_4 H4_4 1_555 1_555
O1_4 Al4 1_555 1_555
O6_2 C3_6 1_555 1_555
C1_4 C2_4 1_555 1_555
C2_4 C3_6 1_555 1_555
C3_6 O1_4 1_555 1_555
C4_4 C2_4 1_555 1_555
F2_2 Al4 1_555 1_555
C4_4 H1_4 1_555 1_555
C1_4 H2_4 1_555 1_555

#END
