
###############################################################################
#
# This file contains modified crystal structure data generated from the
# MOF subset of the Cambridge Structural Database (CSD) v543 
# hosted by the Cambridge Crystallographic Data Centre (CCDC).
#
# This work is licensed under the Creative Commons
# Attribution-NonCommercial-ShareAlike 4.0 International License.
# To view a copy of this license, visit
# http://creativecommons.org/licenses/by-nc-sa/4.0/
# or send a letter to
# Creative Commons, PO Box 1866, Mountain View, CA 94042, USA.
#
# CIF created using the CSD Python API on 29 September 2022
# The structure has been converted into the P1 space group
# The structure has a 3D framework
# The original CSD entry KUNWOI is in the monoclinic crystal system
# The framework has been calculated to contain at least 10.0% void space
# The void calculation uses a probe of radius 1.32A, grid spacing 0.4
#
###############################################################################

data_KUNWOI
_chemical_formula_moiety         '(C304 H192 N16 O56 Zn8)n'
_symmetry_cell_setting           triclinic
_symmetry_space_group_name_H-M   'P 1'
_symmetry_Int_Tables_number      1
_space_group_name_Hall           'P 1'
loop_
_symmetry_equiv_pos_site_id
_symmetry_equiv_pos_as_xyz
1 x,y,z
_cell_length_a                   20.151(2)
_cell_length_b                   25.776(2)
_cell_length_c                   15.8035(15)
_cell_angle_alpha                90
_cell_angle_beta                 118.258(3)
_cell_angle_gamma                90
_cell_volume                     7230.28
loop_
_atom_site_label
_atom_site_type_symbol
_atom_site_fract_x
_atom_site_fract_y
_atom_site_fract_z
H17 H 0.0201 0.1452 0.0251
Zn1 Zn 0.44380(2) 0.031658(15) 0.62713(3)
O1 O 0.39748(13) 0.07339(9) 0.68718(19)
N1 N 0.39086(14) 0.06199(11) 0.4938(2)
C1 C 0.1234(2) 0.43588(14) 0.8917(3)
O2 O 0.06123(13) 0.45765(9) 0.8765(2)
N2 N 0.19655(16) 0.09793(14) 0.3377(3)
H1 H 0.1777 0.0814 0.3686
C2 C 0.12331(19) 0.37846(13) 0.8937(3)
C3 C 0.0588(2) 0.35134(15) 0.8770(4)
H3 H 0.0162 0.3696 0.8682
C4 C 0.0565(2) 0.29838(14) 0.8731(4)
H4 H 0.0123 0.2815 0.8617
O5 O 0.17930(13) 0.46143(9) 0.9036(2)
C5 C 0.11841(19) 0.26907(14) 0.8857(3)
O6 O 0.45006(12) 0.04036(10) 0.8349(2)
C6 C 0.18367(19) 0.29688(14) 0.9049(3)
H5 H 0.2268 0.2787 0.9155
C7 C 0.18625(19) 0.34977(14) 0.9088(3)
H6 H 0.2307 0.3668 0.9217
O7 O 0.16846(17) 0.15462(16) 0.2158(3)
C8 C 0.33009(17) 0.07689(13) 0.7755(3)
C9 C 0.31850(19) 0.05435(14) 0.8469(3)
H7 H 0.3510 0.0285 0.8851
C10 C 0.21211(17) 0.10937(13) 0.8087(3)
C11 C 0.25918(19) 0.06974(14) 0.8622(3)
H8 H 0.2511 0.0532 0.9088
C12 C 0.22135(18) 0.13026(13) 0.7334(3)
H9 H 0.1883 0.1557 0.6944
C13 C 0.27916(18) 0.11350(14) 0.7161(3)
H10 H 0.2837 0.1269 0.6645
C14 C 0.15870(18) 0.13283(14) 0.8370(3)
C15 C 0.15804(19) 0.18618(14) 0.8428(3)
H11 H 0.1873 0.2055 0.8232
C16 C 0.11488(18) 0.21210(13) 0.8770(3)
C17 C 0.06926(19) 0.18214(14) 0.9026(3)
H12 H 0.0394 0.1987 0.9247
C18 C 0.06735(18) 0.12802(14) 0.8958(3)
C19 C 0.11394(17) 0.10412(13) 0.8648(3)
H13 H 0.1152 0.0681 0.8628
C20 C 0.01509(18) 0.09824(14) 0.9188(3)
C27 C 0.39709(19) 0.06211(13) 0.7645(3)
C28 C 0.4219(2) 0.06799(15) 0.4356(3)
H18 H 0.4731 0.0616 0.4595
C29 C 0.3804(2) 0.08318(18) 0.3425(3)
H19 H 0.4033 0.0865 0.3037
C30 C 0.3054(2) 0.09363(18) 0.3059(3)
H20 H 0.2768 0.1037 0.2421
C31 C 0.27273(19) 0.08895(16) 0.3651(3)
C32 C 0.31773(18) 0.07232(14) 0.4587(3)
H21 H 0.2960 0.0682 0.4987
C33 C 0.03658(19) 0.08797(18) 0.2550(3)
H22 H 0.0605 0.0566 0.2587
C34 C 0.0727(2) 0.13305(19) 0.2593(3)
C35 C 0.1501(2) 0.1303(2) 0.2672(4)
C36 C 0.0365(2) 0.1800(2) 0.2529(5)
C37 C 0.0725(4) 0.2272(3) 0.2539(7)
H23 H 0.1196 0.2272 0.2565
C38 C 0.0368(4) 0.2730(4) 0.2509(9)
H24 H 0.0593 0.3043 0.2501
Zn4 Zn 0.55620(2) 0.031658(15) 0.87287(3)
Zn6 Zn 0.05620(2) 0.531658(15) 0.87287(3)
O18 O 0.54994(12) 0.04036(10) 0.6651(2)
O16 O 0.43877(13) 0.95765(9) 0.6235(2)
O9 O 0.60252(13) 0.07339(9) 0.81282(19)
C50 C 0.8766(2) 0.43588(14) 0.6083(3)
O10 O 0.93877(13) 0.45765(9) 0.6235(2)
C51 C 0.87669(19) 0.37846(13) 0.6063(3)
C52 C 0.9412(2) 0.35134(15) 0.6230(4)
H34 H 0.9838 0.3696 0.6318
C53 C 0.9435(2) 0.29838(14) 0.6269(4)
H35 H 0.9877 0.2815 0.6383
O13 O 0.82070(13) 0.46143(9) 0.5964(2)
C54 C 0.88159(19) 0.26907(14) 0.6143(3)
C55 C 0.81633(19) 0.29688(14) 0.5951(3)
H36 H 0.7732 0.2787 0.5845
C56 C 0.81375(19) 0.34977(14) 0.5912(3)
H37 H 0.7693 0.3668 0.5783
C57 C 0.66991(17) 0.07689(13) 0.7245(3)
C58 C 0.68150(19) 0.05435(14) 0.6531(3)
H38 H 0.6490 0.0285 0.6149
C59 C 0.78789(17) 0.10937(13) 0.6913(3)
C60 C 0.74082(19) 0.06974(14) 0.6378(3)
H39 H 0.7489 0.0532 0.5912
C61 C 0.77865(18) 0.13026(13) 0.7666(3)
H40 H 0.8117 0.1557 0.8056
C62 C 0.72084(18) 0.11350(14) 0.7839(3)
H41 H 0.7163 0.1269 0.8355
C63 C 0.84130(18) 0.13283(14) 0.6630(3)
C64 C 0.84196(19) 0.18618(14) 0.6572(3)
H42 H 0.8127 0.2055 0.6768
C65 C 0.88512(18) 0.21210(13) 0.6230(3)
C66 C 0.93074(19) 0.18214(14) 0.5974(3)
H43 H 0.9606 0.1987 0.5753
C67 C 0.93265(18) 0.12802(14) 0.6042(3)
C68 C 0.88606(17) 0.10412(13) 0.6352(3)
H44 H 0.8848 0.0681 0.6372
C69 C 0.98491(18) 0.09824(14) 0.5812(3)
H48 H 0.9799 0.1452 0.4749
C76 C 0.60291(19) 0.06211(13) 0.7355(3)
Zn5 Zn 0.94380(2) 0.531658(15) 0.62713(3)
O15 O 0.56123(13) 0.95765(9) 0.8765(2)
O18_2 O 0.04994(12) 0.54036(10) 0.6651(2)
O1_2 O 0.89748(13) 0.57339(9) 0.68718(19)
N1_2 N 0.89086(14) 0.56199(11) 0.4938(2)
C1_2 C 0.6234(2) 0.93588(14) 0.8917(3)
N2_2 N 0.69655(16) 0.59793(14) 0.3377(3)
H1_2 H 0.6777 0.5814 0.3686
C2_2 C 0.62331(19) 0.87846(13) 0.8937(3)
O3 O 0.30936(14) 0.48474(10) 0.9062(2)
H2 H 0.2703 0.4705 0.9137
C3_2 C 0.5588(2) 0.85134(15) 0.8770(4)
H3_2 H 0.5162 0.8696 0.8682
C4_2 C 0.5565(2) 0.79838(14) 0.8731(4)
H4_2 H 0.5123 0.7815 0.8617
O5_2 O 0.67930(13) 0.96143(9) 0.9036(2)
C5_2 C 0.61841(19) 0.76907(14) 0.8857(3)
O6_2 O 0.95006(12) 0.54036(10) 0.8349(2)
C6_2 C 0.68367(19) 0.79688(14) 0.9049(3)
H5_2 H 0.7268 0.7787 0.9155
C7_2 C 0.68625(19) 0.84977(14) 0.9088(3)
H6_2 H 0.7307 0.8668 0.9217
O7_2 O 0.66846(17) 0.65462(16) 0.2158(3)
C8_2 C 0.83009(17) 0.57689(13) 0.7755(3)
C9_2 C 0.81850(19) 0.55435(14) 0.8469(3)
H7_2 H 0.8510 0.5285 0.8851
C10_2 C 0.71211(17) 0.60937(13) 0.8087(3)
C11_2 C 0.75918(19) 0.56974(14) 0.8622(3)
H8_2 H 0.7511 0.5532 0.9088
C12_2 C 0.72135(18) 0.63026(13) 0.7334(3)
H9_2 H 0.6883 0.6557 0.6944
C13_2 C 0.77916(18) 0.61350(14) 0.7161(3)
H10_2 H 0.7837 0.6269 0.6645
C14_2 C 0.65870(18) 0.63283(14) 0.8370(3)
C15_2 C 0.65804(19) 0.68618(14) 0.8428(3)
H11_2 H 0.6873 0.7055 0.8232
C16_2 C 0.61488(18) 0.71210(13) 0.8770(3)
C17_2 C 0.56926(19) 0.68214(14) 0.9026(3)
H12_2 H 0.5394 0.6987 0.9247
C18_2 C 0.56735(18) 0.62802(14) 0.8958(3)
C19_2 C 0.61394(17) 0.60412(13) 0.8648(3)
H13_2 H 0.6152 0.5681 0.8628
C20_2 C 0.51509(18) 0.59824(14) 0.9188(3)
C21 C 0.4805(2) 0.55354(15) 0.8697(3)
H14 H 0.4931 0.5406 0.8242
C22 C 0.42723(19) 0.52713(14) 0.8859(3)
H15 H 0.4059 0.4965 0.8530
C24 C 0.40634(18) 0.54670(14) 0.9509(3)
C25 C 0.4962(2) 0.61609(15) 0.9886(3)
C26 C 0.3460(2) 0.52204(15) 0.9672(3)
C27_2 C 0.89709(19) 0.56211(13) 0.7645(3)
C28_2 C 0.9219(2) 0.56799(15) 0.4356(3)
H18_2 H 0.9731 0.5616 0.4595
C29_2 C 0.8804(2) 0.58318(18) 0.3425(3)
H19_2 H 0.9033 0.5865 0.3037
C30_2 C 0.8054(2) 0.59363(18) 0.3059(3)
H20_2 H 0.7768 0.6037 0.2421
C31_2 C 0.77273(19) 0.58895(16) 0.3651(3)
C32_2 C 0.81773(18) 0.57232(14) 0.4587(3)
H21_2 H 0.7960 0.5682 0.4987
C33_2 C 0.53658(19) 0.58797(18) 0.2550(3)
H22_2 H 0.5605 0.5566 0.2587
C34_2 C 0.5727(2) 0.63305(19) 0.2593(3)
C35_2 C 0.6501(2) 0.6303(2) 0.2672(4)
C36_2 C 0.5365(2) 0.6800(2) 0.2529(5)
C37_2 C 0.5725(4) 0.7272(3) 0.2539(7)
H23_2 H 0.6196 0.7272 0.2565
C38_2 C 0.5368(4) 0.7730(4) 0.2509(9)
H24_2 H 0.5593 0.8043 0.2501
N3 N 0.10914(14) 0.56199(11) 0.0062(2)
N4 N 0.30345(16) 0.59793(14) 0.1623(3)
H25 H 0.3223 0.5814 0.1314
O8 O 0.33154(17) 0.65462(16) 0.2842(3)
C39 C 0.0781(2) 0.56799(15) 0.0644(3)
H26 H 0.0269 0.5616 0.0405
C40 C 0.1196(2) 0.58318(18) 0.1575(3)
H27 H 0.0967 0.5865 0.1963
C41 C 0.1946(2) 0.59363(18) 0.1941(3)
H28 H 0.2232 0.6037 0.2579
C42 C 0.22727(19) 0.58895(16) 0.1349(3)
C43 C 0.18227(18) 0.57232(14) 0.0413(3)
H29 H 0.2040 0.5682 0.0013
C44 C 0.46342(19) 0.58797(18) 0.2450(3)
H30 H 0.4395 0.5566 0.2413
C45 C 0.4273(2) 0.63305(19) 0.2407(3)
C46 C 0.3499(2) 0.6303(2) 0.2328(4)
C47 C 0.4635(2) 0.6800(2) 0.2471(5)
C48 C 0.4275(4) 0.7272(3) 0.2461(7)
H31 H 0.3804 0.7272 0.2435
C49 C 0.4632(4) 0.7730(4) 0.2491(9)
H32 H 0.4407 0.8043 0.2499
O9_2 O 0.10252(13) 0.57339(9) 0.81282(19)
C50_2 C 0.3766(2) 0.93588(14) 0.6083(3)
C51_2 C 0.37669(19) 0.87846(13) 0.6063(3)
O11 O 0.69064(14) 0.48474(10) 0.5938(2)
H33 H 0.7297 0.4705 0.5863
C52_2 C 0.4412(2) 0.85134(15) 0.6230(4)
H34_2 H 0.4838 0.8696 0.6318
O12 O 0.66890(14) 0.53591(11) 0.4705(2)
C53_2 C 0.4435(2) 0.79838(14) 0.6269(4)
H35_2 H 0.4877 0.7815 0.6383
O13_2 O 0.32070(13) 0.96143(9) 0.5964(2)
C54_2 C 0.38159(19) 0.76907(14) 0.6143(3)
C55_2 C 0.31633(19) 0.79688(14) 0.5951(3)
H36_2 H 0.2732 0.7787 0.5845
C56_2 C 0.31375(19) 0.84977(14) 0.5912(3)
H37_2 H 0.2693 0.8668 0.5783
C57_2 C 0.16991(17) 0.57689(13) 0.7245(3)
C58_2 C 0.18150(19) 0.55435(14) 0.6531(3)
H38_2 H 0.1490 0.5285 0.6149
C59_2 C 0.28789(17) 0.60937(13) 0.6913(3)
C60_2 C 0.24082(19) 0.56974(14) 0.6378(3)
H39_2 H 0.2489 0.5532 0.5912
C61_2 C 0.27865(18) 0.63026(13) 0.7666(3)
H40_2 H 0.3117 0.6557 0.8056
C62_2 C 0.22084(18) 0.61350(14) 0.7839(3)
H41_2 H 0.2163 0.6269 0.8355
C63_2 C 0.34130(18) 0.63283(14) 0.6630(3)
C64_2 C 0.34196(19) 0.68618(14) 0.6572(3)
H42_2 H 0.3127 0.7055 0.6768
C65_2 C 0.38512(18) 0.71210(13) 0.6230(3)
C66_2 C 0.43074(19) 0.68214(14) 0.5974(3)
H43_2 H 0.4606 0.6987 0.5753
C67_2 C 0.43265(18) 0.62802(14) 0.6042(3)
C68_2 C 0.38606(17) 0.60412(13) 0.6352(3)
H44_2 H 0.3848 0.5681 0.6372
C69_2 C 0.48491(18) 0.59824(14) 0.5812(3)
C70 C 0.5195(2) 0.55354(15) 0.6303(3)
H45 H 0.5069 0.5406 0.6758
C71 C 0.57277(19) 0.52713(14) 0.6141(3)
H46 H 0.5941 0.4965 0.6470
C72 C 0.55787(19) 0.59048(15) 0.4968(3)
H47 H 0.5704 0.6030 0.4510
C73 C 0.59366(18) 0.54670(14) 0.5491(3)
C74 C 0.5038(2) 0.61609(15) 0.5114(3)
H48_2 H 0.4799 0.6452 0.4749
C75 C 0.6540(2) 0.52204(15) 0.5328(3)
C76_2 C 0.10291(19) 0.56211(13) 0.7355(3)
O12_2 O 0.16890(14) 0.03591(11) 0.4705(2)
C70_2 C 0.0195(2) 0.05354(15) 0.6303(3)
H45_2 H 0.0069 0.0406 0.6758
C71_2 C 0.07277(19) 0.02713(14) 0.6141(3)
C72_2 C 0.05787(19) 0.09048(15) 0.4968(3)
H47_2 H 0.0704 0.1030 0.4510
C73_2 C 0.09366(18) 0.04670(14) 0.5491(3)
C74_2 C 0.0038(2) 0.11609(15) 0.5114(3)
C75_2 C 0.1540(2) 0.02204(15) 0.5328(3)
O11_2 O 0.19064(14) 0.98474(10) 0.5938(2)
H33_2 H 0.2297 0.9705 0.5863
H46_2 H 0.0941 0.9965 0.6470
O4 O 0.83110(14) 0.03591(11) 0.0295(2)
C23 C 0.94213(19) 0.09048(15) 0.0032(3)
H16 H 0.9296 0.1030 0.0490
C21_2 C 0.9805(2) 0.05354(15) 0.8697(3)
H14_2 H 0.9931 0.0406 0.8242
C22_2 C 0.92723(19) 0.02713(14) 0.8859(3)
C24_2 C 0.90634(18) 0.04670(14) 0.9509(3)
C25_2 C 0.9962(2) 0.11609(15) 0.9886(3)
C26_2 C 0.8460(2) 0.02204(15) 0.9672(3)
N3_2 N 0.60914(14) 0.06199(11) 0.0062(2)
N4_2 N 0.80345(16) 0.09793(14) 0.1623(3)
H25_2 H 0.8223 0.0814 0.1314
O8_2 O 0.83154(17) 0.15462(16) 0.2842(3)
C39_2 C 0.5781(2) 0.06799(15) 0.0644(3)
H26_2 H 0.5269 0.0616 0.0405
C40_2 C 0.6196(2) 0.08318(18) 0.1575(3)
H27_2 H 0.5967 0.0865 0.1963
C41_2 C 0.6946(2) 0.09363(18) 0.1941(3)
H28_2 H 0.7232 0.1037 0.2579
C42_2 C 0.72727(19) 0.08895(16) 0.1349(3)
C43_2 C 0.68227(18) 0.07232(14) 0.0413(3)
H29_2 H 0.7040 0.0682 0.0013
C44_2 C 0.96342(19) 0.08797(18) 0.2450(3)
H30_2 H 0.9395 0.0566 0.2413
C45_2 C 0.9273(2) 0.13305(19) 0.2407(3)
C46_2 C 0.8499(2) 0.1303(2) 0.2328(4)
C47_2 C 0.9635(2) 0.1800(2) 0.2471(5)
C48_2 C 0.9275(4) 0.2272(3) 0.2461(7)
H31_2 H 0.8804 0.2272 0.2435
C49_2 C 0.9632(4) 0.2730(4) 0.2491(9)
H32_2 H 0.9407 0.3043 0.2499
O3_2 O 0.80936(14) 0.98474(10) 0.9062(2)
H2_2 H 0.7703 0.9705 0.9137
H15_2 H 0.9059 0.9965 0.8530
O4_2 O 0.33110(14) 0.53591(11) 0.0295(2)
C23_2 C 0.44213(19) 0.59048(15) 0.0032(3)
H16_2 H 0.4296 0.6030 0.0490
H17_2 H 0.5201 0.6452 0.0251
O15_2 O 0.43877(13) 0.04235(9) 0.1235(2)
Zn2 Zn 0.44380(2) 0.968342(15) 0.12713(3)
O9_3 O 0.39748(13) 0.92661(9) 0.18718(19)
C50_3 C 0.1234(2) 0.56412(14) 0.3917(3)
O10_2 O 0.06123(13) 0.54235(9) 0.3765(2)
C51_3 C 0.12331(19) 0.62154(13) 0.3937(3)
C52_3 C 0.0588(2) 0.64866(15) 0.3770(4)
H34_3 H 0.0162 0.6304 0.3682
C53_3 C 0.0565(2) 0.70162(14) 0.3731(4)
H35_3 H 0.0123 0.7185 0.3617
O13_3 O 0.17930(13) 0.53857(9) 0.4036(2)
C54_3 C 0.11841(19) 0.73093(14) 0.3857(3)
O14 O 0.45006(12) 0.95964(10) 0.3349(2)
C55_3 C 0.18367(19) 0.70312(14) 0.4049(3)
H36_3 H 0.2268 0.7213 0.4155
C56_3 C 0.18625(19) 0.65023(14) 0.4088(3)
H37_3 H 0.2307 0.6332 0.4217
C57_3 C 0.33009(17) 0.92311(13) 0.2755(3)
C58_3 C 0.31850(19) 0.94565(14) 0.3469(3)
H38_3 H 0.3510 0.9715 0.3851
C59_3 C 0.21211(17) 0.89063(13) 0.3087(3)
C60_3 C 0.25918(19) 0.93026(14) 0.3622(3)
H39_3 H 0.2511 0.9468 0.4088
C61_3 C 0.22135(18) 0.86974(13) 0.2334(3)
H40_3 H 0.1883 0.8443 0.1944
C62_3 C 0.27916(18) 0.88650(14) 0.2161(3)
H41_3 H 0.2837 0.8731 0.1645
C63_3 C 0.15870(18) 0.86717(14) 0.3370(3)
C64_3 C 0.15804(19) 0.81382(14) 0.3428(3)
H42_3 H 0.1873 0.7945 0.3232
C65_3 C 0.11488(18) 0.78790(13) 0.3770(3)
C66_3 C 0.06926(19) 0.81786(14) 0.4026(3)
H43_3 H 0.0394 0.8013 0.4247
C67_3 C 0.06735(18) 0.87198(14) 0.3958(3)
C68_3 C 0.11394(17) 0.89588(13) 0.3648(3)
H44_3 H 0.1152 0.9319 0.3628
C69_3 C 0.01509(18) 0.90176(14) 0.4188(3)
H48_3 H 0.0201 0.8548 0.5251
C76_3 C 0.39709(19) 0.93789(13) 0.2645(3)
Zn3 Zn 0.55620(2) 0.968342(15) 0.37287(3)
Zn5_2 Zn 0.05620(2) 0.468342(15) 0.37287(3)
O17 O 0.54994(12) 0.95964(10) 0.1651(2)
O16_2 O 0.56123(13) 0.04235(9) 0.3765(2)
O1_3 O 0.60252(13) 0.92661(9) 0.31282(19)
N1_3 N 0.60914(14) 0.93801(11) 0.5062(2)
C1_3 C 0.8766(2) 0.56412(14) 0.1083(3)
O2_2 O 0.93877(13) 0.54235(9) 0.1235(2)
N2_3 N 0.80345(16) 0.90207(14) 0.6623(3)
H1_3 H 0.8223 0.9186 0.6314
C2_3 C 0.87669(19) 0.62154(13) 0.1063(3)
C3_3 C 0.9412(2) 0.64866(15) 0.1230(4)
H3_3 H 0.9838 0.6304 0.1318
C4_3 C 0.9435(2) 0.70162(14) 0.1269(4)
H4_3 H 0.9877 0.7185 0.1383
O5_3 O 0.82070(13) 0.53857(9) 0.0964(2)
C5_3 C 0.88159(19) 0.73093(14) 0.1143(3)
C6_3 C 0.81633(19) 0.70312(14) 0.0951(3)
H5_3 H 0.7732 0.7213 0.0845
C7_3 C 0.81375(19) 0.65023(14) 0.0912(3)
H6_3 H 0.7693 0.6332 0.0783
O7_3 O 0.83154(17) 0.84538(16) 0.7842(3)
C8_3 C 0.66991(17) 0.92311(13) 0.2245(3)
C9_3 C 0.68150(19) 0.94565(14) 0.1531(3)
H7_3 H 0.6490 0.9715 0.1149
C10_3 C 0.78789(17) 0.89063(13) 0.1913(3)
C11_3 C 0.74082(19) 0.93026(14) 0.1378(3)
H8_3 H 0.7489 0.9468 0.0912
C12_3 C 0.77865(18) 0.86974(13) 0.2666(3)
H9_3 H 0.8117 0.8443 0.3056
C13_3 C 0.72084(18) 0.88650(14) 0.2839(3)
H10_3 H 0.7163 0.8731 0.3355
C14_3 C 0.84130(18) 0.86717(14) 0.1630(3)
C15_3 C 0.84196(19) 0.81382(14) 0.1572(3)
H11_3 H 0.8127 0.7945 0.1768
C16_3 C 0.88512(18) 0.78790(13) 0.1230(3)
C17_3 C 0.93074(19) 0.81786(14) 0.0974(3)
H12_3 H 0.9606 0.8013 0.0753
C18_3 C 0.93265(18) 0.87198(14) 0.1042(3)
C19_3 C 0.88606(17) 0.89588(13) 0.1352(3)
H13_3 H 0.8848 0.9319 0.1372
C20_3 C 0.98491(18) 0.90176(14) 0.0812(3)
C27_3 C 0.60291(19) 0.93789(13) 0.2355(3)
C28_3 C 0.5781(2) 0.93201(15) 0.5644(3)
H18_3 H 0.5269 0.9384 0.5405
C29_3 C 0.6196(2) 0.91682(18) 0.6575(3)
H19_3 H 0.5967 0.9135 0.6963
C30_3 C 0.6946(2) 0.90637(18) 0.6941(3)
H20_3 H 0.7232 0.8963 0.7579
C31_3 C 0.72727(19) 0.91105(16) 0.6349(3)
C32_3 C 0.68227(18) 0.92768(14) 0.5413(3)
H21_3 H 0.7040 0.9318 0.5013
C33_3 C 0.96342(19) 0.91203(18) 0.7450(3)
H22_3 H 0.9395 0.9434 0.7413
C34_3 C 0.9273(2) 0.86695(19) 0.7407(3)
C35_3 C 0.8499(2) 0.8697(2) 0.7328(4)
C36_3 C 0.9635(2) 0.8200(2) 0.7471(5)
C37_3 C 0.9275(4) 0.7728(3) 0.7461(7)
H23_3 H 0.8804 0.7728 0.7435
C38_3 C 0.9632(4) 0.7270(4) 0.7491(9)
H24_3 H 0.9407 0.6957 0.7499
Zn6_2 Zn 0.94380(2) 0.468342(15) 0.12713(3)
O17_2 O 0.04994(12) 0.45964(10) 0.1651(2)
O9_4 O 0.89748(13) 0.42661(9) 0.18718(19)
C50_4 C 0.6234(2) 0.06412(14) 0.3917(3)
C51_4 C 0.62331(19) 0.12154(13) 0.3937(3)
O11_3 O 0.30936(14) 0.51526(10) 0.4062(2)
H33_3 H 0.2703 0.5295 0.4137
C52_4 C 0.5588(2) 0.14866(15) 0.3770(4)
H34_4 H 0.5162 0.1304 0.3682
O12_3 O 0.33110(14) 0.46409(11) 0.5295(2)
C53_4 C 0.5565(2) 0.20162(14) 0.3731(4)
H35_4 H 0.5123 0.2185 0.3617
O13_4 O 0.67930(13) 0.03857(9) 0.4036(2)
C54_4 C 0.61841(19) 0.23093(14) 0.3857(3)
O14_2 O 0.95006(12) 0.45964(10) 0.3349(2)
C55_4 C 0.68367(19) 0.20312(14) 0.4049(3)
H36_4 H 0.7268 0.2213 0.4155
C56_4 C 0.68625(19) 0.15023(14) 0.4088(3)
H37_4 H 0.7307 0.1332 0.4217
C57_4 C 0.83009(17) 0.42311(13) 0.2755(3)
C58_4 C 0.81850(19) 0.44565(14) 0.3469(3)
H38_4 H 0.8510 0.4715 0.3851
C59_4 C 0.71211(17) 0.39063(13) 0.3087(3)
C60_4 C 0.75918(19) 0.43026(14) 0.3622(3)
H39_4 H 0.7511 0.4468 0.4088
C61_4 C 0.72135(18) 0.36974(13) 0.2334(3)
H40_4 H 0.6883 0.3443 0.1944
C62_4 C 0.77916(18) 0.38650(14) 0.2161(3)
H41_4 H 0.7837 0.3731 0.1645
C63_4 C 0.65870(18) 0.36717(14) 0.3370(3)
C64_4 C 0.65804(19) 0.31382(14) 0.3428(3)
H42_4 H 0.6873 0.2945 0.3232
C65_4 C 0.61488(18) 0.28790(13) 0.3770(3)
C66_4 C 0.56926(19) 0.31786(14) 0.4026(3)
H43_4 H 0.5394 0.3013 0.4247
C67_4 C 0.56735(18) 0.37198(14) 0.3958(3)
C68_4 C 0.61394(17) 0.39588(13) 0.3648(3)
H44_4 H 0.6152 0.4319 0.3628
C69_4 C 0.51509(18) 0.40176(14) 0.4188(3)
C70_3 C 0.4805(2) 0.44646(15) 0.3697(3)
H45_3 H 0.4931 0.4594 0.3242
C71_3 C 0.42723(19) 0.47287(14) 0.3859(3)
H46_3 H 0.4059 0.5035 0.3530
C72_3 C 0.44213(19) 0.40952(15) 0.5032(3)
H47_3 H 0.4296 0.3970 0.5490
C73_3 C 0.40634(18) 0.45330(14) 0.4509(3)
C74_3 C 0.4962(2) 0.38391(15) 0.4886(3)
H48_4 H 0.5201 0.3548 0.5251
C75_3 C 0.3460(2) 0.47796(15) 0.4672(3)
C76_4 C 0.89709(19) 0.43789(13) 0.2645(3)
O1_4 O 0.10252(13) 0.42661(9) 0.31282(19)
N1_4 N 0.10914(14) 0.43801(11) 0.5062(2)
C1_4 C 0.3766(2) 0.06412(14) 0.1083(3)
N2_4 N 0.30345(16) 0.40207(14) 0.6623(3)
H1_4 H 0.3223 0.4186 0.6314
C2_4 C 0.37669(19) 0.12154(13) 0.1063(3)
O3_3 O 0.69064(14) 0.51526(10) 0.0938(2)
H2_3 H 0.7297 0.5295 0.0863
C3_4 C 0.4412(2) 0.14866(15) 0.1230(4)
H3_4 H 0.4838 0.1304 0.1318
C4_4 C 0.4435(2) 0.20162(14) 0.1269(4)
H4_4 H 0.4877 0.2185 0.1383
O5_4 O 0.32070(13) 0.03857(9) 0.0964(2)
C5_4 C 0.38159(19) 0.23093(14) 0.1143(3)
C6_4 C 0.31633(19) 0.20312(14) 0.0951(3)
H5_4 H 0.2732 0.2213 0.0845
C7_4 C 0.31375(19) 0.15023(14) 0.0912(3)
H6_4 H 0.2693 0.1332 0.0783
O7_4 O 0.33154(17) 0.34538(16) 0.7842(3)
C8_4 C 0.16991(17) 0.42311(13) 0.2245(3)
C9_4 C 0.18150(19) 0.44565(14) 0.1531(3)
H7_4 H 0.1490 0.4715 0.1149
C10_4 C 0.28789(17) 0.39063(13) 0.1913(3)
C11_4 C 0.24082(19) 0.43026(14) 0.1378(3)
H8_4 H 0.2489 0.4468 0.0912
C12_4 C 0.27865(18) 0.36974(13) 0.2666(3)
H9_4 H 0.3117 0.3443 0.3056
C13_4 C 0.22084(18) 0.38650(14) 0.2839(3)
H10_4 H 0.2163 0.3731 0.3355
C14_4 C 0.34130(18) 0.36717(14) 0.1630(3)
C15_4 C 0.34196(19) 0.31382(14) 0.1572(3)
H11_4 H 0.3127 0.2945 0.1768
C16_4 C 0.38512(18) 0.28790(13) 0.1230(3)
C17_4 C 0.43074(19) 0.31786(14) 0.0974(3)
H12_4 H 0.4606 0.3013 0.0753
C18_4 C 0.43265(18) 0.37198(14) 0.1042(3)
C19_4 C 0.38606(17) 0.39588(13) 0.1352(3)
H13_4 H 0.3848 0.4319 0.1372
C20_4 C 0.48491(18) 0.40176(14) 0.0812(3)
C21_3 C 0.5195(2) 0.44646(15) 0.1303(3)
H14_3 H 0.5069 0.4594 0.1758
C22_3 C 0.57277(19) 0.47287(14) 0.1141(3)
H15_3 H 0.5941 0.5035 0.1470
C24_3 C 0.59366(18) 0.45330(14) 0.0491(3)
C25_3 C 0.5038(2) 0.38391(15) 0.0114(3)
C26_3 C 0.6540(2) 0.47796(15) 0.0328(3)
C27_4 C 0.10291(19) 0.43789(13) 0.2355(3)
C28_4 C 0.0781(2) 0.43201(15) 0.5644(3)
H18_4 H 0.0269 0.4384 0.5405
C29_4 C 0.1196(2) 0.41682(18) 0.6575(3)
H19_4 H 0.0967 0.4135 0.6963
C30_4 C 0.1946(2) 0.40637(18) 0.6941(3)
H20_4 H 0.2232 0.3963 0.7579
C31_4 C 0.22727(19) 0.41105(16) 0.6349(3)
C32_4 C 0.18227(18) 0.42768(14) 0.5413(3)
H21_4 H 0.2040 0.4318 0.5013
C33_4 C 0.46342(19) 0.41203(18) 0.7450(3)
H22_4 H 0.4395 0.4434 0.7413
C34_4 C 0.4273(2) 0.36695(19) 0.7407(3)
C35_4 C 0.3499(2) 0.3697(2) 0.7328(4)
C36_4 C 0.4635(2) 0.3200(2) 0.7471(5)
C37_4 C 0.4275(4) 0.2728(3) 0.7461(7)
H23_4 H 0.3804 0.2728 0.7435
C38_4 C 0.4632(4) 0.2270(4) 0.7491(9)
H24_4 H 0.4407 0.1957 0.7499
N3_3 N 0.89086(14) 0.43801(11) 0.9938(2)
N4_3 N 0.69655(16) 0.40207(14) 0.8377(3)
H25_3 H 0.6777 0.4186 0.8686
O8_3 O 0.66846(17) 0.34538(16) 0.7158(3)
C39_3 C 0.9219(2) 0.43201(15) 0.9356(3)
H26_3 H 0.9731 0.4384 0.9595
C40_3 C 0.8804(2) 0.41682(18) 0.8425(3)
H27_3 H 0.9033 0.4135 0.8037
C41_3 C 0.8054(2) 0.40637(18) 0.8059(3)
H28_3 H 0.7768 0.3963 0.7421
C42_3 C 0.77273(19) 0.41105(16) 0.8651(3)
C43_3 C 0.81773(18) 0.42768(14) 0.9587(3)
H29_3 H 0.7960 0.4318 0.9987
C44_3 C 0.53658(19) 0.41203(18) 0.7550(3)
H30_3 H 0.5605 0.4434 0.7587
C45_3 C 0.5727(2) 0.36695(19) 0.7593(3)
C46_3 C 0.6501(2) 0.3697(2) 0.7672(4)
C47_3 C 0.5365(2) 0.3200(2) 0.7529(5)
C48_3 C 0.5725(4) 0.2728(3) 0.7539(7)
H31_3 H 0.6196 0.2728 0.7565
C49_3 C 0.5368(4) 0.2270(4) 0.7509(9)
H32_3 H 0.5593 0.1957 0.7501
O3_4 O 0.19064(14) 0.01526(10) 0.0938(2)
H2_4 H 0.2297 0.0295 0.0863
H15_4 H 0.0941 0.0035 0.1470
C21_4 C 0.0195(2) 0.94646(15) 0.1303(3)
H14_4 H 0.0069 0.9594 0.1758
C22_4 C 0.07277(19) 0.97287(14) 0.1141(3)
C24_4 C 0.09366(18) 0.95330(14) 0.0491(3)
C25_4 C 0.0038(2) 0.88391(15) 0.0114(3)
C26_4 C 0.1540(2) 0.97796(15) 0.0328(3)
N3_4 N 0.39086(14) 0.93801(11) 0.9938(2)
N4_4 N 0.19655(16) 0.90207(14) 0.8377(3)
H25_4 H 0.1777 0.9186 0.8686
O8_4 O 0.16846(17) 0.84538(16) 0.7158(3)
C39_4 C 0.4219(2) 0.93201(15) 0.9356(3)
H26_4 H 0.4731 0.9384 0.9595
C40_4 C 0.3804(2) 0.91682(18) 0.8425(3)
H27_4 H 0.4033 0.9135 0.8037
C41_4 C 0.3054(2) 0.90637(18) 0.8059(3)
H28_4 H 0.2768 0.8963 0.7421
C42_4 C 0.27273(19) 0.91105(16) 0.8651(3)
C43_4 C 0.31773(18) 0.92768(14) 0.9587(3)
H29_4 H 0.2960 0.9318 0.9987
C44_4 C 0.03658(19) 0.91203(18) 0.7550(3)
H30_4 H 0.0605 0.9434 0.7587
C45_4 C 0.0727(2) 0.86695(19) 0.7593(3)
C46_4 C 0.1501(2) 0.8697(2) 0.7672(4)
C47_4 C 0.0365(2) 0.8200(2) 0.7529(5)
C48_4 C 0.0725(4) 0.7728(3) 0.7539(7)
H31_4 H 0.1196 0.7728 0.7565
C49_4 C 0.0368(4) 0.7270(4) 0.7509(9)
H32_4 H 0.0593 0.6957 0.7501
O4_3 O 0.16890(14) 0.96409(11) 0.9705(2)
C23_3 C 0.05787(19) 0.90952(15) 0.9968(3)
H16_3 H 0.0704 0.8970 0.9510
O11_4 O 0.80936(14) 0.01526(10) 0.4062(2)
H33_4 H 0.7703 0.0295 0.4137
H46_4 H 0.9059 0.0035 0.3530
O12_4 O 0.83110(14) 0.96409(11) 0.5295(2)
C70_4 C 0.9805(2) 0.94646(15) 0.3697(3)
H45_4 H 0.9931 0.9594 0.3242
C71_4 C 0.92723(19) 0.97287(14) 0.3859(3)
C72_4 C 0.94213(19) 0.90952(15) 0.5032(3)
H47_4 H 0.9296 0.8970 0.5490
C73_4 C 0.90634(18) 0.95330(14) 0.4509(3)
C74_4 C 0.9962(2) 0.88391(15) 0.4886(3)
C75_4 C 0.8460(2) 0.97796(15) 0.4672(3)
H17_3 H 0.9799 0.8548 0.9749
O4_4 O 0.66890(14) 0.46409(11) 0.9705(2)
C23_4 C 0.55787(19) 0.40952(15) 0.9968(3)
H16_4 H 0.5704 0.3970 0.9510
H17_4 H 0.4799 0.3548 0.9749
loop_
_geom_bond_atom_site_label_1
_geom_bond_atom_site_label_2
_geom_bond_site_symmetry_1
_geom_bond_site_symmetry_2
Zn1 O1 1_555 1_555
O1 C27 1_555 1_555
N1 Zn1 1_555 1_555
C1 O2 1_555 1_555
O2 Zn6 1_555 1_555
N2 H1 1_555 1_555
C2 C1 1_555 1_555
C3 C2 1_555 1_555
H3 C3 1_555 1_555
C4 C3 1_555 1_555
H4 C4 1_555 1_555
O5 C1 1_555 1_555
C5 C4 1_555 1_555
O6 C27 1_555 1_555
C6 C5 1_555 1_555
H5 C6 1_555 1_555
C7 C2 1_555 1_555
H6 C7 1_555 1_555
O7 C35 1_555 1_555
C8 C9 1_555 1_555
C9 H7 1_555 1_555
C10 C11 1_555 1_555
C11 C9 1_555 1_555
H8 C11 1_555 1_555
C12 C10 1_555 1_555
H9 C12 1_555 1_555
C13 C8 1_555 1_555
H10 C13 1_555 1_555
C14 C10 1_555 1_555
C15 C14 1_555 1_555
H11 C15 1_555 1_555
C16 C5 1_555 1_555
C17 C16 1_555 1_555
H12 C17 1_555 1_555
C18 C17 1_555 1_555
C19 C14 1_555 1_555
H13 C19 1_555 1_555
C20 C18 1_555 1_555
C27 C8 1_555 1_555
C28 N1 1_555 1_555
H18 C28 1_555 1_555
C29 C28 1_555 1_555
H19 C29 1_555 1_555
C30 C29 1_555 1_555
H20 C30 1_555 1_555
C31 N2 1_555 1_555
C32 N1 1_555 1_555
H21 C32 1_555 1_555
C33 H22 1_555 1_555
C34 C33 1_555 1_555
C35 N2 1_555 1_555
C36 C34 1_555 1_555
C37 C36 1_555 1_555
H23 C37 1_555 1_555
C38 C37 1_555 1_555
H24 C38 1_555 1_555
Zn4 O6 1_555 1_555
O18 Zn1 1_555 1_555
C6 C7 1_555 1_555
C12 C13 1_555 1_555
C15 C16 1_555 1_555
C18 C19 1_555 1_555
C30 C31 1_555 1_555
C31 C32 1_555 1_555
C34 C35 1_555 1_555
O9 Zn4 1_555 1_555
C50 O10 1_555 1_555
O10 Zn5 1_555 1_555
C51 C50 1_555 1_555
C52 C51 1_555 1_555
H34 C52 1_555 1_555
C53 C52 1_555 1_555
H35 C53 1_555 1_555
O13 C50 1_555 1_555
C54 C53 1_555 1_555
O18 C76 1_555 1_555
C55 C54 1_555 1_555
H36 C55 1_555 1_555
C56 C51 1_555 1_555
H37 C56 1_555 1_555
C57 C58 1_555 1_555
C58 H38 1_555 1_555
C59 C60 1_555 1_555
C60 C58 1_555 1_555
H39 C60 1_555 1_555
C61 C59 1_555 1_555
H40 C61 1_555 1_555
C62 C57 1_555 1_555
H41 C62 1_555 1_555
C63 C59 1_555 1_555
C64 C63 1_555 1_555
H42 C64 1_555 1_555
C65 C54 1_555 1_555
C66 C65 1_555 1_555
H43 C66 1_555 1_555
C67 C66 1_555 1_555
C68 C63 1_555 1_555
H44 C68 1_555 1_555
C69 C67 1_555 1_555
C76 O9 1_555 1_555
C55 C56 1_555 1_555
C57 C76 1_555 1_555
C61 C62 1_555 1_555
C64 C65 1_555 1_555
C67 C68 1_555 1_555
Zn5 O1_2 1_555 1_555
O1_2 C27_2 1_555 1_555
N1_2 Zn5 1_555 1_555
C1_2 O15 1_555 1_555
N2_2 H1_2 1_555 1_555
C2_2 C1_2 1_555 1_555
O3 H2 1_555 1_555
C3_2 C2_2 1_555 1_555
H3_2 C3_2 1_555 1_555
C4_2 C3_2 1_555 1_555
H4_2 C4_2 1_555 1_555
O5_2 C1_2 1_555 1_555
C5_2 C4_2 1_555 1_555
O6_2 C27_2 1_555 1_555
C6_2 C5_2 1_555 1_555
H5_2 C6_2 1_555 1_555
C7_2 C2_2 1_555 1_555
H6_2 C7_2 1_555 1_555
O7_2 C35_2 1_555 1_555
C8_2 C9_2 1_555 1_555
C9_2 H7_2 1_555 1_555
C10_2 C11_2 1_555 1_555
C11_2 C9_2 1_555 1_555
H8_2 C11_2 1_555 1_555
C12_2 C10_2 1_555 1_555
H9_2 C12_2 1_555 1_555
C13_2 C8_2 1_555 1_555
H10_2 C13_2 1_555 1_555
C14_2 C10_2 1_555 1_555
C15_2 C14_2 1_555 1_555
H11_2 C15_2 1_555 1_555
C16_2 C5_2 1_555 1_555
C17_2 C16_2 1_555 1_555
H12_2 C17_2 1_555 1_555
C18_2 C17_2 1_555 1_555
C19_2 C14_2 1_555 1_555
H13_2 C19_2 1_555 1_555
C20_2 C18_2 1_555 1_555
C21 C20_2 1_555 1_555
H14 C21 1_555 1_555
C22 C21 1_555 1_555
H15 C22 1_555 1_555
C24 C22 1_555 1_555
C25 C20_2 1_555 1_555
C26 O3 1_555 1_555
C27_2 C8_2 1_555 1_555
C28_2 N1_2 1_555 1_555
H18_2 C28_2 1_555 1_555
C29_2 C28_2 1_555 1_555
H19_2 C29_2 1_555 1_555
C30_2 C29_2 1_555 1_555
H20_2 C30_2 1_555 1_555
C31_2 N2_2 1_555 1_555
C32_2 N1_2 1_555 1_555
H21_2 C32_2 1_555 1_555
C33_2 H22_2 1_555 1_555
C34_2 C33_2 1_555 1_555
C35_2 N2_2 1_555 1_555
C36_2 C34_2 1_555 1_555
C37_2 C36_2 1_555 1_555
H23_2 C37_2 1_555 1_555
C38_2 C37_2 1_555 1_555
H24_2 C38_2 1_555 1_555
N3 C39 1_555 1_555
N4 H25 1_555 1_555
O8 C46 1_555 1_555
C39 H26 1_555 1_555
C40 C39 1_555 1_555
H27 C40 1_555 1_555
C41 C40 1_555 1_555
H28 C41 1_555 1_555
C42 N4 1_555 1_555
C43 N3 1_555 1_555
H29 C43 1_555 1_555
C44 C33_2 1_555 1_555
H30 C44 1_555 1_555
C45 C44 1_555 1_555
C46 N4 1_555 1_555
C47 C36_2 1_555 1_555
C48 C47 1_555 1_555
H31 C48 1_555 1_555
C49 C38_2 1_555 1_555
H32 C49 1_555 1_555
C6_2 C7_2 1_555 1_555
C12_2 C13_2 1_555 1_555
C15_2 C16_2 1_555 1_555
C18_2 C19_2 1_555 1_555
C24 C26 1_555 1_555
C30_2 C31_2 1_555 1_555
C31_2 C32_2 1_555 1_555
C34_2 C35_2 1_555 1_555
C41 C42 1_555 1_555
C42 C43 1_555 1_555
C45 C46 1_555 1_555
C45 C47 1_555 1_555
C48 C49 1_555 1_555
O9_2 Zn6 1_555 1_555
C50_2 O16 1_555 1_555
C51_2 C50_2 1_555 1_555
O11 H33 1_555 1_555
C52_2 C51_2 1_555 1_555
H34_2 C52_2 1_555 1_555
O12 C75 1_555 1_555
C53_2 C52_2 1_555 1_555
H35_2 C53_2 1_555 1_555
O13_2 C50_2 1_555 1_555
C54_2 C53_2 1_555 1_555
O18_2 C76_2 1_555 1_555
C55_2 C54_2 1_555 1_555
H36_2 C55_2 1_555 1_555
C56_2 C51_2 1_555 1_555
H37_2 C56_2 1_555 1_555
C57_2 C58_2 1_555 1_555
C58_2 H38_2 1_555 1_555
C59_2 C60_2 1_555 1_555
C60_2 C58_2 1_555 1_555
H39_2 C60_2 1_555 1_555
C61_2 C59_2 1_555 1_555
H40_2 C61_2 1_555 1_555
C62_2 C57_2 1_555 1_555
H41_2 C62_2 1_555 1_555
C63_2 C59_2 1_555 1_555
C64_2 C63_2 1_555 1_555
H42_2 C64_2 1_555 1_555
C65_2 C54_2 1_555 1_555
C66_2 C65_2 1_555 1_555
H43_2 C66_2 1_555 1_555
C67_2 C66_2 1_555 1_555
C68_2 C63_2 1_555 1_555
H44_2 C68_2 1_555 1_555
C69_2 C67_2 1_555 1_555
C70 C69_2 1_555 1_555
H45 C70 1_555 1_555
C71 C70 1_555 1_555
H46 C71 1_555 1_555
C72 H47 1_555 1_555
C73 C71 1_555 1_555
C74 C69_2 1_555 1_555
H48_2 C74 1_555 1_555
C75 O11 1_555 1_555
C76_2 O9_2 1_555 1_555
C55_2 C56_2 1_555 1_555
C57_2 C76_2 1_555 1_555
C61_2 C62_2 1_555 1_555
C64_2 C65_2 1_555 1_555
C67_2 C68_2 1_555 1_555
C72 C73 1_555 1_555
C72 C74 1_555 1_555
C73 C75 1_555 1_555
O12_2 C75_2 1_555 1_555
H45_2 C70_2 1_555 1_555
C71_2 C70_2 1_555 1_555
C72_2 H47_2 1_555 1_555
C73_2 C71_2 1_555 1_555
C72_2 C73_2 1_555 1_555
C72_2 C74_2 1_555 1_555
C73_2 C75_2 1_555 1_555
O11_2 H33_2 1_555 1_555
C23 H16 1_555 1_555
H14_2 C21_2 1_555 1_555
C22_2 C21_2 1_555 1_555
C24_2 C22_2 1_555 1_555
N3_2 C39_2 1_555 1_555
N4_2 H25_2 1_555 1_555
O8_2 C46_2 1_555 1_555
C39_2 H26_2 1_555 1_555
C40_2 C39_2 1_555 1_555
H27_2 C40_2 1_555 1_555
C41_2 C40_2 1_555 1_555
H28_2 C41_2 1_555 1_555
C42_2 N4_2 1_555 1_555
C43_2 N3_2 1_555 1_555
H29_2 C43_2 1_555 1_555
H30_2 C44_2 1_555 1_555
C45_2 C44_2 1_555 1_555
C46_2 N4_2 1_555 1_555
C48_2 C47_2 1_555 1_555
H31_2 C48_2 1_555 1_555
H32_2 C49_2 1_555 1_555
C24_2 C26_2 1_555 1_555
C41_2 C42_2 1_555 1_555
C42_2 C43_2 1_555 1_555
C45_2 C46_2 1_555 1_555
C45_2 C47_2 1_555 1_555
C48_2 C49_2 1_555 1_555
O3_2 H2_2 1_555 1_555
C23_2 H16_2 1_555 1_555
O9_3 Zn2 1_555 1_555
C50_3 O10_2 1_555 1_555
O10_2 Zn5_2 1_555 1_555
C51_3 C50_3 1_555 1_555
C52_3 C51_3 1_555 1_555
H34_3 C52_3 1_555 1_555
C53_3 C52_3 1_555 1_555
H35_3 C53_3 1_555 1_555
O13_3 C50_3 1_555 1_555
C54_3 C53_3 1_555 1_555
O14 C76_3 1_555 1_555
C55_3 C54_3 1_555 1_555
H36_3 C55_3 1_555 1_555
C56_3 C51_3 1_555 1_555
H37_3 C56_3 1_555 1_555
C57_3 C58_3 1_555 1_555
C58_3 H38_3 1_555 1_555
C59_3 C60_3 1_555 1_555
C60_3 C58_3 1_555 1_555
H39_3 C60_3 1_555 1_555
C61_3 C59_3 1_555 1_555
H40_3 C61_3 1_555 1_555
C62_3 C57_3 1_555 1_555
H41_3 C62_3 1_555 1_555
C63_3 C59_3 1_555 1_555
C64_3 C63_3 1_555 1_555
H42_3 C64_3 1_555 1_555
C65_3 C54_3 1_555 1_555
C66_3 C65_3 1_555 1_555
H43_3 C66_3 1_555 1_555
C67_3 C66_3 1_555 1_555
C68_3 C63_3 1_555 1_555
H44_3 C68_3 1_555 1_555
C69_3 C67_3 1_555 1_555
C76_3 O9_3 1_555 1_555
Zn3 O14 1_555 1_555
O17 Zn2 1_555 1_555
C55_3 C56_3 1_555 1_555
C57_3 C76_3 1_555 1_555
C61_3 C62_3 1_555 1_555
C64_3 C65_3 1_555 1_555
C67_3 C68_3 1_555 1_555
Zn3 O1_3 1_555 1_555
O1_3 C27_3 1_555 1_555
N1_3 Zn3 1_555 1_555
C1_3 O2_2 1_555 1_555
O2_2 Zn6_2 1_555 1_555
N2_3 H1_3 1_555 1_555
C2_3 C1_3 1_555 1_555
C3_3 C2_3 1_555 1_555
H3_3 C3_3 1_555 1_555
C4_3 C3_3 1_555 1_555
H4_3 C4_3 1_555 1_555
O5_3 C1_3 1_555 1_555
C5_3 C4_3 1_555 1_555
O17 C27_3 1_555 1_555
C6_3 C5_3 1_555 1_555
H5_3 C6_3 1_555 1_555
C7_3 C2_3 1_555 1_555
H6_3 C7_3 1_555 1_555
O7_3 C35_3 1_555 1_555
C8_3 C9_3 1_555 1_555
C9_3 H7_3 1_555 1_555
C10_3 C11_3 1_555 1_555
C11_3 C9_3 1_555 1_555
H8_3 C11_3 1_555 1_555
C12_3 C10_3 1_555 1_555
H9_3 C12_3 1_555 1_555
C13_3 C8_3 1_555 1_555
H10_3 C13_3 1_555 1_555
C14_3 C10_3 1_555 1_555
C15_3 C14_3 1_555 1_555
H11_3 C15_3 1_555 1_555
C16_3 C5_3 1_555 1_555
C17_3 C16_3 1_555 1_555
H12_3 C17_3 1_555 1_555
C18_3 C17_3 1_555 1_555
C19_3 C14_3 1_555 1_555
H13_3 C19_3 1_555 1_555
C20_3 C18_3 1_555 1_555
C27_3 C8_3 1_555 1_555
C28_3 N1_3 1_555 1_555
H18_3 C28_3 1_555 1_555
C29_3 C28_3 1_555 1_555
H19_3 C29_3 1_555 1_555
C30_3 C29_3 1_555 1_555
H20_3 C30_3 1_555 1_555
C31_3 N2_3 1_555 1_555
C32_3 N1_3 1_555 1_555
H21_3 C32_3 1_555 1_555
C33_3 H22_3 1_555 1_555
C34_3 C33_3 1_555 1_555
C35_3 N2_3 1_555 1_555
C36_3 C34_3 1_555 1_555
C37_3 C36_3 1_555 1_555
H23_3 C37_3 1_555 1_555
C38_3 C37_3 1_555 1_555
H24_3 C38_3 1_555 1_555
C6_3 C7_3 1_555 1_555
C12_3 C13_3 1_555 1_555
C15_3 C16_3 1_555 1_555
C18_3 C19_3 1_555 1_555
C30_3 C31_3 1_555 1_555
C31_3 C32_3 1_555 1_555
C34_3 C35_3 1_555 1_555
O9_4 Zn6_2 1_555 1_555
C50_4 O16_2 1_555 1_555
C51_4 C50_4 1_555 1_555
O11_3 H33_3 1_555 1_555
C52_4 C51_4 1_555 1_555
H34_4 C52_4 1_555 1_555
O12_3 C75_3 1_555 1_555
C53_4 C52_4 1_555 1_555
H35_4 C53_4 1_555 1_555
O13_4 C50_4 1_555 1_555
C54_4 C53_4 1_555 1_555
O14_2 C76_4 1_555 1_555
C55_4 C54_4 1_555 1_555
H36_4 C55_4 1_555 1_555
C56_4 C51_4 1_555 1_555
H37_4 C56_4 1_555 1_555
C57_4 C58_4 1_555 1_555
C58_4 H38_4 1_555 1_555
C59_4 C60_4 1_555 1_555
C60_4 C58_4 1_555 1_555
H39_4 C60_4 1_555 1_555
C61_4 C59_4 1_555 1_555
H40_4 C61_4 1_555 1_555
C62_4 C57_4 1_555 1_555
H41_4 C62_4 1_555 1_555
C63_4 C59_4 1_555 1_555
C64_4 C63_4 1_555 1_555
H42_4 C64_4 1_555 1_555
C65_4 C54_4 1_555 1_555
C66_4 C65_4 1_555 1_555
H43_4 C66_4 1_555 1_555
C67_4 C66_4 1_555 1_555
C68_4 C63_4 1_555 1_555
H44_4 C68_4 1_555 1_555
C69_4 C67_4 1_555 1_555
C70_3 C69_4 1_555 1_555
H45_3 C70_3 1_555 1_555
C71_3 C70_3 1_555 1_555
H46_3 C71_3 1_555 1_555
C72_3 H47_3 1_555 1_555
C73_3 C71_3 1_555 1_555
C74_3 C69_4 1_555 1_555
H48_4 C74_3 1_555 1_555
C75_3 O11_3 1_555 1_555
C76_4 O9_4 1_555 1_555
C55_4 C56_4 1_555 1_555
C57_4 C76_4 1_555 1_555
C61_4 C62_4 1_555 1_555
C64_4 C65_4 1_555 1_555
C67_4 C68_4 1_555 1_555
C72_3 C73_3 1_555 1_555
C72_3 C74_3 1_555 1_555
C73_3 C75_3 1_555 1_555
Zn5_2 O1_4 1_555 1_555
O1_4 C27_4 1_555 1_555
N1_4 Zn5_2 1_555 1_555
C1_4 O15_2 1_555 1_555
N2_4 H1_4 1_555 1_555
C2_4 C1_4 1_555 1_555
O3_3 H2_3 1_555 1_555
C3_4 C2_4 1_555 1_555
H3_4 C3_4 1_555 1_555
C4_4 C3_4 1_555 1_555
H4_4 C4_4 1_555 1_555
O5_4 C1_4 1_555 1_555
C5_4 C4_4 1_555 1_555
O17_2 C27_4 1_555 1_555
C6_4 C5_4 1_555 1_555
H5_4 C6_4 1_555 1_555
C7_4 C2_4 1_555 1_555
H6_4 C7_4 1_555 1_555
O7_4 C35_4 1_555 1_555
C8_4 C9_4 1_555 1_555
C9_4 H7_4 1_555 1_555
C10_4 C11_4 1_555 1_555
C11_4 C9_4 1_555 1_555
H8_4 C11_4 1_555 1_555
C12_4 C10_4 1_555 1_555
H9_4 C12_4 1_555 1_555
C13_4 C8_4 1_555 1_555
H10_4 C13_4 1_555 1_555
C14_4 C10_4 1_555 1_555
C15_4 C14_4 1_555 1_555
H11_4 C15_4 1_555 1_555
C16_4 C5_4 1_555 1_555
C17_4 C16_4 1_555 1_555
H12_4 C17_4 1_555 1_555
C18_4 C17_4 1_555 1_555
C19_4 C14_4 1_555 1_555
H13_4 C19_4 1_555 1_555
C20_4 C18_4 1_555 1_555
C21_3 C20_4 1_555 1_555
H14_3 C21_3 1_555 1_555
C22_3 C21_3 1_555 1_555
H15_3 C22_3 1_555 1_555
C24_3 C22_3 1_555 1_555
C25_3 C20_4 1_555 1_555
C26_3 O3_3 1_555 1_555
C27_4 C8_4 1_555 1_555
C28_4 N1_4 1_555 1_555
H18_4 C28_4 1_555 1_555
C29_4 C28_4 1_555 1_555
H19_4 C29_4 1_555 1_555
C30_4 C29_4 1_555 1_555
H20_4 C30_4 1_555 1_555
C31_4 N2_4 1_555 1_555
C32_4 N1_4 1_555 1_555
H21_4 C32_4 1_555 1_555
C33_4 H22_4 1_555 1_555
C34_4 C33_4 1_555 1_555
C35_4 N2_4 1_555 1_555
C36_4 C34_4 1_555 1_555
C37_4 C36_4 1_555 1_555
H23_4 C37_4 1_555 1_555
C38_4 C37_4 1_555 1_555
H24_4 C38_4 1_555 1_555
N3_3 C39_3 1_555 1_555
N4_3 H25_3 1_555 1_555
O8_3 C46_3 1_555 1_555
C39_3 H26_3 1_555 1_555
C40_3 C39_3 1_555 1_555
H27_3 C40_3 1_555 1_555
C41_3 C40_3 1_555 1_555
H28_3 C41_3 1_555 1_555
C42_3 N4_3 1_555 1_555
C43_3 N3_3 1_555 1_555
H29_3 C43_3 1_555 1_555
C44_3 C33_4 1_555 1_555
H30_3 C44_3 1_555 1_555
C45_3 C44_3 1_555 1_555
C46_3 N4_3 1_555 1_555
C47_3 C36_4 1_555 1_555
C48_3 C47_3 1_555 1_555
H31_3 C48_3 1_555 1_555
C49_3 C38_4 1_555 1_555
H32_3 C49_3 1_555 1_555
C6_4 C7_4 1_555 1_555
C12_4 C13_4 1_555 1_555
C15_4 C16_4 1_555 1_555
C18_4 C19_4 1_555 1_555
C24_3 C26_3 1_555 1_555
C30_4 C31_4 1_555 1_555
C31_4 C32_4 1_555 1_555
C34_4 C35_4 1_555 1_555
C41_3 C42_3 1_555 1_555
C42_3 C43_3 1_555 1_555
C45_3 C46_3 1_555 1_555
C45_3 C47_3 1_555 1_555
C48_3 C49_3 1_555 1_555
O3_4 H2_4 1_555 1_555
H14_4 C21_4 1_555 1_555
C22_4 C21_4 1_555 1_555
C24_4 C22_4 1_555 1_555
N3_4 C39_4 1_555 1_555
N4_4 H25_4 1_555 1_555
O8_4 C46_4 1_555 1_555
C39_4 H26_4 1_555 1_555
C40_4 C39_4 1_555 1_555
H27_4 C40_4 1_555 1_555
C41_4 C40_4 1_555 1_555
H28_4 C41_4 1_555 1_555
C42_4 N4_4 1_555 1_555
C43_4 N3_4 1_555 1_555
H29_4 C43_4 1_555 1_555
H30_4 C44_4 1_555 1_555
C45_4 C44_4 1_555 1_555
C46_4 N4_4 1_555 1_555
C48_4 C47_4 1_555 1_555
H31_4 C48_4 1_555 1_555
H32_4 C49_4 1_555 1_555
C24_4 C26_4 1_555 1_555
C41_4 C42_4 1_555 1_555
C42_4 C43_4 1_555 1_555
C45_4 C46_4 1_555 1_555
C45_4 C47_4 1_555 1_555
C48_4 C49_4 1_555 1_555
C23_3 H16_3 1_555 1_555
O11_4 H33_4 1_555 1_555
O12_4 C75_4 1_555 1_555
H45_4 C70_4 1_555 1_555
C71_4 C70_4 1_555 1_555
C72_4 H47_4 1_555 1_555
C73_4 C71_4 1_555 1_555
C72_4 C73_4 1_555 1_555
C72_4 C74_4 1_555 1_555
C73_4 C75_4 1_555 1_555
C23_4 H16_4 1_555 1_555

#END
