
###############################################################################
#
# This file contains modified crystal structure data generated from the
# MOF subset of the Cambridge Structural Database (CSD) v543 
# hosted by the Cambridge Crystallographic Data Centre (CCDC).
#
# This work is licensed under the Creative Commons
# Attribution-NonCommercial-ShareAlike 4.0 International License.
# To view a copy of this license, visit
# http://creativecommons.org/licenses/by-nc-sa/4.0/
# or send a letter to
# Creative Commons, PO Box 1866, Mountain View, CA 94042, USA.
#
# CIF created using the CSD Python API on 29 September 2022
# The structure has been converted into the P1 space group
# The structure has a 3D framework
# The original CSD entry KUPJIR is in the monoclinic crystal system
# The framework has been calculated to contain at least 10.0% void space
# The void calculation uses a probe of radius 1.32A, grid spacing 0.4
# The framework is charged, counterions have been retained in the structure
#
###############################################################################

data_KUPJIR
_chemical_formula_moiety         '(C136 H160 N32 O64 S16 Zn12)n'
_symmetry_cell_setting           triclinic
_symmetry_space_group_name_H-M   'P 1'
_symmetry_Int_Tables_number      1
_space_group_name_Hall           'P 1'
loop_
_symmetry_equiv_pos_site_id
_symmetry_equiv_pos_as_xyz
1 x,y,z
_cell_length_a                   11.3703(6)
_cell_length_b                   24.2898(13)
_cell_length_c                   20.7266(10)
_cell_angle_alpha                90
_cell_angle_beta                 98.9261(15)
_cell_angle_gamma                90
_cell_volume                     5654.99
loop_
_atom_site_label
_atom_site_type_symbol
_atom_site_fract_x
_atom_site_fract_y
_atom_site_fract_z
C1 C 0.8526(14) 0.1105(6) 0.3295(8)
H1 H 0.9015 0.1067 0.2959
H2 H 0.7859 0.0859 0.3208
H3 H 0.8985 0.1017 0.3710
N1 N 0.810(3) 0.1665(9) 0.3305(19)
H4 H 0.8590 0.1880 0.3112
H5 H 0.8168 0.1772 0.3725
C2 C 0.689(4) 0.177(2) 0.299(4)
H6 H 0.6551 0.2052 0.3224
H7 H 0.6434 0.1435 0.3004
H8 H 0.6894 0.1875 0.2550
C1_2 C 0.1474(14) 0.1105(6) 0.1705(8)
H1_2 H 0.0985 0.1067 0.2041
H2_2 H 0.2141 0.0859 0.1792
H3_2 H 0.1015 0.1017 0.1290
N1_2 N 0.190(3) 0.1665(9) 0.1695(19)
H4_2 H 0.1410 0.1880 0.1888
H5_2 H 0.1832 0.1772 0.1275
C2_2 C 0.311(4) 0.177(2) 0.201(4)
H6_2 H 0.3449 0.2052 0.1776
H7_2 H 0.3566 0.1435 0.1996
H8_2 H 0.3106 0.1875 0.2450
C1_3 C 0.3526(14) 0.6105(6) 0.3295(8)
H1_3 H 0.4015 0.6067 0.2959
H2_3 H 0.2859 0.5859 0.3208
H3_3 H 0.3985 0.6017 0.3710
N1_3 N 0.310(3) 0.6665(9) 0.3305(19)
H4_3 H 0.3590 0.6880 0.3112
H5_3 H 0.3168 0.6772 0.3725
C2_3 C 0.189(4) 0.677(2) 0.299(4)
H6_3 H 0.1551 0.7052 0.3224
H7_3 H 0.1434 0.6435 0.3004
H8_3 H 0.1894 0.6875 0.2550
C1_4 C 0.6474(14) 0.6105(6) 0.1705(8)
H1_4 H 0.5985 0.6067 0.2041
H2_4 H 0.7141 0.5859 0.1792
H3_4 H 0.6015 0.6017 0.1290
N1_4 N 0.690(3) 0.6665(9) 0.1695(19)
H4_4 H 0.6410 0.6880 0.1888
H5_4 H 0.6832 0.6772 0.1275
C2_4 C 0.811(4) 0.677(2) 0.201(4)
H6_4 H 0.8449 0.7052 0.1776
H7_4 H 0.8566 0.6435 0.1996
H8_4 H 0.8106 0.6875 0.2450
C1_5 C 0.1474(14) 0.8895(6) 0.6705(8)
H1_5 H 0.0985 0.8933 0.7041
H2_5 H 0.2141 0.9141 0.6792
H3_5 H 0.1015 0.8983 0.6290
N1_5 N 0.190(3) 0.8335(9) 0.6695(19)
H4_5 H 0.1410 0.8120 0.6888
H5_5 H 0.1832 0.8228 0.6275
C2_5 C 0.311(4) 0.823(2) 0.701(4)
H6_5 H 0.3449 0.7948 0.6776
H7_5 H 0.3566 0.8565 0.6996
H8_5 H 0.3106 0.8125 0.7450
C1_6 C 0.8526(14) 0.8895(6) 0.8295(8)
H1_6 H 0.9015 0.8933 0.7959
H2_6 H 0.7859 0.9141 0.8208
H3_6 H 0.8985 0.8983 0.8710
N1_6 N 0.810(3) 0.8335(9) 0.8305(19)
H4_6 H 0.8590 0.8120 0.8112
H5_6 H 0.8168 0.8228 0.8725
C2_6 C 0.689(4) 0.823(2) 0.799(4)
H6_6 H 0.6551 0.7948 0.8224
H7_6 H 0.6434 0.8565 0.8004
H8_6 H 0.6894 0.8125 0.7550
C1_7 C 0.6474(14) 0.3895(6) 0.6705(8)
H1_7 H 0.5985 0.3933 0.7041
H2_7 H 0.7141 0.4141 0.6792
H3_7 H 0.6015 0.3983 0.6290
N1_7 N 0.690(3) 0.3335(9) 0.6695(19)
H4_7 H 0.6410 0.3120 0.6888
H5_7 H 0.6832 0.3228 0.6275
C2_7 C 0.811(4) 0.323(2) 0.701(4)
H6_7 H 0.8449 0.2948 0.6776
H7_7 H 0.8566 0.3565 0.6996
H8_7 H 0.8106 0.3125 0.7450
C1_8 C 0.3526(14) 0.3895(6) 0.8295(8)
H1_8 H 0.4015 0.3933 0.7959
H2_8 H 0.2859 0.4141 0.8208
H3_8 H 0.3985 0.3983 0.8710
N1_8 N 0.310(3) 0.3335(9) 0.8305(19)
H4_8 H 0.3590 0.3120 0.8112
H5_8 H 0.3168 0.3228 0.8725
C2_8 C 0.189(4) 0.323(2) 0.799(4)
H6_8 H 0.1551 0.2948 0.8224
H7_8 H 0.1434 0.3565 0.8004
H8_8 H 0.1894 0.3125 0.7550
Zn1 Zn 0.7500 0.2500 0.0000
Zn2 Zn 0.61436(5) 0.035732(19) 0.06146(2)
S1 S 0.33982(10) 0.03921(4) 0.04547(5)
S2 S 0.79015(10) 0.13209(4) 0.10375(5)
C10 C 0.6531(9) 0.0008(2) 0.1959(3)
H14 H 0.6545 0.0388 0.2013
O1 O 0.4534(3) 0.05796(15) 0.02408(18)
O2 O 0.2475(4) 0.07850(17) 0.0220(2)
O4 O 0.3570(5) 0.03114(17) 0.1150(2)
O5 O 0.7724(3) 0.18114(13) 0.06293(16)
O6 O 0.6722(4) 0.10475(16) 0.0995(2)
O7 O 0.8749(4) 0.09545(18) 0.0801(3)
O8 O 0.8283(5) 0.1485(2) 0.17106(19)
N4 N 0.5630(3) 0.25014(14) 0.00373(18)
C15 C 0.3810(4) 0.2017(2) 0.0060(3)
H19 H 0.3429 0.1680 0.0080
C16 C 0.5027(4) 0.20364(19) 0.0081(3)
H20 H 0.5450 0.1707 0.0128
C17 C 0.3155(4) 0.25012(17) 0.0008(2)
C19 C 0.1216(4) 0.20152(19) 0.0031(3)
H22 H 0.1613 0.1679 0.0068
N8 N 0.7806(3) 0.30653(14) 0.08615(16)
Zn1_2 Zn 0.7500 0.2500 1.0000
C13 C 0.5004(4) 0.29672(19) 0.9987(3)
H17 H 0.5408 0.3298 0.9962
C14 C 0.3784(4) 0.29848(19) 0.9969(3)
H18 H 0.3387 0.3321 0.9932
C20 C 0.1190(4) 0.2983(2) 0.9940(3)
H23 H 0.1571 0.3320 0.9920
C22 C 0.1845(4) 0.24988(17) 0.9992(2)
N6 N 0.2806(3) 0.19347(14) 0.58615(16)
N7 N 0.3644(4) 0.01862(16) 0.86355(18)
C23 C 0.3348(5) 0.08804(18) 0.7547(2)
C24 C 0.3045(6) 0.1036(2) 0.6343(2)
H25 H 0.3080 0.0658 0.6278
C25 C 0.3168(4) 0.12460(18) 0.6963(2)
C26 C 0.3575(8) 0.1081(2) 0.8171(3)
H26 H 0.3641 0.1459 0.8240
C27 C 0.3302(9) 0.0315(2) 0.7489(3)
H27 H 0.3159 0.0153 0.7078
C28 C 0.3706(8) 0.0727(2) 0.8699(3)
H28 H 0.3845 0.0875 0.9118
C29 C 0.2914(7) 0.2134(2) 0.6464(3)
H29 H 0.2873 0.2514 0.6517
C31 C 0.2869(6) 0.1391(2) 0.5814(2)
H31 H 0.2790 0.1238 0.5398
C32 C 0.3083(8) 0.1808(2) 0.7016(2)
H32 H 0.3140 0.1970 0.7426
O11 O 0.6910(4) 0.01499(15) 0.98750(18)
Zn5 Zn 0.2500 0.2500 0.5000
N9 N 0.7194(3) 0.19347(14) 0.91385(16)
O17 O 0.7276(3) 0.31886(13) 0.93707(16)
N10 N 0.9370(3) 0.24986(14) 0.99627(18)
N2 N 0.7194(3) 0.80653(14) 0.41385(16)
N3 N 0.6356(4) 0.98138(16) 0.13645(18)
C3 C 0.6652(5) 0.91196(18) 0.2453(2)
C4 C 0.6955(6) 0.8964(2) 0.3657(2)
H9 H 0.6920 0.9342 0.3722
C5 C 0.6832(4) 0.87540(18) 0.3037(2)
C6 C 0.6425(8) 0.8919(2) 0.1829(3)
H10 H 0.6359 0.8541 0.1760
C7 C 0.6698(9) 0.9685(2) 0.2511(3)
H11 H 0.6841 0.9847 0.2922
C8 C 0.6294(8) 0.9273(2) 0.1301(3)
H12 H 0.6155 0.9125 0.0882
C9 C 0.7086(7) 0.7866(2) 0.3536(3)
H13 H 0.7127 0.7486 0.3483
C11 C 0.7131(6) 0.8609(2) 0.4186(2)
H15 H 0.7210 0.8762 0.4602
C12 C 0.6917(8) 0.8192(2) 0.2984(2)
H16 H 0.6860 0.8030 0.2574
O3 O 0.3090(4) 0.98501(15) 0.01250(18)
Zn6 Zn 0.2500 0.7500 0.0000
Zn7 Zn 0.7500 0.7500 0.5000
Zn3 Zn 0.38564(5) 0.964268(19) 0.93854(2)
S3 S 0.66018(10) 0.96079(4) 0.95453(5)
S4 S 0.20985(10) 0.86791(4) 0.89625(5)
C30 C 0.3469(9) 0.9992(2) 0.8041(3)
H30 H 0.3455 0.9612 0.7987
O9 O 0.5466(3) 0.94204(15) 0.97592(18)
O10 O 0.7525(4) 0.92150(17) 0.9780(2)
O12 O 0.6430(5) 0.96886(17) 0.8850(2)
O13 O 0.2276(3) 0.81886(13) 0.93707(16)
O14 O 0.3278(4) 0.89525(16) 0.9005(2)
O15 O 0.1251(4) 0.90455(18) 0.9199(3)
O16 O 0.1717(5) 0.8515(2) 0.82894(19)
Zn6_2 Zn 0.2500 0.7500 1.0000
C18 C 0.9996(4) 0.20328(19) 0.0013(3)
H21 H 0.9592 0.1702 0.0038
C21 C 0.9973(4) 0.29636(19) 0.9919(3)
H24 H 0.9550 0.3293 0.9872
N5 N 0.0630(3) 0.24986(14) 0.50373(18)
C18_2 C 0.0004(4) 0.20328(19) 0.4987(3)
H21_2 H 0.0408 0.1702 0.4962
C21_2 C 0.0027(4) 0.29636(19) 0.5081(3)
H24_2 H 0.0450 0.3293 0.5128
Zn2_2 Zn 0.38564(5) 0.035732(19) 0.43854(2)
S1_2 S 0.66018(10) 0.03921(4) 0.45453(5)
S2_2 S 0.20985(10) 0.13209(4) 0.39625(5)
C10_2 C 0.3469(9) 0.0008(2) 0.3041(3)
H14_2 H 0.3455 0.0388 0.2987
O1_2 O 0.5466(3) 0.05796(15) 0.47592(18)
O2_2 O 0.7525(4) 0.07850(17) 0.4780(2)
O4_2 O 0.6430(5) 0.03114(17) 0.3850(2)
O5_2 O 0.2276(3) 0.18114(13) 0.43707(16)
O6_2 O 0.3278(4) 0.10475(16) 0.4005(2)
O7_2 O 0.1251(4) 0.09545(18) 0.4199(3)
O8_2 O 0.1717(5) 0.1485(2) 0.32894(19)
N4_2 N 0.4370(3) 0.25014(14) 0.49627(18)
C13_2 C 0.4996(4) 0.29672(19) 0.5013(3)
H17_2 H 0.4592 0.3298 0.5038
C14_2 C 0.6216(4) 0.29848(19) 0.5031(3)
H18_2 H 0.6613 0.3321 0.5068
C15_2 C 0.6190(4) 0.2017(2) 0.4940(3)
H19_2 H 0.6571 0.1680 0.4920
C16_2 C 0.4973(4) 0.20364(19) 0.4919(3)
H20_2 H 0.4550 0.1707 0.4872
C17_2 C 0.6845(4) 0.25012(17) 0.4992(2)
C19_2 C 0.8784(4) 0.20152(19) 0.4969(3)
H22_2 H 0.8387 0.1679 0.4932
C20_2 C 0.8810(4) 0.2983(2) 0.5060(3)
H23_2 H 0.8429 0.3320 0.5080
C22_2 C 0.8155(4) 0.24988(17) 0.5008(2)
N7_2 N 0.6356(4) 0.01862(16) 0.63645(18)
C23_2 C 0.6652(5) 0.08804(18) 0.7453(2)
C24_2 C 0.6955(6) 0.1036(2) 0.8657(2)
H25_2 H 0.6920 0.0658 0.8722
C25_2 C 0.6832(4) 0.12460(18) 0.8037(2)
C26_2 C 0.6425(8) 0.1081(2) 0.6829(3)
H26_2 H 0.6359 0.1459 0.6760
C27_2 C 0.6698(9) 0.0315(2) 0.7511(3)
H27_2 H 0.6841 0.0153 0.7922
C28_2 C 0.6294(8) 0.0727(2) 0.6301(3)
H28_2 H 0.6155 0.0875 0.5882
C29_2 C 0.7086(7) 0.2134(2) 0.8536(3)
H29_2 H 0.7127 0.2514 0.8483
C31_2 C 0.7131(6) 0.1391(2) 0.9186(2)
H31_2 H 0.7210 0.1238 0.9602
C32_2 C 0.6917(8) 0.1808(2) 0.7984(2)
H32_2 H 0.6860 0.1970 0.7574
O11_2 O 0.3090(4) 0.01499(15) 0.51250(18)
N8_2 N 0.2194(3) 0.30653(14) 0.41385(16)
O17_2 O 0.2724(3) 0.31886(13) 0.56293(16)
N2_2 N 0.2806(3) 0.80653(14) 0.08615(16)
N3_2 N 0.3644(4) 0.98138(16) 0.36355(18)
C3_2 C 0.3348(5) 0.91196(18) 0.2547(2)
C4_2 C 0.3045(6) 0.8964(2) 0.1343(2)
H9_2 H 0.3080 0.9342 0.1278
C5_2 C 0.3168(4) 0.87540(18) 0.1963(2)
C6_2 C 0.3575(8) 0.8919(2) 0.3171(3)
H10_2 H 0.3641 0.8541 0.3240
C7_2 C 0.3302(9) 0.9685(2) 0.2489(3)
H11_2 H 0.3159 0.9847 0.2078
C8_2 C 0.3706(8) 0.9273(2) 0.3699(3)
H12_2 H 0.3845 0.9125 0.4118
C9_2 C 0.2914(7) 0.7866(2) 0.1464(3)
H13_2 H 0.2873 0.7486 0.1517
C11_2 C 0.2869(6) 0.8609(2) 0.0814(2)
H15_2 H 0.2790 0.8762 0.0398
C12_2 C 0.3083(8) 0.8192(2) 0.2016(2)
H16_2 H 0.3140 0.8030 0.2426
O3_2 O 0.6910(4) 0.98501(15) 0.48750(18)
Zn3_2 Zn 0.61436(5) 0.964268(19) 0.56146(2)
S3_2 S 0.33982(10) 0.96079(4) 0.54547(5)
S4_2 S 0.79015(10) 0.86791(4) 0.60375(5)
C30_2 C 0.6531(9) 0.9992(2) 0.6959(3)
H30_2 H 0.6545 0.9612 0.7013
O9_2 O 0.4534(3) 0.94204(15) 0.52408(18)
O10_2 O 0.2475(4) 0.92150(17) 0.5220(2)
O12_2 O 0.3570(5) 0.96886(17) 0.6150(2)
O13_2 O 0.7724(3) 0.81886(13) 0.56293(16)
O14_2 O 0.6722(4) 0.89525(16) 0.5995(2)
O15_2 O 0.8749(4) 0.90455(18) 0.5801(3)
O16_2 O 0.8283(5) 0.8515(2) 0.67106(19)
Zn2_3 Zn 0.11436(5) 0.535732(19) 0.06146(2)
S2_3 S 0.29015(10) 0.63209(4) 0.10375(5)
N3_3 N 0.1356(4) 0.48138(16) 0.13645(18)
C3_3 C 0.1652(5) 0.41196(18) 0.2453(2)
C4_3 C 0.1955(6) 0.3964(2) 0.3657(2)
H9_3 H 0.1920 0.4342 0.3722
C5_3 C 0.1832(4) 0.37540(18) 0.3037(2)
C6_3 C 0.1425(8) 0.3919(2) 0.1829(3)
H10_3 H 0.1359 0.3541 0.1760
C7_3 C 0.1698(9) 0.4685(2) 0.2511(3)
H11_3 H 0.1841 0.4847 0.2922
C8_3 C 0.1294(8) 0.4273(2) 0.1301(3)
H12_3 H 0.1155 0.4125 0.0882
C9_3 C 0.2086(7) 0.2866(2) 0.3536(3)
H13_3 H 0.2127 0.2486 0.3483
C10_3 C 0.1531(9) 0.5008(2) 0.1959(3)
H14_3 H 0.1545 0.5388 0.2013
C11_3 C 0.2131(6) 0.3609(2) 0.4186(2)
H15_3 H 0.2210 0.3762 0.4602
C12_3 C 0.1917(8) 0.3192(2) 0.2984(2)
H16_3 H 0.1860 0.3030 0.2574
O5_3 O 0.2724(3) 0.68114(13) 0.06293(16)
O6_3 O 0.1722(4) 0.60475(16) 0.0995(2)
O7_3 O 0.3749(4) 0.59545(18) 0.0801(3)
O8_3 O 0.3283(5) 0.6485(2) 0.17106(19)
N4_3 N 0.0630(3) 0.75014(14) 0.00373(18)
C16_3 C 0.0027(4) 0.70364(19) 0.0081(3)
H20_3 H 0.0450 0.6707 0.0128
C13_3 C 0.0004(4) 0.79672(19) 0.9987(3)
H17_3 H 0.0408 0.8298 0.9962
S3_3 S 0.16018(10) 0.46079(4) 0.95453(5)
O9_3 O 0.0466(3) 0.44204(15) 0.97592(18)
O10_3 O 0.2525(4) 0.42150(17) 0.9780(2)
O11_3 O 0.1910(4) 0.51499(15) 0.98750(18)
O12_3 O 0.1430(5) 0.46886(17) 0.8850(2)
N9_2 N 0.2194(3) 0.69347(14) 0.91385(16)
N10_2 N 0.4370(3) 0.74986(14) 0.99627(18)
S1_3 S 0.83982(10) 0.53921(4) 0.04547(5)
O1_3 O 0.9534(3) 0.55796(15) 0.02408(18)
O2_3 O 0.7475(4) 0.57850(17) 0.0220(2)
O3_3 O 0.8090(4) 0.48501(15) 0.01250(18)
O4_3 O 0.8570(5) 0.53114(17) 0.1150(2)
C15_3 C 0.8810(4) 0.7017(2) 0.0060(3)
H19_3 H 0.8429 0.6680 0.0080
C17_3 C 0.8155(4) 0.75012(17) 0.0008(2)
C18_3 C 0.4996(4) 0.70328(19) 0.0013(3)
H21_3 H 0.4592 0.6702 0.0038
C19_3 C 0.6216(4) 0.70152(19) 0.0031(3)
H22_3 H 0.6613 0.6679 0.0068
C14_3 C 0.8784(4) 0.79848(19) 0.9969(3)
H18_3 H 0.8387 0.8321 0.9932
C20_3 C 0.6190(4) 0.7983(2) 0.9940(3)
H23_3 H 0.6571 0.8320 0.9920
C21_3 C 0.4973(4) 0.79636(19) 0.9919(3)
H24_3 H 0.4550 0.8293 0.9872
C22_3 C 0.6845(4) 0.74988(17) 0.9992(2)
Zn3_3 Zn 0.88564(5) 0.464268(19) 0.93854(2)
S4_3 S 0.70985(10) 0.36791(4) 0.89625(5)
N6_2 N 0.7806(3) 0.69347(14) 0.58615(16)
N7_3 N 0.8644(4) 0.51862(16) 0.86355(18)
C23_3 C 0.8348(5) 0.58804(18) 0.7547(2)
C24_3 C 0.8045(6) 0.6036(2) 0.6343(2)
H25_3 H 0.8080 0.5658 0.6278
C25_3 C 0.8168(4) 0.62460(18) 0.6963(2)
C26_3 C 0.8575(8) 0.6081(2) 0.8171(3)
H26_3 H 0.8641 0.6459 0.8240
C27_3 C 0.8302(9) 0.5315(2) 0.7489(3)
H27_3 H 0.8159 0.5153 0.7078
C28_3 C 0.8706(8) 0.5727(2) 0.8699(3)
H28_3 H 0.8845 0.5875 0.9118
C29_3 C 0.7914(7) 0.7134(2) 0.6464(3)
H29_3 H 0.7873 0.7514 0.6517
C30_3 C 0.8469(9) 0.4992(2) 0.8041(3)
H30_3 H 0.8455 0.4612 0.7987
C31_3 C 0.7869(6) 0.6391(2) 0.5814(2)
H31_3 H 0.7790 0.6238 0.5398
C32_3 C 0.8083(8) 0.6808(2) 0.7016(2)
H32_3 H 0.8140 0.6970 0.7426
O14_3 O 0.8278(4) 0.39525(16) 0.9005(2)
O15_3 O 0.6251(4) 0.40455(18) 0.9199(3)
O16_3 O 0.6717(5) 0.3515(2) 0.82894(19)
S1_4 S 0.16018(10) 0.53921(4) 0.45453(5)
O1_4 O 0.0466(3) 0.55796(15) 0.47592(18)
O2_4 O 0.2525(4) 0.57850(17) 0.4780(2)
O3_4 O 0.1910(4) 0.48501(15) 0.48750(18)
O4_4 O 0.1430(5) 0.53114(17) 0.3850(2)
C14_4 C 0.1216(4) 0.79848(19) 0.5031(3)
H18_4 H 0.1613 0.8321 0.5068
C15_4 C 0.1190(4) 0.7017(2) 0.4940(3)
H19_4 H 0.1571 0.6680 0.4920
C17_4 C 0.1845(4) 0.75012(17) 0.4992(2)
N5_2 N 0.5630(3) 0.74986(14) 0.50373(18)
C18_4 C 0.5004(4) 0.70328(19) 0.4987(3)
H21_4 H 0.5408 0.6702 0.4962
C19_4 C 0.3784(4) 0.70152(19) 0.4969(3)
H22_4 H 0.3387 0.6679 0.4932
C20_4 C 0.3810(4) 0.7983(2) 0.5060(3)
H23_4 H 0.3429 0.8320 0.5080
C21_4 C 0.5027(4) 0.79636(19) 0.5081(3)
H24_4 H 0.5450 0.8293 0.5128
C22_4 C 0.3155(4) 0.74988(17) 0.5008(2)
Zn3_4 Zn 0.11436(5) 0.464268(19) 0.56146(2)
S4_4 S 0.29015(10) 0.36791(4) 0.60375(5)
N7_4 N 0.1356(4) 0.51862(16) 0.63645(18)
C23_4 C 0.1652(5) 0.58804(18) 0.7453(2)
C24_4 C 0.1955(6) 0.6036(2) 0.8657(2)
H25_4 H 0.1920 0.5658 0.8722
C25_4 C 0.1832(4) 0.62460(18) 0.8037(2)
C26_4 C 0.1425(8) 0.6081(2) 0.6829(3)
H26_4 H 0.1359 0.6459 0.6760
C27_4 C 0.1698(9) 0.5315(2) 0.7511(3)
H27_4 H 0.1841 0.5153 0.7922
C28_4 C 0.1294(8) 0.5727(2) 0.6301(3)
H28_4 H 0.1155 0.5875 0.5882
C29_4 C 0.2086(7) 0.7134(2) 0.8536(3)
H29_4 H 0.2127 0.7514 0.8483
C30_4 C 0.1531(9) 0.4992(2) 0.6959(3)
H30_4 H 0.1545 0.4612 0.7013
C31_4 C 0.2131(6) 0.6391(2) 0.9186(2)
H31_4 H 0.2210 0.6238 0.9602
C32_4 C 0.1917(8) 0.6808(2) 0.7984(2)
H32_4 H 0.1860 0.6970 0.7574
O14_4 O 0.1722(4) 0.39525(16) 0.5995(2)
O15_4 O 0.3749(4) 0.40455(18) 0.5801(3)
O16_4 O 0.3283(5) 0.3515(2) 0.67106(19)
Zn2_4 Zn 0.88564(5) 0.535732(19) 0.43854(2)
S2_4 S 0.70985(10) 0.63209(4) 0.39625(5)
N3_4 N 0.8644(4) 0.48138(16) 0.36355(18)
C3_4 C 0.8348(5) 0.41196(18) 0.2547(2)
C4_4 C 0.8045(6) 0.3964(2) 0.1343(2)
H9_4 H 0.8080 0.4342 0.1278
C5_4 C 0.8168(4) 0.37540(18) 0.1963(2)
C6_4 C 0.8575(8) 0.3919(2) 0.3171(3)
H10_4 H 0.8641 0.3541 0.3240
C7_4 C 0.8302(9) 0.4685(2) 0.2489(3)
H11_4 H 0.8159 0.4847 0.2078
C8_4 C 0.8706(8) 0.4273(2) 0.3699(3)
H12_4 H 0.8845 0.4125 0.4118
C9_4 C 0.7914(7) 0.2866(2) 0.1464(3)
H13_4 H 0.7873 0.2486 0.1517
C10_4 C 0.8469(9) 0.5008(2) 0.3041(3)
H14_4 H 0.8455 0.5388 0.2987
C11_4 C 0.7869(6) 0.3609(2) 0.0814(2)
H15_4 H 0.7790 0.3762 0.0398
C12_4 C 0.8083(8) 0.3192(2) 0.2016(2)
H16_4 H 0.8140 0.3030 0.2426
O5_4 O 0.7276(3) 0.68114(13) 0.43707(16)
O6_4 O 0.8278(4) 0.60475(16) 0.4005(2)
O7_4 O 0.6251(4) 0.59545(18) 0.4199(3)
O8_4 O 0.6717(5) 0.6485(2) 0.32894(19)
N4_4 N 0.9370(3) 0.75014(14) 0.49627(18)
C13_4 C 0.9996(4) 0.79672(19) 0.5013(3)
H17_4 H 0.9592 0.8298 0.5038
C16_4 C 0.9973(4) 0.70364(19) 0.4919(3)
H20_4 H 0.9550 0.6707 0.4872
S3_4 S 0.83982(10) 0.46079(4) 0.54547(5)
O9_4 O 0.9534(3) 0.44204(15) 0.52408(18)
O10_4 O 0.7475(4) 0.42150(17) 0.5220(2)
O11_4 O 0.8090(4) 0.51499(15) 0.51250(18)
O12_4 O 0.8570(5) 0.46886(17) 0.6150(2)
loop_
_geom_bond_atom_site_label_1
_geom_bond_atom_site_label_2
_geom_bond_site_symmetry_1
_geom_bond_site_symmetry_2
C1 H1 1_555 1_555
H2 C1 1_555 1_555
H3 C1 1_555 1_555
N1 C1 1_555 1_555
H4 N1 1_555 1_555
H5 N1 1_555 1_555
C2 N1 1_555 1_555
H6 C2 1_555 1_555
H7 C2 1_555 1_555
H8 C2 1_555 1_555
C1_2 H1_2 1_555 1_555
H2_2 C1_2 1_555 1_555
H3_2 C1_2 1_555 1_555
N1_2 C1_2 1_555 1_555
H4_2 N1_2 1_555 1_555
H5_2 N1_2 1_555 1_555
C2_2 N1_2 1_555 1_555
H6_2 C2_2 1_555 1_555
H7_2 C2_2 1_555 1_555
H8_2 C2_2 1_555 1_555
C1_3 H1_3 1_555 1_555
H2_3 C1_3 1_555 1_555
H3_3 C1_3 1_555 1_555
N1_3 C1_3 1_555 1_555
H4_3 N1_3 1_555 1_555
H5_3 N1_3 1_555 1_555
C2_3 N1_3 1_555 1_555
H6_3 C2_3 1_555 1_555
H7_3 C2_3 1_555 1_555
H8_3 C2_3 1_555 1_555
C1_4 H1_4 1_555 1_555
H2_4 C1_4 1_555 1_555
H3_4 C1_4 1_555 1_555
N1_4 C1_4 1_555 1_555
H4_4 N1_4 1_555 1_555
H5_4 N1_4 1_555 1_555
C2_4 N1_4 1_555 1_555
H6_4 C2_4 1_555 1_555
H7_4 C2_4 1_555 1_555
H8_4 C2_4 1_555 1_555
C1_5 H1_5 1_555 1_555
H2_5 C1_5 1_555 1_555
H3_5 C1_5 1_555 1_555
N1_5 C1_5 1_555 1_555
H4_5 N1_5 1_555 1_555
H5_5 N1_5 1_555 1_555
C2_5 N1_5 1_555 1_555
H6_5 C2_5 1_555 1_555
H7_5 C2_5 1_555 1_555
H8_5 C2_5 1_555 1_555
C1_6 H1_6 1_555 1_555
H2_6 C1_6 1_555 1_555
H3_6 C1_6 1_555 1_555
N1_6 C1_6 1_555 1_555
H4_6 N1_6 1_555 1_555
H5_6 N1_6 1_555 1_555
C2_6 N1_6 1_555 1_555
H6_6 C2_6 1_555 1_555
H7_6 C2_6 1_555 1_555
H8_6 C2_6 1_555 1_555
C1_7 H1_7 1_555 1_555
H2_7 C1_7 1_555 1_555
H3_7 C1_7 1_555 1_555
N1_7 C1_7 1_555 1_555
H4_7 N1_7 1_555 1_555
H5_7 N1_7 1_555 1_555
C2_7 N1_7 1_555 1_555
H6_7 C2_7 1_555 1_555
H7_7 C2_7 1_555 1_555
H8_7 C2_7 1_555 1_555
C1_8 H1_8 1_555 1_555
H2_8 C1_8 1_555 1_555
H3_8 C1_8 1_555 1_555
N1_8 C1_8 1_555 1_555
H4_8 N1_8 1_555 1_555
H5_8 N1_8 1_555 1_555
C2_8 N1_8 1_555 1_555
H6_8 C2_8 1_555 1_555
H7_8 C2_8 1_555 1_555
H8_8 C2_8 1_555 1_555
Zn1 O5 1_555 1_555
S1 O1 1_555 1_555
S2 O5 1_555 1_555
H14 C10 1_555 1_555
O1 Zn2 1_555 1_555
O2 S1 1_555 1_555
O4 S1 1_555 1_555
O6 Zn2 1_555 1_555
O7 S2 1_555 1_555
O8 S2 1_555 1_555
N4 Zn1 1_555 1_555
C15 H19 1_555 1_555
C16 N4 1_555 1_555
H20 C16 1_555 1_555
H22 C19 1_555 1_555
N8 Zn1 1_555 1_555
S2 O6 1_555 1_555
C15 C16 1_555 1_555
C15 C17 1_555 1_555
H17 C13 1_555 1_555
C14 C13 1_555 1_555
H18 C14 1_555 1_555
C20 H23 1_555 1_555
N6 C29 1_555 1_555
C23 C25 1_555 1_555
C24 H25 1_555 1_555
C25 C24 1_555 1_555
C26 C23 1_555 1_555
H26 C26 1_555 1_555
C27 C23 1_555 1_555
H27 C27 1_555 1_555
C28 N7 1_555 1_555
H28 C28 1_555 1_555
C29 H29 1_555 1_555
C31 N6 1_555 1_555
H31 C31 1_555 1_555
C32 C25 1_555 1_555
H32 C32 1_555 1_555
Zn5 N6 1_555 1_555
N9 Zn1_2 1_555 1_555
O17 Zn1_2 1_555 1_555
N10 Zn1_2 1_555 1_555
C20 C22 1_555 1_555
C24 C31 1_555 1_555
C26 C28 1_555 1_555
C29 C32 1_555 1_555
N2 C9 1_555 1_555
N3 C8 1_555 1_555
C3 C5 1_555 1_555
C4 H9 1_555 1_555
C5 C4 1_555 1_555
C6 C3 1_555 1_555
H10 C6 1_555 1_555
C7 C3 1_555 1_555
H11 C7 1_555 1_555
C8 C6 1_555 1_555
H12 C8 1_555 1_555
C9 H13 1_555 1_555
C11 N2 1_555 1_555
H15 C11 1_555 1_555
C12 C5 1_555 1_555
H16 C12 1_555 1_555
Zn7 N2 1_555 1_555
C4 C11 1_555 1_555
C9 C12 1_555 1_555
S3 O9 1_555 1_555
S4 O13 1_555 1_555
H30 C30 1_555 1_555
O9 Zn3 1_555 1_555
O10 S3 1_555 1_555
O12 S3 1_555 1_555
O13 Zn6_2 1_555 1_555
O14 Zn3 1_555 1_555
O15 S4 1_555 1_555
O16 S4 1_555 1_555
S4 O14 1_555 1_555
C18 H21 1_555 1_555
C21 N10 1_555 1_555
H24 C21 1_555 1_555
N5 C18_2 1_555 1_555
C18_2 H21_2 1_555 1_555
C21_2 N5 1_555 1_555
H24_2 C21_2 1_555 1_555
Zn5 N5 1_555 1_555
Zn5 O5_2 1_555 1_555
S1_2 O1_2 1_555 1_555
S2_2 O5_2 1_555 1_555
H14_2 C10_2 1_555 1_555
O1_2 Zn2_2 1_555 1_555
O2_2 S1_2 1_555 1_555
O4_2 S1_2 1_555 1_555
O6_2 Zn2_2 1_555 1_555
O7_2 S2_2 1_555 1_555
O8_2 S2_2 1_555 1_555
N4_2 Zn5 1_555 1_555
C13_2 N4_2 1_555 1_555
H17_2 C13_2 1_555 1_555
C14_2 C13_2 1_555 1_555
H18_2 C14_2 1_555 1_555
C15_2 H19_2 1_555 1_555
C16_2 N4_2 1_555 1_555
H20_2 C16_2 1_555 1_555
C17_2 C14_2 1_555 1_555
H22_2 C19_2 1_555 1_555
C20_2 H23_2 1_555 1_555
C22_2 C17_2 1_555 1_555
N9 C29_2 1_555 1_555
C23_2 C25_2 1_555 1_555
C24_2 H25_2 1_555 1_555
C25_2 C24_2 1_555 1_555
C26_2 C23_2 1_555 1_555
H26_2 C26_2 1_555 1_555
C27_2 C23_2 1_555 1_555
H27_2 C27_2 1_555 1_555
C28_2 N7_2 1_555 1_555
H28_2 C28_2 1_555 1_555
C29_2 H29_2 1_555 1_555
C31_2 N9 1_555 1_555
H31_2 C31_2 1_555 1_555
C32_2 C25_2 1_555 1_555
H32_2 C32_2 1_555 1_555
O11_2 Zn2_2 1_555 1_555
N8_2 Zn5 1_555 1_555
O17_2 Zn5 1_555 1_555
S2_2 O6_2 1_555 1_555
C15_2 C16_2 1_555 1_555
C15_2 C17_2 1_555 1_555
C19_2 C22_2 1_555 1_555
C20_2 C22_2 1_555 1_555
C24_2 C31_2 1_555 1_555
C26_2 C28_2 1_555 1_555
C29_2 C32_2 1_555 1_555
N2_2 C9_2 1_555 1_555
N3_2 C8_2 1_555 1_555
C3_2 C5_2 1_555 1_555
C4_2 H9_2 1_555 1_555
C5_2 C4_2 1_555 1_555
C6_2 C3_2 1_555 1_555
H10_2 C6_2 1_555 1_555
C7_2 C3_2 1_555 1_555
H11_2 C7_2 1_555 1_555
C8_2 C6_2 1_555 1_555
H12_2 C8_2 1_555 1_555
C9_2 H13_2 1_555 1_555
C11_2 N2_2 1_555 1_555
H15_2 C11_2 1_555 1_555
C12_2 C5_2 1_555 1_555
H16_2 C12_2 1_555 1_555
Zn3_2 O3_2 1_555 1_555
S3_2 O9_2 1_555 1_555
S4_2 O13_2 1_555 1_555
H30_2 C30_2 1_555 1_555
O9_2 Zn3_2 1_555 1_555
O10_2 S3_2 1_555 1_555
O12_2 S3_2 1_555 1_555
O13_2 Zn7 1_555 1_555
O14_2 Zn3_2 1_555 1_555
O15_2 S4_2 1_555 1_555
O16_2 S4_2 1_555 1_555
Zn6 N2_2 1_555 1_555
C4_2 C11_2 1_555 1_555
C9_2 C12_2 1_555 1_555
S4_2 O14_2 1_555 1_555
Zn6 O5_3 1_555 1_555
Zn2_3 N3_3 1_555 1_555
S2_3 O5_3 1_555 1_555
N8_2 C9_3 1_555 1_555
N3_3 C8_3 1_555 1_555
C3_3 C5_3 1_555 1_555
C4_3 H9_3 1_555 1_555
C5_3 C4_3 1_555 1_555
C6_3 C3_3 1_555 1_555
H10_3 C6_3 1_555 1_555
C7_3 C3_3 1_555 1_555
H11_3 C7_3 1_555 1_555
C8_3 C6_3 1_555 1_555
H12_3 C8_3 1_555 1_555
C9_3 H13_3 1_555 1_555
C10_3 N3_3 1_555 1_555
H14_3 C10_3 1_555 1_555
C11_3 N8_2 1_555 1_555
H15_3 C11_3 1_555 1_555
C12_3 C5_3 1_555 1_555
H16_3 C12_3 1_555 1_555
O6_3 Zn2_3 1_555 1_555
O7_3 S2_3 1_555 1_555
O8_3 S2_3 1_555 1_555
N4_3 Zn6 1_555 1_555
C16_3 N4_3 1_555 1_555
H20_3 C16_3 1_555 1_555
S2_3 O6_3 1_555 1_555
C4_3 C11_3 1_555 1_555
C7_3 C10_3 1_555 1_555
C9_3 C12_3 1_555 1_555
H17_3 C13_3 1_555 1_555
S3_3 O9_3 1_555 1_555
O10_3 S3_3 1_555 1_555
O12_3 S3_3 1_555 1_555
N9_2 Zn6_2 1_555 1_555
N10_2 Zn6_2 1_555 1_555
S3_3 O11_3 1_555 1_555
S1_3 O1_3 1_555 1_555
O2_3 S1_3 1_555 1_555
O3_3 S1_3 1_555 1_555
O4_3 S1_3 1_555 1_555
C15_3 H19_3 1_555 1_555
C18_3 H21_3 1_555 1_555
C19_3 C18_3 1_555 1_555
H22_3 C19_3 1_555 1_555
C15_3 C17_3 1_555 1_555
H18_3 C14_3 1_555 1_555
C20_3 H23_3 1_555 1_555
C21_3 N10_2 1_555 1_555
H24_3 C21_3 1_555 1_555
S4_3 O17 1_555 1_555
N6_2 C29_3 1_555 1_555
N7_3 Zn3_3 1_555 1_555
C23_3 C25_3 1_555 1_555
C24_3 H25_3 1_555 1_555
C25_3 C24_3 1_555 1_555
C26_3 C23_3 1_555 1_555
H26_3 C26_3 1_555 1_555
C27_3 C23_3 1_555 1_555
H27_3 C27_3 1_555 1_555
C28_3 N7_3 1_555 1_555
H28_3 C28_3 1_555 1_555
C29_3 H29_3 1_555 1_555
C30_3 N7_3 1_555 1_555
H30_3 C30_3 1_555 1_555
C31_3 N6_2 1_555 1_555
H31_3 C31_3 1_555 1_555
C32_3 C25_3 1_555 1_555
H32_3 C32_3 1_555 1_555
O14_3 Zn3_3 1_555 1_555
O15_3 S4_3 1_555 1_555
O16_3 S4_3 1_555 1_555
Zn7 N6_2 1_555 1_555
C20_3 C21_3 1_555 1_555
C20_3 C22_3 1_555 1_555
S4_3 O14_3 1_555 1_555
C24_3 C31_3 1_555 1_555
C26_3 C28_3 1_555 1_555
C27_3 C30_3 1_555 1_555
C29_3 C32_3 1_555 1_555
S1_4 O1_4 1_555 1_555
O2_4 S1_4 1_555 1_555
O3_4 S1_4 1_555 1_555
O4_4 S1_4 1_555 1_555
H18_4 C14_4 1_555 1_555
C15_4 H19_4 1_555 1_555
C17_4 C14_4 1_555 1_555
N5_2 C18_4 1_555 1_555
C18_4 H21_4 1_555 1_555
C19_4 C18_4 1_555 1_555
H22_4 C19_4 1_555 1_555
C20_4 H23_4 1_555 1_555
C21_4 N5_2 1_555 1_555
H24_4 C21_4 1_555 1_555
C22_4 C17_4 1_555 1_555
Zn3_4 O3_4 1_555 1_555
S4_4 O17_2 1_555 1_555
N9_2 C29_4 1_555 1_555
N7_4 Zn3_4 1_555 1_555
C23_4 C25_4 1_555 1_555
C24_4 H25_4 1_555 1_555
C25_4 C24_4 1_555 1_555
C26_4 C23_4 1_555 1_555
H26_4 C26_4 1_555 1_555
C27_4 C23_4 1_555 1_555
H27_4 C27_4 1_555 1_555
C28_4 N7_4 1_555 1_555
H28_4 C28_4 1_555 1_555
C29_4 H29_4 1_555 1_555
C30_4 N7_4 1_555 1_555
H30_4 C30_4 1_555 1_555
C31_4 N9_2 1_555 1_555
H31_4 C31_4 1_555 1_555
C32_4 C25_4 1_555 1_555
H32_4 C32_4 1_555 1_555
O14_4 Zn3_4 1_555 1_555
O15_4 S4_4 1_555 1_555
O16_4 S4_4 1_555 1_555
Zn7 N5_2 1_555 1_555
C15_4 C17_4 1_555 1_555
C19_4 C22_4 1_555 1_555
C20_4 C21_4 1_555 1_555
C20_4 C22_4 1_555 1_555
S4_4 O14_4 1_555 1_555
C24_4 C31_4 1_555 1_555
C26_4 C28_4 1_555 1_555
C27_4 C30_4 1_555 1_555
C29_4 C32_4 1_555 1_555
Zn7 O5_4 1_555 1_555
Zn2_4 N3_4 1_555 1_555
S2_4 O5_4 1_555 1_555
N8 C9_4 1_555 1_555
N3_4 C8_4 1_555 1_555
C3_4 C5_4 1_555 1_555
C4_4 H9_4 1_555 1_555
C5_4 C4_4 1_555 1_555
C6_4 C3_4 1_555 1_555
H10_4 C6_4 1_555 1_555
C7_4 C3_4 1_555 1_555
H11_4 C7_4 1_555 1_555
C8_4 C6_4 1_555 1_555
H12_4 C8_4 1_555 1_555
C9_4 H13_4 1_555 1_555
C10_4 N3_4 1_555 1_555
H14_4 C10_4 1_555 1_555
C11_4 N8 1_555 1_555
H15_4 C11_4 1_555 1_555
C12_4 C5_4 1_555 1_555
H16_4 C12_4 1_555 1_555
O6_4 Zn2_4 1_555 1_555
O7_4 S2_4 1_555 1_555
O8_4 S2_4 1_555 1_555
N4_4 Zn7 1_555 1_555
C13_4 N4_4 1_555 1_555
H17_4 C13_4 1_555 1_555
C16_4 N4_4 1_555 1_555
H20_4 C16_4 1_555 1_555
S3_4 O9_4 1_555 1_555
O10_4 S3_4 1_555 1_555
O11_4 Zn2_4 1_555 1_555
O12_4 S3_4 1_555 1_555
S2_4 O6_4 1_555 1_555
C4_4 C11_4 1_555 1_555
C7_4 C10_4 1_555 1_555
C9_4 C12_4 1_555 1_555
S3_4 O11_4 1_555 1_555

#END
