
###############################################################################
#
# This file contains modified crystal structure data generated from the
# MOF subset of the Cambridge Structural Database (CSD) v543 
# hosted by the Cambridge Crystallographic Data Centre (CCDC).
#
# This work is licensed under the Creative Commons
# Attribution-NonCommercial-ShareAlike 4.0 International License.
# To view a copy of this license, visit
# http://creativecommons.org/licenses/by-nc-sa/4.0/
# or send a letter to
# Creative Commons, PO Box 1866, Mountain View, CA 94042, USA.
#
# CIF created using the CSD Python API on 29 September 2022
# The structure has been converted into the P1 space group
# The structure has a 3D framework
# The original CSD entry KUPTIA is in the rhombohedral crystal system
# The framework has been calculated to contain at least 10.0% void space
# The void calculation uses a probe of radius 1.32A, grid spacing 0.4
#
###############################################################################

data_KUPTIA
_chemical_formula_moiety         '(C396 H252 Cu36 I9 N72 O72)n'
_symmetry_cell_setting           triclinic
_symmetry_space_group_name_H-M   'P 1'
_symmetry_Int_Tables_number      1
_space_group_name_Hall           'P 1'
loop_
_symmetry_equiv_pos_site_id
_symmetry_equiv_pos_as_xyz
1 x,y,z
_cell_length_a                   40.979(4)
_cell_length_b                   40.979(4)
_cell_length_c                   16.064(3)
_cell_angle_alpha                90
_cell_angle_beta                 90
_cell_angle_gamma                120
_cell_volume                     23361.8
loop_
_atom_site_label
_atom_site_type_symbol
_atom_site_fract_x
_atom_site_fract_y
_atom_site_fract_z
O3 O 0.31127(12) 0.10889(9) 0.2106(2)
O4 O 0.29133(11) 0.11628(9) 0.0862(2)
C18 C 0.28567(17) 0.03379(14) 0.1752(4)
H12 H 0.3062 0.0459 0.2108
C19 C 0.27353(16) 0.05481(14) 0.1327(3)
C20 C 0.24324(19) 0.03636(16) 0.0781(4)
H13 H 0.2351 0.0501 0.0471
C22 C 0.29330(16) 0.09665(14) 0.1444(3)
Cu5 Cu 0.344614(17) 0.161927(23) 0.24004(4)
Cu6 Cu 0.516021(16) 0.011281(17) 0.42663(4)
Cu7 Cu 0.322052(17) 0.171407(23) 0.09330(4)
O5 O 0.53074(10) 0.03178(11) 0.6169(2)
O6 O 0.46429(15) 0.02206(12) 0.5439(2)
I1 I 0.126210(12) 0.779869(11) 0.26133(2)
Cu1 Cu 0.19102(2) 0.842494(19) 0.27333(4)
Cu2 Cu 0.483979(16) 0.988719(17) 0.57337(4)
O1 O 0.44233(10) 0.94954(12) 0.5091(2)
O2 O 0.46926(10) 0.96822(11) 0.3831(2)
N1 N 0.23389(15) 0.83031(17) 0.2603(4)
N2 N 0.25719(15) 0.79373(17) 0.1978(4)
N3 N 0.19484(13) 0.87496(11) 0.1709(3)
N4 N 0.18623(11) 0.87873(11) 0.0264(2)
C1 C 0.23098(19) 0.8017(2) 0.2172(5)
H1 H 0.2069 0.7848 0.1978
C2 C 0.26867(18) 0.85342(18) 0.2911(4)
H2 H 0.2726 0.8743 0.3218
C3 C 0.29840(18) 0.8476(2) 0.2795(4)
C4 C 0.29107(19) 0.8172(2) 0.2288(5)
H3 H 0.3108 0.8131 0.2160
C5 C 0.33565(18) 0.87285(19) 0.3164(4)
C6 C 0.33761(18) 0.8858(2) 0.3959(4)
H4 H 0.3154 0.8789 0.4247
C7 C 0.37199(17) 0.9091(2) 0.4347(4)
H5 H 0.3727 0.9168 0.4895
C8 C 0.40495(19) 0.9207(2) 0.3910(5)
C9 C 0.40324(17) 0.9087(2) 0.3102(4)
H6 H 0.4254 0.9172 0.2798
C10 C 0.3691(2) 0.8841(3) 0.2736(4)
H7 H 0.3685 0.8750 0.2203
C11 C 0.4421(2) 0.9483(2) 0.4304(5)
C12 C 0.18196(14) 0.85952(13) 0.0952(3)
H8 H 0.1691 0.8334 0.0914
C13 C 0.21276(17) 0.91280(14) 0.1743(3)
H9 H 0.2222 0.9245 0.2253
C14 C 0.21780(15) 0.93526(13) 0.1056(3)
C15 C 0.20406(15) 0.91627(14) 0.0315(3)
C16 C 0.23688(16) 0.97665(13) 0.1139(3)
C17 C 0.26805(18) 0.99524(15) 0.1663(4)
H11 H 0.2769 0.9816 0.1953
C21 C 0.22514(19) 0.99750(16) 0.0701(4)
H14 H 0.2047 0.9854 0.0343
I2 I 0.207123(12) 0.886798(11) 0.40534(2)
Cu3 Cu 0.14231(2) 0.824173(19) 0.39334(4)
O7 O 0.50838(14) 0.95800(11) 0.5805(2)
N5 N 0.45460(11) 0.97417(16) 0.6931(2)
H10 H 0.2073 0.9301 0.9832
Cu4 Cu 0.171407(23) 0.849354(16) 0.90670(4)
I1_2 I 0.220131(11) 0.346341(16) 0.26133(2)
Cu1_2 Cu 0.157506(19) 0.348526(28) 0.27333(4)
Cu2_2 Cu 0.011281(17) 0.495260(23) 0.57337(4)
O1_2 O 0.05046(12) 0.49279(16) 0.5091(2)
O2_2 O 0.03178(11) 0.50104(15) 0.3831(2)
N1_2 N 0.16969(17) 0.40358(23) 0.2603(4)
N2_2 N 0.20627(17) 0.46346(23) 0.1978(4)
N3_2 N 0.12504(11) 0.31988(17) 0.1709(3)
N4_2 N 0.12127(11) 0.30750(16) 0.0264(2)
C1_2 C 0.1983(2) 0.42928(28) 0.2172(5)
H1_2 H 0.2152 0.4221 0.1978
C2_2 C 0.14658(18) 0.41525(25) 0.2911(4)
H2_2 H 0.1257 0.3983 0.3218
C3_2 C 0.1524(2) 0.45080(27) 0.2795(4)
C4_2 C 0.1828(2) 0.47387(28) 0.2288(5)
H3_2 H 0.1869 0.4977 0.2160
C5_2 C 0.12715(19) 0.46280(26) 0.3164(4)
C6_2 C 0.1142(2) 0.45181(27) 0.3959(4)
H4_2 H 0.1211 0.4365 0.4247
C7_2 C 0.0909(2) 0.46289(26) 0.4347(4)
H5_2 H 0.0832 0.4559 0.4895
C8_2 C 0.0793(2) 0.48425(28) 0.3910(5)
C9_2 C 0.0913(2) 0.49454(26) 0.3102(4)
H6_2 H 0.0828 0.5082 0.2798
C10_2 C 0.1159(3) 0.4850(4) 0.2736(4)
H7_2 H 0.1250 0.4935 0.2203
C11_2 C 0.0517(2) 0.4938(3) 0.4304(5)
C12_2 C 0.14048(13) 0.32244(19) 0.0952(3)
H8_2 H 0.1666 0.3357 0.0914
C13_2 C 0.08720(14) 0.29996(22) 0.1743(3)
H9_2 H 0.0755 0.2977 0.2253
C14_2 C 0.06474(13) 0.28254(20) 0.1056(3)
C15_2 C 0.08373(14) 0.28779(21) 0.0315(3)
C16_2 C 0.02335(13) 0.26023(21) 0.1139(3)
C17_2 C 0.00476(15) 0.27281(23) 0.1663(4)
H11_2 H 0.0184 0.2953 0.1953
C21_2 C 0.00250(16) 0.22764(25) 0.0701(4)
H14_2 H 0.0146 0.2193 0.0343
I2_2 I 0.113202(11) 0.320326(16) 0.40534(2)
Cu3_2 Cu 0.175827(19) 0.318141(28) 0.39334(4)
O7_2 O 0.04200(11) 0.55039(18) 0.5805(2)
N5_2 N 0.02583(16) 0.48044(19) 0.6931(2)
H10_2 H 0.0699 0.2772 0.9832
Cu4_2 Cu 0.150646(16) 0.322052(28) 0.90670(4)
O3_2 O 0.89111(9) 0.20238(15) 0.2106(2)
O4_2 O 0.88372(9) 0.17505(14) 0.0862(2)
C18_2 C 0.96621(14) 0.25188(22) 0.1752(4)
H12_2 H 0.9541 0.2603 0.2108
C19_2 C 0.94519(14) 0.21872(21) 0.1327(3)
C20_2 C 0.96364(16) 0.20688(25) 0.0781(4)
H13_2 H 0.9499 0.1850 0.0471
C22_2 C 0.90335(14) 0.19665(21) 0.1444(3)
Cu5_2 Cu 0.838073(23) 0.182688(29) 0.24004(4)
Cu6_2 Cu 0.988719(17) 0.504740(23) 0.42663(4)
Cu7_2 Cu 0.828593(23) 0.150646(29) 0.09330(4)
O5_2 O 0.96822(11) 0.49896(15) 0.6169(2)
O6_2 O 0.97794(12) 0.44222(19) 0.5439(2)
I1_3 I 0.653659(16) 0.873790(12) 0.26133(2)
Cu1_3 Cu 0.651474(28) 0.80898(2) 0.27333(4)
Cu2_3 Cu 0.504740(23) 0.516021(16) 0.57337(4)
O1_3 O 0.50721(16) 0.55767(10) 0.5091(2)
O2_3 O 0.49896(15) 0.53074(10) 0.3831(2)
O3_3 O 0.79762(15) 0.68873(12) 0.2106(2)
O4_3 O 0.82495(14) 0.70867(11) 0.0862(2)
N1_3 N 0.59642(23) 0.76611(15) 0.2603(4)
N2_3 N 0.53654(23) 0.74281(15) 0.1978(4)
N3_3 N 0.68012(17) 0.80516(13) 0.1709(3)
N4_3 N 0.69250(16) 0.81377(11) 0.0264(2)
C1_3 C 0.57072(28) 0.76902(19) 0.2172(5)
H1_3 H 0.5779 0.7931 0.1978
C2_3 C 0.58475(25) 0.73133(18) 0.2911(4)
H2_3 H 0.6017 0.7274 0.3218
C3_3 C 0.54920(27) 0.70160(18) 0.2795(4)
C4_3 C 0.52613(28) 0.70893(19) 0.2288(5)
H3_3 H 0.5023 0.6892 0.2160
C5_3 C 0.53720(26) 0.66435(18) 0.3164(4)
C6_3 C 0.54819(27) 0.66239(18) 0.3959(4)
H4_3 H 0.5635 0.6846 0.4247
C7_3 C 0.53711(26) 0.62801(17) 0.4347(4)
H5_3 H 0.5441 0.6273 0.4895
C8_3 C 0.51575(28) 0.59505(19) 0.3910(5)
C9_3 C 0.50546(26) 0.59676(17) 0.3102(4)
H6_3 H 0.4918 0.5746 0.2798
C10_3 C 0.5150(4) 0.6309(2) 0.2736(4)
H7_3 H 0.5065 0.6315 0.2203
C11_3 C 0.5062(3) 0.5579(2) 0.4304(5)
C12_3 C 0.67756(19) 0.81804(14) 0.0952(3)
H8_3 H 0.6643 0.8309 0.0914
C13_3 C 0.70004(22) 0.78724(17) 0.1743(3)
H9_3 H 0.7023 0.7778 0.2253
C14_3 C 0.71746(20) 0.78220(15) 0.1056(3)
C15_3 C 0.71221(21) 0.79594(15) 0.0315(3)
C16_3 C 0.73977(21) 0.76312(16) 0.1139(3)
C17_3 C 0.72719(23) 0.73195(18) 0.1663(4)
H11_3 H 0.7047 0.7231 0.1953
C18_3 C 0.74812(22) 0.71433(17) 0.1752(4)
H12_3 H 0.7397 0.6938 0.2108
C19_3 C 0.78128(21) 0.72647(16) 0.1327(3)
C20_3 C 0.79312(25) 0.75676(19) 0.0781(4)
H13_3 H 0.8150 0.7649 0.0471
C21_3 C 0.77236(25) 0.77486(19) 0.0701(4)
H14_3 H 0.7807 0.7953 0.0343
C22_3 C 0.80335(21) 0.70670(16) 0.1444(3)
I2_3 I 0.679674(16) 0.792877(12) 0.40534(2)
Cu3_3 Cu 0.681859(28) 0.85769(2) 0.39334(4)
Cu5_3 Cu 0.817312(29) 0.655386(17) 0.24004(4)
Cu6_3 Cu 0.495260(23) 0.483979(16) 0.42663(4)
Cu7_3 Cu 0.849354(29) 0.677948(17) 0.09330(4)
O5_3 O 0.50104(15) 0.46926(10) 0.6169(2)
O6_3 O 0.55778(19) 0.53571(15) 0.5439(2)
O7_3 O 0.44961(18) 0.49162(14) 0.5805(2)
N5_3 N 0.51956(19) 0.54540(11) 0.6931(2)
H10_3 H 0.7228 0.7927 0.9832
Cu4_3 Cu 0.677948(28) 0.828593(23) 0.90670(4)
O1_4 O 0.10900(10) 0.28287(12) 0.8424(2)
O2_4 O 0.13593(10) 0.30155(11) 0.7164(2)
C5_4 C 0.00232(18) 0.20618(19) 0.6497(4)
C6_4 C 0.00428(18) 0.2191(2) 0.7292(4)
C7_4 C 0.03866(17) 0.2424(2) 0.7680(4)
H5_4 H 0.0394 0.2501 0.8228
C8_4 C 0.07162(19) 0.2540(2) 0.7243(5)
C9_4 C 0.06991(17) 0.2420(2) 0.6435(4)
H6_4 H 0.0921 0.2505 0.6131
C10_4 C 0.0358(2) 0.2174(3) 0.6069(4)
H7_4 H 0.0352 0.2083 0.5536
C11_4 C 0.1088(2) 0.2816(2) 0.7637(5)
Cu6_4 Cu 0.182688(16) 0.344614(17) 0.75996(4)
O5_4 O 0.19741(10) 0.36511(11) 0.9502(2)
O6_4 O 0.13095(15) 0.35540(12) 0.8773(2)
O7_4 O 0.17505(14) 0.29133(11) 0.9138(2)
I1_4 I 0.792877(12) 0.113202(11) 0.59466(2)
Cu1_4 Cu 0.85769(2) 0.175827(19) 0.60666(4)
O4_4 O 0.95800(11) 0.44961(9) 0.4195(2)
N1_4 N 0.90056(15) 0.16364(17) 0.5936(4)
N2_4 N 0.92386(15) 0.12706(17) 0.5311(4)
N3_4 N 0.86151(13) 0.20829(11) 0.5042(3)
N4_4 N 0.85290(11) 0.21206(11) 0.3597(2)
C1_4 C 0.89765(19) 0.1350(2) 0.5505(5)
H1_4 H 0.8736 0.1181 0.5311
C2_4 C 0.93534(18) 0.18675(18) 0.6244(4)
H2_4 H 0.9393 0.2076 0.6551
C3_4 C 0.96507(18) 0.1809(2) 0.6128(4)
C4_4 C 0.95774(19) 0.1505(2) 0.5621(5)
H3_4 H 0.9775 0.1464 0.5493
H4_4 H 0.9821 0.2122 0.7580
C12_4 C 0.84863(14) 0.19285(13) 0.4285(3)
H8_4 H 0.8358 0.1667 0.4247
C13_4 C 0.87943(17) 0.24613(14) 0.5076(3)
H9_4 H 0.8889 0.2578 0.5586
C14_4 C 0.88447(15) 0.26859(13) 0.4389(3)
C15_4 C 0.87073(15) 0.24960(14) 0.3648(3)
H10_4 H 0.8740 0.2634 0.3165
C16_4 C 0.90355(16) 0.30998(13) 0.4472(3)
C17_4 C 0.93472(18) 0.32857(15) 0.4996(4)
H11_4 H 0.9436 0.3149 0.5286
C18_4 C 0.95234(17) 0.36712(14) 0.5085(4)
H12_4 H 0.9729 0.3792 0.5441
C19_4 C 0.94020(16) 0.38814(14) 0.4660(3)
C20_4 C 0.90991(19) 0.36969(16) 0.4114(4)
H13_4 H 0.9018 0.3834 0.3804
C21_4 C 0.89181(19) 0.33083(16) 0.4034(4)
H14_4 H 0.8714 0.3187 0.3676
C22_4 C 0.95997(16) 0.42998(14) 0.4777(3)
I2_4 I 0.873790(12) 0.220131(11) 0.73867(2)
Cu3_4 Cu 0.80898(2) 0.157506(19) 0.72667(4)
I1_5 I 0.886798(11) 0.679674(16) 0.59466(2)
Cu1_5 Cu 0.824173(19) 0.681859(28) 0.60666(4)
O1_5 O 0.71713(12) 0.82612(16) 0.8424(2)
O2_5 O 0.69845(11) 0.83437(15) 0.7164(2)
O4_5 O 0.55039(9) 0.50838(14) 0.4195(2)
N1_5 N 0.83636(17) 0.73691(23) 0.5936(4)
N2_5 N 0.87294(17) 0.79679(23) 0.5311(4)
N3_5 N 0.79171(11) 0.65321(17) 0.5042(3)
N4_5 N 0.78794(11) 0.64083(16) 0.3597(2)
C1_5 C 0.8650(2) 0.76261(28) 0.5505(5)
H1_5 H 0.8819 0.7554 0.5311
C2_5 C 0.81325(18) 0.74858(25) 0.6244(4)
H2_5 H 0.7924 0.7316 0.6551
C3_5 C 0.8191(2) 0.78413(27) 0.6128(4)
C4_5 C 0.8495(2) 0.80720(28) 0.5621(5)
H3_5 H 0.8536 0.8310 0.5493
C5_5 C 0.79382(19) 0.79613(26) 0.6497(4)
C6_5 C 0.7809(2) 0.78514(27) 0.7292(4)
H4_5 H 0.7878 0.7698 0.7580
C7_5 C 0.7576(2) 0.79622(26) 0.7680(4)
H5_5 H 0.7499 0.7892 0.8228
C8_5 C 0.7460(2) 0.81758(28) 0.7243(5)
C9_5 C 0.7580(2) 0.82787(26) 0.6435(4)
H6_5 H 0.7495 0.8415 0.6131
C10_5 C 0.7826(3) 0.8183(4) 0.6069(4)
H7_5 H 0.7917 0.8268 0.5536
C11_5 C 0.7184(2) 0.8271(3) 0.7637(5)
C12_5 C 0.80715(13) 0.65577(19) 0.4285(3)
H8_5 H 0.8333 0.6690 0.4247
C13_5 C 0.75387(14) 0.63329(22) 0.5076(3)
H9_5 H 0.7422 0.6310 0.5586
C14_5 C 0.73141(13) 0.61587(20) 0.4389(3)
C15_5 C 0.75040(14) 0.62112(21) 0.3648(3)
H10_5 H 0.7366 0.6105 0.3165
C16_5 C 0.69002(13) 0.59356(21) 0.4472(3)
C17_5 C 0.67143(15) 0.60614(23) 0.4996(4)
H11_5 H 0.6851 0.6286 0.5286
C18_5 C 0.63288(14) 0.58521(22) 0.5085(4)
H12_5 H 0.6208 0.5936 0.5441
C19_5 C 0.61186(14) 0.55205(21) 0.4660(3)
C20_5 C 0.63031(16) 0.54021(25) 0.4114(4)
H13_5 H 0.6166 0.5183 0.3804
C21_5 C 0.66917(16) 0.56097(25) 0.4034(4)
H14_5 H 0.6813 0.5526 0.3676
C22_5 C 0.57002(14) 0.52998(21) 0.4777(3)
I2_5 I 0.779869(11) 0.653659(16) 0.73867(2)
Cu3_5 Cu 0.842494(19) 0.651474(28) 0.72667(4)
Cu6_5 Cu 0.655386(17) 0.838073(23) 0.75996(4)
O5_5 O 0.63489(11) 0.83229(15) 0.9502(2)
O6_5 O 0.64460(12) 0.77556(19) 0.8773(2)
O7_5 O 0.70867(11) 0.88372(18) 0.9138(2)
I1_6 I 0.320326(16) 0.207123(12) 0.59466(2)
Cu1_6 Cu 0.318141(28) 0.14231(2) 0.60666(4)
O4_6 O 0.49162(14) 0.04200(11) 0.4195(2)
N1_6 N 0.26309(23) 0.09944(15) 0.5936(4)
N2_6 N 0.20321(23) 0.07614(15) 0.5311(4)
N3_6 N 0.34679(17) 0.13849(13) 0.5042(3)
N4_6 N 0.35917(16) 0.14710(11) 0.3597(2)
C1_6 C 0.23739(28) 0.10235(19) 0.5505(5)
H1_6 H 0.2446 0.1264 0.5311
C2_6 C 0.25142(25) 0.06466(18) 0.6244(4)
H2_6 H 0.2684 0.0607 0.6551
C3_6 C 0.21587(27) 0.03493(18) 0.6128(4)
C4_6 C 0.19280(28) 0.04226(19) 0.5621(5)
H3_6 H 0.1690 0.0225 0.5493
H4_6 H 0.2302 0.0179 0.7580
C12_6 C 0.34423(19) 0.15137(14) 0.4285(3)
H8_6 H 0.3310 0.1642 0.4247
C13_6 C 0.36671(22) 0.12057(17) 0.5076(3)
H9_6 H 0.3690 0.1111 0.5586
C14_6 C 0.38413(20) 0.11553(15) 0.4389(3)
C15_6 C 0.37888(21) 0.12927(15) 0.3648(3)
H10_6 H 0.3895 0.1260 0.3165
C16_6 C 0.40644(21) 0.09645(16) 0.4472(3)
C17_6 C 0.39386(23) 0.06528(18) 0.4996(4)
H11_6 H 0.3714 0.0564 0.5286
C18_6 C 0.41479(22) 0.04766(17) 0.5085(4)
H12_6 H 0.4064 0.0271 0.5441
C19_6 C 0.44795(21) 0.05980(16) 0.4660(3)
C20_6 C 0.45979(25) 0.09009(19) 0.4114(4)
H13_6 H 0.4817 0.0982 0.3804
C21_6 C 0.43903(25) 0.10819(19) 0.4034(4)
H14_6 H 0.4474 0.1286 0.3676
C22_6 C 0.47002(21) 0.04003(16) 0.4777(3)
I2_6 I 0.346341(16) 0.126210(12) 0.73867(2)
Cu3_6 Cu 0.348526(28) 0.19102(2) 0.72667(4)
O1_6 O 0.17388(16) 0.89100(10) 0.8424(2)
O2_6 O 0.16563(15) 0.86407(10) 0.7164(2)
C5_6 C 0.20387(26) 0.99768(18) 0.6497(4)
C6_6 C 0.21486(27) 0.99572(18) 0.7292(4)
C7_6 C 0.20378(26) 0.96134(17) 0.7680(4)
H5_6 H 0.2108 0.9606 0.8228
C8_6 C 0.18242(28) 0.92838(19) 0.7243(5)
C9_6 C 0.17213(26) 0.93009(17) 0.6435(4)
H6_6 H 0.1585 0.9079 0.6131
C10_6 C 0.1817(4) 0.9642(2) 0.6069(4)
H7_6 H 0.1732 0.9648 0.5536
C11_6 C 0.1729(3) 0.8912(2) 0.7637(5)
Cu6_6 Cu 0.161927(23) 0.817312(16) 0.75996(4)
O5_6 O 0.16771(15) 0.80259(10) 0.9502(2)
O6_6 O 0.22444(19) 0.86905(15) 0.8773(2)
O7_6 O 0.11628(18) 0.82495(14) 0.9138(2)
O1_7 O 0.77566(10) 0.61621(12) 0.1758(2)
O2_7 O 0.80259(10) 0.63489(11) 0.0498(2)
C6_7 C 0.67094(18) 0.5525(2) 0.0626(4)
H4_7 H 0.6487 0.5456 0.0914
C7_7 C 0.70532(17) 0.5758(2) 0.1014(4)
H5_7 H 0.7060 0.5835 0.1562
C8_7 C 0.73828(19) 0.5874(2) 0.0577(5)
C11_7 C 0.7754(2) 0.6150(2) 0.0971(5)
I2_7 I 0.540457(12) 0.553464(11) 0.07200(2)
Cu3_7 Cu 0.47565(2) 0.490839(19) 0.06000(4)
O5_7 O 0.86407(10) 0.69845(11) 0.2836(2)
O7_7 O 0.84172(14) 0.62466(11) 0.2471(2)
I1_7 I 0.459543(12) 0.446536(11) 0.92800(2)
Cu1_7 Cu 0.52435(2) 0.509161(19) 0.94000(4)
O4_7 O 0.62466(11) 0.78295(9) 0.7529(2)
N1_7 N 0.56722(15) 0.49698(17) 0.9270(4)
N2_7 N 0.59052(15) 0.46040(17) 0.8645(4)
N3_7 N 0.52817(13) 0.54163(11) 0.8376(3)
C1_7 C 0.56431(19) 0.4684(2) 0.8839(5)
H1_7 H 0.5402 0.4515 0.8645
C2_7 C 0.60200(18) 0.52009(18) 0.9578(4)
H2_7 H 0.6059 0.5410 0.9885
C3_7 C 0.63173(18) 0.5143(2) 0.9462(4)
C4_7 C 0.62440(19) 0.4839(2) 0.8955(5)
H3_7 H 0.6441 0.4798 0.8827
C5_7 C 0.66898(18) 0.53952(19) 0.9831(4)
C9_7 C 0.73657(17) 0.5754(2) 0.9769(4)
H6_7 H 0.7587 0.5839 0.9465
C10_7 C 0.7024(2) 0.5508(3) 0.9403(4)
H7_7 H 0.7018 0.5417 0.8870
C12_7 C 0.51529(14) 0.52619(13) 0.7619(3)
H8_7 H 0.5024 0.5001 0.7581
C13_7 C 0.54609(17) 0.57947(14) 0.8410(3)
H9_7 H 0.5555 0.5912 0.8920
C14_7 C 0.55113(15) 0.60193(13) 0.7723(3)
C15_7 C 0.53739(15) 0.58294(14) 0.6982(3)
H10_7 H 0.5406 0.5968 0.6499
C16_7 C 0.57021(16) 0.64332(13) 0.7806(3)
C17_7 C 0.60138(18) 0.66191(15) 0.8330(4)
H11_7 H 0.6102 0.6483 0.8620
C18_7 C 0.61900(17) 0.70046(14) 0.8419(4)
H12_7 H 0.6395 0.7126 0.8775
C19_7 C 0.60686(16) 0.72148(14) 0.7994(3)
C20_7 C 0.57657(19) 0.70303(16) 0.7448(4)
H13_7 H 0.5684 0.7168 0.7138
C21_7 C 0.55847(19) 0.66417(16) 0.7368(4)
H14_7 H 0.5380 0.6521 0.7010
C22_7 C 0.62663(16) 0.76332(14) 0.8111(3)
O1_8 O 0.38379(12) 0.15946(16) 0.1758(2)
O2_8 O 0.36511(11) 0.16771(15) 0.0498(2)
C6_8 C 0.4475(2) 0.11848(27) 0.0626(4)
H4_8 H 0.4544 0.1032 0.0914
C7_8 C 0.4242(2) 0.12956(26) 0.1014(4)
H5_8 H 0.4165 0.1226 0.1562
C8_8 C 0.4126(2) 0.15092(28) 0.0577(5)
C11_8 C 0.3850(2) 0.1605(3) 0.0971(5)
O5_8 O 0.30155(11) 0.16563(15) 0.2836(2)
O7_8 O 0.37534(11) 0.21705(18) 0.2471(2)
O4_8 O 0.21705(9) 0.84172(14) 0.7529(2)
N3_8 N 0.45837(11) 0.98655(17) 0.8376(3)
C12_8 C 0.47381(13) 0.98911(19) 0.7619(3)
C13_8 C 0.42053(14) 0.96663(22) 0.8410(3)
H9_8 H 0.4088 0.9644 0.8920
C14_8 C 0.39807(13) 0.94921(20) 0.7723(3)
C15_8 C 0.41706(14) 0.95446(21) 0.6982(3)
H10_8 H 0.4032 0.9439 0.6499
C16_8 C 0.35668(13) 0.92690(21) 0.7806(3)
C17_8 C 0.33809(15) 0.93948(23) 0.8330(4)
H11_8 H 0.3517 0.9620 0.8620
C18_8 C 0.29954(14) 0.91855(22) 0.8419(4)
H12_8 H 0.2874 0.9270 0.8775
C19_8 C 0.27852(14) 0.88539(21) 0.7994(3)
C20_8 C 0.29697(16) 0.87355(25) 0.7448(4)
H13_8 H 0.2832 0.8517 0.7138
C21_8 C 0.33583(16) 0.89431(25) 0.7368(4)
H14_8 H 0.3479 0.8860 0.7010
C22_8 C 0.23668(14) 0.86332(21) 0.8111(3)
O4_9 O 0.15828(14) 0.37534(11) 0.7529(2)
N3_9 N 0.01345(17) 0.47183(13) 0.8376(3)
C12_9 C 0.01089(19) 0.48471(14) 0.7619(3)
C13_9 C 0.03337(22) 0.45391(17) 0.8410(3)
H9_9 H 0.0356 0.4445 0.8920
C14_9 C 0.05079(20) 0.44887(15) 0.7723(3)
C15_9 C 0.04554(21) 0.46261(15) 0.6982(3)
H10_9 H 0.0561 0.4594 0.6499
C16_9 C 0.07310(21) 0.42979(16) 0.7806(3)
C17_9 C 0.06052(23) 0.39862(18) 0.8330(4)
H11_9 H 0.0380 0.3898 0.8620
C18_9 C 0.08145(22) 0.38100(17) 0.8419(4)
H12_9 H 0.0730 0.3605 0.8775
C19_9 C 0.11461(21) 0.39314(16) 0.7994(3)
C20_9 C 0.12645(25) 0.42343(19) 0.7448(4)
H13_9 H 0.1483 0.4316 0.7138
C21_9 C 0.10569(25) 0.44153(19) 0.7368(4)
H14_9 H 0.1140 0.4620 0.7010
C22_9 C 0.13668(21) 0.37337(16) 0.8111(3)
O1_9 O 0.84054(16) 0.22434(10) 0.1758(2)
O2_9 O 0.83229(15) 0.19741(10) 0.0498(2)
C6_9 C 0.88152(27) 0.32906(18) 0.0626(4)
H4_9 H 0.8968 0.3513 0.0914
C7_9 C 0.87044(26) 0.29468(17) 0.1014(4)
H5_9 H 0.8774 0.2940 0.1562
C8_9 C 0.84908(28) 0.26172(19) 0.0577(5)
C11_9 C 0.8395(3) 0.2246(2) 0.0971(5)
O5_9 O 0.83437(15) 0.13593(10) 0.2836(2)
O7_9 O 0.78295(18) 0.15828(14) 0.2471(2)
H10_10 H 0.7927 0.0699 0.0168
O1_10 O 0.55767(10) 0.05046(12) 0.4909(2)
N1_8 N 0.76611(15) 0.16969(17) 0.7397(4)
N2_8 N 0.74281(15) 0.20627(17) 0.8022(4)
N3_10 N 0.80516(13) 0.12504(11) 0.8291(3)
N4_7 N 0.81377(11) 0.12127(11) 0.9736(2)
C1_8 C 0.76902(19) 0.1983(2) 0.7828(5)
H1_8 H 0.7931 0.2152 0.8022
C2_8 C 0.73133(18) 0.14658(18) 0.7089(4)
H2_8 H 0.7274 0.1257 0.6782
C3_8 C 0.70160(18) 0.1524(2) 0.7205(4)
C4_8 C 0.70893(19) 0.1828(2) 0.7712(5)
H3_8 H 0.6892 0.1869 0.7840
C5_8 C 0.66435(18) 0.12715(19) 0.6836(4)
C6_10 C 0.66239(18) 0.1142(2) 0.6041(4)
H4_10 H 0.6846 0.1211 0.5753
C7_10 C 0.62801(17) 0.0909(2) 0.5653(4)
H5_10 H 0.6273 0.0832 0.5105
C8_10 C 0.59505(19) 0.0793(2) 0.6090(5)
C9_8 C 0.59676(17) 0.0913(2) 0.6898(4)
H6_8 H 0.5746 0.0828 0.7202
C10_8 C 0.6309(2) 0.1159(3) 0.7264(4)
H7_8 H 0.6315 0.1250 0.7797
C11_10 C 0.5579(2) 0.0517(2) 0.5696(5)
C12_10 C 0.81804(14) 0.14048(13) 0.9048(3)
H8_8 H 0.8309 0.1666 0.9086
C13_10 C 0.78724(17) 0.08720(14) 0.8257(3)
H9_10 H 0.7778 0.0755 0.7747
C14_10 C 0.78220(15) 0.06474(13) 0.8944(3)
C15_10 C 0.79594(15) 0.08373(14) 0.9685(3)
C16_10 C 0.76312(16) 0.02335(13) 0.8861(3)
C17_10 C 0.73195(18) 0.00476(15) 0.8337(4)
H11_10 H 0.7231 0.0184 0.8047
C21_10 C 0.77486(19) 0.00250(16) 0.9299(4)
H14_10 H 0.7953 0.0146 0.9657
N5_4 N 0.54540(11) 0.02583(16) 0.3069(2)
O3_4 O 0.68873(12) 0.89111(9) 0.7894(2)
C18_10 C 0.71433(17) 0.96621(14) 0.8248(4)
H12_10 H 0.6938 0.9541 0.7892
C19_10 C 0.72647(16) 0.94519(14) 0.8673(3)
C20_10 C 0.75676(19) 0.96364(16) 0.9219(4)
H13_10 H 0.7649 0.9499 0.9529
C22_10 C 0.70670(16) 0.90335(14) 0.8556(3)
O6_7 O 0.53571(15) 0.97794(12) 0.4561(2)
O3_5 O 0.10889(9) 0.79762(15) 0.7894(2)
C18_11 C 0.03379(14) 0.74812(22) 0.8248(4)
H12_11 H 0.0459 0.7397 0.7892
C19_11 C 0.05481(14) 0.78128(21) 0.8673(3)
C20_11 C 0.03636(16) 0.79312(25) 0.9219(4)
H13_11 H 0.0501 0.8150 0.9529
C22_11 C 0.09665(14) 0.80335(21) 0.8556(3)
O6_8 O 0.02206(12) 0.55778(19) 0.4561(2)
H10_11 H 0.9301 0.7228 0.0168
O1_11 O 0.94954(12) 0.50721(16) 0.4909(2)
N1_9 N 0.83031(17) 0.59642(23) 0.7397(4)
N2_9 N 0.79373(17) 0.53654(23) 0.8022(4)
N3_11 N 0.87496(11) 0.68012(17) 0.8291(3)
N4_8 N 0.87873(11) 0.69250(16) 0.9736(2)
C1_9 C 0.8017(2) 0.57072(28) 0.7828(5)
H1_9 H 0.7848 0.5779 0.8022
C2_9 C 0.85342(18) 0.58475(25) 0.7089(4)
H2_9 H 0.8743 0.6017 0.6782
C3_9 C 0.8476(2) 0.54920(27) 0.7205(4)
C4_9 C 0.8172(2) 0.52613(28) 0.7712(5)
H3_9 H 0.8131 0.5023 0.7840
C5_9 C 0.87285(19) 0.53720(26) 0.6836(4)
C6_11 C 0.8858(2) 0.54819(27) 0.6041(4)
H4_11 H 0.8789 0.5635 0.5753
C7_11 C 0.9091(2) 0.53711(26) 0.5653(4)
H5_11 H 0.9168 0.5441 0.5105
C8_11 C 0.9207(2) 0.51575(28) 0.6090(5)
C9_9 C 0.9087(2) 0.50546(26) 0.6898(4)
H6_9 H 0.9172 0.4918 0.7202
C10_9 C 0.8841(3) 0.5150(4) 0.7264(4)
H7_9 H 0.8750 0.5065 0.7797
C11_11 C 0.9483(2) 0.5062(3) 0.5696(5)
C12_11 C 0.85952(13) 0.67756(19) 0.9048(3)
H8_9 H 0.8334 0.6643 0.9086
C13_11 C 0.91280(14) 0.70004(22) 0.8257(3)
H9_11 H 0.9245 0.7023 0.7747
C14_11 C 0.93526(13) 0.71746(20) 0.8944(3)
C15_11 C 0.91627(14) 0.71221(21) 0.9685(3)
C16_11 C 0.97665(13) 0.73977(21) 0.8861(3)
C17_11 C 0.99524(15) 0.72719(23) 0.8337(4)
H11_11 H 0.9816 0.7047 0.8047
C21_11 C 0.99750(16) 0.77236(25) 0.9299(4)
H14_11 H 0.9854 0.7807 0.9657
N5_5 N 0.97417(16) 0.51956(19) 0.3069(2)
H10_12 H 0.2772 0.2073 0.0168
O1_12 O 0.49279(16) 0.44233(10) 0.4909(2)
O3_6 O 0.20238(15) 0.31127(12) 0.7894(2)
N1_10 N 0.40358(23) 0.23389(15) 0.7397(4)
N2_10 N 0.46346(23) 0.25719(15) 0.8022(4)
N3_12 N 0.31988(17) 0.19484(13) 0.8291(3)
N4_9 N 0.30750(16) 0.18623(11) 0.9736(2)
C1_10 C 0.42928(28) 0.23098(19) 0.7828(5)
H1_10 H 0.4221 0.2069 0.8022
C2_10 C 0.41525(25) 0.26867(18) 0.7089(4)
H2_10 H 0.3983 0.2726 0.6782
C3_10 C 0.45080(27) 0.29840(18) 0.7205(4)
C4_10 C 0.47387(28) 0.29107(19) 0.7712(5)
H3_10 H 0.4977 0.3108 0.7840
C5_10 C 0.46280(26) 0.33565(18) 0.6836(4)
C6_12 C 0.45181(27) 0.33761(18) 0.6041(4)
H4_12 H 0.4365 0.3154 0.5753
C7_12 C 0.46289(26) 0.37199(17) 0.5653(4)
H5_12 H 0.4559 0.3727 0.5105
C8_12 C 0.48425(28) 0.40495(19) 0.6090(5)
C9_10 C 0.49454(26) 0.40324(17) 0.6898(4)
H6_10 H 0.5082 0.4254 0.7202
C10_10 C 0.4850(4) 0.3691(2) 0.7264(4)
H7_10 H 0.4935 0.3685 0.7797
C11_12 C 0.4938(3) 0.4421(2) 0.5696(5)
C12_12 C 0.32244(19) 0.18196(14) 0.9048(3)
H8_10 H 0.3357 0.1691 0.9086
C13_12 C 0.29996(22) 0.21276(17) 0.8257(3)
H9_12 H 0.2977 0.2222 0.7747
C14_12 C 0.28254(20) 0.21780(15) 0.8944(3)
C15_12 C 0.28779(21) 0.20406(15) 0.9685(3)
C16_12 C 0.26023(21) 0.23688(16) 0.8861(3)
C17_12 C 0.27281(23) 0.26805(18) 0.8337(4)
H11_12 H 0.2953 0.2769 0.8047
C18_12 C 0.25188(22) 0.28567(17) 0.8248(4)
H12_12 H 0.2603 0.3062 0.7892
C19_12 C 0.21872(21) 0.27353(16) 0.8673(3)
C20_12 C 0.20688(25) 0.24324(19) 0.9219(4)
H13_12 H 0.1850 0.2351 0.9529
C21_12 C 0.22764(25) 0.22514(19) 0.9299(4)
H14_12 H 0.2193 0.2047 0.9657
C22_12 C 0.19665(21) 0.29330(16) 0.8556(3)
O6_9 O 0.44222(19) 0.46429(15) 0.4561(2)
N5_6 N 0.48044(19) 0.45460(11) 0.3069(2)
N1_11 N 0.09944(15) 0.83636(17) 0.4064(4)
N2_11 N 0.07614(15) 0.87294(17) 0.4689(4)
N3_13 N 0.13849(13) 0.79171(11) 0.4958(3)
N4_10 N 0.14710(11) 0.78794(11) 0.6403(2)
C1_11 C 0.10235(19) 0.8650(2) 0.4495(5)
H1_11 H 0.1264 0.8819 0.4689
C2_11 C 0.06466(18) 0.81325(18) 0.3756(4)
H2_11 H 0.0607 0.7924 0.3449
C3_11 C 0.03493(18) 0.8191(2) 0.3872(4)
C4_11 C 0.04226(19) 0.8495(2) 0.4379(5)
H3_11 H 0.0225 0.8536 0.4507
H4_13 H 0.0179 0.7878 0.2420
C12_13 C 0.15137(14) 0.80715(13) 0.5715(3)
H8_11 H 0.1642 0.8333 0.5753
C13_13 C 0.12057(17) 0.75387(14) 0.4924(3)
H9_13 H 0.1111 0.7422 0.4414
C14_13 C 0.11553(15) 0.73141(13) 0.5611(3)
C15_13 C 0.12927(15) 0.75040(14) 0.6352(3)
H10_13 H 0.1260 0.7366 0.6835
C16_13 C 0.09645(16) 0.69002(13) 0.5528(3)
C17_13 C 0.06528(18) 0.67143(15) 0.5004(4)
H11_13 H 0.0564 0.6851 0.4714
C18_13 C 0.04766(17) 0.63288(14) 0.4915(4)
H12_13 H 0.0271 0.6208 0.4559
C19_13 C 0.05980(16) 0.61186(14) 0.5340(3)
C20_13 C 0.09009(19) 0.63031(16) 0.5886(4)
H13_13 H 0.0982 0.6166 0.6196
C21_13 C 0.10819(19) 0.66917(16) 0.5966(4)
H14_13 H 0.1286 0.6813 0.6324
C22_13 C 0.04003(16) 0.57002(14) 0.5223(3)
O1_13 O 0.89100(10) 0.71713(12) 0.1576(2)
C5_11 C 0.99768(18) 0.79382(19) 0.3503(4)
C6_13 C 0.99572(18) 0.7809(2) 0.2708(4)
C7_13 C 0.96134(17) 0.7576(2) 0.2320(4)
H5_13 H 0.9606 0.7499 0.1772
C8_13 C 0.92838(19) 0.7460(2) 0.2757(5)
C9_11 C 0.93009(17) 0.7580(2) 0.3565(4)
H6_11 H 0.9079 0.7495 0.3869
C10_11 C 0.9642(2) 0.7826(3) 0.3931(4)
H7_11 H 0.9648 0.7917 0.4464
C11_13 C 0.8912(2) 0.7184(2) 0.2363(5)
O6_10 O 0.86905(15) 0.64460(12) 0.1227(2)
O1_14 O 0.28287(12) 0.17388(16) 0.1576(2)
N1_12 N 0.16364(17) 0.26309(23) 0.4064(4)
N2_12 N 0.12706(17) 0.20321(23) 0.4689(4)
N3_14 N 0.20829(11) 0.34679(17) 0.4958(3)
N4_11 N 0.21206(11) 0.35917(16) 0.6403(2)
C1_12 C 0.1350(2) 0.23739(28) 0.4495(5)
H1_12 H 0.1181 0.2446 0.4689
C2_12 C 0.18675(18) 0.25142(25) 0.3756(4)
H2_12 H 0.2076 0.2684 0.3449
C3_12 C 0.1809(2) 0.21587(27) 0.3872(4)
C4_12 C 0.1505(2) 0.19280(28) 0.4379(5)
H3_12 H 0.1464 0.1690 0.4507
C5_12 C 0.20618(19) 0.20387(26) 0.3503(4)
C6_14 C 0.2191(2) 0.21486(27) 0.2708(4)
H4_14 H 0.2122 0.2302 0.2420
C7_14 C 0.2424(2) 0.20378(26) 0.2320(4)
H5_14 H 0.2501 0.2108 0.1772
C8_14 C 0.2540(2) 0.18242(28) 0.2757(5)
C9_12 C 0.2420(2) 0.17213(26) 0.3565(4)
H6_12 H 0.2505 0.1585 0.3869
C10_12 C 0.2174(3) 0.1817(4) 0.3931(4)
H7_12 H 0.2083 0.1732 0.4464
C11_14 C 0.2816(2) 0.1729(3) 0.2363(5)
C12_14 C 0.19285(13) 0.34423(19) 0.5715(3)
H8_12 H 0.1667 0.3310 0.5753
C13_14 C 0.24613(14) 0.36671(22) 0.4924(3)
H9_14 H 0.2578 0.3690 0.4414
C14_14 C 0.26859(13) 0.38413(20) 0.5611(3)
C15_14 C 0.24960(14) 0.37888(21) 0.6352(3)
H10_14 H 0.2634 0.3895 0.6835
C16_14 C 0.30998(13) 0.40644(21) 0.5528(3)
C17_14 C 0.32857(15) 0.39386(23) 0.5004(4)
H11_14 H 0.3149 0.3714 0.4714
C18_14 C 0.36712(14) 0.41479(22) 0.4915(4)
H12_14 H 0.3792 0.4064 0.4559
C19_14 C 0.38814(14) 0.44795(21) 0.5340(3)
C20_14 C 0.36969(16) 0.45979(25) 0.5886(4)
H13_14 H 0.3834 0.4817 0.6196
C21_14 C 0.33083(16) 0.43903(25) 0.5966(4)
H14_14 H 0.3187 0.4474 0.6324
C22_14 C 0.42998(14) 0.47002(21) 0.5223(3)
O6_11 O 0.35540(12) 0.22444(19) 0.1227(2)
O1_15 O 0.82612(16) 0.10900(10) 0.1576(2)
C5_13 C 0.79613(26) 0.00232(18) 0.3503(4)
C6_15 C 0.78514(27) 0.00428(18) 0.2708(4)
C7_15 C 0.79622(26) 0.03866(17) 0.2320(4)
H5_15 H 0.7892 0.0394 0.1772
C8_15 C 0.81758(28) 0.07162(19) 0.2757(5)
C9_13 C 0.82787(26) 0.06991(17) 0.3565(4)
H6_13 H 0.8415 0.0921 0.3869
C10_13 C 0.8183(4) 0.0358(2) 0.3931(4)
H7_13 H 0.8268 0.0352 0.4464
C11_15 C 0.8271(3) 0.1088(2) 0.2363(5)
O6_12 O 0.77556(19) 0.13095(15) 0.1227(2)
N1_13 N 0.73691(23) 0.90056(15) 0.4064(4)
N2_13 N 0.79679(23) 0.92386(15) 0.4689(4)
N3_15 N 0.65321(17) 0.86151(13) 0.4958(3)
N4_12 N 0.64083(16) 0.85290(11) 0.6403(2)
C1_13 C 0.76261(28) 0.89765(19) 0.4495(5)
H1_13 H 0.7554 0.8736 0.4689
C2_13 C 0.74858(25) 0.93534(18) 0.3756(4)
H2_13 H 0.7316 0.9393 0.3449
C3_13 C 0.78413(27) 0.96507(18) 0.3872(4)
C4_13 C 0.80720(28) 0.95774(19) 0.4379(5)
H3_13 H 0.8310 0.9775 0.4507
H4_15 H 0.7698 0.9821 0.2420
C12_15 C 0.65577(19) 0.84863(14) 0.5715(3)
H8_13 H 0.6690 0.8358 0.5753
C13_15 C 0.63329(22) 0.87943(17) 0.4924(3)
H9_15 H 0.6310 0.8889 0.4414
C14_15 C 0.61587(20) 0.88447(15) 0.5611(3)
C15_15 C 0.62112(21) 0.87073(15) 0.6352(3)
H10_15 H 0.6105 0.8740 0.6835
C16_15 C 0.59356(21) 0.90355(16) 0.5528(3)
C17_15 C 0.60614(23) 0.93472(18) 0.5004(4)
H11_15 H 0.6286 0.9436 0.4714
C18_15 C 0.58521(22) 0.95234(17) 0.4915(4)
H12_15 H 0.5936 0.9729 0.4559
C19_15 C 0.55205(21) 0.94020(16) 0.5340(3)
C20_15 C 0.54021(25) 0.90991(19) 0.5886(4)
H13_15 H 0.5183 0.9018 0.6196
C21_15 C 0.56097(25) 0.89181(19) 0.5966(4)
H14_15 H 0.5526 0.8714 0.6324
C22_15 C 0.52998(21) 0.95997(16) 0.5223(3)
N1_14 N 0.43278(15) 0.50302(17) 0.0730(4)
N2_14 N 0.40948(15) 0.53960(17) 0.1355(4)
N3_16 N 0.47183(13) 0.45837(11) 0.1624(3)
C1_14 C 0.43569(19) 0.5316(2) 0.1161(5)
H1_14 H 0.4598 0.5485 0.1355
C2_14 C 0.39800(18) 0.47991(18) 0.0422(4)
H2_14 H 0.3941 0.4590 0.0115
C3_14 C 0.36827(18) 0.4857(2) 0.0538(4)
C4_14 C 0.37560(19) 0.5161(2) 0.1045(5)
H3_14 H 0.3559 0.5202 0.1173
C5_14 C 0.33102(18) 0.46048(19) 0.0169(4)
C9_14 C 0.26343(17) 0.4246(2) 0.0231(4)
H6_14 H 0.2413 0.4161 0.0535
C10_14 C 0.2976(2) 0.4492(3) 0.0597(4)
H7_14 H 0.2982 0.4583 0.1130
C12_16 C 0.48471(14) 0.47381(13) 0.2381(3)
H8_14 H 0.4976 0.4999 0.2419
C13_16 C 0.45391(17) 0.42053(14) 0.1590(3)
H9_16 H 0.4445 0.4088 0.1080
C14_16 C 0.44887(15) 0.39807(13) 0.2277(3)
C15_16 C 0.46261(15) 0.41706(14) 0.3018(3)
H10_16 H 0.4594 0.4032 0.3501
C16_16 C 0.42979(16) 0.35668(13) 0.2194(3)
C17_16 C 0.39862(18) 0.33809(15) 0.1670(4)
H11_16 H 0.3898 0.3517 0.1380
C18_16 C 0.38100(17) 0.29954(14) 0.1581(4)
H12_16 H 0.3605 0.2874 0.1225
C19_16 C 0.39314(16) 0.27852(14) 0.2006(3)
C20_16 C 0.42343(19) 0.29697(16) 0.2552(4)
H13_16 H 0.4316 0.2832 0.2862
C21_16 C 0.44153(19) 0.33583(16) 0.2632(4)
H14_16 H 0.4620 0.3479 0.2990
C22_16 C 0.37337(16) 0.23668(14) 0.1889(3)
O1_16 O 0.22434(10) 0.38379(12) 0.8242(2)
C6_16 C 0.32906(18) 0.4475(2) 0.9374(4)
H4_16 H 0.3513 0.4544 0.9086
C7_16 C 0.29468(17) 0.4242(2) 0.8986(4)
H5_16 H 0.2940 0.4165 0.8438
C8_16 C 0.26172(19) 0.4126(2) 0.9423(5)
C11_16 C 0.2246(2) 0.3850(2) 0.9029(5)
N3_17 N 0.54163(11) 0.01345(17) 0.1624(3)
C12_17 C 0.52619(13) 0.01089(19) 0.2381(3)
C13_17 C 0.57947(14) 0.03337(22) 0.1590(3)
H9_17 H 0.5912 0.0356 0.1080
C14_17 C 0.60193(13) 0.05079(20) 0.2277(3)
C15_17 C 0.58294(14) 0.04554(21) 0.3018(3)
H10_17 H 0.5968 0.0561 0.3501
C16_17 C 0.64332(13) 0.07310(21) 0.2194(3)
C17_17 C 0.66191(15) 0.06052(23) 0.1670(4)
H11_17 H 0.6483 0.0380 0.1380
C18_17 C 0.70046(14) 0.08145(22) 0.1581(4)
H12_17 H 0.7126 0.0730 0.1225
C19_17 C 0.72148(14) 0.11461(21) 0.2006(3)
C20_17 C 0.70303(16) 0.12645(25) 0.2552(4)
H13_17 H 0.7168 0.1483 0.2862
C21_17 C 0.66417(16) 0.10569(25) 0.2632(4)
H14_17 H 0.6521 0.1140 0.2990
C22_17 C 0.76332(14) 0.13668(21) 0.1889(3)
O1_17 O 0.61621(12) 0.84054(16) 0.8242(2)
C6_17 C 0.5525(2) 0.88152(27) 0.9374(4)
H4_17 H 0.5456 0.8968 0.9086
C7_17 C 0.5758(2) 0.87044(26) 0.8986(4)
H5_17 H 0.5835 0.8774 0.8438
C8_17 C 0.5874(2) 0.84908(28) 0.9423(5)
C11_17 C 0.6150(2) 0.8395(3) 0.9029(5)
O1_18 O 0.15946(16) 0.77566(10) 0.8242(2)
C6_18 C 0.11848(27) 0.67094(18) 0.9374(4)
H4_18 H 0.1032 0.6487 0.9086
C7_18 C 0.12956(26) 0.70532(17) 0.8986(4)
H5_18 H 0.1226 0.7060 0.8438
C8_18 C 0.15092(28) 0.73828(19) 0.9423(5)
C11_18 C 0.1605(3) 0.7754(2) 0.9029(5)
N3_18 N 0.98655(17) 0.52817(13) 0.1624(3)
C12_18 C 0.98911(19) 0.51529(14) 0.2381(3)
C13_18 C 0.96663(22) 0.54609(17) 0.1590(3)
H9_18 H 0.9644 0.5555 0.1080
C14_18 C 0.94921(20) 0.55113(15) 0.2277(3)
C15_18 C 0.95446(21) 0.53739(15) 0.3018(3)
H10_18 H 0.9439 0.5406 0.3501
C16_18 C 0.92690(21) 0.57021(16) 0.2194(3)
C17_18 C 0.93948(23) 0.60138(18) 0.1670(4)
H11_18 H 0.9620 0.6102 0.1380
C18_18 C 0.91855(22) 0.61900(17) 0.1581(4)
H12_18 H 0.9270 0.6395 0.1225
C19_18 C 0.88539(21) 0.60686(16) 0.2006(3)
C20_18 C 0.87355(25) 0.57657(19) 0.2552(4)
H13_18 H 0.8517 0.5684 0.2862
C21_18 C 0.89431(25) 0.55847(19) 0.2632(4)
H14_18 H 0.8860 0.5380 0.2990
C22_18 C 0.86332(21) 0.62663(16) 0.1889(3)
I1_8 I 0.553464(11) 0.013008(16) 0.92800(2)
Cu1_8 Cu 0.490839(19) 0.015193(28) 0.94000(4)
N1_15 N 0.50302(17) 0.07025(23) 0.9270(4)
N2_15 N 0.53960(17) 0.13013(23) 0.8645(4)
C1_15 C 0.5316(2) 0.09595(28) 0.8839(5)
H1_15 H 0.5485 0.0888 0.8645
C2_15 C 0.47991(18) 0.08192(25) 0.9578(4)
H2_15 H 0.4590 0.0650 0.9885
C3_15 C 0.4857(2) 0.11747(27) 0.9462(4)
C4_15 C 0.5161(2) 0.14054(28) 0.8955(5)
H3_15 H 0.5202 0.1644 0.8827
C5_15 C 0.46048(19) 0.12947(26) 0.9831(4)
C9_15 C 0.4246(2) 0.16121(26) 0.9769(4)
H6_15 H 0.4161 0.1749 0.9465
C10_15 C 0.4492(3) 0.1517(4) 0.9403(4)
H7_15 H 0.4583 0.1602 0.8870
H8_15 H 0.4999 0.0024 0.7581
I2_8 I 0.446536(11) 0.986992(16) 0.07200(2)
Cu3_8 Cu 0.509161(19) 0.984807(28) 0.06000(4)
N1_16 N 0.49698(17) 0.92975(23) 0.0730(4)
N2_16 N 0.46040(17) 0.86987(23) 0.1355(4)
C1_16 C 0.4684(2) 0.90405(28) 0.1161(5)
H1_16 H 0.4515 0.9112 0.1355
C2_16 C 0.52009(18) 0.91808(25) 0.0422(4)
H2_16 H 0.5410 0.9350 0.0115
C3_16 C 0.5143(2) 0.88253(27) 0.0538(4)
C4_16 C 0.4839(2) 0.85946(28) 0.1045(5)
H3_16 H 0.4798 0.8356 0.1173
C5_16 C 0.53952(19) 0.87053(26) 0.0169(4)
C9_16 C 0.5754(2) 0.83879(26) 0.0231(4)
H6_16 H 0.5839 0.8251 0.0535
C10_16 C 0.5508(3) 0.8483(4) 0.0597(4)
H7_16 H 0.5417 0.8398 0.1130
H8_16 H 0.5001 0.9976 0.2419
I2_9 I 0.013008(16) 0.459543(12) 0.07200(2)
Cu3_9 Cu 0.015193(28) 0.52435(2) 0.06000(4)
N1_17 N 0.07025(23) 0.56722(15) 0.0730(4)
N2_17 N 0.13013(23) 0.59052(15) 0.1355(4)
C1_17 C 0.09595(28) 0.56431(19) 0.1161(5)
H1_17 H 0.0888 0.5402 0.1355
C2_17 C 0.08192(25) 0.60200(18) 0.0422(4)
H2_17 H 0.0650 0.6059 0.0115
C3_17 C 0.11747(27) 0.63173(18) 0.0538(4)
C4_17 C 0.14054(28) 0.62440(19) 0.1045(5)
H3_17 H 0.1644 0.6441 0.1173
C5_17 C 0.12947(26) 0.66898(18) 0.0169(4)
C9_17 C 0.16121(26) 0.73657(17) 0.0231(4)
H6_17 H 0.1749 0.7587 0.0535
C10_17 C 0.1517(4) 0.7024(2) 0.0597(4)
H7_17 H 0.1602 0.7018 0.1130
H8_17 H 0.0024 0.5024 0.2419
I1_9 I 0.986992(16) 0.540457(12) 0.92800(2)
Cu1_9 Cu 0.984807(28) 0.47565(2) 0.94000(4)
N1_18 N 0.92975(23) 0.43278(15) 0.9270(4)
N2_18 N 0.86987(23) 0.40948(15) 0.8645(4)
C1_18 C 0.90405(28) 0.43569(19) 0.8839(5)
H1_18 H 0.9112 0.4598 0.8645
C2_18 C 0.91808(25) 0.39800(18) 0.9578(4)
H2_18 H 0.9350 0.3941 0.9885
C3_18 C 0.88253(27) 0.36827(18) 0.9462(4)
C4_18 C 0.85946(28) 0.37560(19) 0.8955(5)
H3_18 H 0.8356 0.3559 0.8827
C5_18 C 0.87053(26) 0.33102(18) 0.9831(4)
C9_18 C 0.83879(26) 0.26343(17) 0.9769(4)
H6_18 H 0.8251 0.2413 0.9465
C10_18 C 0.8483(4) 0.2976(2) 0.9403(4)
H7_18 H 0.8398 0.2982 0.8870
H8_18 H 0.9976 0.4976 0.7581
loop_
_geom_bond_atom_site_label_1
_geom_bond_atom_site_label_2
_geom_bond_site_symmetry_1
_geom_bond_site_symmetry_2
O3 C22 1_555 1_555
O4 C22 1_555 1_555
H12 C18 1_555 1_555
C19 C18 1_555 1_555
C20 C19 1_555 1_555
H13 C20 1_555 1_555
C22 C19 1_555 1_555
Cu5 O3 1_555 1_555
Cu7 O4 1_555 1_555
Cu5 Cu7 1_555 1_555
I1 Cu1 1_555 1_555
Cu1 N1 1_555 1_555
Cu2 O1 1_555 1_555
O1 C11 1_555 1_555
O2 C11 1_555 1_555
N1 C1 1_555 1_555
N2 C1 1_555 1_555
N3 Cu1 1_555 1_555
N4 C12 1_555 1_555
C1 H1 1_555 1_555
C2 N1 1_555 1_555
H2 C2 1_555 1_555
C3 C2 1_555 1_555
C4 N2 1_555 1_555
H3 C4 1_555 1_555
C5 C3 1_555 1_555
C6 C5 1_555 1_555
H4 C6 1_555 1_555
C7 C6 1_555 1_555
H5 C7 1_555 1_555
C8 C7 1_555 1_555
C9 C8 1_555 1_555
H6 C9 1_555 1_555
C10 C5 1_555 1_555
H7 C10 1_555 1_555
C11 C8 1_555 1_555
C12 N3 1_555 1_555
H8 C12 1_555 1_555
C13 N3 1_555 1_555
H9 C13 1_555 1_555
C14 C13 1_555 1_555
C15 N4 1_555 1_555
C16 C14 1_555 1_555
C17 C16 1_555 1_555
H11 C17 1_555 1_555
C21 C16 1_555 1_555
H14 C21 1_555 1_555
I2 Cu1 1_555 1_555
Cu3 I1 1_555 1_555
O7 Cu2 1_555 1_555
N5 Cu2 1_555 1_555
Cu1 Cu3 1_555 1_555
C3 C4 1_555 1_555
C9 C10 1_555 1_555
C14 C15 1_555 1_555
I2 Cu3 1_555 1_555
I1_2 Cu1_2 1_555 1_555
Cu1_2 N1_2 1_555 1_555
Cu2_2 O1_2 1_555 1_555
O1_2 C11_2 1_555 1_555
O2_2 C11_2 1_555 1_555
N1_2 C1_2 1_555 1_555
N2_2 C1_2 1_555 1_555
N3_2 Cu1_2 1_555 1_555
N4_2 C12_2 1_555 1_555
C1_2 H1_2 1_555 1_555
C2_2 N1_2 1_555 1_555
H2_2 C2_2 1_555 1_555
C3_2 C2_2 1_555 1_555
C4_2 N2_2 1_555 1_555
H3_2 C4_2 1_555 1_555
C5_2 C3_2 1_555 1_555
C6_2 C5_2 1_555 1_555
H4_2 C6_2 1_555 1_555
C7_2 C6_2 1_555 1_555
H5_2 C7_2 1_555 1_555
C8_2 C7_2 1_555 1_555
C9_2 C8_2 1_555 1_555
H6_2 C9_2 1_555 1_555
C10_2 C5_2 1_555 1_555
H7_2 C10_2 1_555 1_555
C11_2 C8_2 1_555 1_555
C12_2 N3_2 1_555 1_555
H8_2 C12_2 1_555 1_555
C13_2 N3_2 1_555 1_555
H9_2 C13_2 1_555 1_555
C14_2 C13_2 1_555 1_555
C15_2 N4_2 1_555 1_555
C16_2 C14_2 1_555 1_555
C17_2 C16_2 1_555 1_555
H11_2 C17_2 1_555 1_555
C21_2 C16_2 1_555 1_555
H14_2 C21_2 1_555 1_555
I2_2 Cu1_2 1_555 1_555
Cu3_2 I1_2 1_555 1_555
O7_2 Cu2_2 1_555 1_555
N5_2 Cu2_2 1_555 1_555
Cu1_2 Cu3_2 1_555 1_555
C3_2 C4_2 1_555 1_555
C9_2 C10_2 1_555 1_555
C14_2 C15_2 1_555 1_555
I2_2 Cu3_2 1_555 1_555
O3_2 C22_2 1_555 1_555
O4_2 C22_2 1_555 1_555
H12_2 C18_2 1_555 1_555
C19_2 C18_2 1_555 1_555
C20_2 C19_2 1_555 1_555
H13_2 C20_2 1_555 1_555
C22_2 C19_2 1_555 1_555
Cu5_2 O3_2 1_555 1_555
Cu7_2 O4_2 1_555 1_555
Cu5_2 Cu7_2 1_555 1_555
I1_3 Cu1_3 1_555 1_555
Cu1_3 N1_3 1_555 1_555
Cu2_3 O1_3 1_555 1_555
O1_3 C11_3 1_555 1_555
O2_3 C11_3 1_555 1_555
O3_3 C22_3 1_555 1_555
O4_3 C22_3 1_555 1_555
N1_3 C1_3 1_555 1_555
N2_3 C1_3 1_555 1_555
N3_3 Cu1_3 1_555 1_555
N4_3 C12_3 1_555 1_555
C1_3 H1_3 1_555 1_555
C2_3 N1_3 1_555 1_555
H2_3 C2_3 1_555 1_555
C3_3 C2_3 1_555 1_555
C4_3 N2_3 1_555 1_555
H3_3 C4_3 1_555 1_555
C5_3 C3_3 1_555 1_555
C6_3 C5_3 1_555 1_555
H4_3 C6_3 1_555 1_555
C7_3 C6_3 1_555 1_555
H5_3 C7_3 1_555 1_555
C8_3 C7_3 1_555 1_555
C9_3 C8_3 1_555 1_555
H6_3 C9_3 1_555 1_555
C10_3 C5_3 1_555 1_555
H7_3 C10_3 1_555 1_555
C11_3 C8_3 1_555 1_555
C12_3 N3_3 1_555 1_555
H8_3 C12_3 1_555 1_555
C13_3 N3_3 1_555 1_555
H9_3 C13_3 1_555 1_555
C14_3 C13_3 1_555 1_555
C15_3 N4_3 1_555 1_555
C16_3 C14_3 1_555 1_555
C17_3 C16_3 1_555 1_555
H11_3 C17_3 1_555 1_555
C18_3 C17_3 1_555 1_555
H12_3 C18_3 1_555 1_555
C19_3 C18_3 1_555 1_555
C20_3 C19_3 1_555 1_555
H13_3 C20_3 1_555 1_555
C21_3 C16_3 1_555 1_555
H14_3 C21_3 1_555 1_555
C22_3 C19_3 1_555 1_555
I2_3 Cu1_3 1_555 1_555
Cu3_3 I1_3 1_555 1_555
Cu5_3 O3_3 1_555 1_555
Cu6_3 Cu2_3 1_555 1_555
Cu7_3 O4_3 1_555 1_555
O5_3 Cu2_3 1_555 1_555
O6_3 Cu2_3 1_555 1_555
O7_3 Cu2_3 1_555 1_555
N5_3 Cu2_3 1_555 1_555
Cu1_3 Cu3_3 1_555 1_555
O2_3 Cu6_3 1_555 1_555
C3_3 C4_3 1_555 1_555
C9_3 C10_3 1_555 1_555
C14_3 C15_3 1_555 1_555
C20_3 C21_3 1_555 1_555
I2_3 Cu3_3 1_555 1_555
Cu5_3 Cu7_3 1_555 1_555
Cu4_2 O1_4 1_555 1_555
O1_4 C11_4 1_555 1_555
O2_4 C11_4 1_555 1_555
C6_4 C5_4 1_555 1_555
C7_4 C6_4 1_555 1_555
H5_4 C7_4 1_555 1_555
C8_4 C7_4 1_555 1_555
C9_4 C8_4 1_555 1_555
H6_4 C9_4 1_555 1_555
C10_4 C5_4 1_555 1_555
H7_4 C10_4 1_555 1_555
C11_4 C8_4 1_555 1_555
Cu6_4 Cu4_2 1_555 1_555
O5_4 Cu4_2 1_555 1_555
O6_4 Cu4_2 1_555 1_555
O7_4 Cu4_2 1_555 1_555
O2_4 Cu6_4 1_555 1_555
C9_4 C10_4 1_555 1_555
I1_4 Cu1_4 1_555 1_555
Cu1_4 N1_4 1_555 1_555
O6_2 C22_4 1_555 1_555
O4_4 C22_4 1_555 1_555
N1_4 C1_4 1_555 1_555
N2_4 C1_4 1_555 1_555
N3_4 Cu1_4 1_555 1_555
N4_4 C12_4 1_555 1_555
C1_4 H1_4 1_555 1_555
C2_4 N1_4 1_555 1_555
H2_4 C2_4 1_555 1_555
C3_4 C2_4 1_555 1_555
C4_4 N2_4 1_555 1_555
H3_4 C4_4 1_555 1_555
C12_4 N3_4 1_555 1_555
H8_4 C12_4 1_555 1_555
C13_4 N3_4 1_555 1_555
H9_4 C13_4 1_555 1_555
C14_4 C13_4 1_555 1_555
C15_4 N4_4 1_555 1_555
H10_4 C15_4 1_555 1_555
C16_4 C14_4 1_555 1_555
C17_4 C16_4 1_555 1_555
H11_4 C17_4 1_555 1_555
C18_4 C17_4 1_555 1_555
H12_4 C18_4 1_555 1_555
C19_4 C18_4 1_555 1_555
C20_4 C19_4 1_555 1_555
H13_4 C20_4 1_555 1_555
C21_4 C16_4 1_555 1_555
H14_4 C21_4 1_555 1_555
C22_4 C19_4 1_555 1_555
I2_4 Cu1_4 1_555 1_555
Cu3_4 I1_4 1_555 1_555
Cu5_2 N4_4 1_555 1_555
Cu6_2 O4_4 1_555 1_555
Cu1_4 Cu3_4 1_555 1_555
C3_4 C4_4 1_555 1_555
C14_4 C15_4 1_555 1_555
C20_4 C21_4 1_555 1_555
I2_4 Cu3_4 1_555 1_555
I1_5 Cu1_5 1_555 1_555
Cu1_5 N1_5 1_555 1_555
Cu4_3 O1_5 1_555 1_555
O1_5 C11_5 1_555 1_555
O2_5 C11_5 1_555 1_555
O6_3 C22_5 1_555 1_555
O4_5 C22_5 1_555 1_555
N1_5 C1_5 1_555 1_555
N2_5 C1_5 1_555 1_555
N3_5 Cu1_5 1_555 1_555
N4_5 C12_5 1_555 1_555
C1_5 H1_5 1_555 1_555
C2_5 N1_5 1_555 1_555
H2_5 C2_5 1_555 1_555
C3_5 C2_5 1_555 1_555
C4_5 N2_5 1_555 1_555
H3_5 C4_5 1_555 1_555
C5_5 C3_5 1_555 1_555
C6_5 C5_5 1_555 1_555
H4_5 C6_5 1_555 1_555
C7_5 C6_5 1_555 1_555
H5_5 C7_5 1_555 1_555
C8_5 C7_5 1_555 1_555
C9_5 C8_5 1_555 1_555
H6_5 C9_5 1_555 1_555
C10_5 C5_5 1_555 1_555
H7_5 C10_5 1_555 1_555
C11_5 C8_5 1_555 1_555
C12_5 N3_5 1_555 1_555
H8_5 C12_5 1_555 1_555
C13_5 N3_5 1_555 1_555
H9_5 C13_5 1_555 1_555
C14_5 C13_5 1_555 1_555
C15_5 N4_5 1_555 1_555
H10_5 C15_5 1_555 1_555
C16_5 C14_5 1_555 1_555
C17_5 C16_5 1_555 1_555
H11_5 C17_5 1_555 1_555
C18_5 C17_5 1_555 1_555
H12_5 C18_5 1_555 1_555
C19_5 C18_5 1_555 1_555
C20_5 C19_5 1_555 1_555
H13_5 C20_5 1_555 1_555
C21_5 C16_5 1_555 1_555
H14_5 C21_5 1_555 1_555
C22_5 C19_5 1_555 1_555
I2_5 Cu1_5 1_555 1_555
Cu3_5 I1_5 1_555 1_555
Cu5_3 N4_5 1_555 1_555
Cu6_5 Cu4_3 1_555 1_555
Cu6_3 O4_5 1_555 1_555
O5_5 Cu4_3 1_555 1_555
O6_5 Cu4_3 1_555 1_555
O7_5 Cu4_3 1_555 1_555
Cu1_5 Cu3_5 1_555 1_555
O2_5 Cu6_5 1_555 1_555
C3_5 C4_5 1_555 1_555
C9_5 C10_5 1_555 1_555
C14_5 C15_5 1_555 1_555
C20_5 C21_5 1_555 1_555
I2_5 Cu3_5 1_555 1_555
I1_6 Cu1_6 1_555 1_555
Cu1_6 N1_6 1_555 1_555
O6 C22_6 1_555 1_555
O4_6 C22_6 1_555 1_555
N1_6 C1_6 1_555 1_555
N2_6 C1_6 1_555 1_555
N3_6 Cu1_6 1_555 1_555
N4_6 C12_6 1_555 1_555
C1_6 H1_6 1_555 1_555
C2_6 N1_6 1_555 1_555
H2_6 C2_6 1_555 1_555
C3_6 C2_6 1_555 1_555
C4_6 N2_6 1_555 1_555
H3_6 C4_6 1_555 1_555
C12_6 N3_6 1_555 1_555
H8_6 C12_6 1_555 1_555
C13_6 N3_6 1_555 1_555
H9_6 C13_6 1_555 1_555
C14_6 C13_6 1_555 1_555
C15_6 N4_6 1_555 1_555
H10_6 C15_6 1_555 1_555
C16_6 C14_6 1_555 1_555
C17_6 C16_6 1_555 1_555
H11_6 C17_6 1_555 1_555
C18_6 C17_6 1_555 1_555
H12_6 C18_6 1_555 1_555
C19_6 C18_6 1_555 1_555
C20_6 C19_6 1_555 1_555
H13_6 C20_6 1_555 1_555
C21_6 C16_6 1_555 1_555
H14_6 C21_6 1_555 1_555
C22_6 C19_6 1_555 1_555
I2_6 Cu1_6 1_555 1_555
Cu3_6 I1_6 1_555 1_555
Cu5 N4_6 1_555 1_555
Cu6 O4_6 1_555 1_555
Cu1_6 Cu3_6 1_555 1_555
C3_6 C4_6 1_555 1_555
C14_6 C15_6 1_555 1_555
C20_6 C21_6 1_555 1_555
I2_6 Cu3_6 1_555 1_555
Cu4 O1_6 1_555 1_555
O1_6 C11_6 1_555 1_555
O2_6 C11_6 1_555 1_555
C6_6 C5_6 1_555 1_555
C7_6 C6_6 1_555 1_555
H5_6 C7_6 1_555 1_555
C8_6 C7_6 1_555 1_555
C9_6 C8_6 1_555 1_555
H6_6 C9_6 1_555 1_555
C10_6 C5_6 1_555 1_555
H7_6 C10_6 1_555 1_555
C11_6 C8_6 1_555 1_555
Cu6_6 Cu4 1_555 1_555
O5_6 Cu4 1_555 1_555
O6_6 Cu4 1_555 1_555
O7_6 Cu4 1_555 1_555
O2_6 Cu6_6 1_555 1_555
C9_6 C10_6 1_555 1_555
Cu5_3 O1_7 1_555 1_555
O1_7 C11_7 1_555 1_555
O2_7 C11_7 1_555 1_555
H4_7 C6_7 1_555 1_555
C7_7 C6_7 1_555 1_555
H5_7 C7_7 1_555 1_555
C8_7 C7_7 1_555 1_555
C11_7 C8_7 1_555 1_555
O5_7 Cu5_3 1_555 1_555
O7_7 Cu5_3 1_555 1_555
O2_7 Cu7_3 1_555 1_555
I2_7 Cu3_7 1_555 1_555
I1_7 Cu1_7 1_555 1_555
Cu1_7 N1_7 1_555 1_555
O6_5 C22_7 1_555 1_555
O4_7 C22_7 1_555 1_555
N1_7 C1_7 1_555 1_555
N2_7 C1_7 1_555 1_555
N3_7 Cu1_7 1_555 1_555
N5_3 C12_7 1_555 1_555
C1_7 H1_7 1_555 1_555
C2_7 N1_7 1_555 1_555
H2_7 C2_7 1_555 1_555
C3_7 C2_7 1_555 1_555
C4_7 N2_7 1_555 1_555
H3_7 C4_7 1_555 1_555
C5_7 C3_7 1_555 1_555
H6_7 C9_7 1_555 1_555
C10_7 C5_7 1_555 1_555
H7_7 C10_7 1_555 1_555
C12_7 N3_7 1_555 1_555
H8_7 C12_7 1_555 1_555
C13_7 N3_7 1_555 1_555
H9_7 C13_7 1_555 1_555
C14_7 C13_7 1_555 1_555
C15_7 N5_3 1_555 1_555
H10_7 C15_7 1_555 1_555
C16_7 C14_7 1_555 1_555
C17_7 C16_7 1_555 1_555
H11_7 C17_7 1_555 1_555
C18_7 C17_7 1_555 1_555
H12_7 C18_7 1_555 1_555
C19_7 C18_7 1_555 1_555
C20_7 C19_7 1_555 1_555
H13_7 C20_7 1_555 1_555
C21_7 C16_7 1_555 1_555
H14_7 C21_7 1_555 1_555
C22_7 C19_7 1_555 1_555
Cu6_5 O4_7 1_555 1_555
C3_7 C4_7 1_555 1_555
C9_7 C10_7 1_555 1_555
C14_7 C15_7 1_555 1_555
C20_7 C21_7 1_555 1_555
Cu5 O1_8 1_555 1_555
O1_8 C11_8 1_555 1_555
O2_8 C11_8 1_555 1_555
H4_8 C6_8 1_555 1_555
C7_8 C6_8 1_555 1_555
H5_8 C7_8 1_555 1_555
C8_8 C7_8 1_555 1_555
C11_8 C8_8 1_555 1_555
O5_8 Cu5 1_555 1_555
O7_8 Cu5 1_555 1_555
O2_8 Cu7 1_555 1_555
O6_6 C22_8 1_555 1_555
O4_8 C22_8 1_555 1_555
N5 C12_8 1_555 1_555
C12_8 N3_8 1_555 1_555
C13_8 N3_8 1_555 1_555
H9_8 C13_8 1_555 1_555
C14_8 C13_8 1_555 1_555
C15_8 N5 1_555 1_555
H10_8 C15_8 1_555 1_555
C16_8 C14_8 1_555 1_555
C17_8 C16_8 1_555 1_555
H11_8 C17_8 1_555 1_555
C18_8 C17_8 1_555 1_555
H12_8 C18_8 1_555 1_555
C19_8 C18_8 1_555 1_555
C20_8 C19_8 1_555 1_555
H13_8 C20_8 1_555 1_555
C21_8 C16_8 1_555 1_555
H14_8 C21_8 1_555 1_555
C22_8 C19_8 1_555 1_555
Cu6_6 O4_8 1_555 1_555
C14_8 C15_8 1_555 1_555
C20_8 C21_8 1_555 1_555
O6_4 C22_9 1_555 1_555
O4_9 C22_9 1_555 1_555
N5_2 C12_9 1_555 1_555
C12_9 N3_9 1_555 1_555
C13_9 N3_9 1_555 1_555
H9_9 C13_9 1_555 1_555
C14_9 C13_9 1_555 1_555
C15_9 N5_2 1_555 1_555
H10_9 C15_9 1_555 1_555
C16_9 C14_9 1_555 1_555
C17_9 C16_9 1_555 1_555
H11_9 C17_9 1_555 1_555
C18_9 C17_9 1_555 1_555
H12_9 C18_9 1_555 1_555
C19_9 C18_9 1_555 1_555
C20_9 C19_9 1_555 1_555
H13_9 C20_9 1_555 1_555
C21_9 C16_9 1_555 1_555
H14_9 C21_9 1_555 1_555
C22_9 C19_9 1_555 1_555
Cu6_4 O4_9 1_555 1_555
C14_9 C15_9 1_555 1_555
C20_9 C21_9 1_555 1_555
Cu5_2 O1_9 1_555 1_555
O1_9 C11_9 1_555 1_555
O2_9 C11_9 1_555 1_555
H4_9 C6_9 1_555 1_555
C7_9 C6_9 1_555 1_555
H5_9 C7_9 1_555 1_555
C8_9 C7_9 1_555 1_555
C11_9 C8_9 1_555 1_555
O5_9 Cu5_2 1_555 1_555
O7_9 Cu5_2 1_555 1_555
O2_9 Cu7_2 1_555 1_555
Cu3_4 N1_8 1_555 1_555
Cu6 O1_10 1_555 1_555
O1_10 C11_10 1_555 1_555
O5 C11_10 1_555 1_555
N1_8 C1_8 1_555 1_555
N2_8 C1_8 1_555 1_555
N3_10 Cu3_4 1_555 1_555
N4_7 C12_10 1_555 1_555
C1_8 H1_8 1_555 1_555
C2_8 N1_8 1_555 1_555
H2_8 C2_8 1_555 1_555
C3_8 C2_8 1_555 1_555
C4_8 N2_8 1_555 1_555
H3_8 C4_8 1_555 1_555
C5_8 C3_8 1_555 1_555
C6_10 C5_8 1_555 1_555
H4_10 C6_10 1_555 1_555
C7_10 C6_10 1_555 1_555
H5_10 C7_10 1_555 1_555
C8_10 C7_10 1_555 1_555
C9_8 C8_10 1_555 1_555
H6_8 C9_8 1_555 1_555
C10_8 C5_8 1_555 1_555
H7_8 C10_8 1_555 1_555
C11_10 C8_10 1_555 1_555
C12_10 N3_10 1_555 1_555
H8_8 C12_10 1_555 1_555
C13_10 N3_10 1_555 1_555
H9_10 C13_10 1_555 1_555
C14_10 C13_10 1_555 1_555
C15_10 N4_7 1_555 1_555
C16_10 C14_10 1_555 1_555
C17_10 C16_10 1_555 1_555
H11_10 C17_10 1_555 1_555
C21_10 C16_10 1_555 1_555
H14_10 C21_10 1_555 1_555
N5_4 Cu6 1_555 1_555
C3_8 C4_8 1_555 1_555
C9_8 C10_8 1_555 1_555
C14_10 C15_10 1_555 1_555
O3_4 C22_10 1_555 1_555
O7_5 C22_10 1_555 1_555
H12_10 C18_10 1_555 1_555
C19_10 C18_10 1_555 1_555
C20_10 C19_10 1_555 1_555
H13_10 C20_10 1_555 1_555
C22_10 C19_10 1_555 1_555
Cu6_5 O3_4 1_555 1_555
O3_5 C22_11 1_555 1_555
O7_6 C22_11 1_555 1_555
H12_11 C18_11 1_555 1_555
C19_11 C18_11 1_555 1_555
C20_11 C19_11 1_555 1_555
H13_11 C20_11 1_555 1_555
C22_11 C19_11 1_555 1_555
Cu6_6 O3_5 1_555 1_555
Cu3_5 N1_9 1_555 1_555
Cu6_2 O1_11 1_555 1_555
O1_11 C11_11 1_555 1_555
O5_2 C11_11 1_555 1_555
N1_9 C1_9 1_555 1_555
N2_9 C1_9 1_555 1_555
N3_11 Cu3_5 1_555 1_555
N4_8 C12_11 1_555 1_555
C1_9 H1_9 1_555 1_555
C2_9 N1_9 1_555 1_555
H2_9 C2_9 1_555 1_555
C3_9 C2_9 1_555 1_555
C4_9 N2_9 1_555 1_555
H3_9 C4_9 1_555 1_555
C5_9 C3_9 1_555 1_555
C6_11 C5_9 1_555 1_555
H4_11 C6_11 1_555 1_555
C7_11 C6_11 1_555 1_555
H5_11 C7_11 1_555 1_555
C8_11 C7_11 1_555 1_555
C9_9 C8_11 1_555 1_555
H6_9 C9_9 1_555 1_555
C10_9 C5_9 1_555 1_555
H7_9 C10_9 1_555 1_555
C11_11 C8_11 1_555 1_555
C12_11 N3_11 1_555 1_555
H8_9 C12_11 1_555 1_555
C13_11 N3_11 1_555 1_555
H9_11 C13_11 1_555 1_555
C14_11 C13_11 1_555 1_555
C15_11 N4_8 1_555 1_555
C16_11 C14_11 1_555 1_555
C17_11 C16_11 1_555 1_555
H11_11 C17_11 1_555 1_555
C21_11 C16_11 1_555 1_555
H14_11 C21_11 1_555 1_555
N5_5 Cu6_2 1_555 1_555
C3_9 C4_9 1_555 1_555
C9_9 C10_9 1_555 1_555
C14_11 C15_11 1_555 1_555
Cu3_6 N1_10 1_555 1_555
Cu6_3 O1_12 1_555 1_555
O1_12 C11_12 1_555 1_555
O5_3 C11_12 1_555 1_555
O3_6 C22_12 1_555 1_555
O7_4 C22_12 1_555 1_555
N1_10 C1_10 1_555 1_555
N2_10 C1_10 1_555 1_555
N3_12 Cu3_6 1_555 1_555
N4_9 C12_12 1_555 1_555
C1_10 H1_10 1_555 1_555
C2_10 N1_10 1_555 1_555
H2_10 C2_10 1_555 1_555
C3_10 C2_10 1_555 1_555
C4_10 N2_10 1_555 1_555
H3_10 C4_10 1_555 1_555
C5_10 C3_10 1_555 1_555
C6_12 C5_10 1_555 1_555
H4_12 C6_12 1_555 1_555
C7_12 C6_12 1_555 1_555
H5_12 C7_12 1_555 1_555
C8_12 C7_12 1_555 1_555
C9_10 C8_12 1_555 1_555
H6_10 C9_10 1_555 1_555
C10_10 C5_10 1_555 1_555
H7_10 C10_10 1_555 1_555
C11_12 C8_12 1_555 1_555
C12_12 N3_12 1_555 1_555
H8_10 C12_12 1_555 1_555
C13_12 N3_12 1_555 1_555
H9_12 C13_12 1_555 1_555
C14_12 C13_12 1_555 1_555
C15_12 N4_9 1_555 1_555
C16_12 C14_12 1_555 1_555
C17_12 C16_12 1_555 1_555
H11_12 C17_12 1_555 1_555
C18_12 C17_12 1_555 1_555
H12_12 C18_12 1_555 1_555
C19_12 C18_12 1_555 1_555
C20_12 C19_12 1_555 1_555
H13_12 C20_12 1_555 1_555
C21_12 C16_12 1_555 1_555
H14_12 C21_12 1_555 1_555
C22_12 C19_12 1_555 1_555
Cu6_4 O3_6 1_555 1_555
O6_9 Cu6_3 1_555 1_555
N5_6 Cu6_3 1_555 1_555
C3_10 C4_10 1_555 1_555
C9_10 C10_10 1_555 1_555
C14_12 C15_12 1_555 1_555
C20_12 C21_12 1_555 1_555
Cu3 N1_11 1_555 1_555
O6_8 C22_13 1_555 1_555
O7_2 C22_13 1_555 1_555
N1_11 C1_11 1_555 1_555
N2_11 C1_11 1_555 1_555
N3_13 Cu3 1_555 1_555
N4_10 C12_13 1_555 1_555
C1_11 H1_11 1_555 1_555
C2_11 N1_11 1_555 1_555
H2_11 C2_11 1_555 1_555
C3_11 C2_11 1_555 1_555
C4_11 N2_11 1_555 1_555
H3_11 C4_11 1_555 1_555
C12_13 N3_13 1_555 1_555
H8_11 C12_13 1_555 1_555
C13_13 N3_13 1_555 1_555
H9_13 C13_13 1_555 1_555
C14_13 C13_13 1_555 1_555
C15_13 N4_10 1_555 1_555
H10_13 C15_13 1_555 1_555
C16_13 C14_13 1_555 1_555
C17_13 C16_13 1_555 1_555
H11_13 C17_13 1_555 1_555
C18_13 C17_13 1_555 1_555
H12_13 C18_13 1_555 1_555
C19_13 C18_13 1_555 1_555
C20_13 C19_13 1_555 1_555
H13_13 C20_13 1_555 1_555
C21_13 C16_13 1_555 1_555
H14_13 C21_13 1_555 1_555
C22_13 C19_13 1_555 1_555
Cu6_6 N4_10 1_555 1_555
C3_11 C4_11 1_555 1_555
C14_13 C15_13 1_555 1_555
C20_13 C21_13 1_555 1_555
Cu7_3 O1_13 1_555 1_555
O1_13 C11_13 1_555 1_555
O5_7 C11_13 1_555 1_555
C6_13 C5_11 1_555 1_555
C7_13 C6_13 1_555 1_555
H5_13 C7_13 1_555 1_555
C8_13 C7_13 1_555 1_555
C9_11 C8_13 1_555 1_555
H6_11 C9_11 1_555 1_555
C10_11 C5_11 1_555 1_555
H7_11 C10_11 1_555 1_555
C11_13 C8_13 1_555 1_555
O6_10 Cu7_3 1_555 1_555
C9_11 C10_11 1_555 1_555
Cu3_2 N1_12 1_555 1_555
Cu7 O1_14 1_555 1_555
O1_14 C11_14 1_555 1_555
O5_8 C11_14 1_555 1_555
O6_9 C22_14 1_555 1_555
O7_3 C22_14 1_555 1_555
N1_12 C1_12 1_555 1_555
N2_12 C1_12 1_555 1_555
N3_14 Cu3_2 1_555 1_555
N4_11 C12_14 1_555 1_555
C1_12 H1_12 1_555 1_555
C2_12 N1_12 1_555 1_555
H2_12 C2_12 1_555 1_555
C3_12 C2_12 1_555 1_555
C4_12 N2_12 1_555 1_555
H3_12 C4_12 1_555 1_555
C5_12 C3_12 1_555 1_555
C6_14 C5_12 1_555 1_555
H4_14 C6_14 1_555 1_555
C7_14 C6_14 1_555 1_555
H5_14 C7_14 1_555 1_555
C8_14 C7_14 1_555 1_555
C9_12 C8_14 1_555 1_555
H6_12 C9_12 1_555 1_555
C10_12 C5_12 1_555 1_555
H7_12 C10_12 1_555 1_555
C11_14 C8_14 1_555 1_555
C12_14 N3_14 1_555 1_555
H8_12 C12_14 1_555 1_555
C13_14 N3_14 1_555 1_555
H9_14 C13_14 1_555 1_555
C14_14 C13_14 1_555 1_555
C15_14 N4_11 1_555 1_555
H10_14 C15_14 1_555 1_555
C16_14 C14_14 1_555 1_555
C17_14 C16_14 1_555 1_555
H11_14 C17_14 1_555 1_555
C18_14 C17_14 1_555 1_555
H12_14 C18_14 1_555 1_555
C19_14 C18_14 1_555 1_555
C20_14 C19_14 1_555 1_555
H13_14 C20_14 1_555 1_555
C21_14 C16_14 1_555 1_555
H14_14 C21_14 1_555 1_555
C22_14 C19_14 1_555 1_555
Cu6_4 N4_11 1_555 1_555
O6_11 Cu7 1_555 1_555
C3_12 C4_12 1_555 1_555
C9_12 C10_12 1_555 1_555
C14_14 C15_14 1_555 1_555
C20_14 C21_14 1_555 1_555
Cu7_2 O1_15 1_555 1_555
O1_15 C11_15 1_555 1_555
O5_9 C11_15 1_555 1_555
C6_15 C5_13 1_555 1_555
C7_15 C6_15 1_555 1_555
H5_15 C7_15 1_555 1_555
C8_15 C7_15 1_555 1_555
C9_13 C8_15 1_555 1_555
H6_13 C9_13 1_555 1_555
C10_13 C5_13 1_555 1_555
H7_13 C10_13 1_555 1_555
C11_15 C8_15 1_555 1_555
O6_12 Cu7_2 1_555 1_555
C9_13 C10_13 1_555 1_555
Cu3_3 N1_13 1_555 1_555
O6_7 C22_15 1_555 1_555
O7 C22_15 1_555 1_555
N1_13 C1_13 1_555 1_555
N2_13 C1_13 1_555 1_555
N3_15 Cu3_3 1_555 1_555
N4_12 C12_15 1_555 1_555
C1_13 H1_13 1_555 1_555
C2_13 N1_13 1_555 1_555
H2_13 C2_13 1_555 1_555
C3_13 C2_13 1_555 1_555
C4_13 N2_13 1_555 1_555
H3_13 C4_13 1_555 1_555
C12_15 N3_15 1_555 1_555
H8_13 C12_15 1_555 1_555
C13_15 N3_15 1_555 1_555
H9_15 C13_15 1_555 1_555
C14_15 C13_15 1_555 1_555
C15_15 N4_12 1_555 1_555
H10_15 C15_15 1_555 1_555
C16_15 C14_15 1_555 1_555
C17_15 C16_15 1_555 1_555
H11_15 C17_15 1_555 1_555
C18_15 C17_15 1_555 1_555
H12_15 C18_15 1_555 1_555
C19_15 C18_15 1_555 1_555
C20_15 C19_15 1_555 1_555
H13_15 C20_15 1_555 1_555
C21_15 C16_15 1_555 1_555
H14_15 C21_15 1_555 1_555
C22_15 C19_15 1_555 1_555
Cu6_5 N4_12 1_555 1_555
C3_13 C4_13 1_555 1_555
C14_15 C15_15 1_555 1_555
C20_15 C21_15 1_555 1_555
Cu3_7 N1_14 1_555 1_555
O6_11 C22_16 1_555 1_555
O7_8 C22_16 1_555 1_555
N1_14 C1_14 1_555 1_555
N2_14 C1_14 1_555 1_555
N3_16 Cu3_7 1_555 1_555
N5_6 C12_16 1_555 1_555
C1_14 H1_14 1_555 1_555
C2_14 N1_14 1_555 1_555
H2_14 C2_14 1_555 1_555
C3_14 C2_14 1_555 1_555
C4_14 N2_14 1_555 1_555
H3_14 C4_14 1_555 1_555
C5_14 C3_14 1_555 1_555
H6_14 C9_14 1_555 1_555
C10_14 C5_14 1_555 1_555
H7_14 C10_14 1_555 1_555
C12_16 N3_16 1_555 1_555
H8_14 C12_16 1_555 1_555
C13_16 N3_16 1_555 1_555
H9_16 C13_16 1_555 1_555
C14_16 C13_16 1_555 1_555
C15_16 N5_6 1_555 1_555
H10_16 C15_16 1_555 1_555
C16_16 C14_16 1_555 1_555
C17_16 C16_16 1_555 1_555
H11_16 C17_16 1_555 1_555
C18_16 C17_16 1_555 1_555
H12_16 C18_16 1_555 1_555
C19_16 C18_16 1_555 1_555
C20_16 C19_16 1_555 1_555
H13_16 C20_16 1_555 1_555
C21_16 C16_16 1_555 1_555
H14_16 C21_16 1_555 1_555
C22_16 C19_16 1_555 1_555
C3_14 C4_14 1_555 1_555
C9_14 C10_14 1_555 1_555
C14_16 C15_16 1_555 1_555
C20_16 C21_16 1_555 1_555
Cu6_4 O1_16 1_555 1_555
O1_16 C11_16 1_555 1_555
O5_4 C11_16 1_555 1_555
H4_16 C6_16 1_555 1_555
C7_16 C6_16 1_555 1_555
H5_16 C7_16 1_555 1_555
C8_16 C7_16 1_555 1_555
C11_16 C8_16 1_555 1_555
O6_12 C22_17 1_555 1_555
O7_9 C22_17 1_555 1_555
N5_4 C12_17 1_555 1_555
C12_17 N3_17 1_555 1_555
C13_17 N3_17 1_555 1_555
H9_17 C13_17 1_555 1_555
C14_17 C13_17 1_555 1_555
C15_17 N5_4 1_555 1_555
H10_17 C15_17 1_555 1_555
C16_17 C14_17 1_555 1_555
C17_17 C16_17 1_555 1_555
H11_17 C17_17 1_555 1_555
C18_17 C17_17 1_555 1_555
H12_17 C18_17 1_555 1_555
C19_17 C18_17 1_555 1_555
C20_17 C19_17 1_555 1_555
H13_17 C20_17 1_555 1_555
C21_17 C16_17 1_555 1_555
H14_17 C21_17 1_555 1_555
C22_17 C19_17 1_555 1_555
C14_17 C15_17 1_555 1_555
C20_17 C21_17 1_555 1_555
Cu6_5 O1_17 1_555 1_555
O1_17 C11_17 1_555 1_555
O5_5 C11_17 1_555 1_555
H4_17 C6_17 1_555 1_555
C7_17 C6_17 1_555 1_555
H5_17 C7_17 1_555 1_555
C8_17 C7_17 1_555 1_555
C11_17 C8_17 1_555 1_555
Cu6_6 O1_18 1_555 1_555
O1_18 C11_18 1_555 1_555
O5_6 C11_18 1_555 1_555
H4_18 C6_18 1_555 1_555
C7_18 C6_18 1_555 1_555
H5_18 C7_18 1_555 1_555
C8_18 C7_18 1_555 1_555
C11_18 C8_18 1_555 1_555
O6_10 C22_18 1_555 1_555
O7_7 C22_18 1_555 1_555
N5_5 C12_18 1_555 1_555
C12_18 N3_18 1_555 1_555
C13_18 N3_18 1_555 1_555
H9_18 C13_18 1_555 1_555
C14_18 C13_18 1_555 1_555
C15_18 N5_5 1_555 1_555
H10_18 C15_18 1_555 1_555
C16_18 C14_18 1_555 1_555
C17_18 C16_18 1_555 1_555
H11_18 C17_18 1_555 1_555
C18_18 C17_18 1_555 1_555
H12_18 C18_18 1_555 1_555
C19_18 C18_18 1_555 1_555
C20_18 C19_18 1_555 1_555
H13_18 C20_18 1_555 1_555
C21_18 C16_18 1_555 1_555
H14_18 C21_18 1_555 1_555
C22_18 C19_18 1_555 1_555
C14_18 C15_18 1_555 1_555
C20_18 C21_18 1_555 1_555
I1_8 Cu1_8 1_555 1_555
Cu1_8 N1_15 1_555 1_555
N1_15 C1_15 1_555 1_555
N2_15 C1_15 1_555 1_555
C1_15 H1_15 1_555 1_555
C2_15 N1_15 1_555 1_555
H2_15 C2_15 1_555 1_555
C3_15 C2_15 1_555 1_555
C4_15 N2_15 1_555 1_555
H3_15 C4_15 1_555 1_555
C5_15 C3_15 1_555 1_555
H6_15 C9_15 1_555 1_555
C10_15 C5_15 1_555 1_555
H7_15 C10_15 1_555 1_555
C3_15 C4_15 1_555 1_555
C9_15 C10_15 1_555 1_555
I2_8 Cu3_8 1_555 1_555
Cu3_8 N1_16 1_555 1_555
N1_16 C1_16 1_555 1_555
N2_16 C1_16 1_555 1_555
C1_16 H1_16 1_555 1_555
C2_16 N1_16 1_555 1_555
H2_16 C2_16 1_555 1_555
C3_16 C2_16 1_555 1_555
C4_16 N2_16 1_555 1_555
H3_16 C4_16 1_555 1_555
C5_16 C3_16 1_555 1_555
H6_16 C9_16 1_555 1_555
C10_16 C5_16 1_555 1_555
H7_16 C10_16 1_555 1_555
C3_16 C4_16 1_555 1_555
C9_16 C10_16 1_555 1_555
I2_9 Cu3_9 1_555 1_555
Cu3_9 N1_17 1_555 1_555
N1_17 C1_17 1_555 1_555
N2_17 C1_17 1_555 1_555
C1_17 H1_17 1_555 1_555
C2_17 N1_17 1_555 1_555
H2_17 C2_17 1_555 1_555
C3_17 C2_17 1_555 1_555
C4_17 N2_17 1_555 1_555
H3_17 C4_17 1_555 1_555
C5_17 C3_17 1_555 1_555
H6_17 C9_17 1_555 1_555
C10_17 C5_17 1_555 1_555
H7_17 C10_17 1_555 1_555
C3_17 C4_17 1_555 1_555
C9_17 C10_17 1_555 1_555
I1_9 Cu1_9 1_555 1_555
Cu1_9 N1_18 1_555 1_555
N1_18 C1_18 1_555 1_555
N2_18 C1_18 1_555 1_555
C1_18 H1_18 1_555 1_555
C2_18 N1_18 1_555 1_555
H2_18 C2_18 1_555 1_555
C3_18 C2_18 1_555 1_555
C4_18 N2_18 1_555 1_555
H3_18 C4_18 1_555 1_555
C5_18 C3_18 1_555 1_555
H6_18 C9_18 1_555 1_555
C10_18 C5_18 1_555 1_555
H7_18 C10_18 1_555 1_555
C3_18 C4_18 1_555 1_555
C9_18 C10_18 1_555 1_555

#END
