
###############################################################################
#
# This file contains modified crystal structure data generated from the
# MOF subset of the Cambridge Structural Database (CSD) v543 
# hosted by the Cambridge Crystallographic Data Centre (CCDC).
#
# This work is licensed under the Creative Commons
# Attribution-NonCommercial-ShareAlike 4.0 International License.
# To view a copy of this license, visit
# http://creativecommons.org/licenses/by-nc-sa/4.0/
# or send a letter to
# Creative Commons, PO Box 1866, Mountain View, CA 94042, USA.
#
# CIF created using the CSD Python API on 29 September 2022
# The structure has been converted into the P1 space group
# The structure has a 3D framework
# The original CSD entry KUSRUN is in the orthorhombic crystal system
# The original CSD entry KUSRUN is in a Sohncke space group
# The framework has been calculated to contain at least 10.0% void space
# The void calculation uses a probe of radius 1.32A, grid spacing 0.4
# H atom positions have been added when not included in the experimental data
#
###############################################################################

data_KUSRUN
_chemical_formula_moiety         '(C236 H268 Cd9 Cu4 N28 O67)n'
_symmetry_cell_setting           triclinic
_symmetry_space_group_name_H-M   'P 1'
_symmetry_Int_Tables_number      1
_space_group_name_Hall           'P 1'
loop_
_symmetry_equiv_pos_site_id
_symmetry_equiv_pos_as_xyz
1 x,y,z
_cell_length_a                   10.3562(3)
_cell_length_b                   17.8979(5)
_cell_length_c                   44.1383(14)
_cell_angle_alpha                90
_cell_angle_beta                 90
_cell_angle_gamma                90
_cell_volume                     8181.22
loop_
_atom_site_label
_atom_site_type_symbol
_atom_site_fract_x
_atom_site_fract_y
_atom_site_fract_z
O9 O 0.2035(4) 0.0984(2) 0.07861(9)
O10 O 0.1184(4) 0.0613(2) 0.03437(8)
O17 O 0.4868(4) 0.0912(2) 0.09577(8)
N7 N 0.5647(6) 0.2031(3) 0.08107(16)
C17 C 0.1351(6) 0.1084(3) 0.05484(13)
C18 C 0.0633(7) 0.1808(3) 0.05238(13)
C23 C 0.0679(6) 0.2336(3) 0.07493(13)
H12 H 0.1209 0.2254 0.0922
C57 C 0.4853(6) 0.1472(3) 0.07972(15)
H60 H 0.4194 0.1499 0.0648
C58 C 0.5546(11) 0.2685(5) 0.0613(3)
H61 H 0.4831 0.2614 0.0470
H62 H 0.6354 0.2747 0.0500
H63 H 0.5386 0.3132 0.0735
C59 C 0.6741(10) 0.2022(6) 0.1027(2)
H64 H 0.6700 0.1567 0.1150
H65 H 0.6689 0.2461 0.1160
H66 H 0.7558 0.2033 0.0915
O21 O 0.4155(3) 0.0223(2) 0.03389(8)
Cd1 Cd 0.15411(3) 0.00397(3) 0.922108(7)
Cu1 Cu 0.02718(7) 0.06723(4) 0.752176(14)
O13 O 0.1404(4) 0.1036(3) 0.78359(8)
O14 O 0.1525(4) 0.0946(3) 0.72202(8)
N1 N 0.1444(4) 0.0456(3) 0.87420(9)
N2 N 0.1576(4) 0.0430(3) 0.63095(9)
C25 C 0.0634(6) 0.0188(3) 0.64845(12)
C26 C 0.0554(6) 0.0340(3) 0.67961(12)
C35 C 0.0398(6) 0.0444(3) 0.82565(11)
C36 C 0.0475(6) 0.0254(3) 0.85599(13)
C37 C 0.2365(6) 0.0894(3) 0.86160(12)
H27 H 0.3042 0.1063 0.8744
C38 C 0.2400(6) 0.1117(3) 0.83130(11)
C39 C 0.1385(6) 0.0870(3) 0.81182(12)
C40 C 0.1526(6) 0.0791(4) 0.69357(12)
C41 C 0.2482(6) 0.0881(3) 0.64362(12)
H28 H 0.3135 0.1079 0.6308
C42 C 0.2517(6) 0.1072(3) 0.67424(12)
C43 C 0.3518(6) 0.1611(4) 0.81978(13)
C44 C 0.4461(7) 0.1840(4) 0.84475(15)
H29 H 0.4010 0.2147 0.8598
H30 H 0.5171 0.2129 0.8359
H31 H 0.4808 0.1392 0.8546
C45 C 0.4300(7) 0.1132(5) 0.79619(15)
H32 H 0.4624 0.0679 0.8061
H33 H 0.5030 0.1425 0.7885
H34 H 0.3735 0.0994 0.7793
C46 C 0.3008(8) 0.2323(4) 0.80497(16)
H35 H 0.2527 0.2616 0.8200
H36 H 0.2435 0.2192 0.7881
H37 H 0.3734 0.2619 0.7973
C47 C 0.3626(6) 0.1547(4) 0.68680(13)
C48 C 0.3114(7) 0.2241(4) 0.70340(16)
H38 H 0.2624 0.2553 0.6892
H39 H 0.3841 0.2529 0.7115
H40 H 0.2549 0.2085 0.7201
C49 C 0.4388(7) 0.1053(4) 0.70898(14)
H41 H 0.4720 0.0614 0.6982
H42 H 0.3819 0.0891 0.7255
H43 H 0.5112 0.1339 0.7174
C50 C 0.4530(7) 0.1829(4) 0.66227(15)
H44 H 0.4050 0.2148 0.6482
H45 H 0.4893 0.1403 0.6512
H46 H 0.5230 0.2117 0.6715
Cd9 Cd 0.17366(3) 0.00333(3) 0.582175(7)
O22 O 0.3144(4) 0.0858(2) 0.92994(8)
O23 O 0.2802(4) 0.1074(2) 0.97889(8)
Cd2 Cd 0.24219(3) 0.99962(4) 0.001752(7)
Cd3 Cd 0.32634(3) 0.99667(3) 0.082175(7)
O18 O 0.2130(4) 0.8933(2) 0.02647(8)
O19 O 0.1710(4) 0.9118(2) 0.07556(9)
O20 O 0.5204(4) 0.9411(2) 0.06201(8)
N8 N 0.3424(4) 0.9570(3) 0.13095(9)
O1 O 0.2712(4) 0.9001(2) 0.92501(9)
O2 O 0.3586(4) 0.9329(2) 0.96932(8)
O3 O 0.7130(4) 0.6067(2) 0.97353(8)
O4 O 0.6710(4) 0.5882(2) 0.92444(9)
O6 O 0.0655(3) 0.9770(2) 0.97030(8)
C1 C 0.3408(7) 0.8891(3) 0.94821(14)
C2 C 0.4129(7) 0.8160(3) 0.94898(13)
C3 C 0.4896(6) 0.7990(3) 0.97360(12)
H1 H 0.4902 0.8313 0.9907
C4 C 0.5653(7) 0.7359(3) 0.97366(13)
H2 H 0.6182 0.7252 0.9907
C5 C 0.5651(8) 0.6881(3) 0.94934(13)
C6 C 0.4857(6) 0.7034(3) 0.92491(13)
H3 H 0.4834 0.6699 0.9082
C7 C 0.4100(6) 0.7668(3) 0.92449(13)
H4 H 0.3560 0.7769 0.9076
C8 C 0.6552(7) 0.6214(4) 0.94913(14)
Cd7 Cd 0.74219(3) 0.50038(4) 0.998248(7)
Cd10 Cd 0.82634(3) 0.50333(3) 0.917825(7)
H67 H 0.0645993 0.851346 0.940478
O11 O 0.8144(4) 0.4142(2) 0.07006(8)
O12 O 0.7802(4) 0.3926(2) 0.02111(8)
C12 C 0.6416(5) 0.0524(3) 0.00071(12)
C19 C 0.9885(6) 0.1947(3) 0.02684(13)
H9 H 0.9871 0.1592 0.0108
C20 C 0.9164(7) 0.2593(3) 0.02432(13)
H10 H 0.8657 0.2681 0.0067
C21 C 0.9184(7) 0.3117(3) 0.04788(13)
C22 C 0.9957(5) 0.2989(3) 0.07277(12)
H11 H 0.9996 0.3349 0.0886
C24 C 0.8312(7) 0.3778(3) 0.04616(13)
Cd4 Cd 0.65411(3) 0.49603(3) 0.077892(7)
O5 O 0.9643(4) 0.0619(2) 0.94287(9)
O15 O 0.8956(5) 0.1720(3) 0.74506(12)
N3 N 0.9293(4) 0.0057(3) 0.72388(8)
N4 N 0.9039(5) 0.0300(3) 0.78167(9)
N5 N 0.8129(6) 0.2906(3) 0.7474(2)
C9 C 0.9672(5) 0.0186(3) 0.96498(12)
C10 C 0.8521(5) 0.0108(4) 0.98491(11)
C11 C 0.7521(5) 0.0629(4) 0.98367(13)
H5 H 0.7600 0.1057 0.9711
H6 H 0.5737 0.0880 0.9997
C33 C 0.7836(5) 0.0048(3) 0.76654(10)
H24 H 0.7373 0.0503 0.7591
C34 C 0.9238(6) 0.0196(3) 0.80993(12)
C51 C 0.9065(7) 0.2391(4) 0.7488(2)
H47 H 0.9909 0.2569 0.7531
C52 C 0.8302(9) 0.3695(4) 0.7493(4)
H48 H 0.9197 0.3806 0.7550
H49 H 0.7717 0.3900 0.7647
H50 H 0.8110 0.3922 0.7296
C53 C 0.6882(9) 0.2689(5) 0.7408(4)
H51 H 0.6842 0.2143 0.7395
H52 H 0.6616 0.2908 0.7215
H53 H 0.6301 0.2861 0.7569
C13 C 0.6293(4) 0.9900(3) 0.01938(11)
C14 C 0.7296(5) 0.9376(4) 0.02042(13)
H7 H 0.7219 0.8944 0.0328
C15 C 0.8385(5) 0.9489(3) 0.00356(12)
H8 H 0.9066 0.9134 0.0046
C16 C 0.5145(5) 0.9825(3) 0.03945(11)
Cd5 Cd 0.25781(3) 0.00038(4) 0.501752(7)
O8 O 0.0845(3) 0.9777(2) 0.53389(8)
O1_2 O 0.2288(4) 0.0999(2) 0.42501(9)
O2_2 O 0.1414(4) 0.0671(2) 0.46932(8)
O6_2 O 0.4345(3) 0.0230(2) 0.47030(8)
O7 O 0.9796(4) 0.0589(2) 0.56201(8)
O16 O 0.5102(4) 0.0877(2) 0.40745(9)
N6 N 0.5763(6) 0.2045(3) 0.41679(17)
C1_2 C 0.1592(7) 0.1109(3) 0.44821(14)
C2_2 C 0.0871(7) 0.1840(3) 0.44898(13)
C3_2 C 0.0104(6) 0.2010(3) 0.47360(12)
H1_2 H 0.0098 0.1687 0.4907
C6_2 C 0.0143(6) 0.2966(3) 0.42491(13)
H3_2 H 0.0166 0.3301 0.4082
C7_2 C 0.0900(6) 0.2332(3) 0.42449(13)
H4_2 H 0.1440 0.2231 0.4076
C13_2 C 0.8707(4) 0.0100(3) 0.51938(11)
C14_2 C 0.7704(5) 0.0624(4) 0.52042(13)
H7_2 H 0.7781 0.1056 0.5328
C15_2 C 0.6615(5) 0.0511(3) 0.50356(12)
H8_2 H 0.5934 0.0866 0.5046
C16_2 C 0.9855(5) 0.0175(3) 0.53945(11)
H13 H 0.5028 0.0106 0.1395
C27 C 0.5480(5) 0.0009(4) 0.19541(11)
H14 H 0.6048 0.0315 0.1840
C28 C 0.6734(5) 0.0393(3) 0.23910(12)
H15 H 0.6341 0.0872 0.2463
C29 C 0.7899(6) 0.0581(4) 0.21933(13)
H16 H 0.7620 0.0885 0.2018
H17 H 0.8293 0.0115 0.2116
C30 C 0.8901(6) 0.1022(4) 0.23824(13)
H18 H 0.9676 0.1119 0.2257
H19 H 0.8530 0.1509 0.2443
C31 C 0.9288(6) 0.0589(4) 0.26637(13)
H20 H 0.9905 0.0890 0.2784
H21 H 0.9728 0.0121 0.2603
C32 C 0.8106(6) 0.0399(4) 0.28606(12)
H22 H 0.8374 0.0100 0.3039
H23 H 0.7690 0.0863 0.2934
H25 H 0.6406 0.0058 0.3213
H26 H 0.5203 0.0038 0.3644
C54 C 0.5047(6) 0.1457(4) 0.42196(18)
C55 C 0.5653(12) 0.2705(6) 0.4350(4)
H54 H 0.5008 0.2623 0.4509
H55 H 0.5385 0.3125 0.4222
H56 H 0.6490 0.2817 0.4443
C56 C 0.6725(11) 0.2046(6) 0.3914(3)
H57 H 0.6687 0.1568 0.3807
H58 H 0.7595 0.2119 0.3997
H59 H 0.6523 0.2453 0.3773
O18_2 O 0.2870(4) 0.1067(2) 0.52647(8)
O19_2 O 0.3290(4) 0.0882(2) 0.57556(9)
H67_2 H 0.435401 0.148654 0.440478
Cd1_2 Cd 0.34589(3) 0.99603(3) 0.422108(7)
Cu1_2 Cu 0.47282(7) 0.93277(4) 0.252176(14)
O5_2 O 0.5357(4) 0.9381(2) 0.44287(9)
O9_2 O 0.2965(4) 0.9016(2) 0.57861(9)
O10_2 O 0.3816(4) 0.9387(2) 0.53437(8)
O11_2 O 0.6856(4) 0.5858(2) 0.57006(8)
O12_2 O 0.7198(4) 0.6074(2) 0.52111(8)
O13_2 O 0.3596(4) 0.8964(3) 0.28359(8)
O14_2 O 0.3475(4) 0.9054(3) 0.22202(8)
O15_2 O 0.6044(5) 0.8280(3) 0.24506(12)
O17_2 O 0.0132(4) 0.9088(2) 0.59577(8)
N1_2 N 0.3556(4) 0.9544(3) 0.37420(9)
N3_2 N 0.5707(4) 0.9943(3) 0.22388(8)
N4_2 N 0.5961(5) 0.9700(3) 0.28167(9)
N5_2 N 0.6871(6) 0.7094(3) 0.2474(2)
C9_2 C 0.5328(5) 0.9814(3) 0.46498(12)
C10_2 C 0.6479(5) 0.9892(4) 0.48491(11)
C11_2 C 0.7479(5) 0.9371(4) 0.48367(13)
H5_2 H 0.7400 0.8943 0.4711
C12_2 C 0.8584(5) 0.9476(3) 0.50071(12)
H6_2 H 0.9263 0.9120 0.4997
C17_2 C 0.3649(6) 0.8916(3) 0.55484(13)
C18_2 C 0.4367(7) 0.8192(3) 0.55238(13)
C19_2 C 0.5115(6) 0.8053(3) 0.52684(13)
H9_2 H 0.5129 0.8408 0.5108
C20_2 C 0.5836(7) 0.7407(3) 0.52432(13)
H10_2 H 0.6343 0.7319 0.5067
C21_2 C 0.5816(7) 0.6883(3) 0.54788(13)
C22_2 C 0.5043(5) 0.7011(3) 0.57277(12)
H11_2 H 0.5004 0.6651 0.5886
C23_2 C 0.4321(6) 0.7664(3) 0.57493(13)
H12_2 H 0.3791 0.7746 0.5922
C24_2 C 0.6688(7) 0.6222(3) 0.54616(13)
C25_2 C 0.4366(6) 0.9812(3) 0.14845(12)
C26_2 C 0.4446(6) 0.9660(3) 0.17961(12)
C33_2 C 0.7164(5) 0.9952(3) 0.26654(10)
H24_2 H 0.7627 0.9497 0.2591
C34_2 C 0.5762(6) 0.9804(3) 0.30993(12)
C35_2 C 0.4602(6) 0.9556(3) 0.32565(11)
C36_2 C 0.4525(6) 0.9746(3) 0.35599(13)
C37_2 C 0.2635(6) 0.9106(3) 0.36160(12)
H27_2 H 0.1958 0.8937 0.3744
C38_2 C 0.2600(6) 0.8883(3) 0.33130(11)
C39_2 C 0.3615(6) 0.9130(3) 0.31182(12)
C40_2 C 0.3474(6) 0.9209(4) 0.19357(12)
C41_2 C 0.2518(6) 0.9119(3) 0.14362(12)
H28_2 H 0.1865 0.8921 0.1308
C42_2 C 0.2483(6) 0.8928(3) 0.17424(12)
C43_2 C 0.1482(6) 0.8389(4) 0.31978(13)
C44_2 C 0.0539(7) 0.8160(4) 0.34475(15)
H29_2 H 0.0990 0.7853 0.3598
H31_2 H 0.0192 0.8608 0.3546
C45_2 C 0.0700(7) 0.8868(5) 0.29619(15)
H32_2 H 0.0376 0.9321 0.3061
H34_2 H 0.1265 0.9006 0.2793
C46_2 C 0.1992(8) 0.7677(4) 0.30497(16)
H35_2 H 0.2473 0.7384 0.3200
H36_2 H 0.2565 0.7808 0.2881
H37_2 H 0.1266 0.7381 0.2973
C47_2 C 0.1374(6) 0.8453(4) 0.18680(13)
C48_2 C 0.1886(7) 0.7759(4) 0.20340(16)
H38_2 H 0.2376 0.7447 0.1892
H39_2 H 0.1159 0.7471 0.2115
H40_2 H 0.2451 0.7915 0.2201
C49_2 C 0.0612(7) 0.8947(4) 0.20898(14)
H41_2 H 0.0280 0.9386 0.1982
H42_2 H 0.1181 0.9109 0.2255
C50_2 C 0.0470(7) 0.8171(4) 0.16227(15)
H44_2 H 0.0950 0.7852 0.1482
H45_2 H 0.0107 0.8597 0.1512
C51_2 C 0.5935(7) 0.7609(4) 0.2488(2)
H47_2 H 0.5091 0.7431 0.2531
C52_2 C 0.6698(9) 0.6305(4) 0.2493(4)
H48_2 H 0.5803 0.6194 0.2550
H49_2 H 0.7283 0.6100 0.2647
H50_2 H 0.6890 0.6078 0.2296
C53_2 C 0.8118(9) 0.7311(5) 0.2408(4)
H51_2 H 0.8158 0.7857 0.2395
H52_2 H 0.8384 0.7092 0.2215
H53_2 H 0.8699 0.7139 0.2569
C57_2 C 0.0147(6) 0.8528(3) 0.57972(15)
H60_2 H 0.0806 0.8501 0.5648
H61_2 H 0.0169 0.7386 0.5470
Cd4_2 Cd 0.84589(3) 0.50397(3) 0.577892(7)
Cd6 Cd 0.75781(3) 0.49962(4) 0.498248(7)
O22_2 O 0.1856(4) 0.9142(2) 0.42994(8)
O23_2 O 0.2198(4) 0.8926(2) 0.47889(8)
O3_2 O 0.7870(4) 0.3933(2) 0.47353(8)
O4_2 O 0.8290(4) 0.4118(2) 0.42444(9)
C4_2 C 0.9347(7) 0.2641(3) 0.47366(13)
H2_2 H 0.8818 0.2748 0.4907
C5_2 C 0.9349(8) 0.3119(3) 0.44934(13)
C8_2 C 0.8448(7) 0.3786(4) 0.44913(14)
Cd10_2 Cd 0.67366(3) 0.49667(3) 0.417825(7)
O5_3 O 0.0357(4) 0.5619(2) 0.55713(9)
O7_2 O 0.4796(4) 0.4411(2) 0.43799(8)
O8_2 O 0.5845(3) 0.5223(2) 0.46611(8)
O15_3 O 0.1044(5) 0.6720(3) 0.75494(12)
O16_2 O 0.0102(4) 0.4123(2) 0.59255(9)
N3_3 N 0.0707(4) 0.5057(3) 0.77612(8)
N4_3 N 0.0961(5) 0.5300(3) 0.71833(9)
N5_3 N 0.1871(6) 0.7906(3) 0.7526(2)
N6_2 N 0.0763(6) 0.2955(3) 0.58321(17)
C9_3 C 0.0328(5) 0.5186(3) 0.53502(12)
C10_3 C 0.1479(5) 0.5108(4) 0.51509(11)
C11_3 C 0.2479(5) 0.5629(4) 0.51633(13)
H5_3 H 0.2400 0.6057 0.5289
C12_3 C 0.3584(5) 0.5524(3) 0.49929(12)
H6_3 H 0.4263 0.5880 0.5003
C13_3 C 0.3707(4) 0.4900(3) 0.48062(11)
C14_3 C 0.2704(5) 0.4376(4) 0.47958(13)
H7_3 H 0.2781 0.3944 0.4672
C15_3 C 0.1615(5) 0.4489(3) 0.49644(12)
H8_3 H 0.0934 0.4134 0.4954
C16_3 C 0.4855(5) 0.4825(3) 0.46055(11)
C19_3 C 0.0115(6) 0.6947(3) 0.47316(13)
H9_3 H 0.0129 0.6592 0.4892
C20_3 C 0.0836(7) 0.7593(3) 0.47568(13)
H10_3 H 0.1343 0.7681 0.4933
C21_3 C 0.0816(7) 0.8117(3) 0.45212(13)
C22_3 C 0.0043(5) 0.7989(3) 0.42723(12)
H11_3 H 0.0004 0.8349 0.4114
C24_3 C 0.1688(7) 0.8778(3) 0.45384(13)
H13_2 H 0.0028 0.4894 0.8605
C27_2 C 0.0480(5) 0.4991(4) 0.80459(11)
H14_2 H 0.1048 0.4685 0.8160
C28_2 C 0.1734(5) 0.4607(3) 0.76090(12)
H15_2 H 0.1341 0.4128 0.7537
C29_2 C 0.2899(6) 0.4419(4) 0.78067(13)
H16_2 H 0.2620 0.4115 0.7982
H17_2 H 0.3293 0.4885 0.7884
C30_2 C 0.3901(6) 0.3978(4) 0.76176(13)
H18_2 H 0.4676 0.3881 0.7743
H19_2 H 0.3530 0.3491 0.7557
C31_2 C 0.4288(6) 0.4411(4) 0.73363(13)
H20_2 H 0.4905 0.4110 0.7216
H21_2 H 0.4728 0.4879 0.7397
C32_2 C 0.3106(6) 0.4601(4) 0.71394(12)
H22_2 H 0.3374 0.4900 0.6961
H23_2 H 0.2690 0.4137 0.7066
C33_3 C 0.2164(5) 0.5048(3) 0.73346(10)
H24_3 H 0.2627 0.5503 0.7409
C34_3 C 0.0762(6) 0.5196(3) 0.69007(12)
H25_2 H 0.1406 0.4942 0.6787
H26_2 H 0.0203 0.4962 0.6356
C51_3 C 0.0935(7) 0.7391(4) 0.7512(2)
H47_3 H 0.0091 0.7569 0.7469
C52_3 C 0.1698(9) 0.8695(4) 0.7507(4)
H48_3 H 0.0803 0.8806 0.7450
H49_3 H 0.2283 0.8900 0.7353
H50_3 H 0.1890 0.8922 0.7704
C53_3 C 0.3118(9) 0.7689(5) 0.7592(4)
H51_3 H 0.3158 0.7143 0.7605
H52_3 H 0.3384 0.7908 0.7785
H53_3 H 0.3699 0.7861 0.7431
C54_2 C 0.0047(6) 0.3543(4) 0.57804(18)
C55_2 C 0.0653(12) 0.2295(6) 0.5650(4)
H54_2 H 0.0008 0.2377 0.5491
H55_2 H 0.0385 0.1875 0.5778
H56_2 H 0.1490 0.2183 0.5557
C56_2 C 0.1725(11) 0.2954(6) 0.6086(3)
H57_2 H 0.1687 0.3432 0.6193
H58_2 H 0.2595 0.2881 0.6003
H59_2 H 0.1523 0.2547 0.6227
Cu1_3 Cu 0.97282(7) 0.56723(4) 0.747824(14)
O1_3 O 0.7288(4) 0.4001(2) 0.57499(9)
O2_3 O 0.6414(4) 0.4329(2) 0.53068(8)
O6_3 O 0.9345(3) 0.4770(2) 0.52970(8)
O9_3 O 0.7965(4) 0.5984(2) 0.42139(9)
O10_3 O 0.8816(4) 0.5613(2) 0.46563(8)
O13_3 O 0.8596(4) 0.6036(3) 0.71641(8)
O14_3 O 0.8475(4) 0.5946(3) 0.77798(8)
O17_3 O 0.5132(4) 0.5912(2) 0.40423(8)
N1_3 N 0.8556(4) 0.5456(3) 0.62580(9)
N2_2 N 0.8424(4) 0.5430(3) 0.86905(9)
N7_2 N 0.4353(6) 0.7031(3) 0.41893(16)
C1_3 C 0.6592(7) 0.3891(3) 0.55179(14)
C2_3 C 0.5871(7) 0.3160(3) 0.55102(13)
C3_3 C 0.5104(6) 0.2990(3) 0.52640(12)
H1_3 H 0.5098 0.3313 0.5093
C4_3 C 0.4347(7) 0.2359(3) 0.52634(13)
H2_3 H 0.3818 0.2252 0.5093
C5_3 C 0.4349(8) 0.1881(3) 0.55066(13)
C6_3 C 0.5143(6) 0.2034(3) 0.57509(13)
H3_3 H 0.5166 0.1699 0.5918
C7_3 C 0.5900(6) 0.2668(3) 0.57551(13)
H4_3 H 0.6440 0.2769 0.5924
C8_3 C 0.3448(7) 0.1214(4) 0.55087(14)
C17_3 C 0.8649(6) 0.6084(3) 0.44516(13)
C18_3 C 0.9367(7) 0.6808(3) 0.44762(13)
C23_3 C 0.9321(6) 0.7336(3) 0.42507(13)
H12_3 H 0.8791 0.7254 0.4078
C25_3 C 0.9366(6) 0.5188(3) 0.85155(12)
C26_3 C 0.9446(6) 0.5340(3) 0.82039(12)
C35_3 C 0.9602(6) 0.5444(3) 0.67435(11)
C36_3 C 0.9525(6) 0.5254(3) 0.64401(13)
C37_3 C 0.7635(6) 0.5894(3) 0.63840(12)
H27_3 H 0.6958 0.6063 0.6256
C38_3 C 0.7600(6) 0.6117(3) 0.66870(11)
C39_3 C 0.8615(6) 0.5870(3) 0.68818(12)
C40_3 C 0.8474(6) 0.5791(4) 0.80643(12)
C41_3 C 0.7518(6) 0.5881(3) 0.85638(12)
H28_3 H 0.6865 0.6079 0.8692
C42_3 C 0.7483(6) 0.6072(3) 0.82576(12)
C43_3 C 0.6482(6) 0.6611(4) 0.68022(13)
C44_3 C 0.5539(7) 0.6840(4) 0.65525(15)
H29_3 H 0.5990 0.7147 0.6402
H30_2 H 0.4829 0.7129 0.6641
H31_3 H 0.5192 0.6392 0.6454
C45_3 C 0.5700(7) 0.6132(5) 0.70381(15)
H32_3 H 0.5376 0.5679 0.6939
H33_2 H 0.4970 0.6425 0.7115
H34_3 H 0.6265 0.5994 0.7207
C46_3 C 0.6992(8) 0.7323(4) 0.69503(16)
H35_3 H 0.7473 0.7616 0.6800
H36_3 H 0.7565 0.7192 0.7119
H37_3 H 0.6266 0.7619 0.7027
C47_3 C 0.6374(6) 0.6547(4) 0.81320(13)
C48_3 C 0.6886(7) 0.7241(4) 0.79660(16)
H38_3 H 0.7376 0.7553 0.8108
H39_3 H 0.6159 0.7529 0.7885
H40_3 H 0.7451 0.7085 0.7799
C49_3 C 0.5612(7) 0.6053(4) 0.79102(14)
H41_3 H 0.5280 0.5614 0.8018
H42_3 H 0.6181 0.5891 0.7745
H43_2 H 0.4888 0.6339 0.7826
C50_3 C 0.5470(7) 0.6829(4) 0.83773(15)
H44_3 H 0.5950 0.7148 0.8518
H45_3 H 0.5107 0.6403 0.8488
H46_2 H 0.4770 0.7117 0.8285
C57_3 C 0.5147(6) 0.6472(3) 0.42028(15)
H60_3 H 0.5806 0.6499 0.4352
C58_2 C 0.4454(11) 0.7685(5) 0.4387(3)
H61_3 H 0.5169 0.7614 0.4530
H62_2 H 0.3646 0.7747 0.4500
H63_2 H 0.4614 0.8132 0.4265
C59_2 C 0.3259(10) 0.7022(6) 0.3973(2)
H64_2 H 0.3300 0.6567 0.3850
H65_2 H 0.3311 0.7461 0.3840
H66_2 H 0.2442 0.7033 0.4085
N8_2 N 0.6576(4) 0.4570(3) 0.36905(9)
H67_3 H 0.935401 0.351346 0.559522
C4_4 C 0.0653(7) 0.7641(3) 0.02634(13)
H2_4 H 0.1182 0.7748 0.0093
C5_4 C 0.0651(8) 0.8119(3) 0.05066(13)
C8_4 C 0.1552(7) 0.8786(4) 0.05087(14)
H30_3 H 0.0171 0.2871 0.1641
H33_3 H 0.0030 0.3575 0.2115
H43_3 H 0.0112 0.3661 0.2826
H46_3 H 0.0230 0.2883 0.3285
N7_3 N 0.0647(6) 0.2969(3) 0.91893(16)
C58_3 C 0.0546(11) 0.2315(5) 0.9387(3)
H62_3 H 0.1354 0.2253 0.9500
H63_3 H 0.0386 0.1868 0.9265
C59_3 C 0.1741(10) 0.2978(6) 0.8973(2)
H64_3 H 0.1700 0.3433 0.8850
H65_3 H 0.1689 0.2539 0.8840
H66_3 H 0.2558 0.2967 0.9085
O20_2 O 0.0204(4) 0.5589(2) 0.93799(8)
Cu1_4 Cu 0.52718(7) 0.43277(4) 0.247824(14)
O1_4 O 0.7712(4) 0.5999(2) 0.07499(9)
O2_4 O 0.8586(4) 0.5671(2) 0.03068(8)
O5_4 O 0.4643(4) 0.4381(2) 0.05713(9)
O6_4 O 0.5655(3) 0.5230(2) 0.02970(8)
O13_4 O 0.6404(4) 0.3964(3) 0.21641(8)
O14_4 O 0.6525(4) 0.4054(3) 0.27798(8)
O15_4 O 0.3956(5) 0.3280(3) 0.25494(12)
O16_3 O 0.4898(4) 0.5877(2) 0.09255(9)
N1_4 N 0.6444(4) 0.4544(3) 0.12580(9)
N3_4 N 0.4293(4) 0.4943(3) 0.27612(8)
N4_4 N 0.4039(5) 0.4700(3) 0.21833(9)
N5_4 N 0.3129(6) 0.2094(3) 0.2526(2)
N6_3 N 0.4237(6) 0.7045(3) 0.08321(17)
C1_4 C 0.8408(7) 0.6109(3) 0.05179(14)
C2_4 C 0.9129(7) 0.6840(3) 0.05102(13)
C3_4 C 0.9896(6) 0.7010(3) 0.02640(12)
H1_4 H 0.9902 0.6687 0.0093
C6_4 C 0.9857(6) 0.7966(3) 0.07509(13)
H3_4 H 0.9834 0.8301 0.0918
C7_4 C 0.9100(6) 0.7332(3) 0.07551(13)
H4_4 H 0.8560 0.7231 0.0924
C9_4 C 0.4672(5) 0.4814(3) 0.03502(12)
C10_4 C 0.3521(5) 0.4892(4) 0.01509(11)
C11_4 C 0.2521(5) 0.4371(4) 0.01633(13)
H5_4 H 0.2600 0.3943 0.0289
H6_4 H 0.0737 0.4120 0.0003
C25_4 C 0.5634(6) 0.4812(3) 0.35155(12)
H13_3 H 0.4972 0.5106 0.3605
C26_4 C 0.5554(6) 0.4660(3) 0.32039(12)
C27_3 C 0.4520(5) 0.5009(4) 0.30459(11)
H14_3 H 0.3952 0.5315 0.3160
C28_3 C 0.3266(5) 0.5393(3) 0.26090(12)
H15_3 H 0.3659 0.5872 0.2537
C29_3 C 0.2101(6) 0.5581(4) 0.28067(13)
H16_3 H 0.2380 0.5885 0.2982
H17_3 H 0.1707 0.5115 0.2884
C30_3 C 0.1099(6) 0.6022(4) 0.26176(13)
H18_3 H 0.0324 0.6119 0.2743
H19_3 H 0.1470 0.6509 0.2557
C31_3 C 0.0712(6) 0.5589(4) 0.23363(13)
H20_3 H 0.0095 0.5890 0.2216
H21_3 H 0.0272 0.5121 0.2397
C32_3 C 0.1894(6) 0.5399(4) 0.21394(12)
H22_3 H 0.1626 0.5100 0.1961
H23_3 H 0.2310 0.5863 0.2066
C33_4 C 0.2836(5) 0.4952(3) 0.23346(10)
H24_4 H 0.2373 0.4497 0.2409
C34_4 C 0.4238(6) 0.4804(3) 0.19007(12)
H25_3 H 0.3594 0.5058 0.1787
C35_4 C 0.5398(6) 0.4556(3) 0.17435(11)
C36_4 C 0.5475(6) 0.4746(3) 0.14401(13)
H26_3 H 0.4797 0.5038 0.1356
C37_4 C 0.7365(6) 0.4106(3) 0.13840(12)
H27_4 H 0.8042 0.3937 0.1256
C38_4 C 0.7400(6) 0.3883(3) 0.16870(11)
C39_4 C 0.6385(6) 0.4130(3) 0.18818(12)
C40_4 C 0.6526(6) 0.4209(4) 0.30643(12)
C41_4 C 0.7482(6) 0.4119(3) 0.35638(12)
H28_4 H 0.8135 0.3921 0.3692
C42_4 C 0.7517(6) 0.3928(3) 0.32576(12)
C43_4 C 0.8518(6) 0.3389(4) 0.18022(13)
C44_4 C 0.9461(7) 0.3160(4) 0.15525(15)
H29_4 H 0.9010 0.2853 0.1402
H31_4 H 0.9808 0.3608 0.1454
C45_4 C 0.9300(7) 0.3868(5) 0.20381(15)
H32_4 H 0.9624 0.4321 0.1939
H34_4 H 0.8735 0.4006 0.2207
C46_4 C 0.8008(8) 0.2677(4) 0.19503(16)
H35_4 H 0.7527 0.2384 0.1800
H36_4 H 0.7435 0.2808 0.2119
H37_4 H 0.8734 0.2381 0.2027
C47_4 C 0.8626(6) 0.3453(4) 0.31320(13)
C48_4 C 0.8114(7) 0.2759(4) 0.29660(16)
H38_4 H 0.7624 0.2447 0.3108
H39_4 H 0.8841 0.2471 0.2885
H40_4 H 0.7549 0.2915 0.2799
C49_4 C 0.9388(7) 0.3947(4) 0.29102(14)
H41_4 H 0.9720 0.4386 0.3018
H42_4 H 0.8819 0.4109 0.2745
C50_4 C 0.9530(7) 0.3171(4) 0.33773(15)
H44_4 H 0.9050 0.2852 0.3518
H45_4 H 0.9893 0.3597 0.3488
C51_4 C 0.4065(7) 0.2609(4) 0.2512(2)
H47_4 H 0.4909 0.2431 0.2469
C52_4 C 0.3302(9) 0.1305(4) 0.2507(4)
H48_4 H 0.4197 0.1194 0.2450
H49_4 H 0.2717 0.1100 0.2353
H50_4 H 0.3110 0.1078 0.2704
C53_4 C 0.1882(9) 0.2311(5) 0.2592(4)
H51_4 H 0.1842 0.2857 0.2605
H52_4 H 0.1616 0.2092 0.2785
H53_4 H 0.1301 0.2139 0.2431
C54_3 C 0.4953(6) 0.6457(4) 0.07804(18)
C55_3 C 0.4347(12) 0.7705(6) 0.0650(4)
H54_3 H 0.4992 0.7623 0.0491
H55_3 H 0.4615 0.8125 0.0778
H56_3 H 0.3510 0.7817 0.0557
C56_3 C 0.3275(11) 0.7046(6) 0.1086(3)
H57_3 H 0.3313 0.6568 0.1193
H58_3 H 0.2405 0.7119 0.1003
H59_3 H 0.3477 0.7453 0.1227
H67_4 H 0.564599 0.648654 0.059522
O9_4 O 0.7035(4) 0.4016(2) 0.92139(9)
O10_4 O 0.6184(4) 0.4387(2) 0.96563(8)
O17_4 O 0.9868(4) 0.4088(2) 0.90423(8)
C12_4 C 0.1416(5) 0.4476(3) 0.99929(12)
C13_4 C 0.1293(4) 0.5100(3) 0.98062(11)
C14_4 C 0.2296(5) 0.5624(4) 0.97958(13)
H7_4 H 0.2219 0.6056 0.9672
C15_4 C 0.3385(5) 0.5511(3) 0.99644(12)
H8_4 H 0.4066 0.5866 0.9954
C16_4 C 0.0145(5) 0.5175(3) 0.96055(11)
C17_4 C 0.6351(6) 0.3916(3) 0.94516(13)
C18_4 C 0.5633(7) 0.3192(3) 0.94762(13)
C19_4 C 0.4885(6) 0.3053(3) 0.97316(13)
H9_4 H 0.4871 0.3408 0.9892
C20_4 C 0.4164(7) 0.2407(3) 0.97568(13)
H10_4 H 0.3657 0.2319 0.9933
C21_4 C 0.4184(7) 0.1883(3) 0.95212(13)
C22_4 C 0.4957(5) 0.2011(3) 0.92723(12)
H11_4 H 0.4996 0.1651 0.9114
C23_4 C 0.5679(6) 0.2664(3) 0.92507(13)
H12_4 H 0.6209 0.2746 0.9078
C24_4 C 0.3312(7) 0.1222(3) 0.95384(13)
C57_4 C 0.9853(6) 0.3528(3) 0.92028(15)
H60_4 H 0.9194 0.3501 0.9352
H61_4 H 0.9831 0.2386 0.9530
O21_2 O 0.9155(3) 0.4777(2) 0.96611(8)
O16_4 O 0.9898(4) 0.9123(2) 0.90745(9)
N6_4 N 0.9237(6) 0.7955(3) 0.91679(17)
H13_4 H 0.9972 0.9894 0.6395
C27_4 C 0.9520(5) 0.9991(4) 0.69541(11)
H14_4 H 0.8952 0.9685 0.6840
C28_4 C 0.8266(5) 0.9607(3) 0.73910(12)
H15_4 H 0.8659 0.9128 0.7463
C29_4 C 0.7101(6) 0.9419(4) 0.71933(13)
H16_4 H 0.7380 0.9115 0.7018
H17_4 H 0.6707 0.9885 0.7116
C30_4 C 0.6099(6) 0.8978(4) 0.73824(13)
H18_4 H 0.5324 0.8881 0.7257
H19_4 H 0.6470 0.8491 0.7443
C31_4 C 0.5712(6) 0.9411(4) 0.76637(13)
H20_4 H 0.5095 0.9110 0.7784
H21_4 H 0.5272 0.9879 0.7603
C32_4 C 0.6894(6) 0.9601(4) 0.78606(12)
H22_4 H 0.6626 0.9900 0.8039
H23_4 H 0.7310 0.9137 0.7934
H25_4 H 0.8594 0.9942 0.8213
H26_4 H 0.9797 0.9962 0.8644
C54_4 C 0.9953(6) 0.8543(4) 0.92196(18)
C55_4 C 0.9347(12) 0.7295(6) 0.9350(4)
H54_4 H 0.9992 0.7377 0.9509
H55_4 H 0.9615 0.6875 0.9222
H56_4 H 0.8510 0.7183 0.9443
C56_4 C 0.8275(11) 0.7954(6) 0.8914(3)
H57_4 H 0.8313 0.8432 0.8807
H58_4 H 0.7405 0.7881 0.8997
H59_4 H 0.8477 0.7547 0.8773
N7_4 N 0.9353(6) 0.7969(3) 0.58107(16)
H30_4 H 0.9829 0.7871 0.3359
H33_4 H 0.9970 0.8575 0.2885
H43_4 H 0.9888 0.8661 0.2174
H46_4 H 0.9770 0.7883 0.1715
C58_4 C 0.9454(11) 0.7315(5) 0.5613(3)
H62_4 H 0.8646 0.7253 0.5500
H63_4 H 0.9614 0.6868 0.5735
C59_4 C 0.8259(10) 0.7978(6) 0.6027(2)
H64_4 H 0.8300 0.8433 0.6150
H65_4 H 0.8311 0.7539 0.6160
H66_4 H 0.7442 0.7967 0.5915
loop_
_geom_bond_atom_site_label_1
_geom_bond_atom_site_label_2
_geom_bond_site_symmetry_1
_geom_bond_site_symmetry_2
O9 C17 1_555 1_555
N7 C57 1_555 1_555
C17 O10 1_555 1_555
C18 C17 1_555 1_555
C23 C18 1_555 1_555
H12 C23 1_555 1_555
C57 O17 1_555 1_555
H60 C57 1_555 1_555
C58 N7 1_555 1_555
H61 C58 1_555 1_555
H62 C58 1_555 1_555
H63 C58 1_555 1_555
C59 N7 1_555 1_555
H64 C59 1_555 1_555
H65 C59 1_555 1_555
H66 C59 1_555 1_555
Cu1 O13 1_555 1_555
O13 C39 1_555 1_555
O14 Cu1 1_555 1_555
N1 Cd1 1_555 1_555
N2 C25 1_555 1_555
C26 C25 1_555 1_555
C36 N1 1_555 1_555
C37 N1 1_555 1_555
H27 C37 1_555 1_555
C38 C37 1_555 1_555
C39 C35 1_555 1_555
C40 O14 1_555 1_555
C41 N2 1_555 1_555
H28 C41 1_555 1_555
C42 C40 1_555 1_555
C43 C38 1_555 1_555
C44 C43 1_555 1_555
H29 C44 1_555 1_555
H30 C44 1_555 1_555
H31 C44 1_555 1_555
C45 C43 1_555 1_555
H32 C45 1_555 1_555
H33 C45 1_555 1_555
H34 C45 1_555 1_555
C46 C43 1_555 1_555
H35 C46 1_555 1_555
H36 C46 1_555 1_555
H37 C46 1_555 1_555
C47 C42 1_555 1_555
C48 C47 1_555 1_555
H38 C48 1_555 1_555
H39 C48 1_555 1_555
H40 C48 1_555 1_555
C49 C47 1_555 1_555
H41 C49 1_555 1_555
H42 C49 1_555 1_555
H43 C49 1_555 1_555
C50 C47 1_555 1_555
H44 C50 1_555 1_555
H45 C50 1_555 1_555
H46 C50 1_555 1_555
Cd9 N2 1_555 1_555
O22 Cd1 1_555 1_555
C26 C40 1_555 1_555
C35 C36 1_555 1_555
C38 C39 1_555 1_555
C41 C42 1_555 1_555
O18 Cd2 1_555 1_555
O19 Cd3 1_555 1_555
O20 Cd3 1_555 1_555
N8 Cd3 1_555 1_555
O1 C1 1_555 1_555
O2 C1 1_555 1_555
O3 C8 1_555 1_555
O4 C8 1_555 1_555
C1 C2 1_555 1_555
C2 C3 1_555 1_555
C3 H1 1_555 1_555
C4 C3 1_555 1_555
H2 C4 1_555 1_555
C5 C4 1_555 1_555
C6 C5 1_555 1_555
H3 C6 1_555 1_555
C7 C2 1_555 1_555
H4 C7 1_555 1_555
C8 C5 1_555 1_555
Cd7 O3 1_555 1_555
Cd10 O4 1_555 1_555
C6 C7 1_555 1_555
O11 C24 1_555 1_555
O12 C24 1_555 1_555
H9 C19 1_555 1_555
C20 C19 1_555 1_555
H10 C20 1_555 1_555
C21 C20 1_555 1_555
C22 C21 1_555 1_555
H11 C22 1_555 1_555
C24 C21 1_555 1_555
Cd4 O11 1_555 1_555
N5 C51 1_555 1_555
C9 O5 1_555 1_555
C10 C9 1_555 1_555
C11 C10 1_555 1_555
H5 C11 1_555 1_555
C33 N4 1_555 1_555
H24 C33 1_555 1_555
C34 N4 1_555 1_555
C51 O15 1_555 1_555
H47 C51 1_555 1_555
C52 N5 1_555 1_555
H48 C52 1_555 1_555
H49 C52 1_555 1_555
H50 C52 1_555 1_555
C53 N5 1_555 1_555
H51 C53 1_555 1_555
H52 C53 1_555 1_555
H53 C53 1_555 1_555
O20 C16 1_555 1_555
C14 C13 1_555 1_555
H7 C14 1_555 1_555
H8 C15 1_555 1_555
C16 C13 1_555 1_555
C14 C15 1_555 1_555
Cd5 O2_2 1_555 1_555
O1_2 C1_2 1_555 1_555
O2_2 C1_2 1_555 1_555
O7 C16_2 1_555 1_555
N6 C54 1_555 1_555
C1_2 C2_2 1_555 1_555
C2_2 C3_2 1_555 1_555
C3_2 H1_2 1_555 1_555
H3_2 C6_2 1_555 1_555
C7_2 C2_2 1_555 1_555
H4_2 C7_2 1_555 1_555
C14_2 C13_2 1_555 1_555
H7_2 C14_2 1_555 1_555
H8_2 C15_2 1_555 1_555
C16_2 C13_2 1_555 1_555
H14 C27 1_555 1_555
H15 C28 1_555 1_555
C29 C28 1_555 1_555
H16 C29 1_555 1_555
H17 C29 1_555 1_555
C30 C29 1_555 1_555
H18 C30 1_555 1_555
H19 C30 1_555 1_555
C31 C30 1_555 1_555
H20 C31 1_555 1_555
H21 C31 1_555 1_555
C32 C31 1_555 1_555
H22 C32 1_555 1_555
H23 C32 1_555 1_555
C54 O16 1_555 1_555
C55 N6 1_555 1_555
H54 C55 1_555 1_555
H55 C55 1_555 1_555
H56 C55 1_555 1_555
C56 N6 1_555 1_555
H57 C56 1_555 1_555
H58 C56 1_555 1_555
H59 C56 1_555 1_555
O18_2 Cd5 1_555 1_555
O19_2 Cd9 1_555 1_555
Cd5 O6_2 1_555 1_555
C6_2 C7_2 1_555 1_555
C14_2 C15_2 1_555 1_555
C54 H67_2 1_555 1_555
Cu1_2 O13_2 1_555 1_555
O5_2 Cd1_2 1_555 1_555
O9_2 C17_2 1_555 1_555
O11_2 C24_2 1_555 1_555
O12_2 C24_2 1_555 1_555
O13_2 C39_2 1_555 1_555
O14_2 Cu1_2 1_555 1_555
O15_2 Cu1_2 1_555 1_555
N1_2 Cd1_2 1_555 1_555
N8 C25_2 1_555 1_555
N3_2 Cu1_2 1_555 1_555
N4_2 Cu1_2 1_555 1_555
N5_2 C51_2 1_555 1_555
C9_2 O5_2 1_555 1_555
C10_2 C9_2 1_555 1_555
C11_2 C10_2 1_555 1_555
H5_2 C11_2 1_555 1_555
C12_2 C11_2 1_555 1_555
H6_2 C12_2 1_555 1_555
C17_2 O10_2 1_555 1_555
C18_2 C17_2 1_555 1_555
C19_2 C18_2 1_555 1_555
H9_2 C19_2 1_555 1_555
C20_2 C19_2 1_555 1_555
H10_2 C20_2 1_555 1_555
C21_2 C20_2 1_555 1_555
C22_2 C21_2 1_555 1_555
H11_2 C22_2 1_555 1_555
C23_2 C18_2 1_555 1_555
H12_2 C23_2 1_555 1_555
C24_2 C21_2 1_555 1_555
C26_2 C25_2 1_555 1_555
C33_2 N4_2 1_555 1_555
H24_2 C33_2 1_555 1_555
C34_2 N4_2 1_555 1_555
C35_2 C34_2 1_555 1_555
C36_2 N1_2 1_555 1_555
C37_2 N1_2 1_555 1_555
H27_2 C37_2 1_555 1_555
C38_2 C37_2 1_555 1_555
C39_2 C35_2 1_555 1_555
C40_2 O14_2 1_555 1_555
C41_2 N8 1_555 1_555
H28_2 C41_2 1_555 1_555
C42_2 C40_2 1_555 1_555
C43_2 C38_2 1_555 1_555
C44_2 C43_2 1_555 1_555
H29_2 C44_2 1_555 1_555
H31_2 C44_2 1_555 1_555
C45_2 C43_2 1_555 1_555
H32_2 C45_2 1_555 1_555
H34_2 C45_2 1_555 1_555
C46_2 C43_2 1_555 1_555
H35_2 C46_2 1_555 1_555
H36_2 C46_2 1_555 1_555
H37_2 C46_2 1_555 1_555
C47_2 C42_2 1_555 1_555
C48_2 C47_2 1_555 1_555
H38_2 C48_2 1_555 1_555
H39_2 C48_2 1_555 1_555
H40_2 C48_2 1_555 1_555
C49_2 C47_2 1_555 1_555
H41_2 C49_2 1_555 1_555
H42_2 C49_2 1_555 1_555
C50_2 C47_2 1_555 1_555
H44_2 C50_2 1_555 1_555
H45_2 C50_2 1_555 1_555
C51_2 O15_2 1_555 1_555
H47_2 C51_2 1_555 1_555
C52_2 N5_2 1_555 1_555
H48_2 C52_2 1_555 1_555
H49_2 C52_2 1_555 1_555
H50_2 C52_2 1_555 1_555
C53_2 N5_2 1_555 1_555
H51_2 C53_2 1_555 1_555
H52_2 C53_2 1_555 1_555
H53_2 C53_2 1_555 1_555
C57_2 O17_2 1_555 1_555
H60_2 C57_2 1_555 1_555
Cd4_2 O11_2 1_555 1_555
Cd6 O12_2 1_555 1_555
O22_2 Cd1_2 1_555 1_555
C22_2 C23_2 1_555 1_555
C26_2 C40_2 1_555 1_555
C35_2 C36_2 1_555 1_555
C38_2 C39_2 1_555 1_555
C41_2 C42_2 1_555 1_555
O3_2 C8_2 1_555 1_555
O4_2 C8_2 1_555 1_555
H2_2 C4_2 1_555 1_555
C5_2 C4_2 1_555 1_555
C8_2 C5_2 1_555 1_555
Cd6 O3_2 1_555 1_555
Cd10_2 O4_2 1_555 1_555
O7_2 C16_3 1_555 1_555
O8_2 C16_3 1_555 1_555
O22_2 C24_3 1_555 1_555
O23_2 C24_3 1_555 1_555
N5_3 C51_3 1_555 1_555
N6_2 C54_2 1_555 1_555
C9_3 O5_3 1_555 1_555
C10_3 C9_3 1_555 1_555
C11_3 C10_3 1_555 1_555
H5_3 C11_3 1_555 1_555
C12_3 C11_3 1_555 1_555
H6_3 C12_3 1_555 1_555
C13_3 C12_3 1_555 1_555
C14_3 C13_3 1_555 1_555
H7_3 C14_3 1_555 1_555
C15_3 C10_3 1_555 1_555
H8_3 C15_3 1_555 1_555
C16_3 C13_3 1_555 1_555
H9_3 C19_3 1_555 1_555
C20_3 C19_3 1_555 1_555
H10_3 C20_3 1_555 1_555
C21_3 C20_3 1_555 1_555
C22_3 C21_3 1_555 1_555
H11_3 C22_3 1_555 1_555
C24_3 C21_3 1_555 1_555
C27_2 N3_3 1_555 1_555
H14_2 C27_2 1_555 1_555
C28_2 N3_3 1_555 1_555
H15_2 C28_2 1_555 1_555
C29_2 C28_2 1_555 1_555
H16_2 C29_2 1_555 1_555
H17_2 C29_2 1_555 1_555
C30_2 C29_2 1_555 1_555
H18_2 C30_2 1_555 1_555
H19_2 C30_2 1_555 1_555
C31_2 C30_2 1_555 1_555
H20_2 C31_2 1_555 1_555
H21_2 C31_2 1_555 1_555
C32_2 C31_2 1_555 1_555
H22_2 C32_2 1_555 1_555
H23_2 C32_2 1_555 1_555
C33_3 N4_3 1_555 1_555
H24_3 C33_3 1_555 1_555
C34_3 N4_3 1_555 1_555
H25_2 C34_3 1_555 1_555
C51_3 O15_3 1_555 1_555
H47_3 C51_3 1_555 1_555
C52_3 N5_3 1_555 1_555
H48_3 C52_3 1_555 1_555
H49_3 C52_3 1_555 1_555
H50_3 C52_3 1_555 1_555
C53_3 N5_3 1_555 1_555
H51_3 C53_3 1_555 1_555
H52_3 C53_3 1_555 1_555
H53_3 C53_3 1_555 1_555
C54_2 O16_2 1_555 1_555
C55_2 N6_2 1_555 1_555
H54_2 C55_2 1_555 1_555
H55_2 C55_2 1_555 1_555
H56_2 C55_2 1_555 1_555
C56_2 N6_2 1_555 1_555
H57_2 C56_2 1_555 1_555
H58_2 C56_2 1_555 1_555
H59_2 C56_2 1_555 1_555
Cd6 O8_2 1_555 1_555
Cd10_2 O7_2 1_555 1_555
O8_2 Cd10_2 1_555 1_555
C14_3 C15_3 1_555 1_555
C28_2 C33_3 1_555 1_555
C32_2 C33_3 1_555 1_555
Cd4_2 O1_3 1_555 1_555
Cd6 O2_3 1_555 1_555
Cd10_2 O9_3 1_555 1_555
Cu1_3 O13_3 1_555 1_555
O1_3 C1_3 1_555 1_555
O2_3 C1_3 1_555 1_555
O18_2 C8_3 1_555 1_555
O19_2 C8_3 1_555 1_555
O6_3 Cd4_2 1_555 1_555
O9_3 C17_3 1_555 1_555
O10_3 Cd6 1_555 1_555
O13_3 C39_3 1_555 1_555
O14_3 Cu1_3 1_555 1_555
O17_3 Cd10_2 1_555 1_555
N1_3 Cd4_2 1_555 1_555
N2_2 C25_3 1_555 1_555
N7_2 C57_3 1_555 1_555
C1_3 C2_3 1_555 1_555
C2_3 C3_3 1_555 1_555
C3_3 H1_3 1_555 1_555
C4_3 C3_3 1_555 1_555
H2_3 C4_3 1_555 1_555
C5_3 C4_3 1_555 1_555
C6_3 C5_3 1_555 1_555
H3_3 C6_3 1_555 1_555
C7_3 C2_3 1_555 1_555
H4_3 C7_3 1_555 1_555
C8_3 C5_3 1_555 1_555
C17_3 O10_3 1_555 1_555
C18_3 C17_3 1_555 1_555
C23_3 C18_3 1_555 1_555
H12_3 C23_3 1_555 1_555
C26_3 C25_3 1_555 1_555
C36_3 N1_3 1_555 1_555
C37_3 N1_3 1_555 1_555
H27_3 C37_3 1_555 1_555
C38_3 C37_3 1_555 1_555
C39_3 C35_3 1_555 1_555
C40_3 O14_3 1_555 1_555
C41_3 N2_2 1_555 1_555
H28_3 C41_3 1_555 1_555
C42_3 C40_3 1_555 1_555
C43_3 C38_3 1_555 1_555
C44_3 C43_3 1_555 1_555
H29_3 C44_3 1_555 1_555
H30_2 C44_3 1_555 1_555
H31_3 C44_3 1_555 1_555
C45_3 C43_3 1_555 1_555
H32_3 C45_3 1_555 1_555
H33_2 C45_3 1_555 1_555
H34_3 C45_3 1_555 1_555
C46_3 C43_3 1_555 1_555
H35_3 C46_3 1_555 1_555
H36_3 C46_3 1_555 1_555
H37_3 C46_3 1_555 1_555
C47_3 C42_3 1_555 1_555
C48_3 C47_3 1_555 1_555
H38_3 C48_3 1_555 1_555
H39_3 C48_3 1_555 1_555
H40_3 C48_3 1_555 1_555
C49_3 C47_3 1_555 1_555
H41_3 C49_3 1_555 1_555
H42_3 C49_3 1_555 1_555
H43_2 C49_3 1_555 1_555
C50_3 C47_3 1_555 1_555
H44_3 C50_3 1_555 1_555
H45_3 C50_3 1_555 1_555
H46_2 C50_3 1_555 1_555
C57_3 O17_3 1_555 1_555
H60_3 C57_3 1_555 1_555
C58_2 N7_2 1_555 1_555
H61_3 C58_2 1_555 1_555
H62_2 C58_2 1_555 1_555
H63_2 C58_2 1_555 1_555
C59_2 N7_2 1_555 1_555
H64_2 C59_2 1_555 1_555
H65_2 C59_2 1_555 1_555
H66_2 C59_2 1_555 1_555
Cd10 N2_2 1_555 1_555
N8_2 Cd10_2 1_555 1_555
Cd6 O6_3 1_555 1_555
C6_3 C7_3 1_555 1_555
C26_3 C40_3 1_555 1_555
C35_3 C36_3 1_555 1_555
C38_3 C39_3 1_555 1_555
C41_3 C42_3 1_555 1_555
O18 C8_4 1_555 1_555
O19 C8_4 1_555 1_555
H2_4 C4_4 1_555 1_555
C5_4 C4_4 1_555 1_555
C8_4 C5_4 1_555 1_555
C58_3 N7_3 1_555 1_555
H62_3 C58_3 1_555 1_555
H63_3 C58_3 1_555 1_555
C59_3 N7_3 1_555 1_555
H64_3 C59_3 1_555 1_555
H65_3 C59_3 1_555 1_555
H66_3 C59_3 1_555 1_555
Cd4 O1_4 1_555 1_555
Cu1_4 O13_4 1_555 1_555
O1_4 C1_4 1_555 1_555
O2_4 C1_4 1_555 1_555
O5_4 Cd4 1_555 1_555
O6_4 Cd4 1_555 1_555
O13_4 C39_4 1_555 1_555
O14_4 Cu1_4 1_555 1_555
O15_4 Cu1_4 1_555 1_555
O16_3 Cd4 1_555 1_555
N1_4 Cd4 1_555 1_555
N8_2 C25_4 1_555 1_555
N3_4 Cu1_4 1_555 1_555
N4_4 Cu1_4 1_555 1_555
N5_4 C51_4 1_555 1_555
N6_3 C54_3 1_555 1_555
C1_4 C2_4 1_555 1_555
C2_4 C3_4 1_555 1_555
C3_4 H1_4 1_555 1_555
H3_4 C6_4 1_555 1_555
C7_4 C2_4 1_555 1_555
H4_4 C7_4 1_555 1_555
C9_4 O5_4 1_555 1_555
C10_4 C9_4 1_555 1_555
C11_4 C10_4 1_555 1_555
H5_4 C11_4 1_555 1_555
C25_4 H13_3 1_555 1_555
C26_4 C25_4 1_555 1_555
C27_3 N3_4 1_555 1_555
H14_3 C27_3 1_555 1_555
C28_3 N3_4 1_555 1_555
H15_3 C28_3 1_555 1_555
C29_3 C28_3 1_555 1_555
H16_3 C29_3 1_555 1_555
H17_3 C29_3 1_555 1_555
C30_3 C29_3 1_555 1_555
H18_3 C30_3 1_555 1_555
H19_3 C30_3 1_555 1_555
C31_3 C30_3 1_555 1_555
H20_3 C31_3 1_555 1_555
H21_3 C31_3 1_555 1_555
C32_3 C31_3 1_555 1_555
H22_3 C32_3 1_555 1_555
H23_3 C32_3 1_555 1_555
C33_4 N4_4 1_555 1_555
H24_4 C33_4 1_555 1_555
C34_4 N4_4 1_555 1_555
H25_3 C34_4 1_555 1_555
C35_4 C34_4 1_555 1_555
C36_4 N1_4 1_555 1_555
H26_3 C36_4 1_555 1_555
C37_4 N1_4 1_555 1_555
H27_4 C37_4 1_555 1_555
C38_4 C37_4 1_555 1_555
C39_4 C35_4 1_555 1_555
C40_4 O14_4 1_555 1_555
C41_4 N8_2 1_555 1_555
H28_4 C41_4 1_555 1_555
C42_4 C40_4 1_555 1_555
C43_4 C38_4 1_555 1_555
C44_4 C43_4 1_555 1_555
H29_4 C44_4 1_555 1_555
H31_4 C44_4 1_555 1_555
C45_4 C43_4 1_555 1_555
H32_4 C45_4 1_555 1_555
H34_4 C45_4 1_555 1_555
C46_4 C43_4 1_555 1_555
H35_4 C46_4 1_555 1_555
H36_4 C46_4 1_555 1_555
H37_4 C46_4 1_555 1_555
C47_4 C42_4 1_555 1_555
C48_4 C47_4 1_555 1_555
H38_4 C48_4 1_555 1_555
H39_4 C48_4 1_555 1_555
H40_4 C48_4 1_555 1_555
C49_4 C47_4 1_555 1_555
H41_4 C49_4 1_555 1_555
H42_4 C49_4 1_555 1_555
C50_4 C47_4 1_555 1_555
H44_4 C50_4 1_555 1_555
H45_4 C50_4 1_555 1_555
C51_4 O15_4 1_555 1_555
H47_4 C51_4 1_555 1_555
C52_4 N5_4 1_555 1_555
H48_4 C52_4 1_555 1_555
H49_4 C52_4 1_555 1_555
H50_4 C52_4 1_555 1_555
C53_4 N5_4 1_555 1_555
H51_4 C53_4 1_555 1_555
H52_4 C53_4 1_555 1_555
H53_4 C53_4 1_555 1_555
C54_3 O16_3 1_555 1_555
C55_3 N6_3 1_555 1_555
H54_3 C55_3 1_555 1_555
H55_3 C55_3 1_555 1_555
H56_3 C55_3 1_555 1_555
C56_3 N6_3 1_555 1_555
H57_3 C56_3 1_555 1_555
H58_3 C56_3 1_555 1_555
H59_3 C56_3 1_555 1_555
O6_4 C9_4 1_555 1_555
C6_4 C7_4 1_555 1_555
C26_4 C27_3 1_555 1_555
C26_4 C40_4 1_555 1_555
C28_3 C33_4 1_555 1_555
C32_3 C33_4 1_555 1_555
C35_4 C36_4 1_555 1_555
C38_4 C39_4 1_555 1_555
C41_4 C42_4 1_555 1_555
C54_3 H67_4 1_555 1_555
Cd10 O9_4 1_555 1_555
O20_2 C16_4 1_555 1_555
O9_4 C17_4 1_555 1_555
O10_4 Cd7 1_555 1_555
O22 C24_4 1_555 1_555
O23 C24_4 1_555 1_555
O17_4 Cd10 1_555 1_555
C13_4 C12_4 1_555 1_555
C14_4 C13_4 1_555 1_555
H7_4 C14_4 1_555 1_555
H8_4 C15_4 1_555 1_555
C16_4 C13_4 1_555 1_555
C17_4 O10_4 1_555 1_555
C18_4 C17_4 1_555 1_555
C19_4 C18_4 1_555 1_555
H9_4 C19_4 1_555 1_555
C20_4 C19_4 1_555 1_555
H10_4 C20_4 1_555 1_555
C21_4 C20_4 1_555 1_555
C22_4 C21_4 1_555 1_555
H11_4 C22_4 1_555 1_555
C23_4 C18_4 1_555 1_555
H12_4 C23_4 1_555 1_555
C24_4 C21_4 1_555 1_555
C57_4 O17_4 1_555 1_555
H60_4 C57_4 1_555 1_555
O21_2 Cd7 1_555 1_555
Cd10 O21_2 1_555 1_555
C14_4 C15_4 1_555 1_555
C22_4 C23_4 1_555 1_555
N6_4 C54_4 1_555 1_555
H14_4 C27_4 1_555 1_555
H15_4 C28_4 1_555 1_555
C29_4 C28_4 1_555 1_555
H16_4 C29_4 1_555 1_555
H17_4 C29_4 1_555 1_555
C30_4 C29_4 1_555 1_555
H18_4 C30_4 1_555 1_555
H19_4 C30_4 1_555 1_555
C31_4 C30_4 1_555 1_555
H20_4 C31_4 1_555 1_555
H21_4 C31_4 1_555 1_555
C32_4 C31_4 1_555 1_555
H22_4 C32_4 1_555 1_555
H23_4 C32_4 1_555 1_555
C54_4 O16_4 1_555 1_555
C55_4 N6_4 1_555 1_555
H54_4 C55_4 1_555 1_555
H55_4 C55_4 1_555 1_555
H56_4 C55_4 1_555 1_555
C56_4 N6_4 1_555 1_555
H57_4 C56_4 1_555 1_555
H58_4 C56_4 1_555 1_555
H59_4 C56_4 1_555 1_555
C58_4 N7_4 1_555 1_555
H62_4 C58_4 1_555 1_555
H63_4 C58_4 1_555 1_555
C59_4 N7_4 1_555 1_555
H64_4 C59_4 1_555 1_555
H65_4 C59_4 1_555 1_555
H66_4 C59_4 1_555 1_555

#END
