
###############################################################################
#
# This file contains modified crystal structure data generated from the
# MOF subset of the Cambridge Structural Database (CSD) v543 
# hosted by the Cambridge Crystallographic Data Centre (CCDC).
#
# This work is licensed under the Creative Commons
# Attribution-NonCommercial-ShareAlike 4.0 International License.
# To view a copy of this license, visit
# http://creativecommons.org/licenses/by-nc-sa/4.0/
# or send a letter to
# Creative Commons, PO Box 1866, Mountain View, CA 94042, USA.
#
# CIF created using the CSD Python API on 29 September 2022
# The structure has been converted into the P1 space group
# The structure has a 3D framework
# The original CSD entry KUTCUZ is in the monoclinic crystal system
# The original CSD entry KUTCUZ is in a Sohncke space group
# The framework has been calculated to contain at least 10.0% void space
# The void calculation uses a probe of radius 1.32A, grid spacing 0.4
# H atom positions have been added when not included in the experimental data
#
###############################################################################

data_KUTCUZ
_chemical_formula_moiety         '(C528 H656 Cd25 N48 Ni16 O112)n'
_symmetry_cell_setting           triclinic
_symmetry_space_group_name_H-M   'P 1'
_symmetry_Int_Tables_number      1
_space_group_name_Hall           'P 1'
loop_
_symmetry_equiv_pos_site_id
_symmetry_equiv_pos_as_xyz
1 x,y,z
_cell_length_a                   14.430(3)
_cell_length_b                   40.910(9)
_cell_length_c                   30.645(6)
_cell_angle_alpha                90
_cell_angle_beta                 101.996(3)
_cell_angle_gamma                90
_cell_volume                     17695.6
loop_
_atom_site_label
_atom_site_type_symbol
_atom_site_fract_x
_atom_site_fract_y
_atom_site_fract_z
Cd3 Cd 0.0000 0.33899(9) 0.5000
Cd4 Cd 0.0000 0.25348(7) 0.5000
Cd5 Cd 0.24439(15) 0.27896(6) 0.50652(6)
O11 O 0.1745(14) 0.2882(5) 0.4378(6)
O12 O 0.0383(10) 0.2968(4) 0.4593(5)
H28 H 0.0237 0.5878 0.2304
C39 C 0.0587(17) 0.3910(9) 0.1558(9)
H36 H 0.0332 0.3851 0.1813
H37 H 0.0652 0.4143 0.1548
H38 H 0.1197 0.3810 0.1581
H40 H 0.0366 0.3326 0.1032
C41 C 0.0366(18) 0.3916(7) 0.0741(8)
H42 H 0.0964 0.3810 0.0755
H43 H 0.0460 0.4148 0.0768
C52 C 0.0750(10) 0.3247(5) 0.3086(4)
C53 C 0.1118(8) 0.3125(4) 0.3510(5)
H57 H 0.1760 0.3077 0.3594
C54 C 0.0526(10) 0.3074(4) 0.3808(3)
C56 C 0.1459(11) 0.3299(5) 0.2768(5)
C57 C 0.1499(16) 0.3665(5) 0.2653(6)
H59 H 0.0876 0.3739 0.2513
H60 H 0.1921 0.3696 0.2452
H61 H 0.1724 0.3788 0.2921
C58 C 0.1106(17) 0.3102(6) 0.2330(7)
H62 H 0.0491 0.3180 0.2185
H63 H 0.1066 0.2875 0.2400
H64 H 0.1542 0.3131 0.2135
C59 C 0.2468(17) 0.3168(8) 0.2977(10)
H65 H 0.2882 0.3204 0.2774
H66 H 0.2433 0.2938 0.3036
H67 H 0.2711 0.3281 0.3252
C60 C 0.0935(16) 0.3011(7) 0.4294(8)
N11 N 0.4469(10) 0.2779(4) 0.4228(4)
O28 O 0.4086(18) 0.2756(7) 0.4922(7)
C127 C 0.3977(17) 0.2879(7) 0.4555(7)
H149 H 0.3543 0.3048 0.4486
C128 C 0.468(3) 0.2438(5) 0.4202(12)
H150 H 0.4376 0.2318 0.4403
H151 H 0.5350 0.2405 0.4282
H152 H 0.4445 0.2362 0.3903
C129 C 0.478(3) 0.3021(7) 0.3952(11)
H153 H 0.4546 0.3231 0.4015
H154 H 0.4551 0.2968 0.3644
H155 H 0.5463 0.3026 0.4014
C236 C 0.0234(13) 0.4440(7) 0.2530(7)
H278 H 0.0895 0.4464 0.2676
H279 H 0.0176 0.4254 0.2331
H284 H 0.0280 0.4926 0.2251
O56 O 0.0408(17) 0.3781(6) 0.4490(8)
N24 N 0.172(3) 0.3945(10) 0.4338(13)
C262 C 0.107(3) 0.3955(11) 0.4631(14)
H318 H 0.1148 0.4078 0.4892
C263 C 0.149(4) 0.4150(15) 0.3956(17)
H319 H 0.1962 0.4123 0.3778
H320 H 0.1483 0.4374 0.4049
H321 H 0.0881 0.4092 0.3783
C264 C 0.254(4) 0.3742(16) 0.444(2)
H322 H 0.2907 0.3771 0.4213
H323 H 0.2347 0.3517 0.4442
H324 H 0.2911 0.3800 0.4724
O57 O 0.2199(12) 0.2240(4) 0.4824(5)
O59 O 0.0603(18) 0.2201(6) 0.4576(8)
O62 O 0.2986(12) 0.2642(4) 0.5788(5)
O64 O 0.1359(10) 0.2629(6) 0.5554(5)
O67 O 0.2762(15) 0.3339(6) 0.5210(6)
O69 O 0.1355(13) 0.3395(7) 0.5369(6)
H328 H 0.00772989 0.464287 0.197269
Cd1 Cd 0.5000 0.54722(7) 0.0000
Cd2 Cd 0.74480(13) 0.52289(5) 0.00506(6)
Cd3_2 Cd 1.0000 0.33899(9) 0.5000
Cd4_2 Cd 1.0000 0.25348(7) 0.5000
Cd6 Cd 0.5000 0.46198(9) 0.0000
Ni1 Ni 0.6031(2) 0.60624(9) 0.27885(10)
Ni2 Ni 0.8266(3) 0.35384(10) 0.22677(11)
N1 N 0.4978(14) 0.6230(5) 0.2990(6)
N2 N 0.5186(11) 0.5843(5) 0.2340(6)
N3 N 0.7043(12) 0.3660(5) 0.2018(5)
N4 N 0.7706(16) 0.3441(6) 0.2740(6)
O1 O 0.7199(12) 0.7240(4) 0.4824(5)
O2 O 0.5603(18) 0.7201(6) 0.4576(8)
O3 O 0.6894(12) 0.6229(5) 0.3257(5)
O4 O 0.6983(9) 0.5925(5) 0.2536(4)
O5 O 0.6427(12) 0.5440(5) 0.0549(5)
O6 O 0.7904(11) 0.5428(5) 0.0750(5)
O7 O 0.6551(15) 0.4689(6) 0.0445(6)
O8 O 0.7979(14) 0.4709(6) 0.0321(5)
O9 O 0.8749(9) 0.3641(3) 0.1776(4)
O10 O 0.9453(11) 0.3448(5) 0.2571(4)
O25 O 0.448(3) 0.4241(9) 0.0376(10)
C1 C 0.6444(16) 0.7139(7) 0.4569(8)
C2 C 0.6547(9) 0.6847(4) 0.4266(4)
C3 C 0.7446(8) 0.6740(4) 0.4235(5)
H1 H 0.7975 0.6814 0.4439
C4 C 0.7553(7) 0.6524(4) 0.3899(5)
C5 C 0.6762(9) 0.6415(4) 0.3594(4)
C6 C 0.5864(8) 0.6522(4) 0.3626(4)
C7 C 0.5756(7) 0.6738(4) 0.3962(5)
H2 H 0.5155 0.6809 0.3983
O27 O 0.9592(17) 0.3781(6) 0.5510(8)
C8 C 0.860(2) 0.5981(6) 0.3944(12)
H3 H 0.8230 0.5905 0.3665
H4 H 0.8361 0.5885 0.4185
H5 H 0.9249 0.5918 0.3968
C9 C 0.8529(13) 0.6355(6) 0.3967(8)
C10 C 0.899(2) 0.6439(13) 0.3570(9)
H6 H 0.8552 0.6393 0.3295
H7 H 0.9551 0.6309 0.3586
H8 H 0.9157 0.6666 0.3580
C11 C 0.9195(17) 0.6397(7) 0.4438(7)
H9 H 0.8854 0.6341 0.4665
H10 H 0.9403 0.6620 0.4476
H11 H 0.9735 0.6256 0.4461
C12 C 0.4991(15) 0.6414(5) 0.3319(6)
H12 H 0.4414 0.6487 0.3372
C13 C 0.4125(13) 0.6131(6) 0.2685(7)
C14 C 0.3208(13) 0.6206(6) 0.2844(7)
H13 H 0.3143 0.6441 0.2869
H14 H 0.3246 0.6112 0.3137
C15 C 0.2316(18) 0.6068(7) 0.2519(10)
H15 H 0.1821 0.6030 0.2685
H16 H 0.2086 0.6230 0.2291
C16 C 0.2510(16) 0.5751(5) 0.2296(8)
H17 H 0.1962 0.5701 0.2063
H18 H 0.2574 0.5577 0.2515
C17 C 0.3385(17) 0.5748(7) 0.2090(8)
H19 H 0.3472 0.5534 0.1969
H20 H 0.3320 0.5907 0.1851
C18 C 0.4199(11) 0.5832(5) 0.2451(6)
H21 H 0.4229 0.5658 0.2674
C19 C 0.535(2) 0.5740(7) 0.1947(8)
H22 H 0.4845 0.5655 0.1738
C20 C 0.6191(9) 0.5753(5) 0.1843(5)
C21 C 0.7039(11) 0.5805(5) 0.2146(4)
C22 C 0.7896(9) 0.5751(5) 0.2018(4)
C23 C 0.7904(9) 0.5645(5) 0.1588(5)
H23 H 0.8477 0.5609 0.1502
C24 C 0.7056(11) 0.5594(5) 0.1285(4)
C25 C 0.6199(9) 0.5648(5) 0.1413(4)
H24 H 0.5631 0.5614 0.1210
C26 C 0.8810(12) 0.5879(5) 0.2337(7)
C27 C 0.891(2) 0.5699(8) 0.2783(9)
H25 H 0.8375 0.5747 0.2911
H26 H 0.9480 0.5770 0.2982
H27 H 0.8945 0.5468 0.2734
C28 C 0.9660(15) 0.5805(6) 0.2113(8)
H29 H 0.9573 0.5918 0.1833
H30 H 0.9696 0.5574 0.2064
C29 C 0.8893(19) 0.6246(5) 0.2426(9)
H31 H 0.8382 0.6317 0.2560
H32 H 0.8863 0.6360 0.2149
H33 H 0.9486 0.6293 0.2624
C30 C 0.7129(16) 0.5495(7) 0.0842(8)
C31 C 0.728(2) 0.4585(7) 0.0482(10)
C32 C 0.7663(12) 0.4286(4) 0.0785(5)
C33 C 0.7086(8) 0.4174(4) 0.1064(5)
H34 H 0.6473 0.4255 0.1033
C34 C 0.7424(10) 0.3941(4) 0.1388(5)
C35 C 0.8340(11) 0.3821(4) 0.1434(5)
C36 C 0.8917(9) 0.3933(5) 0.1155(6)
C37 C 0.8579(11) 0.4166(5) 0.0830(5)
H35 H 0.8965 0.4241 0.0644
C38 C 0.9915(11) 0.3791(5) 0.1129(6)
C40 C 0.977(2) 0.3425(6) 0.1051(9)
H39 H 0.9542 0.3330 0.1294
H41 H 0.9321 0.3389 0.0777
H44 H 0.9951 0.3867 0.0461
C42 C 0.6851(18) 0.3850(6) 0.1661(8)
H45 H 0.6236 0.3932 0.1590
C43 C 0.6285(12) 0.3489(6) 0.2218(6)
H46 H 0.6279 0.3258 0.2132
C44 C 0.527(2) 0.3622(15) 0.2059(15)
H47 H 0.5225 0.3853 0.2125
H48 H 0.5028 0.3585 0.1743
C45 C 0.4763(19) 0.3413(7) 0.2343(7)
H49 H 0.4800 0.3188 0.2250
H50 H 0.4099 0.3475 0.2277
C46 C 0.5114(17) 0.3427(9) 0.2851(8)
H51 H 0.5068 0.3649 0.2957
H52 H 0.4727 0.3287 0.2996
C47 C 0.6147(15) 0.3313(9) 0.2962(8)
H53 H 0.6176 0.3083 0.2891
H54 H 0.6398 0.3339 0.3279
C48 C 0.6756(17) 0.3510(7) 0.2697(8)
H55 H 0.6717 0.3740 0.2784
C49 C 0.8183(18) 0.3316(6) 0.3131(8)
H56 H 0.7825 0.3255 0.3338
C50 C 0.9197(8) 0.3268(5) 0.3258(5)
C51 C 0.9790(11) 0.3318(5) 0.2960(4)
C55 C 0.9565(9) 0.3146(4) 0.3682(4)
H58 H 0.9169 0.3112 0.3882
N9 N 0.3248(16) 0.3892(6) 0.0469(9)
C121 C 0.395(3) 0.4005(13) 0.0240(16)
C122 C 0.323(4) 0.4023(13) 0.0893(13)
H136 H 0.2746 0.3913 0.1014
H137 H 0.3083 0.4252 0.0866
H138 H 0.3831 0.3992 0.1089
C123 C 0.2567(17) 0.3664(8) 0.0258(10)
H139 H 0.2176 0.3599 0.0462
H140 H 0.2882 0.3475 0.0172
N12 N 0.828(3) 0.3945(10) 0.5662(13)
C130 C 0.893(3) 0.3955(11) 0.5369(14)
H156 H 0.8852 0.4078 0.5108
C131 C 0.851(4) 0.4150(15) 0.6044(17)
H157 H 0.8038 0.4123 0.6222
H158 H 0.8517 0.4374 0.5951
H159 H 0.9119 0.4092 0.6217
C132 C 0.746(4) 0.3742(16) 0.556(2)
H160 H 0.7093 0.3771 0.5787
H161 H 0.7653 0.3517 0.5558
H162 H 0.7089 0.3800 0.5276
Ni7 Ni 0.3957(2) 0.69613(9) 0.22137(12)
Ni8 Ni 0.6721(2) 0.44746(9) 0.27112(9)
N17 N 0.4886(11) 0.7077(4) 0.2710(7)
N18 N 0.4955(13) 0.6865(5) 0.1968(6)
N19 N 0.7220(10) 0.4651(5) 0.2256(5)
N20 N 0.7913(16) 0.4347(7) 0.2974(8)
O41 O 0.2014(12) 0.7642(4) 0.4212(5)
O42 O 0.3641(10) 0.7629(6) 0.4446(5)
O43 O 0.2861(12) 0.7063(5) 0.2431(5)
O44 O 0.3040(11) 0.6832(4) 0.1708(5)
O45 O 0.4421(9) 0.5798(5) 0.0416(5)
O46 O 0.2886(15) 0.5725(6) 0.0250(7)
O47 O 0.4516(13) 0.5037(5) 0.0422(5)
O48 O 0.3176(10) 0.5061(4) 0.0619(4)
O49 O 0.5467(12) 0.4588(4) 0.2461(4)
O50 O 0.6172(12) 0.4311(5) 0.3166(6)
O51 O 0.7238(15) 0.3339(6) 0.4790(6)
O52 O 0.8645(13) 0.3395(7) 0.4631(6)
O54 O 0.1266(10) 0.5241(4) 0.0154(5)
C193 C 0.2845(17) 0.7588(5) 0.4158(5)
C194 C 0.2860(10) 0.7451(4) 0.3690(4)
C195 C 0.2024(8) 0.7375(5) 0.3391(5)
H230 H 0.1443 0.7411 0.3470
C196 C 0.2054(9) 0.7246(5) 0.2975(4)
C197 C 0.2921(11) 0.7192(5) 0.2857(4)
C198 C 0.3758(8) 0.7268(4) 0.3156(4)
C199 C 0.3728(8) 0.7397(4) 0.3572(4)
H231 H 0.4288 0.7447 0.3772
C200 C 0.1101(12) 0.7219(5) 0.2657(6)
C201 C 0.0239(14) 0.7346(6) 0.2818(8)
H232 H 0.0221 0.7250 0.3102
H234 H 0.0278 0.7579 0.2848
C202 C 0.093(2) 0.6857(6) 0.2561(9)
H235 H 0.0962 0.6742 0.2836
H236 H 0.1410 0.6775 0.2414
H237 H 0.0319 0.6827 0.2372
C203 C 0.7595(13) 0.7089(7) 0.2833(6)
H238 H 0.7757 0.6868 0.2935
H239 H 0.8093 0.7232 0.2986
C204 C 0.1051(18) 0.7380(6) 0.2192(7)
H240 H 0.1565 0.7302 0.2066
H241 H 0.1098 0.7613 0.2226
H242 H 0.0460 0.7325 0.1998
C205 C 0.4728(14) 0.7208(6) 0.3035(7)
H243 H 0.5253 0.7283 0.3239
C206 C 0.5868(13) 0.7000(6) 0.2666(5)
H244 H 0.5969 0.6769 0.2744
C207 C 0.6665(14) 0.7185(6) 0.2967(7)
H245 H 0.6690 0.7129 0.3277
H246 H 0.6563 0.7419 0.2932
C208 C 0.7573(16) 0.7105(7) 0.2327(6)
H247 H 0.7530 0.7332 0.2232
H248 H 0.8158 0.7016 0.2269
C209 C 0.6770(12) 0.6923(5) 0.2069(6)
H249 H 0.6865 0.6692 0.2132
H250 H 0.6749 0.6955 0.1754
C210 C 0.5852(15) 0.7024(7) 0.2171(5)
H251 H 0.5775 0.7257 0.2094
C211 C 0.4907(17) 0.6681(6) 0.1636(7)
H252 H 0.5473 0.6646 0.1543
C212 C 0.4078(10) 0.6517(4) 0.1378(5)
C213 C 0.3182(13) 0.6648(4) 0.1361(5)
C214 C 0.2412(9) 0.6534(5) 0.1047(6)
C215 C 0.2539(11) 0.6290(5) 0.0750(5)
H253 H 0.2024 0.6214 0.0539
C216 C 0.3435(14) 0.6160(4) 0.0766(5)
C217 C 0.4205(10) 0.6273(5) 0.1080(6)
H254 H 0.4804 0.6186 0.1091
C218 C 0.1411(12) 0.6690(6) 0.1013(7)
C219 C 0.1593(17) 0.7063(6) 0.0981(8)
H255 H 0.1011 0.7180 0.0969
H256 H 0.1828 0.7107 0.0716
H257 H 0.2052 0.7132 0.1238
C220 C 0.100(2) 0.6568(8) 0.1408(9)
H258 H 0.0396 0.6667 0.1397
H259 H 0.1425 0.6626 0.1682
H260 H 0.0934 0.6335 0.1391
C221 C 0.0668(15) 0.6494(6) 0.0665(7)
H261 H 0.0050 0.6587 0.0647
H262 H 0.0664 0.6270 0.0757
H263 H 0.0835 0.6505 0.0378
C222 C 0.4045(14) 0.5045(7) 0.0717(7)
C223 C 0.3564(13) 0.5883(6) 0.0457(8)
C224 C 0.4472(11) 0.4895(5) 0.1161(3)
C225 C 0.5442(10) 0.4863(5) 0.1320(4)
H264 H 0.5859 0.4905 0.1132
C226 C 0.5791(8) 0.4768(5) 0.1759(4)
C227 C 0.5169(10) 0.4705(5) 0.2039(3)
C228 C 0.4198(9) 0.4737(5) 0.1881(4)
C229 C 0.3850(8) 0.4832(5) 0.1442(4)
H265 H 0.3200 0.4854 0.1336
C230 C 0.2453(15) 0.4743(6) 0.1954(8)
H266 H 0.2032 0.4680 0.2145
H267 H 0.2264 0.4636 0.1671
H268 H 0.2427 0.4975 0.1912
C231 C 0.3468(13) 0.4641(5) 0.2170(6)
C232 C 0.3507(18) 0.4273(5) 0.2240(8)
H269 H 0.3057 0.4210 0.2415
H270 H 0.4133 0.4211 0.2393
H271 H 0.3357 0.4165 0.1956
C233 C 0.3693(15) 0.4826(6) 0.2613(6)
H272 H 0.3238 0.4769 0.2789
H273 H 0.3667 0.5057 0.2557
H274 H 0.4317 0.4768 0.2773
C234 C 0.6782(16) 0.4746(6) 0.1877(6)
H275 H 0.7133 0.4804 0.1666
C235 C 0.8813(14) 0.4740(7) 0.2032(8)
H276 H 0.8611 0.4950 0.1899
H277 H 0.8698 0.4573 0.1801
C237 C 0.9602(14) 0.4390(5) 0.2888(6)
H280 H 0.9798 0.4192 0.3056
H281 H 0.9693 0.4572 0.3094
C238 C 0.8190(18) 0.4185(7) 0.3308(7)
H282 H 0.8838 0.4152 0.3405
C239 C 0.8301(10) 0.4659(6) 0.2400(7)
H283 H 0.8441 0.4841 0.2612
C240 C 0.9889(12) 0.4748(6) 0.2269(7)
C241 C 0.856(2) 0.4364(6) 0.2667(8)
H285 H 0.8461 0.4172 0.2470
C242 C 0.7508(9) 0.4030(4) 0.3582(4)
C243 C 0.6598(10) 0.4152(4) 0.3553(4)
C244 C 0.6081(9) 0.4063(5) 0.3870(5)
C245 C 0.6474(11) 0.3853(5) 0.4215(5)
H286 H 0.6127 0.3794 0.4427
C246 C 0.7384(12) 0.3732(5) 0.4244(5)
C247 C 0.7901(9) 0.3820(5) 0.3927(5)
H287 H 0.8510 0.3738 0.3947
C248 C 0.4349(18) 0.4157(8) 0.3525(8)
H288 H 0.4479 0.4217 0.3241
H289 H 0.3784 0.4265 0.3566
H290 H 0.4264 0.3925 0.3536
C249 C 0.5185(15) 0.4260(6) 0.3897(8)
C250 C 0.4915(19) 0.4198(7) 0.4354(8)
H291 H 0.4353 0.4319 0.4369
H292 H 0.5425 0.4266 0.4589
H293 H 0.4799 0.3969 0.4385
C251 C 0.5232(15) 0.4627(5) 0.3830(8)
H294 H 0.5432 0.4670 0.3556
H295 H 0.5678 0.4721 0.4074
H296 H 0.4618 0.4721 0.3817
C252 C 0.7761(16) 0.3468(6) 0.4559(7)
H297 H 0.5981 0.3898 0.0020
H303 H 0.7821 0.3762 0.0001
N22 N 0.0477(18) 0.5201(9) 0.0749(10)
C256 C 0.099(2) 0.5386(7) 0.0446(10)
H304 H 0.1101 0.5610 0.0484
C257 C 0.003(5) 0.4872(9) 0.0772(15)
H305 H 0.0171 0.4735 0.0539
H307 H 0.0284 0.4774 0.1057
C258 C 0.042(5) 0.5443(16) 0.1118(15)
H308 H 0.0678 0.5649 0.1053
H309 H 0.0770 0.5361 0.1397
Cd12 Cd 0.5000 0.75348(7) 0.5000
Cd14 Cd 0.75561(15) 0.27896(6) 0.49348(6)
Cd16 Cd 0.74439(15) 0.77896(6) 0.50652(6)
Cd18 Cd 0.25561(15) 0.77896(6) 0.49348(6)
O60 O 0.9397(18) 0.2201(6) 0.5424(8)
O61 O 0.9617(10) 0.2968(4) 0.5407(5)
O66 O 0.8641(10) 0.2629(6) 0.4446(5)
H326 H 0.409119 0.630997 0.24191
Cd1_2 Cd 0.5000 0.54722(7) 1.0000
Cd6_2 Cd 0.5000 0.46198(9) 1.0000
Ni3 Ni 0.6043(2) 0.69613(9) 0.77863(12)
Ni4 Ni 0.3279(2) 0.44746(9) 0.72888(9)
N5 N 0.5114(11) 0.7077(4) 0.7290(7)
N6 N 0.5045(13) 0.6865(5) 0.8032(6)
N7 N 0.2780(10) 0.4651(5) 0.7744(5)
N8 N 0.2087(16) 0.4347(7) 0.7026(8)
O13 O 0.7986(12) 0.7642(4) 0.5788(5)
O14 O 0.6359(10) 0.7629(6) 0.5554(5)
O15 O 0.7139(12) 0.7063(5) 0.7569(5)
O16 O 0.6960(11) 0.6832(4) 0.8292(5)
O17 O 0.5579(9) 0.5798(5) 0.9584(5)
O18 O 0.7114(15) 0.5725(6) 0.9750(7)
O19 O 0.5484(13) 0.5037(5) 0.9578(5)
O20 O 0.6824(10) 0.5061(4) 0.9381(4)
O21 O 0.4533(12) 0.4588(4) 0.7539(4)
O22 O 0.3828(12) 0.4311(5) 0.6834(6)
O26 O 0.8734(10) 0.5241(4) 0.9846(5)
C61 C 0.7155(17) 0.7588(5) 0.5842(5)
C62 C 0.7140(10) 0.7451(4) 0.6310(4)
C63 C 0.7976(8) 0.7375(5) 0.6609(5)
H68 H 0.8557 0.7411 0.6530
C64 C 0.7946(9) 0.7246(5) 0.7025(4)
C65 C 0.7079(11) 0.7192(5) 0.7143(4)
C66 C 0.6242(8) 0.7268(4) 0.6844(4)
C67 C 0.6272(8) 0.7397(4) 0.6428(4)
H69 H 0.5712 0.7447 0.6228
C68 C 0.8899(12) 0.7219(5) 0.7343(6)
C69 C 0.9761(14) 0.7346(6) 0.7182(8)
H70 H 0.9779 0.7250 0.6898
H72 H 0.9722 0.7579 0.7152
C70 C 0.907(2) 0.6857(6) 0.7439(9)
H73 H 0.9038 0.6742 0.7164
H74 H 0.8590 0.6775 0.7586
H75 H 0.9681 0.6827 0.7628
C71 C 0.2405(13) 0.7089(7) 0.7167(6)
H76 H 0.2243 0.6868 0.7065
H77 H 0.1907 0.7232 0.7014
C72 C 0.8949(18) 0.7380(6) 0.7808(7)
H78 H 0.8435 0.7302 0.7934
H79 H 0.8902 0.7613 0.7774
H80 H 0.9540 0.7325 0.8002
C73 C 0.5272(14) 0.7208(6) 0.6965(7)
H81 H 0.4747 0.7283 0.6761
C74 C 0.4132(13) 0.7000(6) 0.7334(5)
H82 H 0.4031 0.6769 0.7256
C75 C 0.3335(14) 0.7185(6) 0.7033(7)
H83 H 0.3310 0.7129 0.6723
H84 H 0.3437 0.7419 0.7068
C76 C 0.2427(16) 0.7105(7) 0.7673(6)
H85 H 0.2470 0.7332 0.7768
H86 H 0.1842 0.7016 0.7731
C77 C 0.3230(12) 0.6923(5) 0.7931(6)
H87 H 0.3135 0.6692 0.7868
H88 H 0.3251 0.6955 0.8246
C78 C 0.4148(15) 0.7024(7) 0.7829(5)
H89 H 0.4225 0.7257 0.7906
C79 C 0.5093(17) 0.6681(6) 0.8364(7)
H90 H 0.4527 0.6646 0.8457
C80 C 0.5922(10) 0.6517(4) 0.8622(5)
C81 C 0.6818(13) 0.6648(4) 0.8639(5)
C82 C 0.7588(9) 0.6534(5) 0.8953(6)
C83 C 0.7461(11) 0.6290(5) 0.9250(5)
H91 H 0.7976 0.6214 0.9461
C84 C 0.6565(14) 0.6160(4) 0.9234(5)
C85 C 0.5795(10) 0.6273(5) 0.8920(6)
H92 H 0.5196 0.6186 0.8909
C86 C 0.8589(12) 0.6690(6) 0.8987(7)
C87 C 0.8407(17) 0.7063(6) 0.9019(8)
H93 H 0.8989 0.7180 0.9031
H94 H 0.8172 0.7107 0.9284
H95 H 0.7948 0.7132 0.8762
C88 C 0.900(2) 0.6568(8) 0.8592(9)
H96 H 0.9604 0.6667 0.8603
H97 H 0.8575 0.6626 0.8318
H98 H 0.9066 0.6335 0.8609
C89 C 0.9332(15) 0.6494(6) 0.9335(7)
H99 H 0.9950 0.6587 0.9353
H100 H 0.9336 0.6270 0.9243
H101 H 0.9165 0.6505 0.9622
C90 C 0.5955(14) 0.5045(7) 0.9283(7)
C91 C 0.6436(13) 0.5883(6) 0.9543(8)
C92 C 0.5528(11) 0.4895(5) 0.8839(3)
C93 C 0.4558(10) 0.4863(5) 0.8680(4)
H102 H 0.4141 0.4905 0.8868
C94 C 0.4209(8) 0.4768(5) 0.8241(4)
C95 C 0.4831(10) 0.4705(5) 0.7961(3)
C96 C 0.5802(9) 0.4737(5) 0.8119(4)
C97 C 0.6150(8) 0.4832(5) 0.8558(4)
H103 H 0.6800 0.4854 0.8664
C98 C 0.7547(15) 0.4743(6) 0.8046(8)
H104 H 0.7968 0.4680 0.7855
H105 H 0.7736 0.4636 0.8329
H106 H 0.7573 0.4975 0.8088
C99 C 0.6532(13) 0.4641(5) 0.7830(6)
C100 C 0.6493(18) 0.4273(5) 0.7760(8)
H107 H 0.6943 0.4210 0.7585
H108 H 0.5867 0.4211 0.7607
H109 H 0.6643 0.4165 0.8044
C101 C 0.6307(15) 0.4826(6) 0.7387(6)
H110 H 0.6762 0.4769 0.7211
H111 H 0.6333 0.5057 0.7443
H112 H 0.5683 0.4768 0.7227
C102 C 0.3218(16) 0.4746(6) 0.8123(6)
H113 H 0.2867 0.4804 0.8334
C103 C 0.1187(14) 0.4740(7) 0.7968(8)
H114 H 0.1389 0.4950 0.8101
H115 H 0.1302 0.4573 0.8199
C105 C 0.0398(14) 0.4390(5) 0.7112(6)
H118 H 0.0202 0.4192 0.6944
H119 H 0.0307 0.4572 0.6906
C106 C 0.1810(18) 0.4185(7) 0.6692(7)
H120 H 0.1162 0.4152 0.6595
C107 C 0.1699(10) 0.4659(6) 0.7600(7)
H121 H 0.1559 0.4841 0.7388
C108 C 0.0111(12) 0.4748(6) 0.7731(7)
C109 C 0.144(2) 0.4364(6) 0.7333(8)
H123 H 0.1539 0.4172 0.7530
C110 C 0.2492(9) 0.4030(4) 0.6418(4)
C111 C 0.3402(10) 0.4152(4) 0.6447(4)
C112 C 0.3919(9) 0.4063(5) 0.6130(5)
C113 C 0.3526(11) 0.3853(5) 0.5785(5)
H124 H 0.3873 0.3794 0.5573
C114 C 0.2616(12) 0.3732(5) 0.5756(5)
C115 C 0.2099(9) 0.3820(5) 0.6073(5)
H125 H 0.1490 0.3738 0.6053
C116 C 0.5651(18) 0.4157(8) 0.6475(8)
H126 H 0.5521 0.4217 0.6759
H127 H 0.6216 0.4265 0.6434
H128 H 0.5736 0.3925 0.6464
C117 C 0.4815(15) 0.4260(6) 0.6103(8)
C118 C 0.5085(19) 0.4198(7) 0.5646(8)
H129 H 0.5647 0.4319 0.5631
H130 H 0.4575 0.4266 0.5411
H131 H 0.5201 0.3969 0.5615
C119 C 0.4768(15) 0.4627(5) 0.6170(8)
H132 H 0.4568 0.4670 0.6444
H133 H 0.4322 0.4721 0.5926
H134 H 0.5382 0.4721 0.6183
C120 C 0.2239(16) 0.3468(6) 0.5441(7)
H135 H 0.4019 0.3898 0.9980
H141 H 0.2179 0.3762 0.9999
N10 N 0.9523(18) 0.5201(9) 0.9251(10)
C124 C 0.901(2) 0.5386(7) 0.9554(10)
H142 H 0.8899 0.5610 0.9516
C125 C 0.997(5) 0.4872(9) 0.9228(15)
H143 H 0.9829 0.4735 0.9461
H145 H 0.9716 0.4774 0.8943
C126 C 0.958(5) 0.5443(16) 0.8882(15)
H146 H 0.9322 0.5649 0.8947
H147 H 0.9230 0.5361 0.8603
Cd7 Cd 0.25520(13) 0.52289(5) 0.99494(6)
Ni5 Ni 0.3969(2) 0.60624(9) 0.72115(10)
Ni6 Ni 0.1734(3) 0.35384(10) 0.77323(11)
N13 N 0.5022(14) 0.6230(5) 0.7010(6)
N14 N 0.4814(11) 0.5843(5) 0.7660(6)
N15 N 0.2957(12) 0.3660(5) 0.7982(5)
N16 N 0.2294(16) 0.3441(6) 0.7260(6)
O29 O 0.2801(12) 0.7240(4) 0.5176(5)
O30 O 0.4397(18) 0.7201(6) 0.5424(8)
O31 O 0.3106(12) 0.6229(5) 0.6743(5)
O32 O 0.3017(9) 0.5925(5) 0.7464(4)
O33 O 0.3573(12) 0.5440(5) 0.9451(5)
O34 O 0.2096(11) 0.5428(5) 0.9250(5)
O35 O 0.3449(15) 0.4689(6) 0.9555(6)
O36 O 0.2021(14) 0.4709(6) 0.9679(5)
O37 O 0.1251(9) 0.3641(3) 0.8224(4)
O38 O 0.0547(11) 0.3448(5) 0.7429(4)
O53 O 0.552(3) 0.4241(9) 0.9624(10)
C133 C 0.3556(16) 0.7139(7) 0.5431(8)
C134 C 0.3453(9) 0.6847(4) 0.5734(4)
C135 C 0.2554(8) 0.6740(4) 0.5765(5)
H163 H 0.2025 0.6814 0.5561
C136 C 0.2447(7) 0.6524(4) 0.6101(5)
C137 C 0.3238(9) 0.6415(4) 0.6406(4)
C138 C 0.4136(8) 0.6522(4) 0.6374(4)
C139 C 0.4244(7) 0.6738(4) 0.6038(5)
H164 H 0.4845 0.6809 0.6017
C140 C 0.140(2) 0.5981(6) 0.6056(12)
H165 H 0.1770 0.5905 0.6335
H166 H 0.1639 0.5885 0.5815
H167 H 0.0751 0.5918 0.6032
C141 C 0.1471(13) 0.6355(6) 0.6033(8)
C142 C 0.101(2) 0.6439(13) 0.6430(9)
H168 H 0.1448 0.6393 0.6705
H169 H 0.0449 0.6309 0.6414
H170 H 0.0843 0.6666 0.6420
C143 C 0.0805(17) 0.6397(7) 0.5562(7)
H171 H 0.1146 0.6341 0.5335
H172 H 0.0597 0.6620 0.5524
H173 H 0.0265 0.6256 0.5539
C144 C 0.5009(15) 0.6414(5) 0.6681(6)
H174 H 0.5586 0.6487 0.6628
C145 C 0.5875(13) 0.6131(6) 0.7315(7)
C146 C 0.6792(13) 0.6206(6) 0.7156(7)
H175 H 0.6857 0.6441 0.7131
H176 H 0.6754 0.6112 0.6863
C147 C 0.7684(18) 0.6068(7) 0.7481(10)
H177 H 0.8179 0.6030 0.7315
H178 H 0.7914 0.6230 0.7709
C148 C 0.7490(16) 0.5751(5) 0.7704(8)
H179 H 0.8038 0.5701 0.7937
H180 H 0.7426 0.5577 0.7485
C149 C 0.6615(17) 0.5748(7) 0.7910(8)
H181 H 0.6528 0.5534 0.8031
H182 H 0.6680 0.5907 0.8149
C150 C 0.5801(11) 0.5832(5) 0.7549(6)
H183 H 0.5771 0.5658 0.7326
C151 C 0.465(2) 0.5740(7) 0.8053(8)
H184 H 0.5155 0.5655 0.8262
C152 C 0.3809(9) 0.5753(5) 0.8157(5)
C153 C 0.2961(11) 0.5805(5) 0.7854(4)
C154 C 0.2104(9) 0.5751(5) 0.7982(4)
C155 C 0.2096(9) 0.5645(5) 0.8412(5)
H185 H 0.1523 0.5609 0.8498
C156 C 0.2944(11) 0.5594(5) 0.8715(4)
C157 C 0.3801(9) 0.5648(5) 0.8587(4)
H186 H 0.4369 0.5614 0.8790
C158 C 0.1190(12) 0.5879(5) 0.7663(7)
C159 C 0.109(2) 0.5699(8) 0.7217(9)
H187 H 0.1625 0.5747 0.7089
H188 H 0.0520 0.5770 0.7018
H189 H 0.1055 0.5468 0.7266
C160 C 0.0340(15) 0.5805(6) 0.7887(8)
H191 H 0.0427 0.5918 0.8167
H192 H 0.0304 0.5574 0.7936
C161 C 0.1107(19) 0.6246(5) 0.7574(9)
H193 H 0.1618 0.6317 0.7440
H194 H 0.1137 0.6360 0.7851
H195 H 0.0514 0.6293 0.7376
C162 C 0.2871(16) 0.5495(7) 0.9158(8)
C163 C 0.272(2) 0.4585(7) 0.9518(10)
C164 C 0.2337(12) 0.4286(4) 0.9215(5)
C165 C 0.2914(8) 0.4174(4) 0.8936(5)
H196 H 0.3527 0.4255 0.8967
C166 C 0.2576(10) 0.3941(4) 0.8612(5)
C167 C 0.1660(11) 0.3821(4) 0.8566(5)
C168 C 0.1083(9) 0.3933(5) 0.8845(6)
C169 C 0.1421(11) 0.4166(5) 0.9170(5)
H197 H 0.1035 0.4241 0.9356
C170 C 0.0085(11) 0.3791(5) 0.8871(6)
C172 C 0.023(2) 0.3425(6) 0.8949(9)
H201 H 0.0458 0.3330 0.8706
H203 H 0.0679 0.3389 0.9223
H206 H 0.0049 0.3867 0.9539
C174 C 0.3149(18) 0.3850(6) 0.8339(8)
H207 H 0.3764 0.3932 0.8410
C175 C 0.3715(12) 0.3489(6) 0.7782(6)
H208 H 0.3721 0.3258 0.7868
C176 C 0.473(2) 0.3622(15) 0.7941(15)
H209 H 0.4775 0.3853 0.7875
H210 H 0.4972 0.3585 0.8257
C177 C 0.5237(19) 0.3413(7) 0.7657(7)
H211 H 0.5200 0.3188 0.7750
H212 H 0.5901 0.3475 0.7723
C178 C 0.4886(17) 0.3427(9) 0.7149(8)
H213 H 0.4932 0.3649 0.7043
H214 H 0.5273 0.3287 0.7004
C179 C 0.3853(15) 0.3313(9) 0.7038(8)
H215 H 0.3824 0.3083 0.7109
H216 H 0.3602 0.3339 0.6721
C180 C 0.3244(17) 0.3510(7) 0.7303(8)
H217 H 0.3283 0.3740 0.7216
C181 C 0.1817(18) 0.3316(6) 0.6869(8)
H218 H 0.2175 0.3255 0.6662
C182 C 0.0803(8) 0.3268(5) 0.6742(5)
C183 C 0.0210(11) 0.3318(5) 0.7040(4)
C187 C 0.0435(9) 0.3146(4) 0.6318(4)
H220 H 0.0831 0.3112 0.6118
N21 N 0.6752(16) 0.3892(6) 0.9531(9)
C253 C 0.605(3) 0.4005(13) 0.9760(16)
C254 C 0.677(4) 0.4023(13) 0.9107(13)
H298 H 0.7254 0.3913 0.8986
H299 H 0.6917 0.4252 0.9134
H300 H 0.6169 0.3992 0.8911
C255 C 0.7433(17) 0.3664(8) 0.9742(10)
H301 H 0.7824 0.3599 0.9538
H302 H 0.7118 0.3475 0.9828
H327 H 0.590881 0.630997 0.75809
C104 C 0.9766(13) 0.4440(7) 0.7470(7)
H116 H 0.9105 0.4464 0.7324
H117 H 0.9824 0.4254 0.7669
H122 H 0.9720 0.4926 0.7749
O39 O 0.8255(14) 0.2882(5) 0.5622(6)
H190 H 0.9763 0.5878 0.7696
C171 C 0.9413(17) 0.3910(9) 0.8442(9)
H198 H 0.9668 0.3851 0.8187
H199 H 0.9348 0.4143 0.8452
H200 H 0.8803 0.3810 0.8419
H202 H 0.9634 0.3326 0.8968
C173 C 0.9634(18) 0.3916(7) 0.9259(8)
H204 H 0.9036 0.3810 0.9245
H205 H 0.9540 0.4148 0.9232
C184 C 0.9250(10) 0.3247(5) 0.6914(4)
C185 C 0.8882(8) 0.3125(4) 0.6490(5)
H219 H 0.8240 0.3077 0.6406
C186 C 0.9474(10) 0.3074(4) 0.6192(3)
C188 C 0.8541(11) 0.3299(5) 0.7232(5)
C189 C 0.8501(16) 0.3665(5) 0.7347(6)
H221 H 0.9124 0.3739 0.7487
H222 H 0.8079 0.3696 0.7548
H223 H 0.8276 0.3788 0.7079
C190 C 0.8894(17) 0.3102(6) 0.7670(7)
H224 H 0.9509 0.3180 0.7815
H225 H 0.8934 0.2875 0.7600
H226 H 0.8458 0.3131 0.7865
C191 C 0.7532(17) 0.3168(8) 0.7023(10)
H227 H 0.7118 0.3204 0.7226
H228 H 0.7567 0.2938 0.6964
H229 H 0.7289 0.3281 0.6748
C192 C 0.9065(16) 0.3011(7) 0.5706(8)
N23 N 0.5531(10) 0.2779(4) 0.5772(4)
O55 O 0.5914(18) 0.2756(7) 0.5078(7)
C259 C 0.6023(17) 0.2879(7) 0.5445(7)
H311 H 0.6457 0.3048 0.5514
C260 C 0.532(3) 0.2438(5) 0.5798(12)
H312 H 0.5624 0.2318 0.5597
H313 H 0.4650 0.2405 0.5718
H314 H 0.5555 0.2362 0.6097
C261 C 0.522(3) 0.3021(7) 0.6048(11)
H315 H 0.5454 0.3231 0.5985
H316 H 0.5449 0.2968 0.6356
H317 H 0.4537 0.3026 0.5986
O58 O 0.7801(12) 0.2240(4) 0.5176(5)
O63 O 0.7014(12) 0.2642(4) 0.4212(5)
H325 H 0.99227 0.464287 0.802731
Cd1_3 Cd 0.0000 0.04722(7) 0.0000
Cd2_2 Cd 0.24480(13) 0.02289(5) 0.00506(6)
Ni1_2 Ni 0.1031(2) 0.10624(9) 0.27885(10)
N2_2 N 0.0186(11) 0.0843(5) 0.2340(6)
O3_2 O 0.1894(12) 0.1229(5) 0.3257(5)
O4_2 O 0.1983(9) 0.0925(5) 0.2536(4)
O5_2 O 0.1427(12) 0.0440(5) 0.0549(5)
O6_2 O 0.2904(11) 0.0428(5) 0.0750(5)
C1_2 C 0.1444(16) 0.2139(7) 0.4569(8)
C2_2 C 0.1547(9) 0.1847(4) 0.4266(4)
C3_2 C 0.2446(8) 0.1740(4) 0.4235(5)
H1_2 H 0.2975 0.1814 0.4439
C4_2 C 0.2553(7) 0.1524(4) 0.3899(5)
C5_2 C 0.1762(9) 0.1415(4) 0.3594(4)
C6_2 C 0.0864(8) 0.1522(4) 0.3626(4)
C7_2 C 0.0756(7) 0.1738(4) 0.3962(5)
H2_2 H 0.0155 0.1809 0.3983
C8_2 C 0.360(2) 0.0981(6) 0.3944(12)
H3_2 H 0.3230 0.0905 0.3665
H4_2 H 0.3361 0.0885 0.4185
H5_2 H 0.4249 0.0918 0.3968
C9_2 C 0.3529(13) 0.1355(6) 0.3967(8)
C10_2 C 0.399(2) 0.1439(13) 0.3570(9)
H6_2 H 0.3552 0.1393 0.3295
H7_2 H 0.4551 0.1309 0.3586
H8_2 H 0.4157 0.1666 0.3580
C11_2 C 0.4195(17) 0.1397(7) 0.4438(7)
H9_2 H 0.3854 0.1341 0.4665
H10_2 H 0.4403 0.1620 0.4476
H11_2 H 0.4735 0.1256 0.4461
C19_2 C 0.035(2) 0.0740(7) 0.1947(8)
C20_2 C 0.1191(9) 0.0753(5) 0.1843(5)
C21_2 C 0.2039(11) 0.0805(5) 0.2146(4)
C22_2 C 0.2896(9) 0.0751(5) 0.2018(4)
C23_2 C 0.2904(9) 0.0645(5) 0.1588(5)
H23_2 H 0.3477 0.0609 0.1502
C24_2 C 0.2056(11) 0.0594(5) 0.1285(4)
C25_2 C 0.1199(9) 0.0648(5) 0.1413(4)
H24_2 H 0.0631 0.0614 0.1210
C26_2 C 0.3810(12) 0.0879(5) 0.2337(7)
C27_2 C 0.391(2) 0.0699(8) 0.2783(9)
H25_2 H 0.3375 0.0747 0.2911
H26_2 H 0.4480 0.0770 0.2982
H27_2 H 0.3945 0.0468 0.2734
C28_2 C 0.4660(15) 0.0805(6) 0.2113(8)
H28_2 H 0.5237 0.0878 0.2304
H29_2 H 0.4573 0.0918 0.1833
H30_2 H 0.4696 0.0574 0.2064
C29_2 C 0.3893(19) 0.1246(5) 0.2426(9)
H31_2 H 0.3382 0.1317 0.2560
H32_2 H 0.3863 0.1360 0.2149
H33_2 H 0.4486 0.1293 0.2624
C30_2 C 0.2129(16) 0.0495(7) 0.0842(8)
C203_2 C 0.2595(13) 0.2089(7) 0.2833(6)
H238_2 H 0.2757 0.1868 0.2935
H239_2 H 0.3093 0.2232 0.2986
H243_2 H 0.0253 0.2283 0.3239
C206_2 C 0.0868(13) 0.2000(6) 0.2666(5)
H244_2 H 0.0969 0.1769 0.2744
C207_2 C 0.1665(14) 0.2185(6) 0.2967(7)
H245_2 H 0.1690 0.2129 0.3277
H246_2 H 0.1563 0.2419 0.2932
C208_2 C 0.2573(16) 0.2105(7) 0.2327(6)
H247_2 H 0.2530 0.2332 0.2232
H248_2 H 0.3158 0.2016 0.2269
C209_2 C 0.1770(12) 0.1923(5) 0.2069(6)
H249_2 H 0.1865 0.1692 0.2132
H250_2 H 0.1749 0.1955 0.1754
C210_2 C 0.0852(15) 0.2024(7) 0.2171(5)
H251_2 H 0.0775 0.2257 0.2094
H252_2 H 0.0473 0.1646 0.1543
Cd1_4 Cd 0.0000 0.04722(7) 1.0000
Ni3_2 Ni 0.1043(2) 0.19613(9) 0.77863(12)
N5_2 N 0.0114(11) 0.2077(4) 0.7290(7)
N6_2 N 0.0045(13) 0.1865(5) 0.8032(6)
O15_2 O 0.2139(12) 0.2063(5) 0.7569(5)
O16_2 O 0.1960(11) 0.1832(4) 0.8292(5)
O17_2 O 0.0579(9) 0.0798(5) 0.9584(5)
O18_2 O 0.2114(15) 0.0725(6) 0.9750(7)
O19_2 O 0.0484(13) 0.0037(5) 0.9578(5)
O20_2 O 0.1824(10) 0.0061(4) 0.9381(4)
O26_2 O 0.3734(10) 0.0241(4) 0.9846(5)
C61_2 C 0.2155(17) 0.2588(5) 0.5842(5)
C62_2 C 0.2140(10) 0.2451(4) 0.6310(4)
C63_2 C 0.2976(8) 0.2375(5) 0.6609(5)
H68_2 H 0.3557 0.2411 0.6530
C64_2 C 0.2946(9) 0.2246(5) 0.7025(4)
C65_2 C 0.2079(11) 0.2192(5) 0.7143(4)
C66_2 C 0.1242(8) 0.2268(4) 0.6844(4)
C67_2 C 0.1272(8) 0.2397(4) 0.6428(4)
H69_2 H 0.0712 0.2447 0.6228
C68_2 C 0.3899(12) 0.2219(5) 0.7343(6)
C69_2 C 0.4761(14) 0.2346(6) 0.7182(8)
H70_2 H 0.4779 0.2250 0.6898
H71 H 0.5326 0.2288 0.7393
H72_2 H 0.4722 0.2579 0.7152
C70_2 C 0.407(2) 0.1857(6) 0.7439(9)
H73_2 H 0.4038 0.1742 0.7164
H74_2 H 0.3590 0.1775 0.7586
H75_2 H 0.4681 0.1827 0.7628
C72_2 C 0.3949(18) 0.2380(6) 0.7808(7)
H78_2 H 0.3435 0.2302 0.7934
H79_2 H 0.3902 0.2613 0.7774
H80_2 H 0.4540 0.2325 0.8002
C73_2 C 0.0272(14) 0.2208(6) 0.6965(7)
C79_2 C 0.0093(17) 0.1681(6) 0.8364(7)
C80_2 C 0.0922(10) 0.1517(4) 0.8622(5)
C81_2 C 0.1818(13) 0.1648(4) 0.8639(5)
C82_2 C 0.2588(9) 0.1534(5) 0.8953(6)
C83_2 C 0.2461(11) 0.1290(5) 0.9250(5)
H91_2 H 0.2976 0.1214 0.9461
C84_2 C 0.1565(14) 0.1160(4) 0.9234(5)
C85_2 C 0.0795(10) 0.1273(5) 0.8920(6)
H92_2 H 0.0196 0.1186 0.8909
C86_2 C 0.3589(12) 0.1690(6) 0.8987(7)
C87_2 C 0.3407(17) 0.2063(6) 0.9019(8)
H93_2 H 0.3989 0.2180 0.9031
H94_2 H 0.3172 0.2107 0.9284
H95_2 H 0.2948 0.2132 0.8762
C88_2 C 0.400(2) 0.1568(8) 0.8592(9)
H96_2 H 0.4604 0.1667 0.8603
H97_2 H 0.3575 0.1626 0.8318
H98_2 H 0.4066 0.1335 0.8609
C89_2 C 0.4332(15) 0.1494(6) 0.9335(7)
H99_2 H 0.4950 0.1587 0.9353
H100_2 H 0.4336 0.1270 0.9243
H101_2 H 0.4165 0.1505 0.9622
C90_2 C 0.0955(14) 0.0045(7) 0.9283(7)
C91_2 C 0.1436(13) 0.0883(6) 0.9543(8)
H111_2 H 0.1333 0.0057 0.7443
N10_2 N 0.4523(18) 0.0201(9) 0.9251(10)
C124_2 C 0.401(2) 0.0386(7) 0.9554(10)
H142_2 H 0.3899 0.0610 0.9516
C126_2 C 0.458(5) 0.0443(16) 0.8882(15)
H146_2 H 0.4322 0.0649 0.8947
H147_2 H 0.4230 0.0361 0.8603
H148 H 0.5233 0.0472 0.8863
N13_2 N 0.0022(14) 0.1230(5) 0.7010(6)
C144_2 C 0.0009(15) 0.1414(5) 0.6681(6)
H174_2 H 0.0586 0.1487 0.6628
C145_2 C 0.0875(13) 0.1131(6) 0.7315(7)
C146_2 C 0.1792(13) 0.1206(6) 0.7156(7)
H175_2 H 0.1857 0.1441 0.7131
H176_2 H 0.1754 0.1112 0.6863
C147_2 C 0.2684(18) 0.1068(7) 0.7481(10)
H177_2 H 0.3179 0.1030 0.7315
H178_2 H 0.2914 0.1230 0.7709
C148_2 C 0.2490(16) 0.0751(5) 0.7704(8)
H179_2 H 0.3038 0.0701 0.7937
H180_2 H 0.2426 0.0577 0.7485
C149_2 C 0.1615(17) 0.0748(7) 0.7910(8)
H181_2 H 0.1528 0.0534 0.8031
H182_2 H 0.1680 0.0907 0.8149
C150_2 C 0.0801(11) 0.0832(5) 0.7549(6)
H183_2 H 0.0771 0.0658 0.7326
H184_2 H 0.0155 0.0655 0.8262
H327_2 H 0.0908811 0.130997 0.75809
Cd3_3 Cd 0.5000 0.83899(9) 0.5000
Cd6_3 Cd -0.0000 0.96198(9) 0.0000
Ni2_2 Ni 0.3266(3) 0.85384(10) 0.22677(11)
N3_2 N 0.2043(12) 0.8660(5) 0.2018(5)
N4_2 N 0.2706(16) 0.8441(6) 0.2740(6)
O7_2 O 0.1551(15) 0.9689(6) 0.0445(6)
O8_2 O 0.2979(14) 0.9709(6) 0.0321(5)
O9_2 O 0.3749(9) 0.8641(3) 0.1776(4)
O10_2 O 0.4453(11) 0.8448(5) 0.2571(4)
O11_2 O 0.6745(14) 0.7882(5) 0.4378(6)
O12_2 O 0.5383(10) 0.7968(4) 0.4593(5)
O27_2 O 0.4592(17) 0.8781(6) 0.5510(8)
C31_2 C 0.228(2) 0.9585(7) 0.0482(10)
C32_2 C 0.2663(12) 0.9286(4) 0.0785(5)
C33_2 C 0.2086(8) 0.9174(4) 0.1064(5)
H34_2 H 0.1473 0.9255 0.1033
C34_2 C 0.2424(10) 0.8941(4) 0.1388(5)
C35_2 C 0.3340(11) 0.8821(4) 0.1434(5)
C36_2 C 0.3917(9) 0.8933(5) 0.1155(6)
C37_2 C 0.3579(11) 0.9166(5) 0.0830(5)
H35_2 H 0.3965 0.9241 0.0644
C38_2 C 0.4915(11) 0.8791(5) 0.1129(6)
C39_2 C 0.5587(17) 0.8910(9) 0.1558(9)
H36_2 H 0.5332 0.8851 0.1813
H37_2 H 0.5652 0.9143 0.1548
H38_2 H 0.6197 0.8810 0.1581
C40_2 C 0.477(2) 0.8425(6) 0.1051(9)
H39_2 H 0.4542 0.8330 0.1294
H40_2 H 0.5366 0.8326 0.1032
H41_2 H 0.4321 0.8389 0.0777
C41_2 C 0.5366(18) 0.8916(7) 0.0741(8)
H42_2 H 0.5964 0.8810 0.0755
H43_2 H 0.5460 0.9148 0.0768
H44_2 H 0.4951 0.8867 0.0461
C42_2 C 0.1851(18) 0.8850(6) 0.1661(8)
H45_2 H 0.1236 0.8932 0.1590
C43_2 C 0.1285(12) 0.8489(6) 0.2218(6)
H46_2 H 0.1279 0.8258 0.2132
C44_2 C 0.027(2) 0.8622(15) 0.2059(15)
H47_2 H 0.0225 0.8853 0.2125
H48_2 H 0.0028 0.8585 0.1743
C46_2 C 0.0114(17) 0.8427(9) 0.2851(8)
H51_2 H 0.0068 0.8649 0.2957
C47_2 C 0.1147(15) 0.8313(9) 0.2962(8)
H53_2 H 0.1176 0.8083 0.2891
H54_2 H 0.1398 0.8339 0.3279
C48_2 C 0.1756(17) 0.8510(7) 0.2697(8)
H55_2 H 0.1717 0.8740 0.2784
C49_2 C 0.3183(18) 0.8316(6) 0.3131(8)
H56_2 H 0.2825 0.8255 0.3338
C50_2 C 0.4197(8) 0.8268(5) 0.3258(5)
C51_2 C 0.4790(11) 0.8318(5) 0.2960(4)
C52_2 C 0.5750(10) 0.8247(5) 0.3086(4)
C53_2 C 0.6118(8) 0.8125(4) 0.3510(5)
H57_2 H 0.6760 0.8077 0.3594
C54_2 C 0.5526(10) 0.8074(4) 0.3808(3)
C55_2 C 0.4565(9) 0.8146(4) 0.3682(4)
H58_2 H 0.4169 0.8112 0.3882
C56_2 C 0.6459(11) 0.8299(5) 0.2768(5)
C57_2 C 0.6499(16) 0.8665(5) 0.2653(6)
H59_2 H 0.5876 0.8739 0.2513
H60_2 H 0.6921 0.8696 0.2452
H61_2 H 0.6724 0.8788 0.2921
C58_2 C 0.6106(17) 0.8102(6) 0.2330(7)
H62_2 H 0.5491 0.8180 0.2185
H63_2 H 0.6066 0.7875 0.2400
H64_2 H 0.6542 0.8131 0.2135
C59_2 C 0.7468(17) 0.8168(8) 0.2977(10)
H65_2 H 0.7882 0.8204 0.2774
H66_2 H 0.7433 0.7938 0.3036
H67_2 H 0.7711 0.8281 0.3252
C60_2 C 0.5935(16) 0.8011(7) 0.4294(8)
N11_2 N 0.9469(10) 0.7779(4) 0.4228(4)
O28_2 O 0.9086(18) 0.7756(7) 0.4922(7)
C127_2 C 0.8977(17) 0.7879(7) 0.4555(7)
H149_2 H 0.8543 0.8048 0.4486
C128_2 C 0.968(3) 0.7438(5) 0.4202(12)
H150_2 H 0.9376 0.7318 0.4403
H152_2 H 0.9445 0.7362 0.3903
C129_2 C 0.978(3) 0.8021(7) 0.3952(11)
H153_2 H 0.9546 0.8231 0.4015
H154_2 H 0.9551 0.7968 0.3644
N12_2 N 0.328(3) 0.8945(10) 0.5662(13)
C130_2 C 0.393(3) 0.8955(11) 0.5369(14)
H156_2 H 0.3852 0.9078 0.5108
C131_2 C 0.351(4) 0.9150(15) 0.6044(17)
H157_2 H 0.3038 0.9123 0.6222
H158_2 H 0.3517 0.9374 0.5951
H159_2 H 0.4119 0.9092 0.6217
C132_2 C 0.246(4) 0.8742(16) 0.556(2)
H160_2 H 0.2093 0.8771 0.5787
H161_2 H 0.2653 0.8517 0.5558
H162_2 H 0.2089 0.8800 0.5276
Ni8_2 Ni 0.1721(2) 0.94746(9) 0.27112(9)
N19_2 N 0.2220(10) 0.9651(5) 0.2256(5)
N20_2 N 0.2913(16) 0.9347(7) 0.2974(8)
O49_2 O 0.0467(12) 0.9588(4) 0.2461(4)
O50_2 O 0.1172(12) 0.9311(5) 0.3166(6)
O51_2 O 0.2238(15) 0.8339(6) 0.4790(6)
O52_2 O 0.3645(13) 0.8395(7) 0.4631(6)
C225_2 C 0.0442(10) 0.9863(5) 0.1320(4)
H264_2 H 0.0859 0.9905 0.1132
C226_2 C 0.0791(8) 0.9768(5) 0.1759(4)
C227_2 C 0.0169(10) 0.9705(5) 0.2039(3)
C234_2 C 0.1782(16) 0.9746(6) 0.1877(6)
H275_2 H 0.2133 0.9804 0.1666
C235_2 C 0.3813(14) 0.9740(7) 0.2032(8)
H276_2 H 0.3611 0.9950 0.1899
H277_2 H 0.3698 0.9573 0.1801
C236_2 C 0.5234(13) 0.9440(7) 0.2530(7)
H278_2 H 0.5895 0.9464 0.2676
H279_2 H 0.5176 0.9254 0.2331
C237_2 C 0.4602(14) 0.9390(5) 0.2888(6)
H280_2 H 0.4798 0.9192 0.3056
H281_2 H 0.4693 0.9572 0.3094
C238_2 C 0.3190(18) 0.9185(7) 0.3308(7)
H282_2 H 0.3838 0.9152 0.3405
C239_2 C 0.3301(10) 0.9659(6) 0.2400(7)
H283_2 H 0.3441 0.9841 0.2612
C240_2 C 0.4889(12) 0.9748(6) 0.2269(7)
H284_2 H 0.5280 0.9926 0.2251
C241_2 C 0.356(2) 0.9364(6) 0.2667(8)
H285_2 H 0.3461 0.9172 0.2470
C242_2 C 0.2508(9) 0.9030(4) 0.3582(4)
C243_2 C 0.1598(10) 0.9152(4) 0.3553(4)
C244_2 C 0.1081(9) 0.9063(5) 0.3870(5)
C245_2 C 0.1474(11) 0.8853(5) 0.4215(5)
H286_2 H 0.1127 0.8794 0.4427
C246_2 C 0.2384(12) 0.8732(5) 0.4244(5)
C247_2 C 0.2901(9) 0.8820(5) 0.3927(5)
H287_2 H 0.3510 0.8738 0.3947
C249_2 C 0.0185(15) 0.9260(6) 0.3897(8)
H292_2 H 0.0425 0.9266 0.4589
C251_2 C 0.0232(15) 0.9627(5) 0.3830(8)
H294_2 H 0.0432 0.9670 0.3556
H295_2 H 0.0678 0.9721 0.4074
C252_2 C 0.2761(16) 0.8468(6) 0.4559(7)
H297_2 H 0.0981 0.8898 0.0020
H303_2 H 0.2821 0.8762 0.0001
O56_2 O 0.5408(17) 0.8781(6) 0.4490(8)
N24_2 N 0.672(3) 0.8945(10) 0.4338(13)
C262_2 C 0.607(3) 0.8955(11) 0.4631(14)
H318_2 H 0.6148 0.9078 0.4892
C263_2 C 0.649(4) 0.9150(15) 0.3956(17)
H319_2 H 0.6962 0.9123 0.3778
H320_2 H 0.6483 0.9374 0.4049
H321_2 H 0.5881 0.9092 0.3783
C264_2 C 0.754(4) 0.8742(16) 0.444(2)
H322_2 H 0.7907 0.8771 0.4213
H323_2 H 0.7347 0.8517 0.4442
H324_2 H 0.7911 0.8800 0.4724
O61_2 O 0.4617(10) 0.7968(4) 0.5407(5)
O67_2 O 0.7762(15) 0.8339(6) 0.5210(6)
O69_2 O 0.6355(13) 0.8395(7) 0.5369(6)
H328_2 H 0.50773 0.964287 0.197269
Cd1_5 Cd 1.0000 0.04722(7) 0.0000
N1_2 N 0.9978(14) 0.1230(5) 0.2990(6)
C12_2 C 0.9991(15) 0.1414(5) 0.3319(6)
H12_2 H 0.9414 0.1487 0.3372
C13_2 C 0.9125(13) 0.1131(6) 0.2685(7)
C14_2 C 0.8208(13) 0.1206(6) 0.2844(7)
H13_2 H 0.8143 0.1441 0.2869
H14_2 H 0.8246 0.1112 0.3137
C15_2 C 0.7316(18) 0.1068(7) 0.2519(10)
H15_2 H 0.6821 0.1030 0.2685
H16_2 H 0.7086 0.1230 0.2291
C16_2 C 0.7510(16) 0.0751(5) 0.2296(8)
H17_2 H 0.6962 0.0701 0.2063
H18_2 H 0.7574 0.0577 0.2515
C17_2 C 0.8385(17) 0.0748(7) 0.2090(8)
H19_2 H 0.8472 0.0534 0.1969
H20_2 H 0.8320 0.0907 0.1851
C18_2 C 0.9199(11) 0.0832(5) 0.2451(6)
H21_2 H 0.9229 0.0658 0.2674
H22_2 H 0.9845 0.0655 0.1738
Ni7_2 Ni 0.8957(2) 0.19613(9) 0.22137(12)
N17_2 N 0.9886(11) 0.2077(4) 0.2710(7)
N18_2 N 0.9955(13) 0.1865(5) 0.1968(6)
O43_2 O 0.7861(12) 0.2063(5) 0.2431(5)
O44_2 O 0.8040(11) 0.1832(4) 0.1708(5)
O45_2 O 0.9421(9) 0.0798(5) 0.0416(5)
O46_2 O 0.7886(15) 0.0725(6) 0.0250(7)
O47_2 O 0.9516(13) 0.0037(5) 0.0422(5)
O48_2 O 0.8176(10) 0.0061(4) 0.0619(4)
O54_2 O 0.6266(10) 0.0241(4) 0.0154(5)
C193_2 C 0.7845(17) 0.2588(5) 0.4158(5)
C194_2 C 0.7860(10) 0.2451(4) 0.3690(4)
C195_2 C 0.7024(8) 0.2375(5) 0.3391(5)
H230_2 H 0.6443 0.2411 0.3470
C196_2 C 0.7054(9) 0.2246(5) 0.2975(4)
C197_2 C 0.7921(11) 0.2192(5) 0.2857(4)
C198_2 C 0.8758(8) 0.2268(4) 0.3156(4)
C199_2 C 0.8728(8) 0.2397(4) 0.3572(4)
H231_2 H 0.9288 0.2447 0.3772
C200_2 C 0.6101(12) 0.2219(5) 0.2657(6)
C201_2 C 0.5239(14) 0.2346(6) 0.2818(8)
H232_2 H 0.5221 0.2250 0.3102
H233 H 0.4674 0.2288 0.2607
H234_2 H 0.5278 0.2579 0.2848
C202_2 C 0.593(2) 0.1857(6) 0.2561(9)
H235_2 H 0.5962 0.1742 0.2836
H236_2 H 0.6410 0.1775 0.2414
H237_2 H 0.5319 0.1827 0.2372
C204_2 C 0.6051(18) 0.2380(6) 0.2192(7)
H240_2 H 0.6565 0.2302 0.2066
H241_2 H 0.6098 0.2613 0.2226
H242_2 H 0.5460 0.2325 0.1998
C205_2 C 0.9728(14) 0.2208(6) 0.3035(7)
C211_2 C 0.9907(17) 0.1681(6) 0.1636(7)
C212_2 C 0.9078(10) 0.1517(4) 0.1378(5)
C213_2 C 0.8182(13) 0.1648(4) 0.1361(5)
C214_2 C 0.7412(9) 0.1534(5) 0.1047(6)
C215_2 C 0.7539(11) 0.1290(5) 0.0750(5)
H253_2 H 0.7024 0.1214 0.0539
C216_2 C 0.8435(14) 0.1160(4) 0.0766(5)
C217_2 C 0.9205(10) 0.1273(5) 0.1080(6)
H254_2 H 0.9804 0.1186 0.1091
C218_2 C 0.6411(12) 0.1690(6) 0.1013(7)
C219_2 C 0.6593(17) 0.2063(6) 0.0981(8)
H255_2 H 0.6011 0.2180 0.0969
H256_2 H 0.6828 0.2107 0.0716
H257_2 H 0.7052 0.2132 0.1238
C220_2 C 0.600(2) 0.1568(8) 0.1408(9)
H258_2 H 0.5396 0.1667 0.1397
H259_2 H 0.6425 0.1626 0.1682
H260_2 H 0.5934 0.1335 0.1391
C221_2 C 0.5668(15) 0.1494(6) 0.0665(7)
H261_2 H 0.5050 0.1587 0.0647
H262_2 H 0.5664 0.1270 0.0757
H263_2 H 0.5835 0.1505 0.0378
C222_2 C 0.9045(14) 0.0045(7) 0.0717(7)
C223_2 C 0.8564(13) 0.0883(6) 0.0457(8)
H273_2 H 0.8667 0.0057 0.2557
N22_2 N 0.5477(18) 0.0201(9) 0.0749(10)
C256_2 C 0.599(2) 0.0386(7) 0.0446(10)
H304_2 H 0.6101 0.0610 0.0484
C258_2 C 0.542(5) 0.0443(16) 0.1118(15)
H308_2 H 0.5678 0.0649 0.1053
H309_2 H 0.5770 0.0361 0.1397
H310 H 0.4767 0.0472 0.1137
H326_2 H 0.909119 0.130997 0.24191
Cd1_6 Cd 1.0000 0.04722(7) 1.0000
C71_2 C 0.7405(13) 0.2089(7) 0.7167(6)
H76_2 H 0.7243 0.1868 0.7065
H77_2 H 0.6907 0.2232 0.7014
H81_2 H 0.9747 0.2283 0.6761
C74_2 C 0.9132(13) 0.2000(6) 0.7334(5)
H82_2 H 0.9031 0.1769 0.7256
C75_2 C 0.8335(14) 0.2185(6) 0.7033(7)
H83_2 H 0.8310 0.2129 0.6723
H84_2 H 0.8437 0.2419 0.7068
C76_2 C 0.7427(16) 0.2105(7) 0.7673(6)
H85_2 H 0.7470 0.2332 0.7768
H86_2 H 0.6842 0.2016 0.7731
C77_2 C 0.8230(12) 0.1923(5) 0.7931(6)
H87_2 H 0.8135 0.1692 0.7868
H88_2 H 0.8251 0.1955 0.8246
C78_2 C 0.9148(15) 0.2024(7) 0.7829(5)
H89_2 H 0.9225 0.2257 0.7906
H90_2 H 0.9527 0.1646 0.8457
Cd7_2 Cd 0.75520(13) 0.02289(5) 0.99494(6)
Ni5_2 Ni 0.8969(2) 0.10624(9) 0.72115(10)
N14_2 N 0.9814(11) 0.0843(5) 0.7660(6)
O31_2 O 0.8106(12) 0.1229(5) 0.6743(5)
O32_2 O 0.8017(9) 0.0925(5) 0.7464(4)
O33_2 O 0.8573(12) 0.0440(5) 0.9451(5)
O34_2 O 0.7096(11) 0.0428(5) 0.9250(5)
C133_2 C 0.8556(16) 0.2139(7) 0.5431(8)
C134_2 C 0.8453(9) 0.1847(4) 0.5734(4)
C135_2 C 0.7554(8) 0.1740(4) 0.5765(5)
H163_2 H 0.7025 0.1814 0.5561
C136_2 C 0.7447(7) 0.1524(4) 0.6101(5)
C137_2 C 0.8238(9) 0.1415(4) 0.6406(4)
C138_2 C 0.9136(8) 0.1522(4) 0.6374(4)
C139_2 C 0.9244(7) 0.1738(4) 0.6038(5)
H164_2 H 0.9845 0.1809 0.6017
C140_2 C 0.640(2) 0.0981(6) 0.6056(12)
H165_2 H 0.6770 0.0905 0.6335
H166_2 H 0.6639 0.0885 0.5815
H167_2 H 0.5751 0.0918 0.6032
C141_2 C 0.6471(13) 0.1355(6) 0.6033(8)
C142_2 C 0.601(2) 0.1439(13) 0.6430(9)
H168_2 H 0.6448 0.1393 0.6705
H169_2 H 0.5449 0.1309 0.6414
H170_2 H 0.5843 0.1666 0.6420
C143_2 C 0.5805(17) 0.1397(7) 0.5562(7)
H171_2 H 0.6146 0.1341 0.5335
H172_2 H 0.5597 0.1620 0.5524
H173_2 H 0.5265 0.1256 0.5539
C151_2 C 0.965(2) 0.0740(7) 0.8053(8)
C152_2 C 0.8809(9) 0.0753(5) 0.8157(5)
C153_2 C 0.7961(11) 0.0805(5) 0.7854(4)
C154_2 C 0.7104(9) 0.0751(5) 0.7982(4)
C155_2 C 0.7096(9) 0.0645(5) 0.8412(5)
H185_2 H 0.6523 0.0609 0.8498
C156_2 C 0.7944(11) 0.0594(5) 0.8715(4)
C157_2 C 0.8801(9) 0.0648(5) 0.8587(4)
H186_2 H 0.9369 0.0614 0.8790
C158_2 C 0.6190(12) 0.0879(5) 0.7663(7)
C159_2 C 0.609(2) 0.0699(8) 0.7217(9)
H187_2 H 0.6625 0.0747 0.7089
H188_2 H 0.5520 0.0770 0.7018
H189_2 H 0.6055 0.0468 0.7266
C160_2 C 0.5340(15) 0.0805(6) 0.7887(8)
H190_2 H 0.4763 0.0878 0.7696
H191_2 H 0.5427 0.0918 0.8167
H192_2 H 0.5304 0.0574 0.7936
C161_2 C 0.6107(19) 0.1246(5) 0.7574(9)
H193_2 H 0.6618 0.1317 0.7440
H194_2 H 0.6137 0.1360 0.7851
H195_2 H 0.5514 0.1293 0.7376
C162_2 C 0.7871(16) 0.0495(7) 0.9158(8)
Cd6_4 Cd 1.0000 0.96198(9) 1.0000
Ni4_2 Ni 0.8279(2) 0.94746(9) 0.72888(9)
N7_2 N 0.7780(10) 0.9651(5) 0.7744(5)
N8_2 N 0.7087(16) 0.9347(7) 0.7026(8)
O21_2 O 0.9533(12) 0.9588(4) 0.7539(4)
O22_2 O 0.8828(12) 0.9311(5) 0.6834(6)
C93_2 C 0.9558(10) 0.9863(5) 0.8680(4)
H102_2 H 0.9141 0.9905 0.8868
C94_2 C 0.9209(8) 0.9768(5) 0.8241(4)
C95_2 C 0.9831(10) 0.9705(5) 0.7961(3)
C102_2 C 0.8218(16) 0.9746(6) 0.8123(6)
H113_2 H 0.7867 0.9804 0.8334
C103_2 C 0.6187(14) 0.9740(7) 0.7968(8)
H114_2 H 0.6389 0.9950 0.8101
H115_2 H 0.6302 0.9573 0.8199
C104_2 C 0.4766(13) 0.9440(7) 0.7470(7)
H116_2 H 0.4105 0.9464 0.7324
H117_2 H 0.4824 0.9254 0.7669
C105_2 C 0.5398(14) 0.9390(5) 0.7112(6)
H118_2 H 0.5202 0.9192 0.6944
H119_2 H 0.5307 0.9572 0.6906
C106_2 C 0.6810(18) 0.9185(7) 0.6692(7)
H120_2 H 0.6162 0.9152 0.6595
C107_2 C 0.6699(10) 0.9659(6) 0.7600(7)
H121_2 H 0.6559 0.9841 0.7388
C108_2 C 0.5111(12) 0.9748(6) 0.7731(7)
H122_2 H 0.4720 0.9926 0.7749
C109_2 C 0.644(2) 0.9364(6) 0.7333(8)
H123_2 H 0.6539 0.9172 0.7530
C110_2 C 0.7492(9) 0.9030(4) 0.6418(4)
C111_2 C 0.8402(10) 0.9152(4) 0.6447(4)
C112_2 C 0.8919(9) 0.9063(5) 0.6130(5)
C113_2 C 0.8526(11) 0.8853(5) 0.5785(5)
H124_2 H 0.8873 0.8794 0.5573
C114_2 C 0.7616(12) 0.8732(5) 0.5756(5)
C115_2 C 0.7099(9) 0.8820(5) 0.6073(5)
H125_2 H 0.6490 0.8738 0.6053
C117_2 C 0.9815(15) 0.9260(6) 0.6103(8)
H130_2 H 0.9575 0.9266 0.5411
C119_2 C 0.9768(15) 0.9627(5) 0.6170(8)
H132_2 H 0.9568 0.9670 0.6444
H133_2 H 0.9322 0.9721 0.5926
C120_2 C 0.7239(16) 0.8468(6) 0.5441(7)
H135_2 H 0.9019 0.8898 0.9980
H141_2 H 0.7179 0.8762 0.9999
Ni6_2 Ni 0.6734(3) 0.85384(10) 0.77323(11)
N15_2 N 0.7957(12) 0.8660(5) 0.7982(5)
N16_2 N 0.7294(16) 0.8441(6) 0.7260(6)
O35_2 O 0.8449(15) 0.9689(6) 0.9555(6)
O36_2 O 0.7021(14) 0.9709(6) 0.9679(5)
O37_2 O 0.6251(9) 0.8641(3) 0.8224(4)
O38_2 O 0.5547(11) 0.8448(5) 0.7429(4)
O39_2 O 0.3255(14) 0.7882(5) 0.5622(6)
C163_2 C 0.772(2) 0.9585(7) 0.9518(10)
C164_2 C 0.7337(12) 0.9286(4) 0.9215(5)
C165_2 C 0.7914(8) 0.9174(4) 0.8936(5)
H196_2 H 0.8527 0.9255 0.8967
C166_2 C 0.7576(10) 0.8941(4) 0.8612(5)
C167_2 C 0.6660(11) 0.8821(4) 0.8566(5)
C168_2 C 0.6083(9) 0.8933(5) 0.8845(6)
C169_2 C 0.6421(11) 0.9166(5) 0.9170(5)
H197_2 H 0.6035 0.9241 0.9356
C170_2 C 0.5085(11) 0.8791(5) 0.8871(6)
C171_2 C 0.4413(17) 0.8910(9) 0.8442(9)
H198_2 H 0.4668 0.8851 0.8187
H199_2 H 0.4348 0.9143 0.8452
H200_2 H 0.3803 0.8810 0.8419
C172_2 C 0.523(2) 0.8425(6) 0.8949(9)
H201_2 H 0.5458 0.8330 0.8706
H202_2 H 0.4634 0.8326 0.8968
H203_2 H 0.5679 0.8389 0.9223
C173_2 C 0.4634(18) 0.8916(7) 0.9259(8)
H204_2 H 0.4036 0.8810 0.9245
H205_2 H 0.4540 0.9148 0.9232
H206_2 H 0.5049 0.8867 0.9539
C174_2 C 0.8149(18) 0.8850(6) 0.8339(8)
H207_2 H 0.8764 0.8932 0.8410
C175_2 C 0.8715(12) 0.8489(6) 0.7782(6)
H208_2 H 0.8721 0.8258 0.7868
C176_2 C 0.973(2) 0.8622(15) 0.7941(15)
H209_2 H 0.9775 0.8853 0.7875
H210_2 H 0.9972 0.8585 0.8257
C178_2 C 0.9886(17) 0.8427(9) 0.7149(8)
H213_2 H 0.9932 0.8649 0.7043
C179_2 C 0.8853(15) 0.8313(9) 0.7038(8)
H215_2 H 0.8824 0.8083 0.7109
H216_2 H 0.8602 0.8339 0.6721
C180_2 C 0.8244(17) 0.8510(7) 0.7303(8)
H217_2 H 0.8283 0.8740 0.7216
C181_2 C 0.6817(18) 0.8316(6) 0.6869(8)
H218_2 H 0.7175 0.8255 0.6662
C182_2 C 0.5803(8) 0.8268(5) 0.6742(5)
C183_2 C 0.5210(11) 0.8318(5) 0.7040(4)
C184_2 C 0.4250(10) 0.8247(5) 0.6914(4)
C185_2 C 0.3882(8) 0.8125(4) 0.6490(5)
H219_2 H 0.3240 0.8077 0.6406
C186_2 C 0.4474(10) 0.8074(4) 0.6192(3)
C187_2 C 0.5435(9) 0.8146(4) 0.6318(4)
H220_2 H 0.5831 0.8112 0.6118
C188_2 C 0.3541(11) 0.8299(5) 0.7232(5)
C189_2 C 0.3501(16) 0.8665(5) 0.7347(6)
H221_2 H 0.4124 0.8739 0.7487
H222_2 H 0.3079 0.8696 0.7548
H223_2 H 0.3276 0.8788 0.7079
C190_2 C 0.3894(17) 0.8102(6) 0.7670(7)
H224_2 H 0.4509 0.8180 0.7815
H225_2 H 0.3934 0.7875 0.7600
H226_2 H 0.3458 0.8131 0.7865
C191_2 C 0.2532(17) 0.8168(8) 0.7023(10)
H227_2 H 0.2118 0.8204 0.7226
H228_2 H 0.2567 0.7938 0.6964
H229_2 H 0.2289 0.8281 0.6748
C192_2 C 0.4065(16) 0.8011(7) 0.5706(8)
N23_2 N 0.0531(10) 0.7779(4) 0.5772(4)
O55_2 O 0.0914(18) 0.7756(7) 0.5078(7)
C259_2 C 0.1023(17) 0.7879(7) 0.5445(7)
H311_2 H 0.1457 0.8048 0.5514
C260_2 C 0.032(3) 0.7438(5) 0.5798(12)
H312_2 H 0.0624 0.7318 0.5597
H314_2 H 0.0555 0.7362 0.6097
C261_2 C 0.022(3) 0.8021(7) 0.6048(11)
H315_2 H 0.0454 0.8231 0.5985
H316_2 H 0.0449 0.7968 0.6356
H325_2 H 0.49227 0.964287 0.802731
H71_2 H 0.0326 0.7288 0.7393
H144 H 0.0641 0.4896 0.9266
H148_2 H 0.0233 0.5472 0.8863
H233_2 H 0.9674 0.7288 0.2607
H306 H 0.9359 0.4896 0.0734
H310_2 H 0.9767 0.5472 0.1137
H151_2 H 0.0350 0.7405 0.4282
H155_2 H 0.0463 0.8026 0.4014
Cd6_5 Cd 0.0000 0.96198(9) 1.0000
C92_2 C 0.0528(11) 0.9895(5) 0.8839(3)
C96_2 C 0.0802(9) 0.9737(5) 0.8119(4)
C97_2 C 0.1150(8) 0.9832(5) 0.8558(4)
H103_2 H 0.1800 0.9854 0.8664
C98_2 C 0.2547(15) 0.9743(6) 0.8046(8)
H104_2 H 0.2968 0.9680 0.7855
H105_2 H 0.2736 0.9636 0.8329
H106_2 H 0.2573 0.9975 0.8088
C99_2 C 0.1532(13) 0.9641(5) 0.7830(6)
C100_2 C 0.1493(18) 0.9273(5) 0.7760(8)
H107_2 H 0.1943 0.9210 0.7585
H108_2 H 0.0867 0.9211 0.7607
H109_2 H 0.1643 0.9165 0.8044
C101_2 C 0.1307(15) 0.9826(6) 0.7387(6)
H110_2 H 0.1762 0.9769 0.7211
H112_2 H 0.0683 0.9768 0.7227
C116_2 C 0.0651(18) 0.9157(8) 0.6475(8)
H126_2 H 0.0521 0.9217 0.6759
H127_2 H 0.1216 0.9265 0.6434
H128_2 H 0.0736 0.8925 0.6464
C118_2 C 0.0085(19) 0.9198(7) 0.5646(8)
H129_2 H 0.0647 0.9319 0.5631
H131_2 H 0.0201 0.8969 0.5615
H134_2 H 0.0382 0.9721 0.6183
C125_2 C 0.497(5) 0.9872(9) 0.9228(15)
H143_2 H 0.4829 0.9735 0.9461
H144_2 H 0.5641 0.9896 0.9266
H145_2 H 0.4716 0.9774 0.8943
O53_2 O 0.052(3) 0.9241(9) 0.9624(10)
C177_2 C 0.0237(19) 0.8413(7) 0.7657(7)
H211_2 H 0.0200 0.8188 0.7750
H212_2 H 0.0901 0.8475 0.7723
H214_2 H 0.0273 0.8287 0.7004
N21_2 N 0.1752(16) 0.8892(6) 0.9531(9)
C253_2 C 0.105(3) 0.9005(13) 0.9760(16)
C254_2 C 0.177(4) 0.9023(13) 0.9107(13)
H298_2 H 0.2254 0.8913 0.8986
H299_2 H 0.1917 0.9252 0.9134
H300_2 H 0.1169 0.8992 0.8911
C255_2 C 0.2433(17) 0.8664(8) 0.9742(10)
H301_2 H 0.2824 0.8599 0.9538
H302_2 H 0.2118 0.8475 0.9828
Cd6_6 Cd 1.0000 0.96198(9) 0.0000
O25_2 O 0.948(3) 0.9241(9) 0.0376(10)
C45_2 C 0.9763(19) 0.8413(7) 0.2343(7)
H49_2 H 0.9800 0.8188 0.2250
H50_2 H 0.9099 0.8475 0.2277
H52_2 H 0.9727 0.8287 0.2996
N9_2 N 0.8248(16) 0.8892(6) 0.0469(9)
C121_2 C 0.895(3) 0.9005(13) 0.0240(16)
C122_2 C 0.823(4) 0.9023(13) 0.0893(13)
H136_2 H 0.7746 0.8913 0.1014
H137_2 H 0.8083 0.9252 0.0866
H138_2 H 0.8831 0.8992 0.1089
C123_2 C 0.7567(17) 0.8664(8) 0.0258(10)
H139_2 H 0.7176 0.8599 0.0462
H140_2 H 0.7882 0.8475 0.0172
C224_2 C 0.9472(11) 0.9895(5) 0.1161(3)
C228_2 C 0.9198(9) 0.9737(5) 0.1881(4)
C229_2 C 0.8850(8) 0.9832(5) 0.1442(4)
H265_2 H 0.8200 0.9854 0.1336
C230_2 C 0.7453(15) 0.9743(6) 0.1954(8)
H266_2 H 0.7032 0.9680 0.2145
H267_2 H 0.7264 0.9636 0.1671
H268_2 H 0.7427 0.9975 0.1912
C231_2 C 0.8468(13) 0.9641(5) 0.2170(6)
C232_2 C 0.8507(18) 0.9273(5) 0.2240(8)
H269_2 H 0.8057 0.9210 0.2415
H270_2 H 0.9133 0.9211 0.2393
H271_2 H 0.8357 0.9165 0.1956
C233_2 C 0.8693(15) 0.9826(6) 0.2613(6)
H272_2 H 0.8238 0.9769 0.2789
H274_2 H 0.9317 0.9768 0.2773
C248_2 C 0.9349(18) 0.9157(8) 0.3525(8)
H288_2 H 0.9479 0.9217 0.3241
H289_2 H 0.8784 0.9265 0.3566
H290_2 H 0.9264 0.8925 0.3536
C250_2 C 0.9915(19) 0.9198(7) 0.4354(8)
H291_2 H 0.9353 0.9319 0.4369
H293_2 H 0.9799 0.8969 0.4385
H296_2 H 0.9618 0.9721 0.3817
C257_2 C 0.503(5) 0.9872(9) 0.0772(15)
H305_2 H 0.5171 0.9735 0.0539
H306_2 H 0.4359 0.9896 0.0734
H307_2 H 0.5284 0.9774 0.1057
H313_2 H 0.9650 0.7405 0.5718
H317_2 H 0.9537 0.8026 0.5986
loop_
_geom_bond_atom_site_label_1
_geom_bond_atom_site_label_2
_geom_bond_site_symmetry_1
_geom_bond_site_symmetry_2
Cd3 O12 1_555 1_555
Cd4 O12 1_555 1_555
Cd5 O11 1_555 1_555
O11 C60 1_555 1_555
O12 C60 1_555 1_555
H36 C39 1_555 1_555
H37 C39 1_555 1_555
H38 C39 1_555 1_555
H42 C41 1_555 1_555
H43 C41 1_555 1_555
C53 C52 1_555 1_555
H57 C53 1_555 1_555
C54 C53 1_555 1_555
C56 C52 1_555 1_555
C57 C56 1_555 1_555
H59 C57 1_555 1_555
H60 C57 1_555 1_555
H61 C57 1_555 1_555
C58 C56 1_555 1_555
H62 C58 1_555 1_555
H63 C58 1_555 1_555
H64 C58 1_555 1_555
C59 C56 1_555 1_555
H65 C59 1_555 1_555
H66 C59 1_555 1_555
H67 C59 1_555 1_555
C60 C54 1_555 1_555
N11 C127 1_555 1_555
O28 Cd5 1_555 1_555
C127 O28 1_555 1_555
H149 C127 1_555 1_555
C128 N11 1_555 1_555
H150 C128 1_555 1_555
H151 C128 1_555 1_555
H152 C128 1_555 1_555
C129 N11 1_555 1_555
H153 C129 1_555 1_555
H154 C129 1_555 1_555
H155 C129 1_555 1_555
C236 H278 1_555 1_555
H279 C236 1_555 1_555
O56 Cd3 1_555 1_555
N24 C262 1_555 1_555
C262 O56 1_555 1_555
H318 C262 1_555 1_555
C263 N24 1_555 1_555
H319 C263 1_555 1_555
H320 C263 1_555 1_555
H321 C263 1_555 1_555
C264 N24 1_555 1_555
H322 C264 1_555 1_555
H323 C264 1_555 1_555
H324 C264 1_555 1_555
O57 Cd5 1_555 1_555
O59 Cd4 1_555 1_555
O62 Cd5 1_555 1_555
O64 Cd4 1_555 1_555
O67 Cd5 1_555 1_555
O69 Cd3 1_555 1_555
Cd5 O64 1_555 1_555
Cd1 O5 1_555 1_555
Cd2 O5 1_555 1_555
Cd6 O7 1_555 1_555
Ni1 N1 1_555 1_555
Ni2 N3 1_555 1_555
N1 C12 1_555 1_555
N2 Ni1 1_555 1_555
N3 C42 1_555 1_555
N4 Ni2 1_555 1_555
O1 C1 1_555 1_555
O2 C1 1_555 1_555
O3 Ni1 1_555 1_555
O4 Ni1 1_555 1_555
O5 C30 1_555 1_555
O6 Cd2 1_555 1_555
O7 C31 1_555 1_555
O8 Cd2 1_555 1_555
O9 Ni2 1_555 1_555
O10 Ni2 1_555 1_555
O25 Cd6 1_555 1_555
C1 C2 1_555 1_555
C2 C3 1_555 1_555
C3 H1 1_555 1_555
C4 C3 1_555 1_555
C5 O3 1_555 1_555
C6 C5 1_555 1_555
C7 C2 1_555 1_555
H2 C7 1_555 1_555
O27 Cd3_2 1_555 1_555
C8 H3 1_555 1_555
H4 C8 1_555 1_555
H5 C8 1_555 1_555
C9 C4 1_555 1_555
C10 C9 1_555 1_555
H6 C10 1_555 1_555
H7 C10 1_555 1_555
H8 C10 1_555 1_555
C11 C9 1_555 1_555
H9 C11 1_555 1_555
H10 C11 1_555 1_555
H11 C11 1_555 1_555
C12 C6 1_555 1_555
H12 C12 1_555 1_555
C13 N1 1_555 1_555
C14 C13 1_555 1_555
H13 C14 1_555 1_555
H14 C14 1_555 1_555
C15 C14 1_555 1_555
H15 C15 1_555 1_555
H16 C15 1_555 1_555
C16 C15 1_555 1_555
H17 C16 1_555 1_555
H18 C16 1_555 1_555
C17 C16 1_555 1_555
H19 C17 1_555 1_555
H20 C17 1_555 1_555
C18 N2 1_555 1_555
H21 C18 1_555 1_555
C19 N2 1_555 1_555
H22 C19 1_555 1_555
C20 C19 1_555 1_555
C21 O4 1_555 1_555
C22 C21 1_555 1_555
C23 C22 1_555 1_555
H23 C23 1_555 1_555
C24 C23 1_555 1_555
C25 C20 1_555 1_555
H24 C25 1_555 1_555
C26 C22 1_555 1_555
C27 C26 1_555 1_555
H25 C27 1_555 1_555
H26 C27 1_555 1_555
H27 C27 1_555 1_555
C28 C26 1_555 1_555
H29 C28 1_555 1_555
H30 C28 1_555 1_555
C29 C26 1_555 1_555
H31 C29 1_555 1_555
H32 C29 1_555 1_555
H33 C29 1_555 1_555
C30 O6 1_555 1_555
C31 O8 1_555 1_555
C32 C31 1_555 1_555
C33 C32 1_555 1_555
H34 C33 1_555 1_555
C34 C33 1_555 1_555
C35 O9 1_555 1_555
C36 C35 1_555 1_555
C37 C32 1_555 1_555
H35 C37 1_555 1_555
C38 C36 1_555 1_555
C40 C38 1_555 1_555
H39 C40 1_555 1_555
H41 C40 1_555 1_555
C42 C34 1_555 1_555
H45 C42 1_555 1_555
C43 N3 1_555 1_555
H46 C43 1_555 1_555
C44 C43 1_555 1_555
H47 C44 1_555 1_555
H48 C44 1_555 1_555
C45 C44 1_555 1_555
H49 C45 1_555 1_555
H50 C45 1_555 1_555
C46 C45 1_555 1_555
H51 C46 1_555 1_555
H52 C46 1_555 1_555
C47 C46 1_555 1_555
H53 C47 1_555 1_555
H54 C47 1_555 1_555
C48 N4 1_555 1_555
H55 C48 1_555 1_555
C49 N4 1_555 1_555
H56 C49 1_555 1_555
C50 C49 1_555 1_555
C51 O10 1_555 1_555
C55 C50 1_555 1_555
H58 C55 1_555 1_555
N9 C121 1_555 1_555
C121 O25 1_555 1_555
C122 N9 1_555 1_555
H136 C122 1_555 1_555
H137 C122 1_555 1_555
H138 C122 1_555 1_555
C123 N9 1_555 1_555
H139 C123 1_555 1_555
H140 C123 1_555 1_555
N12 C130 1_555 1_555
C130 O27 1_555 1_555
H156 C130 1_555 1_555
C131 N12 1_555 1_555
H157 C131 1_555 1_555
H158 C131 1_555 1_555
H159 C131 1_555 1_555
C132 N12 1_555 1_555
H160 C132 1_555 1_555
H161 C132 1_555 1_555
H162 C132 1_555 1_555
Ni7 N17 1_555 1_555
Ni8 N19 1_555 1_555
N17 C205 1_555 1_555
N18 Ni7 1_555 1_555
N19 C234 1_555 1_555
N20 Ni8 1_555 1_555
O41 C193 1_555 1_555
O42 C193 1_555 1_555
O43 Ni7 1_555 1_555
O44 Ni7 1_555 1_555
O45 Cd1 1_555 1_555
O47 Cd1 1_555 1_555
O49 Ni8 1_555 1_555
O50 Ni8 1_555 1_555
O51 C252 1_555 1_555
O52 Cd3_2 1_555 1_555
C193 C194 1_555 1_555
C194 C195 1_555 1_555
C195 H230 1_555 1_555
C196 C195 1_555 1_555
C197 O43 1_555 1_555
C198 C197 1_555 1_555
C199 C194 1_555 1_555
H231 C199 1_555 1_555
C200 C196 1_555 1_555
C201 C200 1_555 1_555
H232 C201 1_555 1_555
H234 C201 1_555 1_555
C202 C200 1_555 1_555
H235 C202 1_555 1_555
H236 C202 1_555 1_555
H237 C202 1_555 1_555
C203 H238 1_555 1_555
H239 C203 1_555 1_555
C204 C200 1_555 1_555
H240 C204 1_555 1_555
H241 C204 1_555 1_555
H242 C204 1_555 1_555
C205 C198 1_555 1_555
H243 C205 1_555 1_555
C206 N17 1_555 1_555
H244 C206 1_555 1_555
C207 C203 1_555 1_555
H245 C207 1_555 1_555
H246 C207 1_555 1_555
C208 C203 1_555 1_555
H247 C208 1_555 1_555
H248 C208 1_555 1_555
C209 C208 1_555 1_555
H249 C209 1_555 1_555
H250 C209 1_555 1_555
C210 N18 1_555 1_555
H251 C210 1_555 1_555
C211 N18 1_555 1_555
H252 C211 1_555 1_555
C212 C211 1_555 1_555
C213 O44 1_555 1_555
C214 C213 1_555 1_555
C215 C214 1_555 1_555
H253 C215 1_555 1_555
C216 C215 1_555 1_555
C217 C212 1_555 1_555
H254 C217 1_555 1_555
C218 C214 1_555 1_555
C219 C218 1_555 1_555
H255 C219 1_555 1_555
H256 C219 1_555 1_555
H257 C219 1_555 1_555
C220 C218 1_555 1_555
H258 C220 1_555 1_555
H259 C220 1_555 1_555
H260 C220 1_555 1_555
C221 C218 1_555 1_555
H261 C221 1_555 1_555
H262 C221 1_555 1_555
H263 C221 1_555 1_555
C222 O47 1_555 1_555
C223 O45 1_555 1_555
C224 C222 1_555 1_555
C225 C224 1_555 1_555
H264 C225 1_555 1_555
C226 C225 1_555 1_555
C227 O49 1_555 1_555
C228 C227 1_555 1_555
C229 C224 1_555 1_555
H265 C229 1_555 1_555
C230 H266 1_555 1_555
H267 C230 1_555 1_555
H268 C230 1_555 1_555
C231 C228 1_555 1_555
C232 C231 1_555 1_555
H269 C232 1_555 1_555
H270 C232 1_555 1_555
H271 C232 1_555 1_555
C233 C231 1_555 1_555
H272 C233 1_555 1_555
H273 C233 1_555 1_555
H274 C233 1_555 1_555
C234 C226 1_555 1_555
H275 C234 1_555 1_555
C235 H276 1_555 1_555
H277 C235 1_555 1_555
H280 C237 1_555 1_555
H281 C237 1_555 1_555
C238 N20 1_555 1_555
H282 C238 1_555 1_555
C239 N19 1_555 1_555
H283 C239 1_555 1_555
C240 C235 1_555 1_555
C241 N20 1_555 1_555
H285 C241 1_555 1_555
C242 C238 1_555 1_555
C243 O50 1_555 1_555
C244 C243 1_555 1_555
C245 C244 1_555 1_555
H286 C245 1_555 1_555
C246 C245 1_555 1_555
C247 C242 1_555 1_555
H287 C247 1_555 1_555
C248 H288 1_555 1_555
H289 C248 1_555 1_555
H290 C248 1_555 1_555
C249 C244 1_555 1_555
C250 C249 1_555 1_555
H291 C250 1_555 1_555
H292 C250 1_555 1_555
H293 C250 1_555 1_555
C251 C249 1_555 1_555
H294 C251 1_555 1_555
H295 C251 1_555 1_555
H296 C251 1_555 1_555
C252 O52 1_555 1_555
N22 C256 1_555 1_555
C256 O54 1_555 1_555
H304 C256 1_555 1_555
C257 N22 1_555 1_555
H305 C257 1_555 1_555
H307 C257 1_555 1_555
C258 N22 1_555 1_555
H308 C258 1_555 1_555
H309 C258 1_555 1_555
Cd12 O2 1_555 1_555
Cd14 O51 1_555 1_555
Cd16 O1 1_555 1_555
Cd18 O41 1_555 1_555
O60 Cd4_2 1_555 1_555
O61 Cd3_2 1_555 1_555
O66 Cd4_2 1_555 1_555
Cd4_2 O61 1_555 1_555
Cd6 O47 1_555 1_555
C4 C5 1_555 1_555
C6 C7 1_555 1_555
C8 C9 1_555 1_555
C13 C18 1_555 1_555
C17 C18 1_555 1_555
C20 C21 1_555 1_555
C24 C25 1_555 1_555
C24 C30 1_555 1_555
C34 C35 1_555 1_555
C36 C37 1_555 1_555
C43 C48 1_555 1_555
C47 C48 1_555 1_555
C50 C51 1_555 1_555
O42 Cd12 1_555 1_555
O42 Cd18 1_555 1_555
O46 C223 1_555 1_555
O48 C222 1_555 1_555
C196 C197 1_555 1_555
C198 C199 1_555 1_555
C206 C207 1_555 1_555
C206 C210 1_555 1_555
C209 C210 1_555 1_555
C212 C213 1_555 1_555
C216 C217 1_555 1_555
C216 C223 1_555 1_555
C226 C227 1_555 1_555
C228 C229 1_555 1_555
C230 C231 1_555 1_555
C235 C239 1_555 1_555
C237 C241 1_555 1_555
C239 C241 1_555 1_555
C242 C243 1_555 1_555
C246 C247 1_555 1_555
C246 C252 1_555 1_555
C248 C249 1_555 1_555
Cd14 O66 1_555 1_555
C13 H326 1_555 1_555
Ni3 N5 1_555 1_555
Ni4 N7 1_555 1_555
N5 C73 1_555 1_555
N6 Ni3 1_555 1_555
N7 C102 1_555 1_555
N8 Ni4 1_555 1_555
O13 C61 1_555 1_555
O14 C61 1_555 1_555
O15 Ni3 1_555 1_555
O16 Ni3 1_555 1_555
O17 Cd1_2 1_555 1_555
O19 Cd1_2 1_555 1_555
O21 Ni4 1_555 1_555
O22 Ni4 1_555 1_555
O67 C120 1_555 1_555
O69 C120 1_555 1_555
C61 C62 1_555 1_555
C62 C63 1_555 1_555
C63 H68 1_555 1_555
C64 C63 1_555 1_555
C65 O15 1_555 1_555
C66 C65 1_555 1_555
C67 C62 1_555 1_555
H69 C67 1_555 1_555
C68 C64 1_555 1_555
C69 C68 1_555 1_555
H70 C69 1_555 1_555
H72 C69 1_555 1_555
C70 C68 1_555 1_555
H73 C70 1_555 1_555
H74 C70 1_555 1_555
H75 C70 1_555 1_555
C71 H76 1_555 1_555
H77 C71 1_555 1_555
C72 C68 1_555 1_555
H78 C72 1_555 1_555
H79 C72 1_555 1_555
H80 C72 1_555 1_555
C73 C66 1_555 1_555
H81 C73 1_555 1_555
C74 N5 1_555 1_555
H82 C74 1_555 1_555
C75 C71 1_555 1_555
H83 C75 1_555 1_555
H84 C75 1_555 1_555
C76 C71 1_555 1_555
H85 C76 1_555 1_555
H86 C76 1_555 1_555
C77 C76 1_555 1_555
H87 C77 1_555 1_555
H88 C77 1_555 1_555
C78 N6 1_555 1_555
H89 C78 1_555 1_555
C79 N6 1_555 1_555
H90 C79 1_555 1_555
C80 C79 1_555 1_555
C81 O16 1_555 1_555
C82 C81 1_555 1_555
C83 C82 1_555 1_555
H91 C83 1_555 1_555
C84 C83 1_555 1_555
C85 C80 1_555 1_555
H92 C85 1_555 1_555
C86 C82 1_555 1_555
C87 C86 1_555 1_555
H93 C87 1_555 1_555
H94 C87 1_555 1_555
H95 C87 1_555 1_555
C88 C86 1_555 1_555
H96 C88 1_555 1_555
H97 C88 1_555 1_555
H98 C88 1_555 1_555
C89 C86 1_555 1_555
H99 C89 1_555 1_555
H100 C89 1_555 1_555
H101 C89 1_555 1_555
C90 O19 1_555 1_555
C91 O17 1_555 1_555
C92 C90 1_555 1_555
C93 C92 1_555 1_555
H102 C93 1_555 1_555
C94 C93 1_555 1_555
C95 O21 1_555 1_555
C96 C95 1_555 1_555
C97 C92 1_555 1_555
H103 C97 1_555 1_555
C98 H104 1_555 1_555
H105 C98 1_555 1_555
H106 C98 1_555 1_555
C99 C96 1_555 1_555
C100 C99 1_555 1_555
H107 C100 1_555 1_555
H108 C100 1_555 1_555
H109 C100 1_555 1_555
C101 C99 1_555 1_555
H110 C101 1_555 1_555
H111 C101 1_555 1_555
H112 C101 1_555 1_555
C102 C94 1_555 1_555
H113 C102 1_555 1_555
C103 H114 1_555 1_555
H115 C103 1_555 1_555
H118 C105 1_555 1_555
H119 C105 1_555 1_555
C106 N8 1_555 1_555
H120 C106 1_555 1_555
C107 N7 1_555 1_555
H121 C107 1_555 1_555
C108 C103 1_555 1_555
C109 N8 1_555 1_555
H123 C109 1_555 1_555
C110 C106 1_555 1_555
C111 O22 1_555 1_555
C112 C111 1_555 1_555
C113 C112 1_555 1_555
H124 C113 1_555 1_555
C114 C113 1_555 1_555
C115 C110 1_555 1_555
H125 C115 1_555 1_555
C116 H126 1_555 1_555
H127 C116 1_555 1_555
H128 C116 1_555 1_555
C117 C112 1_555 1_555
C118 C117 1_555 1_555
H129 C118 1_555 1_555
H130 C118 1_555 1_555
H131 C118 1_555 1_555
C119 C117 1_555 1_555
H132 C119 1_555 1_555
H133 C119 1_555 1_555
H134 C119 1_555 1_555
C120 C114 1_555 1_555
N10 C124 1_555 1_555
C124 O26 1_555 1_555
H142 C124 1_555 1_555
C125 N10 1_555 1_555
H143 C125 1_555 1_555
H145 C125 1_555 1_555
C126 N10 1_555 1_555
H146 C126 1_555 1_555
H147 C126 1_555 1_555
Cd7 O33 1_555 1_555
Ni5 N13 1_555 1_555
Ni6 N15 1_555 1_555
N13 C144 1_555 1_555
N14 Ni5 1_555 1_555
N15 C174 1_555 1_555
N16 Ni6 1_555 1_555
O29 C133 1_555 1_555
O30 C133 1_555 1_555
O31 Ni5 1_555 1_555
O32 Ni5 1_555 1_555
O33 Cd1_2 1_555 1_555
O34 Cd7 1_555 1_555
O35 Cd6_2 1_555 1_555
O36 Cd7 1_555 1_555
O37 Ni6 1_555 1_555
O38 Ni6 1_555 1_555
O53 Cd6_2 1_555 1_555
C133 C134 1_555 1_555
C134 C135 1_555 1_555
C135 H163 1_555 1_555
C136 C135 1_555 1_555
C137 O31 1_555 1_555
C138 C137 1_555 1_555
C139 C134 1_555 1_555
H164 C139 1_555 1_555
C140 H165 1_555 1_555
H166 C140 1_555 1_555
H167 C140 1_555 1_555
C141 C136 1_555 1_555
C142 C141 1_555 1_555
H168 C142 1_555 1_555
H169 C142 1_555 1_555
H170 C142 1_555 1_555
C143 C141 1_555 1_555
H171 C143 1_555 1_555
H172 C143 1_555 1_555
H173 C143 1_555 1_555
C144 C138 1_555 1_555
H174 C144 1_555 1_555
C145 N13 1_555 1_555
C146 C145 1_555 1_555
H175 C146 1_555 1_555
H176 C146 1_555 1_555
C147 C146 1_555 1_555
H177 C147 1_555 1_555
H178 C147 1_555 1_555
C148 C147 1_555 1_555
H179 C148 1_555 1_555
H180 C148 1_555 1_555
C149 C148 1_555 1_555
H181 C149 1_555 1_555
H182 C149 1_555 1_555
C150 N14 1_555 1_555
H183 C150 1_555 1_555
C151 N14 1_555 1_555
H184 C151 1_555 1_555
C152 C151 1_555 1_555
C153 O32 1_555 1_555
C154 C153 1_555 1_555
C155 C154 1_555 1_555
H185 C155 1_555 1_555
C156 C155 1_555 1_555
C157 C152 1_555 1_555
H186 C157 1_555 1_555
C158 C154 1_555 1_555
C159 C158 1_555 1_555
H187 C159 1_555 1_555
H188 C159 1_555 1_555
H189 C159 1_555 1_555
C160 C158 1_555 1_555
H191 C160 1_555 1_555
H192 C160 1_555 1_555
C161 C158 1_555 1_555
H193 C161 1_555 1_555
H194 C161 1_555 1_555
H195 C161 1_555 1_555
C162 O33 1_555 1_555
C163 O35 1_555 1_555
C164 C163 1_555 1_555
C165 C164 1_555 1_555
H196 C165 1_555 1_555
C166 C165 1_555 1_555
C167 O37 1_555 1_555
C168 C167 1_555 1_555
C169 C164 1_555 1_555
H197 C169 1_555 1_555
C170 C168 1_555 1_555
C172 C170 1_555 1_555
H201 C172 1_555 1_555
H203 C172 1_555 1_555
C174 C166 1_555 1_555
H207 C174 1_555 1_555
C175 N15 1_555 1_555
H208 C175 1_555 1_555
C176 C175 1_555 1_555
H209 C176 1_555 1_555
H210 C176 1_555 1_555
C177 C176 1_555 1_555
H211 C177 1_555 1_555
H212 C177 1_555 1_555
C178 C177 1_555 1_555
H213 C178 1_555 1_555
H214 C178 1_555 1_555
C179 C178 1_555 1_555
H215 C179 1_555 1_555
H216 C179 1_555 1_555
C180 N16 1_555 1_555
H217 C180 1_555 1_555
C181 N16 1_555 1_555
H218 C181 1_555 1_555
C182 C181 1_555 1_555
C183 O38 1_555 1_555
C187 C182 1_555 1_555
H220 C187 1_555 1_555
N21 C253 1_555 1_555
C253 O53 1_555 1_555
C254 N21 1_555 1_555
H298 C254 1_555 1_555
H299 C254 1_555 1_555
H300 C254 1_555 1_555
C255 N21 1_555 1_555
H301 C255 1_555 1_555
H302 C255 1_555 1_555
Cd12 O14 1_555 1_555
Cd16 O13 1_555 1_555
Cd18 O29 1_555 1_555
Cd6_2 O19 1_555 1_555
O14 Cd16 1_555 1_555
O18 C91 1_555 1_555
O20 C90 1_555 1_555
C64 C65 1_555 1_555
C66 C67 1_555 1_555
C74 C75 1_555 1_555
C74 C78 1_555 1_555
C77 C78 1_555 1_555
C80 C81 1_555 1_555
C84 C85 1_555 1_555
C84 C91 1_555 1_555
C94 C95 1_555 1_555
C96 C97 1_555 1_555
C98 C99 1_555 1_555
C103 C107 1_555 1_555
C105 C109 1_555 1_555
C107 C109 1_555 1_555
C110 C111 1_555 1_555
C114 C115 1_555 1_555
C116 C117 1_555 1_555
O30 Cd12 1_555 1_555
O34 C162 1_555 1_555
O36 C163 1_555 1_555
C136 C137 1_555 1_555
C138 C139 1_555 1_555
C140 C141 1_555 1_555
C145 C150 1_555 1_555
C149 C150 1_555 1_555
C152 C153 1_555 1_555
C156 C157 1_555 1_555
C156 C162 1_555 1_555
C166 C167 1_555 1_555
C168 C169 1_555 1_555
C175 C180 1_555 1_555
C179 C180 1_555 1_555
C182 C183 1_555 1_555
C145 H327 1_555 1_555
C104 H116 1_555 1_555
H117 C104 1_555 1_555
Cd14 O39 1_555 1_555
O39 C192 1_555 1_555
O61 C192 1_555 1_555
H198 C171 1_555 1_555
H199 C171 1_555 1_555
H200 C171 1_555 1_555
H204 C173 1_555 1_555
H205 C173 1_555 1_555
C185 C184 1_555 1_555
H219 C185 1_555 1_555
C186 C185 1_555 1_555
C188 C184 1_555 1_555
C189 C188 1_555 1_555
H221 C189 1_555 1_555
H222 C189 1_555 1_555
H223 C189 1_555 1_555
C190 C188 1_555 1_555
H224 C190 1_555 1_555
H225 C190 1_555 1_555
H226 C190 1_555 1_555
C191 C188 1_555 1_555
H227 C191 1_555 1_555
H228 C191 1_555 1_555
H229 C191 1_555 1_555
C192 C186 1_555 1_555
N23 C259 1_555 1_555
O55 Cd14 1_555 1_555
C259 O55 1_555 1_555
H311 C259 1_555 1_555
C260 N23 1_555 1_555
H312 C260 1_555 1_555
H313 C260 1_555 1_555
H314 C260 1_555 1_555
C261 N23 1_555 1_555
H315 C261 1_555 1_555
H316 C261 1_555 1_555
H317 C261 1_555 1_555
O58 Cd14 1_555 1_555
O63 Cd14 1_555 1_555
Cd1_3 O5_2 1_555 1_555
Cd2_2 O5_2 1_555 1_555
N2_2 Ni1_2 1_555 1_555
O57 C1_2 1_555 1_555
O59 C1_2 1_555 1_555
O3_2 Ni1_2 1_555 1_555
O4_2 Ni1_2 1_555 1_555
O5_2 C30_2 1_555 1_555
O6_2 Cd2_2 1_555 1_555
C1_2 C2_2 1_555 1_555
C2_2 C3_2 1_555 1_555
C3_2 H1_2 1_555 1_555
C4_2 C3_2 1_555 1_555
C5_2 O3_2 1_555 1_555
C6_2 C5_2 1_555 1_555
C7_2 C2_2 1_555 1_555
H2_2 C7_2 1_555 1_555
C8_2 H3_2 1_555 1_555
H4_2 C8_2 1_555 1_555
H5_2 C8_2 1_555 1_555
C9_2 C4_2 1_555 1_555
C10_2 C9_2 1_555 1_555
H6_2 C10_2 1_555 1_555
H7_2 C10_2 1_555 1_555
H8_2 C10_2 1_555 1_555
C11_2 C9_2 1_555 1_555
H9_2 C11_2 1_555 1_555
H10_2 C11_2 1_555 1_555
H11_2 C11_2 1_555 1_555
C19_2 N2_2 1_555 1_555
C20_2 C19_2 1_555 1_555
C21_2 O4_2 1_555 1_555
C22_2 C21_2 1_555 1_555
C23_2 C22_2 1_555 1_555
H23_2 C23_2 1_555 1_555
C24_2 C23_2 1_555 1_555
C25_2 C20_2 1_555 1_555
H24_2 C25_2 1_555 1_555
C26_2 C22_2 1_555 1_555
C27_2 C26_2 1_555 1_555
H25_2 C27_2 1_555 1_555
H26_2 C27_2 1_555 1_555
H27_2 C27_2 1_555 1_555
C28_2 C26_2 1_555 1_555
H28_2 C28_2 1_555 1_555
H29_2 C28_2 1_555 1_555
H30_2 C28_2 1_555 1_555
C29_2 C26_2 1_555 1_555
H31_2 C29_2 1_555 1_555
H32_2 C29_2 1_555 1_555
H33_2 C29_2 1_555 1_555
C30_2 O6_2 1_555 1_555
C203_2 H238_2 1_555 1_555
H239_2 C203_2 1_555 1_555
H244_2 C206_2 1_555 1_555
C207_2 C203_2 1_555 1_555
H245_2 C207_2 1_555 1_555
H246_2 C207_2 1_555 1_555
C208_2 C203_2 1_555 1_555
H247_2 C208_2 1_555 1_555
H248_2 C208_2 1_555 1_555
C209_2 C208_2 1_555 1_555
H249_2 C209_2 1_555 1_555
H250_2 C209_2 1_555 1_555
H251_2 C210_2 1_555 1_555
C4_2 C5_2 1_555 1_555
C6_2 C7_2 1_555 1_555
C8_2 C9_2 1_555 1_555
C20_2 C21_2 1_555 1_555
C24_2 C25_2 1_555 1_555
C24_2 C30_2 1_555 1_555
C206_2 C207_2 1_555 1_555
C206_2 C210_2 1_555 1_555
C209_2 C210_2 1_555 1_555
Ni3_2 N5_2 1_555 1_555
N5_2 C73_2 1_555 1_555
N6_2 Ni3_2 1_555 1_555
O62 C61_2 1_555 1_555
O64 C61_2 1_555 1_555
O15_2 Ni3_2 1_555 1_555
O16_2 Ni3_2 1_555 1_555
O17_2 Cd1_4 1_555 1_555
O19_2 Cd1_4 1_555 1_555
C61_2 C62_2 1_555 1_555
C62_2 C63_2 1_555 1_555
C63_2 H68_2 1_555 1_555
C64_2 C63_2 1_555 1_555
C65_2 O15_2 1_555 1_555
C66_2 C65_2 1_555 1_555
C67_2 C62_2 1_555 1_555
H69_2 C67_2 1_555 1_555
C68_2 C64_2 1_555 1_555
C69_2 C68_2 1_555 1_555
H70_2 C69_2 1_555 1_555
H71 C69_2 1_555 1_555
H72_2 C69_2 1_555 1_555
C70_2 C68_2 1_555 1_555
H73_2 C70_2 1_555 1_555
H74_2 C70_2 1_555 1_555
H75_2 C70_2 1_555 1_555
C72_2 C68_2 1_555 1_555
H78_2 C72_2 1_555 1_555
H79_2 C72_2 1_555 1_555
H80_2 C72_2 1_555 1_555
C73_2 C66_2 1_555 1_555
C79_2 N6_2 1_555 1_555
C80_2 C79_2 1_555 1_555
C81_2 O16_2 1_555 1_555
C82_2 C81_2 1_555 1_555
C83_2 C82_2 1_555 1_555
H91_2 C83_2 1_555 1_555
C84_2 C83_2 1_555 1_555
C85_2 C80_2 1_555 1_555
H92_2 C85_2 1_555 1_555
C86_2 C82_2 1_555 1_555
C87_2 C86_2 1_555 1_555
H93_2 C87_2 1_555 1_555
H94_2 C87_2 1_555 1_555
H95_2 C87_2 1_555 1_555
C88_2 C86_2 1_555 1_555
H96_2 C88_2 1_555 1_555
H97_2 C88_2 1_555 1_555
H98_2 C88_2 1_555 1_555
C89_2 C86_2 1_555 1_555
H99_2 C89_2 1_555 1_555
H100_2 C89_2 1_555 1_555
H101_2 C89_2 1_555 1_555
C90_2 O19_2 1_555 1_555
C91_2 O17_2 1_555 1_555
N10_2 C124_2 1_555 1_555
C124_2 O26_2 1_555 1_555
H142_2 C124_2 1_555 1_555
C126_2 N10_2 1_555 1_555
H146_2 C126_2 1_555 1_555
H147_2 C126_2 1_555 1_555
H148 C126_2 1_555 1_555
N13_2 C144_2 1_555 1_555
H174_2 C144_2 1_555 1_555
C145_2 N13_2 1_555 1_555
C146_2 C145_2 1_555 1_555
H175_2 C146_2 1_555 1_555
H176_2 C146_2 1_555 1_555
C147_2 C146_2 1_555 1_555
H177_2 C147_2 1_555 1_555
H178_2 C147_2 1_555 1_555
C148_2 C147_2 1_555 1_555
H179_2 C148_2 1_555 1_555
H180_2 C148_2 1_555 1_555
C149_2 C148_2 1_555 1_555
H181_2 C149_2 1_555 1_555
H182_2 C149_2 1_555 1_555
H183_2 C150_2 1_555 1_555
O18_2 C91_2 1_555 1_555
O20_2 C90_2 1_555 1_555
C64_2 C65_2 1_555 1_555
C66_2 C67_2 1_555 1_555
C80_2 C81_2 1_555 1_555
C84_2 C85_2 1_555 1_555
C84_2 C91_2 1_555 1_555
C145_2 C150_2 1_555 1_555
C149_2 C150_2 1_555 1_555
C145_2 H327_2 1_555 1_555
Cd3_3 O12_2 1_555 1_555
Cd12 O12_2 1_555 1_555
Cd16 O11_2 1_555 1_555
Cd6_3 O7_2 1_555 1_555
Ni2_2 N3_2 1_555 1_555
N3_2 C42_2 1_555 1_555
N4_2 Ni2_2 1_555 1_555
O7_2 C31_2 1_555 1_555
O9_2 Ni2_2 1_555 1_555
O10_2 Ni2_2 1_555 1_555
O11_2 C60_2 1_555 1_555
O12_2 C60_2 1_555 1_555
O27_2 Cd3_3 1_555 1_555
C31_2 O8_2 1_555 1_555
C32_2 C31_2 1_555 1_555
C33_2 C32_2 1_555 1_555
H34_2 C33_2 1_555 1_555
C34_2 C33_2 1_555 1_555
C35_2 O9_2 1_555 1_555
C36_2 C35_2 1_555 1_555
C37_2 C32_2 1_555 1_555
H35_2 C37_2 1_555 1_555
C38_2 C36_2 1_555 1_555
C39_2 C38_2 1_555 1_555
H36_2 C39_2 1_555 1_555
H37_2 C39_2 1_555 1_555
H38_2 C39_2 1_555 1_555
C40_2 C38_2 1_555 1_555
H39_2 C40_2 1_555 1_555
H40_2 C40_2 1_555 1_555
H41_2 C40_2 1_555 1_555
C41_2 C38_2 1_555 1_555
H42_2 C41_2 1_555 1_555
H43_2 C41_2 1_555 1_555
H44_2 C41_2 1_555 1_555
C42_2 C34_2 1_555 1_555
H45_2 C42_2 1_555 1_555
C43_2 N3_2 1_555 1_555
H46_2 C43_2 1_555 1_555
C44_2 C43_2 1_555 1_555
H47_2 C44_2 1_555 1_555
H48_2 C44_2 1_555 1_555
H51_2 C46_2 1_555 1_555
C47_2 C46_2 1_555 1_555
H53_2 C47_2 1_555 1_555
H54_2 C47_2 1_555 1_555
C48_2 N4_2 1_555 1_555
H55_2 C48_2 1_555 1_555
C49_2 N4_2 1_555 1_555
H56_2 C49_2 1_555 1_555
C50_2 C49_2 1_555 1_555
C51_2 O10_2 1_555 1_555
C52_2 C51_2 1_555 1_555
C53_2 C52_2 1_555 1_555
H57_2 C53_2 1_555 1_555
C54_2 C53_2 1_555 1_555
C55_2 C50_2 1_555 1_555
H58_2 C55_2 1_555 1_555
C56_2 C52_2 1_555 1_555
C57_2 C56_2 1_555 1_555
H59_2 C57_2 1_555 1_555
H60_2 C57_2 1_555 1_555
H61_2 C57_2 1_555 1_555
C58_2 C56_2 1_555 1_555
H62_2 C58_2 1_555 1_555
H63_2 C58_2 1_555 1_555
H64_2 C58_2 1_555 1_555
C59_2 C56_2 1_555 1_555
H65_2 C59_2 1_555 1_555
H66_2 C59_2 1_555 1_555
H67_2 C59_2 1_555 1_555
C60_2 C54_2 1_555 1_555
N11_2 C127_2 1_555 1_555
O28_2 Cd16 1_555 1_555
C127_2 O28_2 1_555 1_555
H149_2 C127_2 1_555 1_555
C128_2 N11_2 1_555 1_555
H150_2 C128_2 1_555 1_555
H152_2 C128_2 1_555 1_555
C129_2 N11_2 1_555 1_555
H153_2 C129_2 1_555 1_555
H154_2 C129_2 1_555 1_555
N12_2 C130_2 1_555 1_555
C130_2 O27_2 1_555 1_555
H156_2 C130_2 1_555 1_555
C131_2 N12_2 1_555 1_555
H157_2 C131_2 1_555 1_555
H158_2 C131_2 1_555 1_555
H159_2 C131_2 1_555 1_555
C132_2 N12_2 1_555 1_555
H160_2 C132_2 1_555 1_555
H161_2 C132_2 1_555 1_555
H162_2 C132_2 1_555 1_555
Ni8_2 N19_2 1_555 1_555
N19_2 C234_2 1_555 1_555
N20_2 Ni8_2 1_555 1_555
O49_2 Ni8_2 1_555 1_555
O50_2 Ni8_2 1_555 1_555
O51_2 C252_2 1_555 1_555
O52_2 Cd3_3 1_555 1_555
H264_2 C225_2 1_555 1_555
C226_2 C225_2 1_555 1_555
C227_2 O49_2 1_555 1_555
C234_2 C226_2 1_555 1_555
H275_2 C234_2 1_555 1_555
C235_2 H276_2 1_555 1_555
H277_2 C235_2 1_555 1_555
C236_2 H278_2 1_555 1_555
H279_2 C236_2 1_555 1_555
C237_2 C236_2 1_555 1_555
H280_2 C237_2 1_555 1_555
H281_2 C237_2 1_555 1_555
C238_2 N20_2 1_555 1_555
H282_2 C238_2 1_555 1_555
C239_2 N19_2 1_555 1_555
H283_2 C239_2 1_555 1_555
C240_2 C235_2 1_555 1_555
H284_2 C240_2 1_555 1_555
C241_2 N20_2 1_555 1_555
H285_2 C241_2 1_555 1_555
C242_2 C238_2 1_555 1_555
C243_2 O50_2 1_555 1_555
C244_2 C243_2 1_555 1_555
C245_2 C244_2 1_555 1_555
H286_2 C245_2 1_555 1_555
C246_2 C245_2 1_555 1_555
C247_2 C242_2 1_555 1_555
H287_2 C247_2 1_555 1_555
C249_2 C244_2 1_555 1_555
C251_2 C249_2 1_555 1_555
H294_2 C251_2 1_555 1_555
H295_2 C251_2 1_555 1_555
C252_2 O52_2 1_555 1_555
O56_2 Cd3_3 1_555 1_555
N24_2 C262_2 1_555 1_555
C262_2 O56_2 1_555 1_555
H318_2 C262_2 1_555 1_555
C263_2 N24_2 1_555 1_555
H319_2 C263_2 1_555 1_555
H320_2 C263_2 1_555 1_555
H321_2 C263_2 1_555 1_555
C264_2 N24_2 1_555 1_555
H322_2 C264_2 1_555 1_555
H323_2 C264_2 1_555 1_555
H324_2 C264_2 1_555 1_555
Cd18 O51_2 1_555 1_555
O61_2 Cd3_3 1_555 1_555
O67_2 Cd16 1_555 1_555
O69_2 Cd3_3 1_555 1_555
Cd12 O61_2 1_555 1_555
C34_2 C35_2 1_555 1_555
C36_2 C37_2 1_555 1_555
C43_2 C48_2 1_555 1_555
C47_2 C48_2 1_555 1_555
C50_2 C51_2 1_555 1_555
C54_2 C55_2 1_555 1_555
C226_2 C227_2 1_555 1_555
C235_2 C239_2 1_555 1_555
C236_2 C240_2 1_555 1_555
C237_2 C241_2 1_555 1_555
C239_2 C241_2 1_555 1_555
C242_2 C243_2 1_555 1_555
C246_2 C247_2 1_555 1_555
C246_2 C252_2 1_555 1_555
C240_2 H328_2 1_555 1_555
N1_2 C12_2 1_555 1_555
H12_2 C12_2 1_555 1_555
C13_2 N1_2 1_555 1_555
C14_2 C13_2 1_555 1_555
H13_2 C14_2 1_555 1_555
H14_2 C14_2 1_555 1_555
C15_2 C14_2 1_555 1_555
H15_2 C15_2 1_555 1_555
H16_2 C15_2 1_555 1_555
C16_2 C15_2 1_555 1_555
H17_2 C16_2 1_555 1_555
H18_2 C16_2 1_555 1_555
C17_2 C16_2 1_555 1_555
H19_2 C17_2 1_555 1_555
H20_2 C17_2 1_555 1_555
H21_2 C18_2 1_555 1_555
Ni7_2 N17_2 1_555 1_555
N17_2 C205_2 1_555 1_555
N18_2 Ni7_2 1_555 1_555
O63 C193_2 1_555 1_555
O66 C193_2 1_555 1_555
O43_2 Ni7_2 1_555 1_555
O44_2 Ni7_2 1_555 1_555
O45_2 Cd1_5 1_555 1_555
O47_2 Cd1_5 1_555 1_555
C193_2 C194_2 1_555 1_555
C194_2 C195_2 1_555 1_555
C195_2 H230_2 1_555 1_555
C196_2 C195_2 1_555 1_555
C197_2 O43_2 1_555 1_555
C198_2 C197_2 1_555 1_555
C199_2 C194_2 1_555 1_555
H231_2 C199_2 1_555 1_555
C200_2 C196_2 1_555 1_555
C201_2 C200_2 1_555 1_555
H232_2 C201_2 1_555 1_555
H233 C201_2 1_555 1_555
H234_2 C201_2 1_555 1_555
C202_2 C200_2 1_555 1_555
H235_2 C202_2 1_555 1_555
H236_2 C202_2 1_555 1_555
H237_2 C202_2 1_555 1_555
C204_2 C200_2 1_555 1_555
H240_2 C204_2 1_555 1_555
H241_2 C204_2 1_555 1_555
H242_2 C204_2 1_555 1_555
C205_2 C198_2 1_555 1_555
C211_2 N18_2 1_555 1_555
C212_2 C211_2 1_555 1_555
C213_2 O44_2 1_555 1_555
C214_2 C213_2 1_555 1_555
C215_2 C214_2 1_555 1_555
H253_2 C215_2 1_555 1_555
C216_2 C215_2 1_555 1_555
C217_2 C212_2 1_555 1_555
H254_2 C217_2 1_555 1_555
C218_2 C214_2 1_555 1_555
C219_2 C218_2 1_555 1_555
H255_2 C219_2 1_555 1_555
H256_2 C219_2 1_555 1_555
H257_2 C219_2 1_555 1_555
C220_2 C218_2 1_555 1_555
H258_2 C220_2 1_555 1_555
H259_2 C220_2 1_555 1_555
H260_2 C220_2 1_555 1_555
C221_2 C218_2 1_555 1_555
H261_2 C221_2 1_555 1_555
H262_2 C221_2 1_555 1_555
H263_2 C221_2 1_555 1_555
C222_2 O47_2 1_555 1_555
C223_2 O45_2 1_555 1_555
N22_2 C256_2 1_555 1_555
C256_2 O54_2 1_555 1_555
H304_2 C256_2 1_555 1_555
C258_2 N22_2 1_555 1_555
H308_2 C258_2 1_555 1_555
H309_2 C258_2 1_555 1_555
H310 C258_2 1_555 1_555
C13_2 C18_2 1_555 1_555
C17_2 C18_2 1_555 1_555
O46_2 C223_2 1_555 1_555
O48_2 C222_2 1_555 1_555
C196_2 C197_2 1_555 1_555
C198_2 C199_2 1_555 1_555
C212_2 C213_2 1_555 1_555
C216_2 C217_2 1_555 1_555
C216_2 C223_2 1_555 1_555
C13_2 H326_2 1_555 1_555
C71_2 H76_2 1_555 1_555
H77_2 C71_2 1_555 1_555
H82_2 C74_2 1_555 1_555
C75_2 C71_2 1_555 1_555
H83_2 C75_2 1_555 1_555
H84_2 C75_2 1_555 1_555
C76_2 C71_2 1_555 1_555
H85_2 C76_2 1_555 1_555
H86_2 C76_2 1_555 1_555
C77_2 C76_2 1_555 1_555
H87_2 C77_2 1_555 1_555
H88_2 C77_2 1_555 1_555
H89_2 C78_2 1_555 1_555
Cd7_2 O33_2 1_555 1_555
N14_2 Ni5_2 1_555 1_555
O58 C133_2 1_555 1_555
O60 C133_2 1_555 1_555
O31_2 Ni5_2 1_555 1_555
O32_2 Ni5_2 1_555 1_555
O33_2 Cd1_6 1_555 1_555
O34_2 Cd7_2 1_555 1_555
C133_2 C134_2 1_555 1_555
C134_2 C135_2 1_555 1_555
C135_2 H163_2 1_555 1_555
C136_2 C135_2 1_555 1_555
C137_2 O31_2 1_555 1_555
C138_2 C137_2 1_555 1_555
C139_2 C134_2 1_555 1_555
H164_2 C139_2 1_555 1_555
C140_2 H165_2 1_555 1_555
H166_2 C140_2 1_555 1_555
H167_2 C140_2 1_555 1_555
C141_2 C136_2 1_555 1_555
C142_2 C141_2 1_555 1_555
H168_2 C142_2 1_555 1_555
H169_2 C142_2 1_555 1_555
H170_2 C142_2 1_555 1_555
C143_2 C141_2 1_555 1_555
H171_2 C143_2 1_555 1_555
H172_2 C143_2 1_555 1_555
H173_2 C143_2 1_555 1_555
C151_2 N14_2 1_555 1_555
C152_2 C151_2 1_555 1_555
C153_2 O32_2 1_555 1_555
C154_2 C153_2 1_555 1_555
C155_2 C154_2 1_555 1_555
H185_2 C155_2 1_555 1_555
C156_2 C155_2 1_555 1_555
C157_2 C152_2 1_555 1_555
H186_2 C157_2 1_555 1_555
C158_2 C154_2 1_555 1_555
C159_2 C158_2 1_555 1_555
H187_2 C159_2 1_555 1_555
H188_2 C159_2 1_555 1_555
H189_2 C159_2 1_555 1_555
C160_2 C158_2 1_555 1_555
H190_2 C160_2 1_555 1_555
H191_2 C160_2 1_555 1_555
H192_2 C160_2 1_555 1_555
C161_2 C158_2 1_555 1_555
H193_2 C161_2 1_555 1_555
H194_2 C161_2 1_555 1_555
H195_2 C161_2 1_555 1_555
C162_2 O33_2 1_555 1_555
C74_2 C75_2 1_555 1_555
C74_2 C78_2 1_555 1_555
C77_2 C78_2 1_555 1_555
O34_2 C162_2 1_555 1_555
C136_2 C137_2 1_555 1_555
C138_2 C139_2 1_555 1_555
C140_2 C141_2 1_555 1_555
C152_2 C153_2 1_555 1_555
C156_2 C157_2 1_555 1_555
C156_2 C162_2 1_555 1_555
Ni4_2 N7_2 1_555 1_555
N7_2 C102_2 1_555 1_555
N8_2 Ni4_2 1_555 1_555
O21_2 Ni4_2 1_555 1_555
O22_2 Ni4_2 1_555 1_555
O67_2 C120_2 1_555 1_555
O69_2 C120_2 1_555 1_555
H102_2 C93_2 1_555 1_555
C94_2 C93_2 1_555 1_555
C95_2 O21_2 1_555 1_555
C102_2 C94_2 1_555 1_555
H113_2 C102_2 1_555 1_555
C103_2 H114_2 1_555 1_555
H115_2 C103_2 1_555 1_555
C104_2 H116_2 1_555 1_555
H117_2 C104_2 1_555 1_555
C105_2 C104_2 1_555 1_555
H118_2 C105_2 1_555 1_555
H119_2 C105_2 1_555 1_555
C106_2 N8_2 1_555 1_555
H120_2 C106_2 1_555 1_555
C107_2 N7_2 1_555 1_555
H121_2 C107_2 1_555 1_555
C108_2 C103_2 1_555 1_555
H122_2 C108_2 1_555 1_555
C109_2 N8_2 1_555 1_555
H123_2 C109_2 1_555 1_555
C110_2 C106_2 1_555 1_555
C111_2 O22_2 1_555 1_555
C112_2 C111_2 1_555 1_555
C113_2 C112_2 1_555 1_555
H124_2 C113_2 1_555 1_555
C114_2 C113_2 1_555 1_555
C115_2 C110_2 1_555 1_555
H125_2 C115_2 1_555 1_555
C117_2 C112_2 1_555 1_555
C119_2 C117_2 1_555 1_555
H132_2 C119_2 1_555 1_555
H133_2 C119_2 1_555 1_555
C120_2 C114_2 1_555 1_555
Cd18 O39_2 1_555 1_555
Ni6_2 N15_2 1_555 1_555
N15_2 C174_2 1_555 1_555
N16_2 Ni6_2 1_555 1_555
O35_2 Cd6_4 1_555 1_555
O37_2 Ni6_2 1_555 1_555
O38_2 Ni6_2 1_555 1_555
O39_2 C192_2 1_555 1_555
O61_2 C192_2 1_555 1_555
C163_2 O35_2 1_555 1_555
C164_2 C163_2 1_555 1_555
C165_2 C164_2 1_555 1_555
H196_2 C165_2 1_555 1_555
C166_2 C165_2 1_555 1_555
C167_2 O37_2 1_555 1_555
C168_2 C167_2 1_555 1_555
C169_2 C164_2 1_555 1_555
H197_2 C169_2 1_555 1_555
C170_2 C168_2 1_555 1_555
C171_2 C170_2 1_555 1_555
H198_2 C171_2 1_555 1_555
H199_2 C171_2 1_555 1_555
H200_2 C171_2 1_555 1_555
C172_2 C170_2 1_555 1_555
H201_2 C172_2 1_555 1_555
H202_2 C172_2 1_555 1_555
H203_2 C172_2 1_555 1_555
C173_2 C170_2 1_555 1_555
H204_2 C173_2 1_555 1_555
H205_2 C173_2 1_555 1_555
H206_2 C173_2 1_555 1_555
C174_2 C166_2 1_555 1_555
H207_2 C174_2 1_555 1_555
C175_2 N15_2 1_555 1_555
H208_2 C175_2 1_555 1_555
C176_2 C175_2 1_555 1_555
H209_2 C176_2 1_555 1_555
H210_2 C176_2 1_555 1_555
H213_2 C178_2 1_555 1_555
C179_2 C178_2 1_555 1_555
H215_2 C179_2 1_555 1_555
H216_2 C179_2 1_555 1_555
C180_2 N16_2 1_555 1_555
H217_2 C180_2 1_555 1_555
C181_2 N16_2 1_555 1_555
H218_2 C181_2 1_555 1_555
C182_2 C181_2 1_555 1_555
C183_2 O38_2 1_555 1_555
C184_2 C183_2 1_555 1_555
C185_2 C184_2 1_555 1_555
H219_2 C185_2 1_555 1_555
C186_2 C185_2 1_555 1_555
C187_2 C182_2 1_555 1_555
H220_2 C187_2 1_555 1_555
C188_2 C184_2 1_555 1_555
C189_2 C188_2 1_555 1_555
H221_2 C189_2 1_555 1_555
H222_2 C189_2 1_555 1_555
H223_2 C189_2 1_555 1_555
C190_2 C188_2 1_555 1_555
H224_2 C190_2 1_555 1_555
H225_2 C190_2 1_555 1_555
H226_2 C190_2 1_555 1_555
C191_2 C188_2 1_555 1_555
H227_2 C191_2 1_555 1_555
H228_2 C191_2 1_555 1_555
H229_2 C191_2 1_555 1_555
C192_2 C186_2 1_555 1_555
N23_2 C259_2 1_555 1_555
O55_2 Cd18 1_555 1_555
C259_2 O55_2 1_555 1_555
H311_2 C259_2 1_555 1_555
C260_2 N23_2 1_555 1_555
H312_2 C260_2 1_555 1_555
H314_2 C260_2 1_555 1_555
C261_2 N23_2 1_555 1_555
H315_2 C261_2 1_555 1_555
H316_2 C261_2 1_555 1_555
C94_2 C95_2 1_555 1_555
C103_2 C107_2 1_555 1_555
C104_2 C108_2 1_555 1_555
C105_2 C109_2 1_555 1_555
C107_2 C109_2 1_555 1_555
C110_2 C111_2 1_555 1_555
C114_2 C115_2 1_555 1_555
O36_2 C163_2 1_555 1_555
C166_2 C167_2 1_555 1_555
C168_2 C169_2 1_555 1_555
C175_2 C180_2 1_555 1_555
C179_2 C180_2 1_555 1_555
C182_2 C183_2 1_555 1_555
C186_2 C187_2 1_555 1_555
C108_2 H325_2 1_555 1_555
C97_2 C92_2 1_555 1_555
H103_2 C97_2 1_555 1_555
C98_2 H104_2 1_555 1_555
H105_2 C98_2 1_555 1_555
H106_2 C98_2 1_555 1_555
C99_2 C96_2 1_555 1_555
C100_2 C99_2 1_555 1_555
H107_2 C100_2 1_555 1_555
H108_2 C100_2 1_555 1_555
H109_2 C100_2 1_555 1_555
C101_2 C99_2 1_555 1_555
H110_2 C101_2 1_555 1_555
H112_2 C101_2 1_555 1_555
C116_2 H126_2 1_555 1_555
H127_2 C116_2 1_555 1_555
H128_2 C116_2 1_555 1_555
H129_2 C118_2 1_555 1_555
H131_2 C118_2 1_555 1_555
H143_2 C125_2 1_555 1_555
H144_2 C125_2 1_555 1_555
H145_2 C125_2 1_555 1_555
O53_2 Cd6_5 1_555 1_555
H211_2 C177_2 1_555 1_555
H212_2 C177_2 1_555 1_555
N21_2 C253_2 1_555 1_555
C253_2 O53_2 1_555 1_555
C254_2 N21_2 1_555 1_555
H298_2 C254_2 1_555 1_555
H299_2 C254_2 1_555 1_555
H300_2 C254_2 1_555 1_555
C255_2 N21_2 1_555 1_555
H301_2 C255_2 1_555 1_555
H302_2 C255_2 1_555 1_555
C96_2 C97_2 1_555 1_555
C98_2 C99_2 1_555 1_555
O25_2 Cd6_6 1_555 1_555
H49_2 C45_2 1_555 1_555
H50_2 C45_2 1_555 1_555
N9_2 C121_2 1_555 1_555
C121_2 O25_2 1_555 1_555
C122_2 N9_2 1_555 1_555
H136_2 C122_2 1_555 1_555
H137_2 C122_2 1_555 1_555
H138_2 C122_2 1_555 1_555
C123_2 N9_2 1_555 1_555
H139_2 C123_2 1_555 1_555
H140_2 C123_2 1_555 1_555
C229_2 C224_2 1_555 1_555
H265_2 C229_2 1_555 1_555
C230_2 H266_2 1_555 1_555
H267_2 C230_2 1_555 1_555
H268_2 C230_2 1_555 1_555
C231_2 C228_2 1_555 1_555
C232_2 C231_2 1_555 1_555
H269_2 C232_2 1_555 1_555
H270_2 C232_2 1_555 1_555
H271_2 C232_2 1_555 1_555
C233_2 C231_2 1_555 1_555
H272_2 C233_2 1_555 1_555
H274_2 C233_2 1_555 1_555
C248_2 H288_2 1_555 1_555
H289_2 C248_2 1_555 1_555
H290_2 C248_2 1_555 1_555
H291_2 C250_2 1_555 1_555
H293_2 C250_2 1_555 1_555
H305_2 C257_2 1_555 1_555
H306_2 C257_2 1_555 1_555
H307_2 C257_2 1_555 1_555
C228_2 C229_2 1_555 1_555
C230_2 C231_2 1_555 1_555

#END
