
###############################################################################
#
# This file contains modified crystal structure data generated from the
# MOF subset of the Cambridge Structural Database (CSD) v543 
# hosted by the Cambridge Crystallographic Data Centre (CCDC).
#
# This work is licensed under the Creative Commons
# Attribution-NonCommercial-ShareAlike 4.0 International License.
# To view a copy of this license, visit
# http://creativecommons.org/licenses/by-nc-sa/4.0/
# or send a letter to
# Creative Commons, PO Box 1866, Mountain View, CA 94042, USA.
#
# CIF created using the CSD Python API on 29 September 2022
# The structure has been converted into the P1 space group
# The structure has a 3D framework
# The original CSD entry KUTDAG is in the monoclinic crystal system
# The original CSD entry KUTDAG is in a Sohncke space group
# The framework has been calculated to contain at least 10.0% void space
# The void calculation uses a probe of radius 1.32A, grid spacing 0.4
# The framework is charged, counterions have been retained in the structure
# H atom positions have been added when not included in the experimental data
#
###############################################################################

data_KUTDAG
_chemical_formula_moiety         '(C548 H676 Cd25 Co16 N44 O140)n'
_symmetry_cell_setting           triclinic
_symmetry_space_group_name_H-M   'P 1'
_symmetry_Int_Tables_number      1
_space_group_name_Hall           'P 1'
loop_
_symmetry_equiv_pos_site_id
_symmetry_equiv_pos_as_xyz
1 x,y,z
_cell_length_a                   14.2697(9)
_cell_length_b                   40.363(3)
_cell_length_c                   30.931(2)
_cell_angle_alpha                90
_cell_angle_beta                 102.623(5)
_cell_angle_gamma                90
_cell_volume                     17384.7
loop_
_atom_site_label
_atom_site_type_symbol
_atom_site_fract_x
_atom_site_fract_y
_atom_site_fract_z
Cd4 Cd 0.0000 0.33960(3) 0.5000
Cd5 Cd 0.24810(8) 0.27534(2) 0.50239(3)
Cd6 Cd -0.0000 0.25270(2) 0.5000
O11 O 0.1873(6) 0.2865(2) 0.4392(2)
O12 O 0.0426(7) 0.2959(3) 0.4571(3)
H29 H 0.0338 0.5791 0.2369
C39 C 0.0668(7) 0.3890(3) 0.1558(3)
H37 H 0.0454 0.3834 0.1822
H38 H 0.0735 0.4126 0.1541
H39 H 0.1277 0.3787 0.1565
H41 H 0.0404 0.3285 0.1124
C41 C 0.0362(6) 0.3869(3) 0.0761(2)
H43 H 0.0494 0.4102 0.0777
H45 H 0.0949 0.3749 0.0774
C52 C 0.0845(3) 0.3240(2) 0.31348(18)
C53 C 0.1199(3) 0.3133(2) 0.3567(2)
H58 H 0.1855 0.3100 0.3670
C54 C 0.0573(4) 0.3076(2) 0.38457(16)
C56 C 0.1533(4) 0.32824(16) 0.2811(2)
C57 C 0.1613(11) 0.3639(2) 0.2647(5)
H60 H 0.2060 0.3645 0.2456
H61 H 0.1833 0.3782 0.2897
H62 H 0.0994 0.3712 0.2487
C58 C 0.1156(9) 0.3117(3) 0.2352(3)
H63 H 0.1607 0.3154 0.2168
H64 H 0.0548 0.3213 0.2214
H65 H 0.1079 0.2884 0.2391
C59 C 0.2517(7) 0.3120(4) 0.3007(6)
H66 H 0.2941 0.3155 0.2809
H67 H 0.2432 0.2887 0.3044
H68 H 0.2790 0.3219 0.3289
C60 C 0.0924(8) 0.2994(3) 0.4274(4)
N11 N 0.4565(4) 0.26956(13) 0.42085(15)
O27 O 0.3858(5) 0.2705(2) 0.4822(2)
C127 C 0.4168(5) 0.28599(18) 0.45261(19)
H151 H 0.4131 0.3090 0.4519
C128 C 0.4674(10) 0.23471(14) 0.4249(4)
H152 H 0.4427 0.2272 0.4497
H153 H 0.5343 0.2291 0.4295
H154 H 0.4327 0.2243 0.3983
C129 C 0.4880(7) 0.2894(2) 0.3882(2)
H155 H 0.4758 0.3123 0.3930
H156 H 0.4536 0.2830 0.3592
H157 H 0.5556 0.2861 0.3906
C233 C 0.0263(6) 0.4430(2) 0.2562(2)
H274 H 0.0944 0.4458 0.2686
H275 H 0.0194 0.4242 0.2361
H280 H 0.0310 0.4768 0.2084
H281 H 0.0007 0.4922 0.2495
O55 O 0.2175(4) 0.22272(16) 0.48023(19)
O57 O 0.0600(4) 0.21915(18) 0.4566(2)
O60 O 0.3020(5) 0.2569(2) 0.5778(3)
O62 O 0.1466(6) 0.2603(3) 0.5561(3)
O65 O 0.2834(4) 0.33090(19) 0.5287(2)
O67 O 0.1366(5) 0.3393(3) 0.5385(4)
Co1 Co 0.60056(15) 0.60493(5) 0.27734(6)
Co2 Co 0.82856(13) 0.35353(4) 0.22755(5)
Cd1 Cd 0.5000 0.54700(2) 0.0000
Cd2 Cd 0.75289(3) 0.525493(16) 0.006588(16)
Cd3 Cd 0.5000 0.45968(3) 0.0000
Cd4_2 Cd 1.0000 0.33960(3) 0.5000
Cd6_2 Cd 1.0000 0.25270(2) 0.5000
N1 N 0.4986(5) 0.6207(2) 0.2961(2)
N2 N 0.5143(4) 0.5882(2) 0.2302(2)
N3 N 0.7077(4) 0.36517(18) 0.2028(2)
N4 N 0.7716(5) 0.3401(2) 0.2722(2)
O1 O 0.7175(4) 0.72272(16) 0.48023(19)
O2 O 0.5600(4) 0.71915(18) 0.4566(2)
O3 O 0.6937(5) 0.61872(19) 0.3277(2)
O4 O 0.7061(4) 0.59286(17) 0.25296(18)
O5 O 0.6411(4) 0.54382(18) 0.0525(2)
O6 O 0.7962(4) 0.5433(2) 0.0735(2)
O7 O 0.6508(6) 0.4705(3) 0.0436(3)
O8 O 0.8144(6) 0.4750(2) 0.0354(3)
O9 O 0.8804(4) 0.36715(16) 0.18207(18)
O10 O 0.9581(5) 0.34092(19) 0.25894(17)
O25 O 0.4525(4) 0.4187(2) 0.0428(3)
C1 C 0.6416(4) 0.71137(17) 0.4545(2)
C2 C 0.6532(3) 0.68073(11) 0.42568(14)
C3 C 0.7434(3) 0.66789(15) 0.42542(19)
H1 H 0.7968 0.6751 0.4462
C4 C 0.7538(5) 0.64427(18) 0.3941(2)
C5 C 0.6740(6) 0.63351(17) 0.3630(2)
C6 C 0.5837(5) 0.64635(17) 0.36328(19)
C7 C 0.5733(3) 0.66996(14) 0.39461(17)
H2 H 0.5129 0.6786 0.3948
C8 C 0.8419(13) 0.58746(15) 0.4018(6)
H3 H 0.8093 0.5809 0.4244
H4 H 0.9050 0.5778 0.4077
H5 H 0.8063 0.5799 0.3735
C9 C 0.8503(5) 0.62572(14) 0.4012(2)
C10 C 0.8984(6) 0.6342(4) 0.3624(3)
H6 H 0.9040 0.6578 0.3601
H7 H 0.8600 0.6257 0.3352
H8 H 0.9612 0.6244 0.3676
C11 C 0.9261(8) 0.6355(4) 0.4430(3)
H9 H 0.9321 0.6592 0.4445
H10 H 0.9869 0.6258 0.4417
H11 H 0.9063 0.6275 0.4689
C12 C 0.5065(7) 0.6368(2) 0.3304(3)
H12 H 0.4479 0.6441 0.3353
C13 C 0.4074(4) 0.6123(3) 0.2674(3)
H13 H 0.4044 0.6292 0.2444
C14 C 0.3137(5) 0.6192(3) 0.2811(3)
H14 H 0.3117 0.6421 0.2903
H15 H 0.3081 0.6051 0.3058
C15 C 0.2282(8) 0.6121(2) 0.2403(3)
H16 H 0.1677 0.6124 0.2498
H17 H 0.2260 0.6291 0.2180
C16 C 0.2432(5) 0.5788(2) 0.2214(3)
H18 H 0.1861 0.5727 0.1995
H19 H 0.2525 0.5624 0.2449
C17 C 0.3303(5) 0.5784(3) 0.1997(3)
H20 H 0.3284 0.5969 0.1794
H21 H 0.3340 0.5578 0.1840
C18 C 0.4166(5) 0.5819(3) 0.2412(3)
H22 H 0.4199 0.5623 0.2600
C19 C 0.5271(7) 0.5765(3) 0.1927(2)
H23 H 0.4740 0.5693 0.1717
C20 C 0.6217(3) 0.57445(12) 0.18249(13)
C21 C 0.7061(3) 0.58132(18) 0.21324(14)
C22 C 0.7942(3) 0.5778(2) 0.20155(19)
C23 C 0.7980(3) 0.5674(2) 0.1591(2)
H24 H 0.8570 0.5650 0.1513
C24 C 0.7135(4) 0.5605(2) 0.12837(18)
C25 C 0.6254(3) 0.56405(19) 0.14005(14)
H25 H 0.5689 0.5595 0.1195
C26 C 0.8892(4) 0.58437(16) 0.23604(19)
C27 C 0.8948(9) 0.5654(3) 0.2798(3)
H26 H 0.9551 0.5700 0.2997
H27 H 0.8897 0.5420 0.2738
H28 H 0.8432 0.5723 0.2931
C28 C 0.9751(5) 0.5761(3) 0.2152(3)
H30 H 0.9746 0.5905 0.1905
H31 H 0.9704 0.5535 0.2053
C29 C 0.9021(8) 0.62118(19) 0.2499(4)
H32 H 0.9606 0.6238 0.2719
H33 H 0.8488 0.6282 0.2620
H34 H 0.9049 0.6345 0.2245
C30 C 0.7187(5) 0.5506(3) 0.0830(4)
C31 C 0.7347(12) 0.4574(3) 0.0459(4)
C32 C 0.7740(4) 0.43121(13) 0.08241(17)
C33 C 0.7164(4) 0.41974(17) 0.1101(2)
H35 H 0.6540 0.4276 0.1069
C34 C 0.7521(6) 0.3965(2) 0.1427(2)
C35 C 0.8454(7) 0.3847(2) 0.1476(3)
C36 C 0.9029(5) 0.3962(2) 0.1199(3)
C37 C 0.8672(4) 0.41943(17) 0.0873(2)
H36 H 0.9058 0.4271 0.0687
C38 C 0.9927(4) 0.37674(15) 0.1149(2)
C40 C 0.9792(11) 0.3389(2) 0.1109(5)
H40 H 0.9520 0.3310 0.1348
H42 H 0.9370 0.3337 0.0831
H44 H 0.9918 0.3819 0.0488
C42 C 0.6873(6) 0.3862(3) 0.1674(3)
H46 H 0.6248 0.3941 0.1591
C43 C 0.6298(6) 0.3512(3) 0.2223(3)
H47 H 0.6247 0.3283 0.2119
C44 C 0.5373(5) 0.3620(2) 0.2126(3)
H48 H 0.5120 0.3597 0.1810
H49 H 0.5364 0.3854 0.2199
C45 C 0.4710(5) 0.3434(2) 0.2372(2)
H50 H 0.4673 0.3202 0.2287
H51 H 0.4068 0.3527 0.2294
C46 C 0.5106(5) 0.3464(4) 0.2875(3)
H52 H 0.5069 0.3692 0.2971
H53 H 0.4747 0.3324 0.3036
C47 C 0.6147(5) 0.3351(3) 0.2950(4)
H54 H 0.6445 0.3391 0.3259
H55 H 0.6145 0.3113 0.2905
C48 C 0.6684(9) 0.3478(4) 0.2717(4)
H56 H 0.6721 0.3710 0.2815
C49 C 0.8254(8) 0.3268(3) 0.3127(4)
H57 H 0.7898 0.3196 0.3327
C50 C 0.9239(3) 0.32328(12) 0.32601(12)
C51 C 0.9865(3) 0.32897(16) 0.29814(13)
C55 C 0.9592(3) 0.31261(17) 0.36923(13)
H59 H 0.9173 0.3088 0.3879
N9 N 0.3117(4) 0.39165(17) 0.0503(2)
C121 C 0.3735(4) 0.4058(2) 0.0251(2)
C122 C 0.3106(9) 0.4051(3) 0.0922(2)
H138 H 0.3487 0.4249 0.0967
H139 H 0.3366 0.3893 0.1149
H140 H 0.2457 0.4103 0.0937
C123 C 0.2524(6) 0.36424(18) 0.0336(3)
H141 H 0.2157 0.3578 0.0548
H142 H 0.2918 0.3460 0.0284
H143 H 0.2096 0.3704 0.0063
Co7 Co 0.39776(10) 0.69814(4) 0.22249(5)
Co8 Co 0.66976(10) 0.44819(5) 0.27076(6)
N16 N 0.4935(6) 0.7115(2) 0.2728(3)
N17 N 0.5065(4) 0.68452(16) 0.1984(2)
N18 N 0.7212(5) 0.4672(3) 0.2269(2)
N19 N 0.7941(6) 0.4290(3) 0.2962(2)
O40 O 0.1980(5) 0.7569(2) 0.4222(3)
O41 O 0.3534(6) 0.7603(3) 0.4439(3)
O42 O 0.3001(6) 0.7099(2) 0.2467(2)
O43 O 0.3142(4) 0.68516(17) 0.1730(2)
O44 O 0.4441(5) 0.5807(2) 0.0443(4)
O45 O 0.2778(5) 0.5791(2) 0.0211(3)
O46 O 0.4578(4) 0.50275(18) 0.04066(18)
O47 O 0.3228(4) 0.5063(2) 0.0616(3)
O48 O 0.5521(5) 0.45789(17) 0.24399(16)
O49 O 0.6157(7) 0.4344(3) 0.3212(3)
O50 O 0.7166(4) 0.33090(19) 0.4713(2)
O51 O 0.8634(5) 0.3393(3) 0.4615(4)
O53 O 0.1070(4) 0.53095(19) 0.01642(17)
C190 C 0.2800(5) 0.7551(2) 0.41684(19)
C191 C 0.2905(3) 0.74415(12) 0.37177(11)
C192 C 0.2053(3) 0.73879(17) 0.34082(14)
H226 H 0.1467 0.7427 0.3484
C193 C 0.2078(4) 0.7276(2) 0.29859(14)
C194 C 0.2955(5) 0.7217(2) 0.28731(14)
C195 C 0.3806(4) 0.7271(2) 0.31826(17)
C196 C 0.3782(3) 0.73831(17) 0.36049(15)
H227 H 0.4351 0.7419 0.3812
C197 C 0.1121(4) 0.72483(16) 0.2650(2)
C198 C 0.0229(6) 0.7378(3) 0.2802(4)
H228 H 0.0206 0.7282 0.3084
H230 H 0.0265 0.7615 0.2830
C199 C 0.0979(10) 0.68697(19) 0.2580(5)
H231 H 0.0999 0.6764 0.2860
H232 H 0.1482 0.6782 0.2452
H233 H 0.0369 0.6828 0.2385
C200 C 0.7643(5) 0.7062(3) 0.2914(2)
H234 H 0.8149 0.7205 0.3074
H235 H 0.7731 0.6841 0.3038
C201 C 0.1060(11) 0.7421(3) 0.2193(3)
H236 H 0.1598 0.7354 0.2073
H237 H 0.1071 0.7657 0.2231
H238 H 0.0475 0.7357 0.1992
C202 C 0.4726(8) 0.7230(3) 0.3089(4)
H239 H 0.5244 0.7292 0.3313
C203 C 0.5924(6) 0.7033(3) 0.26834(17)
H240 H 0.6023 0.6804 0.2788
C204 C 0.6649(6) 0.7199(4) 0.2927(6)
H241 H 0.6579 0.7199 0.3232
H242 H 0.6613 0.7427 0.2827
C205 C 0.7628(11) 0.7059(5) 0.2427(3)
H243 H 0.8221 0.6959 0.2387
H244 H 0.7625 0.7287 0.2327
C206 C 0.6795(7) 0.6879(3) 0.2128(3)
H245 H 0.6828 0.6906 0.1820
H246 H 0.6824 0.6644 0.2197
C207 C 0.5941(5) 0.7015(3) 0.22007(19)
H247 H 0.5899 0.7242 0.2087
C208 C 0.5048(6) 0.66543(19) 0.1673(2)
H248 H 0.5629 0.6596 0.1605
C209 C 0.4125(3) 0.65065(11) 0.13918(14)
C210 C 0.3225(3) 0.66419(14) 0.13813(17)
C211 C 0.2442(3) 0.65467(19) 0.1053(2)
C212 C 0.2559(4) 0.6316(2) 0.0735(2)
H249 H 0.2035 0.6253 0.0515
C213 C 0.3459(5) 0.61809(19) 0.0746(2)
C214 C 0.4243(4) 0.62760(14) 0.10739(18)
H250 H 0.4845 0.6185 0.1081
C215 C 0.1438(4) 0.67098(16) 0.10087(17)
C216 C 0.1597(10) 0.7091(2) 0.0999(5)
H251 H 0.0991 0.7203 0.0966
H252 H 0.1880 0.7147 0.0753
H253 H 0.2018 0.7160 0.1270
C217 C 0.0977(6) 0.6613(3) 0.1390(2)
H254 H 0.0362 0.6719 0.1353
H255 H 0.1382 0.6682 0.1665
H256 H 0.0895 0.6377 0.1392
C218 C 0.0737(8) 0.6616(3) 0.0580(3)
H257 H 0.0139 0.6729 0.0565
H258 H 0.0632 0.6381 0.0574
H259 H 0.1000 0.6679 0.0332
C219 C 0.4075(4) 0.5041(2) 0.06858(18)
C220 C 0.3560(4) 0.59168(19) 0.0404(3)
C221 C 0.4470(3) 0.49237(13) 0.11748(11)
C222 C 0.5451(3) 0.48734(18) 0.13256(14)
H260 H 0.5868 0.4914 0.1139
C223 C 0.5808(4) 0.4762(2) 0.17553(16)
C224 C 0.5185(5) 0.4701(2) 0.20342(14)
C225 C 0.4204(4) 0.4751(2) 0.18834(14)
C226 C 0.3847(3) 0.48627(18) 0.14537(14)
H261 H 0.3191 0.4896 0.1353
C227 C 0.2410(5) 0.4764(3) 0.1948(3)
H262 H 0.1998 0.4702 0.2142
H263 H 0.2210 0.4652 0.1670
H264 H 0.2375 0.4999 0.1900
C228 C 0.3457(4) 0.46654(17) 0.2162(2)
C229 C 0.3494(7) 0.42897(17) 0.2254(3)
H265 H 0.4139 0.4227 0.2393
H266 H 0.3295 0.4172 0.1980
H267 H 0.3072 0.4237 0.2447
C230 C 0.3651(9) 0.4854(3) 0.2602(3)
H268 H 0.4291 0.4808 0.2764
H269 H 0.3199 0.4785 0.2773
H270 H 0.3583 0.5088 0.2545
C231 C 0.6849(5) 0.4721(3) 0.1885(3)
H271 H 0.7224 0.4732 0.1675
C232 C 0.8849(5) 0.4746(3) 0.2034(3)
H272 H 0.8735 0.4589 0.1792
H273 H 0.8676 0.4967 0.1918
C234 C 0.9778(7) 0.4340(4) 0.2942(3)
H276 H 0.9925 0.4500 0.3181
H277 H 0.9964 0.4120 0.3058
C235 C 0.8247(6) 0.4145(3) 0.3307(2)
H278 H 0.8902 0.4105 0.3402
C236 C 0.8270(5) 0.4649(4) 0.2399(4)
H279 H 0.8429 0.4832 0.2610
C237 C 0.9905(6) 0.4735(2) 0.2295(4)
C238 C 0.8615(6) 0.4353(3) 0.2684(3)
H282 H 0.8532 0.4166 0.2477
C239 C 0.7534(3) 0.40237(11) 0.35903(12)
C240 C 0.6618(3) 0.41538(13) 0.35529(16)
C241 C 0.6068(3) 0.40607(18) 0.3852(2)
C242 C 0.6434(5) 0.3837(2) 0.4189(2)
H283 H 0.6065 0.3775 0.4389
C243 C 0.7350(5) 0.37073(17) 0.42264(18)
C244 C 0.7900(3) 0.38004(13) 0.39271(15)
H284 H 0.8513 0.3713 0.3952
C245 C 0.4355(8) 0.4165(4) 0.3476(3)
H285 H 0.3739 0.4236 0.3519
H286 H 0.4336 0.3932 0.3413
H287 H 0.4509 0.4285 0.3233
C246 C 0.5124(5) 0.42343(18) 0.3899(2)
C247 C 0.4837(8) 0.4185(4) 0.4348(3)
H288 H 0.4240 0.4296 0.4343
H289 H 0.5327 0.4276 0.4581
H290 H 0.4767 0.3953 0.4400
C248 C 0.5187(9) 0.46136(19) 0.3854(4)
H291 H 0.4586 0.4712 0.3875
H292 H 0.5325 0.4667 0.3572
H293 H 0.5689 0.4698 0.4086
C249 C 0.7735(5) 0.3425(3) 0.4512(3)
H294 H 0.6452 0.4054 0.0057
N21 N 0.0498(4) 0.50686(17) 0.07424(18)
C253 C 0.0600(6) 0.5358(2) 0.0448(2)
H301 H 0.0322 0.5562 0.0479
C254 C 0.0889(6) 0.4781(2) 0.0511(3)
H302 H 0.1085 0.4862 0.0253
H303 H 0.0397 0.4617 0.0426
H304 H 0.1430 0.4684 0.0711
C255 C 0.0074(7) 0.5209(4) 0.1110(2)
H306 H 0.0509 0.5171 0.1389
Cd11 Cd 0.75190(8) 0.27534(2) 0.49761(3)
Cd13 Cd 0.74810(8) 0.77534(2) 0.50239(3)
Cd15 Cd 0.25190(8) 0.77534(2) 0.49761(3)
Cd18 Cd 0.5000 0.75270(2) 0.5000
O58 O 0.9400(4) 0.21915(18) 0.5434(2)
O59 O 0.9574(7) 0.2959(3) 0.5429(3)
O64 O 0.8534(6) 0.2603(3) 0.4439(3)
Co3 Co 0.60224(10) 0.69814(4) 0.77751(5)
Co4 Co 0.33024(10) 0.44819(5) 0.72924(6)
Cd1_2 Cd 0.5000 0.54700(2) 1.0000
Cd3_2 Cd 0.5000 0.45968(3) 1.0000
N5 N 0.5065(6) 0.7115(2) 0.7272(3)
N6 N 0.4935(4) 0.68452(16) 0.8016(2)
N7 N 0.2788(5) 0.4672(3) 0.7731(2)
N8 N 0.2059(6) 0.4290(3) 0.7038(2)
O13 O 0.8020(5) 0.7569(2) 0.5778(3)
O14 O 0.6466(6) 0.7603(3) 0.5561(3)
O15 O 0.6999(6) 0.7099(2) 0.7533(2)
O16 O 0.6858(4) 0.68516(17) 0.8270(2)
O17 O 0.5559(5) 0.5807(2) 0.9557(4)
O18 O 0.7222(5) 0.5791(2) 0.9789(3)
O19 O 0.5422(4) 0.50275(18) 0.95934(18)
O20 O 0.6772(4) 0.5063(2) 0.9384(3)
O21 O 0.4479(5) 0.45789(17) 0.75601(16)
O22 O 0.3843(7) 0.4344(3) 0.6788(3)
O26 O 0.8930(4) 0.53095(19) 0.98358(17)
C61 C 0.7200(5) 0.7551(2) 0.58316(19)
C62 C 0.7095(3) 0.74415(12) 0.62823(11)
C63 C 0.7947(3) 0.73879(17) 0.65918(14)
H69 H 0.8533 0.7427 0.6516
C64 C 0.7922(4) 0.7276(2) 0.70141(14)
C65 C 0.7045(5) 0.7217(2) 0.71269(14)
C66 C 0.6194(4) 0.7271(2) 0.68174(17)
C67 C 0.6218(3) 0.73831(17) 0.63951(15)
H70 H 0.5649 0.7419 0.6188
C68 C 0.8879(4) 0.72483(16) 0.7350(2)
C69 C 0.9771(6) 0.7378(3) 0.7198(4)
H71 H 0.9794 0.7282 0.6916
H73 H 0.9735 0.7615 0.7170
C70 C 0.9021(10) 0.68697(19) 0.7420(5)
H74 H 0.9001 0.6764 0.7140
H75 H 0.8518 0.6782 0.7548
H76 H 0.9631 0.6828 0.7615
C71 C 0.2357(5) 0.7062(3) 0.7086(2)
H77 H 0.1851 0.7205 0.6926
H78 H 0.2269 0.6841 0.6962
C72 C 0.8940(11) 0.7421(3) 0.7807(3)
H79 H 0.8402 0.7354 0.7927
H80 H 0.8929 0.7657 0.7769
H81 H 0.9525 0.7357 0.8008
C73 C 0.5274(8) 0.7230(3) 0.6911(4)
H82 H 0.4756 0.7292 0.6687
C74 C 0.4076(6) 0.7033(3) 0.73166(17)
H83 H 0.3977 0.6804 0.7212
C75 C 0.3351(6) 0.7199(4) 0.7073(6)
H84 H 0.3421 0.7199 0.6768
H85 H 0.3387 0.7427 0.7173
C76 C 0.2372(11) 0.7059(5) 0.7573(3)
H86 H 0.1779 0.6959 0.7613
H87 H 0.2375 0.7287 0.7673
C77 C 0.3205(7) 0.6879(3) 0.7872(3)
H88 H 0.3172 0.6906 0.8180
H89 H 0.3176 0.6644 0.7803
C78 C 0.4059(5) 0.7015(3) 0.77993(19)
H90 H 0.4101 0.7242 0.7913
C79 C 0.4952(6) 0.66543(19) 0.8327(2)
H91 H 0.4371 0.6596 0.8395
C80 C 0.5875(3) 0.65065(11) 0.86082(14)
C81 C 0.6775(3) 0.66419(14) 0.86187(17)
C82 C 0.7558(3) 0.65467(19) 0.8947(2)
C83 C 0.7441(4) 0.6316(2) 0.9265(2)
H92 H 0.7965 0.6253 0.9485
C84 C 0.6541(5) 0.61809(19) 0.9254(2)
C85 C 0.5757(4) 0.62760(14) 0.89261(18)
H93 H 0.5155 0.6185 0.8919
C86 C 0.8562(4) 0.67098(16) 0.89913(17)
C87 C 0.8403(10) 0.7091(2) 0.9001(5)
H94 H 0.9009 0.7203 0.9034
H95 H 0.8120 0.7147 0.9247
H96 H 0.7982 0.7160 0.8730
C88 C 0.9023(6) 0.6613(3) 0.8610(2)
H97 H 0.9638 0.6719 0.8647
H98 H 0.8618 0.6682 0.8335
H99 H 0.9105 0.6377 0.8608
C89 C 0.9263(8) 0.6616(3) 0.9420(3)
H100 H 0.9861 0.6729 0.9435
H101 H 0.9368 0.6381 0.9426
H102 H 0.9000 0.6679 0.9668
C90 C 0.5925(4) 0.5041(2) 0.93142(18)
C91 C 0.6440(4) 0.59168(19) 0.9596(3)
C92 C 0.5530(3) 0.49237(13) 0.88252(11)
C93 C 0.4549(3) 0.48734(18) 0.86744(14)
H103 H 0.4132 0.4914 0.8861
C94 C 0.4192(4) 0.4762(2) 0.82447(16)
C95 C 0.4815(5) 0.4701(2) 0.79658(14)
C96 C 0.5796(4) 0.4751(2) 0.81166(14)
C97 C 0.6153(3) 0.48627(18) 0.85463(14)
H104 H 0.6809 0.4896 0.8647
C98 C 0.7590(5) 0.4764(3) 0.8052(3)
H105 H 0.8002 0.4702 0.7858
H106 H 0.7790 0.4652 0.8330
H107 H 0.7625 0.4999 0.8100
C99 C 0.6543(4) 0.46654(17) 0.7838(2)
C100 C 0.6506(7) 0.42897(17) 0.7746(3)
H108 H 0.5861 0.4227 0.7607
H109 H 0.6705 0.4172 0.8020
H110 H 0.6928 0.4237 0.7553
C101 C 0.6349(9) 0.4854(3) 0.7398(3)
H111 H 0.5709 0.4808 0.7236
H112 H 0.6801 0.4785 0.7227
H113 H 0.6417 0.5088 0.7455
C102 C 0.3151(5) 0.4721(3) 0.8115(3)
H114 H 0.2776 0.4732 0.8325
C103 C 0.1151(5) 0.4746(3) 0.7966(3)
H115 H 0.1265 0.4589 0.8208
H116 H 0.1324 0.4967 0.8082
C105 C 0.0222(7) 0.4340(4) 0.7058(3)
H119 H 0.0075 0.4500 0.6819
H120 H 0.0036 0.4120 0.6942
C106 C 0.1753(6) 0.4145(3) 0.6693(2)
H121 H 0.1098 0.4105 0.6598
C107 C 0.1730(5) 0.4649(4) 0.7601(4)
H122 H 0.1571 0.4832 0.7390
C108 C 0.0095(6) 0.4735(2) 0.7705(4)
C109 C 0.1385(6) 0.4353(3) 0.7316(3)
H125 H 0.1468 0.4166 0.7523
C110 C 0.2466(3) 0.40237(11) 0.64097(12)
C111 C 0.3382(3) 0.41538(13) 0.64471(16)
C112 C 0.3932(3) 0.40607(18) 0.6148(2)
C113 C 0.3566(5) 0.3837(2) 0.5811(2)
H126 H 0.3935 0.3775 0.5611
C114 C 0.2650(5) 0.37073(17) 0.57736(18)
C115 C 0.2100(3) 0.38004(13) 0.60729(15)
H127 H 0.1487 0.3713 0.6048
C116 C 0.5645(8) 0.4165(4) 0.6524(3)
H128 H 0.6261 0.4236 0.6481
H129 H 0.5664 0.3932 0.6587
H130 H 0.5491 0.4285 0.6767
C117 C 0.4876(5) 0.42343(18) 0.6101(2)
C118 C 0.5163(8) 0.4185(4) 0.5652(3)
H131 H 0.5760 0.4296 0.5657
H132 H 0.4673 0.4276 0.5419
H133 H 0.5233 0.3953 0.5600
C119 C 0.4813(9) 0.46136(19) 0.6146(4)
H134 H 0.5414 0.4712 0.6125
H135 H 0.4675 0.4667 0.6428
H136 H 0.4311 0.4698 0.5914
C120 C 0.2265(5) 0.3425(3) 0.5488(3)
H137 H 0.3548 0.4054 0.9943
N10 N 0.9502(4) 0.50686(17) 0.92576(18)
C124 C 0.9400(6) 0.5358(2) 0.9552(2)
H144 H 0.9678 0.5562 0.9521
C125 C 0.9111(6) 0.4781(2) 0.9489(3)
H145 H 0.8915 0.4862 0.9747
H146 H 0.9603 0.4617 0.9574
H147 H 0.8570 0.4684 0.9289
C126 C 0.9926(7) 0.5209(4) 0.8890(2)
H149 H 0.9491 0.5171 0.8611
Co5 Co 0.39944(15) 0.60493(5) 0.72266(6)
Co6 Co 0.17144(13) 0.35353(4) 0.77245(5)
Cd7 Cd 0.24711(3) 0.525493(16) 0.993412(16)
N12 N 0.5014(5) 0.6207(2) 0.7039(2)
N13 N 0.4857(4) 0.5882(2) 0.7698(2)
N14 N 0.2923(4) 0.36517(18) 0.7972(2)
N15 N 0.2284(5) 0.3401(2) 0.7278(2)
O28 O 0.2825(4) 0.72272(16) 0.51977(19)
O29 O 0.4400(4) 0.71915(18) 0.5434(2)
O30 O 0.3063(5) 0.61872(19) 0.6723(2)
O31 O 0.2939(4) 0.59286(17) 0.74704(18)
O32 O 0.3589(4) 0.54382(18) 0.9475(2)
O33 O 0.2038(4) 0.5433(2) 0.9265(2)
O34 O 0.3492(6) 0.4705(3) 0.9564(3)
O35 O 0.1856(6) 0.4750(2) 0.9646(3)
O36 O 0.1196(4) 0.36715(16) 0.81793(18)
O37 O 0.0419(5) 0.34092(19) 0.74106(17)
O52 O 0.5475(4) 0.4187(2) 0.9572(3)
C130 C 0.3584(4) 0.71137(17) 0.5455(2)
C131 C 0.3468(3) 0.68073(11) 0.57432(14)
C132 C 0.2566(3) 0.66789(15) 0.57458(19)
H158 H 0.2032 0.6751 0.5538
C133 C 0.2462(5) 0.64427(18) 0.6059(2)
C134 C 0.3260(6) 0.63351(17) 0.6370(2)
C135 C 0.4163(5) 0.64635(17) 0.63672(19)
C136 C 0.4267(3) 0.66996(14) 0.60539(17)
H159 H 0.4871 0.6786 0.6052
C137 C 0.1581(13) 0.58746(15) 0.5982(6)
H160 H 0.1907 0.5809 0.5756
H161 H 0.0950 0.5778 0.5923
H162 H 0.1937 0.5799 0.6265
C138 C 0.1497(5) 0.62572(14) 0.5988(2)
C139 C 0.1016(6) 0.6342(4) 0.6376(3)
H163 H 0.0960 0.6578 0.6399
H164 H 0.1400 0.6257 0.6648
H165 H 0.0388 0.6244 0.6324
C140 C 0.0739(8) 0.6355(4) 0.5570(3)
H166 H 0.0679 0.6592 0.5555
H167 H 0.0131 0.6258 0.5583
H168 H 0.0937 0.6275 0.5311
C141 C 0.4935(7) 0.6368(2) 0.6696(3)
H169 H 0.5521 0.6441 0.6647
C142 C 0.5926(4) 0.6123(3) 0.7326(3)
H170 H 0.5956 0.6292 0.7556
C143 C 0.6863(5) 0.6192(3) 0.7189(3)
H171 H 0.6883 0.6421 0.7097
H172 H 0.6919 0.6051 0.6942
C144 C 0.7718(8) 0.6121(2) 0.7597(3)
H173 H 0.8323 0.6124 0.7502
H174 H 0.7740 0.6291 0.7820
C145 C 0.7568(5) 0.5788(2) 0.7786(3)
H175 H 0.8139 0.5727 0.8005
H176 H 0.7475 0.5624 0.7551
C146 C 0.6697(5) 0.5784(3) 0.8003(3)
H177 H 0.6716 0.5969 0.8206
H178 H 0.6660 0.5578 0.8160
C147 C 0.5834(5) 0.5819(3) 0.7588(3)
H179 H 0.5801 0.5623 0.7400
C148 C 0.4729(7) 0.5765(3) 0.8073(2)
H180 H 0.5260 0.5693 0.8283
C149 C 0.3783(3) 0.57445(12) 0.81751(13)
C150 C 0.2939(3) 0.58132(18) 0.78676(14)
C151 C 0.2058(3) 0.5778(2) 0.79845(19)
C152 C 0.2020(3) 0.5674(2) 0.8409(2)
H181 H 0.1430 0.5650 0.8487
C153 C 0.2865(4) 0.5605(2) 0.87163(18)
C154 C 0.3746(3) 0.56405(19) 0.85995(14)
H182 H 0.4311 0.5595 0.8805
C155 C 0.1108(4) 0.58437(16) 0.76396(19)
C156 C 0.1052(9) 0.5654(3) 0.7202(3)
H183 H 0.0449 0.5700 0.7003
H184 H 0.1103 0.5420 0.7262
H185 H 0.1568 0.5723 0.7069
C157 C 0.0249(5) 0.5761(3) 0.7848(3)
H187 H 0.0254 0.5905 0.8095
H188 H 0.0296 0.5535 0.7947
C158 C 0.0979(8) 0.62118(19) 0.7501(4)
H189 H 0.0394 0.6238 0.7281
H190 H 0.1512 0.6282 0.7380
H191 H 0.0951 0.6345 0.7755
C159 C 0.2813(5) 0.5506(3) 0.9170(4)
C160 C 0.2653(12) 0.4574(3) 0.9541(4)
C161 C 0.2260(4) 0.43121(13) 0.91759(17)
C162 C 0.2836(4) 0.41974(17) 0.8899(2)
H192 H 0.3460 0.4276 0.8931
C163 C 0.2479(6) 0.3965(2) 0.8573(2)
C164 C 0.1546(7) 0.3847(2) 0.8524(3)
C165 C 0.0971(5) 0.3962(2) 0.8801(3)
C166 C 0.1328(4) 0.41943(17) 0.9127(2)
H193 H 0.0942 0.4271 0.9313
C167 C 0.0073(4) 0.37674(15) 0.8851(2)
C169 C 0.0208(11) 0.3389(2) 0.8891(5)
H197 H 0.0480 0.3310 0.8652
H199 H 0.0630 0.3337 0.9169
H201 H 0.0082 0.3819 0.9512
C171 C 0.3127(6) 0.3862(3) 0.8326(3)
H203 H 0.3752 0.3941 0.8409
C172 C 0.3702(6) 0.3512(3) 0.7777(3)
H204 H 0.3753 0.3283 0.7881
C173 C 0.4627(5) 0.3620(2) 0.7874(3)
H205 H 0.4880 0.3597 0.8190
H206 H 0.4636 0.3854 0.7801
C174 C 0.5290(5) 0.3434(2) 0.7628(2)
H207 H 0.5327 0.3202 0.7713
H208 H 0.5932 0.3527 0.7706
C175 C 0.4894(5) 0.3464(4) 0.7125(3)
H209 H 0.4931 0.3692 0.7029
H210 H 0.5253 0.3324 0.6964
C176 C 0.3853(5) 0.3351(3) 0.7050(4)
H211 H 0.3555 0.3391 0.6741
H212 H 0.3855 0.3113 0.7095
C177 C 0.3316(9) 0.3478(4) 0.7283(4)
H213 H 0.3279 0.3710 0.7185
C178 C 0.1746(8) 0.3268(3) 0.6873(4)
H214 H 0.2102 0.3196 0.6673
C179 C 0.0761(3) 0.32328(12) 0.67399(12)
C180 C 0.0135(3) 0.32897(16) 0.70186(13)
C184 C 0.0408(3) 0.31261(17) 0.63077(13)
H216 H 0.0827 0.3088 0.6121
N20 N 0.6883(4) 0.39165(17) 0.9497(2)
C250 C 0.6265(4) 0.4058(2) 0.9749(2)
C251 C 0.6894(9) 0.4051(3) 0.9078(2)
H295 H 0.6513 0.4249 0.9033
H296 H 0.6634 0.3893 0.8851
H297 H 0.7543 0.4103 0.9063
C252 C 0.7476(6) 0.36424(18) 0.9664(3)
H298 H 0.7843 0.3578 0.9452
H299 H 0.7082 0.3460 0.9716
H300 H 0.7904 0.3704 0.9937
C104 C 0.9737(6) 0.4430(2) 0.7438(2)
H117 H 0.9056 0.4458 0.7314
H118 H 0.9806 0.4242 0.7639
H123 H 0.9690 0.4768 0.7916
H124 H 0.9993 0.4922 0.7505
O38 O 0.8127(6) 0.2865(2) 0.5608(2)
H186 H 0.9662 0.5791 0.7631
C168 C 0.9332(7) 0.3890(3) 0.8442(3)
H194 H 0.9546 0.3834 0.8178
H195 H 0.9265 0.4126 0.8459
H196 H 0.8723 0.3787 0.8435
H198 H 0.9596 0.3285 0.8876
C170 C 0.9638(6) 0.3869(3) 0.9239(2)
H200 H 0.9506 0.4102 0.9223
H202 H 0.9051 0.3749 0.9226
C181 C 0.9155(3) 0.3240(2) 0.68652(18)
C182 C 0.8801(3) 0.3133(2) 0.6433(2)
H215 H 0.8145 0.3100 0.6330
C183 C 0.9427(4) 0.3076(2) 0.61543(16)
C185 C 0.8467(4) 0.32824(16) 0.7189(2)
C186 C 0.8387(11) 0.3639(2) 0.7353(5)
H217 H 0.7940 0.3645 0.7544
H218 H 0.8167 0.3782 0.7103
H219 H 0.9006 0.3712 0.7513
C187 C 0.8844(9) 0.3117(3) 0.7648(3)
H220 H 0.8393 0.3154 0.7832
H221 H 0.9452 0.3213 0.7786
H222 H 0.8921 0.2884 0.7609
C188 C 0.7483(7) 0.3120(4) 0.6993(6)
H223 H 0.7059 0.3155 0.7191
H224 H 0.7568 0.2887 0.6956
H225 H 0.7210 0.3219 0.6711
C189 C 0.9076(8) 0.2994(3) 0.5726(4)
N22 N 0.5435(4) 0.26956(13) 0.57915(15)
O54 O 0.6142(5) 0.2705(2) 0.5178(2)
C256 C 0.5832(5) 0.28599(18) 0.54739(19)
H308 H 0.5869 0.3090 0.5481
C257 C 0.5326(10) 0.23471(14) 0.5751(4)
H309 H 0.5573 0.2272 0.5503
H310 H 0.4657 0.2291 0.5705
H311 H 0.5673 0.2243 0.6017
C258 C 0.5120(7) 0.2894(2) 0.6118(2)
H312 H 0.5242 0.3123 0.6070
H313 H 0.5464 0.2830 0.6408
H314 H 0.4444 0.2861 0.6094
O56 O 0.7825(4) 0.22272(16) 0.51977(19)
O61 O 0.6980(5) 0.2569(2) 0.4222(3)
Co1_2 Co 0.10056(15) 0.10493(5) 0.27734(6)
Cd1_3 Cd 0.0000 0.04700(2) 0.0000
Cd2_2 Cd 0.25289(3) 0.025493(16) 0.006588(16)
N2_2 N 0.0143(4) 0.0882(2) 0.2302(2)
O3_2 O 0.1937(5) 0.11872(19) 0.3277(2)
O4_2 O 0.2061(4) 0.09286(17) 0.25296(18)
O5_2 O 0.1411(4) 0.04382(18) 0.0525(2)
O6_2 O 0.2962(4) 0.0433(2) 0.0735(2)
C1_2 C 0.1416(4) 0.21137(17) 0.4545(2)
C2_2 C 0.1532(3) 0.18073(11) 0.42568(14)
C3_2 C 0.2434(3) 0.16789(15) 0.42542(19)
H1_2 H 0.2968 0.1751 0.4462
C4_2 C 0.2538(5) 0.14427(18) 0.3941(2)
C5_2 C 0.1740(6) 0.13351(17) 0.3630(2)
C6_2 C 0.0837(5) 0.14635(17) 0.36328(19)
C7_2 C 0.0733(3) 0.16996(14) 0.39461(17)
H2_2 H 0.0129 0.1786 0.3948
C8_2 C 0.3419(13) 0.08746(15) 0.4018(6)
H3_2 H 0.3093 0.0809 0.4244
H4_2 H 0.4050 0.0778 0.4077
H5_2 H 0.3063 0.0799 0.3735
C9_2 C 0.3503(5) 0.12572(14) 0.4012(2)
C10_2 C 0.3984(6) 0.1342(4) 0.3624(3)
H6_2 H 0.4040 0.1578 0.3601
H7_2 H 0.3600 0.1257 0.3352
H8_2 H 0.4612 0.1244 0.3676
C11_2 C 0.4261(8) 0.1355(4) 0.4430(3)
H9_2 H 0.4321 0.1592 0.4445
H10_2 H 0.4869 0.1258 0.4417
H11_2 H 0.4063 0.1275 0.4689
C12_2 C 0.0065(7) 0.1368(2) 0.3304(3)
C19_2 C 0.0271(7) 0.0765(3) 0.1927(2)
C20_2 C 0.1217(3) 0.07445(12) 0.18249(13)
C21_2 C 0.2061(3) 0.08132(18) 0.21324(14)
C22_2 C 0.2942(3) 0.0778(2) 0.20155(19)
C23_2 C 0.2980(3) 0.0674(2) 0.1591(2)
H24_2 H 0.3570 0.0650 0.1513
C24_2 C 0.2135(4) 0.0605(2) 0.12837(18)
C25_2 C 0.1254(3) 0.06405(19) 0.14005(14)
H25_2 H 0.0689 0.0595 0.1195
C26_2 C 0.3892(4) 0.08437(16) 0.23604(19)
C27_2 C 0.3948(9) 0.0654(3) 0.2798(3)
H26_2 H 0.4551 0.0700 0.2997
H27_2 H 0.3897 0.0420 0.2738
H28_2 H 0.3432 0.0723 0.2931
C28_2 C 0.4751(5) 0.0761(3) 0.2152(3)
H29_2 H 0.5338 0.0791 0.2369
H30_2 H 0.4746 0.0905 0.1905
H31_2 H 0.4704 0.0535 0.2053
C29_2 C 0.4021(8) 0.12118(19) 0.2499(4)
H32_2 H 0.4606 0.1238 0.2719
H33_2 H 0.3488 0.1282 0.2620
H34_2 H 0.4049 0.1345 0.2245
C30_2 C 0.2187(5) 0.0506(3) 0.0830(4)
N17_2 N 0.0065(4) 0.18452(16) 0.1984(2)
C200_2 C 0.2643(5) 0.2062(3) 0.2914(2)
H234_2 H 0.3149 0.2205 0.3074
H235_2 H 0.2731 0.1841 0.3038
H239_2 H 0.0244 0.2292 0.3313
C203_2 C 0.0924(6) 0.2033(3) 0.26834(17)
H240_2 H 0.1023 0.1804 0.2788
C204_2 C 0.1649(6) 0.2199(4) 0.2927(6)
H241_2 H 0.1579 0.2199 0.3232
H242_2 H 0.1613 0.2427 0.2827
C205_2 C 0.2628(11) 0.2059(5) 0.2427(3)
H243_2 H 0.3221 0.1959 0.2387
H244_2 H 0.2625 0.2287 0.2327
C206_2 C 0.1795(7) 0.1879(3) 0.2128(3)
H245_2 H 0.1828 0.1906 0.1820
H246_2 H 0.1824 0.1644 0.2197
C207_2 C 0.0941(5) 0.2015(3) 0.22007(19)
H247_2 H 0.0899 0.2242 0.2087
C208_2 C 0.0048(6) 0.16543(19) 0.1673(2)
H248_2 H 0.0629 0.1596 0.1605
Co3_2 Co 0.10224(10) 0.19814(4) 0.77751(5)
Cd1_4 Cd 0.0000 0.04700(2) 1.0000
N5_2 N 0.0065(6) 0.2115(2) 0.7272(3)
O15_2 O 0.1999(6) 0.2099(2) 0.7533(2)
O16_2 O 0.1858(4) 0.18516(17) 0.8270(2)
O17_2 O 0.0559(5) 0.0807(2) 0.9557(4)
O18_2 O 0.2222(5) 0.0791(2) 0.9789(3)
O19_2 O 0.0422(4) 0.00275(18) 0.95934(18)
O20_2 O 0.1772(4) 0.0063(2) 0.9384(3)
O26_2 O 0.3930(4) 0.03095(19) 0.98358(17)
C61_2 C 0.2200(5) 0.2551(2) 0.58316(19)
C62_2 C 0.2095(3) 0.24415(12) 0.62823(11)
C63_2 C 0.2947(3) 0.23879(17) 0.65918(14)
H69_2 H 0.3533 0.2427 0.6516
C64_2 C 0.2922(4) 0.2276(2) 0.70141(14)
C65_2 C 0.2045(5) 0.2217(2) 0.71269(14)
C66_2 C 0.1194(4) 0.2271(2) 0.68174(17)
C67_2 C 0.1218(3) 0.23831(17) 0.63951(15)
H70_2 H 0.0649 0.2419 0.6188
C68_2 C 0.3879(4) 0.22483(16) 0.7350(2)
C69_2 C 0.4771(6) 0.2378(3) 0.7198(4)
H71_2 H 0.4794 0.2282 0.6916
H72 H 0.5340 0.2318 0.7412
H73_2 H 0.4735 0.2615 0.7170
C70_2 C 0.4021(10) 0.18697(19) 0.7420(5)
H74_2 H 0.4001 0.1764 0.7140
H75_2 H 0.3518 0.1782 0.7548
H76_2 H 0.4631 0.1828 0.7615
C72_2 C 0.3940(11) 0.2421(3) 0.7807(3)
H79_2 H 0.3402 0.2354 0.7927
H80_2 H 0.3929 0.2657 0.7769
H81_2 H 0.4525 0.2357 0.8008
C73_2 C 0.0274(8) 0.2230(3) 0.6911(4)
C80_2 C 0.0875(3) 0.15065(11) 0.86082(14)
C81_2 C 0.1775(3) 0.16419(14) 0.86187(17)
C82_2 C 0.2558(3) 0.15467(19) 0.8947(2)
C83_2 C 0.2441(4) 0.1316(2) 0.9265(2)
H92_2 H 0.2965 0.1253 0.9485
C84_2 C 0.1541(5) 0.11809(19) 0.9254(2)
C85_2 C 0.0757(4) 0.12760(14) 0.89261(18)
H93_2 H 0.0155 0.1185 0.8919
C86_2 C 0.3562(4) 0.17098(16) 0.89913(17)
C87_2 C 0.3403(10) 0.2091(2) 0.9001(5)
H94_2 H 0.4009 0.2203 0.9034
H95_2 H 0.3120 0.2147 0.9247
H96_2 H 0.2982 0.2160 0.8730
C88_2 C 0.4023(6) 0.1613(3) 0.8610(2)
H97_2 H 0.4638 0.1719 0.8647
H98_2 H 0.3618 0.1682 0.8335
H99_2 H 0.4105 0.1377 0.8608
C89_2 C 0.4263(8) 0.1616(3) 0.9420(3)
H100_2 H 0.4861 0.1729 0.9435
H101_2 H 0.4368 0.1381 0.9426
H102_2 H 0.4000 0.1679 0.9668
C90_2 C 0.0925(4) 0.0041(2) 0.93142(18)
C91_2 C 0.1440(4) 0.09168(19) 0.9596(3)
H113_2 H 0.1417 0.0088 0.7455
N10_2 N 0.4502(4) 0.00686(17) 0.92576(18)
C124_2 C 0.4400(6) 0.0358(2) 0.9552(2)
H144_2 H 0.4678 0.0562 0.9521
C126_2 C 0.4926(7) 0.0209(4) 0.8890(2)
H148 H 0.5029 0.0442 0.8935
H149_2 H 0.4491 0.0171 0.8611
H150 H 0.5527 0.0101 0.8891
N12_2 N 0.0014(5) 0.1207(2) 0.7039(2)
H169_2 H 0.0521 0.1441 0.6647
C142_2 C 0.0926(4) 0.1123(3) 0.7326(3)
H170_2 H 0.0956 0.1292 0.7556
C143_2 C 0.1863(5) 0.1192(3) 0.7189(3)
H171_2 H 0.1883 0.1421 0.7097
H172_2 H 0.1919 0.1051 0.6942
C144_2 C 0.2718(8) 0.1121(2) 0.7597(3)
H173_2 H 0.3323 0.1124 0.7502
H174_2 H 0.2740 0.1291 0.7820
C145_2 C 0.2568(5) 0.0788(2) 0.7786(3)
H175_2 H 0.3139 0.0727 0.8005
H176_2 H 0.2475 0.0624 0.7551
C146_2 C 0.1697(5) 0.0784(3) 0.8003(3)
H177_2 H 0.1716 0.0969 0.8206
H178_2 H 0.1660 0.0578 0.8160
C147_2 C 0.0834(5) 0.0819(3) 0.7588(3)
H179_2 H 0.0801 0.0623 0.7400
H180_2 H 0.0260 0.0693 0.8283
Co2_2 Co 0.32856(13) 0.85353(4) 0.22755(5)
Cd3_3 Cd 0.0000 0.95968(3) 0.0000
Cd4_3 Cd 0.5000 0.83960(3) 0.5000
N3_2 N 0.2077(4) 0.86517(18) 0.2028(2)
N4_2 N 0.2716(5) 0.8401(2) 0.2722(2)
O7_2 O 0.1508(6) 0.9705(3) 0.0436(3)
O8_2 O 0.3144(6) 0.9750(2) 0.0354(3)
O9_2 O 0.3804(4) 0.86715(16) 0.18207(18)
O10_2 O 0.4581(5) 0.84092(19) 0.25894(17)
O11_2 O 0.6873(6) 0.7865(2) 0.4392(2)
O12_2 O 0.5426(7) 0.7959(3) 0.4571(3)
C31_2 C 0.2347(12) 0.9574(3) 0.0459(4)
C32_2 C 0.2740(4) 0.93121(13) 0.08241(17)
C33_2 C 0.2164(4) 0.91974(17) 0.1101(2)
H35_2 H 0.1540 0.9276 0.1069
C34_2 C 0.2521(6) 0.8965(2) 0.1427(2)
C35_2 C 0.3454(7) 0.8847(2) 0.1476(3)
C36_2 C 0.4029(5) 0.8962(2) 0.1199(3)
C37_2 C 0.3672(4) 0.91943(17) 0.0873(2)
H36_2 H 0.4058 0.9271 0.0687
C38_2 C 0.4927(4) 0.87674(15) 0.1149(2)
C39_2 C 0.5668(7) 0.8890(3) 0.1558(3)
H37_2 H 0.5454 0.8834 0.1822
H38_2 H 0.5735 0.9126 0.1541
H39_2 H 0.6277 0.8787 0.1565
C40_2 C 0.4792(11) 0.8389(2) 0.1109(5)
H40_2 H 0.4520 0.8310 0.1348
H41_2 H 0.5404 0.8285 0.1124
H42_2 H 0.4370 0.8337 0.0831
C41_2 C 0.5362(6) 0.8869(3) 0.0761(2)
H43_2 H 0.5494 0.9102 0.0777
H44_2 H 0.4918 0.8819 0.0488
H45_2 H 0.5949 0.8749 0.0774
C42_2 C 0.1873(6) 0.8862(3) 0.1674(3)
H46_2 H 0.1248 0.8941 0.1591
C43_2 C 0.1298(6) 0.8512(3) 0.2223(3)
H47_2 H 0.1247 0.8283 0.2119
C44_2 C 0.0373(5) 0.8620(2) 0.2126(3)
H48_2 H 0.0120 0.8597 0.1810
H49_2 H 0.0364 0.8854 0.2199
C46_2 C 0.0106(5) 0.8464(4) 0.2875(3)
H52_2 H 0.0069 0.8692 0.2971
C47_2 C 0.1147(5) 0.8351(3) 0.2950(4)
H54_2 H 0.1445 0.8391 0.3259
H55_2 H 0.1145 0.8113 0.2905
C48_2 C 0.1684(9) 0.8478(4) 0.2717(4)
H56_2 H 0.1721 0.8710 0.2815
C49_2 C 0.3254(8) 0.8268(3) 0.3127(4)
H57_2 H 0.2898 0.8196 0.3327
C50_2 C 0.4239(3) 0.82328(12) 0.32601(12)
C51_2 C 0.4865(3) 0.82897(16) 0.29814(13)
C52_2 C 0.5845(3) 0.8240(2) 0.31348(18)
C53_2 C 0.6199(3) 0.8133(2) 0.3567(2)
H58_2 H 0.6855 0.8100 0.3670
C54_2 C 0.5573(4) 0.8076(2) 0.38457(16)
C55_2 C 0.4592(3) 0.81261(17) 0.36923(13)
H59_2 H 0.4173 0.8088 0.3879
C56_2 C 0.6533(4) 0.82824(16) 0.2811(2)
C57_2 C 0.6613(11) 0.8639(2) 0.2647(5)
H60_2 H 0.7060 0.8645 0.2456
H61_2 H 0.6833 0.8782 0.2897
H62_2 H 0.5994 0.8712 0.2487
C58_2 C 0.6156(9) 0.8117(3) 0.2352(3)
H63_2 H 0.6607 0.8154 0.2168
H64_2 H 0.5548 0.8213 0.2214
H65_2 H 0.6079 0.7884 0.2391
C59_2 C 0.7517(7) 0.8120(4) 0.3007(6)
H66_2 H 0.7941 0.8155 0.2809
H67_2 H 0.7432 0.7887 0.3044
H68_2 H 0.7790 0.8219 0.3289
C60_2 C 0.5924(8) 0.7994(3) 0.4274(4)
N11_2 N 0.9565(4) 0.76956(13) 0.42085(15)
O27_2 O 0.8858(5) 0.7705(2) 0.4822(2)
C127_2 C 0.9168(5) 0.78599(18) 0.45261(19)
H151_2 H 0.9131 0.8090 0.4519
C128_2 C 0.9674(10) 0.73471(14) 0.4249(4)
H152_2 H 0.9427 0.7272 0.4497
H154_2 H 0.9327 0.7243 0.3983
C129_2 C 0.9880(7) 0.7894(2) 0.3882(2)
H155_2 H 0.9758 0.8123 0.3930
H156_2 H 0.9536 0.7830 0.3592
Co8_2 Co 0.16976(10) 0.94819(5) 0.27076(6)
N18_2 N 0.2212(5) 0.9672(3) 0.2269(2)
N19_2 N 0.2941(6) 0.9290(3) 0.2962(2)
O48_2 O 0.0521(5) 0.95789(17) 0.24399(16)
O49_2 O 0.1157(7) 0.9344(3) 0.3212(3)
O50_2 O 0.2166(4) 0.83090(19) 0.4713(2)
O51_2 O 0.3634(5) 0.8393(3) 0.4615(4)
C222_2 C 0.0451(3) 0.98734(18) 0.13256(14)
H260_2 H 0.0868 0.9914 0.1139
C223_2 C 0.0808(4) 0.9762(2) 0.17553(16)
C224_2 C 0.0185(5) 0.9701(2) 0.20342(14)
C231_2 C 0.1849(5) 0.9721(3) 0.1885(3)
H271_2 H 0.2224 0.9732 0.1675
C232_2 C 0.3849(5) 0.9746(3) 0.2034(3)
H272_2 H 0.3735 0.9589 0.1792
H273_2 H 0.3676 0.9967 0.1918
C233_2 C 0.5263(6) 0.9430(2) 0.2562(2)
H274_2 H 0.5944 0.9458 0.2686
H275_2 H 0.5194 0.9242 0.2361
C234_2 C 0.4778(7) 0.9340(4) 0.2942(3)
H276_2 H 0.4925 0.9500 0.3181
H277_2 H 0.4964 0.9120 0.3058
C235_2 C 0.3247(6) 0.9145(3) 0.3307(2)
H278_2 H 0.3902 0.9105 0.3402
C236_2 C 0.3270(5) 0.9649(4) 0.2399(4)
H279_2 H 0.3429 0.9832 0.2610
C237_2 C 0.4905(6) 0.9735(2) 0.2295(4)
H280_2 H 0.5310 0.9768 0.2084
H281_2 H 0.5007 0.9922 0.2495
C238_2 C 0.3615(6) 0.9353(3) 0.2684(3)
H282_2 H 0.3532 0.9166 0.2477
C239_2 C 0.2534(3) 0.90237(11) 0.35903(12)
C240_2 C 0.1618(3) 0.91538(13) 0.35529(16)
C241_2 C 0.1068(3) 0.90607(18) 0.3852(2)
C242_2 C 0.1434(5) 0.8837(2) 0.4189(2)
H283_2 H 0.1065 0.8775 0.4389
C243_2 C 0.2350(5) 0.87073(17) 0.42264(18)
C244_2 C 0.2900(3) 0.88004(13) 0.39271(15)
H284_2 H 0.3513 0.8713 0.3952
C246_2 C 0.0124(5) 0.92343(18) 0.3899(2)
H289_2 H 0.0327 0.9276 0.4581
C248_2 C 0.0187(9) 0.96136(19) 0.3854(4)
H292_2 H 0.0325 0.9667 0.3572
H293_2 H 0.0689 0.9698 0.4086
C249_2 C 0.2735(5) 0.8425(3) 0.4512(3)
H294_2 H 0.1452 0.9054 0.0057
O59_2 O 0.4574(7) 0.7959(3) 0.5429(3)
O65_2 O 0.7834(4) 0.83090(19) 0.5287(2)
O67_2 O 0.6366(5) 0.8393(3) 0.5385(4)
Cd1_5 Cd 1.0000 0.04700(2) 0.0000
N1_2 N 0.9986(5) 0.1207(2) 0.2961(2)
H12_2 H 0.9479 0.1441 0.3353
C13_2 C 0.9074(4) 0.1123(3) 0.2674(3)
H13_2 H 0.9044 0.1292 0.2444
C14_2 C 0.8137(5) 0.1192(3) 0.2811(3)
H14_2 H 0.8117 0.1421 0.2903
H15_2 H 0.8081 0.1051 0.3058
C15_2 C 0.7282(8) 0.1121(2) 0.2403(3)
H16_2 H 0.6677 0.1124 0.2498
H17_2 H 0.7260 0.1291 0.2180
C16_2 C 0.7432(5) 0.0788(2) 0.2214(3)
H18_2 H 0.6861 0.0727 0.1995
H19_2 H 0.7525 0.0624 0.2449
C17_2 C 0.8303(5) 0.0784(3) 0.1997(3)
H20_2 H 0.8284 0.0969 0.1794
H21_2 H 0.8340 0.0578 0.1840
C18_2 C 0.9166(5) 0.0819(3) 0.2412(3)
H22_2 H 0.9199 0.0623 0.2600
H23_2 H 0.9740 0.0693 0.1717
Co7_2 Co 0.89776(10) 0.19814(4) 0.22249(5)
N16_2 N 0.9935(6) 0.2115(2) 0.2728(3)
O42_2 O 0.8001(6) 0.2099(2) 0.2467(2)
O43_2 O 0.8142(4) 0.18516(17) 0.1730(2)
O44_2 O 0.9441(5) 0.0807(2) 0.0443(4)
O45_2 O 0.7778(5) 0.0791(2) 0.0211(3)
O46_2 O 0.9578(4) 0.00275(18) 0.04066(18)
O47_2 O 0.8228(4) 0.0063(2) 0.0616(3)
O53_2 O 0.6070(4) 0.03095(19) 0.01642(17)
C190_2 C 0.7800(5) 0.2551(2) 0.41684(19)
C191_2 C 0.7905(3) 0.24415(12) 0.37177(11)
C192_2 C 0.7053(3) 0.23879(17) 0.34082(14)
H226_2 H 0.6467 0.2427 0.3484
C193_2 C 0.7078(4) 0.2276(2) 0.29859(14)
C194_2 C 0.7955(5) 0.2217(2) 0.28731(14)
C195_2 C 0.8806(4) 0.2271(2) 0.31826(17)
C196_2 C 0.8782(3) 0.23831(17) 0.36049(15)
H227_2 H 0.9351 0.2419 0.3812
C197_2 C 0.6121(4) 0.22483(16) 0.2650(2)
C198_2 C 0.5229(6) 0.2378(3) 0.2802(4)
H228_2 H 0.5206 0.2282 0.3084
H229 H 0.4660 0.2318 0.2588
H230_2 H 0.5265 0.2615 0.2830
C199_2 C 0.5979(10) 0.18697(19) 0.2580(5)
H231_2 H 0.5999 0.1764 0.2860
H232_2 H 0.6482 0.1782 0.2452
H233_2 H 0.5369 0.1828 0.2385
C201_2 C 0.6060(11) 0.2421(3) 0.2193(3)
H236_2 H 0.6598 0.2354 0.2073
H237_2 H 0.6071 0.2657 0.2231
H238_2 H 0.5475 0.2357 0.1992
C202_2 C 0.9726(8) 0.2230(3) 0.3089(4)
C209_2 C 0.9125(3) 0.15065(11) 0.13918(14)
C210_2 C 0.8225(3) 0.16419(14) 0.13813(17)
C211_2 C 0.7442(3) 0.15467(19) 0.1053(2)
C212_2 C 0.7559(4) 0.1316(2) 0.0735(2)
H249_2 H 0.7035 0.1253 0.0515
C213_2 C 0.8459(5) 0.11809(19) 0.0746(2)
C214_2 C 0.9243(4) 0.12760(14) 0.10739(18)
H250_2 H 0.9845 0.1185 0.1081
C215_2 C 0.6438(4) 0.17098(16) 0.10087(17)
C216_2 C 0.6597(10) 0.2091(2) 0.0999(5)
H251_2 H 0.5991 0.2203 0.0966
H252_2 H 0.6880 0.2147 0.0753
H253_2 H 0.7018 0.2160 0.1270
C217_2 C 0.5977(6) 0.1613(3) 0.1390(2)
H254_2 H 0.5362 0.1719 0.1353
H255_2 H 0.6382 0.1682 0.1665
H256_2 H 0.5895 0.1377 0.1392
C218_2 C 0.5737(8) 0.1616(3) 0.0580(3)
H257_2 H 0.5139 0.1729 0.0565
H258_2 H 0.5632 0.1381 0.0574
H259_2 H 0.6000 0.1679 0.0332
C219_2 C 0.9075(4) 0.0041(2) 0.06858(18)
C220_2 C 0.8560(4) 0.09168(19) 0.0404(3)
H270_2 H 0.8583 0.0088 0.2545
N21_2 N 0.5498(4) 0.00686(17) 0.07424(18)
C253_2 C 0.5600(6) 0.0358(2) 0.0448(2)
H301_2 H 0.5322 0.0562 0.0479
C255_2 C 0.5074(7) 0.0209(4) 0.1110(2)
H305 H 0.4971 0.0442 0.1065
H306_2 H 0.5509 0.0171 0.1389
H307 H 0.4473 0.0101 0.1109
Cd1_6 Cd 1.0000 0.04700(2) 1.0000
N6_2 N 0.9935(4) 0.18452(16) 0.8016(2)
C71_2 C 0.7357(5) 0.2062(3) 0.7086(2)
H77_2 H 0.6851 0.2205 0.6926
H78_2 H 0.7269 0.1841 0.6962
H82_2 H 0.9756 0.2292 0.6687
C74_2 C 0.9076(6) 0.2033(3) 0.73166(17)
H83_2 H 0.8977 0.1804 0.7212
C75_2 C 0.8351(6) 0.2199(4) 0.7073(6)
H84_2 H 0.8421 0.2199 0.6768
H85_2 H 0.8387 0.2427 0.7173
C76_2 C 0.7372(11) 0.2059(5) 0.7573(3)
H86_2 H 0.6779 0.1959 0.7613
H87_2 H 0.7375 0.2287 0.7673
C77_2 C 0.8205(7) 0.1879(3) 0.7872(3)
H88_2 H 0.8172 0.1906 0.8180
H89_2 H 0.8176 0.1644 0.7803
C78_2 C 0.9059(5) 0.2015(3) 0.77993(19)
H90_2 H 0.9101 0.2242 0.7913
C79_2 C 0.9952(6) 0.16543(19) 0.8327(2)
H91_2 H 0.9371 0.1596 0.8395
Co5_2 Co 0.89944(15) 0.10493(5) 0.72266(6)
Cd7_2 Cd 0.74711(3) 0.025493(16) 0.993412(16)
N13_2 N 0.9857(4) 0.0882(2) 0.7698(2)
O30_2 O 0.8063(5) 0.11872(19) 0.6723(2)
O31_2 O 0.7939(4) 0.09286(17) 0.74704(18)
O32_2 O 0.8589(4) 0.04382(18) 0.9475(2)
O33_2 O 0.7038(4) 0.0433(2) 0.9265(2)
C130_2 C 0.8584(4) 0.21137(17) 0.5455(2)
C131_2 C 0.8468(3) 0.18073(11) 0.57432(14)
C132_2 C 0.7566(3) 0.16789(15) 0.57458(19)
H158_2 H 0.7032 0.1751 0.5538
C133_2 C 0.7462(5) 0.14427(18) 0.6059(2)
C134_2 C 0.8260(6) 0.13351(17) 0.6370(2)
C135_2 C 0.9163(5) 0.14635(17) 0.63672(19)
C136_2 C 0.9267(3) 0.16996(14) 0.60539(17)
H159_2 H 0.9871 0.1786 0.6052
C137_2 C 0.6581(13) 0.08746(15) 0.5982(6)
H160_2 H 0.6907 0.0809 0.5756
H161_2 H 0.5950 0.0778 0.5923
H162_2 H 0.6937 0.0799 0.6265
C138_2 C 0.6497(5) 0.12572(14) 0.5988(2)
C139_2 C 0.6016(6) 0.1342(4) 0.6376(3)
H163_2 H 0.5960 0.1578 0.6399
H164_2 H 0.6400 0.1257 0.6648
H165_2 H 0.5388 0.1244 0.6324
C140_2 C 0.5739(8) 0.1355(4) 0.5570(3)
H166_2 H 0.5679 0.1592 0.5555
H167_2 H 0.5131 0.1258 0.5583
H168_2 H 0.5937 0.1275 0.5311
C141_2 C 0.9935(7) 0.1368(2) 0.6696(3)
C148_2 C 0.9729(7) 0.0765(3) 0.8073(2)
C149_2 C 0.8783(3) 0.07445(12) 0.81751(13)
C150_2 C 0.7939(3) 0.08132(18) 0.78676(14)
C151_2 C 0.7058(3) 0.0778(2) 0.79845(19)
C152_2 C 0.7020(3) 0.0674(2) 0.8409(2)
H181_2 H 0.6430 0.0650 0.8487
C153_2 C 0.7865(4) 0.0605(2) 0.87163(18)
C154_2 C 0.8746(3) 0.06405(19) 0.85995(14)
H182_2 H 0.9311 0.0595 0.8805
C155_2 C 0.6108(4) 0.08437(16) 0.76396(19)
C156_2 C 0.6052(9) 0.0654(3) 0.7202(3)
H183_2 H 0.5449 0.0700 0.7003
H184_2 H 0.6103 0.0420 0.7262
H185_2 H 0.6568 0.0723 0.7069
C157_2 C 0.5249(5) 0.0761(3) 0.7848(3)
H186_2 H 0.4662 0.0791 0.7631
H187_2 H 0.5254 0.0905 0.8095
H188_2 H 0.5296 0.0535 0.7947
C158_2 C 0.5979(8) 0.12118(19) 0.7501(4)
H189_2 H 0.5394 0.1238 0.7281
H190_2 H 0.6512 0.1282 0.7380
H191_2 H 0.5951 0.1345 0.7755
C159_2 C 0.7813(5) 0.0506(3) 0.9170(4)
Co4_2 Co 0.83024(10) 0.94819(5) 0.72924(6)
Cd3_4 Cd 1.0000 0.95968(3) 1.0000
N7_2 N 0.7788(5) 0.9672(3) 0.7731(2)
N8_2 N 0.7059(6) 0.9290(3) 0.7038(2)
O21_2 O 0.9479(5) 0.95789(17) 0.75601(16)
O22_2 O 0.8843(7) 0.9344(3) 0.6788(3)
C93_2 C 0.9549(3) 0.98734(18) 0.86744(14)
H103_2 H 0.9132 0.9914 0.8861
C94_2 C 0.9192(4) 0.9762(2) 0.82447(16)
C95_2 C 0.9815(5) 0.9701(2) 0.79658(14)
C102_2 C 0.8151(5) 0.9721(3) 0.8115(3)
H114_2 H 0.7776 0.9732 0.8325
C103_2 C 0.6151(5) 0.9746(3) 0.7966(3)
H115_2 H 0.6265 0.9589 0.8208
H116_2 H 0.6324 0.9967 0.8082
C104_2 C 0.4737(6) 0.9430(2) 0.7438(2)
H117_2 H 0.4056 0.9458 0.7314
H118_2 H 0.4806 0.9242 0.7639
C105_2 C 0.5222(7) 0.9340(4) 0.7058(3)
H119_2 H 0.5075 0.9500 0.6819
H120_2 H 0.5036 0.9120 0.6942
C106_2 C 0.6753(6) 0.9145(3) 0.6693(2)
H121_2 H 0.6098 0.9105 0.6598
C107_2 C 0.6730(5) 0.9649(4) 0.7601(4)
H122_2 H 0.6571 0.9832 0.7390
C108_2 C 0.5095(6) 0.9735(2) 0.7705(4)
H123_2 H 0.4690 0.9768 0.7916
H124_2 H 0.4993 0.9922 0.7505
C109_2 C 0.6385(6) 0.9353(3) 0.7316(3)
H125_2 H 0.6468 0.9166 0.7523
C110_2 C 0.7466(3) 0.90237(11) 0.64097(12)
C111_2 C 0.8382(3) 0.91538(13) 0.64471(16)
C112_2 C 0.8932(3) 0.90607(18) 0.6148(2)
C113_2 C 0.8566(5) 0.8837(2) 0.5811(2)
H126_2 H 0.8935 0.8775 0.5611
C114_2 C 0.7650(5) 0.87073(17) 0.57736(18)
C115_2 C 0.7100(3) 0.88004(13) 0.60729(15)
H127_2 H 0.6487 0.8713 0.6048
C117_2 C 0.9876(5) 0.92343(18) 0.6101(2)
H132_2 H 0.9673 0.9276 0.5419
C119_2 C 0.9813(9) 0.96136(19) 0.6146(4)
H135_2 H 0.9675 0.9667 0.6428
H136_2 H 0.9311 0.9698 0.5914
C120_2 C 0.7265(5) 0.8425(3) 0.5488(3)
H137_2 H 0.8548 0.9054 0.9943
Co6_2 Co 0.67144(13) 0.85353(4) 0.77245(5)
N14_2 N 0.7923(4) 0.86517(18) 0.7972(2)
N15_2 N 0.7284(5) 0.8401(2) 0.7278(2)
O34_2 O 0.8492(6) 0.9705(3) 0.9564(3)
O35_2 O 0.6856(6) 0.9750(2) 0.9646(3)
O36_2 O 0.6196(4) 0.86715(16) 0.81793(18)
O37_2 O 0.5419(5) 0.84092(19) 0.74106(17)
O38_2 O 0.3127(6) 0.7865(2) 0.5608(2)
C160_2 C 0.7653(12) 0.9574(3) 0.9541(4)
C161_2 C 0.7260(4) 0.93121(13) 0.91759(17)
C162_2 C 0.7836(4) 0.91974(17) 0.8899(2)
H192_2 H 0.8460 0.9276 0.8931
C163_2 C 0.7479(6) 0.8965(2) 0.8573(2)
C164_2 C 0.6546(7) 0.8847(2) 0.8524(3)
C165_2 C 0.5971(5) 0.8962(2) 0.8801(3)
C166_2 C 0.6328(4) 0.91943(17) 0.9127(2)
H193_2 H 0.5942 0.9271 0.9313
C167_2 C 0.5073(4) 0.87674(15) 0.8851(2)
C168_2 C 0.4332(7) 0.8890(3) 0.8442(3)
H194_2 H 0.4546 0.8834 0.8178
H195_2 H 0.4265 0.9126 0.8459
H196_2 H 0.3723 0.8787 0.8435
C169_2 C 0.5208(11) 0.8389(2) 0.8891(5)
H197_2 H 0.5480 0.8310 0.8652
H198_2 H 0.4596 0.8285 0.8876
H199_2 H 0.5630 0.8337 0.9169
C170_2 C 0.4638(6) 0.8869(3) 0.9239(2)
H200_2 H 0.4506 0.9102 0.9223
H201_2 H 0.5082 0.8819 0.9512
H202_2 H 0.4051 0.8749 0.9226
C171_2 C 0.8127(6) 0.8862(3) 0.8326(3)
H203_2 H 0.8752 0.8941 0.8409
C172_2 C 0.8702(6) 0.8512(3) 0.7777(3)
H204_2 H 0.8753 0.8283 0.7881
C173_2 C 0.9627(5) 0.8620(2) 0.7874(3)
H205_2 H 0.9880 0.8597 0.8190
H206_2 H 0.9636 0.8854 0.7801
C175_2 C 0.9894(5) 0.8464(4) 0.7125(3)
H209_2 H 0.9931 0.8692 0.7029
C176_2 C 0.8853(5) 0.8351(3) 0.7050(4)
H211_2 H 0.8555 0.8391 0.6741
H212_2 H 0.8855 0.8113 0.7095
C177_2 C 0.8316(9) 0.8478(4) 0.7283(4)
H213_2 H 0.8279 0.8710 0.7185
C178_2 C 0.6746(8) 0.8268(3) 0.6873(4)
H214_2 H 0.7102 0.8196 0.6673
C179_2 C 0.5761(3) 0.82328(12) 0.67399(12)
C180_2 C 0.5135(3) 0.82897(16) 0.70186(13)
C181_2 C 0.4155(3) 0.8240(2) 0.68652(18)
C182_2 C 0.3801(3) 0.8133(2) 0.6433(2)
H215_2 H 0.3145 0.8100 0.6330
C183_2 C 0.4427(4) 0.8076(2) 0.61543(16)
C184_2 C 0.5408(3) 0.81261(17) 0.63077(13)
H216_2 H 0.5827 0.8088 0.6121
C185_2 C 0.3467(4) 0.82824(16) 0.7189(2)
C186_2 C 0.3387(11) 0.8639(2) 0.7353(5)
H217_2 H 0.2940 0.8645 0.7544
H218_2 H 0.3167 0.8782 0.7103
H219_2 H 0.4006 0.8712 0.7513
C187_2 C 0.3844(9) 0.8117(3) 0.7648(3)
H220_2 H 0.3393 0.8154 0.7832
H221_2 H 0.4452 0.8213 0.7786
H222_2 H 0.3921 0.7884 0.7609
C188_2 C 0.2483(7) 0.8120(4) 0.6993(6)
H223_2 H 0.2059 0.8155 0.7191
H224_2 H 0.2568 0.7887 0.6956
H225_2 H 0.2210 0.8219 0.6711
C189_2 C 0.4076(8) 0.7994(3) 0.5726(4)
N22_2 N 0.0435(4) 0.76956(13) 0.57915(15)
O54_2 O 0.1142(5) 0.7705(2) 0.5178(2)
C256_2 C 0.0832(5) 0.78599(18) 0.54739(19)
H308_2 H 0.0869 0.8090 0.5481
C257_2 C 0.0326(10) 0.73471(14) 0.5751(4)
H309_2 H 0.0573 0.7272 0.5503
H311_2 H 0.0673 0.7243 0.6017
C258_2 C 0.0120(7) 0.7894(2) 0.6118(2)
H312_2 H 0.0242 0.8123 0.6070
H313_2 H 0.0464 0.7830 0.6408
H72_2 H 0.0340 0.7318 0.7412
H148_2 H 0.0029 0.5442 0.8935
H150_2 H 0.0527 0.5101 0.8891
H229_2 H 0.9660 0.7318 0.2588
H305_2 H 0.9971 0.5442 0.1065
H307_2 H 0.9473 0.5101 0.1109
H153_2 H 0.0343 0.7291 0.4295
H157_2 H 0.0556 0.7861 0.3906
Cd3_5 Cd 0.0000 0.95968(3) 1.0000
C92_2 C 0.0530(3) 0.99237(13) 0.88252(11)
C96_2 C 0.0796(4) 0.9751(2) 0.81166(14)
C97_2 C 0.1153(3) 0.98627(18) 0.85463(14)
H104_2 H 0.1809 0.9896 0.8647
C98_2 C 0.2590(5) 0.9764(3) 0.8052(3)
H105_2 H 0.3002 0.9702 0.7858
H106_2 H 0.2790 0.9652 0.8330
H107_2 H 0.2625 0.9999 0.8100
C99_2 C 0.1543(4) 0.96654(17) 0.7838(2)
C100_2 C 0.1506(7) 0.92897(17) 0.7746(3)
H108_2 H 0.0861 0.9227 0.7607
H109_2 H 0.1705 0.9172 0.8020
H110_2 H 0.1928 0.9237 0.7553
C101_2 C 0.1349(9) 0.9854(3) 0.7398(3)
H111_2 H 0.0709 0.9808 0.7236
H112_2 H 0.1801 0.9785 0.7227
C116_2 C 0.0645(8) 0.9165(4) 0.6524(3)
H128_2 H 0.1261 0.9236 0.6481
H129_2 H 0.0664 0.8932 0.6587
H130_2 H 0.0491 0.9285 0.6767
C118_2 C 0.0163(8) 0.9185(4) 0.5652(3)
H131_2 H 0.0760 0.9296 0.5657
H133_2 H 0.0233 0.8953 0.5600
H134_2 H 0.0414 0.9712 0.6125
C125_2 C 0.4111(6) 0.9781(2) 0.9489(3)
H145_2 H 0.3915 0.9862 0.9747
H146_2 H 0.4603 0.9617 0.9574
H147_2 H 0.3570 0.9684 0.9289
O52_2 O 0.0475(4) 0.9187(2) 0.9572(3)
C174_2 C 0.0290(5) 0.8434(2) 0.7628(2)
H207_2 H 0.0327 0.8202 0.7713
H208_2 H 0.0932 0.8527 0.7706
H210_2 H 0.0253 0.8324 0.6964
N20_2 N 0.1883(4) 0.89165(17) 0.9497(2)
C250_2 C 0.1265(4) 0.9058(2) 0.9749(2)
C251_2 C 0.1894(9) 0.9051(3) 0.9078(2)
H295_2 H 0.1513 0.9249 0.9033
H296_2 H 0.1634 0.8893 0.8851
H297_2 H 0.2543 0.9103 0.9063
C252_2 C 0.2476(6) 0.86424(18) 0.9664(3)
H298_2 H 0.2843 0.8578 0.9452
H299_2 H 0.2082 0.8460 0.9716
H300_2 H 0.2904 0.8704 0.9937
Cd3_6 Cd 1.0000 0.95968(3) 0.0000
O25_2 O 0.9525(4) 0.9187(2) 0.0428(3)
C45_2 C 0.9710(5) 0.8434(2) 0.2372(2)
H50_2 H 0.9673 0.8202 0.2287
H51_2 H 0.9068 0.8527 0.2294
H53_2 H 0.9747 0.8324 0.3036
N9_2 N 0.8117(4) 0.89165(17) 0.0503(2)
C121_2 C 0.8735(4) 0.9058(2) 0.0251(2)
C122_2 C 0.8106(9) 0.9051(3) 0.0922(2)
H138_2 H 0.8487 0.9249 0.0967
H139_2 H 0.8366 0.8893 0.1149
H140_2 H 0.7457 0.9103 0.0937
C123_2 C 0.7524(6) 0.86424(18) 0.0336(3)
H141_2 H 0.7157 0.8578 0.0548
H142_2 H 0.7918 0.8460 0.0284
H143_2 H 0.7096 0.8704 0.0063
C221_2 C 0.9470(3) 0.99237(13) 0.11748(11)
C225_2 C 0.9204(4) 0.9751(2) 0.18834(14)
C226_2 C 0.8847(3) 0.98627(18) 0.14537(14)
H261_2 H 0.8191 0.9896 0.1353
C227_2 C 0.7410(5) 0.9764(3) 0.1948(3)
H262_2 H 0.6998 0.9702 0.2142
H263_2 H 0.7210 0.9652 0.1670
H264_2 H 0.7375 0.9999 0.1900
C228_2 C 0.8457(4) 0.96654(17) 0.2162(2)
C229_2 C 0.8494(7) 0.92897(17) 0.2254(3)
H265_2 H 0.9139 0.9227 0.2393
H266_2 H 0.8295 0.9172 0.1980
H267_2 H 0.8072 0.9237 0.2447
C230_2 C 0.8651(9) 0.9854(3) 0.2602(3)
H268_2 H 0.9291 0.9808 0.2764
H269_2 H 0.8199 0.9785 0.2773
C245_2 C 0.9355(8) 0.9165(4) 0.3476(3)
H285_2 H 0.8739 0.9236 0.3519
H286_2 H 0.9336 0.8932 0.3413
H287_2 H 0.9509 0.9285 0.3233
C247_2 C 0.9837(8) 0.9185(4) 0.4348(3)
H288_2 H 0.9240 0.9296 0.4343
H290_2 H 0.9767 0.8953 0.4400
H291_2 H 0.9586 0.9712 0.3875
C254_2 C 0.5889(6) 0.9781(2) 0.0511(3)
H302_2 H 0.6085 0.9862 0.0253
H303_2 H 0.5397 0.9617 0.0426
H304_2 H 0.6430 0.9684 0.0711
H310_2 H 0.9657 0.7291 0.5705
H314_2 H 0.9444 0.7861 0.6094
C259 C 0.3399(5) 0.5298(2) 0.6357(2)
C260 C 0.4196(7) 0.5465(4) 0.6182(3)
O68 O 0.3411(7) 0.5266(4) 0.67528(18)
O69 O 0.2663(5) 0.5184(3) 0.6134(3)
H324 H 0.486748 0.533238 0.630093
H325 H 0.40165 0.546205 0.582125
H326 H 0.42751 0.572023 0.629842
C259_2 C 0.6601(5) 0.5298(2) 0.3643(2)
C260_2 C 0.5804(7) 0.5465(4) 0.3818(3)
O68_2 O 0.6589(7) 0.5266(4) 0.32472(18)
O69_2 O 0.7337(5) 0.5184(3) 0.3866(3)
H324_2 H 0.513252 0.533238 0.369907
H325_2 H 0.59835 0.546205 0.417875
H326_2 H 0.57249 0.572023 0.370158
C259_3 C 0.8399(5) 0.0298(2) 0.6357(2)
C260_3 C 0.9196(7) 0.0465(4) 0.6182(3)
O68_3 O 0.8411(7) 0.0266(4) 0.67528(18)
O69_3 O 0.7663(5) 0.0184(3) 0.6134(3)
H324_3 H 0.986748 0.033238 0.630093
H325_3 H 0.90165 0.0462052 0.582125
H326_3 H 0.92751 0.0720229 0.629842
C259_4 C 0.1601(5) 0.0298(2) 0.3643(2)
C260_4 C 0.0804(7) 0.0465(4) 0.3818(3)
O68_4 O 0.1589(7) 0.0266(4) 0.32472(18)
O69_4 O 0.2337(5) 0.0184(3) 0.3866(3)
H324_4 H 0.0132521 0.033238 0.369907
H325_4 H 0.09835 0.0462052 0.417875
H326_4 H 0.0724904 0.0720229 0.370158
C261 C 0.8726(5) 0.4169(2) 0.5165(2)
C262 C 0.9163(8) 0.3994(3) 0.5583(2)
O70 O 0.7957 0.4303 0.5158
O71 O 0.8941 0.4211 0.4807
H318 H 0.867848 0.380002 0.564506
H319 H 0.984311 0.3884 0.555356
H320 H 0.928775 0.41697 0.585679
C261_2 C 0.1274(5) 0.4169(2) 0.4835(2)
C262_2 C 0.0837(8) 0.3994(3) 0.4417(2)
O70_2 O 0.2043 0.4303 0.4842
O71_2 O 0.1059 0.4211 0.5193
H318_2 H 0.132152 0.380002 0.435494
H319_2 H 0.0156891 0.3884 0.444644
H320_2 H 0.0712252 0.41697 0.414321
C261_3 C 0.3726(5) 0.9169(2) 0.5165(2)
C262_3 C 0.4163(8) 0.8994(3) 0.5583(2)
O70_3 O 0.2957 0.9303 0.5158
O71_3 O 0.3941 0.9211 0.4807
H318_3 H 0.367848 0.880002 0.564506
H319_3 H 0.484311 0.8884 0.555356
H320_3 H 0.428775 0.91697 0.585679
C261_4 C 0.6274(5) 0.9169(2) 0.4835(2)
C262_4 C 0.5837(8) 0.8994(3) 0.4417(2)
O70_4 O 0.7043 0.9303 0.4842
O71_4 O 0.6059 0.9211 0.5193
H318_4 H 0.632152 0.880002 0.435494
H319_4 H 0.515689 0.8884 0.444644
H320_4 H 0.571225 0.91697 0.414321
C263 C 0.6057(7) 0.6782(4) 0.0193(4)
C264 C 0.6724(5) 0.6667(2) 0.0625(2)
O72 O 0.6570(7) 0.6739(4) 0.0993(3)
O73 O 0.7399(5) 0.6502(3) 0.0551(3)
H315 H 0.603256 0.705163 0.0184862
H317 H 0.533761 0.668493 0.0175474
H316 H 0.63271 0.669111 0.991184
H316_2 H 0.36729 0.669111 0.00881587
C263_2 C 0.3943(7) 0.6782(4) 0.9807(4)
C264_2 C 0.3276(5) 0.6667(2) 0.9375(2)
O72_2 O 0.3430(7) 0.6739(4) 0.9007(3)
O73_2 O 0.2601(5) 0.6502(3) 0.9449(3)
H315_2 H 0.396744 0.705163 0.981514
H317_2 H 0.466239 0.668493 0.982453
C263_3 C 0.1057(7) 0.1782(4) 0.0193(4)
C264_3 C 0.1724(5) 0.1667(2) 0.0625(2)
O72_3 O 0.1570(7) 0.1739(4) 0.0993(3)
O73_3 O 0.2399(5) 0.1502(3) 0.0551(3)
H315_3 H 0.103256 0.205163 0.0184862
H317_3 H 0.0337614 0.168493 0.0175474
H316_3 H 0.13271 0.169111 0.991184
H316_4 H 0.86729 0.169111 0.00881587
C263_4 C 0.8943(7) 0.1782(4) 0.9807(4)
C264_4 C 0.8276(5) 0.1667(2) 0.9375(2)
O72_4 O 0.8430(7) 0.1739(4) 0.9007(3)
O73_4 O 0.7601(5) 0.1502(3) 0.9449(3)
H315_4 H 0.896744 0.205163 0.981514
H317_4 H 0.966239 0.168493 0.982453
C265 C 0.7805(5) 0.2836(2) 0.0905(2)
C266 C 0.6993(4) 0.3016(3) 0.1058(3)
O74 O 0.7730(8) 0.2805(4) 0.0513(2)
O75 O 0.8446(6) 0.2738(3) 0.1195(4)
H321 H 0.632158 0.288311 0.0940085
H322 H 0.715198 0.302654 0.141848
H323 H 0.692663 0.326665 0.0924498
C265_2 C 0.2195(5) 0.2836(2) 0.9095(2)
C266_2 C 0.3007(4) 0.3016(3) 0.8942(3)
O74_2 O 0.2270(8) 0.2805(4) 0.9487(2)
O75_2 O 0.1554(6) 0.2738(3) 0.8805(4)
H321_2 H 0.367842 0.288311 0.905991
H322_2 H 0.284802 0.302654 0.858152
H323_2 H 0.307337 0.326665 0.90755
C265_3 C 0.2805(5) 0.7836(2) 0.0905(2)
C266_3 C 0.1993(4) 0.8016(3) 0.1058(3)
O74_3 O 0.2730(8) 0.7805(4) 0.0513(2)
O75_3 O 0.3446(6) 0.7738(3) 0.1195(4)
H321_3 H 0.132158 0.788311 0.0940085
H322_3 H 0.215198 0.802654 0.141848
H323_3 H 0.192663 0.826665 0.0924498
C265_4 C 0.7195(5) 0.7836(2) 0.9095(2)
C266_4 C 0.8007(4) 0.8016(3) 0.8942(3)
O74_4 O 0.7270(8) 0.7805(4) 0.9487(2)
O75_4 O 0.6554(6) 0.7738(3) 0.8805(4)
H321_4 H 0.867842 0.788311 0.905991
H322_4 H 0.784802 0.802654 0.858152
H323_4 H 0.807337 0.826665 0.90755
loop_
_geom_bond_atom_site_label_1
_geom_bond_atom_site_label_2
_geom_bond_site_symmetry_1
_geom_bond_site_symmetry_2
Cd4 O12 1_555 1_555
Cd5 O11 1_555 1_555
Cd6 O12 1_555 1_555
O11 C60 1_555 1_555
O12 C60 1_555 1_555
H37 C39 1_555 1_555
H38 C39 1_555 1_555
H39 C39 1_555 1_555
H43 C41 1_555 1_555
H45 C41 1_555 1_555
C53 C52 1_555 1_555
H58 C53 1_555 1_555
C54 C53 1_555 1_555
C56 C52 1_555 1_555
C57 C56 1_555 1_555
H60 C57 1_555 1_555
H61 C57 1_555 1_555
H62 C57 1_555 1_555
C58 C56 1_555 1_555
H63 C58 1_555 1_555
H64 C58 1_555 1_555
H65 C58 1_555 1_555
C59 C56 1_555 1_555
H66 C59 1_555 1_555
H67 C59 1_555 1_555
H68 C59 1_555 1_555
C60 C54 1_555 1_555
N11 C127 1_555 1_555
O27 Cd5 1_555 1_555
C127 O27 1_555 1_555
H151 C127 1_555 1_555
C128 N11 1_555 1_555
H152 C128 1_555 1_555
H153 C128 1_555 1_555
H154 C128 1_555 1_555
C129 N11 1_555 1_555
H155 C129 1_555 1_555
H156 C129 1_555 1_555
H157 C129 1_555 1_555
C233 H274 1_555 1_555
H275 C233 1_555 1_555
O55 Cd5 1_555 1_555
O57 Cd6 1_555 1_555
O60 Cd5 1_555 1_555
O62 Cd5 1_555 1_555
O65 Cd5 1_555 1_555
O67 Cd4 1_555 1_555
Cd6 O62 1_555 1_555
Co1 N1 1_555 1_555
Co2 N3 1_555 1_555
Cd1 O5 1_555 1_555
Cd2 O5 1_555 1_555
Cd3 O7 1_555 1_555
N1 C12 1_555 1_555
N2 Co1 1_555 1_555
N3 C42 1_555 1_555
N4 Co2 1_555 1_555
O1 C1 1_555 1_555
O2 C1 1_555 1_555
O3 Co1 1_555 1_555
O4 Co1 1_555 1_555
O5 C30 1_555 1_555
O6 Cd2 1_555 1_555
O7 C31 1_555 1_555
O8 Cd2 1_555 1_555
O9 Co2 1_555 1_555
O10 Co2 1_555 1_555
O25 Cd3 1_555 1_555
C1 C2 1_555 1_555
C2 C3 1_555 1_555
C3 H1 1_555 1_555
C4 C3 1_555 1_555
C5 O3 1_555 1_555
C6 C5 1_555 1_555
C7 C2 1_555 1_555
H2 C7 1_555 1_555
C8 H3 1_555 1_555
H4 C8 1_555 1_555
H5 C8 1_555 1_555
C9 C4 1_555 1_555
C10 C9 1_555 1_555
H6 C10 1_555 1_555
H7 C10 1_555 1_555
H8 C10 1_555 1_555
C11 C9 1_555 1_555
H9 C11 1_555 1_555
H10 C11 1_555 1_555
H11 C11 1_555 1_555
C12 C6 1_555 1_555
H12 C12 1_555 1_555
C13 N1 1_555 1_555
H13 C13 1_555 1_555
C14 C13 1_555 1_555
H14 C14 1_555 1_555
H15 C14 1_555 1_555
C15 C14 1_555 1_555
H16 C15 1_555 1_555
H17 C15 1_555 1_555
C16 C15 1_555 1_555
H18 C16 1_555 1_555
H19 C16 1_555 1_555
C17 C16 1_555 1_555
H20 C17 1_555 1_555
H21 C17 1_555 1_555
C18 N2 1_555 1_555
H22 C18 1_555 1_555
C19 N2 1_555 1_555
H23 C19 1_555 1_555
C20 C19 1_555 1_555
C21 O4 1_555 1_555
C22 C21 1_555 1_555
C23 C22 1_555 1_555
H24 C23 1_555 1_555
C24 C23 1_555 1_555
C25 C20 1_555 1_555
H25 C25 1_555 1_555
C26 C22 1_555 1_555
C27 C26 1_555 1_555
H26 C27 1_555 1_555
H27 C27 1_555 1_555
H28 C27 1_555 1_555
C28 C26 1_555 1_555
H30 C28 1_555 1_555
H31 C28 1_555 1_555
C29 C26 1_555 1_555
H32 C29 1_555 1_555
H33 C29 1_555 1_555
H34 C29 1_555 1_555
C30 O6 1_555 1_555
C31 O8 1_555 1_555
C32 C31 1_555 1_555
C33 C32 1_555 1_555
H35 C33 1_555 1_555
C34 C33 1_555 1_555
C35 O9 1_555 1_555
C36 C35 1_555 1_555
C37 C32 1_555 1_555
H36 C37 1_555 1_555
C38 C36 1_555 1_555
C40 C38 1_555 1_555
H40 C40 1_555 1_555
H42 C40 1_555 1_555
C42 C34 1_555 1_555
H46 C42 1_555 1_555
C43 N3 1_555 1_555
H47 C43 1_555 1_555
C44 C43 1_555 1_555
H48 C44 1_555 1_555
H49 C44 1_555 1_555
C45 C44 1_555 1_555
H50 C45 1_555 1_555
H51 C45 1_555 1_555
C46 C45 1_555 1_555
H52 C46 1_555 1_555
H53 C46 1_555 1_555
C47 C46 1_555 1_555
H54 C47 1_555 1_555
H55 C47 1_555 1_555
C48 N4 1_555 1_555
H56 C48 1_555 1_555
C49 N4 1_555 1_555
H57 C49 1_555 1_555
C50 C49 1_555 1_555
C51 O10 1_555 1_555
C55 C50 1_555 1_555
H59 C55 1_555 1_555
N9 C121 1_555 1_555
C121 O25 1_555 1_555
C122 N9 1_555 1_555
H138 C122 1_555 1_555
H139 C122 1_555 1_555
H140 C122 1_555 1_555
C123 N9 1_555 1_555
H141 C123 1_555 1_555
H142 C123 1_555 1_555
H143 C123 1_555 1_555
Co7 N16 1_555 1_555
Co8 N18 1_555 1_555
N16 C202 1_555 1_555
N17 Co7 1_555 1_555
N18 C231 1_555 1_555
N19 Co8 1_555 1_555
O40 C190 1_555 1_555
O41 C190 1_555 1_555
O42 Co7 1_555 1_555
O43 Co7 1_555 1_555
O44 Cd1 1_555 1_555
O46 Cd1 1_555 1_555
O48 Co8 1_555 1_555
O49 Co8 1_555 1_555
O50 C249 1_555 1_555
O51 Cd4_2 1_555 1_555
C190 C191 1_555 1_555
C191 C192 1_555 1_555
C192 H226 1_555 1_555
C193 C192 1_555 1_555
C194 O42 1_555 1_555
C195 C194 1_555 1_555
C196 C191 1_555 1_555
H227 C196 1_555 1_555
C197 C193 1_555 1_555
C198 C197 1_555 1_555
H228 C198 1_555 1_555
H230 C198 1_555 1_555
C199 C197 1_555 1_555
H231 C199 1_555 1_555
H232 C199 1_555 1_555
H233 C199 1_555 1_555
C200 H234 1_555 1_555
H235 C200 1_555 1_555
C201 C197 1_555 1_555
H236 C201 1_555 1_555
H237 C201 1_555 1_555
H238 C201 1_555 1_555
C202 C195 1_555 1_555
H239 C202 1_555 1_555
C203 N16 1_555 1_555
H240 C203 1_555 1_555
C204 C200 1_555 1_555
H241 C204 1_555 1_555
H242 C204 1_555 1_555
C205 C200 1_555 1_555
H243 C205 1_555 1_555
H244 C205 1_555 1_555
C206 C205 1_555 1_555
H245 C206 1_555 1_555
H246 C206 1_555 1_555
C207 N17 1_555 1_555
H247 C207 1_555 1_555
C208 N17 1_555 1_555
H248 C208 1_555 1_555
C209 C208 1_555 1_555
C210 O43 1_555 1_555
C211 C210 1_555 1_555
C212 C211 1_555 1_555
H249 C212 1_555 1_555
C213 C212 1_555 1_555
C214 C209 1_555 1_555
H250 C214 1_555 1_555
C215 C211 1_555 1_555
C216 C215 1_555 1_555
H251 C216 1_555 1_555
H252 C216 1_555 1_555
H253 C216 1_555 1_555
C217 C215 1_555 1_555
H254 C217 1_555 1_555
H255 C217 1_555 1_555
H256 C217 1_555 1_555
C218 C215 1_555 1_555
H257 C218 1_555 1_555
H258 C218 1_555 1_555
H259 C218 1_555 1_555
C219 O46 1_555 1_555
C220 O44 1_555 1_555
C221 C219 1_555 1_555
C222 C221 1_555 1_555
H260 C222 1_555 1_555
C223 C222 1_555 1_555
C224 O48 1_555 1_555
C225 C224 1_555 1_555
C226 C221 1_555 1_555
H261 C226 1_555 1_555
C227 H262 1_555 1_555
H263 C227 1_555 1_555
H264 C227 1_555 1_555
C228 C225 1_555 1_555
C229 C228 1_555 1_555
H265 C229 1_555 1_555
H266 C229 1_555 1_555
H267 C229 1_555 1_555
C230 C228 1_555 1_555
H268 C230 1_555 1_555
H269 C230 1_555 1_555
H270 C230 1_555 1_555
C231 C223 1_555 1_555
H271 C231 1_555 1_555
C232 H272 1_555 1_555
H273 C232 1_555 1_555
H276 C234 1_555 1_555
H277 C234 1_555 1_555
C235 N19 1_555 1_555
H278 C235 1_555 1_555
C236 N18 1_555 1_555
H279 C236 1_555 1_555
C237 C232 1_555 1_555
C238 N19 1_555 1_555
H282 C238 1_555 1_555
C239 C235 1_555 1_555
C240 O49 1_555 1_555
C241 C240 1_555 1_555
C242 C241 1_555 1_555
H283 C242 1_555 1_555
C243 C242 1_555 1_555
C244 C239 1_555 1_555
H284 C244 1_555 1_555
C245 H285 1_555 1_555
H286 C245 1_555 1_555
H287 C245 1_555 1_555
C246 C241 1_555 1_555
C247 C246 1_555 1_555
H288 C247 1_555 1_555
H289 C247 1_555 1_555
H290 C247 1_555 1_555
C248 C246 1_555 1_555
H291 C248 1_555 1_555
H292 C248 1_555 1_555
H293 C248 1_555 1_555
C249 O51 1_555 1_555
N21 C253 1_555 1_555
C253 O53 1_555 1_555
H301 C253 1_555 1_555
C254 N21 1_555 1_555
H302 C254 1_555 1_555
H303 C254 1_555 1_555
H304 C254 1_555 1_555
C255 N21 1_555 1_555
H306 C255 1_555 1_555
Cd11 O50 1_555 1_555
Cd13 O1 1_555 1_555
Cd15 O40 1_555 1_555
Cd18 O2 1_555 1_555
O58 Cd6_2 1_555 1_555
O59 Cd4_2 1_555 1_555
O64 Cd6_2 1_555 1_555
Cd3 O46 1_555 1_555
Cd6_2 O59 1_555 1_555
C4 C5 1_555 1_555
C6 C7 1_555 1_555
C8 C9 1_555 1_555
C13 C18 1_555 1_555
C17 C18 1_555 1_555
C20 C21 1_555 1_555
C24 C25 1_555 1_555
C24 C30 1_555 1_555
C34 C35 1_555 1_555
C36 C37 1_555 1_555
C43 C48 1_555 1_555
C47 C48 1_555 1_555
C50 C51 1_555 1_555
O41 Cd15 1_555 1_555
O41 Cd18 1_555 1_555
O45 C220 1_555 1_555
O47 C219 1_555 1_555
C193 C194 1_555 1_555
C195 C196 1_555 1_555
C203 C204 1_555 1_555
C203 C207 1_555 1_555
C206 C207 1_555 1_555
C209 C210 1_555 1_555
C213 C214 1_555 1_555
C213 C220 1_555 1_555
C223 C224 1_555 1_555
C225 C226 1_555 1_555
C227 C228 1_555 1_555
C232 C236 1_555 1_555
C234 C238 1_555 1_555
C236 C238 1_555 1_555
C239 C240 1_555 1_555
C243 C244 1_555 1_555
C243 C249 1_555 1_555
C245 C246 1_555 1_555
Cd11 O64 1_555 1_555
Co3 N5 1_555 1_555
Co4 N7 1_555 1_555
N5 C73 1_555 1_555
N6 Co3 1_555 1_555
N7 C102 1_555 1_555
N8 Co4 1_555 1_555
O13 C61 1_555 1_555
O14 C61 1_555 1_555
O15 Co3 1_555 1_555
O16 Co3 1_555 1_555
O17 Cd1_2 1_555 1_555
O19 Cd1_2 1_555 1_555
O21 Co4 1_555 1_555
O22 Co4 1_555 1_555
O65 C120 1_555 1_555
O67 C120 1_555 1_555
C61 C62 1_555 1_555
C62 C63 1_555 1_555
C63 H69 1_555 1_555
C64 C63 1_555 1_555
C65 O15 1_555 1_555
C66 C65 1_555 1_555
C67 C62 1_555 1_555
H70 C67 1_555 1_555
C68 C64 1_555 1_555
C69 C68 1_555 1_555
H71 C69 1_555 1_555
H73 C69 1_555 1_555
C70 C68 1_555 1_555
H74 C70 1_555 1_555
H75 C70 1_555 1_555
H76 C70 1_555 1_555
C71 H77 1_555 1_555
H78 C71 1_555 1_555
C72 C68 1_555 1_555
H79 C72 1_555 1_555
H80 C72 1_555 1_555
H81 C72 1_555 1_555
C73 C66 1_555 1_555
H82 C73 1_555 1_555
C74 N5 1_555 1_555
H83 C74 1_555 1_555
C75 C71 1_555 1_555
H84 C75 1_555 1_555
H85 C75 1_555 1_555
C76 C71 1_555 1_555
H86 C76 1_555 1_555
H87 C76 1_555 1_555
C77 C76 1_555 1_555
H88 C77 1_555 1_555
H89 C77 1_555 1_555
C78 N6 1_555 1_555
H90 C78 1_555 1_555
C79 N6 1_555 1_555
H91 C79 1_555 1_555
C80 C79 1_555 1_555
C81 O16 1_555 1_555
C82 C81 1_555 1_555
C83 C82 1_555 1_555
H92 C83 1_555 1_555
C84 C83 1_555 1_555
C85 C80 1_555 1_555
H93 C85 1_555 1_555
C86 C82 1_555 1_555
C87 C86 1_555 1_555
H94 C87 1_555 1_555
H95 C87 1_555 1_555
H96 C87 1_555 1_555
C88 C86 1_555 1_555
H97 C88 1_555 1_555
H98 C88 1_555 1_555
H99 C88 1_555 1_555
C89 C86 1_555 1_555
H100 C89 1_555 1_555
H101 C89 1_555 1_555
H102 C89 1_555 1_555
C90 O19 1_555 1_555
C91 O17 1_555 1_555
C92 C90 1_555 1_555
C93 C92 1_555 1_555
H103 C93 1_555 1_555
C94 C93 1_555 1_555
C95 O21 1_555 1_555
C96 C95 1_555 1_555
C97 C92 1_555 1_555
H104 C97 1_555 1_555
C98 H105 1_555 1_555
H106 C98 1_555 1_555
H107 C98 1_555 1_555
C99 C96 1_555 1_555
C100 C99 1_555 1_555
H108 C100 1_555 1_555
H109 C100 1_555 1_555
H110 C100 1_555 1_555
C101 C99 1_555 1_555
H111 C101 1_555 1_555
H112 C101 1_555 1_555
H113 C101 1_555 1_555
C102 C94 1_555 1_555
H114 C102 1_555 1_555
C103 H115 1_555 1_555
H116 C103 1_555 1_555
H119 C105 1_555 1_555
H120 C105 1_555 1_555
C106 N8 1_555 1_555
H121 C106 1_555 1_555
C107 N7 1_555 1_555
H122 C107 1_555 1_555
C108 C103 1_555 1_555
C109 N8 1_555 1_555
H125 C109 1_555 1_555
C110 C106 1_555 1_555
C111 O22 1_555 1_555
C112 C111 1_555 1_555
C113 C112 1_555 1_555
H126 C113 1_555 1_555
C114 C113 1_555 1_555
C115 C110 1_555 1_555
H127 C115 1_555 1_555
C116 H128 1_555 1_555
H129 C116 1_555 1_555
H130 C116 1_555 1_555
C117 C112 1_555 1_555
C118 C117 1_555 1_555
H131 C118 1_555 1_555
H132 C118 1_555 1_555
H133 C118 1_555 1_555
C119 C117 1_555 1_555
H134 C119 1_555 1_555
H135 C119 1_555 1_555
H136 C119 1_555 1_555
C120 C114 1_555 1_555
N10 C124 1_555 1_555
C124 O26 1_555 1_555
H144 C124 1_555 1_555
C125 N10 1_555 1_555
H145 C125 1_555 1_555
H146 C125 1_555 1_555
H147 C125 1_555 1_555
C126 N10 1_555 1_555
H149 C126 1_555 1_555
Co5 N12 1_555 1_555
Co6 N14 1_555 1_555
Cd7 O32 1_555 1_555
N12 C141 1_555 1_555
N13 Co5 1_555 1_555
N14 C171 1_555 1_555
N15 Co6 1_555 1_555
O28 C130 1_555 1_555
O29 C130 1_555 1_555
O30 Co5 1_555 1_555
O31 Co5 1_555 1_555
O32 Cd1_2 1_555 1_555
O33 Cd7 1_555 1_555
O34 Cd3_2 1_555 1_555
O35 Cd7 1_555 1_555
O36 Co6 1_555 1_555
O37 Co6 1_555 1_555
O52 Cd3_2 1_555 1_555
C130 C131 1_555 1_555
C131 C132 1_555 1_555
C132 H158 1_555 1_555
C133 C132 1_555 1_555
C134 O30 1_555 1_555
C135 C134 1_555 1_555
C136 C131 1_555 1_555
H159 C136 1_555 1_555
C137 H160 1_555 1_555
H161 C137 1_555 1_555
H162 C137 1_555 1_555
C138 C133 1_555 1_555
C139 C138 1_555 1_555
H163 C139 1_555 1_555
H164 C139 1_555 1_555
H165 C139 1_555 1_555
C140 C138 1_555 1_555
H166 C140 1_555 1_555
H167 C140 1_555 1_555
H168 C140 1_555 1_555
C141 C135 1_555 1_555
H169 C141 1_555 1_555
C142 N12 1_555 1_555
H170 C142 1_555 1_555
C143 C142 1_555 1_555
H171 C143 1_555 1_555
H172 C143 1_555 1_555
C144 C143 1_555 1_555
H173 C144 1_555 1_555
H174 C144 1_555 1_555
C145 C144 1_555 1_555
H175 C145 1_555 1_555
H176 C145 1_555 1_555
C146 C145 1_555 1_555
H177 C146 1_555 1_555
H178 C146 1_555 1_555
C147 N13 1_555 1_555
H179 C147 1_555 1_555
C148 N13 1_555 1_555
H180 C148 1_555 1_555
C149 C148 1_555 1_555
C150 O31 1_555 1_555
C151 C150 1_555 1_555
C152 C151 1_555 1_555
H181 C152 1_555 1_555
C153 C152 1_555 1_555
C154 C149 1_555 1_555
H182 C154 1_555 1_555
C155 C151 1_555 1_555
C156 C155 1_555 1_555
H183 C156 1_555 1_555
H184 C156 1_555 1_555
H185 C156 1_555 1_555
C157 C155 1_555 1_555
H187 C157 1_555 1_555
H188 C157 1_555 1_555
C158 C155 1_555 1_555
H189 C158 1_555 1_555
H190 C158 1_555 1_555
H191 C158 1_555 1_555
C159 O32 1_555 1_555
C160 O34 1_555 1_555
C161 C160 1_555 1_555
C162 C161 1_555 1_555
H192 C162 1_555 1_555
C163 C162 1_555 1_555
C164 O36 1_555 1_555
C165 C164 1_555 1_555
C166 C161 1_555 1_555
H193 C166 1_555 1_555
C167 C165 1_555 1_555
C169 C167 1_555 1_555
H197 C169 1_555 1_555
H199 C169 1_555 1_555
C171 C163 1_555 1_555
H203 C171 1_555 1_555
C172 N14 1_555 1_555
H204 C172 1_555 1_555
C173 C172 1_555 1_555
H205 C173 1_555 1_555
H206 C173 1_555 1_555
C174 C173 1_555 1_555
H207 C174 1_555 1_555
H208 C174 1_555 1_555
C175 C174 1_555 1_555
H209 C175 1_555 1_555
H210 C175 1_555 1_555
C176 C175 1_555 1_555
H211 C176 1_555 1_555
H212 C176 1_555 1_555
C177 N15 1_555 1_555
H213 C177 1_555 1_555
C178 N15 1_555 1_555
H214 C178 1_555 1_555
C179 C178 1_555 1_555
C180 O37 1_555 1_555
C184 C179 1_555 1_555
H216 C184 1_555 1_555
N20 C250 1_555 1_555
C250 O52 1_555 1_555
C251 N20 1_555 1_555
H295 C251 1_555 1_555
H296 C251 1_555 1_555
H297 C251 1_555 1_555
C252 N20 1_555 1_555
H298 C252 1_555 1_555
H299 C252 1_555 1_555
H300 C252 1_555 1_555
Cd13 O13 1_555 1_555
Cd15 O28 1_555 1_555
Cd18 O14 1_555 1_555
Cd3_2 O19 1_555 1_555
O14 Cd13 1_555 1_555
O18 C91 1_555 1_555
O20 C90 1_555 1_555
C64 C65 1_555 1_555
C66 C67 1_555 1_555
C74 C75 1_555 1_555
C74 C78 1_555 1_555
C77 C78 1_555 1_555
C80 C81 1_555 1_555
C84 C85 1_555 1_555
C84 C91 1_555 1_555
C94 C95 1_555 1_555
C96 C97 1_555 1_555
C98 C99 1_555 1_555
C103 C107 1_555 1_555
C105 C109 1_555 1_555
C107 C109 1_555 1_555
C110 C111 1_555 1_555
C114 C115 1_555 1_555
C116 C117 1_555 1_555
O29 Cd18 1_555 1_555
O33 C159 1_555 1_555
O35 C160 1_555 1_555
C133 C134 1_555 1_555
C135 C136 1_555 1_555
C137 C138 1_555 1_555
C142 C147 1_555 1_555
C146 C147 1_555 1_555
C149 C150 1_555 1_555
C153 C154 1_555 1_555
C153 C159 1_555 1_555
C163 C164 1_555 1_555
C165 C166 1_555 1_555
C172 C177 1_555 1_555
C176 C177 1_555 1_555
C179 C180 1_555 1_555
C104 H117 1_555 1_555
H118 C104 1_555 1_555
Cd11 O38 1_555 1_555
O38 C189 1_555 1_555
O59 C189 1_555 1_555
H194 C168 1_555 1_555
H195 C168 1_555 1_555
H196 C168 1_555 1_555
H200 C170 1_555 1_555
H202 C170 1_555 1_555
C182 C181 1_555 1_555
H215 C182 1_555 1_555
C183 C182 1_555 1_555
C185 C181 1_555 1_555
C186 C185 1_555 1_555
H217 C186 1_555 1_555
H218 C186 1_555 1_555
H219 C186 1_555 1_555
C187 C185 1_555 1_555
H220 C187 1_555 1_555
H221 C187 1_555 1_555
H222 C187 1_555 1_555
C188 C185 1_555 1_555
H223 C188 1_555 1_555
H224 C188 1_555 1_555
H225 C188 1_555 1_555
C189 C183 1_555 1_555
N22 C256 1_555 1_555
O54 Cd11 1_555 1_555
C256 O54 1_555 1_555
H308 C256 1_555 1_555
C257 N22 1_555 1_555
H309 C257 1_555 1_555
H310 C257 1_555 1_555
H311 C257 1_555 1_555
C258 N22 1_555 1_555
H312 C258 1_555 1_555
H313 C258 1_555 1_555
H314 C258 1_555 1_555
O56 Cd11 1_555 1_555
O61 Cd11 1_555 1_555
Cd1_3 O5_2 1_555 1_555
Cd2_2 O5_2 1_555 1_555
N2_2 Co1_2 1_555 1_555
O55 C1_2 1_555 1_555
O57 C1_2 1_555 1_555
O3_2 Co1_2 1_555 1_555
O4_2 Co1_2 1_555 1_555
O5_2 C30_2 1_555 1_555
O6_2 Cd2_2 1_555 1_555
C1_2 C2_2 1_555 1_555
C2_2 C3_2 1_555 1_555
C3_2 H1_2 1_555 1_555
C4_2 C3_2 1_555 1_555
C5_2 O3_2 1_555 1_555
C6_2 C5_2 1_555 1_555
C7_2 C2_2 1_555 1_555
H2_2 C7_2 1_555 1_555
C8_2 H3_2 1_555 1_555
H4_2 C8_2 1_555 1_555
H5_2 C8_2 1_555 1_555
C9_2 C4_2 1_555 1_555
C10_2 C9_2 1_555 1_555
H6_2 C10_2 1_555 1_555
H7_2 C10_2 1_555 1_555
H8_2 C10_2 1_555 1_555
C11_2 C9_2 1_555 1_555
H9_2 C11_2 1_555 1_555
H10_2 C11_2 1_555 1_555
H11_2 C11_2 1_555 1_555
C12_2 C6_2 1_555 1_555
C19_2 N2_2 1_555 1_555
C20_2 C19_2 1_555 1_555
C21_2 O4_2 1_555 1_555
C22_2 C21_2 1_555 1_555
C23_2 C22_2 1_555 1_555
H24_2 C23_2 1_555 1_555
C24_2 C23_2 1_555 1_555
C25_2 C20_2 1_555 1_555
H25_2 C25_2 1_555 1_555
C26_2 C22_2 1_555 1_555
C27_2 C26_2 1_555 1_555
H26_2 C27_2 1_555 1_555
H27_2 C27_2 1_555 1_555
H28_2 C27_2 1_555 1_555
C28_2 C26_2 1_555 1_555
H29_2 C28_2 1_555 1_555
H30_2 C28_2 1_555 1_555
H31_2 C28_2 1_555 1_555
C29_2 C26_2 1_555 1_555
H32_2 C29_2 1_555 1_555
H33_2 C29_2 1_555 1_555
H34_2 C29_2 1_555 1_555
C30_2 O6_2 1_555 1_555
C200_2 H234_2 1_555 1_555
H235_2 C200_2 1_555 1_555
H240_2 C203_2 1_555 1_555
C204_2 C200_2 1_555 1_555
H241_2 C204_2 1_555 1_555
H242_2 C204_2 1_555 1_555
C205_2 C200_2 1_555 1_555
H243_2 C205_2 1_555 1_555
H244_2 C205_2 1_555 1_555
C206_2 C205_2 1_555 1_555
H245_2 C206_2 1_555 1_555
H246_2 C206_2 1_555 1_555
C207_2 N17_2 1_555 1_555
H247_2 C207_2 1_555 1_555
C208_2 N17_2 1_555 1_555
H248_2 C208_2 1_555 1_555
C4_2 C5_2 1_555 1_555
C6_2 C7_2 1_555 1_555
C8_2 C9_2 1_555 1_555
C20_2 C21_2 1_555 1_555
C24_2 C25_2 1_555 1_555
C24_2 C30_2 1_555 1_555
C203_2 C204_2 1_555 1_555
C203_2 C207_2 1_555 1_555
C206_2 C207_2 1_555 1_555
Co3_2 N5_2 1_555 1_555
N5_2 C73_2 1_555 1_555
O60 C61_2 1_555 1_555
O62 C61_2 1_555 1_555
O15_2 Co3_2 1_555 1_555
O16_2 Co3_2 1_555 1_555
O17_2 Cd1_4 1_555 1_555
O19_2 Cd1_4 1_555 1_555
C61_2 C62_2 1_555 1_555
C62_2 C63_2 1_555 1_555
C63_2 H69_2 1_555 1_555
C64_2 C63_2 1_555 1_555
C65_2 O15_2 1_555 1_555
C66_2 C65_2 1_555 1_555
C67_2 C62_2 1_555 1_555
H70_2 C67_2 1_555 1_555
C68_2 C64_2 1_555 1_555
C69_2 C68_2 1_555 1_555
H71_2 C69_2 1_555 1_555
H72 C69_2 1_555 1_555
H73_2 C69_2 1_555 1_555
C70_2 C68_2 1_555 1_555
H74_2 C70_2 1_555 1_555
H75_2 C70_2 1_555 1_555
H76_2 C70_2 1_555 1_555
C72_2 C68_2 1_555 1_555
H79_2 C72_2 1_555 1_555
H80_2 C72_2 1_555 1_555
H81_2 C72_2 1_555 1_555
C73_2 C66_2 1_555 1_555
C81_2 O16_2 1_555 1_555
C82_2 C81_2 1_555 1_555
C83_2 C82_2 1_555 1_555
H92_2 C83_2 1_555 1_555
C84_2 C83_2 1_555 1_555
C85_2 C80_2 1_555 1_555
H93_2 C85_2 1_555 1_555
C86_2 C82_2 1_555 1_555
C87_2 C86_2 1_555 1_555
H94_2 C87_2 1_555 1_555
H95_2 C87_2 1_555 1_555
H96_2 C87_2 1_555 1_555
C88_2 C86_2 1_555 1_555
H97_2 C88_2 1_555 1_555
H98_2 C88_2 1_555 1_555
H99_2 C88_2 1_555 1_555
C89_2 C86_2 1_555 1_555
H100_2 C89_2 1_555 1_555
H101_2 C89_2 1_555 1_555
H102_2 C89_2 1_555 1_555
C90_2 O19_2 1_555 1_555
C91_2 O17_2 1_555 1_555
N10_2 C124_2 1_555 1_555
C124_2 O26_2 1_555 1_555
H144_2 C124_2 1_555 1_555
C126_2 N10_2 1_555 1_555
H148 C126_2 1_555 1_555
H149_2 C126_2 1_555 1_555
H150 C126_2 1_555 1_555
C142_2 N12_2 1_555 1_555
H170_2 C142_2 1_555 1_555
C143_2 C142_2 1_555 1_555
H171_2 C143_2 1_555 1_555
H172_2 C143_2 1_555 1_555
C144_2 C143_2 1_555 1_555
H173_2 C144_2 1_555 1_555
H174_2 C144_2 1_555 1_555
C145_2 C144_2 1_555 1_555
H175_2 C145_2 1_555 1_555
H176_2 C145_2 1_555 1_555
C146_2 C145_2 1_555 1_555
H177_2 C146_2 1_555 1_555
H178_2 C146_2 1_555 1_555
H179_2 C147_2 1_555 1_555
O18_2 C91_2 1_555 1_555
O20_2 C90_2 1_555 1_555
C64_2 C65_2 1_555 1_555
C66_2 C67_2 1_555 1_555
C80_2 C81_2 1_555 1_555
C84_2 C85_2 1_555 1_555
C84_2 C91_2 1_555 1_555
C142_2 C147_2 1_555 1_555
C146_2 C147_2 1_555 1_555
Co2_2 N3_2 1_555 1_555
Cd3_3 O7_2 1_555 1_555
Cd4_3 O12_2 1_555 1_555
Cd13 O11_2 1_555 1_555
Cd18 O12_2 1_555 1_555
N3_2 C42_2 1_555 1_555
N4_2 Co2_2 1_555 1_555
O7_2 C31_2 1_555 1_555
O9_2 Co2_2 1_555 1_555
O10_2 Co2_2 1_555 1_555
O11_2 C60_2 1_555 1_555
O12_2 C60_2 1_555 1_555
C31_2 O8_2 1_555 1_555
C32_2 C31_2 1_555 1_555
C33_2 C32_2 1_555 1_555
H35_2 C33_2 1_555 1_555
C34_2 C33_2 1_555 1_555
C35_2 O9_2 1_555 1_555
C36_2 C35_2 1_555 1_555
C37_2 C32_2 1_555 1_555
H36_2 C37_2 1_555 1_555
C38_2 C36_2 1_555 1_555
C39_2 C38_2 1_555 1_555
H37_2 C39_2 1_555 1_555
H38_2 C39_2 1_555 1_555
H39_2 C39_2 1_555 1_555
C40_2 C38_2 1_555 1_555
H40_2 C40_2 1_555 1_555
H41_2 C40_2 1_555 1_555
H42_2 C40_2 1_555 1_555
C41_2 C38_2 1_555 1_555
H43_2 C41_2 1_555 1_555
H44_2 C41_2 1_555 1_555
H45_2 C41_2 1_555 1_555
C42_2 C34_2 1_555 1_555
H46_2 C42_2 1_555 1_555
C43_2 N3_2 1_555 1_555
H47_2 C43_2 1_555 1_555
C44_2 C43_2 1_555 1_555
H48_2 C44_2 1_555 1_555
H49_2 C44_2 1_555 1_555
H52_2 C46_2 1_555 1_555
C47_2 C46_2 1_555 1_555
H54_2 C47_2 1_555 1_555
H55_2 C47_2 1_555 1_555
C48_2 N4_2 1_555 1_555
H56_2 C48_2 1_555 1_555
C49_2 N4_2 1_555 1_555
H57_2 C49_2 1_555 1_555
C50_2 C49_2 1_555 1_555
C51_2 O10_2 1_555 1_555
C52_2 C51_2 1_555 1_555
C53_2 C52_2 1_555 1_555
H58_2 C53_2 1_555 1_555
C54_2 C53_2 1_555 1_555
C55_2 C50_2 1_555 1_555
H59_2 C55_2 1_555 1_555
C56_2 C52_2 1_555 1_555
C57_2 C56_2 1_555 1_555
H60_2 C57_2 1_555 1_555
H61_2 C57_2 1_555 1_555
H62_2 C57_2 1_555 1_555
C58_2 C56_2 1_555 1_555
H63_2 C58_2 1_555 1_555
H64_2 C58_2 1_555 1_555
H65_2 C58_2 1_555 1_555
C59_2 C56_2 1_555 1_555
H66_2 C59_2 1_555 1_555
H67_2 C59_2 1_555 1_555
H68_2 C59_2 1_555 1_555
C60_2 C54_2 1_555 1_555
N11_2 C127_2 1_555 1_555
O27_2 Cd13 1_555 1_555
C127_2 O27_2 1_555 1_555
H151_2 C127_2 1_555 1_555
C128_2 N11_2 1_555 1_555
H152_2 C128_2 1_555 1_555
H154_2 C128_2 1_555 1_555
C129_2 N11_2 1_555 1_555
H155_2 C129_2 1_555 1_555
H156_2 C129_2 1_555 1_555
Co8_2 N18_2 1_555 1_555
N18_2 C231_2 1_555 1_555
N19_2 Co8_2 1_555 1_555
O48_2 Co8_2 1_555 1_555
O49_2 Co8_2 1_555 1_555
O50_2 C249_2 1_555 1_555
O51_2 Cd4_3 1_555 1_555
H260_2 C222_2 1_555 1_555
C223_2 C222_2 1_555 1_555
C224_2 O48_2 1_555 1_555
C231_2 C223_2 1_555 1_555
H271_2 C231_2 1_555 1_555
C232_2 H272_2 1_555 1_555
H273_2 C232_2 1_555 1_555
C233_2 H274_2 1_555 1_555
H275_2 C233_2 1_555 1_555
C234_2 C233_2 1_555 1_555
H276_2 C234_2 1_555 1_555
H277_2 C234_2 1_555 1_555
C235_2 N19_2 1_555 1_555
H278_2 C235_2 1_555 1_555
C236_2 N18_2 1_555 1_555
H279_2 C236_2 1_555 1_555
C237_2 C232_2 1_555 1_555
H280_2 C237_2 1_555 1_555
H281_2 C237_2 1_555 1_555
C238_2 N19_2 1_555 1_555
H282_2 C238_2 1_555 1_555
C239_2 C235_2 1_555 1_555
C240_2 O49_2 1_555 1_555
C241_2 C240_2 1_555 1_555
C242_2 C241_2 1_555 1_555
H283_2 C242_2 1_555 1_555
C243_2 C242_2 1_555 1_555
C244_2 C239_2 1_555 1_555
H284_2 C244_2 1_555 1_555
C246_2 C241_2 1_555 1_555
C248_2 C246_2 1_555 1_555
H292_2 C248_2 1_555 1_555
H293_2 C248_2 1_555 1_555
C249_2 O51_2 1_555 1_555
Cd15 O50_2 1_555 1_555
O59_2 Cd4_3 1_555 1_555
O65_2 Cd13 1_555 1_555
O67_2 Cd4_3 1_555 1_555
Cd18 O59_2 1_555 1_555
C34_2 C35_2 1_555 1_555
C36_2 C37_2 1_555 1_555
C43_2 C48_2 1_555 1_555
C47_2 C48_2 1_555 1_555
C50_2 C51_2 1_555 1_555
C54_2 C55_2 1_555 1_555
C223_2 C224_2 1_555 1_555
C232_2 C236_2 1_555 1_555
C233_2 C237_2 1_555 1_555
C234_2 C238_2 1_555 1_555
C236_2 C238_2 1_555 1_555
C239_2 C240_2 1_555 1_555
C243_2 C244_2 1_555 1_555
C243_2 C249_2 1_555 1_555
C13_2 N1_2 1_555 1_555
H13_2 C13_2 1_555 1_555
C14_2 C13_2 1_555 1_555
H14_2 C14_2 1_555 1_555
H15_2 C14_2 1_555 1_555
C15_2 C14_2 1_555 1_555
H16_2 C15_2 1_555 1_555
H17_2 C15_2 1_555 1_555
C16_2 C15_2 1_555 1_555
H18_2 C16_2 1_555 1_555
H19_2 C16_2 1_555 1_555
C17_2 C16_2 1_555 1_555
H20_2 C17_2 1_555 1_555
H21_2 C17_2 1_555 1_555
H22_2 C18_2 1_555 1_555
Co7_2 N16_2 1_555 1_555
N16_2 C202_2 1_555 1_555
O61 C190_2 1_555 1_555
O64 C190_2 1_555 1_555
O42_2 Co7_2 1_555 1_555
O43_2 Co7_2 1_555 1_555
O44_2 Cd1_5 1_555 1_555
O46_2 Cd1_5 1_555 1_555
C190_2 C191_2 1_555 1_555
C191_2 C192_2 1_555 1_555
C192_2 H226_2 1_555 1_555
C193_2 C192_2 1_555 1_555
C194_2 O42_2 1_555 1_555
C195_2 C194_2 1_555 1_555
C196_2 C191_2 1_555 1_555
H227_2 C196_2 1_555 1_555
C197_2 C193_2 1_555 1_555
C198_2 C197_2 1_555 1_555
H228_2 C198_2 1_555 1_555
H229 C198_2 1_555 1_555
H230_2 C198_2 1_555 1_555
C199_2 C197_2 1_555 1_555
H231_2 C199_2 1_555 1_555
H232_2 C199_2 1_555 1_555
H233_2 C199_2 1_555 1_555
C201_2 C197_2 1_555 1_555
H236_2 C201_2 1_555 1_555
H237_2 C201_2 1_555 1_555
H238_2 C201_2 1_555 1_555
C202_2 C195_2 1_555 1_555
C210_2 O43_2 1_555 1_555
C211_2 C210_2 1_555 1_555
C212_2 C211_2 1_555 1_555
H249_2 C212_2 1_555 1_555
C213_2 C212_2 1_555 1_555
C214_2 C209_2 1_555 1_555
H250_2 C214_2 1_555 1_555
C215_2 C211_2 1_555 1_555
C216_2 C215_2 1_555 1_555
H251_2 C216_2 1_555 1_555
H252_2 C216_2 1_555 1_555
H253_2 C216_2 1_555 1_555
C217_2 C215_2 1_555 1_555
H254_2 C217_2 1_555 1_555
H255_2 C217_2 1_555 1_555
H256_2 C217_2 1_555 1_555
C218_2 C215_2 1_555 1_555
H257_2 C218_2 1_555 1_555
H258_2 C218_2 1_555 1_555
H259_2 C218_2 1_555 1_555
C219_2 O46_2 1_555 1_555
C220_2 O44_2 1_555 1_555
N21_2 C253_2 1_555 1_555
C253_2 O53_2 1_555 1_555
H301_2 C253_2 1_555 1_555
C255_2 N21_2 1_555 1_555
H305 C255_2 1_555 1_555
H306_2 C255_2 1_555 1_555
H307 C255_2 1_555 1_555
C13_2 C18_2 1_555 1_555
C17_2 C18_2 1_555 1_555
O45_2 C220_2 1_555 1_555
O47_2 C219_2 1_555 1_555
C193_2 C194_2 1_555 1_555
C195_2 C196_2 1_555 1_555
C209_2 C210_2 1_555 1_555
C213_2 C214_2 1_555 1_555
C213_2 C220_2 1_555 1_555
C71_2 H77_2 1_555 1_555
H78_2 C71_2 1_555 1_555
H83_2 C74_2 1_555 1_555
C75_2 C71_2 1_555 1_555
H84_2 C75_2 1_555 1_555
H85_2 C75_2 1_555 1_555
C76_2 C71_2 1_555 1_555
H86_2 C76_2 1_555 1_555
H87_2 C76_2 1_555 1_555
C77_2 C76_2 1_555 1_555
H88_2 C77_2 1_555 1_555
H89_2 C77_2 1_555 1_555
C78_2 N6_2 1_555 1_555
H90_2 C78_2 1_555 1_555
C79_2 N6_2 1_555 1_555
H91_2 C79_2 1_555 1_555
Cd7_2 O32_2 1_555 1_555
N13_2 Co5_2 1_555 1_555
O56 C130_2 1_555 1_555
O58 C130_2 1_555 1_555
O30_2 Co5_2 1_555 1_555
O31_2 Co5_2 1_555 1_555
O32_2 Cd1_6 1_555 1_555
O33_2 Cd7_2 1_555 1_555
C130_2 C131_2 1_555 1_555
C131_2 C132_2 1_555 1_555
C132_2 H158_2 1_555 1_555
C133_2 C132_2 1_555 1_555
C134_2 O30_2 1_555 1_555
C135_2 C134_2 1_555 1_555
C136_2 C131_2 1_555 1_555
H159_2 C136_2 1_555 1_555
C137_2 H160_2 1_555 1_555
H161_2 C137_2 1_555 1_555
H162_2 C137_2 1_555 1_555
C138_2 C133_2 1_555 1_555
C139_2 C138_2 1_555 1_555
H163_2 C139_2 1_555 1_555
H164_2 C139_2 1_555 1_555
H165_2 C139_2 1_555 1_555
C140_2 C138_2 1_555 1_555
H166_2 C140_2 1_555 1_555
H167_2 C140_2 1_555 1_555
H168_2 C140_2 1_555 1_555
C141_2 C135_2 1_555 1_555
C148_2 N13_2 1_555 1_555
C149_2 C148_2 1_555 1_555
C150_2 O31_2 1_555 1_555
C151_2 C150_2 1_555 1_555
C152_2 C151_2 1_555 1_555
H181_2 C152_2 1_555 1_555
C153_2 C152_2 1_555 1_555
C154_2 C149_2 1_555 1_555
H182_2 C154_2 1_555 1_555
C155_2 C151_2 1_555 1_555
C156_2 C155_2 1_555 1_555
H183_2 C156_2 1_555 1_555
H184_2 C156_2 1_555 1_555
H185_2 C156_2 1_555 1_555
C157_2 C155_2 1_555 1_555
H186_2 C157_2 1_555 1_555
H187_2 C157_2 1_555 1_555
H188_2 C157_2 1_555 1_555
C158_2 C155_2 1_555 1_555
H189_2 C158_2 1_555 1_555
H190_2 C158_2 1_555 1_555
H191_2 C158_2 1_555 1_555
C159_2 O32_2 1_555 1_555
C74_2 C75_2 1_555 1_555
C74_2 C78_2 1_555 1_555
C77_2 C78_2 1_555 1_555
O33_2 C159_2 1_555 1_555
C133_2 C134_2 1_555 1_555
C135_2 C136_2 1_555 1_555
C137_2 C138_2 1_555 1_555
C149_2 C150_2 1_555 1_555
C153_2 C154_2 1_555 1_555
C153_2 C159_2 1_555 1_555
Co4_2 N7_2 1_555 1_555
N7_2 C102_2 1_555 1_555
N8_2 Co4_2 1_555 1_555
O21_2 Co4_2 1_555 1_555
O22_2 Co4_2 1_555 1_555
O65_2 C120_2 1_555 1_555
O67_2 C120_2 1_555 1_555
H103_2 C93_2 1_555 1_555
C94_2 C93_2 1_555 1_555
C95_2 O21_2 1_555 1_555
C102_2 C94_2 1_555 1_555
H114_2 C102_2 1_555 1_555
C103_2 H115_2 1_555 1_555
H116_2 C103_2 1_555 1_555
C104_2 H117_2 1_555 1_555
H118_2 C104_2 1_555 1_555
C105_2 C104_2 1_555 1_555
H119_2 C105_2 1_555 1_555
H120_2 C105_2 1_555 1_555
C106_2 N8_2 1_555 1_555
H121_2 C106_2 1_555 1_555
C107_2 N7_2 1_555 1_555
H122_2 C107_2 1_555 1_555
C108_2 C103_2 1_555 1_555
H123_2 C108_2 1_555 1_555
H124_2 C108_2 1_555 1_555
C109_2 N8_2 1_555 1_555
H125_2 C109_2 1_555 1_555
C110_2 C106_2 1_555 1_555
C111_2 O22_2 1_555 1_555
C112_2 C111_2 1_555 1_555
C113_2 C112_2 1_555 1_555
H126_2 C113_2 1_555 1_555
C114_2 C113_2 1_555 1_555
C115_2 C110_2 1_555 1_555
H127_2 C115_2 1_555 1_555
C117_2 C112_2 1_555 1_555
C119_2 C117_2 1_555 1_555
H135_2 C119_2 1_555 1_555
H136_2 C119_2 1_555 1_555
C120_2 C114_2 1_555 1_555
Co6_2 N14_2 1_555 1_555
Cd15 O38_2 1_555 1_555
N14_2 C171_2 1_555 1_555
N15_2 Co6_2 1_555 1_555
O34_2 Cd3_4 1_555 1_555
O36_2 Co6_2 1_555 1_555
O37_2 Co6_2 1_555 1_555
O38_2 C189_2 1_555 1_555
O59_2 C189_2 1_555 1_555
C160_2 O34_2 1_555 1_555
C161_2 C160_2 1_555 1_555
C162_2 C161_2 1_555 1_555
H192_2 C162_2 1_555 1_555
C163_2 C162_2 1_555 1_555
C164_2 O36_2 1_555 1_555
C165_2 C164_2 1_555 1_555
C166_2 C161_2 1_555 1_555
H193_2 C166_2 1_555 1_555
C167_2 C165_2 1_555 1_555
C168_2 C167_2 1_555 1_555
H194_2 C168_2 1_555 1_555
H195_2 C168_2 1_555 1_555
H196_2 C168_2 1_555 1_555
C169_2 C167_2 1_555 1_555
H197_2 C169_2 1_555 1_555
H198_2 C169_2 1_555 1_555
H199_2 C169_2 1_555 1_555
C170_2 C167_2 1_555 1_555
H200_2 C170_2 1_555 1_555
H201_2 C170_2 1_555 1_555
H202_2 C170_2 1_555 1_555
C171_2 C163_2 1_555 1_555
H203_2 C171_2 1_555 1_555
C172_2 N14_2 1_555 1_555
H204_2 C172_2 1_555 1_555
C173_2 C172_2 1_555 1_555
H205_2 C173_2 1_555 1_555
H206_2 C173_2 1_555 1_555
H209_2 C175_2 1_555 1_555
C176_2 C175_2 1_555 1_555
H211_2 C176_2 1_555 1_555
H212_2 C176_2 1_555 1_555
C177_2 N15_2 1_555 1_555
H213_2 C177_2 1_555 1_555
C178_2 N15_2 1_555 1_555
H214_2 C178_2 1_555 1_555
C179_2 C178_2 1_555 1_555
C180_2 O37_2 1_555 1_555
C181_2 C180_2 1_555 1_555
C182_2 C181_2 1_555 1_555
H215_2 C182_2 1_555 1_555
C183_2 C182_2 1_555 1_555
C184_2 C179_2 1_555 1_555
H216_2 C184_2 1_555 1_555
C185_2 C181_2 1_555 1_555
C186_2 C185_2 1_555 1_555
H217_2 C186_2 1_555 1_555
H218_2 C186_2 1_555 1_555
H219_2 C186_2 1_555 1_555
C187_2 C185_2 1_555 1_555
H220_2 C187_2 1_555 1_555
H221_2 C187_2 1_555 1_555
H222_2 C187_2 1_555 1_555
C188_2 C185_2 1_555 1_555
H223_2 C188_2 1_555 1_555
H224_2 C188_2 1_555 1_555
H225_2 C188_2 1_555 1_555
C189_2 C183_2 1_555 1_555
N22_2 C256_2 1_555 1_555
O54_2 Cd15 1_555 1_555
C256_2 O54_2 1_555 1_555
H308_2 C256_2 1_555 1_555
C257_2 N22_2 1_555 1_555
H309_2 C257_2 1_555 1_555
H311_2 C257_2 1_555 1_555
C258_2 N22_2 1_555 1_555
H312_2 C258_2 1_555 1_555
H313_2 C258_2 1_555 1_555
C94_2 C95_2 1_555 1_555
C103_2 C107_2 1_555 1_555
C104_2 C108_2 1_555 1_555
C105_2 C109_2 1_555 1_555
C107_2 C109_2 1_555 1_555
C110_2 C111_2 1_555 1_555
C114_2 C115_2 1_555 1_555
O35_2 C160_2 1_555 1_555
C163_2 C164_2 1_555 1_555
C165_2 C166_2 1_555 1_555
C172_2 C177_2 1_555 1_555
C176_2 C177_2 1_555 1_555
C179_2 C180_2 1_555 1_555
C183_2 C184_2 1_555 1_555
C97_2 C92_2 1_555 1_555
H104_2 C97_2 1_555 1_555
C98_2 H105_2 1_555 1_555
H106_2 C98_2 1_555 1_555
H107_2 C98_2 1_555 1_555
C99_2 C96_2 1_555 1_555
C100_2 C99_2 1_555 1_555
H108_2 C100_2 1_555 1_555
H109_2 C100_2 1_555 1_555
H110_2 C100_2 1_555 1_555
C101_2 C99_2 1_555 1_555
H111_2 C101_2 1_555 1_555
H112_2 C101_2 1_555 1_555
C116_2 H128_2 1_555 1_555
H129_2 C116_2 1_555 1_555
H130_2 C116_2 1_555 1_555
H131_2 C118_2 1_555 1_555
H133_2 C118_2 1_555 1_555
H145_2 C125_2 1_555 1_555
H146_2 C125_2 1_555 1_555
H147_2 C125_2 1_555 1_555
O52_2 Cd3_5 1_555 1_555
H207_2 C174_2 1_555 1_555
H208_2 C174_2 1_555 1_555
N20_2 C250_2 1_555 1_555
C250_2 O52_2 1_555 1_555
C251_2 N20_2 1_555 1_555
H295_2 C251_2 1_555 1_555
H296_2 C251_2 1_555 1_555
H297_2 C251_2 1_555 1_555
C252_2 N20_2 1_555 1_555
H298_2 C252_2 1_555 1_555
H299_2 C252_2 1_555 1_555
H300_2 C252_2 1_555 1_555
C96_2 C97_2 1_555 1_555
C98_2 C99_2 1_555 1_555
O25_2 Cd3_6 1_555 1_555
H50_2 C45_2 1_555 1_555
H51_2 C45_2 1_555 1_555
N9_2 C121_2 1_555 1_555
C121_2 O25_2 1_555 1_555
C122_2 N9_2 1_555 1_555
H138_2 C122_2 1_555 1_555
H139_2 C122_2 1_555 1_555
H140_2 C122_2 1_555 1_555
C123_2 N9_2 1_555 1_555
H141_2 C123_2 1_555 1_555
H142_2 C123_2 1_555 1_555
H143_2 C123_2 1_555 1_555
C226_2 C221_2 1_555 1_555
H261_2 C226_2 1_555 1_555
C227_2 H262_2 1_555 1_555
H263_2 C227_2 1_555 1_555
H264_2 C227_2 1_555 1_555
C228_2 C225_2 1_555 1_555
C229_2 C228_2 1_555 1_555
H265_2 C229_2 1_555 1_555
H266_2 C229_2 1_555 1_555
H267_2 C229_2 1_555 1_555
C230_2 C228_2 1_555 1_555
H268_2 C230_2 1_555 1_555
H269_2 C230_2 1_555 1_555
C245_2 H285_2 1_555 1_555
H286_2 C245_2 1_555 1_555
H287_2 C245_2 1_555 1_555
H288_2 C247_2 1_555 1_555
H290_2 C247_2 1_555 1_555
H302_2 C254_2 1_555 1_555
H303_2 C254_2 1_555 1_555
H304_2 C254_2 1_555 1_555
C225_2 C226_2 1_555 1_555
C227_2 C228_2 1_555 1_555
C259 C260 1_555 1_555
O68 C259 1_555 1_555
O69 C259 1_555 1_555
C260 H324 1_555 1_555
C260 H325 1_555 1_555
C260 H326 1_555 1_555
C259_2 C260_2 1_555 1_555
O68_2 C259_2 1_555 1_555
O69_2 C259_2 1_555 1_555
C260_2 H324_2 1_555 1_555
C260_2 H325_2 1_555 1_555
C260_2 H326_2 1_555 1_555
C259_3 C260_3 1_555 1_555
O68_3 C259_3 1_555 1_555
O69_3 C259_3 1_555 1_555
C260_3 H324_3 1_555 1_555
C260_3 H325_3 1_555 1_555
C260_3 H326_3 1_555 1_555
C259_4 C260_4 1_555 1_555
O68_4 C259_4 1_555 1_555
O69_4 C259_4 1_555 1_555
C260_4 H324_4 1_555 1_555
C260_4 H325_4 1_555 1_555
C260_4 H326_4 1_555 1_555
C261 C262 1_555 1_555
O70 C261 1_555 1_555
O71 C261 1_555 1_555
C262 H318 1_555 1_555
C262 H319 1_555 1_555
C262 H320 1_555 1_555
C261_2 C262_2 1_555 1_555
O70_2 C261_2 1_555 1_555
O71_2 C261_2 1_555 1_555
C262_2 H318_2 1_555 1_555
C262_2 H319_2 1_555 1_555
C262_2 H320_2 1_555 1_555
C261_3 C262_3 1_555 1_555
O70_3 C261_3 1_555 1_555
O71_3 C261_3 1_555 1_555
C262_3 H318_3 1_555 1_555
C262_3 H319_3 1_555 1_555
C262_3 H320_3 1_555 1_555
C261_4 C262_4 1_555 1_555
O70_4 C261_4 1_555 1_555
O71_4 C261_4 1_555 1_555
C262_4 H318_4 1_555 1_555
C262_4 H319_4 1_555 1_555
C262_4 H320_4 1_555 1_555
C263 C264 1_555 1_555
C264 O72 1_555 1_555
O73 C264 1_555 1_555
C263 H315 1_555 1_555
C263 H317 1_555 1_555
C263_2 C264_2 1_555 1_555
C264_2 O72_2 1_555 1_555
O73_2 C264_2 1_555 1_555
C263_2 H315_2 1_555 1_555
C263_2 H317_2 1_555 1_555
C263_3 C264_3 1_555 1_555
C264_3 O72_3 1_555 1_555
O73_3 C264_3 1_555 1_555
C263_3 H315_3 1_555 1_555
C263_3 H317_3 1_555 1_555
C263_4 C264_4 1_555 1_555
C264_4 O72_4 1_555 1_555
O73_4 C264_4 1_555 1_555
C263_4 H315_4 1_555 1_555
C263_4 H317_4 1_555 1_555
C265 C266 1_555 1_555
O74 C265 1_555 1_555
O75 C265 1_555 1_555
C266 H321 1_555 1_555
C266 H322 1_555 1_555
C266 H323 1_555 1_555
C265_2 C266_2 1_555 1_555
O74_2 C265_2 1_555 1_555
O75_2 C265_2 1_555 1_555
C266_2 H321_2 1_555 1_555
C266_2 H322_2 1_555 1_555
C266_2 H323_2 1_555 1_555
C265_3 C266_3 1_555 1_555
O74_3 C265_3 1_555 1_555
O75_3 C265_3 1_555 1_555
C266_3 H321_3 1_555 1_555
C266_3 H322_3 1_555 1_555
C266_3 H323_3 1_555 1_555
C265_4 C266_4 1_555 1_555
O74_4 C265_4 1_555 1_555
O75_4 C265_4 1_555 1_555
C266_4 H321_4 1_555 1_555
C266_4 H322_4 1_555 1_555
C266_4 H323_4 1_555 1_555

#END
