
###############################################################################
#
# This file contains modified crystal structure data generated from the
# MOF subset of the Cambridge Structural Database (CSD) v543 
# hosted by the Cambridge Crystallographic Data Centre (CCDC).
#
# This work is licensed under the Creative Commons
# Attribution-NonCommercial-ShareAlike 4.0 International License.
# To view a copy of this license, visit
# http://creativecommons.org/licenses/by-nc-sa/4.0/
# or send a letter to
# Creative Commons, PO Box 1866, Mountain View, CA 94042, USA.
#
# CIF created using the CSD Python API on 29 September 2022
# The structure has been converted into the P1 space group
# The structure has a 3D framework
# The original CSD entry KUTNUK is in the orthorhombic crystal system
# The framework has been calculated to contain at least 10.0% void space
# The void calculation uses a probe of radius 1.32A, grid spacing 0.4
#
###############################################################################

data_KUTNUK
_chemical_formula_moiety         '(C312 H184 Cu8 N16 O50)n'
_symmetry_cell_setting           triclinic
_symmetry_space_group_name_H-M   'P 1'
_symmetry_Int_Tables_number      1
_space_group_name_Hall           'P 1'
loop_
_symmetry_equiv_pos_site_id
_symmetry_equiv_pos_as_xyz
1 x,y,z
_cell_length_a                   23.997(7)
_cell_length_b                   36.410(6)
_cell_length_c                   18.142(3)
_cell_angle_alpha                90
_cell_angle_beta                 90
_cell_angle_gamma                90
_cell_volume                     15851.2
loop_
_atom_site_label
_atom_site_type_symbol
_atom_site_fract_x
_atom_site_fract_y
_atom_site_fract_z
Cu1 Cu 0.82060(2) 0.53795(2) 0.50739(2)
O1 O 0.61157(8) 0.47057(6) 0.06722(12)
O2 O 0.62861(8) 0.53043(6) 0.08416(11)
O3 O 0.75493(8) 0.53433(5) 0.44318(11)
O4 O 0.77098(8) 0.47711(6) 0.40628(11)
N1 N 0.82111(10) 0.59425(7) 0.51647(15)
C1 C 0.60201(12) 0.50118(8) 0.09512(16)
C2 C 0.55031(12) 0.50393(8) 0.14221(17)
C3 C 0.5000 0.49892(11) 0.1074(3)
H1 H 0.5000 0.4918 0.0581
C4 C 0.55082(12) 0.51370(9) 0.21696(17)
C5 C 0.5000 0.51814(12) 0.2521(2)
H2 H 0.5000 0.5244 0.3018
C6 C 0.74521(12) 0.50683(8) 0.40410(17)
C7 C 0.68709(12) 0.48319(10) 0.29990(18)
H3 H 0.7112 0.4633 0.2959
C8 C 0.60334(12) 0.51426(9) 0.26004(16)
C9 C 0.69741(13) 0.50986(9) 0.35129(18)
C10 C 0.64127(12) 0.48539(9) 0.25389(18)
H4 H 0.6357 0.4674 0.2183
C11 C 0.61400(13) 0.54090(9) 0.31155(18)
H5 H 0.5892 0.5604 0.3165
C12 C 0.66051(13) 0.53956(9) 0.35632(19)
H6 H 0.6673 0.5584 0.3898
C13 C 0.82072(16) 0.67125(13) 0.5251(3)
C14 C 0.82048(17) 0.71164(11) 0.5289(3)
C15 C 0.77764(16) 0.61468(12) 0.4935(2)
H7 H 0.7469 0.6026 0.4740
C16 C 0.77610(19) 0.65226(11) 0.4971(3)
H8 H 0.7448 0.6649 0.4806
C17 C 0.86422(19) 0.64997(12) 0.5499(3)
H9 H 0.8952 0.6613 0.5707
C18 C 0.7730(2) 0.73037(11) 0.5404(3)
H10 H 0.7399 0.7177 0.5485
C19 C 0.8703(2) 0.73116(11) 0.5204(4)
H11 H 0.9037 0.7185 0.5148
C20 C 0.86280(18) 0.61346(11) 0.5449(3)
H12 H 0.8933 0.6005 0.5627
O5 O 0.38843(8) 0.47057(6) 0.06722(12)
O6 O 0.37139(8) 0.53043(6) 0.08416(11)
O7 O 0.24507(8) 0.53433(5) 0.44318(11)
O8 O 0.22902(8) 0.47711(6) 0.40628(11)
C21 C 0.39799(12) 0.50118(8) 0.09512(16)
C22 C 0.44969(12) 0.50393(8) 0.14221(17)
C23 C 0.44918(12) 0.51370(9) 0.21696(17)
C24 C 0.25479(12) 0.50683(8) 0.40410(17)
C25 C 0.31291(12) 0.48319(10) 0.29990(18)
H13 H 0.2888 0.4633 0.2959
C26 C 0.39666(12) 0.51426(9) 0.26004(16)
C27 C 0.30259(13) 0.50986(9) 0.35129(18)
C28 C 0.35873(12) 0.48539(9) 0.25389(18)
H14 H 0.3643 0.4674 0.2183
C29 C 0.38600(13) 0.54090(9) 0.31155(18)
H15 H 0.4108 0.5604 0.3165
C30 C 0.33949(13) 0.53956(9) 0.35632(19)
H16 H 0.3327 0.5584 0.3898
N2 N 0.82111(10) 0.90575(7) 0.51647(15)
C31 C 0.82072(16) 0.82875(13) 0.5251(3)
C32 C 0.82048(17) 0.78836(11) 0.5289(3)
C33 C 0.77764(16) 0.88532(12) 0.4935(2)
H17 H 0.7469 0.8974 0.4740
C34 C 0.77610(19) 0.84774(11) 0.4971(3)
H18 H 0.7448 0.8351 0.4806
C35 C 0.86422(19) 0.85003(12) 0.5499(3)
H19 H 0.8952 0.8387 0.5707
C36 C 0.7730(2) 0.76963(11) 0.5404(3)
H20 H 0.7399 0.7823 0.5485
C37 C 0.8703(2) 0.76884(11) 0.5204(4)
H21 H 0.9037 0.7815 0.5148
C38 C 0.86280(18) 0.88654(11) 0.5449(3)
H22 H 0.8933 0.8995 0.5627
Cu2 Cu 0.82060(2) 0.46205(2) 0.49261(2)
Cu3 Cu 0.67940(2) 0.46205(2) 0.00739(2)
Cu5 Cu 0.17940(2) 0.46205(2) 0.49261(2)
Cu6 Cu 0.82060(2) 0.96205(2) 0.50739(2)
Cu7 Cu 0.17940(2) 0.53795(2) 0.50739(2)
Cu9 Cu 0.32060(2) 0.46205(2) 0.00739(2)
O9 O 0.88843(8) 0.52943(6) 0.56722(12)
O10 O 0.88843(8) 0.47057(6) 0.43278(12)
O11 O 0.87139(8) 0.46957(6) 0.58416(11)
O12 O 0.87139(8) 0.53043(6) 0.41584(11)
O13 O 0.75493(8) 0.46567(5) 0.55682(11)
O14 O 0.77098(8) 0.52289(6) 0.59372(11)
N3 N 0.82111(10) 0.40575(7) 0.48353(15)
Cu4 Cu 0.67940(2) 0.53795(2) 0.99261(2)
Cu8 Cu 0.32060(2) 0.53795(2) 0.99261(2)
O1_2 O 0.38843(8) 0.02943(6) 0.06722(12)
O4_2 O 0.22902(8) 0.02289(6) 0.40628(11)
C3_2 C 0.5000 0.00108(11) 0.1074(3)
H1_2 H 0.5000 0.0082 0.0581
C7_2 C 0.31291(12) 0.01681(10) 0.29990(18)
H3_2 H 0.2888 0.0367 0.2959
C10_2 C 0.35873(12) 0.01461(9) 0.25389(18)
H4_2 H 0.3643 0.0326 0.2183
O5_2 O 0.61157(8) 0.02943(6) 0.06722(12)
O8_2 O 0.77098(8) 0.02289(6) 0.40628(11)
C25_2 C 0.68709(12) 0.01681(10) 0.29990(18)
H13_2 H 0.7112 0.0367 0.2959
C28_2 C 0.64127(12) 0.01461(9) 0.25389(18)
H14_2 H 0.6357 0.0326 0.2183
Cu2_2 Cu 0.17940(2) 0.03795(2) 0.49261(2)
Cu3_2 Cu 0.32060(2) 0.03795(2) 0.00739(2)
Cu5_2 Cu 0.82060(2) 0.03795(2) 0.49261(2)
Cu9_2 Cu 0.67940(2) 0.03795(2) 0.00739(2)
O10_2 O 0.11157(8) 0.02943(6) 0.43278(12)
O11_2 O 0.12861(8) 0.03043(6) 0.58416(11)
O13_2 O 0.24507(8) 0.03433(5) 0.55682(11)
N3_2 N 0.17889(10) 0.09425(7) 0.48353(15)
Cu1_2 Cu 0.17940(2) 0.96205(2) 0.50739(2)
O2_2 O 0.37139(8) 0.96957(6) 0.08416(11)
O3_2 O 0.24507(8) 0.96567(5) 0.44318(11)
N1_2 N 0.17889(10) 0.90575(7) 0.51647(15)
C1_2 C 0.39799(12) 0.99882(8) 0.09512(16)
C2_2 C 0.44969(12) 0.99607(8) 0.14221(17)
C4_2 C 0.44918(12) 0.98630(9) 0.21696(17)
C5_2 C 0.5000 0.98186(12) 0.2521(2)
H2_2 H 0.5000 0.9756 0.3018
C6_2 C 0.25479(12) 0.99317(8) 0.40410(17)
C8_2 C 0.39666(12) 0.98574(9) 0.26004(16)
C9_2 C 0.30259(13) 0.99014(9) 0.35129(18)
C11_2 C 0.38600(13) 0.95910(9) 0.31155(18)
H5_2 H 0.4108 0.9396 0.3165
C12_2 C 0.33949(13) 0.96044(9) 0.35632(19)
H6_2 H 0.3327 0.9416 0.3898
C13_2 C 0.17928(16) 0.82875(13) 0.5251(3)
C14_2 C 0.17952(17) 0.78836(11) 0.5289(3)
C15_2 C 0.22236(16) 0.88532(12) 0.4935(2)
H7_2 H 0.2531 0.8974 0.4740
C16_2 C 0.22390(19) 0.84774(11) 0.4971(3)
H8_2 H 0.2552 0.8351 0.4806
C17_2 C 0.13578(19) 0.85003(12) 0.5499(3)
H9_2 H 0.1048 0.8387 0.5707
C18_2 C 0.2270(2) 0.76963(11) 0.5404(3)
H10_2 H 0.2601 0.7823 0.5485
C19_2 C 0.1297(2) 0.76884(11) 0.5204(4)
H11_2 H 0.0963 0.7815 0.5148
C20_2 C 0.13720(18) 0.88654(11) 0.5449(3)
H12_2 H 0.1067 0.8995 0.5627
O6_2 O 0.62861(8) 0.96957(6) 0.08416(11)
O7_2 O 0.75493(8) 0.96567(5) 0.44318(11)
C21_2 C 0.60201(12) 0.99882(8) 0.09512(16)
C22_2 C 0.55031(12) 0.99607(8) 0.14221(17)
C23_2 C 0.55082(12) 0.98630(9) 0.21696(17)
C24_2 C 0.74521(12) 0.99317(8) 0.40410(17)
C26_2 C 0.60334(12) 0.98574(9) 0.26004(16)
C27_2 C 0.69741(13) 0.99014(9) 0.35129(18)
C29_2 C 0.61400(13) 0.95910(9) 0.31155(18)
H15_2 H 0.5892 0.9396 0.3165
C30_2 C 0.66051(13) 0.96044(9) 0.35632(19)
H16_2 H 0.6673 0.9416 0.3898
N2_2 N 0.17889(10) 0.59425(7) 0.51647(15)
C31_2 C 0.17928(16) 0.67125(13) 0.5251(3)
C32_2 C 0.17952(17) 0.71164(11) 0.5289(3)
C33_2 C 0.22236(16) 0.61468(12) 0.4935(2)
H17_2 H 0.2531 0.6026 0.4740
C34_2 C 0.22390(19) 0.65226(11) 0.4971(3)
H18_2 H 0.2552 0.6649 0.4806
C35_2 C 0.13578(19) 0.64997(12) 0.5499(3)
H19_2 H 0.1048 0.6613 0.5707
C36_2 C 0.2270(2) 0.73037(11) 0.5404(3)
H20_2 H 0.2601 0.7177 0.5485
C37_2 C 0.1297(2) 0.73116(11) 0.5204(4)
H21_2 H 0.0963 0.7185 0.5148
C38_2 C 0.13720(18) 0.61346(11) 0.5449(3)
H22_2 H 0.1067 0.6005 0.5627
O9_2 O 0.11157(8) 0.97057(6) 0.56722(12)
O12_2 O 0.12861(8) 0.96957(6) 0.41584(11)
O14_2 O 0.22902(8) 0.97711(6) 0.59372(11)
Cu4_2 Cu 0.32060(2) 0.96205(2) 0.99261(2)
Cu8_2 Cu 0.67940(2) 0.96205(2) 0.99261(2)
O2_3 O 0.37139(8) 0.03043(6) 0.91584(11)
C1_3 C 0.39799(12) 0.00118(8) 0.90488(16)
C2_3 C 0.44969(12) 0.00393(8) 0.85779(17)
C4_3 C 0.44918(12) 0.01370(9) 0.78304(17)
C5_3 C 0.5000 0.01814(12) 0.7479(2)
H2_3 H 0.5000 0.0244 0.6982
C6_3 C 0.25479(12) 0.00683(8) 0.59590(17)
C8_3 C 0.39666(12) 0.01426(9) 0.73996(16)
C9_3 C 0.30259(13) 0.00986(9) 0.64871(18)
C11_3 C 0.38600(13) 0.04090(9) 0.68845(18)
H5_3 H 0.4108 0.0604 0.6835
C12_3 C 0.33949(13) 0.03956(9) 0.64368(19)
H6_3 H 0.3327 0.0584 0.6102
C13_3 C 0.17928(16) 0.17125(13) 0.4749(3)
C14_3 C 0.17952(17) 0.21164(11) 0.4711(3)
C15_3 C 0.22236(16) 0.11468(12) 0.5065(2)
H7_3 H 0.2531 0.1026 0.5260
C16_3 C 0.22390(19) 0.15226(11) 0.5029(3)
H8_3 H 0.2552 0.1649 0.5194
C17_3 C 0.13578(19) 0.14997(12) 0.4501(3)
H9_3 H 0.1048 0.1613 0.4293
C18_3 C 0.2270(2) 0.23037(11) 0.4596(3)
H10_3 H 0.2601 0.2177 0.4515
C19_3 C 0.1297(2) 0.23116(11) 0.4796(4)
H11_3 H 0.0963 0.2185 0.4852
C20_3 C 0.13720(18) 0.11346(11) 0.4551(3)
H12_3 H 0.1067 0.1005 0.4373
O6_3 O 0.62861(8) 0.03043(6) 0.91584(11)
O7_3 O 0.75493(8) 0.03433(5) 0.55682(11)
C21_3 C 0.60201(12) 0.00118(8) 0.90488(16)
C22_3 C 0.55031(12) 0.00393(8) 0.85779(17)
C23_3 C 0.55082(12) 0.01370(9) 0.78304(17)
C24_3 C 0.74521(12) 0.00683(8) 0.59590(17)
C26_3 C 0.60334(12) 0.01426(9) 0.73996(16)
C27_3 C 0.69741(13) 0.00986(9) 0.64871(18)
C29_3 C 0.61400(13) 0.04090(9) 0.68845(18)
H15_3 H 0.5892 0.0604 0.6835
C30_3 C 0.66051(13) 0.03956(9) 0.64368(19)
H16_3 H 0.6673 0.0584 0.6102
N2_3 N 0.17889(10) 0.40575(7) 0.48353(15)
C31_3 C 0.17928(16) 0.32875(13) 0.4749(3)
C32_3 C 0.17952(17) 0.28836(11) 0.4711(3)
C33_3 C 0.22236(16) 0.38532(12) 0.5065(2)
H17_3 H 0.2531 0.3974 0.5260
C34_3 C 0.22390(19) 0.34774(11) 0.5029(3)
H18_3 H 0.2552 0.3351 0.5194
C35_3 C 0.13578(19) 0.35003(12) 0.4501(3)
H19_3 H 0.1048 0.3387 0.4293
C36_3 C 0.2270(2) 0.26963(11) 0.4596(3)
H20_3 H 0.2601 0.2823 0.4515
C37_3 C 0.1297(2) 0.26884(11) 0.4796(4)
H21_3 H 0.0963 0.2815 0.4852
C38_3 C 0.13720(18) 0.38654(11) 0.4551(3)
H22_3 H 0.1067 0.3995 0.4373
O1_3 O 0.38843(8) 0.97057(6) 0.93278(12)
C3_3 C 0.5000 0.99892(11) 0.8926(3)
H1_3 H 0.5000 0.9918 0.9419
C7_3 C 0.31291(12) 0.98319(10) 0.70010(18)
H3_3 H 0.2888 0.9633 0.7041
C10_3 C 0.35873(12) 0.98539(9) 0.74611(18)
H4_3 H 0.3643 0.9674 0.7817
O5_3 O 0.61157(8) 0.97057(6) 0.93278(12)
O8_3 O 0.77098(8) 0.97711(6) 0.59372(11)
C25_3 C 0.68709(12) 0.98319(10) 0.70010(18)
H13_3 H 0.7112 0.9633 0.7041
C28_3 C 0.64127(12) 0.98539(9) 0.74611(18)
H14_3 H 0.6357 0.9674 0.7817
O1_4 O 0.61157(8) 0.52943(6) 0.93278(12)
O2_4 O 0.62861(8) 0.46957(6) 0.91584(11)
C1_4 C 0.60201(12) 0.49882(8) 0.90488(16)
C2_4 C 0.55031(12) 0.49607(8) 0.85779(17)
C3_4 C 0.5000 0.50108(11) 0.8926(3)
H1_4 H 0.5000 0.5082 0.9419
C4_4 C 0.55082(12) 0.48630(9) 0.78304(17)
C5_4 C 0.5000 0.48186(12) 0.7479(2)
H2_4 H 0.5000 0.4756 0.6982
C6_4 C 0.74521(12) 0.49317(8) 0.59590(17)
C7_4 C 0.68709(12) 0.51681(10) 0.70010(18)
H3_4 H 0.7112 0.5367 0.7041
C8_4 C 0.60334(12) 0.48574(9) 0.73996(16)
C9_4 C 0.69741(13) 0.49014(9) 0.64871(18)
C10_4 C 0.64127(12) 0.51461(9) 0.74611(18)
H4_4 H 0.6357 0.5326 0.7817
C11_4 C 0.61400(13) 0.45910(9) 0.68845(18)
H5_4 H 0.5892 0.4396 0.6835
C12_4 C 0.66051(13) 0.46044(9) 0.64368(19)
H6_4 H 0.6673 0.4416 0.6102
C13_4 C 0.82072(16) 0.32875(13) 0.4749(3)
C14_4 C 0.82048(17) 0.28836(11) 0.4711(3)
C15_4 C 0.77764(16) 0.38532(12) 0.5065(2)
H7_4 H 0.7469 0.3974 0.5260
C16_4 C 0.77610(19) 0.34774(11) 0.5029(3)
H8_4 H 0.7448 0.3351 0.5194
C17_4 C 0.86422(19) 0.35003(12) 0.4501(3)
H9_4 H 0.8952 0.3387 0.4293
C18_4 C 0.7730(2) 0.26963(11) 0.4596(3)
H10_4 H 0.7399 0.2823 0.4515
C19_4 C 0.8703(2) 0.26884(11) 0.4796(4)
H11_4 H 0.9037 0.2815 0.4852
C20_4 C 0.86280(18) 0.38654(11) 0.4551(3)
H12_4 H 0.8933 0.3995 0.4373
O5_4 O 0.38843(8) 0.52943(6) 0.93278(12)
O6_4 O 0.37139(8) 0.46957(6) 0.91584(11)
O7_4 O 0.24507(8) 0.46567(5) 0.55682(11)
O8_4 O 0.22902(8) 0.52289(6) 0.59372(11)
C21_4 C 0.39799(12) 0.49882(8) 0.90488(16)
C22_4 C 0.44969(12) 0.49607(8) 0.85779(17)
C23_4 C 0.44918(12) 0.48630(9) 0.78304(17)
C24_4 C 0.25479(12) 0.49317(8) 0.59590(17)
C25_4 C 0.31291(12) 0.51681(10) 0.70010(18)
H13_4 H 0.2888 0.5367 0.7041
C26_4 C 0.39666(12) 0.48574(9) 0.73996(16)
C27_4 C 0.30259(13) 0.49014(9) 0.64871(18)
C28_4 C 0.35873(12) 0.51461(9) 0.74611(18)
H14_4 H 0.3643 0.5326 0.7817
C29_4 C 0.38600(13) 0.45910(9) 0.68845(18)
H15_4 H 0.4108 0.4396 0.6835
C30_4 C 0.33949(13) 0.46044(9) 0.64368(19)
H16_4 H 0.3327 0.4416 0.6102
N2_4 N 0.82111(10) 0.09425(7) 0.48353(15)
C31_4 C 0.82072(16) 0.17125(13) 0.4749(3)
C32_4 C 0.82048(17) 0.21164(11) 0.4711(3)
C33_4 C 0.77764(16) 0.11468(12) 0.5065(2)
H17_4 H 0.7469 0.1026 0.5260
C34_4 C 0.77610(19) 0.15226(11) 0.5029(3)
H18_4 H 0.7448 0.1649 0.5194
C35_4 C 0.86422(19) 0.14997(12) 0.4501(3)
H19_4 H 0.8952 0.1613 0.4293
C36_4 C 0.7730(2) 0.23037(11) 0.4596(3)
H20_4 H 0.7399 0.2177 0.4515
C37_4 C 0.8703(2) 0.23116(11) 0.4796(4)
H21_4 H 0.9037 0.2185 0.4852
C38_4 C 0.86280(18) 0.11346(11) 0.4551(3)
H22_4 H 0.8933 0.1005 0.4373
N1_3 N 0.32111(10) 0.09425(7) 0.01647(15)
C13_5 C 0.32072(16) 0.17125(13) 0.0251(3)
C14_5 C 0.32048(17) 0.21164(11) 0.0289(3)
C17_5 C 0.36422(19) 0.14997(12) 0.0499(3)
H9_5 H 0.3952 0.1613 0.0707
C18_5 C 0.2730(2) 0.23037(11) 0.0404(3)
H10_5 H 0.2399 0.2177 0.0485
C19_5 C 0.3703(2) 0.23116(11) 0.0204(4)
H11_5 H 0.4037 0.2185 0.0148
C20_5 C 0.36280(18) 0.11346(11) 0.0449(3)
H12_5 H 0.3933 0.1005 0.0627
N2_5 N 0.32111(10) 0.40575(7) 0.01647(15)
C31_5 C 0.32072(16) 0.32875(13) 0.0251(3)
C32_5 C 0.32048(17) 0.28836(11) 0.0289(3)
C35_5 C 0.36422(19) 0.35003(12) 0.0499(3)
H19_5 H 0.3952 0.3387 0.0707
C36_5 C 0.2730(2) 0.26963(11) 0.0404(3)
H20_5 H 0.2399 0.2823 0.0485
C37_5 C 0.3703(2) 0.26884(11) 0.0204(4)
H21_5 H 0.4037 0.2815 0.0148
C38_5 C 0.36280(18) 0.38654(11) 0.0449(3)
H22_5 H 0.3933 0.3995 0.0627
O14_3 O 0.27098(8) 0.02289(6) 0.09372(11)
O3_3 O 0.25493(8) 0.03433(5) 0.94318(11)
C1_5 C 0.10201(12) 0.00118(8) 0.59512(16)
C2_5 C 0.05031(12) 0.00393(8) 0.64221(17)
C4_5 C 0.05082(12) 0.01370(9) 0.71696(17)
C5_5 C -0.0000 0.01814(12) 0.7521(2)
H2_5 H -0.0000 0.0244 0.8018
C6_5 C 0.24521(12) 0.00683(8) 0.90410(17)
C8_5 C 0.10334(12) 0.01426(9) 0.76004(16)
C9_5 C 0.19741(13) 0.00986(9) 0.85129(18)
C11_5 C 0.11400(13) 0.04090(9) 0.81155(18)
H5_5 H 0.0892 0.0604 0.8165
C12_5 C 0.16051(13) 0.03956(9) 0.85632(19)
H6_5 H 0.1673 0.0584 0.8898
C15_5 C 0.27764(16) 0.11468(12) 0.9935(2)
H7_5 H 0.2469 0.1026 0.9740
C16_5 C 0.27610(19) 0.15226(11) 0.9971(3)
H8_5 H 0.2448 0.1649 0.9806
C33_5 C 0.27764(16) 0.38532(12) 0.9935(2)
H17_5 H 0.2469 0.3974 0.9740
C34_5 C 0.27610(19) 0.34774(11) 0.9971(3)
H18_5 H 0.2448 0.3351 0.9806
O13_3 O 0.25493(8) 0.96567(5) 0.05682(11)
O4_3 O 0.27098(8) 0.97711(6) 0.90628(11)
C3_5 C -0.0000 0.99892(11) 0.6074(3)
H1_5 H -0.0000 0.9918 0.5581
C7_5 C 0.18709(12) 0.98319(10) 0.79990(18)
H3_5 H 0.2112 0.9633 0.7959
C10_5 C 0.14127(12) 0.98539(9) 0.75389(18)
H4_5 H 0.1357 0.9674 0.7183
N3_3 N 0.32111(10) 0.90575(7) 0.98353(15)
C5_6 C 1.0000 0.01814(12) 0.7521(2)
H2_6 H 1.0000 0.0244 0.8018
O6_5 O 0.87139(8) 0.03043(6) 0.58416(11)
O7_5 O 0.74507(8) 0.03433(5) 0.94318(11)
C21_5 C 0.89799(12) 0.00118(8) 0.59512(16)
C22_5 C 0.94969(12) 0.00393(8) 0.64221(17)
C23_5 C 0.94918(12) 0.01370(9) 0.71696(17)
C24_5 C 0.75479(12) 0.00683(8) 0.90410(17)
C26_5 C 0.89666(12) 0.01426(9) 0.76004(16)
C27_5 C 0.80259(13) 0.00986(9) 0.85129(18)
C29_5 C 0.88600(13) 0.04090(9) 0.81155(18)
H15_5 H 0.9108 0.0604 0.8165
C30_5 C 0.83949(13) 0.03956(9) 0.85632(19)
H16_5 H 0.8327 0.0584 0.8898
C3_6 C 1.0000 0.99892(11) 0.6074(3)
H1_6 H 1.0000 0.9918 0.5581
O5_5 O 0.88843(8) 0.97057(6) 0.56722(12)
O8_5 O 0.72902(8) 0.97711(6) 0.90628(11)
C25_5 C 0.81291(12) 0.98319(10) 0.79990(18)
H13_5 H 0.7888 0.9633 0.7959
C28_5 C 0.85873(12) 0.98539(9) 0.75389(18)
H14_5 H 0.8643 0.9674 0.7183
C3_7 C 0.0000 0.50108(11) 0.6074(3)
H1_7 H 0.0000 0.5082 0.5581
C5_7 C 0.0000 0.48186(12) 0.7521(2)
H2_7 H 0.0000 0.4756 0.8018
O5_6 O 0.11157(8) 0.52943(6) 0.56722(12)
O6_6 O 0.12861(8) 0.46957(6) 0.58416(11)
O7_6 O 0.25493(8) 0.46567(5) 0.94318(11)
O8_6 O 0.27098(8) 0.52289(6) 0.90628(11)
C21_6 C 0.10201(12) 0.49882(8) 0.59512(16)
C22_6 C 0.05031(12) 0.49607(8) 0.64221(17)
C23_6 C 0.05082(12) 0.48630(9) 0.71696(17)
C24_6 C 0.24521(12) 0.49317(8) 0.90410(17)
C25_6 C 0.18709(12) 0.51681(10) 0.79990(18)
H13_6 H 0.2112 0.5367 0.7959
C26_6 C 0.10334(12) 0.48574(9) 0.76004(16)
C27_6 C 0.19741(13) 0.49014(9) 0.85129(18)
C28_6 C 0.14127(12) 0.51461(9) 0.75389(18)
H14_6 H 0.1357 0.5326 0.7183
C29_6 C 0.11400(13) 0.45910(9) 0.81155(18)
H15_6 H 0.0892 0.4396 0.8165
C30_6 C 0.16051(13) 0.46044(9) 0.85632(19)
H16_6 H 0.1673 0.4416 0.8898
N1_4 N 0.67889(10) 0.40575(7) 0.01647(15)
C13_6 C 0.67928(16) 0.32875(13) 0.0251(3)
C14_6 C 0.67952(17) 0.28836(11) 0.0289(3)
C17_6 C 0.63578(19) 0.35003(12) 0.0499(3)
H9_6 H 0.6048 0.3387 0.0707
C18_6 C 0.7270(2) 0.26963(11) 0.0404(3)
H10_6 H 0.7601 0.2823 0.0485
C19_6 C 0.6297(2) 0.26884(11) 0.0204(4)
H11_6 H 0.5963 0.2815 0.0148
C20_6 C 0.63720(18) 0.38654(11) 0.0449(3)
H12_6 H 0.6067 0.3995 0.0627
N2_6 N 0.67889(10) 0.09425(7) 0.01647(15)
C31_6 C 0.67928(16) 0.17125(13) 0.0251(3)
C32_6 C 0.67952(17) 0.21164(11) 0.0289(3)
C35_6 C 0.63578(19) 0.14997(12) 0.0499(3)
H19_6 H 0.6048 0.1613 0.0707
C36_6 C 0.7270(2) 0.23037(11) 0.0404(3)
H20_6 H 0.7601 0.2177 0.0485
C37_6 C 0.6297(2) 0.23116(11) 0.0204(4)
H21_6 H 0.5963 0.2185 0.0148
C38_6 C 0.63720(18) 0.11346(11) 0.0449(3)
H22_6 H 0.6067 0.1005 0.0627
O13_4 O 0.74507(8) 0.53433(5) 0.05682(11)
O14_4 O 0.72902(8) 0.47711(6) 0.09372(11)
O3_4 O 0.74507(8) 0.46567(5) 0.94318(11)
O4_4 O 0.72902(8) 0.52289(6) 0.90628(11)
C1_6 C 0.89799(12) 0.49882(8) 0.59512(16)
C2_6 C 0.94969(12) 0.49607(8) 0.64221(17)
C3_8 C 1.0000 0.50108(11) 0.6074(3)
H1_8 H 1.0000 0.5082 0.5581
C4_6 C 0.94918(12) 0.48630(9) 0.71696(17)
C5_8 C 1.0000 0.48186(12) 0.7521(2)
H2_8 H 1.0000 0.4756 0.8018
C6_6 C 0.75479(12) 0.49317(8) 0.90410(17)
C7_6 C 0.81291(12) 0.51681(10) 0.79990(18)
H3_6 H 0.7888 0.5367 0.7959
C8_6 C 0.89666(12) 0.48574(9) 0.76004(16)
C9_6 C 0.80259(13) 0.49014(9) 0.85129(18)
C10_6 C 0.85873(12) 0.51461(9) 0.75389(18)
H4_6 H 0.8643 0.5326 0.7183
C11_6 C 0.88600(13) 0.45910(9) 0.81155(18)
H5_6 H 0.9108 0.4396 0.8165
C12_6 C 0.83949(13) 0.46044(9) 0.85632(19)
H6_6 H 0.8327 0.4416 0.8898
C15_6 C 0.72236(16) 0.38532(12) 0.9935(2)
H7_6 H 0.7531 0.3974 0.9740
C16_6 C 0.72390(19) 0.34774(11) 0.9971(3)
H8_6 H 0.7552 0.3351 0.9806
C33_6 C 0.72236(16) 0.11468(12) 0.9935(2)
H17_6 H 0.7531 0.1026 0.9740
C34_6 C 0.72390(19) 0.15226(11) 0.9971(3)
H18_6 H 0.7552 0.1649 0.9806
N3_4 N 0.67889(10) 0.59425(7) 0.98353(15)
C3_9 C 0.0000 0.49892(11) 0.3926(3)
H1_9 H 0.0000 0.4918 0.4419
C5_9 C 0.0000 0.51814(12) 0.2479(2)
H2_9 H 0.0000 0.5244 0.1982
O5_7 O 0.11157(8) 0.47057(6) 0.43278(12)
O6_7 O 0.12861(8) 0.53043(6) 0.41584(11)
O7_7 O 0.25493(8) 0.53433(5) 0.05682(11)
O8_7 O 0.27098(8) 0.47711(6) 0.09372(11)
C21_7 C 0.10201(12) 0.50118(8) 0.40488(16)
C22_7 C 0.05031(12) 0.50393(8) 0.35779(17)
C23_7 C 0.05082(12) 0.51370(9) 0.28304(17)
C24_7 C 0.24521(12) 0.50683(8) 0.09590(17)
C25_7 C 0.18709(12) 0.48319(10) 0.20010(18)
H13_7 H 0.2112 0.4633 0.2041
C26_7 C 0.10334(12) 0.51426(9) 0.23996(16)
C27_7 C 0.19741(13) 0.50986(9) 0.14871(18)
C28_7 C 0.14127(12) 0.48539(9) 0.24611(18)
H14_7 H 0.1357 0.4674 0.2817
C29_7 C 0.11400(13) 0.54090(9) 0.18845(18)
H15_7 H 0.0892 0.5604 0.1835
C30_7 C 0.16051(13) 0.53956(9) 0.14368(19)
H16_7 H 0.1673 0.5584 0.1102
C1_7 C 0.89799(12) 0.50118(8) 0.40488(16)
C2_7 C 0.94969(12) 0.50393(8) 0.35779(17)
C3_10 C 1.0000 0.49892(11) 0.3926(3)
H1_10 H 1.0000 0.4918 0.4419
C4_7 C 0.94918(12) 0.51370(9) 0.28304(17)
C5_10 C 1.0000 0.51814(12) 0.2479(2)
H2_10 H 1.0000 0.5244 0.1982
C6_7 C 0.75479(12) 0.50683(8) 0.09590(17)
C7_7 C 0.81291(12) 0.48319(10) 0.20010(18)
H3_7 H 0.7888 0.4633 0.2041
C8_7 C 0.89666(12) 0.51426(9) 0.23996(16)
C9_7 C 0.80259(13) 0.50986(9) 0.14871(18)
C10_7 C 0.85873(12) 0.48539(9) 0.24611(18)
H4_7 H 0.8643 0.4674 0.2817
C11_7 C 0.88600(13) 0.54090(9) 0.18845(18)
H5_7 H 0.9108 0.5604 0.1835
C12_7 C 0.83949(13) 0.53956(9) 0.14368(19)
H6_7 H 0.8327 0.5584 0.1102
C15_7 C 0.72236(16) 0.61468(12) 0.0065(2)
H7_7 H 0.7531 0.6026 0.0260
C16_7 C 0.72390(19) 0.65226(11) 0.0029(3)
H8_7 H 0.7552 0.6649 0.0194
C33_7 C 0.72236(16) 0.88532(12) 0.0065(2)
H17_7 H 0.7531 0.8974 0.0260
C34_7 C 0.72390(19) 0.84774(11) 0.0029(3)
H18_7 H 0.7552 0.8351 0.0194
C13_7 C 0.67928(16) 0.67125(13) 0.9749(3)
C14_7 C 0.67952(17) 0.71164(11) 0.9711(3)
C17_7 C 0.63578(19) 0.64997(12) 0.9501(3)
H9_7 H 0.6048 0.6613 0.9293
C18_7 C 0.7270(2) 0.73037(11) 0.9596(3)
H10_7 H 0.7601 0.7177 0.9515
C19_7 C 0.6297(2) 0.73116(11) 0.9796(4)
H11_7 H 0.5963 0.7185 0.9852
C20_7 C 0.63720(18) 0.61346(11) 0.9551(3)
H12_7 H 0.6067 0.6005 0.9373
N2_7 N 0.67889(10) 0.90575(7) 0.98353(15)
C31_7 C 0.67928(16) 0.82875(13) 0.9749(3)
C32_7 C 0.67952(17) 0.78836(11) 0.9711(3)
C35_7 C 0.63578(19) 0.85003(12) 0.9501(3)
H19_7 H 0.6048 0.8387 0.9293
C36_7 C 0.7270(2) 0.76963(11) 0.9596(3)
H20_7 H 0.7601 0.7823 0.9515
C37_7 C 0.6297(2) 0.76884(11) 0.9796(4)
H21_7 H 0.5963 0.7815 0.9852
C38_7 C 0.63720(18) 0.88654(11) 0.9551(3)
H22_7 H 0.6067 0.8995 0.9373
C3_11 C -0.0000 0.00108(11) 0.3926(3)
H1_11 H -0.0000 0.0082 0.4419
C7_8 C 0.18709(12) 0.01681(10) 0.20010(18)
H3_8 H 0.2112 0.0367 0.2041
C10_8 C 0.14127(12) 0.01461(9) 0.24611(18)
H4_8 H 0.1357 0.0326 0.2817
C1_8 C 0.10201(12) 0.99882(8) 0.40488(16)
C2_8 C 0.05031(12) 0.99607(8) 0.35779(17)
C4_8 C 0.05082(12) 0.98630(9) 0.28304(17)
C5_11 C -0.0000 0.98186(12) 0.2479(2)
H2_11 H -0.0000 0.9756 0.1982
C6_8 C 0.24521(12) 0.99317(8) 0.09590(17)
C8_8 C 0.10334(12) 0.98574(9) 0.23996(16)
C9_8 C 0.19741(13) 0.99014(9) 0.14871(18)
C11_8 C 0.11400(13) 0.95910(9) 0.18845(18)
H5_8 H 0.0892 0.9396 0.1835
C12_8 C 0.16051(13) 0.96044(9) 0.14368(19)
H6_8 H 0.1673 0.9416 0.1102
C15_8 C 0.27764(16) 0.88532(12) 0.0065(2)
H7_8 H 0.2469 0.8974 0.0260
C16_8 C 0.27610(19) 0.84774(11) 0.0029(3)
H8_8 H 0.2448 0.8351 0.0194
C33_8 C 0.27764(16) 0.61468(12) 0.0065(2)
H17_8 H 0.2469 0.6026 0.0260
C34_8 C 0.27610(19) 0.65226(11) 0.0029(3)
H18_8 H 0.2448 0.6649 0.0194
C13_8 C 0.32072(16) 0.82875(13) 0.9749(3)
C14_8 C 0.32048(17) 0.78836(11) 0.9711(3)
C17_8 C 0.36422(19) 0.85003(12) 0.9501(3)
H9_8 H 0.3952 0.8387 0.9293
C18_8 C 0.2730(2) 0.76963(11) 0.9596(3)
H10_8 H 0.2399 0.7823 0.9515
C19_8 C 0.3703(2) 0.76884(11) 0.9796(4)
H11_8 H 0.4037 0.7815 0.9852
C20_8 C 0.36280(18) 0.88654(11) 0.9551(3)
H12_8 H 0.3933 0.8995 0.9373
N2_8 N 0.32111(10) 0.59425(7) 0.98353(15)
C31_8 C 0.32072(16) 0.67125(13) 0.9749(3)
C32_8 C 0.32048(17) 0.71164(11) 0.9711(3)
C35_8 C 0.36422(19) 0.64997(12) 0.9501(3)
H19_8 H 0.3952 0.6613 0.9293
C36_8 C 0.2730(2) 0.73037(11) 0.9596(3)
H20_8 H 0.2399 0.7177 0.9515
C37_8 C 0.3703(2) 0.73116(11) 0.9796(4)
H21_8 H 0.4037 0.7185 0.9852
C38_8 C 0.36280(18) 0.61346(11) 0.9551(3)
H22_8 H 0.3933 0.6005 0.9373
C3_12 C 1.0000 0.00108(11) 0.3926(3)
H1_12 H 1.0000 0.0082 0.4419
O5_8 O 0.88843(8) 0.02943(6) 0.43278(12)
O8_8 O 0.72902(8) 0.02289(6) 0.09372(11)
C25_8 C 0.81291(12) 0.01681(10) 0.20010(18)
H13_8 H 0.7888 0.0367 0.2041
C28_8 C 0.85873(12) 0.01461(9) 0.24611(18)
H14_8 H 0.8643 0.0326 0.2817
C5_12 C 1.0000 0.98186(12) 0.2479(2)
H2_12 H 1.0000 0.9756 0.1982
O6_8 O 0.87139(8) 0.96957(6) 0.41584(11)
O7_8 O 0.74507(8) 0.96567(5) 0.05682(11)
C21_8 C 0.89799(12) 0.99882(8) 0.40488(16)
C22_8 C 0.94969(12) 0.99607(8) 0.35779(17)
C23_8 C 0.94918(12) 0.98630(9) 0.28304(17)
C24_8 C 0.75479(12) 0.99317(8) 0.09590(17)
C26_8 C 0.89666(12) 0.98574(9) 0.23996(16)
C27_8 C 0.80259(13) 0.99014(9) 0.14871(18)
C29_8 C 0.88600(13) 0.95910(9) 0.18845(18)
H15_8 H 0.9108 0.9396 0.1835
C30_8 C 0.83949(13) 0.96044(9) 0.14368(19)
H16_8 H 0.8327 0.9416 0.1102
loop_
_geom_bond_atom_site_label_1
_geom_bond_atom_site_label_2
_geom_bond_site_symmetry_1
_geom_bond_site_symmetry_2
Cu1 O3 1_555 1_555
O1 C1 1_555 1_555
O2 C1 1_555 1_555
O3 C6 1_555 1_555
O4 C6 1_555 1_555
N1 Cu1 1_555 1_555
C1 C2 1_555 1_555
C2 C3 1_555 1_555
C3 H1 1_555 1_555
C4 C2 1_555 1_555
C5 C4 1_555 1_555
H2 C5 1_555 1_555
C6 C9 1_555 1_555
C7 H3 1_555 1_555
C8 C4 1_555 1_555
C9 C7 1_555 1_555
C10 C7 1_555 1_555
H4 C10 1_555 1_555
C11 C8 1_555 1_555
H5 C11 1_555 1_555
C12 C9 1_555 1_555
H6 C12 1_555 1_555
C13 C14 1_555 1_555
C14 C18 1_555 1_555
C15 N1 1_555 1_555
H7 C15 1_555 1_555
C16 C13 1_555 1_555
H8 C16 1_555 1_555
C17 C13 1_555 1_555
H9 C17 1_555 1_555
C18 H10 1_555 1_555
C19 C14 1_555 1_555
H11 C19 1_555 1_555
C20 N1 1_555 1_555
H12 C20 1_555 1_555
O5 C21 1_555 1_555
O6 C21 1_555 1_555
O7 C24 1_555 1_555
O8 C24 1_555 1_555
C21 C22 1_555 1_555
C22 C3 1_555 1_555
C23 C5 1_555 1_555
C24 C27 1_555 1_555
C25 H13 1_555 1_555
C26 C23 1_555 1_555
C27 C25 1_555 1_555
C28 C25 1_555 1_555
H14 C28 1_555 1_555
C29 C26 1_555 1_555
H15 C29 1_555 1_555
C30 C27 1_555 1_555
H16 C30 1_555 1_555
N2 C33 1_555 1_555
C31 C32 1_555 1_555
C32 C36 1_555 1_555
C33 H17 1_555 1_555
C34 C31 1_555 1_555
H18 C34 1_555 1_555
C35 C31 1_555 1_555
H19 C35 1_555 1_555
C36 C18 1_555 1_555
H20 C36 1_555 1_555
C37 C19 1_555 1_555
H21 C37 1_555 1_555
C38 N2 1_555 1_555
H22 C38 1_555 1_555
Cu2 O4 1_555 1_555
Cu3 O1 1_555 1_555
Cu5 O8 1_555 1_555
Cu6 N2 1_555 1_555
Cu7 O7 1_555 1_555
Cu9 O5 1_555 1_555
O9 Cu1 1_555 1_555
O10 Cu2 1_555 1_555
O11 Cu2 1_555 1_555
O12 Cu1 1_555 1_555
O13 Cu2 1_555 1_555
O14 Cu1 1_555 1_555
N3 Cu2 1_555 1_555
C8 C10 1_555 1_555
C11 C12 1_555 1_555
C15 C16 1_555 1_555
C17 C20 1_555 1_555
C22 C23 1_555 1_555
C26 C28 1_555 1_555
C29 C30 1_555 1_555
C32 C37 1_555 1_555
C33 C34 1_555 1_555
C35 C38 1_555 1_555
C3_2 H1_2 1_555 1_555
C7_2 H3_2 1_555 1_555
C10_2 C7_2 1_555 1_555
H4_2 C10_2 1_555 1_555
C25_2 H13_2 1_555 1_555
C28_2 C25_2 1_555 1_555
H14_2 C28_2 1_555 1_555
Cu2_2 O4_2 1_555 1_555
Cu3_2 O1_2 1_555 1_555
Cu5_2 O8_2 1_555 1_555
Cu9_2 O5_2 1_555 1_555
O10_2 Cu2_2 1_555 1_555
O11_2 Cu2_2 1_555 1_555
O13_2 Cu2_2 1_555 1_555
N3_2 Cu2_2 1_555 1_555
Cu1_2 O3_2 1_555 1_555
O2_2 C1_2 1_555 1_555
O3_2 C6_2 1_555 1_555
N1_2 Cu1_2 1_555 1_555
C1_2 C2_2 1_555 1_555
C4_2 C2_2 1_555 1_555
C5_2 C4_2 1_555 1_555
H2_2 C5_2 1_555 1_555
C6_2 C9_2 1_555 1_555
C8_2 C4_2 1_555 1_555
C11_2 C8_2 1_555 1_555
H5_2 C11_2 1_555 1_555
C12_2 C9_2 1_555 1_555
H6_2 C12_2 1_555 1_555
C13_2 C14_2 1_555 1_555
C14_2 C18_2 1_555 1_555
C15_2 N1_2 1_555 1_555
H7_2 C15_2 1_555 1_555
C16_2 C13_2 1_555 1_555
H8_2 C16_2 1_555 1_555
C17_2 C13_2 1_555 1_555
H9_2 C17_2 1_555 1_555
C18_2 H10_2 1_555 1_555
C19_2 C14_2 1_555 1_555
H11_2 C19_2 1_555 1_555
C20_2 N1_2 1_555 1_555
H12_2 C20_2 1_555 1_555
O6_2 C21_2 1_555 1_555
O7_2 C24_2 1_555 1_555
C21_2 C22_2 1_555 1_555
C23_2 C5_2 1_555 1_555
C24_2 C27_2 1_555 1_555
C26_2 C23_2 1_555 1_555
C29_2 C26_2 1_555 1_555
H15_2 C29_2 1_555 1_555
C30_2 C27_2 1_555 1_555
H16_2 C30_2 1_555 1_555
N2_2 C33_2 1_555 1_555
C31_2 C32_2 1_555 1_555
C32_2 C36_2 1_555 1_555
C33_2 H17_2 1_555 1_555
C34_2 C31_2 1_555 1_555
H18_2 C34_2 1_555 1_555
C35_2 C31_2 1_555 1_555
H19_2 C35_2 1_555 1_555
C36_2 C18_2 1_555 1_555
H20_2 C36_2 1_555 1_555
C37_2 C19_2 1_555 1_555
H21_2 C37_2 1_555 1_555
C38_2 N2_2 1_555 1_555
H22_2 C38_2 1_555 1_555
Cu7 N2_2 1_555 1_555
Cu6 O7_2 1_555 1_555
O9_2 Cu1_2 1_555 1_555
O12_2 Cu1_2 1_555 1_555
O14_2 Cu1_2 1_555 1_555
C11_2 C12_2 1_555 1_555
C15_2 C16_2 1_555 1_555
C17_2 C20_2 1_555 1_555
C22_2 C23_2 1_555 1_555
C29_2 C30_2 1_555 1_555
C32_2 C37_2 1_555 1_555
C33_2 C34_2 1_555 1_555
C35_2 C38_2 1_555 1_555
O2_3 C1_3 1_555 1_555
O13_2 C6_3 1_555 1_555
C1_3 C2_3 1_555 1_555
C4_3 C2_3 1_555 1_555
C5_3 C4_3 1_555 1_555
H2_3 C5_3 1_555 1_555
C6_3 C9_3 1_555 1_555
C8_3 C4_3 1_555 1_555
C11_3 C8_3 1_555 1_555
H5_3 C11_3 1_555 1_555
C12_3 C9_3 1_555 1_555
H6_3 C12_3 1_555 1_555
C13_3 C14_3 1_555 1_555
C14_3 C18_3 1_555 1_555
C15_3 N3_2 1_555 1_555
H7_3 C15_3 1_555 1_555
C16_3 C13_3 1_555 1_555
H8_3 C16_3 1_555 1_555
C17_3 C13_3 1_555 1_555
H9_3 C17_3 1_555 1_555
C18_3 H10_3 1_555 1_555
C19_3 C14_3 1_555 1_555
H11_3 C19_3 1_555 1_555
C20_3 N3_2 1_555 1_555
H12_3 C20_3 1_555 1_555
O6_3 C21_3 1_555 1_555
O7_3 C24_3 1_555 1_555
C21_3 C22_3 1_555 1_555
C23_3 C5_3 1_555 1_555
C24_3 C27_3 1_555 1_555
C26_3 C23_3 1_555 1_555
C29_3 C26_3 1_555 1_555
H15_3 C29_3 1_555 1_555
C30_3 C27_3 1_555 1_555
H16_3 C30_3 1_555 1_555
N2_3 C33_3 1_555 1_555
C31_3 C32_3 1_555 1_555
C32_3 C36_3 1_555 1_555
C33_3 H17_3 1_555 1_555
C34_3 C31_3 1_555 1_555
H18_3 C34_3 1_555 1_555
C35_3 C31_3 1_555 1_555
H19_3 C35_3 1_555 1_555
C36_3 C18_3 1_555 1_555
H20_3 C36_3 1_555 1_555
C37_3 C19_3 1_555 1_555
H21_3 C37_3 1_555 1_555
C38_3 N2_3 1_555 1_555
H22_3 C38_3 1_555 1_555
Cu5 N2_3 1_555 1_555
Cu5_2 O7_3 1_555 1_555
C11_3 C12_3 1_555 1_555
C15_3 C16_3 1_555 1_555
C17_3 C20_3 1_555 1_555
C22_3 C23_3 1_555 1_555
C29_3 C30_3 1_555 1_555
C32_3 C37_3 1_555 1_555
C33_3 C34_3 1_555 1_555
C35_3 C38_3 1_555 1_555
C3_3 H1_3 1_555 1_555
C7_3 H3_3 1_555 1_555
C10_3 C7_3 1_555 1_555
H4_3 C10_3 1_555 1_555
C25_3 H13_3 1_555 1_555
C28_3 C25_3 1_555 1_555
H14_3 C28_3 1_555 1_555
Cu4_2 O1_3 1_555 1_555
Cu6 O8_3 1_555 1_555
Cu8_2 O5_3 1_555 1_555
O1_4 C1_4 1_555 1_555
O2_4 C1_4 1_555 1_555
O13 C6_4 1_555 1_555
O14 C6_4 1_555 1_555
C1_4 C2_4 1_555 1_555
C2_4 C3_4 1_555 1_555
C3_4 H1_4 1_555 1_555
C4_4 C2_4 1_555 1_555
C5_4 C4_4 1_555 1_555
H2_4 C5_4 1_555 1_555
C6_4 C9_4 1_555 1_555
C7_4 H3_4 1_555 1_555
C8_4 C4_4 1_555 1_555
C9_4 C7_4 1_555 1_555
C10_4 C7_4 1_555 1_555
H4_4 C10_4 1_555 1_555
C11_4 C8_4 1_555 1_555
H5_4 C11_4 1_555 1_555
C12_4 C9_4 1_555 1_555
H6_4 C12_4 1_555 1_555
C13_4 C14_4 1_555 1_555
C14_4 C18_4 1_555 1_555
C15_4 N3 1_555 1_555
H7_4 C15_4 1_555 1_555
C16_4 C13_4 1_555 1_555
H8_4 C16_4 1_555 1_555
C17_4 C13_4 1_555 1_555
H9_4 C17_4 1_555 1_555
C18_4 H10_4 1_555 1_555
C19_4 C14_4 1_555 1_555
H11_4 C19_4 1_555 1_555
C20_4 N3 1_555 1_555
H12_4 C20_4 1_555 1_555
O5_4 C21_4 1_555 1_555
O6_4 C21_4 1_555 1_555
O7_4 C24_4 1_555 1_555
O8_4 C24_4 1_555 1_555
C21_4 C22_4 1_555 1_555
C22_4 C3_4 1_555 1_555
C23_4 C5_4 1_555 1_555
C24_4 C27_4 1_555 1_555
C25_4 H13_4 1_555 1_555
C26_4 C23_4 1_555 1_555
C27_4 C25_4 1_555 1_555
C28_4 C25_4 1_555 1_555
H14_4 C28_4 1_555 1_555
C29_4 C26_4 1_555 1_555
H15_4 C29_4 1_555 1_555
C30_4 C27_4 1_555 1_555
H16_4 C30_4 1_555 1_555
N2_4 C33_4 1_555 1_555
C31_4 C32_4 1_555 1_555
C32_4 C36_4 1_555 1_555
C33_4 H17_4 1_555 1_555
C34_4 C31_4 1_555 1_555
H18_4 C34_4 1_555 1_555
C35_4 C31_4 1_555 1_555
H19_4 C35_4 1_555 1_555
C36_4 C18_4 1_555 1_555
H20_4 C36_4 1_555 1_555
C37_4 C19_4 1_555 1_555
H21_4 C37_4 1_555 1_555
C38_4 N2_4 1_555 1_555
H22_4 C38_4 1_555 1_555
Cu4 O1_4 1_555 1_555
Cu7 O8_4 1_555 1_555
Cu5_2 N2_4 1_555 1_555
Cu5 O7_4 1_555 1_555
Cu8 O5_4 1_555 1_555
C8_4 C10_4 1_555 1_555
C11_4 C12_4 1_555 1_555
C15_4 C16_4 1_555 1_555
C17_4 C20_4 1_555 1_555
C22_4 C23_4 1_555 1_555
C26_4 C28_4 1_555 1_555
C29_4 C30_4 1_555 1_555
C32_4 C37_4 1_555 1_555
C33_4 C34_4 1_555 1_555
C35_4 C38_4 1_555 1_555
N1_3 Cu3_2 1_555 1_555
C13_5 C14_5 1_555 1_555
C14_5 C18_5 1_555 1_555
C17_5 C13_5 1_555 1_555
H9_5 C17_5 1_555 1_555
C18_5 H10_5 1_555 1_555
C19_5 C14_5 1_555 1_555
H11_5 C19_5 1_555 1_555
C20_5 N1_3 1_555 1_555
H12_5 C20_5 1_555 1_555
C31_5 C32_5 1_555 1_555
C32_5 C36_5 1_555 1_555
C35_5 C31_5 1_555 1_555
H19_5 C35_5 1_555 1_555
C36_5 C18_5 1_555 1_555
H20_5 C36_5 1_555 1_555
C37_5 C19_5 1_555 1_555
H21_5 C37_5 1_555 1_555
C38_5 N2_5 1_555 1_555
H22_5 C38_5 1_555 1_555
Cu9 N2_5 1_555 1_555
O14_3 Cu3_2 1_555 1_555
C17_5 C20_5 1_555 1_555
C32_5 C37_5 1_555 1_555
C35_5 C38_5 1_555 1_555
O11_2 C1_5 1_555 1_555
O3_3 C6_5 1_555 1_555
C1_5 C2_5 1_555 1_555
C4_5 C2_5 1_555 1_555
C5_5 C4_5 1_555 1_555
H2_5 C5_5 1_555 1_555
C6_5 C9_5 1_555 1_555
C8_5 C4_5 1_555 1_555
C11_5 C8_5 1_555 1_555
H5_5 C11_5 1_555 1_555
C12_5 C9_5 1_555 1_555
H6_5 C12_5 1_555 1_555
H7_5 C15_5 1_555 1_555
H8_5 C16_5 1_555 1_555
C33_5 H17_5 1_555 1_555
H18_5 C34_5 1_555 1_555
C11_5 C12_5 1_555 1_555
C15_5 C16_5 1_555 1_555
C33_5 C34_5 1_555 1_555
C3_5 H1_5 1_555 1_555
C7_5 H3_5 1_555 1_555
C10_5 C7_5 1_555 1_555
H4_5 C10_5 1_555 1_555
Cu4_2 O4_3 1_555 1_555
N3_3 Cu4_2 1_555 1_555
H2_6 C5_6 1_555 1_555
O6_5 C21_5 1_555 1_555
O7_5 C24_5 1_555 1_555
C21_5 C22_5 1_555 1_555
C23_5 C5_6 1_555 1_555
C24_5 C27_5 1_555 1_555
C26_5 C23_5 1_555 1_555
C29_5 C26_5 1_555 1_555
H15_5 C29_5 1_555 1_555
C30_5 C27_5 1_555 1_555
H16_5 C30_5 1_555 1_555
Cu5_2 O6_5 1_555 1_555
C22_5 C23_5 1_555 1_555
C29_5 C30_5 1_555 1_555
C3_6 H1_6 1_555 1_555
C25_5 H13_5 1_555 1_555
C28_5 C25_5 1_555 1_555
H14_5 C28_5 1_555 1_555
Cu8_2 O8_5 1_555 1_555
Cu6 O5_5 1_555 1_555
C3_7 H1_7 1_555 1_555
H2_7 C5_7 1_555 1_555
O5_6 C21_6 1_555 1_555
O6_6 C21_6 1_555 1_555
O7_6 C24_6 1_555 1_555
O8_6 C24_6 1_555 1_555
C21_6 C22_6 1_555 1_555
C22_6 C3_7 1_555 1_555
C23_6 C5_7 1_555 1_555
C24_6 C27_6 1_555 1_555
C25_6 H13_6 1_555 1_555
C26_6 C23_6 1_555 1_555
C27_6 C25_6 1_555 1_555
C28_6 C25_6 1_555 1_555
H14_6 C28_6 1_555 1_555
C29_6 C26_6 1_555 1_555
H15_6 C29_6 1_555 1_555
C30_6 C27_6 1_555 1_555
H16_6 C30_6 1_555 1_555
Cu8 O8_6 1_555 1_555
Cu5 O6_6 1_555 1_555
Cu7 O5_6 1_555 1_555
C22_6 C23_6 1_555 1_555
C26_6 C28_6 1_555 1_555
C29_6 C30_6 1_555 1_555
N1_4 Cu3 1_555 1_555
C13_6 C14_6 1_555 1_555
C14_6 C18_6 1_555 1_555
C17_6 C13_6 1_555 1_555
H9_6 C17_6 1_555 1_555
C18_6 H10_6 1_555 1_555
C19_6 C14_6 1_555 1_555
H11_6 C19_6 1_555 1_555
C20_6 N1_4 1_555 1_555
H12_6 C20_6 1_555 1_555
C31_6 C32_6 1_555 1_555
C32_6 C36_6 1_555 1_555
C35_6 C31_6 1_555 1_555
H19_6 C35_6 1_555 1_555
C36_6 C18_6 1_555 1_555
H20_6 C36_6 1_555 1_555
C37_6 C19_6 1_555 1_555
H21_6 C37_6 1_555 1_555
C38_6 N2_6 1_555 1_555
H22_6 C38_6 1_555 1_555
Cu9_2 N2_6 1_555 1_555
O14_4 Cu3 1_555 1_555
C17_6 C20_6 1_555 1_555
C32_6 C37_6 1_555 1_555
C35_6 C38_6 1_555 1_555
O9 C1_6 1_555 1_555
O11 C1_6 1_555 1_555
O3_4 C6_6 1_555 1_555
O4_4 C6_6 1_555 1_555
C1_6 C2_6 1_555 1_555
C2_6 C3_8 1_555 1_555
C3_8 H1_8 1_555 1_555
C4_6 C2_6 1_555 1_555
C5_8 C4_6 1_555 1_555
H2_8 C5_8 1_555 1_555
C6_6 C9_6 1_555 1_555
C7_6 H3_6 1_555 1_555
C8_6 C4_6 1_555 1_555
C9_6 C7_6 1_555 1_555
C10_6 C7_6 1_555 1_555
H4_6 C10_6 1_555 1_555
C11_6 C8_6 1_555 1_555
H5_6 C11_6 1_555 1_555
C12_6 C9_6 1_555 1_555
H6_6 C12_6 1_555 1_555
H7_6 C15_6 1_555 1_555
H8_6 C16_6 1_555 1_555
C33_6 H17_6 1_555 1_555
H18_6 C34_6 1_555 1_555
Cu4 O4_4 1_555 1_555
N3_4 Cu4 1_555 1_555
C8_6 C10_6 1_555 1_555
C11_6 C12_6 1_555 1_555
C15_6 C16_6 1_555 1_555
C33_6 C34_6 1_555 1_555
C3_9 H1_9 1_555 1_555
H2_9 C5_9 1_555 1_555
O5_7 C21_7 1_555 1_555
O6_7 C21_7 1_555 1_555
O7_7 C24_7 1_555 1_555
O8_7 C24_7 1_555 1_555
C21_7 C22_7 1_555 1_555
C22_7 C3_9 1_555 1_555
C23_7 C5_9 1_555 1_555
C24_7 C27_7 1_555 1_555
C25_7 H13_7 1_555 1_555
C26_7 C23_7 1_555 1_555
C27_7 C25_7 1_555 1_555
C28_7 C25_7 1_555 1_555
H14_7 C28_7 1_555 1_555
C29_7 C26_7 1_555 1_555
H15_7 C29_7 1_555 1_555
C30_7 C27_7 1_555 1_555
H16_7 C30_7 1_555 1_555
Cu9 O8_7 1_555 1_555
Cu7 O6_7 1_555 1_555
Cu5 O5_7 1_555 1_555
C22_7 C23_7 1_555 1_555
C26_7 C28_7 1_555 1_555
C29_7 C30_7 1_555 1_555
O10 C1_7 1_555 1_555
O12 C1_7 1_555 1_555
O13_4 C6_7 1_555 1_555
O14_4 C6_7 1_555 1_555
C1_7 C2_7 1_555 1_555
C2_7 C3_10 1_555 1_555
C3_10 H1_10 1_555 1_555
C4_7 C2_7 1_555 1_555
C5_10 C4_7 1_555 1_555
H2_10 C5_10 1_555 1_555
C6_7 C9_7 1_555 1_555
C7_7 H3_7 1_555 1_555
C8_7 C4_7 1_555 1_555
C9_7 C7_7 1_555 1_555
C10_7 C7_7 1_555 1_555
H4_7 C10_7 1_555 1_555
C11_7 C8_7 1_555 1_555
H5_7 C11_7 1_555 1_555
C12_7 C9_7 1_555 1_555
H6_7 C12_7 1_555 1_555
H7_7 C15_7 1_555 1_555
H8_7 C16_7 1_555 1_555
C33_7 H17_7 1_555 1_555
H18_7 C34_7 1_555 1_555
C8_7 C10_7 1_555 1_555
C11_7 C12_7 1_555 1_555
C15_7 C16_7 1_555 1_555
C33_7 C34_7 1_555 1_555
C13_7 C14_7 1_555 1_555
C14_7 C18_7 1_555 1_555
C17_7 C13_7 1_555 1_555
H9_7 C17_7 1_555 1_555
C18_7 H10_7 1_555 1_555
C19_7 C14_7 1_555 1_555
H11_7 C19_7 1_555 1_555
C20_7 N3_4 1_555 1_555
H12_7 C20_7 1_555 1_555
C31_7 C32_7 1_555 1_555
C32_7 C36_7 1_555 1_555
C35_7 C31_7 1_555 1_555
H19_7 C35_7 1_555 1_555
C36_7 C18_7 1_555 1_555
H20_7 C36_7 1_555 1_555
C37_7 C19_7 1_555 1_555
H21_7 C37_7 1_555 1_555
C38_7 N2_7 1_555 1_555
H22_7 C38_7 1_555 1_555
Cu8_2 N2_7 1_555 1_555
C17_7 C20_7 1_555 1_555
C32_7 C37_7 1_555 1_555
C35_7 C38_7 1_555 1_555
C3_11 H1_11 1_555 1_555
C7_8 H3_8 1_555 1_555
C10_8 C7_8 1_555 1_555
H4_8 C10_8 1_555 1_555
O12_2 C1_8 1_555 1_555
O13_3 C6_8 1_555 1_555
C1_8 C2_8 1_555 1_555
C4_8 C2_8 1_555 1_555
C5_11 C4_8 1_555 1_555
H2_11 C5_11 1_555 1_555
C6_8 C9_8 1_555 1_555
C8_8 C4_8 1_555 1_555
C11_8 C8_8 1_555 1_555
H5_8 C11_8 1_555 1_555
C12_8 C9_8 1_555 1_555
H6_8 C12_8 1_555 1_555
H7_8 C15_8 1_555 1_555
H8_8 C16_8 1_555 1_555
C33_8 H17_8 1_555 1_555
H18_8 C34_8 1_555 1_555
C11_8 C12_8 1_555 1_555
C15_8 C16_8 1_555 1_555
C33_8 C34_8 1_555 1_555
C13_8 C14_8 1_555 1_555
C14_8 C18_8 1_555 1_555
C17_8 C13_8 1_555 1_555
H9_8 C17_8 1_555 1_555
C18_8 H10_8 1_555 1_555
C19_8 C14_8 1_555 1_555
H11_8 C19_8 1_555 1_555
C20_8 N3_3 1_555 1_555
H12_8 C20_8 1_555 1_555
C31_8 C32_8 1_555 1_555
C32_8 C36_8 1_555 1_555
C35_8 C31_8 1_555 1_555
H19_8 C35_8 1_555 1_555
C36_8 C18_8 1_555 1_555
H20_8 C36_8 1_555 1_555
C37_8 C19_8 1_555 1_555
H21_8 C37_8 1_555 1_555
C38_8 N2_8 1_555 1_555
H22_8 C38_8 1_555 1_555
Cu8 N2_8 1_555 1_555
C17_8 C20_8 1_555 1_555
C32_8 C37_8 1_555 1_555
C35_8 C38_8 1_555 1_555
C3_12 H1_12 1_555 1_555
C25_8 H13_8 1_555 1_555
C28_8 C25_8 1_555 1_555
H14_8 C28_8 1_555 1_555
Cu9_2 O8_8 1_555 1_555
Cu5_2 O5_8 1_555 1_555
H2_12 C5_12 1_555 1_555
O6_8 C21_8 1_555 1_555
O7_8 C24_8 1_555 1_555
C21_8 C22_8 1_555 1_555
C23_8 C5_12 1_555 1_555
C24_8 C27_8 1_555 1_555
C26_8 C23_8 1_555 1_555
C29_8 C26_8 1_555 1_555
H15_8 C29_8 1_555 1_555
C30_8 C27_8 1_555 1_555
H16_8 C30_8 1_555 1_555
Cu6 O6_8 1_555 1_555
C22_8 C23_8 1_555 1_555
C29_8 C30_8 1_555 1_555

#END
