
###############################################################################
#
# This file contains modified crystal structure data generated from the
# MOF subset of the Cambridge Structural Database (CSD) v543 
# hosted by the Cambridge Crystallographic Data Centre (CCDC).
#
# This work is licensed under the Creative Commons
# Attribution-NonCommercial-ShareAlike 4.0 International License.
# To view a copy of this license, visit
# http://creativecommons.org/licenses/by-nc-sa/4.0/
# or send a letter to
# Creative Commons, PO Box 1866, Mountain View, CA 94042, USA.
#
# CIF created using the CSD Python API on 29 September 2022
# The structure has been converted into the P1 space group
# The structure has a 3D framework
# The original CSD entry KUTNEU is in the orthorhombic crystal system
# The framework has been calculated to contain at least 10.0% void space
# The void calculation uses a probe of radius 1.32A, grid spacing 0.4
# H atom positions have been added when not included in the experimental data
#
###############################################################################

data_KUTNEU
_chemical_formula_moiety         '(C280 H184 Cu8 N48 O50)n'
_symmetry_cell_setting           triclinic
_symmetry_space_group_name_H-M   'P 1'
_symmetry_Int_Tables_number      1
_space_group_name_Hall           'P 1'
loop_
_symmetry_equiv_pos_site_id
_symmetry_equiv_pos_as_xyz
1 x,y,z
_cell_length_a                   24.196(3)
_cell_length_b                   34.187(4)
_cell_length_c                   17.8563(18)
_cell_angle_alpha                90
_cell_angle_beta                 90
_cell_angle_gamma                90
_cell_volume                     14770.5
loop_
_atom_site_label
_atom_site_type_symbol
_atom_site_fract_x
_atom_site_fract_y
_atom_site_fract_z
Cu4 Cu 0.17687(2) 0.04004(2) 0.01277(3)
Cu1 Cu 0.32313(2) 0.04004(2) 0.48723(3)
O1 O 0.25796(12) 0.03949(11) 0.55334(17)
O2 O 0.12660(12) 0.04028(10) 0.92037(17)
C1 C 0.05005(17) 0.01324(14) 0.8556(2)
C2 C 0.19840(19) 0.01412(15) 0.6453(2)
N1 N 0.32897(15) 0.09822(12) 0.4606(2)
C3 C 0.10121(17) 0.01014(14) 0.9036(2)
C4 C 0.24736(18) 0.01115(16) 0.5942(2)
C5 C 0.0000 0.0230(3) 0.7411(4)
H1 H 0.0000 0.0270 0.6896
C6 C 0.0000 0.0107(2) 0.8919(3)
H2 H 0.0000 0.0071 0.9435
C7 C 0.1607(2) 0.04635(17) 0.6368(3)
H3 H 0.1683 0.0658 0.6020
C8 C 0.1137(2) 0.04873(19) 0.6795(3)
H4 H 0.0888 0.0692 0.6726
C11 C 0.05136(16) 0.02011(17) 0.7783(2)
C12 C 0.10351(18) 0.01981(16) 0.7337(2)
C13 C 0.3444(4) 0.1786(2) 0.4234(4)
N2 N 0.3080(5) 0.2500 0.5075(6)
N3 N 0.3356(5) 0.2500 0.4456(5)
N4 N 0.3702(7) 0.2293(2) 0.3397(6)
C14 C 0.3481(4) 0.2182(2) 0.4083(5)
C15 C 0.3423(4) 0.1288(3) 0.5106(6)
H7 H 0.3432 0.1224 0.5612
C16 C 0.3539(5) 0.1669(3) 0.4920(6)
H8 H 0.3683 0.1841 0.5275
C17 C 0.3306(6) 0.1113(3) 0.3903(5)
H9 H 0.3255 0.0934 0.3517
C18 C 0.3394(7) 0.1502(2) 0.3715(6)
H10 H 0.3419 0.1569 0.3212
N5 N 0.32897(15) 0.40178(12) 0.4606(2)
C29 C 0.3444(4) 0.3214(2) 0.4234(4)
N6 N 0.3702(7) 0.2707(2) 0.3397(6)
C30 C 0.3481(4) 0.2818(2) 0.4083(5)
C31 C 0.3423(4) 0.3712(3) 0.5106(6)
H15 H 0.3432 0.3776 0.5612
C32 C 0.3539(5) 0.3331(3) 0.4920(6)
H16 H 0.3683 0.3159 0.5275
C33 C 0.3306(6) 0.3887(3) 0.3903(5)
H17 H 0.3255 0.4066 0.3517
C34 C 0.3394(7) 0.3498(2) 0.3715(6)
H18 H 0.3419 0.3431 0.3212
Cu7 Cu 0.32313(2) 0.45996(2) 0.48723(3)
O11 O 0.37340(12) 0.04028(10) 0.57963(17)
O12 O 0.38893(11) 0.02471(10) 0.42761(16)
O14 O 0.27234(13) 0.02144(12) 0.40380(17)
H19 H 0.328667 0.234145 0.546557
H20 H 0.303425 0.277905 0.525892
O3 O 0.11107(11) 0.97529(10) 0.92761(16)
O4 O 0.27234(13) 0.97856(12) 0.59620(17)
C9 C 0.18732(19) 0.98718(18) 0.7005(3)
H5 H 0.2115 0.9664 0.7083
C10 C 0.1413(2) 0.99051(18) 0.7439(3)
H6 H 0.1354 0.9723 0.7818
Cu2 Cu 0.32313(2) 0.95996(2) 0.51277(3)
Cu3 Cu 0.17687(2) 0.95996(2) 0.98723(3)
O9 O 0.25796(12) 0.96051(11) 0.44666(17)
O10 O 0.37340(12) 0.95972(10) 0.42037(17)
O13 O 0.38893(11) 0.97529(10) 0.57239(16)
N7 N 0.32897(15) 0.90178(12) 0.5394(2)
Cu8 Cu 0.82313(2) 0.04004(2) 0.01277(3)
C5_2 C 1.0000 0.0230(3) 0.7411(4)
H1_2 H 1.0000 0.0270 0.6896
C6_2 C 1.0000 0.0107(2) 0.8919(3)
H2_2 H 1.0000 0.0071 0.9435
O5 O 0.74204(12) 0.03949(11) 0.55334(17)
O6 O 0.87340(12) 0.04028(10) 0.92037(17)
C19 C 0.94995(17) 0.01324(14) 0.8556(2)
C20 C 0.80160(19) 0.01412(15) 0.6453(2)
C21 C 0.89879(17) 0.01014(14) 0.9036(2)
C22 C 0.75264(18) 0.01115(16) 0.5942(2)
C23 C 0.8393(2) 0.04635(17) 0.6368(3)
H11 H 0.8317 0.0658 0.6020
C24 C 0.8863(2) 0.04873(19) 0.6795(3)
H12 H 0.9112 0.0692 0.6726
C27 C 0.94864(16) 0.02011(17) 0.7783(2)
C28 C 0.89649(18) 0.01981(16) 0.7337(2)
Cu6 Cu 0.67687(2) 0.04004(2) 0.48723(3)
O7 O 0.88893(11) 0.97529(10) 0.92761(16)
O8 O 0.72766(13) 0.97856(12) 0.59620(17)
C25 C 0.81268(19) 0.98718(18) 0.7005(3)
H13 H 0.7885 0.9664 0.7083
C26 C 0.8587(2) 0.99051(18) 0.7439(3)
H14 H 0.8646 0.9723 0.7818
Cu5 Cu 0.67687(2) 0.95996(2) 0.51277(3)
Cu9 Cu 0.82313(2) 0.95996(2) 0.98723(3)
Cu8_2 Cu 0.17687(2) 0.45996(2) 0.01277(3)
C5_3 C 0.0000 0.4770(3) 0.7411(4)
H1_3 H 0.0000 0.4730 0.6896
C6_3 C -0.0000 0.4893(2) 0.8919(3)
H2_3 H 0.0000 0.4929 0.9435
O5_2 O 0.25796(12) 0.46051(11) 0.55334(17)
O6_2 O 0.12660(12) 0.45972(10) 0.92037(17)
O7_2 O 0.11107(11) 0.52471(10) 0.92761(16)
C19_2 C 0.05005(17) 0.48676(14) 0.8556(2)
O8_2 O 0.27234(13) 0.52144(12) 0.59620(17)
C20_2 C 0.19840(19) 0.48588(15) 0.6453(2)
C21_2 C 0.10121(17) 0.48986(14) 0.9036(2)
C22_2 C 0.24736(18) 0.48885(16) 0.5942(2)
C23_2 C 0.1607(2) 0.45365(17) 0.6368(3)
H11_2 H 0.1683 0.4342 0.6020
C24_2 C 0.1137(2) 0.45127(19) 0.6795(3)
H12_2 H 0.0888 0.4308 0.6726
C25_2 C 0.18732(19) 0.51282(18) 0.7005(3)
H13_2 H 0.2115 0.5336 0.7083
C26_2 C 0.1413(2) 0.50949(18) 0.7439(3)
H14_2 H 0.1354 0.5277 0.7818
C27_2 C 0.05136(16) 0.47989(17) 0.7783(2)
C28_2 C 0.10351(18) 0.48019(16) 0.7337(2)
Cu5_2 Cu 0.32313(2) 0.54004(2) 0.51277(3)
Cu9_2 Cu 0.17687(2) 0.54004(2) 0.98723(3)
Cu4_2 Cu 0.82313(2) 0.45996(2) 0.01277(3)
Cu1_2 Cu 0.67687(2) 0.45996(2) 0.48723(3)
O1_2 O 0.74204(12) 0.46051(11) 0.55334(17)
O2_2 O 0.87340(12) 0.45972(10) 0.92037(17)
O3_2 O 0.88893(11) 0.52471(10) 0.92761(16)
C1_2 C 0.94995(17) 0.48676(14) 0.8556(2)
O4_2 O 0.72766(13) 0.52144(12) 0.59620(17)
C2_2 C 0.80160(19) 0.48588(15) 0.6453(2)
N1_2 N 0.67103(15) 0.40178(12) 0.4606(2)
C3_2 C 0.89879(17) 0.48986(14) 0.9036(2)
C4_2 C 0.75264(18) 0.48885(16) 0.5942(2)
C5_4 C 1.0000 0.4770(3) 0.7411(4)
H1_4 H 1.0000 0.4730 0.6896
C6_4 C 1.0000 0.4893(2) 0.8919(3)
H2_4 H 1.0000 0.4929 0.9435
C7_2 C 0.8393(2) 0.45365(17) 0.6368(3)
H3_2 H 0.8317 0.4342 0.6020
C8_2 C 0.8863(2) 0.45127(19) 0.6795(3)
H4_2 H 0.9112 0.4308 0.6726
C9_2 C 0.81268(19) 0.51282(18) 0.7005(3)
H5_2 H 0.7885 0.5336 0.7083
C10_2 C 0.8587(2) 0.50949(18) 0.7439(3)
H6_2 H 0.8646 0.5277 0.7818
C11_2 C 0.94864(16) 0.47989(17) 0.7783(2)
C12_2 C 0.89649(18) 0.48019(16) 0.7337(2)
C13_2 C 0.6556(4) 0.3214(2) 0.4234(4)
N2_2 N 0.6920(5) 0.2500 0.5075(6)
N3_2 N 0.6644(5) 0.2500 0.4456(5)
N4_2 N 0.6298(7) 0.2707(2) 0.3397(6)
C14_2 C 0.6519(4) 0.2818(2) 0.4083(5)
C15_2 C 0.6577(4) 0.3712(3) 0.5106(6)
H7_2 H 0.6568 0.3776 0.5612
C16_2 C 0.6461(5) 0.3331(3) 0.4920(6)
H8_2 H 0.6317 0.3159 0.5275
C17_2 C 0.6694(6) 0.3887(3) 0.3903(5)
H9_2 H 0.6745 0.4066 0.3517
C18_2 C 0.6606(7) 0.3498(2) 0.3715(6)
H10_2 H 0.6581 0.3431 0.3212
N5_2 N 0.67103(15) 0.09822(12) 0.4606(2)
C29_2 C 0.6556(4) 0.1786(2) 0.4234(4)
N6_2 N 0.6298(7) 0.2293(2) 0.3397(6)
C30_2 C 0.6519(4) 0.2182(2) 0.4083(5)
C31_2 C 0.6577(4) 0.1288(3) 0.5106(6)
H15_2 H 0.6568 0.1224 0.5612
C32_2 C 0.6461(5) 0.1669(3) 0.4920(6)
H16_2 H 0.6317 0.1841 0.5275
C33_2 C 0.6694(6) 0.1113(3) 0.3903(5)
H17_2 H 0.6745 0.0934 0.3517
C34_2 C 0.6606(7) 0.1502(2) 0.3715(6)
H18_2 H 0.6581 0.1569 0.3212
Cu2_2 Cu 0.67687(2) 0.54004(2) 0.51277(3)
Cu3_2 Cu 0.82313(2) 0.54004(2) 0.98723(3)
O9_2 O 0.74204(12) 0.53949(11) 0.44666(17)
O10_2 O 0.62660(12) 0.54028(10) 0.42037(17)
O11_2 O 0.62660(12) 0.45972(10) 0.57963(17)
O12_2 O 0.61107(11) 0.47529(10) 0.42761(16)
O13_2 O 0.61107(11) 0.52471(10) 0.57239(16)
O14_2 O 0.72766(13) 0.47856(12) 0.40380(17)
N7_2 N 0.67103(15) 0.59822(12) 0.5394(2)
H19_2 H 0.671333 0.265855 0.546557
H20_2 H 0.696575 0.222095 0.525892
O3_3 O 0.11107(11) 0.02471(10) 0.07239(16)
C9_3 C 0.18732(19) 0.01282(18) 0.2995(3)
H5_3 H 0.2115 0.0336 0.2917
C10_3 C 0.1413(2) 0.00949(18) 0.2561(3)
H6_3 H 0.1354 0.0277 0.2182
O2_3 O 0.12660(12) 0.95972(10) 0.07963(17)
C1_3 C 0.05005(17) 0.98676(14) 0.1444(2)
C2_3 C 0.19840(19) 0.98588(15) 0.3547(2)
C3_3 C 0.10121(17) 0.98986(14) 0.0964(2)
C4_3 C 0.24736(18) 0.98885(16) 0.4058(2)
C5_5 C -0.0000 0.9770(3) 0.2589(4)
H1_5 H -0.0000 0.9730 0.3104
C6_5 C -0.0000 0.9893(2) 0.1081(3)
H2_5 H 0.0000 0.9929 0.0565
C7_3 C 0.1607(2) 0.95365(17) 0.3632(3)
H3_3 H 0.1683 0.9342 0.3980
C8_3 C 0.1137(2) 0.95127(19) 0.3205(3)
H4_3 H 0.0888 0.9308 0.3274
C11_3 C 0.05136(16) 0.97989(17) 0.2217(2)
C12_3 C 0.10351(18) 0.98019(16) 0.2663(2)
C13_3 C 0.3444(4) 0.8214(2) 0.5766(4)
N2_3 N 0.3080(5) 0.7500 0.4925(6)
N3_3 N 0.3356(5) 0.7500 0.5544(5)
N4_3 N 0.3702(7) 0.7707(2) 0.6603(6)
C14_3 C 0.3481(4) 0.7818(2) 0.5917(5)
C15_3 C 0.3423(4) 0.8712(3) 0.4894(6)
H7_3 H 0.3432 0.8776 0.4388
C16_3 C 0.3539(5) 0.8331(3) 0.5080(6)
H8_3 H 0.3683 0.8159 0.4725
C17_3 C 0.3306(6) 0.8887(3) 0.6097(5)
H9_3 H 0.3255 0.9066 0.6483
C18_3 C 0.3394(7) 0.8498(2) 0.6285(6)
H10_3 H 0.3419 0.8431 0.6788
N5_3 N 0.32897(15) 0.59822(12) 0.5394(2)
C29_3 C 0.3444(4) 0.6786(2) 0.5766(4)
N6_3 N 0.3702(7) 0.7293(2) 0.6603(6)
C30_3 C 0.3481(4) 0.7182(2) 0.5917(5)
C31_3 C 0.3423(4) 0.6288(3) 0.4894(6)
H15_3 H 0.3432 0.6224 0.4388
C32_3 C 0.3539(5) 0.6669(3) 0.5080(6)
H16_3 H 0.3683 0.6841 0.4725
C33_3 C 0.3306(6) 0.6113(3) 0.6097(5)
H17_3 H 0.3255 0.5934 0.6483
C34_3 C 0.3394(7) 0.6502(2) 0.6285(6)
H18_3 H 0.3419 0.6569 0.6788
H19_3 H 0.328667 0.765855 0.453443
H20_3 H 0.303425 0.722095 0.474108
O7_3 O 0.88893(11) 0.02471(10) 0.07239(16)
O8_3 O 0.72766(13) 0.02144(12) 0.40380(17)
C25_3 C 0.81268(19) 0.01282(18) 0.2995(3)
H13_3 H 0.7885 0.0336 0.2917
C26_3 C 0.8587(2) 0.00949(18) 0.2561(3)
H14_3 H 0.8646 0.0277 0.2182
C5_6 C 1.0000 0.9770(3) 0.2589(4)
H1_6 H 1.0000 0.9730 0.3104
C6_6 C 1.0000 0.9893(2) 0.1081(3)
H2_6 H 1.0000 0.9929 0.0565
O5_3 O 0.74204(12) 0.96051(11) 0.44666(17)
O6_3 O 0.87340(12) 0.95972(10) 0.07963(17)
C19_3 C 0.94995(17) 0.98676(14) 0.1444(2)
C20_3 C 0.80160(19) 0.98588(15) 0.3547(2)
C21_3 C 0.89879(17) 0.98986(14) 0.0964(2)
C22_3 C 0.75264(18) 0.98885(16) 0.4058(2)
C23_3 C 0.8393(2) 0.95365(17) 0.3632(3)
H11_3 H 0.8317 0.9342 0.3980
C24_3 C 0.8863(2) 0.95127(19) 0.3205(3)
H12_3 H 0.9112 0.9308 0.3274
C27_3 C 0.94864(16) 0.97989(17) 0.2217(2)
C28_3 C 0.89649(18) 0.98019(16) 0.2663(2)
C5_7 C -0.0000 0.5230(3) 0.2589(4)
H1_7 H -0.0000 0.5270 0.3104
C6_7 C -0.0000 0.5107(2) 0.1081(3)
H2_7 H -0.0000 0.5071 0.0565
O5_4 O 0.25796(12) 0.53949(11) 0.44666(17)
O6_4 O 0.12660(12) 0.54028(10) 0.07963(17)
O7_4 O 0.11107(11) 0.47529(10) 0.07239(16)
C19_4 C 0.05005(17) 0.51324(14) 0.1444(2)
O8_4 O 0.27234(13) 0.47856(12) 0.40380(17)
C20_4 C 0.19840(19) 0.51412(15) 0.3547(2)
C21_4 C 0.10121(17) 0.51014(14) 0.0964(2)
C22_4 C 0.24736(18) 0.51115(16) 0.4058(2)
C23_4 C 0.1607(2) 0.54635(17) 0.3632(3)
H11_4 H 0.1683 0.5658 0.3980
C24_4 C 0.1137(2) 0.54873(19) 0.3205(3)
H12_4 H 0.0888 0.5692 0.3274
C25_4 C 0.18732(19) 0.48718(18) 0.2995(3)
H13_4 H 0.2115 0.4664 0.2917
C26_4 C 0.1413(2) 0.49051(18) 0.2561(3)
H14_4 H 0.1354 0.4723 0.2182
C27_4 C 0.05136(16) 0.52011(17) 0.2217(2)
C28_4 C 0.10351(18) 0.51981(16) 0.2663(2)
O2_4 O 0.87340(12) 0.54028(10) 0.07963(17)
O3_4 O 0.88893(11) 0.47529(10) 0.07239(16)
C1_4 C 0.94995(17) 0.51324(14) 0.1444(2)
C2_4 C 0.80160(19) 0.51412(15) 0.3547(2)
C3_4 C 0.89879(17) 0.51014(14) 0.0964(2)
C4_4 C 0.75264(18) 0.51115(16) 0.4058(2)
C5_8 C 1.0000 0.5230(3) 0.2589(4)
H1_8 H 1.0000 0.5270 0.3104
C6_8 C 1.0000 0.5107(2) 0.1081(3)
H2_8 H 1.0000 0.5071 0.0565
C7_4 C 0.8393(2) 0.54635(17) 0.3632(3)
H3_4 H 0.8317 0.5658 0.3980
C8_4 C 0.8863(2) 0.54873(19) 0.3205(3)
H4_4 H 0.9112 0.5692 0.3274
C9_4 C 0.81268(19) 0.48718(18) 0.2995(3)
H5_4 H 0.7885 0.4664 0.2917
C10_4 C 0.8587(2) 0.49051(18) 0.2561(3)
H6_4 H 0.8646 0.4723 0.2182
C11_4 C 0.94864(16) 0.52011(17) 0.2217(2)
C12_4 C 0.89649(18) 0.51981(16) 0.2663(2)
C13_4 C 0.6556(4) 0.6786(2) 0.5766(4)
N2_4 N 0.6920(5) 0.7500 0.4925(6)
N3_4 N 0.6644(5) 0.7500 0.5544(5)
N4_4 N 0.6298(7) 0.7293(2) 0.6603(6)
C14_4 C 0.6519(4) 0.7182(2) 0.5917(5)
C15_4 C 0.6577(4) 0.6288(3) 0.4894(6)
H7_4 H 0.6568 0.6224 0.4388
C16_4 C 0.6461(5) 0.6669(3) 0.5080(6)
H8_4 H 0.6317 0.6841 0.4725
C17_4 C 0.6694(6) 0.6113(3) 0.6097(5)
H9_4 H 0.6745 0.5934 0.6483
C18_4 C 0.6606(7) 0.6502(2) 0.6285(6)
H10_4 H 0.6581 0.6569 0.6788
N5_4 N 0.67103(15) 0.90178(12) 0.5394(2)
C29_4 C 0.6556(4) 0.8214(2) 0.5766(4)
N6_4 N 0.6298(7) 0.7707(2) 0.6603(6)
C30_4 C 0.6519(4) 0.7818(2) 0.5917(5)
C31_4 C 0.6577(4) 0.8712(3) 0.4894(6)
H15_4 H 0.6568 0.8776 0.4388
C32_4 C 0.6461(5) 0.8331(3) 0.5080(6)
H16_4 H 0.6317 0.8159 0.4725
C33_4 C 0.6694(6) 0.8887(3) 0.6097(5)
H17_4 H 0.6745 0.9066 0.6483
C34_4 C 0.6606(7) 0.8498(2) 0.6285(6)
H18_4 H 0.6581 0.8431 0.6788
H19_4 H 0.671333 0.734145 0.453443
H20_4 H 0.696575 0.777905 0.474108
O1_3 O 0.75796(12) 0.53949(11) 0.05334(17)
C1_5 C 0.55005(17) 0.51324(14) 0.3556(2)
O4_3 O 0.77234(13) 0.47856(12) 0.09620(17)
C2_5 C 0.69840(19) 0.51412(15) 0.1453(2)
C3_5 C 0.60121(17) 0.51014(14) 0.4036(2)
C4_5 C 0.74736(18) 0.51115(16) 0.0942(2)
C5_9 C 0.5000 0.5230(3) 0.2411(4)
H1_9 H 0.5000 0.5270 0.1896
C6_9 C 0.5000 0.5107(2) 0.3919(3)
H2_9 H 0.5000 0.5071 0.4435
C7_5 C 0.6607(2) 0.54635(17) 0.1368(3)
H3_5 H 0.6683 0.5658 0.1020
C8_5 C 0.6137(2) 0.54873(19) 0.1795(3)
H4_5 H 0.5888 0.5692 0.1726
C9_5 C 0.68732(19) 0.48718(18) 0.2005(3)
H5_5 H 0.7115 0.4664 0.2083
C10_5 C 0.6413(2) 0.49051(18) 0.2439(3)
H6_5 H 0.6354 0.4723 0.2818
C11_5 C 0.55136(16) 0.52011(17) 0.2783(2)
C12_5 C 0.60351(18) 0.51981(16) 0.2337(2)
N2_5 N 0.8080(5) 0.7500 0.0075(6)
C15_5 C 0.8423(4) 0.6288(3) 0.0106(6)
H7_5 H 0.8432 0.6224 0.0612
H8_5 H 0.8683 0.6841 0.0275
O5_5 O 0.24204(12) 0.53949(11) 0.05334(17)
O6_5 O 0.37340(12) 0.54028(10) 0.42037(17)
O7_5 O 0.38893(11) 0.47529(10) 0.42761(16)
C19_5 C 0.44995(17) 0.51324(14) 0.3556(2)
O8_5 O 0.22766(13) 0.47856(12) 0.09620(17)
C20_5 C 0.30160(19) 0.51412(15) 0.1453(2)
C21_5 C 0.39879(17) 0.51014(14) 0.4036(2)
C22_5 C 0.25264(18) 0.51115(16) 0.0942(2)
C23_5 C 0.3393(2) 0.54635(17) 0.1368(3)
H11_5 H 0.3317 0.5658 0.1020
C24_5 C 0.3863(2) 0.54873(19) 0.1795(3)
H12_5 H 0.4112 0.5692 0.1726
C25_5 C 0.31268(19) 0.48718(18) 0.2005(3)
H13_5 H 0.2885 0.4664 0.2083
C26_5 C 0.3587(2) 0.49051(18) 0.2439(3)
H14_5 H 0.3646 0.4723 0.2818
C27_5 C 0.44864(16) 0.52011(17) 0.2783(2)
C28_5 C 0.39649(18) 0.51981(16) 0.2337(2)
C31_5 C 0.8423(4) 0.8712(3) 0.0106(6)
H15_5 H 0.8432 0.8776 0.0612
H16_5 H 0.8683 0.8159 0.0275
N7_3 N 0.82897(15) 0.40178(12) 0.0394(2)
H19_5 H 0.828667 0.734145 0.0465571
H20_5 H 0.803425 0.777905 0.0258917
N1_3 N 0.82897(15) 0.59822(12) 0.9606(2)
C13_5 C 0.8444(4) 0.6786(2) 0.9234(4)
N3_5 N 0.8356(5) 0.7500 0.9456(5)
N4_5 N 0.8702(7) 0.7293(2) 0.8397(6)
C14_5 C 0.8481(4) 0.7182(2) 0.9083(5)
C16_5 C 0.8539(5) 0.6669(3) 0.9920(6)
C17_5 C 0.8306(6) 0.6113(3) 0.8903(5)
H9_5 H 0.8255 0.5934 0.8517
C18_5 C 0.8394(7) 0.6502(2) 0.8715(6)
H10_5 H 0.8419 0.6569 0.8212
N5_5 N 0.82897(15) 0.90178(12) 0.9606(2)
C29_5 C 0.8444(4) 0.8214(2) 0.9234(4)
N6_5 N 0.8702(7) 0.7707(2) 0.8397(6)
C30_5 C 0.8481(4) 0.7818(2) 0.9083(5)
C32_5 C 0.8539(5) 0.8331(3) 0.9920(6)
C33_5 C 0.8306(6) 0.8887(3) 0.8903(5)
H17_5 H 0.8255 0.9066 0.8517
C34_5 C 0.8394(7) 0.8498(2) 0.8715(6)
H18_5 H 0.8419 0.8431 0.8212
O9_3 O 0.75796(12) 0.46051(11) 0.94666(17)
O14_3 O 0.77234(13) 0.52144(12) 0.90380(17)
O4_4 O 0.22766(13) 0.02144(12) 0.09620(17)
C9_6 C 0.31268(19) 0.01282(18) 0.2005(3)
H5_6 H 0.2885 0.0336 0.2083
C10_6 C 0.3587(2) 0.00949(18) 0.2439(3)
H6_6 H 0.3646 0.0277 0.2818
O7_6 O 0.61107(11) 0.02471(10) 0.42761(16)
O8_6 O 0.77234(13) 0.02144(12) 0.09620(17)
C25_6 C 0.68732(19) 0.01282(18) 0.2005(3)
H13_6 H 0.7115 0.0336 0.2083
C26_6 C 0.6413(2) 0.00949(18) 0.2439(3)
H14_6 H 0.6354 0.0277 0.2818
N7_4 N 0.17103(15) 0.09822(12) 0.0394(2)
O9_4 O 0.24204(12) 0.03949(11) 0.94666(17)
O1_4 O 0.24204(12) 0.96051(11) 0.05334(17)
C1_6 C 0.44995(17) 0.98676(14) 0.3556(2)
C2_6 C 0.30160(19) 0.98588(15) 0.1453(2)
C3_6 C 0.39879(17) 0.98986(14) 0.4036(2)
C4_6 C 0.25264(18) 0.98885(16) 0.0942(2)
C5_10 C 0.5000 0.9770(3) 0.2411(4)
H1_10 H 0.5000 0.9730 0.1896
C6_10 C 0.5000 0.9893(2) 0.3919(3)
H2_10 H 0.5000 0.9929 0.4435
C7_6 C 0.3393(2) 0.95365(17) 0.1368(3)
H3_6 H 0.3317 0.9342 0.1020
C8_6 C 0.3863(2) 0.95127(19) 0.1795(3)
H4_6 H 0.4112 0.9308 0.1726
C11_6 C 0.44864(16) 0.97989(17) 0.2783(2)
C12_6 C 0.39649(18) 0.98019(16) 0.2337(2)
N2_6 N 0.1920(5) 0.7500 0.0075(6)
C15_6 C 0.1577(4) 0.8712(3) 0.0106(6)
H7_6 H 0.1568 0.8776 0.0612
H8_6 H 0.1317 0.8159 0.0275
O5_6 O 0.75796(12) 0.96051(11) 0.05334(17)
O6_6 O 0.62660(12) 0.95972(10) 0.42037(17)
C19_6 C 0.55005(17) 0.98676(14) 0.3556(2)
C20_6 C 0.69840(19) 0.98588(15) 0.1453(2)
C21_6 C 0.60121(17) 0.98986(14) 0.4036(2)
C22_6 C 0.74736(18) 0.98885(16) 0.0942(2)
C23_6 C 0.6607(2) 0.95365(17) 0.1368(3)
H11_6 H 0.6683 0.9342 0.1020
C24_6 C 0.6137(2) 0.95127(19) 0.1795(3)
H12_6 H 0.5888 0.9308 0.1726
C27_6 C 0.55136(16) 0.97989(17) 0.2783(2)
C28_6 C 0.60351(18) 0.98019(16) 0.2337(2)
C31_6 C 0.1577(4) 0.6288(3) 0.0106(6)
H15_6 H 0.1568 0.6224 0.0612
H16_6 H 0.1317 0.6841 0.0275
H19_6 H 0.171333 0.765855 0.0465571
H20_6 H 0.196575 0.722095 0.0258917
N1_4 N 0.17103(15) 0.90178(12) 0.9606(2)
C13_6 C 0.1556(4) 0.8214(2) 0.9234(4)
N3_6 N 0.1644(5) 0.7500 0.9456(5)
N4_6 N 0.1298(7) 0.7707(2) 0.8397(6)
C14_6 C 0.1519(4) 0.7818(2) 0.9083(5)
C16_6 C 0.1461(5) 0.8331(3) 0.9920(6)
C17_6 C 0.1694(6) 0.8887(3) 0.8903(5)
H9_6 H 0.1745 0.9066 0.8517
C18_6 C 0.1606(7) 0.8498(2) 0.8715(6)
H10_6 H 0.1581 0.8431 0.8212
N5_6 N 0.17103(15) 0.59822(12) 0.9606(2)
C29_6 C 0.1556(4) 0.6786(2) 0.9234(4)
N6_6 N 0.1298(7) 0.7293(2) 0.8397(6)
C30_6 C 0.1519(4) 0.7182(2) 0.9083(5)
C32_6 C 0.1461(5) 0.6669(3) 0.9920(6)
C33_6 C 0.1694(6) 0.6113(3) 0.8903(5)
H17_6 H 0.1745 0.5934 0.8517
C34_6 C 0.1606(7) 0.6502(2) 0.8715(6)
H18_6 H 0.1581 0.6569 0.8212
O14_4 O 0.22766(13) 0.97856(12) 0.90380(17)
C13_7 C 0.8444(4) 0.3214(2) 0.0766(4)
N3_7 N 0.8356(5) 0.2500 0.0544(5)
N4_7 N 0.8702(7) 0.2707(2) 0.1603(6)
C14_7 C 0.8481(4) 0.2818(2) 0.0917(5)
C16_7 C 0.8539(5) 0.3331(3) 0.0080(6)
C17_7 C 0.8306(6) 0.3887(3) 0.1097(5)
H9_7 H 0.8255 0.4066 0.1483
C18_7 C 0.8394(7) 0.3498(2) 0.1285(6)
H10_7 H 0.8419 0.3431 0.1788
N5_7 N 0.82897(15) 0.09822(12) 0.0394(2)
C29_7 C 0.8444(4) 0.1786(2) 0.0766(4)
N6_7 N 0.8702(7) 0.2293(2) 0.1603(6)
C30_7 C 0.8481(4) 0.2182(2) 0.0917(5)
C32_7 C 0.8539(5) 0.1669(3) 0.0080(6)
C33_7 C 0.8306(6) 0.1113(3) 0.1097(5)
H17_7 H 0.8255 0.0934 0.1483
C34_7 C 0.8394(7) 0.1502(2) 0.1285(6)
H18_7 H 0.8419 0.1569 0.1788
C1_7 C 0.55005(17) 0.48676(14) 0.6444(2)
C2_7 C 0.69840(19) 0.48588(15) 0.8547(2)
C3_7 C 0.60121(17) 0.48986(14) 0.5964(2)
C4_7 C 0.74736(18) 0.48885(16) 0.9058(2)
C5_11 C 0.5000 0.4770(3) 0.7589(4)
H1_11 H 0.5000 0.4730 0.8104
C6_11 C 0.5000 0.4893(2) 0.6081(3)
H2_11 H 0.5000 0.4929 0.5565
C7_7 C 0.6607(2) 0.45365(17) 0.8632(3)
H3_7 H 0.6683 0.4342 0.8980
C8_7 C 0.6137(2) 0.45127(19) 0.8205(3)
H4_7 H 0.5888 0.4308 0.8274
C9_7 C 0.68732(19) 0.51282(18) 0.7995(3)
H5_7 H 0.7115 0.5336 0.7917
C10_7 C 0.6413(2) 0.50949(18) 0.7561(3)
H6_7 H 0.6354 0.5277 0.7182
C11_7 C 0.55136(16) 0.47989(17) 0.7217(2)
C12_7 C 0.60351(18) 0.48019(16) 0.7663(2)
N2_7 N 0.8080(5) 0.2500 0.9925(6)
C15_7 C 0.8423(4) 0.3712(3) 0.9894(6)
H7_7 H 0.8432 0.3776 0.9388
H8_7 H 0.8683 0.3159 0.9725
O5_7 O 0.24204(12) 0.46051(11) 0.94666(17)
O6_7 O 0.37340(12) 0.45972(10) 0.57963(17)
O7_7 O 0.38893(11) 0.52471(10) 0.57239(16)
C19_7 C 0.44995(17) 0.48676(14) 0.6444(2)
O8_7 O 0.22766(13) 0.52144(12) 0.90380(17)
C20_7 C 0.30160(19) 0.48588(15) 0.8547(2)
C21_7 C 0.39879(17) 0.48986(14) 0.5964(2)
C22_7 C 0.25264(18) 0.48885(16) 0.9058(2)
C23_7 C 0.3393(2) 0.45365(17) 0.8632(3)
H11_7 H 0.3317 0.4342 0.8980
C24_7 C 0.3863(2) 0.45127(19) 0.8205(3)
H12_7 H 0.4112 0.4308 0.8274
C25_7 C 0.31268(19) 0.51282(18) 0.7995(3)
H13_7 H 0.2885 0.5336 0.7917
C26_7 C 0.3587(2) 0.50949(18) 0.7561(3)
H14_7 H 0.3646 0.5277 0.7182
C27_7 C 0.44864(16) 0.47989(17) 0.7217(2)
C28_7 C 0.39649(18) 0.48019(16) 0.7663(2)
C31_7 C 0.8423(4) 0.1288(3) 0.9894(6)
H15_7 H 0.8432 0.1224 0.9388
H16_7 H 0.8683 0.1841 0.9725
H19_7 H 0.828667 0.265855 0.953443
H20_7 H 0.803425 0.222095 0.974108
C13_8 C 0.1556(4) 0.1786(2) 0.0766(4)
N3_8 N 0.1644(5) 0.2500 0.0544(5)
N4_8 N 0.1298(7) 0.2293(2) 0.1603(6)
C14_8 C 0.1519(4) 0.2182(2) 0.0917(5)
C16_8 C 0.1461(5) 0.1669(3) 0.0080(6)
C17_8 C 0.1694(6) 0.1113(3) 0.1097(5)
H9_8 H 0.1745 0.0934 0.1483
C18_8 C 0.1606(7) 0.1502(2) 0.1285(6)
H10_8 H 0.1581 0.1569 0.1788
N5_8 N 0.17103(15) 0.40178(12) 0.0394(2)
C29_8 C 0.1556(4) 0.3214(2) 0.0766(4)
N6_8 N 0.1298(7) 0.2707(2) 0.1603(6)
C30_8 C 0.1519(4) 0.2818(2) 0.0917(5)
C32_8 C 0.1461(5) 0.3331(3) 0.0080(6)
C33_8 C 0.1694(6) 0.3887(3) 0.1097(5)
H17_8 H 0.1745 0.4066 0.1483
C34_8 C 0.1606(7) 0.3498(2) 0.1285(6)
H18_8 H 0.1581 0.3431 0.1788
C1_8 C 0.44995(17) 0.01324(14) 0.6444(2)
C2_8 C 0.30160(19) 0.01412(15) 0.8547(2)
C3_8 C 0.39879(17) 0.01014(14) 0.5964(2)
C4_8 C 0.25264(18) 0.01115(16) 0.9058(2)
C5_12 C 0.5000 0.0230(3) 0.7589(4)
H1_12 H 0.5000 0.0270 0.8104
C6_12 C 0.5000 0.0107(2) 0.6081(3)
H2_12 H 0.5000 0.0071 0.5565
C7_8 C 0.3393(2) 0.04635(17) 0.8632(3)
H3_8 H 0.3317 0.0658 0.8980
C8_8 C 0.3863(2) 0.04873(19) 0.8205(3)
H4_8 H 0.4112 0.0692 0.8274
C11_8 C 0.44864(16) 0.02011(17) 0.7217(2)
C12_8 C 0.39649(18) 0.01981(16) 0.7663(2)
N2_8 N 0.1920(5) 0.2500 0.9925(6)
C15_8 C 0.1577(4) 0.1288(3) 0.9894(6)
H7_8 H 0.1568 0.1224 0.9388
H8_8 H 0.1317 0.1841 0.9725
O5_8 O 0.75796(12) 0.03949(11) 0.94666(17)
O6_8 O 0.62660(12) 0.04028(10) 0.57963(17)
C19_8 C 0.55005(17) 0.01324(14) 0.6444(2)
C20_8 C 0.69840(19) 0.01412(15) 0.8547(2)
C21_8 C 0.60121(17) 0.01014(14) 0.5964(2)
C22_8 C 0.74736(18) 0.01115(16) 0.9058(2)
C23_8 C 0.6607(2) 0.04635(17) 0.8632(3)
H11_8 H 0.6683 0.0658 0.8980
C24_8 C 0.6137(2) 0.04873(19) 0.8205(3)
H12_8 H 0.5888 0.0692 0.8274
C27_8 C 0.55136(16) 0.02011(17) 0.7217(2)
C28_8 C 0.60351(18) 0.01981(16) 0.7663(2)
C31_8 C 0.1577(4) 0.3712(3) 0.9894(6)
H15_8 H 0.1568 0.3776 0.9388
H16_8 H 0.1317 0.3159 0.9725
H19_8 H 0.171333 0.234145 0.953443
H20_8 H 0.196575 0.277905 0.974108
C9_8 C 0.31268(19) 0.98718(18) 0.7995(3)
H5_8 H 0.2885 0.9664 0.7917
C10_8 C 0.3587(2) 0.99051(18) 0.7561(3)
H6_8 H 0.3646 0.9723 0.7182
O7_8 O 0.61107(11) 0.97529(10) 0.57239(16)
O8_8 O 0.77234(13) 0.97856(12) 0.90380(17)
C25_8 C 0.68732(19) 0.98718(18) 0.7995(3)
H13_8 H 0.7115 0.9664 0.7917
C26_8 C 0.6413(2) 0.99051(18) 0.7561(3)
H14_8 H 0.6354 0.9723 0.7182
H19_9 H 0.671333 0.765855 0.453443
H20_9 H 0.696575 0.722095 0.474108
H19_10 H 0.328667 0.734145 0.453443
H20_10 H 0.303425 0.777905 0.474108
H19_11 H 0.671333 0.234145 0.546557
H20_11 H 0.696575 0.277905 0.525892
H19_12 H 0.328667 0.265855 0.546557
H20_12 H 0.303425 0.222095 0.525892
H19_13 H 0.171333 0.265855 0.953443
H20_13 H 0.196575 0.222095 0.974108
H19_14 H 0.828667 0.234145 0.953443
H20_14 H 0.803425 0.277905 0.974108
H19_15 H 0.171333 0.734145 0.0465571
H20_15 H 0.196575 0.777905 0.0258917
H19_16 H 0.828667 0.765855 0.0465571
H20_16 H 0.803425 0.722095 0.0258917
loop_
_geom_bond_atom_site_label_1
_geom_bond_atom_site_label_2
_geom_bond_site_symmetry_1
_geom_bond_site_symmetry_2
Cu1 O1 1_555 1_555
O1 C4 1_555 1_555
O2 C3 1_555 1_555
C1 C3 1_555 1_555
C2 C4 1_555 1_555
N1 Cu1 1_555 1_555
C5 H1 1_555 1_555
C6 C1 1_555 1_555
H2 C6 1_555 1_555
C7 C2 1_555 1_555
H3 C7 1_555 1_555
C8 C7 1_555 1_555
H4 C8 1_555 1_555
C11 C1 1_555 1_555
C12 C8 1_555 1_555
C13 C14 1_555 1_555
N2 N3 1_555 1_555
N3 C14 1_555 1_555
N4 C14 1_555 1_555
C15 N1 1_555 1_555
H7 C15 1_555 1_555
C16 C13 1_555 1_555
H8 C16 1_555 1_555
C17 N1 1_555 1_555
H9 C17 1_555 1_555
C18 C13 1_555 1_555
H10 C18 1_555 1_555
N5 C31 1_555 1_555
C29 C30 1_555 1_555
N6 N4 1_555 1_555
C30 N3 1_555 1_555
C31 H15 1_555 1_555
C32 C29 1_555 1_555
H16 C32 1_555 1_555
C33 N5 1_555 1_555
H17 C33 1_555 1_555
C34 C29 1_555 1_555
H18 C34 1_555 1_555
Cu7 N5 1_555 1_555
O11 Cu1 1_555 1_555
O12 Cu1 1_555 1_555
O14 Cu1 1_555 1_555
C5 C11 1_555 1_555
C11 C12 1_555 1_555
C15 C16 1_555 1_555
C17 C18 1_555 1_555
N6 C30 1_555 1_555
C31 C32 1_555 1_555
C33 C34 1_555 1_555
N2 H19 1_555 1_555
N2 H20 1_555 1_555
H5 C9 1_555 1_555
C10 C9 1_555 1_555
H6 C10 1_555 1_555
Cu2 O4 1_555 1_555
Cu3 O3 1_555 1_555
O9 Cu2 1_555 1_555
O10 Cu2 1_555 1_555
O13 Cu2 1_555 1_555
N7 Cu2 1_555 1_555
C5_2 H1_2 1_555 1_555
H2_2 C6_2 1_555 1_555
O5 C22 1_555 1_555
O6 C21 1_555 1_555
C19 C6_2 1_555 1_555
C20 C22 1_555 1_555
C21 C19 1_555 1_555
C23 C20 1_555 1_555
H11 C23 1_555 1_555
C24 C23 1_555 1_555
H12 C24 1_555 1_555
C27 C5_2 1_555 1_555
C28 C24 1_555 1_555
Cu6 O5 1_555 1_555
C19 C27 1_555 1_555
C27 C28 1_555 1_555
H13 C25 1_555 1_555
C26 C25 1_555 1_555
H14 C26 1_555 1_555
Cu5 O8 1_555 1_555
Cu9 O7 1_555 1_555
C5_3 H1_3 1_555 1_555
H2_3 C6_3 1_555 1_555
O5_2 C22_2 1_555 1_555
O6_2 C21_2 1_555 1_555
O7_2 C21_2 1_555 1_555
C19_2 C6_3 1_555 1_555
O8_2 C22_2 1_555 1_555
C20_2 C22_2 1_555 1_555
C21_2 C19_2 1_555 1_555
C23_2 C20_2 1_555 1_555
H11_2 C23_2 1_555 1_555
C24_2 C23_2 1_555 1_555
H12_2 C24_2 1_555 1_555
C25_2 C20_2 1_555 1_555
H13_2 C25_2 1_555 1_555
C26_2 C25_2 1_555 1_555
H14_2 C26_2 1_555 1_555
C27_2 C5_3 1_555 1_555
C28_2 C24_2 1_555 1_555
Cu5_2 O8_2 1_555 1_555
Cu7 O5_2 1_555 1_555
Cu9_2 O7_2 1_555 1_555
C19_2 C27_2 1_555 1_555
C26_2 C28_2 1_555 1_555
C27_2 C28_2 1_555 1_555
Cu1_2 O1_2 1_555 1_555
O1_2 C4_2 1_555 1_555
O2_2 C3_2 1_555 1_555
O3_2 C3_2 1_555 1_555
C1_2 C3_2 1_555 1_555
O4_2 C4_2 1_555 1_555
C2_2 C4_2 1_555 1_555
N1_2 Cu1_2 1_555 1_555
C5_4 H1_4 1_555 1_555
C6_4 C1_2 1_555 1_555
H2_4 C6_4 1_555 1_555
C7_2 C2_2 1_555 1_555
H3_2 C7_2 1_555 1_555
C8_2 C7_2 1_555 1_555
H4_2 C8_2 1_555 1_555
C9_2 C2_2 1_555 1_555
H5_2 C9_2 1_555 1_555
C10_2 C9_2 1_555 1_555
H6_2 C10_2 1_555 1_555
C11_2 C1_2 1_555 1_555
C12_2 C8_2 1_555 1_555
C13_2 C14_2 1_555 1_555
N2_2 N3_2 1_555 1_555
N3_2 C14_2 1_555 1_555
N4_2 C14_2 1_555 1_555
C15_2 N1_2 1_555 1_555
H7_2 C15_2 1_555 1_555
C16_2 C13_2 1_555 1_555
H8_2 C16_2 1_555 1_555
C17_2 N1_2 1_555 1_555
H9_2 C17_2 1_555 1_555
C18_2 C13_2 1_555 1_555
H10_2 C18_2 1_555 1_555
N5_2 C31_2 1_555 1_555
C29_2 C30_2 1_555 1_555
N6_2 N4_2 1_555 1_555
C30_2 N3_2 1_555 1_555
C31_2 H15_2 1_555 1_555
C32_2 C29_2 1_555 1_555
H16_2 C32_2 1_555 1_555
C33_2 N5_2 1_555 1_555
H17_2 C33_2 1_555 1_555
C34_2 C29_2 1_555 1_555
H18_2 C34_2 1_555 1_555
Cu2_2 O4_2 1_555 1_555
Cu3_2 O3_2 1_555 1_555
Cu6 N5_2 1_555 1_555
O9_2 Cu2_2 1_555 1_555
O10_2 Cu2_2 1_555 1_555
O11_2 Cu1_2 1_555 1_555
O12_2 Cu1_2 1_555 1_555
O13_2 Cu2_2 1_555 1_555
O14_2 Cu1_2 1_555 1_555
N7_2 Cu2_2 1_555 1_555
C5_4 C11_2 1_555 1_555
C10_2 C12_2 1_555 1_555
C11_2 C12_2 1_555 1_555
C15_2 C16_2 1_555 1_555
C17_2 C18_2 1_555 1_555
N6_2 C30_2 1_555 1_555
C31_2 C32_2 1_555 1_555
C33_2 C34_2 1_555 1_555
N2_2 H19_2 1_555 1_555
N2_2 H20_2 1_555 1_555
H5_3 C9_3 1_555 1_555
C10_3 C9_3 1_555 1_555
H6_3 C10_3 1_555 1_555
Cu4 O3_3 1_555 1_555
O9 C4_3 1_555 1_555
O2_3 C3_3 1_555 1_555
C1_3 C3_3 1_555 1_555
C2_3 C4_3 1_555 1_555
C5_5 H1_5 1_555 1_555
C6_5 C1_3 1_555 1_555
H2_5 C6_5 1_555 1_555
C7_3 C2_3 1_555 1_555
H3_3 C7_3 1_555 1_555
C8_3 C7_3 1_555 1_555
H4_3 C8_3 1_555 1_555
C11_3 C1_3 1_555 1_555
C12_3 C8_3 1_555 1_555
C13_3 C14_3 1_555 1_555
N2_3 N3_3 1_555 1_555
N3_3 C14_3 1_555 1_555
N4_3 C14_3 1_555 1_555
C15_3 N7 1_555 1_555
H7_3 C15_3 1_555 1_555
C16_3 C13_3 1_555 1_555
H8_3 C16_3 1_555 1_555
C17_3 N7 1_555 1_555
H9_3 C17_3 1_555 1_555
C18_3 C13_3 1_555 1_555
H10_3 C18_3 1_555 1_555
N5_3 C31_3 1_555 1_555
C29_3 C30_3 1_555 1_555
N6_3 N4_3 1_555 1_555
C30_3 N3_3 1_555 1_555
C31_3 H15_3 1_555 1_555
C32_3 C29_3 1_555 1_555
H16_3 C32_3 1_555 1_555
C33_3 N5_3 1_555 1_555
H17_3 C33_3 1_555 1_555
C34_3 C29_3 1_555 1_555
H18_3 C34_3 1_555 1_555
Cu5_2 N5_3 1_555 1_555
C5_5 C11_3 1_555 1_555
C11_3 C12_3 1_555 1_555
C15_3 C16_3 1_555 1_555
C17_3 C18_3 1_555 1_555
N6_3 C30_3 1_555 1_555
C31_3 C32_3 1_555 1_555
C33_3 C34_3 1_555 1_555
N2_3 H19_3 1_555 1_555
N2_3 H20_3 1_555 1_555
H13_3 C25_3 1_555 1_555
C26_3 C25_3 1_555 1_555
H14_3 C26_3 1_555 1_555
Cu6 O8_3 1_555 1_555
Cu8 O7_3 1_555 1_555
C5_6 H1_6 1_555 1_555
H2_6 C6_6 1_555 1_555
O5_3 C22_3 1_555 1_555
O6_3 C21_3 1_555 1_555
C19_3 C6_6 1_555 1_555
C20_3 C22_3 1_555 1_555
C21_3 C19_3 1_555 1_555
C23_3 C20_3 1_555 1_555
H11_3 C23_3 1_555 1_555
C24_3 C23_3 1_555 1_555
H12_3 C24_3 1_555 1_555
C27_3 C5_6 1_555 1_555
C28_3 C24_3 1_555 1_555
Cu5 O5_3 1_555 1_555
C19_3 C27_3 1_555 1_555
C27_3 C28_3 1_555 1_555
C5_7 H1_7 1_555 1_555
H2_7 C6_7 1_555 1_555
O5_4 C22_4 1_555 1_555
O6_4 C21_4 1_555 1_555
O7_4 C21_4 1_555 1_555
C19_4 C6_7 1_555 1_555
O8_4 C22_4 1_555 1_555
C20_4 C22_4 1_555 1_555
C21_4 C19_4 1_555 1_555
C23_4 C20_4 1_555 1_555
H11_4 C23_4 1_555 1_555
C24_4 C23_4 1_555 1_555
H12_4 C24_4 1_555 1_555
C25_4 C20_4 1_555 1_555
H13_4 C25_4 1_555 1_555
C26_4 C25_4 1_555 1_555
H14_4 C26_4 1_555 1_555
C27_4 C5_7 1_555 1_555
C28_4 C24_4 1_555 1_555
Cu7 O8_4 1_555 1_555
Cu5_2 O5_4 1_555 1_555
Cu8_2 O7_4 1_555 1_555
C19_4 C27_4 1_555 1_555
C26_4 C28_4 1_555 1_555
C27_4 C28_4 1_555 1_555
O9_2 C4_4 1_555 1_555
O2_4 C3_4 1_555 1_555
O3_4 C3_4 1_555 1_555
C1_4 C3_4 1_555 1_555
O14_2 C4_4 1_555 1_555
C2_4 C4_4 1_555 1_555
C5_8 H1_8 1_555 1_555
C6_8 C1_4 1_555 1_555
H2_8 C6_8 1_555 1_555
C7_4 C2_4 1_555 1_555
H3_4 C7_4 1_555 1_555
C8_4 C7_4 1_555 1_555
H4_4 C8_4 1_555 1_555
C9_4 C2_4 1_555 1_555
H5_4 C9_4 1_555 1_555
C10_4 C9_4 1_555 1_555
H6_4 C10_4 1_555 1_555
C11_4 C1_4 1_555 1_555
C12_4 C8_4 1_555 1_555
C13_4 C14_4 1_555 1_555
N2_4 N3_4 1_555 1_555
N3_4 C14_4 1_555 1_555
N4_4 C14_4 1_555 1_555
C15_4 N7_2 1_555 1_555
H7_4 C15_4 1_555 1_555
C16_4 C13_4 1_555 1_555
H8_4 C16_4 1_555 1_555
C17_4 N7_2 1_555 1_555
H9_4 C17_4 1_555 1_555
C18_4 C13_4 1_555 1_555
H10_4 C18_4 1_555 1_555
N5_4 C31_4 1_555 1_555
C29_4 C30_4 1_555 1_555
N6_4 N4_4 1_555 1_555
C30_4 N3_4 1_555 1_555
C31_4 H15_4 1_555 1_555
C32_4 C29_4 1_555 1_555
H16_4 C32_4 1_555 1_555
C33_4 N5_4 1_555 1_555
H17_4 C33_4 1_555 1_555
C34_4 C29_4 1_555 1_555
H18_4 C34_4 1_555 1_555
Cu4_2 O3_4 1_555 1_555
Cu5 N5_4 1_555 1_555
C5_8 C11_4 1_555 1_555
C10_4 C12_4 1_555 1_555
C11_4 C12_4 1_555 1_555
C15_4 C16_4 1_555 1_555
C17_4 C18_4 1_555 1_555
N6_4 C30_4 1_555 1_555
C31_4 C32_4 1_555 1_555
C33_4 C34_4 1_555 1_555
N2_4 H19_4 1_555 1_555
N2_4 H20_4 1_555 1_555
O1_3 C4_5 1_555 1_555
O10_2 C3_5 1_555 1_555
O12_2 C3_5 1_555 1_555
C1_5 C3_5 1_555 1_555
O4_3 C4_5 1_555 1_555
C2_5 C4_5 1_555 1_555
C5_9 H1_9 1_555 1_555
C6_9 C1_5 1_555 1_555
H2_9 C6_9 1_555 1_555
C7_5 C2_5 1_555 1_555
H3_5 C7_5 1_555 1_555
C8_5 C7_5 1_555 1_555
H4_5 C8_5 1_555 1_555
C9_5 C2_5 1_555 1_555
H5_5 C9_5 1_555 1_555
C10_5 C9_5 1_555 1_555
H6_5 C10_5 1_555 1_555
C11_5 C1_5 1_555 1_555
C12_5 C8_5 1_555 1_555
H7_5 C15_5 1_555 1_555
O5_5 C22_5 1_555 1_555
O6_5 C21_5 1_555 1_555
O7_5 C21_5 1_555 1_555
C19_5 C6_9 1_555 1_555
O8_5 C22_5 1_555 1_555
C20_5 C22_5 1_555 1_555
C21_5 C19_5 1_555 1_555
C23_5 C20_5 1_555 1_555
H11_5 C23_5 1_555 1_555
C24_5 C23_5 1_555 1_555
H12_5 C24_5 1_555 1_555
C25_5 C20_5 1_555 1_555
H13_5 C25_5 1_555 1_555
C26_5 C25_5 1_555 1_555
H14_5 C26_5 1_555 1_555
C27_5 C5_9 1_555 1_555
C28_5 C24_5 1_555 1_555
C31_5 H15_5 1_555 1_555
Cu4_2 O4_3 1_555 1_555
Cu8_2 O8_5 1_555 1_555
Cu5_2 O6_5 1_555 1_555
Cu7 O7_5 1_555 1_555
N7_3 Cu4_2 1_555 1_555
C5_9 C11_5 1_555 1_555
C10_5 C12_5 1_555 1_555
C11_5 C12_5 1_555 1_555
C19_5 C27_5 1_555 1_555
C26_5 C28_5 1_555 1_555
C27_5 C28_5 1_555 1_555
N2_5 H19_5 1_555 1_555
N2_5 H20_5 1_555 1_555
N1_3 Cu3_2 1_555 1_555
C13_5 C14_5 1_555 1_555
N3_5 C14_5 1_555 1_555
N4_5 C14_5 1_555 1_555
C16_5 C13_5 1_555 1_555
C17_5 N1_3 1_555 1_555
H9_5 C17_5 1_555 1_555
C18_5 C13_5 1_555 1_555
H10_5 C18_5 1_555 1_555
C29_5 C30_5 1_555 1_555
N6_5 N4_5 1_555 1_555
C30_5 N3_5 1_555 1_555
C32_5 C29_5 1_555 1_555
C33_5 N5_5 1_555 1_555
H17_5 C33_5 1_555 1_555
C34_5 C29_5 1_555 1_555
H18_5 C34_5 1_555 1_555
Cu9 N5_5 1_555 1_555
O14_3 Cu3_2 1_555 1_555
C17_5 C18_5 1_555 1_555
N6_5 C30_5 1_555 1_555
C33_5 C34_5 1_555 1_555
H5_6 C9_6 1_555 1_555
C10_6 C9_6 1_555 1_555
H6_6 C10_6 1_555 1_555
H13_6 C25_6 1_555 1_555
C26_6 C25_6 1_555 1_555
H14_6 C26_6 1_555 1_555
Cu4 O4_4 1_555 1_555
Cu8 O8_6 1_555 1_555
Cu6 O7_6 1_555 1_555
N7_4 Cu4 1_555 1_555
O1_4 C4_6 1_555 1_555
O10 C3_6 1_555 1_555
C1_6 C3_6 1_555 1_555
C2_6 C4_6 1_555 1_555
C5_10 H1_10 1_555 1_555
C6_10 C1_6 1_555 1_555
H2_10 C6_10 1_555 1_555
C7_6 C2_6 1_555 1_555
H3_6 C7_6 1_555 1_555
C8_6 C7_6 1_555 1_555
H4_6 C8_6 1_555 1_555
C11_6 C1_6 1_555 1_555
C12_6 C8_6 1_555 1_555
H7_6 C15_6 1_555 1_555
O5_6 C22_6 1_555 1_555
O6_6 C21_6 1_555 1_555
C19_6 C6_10 1_555 1_555
C20_6 C22_6 1_555 1_555
C21_6 C19_6 1_555 1_555
C23_6 C20_6 1_555 1_555
H11_6 C23_6 1_555 1_555
C24_6 C23_6 1_555 1_555
H12_6 C24_6 1_555 1_555
C27_6 C5_10 1_555 1_555
C28_6 C24_6 1_555 1_555
C31_6 H15_6 1_555 1_555
Cu5 O6_6 1_555 1_555
C5_10 C11_6 1_555 1_555
C11_6 C12_6 1_555 1_555
C19_6 C27_6 1_555 1_555
C27_6 C28_6 1_555 1_555
N2_6 H19_6 1_555 1_555
N2_6 H20_6 1_555 1_555
N1_4 Cu3 1_555 1_555
C13_6 C14_6 1_555 1_555
N3_6 C14_6 1_555 1_555
N4_6 C14_6 1_555 1_555
C16_6 C13_6 1_555 1_555
C17_6 N1_4 1_555 1_555
H9_6 C17_6 1_555 1_555
C18_6 C13_6 1_555 1_555
H10_6 C18_6 1_555 1_555
C29_6 C30_6 1_555 1_555
N6_6 N4_6 1_555 1_555
C30_6 N3_6 1_555 1_555
C32_6 C29_6 1_555 1_555
C33_6 N5_6 1_555 1_555
H17_6 C33_6 1_555 1_555
C34_6 C29_6 1_555 1_555
H18_6 C34_6 1_555 1_555
Cu9_2 N5_6 1_555 1_555
O14_4 Cu3 1_555 1_555
C17_6 C18_6 1_555 1_555
N6_6 C30_6 1_555 1_555
C33_6 C34_6 1_555 1_555
C13_7 C14_7 1_555 1_555
N3_7 C14_7 1_555 1_555
N4_7 C14_7 1_555 1_555
C16_7 C13_7 1_555 1_555
C17_7 N7_3 1_555 1_555
H9_7 C17_7 1_555 1_555
C18_7 C13_7 1_555 1_555
H10_7 C18_7 1_555 1_555
C29_7 C30_7 1_555 1_555
N6_7 N4_7 1_555 1_555
C30_7 N3_7 1_555 1_555
C32_7 C29_7 1_555 1_555
C33_7 N5_7 1_555 1_555
H17_7 C33_7 1_555 1_555
C34_7 C29_7 1_555 1_555
H18_7 C34_7 1_555 1_555
Cu8 N5_7 1_555 1_555
C17_7 C18_7 1_555 1_555
N6_7 C30_7 1_555 1_555
C33_7 C34_7 1_555 1_555
O9_3 C4_7 1_555 1_555
O11_2 C3_7 1_555 1_555
O13_2 C3_7 1_555 1_555
C1_7 C3_7 1_555 1_555
O14_3 C4_7 1_555 1_555
C2_7 C4_7 1_555 1_555
C5_11 H1_11 1_555 1_555
C6_11 C1_7 1_555 1_555
H2_11 C6_11 1_555 1_555
C7_7 C2_7 1_555 1_555
H3_7 C7_7 1_555 1_555
C8_7 C7_7 1_555 1_555
H4_7 C8_7 1_555 1_555
C9_7 C2_7 1_555 1_555
H5_7 C9_7 1_555 1_555
C10_7 C9_7 1_555 1_555
H6_7 C10_7 1_555 1_555
C11_7 C1_7 1_555 1_555
C12_7 C8_7 1_555 1_555
H7_7 C15_7 1_555 1_555
O5_7 C22_7 1_555 1_555
O6_7 C21_7 1_555 1_555
O7_7 C21_7 1_555 1_555
C19_7 C6_11 1_555 1_555
O8_7 C22_7 1_555 1_555
C20_7 C22_7 1_555 1_555
C21_7 C19_7 1_555 1_555
C23_7 C20_7 1_555 1_555
H11_7 C23_7 1_555 1_555
C24_7 C23_7 1_555 1_555
H12_7 C24_7 1_555 1_555
C25_7 C20_7 1_555 1_555
H13_7 C25_7 1_555 1_555
C26_7 C25_7 1_555 1_555
H14_7 C26_7 1_555 1_555
C27_7 C5_11 1_555 1_555
C28_7 C24_7 1_555 1_555
C31_7 H15_7 1_555 1_555
Cu9_2 O8_7 1_555 1_555
Cu7 O6_7 1_555 1_555
Cu5_2 O7_7 1_555 1_555
C5_11 C11_7 1_555 1_555
C10_7 C12_7 1_555 1_555
C11_7 C12_7 1_555 1_555
C19_7 C27_7 1_555 1_555
C26_7 C28_7 1_555 1_555
C27_7 C28_7 1_555 1_555
N2_7 H19_7 1_555 1_555
N2_7 H20_7 1_555 1_555
C13_8 C14_8 1_555 1_555
N3_8 C14_8 1_555 1_555
N4_8 C14_8 1_555 1_555
C16_8 C13_8 1_555 1_555
C17_8 N7_4 1_555 1_555
H9_8 C17_8 1_555 1_555
C18_8 C13_8 1_555 1_555
H10_8 C18_8 1_555 1_555
C29_8 C30_8 1_555 1_555
N6_8 N4_8 1_555 1_555
C30_8 N3_8 1_555 1_555
C32_8 C29_8 1_555 1_555
C33_8 N5_8 1_555 1_555
H17_8 C33_8 1_555 1_555
C34_8 C29_8 1_555 1_555
H18_8 C34_8 1_555 1_555
Cu8_2 N5_8 1_555 1_555
C17_8 C18_8 1_555 1_555
N6_8 C30_8 1_555 1_555
C33_8 C34_8 1_555 1_555
O9_4 C4_8 1_555 1_555
O11 C3_8 1_555 1_555
C1_8 C3_8 1_555 1_555
C2_8 C4_8 1_555 1_555
C5_12 H1_12 1_555 1_555
C6_12 C1_8 1_555 1_555
H2_12 C6_12 1_555 1_555
C7_8 C2_8 1_555 1_555
H3_8 C7_8 1_555 1_555
C8_8 C7_8 1_555 1_555
H4_8 C8_8 1_555 1_555
C11_8 C1_8 1_555 1_555
C12_8 C8_8 1_555 1_555
H7_8 C15_8 1_555 1_555
O5_8 C22_8 1_555 1_555
O6_8 C21_8 1_555 1_555
C19_8 C6_12 1_555 1_555
C20_8 C22_8 1_555 1_555
C21_8 C19_8 1_555 1_555
C23_8 C20_8 1_555 1_555
H11_8 C23_8 1_555 1_555
C24_8 C23_8 1_555 1_555
H12_8 C24_8 1_555 1_555
C27_8 C5_12 1_555 1_555
C28_8 C24_8 1_555 1_555
C31_8 H15_8 1_555 1_555
Cu6 O6_8 1_555 1_555
C5_12 C11_8 1_555 1_555
C11_8 C12_8 1_555 1_555
C19_8 C27_8 1_555 1_555
C27_8 C28_8 1_555 1_555
N2_8 H19_8 1_555 1_555
N2_8 H20_8 1_555 1_555
H5_8 C9_8 1_555 1_555
C10_8 C9_8 1_555 1_555
H6_8 C10_8 1_555 1_555
H13_8 C25_8 1_555 1_555
C26_8 C25_8 1_555 1_555
H14_8 C26_8 1_555 1_555
Cu9 O8_8 1_555 1_555
Cu5 O7_8 1_555 1_555
N2_4 H19_9 1_555 1_555
N2_4 H20_9 1_555 1_555
N2_3 H19_10 1_555 1_555
N2_3 H20_10 1_555 1_555
N2_2 H19_11 1_555 1_555
N2_2 H20_11 1_555 1_555
N2 H19_12 1_555 1_555
N2 H20_12 1_555 1_555
N2_8 H19_13 1_555 1_555
N2_8 H20_13 1_555 1_555
N2_7 H19_14 1_555 1_555
N2_7 H20_14 1_555 1_555
N2_6 H19_15 1_555 1_555
N2_6 H20_15 1_555 1_555
N2_5 H19_16 1_555 1_555
N2_5 H20_16 1_555 1_555

#END
