
###############################################################################
#
# This file contains modified crystal structure data generated from the
# MOF subset of the Cambridge Structural Database (CSD) v543 
# hosted by the Cambridge Crystallographic Data Centre (CCDC).
#
# This work is licensed under the Creative Commons
# Attribution-NonCommercial-ShareAlike 4.0 International License.
# To view a copy of this license, visit
# http://creativecommons.org/licenses/by-nc-sa/4.0/
# or send a letter to
# Creative Commons, PO Box 1866, Mountain View, CA 94042, USA.
#
# CIF created using the CSD Python API on 29 September 2022
# The structure has been converted into the P1 space group
# The structure has a 3D framework
# The original CSD entry KUTNIY is in the orthorhombic crystal system
# The framework has been calculated to contain at least 10.0% void space
# The void calculation uses a probe of radius 1.32A, grid spacing 0.4
#
###############################################################################

data_KUTNIY
_chemical_formula_moiety         '(C280 H152 N48 O50 Zn6)n'
_symmetry_cell_setting           triclinic
_symmetry_space_group_name_H-M   'P 1'
_symmetry_Int_Tables_number      1
_space_group_name_Hall           'P 1'
loop_
_symmetry_equiv_pos_site_id
_symmetry_equiv_pos_as_xyz
1 x,y,z
_cell_length_a                   24.135(5)
_cell_length_b                   35.096(5)
_cell_length_c                   18.028(5)
_cell_angle_alpha                90
_cell_angle_beta                 90
_cell_angle_gamma                90
_cell_volume                     15270.5
loop_
_atom_site_label
_atom_site_type_symbol
_atom_site_fract_x
_atom_site_fract_y
_atom_site_fract_z
Zn1 Zn 0.32137(2) 0.04092(2) 0.48784(2)
O3 O 0.10998(9) 0.02644(9) 0.07019(13)
O4 O 0.27209(10) 0.02076(10) 0.40310(13)
C7 C 0.14045(15) 0.01043(13) 0.2550(2)
H3 H 0.1343 0.0287 0.2186
N1 N 0.32295(13) 0.09738(12) 0.4675(2)
H4 H -0.0000 0.0019 0.0596
C9 C 0.18649(14) 0.01339(14) 0.2999(2)
H5 H 0.2106 0.0339 0.2943
C13 C 0.2840(3) 0.1201(2) 0.4958(3)
H7 H 0.2557 0.1097 0.5244
C14 C 0.3600(2) 0.11362(18) 0.4243(3)
H8 H 0.3885 0.0987 0.4054
C15 C 0.2855(5) 0.1606(3) 0.4824(6)
H9 H 0.2600 0.1764 0.5058
C16 C 0.3586(3) 0.1521(2) 0.4056(5)
H10 H 0.3834 0.1612 0.3704
C17 C 0.3235(4) 0.1756(2) 0.4359(5)
N2 N 0.3572(4) 0.23002(19) 0.3790(7)
N3 N 0.2728(10) 0.2354(4) 0.4561(14)
C18 C 0.3175(9) 0.2140(3) 0.4180(7)
N4 N 0.32295(13) 0.40262(12) 0.4675(2)
C29 C 0.2840(3) 0.3799(2) 0.4958(3)
H15 H 0.2557 0.3903 0.5244
C30 C 0.3600(2) 0.38638(18) 0.4243(3)
H16 H 0.3885 0.4013 0.4054
C31 C 0.2855(5) 0.3394(3) 0.4824(6)
H17 H 0.2600 0.3236 0.5058
C32 C 0.3586(3) 0.3479(2) 0.4056(5)
H18 H 0.3834 0.3388 0.3704
C33 C 0.3235(4) 0.3244(2) 0.4359(5)
N5 N 0.3572(4) 0.26998(19) 0.3790(7)
N6 N 0.2728(10) 0.2646(4) 0.4561(14)
C34 C 0.3175(9) 0.2860(3) 0.4180(7)
Zn4 Zn 0.17863(2) 0.04092(2) 0.01216(2)
Zn7 Zn 0.32137(2) 0.45908(2) 0.48784(2)
O9 O 0.37134(10) 0.03565(8) 0.58221(13)
O11 O 0.25464(9) 0.03816(9) 0.55363(13)
O13 O 0.39002(9) 0.02644(9) 0.42981(13)
O1 O 0.12866(10) 0.96435(8) 0.08221(13)
C1 C 0.19688(15) 0.98610(13) 0.35315(19)
O2 O 0.25464(9) 0.96184(9) 0.44637(13)
C2 C 0.05083(13) 0.98083(12) 0.21973(18)
C3 C 0.04978(14) 0.98989(12) 0.14398(19)
C4 C 0.10352(14) 0.98083(12) 0.26312(19)
C5 C 0.11382(15) 0.95351(13) 0.3159(2)
H1 H 0.0889 0.9336 0.3223
C6 C -0.0000 0.97651(17) 0.2551(3)
H2 H -0.0000 0.9704 0.3053
C8 C -0.0000 0.99484(17) 0.1093(3)
C10 C 0.16083(16) 0.95540(14) 0.3594(2)
H6 H 0.1684 0.9360 0.3931
C11 C 0.24551(15) 0.98946(14) 0.4040(2)
C12 C 0.10159(14) 0.99391(13) 0.09639(18)
Zn2 Zn 0.32137(2) 0.95908(2) 0.51216(2)
O10 O 0.37134(10) 0.96435(8) 0.41779(13)
O12 O 0.39002(9) 0.97356(9) 0.57019(13)
O14 O 0.27209(10) 0.97924(10) 0.59690(13)
N7 N 0.32295(13) 0.90262(12) 0.5325(2)
Zn3 Zn 0.17863(2) 0.95908(2) 0.98784(2)
H4_2 H 1.0000 0.0019 0.0596
O7 O 0.89002(9) 0.02644(9) 0.07019(13)
O8 O 0.72791(10) 0.02076(10) 0.40310(13)
C24 C 0.85955(15) 0.01043(13) 0.2550(2)
H12 H 0.8657 0.0287 0.2186
C25 C 0.81351(14) 0.01339(14) 0.2999(2)
H13 H 0.7894 0.0339 0.2943
Zn6 Zn 0.67863(2) 0.04092(2) 0.48784(2)
Zn8 Zn 0.82137(2) 0.04092(2) 0.01216(2)
C6_2 C 1.0000 0.97651(17) 0.2551(3)
H2_2 H 1.0000 0.9704 0.3053
C8_2 C 1.0000 0.99484(17) 0.1093(3)
O5 O 0.87134(10) 0.96435(8) 0.08221(13)
C19 C 0.80312(15) 0.98610(13) 0.35315(19)
O6 O 0.74536(9) 0.96184(9) 0.44637(13)
C20 C 0.94917(13) 0.98083(12) 0.21973(18)
C21 C 0.95022(14) 0.98989(12) 0.14398(19)
C22 C 0.89648(14) 0.98083(12) 0.26312(19)
C23 C 0.88618(15) 0.95351(13) 0.3159(2)
H11 H 0.9111 0.9336 0.3223
C26 C 0.83917(16) 0.95540(14) 0.3594(2)
H14 H 0.8316 0.9360 0.3931
C27 C 0.75449(15) 0.98946(14) 0.4040(2)
C28 C 0.89841(14) 0.99391(13) 0.09639(18)
Zn5 Zn 0.67863(2) 0.95908(2) 0.51216(2)
Zn9 Zn 0.82137(2) 0.95908(2) 0.98784(2)
C6_3 C 0.0000 0.52349(17) 0.2551(3)
H2_3 H 0.0000 0.5296 0.3053
C8_3 C -0.0000 0.50516(17) 0.1093(3)
H4_3 H -0.0000 0.4981 0.0596
O5_2 O 0.12866(10) 0.53565(8) 0.08221(13)
C19_2 C 0.19688(15) 0.51390(13) 0.35315(19)
O6_2 O 0.25464(9) 0.53816(9) 0.44637(13)
C20_2 C 0.05083(13) 0.51917(12) 0.21973(18)
C21_2 C 0.04978(14) 0.51011(12) 0.14398(19)
O7_2 O 0.10998(9) 0.47356(9) 0.07019(13)
C22_2 C 0.10352(14) 0.51917(12) 0.26312(19)
O8_2 O 0.27209(10) 0.47924(10) 0.40310(13)
C23_2 C 0.11382(15) 0.54649(13) 0.3159(2)
H11_2 H 0.0889 0.5664 0.3223
C24_2 C 0.14045(15) 0.48957(13) 0.2550(2)
H12_2 H 0.1343 0.4713 0.2186
C25_2 C 0.18649(14) 0.48661(14) 0.2999(2)
H13_2 H 0.2106 0.4661 0.2943
C26_2 C 0.16083(16) 0.54460(14) 0.3594(2)
H14_2 H 0.1684 0.5640 0.3931
C27_2 C 0.24551(15) 0.51054(14) 0.4040(2)
C28_2 C 0.10159(14) 0.50609(13) 0.09639(18)
Zn5_2 Zn 0.32137(2) 0.54092(2) 0.51216(2)
Zn8_2 Zn 0.17863(2) 0.45908(2) 0.01216(2)
Zn9_2 Zn 0.17863(2) 0.54092(2) 0.98784(2)
Zn1_2 Zn 0.67863(2) 0.45908(2) 0.48784(2)
O1_2 O 0.87134(10) 0.53565(8) 0.08221(13)
C1_2 C 0.80312(15) 0.51390(13) 0.35315(19)
O2_2 O 0.74536(9) 0.53816(9) 0.44637(13)
C2_2 C 0.94917(13) 0.51917(12) 0.21973(18)
C3_2 C 0.95022(14) 0.51011(12) 0.14398(19)
O3_2 O 0.89002(9) 0.47356(9) 0.07019(13)
C4_2 C 0.89648(14) 0.51917(12) 0.26312(19)
O4_2 O 0.72791(10) 0.47924(10) 0.40310(13)
C5_2 C 0.88618(15) 0.54649(13) 0.3159(2)
H1_2 H 0.9111 0.5664 0.3223
C6_4 C 1.0000 0.52349(17) 0.2551(3)
H2_4 H 1.0000 0.5296 0.3053
C7_2 C 0.85955(15) 0.48957(13) 0.2550(2)
H3_2 H 0.8657 0.4713 0.2186
N1_2 N 0.67705(13) 0.40262(12) 0.4675(2)
C8_4 C 1.0000 0.50516(17) 0.1093(3)
H4_4 H 1.0000 0.4981 0.0596
C9_2 C 0.81351(14) 0.48661(14) 0.2999(2)
H5_2 H 0.7894 0.4661 0.2943
C10_2 C 0.83917(16) 0.54460(14) 0.3594(2)
H6_2 H 0.8316 0.5640 0.3931
C11_2 C 0.75449(15) 0.51054(14) 0.4040(2)
C12_2 C 0.89841(14) 0.50609(13) 0.09639(18)
C13_2 C 0.7160(3) 0.3799(2) 0.4958(3)
H7_2 H 0.7443 0.3903 0.5244
C14_2 C 0.6400(2) 0.38638(18) 0.4243(3)
H8_2 H 0.6115 0.4013 0.4054
C15_2 C 0.7145(5) 0.3394(3) 0.4824(6)
H9_2 H 0.7400 0.3236 0.5058
C16_2 C 0.6414(3) 0.3479(2) 0.4056(5)
H10_2 H 0.6166 0.3388 0.3704
C17_2 C 0.6765(4) 0.3244(2) 0.4359(5)
N2_2 N 0.6428(4) 0.26998(19) 0.3790(7)
N3_2 N 0.7272(10) 0.2646(4) 0.4561(14)
C18_2 C 0.6825(9) 0.2860(3) 0.4180(7)
N4_2 N 0.67705(13) 0.09738(12) 0.4675(2)
C29_2 C 0.7160(3) 0.1201(2) 0.4958(3)
H15_2 H 0.7443 0.1097 0.5244
C30_2 C 0.6400(2) 0.11362(18) 0.4243(3)
H16_2 H 0.6115 0.0987 0.4054
C31_2 C 0.7145(5) 0.1606(3) 0.4824(6)
H17_2 H 0.7400 0.1764 0.5058
C32_2 C 0.6414(3) 0.1521(2) 0.4056(5)
H18_2 H 0.6166 0.1612 0.3704
C33_2 C 0.6765(4) 0.1756(2) 0.4359(5)
N5_2 N 0.6428(4) 0.23002(19) 0.3790(7)
N6_2 N 0.7272(10) 0.2354(4) 0.4561(14)
C34_2 C 0.6825(9) 0.2140(3) 0.4180(7)
Zn2_2 Zn 0.67863(2) 0.54092(2) 0.51216(2)
Zn4_2 Zn 0.82137(2) 0.45908(2) 0.01216(2)
O9_2 O 0.62866(10) 0.46435(8) 0.58221(13)
O10_2 O 0.62866(10) 0.53565(8) 0.41779(13)
O11_2 O 0.74536(9) 0.46184(9) 0.55363(13)
O12_2 O 0.60998(9) 0.52644(9) 0.57019(13)
O13_2 O 0.60998(9) 0.47356(9) 0.42981(13)
O14_2 O 0.72791(10) 0.52076(10) 0.59690(13)
N7_2 N 0.67705(13) 0.59738(12) 0.5325(2)
Zn3_2 Zn 0.82137(2) 0.54092(2) 0.98784(2)
O1_3 O 0.12866(10) 0.03565(8) 0.91779(13)
C1_3 C 0.19688(15) 0.01390(13) 0.64685(19)
C2_3 C 0.05083(13) 0.01917(12) 0.78027(18)
C3_3 C 0.04978(14) 0.01011(12) 0.85602(19)
C4_3 C 0.10352(14) 0.01917(12) 0.73688(19)
C5_3 C 0.11382(15) 0.04649(13) 0.6841(2)
H1_3 H 0.0889 0.0664 0.6777
C6_5 C -0.0000 0.02349(17) 0.7449(3)
H2_5 H -0.0000 0.0296 0.6947
C8_5 C -0.0000 0.00516(17) 0.8907(3)
C10_3 C 0.16083(16) 0.04460(14) 0.6406(2)
H6_3 H 0.1684 0.0640 0.6069
C11_3 C 0.24551(15) 0.01054(14) 0.5960(2)
C12_3 C 0.10159(14) 0.00609(13) 0.90361(18)
O3_3 O 0.10998(9) 0.97356(9) 0.92981(13)
C7_3 C 0.14045(15) 0.98957(13) 0.7450(2)
H3_3 H 0.1343 0.9713 0.7814
H4_5 H -0.0000 0.9981 0.9404
C9_3 C 0.18649(14) 0.98661(14) 0.7001(2)
H5_3 H 0.2106 0.9661 0.7057
C13_3 C 0.2840(3) 0.8799(2) 0.5042(3)
H7_3 H 0.2557 0.8903 0.4756
C14_3 C 0.3600(2) 0.88638(18) 0.5757(3)
H8_3 H 0.3885 0.9013 0.5946
C15_3 C 0.2855(5) 0.8394(3) 0.5176(6)
H9_3 H 0.2600 0.8236 0.4942
C16_3 C 0.3586(3) 0.8479(2) 0.5944(5)
H10_3 H 0.3834 0.8388 0.6296
C17_3 C 0.3235(4) 0.8244(2) 0.5641(5)
N2_3 N 0.3572(4) 0.76998(19) 0.6210(7)
N3_3 N 0.2728(10) 0.7646(4) 0.5439(14)
C18_3 C 0.3175(9) 0.7860(3) 0.5820(7)
N4_3 N 0.32295(13) 0.59738(12) 0.5325(2)
C29_3 C 0.2840(3) 0.6201(2) 0.5042(3)
H15_3 H 0.2557 0.6097 0.4756
C30_3 C 0.3600(2) 0.61362(18) 0.5757(3)
H16_3 H 0.3885 0.5987 0.5946
C31_3 C 0.2855(5) 0.6606(3) 0.5176(6)
H17_3 H 0.2600 0.6764 0.4942
C32_3 C 0.3586(3) 0.6521(2) 0.5944(5)
H18_3 H 0.3834 0.6612 0.6296
C33_3 C 0.3235(4) 0.6756(2) 0.5641(5)
N5_3 N 0.3572(4) 0.73002(19) 0.6210(7)
N6_3 N 0.2728(10) 0.7354(4) 0.5439(14)
C34_3 C 0.3175(9) 0.7140(3) 0.5820(7)
C6_6 C 1.0000 0.02349(17) 0.7449(3)
H2_6 H 1.0000 0.0296 0.6947
C8_6 C 1.0000 0.00516(17) 0.8907(3)
O5_3 O 0.87134(10) 0.03565(8) 0.91779(13)
C19_3 C 0.80312(15) 0.01390(13) 0.64685(19)
O6_3 O 0.74536(9) 0.03816(9) 0.55363(13)
C20_3 C 0.94917(13) 0.01917(12) 0.78027(18)
C21_3 C 0.95022(14) 0.01011(12) 0.85602(19)
C22_3 C 0.89648(14) 0.01917(12) 0.73688(19)
C23_3 C 0.88618(15) 0.04649(13) 0.6841(2)
H11_3 H 0.9111 0.0664 0.6777
C26_3 C 0.83917(16) 0.04460(14) 0.6406(2)
H14_3 H 0.8316 0.0640 0.6069
C27_3 C 0.75449(15) 0.01054(14) 0.5960(2)
C28_3 C 0.89841(14) 0.00609(13) 0.90361(18)
H4_6 H 1.0000 0.9981 0.9404
O7_3 O 0.89002(9) 0.97356(9) 0.92981(13)
O8_3 O 0.72791(10) 0.97924(10) 0.59690(13)
C24_3 C 0.85955(15) 0.98957(13) 0.7450(2)
H12_3 H 0.8657 0.9713 0.7814
C25_3 C 0.81351(14) 0.98661(14) 0.7001(2)
H13_3 H 0.7894 0.9661 0.7057
C6_7 C 0.0000 0.47651(17) 0.7449(3)
H2_7 H 0.0000 0.4704 0.6947
C8_7 C 0.0000 0.49484(17) 0.8907(3)
H4_7 H 0.0000 0.5019 0.9404
O5_4 O 0.12866(10) 0.46435(8) 0.91779(13)
C19_4 C 0.19688(15) 0.48610(13) 0.64685(19)
O6_4 O 0.25464(9) 0.46184(9) 0.55363(13)
C20_4 C 0.05083(13) 0.48083(12) 0.78027(18)
C21_4 C 0.04978(14) 0.48989(12) 0.85602(19)
O7_4 O 0.10998(9) 0.52644(9) 0.92981(13)
C22_4 C 0.10352(14) 0.48083(12) 0.73688(19)
O8_4 O 0.27209(10) 0.52076(10) 0.59690(13)
C23_4 C 0.11382(15) 0.45351(13) 0.6841(2)
H11_4 H 0.0889 0.4336 0.6777
C24_4 C 0.14045(15) 0.51043(13) 0.7450(2)
H12_4 H 0.1343 0.5287 0.7814
C25_4 C 0.18649(14) 0.51339(14) 0.7001(2)
H13_4 H 0.2106 0.5339 0.7057
C26_4 C 0.16083(16) 0.45540(14) 0.6406(2)
H14_4 H 0.1684 0.4360 0.6069
C27_4 C 0.24551(15) 0.48946(14) 0.5960(2)
C28_4 C 0.10159(14) 0.49391(13) 0.90361(18)
O1_4 O 0.87134(10) 0.46435(8) 0.91779(13)
C1_4 C 0.80312(15) 0.48610(13) 0.64685(19)
C2_4 C 0.94917(13) 0.48083(12) 0.78027(18)
C3_4 C 0.95022(14) 0.48989(12) 0.85602(19)
O3_4 O 0.89002(9) 0.52644(9) 0.92981(13)
C4_4 C 0.89648(14) 0.48083(12) 0.73688(19)
C5_4 C 0.88618(15) 0.45351(13) 0.6841(2)
H1_4 H 0.9111 0.4336 0.6777
C6_8 C 1.0000 0.47651(17) 0.7449(3)
H2_8 H 1.0000 0.4704 0.6947
C7_4 C 0.85955(15) 0.51043(13) 0.7450(2)
H3_4 H 0.8657 0.5287 0.7814
C8_8 C 1.0000 0.49484(17) 0.8907(3)
H4_8 H 1.0000 0.5019 0.9404
C9_4 C 0.81351(14) 0.51339(14) 0.7001(2)
H5_4 H 0.7894 0.5339 0.7057
C10_4 C 0.83917(16) 0.45540(14) 0.6406(2)
H6_4 H 0.8316 0.4360 0.6069
C11_4 C 0.75449(15) 0.48946(14) 0.5960(2)
C12_4 C 0.89841(14) 0.49391(13) 0.90361(18)
C13_4 C 0.7160(3) 0.6201(2) 0.5042(3)
H7_4 H 0.7443 0.6097 0.4756
C14_4 C 0.6400(2) 0.61362(18) 0.5757(3)
H8_4 H 0.6115 0.5987 0.5946
C15_4 C 0.7145(5) 0.6606(3) 0.5176(6)
H9_4 H 0.7400 0.6764 0.4942
C16_4 C 0.6414(3) 0.6521(2) 0.5944(5)
H10_4 H 0.6166 0.6612 0.6296
C17_4 C 0.6765(4) 0.6756(2) 0.5641(5)
N2_4 N 0.6428(4) 0.73002(19) 0.6210(7)
N3_4 N 0.7272(10) 0.7354(4) 0.5439(14)
C18_4 C 0.6825(9) 0.7140(3) 0.5820(7)
N4_4 N 0.67705(13) 0.90262(12) 0.5325(2)
C29_4 C 0.7160(3) 0.8799(2) 0.5042(3)
H15_4 H 0.7443 0.8903 0.4756
C30_4 C 0.6400(2) 0.88638(18) 0.5757(3)
H16_4 H 0.6115 0.9013 0.5946
C31_4 C 0.7145(5) 0.8394(3) 0.5176(6)
H17_4 H 0.7400 0.8236 0.4942
C32_4 C 0.6414(3) 0.8479(2) 0.5944(5)
H18_4 H 0.6166 0.8388 0.6296
C33_4 C 0.6765(4) 0.8244(2) 0.5641(5)
N5_4 N 0.6428(4) 0.76998(19) 0.6210(7)
N6_4 N 0.7272(10) 0.7646(4) 0.5439(14)
C34_4 C 0.6825(9) 0.7860(3) 0.5820(7)
H7_5 H 0.7557 0.6097 0.0244
H9_5 H 0.7600 0.6764 0.0058
H15_5 H 0.7557 0.8903 0.0244
H17_5 H 0.7600 0.8236 0.0058
O11_3 O 0.75464(9) 0.53816(9) 0.05363(13)
O14_3 O 0.77209(10) 0.47924(10) 0.09690(13)
N7_3 N 0.82295(13) 0.40262(12) 0.0325(2)
C1_5 C 0.69688(15) 0.48610(13) 0.85315(19)
O2_3 O 0.75464(9) 0.46184(9) 0.94637(13)
C2_5 C 0.55083(13) 0.48083(12) 0.71973(18)
C3_5 C 0.54978(14) 0.48989(12) 0.64398(19)
C4_5 C 0.60352(14) 0.48083(12) 0.76312(19)
O4_3 O 0.77209(10) 0.52076(10) 0.90310(13)
C5_5 C 0.61382(15) 0.45351(13) 0.8159(2)
H1_5 H 0.5889 0.4336 0.8223
C6_9 C 0.5000 0.47651(17) 0.7551(3)
H2_9 H 0.5000 0.4704 0.8053
C7_5 C 0.64045(15) 0.51043(13) 0.7550(2)
H3_5 H 0.6343 0.5287 0.7186
N1_3 N 0.82295(13) 0.59738(12) 0.9675(2)
C8_9 C 0.5000 0.49484(17) 0.6093(3)
H4_9 H 0.5000 0.5019 0.5596
C9_5 C 0.68649(14) 0.51339(14) 0.7999(2)
H5_5 H 0.7106 0.5339 0.7943
C10_5 C 0.66083(16) 0.45540(14) 0.8594(2)
H6_5 H 0.6684 0.4360 0.8931
C11_5 C 0.74551(15) 0.48946(14) 0.9040(2)
C12_5 C 0.60159(14) 0.49391(13) 0.59639(18)
C13_5 C 0.7840(3) 0.6201(2) 0.9958(3)
C14_5 C 0.8600(2) 0.61362(18) 0.9243(3)
H8_5 H 0.8885 0.5987 0.9054
C15_5 C 0.7855(5) 0.6606(3) 0.9824(6)
C16_5 C 0.8586(3) 0.6521(2) 0.9056(5)
H10_5 H 0.8834 0.6612 0.8704
C17_5 C 0.8235(4) 0.6756(2) 0.9359(5)
N2_5 N 0.8572(4) 0.73002(19) 0.8790(7)
N3_5 N 0.7728(10) 0.7354(4) 0.9561(14)
C18_5 C 0.8175(9) 0.7140(3) 0.9180(7)
O5_5 O 0.37134(10) 0.46435(8) 0.58221(13)
C19_5 C 0.30312(15) 0.48610(13) 0.85315(19)
O6_5 O 0.24536(9) 0.46184(9) 0.94637(13)
C20_5 C 0.44917(13) 0.48083(12) 0.71973(18)
C21_5 C 0.45022(14) 0.48989(12) 0.64398(19)
O7_5 O 0.39002(9) 0.52644(9) 0.57019(13)
C22_5 C 0.39648(14) 0.48083(12) 0.76312(19)
O8_5 O 0.22791(10) 0.52076(10) 0.90310(13)
C23_5 C 0.38618(15) 0.45351(13) 0.8159(2)
H11_5 H 0.4111 0.4336 0.8223
C24_5 C 0.35955(15) 0.51043(13) 0.7550(2)
H12_5 H 0.3657 0.5287 0.7186
C25_5 C 0.31351(14) 0.51339(14) 0.7999(2)
H13_5 H 0.2894 0.5339 0.7943
C26_5 C 0.33917(16) 0.45540(14) 0.8594(2)
H14_5 H 0.3316 0.4360 0.8931
C27_5 C 0.25449(15) 0.48946(14) 0.9040(2)
C28_5 C 0.39841(14) 0.49391(13) 0.59639(18)
N4_5 N 0.82295(13) 0.90262(12) 0.9675(2)
C29_5 C 0.7840(3) 0.8799(2) 0.9958(3)
C30_5 C 0.8600(2) 0.88638(18) 0.9243(3)
H16_5 H 0.8885 0.9013 0.9054
C31_5 C 0.7855(5) 0.8394(3) 0.9824(6)
C32_5 C 0.8586(3) 0.8479(2) 0.9056(5)
H18_5 H 0.8834 0.8388 0.8704
C33_5 C 0.8235(4) 0.8244(2) 0.9359(5)
N5_5 N 0.8572(4) 0.76998(19) 0.8790(7)
N6_5 N 0.7728(10) 0.7646(4) 0.9561(14)
C34_5 C 0.8175(9) 0.7860(3) 0.9180(7)
O14_4 O 0.22791(10) 0.02076(10) 0.09690(13)
N7_4 N 0.17705(13) 0.09738(12) 0.0325(2)
C1_6 C 0.30312(15) 0.01390(13) 0.85315(19)
O2_4 O 0.24536(9) 0.03816(9) 0.94637(13)
C2_6 C 0.44917(13) 0.01917(12) 0.71973(18)
C3_6 C 0.45022(14) 0.01011(12) 0.64398(19)
C4_6 C 0.39648(14) 0.01917(12) 0.76312(19)
C5_6 C 0.38618(15) 0.04649(13) 0.8159(2)
H1_6 H 0.4111 0.0664 0.8223
C6_10 C 0.5000 0.02349(17) 0.7551(3)
H2_10 H 0.5000 0.0296 0.8053
C8_10 C 0.5000 0.00516(17) 0.6093(3)
C10_6 C 0.33917(16) 0.04460(14) 0.8594(2)
H6_6 H 0.3316 0.0640 0.8931
C11_6 C 0.25449(15) 0.01054(14) 0.9040(2)
C12_6 C 0.39841(14) 0.00609(13) 0.59639(18)
O5_6 O 0.62866(10) 0.03565(8) 0.58221(13)
C19_6 C 0.69688(15) 0.01390(13) 0.85315(19)
O6_6 O 0.75464(9) 0.03816(9) 0.94637(13)
C20_6 C 0.55083(13) 0.01917(12) 0.71973(18)
C21_6 C 0.54978(14) 0.01011(12) 0.64398(19)
C22_6 C 0.60352(14) 0.01917(12) 0.76312(19)
C23_6 C 0.61382(15) 0.04649(13) 0.8159(2)
H11_6 H 0.5889 0.0664 0.8223
C26_6 C 0.66083(16) 0.04460(14) 0.8594(2)
H14_6 H 0.6684 0.0640 0.8931
C27_6 C 0.74551(15) 0.01054(14) 0.9040(2)
C28_6 C 0.60159(14) 0.00609(13) 0.59639(18)
H7_6 H 0.2443 0.8903 0.0244
H9_6 H 0.2400 0.8236 0.0058
H15_6 H 0.2443 0.6097 0.0244
H17_6 H 0.2400 0.6764 0.0058
O11_4 O 0.24536(9) 0.96184(9) 0.05363(13)
O4_4 O 0.22791(10) 0.97924(10) 0.90310(13)
C7_6 C 0.35955(15) 0.98957(13) 0.7550(2)
H3_6 H 0.3657 0.9713 0.7186
N1_4 N 0.17705(13) 0.90262(12) 0.9675(2)
H4_10 H 0.5000 0.9981 0.5596
C9_6 C 0.31351(14) 0.98661(14) 0.7999(2)
H5_6 H 0.2894 0.9661 0.7943
C13_6 C 0.2160(3) 0.8799(2) 0.9958(3)
C14_6 C 0.1400(2) 0.88638(18) 0.9243(3)
H8_6 H 0.1115 0.9013 0.9054
C15_6 C 0.2145(5) 0.8394(3) 0.9824(6)
C16_6 C 0.1414(3) 0.8479(2) 0.9056(5)
H10_6 H 0.1166 0.8388 0.8704
C17_6 C 0.1765(4) 0.8244(2) 0.9359(5)
N2_6 N 0.1428(4) 0.76998(19) 0.8790(7)
N3_6 N 0.2272(10) 0.7646(4) 0.9561(14)
C18_6 C 0.1825(9) 0.7860(3) 0.9180(7)
O7_6 O 0.60998(9) 0.97356(9) 0.57019(13)
O8_6 O 0.77209(10) 0.97924(10) 0.90310(13)
C24_6 C 0.64045(15) 0.98957(13) 0.7550(2)
H12_6 H 0.6343 0.9713 0.7186
C25_6 C 0.68649(14) 0.98661(14) 0.7999(2)
H13_6 H 0.7106 0.9661 0.7943
N4_6 N 0.17705(13) 0.59738(12) 0.9675(2)
C29_6 C 0.2160(3) 0.6201(2) 0.9958(3)
C30_6 C 0.1400(2) 0.61362(18) 0.9243(3)
H16_6 H 0.1115 0.5987 0.9054
C31_6 C 0.2145(5) 0.6606(3) 0.9824(6)
C32_6 C 0.1414(3) 0.6521(2) 0.9056(5)
H18_6 H 0.1166 0.6612 0.8704
C33_6 C 0.1765(4) 0.6756(2) 0.9359(5)
N5_6 N 0.1428(4) 0.73002(19) 0.8790(7)
N6_6 N 0.2272(10) 0.7354(4) 0.9561(14)
C34_6 C 0.1825(9) 0.7140(3) 0.9180(7)
C1_7 C 0.69688(15) 0.51390(13) 0.14685(19)
C2_7 C 0.55083(13) 0.51917(12) 0.28027(18)
C3_7 C 0.54978(14) 0.51011(12) 0.35602(19)
C4_7 C 0.60352(14) 0.51917(12) 0.23688(19)
C5_7 C 0.61382(15) 0.54649(13) 0.1841(2)
H1_7 H 0.5889 0.5664 0.1777
C6_11 C 0.5000 0.52349(17) 0.2449(3)
H2_11 H 0.5000 0.5296 0.1947
C7_7 C 0.64045(15) 0.48957(13) 0.2450(2)
H3_7 H 0.6343 0.4713 0.2814
C8_11 C 0.5000 0.50516(17) 0.3907(3)
H4_11 H 0.5000 0.4981 0.4404
C9_7 C 0.68649(14) 0.48661(14) 0.2001(2)
H5_7 H 0.7106 0.4661 0.2057
C10_7 C 0.66083(16) 0.54460(14) 0.1406(2)
H6_7 H 0.6684 0.5640 0.1069
C11_7 C 0.74551(15) 0.51054(14) 0.0960(2)
C12_7 C 0.60159(14) 0.50609(13) 0.40361(18)
C13_7 C 0.7840(3) 0.3799(2) 0.0042(3)
C14_7 C 0.8600(2) 0.38638(18) 0.0757(3)
H8_7 H 0.8885 0.4013 0.0946
C15_7 C 0.7855(5) 0.3394(3) 0.0176(6)
C16_7 C 0.8586(3) 0.3479(2) 0.0944(5)
H10_7 H 0.8834 0.3388 0.1296
C17_7 C 0.8235(4) 0.3244(2) 0.0641(5)
N2_7 N 0.8572(4) 0.26998(19) 0.1210(7)
N3_7 N 0.7728(10) 0.2646(4) 0.0439(14)
C18_7 C 0.8175(9) 0.2860(3) 0.0820(7)
O5_7 O 0.37134(10) 0.53565(8) 0.41779(13)
C19_7 C 0.30312(15) 0.51390(13) 0.14685(19)
O6_7 O 0.24536(9) 0.53816(9) 0.05363(13)
C20_7 C 0.44917(13) 0.51917(12) 0.28027(18)
C21_7 C 0.45022(14) 0.51011(12) 0.35602(19)
O7_7 O 0.39002(9) 0.47356(9) 0.42981(13)
C22_7 C 0.39648(14) 0.51917(12) 0.23688(19)
O8_7 O 0.22791(10) 0.47924(10) 0.09690(13)
C23_7 C 0.38618(15) 0.54649(13) 0.1841(2)
H11_7 H 0.4111 0.5664 0.1777
C24_7 C 0.35955(15) 0.48957(13) 0.2450(2)
H12_7 H 0.3657 0.4713 0.2814
C25_7 C 0.31351(14) 0.48661(14) 0.2001(2)
H13_7 H 0.2894 0.4661 0.2057
C26_7 C 0.33917(16) 0.54460(14) 0.1406(2)
H14_7 H 0.3316 0.5640 0.1069
C27_7 C 0.25449(15) 0.51054(14) 0.0960(2)
C28_7 C 0.39841(14) 0.50609(13) 0.40361(18)
N4_7 N 0.82295(13) 0.09738(12) 0.0325(2)
C29_7 C 0.7840(3) 0.1201(2) 0.0042(3)
C30_7 C 0.8600(2) 0.11362(18) 0.0757(3)
H16_7 H 0.8885 0.0987 0.0946
C31_7 C 0.7855(5) 0.1606(3) 0.0176(6)
C32_7 C 0.8586(3) 0.1521(2) 0.0944(5)
H18_7 H 0.8834 0.1612 0.1296
C33_7 C 0.8235(4) 0.1756(2) 0.0641(5)
N5_7 N 0.8572(4) 0.23002(19) 0.1210(7)
N6_7 N 0.7728(10) 0.2354(4) 0.0439(14)
C34_7 C 0.8175(9) 0.2140(3) 0.0820(7)
H7_7 H 0.7557 0.3903 0.9756
H9_7 H 0.7600 0.3236 0.9942
H15_7 H 0.7557 0.1097 0.9756
H17_7 H 0.7600 0.1764 0.9942
C7_8 C 0.35955(15) 0.01043(13) 0.2450(2)
H3_8 H 0.3657 0.0287 0.2814
H4_12 H 0.5000 0.0019 0.4404
C9_8 C 0.31351(14) 0.01339(14) 0.2001(2)
H5_8 H 0.2894 0.0339 0.2057
C13_8 C 0.2160(3) 0.1201(2) 0.0042(3)
C14_8 C 0.1400(2) 0.11362(18) 0.0757(3)
H8_8 H 0.1115 0.0987 0.0946
C15_8 C 0.2145(5) 0.1606(3) 0.0176(6)
C16_8 C 0.1414(3) 0.1521(2) 0.0944(5)
H10_8 H 0.1166 0.1612 0.1296
C17_8 C 0.1765(4) 0.1756(2) 0.0641(5)
N2_8 N 0.1428(4) 0.23002(19) 0.1210(7)
N3_8 N 0.2272(10) 0.2354(4) 0.0439(14)
C18_8 C 0.1825(9) 0.2140(3) 0.0820(7)
O7_8 O 0.60998(9) 0.02644(9) 0.42981(13)
O8_8 O 0.77209(10) 0.02076(10) 0.09690(13)
C24_8 C 0.64045(15) 0.01043(13) 0.2450(2)
H12_8 H 0.6343 0.0287 0.2814
C25_8 C 0.68649(14) 0.01339(14) 0.2001(2)
H13_8 H 0.7106 0.0339 0.2057
N4_8 N 0.17705(13) 0.40262(12) 0.0325(2)
C29_8 C 0.2160(3) 0.3799(2) 0.0042(3)
C30_8 C 0.1400(2) 0.38638(18) 0.0757(3)
H16_8 H 0.1115 0.4013 0.0946
C31_8 C 0.2145(5) 0.3394(3) 0.0176(6)
C32_8 C 0.1414(3) 0.3479(2) 0.0944(5)
H18_8 H 0.1166 0.3388 0.1296
C33_8 C 0.1765(4) 0.3244(2) 0.0641(5)
N5_8 N 0.1428(4) 0.26998(19) 0.1210(7)
N6_8 N 0.2272(10) 0.2646(4) 0.0439(14)
C34_8 C 0.1825(9) 0.2860(3) 0.0820(7)
H7_8 H 0.2443 0.1097 0.9756
H9_8 H 0.2400 0.1764 0.9942
H15_8 H 0.2443 0.3903 0.9756
H17_8 H 0.2400 0.3236 0.9942
C1_8 C 0.30312(15) 0.98610(13) 0.14685(19)
C2_8 C 0.44917(13) 0.98083(12) 0.28027(18)
C3_8 C 0.45022(14) 0.98989(12) 0.35602(19)
C4_8 C 0.39648(14) 0.98083(12) 0.23688(19)
C5_8 C 0.38618(15) 0.95351(13) 0.1841(2)
H1_8 H 0.4111 0.9336 0.1777
C6_12 C 0.5000 0.97651(17) 0.2449(3)
H2_12 H 0.5000 0.9704 0.1947
C8_12 C 0.5000 0.99484(17) 0.3907(3)
C10_8 C 0.33917(16) 0.95540(14) 0.1406(2)
H6_8 H 0.3316 0.9360 0.1069
C11_8 C 0.25449(15) 0.98946(14) 0.0960(2)
C12_8 C 0.39841(14) 0.99391(13) 0.40361(18)
O5_8 O 0.62866(10) 0.96435(8) 0.41779(13)
C19_8 C 0.69688(15) 0.98610(13) 0.14685(19)
O6_8 O 0.75464(9) 0.96184(9) 0.05363(13)
C20_8 C 0.55083(13) 0.98083(12) 0.28027(18)
C21_8 C 0.54978(14) 0.98989(12) 0.35602(19)
C22_8 C 0.60352(14) 0.98083(12) 0.23688(19)
C23_8 C 0.61382(15) 0.95351(13) 0.1841(2)
H11_8 H 0.5889 0.9336 0.1777
C26_8 C 0.66083(16) 0.95540(14) 0.1406(2)
H14_8 H 0.6684 0.9360 0.1069
C27_8 C 0.74551(15) 0.98946(14) 0.0960(2)
C28_8 C 0.60159(14) 0.99391(13) 0.40361(18)
loop_
_geom_bond_atom_site_label_1
_geom_bond_atom_site_label_2
_geom_bond_site_symmetry_1
_geom_bond_site_symmetry_2
Zn1 O4 1_555 1_555
H3 C7 1_555 1_555
N1 Zn1 1_555 1_555
C9 C7 1_555 1_555
H5 C9 1_555 1_555
C13 N1 1_555 1_555
H7 C13 1_555 1_555
C14 N1 1_555 1_555
H8 C14 1_555 1_555
C15 C13 1_555 1_555
H9 C15 1_555 1_555
C16 C14 1_555 1_555
H10 C16 1_555 1_555
C17 C15 1_555 1_555
N2 C18 1_555 1_555
N3 C18 1_555 1_555
C18 C17 1_555 1_555
N4 C29 1_555 1_555
C29 H15 1_555 1_555
C30 N4 1_555 1_555
H16 C30 1_555 1_555
C31 C29 1_555 1_555
H17 C31 1_555 1_555
C32 C30 1_555 1_555
H18 C32 1_555 1_555
C33 C31 1_555 1_555
N5 N2 1_555 1_555
N6 N3 1_555 1_555
C34 C33 1_555 1_555
Zn4 O3 1_555 1_555
Zn7 N4 1_555 1_555
O9 Zn1 1_555 1_555
O11 Zn1 1_555 1_555
O13 Zn1 1_555 1_555
C16 C17 1_555 1_555
C32 C33 1_555 1_555
N5 C34 1_555 1_555
N6 C34 1_555 1_555
O1 C12 1_555 1_555
O2 C11 1_555 1_555
C2 C3 1_555 1_555
C3 C8 1_555 1_555
C4 C2 1_555 1_555
C5 C4 1_555 1_555
H1 C5 1_555 1_555
C6 C2 1_555 1_555
H2 C6 1_555 1_555
C10 C1 1_555 1_555
H6 C10 1_555 1_555
C11 C1 1_555 1_555
C12 C3 1_555 1_555
Zn2 O2 1_555 1_555
O10 Zn2 1_555 1_555
O12 Zn2 1_555 1_555
O14 Zn2 1_555 1_555
N7 Zn2 1_555 1_555
C5 C10 1_555 1_555
H12 C24 1_555 1_555
C25 C24 1_555 1_555
H13 C25 1_555 1_555
Zn6 O8 1_555 1_555
Zn8 O7 1_555 1_555
H2_2 C6_2 1_555 1_555
O5 C28 1_555 1_555
O6 C27 1_555 1_555
C20 C6_2 1_555 1_555
C21 C8_2 1_555 1_555
C22 C20 1_555 1_555
C23 C22 1_555 1_555
H11 C23 1_555 1_555
C26 C19 1_555 1_555
H14 C26 1_555 1_555
C27 C19 1_555 1_555
C28 C21 1_555 1_555
Zn5 O6 1_555 1_555
C20 C21 1_555 1_555
C23 C26 1_555 1_555
H2_3 C6_3 1_555 1_555
C8_3 H4_3 1_555 1_555
O5_2 C28_2 1_555 1_555
C19_2 C25_2 1_555 1_555
O6_2 C27_2 1_555 1_555
C20_2 C6_3 1_555 1_555
C21_2 C8_3 1_555 1_555
O7_2 C28_2 1_555 1_555
C22_2 C20_2 1_555 1_555
O8_2 C27_2 1_555 1_555
C23_2 C22_2 1_555 1_555
H11_2 C23_2 1_555 1_555
C24_2 C22_2 1_555 1_555
H12_2 C24_2 1_555 1_555
C25_2 C24_2 1_555 1_555
H13_2 C25_2 1_555 1_555
C26_2 C19_2 1_555 1_555
H14_2 C26_2 1_555 1_555
C27_2 C19_2 1_555 1_555
C28_2 C21_2 1_555 1_555
Zn5_2 O6_2 1_555 1_555
Zn7 O8_2 1_555 1_555
Zn8_2 O7_2 1_555 1_555
C20_2 C21_2 1_555 1_555
C23_2 C26_2 1_555 1_555
Zn1_2 O4_2 1_555 1_555
O1_2 C12_2 1_555 1_555
C1_2 C9_2 1_555 1_555
O2_2 C11_2 1_555 1_555
C2_2 C3_2 1_555 1_555
C3_2 C8_4 1_555 1_555
O3_2 C12_2 1_555 1_555
C4_2 C2_2 1_555 1_555
O4_2 C11_2 1_555 1_555
C5_2 C4_2 1_555 1_555
H1_2 C5_2 1_555 1_555
C6_4 C2_2 1_555 1_555
H2_4 C6_4 1_555 1_555
C7_2 C4_2 1_555 1_555
H3_2 C7_2 1_555 1_555
N1_2 Zn1_2 1_555 1_555
C8_4 H4_4 1_555 1_555
C9_2 C7_2 1_555 1_555
H5_2 C9_2 1_555 1_555
C10_2 C1_2 1_555 1_555
H6_2 C10_2 1_555 1_555
C11_2 C1_2 1_555 1_555
C12_2 C3_2 1_555 1_555
C13_2 N1_2 1_555 1_555
H7_2 C13_2 1_555 1_555
C14_2 N1_2 1_555 1_555
H8_2 C14_2 1_555 1_555
C15_2 C13_2 1_555 1_555
H9_2 C15_2 1_555 1_555
C16_2 C14_2 1_555 1_555
H10_2 C16_2 1_555 1_555
C17_2 C15_2 1_555 1_555
N2_2 C18_2 1_555 1_555
N3_2 C18_2 1_555 1_555
C18_2 C17_2 1_555 1_555
N4_2 C29_2 1_555 1_555
C29_2 H15_2 1_555 1_555
C30_2 N4_2 1_555 1_555
H16_2 C30_2 1_555 1_555
C31_2 C29_2 1_555 1_555
H17_2 C31_2 1_555 1_555
C32_2 C30_2 1_555 1_555
H18_2 C32_2 1_555 1_555
C33_2 C31_2 1_555 1_555
N5_2 N2_2 1_555 1_555
N6_2 N3_2 1_555 1_555
C34_2 C33_2 1_555 1_555
Zn2_2 O2_2 1_555 1_555
Zn4_2 O3_2 1_555 1_555
Zn6 N4_2 1_555 1_555
O9_2 Zn1_2 1_555 1_555
O10_2 Zn2_2 1_555 1_555
O11_2 Zn1_2 1_555 1_555
O12_2 Zn2_2 1_555 1_555
O13_2 Zn1_2 1_555 1_555
O14_2 Zn2_2 1_555 1_555
N7_2 Zn2_2 1_555 1_555
C5_2 C10_2 1_555 1_555
C16_2 C17_2 1_555 1_555
C32_2 C33_2 1_555 1_555
N5_2 C34_2 1_555 1_555
N6_2 C34_2 1_555 1_555
O1_3 C12_3 1_555 1_555
O11 C11_3 1_555 1_555
C2_3 C3_3 1_555 1_555
C3_3 C8_5 1_555 1_555
C4_3 C2_3 1_555 1_555
C5_3 C4_3 1_555 1_555
H1_3 C5_3 1_555 1_555
C6_5 C2_3 1_555 1_555
H2_5 C6_5 1_555 1_555
C10_3 C1_3 1_555 1_555
H6_3 C10_3 1_555 1_555
C11_3 C1_3 1_555 1_555
C12_3 C3_3 1_555 1_555
C5_3 C10_3 1_555 1_555
H3_3 C7_3 1_555 1_555
C9_3 C7_3 1_555 1_555
H5_3 C9_3 1_555 1_555
C13_3 N7 1_555 1_555
H7_3 C13_3 1_555 1_555
C14_3 N7 1_555 1_555
H8_3 C14_3 1_555 1_555
C15_3 C13_3 1_555 1_555
H9_3 C15_3 1_555 1_555
C16_3 C14_3 1_555 1_555
H10_3 C16_3 1_555 1_555
C17_3 C15_3 1_555 1_555
N2_3 C18_3 1_555 1_555
N3_3 C18_3 1_555 1_555
C18_3 C17_3 1_555 1_555
N4_3 C29_3 1_555 1_555
C29_3 H15_3 1_555 1_555
C30_3 N4_3 1_555 1_555
H16_3 C30_3 1_555 1_555
C31_3 C29_3 1_555 1_555
H17_3 C31_3 1_555 1_555
C32_3 C30_3 1_555 1_555
H18_3 C32_3 1_555 1_555
C33_3 C31_3 1_555 1_555
N5_3 N2_3 1_555 1_555
N6_3 N3_3 1_555 1_555
C34_3 C33_3 1_555 1_555
Zn3 O3_3 1_555 1_555
Zn5_2 N4_3 1_555 1_555
C16_3 C17_3 1_555 1_555
C32_3 C33_3 1_555 1_555
N5_3 C34_3 1_555 1_555
N6_3 C34_3 1_555 1_555
H2_6 C6_6 1_555 1_555
O5_3 C28_3 1_555 1_555
O6_3 C27_3 1_555 1_555
C20_3 C6_6 1_555 1_555
C21_3 C8_6 1_555 1_555
C22_3 C20_3 1_555 1_555
C23_3 C22_3 1_555 1_555
H11_3 C23_3 1_555 1_555
C26_3 C19_3 1_555 1_555
H14_3 C26_3 1_555 1_555
C27_3 C19_3 1_555 1_555
C28_3 C21_3 1_555 1_555
Zn6 O6_3 1_555 1_555
C20_3 C21_3 1_555 1_555
C23_3 C26_3 1_555 1_555
H12_3 C24_3 1_555 1_555
C25_3 C24_3 1_555 1_555
H13_3 C25_3 1_555 1_555
Zn5 O8_3 1_555 1_555
Zn9 O7_3 1_555 1_555
H2_7 C6_7 1_555 1_555
C8_7 H4_7 1_555 1_555
O5_4 C28_4 1_555 1_555
C19_4 C25_4 1_555 1_555
O6_4 C27_4 1_555 1_555
C20_4 C6_7 1_555 1_555
C21_4 C8_7 1_555 1_555
O7_4 C28_4 1_555 1_555
C22_4 C20_4 1_555 1_555
O8_4 C27_4 1_555 1_555
C23_4 C22_4 1_555 1_555
H11_4 C23_4 1_555 1_555
C24_4 C22_4 1_555 1_555
H12_4 C24_4 1_555 1_555
C25_4 C24_4 1_555 1_555
H13_4 C25_4 1_555 1_555
C26_4 C19_4 1_555 1_555
H14_4 C26_4 1_555 1_555
C27_4 C19_4 1_555 1_555
C28_4 C21_4 1_555 1_555
Zn7 O6_4 1_555 1_555
Zn5_2 O8_4 1_555 1_555
Zn9_2 O7_4 1_555 1_555
C20_4 C21_4 1_555 1_555
C23_4 C26_4 1_555 1_555
O1_4 C12_4 1_555 1_555
C1_4 C9_4 1_555 1_555
O11_2 C11_4 1_555 1_555
C2_4 C3_4 1_555 1_555
C3_4 C8_8 1_555 1_555
O3_4 C12_4 1_555 1_555
C4_4 C2_4 1_555 1_555
O14_2 C11_4 1_555 1_555
C5_4 C4_4 1_555 1_555
H1_4 C5_4 1_555 1_555
C6_8 C2_4 1_555 1_555
H2_8 C6_8 1_555 1_555
C7_4 C4_4 1_555 1_555
H3_4 C7_4 1_555 1_555
C8_8 H4_8 1_555 1_555
C9_4 C7_4 1_555 1_555
H5_4 C9_4 1_555 1_555
C10_4 C1_4 1_555 1_555
H6_4 C10_4 1_555 1_555
C11_4 C1_4 1_555 1_555
C12_4 C3_4 1_555 1_555
C13_4 N7_2 1_555 1_555
H7_4 C13_4 1_555 1_555
C14_4 N7_2 1_555 1_555
H8_4 C14_4 1_555 1_555
C15_4 C13_4 1_555 1_555
H9_4 C15_4 1_555 1_555
C16_4 C14_4 1_555 1_555
H10_4 C16_4 1_555 1_555
C17_4 C15_4 1_555 1_555
N2_4 C18_4 1_555 1_555
N3_4 C18_4 1_555 1_555
C18_4 C17_4 1_555 1_555
N4_4 C29_4 1_555 1_555
C29_4 H15_4 1_555 1_555
C30_4 N4_4 1_555 1_555
H16_4 C30_4 1_555 1_555
C31_4 C29_4 1_555 1_555
H17_4 C31_4 1_555 1_555
C32_4 C30_4 1_555 1_555
H18_4 C32_4 1_555 1_555
C33_4 C31_4 1_555 1_555
N5_4 N2_4 1_555 1_555
N6_4 N3_4 1_555 1_555
C34_4 C33_4 1_555 1_555
Zn3_2 O3_4 1_555 1_555
Zn5 N4_4 1_555 1_555
C5_4 C10_4 1_555 1_555
C16_4 C17_4 1_555 1_555
C32_4 C33_4 1_555 1_555
N5_4 C34_4 1_555 1_555
N6_4 C34_4 1_555 1_555
O14_3 Zn4_2 1_555 1_555
N7_3 Zn4_2 1_555 1_555
Zn3_2 O4_3 1_555 1_555
O9_2 C12_5 1_555 1_555
C1_5 C9_5 1_555 1_555
O2_3 C11_5 1_555 1_555
C2_5 C3_5 1_555 1_555
C3_5 C8_9 1_555 1_555
O12_2 C12_5 1_555 1_555
C4_5 C2_5 1_555 1_555
O4_3 C11_5 1_555 1_555
C5_5 C4_5 1_555 1_555
H1_5 C5_5 1_555 1_555
C6_9 C2_5 1_555 1_555
H2_9 C6_9 1_555 1_555
C7_5 C4_5 1_555 1_555
H3_5 C7_5 1_555 1_555
N1_3 Zn3_2 1_555 1_555
C8_9 H4_9 1_555 1_555
C9_5 C7_5 1_555 1_555
H5_5 C9_5 1_555 1_555
C10_5 C1_5 1_555 1_555
H6_5 C10_5 1_555 1_555
C11_5 C1_5 1_555 1_555
C12_5 C3_5 1_555 1_555
C13_5 N1_3 1_555 1_555
C14_5 N1_3 1_555 1_555
H8_5 C14_5 1_555 1_555
C15_5 C13_5 1_555 1_555
C16_5 C14_5 1_555 1_555
H10_5 C16_5 1_555 1_555
C17_5 C15_5 1_555 1_555
N2_5 C18_5 1_555 1_555
N3_5 C18_5 1_555 1_555
C18_5 C17_5 1_555 1_555
O5_5 C28_5 1_555 1_555
C19_5 C25_5 1_555 1_555
O6_5 C27_5 1_555 1_555
C20_5 C6_9 1_555 1_555
C21_5 C8_9 1_555 1_555
O7_5 C28_5 1_555 1_555
C22_5 C20_5 1_555 1_555
O8_5 C27_5 1_555 1_555
C23_5 C22_5 1_555 1_555
H11_5 C23_5 1_555 1_555
C24_5 C22_5 1_555 1_555
H12_5 C24_5 1_555 1_555
C25_5 C24_5 1_555 1_555
H13_5 C25_5 1_555 1_555
C26_5 C19_5 1_555 1_555
H14_5 C26_5 1_555 1_555
C27_5 C19_5 1_555 1_555
C28_5 C21_5 1_555 1_555
N4_5 C29_5 1_555 1_555
C30_5 N4_5 1_555 1_555
H16_5 C30_5 1_555 1_555
C31_5 C29_5 1_555 1_555
C32_5 C30_5 1_555 1_555
H18_5 C32_5 1_555 1_555
C33_5 C31_5 1_555 1_555
N5_5 N2_5 1_555 1_555
N6_5 N3_5 1_555 1_555
C34_5 C33_5 1_555 1_555
Zn9_2 O8_5 1_555 1_555
Zn9 N4_5 1_555 1_555
Zn5_2 O7_5 1_555 1_555
Zn7 O5_5 1_555 1_555
C5_5 C10_5 1_555 1_555
C16_5 C17_5 1_555 1_555
C20_5 C21_5 1_555 1_555
C23_5 C26_5 1_555 1_555
C32_5 C33_5 1_555 1_555
N5_5 C34_5 1_555 1_555
N6_5 C34_5 1_555 1_555
O14_4 Zn4 1_555 1_555
N7_4 Zn4 1_555 1_555
O9 C12_6 1_555 1_555
O2_4 C11_6 1_555 1_555
C2_6 C3_6 1_555 1_555
C3_6 C8_10 1_555 1_555
C4_6 C2_6 1_555 1_555
C5_6 C4_6 1_555 1_555
H1_6 C5_6 1_555 1_555
C6_10 C2_6 1_555 1_555
H2_10 C6_10 1_555 1_555
C10_6 C1_6 1_555 1_555
H6_6 C10_6 1_555 1_555
C11_6 C1_6 1_555 1_555
C12_6 C3_6 1_555 1_555
O5_6 C28_6 1_555 1_555
O6_6 C27_6 1_555 1_555
C20_6 C6_10 1_555 1_555
C21_6 C8_10 1_555 1_555
C22_6 C20_6 1_555 1_555
C23_6 C22_6 1_555 1_555
H11_6 C23_6 1_555 1_555
C26_6 C19_6 1_555 1_555
H14_6 C26_6 1_555 1_555
C27_6 C19_6 1_555 1_555
C28_6 C21_6 1_555 1_555
Zn6 O5_6 1_555 1_555
C5_6 C10_6 1_555 1_555
C20_6 C21_6 1_555 1_555
C23_6 C26_6 1_555 1_555
Zn3 O4_4 1_555 1_555
H3_6 C7_6 1_555 1_555
N1_4 Zn3 1_555 1_555
C9_6 C7_6 1_555 1_555
H5_6 C9_6 1_555 1_555
C13_6 N1_4 1_555 1_555
C14_6 N1_4 1_555 1_555
H8_6 C14_6 1_555 1_555
C15_6 C13_6 1_555 1_555
C16_6 C14_6 1_555 1_555
H10_6 C16_6 1_555 1_555
C17_6 C15_6 1_555 1_555
N2_6 C18_6 1_555 1_555
N3_6 C18_6 1_555 1_555
C18_6 C17_6 1_555 1_555
H12_6 C24_6 1_555 1_555
C25_6 C24_6 1_555 1_555
H13_6 C25_6 1_555 1_555
N4_6 C29_6 1_555 1_555
C30_6 N4_6 1_555 1_555
H16_6 C30_6 1_555 1_555
C31_6 C29_6 1_555 1_555
C32_6 C30_6 1_555 1_555
H18_6 C32_6 1_555 1_555
C33_6 C31_6 1_555 1_555
N5_6 N2_6 1_555 1_555
N6_6 N3_6 1_555 1_555
C34_6 C33_6 1_555 1_555
Zn9 O8_6 1_555 1_555
Zn9_2 N4_6 1_555 1_555
Zn5 O7_6 1_555 1_555
C16_6 C17_6 1_555 1_555
C32_6 C33_6 1_555 1_555
N5_6 C34_6 1_555 1_555
N6_6 C34_6 1_555 1_555
O10_2 C12_7 1_555 1_555
C1_7 C9_7 1_555 1_555
O11_3 C11_7 1_555 1_555
C2_7 C3_7 1_555 1_555
C3_7 C8_11 1_555 1_555
O13_2 C12_7 1_555 1_555
C4_7 C2_7 1_555 1_555
O14_3 C11_7 1_555 1_555
C5_7 C4_7 1_555 1_555
H1_7 C5_7 1_555 1_555
C6_11 C2_7 1_555 1_555
H2_11 C6_11 1_555 1_555
C7_7 C4_7 1_555 1_555
H3_7 C7_7 1_555 1_555
C8_11 H4_11 1_555 1_555
C9_7 C7_7 1_555 1_555
H5_7 C9_7 1_555 1_555
C10_7 C1_7 1_555 1_555
H6_7 C10_7 1_555 1_555
C11_7 C1_7 1_555 1_555
C12_7 C3_7 1_555 1_555
C13_7 N7_3 1_555 1_555
C14_7 N7_3 1_555 1_555
H8_7 C14_7 1_555 1_555
C15_7 C13_7 1_555 1_555
C16_7 C14_7 1_555 1_555
H10_7 C16_7 1_555 1_555
C17_7 C15_7 1_555 1_555
N2_7 C18_7 1_555 1_555
N3_7 C18_7 1_555 1_555
C18_7 C17_7 1_555 1_555
O5_7 C28_7 1_555 1_555
C19_7 C25_7 1_555 1_555
O6_7 C27_7 1_555 1_555
C20_7 C6_11 1_555 1_555
C21_7 C8_11 1_555 1_555
O7_7 C28_7 1_555 1_555
C22_7 C20_7 1_555 1_555
O8_7 C27_7 1_555 1_555
C23_7 C22_7 1_555 1_555
H11_7 C23_7 1_555 1_555
C24_7 C22_7 1_555 1_555
H12_7 C24_7 1_555 1_555
C25_7 C24_7 1_555 1_555
H13_7 C25_7 1_555 1_555
C26_7 C19_7 1_555 1_555
H14_7 C26_7 1_555 1_555
C27_7 C19_7 1_555 1_555
C28_7 C21_7 1_555 1_555
N4_7 C29_7 1_555 1_555
C30_7 N4_7 1_555 1_555
H16_7 C30_7 1_555 1_555
C31_7 C29_7 1_555 1_555
C32_7 C30_7 1_555 1_555
H18_7 C32_7 1_555 1_555
C33_7 C31_7 1_555 1_555
N5_7 N2_7 1_555 1_555
N6_7 N3_7 1_555 1_555
C34_7 C33_7 1_555 1_555
Zn8_2 O8_7 1_555 1_555
Zn8 N4_7 1_555 1_555
Zn7 O7_7 1_555 1_555
Zn5_2 O5_7 1_555 1_555
C5_7 C10_7 1_555 1_555
C16_7 C17_7 1_555 1_555
C20_7 C21_7 1_555 1_555
C23_7 C26_7 1_555 1_555
C32_7 C33_7 1_555 1_555
N5_7 C34_7 1_555 1_555
N6_7 C34_7 1_555 1_555
H3_8 C7_8 1_555 1_555
C9_8 C7_8 1_555 1_555
H5_8 C9_8 1_555 1_555
C13_8 N7_4 1_555 1_555
C14_8 N7_4 1_555 1_555
H8_8 C14_8 1_555 1_555
C15_8 C13_8 1_555 1_555
C16_8 C14_8 1_555 1_555
H10_8 C16_8 1_555 1_555
C17_8 C15_8 1_555 1_555
N2_8 C18_8 1_555 1_555
N3_8 C18_8 1_555 1_555
C18_8 C17_8 1_555 1_555
H12_8 C24_8 1_555 1_555
C25_8 C24_8 1_555 1_555
H13_8 C25_8 1_555 1_555
N4_8 C29_8 1_555 1_555
C30_8 N4_8 1_555 1_555
H16_8 C30_8 1_555 1_555
C31_8 C29_8 1_555 1_555
C32_8 C30_8 1_555 1_555
H18_8 C32_8 1_555 1_555
C33_8 C31_8 1_555 1_555
N5_8 N2_8 1_555 1_555
N6_8 N3_8 1_555 1_555
C34_8 C33_8 1_555 1_555
Zn8 O8_8 1_555 1_555
Zn8_2 N4_8 1_555 1_555
Zn6 O7_8 1_555 1_555
C16_8 C17_8 1_555 1_555
C32_8 C33_8 1_555 1_555
N5_8 C34_8 1_555 1_555
N6_8 C34_8 1_555 1_555
O10 C12_8 1_555 1_555
O11_4 C11_8 1_555 1_555
C2_8 C3_8 1_555 1_555
C3_8 C8_12 1_555 1_555
C4_8 C2_8 1_555 1_555
C5_8 C4_8 1_555 1_555
H1_8 C5_8 1_555 1_555
C6_12 C2_8 1_555 1_555
H2_12 C6_12 1_555 1_555
C10_8 C1_8 1_555 1_555
H6_8 C10_8 1_555 1_555
C11_8 C1_8 1_555 1_555
C12_8 C3_8 1_555 1_555
O5_8 C28_8 1_555 1_555
O6_8 C27_8 1_555 1_555
C20_8 C6_12 1_555 1_555
C21_8 C8_12 1_555 1_555
C22_8 C20_8 1_555 1_555
C23_8 C22_8 1_555 1_555
H11_8 C23_8 1_555 1_555
C26_8 C19_8 1_555 1_555
H14_8 C26_8 1_555 1_555
C27_8 C19_8 1_555 1_555
C28_8 C21_8 1_555 1_555
Zn5 O5_8 1_555 1_555
C5_8 C10_8 1_555 1_555
C20_8 C21_8 1_555 1_555
C23_8 C26_8 1_555 1_555

#END
