
###############################################################################
#
# This file contains modified crystal structure data generated from the
# MOF subset of the Cambridge Structural Database (CSD) v543 
# hosted by the Cambridge Crystallographic Data Centre (CCDC).
#
# This work is licensed under the Creative Commons
# Attribution-NonCommercial-ShareAlike 4.0 International License.
# To view a copy of this license, visit
# http://creativecommons.org/licenses/by-nc-sa/4.0/
# or send a letter to
# Creative Commons, PO Box 1866, Mountain View, CA 94042, USA.
#
# CIF created using the CSD Python API on 29 September 2022
# The structure has been converted into the P1 space group
# The structure has a 3D framework
# The original CSD entry KUTNOE is in the orthorhombic crystal system
# The framework has been calculated to contain at least 10.0% void space
# The void calculation uses a probe of radius 1.32A, grid spacing 0.4
#
###############################################################################

data_KUTNOE
_chemical_formula_moiety         '(C312 H184 N16 O50 Zn8)n'
_symmetry_cell_setting           triclinic
_symmetry_space_group_name_H-M   'P 1'
_symmetry_Int_Tables_number      1
_space_group_name_Hall           'P 1'
loop_
_symmetry_equiv_pos_site_id
_symmetry_equiv_pos_as_xyz
1 x,y,z
_cell_length_a                   24.137(5)
_cell_length_b                   36.488(5)
_cell_length_c                   18.163(3)
_cell_angle_alpha                90
_cell_angle_beta                 90
_cell_angle_gamma                90
_cell_volume                     15996.4
loop_
_atom_site_label
_atom_site_type_symbol
_atom_site_fract_x
_atom_site_fract_y
_atom_site_fract_z
Zn1 Zn 0.17940(2) 0.46036(2) 0.50909(3)
O1 O 0.38952(11) 0.52836(10) 0.06812(18)
O2 O 0.24561(12) 0.46605(9) 0.44365(17)
O3 O 0.37209(12) 0.46789(10) 0.08342(17)
O4 O 0.22902(12) 0.52314(10) 0.40405(17)
N1 N 0.17806(15) 0.40617(12) 0.5200(2)
C1 C 0.44981(16) 0.49399(13) 0.1423(2)
C2 C 0.5000 0.49841(18) 0.1078(4)
H1 H 0.5000 0.5048 0.0582
C3 C 0.39842(16) 0.49774(13) 0.0957(2)
C4 C 0.44956(16) 0.48537(16) 0.2176(2)
C5 C 0.39737(17) 0.48571(15) 0.2615(2)
C6 C 0.31384(19) 0.51661(16) 0.2987(3)
H2 H 0.2896 0.5362 0.2930
C7 C 0.25463(18) 0.49355(15) 0.4039(2)
C8 C 0.38699(18) 0.45904(14) 0.3140(2)
H3 H 0.4118 0.4397 0.3190
C9 C 0.5000 0.4815(2) 0.2529(4)
H4 H 0.5000 0.4759 0.3028
C10 C 0.30368(18) 0.49078(16) 0.3522(3)
C11 C 0.34049(18) 0.46040(15) 0.3594(3)
H5 H 0.3336 0.4420 0.3935
C12 C 0.35907(19) 0.51371(16) 0.2541(3)
H6 H 0.3644 0.5312 0.2175
C13 C 0.1790(2) 0.32975(18) 0.5281(5)
C14 C 0.1784(3) 0.28815(17) 0.5311(5)
C15 C 0.2283(3) 0.26948(18) 0.5437(6)
H7 H 0.2609 0.2824 0.5519
C16 C 0.1388(3) 0.3869(2) 0.5476(5)
H8 H 0.1091 0.3997 0.5678
C17 C 0.2212(3) 0.3848(2) 0.4945(4)
H9 H 0.2513 0.3966 0.4731
C18 C 0.2225(3) 0.3470(2) 0.4987(5)
H10 H 0.2529 0.3339 0.4815
C19 C 0.1364(3) 0.3504(2) 0.5503(7)
H11 H 0.1045 0.3392 0.5680
C20 C 0.1300(3) 0.26849(19) 0.5303(7)
H12 H 0.0964 0.2809 0.5297
O5 O 0.61048(11) 0.52836(10) 0.06812(18)
O6 O 0.75439(12) 0.46605(9) 0.44365(17)
O7 O 0.62791(12) 0.46789(10) 0.08342(17)
O8 O 0.77098(12) 0.52314(10) 0.40405(17)
C21 C 0.55019(16) 0.49399(13) 0.1423(2)
C22 C 0.60158(16) 0.49774(13) 0.0957(2)
C23 C 0.55044(16) 0.48537(16) 0.2176(2)
C24 C 0.60263(17) 0.48571(15) 0.2615(2)
C25 C 0.68616(19) 0.51661(16) 0.2987(3)
H13 H 0.7104 0.5362 0.2930
C26 C 0.74537(18) 0.49355(15) 0.4039(2)
C27 C 0.61301(18) 0.45904(14) 0.3140(2)
H14 H 0.5882 0.4397 0.3190
C28 C 0.69632(18) 0.49078(16) 0.3522(3)
C29 C 0.65951(18) 0.46040(15) 0.3594(3)
H15 H 0.6664 0.4420 0.3935
C30 C 0.64093(19) 0.51371(16) 0.2541(3)
H16 H 0.6356 0.5312 0.2175
N2 N 0.17806(15) 0.09383(12) 0.5200(2)
C31 C 0.1790(2) 0.17025(18) 0.5281(5)
C32 C 0.1784(3) 0.21185(17) 0.5311(5)
C33 C 0.2283(3) 0.23052(18) 0.5437(6)
H17 H 0.2609 0.2176 0.5519
C34 C 0.1388(3) 0.1131(2) 0.5476(5)
H18 H 0.1091 0.1003 0.5678
C35 C 0.2212(3) 0.1152(2) 0.4945(4)
H19 H 0.2513 0.1034 0.4731
C36 C 0.2225(3) 0.1530(2) 0.4987(5)
H20 H 0.2529 0.1661 0.4815
C37 C 0.1364(3) 0.1496(2) 0.5503(7)
H21 H 0.1045 0.1608 0.5680
C38 C 0.1300(3) 0.23151(19) 0.5303(7)
H22 H 0.0964 0.2191 0.5297
Zn2 Zn 0.17940(2) 0.53964(2) 0.49091(3)
Zn3 Zn 0.32060(2) 0.53964(2) 0.00909(3)
Zn5 Zn 0.82060(2) 0.53964(2) 0.49091(3)
Zn6 Zn 0.17940(2) 0.03964(2) 0.50909(3)
Zn7 Zn 0.82060(2) 0.46036(2) 0.50909(3)
Zn9 Zn 0.67940(2) 0.53964(2) 0.00909(3)
O9 O 0.11048(11) 0.47164(10) 0.56812(18)
O10 O 0.11048(11) 0.52836(10) 0.43188(18)
O11 O 0.24561(12) 0.53395(9) 0.55635(17)
O12 O 0.12791(12) 0.53211(10) 0.58342(17)
O13 O 0.12791(12) 0.46789(10) 0.41658(17)
O14 O 0.22902(12) 0.47686(10) 0.59595(17)
N3 N 0.17806(15) 0.59383(12) 0.4800(2)
Zn4 Zn 0.32060(2) 0.46036(2) 0.99091(3)
Zn8 Zn 0.67940(2) 0.46036(2) 0.99091(3)
Zn1_2 Zn 0.82060(2) 0.03964(2) 0.50909(3)
O2_2 O 0.75439(12) 0.03395(9) 0.44365(17)
O3_2 O 0.62791(12) 0.03211(10) 0.08342(17)
N1_2 N 0.82194(15) 0.09383(12) 0.5200(2)
C1_2 C 0.55019(16) 0.00601(13) 0.1423(2)
C2_2 C 0.5000 0.00159(18) 0.1078(4)
C3_2 C 0.60158(16) 0.00226(13) 0.0957(2)
C4_2 C 0.55044(16) 0.01463(16) 0.2176(2)
C5_2 C 0.60263(17) 0.01429(15) 0.2615(2)
C7_2 C 0.74537(18) 0.00645(15) 0.4039(2)
C8_2 C 0.61301(18) 0.04096(14) 0.3140(2)
H3_2 H 0.5882 0.0603 0.3190
C9_2 C 0.5000 0.0185(2) 0.2529(4)
H4_2 H 0.5000 0.0241 0.3028
C10_2 C 0.69632(18) 0.00922(16) 0.3522(3)
C11_2 C 0.65951(18) 0.03960(15) 0.3594(3)
H5_2 H 0.6664 0.0580 0.3935
C13_2 C 0.8210(2) 0.17025(18) 0.5281(5)
C14_2 C 0.8216(3) 0.21185(17) 0.5311(5)
C15_2 C 0.7717(3) 0.23052(18) 0.5437(6)
H7_2 H 0.7391 0.2176 0.5519
C16_2 C 0.8612(3) 0.1131(2) 0.5476(5)
H8_2 H 0.8909 0.1003 0.5678
C17_2 C 0.7788(3) 0.1152(2) 0.4945(4)
H9_2 H 0.7487 0.1034 0.4731
C18_2 C 0.7775(3) 0.1530(2) 0.4987(5)
H10_2 H 0.7471 0.1661 0.4815
C19_2 C 0.8636(3) 0.1496(2) 0.5503(7)
H11_2 H 0.8955 0.1608 0.5680
C20_2 C 0.8700(3) 0.23151(19) 0.5303(7)
H12_2 H 0.9036 0.2191 0.5297
O6_2 O 0.24561(12) 0.03395(9) 0.44365(17)
O7_2 O 0.37209(12) 0.03211(10) 0.08342(17)
C21_2 C 0.44981(16) 0.00601(13) 0.1423(2)
C22_2 C 0.39842(16) 0.00226(13) 0.0957(2)
C23_2 C 0.44956(16) 0.01463(16) 0.2176(2)
C24_2 C 0.39737(17) 0.01429(15) 0.2615(2)
C26_2 C 0.25463(18) 0.00645(15) 0.4039(2)
C27_2 C 0.38699(18) 0.04096(14) 0.3140(2)
H14_2 H 0.4118 0.0603 0.3190
C28_2 C 0.30368(18) 0.00922(16) 0.3522(3)
C29_2 C 0.34049(18) 0.03960(15) 0.3594(3)
H15_2 H 0.3336 0.0580 0.3935
N2_2 N 0.82194(15) 0.40617(12) 0.5200(2)
C31_2 C 0.8210(2) 0.32975(18) 0.5281(5)
C32_2 C 0.8216(3) 0.28815(17) 0.5311(5)
C33_2 C 0.7717(3) 0.26948(18) 0.5437(6)
H17_2 H 0.7391 0.2824 0.5519
C34_2 C 0.8612(3) 0.3869(2) 0.5476(5)
H18_2 H 0.8909 0.3997 0.5678
C35_2 C 0.7788(3) 0.3848(2) 0.4945(4)
H19_2 H 0.7487 0.3966 0.4731
C36_2 C 0.7775(3) 0.3470(2) 0.4987(5)
H20_2 H 0.7471 0.3339 0.4815
C37_2 C 0.8636(3) 0.3504(2) 0.5503(7)
H21_2 H 0.8955 0.3392 0.5680
C38_2 C 0.8700(3) 0.26849(19) 0.5303(7)
H22_2 H 0.9036 0.2809 0.5297
O9_2 O 0.88952(11) 0.02836(10) 0.56812(18)
O13_2 O 0.87209(12) 0.03211(10) 0.41658(17)
O14_2 O 0.77098(12) 0.02314(10) 0.59595(17)
Zn4_2 Zn 0.67940(2) 0.03964(2) 0.99091(3)
Zn8_2 Zn 0.32060(2) 0.03964(2) 0.99091(3)
O1_2 O 0.61048(11) 0.97164(10) 0.06812(18)
O4_2 O 0.77098(12) 0.97686(10) 0.40405(17)
H1_2 H 0.5000 0.9952 0.0582
C6_2 C 0.68616(19) 0.98339(16) 0.2987(3)
H2_2 H 0.7104 0.9638 0.2930
C12_2 C 0.64093(19) 0.98629(16) 0.2541(3)
H6_2 H 0.6356 0.9688 0.2175
O5_2 O 0.38952(11) 0.97164(10) 0.06812(18)
O8_2 O 0.22902(12) 0.97686(10) 0.40405(17)
C25_2 C 0.31384(19) 0.98339(16) 0.2987(3)
H13_2 H 0.2896 0.9638 0.2930
C30_2 C 0.35907(19) 0.98629(16) 0.2541(3)
H16_2 H 0.3644 0.9688 0.2175
Zn2_2 Zn 0.82060(2) 0.96036(2) 0.49091(3)
Zn3_2 Zn 0.67940(2) 0.96036(2) 0.00909(3)
Zn5_2 Zn 0.17940(2) 0.96036(2) 0.49091(3)
Zn9_2 Zn 0.32060(2) 0.96036(2) 0.00909(3)
O10_2 O 0.88952(11) 0.97164(10) 0.43188(18)
O11_2 O 0.75439(12) 0.96605(9) 0.55635(17)
O12_2 O 0.87209(12) 0.96789(10) 0.58342(17)
N3_2 N 0.82194(15) 0.90617(12) 0.4800(2)
O1_3 O 0.61048(11) 0.02836(10) 0.93188(18)
H1_3 H 0.5000 0.0048 0.9418
C6_3 C 0.68616(19) 0.01661(16) 0.7013(3)
H2_3 H 0.7104 0.0362 0.7070
C12_3 C 0.64093(19) 0.01371(16) 0.7459(3)
H6_3 H 0.6356 0.0312 0.7825
O5_3 O 0.38952(11) 0.02836(10) 0.93188(18)
O8_3 O 0.22902(12) 0.02314(10) 0.59595(17)
C25_3 C 0.31384(19) 0.01661(16) 0.7013(3)
H13_3 H 0.2896 0.0362 0.7070
C30_3 C 0.35907(19) 0.01371(16) 0.7459(3)
H16_3 H 0.3644 0.0312 0.7825
O3_3 O 0.62791(12) 0.96789(10) 0.91658(17)
C1_3 C 0.55019(16) 0.99399(13) 0.8577(2)
C2_3 C 0.5000 0.99841(18) 0.8922(4)
C3_3 C 0.60158(16) 0.99774(13) 0.9043(2)
C4_3 C 0.55044(16) 0.98537(16) 0.7824(2)
C5_3 C 0.60263(17) 0.98571(15) 0.7385(2)
C7_3 C 0.74537(18) 0.99355(15) 0.5961(2)
C8_3 C 0.61301(18) 0.95904(14) 0.6860(2)
H3_3 H 0.5882 0.9397 0.6810
C9_3 C 0.5000 0.9815(2) 0.7471(4)
H4_3 H 0.5000 0.9759 0.6972
C10_3 C 0.69632(18) 0.99078(16) 0.6478(3)
C11_3 C 0.65951(18) 0.96040(15) 0.6406(3)
H5_3 H 0.6664 0.9420 0.6065
C13_3 C 0.8210(2) 0.82975(18) 0.4719(5)
C14_3 C 0.8216(3) 0.78815(17) 0.4689(5)
C15_3 C 0.7717(3) 0.76948(18) 0.4563(6)
H7_3 H 0.7391 0.7824 0.4481
C16_3 C 0.8612(3) 0.8869(2) 0.4524(5)
H8_3 H 0.8909 0.8997 0.4322
C17_3 C 0.7788(3) 0.8848(2) 0.5055(4)
H9_3 H 0.7487 0.8966 0.5269
C18_3 C 0.7775(3) 0.8470(2) 0.5013(5)
H10_3 H 0.7471 0.8339 0.5185
C19_3 C 0.8636(3) 0.8504(2) 0.4497(7)
H11_3 H 0.8955 0.8392 0.4320
C20_3 C 0.8700(3) 0.76849(19) 0.4697(7)
H12_3 H 0.9036 0.7809 0.4703
O6_3 O 0.24561(12) 0.96605(9) 0.55635(17)
O7_3 O 0.37209(12) 0.96789(10) 0.91658(17)
C21_3 C 0.44981(16) 0.99399(13) 0.8577(2)
C22_3 C 0.39842(16) 0.99774(13) 0.9043(2)
C23_3 C 0.44956(16) 0.98537(16) 0.7824(2)
C24_3 C 0.39737(17) 0.98571(15) 0.7385(2)
C26_3 C 0.25463(18) 0.99355(15) 0.5961(2)
C27_3 C 0.38699(18) 0.95904(14) 0.6860(2)
H14_3 H 0.4118 0.9397 0.6810
C28_3 C 0.30368(18) 0.99078(16) 0.6478(3)
C29_3 C 0.34049(18) 0.96040(15) 0.6406(3)
H15_3 H 0.3336 0.9420 0.6065
N2_3 N 0.82194(15) 0.59383(12) 0.4800(2)
C31_3 C 0.8210(2) 0.67025(18) 0.4719(5)
C32_3 C 0.8216(3) 0.71185(17) 0.4689(5)
C33_3 C 0.7717(3) 0.73052(18) 0.4563(6)
H17_3 H 0.7391 0.7176 0.4481
C34_3 C 0.8612(3) 0.6131(2) 0.4524(5)
H18_3 H 0.8909 0.6003 0.4322
C35_3 C 0.7788(3) 0.6152(2) 0.5055(4)
H19_3 H 0.7487 0.6034 0.5269
C36_3 C 0.7775(3) 0.6530(2) 0.5013(5)
H20_3 H 0.7471 0.6661 0.5185
C37_3 C 0.8636(3) 0.6496(2) 0.4497(7)
H21_3 H 0.8955 0.6608 0.4320
C38_3 C 0.8700(3) 0.73151(19) 0.4697(7)
H22_3 H 0.9036 0.7191 0.4703
O1_4 O 0.38952(11) 0.47164(10) 0.93188(18)
O3_4 O 0.37209(12) 0.53211(10) 0.91658(17)
C1_4 C 0.44981(16) 0.50601(13) 0.8577(2)
C2_4 C 0.5000 0.50159(18) 0.8922(4)
H1_4 H 0.5000 0.4952 0.9418
C3_4 C 0.39842(16) 0.50226(13) 0.9043(2)
C4_4 C 0.44956(16) 0.51463(16) 0.7824(2)
C5_4 C 0.39737(17) 0.51429(15) 0.7385(2)
C6_4 C 0.31384(19) 0.48339(16) 0.7013(3)
H2_4 H 0.2896 0.4638 0.7070
C7_4 C 0.25463(18) 0.50645(15) 0.5961(2)
C8_4 C 0.38699(18) 0.54096(14) 0.6860(2)
H3_4 H 0.4118 0.5603 0.6810
C9_4 C 0.5000 0.5185(2) 0.7471(4)
H4_4 H 0.5000 0.5241 0.6972
C10_4 C 0.30368(18) 0.50922(16) 0.6478(3)
C11_4 C 0.34049(18) 0.53960(15) 0.6406(3)
H5_4 H 0.3336 0.5580 0.6065
C12_4 C 0.35907(19) 0.48629(16) 0.7459(3)
H6_4 H 0.3644 0.4688 0.7825
C13_4 C 0.1790(2) 0.67025(18) 0.4719(5)
C14_4 C 0.1784(3) 0.71185(17) 0.4689(5)
C15_4 C 0.2283(3) 0.73052(18) 0.4563(6)
H7_4 H 0.2609 0.7176 0.4481
C16_4 C 0.1388(3) 0.6131(2) 0.4524(5)
H8_4 H 0.1091 0.6003 0.4322
C17_4 C 0.2212(3) 0.6152(2) 0.5055(4)
H9_4 H 0.2513 0.6034 0.5269
C18_4 C 0.2225(3) 0.6530(2) 0.5013(5)
H10_4 H 0.2529 0.6661 0.5185
C19_4 C 0.1364(3) 0.6496(2) 0.4497(7)
H11_4 H 0.1045 0.6608 0.4320
C20_4 C 0.1300(3) 0.73151(19) 0.4697(7)
H12_4 H 0.0964 0.7191 0.4703
O5_4 O 0.61048(11) 0.47164(10) 0.93188(18)
O6_4 O 0.75439(12) 0.53395(9) 0.55635(17)
O7_4 O 0.62791(12) 0.53211(10) 0.91658(17)
O8_4 O 0.77098(12) 0.47686(10) 0.59595(17)
C21_4 C 0.55019(16) 0.50601(13) 0.8577(2)
C22_4 C 0.60158(16) 0.50226(13) 0.9043(2)
C23_4 C 0.55044(16) 0.51463(16) 0.7824(2)
C24_4 C 0.60263(17) 0.51429(15) 0.7385(2)
C25_4 C 0.68616(19) 0.48339(16) 0.7013(3)
H13_4 H 0.7104 0.4638 0.7070
C26_4 C 0.74537(18) 0.50645(15) 0.5961(2)
C27_4 C 0.61301(18) 0.54096(14) 0.6860(2)
H14_4 H 0.5882 0.5603 0.6810
C28_4 C 0.69632(18) 0.50922(16) 0.6478(3)
C29_4 C 0.65951(18) 0.53960(15) 0.6406(3)
H15_4 H 0.6664 0.5580 0.6065
C30_4 C 0.64093(19) 0.48629(16) 0.7459(3)
H16_4 H 0.6356 0.4688 0.7825
N2_4 N 0.17806(15) 0.90617(12) 0.4800(2)
C31_4 C 0.1790(2) 0.82975(18) 0.4719(5)
C32_4 C 0.1784(3) 0.78815(17) 0.4689(5)
C33_4 C 0.2283(3) 0.76948(18) 0.4563(6)
H17_4 H 0.2609 0.7824 0.4481
C34_4 C 0.1388(3) 0.8869(2) 0.4524(5)
H18_4 H 0.1091 0.8997 0.4322
C35_4 C 0.2212(3) 0.8848(2) 0.5055(4)
H19_4 H 0.2513 0.8966 0.5269
C36_4 C 0.2225(3) 0.8470(2) 0.5013(5)
H20_4 H 0.2529 0.8339 0.5185
C37_4 C 0.1364(3) 0.8504(2) 0.4497(7)
H21_4 H 0.1045 0.8392 0.4320
C38_4 C 0.1300(3) 0.76849(19) 0.4697(7)
H22_4 H 0.0964 0.7809 0.4703
H1_5 H 0.0000 0.0048 0.5582
O5_5 O 0.11048(11) 0.02836(10) 0.56812(18)
O8_5 O 0.27098(12) 0.02314(10) 0.90405(17)
C25_5 C 0.18616(19) 0.01661(16) 0.7987(3)
H13_5 H 0.2104 0.0362 0.7930
C30_5 C 0.14093(19) 0.01371(16) 0.7541(3)
H16_5 H 0.1356 0.0312 0.7175
C2_5 C 0.0000 0.99841(18) 0.6078(4)
C9_5 C 0.0000 0.9815(2) 0.7529(4)
H4_5 H 0.0000 0.9759 0.8028
O6_5 O 0.25439(12) 0.96605(9) 0.94365(17)
O7_5 O 0.12791(12) 0.96789(10) 0.58342(17)
C21_5 C 0.05019(16) 0.99399(13) 0.6423(2)
C22_5 C 0.10158(16) 0.99774(13) 0.5957(2)
C23_5 C 0.05044(16) 0.98537(16) 0.7176(2)
C24_5 C 0.10263(17) 0.98571(15) 0.7615(2)
C26_5 C 0.24537(18) 0.99355(15) 0.9039(2)
C27_5 C 0.11301(18) 0.95904(14) 0.8140(2)
H14_5 H 0.0882 0.9397 0.8190
C28_5 C 0.19632(18) 0.99078(16) 0.8522(3)
C29_5 C 0.15951(18) 0.96040(15) 0.8594(3)
H15_5 H 0.1664 0.9420 0.8935
O11_3 O 0.74561(12) 0.03395(9) 0.05635(17)
O4_3 O 0.72902(12) 0.02314(10) 0.90405(17)
H1_6 H 1.0000 0.0048 0.5582
C6_5 C 0.81384(19) 0.01661(16) 0.7987(3)
H2_5 H 0.7896 0.0362 0.7930
C12_5 C 0.85907(19) 0.01371(16) 0.7541(3)
H6_5 H 0.8644 0.0312 0.7175
N3_3 N 0.67806(15) 0.09383(12) 0.9800(2)
N1_3 N 0.67806(15) 0.90617(12) 0.0200(2)
C13_5 C 0.6790(2) 0.82975(18) 0.0281(5)
C14_5 C 0.6784(3) 0.78815(17) 0.0311(5)
C15_5 C 0.7283(3) 0.76948(18) 0.0437(6)
H7_5 H 0.7609 0.7824 0.0519
C16_5 C 0.6388(3) 0.8869(2) 0.0476(5)
H8_5 H 0.6091 0.8997 0.0678
C19_5 C 0.6364(3) 0.8504(2) 0.0503(7)
H11_5 H 0.6045 0.8392 0.0680
C20_5 C 0.6300(3) 0.76849(19) 0.0303(7)
H12_5 H 0.5964 0.7809 0.0297
N2_5 N 0.67806(15) 0.59383(12) 0.0200(2)
C31_5 C 0.6790(2) 0.67025(18) 0.0281(5)
C32_5 C 0.6784(3) 0.71185(17) 0.0311(5)
C33_5 C 0.7283(3) 0.73052(18) 0.0437(6)
H17_5 H 0.7609 0.7176 0.0519
C34_5 C 0.6388(3) 0.6131(2) 0.0476(5)
H18_5 H 0.6091 0.6003 0.0678
C37_5 C 0.6364(3) 0.6496(2) 0.0503(7)
H21_5 H 0.6045 0.6608 0.0680
C38_5 C 0.6300(3) 0.73151(19) 0.0303(7)
H22_5 H 0.5964 0.7191 0.0297
O14_3 O 0.72902(12) 0.97686(10) 0.09595(17)
O2_3 O 0.74561(12) 0.96605(9) 0.94365(17)
C1_5 C 0.94981(16) 0.99399(13) 0.6423(2)
C2_6 C 1.0000 0.99841(18) 0.6078(4)
C3_5 C 0.89842(16) 0.99774(13) 0.5957(2)
C4_5 C 0.94956(16) 0.98537(16) 0.7176(2)
C5_5 C 0.89737(17) 0.98571(15) 0.7615(2)
C7_5 C 0.75463(18) 0.99355(15) 0.9039(2)
C8_5 C 0.88699(18) 0.95904(14) 0.8140(2)
H3_5 H 0.9118 0.9397 0.8190
C9_6 C 1.0000 0.9815(2) 0.7529(4)
H4_6 H 1.0000 0.9759 0.8028
C10_5 C 0.80368(18) 0.99078(16) 0.8522(3)
C11_5 C 0.84049(18) 0.96040(15) 0.8594(3)
H5_5 H 0.8336 0.9420 0.8935
C17_5 C 0.7212(3) 0.8848(2) 0.9945(4)
H9_5 H 0.7513 0.8966 0.9731
C18_5 C 0.7225(3) 0.8470(2) 0.9987(5)
H10_5 H 0.7529 0.8339 0.9815
C35_5 C 0.7212(3) 0.6152(2) 0.9945(4)
H19_5 H 0.7513 0.6034 0.9731
C36_5 C 0.7225(3) 0.6530(2) 0.9987(5)
H20_5 H 0.7529 0.6661 0.9815
N1_4 N 0.32194(15) 0.59383(12) 0.0200(2)
C13_6 C 0.3210(2) 0.67025(18) 0.0281(5)
C14_6 C 0.3216(3) 0.71185(17) 0.0311(5)
C15_6 C 0.2717(3) 0.73052(18) 0.0437(6)
H7_6 H 0.2391 0.7176 0.0519
C16_6 C 0.3612(3) 0.6131(2) 0.0476(5)
H8_6 H 0.3909 0.6003 0.0678
C19_6 C 0.3636(3) 0.6496(2) 0.0503(7)
H11_6 H 0.3955 0.6608 0.0680
C20_6 C 0.3700(3) 0.73151(19) 0.0303(7)
H12_6 H 0.4036 0.7191 0.0297
N2_6 N 0.32194(15) 0.90617(12) 0.0200(2)
C31_6 C 0.3210(2) 0.82975(18) 0.0281(5)
C32_6 C 0.3216(3) 0.78815(17) 0.0311(5)
C33_6 C 0.2717(3) 0.76948(18) 0.0437(6)
H17_6 H 0.2391 0.7824 0.0519
C34_6 C 0.3612(3) 0.8869(2) 0.0476(5)
H18_6 H 0.3909 0.8997 0.0678
C37_6 C 0.3636(3) 0.8504(2) 0.0503(7)
H21_6 H 0.3955 0.8392 0.0680
C38_6 C 0.3700(3) 0.76849(19) 0.0303(7)
H22_6 H 0.4036 0.7809 0.0297
O11_4 O 0.25439(12) 0.46605(9) 0.05635(17)
O14_4 O 0.27098(12) 0.52314(10) 0.09595(17)
O2_4 O 0.25439(12) 0.53395(9) 0.94365(17)
O4_4 O 0.27098(12) 0.47686(10) 0.90405(17)
C1_6 C 0.05019(16) 0.50601(13) 0.6423(2)
C2_7 C -0.0000 0.50159(18) 0.6078(4)
H1_7 H -0.0000 0.4952 0.5582
C3_6 C 0.10158(16) 0.50226(13) 0.5957(2)
C4_6 C 0.05044(16) 0.51463(16) 0.7176(2)
C5_6 C 0.10263(17) 0.51429(15) 0.7615(2)
C6_6 C 0.18616(19) 0.48339(16) 0.7987(3)
H2_6 H 0.2104 0.4638 0.7930
C7_6 C 0.24537(18) 0.50645(15) 0.9039(2)
C8_6 C 0.11301(18) 0.54096(14) 0.8140(2)
H3_6 H 0.0882 0.5603 0.8190
C9_7 C -0.0000 0.5185(2) 0.7529(4)
H4_7 H -0.0000 0.5241 0.8028
C10_6 C 0.19632(18) 0.50922(16) 0.8522(3)
C11_6 C 0.15951(18) 0.53960(15) 0.8594(3)
H5_6 H 0.1664 0.5580 0.8935
C12_6 C 0.14093(19) 0.48629(16) 0.7541(3)
H6_6 H 0.1356 0.4688 0.7175
C17_6 C 0.2788(3) 0.6152(2) 0.9945(4)
H9_6 H 0.2487 0.6034 0.9731
C18_6 C 0.2775(3) 0.6530(2) 0.9987(5)
H10_6 H 0.2471 0.6661 0.9815
C35_6 C 0.2788(3) 0.8848(2) 0.9945(4)
H19_6 H 0.2487 0.8966 0.9731
C36_6 C 0.2775(3) 0.8470(2) 0.9987(5)
H20_6 H 0.2471 0.8339 0.9815
N3_4 N 0.32194(15) 0.40617(12) 0.9800(2)
C2_8 C 1.0000 0.50159(18) 0.6078(4)
H1_8 H 1.0000 0.4952 0.5582
C9_8 C 1.0000 0.5185(2) 0.7529(4)
H4_8 H 1.0000 0.5241 0.8028
O5_6 O 0.88952(11) 0.47164(10) 0.56812(18)
O6_6 O 0.74561(12) 0.53395(9) 0.94365(17)
O7_6 O 0.87209(12) 0.53211(10) 0.58342(17)
O8_6 O 0.72902(12) 0.47686(10) 0.90405(17)
C21_6 C 0.94981(16) 0.50601(13) 0.6423(2)
C22_6 C 0.89842(16) 0.50226(13) 0.5957(2)
C23_6 C 0.94956(16) 0.51463(16) 0.7176(2)
C24_6 C 0.89737(17) 0.51429(15) 0.7615(2)
C25_6 C 0.81384(19) 0.48339(16) 0.7987(3)
H13_6 H 0.7896 0.4638 0.7930
C26_6 C 0.75463(18) 0.50645(15) 0.9039(2)
C27_6 C 0.88699(18) 0.54096(14) 0.8140(2)
H14_6 H 0.9118 0.5603 0.8190
C28_6 C 0.80368(18) 0.50922(16) 0.8522(3)
C29_6 C 0.84049(18) 0.53960(15) 0.8594(3)
H15_6 H 0.8336 0.5580 0.8935
C30_6 C 0.85907(19) 0.48629(16) 0.7541(3)
H16_6 H 0.8644 0.4688 0.7175
C1_7 C 0.05019(16) 0.49399(13) 0.3577(2)
C2_9 C -0.0000 0.49841(18) 0.3922(4)
H1_9 H -0.0000 0.5048 0.4418
C3_7 C 0.10158(16) 0.49774(13) 0.4043(2)
C4_7 C 0.05044(16) 0.48537(16) 0.2824(2)
C5_7 C 0.10263(17) 0.48571(15) 0.2385(2)
C6_7 C 0.18616(19) 0.51661(16) 0.2013(3)
H2_7 H 0.2104 0.5362 0.2070
C7_7 C 0.24537(18) 0.49355(15) 0.0961(2)
C8_7 C 0.11301(18) 0.45904(14) 0.1860(2)
H3_7 H 0.0882 0.4397 0.1810
C9_9 C -0.0000 0.4815(2) 0.2471(4)
H4_9 H -0.0000 0.4759 0.1972
C10_7 C 0.19632(18) 0.49078(16) 0.1478(3)
C11_7 C 0.15951(18) 0.46040(15) 0.1406(3)
H5_7 H 0.1664 0.4420 0.1065
C12_7 C 0.14093(19) 0.51371(16) 0.2459(3)
H6_7 H 0.1356 0.5312 0.2825
C17_7 C 0.2788(3) 0.3848(2) 0.0055(4)
H9_7 H 0.2487 0.3966 0.0269
C18_7 C 0.2775(3) 0.3470(2) 0.0013(5)
H10_7 H 0.2471 0.3339 0.0185
C35_7 C 0.2788(3) 0.1152(2) 0.0055(4)
H19_7 H 0.2487 0.1034 0.0269
C36_7 C 0.2775(3) 0.1530(2) 0.0013(5)
H20_7 H 0.2471 0.1661 0.0185
C13_7 C 0.3210(2) 0.32975(18) 0.9719(5)
C14_7 C 0.3216(3) 0.28815(17) 0.9689(5)
C15_7 C 0.2717(3) 0.26948(18) 0.9563(6)
H7_7 H 0.2391 0.2824 0.9481
C16_7 C 0.3612(3) 0.3869(2) 0.9524(5)
H8_7 H 0.3909 0.3997 0.9322
C19_7 C 0.3636(3) 0.3504(2) 0.9497(7)
H11_7 H 0.3955 0.3392 0.9320
C20_7 C 0.3700(3) 0.26849(19) 0.9697(7)
H12_7 H 0.4036 0.2809 0.9703
N2_7 N 0.32194(15) 0.09383(12) 0.9800(2)
C31_7 C 0.3210(2) 0.17025(18) 0.9719(5)
C32_7 C 0.3216(3) 0.21185(17) 0.9689(5)
C33_7 C 0.2717(3) 0.23052(18) 0.9563(6)
H17_7 H 0.2391 0.2176 0.9481
C34_7 C 0.3612(3) 0.1131(2) 0.9524(5)
H18_7 H 0.3909 0.1003 0.9322
C37_7 C 0.3636(3) 0.1496(2) 0.9497(7)
H21_7 H 0.3955 0.1608 0.9320
C38_7 C 0.3700(3) 0.23151(19) 0.9697(7)
H22_7 H 0.4036 0.2191 0.9703
C2_10 C 1.0000 0.49841(18) 0.3922(4)
H1_10 H 1.0000 0.5048 0.4418
C9_10 C 1.0000 0.4815(2) 0.2471(4)
H4_10 H 1.0000 0.4759 0.1972
O5_7 O 0.88952(11) 0.52836(10) 0.43188(18)
O6_7 O 0.74561(12) 0.46605(9) 0.05635(17)
O7_7 O 0.87209(12) 0.46789(10) 0.41658(17)
O8_7 O 0.72902(12) 0.52314(10) 0.09595(17)
C21_7 C 0.94981(16) 0.49399(13) 0.3577(2)
C22_7 C 0.89842(16) 0.49774(13) 0.4043(2)
C23_7 C 0.94956(16) 0.48537(16) 0.2824(2)
C24_7 C 0.89737(17) 0.48571(15) 0.2385(2)
C25_7 C 0.81384(19) 0.51661(16) 0.2013(3)
H13_7 H 0.7896 0.5362 0.2070
C26_7 C 0.75463(18) 0.49355(15) 0.0961(2)
C27_7 C 0.88699(18) 0.45904(14) 0.1860(2)
H14_7 H 0.9118 0.4397 0.1810
C28_7 C 0.80368(18) 0.49078(16) 0.1478(3)
C29_7 C 0.84049(18) 0.46040(15) 0.1406(3)
H15_7 H 0.8336 0.4420 0.1065
C30_7 C 0.85907(19) 0.51371(16) 0.2459(3)
H16_7 H 0.8644 0.5312 0.2825
C2_11 C 0.0000 0.00159(18) 0.3922(4)
C9_11 C 0.0000 0.0185(2) 0.2471(4)
H4_11 H 0.0000 0.0241 0.1972
O6_8 O 0.25439(12) 0.03395(9) 0.05635(17)
O7_8 O 0.12791(12) 0.03211(10) 0.41658(17)
C21_8 C 0.05019(16) 0.00601(13) 0.3577(2)
C22_8 C 0.10158(16) 0.00226(13) 0.4043(2)
C23_8 C 0.05044(16) 0.01463(16) 0.2824(2)
C24_8 C 0.10263(17) 0.01429(15) 0.2385(2)
C26_8 C 0.24537(18) 0.00645(15) 0.0961(2)
C27_8 C 0.11301(18) 0.04096(14) 0.1860(2)
H14_8 H 0.0882 0.0603 0.1810
C28_8 C 0.19632(18) 0.00922(16) 0.1478(3)
C29_8 C 0.15951(18) 0.03960(15) 0.1406(3)
H15_8 H 0.1664 0.0580 0.1065
H1_11 H 0.0000 0.9952 0.4418
O5_8 O 0.11048(11) 0.97164(10) 0.43188(18)
O8_8 O 0.27098(12) 0.97686(10) 0.09595(17)
C25_8 C 0.18616(19) 0.98339(16) 0.2013(3)
H13_8 H 0.2104 0.9638 0.2070
C30_8 C 0.14093(19) 0.98629(16) 0.2459(3)
H16_8 H 0.1356 0.9688 0.2825
C1_8 C 0.94981(16) 0.00601(13) 0.3577(2)
C2_12 C 1.0000 0.00159(18) 0.3922(4)
C3_8 C 0.89842(16) 0.00226(13) 0.4043(2)
C4_8 C 0.94956(16) 0.01463(16) 0.2824(2)
C5_8 C 0.89737(17) 0.01429(15) 0.2385(2)
C7_8 C 0.75463(18) 0.00645(15) 0.0961(2)
C8_8 C 0.88699(18) 0.04096(14) 0.1860(2)
H3_8 H 0.9118 0.0603 0.1810
C9_12 C 1.0000 0.0185(2) 0.2471(4)
H4_12 H 1.0000 0.0241 0.1972
C10_8 C 0.80368(18) 0.00922(16) 0.1478(3)
C11_8 C 0.84049(18) 0.03960(15) 0.1406(3)
H5_8 H 0.8336 0.0580 0.1065
C17_8 C 0.7212(3) 0.1152(2) 0.0055(4)
H9_8 H 0.7513 0.1034 0.0269
C18_8 C 0.7225(3) 0.1530(2) 0.0013(5)
H10_8 H 0.7529 0.1661 0.0185
C35_8 C 0.7212(3) 0.3848(2) 0.0055(4)
H19_8 H 0.7513 0.3966 0.0269
C36_8 C 0.7225(3) 0.3470(2) 0.0013(5)
H20_8 H 0.7529 0.3339 0.0185
C13_8 C 0.6790(2) 0.17025(18) 0.9719(5)
C14_8 C 0.6784(3) 0.21185(17) 0.9689(5)
C15_8 C 0.7283(3) 0.23052(18) 0.9563(6)
H7_8 H 0.7609 0.2176 0.9481
C16_8 C 0.6388(3) 0.1131(2) 0.9524(5)
H8_8 H 0.6091 0.1003 0.9322
C19_8 C 0.6364(3) 0.1496(2) 0.9497(7)
H11_8 H 0.6045 0.1608 0.9320
C20_8 C 0.6300(3) 0.23151(19) 0.9697(7)
H12_8 H 0.5964 0.2191 0.9703
N2_8 N 0.67806(15) 0.40617(12) 0.9800(2)
C31_8 C 0.6790(2) 0.32975(18) 0.9719(5)
C32_8 C 0.6784(3) 0.28815(17) 0.9689(5)
C33_8 C 0.7283(3) 0.26948(18) 0.9563(6)
H17_8 H 0.7609 0.2824 0.9481
C34_8 C 0.6388(3) 0.3869(2) 0.9524(5)
H18_8 H 0.6091 0.3997 0.9322
C37_8 C 0.6364(3) 0.3504(2) 0.9497(7)
H21_8 H 0.6045 0.3392 0.9320
C38_8 C 0.6300(3) 0.26849(19) 0.9697(7)
H22_8 H 0.5964 0.2809 0.9703
H1_12 H 1.0000 0.9952 0.4418
C6_8 C 0.81384(19) 0.98339(16) 0.2013(3)
H2_8 H 0.7896 0.9638 0.2070
C12_8 C 0.85907(19) 0.98629(16) 0.2459(3)
H6_8 H 0.8644 0.9688 0.2825
loop_
_geom_bond_atom_site_label_1
_geom_bond_atom_site_label_2
_geom_bond_site_symmetry_1
_geom_bond_site_symmetry_2
Zn1 O2 1_555 1_555
O1 C3 1_555 1_555
O2 C7 1_555 1_555
O3 C3 1_555 1_555
O4 C7 1_555 1_555
N1 Zn1 1_555 1_555
C1 C2 1_555 1_555
C2 H1 1_555 1_555
C3 C1 1_555 1_555
C4 C1 1_555 1_555
C5 C4 1_555 1_555
C6 H2 1_555 1_555
C7 C10 1_555 1_555
C8 C5 1_555 1_555
H3 C8 1_555 1_555
C9 C4 1_555 1_555
H4 C9 1_555 1_555
C10 C6 1_555 1_555
C11 C8 1_555 1_555
H5 C11 1_555 1_555
C12 C5 1_555 1_555
H6 C12 1_555 1_555
C13 C14 1_555 1_555
C14 C15 1_555 1_555
C15 H7 1_555 1_555
C16 N1 1_555 1_555
H8 C16 1_555 1_555
C17 N1 1_555 1_555
H9 C17 1_555 1_555
C18 C13 1_555 1_555
H10 C18 1_555 1_555
C19 C13 1_555 1_555
H11 C19 1_555 1_555
C20 C14 1_555 1_555
H12 C20 1_555 1_555
O5 C22 1_555 1_555
O6 C26 1_555 1_555
O7 C22 1_555 1_555
O8 C26 1_555 1_555
C21 C2 1_555 1_555
C22 C21 1_555 1_555
C23 C9 1_555 1_555
C24 C23 1_555 1_555
C25 H13 1_555 1_555
C26 C28 1_555 1_555
C27 C24 1_555 1_555
H14 C27 1_555 1_555
C28 C25 1_555 1_555
C29 C27 1_555 1_555
H15 C29 1_555 1_555
C30 C24 1_555 1_555
H16 C30 1_555 1_555
N2 C34 1_555 1_555
C31 C32 1_555 1_555
C32 C33 1_555 1_555
C33 C15 1_555 1_555
H17 C33 1_555 1_555
C34 H18 1_555 1_555
C35 N2 1_555 1_555
H19 C35 1_555 1_555
C36 C31 1_555 1_555
H20 C36 1_555 1_555
C37 C31 1_555 1_555
H21 C37 1_555 1_555
C38 C20 1_555 1_555
H22 C38 1_555 1_555
Zn2 O4 1_555 1_555
Zn3 O1 1_555 1_555
Zn5 O8 1_555 1_555
Zn6 N2 1_555 1_555
Zn7 O6 1_555 1_555
Zn9 O5 1_555 1_555
O9 Zn1 1_555 1_555
O10 Zn2 1_555 1_555
O11 Zn2 1_555 1_555
O12 Zn2 1_555 1_555
O13 Zn1 1_555 1_555
O14 Zn1 1_555 1_555
N3 Zn2 1_555 1_555
C6 C12 1_555 1_555
C10 C11 1_555 1_555
C16 C19 1_555 1_555
C17 C18 1_555 1_555
C21 C23 1_555 1_555
C25 C30 1_555 1_555
C28 C29 1_555 1_555
C32 C38 1_555 1_555
C34 C37 1_555 1_555
C35 C36 1_555 1_555
Zn1_2 O2_2 1_555 1_555
O2_2 C7_2 1_555 1_555
O3_2 C3_2 1_555 1_555
N1_2 Zn1_2 1_555 1_555
C1_2 C2_2 1_555 1_555
C3_2 C1_2 1_555 1_555
C4_2 C1_2 1_555 1_555
C5_2 C4_2 1_555 1_555
C7_2 C10_2 1_555 1_555
C8_2 C5_2 1_555 1_555
H3_2 C8_2 1_555 1_555
C9_2 C4_2 1_555 1_555
H4_2 C9_2 1_555 1_555
C11_2 C8_2 1_555 1_555
H5_2 C11_2 1_555 1_555
C13_2 C14_2 1_555 1_555
C14_2 C15_2 1_555 1_555
C15_2 H7_2 1_555 1_555
C16_2 N1_2 1_555 1_555
H8_2 C16_2 1_555 1_555
C17_2 N1_2 1_555 1_555
H9_2 C17_2 1_555 1_555
C18_2 C13_2 1_555 1_555
H10_2 C18_2 1_555 1_555
C19_2 C13_2 1_555 1_555
H11_2 C19_2 1_555 1_555
C20_2 C14_2 1_555 1_555
H12_2 C20_2 1_555 1_555
O6_2 C26_2 1_555 1_555
O7_2 C22_2 1_555 1_555
C21_2 C2_2 1_555 1_555
C22_2 C21_2 1_555 1_555
C23_2 C9_2 1_555 1_555
C24_2 C23_2 1_555 1_555
C26_2 C28_2 1_555 1_555
C27_2 C24_2 1_555 1_555
H14_2 C27_2 1_555 1_555
C29_2 C27_2 1_555 1_555
H15_2 C29_2 1_555 1_555
N2_2 C34_2 1_555 1_555
C31_2 C32_2 1_555 1_555
C32_2 C33_2 1_555 1_555
C33_2 C15_2 1_555 1_555
H17_2 C33_2 1_555 1_555
C34_2 H18_2 1_555 1_555
C35_2 N2_2 1_555 1_555
H19_2 C35_2 1_555 1_555
C36_2 C31_2 1_555 1_555
H20_2 C36_2 1_555 1_555
C37_2 C31_2 1_555 1_555
H21_2 C37_2 1_555 1_555
C38_2 C20_2 1_555 1_555
H22_2 C38_2 1_555 1_555
Zn7 N2_2 1_555 1_555
Zn6 O6_2 1_555 1_555
O9_2 Zn1_2 1_555 1_555
O13_2 Zn1_2 1_555 1_555
O14_2 Zn1_2 1_555 1_555
C10_2 C11_2 1_555 1_555
C16_2 C19_2 1_555 1_555
C17_2 C18_2 1_555 1_555
C21_2 C23_2 1_555 1_555
C28_2 C29_2 1_555 1_555
C32_2 C38_2 1_555 1_555
C34_2 C37_2 1_555 1_555
C35_2 C36_2 1_555 1_555
C6_2 H2_2 1_555 1_555
H6_2 C12_2 1_555 1_555
C25_2 H13_2 1_555 1_555
H16_2 C30_2 1_555 1_555
Zn2_2 O4_2 1_555 1_555
Zn3_2 O1_2 1_555 1_555
Zn5_2 O8_2 1_555 1_555
Zn9_2 O5_2 1_555 1_555
O10_2 Zn2_2 1_555 1_555
O11_2 Zn2_2 1_555 1_555
O12_2 Zn2_2 1_555 1_555
N3_2 Zn2_2 1_555 1_555
C6_2 C12_2 1_555 1_555
C25_2 C30_2 1_555 1_555
C6_3 H2_3 1_555 1_555
H6_3 C12_3 1_555 1_555
C25_3 H13_3 1_555 1_555
H16_3 C30_3 1_555 1_555
Zn4_2 O1_3 1_555 1_555
Zn6 O8_3 1_555 1_555
Zn8_2 O5_3 1_555 1_555
C6_3 C12_3 1_555 1_555
C25_3 C30_3 1_555 1_555
O11_2 C7_3 1_555 1_555
O3_3 C3_3 1_555 1_555
C1_3 C2_3 1_555 1_555
C3_3 C1_3 1_555 1_555
C4_3 C1_3 1_555 1_555
C5_3 C4_3 1_555 1_555
C7_3 C10_3 1_555 1_555
C8_3 C5_3 1_555 1_555
H3_3 C8_3 1_555 1_555
C9_3 C4_3 1_555 1_555
H4_3 C9_3 1_555 1_555
C11_3 C8_3 1_555 1_555
H5_3 C11_3 1_555 1_555
C13_3 C14_3 1_555 1_555
C14_3 C15_3 1_555 1_555
C15_3 H7_3 1_555 1_555
C16_3 N3_2 1_555 1_555
H8_3 C16_3 1_555 1_555
C17_3 N3_2 1_555 1_555
H9_3 C17_3 1_555 1_555
C18_3 C13_3 1_555 1_555
H10_3 C18_3 1_555 1_555
C19_3 C13_3 1_555 1_555
H11_3 C19_3 1_555 1_555
C20_3 C14_3 1_555 1_555
H12_3 C20_3 1_555 1_555
O6_3 C26_3 1_555 1_555
O7_3 C22_3 1_555 1_555
C21_3 C2_3 1_555 1_555
C22_3 C21_3 1_555 1_555
C23_3 C9_3 1_555 1_555
C24_3 C23_3 1_555 1_555
C26_3 C28_3 1_555 1_555
C27_3 C24_3 1_555 1_555
H14_3 C27_3 1_555 1_555
C29_3 C27_3 1_555 1_555
H15_3 C29_3 1_555 1_555
N2_3 C34_3 1_555 1_555
C31_3 C32_3 1_555 1_555
C32_3 C33_3 1_555 1_555
C33_3 C15_3 1_555 1_555
H17_3 C33_3 1_555 1_555
C34_3 H18_3 1_555 1_555
C35_3 N2_3 1_555 1_555
H19_3 C35_3 1_555 1_555
C36_3 C31_3 1_555 1_555
H20_3 C36_3 1_555 1_555
C37_3 C31_3 1_555 1_555
H21_3 C37_3 1_555 1_555
C38_3 C20_3 1_555 1_555
H22_3 C38_3 1_555 1_555
Zn5 N2_3 1_555 1_555
Zn5_2 O6_3 1_555 1_555
C10_3 C11_3 1_555 1_555
C16_3 C19_3 1_555 1_555
C17_3 C18_3 1_555 1_555
C21_3 C23_3 1_555 1_555
C28_3 C29_3 1_555 1_555
C32_3 C38_3 1_555 1_555
C34_3 C37_3 1_555 1_555
C35_3 C36_3 1_555 1_555
O1_4 C3_4 1_555 1_555
O11 C7_4 1_555 1_555
O3_4 C3_4 1_555 1_555
O14 C7_4 1_555 1_555
C1_4 C2_4 1_555 1_555
C2_4 H1_4 1_555 1_555
C3_4 C1_4 1_555 1_555
C4_4 C1_4 1_555 1_555
C5_4 C4_4 1_555 1_555
C6_4 H2_4 1_555 1_555
C7_4 C10_4 1_555 1_555
C8_4 C5_4 1_555 1_555
H3_4 C8_4 1_555 1_555
C9_4 C4_4 1_555 1_555
H4_4 C9_4 1_555 1_555
C10_4 C6_4 1_555 1_555
C11_4 C8_4 1_555 1_555
H5_4 C11_4 1_555 1_555
C12_4 C5_4 1_555 1_555
H6_4 C12_4 1_555 1_555
C13_4 C14_4 1_555 1_555
C14_4 C15_4 1_555 1_555
C15_4 H7_4 1_555 1_555
C16_4 N3 1_555 1_555
H8_4 C16_4 1_555 1_555
C17_4 N3 1_555 1_555
H9_4 C17_4 1_555 1_555
C18_4 C13_4 1_555 1_555
H10_4 C18_4 1_555 1_555
C19_4 C13_4 1_555 1_555
H11_4 C19_4 1_555 1_555
C20_4 C14_4 1_555 1_555
H12_4 C20_4 1_555 1_555
O5_4 C22_4 1_555 1_555
O6_4 C26_4 1_555 1_555
O7_4 C22_4 1_555 1_555
O8_4 C26_4 1_555 1_555
C21_4 C2_4 1_555 1_555
C22_4 C21_4 1_555 1_555
C23_4 C9_4 1_555 1_555
C24_4 C23_4 1_555 1_555
C25_4 H13_4 1_555 1_555
C26_4 C28_4 1_555 1_555
C27_4 C24_4 1_555 1_555
H14_4 C27_4 1_555 1_555
C28_4 C25_4 1_555 1_555
C29_4 C27_4 1_555 1_555
H15_4 C29_4 1_555 1_555
C30_4 C24_4 1_555 1_555
H16_4 C30_4 1_555 1_555
N2_4 C34_4 1_555 1_555
C31_4 C32_4 1_555 1_555
C32_4 C33_4 1_555 1_555
C33_4 C15_4 1_555 1_555
H17_4 C33_4 1_555 1_555
C34_4 H18_4 1_555 1_555
C35_4 N2_4 1_555 1_555
H19_4 C35_4 1_555 1_555
C36_4 C31_4 1_555 1_555
H20_4 C36_4 1_555 1_555
C37_4 C31_4 1_555 1_555
H21_4 C37_4 1_555 1_555
C38_4 C20_4 1_555 1_555
H22_4 C38_4 1_555 1_555
Zn4 O1_4 1_555 1_555
Zn7 O8_4 1_555 1_555
Zn5_2 N2_4 1_555 1_555
Zn5 O6_4 1_555 1_555
Zn8 O5_4 1_555 1_555
C6_4 C12_4 1_555 1_555
C10_4 C11_4 1_555 1_555
C16_4 C19_4 1_555 1_555
C17_4 C18_4 1_555 1_555
C21_4 C23_4 1_555 1_555
C25_4 C30_4 1_555 1_555
C28_4 C29_4 1_555 1_555
C32_4 C38_4 1_555 1_555
C34_4 C37_4 1_555 1_555
C35_4 C36_4 1_555 1_555
C25_5 H13_5 1_555 1_555
H16_5 C30_5 1_555 1_555
Zn8_2 O8_5 1_555 1_555
Zn6 O5_5 1_555 1_555
C25_5 C30_5 1_555 1_555
H4_5 C9_5 1_555 1_555
O6_5 C26_5 1_555 1_555
O7_5 C22_5 1_555 1_555
C21_5 C2_5 1_555 1_555
C22_5 C21_5 1_555 1_555
C23_5 C9_5 1_555 1_555
C24_5 C23_5 1_555 1_555
C26_5 C28_5 1_555 1_555
C27_5 C24_5 1_555 1_555
H14_5 C27_5 1_555 1_555
C29_5 C27_5 1_555 1_555
H15_5 C29_5 1_555 1_555
Zn5_2 O7_5 1_555 1_555
C21_5 C23_5 1_555 1_555
C28_5 C29_5 1_555 1_555
C6_5 H2_5 1_555 1_555
H6_5 C12_5 1_555 1_555
Zn4_2 O4_3 1_555 1_555
N3_3 Zn4_2 1_555 1_555
C6_5 C12_5 1_555 1_555
N1_3 Zn3_2 1_555 1_555
C13_5 C14_5 1_555 1_555
C14_5 C15_5 1_555 1_555
C15_5 H7_5 1_555 1_555
C16_5 N1_3 1_555 1_555
H8_5 C16_5 1_555 1_555
C19_5 C13_5 1_555 1_555
H11_5 C19_5 1_555 1_555
C20_5 C14_5 1_555 1_555
H12_5 C20_5 1_555 1_555
N2_5 C34_5 1_555 1_555
C31_5 C32_5 1_555 1_555
C32_5 C33_5 1_555 1_555
C33_5 C15_5 1_555 1_555
H17_5 C33_5 1_555 1_555
C34_5 H18_5 1_555 1_555
C37_5 C31_5 1_555 1_555
H21_5 C37_5 1_555 1_555
C38_5 C20_5 1_555 1_555
H22_5 C38_5 1_555 1_555
Zn9 N2_5 1_555 1_555
O14_3 Zn3_2 1_555 1_555
C16_5 C19_5 1_555 1_555
C32_5 C38_5 1_555 1_555
C34_5 C37_5 1_555 1_555
O2_3 C7_5 1_555 1_555
O12_2 C3_5 1_555 1_555
C1_5 C2_6 1_555 1_555
C3_5 C1_5 1_555 1_555
C4_5 C1_5 1_555 1_555
C5_5 C4_5 1_555 1_555
C7_5 C10_5 1_555 1_555
C8_5 C5_5 1_555 1_555
H3_5 C8_5 1_555 1_555
C9_6 C4_5 1_555 1_555
H4_6 C9_6 1_555 1_555
C11_5 C8_5 1_555 1_555
H5_5 C11_5 1_555 1_555
H9_5 C17_5 1_555 1_555
H10_5 C18_5 1_555 1_555
H19_5 C35_5 1_555 1_555
H20_5 C36_5 1_555 1_555
C10_5 C11_5 1_555 1_555
C17_5 C18_5 1_555 1_555
C35_5 C36_5 1_555 1_555
N1_4 Zn3 1_555 1_555
C13_6 C14_6 1_555 1_555
C14_6 C15_6 1_555 1_555
C15_6 H7_6 1_555 1_555
C16_6 N1_4 1_555 1_555
H8_6 C16_6 1_555 1_555
C19_6 C13_6 1_555 1_555
H11_6 C19_6 1_555 1_555
C20_6 C14_6 1_555 1_555
H12_6 C20_6 1_555 1_555
N2_6 C34_6 1_555 1_555
C31_6 C32_6 1_555 1_555
C32_6 C33_6 1_555 1_555
C33_6 C15_6 1_555 1_555
H17_6 C33_6 1_555 1_555
C34_6 H18_6 1_555 1_555
C37_6 C31_6 1_555 1_555
H21_6 C37_6 1_555 1_555
C38_6 C20_6 1_555 1_555
H22_6 C38_6 1_555 1_555
Zn9_2 N2_6 1_555 1_555
O14_4 Zn3 1_555 1_555
C16_6 C19_6 1_555 1_555
C32_6 C38_6 1_555 1_555
C34_6 C37_6 1_555 1_555
O9 C3_6 1_555 1_555
O2_4 C7_6 1_555 1_555
O12 C3_6 1_555 1_555
O4_4 C7_6 1_555 1_555
C1_6 C2_7 1_555 1_555
C2_7 H1_7 1_555 1_555
C3_6 C1_6 1_555 1_555
C4_6 C1_6 1_555 1_555
C5_6 C4_6 1_555 1_555
C6_6 H2_6 1_555 1_555
C7_6 C10_6 1_555 1_555
C8_6 C5_6 1_555 1_555
H3_6 C8_6 1_555 1_555
C9_7 C4_6 1_555 1_555
H4_7 C9_7 1_555 1_555
C10_6 C6_6 1_555 1_555
C11_6 C8_6 1_555 1_555
H5_6 C11_6 1_555 1_555
C12_6 C5_6 1_555 1_555
H6_6 C12_6 1_555 1_555
H9_6 C17_6 1_555 1_555
H10_6 C18_6 1_555 1_555
H19_6 C35_6 1_555 1_555
H20_6 C36_6 1_555 1_555
Zn4 O4_4 1_555 1_555
N3_4 Zn4 1_555 1_555
C6_6 C12_6 1_555 1_555
C10_6 C11_6 1_555 1_555
C17_6 C18_6 1_555 1_555
C35_6 C36_6 1_555 1_555
C2_8 H1_8 1_555 1_555
H4_8 C9_8 1_555 1_555
O5_6 C22_6 1_555 1_555
O6_6 C26_6 1_555 1_555
O7_6 C22_6 1_555 1_555
O8_6 C26_6 1_555 1_555
C21_6 C2_8 1_555 1_555
C22_6 C21_6 1_555 1_555
C23_6 C9_8 1_555 1_555
C24_6 C23_6 1_555 1_555
C25_6 H13_6 1_555 1_555
C26_6 C28_6 1_555 1_555
C27_6 C24_6 1_555 1_555
H14_6 C27_6 1_555 1_555
C28_6 C25_6 1_555 1_555
C29_6 C27_6 1_555 1_555
H15_6 C29_6 1_555 1_555
C30_6 C24_6 1_555 1_555
H16_6 C30_6 1_555 1_555
Zn8 O8_6 1_555 1_555
Zn5 O7_6 1_555 1_555
Zn7 O5_6 1_555 1_555
C21_6 C23_6 1_555 1_555
C25_6 C30_6 1_555 1_555
C28_6 C29_6 1_555 1_555
O10 C3_7 1_555 1_555
O11_4 C7_7 1_555 1_555
O13 C3_7 1_555 1_555
O14_4 C7_7 1_555 1_555
C1_7 C2_9 1_555 1_555
C2_9 H1_9 1_555 1_555
C3_7 C1_7 1_555 1_555
C4_7 C1_7 1_555 1_555
C5_7 C4_7 1_555 1_555
C6_7 H2_7 1_555 1_555
C7_7 C10_7 1_555 1_555
C8_7 C5_7 1_555 1_555
H3_7 C8_7 1_555 1_555
C9_9 C4_7 1_555 1_555
H4_9 C9_9 1_555 1_555
C10_7 C6_7 1_555 1_555
C11_7 C8_7 1_555 1_555
H5_7 C11_7 1_555 1_555
C12_7 C5_7 1_555 1_555
H6_7 C12_7 1_555 1_555
H9_7 C17_7 1_555 1_555
H10_7 C18_7 1_555 1_555
H19_7 C35_7 1_555 1_555
H20_7 C36_7 1_555 1_555
C6_7 C12_7 1_555 1_555
C10_7 C11_7 1_555 1_555
C17_7 C18_7 1_555 1_555
C35_7 C36_7 1_555 1_555
C13_7 C14_7 1_555 1_555
C14_7 C15_7 1_555 1_555
C15_7 H7_7 1_555 1_555
C16_7 N3_4 1_555 1_555
H8_7 C16_7 1_555 1_555
C19_7 C13_7 1_555 1_555
H11_7 C19_7 1_555 1_555
C20_7 C14_7 1_555 1_555
H12_7 C20_7 1_555 1_555
N2_7 C34_7 1_555 1_555
C31_7 C32_7 1_555 1_555
C32_7 C33_7 1_555 1_555
C33_7 C15_7 1_555 1_555
H17_7 C33_7 1_555 1_555
C34_7 H18_7 1_555 1_555
C37_7 C31_7 1_555 1_555
H21_7 C37_7 1_555 1_555
C38_7 C20_7 1_555 1_555
H22_7 C38_7 1_555 1_555
Zn8_2 N2_7 1_555 1_555
C16_7 C19_7 1_555 1_555
C32_7 C38_7 1_555 1_555
C34_7 C37_7 1_555 1_555
C2_10 H1_10 1_555 1_555
H4_10 C9_10 1_555 1_555
O5_7 C22_7 1_555 1_555
O6_7 C26_7 1_555 1_555
O7_7 C22_7 1_555 1_555
O8_7 C26_7 1_555 1_555
C21_7 C2_10 1_555 1_555
C22_7 C21_7 1_555 1_555
C23_7 C9_10 1_555 1_555
C24_7 C23_7 1_555 1_555
C25_7 H13_7 1_555 1_555
C26_7 C28_7 1_555 1_555
C27_7 C24_7 1_555 1_555
H14_7 C27_7 1_555 1_555
C28_7 C25_7 1_555 1_555
C29_7 C27_7 1_555 1_555
H15_7 C29_7 1_555 1_555
C30_7 C24_7 1_555 1_555
H16_7 C30_7 1_555 1_555
Zn9 O8_7 1_555 1_555
Zn7 O7_7 1_555 1_555
Zn5 O5_7 1_555 1_555
C21_7 C23_7 1_555 1_555
C25_7 C30_7 1_555 1_555
C28_7 C29_7 1_555 1_555
H4_11 C9_11 1_555 1_555
O6_8 C26_8 1_555 1_555
O7_8 C22_8 1_555 1_555
C21_8 C2_11 1_555 1_555
C22_8 C21_8 1_555 1_555
C23_8 C9_11 1_555 1_555
C24_8 C23_8 1_555 1_555
C26_8 C28_8 1_555 1_555
C27_8 C24_8 1_555 1_555
H14_8 C27_8 1_555 1_555
C29_8 C27_8 1_555 1_555
H15_8 C29_8 1_555 1_555
Zn6 O7_8 1_555 1_555
C21_8 C23_8 1_555 1_555
C28_8 C29_8 1_555 1_555
C25_8 H13_8 1_555 1_555
H16_8 C30_8 1_555 1_555
Zn9_2 O8_8 1_555 1_555
Zn5_2 O5_8 1_555 1_555
C25_8 C30_8 1_555 1_555
O11_3 C7_8 1_555 1_555
O13_2 C3_8 1_555 1_555
C1_8 C2_12 1_555 1_555
C3_8 C1_8 1_555 1_555
C4_8 C1_8 1_555 1_555
C5_8 C4_8 1_555 1_555
C7_8 C10_8 1_555 1_555
C8_8 C5_8 1_555 1_555
H3_8 C8_8 1_555 1_555
C9_12 C4_8 1_555 1_555
H4_12 C9_12 1_555 1_555
C11_8 C8_8 1_555 1_555
H5_8 C11_8 1_555 1_555
H9_8 C17_8 1_555 1_555
H10_8 C18_8 1_555 1_555
H19_8 C35_8 1_555 1_555
H20_8 C36_8 1_555 1_555
C10_8 C11_8 1_555 1_555
C17_8 C18_8 1_555 1_555
C35_8 C36_8 1_555 1_555
C13_8 C14_8 1_555 1_555
C14_8 C15_8 1_555 1_555
C15_8 H7_8 1_555 1_555
C16_8 N3_3 1_555 1_555
H8_8 C16_8 1_555 1_555
C19_8 C13_8 1_555 1_555
H11_8 C19_8 1_555 1_555
C20_8 C14_8 1_555 1_555
H12_8 C20_8 1_555 1_555
N2_8 C34_8 1_555 1_555
C31_8 C32_8 1_555 1_555
C32_8 C33_8 1_555 1_555
C33_8 C15_8 1_555 1_555
H17_8 C33_8 1_555 1_555
C34_8 H18_8 1_555 1_555
C37_8 C31_8 1_555 1_555
H21_8 C37_8 1_555 1_555
C38_8 C20_8 1_555 1_555
H22_8 C38_8 1_555 1_555
Zn8 N2_8 1_555 1_555
C16_8 C19_8 1_555 1_555
C32_8 C38_8 1_555 1_555
C34_8 C37_8 1_555 1_555
C6_8 H2_8 1_555 1_555
H6_8 C12_8 1_555 1_555
C6_8 C12_8 1_555 1_555

#END
