
###############################################################################
#
# This file contains modified crystal structure data generated from the
# MOF subset of the Cambridge Structural Database (CSD) v543 
# hosted by the Cambridge Crystallographic Data Centre (CCDC).
#
# This work is licensed under the Creative Commons
# Attribution-NonCommercial-ShareAlike 4.0 International License.
# To view a copy of this license, visit
# http://creativecommons.org/licenses/by-nc-sa/4.0/
# or send a letter to
# Creative Commons, PO Box 1866, Mountain View, CA 94042, USA.
#
# CIF created using the CSD Python API on 29 September 2022
# The structure has been converted into the P1 space group
# The structure has a 3D framework
# The original CSD entry KUTPAS is in the orthorhombic crystal system
# The framework has been calculated to contain at least 10.0% void space
# The void calculation uses a probe of radius 1.32A, grid spacing 0.4
#
###############################################################################

data_KUTPAS
_chemical_formula_moiety         '(C264 H152 N16 O50 Zn8)n'
_symmetry_cell_setting           triclinic
_symmetry_space_group_name_H-M   'P 1'
_symmetry_Int_Tables_number      1
_space_group_name_Hall           'P 1'
loop_
_symmetry_equiv_pos_site_id
_symmetry_equiv_pos_as_xyz
1 x,y,z
_cell_length_a                   23.989(10)
_cell_length_b                   28.069(9)
_cell_length_c                   18.483(6)
_cell_angle_alpha                90
_cell_angle_beta                 90
_cell_angle_gamma                90
_cell_volume                     12445.5
loop_
_atom_site_label
_atom_site_type_symbol
_atom_site_fract_x
_atom_site_fract_y
_atom_site_fract_z
Zn4 Zn 0.68076(2) 0.55172(2) 0.00550(2)
Zn8 Zn 0.31924(2) 0.55172(2) 0.00550(2)
Zn1 Zn 0.81924(2) 0.55172(2) 0.49450(2)
O1 O 0.61238(11) 0.46049(10) 0.93392(14)
O2 O 0.62968(11) 0.53761(10) 0.91571(14)
O3 O 0.75236(11) 0.54227(10) 0.55814(14)
O4 O 0.76930(11) 0.46674(10) 0.59262(14)
N1 N 0.81938(11) 0.62332(13) 0.49047(16)
C1 C 0.60231(15) 0.50008(13) 0.90518(17)
C2 C 0.55125(15) 0.50245(12) 0.85876(19)
C3 C 0.5000 0.49773(19) 0.8922(3)
H1 H 0.5000 0.4908 0.9414
C4 C 0.61214(16) 0.54941(16) 0.6885(2)
H2 H 0.5871 0.5746 0.6841
C5 C 0.74309(15) 0.50480(13) 0.59617(19)
C6 C 0.82009(16) 0.72340(15) 0.4877(2)
C7 C 0.69542(16) 0.50787(15) 0.6481(2)
C8 C 0.68716(16) 0.47506(19) 0.7011(2)
H3 H 0.7124 0.4502 0.7064
C9 C 0.65784(16) 0.54728(16) 0.6433(2)
H4 H 0.6642 0.5714 0.6098
C10 C 0.60281(17) 0.51393(16) 0.7413(2)
C11 C 0.55120(16) 0.51282(17) 0.7850(2)
C12 C 0.64187(16) 0.47798(17) 0.7473(2)
H5 H 0.6376 0.4551 0.7834
C13 C 0.5000 0.5185(2) 0.7499(3)
H6 H 0.5000 0.5264 0.7010
C14 C 0.77615(18) 0.64955(18) 0.5118(3)
H7 H 0.7444 0.6335 0.5271
C15 C 0.8641(2) 0.69648(18) 0.4624(4)
H8 H 0.8953 0.7116 0.4435
C16 C 0.7749(2) 0.69734(18) 0.5128(3)
H9 H 0.7436 0.7131 0.5305
C17 C 0.8624(2) 0.65008(19) 0.4645(4)
H10 H 0.8933 0.6338 0.4469
O5 O 0.38762(11) 0.46049(10) 0.93392(14)
O6 O 0.37032(11) 0.53761(10) 0.91571(14)
O7 O 0.24764(11) 0.54227(10) 0.55814(14)
O8 O 0.23070(11) 0.46674(10) 0.59262(14)
C18 C 0.39769(15) 0.50008(13) 0.90518(17)
C19 C 0.44875(15) 0.50245(12) 0.85876(19)
C20 C 0.38786(16) 0.54941(16) 0.6885(2)
H11 H 0.4129 0.5746 0.6841
C21 C 0.25691(15) 0.50480(13) 0.59617(19)
C22 C 0.30458(16) 0.50787(15) 0.6481(2)
C23 C 0.31284(16) 0.47506(19) 0.7011(2)
H12 H 0.2876 0.4502 0.7064
C24 C 0.34216(16) 0.54728(16) 0.6433(2)
H13 H 0.3358 0.5714 0.6098
C25 C 0.39719(17) 0.51393(16) 0.7413(2)
C26 C 0.44880(16) 0.51282(17) 0.7850(2)
C27 C 0.35813(16) 0.47798(17) 0.7473(2)
H14 H 0.3624 0.4551 0.7834
N2 N 0.81938(11) 0.87668(13) 0.49047(16)
C28 C 0.82009(16) 0.77660(15) 0.4877(2)
C29 C 0.77615(18) 0.85045(18) 0.5118(3)
H15 H 0.7444 0.8665 0.5271
C30 C 0.8641(2) 0.80352(18) 0.4624(4)
H16 H 0.8953 0.7884 0.4435
C31 C 0.7749(2) 0.80266(18) 0.5128(3)
H17 H 0.7436 0.7869 0.5305
C32 C 0.8624(2) 0.84992(19) 0.4645(4)
H18 H 0.8933 0.8662 0.4469
Zn2 Zn 0.81924(2) 0.44828(2) 0.50550(2)
Zn3 Zn 0.68076(2) 0.44828(2) 0.99450(2)
Zn5 Zn 0.18076(2) 0.44828(2) 0.50550(2)
Zn6 Zn 0.81924(2) 0.94828(2) 0.49450(2)
Zn7 Zn 0.18076(2) 0.55172(2) 0.49450(2)
Zn9 Zn 0.31924(2) 0.44828(2) 0.99450(2)
O9 O 0.88762(11) 0.53951(10) 0.43392(14)
O10 O 0.88762(11) 0.46049(10) 0.56608(14)
O11 O 0.87032(11) 0.46239(10) 0.41571(14)
O12 O 0.87032(11) 0.53761(10) 0.58429(14)
O13 O 0.75236(11) 0.45773(10) 0.44186(14)
O14 O 0.76930(11) 0.53326(10) 0.40738(14)
N3 N 0.81938(11) 0.37668(13) 0.50953(16)
O1_2 O 0.38762(11) 0.03951(10) 0.93392(14)
O4_2 O 0.23070(11) 0.03326(10) 0.59262(14)
C3_2 C 0.5000 0.00227(19) 0.8922(3)
H1_2 H 0.5000 0.0092 0.9414
C8_2 C 0.31284(16) 0.02494(19) 0.7011(2)
H3_2 H 0.2876 0.0498 0.7064
C12_2 C 0.35813(16) 0.02202(17) 0.7473(2)
H5_2 H 0.3624 0.0449 0.7834
O5_2 O 0.61238(11) 0.03951(10) 0.93392(14)
O8_2 O 0.76930(11) 0.03326(10) 0.59262(14)
C23_2 C 0.68716(16) 0.02494(19) 0.7011(2)
H12_2 H 0.7124 0.0498 0.7064
C27_2 C 0.64187(16) 0.02202(17) 0.7473(2)
H14_2 H 0.6376 0.0449 0.7834
Zn2_2 Zn 0.18076(2) 0.05172(2) 0.50550(2)
Zn3_2 Zn 0.31924(2) 0.05172(2) 0.99450(2)
Zn5_2 Zn 0.81924(2) 0.05172(2) 0.50550(2)
Zn9_2 Zn 0.68076(2) 0.05172(2) 0.99450(2)
O10_2 O 0.11238(11) 0.03951(10) 0.56608(14)
O11_2 O 0.12968(11) 0.03761(10) 0.41571(14)
O13_2 O 0.24764(11) 0.04227(10) 0.44186(14)
N3_2 N 0.18062(11) 0.12332(13) 0.50953(16)
Zn4_2 Zn 0.31924(2) 0.94828(2) 0.00550(2)
Zn8_2 Zn 0.68076(2) 0.94828(2) 0.00550(2)
Zn1_2 Zn 0.18076(2) 0.94828(2) 0.49450(2)
O2_2 O 0.37032(11) 0.96239(10) 0.91571(14)
O3_2 O 0.24764(11) 0.95773(10) 0.55814(14)
N1_2 N 0.18062(11) 0.87668(13) 0.49047(16)
C1_2 C 0.39769(15) 0.99992(13) 0.90518(17)
C2_2 C 0.44875(15) 0.99755(12) 0.85876(19)
C4_2 C 0.38786(16) 0.95059(16) 0.6885(2)
H2_2 H 0.4129 0.9254 0.6841
C5_2 C 0.25691(15) 0.99520(13) 0.59617(19)
C6_2 C 0.17991(16) 0.77660(15) 0.4877(2)
C7_2 C 0.30458(16) 0.99213(15) 0.6481(2)
C9_2 C 0.34216(16) 0.95272(16) 0.6433(2)
H4_2 H 0.3358 0.9286 0.6098
C10_2 C 0.39719(17) 0.98607(16) 0.7413(2)
C11_2 C 0.44880(16) 0.98718(17) 0.7850(2)
C13_2 C 0.5000 0.9815(2) 0.7499(3)
H6_2 H 0.5000 0.9736 0.7010
C14_2 C 0.22385(18) 0.85045(18) 0.5118(3)
H7_2 H 0.2556 0.8665 0.5271
C15_2 C 0.1359(2) 0.80352(18) 0.4624(4)
H8_2 H 0.1047 0.7884 0.4435
C16_2 C 0.2251(2) 0.80266(18) 0.5128(3)
H9_2 H 0.2564 0.7869 0.5305
C17_2 C 0.1376(2) 0.84992(19) 0.4645(4)
H10_2 H 0.1067 0.8662 0.4469
O6_2 O 0.62968(11) 0.96239(10) 0.91571(14)
O7_2 O 0.75236(11) 0.95773(10) 0.55814(14)
C18_2 C 0.60231(15) 0.99992(13) 0.90518(17)
C19_2 C 0.55125(15) 0.99755(12) 0.85876(19)
C20_2 C 0.61214(16) 0.95059(16) 0.6885(2)
H11_2 H 0.5871 0.9254 0.6841
C21_2 C 0.74309(15) 0.99520(13) 0.59617(19)
C22_2 C 0.69542(16) 0.99213(15) 0.6481(2)
C24_2 C 0.65784(16) 0.95272(16) 0.6433(2)
H13_2 H 0.6642 0.9286 0.6098
C25_2 C 0.60281(17) 0.98607(16) 0.7413(2)
C26_2 C 0.55120(16) 0.98718(17) 0.7850(2)
N2_2 N 0.18062(11) 0.62332(13) 0.49047(16)
C28_2 C 0.17991(16) 0.72340(15) 0.4877(2)
C29_2 C 0.22385(18) 0.64955(18) 0.5118(3)
H15_2 H 0.2556 0.6335 0.5271
C30_2 C 0.1359(2) 0.69648(18) 0.4624(4)
H16_2 H 0.1047 0.7116 0.4435
C31_2 C 0.2251(2) 0.69734(18) 0.5128(3)
H17_2 H 0.2564 0.7131 0.5305
C32_2 C 0.1376(2) 0.65008(19) 0.4645(4)
H18_2 H 0.1067 0.6338 0.4469
O9_2 O 0.11238(11) 0.96049(10) 0.43392(14)
O12_2 O 0.12968(11) 0.96239(10) 0.58429(14)
O14_2 O 0.23070(11) 0.96674(10) 0.40738(14)
O2_3 O 0.37032(11) 0.03761(10) 0.08429(14)
C1_3 C 0.39769(15) 0.00008(13) 0.09482(17)
C2_3 C 0.44875(15) 0.00245(12) 0.14124(19)
C4_3 C 0.38786(16) 0.04941(16) 0.3115(2)
H2_3 H 0.4129 0.0746 0.3159
C5_3 C 0.25691(15) 0.00480(13) 0.40383(19)
C6_3 C 0.17991(16) 0.22340(15) 0.5123(2)
C7_3 C 0.30458(16) 0.00787(15) 0.3519(2)
C9_3 C 0.34216(16) 0.04728(16) 0.3567(2)
H4_3 H 0.3358 0.0714 0.3902
C10_3 C 0.39719(17) 0.01393(16) 0.2587(2)
C11_3 C 0.44880(16) 0.01282(17) 0.2150(2)
C13_3 C 0.5000 0.0185(2) 0.2501(3)
H6_3 H 0.5000 0.0264 0.2990
C14_3 C 0.22385(18) 0.14955(18) 0.4882(3)
H7_3 H 0.2556 0.1335 0.4729
C15_3 C 0.1359(2) 0.19648(18) 0.5376(4)
H8_3 H 0.1047 0.2116 0.5565
C16_3 C 0.2251(2) 0.19734(18) 0.4872(3)
H9_3 H 0.2564 0.2131 0.4695
C17_3 C 0.1376(2) 0.15008(19) 0.5355(4)
H10_3 H 0.1067 0.1338 0.5531
O6_3 O 0.62968(11) 0.03761(10) 0.08429(14)
O7_3 O 0.75236(11) 0.04227(10) 0.44186(14)
C18_3 C 0.60231(15) 0.00008(13) 0.09482(17)
C19_3 C 0.55125(15) 0.00245(12) 0.14124(19)
C20_3 C 0.61214(16) 0.04941(16) 0.3115(2)
H11_3 H 0.5871 0.0746 0.3159
C21_3 C 0.74309(15) 0.00480(13) 0.40383(19)
C22_3 C 0.69542(16) 0.00787(15) 0.3519(2)
C24_3 C 0.65784(16) 0.04728(16) 0.3567(2)
H13_3 H 0.6642 0.0714 0.3902
C25_3 C 0.60281(17) 0.01393(16) 0.2587(2)
C26_3 C 0.55120(16) 0.01282(17) 0.2150(2)
N2_3 N 0.18062(11) 0.37668(13) 0.50953(16)
C28_3 C 0.17991(16) 0.27660(15) 0.5123(2)
C29_3 C 0.22385(18) 0.35045(18) 0.4882(3)
H15_3 H 0.2556 0.3665 0.4729
C30_3 C 0.1359(2) 0.30352(18) 0.5376(4)
H16_3 H 0.1047 0.2884 0.5565
C31_3 C 0.2251(2) 0.30266(18) 0.4872(3)
H17_3 H 0.2564 0.2869 0.4695
C32_3 C 0.1376(2) 0.34992(19) 0.5355(4)
H18_3 H 0.1067 0.3662 0.5531
O1_3 O 0.38762(11) 0.96049(10) 0.06608(14)
C3_3 C 0.5000 0.99773(19) 0.1078(3)
H1_3 H 0.5000 0.9908 0.0586
C8_3 C 0.31284(16) 0.97506(19) 0.2989(2)
H3_3 H 0.2876 0.9502 0.2936
C12_3 C 0.35813(16) 0.97798(17) 0.2527(2)
H5_3 H 0.3624 0.9551 0.2166
O5_3 O 0.61238(11) 0.96049(10) 0.06608(14)
O8_3 O 0.76930(11) 0.96674(10) 0.40738(14)
C23_3 C 0.68716(16) 0.97506(19) 0.2989(2)
H12_3 H 0.7124 0.9502 0.2936
C27_3 C 0.64187(16) 0.97798(17) 0.2527(2)
H14_3 H 0.6376 0.9551 0.2166
O1_4 O 0.61238(11) 0.53951(10) 0.06608(14)
O2_4 O 0.62968(11) 0.46239(10) 0.08429(14)
C1_4 C 0.60231(15) 0.49992(13) 0.09482(17)
C2_4 C 0.55125(15) 0.49755(12) 0.14124(19)
C3_4 C 0.5000 0.50227(19) 0.1078(3)
H1_4 H 0.5000 0.5092 0.0586
C4_4 C 0.61214(16) 0.45059(16) 0.3115(2)
H2_4 H 0.5871 0.4254 0.3159
C5_4 C 0.74309(15) 0.49520(13) 0.40383(19)
C6_4 C 0.82009(16) 0.27660(15) 0.5123(2)
C7_4 C 0.69542(16) 0.49213(15) 0.3519(2)
C8_4 C 0.68716(16) 0.52494(19) 0.2989(2)
H3_4 H 0.7124 0.5498 0.2936
C9_4 C 0.65784(16) 0.45272(16) 0.3567(2)
H4_4 H 0.6642 0.4286 0.3902
C10_4 C 0.60281(17) 0.48607(16) 0.2587(2)
C11_4 C 0.55120(16) 0.48718(17) 0.2150(2)
C12_4 C 0.64187(16) 0.52202(17) 0.2527(2)
H5_4 H 0.6376 0.5449 0.2166
C13_4 C 0.5000 0.4815(2) 0.2501(3)
H6_4 H 0.5000 0.4736 0.2990
C14_4 C 0.77615(18) 0.35045(18) 0.4882(3)
H7_4 H 0.7444 0.3665 0.4729
C15_4 C 0.8641(2) 0.30352(18) 0.5376(4)
H8_4 H 0.8953 0.2884 0.5565
C16_4 C 0.7749(2) 0.30266(18) 0.4872(3)
H9_4 H 0.7436 0.2869 0.4695
C17_4 C 0.8624(2) 0.34992(19) 0.5355(4)
H10_4 H 0.8933 0.3662 0.5531
O5_4 O 0.38762(11) 0.53951(10) 0.06608(14)
O6_4 O 0.37032(11) 0.46239(10) 0.08429(14)
O7_4 O 0.24764(11) 0.45773(10) 0.44186(14)
O8_4 O 0.23070(11) 0.53326(10) 0.40738(14)
C18_4 C 0.39769(15) 0.49992(13) 0.09482(17)
C19_4 C 0.44875(15) 0.49755(12) 0.14124(19)
C20_4 C 0.38786(16) 0.45059(16) 0.3115(2)
H11_4 H 0.4129 0.4254 0.3159
C21_4 C 0.25691(15) 0.49520(13) 0.40383(19)
C22_4 C 0.30458(16) 0.49213(15) 0.3519(2)
C23_4 C 0.31284(16) 0.52494(19) 0.2989(2)
H12_4 H 0.2876 0.5498 0.2936
C24_4 C 0.34216(16) 0.45272(16) 0.3567(2)
H13_4 H 0.3358 0.4286 0.3902
C25_4 C 0.39719(17) 0.48607(16) 0.2587(2)
C26_4 C 0.44880(16) 0.48718(17) 0.2150(2)
C27_4 C 0.35813(16) 0.52202(17) 0.2527(2)
H14_4 H 0.3624 0.5449 0.2166
N2_4 N 0.81938(11) 0.12332(13) 0.50953(16)
C28_4 C 0.82009(16) 0.22340(15) 0.5123(2)
C29_4 C 0.77615(18) 0.14955(18) 0.4882(3)
H15_4 H 0.7444 0.1335 0.4729
C30_4 C 0.8641(2) 0.19648(18) 0.5376(4)
H16_4 H 0.8953 0.2116 0.5565
C31_4 C 0.7749(2) 0.19734(18) 0.4872(3)
H17_4 H 0.7436 0.2131 0.4695
C32_4 C 0.8624(2) 0.15008(19) 0.5355(4)
H18_4 H 0.8933 0.1338 0.5531
O3_3 O 0.25236(11) 0.04227(10) 0.05814(14)
C1_5 C 0.10231(15) 0.00008(13) 0.40518(17)
C2_5 C 0.05125(15) 0.00245(12) 0.35876(19)
C4_5 C 0.11214(16) 0.04941(16) 0.1885(2)
H2_5 H 0.0871 0.0746 0.1841
C5_5 C 0.24309(15) 0.00480(13) 0.09617(19)
C7_5 C 0.19542(16) 0.00787(15) 0.1481(2)
C9_5 C 0.15784(16) 0.04728(16) 0.1433(2)
H4_5 H 0.1642 0.0714 0.1098
C10_5 C 0.10281(17) 0.01393(16) 0.2413(2)
C11_5 C 0.05120(16) 0.01282(17) 0.2850(2)
C13_5 C 0.0000 0.0185(2) 0.2499(3)
H6_5 H 0.0000 0.0264 0.2010
C14_5 C 0.27615(18) 0.14955(18) 0.0118(3)
H7_5 H 0.2444 0.1335 0.0271
C16_5 C 0.2749(2) 0.19734(18) 0.0128(3)
H9_5 H 0.2436 0.2131 0.0305
C29_5 C 0.27615(18) 0.35045(18) 0.0118(3)
H15_5 H 0.2444 0.3665 0.0271
C31_5 C 0.2749(2) 0.30266(18) 0.0128(3)
H17_5 H 0.2436 0.2869 0.0305
N1_3 N 0.31938(11) 0.12332(13) 0.99047(16)
C6_5 C 0.32009(16) 0.22340(15) 0.9877(2)
C15_5 C 0.3641(2) 0.19648(18) 0.9624(4)
H8_5 H 0.3953 0.2116 0.9435
C17_5 C 0.3624(2) 0.15008(19) 0.9645(4)
H10_5 H 0.3933 0.1338 0.9469
N2_5 N 0.31938(11) 0.37668(13) 0.99047(16)
C28_5 C 0.32009(16) 0.27660(15) 0.9877(2)
C30_5 C 0.3641(2) 0.30352(18) 0.9624(4)
H16_5 H 0.3953 0.2884 0.9435
C32_5 C 0.3624(2) 0.34992(19) 0.9645(4)
H18_5 H 0.3933 0.3662 0.9469
O14_3 O 0.26930(11) 0.03326(10) 0.90738(14)
O4_3 O 0.26930(11) 0.96674(10) 0.09262(14)
C3_5 C 0.0000 0.99773(19) 0.3922(3)
H1_5 H 0.0000 0.9908 0.4414
C8_5 C 0.18716(16) 0.97506(19) 0.2011(2)
H3_5 H 0.2124 0.9502 0.2064
C12_5 C 0.14187(16) 0.97798(17) 0.2473(2)
H5_5 H 0.1376 0.9551 0.2834
N3_3 N 0.31938(11) 0.87668(13) 0.00953(16)
O13_3 O 0.25236(11) 0.95773(10) 0.94186(14)
C13_6 C 1.0000 0.0185(2) 0.2499(3)
H6_6 H 1.0000 0.0264 0.2010
O6_5 O 0.87032(11) 0.03761(10) 0.41571(14)
O7_5 O 0.74764(11) 0.04227(10) 0.05814(14)
C18_5 C 0.89769(15) 0.00008(13) 0.40518(17)
C19_5 C 0.94875(15) 0.00245(12) 0.35876(19)
C20_5 C 0.88786(16) 0.04941(16) 0.1885(2)
H11_5 H 0.9129 0.0746 0.1841
C21_5 C 0.75691(15) 0.00480(13) 0.09617(19)
C22_5 C 0.80458(16) 0.00787(15) 0.1481(2)
C24_5 C 0.84216(16) 0.04728(16) 0.1433(2)
H13_5 H 0.8358 0.0714 0.1098
C25_5 C 0.89719(17) 0.01393(16) 0.2413(2)
C26_5 C 0.94880(16) 0.01282(17) 0.2850(2)
C3_6 C 1.0000 0.99773(19) 0.3922(3)
H1_6 H 1.0000 0.9908 0.4414
O5_5 O 0.88762(11) 0.96049(10) 0.43392(14)
O8_5 O 0.73070(11) 0.96674(10) 0.09262(14)
C23_5 C 0.81284(16) 0.97506(19) 0.2011(2)
H12_5 H 0.7876 0.9502 0.2064
C27_5 C 0.85813(16) 0.97798(17) 0.2473(2)
H14_5 H 0.8624 0.9551 0.2834
C3_7 C -0.0000 0.50227(19) 0.3922(3)
H1_7 H -0.0000 0.5092 0.4414
C13_7 C -0.0000 0.4815(2) 0.2499(3)
H6_7 H -0.0000 0.4736 0.2010
O5_6 O 0.11238(11) 0.53951(10) 0.43392(14)
O6_6 O 0.12968(11) 0.46239(10) 0.41571(14)
O7_6 O 0.25236(11) 0.45773(10) 0.05814(14)
O8_6 O 0.26930(11) 0.53326(10) 0.09262(14)
C18_6 C 0.10231(15) 0.49992(13) 0.40518(17)
C19_6 C 0.05125(15) 0.49755(12) 0.35876(19)
C20_6 C 0.11214(16) 0.45059(16) 0.1885(2)
H11_6 H 0.0871 0.4254 0.1841
C21_6 C 0.24309(15) 0.49520(13) 0.09617(19)
C22_6 C 0.19542(16) 0.49213(15) 0.1481(2)
C23_6 C 0.18716(16) 0.52494(19) 0.2011(2)
H12_6 H 0.2124 0.5498 0.2064
C24_6 C 0.15784(16) 0.45272(16) 0.1433(2)
H13_6 H 0.1642 0.4286 0.1098
C25_6 C 0.10281(17) 0.48607(16) 0.2413(2)
C26_6 C 0.05120(16) 0.48718(17) 0.2850(2)
C27_6 C 0.14187(16) 0.52202(17) 0.2473(2)
H14_6 H 0.1376 0.5449 0.2834
O3_4 O 0.74764(11) 0.45773(10) 0.05814(14)
O4_4 O 0.73070(11) 0.53326(10) 0.09262(14)
C1_6 C 0.89769(15) 0.49992(13) 0.40518(17)
C2_6 C 0.94875(15) 0.49755(12) 0.35876(19)
C3_8 C 1.0000 0.50227(19) 0.3922(3)
H1_8 H 1.0000 0.5092 0.4414
C4_6 C 0.88786(16) 0.45059(16) 0.1885(2)
H2_6 H 0.9129 0.4254 0.1841
C5_6 C 0.75691(15) 0.49520(13) 0.09617(19)
C7_6 C 0.80458(16) 0.49213(15) 0.1481(2)
C8_6 C 0.81284(16) 0.52494(19) 0.2011(2)
H3_6 H 0.7876 0.5498 0.2064
C9_6 C 0.84216(16) 0.45272(16) 0.1433(2)
H4_6 H 0.8358 0.4286 0.1098
C10_6 C 0.89719(17) 0.48607(16) 0.2413(2)
C11_6 C 0.94880(16) 0.48718(17) 0.2850(2)
C12_6 C 0.85813(16) 0.52202(17) 0.2473(2)
H5_6 H 0.8624 0.5449 0.2834
C13_8 C 1.0000 0.4815(2) 0.2499(3)
H6_8 H 1.0000 0.4736 0.2010
C14_6 C 0.72385(18) 0.35045(18) 0.0118(3)
H7_6 H 0.7556 0.3665 0.0271
C16_6 C 0.7251(2) 0.30266(18) 0.0128(3)
H9_6 H 0.7564 0.2869 0.0305
C29_6 C 0.72385(18) 0.14955(18) 0.0118(3)
H15_6 H 0.7556 0.1335 0.0271
C31_6 C 0.7251(2) 0.19734(18) 0.0128(3)
H17_6 H 0.7564 0.2131 0.0305
N3_4 N 0.68062(11) 0.62332(13) 0.00953(16)
N1_4 N 0.68062(11) 0.37668(13) 0.99047(16)
C6_6 C 0.67991(16) 0.27660(15) 0.9877(2)
C15_6 C 0.6359(2) 0.30352(18) 0.9624(4)
H8_6 H 0.6047 0.2884 0.9435
C17_6 C 0.6376(2) 0.34992(19) 0.9645(4)
H10_6 H 0.6067 0.3662 0.9469
N2_6 N 0.68062(11) 0.12332(13) 0.99047(16)
C28_6 C 0.67991(16) 0.22340(15) 0.9877(2)
C30_6 C 0.6359(2) 0.19648(18) 0.9624(4)
H16_6 H 0.6047 0.2116 0.9435
C32_6 C 0.6376(2) 0.15008(19) 0.9645(4)
H18_6 H 0.6067 0.1338 0.9469
O13_4 O 0.74764(11) 0.54227(10) 0.94186(14)
O14_4 O 0.73070(11) 0.46674(10) 0.90738(14)
C3_9 C -0.0000 0.49773(19) 0.6078(3)
H1_9 H -0.0000 0.4908 0.5586
C13_9 C -0.0000 0.5185(2) 0.7501(3)
H6_9 H -0.0000 0.5264 0.7990
O5_7 O 0.11238(11) 0.46049(10) 0.56608(14)
O6_7 O 0.12968(11) 0.53761(10) 0.58429(14)
O7_7 O 0.25236(11) 0.54227(10) 0.94186(14)
O8_7 O 0.26930(11) 0.46674(10) 0.90738(14)
C18_7 C 0.10231(15) 0.50008(13) 0.59482(17)
C19_7 C 0.05125(15) 0.50245(12) 0.64124(19)
C20_7 C 0.11214(16) 0.54941(16) 0.8115(2)
H11_7 H 0.0871 0.5746 0.8159
C21_7 C 0.24309(15) 0.50480(13) 0.90383(19)
C22_7 C 0.19542(16) 0.50787(15) 0.8519(2)
C23_7 C 0.18716(16) 0.47506(19) 0.7989(2)
H12_7 H 0.2124 0.4502 0.7936
C24_7 C 0.15784(16) 0.54728(16) 0.8567(2)
H13_7 H 0.1642 0.5714 0.8902
C25_7 C 0.10281(17) 0.51393(16) 0.7587(2)
C26_7 C 0.05120(16) 0.51282(17) 0.7150(2)
C27_7 C 0.14187(16) 0.47798(17) 0.7527(2)
H14_7 H 0.1376 0.4551 0.7166
C6_7 C 0.67991(16) 0.72340(15) 0.0123(2)
C15_7 C 0.6359(2) 0.69648(18) 0.0376(4)
H8_7 H 0.6047 0.7116 0.0565
C17_7 C 0.6376(2) 0.65008(19) 0.0355(4)
H10_7 H 0.6067 0.6338 0.0531
N2_7 N 0.68062(11) 0.87668(13) 0.00953(16)
C28_7 C 0.67991(16) 0.77660(15) 0.0123(2)
C30_7 C 0.6359(2) 0.80352(18) 0.0376(4)
H16_7 H 0.6047 0.7884 0.0565
C32_7 C 0.6376(2) 0.84992(19) 0.0355(4)
H18_7 H 0.6067 0.8662 0.0531
C1_7 C 0.89769(15) 0.50008(13) 0.59482(17)
C2_7 C 0.94875(15) 0.50245(12) 0.64124(19)
C3_10 C 1.0000 0.49773(19) 0.6078(3)
H1_10 H 1.0000 0.4908 0.5586
C4_7 C 0.88786(16) 0.54941(16) 0.8115(2)
H2_7 H 0.9129 0.5746 0.8159
C5_7 C 0.75691(15) 0.50480(13) 0.90383(19)
C7_7 C 0.80458(16) 0.50787(15) 0.8519(2)
C8_7 C 0.81284(16) 0.47506(19) 0.7989(2)
H3_7 H 0.7876 0.4502 0.7936
C9_7 C 0.84216(16) 0.54728(16) 0.8567(2)
H4_7 H 0.8358 0.5714 0.8902
C10_7 C 0.89719(17) 0.51393(16) 0.7587(2)
C11_7 C 0.94880(16) 0.51282(17) 0.7150(2)
C12_7 C 0.85813(16) 0.47798(17) 0.7527(2)
H5_7 H 0.8624 0.4551 0.7166
C13_10 C 1.0000 0.5185(2) 0.7501(3)
H6_10 H 1.0000 0.5264 0.7990
C14_7 C 0.72385(18) 0.64955(18) 0.9882(3)
H7_7 H 0.7556 0.6335 0.9729
C16_7 C 0.7251(2) 0.69734(18) 0.9872(3)
H9_7 H 0.7564 0.7131 0.9695
C29_7 C 0.72385(18) 0.85045(18) 0.9882(3)
H15_7 H 0.7556 0.8665 0.9729
C31_7 C 0.7251(2) 0.80266(18) 0.9872(3)
H17_7 H 0.7564 0.7869 0.9695
C3_11 C 0.0000 0.00227(19) 0.6078(3)
H1_11 H 0.0000 0.0092 0.5586
C8_8 C 0.18716(16) 0.02494(19) 0.7989(2)
H3_8 H 0.2124 0.0498 0.7936
C12_8 C 0.14187(16) 0.02202(17) 0.7527(2)
H5_8 H 0.1376 0.0449 0.7166
C6_8 C 0.32009(16) 0.77660(15) 0.0123(2)
C15_8 C 0.3641(2) 0.80352(18) 0.0376(4)
H8_8 H 0.3953 0.7884 0.0565
C17_8 C 0.3624(2) 0.84992(19) 0.0355(4)
H10_8 H 0.3933 0.8662 0.0531
N2_8 N 0.31938(11) 0.62332(13) 0.00953(16)
C28_8 C 0.32009(16) 0.72340(15) 0.0123(2)
C30_8 C 0.3641(2) 0.69648(18) 0.0376(4)
H16_8 H 0.3953 0.7116 0.0565
C32_8 C 0.3624(2) 0.65008(19) 0.0355(4)
H18_8 H 0.3933 0.6338 0.0531
C1_8 C 0.10231(15) 0.99992(13) 0.59482(17)
C2_8 C 0.05125(15) 0.99755(12) 0.64124(19)
C4_8 C 0.11214(16) 0.95059(16) 0.8115(2)
H2_8 H 0.0871 0.9254 0.8159
C5_8 C 0.24309(15) 0.99520(13) 0.90383(19)
C7_8 C 0.19542(16) 0.99213(15) 0.8519(2)
C9_8 C 0.15784(16) 0.95272(16) 0.8567(2)
H4_8 H 0.1642 0.9286 0.8902
C10_8 C 0.10281(17) 0.98607(16) 0.7587(2)
C11_8 C 0.05120(16) 0.98718(17) 0.7150(2)
C13_11 C 0.0000 0.9815(2) 0.7501(3)
H6_11 H 0.0000 0.9736 0.7990
C14_8 C 0.27615(18) 0.85045(18) 0.9882(3)
H7_8 H 0.2444 0.8665 0.9729
C16_8 C 0.2749(2) 0.80266(18) 0.9872(3)
H9_8 H 0.2436 0.7869 0.9695
C29_8 C 0.27615(18) 0.64955(18) 0.9882(3)
H15_8 H 0.2444 0.6335 0.9729
C31_8 C 0.2749(2) 0.69734(18) 0.9872(3)
H17_8 H 0.2436 0.7131 0.9695
C3_12 C 1.0000 0.00227(19) 0.6078(3)
H1_12 H 1.0000 0.0092 0.5586
O5_8 O 0.88762(11) 0.03951(10) 0.56608(14)
O8_8 O 0.73070(11) 0.03326(10) 0.90738(14)
C23_8 C 0.81284(16) 0.02494(19) 0.7989(2)
H12_8 H 0.7876 0.0498 0.7936
C27_8 C 0.85813(16) 0.02202(17) 0.7527(2)
H14_8 H 0.8624 0.0449 0.7166
C13_12 C 1.0000 0.9815(2) 0.7501(3)
H6_12 H 1.0000 0.9736 0.7990
O6_8 O 0.87032(11) 0.96239(10) 0.58429(14)
O7_8 O 0.74764(11) 0.95773(10) 0.94186(14)
C18_8 C 0.89769(15) 0.99992(13) 0.59482(17)
C19_8 C 0.94875(15) 0.99755(12) 0.64124(19)
C20_8 C 0.88786(16) 0.95059(16) 0.8115(2)
H11_8 H 0.9129 0.9254 0.8159
C21_8 C 0.75691(15) 0.99520(13) 0.90383(19)
C22_8 C 0.80458(16) 0.99213(15) 0.8519(2)
C24_8 C 0.84216(16) 0.95272(16) 0.8567(2)
H13_8 H 0.8358 0.9286 0.8902
C25_8 C 0.89719(17) 0.98607(16) 0.7587(2)
C26_8 C 0.94880(16) 0.98718(17) 0.7150(2)
loop_
_geom_bond_atom_site_label_1
_geom_bond_atom_site_label_2
_geom_bond_site_symmetry_1
_geom_bond_site_symmetry_2
Zn1 O3 1_555 1_555
O1 C1 1_555 1_555
O2 C1 1_555 1_555
O3 C5 1_555 1_555
O4 C5 1_555 1_555
N1 Zn1 1_555 1_555
C1 C2 1_555 1_555
C2 C3 1_555 1_555
C3 H1 1_555 1_555
C4 H2 1_555 1_555
C5 C7 1_555 1_555
C6 C15 1_555 1_555
C7 C8 1_555 1_555
C8 H3 1_555 1_555
C9 C4 1_555 1_555
H4 C9 1_555 1_555
C10 C4 1_555 1_555
C11 C2 1_555 1_555
C12 C8 1_555 1_555
H5 C12 1_555 1_555
C13 C11 1_555 1_555
H6 C13 1_555 1_555
C14 N1 1_555 1_555
H7 C14 1_555 1_555
C15 H8 1_555 1_555
C16 C6 1_555 1_555
H9 C16 1_555 1_555
C17 N1 1_555 1_555
H10 C17 1_555 1_555
O5 C18 1_555 1_555
O6 C18 1_555 1_555
O7 C21 1_555 1_555
O8 C21 1_555 1_555
C18 C19 1_555 1_555
C19 C3 1_555 1_555
C20 H11 1_555 1_555
C21 C22 1_555 1_555
C22 C23 1_555 1_555
C23 H12 1_555 1_555
C24 C20 1_555 1_555
H13 C24 1_555 1_555
C25 C20 1_555 1_555
C26 C13 1_555 1_555
C27 C23 1_555 1_555
H14 C27 1_555 1_555
N2 C29 1_555 1_555
C28 C6 1_555 1_555
C29 H15 1_555 1_555
C30 C28 1_555 1_555
H16 C30 1_555 1_555
C31 C28 1_555 1_555
H17 C31 1_555 1_555
C32 N2 1_555 1_555
H18 C32 1_555 1_555
Zn2 O4 1_555 1_555
Zn3 O1 1_555 1_555
Zn5 O8 1_555 1_555
Zn6 N2 1_555 1_555
Zn7 O7 1_555 1_555
Zn9 O5 1_555 1_555
O9 Zn1 1_555 1_555
O10 Zn2 1_555 1_555
O11 Zn2 1_555 1_555
O12 Zn1 1_555 1_555
O13 Zn2 1_555 1_555
O14 Zn1 1_555 1_555
N3 Zn2 1_555 1_555
C7 C9 1_555 1_555
C10 C11 1_555 1_555
C10 C12 1_555 1_555
C14 C16 1_555 1_555
C15 C17 1_555 1_555
C19 C26 1_555 1_555
C22 C24 1_555 1_555
C25 C26 1_555 1_555
C25 C27 1_555 1_555
C29 C31 1_555 1_555
C30 C32 1_555 1_555
C3_2 H1_2 1_555 1_555
C8_2 H3_2 1_555 1_555
C12_2 C8_2 1_555 1_555
H5_2 C12_2 1_555 1_555
C23_2 H12_2 1_555 1_555
C27_2 C23_2 1_555 1_555
H14_2 C27_2 1_555 1_555
Zn2_2 O4_2 1_555 1_555
Zn3_2 O1_2 1_555 1_555
Zn5_2 O8_2 1_555 1_555
Zn9_2 O5_2 1_555 1_555
O10_2 Zn2_2 1_555 1_555
O11_2 Zn2_2 1_555 1_555
O13_2 Zn2_2 1_555 1_555
N3_2 Zn2_2 1_555 1_555
Zn1_2 O3_2 1_555 1_555
O2_2 C1_2 1_555 1_555
O3_2 C5_2 1_555 1_555
N1_2 Zn1_2 1_555 1_555
C1_2 C2_2 1_555 1_555
C4_2 H2_2 1_555 1_555
C5_2 C7_2 1_555 1_555
C6_2 C15_2 1_555 1_555
C9_2 C4_2 1_555 1_555
H4_2 C9_2 1_555 1_555
C10_2 C4_2 1_555 1_555
C11_2 C2_2 1_555 1_555
C13_2 C11_2 1_555 1_555
H6_2 C13_2 1_555 1_555
C14_2 N1_2 1_555 1_555
H7_2 C14_2 1_555 1_555
C15_2 H8_2 1_555 1_555
C16_2 C6_2 1_555 1_555
H9_2 C16_2 1_555 1_555
C17_2 N1_2 1_555 1_555
H10_2 C17_2 1_555 1_555
O6_2 C18_2 1_555 1_555
O7_2 C21_2 1_555 1_555
C18_2 C19_2 1_555 1_555
C20_2 H11_2 1_555 1_555
C21_2 C22_2 1_555 1_555
C24_2 C20_2 1_555 1_555
H13_2 C24_2 1_555 1_555
C25_2 C20_2 1_555 1_555
C26_2 C13_2 1_555 1_555
N2_2 C29_2 1_555 1_555
C28_2 C6_2 1_555 1_555
C29_2 H15_2 1_555 1_555
C30_2 C28_2 1_555 1_555
H16_2 C30_2 1_555 1_555
C31_2 C28_2 1_555 1_555
H17_2 C31_2 1_555 1_555
C32_2 N2_2 1_555 1_555
H18_2 C32_2 1_555 1_555
Zn7 N2_2 1_555 1_555
Zn6 O7_2 1_555 1_555
O9_2 Zn1_2 1_555 1_555
O12_2 Zn1_2 1_555 1_555
O14_2 Zn1_2 1_555 1_555
C7_2 C9_2 1_555 1_555
C10_2 C11_2 1_555 1_555
C14_2 C16_2 1_555 1_555
C15_2 C17_2 1_555 1_555
C19_2 C26_2 1_555 1_555
C22_2 C24_2 1_555 1_555
C25_2 C26_2 1_555 1_555
C29_2 C31_2 1_555 1_555
C30_2 C32_2 1_555 1_555
O2_3 C1_3 1_555 1_555
O13_2 C5_3 1_555 1_555
C1_3 C2_3 1_555 1_555
C4_3 H2_3 1_555 1_555
C5_3 C7_3 1_555 1_555
C6_3 C15_3 1_555 1_555
C9_3 C4_3 1_555 1_555
H4_3 C9_3 1_555 1_555
C10_3 C4_3 1_555 1_555
C11_3 C2_3 1_555 1_555
C13_3 C11_3 1_555 1_555
H6_3 C13_3 1_555 1_555
C14_3 N3_2 1_555 1_555
H7_3 C14_3 1_555 1_555
C15_3 H8_3 1_555 1_555
C16_3 C6_3 1_555 1_555
H9_3 C16_3 1_555 1_555
C17_3 N3_2 1_555 1_555
H10_3 C17_3 1_555 1_555
O6_3 C18_3 1_555 1_555
O7_3 C21_3 1_555 1_555
C18_3 C19_3 1_555 1_555
C20_3 H11_3 1_555 1_555
C21_3 C22_3 1_555 1_555
C24_3 C20_3 1_555 1_555
H13_3 C24_3 1_555 1_555
C25_3 C20_3 1_555 1_555
C26_3 C13_3 1_555 1_555
N2_3 C29_3 1_555 1_555
C28_3 C6_3 1_555 1_555
C29_3 H15_3 1_555 1_555
C30_3 C28_3 1_555 1_555
H16_3 C30_3 1_555 1_555
C31_3 C28_3 1_555 1_555
H17_3 C31_3 1_555 1_555
C32_3 N2_3 1_555 1_555
H18_3 C32_3 1_555 1_555
Zn5 N2_3 1_555 1_555
Zn5_2 O7_3 1_555 1_555
C7_3 C9_3 1_555 1_555
C10_3 C11_3 1_555 1_555
C14_3 C16_3 1_555 1_555
C15_3 C17_3 1_555 1_555
C19_3 C26_3 1_555 1_555
C22_3 C24_3 1_555 1_555
C25_3 C26_3 1_555 1_555
C29_3 C31_3 1_555 1_555
C30_3 C32_3 1_555 1_555
C3_3 H1_3 1_555 1_555
C8_3 H3_3 1_555 1_555
C12_3 C8_3 1_555 1_555
H5_3 C12_3 1_555 1_555
C23_3 H12_3 1_555 1_555
C27_3 C23_3 1_555 1_555
H14_3 C27_3 1_555 1_555
Zn4_2 O1_3 1_555 1_555
Zn6 O8_3 1_555 1_555
Zn8_2 O5_3 1_555 1_555
O1_4 C1_4 1_555 1_555
O2_4 C1_4 1_555 1_555
O13 C5_4 1_555 1_555
O14 C5_4 1_555 1_555
C1_4 C2_4 1_555 1_555
C2_4 C3_4 1_555 1_555
C3_4 H1_4 1_555 1_555
C4_4 H2_4 1_555 1_555
C5_4 C7_4 1_555 1_555
C6_4 C15_4 1_555 1_555
C7_4 C8_4 1_555 1_555
C8_4 H3_4 1_555 1_555
C9_4 C4_4 1_555 1_555
H4_4 C9_4 1_555 1_555
C10_4 C4_4 1_555 1_555
C11_4 C2_4 1_555 1_555
C12_4 C8_4 1_555 1_555
H5_4 C12_4 1_555 1_555
C13_4 C11_4 1_555 1_555
H6_4 C13_4 1_555 1_555
C14_4 N3 1_555 1_555
H7_4 C14_4 1_555 1_555
C15_4 H8_4 1_555 1_555
C16_4 C6_4 1_555 1_555
H9_4 C16_4 1_555 1_555
C17_4 N3 1_555 1_555
H10_4 C17_4 1_555 1_555
O5_4 C18_4 1_555 1_555
O6_4 C18_4 1_555 1_555
O7_4 C21_4 1_555 1_555
O8_4 C21_4 1_555 1_555
C18_4 C19_4 1_555 1_555
C19_4 C3_4 1_555 1_555
C20_4 H11_4 1_555 1_555
C21_4 C22_4 1_555 1_555
C22_4 C23_4 1_555 1_555
C23_4 H12_4 1_555 1_555
C24_4 C20_4 1_555 1_555
H13_4 C24_4 1_555 1_555
C25_4 C20_4 1_555 1_555
C26_4 C13_4 1_555 1_555
C27_4 C23_4 1_555 1_555
H14_4 C27_4 1_555 1_555
N2_4 C29_4 1_555 1_555
C28_4 C6_4 1_555 1_555
C29_4 H15_4 1_555 1_555
C30_4 C28_4 1_555 1_555
H16_4 C30_4 1_555 1_555
C31_4 C28_4 1_555 1_555
H17_4 C31_4 1_555 1_555
C32_4 N2_4 1_555 1_555
H18_4 C32_4 1_555 1_555
Zn4 O1_4 1_555 1_555
Zn7 O8_4 1_555 1_555
Zn5_2 N2_4 1_555 1_555
Zn5 O7_4 1_555 1_555
Zn8 O5_4 1_555 1_555
C7_4 C9_4 1_555 1_555
C10_4 C11_4 1_555 1_555
C10_4 C12_4 1_555 1_555
C14_4 C16_4 1_555 1_555
C15_4 C17_4 1_555 1_555
C19_4 C26_4 1_555 1_555
C22_4 C24_4 1_555 1_555
C25_4 C26_4 1_555 1_555
C25_4 C27_4 1_555 1_555
C29_4 C31_4 1_555 1_555
C30_4 C32_4 1_555 1_555
O11_2 C1_5 1_555 1_555
O3_3 C5_5 1_555 1_555
C1_5 C2_5 1_555 1_555
C4_5 H2_5 1_555 1_555
C5_5 C7_5 1_555 1_555
C9_5 C4_5 1_555 1_555
H4_5 C9_5 1_555 1_555
C10_5 C4_5 1_555 1_555
C11_5 C2_5 1_555 1_555
C13_5 C11_5 1_555 1_555
H6_5 C13_5 1_555 1_555
H7_5 C14_5 1_555 1_555
H9_5 C16_5 1_555 1_555
C29_5 H15_5 1_555 1_555
H17_5 C31_5 1_555 1_555
C7_5 C9_5 1_555 1_555
C10_5 C11_5 1_555 1_555
C14_5 C16_5 1_555 1_555
C29_5 C31_5 1_555 1_555
N1_3 Zn3_2 1_555 1_555
C6_5 C15_5 1_555 1_555
C15_5 H8_5 1_555 1_555
C17_5 N1_3 1_555 1_555
H10_5 C17_5 1_555 1_555
C28_5 C6_5 1_555 1_555
C30_5 C28_5 1_555 1_555
H16_5 C30_5 1_555 1_555
C32_5 N2_5 1_555 1_555
H18_5 C32_5 1_555 1_555
Zn9 N2_5 1_555 1_555
O14_3 Zn3_2 1_555 1_555
C15_5 C17_5 1_555 1_555
C30_5 C32_5 1_555 1_555
C3_5 H1_5 1_555 1_555
C8_5 H3_5 1_555 1_555
C12_5 C8_5 1_555 1_555
H5_5 C12_5 1_555 1_555
Zn4_2 O4_3 1_555 1_555
N3_3 Zn4_2 1_555 1_555
H6_6 C13_6 1_555 1_555
O6_5 C18_5 1_555 1_555
O7_5 C21_5 1_555 1_555
C18_5 C19_5 1_555 1_555
C20_5 H11_5 1_555 1_555
C21_5 C22_5 1_555 1_555
C24_5 C20_5 1_555 1_555
H13_5 C24_5 1_555 1_555
C25_5 C20_5 1_555 1_555
C26_5 C13_6 1_555 1_555
Zn5_2 O6_5 1_555 1_555
C19_5 C26_5 1_555 1_555
C22_5 C24_5 1_555 1_555
C25_5 C26_5 1_555 1_555
C3_6 H1_6 1_555 1_555
C23_5 H12_5 1_555 1_555
C27_5 C23_5 1_555 1_555
H14_5 C27_5 1_555 1_555
Zn8_2 O8_5 1_555 1_555
Zn6 O5_5 1_555 1_555
C3_7 H1_7 1_555 1_555
H6_7 C13_7 1_555 1_555
O5_6 C18_6 1_555 1_555
O6_6 C18_6 1_555 1_555
O7_6 C21_6 1_555 1_555
O8_6 C21_6 1_555 1_555
C18_6 C19_6 1_555 1_555
C19_6 C3_7 1_555 1_555
C20_6 H11_6 1_555 1_555
C21_6 C22_6 1_555 1_555
C22_6 C23_6 1_555 1_555
C23_6 H12_6 1_555 1_555
C24_6 C20_6 1_555 1_555
H13_6 C24_6 1_555 1_555
C25_6 C20_6 1_555 1_555
C26_6 C13_7 1_555 1_555
C27_6 C23_6 1_555 1_555
H14_6 C27_6 1_555 1_555
Zn8 O8_6 1_555 1_555
Zn5 O6_6 1_555 1_555
Zn7 O5_6 1_555 1_555
C19_6 C26_6 1_555 1_555
C22_6 C24_6 1_555 1_555
C25_6 C26_6 1_555 1_555
C25_6 C27_6 1_555 1_555
O9 C1_6 1_555 1_555
O11 C1_6 1_555 1_555
O3_4 C5_6 1_555 1_555
O4_4 C5_6 1_555 1_555
C1_6 C2_6 1_555 1_555
C2_6 C3_8 1_555 1_555
C3_8 H1_8 1_555 1_555
C4_6 H2_6 1_555 1_555
C5_6 C7_6 1_555 1_555
C7_6 C8_6 1_555 1_555
C8_6 H3_6 1_555 1_555
C9_6 C4_6 1_555 1_555
H4_6 C9_6 1_555 1_555
C10_6 C4_6 1_555 1_555
C11_6 C2_6 1_555 1_555
C12_6 C8_6 1_555 1_555
H5_6 C12_6 1_555 1_555
C13_8 C11_6 1_555 1_555
H6_8 C13_8 1_555 1_555
H7_6 C14_6 1_555 1_555
H9_6 C16_6 1_555 1_555
C29_6 H15_6 1_555 1_555
H17_6 C31_6 1_555 1_555
Zn4 O4_4 1_555 1_555
N3_4 Zn4 1_555 1_555
C7_6 C9_6 1_555 1_555
C10_6 C11_6 1_555 1_555
C10_6 C12_6 1_555 1_555
C14_6 C16_6 1_555 1_555
C29_6 C31_6 1_555 1_555
N1_4 Zn3 1_555 1_555
C6_6 C15_6 1_555 1_555
C15_6 H8_6 1_555 1_555
C17_6 N1_4 1_555 1_555
H10_6 C17_6 1_555 1_555
C28_6 C6_6 1_555 1_555
C30_6 C28_6 1_555 1_555
H16_6 C30_6 1_555 1_555
C32_6 N2_6 1_555 1_555
H18_6 C32_6 1_555 1_555
Zn9_2 N2_6 1_555 1_555
O14_4 Zn3 1_555 1_555
C15_6 C17_6 1_555 1_555
C30_6 C32_6 1_555 1_555
C3_9 H1_9 1_555 1_555
H6_9 C13_9 1_555 1_555
O5_7 C18_7 1_555 1_555
O6_7 C18_7 1_555 1_555
O7_7 C21_7 1_555 1_555
O8_7 C21_7 1_555 1_555
C18_7 C19_7 1_555 1_555
C19_7 C3_9 1_555 1_555
C20_7 H11_7 1_555 1_555
C21_7 C22_7 1_555 1_555
C22_7 C23_7 1_555 1_555
C23_7 H12_7 1_555 1_555
C24_7 C20_7 1_555 1_555
H13_7 C24_7 1_555 1_555
C25_7 C20_7 1_555 1_555
C26_7 C13_9 1_555 1_555
C27_7 C23_7 1_555 1_555
H14_7 C27_7 1_555 1_555
Zn9 O8_7 1_555 1_555
Zn7 O6_7 1_555 1_555
Zn5 O5_7 1_555 1_555
C19_7 C26_7 1_555 1_555
C22_7 C24_7 1_555 1_555
C25_7 C26_7 1_555 1_555
C25_7 C27_7 1_555 1_555
C6_7 C15_7 1_555 1_555
C15_7 H8_7 1_555 1_555
C17_7 N3_4 1_555 1_555
H10_7 C17_7 1_555 1_555
C28_7 C6_7 1_555 1_555
C30_7 C28_7 1_555 1_555
H16_7 C30_7 1_555 1_555
C32_7 N2_7 1_555 1_555
H18_7 C32_7 1_555 1_555
Zn8_2 N2_7 1_555 1_555
C15_7 C17_7 1_555 1_555
C30_7 C32_7 1_555 1_555
O10 C1_7 1_555 1_555
O12 C1_7 1_555 1_555
O13_4 C5_7 1_555 1_555
O14_4 C5_7 1_555 1_555
C1_7 C2_7 1_555 1_555
C2_7 C3_10 1_555 1_555
C3_10 H1_10 1_555 1_555
C4_7 H2_7 1_555 1_555
C5_7 C7_7 1_555 1_555
C7_7 C8_7 1_555 1_555
C8_7 H3_7 1_555 1_555
C9_7 C4_7 1_555 1_555
H4_7 C9_7 1_555 1_555
C10_7 C4_7 1_555 1_555
C11_7 C2_7 1_555 1_555
C12_7 C8_7 1_555 1_555
H5_7 C12_7 1_555 1_555
C13_10 C11_7 1_555 1_555
H6_10 C13_10 1_555 1_555
H7_7 C14_7 1_555 1_555
H9_7 C16_7 1_555 1_555
C29_7 H15_7 1_555 1_555
H17_7 C31_7 1_555 1_555
C7_7 C9_7 1_555 1_555
C10_7 C11_7 1_555 1_555
C10_7 C12_7 1_555 1_555
C14_7 C16_7 1_555 1_555
C29_7 C31_7 1_555 1_555
C3_11 H1_11 1_555 1_555
C8_8 H3_8 1_555 1_555
C12_8 C8_8 1_555 1_555
H5_8 C12_8 1_555 1_555
C6_8 C15_8 1_555 1_555
C15_8 H8_8 1_555 1_555
C17_8 N3_3 1_555 1_555
H10_8 C17_8 1_555 1_555
C28_8 C6_8 1_555 1_555
C30_8 C28_8 1_555 1_555
H16_8 C30_8 1_555 1_555
C32_8 N2_8 1_555 1_555
H18_8 C32_8 1_555 1_555
Zn8 N2_8 1_555 1_555
C15_8 C17_8 1_555 1_555
C30_8 C32_8 1_555 1_555
O12_2 C1_8 1_555 1_555
O13_3 C5_8 1_555 1_555
C1_8 C2_8 1_555 1_555
C4_8 H2_8 1_555 1_555
C5_8 C7_8 1_555 1_555
C9_8 C4_8 1_555 1_555
H4_8 C9_8 1_555 1_555
C10_8 C4_8 1_555 1_555
C11_8 C2_8 1_555 1_555
C13_11 C11_8 1_555 1_555
H6_11 C13_11 1_555 1_555
H7_8 C14_8 1_555 1_555
H9_8 C16_8 1_555 1_555
C29_8 H15_8 1_555 1_555
H17_8 C31_8 1_555 1_555
C7_8 C9_8 1_555 1_555
C10_8 C11_8 1_555 1_555
C14_8 C16_8 1_555 1_555
C29_8 C31_8 1_555 1_555
C3_12 H1_12 1_555 1_555
C23_8 H12_8 1_555 1_555
C27_8 C23_8 1_555 1_555
H14_8 C27_8 1_555 1_555
Zn9_2 O8_8 1_555 1_555
Zn5_2 O5_8 1_555 1_555
H6_12 C13_12 1_555 1_555
O6_8 C18_8 1_555 1_555
O7_8 C21_8 1_555 1_555
C18_8 C19_8 1_555 1_555
C20_8 H11_8 1_555 1_555
C21_8 C22_8 1_555 1_555
C24_8 C20_8 1_555 1_555
H13_8 C24_8 1_555 1_555
C25_8 C20_8 1_555 1_555
C26_8 C13_12 1_555 1_555
Zn6 O6_8 1_555 1_555
C19_8 C26_8 1_555 1_555
C22_8 C24_8 1_555 1_555
C25_8 C26_8 1_555 1_555

#END
