
###############################################################################
#
# This file contains modified crystal structure data generated from the
# MOF subset of the Cambridge Structural Database (CSD) v543 
# hosted by the Cambridge Crystallographic Data Centre (CCDC).
#
# This work is licensed under the Creative Commons
# Attribution-NonCommercial-ShareAlike 4.0 International License.
# To view a copy of this license, visit
# http://creativecommons.org/licenses/by-nc-sa/4.0/
# or send a letter to
# Creative Commons, PO Box 1866, Mountain View, CA 94042, USA.
#
# CIF created using the CSD Python API on 29 September 2022
# The structure has been converted into the P1 space group
# The structure has a 3D framework
# The original CSD entry KUTRUO is in the monoclinic crystal system
# The framework has been calculated to contain at least 10.0% void space
# The void calculation uses a probe of radius 1.32A, grid spacing 0.4
# The framework is charged, counterions have been retained in the structure
# H atom positions have been added when not included in the experimental data
#
###############################################################################

data_KUTRUO
_chemical_formula_moiety         '(C312 H288 Co8 N48 Na8 O126 Zn8)n'
_symmetry_cell_setting           triclinic
_symmetry_space_group_name_H-M   'P 1'
_symmetry_Int_Tables_number      1
_space_group_name_Hall           'P 1'
loop_
_symmetry_equiv_pos_site_id
_symmetry_equiv_pos_as_xyz
1 x,y,z
_cell_length_a                   17.317(5)
_cell_length_b                   25.397(5)
_cell_length_c                   21.540(5)
_cell_angle_alpha                90
_cell_angle_beta                 94.431(5)
_cell_angle_gamma                90
_cell_volume                     9444.97
loop_
_atom_site_label
_atom_site_type_symbol
_atom_site_fract_x
_atom_site_fract_y
_atom_site_fract_z
Na1 Na 0.6240(5) 0.1407(3) 0.7208(3)
O1 O 0.5000 0.1160(5) 0.7500
O2 O 0.6217(5) 0.1962(4) 0.6125(5)
O3 O 0.6554(11) 0.2135(7) 0.7781(7)
O4 O 0.6214(15) 0.0900(9) 0.6492(12)
O5 O 0.7585(17) 0.1518(12) 0.7345(14)
O6 O 0.737(4) 0.081(2) 0.755(3)
O7 O 0.5807(18) 0.0677(13) 0.7793(16)
Na2 Na 0.3760(5) 0.1407(3) 0.7792(3)
O8 O 0.3783(5) 0.1962(4) 0.8875(5)
O9 O 0.3446(11) 0.2135(7) 0.7219(7)
O10 O 0.3786(15) 0.0900(9) 0.8508(12)
O11 O 0.2415(17) 0.1518(12) 0.7655(14)
O12 O 0.263(4) 0.081(2) 0.745(3)
O13 O 0.4193(18) 0.0677(13) 0.7207(16)
H25 H 0.656425 0.204705 0.823075
H26 H 0.70726 0.226275 0.768265
H27 H 0.591632 0.229146 0.616584
H28 H 0.675548 0.205053 0.603462
H29 H 0.216388 0.117099 0.757153
H30 H 0.222487 0.167288 0.80381
H31 H 0.457936 0.0470332 0.747025
H32 H 0.374453 0.0448889 0.707441
H33 H 0.423328 0.0983663 0.880829
H34 H 0.329817 0.0930169 0.871929
H35 H 0.27246 0.0452812 0.762737
H36 H 0.21462 0.0955801 0.760049
H37 H 0.576672 0.0983663 0.619171
H38 H 0.670183 0.0930169 0.628071
H39 H 0.783612 0.117099 0.742847
H40 H 0.777513 0.167288 0.69619
H41 H 0.72754 0.0452812 0.737263
H42 H 0.78538 0.0955801 0.739951
H43 H 0.408368 0.229146 0.883416
H44 H 0.324452 0.205053 0.896538
H45 H 0.343575 0.204705 0.676925
H46 H 0.29274 0.226275 0.731735
H47 H 0.542064 0.0470332 0.752975
H48 H 0.625547 0.0448889 0.792559
Na1_2 Na 0.1240(5) 0.6407(3) 0.7208(3)
O1_2 O -0.0000 0.6160(5) 0.7500
O2_2 O 0.1217(5) 0.6962(4) 0.6125(5)
O3_2 O 0.1554(11) 0.7135(7) 0.7781(7)
O4_2 O 0.1214(15) 0.5900(9) 0.6492(12)
O5_2 O 0.2585(17) 0.6518(12) 0.7345(14)
O6_2 O 0.237(4) 0.581(2) 0.755(3)
O7_2 O 0.0807(18) 0.5677(13) 0.7793(16)
H25_2 H 0.156425 0.704705 0.823075
H26_2 H 0.20726 0.726275 0.768265
H27_2 H 0.0916323 0.729146 0.616584
H28_2 H 0.175548 0.705053 0.603462
H37_2 H 0.0766717 0.598366 0.619171
H38_2 H 0.170183 0.593017 0.628071
H39_2 H 0.283612 0.617099 0.742847
H40_2 H 0.277513 0.667288 0.69619
H41_2 H 0.22754 0.545281 0.737263
H42_2 H 0.28538 0.59558 0.739951
H47_2 H 0.0420637 0.547033 0.752975
H48_2 H 0.125547 0.544889 0.792559
O1_3 O 1.0000 0.6160(5) 0.7500
Na2_2 Na 0.8760(5) 0.6407(3) 0.7792(3)
O8_2 O 0.8783(5) 0.6962(4) 0.8875(5)
O9_2 O 0.8446(11) 0.7135(7) 0.7219(7)
O10_2 O 0.8786(15) 0.5900(9) 0.8508(12)
O11_2 O 0.7415(17) 0.6518(12) 0.7655(14)
O12_2 O 0.763(4) 0.581(2) 0.745(3)
O13_2 O 0.9193(18) 0.5677(13) 0.7207(16)
H29_2 H 0.716388 0.617099 0.757153
H30_2 H 0.722487 0.667288 0.80381
H31_2 H 0.957936 0.547033 0.747025
H32_2 H 0.874453 0.544889 0.707441
H33_2 H 0.923328 0.598366 0.880829
H34_2 H 0.829817 0.593017 0.871929
H35_2 H 0.77246 0.545281 0.762737
H36_2 H 0.71462 0.59558 0.760049
H43_2 H 0.908368 0.729146 0.883416
H44_2 H 0.824452 0.705053 0.896538
H45_2 H 0.843575 0.704705 0.676925
H46_2 H 0.79274 0.726275 0.731735
Na1_3 Na 0.3760(5) 0.8593(3) 0.2792(3)
O1_4 O 0.5000 0.8840(5) 0.2500
O2_3 O 0.3783(5) 0.8038(4) 0.3875(5)
O3_3 O 0.3446(11) 0.7865(7) 0.2219(7)
O4_3 O 0.3786(15) 0.9100(9) 0.3508(12)
O5_3 O 0.2415(17) 0.8482(12) 0.2655(14)
O6_3 O 0.263(4) 0.919(2) 0.245(3)
O7_3 O 0.4193(18) 0.9323(13) 0.2207(16)
Na2_3 Na 0.6240(5) 0.8593(3) 0.2208(3)
O8_3 O 0.6217(5) 0.8038(4) 0.1125(5)
O9_3 O 0.6554(11) 0.7865(7) 0.2781(7)
O10_3 O 0.6214(15) 0.9100(9) 0.1492(12)
O11_3 O 0.7585(17) 0.8482(12) 0.2345(14)
O12_3 O 0.737(4) 0.919(2) 0.255(3)
O13_3 O 0.5807(18) 0.9323(13) 0.2793(16)
H25_3 H 0.343575 0.795295 0.176925
H26_3 H 0.29274 0.773725 0.231735
H27_3 H 0.408368 0.770854 0.383416
H28_3 H 0.324452 0.794947 0.396538
H29_3 H 0.783612 0.882901 0.242847
H30_3 H 0.777513 0.832712 0.19619
H31_3 H 0.542064 0.952967 0.252975
H32_3 H 0.625547 0.955111 0.292559
H33_3 H 0.576672 0.901634 0.119171
H34_3 H 0.670183 0.906983 0.128071
H35_3 H 0.72754 0.954719 0.237263
H36_3 H 0.78538 0.90442 0.239951
H37_3 H 0.423328 0.901634 0.380829
H38_3 H 0.329817 0.906983 0.371929
H39_3 H 0.216388 0.882901 0.257153
H40_3 H 0.222487 0.832712 0.30381
H41_3 H 0.27246 0.954719 0.262737
H42_3 H 0.21462 0.90442 0.260049
H43_3 H 0.591632 0.770854 0.116584
H44_3 H 0.675548 0.794947 0.103462
H45_3 H 0.656425 0.795295 0.323075
H46_3 H 0.70726 0.773725 0.268265
H47_3 H 0.457936 0.952967 0.247025
H48_3 H 0.374453 0.955111 0.207441
O1_5 O -0.0000 0.3840(5) 0.2500
Na2_4 Na 0.1240(5) 0.3593(3) 0.2208(3)
O8_4 O 0.1217(5) 0.3038(4) 0.1125(5)
O9_4 O 0.1554(11) 0.2865(7) 0.2781(7)
O10_4 O 0.1214(15) 0.4100(9) 0.1492(12)
O11_4 O 0.2585(17) 0.3482(12) 0.2345(14)
O12_4 O 0.237(4) 0.419(2) 0.255(3)
O13_4 O 0.0807(18) 0.4323(13) 0.2793(16)
H29_4 H 0.283612 0.382901 0.242847
H30_4 H 0.277513 0.332712 0.19619
H31_4 H 0.0420637 0.452967 0.252975
H32_4 H 0.125547 0.455111 0.292559
H33_4 H 0.0766717 0.401634 0.119171
H34_4 H 0.170183 0.406983 0.128071
H35_4 H 0.22754 0.454719 0.237263
H36_4 H 0.28538 0.40442 0.239951
H43_4 H 0.0916323 0.270854 0.116584
H44_4 H 0.175548 0.294947 0.103462
H45_4 H 0.156425 0.295295 0.323075
H46_4 H 0.20726 0.273725 0.268265
Na1_4 Na 0.8760(5) 0.3593(3) 0.2792(3)
O1_6 O 1.0000 0.3840(5) 0.2500
O2_4 O 0.8783(5) 0.3038(4) 0.3875(5)
O3_4 O 0.8446(11) 0.2865(7) 0.2219(7)
O4_4 O 0.8786(15) 0.4100(9) 0.3508(12)
O5_4 O 0.7415(17) 0.3482(12) 0.2655(14)
O6_4 O 0.763(4) 0.419(2) 0.245(3)
O7_4 O 0.9193(18) 0.4323(13) 0.2207(16)
H25_4 H 0.843575 0.295295 0.176925
H26_4 H 0.79274 0.273725 0.231735
H27_4 H 0.908368 0.270854 0.383416
H28_4 H 0.824452 0.294947 0.396538
H37_4 H 0.923328 0.401634 0.380829
H38_4 H 0.829817 0.406983 0.371929
H39_4 H 0.716388 0.382901 0.257153
H40_4 H 0.722487 0.332712 0.30381
H41_4 H 0.77246 0.454719 0.262737
H42_4 H 0.71462 0.40442 0.260049
H47_4 H 0.957936 0.452967 0.247025
H48_4 H 0.874453 0.455111 0.207441
H3 H 0.0348 0.7857 0.6432
C4 C 0.0009(4) 0.8592(3) 0.6173(4)
H4 H 0.0459 0.8767 0.6348
C7 C 0.8657(3) 0.01796(19) 0.5461(3)
C8 C 0.8722(4) 0.0464(2) 0.4913(3)
H5 H 0.8900 0.0296 0.4557
C9 C 0.8524(3) 0.0994(2) 0.4892(3)
H6 H 0.8579 0.1189 0.4522
C10 C 0.8250(3) 0.12379(19) 0.5395(3)
C11 C 0.8194(4) 0.0957(2) 0.5942(3)
H7 H 0.8018 0.1128 0.6297
C12 C 0.8391(4) 0.0430(2) 0.5975(3)
H8 H 0.8345 0.0239 0.6350
C13 C 0.8041(3) 0.1810(2) 0.5356(3)
C14 C 0.0700(4) 0.0862(2) 0.5722(3)
H9 H 0.0497 0.0566 0.5496
C15 C 0.0299(4) 0.1059(3) 0.6204(3)
C16 C 0.0599(5) 0.1477(3) 0.6541(4)
H11 H 0.0332 0.1622 0.6870
C17 C 0.1304(5) 0.1685(3) 0.6393(3)
H12 H 0.1531 0.1968 0.6630
C18 C 0.1669(4) 0.1481(2) 0.5906(3)
C19 C 0.2413(3) 0.1683(2) 0.5714(3)
C20 C 0.3392(3) 0.1576(2) 0.5026(3)
C21 C 0.4018(4) 0.1289(3) 0.5247(4)
H13 H 0.3962 0.0997 0.5514
C22 C 0.4768(4) 0.1442(3) 0.5064(4)
H14 H 0.5212 0.1252 0.5224
C23 C 0.4857(4) 0.1849(3) 0.4668(4)
C24 C 0.4230(5) 0.2123(3) 0.4457(5)
H15 H 0.4284 0.2408 0.4179
C25 C 0.3505(4) 0.1993(3) 0.4641(4)
H16 H 0.3071 0.2200 0.4494
C26 C 0.5661(6) 0.1999(3) 0.4442(4)
C31 C 0.6941(4) 0.0134(2) 0.0104(3)
C32 C 0.6943(4) 0.0346(2) 0.0737(3)
C33 C 0.7479(3) 0.0999(2) 0.1431(2)
C34 C 0.6842(4) 0.1276(3) 0.1600(3)
H21 H 0.6380 0.1286 0.1331
C35 C 0.6880(4) 0.1538(3) 0.2164(4)
H22 H 0.6443 0.1729 0.2282
C36 C 0.7570(4) 0.1526(3) 0.2568(3)
C37 C 0.8152(4) 0.1227(3) 0.2391(3)
H23 H 0.8615 0.1205 0.2657
C38 C 0.8107(4) 0.0950(3) 0.1843(3)
H24 H 0.8518 0.0722 0.1751
C39 C 0.7613(4) 0.1819(3) 0.3168(3)
N3 N 0.1364(3) 0.10754(16) 0.5565(2)
N4 N 0.2629(3) 0.14523(16) 0.5205(2)
N6 N 0.7441(3) 0.07455(17) 0.0837(2)
O15 O 0.7993(2) 0.20202(16) 0.4827(2)
O16 O 0.7941(3) 0.20535(15) 0.5850(2)
O17 O 0.2777(3) 0.20300(19) 0.6021(2)
O18 O 0.5677(5) 0.2296(4) 0.4008(4)
O19 O 0.6217(4) 0.1828(2) 0.4739(4)
O20 O 0.6530(3) 0.0147(2) 0.1125(2)
O21 O 0.8179(4) 0.2095(4) 0.3298(3)
O22 O 0.7046(3) 0.1795(2) 0.3480(2)
Zn1 Zn 0.70533(4) 0.21700(2) 0.42708(3)
Co2 Co 0.19396(4) 0.09018(2) 0.48474(3)
Co3 Co 0.80604(4) 0.09018(2) 0.01526(3)
O23 O 0.7059(3) 0.29465(15) 0.4150(2)
Zn2 Zn 0.79467(4) 0.28300(2) 0.57292(3)
C27 C 0.7412(5) 0.0226(2) 0.9136(3)
H17 H 0.7718 0.0413 0.8863
N5 N 0.7405(3) 0.03795(17) 0.9736(2)
C1 C 0.8730(3) 0.8103(2) 0.5656(3)
H1 H 0.8282 0.7928 0.5477
C2 C 0.9315(4) 0.7812(2) 0.5960(4)
H2 H 0.9270 0.7440 0.5986
C3 C 0.9946(4) 0.8056(3) 0.6218(4)
C5 C 0.9413(3) 0.8872(2) 0.5873(3)
C6 C 0.9405(3) 0.9456(2) 0.5822(3)
H20 H 0.6193 0.9529 0.0184
Co1 Co 0.80604(4) 0.90982(2) 0.51526(3)
N1 N 0.8778(3) 0.86285(16) 0.5607(2)
N2 N 0.8810(3) 0.96279(16) 0.5473(2)
O14 O 0.9924(3) 0.97257(18) 0.6089(3)
N7 N 0.8636(3) 0.89246(16) 0.4435(2)
N8 N 0.7371(3) 0.85477(16) 0.4795(2)
N9 N 0.7405(3) 0.96205(17) 0.4736(2)
N10 N 0.7441(3) 0.92545(17) 0.5837(2)
C8_2 C 0.1278(4) 0.0464(2) 0.0087(3)
H5_2 H 0.1100 0.0296 0.0443
C9_2 C 0.1476(3) 0.0994(2) 0.0108(3)
H6_2 H 0.1421 0.1189 0.0478
C23_2 C 0.5143(4) 0.1849(3) 0.0332(4)
C24_2 C 0.5770(5) 0.2123(3) 0.0543(5)
H15_2 H 0.5716 0.2408 0.0821
C25_2 C 0.6495(4) 0.1993(3) 0.0359(4)
H16_2 H 0.6929 0.2200 0.0506
C26_2 C 0.4339(6) 0.1999(3) 0.0558(4)
C27_2 C 0.2588(5) 0.0226(2) 0.5864(3)
H17_2 H 0.2282 0.0413 0.6137
C31_2 C 0.3059(4) 0.0134(2) 0.4896(3)
C32_2 C 0.3057(4) 0.0346(2) 0.4263(3)
C33_2 C 0.2521(3) 0.0999(2) 0.3569(2)
C34_2 C 0.3158(4) 0.1276(3) 0.3400(3)
H21_2 H 0.3620 0.1286 0.3669
C35_2 C 0.3120(4) 0.1538(3) 0.2836(4)
H22_2 H 0.3557 0.1729 0.2718
C36_2 C 0.2430(4) 0.1526(3) 0.2432(3)
C37_2 C 0.1848(4) 0.1227(3) 0.2609(3)
H23_2 H 0.1385 0.1205 0.2343
C38_2 C 0.1893(4) 0.0950(3) 0.3157(3)
H24_2 H 0.1482 0.0722 0.3249
C39_2 C 0.2387(4) 0.1819(3) 0.1832(3)
N5_2 N 0.2595(3) 0.03795(17) 0.5264(2)
N6_2 N 0.2559(3) 0.07455(17) 0.4163(2)
O15_2 O 0.2007(2) 0.20202(16) 0.0173(2)
O18_2 O 0.4323(5) 0.2296(4) 0.0992(4)
O19_2 O 0.3783(4) 0.1828(2) 0.0261(4)
O20_2 O 0.3470(3) 0.0147(2) 0.3875(2)
O21_2 O 0.1821(4) 0.2095(4) 0.1702(3)
O22_2 O 0.2954(3) 0.1795(2) 0.1520(2)
Zn1_2 Zn 0.29467(4) 0.21700(2) 0.07292(3)
O23_2 O 0.2941(3) 0.29465(15) 0.0850(2)
C7_2 C 0.1343(3) 0.01796(19) 0.9539(3)
C10_2 C 0.1750(3) 0.12379(19) 0.9605(3)
C11_2 C 0.1806(4) 0.0957(2) 0.9058(3)
H7_2 H 0.1982 0.1128 0.8703
C12_2 C 0.1609(4) 0.0430(2) 0.9025(3)
H8_2 H 0.1655 0.0239 0.8650
C13_2 C 0.1959(3) 0.1810(2) 0.9644(3)
C14_2 C 0.9300(4) 0.0862(2) 0.9278(3)
H9_2 H 0.9503 0.0566 0.9504
C15_2 C 0.9701(4) 0.1059(3) 0.8796(3)
C16_2 C 0.9401(5) 0.1477(3) 0.8459(4)
H11_2 H 0.9668 0.1622 0.8130
C17_2 C 0.8696(5) 0.1685(3) 0.8607(3)
H12_2 H 0.8469 0.1968 0.8370
C18_2 C 0.8331(4) 0.1481(2) 0.9094(3)
C19_2 C 0.7587(3) 0.1683(2) 0.9286(3)
C20_2 C 0.6608(3) 0.1576(2) 0.9974(3)
C21_2 C 0.5982(4) 0.1289(3) 0.9753(4)
H13_2 H 0.6038 0.0997 0.9486
C22_2 C 0.5232(4) 0.1442(3) 0.9936(4)
H14_2 H 0.4788 0.1252 0.9776
N3_2 N 0.8636(3) 0.10754(16) 0.9435(2)
N4_2 N 0.7371(3) 0.14523(16) 0.9795(2)
O16_2 O 0.2059(3) 0.20535(15) 0.9150(2)
O17_2 O 0.7223(3) 0.20300(19) 0.8979(2)
Zn2_2 Zn 0.20533(4) 0.28300(2) 0.92708(3)
C28 C 0.3022(6) 0.9799(3) 0.6084(4)
H18 H 0.3010 0.9694 0.6506
C29 C 0.3463(8) 0.9532(4) 0.5701(5)
H19 H 0.3748 0.9231 0.5846
C30 C 0.3491(6) 0.9706(3) 0.5093(4)
H20_2 H 0.3807 0.9529 0.4816
N7_2 N 0.1364(3) 0.89246(16) 0.0565(2)
N8_2 N 0.2629(3) 0.85477(16) 0.0205(2)
N9_2 N 0.2595(3) 0.96205(17) 0.0264(2)
C1_2 C 0.1270(3) 0.8103(2) 0.9344(3)
H1_2 H 0.1718 0.7928 0.9523
C2_2 C 0.0685(4) 0.7812(2) 0.9040(4)
H2_2 H 0.0730 0.7440 0.9014
C3_2 C 0.0054(4) 0.8056(3) 0.8782(4)
C5_2 C 0.0587(3) 0.8872(2) 0.9127(3)
C6_2 C 0.0595(3) 0.9456(2) 0.9178(3)
Co1_2 Co 0.19396(4) 0.90982(2) 0.98474(3)
N1_2 N 0.1222(3) 0.86285(16) 0.9393(2)
N2_2 N 0.1190(3) 0.96279(16) 0.9527(2)
O14_2 O 0.0076(3) 0.97257(18) 0.8911(3)
N10_2 N 0.2559(3) 0.92545(17) 0.9163(2)
C1_3 C 0.3730(3) 0.3103(2) 0.5656(3)
H1_3 H 0.3282 0.2928 0.5477
C2_3 C 0.4315(4) 0.2812(2) 0.5960(4)
H2_3 H 0.4270 0.2440 0.5986
C3_3 C 0.4946(4) 0.3056(3) 0.6218(4)
H3_2 H 0.5348 0.2857 0.6432
C4_2 C 0.5009(4) 0.3592(3) 0.6173(4)
H4_2 H 0.5459 0.3767 0.6348
C5_3 C 0.4413(3) 0.3872(2) 0.5873(3)
C6_3 C 0.4405(3) 0.4456(2) 0.5822(3)
C7_3 C 0.3657(3) 0.51796(19) 0.5461(3)
C8_3 C 0.3722(4) 0.5464(2) 0.4913(3)
H5_3 H 0.3900 0.5296 0.4557
C9_3 C 0.3524(3) 0.5994(2) 0.4892(3)
H6_3 H 0.3579 0.6189 0.4522
C10_3 C 0.3250(3) 0.62379(19) 0.5395(3)
C11_3 C 0.3194(4) 0.5957(2) 0.5942(3)
H7_3 H 0.3018 0.6128 0.6297
C12_3 C 0.3391(4) 0.5430(2) 0.5975(3)
H8_3 H 0.3345 0.5239 0.6350
C13_3 C 0.3041(3) 0.6810(2) 0.5356(3)
H14_3 H 0.0212 0.6252 0.5224
C26_3 C 0.0661(6) 0.6999(3) 0.4442(4)
H20_3 H 0.1193 0.4529 0.0184
C31_3 C 0.1941(4) 0.5134(2) 0.0104(3)
C32_3 C 0.1943(4) 0.5346(2) 0.0737(3)
C33_3 C 0.2479(3) 0.5999(2) 0.1431(2)
C34_3 C 0.1842(4) 0.6276(3) 0.1600(3)
H21_3 H 0.1380 0.6286 0.1331
C35_3 C 0.1880(4) 0.6538(3) 0.2164(4)
H22_3 H 0.1443 0.6729 0.2282
C36_3 C 0.2570(4) 0.6526(3) 0.2568(3)
C37_3 C 0.3152(4) 0.6227(3) 0.2391(3)
H23_3 H 0.3615 0.6205 0.2657
C38_3 C 0.3107(4) 0.5950(3) 0.1843(3)
H24_3 H 0.3518 0.5722 0.1751
C39_3 C 0.2613(4) 0.6819(3) 0.3168(3)
Co1_3 Co 0.30604(4) 0.40982(2) 0.51526(3)
N1_3 N 0.3778(3) 0.36285(16) 0.5607(2)
N2_3 N 0.3810(3) 0.46279(16) 0.5473(2)
N6_3 N 0.2441(3) 0.57455(17) 0.0837(2)
O14_3 O 0.4924(3) 0.47257(18) 0.6089(3)
O15_3 O 0.2993(2) 0.70202(16) 0.4827(2)
O16_3 O 0.2941(3) 0.70535(15) 0.5850(2)
O18_3 O 0.0677(5) 0.7296(4) 0.4008(4)
O19_3 O 0.1217(4) 0.6828(2) 0.4739(4)
O20_3 O 0.1530(3) 0.5147(2) 0.1125(2)
O21_3 O 0.3179(4) 0.7095(4) 0.3298(3)
O22_3 O 0.2046(3) 0.6795(2) 0.3480(2)
Zn1_3 Zn 0.20533(4) 0.71700(2) 0.42708(3)
Co3_2 Co 0.30604(4) 0.59018(2) 0.01526(3)
N7_3 N 0.3636(3) 0.39246(16) 0.4435(2)
N8_3 N 0.2371(3) 0.35477(16) 0.4795(2)
N9_3 N 0.2405(3) 0.46205(17) 0.4736(2)
N10_3 N 0.2441(3) 0.42545(17) 0.5837(2)
O23_3 O 0.2059(3) 0.79465(15) 0.4150(2)
Zn2_3 Zn 0.29467(4) 0.78300(2) 0.57292(3)
C27_3 C 0.2412(5) 0.5226(2) 0.9136(3)
H17_3 H 0.2718 0.5413 0.8863
C28_2 C 0.1978(6) 0.4799(3) 0.8916(4)
H18_2 H 0.1990 0.4694 0.8494
C29_2 C 0.1537(8) 0.4532(4) 0.9299(5)
H19_2 H 0.1252 0.4231 0.9154
C30_2 C 0.1509(6) 0.4706(3) 0.9907(4)
N5_3 N 0.2405(3) 0.53795(17) 0.9736(2)
C14_3 C 0.5700(4) 0.5862(2) 0.5722(3)
H9_3 H 0.5497 0.5566 0.5496
C15_3 C 0.5299(4) 0.6059(3) 0.6204(3)
H10 H 0.4822 0.5905 0.6298
C16_3 C 0.5599(5) 0.6477(3) 0.6541(4)
H11_3 H 0.5332 0.6622 0.6870
C17_3 C 0.6304(5) 0.6685(3) 0.6393(3)
H12_3 H 0.6531 0.6968 0.6630
C18_3 C 0.6669(4) 0.6481(2) 0.5906(3)
C19_3 C 0.7413(3) 0.6683(2) 0.5714(3)
C20_3 C 0.8392(3) 0.6576(2) 0.5026(3)
C21_3 C 0.9018(4) 0.6289(3) 0.5247(4)
H13_3 H 0.8962 0.5997 0.5514
C22_3 C 0.9768(4) 0.6442(3) 0.5064(4)
C23_3 C 0.9857(4) 0.6849(3) 0.4668(4)
C24_3 C 0.9230(5) 0.7123(3) 0.4457(5)
H15_3 H 0.9284 0.7408 0.4179
C25_3 C 0.8505(4) 0.6993(3) 0.4641(4)
H16_3 H 0.8071 0.7200 0.4494
N3_3 N 0.6364(3) 0.60754(16) 0.5565(2)
N4_3 N 0.7629(3) 0.64523(16) 0.5205(2)
O17_3 O 0.7777(3) 0.70300(19) 0.6021(2)
Co2_2 Co 0.69396(4) 0.59018(2) 0.48474(3)
C23_4 C 0.0143(4) 0.6849(3) 0.0332(4)
C24_4 C 0.0770(5) 0.7123(3) 0.0543(5)
H15_4 H 0.0716 0.7408 0.0821
C25_4 C 0.1495(4) 0.6993(3) 0.0359(4)
H16_4 H 0.1929 0.7200 0.0506
C14_4 C 0.4300(4) 0.5862(2) 0.9278(3)
H9_4 H 0.4503 0.5566 0.9504
C15_4 C 0.4701(4) 0.6059(3) 0.8796(3)
H10_2 H 0.5178 0.5905 0.8702
C16_4 C 0.4401(5) 0.6477(3) 0.8459(4)
H11_4 H 0.4668 0.6622 0.8130
C17_4 C 0.3696(5) 0.6685(3) 0.8607(3)
H12_4 H 0.3469 0.6968 0.8370
C18_4 C 0.3331(4) 0.6481(2) 0.9094(3)
C19_4 C 0.2587(3) 0.6683(2) 0.9286(3)
C20_4 C 0.1608(3) 0.6576(2) 0.9974(3)
C21_4 C 0.0982(4) 0.6289(3) 0.9753(4)
H13_4 H 0.1038 0.5997 0.9486
C22_4 C 0.0232(4) 0.6442(3) 0.9936(4)
N3_4 N 0.3636(3) 0.60754(16) 0.9435(2)
N4_4 N 0.2371(3) 0.64523(16) 0.9795(2)
O17_4 O 0.2223(3) 0.70300(19) 0.8979(2)
C8_4 C 0.6278(4) 0.5464(2) 0.0087(3)
H5_4 H 0.6100 0.5296 0.0443
C9_4 C 0.6476(3) 0.5994(2) 0.0108(3)
H6_4 H 0.6421 0.6189 0.0478
C26_4 C 0.9339(6) 0.6999(3) 0.0558(4)
C27_4 C 0.7588(5) 0.5226(2) 0.5864(3)
H17_4 H 0.7282 0.5413 0.6137
C28_3 C 0.8022(6) 0.4799(3) 0.6084(4)
H18_3 H 0.8010 0.4694 0.6506
C29_3 C 0.8463(8) 0.4532(4) 0.5701(5)
H19_3 H 0.8748 0.4231 0.5846
C30_3 C 0.8491(6) 0.4706(3) 0.5093(4)
H20_4 H 0.8807 0.4529 0.4816
C31_4 C 0.8059(4) 0.5134(2) 0.4896(3)
C32_4 C 0.8057(4) 0.5346(2) 0.4263(3)
C33_4 C 0.7521(3) 0.5999(2) 0.3569(2)
C34_4 C 0.8158(4) 0.6276(3) 0.3400(3)
H21_4 H 0.8620 0.6286 0.3669
C35_4 C 0.8120(4) 0.6538(3) 0.2836(4)
H22_4 H 0.8557 0.6729 0.2718
C36_4 C 0.7430(4) 0.6526(3) 0.2432(3)
C37_4 C 0.6848(4) 0.6227(3) 0.2609(3)
H23_4 H 0.6385 0.6205 0.2343
C38_4 C 0.6893(4) 0.5950(3) 0.3157(3)
H24_4 H 0.6482 0.5722 0.3249
C39_4 C 0.7387(4) 0.6819(3) 0.1832(3)
N5_4 N 0.7595(3) 0.53795(17) 0.5264(2)
N6_4 N 0.7559(3) 0.57455(17) 0.4163(2)
O15_4 O 0.7007(2) 0.70202(16) 0.0173(2)
O18_4 O 0.9323(5) 0.7296(4) 0.0992(4)
O19_4 O 0.8783(4) 0.6828(2) 0.0261(4)
O20_4 O 0.8470(3) 0.5147(2) 0.3875(2)
O21_4 O 0.6821(4) 0.7095(4) 0.1702(3)
O22_4 O 0.7954(3) 0.6795(2) 0.1520(2)
Zn1_4 Zn 0.79467(4) 0.71700(2) 0.07292(3)
N7_4 N 0.6364(3) 0.39246(16) 0.0565(2)
N8_4 N 0.7629(3) 0.35477(16) 0.0205(2)
N9_4 N 0.7595(3) 0.46205(17) 0.0264(2)
O23_4 O 0.7941(3) 0.79465(15) 0.0850(2)
C1_4 C 0.6270(3) 0.3103(2) 0.9344(3)
H1_4 H 0.6718 0.2928 0.9523
C2_4 C 0.5685(4) 0.2812(2) 0.9040(4)
H2_4 H 0.5730 0.2440 0.9014
C3_4 C 0.5054(4) 0.3056(3) 0.8782(4)
H3_3 H 0.4652 0.2857 0.8568
C4_3 C 0.4991(4) 0.3592(3) 0.8827(4)
H4_3 H 0.4541 0.3767 0.8652
C5_4 C 0.5587(3) 0.3872(2) 0.9127(3)
C6_4 C 0.5595(3) 0.4456(2) 0.9178(3)
C7_4 C 0.6343(3) 0.51796(19) 0.9539(3)
C10_4 C 0.6750(3) 0.62379(19) 0.9605(3)
C11_4 C 0.6806(4) 0.5957(2) 0.9058(3)
H7_4 H 0.6982 0.6128 0.8703
C12_4 C 0.6609(4) 0.5430(2) 0.9025(3)
H8_4 H 0.6655 0.5239 0.8650
C13_4 C 0.6959(3) 0.6810(2) 0.9644(3)
H14_4 H 0.9788 0.6252 0.9776
Co1_4 Co 0.69396(4) 0.40982(2) 0.98474(3)
N1_4 N 0.6222(3) 0.36285(16) 0.9393(2)
N2_4 N 0.6190(3) 0.46279(16) 0.9527(2)
O14_4 O 0.5076(3) 0.47257(18) 0.8911(3)
O16_4 O 0.7059(3) 0.70535(15) 0.9150(2)
N10_4 N 0.7559(3) 0.42545(17) 0.9163(2)
Zn2_4 Zn 0.70533(4) 0.78300(2) 0.92708(3)
C1_5 C 0.1270(3) 0.1897(2) 0.4344(3)
H1_5 H 0.1718 0.2072 0.4523
C2_5 C 0.0685(4) 0.2188(2) 0.4040(4)
H2_5 H 0.0730 0.2560 0.4014
C3_5 C 0.0054(4) 0.1944(3) 0.3782(4)
C5_5 C 0.0587(3) 0.1128(2) 0.4127(3)
C6_5 C 0.0595(3) 0.0544(2) 0.4178(3)
H20_5 H 0.3807 0.0471 0.9816
N1_5 N 0.1222(3) 0.13715(16) 0.4393(2)
N2_5 N 0.1190(3) 0.03721(16) 0.4527(2)
O14_5 O 0.0076(3) 0.02743(18) 0.3911(3)
C27_5 C 0.2588(5) 0.9774(2) 0.0864(3)
H17_5 H 0.2282 0.9587 0.1137
C7_5 C 0.1343(3) 0.98204(19) 0.4539(3)
C8_5 C 0.1278(4) 0.9536(2) 0.5087(3)
H5_5 H 0.1100 0.9704 0.5443
C9_5 C 0.1476(3) 0.9006(2) 0.5108(3)
H6_5 H 0.1421 0.8811 0.5478
C10_5 C 0.1750(3) 0.87621(19) 0.4605(3)
C11_5 C 0.1806(4) 0.9043(2) 0.4058(3)
H7_5 H 0.1982 0.8872 0.3703
C12_5 C 0.1609(4) 0.9570(2) 0.4025(3)
H8_5 H 0.1655 0.9761 0.3650
C13_5 C 0.1959(3) 0.8190(2) 0.4644(3)
C14_5 C 0.9300(4) 0.9138(2) 0.4278(3)
H9_5 H 0.9503 0.9434 0.4504
C15_5 C 0.9701(4) 0.8941(3) 0.3796(3)
C16_5 C 0.9401(5) 0.8523(3) 0.3459(4)
H11_5 H 0.9668 0.8378 0.3130
C17_5 C 0.8696(5) 0.8315(3) 0.3607(3)
H12_5 H 0.8469 0.8032 0.3370
C18_5 C 0.8331(4) 0.8519(2) 0.4094(3)
C19_5 C 0.7587(3) 0.8317(2) 0.4286(3)
C20_5 C 0.6608(3) 0.8424(2) 0.4974(3)
C21_5 C 0.5982(4) 0.8711(3) 0.4753(4)
H13_5 H 0.6038 0.9003 0.4486
C22_5 C 0.5232(4) 0.8558(3) 0.4936(4)
H14_5 H 0.4788 0.8748 0.4776
C23_5 C 0.5143(4) 0.8151(3) 0.5332(4)
C24_5 C 0.5770(5) 0.7877(3) 0.5543(5)
H15_5 H 0.5716 0.7592 0.5821
C25_5 C 0.6495(4) 0.8007(3) 0.5359(4)
H16_5 H 0.6929 0.7800 0.5506
C26_5 C 0.4339(6) 0.8001(3) 0.5558(4)
C31_5 C 0.3059(4) 0.9866(2) 0.9896(3)
C32_5 C 0.3057(4) 0.9654(2) 0.9263(3)
C33_5 C 0.2521(3) 0.9001(2) 0.8569(2)
C34_5 C 0.3158(4) 0.8724(3) 0.8400(3)
H21_5 H 0.3620 0.8714 0.8669
C35_5 C 0.3120(4) 0.8462(3) 0.7836(4)
H22_5 H 0.3557 0.8271 0.7718
C36_5 C 0.2430(4) 0.8474(3) 0.7432(3)
C37_5 C 0.1848(4) 0.8773(3) 0.7609(3)
H23_5 H 0.1385 0.8795 0.7343
C38_5 C 0.1893(4) 0.9050(3) 0.8157(3)
H24_5 H 0.1482 0.9278 0.8249
C39_5 C 0.2387(4) 0.8181(3) 0.6832(3)
O15_5 O 0.2007(2) 0.79798(16) 0.5173(2)
O17_5 O 0.7223(3) 0.79700(19) 0.3979(2)
O18_5 O 0.4323(5) 0.7704(4) 0.5992(4)
O19_5 O 0.3783(4) 0.8172(2) 0.5261(4)
O20_5 O 0.3470(3) 0.9853(2) 0.8875(2)
O21_5 O 0.1821(4) 0.7905(4) 0.6702(3)
O22_5 O 0.2954(3) 0.8205(2) 0.6520(2)
C1_6 C 0.8730(3) 0.1897(2) 0.0656(3)
H1_6 H 0.8282 0.2072 0.0477
C2_6 C 0.9315(4) 0.2188(2) 0.0960(4)
H2_6 H 0.9270 0.2560 0.0986
C3_6 C 0.9946(4) 0.1944(3) 0.1218(4)
C5_6 C 0.9413(3) 0.1128(2) 0.0873(3)
C6_6 C 0.9405(3) 0.0544(2) 0.0822(3)
N1_6 N 0.8778(3) 0.13715(16) 0.0607(2)
N2_6 N 0.8810(3) 0.03721(16) 0.0473(2)
O14_6 O 0.9924(3) 0.02743(18) 0.1089(3)
C28_4 C 0.6978(6) 0.0201(3) 0.3916(4)
H18_4 H 0.6990 0.0306 0.3494
C29_4 C 0.6537(8) 0.0468(4) 0.4299(5)
H19_4 H 0.6252 0.0769 0.4154
C30_4 C 0.6509(6) 0.0294(3) 0.4907(4)
H20_6 H 0.6193 0.0471 0.5184
C7_6 C 0.8657(3) 0.98204(19) 0.0461(3)
C10_6 C 0.8250(3) 0.87621(19) 0.0395(3)
C11_6 C 0.8194(4) 0.9043(2) 0.0942(3)
H7_6 H 0.8018 0.8872 0.1297
C12_6 C 0.8391(4) 0.9570(2) 0.0975(3)
H8_6 H 0.8345 0.9761 0.1350
C13_6 C 0.8041(3) 0.8190(2) 0.0356(3)
C14_6 C 0.0700(4) 0.9138(2) 0.0722(3)
H9_6 H 0.0497 0.9434 0.0496
C15_6 C 0.0299(4) 0.8941(3) 0.1204(3)
C16_6 C 0.0599(5) 0.8523(3) 0.1541(4)
H11_6 H 0.0332 0.8378 0.1870
C17_6 C 0.1304(5) 0.8315(3) 0.1393(3)
H12_6 H 0.1531 0.8032 0.1630
C18_6 C 0.1669(4) 0.8519(2) 0.0906(3)
C19_6 C 0.2413(3) 0.8317(2) 0.0714(3)
C20_6 C 0.3392(3) 0.8424(2) 0.0026(3)
C21_6 C 0.4018(4) 0.8711(3) 0.0247(4)
H13_6 H 0.3962 0.9003 0.0514
C22_6 C 0.4768(4) 0.8558(3) 0.0064(4)
H14_6 H 0.5212 0.8748 0.0224
O17_6 O 0.2777(3) 0.79700(19) 0.1021(2)
C8_6 C 0.8722(4) 0.9536(2) 0.9913(3)
H5_6 H 0.8900 0.9704 0.9557
C9_6 C 0.8524(3) 0.9006(2) 0.9892(3)
H6_6 H 0.8579 0.8811 0.9522
C23_6 C 0.4857(4) 0.8151(3) 0.9668(4)
C24_6 C 0.4230(5) 0.7877(3) 0.9457(5)
H15_6 H 0.4284 0.7592 0.9179
C25_6 C 0.3505(4) 0.8007(3) 0.9641(4)
H16_6 H 0.3071 0.7800 0.9494
C26_6 C 0.5661(6) 0.8001(3) 0.9442(4)
C27_6 C 0.7412(5) 0.9774(2) 0.4136(3)
H17_6 H 0.7718 0.9587 0.3863
C31_6 C 0.6941(4) 0.9866(2) 0.5104(3)
C32_6 C 0.6943(4) 0.9654(2) 0.5737(3)
C33_6 C 0.7479(3) 0.9001(2) 0.6431(2)
C34_6 C 0.6842(4) 0.8724(3) 0.6600(3)
H21_6 H 0.6380 0.8714 0.6331
C35_6 C 0.6880(4) 0.8462(3) 0.7164(4)
H22_6 H 0.6443 0.8271 0.7282
C36_6 C 0.7570(4) 0.8474(3) 0.7568(3)
C37_6 C 0.8152(4) 0.8773(3) 0.7391(3)
H23_6 H 0.8615 0.8795 0.7657
C38_6 C 0.8107(4) 0.9050(3) 0.6843(3)
H24_6 H 0.8518 0.9278 0.6751
C39_6 C 0.7613(4) 0.8181(3) 0.8168(3)
O15_6 O 0.7993(2) 0.79798(16) 0.9827(2)
O18_6 O 0.5677(5) 0.7704(4) 0.9008(4)
O19_6 O 0.6217(4) 0.8172(2) 0.9739(4)
O20_6 O 0.6530(3) 0.9853(2) 0.6125(2)
O21_6 O 0.8179(4) 0.7905(4) 0.8298(3)
O22_6 O 0.7046(3) 0.8205(2) 0.8480(2)
C14_7 C 0.4300(4) 0.4138(2) 0.4278(3)
H9_7 H 0.4503 0.4434 0.4504
C15_7 C 0.4701(4) 0.3941(3) 0.3796(3)
H10_3 H 0.5178 0.4095 0.3702
C16_7 C 0.4401(5) 0.3523(3) 0.3459(4)
H11_7 H 0.4668 0.3378 0.3130
C17_7 C 0.3696(5) 0.3315(3) 0.3607(3)
H12_7 H 0.3469 0.3032 0.3370
C18_7 C 0.3331(4) 0.3519(2) 0.4094(3)
C19_7 C 0.2587(3) 0.3317(2) 0.4286(3)
C20_7 C 0.1608(3) 0.3424(2) 0.4974(3)
C21_7 C 0.0982(4) 0.3711(3) 0.4753(4)
H13_7 H 0.1038 0.4003 0.4486
C22_7 C 0.0232(4) 0.3558(3) 0.4936(4)
C23_7 C 0.0143(4) 0.3151(3) 0.5332(4)
C24_7 C 0.0770(5) 0.2877(3) 0.5543(5)
H15_7 H 0.0716 0.2592 0.5821
C25_7 C 0.1495(4) 0.3007(3) 0.5359(4)
H16_7 H 0.1929 0.2800 0.5506
O17_7 O 0.2223(3) 0.29700(19) 0.3979(2)
C27_7 C 0.7588(5) 0.4774(2) 0.0864(3)
H17_7 H 0.7282 0.4587 0.1137
C28_5 C 0.8022(6) 0.5201(3) 0.1084(4)
H18_5 H 0.8010 0.5306 0.1506
C29_5 C 0.8463(8) 0.5468(4) 0.0701(5)
H19_5 H 0.8748 0.5769 0.0846
C30_5 C 0.8491(6) 0.5294(3) 0.0093(4)
C1_7 C 0.6270(3) 0.6897(2) 0.4344(3)
H1_7 H 0.6718 0.7072 0.4523
C2_7 C 0.5685(4) 0.7188(2) 0.4040(4)
H2_7 H 0.5730 0.7560 0.4014
C3_7 C 0.5054(4) 0.6944(3) 0.3782(4)
H3_4 H 0.4652 0.7143 0.3568
C4_4 C 0.4991(4) 0.6408(3) 0.3827(4)
H4_4 H 0.4541 0.6233 0.3652
C5_7 C 0.5587(3) 0.6128(2) 0.4127(3)
C6_7 C 0.5595(3) 0.5544(2) 0.4178(3)
C7_7 C 0.6343(3) 0.48204(19) 0.4539(3)
C8_7 C 0.6278(4) 0.4536(2) 0.5087(3)
H5_7 H 0.6100 0.4704 0.5443
C9_7 C 0.6476(3) 0.4006(2) 0.5108(3)
H6_7 H 0.6421 0.3811 0.5478
C10_7 C 0.6750(3) 0.37621(19) 0.4605(3)
C11_7 C 0.6806(4) 0.4043(2) 0.4058(3)
H7_7 H 0.6982 0.3872 0.3703
C12_7 C 0.6609(4) 0.4570(2) 0.4025(3)
H8_7 H 0.6655 0.4761 0.3650
C13_7 C 0.6959(3) 0.3190(2) 0.4644(3)
H14_7 H 0.9788 0.3748 0.4776
C26_7 C 0.9339(6) 0.3001(3) 0.5558(4)
H20_7 H 0.8807 0.5471 0.9816
C31_7 C 0.8059(4) 0.4866(2) 0.9896(3)
C32_7 C 0.8057(4) 0.4654(2) 0.9263(3)
C33_7 C 0.7521(3) 0.4001(2) 0.8569(2)
C34_7 C 0.8158(4) 0.3724(3) 0.8400(3)
H21_7 H 0.8620 0.3714 0.8669
C35_7 C 0.8120(4) 0.3462(3) 0.7836(4)
H22_7 H 0.8557 0.3271 0.7718
C36_7 C 0.7430(4) 0.3474(3) 0.7432(3)
C37_7 C 0.6848(4) 0.3773(3) 0.7609(3)
H23_7 H 0.6385 0.3795 0.7343
C38_7 C 0.6893(4) 0.4050(3) 0.8157(3)
H24_7 H 0.6482 0.4278 0.8249
C39_7 C 0.7387(4) 0.3181(3) 0.6832(3)
N1_7 N 0.6222(3) 0.63715(16) 0.4393(2)
N2_7 N 0.6190(3) 0.53721(16) 0.4527(2)
O14_7 O 0.5076(3) 0.52743(18) 0.3911(3)
O15_7 O 0.7007(2) 0.29798(16) 0.5173(2)
O18_7 O 0.9323(5) 0.2704(4) 0.5992(4)
O19_7 O 0.8783(4) 0.3172(2) 0.5261(4)
O20_7 O 0.8470(3) 0.4853(2) 0.8875(2)
O21_7 O 0.6821(4) 0.2905(4) 0.6702(3)
O22_7 O 0.7954(3) 0.3205(2) 0.6520(2)
C1_8 C 0.3730(3) 0.6897(2) 0.0656(3)
H1_8 H 0.3282 0.7072 0.0477
C2_8 C 0.4315(4) 0.7188(2) 0.0960(4)
H2_8 H 0.4270 0.7560 0.0986
C3_8 C 0.4946(4) 0.6944(3) 0.1218(4)
H3_5 H 0.5348 0.7143 0.1432
C4_5 C 0.5009(4) 0.6408(3) 0.1173(4)
H4_5 H 0.5459 0.6233 0.1348
C5_8 C 0.4413(3) 0.6128(2) 0.0873(3)
C6_8 C 0.4405(3) 0.5544(2) 0.0822(3)
C7_8 C 0.3657(3) 0.48204(19) 0.0461(3)
C10_8 C 0.3250(3) 0.37621(19) 0.0395(3)
C11_8 C 0.3194(4) 0.4043(2) 0.0942(3)
H7_8 H 0.3018 0.3872 0.1297
C12_8 C 0.3391(4) 0.4570(2) 0.0975(3)
H8_8 H 0.3345 0.4761 0.1350
C13_8 C 0.3041(3) 0.3190(2) 0.0356(3)
H14_8 H 0.0212 0.3748 0.0224
N1_8 N 0.3778(3) 0.63715(16) 0.0607(2)
N2_8 N 0.3810(3) 0.53721(16) 0.0473(2)
O14_8 O 0.4924(3) 0.52743(18) 0.1089(3)
C8_8 C 0.3722(4) 0.4536(2) 0.9913(3)
H5_8 H 0.3900 0.4704 0.9557
C9_8 C 0.3524(3) 0.4006(2) 0.9892(3)
H6_8 H 0.3579 0.3811 0.9522
C26_8 C 0.0661(6) 0.3001(3) 0.9442(4)
C27_8 C 0.2412(5) 0.4774(2) 0.4136(3)
H17_8 H 0.2718 0.4587 0.3863
C28_6 C 0.1978(6) 0.5201(3) 0.3916(4)
H18_6 H 0.1990 0.5306 0.3494
C29_6 C 0.1537(8) 0.5468(4) 0.4299(5)
H19_6 H 0.1252 0.5769 0.4154
C30_6 C 0.1509(6) 0.5294(3) 0.4907(4)
H20_8 H 0.1193 0.5471 0.5184
C31_8 C 0.1941(4) 0.4866(2) 0.5104(3)
C32_8 C 0.1943(4) 0.4654(2) 0.5737(3)
C33_8 C 0.2479(3) 0.4001(2) 0.6431(2)
C34_8 C 0.1842(4) 0.3724(3) 0.6600(3)
H21_8 H 0.1380 0.3714 0.6331
C35_8 C 0.1880(4) 0.3462(3) 0.7164(4)
H22_8 H 0.1443 0.3271 0.7282
C36_8 C 0.2570(4) 0.3474(3) 0.7568(3)
C37_8 C 0.3152(4) 0.3773(3) 0.7391(3)
H23_8 H 0.3615 0.3795 0.7657
C38_8 C 0.3107(4) 0.4050(3) 0.6843(3)
H24_8 H 0.3518 0.4278 0.6751
C39_8 C 0.2613(4) 0.3181(3) 0.8168(3)
O15_8 O 0.2993(2) 0.29798(16) 0.9827(2)
O18_8 O 0.0677(5) 0.2704(4) 0.9008(4)
O19_8 O 0.1217(4) 0.3172(2) 0.9739(4)
O20_8 O 0.1530(3) 0.4853(2) 0.6125(2)
O21_8 O 0.3179(4) 0.2905(4) 0.8298(3)
O22_8 O 0.2046(3) 0.3205(2) 0.8480(2)
C14_8 C 0.5700(4) 0.4138(2) 0.0722(3)
H9_8 H 0.5497 0.4434 0.0496
C15_8 C 0.5299(4) 0.3941(3) 0.1204(3)
H10_4 H 0.4822 0.4095 0.1298
C16_8 C 0.5599(5) 0.3523(3) 0.1541(4)
H11_8 H 0.5332 0.3378 0.1870
C17_8 C 0.6304(5) 0.3315(3) 0.1393(3)
H12_8 H 0.6531 0.3032 0.1630
C18_8 C 0.6669(4) 0.3519(2) 0.0906(3)
C19_8 C 0.7413(3) 0.3317(2) 0.0714(3)
C20_8 C 0.8392(3) 0.3424(2) 0.0026(3)
C21_8 C 0.9018(4) 0.3711(3) 0.0247(4)
H13_8 H 0.8962 0.4003 0.0514
C22_8 C 0.9768(4) 0.3558(3) 0.0064(4)
O17_8 O 0.7777(3) 0.29700(19) 0.1021(2)
C23_8 C 0.9857(4) 0.3151(3) 0.9668(4)
C24_8 C 0.9230(5) 0.2877(3) 0.9457(5)
H15_8 H 0.9284 0.2592 0.9179
C25_8 C 0.8505(4) 0.3007(3) 0.9641(4)
H16_8 H 0.8071 0.2800 0.9494
C28_7 C 0.6978(6) 0.9799(3) 0.8916(4)
H18_7 H 0.6990 0.9694 0.8494
C29_7 C 0.6537(8) 0.9532(4) 0.9299(5)
H19_7 H 0.6252 0.9231 0.9154
C30_7 C 0.6509(6) 0.9706(3) 0.9907(4)
H10_5 H 0.9822 0.0905 0.6298
H10_6 H 0.0178 0.0905 0.8702
H3_6 H 0.9652 0.7857 0.8568
C4_6 C 0.9991(4) 0.8592(3) 0.8827(4)
H4_6 H 0.9541 0.8767 0.8652
H10_7 H 0.0178 0.9095 0.3702
C28_8 C 0.3022(6) 0.0201(3) 0.1084(4)
H18_8 H 0.3010 0.0306 0.1506
C29_8 C 0.3463(8) 0.0468(4) 0.0701(5)
H19_8 H 0.3748 0.0769 0.0846
C30_8 C 0.3491(6) 0.0294(3) 0.0093(4)
H3_7 H 0.9652 0.2143 0.3568
C4_7 C 0.9991(4) 0.1408(3) 0.3827(4)
H4_7 H 0.9541 0.1233 0.3652
H3_8 H 0.0348 0.2143 0.1432
C4_8 C 0.0009(4) 0.1408(3) 0.1173(4)
H4_8 H 0.0459 0.1233 0.1348
H10_8 H 0.9822 0.9095 0.1298
loop_
_geom_bond_atom_site_label_1
_geom_bond_atom_site_label_2
_geom_bond_site_symmetry_1
_geom_bond_site_symmetry_2
Na1 O1 1_555 1_555
O1 Na2 1_555 1_555
O2 Na1 1_555 1_555
O3 Na1 1_555 1_555
O4 Na1 1_555 1_555
O5 Na1 1_555 1_555
O6 Na1 1_555 1_555
O7 Na1 1_555 1_555
Na2 O8 1_555 1_555
O9 Na2 1_555 1_555
O10 Na2 1_555 1_555
O11 Na2 1_555 1_555
O12 Na2 1_555 1_555
O13 Na2 1_555 1_555
O3 H25 1_555 1_555
O3 H26 1_555 1_555
O2 H27 1_555 1_555
O2 H28 1_555 1_555
O11 H29 1_555 1_555
O11 H30 1_555 1_555
O13 H31 1_555 1_555
O13 H32 1_555 1_555
O10 H33 1_555 1_555
O10 H34 1_555 1_555
O12 H35 1_555 1_555
O12 H36 1_555 1_555
O4 H37 1_555 1_555
O4 H38 1_555 1_555
O5 H39 1_555 1_555
O5 H40 1_555 1_555
O6 H41 1_555 1_555
O6 H42 1_555 1_555
O8 H43 1_555 1_555
O8 H44 1_555 1_555
O9 H45 1_555 1_555
O9 H46 1_555 1_555
O7 H47 1_555 1_555
O7 H48 1_555 1_555
Na1_2 O1_2 1_555 1_555
O2_2 Na1_2 1_555 1_555
O3_2 Na1_2 1_555 1_555
O4_2 Na1_2 1_555 1_555
O5_2 Na1_2 1_555 1_555
O6_2 Na1_2 1_555 1_555
O7_2 Na1_2 1_555 1_555
O3_2 H25_2 1_555 1_555
O3_2 H26_2 1_555 1_555
O2_2 H27_2 1_555 1_555
O2_2 H28_2 1_555 1_555
O4_2 H37_2 1_555 1_555
O4_2 H38_2 1_555 1_555
O5_2 H39_2 1_555 1_555
O5_2 H40_2 1_555 1_555
O6_2 H41_2 1_555 1_555
O6_2 H42_2 1_555 1_555
O7_2 H47_2 1_555 1_555
O7_2 H48_2 1_555 1_555
O1_3 Na2_2 1_555 1_555
Na2_2 O8_2 1_555 1_555
O9_2 Na2_2 1_555 1_555
O10_2 Na2_2 1_555 1_555
O11_2 Na2_2 1_555 1_555
O12_2 Na2_2 1_555 1_555
O13_2 Na2_2 1_555 1_555
O11_2 H29_2 1_555 1_555
O11_2 H30_2 1_555 1_555
O13_2 H31_2 1_555 1_555
O13_2 H32_2 1_555 1_555
O10_2 H33_2 1_555 1_555
O10_2 H34_2 1_555 1_555
O12_2 H35_2 1_555 1_555
O12_2 H36_2 1_555 1_555
O8_2 H43_2 1_555 1_555
O8_2 H44_2 1_555 1_555
O9_2 H45_2 1_555 1_555
O9_2 H46_2 1_555 1_555
Na1_3 O1_4 1_555 1_555
O1_4 Na2_3 1_555 1_555
O2_3 Na1_3 1_555 1_555
O3_3 Na1_3 1_555 1_555
O4_3 Na1_3 1_555 1_555
O5_3 Na1_3 1_555 1_555
O6_3 Na1_3 1_555 1_555
O7_3 Na1_3 1_555 1_555
Na2_3 O8_3 1_555 1_555
O9_3 Na2_3 1_555 1_555
O10_3 Na2_3 1_555 1_555
O11_3 Na2_3 1_555 1_555
O12_3 Na2_3 1_555 1_555
O13_3 Na2_3 1_555 1_555
O3_3 H25_3 1_555 1_555
O3_3 H26_3 1_555 1_555
O2_3 H27_3 1_555 1_555
O2_3 H28_3 1_555 1_555
O11_3 H29_3 1_555 1_555
O11_3 H30_3 1_555 1_555
O13_3 H31_3 1_555 1_555
O13_3 H32_3 1_555 1_555
O10_3 H33_3 1_555 1_555
O10_3 H34_3 1_555 1_555
O12_3 H35_3 1_555 1_555
O12_3 H36_3 1_555 1_555
O4_3 H37_3 1_555 1_555
O4_3 H38_3 1_555 1_555
O5_3 H39_3 1_555 1_555
O5_3 H40_3 1_555 1_555
O6_3 H41_3 1_555 1_555
O6_3 H42_3 1_555 1_555
O8_3 H43_3 1_555 1_555
O8_3 H44_3 1_555 1_555
O9_3 H45_3 1_555 1_555
O9_3 H46_3 1_555 1_555
O7_3 H47_3 1_555 1_555
O7_3 H48_3 1_555 1_555
O1_5 Na2_4 1_555 1_555
Na2_4 O8_4 1_555 1_555
O9_4 Na2_4 1_555 1_555
O10_4 Na2_4 1_555 1_555
O11_4 Na2_4 1_555 1_555
O12_4 Na2_4 1_555 1_555
O13_4 Na2_4 1_555 1_555
O11_4 H29_4 1_555 1_555
O11_4 H30_4 1_555 1_555
O13_4 H31_4 1_555 1_555
O13_4 H32_4 1_555 1_555
O10_4 H33_4 1_555 1_555
O10_4 H34_4 1_555 1_555
O12_4 H35_4 1_555 1_555
O12_4 H36_4 1_555 1_555
O8_4 H43_4 1_555 1_555
O8_4 H44_4 1_555 1_555
O9_4 H45_4 1_555 1_555
O9_4 H46_4 1_555 1_555
Na1_4 O1_6 1_555 1_555
O2_4 Na1_4 1_555 1_555
O3_4 Na1_4 1_555 1_555
O4_4 Na1_4 1_555 1_555
O5_4 Na1_4 1_555 1_555
O6_4 Na1_4 1_555 1_555
O7_4 Na1_4 1_555 1_555
O3_4 H25_4 1_555 1_555
O3_4 H26_4 1_555 1_555
O2_4 H27_4 1_555 1_555
O2_4 H28_4 1_555 1_555
O4_4 H37_4 1_555 1_555
O4_4 H38_4 1_555 1_555
O5_4 H39_4 1_555 1_555
O5_4 H40_4 1_555 1_555
O6_4 H41_4 1_555 1_555
O6_4 H42_4 1_555 1_555
O7_4 H47_4 1_555 1_555
O7_4 H48_4 1_555 1_555
H4 C4 1_555 1_555
C7 C8 1_555 1_555
C8 H5 1_555 1_555
C9 C8 1_555 1_555
H6 C9 1_555 1_555
C10 C9 1_555 1_555
C11 C10 1_555 1_555
H7 C11 1_555 1_555
C12 C7 1_555 1_555
H8 C12 1_555 1_555
C13 C10 1_555 1_555
C14 H9 1_555 1_555
C15 C14 1_555 1_555
C16 C15 1_555 1_555
H11 C16 1_555 1_555
C17 C16 1_555 1_555
H12 C17 1_555 1_555
C18 C17 1_555 1_555
C19 C18 1_555 1_555
C20 C21 1_555 1_555
C21 H13 1_555 1_555
C22 C21 1_555 1_555
H14 C22 1_555 1_555
C23 C22 1_555 1_555
C24 C23 1_555 1_555
H15 C24 1_555 1_555
C25 C20 1_555 1_555
H16 C25 1_555 1_555
C26 C23 1_555 1_555
C32 C31 1_555 1_555
C33 C34 1_555 1_555
C34 H21 1_555 1_555
C35 C34 1_555 1_555
H22 C35 1_555 1_555
C36 C35 1_555 1_555
C37 C36 1_555 1_555
H23 C37 1_555 1_555
C38 C33 1_555 1_555
H24 C38 1_555 1_555
C39 C36 1_555 1_555
N3 C14 1_555 1_555
N4 C19 1_555 1_555
N6 C32 1_555 1_555
O15 C13 1_555 1_555
O16 C13 1_555 1_555
O17 C19 1_555 1_555
O18 C26 1_555 1_555
O19 C26 1_555 1_555
O20 C32 1_555 1_555
O21 C39 1_555 1_555
O22 C39 1_555 1_555
Zn1 O15 1_555 1_555
Co2 N3 1_555 1_555
O23 Zn1 1_555 1_555
Zn2 O16 1_555 1_555
C11 C12 1_555 1_555
C18 N3 1_555 1_555
C20 N4 1_555 1_555
C24 C25 1_555 1_555
C33 N6 1_555 1_555
C37 C38 1_555 1_555
N4 Co2 1_555 1_555
N6 Co3 1_555 1_555
O18 Zn1 1_555 1_555
O19 Zn1 1_555 1_555
O22 Zn1 1_555 1_555
C27 H17 1_555 1_555
N5 C27 1_555 1_555
C1 H1 1_555 1_555
C2 C1 1_555 1_555
H2 C2 1_555 1_555
C3 C2 1_555 1_555
C6 C5 1_555 1_555
Co1 N1 1_555 1_555
N1 C1 1_555 1_555
N2 C6 1_555 1_555
O14 C6 1_555 1_555
N7 Co1 1_555 1_555
N8 Co1 1_555 1_555
N9 Co1 1_555 1_555
N10 Co1 1_555 1_555
C5 N1 1_555 1_555
Co1 N2 1_555 1_555
C8_2 H5_2 1_555 1_555
C9_2 C8_2 1_555 1_555
H6_2 C9_2 1_555 1_555
C24_2 C23_2 1_555 1_555
H15_2 C24_2 1_555 1_555
H16_2 C25_2 1_555 1_555
C26_2 C23_2 1_555 1_555
C27_2 H17_2 1_555 1_555
C32_2 C31_2 1_555 1_555
C33_2 C34_2 1_555 1_555
C34_2 H21_2 1_555 1_555
C35_2 C34_2 1_555 1_555
H22_2 C35_2 1_555 1_555
C36_2 C35_2 1_555 1_555
C37_2 C36_2 1_555 1_555
H23_2 C37_2 1_555 1_555
C38_2 C33_2 1_555 1_555
H24_2 C38_2 1_555 1_555
C39_2 C36_2 1_555 1_555
N5_2 C27_2 1_555 1_555
N6_2 C32_2 1_555 1_555
O18_2 C26_2 1_555 1_555
O19_2 C26_2 1_555 1_555
O20_2 C32_2 1_555 1_555
O21_2 C39_2 1_555 1_555
O22_2 C39_2 1_555 1_555
Zn1_2 O15_2 1_555 1_555
Co2 N5_2 1_555 1_555
O23_2 Zn1_2 1_555 1_555
C24_2 C25_2 1_555 1_555
C31_2 N5_2 1_555 1_555
C33_2 N6_2 1_555 1_555
C37_2 C38_2 1_555 1_555
N6_2 Co2 1_555 1_555
O18_2 Zn1_2 1_555 1_555
O19_2 Zn1_2 1_555 1_555
O22_2 Zn1_2 1_555 1_555
C11_2 C10_2 1_555 1_555
H7_2 C11_2 1_555 1_555
C12_2 C7_2 1_555 1_555
H8_2 C12_2 1_555 1_555
C13_2 C10_2 1_555 1_555
C14_2 H9_2 1_555 1_555
C15_2 C14_2 1_555 1_555
C16_2 C15_2 1_555 1_555
H11_2 C16_2 1_555 1_555
C17_2 C16_2 1_555 1_555
H12_2 C17_2 1_555 1_555
C18_2 C17_2 1_555 1_555
C19_2 C18_2 1_555 1_555
C20_2 C21_2 1_555 1_555
C21_2 H13_2 1_555 1_555
C22_2 C21_2 1_555 1_555
H14_2 C22_2 1_555 1_555
N3_2 C14_2 1_555 1_555
N4_2 C19_2 1_555 1_555
O16_2 C13_2 1_555 1_555
O17_2 C19_2 1_555 1_555
Zn2_2 O16_2 1_555 1_555
C11_2 C12_2 1_555 1_555
C18_2 N3_2 1_555 1_555
C20_2 N4_2 1_555 1_555
H18 C28 1_555 1_555
C29 C28 1_555 1_555
H19 C29 1_555 1_555
C30 C29 1_555 1_555
H20_2 C30 1_555 1_555
C1_2 H1_2 1_555 1_555
C2_2 C1_2 1_555 1_555
H2_2 C2_2 1_555 1_555
C3_2 C2_2 1_555 1_555
C6_2 C5_2 1_555 1_555
Co1_2 N1_2 1_555 1_555
N1_2 C1_2 1_555 1_555
N2_2 C6_2 1_555 1_555
O14_2 C6_2 1_555 1_555
N10_2 Co1_2 1_555 1_555
C5_2 N1_2 1_555 1_555
Co1_2 N2_2 1_555 1_555
C1_3 H1_3 1_555 1_555
C2_3 C1_3 1_555 1_555
H2_3 C2_3 1_555 1_555
C3_3 C2_3 1_555 1_555
H3_2 C3_3 1_555 1_555
C4_2 C3_3 1_555 1_555
H4_2 C4_2 1_555 1_555
C5_3 C4_2 1_555 1_555
C6_3 C5_3 1_555 1_555
C7_3 C8_3 1_555 1_555
C8_3 H5_3 1_555 1_555
C9_3 C8_3 1_555 1_555
H6_3 C9_3 1_555 1_555
C10_3 C9_3 1_555 1_555
C11_3 C10_3 1_555 1_555
H7_3 C11_3 1_555 1_555
C12_3 C7_3 1_555 1_555
H8_3 C12_3 1_555 1_555
C13_3 C10_3 1_555 1_555
C32_3 C31_3 1_555 1_555
C33_3 C34_3 1_555 1_555
C34_3 H21_3 1_555 1_555
C35_3 C34_3 1_555 1_555
H22_3 C35_3 1_555 1_555
C36_3 C35_3 1_555 1_555
C37_3 C36_3 1_555 1_555
H23_3 C37_3 1_555 1_555
C38_3 C33_3 1_555 1_555
H24_3 C38_3 1_555 1_555
C39_3 C36_3 1_555 1_555
Co1_3 N1_3 1_555 1_555
N1_3 C1_3 1_555 1_555
N2_3 C6_3 1_555 1_555
N6_3 C32_3 1_555 1_555
O14_3 C6_3 1_555 1_555
O15_3 C13_3 1_555 1_555
O16_3 C13_3 1_555 1_555
O18_3 C26_3 1_555 1_555
O19_3 C26_3 1_555 1_555
O20_3 C32_3 1_555 1_555
O21_3 C39_3 1_555 1_555
O22_3 C39_3 1_555 1_555
Zn1_3 O15_3 1_555 1_555
N7_3 Co1_3 1_555 1_555
N8_3 Co1_3 1_555 1_555
N9_3 Co1_3 1_555 1_555
N10_3 Co1_3 1_555 1_555
O23_3 Zn1_3 1_555 1_555
Zn2_3 O16_3 1_555 1_555
C5_3 N1_3 1_555 1_555
C7_3 N2_3 1_555 1_555
C11_3 C12_3 1_555 1_555
C33_3 N6_3 1_555 1_555
C37_3 C38_3 1_555 1_555
Co1_3 N2_3 1_555 1_555
N6_3 Co3_2 1_555 1_555
O18_3 Zn1_3 1_555 1_555
O19_3 Zn1_3 1_555 1_555
O22_3 Zn1_3 1_555 1_555
C27_3 H17_3 1_555 1_555
C28_2 C27_3 1_555 1_555
H18_2 C28_2 1_555 1_555
C29_2 C28_2 1_555 1_555
H19_2 C29_2 1_555 1_555
C30_2 C29_2 1_555 1_555
N5_3 C27_3 1_555 1_555
C14_3 H9_3 1_555 1_555
C15_3 C14_3 1_555 1_555
H10 C15_3 1_555 1_555
C16_3 C15_3 1_555 1_555
H11_3 C16_3 1_555 1_555
C17_3 C16_3 1_555 1_555
H12_3 C17_3 1_555 1_555
C18_3 C17_3 1_555 1_555
C19_3 C18_3 1_555 1_555
C20_3 C21_3 1_555 1_555
C21_3 H13_3 1_555 1_555
C22_3 C21_3 1_555 1_555
C23_3 C22_3 1_555 1_555
C24_3 C23_3 1_555 1_555
H15_3 C24_3 1_555 1_555
C25_3 C20_3 1_555 1_555
H16_3 C25_3 1_555 1_555
N3_3 C14_3 1_555 1_555
N4_3 C19_3 1_555 1_555
O17_3 C19_3 1_555 1_555
Co2_2 N3_3 1_555 1_555
C18_3 N3_3 1_555 1_555
C20_3 N4_3 1_555 1_555
C24_3 C25_3 1_555 1_555
N4_3 Co2_2 1_555 1_555
C24_4 C23_4 1_555 1_555
H15_4 C24_4 1_555 1_555
H16_4 C25_4 1_555 1_555
C24_4 C25_4 1_555 1_555
C14_4 H9_4 1_555 1_555
C15_4 C14_4 1_555 1_555
H10_2 C15_4 1_555 1_555
C16_4 C15_4 1_555 1_555
H11_4 C16_4 1_555 1_555
C17_4 C16_4 1_555 1_555
H12_4 C17_4 1_555 1_555
C18_4 C17_4 1_555 1_555
C19_4 C18_4 1_555 1_555
C20_4 C21_4 1_555 1_555
C21_4 H13_4 1_555 1_555
C22_4 C21_4 1_555 1_555
N3_4 C14_4 1_555 1_555
N4_4 C19_4 1_555 1_555
O17_4 C19_4 1_555 1_555
C18_4 N3_4 1_555 1_555
C20_4 N4_4 1_555 1_555
C8_4 H5_4 1_555 1_555
C9_4 C8_4 1_555 1_555
H6_4 C9_4 1_555 1_555
C27_4 H17_4 1_555 1_555
C28_3 C27_4 1_555 1_555
H18_3 C28_3 1_555 1_555
C29_3 C28_3 1_555 1_555
H19_3 C29_3 1_555 1_555
C30_3 C29_3 1_555 1_555
H20_4 C30_3 1_555 1_555
C31_4 C30_3 1_555 1_555
C32_4 C31_4 1_555 1_555
C33_4 C34_4 1_555 1_555
C34_4 H21_4 1_555 1_555
C35_4 C34_4 1_555 1_555
H22_4 C35_4 1_555 1_555
C36_4 C35_4 1_555 1_555
C37_4 C36_4 1_555 1_555
H23_4 C37_4 1_555 1_555
C38_4 C33_4 1_555 1_555
H24_4 C38_4 1_555 1_555
C39_4 C36_4 1_555 1_555
N5_4 C27_4 1_555 1_555
N6_4 C32_4 1_555 1_555
O18_4 C26_4 1_555 1_555
O19_4 C26_4 1_555 1_555
O20_4 C32_4 1_555 1_555
O21_4 C39_4 1_555 1_555
O22_4 C39_4 1_555 1_555
Zn1_4 O15_4 1_555 1_555
Co2_2 N5_4 1_555 1_555
O23_4 Zn1_4 1_555 1_555
C31_4 N5_4 1_555 1_555
C33_4 N6_4 1_555 1_555
C37_4 C38_4 1_555 1_555
N6_4 Co2_2 1_555 1_555
O18_4 Zn1_4 1_555 1_555
O19_4 Zn1_4 1_555 1_555
O22_4 Zn1_4 1_555 1_555
C1_4 H1_4 1_555 1_555
C2_4 C1_4 1_555 1_555
H2_4 C2_4 1_555 1_555
C3_4 C2_4 1_555 1_555
H3_3 C3_4 1_555 1_555
C4_3 C3_4 1_555 1_555
H4_3 C4_3 1_555 1_555
C5_4 C4_3 1_555 1_555
C6_4 C5_4 1_555 1_555
C11_4 C10_4 1_555 1_555
H7_4 C11_4 1_555 1_555
C12_4 C7_4 1_555 1_555
H8_4 C12_4 1_555 1_555
C13_4 C10_4 1_555 1_555
Co1_4 N1_4 1_555 1_555
N1_4 C1_4 1_555 1_555
N2_4 C6_4 1_555 1_555
O14_4 C6_4 1_555 1_555
O16_4 C13_4 1_555 1_555
N10_4 Co1_4 1_555 1_555
Zn2_4 O16_4 1_555 1_555
C5_4 N1_4 1_555 1_555
C7_4 N2_4 1_555 1_555
C11_4 C12_4 1_555 1_555
Co1_4 N2_4 1_555 1_555
C1_5 H1_5 1_555 1_555
C2_5 C1_5 1_555 1_555
H2_5 C2_5 1_555 1_555
C3_5 C2_5 1_555 1_555
C6_5 C5_5 1_555 1_555
Co2 N1_5 1_555 1_555
N1_5 C1_5 1_555 1_555
N2_5 C6_5 1_555 1_555
O14_5 C6_5 1_555 1_555
C5_5 N1_5 1_555 1_555
Co2 N2_5 1_555 1_555
C27_5 H17_5 1_555 1_555
N9_2 C27_5 1_555 1_555
C7_5 C8_5 1_555 1_555
C8_5 H5_5 1_555 1_555
C9_5 C8_5 1_555 1_555
H6_5 C9_5 1_555 1_555
C10_5 C9_5 1_555 1_555
C11_5 C10_5 1_555 1_555
H7_5 C11_5 1_555 1_555
C12_5 C7_5 1_555 1_555
H8_5 C12_5 1_555 1_555
C13_5 C10_5 1_555 1_555
C14_5 H9_5 1_555 1_555
C15_5 C14_5 1_555 1_555
C16_5 C15_5 1_555 1_555
H11_5 C16_5 1_555 1_555
C17_5 C16_5 1_555 1_555
H12_5 C17_5 1_555 1_555
C18_5 C17_5 1_555 1_555
C19_5 C18_5 1_555 1_555
C20_5 C21_5 1_555 1_555
C21_5 H13_5 1_555 1_555
C22_5 C21_5 1_555 1_555
H14_5 C22_5 1_555 1_555
C23_5 C22_5 1_555 1_555
C24_5 C23_5 1_555 1_555
H15_5 C24_5 1_555 1_555
C25_5 C20_5 1_555 1_555
H16_5 C25_5 1_555 1_555
C26_5 C23_5 1_555 1_555
C32_5 C31_5 1_555 1_555
C33_5 C34_5 1_555 1_555
C34_5 H21_5 1_555 1_555
C35_5 C34_5 1_555 1_555
H22_5 C35_5 1_555 1_555
C36_5 C35_5 1_555 1_555
C37_5 C36_5 1_555 1_555
H23_5 C37_5 1_555 1_555
C38_5 C33_5 1_555 1_555
H24_5 C38_5 1_555 1_555
C39_5 C36_5 1_555 1_555
N7 C14_5 1_555 1_555
N8 C19_5 1_555 1_555
N10_2 C32_5 1_555 1_555
O15_5 C13_5 1_555 1_555
O23_3 C13_5 1_555 1_555
O17_5 C19_5 1_555 1_555
O18_5 C26_5 1_555 1_555
O19_5 C26_5 1_555 1_555
O20_5 C32_5 1_555 1_555
O21_5 C39_5 1_555 1_555
O22_5 C39_5 1_555 1_555
Zn2_3 O15_5 1_555 1_555
C11_5 C12_5 1_555 1_555
C18_5 N7 1_555 1_555
C20_5 N8 1_555 1_555
C24_5 C25_5 1_555 1_555
C33_5 N10_2 1_555 1_555
C37_5 C38_5 1_555 1_555
O18_5 Zn2_3 1_555 1_555
O19_5 Zn2_3 1_555 1_555
O22_5 Zn2_3 1_555 1_555
C1_6 H1_6 1_555 1_555
C2_6 C1_6 1_555 1_555
H2_6 C2_6 1_555 1_555
C3_6 C2_6 1_555 1_555
C6_6 C5_6 1_555 1_555
Co3 N1_6 1_555 1_555
N1_6 C1_6 1_555 1_555
N2_6 C6_6 1_555 1_555
O14_6 C6_6 1_555 1_555
C5_6 N1_6 1_555 1_555
Co3 N2_6 1_555 1_555
H18_4 C28_4 1_555 1_555
C29_4 C28_4 1_555 1_555
H19_4 C29_4 1_555 1_555
C30_4 C29_4 1_555 1_555
H20_6 C30_4 1_555 1_555
C11_6 C10_6 1_555 1_555
H7_6 C11_6 1_555 1_555
C12_6 C7_6 1_555 1_555
H8_6 C12_6 1_555 1_555
C13_6 C10_6 1_555 1_555
C14_6 H9_6 1_555 1_555
C15_6 C14_6 1_555 1_555
C16_6 C15_6 1_555 1_555
H11_6 C16_6 1_555 1_555
C17_6 C16_6 1_555 1_555
H12_6 C17_6 1_555 1_555
C18_6 C17_6 1_555 1_555
C19_6 C18_6 1_555 1_555
C20_6 C21_6 1_555 1_555
C21_6 H13_6 1_555 1_555
C22_6 C21_6 1_555 1_555
H14_6 C22_6 1_555 1_555
N7_2 C14_6 1_555 1_555
N8_2 C19_6 1_555 1_555
O23_4 C13_6 1_555 1_555
O17_6 C19_6 1_555 1_555
C11_6 C12_6 1_555 1_555
C18_6 N7_2 1_555 1_555
C20_6 N8_2 1_555 1_555
C8_6 H5_6 1_555 1_555
C9_6 C8_6 1_555 1_555
H6_6 C9_6 1_555 1_555
C24_6 C23_6 1_555 1_555
H15_6 C24_6 1_555 1_555
H16_6 C25_6 1_555 1_555
C26_6 C23_6 1_555 1_555
C27_6 H17_6 1_555 1_555
C32_6 C31_6 1_555 1_555
C33_6 C34_6 1_555 1_555
C34_6 H21_6 1_555 1_555
C35_6 C34_6 1_555 1_555
H22_6 C35_6 1_555 1_555
C36_6 C35_6 1_555 1_555
C37_6 C36_6 1_555 1_555
H23_6 C37_6 1_555 1_555
C38_6 C33_6 1_555 1_555
H24_6 C38_6 1_555 1_555
C39_6 C36_6 1_555 1_555
N9 C27_6 1_555 1_555
N10 C32_6 1_555 1_555
O18_6 C26_6 1_555 1_555
O19_6 C26_6 1_555 1_555
O20_6 C32_6 1_555 1_555
O21_6 C39_6 1_555 1_555
O22_6 C39_6 1_555 1_555
Zn2_4 O15_6 1_555 1_555
C24_6 C25_6 1_555 1_555
C31_6 N9 1_555 1_555
C33_6 N10 1_555 1_555
C37_6 C38_6 1_555 1_555
O18_6 Zn2_4 1_555 1_555
O19_6 Zn2_4 1_555 1_555
O22_6 Zn2_4 1_555 1_555
C14_7 H9_7 1_555 1_555
C15_7 C14_7 1_555 1_555
H10_3 C15_7 1_555 1_555
C16_7 C15_7 1_555 1_555
H11_7 C16_7 1_555 1_555
C17_7 C16_7 1_555 1_555
H12_7 C17_7 1_555 1_555
C18_7 C17_7 1_555 1_555
C19_7 C18_7 1_555 1_555
C20_7 C21_7 1_555 1_555
C21_7 H13_7 1_555 1_555
C22_7 C21_7 1_555 1_555
C23_7 C22_7 1_555 1_555
C24_7 C23_7 1_555 1_555
H15_7 C24_7 1_555 1_555
C25_7 C20_7 1_555 1_555
H16_7 C25_7 1_555 1_555
N7_3 C14_7 1_555 1_555
N8_3 C19_7 1_555 1_555
O17_7 C19_7 1_555 1_555
C18_7 N7_3 1_555 1_555
C20_7 N8_3 1_555 1_555
C24_7 C25_7 1_555 1_555
C27_7 H17_7 1_555 1_555
C28_5 C27_7 1_555 1_555
H18_5 C28_5 1_555 1_555
C29_5 C28_5 1_555 1_555
H19_5 C29_5 1_555 1_555
C30_5 C29_5 1_555 1_555
N9_4 C27_7 1_555 1_555
C1_7 H1_7 1_555 1_555
C2_7 C1_7 1_555 1_555
H2_7 C2_7 1_555 1_555
C3_7 C2_7 1_555 1_555
H3_4 C3_7 1_555 1_555
C4_4 C3_7 1_555 1_555
H4_4 C4_4 1_555 1_555
C5_7 C4_4 1_555 1_555
C6_7 C5_7 1_555 1_555
C7_7 C8_7 1_555 1_555
C8_7 H5_7 1_555 1_555
C9_7 C8_7 1_555 1_555
H6_7 C9_7 1_555 1_555
C10_7 C9_7 1_555 1_555
C11_7 C10_7 1_555 1_555
H7_7 C11_7 1_555 1_555
C12_7 C7_7 1_555 1_555
H8_7 C12_7 1_555 1_555
C13_7 C10_7 1_555 1_555
C32_7 C31_7 1_555 1_555
C33_7 C34_7 1_555 1_555
C34_7 H21_7 1_555 1_555
C35_7 C34_7 1_555 1_555
H22_7 C35_7 1_555 1_555
C36_7 C35_7 1_555 1_555
C37_7 C36_7 1_555 1_555
H23_7 C37_7 1_555 1_555
C38_7 C33_7 1_555 1_555
H24_7 C38_7 1_555 1_555
C39_7 C36_7 1_555 1_555
Co2_2 N1_7 1_555 1_555
N1_7 C1_7 1_555 1_555
N2_7 C6_7 1_555 1_555
N10_4 C32_7 1_555 1_555
O14_7 C6_7 1_555 1_555
O15_7 C13_7 1_555 1_555
O23 C13_7 1_555 1_555
O18_7 C26_7 1_555 1_555
O19_7 C26_7 1_555 1_555
O20_7 C32_7 1_555 1_555
O21_7 C39_7 1_555 1_555
O22_7 C39_7 1_555 1_555
Zn2 O15_7 1_555 1_555
C5_7 N1_7 1_555 1_555
C7_7 N2_7 1_555 1_555
C11_7 C12_7 1_555 1_555
C33_7 N10_4 1_555 1_555
C37_7 C38_7 1_555 1_555
Co2_2 N2_7 1_555 1_555
O18_7 Zn2 1_555 1_555
O19_7 Zn2 1_555 1_555
O22_7 Zn2 1_555 1_555
C1_8 H1_8 1_555 1_555
C2_8 C1_8 1_555 1_555
H2_8 C2_8 1_555 1_555
C3_8 C2_8 1_555 1_555
H3_5 C3_8 1_555 1_555
C4_5 C3_8 1_555 1_555
H4_5 C4_5 1_555 1_555
C5_8 C4_5 1_555 1_555
C6_8 C5_8 1_555 1_555
C11_8 C10_8 1_555 1_555
H7_8 C11_8 1_555 1_555
C12_8 C7_8 1_555 1_555
H8_8 C12_8 1_555 1_555
C13_8 C10_8 1_555 1_555
Co3_2 N1_8 1_555 1_555
N1_8 C1_8 1_555 1_555
N2_8 C6_8 1_555 1_555
O14_8 C6_8 1_555 1_555
O23_2 C13_8 1_555 1_555
C5_8 N1_8 1_555 1_555
C7_8 N2_8 1_555 1_555
C11_8 C12_8 1_555 1_555
Co3_2 N2_8 1_555 1_555
C8_8 H5_8 1_555 1_555
C9_8 C8_8 1_555 1_555
H6_8 C9_8 1_555 1_555
C27_8 H17_8 1_555 1_555
C28_6 C27_8 1_555 1_555
H18_6 C28_6 1_555 1_555
C29_6 C28_6 1_555 1_555
H19_6 C29_6 1_555 1_555
C30_6 C29_6 1_555 1_555
H20_8 C30_6 1_555 1_555
C31_8 C30_6 1_555 1_555
C32_8 C31_8 1_555 1_555
C33_8 C34_8 1_555 1_555
C34_8 H21_8 1_555 1_555
C35_8 C34_8 1_555 1_555
H22_8 C35_8 1_555 1_555
C36_8 C35_8 1_555 1_555
C37_8 C36_8 1_555 1_555
H23_8 C37_8 1_555 1_555
C38_8 C33_8 1_555 1_555
H24_8 C38_8 1_555 1_555
C39_8 C36_8 1_555 1_555
N9_3 C27_8 1_555 1_555
N10_3 C32_8 1_555 1_555
O18_8 C26_8 1_555 1_555
O19_8 C26_8 1_555 1_555
O20_8 C32_8 1_555 1_555
O21_8 C39_8 1_555 1_555
O22_8 C39_8 1_555 1_555
Zn2_2 O15_8 1_555 1_555
C31_8 N9_3 1_555 1_555
C33_8 N10_3 1_555 1_555
C37_8 C38_8 1_555 1_555
O18_8 Zn2_2 1_555 1_555
O19_8 Zn2_2 1_555 1_555
O22_8 Zn2_2 1_555 1_555
C14_8 H9_8 1_555 1_555
C15_8 C14_8 1_555 1_555
H10_4 C15_8 1_555 1_555
C16_8 C15_8 1_555 1_555
H11_8 C16_8 1_555 1_555
C17_8 C16_8 1_555 1_555
H12_8 C17_8 1_555 1_555
C18_8 C17_8 1_555 1_555
C19_8 C18_8 1_555 1_555
C20_8 C21_8 1_555 1_555
C21_8 H13_8 1_555 1_555
C22_8 C21_8 1_555 1_555
N7_4 C14_8 1_555 1_555
N8_4 C19_8 1_555 1_555
O17_8 C19_8 1_555 1_555
C18_8 N7_4 1_555 1_555
C20_8 N8_4 1_555 1_555
C24_8 C23_8 1_555 1_555
H15_8 C24_8 1_555 1_555
H16_8 C25_8 1_555 1_555
C24_8 C25_8 1_555 1_555
H18_7 C28_7 1_555 1_555
C29_7 C28_7 1_555 1_555
H19_7 C29_7 1_555 1_555
C30_7 C29_7 1_555 1_555
H4_6 C4_6 1_555 1_555
H18_8 C28_8 1_555 1_555
C29_8 C28_8 1_555 1_555
H19_8 C29_8 1_555 1_555
C30_8 C29_8 1_555 1_555
H4_7 C4_7 1_555 1_555
H4_8 C4_8 1_555 1_555

#END
