
###############################################################################
#
# This file contains modified crystal structure data generated from the
# MOF subset of the Cambridge Structural Database (CSD) v543 
# hosted by the Cambridge Crystallographic Data Centre (CCDC).
#
# This work is licensed under the Creative Commons
# Attribution-NonCommercial-ShareAlike 4.0 International License.
# To view a copy of this license, visit
# http://creativecommons.org/licenses/by-nc-sa/4.0/
# or send a letter to
# Creative Commons, PO Box 1866, Mountain View, CA 94042, USA.
#
# CIF created using the CSD Python API on 29 September 2022
# The structure has been converted into the P1 space group
# The structure has a 3D framework
# The original CSD entry KUTRIC is in the monoclinic crystal system
# The framework has been calculated to contain at least 10.0% void space
# The void calculation uses a probe of radius 1.32A, grid spacing 0.4
# H atom positions have been added when not included in the experimental data
#
###############################################################################

data_KUTRIC
_chemical_formula_moiety         '(C168 H124 Co4 N24 O80 Zn12)n'
_symmetry_cell_setting           triclinic
_symmetry_space_group_name_H-M   'P 1'
_symmetry_Int_Tables_number      1
_space_group_name_Hall           'P 1'
loop_
_symmetry_equiv_pos_site_id
_symmetry_equiv_pos_as_xyz
1 x,y,z
_cell_length_a                   15.0290(4)
_cell_length_b                   19.2206(6)
_cell_length_c                   21.3862(11)
_cell_angle_alpha                90
_cell_angle_beta                 118.363(3)
_cell_angle_gamma                90
_cell_volume                     5436.15
loop_
_atom_site_label
_atom_site_type_symbol
_atom_site_fract_x
_atom_site_fract_y
_atom_site_fract_z
O7 O 0.2490(3) 0.01165(17) 0.02188(18)
Zn4 Zn 0.21229(3) 0.06830(2) 0.13213(2)
O4 O 0.1417(2) 0.99483(14) 0.06418(14)
C42 C 0.1790(3) 0.97982(19) 0.0235(2)
Co1 Co 0.24228(3) 0.82004(2) 0.80418(2)
O12 O 0.0295(3) 0.97366(16) 0.4498(2)
O17 O 0.2564(2) 0.70655(16) 0.96574(16)
O20 O 0.0984(2) 0.83600(16) 0.47986(14)
N1 N 0.3427(2) 0.88688(14) 0.86414(14)
N2 N 0.1556(2) 0.90073(15) 0.77668(14)
N3 N 0.3346(2) 0.74144(14) 0.83746(15)
N4 N 0.2143(2) 0.79098(14) 0.88059(15)
C1 C 0.4408(3) 0.8743(2) 0.90793(18)
H1 H 0.4622 0.8286 0.9204
C2 C 0.5107(3) 0.9272(2) 0.9350(2)
H2 H 0.5785 0.9173 0.9651
C3 C 0.4791(3) 0.9946(2) 0.9171(2)
C5 C 0.3110(3) 0.95312(18) 0.84932(18)
C6 C 0.2000(3) 0.96133(18) 0.80107(19)
C7 C 0.0500(3) 0.89727(18) 0.72957(18)
C8 C 0.0144(3) 0.88332(18) 0.65825(18)
H5 H 0.0593 0.8840 0.6398
H7 H 0.0035 0.9170 0.8020
C15 C 0.3983(3) 0.72014(18) 0.8135(2)
H8 H 0.3978 0.7434 0.7752
C16 C 0.4634(4) 0.6659(2) 0.8430(3)
H9 H 0.5073 0.6529 0.8258
C17 C 0.4627(5) 0.6308(3) 0.8988(4)
H10 H 0.5071 0.5941 0.9205
C18 C 0.3954(5) 0.6508(3) 0.9223(3)
H11 H 0.3924 0.6267 0.9589
C19 C 0.3333(3) 0.70656(19) 0.8912(2)
C20 C 0.2626(3) 0.73499(19) 0.91531(19)
C21 C 0.1534(3) 0.82519(17) 0.90670(17)
C22 C 0.1884(3) 0.88549(18) 0.94624(18)
H12 H 0.2489 0.9050 0.9529
C23 C 0.1345(3) 0.91732(17) 0.97629(17)
C24 C 0.0432(3) 0.88925(17) 0.96494(17)
H13 H 0.0064 0.9106 0.9843
C25 C 0.0066(2) 0.82906(16) 0.92448(17)
C26 C 0.0615(3) 0.79709(16) 0.89582(17)
H14 H 0.0371 0.7566 0.8692
N7 N 0.1429(2) 0.75760(15) 0.73440(15)
N8 N 0.2721(2) 0.83920(14) 0.72723(14)
H25 H 0.0374507 0.989623 0.49634
H26 H 0.0367333 0.876562 0.340153
H30 H 0.146994 0.868534 0.476134
H31 H 0.115594 0.830609 0.530538
O2 O 0.6462(2) 0.00491(14) 0.78768(17)
O8 O 0.1788(2) 0.07945(15) 0.63137(17)
O9 O 0.3183(2) 0.12969(13) 0.64344(16)
C37 C 0.4334(3) 0.01377(17) 0.71900(18)
H20 H 0.4689 0.0527 0.7175
C40 C 0.3291(3) 0.01531(17) 0.68584(18)
C41 C 0.2705(3) 0.07970(18) 0.65023(18)
Zn5 Zn 0.04300(3) 0.12570(2) 0.57543(2)
Zn7 Zn 0.24981(3) 0.21938(2) 0.60348(2)
O21 O 0.8583(2) 0.00517(14) 0.93582(14)
H24 H 0.987652 0.00768704 0.412356
Zn1 Zn 0.78771(3) 0.93170(2) 0.86787(2)
Zn2 Zn 0.95700(3) 0.87430(2) 0.42457(2)
Zn3 Zn 0.75019(3) 0.78062(2) 0.39652(2)
O3 O 0.64427(17) 0.90253(12) 0.83128(13)
O5 O 0.8436(2) 0.92589(16) 0.80180(14)
O6 O 0.84510(18) 0.83788(13) 0.91950(14)
O10 O 0.7306(3) 0.8596(2) 0.71756(18)
O11 O 0.9649(3) 0.8738(2) 0.32946(16)
O13 O 0.6471(2) 0.71884(14) 0.40425(17)
O14 O 0.6837(2) 0.74601(17) 0.28640(16)
O15 O 0.8080(2) 0.81307(14) 0.50253(13)
O16 O 0.9433(2) 0.87257(14) 0.51531(13)
O18 O 0.89042(18) 0.73448(12) 0.90198(13)
O19 O 0.2264(2) 0.80879(16) 0.61265(14)
C9 C 0.9137(3) 0.86834(17) 0.61375(18)
C10 C 0.8461(3) 0.86919(19) 0.64113(18)
H6 H 0.7789 0.8566 0.6126
C11 C 0.8797(3) 0.88906(19) 0.71164(19)
C12 C 0.9813(3) 0.90328(18) 0.75516(18)
C13 C 0.8845(3) 0.84973(18) 0.53709(18)
C14 C 0.8104(3) 0.8914(2) 0.74463(19)
C27 C 0.9087(2) 0.79929(18) 0.91460(17)
C28 C 0.0721(3) 0.7200(2) 0.7399(2)
H15 H 0.0683 0.7217 0.7821
C29 C 0.0047(4) 0.6790(3) 0.6854(3)
C30 C 0.0110(4) 0.6749(3) 0.6232(3)
C31 C 0.0849(4) 0.7121(3) 0.6177(2)
H18 H 0.0919 0.7093 0.5768
C32 C 0.1480(3) 0.75328(19) 0.67329(19)
C33 C 0.2207(3) 0.80313(19) 0.66856(18)
C34 C 0.3286(2) 0.89770(17) 0.72327(17)
C35 C 0.4329(2) 0.89633(17) 0.75659(17)
H19 H 0.4676 0.8565 0.7803
C36 C 0.4854(2) 0.95458(17) 0.75452(18)
C38 C 0.2770(3) 0.95674(17) 0.68767(18)
H21 H 0.2067 0.9571 0.6648
C39 C 0.5991(3) 0.95498(18) 0.79275(19)
Zn6 Zn 0.95700(3) 0.62570(2) 0.92457(2)
Zn8 Zn 0.75019(3) 0.71938(2) 0.89652(2)
O22 O 0.8212(2) 0.92055(15) 0.36863(17)
O23 O 0.6817(2) 0.87031(13) 0.35656(16)
O24 O 0.89042(18) 0.76552(12) 0.40198(13)
H22 H 0.657018 0.670005 0.393706
H23 H 0.655634 0.721701 0.453158
H27 H 0.934415 0.83019 0.303024
H28 H 0.611096 0.759126 0.261045
H29 H 0.719574 0.768454 0.262924
Zn2_2 Zn 0.04300(3) 0.37430(2) 0.07543(2)
Zn3_2 Zn 0.24981(3) 0.28062(2) 0.10348(2)
O11_2 O 0.0351(3) 0.3738(2) 0.17054(16)
O13_2 O 0.3529(2) 0.21884(14) 0.09575(17)
O14_2 O 0.3163(2) 0.24601(17) 0.21360(16)
O22_2 O 0.1788(2) 0.42055(15) 0.13137(17)
O23_2 O 0.3183(2) 0.37031(13) 0.14344(16)
O24_2 O 0.10958(18) 0.26552(12) 0.09802(13)
H22_2 H 0.342982 0.170005 0.106294
H23_2 H 0.344366 0.221701 0.0468416
H24_2 H 0.0123484 0.507687 0.0876442
H27_2 H 0.0655846 0.33019 0.196976
H28_2 H 0.388904 0.259126 0.238955
H29_2 H 0.280426 0.268454 0.237076
Zn1_2 Zn 0.21229(3) 0.43170(2) 0.63213(2)
O2_2 O 0.3538(2) 0.50491(14) 0.71232(17)
O3_2 O 0.35573(17) 0.40253(12) 0.66872(13)
O5_2 O 0.1564(2) 0.42589(16) 0.69820(14)
O6_2 O 0.15490(18) 0.33788(13) 0.58050(14)
O8_2 O 0.8212(2) 0.57945(15) 0.86863(17)
O9_2 O 0.6817(2) 0.62969(13) 0.85656(16)
O10_2 O 0.2694(3) 0.3596(2) 0.78244(18)
O15_2 O 0.1920(2) 0.31307(14) 0.99747(13)
O16_2 O 0.0567(2) 0.37257(14) 0.98469(13)
O18_2 O 0.10958(18) 0.23448(12) 0.59802(13)
O19_2 O 0.7736(2) 0.30879(16) 0.88735(14)
N5 N 0.8571(2) 0.25760(15) 0.76560(15)
N6 N 0.7279(2) 0.33920(14) 0.77277(14)
C9_2 C 0.0863(3) 0.36834(17) 0.88625(18)
C10_2 C 0.1539(3) 0.36919(19) 0.85887(18)
H6_2 H 0.2211 0.3566 0.8874
C11_2 C 0.1203(3) 0.38906(19) 0.78836(19)
C12_2 C 0.0187(3) 0.40328(18) 0.74484(18)
C13_2 C 0.1155(3) 0.34973(18) 0.96291(18)
C14_2 C 0.1896(3) 0.3914(2) 0.75537(19)
C27_2 C 0.0913(2) 0.29929(18) 0.58540(17)
C28_2 C 0.9279(3) 0.2200(2) 0.7601(2)
H15_2 H 0.9317 0.2217 0.7179
C29_2 C 0.9953(4) 0.1790(3) 0.8146(3)
C30_2 C 0.9890(4) 0.1749(3) 0.8768(3)
C31_2 C 0.9151(4) 0.2121(3) 0.8823(2)
H18_2 H 0.9081 0.2093 0.9232
C32_2 C 0.8520(3) 0.25328(19) 0.82671(19)
C33_2 C 0.7793(3) 0.30313(19) 0.83144(18)
C34_2 C 0.6714(2) 0.39770(17) 0.77673(17)
C35_2 C 0.5671(2) 0.39633(17) 0.74341(17)
H19_2 H 0.5324 0.3565 0.7197
C36_2 C 0.5146(2) 0.45458(17) 0.74548(18)
C37_2 C 0.5666(3) 0.51377(17) 0.78100(18)
H20_2 H 0.5311 0.5527 0.7825
C38_2 C 0.7230(3) 0.45674(17) 0.81233(18)
H21_2 H 0.7933 0.4571 0.8352
C39_2 C 0.4009(3) 0.45498(18) 0.70725(19)
C40_2 C 0.6709(3) 0.51531(17) 0.81416(18)
C41_2 C 0.7295(3) 0.57970(18) 0.84977(18)
Co2 Co 0.75772(3) 0.32004(2) 0.69582(2)
O21_2 O 0.1417(2) 0.50517(14) 0.56418(14)
O1 O 0.8397(2) 0.51979(14) 0.71244(17)
O4_2 O 0.8583(2) 0.49483(14) 0.43582(14)
O7_2 O 0.7510(3) 0.51165(17) 0.47812(18)
O17_2 O 0.7436(2) 0.20655(16) 0.53426(16)
N1_2 N 0.6573(2) 0.38688(14) 0.63586(14)
N2_2 N 0.8444(2) 0.40073(15) 0.72332(14)
N3_2 N 0.6654(2) 0.24144(14) 0.66254(15)
N4_2 N 0.7857(2) 0.29098(14) 0.61941(15)
C1_2 C 0.5592(3) 0.3743(2) 0.59207(18)
H1_2 H 0.5378 0.3286 0.5796
C2_2 C 0.4893(3) 0.4272(2) 0.5650(2)
H2_2 H 0.4215 0.4173 0.5349
C3_2 C 0.5209(3) 0.4946(2) 0.5829(2)
H3 H 0.4743 0.5308 0.5669
C4 C 0.6225(3) 0.5085(2) 0.6249(2)
H4 H 0.6456 0.5540 0.6356
C5_2 C 0.6890(3) 0.45312(18) 0.65068(18)
C6_2 C 0.8000(3) 0.46133(18) 0.69893(19)
C7_2 C 0.9500(3) 0.39727(18) 0.77043(18)
C8_2 C 0.9856(3) 0.38332(18) 0.84175(18)
H5_2 H 0.9407 0.3840 0.8602
H7_2 H 0.9965 0.4170 0.6980
C15_2 C 0.6017(3) 0.22014(18) 0.6865(2)
H8_2 H 0.6022 0.2434 0.7248
C16_2 C 0.5366(4) 0.1659(2) 0.6570(3)
H9_2 H 0.4927 0.1529 0.6742
C17_2 C 0.5373(5) 0.1308(3) 0.6012(4)
H10_2 H 0.4929 0.0941 0.5795
C18_2 C 0.6046(5) 0.1508(3) 0.5777(3)
H11_2 H 0.6076 0.1267 0.5411
C19_2 C 0.6667(3) 0.20656(19) 0.6088(2)
C20_2 C 0.7374(3) 0.23499(19) 0.58469(19)
C21_2 C 0.8466(3) 0.32519(17) 0.59330(17)
C22_2 C 0.8116(3) 0.38549(18) 0.55376(18)
H12_2 H 0.7511 0.4050 0.5471
C23_2 C 0.8655(3) 0.41732(17) 0.52371(17)
C24_2 C 0.9568(3) 0.38925(17) 0.53506(17)
H13_2 H 0.9936 0.4106 0.5157
C25_2 C 0.9934(2) 0.32906(16) 0.57552(17)
C26_2 C 0.9385(3) 0.29709(16) 0.60418(17)
H14_2 H 0.9629 0.2566 0.6308
C42_2 C 0.8210(3) 0.47982(19) 0.4765(2)
Zn4_2 Zn 0.78771(3) 0.56830(2) 0.36787(2)
H31_2 H 0.884406 0.330609 0.969462
O3_3 O 0.35573(17) 0.09747(12) 0.16872(13)
O5_3 O 0.1564(2) 0.07411(16) 0.19820(14)
O6_3 O 0.15490(18) 0.16212(13) 0.08050(14)
O10_3 O 0.2694(3) 0.1404(2) 0.28244(18)
O11_3 O 0.0351(3) 0.1262(2) 0.67054(16)
O13_3 O 0.3529(2) 0.28116(14) 0.59575(17)
O14_3 O 0.3163(2) 0.25399(17) 0.71360(16)
O15_3 O 0.1920(2) 0.18693(14) 0.49747(13)
O16_3 O 0.0567(2) 0.12743(14) 0.48469(13)
O19_3 O 0.7736(2) 0.19121(16) 0.38735(14)
N5_2 N 0.8571(2) 0.24240(15) 0.26560(15)
N6_2 N 0.7279(2) 0.16080(14) 0.27277(14)
C9_3 C 0.0863(3) 0.13166(17) 0.38625(18)
C10_3 C 0.1539(3) 0.13081(19) 0.35887(18)
H6_3 H 0.2211 0.1434 0.3874
C11_3 C 0.1203(3) 0.11094(19) 0.28836(19)
C12_3 C 0.0187(3) 0.09672(18) 0.24484(18)
C13_3 C 0.1155(3) 0.15027(18) 0.46291(18)
C14_3 C 0.1896(3) 0.1086(2) 0.25537(19)
C27_3 C 0.0913(2) 0.20071(18) 0.08540(17)
C28_3 C 0.9279(3) 0.2800(2) 0.2601(2)
H15_3 H 0.9317 0.2783 0.2179
C29_3 C 0.9953(4) 0.3210(3) 0.3146(3)
C30_3 C 0.9890(4) 0.3251(3) 0.3768(3)
C31_3 C 0.9151(4) 0.2879(3) 0.3823(2)
H18_3 H 0.9081 0.2907 0.4232
C32_3 C 0.8520(3) 0.24672(19) 0.32671(19)
C33_3 C 0.7793(3) 0.19687(19) 0.33144(18)
C34_3 C 0.6714(2) 0.10230(17) 0.27673(17)
C35_3 C 0.5671(2) 0.10367(17) 0.24341(17)
H19_3 H 0.5324 0.1435 0.2197
C36_3 C 0.5146(2) 0.04542(17) 0.24548(18)
C38_3 C 0.7230(3) 0.04326(17) 0.31233(18)
H21_3 H 0.7933 0.0429 0.3352
C39_3 C 0.4009(3) 0.04502(18) 0.20725(19)
Co2_2 Co 0.75772(3) 0.17996(2) 0.19582(2)
H22_3 H 0.342982 0.329995 0.606294
H23_3 H 0.344366 0.278299 0.546842
H27_3 H 0.0655846 0.16981 0.696976
H28_3 H 0.388904 0.240874 0.738955
H29_3 H 0.280426 0.231546 0.737076
O2_3 O 0.3538(2) 0.99509(14) 0.21232(17)
C37_3 C 0.5666(3) 0.98623(17) 0.28100(18)
H20_3 H 0.5311 0.9473 0.2825
C40_3 C 0.6709(3) 0.98469(17) 0.31416(18)
C41_3 C 0.7295(3) 0.92030(18) 0.34977(18)
H24_3 H 0.0123484 0.992313 0.587644
O12_2 O 0.9705(3) 0.02634(16) 0.5502(2)
O17_3 O 0.7436(2) 0.29345(16) 0.03426(16)
O20_2 O 0.9016(2) 0.16400(16) 0.52014(14)
N1_3 N 0.6573(2) 0.11312(14) 0.13586(14)
N2_3 N 0.8444(2) 0.09927(15) 0.22332(14)
N3_3 N 0.6654(2) 0.25856(14) 0.16254(15)
N4_3 N 0.7857(2) 0.20902(14) 0.11941(15)
C1_3 C 0.5592(3) 0.1257(2) 0.09207(18)
H1_3 H 0.5378 0.1714 0.0796
C2_3 C 0.4893(3) 0.0728(2) 0.0650(2)
H2_3 H 0.4215 0.0827 0.0349
C3_3 C 0.5209(3) 0.0054(2) 0.0829(2)
C5_3 C 0.6890(3) 0.04688(18) 0.15068(18)
C6_3 C 0.8000(3) 0.03867(18) 0.19893(19)
C7_3 C 0.9500(3) 0.10273(18) 0.27043(18)
C8_3 C 0.9856(3) 0.11668(18) 0.34175(18)
H5_3 H 0.9407 0.1160 0.3602
H7_3 H 0.9965 0.0830 0.1980
C15_3 C 0.6017(3) 0.27986(18) 0.1865(2)
H8_3 H 0.6022 0.2566 0.2248
C16_3 C 0.5366(4) 0.3341(2) 0.1570(3)
H9_3 H 0.4927 0.3471 0.1742
C17_3 C 0.5373(5) 0.3692(3) 0.1012(4)
H10_3 H 0.4929 0.4059 0.0795
C18_3 C 0.6046(5) 0.3492(3) 0.0777(3)
H11_3 H 0.6076 0.3733 0.0411
C19_3 C 0.6667(3) 0.29344(19) 0.1088(2)
C20_3 C 0.7374(3) 0.26501(19) 0.08469(19)
C21_3 C 0.8466(3) 0.17481(17) 0.09330(17)
C22_3 C 0.8116(3) 0.11451(18) 0.05376(18)
H12_3 H 0.7511 0.0950 0.0471
C23_3 C 0.8655(3) 0.08268(17) 0.02371(17)
C24_3 C 0.9568(3) 0.11075(17) 0.03506(17)
H13_3 H 0.9936 0.0894 0.0157
C25_3 C 0.9934(2) 0.17094(16) 0.07552(17)
C26_3 C 0.9385(3) 0.20291(16) 0.10418(17)
H14_3 H 0.9629 0.2434 0.1308
H25_2 H 0.962549 0.0103771 0.50366
H26_2 H 0.963267 0.123438 0.659847
H30_2 H 0.853006 0.131466 0.523866
H31_3 H 0.884406 0.169391 0.469462
C42_3 C 0.8210(3) 0.02018(19) 0.9765(2)
O7_3 O 0.7510(3) 0.98835(17) 0.97812(18)
Co1_2 Co 0.24228(3) 0.67996(2) 0.30418(2)
O1_2 O 0.1603(2) 0.48021(14) 0.28756(17)
O7_4 O 0.2490(3) 0.48835(17) 0.52188(18)
O17_4 O 0.2564(2) 0.79345(16) 0.46574(16)
N1_4 N 0.3427(2) 0.61312(14) 0.36414(14)
N2_4 N 0.1556(2) 0.59927(15) 0.27668(14)
N3_4 N 0.3346(2) 0.75856(14) 0.33746(15)
N4_4 N 0.2143(2) 0.70902(14) 0.38059(15)
C1_4 C 0.4408(3) 0.6257(2) 0.40793(18)
H1_4 H 0.4622 0.6714 0.4204
C2_4 C 0.5107(3) 0.5728(2) 0.4350(2)
H2_4 H 0.5785 0.5827 0.4651
C3_4 C 0.4791(3) 0.5054(2) 0.4171(2)
H3_2 H 0.5257 0.4692 0.4331
C4_2 C 0.3775(3) 0.4915(2) 0.3751(2)
H4_2 H 0.3544 0.4460 0.3644
C5_4 C 0.3110(3) 0.54688(18) 0.34932(18)
C6_4 C 0.2000(3) 0.53867(18) 0.30107(19)
C7_4 C 0.0500(3) 0.60273(18) 0.22957(18)
C8_4 C 0.0144(3) 0.61668(18) 0.15825(18)
H5_4 H 0.0593 0.6160 0.1398
H7_4 H 0.0035 0.5830 0.3020
C15_4 C 0.3983(3) 0.77986(18) 0.3135(2)
H8_4 H 0.3978 0.7566 0.2752
C16_4 C 0.4634(4) 0.8341(2) 0.3430(3)
H9_4 H 0.5073 0.8471 0.3258
C17_4 C 0.4627(5) 0.8692(3) 0.3988(4)
H10_4 H 0.5071 0.9059 0.4205
C18_4 C 0.3954(5) 0.8492(3) 0.4223(3)
H11_4 H 0.3924 0.8733 0.4589
C19_4 C 0.3333(3) 0.79344(19) 0.3912(2)
C20_4 C 0.2626(3) 0.76501(19) 0.41531(19)
C21_4 C 0.1534(3) 0.67481(17) 0.40670(17)
C22_4 C 0.1884(3) 0.61451(18) 0.44624(18)
H12_4 H 0.2489 0.5950 0.4529
C23_4 C 0.1345(3) 0.58268(17) 0.47629(17)
C24_4 C 0.0432(3) 0.61075(17) 0.46494(17)
H13_4 H 0.0064 0.5894 0.4843
C25_4 C 0.0066(2) 0.67094(16) 0.42448(17)
C26_4 C 0.0615(3) 0.70291(16) 0.39582(17)
H14_4 H 0.0371 0.7434 0.3692
C42_4 C 0.1790(3) 0.52018(19) 0.5235(2)
N7_2 N 0.1429(2) 0.74240(15) 0.23440(15)
N8_2 N 0.2721(2) 0.66080(14) 0.22723(14)
H31_4 H 0.115594 0.669391 0.0305377
O2_4 O 0.6462(2) 0.49509(14) 0.28768(17)
O3_4 O 0.64427(17) 0.59747(12) 0.33128(13)
O5_4 O 0.8436(2) 0.57411(16) 0.30180(14)
O6_4 O 0.84510(18) 0.66212(13) 0.41950(14)
O10_4 O 0.7306(3) 0.6404(2) 0.21756(18)
O15_4 O 0.8080(2) 0.68693(14) 0.00253(13)
O16_4 O 0.9433(2) 0.62743(14) 0.01531(13)
O19_4 O 0.2264(2) 0.69121(16) 0.11265(14)
C9_4 C 0.9137(3) 0.63166(17) 0.11375(18)
C10_4 C 0.8461(3) 0.63081(19) 0.14113(18)
H6_4 H 0.7789 0.6434 0.1126
C11_4 C 0.8797(3) 0.61094(19) 0.21164(19)
C12_4 C 0.9813(3) 0.59672(18) 0.25516(18)
C13_4 C 0.8845(3) 0.65027(18) 0.03709(18)
C14_4 C 0.8104(3) 0.6086(2) 0.24463(19)
C27_4 C 0.9087(2) 0.70071(18) 0.41460(17)
C28_4 C 0.0721(3) 0.7800(2) 0.2399(2)
H15_4 H 0.0683 0.7783 0.2821
C29_4 C 0.0047(4) 0.8210(3) 0.1854(3)
C30_4 C 0.0110(4) 0.8251(3) 0.1232(3)
C31_4 C 0.0849(4) 0.7879(3) 0.1177(2)
H18_4 H 0.0919 0.7907 0.0768
C32_4 C 0.1480(3) 0.74672(19) 0.17329(19)
C33_4 C 0.2207(3) 0.69687(19) 0.16856(18)
C34_4 C 0.3286(2) 0.60230(17) 0.22327(17)
C35_4 C 0.4329(2) 0.60367(17) 0.25659(17)
H19_4 H 0.4676 0.6435 0.2803
C36_4 C 0.4854(2) 0.54542(17) 0.25452(18)
C37_4 C 0.4334(3) 0.48623(17) 0.21900(18)
H20_4 H 0.4689 0.4473 0.2175
C38_4 C 0.2770(3) 0.54326(17) 0.18767(18)
H21_4 H 0.2067 0.5429 0.1648
C39_4 C 0.5991(3) 0.54502(18) 0.29275(19)
C40_4 C 0.3291(3) 0.48469(17) 0.18584(18)
C41_4 C 0.2705(3) 0.42030(18) 0.15023(18)
O11_4 O 0.9649(3) 0.6262(2) 0.82946(16)
O13_4 O 0.6471(2) 0.78116(14) 0.90425(17)
O14_4 O 0.6837(2) 0.75399(17) 0.78640(16)
H22_4 H 0.657018 0.829995 0.893706
H23_4 H 0.655634 0.778299 0.953158
H24_4 H 0.987652 0.492313 0.912356
H27_4 H 0.934415 0.66981 0.803024
H28_4 H 0.611096 0.740874 0.761045
H29_4 H 0.719574 0.731546 0.762924
O1_3 O 0.1603(2) 0.01979(14) 0.78756(17)
H3_3 H 0.5257 0.0308 0.9331
C4_3 C 0.3775(3) 0.0085(2) 0.8751(2)
H4_3 H 0.3544 0.0540 0.8644
H16 H 0.9554 0.6541 0.6904
H17 H 0.9659 0.6475 0.5857
H16_2 H 0.0446 0.1541 0.8096
H17_2 H 0.0341 0.1475 0.9143
O12_3 O 0.9705(3) 0.47366(16) 0.0502(2)
O20_3 O 0.9016(2) 0.33600(16) 0.02014(14)
H25_3 H 0.962549 0.489623 0.00366041
H26_3 H 0.963267 0.376562 0.159847
H30_3 H 0.853006 0.368534 0.0238663
H16_3 H 0.0446 0.3459 0.3096
H17_3 H 0.0341 0.3525 0.4143
O1_4 O 0.8397(2) 0.98021(14) 0.21244(17)
H3_4 H 0.4743 0.9692 0.0669
C4_4 C 0.6225(3) 0.9915(2) 0.1249(2)
H4_4 H 0.6456 0.9460 0.1356
O12_4 O 0.0295(3) 0.52634(16) 0.9498(2)
O20_4 O 0.0984(2) 0.66400(16) 0.97986(14)
H25_4 H 0.0374507 0.510377 0.99634
H26_4 H 0.0367333 0.623438 0.840153
H30_4 H 0.146994 0.631466 0.976134
H16_4 H 0.9554 0.8459 0.1904
H17_4 H 0.9659 0.8525 0.0857
loop_
_geom_bond_atom_site_label_1
_geom_bond_atom_site_label_2
_geom_bond_site_symmetry_1
_geom_bond_site_symmetry_2
O4 C42 1_555 1_555
Co1 N1 1_555 1_555
O17 C20 1_555 1_555
N1 C1 1_555 1_555
N2 Co1 1_555 1_555
N3 Co1 1_555 1_555
N4 Co1 1_555 1_555
C1 H1 1_555 1_555
C2 C1 1_555 1_555
H2 C2 1_555 1_555
C3 C2 1_555 1_555
C5 N1 1_555 1_555
C6 N2 1_555 1_555
C7 N2 1_555 1_555
C8 C7 1_555 1_555
H5 C8 1_555 1_555
C15 N3 1_555 1_555
H8 C15 1_555 1_555
C16 C15 1_555 1_555
H9 C16 1_555 1_555
C17 C16 1_555 1_555
H10 C17 1_555 1_555
C18 C17 1_555 1_555
H11 C18 1_555 1_555
C19 N3 1_555 1_555
C20 N4 1_555 1_555
C21 N4 1_555 1_555
C22 C21 1_555 1_555
H12 C22 1_555 1_555
C23 C22 1_555 1_555
C24 C23 1_555 1_555
H13 C24 1_555 1_555
C25 C24 1_555 1_555
C26 C21 1_555 1_555
H14 C26 1_555 1_555
N7 Co1 1_555 1_555
N8 Co1 1_555 1_555
C5 C6 1_555 1_555
C18 C19 1_555 1_555
C19 C20 1_555 1_555
C25 C26 1_555 1_555
O12 H25 1_555 1_555
O20 H30 1_555 1_555
O20 H31 1_555 1_555
O8 C41 1_555 1_555
O9 C41 1_555 1_555
H20 C37 1_555 1_555
C40 C37 1_555 1_555
C41 C40 1_555 1_555
Zn5 O8 1_555 1_555
Zn7 O9 1_555 1_555
Zn2 O11 1_555 1_555
Zn3 O13 1_555 1_555
O3 Zn1 1_555 1_555
O5 Zn1 1_555 1_555
O6 Zn1 1_555 1_555
O10 C14 1_555 1_555
O14 Zn3 1_555 1_555
O15 Zn3 1_555 1_555
O16 Zn2 1_555 1_555
O18 C27 1_555 1_555
O19 C33 1_555 1_555
N7 C28 1_555 1_555
N8 C33 1_555 1_555
C10 C9 1_555 1_555
H6 C10 1_555 1_555
C11 C10 1_555 1_555
C13 O15 1_555 1_555
C14 O5 1_555 1_555
C27 O6 1_555 1_555
C28 H15 1_555 1_555
C29 C28 1_555 1_555
C30 C29 1_555 1_555
C31 C30 1_555 1_555
H18 C31 1_555 1_555
C32 N7 1_555 1_555
C33 C32 1_555 1_555
C34 N8 1_555 1_555
C35 C34 1_555 1_555
H19 C35 1_555 1_555
C36 C35 1_555 1_555
C38 C34 1_555 1_555
H21 C38 1_555 1_555
C39 O3 1_555 1_555
Zn6 O18 1_555 1_555
Zn8 O18 1_555 1_555
O22 Zn2 1_555 1_555
O23 Zn3 1_555 1_555
O24 Zn2 1_555 1_555
Zn3 O24 1_555 1_555
O16 C13 1_555 1_555
C9 C13 1_555 1_555
C11 C12 1_555 1_555
C11 C14 1_555 1_555
C31 C32 1_555 1_555
C36 C39 1_555 1_555
O13 H22 1_555 1_555
O13 H23 1_555 1_555
O11 H27 1_555 1_555
O14 H28 1_555 1_555
O14 H29 1_555 1_555
Zn2_2 O11_2 1_555 1_555
Zn3_2 O13_2 1_555 1_555
O14_2 Zn3_2 1_555 1_555
O22_2 Zn2_2 1_555 1_555
O23_2 Zn3_2 1_555 1_555
O24_2 Zn2_2 1_555 1_555
Zn3_2 O24_2 1_555 1_555
O13_2 H22_2 1_555 1_555
O13_2 H23_2 1_555 1_555
O11_2 H27_2 1_555 1_555
O14_2 H28_2 1_555 1_555
O14_2 H29_2 1_555 1_555
Zn1_2 O2_2 1_555 1_555
O2_2 C39_2 1_555 1_555
O3_2 Zn1_2 1_555 1_555
O5_2 Zn1_2 1_555 1_555
O6_2 Zn1_2 1_555 1_555
O8_2 C41_2 1_555 1_555
O9_2 C41_2 1_555 1_555
O10_2 C14_2 1_555 1_555
O18_2 C27_2 1_555 1_555
O19_2 C33_2 1_555 1_555
N5 C28_2 1_555 1_555
N6 C33_2 1_555 1_555
C10_2 C9_2 1_555 1_555
H6_2 C10_2 1_555 1_555
C11_2 C10_2 1_555 1_555
C13_2 O15_2 1_555 1_555
C14_2 O5_2 1_555 1_555
C27_2 O6_2 1_555 1_555
C28_2 H15_2 1_555 1_555
C29_2 C28_2 1_555 1_555
C30_2 C29_2 1_555 1_555
C31_2 C30_2 1_555 1_555
H18_2 C31_2 1_555 1_555
C32_2 N5 1_555 1_555
C33_2 C32_2 1_555 1_555
C34_2 N6 1_555 1_555
C35_2 C34_2 1_555 1_555
H19_2 C35_2 1_555 1_555
C36_2 C35_2 1_555 1_555
C37_2 C36_2 1_555 1_555
H20_2 C37_2 1_555 1_555
C38_2 C34_2 1_555 1_555
H21_2 C38_2 1_555 1_555
C39_2 O3_2 1_555 1_555
C40_2 C37_2 1_555 1_555
C41_2 C40_2 1_555 1_555
Zn6 O8_2 1_555 1_555
Zn5 O18_2 1_555 1_555
Zn8 O9_2 1_555 1_555
Zn7 O18_2 1_555 1_555
Co2 N5 1_555 1_555
O21_2 Zn1_2 1_555 1_555
O16_2 C13_2 1_555 1_555
N6 Co2 1_555 1_555
C9_2 C13_2 1_555 1_555
C11_2 C12_2 1_555 1_555
C11_2 C14_2 1_555 1_555
C31_2 C32_2 1_555 1_555
C36_2 C39_2 1_555 1_555
C38_2 C40_2 1_555 1_555
Co2 N1_2 1_555 1_555
O1 C6_2 1_555 1_555
O4_2 C42_2 1_555 1_555
O7_2 C42_2 1_555 1_555
O17_2 C20_2 1_555 1_555
N1_2 C1_2 1_555 1_555
N2_2 Co2 1_555 1_555
N3_2 Co2 1_555 1_555
N4_2 Co2 1_555 1_555
C1_2 H1_2 1_555 1_555
C2_2 C1_2 1_555 1_555
H2_2 C2_2 1_555 1_555
C3_2 C2_2 1_555 1_555
H3 C3_2 1_555 1_555
C4 C3_2 1_555 1_555
H4 C4 1_555 1_555
C5_2 N1_2 1_555 1_555
C6_2 N2_2 1_555 1_555
C7_2 N2_2 1_555 1_555
C8_2 C7_2 1_555 1_555
H5_2 C8_2 1_555 1_555
C15_2 N3_2 1_555 1_555
H8_2 C15_2 1_555 1_555
C16_2 C15_2 1_555 1_555
H9_2 C16_2 1_555 1_555
C17_2 C16_2 1_555 1_555
H10_2 C17_2 1_555 1_555
C18_2 C17_2 1_555 1_555
H11_2 C18_2 1_555 1_555
C19_2 N3_2 1_555 1_555
C20_2 N4_2 1_555 1_555
C21_2 N4_2 1_555 1_555
C22_2 C21_2 1_555 1_555
H12_2 C22_2 1_555 1_555
C23_2 C22_2 1_555 1_555
C24_2 C23_2 1_555 1_555
H13_2 C24_2 1_555 1_555
C25_2 C24_2 1_555 1_555
C26_2 C21_2 1_555 1_555
H14_2 C26_2 1_555 1_555
C42_2 C23_2 1_555 1_555
Zn4_2 O4_2 1_555 1_555
C4 C5_2 1_555 1_555
C5_2 C6_2 1_555 1_555
C18_2 C19_2 1_555 1_555
C19_2 C20_2 1_555 1_555
C25_2 C26_2 1_555 1_555
Zn5 O11_3 1_555 1_555
Zn7 O13_3 1_555 1_555
O3_3 Zn4 1_555 1_555
O5_3 Zn4 1_555 1_555
O6_3 Zn4 1_555 1_555
O10_3 C14_3 1_555 1_555
O14_3 Zn7 1_555 1_555
O15_3 Zn7 1_555 1_555
O16_3 Zn5 1_555 1_555
O24_2 C27_3 1_555 1_555
O19_3 C33_3 1_555 1_555
N5_2 C28_3 1_555 1_555
N6_2 C33_3 1_555 1_555
C10_3 C9_3 1_555 1_555
H6_3 C10_3 1_555 1_555
C11_3 C10_3 1_555 1_555
C13_3 O15_3 1_555 1_555
C14_3 O5_3 1_555 1_555
C27_3 O6_3 1_555 1_555
C28_3 H15_3 1_555 1_555
C29_3 C28_3 1_555 1_555
C30_3 C29_3 1_555 1_555
C31_3 C30_3 1_555 1_555
H18_3 C31_3 1_555 1_555
C32_3 N5_2 1_555 1_555
C33_3 C32_3 1_555 1_555
C34_3 N6_2 1_555 1_555
C35_3 C34_3 1_555 1_555
H19_3 C35_3 1_555 1_555
C36_3 C35_3 1_555 1_555
C38_3 C34_3 1_555 1_555
H21_3 C38_3 1_555 1_555
C39_3 O3_3 1_555 1_555
Co2_2 N5_2 1_555 1_555
O16_3 C13_3 1_555 1_555
N6_2 Co2_2 1_555 1_555
C9_3 C13_3 1_555 1_555
C11_3 C12_3 1_555 1_555
C11_3 C14_3 1_555 1_555
C31_3 C32_3 1_555 1_555
C36_3 C39_3 1_555 1_555
O13_3 H22_3 1_555 1_555
O13_3 H23_3 1_555 1_555
O11_3 H27_3 1_555 1_555
O14_3 H28_3 1_555 1_555
O14_3 H29_3 1_555 1_555
O22 C41_3 1_555 1_555
O23 C41_3 1_555 1_555
H20_3 C37_3 1_555 1_555
C40_3 C37_3 1_555 1_555
C41_3 C40_3 1_555 1_555
Co2_2 N1_3 1_555 1_555
O17_3 C20_3 1_555 1_555
N1_3 C1_3 1_555 1_555
N2_3 Co2_2 1_555 1_555
N3_3 Co2_2 1_555 1_555
N4_3 Co2_2 1_555 1_555
C1_3 H1_3 1_555 1_555
C2_3 C1_3 1_555 1_555
H2_3 C2_3 1_555 1_555
C3_3 C2_3 1_555 1_555
C5_3 N1_3 1_555 1_555
C6_3 N2_3 1_555 1_555
C7_3 N2_3 1_555 1_555
C8_3 C7_3 1_555 1_555
H5_3 C8_3 1_555 1_555
C15_3 N3_3 1_555 1_555
H8_3 C15_3 1_555 1_555
C16_3 C15_3 1_555 1_555
H9_3 C16_3 1_555 1_555
C17_3 C16_3 1_555 1_555
H10_3 C17_3 1_555 1_555
C18_3 C17_3 1_555 1_555
H11_3 C18_3 1_555 1_555
C19_3 N3_3 1_555 1_555
C20_3 N4_3 1_555 1_555
C21_3 N4_3 1_555 1_555
C22_3 C21_3 1_555 1_555
H12_3 C22_3 1_555 1_555
C23_3 C22_3 1_555 1_555
C24_3 C23_3 1_555 1_555
H13_3 C24_3 1_555 1_555
C25_3 C24_3 1_555 1_555
C26_3 C21_3 1_555 1_555
H14_3 C26_3 1_555 1_555
C5_3 C6_3 1_555 1_555
C18_3 C19_3 1_555 1_555
C19_3 C20_3 1_555 1_555
C25_3 C26_3 1_555 1_555
O12_2 H25_2 1_555 1_555
O20_2 H30_2 1_555 1_555
O20_2 H31_3 1_555 1_555
O21 C42_3 1_555 1_555
Co1_2 N1_4 1_555 1_555
O1_2 C6_4 1_555 1_555
O21_2 C42_4 1_555 1_555
O7_4 C42_4 1_555 1_555
O17_4 C20_4 1_555 1_555
N1_4 C1_4 1_555 1_555
N2_4 Co1_2 1_555 1_555
N3_4 Co1_2 1_555 1_555
N4_4 Co1_2 1_555 1_555
C1_4 H1_4 1_555 1_555
C2_4 C1_4 1_555 1_555
H2_4 C2_4 1_555 1_555
C3_4 C2_4 1_555 1_555
H3_2 C3_4 1_555 1_555
C4_2 C3_4 1_555 1_555
H4_2 C4_2 1_555 1_555
C5_4 N1_4 1_555 1_555
C6_4 N2_4 1_555 1_555
C7_4 N2_4 1_555 1_555
C8_4 C7_4 1_555 1_555
H5_4 C8_4 1_555 1_555
C15_4 N3_4 1_555 1_555
H8_4 C15_4 1_555 1_555
C16_4 C15_4 1_555 1_555
H9_4 C16_4 1_555 1_555
C17_4 C16_4 1_555 1_555
H10_4 C17_4 1_555 1_555
C18_4 C17_4 1_555 1_555
H11_4 C18_4 1_555 1_555
C19_4 N3_4 1_555 1_555
C20_4 N4_4 1_555 1_555
C21_4 N4_4 1_555 1_555
C22_4 C21_4 1_555 1_555
H12_4 C22_4 1_555 1_555
C23_4 C22_4 1_555 1_555
C24_4 C23_4 1_555 1_555
H13_4 C24_4 1_555 1_555
C25_4 C24_4 1_555 1_555
C26_4 C21_4 1_555 1_555
H14_4 C26_4 1_555 1_555
C42_4 C23_4 1_555 1_555
N7_2 Co1_2 1_555 1_555
N8_2 Co1_2 1_555 1_555
C4_2 C5_4 1_555 1_555
C5_4 C6_4 1_555 1_555
C18_4 C19_4 1_555 1_555
C19_4 C20_4 1_555 1_555
C25_4 C26_4 1_555 1_555
Zn4_2 O2_4 1_555 1_555
O2_4 C39_4 1_555 1_555
O3_4 Zn4_2 1_555 1_555
O5_4 Zn4_2 1_555 1_555
O6_4 Zn4_2 1_555 1_555
O22_2 C41_4 1_555 1_555
O23_2 C41_4 1_555 1_555
O10_4 C14_4 1_555 1_555
O24 C27_4 1_555 1_555
O19_4 C33_4 1_555 1_555
N7_2 C28_4 1_555 1_555
N8_2 C33_4 1_555 1_555
C10_4 C9_4 1_555 1_555
H6_4 C10_4 1_555 1_555
C11_4 C10_4 1_555 1_555
C13_4 O15_4 1_555 1_555
C14_4 O5_4 1_555 1_555
C27_4 O6_4 1_555 1_555
C28_4 H15_4 1_555 1_555
C29_4 C28_4 1_555 1_555
C30_4 C29_4 1_555 1_555
C31_4 C30_4 1_555 1_555
H18_4 C31_4 1_555 1_555
C32_4 N7_2 1_555 1_555
C33_4 C32_4 1_555 1_555
C34_4 N8_2 1_555 1_555
C35_4 C34_4 1_555 1_555
H19_4 C35_4 1_555 1_555
C36_4 C35_4 1_555 1_555
C37_4 C36_4 1_555 1_555
H20_4 C37_4 1_555 1_555
C38_4 C34_4 1_555 1_555
H21_4 C38_4 1_555 1_555
C39_4 O3_4 1_555 1_555
C40_4 C37_4 1_555 1_555
C41_4 C40_4 1_555 1_555
O16_4 C13_4 1_555 1_555
C9_4 C13_4 1_555 1_555
C11_4 C12_4 1_555 1_555
C11_4 C14_4 1_555 1_555
C31_4 C32_4 1_555 1_555
C36_4 C39_4 1_555 1_555
C38_4 C40_4 1_555 1_555
Zn6 O11_4 1_555 1_555
Zn8 O13_4 1_555 1_555
O14_4 Zn8 1_555 1_555
O13_4 H22_4 1_555 1_555
O13_4 H23_4 1_555 1_555
O11_4 H27_4 1_555 1_555
O14_4 H28_4 1_555 1_555
O14_4 H29_4 1_555 1_555
H4_3 C4_3 1_555 1_555
O12_3 H25_3 1_555 1_555
O20_3 H30_3 1_555 1_555
H4_4 C4_4 1_555 1_555
O12_4 H25_4 1_555 1_555
O20_4 H30_4 1_555 1_555

#END
