
###############################################################################
#
# This file contains modified crystal structure data generated from the
# MOF subset of the Cambridge Structural Database (CSD) v543 
# hosted by the Cambridge Crystallographic Data Centre (CCDC).
#
# This work is licensed under the Creative Commons
# Attribution-NonCommercial-ShareAlike 4.0 International License.
# To view a copy of this license, visit
# http://creativecommons.org/licenses/by-nc-sa/4.0/
# or send a letter to
# Creative Commons, PO Box 1866, Mountain View, CA 94042, USA.
#
# CIF created using the CSD Python API on 29 September 2022
# The structure has been converted into the P1 space group
# The structure has a 3D framework
# The original CSD entry KUVLOE is in the monoclinic crystal system
# The framework has been calculated to contain at least 10.0% void space
# The void calculation uses a probe of radius 1.32A, grid spacing 0.4
#
###############################################################################

data_KUVLOE
_chemical_formula_moiety         '(C96 H68 Cd4 N12 O20)n'
_symmetry_cell_setting           triclinic
_symmetry_space_group_name_H-M   'P 1'
_symmetry_Int_Tables_number      1
_space_group_name_Hall           'P 1'
loop_
_symmetry_equiv_pos_site_id
_symmetry_equiv_pos_as_xyz
1 x,y,z
_cell_length_a                   10.010(5)
_cell_length_b                   14.104(5)
_cell_length_c                   18.255(5)
_cell_angle_alpha                90
_cell_angle_beta                 95.281(5)
_cell_angle_gamma                90
_cell_volume                     2566.32
loop_
_atom_site_label
_atom_site_type_symbol
_atom_site_fract_x
_atom_site_fract_y
_atom_site_fract_z
O6 O 0.6318(7) 0.6917(6) 0.7959(5)
O7 O 0.2839(6) 0.6582(5) 0.7516(4)
O9 O 0.0286(8) 0.6144(6) 0.6997(4)
C32 C 0.3965(10) 0.6880(7) 0.7912(6)
C33 C 0.0422(10) 0.6660(8) 0.7524(6)
C40 C 0.3672(12) 0.7384(10) 0.8488(7)
H28 H 0.4277 0.7652 0.8847
C41 C 0.1797(10) 0.6915(8) 0.7847(6)
C42 C 0.5252(10) 0.6604(8) 0.7631(6)
C45 C 0.2259(12) 0.7432(9) 0.8450(7)
H31 H 0.1746 0.7752 0.8770
H34 H 0.0015 0.1243 0.4011
O10 O 0.5219(8) 0.6077(5) 0.7069(4)
Cd5 Cd 0.77687(7) 0.62440(5) 0.71331(4)
C24 C 0.4623(15) 0.9989(9) 0.4683(7)
H17 H 0.4513 0.9406 0.4447
N4 N 0.7270(10) 0.7620(6) 0.6424(5)
C25 C 0.6057(14) 0.9188(8) 0.5681(6)
C26 C 0.6228(14) 0.8327(8) 0.5336(6)
H18 H 0.5925 0.8258 0.4841
C27 C 0.6832(12) 0.7578(8) 0.5706(6)
H19 H 0.6944 0.7016 0.5452
C28 C 0.6607(14) 0.9250(8) 0.6400(7)
H20 H 0.6606 0.9829 0.6645
C29 C 0.7150(13) 0.8476(7) 0.6755(6)
H21 H 0.7456 0.8533 0.7250
O8 O 0.9474(7) 0.7004(6) 0.7838(4)
N5 N 0.7960(10) 0.0117(7) 0.2890(5)
N6 N 0.7581(9) 0.5253(6) 0.6103(5)
C31 C 0.8614(11) 0.4240(8) 0.5279(6)
H23 H 0.9400 0.4032 0.5096
C34 C 0.6393(11) 0.4902(7) 0.5840(6)
H24 H 0.5626 0.5126 0.6034
C35 C 0.8091(12) 0.1687(8) 0.3834(6)
C36 C 0.6250(12) 0.4222(8) 0.5294(6)
H25 H 0.5403 0.4006 0.5117
C37 C 0.7410(11) 0.3859(7) 0.5006(5)
C38 C 0.7258(12) 0.3075(7) 0.4471(6)
H26 H 0.6424 0.2988 0.4211
C39 C 0.8682(11) 0.4916(8) 0.5810(6)
H27 H 0.9518 0.5156 0.5981
C43 C 0.8236(12) 0.2490(8) 0.4339(6)
H29 H 0.9078 0.2597 0.4586
C44 C 0.6944(12) 0.1441(7) 0.3429(6)
H30 H 0.6167 0.1794 0.3461
C46 C 0.6929(13) 0.0662(8) 0.2967(6)
H32 H 0.6127 0.0517 0.2692
C47 C 0.9077(15) 0.0372(12) 0.3281(10)
H33 H 0.9842 0.0012 0.3231
C48 C 0.9196(15) 0.1114(11) 0.3748(10)
N7 N 0.7960(10) 0.4883(7) 0.7890(5)
C1 C 0.8614(11) 0.0760(8) 0.0279(6)
H1 H 0.9400 0.0968 0.0096
C4 C 0.6393(11) 0.0098(7) 0.0840(6)
C8 C 0.6250(12) 0.0778(8) 0.0294(6)
H4 H 0.5403 0.0994 0.0117
C9 C 0.7410(11) 0.1141(7) 0.0006(5)
C12 C 0.8682(11) 0.0084(8) 0.0810(6)
C5 C 0.8091(12) 0.3313(8) 0.8834(6)
C10 C 0.7258(12) 0.1925(7) 0.9471(6)
H5 H 0.6424 0.2012 0.9211
C16 C 0.8236(12) 0.2510(8) 0.9339(6)
H9 H 0.9078 0.2403 0.9586
C17 C 0.6944(12) 0.3559(7) 0.8429(6)
H10 H 0.6167 0.3206 0.8461
C21 C 0.6929(13) 0.4338(8) 0.7967(6)
H14 H 0.6127 0.4483 0.7692
C22 C 0.9077(15) 0.4628(12) 0.8281(10)
H15 H 0.9842 0.4988 0.8231
C23 C 0.9196(15) 0.3886(11) 0.8748(10)
Cd6 Cd 0.22313(7) 0.12440(5) 0.78669(4)
H3 H 0.5925 0.6742 0.9841
N4_2 N 0.2730(10) 0.2620(6) 0.8576(5)
C25_2 C 0.3943(14) 0.4188(8) 0.9319(6)
C26_2 C 0.3772(14) 0.3327(8) 0.9664(6)
C27_2 C 0.3168(12) 0.2578(8) 0.9294(6)
H19_2 H 0.3056 0.2016 0.9548
C28_2 C 0.3393(14) 0.4250(8) 0.8600(7)
H20_2 H 0.3394 0.4829 0.8355
C29_2 C 0.2850(13) 0.3476(7) 0.8245(6)
H21_2 H 0.2544 0.3533 0.7750
C30 C 0.4623(15) 0.5011(9) 0.9683(7)
H22 H 0.4513 0.5594 0.9447
O8_2 O 0.0526(7) 0.2004(6) 0.7162(4)
N6_2 N 0.2419(9) 0.0253(6) 0.8897(5)
H24_2 H 0.4374 0.0126 0.8966
H27_2 H 0.0482 0.0156 0.9019
O12 O 0.3682(7) 0.1917(6) 0.7041(5)
O14 O 0.4781(8) 0.1077(5) 0.7931(4)
O7_2 O 0.7161(6) 0.1582(5) 0.7484(4)
O9_2 O 0.9714(8) 0.1144(6) 0.8003(4)
C32_2 C 0.6035(10) 0.1880(7) 0.7088(6)
C33_2 C 0.9578(10) 0.1660(8) 0.7476(6)
C40_2 C 0.6328(12) 0.2384(10) 0.6512(7)
H28_2 H 0.5723 0.2652 0.6153
C41_2 C 0.8203(10) 0.1915(8) 0.7153(6)
C42_2 C 0.4748(10) 0.1604(8) 0.7369(6)
C45_2 C 0.7741(12) 0.2432(9) 0.6550(7)
H31_2 H 0.8254 0.2752 0.6230
Cd1 Cd 0.22313(7) 0.37560(5) 0.28669(4)
O3 O 0.0526(7) 0.2996(6) 0.2162(4)
N1 N 0.2040(10) 0.9883(7) 0.7110(5)
N2 N 0.2730(10) 0.2380(6) 0.3576(5)
N3 N 0.2419(9) 0.4747(6) 0.3897(5)
C1_2 C 0.1386(11) 0.5760(8) 0.4721(6)
H1_2 H 0.0600 0.5968 0.4904
C4_2 C 0.3607(11) 0.5098(7) 0.4160(6)
H2 H 0.4374 0.4874 0.3966
C5_2 C 0.1909(12) 0.8313(8) 0.6166(6)
C6 C 0.3943(14) 0.0812(8) 0.4319(6)
C7 C 0.3772(14) 0.1673(8) 0.4664(6)
H3_2 H 0.4075 0.1742 0.5159
C8_2 C 0.3750(12) 0.5778(8) 0.4706(6)
H4_2 H 0.4597 0.5994 0.4883
C9_2 C 0.2590(11) 0.6141(7) 0.4994(5)
C10_2 C 0.2742(12) 0.6925(7) 0.5529(6)
H5_2 H 0.3576 0.7012 0.5789
C11 C 0.3168(12) 0.2422(8) 0.4294(6)
H6 H 0.3056 0.2984 0.4548
C12_2 C 0.1318(11) 0.5084(8) 0.4190(6)
H7 H 0.0482 0.4844 0.4019
C16_2 C 0.1764(12) 0.7510(8) 0.5661(6)
H9_2 H 0.0922 0.7403 0.5414
C17_2 C 0.3056(12) 0.8559(7) 0.6571(6)
H10_2 H 0.3833 0.8206 0.6539
C18 C 0.3393(14) 0.0750(8) 0.3600(7)
H11 H 0.3394 0.0171 0.3355
C20 C 0.2850(13) 0.1524(7) 0.3245(6)
H13 H 0.2544 0.1467 0.2750
C21_2 C 0.3071(13) 0.9338(8) 0.7033(6)
H14_2 H 0.3873 0.9483 0.7308
C22_2 C 0.0923(15) 0.9628(12) 0.6719(10)
H15_2 H 0.0158 0.9988 0.6769
C23_2 C 0.0804(15) 0.8886(11) 0.6252(10)
C30_2 C 0.5377(15) 0.0011(9) 0.5317(7)
H22_2 H 0.5487 0.0594 0.5553
O11 O 0.3682(7) 0.3083(6) 0.2041(5)
N8 N 0.2040(10) 0.5117(7) 0.2110(5)
O13 O 0.4781(8) 0.3923(5) 0.2931(4)
O2 O 0.7161(6) 0.3418(5) 0.2484(4)
O4 O 0.9714(8) 0.3856(6) 0.3003(4)
C2 C 0.6035(10) 0.3120(7) 0.2088(6)
C3 C 0.9578(10) 0.3340(8) 0.2476(6)
C13 C 0.6328(12) 0.2616(10) 0.1512(7)
H8 H 0.5723 0.2348 0.1153
C14 C 0.8203(10) 0.3085(8) 0.2153(6)
C15 C 0.4748(10) 0.3396(8) 0.2369(6)
C19 C 0.7741(12) 0.2568(9) 0.1550(7)
H12 H 0.8254 0.2248 0.1230
H16 H 0.9985 0.8757 0.5989
C35_2 C 0.1909(12) 0.6687(8) 0.1166(6)
C38_2 C 0.2742(12) 0.8075(7) 0.0529(6)
H26_2 H 0.3576 0.7988 0.0789
C43_2 C 0.1764(12) 0.7490(8) 0.0661(6)
H29_2 H 0.0922 0.7597 0.0414
C44_2 C 0.3056(12) 0.6441(7) 0.1571(6)
H30_2 H 0.3833 0.6794 0.1539
C46_2 C 0.3071(13) 0.5662(8) 0.2033(6)
H32_2 H 0.3873 0.5517 0.2308
C47_2 C 0.0923(15) 0.5372(12) 0.1719(10)
H33_2 H 0.0158 0.5012 0.1769
C48_2 C 0.0804(15) 0.6114(11) 0.1252(10)
C31_2 C 0.1386(11) 0.9240(8) 0.9721(6)
H23_2 H 0.0600 0.9032 0.9904
C34_2 C 0.3607(11) 0.9902(7) 0.9160(6)
C36_2 C 0.3750(12) 0.9222(8) 0.9706(6)
H25_2 H 0.4597 0.9006 0.9883
C37_2 C 0.2590(11) 0.8859(7) 0.9994(5)
C39_2 C 0.1318(11) 0.9916(8) 0.9190(6)
Cd4 Cd 0.77687(7) 0.87560(5) 0.21331(4)
O1 O 0.6318(7) 0.8083(6) 0.2959(5)
O2_2 O 0.2839(6) 0.8418(5) 0.2516(4)
O4_2 O 0.0286(8) 0.8856(6) 0.1997(4)
C2_2 C 0.3965(10) 0.8120(7) 0.2912(6)
C3_2 C 0.0422(10) 0.8340(8) 0.2524(6)
C13_2 C 0.3672(12) 0.7616(10) 0.3488(7)
H8_2 H 0.4277 0.7348 0.3847
C14_2 C 0.1797(10) 0.8085(8) 0.2847(6)
C15_2 C 0.5252(10) 0.8396(8) 0.2631(6)
C19_2 C 0.2259(12) 0.7568(9) 0.3450(7)
H12_2 H 0.1746 0.7248 0.3770
O5 O 0.5219(8) 0.8923(5) 0.2069(4)
O3_2 O 0.9474(7) 0.7996(6) 0.2838(4)
N2_2 N 0.7270(10) 0.7380(6) 0.1424(5)
N3_2 N 0.7581(9) 0.9747(6) 0.1103(5)
H2_2 H 0.5626 0.9874 0.1034
C6_2 C 0.6057(14) 0.5812(8) 0.0681(6)
C7_2 C 0.6228(14) 0.6673(8) 0.0336(6)
C11_2 C 0.6832(12) 0.7422(8) 0.0706(6)
H6_2 H 0.6944 0.7984 0.0452
H7_2 H 0.9518 0.9844 0.0981
C18_2 C 0.6607(14) 0.5750(8) 0.1400(7)
H11_2 H 0.6606 0.5171 0.1645
C20_2 C 0.7150(13) 0.6524(7) 0.1755(6)
H13_2 H 0.7456 0.6467 0.2250
C24_2 C 0.5377(15) 0.4989(9) 0.0317(7)
H17_2 H 0.5487 0.4406 0.0553
H18_2 H 0.4075 0.3258 0.0159
H16_2 H 0.0015 0.3757 0.9011
H34_2 H 0.9985 0.6243 0.0989
loop_
_geom_bond_atom_site_label_1
_geom_bond_atom_site_label_2
_geom_bond_site_symmetry_1
_geom_bond_site_symmetry_2
O6 C42 1_555 1_555
O7 C32 1_555 1_555
C32 C40 1_555 1_555
C40 H28 1_555 1_555
C41 O7 1_555 1_555
C42 C32 1_555 1_555
C45 C40 1_555 1_555
H31 C45 1_555 1_555
O10 C42 1_555 1_555
Cd5 O6 1_555 1_555
O9 C33 1_555 1_555
C33 C41 1_555 1_555
C41 C45 1_555 1_555
O10 Cd5 1_555 1_555
H17 C24 1_555 1_555
N4 C27 1_555 1_555
C25 C26 1_555 1_555
C26 H18 1_555 1_555
C27 C26 1_555 1_555
H19 C27 1_555 1_555
C28 C25 1_555 1_555
H20 C28 1_555 1_555
C29 N4 1_555 1_555
H21 C29 1_555 1_555
Cd5 N4 1_555 1_555
O8 Cd5 1_555 1_555
N5 C46 1_555 1_555
N6 Cd5 1_555 1_555
C31 H23 1_555 1_555
C34 N6 1_555 1_555
H24 C34 1_555 1_555
C35 C43 1_555 1_555
C36 C34 1_555 1_555
H25 C36 1_555 1_555
C37 C31 1_555 1_555
C38 C37 1_555 1_555
H26 C38 1_555 1_555
C39 N6 1_555 1_555
H27 C39 1_555 1_555
C43 C38 1_555 1_555
H29 C43 1_555 1_555
C44 C35 1_555 1_555
H30 C44 1_555 1_555
C46 C44 1_555 1_555
H32 C46 1_555 1_555
C47 N5 1_555 1_555
H33 C47 1_555 1_555
C48 C35 1_555 1_555
N7 Cd5 1_555 1_555
C28 C29 1_555 1_555
C31 C39 1_555 1_555
C36 C37 1_555 1_555
C47 C48 1_555 1_555
C1 H1 1_555 1_555
C8 C4 1_555 1_555
H4 C8 1_555 1_555
C9 C1 1_555 1_555
C1 C12 1_555 1_555
C8 C9 1_555 1_555
N7 C21 1_555 1_555
C5 C16 1_555 1_555
H5 C10 1_555 1_555
C16 C10 1_555 1_555
H9 C16 1_555 1_555
C17 C5 1_555 1_555
H10 C17 1_555 1_555
C21 C17 1_555 1_555
H14 C21 1_555 1_555
C22 N7 1_555 1_555
H15 C22 1_555 1_555
C23 C5 1_555 1_555
C22 C23 1_555 1_555
N4_2 C27_2 1_555 1_555
C25_2 C26_2 1_555 1_555
C27_2 C26_2 1_555 1_555
H19_2 C27_2 1_555 1_555
C28_2 C25_2 1_555 1_555
H20_2 C28_2 1_555 1_555
C29_2 N4_2 1_555 1_555
H21_2 C29_2 1_555 1_555
H22 C30 1_555 1_555
Cd6 N4_2 1_555 1_555
O8_2 Cd6 1_555 1_555
N6_2 Cd6 1_555 1_555
O12 Cd6 1_555 1_555
O14 Cd6 1_555 1_555
C25_2 C30 1_555 1_555
C28_2 C29_2 1_555 1_555
O12 C42_2 1_555 1_555
O7_2 C32_2 1_555 1_555
C32_2 C40_2 1_555 1_555
C40_2 H28_2 1_555 1_555
C41_2 O7_2 1_555 1_555
C42_2 C32_2 1_555 1_555
C45_2 C40_2 1_555 1_555
H31_2 C45_2 1_555 1_555
O14 C42_2 1_555 1_555
O9_2 C33_2 1_555 1_555
C33_2 C41_2 1_555 1_555
C41_2 C45_2 1_555 1_555
Cd1 O3 1_555 1_555
N1 C21_2 1_555 1_555
N2 Cd1 1_555 1_555
N3 Cd1 1_555 1_555
C1_2 H1_2 1_555 1_555
C4_2 N3 1_555 1_555
H2 C4_2 1_555 1_555
C5_2 C16_2 1_555 1_555
C6 C7 1_555 1_555
C7 H3_2 1_555 1_555
C8_2 C4_2 1_555 1_555
H4_2 C8_2 1_555 1_555
C9_2 C1_2 1_555 1_555
C10_2 C9_2 1_555 1_555
H5_2 C10_2 1_555 1_555
C11 N2 1_555 1_555
H6 C11 1_555 1_555
C12_2 N3 1_555 1_555
H7 C12_2 1_555 1_555
C16_2 C10_2 1_555 1_555
H9_2 C16_2 1_555 1_555
C17_2 C5_2 1_555 1_555
H10_2 C17_2 1_555 1_555
C18 C6 1_555 1_555
H11 C18 1_555 1_555
C20 N2 1_555 1_555
H13 C20 1_555 1_555
C21_2 C17_2 1_555 1_555
H14_2 C21_2 1_555 1_555
C22_2 N1 1_555 1_555
H15_2 C22_2 1_555 1_555
C23_2 C5_2 1_555 1_555
H22_2 C30_2 1_555 1_555
O11 Cd1 1_555 1_555
N8 Cd1 1_555 1_555
O13 Cd1 1_555 1_555
C1_2 C12_2 1_555 1_555
C7 C11 1_555 1_555
C8_2 C9_2 1_555 1_555
C18 C20 1_555 1_555
C22_2 C23_2 1_555 1_555
O11 C15 1_555 1_555
O2 C2 1_555 1_555
C2 C13 1_555 1_555
C3 O4 1_555 1_555
C13 H8 1_555 1_555
C14 O2 1_555 1_555
C15 C2 1_555 1_555
C19 C13 1_555 1_555
H12 C19 1_555 1_555
O13 C15 1_555 1_555
C3 C14 1_555 1_555
C14 C19 1_555 1_555
N8 C46_2 1_555 1_555
C35_2 C43_2 1_555 1_555
H26_2 C38_2 1_555 1_555
C43_2 C38_2 1_555 1_555
H29_2 C43_2 1_555 1_555
C44_2 C35_2 1_555 1_555
H30_2 C44_2 1_555 1_555
C46_2 C44_2 1_555 1_555
H32_2 C46_2 1_555 1_555
C47_2 N8 1_555 1_555
H33_2 C47_2 1_555 1_555
C48_2 C35_2 1_555 1_555
C47_2 C48_2 1_555 1_555
C31_2 H23_2 1_555 1_555
C36_2 C34_2 1_555 1_555
H25_2 C36_2 1_555 1_555
C37_2 C31_2 1_555 1_555
C31_2 C39_2 1_555 1_555
C36_2 C37_2 1_555 1_555
O1 C15_2 1_555 1_555
O2_2 C2_2 1_555 1_555
C2_2 C13_2 1_555 1_555
C3_2 O4_2 1_555 1_555
C13_2 H8_2 1_555 1_555
C14_2 O2_2 1_555 1_555
C15_2 C2_2 1_555 1_555
C19_2 C13_2 1_555 1_555
H12_2 C19_2 1_555 1_555
O5 C15_2 1_555 1_555
Cd4 O1 1_555 1_555
C3_2 C14_2 1_555 1_555
C14_2 C19_2 1_555 1_555
O5 Cd4 1_555 1_555
Cd4 O3_2 1_555 1_555
N2_2 Cd4 1_555 1_555
N3_2 Cd4 1_555 1_555
C6_2 C7_2 1_555 1_555
C11_2 N2_2 1_555 1_555
H6_2 C11_2 1_555 1_555
C18_2 C6_2 1_555 1_555
H11_2 C18_2 1_555 1_555
C20_2 N2_2 1_555 1_555
H13_2 C20_2 1_555 1_555
C24_2 C6_2 1_555 1_555
H17_2 C24_2 1_555 1_555
C7_2 C11_2 1_555 1_555
C18_2 C20_2 1_555 1_555

#END
