
###############################################################################
#
# This file contains modified crystal structure data generated from the
# MOF subset of the Cambridge Structural Database (CSD) v543 
# hosted by the Cambridge Crystallographic Data Centre (CCDC).
#
# This work is licensed under the Creative Commons
# Attribution-NonCommercial-ShareAlike 4.0 International License.
# To view a copy of this license, visit
# http://creativecommons.org/licenses/by-nc-sa/4.0/
# or send a letter to
# Creative Commons, PO Box 1866, Mountain View, CA 94042, USA.
#
# CIF created using the CSD Python API on 29 September 2022
# The structure has been converted into the P1 space group
# The structure has a 3D framework
# The original CSD entry KUVMIZ is in the monoclinic crystal system
# The framework has been calculated to contain at least 10.0% void space
# The void calculation uses a probe of radius 1.32A, grid spacing 0.4
# The framework is charged, counterions have been retained in the structure
# H atom positions have been added when not included in the experimental data
#
###############################################################################

data_KUVMIZ
_chemical_formula_moiety         '(C416 H288 Cu8 N32 O16 Si8 16+)n'
_symmetry_cell_setting           triclinic
_symmetry_space_group_name_H-M   'P 1'
_symmetry_Int_Tables_number      1
_space_group_name_Hall           'P 1'
loop_
_symmetry_equiv_pos_site_id
_symmetry_equiv_pos_as_xyz
1 x,y,z
_cell_length_a                   27.104(8)
_cell_length_b                   31.278(9)
_cell_length_c                   34.900(10)
_cell_angle_alpha                90
_cell_angle_beta                 92.100(6)
_cell_angle_gamma                90
_cell_volume                     29566.9
loop_
_atom_site_label
_atom_site_type_symbol
_atom_site_fract_x
_atom_site_fract_y
_atom_site_fract_z
Cu1 Cu 0.14314(8) 0.25229(6) 0.82340(5)
O1 O 0.0712(4) 0.3066(3) 0.8176(3)
O2 O 0.2162(4) 0.2005(3) 0.8286(3)
C16 C 0.0116(2) 0.0482(3) 0.6370(3)
H10 H 0.0458 0.0434 0.6422
C20 C 0.0158(4) 0.1101(4) 0.6798(4)
N2 N 0.1112(4) 0.2142(3) 0.7827(3)
C21 C 0.0832(5) 0.2304(4) 0.7540(4)
H13 H 0.0803 0.2606 0.7525
C22 C 0.0583(5) 0.2067(4) 0.7263(4)
H14 H 0.0385 0.2197 0.7065
C23 C 0.0638(5) 0.1620(4) 0.7290(4)
C24 C 0.0933(5) 0.1435(4) 0.7586(4)
H15 H 0.0979 0.1135 0.7605
C25 C 0.1159(5) 0.1722(4) 0.7855(4)
H16 H 0.1352 0.1608 0.8063
C26 C 0.0363(5) 0.1335(4) 0.7016(4)
N5 N 0.1764(4) 0.2919(3) 0.8643(3)
N6 N 0.1776(4) 0.2860(4) 0.7808(3)
N7 N 0.1065(4) 0.2191(3) 0.8648(3)
H32 H 0.0693305 0.318605 0.791247
H33 H 0.0396824 0.291954 0.822943
H34 H 0.240213 0.210643 0.848767
H35 H 0.204174 0.171594 0.835421
H9 H 0.0012 0.9974 0.6010
H27 H 0.0156 0.8797 0.5431
C46 C 0.0111(5) 0.8738(4) 0.4690(4)
N4 N 0.1065(4) 0.7809(3) 0.3648(3)
C47 C 0.0587(5) 0.7845(4) 0.3612(4)
H29 H 0.0415 0.7715 0.3400
C48 C 0.0321(5) 0.8075(4) 0.3884(4)
C49 C 0.0601(5) 0.8259(4) 0.4191(4)
C50 C 0.1111(5) 0.8219(5) 0.4233(4)
C51 C 0.1339(5) 0.7977(4) 0.3943(4)
H31 H 0.1686 0.7932 0.3957
C52 C 0.0335(5) 0.8526(4) 0.4476(4)
Cu3 Cu 0.14314(8) 0.74771(6) 0.32340(5)
H36 H 0.132151 0.836296 0.447143
C1 C 0.8552(3) 0.0265(3) 0.5418(2)
C2 C 0.8059(4) 0.0164(3) 0.5343(3)
C3 C 0.7770(3) 0.0422(3) 0.5100(3)
H2 H 0.7433 0.0353 0.5048
C4 C 0.7975(3) 0.0780(3) 0.4932(3)
C5 C 0.8468(4) 0.0881(2) 0.5007(3)
H3 H 0.8608 0.1126 0.4893
C6 C 0.8757(3) 0.0623(3) 0.5250(3)
H4 H 0.9095 0.0692 0.5301
C7 C 0.7674(5) 0.1061(5) 0.4692(4)
N1 N 0.6764(4) 0.2081(3) 0.3643(3)
C8 C 0.7256(5) 0.2068(4) 0.3658(4)
H5 H 0.7434 0.2241 0.3488
C9 C 0.7517(5) 0.1803(4) 0.3920(4)
H6 H 0.7867 0.1782 0.3927
C10 C 0.7225(5) 0.1572(5) 0.4171(4)
C11 C 0.6716(5) 0.1600(5) 0.4161(4)
H7 H 0.6524 0.1439 0.4332
C12 C 0.6494(5) 0.1876(4) 0.3889(4)
H8 H 0.6147 0.1916 0.3882
C13 C 0.7461(6) 0.1292(5) 0.4472(5)
C14 C 0.9351(3) 0.0278(3) 0.6049(2)
C15 C 0.9851(3) 0.0209(3) 0.6125(3)
C17 C 0.9881(3) 0.0825(3) 0.6539(2)
C18 C 0.9380(3) 0.0894(2) 0.6463(3)
H11 H 0.9219 0.1128 0.6579
C19 C 0.9115(2) 0.0621(3) 0.6218(3)
H12 H 0.8773 0.0668 0.6166
H20 H 0.8506 0.0010 0.6471
Cu4 Cu 0.64314(8) 0.24771(6) 0.32340(5)
Si1 Si 0.89604(14) 0.99091(10) 0.57340(10)
H1 H 0.7919 0.9919 0.5457
C27 C 0.8593(3) 0.9562(3) 0.6054(3)
C28 C 0.8476(4) 0.9145(4) 0.5946(3)
H17 H 0.8589 0.9034 0.5711
C29 C 0.8193(4) 0.8892(3) 0.6180(3)
H18 H 0.8113 0.8607 0.6106
C30 C 0.8026(3) 0.9055(4) 0.6522(3)
C31 C 0.8143(4) 0.9471(4) 0.6631(3)
H19 H 0.8029 0.9583 0.6865
C32 C 0.8426(4) 0.9725(3) 0.6397(3)
C33 C 0.7728(6) 0.8801(5) 0.6780(4)
N3 N 0.6776(4) 0.7860(4) 0.7808(3)
C34 C 0.6732(5) 0.8282(4) 0.7811(4)
H21 H 0.6538 0.8417 0.7998
C35 C 0.6971(5) 0.8533(5) 0.7536(4)
H22 H 0.6942 0.8835 0.7532
C36 C 0.7253(6) 0.8317(5) 0.7271(4)
C37 C 0.7290(6) 0.7869(5) 0.7267(4)
H23 H 0.7479 0.7723 0.7083
C38 C 0.7031(5) 0.7646(4) 0.7551(4)
H24 H 0.7040 0.7342 0.7559
C39 C 0.7514(6) 0.8576(5) 0.6987(5)
C40 C 0.9342(3) 0.9567(3) 0.5417(3)
C41 C 0.9274(3) 0.9607(3) 0.5022(3)
H25 H 0.9050 0.9813 0.4917
C42 C 0.9535(4) 0.9344(4) 0.4779(2)
H26 H 0.9488 0.9371 0.4509
C43 C 0.9864(3) 0.9043(3) 0.4931(3)
C44 C 0.9932(3) 0.9003(3) 0.5327(3)
C45 C 0.9671(4) 0.9266(3) 0.5569(2)
H28 H 0.9718 0.9239 0.5839
H30 H 0.9972 0.8104 0.3862
Cu2 Cu 0.64314(8) 0.75229(6) 0.82340(5)
O1_2 O 0.5712(4) 0.8066(3) 0.8176(3)
O2_2 O 0.7162(4) 0.7005(3) 0.8286(3)
Si1_2 Si 0.39604(14) 0.49091(10) 0.57340(10)
C1_2 C 0.3552(3) 0.5265(3) 0.5418(2)
C2_2 C 0.3059(4) 0.5164(3) 0.5343(3)
H1_2 H 0.2919 0.4919 0.5457
C3_2 C 0.2770(3) 0.5422(3) 0.5100(3)
H2_2 H 0.2433 0.5353 0.5048
C4_2 C 0.2975(3) 0.5780(3) 0.4932(3)
C5_2 C 0.3468(4) 0.5881(2) 0.5007(3)
H3_2 H 0.3608 0.6126 0.4893
C6_2 C 0.3757(3) 0.5623(3) 0.5250(3)
H4_2 H 0.4095 0.5692 0.5301
C7_2 C 0.2674(5) 0.6061(5) 0.4692(4)
N1_2 N 0.1764(4) 0.7081(3) 0.3643(3)
C8_2 C 0.2256(5) 0.7068(4) 0.3658(4)
H5_2 H 0.2434 0.7241 0.3488
C9_2 C 0.2517(5) 0.6803(4) 0.3920(4)
H6_2 H 0.2867 0.6782 0.3927
C10_2 C 0.2225(5) 0.6572(5) 0.4171(4)
C11_2 C 0.1716(5) 0.6600(5) 0.4161(4)
H7_2 H 0.1524 0.6439 0.4332
C12_2 C 0.1494(5) 0.6876(4) 0.3889(4)
H8_2 H 0.1147 0.6916 0.3882
C13_2 C 0.2461(6) 0.6292(5) 0.4472(5)
C14_2 C 0.4351(3) 0.5278(3) 0.6049(2)
C15_2 C 0.4851(3) 0.5209(3) 0.6125(3)
H9_2 H 0.5012 0.4974 0.6010
C16_2 C 0.5116(2) 0.5482(3) 0.6370(3)
H10_2 H 0.5458 0.5434 0.6422
C17_2 C 0.4881(3) 0.5825(3) 0.6539(2)
C18_2 C 0.4380(3) 0.5894(2) 0.6463(3)
H11_2 H 0.4219 0.6128 0.6579
C19_2 C 0.4115(2) 0.5621(3) 0.6218(3)
H12_2 H 0.3773 0.5668 0.6166
C20_2 C 0.5158(4) 0.6101(4) 0.6798(4)
N2_2 N 0.6112(4) 0.7142(3) 0.7827(3)
C21_2 C 0.5832(5) 0.7304(4) 0.7540(4)
H13_2 H 0.5803 0.7606 0.7525
C22_2 C 0.5583(5) 0.7067(4) 0.7263(4)
H14_2 H 0.5385 0.7197 0.7065
C23_2 C 0.5638(5) 0.6620(4) 0.7290(4)
C24_2 C 0.5933(5) 0.6435(4) 0.7586(4)
H15_2 H 0.5979 0.6135 0.7605
C25_2 C 0.6159(5) 0.6722(4) 0.7855(4)
H16_2 H 0.6352 0.6608 0.8063
C26_2 C 0.5363(5) 0.6335(4) 0.7016(4)
C27_2 C 0.3593(3) 0.4562(3) 0.6054(3)
C28_2 C 0.3476(4) 0.4145(4) 0.5946(3)
H17_2 H 0.3589 0.4034 0.5711
C29_2 C 0.3193(4) 0.3892(3) 0.6180(3)
H18_2 H 0.3113 0.3607 0.6106
C30_2 C 0.3026(3) 0.4055(4) 0.6522(3)
C31_2 C 0.3143(4) 0.4471(4) 0.6631(3)
H19_2 H 0.3029 0.4583 0.6865
C32_2 C 0.3426(4) 0.4725(3) 0.6397(3)
H20_2 H 0.3506 0.5010 0.6471
C33_2 C 0.2728(6) 0.3801(5) 0.6780(4)
C34_2 C 0.1732(5) 0.3282(4) 0.7811(4)
H21_2 H 0.1538 0.3417 0.7998
C35_2 C 0.1971(5) 0.3533(5) 0.7536(4)
H22_2 H 0.1942 0.3835 0.7532
C36_2 C 0.2253(6) 0.3317(5) 0.7271(4)
C37_2 C 0.2290(6) 0.2869(5) 0.7267(4)
H23_2 H 0.2479 0.2723 0.7083
C38_2 C 0.2031(5) 0.2646(4) 0.7551(4)
H24_2 H 0.2040 0.2342 0.7559
C39_2 C 0.2514(6) 0.3576(5) 0.6987(5)
C40_2 C 0.4342(3) 0.4567(3) 0.5417(3)
C41_2 C 0.4274(3) 0.4607(3) 0.5022(3)
H25_2 H 0.4050 0.4813 0.4917
C42_2 C 0.4535(4) 0.4344(4) 0.4779(2)
H26_2 H 0.4488 0.4371 0.4509
C43_2 C 0.4864(3) 0.4043(3) 0.4931(3)
C44_2 C 0.4932(3) 0.4003(3) 0.5327(3)
H27_2 H 0.5156 0.3797 0.5431
C45_2 C 0.4671(4) 0.4266(3) 0.5569(2)
H28_2 H 0.4718 0.4239 0.5839
C46_2 C 0.5111(5) 0.3738(4) 0.4690(4)
N4_2 N 0.6065(4) 0.2809(3) 0.3648(3)
C47_2 C 0.5587(5) 0.2845(4) 0.3612(4)
H29_2 H 0.5415 0.2715 0.3400
C48_2 C 0.5321(5) 0.3075(4) 0.3884(4)
H30_2 H 0.4972 0.3104 0.3862
C49_2 C 0.5601(5) 0.3259(4) 0.4191(4)
C50_2 C 0.6111(5) 0.3219(5) 0.4233(4)
C51_2 C 0.6339(5) 0.2977(4) 0.3943(4)
H31_2 H 0.6686 0.2932 0.3957
C52_2 C 0.5335(5) 0.3526(4) 0.4476(4)
N5_2 N 0.6764(4) 0.7919(3) 0.8643(3)
N7_2 N 0.6065(4) 0.7191(3) 0.8648(3)
H32_2 H 0.56933 0.818605 0.791247
H33_2 H 0.539682 0.791954 0.822943
H34_2 H 0.740213 0.710643 0.848767
H35_2 H 0.704174 0.671594 0.835421
H36_2 H 0.632151 0.336296 0.447143
C46_3 C 0.0111(5) 0.1262(4) 0.9690(4)
C47_3 C 0.0587(5) 0.2155(4) 0.8612(4)
H29_3 H 0.0415 0.2285 0.8400
C48_3 C 0.0321(5) 0.1925(4) 0.8884(4)
C49_3 C 0.0601(5) 0.1741(4) 0.9191(4)
C50_3 C 0.1111(5) 0.1781(5) 0.9233(4)
C51_3 C 0.1339(5) 0.2023(4) 0.8943(4)
H31_3 H 0.1686 0.2068 0.8957
C52_3 C 0.0335(5) 0.1474(4) 0.9476(4)
H36_3 H 0.132151 0.163704 0.947143
O1_3 O 0.0712(4) 0.6934(3) 0.3176(3)
O2_3 O 0.2162(4) 0.7995(3) 0.3286(3)
C16_3 C 0.0116(2) 0.9518(3) 0.1370(3)
H10_3 H 0.0458 0.9566 0.1422
C20_3 C 0.0158(4) 0.8899(4) 0.1798(4)
N2_3 N 0.1112(4) 0.7858(3) 0.2827(3)
C21_3 C 0.0832(5) 0.7696(4) 0.2540(4)
H13_3 H 0.0803 0.7394 0.2525
C22_3 C 0.0583(5) 0.7933(4) 0.2263(4)
H14_3 H 0.0385 0.7803 0.2065
C23_3 C 0.0638(5) 0.8380(4) 0.2290(4)
C24_3 C 0.0933(5) 0.8565(4) 0.2586(4)
H15_3 H 0.0979 0.8865 0.2605
C25_3 C 0.1159(5) 0.8278(4) 0.2855(4)
H16_3 H 0.1352 0.8392 0.3063
C26_3 C 0.0363(5) 0.8665(4) 0.2016(4)
N6_2 N 0.1776(4) 0.7140(4) 0.2808(3)
H32_3 H 0.0693305 0.681395 0.291247
H33_3 H 0.0396824 0.708046 0.322943
H34_3 H 0.240213 0.789357 0.348767
H35_3 H 0.204174 0.828406 0.335421
Si1_3 Si 0.89604(14) 0.00909(10) 0.07340(10)
H1_3 H 0.7919 0.0081 0.0457
C27_3 C 0.8593(3) 0.0438(3) 0.1054(3)
C28_3 C 0.8476(4) 0.0855(4) 0.0946(3)
H17_3 H 0.8589 0.0966 0.0711
C29_3 C 0.8193(4) 0.1108(3) 0.1180(3)
H18_3 H 0.8113 0.1393 0.1106
C30_3 C 0.8026(3) 0.0945(4) 0.1522(3)
C31_3 C 0.8143(4) 0.0529(4) 0.1631(3)
H19_3 H 0.8029 0.0417 0.1865
C32_3 C 0.8426(4) 0.0275(3) 0.1397(3)
C33_3 C 0.7728(6) 0.1199(5) 0.1780(4)
N3_2 N 0.6776(4) 0.2140(4) 0.2808(3)
C34_3 C 0.6732(5) 0.1718(4) 0.2811(4)
H21_3 H 0.6538 0.1583 0.2998
C35_3 C 0.6971(5) 0.1467(5) 0.2536(4)
H22_3 H 0.6942 0.1165 0.2532
C36_3 C 0.7253(6) 0.1683(5) 0.2271(4)
C37_3 C 0.7290(6) 0.2131(5) 0.2267(4)
H23_3 H 0.7479 0.2277 0.2083
C38_3 C 0.7031(5) 0.2354(4) 0.2551(4)
H24_3 H 0.7040 0.2658 0.2559
C39_3 C 0.7514(6) 0.1424(5) 0.1987(5)
C40_3 C 0.9342(3) 0.0433(3) 0.0417(3)
C41_3 C 0.9274(3) 0.0393(3) 0.0022(3)
C44_3 C 0.9932(3) 0.0997(3) 0.0327(3)
C45_3 C 0.9671(4) 0.0734(3) 0.0569(2)
H28_3 H 0.9718 0.0761 0.0839
C4_3 C 0.7975(3) 0.9220(3) 0.9932(3)
H3_3 H 0.8608 0.8874 0.9893
C7_3 C 0.7674(5) 0.8939(5) 0.9692(4)
C8_3 C 0.7256(5) 0.7932(4) 0.8658(4)
H5_3 H 0.7434 0.7759 0.8488
C9_3 C 0.7517(5) 0.8197(4) 0.8920(4)
H6_3 H 0.7867 0.8218 0.8927
C10_3 C 0.7225(5) 0.8428(5) 0.9171(4)
C11_3 C 0.6716(5) 0.8400(5) 0.9161(4)
H7_3 H 0.6524 0.8561 0.9332
C12_3 C 0.6494(5) 0.8124(4) 0.8889(4)
H8_3 H 0.6147 0.8084 0.8882
C13_3 C 0.7461(6) 0.8708(5) 0.9472(5)
O1_4 O 0.5712(4) 0.1934(3) 0.3176(3)
O2_4 O 0.7162(4) 0.2995(3) 0.3286(3)
Si1_4 Si 0.39604(14) 0.50909(10) 0.07340(10)
C1_3 C 0.3552(3) 0.4735(3) 0.0418(2)
C2_3 C 0.3059(4) 0.4836(3) 0.0343(3)
H1_4 H 0.2919 0.5081 0.0457
C3_3 C 0.2770(3) 0.4578(3) 0.0100(3)
H2_3 H 0.2433 0.4647 0.0048
C5_3 C 0.3468(4) 0.4119(2) 0.0007(3)
C6_3 C 0.3757(3) 0.4377(3) 0.0250(3)
H4_3 H 0.4095 0.4308 0.0301
C14_3 C 0.4351(3) 0.4722(3) 0.1049(2)
C15_3 C 0.4851(3) 0.4791(3) 0.1125(3)
H9_3 H 0.5012 0.5026 0.1010
C16_4 C 0.5116(2) 0.4518(3) 0.1370(3)
H10_4 H 0.5458 0.4566 0.1422
C17_3 C 0.4881(3) 0.4175(3) 0.1539(2)
C18_3 C 0.4380(3) 0.4106(2) 0.1463(3)
H11_3 H 0.4219 0.3872 0.1579
C19_3 C 0.4115(2) 0.4379(3) 0.1218(3)
H12_3 H 0.3773 0.4332 0.1166
C20_4 C 0.5158(4) 0.3899(4) 0.1798(4)
N2_4 N 0.6112(4) 0.2858(3) 0.2827(3)
C21_4 C 0.5832(5) 0.2696(4) 0.2540(4)
H13_4 H 0.5803 0.2394 0.2525
C22_4 C 0.5583(5) 0.2933(4) 0.2263(4)
H14_4 H 0.5385 0.2803 0.2065
C23_4 C 0.5638(5) 0.3380(4) 0.2290(4)
C24_4 C 0.5933(5) 0.3565(4) 0.2586(4)
H15_4 H 0.5979 0.3865 0.2605
C25_4 C 0.6159(5) 0.3278(4) 0.2855(4)
H16_4 H 0.6352 0.3392 0.3063
C26_4 C 0.5363(5) 0.3665(4) 0.2016(4)
C27_4 C 0.3593(3) 0.5438(3) 0.1054(3)
C28_4 C 0.3476(4) 0.5855(4) 0.0946(3)
H17_4 H 0.3589 0.5966 0.0711
C29_4 C 0.3193(4) 0.6108(3) 0.1180(3)
H18_4 H 0.3113 0.6393 0.1106
C30_4 C 0.3026(3) 0.5945(4) 0.1522(3)
C31_4 C 0.3143(4) 0.5529(4) 0.1631(3)
H19_4 H 0.3029 0.5417 0.1865
C32_4 C 0.3426(4) 0.5275(3) 0.1397(3)
H20_3 H 0.3506 0.4990 0.1471
C33_4 C 0.2728(6) 0.6199(5) 0.1780(4)
C34_4 C 0.1732(5) 0.6718(4) 0.2811(4)
H21_4 H 0.1538 0.6583 0.2998
C35_4 C 0.1971(5) 0.6467(5) 0.2536(4)
H22_4 H 0.1942 0.6165 0.2532
C36_4 C 0.2253(6) 0.6683(5) 0.2271(4)
C37_4 C 0.2290(6) 0.7131(5) 0.2267(4)
H23_4 H 0.2479 0.7277 0.2083
C38_4 C 0.2031(5) 0.7354(4) 0.2551(4)
H24_4 H 0.2040 0.7658 0.2559
C39_4 C 0.2514(6) 0.6424(5) 0.1987(5)
C40_4 C 0.4342(3) 0.5433(3) 0.0417(3)
C41_4 C 0.4274(3) 0.5393(3) 0.0022(3)
C44_4 C 0.4932(3) 0.5997(3) 0.0327(3)
H27_3 H 0.5156 0.6203 0.0431
C45_4 C 0.4671(4) 0.5734(3) 0.0569(2)
H28_4 H 0.4718 0.5761 0.0839
H32_4 H 0.56933 0.181395 0.291247
H33_4 H 0.539682 0.208046 0.322943
H34_4 H 0.740213 0.289357 0.348767
H35_4 H 0.704174 0.328406 0.335421
C4_4 C 0.2975(3) 0.4220(3) 0.9932(3)
H3_4 H 0.3608 0.3874 0.9893
C7_4 C 0.2674(5) 0.3939(5) 0.9692(4)
C8_4 C 0.2256(5) 0.2932(4) 0.8658(4)
H5_4 H 0.2434 0.2759 0.8488
C9_4 C 0.2517(5) 0.3197(4) 0.8920(4)
H6_4 H 0.2867 0.3218 0.8927
C10_4 C 0.2225(5) 0.3428(5) 0.9171(4)
C11_4 C 0.1716(5) 0.3400(5) 0.9161(4)
H7_4 H 0.1524 0.3561 0.9332
C12_4 C 0.1494(5) 0.3124(4) 0.8889(4)
H8_4 H 0.1147 0.3084 0.8882
C13_4 C 0.2461(6) 0.3708(5) 0.9472(5)
H25_3 H 0.4050 0.5187 0.9917
C42_3 C 0.4535(4) 0.5656(4) 0.9779(2)
H26_3 H 0.4488 0.5629 0.9509
C43_3 C 0.4864(3) 0.5957(3) 0.9931(3)
C46_4 C 0.5111(5) 0.6262(4) 0.9690(4)
C47_4 C 0.5587(5) 0.7155(4) 0.8612(4)
H29_4 H 0.5415 0.7285 0.8400
C48_4 C 0.5321(5) 0.6925(4) 0.8884(4)
H30_3 H 0.4972 0.6896 0.8862
C49_4 C 0.5601(5) 0.6741(4) 0.9191(4)
C50_4 C 0.6111(5) 0.6781(5) 0.9233(4)
C51_4 C 0.6339(5) 0.7023(4) 0.8943(4)
H31_4 H 0.6686 0.7068 0.8957
C52_4 C 0.5335(5) 0.6474(4) 0.9476(4)
H36_4 H 0.632151 0.663704 0.947143
C4_5 C 0.2025(3) 0.0780(3) 0.0068(3)
H3_5 H 0.1392 0.1126 0.0107
C7_5 C 0.2326(5) 0.1061(5) 0.0308(4)
N1_3 N 0.3236(4) 0.2081(3) 0.1357(3)
C8_5 C 0.2744(5) 0.2068(4) 0.1342(4)
H5_5 H 0.2566 0.2241 0.1512
C9_5 C 0.2483(5) 0.1803(4) 0.1080(4)
H6_5 H 0.2133 0.1782 0.1073
C10_5 C 0.2775(5) 0.1572(5) 0.0829(4)
C11_5 C 0.3284(5) 0.1600(5) 0.0839(4)
H7_5 H 0.3476 0.1439 0.0668
C12_5 C 0.3506(5) 0.1876(4) 0.1111(4)
H8_5 H 0.3853 0.1916 0.1118
C13_5 C 0.2539(6) 0.1292(5) 0.0528(5)
Cu4_2 Cu 0.35686(8) 0.24771(6) 0.17660(5)
Si1_5 Si 0.10396(14) 0.99091(10) 0.92660(10)
H1_5 H 0.2081 0.9919 0.9543
C27_5 C 0.1407(3) 0.9562(3) 0.8946(3)
C28_5 C 0.1524(4) 0.9145(4) 0.9054(3)
H17_5 H 0.1411 0.9034 0.9289
C29_5 C 0.1807(4) 0.8892(3) 0.8820(3)
H18_5 H 0.1887 0.8607 0.8894
C30_5 C 0.1974(3) 0.9055(4) 0.8478(3)
C31_5 C 0.1857(4) 0.9471(4) 0.8369(3)
H19_5 H 0.1971 0.9583 0.8135
C32_5 C 0.1574(4) 0.9725(3) 0.8603(3)
C33_5 C 0.2272(6) 0.8801(5) 0.8220(4)
N3_3 N 0.3224(4) 0.7860(4) 0.7192(3)
C34_5 C 0.3268(5) 0.8282(4) 0.7189(4)
H21_5 H 0.3462 0.8417 0.7002
C35_5 C 0.3029(5) 0.8533(5) 0.7464(4)
H22_5 H 0.3058 0.8835 0.7468
C36_5 C 0.2747(6) 0.8317(5) 0.7729(4)
C37_5 C 0.2710(6) 0.7869(5) 0.7733(4)
H23_5 H 0.2521 0.7723 0.7917
C38_5 C 0.2969(5) 0.7646(4) 0.7449(4)
H24_5 H 0.2960 0.7342 0.7441
C39_5 C 0.2486(6) 0.8576(5) 0.8013(5)
C40_5 C 0.0658(3) 0.9567(3) 0.9583(3)
C41_5 C 0.0726(3) 0.9607(3) 0.9978(3)
C44_5 C 0.0068(3) 0.9003(3) 0.9673(3)
C45_5 C 0.0329(4) 0.9266(3) 0.9431(2)
H28_5 H 0.0282 0.9239 0.9161
Cu2_2 Cu 0.35686(8) 0.75229(6) 0.67660(5)
Cu1_2 Cu 0.85686(8) 0.25229(6) 0.67660(5)
O1_5 O 0.9288(4) 0.3066(3) 0.6824(3)
O2_5 O 0.7838(4) 0.2005(3) 0.6714(3)
C16_5 C 0.9884(2) 0.0482(3) 0.8630(3)
H10_5 H 0.9542 0.0434 0.8578
C20_5 C 0.9842(4) 0.1101(4) 0.8202(4)
N2_5 N 0.8888(4) 0.2142(3) 0.7173(3)
C21_5 C 0.9168(5) 0.2304(4) 0.7460(4)
H13_5 H 0.9197 0.2606 0.7475
C22_5 C 0.9417(5) 0.2067(4) 0.7737(4)
H14_5 H 0.9615 0.2197 0.7935
C23_5 C 0.9362(5) 0.1620(4) 0.7710(4)
C24_5 C 0.9067(5) 0.1435(4) 0.7414(4)
H15_5 H 0.9021 0.1135 0.7395
C25_5 C 0.8841(5) 0.1722(4) 0.7145(4)
H16_5 H 0.8648 0.1608 0.6937
C26_5 C 0.9637(5) 0.1335(4) 0.7984(4)
N5_3 N 0.8236(4) 0.2919(3) 0.6357(3)
N6_3 N 0.8224(4) 0.2860(4) 0.7192(3)
N7_3 N 0.8935(4) 0.2191(3) 0.6352(3)
H32_5 H 0.93067 0.318605 0.708753
H33_5 H 0.960318 0.291954 0.677057
H34_5 H 0.759787 0.210643 0.651233
H35_5 H 0.795826 0.171594 0.664579
C46_5 C 0.9889(5) 0.8738(4) 0.0310(4)
N4_3 N 0.8935(4) 0.7809(3) 0.1352(3)
C47_5 C 0.9413(5) 0.7845(4) 0.1388(4)
H29_5 H 0.9585 0.7715 0.1600
C48_5 C 0.9679(5) 0.8075(4) 0.1116(4)
C49_5 C 0.9399(5) 0.8259(4) 0.0809(4)
C50_5 C 0.8889(5) 0.8219(5) 0.0767(4)
C51_5 C 0.8661(5) 0.7977(4) 0.1057(4)
H31_5 H 0.8314 0.7932 0.1043
C52_5 C 0.9665(5) 0.8526(4) 0.0524(4)
Cu3_2 Cu 0.85686(8) 0.74771(6) 0.17660(5)
H36_5 H 0.867849 0.836296 0.0528571
C4_6 C 0.7025(3) 0.5780(3) 0.0068(3)
H3_6 H 0.6392 0.6126 0.0107
C7_6 C 0.7326(5) 0.6061(5) 0.0308(4)
N1_4 N 0.8236(4) 0.7081(3) 0.1357(3)
C8_6 C 0.7744(5) 0.7068(4) 0.1342(4)
H5_6 H 0.7566 0.7241 0.1512
C9_6 C 0.7483(5) 0.6803(4) 0.1080(4)
H6_6 H 0.7133 0.6782 0.1073
C10_6 C 0.7775(5) 0.6572(5) 0.0829(4)
C11_6 C 0.8284(5) 0.6600(5) 0.0839(4)
H7_6 H 0.8476 0.6439 0.0668
C12_6 C 0.8506(5) 0.6876(4) 0.1111(4)
H8_6 H 0.8853 0.6916 0.1118
C13_6 C 0.7539(6) 0.6292(5) 0.0528(5)
H25_4 H 0.5950 0.4813 0.0083
C42_4 C 0.5465(4) 0.4344(4) 0.0221(2)
H26_4 H 0.5512 0.4371 0.0491
C43_4 C 0.5136(3) 0.4043(3) 0.0069(3)
C46_6 C 0.4889(5) 0.3738(4) 0.0310(4)
N4_4 N 0.3935(4) 0.2809(3) 0.1352(3)
C47_6 C 0.4413(5) 0.2845(4) 0.1388(4)
H29_6 H 0.4585 0.2715 0.1600
C48_6 C 0.4679(5) 0.3075(4) 0.1116(4)
H30_4 H 0.5028 0.3104 0.1138
C49_6 C 0.4399(5) 0.3259(4) 0.0809(4)
C50_6 C 0.3889(5) 0.3219(5) 0.0767(4)
C51_6 C 0.3661(5) 0.2977(4) 0.1057(4)
H31_6 H 0.3314 0.2932 0.1043
C52_6 C 0.4665(5) 0.3526(4) 0.0524(4)
H36_6 H 0.367849 0.336296 0.0528571
O1_6 O 0.4288(4) 0.8066(3) 0.6824(3)
O2_6 O 0.2838(4) 0.7005(3) 0.6714(3)
Si1_6 Si 0.60396(14) 0.49091(10) 0.92660(10)
C1_4 C 0.6448(3) 0.5265(3) 0.9582(2)
C2_4 C 0.6941(4) 0.5164(3) 0.9657(3)
H1_6 H 0.7081 0.4919 0.9543
C3_4 C 0.7230(3) 0.5422(3) 0.9900(3)
H2_4 H 0.7567 0.5353 0.9952
C5_4 C 0.6532(4) 0.5881(2) 0.9993(3)
C6_4 C 0.6243(3) 0.5623(3) 0.9750(3)
H4_4 H 0.5905 0.5692 0.9699
C14_4 C 0.5649(3) 0.5278(3) 0.8951(2)
C15_4 C 0.5149(3) 0.5209(3) 0.8875(3)
H9_4 H 0.4988 0.4974 0.8990
C16_6 C 0.4884(2) 0.5482(3) 0.8630(3)
H10_6 H 0.4542 0.5434 0.8578
C17_4 C 0.5119(3) 0.5825(3) 0.8461(2)
C18_4 C 0.5620(3) 0.5894(2) 0.8537(3)
H11_4 H 0.5781 0.6128 0.8421
C19_4 C 0.5885(2) 0.5621(3) 0.8782(3)
H12_4 H 0.6227 0.5668 0.8834
C20_6 C 0.4842(4) 0.6101(4) 0.8202(4)
N2_6 N 0.3888(4) 0.7142(3) 0.7173(3)
C21_6 C 0.4168(5) 0.7304(4) 0.7460(4)
H13_6 H 0.4197 0.7606 0.7475
C22_6 C 0.4417(5) 0.7067(4) 0.7737(4)
H14_6 H 0.4615 0.7197 0.7935
C23_6 C 0.4362(5) 0.6620(4) 0.7710(4)
C24_6 C 0.4067(5) 0.6435(4) 0.7414(4)
H15_6 H 0.4021 0.6135 0.7395
C25_6 C 0.3841(5) 0.6722(4) 0.7145(4)
H16_6 H 0.3648 0.6608 0.6937
C26_6 C 0.4637(5) 0.6335(4) 0.7984(4)
C27_6 C 0.6407(3) 0.4562(3) 0.8946(3)
C28_6 C 0.6524(4) 0.4145(4) 0.9054(3)
H17_6 H 0.6411 0.4034 0.9289
C29_6 C 0.6807(4) 0.3892(3) 0.8820(3)
H18_6 H 0.6887 0.3607 0.8894
C30_6 C 0.6974(3) 0.4055(4) 0.8478(3)
C31_6 C 0.6857(4) 0.4471(4) 0.8369(3)
H19_6 H 0.6971 0.4583 0.8135
C32_6 C 0.6574(4) 0.4725(3) 0.8603(3)
H20_4 H 0.6494 0.5010 0.8529
C33_6 C 0.7272(6) 0.3801(5) 0.8220(4)
C34_6 C 0.8268(5) 0.3282(4) 0.7189(4)
H21_6 H 0.8462 0.3417 0.7002
C35_6 C 0.8029(5) 0.3533(5) 0.7464(4)
H22_6 H 0.8058 0.3835 0.7468
C36_6 C 0.7747(6) 0.3317(5) 0.7729(4)
C37_6 C 0.7710(6) 0.2869(5) 0.7733(4)
H23_6 H 0.7521 0.2723 0.7917
C38_6 C 0.7969(5) 0.2646(4) 0.7449(4)
H24_6 H 0.7960 0.2342 0.7441
C39_6 C 0.7486(6) 0.3576(5) 0.8013(5)
C40_6 C 0.5658(3) 0.4567(3) 0.9583(3)
C41_6 C 0.5726(3) 0.4607(3) 0.9978(3)
C44_6 C 0.5068(3) 0.4003(3) 0.9673(3)
H27_4 H 0.4844 0.3797 0.9569
C45_6 C 0.5329(4) 0.4266(3) 0.9431(2)
H28_6 H 0.5282 0.4239 0.9161
N5_4 N 0.3236(4) 0.7919(3) 0.6357(3)
N7_4 N 0.3935(4) 0.7191(3) 0.6352(3)
H32_6 H 0.43067 0.818605 0.708753
H33_6 H 0.460318 0.791954 0.677057
H34_6 H 0.259787 0.710643 0.651233
H35_6 H 0.295826 0.671594 0.664579
Si1_7 Si 0.10396(14) 0.00909(10) 0.42660(10)
H1_7 H 0.2081 0.0081 0.4543
C27_7 C 0.1407(3) 0.0438(3) 0.3946(3)
C28_7 C 0.1524(4) 0.0855(4) 0.4054(3)
H17_7 H 0.1411 0.0966 0.4289
C29_7 C 0.1807(4) 0.1108(3) 0.3820(3)
H18_7 H 0.1887 0.1393 0.3894
C30_7 C 0.1974(3) 0.0945(4) 0.3478(3)
C31_7 C 0.1857(4) 0.0529(4) 0.3369(3)
H19_7 H 0.1971 0.0417 0.3135
C32_7 C 0.1574(4) 0.0275(3) 0.3603(3)
C33_7 C 0.2272(6) 0.1199(5) 0.3220(4)
N3_4 N 0.3224(4) 0.2140(4) 0.2192(3)
C34_7 C 0.3268(5) 0.1718(4) 0.2189(4)
H21_7 H 0.3462 0.1583 0.2002
C35_7 C 0.3029(5) 0.1467(5) 0.2464(4)
H22_7 H 0.3058 0.1165 0.2468
C36_7 C 0.2747(6) 0.1683(5) 0.2729(4)
C37_7 C 0.2710(6) 0.2131(5) 0.2733(4)
H23_7 H 0.2521 0.2277 0.2917
C38_7 C 0.2969(5) 0.2354(4) 0.2449(4)
H24_7 H 0.2960 0.2658 0.2441
C39_7 C 0.2486(6) 0.1424(5) 0.3013(5)
C40_7 C 0.0658(3) 0.0433(3) 0.4583(3)
C41_7 C 0.0726(3) 0.0393(3) 0.4978(3)
H25_5 H 0.0950 0.0187 0.5083
C42_5 C 0.0465(4) 0.0656(4) 0.5221(2)
H26_5 H 0.0512 0.0629 0.5491
C43_5 C 0.0136(3) 0.0957(3) 0.5069(3)
C44_7 C 0.0068(3) 0.0997(3) 0.4673(3)
C45_7 C 0.0329(4) 0.0734(3) 0.4431(2)
H28_7 H 0.0282 0.0761 0.4161
H30_5 H 0.0028 0.1896 0.6138
C1_5 C 0.1448(3) 0.9735(3) 0.4582(2)
C2_5 C 0.1941(4) 0.9836(3) 0.4657(3)
C3_5 C 0.2230(3) 0.9578(3) 0.4900(3)
H2_5 H 0.2567 0.9647 0.4952
C4_7 C 0.2025(3) 0.9220(3) 0.5068(3)
C5_5 C 0.1532(4) 0.9119(2) 0.4993(3)
H3_7 H 0.1392 0.8874 0.5107
C6_5 C 0.1243(3) 0.9377(3) 0.4750(3)
H4_5 H 0.0905 0.9308 0.4699
C7_7 C 0.2326(5) 0.8939(5) 0.5308(4)
C8_7 C 0.2744(5) 0.7932(4) 0.6342(4)
H5_7 H 0.2566 0.7759 0.6512
C9_7 C 0.2483(5) 0.8197(4) 0.6080(4)
H6_7 H 0.2133 0.8218 0.6073
C10_7 C 0.2775(5) 0.8428(5) 0.5829(4)
C11_7 C 0.3284(5) 0.8400(5) 0.5839(4)
H7_7 H 0.3476 0.8561 0.5668
C12_7 C 0.3506(5) 0.8124(4) 0.6111(4)
H8_7 H 0.3853 0.8084 0.6118
C13_7 C 0.2539(6) 0.8708(5) 0.5528(5)
C14_5 C 0.0649(3) 0.9722(3) 0.3951(2)
C15_5 C 0.0149(3) 0.9791(3) 0.3875(3)
C17_5 C 0.0119(3) 0.9175(3) 0.3461(2)
C18_5 C 0.0620(3) 0.9106(2) 0.3537(3)
H11_5 H 0.0781 0.8872 0.3421
C19_5 C 0.0885(2) 0.9379(3) 0.3782(3)
H12_5 H 0.1227 0.9332 0.3834
H20_5 H 0.1494 0.9990 0.3529
H9_5 H 0.9988 0.0026 0.3990
H27_5 H 0.9844 0.1203 0.4569
C46_7 C 0.9889(5) 0.1262(4) 0.5310(4)
C47_7 C 0.9413(5) 0.2155(4) 0.6388(4)
H29_7 H 0.9585 0.2285 0.6600
C48_7 C 0.9679(5) 0.1925(4) 0.6116(4)
C49_7 C 0.9399(5) 0.1741(4) 0.5809(4)
C50_7 C 0.8889(5) 0.1781(5) 0.5767(4)
C51_7 C 0.8661(5) 0.2023(4) 0.6057(4)
H31_7 H 0.8314 0.2068 0.6043
C52_7 C 0.9665(5) 0.1474(4) 0.5524(4)
H36_7 H 0.867849 0.163704 0.552857
O1_7 O 0.9288(4) 0.6934(3) 0.1824(3)
O2_7 O 0.7838(4) 0.7995(3) 0.1714(3)
C16_7 C 0.9884(2) 0.9518(3) 0.3630(3)
H10_7 H 0.9542 0.9566 0.3578
C20_7 C 0.9842(4) 0.8899(4) 0.3202(4)
N2_7 N 0.8888(4) 0.7858(3) 0.2173(3)
C21_7 C 0.9168(5) 0.7696(4) 0.2460(4)
H13_7 H 0.9197 0.7394 0.2475
C22_7 C 0.9417(5) 0.7933(4) 0.2737(4)
H14_7 H 0.9615 0.7803 0.2935
C23_7 C 0.9362(5) 0.8380(4) 0.2710(4)
C24_7 C 0.9067(5) 0.8565(4) 0.2414(4)
H15_7 H 0.9021 0.8865 0.2395
C25_7 C 0.8841(5) 0.8278(4) 0.2145(4)
H16_7 H 0.8648 0.8392 0.1937
C26_7 C 0.9637(5) 0.8665(4) 0.2984(4)
N6_4 N 0.8224(4) 0.7140(4) 0.2192(3)
H32_7 H 0.93067 0.681395 0.208753
H33_7 H 0.960318 0.708046 0.177057
H34_7 H 0.759787 0.789357 0.151233
H35_7 H 0.795826 0.828406 0.164579
O1_8 O 0.4288(4) 0.1934(3) 0.1824(3)
O2_8 O 0.2838(4) 0.2995(3) 0.1714(3)
Si1_8 Si 0.60396(14) 0.50909(10) 0.42660(10)
C1_6 C 0.6448(3) 0.4735(3) 0.4582(2)
C2_6 C 0.6941(4) 0.4836(3) 0.4657(3)
H1_8 H 0.7081 0.5081 0.4543
C3_6 C 0.7230(3) 0.4578(3) 0.4900(3)
H2_6 H 0.7567 0.4647 0.4952
C4_8 C 0.7025(3) 0.4220(3) 0.5068(3)
C5_6 C 0.6532(4) 0.4119(2) 0.4993(3)
H3_8 H 0.6392 0.3874 0.5107
C6_6 C 0.6243(3) 0.4377(3) 0.4750(3)
H4_6 H 0.5905 0.4308 0.4699
C7_8 C 0.7326(5) 0.3939(5) 0.5308(4)
C8_8 C 0.7744(5) 0.2932(4) 0.6342(4)
H5_8 H 0.7566 0.2759 0.6512
C9_8 C 0.7483(5) 0.3197(4) 0.6080(4)
H6_8 H 0.7133 0.3218 0.6073
C10_8 C 0.7775(5) 0.3428(5) 0.5829(4)
C11_8 C 0.8284(5) 0.3400(5) 0.5839(4)
H7_8 H 0.8476 0.3561 0.5668
C12_8 C 0.8506(5) 0.3124(4) 0.6111(4)
H8_8 H 0.8853 0.3084 0.6118
C13_8 C 0.7539(6) 0.3708(5) 0.5528(5)
C14_6 C 0.5649(3) 0.4722(3) 0.3951(2)
C15_6 C 0.5149(3) 0.4791(3) 0.3875(3)
H9_6 H 0.4988 0.5026 0.3990
C16_8 C 0.4884(2) 0.4518(3) 0.3630(3)
H10_8 H 0.4542 0.4566 0.3578
C17_6 C 0.5119(3) 0.4175(3) 0.3461(2)
C18_6 C 0.5620(3) 0.4106(2) 0.3537(3)
H11_6 H 0.5781 0.3872 0.3421
C19_6 C 0.5885(2) 0.4379(3) 0.3782(3)
H12_6 H 0.6227 0.4332 0.3834
C20_8 C 0.4842(4) 0.3899(4) 0.3202(4)
N2_8 N 0.3888(4) 0.2858(3) 0.2173(3)
C21_8 C 0.4168(5) 0.2696(4) 0.2460(4)
H13_8 H 0.4197 0.2394 0.2475
C22_8 C 0.4417(5) 0.2933(4) 0.2737(4)
H14_8 H 0.4615 0.2803 0.2935
C23_8 C 0.4362(5) 0.3380(4) 0.2710(4)
C24_8 C 0.4067(5) 0.3565(4) 0.2414(4)
H15_8 H 0.4021 0.3865 0.2395
C25_8 C 0.3841(5) 0.3278(4) 0.2145(4)
H16_8 H 0.3648 0.3392 0.1937
C26_8 C 0.4637(5) 0.3665(4) 0.2984(4)
C27_8 C 0.6407(3) 0.5438(3) 0.3946(3)
C28_8 C 0.6524(4) 0.5855(4) 0.4054(3)
H17_8 H 0.6411 0.5966 0.4289
C29_8 C 0.6807(4) 0.6108(3) 0.3820(3)
H18_8 H 0.6887 0.6393 0.3894
C30_8 C 0.6974(3) 0.5945(4) 0.3478(3)
C31_8 C 0.6857(4) 0.5529(4) 0.3369(3)
H19_8 H 0.6971 0.5417 0.3135
C32_8 C 0.6574(4) 0.5275(3) 0.3603(3)
H20_6 H 0.6494 0.4990 0.3529
C33_8 C 0.7272(6) 0.6199(5) 0.3220(4)
C34_8 C 0.8268(5) 0.6718(4) 0.2189(4)
H21_8 H 0.8462 0.6583 0.2002
C35_8 C 0.8029(5) 0.6467(5) 0.2464(4)
H22_8 H 0.8058 0.6165 0.2468
C36_8 C 0.7747(6) 0.6683(5) 0.2729(4)
C37_8 C 0.7710(6) 0.7131(5) 0.2733(4)
H23_8 H 0.7521 0.7277 0.2917
C38_8 C 0.7969(5) 0.7354(4) 0.2449(4)
H24_8 H 0.7960 0.7658 0.2441
C39_8 C 0.7486(6) 0.6424(5) 0.3013(5)
C40_8 C 0.5658(3) 0.5433(3) 0.4583(3)
C41_8 C 0.5726(3) 0.5393(3) 0.4978(3)
H25_6 H 0.5950 0.5187 0.5083
C42_6 C 0.5465(4) 0.5656(4) 0.5221(2)
H26_6 H 0.5512 0.5629 0.5491
C43_6 C 0.5136(3) 0.5957(3) 0.5069(3)
C44_8 C 0.5068(3) 0.5997(3) 0.4673(3)
H27_6 H 0.4844 0.6203 0.4569
C45_8 C 0.5329(4) 0.5734(3) 0.4431(2)
H28_8 H 0.5282 0.5761 0.4161
C46_8 C 0.4889(5) 0.6262(4) 0.5310(4)
C47_8 C 0.4413(5) 0.7155(4) 0.6388(4)
H29_8 H 0.4585 0.7285 0.6600
C48_8 C 0.4679(5) 0.6925(4) 0.6116(4)
H30_6 H 0.5028 0.6896 0.6138
C49_8 C 0.4399(5) 0.6741(4) 0.5809(4)
C50_8 C 0.3889(5) 0.6781(5) 0.5767(4)
C51_8 C 0.3661(5) 0.7023(4) 0.6057(4)
H31_8 H 0.3314 0.7068 0.6043
C52_8 C 0.4665(5) 0.6474(4) 0.5524(4)
H32_8 H 0.43067 0.181395 0.208753
H33_8 H 0.460318 0.208046 0.177057
H34_8 H 0.259787 0.289357 0.151233
H35_8 H 0.295826 0.328406 0.164579
H36_8 H 0.367849 0.663704 0.552857
C1_7 C 0.1448(3) 0.0265(3) 0.9582(2)
C2_7 C 0.1941(4) 0.0164(3) 0.9657(3)
C3_7 C 0.2230(3) 0.0422(3) 0.9900(3)
H2_7 H 0.2567 0.0353 0.9952
C5_7 C 0.1532(4) 0.0881(2) 0.9993(3)
C6_7 C 0.1243(3) 0.0623(3) 0.9750(3)
H4_7 H 0.0905 0.0692 0.9699
C14_7 C 0.0649(3) 0.0278(3) 0.8951(2)
C15_7 C 0.0149(3) 0.0209(3) 0.8875(3)
C17_7 C 0.0119(3) 0.0825(3) 0.8461(2)
C18_7 C 0.0620(3) 0.0894(2) 0.8537(3)
H11_7 H 0.0781 0.1128 0.8421
C19_7 C 0.0885(2) 0.0621(3) 0.8782(3)
H12_7 H 0.1227 0.0668 0.8834
H20_7 H 0.1494 0.0010 0.8529
H25_7 H 0.0950 0.9813 0.0083
C42_7 C 0.0465(4) 0.9344(4) 0.0221(2)
H26_7 H 0.0512 0.9371 0.0491
C43_7 C 0.0136(3) 0.9043(3) 0.0069(3)
H30_7 H 0.0028 0.8104 0.1138
H9_7 H 0.9988 0.9974 0.8990
H27_7 H 0.9844 0.8797 0.9569
H9_8 H 0.0012 0.0026 0.1010
H27_8 H 0.0156 0.1203 0.0431
H25_8 H 0.9050 0.0187 0.9917
C42_8 C 0.9535(4) 0.0656(4) 0.9779(2)
H26_8 H 0.9488 0.0629 0.9509
C43_8 C 0.9864(3) 0.0957(3) 0.9931(3)
H30_8 H 0.9972 0.1896 0.8862
C1_8 C 0.8552(3) 0.9735(3) 0.0418(2)
C2_8 C 0.8059(4) 0.9836(3) 0.0343(3)
C3_8 C 0.7770(3) 0.9578(3) 0.0100(3)
H2_8 H 0.7433 0.9647 0.0048
C5_8 C 0.8468(4) 0.9119(2) 0.0007(3)
C6_8 C 0.8757(3) 0.9377(3) 0.0250(3)
H4_8 H 0.9095 0.9308 0.0301
C14_8 C 0.9351(3) 0.9722(3) 0.1049(2)
C15_8 C 0.9851(3) 0.9791(3) 0.1125(3)
C17_8 C 0.9881(3) 0.9175(3) 0.1539(2)
C18_8 C 0.9380(3) 0.9106(2) 0.1463(3)
H11_8 H 0.9219 0.8872 0.1579
C19_8 C 0.9115(2) 0.9379(3) 0.1218(3)
H12_8 H 0.8773 0.9332 0.1166
H20_8 H 0.8506 0.9990 0.1471
loop_
_geom_bond_atom_site_label_1
_geom_bond_atom_site_label_2
_geom_bond_site_symmetry_1
_geom_bond_site_symmetry_2
Cu1 O1 1_555 1_555
O2 Cu1 1_555 1_555
H10 C16 1_555 1_555
N2 Cu1 1_555 1_555
C21 N2 1_555 1_555
H13 C21 1_555 1_555
C22 C21 1_555 1_555
H14 C22 1_555 1_555
C23 C22 1_555 1_555
C24 C23 1_555 1_555
H15 C24 1_555 1_555
C25 N2 1_555 1_555
H16 C25 1_555 1_555
C26 C20 1_555 1_555
N5 Cu1 1_555 1_555
N6 Cu1 1_555 1_555
N7 Cu1 1_555 1_555
C23 C26 1_555 1_555
C24 C25 1_555 1_555
O1 H32 1_555 1_555
O1 H33 1_555 1_555
O2 H34 1_555 1_555
O2 H35 1_555 1_555
N4 C47 1_555 1_555
C47 H29 1_555 1_555
C48 C47 1_555 1_555
C49 C48 1_555 1_555
C50 C49 1_555 1_555
C51 N4 1_555 1_555
H31 C51 1_555 1_555
C52 C46 1_555 1_555
Cu3 N4 1_555 1_555
C49 C52 1_555 1_555
C50 C51 1_555 1_555
C50 H36 1_555 1_555
C1 C2 1_555 1_555
C3 C2 1_555 1_555
H2 C3 1_555 1_555
C4 C3 1_555 1_555
C5 C4 1_555 1_555
H3 C5 1_555 1_555
C6 C1 1_555 1_555
H4 C6 1_555 1_555
C7 C4 1_555 1_555
N1 C8 1_555 1_555
C8 H5 1_555 1_555
C9 C8 1_555 1_555
H6 C9 1_555 1_555
C10 C9 1_555 1_555
C11 C10 1_555 1_555
H7 C11 1_555 1_555
C12 N1 1_555 1_555
H8 C12 1_555 1_555
C13 C7 1_555 1_555
C15 C14 1_555 1_555
C18 C17 1_555 1_555
H11 C18 1_555 1_555
C19 C14 1_555 1_555
H12 C19 1_555 1_555
Cu4 N1 1_555 1_555
C5 C6 1_555 1_555
C10 C13 1_555 1_555
C11 C12 1_555 1_555
C18 C19 1_555 1_555
C27 Si1 1_555 1_555
C28 C27 1_555 1_555
H17 C28 1_555 1_555
C29 C28 1_555 1_555
H18 C29 1_555 1_555
C30 C29 1_555 1_555
C31 C30 1_555 1_555
H19 C31 1_555 1_555
C32 C27 1_555 1_555
C33 C30 1_555 1_555
N3 C34 1_555 1_555
C34 H21 1_555 1_555
C35 C34 1_555 1_555
H22 C35 1_555 1_555
C36 C35 1_555 1_555
C37 C36 1_555 1_555
H23 C37 1_555 1_555
C38 N3 1_555 1_555
H24 C38 1_555 1_555
C39 C33 1_555 1_555
C40 Si1 1_555 1_555
C41 C40 1_555 1_555
H25 C41 1_555 1_555
C42 C41 1_555 1_555
H26 C42 1_555 1_555
C43 C42 1_555 1_555
C44 C43 1_555 1_555
C45 C40 1_555 1_555
H28 C45 1_555 1_555
Cu2 N3 1_555 1_555
C31 C32 1_555 1_555
C36 C39 1_555 1_555
C37 C38 1_555 1_555
C44 C45 1_555 1_555
Cu2 O1_2 1_555 1_555
O2_2 Cu2 1_555 1_555
Si1_2 C1_2 1_555 1_555
C1_2 C2_2 1_555 1_555
C2_2 H1_2 1_555 1_555
C3_2 C2_2 1_555 1_555
H2_2 C3_2 1_555 1_555
C4_2 C3_2 1_555 1_555
C5_2 C4_2 1_555 1_555
H3_2 C5_2 1_555 1_555
C6_2 C1_2 1_555 1_555
H4_2 C6_2 1_555 1_555
C7_2 C4_2 1_555 1_555
N1_2 C8_2 1_555 1_555
C8_2 H5_2 1_555 1_555
C9_2 C8_2 1_555 1_555
H6_2 C9_2 1_555 1_555
C10_2 C9_2 1_555 1_555
C11_2 C10_2 1_555 1_555
H7_2 C11_2 1_555 1_555
C12_2 N1_2 1_555 1_555
H8_2 C12_2 1_555 1_555
C13_2 C7_2 1_555 1_555
C14_2 Si1_2 1_555 1_555
C15_2 C14_2 1_555 1_555
H9_2 C15_2 1_555 1_555
C16_2 C15_2 1_555 1_555
H10_2 C16_2 1_555 1_555
C17_2 C16_2 1_555 1_555
C18_2 C17_2 1_555 1_555
H11_2 C18_2 1_555 1_555
C19_2 C14_2 1_555 1_555
H12_2 C19_2 1_555 1_555
C20_2 C17_2 1_555 1_555
N2_2 Cu2 1_555 1_555
C21_2 N2_2 1_555 1_555
H13_2 C21_2 1_555 1_555
C22_2 C21_2 1_555 1_555
H14_2 C22_2 1_555 1_555
C23_2 C22_2 1_555 1_555
C24_2 C23_2 1_555 1_555
H15_2 C24_2 1_555 1_555
C25_2 N2_2 1_555 1_555
H16_2 C25_2 1_555 1_555
C26_2 C20_2 1_555 1_555
C27_2 Si1_2 1_555 1_555
C28_2 C27_2 1_555 1_555
H17_2 C28_2 1_555 1_555
C29_2 C28_2 1_555 1_555
H18_2 C29_2 1_555 1_555
C30_2 C29_2 1_555 1_555
C31_2 C30_2 1_555 1_555
H19_2 C31_2 1_555 1_555
C32_2 C27_2 1_555 1_555
H20_2 C32_2 1_555 1_555
C33_2 C30_2 1_555 1_555
N6 C34_2 1_555 1_555
C34_2 H21_2 1_555 1_555
C35_2 C34_2 1_555 1_555
H22_2 C35_2 1_555 1_555
C36_2 C35_2 1_555 1_555
C37_2 C36_2 1_555 1_555
H23_2 C37_2 1_555 1_555
C38_2 N6 1_555 1_555
H24_2 C38_2 1_555 1_555
C39_2 C33_2 1_555 1_555
C40_2 Si1_2 1_555 1_555
C41_2 C40_2 1_555 1_555
H25_2 C41_2 1_555 1_555
C42_2 C41_2 1_555 1_555
H26_2 C42_2 1_555 1_555
C43_2 C42_2 1_555 1_555
C44_2 C43_2 1_555 1_555
H27_2 C44_2 1_555 1_555
C45_2 C40_2 1_555 1_555
H28_2 C45_2 1_555 1_555
C46_2 C43_2 1_555 1_555
N4_2 C47_2 1_555 1_555
C47_2 H29_2 1_555 1_555
C48_2 C47_2 1_555 1_555
H30_2 C48_2 1_555 1_555
C49_2 C48_2 1_555 1_555
C50_2 C49_2 1_555 1_555
C51_2 N4_2 1_555 1_555
H31_2 C51_2 1_555 1_555
C52_2 C46_2 1_555 1_555
Cu4 N4_2 1_555 1_555
Cu3 N1_2 1_555 1_555
N5_2 Cu2 1_555 1_555
N7_2 Cu2 1_555 1_555
C5_2 C6_2 1_555 1_555
C10_2 C13_2 1_555 1_555
C11_2 C12_2 1_555 1_555
C18_2 C19_2 1_555 1_555
C23_2 C26_2 1_555 1_555
C24_2 C25_2 1_555 1_555
C31_2 C32_2 1_555 1_555
C36_2 C39_2 1_555 1_555
C37_2 C38_2 1_555 1_555
C44_2 C45_2 1_555 1_555
C49_2 C52_2 1_555 1_555
C50_2 C51_2 1_555 1_555
O1_2 H32_2 1_555 1_555
O1_2 H33_2 1_555 1_555
O2_2 H34_2 1_555 1_555
O2_2 H35_2 1_555 1_555
C50_2 H36_2 1_555 1_555
N7 C47_3 1_555 1_555
C47_3 H29_3 1_555 1_555
C48_3 C47_3 1_555 1_555
C49_3 C48_3 1_555 1_555
C50_3 C49_3 1_555 1_555
C51_3 N7 1_555 1_555
H31_3 C51_3 1_555 1_555
C52_3 C46_3 1_555 1_555
C49_3 C52_3 1_555 1_555
C50_3 C51_3 1_555 1_555
C50_3 H36_3 1_555 1_555
Cu3 O1_3 1_555 1_555
O2_3 Cu3 1_555 1_555
H10_3 C16_3 1_555 1_555
N2_3 Cu3 1_555 1_555
C21_3 N2_3 1_555 1_555
H13_3 C21_3 1_555 1_555
C22_3 C21_3 1_555 1_555
H14_3 C22_3 1_555 1_555
C23_3 C22_3 1_555 1_555
C24_3 C23_3 1_555 1_555
H15_3 C24_3 1_555 1_555
C25_3 N2_3 1_555 1_555
H16_3 C25_3 1_555 1_555
C26_3 C20_3 1_555 1_555
N6_2 Cu3 1_555 1_555
C23_3 C26_3 1_555 1_555
C24_3 C25_3 1_555 1_555
O1_3 H32_3 1_555 1_555
O1_3 H33_3 1_555 1_555
O2_3 H34_3 1_555 1_555
O2_3 H35_3 1_555 1_555
C27_3 Si1_3 1_555 1_555
C28_3 C27_3 1_555 1_555
H17_3 C28_3 1_555 1_555
C29_3 C28_3 1_555 1_555
H18_3 C29_3 1_555 1_555
C30_3 C29_3 1_555 1_555
C31_3 C30_3 1_555 1_555
H19_3 C31_3 1_555 1_555
C32_3 C27_3 1_555 1_555
C33_3 C30_3 1_555 1_555
N3_2 C34_3 1_555 1_555
C34_3 H21_3 1_555 1_555
C35_3 C34_3 1_555 1_555
H22_3 C35_3 1_555 1_555
C36_3 C35_3 1_555 1_555
C37_3 C36_3 1_555 1_555
H23_3 C37_3 1_555 1_555
C38_3 N3_2 1_555 1_555
H24_3 C38_3 1_555 1_555
C39_3 C33_3 1_555 1_555
C40_3 Si1_3 1_555 1_555
C41_3 C40_3 1_555 1_555
C45_3 C40_3 1_555 1_555
H28_3 C45_3 1_555 1_555
Cu4 N3_2 1_555 1_555
C31_3 C32_3 1_555 1_555
C36_3 C39_3 1_555 1_555
C37_3 C38_3 1_555 1_555
C44_3 C45_3 1_555 1_555
C7_3 C4_3 1_555 1_555
N5_2 C8_3 1_555 1_555
C8_3 H5_3 1_555 1_555
C9_3 C8_3 1_555 1_555
H6_3 C9_3 1_555 1_555
C10_3 C9_3 1_555 1_555
C11_3 C10_3 1_555 1_555
H7_3 C11_3 1_555 1_555
C12_3 N5_2 1_555 1_555
H8_3 C12_3 1_555 1_555
C13_3 C7_3 1_555 1_555
C10_3 C13_3 1_555 1_555
C11_3 C12_3 1_555 1_555
Cu4 O1_4 1_555 1_555
O2_4 Cu4 1_555 1_555
Si1_4 C1_3 1_555 1_555
C1_3 C2_3 1_555 1_555
C2_3 H1_4 1_555 1_555
C3_3 C2_3 1_555 1_555
H2_3 C3_3 1_555 1_555
C6_3 C1_3 1_555 1_555
H4_3 C6_3 1_555 1_555
C14_3 Si1_4 1_555 1_555
C15_3 C14_3 1_555 1_555
H9_3 C15_3 1_555 1_555
C16_4 C15_3 1_555 1_555
H10_4 C16_4 1_555 1_555
C17_3 C16_4 1_555 1_555
C18_3 C17_3 1_555 1_555
H11_3 C18_3 1_555 1_555
C19_3 C14_3 1_555 1_555
H12_3 C19_3 1_555 1_555
C20_4 C17_3 1_555 1_555
N2_4 Cu4 1_555 1_555
C21_4 N2_4 1_555 1_555
H13_4 C21_4 1_555 1_555
C22_4 C21_4 1_555 1_555
H14_4 C22_4 1_555 1_555
C23_4 C22_4 1_555 1_555
C24_4 C23_4 1_555 1_555
H15_4 C24_4 1_555 1_555
C25_4 N2_4 1_555 1_555
H16_4 C25_4 1_555 1_555
C26_4 C20_4 1_555 1_555
C27_4 Si1_4 1_555 1_555
C28_4 C27_4 1_555 1_555
H17_4 C28_4 1_555 1_555
C29_4 C28_4 1_555 1_555
H18_4 C29_4 1_555 1_555
C30_4 C29_4 1_555 1_555
C31_4 C30_4 1_555 1_555
H19_4 C31_4 1_555 1_555
C32_4 C27_4 1_555 1_555
H20_3 C32_4 1_555 1_555
C33_4 C30_4 1_555 1_555
N6_2 C34_4 1_555 1_555
C34_4 H21_4 1_555 1_555
C35_4 C34_4 1_555 1_555
H22_4 C35_4 1_555 1_555
C36_4 C35_4 1_555 1_555
C37_4 C36_4 1_555 1_555
H23_4 C37_4 1_555 1_555
C38_4 N6_2 1_555 1_555
H24_4 C38_4 1_555 1_555
C39_4 C33_4 1_555 1_555
C40_4 Si1_4 1_555 1_555
C41_4 C40_4 1_555 1_555
H27_3 C44_4 1_555 1_555
C45_4 C40_4 1_555 1_555
H28_4 C45_4 1_555 1_555
C5_3 C6_3 1_555 1_555
C18_3 C19_3 1_555 1_555
C23_4 C26_4 1_555 1_555
C24_4 C25_4 1_555 1_555
C31_4 C32_4 1_555 1_555
C36_4 C39_4 1_555 1_555
C37_4 C38_4 1_555 1_555
C44_4 C45_4 1_555 1_555
O1_4 H32_4 1_555 1_555
O1_4 H33_4 1_555 1_555
O2_4 H34_4 1_555 1_555
O2_4 H35_4 1_555 1_555
C7_4 C4_4 1_555 1_555
N5 C8_4 1_555 1_555
C8_4 H5_4 1_555 1_555
C9_4 C8_4 1_555 1_555
H6_4 C9_4 1_555 1_555
C10_4 C9_4 1_555 1_555
C11_4 C10_4 1_555 1_555
H7_4 C11_4 1_555 1_555
C12_4 N5 1_555 1_555
H8_4 C12_4 1_555 1_555
C13_4 C7_4 1_555 1_555
H26_3 C42_3 1_555 1_555
C43_3 C42_3 1_555 1_555
C46_4 C43_3 1_555 1_555
N7_2 C47_4 1_555 1_555
C47_4 H29_4 1_555 1_555
C48_4 C47_4 1_555 1_555
H30_3 C48_4 1_555 1_555
C49_4 C48_4 1_555 1_555
C50_4 C49_4 1_555 1_555
C51_4 N7_2 1_555 1_555
H31_4 C51_4 1_555 1_555
C52_4 C46_4 1_555 1_555
C10_4 C13_4 1_555 1_555
C11_4 C12_4 1_555 1_555
C49_4 C52_4 1_555 1_555
C50_4 C51_4 1_555 1_555
C50_4 H36_4 1_555 1_555
C7_5 C4_5 1_555 1_555
N1_3 C8_5 1_555 1_555
C8_5 H5_5 1_555 1_555
C9_5 C8_5 1_555 1_555
H6_5 C9_5 1_555 1_555
C10_5 C9_5 1_555 1_555
C11_5 C10_5 1_555 1_555
H7_5 C11_5 1_555 1_555
C12_5 N1_3 1_555 1_555
H8_5 C12_5 1_555 1_555
C13_5 C7_5 1_555 1_555
Cu4_2 N1_3 1_555 1_555
C10_5 C13_5 1_555 1_555
C11_5 C12_5 1_555 1_555
C27_5 Si1_5 1_555 1_555
C28_5 C27_5 1_555 1_555
H17_5 C28_5 1_555 1_555
C29_5 C28_5 1_555 1_555
H18_5 C29_5 1_555 1_555
C30_5 C29_5 1_555 1_555
C31_5 C30_5 1_555 1_555
H19_5 C31_5 1_555 1_555
C32_5 C27_5 1_555 1_555
C33_5 C30_5 1_555 1_555
N3_3 C34_5 1_555 1_555
C34_5 H21_5 1_555 1_555
C35_5 C34_5 1_555 1_555
H22_5 C35_5 1_555 1_555
C36_5 C35_5 1_555 1_555
C37_5 C36_5 1_555 1_555
H23_5 C37_5 1_555 1_555
C38_5 N3_3 1_555 1_555
H24_5 C38_5 1_555 1_555
C39_5 C33_5 1_555 1_555
C40_5 Si1_5 1_555 1_555
C41_5 C40_5 1_555 1_555
C45_5 C40_5 1_555 1_555
H28_5 C45_5 1_555 1_555
Cu2_2 N3_3 1_555 1_555
C31_5 C32_5 1_555 1_555
C36_5 C39_5 1_555 1_555
C37_5 C38_5 1_555 1_555
C44_5 C45_5 1_555 1_555
Cu1_2 O1_5 1_555 1_555
O2_5 Cu1_2 1_555 1_555
H10_5 C16_5 1_555 1_555
N2_5 Cu1_2 1_555 1_555
C21_5 N2_5 1_555 1_555
H13_5 C21_5 1_555 1_555
C22_5 C21_5 1_555 1_555
H14_5 C22_5 1_555 1_555
C23_5 C22_5 1_555 1_555
C24_5 C23_5 1_555 1_555
H15_5 C24_5 1_555 1_555
C25_5 N2_5 1_555 1_555
H16_5 C25_5 1_555 1_555
C26_5 C20_5 1_555 1_555
N5_3 Cu1_2 1_555 1_555
N6_3 Cu1_2 1_555 1_555
N7_3 Cu1_2 1_555 1_555
C23_5 C26_5 1_555 1_555
C24_5 C25_5 1_555 1_555
O1_5 H32_5 1_555 1_555
O1_5 H33_5 1_555 1_555
O2_5 H34_5 1_555 1_555
O2_5 H35_5 1_555 1_555
N4_3 C47_5 1_555 1_555
C47_5 H29_5 1_555 1_555
C48_5 C47_5 1_555 1_555
C49_5 C48_5 1_555 1_555
C50_5 C49_5 1_555 1_555
C51_5 N4_3 1_555 1_555
H31_5 C51_5 1_555 1_555
C52_5 C46_5 1_555 1_555
Cu3_2 N4_3 1_555 1_555
C49_5 C52_5 1_555 1_555
C50_5 C51_5 1_555 1_555
C50_5 H36_5 1_555 1_555
C7_6 C4_6 1_555 1_555
N1_4 C8_6 1_555 1_555
C8_6 H5_6 1_555 1_555
C9_6 C8_6 1_555 1_555
H6_6 C9_6 1_555 1_555
C10_6 C9_6 1_555 1_555
C11_6 C10_6 1_555 1_555
H7_6 C11_6 1_555 1_555
C12_6 N1_4 1_555 1_555
H8_6 C12_6 1_555 1_555
C13_6 C7_6 1_555 1_555
H26_4 C42_4 1_555 1_555
C43_4 C42_4 1_555 1_555
C46_6 C43_4 1_555 1_555
N4_4 C47_6 1_555 1_555
C47_6 H29_6 1_555 1_555
C48_6 C47_6 1_555 1_555
H30_4 C48_6 1_555 1_555
C49_6 C48_6 1_555 1_555
C50_6 C49_6 1_555 1_555
C51_6 N4_4 1_555 1_555
H31_6 C51_6 1_555 1_555
C52_6 C46_6 1_555 1_555
Cu4_2 N4_4 1_555 1_555
Cu3_2 N1_4 1_555 1_555
C10_6 C13_6 1_555 1_555
C11_6 C12_6 1_555 1_555
C49_6 C52_6 1_555 1_555
C50_6 C51_6 1_555 1_555
C50_6 H36_6 1_555 1_555
Cu2_2 O1_6 1_555 1_555
O2_6 Cu2_2 1_555 1_555
Si1_6 C1_4 1_555 1_555
C1_4 C2_4 1_555 1_555
C2_4 H1_6 1_555 1_555
C3_4 C2_4 1_555 1_555
H2_4 C3_4 1_555 1_555
C6_4 C1_4 1_555 1_555
H4_4 C6_4 1_555 1_555
C14_4 Si1_6 1_555 1_555
C15_4 C14_4 1_555 1_555
H9_4 C15_4 1_555 1_555
C16_6 C15_4 1_555 1_555
H10_6 C16_6 1_555 1_555
C17_4 C16_6 1_555 1_555
C18_4 C17_4 1_555 1_555
H11_4 C18_4 1_555 1_555
C19_4 C14_4 1_555 1_555
H12_4 C19_4 1_555 1_555
C20_6 C17_4 1_555 1_555
N2_6 Cu2_2 1_555 1_555
C21_6 N2_6 1_555 1_555
H13_6 C21_6 1_555 1_555
C22_6 C21_6 1_555 1_555
H14_6 C22_6 1_555 1_555
C23_6 C22_6 1_555 1_555
C24_6 C23_6 1_555 1_555
H15_6 C24_6 1_555 1_555
C25_6 N2_6 1_555 1_555
H16_6 C25_6 1_555 1_555
C26_6 C20_6 1_555 1_555
C27_6 Si1_6 1_555 1_555
C28_6 C27_6 1_555 1_555
H17_6 C28_6 1_555 1_555
C29_6 C28_6 1_555 1_555
H18_6 C29_6 1_555 1_555
C30_6 C29_6 1_555 1_555
C31_6 C30_6 1_555 1_555
H19_6 C31_6 1_555 1_555
C32_6 C27_6 1_555 1_555
H20_4 C32_6 1_555 1_555
C33_6 C30_6 1_555 1_555
N6_3 C34_6 1_555 1_555
C34_6 H21_6 1_555 1_555
C35_6 C34_6 1_555 1_555
H22_6 C35_6 1_555 1_555
C36_6 C35_6 1_555 1_555
C37_6 C36_6 1_555 1_555
H23_6 C37_6 1_555 1_555
C38_6 N6_3 1_555 1_555
H24_6 C38_6 1_555 1_555
C39_6 C33_6 1_555 1_555
C40_6 Si1_6 1_555 1_555
C41_6 C40_6 1_555 1_555
H27_4 C44_6 1_555 1_555
C45_6 C40_6 1_555 1_555
H28_6 C45_6 1_555 1_555
N5_4 Cu2_2 1_555 1_555
N7_4 Cu2_2 1_555 1_555
C5_4 C6_4 1_555 1_555
C18_4 C19_4 1_555 1_555
C23_6 C26_6 1_555 1_555
C24_6 C25_6 1_555 1_555
C31_6 C32_6 1_555 1_555
C36_6 C39_6 1_555 1_555
C37_6 C38_6 1_555 1_555
C44_6 C45_6 1_555 1_555
O1_6 H32_6 1_555 1_555
O1_6 H33_6 1_555 1_555
O2_6 H34_6 1_555 1_555
O2_6 H35_6 1_555 1_555
C27_7 Si1_7 1_555 1_555
C28_7 C27_7 1_555 1_555
H17_7 C28_7 1_555 1_555
C29_7 C28_7 1_555 1_555
H18_7 C29_7 1_555 1_555
C30_7 C29_7 1_555 1_555
C31_7 C30_7 1_555 1_555
H19_7 C31_7 1_555 1_555
C32_7 C27_7 1_555 1_555
C33_7 C30_7 1_555 1_555
N3_4 C34_7 1_555 1_555
C34_7 H21_7 1_555 1_555
C35_7 C34_7 1_555 1_555
H22_7 C35_7 1_555 1_555
C36_7 C35_7 1_555 1_555
C37_7 C36_7 1_555 1_555
H23_7 C37_7 1_555 1_555
C38_7 N3_4 1_555 1_555
H24_7 C38_7 1_555 1_555
C39_7 C33_7 1_555 1_555
C40_7 Si1_7 1_555 1_555
C41_7 C40_7 1_555 1_555
H25_5 C41_7 1_555 1_555
C42_5 C41_7 1_555 1_555
H26_5 C42_5 1_555 1_555
C43_5 C42_5 1_555 1_555
C44_7 C43_5 1_555 1_555
C45_7 C40_7 1_555 1_555
H28_7 C45_7 1_555 1_555
Cu4_2 N3_4 1_555 1_555
C31_7 C32_7 1_555 1_555
C36_7 C39_7 1_555 1_555
C37_7 C38_7 1_555 1_555
C44_7 C45_7 1_555 1_555
C1_5 C2_5 1_555 1_555
C3_5 C2_5 1_555 1_555
H2_5 C3_5 1_555 1_555
C4_7 C3_5 1_555 1_555
C5_5 C4_7 1_555 1_555
H3_7 C5_5 1_555 1_555
C6_5 C1_5 1_555 1_555
H4_5 C6_5 1_555 1_555
C7_7 C4_7 1_555 1_555
N5_4 C8_7 1_555 1_555
C8_7 H5_7 1_555 1_555
C9_7 C8_7 1_555 1_555
H6_7 C9_7 1_555 1_555
C10_7 C9_7 1_555 1_555
C11_7 C10_7 1_555 1_555
H7_7 C11_7 1_555 1_555
C12_7 N5_4 1_555 1_555
H8_7 C12_7 1_555 1_555
C13_7 C7_7 1_555 1_555
C15_5 C14_5 1_555 1_555
C18_5 C17_5 1_555 1_555
H11_5 C18_5 1_555 1_555
C19_5 C14_5 1_555 1_555
H12_5 C19_5 1_555 1_555
C5_5 C6_5 1_555 1_555
C10_7 C13_7 1_555 1_555
C11_7 C12_7 1_555 1_555
C18_5 C19_5 1_555 1_555
N7_3 C47_7 1_555 1_555
C47_7 H29_7 1_555 1_555
C48_7 C47_7 1_555 1_555
C49_7 C48_7 1_555 1_555
C50_7 C49_7 1_555 1_555
C51_7 N7_3 1_555 1_555
H31_7 C51_7 1_555 1_555
C52_7 C46_7 1_555 1_555
C49_7 C52_7 1_555 1_555
C50_7 C51_7 1_555 1_555
C50_7 H36_7 1_555 1_555
Cu3_2 O1_7 1_555 1_555
O2_7 Cu3_2 1_555 1_555
H10_7 C16_7 1_555 1_555
N2_7 Cu3_2 1_555 1_555
C21_7 N2_7 1_555 1_555
H13_7 C21_7 1_555 1_555
C22_7 C21_7 1_555 1_555
H14_7 C22_7 1_555 1_555
C23_7 C22_7 1_555 1_555
C24_7 C23_7 1_555 1_555
H15_7 C24_7 1_555 1_555
C25_7 N2_7 1_555 1_555
H16_7 C25_7 1_555 1_555
C26_7 C20_7 1_555 1_555
N6_4 Cu3_2 1_555 1_555
C23_7 C26_7 1_555 1_555
C24_7 C25_7 1_555 1_555
O1_7 H32_7 1_555 1_555
O1_7 H33_7 1_555 1_555
O2_7 H34_7 1_555 1_555
O2_7 H35_7 1_555 1_555
Cu4_2 O1_8 1_555 1_555
O2_8 Cu4_2 1_555 1_555
Si1_8 C1_6 1_555 1_555
C1_6 C2_6 1_555 1_555
C2_6 H1_8 1_555 1_555
C3_6 C2_6 1_555 1_555
H2_6 C3_6 1_555 1_555
C4_8 C3_6 1_555 1_555
C5_6 C4_8 1_555 1_555
H3_8 C5_6 1_555 1_555
C6_6 C1_6 1_555 1_555
H4_6 C6_6 1_555 1_555
C7_8 C4_8 1_555 1_555
N5_3 C8_8 1_555 1_555
C8_8 H5_8 1_555 1_555
C9_8 C8_8 1_555 1_555
H6_8 C9_8 1_555 1_555
C10_8 C9_8 1_555 1_555
C11_8 C10_8 1_555 1_555
H7_8 C11_8 1_555 1_555
C12_8 N5_3 1_555 1_555
H8_8 C12_8 1_555 1_555
C13_8 C7_8 1_555 1_555
C14_6 Si1_8 1_555 1_555
C15_6 C14_6 1_555 1_555
H9_6 C15_6 1_555 1_555
C16_8 C15_6 1_555 1_555
H10_8 C16_8 1_555 1_555
C17_6 C16_8 1_555 1_555
C18_6 C17_6 1_555 1_555
H11_6 C18_6 1_555 1_555
C19_6 C14_6 1_555 1_555
H12_6 C19_6 1_555 1_555
C20_8 C17_6 1_555 1_555
N2_8 Cu4_2 1_555 1_555
C21_8 N2_8 1_555 1_555
H13_8 C21_8 1_555 1_555
C22_8 C21_8 1_555 1_555
H14_8 C22_8 1_555 1_555
C23_8 C22_8 1_555 1_555
C24_8 C23_8 1_555 1_555
H15_8 C24_8 1_555 1_555
C25_8 N2_8 1_555 1_555
H16_8 C25_8 1_555 1_555
C26_8 C20_8 1_555 1_555
C27_8 Si1_8 1_555 1_555
C28_8 C27_8 1_555 1_555
H17_8 C28_8 1_555 1_555
C29_8 C28_8 1_555 1_555
H18_8 C29_8 1_555 1_555
C30_8 C29_8 1_555 1_555
C31_8 C30_8 1_555 1_555
H19_8 C31_8 1_555 1_555
C32_8 C27_8 1_555 1_555
H20_6 C32_8 1_555 1_555
C33_8 C30_8 1_555 1_555
N6_4 C34_8 1_555 1_555
C34_8 H21_8 1_555 1_555
C35_8 C34_8 1_555 1_555
H22_8 C35_8 1_555 1_555
C36_8 C35_8 1_555 1_555
C37_8 C36_8 1_555 1_555
H23_8 C37_8 1_555 1_555
C38_8 N6_4 1_555 1_555
H24_8 C38_8 1_555 1_555
C39_8 C33_8 1_555 1_555
C40_8 Si1_8 1_555 1_555
C41_8 C40_8 1_555 1_555
H25_6 C41_8 1_555 1_555
C42_6 C41_8 1_555 1_555
H26_6 C42_6 1_555 1_555
C43_6 C42_6 1_555 1_555
C44_8 C43_6 1_555 1_555
H27_6 C44_8 1_555 1_555
C45_8 C40_8 1_555 1_555
H28_8 C45_8 1_555 1_555
C46_8 C43_6 1_555 1_555
N7_4 C47_8 1_555 1_555
C47_8 H29_8 1_555 1_555
C48_8 C47_8 1_555 1_555
H30_6 C48_8 1_555 1_555
C49_8 C48_8 1_555 1_555
C50_8 C49_8 1_555 1_555
C51_8 N7_4 1_555 1_555
H31_8 C51_8 1_555 1_555
C52_8 C46_8 1_555 1_555
C5_6 C6_6 1_555 1_555
C10_8 C13_8 1_555 1_555
C11_8 C12_8 1_555 1_555
C18_6 C19_6 1_555 1_555
C23_8 C26_8 1_555 1_555
C24_8 C25_8 1_555 1_555
C31_8 C32_8 1_555 1_555
C36_8 C39_8 1_555 1_555
C37_8 C38_8 1_555 1_555
C44_8 C45_8 1_555 1_555
C49_8 C52_8 1_555 1_555
C50_8 C51_8 1_555 1_555
O1_8 H32_8 1_555 1_555
O1_8 H33_8 1_555 1_555
O2_8 H34_8 1_555 1_555
O2_8 H35_8 1_555 1_555
C50_8 H36_8 1_555 1_555
C1_7 C2_7 1_555 1_555
C3_7 C2_7 1_555 1_555
H2_7 C3_7 1_555 1_555
C6_7 C1_7 1_555 1_555
H4_7 C6_7 1_555 1_555
C15_7 C14_7 1_555 1_555
C18_7 C17_7 1_555 1_555
H11_7 C18_7 1_555 1_555
C19_7 C14_7 1_555 1_555
H12_7 C19_7 1_555 1_555
C5_7 C6_7 1_555 1_555
C18_7 C19_7 1_555 1_555
H26_7 C42_7 1_555 1_555
C43_7 C42_7 1_555 1_555
H26_8 C42_8 1_555 1_555
C43_8 C42_8 1_555 1_555
C1_8 C2_8 1_555 1_555
C3_8 C2_8 1_555 1_555
H2_8 C3_8 1_555 1_555
C6_8 C1_8 1_555 1_555
H4_8 C6_8 1_555 1_555
C15_8 C14_8 1_555 1_555
C18_8 C17_8 1_555 1_555
H11_8 C18_8 1_555 1_555
C19_8 C14_8 1_555 1_555
H12_8 C19_8 1_555 1_555
C5_8 C6_8 1_555 1_555
C18_8 C19_8 1_555 1_555

#END
