
###############################################################################
#
# This file contains modified crystal structure data generated from the
# MOF subset of the Cambridge Structural Database (CSD) v543 
# hosted by the Cambridge Crystallographic Data Centre (CCDC).
#
# This work is licensed under the Creative Commons
# Attribution-NonCommercial-ShareAlike 4.0 International License.
# To view a copy of this license, visit
# http://creativecommons.org/licenses/by-nc-sa/4.0/
# or send a letter to
# Creative Commons, PO Box 1866, Mountain View, CA 94042, USA.
#
# CIF created using the CSD Python API on 29 September 2022
# The structure has been converted into the P1 space group
# The structure has a 3D framework
# The original CSD entry KUVMUL is in the triclinic crystal system
# The framework has been calculated to contain at least 10.0% void space
# The void calculation uses a probe of radius 1.32A, grid spacing 0.4
#
###############################################################################

data_KUVMUL
_chemical_formula_moiety         '(C240 H176 Cu8 N16 O32 Si4)n'
_symmetry_cell_setting           triclinic
_symmetry_space_group_name_H-M   'P 1'
_symmetry_Int_Tables_number      1
_space_group_name_Hall           'P 1'
loop_
_symmetry_equiv_pos_site_id
_symmetry_equiv_pos_as_xyz
1 x,y,z
_cell_length_a                   18.695(3)
_cell_length_b                   20.122(3)
_cell_length_c                   21.068(4)
_cell_angle_alpha                111.924(4)
_cell_angle_beta                 92.824(5)
_cell_angle_gamma                94.973(5)
_cell_volume                     7295.91
loop_
_atom_site_label
_atom_site_type_symbol
_atom_site_fract_x
_atom_site_fract_y
_atom_site_fract_z
Cu2 Cu 0.46973(16) 0.26075(13) 0.01415(12)
C111 C 0.5607(15) 0.1783(12) 0.0529(12)
C112 C 0.5755(14) 0.1320(13) 0.0975(12)
H74 H 0.5670 0.0806 0.0683
H75 H 0.5431 0.1428 0.1344
H76 H 0.6257 0.1440 0.1176
O7 O 0.5051(9) 0.2059(8) 0.0676(7)
O8 O 0.6088(9) 0.1785(8) 0.0146(8)
N9 N 0.3760(8) 0.2854(8) 0.0828(7)
N10 N 0.5377(9) 0.3496(8) 0.0713(7)
Si2 Si 0.8993(3) 0.8631(3) 0.4151(3)
C53 C 0.9168(9) 0.8596(8) 0.5025(6)
C54 C 0.9224(11) 0.9195(9) 0.5618(7)
H33 H 0.9153 0.9641 0.5582
C55 C 0.9377(10) 0.9196(8) 0.6265(8)
H34 H 0.9467 0.9638 0.6652
C56 C 0.9397(11) 0.8548(8) 0.6341(7)
C57 C 0.9336(11) 0.7938(9) 0.5761(8)
H35 H 0.9367 0.7487 0.5803
C58 C 0.9232(11) 0.7955(8) 0.5117(8)
H36 H 0.9204 0.7518 0.4726
C59 C 0.9511(11) 0.8507(10) 0.7004(8)
N5 N 0.9961(11) 0.7963(10) 0.9280(9)
C60 C 0.9288(11) 0.7965(11) 0.9071(10)
H37 H 0.8905 0.7851 0.9307
C61 C 0.9141(10) 0.8140(12) 0.8485(10)
H38 H 0.8661 0.8132 0.8310
C62 C 0.9720(10) 0.8321(11) 0.8183(8)
C65 C 0.9591(10) 0.8455(10) 0.7548(8)
C66 C 0.8417(8) 0.7776(7) 0.3589(8)
C67 C 0.7674(8) 0.7740(9) 0.3499(10)
H41 H 0.7445 0.8161 0.3716
C68 C 0.7257(9) 0.7099(9) 0.3097(9)
H42 H 0.6746 0.7072 0.3055
C69 C 0.7601(8) 0.6505(8) 0.2761(8)
C70 C 0.8333(8) 0.6521(8) 0.2820(8)
H43 H 0.8561 0.6107 0.2579
C71 C 0.8735(9) 0.7160(8) 0.3244(8)
H44 H 0.9244 0.7176 0.3299
C72 C 0.7175(10) 0.5866(9) 0.2290(9)
C73 C 0.6089(10) 0.3472(10) 0.0664(10)
H45 H 0.6260 0.3055 0.0347
C74 C 0.6589(10) 0.4070(10) 0.1085(10)
H46 H 0.7094 0.4040 0.1088
C75 C 0.6321(9) 0.4692(8) 0.1486(9)
C76 C 0.5595(9) 0.4711(9) 0.1531(9)
H47 H 0.5410 0.5130 0.1830
C77 C 0.5127(9) 0.4090(9) 0.1120(9)
H48 H 0.4621 0.4100 0.1137
C78 C 0.6798(10) 0.5326(10) 0.1938(10)
C79 C 0.8528(8) 0.9449(7) 0.4255(8)
C80 C 0.8824(9) 0.9988(8) 0.4041(8)
H49 H 0.9261 0.9934 0.3825
C84 C 0.7919(8) 0.9572(8) 0.4594(8)
H52 H 0.7731 0.9230 0.4772
C92 C 0.9852(6) 0.8665(9) 0.3744(7)
C93 C 0.9811(8) 0.8612(9) 0.3058(7)
H57 H 0.9354 0.8511 0.2803
C117 C 0.9838(10) 0.6269(10) 0.9118(10)
C118 C 0.9310(11) 0.5563(10) 0.8683(10)
H83 H 0.8870 0.5557 0.8916
H84 H 0.9549 0.5135 0.8640
H85 H 0.9185 0.5560 0.8225
O14 O 0.9484(9) 0.6702(9) 0.9509(9)
C2 C 0.0505(7) 0.3777(9) 0.3993(8)
H1 H 0.0582 0.3847 0.4464
C3 C 0.1096(8) 0.3732(9) 0.3620(7)
H2 H 0.1567 0.3769 0.3831
C4 C 0.0993(8) 0.3634(10) 0.2934(7)
C5 C 0.0307(8) 0.3578(9) 0.2642(8)
H3 H 0.0232 0.3495 0.2168
C7 C 0.1579(9) 0.3524(11) 0.2516(9)
C8 C 0.3257(9) 0.3254(10) 0.0746(9)
H5 H 0.3281 0.3410 0.0373
C9 C 0.2694(10) 0.3462(10) 0.1172(9)
H6 H 0.2374 0.3779 0.1110
C10 C 0.2619(9) 0.3193(9) 0.1684(8)
C11 C 0.3134(9) 0.2780(9) 0.1766(9)
H7 H 0.3108 0.2604 0.2125
C12 C 0.3694(9) 0.2609(9) 0.1339(8)
H8 H 0.4035 0.2314 0.1410
C13 C 0.2041(9) 0.3386(10) 0.2132(9)
C21 C 0.0320(10) 0.3124(11) 0.9056(9)
H13 H 0.0769 0.3200 0.9317
C22 C 0.0255(9) 0.3375(10) 0.8511(9)
H14 H 0.0653 0.3639 0.8416
O16 O 0.0124(11) 0.1188(11) 0.9020(11)
N3 N 0.4186(9) 0.1680(8) 0.9409(7)
C34 C 0.3480(10) 0.1607(10) 0.9262(11)
H21 H 0.3213 0.2004 0.9462
C35 C 0.3123(10) 0.0933(9) 0.8806(10)
H22 H 0.2615 0.0870 0.8704
C36 C 0.3527(8) 0.0373(8) 0.8515(8)
C37 C 0.4262(9) 0.0472(9) 0.8632(9)
H23 H 0.4543 0.0093 0.8411
C38 C 0.4595(9) 0.1157(9) 0.9096(9)
H24 H 0.5105 0.1243 0.9184
C109 C 0.4649(14) 0.3158(12) 0.9183(12)
C110 C 0.4277(14) 0.3525(14) 0.8726(13)
H71 H 0.4267 0.3213 0.8240
H72 H 0.4550 0.3992 0.8808
H73 H 0.3783 0.3599 0.8849
O5 O 0.4273(8) 0.3140(7) 0.9633(7)
O6 O 0.5170(9) 0.2865(8) 0.8984(7)
H61 H 0.4525 0.0185 0.2825
Si1 Si 0.1019(3) 0.6330(3) 0.5834(2)
C1 C 0.0187(6) 0.6274(8) 0.6278(7)
C6 C 0.0272(8) 0.6359(9) 0.6971(7)
H4 H 0.0740 0.6373 0.7176
C14 C 0.0825(9) 0.6394(7) 0.4977(6)
C15 C 0.1042(9) 0.7027(7) 0.4880(7)
H9 H 0.1265 0.7437 0.5257
C16 C 0.0936(10) 0.7065(9) 0.4242(7)
H10 H 0.1079 0.7504 0.4186
C17 C 0.0626(10) 0.6478(8) 0.3688(7)
C18 C 0.0405(10) 0.5847(8) 0.3766(8)
H11 H 0.0155 0.5451 0.3393
C19 C 0.0552(10) 0.5797(8) 0.4396(7)
H12 H 0.0463 0.5341 0.4433
C20 C 0.0557(11) 0.6525(9) 0.3026(8)
N2 N 0.0252(9) 0.7217(9) 0.0804(8)
C23 C 0.0393(9) 0.6769(10) 0.1874(8)
C24 C 0.0981(9) 0.7108(10) 0.1704(8)
H15 H 0.1438 0.7192 0.1956
C25 C 0.0885(10) 0.7329(10) 0.1147(9)
H16 H 0.1284 0.7561 0.1018
C26 C 0.0453(11) 0.6610(10) 0.2501(8)
C27 C 0.1593(7) 0.7178(7) 0.6423(7)
C28 C 0.2333(8) 0.7215(8) 0.6530(8)
H17 H 0.2563 0.6795 0.6310
C29 C 0.2753(8) 0.7849(8) 0.6951(8)
H18 H 0.3259 0.7861 0.7034
C30 C 0.2412(8) 0.8454(8) 0.7243(8)
C31 C 0.1672(8) 0.8442(8) 0.7130(8)
H19 H 0.1445 0.8866 0.7336
C32 C 0.1272(8) 0.7803(7) 0.6715(8)
H20 H 0.0767 0.7794 0.6627
C33 C 0.2817(9) 0.9122(8) 0.7667(9)
C39 C 0.3164(10) 0.9673(9) 0.8043(10)
C40 C 0.1492(8) 0.5505(7) 0.5678(7)
C41 C 0.1311(9) 0.5007(7) 0.5969(8)
H25 H 0.0945 0.5084 0.6277
C42 C 0.1663(8) 0.4396(8) 0.5811(8)
H26 H 0.1537 0.4064 0.6022
C43 C 0.2183(9) 0.4251(8) 0.5365(8)
C44 C 0.2381(9) 0.4748(8) 0.5076(8)
H27 H 0.2750 0.4670 0.4770
C45 C 0.2030(8) 0.5359(8) 0.5241(8)
H28 H 0.2169 0.5698 0.5041
C46 C 0.2529(10) 0.3615(9) 0.5222(9)
N4 N 0.4030(10) 0.1324(9) 0.4762(9)
C47 C 0.4374(11) 0.1988(11) 0.5001(13)
H29 H 0.4883 0.2058 0.5097
C48 C 0.3987(11) 0.2591(11) 0.5114(13)
H30 H 0.4231 0.3065 0.5306
C49 C 0.3261(10) 0.2484(9) 0.4944(11)
C50 C 0.2913(10) 0.1790(10) 0.4649(11)
H31 H 0.2412 0.1700 0.4508
C51 C 0.3337(10) 0.1223(10) 0.4568(10)
H32 H 0.3110 0.0742 0.4362
C52 C 0.2847(10) 0.3097(9) 0.5044(10)
Cu1 Cu 0.46422(17) 0.04946(12) 0.49109(14)
Cu4 Cu 0.0064(3) 0.76081(15) 0.00691(15)
C105 C 0.5957(10) 0.0970(9) 0.5738(10)
C106 C 0.6568(10) 0.1542(10) 0.6218(10)
H65 H 0.6508 0.1608 0.6697
H66 H 0.6541 0.2001 0.6162
H67 H 0.7038 0.1374 0.6097
O1 O 0.5430(7) 0.1160(7) 0.5509(6)
O2 O 0.6060(7) 0.0340(7) 0.5682(6)
H69 H 0.6365 0.0350 0.3414
O3 O 0.5204(8) 0.0350(7) 0.4094(7)
C119 C 0.0510(10) 0.8827(10) 0.0856(10)
C120 C 0.0889(12) 0.9630(10) 0.1358(11)
H86 H 0.0649 0.9997 0.1255
H87 H 0.1400 0.9678 0.1280
H88 H 0.0844 0.9697 0.1838
O15 O 0.0995(9) 0.8520(8) 0.0566(8)
O18 O 0.4161(7) 0.0490(7) 0.5757(6)
C107 C 0.4313(10) 0.0046(10) 0.6003(9)
C108 C 0.3894(11) 0.0119(11) 0.6650(9)
H68 H 0.3548 0.0472 0.6709
H70 H 0.4236 0.0279 0.7060
C63 C 0.0414(10) 0.8363(13) 0.8452(11)
H39 H 0.0810 0.8524 0.8261
C64 C 0.0524(11) 0.8160(14) 0.9022(11)
H40 H 0.0998 0.8167 0.9212
C94 C 0.0419(8) 0.8706(9) 0.2752(8)
H58 H 0.0382 0.8676 0.2291
C95 C 0.1083(8) 0.8843(10) 0.3111(8)
C96 C 0.1141(8) 0.8876(9) 0.3779(8)
H59 H 0.1601 0.8951 0.4023
C97 C 0.0530(7) 0.8799(9) 0.4082(7)
H60 H 0.0574 0.8841 0.4546
C98 C 0.1718(10) 0.8983(12) 0.2821(10)
N8 N 0.4121(13) 0.9748(15) 0.1847(13)
C99 C 0.4119(12) 0.9914(16) 0.2521(13)
C100 C 0.3501(11) 0.9680(13) 0.2774(10)
H62 H 0.3498 0.9767 0.3249
C101 C 0.2910(10) 0.9330(13) 0.2334(10)
C102 C 0.2911(13) 0.9193(16) 0.1644(11)
H63 H 0.2490 0.8981 0.1339
C103 C 0.3565(15) 0.9380(19) 0.1404(12)
H64 H 0.3604 0.9240 0.0925
C104 C 0.2247(10) 0.9122(12) 0.2593(10)
O13 O 0.0426(10) 0.6250(9) 0.8897(9)
C107_2 C 0.5687(10) 0.9954(10) 0.3997(9)
C108_2 C 0.6106(11) 0.9881(11) 0.3350(9)
H68_2 H 0.6452 0.9528 0.3291
H70_2 H 0.5764 0.9721 0.2940
O4 O 0.5839(7) 0.9510(7) 0.4243(6)
Cu5 Cu 0.53578(17) 0.95054(12) 0.50891(14)
O17 O 0.3940(7) 0.9660(7) 0.4318(6)
Si1_2 Si 0.8981(3) 0.3670(3) 0.4166(2)
C1_2 C 0.9813(6) 0.3726(8) 0.3722(7)
C6_2 C 0.9728(8) 0.3641(9) 0.3029(7)
H4_2 H 0.9260 0.3627 0.2824
C14_2 C 0.9175(9) 0.3606(7) 0.5023(6)
C15_2 C 0.8958(9) 0.2973(7) 0.5120(7)
H9_2 H 0.8735 0.2563 0.4743
C16_2 C 0.9064(10) 0.2935(9) 0.5758(7)
H10_2 H 0.8921 0.2496 0.5814
C17_2 C 0.9374(10) 0.3522(8) 0.6312(7)
C18_2 C 0.9595(10) 0.4153(8) 0.6234(8)
H11_2 H 0.9845 0.4549 0.6607
C19_2 C 0.9448(10) 0.4203(8) 0.5604(7)
H12_2 H 0.9537 0.4659 0.5567
C20_2 C 0.9443(11) 0.3475(9) 0.6974(8)
N2_2 N 0.9748(9) 0.2783(9) 0.9196(8)
C23_2 C 0.9607(9) 0.3231(10) 0.8126(8)
C24_2 C 0.9019(9) 0.2892(10) 0.8296(8)
H15_2 H 0.8562 0.2808 0.8044
C25_2 C 0.9115(10) 0.2671(10) 0.8853(9)
H16_2 H 0.8716 0.2439 0.8982
C26_2 C 0.9547(11) 0.3390(10) 0.7499(8)
C27_2 C 0.8407(7) 0.2822(7) 0.3577(7)
C28_2 C 0.7667(8) 0.2785(8) 0.3470(8)
H17_2 H 0.7437 0.3205 0.3690
C29_2 C 0.7247(8) 0.2151(8) 0.3049(8)
H18_2 H 0.6741 0.2139 0.2966
C30_2 C 0.7588(8) 0.1546(8) 0.2757(8)
C31_2 C 0.8328(8) 0.1558(8) 0.2870(8)
H19_2 H 0.8555 0.1134 0.2664
C32_2 C 0.8728(8) 0.2197(7) 0.3285(8)
H20_2 H 0.9233 0.2206 0.3373
C33_2 C 0.7183(9) 0.0878(8) 0.2333(9)
C39_2 C 0.6836(10) 0.0327(9) 0.1957(10)
C40_2 C 0.8508(8) 0.4495(7) 0.4322(7)
C41_2 C 0.8689(9) 0.4993(7) 0.4031(8)
H25_2 H 0.9055 0.4916 0.3723
C42_2 C 0.8337(8) 0.5604(8) 0.4189(8)
H26_2 H 0.8463 0.5936 0.3978
C43_2 C 0.7817(9) 0.5749(8) 0.4635(8)
C44_2 C 0.7619(9) 0.5252(8) 0.4924(8)
H27_2 H 0.7250 0.5330 0.5230
C45_2 C 0.7970(8) 0.4641(8) 0.4759(8)
H28_2 H 0.7831 0.4302 0.4959
C46_2 C 0.7471(10) 0.6385(9) 0.4778(9)
N4_2 N 0.5970(10) 0.8676(9) 0.5238(9)
C47_2 C 0.5626(11) 0.8012(11) 0.4999(13)
H29_2 H 0.5117 0.7942 0.4903
C48_2 C 0.6013(11) 0.7409(11) 0.4886(13)
H30_2 H 0.5769 0.6935 0.4694
C49_2 C 0.6739(10) 0.7516(9) 0.5056(11)
C50_2 C 0.7087(10) 0.8210(10) 0.5351(11)
H31_2 H 0.7588 0.8300 0.5492
C51_2 C 0.6663(10) 0.8777(10) 0.5432(10)
H32_2 H 0.6890 0.9258 0.5638
C52_2 C 0.7153(10) 0.6903(9) 0.4956(10)
Cu4_2 Cu 0.9936(3) 0.23919(15) 0.99309(15)
C105_2 C 0.4043(10) 0.9030(9) 0.4262(10)
C106_2 C 0.3432(10) 0.8458(10) 0.3782(10)
H65_2 H 0.3492 0.8392 0.3303
H66_2 H 0.3459 0.7999 0.3838
H67_2 H 0.2962 0.8626 0.3903
O1_2 O 0.4570(7) 0.8840(7) 0.4491(6)
H69_2 H 0.3635 0.9650 0.6586
O3_2 O 0.4796(8) 0.9650(7) 0.5906(7)
C119_2 C 0.9490(10) 0.1173(10) 0.9144(10)
C120_2 C 0.9111(12) 0.0370(10) 0.8642(11)
H86_2 H 0.9351 0.0003 0.8745
H87_2 H 0.8600 0.0322 0.8720
H88_2 H 0.9156 0.0303 0.8162
O15_2 O 0.9005(9) 0.1480(8) 0.9434(8)
C81 C 0.8483(8) 0.0595(8) 0.4142(8)
H50 H 0.8680 0.0949 0.3983
C82 C 0.7865(8) 0.0691(8) 0.4470(8)
C83 C 0.7565(9) 0.0169(8) 0.4690(9)
H51 H 0.7126 0.0223 0.4902
C85 C 0.7490(10) 0.1314(9) 0.4587(9)
N7 N 0.5971(8) 0.3575(7) 0.4914(7)
C86 C 0.5744(10) 0.2917(9) 0.4454(9)
H53 H 0.5310 0.2851 0.4173
C87 C 0.6119(9) 0.2318(9) 0.4367(9)
H54 H 0.5949 0.1857 0.4027
C88 C 0.6742(9) 0.2415(8) 0.4789(8)
C89 C 0.6962(9) 0.3084(8) 0.5289(8)
H55 H 0.7380 0.3161 0.5593
C90 C 0.6549(9) 0.3649(9) 0.5338(9)
H56 H 0.6691 0.4108 0.5691
C91 C 0.7143(9) 0.1805(9) 0.4706(9)
Cu3 Cu 0.53728(14) 0.44702(12) 0.49721(12)
C113 C 0.5912(9) 0.5870(8) 0.5866(8)
C114 C 0.6503(9) 0.6404(9) 0.6418(8)
H77 H 0.6289 0.6631 0.6852
H78 H 0.6696 0.6776 0.6257
H79 H 0.6894 0.6137 0.6489
O9 O 0.6032(6) 0.5230(6) 0.5666(5)
O10 O 0.5393(7) 0.6140(6) 0.5717(6)
C115 C 0.4312(8) 0.4813(8) 0.5919(8)
C116 C 0.3912(11) 0.4708(11) 0.6516(9)
H80 H 0.3551 0.5049 0.6654
H81 H 0.4261 0.4795 0.6909
H82 H 0.3672 0.4214 0.6358
O11 O 0.4782(7) 0.4405(6) 0.5714(6)
O12 O 0.4152(7) 0.5324(6) 0.5777(6)
Cu8 Cu 0.46272(14) 0.55298(12) 0.50279(12)
O19 O 0.4607(7) 0.3860(6) 0.4283(6)
O20 O 0.5848(7) 0.4676(6) 0.4223(6)
C81_2 C 0.1517(8) 0.9405(8) 0.5858(8)
H50_2 H 0.1320 0.9051 0.6017
C82_2 C 0.2135(8) 0.9309(8) 0.5530(8)
C83_2 C 0.2435(9) 0.9831(8) 0.5310(9)
H51_2 H 0.2874 0.9777 0.5098
C85_2 C 0.2510(10) 0.8686(9) 0.5413(9)
N7_2 N 0.4029(8) 0.6425(7) 0.5086(7)
C86_2 C 0.4256(10) 0.7083(9) 0.5546(9)
H53_2 H 0.4690 0.7149 0.5827
C87_2 C 0.3881(9) 0.7682(9) 0.5633(9)
H54_2 H 0.4051 0.8143 0.5973
C88_2 C 0.3258(9) 0.7585(8) 0.5211(8)
C89_2 C 0.3038(9) 0.6916(8) 0.4711(8)
H55_2 H 0.2620 0.6839 0.4407
C90_2 C 0.3451(9) 0.6351(9) 0.4662(9)
H56_2 H 0.3309 0.5892 0.4309
C91_2 C 0.2857(9) 0.8195(9) 0.5294(9)
C113_2 C 0.4088(9) 0.4130(8) 0.4134(8)
C114_2 C 0.3497(9) 0.3596(9) 0.3582(8)
H77_2 H 0.3711 0.3369 0.3148
H78_2 H 0.3304 0.3224 0.3743
H79_2 H 0.3106 0.3863 0.3511
O9_2 O 0.3968(6) 0.4770(6) 0.4334(5)
C115_2 C 0.5688(8) 0.5187(8) 0.4081(8)
C116_2 C 0.6088(11) 0.5292(11) 0.3484(9)
H80_2 H 0.6449 0.4951 0.3346
H81_2 H 0.5739 0.5205 0.3091
H82_2 H 0.6328 0.5786 0.3642
O11_2 O 0.5218(7) 0.5595(6) 0.4286(6)
C2_2 C 0.9495(7) 0.6223(9) 0.6007(8)
H1_2 H 0.9418 0.6153 0.5536
C3_2 C 0.8904(8) 0.6268(9) 0.6380(7)
H2_2 H 0.8433 0.6231 0.6169
C4_2 C 0.9007(8) 0.6366(10) 0.7066(7)
C5_2 C 0.9693(8) 0.6422(9) 0.7358(8)
H3_2 H 0.9768 0.6505 0.7832
C7_2 C 0.8421(9) 0.6476(11) 0.7484(9)
N1 N 0.6240(8) 0.7146(8) 0.9172(7)
C8_2 C 0.6743(9) 0.6746(10) 0.9254(9)
H5_2 H 0.6719 0.6590 0.9627
C9_2 C 0.7306(10) 0.6538(10) 0.8828(9)
H6_2 H 0.7626 0.6221 0.8890
C10_2 C 0.7381(9) 0.6807(9) 0.8316(8)
C11_2 C 0.6866(9) 0.7220(9) 0.8234(9)
H7_2 H 0.6892 0.7396 0.7875
C12_2 C 0.6306(9) 0.7391(9) 0.8661(8)
H8_2 H 0.5965 0.7686 0.8590
C13_2 C 0.7959(9) 0.6614(10) 0.7868(9)
C21_2 C 0.9680(10) 0.6876(11) 0.0944(9)
H13_2 H 0.9231 0.6800 0.0683
C22_2 C 0.9745(9) 0.6625(10) 0.1489(9)
H14_2 H 0.9347 0.6361 0.1584
O16_2 O 0.9876(11) 0.8812(11) 0.0980(11)
Cu7 Cu 0.53027(16) 0.73925(13) 0.98585(12)
Si2_2 Si 0.1007(3) 0.1369(3) 0.5849(3)
C53_2 C 0.0832(9) 0.1404(8) 0.4975(6)
C54_2 C 0.0776(11) 0.0805(9) 0.4382(7)
H33_2 H 0.0847 0.0359 0.4418
C55_2 C 0.0623(10) 0.0804(8) 0.3735(8)
H34_2 H 0.0533 0.0362 0.3348
C56_2 C 0.0603(11) 0.1452(8) 0.3659(7)
C57_2 C 0.0664(11) 0.2062(9) 0.4239(8)
H35_2 H 0.0633 0.2513 0.4197
C58_2 C 0.0768(11) 0.2045(8) 0.4883(8)
H36_2 H 0.0796 0.2482 0.5274
C59_2 C 0.0489(11) 0.1493(10) 0.2996(8)
N5_2 N 0.0039(11) 0.2037(10) 0.0720(9)
C60_2 C 0.0712(11) 0.2035(11) 0.0929(10)
H37_2 H 0.1095 0.2149 0.0693
C61_2 C 0.0859(10) 0.1860(12) 0.1515(10)
H38_2 H 0.1339 0.1868 0.1690
C62_2 C 0.0280(10) 0.1679(11) 0.1817(8)
C65_2 C 0.0409(10) 0.1545(10) 0.2452(8)
C66_2 C 0.1583(8) 0.2224(7) 0.6411(8)
C67_2 C 0.2326(8) 0.2260(9) 0.6501(10)
H41_2 H 0.2555 0.1839 0.6284
C68_2 C 0.2743(9) 0.2901(9) 0.6903(9)
H42_2 H 0.3254 0.2928 0.6945
C69_2 C 0.2399(8) 0.3495(8) 0.7239(8)
C70_2 C 0.1667(8) 0.3479(8) 0.7180(8)
H43_2 H 0.1439 0.3893 0.7421
C71_2 C 0.1265(9) 0.2840(8) 0.6756(8)
H44_2 H 0.0756 0.2824 0.6701
C72_2 C 0.2825(10) 0.4134(9) 0.7710(9)
N6 N 0.4623(9) 0.6504(8) 0.9287(7)
C73_2 C 0.3911(10) 0.6528(10) 0.9336(10)
H45_2 H 0.3740 0.6945 0.9653
C74_2 C 0.3411(10) 0.5930(10) 0.8915(10)
H46_2 H 0.2906 0.5960 0.8912
C75_2 C 0.3679(9) 0.5308(8) 0.8514(9)
C76_2 C 0.4405(9) 0.5289(9) 0.8469(9)
H47_2 H 0.4590 0.4870 0.8170
C77_2 C 0.4873(9) 0.5910(9) 0.8880(9)
H48_2 H 0.5379 0.5900 0.8863
C78_2 C 0.3202(10) 0.4674(10) 0.8062(10)
C79_2 C 0.1472(8) 0.0551(7) 0.5745(8)
C80_2 C 0.1176(9) 0.0012(8) 0.5959(8)
H49_2 H 0.0739 0.0066 0.6175
C84_2 C 0.2081(8) 0.0428(8) 0.5406(8)
H52_2 H 0.2269 0.0770 0.5228
C92_2 C 0.0148(6) 0.1335(9) 0.6256(7)
C93_2 C 0.0189(8) 0.1388(9) 0.6942(7)
H57_2 H 0.0646 0.1489 0.7197
C117_2 C 0.0162(10) 0.3731(10) 0.0882(10)
C118_2 C 0.0690(11) 0.4437(10) 0.1317(10)
H83_2 H 0.1130 0.4443 0.1084
H84_2 H 0.0451 0.4865 0.1360
H85_2 H 0.0815 0.4440 0.1775
O14_2 O 0.0516(9) 0.3298(9) 0.0491(9)
C111_2 C 0.4393(15) 0.8217(12) 0.9471(12)
C112_2 C 0.4245(14) 0.8680(13) 0.9025(12)
H74_2 H 0.4330 0.9194 0.9317
H75_2 H 0.4569 0.8572 0.8656
H76_2 H 0.3743 0.8560 0.8824
O7_2 O 0.4949(9) 0.7941(8) 0.9324(7)
O8_2 O 0.3912(9) 0.8215(8) 0.9854(8)
C63_2 C 0.9586(10) 0.1637(13) 0.1548(11)
H39_2 H 0.9190 0.1476 0.1739
C64_2 C 0.9476(11) 0.1840(14) 0.0978(11)
H40_2 H 0.9002 0.1833 0.0788
C94_2 C 0.9581(8) 0.1294(9) 0.7248(8)
H58_2 H 0.9618 0.1324 0.7709
C95_2 C 0.8917(8) 0.1157(10) 0.6889(8)
C96_2 C 0.8859(8) 0.1124(9) 0.6221(8)
H59_2 H 0.8399 0.1049 0.5977
C97_2 C 0.9470(7) 0.1201(9) 0.5918(7)
H60_2 H 0.9426 0.1159 0.5454
C98_2 C 0.8282(10) 0.1017(12) 0.7179(10)
N8_2 N 0.5879(13) 0.0252(15) 0.8153(13)
C99_2 C 0.5881(12) 0.0086(16) 0.7479(13)
C100_2 C 0.6499(11) 0.0320(13) 0.7226(10)
H62_2 H 0.6502 0.0233 0.6751
C101_2 C 0.7090(10) 0.0670(13) 0.7666(10)
C102_2 C 0.7089(13) 0.0807(16) 0.8356(11)
H63_2 H 0.7510 0.1019 0.8661
C103_2 C 0.6435(15) 0.0620(19) 0.8596(12)
H64_2 H 0.6396 0.0760 0.9075
C104_2 C 0.7753(10) 0.0878(12) 0.7407(10)
O13_2 O 0.9574(10) 0.3750(9) 0.1103(9)
H61_2 H 0.5475 0.9815 0.7175
N3_2 N 0.5814(9) 0.8320(8) 0.0591(7)
C34_2 C 0.6520(10) 0.8393(10) 0.0738(11)
H21_2 H 0.6787 0.7996 0.0538
C35_2 C 0.6877(10) 0.9067(9) 0.1194(10)
H22_2 H 0.7385 0.9130 0.1296
C36_2 C 0.6473(8) 0.9627(8) 0.1485(8)
C37_2 C 0.5738(9) 0.9528(9) 0.1368(9)
H23_2 H 0.5457 0.9907 0.1589
C38_2 C 0.5405(9) 0.8843(9) 0.0904(9)
H24_2 H 0.4895 0.8757 0.0816
C109_2 C 0.5351(14) 0.6842(12) 0.0817(12)
C110_2 C 0.5723(14) 0.6475(14) 0.1274(13)
H71_2 H 0.5733 0.6787 0.1760
H72_2 H 0.5450 0.6008 0.1192
H73_2 H 0.6217 0.6401 0.1151
O5_2 O 0.5727(8) 0.6860(7) 0.0367(7)
O6_2 O 0.4830(9) 0.7135(8) 0.1016(7)
loop_
_geom_bond_atom_site_label_1
_geom_bond_atom_site_label_2
_geom_bond_site_symmetry_1
_geom_bond_site_symmetry_2
C111 C112 1_555 1_555
C112 H74 1_555 1_555
H75 C112 1_555 1_555
H76 C112 1_555 1_555
O7 Cu2 1_555 1_555
O8 C111 1_555 1_555
N9 Cu2 1_555 1_555
N10 Cu2 1_555 1_555
C111 O7 1_555 1_555
Si2 C53 1_555 1_555
C53 C54 1_555 1_555
C54 H33 1_555 1_555
C55 C54 1_555 1_555
H34 C55 1_555 1_555
C56 C55 1_555 1_555
C57 C56 1_555 1_555
H35 C57 1_555 1_555
C58 C53 1_555 1_555
H36 C58 1_555 1_555
C59 C56 1_555 1_555
N5 C60 1_555 1_555
C60 H37 1_555 1_555
C61 C60 1_555 1_555
H38 C61 1_555 1_555
C62 C61 1_555 1_555
C65 C59 1_555 1_555
C66 Si2 1_555 1_555
C67 C66 1_555 1_555
H41 C67 1_555 1_555
C68 C67 1_555 1_555
H42 C68 1_555 1_555
C69 C68 1_555 1_555
C70 C69 1_555 1_555
H43 C70 1_555 1_555
C71 C66 1_555 1_555
H44 C71 1_555 1_555
C72 C69 1_555 1_555
N10 C73 1_555 1_555
C73 H45 1_555 1_555
C74 C73 1_555 1_555
H46 C74 1_555 1_555
C75 C74 1_555 1_555
C76 C75 1_555 1_555
H47 C76 1_555 1_555
C77 N10 1_555 1_555
H48 C77 1_555 1_555
C78 C72 1_555 1_555
C79 Si2 1_555 1_555
C80 C79 1_555 1_555
H49 C80 1_555 1_555
C84 C79 1_555 1_555
H52 C84 1_555 1_555
C92 Si2 1_555 1_555
C93 C92 1_555 1_555
H57 C93 1_555 1_555
C117 C118 1_555 1_555
C118 H83 1_555 1_555
H84 C118 1_555 1_555
H85 C118 1_555 1_555
C57 C58 1_555 1_555
C62 C65 1_555 1_555
C70 C71 1_555 1_555
C75 C78 1_555 1_555
C76 C77 1_555 1_555
C117 O14 1_555 1_555
C2 H1 1_555 1_555
C3 C2 1_555 1_555
H2 C3 1_555 1_555
C4 C3 1_555 1_555
C5 C4 1_555 1_555
H3 C5 1_555 1_555
C7 C4 1_555 1_555
N9 C8 1_555 1_555
C8 H5 1_555 1_555
C9 C8 1_555 1_555
H6 C9 1_555 1_555
C10 C9 1_555 1_555
C11 C10 1_555 1_555
H7 C11 1_555 1_555
C12 N9 1_555 1_555
H8 C12 1_555 1_555
C13 C7 1_555 1_555
C21 H13 1_555 1_555
C22 C21 1_555 1_555
H14 C22 1_555 1_555
C10 C13 1_555 1_555
C11 C12 1_555 1_555
N3 C34 1_555 1_555
C34 H21 1_555 1_555
C35 C34 1_555 1_555
H22 C35 1_555 1_555
C36 C35 1_555 1_555
C37 C36 1_555 1_555
H23 C37 1_555 1_555
C38 N3 1_555 1_555
H24 C38 1_555 1_555
C109 C110 1_555 1_555
C110 H71 1_555 1_555
H72 C110 1_555 1_555
H73 C110 1_555 1_555
O6 C109 1_555 1_555
C37 C38 1_555 1_555
C109 O5 1_555 1_555
Si1 C1 1_555 1_555
C6 C1 1_555 1_555
H4 C6 1_555 1_555
C14 Si1 1_555 1_555
C15 C14 1_555 1_555
H9 C15 1_555 1_555
C16 C15 1_555 1_555
H10 C16 1_555 1_555
C17 C16 1_555 1_555
C18 C17 1_555 1_555
H11 C18 1_555 1_555
C19 C14 1_555 1_555
H12 C19 1_555 1_555
C20 C17 1_555 1_555
C24 C23 1_555 1_555
H15 C24 1_555 1_555
C25 N2 1_555 1_555
H16 C25 1_555 1_555
C26 C20 1_555 1_555
C27 Si1 1_555 1_555
C28 C27 1_555 1_555
H17 C28 1_555 1_555
C29 C28 1_555 1_555
H18 C29 1_555 1_555
C30 C29 1_555 1_555
C31 C30 1_555 1_555
H19 C31 1_555 1_555
C32 C27 1_555 1_555
H20 C32 1_555 1_555
C33 C30 1_555 1_555
C39 C33 1_555 1_555
C40 Si1 1_555 1_555
C41 C40 1_555 1_555
H25 C41 1_555 1_555
C42 C41 1_555 1_555
H26 C42 1_555 1_555
C43 C42 1_555 1_555
C44 C43 1_555 1_555
H27 C44 1_555 1_555
C45 C40 1_555 1_555
H28 C45 1_555 1_555
C46 C43 1_555 1_555
N4 C47 1_555 1_555
C47 H29 1_555 1_555
C48 C47 1_555 1_555
H30 C48 1_555 1_555
C49 C48 1_555 1_555
C50 C49 1_555 1_555
H31 C50 1_555 1_555
C51 N4 1_555 1_555
H32 C51 1_555 1_555
C52 C46 1_555 1_555
Cu1 N4 1_555 1_555
Cu4 N2 1_555 1_555
C105 C106 1_555 1_555
C106 H65 1_555 1_555
H66 C106 1_555 1_555
H67 C106 1_555 1_555
O1 Cu1 1_555 1_555
O2 C105 1_555 1_555
O3 Cu1 1_555 1_555
C119 C120 1_555 1_555
C120 H86 1_555 1_555
H87 C120 1_555 1_555
H88 C120 1_555 1_555
O15 Cu4 1_555 1_555
O18 Cu1 1_555 1_555
C18 C19 1_555 1_555
C23 C26 1_555 1_555
C24 C25 1_555 1_555
C31 C32 1_555 1_555
C44 C45 1_555 1_555
C49 C52 1_555 1_555
C50 C51 1_555 1_555
C105 O1 1_555 1_555
C119 O15 1_555 1_555
C107 C108 1_555 1_555
C108 H68 1_555 1_555
H70 C108 1_555 1_555
O18 C107 1_555 1_555
H39 C63 1_555 1_555
H40 C64 1_555 1_555
H58 C94 1_555 1_555
C95 C94 1_555 1_555
C96 C95 1_555 1_555
H59 C96 1_555 1_555
H60 C97 1_555 1_555
C98 C95 1_555 1_555
N8 C99 1_555 1_555
C100 C99 1_555 1_555
H62 C100 1_555 1_555
C101 C100 1_555 1_555
C102 C101 1_555 1_555
H63 C102 1_555 1_555
C103 N8 1_555 1_555
H64 C103 1_555 1_555
C104 C98 1_555 1_555
C63 C64 1_555 1_555
C96 C97 1_555 1_555
C101 C104 1_555 1_555
C102 C103 1_555 1_555
C107_2 C108_2 1_555 1_555
C108_2 H68_2 1_555 1_555
H70_2 C108_2 1_555 1_555
O4 C107_2 1_555 1_555
O4 Cu5 1_555 1_555
Si1_2 C1_2 1_555 1_555
C6_2 C1_2 1_555 1_555
H4_2 C6_2 1_555 1_555
C14_2 Si1_2 1_555 1_555
C15_2 C14_2 1_555 1_555
H9_2 C15_2 1_555 1_555
C16_2 C15_2 1_555 1_555
H10_2 C16_2 1_555 1_555
C17_2 C16_2 1_555 1_555
C18_2 C17_2 1_555 1_555
H11_2 C18_2 1_555 1_555
C19_2 C14_2 1_555 1_555
H12_2 C19_2 1_555 1_555
C20_2 C17_2 1_555 1_555
C24_2 C23_2 1_555 1_555
H15_2 C24_2 1_555 1_555
C25_2 N2_2 1_555 1_555
H16_2 C25_2 1_555 1_555
C26_2 C20_2 1_555 1_555
C27_2 Si1_2 1_555 1_555
C28_2 C27_2 1_555 1_555
H17_2 C28_2 1_555 1_555
C29_2 C28_2 1_555 1_555
H18_2 C29_2 1_555 1_555
C30_2 C29_2 1_555 1_555
C31_2 C30_2 1_555 1_555
H19_2 C31_2 1_555 1_555
C32_2 C27_2 1_555 1_555
H20_2 C32_2 1_555 1_555
C33_2 C30_2 1_555 1_555
C39_2 C33_2 1_555 1_555
C40_2 Si1_2 1_555 1_555
C41_2 C40_2 1_555 1_555
H25_2 C41_2 1_555 1_555
C42_2 C41_2 1_555 1_555
H26_2 C42_2 1_555 1_555
C43_2 C42_2 1_555 1_555
C44_2 C43_2 1_555 1_555
H27_2 C44_2 1_555 1_555
C45_2 C40_2 1_555 1_555
H28_2 C45_2 1_555 1_555
C46_2 C43_2 1_555 1_555
N4_2 C47_2 1_555 1_555
C47_2 H29_2 1_555 1_555
C48_2 C47_2 1_555 1_555
H30_2 C48_2 1_555 1_555
C49_2 C48_2 1_555 1_555
C50_2 C49_2 1_555 1_555
H31_2 C50_2 1_555 1_555
C51_2 N4_2 1_555 1_555
H32_2 C51_2 1_555 1_555
C52_2 C46_2 1_555 1_555
Cu5 N4_2 1_555 1_555
Cu4_2 N2_2 1_555 1_555
C105_2 C106_2 1_555 1_555
C106_2 H65_2 1_555 1_555
H66_2 C106_2 1_555 1_555
H67_2 C106_2 1_555 1_555
O1_2 Cu5 1_555 1_555
O17 C105_2 1_555 1_555
O3_2 Cu5 1_555 1_555
C119_2 C120_2 1_555 1_555
C120_2 H86_2 1_555 1_555
H87_2 C120_2 1_555 1_555
H88_2 C120_2 1_555 1_555
O15_2 Cu4_2 1_555 1_555
C18_2 C19_2 1_555 1_555
C23_2 C26_2 1_555 1_555
C24_2 C25_2 1_555 1_555
C31_2 C32_2 1_555 1_555
C44_2 C45_2 1_555 1_555
C49_2 C52_2 1_555 1_555
C50_2 C51_2 1_555 1_555
C105_2 O1_2 1_555 1_555
C119_2 O15_2 1_555 1_555
H50 C81 1_555 1_555
C82 C81 1_555 1_555
C83 C82 1_555 1_555
H51 C83 1_555 1_555
C85 C82 1_555 1_555
N7 C86 1_555 1_555
C86 H53 1_555 1_555
C87 C86 1_555 1_555
H54 C87 1_555 1_555
C88 C87 1_555 1_555
C89 C88 1_555 1_555
H55 C89 1_555 1_555
C90 N7 1_555 1_555
H56 C90 1_555 1_555
C91 C85 1_555 1_555
Cu3 N7 1_555 1_555
C113 C114 1_555 1_555
C114 H77 1_555 1_555
H78 C114 1_555 1_555
H79 C114 1_555 1_555
O9 Cu3 1_555 1_555
O10 C113 1_555 1_555
C115 C116 1_555 1_555
C116 H80 1_555 1_555
H81 C116 1_555 1_555
H82 C116 1_555 1_555
O11 Cu3 1_555 1_555
O12 C115 1_555 1_555
Cu8 Cu3 1_555 1_555
O19 Cu3 1_555 1_555
O20 Cu3 1_555 1_555
C88 C91 1_555 1_555
C89 C90 1_555 1_555
C113 O9 1_555 1_555
O10 Cu8 1_555 1_555
C115 O11 1_555 1_555
O12 Cu8 1_555 1_555
H50_2 C81_2 1_555 1_555
C82_2 C81_2 1_555 1_555
C83_2 C82_2 1_555 1_555
H51_2 C83_2 1_555 1_555
C85_2 C82_2 1_555 1_555
N7_2 C86_2 1_555 1_555
C86_2 H53_2 1_555 1_555
C87_2 C86_2 1_555 1_555
H54_2 C87_2 1_555 1_555
C88_2 C87_2 1_555 1_555
C89_2 C88_2 1_555 1_555
H55_2 C89_2 1_555 1_555
C90_2 N7_2 1_555 1_555
H56_2 C90_2 1_555 1_555
C91_2 C85_2 1_555 1_555
Cu8 N7_2 1_555 1_555
C113_2 C114_2 1_555 1_555
C114_2 H77_2 1_555 1_555
H78_2 C114_2 1_555 1_555
H79_2 C114_2 1_555 1_555
O9_2 Cu8 1_555 1_555
O19 C113_2 1_555 1_555
C115_2 C116_2 1_555 1_555
C116_2 H80_2 1_555 1_555
H81_2 C116_2 1_555 1_555
H82_2 C116_2 1_555 1_555
O11_2 Cu8 1_555 1_555
O20 C115_2 1_555 1_555
C88_2 C91_2 1_555 1_555
C89_2 C90_2 1_555 1_555
C113_2 O9_2 1_555 1_555
C115_2 O11_2 1_555 1_555
C2_2 H1_2 1_555 1_555
C3_2 C2_2 1_555 1_555
H2_2 C3_2 1_555 1_555
C4_2 C3_2 1_555 1_555
C5_2 C4_2 1_555 1_555
H3_2 C5_2 1_555 1_555
C7_2 C4_2 1_555 1_555
N1 C8_2 1_555 1_555
C8_2 H5_2 1_555 1_555
C9_2 C8_2 1_555 1_555
H6_2 C9_2 1_555 1_555
C10_2 C9_2 1_555 1_555
C11_2 C10_2 1_555 1_555
H7_2 C11_2 1_555 1_555
C12_2 N1 1_555 1_555
H8_2 C12_2 1_555 1_555
C13_2 C7_2 1_555 1_555
C21_2 H13_2 1_555 1_555
C22_2 C21_2 1_555 1_555
H14_2 C22_2 1_555 1_555
Cu7 N1 1_555 1_555
C10_2 C13_2 1_555 1_555
C11_2 C12_2 1_555 1_555
Si2_2 C53_2 1_555 1_555
C53_2 C54_2 1_555 1_555
C54_2 H33_2 1_555 1_555
C55_2 C54_2 1_555 1_555
H34_2 C55_2 1_555 1_555
C56_2 C55_2 1_555 1_555
C57_2 C56_2 1_555 1_555
H35_2 C57_2 1_555 1_555
C58_2 C53_2 1_555 1_555
H36_2 C58_2 1_555 1_555
C59_2 C56_2 1_555 1_555
N5_2 C60_2 1_555 1_555
C60_2 H37_2 1_555 1_555
C61_2 C60_2 1_555 1_555
H38_2 C61_2 1_555 1_555
C62_2 C61_2 1_555 1_555
C65_2 C59_2 1_555 1_555
C66_2 Si2_2 1_555 1_555
C67_2 C66_2 1_555 1_555
H41_2 C67_2 1_555 1_555
C68_2 C67_2 1_555 1_555
H42_2 C68_2 1_555 1_555
C69_2 C68_2 1_555 1_555
C70_2 C69_2 1_555 1_555
H43_2 C70_2 1_555 1_555
C71_2 C66_2 1_555 1_555
H44_2 C71_2 1_555 1_555
C72_2 C69_2 1_555 1_555
N6 C73_2 1_555 1_555
C73_2 H45_2 1_555 1_555
C74_2 C73_2 1_555 1_555
H46_2 C74_2 1_555 1_555
C75_2 C74_2 1_555 1_555
C76_2 C75_2 1_555 1_555
H47_2 C76_2 1_555 1_555
C77_2 N6 1_555 1_555
H48_2 C77_2 1_555 1_555
C78_2 C72_2 1_555 1_555
C79_2 Si2_2 1_555 1_555
C80_2 C79_2 1_555 1_555
H49_2 C80_2 1_555 1_555
C84_2 C79_2 1_555 1_555
H52_2 C84_2 1_555 1_555
C92_2 Si2_2 1_555 1_555
C93_2 C92_2 1_555 1_555
H57_2 C93_2 1_555 1_555
C117_2 C118_2 1_555 1_555
C118_2 H83_2 1_555 1_555
H84_2 C118_2 1_555 1_555
H85_2 C118_2 1_555 1_555
Cu7 N6 1_555 1_555
C57_2 C58_2 1_555 1_555
C62_2 C65_2 1_555 1_555
C70_2 C71_2 1_555 1_555
C75_2 C78_2 1_555 1_555
C76_2 C77_2 1_555 1_555
C117_2 O14_2 1_555 1_555
C111_2 C112_2 1_555 1_555
C112_2 H74_2 1_555 1_555
H75_2 C112_2 1_555 1_555
H76_2 C112_2 1_555 1_555
O7_2 Cu7 1_555 1_555
O8_2 C111_2 1_555 1_555
C111_2 O7_2 1_555 1_555
H39_2 C63_2 1_555 1_555
H40_2 C64_2 1_555 1_555
H58_2 C94_2 1_555 1_555
C95_2 C94_2 1_555 1_555
C96_2 C95_2 1_555 1_555
H59_2 C96_2 1_555 1_555
H60_2 C97_2 1_555 1_555
C98_2 C95_2 1_555 1_555
N8_2 C99_2 1_555 1_555
C100_2 C99_2 1_555 1_555
H62_2 C100_2 1_555 1_555
C101_2 C100_2 1_555 1_555
C102_2 C101_2 1_555 1_555
H63_2 C102_2 1_555 1_555
C103_2 N8_2 1_555 1_555
H64_2 C103_2 1_555 1_555
C104_2 C98_2 1_555 1_555
C63_2 C64_2 1_555 1_555
C96_2 C97_2 1_555 1_555
C101_2 C104_2 1_555 1_555
C102_2 C103_2 1_555 1_555
N3_2 C34_2 1_555 1_555
C34_2 H21_2 1_555 1_555
C35_2 C34_2 1_555 1_555
H22_2 C35_2 1_555 1_555
C36_2 C35_2 1_555 1_555
C37_2 C36_2 1_555 1_555
H23_2 C37_2 1_555 1_555
C38_2 N3_2 1_555 1_555
H24_2 C38_2 1_555 1_555
C109_2 C110_2 1_555 1_555
C110_2 H71_2 1_555 1_555
H72_2 C110_2 1_555 1_555
H73_2 C110_2 1_555 1_555
O6_2 C109_2 1_555 1_555
C37_2 C38_2 1_555 1_555
C109_2 O5_2 1_555 1_555

#END
