
###############################################################################
#
# This file contains modified crystal structure data generated from the
# MOF subset of the Cambridge Structural Database (CSD) v543 
# hosted by the Cambridge Crystallographic Data Centre (CCDC).
#
# This work is licensed under the Creative Commons
# Attribution-NonCommercial-ShareAlike 4.0 International License.
# To view a copy of this license, visit
# http://creativecommons.org/licenses/by-nc-sa/4.0/
# or send a letter to
# Creative Commons, PO Box 1866, Mountain View, CA 94042, USA.
#
# CIF created using the CSD Python API on 29 September 2022
# The structure has been converted into the P1 space group
# The structure has a 3D framework
# The original CSD entry KUVMEV is in the tetragonal crystal system
# The framework has been calculated to contain at least 10.0% void space
# The void calculation uses a probe of radius 1.32A, grid spacing 0.4
# The framework is charged, counterions have been retained in the structure
#
###############################################################################

data_KUVMEV
_chemical_formula_moiety         '(C832 H512 Ag28 N64 Si24 28+)n'
_symmetry_cell_setting           triclinic
_symmetry_space_group_name_H-M   'P 1'
_symmetry_Int_Tables_number      1
_space_group_name_Hall           'P 1'
loop_
_symmetry_equiv_pos_site_id
_symmetry_equiv_pos_as_xyz
1 x,y,z
_cell_length_a                   17.0103(19)
_cell_length_b                   17.0103(19)
_cell_length_c                   77.059(8)
_cell_angle_alpha                90
_cell_angle_beta                 90
_cell_angle_gamma                90
_cell_volume                     22297
loop_
_atom_site_label
_atom_site_type_symbol
_atom_site_fract_x
_atom_site_fract_y
_atom_site_fract_z
C47 C 0.3581(17) 0.0396(12) 0.3538(3)
H29 H 0.3612 0.0946 0.3557
C48 C 0.3140(16) 0.0105(14) 0.3400(3)
H30 H 0.2870 0.0457 0.3326
Ag4 Ag 0.45729(17) 0.0314(2) 0.38686(4)
C33 C 0.6051(14) 0.9813(13) 0.7089(3)
N3 N 0.6843(12) 0.7828(7) 0.65720(18)
C34 C 0.7407(10) 0.8141(12) 0.6683(3)
H21 H 0.7949 0.8046 0.6661
C35 C 0.7179(12) 0.8594(13) 0.6824(3)
H22 H 0.7565 0.8808 0.6900
C36 C 0.6386(13) 0.8733(9) 0.6855(2)
C37 C 0.5821(10) 0.8420(12) 0.6744(3)
H23 H 0.5280 0.8515 0.6766
C38 C 0.6050(11) 0.7968(12) 0.6603(2)
H24 H 0.5664 0.7754 0.6527
C39 C 0.6164(15) 0.9261(13) 0.6995(3)
C47_2 C 0.1419(17) 0.9604(12) 0.8538(3)
H29_2 H 0.1388 0.9054 0.8557
C48_2 C 0.1860(16) 0.9895(14) 0.8400(3)
H30_2 H 0.2130 0.9543 0.8326
Ag2 Ag 0.7186(2) 0.70729(17) 0.63686(4)
Ag4_2 Ag 0.04271(17) 0.9686(2) 0.88686(4)
N6 N 0.7620(15) 0.6477(14) 0.6147(3)
Si1 Si 1.0000 0.2500 0.50756(12)
H12 H 0.9824 0.0751 0.5129
C27 C 0.9135(11) 0.2054(15) 0.4931(3)
C28 C 0.8928(14) 0.2561(13) 0.4797(3)
H17 H 0.9204 0.3041 0.4782
C29 C 0.8317(15) 0.2364(12) 0.4685(3)
H18 H 0.8175 0.2710 0.4594
C30 C 0.7913(11) 0.1661(12) 0.4708(3)
C31 C 0.8120(15) 0.1155(12) 0.4842(3)
H19 H 0.7843 0.0674 0.4857
C32 C 0.8731(15) 0.1351(15) 0.4954(3)
H20 H 0.8872 0.1005 0.5045
C33_2 C 0.7313(13) 0.1449(14) 0.4589(3)
N3_2 N 0.5328(7) 0.0657(12) 0.40720(18)
C34_2 C 0.5641(12) 0.0093(10) 0.4183(3)
C35_2 C 0.6094(13) 0.0321(12) 0.4324(3)
C36_2 C 0.6233(9) 0.1114(13) 0.4355(2)
C37_2 C 0.5920(12) 0.1679(10) 0.4244(3)
H23_2 H 0.6015 0.2220 0.4266
C38_2 C 0.5468(12) 0.1450(11) 0.4103(2)
H24_2 H 0.5254 0.1836 0.4027
C39_2 C 0.6761(13) 0.1336(15) 0.4495(3)
C40 C 0.9598(11) 0.3284(10) 0.5221(2)
C41 C 0.9088(12) 0.3021(7) 0.5349(2)
H25 H 0.8932 0.2485 0.5352
C42 C 0.8807(10) 0.3542(9) 0.5474(2)
H26 H 0.8458 0.3362 0.5561
C43 C 0.9036(10) 0.4326(8) 0.54695(19)
C44 C 0.9546(11) 0.4589(8) 0.5341(2)
H27 H 0.9702 0.5125 0.5338
C45 C 0.9827(10) 0.4069(11) 0.5217(2)
C46 C 0.8676(14) 0.4847(13) 0.5590(3)
C47_3 C 0.7104(12) 0.6081(17) 0.6038(3)
H29_3 H 0.6554 0.6112 0.6057
C48_3 C 0.7395(14) 0.5640(16) 0.5900(3)
H30_3 H 0.7043 0.5370 0.5826
C49 C 0.8201(15) 0.5595(14) 0.5872(3)
C50 C 0.8716(12) 0.5990(17) 0.5982(3)
H31 H 0.9267 0.5959 0.5962
C51 C 0.8425(14) 0.6432(16) 0.6119(3)
H32 H 0.8778 0.6702 0.6194
C52 C 0.8508(16) 0.5135(16) 0.5728(3)
Si1_2 Si 0.0000 0.7500 0.25756(12)
Ag1 Ag 0.2186(2) 0.20729(17) 0.13686(4)
C1 C 0.0446(15) 0.6635(11) 0.2431(3)
C3 C 0.0136(12) 0.5817(15) 0.2185(3)
C4 C 0.0839(12) 0.5413(11) 0.2208(3)
C5 C 0.1345(12) 0.5620(15) 0.2342(3)
H3 H 0.1826 0.5343 0.2357
C6 C 0.1149(15) 0.6231(15) 0.2454(3)
H4 H 0.1495 0.6372 0.2545
C7 C 0.1051(14) 0.4813(13) 0.2089(3)
N1 N 0.1843(12) 0.2828(7) 0.15720(18)
C8 C 0.2407(10) 0.3141(12) 0.1683(3)
H5 H 0.2949 0.3046 0.1661
C9 C 0.2179(12) 0.3594(13) 0.1824(3)
H6 H 0.2565 0.3808 0.1900
C10 C 0.1386(13) 0.3733(9) 0.1855(2)
C11 C 0.0821(10) 0.3420(12) 0.1744(3)
H7 H 0.0280 0.3515 0.1766
C12 C 0.1050(11) 0.2968(12) 0.1603(2)
H8 H 0.0664 0.2754 0.1527
C13 C 0.1164(15) 0.4261(13) 0.1995(3)
H9 H 0.0015 0.6432 0.2852
C28_2 C 0.0061(13) 0.8572(14) 0.2297(3)
H17_2 H 0.0541 0.8296 0.2282
H18_2 H 0.0210 0.9325 0.2094
C40_2 C 0.0784(10) 0.7902(11) 0.2721(2)
C41_2 C 0.0521(7) 0.8412(12) 0.2849(2)
C42_2 C 0.1042(9) 0.8693(10) 0.2974(2)
H26_2 H 0.0862 0.9042 0.3061
C43_2 C 0.1826(8) 0.8464(10) 0.29695(19)
C44_2 C 0.2089(8) 0.7954(11) 0.2841(2)
H27_2 H 0.2625 0.7798 0.2838
C45_2 C 0.1569(11) 0.7673(10) 0.2717(2)
H28 H 0.1749 0.7324 0.2629
C46_2 C 0.2347(13) 0.8824(14) 0.3090(3)
N4 N 0.3977(14) 0.9880(15) 0.3647(3)
C49_2 C 0.3095(14) 0.9299(15) 0.3372(3)
C50_2 C 0.3490(17) 0.8784(12) 0.3482(3)
H31_2 H 0.3459 0.8233 0.3462
C51_2 C 0.3932(16) 0.9075(14) 0.3619(3)
H32_2 H 0.4202 0.8722 0.3694
C52_2 C 0.2635(16) 0.8992(16) 0.3228(3)
N5 N 0.2620(15) 0.1477(14) 0.1147(3)
H21_2 H 0.5546 0.9551 0.4161
H22_2 H 0.6308 0.9935 0.4400
H11 H 0.4702 0.0125 0.0338
C21 C 0.2104(12) 0.1081(17) 0.1038(3)
H13 H 0.1554 0.1112 0.1057
C22 C 0.2395(14) 0.0640(16) 0.0900(3)
H14 H 0.2043 0.0370 0.0826
C23 C 0.3201(15) 0.0595(14) 0.0872(3)
C24 C 0.3716(12) 0.0990(17) 0.0982(3)
H15 H 0.4267 0.0959 0.0962
C25 C 0.3425(14) 0.1432(16) 0.1119(3)
H16 H 0.3778 0.1702 0.1194
C26 C 0.3508(16) 0.0135(16) 0.0728(3)
C33_3 C 0.8949(14) 0.0187(13) 0.2089(3)
N3_3 N 0.8157(12) 0.2172(7) 0.15720(18)
C34_3 C 0.7593(10) 0.1859(12) 0.1683(3)
H21_3 H 0.7051 0.1954 0.1661
C35_3 C 0.7821(12) 0.1406(13) 0.1824(3)
H22_3 H 0.7435 0.1192 0.1900
C36_3 C 0.8614(13) 0.1267(9) 0.1855(2)
C37_3 C 0.9179(10) 0.1580(12) 0.1744(3)
H23_3 H 0.9720 0.1485 0.1766
C38_3 C 0.8950(11) 0.2032(12) 0.1603(2)
H24_3 H 0.9336 0.2246 0.1527
C39_3 C 0.8836(15) 0.0739(13) 0.1995(3)
Ag2_2 Ag 0.7814(2) 0.29271(17) 0.13686(4)
N6_2 N 0.7380(15) 0.3523(14) 0.1147(3)
Si1_3 Si 0.5000 0.7500 0.00756(12)
H4_2 H 0.3872 0.6005 0.0045
C14 C 0.4598(11) 0.8284(10) 0.0221(2)
C15 C 0.4088(12) 0.8021(7) 0.0349(2)
H9_2 H 0.3932 0.7485 0.0352
C16 C 0.3807(10) 0.8542(9) 0.0474(2)
H10 H 0.3458 0.8362 0.0561
C17 C 0.4036(10) 0.9326(8) 0.04695(19)
C18 C 0.4546(11) 0.9589(8) 0.0341(2)
C19 C 0.4827(10) 0.9069(11) 0.0217(2)
H12_2 H 0.5176 0.9249 0.0129
C20 C 0.3676(14) 0.9847(13) 0.0590(3)
H20_2 H 0.6128 0.8995 0.0045
C40_3 C 0.5402(11) 0.6716(10) 0.0221(2)
C41_3 C 0.5912(12) 0.6979(7) 0.0349(2)
H25_2 H 0.6068 0.7515 0.0352
C42_3 C 0.6193(10) 0.6458(9) 0.0474(2)
H26_3 H 0.6542 0.6638 0.0561
C43_3 C 0.5964(10) 0.5674(8) 0.04695(19)
C44_3 C 0.5454(11) 0.5411(8) 0.0341(2)
H27_3 H 0.5298 0.4875 0.0338
C45_3 C 0.5173(10) 0.5931(11) 0.0217(2)
H28_2 H 0.4824 0.5751 0.0129
C46_3 C 0.6324(14) 0.5153(13) 0.0590(3)
C47_4 C 0.7896(12) 0.3919(17) 0.1038(3)
H29_4 H 0.8446 0.3888 0.1057
C48_4 C 0.7605(14) 0.4360(16) 0.0900(3)
H30_4 H 0.7957 0.4630 0.0826
C49_3 C 0.6799(15) 0.4405(14) 0.0872(3)
C50_3 C 0.6284(12) 0.4010(17) 0.0982(3)
H31_3 H 0.5733 0.4041 0.0962
C51_3 C 0.6575(14) 0.3568(16) 0.1119(3)
H32_3 H 0.6222 0.3298 0.1194
C52_3 C 0.6492(16) 0.4865(16) 0.0728(3)
Si1_4 Si 1.0000 0.7500 0.25756(12)
C2 C 0.9939(13) 0.6428(14) 0.2297(3)
H1 H 0.9459 0.6704 0.2282
H2 H 0.9790 0.5675 0.2094
C14_2 C 0.9216(10) 0.7098(11) 0.2721(2)
C15_2 C 0.9479(7) 0.6588(12) 0.2849(2)
C16_2 C 0.8958(9) 0.6307(10) 0.2974(2)
H10_2 H 0.9138 0.5958 0.3061
C17_2 C 0.8174(8) 0.6536(10) 0.29695(19)
C18_2 C 0.7911(8) 0.7046(11) 0.2841(2)
H11_2 H 0.7375 0.7202 0.2838
C19_2 C 0.8431(11) 0.7327(10) 0.2717(2)
H12_3 H 0.8251 0.7676 0.2629
C20_2 C 0.7653(13) 0.6176(14) 0.3090(3)
N2 N 0.6023(14) 0.5120(15) 0.3647(3)
C21_2 C 0.6419(17) 0.4604(12) 0.3538(3)
H13_2 H 0.6388 0.4054 0.3557
C22_2 C 0.6860(16) 0.4895(14) 0.3400(3)
H14_2 H 0.7130 0.4543 0.3326
C23_2 C 0.6905(14) 0.5701(15) 0.3372(3)
C24_2 C 0.6510(17) 0.6216(12) 0.3482(3)
H15_2 H 0.6541 0.6767 0.3462
C25_2 C 0.6068(16) 0.5925(14) 0.3619(3)
H16_2 H 0.5798 0.6278 0.3694
C26_2 C 0.7365(16) 0.6008(16) 0.3228(3)
C27_2 C 0.9554(15) 0.8365(11) 0.2431(3)
C29_2 C 0.9864(12) 0.9183(15) 0.2185(3)
C30_2 C 0.9161(12) 0.9587(11) 0.2208(3)
C31_2 C 0.8655(12) 0.9380(15) 0.2342(3)
H19_2 H 0.8174 0.9657 0.2357
C32_2 C 0.8851(15) 0.8769(15) 0.2454(3)
H20_3 H 0.8505 0.8628 0.2545
H25_3 H 0.9985 0.8568 0.2852
Ag3 Ag 0.54271(17) 0.4686(2) 0.38686(4)
Si1_5 Si 0.0000 0.2500 0.50756(12)
C1_2 C 0.0865(11) 0.2946(15) 0.4931(3)
C2_2 C 0.1072(14) 0.2439(13) 0.4797(3)
H1_2 H 0.0796 0.1959 0.4782
C3_2 C 0.1683(15) 0.2636(12) 0.4685(3)
H2_2 H 0.1825 0.2290 0.4594
C4_2 C 0.2087(11) 0.3339(12) 0.4708(3)
C5_2 C 0.1880(15) 0.3845(12) 0.4842(3)
H3_2 H 0.2157 0.4326 0.4857
C6_2 C 0.1269(15) 0.3649(15) 0.4954(3)
H4_3 H 0.1128 0.3995 0.5045
C7_2 C 0.2687(13) 0.3551(14) 0.4589(3)
N1_2 N 0.4672(7) 0.4343(12) 0.40720(18)
C8_2 C 0.4359(12) 0.4907(10) 0.4183(3)
H5_2 H 0.4454 0.5449 0.4161
C9_2 C 0.3906(13) 0.4679(12) 0.4324(3)
H6_2 H 0.3692 0.5065 0.4400
C10_2 C 0.3767(9) 0.3886(13) 0.4355(2)
C11_2 C 0.4080(12) 0.3321(10) 0.4244(3)
H7_2 H 0.3985 0.2780 0.4266
C12_2 C 0.4532(12) 0.3550(11) 0.4103(2)
H8_2 H 0.4746 0.3164 0.4027
C13_2 C 0.3239(13) 0.3664(15) 0.4495(3)
C14_3 C 0.0402(11) 0.1716(10) 0.5221(2)
C15_3 C 0.0912(12) 0.1979(7) 0.5349(2)
H9_3 H 0.1068 0.2515 0.5352
C16_3 C 0.1193(10) 0.1458(9) 0.5474(2)
H10_3 H 0.1542 0.1638 0.5561
C17_3 C 0.0964(10) 0.0674(8) 0.54695(19)
C18_3 C 0.0454(11) 0.0411(8) 0.5341(2)
C19_3 C 0.0173(10) 0.0931(11) 0.5217(2)
C20_3 C 0.1324(14) 0.0153(13) 0.5590(3)
H28_3 H 0.0176 0.4249 0.5129
Si1_6 Si 0.5000 0.2500 0.75756(12)
Ag1_2 Ag 0.2814(2) 0.79271(17) 0.63686(4)
C1_3 C 0.4554(15) 0.3365(11) 0.7431(3)
C2_3 C 0.5061(13) 0.3572(14) 0.7297(3)
H1_3 H 0.5541 0.3296 0.7282
C3_3 C 0.4864(12) 0.4183(15) 0.7185(3)
H2_3 H 0.5210 0.4325 0.7094
C4_3 C 0.4161(12) 0.4587(11) 0.7208(3)
C5_3 C 0.3655(12) 0.4380(15) 0.7342(3)
H3_3 H 0.3174 0.4657 0.7357
C6_3 C 0.3851(15) 0.3769(15) 0.7454(3)
H4_4 H 0.3505 0.3628 0.7545
C7_3 C 0.3949(14) 0.5187(13) 0.7089(3)
N1_3 N 0.3157(12) 0.7172(7) 0.65720(18)
C8_3 C 0.2593(10) 0.6859(12) 0.6683(3)
H5_3 H 0.2051 0.6954 0.6661
C9_3 C 0.2821(12) 0.6406(13) 0.6824(3)
H6_3 H 0.2435 0.6192 0.6900
C10_3 C 0.3614(13) 0.6267(9) 0.6855(2)
C11_3 C 0.4179(10) 0.6580(12) 0.6744(3)
H7_3 H 0.4720 0.6485 0.6766
C12_3 C 0.3950(11) 0.7032(12) 0.6603(2)
H8_3 H 0.4336 0.7246 0.6527
C13_3 C 0.3836(15) 0.5739(13) 0.6995(3)
C14_4 C 0.5784(10) 0.2902(11) 0.7721(2)
C15_4 C 0.5521(7) 0.3412(12) 0.7849(2)
H9_4 H 0.4985 0.3568 0.7852
C16_4 C 0.6042(9) 0.3693(10) 0.7974(2)
H10_4 H 0.5862 0.4042 0.8061
C17_4 C 0.6826(8) 0.3464(10) 0.79695(19)
C18_4 C 0.7089(8) 0.2954(11) 0.7841(2)
H11_3 H 0.7625 0.2798 0.7838
C19_4 C 0.6569(11) 0.2673(10) 0.7717(2)
H12_4 H 0.6749 0.2324 0.7629
C20_4 C 0.7347(13) 0.3824(14) 0.8090(3)
N2_2 N 0.8977(14) 0.4880(15) 0.8647(3)
C21_3 C 0.8581(17) 0.5396(12) 0.8538(3)
H13_3 H 0.8612 0.5946 0.8557
C22_3 C 0.8140(16) 0.5105(14) 0.8400(3)
H14_3 H 0.7870 0.5457 0.8326
C23_3 C 0.8095(14) 0.4299(15) 0.8372(3)
C24_3 C 0.8490(17) 0.3784(12) 0.8482(3)
H15_3 H 0.8459 0.3233 0.8462
C25_3 C 0.8932(16) 0.4075(14) 0.8619(3)
H16_3 H 0.9202 0.3722 0.8694
C26_3 C 0.7635(16) 0.3992(16) 0.8228(3)
C27_3 C 0.5446(15) 0.1635(11) 0.7431(3)
C28_3 C 0.4939(13) 0.1428(14) 0.7297(3)
H17_3 H 0.4459 0.1704 0.7282
C29_3 C 0.5136(12) 0.0817(15) 0.7185(3)
H18_3 H 0.4790 0.0675 0.7094
C30_3 C 0.5839(12) 0.0413(11) 0.7208(3)
C31_3 C 0.6345(12) 0.0620(15) 0.7342(3)
H19_3 H 0.6826 0.0343 0.7357
C32_3 C 0.6149(15) 0.1231(15) 0.7454(3)
H20_4 H 0.6495 0.1372 0.7545
C40_4 C 0.4216(10) 0.2098(11) 0.7721(2)
C41_4 C 0.4479(7) 0.1588(12) 0.7849(2)
H25_4 H 0.5015 0.1432 0.7852
C42_4 C 0.3958(9) 0.1307(10) 0.7974(2)
H26_4 H 0.4138 0.0958 0.8061
C43_4 C 0.3174(8) 0.1536(10) 0.79695(19)
C44_4 C 0.2911(8) 0.2046(11) 0.7841(2)
H27_4 H 0.2375 0.2202 0.7838
C45_4 C 0.3431(11) 0.2327(10) 0.7717(2)
H28_4 H 0.3251 0.2676 0.7629
C46_4 C 0.2653(13) 0.1176(14) 0.8090(3)
N4_2 N 0.1023(14) 0.0120(15) 0.8647(3)
C49_4 C 0.1905(14) 0.0701(15) 0.8372(3)
C50_4 C 0.1510(17) 0.1216(12) 0.8482(3)
H31_4 H 0.1541 0.1767 0.8462
C51_4 C 0.1068(16) 0.0925(14) 0.8619(3)
H32_4 H 0.0798 0.1278 0.8694
C52_4 C 0.2365(16) 0.1008(16) 0.8228(3)
Ag3_2 Ag 0.95729(17) 0.5314(2) 0.88686(4)
N5_2 N 0.2380(15) 0.8523(14) 0.6147(3)
H11_4 H 0.0298 0.9875 0.5338
C21_4 C 0.2896(12) 0.8919(17) 0.6038(3)
H13_4 H 0.3446 0.8888 0.6057
C22_4 C 0.2605(14) 0.9360(16) 0.5900(3)
H14_4 H 0.2957 0.9630 0.5826
C23_4 C 0.1799(15) 0.9405(14) 0.5872(3)
C24_4 C 0.1284(12) 0.9010(17) 0.5982(3)
H15_4 H 0.0733 0.9041 0.5962
C25_4 C 0.1575(14) 0.8568(16) 0.6119(3)
H16_4 H 0.1222 0.8298 0.6194
C26_4 C 0.1492(16) 0.9865(16) 0.5728(3)
H21_4 H 0.9454 0.0449 0.9161
H22_4 H 0.8692 0.0065 0.9400
C1_4 C 0.4135(11) 0.7054(15) 0.9931(3)
C2_4 C 0.3928(14) 0.7561(13) 0.9797(3)
H1_4 H 0.4204 0.8041 0.9782
C3_4 C 0.3317(15) 0.7364(12) 0.9685(3)
H2_4 H 0.3175 0.7710 0.9594
C4_4 C 0.2913(11) 0.6661(12) 0.9708(3)
C5_4 C 0.3120(15) 0.6155(12) 0.9842(3)
H3_4 H 0.2843 0.5674 0.9857
C6_4 C 0.3731(15) 0.6351(15) 0.9954(3)
C7_4 C 0.2313(13) 0.6449(14) 0.9589(3)
N1_4 N 0.0328(7) 0.5657(12) 0.90720(18)
C8_4 C 0.0641(12) 0.5093(10) 0.9183(3)
H5_4 H 0.0546 0.4551 0.9161
C9_4 C 0.1094(13) 0.5321(12) 0.9324(3)
H6_4 H 0.1308 0.4935 0.9400
C10_4 C 0.1233(9) 0.6114(13) 0.9355(2)
C11_4 C 0.0920(12) 0.6679(10) 0.9244(3)
H7_4 H 0.1015 0.7220 0.9266
C12_4 C 0.0468(12) 0.6450(11) 0.9103(2)
H8_4 H 0.0254 0.6836 0.9027
C13_4 C 0.1761(13) 0.6336(15) 0.9495(3)
C27_4 C 0.5865(11) 0.7946(15) 0.9931(3)
C28_4 C 0.6072(14) 0.7439(13) 0.9797(3)
H17_4 H 0.5796 0.6959 0.9782
C29_4 C 0.6683(15) 0.7636(12) 0.9685(3)
H18_4 H 0.6825 0.7290 0.9594
C30_4 C 0.7087(11) 0.8339(12) 0.9708(3)
C31_4 C 0.6880(15) 0.8845(12) 0.9842(3)
H19_4 H 0.7157 0.9326 0.9857
C32_4 C 0.6269(15) 0.8649(15) 0.9954(3)
C33_4 C 0.7687(13) 0.8551(14) 0.9589(3)
N3_4 N 0.9672(7) 0.9343(12) 0.90720(18)
C34_4 C 0.9359(12) 0.9907(10) 0.9183(3)
C35_4 C 0.8906(13) 0.9679(12) 0.9324(3)
C36_4 C 0.8767(9) 0.8886(13) 0.9355(2)
C37_4 C 0.9080(12) 0.8321(10) 0.9244(3)
H23_4 H 0.8985 0.7780 0.9266
C38_4 C 0.9532(12) 0.8550(11) 0.9103(2)
H24_4 H 0.9746 0.8164 0.9027
C39_4 C 0.8239(13) 0.8664(15) 0.9495(3)
Si1_7 Si 0.0000 0.2500 0.74244(12)
C2_5 C 0.0061(13) 0.3572(14) 0.7703(3)
H1_5 H 0.0541 0.3296 0.7718
H2_5 H 0.0210 0.4325 0.7906
C14_5 C 0.0784(10) 0.2902(11) 0.7279(2)
C15_5 C 0.0521(7) 0.3412(12) 0.7151(2)
C16_5 C 0.1042(9) 0.3693(10) 0.7026(2)
H10_5 H 0.0862 0.4042 0.6939
C17_5 C 0.1826(8) 0.3464(10) 0.70305(19)
C18_5 C 0.2089(8) 0.2954(11) 0.7159(2)
H11_5 H 0.2625 0.2798 0.7162
C19_5 C 0.1569(11) 0.2673(10) 0.7283(2)
H12_5 H 0.1749 0.2324 0.7371
C20_5 C 0.2347(13) 0.3824(14) 0.6910(3)
N2_3 N 0.3977(14) 0.4880(15) 0.6353(3)
C21_5 C 0.3581(17) 0.5396(12) 0.6462(3)
H13_5 H 0.3612 0.5946 0.6443
C22_5 C 0.3140(16) 0.5105(14) 0.6600(3)
H14_5 H 0.2870 0.5457 0.6674
C23_5 C 0.3095(14) 0.4299(15) 0.6628(3)
C24_5 C 0.3490(17) 0.3784(12) 0.6518(3)
H15_5 H 0.3459 0.3233 0.6538
C25_5 C 0.3932(16) 0.4075(14) 0.6381(3)
H16_5 H 0.4202 0.3722 0.6306
C26_5 C 0.2635(16) 0.3992(16) 0.6772(3)
C27_5 C 0.0446(15) 0.1635(11) 0.7569(3)
C29_5 C 0.0136(12) 0.0817(15) 0.7815(3)
C30_5 C 0.0839(12) 0.0413(11) 0.7792(3)
C31_5 C 0.1345(12) 0.0620(15) 0.7658(3)
H19_5 H 0.1826 0.0343 0.7643
C32_5 C 0.1149(15) 0.1231(15) 0.7546(3)
H20_5 H 0.1495 0.1372 0.7455
H25_5 H 0.0015 0.1432 0.7148
Ag3_3 Ag 0.45729(17) 0.5314(2) 0.61314(4)
Si1_8 Si 1.0000 0.7500 0.49244(12)
C1_5 C 0.9135(11) 0.7054(15) 0.5069(3)
C2_6 C 0.8928(14) 0.7561(13) 0.5203(3)
H1_6 H 0.9204 0.8041 0.5218
C3_5 C 0.8317(15) 0.7364(12) 0.5315(3)
H2_6 H 0.8175 0.7710 0.5406
C4_5 C 0.7913(11) 0.6661(12) 0.5292(3)
C5_5 C 0.8120(15) 0.6155(12) 0.5158(3)
H3_5 H 0.7843 0.5674 0.5143
C6_5 C 0.8731(15) 0.6351(15) 0.5046(3)
H4_5 H 0.8872 0.6005 0.4955
C7_5 C 0.7313(13) 0.6449(14) 0.5411(3)
N1_5 N 0.5328(7) 0.5657(12) 0.59280(18)
C8_5 C 0.5641(12) 0.5093(10) 0.5817(3)
H5_5 H 0.5546 0.4551 0.5839
C9_5 C 0.6094(13) 0.5321(12) 0.5676(3)
H6_5 H 0.6308 0.4935 0.5600
C10_5 C 0.6233(9) 0.6114(13) 0.5645(2)
C11_5 C 0.5920(12) 0.6679(10) 0.5756(3)
H7_5 H 0.6015 0.7220 0.5734
C12_5 C 0.5468(12) 0.6450(11) 0.5897(2)
H8_5 H 0.5254 0.6836 0.5973
C13_5 C 0.6761(13) 0.6336(15) 0.5505(3)
C14_6 C 0.9598(11) 0.8284(10) 0.4779(2)
C15_6 C 0.9088(12) 0.8021(7) 0.4651(2)
H9_5 H 0.8932 0.7485 0.4648
C16_6 C 0.8807(10) 0.8542(9) 0.4526(2)
H10_6 H 0.8458 0.8362 0.4439
C17_6 C 0.9036(10) 0.9326(8) 0.45305(19)
C18_6 C 0.9546(11) 0.9589(8) 0.4659(2)
C19_6 C 0.9827(10) 0.9069(11) 0.4783(2)
C20_6 C 0.8676(14) 0.9847(13) 0.4410(3)
H28_5 H 0.9824 0.5751 0.4871
C33_5 C 0.1051(14) 0.9813(13) 0.7911(3)
N3_5 N 0.1843(12) 0.7828(7) 0.84280(18)
C34_5 C 0.2407(10) 0.8141(12) 0.8317(3)
H21_5 H 0.2949 0.8046 0.8339
C35_5 C 0.2179(12) 0.8594(13) 0.8176(3)
H22_5 H 0.2565 0.8808 0.8100
C36_5 C 0.1386(13) 0.8733(9) 0.8145(2)
C37_5 C 0.0821(10) 0.8420(12) 0.8256(3)
H23_5 H 0.0280 0.8515 0.8234
C38_5 C 0.1050(11) 0.7968(12) 0.8397(2)
H24_5 H 0.0664 0.7754 0.8473
C39_5 C 0.1164(15) 0.9261(13) 0.8005(3)
Ag2_3 Ag 0.2186(2) 0.70729(17) 0.86314(4)
N6_3 N 0.2620(15) 0.6477(14) 0.8853(3)
Si1_9 Si 0.5000 0.2500 0.99244(12)
H4_6 H 0.6128 0.3995 0.9955
C14_7 C 0.5402(11) 0.1716(10) 0.9779(2)
C15_7 C 0.5912(12) 0.1979(7) 0.9651(2)
H9_6 H 0.6068 0.2515 0.9648
C16_7 C 0.6193(10) 0.1458(9) 0.9526(2)
H10_7 H 0.6542 0.1638 0.9439
C17_7 C 0.5964(10) 0.0674(8) 0.95305(19)
C18_7 C 0.5454(11) 0.0411(8) 0.9659(2)
C19_7 C 0.5173(10) 0.0931(11) 0.9783(2)
H12_6 H 0.4824 0.0751 0.9871
C20_7 C 0.6324(14) 0.0153(13) 0.9410(3)
H20_6 H 0.3872 0.1005 0.9955
C40_5 C 0.4598(11) 0.3284(10) 0.9779(2)
C41_5 C 0.4088(12) 0.3021(7) 0.9651(2)
H25_6 H 0.3932 0.2485 0.9648
C42_5 C 0.3807(10) 0.3542(9) 0.9526(2)
H26_5 H 0.3458 0.3362 0.9439
C43_5 C 0.4036(10) 0.4326(8) 0.95305(19)
C44_5 C 0.4546(11) 0.4589(8) 0.9659(2)
H27_5 H 0.4702 0.5125 0.9662
C45_5 C 0.4827(10) 0.4069(11) 0.9783(2)
H28_6 H 0.5176 0.4249 0.9871
C46_5 C 0.3676(14) 0.4847(13) 0.9410(3)
C47_5 C 0.2104(12) 0.6081(17) 0.8962(3)
H29_5 H 0.1554 0.6112 0.8943
C48_5 C 0.2395(14) 0.5640(16) 0.9100(3)
H30_5 H 0.2043 0.5370 0.9174
C49_5 C 0.3201(15) 0.5595(14) 0.9128(3)
C50_5 C 0.3716(12) 0.5990(17) 0.9018(3)
H31_5 H 0.4267 0.5959 0.9038
C51_5 C 0.3425(14) 0.6432(16) 0.8881(3)
H32_5 H 0.3778 0.6702 0.8806
C52_5 C 0.3508(16) 0.5135(16) 0.9272(3)
Si1_10 Si 1.0000 0.2500 0.74244(12)
Ag1_3 Ag 0.7814(2) 0.79271(17) 0.86314(4)
C1_6 C 0.9554(15) 0.3365(11) 0.7569(3)
C3_6 C 0.9864(12) 0.4183(15) 0.7815(3)
C4_6 C 0.9161(12) 0.4587(11) 0.7792(3)
C5_6 C 0.8655(12) 0.4380(15) 0.7658(3)
H3_6 H 0.8174 0.4657 0.7643
C6_6 C 0.8851(15) 0.3769(15) 0.7546(3)
H4_7 H 0.8505 0.3628 0.7455
C7_6 C 0.8949(14) 0.5187(13) 0.7911(3)
N1_6 N 0.8157(12) 0.7172(7) 0.84280(18)
C8_6 C 0.7593(10) 0.6859(12) 0.8317(3)
H5_6 H 0.7051 0.6954 0.8339
C9_6 C 0.7821(12) 0.6406(13) 0.8176(3)
H6_6 H 0.7435 0.6192 0.8100
C10_6 C 0.8614(13) 0.6267(9) 0.8145(2)
C11_6 C 0.9179(10) 0.6580(12) 0.8256(3)
H7_6 H 0.9720 0.6485 0.8234
C12_6 C 0.8950(11) 0.7032(12) 0.8397(2)
H8_6 H 0.9336 0.7246 0.8473
C13_6 C 0.8836(15) 0.5739(13) 0.8005(3)
H9_7 H 0.9985 0.3568 0.7148
C28_5 C 0.9939(13) 0.1428(14) 0.7703(3)
H17_5 H 0.9459 0.1704 0.7718
H18_5 H 0.9790 0.0675 0.7906
C40_6 C 0.9216(10) 0.2098(11) 0.7279(2)
C41_6 C 0.9479(7) 0.1588(12) 0.7151(2)
C42_6 C 0.8958(9) 0.1307(10) 0.7026(2)
H26_6 H 0.9138 0.0958 0.6939
C43_6 C 0.8174(8) 0.1536(10) 0.70305(19)
C44_6 C 0.7911(8) 0.2046(11) 0.7159(2)
H27_6 H 0.7375 0.2202 0.7162
C45_6 C 0.8431(11) 0.2327(10) 0.7283(2)
H28_7 H 0.8251 0.2676 0.7371
C46_6 C 0.7653(13) 0.1176(14) 0.6910(3)
N4_3 N 0.6023(14) 0.0120(15) 0.6353(3)
C49_6 C 0.6905(14) 0.0701(15) 0.6628(3)
C50_6 C 0.6510(17) 0.1216(12) 0.6518(3)
H31_6 H 0.6541 0.1767 0.6538
C51_6 C 0.6068(16) 0.0925(14) 0.6381(3)
H32_6 H 0.5798 0.1278 0.6306
C52_6 C 0.7365(16) 0.1008(16) 0.6772(3)
N5_3 N 0.7380(15) 0.8523(14) 0.8853(3)
H21_6 H 0.4454 0.0449 0.5839
H22_6 H 0.3692 0.0065 0.5600
H11_6 H 0.5298 0.9875 0.9662
C21_6 C 0.7896(12) 0.8919(17) 0.8962(3)
H13_6 H 0.8446 0.8888 0.8943
C22_6 C 0.7605(14) 0.9360(16) 0.9100(3)
H14_6 H 0.7957 0.9630 0.9174
C23_6 C 0.6799(15) 0.9405(14) 0.9128(3)
C24_6 C 0.6284(12) 0.9010(17) 0.9018(3)
H15_6 H 0.5733 0.9041 0.9038
C25_6 C 0.6575(14) 0.8568(16) 0.8881(3)
H16_6 H 0.6222 0.8298 0.8806
C26_6 C 0.6492(16) 0.9865(16) 0.9272(3)
C47_6 C 0.6419(17) 0.9604(12) 0.6462(3)
H29_6 H 0.6388 0.9054 0.6443
C48_6 C 0.6860(16) 0.9895(14) 0.6600(3)
H30_6 H 0.7130 0.9543 0.6674
Ag4_3 Ag 0.54271(17) 0.9686(2) 0.61314(4)
C33_6 C 0.3949(14) 0.0187(13) 0.2911(3)
N3_6 N 0.3157(12) 0.2172(7) 0.34280(18)
C34_6 C 0.2593(10) 0.1859(12) 0.3317(3)
H21_7 H 0.2051 0.1954 0.3339
C35_6 C 0.2821(12) 0.1406(13) 0.3176(3)
H22_7 H 0.2435 0.1192 0.3100
C36_6 C 0.3614(13) 0.1267(9) 0.3145(2)
C37_6 C 0.4179(10) 0.1580(12) 0.3256(3)
H23_6 H 0.4720 0.1485 0.3234
C38_6 C 0.3950(11) 0.2032(12) 0.3397(2)
H24_6 H 0.4336 0.2246 0.3473
C39_6 C 0.3836(15) 0.0739(13) 0.3005(3)
C47_7 C 0.8581(17) 0.0396(12) 0.1462(3)
H29_7 H 0.8612 0.0946 0.1443
C48_7 C 0.8140(16) 0.0105(14) 0.1600(3)
H30_7 H 0.7870 0.0457 0.1674
Ag2_4 Ag 0.2814(2) 0.29271(17) 0.36314(4)
Ag4_4 Ag 0.95729(17) 0.0314(2) 0.11314(4)
N6_4 N 0.2380(15) 0.3523(14) 0.3853(3)
Si1_11 Si -0.0000 0.7500 0.49244(12)
H12_7 H 0.0176 0.9249 0.4871
C27_6 C 0.0865(11) 0.7946(15) 0.5069(3)
C28_6 C 0.1072(14) 0.7439(13) 0.5203(3)
H17_6 H 0.0796 0.6959 0.5218
C29_6 C 0.1683(15) 0.7636(12) 0.5315(3)
H18_6 H 0.1825 0.7290 0.5406
C30_6 C 0.2087(11) 0.8339(12) 0.5292(3)
C31_6 C 0.1880(15) 0.8845(12) 0.5158(3)
H19_6 H 0.2157 0.9326 0.5143
C32_6 C 0.1269(15) 0.8649(15) 0.5046(3)
H20_7 H 0.1128 0.8995 0.4955
C33_7 C 0.2687(13) 0.8551(14) 0.5411(3)
N3_7 N 0.4672(7) 0.9343(12) 0.59280(18)
C34_7 C 0.4359(12) 0.9907(10) 0.5817(3)
C35_7 C 0.3906(13) 0.9679(12) 0.5676(3)
C36_7 C 0.3767(9) 0.8886(13) 0.5645(2)
C37_7 C 0.4080(12) 0.8321(10) 0.5756(3)
H23_7 H 0.3985 0.7780 0.5734
C38_7 C 0.4532(12) 0.8550(11) 0.5897(2)
H24_7 H 0.4746 0.8164 0.5973
C39_7 C 0.3239(13) 0.8664(15) 0.5505(3)
C40_7 C 0.0402(11) 0.6716(10) 0.4779(2)
C41_7 C 0.0912(12) 0.6979(7) 0.4651(2)
H25_7 H 0.1068 0.7515 0.4648
C42_7 C 0.1193(10) 0.6458(9) 0.4526(2)
H26_7 H 0.1542 0.6638 0.4439
C43_7 C 0.0964(10) 0.5674(8) 0.45305(19)
C44_7 C 0.0454(11) 0.5411(8) 0.4659(2)
H27_7 H 0.0298 0.4875 0.4662
C45_7 C 0.0173(10) 0.5931(11) 0.4783(2)
C46_7 C 0.1324(14) 0.5153(13) 0.4410(3)
C47_8 C 0.2896(12) 0.3919(17) 0.3962(3)
H29_8 H 0.3446 0.3888 0.3943
C48_8 C 0.2605(14) 0.4360(16) 0.4100(3)
H30_8 H 0.2957 0.4630 0.4174
C49_7 C 0.1799(15) 0.4405(14) 0.4128(3)
C50_7 C 0.1284(12) 0.4010(17) 0.4018(3)
H31_7 H 0.0733 0.4041 0.4038
C51_7 C 0.1575(14) 0.3568(16) 0.3881(3)
H32_7 H 0.1222 0.3298 0.3806
C52_7 C 0.1492(16) 0.4865(16) 0.4272(3)
Si1_12 Si 0.5000 0.7500 0.24244(12)
Ag1_4 Ag 0.7186(2) 0.20729(17) 0.36314(4)
C1_7 C 0.5446(15) 0.6635(11) 0.2569(3)
C2_7 C 0.4939(13) 0.6428(14) 0.2703(3)
H1_7 H 0.4459 0.6704 0.2718
C3_7 C 0.5136(12) 0.5817(15) 0.2815(3)
H2_7 H 0.4790 0.5675 0.2906
C4_7 C 0.5839(12) 0.5413(11) 0.2792(3)
C5_7 C 0.6345(12) 0.5620(15) 0.2658(3)
H3_7 H 0.6826 0.5343 0.2643
C6_7 C 0.6149(15) 0.6231(15) 0.2546(3)
H4_8 H 0.6495 0.6372 0.2455
C7_7 C 0.6051(14) 0.4813(13) 0.2911(3)
N1_7 N 0.6843(12) 0.2828(7) 0.34280(18)
C8_7 C 0.7407(10) 0.3141(12) 0.3317(3)
H5_7 H 0.7949 0.3046 0.3339
C9_7 C 0.7179(12) 0.3594(13) 0.3176(3)
H6_7 H 0.7565 0.3808 0.3100
C10_7 C 0.6386(13) 0.3733(9) 0.3145(2)
C11_7 C 0.5821(10) 0.3420(12) 0.3256(3)
H7_7 H 0.5280 0.3515 0.3234
C12_7 C 0.6050(11) 0.2968(12) 0.3397(2)
H8_7 H 0.5664 0.2754 0.3473
C13_7 C 0.6164(15) 0.4261(13) 0.3005(3)
C14_8 C 0.4216(10) 0.7098(11) 0.2279(2)
C15_8 C 0.4479(7) 0.6588(12) 0.2151(2)
H9_8 H 0.5015 0.6432 0.2148
C16_8 C 0.3958(9) 0.6307(10) 0.2026(2)
H10_8 H 0.4138 0.5958 0.1939
C17_8 C 0.3174(8) 0.6536(10) 0.20305(19)
C18_8 C 0.2911(8) 0.7046(11) 0.2159(2)
H11_7 H 0.2375 0.7202 0.2162
C19_8 C 0.3431(11) 0.7327(10) 0.2283(2)
H12_8 H 0.3251 0.7676 0.2371
C20_8 C 0.2653(13) 0.6176(14) 0.1910(3)
N2_4 N 0.1023(14) 0.5120(15) 0.1353(3)
C21_7 C 0.1419(17) 0.4604(12) 0.1462(3)
H13_7 H 0.1388 0.4054 0.1443
C22_7 C 0.1860(16) 0.4895(14) 0.1600(3)
H14_7 H 0.2130 0.4543 0.1674
C23_7 C 0.1905(14) 0.5701(15) 0.1628(3)
C24_7 C 0.1510(17) 0.6216(12) 0.1518(3)
H15_7 H 0.1541 0.6767 0.1538
C25_7 C 0.1068(16) 0.5925(14) 0.1381(3)
H16_7 H 0.0798 0.6278 0.1306
C26_7 C 0.2365(16) 0.6008(16) 0.1772(3)
C27_7 C 0.4554(15) 0.8365(11) 0.2569(3)
C28_7 C 0.5061(13) 0.8572(14) 0.2703(3)
H17_7 H 0.5541 0.8296 0.2718
C29_7 C 0.4864(12) 0.9183(15) 0.2815(3)
H18_7 H 0.5210 0.9325 0.2906
C30_7 C 0.4161(12) 0.9587(11) 0.2792(3)
C31_7 C 0.3655(12) 0.9380(15) 0.2658(3)
H19_7 H 0.3174 0.9657 0.2643
C32_7 C 0.3851(15) 0.8769(15) 0.2546(3)
H20_8 H 0.3505 0.8628 0.2455
C40_8 C 0.5784(10) 0.7902(11) 0.2279(2)
C41_8 C 0.5521(7) 0.8412(12) 0.2151(2)
H25_8 H 0.4985 0.8568 0.2148
C42_8 C 0.6042(9) 0.8693(10) 0.2026(2)
H26_8 H 0.5862 0.9042 0.1939
C43_8 C 0.6826(8) 0.8464(10) 0.20305(19)
C44_8 C 0.7089(8) 0.7954(11) 0.2159(2)
H27_8 H 0.7625 0.7798 0.2162
C45_8 C 0.6569(11) 0.7673(10) 0.2283(2)
H28_8 H 0.6749 0.7324 0.2371
C46_8 C 0.7347(13) 0.8824(14) 0.1910(3)
N4_4 N 0.8977(14) 0.9880(15) 0.1353(3)
C49_8 C 0.8095(14) 0.9299(15) 0.1628(3)
C50_8 C 0.8490(17) 0.8784(12) 0.1518(3)
H31_8 H 0.8459 0.8233 0.1538
C51_8 C 0.8932(16) 0.9075(14) 0.1381(3)
H32_8 H 0.9202 0.8722 0.1306
C52_8 C 0.7635(16) 0.8992(16) 0.1772(3)
Ag3_4 Ag 0.04271(17) 0.4686(2) 0.11314(4)
N5_4 N 0.7620(15) 0.1477(14) 0.3853(3)
H11_8 H 0.9702 0.0125 0.4662
C21_8 C 0.7104(12) 0.1081(17) 0.3962(3)
H13_8 H 0.6554 0.1112 0.3943
C22_8 C 0.7395(14) 0.0640(16) 0.4100(3)
H14_8 H 0.7043 0.0370 0.4174
C23_8 C 0.8201(15) 0.0595(14) 0.4128(3)
C24_8 C 0.8716(12) 0.0990(17) 0.4018(3)
H15_8 H 0.9267 0.0959 0.4038
C25_8 C 0.8425(14) 0.1432(16) 0.3881(3)
H16_8 H 0.8778 0.1702 0.3806
C26_8 C 0.8508(16) 0.0135(16) 0.4272(3)
C1_8 C 0.5865(11) 0.2946(15) 0.0069(3)
C2_8 C 0.6072(14) 0.2439(13) 0.0203(3)
H1_8 H 0.5796 0.1959 0.0218
C3_8 C 0.6683(15) 0.2636(12) 0.0315(3)
H2_8 H 0.6825 0.2290 0.0406
C4_8 C 0.7087(11) 0.3339(12) 0.0292(3)
C5_8 C 0.6880(15) 0.3845(12) 0.0158(3)
H3_8 H 0.7157 0.4326 0.0143
C6_8 C 0.6269(15) 0.3649(15) 0.0046(3)
C7_8 C 0.7687(13) 0.3551(14) 0.0411(3)
N1_8 N 0.9672(7) 0.4343(12) 0.09280(18)
C8_8 C 0.9359(12) 0.4907(10) 0.0817(3)
H5_8 H 0.9454 0.5449 0.0839
C9_8 C 0.8906(13) 0.4679(12) 0.0676(3)
H6_8 H 0.8692 0.5065 0.0600
C10_8 C 0.8767(9) 0.3886(13) 0.0645(2)
C11_8 C 0.9080(12) 0.3321(10) 0.0756(3)
H7_8 H 0.8985 0.2780 0.0734
C12_8 C 0.9532(12) 0.3550(11) 0.0897(2)
H8_8 H 0.9746 0.3164 0.0973
C13_8 C 0.8239(13) 0.3664(15) 0.0505(3)
C27_8 C 0.4135(11) 0.2054(15) 0.0069(3)
C28_8 C 0.3928(14) 0.2561(13) 0.0203(3)
H17_8 H 0.4204 0.3041 0.0218
C29_8 C 0.3317(15) 0.2364(12) 0.0315(3)
H18_8 H 0.3175 0.2710 0.0406
C30_8 C 0.2913(11) 0.1661(12) 0.0292(3)
C31_8 C 0.3120(15) 0.1155(12) 0.0158(3)
H19_8 H 0.2843 0.0674 0.0143
C32_8 C 0.3731(15) 0.1351(15) 0.0046(3)
C33_8 C 0.2313(13) 0.1449(14) 0.0411(3)
N3_8 N 0.0328(7) 0.0657(12) 0.09280(18)
C34_8 C 0.0641(12) 0.0093(10) 0.0817(3)
C35_8 C 0.1094(13) 0.0321(12) 0.0676(3)
C36_8 C 0.1233(9) 0.1114(13) 0.0645(2)
C37_8 C 0.0920(12) 0.1679(10) 0.0756(3)
H23_8 H 0.1015 0.2220 0.0734
C38_8 C 0.0468(12) 0.1450(11) 0.0897(2)
H24_8 H 0.0254 0.1836 0.0973
C39_8 C 0.1761(13) 0.1336(15) 0.0505(3)
H21_8 H 0.0546 0.9551 0.0839
H22_8 H 0.1308 0.9935 0.0600
Si2 Si -0.0000 0.2500 0.00744(13)
Ag5 Ag 0.2808(2) 0.70743(17) 0.13737(4)
C53 C 0.0364(11) 0.3346(10) 0.0214(2)
C54 C 0.0982(11) 0.3101(8) 0.0318(2)
H33 H 0.1197 0.2590 0.0305
C55 C 0.1287(10) 0.3606(10) 0.0444(2)
H34 H 0.1709 0.3438 0.0515
C56 C 0.0973(12) 0.4354(10) 0.0464(2)
C57 C 0.0354(12) 0.4599(9) 0.0359(3)
H35 H 0.0140 0.5111 0.0373
C58 C 0.0050(10) 0.4095(11) 0.0234(2)
C59 C 0.1287(17) 0.4889(15) 0.0588(3)
N7 N 0.2402(8) 0.6420(7) 0.11544(14)
C60 C 0.1715(9) 0.6656(8) 0.1072(2)
H37 H 0.1441 0.7109 0.1111
C61 C 0.1428(8) 0.6230(10) 0.0932(2)
H38 H 0.0959 0.6391 0.0875
C62 C 0.1829(9) 0.5567(9) 0.08739(16)
C63 C 0.2516(9) 0.5331(8) 0.0957(2)
H39 H 0.2789 0.4878 0.0917
C64 C 0.2802(8) 0.5757(9) 0.10968(19)
H40 H 0.3271 0.5596 0.1153
C65 C 0.1551(16) 0.5128(15) 0.0726(3)
H52 H 0.0373 0.0738 0.0162
N11 N 0.3158(12) 0.7773(10) 0.1588(2)
H61 H 0.9719 0.8307 0.4141
Ag8 Ag 0.95743(17) 0.9692(2) 0.38737(4)
C72 C 0.4001(13) 0.9881(12) 0.2081(3)
C73 C 0.3867(12) 0.7648(12) 0.1673(3)
H45 H 0.4193 0.7219 0.1641
C74 C 0.4100(13) 0.8152(14) 0.1805(3)
H46 H 0.4585 0.8067 0.1864
C75 C 0.3623(15) 0.8780(13) 0.1853(3)
C76 C 0.2914(15) 0.8905(13) 0.1767(3)
H47 H 0.2588 0.9334 0.1800
C77 C 0.2681(12) 0.8401(13) 0.1635(3)
H48 H 0.2196 0.8486 0.1577
C78 C 0.3852(16) 0.9311(14) 0.1993(3)
C89 C 0.7831(8) 0.9984(9) 0.3457(2)
H55 H 0.7378 0.9711 0.3417
C90 C 0.8257(9) 0.9698(8) 0.35968(19)
H56 H 0.8096 0.9229 0.3653
C92 C 0.0772(10) 0.2146(11) 0.9915(2)
C93 C 0.1377(12) 0.2675(9) 0.9882(3)
H57 H 0.1371 0.3181 0.9934
C94 C 0.1991(11) 0.2462(10) 0.9772(3)
H58 H 0.2404 0.2823 0.9750
C95 C 0.2000(10) 0.1721(11) 0.9697(3)
C96 C 0.1395(11) 0.1192(9) 0.9730(3)
H59 H 0.1402 0.0686 0.9678
C97 C 0.0782(10) 0.1405(10) 0.9839(3)
H60 H 0.0368 0.1044 0.9862
C98 C 0.2619(12) 0.1501(13) 0.9581(3)
N10 N 0.4727(10) 0.0658(12) 0.9088(2)
C99 C 0.4852(12) 0.1367(12) 0.9173(3)
H61_2 H 0.5281 0.1693 0.9141
C100 C 0.4348(14) 0.1600(13) 0.9305(3)
H62 H 0.4433 0.2085 0.9364
C101 C 0.3720(13) 0.1123(15) 0.9353(3)
C102 C 0.3595(13) 0.0414(15) 0.9267(3)
H63 H 0.3166 0.0088 0.9300
C103 C 0.4099(13) 0.0181(12) 0.9135(3)
C104 C 0.3189(14) 0.1352(16) 0.9493(3)
Ag8_2 Ag 0.54257(17) 0.0308(2) 0.88737(4)
C89_2 C 0.7169(8) 0.0016(9) 0.8457(2)
H55_2 H 0.7622 0.0289 0.8417
C90_2 C 0.6743(9) 0.0302(8) 0.85968(19)
H56_2 H 0.6904 0.0771 0.8653
H64 H 0.4014 0.9696 0.9077
Si2_2 Si 1.0000 0.2500 0.00744(13)
H36 H 0.9627 0.4262 0.0162
C79 C 0.9636(11) 0.1654(10) 0.0214(2)
C80 C 0.9018(11) 0.1899(8) 0.0318(2)
H49 H 0.8803 0.2410 0.0305
C81 C 0.8713(10) 0.1394(10) 0.0444(2)
H50 H 0.8291 0.1562 0.0515
C82 C 0.9027(12) 0.0646(10) 0.0464(2)
C83 C 0.9646(12) 0.0401(9) 0.0359(3)
C84 C 0.9950(10) 0.0905(11) 0.0234(2)
C85 C 0.8713(17) 0.0111(15) 0.0588(3)
H55_3 H 0.7211 0.0122 0.0917
C66 C 0.9228(10) 0.2854(11) 0.9915(2)
C67 C 0.8623(12) 0.2325(9) 0.9882(3)
H41 H 0.8629 0.1819 0.9934
C68 C 0.8009(11) 0.2538(10) 0.9772(3)
H42 H 0.7596 0.2177 0.9750
C69 C 0.8000(10) 0.3279(11) 0.9697(3)
C70 C 0.8605(11) 0.3808(9) 0.9730(3)
H43 H 0.8598 0.4314 0.9678
C71 C 0.9218(10) 0.3595(10) 0.9839(3)
H44 H 0.9632 0.3956 0.9862
C72_2 C 0.7381(12) 0.3499(13) 0.9581(3)
N8 N 0.5273(10) 0.4342(12) 0.9088(2)
C73_2 C 0.5148(12) 0.3633(12) 0.9173(3)
H45_2 H 0.4719 0.3307 0.9141
C74_2 C 0.5652(14) 0.3400(13) 0.9305(3)
H46_2 H 0.5567 0.2915 0.9364
C75_2 C 0.6280(13) 0.3877(15) 0.9353(3)
C76_2 C 0.6405(13) 0.4586(15) 0.9267(3)
H47_2 H 0.6834 0.4912 0.9300
C77_2 C 0.5901(13) 0.4819(12) 0.9135(3)
H48_2 H 0.5986 0.5304 0.9077
C78_2 C 0.6811(14) 0.3648(16) 0.9493(3)
Ag7 Ag 0.45743(17) 0.4692(2) 0.88737(4)
Si2_3 Si -0.0000 0.7500 0.75744(13)
C53_2 C 0.0846(10) 0.7136(11) 0.7714(2)
C54_2 C 0.0601(8) 0.6518(11) 0.7818(2)
H33_2 H 0.0090 0.6303 0.7805
C55_2 C 0.1106(10) 0.6213(10) 0.7944(2)
H34_2 H 0.0938 0.5791 0.8015
C56_2 C 0.1854(10) 0.6527(12) 0.7964(2)
C57_2 C 0.2099(9) 0.7146(12) 0.7859(3)
H35_2 H 0.2611 0.7360 0.7873
C58_2 C 0.1595(11) 0.7450(10) 0.7734(2)
H36_2 H 0.1762 0.7873 0.7662
C59_2 C 0.2389(15) 0.6213(17) 0.8088(3)
N7_2 N 0.3920(7) 0.5098(8) 0.86544(14)
C60_2 C 0.4156(8) 0.5785(9) 0.8572(2)
H37_2 H 0.4609 0.6059 0.8611
C61_2 C 0.3730(10) 0.6072(8) 0.8432(2)
H38_2 H 0.3891 0.6541 0.8375
C62_2 C 0.3067(9) 0.5671(9) 0.83739(16)
C63_2 C 0.2831(8) 0.4984(9) 0.8457(2)
H39_2 H 0.2378 0.4711 0.8417
C64_2 C 0.3257(9) 0.4698(8) 0.85968(19)
H40_2 H 0.3096 0.4229 0.8653
C65_2 C 0.2628(15) 0.5949(16) 0.8226(3)
C66_2 C 0.0354(11) 0.8272(10) 0.7415(2)
C68_2 C 0.0038(10) 0.9491(11) 0.7272(3)
C69_2 C 0.0779(11) 0.9500(10) 0.7197(3)
C70_2 C 0.1308(9) 0.8895(11) 0.7230(3)
H43_2 H 0.1814 0.8902 0.7178
C71_2 C 0.1095(10) 0.8282(10) 0.7339(3)
H44_2 H 0.1456 0.7868 0.7362
C93_2 C 0.0175(9) 0.6123(12) 0.7382(3)
H57_2 H 0.0681 0.6129 0.7434
H58_2 H 0.0323 0.5096 0.7250
H51 H 0.9860 0.9889 0.0373
N9 N 0.7598(8) 0.8580(7) 0.11544(14)
C86 C 0.8285(9) 0.8344(8) 0.1072(2)
H53 H 0.8559 0.7891 0.1111
C87 C 0.8572(8) 0.8770(10) 0.0932(2)
H54 H 0.9041 0.8609 0.0875
C88 C 0.8171(9) 0.9433(9) 0.08739(16)
C89_3 C 0.7484(9) 0.9669(8) 0.0957(2)
C90_3 C 0.7198(8) 0.9243(9) 0.10968(19)
H56_3 H 0.6729 0.9404 0.1153
C91 C 0.8449(16) 0.9872(15) 0.0726(3)
Ag6 Ag 0.7192(2) 0.79257(17) 0.13737(4)
N12 N 0.6842(12) 0.7227(10) 0.1588(2)
H45_3 H 0.0281 0.6693 0.4141
Ag7_2 Ag 0.04257(17) 0.5308(2) 0.38737(4)
Si2_4 Si 0.5000 0.2500 0.25744(13)
C53_3 C 0.4154(10) 0.2864(11) 0.2714(2)
C54_3 C 0.4399(8) 0.3482(11) 0.2818(2)
H33_3 H 0.4910 0.3697 0.2805
C55_3 C 0.3894(10) 0.3787(10) 0.2944(2)
H34_3 H 0.4062 0.4209 0.3015
C56_3 C 0.3146(10) 0.3473(12) 0.2964(2)
C57_3 C 0.2901(9) 0.2854(12) 0.2859(3)
H35_3 H 0.2389 0.2640 0.2873
C58_3 C 0.3405(11) 0.2550(10) 0.2734(2)
H36_3 H 0.3238 0.2127 0.2662
C59_3 C 0.2611(15) 0.3787(17) 0.3088(3)
N7_3 N 0.1080(7) 0.4902(8) 0.36544(14)
C60_3 C 0.0844(8) 0.4215(9) 0.3572(2)
H37_3 H 0.0391 0.3941 0.3611
C61_3 C 0.1270(10) 0.3928(8) 0.3432(2)
H38_3 H 0.1109 0.3459 0.3375
C62_3 C 0.1933(9) 0.4329(9) 0.33739(16)
C63_3 C 0.2169(8) 0.5016(9) 0.3457(2)
H39_3 H 0.2622 0.5289 0.3417
C64_3 C 0.1743(9) 0.5302(8) 0.35968(19)
H40_3 H 0.1904 0.5771 0.3653
C65_3 C 0.2372(15) 0.4051(16) 0.3226(3)
C66_3 C 0.4646(11) 0.1728(10) 0.2415(2)
C67_2 C 0.5175(9) 0.1123(12) 0.2382(3)
H41_2 H 0.5681 0.1129 0.2434
C68_3 C 0.4962(10) 0.0509(11) 0.2272(3)
H42_2 H 0.5323 0.0096 0.2250
C69_3 C 0.4221(11) 0.0500(10) 0.2197(3)
C70_3 C 0.3692(9) 0.1105(11) 0.2230(3)
H43_3 H 0.3186 0.1098 0.2178
C71_3 C 0.3905(10) 0.1718(10) 0.2339(3)
H44_3 H 0.3544 0.2132 0.2362
C79_2 C 0.5846(10) 0.2136(11) 0.2714(2)
C80_2 C 0.5601(8) 0.1518(11) 0.2818(2)
H49_2 H 0.5090 0.1303 0.2805
C81_2 C 0.6106(10) 0.1213(10) 0.2944(2)
H50_2 H 0.5938 0.0791 0.3015
C82_2 C 0.6854(10) 0.1527(12) 0.2964(2)
C83_2 C 0.7099(9) 0.2146(12) 0.2859(3)
H51_2 H 0.7611 0.2360 0.2873
C84_2 C 0.6595(11) 0.2450(10) 0.2734(2)
H52_2 H 0.6762 0.2873 0.2662
C85_2 C 0.7389(15) 0.1213(17) 0.3088(3)
N9_2 N 0.8920(7) 0.0098(8) 0.36544(14)
C86_2 C 0.9156(8) 0.0785(9) 0.3572(2)
H53_2 H 0.9609 0.1059 0.3611
C87_2 C 0.8730(10) 0.1072(8) 0.3432(2)
H54_2 H 0.8891 0.1541 0.3375
C88_2 C 0.8067(9) 0.0671(9) 0.33739(16)
C91_2 C 0.7628(15) 0.0949(16) 0.3226(3)
C92_2 C 0.5354(11) 0.3272(10) 0.2415(2)
C93_3 C 0.4825(9) 0.3877(12) 0.2382(3)
H57_3 H 0.4319 0.3871 0.2434
C94_2 C 0.5038(10) 0.4491(11) 0.2272(3)
H58_3 H 0.4677 0.4904 0.2250
C95_2 C 0.5779(11) 0.4500(10) 0.2197(3)
C96_2 C 0.6308(9) 0.3895(11) 0.2230(3)
H59_2 H 0.6814 0.3902 0.2178
C97_2 C 0.6095(10) 0.3282(10) 0.2339(3)
H60_2 H 0.6456 0.2868 0.2362
C98_2 C 0.5999(13) 0.5119(12) 0.2081(3)
C99_2 C 0.6133(12) 0.7352(12) 0.1673(3)
H61_3 H 0.5807 0.7781 0.1641
C100_2 C 0.5900(13) 0.6848(14) 0.1805(3)
H62_2 H 0.5415 0.6933 0.1864
C101_2 C 0.6377(15) 0.6220(13) 0.1853(3)
C102_2 C 0.7086(15) 0.6095(13) 0.1767(3)
H63_2 H 0.7412 0.5666 0.1800
C103_2 C 0.7319(12) 0.6599(13) 0.1635(3)
H64_2 H 0.7804 0.6514 0.1577
C104_2 C 0.6148(16) 0.5689(14) 0.1993(3)
H51_3 H 0.5140 0.0111 0.5373
N9_3 N 0.7402(8) 0.1420(7) 0.61544(14)
C86_3 C 0.6715(9) 0.1656(8) 0.6072(2)
H53_3 H 0.6441 0.2109 0.6111
C87_3 C 0.6428(8) 0.1230(10) 0.5932(2)
H54_3 H 0.5959 0.1391 0.5875
C88_3 C 0.6829(9) 0.0567(9) 0.58739(16)
C89_4 C 0.7516(9) 0.0331(8) 0.5957(2)
C90_4 C 0.7802(8) 0.0757(9) 0.60968(19)
H56_4 H 0.8271 0.0596 0.6153
C91_3 C 0.6551(16) 0.0128(15) 0.5726(3)
H64_3 H 0.0986 0.0304 0.4077
Ag6_2 Ag 0.7808(2) 0.20743(17) 0.63737(4)
N12_2 N 0.8158(12) 0.2773(10) 0.6588(2)
Si2_5 Si 1.0000 0.7500 0.75744(13)
C67_3 C 0.9825(9) 0.8877(12) 0.7382(3)
H41_3 H 0.9319 0.8871 0.7434
H42_3 H 0.9677 0.9904 0.7250
C79_3 C 0.9154(10) 0.7864(11) 0.7714(2)
C80_3 C 0.9399(8) 0.8482(11) 0.7818(2)
H49_3 H 0.9910 0.8697 0.7805
C81_3 C 0.8894(10) 0.8787(10) 0.7944(2)
H50_3 H 0.9062 0.9209 0.8015
C82_3 C 0.8146(10) 0.8473(12) 0.7964(2)
C83_3 C 0.7901(9) 0.7854(12) 0.7859(3)
H51_4 H 0.7389 0.7640 0.7873
C84_3 C 0.8405(11) 0.7550(10) 0.7734(2)
H52_3 H 0.8238 0.7127 0.7662
C85_3 C 0.7611(15) 0.8787(17) 0.8088(3)
N9_4 N 0.6080(7) 0.9902(8) 0.86544(14)
C86_4 C 0.5844(8) 0.9215(9) 0.8572(2)
H53_4 H 0.5391 0.8941 0.8611
C87_4 C 0.6270(10) 0.8928(8) 0.8432(2)
H54_4 H 0.6109 0.8459 0.8375
C88_4 C 0.6933(9) 0.9329(9) 0.83739(16)
C91_4 C 0.7372(15) 0.9051(16) 0.8226(3)
C92_3 C 0.9646(11) 0.6728(10) 0.7415(2)
C94_3 C 0.9962(10) 0.5509(11) 0.7272(3)
C95_3 C 0.9221(11) 0.5500(10) 0.7197(3)
C96_3 C 0.8692(9) 0.6105(11) 0.7230(3)
H59_3 H 0.8186 0.6098 0.7178
C97_3 C 0.8905(10) 0.6718(10) 0.7339(3)
H60_3 H 0.8544 0.7132 0.7362
C98_3 C 0.9001(13) 0.4881(12) 0.7081(3)
C99_3 C 0.8867(12) 0.2648(12) 0.6673(3)
H61_4 H 0.9193 0.2219 0.6641
C100_3 C 0.9100(13) 0.3152(14) 0.6805(3)
H62_3 H 0.9585 0.3067 0.6864
C101_3 C 0.8623(15) 0.3780(13) 0.6853(3)
C102_3 C 0.7914(15) 0.3905(13) 0.6767(3)
H63_3 H 0.7588 0.4334 0.6800
C103_3 C 0.7681(12) 0.3401(13) 0.6635(3)
H64_4 H 0.7196 0.3486 0.6577
C104_3 C 0.8852(16) 0.4311(14) 0.6993(3)
Si2_6 Si 0.5000 0.7500 0.50744(13)
Ag5_2 Ag 0.2192(2) 0.29257(17) 0.63737(4)
C53_4 C 0.4636(11) 0.6654(10) 0.5214(2)
C54_4 C 0.4018(11) 0.6899(8) 0.5318(2)
H33_4 H 0.3803 0.7410 0.5305
C55_4 C 0.3713(10) 0.6394(10) 0.5444(2)
H34_4 H 0.3291 0.6562 0.5515
C56_4 C 0.4027(12) 0.5646(10) 0.5464(2)
C57_4 C 0.4646(12) 0.5401(9) 0.5359(3)
H35_4 H 0.4860 0.4889 0.5373
C58_4 C 0.4950(10) 0.5905(11) 0.5234(2)
H36_4 H 0.5373 0.5738 0.5162
C59_4 C 0.3713(17) 0.5111(15) 0.5588(3)
N7_4 N 0.2598(8) 0.3580(7) 0.61544(14)
C60_4 C 0.3285(9) 0.3344(8) 0.6072(2)
H37_4 H 0.3559 0.2891 0.6111
C61_4 C 0.3572(8) 0.3770(10) 0.5932(2)
H38_4 H 0.4041 0.3609 0.5875
C62_4 C 0.3171(9) 0.4433(9) 0.58739(16)
C63_4 C 0.2484(9) 0.4669(8) 0.5957(2)
H39_4 H 0.2211 0.5122 0.5917
C64_4 C 0.2198(8) 0.4243(9) 0.60968(19)
H40_4 H 0.1729 0.4404 0.6153
C65_4 C 0.3449(16) 0.4872(15) 0.5726(3)
C66_4 C 0.5772(10) 0.7146(11) 0.4915(2)
C67_4 C 0.6377(12) 0.7675(9) 0.4882(3)
H41_4 H 0.6371 0.8181 0.4934
C68_4 C 0.6991(11) 0.7462(10) 0.4772(3)
H42_4 H 0.7404 0.7823 0.4750
C69_4 C 0.7000(10) 0.6721(11) 0.4697(3)
C70_4 C 0.6395(11) 0.6192(9) 0.4730(3)
H43_4 H 0.6402 0.5686 0.4678
C71_4 C 0.5782(10) 0.6405(10) 0.4839(3)
H44_4 H 0.5368 0.6044 0.4862
C72_3 C 0.7619(12) 0.6501(13) 0.4581(3)
N8_2 N 0.9727(10) 0.5658(12) 0.4088(2)
C73_3 C 0.9852(12) 0.6367(12) 0.4173(3)
C74_3 C 0.9348(14) 0.6600(13) 0.4305(3)
H46_3 H 0.9433 0.7085 0.4364
C75_3 C 0.8720(13) 0.6123(15) 0.4353(3)
C76_3 C 0.8595(13) 0.5414(15) 0.4267(3)
H47_3 H 0.8166 0.5088 0.4300
C77_3 C 0.9099(13) 0.5181(12) 0.4135(3)
H48_3 H 0.9014 0.4696 0.4077
C78_3 C 0.8189(14) 0.6352(16) 0.4493(3)
C79_4 C 0.5364(11) 0.8346(10) 0.5214(2)
C80_4 C 0.5982(11) 0.8101(8) 0.5318(2)
H49_4 H 0.6197 0.7590 0.5305
C81_4 C 0.6287(10) 0.8606(10) 0.5444(2)
H50_4 H 0.6709 0.8438 0.5515
C82_4 C 0.5973(12) 0.9354(10) 0.5464(2)
C83_4 C 0.5354(12) 0.9599(9) 0.5359(3)
C84_4 C 0.5050(10) 0.9095(11) 0.5234(2)
H52_4 H 0.4627 0.9262 0.5162
C85_4 C 0.6287(17) 0.9889(15) 0.5588(3)
H55_4 H 0.7789 0.9878 0.5917
C92_4 C 0.4228(10) 0.7854(11) 0.4915(2)
C93_4 C 0.3623(12) 0.7325(9) 0.4882(3)
H57_4 H 0.3629 0.6819 0.4934
C94_4 C 0.3009(11) 0.7538(10) 0.4772(3)
H58_4 H 0.2596 0.7177 0.4750
C95_4 C 0.3000(10) 0.8279(11) 0.4697(3)
C96_4 C 0.3605(11) 0.8808(9) 0.4730(3)
H59_4 H 0.3598 0.9314 0.4678
C97_4 C 0.4218(10) 0.8595(10) 0.4839(3)
H60_4 H 0.4632 0.8956 0.4862
C98_4 C 0.2381(12) 0.8499(13) 0.4581(3)
N10_2 N 0.0273(10) 0.9342(12) 0.4088(2)
C99_4 C 0.0148(12) 0.8633(12) 0.4173(3)
C100_4 C 0.0652(14) 0.8400(13) 0.4305(3)
H62_4 H 0.0567 0.7915 0.4364
C101_4 C 0.1280(13) 0.8877(15) 0.4353(3)
C102_4 C 0.1405(13) 0.9586(15) 0.4267(3)
H63_4 H 0.1834 0.9912 0.4300
C103_4 C 0.0901(13) 0.9819(12) 0.4135(3)
C104_4 C 0.1811(14) 0.8648(16) 0.4493(3)
N11_2 N 0.1842(12) 0.2227(10) 0.6588(2)
C72_4 C 0.0999(13) 0.0119(12) 0.7081(3)
C73_4 C 0.1133(12) 0.2352(12) 0.6673(3)
H45_4 H 0.0807 0.2781 0.6641
C74_4 C 0.0900(13) 0.1848(14) 0.6805(3)
H46_4 H 0.0415 0.1933 0.6864
C75_4 C 0.1377(15) 0.1220(13) 0.6853(3)
C76_4 C 0.2086(15) 0.1095(13) 0.6767(3)
H47_4 H 0.2412 0.0666 0.6800
C77_4 C 0.2319(12) 0.1599(13) 0.6635(3)
H48_4 H 0.2804 0.1514 0.6577
C78_4 C 0.1148(16) 0.0689(14) 0.6993(3)
H51_5 H 0.0140 0.0111 0.9627
N9_5 N 0.2402(8) 0.1420(7) 0.88456(14)
C86_5 C 0.1715(9) 0.1656(8) 0.8928(2)
H53_5 H 0.1441 0.2109 0.8889
C87_5 C 0.1428(8) 0.1230(10) 0.9068(2)
H54_5 H 0.0959 0.1391 0.9125
C88_5 C 0.1829(9) 0.0567(9) 0.91261(16)
C89_5 C 0.2516(9) 0.0331(8) 0.9043(2)
C90_5 C 0.2802(8) 0.0757(9) 0.89032(19)
H56_5 H 0.3271 0.0596 0.8847
C91_5 C 0.1551(16) 0.0128(15) 0.9274(3)
Ag6_3 Ag 0.2808(2) 0.20743(17) 0.86263(4)
N12_3 N 0.3158(12) 0.2773(10) 0.8412(2)
H45_5 H 0.9719 0.3307 0.5859
Ag7_3 Ag 0.95743(17) 0.4692(2) 0.61263(4)
Si2_7 Si 0.5000 0.7500 0.74256(13)
C53_5 C 0.5846(10) 0.7136(11) 0.7286(2)
C54_5 C 0.5601(8) 0.6518(11) 0.7182(2)
H33_5 H 0.5090 0.6303 0.7195
C55_5 C 0.6106(10) 0.6213(10) 0.7056(2)
H34_5 H 0.5938 0.5791 0.6985
C56_5 C 0.6854(10) 0.6527(12) 0.7036(2)
C57_5 C 0.7099(9) 0.7146(12) 0.7141(3)
H35_5 H 0.7611 0.7360 0.7127
C58_5 C 0.6595(11) 0.7450(10) 0.7266(2)
H36_5 H 0.6762 0.7873 0.7338
C59_5 C 0.7389(15) 0.6213(17) 0.6912(3)
N7_5 N 0.8920(7) 0.5098(8) 0.63456(14)
C60_5 C 0.9156(8) 0.5785(9) 0.6428(2)
H37_5 H 0.9609 0.6059 0.6389
C61_5 C 0.8730(10) 0.6072(8) 0.6568(2)
H38_5 H 0.8891 0.6541 0.6625
C62_5 C 0.8067(9) 0.5671(9) 0.66261(16)
C63_5 C 0.7831(8) 0.4984(9) 0.6543(2)
H39_5 H 0.7378 0.4711 0.6583
C64_5 C 0.8257(9) 0.4698(8) 0.64032(19)
H40_5 H 0.8096 0.4229 0.6347
C65_5 C 0.7628(15) 0.5949(16) 0.6774(3)
C66_5 C 0.5354(11) 0.8272(10) 0.7585(2)
C67_5 C 0.4825(9) 0.8877(12) 0.7618(3)
H41_5 H 0.4319 0.8871 0.7566
C68_5 C 0.5038(10) 0.9491(11) 0.7728(3)
H42_5 H 0.4677 0.9904 0.7750
C69_5 C 0.5779(11) 0.9500(10) 0.7803(3)
C70_5 C 0.6308(9) 0.8895(11) 0.7770(3)
H43_5 H 0.6814 0.8902 0.7822
C71_5 C 0.6095(10) 0.8282(10) 0.7661(3)
H44_5 H 0.6456 0.7868 0.7638
C79_5 C 0.4154(10) 0.7864(11) 0.7286(2)
C80_5 C 0.4399(8) 0.8482(11) 0.7182(2)
H49_5 H 0.4910 0.8697 0.7195
C81_5 C 0.3894(10) 0.8787(10) 0.7056(2)
H50_5 H 0.4062 0.9209 0.6985
C82_5 C 0.3146(10) 0.8473(12) 0.7036(2)
C83_5 C 0.2901(9) 0.7854(12) 0.7141(3)
H51_6 H 0.2389 0.7640 0.7127
C84_5 C 0.3405(11) 0.7550(10) 0.7266(2)
H52_5 H 0.3238 0.7127 0.7338
C85_5 C 0.2611(15) 0.8787(17) 0.6912(3)
N9_6 N 0.1080(7) 0.9902(8) 0.63456(14)
C86_6 C 0.0844(8) 0.9215(9) 0.6428(2)
H53_6 H 0.0391 0.8941 0.6389
C87_6 C 0.1270(10) 0.8928(8) 0.6568(2)
H54_6 H 0.1109 0.8459 0.6625
C88_6 C 0.1933(9) 0.9329(9) 0.66261(16)
C91_6 C 0.2372(15) 0.9051(16) 0.6774(3)
C92_5 C 0.4646(11) 0.6728(10) 0.7585(2)
C93_5 C 0.5175(9) 0.6123(12) 0.7618(3)
H57_5 H 0.5681 0.6129 0.7566
C94_5 C 0.4962(10) 0.5509(11) 0.7728(3)
H58_5 H 0.5323 0.5096 0.7750
C95_5 C 0.4221(11) 0.5500(10) 0.7803(3)
C96_5 C 0.3692(9) 0.6105(11) 0.7770(3)
H59_5 H 0.3186 0.6098 0.7822
C97_5 C 0.3905(10) 0.6718(10) 0.7661(3)
H60_5 H 0.3544 0.7132 0.7638
C98_5 C 0.4001(13) 0.4881(12) 0.7919(3)
C99_5 C 0.3867(12) 0.2648(12) 0.8327(3)
H61_5 H 0.4193 0.2219 0.8359
C100_5 C 0.4100(13) 0.3152(14) 0.8195(3)
H62_5 H 0.4585 0.3067 0.8136
C101_5 C 0.3623(15) 0.3780(13) 0.8147(3)
C102_5 C 0.2914(15) 0.3905(13) 0.8233(3)
H63_5 H 0.2588 0.4334 0.8200
C103_5 C 0.2681(12) 0.3401(13) 0.8365(3)
H64_5 H 0.2196 0.3486 0.8423
C104_5 C 0.3852(16) 0.4311(14) 0.8007(3)
C66_6 C 0.0772(10) 0.7146(11) 0.0085(2)
C67_6 C 0.1377(12) 0.7675(9) 0.0118(3)
H41_6 H 0.1371 0.8181 0.0066
C68_6 C 0.1991(11) 0.7462(10) 0.0228(3)
H42_6 H 0.2404 0.7823 0.0250
C69_6 C 0.2000(10) 0.6721(11) 0.0303(3)
C70_6 C 0.1395(11) 0.6192(9) 0.0270(3)
H43_6 H 0.1402 0.5686 0.0322
C71_6 C 0.0782(10) 0.6405(10) 0.0161(3)
H44_6 H 0.0368 0.6044 0.0138
C72_5 C 0.2619(12) 0.6501(13) 0.0419(3)
N8_3 N 0.4727(10) 0.5658(12) 0.0912(2)
C73_5 C 0.4852(12) 0.6367(12) 0.0827(3)
H45_6 H 0.5281 0.6693 0.0859
C74_5 C 0.4348(14) 0.6600(13) 0.0695(3)
H46_5 H 0.4433 0.7085 0.0636
C75_5 C 0.3720(13) 0.6123(15) 0.0647(3)
C76_5 C 0.3595(13) 0.5414(15) 0.0733(3)
H47_5 H 0.3166 0.5088 0.0700
C77_5 C 0.4099(13) 0.5181(12) 0.0865(3)
H48_5 H 0.4014 0.4696 0.0923
C78_5 C 0.3189(14) 0.6352(16) 0.0507(3)
Ag7_4 Ag 0.54257(17) 0.5308(2) 0.11263(4)
Si2_8 Si 1.0000 0.2500 0.24256(13)
C53_6 C 0.9154(10) 0.2864(11) 0.2286(2)
C54_6 C 0.9399(8) 0.3482(11) 0.2182(2)
H33_6 H 0.9910 0.3697 0.2195
C55_6 C 0.8894(10) 0.3787(10) 0.2056(2)
H34_6 H 0.9062 0.4209 0.1985
C56_6 C 0.8146(10) 0.3473(12) 0.2036(2)
C57_6 C 0.7901(9) 0.2854(12) 0.2141(3)
H35_6 H 0.7389 0.2640 0.2127
C58_6 C 0.8405(11) 0.2550(10) 0.2266(2)
H36_6 H 0.8238 0.2127 0.2338
C59_6 C 0.7611(15) 0.3787(17) 0.1912(3)
N7_6 N 0.6080(7) 0.4902(8) 0.13456(14)
C60_6 C 0.5844(8) 0.4215(9) 0.1428(2)
H37_6 H 0.5391 0.3941 0.1389
C61_6 C 0.6270(10) 0.3928(8) 0.1568(2)
H38_6 H 0.6109 0.3459 0.1625
C62_6 C 0.6933(9) 0.4329(9) 0.16261(16)
C63_6 C 0.7169(8) 0.5016(9) 0.1543(2)
H39_6 H 0.7622 0.5289 0.1583
C64_6 C 0.6743(9) 0.5302(8) 0.14032(19)
H40_6 H 0.6904 0.5771 0.1347
C65_6 C 0.7372(15) 0.4051(16) 0.1774(3)
C66_7 C 0.9646(11) 0.1728(10) 0.2585(2)
C68_7 C 0.9962(10) 0.0509(11) 0.2728(3)
C69_7 C 0.9221(11) 0.0500(10) 0.2803(3)
C70_7 C 0.8692(9) 0.1105(11) 0.2770(3)
H43_7 H 0.8186 0.1098 0.2822
C71_7 C 0.8905(10) 0.1718(10) 0.2661(3)
H44_7 H 0.8544 0.2132 0.2638
C93_6 C 0.9825(9) 0.3877(12) 0.2618(3)
H57_6 H 0.9319 0.3871 0.2566
H58_6 H 0.9677 0.4904 0.2750
Si2_9 Si -0.0000 0.7500 0.99256(13)
H36_7 H 0.0373 0.5738 0.9838
C79_6 C 0.0364(11) 0.8346(10) 0.9786(2)
C80_6 C 0.0982(11) 0.8101(8) 0.9682(2)
H49_6 H 0.1197 0.7590 0.9695
C81_6 C 0.1287(10) 0.8606(10) 0.9556(2)
H50_6 H 0.1709 0.8438 0.9485
C82_6 C 0.0973(12) 0.9354(10) 0.9536(2)
C83_6 C 0.0354(12) 0.9599(9) 0.9641(3)
C84_6 C 0.0050(10) 0.9095(11) 0.9766(2)
C85_6 C 0.1287(17) 0.9889(15) 0.9412(3)
H55_5 H 0.2789 0.9878 0.9083
H64_6 H 0.5986 0.0304 0.0923
C92_6 C 0.9228(10) 0.7854(11) 0.0085(2)
C93_7 C 0.8623(12) 0.7325(9) 0.0118(3)
H57_7 H 0.8629 0.6819 0.0066
C94_6 C 0.8009(11) 0.7538(10) 0.0228(3)
H58_7 H 0.7596 0.7177 0.0250
C95_6 C 0.8000(10) 0.8279(11) 0.0303(3)
C96_6 C 0.8605(11) 0.8808(9) 0.0270(3)
H59_6 H 0.8598 0.9314 0.0322
C97_6 C 0.9218(10) 0.8595(10) 0.0161(3)
H60_6 H 0.9632 0.8956 0.0138
C98_6 C 0.7381(12) 0.8499(13) 0.0419(3)
N10_3 N 0.5273(10) 0.9342(12) 0.0912(2)
C99_6 C 0.5148(12) 0.8633(12) 0.0827(3)
H61_6 H 0.4719 0.8307 0.0859
C100_6 C 0.5652(14) 0.8400(13) 0.0695(3)
H62_6 H 0.5567 0.7915 0.0636
C101_6 C 0.6280(13) 0.8877(15) 0.0647(3)
C102_6 C 0.6405(13) 0.9586(15) 0.0733(3)
H63_6 H 0.6834 0.9912 0.0700
C103_6 C 0.5901(13) 0.9819(12) 0.0865(3)
C104_6 C 0.6811(14) 0.8648(16) 0.0507(3)
Ag8_3 Ag 0.45743(17) 0.9692(2) 0.11263(4)
C89_6 C 0.2831(8) 0.9984(9) 0.1543(2)
H55_6 H 0.2378 0.9711 0.1583
C90_6 C 0.3257(9) 0.9698(8) 0.14032(19)
H56_6 H 0.3096 0.9229 0.1347
Si2_10 Si 1.0000 0.7500 0.99256(13)
Ag5_3 Ag 0.7192(2) 0.29257(17) 0.86263(4)
C53_7 C 0.9636(11) 0.6654(10) 0.9786(2)
C54_7 C 0.9018(11) 0.6899(8) 0.9682(2)
H33_7 H 0.8803 0.7410 0.9695
C55_7 C 0.8713(10) 0.6394(10) 0.9556(2)
H34_7 H 0.8291 0.6562 0.9485
C56_7 C 0.9027(12) 0.5646(10) 0.9536(2)
C57_7 C 0.9646(12) 0.5401(9) 0.9641(3)
H35_7 H 0.9860 0.4889 0.9627
C58_7 C 0.9950(10) 0.5905(11) 0.9766(2)
C59_7 C 0.8713(17) 0.5111(15) 0.9412(3)
N7_7 N 0.7598(8) 0.3580(7) 0.88456(14)
C60_7 C 0.8285(9) 0.3344(8) 0.8928(2)
H37_7 H 0.8559 0.2891 0.8889
C61_7 C 0.8572(8) 0.3770(10) 0.9068(2)
H38_7 H 0.9041 0.3609 0.9125
C62_7 C 0.8171(9) 0.4433(9) 0.91261(16)
C63_7 C 0.7484(9) 0.4669(8) 0.9043(2)
H39_7 H 0.7211 0.5122 0.9083
C64_7 C 0.7198(8) 0.4243(9) 0.89032(19)
H40_7 H 0.6729 0.4404 0.8847
C65_7 C 0.8449(16) 0.4872(15) 0.9274(3)
H52_6 H 0.9627 0.9262 0.9838
N11_3 N 0.6842(12) 0.2227(10) 0.8412(2)
H61_7 H 0.0281 0.1693 0.5859
Ag8_4 Ag 0.04257(17) 0.0308(2) 0.61263(4)
C72_6 C 0.5999(13) 0.0119(12) 0.7919(3)
C73_6 C 0.6133(12) 0.2352(12) 0.8327(3)
H45_7 H 0.5807 0.2781 0.8359
C74_6 C 0.5900(13) 0.1848(14) 0.8195(3)
H46_6 H 0.5415 0.1933 0.8136
C75_6 C 0.6377(15) 0.1220(13) 0.8147(3)
C76_6 C 0.7086(15) 0.1095(13) 0.8233(3)
H47_6 H 0.7412 0.0666 0.8200
C77_6 C 0.7319(12) 0.1599(13) 0.8365(3)
H48_6 H 0.7804 0.1514 0.8423
C78_6 C 0.6148(16) 0.0689(14) 0.8007(3)
C89_7 C 0.2169(8) 0.0016(9) 0.6543(2)
H55_7 H 0.2622 0.0289 0.6583
C90_7 C 0.1743(9) 0.0302(8) 0.64032(19)
H56_7 H 0.1904 0.0771 0.6347
Si2_11 Si 0.5000 0.2500 0.49256(13)
Ag5_4 Ag 0.7808(2) 0.70743(17) 0.36263(4)
C53_8 C 0.5364(11) 0.3346(10) 0.4786(2)
C54_8 C 0.5982(11) 0.3101(8) 0.4682(2)
H33_8 H 0.6197 0.2590 0.4695
C55_8 C 0.6287(10) 0.3606(10) 0.4556(2)
H34_8 H 0.6709 0.3438 0.4485
C56_8 C 0.5973(12) 0.4354(10) 0.4536(2)
C57_8 C 0.5354(12) 0.4599(9) 0.4641(3)
H35_8 H 0.5140 0.5111 0.4627
C58_8 C 0.5050(10) 0.4095(11) 0.4766(2)
H36_8 H 0.4627 0.4262 0.4838
C59_8 C 0.6287(17) 0.4889(15) 0.4412(3)
N7_8 N 0.7402(8) 0.6420(7) 0.38456(14)
C60_8 C 0.6715(9) 0.6656(8) 0.3928(2)
H37_8 H 0.6441 0.7109 0.3889
C61_8 C 0.6428(8) 0.6230(10) 0.4068(2)
H38_8 H 0.5959 0.6391 0.4125
C62_8 C 0.6829(9) 0.5567(9) 0.41261(16)
C63_8 C 0.7516(9) 0.5331(8) 0.4043(2)
H39_8 H 0.7789 0.4878 0.4083
C64_8 C 0.7802(8) 0.5757(9) 0.39032(19)
H40_8 H 0.8271 0.5596 0.3847
C65_8 C 0.6551(16) 0.5128(15) 0.4274(3)
C66_8 C 0.4228(10) 0.2854(11) 0.5085(2)
C67_7 C 0.3623(12) 0.2325(9) 0.5118(3)
H41_7 H 0.3629 0.1819 0.5066
C68_8 C 0.3009(11) 0.2538(10) 0.5228(3)
H42_7 H 0.2596 0.2177 0.5250
C69_8 C 0.3000(10) 0.3279(11) 0.5303(3)
C70_8 C 0.3605(11) 0.3808(9) 0.5270(3)
H43_8 H 0.3598 0.4314 0.5322
C71_8 C 0.4218(10) 0.3595(10) 0.5161(3)
H44_8 H 0.4632 0.3956 0.5138
C72_7 C 0.2381(12) 0.3499(13) 0.5419(3)
N8_4 N 0.0273(10) 0.4342(12) 0.5912(2)
C73_7 C 0.0148(12) 0.3633(12) 0.5827(3)
C74_7 C 0.0652(14) 0.3400(13) 0.5695(3)
H46_7 H 0.0567 0.2915 0.5636
C75_7 C 0.1280(13) 0.3877(15) 0.5647(3)
C76_7 C 0.1405(13) 0.4586(15) 0.5733(3)
H47_7 H 0.1834 0.4912 0.5700
C77_7 C 0.0901(13) 0.4819(12) 0.5865(3)
H48_7 H 0.0986 0.5304 0.5923
C78_7 C 0.1811(14) 0.3648(16) 0.5507(3)
C79_7 C 0.4636(11) 0.1654(10) 0.4786(2)
C80_7 C 0.4018(11) 0.1899(8) 0.4682(2)
H49_7 H 0.3803 0.2410 0.4695
C81_7 C 0.3713(10) 0.1394(10) 0.4556(2)
H50_7 H 0.3291 0.1562 0.4485
C82_7 C 0.4027(12) 0.0646(10) 0.4536(2)
C83_7 C 0.4646(12) 0.0401(9) 0.4641(3)
C84_7 C 0.4950(10) 0.0905(11) 0.4766(2)
H52_7 H 0.5373 0.0738 0.4838
C85_7 C 0.3713(17) 0.0111(15) 0.4412(3)
H55_8 H 0.2211 0.0122 0.4083
C92_7 C 0.5772(10) 0.2146(11) 0.5085(2)
C93_8 C 0.6377(12) 0.2675(9) 0.5118(3)
H57_8 H 0.6371 0.3181 0.5066
C94_7 C 0.6991(11) 0.2462(10) 0.5228(3)
H58_8 H 0.7404 0.2823 0.5250
C95_7 C 0.7000(10) 0.1721(11) 0.5303(3)
C96_7 C 0.6395(11) 0.1192(9) 0.5270(3)
H59_7 H 0.6402 0.0686 0.5322
C97_7 C 0.5782(10) 0.1405(10) 0.5161(3)
H60_7 H 0.5368 0.1044 0.5138
C98_7 C 0.7619(12) 0.1501(13) 0.5419(3)
N10_4 N 0.9727(10) 0.0658(12) 0.5912(2)
C99_7 C 0.9852(12) 0.1367(12) 0.5827(3)
C100_7 C 0.9348(14) 0.1600(13) 0.5695(3)
H62_7 H 0.9433 0.2085 0.5636
C101_7 C 0.8720(13) 0.1123(15) 0.5647(3)
C102_7 C 0.8595(13) 0.0414(15) 0.5733(3)
H63_7 H 0.8166 0.0088 0.5700
C103_7 C 0.9099(13) 0.0181(12) 0.5865(3)
C104_7 C 0.8189(14) 0.1352(16) 0.5507(3)
N11_4 N 0.8158(12) 0.7773(10) 0.3412(2)
C72_8 C 0.9001(13) 0.9881(12) 0.2919(3)
C73_8 C 0.8867(12) 0.7648(12) 0.3327(3)
H45_8 H 0.9193 0.7219 0.3359
C74_8 C 0.9100(13) 0.8152(14) 0.3195(3)
H46_8 H 0.9585 0.8067 0.3136
C75_8 C 0.8623(15) 0.8780(13) 0.3147(3)
C76_8 C 0.7914(15) 0.8905(13) 0.3233(3)
H47_8 H 0.7588 0.9334 0.3200
C77_8 C 0.7681(12) 0.8401(13) 0.3365(3)
H48_8 H 0.7196 0.8486 0.3423
C78_8 C 0.8852(16) 0.9311(14) 0.3007(3)
H51_7 H 0.4860 0.9889 0.4627
N9_7 N 0.2598(8) 0.8580(7) 0.38456(14)
C86_7 C 0.3285(9) 0.8344(8) 0.3928(2)
H53_7 H 0.3559 0.7891 0.3889
C87_7 C 0.3572(8) 0.8770(10) 0.4068(2)
H54_7 H 0.4041 0.8609 0.4125
C88_7 C 0.3171(9) 0.9433(9) 0.41261(16)
C89_8 C 0.2484(9) 0.9669(8) 0.4043(2)
C90_8 C 0.2198(8) 0.9243(9) 0.39032(19)
H56_8 H 0.1729 0.9404 0.3847
C91_7 C 0.3449(16) 0.9872(15) 0.4274(3)
H64_7 H 0.9014 0.9696 0.5923
Ag6_4 Ag 0.2192(2) 0.79257(17) 0.36263(4)
N12_4 N 0.1842(12) 0.7227(10) 0.3412(2)
Si2_12 Si 0.0000 0.2500 0.24256(13)
C67_8 C 0.0175(9) 0.1123(12) 0.2618(3)
H41_8 H 0.0681 0.1129 0.2566
H42_8 H 0.0323 0.0096 0.2750
C79_8 C 0.0846(10) 0.2136(11) 0.2286(2)
C80_8 C 0.0601(8) 0.1518(11) 0.2182(2)
H49_8 H 0.0090 0.1303 0.2195
C81_8 C 0.1106(10) 0.1213(10) 0.2056(2)
H50_8 H 0.0938 0.0791 0.1985
C82_8 C 0.1854(10) 0.1527(12) 0.2036(2)
C83_8 C 0.2099(9) 0.2146(12) 0.2141(3)
H51_8 H 0.2611 0.2360 0.2127
C84_8 C 0.1595(11) 0.2450(10) 0.2266(2)
H52_8 H 0.1762 0.2873 0.2338
C85_8 C 0.2389(15) 0.1213(17) 0.1912(3)
N9_8 N 0.3920(7) 0.0098(8) 0.13456(14)
C86_8 C 0.4156(8) 0.0785(9) 0.1428(2)
H53_8 H 0.4609 0.1059 0.1389
C87_8 C 0.3730(10) 0.1072(8) 0.1568(2)
H54_8 H 0.3891 0.1541 0.1625
C88_8 C 0.3067(9) 0.0671(9) 0.16261(16)
C91_8 C 0.2628(15) 0.0949(16) 0.1774(3)
C92_8 C 0.0354(11) 0.3272(10) 0.2585(2)
C94_8 C 0.0038(10) 0.4491(11) 0.2728(3)
C95_8 C 0.0779(11) 0.4500(10) 0.2803(3)
C96_8 C 0.1308(9) 0.3895(11) 0.2770(3)
H59_8 H 0.1814 0.3902 0.2822
C97_8 C 0.1095(10) 0.3282(10) 0.2661(3)
H60_8 H 0.1456 0.2868 0.2638
C98_8 C 0.0999(13) 0.5119(12) 0.2919(3)
C99_8 C 0.1133(12) 0.7352(12) 0.3327(3)
H61_8 H 0.0807 0.7781 0.3359
C100_8 C 0.0900(13) 0.6848(14) 0.3195(3)
H62_8 H 0.0415 0.6933 0.3136
C101_8 C 0.1377(15) 0.6220(13) 0.3147(3)
C102_8 C 0.2086(15) 0.6095(13) 0.3233(3)
H63_8 H 0.2412 0.5666 0.3200
C103_8 C 0.2319(12) 0.6599(13) 0.3365(3)
H64_8 H 0.2804 0.6514 0.3423
C104_8 C 0.1148(16) 0.5689(14) 0.3007(3)
loop_
_geom_bond_atom_site_label_1
_geom_bond_atom_site_label_2
_geom_bond_site_symmetry_1
_geom_bond_site_symmetry_2
C47 H29 1_555 1_555
C48 C47 1_555 1_555
H30 C48 1_555 1_555
N3 C34 1_555 1_555
C34 H21 1_555 1_555
C35 C34 1_555 1_555
H22 C35 1_555 1_555
C36 C35 1_555 1_555
C37 C36 1_555 1_555
H23 C37 1_555 1_555
C38 N3 1_555 1_555
H24 C38 1_555 1_555
C39 C33 1_555 1_555
C47_2 H29_2 1_555 1_555
C48_2 C47_2 1_555 1_555
H30_2 C48_2 1_555 1_555
Ag2 N3 1_555 1_555
N6 Ag2 1_555 1_555
C36 C39 1_555 1_555
C37 C38 1_555 1_555
C27 Si1 1_555 1_555
C28 C27 1_555 1_555
H17 C28 1_555 1_555
C29 C28 1_555 1_555
H18 C29 1_555 1_555
C30 C29 1_555 1_555
C31 C30 1_555 1_555
H19 C31 1_555 1_555
C32 C27 1_555 1_555
H20 C32 1_555 1_555
C33_2 C30 1_555 1_555
N3_2 C34_2 1_555 1_555
C35_2 C34_2 1_555 1_555
C36_2 C35_2 1_555 1_555
C37_2 C36_2 1_555 1_555
H23_2 C37_2 1_555 1_555
C38_2 N3_2 1_555 1_555
H24_2 C38_2 1_555 1_555
C39_2 C33_2 1_555 1_555
C40 Si1 1_555 1_555
C41 C40 1_555 1_555
H25 C41 1_555 1_555
C42 C41 1_555 1_555
H26 C42 1_555 1_555
C43 C42 1_555 1_555
C44 C43 1_555 1_555
H27 C44 1_555 1_555
C45 C40 1_555 1_555
C46 C43 1_555 1_555
N6 C47_3 1_555 1_555
C47_3 H29_3 1_555 1_555
C48_3 C47_3 1_555 1_555
H30_3 C48_3 1_555 1_555
C49 C48_3 1_555 1_555
C50 C49 1_555 1_555
H31 C50 1_555 1_555
C51 N6 1_555 1_555
H32 C51 1_555 1_555
C52 C46 1_555 1_555
Ag4 N3_2 1_555 1_555
C31 C32 1_555 1_555
C36_2 C39_2 1_555 1_555
C37_2 C38_2 1_555 1_555
C44 C45 1_555 1_555
C49 C52 1_555 1_555
C50 C51 1_555 1_555
Si1_2 C1 1_555 1_555
Ag1 N1 1_555 1_555
C4 C3 1_555 1_555
C5 C4 1_555 1_555
H3 C5 1_555 1_555
C6 C1 1_555 1_555
H4 C6 1_555 1_555
C7 C4 1_555 1_555
N1 C8 1_555 1_555
C8 H5 1_555 1_555
C9 C8 1_555 1_555
H6 C9 1_555 1_555
C10 C9 1_555 1_555
C11 C10 1_555 1_555
H7 C11 1_555 1_555
C12 N1 1_555 1_555
H8 C12 1_555 1_555
C13 C7 1_555 1_555
H17_2 C28_2 1_555 1_555
C40_2 Si1_2 1_555 1_555
C41_2 C40_2 1_555 1_555
C42_2 C41_2 1_555 1_555
H26_2 C42_2 1_555 1_555
C43_2 C42_2 1_555 1_555
C44_2 C43_2 1_555 1_555
H27_2 C44_2 1_555 1_555
C45_2 C40_2 1_555 1_555
H28 C45_2 1_555 1_555
C46_2 C43_2 1_555 1_555
C50_2 C49_2 1_555 1_555
H31_2 C50_2 1_555 1_555
C51_2 N4 1_555 1_555
H32_2 C51_2 1_555 1_555
C52_2 C46_2 1_555 1_555
N5 Ag1 1_555 1_555
C5 C6 1_555 1_555
C10 C13 1_555 1_555
C11 C12 1_555 1_555
C44_2 C45_2 1_555 1_555
C49_2 C52_2 1_555 1_555
C50_2 C51_2 1_555 1_555
N5 C21 1_555 1_555
C21 H13 1_555 1_555
C22 C21 1_555 1_555
H14 C22 1_555 1_555
C23 C22 1_555 1_555
C24 C23 1_555 1_555
H15 C24 1_555 1_555
C25 N5 1_555 1_555
H16 C25 1_555 1_555
C23 C26 1_555 1_555
C24 C25 1_555 1_555
N3_3 C34_3 1_555 1_555
C34_3 H21_3 1_555 1_555
C35_3 C34_3 1_555 1_555
H22_3 C35_3 1_555 1_555
C36_3 C35_3 1_555 1_555
C37_3 C36_3 1_555 1_555
H23_3 C37_3 1_555 1_555
C38_3 N3_3 1_555 1_555
H24_3 C38_3 1_555 1_555
C39_3 C33_3 1_555 1_555
Ag2_2 N3_3 1_555 1_555
N6_2 Ag2_2 1_555 1_555
C36_3 C39_3 1_555 1_555
C37_3 C38_3 1_555 1_555
C14 Si1_3 1_555 1_555
C15 C14 1_555 1_555
H9_2 C15 1_555 1_555
C16 C15 1_555 1_555
H10 C16 1_555 1_555
C17 C16 1_555 1_555
C18 C17 1_555 1_555
C19 C14 1_555 1_555
H12_2 C19 1_555 1_555
C20 C17 1_555 1_555
C40_3 Si1_3 1_555 1_555
C41_3 C40_3 1_555 1_555
H25_2 C41_3 1_555 1_555
C42_3 C41_3 1_555 1_555
H26_3 C42_3 1_555 1_555
C43_3 C42_3 1_555 1_555
C44_3 C43_3 1_555 1_555
H27_3 C44_3 1_555 1_555
C45_3 C40_3 1_555 1_555
H28_2 C45_3 1_555 1_555
C46_3 C43_3 1_555 1_555
N6_2 C47_4 1_555 1_555
C47_4 H29_4 1_555 1_555
C48_4 C47_4 1_555 1_555
H30_4 C48_4 1_555 1_555
C49_3 C48_4 1_555 1_555
C50_3 C49_3 1_555 1_555
H31_3 C50_3 1_555 1_555
C51_3 N6_2 1_555 1_555
H32_3 C51_3 1_555 1_555
C52_3 C46_3 1_555 1_555
C18 C19 1_555 1_555
C44_3 C45_3 1_555 1_555
C49_3 C52_3 1_555 1_555
C50_3 C51_3 1_555 1_555
C2 H1 1_555 1_555
C14_2 Si1_4 1_555 1_555
C15_2 C14_2 1_555 1_555
C16_2 C15_2 1_555 1_555
H10_2 C16_2 1_555 1_555
C17_2 C16_2 1_555 1_555
C18_2 C17_2 1_555 1_555
H11_2 C18_2 1_555 1_555
C19_2 C14_2 1_555 1_555
H12_3 C19_2 1_555 1_555
C20_2 C17_2 1_555 1_555
N2 C21_2 1_555 1_555
C21_2 H13_2 1_555 1_555
C22_2 C21_2 1_555 1_555
H14_2 C22_2 1_555 1_555
C23_2 C22_2 1_555 1_555
C24_2 C23_2 1_555 1_555
H15_2 C24_2 1_555 1_555
C25_2 N2 1_555 1_555
H16_2 C25_2 1_555 1_555
C26_2 C20_2 1_555 1_555
C27_2 Si1_4 1_555 1_555
C30_2 C29_2 1_555 1_555
C31_2 C30_2 1_555 1_555
H19_2 C31_2 1_555 1_555
C32_2 C27_2 1_555 1_555
H20_3 C32_2 1_555 1_555
Ag3 N2 1_555 1_555
C18_2 C19_2 1_555 1_555
C23_2 C26_2 1_555 1_555
C24_2 C25_2 1_555 1_555
C31_2 C32_2 1_555 1_555
Si1_5 C1_2 1_555 1_555
Ag3 N1_2 1_555 1_555
C1_2 C2_2 1_555 1_555
C2_2 H1_2 1_555 1_555
C3_2 C2_2 1_555 1_555
H2_2 C3_2 1_555 1_555
C4_2 C3_2 1_555 1_555
C5_2 C4_2 1_555 1_555
H3_2 C5_2 1_555 1_555
C6_2 C1_2 1_555 1_555
H4_3 C6_2 1_555 1_555
C7_2 C4_2 1_555 1_555
N1_2 C8_2 1_555 1_555
C8_2 H5_2 1_555 1_555
C9_2 C8_2 1_555 1_555
H6_2 C9_2 1_555 1_555
C10_2 C9_2 1_555 1_555
C11_2 C10_2 1_555 1_555
H7_2 C11_2 1_555 1_555
C12_2 N1_2 1_555 1_555
H8_2 C12_2 1_555 1_555
C13_2 C7_2 1_555 1_555
C14_3 Si1_5 1_555 1_555
C15_3 C14_3 1_555 1_555
H9_3 C15_3 1_555 1_555
C16_3 C15_3 1_555 1_555
H10_3 C16_3 1_555 1_555
C17_3 C16_3 1_555 1_555
C18_3 C17_3 1_555 1_555
C19_3 C14_3 1_555 1_555
C20_3 C17_3 1_555 1_555
C5_2 C6_2 1_555 1_555
C10_2 C13_2 1_555 1_555
C11_2 C12_2 1_555 1_555
C18_3 C19_3 1_555 1_555
Si1_6 C1_3 1_555 1_555
Ag1_2 N1_3 1_555 1_555
C1_3 C2_3 1_555 1_555
C2_3 H1_3 1_555 1_555
C3_3 C2_3 1_555 1_555
H2_3 C3_3 1_555 1_555
C4_3 C3_3 1_555 1_555
C5_3 C4_3 1_555 1_555
H3_3 C5_3 1_555 1_555
C6_3 C1_3 1_555 1_555
H4_4 C6_3 1_555 1_555
C7_3 C4_3 1_555 1_555
N1_3 C8_3 1_555 1_555
C8_3 H5_3 1_555 1_555
C9_3 C8_3 1_555 1_555
H6_3 C9_3 1_555 1_555
C10_3 C9_3 1_555 1_555
C11_3 C10_3 1_555 1_555
H7_3 C11_3 1_555 1_555
C12_3 N1_3 1_555 1_555
H8_3 C12_3 1_555 1_555
C13_3 C7_3 1_555 1_555
C14_4 Si1_6 1_555 1_555
C15_4 C14_4 1_555 1_555
H9_4 C15_4 1_555 1_555
C16_4 C15_4 1_555 1_555
H10_4 C16_4 1_555 1_555
C17_4 C16_4 1_555 1_555
C18_4 C17_4 1_555 1_555
H11_3 C18_4 1_555 1_555
C19_4 C14_4 1_555 1_555
H12_4 C19_4 1_555 1_555
C20_4 C17_4 1_555 1_555
N2_2 C21_3 1_555 1_555
C21_3 H13_3 1_555 1_555
C22_3 C21_3 1_555 1_555
H14_3 C22_3 1_555 1_555
C23_3 C22_3 1_555 1_555
C24_3 C23_3 1_555 1_555
H15_3 C24_3 1_555 1_555
C25_3 N2_2 1_555 1_555
H16_3 C25_3 1_555 1_555
C26_3 C20_4 1_555 1_555
C27_3 Si1_6 1_555 1_555
C28_3 C27_3 1_555 1_555
H17_3 C28_3 1_555 1_555
C29_3 C28_3 1_555 1_555
H18_3 C29_3 1_555 1_555
C30_3 C29_3 1_555 1_555
C31_3 C30_3 1_555 1_555
H19_3 C31_3 1_555 1_555
C32_3 C27_3 1_555 1_555
H20_4 C32_3 1_555 1_555
C40_4 Si1_6 1_555 1_555
C41_4 C40_4 1_555 1_555
H25_4 C41_4 1_555 1_555
C42_4 C41_4 1_555 1_555
H26_4 C42_4 1_555 1_555
C43_4 C42_4 1_555 1_555
C44_4 C43_4 1_555 1_555
H27_4 C44_4 1_555 1_555
C45_4 C40_4 1_555 1_555
H28_4 C45_4 1_555 1_555
C46_4 C43_4 1_555 1_555
C50_4 C49_4 1_555 1_555
H31_4 C50_4 1_555 1_555
C51_4 N4_2 1_555 1_555
H32_4 C51_4 1_555 1_555
C52_4 C46_4 1_555 1_555
Ag3_2 N2_2 1_555 1_555
N5_2 Ag1_2 1_555 1_555
C5_3 C6_3 1_555 1_555
C10_3 C13_3 1_555 1_555
C11_3 C12_3 1_555 1_555
C18_4 C19_4 1_555 1_555
C23_3 C26_3 1_555 1_555
C24_3 C25_3 1_555 1_555
C31_3 C32_3 1_555 1_555
C44_4 C45_4 1_555 1_555
C49_4 C52_4 1_555 1_555
C50_4 C51_4 1_555 1_555
N5_2 C21_4 1_555 1_555
C21_4 H13_4 1_555 1_555
C22_4 C21_4 1_555 1_555
H14_4 C22_4 1_555 1_555
C23_4 C22_4 1_555 1_555
C24_4 C23_4 1_555 1_555
H15_4 C24_4 1_555 1_555
C25_4 N5_2 1_555 1_555
H16_4 C25_4 1_555 1_555
C23_4 C26_4 1_555 1_555
C24_4 C25_4 1_555 1_555
C1_4 C2_4 1_555 1_555
C2_4 H1_4 1_555 1_555
C3_4 C2_4 1_555 1_555
H2_4 C3_4 1_555 1_555
C4_4 C3_4 1_555 1_555
C5_4 C4_4 1_555 1_555
H3_4 C5_4 1_555 1_555
C6_4 C1_4 1_555 1_555
C7_4 C4_4 1_555 1_555
N1_4 C8_4 1_555 1_555
C8_4 H5_4 1_555 1_555
C9_4 C8_4 1_555 1_555
H6_4 C9_4 1_555 1_555
C10_4 C9_4 1_555 1_555
C11_4 C10_4 1_555 1_555
H7_4 C11_4 1_555 1_555
C12_4 N1_4 1_555 1_555
H8_4 C12_4 1_555 1_555
C13_4 C7_4 1_555 1_555
C28_4 C27_4 1_555 1_555
H17_4 C28_4 1_555 1_555
C29_4 C28_4 1_555 1_555
H18_4 C29_4 1_555 1_555
C30_4 C29_4 1_555 1_555
C31_4 C30_4 1_555 1_555
H19_4 C31_4 1_555 1_555
C32_4 C27_4 1_555 1_555
C33_4 C30_4 1_555 1_555
N3_4 C34_4 1_555 1_555
C35_4 C34_4 1_555 1_555
C36_4 C35_4 1_555 1_555
C37_4 C36_4 1_555 1_555
H23_4 C37_4 1_555 1_555
C38_4 N3_4 1_555 1_555
H24_4 C38_4 1_555 1_555
C39_4 C33_4 1_555 1_555
C5_4 C6_4 1_555 1_555
C10_4 C13_4 1_555 1_555
C11_4 C12_4 1_555 1_555
C31_4 C32_4 1_555 1_555
C36_4 C39_4 1_555 1_555
C37_4 C38_4 1_555 1_555
C2_5 H1_5 1_555 1_555
C14_5 Si1_7 1_555 1_555
C15_5 C14_5 1_555 1_555
C16_5 C15_5 1_555 1_555
H10_5 C16_5 1_555 1_555
C17_5 C16_5 1_555 1_555
C18_5 C17_5 1_555 1_555
H11_5 C18_5 1_555 1_555
C19_5 C14_5 1_555 1_555
H12_5 C19_5 1_555 1_555
C20_5 C17_5 1_555 1_555
N2_3 C21_5 1_555 1_555
C21_5 H13_5 1_555 1_555
C22_5 C21_5 1_555 1_555
H14_5 C22_5 1_555 1_555
C23_5 C22_5 1_555 1_555
C24_5 C23_5 1_555 1_555
H15_5 C24_5 1_555 1_555
C25_5 N2_3 1_555 1_555
H16_5 C25_5 1_555 1_555
C26_5 C20_5 1_555 1_555
C27_5 Si1_7 1_555 1_555
C30_5 C29_5 1_555 1_555
C31_5 C30_5 1_555 1_555
H19_5 C31_5 1_555 1_555
C32_5 C27_5 1_555 1_555
H20_5 C32_5 1_555 1_555
Ag3_3 N2_3 1_555 1_555
C18_5 C19_5 1_555 1_555
C23_5 C26_5 1_555 1_555
C24_5 C25_5 1_555 1_555
C31_5 C32_5 1_555 1_555
Si1_8 C1_5 1_555 1_555
Ag3_3 N1_5 1_555 1_555
C1_5 C2_6 1_555 1_555
C2_6 H1_6 1_555 1_555
C3_5 C2_6 1_555 1_555
H2_6 C3_5 1_555 1_555
C4_5 C3_5 1_555 1_555
C5_5 C4_5 1_555 1_555
H3_5 C5_5 1_555 1_555
C6_5 C1_5 1_555 1_555
H4_5 C6_5 1_555 1_555
C7_5 C4_5 1_555 1_555
N1_5 C8_5 1_555 1_555
C8_5 H5_5 1_555 1_555
C9_5 C8_5 1_555 1_555
H6_5 C9_5 1_555 1_555
C10_5 C9_5 1_555 1_555
C11_5 C10_5 1_555 1_555
H7_5 C11_5 1_555 1_555
C12_5 N1_5 1_555 1_555
H8_5 C12_5 1_555 1_555
C13_5 C7_5 1_555 1_555
C14_6 Si1_8 1_555 1_555
C15_6 C14_6 1_555 1_555
H9_5 C15_6 1_555 1_555
C16_6 C15_6 1_555 1_555
H10_6 C16_6 1_555 1_555
C17_6 C16_6 1_555 1_555
C18_6 C17_6 1_555 1_555
C19_6 C14_6 1_555 1_555
C20_6 C17_6 1_555 1_555
C5_5 C6_5 1_555 1_555
C10_5 C13_5 1_555 1_555
C11_5 C12_5 1_555 1_555
C18_6 C19_6 1_555 1_555
N3_5 C34_5 1_555 1_555
C34_5 H21_5 1_555 1_555
C35_5 C34_5 1_555 1_555
H22_5 C35_5 1_555 1_555
C36_5 C35_5 1_555 1_555
C37_5 C36_5 1_555 1_555
H23_5 C37_5 1_555 1_555
C38_5 N3_5 1_555 1_555
H24_5 C38_5 1_555 1_555
C39_5 C33_5 1_555 1_555
Ag2_3 N3_5 1_555 1_555
N6_3 Ag2_3 1_555 1_555
C36_5 C39_5 1_555 1_555
C37_5 C38_5 1_555 1_555
C14_7 Si1_9 1_555 1_555
C15_7 C14_7 1_555 1_555
H9_6 C15_7 1_555 1_555
C16_7 C15_7 1_555 1_555
H10_7 C16_7 1_555 1_555
C17_7 C16_7 1_555 1_555
C18_7 C17_7 1_555 1_555
C19_7 C14_7 1_555 1_555
H12_6 C19_7 1_555 1_555
C20_7 C17_7 1_555 1_555
C40_5 Si1_9 1_555 1_555
C41_5 C40_5 1_555 1_555
H25_6 C41_5 1_555 1_555
C42_5 C41_5 1_555 1_555
H26_5 C42_5 1_555 1_555
C43_5 C42_5 1_555 1_555
C44_5 C43_5 1_555 1_555
H27_5 C44_5 1_555 1_555
C45_5 C40_5 1_555 1_555
H28_6 C45_5 1_555 1_555
C46_5 C43_5 1_555 1_555
N6_3 C47_5 1_555 1_555
C47_5 H29_5 1_555 1_555
C48_5 C47_5 1_555 1_555
H30_5 C48_5 1_555 1_555
C49_5 C48_5 1_555 1_555
C50_5 C49_5 1_555 1_555
H31_5 C50_5 1_555 1_555
C51_5 N6_3 1_555 1_555
H32_5 C51_5 1_555 1_555
C52_5 C46_5 1_555 1_555
C18_7 C19_7 1_555 1_555
C44_5 C45_5 1_555 1_555
C49_5 C52_5 1_555 1_555
C50_5 C51_5 1_555 1_555
Si1_10 C1_6 1_555 1_555
Ag1_3 N1_6 1_555 1_555
C4_6 C3_6 1_555 1_555
C5_6 C4_6 1_555 1_555
H3_6 C5_6 1_555 1_555
C6_6 C1_6 1_555 1_555
H4_7 C6_6 1_555 1_555
C7_6 C4_6 1_555 1_555
N1_6 C8_6 1_555 1_555
C8_6 H5_6 1_555 1_555
C9_6 C8_6 1_555 1_555
H6_6 C9_6 1_555 1_555
C10_6 C9_6 1_555 1_555
C11_6 C10_6 1_555 1_555
H7_6 C11_6 1_555 1_555
C12_6 N1_6 1_555 1_555
H8_6 C12_6 1_555 1_555
C13_6 C7_6 1_555 1_555
H17_5 C28_5 1_555 1_555
C40_6 Si1_10 1_555 1_555
C41_6 C40_6 1_555 1_555
C42_6 C41_6 1_555 1_555
H26_6 C42_6 1_555 1_555
C43_6 C42_6 1_555 1_555
C44_6 C43_6 1_555 1_555
H27_6 C44_6 1_555 1_555
C45_6 C40_6 1_555 1_555
H28_7 C45_6 1_555 1_555
C46_6 C43_6 1_555 1_555
C50_6 C49_6 1_555 1_555
H31_6 C50_6 1_555 1_555
C51_6 N4_3 1_555 1_555
H32_6 C51_6 1_555 1_555
C52_6 C46_6 1_555 1_555
N5_3 Ag1_3 1_555 1_555
C5_6 C6_6 1_555 1_555
C10_6 C13_6 1_555 1_555
C11_6 C12_6 1_555 1_555
C44_6 C45_6 1_555 1_555
C49_6 C52_6 1_555 1_555
C50_6 C51_6 1_555 1_555
N5_3 C21_6 1_555 1_555
C21_6 H13_6 1_555 1_555
C22_6 C21_6 1_555 1_555
H14_6 C22_6 1_555 1_555
C23_6 C22_6 1_555 1_555
C24_6 C23_6 1_555 1_555
H15_6 C24_6 1_555 1_555
C25_6 N5_3 1_555 1_555
H16_6 C25_6 1_555 1_555
C23_6 C26_6 1_555 1_555
C24_6 C25_6 1_555 1_555
C47_6 H29_6 1_555 1_555
C48_6 C47_6 1_555 1_555
H30_6 C48_6 1_555 1_555
N3_6 C34_6 1_555 1_555
C34_6 H21_7 1_555 1_555
C35_6 C34_6 1_555 1_555
H22_7 C35_6 1_555 1_555
C36_6 C35_6 1_555 1_555
C37_6 C36_6 1_555 1_555
H23_6 C37_6 1_555 1_555
C38_6 N3_6 1_555 1_555
H24_6 C38_6 1_555 1_555
C39_6 C33_6 1_555 1_555
C47_7 H29_7 1_555 1_555
C48_7 C47_7 1_555 1_555
H30_7 C48_7 1_555 1_555
Ag2_4 N3_6 1_555 1_555
N6_4 Ag2_4 1_555 1_555
C36_6 C39_6 1_555 1_555
C37_6 C38_6 1_555 1_555
C27_6 Si1_11 1_555 1_555
C28_6 C27_6 1_555 1_555
H17_6 C28_6 1_555 1_555
C29_6 C28_6 1_555 1_555
H18_6 C29_6 1_555 1_555
C30_6 C29_6 1_555 1_555
C31_6 C30_6 1_555 1_555
H19_6 C31_6 1_555 1_555
C32_6 C27_6 1_555 1_555
H20_7 C32_6 1_555 1_555
C33_7 C30_6 1_555 1_555
N3_7 C34_7 1_555 1_555
C35_7 C34_7 1_555 1_555
C36_7 C35_7 1_555 1_555
C37_7 C36_7 1_555 1_555
H23_7 C37_7 1_555 1_555
C38_7 N3_7 1_555 1_555
H24_7 C38_7 1_555 1_555
C39_7 C33_7 1_555 1_555
C40_7 Si1_11 1_555 1_555
C41_7 C40_7 1_555 1_555
H25_7 C41_7 1_555 1_555
C42_7 C41_7 1_555 1_555
H26_7 C42_7 1_555 1_555
C43_7 C42_7 1_555 1_555
C44_7 C43_7 1_555 1_555
H27_7 C44_7 1_555 1_555
C45_7 C40_7 1_555 1_555
C46_7 C43_7 1_555 1_555
N6_4 C47_8 1_555 1_555
C47_8 H29_8 1_555 1_555
C48_8 C47_8 1_555 1_555
H30_8 C48_8 1_555 1_555
C49_7 C48_8 1_555 1_555
C50_7 C49_7 1_555 1_555
H31_7 C50_7 1_555 1_555
C51_7 N6_4 1_555 1_555
H32_7 C51_7 1_555 1_555
C52_7 C46_7 1_555 1_555
Ag4_3 N3_7 1_555 1_555
C31_6 C32_6 1_555 1_555
C36_7 C39_7 1_555 1_555
C37_7 C38_7 1_555 1_555
C44_7 C45_7 1_555 1_555
C49_7 C52_7 1_555 1_555
C50_7 C51_7 1_555 1_555
Si1_12 C1_7 1_555 1_555
Ag1_4 N1_7 1_555 1_555
C1_7 C2_7 1_555 1_555
C2_7 H1_7 1_555 1_555
C3_7 C2_7 1_555 1_555
H2_7 C3_7 1_555 1_555
C4_7 C3_7 1_555 1_555
C5_7 C4_7 1_555 1_555
H3_7 C5_7 1_555 1_555
C6_7 C1_7 1_555 1_555
H4_8 C6_7 1_555 1_555
C7_7 C4_7 1_555 1_555
N1_7 C8_7 1_555 1_555
C8_7 H5_7 1_555 1_555
C9_7 C8_7 1_555 1_555
H6_7 C9_7 1_555 1_555
C10_7 C9_7 1_555 1_555
C11_7 C10_7 1_555 1_555
H7_7 C11_7 1_555 1_555
C12_7 N1_7 1_555 1_555
H8_7 C12_7 1_555 1_555
C13_7 C7_7 1_555 1_555
C14_8 Si1_12 1_555 1_555
C15_8 C14_8 1_555 1_555
H9_8 C15_8 1_555 1_555
C16_8 C15_8 1_555 1_555
H10_8 C16_8 1_555 1_555
C17_8 C16_8 1_555 1_555
C18_8 C17_8 1_555 1_555
H11_7 C18_8 1_555 1_555
C19_8 C14_8 1_555 1_555
H12_8 C19_8 1_555 1_555
C20_8 C17_8 1_555 1_555
N2_4 C21_7 1_555 1_555
C21_7 H13_7 1_555 1_555
C22_7 C21_7 1_555 1_555
H14_7 C22_7 1_555 1_555
C23_7 C22_7 1_555 1_555
C24_7 C23_7 1_555 1_555
H15_7 C24_7 1_555 1_555
C25_7 N2_4 1_555 1_555
H16_7 C25_7 1_555 1_555
C26_7 C20_8 1_555 1_555
C27_7 Si1_12 1_555 1_555
C28_7 C27_7 1_555 1_555
H17_7 C28_7 1_555 1_555
C29_7 C28_7 1_555 1_555
H18_7 C29_7 1_555 1_555
C30_7 C29_7 1_555 1_555
C31_7 C30_7 1_555 1_555
H19_7 C31_7 1_555 1_555
C32_7 C27_7 1_555 1_555
H20_8 C32_7 1_555 1_555
C40_8 Si1_12 1_555 1_555
C41_8 C40_8 1_555 1_555
H25_8 C41_8 1_555 1_555
C42_8 C41_8 1_555 1_555
H26_8 C42_8 1_555 1_555
C43_8 C42_8 1_555 1_555
C44_8 C43_8 1_555 1_555
H27_8 C44_8 1_555 1_555
C45_8 C40_8 1_555 1_555
H28_8 C45_8 1_555 1_555
C46_8 C43_8 1_555 1_555
C50_8 C49_8 1_555 1_555
H31_8 C50_8 1_555 1_555
C51_8 N4_4 1_555 1_555
H32_8 C51_8 1_555 1_555
C52_8 C46_8 1_555 1_555
Ag3_4 N2_4 1_555 1_555
N5_4 Ag1_4 1_555 1_555
C5_7 C6_7 1_555 1_555
C10_7 C13_7 1_555 1_555
C11_7 C12_7 1_555 1_555
C18_8 C19_8 1_555 1_555
C23_7 C26_7 1_555 1_555
C24_7 C25_7 1_555 1_555
C31_7 C32_7 1_555 1_555
C44_8 C45_8 1_555 1_555
C49_8 C52_8 1_555 1_555
C50_8 C51_8 1_555 1_555
N5_4 C21_8 1_555 1_555
C21_8 H13_8 1_555 1_555
C22_8 C21_8 1_555 1_555
H14_8 C22_8 1_555 1_555
C23_8 C22_8 1_555 1_555
C24_8 C23_8 1_555 1_555
H15_8 C24_8 1_555 1_555
C25_8 N5_4 1_555 1_555
H16_8 C25_8 1_555 1_555
C23_8 C26_8 1_555 1_555
C24_8 C25_8 1_555 1_555
C1_8 C2_8 1_555 1_555
C2_8 H1_8 1_555 1_555
C3_8 C2_8 1_555 1_555
H2_8 C3_8 1_555 1_555
C4_8 C3_8 1_555 1_555
C5_8 C4_8 1_555 1_555
H3_8 C5_8 1_555 1_555
C6_8 C1_8 1_555 1_555
C7_8 C4_8 1_555 1_555
N1_8 C8_8 1_555 1_555
C8_8 H5_8 1_555 1_555
C9_8 C8_8 1_555 1_555
H6_8 C9_8 1_555 1_555
C10_8 C9_8 1_555 1_555
C11_8 C10_8 1_555 1_555
H7_8 C11_8 1_555 1_555
C12_8 N1_8 1_555 1_555
H8_8 C12_8 1_555 1_555
C13_8 C7_8 1_555 1_555
C28_8 C27_8 1_555 1_555
H17_8 C28_8 1_555 1_555
C29_8 C28_8 1_555 1_555
H18_8 C29_8 1_555 1_555
C30_8 C29_8 1_555 1_555
C31_8 C30_8 1_555 1_555
H19_8 C31_8 1_555 1_555
C32_8 C27_8 1_555 1_555
C33_8 C30_8 1_555 1_555
N3_8 C34_8 1_555 1_555
C35_8 C34_8 1_555 1_555
C36_8 C35_8 1_555 1_555
C37_8 C36_8 1_555 1_555
H23_8 C37_8 1_555 1_555
C38_8 N3_8 1_555 1_555
H24_8 C38_8 1_555 1_555
C39_8 C33_8 1_555 1_555
C5_8 C6_8 1_555 1_555
C10_8 C13_8 1_555 1_555
C11_8 C12_8 1_555 1_555
C31_8 C32_8 1_555 1_555
C36_8 C39_8 1_555 1_555
C37_8 C38_8 1_555 1_555
Si2 C53 1_555 1_555
Ag5 N7 1_555 1_555
C53 C54 1_555 1_555
C54 H33 1_555 1_555
C55 C54 1_555 1_555
H34 C55 1_555 1_555
C56 C55 1_555 1_555
C57 C56 1_555 1_555
H35 C57 1_555 1_555
C58 C53 1_555 1_555
C59 C56 1_555 1_555
N7 C60 1_555 1_555
C60 H37 1_555 1_555
C61 C60 1_555 1_555
H38 C61 1_555 1_555
C62 C61 1_555 1_555
C63 C62 1_555 1_555
H39 C63 1_555 1_555
C64 N7 1_555 1_555
H40 C64 1_555 1_555
C65 C59 1_555 1_555
N11 Ag5 1_555 1_555
C57 C58 1_555 1_555
C62 C65 1_555 1_555
C63 C64 1_555 1_555
N11 C73 1_555 1_555
C73 H45 1_555 1_555
C74 C73 1_555 1_555
H46 C74 1_555 1_555
C75 C74 1_555 1_555
C76 C75 1_555 1_555
H47 C76 1_555 1_555
C77 N11 1_555 1_555
H48 C77 1_555 1_555
C78 C72 1_555 1_555
H55 C89 1_555 1_555
H56 C90 1_555 1_555
C75 C78 1_555 1_555
C76 C77 1_555 1_555
C89 C90 1_555 1_555
C93 C92 1_555 1_555
H57 C93 1_555 1_555
C94 C93 1_555 1_555
H58 C94 1_555 1_555
C95 C94 1_555 1_555
C96 C95 1_555 1_555
H59 C96 1_555 1_555
C97 C92 1_555 1_555
H60 C97 1_555 1_555
C98 C95 1_555 1_555
N10 C99 1_555 1_555
C99 H61_2 1_555 1_555
C100 C99 1_555 1_555
H62 C100 1_555 1_555
C101 C100 1_555 1_555
C102 C101 1_555 1_555
H63 C102 1_555 1_555
C103 N10 1_555 1_555
C104 C98 1_555 1_555
Ag8_2 N10 1_555 1_555
C96 C97 1_555 1_555
C101 C104 1_555 1_555
C102 C103 1_555 1_555
H55_2 C89_2 1_555 1_555
H56_2 C90_2 1_555 1_555
C89_2 C90_2 1_555 1_555
C79 Si2_2 1_555 1_555
C80 C79 1_555 1_555
H49 C80 1_555 1_555
C81 C80 1_555 1_555
H50 C81 1_555 1_555
C82 C81 1_555 1_555
C83 C82 1_555 1_555
C84 C79 1_555 1_555
C85 C82 1_555 1_555
C83 C84 1_555 1_555
C67 C66 1_555 1_555
H41 C67 1_555 1_555
C68 C67 1_555 1_555
H42 C68 1_555 1_555
C69 C68 1_555 1_555
C70 C69 1_555 1_555
H43 C70 1_555 1_555
C71 C66 1_555 1_555
H44 C71 1_555 1_555
C72_2 C69 1_555 1_555
N8 C73_2 1_555 1_555
C73_2 H45_2 1_555 1_555
C74_2 C73_2 1_555 1_555
H46_2 C74_2 1_555 1_555
C75_2 C74_2 1_555 1_555
C76_2 C75_2 1_555 1_555
H47_2 C76_2 1_555 1_555
C77_2 N8 1_555 1_555
H48_2 C77_2 1_555 1_555
C78_2 C72_2 1_555 1_555
Ag7 N8 1_555 1_555
C70 C71 1_555 1_555
C75_2 C78_2 1_555 1_555
C76_2 C77_2 1_555 1_555
Si2_3 C53_2 1_555 1_555
Ag7 N7_2 1_555 1_555
C53_2 C54_2 1_555 1_555
C54_2 H33_2 1_555 1_555
C55_2 C54_2 1_555 1_555
H34_2 C55_2 1_555 1_555
C56_2 C55_2 1_555 1_555
C57_2 C56_2 1_555 1_555
H35_2 C57_2 1_555 1_555
C58_2 C53_2 1_555 1_555
H36_2 C58_2 1_555 1_555
C59_2 C56_2 1_555 1_555
N7_2 C60_2 1_555 1_555
C60_2 H37_2 1_555 1_555
C61_2 C60_2 1_555 1_555
H38_2 C61_2 1_555 1_555
C62_2 C61_2 1_555 1_555
C63_2 C62_2 1_555 1_555
H39_2 C63_2 1_555 1_555
C64_2 N7_2 1_555 1_555
H40_2 C64_2 1_555 1_555
C65_2 C59_2 1_555 1_555
C66_2 Si2_3 1_555 1_555
C69_2 C68_2 1_555 1_555
C70_2 C69_2 1_555 1_555
H43_2 C70_2 1_555 1_555
C71_2 C66_2 1_555 1_555
H44_2 C71_2 1_555 1_555
H57_2 C93_2 1_555 1_555
C57_2 C58_2 1_555 1_555
C62_2 C65_2 1_555 1_555
C63_2 C64_2 1_555 1_555
C70_2 C71_2 1_555 1_555
N9 C86 1_555 1_555
C86 H53 1_555 1_555
C87 C86 1_555 1_555
H54 C87 1_555 1_555
C88 C87 1_555 1_555
C89_3 C88 1_555 1_555
C90_3 N9 1_555 1_555
H56_3 C90_3 1_555 1_555
Ag6 N9 1_555 1_555
N12 Ag6 1_555 1_555
C88 C91 1_555 1_555
C89_3 C90_3 1_555 1_555
Si2_4 C53_3 1_555 1_555
Ag7_2 N7_3 1_555 1_555
C53_3 C54_3 1_555 1_555
C54_3 H33_3 1_555 1_555
C55_3 C54_3 1_555 1_555
H34_3 C55_3 1_555 1_555
C56_3 C55_3 1_555 1_555
C57_3 C56_3 1_555 1_555
H35_3 C57_3 1_555 1_555
C58_3 C53_3 1_555 1_555
H36_3 C58_3 1_555 1_555
C59_3 C56_3 1_555 1_555
N7_3 C60_3 1_555 1_555
C60_3 H37_3 1_555 1_555
C61_3 C60_3 1_555 1_555
H38_3 C61_3 1_555 1_555
C62_3 C61_3 1_555 1_555
C63_3 C62_3 1_555 1_555
H39_3 C63_3 1_555 1_555
C64_3 N7_3 1_555 1_555
H40_3 C64_3 1_555 1_555
C65_3 C59_3 1_555 1_555
C66_3 Si2_4 1_555 1_555
C67_2 C66_3 1_555 1_555
H41_2 C67_2 1_555 1_555
C68_3 C67_2 1_555 1_555
H42_2 C68_3 1_555 1_555
C69_3 C68_3 1_555 1_555
C70_3 C69_3 1_555 1_555
H43_3 C70_3 1_555 1_555
C71_3 C66_3 1_555 1_555
H44_3 C71_3 1_555 1_555
C79_2 Si2_4 1_555 1_555
C80_2 C79_2 1_555 1_555
H49_2 C80_2 1_555 1_555
C81_2 C80_2 1_555 1_555
H50_2 C81_2 1_555 1_555
C82_2 C81_2 1_555 1_555
C83_2 C82_2 1_555 1_555
H51_2 C83_2 1_555 1_555
C84_2 C79_2 1_555 1_555
H52_2 C84_2 1_555 1_555
C85_2 C82_2 1_555 1_555
N9_2 C86_2 1_555 1_555
C86_2 H53_2 1_555 1_555
C87_2 C86_2 1_555 1_555
H54_2 C87_2 1_555 1_555
C88_2 C87_2 1_555 1_555
C91_2 C85_2 1_555 1_555
C92_2 Si2_4 1_555 1_555
C93_3 C92_2 1_555 1_555
H57_3 C93_3 1_555 1_555
C94_2 C93_3 1_555 1_555
H58_3 C94_2 1_555 1_555
C95_2 C94_2 1_555 1_555
C96_2 C95_2 1_555 1_555
H59_2 C96_2 1_555 1_555
C97_2 C92_2 1_555 1_555
H60_2 C97_2 1_555 1_555
C98_2 C95_2 1_555 1_555
N12 C99_2 1_555 1_555
C99_2 H61_3 1_555 1_555
C100_2 C99_2 1_555 1_555
H62_2 C100_2 1_555 1_555
C101_2 C100_2 1_555 1_555
C102_2 C101_2 1_555 1_555
H63_2 C102_2 1_555 1_555
C103_2 N12 1_555 1_555
H64_2 C103_2 1_555 1_555
C104_2 C98_2 1_555 1_555
C57_3 C58_3 1_555 1_555
C62_3 C65_3 1_555 1_555
C63_3 C64_3 1_555 1_555
C70_3 C71_3 1_555 1_555
C83_2 C84_2 1_555 1_555
C88_2 C91_2 1_555 1_555
C96_2 C97_2 1_555 1_555
C101_2 C104_2 1_555 1_555
C102_2 C103_2 1_555 1_555
N9_3 C86_3 1_555 1_555
C86_3 H53_3 1_555 1_555
C87_3 C86_3 1_555 1_555
H54_3 C87_3 1_555 1_555
C88_3 C87_3 1_555 1_555
C89_4 C88_3 1_555 1_555
C90_4 N9_3 1_555 1_555
H56_4 C90_4 1_555 1_555
Ag6_2 N9_3 1_555 1_555
N12_2 Ag6_2 1_555 1_555
C88_3 C91_3 1_555 1_555
C89_4 C90_4 1_555 1_555
H41_3 C67_3 1_555 1_555
C79_3 Si2_5 1_555 1_555
C80_3 C79_3 1_555 1_555
H49_3 C80_3 1_555 1_555
C81_3 C80_3 1_555 1_555
H50_3 C81_3 1_555 1_555
C82_3 C81_3 1_555 1_555
C83_3 C82_3 1_555 1_555
H51_4 C83_3 1_555 1_555
C84_3 C79_3 1_555 1_555
H52_3 C84_3 1_555 1_555
C85_3 C82_3 1_555 1_555
N9_4 C86_4 1_555 1_555
C86_4 H53_4 1_555 1_555
C87_4 C86_4 1_555 1_555
H54_4 C87_4 1_555 1_555
C88_4 C87_4 1_555 1_555
C91_4 C85_3 1_555 1_555
C92_3 Si2_5 1_555 1_555
C95_3 C94_3 1_555 1_555
C96_3 C95_3 1_555 1_555
H59_3 C96_3 1_555 1_555
C97_3 C92_3 1_555 1_555
H60_3 C97_3 1_555 1_555
C98_3 C95_3 1_555 1_555
N12_2 C99_3 1_555 1_555
C99_3 H61_4 1_555 1_555
C100_3 C99_3 1_555 1_555
H62_3 C100_3 1_555 1_555
C101_3 C100_3 1_555 1_555
C102_3 C101_3 1_555 1_555
H63_3 C102_3 1_555 1_555
C103_3 N12_2 1_555 1_555
H64_4 C103_3 1_555 1_555
C104_3 C98_3 1_555 1_555
C83_3 C84_3 1_555 1_555
C88_4 C91_4 1_555 1_555
C96_3 C97_3 1_555 1_555
C101_3 C104_3 1_555 1_555
C102_3 C103_3 1_555 1_555
Si2_6 C53_4 1_555 1_555
Ag5_2 N7_4 1_555 1_555
C53_4 C54_4 1_555 1_555
C54_4 H33_4 1_555 1_555
C55_4 C54_4 1_555 1_555
H34_4 C55_4 1_555 1_555
C56_4 C55_4 1_555 1_555
C57_4 C56_4 1_555 1_555
H35_4 C57_4 1_555 1_555
C58_4 C53_4 1_555 1_555
H36_4 C58_4 1_555 1_555
C59_4 C56_4 1_555 1_555
N7_4 C60_4 1_555 1_555
C60_4 H37_4 1_555 1_555
C61_4 C60_4 1_555 1_555
H38_4 C61_4 1_555 1_555
C62_4 C61_4 1_555 1_555
C63_4 C62_4 1_555 1_555
H39_4 C63_4 1_555 1_555
C64_4 N7_4 1_555 1_555
H40_4 C64_4 1_555 1_555
C65_4 C59_4 1_555 1_555
C66_4 Si2_6 1_555 1_555
C67_4 C66_4 1_555 1_555
H41_4 C67_4 1_555 1_555
C68_4 C67_4 1_555 1_555
H42_4 C68_4 1_555 1_555
C69_4 C68_4 1_555 1_555
C70_4 C69_4 1_555 1_555
H43_4 C70_4 1_555 1_555
C71_4 C66_4 1_555 1_555
H44_4 C71_4 1_555 1_555
C72_3 C69_4 1_555 1_555
N8_2 C73_3 1_555 1_555
C74_3 C73_3 1_555 1_555
H46_3 C74_3 1_555 1_555
C75_3 C74_3 1_555 1_555
C76_3 C75_3 1_555 1_555
H47_3 C76_3 1_555 1_555
C77_3 N8_2 1_555 1_555
H48_3 C77_3 1_555 1_555
C78_3 C72_3 1_555 1_555
C79_4 Si2_6 1_555 1_555
C80_4 C79_4 1_555 1_555
H49_4 C80_4 1_555 1_555
C81_4 C80_4 1_555 1_555
H50_4 C81_4 1_555 1_555
C82_4 C81_4 1_555 1_555
C83_4 C82_4 1_555 1_555
C84_4 C79_4 1_555 1_555
H52_4 C84_4 1_555 1_555
C85_4 C82_4 1_555 1_555
C92_4 Si2_6 1_555 1_555
C93_4 C92_4 1_555 1_555
H57_4 C93_4 1_555 1_555
C94_4 C93_4 1_555 1_555
H58_4 C94_4 1_555 1_555
C95_4 C94_4 1_555 1_555
C96_4 C95_4 1_555 1_555
H59_4 C96_4 1_555 1_555
C97_4 C92_4 1_555 1_555
H60_4 C97_4 1_555 1_555
C98_4 C95_4 1_555 1_555
N10_2 C99_4 1_555 1_555
C100_4 C99_4 1_555 1_555
H62_4 C100_4 1_555 1_555
C101_4 C100_4 1_555 1_555
C102_4 C101_4 1_555 1_555
H63_4 C102_4 1_555 1_555
C103_4 N10_2 1_555 1_555
C104_4 C98_4 1_555 1_555
N11_2 Ag5_2 1_555 1_555
C57_4 C58_4 1_555 1_555
C62_4 C65_4 1_555 1_555
C63_4 C64_4 1_555 1_555
C70_4 C71_4 1_555 1_555
C75_3 C78_3 1_555 1_555
C76_3 C77_3 1_555 1_555
C83_4 C84_4 1_555 1_555
C96_4 C97_4 1_555 1_555
C101_4 C104_4 1_555 1_555
C102_4 C103_4 1_555 1_555
N11_2 C73_4 1_555 1_555
C73_4 H45_4 1_555 1_555
C74_4 C73_4 1_555 1_555
H46_4 C74_4 1_555 1_555
C75_4 C74_4 1_555 1_555
C76_4 C75_4 1_555 1_555
H47_4 C76_4 1_555 1_555
C77_4 N11_2 1_555 1_555
H48_4 C77_4 1_555 1_555
C78_4 C72_4 1_555 1_555
C75_4 C78_4 1_555 1_555
C76_4 C77_4 1_555 1_555
N9_5 C86_5 1_555 1_555
C86_5 H53_5 1_555 1_555
C87_5 C86_5 1_555 1_555
H54_5 C87_5 1_555 1_555
C88_5 C87_5 1_555 1_555
C89_5 C88_5 1_555 1_555
C90_5 N9_5 1_555 1_555
H56_5 C90_5 1_555 1_555
Ag6_3 N9_5 1_555 1_555
N12_3 Ag6_3 1_555 1_555
C88_5 C91_5 1_555 1_555
C89_5 C90_5 1_555 1_555
Si2_7 C53_5 1_555 1_555
Ag7_3 N7_5 1_555 1_555
C53_5 C54_5 1_555 1_555
C54_5 H33_5 1_555 1_555
C55_5 C54_5 1_555 1_555
H34_5 C55_5 1_555 1_555
C56_5 C55_5 1_555 1_555
C57_5 C56_5 1_555 1_555
H35_5 C57_5 1_555 1_555
C58_5 C53_5 1_555 1_555
H36_5 C58_5 1_555 1_555
C59_5 C56_5 1_555 1_555
N7_5 C60_5 1_555 1_555
C60_5 H37_5 1_555 1_555
C61_5 C60_5 1_555 1_555
H38_5 C61_5 1_555 1_555
C62_5 C61_5 1_555 1_555
C63_5 C62_5 1_555 1_555
H39_5 C63_5 1_555 1_555
C64_5 N7_5 1_555 1_555
H40_5 C64_5 1_555 1_555
C65_5 C59_5 1_555 1_555
C66_5 Si2_7 1_555 1_555
C67_5 C66_5 1_555 1_555
H41_5 C67_5 1_555 1_555
C68_5 C67_5 1_555 1_555
H42_5 C68_5 1_555 1_555
C69_5 C68_5 1_555 1_555
C70_5 C69_5 1_555 1_555
H43_5 C70_5 1_555 1_555
C71_5 C66_5 1_555 1_555
H44_5 C71_5 1_555 1_555
C79_5 Si2_7 1_555 1_555
C80_5 C79_5 1_555 1_555
H49_5 C80_5 1_555 1_555
C81_5 C80_5 1_555 1_555
H50_5 C81_5 1_555 1_555
C82_5 C81_5 1_555 1_555
C83_5 C82_5 1_555 1_555
H51_6 C83_5 1_555 1_555
C84_5 C79_5 1_555 1_555
H52_5 C84_5 1_555 1_555
C85_5 C82_5 1_555 1_555
N9_6 C86_6 1_555 1_555
C86_6 H53_6 1_555 1_555
C87_6 C86_6 1_555 1_555
H54_6 C87_6 1_555 1_555
C88_6 C87_6 1_555 1_555
C91_6 C85_5 1_555 1_555
C92_5 Si2_7 1_555 1_555
C93_5 C92_5 1_555 1_555
H57_5 C93_5 1_555 1_555
C94_5 C93_5 1_555 1_555
H58_5 C94_5 1_555 1_555
C95_5 C94_5 1_555 1_555
C96_5 C95_5 1_555 1_555
H59_5 C96_5 1_555 1_555
C97_5 C92_5 1_555 1_555
H60_5 C97_5 1_555 1_555
C98_5 C95_5 1_555 1_555
N12_3 C99_5 1_555 1_555
C99_5 H61_5 1_555 1_555
C100_5 C99_5 1_555 1_555
H62_5 C100_5 1_555 1_555
C101_5 C100_5 1_555 1_555
C102_5 C101_5 1_555 1_555
H63_5 C102_5 1_555 1_555
C103_5 N12_3 1_555 1_555
H64_5 C103_5 1_555 1_555
C104_5 C98_5 1_555 1_555
C57_5 C58_5 1_555 1_555
C62_5 C65_5 1_555 1_555
C63_5 C64_5 1_555 1_555
C70_5 C71_5 1_555 1_555
C83_5 C84_5 1_555 1_555
C88_6 C91_6 1_555 1_555
C96_5 C97_5 1_555 1_555
C101_5 C104_5 1_555 1_555
C102_5 C103_5 1_555 1_555
C67_6 C66_6 1_555 1_555
H41_6 C67_6 1_555 1_555
C68_6 C67_6 1_555 1_555
H42_6 C68_6 1_555 1_555
C69_6 C68_6 1_555 1_555
C70_6 C69_6 1_555 1_555
H43_6 C70_6 1_555 1_555
C71_6 C66_6 1_555 1_555
H44_6 C71_6 1_555 1_555
C72_5 C69_6 1_555 1_555
N8_3 C73_5 1_555 1_555
C73_5 H45_6 1_555 1_555
C74_5 C73_5 1_555 1_555
H46_5 C74_5 1_555 1_555
C75_5 C74_5 1_555 1_555
C76_5 C75_5 1_555 1_555
H47_5 C76_5 1_555 1_555
C77_5 N8_3 1_555 1_555
H48_5 C77_5 1_555 1_555
C78_5 C72_5 1_555 1_555
Ag7_4 N8_3 1_555 1_555
C70_6 C71_6 1_555 1_555
C75_5 C78_5 1_555 1_555
C76_5 C77_5 1_555 1_555
Si2_8 C53_6 1_555 1_555
Ag7_4 N7_6 1_555 1_555
C53_6 C54_6 1_555 1_555
C54_6 H33_6 1_555 1_555
C55_6 C54_6 1_555 1_555
H34_6 C55_6 1_555 1_555
C56_6 C55_6 1_555 1_555
C57_6 C56_6 1_555 1_555
H35_6 C57_6 1_555 1_555
C58_6 C53_6 1_555 1_555
H36_6 C58_6 1_555 1_555
C59_6 C56_6 1_555 1_555
N7_6 C60_6 1_555 1_555
C60_6 H37_6 1_555 1_555
C61_6 C60_6 1_555 1_555
H38_6 C61_6 1_555 1_555
C62_6 C61_6 1_555 1_555
C63_6 C62_6 1_555 1_555
H39_6 C63_6 1_555 1_555
C64_6 N7_6 1_555 1_555
H40_6 C64_6 1_555 1_555
C65_6 C59_6 1_555 1_555
C66_7 Si2_8 1_555 1_555
C69_7 C68_7 1_555 1_555
C70_7 C69_7 1_555 1_555
H43_7 C70_7 1_555 1_555
C71_7 C66_7 1_555 1_555
H44_7 C71_7 1_555 1_555
H57_6 C93_6 1_555 1_555
C57_6 C58_6 1_555 1_555
C62_6 C65_6 1_555 1_555
C63_6 C64_6 1_555 1_555
C70_7 C71_7 1_555 1_555
C79_6 Si2_9 1_555 1_555
C80_6 C79_6 1_555 1_555
H49_6 C80_6 1_555 1_555
C81_6 C80_6 1_555 1_555
H50_6 C81_6 1_555 1_555
C82_6 C81_6 1_555 1_555
C83_6 C82_6 1_555 1_555
C84_6 C79_6 1_555 1_555
C85_6 C82_6 1_555 1_555
C83_6 C84_6 1_555 1_555
C93_7 C92_6 1_555 1_555
H57_7 C93_7 1_555 1_555
C94_6 C93_7 1_555 1_555
H58_7 C94_6 1_555 1_555
C95_6 C94_6 1_555 1_555
C96_6 C95_6 1_555 1_555
H59_6 C96_6 1_555 1_555
C97_6 C92_6 1_555 1_555
H60_6 C97_6 1_555 1_555
C98_6 C95_6 1_555 1_555
N10_3 C99_6 1_555 1_555
C99_6 H61_6 1_555 1_555
C100_6 C99_6 1_555 1_555
H62_6 C100_6 1_555 1_555
C101_6 C100_6 1_555 1_555
C102_6 C101_6 1_555 1_555
H63_6 C102_6 1_555 1_555
C103_6 N10_3 1_555 1_555
C104_6 C98_6 1_555 1_555
Ag8_3 N10_3 1_555 1_555
C96_6 C97_6 1_555 1_555
C101_6 C104_6 1_555 1_555
C102_6 C103_6 1_555 1_555
H55_6 C89_6 1_555 1_555
H56_6 C90_6 1_555 1_555
C89_6 C90_6 1_555 1_555
Si2_10 C53_7 1_555 1_555
Ag5_3 N7_7 1_555 1_555
C53_7 C54_7 1_555 1_555
C54_7 H33_7 1_555 1_555
C55_7 C54_7 1_555 1_555
H34_7 C55_7 1_555 1_555
C56_7 C55_7 1_555 1_555
C57_7 C56_7 1_555 1_555
H35_7 C57_7 1_555 1_555
C58_7 C53_7 1_555 1_555
C59_7 C56_7 1_555 1_555
N7_7 C60_7 1_555 1_555
C60_7 H37_7 1_555 1_555
C61_7 C60_7 1_555 1_555
H38_7 C61_7 1_555 1_555
C62_7 C61_7 1_555 1_555
C63_7 C62_7 1_555 1_555
H39_7 C63_7 1_555 1_555
C64_7 N7_7 1_555 1_555
H40_7 C64_7 1_555 1_555
C65_7 C59_7 1_555 1_555
N11_3 Ag5_3 1_555 1_555
C57_7 C58_7 1_555 1_555
C62_7 C65_7 1_555 1_555
C63_7 C64_7 1_555 1_555
N11_3 C73_6 1_555 1_555
C73_6 H45_7 1_555 1_555
C74_6 C73_6 1_555 1_555
H46_6 C74_6 1_555 1_555
C75_6 C74_6 1_555 1_555
C76_6 C75_6 1_555 1_555
H47_6 C76_6 1_555 1_555
C77_6 N11_3 1_555 1_555
H48_6 C77_6 1_555 1_555
C78_6 C72_6 1_555 1_555
H55_7 C89_7 1_555 1_555
H56_7 C90_7 1_555 1_555
C75_6 C78_6 1_555 1_555
C76_6 C77_6 1_555 1_555
C89_7 C90_7 1_555 1_555
Si2_11 C53_8 1_555 1_555
Ag5_4 N7_8 1_555 1_555
C53_8 C54_8 1_555 1_555
C54_8 H33_8 1_555 1_555
C55_8 C54_8 1_555 1_555
H34_8 C55_8 1_555 1_555
C56_8 C55_8 1_555 1_555
C57_8 C56_8 1_555 1_555
H35_8 C57_8 1_555 1_555
C58_8 C53_8 1_555 1_555
H36_8 C58_8 1_555 1_555
C59_8 C56_8 1_555 1_555
N7_8 C60_8 1_555 1_555
C60_8 H37_8 1_555 1_555
C61_8 C60_8 1_555 1_555
H38_8 C61_8 1_555 1_555
C62_8 C61_8 1_555 1_555
C63_8 C62_8 1_555 1_555
H39_8 C63_8 1_555 1_555
C64_8 N7_8 1_555 1_555
H40_8 C64_8 1_555 1_555
C65_8 C59_8 1_555 1_555
C66_8 Si2_11 1_555 1_555
C67_7 C66_8 1_555 1_555
H41_7 C67_7 1_555 1_555
C68_8 C67_7 1_555 1_555
H42_7 C68_8 1_555 1_555
C69_8 C68_8 1_555 1_555
C70_8 C69_8 1_555 1_555
H43_8 C70_8 1_555 1_555
C71_8 C66_8 1_555 1_555
H44_8 C71_8 1_555 1_555
C72_7 C69_8 1_555 1_555
N8_4 C73_7 1_555 1_555
C74_7 C73_7 1_555 1_555
H46_7 C74_7 1_555 1_555
C75_7 C74_7 1_555 1_555
C76_7 C75_7 1_555 1_555
H47_7 C76_7 1_555 1_555
C77_7 N8_4 1_555 1_555
H48_7 C77_7 1_555 1_555
C78_7 C72_7 1_555 1_555
C79_7 Si2_11 1_555 1_555
C80_7 C79_7 1_555 1_555
H49_7 C80_7 1_555 1_555
C81_7 C80_7 1_555 1_555
H50_7 C81_7 1_555 1_555
C82_7 C81_7 1_555 1_555
C83_7 C82_7 1_555 1_555
C84_7 C79_7 1_555 1_555
H52_7 C84_7 1_555 1_555
C85_7 C82_7 1_555 1_555
C92_7 Si2_11 1_555 1_555
C93_8 C92_7 1_555 1_555
H57_8 C93_8 1_555 1_555
C94_7 C93_8 1_555 1_555
H58_8 C94_7 1_555 1_555
C95_7 C94_7 1_555 1_555
C96_7 C95_7 1_555 1_555
H59_7 C96_7 1_555 1_555
C97_7 C92_7 1_555 1_555
H60_7 C97_7 1_555 1_555
C98_7 C95_7 1_555 1_555
N10_4 C99_7 1_555 1_555
C100_7 C99_7 1_555 1_555
H62_7 C100_7 1_555 1_555
C101_7 C100_7 1_555 1_555
C102_7 C101_7 1_555 1_555
H63_7 C102_7 1_555 1_555
C103_7 N10_4 1_555 1_555
C104_7 C98_7 1_555 1_555
N11_4 Ag5_4 1_555 1_555
C57_8 C58_8 1_555 1_555
C62_8 C65_8 1_555 1_555
C63_8 C64_8 1_555 1_555
C70_8 C71_8 1_555 1_555
C75_7 C78_7 1_555 1_555
C76_7 C77_7 1_555 1_555
C83_7 C84_7 1_555 1_555
C96_7 C97_7 1_555 1_555
C101_7 C104_7 1_555 1_555
C102_7 C103_7 1_555 1_555
N11_4 C73_8 1_555 1_555
C73_8 H45_8 1_555 1_555
C74_8 C73_8 1_555 1_555
H46_8 C74_8 1_555 1_555
C75_8 C74_8 1_555 1_555
C76_8 C75_8 1_555 1_555
H47_8 C76_8 1_555 1_555
C77_8 N11_4 1_555 1_555
H48_8 C77_8 1_555 1_555
C78_8 C72_8 1_555 1_555
C75_8 C78_8 1_555 1_555
C76_8 C77_8 1_555 1_555
N9_7 C86_7 1_555 1_555
C86_7 H53_7 1_555 1_555
C87_7 C86_7 1_555 1_555
H54_7 C87_7 1_555 1_555
C88_7 C87_7 1_555 1_555
C89_8 C88_7 1_555 1_555
C90_8 N9_7 1_555 1_555
H56_8 C90_8 1_555 1_555
Ag6_4 N9_7 1_555 1_555
N12_4 Ag6_4 1_555 1_555
C88_7 C91_7 1_555 1_555
C89_8 C90_8 1_555 1_555
H41_8 C67_8 1_555 1_555
C79_8 Si2_12 1_555 1_555
C80_8 C79_8 1_555 1_555
H49_8 C80_8 1_555 1_555
C81_8 C80_8 1_555 1_555
H50_8 C81_8 1_555 1_555
C82_8 C81_8 1_555 1_555
C83_8 C82_8 1_555 1_555
H51_8 C83_8 1_555 1_555
C84_8 C79_8 1_555 1_555
H52_8 C84_8 1_555 1_555
C85_8 C82_8 1_555 1_555
N9_8 C86_8 1_555 1_555
C86_8 H53_8 1_555 1_555
C87_8 C86_8 1_555 1_555
H54_8 C87_8 1_555 1_555
C88_8 C87_8 1_555 1_555
C91_8 C85_8 1_555 1_555
C92_8 Si2_12 1_555 1_555
C95_8 C94_8 1_555 1_555
C96_8 C95_8 1_555 1_555
H59_8 C96_8 1_555 1_555
C97_8 C92_8 1_555 1_555
H60_8 C97_8 1_555 1_555
C98_8 C95_8 1_555 1_555
N12_4 C99_8 1_555 1_555
C99_8 H61_8 1_555 1_555
C100_8 C99_8 1_555 1_555
H62_8 C100_8 1_555 1_555
C101_8 C100_8 1_555 1_555
C102_8 C101_8 1_555 1_555
H63_8 C102_8 1_555 1_555
C103_8 N12_4 1_555 1_555
H64_8 C103_8 1_555 1_555
C104_8 C98_8 1_555 1_555
C83_8 C84_8 1_555 1_555
C88_8 C91_8 1_555 1_555
C96_8 C97_8 1_555 1_555
C101_8 C104_8 1_555 1_555
C102_8 C103_8 1_555 1_555

#END
