
###############################################################################
#
# This file contains modified crystal structure data generated from the
# MOF subset of the Cambridge Structural Database (CSD) v543 
# hosted by the Cambridge Crystallographic Data Centre (CCDC).
#
# This work is licensed under the Creative Commons
# Attribution-NonCommercial-ShareAlike 4.0 International License.
# To view a copy of this license, visit
# http://creativecommons.org/licenses/by-nc-sa/4.0/
# or send a letter to
# Creative Commons, PO Box 1866, Mountain View, CA 94042, USA.
#
# CIF created using the CSD Python API on 29 September 2022
# The structure has been converted into the P1 space group
# The structure has a 3D framework
# The original CSD entry KUVYAD is in the trigonal crystal system
# The original CSD entry KUVYAD is in a Sohncke space group
# The framework has been calculated to contain at least 10.0% void space
# The void calculation uses a probe of radius 1.32A, grid spacing 0.4
# The framework is charged, counterions have been retained in the structure
# H atom positions have been added when not included in the experimental data
#
###############################################################################

data_KUVYAD
_chemical_formula_moiety         '(C126 H66 Cd6 O42 6-)n'
_symmetry_cell_setting           triclinic
_symmetry_space_group_name_H-M   'P 1'
_symmetry_Int_Tables_number      1
_space_group_name_Hall           'P 1'
loop_
_symmetry_equiv_pos_site_id
_symmetry_equiv_pos_as_xyz
1 x,y,z
_cell_length_a                   14.0306(3)
_cell_length_b                   14.0306(3)
_cell_length_c                   28.1780(11)
_cell_angle_alpha                90
_cell_angle_beta                 90
_cell_angle_gamma                120
_cell_volume                     4803.89
loop_
_atom_site_label
_atom_site_type_symbol
_atom_site_fract_x
_atom_site_fract_y
_atom_site_fract_z
C1 C 0.2197(6) 0.0121(7) 0.0648(2)
Cd1 Cd 0.42990(5) 0.09083(6) 0.024718(17)
O1 O 0.2377(5) 0.0722(5) 0.02993(19)
H3 H 0.0498 0.0345 0.0510
O7 O 0.5188(4) 0.2738(3) 0.06151(13)
O10 O 0.5106(6) 0.0016(9) 0.0609(2)
O11 O 0.6186(6) 0.1134(8) 0.0067(3)
H10 H 0.48771 0.268518 0.0936973
H11 H 0.599209 0.302404 0.0640085
C17 C 0.6855(8) 0.0157(8) 0.0521(3)
C18 C 0.5996(7) 0.0476(9) 0.0383(3)
C19 C 0.7840(7) 0.0586(8) 0.0291(3)
H8 H 0.7972 0.1040 0.0029
C20 C 0.8627(7) 0.0366(7) 0.0434(3)
H9 H 0.9304 0.0702 0.0280
O8 O 0.3975(6) 0.1178(8) 0.9451(2)
O3 O 0.7203(6) 0.6025(6) 0.2784(2)
C4 C 0.9874(7) 0.8400(8) 0.1490(3)
H2 H 0.9728 0.7909 0.1739
O4 O 0.6004(6) 0.6519(6) 0.3022(2)
C5 C 0.9048(6) 0.8673(7) 0.1353(3)
C6 C 0.9293(6) 0.9409(6) 0.0985(2)
C8 C 0.8004(6) 0.8195(6) 0.1616(3)
C9 C 0.7767(7) 0.7537(7) 0.1999(3)
H4 H 0.8273 0.7324 0.2086
C10 C 0.6841(7) 0.7161(7) 0.2269(3)
C11 C 0.6671(8) 0.6522(8) 0.2725(3)
C12 C 0.6047(7) 0.7475(9) 0.2121(3)
H5 H 0.5415 0.7263 0.2300
C13 C 0.6227(7) 0.8084(8) 0.1718(3)
H6 H 0.5692 0.8240 0.1612
C14 C 0.7202(6) 0.8473(6) 0.1462(3)
C15 C 0.7450(6) 0.9211(7) 0.1054(3)
C16 C 0.6639(7) 0.9485(8) 0.0880(3)
H7 H 0.5954 0.9176 0.1027
C21 C 0.8447(6) 0.9650(7) 0.0806(3)
Cd3 Cd 0.66093(8) 0.57010(5) 0.358051(17)
C2 C 0.0406(7) 0.1519(9) 0.7566(3)
O2 O 0.0116(7) 0.3025(9) 0.7464(2)
C3 C 0.1149(9) 0.2025(11) 0.7928(3)
H1 H 0.1348 0.2738 0.8018
C4_2 C 0.1600(8) 0.1474(11) 0.8157(3)
H2_2 H 0.2091 0.1819 0.8406
C5_2 C 0.1327(7) 0.0375(9) 0.8020(3)
C7 C 0.0144(7) 0.0480(9) 0.7428(3)
C9_2 C 0.2463(7) 0.0230(10) 0.8666(3)
H4_2 H 0.2676 0.0949 0.8753
C11_2 C 0.3478(8) 0.0149(11) 0.9392(3)
O9 O 0.0515(8) 0.3996(10) 0.6355(2)
O5 O 0.4910(11) 0.4894(6) 0.3942(2)
C6_2 C 0.0116(8) 0.0707(6) 0.4318(2)
O6 O 0.4948(10) 0.3814(6) 0.3400(3)
C8_2 C 0.0191(8) 0.1996(6) 0.4949(3)
C10_2 C 0.0320(10) 0.3159(7) 0.5602(3)
C12_2 C 0.1428(11) 0.3953(7) 0.5454(3)
H5_2 H 0.1848 0.4585 0.5633
C13_2 C 0.1857(11) 0.3773(7) 0.5051(3)
H6_2 H 0.2548 0.4308 0.4945
C14_2 C 0.1271(8) 0.2798(6) 0.4795(3)
C15_2 C 0.1761(9) 0.2550(6) 0.4387(3)
C16_2 C 0.2846(11) 0.3361(7) 0.4213(3)
H7_2 H 0.3222 0.4046 0.4360
C17_2 C 0.3302(11) 0.3145(8) 0.3854(3)
C18_2 C 0.4480(11) 0.4004(7) 0.3716(3)
C19_2 C 0.2746(11) 0.2160(7) 0.3624(3)
H8_2 H 0.3068 0.2028 0.3362
C20_2 C 0.1739(10) 0.1373(7) 0.3767(3)
H9_2 H 0.1398 0.0696 0.3613
C21_2 C 0.1203(9) 0.1553(6) 0.4139(3)
C1_2 C 0.7924(9) 0.7803(6) 0.3981(2)
O1_2 O 0.8345(7) 0.7623(5) 0.36326(19)
C2_2 C 0.8481(9) 0.8887(6) 0.4232(3)
O2_2 O 0.6975(9) 0.7091(5) 0.4130(2)
C3_2 C 0.7975(11) 0.9124(7) 0.4594(3)
H1_2 H 0.7262 0.8610 0.4684
C7_2 C 0.9520(9) 0.9664(6) 0.4094(3)
H3_2 H 0.9847 0.9502 0.3843
O7_2 O 0.7550(5) 0.4812(4) 0.39484(13)
H10_2 H 0.780808 0.51229 0.427031
H11_2 H 0.703195 0.400791 0.397342
C2_3 C 0.1113(6) 0.9594(7) 0.0899(3)
O2_3 O 0.2909(5) 0.9884(7) 0.0797(2)
C3_3 C 0.0876(7) 0.8851(9) 0.1261(3)
H1_3 H 0.1390 0.8652 0.1351
C7_3 C 0.0336(6) 0.9856(7) 0.0761(3)
O9_2 O 0.3481(6) 0.9485(8) 0.9689(2)
C6_3 C 0.0591(6) 0.9884(8) 0.7652(2)
C8_3 C 0.1805(6) 0.9809(8) 0.8283(3)
C10_3 C 0.2839(7) 0.9680(10) 0.8936(3)
C12_3 C 0.2525(9) 0.8572(11) 0.8788(3)
H5_3 H 0.2737 0.8152 0.8967
C13_3 C 0.1916(8) 0.8143(11) 0.8385(3)
H6_3 H 0.1760 0.7452 0.8279
C14_3 C 0.1527(6) 0.8729(8) 0.8129(3)
C15_3 C 0.0789(7) 0.8239(9) 0.7721(3)
C16_3 C 0.0515(8) 0.7154(11) 0.7547(3)
H7_3 H 0.0824 0.6778 0.7694
C21_3 C 0.0350(7) 0.8797(9) 0.7473(3)
C1_3 C 0.9879(7) 0.2076(9) 0.7315(2)
Cd1_2 Cd 0.90917(6) 0.33907(8) 0.691385(17)
O1_3 O 0.9278(5) 0.1655(7) 0.69660(19)
H3_3 H 0.9655 0.0153 0.7177
O7_3 O 0.7262(3) 0.2450(5) 0.72818(13)
O8_2 O 0.8822(8) 0.2797(10) 0.6117(2)
O10_2 O 0.9984(9) 0.5090(11) 0.7276(2)
O11_2 O 0.8866(8) 0.5052(10) 0.6734(3)
H10_3 H 0.731482 0.219192 0.760364
H11_3 H 0.697596 0.296805 0.730675
C17_3 C 0.9843(8) 0.6698(11) 0.7188(3)
C18_3 C 0.9524(9) 0.5520(11) 0.7050(3)
C19_3 C 0.9414(8) 0.7254(11) 0.6958(3)
H8_3 H 0.8960 0.6932 0.6696
C20_3 C 0.9634(7) 0.8261(10) 0.7101(3)
H9_3 H 0.9298 0.8602 0.6947
C4_3 C 0.8526(11) 0.0126(7) 0.4823(3)
H2_3 H 0.8181 0.0272 0.5072
C5_3 C 0.9625(9) 0.0952(6) 0.4686(3)
C9_3 C 0.9770(10) 0.2233(7) 0.5332(3)
H4_3 H 0.9051 0.1727 0.5419
C11_3 C 0.9851(11) 0.3329(8) 0.6058(3)
O8_3 O 0.1178(8) 0.3975(6) 0.0549(2)
O3_2 O 0.6025(6) 0.7203(6) 0.7216(2)
C4_4 C 0.8400(8) 0.9874(7) 0.8510(3)
H2_4 H 0.7909 0.9728 0.8261
O4_2 O 0.6519(6) 0.6004(6) 0.6978(2)
C5_4 C 0.8673(7) 0.9048(6) 0.8647(3)
C6_4 C 0.9409(6) 0.9293(6) 0.9015(2)
C8_4 C 0.8195(6) 0.8004(6) 0.8384(3)
C9_4 C 0.7537(7) 0.7767(7) 0.8001(3)
H4_4 H 0.7324 0.8273 0.7914
C10_4 C 0.7161(7) 0.6841(7) 0.7731(3)
C11_4 C 0.6522(8) 0.6671(8) 0.7275(3)
C12_4 C 0.7475(9) 0.6047(7) 0.7879(3)
H5_4 H 0.7263 0.5415 0.7700
C13_4 C 0.8084(8) 0.6227(7) 0.8282(3)
H6_4 H 0.8240 0.5692 0.8388
C14_4 C 0.8473(6) 0.7202(6) 0.8538(3)
C15_4 C 0.9211(7) 0.7450(6) 0.8946(3)
C16_4 C 0.9485(8) 0.6639(7) 0.9120(3)
H7_4 H 0.9176 0.5954 0.8973
C21_4 C 0.9650(7) 0.8447(6) 0.9194(3)
Cd3_2 Cd 0.57010(5) 0.66093(8) 0.641949(17)
C2_4 C 0.1519(9) 0.0406(7) 0.2434(3)
O2_4 O 0.3025(9) 0.0116(7) 0.2536(2)
C3_4 C 0.2025(11) 0.1149(9) 0.2072(3)
H1_4 H 0.2738 0.1348 0.1982
C4_5 C 0.1474(11) 0.1600(8) 0.1843(3)
H2_5 H 0.1819 0.2091 0.1594
C5_5 C 0.0375(9) 0.1327(7) 0.1980(3)
C7_4 C 0.0480(9) 0.0144(7) 0.2572(3)
C9_5 C 0.0230(10) 0.2463(7) 0.1334(3)
H4_5 H 0.0949 0.2676 0.1247
C11_5 C 0.0149(11) 0.3478(8) 0.0608(3)
O9_3 O 0.3996(10) 0.0515(8) 0.3645(2)
O5_2 O 0.4894(6) 0.4910(11) 0.6058(2)
C6_5 C 0.0707(6) 0.0116(8) 0.5682(2)
O6_2 O 0.3814(6) 0.4948(10) 0.6600(3)
C8_5 C 0.1996(6) 0.0191(8) 0.5051(3)
C10_5 C 0.3159(7) 0.0320(10) 0.4398(3)
C12_5 C 0.3953(7) 0.1428(11) 0.4546(3)
H5_5 H 0.4585 0.1848 0.4367
C13_5 C 0.3773(7) 0.1857(11) 0.4949(3)
H6_5 H 0.4308 0.2548 0.5055
C14_5 C 0.2798(6) 0.1271(8) 0.5205(3)
C15_5 C 0.2550(6) 0.1761(9) 0.5613(3)
C16_5 C 0.3361(7) 0.2846(11) 0.5787(3)
H7_5 H 0.4046 0.3222 0.5640
C17_4 C 0.3145(8) 0.3302(11) 0.6146(3)
C18_4 C 0.4004(7) 0.4480(11) 0.6284(3)
C19_4 C 0.2160(7) 0.2746(11) 0.6376(3)
H8_4 H 0.2028 0.3068 0.6638
C20_4 C 0.1373(7) 0.1739(10) 0.6233(3)
H9_4 H 0.0696 0.1398 0.6387
C21_5 C 0.1553(6) 0.1203(9) 0.5861(3)
C1_4 C 0.7803(6) 0.7924(9) 0.6019(2)
O1_4 O 0.7623(5) 0.8345(7) 0.63674(19)
C2_5 C 0.8887(6) 0.8481(9) 0.5768(3)
O2_5 O 0.7091(5) 0.6975(9) 0.5870(2)
C3_5 C 0.9124(7) 0.7975(11) 0.5406(3)
H1_5 H 0.8610 0.7262 0.5316
C7_5 C 0.9664(6) 0.9520(9) 0.5906(3)
H3_4 H 0.9502 0.9847 0.6157
O7_4 O 0.4812(4) 0.7550(5) 0.60516(13)
H10_4 H 0.51229 0.780808 0.572969
H11_4 H 0.400791 0.703195 0.602658
C1_5 C 0.0121(7) 0.2197(6) 0.9352(2)
Cd1_3 Cd 0.09083(6) 0.42990(5) 0.975282(17)
O1_5 O 0.0722(5) 0.2377(5) 0.97007(19)
H3_5 H 0.0345 0.0498 0.9490
O7_5 O 0.2738(3) 0.5188(4) 0.93849(13)
O10_3 O 0.0016(9) 0.5106(6) 0.9391(2)
O11_3 O 0.1134(8) 0.6186(6) 0.9933(3)
H10_5 H 0.268518 0.48771 0.906303
H11_5 H 0.302404 0.599209 0.935991
C17_5 C 0.0157(8) 0.6855(8) 0.9479(3)
C18_5 C 0.0476(9) 0.5996(7) 0.9617(3)
C19_5 C 0.0586(8) 0.7840(7) 0.9709(3)
H8_5 H 0.1040 0.7972 0.9971
C20_5 C 0.0366(7) 0.8627(7) 0.9566(3)
H9_5 H 0.0702 0.9304 0.9720
O9_4 O 0.9485(8) 0.3481(6) 0.0311(2)
C6_6 C 0.9884(8) 0.0591(6) 0.2348(2)
C8_6 C 0.9809(8) 0.1805(6) 0.1717(3)
C10_6 C 0.9680(10) 0.2839(7) 0.1064(3)
C12_6 C 0.8572(11) 0.2525(9) 0.1212(3)
H5_6 H 0.8152 0.2737 0.1033
C13_6 C 0.8143(11) 0.1916(8) 0.1615(3)
H6_6 H 0.7452 0.1760 0.1721
C14_6 C 0.8729(8) 0.1527(6) 0.1871(3)
C15_6 C 0.8239(9) 0.0789(7) 0.2279(3)
C16_6 C 0.7154(11) 0.0515(8) 0.2453(3)
H7_6 H 0.6778 0.0824 0.2306
C21_6 C 0.8797(9) 0.0350(7) 0.2527(3)
C2_6 C 0.9594(7) 0.1113(6) 0.9101(3)
O2_6 O 0.9884(7) 0.2909(5) 0.9203(2)
C3_6 C 0.8851(9) 0.0876(7) 0.8739(3)
H1_6 H 0.8652 0.1390 0.8649
C7_6 C 0.9856(7) 0.0336(6) 0.9239(3)
C1_6 C 0.2076(9) 0.9879(7) 0.2685(2)
Cd1_4 Cd 0.33907(8) 0.90917(6) 0.308615(17)
O1_6 O 0.1655(7) 0.9278(5) 0.30340(19)
H3_6 H 0.0153 0.9655 0.2823
O7_6 O 0.2450(5) 0.7262(3) 0.27182(13)
O8_4 O 0.2797(10) 0.8822(8) 0.3883(2)
O10_4 O 0.5090(11) 0.9984(9) 0.2724(2)
O11_4 O 0.5052(10) 0.8866(8) 0.3266(3)
H10_6 H 0.219192 0.731482 0.239636
H11_6 H 0.296805 0.697596 0.269325
C17_6 C 0.6698(11) 0.9843(8) 0.2812(3)
C18_6 C 0.5520(11) 0.9524(9) 0.2950(3)
C19_6 C 0.7254(11) 0.9414(8) 0.3042(3)
H8_6 H 0.6932 0.8960 0.3304
C20_6 C 0.8261(10) 0.9634(7) 0.2899(3)
H9_6 H 0.8602 0.9298 0.3053
C4_6 C 0.0126(7) 0.8526(11) 0.5177(3)
H2_6 H 0.0272 0.8181 0.4928
C5_6 C 0.0952(6) 0.9625(9) 0.5314(3)
C9_6 C 0.2233(7) 0.9770(10) 0.4668(3)
H4_6 H 0.1727 0.9051 0.4581
C11_6 C 0.3329(8) 0.9851(11) 0.3942(3)
loop_
_geom_bond_atom_site_label_1
_geom_bond_atom_site_label_2
_geom_bond_site_symmetry_1
_geom_bond_site_symmetry_2
C1 O1 1_555 1_555
Cd1 O1 1_555 1_555
O7 Cd1 1_555 1_555
O10 Cd1 1_555 1_555
O11 Cd1 1_555 1_555
O7 H10 1_555 1_555
O7 H11 1_555 1_555
O10 C18 1_555 1_555
O11 C18 1_555 1_555
C18 C17 1_555 1_555
C19 C17 1_555 1_555
H8 C19 1_555 1_555
C20 C19 1_555 1_555
H9 C20 1_555 1_555
O3 C11 1_555 1_555
H2 C4 1_555 1_555
O4 C11 1_555 1_555
C5 C4 1_555 1_555
C6 C5 1_555 1_555
C8 C5 1_555 1_555
C9 C8 1_555 1_555
H4 C9 1_555 1_555
C10 C9 1_555 1_555
C11 C10 1_555 1_555
C12 C10 1_555 1_555
H5 C12 1_555 1_555
C13 C12 1_555 1_555
H6 C13 1_555 1_555
C14 C8 1_555 1_555
C15 C14 1_555 1_555
C16 C15 1_555 1_555
H7 C16 1_555 1_555
C21 C6 1_555 1_555
Cd3 O3 1_555 1_555
O4 Cd3 1_555 1_555
C13 C14 1_555 1_555
C15 C21 1_555 1_555
C3 C2 1_555 1_555
H1 C3 1_555 1_555
O8 C11_2 1_555 1_555
C4_2 C3 1_555 1_555
H2_2 C4_2 1_555 1_555
C5_2 C4_2 1_555 1_555
C7 C2 1_555 1_555
H4_2 C9_2 1_555 1_555
O5 C18_2 1_555 1_555
O6 C18_2 1_555 1_555
C12_2 C10_2 1_555 1_555
H5_2 C12_2 1_555 1_555
C13_2 C12_2 1_555 1_555
H6_2 C13_2 1_555 1_555
C14_2 C8_2 1_555 1_555
C15_2 C14_2 1_555 1_555
C16_2 C15_2 1_555 1_555
H7_2 C16_2 1_555 1_555
C17_2 C16_2 1_555 1_555
C18_2 C17_2 1_555 1_555
C19_2 C17_2 1_555 1_555
H8_2 C19_2 1_555 1_555
C20_2 C19_2 1_555 1_555
H9_2 C20_2 1_555 1_555
C21_2 C6_2 1_555 1_555
Cd3 O5 1_555 1_555
O6 Cd3 1_555 1_555
C13_2 C14_2 1_555 1_555
C15_2 C21_2 1_555 1_555
C20_2 C21_2 1_555 1_555
C1_2 O1_2 1_555 1_555
Cd3 O1_2 1_555 1_555
C2_2 C1_2 1_555 1_555
O2_2 C1_2 1_555 1_555
C3_2 C2_2 1_555 1_555
H1_2 C3_2 1_555 1_555
C7_2 C2_2 1_555 1_555
H3_2 C7_2 1_555 1_555
O7_2 Cd3 1_555 1_555
Cd3 O2_2 1_555 1_555
O7_2 H10_2 1_555 1_555
O7_2 H11_2 1_555 1_555
C3_3 C2_3 1_555 1_555
H1_3 C3_3 1_555 1_555
C7_3 C2_3 1_555 1_555
C12_3 C10_3 1_555 1_555
H5_3 C12_3 1_555 1_555
C13_3 C12_3 1_555 1_555
H6_3 C13_3 1_555 1_555
C14_3 C8_3 1_555 1_555
C15_3 C14_3 1_555 1_555
C16_3 C15_3 1_555 1_555
H7_3 C16_3 1_555 1_555
C21_3 C6_3 1_555 1_555
C13_3 C14_3 1_555 1_555
C15_3 C21_3 1_555 1_555
C1_3 O1_3 1_555 1_555
Cd1_2 O1_3 1_555 1_555
O7_3 Cd1_2 1_555 1_555
O8_2 Cd1_2 1_555 1_555
O10_2 Cd1_2 1_555 1_555
O11_2 Cd1_2 1_555 1_555
O7_3 H10_3 1_555 1_555
O7_3 H11_3 1_555 1_555
O10_2 C18_3 1_555 1_555
O11_2 C18_3 1_555 1_555
C18_3 C17_3 1_555 1_555
C19_3 C17_3 1_555 1_555
H8_3 C19_3 1_555 1_555
C20_3 C19_3 1_555 1_555
H9_3 C20_3 1_555 1_555
O8_2 C11_3 1_555 1_555
H2_3 C4_3 1_555 1_555
C5_3 C4_3 1_555 1_555
H4_3 C9_3 1_555 1_555
O3_2 C11_4 1_555 1_555
H2_4 C4_4 1_555 1_555
O4_2 C11_4 1_555 1_555
C5_4 C4_4 1_555 1_555
C6_4 C5_4 1_555 1_555
C8_4 C5_4 1_555 1_555
C9_4 C8_4 1_555 1_555
H4_4 C9_4 1_555 1_555
C10_4 C9_4 1_555 1_555
C11_4 C10_4 1_555 1_555
C12_4 C10_4 1_555 1_555
H5_4 C12_4 1_555 1_555
C13_4 C12_4 1_555 1_555
H6_4 C13_4 1_555 1_555
C14_4 C8_4 1_555 1_555
C15_4 C14_4 1_555 1_555
C16_4 C15_4 1_555 1_555
H7_4 C16_4 1_555 1_555
C21_4 C6_4 1_555 1_555
Cd3_2 O3_2 1_555 1_555
O4_2 Cd3_2 1_555 1_555
C13_4 C14_4 1_555 1_555
C15_4 C21_4 1_555 1_555
C3_4 C2_4 1_555 1_555
H1_4 C3_4 1_555 1_555
O8_3 C11_5 1_555 1_555
C4_5 C3_4 1_555 1_555
H2_5 C4_5 1_555 1_555
C5_5 C4_5 1_555 1_555
C7_4 C2_4 1_555 1_555
H4_5 C9_5 1_555 1_555
O5_2 C18_4 1_555 1_555
O6_2 C18_4 1_555 1_555
C12_5 C10_5 1_555 1_555
H5_5 C12_5 1_555 1_555
C13_5 C12_5 1_555 1_555
H6_5 C13_5 1_555 1_555
C14_5 C8_5 1_555 1_555
C15_5 C14_5 1_555 1_555
C16_5 C15_5 1_555 1_555
H7_5 C16_5 1_555 1_555
C17_4 C16_5 1_555 1_555
C18_4 C17_4 1_555 1_555
C19_4 C17_4 1_555 1_555
H8_4 C19_4 1_555 1_555
C20_4 C19_4 1_555 1_555
H9_4 C20_4 1_555 1_555
C21_5 C6_5 1_555 1_555
Cd3_2 O5_2 1_555 1_555
O6_2 Cd3_2 1_555 1_555
C13_5 C14_5 1_555 1_555
C15_5 C21_5 1_555 1_555
C20_4 C21_5 1_555 1_555
C1_4 O1_4 1_555 1_555
Cd3_2 O1_4 1_555 1_555
C2_5 C1_4 1_555 1_555
O2_5 C1_4 1_555 1_555
C3_5 C2_5 1_555 1_555
H1_5 C3_5 1_555 1_555
C7_5 C2_5 1_555 1_555
H3_4 C7_5 1_555 1_555
O7_4 Cd3_2 1_555 1_555
Cd3_2 O2_5 1_555 1_555
O7_4 H10_4 1_555 1_555
O7_4 H11_4 1_555 1_555
C1_5 O1_5 1_555 1_555
Cd1_3 O1_5 1_555 1_555
O7_5 Cd1_3 1_555 1_555
O10_3 Cd1_3 1_555 1_555
O11_3 Cd1_3 1_555 1_555
O7_5 H10_5 1_555 1_555
O7_5 H11_5 1_555 1_555
O10_3 C18_5 1_555 1_555
O11_3 C18_5 1_555 1_555
C18_5 C17_5 1_555 1_555
C19_5 C17_5 1_555 1_555
H8_5 C19_5 1_555 1_555
C20_5 C19_5 1_555 1_555
H9_5 C20_5 1_555 1_555
C12_6 C10_6 1_555 1_555
H5_6 C12_6 1_555 1_555
C13_6 C12_6 1_555 1_555
H6_6 C13_6 1_555 1_555
C14_6 C8_6 1_555 1_555
C15_6 C14_6 1_555 1_555
C16_6 C15_6 1_555 1_555
H7_6 C16_6 1_555 1_555
C21_6 C6_6 1_555 1_555
C13_6 C14_6 1_555 1_555
C15_6 C21_6 1_555 1_555
C3_6 C2_6 1_555 1_555
H1_6 C3_6 1_555 1_555
C7_6 C2_6 1_555 1_555
C1_6 O1_6 1_555 1_555
Cd1_4 O1_6 1_555 1_555
O7_6 Cd1_4 1_555 1_555
O8_4 Cd1_4 1_555 1_555
O10_4 Cd1_4 1_555 1_555
O11_4 Cd1_4 1_555 1_555
O7_6 H10_6 1_555 1_555
O7_6 H11_6 1_555 1_555
O10_4 C18_6 1_555 1_555
O11_4 C18_6 1_555 1_555
C18_6 C17_6 1_555 1_555
C19_6 C17_6 1_555 1_555
H8_6 C19_6 1_555 1_555
C20_6 C19_6 1_555 1_555
H9_6 C20_6 1_555 1_555
O8_4 C11_6 1_555 1_555
H2_6 C4_6 1_555 1_555
C5_6 C4_6 1_555 1_555
H4_6 C9_6 1_555 1_555

#END
