
###############################################################################
#
# This file contains modified crystal structure data generated from the
# MOF subset of the Cambridge Structural Database (CSD) v543 
# hosted by the Cambridge Crystallographic Data Centre (CCDC).
#
# This work is licensed under the Creative Commons
# Attribution-NonCommercial-ShareAlike 4.0 International License.
# To view a copy of this license, visit
# http://creativecommons.org/licenses/by-nc-sa/4.0/
# or send a letter to
# Creative Commons, PO Box 1866, Mountain View, CA 94042, USA.
#
# CIF created using the CSD Python API on 29 September 2022
# The structure has been converted into the P1 space group
# The structure has a 3D framework
# The original CSD entry KUWCEM is in the orthorhombic crystal system
# The framework has been calculated to contain at least 10.0% void space
# The void calculation uses a probe of radius 1.32A, grid spacing 0.4
#
###############################################################################

data_KUWCEM
_chemical_formula_moiety         '(C264 H152 Cu8 N16 O54)n'
_symmetry_cell_setting           triclinic
_symmetry_space_group_name_H-M   'P 1'
_symmetry_Int_Tables_number      1
_space_group_name_Hall           'P 1'
loop_
_symmetry_equiv_pos_site_id
_symmetry_equiv_pos_as_xyz
1 x,y,z
_cell_length_a                   24.133(2)
_cell_length_b                   27.911(3)
_cell_length_c                   17.9404(18)
_cell_angle_alpha                90
_cell_angle_beta                 90
_cell_angle_gamma                90
_cell_volume                     12084.2
loop_
_atom_site_label
_atom_site_type_symbol
_atom_site_fract_x
_atom_site_fract_y
_atom_site_fract_z
Cu1 Cu 0.82234(2) 0.45255(2) 0.50263(3)
O1 O 0.76057(16) 0.45708(14) 0.4335(2)
O2 O 0.61514(15) 0.54010(15) 0.0716(2)
O3 O 0.62402(15) 0.46078(15) 0.0794(2)
C1 C 0.55031(18) 0.49892(18) 0.1433(3)
O4 O 0.76911(17) 0.53517(15) 0.4148(2)
C2 C 0.60216(18) 0.5003(2) 0.0957(3)
N1 N 0.82302(15) 0.37604(19) 0.5054(2)
C3 C 0.5000 0.5025(3) 0.1064(4)
H1 H 0.5000 0.5074 0.0552
C4 C 0.74717(19) 0.4957(2) 0.4039(2)
C5 C 0.8242(2) 0.2768(2) 0.5101(3)
C6 C 0.6978(2) 0.4950(2) 0.3524(3)
C7 C 0.5505(2) 0.4937(2) 0.2204(3)
C8 C 0.6027(2) 0.4932(3) 0.2636(3)
C9 C 0.5000 0.4893(4) 0.2555(5)
H2 H 0.5000 0.4828 0.3064
C10 C 0.6856(2) 0.5279(3) 0.3032(4)
H3 H 0.7090 0.5542 0.2991
C11 C 0.6140(3) 0.4514(3) 0.3146(4)
H4 H 0.5904 0.4252 0.3185
C12 C 0.6630(3) 0.4555(3) 0.3554(5)
H5 H 0.6729 0.4302 0.3865
C13 C 0.8639(4) 0.3512(3) 0.5231(7)
H6 H 0.8965 0.3676 0.5335
C14 C 0.8660(4) 0.3029(3) 0.5287(6)
H7 H 0.8981 0.2883 0.5463
C15 C 0.6400(3) 0.5257(4) 0.2571(4)
H8 H 0.6362 0.5487 0.2199
C16 C 0.7817(4) 0.3516(3) 0.4850(7)
H9 H 0.7509 0.3684 0.4679
C17 C 0.7781(4) 0.3015(3) 0.4857(7)
H10 H 0.7461 0.2856 0.4705
O5 O 0.23943(16) 0.45708(14) 0.4335(2)
O6 O 0.38486(15) 0.54010(15) 0.0716(2)
O7 O 0.37598(15) 0.46078(15) 0.0794(2)
C18 C 0.44969(18) 0.49892(18) 0.1433(3)
O8 O 0.23089(17) 0.53517(15) 0.4148(2)
C19 C 0.39784(18) 0.5003(2) 0.0957(3)
C20 C 0.25283(19) 0.4957(2) 0.4039(2)
C21 C 0.3022(2) 0.4950(2) 0.3524(3)
C22 C 0.4495(2) 0.4937(2) 0.2204(3)
C23 C 0.3973(2) 0.4932(3) 0.2636(3)
C24 C 0.3144(2) 0.5279(3) 0.3032(4)
H11 H 0.2910 0.5542 0.2991
C25 C 0.3860(3) 0.4514(3) 0.3146(4)
H12 H 0.4096 0.4252 0.3185
C26 C 0.3370(3) 0.4555(3) 0.3554(5)
H13 H 0.3271 0.4302 0.3865
C27 C 0.3600(3) 0.5257(4) 0.2571(4)
H14 H 0.3638 0.5487 0.2199
N2 N 0.82302(15) 0.12396(19) 0.5054(2)
C28 C 0.8242(2) 0.2232(2) 0.5101(3)
C29 C 0.8639(4) 0.1488(3) 0.5231(7)
H15 H 0.8965 0.1324 0.5335
C30 C 0.8660(4) 0.1971(3) 0.5287(6)
H16 H 0.8981 0.2117 0.5463
C31 C 0.7817(4) 0.1484(3) 0.4850(7)
H17 H 0.7509 0.1316 0.4679
C32 C 0.7781(4) 0.1985(3) 0.4857(7)
H18 H 0.7461 0.2144 0.4705
Cu2 Cu 0.82234(2) 0.54745(2) 0.49737(3)
Cu3 Cu 0.67766(2) 0.54745(2) 0.00263(3)
Cu5 Cu 0.17766(2) 0.54745(2) 0.49737(3)
Cu6 Cu 0.82234(2) 0.04745(2) 0.50263(3)
Cu7 Cu 0.17766(2) 0.45255(2) 0.50263(3)
Cu9 Cu 0.32234(2) 0.54745(2) 0.00263(3)
O9 O 0.76057(16) 0.54292(14) 0.5665(2)
O10 O 0.88486(15) 0.45990(15) 0.5716(2)
O11 O 0.88486(15) 0.54010(15) 0.4284(2)
O12 O 0.87598(15) 0.53922(15) 0.5794(2)
O13 O 0.87598(15) 0.46078(15) 0.4206(2)
O14 O 0.76911(17) 0.46483(15) 0.5852(2)
N3 N 0.82302(15) 0.62396(19) 0.4946(2)
Cu4 Cu 0.67766(2) 0.45255(2) 0.99737(3)
Cu8 Cu 0.32234(2) 0.45255(2) 0.99737(3)
Cu1_2 Cu 0.17766(2) 0.04745(2) 0.50263(3)
O1_2 O 0.23943(16) 0.04292(14) 0.4335(2)
O3_2 O 0.37598(15) 0.03922(15) 0.0794(2)
C1_2 C 0.44969(18) 0.00108(18) 0.1433(3)
N1_2 N 0.17698(15) 0.12396(19) 0.5054(2)
C4_2 C 0.25283(19) 0.0043(2) 0.4039(2)
C5_2 C 0.1758(2) 0.2232(2) 0.5101(3)
C6_2 C 0.3022(2) 0.0050(2) 0.3524(3)
C7_2 C 0.4495(2) 0.0063(2) 0.2204(3)
C8_2 C 0.3973(2) 0.0068(3) 0.2636(3)
C9_2 C 0.5000 0.0107(4) 0.2555(5)
H2_2 H 0.5000 0.0172 0.3064
C11_2 C 0.3860(3) 0.0486(3) 0.3146(4)
H4_2 H 0.4096 0.0748 0.3185
C12_2 C 0.3370(3) 0.0445(3) 0.3554(5)
H5_2 H 0.3271 0.0698 0.3865
C13_2 C 0.1361(4) 0.1488(3) 0.5231(7)
H6_2 H 0.1035 0.1324 0.5335
C14_2 C 0.1340(4) 0.1971(3) 0.5287(6)
H7_2 H 0.1019 0.2117 0.5463
C16_2 C 0.2183(4) 0.1484(3) 0.4850(7)
H9_2 H 0.2491 0.1316 0.4679
C17_2 C 0.2219(4) 0.1985(3) 0.4857(7)
H10_2 H 0.2539 0.2144 0.4705
O5_2 O 0.76057(16) 0.04292(14) 0.4335(2)
O7_2 O 0.62402(15) 0.03922(15) 0.0794(2)
C18_2 C 0.55031(18) 0.00108(18) 0.1433(3)
C20_2 C 0.74717(19) 0.0043(2) 0.4039(2)
C21_2 C 0.6978(2) 0.0050(2) 0.3524(3)
C22_2 C 0.5505(2) 0.0063(2) 0.2204(3)
C23_2 C 0.6027(2) 0.0068(3) 0.2636(3)
C25_2 C 0.6140(3) 0.0486(3) 0.3146(4)
H12_2 H 0.5904 0.0748 0.3185
C26_2 C 0.6630(3) 0.0445(3) 0.3554(5)
H13_2 H 0.6729 0.0698 0.3865
N2_2 N 0.17698(15) 0.37604(19) 0.5054(2)
C28_2 C 0.1758(2) 0.2768(2) 0.5101(3)
C29_2 C 0.1361(4) 0.3512(3) 0.5231(7)
H15_2 H 0.1035 0.3676 0.5335
C30_2 C 0.1340(4) 0.3029(3) 0.5287(6)
H16_2 H 0.1019 0.2883 0.5463
C31_2 C 0.2183(4) 0.3516(3) 0.4850(7)
H17_2 H 0.2491 0.3684 0.4679
C32_2 C 0.2219(4) 0.3015(3) 0.4857(7)
H18_2 H 0.2539 0.2856 0.4705
O10_2 O 0.11514(15) 0.04010(15) 0.5716(2)
O13_2 O 0.12402(15) 0.03922(15) 0.4206(2)
O14_2 O 0.23089(17) 0.03517(15) 0.5852(2)
Cu4_2 Cu 0.32234(2) 0.04745(2) 0.99737(3)
Cu8_2 Cu 0.67766(2) 0.04745(2) 0.99737(3)
O2_2 O 0.38486(15) 0.95990(15) 0.0716(2)
O4_2 O 0.23089(17) 0.96483(15) 0.4148(2)
C2_2 C 0.39784(18) 0.9997(2) 0.0957(3)
C3_2 C 0.5000 0.9975(3) 0.1064(4)
H1_2 H 0.5000 0.9926 0.0552
C10_2 C 0.3144(2) 0.9721(3) 0.3032(4)
H3_2 H 0.2910 0.9458 0.2991
C15_2 C 0.3600(3) 0.9743(4) 0.2571(4)
H8_2 H 0.3638 0.9513 0.2199
O6_2 O 0.61514(15) 0.95990(15) 0.0716(2)
O8_2 O 0.76911(17) 0.96483(15) 0.4148(2)
C19_2 C 0.60216(18) 0.9997(2) 0.0957(3)
C24_2 C 0.6856(2) 0.9721(3) 0.3032(4)
H11_2 H 0.7090 0.9458 0.2991
C27_2 C 0.6400(3) 0.9743(4) 0.2571(4)
H14_2 H 0.6362 0.9513 0.2199
Cu2_2 Cu 0.17766(2) 0.95255(2) 0.49737(3)
Cu3_2 Cu 0.32234(2) 0.95255(2) 0.00263(3)
Cu5_2 Cu 0.82234(2) 0.95255(2) 0.49737(3)
Cu9_2 Cu 0.67766(2) 0.95255(2) 0.00263(3)
O9_2 O 0.23943(16) 0.95708(14) 0.5665(2)
O11_2 O 0.11514(15) 0.95990(15) 0.4284(2)
O12_2 O 0.12402(15) 0.96078(15) 0.5794(2)
N3_2 N 0.17698(15) 0.87604(19) 0.4946(2)
O2_3 O 0.38486(15) 0.04010(15) 0.9284(2)
C2_3 C 0.39784(18) 0.0003(2) 0.9043(3)
C3_3 C 0.5000 0.0025(3) 0.8936(4)
H1_3 H 0.5000 0.0074 0.9448
C10_3 C 0.3144(2) 0.0279(3) 0.6968(4)
H3_3 H 0.2910 0.0542 0.7009
C15_3 C 0.3600(3) 0.0257(4) 0.7429(4)
H8_3 H 0.3638 0.0487 0.7801
O6_3 O 0.61514(15) 0.04010(15) 0.9284(2)
O8_3 O 0.76911(17) 0.03517(15) 0.5852(2)
C19_3 C 0.60216(18) 0.0003(2) 0.9043(3)
C24_3 C 0.6856(2) 0.0279(3) 0.6968(4)
H11_3 H 0.7090 0.0542 0.7009
C27_3 C 0.6400(3) 0.0257(4) 0.7429(4)
H14_3 H 0.6362 0.0487 0.7801
O3_3 O 0.37598(15) 0.96078(15) 0.9206(2)
C1_3 C 0.44969(18) 0.99892(18) 0.8567(3)
C4_3 C 0.25283(19) 0.9957(2) 0.5961(2)
C5_3 C 0.1758(2) 0.7768(2) 0.4899(3)
C6_3 C 0.3022(2) 0.9950(2) 0.6476(3)
C7_3 C 0.4495(2) 0.9937(2) 0.7796(3)
C8_3 C 0.3973(2) 0.9932(3) 0.7364(3)
C9_3 C 0.5000 0.9893(4) 0.7445(5)
H2_3 H 0.5000 0.9828 0.6936
C11_3 C 0.3860(3) 0.9514(3) 0.6854(4)
H4_3 H 0.4096 0.9252 0.6815
C12_3 C 0.3370(3) 0.9555(3) 0.6446(5)
H5_3 H 0.3271 0.9302 0.6135
C13_3 C 0.1361(4) 0.8512(3) 0.4769(7)
H6_3 H 0.1035 0.8676 0.4665
C14_3 C 0.1340(4) 0.8029(3) 0.4713(6)
H7_3 H 0.1019 0.7883 0.4537
C16_3 C 0.2183(4) 0.8516(3) 0.5150(7)
H9_3 H 0.2491 0.8684 0.5321
C17_3 C 0.2219(4) 0.8015(3) 0.5143(7)
H10_3 H 0.2539 0.7856 0.5295
O5_3 O 0.76057(16) 0.95708(14) 0.5665(2)
O7_3 O 0.62402(15) 0.96078(15) 0.9206(2)
C18_3 C 0.55031(18) 0.99892(18) 0.8567(3)
C20_3 C 0.74717(19) 0.9957(2) 0.5961(2)
C21_3 C 0.6978(2) 0.9950(2) 0.6476(3)
C22_3 C 0.5505(2) 0.9937(2) 0.7796(3)
C23_3 C 0.6027(2) 0.9932(3) 0.7364(3)
C25_3 C 0.6140(3) 0.9514(3) 0.6854(4)
H12_3 H 0.5904 0.9252 0.6815
C26_3 C 0.6630(3) 0.9555(3) 0.6446(5)
H13_3 H 0.6729 0.9302 0.6135
N2_3 N 0.17698(15) 0.62396(19) 0.4946(2)
C28_3 C 0.1758(2) 0.7232(2) 0.4899(3)
C29_3 C 0.1361(4) 0.6488(3) 0.4769(7)
H15_3 H 0.1035 0.6324 0.4665
C30_3 C 0.1340(4) 0.6971(3) 0.4713(6)
H16_3 H 0.1019 0.7117 0.4537
C31_3 C 0.2183(4) 0.6484(3) 0.5150(7)
H17_3 H 0.2491 0.6316 0.5321
C32_3 C 0.2219(4) 0.6985(3) 0.5143(7)
H18_3 H 0.2539 0.7144 0.5295
O2_4 O 0.61514(15) 0.45990(15) 0.9284(2)
O3_4 O 0.62402(15) 0.53922(15) 0.9206(2)
C1_4 C 0.55031(18) 0.50108(18) 0.8567(3)
C2_4 C 0.60216(18) 0.4997(2) 0.9043(3)
C3_4 C 0.5000 0.4975(3) 0.8936(4)
H1_4 H 0.5000 0.4926 0.9448
C4_4 C 0.74717(19) 0.5043(2) 0.5961(2)
C5_4 C 0.8242(2) 0.7232(2) 0.4899(3)
C6_4 C 0.6978(2) 0.5050(2) 0.6476(3)
C7_4 C 0.5505(2) 0.5063(2) 0.7796(3)
C8_4 C 0.6027(2) 0.5068(3) 0.7364(3)
C9_4 C 0.5000 0.5107(4) 0.7445(5)
H2_4 H 0.5000 0.5172 0.6936
C10_4 C 0.6856(2) 0.4721(3) 0.6968(4)
H3_4 H 0.7090 0.4458 0.7009
C11_4 C 0.6140(3) 0.5486(3) 0.6854(4)
H4_4 H 0.5904 0.5748 0.6815
C12_4 C 0.6630(3) 0.5445(3) 0.6446(5)
H5_4 H 0.6729 0.5698 0.6135
C13_4 C 0.8639(4) 0.6488(3) 0.4769(7)
H6_4 H 0.8965 0.6324 0.4665
C14_4 C 0.8660(4) 0.6971(3) 0.4713(6)
H7_4 H 0.8981 0.7117 0.4537
C15_4 C 0.6400(3) 0.4743(4) 0.7429(4)
H8_4 H 0.6362 0.4513 0.7801
C16_4 C 0.7817(4) 0.6484(3) 0.5150(7)
H9_4 H 0.7509 0.6316 0.5321
C17_4 C 0.7781(4) 0.6985(3) 0.5143(7)
H10_4 H 0.7461 0.7144 0.5295
O5_4 O 0.23943(16) 0.54292(14) 0.5665(2)
O6_4 O 0.38486(15) 0.45990(15) 0.9284(2)
O7_4 O 0.37598(15) 0.53922(15) 0.9206(2)
C18_4 C 0.44969(18) 0.50108(18) 0.8567(3)
O8_4 O 0.23089(17) 0.46483(15) 0.5852(2)
C19_4 C 0.39784(18) 0.4997(2) 0.9043(3)
C20_4 C 0.25283(19) 0.5043(2) 0.5961(2)
C21_4 C 0.3022(2) 0.5050(2) 0.6476(3)
C22_4 C 0.4495(2) 0.5063(2) 0.7796(3)
C23_4 C 0.3973(2) 0.5068(3) 0.7364(3)
C24_4 C 0.3144(2) 0.4721(3) 0.6968(4)
H11_4 H 0.2910 0.4458 0.7009
C25_4 C 0.3860(3) 0.5486(3) 0.6854(4)
H12_4 H 0.4096 0.5748 0.6815
C26_4 C 0.3370(3) 0.5445(3) 0.6446(5)
H13_4 H 0.3271 0.5698 0.6135
C27_4 C 0.3600(3) 0.4743(4) 0.7429(4)
H14_4 H 0.3638 0.4513 0.7801
N2_4 N 0.82302(15) 0.87604(19) 0.4946(2)
C28_4 C 0.8242(2) 0.7768(2) 0.4899(3)
C29_4 C 0.8639(4) 0.8512(3) 0.4769(7)
H15_4 H 0.8965 0.8676 0.4665
C30_4 C 0.8660(4) 0.8029(3) 0.4713(6)
H16_4 H 0.8981 0.7883 0.4537
C31_4 C 0.7817(4) 0.8516(3) 0.5150(7)
H17_4 H 0.7509 0.8684 0.5321
C32_4 C 0.7781(4) 0.8015(3) 0.5143(7)
H18_4 H 0.7461 0.7856 0.5295
O9_3 O 0.26057(16) 0.04292(14) 0.0665(2)
O4_3 O 0.26911(17) 0.03517(15) 0.9148(2)
C2_5 C 0.10216(18) 0.0003(2) 0.5957(3)
C3_5 C -0.0000 0.0025(3) 0.6064(4)
H1_5 H -0.0000 0.0074 0.5552
C10_5 C 0.1856(2) 0.0279(3) 0.8032(4)
H3_5 H 0.2090 0.0542 0.7991
C15_5 C 0.1400(3) 0.0257(4) 0.7571(4)
H8_5 H 0.1362 0.0487 0.7199
N3_3 N 0.32302(15) 0.12396(19) 0.9946(2)
N1_3 N 0.32302(15) 0.87604(19) 0.0054(2)
C5_5 C 0.3242(2) 0.7768(2) 0.0101(3)
C13_5 C 0.3639(4) 0.8512(3) 0.0231(7)
H6_5 H 0.3965 0.8676 0.0335
C14_5 C 0.3660(4) 0.8029(3) 0.0287(6)
H7_5 H 0.3981 0.7883 0.0463
N2_5 N 0.32302(15) 0.62396(19) 0.0054(2)
C28_5 C 0.3242(2) 0.7232(2) 0.0101(3)
C29_5 C 0.3639(4) 0.6488(3) 0.0231(7)
H15_5 H 0.3965 0.6324 0.0335
C30_5 C 0.3660(4) 0.6971(3) 0.0287(6)
H16_5 H 0.3981 0.7117 0.0463
O14_3 O 0.26911(17) 0.96483(15) 0.0852(2)
O1_3 O 0.26057(16) 0.95708(14) 0.9335(2)
C1_5 C 0.05031(18) 0.99892(18) 0.6433(3)
C4_5 C 0.24717(19) 0.9957(2) 0.9039(2)
C6_5 C 0.1978(2) 0.9950(2) 0.8524(3)
C7_5 C 0.0505(2) 0.9937(2) 0.7204(3)
C8_5 C 0.1027(2) 0.9932(3) 0.7636(3)
C9_5 C -0.0000 0.9893(4) 0.7555(5)
H2_5 H -0.0000 0.9828 0.8064
C11_5 C 0.1140(3) 0.9514(3) 0.8146(4)
H4_5 H 0.0904 0.9252 0.8185
C12_5 C 0.1630(3) 0.9555(3) 0.8554(5)
H5_5 H 0.1729 0.9302 0.8865
C16_5 C 0.2817(4) 0.8516(3) 0.9850(7)
H9_5 H 0.2509 0.8684 0.9679
C17_5 C 0.2781(4) 0.8015(3) 0.9857(7)
H10_5 H 0.2461 0.7856 0.9705
C31_5 C 0.2817(4) 0.6484(3) 0.9850(7)
H17_5 H 0.2509 0.6316 0.9679
C32_5 C 0.2781(4) 0.6985(3) 0.9857(7)
H18_5 H 0.2461 0.7144 0.9705
C3_6 C 1.0000 0.0025(3) 0.6064(4)
H1_6 H 1.0000 0.0074 0.5552
O6_5 O 0.88486(15) 0.04010(15) 0.5716(2)
O8_5 O 0.73089(17) 0.03517(15) 0.9148(2)
C19_5 C 0.89784(18) 0.0003(2) 0.5957(3)
C24_5 C 0.8144(2) 0.0279(3) 0.8032(4)
H11_5 H 0.7910 0.0542 0.7991
C27_5 C 0.8600(3) 0.0257(4) 0.7571(4)
H14_5 H 0.8638 0.0487 0.7199
C9_6 C 1.0000 0.9893(4) 0.7555(5)
H2_6 H 1.0000 0.9828 0.8064
O5_5 O 0.73943(16) 0.95708(14) 0.9335(2)
O7_5 O 0.87598(15) 0.96078(15) 0.5794(2)
C18_5 C 0.94969(18) 0.99892(18) 0.6433(3)
C20_5 C 0.75283(19) 0.9957(2) 0.9039(2)
C21_5 C 0.8022(2) 0.9950(2) 0.8524(3)
C22_5 C 0.9495(2) 0.9937(2) 0.7204(3)
C23_5 C 0.8973(2) 0.9932(3) 0.7636(3)
C25_5 C 0.8860(3) 0.9514(3) 0.8146(4)
H12_5 H 0.9096 0.9252 0.8185
C26_5 C 0.8370(3) 0.9555(3) 0.8554(5)
H13_5 H 0.8271 0.9302 0.8865
C3_7 C 0.0000 0.4975(3) 0.6064(4)
H1_7 H 0.0000 0.4926 0.5552
C9_7 C 0.0000 0.5107(4) 0.7555(5)
H2_7 H 0.0000 0.5172 0.8064
O5_6 O 0.26057(16) 0.54292(14) 0.9335(2)
O6_6 O 0.11514(15) 0.45990(15) 0.5716(2)
O7_6 O 0.12402(15) 0.53922(15) 0.5794(2)
C18_6 C 0.05031(18) 0.50108(18) 0.6433(3)
O8_6 O 0.26911(17) 0.46483(15) 0.9148(2)
C19_6 C 0.10216(18) 0.4997(2) 0.5957(3)
C20_6 C 0.24717(19) 0.5043(2) 0.9039(2)
C21_6 C 0.1978(2) 0.5050(2) 0.8524(3)
C22_6 C 0.0505(2) 0.5063(2) 0.7204(3)
C23_6 C 0.1027(2) 0.5068(3) 0.7636(3)
C24_6 C 0.1856(2) 0.4721(3) 0.8032(4)
H11_6 H 0.2090 0.4458 0.7991
C25_6 C 0.1140(3) 0.5486(3) 0.8146(4)
H12_6 H 0.0904 0.5748 0.8185
C26_6 C 0.1630(3) 0.5445(3) 0.8554(5)
H13_6 H 0.1729 0.5698 0.8865
C27_6 C 0.1400(3) 0.4743(4) 0.7571(4)
H14_6 H 0.1362 0.4513 0.7199
N1_4 N 0.67698(15) 0.62396(19) 0.0054(2)
C5_6 C 0.6758(2) 0.7232(2) 0.0101(3)
C13_6 C 0.6361(4) 0.6488(3) 0.0231(7)
H6_6 H 0.6035 0.6324 0.0335
C14_6 C 0.6340(4) 0.6971(3) 0.0287(6)
H7_6 H 0.6019 0.7117 0.0463
N2_6 N 0.67698(15) 0.87604(19) 0.0054(2)
C28_6 C 0.6758(2) 0.7768(2) 0.0101(3)
C29_6 C 0.6361(4) 0.8512(3) 0.0231(7)
H15_6 H 0.6035 0.8676 0.0335
C30_6 C 0.6340(4) 0.8029(3) 0.0287(6)
H16_6 H 0.6019 0.7883 0.0463
O9_4 O 0.73943(16) 0.45708(14) 0.0665(2)
O14_4 O 0.73089(17) 0.53517(15) 0.0852(2)
O1_4 O 0.73943(16) 0.54292(14) 0.9335(2)
C1_6 C 0.94969(18) 0.50108(18) 0.6433(3)
O4_4 O 0.73089(17) 0.46483(15) 0.9148(2)
C2_6 C 0.89784(18) 0.4997(2) 0.5957(3)
C3_8 C 1.0000 0.4975(3) 0.6064(4)
H1_8 H 1.0000 0.4926 0.5552
C4_6 C 0.75283(19) 0.5043(2) 0.9039(2)
C6_6 C 0.8022(2) 0.5050(2) 0.8524(3)
C7_6 C 0.9495(2) 0.5063(2) 0.7204(3)
C8_6 C 0.8973(2) 0.5068(3) 0.7636(3)
C9_8 C 1.0000 0.5107(4) 0.7555(5)
H2_8 H 1.0000 0.5172 0.8064
C10_6 C 0.8144(2) 0.4721(3) 0.8032(4)
H3_6 H 0.7910 0.4458 0.7991
C11_6 C 0.8860(3) 0.5486(3) 0.8146(4)
H4_6 H 0.9096 0.5748 0.8185
C12_6 C 0.8370(3) 0.5445(3) 0.8554(5)
H5_6 H 0.8271 0.5698 0.8865
C15_6 C 0.8600(3) 0.4743(4) 0.7571(4)
H8_6 H 0.8638 0.4513 0.7199
C16_6 C 0.7183(4) 0.6484(3) 0.9850(7)
H9_6 H 0.7491 0.6316 0.9679
C17_6 C 0.7219(4) 0.6985(3) 0.9857(7)
H10_6 H 0.7539 0.7144 0.9705
C31_6 C 0.7183(4) 0.8516(3) 0.9850(7)
H17_6 H 0.7491 0.8684 0.9679
C32_6 C 0.7219(4) 0.8015(3) 0.9857(7)
H18_6 H 0.7539 0.7856 0.9705
N3_4 N 0.67698(15) 0.37604(19) 0.9946(2)
C3_9 C 0.0000 0.5025(3) 0.3936(4)
H1_9 H 0.0000 0.5074 0.4448
C9_9 C 0.0000 0.4893(4) 0.2445(5)
H2_9 H 0.0000 0.4828 0.1936
O5_7 O 0.26057(16) 0.45708(14) 0.0665(2)
O6_7 O 0.11514(15) 0.54010(15) 0.4284(2)
O7_7 O 0.12402(15) 0.46078(15) 0.4206(2)
C18_7 C 0.05031(18) 0.49892(18) 0.3567(3)
O8_7 O 0.26911(17) 0.53517(15) 0.0852(2)
C19_7 C 0.10216(18) 0.5003(2) 0.4043(3)
C20_7 C 0.24717(19) 0.4957(2) 0.0961(2)
C21_7 C 0.1978(2) 0.4950(2) 0.1476(3)
C22_7 C 0.0505(2) 0.4937(2) 0.2796(3)
C23_7 C 0.1027(2) 0.4932(3) 0.2364(3)
C24_7 C 0.1856(2) 0.5279(3) 0.1968(4)
H11_7 H 0.2090 0.5542 0.2009
C25_7 C 0.1140(3) 0.4514(3) 0.1854(4)
H12_7 H 0.0904 0.4252 0.1815
C26_7 C 0.1630(3) 0.4555(3) 0.1446(5)
H13_7 H 0.1729 0.4302 0.1135
C27_7 C 0.1400(3) 0.5257(4) 0.2429(4)
H14_7 H 0.1362 0.5487 0.2801
C1_7 C 0.94969(18) 0.49892(18) 0.3567(3)
C2_7 C 0.89784(18) 0.5003(2) 0.4043(3)
C3_10 C 1.0000 0.5025(3) 0.3936(4)
H1_10 H 1.0000 0.5074 0.4448
C4_7 C 0.75283(19) 0.4957(2) 0.0961(2)
C6_7 C 0.8022(2) 0.4950(2) 0.1476(3)
C7_7 C 0.9495(2) 0.4937(2) 0.2796(3)
C8_7 C 0.8973(2) 0.4932(3) 0.2364(3)
C9_10 C 1.0000 0.4893(4) 0.2445(5)
H2_10 H 1.0000 0.4828 0.1936
C10_7 C 0.8144(2) 0.5279(3) 0.1968(4)
H3_7 H 0.7910 0.5542 0.2009
C11_7 C 0.8860(3) 0.4514(3) 0.1854(4)
H4_7 H 0.9096 0.4252 0.1815
C12_7 C 0.8370(3) 0.4555(3) 0.1446(5)
H5_7 H 0.8271 0.4302 0.1135
C15_7 C 0.8600(3) 0.5257(4) 0.2429(4)
H8_7 H 0.8638 0.5487 0.2801
C16_7 C 0.7183(4) 0.3516(3) 0.0150(7)
H9_7 H 0.7491 0.3684 0.0321
C17_7 C 0.7219(4) 0.3015(3) 0.0143(7)
H10_7 H 0.7539 0.2856 0.0295
C31_7 C 0.7183(4) 0.1484(3) 0.0150(7)
H17_7 H 0.7491 0.1316 0.0321
C32_7 C 0.7219(4) 0.1985(3) 0.0143(7)
H18_7 H 0.7539 0.2144 0.0295
C5_7 C 0.6758(2) 0.2768(2) 0.9899(3)
C13_7 C 0.6361(4) 0.3512(3) 0.9769(7)
H6_7 H 0.6035 0.3676 0.9665
C14_7 C 0.6340(4) 0.3029(3) 0.9713(6)
H7_7 H 0.6019 0.2883 0.9537
N2_7 N 0.67698(15) 0.12396(19) 0.9946(2)
C28_7 C 0.6758(2) 0.2232(2) 0.9899(3)
C29_7 C 0.6361(4) 0.1488(3) 0.9769(7)
H15_7 H 0.6035 0.1324 0.9665
C30_7 C 0.6340(4) 0.1971(3) 0.9713(6)
H16_7 H 0.6019 0.2117 0.9537
C1_8 C 0.05031(18) 0.00108(18) 0.3567(3)
C4_8 C 0.24717(19) 0.0043(2) 0.0961(2)
C6_8 C 0.1978(2) 0.0050(2) 0.1476(3)
C7_8 C 0.0505(2) 0.0063(2) 0.2796(3)
C8_8 C 0.1027(2) 0.0068(3) 0.2364(3)
C9_11 C -0.0000 0.0107(4) 0.2445(5)
H2_11 H -0.0000 0.0172 0.1936
C11_8 C 0.1140(3) 0.0486(3) 0.1854(4)
H4_8 H 0.0904 0.0748 0.1815
C12_8 C 0.1630(3) 0.0445(3) 0.1446(5)
H5_8 H 0.1729 0.0698 0.1135
C16_8 C 0.2817(4) 0.1484(3) 0.0150(7)
H9_8 H 0.2509 0.1316 0.0321
C17_8 C 0.2781(4) 0.1985(3) 0.0143(7)
H10_8 H 0.2461 0.2144 0.0295
C31_8 C 0.2817(4) 0.3516(3) 0.0150(7)
H17_8 H 0.2509 0.3684 0.0321
C32_8 C 0.2781(4) 0.3015(3) 0.0143(7)
H18_8 H 0.2461 0.2856 0.0295
C5_8 C 0.3242(2) 0.2232(2) 0.9899(3)
C13_8 C 0.3639(4) 0.1488(3) 0.9769(7)
H6_8 H 0.3965 0.1324 0.9665
C14_8 C 0.3660(4) 0.1971(3) 0.9713(6)
H7_8 H 0.3981 0.2117 0.9537
N2_8 N 0.32302(15) 0.37604(19) 0.9946(2)
C28_8 C 0.3242(2) 0.2768(2) 0.9899(3)
C29_8 C 0.3639(4) 0.3512(3) 0.9769(7)
H15_8 H 0.3965 0.3676 0.9665
C30_8 C 0.3660(4) 0.3029(3) 0.9713(6)
H16_8 H 0.3981 0.2883 0.9537
C2_8 C 0.10216(18) 0.9997(2) 0.4043(3)
C3_11 C -0.0000 0.9975(3) 0.3936(4)
H1_11 H -0.0000 0.9926 0.4448
C10_8 C 0.1856(2) 0.9721(3) 0.1968(4)
H3_8 H 0.2090 0.9458 0.2009
C15_8 C 0.1400(3) 0.9743(4) 0.2429(4)
H8_8 H 0.1362 0.9513 0.2801
C9_12 C 1.0000 0.0107(4) 0.2445(5)
H2_12 H 1.0000 0.0172 0.1936
O5_8 O 0.73943(16) 0.04292(14) 0.0665(2)
O7_8 O 0.87598(15) 0.03922(15) 0.4206(2)
C18_8 C 0.94969(18) 0.00108(18) 0.3567(3)
C20_8 C 0.75283(19) 0.0043(2) 0.0961(2)
C21_8 C 0.8022(2) 0.0050(2) 0.1476(3)
C22_8 C 0.9495(2) 0.0063(2) 0.2796(3)
C23_8 C 0.8973(2) 0.0068(3) 0.2364(3)
C25_8 C 0.8860(3) 0.0486(3) 0.1854(4)
H12_8 H 0.9096 0.0748 0.1815
C26_8 C 0.8370(3) 0.0445(3) 0.1446(5)
H13_8 H 0.8271 0.0698 0.1135
C3_12 C 1.0000 0.9975(3) 0.3936(4)
H1_12 H 1.0000 0.9926 0.4448
O6_8 O 0.88486(15) 0.95990(15) 0.4284(2)
O8_8 O 0.73089(17) 0.96483(15) 0.0852(2)
C19_8 C 0.89784(18) 0.9997(2) 0.4043(3)
C24_8 C 0.8144(2) 0.9721(3) 0.1968(4)
H11_8 H 0.7910 0.9458 0.2009
C27_8 C 0.8600(3) 0.9743(4) 0.2429(4)
H14_8 H 0.8638 0.9513 0.2801
loop_
_geom_bond_atom_site_label_1
_geom_bond_atom_site_label_2
_geom_bond_site_symmetry_1
_geom_bond_site_symmetry_2
Cu1 O1 1_555 1_555
O1 C4 1_555 1_555
O2 C2 1_555 1_555
O3 C2 1_555 1_555
C1 C2 1_555 1_555
O4 C4 1_555 1_555
N1 Cu1 1_555 1_555
C3 C1 1_555 1_555
H1 C3 1_555 1_555
C4 C6 1_555 1_555
C5 C14 1_555 1_555
C6 C10 1_555 1_555
C7 C1 1_555 1_555
C8 C7 1_555 1_555
C9 C7 1_555 1_555
H2 C9 1_555 1_555
C10 H3 1_555 1_555
C11 C8 1_555 1_555
H4 C11 1_555 1_555
C12 C6 1_555 1_555
H5 C12 1_555 1_555
C13 N1 1_555 1_555
H6 C13 1_555 1_555
C14 C13 1_555 1_555
H7 C14 1_555 1_555
C15 C8 1_555 1_555
H8 C15 1_555 1_555
C16 N1 1_555 1_555
H9 C16 1_555 1_555
C17 C5 1_555 1_555
H10 C17 1_555 1_555
O5 C20 1_555 1_555
O6 C19 1_555 1_555
O7 C19 1_555 1_555
C18 C3 1_555 1_555
O8 C20 1_555 1_555
C19 C18 1_555 1_555
C20 C21 1_555 1_555
C21 C24 1_555 1_555
C22 C9 1_555 1_555
C23 C22 1_555 1_555
C24 H11 1_555 1_555
C25 C23 1_555 1_555
H12 C25 1_555 1_555
C26 C21 1_555 1_555
H13 C26 1_555 1_555
C27 C23 1_555 1_555
H14 C27 1_555 1_555
N2 C29 1_555 1_555
C28 C5 1_555 1_555
C29 H15 1_555 1_555
C30 C28 1_555 1_555
H16 C30 1_555 1_555
C31 N2 1_555 1_555
H17 C31 1_555 1_555
C32 C28 1_555 1_555
H18 C32 1_555 1_555
Cu2 O4 1_555 1_555
Cu3 O2 1_555 1_555
Cu5 O8 1_555 1_555
Cu6 N2 1_555 1_555
Cu7 O5 1_555 1_555
Cu9 O6 1_555 1_555
O9 Cu2 1_555 1_555
O10 Cu1 1_555 1_555
O11 Cu2 1_555 1_555
O12 Cu2 1_555 1_555
O13 Cu1 1_555 1_555
O14 Cu1 1_555 1_555
N3 Cu2 1_555 1_555
C10 C15 1_555 1_555
C11 C12 1_555 1_555
C16 C17 1_555 1_555
C18 C22 1_555 1_555
C24 C27 1_555 1_555
C25 C26 1_555 1_555
C29 C30 1_555 1_555
C31 C32 1_555 1_555
Cu1_2 O1_2 1_555 1_555
O1_2 C4_2 1_555 1_555
N1_2 Cu1_2 1_555 1_555
C4_2 C6_2 1_555 1_555
C5_2 C14_2 1_555 1_555
C7_2 C1_2 1_555 1_555
C8_2 C7_2 1_555 1_555
C9_2 C7_2 1_555 1_555
H2_2 C9_2 1_555 1_555
C11_2 C8_2 1_555 1_555
H4_2 C11_2 1_555 1_555
C12_2 C6_2 1_555 1_555
H5_2 C12_2 1_555 1_555
C13_2 N1_2 1_555 1_555
H6_2 C13_2 1_555 1_555
C14_2 C13_2 1_555 1_555
H7_2 C14_2 1_555 1_555
C16_2 N1_2 1_555 1_555
H9_2 C16_2 1_555 1_555
C17_2 C5_2 1_555 1_555
H10_2 C17_2 1_555 1_555
O5_2 C20_2 1_555 1_555
C20_2 C21_2 1_555 1_555
C22_2 C9_2 1_555 1_555
C23_2 C22_2 1_555 1_555
C25_2 C23_2 1_555 1_555
H12_2 C25_2 1_555 1_555
C26_2 C21_2 1_555 1_555
H13_2 C26_2 1_555 1_555
N2_2 C29_2 1_555 1_555
C28_2 C5_2 1_555 1_555
C29_2 H15_2 1_555 1_555
C30_2 C28_2 1_555 1_555
H16_2 C30_2 1_555 1_555
C31_2 N2_2 1_555 1_555
H17_2 C31_2 1_555 1_555
C32_2 C28_2 1_555 1_555
H18_2 C32_2 1_555 1_555
Cu7 N2_2 1_555 1_555
Cu6 O5_2 1_555 1_555
O10_2 Cu1_2 1_555 1_555
O13_2 Cu1_2 1_555 1_555
O14_2 Cu1_2 1_555 1_555
C11_2 C12_2 1_555 1_555
C16_2 C17_2 1_555 1_555
C18_2 C22_2 1_555 1_555
C25_2 C26_2 1_555 1_555
C29_2 C30_2 1_555 1_555
C31_2 C32_2 1_555 1_555
O2_2 C2_2 1_555 1_555
H1_2 C3_2 1_555 1_555
C10_2 H3_2 1_555 1_555
H8_2 C15_2 1_555 1_555
O6_2 C19_2 1_555 1_555
C24_2 H11_2 1_555 1_555
H14_2 C27_2 1_555 1_555
Cu2_2 O4_2 1_555 1_555
Cu3_2 O2_2 1_555 1_555
Cu5_2 O8_2 1_555 1_555
Cu9_2 O6_2 1_555 1_555
O9_2 Cu2_2 1_555 1_555
O11_2 Cu2_2 1_555 1_555
O12_2 Cu2_2 1_555 1_555
N3_2 Cu2_2 1_555 1_555
C10_2 C15_2 1_555 1_555
C24_2 C27_2 1_555 1_555
O2_3 C2_3 1_555 1_555
H1_3 C3_3 1_555 1_555
C10_3 H3_3 1_555 1_555
H8_3 C15_3 1_555 1_555
O6_3 C19_3 1_555 1_555
C24_3 H11_3 1_555 1_555
H14_3 C27_3 1_555 1_555
Cu4_2 O2_3 1_555 1_555
Cu6 O8_3 1_555 1_555
Cu8_2 O6_3 1_555 1_555
C10_3 C15_3 1_555 1_555
C24_3 C27_3 1_555 1_555
O9_2 C4_3 1_555 1_555
C4_3 C6_3 1_555 1_555
C5_3 C14_3 1_555 1_555
C7_3 C1_3 1_555 1_555
C8_3 C7_3 1_555 1_555
C9_3 C7_3 1_555 1_555
H2_3 C9_3 1_555 1_555
C11_3 C8_3 1_555 1_555
H4_3 C11_3 1_555 1_555
C12_3 C6_3 1_555 1_555
H5_3 C12_3 1_555 1_555
C13_3 N3_2 1_555 1_555
H6_3 C13_3 1_555 1_555
C14_3 C13_3 1_555 1_555
H7_3 C14_3 1_555 1_555
C16_3 N3_2 1_555 1_555
H9_3 C16_3 1_555 1_555
C17_3 C5_3 1_555 1_555
H10_3 C17_3 1_555 1_555
O5_3 C20_3 1_555 1_555
C20_3 C21_3 1_555 1_555
C22_3 C9_3 1_555 1_555
C23_3 C22_3 1_555 1_555
C25_3 C23_3 1_555 1_555
H12_3 C25_3 1_555 1_555
C26_3 C21_3 1_555 1_555
H13_3 C26_3 1_555 1_555
N2_3 C29_3 1_555 1_555
C28_3 C5_3 1_555 1_555
C29_3 H15_3 1_555 1_555
C30_3 C28_3 1_555 1_555
H16_3 C30_3 1_555 1_555
C31_3 N2_3 1_555 1_555
H17_3 C31_3 1_555 1_555
C32_3 C28_3 1_555 1_555
H18_3 C32_3 1_555 1_555
Cu5 N2_3 1_555 1_555
Cu5_2 O5_3 1_555 1_555
C11_3 C12_3 1_555 1_555
C16_3 C17_3 1_555 1_555
C18_3 C22_3 1_555 1_555
C25_3 C26_3 1_555 1_555
C29_3 C30_3 1_555 1_555
C31_3 C32_3 1_555 1_555
O9 C4_4 1_555 1_555
O2_4 C2_4 1_555 1_555
O3_4 C2_4 1_555 1_555
C1_4 C2_4 1_555 1_555
O14 C4_4 1_555 1_555
C3_4 C1_4 1_555 1_555
H1_4 C3_4 1_555 1_555
C4_4 C6_4 1_555 1_555
C5_4 C14_4 1_555 1_555
C6_4 C10_4 1_555 1_555
C7_4 C1_4 1_555 1_555
C8_4 C7_4 1_555 1_555
C9_4 C7_4 1_555 1_555
H2_4 C9_4 1_555 1_555
C10_4 H3_4 1_555 1_555
C11_4 C8_4 1_555 1_555
H4_4 C11_4 1_555 1_555
C12_4 C6_4 1_555 1_555
H5_4 C12_4 1_555 1_555
C13_4 N3 1_555 1_555
H6_4 C13_4 1_555 1_555
C14_4 C13_4 1_555 1_555
H7_4 C14_4 1_555 1_555
C15_4 C8_4 1_555 1_555
H8_4 C15_4 1_555 1_555
C16_4 N3 1_555 1_555
H9_4 C16_4 1_555 1_555
C17_4 C5_4 1_555 1_555
H10_4 C17_4 1_555 1_555
O5_4 C20_4 1_555 1_555
O6_4 C19_4 1_555 1_555
O7_4 C19_4 1_555 1_555
C18_4 C3_4 1_555 1_555
O8_4 C20_4 1_555 1_555
C19_4 C18_4 1_555 1_555
C20_4 C21_4 1_555 1_555
C21_4 C24_4 1_555 1_555
C22_4 C9_4 1_555 1_555
C23_4 C22_4 1_555 1_555
C24_4 H11_4 1_555 1_555
C25_4 C23_4 1_555 1_555
H12_4 C25_4 1_555 1_555
C26_4 C21_4 1_555 1_555
H13_4 C26_4 1_555 1_555
C27_4 C23_4 1_555 1_555
H14_4 C27_4 1_555 1_555
N2_4 C29_4 1_555 1_555
C28_4 C5_4 1_555 1_555
C29_4 H15_4 1_555 1_555
C30_4 C28_4 1_555 1_555
H16_4 C30_4 1_555 1_555
C31_4 N2_4 1_555 1_555
H17_4 C31_4 1_555 1_555
C32_4 C28_4 1_555 1_555
H18_4 C32_4 1_555 1_555
Cu4 O2_4 1_555 1_555
Cu7 O8_4 1_555 1_555
Cu5_2 N2_4 1_555 1_555
Cu5 O5_4 1_555 1_555
Cu8 O6_4 1_555 1_555
C10_4 C15_4 1_555 1_555
C11_4 C12_4 1_555 1_555
C16_4 C17_4 1_555 1_555
C18_4 C22_4 1_555 1_555
C24_4 C27_4 1_555 1_555
C25_4 C26_4 1_555 1_555
C29_4 C30_4 1_555 1_555
C31_4 C32_4 1_555 1_555
O10_2 C2_5 1_555 1_555
H1_5 C3_5 1_555 1_555
C10_5 H3_5 1_555 1_555
H8_5 C15_5 1_555 1_555
Cu4_2 O4_3 1_555 1_555
N3_3 Cu4_2 1_555 1_555
C10_5 C15_5 1_555 1_555
N1_3 Cu3_2 1_555 1_555
C5_5 C14_5 1_555 1_555
C13_5 N1_3 1_555 1_555
H6_5 C13_5 1_555 1_555
C14_5 C13_5 1_555 1_555
H7_5 C14_5 1_555 1_555
N2_5 C29_5 1_555 1_555
C28_5 C5_5 1_555 1_555
C29_5 H15_5 1_555 1_555
C30_5 C28_5 1_555 1_555
H16_5 C30_5 1_555 1_555
Cu9 N2_5 1_555 1_555
O14_3 Cu3_2 1_555 1_555
C29_5 C30_5 1_555 1_555
O1_3 C4_5 1_555 1_555
C4_5 C6_5 1_555 1_555
C7_5 C1_5 1_555 1_555
C8_5 C7_5 1_555 1_555
C9_5 C7_5 1_555 1_555
H2_5 C9_5 1_555 1_555
C11_5 C8_5 1_555 1_555
H4_5 C11_5 1_555 1_555
C12_5 C6_5 1_555 1_555
H5_5 C12_5 1_555 1_555
H9_5 C16_5 1_555 1_555
H10_5 C17_5 1_555 1_555
H17_5 C31_5 1_555 1_555
H18_5 C32_5 1_555 1_555
C11_5 C12_5 1_555 1_555
C16_5 C17_5 1_555 1_555
C31_5 C32_5 1_555 1_555
H1_6 C3_6 1_555 1_555
O6_5 C19_5 1_555 1_555
C24_5 H11_5 1_555 1_555
H14_5 C27_5 1_555 1_555
Cu8_2 O8_5 1_555 1_555
Cu6 O6_5 1_555 1_555
C24_5 C27_5 1_555 1_555
H2_6 C9_6 1_555 1_555
O5_5 C20_5 1_555 1_555
C20_5 C21_5 1_555 1_555
C22_5 C9_6 1_555 1_555
C23_5 C22_5 1_555 1_555
C25_5 C23_5 1_555 1_555
H12_5 C25_5 1_555 1_555
C26_5 C21_5 1_555 1_555
H13_5 C26_5 1_555 1_555
Cu5_2 O7_5 1_555 1_555
C18_5 C22_5 1_555 1_555
C25_5 C26_5 1_555 1_555
H1_7 C3_7 1_555 1_555
H2_7 C9_7 1_555 1_555
O5_6 C20_6 1_555 1_555
O6_6 C19_6 1_555 1_555
O7_6 C19_6 1_555 1_555
C18_6 C3_7 1_555 1_555
O8_6 C20_6 1_555 1_555
C19_6 C18_6 1_555 1_555
C20_6 C21_6 1_555 1_555
C21_6 C24_6 1_555 1_555
C22_6 C9_7 1_555 1_555
C23_6 C22_6 1_555 1_555
C24_6 H11_6 1_555 1_555
C25_6 C23_6 1_555 1_555
H12_6 C25_6 1_555 1_555
C26_6 C21_6 1_555 1_555
H13_6 C26_6 1_555 1_555
C27_6 C23_6 1_555 1_555
H14_6 C27_6 1_555 1_555
Cu8 O8_6 1_555 1_555
Cu5 O7_6 1_555 1_555
Cu7 O6_6 1_555 1_555
C18_6 C22_6 1_555 1_555
C24_6 C27_6 1_555 1_555
C25_6 C26_6 1_555 1_555
N1_4 Cu3 1_555 1_555
C5_6 C14_6 1_555 1_555
C13_6 N1_4 1_555 1_555
H6_6 C13_6 1_555 1_555
C14_6 C13_6 1_555 1_555
H7_6 C14_6 1_555 1_555
N2_6 C29_6 1_555 1_555
C28_6 C5_6 1_555 1_555
C29_6 H15_6 1_555 1_555
C30_6 C28_6 1_555 1_555
H16_6 C30_6 1_555 1_555
Cu9_2 N2_6 1_555 1_555
O14_4 Cu3 1_555 1_555
C29_6 C30_6 1_555 1_555
O1_4 C4_6 1_555 1_555
O10 C2_6 1_555 1_555
O12 C2_6 1_555 1_555
C1_6 C2_6 1_555 1_555
O4_4 C4_6 1_555 1_555
C3_8 C1_6 1_555 1_555
H1_8 C3_8 1_555 1_555
C4_6 C6_6 1_555 1_555
C6_6 C10_6 1_555 1_555
C7_6 C1_6 1_555 1_555
C8_6 C7_6 1_555 1_555
C9_8 C7_6 1_555 1_555
H2_8 C9_8 1_555 1_555
C10_6 H3_6 1_555 1_555
C11_6 C8_6 1_555 1_555
H4_6 C11_6 1_555 1_555
C12_6 C6_6 1_555 1_555
H5_6 C12_6 1_555 1_555
C15_6 C8_6 1_555 1_555
H8_6 C15_6 1_555 1_555
H9_6 C16_6 1_555 1_555
H10_6 C17_6 1_555 1_555
H17_6 C31_6 1_555 1_555
H18_6 C32_6 1_555 1_555
Cu4 O4_4 1_555 1_555
N3_4 Cu4 1_555 1_555
C10_6 C15_6 1_555 1_555
C11_6 C12_6 1_555 1_555
C16_6 C17_6 1_555 1_555
C31_6 C32_6 1_555 1_555
H1_9 C3_9 1_555 1_555
H2_9 C9_9 1_555 1_555
O5_7 C20_7 1_555 1_555
O6_7 C19_7 1_555 1_555
O7_7 C19_7 1_555 1_555
C18_7 C3_9 1_555 1_555
O8_7 C20_7 1_555 1_555
C19_7 C18_7 1_555 1_555
C20_7 C21_7 1_555 1_555
C21_7 C24_7 1_555 1_555
C22_7 C9_9 1_555 1_555
C23_7 C22_7 1_555 1_555
C24_7 H11_7 1_555 1_555
C25_7 C23_7 1_555 1_555
H12_7 C25_7 1_555 1_555
C26_7 C21_7 1_555 1_555
H13_7 C26_7 1_555 1_555
C27_7 C23_7 1_555 1_555
H14_7 C27_7 1_555 1_555
Cu9 O8_7 1_555 1_555
Cu7 O7_7 1_555 1_555
Cu5 O6_7 1_555 1_555
C18_7 C22_7 1_555 1_555
C24_7 C27_7 1_555 1_555
C25_7 C26_7 1_555 1_555
O9_4 C4_7 1_555 1_555
O11 C2_7 1_555 1_555
O13 C2_7 1_555 1_555
C1_7 C2_7 1_555 1_555
O14_4 C4_7 1_555 1_555
C3_10 C1_7 1_555 1_555
H1_10 C3_10 1_555 1_555
C4_7 C6_7 1_555 1_555
C6_7 C10_7 1_555 1_555
C7_7 C1_7 1_555 1_555
C8_7 C7_7 1_555 1_555
C9_10 C7_7 1_555 1_555
H2_10 C9_10 1_555 1_555
C10_7 H3_7 1_555 1_555
C11_7 C8_7 1_555 1_555
H4_7 C11_7 1_555 1_555
C12_7 C6_7 1_555 1_555
H5_7 C12_7 1_555 1_555
C15_7 C8_7 1_555 1_555
H8_7 C15_7 1_555 1_555
H9_7 C16_7 1_555 1_555
H10_7 C17_7 1_555 1_555
H17_7 C31_7 1_555 1_555
H18_7 C32_7 1_555 1_555
C10_7 C15_7 1_555 1_555
C11_7 C12_7 1_555 1_555
C16_7 C17_7 1_555 1_555
C31_7 C32_7 1_555 1_555
C5_7 C14_7 1_555 1_555
C13_7 N3_4 1_555 1_555
H6_7 C13_7 1_555 1_555
C14_7 C13_7 1_555 1_555
H7_7 C14_7 1_555 1_555
N2_7 C29_7 1_555 1_555
C28_7 C5_7 1_555 1_555
C29_7 H15_7 1_555 1_555
C30_7 C28_7 1_555 1_555
H16_7 C30_7 1_555 1_555
Cu8_2 N2_7 1_555 1_555
C29_7 C30_7 1_555 1_555
O9_3 C4_8 1_555 1_555
C4_8 C6_8 1_555 1_555
C7_8 C1_8 1_555 1_555
C8_8 C7_8 1_555 1_555
C9_11 C7_8 1_555 1_555
H2_11 C9_11 1_555 1_555
C11_8 C8_8 1_555 1_555
H4_8 C11_8 1_555 1_555
C12_8 C6_8 1_555 1_555
H5_8 C12_8 1_555 1_555
H9_8 C16_8 1_555 1_555
H10_8 C17_8 1_555 1_555
H17_8 C31_8 1_555 1_555
H18_8 C32_8 1_555 1_555
C11_8 C12_8 1_555 1_555
C16_8 C17_8 1_555 1_555
C31_8 C32_8 1_555 1_555
C5_8 C14_8 1_555 1_555
C13_8 N3_3 1_555 1_555
H6_8 C13_8 1_555 1_555
C14_8 C13_8 1_555 1_555
H7_8 C14_8 1_555 1_555
N2_8 C29_8 1_555 1_555
C28_8 C5_8 1_555 1_555
C29_8 H15_8 1_555 1_555
C30_8 C28_8 1_555 1_555
H16_8 C30_8 1_555 1_555
Cu8 N2_8 1_555 1_555
C29_8 C30_8 1_555 1_555
O11_2 C2_8 1_555 1_555
H1_11 C3_11 1_555 1_555
C10_8 H3_8 1_555 1_555
H8_8 C15_8 1_555 1_555
C10_8 C15_8 1_555 1_555
H2_12 C9_12 1_555 1_555
O5_8 C20_8 1_555 1_555
C20_8 C21_8 1_555 1_555
C22_8 C9_12 1_555 1_555
C23_8 C22_8 1_555 1_555
C25_8 C23_8 1_555 1_555
H12_8 C25_8 1_555 1_555
C26_8 C21_8 1_555 1_555
H13_8 C26_8 1_555 1_555
Cu6 O7_8 1_555 1_555
C18_8 C22_8 1_555 1_555
C25_8 C26_8 1_555 1_555
H1_12 C3_12 1_555 1_555
O6_8 C19_8 1_555 1_555
C24_8 H11_8 1_555 1_555
H14_8 C27_8 1_555 1_555
Cu9_2 O8_8 1_555 1_555
Cu5_2 O6_8 1_555 1_555
C24_8 C27_8 1_555 1_555

#END
