
###############################################################################
#
# This file contains modified crystal structure data generated from the
# MOF subset of the Cambridge Structural Database (CSD) v543 
# hosted by the Cambridge Crystallographic Data Centre (CCDC).
#
# This work is licensed under the Creative Commons
# Attribution-NonCommercial-ShareAlike 4.0 International License.
# To view a copy of this license, visit
# http://creativecommons.org/licenses/by-nc-sa/4.0/
# or send a letter to
# Creative Commons, PO Box 1866, Mountain View, CA 94042, USA.
#
# CIF created using the CSD Python API on 29 September 2022
# The structure has been converted into the P1 space group
# The structure has a 3D framework
# The original CSD entry KUWNEY is in the tetragonal crystal system
# The framework has been calculated to contain at least 10.0% void space
# The void calculation uses a probe of radius 1.32A, grid spacing 0.4
# The framework is charged, counterions have been retained in the structure
#
###############################################################################

data_KUWNEY
_chemical_formula_moiety         '(C48 H12 Er21 Na12 O92 7+)n'
_symmetry_cell_setting           triclinic
_symmetry_space_group_name_H-M   'P 1'
_symmetry_Int_Tables_number      1
_space_group_name_Hall           'P 1'
loop_
_symmetry_equiv_pos_site_id
_symmetry_equiv_pos_as_xyz
1 x,y,z
_cell_length_a                   12.4441(2)
_cell_length_b                   12.4441(2)
_cell_length_c                   19.0521(5)
_cell_angle_alpha                90
_cell_angle_beta                 90
_cell_angle_gamma                90
_cell_volume                     2950.32
loop_
_atom_site_label
_atom_site_type_symbol
_atom_site_fract_x
_atom_site_fract_y
_atom_site_fract_z
Na1 Na 0.5001(3) 0.7440(3) 0.500000
Na1_2 Na 0.2560(3) 0.5001(3) 0.500000
Na1_3 Na 0.4999(3) 0.2560(3) 0.500000
Na1_4 Na 0.7440(3) 0.4999(3) 0.500000
Na1_5 Na 0.0001(3) 0.2440(3) 0.000000
Na1_6 Na 0.0001(3) 0.2440(3) 1.000000
Na1_7 Na 0.7560(3) 0.0001(3) 0.000000
Na1_8 Na 0.7560(3) 0.0001(3) 1.000000
Na1_9 Na 0.9999(3) 0.7560(3) 0.000000
Na1_10 Na 0.9999(3) 0.7560(3) 1.000000
Na1_11 Na 0.2440(3) 0.9999(3) 0.000000
Na1_12 Na 0.2440(3) 0.9999(3) 1.000000
Er10 Er -0.00001(2) 0.65280(2) 0.81588(2)
C1 C 0.500000 0.000000 0.5407(3)
O7 O 0.5001(3) 0.0891(2) 0.56959(15)
O8 O 0.5001(3) 0.0891(2) 0.43041(15)
C4 C 0.500000 0.000000 0.4593(3)
Er4 Er 0.65280(2) 0.00001(2) 0.81588(2)
O20 O 0.6078(2) 0.0000(2) 0.69711(14)
H4 H 0.667(2) 0.000(4) 0.676(3)
Er5 Er 0.49999(2) 0.15280(2) 0.68412(2)
Er7 Er 0.49999(2) 0.15280(2) 0.31588(2)
Er12 Er 0.34720(2) -0.00001(2) 0.81588(2)
O25 O 0.5000(2) 0.1078(2) 0.80289(14)
O28 O 0.3922(2) 0.0000(2) 0.69711(14)
O35 O 0.7782(6) 0.0950(6) 0.8914(4)
O37 O 0.7147(5) 0.1590(5) 0.7647(3)
Er1 Er 0.50001(2) 0.84720(2) 0.68412(2)
O1 O 0.5000(2) 0.8922(2) 0.80289(14)
H1 H 0.500(4) 0.833(2) 0.824(3)
O2 O 0.4999(3) 0.9109(2) 0.56959(15)
O3 O 0.4053(6) 0.7218(6) 0.6087(4)
O4 O 0.2782(6) 0.5950(6) 0.6086(4)
O5 O 0.3411(5) 0.7854(5) 0.7351(3)
O6 O 0.2147(5) 0.6590(5) 0.7353(3)
C1_2 C 0.500000 1.000000 0.5407(3)
C2 C 0.3220(4) 0.6778(4) 0.6381(2)
C3 C 0.2924(6) 0.7074(6) 0.7083(4)
C4_2 C 0.500000 1.000000 0.4593(3)
O9 O 0.4999(3) 0.9109(2) 0.43041(15)
Er2 Er 0.15280(2) 0.50001(2) 0.68412(2)
O10 O 0.1078(2) 0.5000(2) 0.80289(14)
H2 H 0.167(2) 0.500(4) 0.824(3)
O11 O 0.2782(6) 0.4053(6) 0.6087(4)
O12 O 0.4050(6) 0.2782(6) 0.6086(4)
O13 O 0.2146(5) 0.3411(5) 0.7351(3)
O14 O 0.3410(5) 0.2147(5) 0.7353(3)
C5 C 0.3222(4) 0.3220(4) 0.6381(2)
C6 C 0.2926(6) 0.2924(6) 0.7083(4)
H3 H 0.500(4) 0.167(2) 0.824(3)
O16 O 0.5947(6) 0.2782(6) 0.6087(4)
O17 O 0.7218(6) 0.4050(6) 0.6086(4)
O18 O 0.6589(5) 0.2146(5) 0.7351(3)
O19 O 0.7853(5) 0.3410(5) 0.7353(3)
C7 C 0.6780(4) 0.3222(4) 0.6381(2)
C8 C 0.7076(6) 0.2926(6) 0.7083(4)
Er4_2 Er 0.65280(2) 1.00001(2) 0.81588(2)
O20_2 O 0.6078(2) 1.0000(2) 0.69711(14)
H4_2 H 0.667(2) 1.000(4) 0.676(3)
O21 O 0.7782(6) 0.9053(6) 0.8913(4)
O22 O 0.9050(6) 0.7782(6) 0.8914(4)
O23 O 0.7146(5) 0.8411(5) 0.7649(3)
O24 O 0.8410(5) 0.7147(5) 0.7647(3)
C9 C 0.8222(4) 0.8220(4) 0.8619(2)
C10 C 0.7926(6) 0.7924(6) 0.7917(4)
Er6 Er 0.84720(2) 0.49999(2) 0.68412(2)
Er8 Er 0.50001(2) 0.84720(2) 0.31588(2)
Er10_2 Er 0.99999(2) 0.65280(2) 0.81588(2)
Er12_2 Er 0.34720(2) 0.99999(2) 0.81588(2)
Er13 Er 0.00001(2) 0.34720(2) 0.81588(2)
O26 O 0.0000(2) 0.6078(2) 0.69711(14)
O28_2 O 0.3922(2) 1.0000(2) 0.69711(14)
O29 O 0.0000(2) 0.3922(2) 0.69711(14)
O31 O 0.0891(2) 0.4999(3) 0.56959(15)
O33 O 0.5891(2) 0.9999(3) 0.93041(15)
O34 O 0.5950(6) 0.7218(6) 0.6086(4)
O36 O 0.6590(5) 0.7853(5) 0.7353(3)
Er13_2 Er 1.00001(2) 0.34720(2) 0.81588(2)
O26_2 O 1.0000(2) 0.6078(2) 0.69711(14)
O29_2 O 1.0000(2) 0.3922(2) 0.69711(14)
C1_3 C -0.000000 0.500000 0.5407(3)
C4_3 C -0.000000 0.500000 0.4593(3)
O9_2 O 0.0891(2) 0.4999(3) 0.43041(15)
O15 O 0.8922(2) 0.5000(2) 0.80289(14)
H3_2 H 0.833(2) 0.500(4) 0.824(3)
O16_2 O 0.7218(6) 0.5947(6) 0.6087(4)
O18_2 O 0.7854(5) 0.6589(5) 0.7351(3)
C7_2 C 0.6778(4) 0.6780(4) 0.6381(2)
C8_2 C 0.7074(6) 0.7076(6) 0.7083(4)
H4_3 H -0.000(4) 0.667(2) 0.676(3)
O21_2 O 0.0947(6) 0.7782(6) 0.8913(4)
O22_2 O 0.2218(6) 0.9050(6) 0.8914(4)
O23_2 O 0.1589(5) 0.7146(5) 0.7649(3)
O24_2 O 0.2853(5) 0.8410(5) 0.7647(3)
C9_2 C 0.1780(4) 0.8222(4) 0.8619(2)
C10_2 C 0.2076(6) 0.7926(6) 0.7917(4)
Er8_2 Er 0.15280(2) 0.50001(2) 0.31588(2)
O32 O 0.9109(2) 0.5001(3) 0.56959(15)
O33_2 O 0.0001(3) 0.5891(2) 0.93041(15)
C1_4 C 1.000000 0.500000 0.5407(3)
O8_2 O 0.9109(2) 0.5001(3) 0.43041(15)
C4_4 C 1.000000 0.500000 0.4593(3)
H4_4 H 1.000(4) 0.667(2) 0.676(3)
Er7_2 Er 0.84720(2) 0.49999(2) 0.31588(2)
H4_5 H 0.333(2) -0.000(4) 0.676(3)
O21_3 O 0.2218(6) 0.0947(6) 0.8913(4)
O22_3 O 0.0950(6) 0.2218(6) 0.8914(4)
O23_3 O 0.2854(5) 0.1589(5) 0.7649(3)
O24_3 O 0.1590(5) 0.2853(5) 0.7647(3)
C9_3 C 0.1778(4) 0.1780(4) 0.8619(2)
C10_3 C 0.2074(6) 0.2076(6) 0.7917(4)
O33_3 O 0.4109(2) 0.0001(3) 0.93041(15)
H4_6 H 0.333(2) 1.000(4) 0.676(3)
H4_7 H 0.000(4) 0.333(2) 0.676(3)
H4_8 H 1.000(4) 0.333(2) 0.676(3)
O21_4 O 0.9053(6) 0.2218(6) 0.8913(4)
O23_4 O 0.8411(5) 0.2854(5) 0.7649(3)
C9_4 C 0.8220(4) 0.1778(4) 0.8619(2)
C10_4 C 0.7924(6) 0.2074(6) 0.7917(4)
O33_4 O 0.9999(3) 0.4109(2) 0.93041(15)
Er1_2 Er 0.00001(2) 0.34720(2) 0.18412(2)
O1_2 O 0.0000(2) 0.3922(2) 0.30289(14)
H1_2 H 0.000(4) 0.333(2) 0.324(3)
C1_5 C 0.000000 0.500000 0.0407(3)
O7_2 O 0.0001(3) 0.5891(2) 0.06959(15)
O20_3 O 0.1078(2) 0.5000(2) 0.19711(14)
H4_9 H 0.167(2) 0.500(4) 0.176(3)
O21_5 O 0.2782(6) 0.4053(6) 0.3913(4)
O22_4 O 0.4050(6) 0.2782(6) 0.3914(4)
O23_5 O 0.2146(5) 0.3411(5) 0.2649(3)
O24_4 O 0.3410(5) 0.2147(5) 0.2647(3)
C9_5 C 0.3222(4) 0.3220(4) 0.3619(2)
C10_5 C 0.2926(6) 0.2924(6) 0.2917(4)
Er5_2 Er -0.00001(2) 0.65280(2) 0.18412(2)
Er6_2 Er 0.34720(2) -0.00001(2) 0.18412(2)
O25_2 O 0.0000(2) 0.6078(2) 0.30289(14)
O34_2 O 0.0950(6) 0.2218(6) 0.1086(4)
O35_2 O 0.2782(6) 0.5950(6) 0.3914(4)
O36_2 O 0.1590(5) 0.2853(5) 0.2353(3)
O37_2 O 0.2147(5) 0.6590(5) 0.2647(3)
C4_5 C 0.000000 0.500000 0.9593(3)
H3_3 H 0.000(4) 0.667(2) 0.324(3)
O16_3 O 0.0947(6) 0.7782(6) 0.1087(4)
O17_2 O 0.2218(6) 0.9050(6) 0.1086(4)
O18_3 O 0.1589(5) 0.7146(5) 0.2351(3)
O19_2 O 0.2853(5) 0.8410(5) 0.2353(3)
C7_3 C 0.1780(4) 0.8222(4) 0.1381(2)
C8_3 C 0.2076(6) 0.7926(6) 0.2083(4)
Er6_3 Er 0.34720(2) 0.99999(2) 0.18412(2)
Er1_3 Er 1.00001(2) 0.34720(2) 0.18412(2)
O1_3 O 1.0000(2) 0.3922(2) 0.30289(14)
H1_3 H 1.000(4) 0.333(2) 0.324(3)
O2_2 O 0.9999(3) 0.4109(2) 0.06959(15)
O3_2 O 0.9053(6) 0.2218(6) 0.1087(4)
O4_2 O 0.7782(6) 0.0950(6) 0.1086(4)
O5_2 O 0.8411(5) 0.2854(5) 0.2351(3)
O6_2 O 0.7147(5) 0.1590(5) 0.2353(3)
C1_6 C 1.000000 0.500000 0.0407(3)
C2_2 C 0.8220(4) 0.1778(4) 0.1381(2)
C3_2 C 0.7924(6) 0.2074(6) 0.2083(4)
Er2_2 Er 0.65280(2) 0.00001(2) 0.18412(2)
O10_2 O 0.6078(2) 0.0000(2) 0.30289(14)
H2_2 H 0.667(2) 0.000(4) 0.324(3)
Er5_3 Er 0.99999(2) 0.65280(2) 0.18412(2)
O25_3 O 1.0000(2) 0.6078(2) 0.30289(14)
O26_3 O 0.5000(2) 0.1078(2) 0.19711(14)
O28_3 O 0.8922(2) 0.5000(2) 0.19711(14)
C4_6 C 1.000000 0.500000 0.9593(3)
Er2_3 Er 0.65280(2) 1.00001(2) 0.18412(2)
O10_3 O 0.6078(2) 1.0000(2) 0.30289(14)
H2_3 H 0.667(2) 1.000(4) 0.324(3)
O11_2 O 0.7782(6) 0.9053(6) 0.1087(4)
O12_2 O 0.9050(6) 0.7782(6) 0.1086(4)
O13_2 O 0.7146(5) 0.8411(5) 0.2351(3)
O14_2 O 0.8410(5) 0.7147(5) 0.2353(3)
C5_2 C 0.8222(4) 0.8220(4) 0.1381(2)
C6_2 C 0.7926(6) 0.7924(6) 0.2083(4)
H3_4 H 1.000(4) 0.667(2) 0.324(3)
O29_3 O 0.5000(2) 0.8922(2) 0.19711(14)
O31_2 O 0.5891(2) 0.9999(3) 0.06959(15)
O15_2 O 0.3922(2) 0.0000(2) 0.30289(14)
H3_5 H 0.333(2) 0.000(4) 0.324(3)
O16_4 O 0.2218(6) 0.0947(6) 0.1087(4)
O18_4 O 0.2854(5) 0.1589(5) 0.2351(3)
C7_4 C 0.1778(4) 0.1780(4) 0.1381(2)
C8_4 C 0.2074(6) 0.2076(6) 0.2083(4)
O32_2 O 0.4109(2) 0.0001(3) 0.06959(15)
O15_3 O 0.3922(2) 1.0000(2) 0.30289(14)
H3_6 H 0.333(2) 1.000(4) 0.324(3)
C1_7 C 0.500000 0.000000 0.0407(3)
H4_10 H 0.500(4) 0.167(2) 0.176(3)
O21_6 O 0.5947(6) 0.2782(6) 0.3913(4)
O22_5 O 0.7218(6) 0.4050(6) 0.3914(4)
O23_6 O 0.6589(5) 0.2146(5) 0.2649(3)
O24_5 O 0.7853(5) 0.3410(5) 0.2647(3)
C9_6 C 0.6780(4) 0.3222(4) 0.3619(2)
C10_6 C 0.7076(6) 0.2926(6) 0.2917(4)
C4_7 C 0.500000 0.000000 0.9593(3)
C1_8 C 0.500000 1.000000 0.0407(3)
C4_8 C 0.500000 1.000000 0.9593(3)
H4_11 H 0.833(2) 0.500(4) 0.176(3)
O21_7 O 0.7218(6) 0.5947(6) 0.3913(4)
O22_6 O 0.5950(6) 0.7218(6) 0.3914(4)
O23_7 O 0.7854(5) 0.6589(5) 0.2649(3)
O24_6 O 0.6590(5) 0.7853(5) 0.2647(3)
C9_7 C 0.6778(4) 0.6780(4) 0.3619(2)
C10_7 C 0.7074(6) 0.7076(6) 0.2917(4)
H4_12 H 0.500(4) 0.833(2) 0.176(3)
O21_8 O 0.4053(6) 0.7218(6) 0.3913(4)
O23_8 O 0.3411(5) 0.7854(5) 0.2649(3)
C9_8 C 0.3220(4) 0.6778(4) 0.3619(2)
C10_8 C 0.2924(6) 0.7074(6) 0.2917(4)
loop_
_geom_bond_atom_site_label_1
_geom_bond_atom_site_label_2
_geom_bond_site_symmetry_1
_geom_bond_site_symmetry_2
O7 C1 1_555 1_555
O8 C4 1_555 1_555
C4 C1 1_555 1_555
H4 O20 1_555 1_555
Er5 O7 1_555 1_555
Er7 O8 1_555 1_555
O25 Er4 1_555 1_555
O35 Er4 1_555 1_555
O37 Er4 1_555 1_555
Er4 O20 1_555 1_555
O20 Er5 1_555 1_555
Er5 O25 1_555 1_555
Er5 O28 1_555 1_555
Er12 O25 1_555 1_555
Er12 O28 1_555 1_555
Er1 O1 1_555 1_555
O1 H1 1_555 1_555
O2 Er1 1_555 1_555
O3 Er1 1_555 1_555
O4 C2 1_555 1_555
O5 Er1 1_555 1_555
O6 C3 1_555 1_555
C1_2 O2 1_555 1_555
C2 O3 1_555 1_555
C3 O5 1_555 1_555
C4_2 C1_2 1_555 1_555
O9 C4_2 1_555 1_555
Er2 O4 1_555 1_555
O10 Er2 1_555 1_555
H2 O10 1_555 1_555
O11 Er2 1_555 1_555
O12 C5 1_555 1_555
O13 Er2 1_555 1_555
O14 C6 1_555 1_555
C5 O11 1_555 1_555
C6 O13 1_555 1_555
Er5 O12 1_555 1_555
H3 O25 1_555 1_555
O16 Er5 1_555 1_555
O17 C7 1_555 1_555
O18 Er5 1_555 1_555
O19 C8 1_555 1_555
C7 O16 1_555 1_555
C8 O18 1_555 1_555
Er4_2 O1 1_555 1_555
O20_2 Er1 1_555 1_555
H4_2 O20_2 1_555 1_555
O21 Er4_2 1_555 1_555
O22 C9 1_555 1_555
O23 Er4_2 1_555 1_555
O24 C10 1_555 1_555
C9 O21 1_555 1_555
C10 O23 1_555 1_555
Er6 O17 1_555 1_555
Er8 O9 1_555 1_555
Er10 O10 1_555 1_555
Er10_2 O22 1_555 1_555
Er12_2 O1 1_555 1_555
Er13 O10 1_555 1_555
O26 Er2 1_555 1_555
O28_2 Er1 1_555 1_555
O29 Er2 1_555 1_555
O31 Er2 1_555 1_555
O33 Er4_2 1_555 1_555
O34 Er1 1_555 1_555
O36 Er1 1_555 1_555
O6 Er2 1_555 1_555
C2 C3 1_555 1_555
O14 Er5 1_555 1_555
C5 C6 1_555 1_555
O19 Er6 1_555 1_555
C7 C8 1_555 1_555
Er4_2 O20_2 1_555 1_555
O24 Er10_2 1_555 1_555
C9 C10 1_555 1_555
Er10 O26 1_555 1_555
Er12_2 O28_2 1_555 1_555
Er13 O29 1_555 1_555
Er10_2 O26_2 1_555 1_555
Er13_2 O29_2 1_555 1_555
C1_3 O31 1_555 1_555
C4_3 C1_3 1_555 1_555
O9_2 C4_3 1_555 1_555
O15 Er6 1_555 1_555
H3_2 O15 1_555 1_555
O16_2 Er6 1_555 1_555
O34 C7_2 1_555 1_555
O18_2 Er6 1_555 1_555
O36 C8_2 1_555 1_555
C7_2 O16_2 1_555 1_555
C8_2 O18_2 1_555 1_555
H4_3 O26 1_555 1_555
O21_2 Er10 1_555 1_555
O22_2 C9_2 1_555 1_555
O23_2 Er10 1_555 1_555
O24_2 C10_2 1_555 1_555
C9_2 O21_2 1_555 1_555
C10_2 O23_2 1_555 1_555
Er8_2 O9_2 1_555 1_555
Er12_2 O22_2 1_555 1_555
Er13_2 O15 1_555 1_555
Er10_2 O15 1_555 1_555
O29_2 Er6 1_555 1_555
O26_2 Er6 1_555 1_555
O32 Er6 1_555 1_555
O33_2 Er10 1_555 1_555
C7_2 C8_2 1_555 1_555
O24_2 Er12_2 1_555 1_555
C9_2 C10_2 1_555 1_555
O32 C1_4 1_555 1_555
O8_2 C4_4 1_555 1_555
C4_4 C1_4 1_555 1_555
H4_4 O26_2 1_555 1_555
Er7_2 O8_2 1_555 1_555
H4_5 O28 1_555 1_555
O21_3 Er12 1_555 1_555
O22_3 C9_3 1_555 1_555
O23_3 Er12 1_555 1_555
O24_3 C10_3 1_555 1_555
C9_3 O21_3 1_555 1_555
C10_3 O23_3 1_555 1_555
Er13 O22_3 1_555 1_555
O33_3 Er12 1_555 1_555
O24_3 Er13 1_555 1_555
C9_3 C10_3 1_555 1_555
H4_6 O28_2 1_555 1_555
H4_7 O29 1_555 1_555
H4_8 O29_2 1_555 1_555
O21_4 Er13_2 1_555 1_555
O35 C9_4 1_555 1_555
O23_4 Er13_2 1_555 1_555
O37 C10_4 1_555 1_555
C9_4 O21_4 1_555 1_555
C10_4 O23_4 1_555 1_555
O33_4 Er13_2 1_555 1_555
C9_4 C10_4 1_555 1_555
Er1_2 O1_2 1_555 1_555
O1_2 H1_2 1_555 1_555
O7_2 C1_5 1_555 1_555
Er8_2 O1_2 1_555 1_555
O20_3 Er1_2 1_555 1_555
H4_9 O20_3 1_555 1_555
O21_5 Er8_2 1_555 1_555
O22_4 C9_5 1_555 1_555
O23_5 Er8_2 1_555 1_555
O24_4 C10_5 1_555 1_555
C9_5 O21_5 1_555 1_555
C10_5 O23_5 1_555 1_555
Er5_2 O7_2 1_555 1_555
Er7 O22_4 1_555 1_555
O25_2 Er8_2 1_555 1_555
O34_2 Er1_2 1_555 1_555
O35_2 Er8_2 1_555 1_555
O36_2 Er1_2 1_555 1_555
O37_2 Er8_2 1_555 1_555
Er8_2 O20_3 1_555 1_555
O20_3 Er5_2 1_555 1_555
O24_4 Er7 1_555 1_555
C9_5 C10_5 1_555 1_555
Er5_2 O25_2 1_555 1_555
O33_2 C4_5 1_555 1_555
H3_3 O25_2 1_555 1_555
O16_3 Er5_2 1_555 1_555
O17_2 C7_3 1_555 1_555
O18_3 Er5_2 1_555 1_555
O19_2 C8_3 1_555 1_555
C7_3 O16_3 1_555 1_555
C8_3 O18_3 1_555 1_555
Er6_3 O17_2 1_555 1_555
O19_2 Er6_3 1_555 1_555
C7_3 C8_3 1_555 1_555
Er1_3 O1_3 1_555 1_555
O1_3 H1_3 1_555 1_555
O2_2 Er1_3 1_555 1_555
O3_2 Er1_3 1_555 1_555
O4_2 C2_2 1_555 1_555
O5_2 Er1_3 1_555 1_555
O6_2 C3_2 1_555 1_555
C1_6 O2_2 1_555 1_555
C2_2 O3_2 1_555 1_555
C3_2 O5_2 1_555 1_555
Er2_2 O4_2 1_555 1_555
O10_2 Er2_2 1_555 1_555
H2_2 O10_2 1_555 1_555
Er7 O10_2 1_555 1_555
Er7_2 O1_3 1_555 1_555
O26_3 Er2_2 1_555 1_555
O28_3 Er1_3 1_555 1_555
O6_2 Er2_2 1_555 1_555
C2_2 C3_2 1_555 1_555
Er5_3 O25_3 1_555 1_555
Er5_3 O28_3 1_555 1_555
Er7 O26_3 1_555 1_555
Er7_2 O25_3 1_555 1_555
Er7_2 O28_3 1_555 1_555
O33_4 C4_6 1_555 1_555
O10_3 Er2_3 1_555 1_555
H2_3 O10_3 1_555 1_555
O11_2 Er2_3 1_555 1_555
O12_2 C5_2 1_555 1_555
O13_2 Er2_3 1_555 1_555
O14_2 C6_2 1_555 1_555
C5_2 O11_2 1_555 1_555
C6_2 O13_2 1_555 1_555
Er5_3 O12_2 1_555 1_555
H3_4 O25_3 1_555 1_555
Er8 O10_3 1_555 1_555
O29_3 Er2_3 1_555 1_555
O31_2 Er2_3 1_555 1_555
O14_2 Er5_3 1_555 1_555
C5_2 C6_2 1_555 1_555
Er8 O29_3 1_555 1_555
O15_2 Er6_2 1_555 1_555
H3_5 O15_2 1_555 1_555
O16_4 Er6_2 1_555 1_555
O34_2 C7_4 1_555 1_555
O18_4 Er6_2 1_555 1_555
O36_2 C8_4 1_555 1_555
C7_4 O16_4 1_555 1_555
C8_4 O18_4 1_555 1_555
Er7 O15_2 1_555 1_555
O26_3 Er6_2 1_555 1_555
O32_2 Er6_2 1_555 1_555
C7_4 C8_4 1_555 1_555
O15_3 Er6_3 1_555 1_555
H3_6 O15_3 1_555 1_555
Er8 O15_3 1_555 1_555
O29_3 Er6_3 1_555 1_555
O32_2 C1_7 1_555 1_555
H4_10 O26_3 1_555 1_555
O21_6 Er7 1_555 1_555
O22_5 C9_6 1_555 1_555
O23_6 Er7 1_555 1_555
O24_5 C10_6 1_555 1_555
C9_6 O21_6 1_555 1_555
C10_6 O23_6 1_555 1_555
Er7_2 O22_5 1_555 1_555
O24_5 Er7_2 1_555 1_555
C9_6 C10_6 1_555 1_555
O33_3 C4_7 1_555 1_555
C1_8 O31_2 1_555 1_555
O33 C4_8 1_555 1_555
H4_11 O28_3 1_555 1_555
O21_7 Er7_2 1_555 1_555
O22_6 C9_7 1_555 1_555
O23_7 Er7_2 1_555 1_555
O24_6 C10_7 1_555 1_555
C9_7 O21_7 1_555 1_555
C10_7 O23_7 1_555 1_555
Er8 O22_6 1_555 1_555
O24_6 Er8 1_555 1_555
C9_7 C10_7 1_555 1_555
H4_12 O29_3 1_555 1_555
O21_8 Er8 1_555 1_555
O35_2 C9_8 1_555 1_555
O23_8 Er8 1_555 1_555
O37_2 C10_8 1_555 1_555
C9_8 O21_8 1_555 1_555
C10_8 O23_8 1_555 1_555
C9_8 C10_8 1_555 1_555

#END
