
###############################################################################
#
# This file contains modified crystal structure data generated from the
# MOF subset of the Cambridge Structural Database (CSD) v543 
# hosted by the Cambridge Crystallographic Data Centre (CCDC).
#
# This work is licensed under the Creative Commons
# Attribution-NonCommercial-ShareAlike 4.0 International License.
# To view a copy of this license, visit
# http://creativecommons.org/licenses/by-nc-sa/4.0/
# or send a letter to
# Creative Commons, PO Box 1866, Mountain View, CA 94042, USA.
#
# CIF created using the CSD Python API on 29 September 2022
# The structure has been converted into the P1 space group
# The structure has a 3D framework
# The original CSD entry KUXSIH02 is in the hexagonal crystal system
# The framework has been calculated to contain at least 10.0% void space
# The void calculation uses a probe of radius 1.32A, grid spacing 0.4
#
###############################################################################

data_KUXSIH02
_chemical_formula_moiety         '(C84 H48 Fe6 N12 O25)n'
_symmetry_cell_setting           triclinic
_symmetry_space_group_name_H-M   'P 1'
_symmetry_Int_Tables_number      1
_space_group_name_Hall           'P 1'
loop_
_symmetry_equiv_pos_site_id
_symmetry_equiv_pos_as_xyz
1 x,y,z
_cell_length_a                   16.745(3)
_cell_length_b                   16.745(3)
_cell_length_c                   15.088(3)
_cell_angle_alpha                90
_cell_angle_beta                 90
_cell_angle_gamma                120
_cell_volume                     3663.81
loop_
_atom_site_label
_atom_site_type_symbol
_atom_site_fract_x
_atom_site_fract_y
_atom_site_fract_z
Fe1 Fe 0.26824(2) 0.53647(4) 0.7500
N1 N 0.19164(13) 0.3833(3) 0.7500
N2 N 0.0943(3) 0.04717(16) 0.7500
O1 O 0.34628(10) 0.52104(10) 0.65568(11)
O2 O 0.3333 0.6667 0.7500
C1 C 0.42679(10) 0.57321(10) 0.62948(18)
C2 C 0.46461(11) 0.53539(11) 0.5617(2)
C3 C 0.41217(18) 0.44738(18) 0.5306(2)
H1 H 0.3521 0.4109 0.5510
C4 C 0.2356(3) 0.3347(3) 0.7500
H2 H 0.2997 0.3667 0.7500
C5 C 0.1906(3) 0.2398(3) 0.7500
H3 H 0.2237 0.2089 0.7500
C6 C 0.09576(19) 0.1915(4) 0.7500
C7 C 0.04455(19) 0.0891(4) 0.7500
C16 C 0.0991(4) 0.3347(3) 0.7500
H8 H 0.0670 0.3667 0.7500
C17 C 0.0492(4) 0.2398(3) 0.7500
H11 H 0.2237 0.0148 0.7500
O3 O 0.52104(10) 0.34628(10) 0.34432(11)
C22 C 0.57321(10) 0.42679(10) 0.37052(18)
C23 C 0.53539(11) 0.46461(11) 0.4383(2)
C24 C 0.44738(18) 0.41217(18) 0.4694(2)
H14 H 0.4109 0.3521 0.4490
O4 O 0.65372(10) 0.47896(10) 0.34432(11)
C25 C 0.58783(18) 0.55262(18) 0.4694(2)
H15 H 0.6479 0.5891 0.4490
O5 O 0.47896(10) 0.65372(10) 0.65568(11)
C26 C 0.55262(18) 0.58783(18) 0.5306(2)
H16 H 0.5891 0.6479 0.5510
Fe5 Fe 0.46353(4) 0.73177(4) 0.7500
Fe7 Fe 0.26823(4) 0.73176(2) 0.7500
Fe9 Fe 0.73176(2) 0.46353(4) 0.2500
Fe11 Fe 0.53647(4) 0.26823(4) 0.2500
O15 O 0.17476(14) 0.52104(10) 0.84432(11)
O17 O 0.34628(10) 0.52104(10) 0.84432(11)
O21 O 0.17476(14) 0.52104(10) 0.65568(11)
N5 N 0.19166(33) 0.80836(13) 0.7500
C12 C 0.0991(4) 0.7644(3) 0.7500
H6 H 0.0670 0.7003 0.7500
C13 C 0.0492(4) 0.8094(3) 0.7500
C14 C 0.09574(44) 0.90424(19) 0.7500
C15 C 0.04455(44) 0.95545(19) 0.7500
C18 C 0.2356(3) 0.9009(4) 0.7500
H10 H 0.2997 0.9330 0.7500
C19 C 0.1906(3) 0.9508(4) 0.7500
O10 O 0.17476(14) 0.65372(10) 0.65568(11)
C35 C 0.14642(14) 0.57321(10) 0.62948(18)
C36 C 0.07078(16) 0.53539(11) 0.5617(2)
C37 C 0.03521(25) 0.58783(18) 0.5306(2)
H21 H 0.0588 0.6479 0.5510
C42 C 0.03521(25) 0.44738(18) 0.5306(2)
H24 H 0.0588 0.4109 0.5510
O16 O 0.34628(10) 0.82524(14) 0.84432(11)
O19 O 0.17476(14) 0.65372(10) 0.84432(11)
O22 O 0.34628(10) 0.82524(14) 0.65568(11)
N4 N 0.95283(16) 0.04713(34) 0.7500
H5 H 0.7911 0.0148 0.7500
H9 H 0.9852 0.2089 0.7500
O7 O 0.65372(10) 0.17476(14) 0.34432(11)
C30 C 0.57321(10) 0.14642(14) 0.37052(18)
C31 C 0.53539(11) 0.07078(16) 0.4383(2)
C32 C 0.58783(18) 0.03521(25) 0.4694(2)
H18 H 0.6479 0.0588 0.4490
O8 O 0.52104(10) 0.17476(14) 0.34432(11)
C33 C 0.44738(18) 0.03521(25) 0.4694(2)
H19 H 0.4109 0.0588 0.4490
Fe13 Fe 0.73177(4) 0.26824(2) 0.2500
N3 N 0.6167(3) 0.80834(33) 0.7500
C8 C 0.6653(3) 0.9009(4) 0.7500
H4 H 0.6333 0.9330 0.7500
C9 C 0.7602(3) 0.9508(4) 0.7500
C10 C 0.8085(4) 0.90426(44) 0.7500
C11 C 0.9109(4) 0.95545(44) 0.7500
N6 N 0.95287(34) 0.9057(3) 0.7500
H7 H 0.9852 0.7763 0.7500
C20 C 0.6653(3) 0.7644(3) 0.7500
H12 H 0.6333 0.7003 0.7500
C21 C 0.7602(3) 0.8094(3) 0.7500
H13 H 0.7911 0.7763 0.7500
O6 O 0.47896(10) 0.82524(14) 0.65568(11)
C27 C 0.42679(10) 0.85358(14) 0.62948(18)
C28 C 0.46461(11) 0.92922(16) 0.5617(2)
C29 C 0.55262(18) 0.96479(25) 0.5306(2)
H17 H 0.5891 0.9412 0.5510
C34 C 0.41217(18) 0.96479(25) 0.5306(2)
H20 H 0.3521 0.9412 0.5510
O11 O 0.82524(14) 0.47896(10) 0.34432(11)
C38 C 0.85358(14) 0.42679(10) 0.37052(18)
C39 C 0.92922(16) 0.46461(11) 0.4383(2)
C40 C 0.96479(25) 0.55262(18) 0.4694(2)
H22 H 0.9412 0.5891 0.4490
O12 O 0.82524(14) 0.34628(10) 0.34432(11)
C41 C 0.96479(25) 0.41217(18) 0.4694(2)
H23 H 0.9412 0.3521 0.4490
O14 O 0.47896(10) 0.65372(10) 0.84432(11)
O18 O 0.47896(10) 0.82524(14) 0.84432(11)
N3_2 N 0.3833(3) 0.19166(33) 0.2500
C8_2 C 0.3347(3) 0.0991(4) 0.2500
H4_2 H 0.3667 0.0670 0.2500
C9_2 C 0.2398(3) 0.0492(4) 0.2500
C10_2 C 0.1915(4) 0.09574(44) 0.2500
C11_2 C 0.0891(4) 0.04455(44) 0.2500
N6_2 N 0.04713(34) 0.0943(3) 0.2500
H7_2 H 0.0148 0.2237 0.2500
C20_2 C 0.3347(3) 0.2356(3) 0.2500
H12_2 H 0.3667 0.2997 0.2500
C21_2 C 0.2398(3) 0.1906(3) 0.2500
H13_2 H 0.2089 0.2237 0.2500
O6_2 O 0.52104(10) 0.17476(14) 0.15568(11)
C27_2 C 0.57321(10) 0.14642(14) 0.12948(18)
C28_2 C 0.53539(11) 0.07078(16) 0.0617(2)
C29_2 C 0.44738(18) 0.03521(25) 0.0306(2)
H17_2 H 0.4109 0.0588 0.0510
O9 O 0.65372(10) 0.17476(14) 0.15568(11)
C34_2 C 0.58783(18) 0.03521(25) 0.0306(2)
H20_2 H 0.6479 0.0588 0.0510
O20 O 0.52104(10) 0.34628(10) 0.15568(11)
O23 O 0.6667 0.3333 0.2500
C38_2 C 0.14642(14) 0.57321(10) 0.87052(18)
C39_2 C 0.07078(16) 0.53539(11) 0.9383(2)
C40_2 C 0.03521(25) 0.44738(18) 0.9694(2)
H22_2 H 0.0588 0.4109 0.9490
C41_2 C 0.03521(25) 0.58783(18) 0.9694(2)
H23_2 H 0.0588 0.6479 0.9490
N4_2 N 0.04717(16) 0.95287(34) 0.2500
H5_2 H 0.2089 0.9852 0.2500
H9_2 H 0.0148 0.7911 0.2500
C30_2 C 0.42679(10) 0.85358(14) 0.87052(18)
C31_2 C 0.46461(11) 0.92922(16) 0.9383(2)
C32_2 C 0.41217(18) 0.96479(25) 0.9694(2)
H18_2 H 0.3521 0.9412 0.9490
C33_2 C 0.55262(18) 0.96479(25) 0.9694(2)
H19_2 H 0.5891 0.9412 0.9490
N5_2 N 0.80834(33) 0.19164(13) 0.2500
C12_2 C 0.9009(4) 0.2356(3) 0.2500
H6_2 H 0.9330 0.2997 0.2500
C13_2 C 0.9508(4) 0.1906(3) 0.2500
C14_2 C 0.90426(44) 0.09576(19) 0.2500
C15_2 C 0.95545(44) 0.04455(19) 0.2500
C18_2 C 0.7644(3) 0.0991(4) 0.2500
H10_2 H 0.7003 0.0670 0.2500
C19_2 C 0.8094(3) 0.0492(4) 0.2500
O10_2 O 0.82524(14) 0.34628(10) 0.15568(11)
C35_2 C 0.85358(14) 0.42679(10) 0.12948(18)
C36_2 C 0.92922(16) 0.46461(11) 0.0617(2)
C37_2 C 0.96479(25) 0.41217(18) 0.0306(2)
H21_2 H 0.9412 0.3521 0.0510
O13 O 0.82524(14) 0.47896(10) 0.15568(11)
C42_2 C 0.96479(25) 0.55262(18) 0.0306(2)
H24_2 H 0.9412 0.5891 0.0510
N1_2 N 0.80836(13) 0.6167(3) 0.2500
N2_2 N 0.9057(3) 0.95283(16) 0.2500
O1_2 O 0.65372(10) 0.47896(10) 0.15568(11)
C1_2 C 0.57321(10) 0.42679(10) 0.12948(18)
C2_2 C 0.53539(11) 0.46461(11) 0.0617(2)
C3_2 C 0.58783(18) 0.55262(18) 0.0306(2)
H1_2 H 0.6479 0.5891 0.0510
C4_2 C 0.7644(3) 0.6653(3) 0.2500
H2_2 H 0.7003 0.6333 0.2500
C5_2 C 0.8094(3) 0.7602(3) 0.2500
H3_2 H 0.7763 0.7911 0.2500
C6_2 C 0.90424(19) 0.8085(4) 0.2500
C7_2 C 0.95545(19) 0.9109(4) 0.2500
C16_2 C 0.9009(4) 0.6653(3) 0.2500
H8_2 H 0.9330 0.6333 0.2500
C17_2 C 0.9508(4) 0.7602(3) 0.2500
H11_2 H 0.7763 0.9852 0.2500
C26_2 C 0.44738(18) 0.41217(18) 0.0306(2)
H16_2 H 0.4109 0.3521 0.0510
C22_2 C 0.42679(10) 0.57321(10) 0.87052(18)
C23_2 C 0.46461(11) 0.53539(11) 0.9383(2)
C24_2 C 0.55262(18) 0.58783(18) 0.9694(2)
H14_2 H 0.5891 0.6479 0.9490
C25_2 C 0.41217(18) 0.44738(18) 0.9694(2)
H15_2 H 0.3521 0.4109 0.9490
loop_
_geom_bond_atom_site_label_1
_geom_bond_atom_site_label_2
_geom_bond_site_symmetry_1
_geom_bond_site_symmetry_2
Fe1 N1 1_555 1_555
N1 C4 1_555 1_555
N2 C7 1_555 1_555
O1 Fe1 1_555 1_555
O2 Fe1 1_555 1_555
C1 O1 1_555 1_555
C2 C1 1_555 1_555
C3 C2 1_555 1_555
H1 C3 1_555 1_555
C4 H2 1_555 1_555
C5 C4 1_555 1_555
H3 C5 1_555 1_555
C6 C5 1_555 1_555
C7 C6 1_555 1_555
C16 N1 1_555 1_555
H8 C16 1_555 1_555
C17 C6 1_555 1_555
O3 C22 1_555 1_555
C22 C23 1_555 1_555
C23 C24 1_555 1_555
C24 C3 1_555 1_555
H14 C24 1_555 1_555
O4 C22 1_555 1_555
C25 C23 1_555 1_555
H15 C25 1_555 1_555
O5 C1 1_555 1_555
C26 C2 1_555 1_555
H16 C26 1_555 1_555
Fe5 O2 1_555 1_555
Fe7 O2 1_555 1_555
Fe9 O4 1_555 1_555
Fe11 O3 1_555 1_555
O15 Fe1 1_555 1_555
O17 Fe1 1_555 1_555
O21 Fe1 1_555 1_555
C16 C17 1_555 1_555
C25 C26 1_555 1_555
O5 Fe5 1_555 1_555
N5 C12 1_555 1_555
C12 H6 1_555 1_555
C13 C12 1_555 1_555
C14 C13 1_555 1_555
C18 N5 1_555 1_555
H10 C18 1_555 1_555
C19 C14 1_555 1_555
Fe7 N5 1_555 1_555
O10 Fe7 1_555 1_555
C35 O10 1_555 1_555
C36 C35 1_555 1_555
C37 C36 1_555 1_555
H21 C37 1_555 1_555
O21 C35 1_555 1_555
C42 C36 1_555 1_555
H24 C42 1_555 1_555
O16 Fe7 1_555 1_555
O19 Fe7 1_555 1_555
O22 Fe7 1_555 1_555
C14 C15 1_555 1_555
C18 C19 1_555 1_555
O7 C30 1_555 1_555
C30 C31 1_555 1_555
C31 C32 1_555 1_555
H18 C32 1_555 1_555
O8 C30 1_555 1_555
C33 C31 1_555 1_555
H19 C33 1_555 1_555
Fe11 O8 1_555 1_555
Fe13 O7 1_555 1_555
N3 C8 1_555 1_555
C8 H4 1_555 1_555
C9 C8 1_555 1_555
C10 C9 1_555 1_555
N6 C11 1_555 1_555
C20 N3 1_555 1_555
H12 C20 1_555 1_555
C21 C10 1_555 1_555
H13 C21 1_555 1_555
Fe5 N3 1_555 1_555
O6 Fe5 1_555 1_555
C27 O6 1_555 1_555
C28 C27 1_555 1_555
C29 C28 1_555 1_555
H17 C29 1_555 1_555
O22 C27 1_555 1_555
C34 C28 1_555 1_555
H20 C34 1_555 1_555
O11 C38 1_555 1_555
C38 C39 1_555 1_555
C39 C40 1_555 1_555
H22 C40 1_555 1_555
O12 C38 1_555 1_555
C41 C39 1_555 1_555
H23 C41 1_555 1_555
Fe9 O11 1_555 1_555
Fe13 O12 1_555 1_555
O14 Fe5 1_555 1_555
O18 Fe5 1_555 1_555
C10 C11 1_555 1_555
C20 C21 1_555 1_555
N3_2 C8_2 1_555 1_555
C8_2 H4_2 1_555 1_555
C9_2 C8_2 1_555 1_555
C10_2 C9_2 1_555 1_555
N6_2 C11_2 1_555 1_555
C20_2 N3_2 1_555 1_555
H12_2 C20_2 1_555 1_555
C21_2 C10_2 1_555 1_555
H13_2 C21_2 1_555 1_555
Fe11 N3_2 1_555 1_555
O6_2 Fe11 1_555 1_555
C27_2 O6_2 1_555 1_555
C28_2 C27_2 1_555 1_555
C29_2 C28_2 1_555 1_555
H17_2 C29_2 1_555 1_555
O9 C27_2 1_555 1_555
C34_2 C28_2 1_555 1_555
H20_2 C34_2 1_555 1_555
Fe13 O9 1_555 1_555
O20 Fe11 1_555 1_555
O23 Fe11 1_555 1_555
C10_2 C11_2 1_555 1_555
C20_2 C21_2 1_555 1_555
Fe13 O23 1_555 1_555
O15 C38_2 1_555 1_555
C38_2 C39_2 1_555 1_555
C39_2 C40_2 1_555 1_555
H22_2 C40_2 1_555 1_555
O19 C38_2 1_555 1_555
C41_2 C39_2 1_555 1_555
H23_2 C41_2 1_555 1_555
O16 C30_2 1_555 1_555
C30_2 C31_2 1_555 1_555
C31_2 C32_2 1_555 1_555
H18_2 C32_2 1_555 1_555
O18 C30_2 1_555 1_555
C33_2 C31_2 1_555 1_555
H19_2 C33_2 1_555 1_555
N5_2 C12_2 1_555 1_555
C12_2 H6_2 1_555 1_555
C13_2 C12_2 1_555 1_555
C14_2 C13_2 1_555 1_555
C18_2 N5_2 1_555 1_555
H10_2 C18_2 1_555 1_555
C19_2 C14_2 1_555 1_555
Fe13 N5_2 1_555 1_555
O10_2 Fe13 1_555 1_555
C35_2 O10_2 1_555 1_555
C36_2 C35_2 1_555 1_555
C37_2 C36_2 1_555 1_555
H21_2 C37_2 1_555 1_555
O13 C35_2 1_555 1_555
C42_2 C36_2 1_555 1_555
H24_2 C42_2 1_555 1_555
Fe9 O13 1_555 1_555
C14_2 C15_2 1_555 1_555
C18_2 C19_2 1_555 1_555
Fe9 O23 1_555 1_555
Fe9 N1_2 1_555 1_555
N1_2 C4_2 1_555 1_555
N2_2 C7_2 1_555 1_555
O1_2 Fe9 1_555 1_555
C1_2 O1_2 1_555 1_555
C2_2 C1_2 1_555 1_555
C3_2 C2_2 1_555 1_555
H1_2 C3_2 1_555 1_555
C4_2 H2_2 1_555 1_555
C5_2 C4_2 1_555 1_555
H3_2 C5_2 1_555 1_555
C6_2 C5_2 1_555 1_555
C7_2 C6_2 1_555 1_555
C16_2 N1_2 1_555 1_555
H8_2 C16_2 1_555 1_555
C17_2 C6_2 1_555 1_555
O20 C1_2 1_555 1_555
C26_2 C2_2 1_555 1_555
H16_2 C26_2 1_555 1_555
C16_2 C17_2 1_555 1_555
O14 C22_2 1_555 1_555
C22_2 C23_2 1_555 1_555
C23_2 C24_2 1_555 1_555
H14_2 C24_2 1_555 1_555
O17 C22_2 1_555 1_555
C25_2 C23_2 1_555 1_555
H15_2 C25_2 1_555 1_555

#END
