
###############################################################################
#
# This file contains modified crystal structure data generated from the
# MOF subset of the Cambridge Structural Database (CSD) v543 
# hosted by the Cambridge Crystallographic Data Centre (CCDC).
#
# This work is licensed under the Creative Commons
# Attribution-NonCommercial-ShareAlike 4.0 International License.
# To view a copy of this license, visit
# http://creativecommons.org/licenses/by-nc-sa/4.0/
# or send a letter to
# Creative Commons, PO Box 1866, Mountain View, CA 94042, USA.
#
# CIF created using the CSD Python API on 29 September 2022
# The structure has been converted into the P1 space group
# The structure has a 3D framework
# The original CSD entry KUXTUT is in the monoclinic crystal system
# The framework has been calculated to contain at least 10.0% void space
# The void calculation uses a probe of radius 1.32A, grid spacing 0.4
#
###############################################################################

data_KUXTUT
_chemical_formula_moiety         '(C62 H48 Cu7 N16 O14)n'
_symmetry_cell_setting           triclinic
_symmetry_space_group_name_H-M   'P 1'
_symmetry_Int_Tables_number      1
_space_group_name_Hall           'P 1'
loop_
_symmetry_equiv_pos_site_id
_symmetry_equiv_pos_as_xyz
1 x,y,z
_cell_length_a                   21.4622(8)
_cell_length_b                   4.9469(2)
_cell_length_c                   15.6955(4)
_cell_angle_alpha                90
_cell_angle_beta                 102.591(1)
_cell_angle_gamma                90
_cell_volume                     1626.34
loop_
_atom_site_label
_atom_site_type_symbol
_atom_site_fract_x
_atom_site_fract_y
_atom_site_fract_z
Cu2 Cu 0.0000 0.5000 0.5000
Cu1 Cu 0.5000 0.0000 0.5000
O1 O 0.58478(5) 0.1627(2) 0.51957(7)
N1 N 0.46747(6) 0.2504(3) 0.40232(8)
N2 N 0.46984(7) 0.5656(3) 0.30486(9)
C1 C 0.41064(8) 0.2433(4) 0.34011(10)
H1 H 0.3762 0.1226 0.3403
C2 C 0.41191(8) 0.4351(4) 0.27914(11)
H2 H 0.3795 0.4726 0.2288
C3 C 0.50161(8) 0.4460(3) 0.37835(10)
H3 H 0.5432 0.4959 0.4090
C4 C 0.5000 0.7386(4) 0.2500
H4 H 0.5324 0.8557 0.2869
C5 C 0.72859(9) 0.0506(4) 0.43856(13)
C6 C 0.68740(7) 0.1588(3) 0.48694(10)
C7 C 0.70885(8) 0.3587(4) 0.54766(12)
H6 H 0.6806 0.4344 0.5802
C8 C 0.61966(8) 0.0560(4) 0.47157(11)
Cu2_2 Cu 1.0000 0.5000 0.5000
Cu3 Cu 0.5000 0.0000 0.0000
O3 O 0.91522(5) 0.3373(2) 0.48043(7)
O5 O 0.89871(6) 0.6189(3) 0.58388(8)
N3 N 0.53253(6) 0.2504(3) 0.09768(8)
N5 N 0.53016(7) 0.5656(3) 0.19514(9)
C9 C 0.58936(8) 0.2433(4) 0.15989(10)
H7 H 0.6238 0.1226 0.1597
C10 C 0.58809(8) 0.4351(4) 0.22086(11)
H8 H 0.6205 0.4726 0.2712
C11 C 0.49839(8) 0.4460(3) 0.12165(10)
H9 H 0.4568 0.4959 0.0910
H10 H 0.4676 0.8557 0.2131
C12 C 0.77141(9) 0.4494(4) 0.56144(13)
H11 H 0.7861 0.5853 0.6038
C13 C 0.81260(7) 0.3412(3) 0.51306(10)
C14 C 0.79115(8) 0.1413(4) 0.45234(12)
H12 H 0.8194 0.0656 0.4198
C15 C 0.88034(8) 0.4440(4) 0.52843(11)
Cu3_2 Cu 0.5000 0.0000 1.0000
Cu1_2 Cu 0.5000 1.0000 0.5000
O2 O 0.60129(6) 0.8811(3) 0.41612(8)
H5 H 0.7139 0.9147 0.3962
Cu3_3 Cu 0.5000 1.0000 0.0000
O4 O 0.41522(5) 0.8373(2) 0.48043(7)
N4 N 0.53253(6) 0.7496(3) 0.59768(8)
Cu3_4 Cu 0.5000 1.0000 1.0000
C5_2 C 0.27141(9) 0.0506(4) 0.06144(13)
C6_2 C 0.31260(7) 0.1588(3) 0.01306(10)
C8_2 C 0.38034(8) 0.0560(4) 0.02843(11)
Cu2_3 Cu -0.0000 0.5000 0.0000
O3_2 O 0.08478(5) 0.3373(2) 0.01957(7)
C14_2 C 0.20885(8) 0.1413(4) 0.04766(12)
H12_2 H 0.1806 0.0656 0.0802
O1_2 O 0.41522(5) 0.1627(2) 0.98043(7)
C7_2 C 0.29115(8) 0.3587(4) 0.95234(12)
H6_2 H 0.3194 0.4344 0.9198
Cu2_4 Cu 0.0000 0.5000 1.0000
O5_2 O 0.10129(6) 0.6189(3) 0.91612(8)
C12_2 C 0.22859(9) 0.4494(4) 0.93856(13)
H11_2 H 0.2139 0.5853 0.8962
C13_2 C 0.18740(7) 0.3412(3) 0.98694(10)
C15_2 C 0.11966(8) 0.4440(4) 0.97157(11)
O2_2 O 0.39871(6) 0.8811(3) 0.08388(8)
H5_2 H 0.2861 0.9147 0.1038
O4_2 O 0.58478(5) 0.8373(2) 0.01957(7)
N4_2 N 0.46747(6) 0.7496(3) 0.90232(8)
Cu2_5 Cu 1.0000 0.5000 0.0000
Cu2_6 Cu 1.0000 0.5000 1.0000
C4_2 C 0.0000 0.2386(4) 0.2500
H4_2 H 0.0324 0.3557 0.2869
O5_3 O 0.39871(6) 0.1189(3) 0.58388(8)
N5_2 N 0.03016(7) 0.0656(3) 0.19514(9)
H11_3 H 0.2861 0.0853 0.6038
O1_3 O 0.08478(5) 0.6627(2) 0.51957(7)
O2_3 O 0.10129(6) 0.3811(3) 0.41612(8)
C3_2 C 0.00161(8) 0.9460(3) 0.37835(10)
H3_2 H 0.0432 0.9959 0.4090
C5_3 C 0.22859(9) 0.5506(4) 0.43856(13)
H5_3 H 0.2139 0.4147 0.3962
C6_3 C 0.18740(7) 0.6588(3) 0.48694(10)
C7_3 C 0.20885(8) 0.8587(4) 0.54766(12)
H6_3 H 0.1806 0.9344 0.5802
C8_3 C 0.11966(8) 0.5560(4) 0.47157(11)
N3_2 N 0.03253(6) 0.7504(3) 0.09768(8)
N4_3 N 0.03253(6) 0.2496(3) 0.59768(8)
C9_2 C 0.08936(8) 0.7433(4) 0.15989(10)
H7_2 H 0.1238 0.6226 0.1597
C10_2 C 0.08809(8) 0.9351(4) 0.22086(11)
H8_2 H 0.1205 0.9726 0.2712
C12_3 C 0.27141(9) 0.9494(4) 0.56144(13)
C13_3 C 0.31260(7) 0.8412(3) 0.51306(10)
C14_3 C 0.29115(8) 0.6413(4) 0.45234(12)
H12_3 H 0.3194 0.5656 0.4198
C15_3 C 0.38034(8) 0.9440(4) 0.52843(11)
N2_2 N 0.96984(7) 0.0656(3) 0.30486(9)
C4_3 C 1.0000 0.2386(4) 0.2500
H10_2 H 0.9676 0.3557 0.2131
N1_2 N 0.96747(6) 0.7504(3) 0.40232(8)
C1_2 C 0.91064(8) 0.7433(4) 0.34011(10)
H1_2 H 0.8762 0.6226 0.3403
C2_2 C 0.91191(8) 0.9351(4) 0.27914(11)
H2_2 H 0.8795 0.9726 0.2288
C11_2 C 0.99839(8) 0.9460(3) 0.12165(10)
H9_2 H 0.9568 0.9959 0.0910
O5_4 O 0.60129(6) 0.1189(3) 0.91612(8)
H11_4 H 0.7139 0.0853 0.8962
O2_4 O 0.89871(6) 0.3811(3) 0.08388(8)
C5_4 C 0.77141(9) 0.5506(4) 0.06144(13)
H5_4 H 0.7861 0.4147 0.1038
C6_4 C 0.81260(7) 0.6588(3) 0.01306(10)
C8_4 C 0.88034(8) 0.5560(4) 0.02843(11)
C14_4 C 0.70885(8) 0.6413(4) 0.04766(12)
H12_4 H 0.6806 0.5656 0.0802
O1_4 O 0.91522(5) 0.6627(2) 0.98043(7)
C7_4 C 0.79115(8) 0.8587(4) 0.95234(12)
H6_4 H 0.8194 0.9344 0.9198
N4_4 N 0.96747(6) 0.2496(3) 0.90232(8)
C12_4 C 0.72859(9) 0.9494(4) 0.93856(13)
C13_4 C 0.68740(7) 0.8412(3) 0.98694(10)
C15_4 C 0.61966(8) 0.9440(4) 0.97157(11)
N2_3 N 0.53016(7) 0.4344(3) 0.69514(9)
C1_3 C 0.58936(8) 0.7567(4) 0.65989(10)
H1_3 H 0.6238 0.8774 0.6597
C2_3 C 0.58809(8) 0.5649(4) 0.72086(11)
H2_3 H 0.6205 0.5274 0.7712
C3_3 C 0.49839(8) 0.5540(3) 0.62165(10)
H3_3 H 0.4568 0.5041 0.5910
C4_4 C 0.5000 0.2614(4) 0.7500
H4_3 H 0.4676 0.1443 0.7131
N5_3 N 0.46984(7) 0.4344(3) 0.80486(9)
C9_3 C 0.41064(8) 0.7567(4) 0.84011(10)
H7_3 H 0.3762 0.8774 0.8403
C10_3 C 0.41191(8) 0.5649(4) 0.77914(11)
H8_3 H 0.3795 0.5274 0.7288
C11_3 C 0.50161(8) 0.5540(3) 0.87835(10)
H9_3 H 0.5432 0.5041 0.9090
H10_3 H 0.5324 0.1443 0.7869
C1_4 C 0.08936(8) 0.2567(4) 0.65989(10)
H1_4 H 0.1238 0.3774 0.6597
C2_4 C 0.08809(8) 0.0649(4) 0.72086(11)
H2_4 H 0.1205 0.0274 0.7712
C11_4 C 0.00161(8) 0.0540(3) 0.87835(10)
H9_4 H 0.0432 0.0041 0.9090
N2_4 N 0.03016(7) 0.9344(3) 0.69514(9)
C4_5 C 0.0000 0.7614(4) 0.7500
H10_4 H 0.0324 0.6443 0.7869
C3_4 C 0.99839(8) 0.0540(3) 0.62165(10)
H3_4 H 0.9568 0.0041 0.5910
C9_4 C 0.91064(8) 0.2567(4) 0.84011(10)
H7_4 H 0.8762 0.3774 0.8403
C10_4 C 0.91191(8) 0.0649(4) 0.77914(11)
H8_4 H 0.8795 0.0274 0.7288
C4_6 C 1.0000 0.7614(4) 0.7500
H4_4 H 0.9676 0.6443 0.7131
N5_4 N 0.96984(7) 0.9344(3) 0.80486(9)
loop_
_geom_bond_atom_site_label_1
_geom_bond_atom_site_label_2
_geom_bond_site_symmetry_1
_geom_bond_site_symmetry_2
Cu1 O1 1_555 1_555
O1 C8 1_555 1_555
N1 Cu1 1_555 1_555
N2 C2 1_555 1_555
C1 N1 1_555 1_555
H1 C1 1_555 1_555
C2 C1 1_555 1_555
H2 C2 1_555 1_555
C3 N1 1_555 1_555
H3 C3 1_555 1_555
C4 N2 1_555 1_555
H4 C4 1_555 1_555
C6 C5 1_555 1_555
C7 C6 1_555 1_555
H6 C7 1_555 1_555
C8 C6 1_555 1_555
Cu2_2 O3 1_555 1_555
Cu3 N3 1_555 1_555
O3 C15 1_555 1_555
O5 C15 1_555 1_555
N3 C9 1_555 1_555
N5 C4 1_555 1_555
C9 H7 1_555 1_555
C10 N5 1_555 1_555
H8 C10 1_555 1_555
C11 N3 1_555 1_555
H9 C11 1_555 1_555
H10 C4 1_555 1_555
C12 C7 1_555 1_555
H11 C12 1_555 1_555
C13 C12 1_555 1_555
C14 C5 1_555 1_555
H12 C14 1_555 1_555
C15 C13 1_555 1_555
N2 C3 1_555 1_555
N5 C11 1_555 1_555
C9 C10 1_555 1_555
C13 C14 1_555 1_555
O4 Cu1_2 1_555 1_555
N4 Cu1_2 1_555 1_555
C6_2 C5_2 1_555 1_555
C8_2 C6_2 1_555 1_555
Cu2_3 O3_2 1_555 1_555
C14_2 C5_2 1_555 1_555
H12_2 C14_2 1_555 1_555
Cu3_2 O1_2 1_555 1_555
H6_2 C7_2 1_555 1_555
O5_2 C15_2 1_555 1_555
C12_2 C7_2 1_555 1_555
H11_2 C12_2 1_555 1_555
C13_2 C12_2 1_555 1_555
C15_2 C13_2 1_555 1_555
O4_2 Cu3_3 1_555 1_555
N4_2 Cu3_4 1_555 1_555
H4_2 C4_2 1_555 1_555
N5_2 C4_2 1_555 1_555
Cu2 O1_3 1_555 1_555
O1_3 C8_3 1_555 1_555
O2_3 C8_3 1_555 1_555
H3_2 C3_2 1_555 1_555
C5_3 H5_3 1_555 1_555
C6_3 C5_3 1_555 1_555
C7_3 C6_3 1_555 1_555
H6_3 C7_3 1_555 1_555
C8_3 C6_3 1_555 1_555
Cu2_3 N3_2 1_555 1_555
O4 C15_3 1_555 1_555
N3_2 C9_2 1_555 1_555
N4_3 Cu2 1_555 1_555
C9_2 H7_2 1_555 1_555
H8_2 C10_2 1_555 1_555
C12_3 C7_3 1_555 1_555
C13_3 C12_3 1_555 1_555
C14_3 C5_3 1_555 1_555
H12_3 C14_3 1_555 1_555
C15_3 C13_3 1_555 1_555
C9_2 C10_2 1_555 1_555
C13_3 C14_3 1_555 1_555
C4_3 N2_2 1_555 1_555
H10_2 C4_3 1_555 1_555
N1_2 Cu2_2 1_555 1_555
C1_2 N1_2 1_555 1_555
H1_2 C1_2 1_555 1_555
C2_2 C1_2 1_555 1_555
H2_2 C2_2 1_555 1_555
H9_2 C11_2 1_555 1_555
O2_4 C8_4 1_555 1_555
C5_4 H5_4 1_555 1_555
C6_4 C5_4 1_555 1_555
C8_4 C6_4 1_555 1_555
C14_4 C5_4 1_555 1_555
H12_4 C14_4 1_555 1_555
Cu2_6 O1_4 1_555 1_555
H6_4 C7_4 1_555 1_555
N4_4 Cu2_6 1_555 1_555
C12_4 C7_4 1_555 1_555
C13_4 C12_4 1_555 1_555
C15_4 C13_4 1_555 1_555
N2_3 C2_3 1_555 1_555
C1_3 N4 1_555 1_555
H1_3 C1_3 1_555 1_555
C2_3 C1_3 1_555 1_555
H2_3 C2_3 1_555 1_555
C3_3 N4 1_555 1_555
H3_3 C3_3 1_555 1_555
C4_4 N2_3 1_555 1_555
H4_3 C4_4 1_555 1_555
N4_2 C9_3 1_555 1_555
N5_3 C4_4 1_555 1_555
C9_3 H7_3 1_555 1_555
C10_3 N5_3 1_555 1_555
H8_3 C10_3 1_555 1_555
C11_3 N4_2 1_555 1_555
H9_3 C11_3 1_555 1_555
H10_3 C4_4 1_555 1_555
N2_3 C3_3 1_555 1_555
N5_3 C11_3 1_555 1_555
C9_3 C10_3 1_555 1_555
C1_4 N4_3 1_555 1_555
H1_4 C1_4 1_555 1_555
C2_4 C1_4 1_555 1_555
H2_4 C2_4 1_555 1_555
H9_4 C11_4 1_555 1_555
C4_5 N2_4 1_555 1_555
H10_4 C4_5 1_555 1_555
H3_4 C3_4 1_555 1_555
N4_4 C9_4 1_555 1_555
C9_4 H7_4 1_555 1_555
H8_4 C10_4 1_555 1_555
C9_4 C10_4 1_555 1_555
H4_4 C4_6 1_555 1_555
N5_4 C4_6 1_555 1_555

#END
