
###############################################################################
#
# This file contains modified crystal structure data generated from the
# MOF subset of the Cambridge Structural Database (CSD) v543 
# hosted by the Cambridge Crystallographic Data Centre (CCDC).
#
# This work is licensed under the Creative Commons
# Attribution-NonCommercial-ShareAlike 4.0 International License.
# To view a copy of this license, visit
# http://creativecommons.org/licenses/by-nc-sa/4.0/
# or send a letter to
# Creative Commons, PO Box 1866, Mountain View, CA 94042, USA.
#
# CIF created using the CSD Python API on 29 September 2022
# The structure has been converted into the P1 space group
# The structure has a 3D framework
# The original CSD entry KUYGOC is in the monoclinic crystal system
# The original CSD entry KUYGOC is in a Sohncke space group
# The framework has been calculated to contain at least 10.0% void space
# The void calculation uses a probe of radius 1.32A, grid spacing 0.4
# H atom positions have been added when not included in the experimental data
# Generated hydrogen atom positions removed from atoms on special positions
#
###############################################################################

data_KUYGOC
_chemical_formula_moiety         '(C192 H136 Cd12 O48)n'
_symmetry_cell_setting           triclinic
_symmetry_space_group_name_H-M   'P 1'
_symmetry_Int_Tables_number      1
_space_group_name_Hall           'P 1'
loop_
_symmetry_equiv_pos_site_id
_symmetry_equiv_pos_as_xyz
1 x,y,z
_cell_length_a                   43.6263(18)
_cell_length_b                   13.2340(7)
_cell_length_c                   13.8249(7)
_cell_angle_alpha                90
_cell_angle_beta                 108.465(3)
_cell_angle_gamma                90
_cell_volume                     7570.89
loop_
_atom_site_label
_atom_site_type_symbol
_atom_site_fract_x
_atom_site_fract_y
_atom_site_fract_z
Cd3 Cd 0.0000 0.2074(3) 0.0000
O12 O 0.0332(5) 0.1077(15) 0.1163(15)
O23 O 0.0207(5) 0.3348(16) 0.1020(16)
Cd2 Cd -0.0000 0.1516(2) 0.5000
Cd3_2 Cd -0.0000 0.2074(3) 1.0000
Cd4 Cd 0.01652(3) 0.18234(15) 0.76570(11)
O13 O 0.0424(3) 0.1487(11) 0.6525(10)
O14 O 0.0625(3) 0.2681(11) 0.7618(15)
C50 C 0.2476(2) 0.0924(11) 0.5931(10)
C51 C 0.2451(3) 0.1024(13) 0.6905(9)
C52 C 0.2158(4) 0.1284(14) 0.7029(8)
H25 H 0.2141 0.1352 0.7695
C53 C 0.1888(3) 0.1446(13) 0.6180(10)
C54 C 0.1912(2) 0.1346(8) 0.5206(8)
C55 C 0.2206(2) 0.1085(7) 0.5081(8)
C56 C 0.2231(3) 0.0986(11) 0.4107(9)
H26 H 0.2432 0.0808 0.4022
C57 C 0.1961(4) 0.1147(12) 0.3258(8)
H27 H 0.1978 0.1079 0.2592
C58 C 0.1667(3) 0.1408(11) 0.3382(9)
C59 C 0.1643(2) 0.1507(11) 0.4356(10)
H28 H 0.1442 0.1685 0.4441
C60 C 0.1557(4) 0.1586(18) 0.6411(16)
C61 C 0.1297(5) 0.0958(15) 0.5943(14)
H29 H 0.1324 0.0405 0.5539
C62 C 0.0998(4) 0.1140(14) 0.6067(14)
H30 H 0.0820 0.0711 0.5748
C63 C 0.0959(3) 0.1949(14) 0.6659(14)
C64 C 0.1219(4) 0.2577(14) 0.7126(14)
H31 H 0.1193 0.3130 0.7530
C65 C 0.1519(4) 0.2395(17) 0.7002(16)
H32 H 0.1697 0.2824 0.7322
C66 C 0.0648(4) 0.2084(14) 0.6921(13)
C67 C 0.2798(2) 0.0684(12) 0.5694(12)
C71 C 0.3362(2) 0.0958(8) 0.5920(6)
C72 C 0.3057(2) 0.1339(9) 0.5832(8)
C73 C 0.3012(3) 0.2375(10) 0.5883(12)
H34 H 0.2804 0.2636 0.5823
C74 C 0.3272(4) 0.3030(8) 0.6021(11)
H35 H 0.3241 0.3738 0.6056
C75 C 0.3577(3) 0.2649(9) 0.6109(9)
C76 C 0.3622(2) 0.1612(9) 0.6058(8)
H36 H 0.3830 0.1352 0.6118
C77 C 0.4682(4) 0.5301(13) 0.6627(16)
C78 C 0.3842(4) 0.3418(14) 0.6138(17)
C79 C 0.4029(4) 0.3323(12) 0.5494(14)
H37 H 0.3976 0.2825 0.4971
C80 C 0.4292(4) 0.3955(13) 0.5614(12)
H38 H 0.4420 0.3890 0.5174
C81 C 0.4370(4) 0.4683(12) 0.6379(13)
C82 C 0.4183(5) 0.4778(15) 0.7023(14)
H39 H 0.4236 0.5275 0.7546
C83 C 0.3919(5) 0.4145(18) 0.6903(16)
H40 H 0.3791 0.4211 0.7343
C85 C 0.1394(3) 0.0706(13) 0.1593(14)
H41 H 0.1567 0.0248 0.1667
C86 C 0.1151(4) 0.0794(11) 0.0661(11)
H42 H 0.1158 0.0395 0.0098
C87 C 0.0897(3) 0.1465(12) 0.0553(10)
C88 C 0.0886(4) 0.2049(13) 0.1378(13)
H43 H 0.0713 0.2508 0.1304
C89 C 0.1129(5) 0.1961(16) 0.2310(11)
H44 H 0.1122 0.2360 0.2873
C90 C 0.1383(4) 0.1290(17) 0.2418(10)
O15 O 0.4744(5) 0.5517(15) 0.7598(15)
O16 O 0.4798(5) 0.5410(14) 0.5868(15)
O21 O 0.2677(5) 0.1108(18) 0.7811(14)
Cd10 Cd 0.51652(3) 0.68234(15) 0.76570(11)
Cd14 Cd 0.5000 0.6516(2) 0.5000
O25 O 0.0256(5) 0.0517(15) 0.2402(15)
O27 O 0.0202(5) 0.0410(14) 0.4132(15)
O29 O 0.0139(4) 0.3206(12) 0.2809(13)
O32 O 0.0415(3) 0.2206(9) 0.9351(8)
O34 O 0.0599(4) 0.0885(12) 0.8822(12)
O35 O 0.0303(5) 0.2728(14) 0.4495(15)
H51 H 0.280957 0.171965 0.781847
C49 C 0.0625(4) 0.1501(14) 0.9549(11)
C68 C 0.2843(3) 0.9648(12) 0.5643(12)
C69 C 0.3147(4) 0.9267(9) 0.5731(12)
H33 H 0.3178 0.8559 0.5696
C70 C 0.3407(3) 0.9922(8) 0.5869(11)
C84 C 0.4643(4) 0.8091(13) 0.6307(16)
C91 C 0.3774(3) 0.9608(14) 0.6310(17)
C92 C 0.4033(4) 0.9547(13) 0.7208(14)
H45 H 0.4018 0.9856 0.7812
C93 C 0.4312(3) 0.9033(12) 0.7222(11)
H46 H 0.4489 0.8991 0.7836
C94 C 0.4333(4) 0.8580(13) 0.6338(13)
C95 C 0.4075(5) 0.8641(15) 0.5440(11)
H47 H 0.4089 0.8332 0.4835
C96 C 0.3795(4) 0.9155(16) 0.5426(14)
H48 H 0.3619 0.9197 0.4812
O17 O 0.4861(4) 0.8206(12) 0.7191(13)
O20 O 0.4697(5) 0.7728(14) 0.5505(15)
O22 O 0.2596(6) 0.909(2) 0.567(2)
H52 H 0.240346 0.926626 0.508346
Cd3_3 Cd 1.0000 0.2074(3) 0.0000
C1 C 0.9375(4) 0.1501(14) 0.0451(11)
O7 O 0.9585(3) 0.2206(9) 0.0649(8)
O8 O 0.9401(4) 0.0885(12) 0.1178(12)
Cd5 Cd 0.98348(3) 0.18234(15) 0.23430(11)
Cd2_2 Cd 1.0000 0.1516(2) 0.5000
Cd3_4 Cd 1.0000 0.2074(3) 1.0000
O1 O 0.9576(3) 0.1487(11) 0.3475(10)
O2 O 0.9375(3) 0.2681(11) 0.2382(15)
O3 O 0.9793(5) 0.3348(16) 0.8980(16)
C2 C 0.7524(2) 0.0924(11) 0.4069(10)
C3 C 0.7549(3) 0.1024(13) 0.3095(9)
C4 C 0.7842(4) 0.1284(14) 0.2971(8)
H1 H 0.7859 0.1352 0.2305
C5 C 0.8112(3) 0.1446(13) 0.3820(10)
C6 C 0.8088(2) 0.1346(8) 0.4794(8)
C7 C 0.7794(2) 0.1085(7) 0.4919(8)
C8 C 0.7769(3) 0.0986(11) 0.5893(9)
H2 H 0.7568 0.0808 0.5978
C9 C 0.8039(4) 0.1147(12) 0.6742(8)
H3 H 0.8022 0.1079 0.7408
C10 C 0.8333(3) 0.1408(11) 0.6618(9)
C11 C 0.8357(2) 0.1507(11) 0.5644(10)
H4 H 0.8558 0.1685 0.5559
C12 C 0.8443(4) 0.1586(18) 0.3589(16)
C13 C 0.8703(5) 0.0958(15) 0.4057(14)
H5 H 0.8676 0.0405 0.4461
C14 C 0.9002(4) 0.1140(14) 0.3933(14)
H6 H 0.9180 0.0711 0.4252
C15 C 0.9041(3) 0.1949(14) 0.3341(14)
C16 C 0.8781(4) 0.2577(14) 0.2874(14)
H7 H 0.8807 0.3130 0.2470
C17 C 0.8481(4) 0.2395(17) 0.2998(16)
H8 H 0.8303 0.2824 0.2678
C18 C 0.9352(4) 0.2084(14) 0.3079(13)
C19 C 0.7202(2) 0.0684(12) 0.4306(12)
C23 C 0.6638(2) 0.0958(8) 0.4080(6)
C24 C 0.6943(2) 0.1339(9) 0.4168(8)
C25 C 0.6988(3) 0.2375(10) 0.4117(12)
H10 H 0.7196 0.2636 0.4177
C26 C 0.6728(4) 0.3030(8) 0.3979(11)
H11 H 0.6759 0.3738 0.3944
C27 C 0.6423(3) 0.2649(9) 0.3891(9)
C28 C 0.6378(2) 0.1612(9) 0.3942(8)
H12 H 0.6170 0.1352 0.3882
C29 C 0.5318(4) 0.5301(13) 0.3373(16)
C30 C 0.6158(4) 0.3418(14) 0.3862(17)
C31 C 0.5971(4) 0.3323(12) 0.4506(14)
H13 H 0.6024 0.2825 0.5029
C32 C 0.5708(4) 0.3955(13) 0.4386(12)
H14 H 0.5580 0.3890 0.4826
C33 C 0.5630(4) 0.4683(12) 0.3621(13)
C34 C 0.5817(5) 0.4778(15) 0.2977(14)
H15 H 0.5764 0.5275 0.2454
C35 C 0.6081(5) 0.4145(18) 0.3097(16)
H16 H 0.6209 0.4211 0.2657
C37 C 0.8606(3) 0.0706(13) 0.8407(14)
H17 H 0.8433 0.0248 0.8333
C38 C 0.8849(4) 0.0794(11) 0.9339(11)
H18 H 0.8842 0.0395 0.9902
C39 C 0.9103(3) 0.1465(12) 0.9447(10)
C40 C 0.9114(4) 0.2049(13) 0.8622(13)
H19 H 0.9287 0.2508 0.8696
C41 C 0.8871(5) 0.1961(16) 0.7690(11)
H20 H 0.8878 0.2360 0.7127
C42 C 0.8617(4) 0.1290(17) 0.7582(10)
O4 O 0.5256(5) 0.5517(15) 0.2402(15)
O5 O 0.5202(5) 0.5410(14) 0.4132(15)
O10 O 0.7323(5) 0.1108(18) 0.2189(14)
O24 O 0.9668(5) 0.1077(15) 0.8837(15)
Cd8 Cd 0.48348(3) 0.68234(15) 0.23430(11)
O26 O 0.9744(5) 0.0517(15) 0.7598(15)
O28 O 0.9798(5) 0.0410(14) 0.5868(15)
O30 O 0.9861(4) 0.3206(12) 0.7191(13)
O36 O 0.9697(5) 0.2728(14) 0.5505(15)
H57 H 0.719043 0.171965 0.218153
C20 C 0.7157(3) 0.9648(12) 0.4357(12)
C21 C 0.6853(4) 0.9267(9) 0.4269(12)
H9 H 0.6822 0.8559 0.4304
C22 C 0.6593(3) 0.9922(8) 0.4131(11)
C36 C 0.5357(4) 0.8091(13) 0.3693(16)
C43 C 0.6226(3) 0.9608(14) 0.3690(17)
C44 C 0.5967(4) 0.9547(13) 0.2792(14)
H21 H 0.5982 0.9856 0.2188
C45 C 0.5688(3) 0.9033(12) 0.2778(11)
H22 H 0.5511 0.8991 0.2164
C46 C 0.5667(4) 0.8580(13) 0.3662(13)
C47 C 0.5925(5) 0.8641(15) 0.4560(11)
H23 H 0.5911 0.8332 0.5165
C48 C 0.6205(4) 0.9155(16) 0.4574(14)
H24 H 0.6381 0.9197 0.5188
O6 O 0.5139(4) 0.8206(12) 0.2809(13)
O9 O 0.5303(5) 0.7728(14) 0.4495(15)
O11 O 0.7404(6) 0.909(2) 0.433(2)
H60 H 0.759654 0.926626 0.491654
C29_2 C 0.0318(4) 0.0301(13) 0.3373(16)
H15_2 H 0.0764 0.0275 0.2454
C77_2 C 0.9682(4) 0.0301(13) 0.6627(16)
H39_2 H 0.9236 0.0275 0.7546
Cd3_5 Cd 0.5000 0.7074(3) 0.0000
C1_2 C 0.4375(4) 0.6501(14) 0.0451(11)
O7_2 O 0.4585(3) 0.7206(9) 0.0649(8)
O8_2 O 0.4401(4) 0.5885(12) 0.1178(12)
O12_2 O 0.5332(5) 0.6077(15) 0.1163(15)
O23_2 O 0.5207(5) 0.8348(16) 0.1020(16)
Cd3_6 Cd 0.5000 0.7074(3) 1.0000
O1_2 O 0.4576(3) 0.6487(11) 0.3475(10)
O2_2 O 0.4375(3) 0.7681(11) 0.2382(15)
O3_2 O 0.4793(5) 0.8348(16) 0.8980(16)
C2_2 C 0.2524(2) 0.5924(11) 0.4069(10)
C3_2 C 0.2549(3) 0.6024(13) 0.3095(9)
C4_2 C 0.2842(4) 0.6284(14) 0.2971(8)
H1_2 H 0.2859 0.6352 0.2305
C5_2 C 0.3112(3) 0.6446(13) 0.3820(10)
C6_2 C 0.3088(2) 0.6346(8) 0.4794(8)
C7_2 C 0.2794(2) 0.6085(7) 0.4919(8)
C8_2 C 0.2769(3) 0.5986(11) 0.5893(9)
H2_2 H 0.2568 0.5808 0.5978
C9_2 C 0.3039(4) 0.6147(12) 0.6742(8)
H3_2 H 0.3022 0.6079 0.7408
C10_2 C 0.3333(3) 0.6408(11) 0.6618(9)
C11_2 C 0.3357(2) 0.6507(11) 0.5644(10)
H4_2 H 0.3558 0.6685 0.5559
C12_2 C 0.3443(4) 0.6586(18) 0.3589(16)
C13_2 C 0.3703(5) 0.5958(15) 0.4057(14)
H5_2 H 0.3676 0.5405 0.4461
C14_2 C 0.4002(4) 0.6140(14) 0.3933(14)
H6_2 H 0.4180 0.5711 0.4252
C15_2 C 0.4041(3) 0.6949(14) 0.3341(14)
C16_2 C 0.3781(4) 0.7577(14) 0.2874(14)
H7_2 H 0.3807 0.8130 0.2470
C17_2 C 0.3481(4) 0.7395(17) 0.2998(16)
H8_2 H 0.3303 0.7824 0.2678
C18_2 C 0.4352(4) 0.7084(14) 0.3079(13)
C19_2 C 0.2202(2) 0.5684(12) 0.4306(12)
C20_2 C 0.2157(3) 0.4648(12) 0.4357(12)
C21_2 C 0.1853(4) 0.4267(9) 0.4269(12)
H9_2 H 0.1822 0.3559 0.4304
C22_2 C 0.1593(3) 0.4922(8) 0.4131(11)
C23_2 C 0.1638(2) 0.5958(8) 0.4080(6)
C24_2 C 0.1943(2) 0.6339(9) 0.4168(8)
C25_2 C 0.1988(3) 0.7375(10) 0.4117(12)
H10_2 H 0.2196 0.7636 0.4177
C26_2 C 0.1728(4) 0.8030(8) 0.3979(11)
H11_2 H 0.1759 0.8738 0.3944
C27_2 C 0.1423(3) 0.7649(9) 0.3891(9)
C28_2 C 0.1378(2) 0.6612(9) 0.3942(8)
H12_2 H 0.1170 0.6352 0.3882
C30_2 C 0.1158(4) 0.8418(14) 0.3862(17)
C31_2 C 0.0971(4) 0.8323(12) 0.4506(14)
H13_2 H 0.1024 0.7825 0.5029
C32_2 C 0.0708(4) 0.8955(13) 0.4386(12)
H14_2 H 0.0580 0.8890 0.4826
C33_2 C 0.0630(4) 0.9683(12) 0.3621(13)
C34_2 C 0.0817(5) 0.9778(15) 0.2977(14)
C35_2 C 0.1081(5) 0.9145(18) 0.3097(16)
H16_2 H 0.1209 0.9211 0.2657
C36_2 C 0.0357(4) 0.3091(13) 0.3693(16)
C37_2 C 0.3606(3) 0.5706(13) 0.8407(14)
H17_2 H 0.3433 0.5248 0.8333
C38_2 C 0.3849(4) 0.5794(11) 0.9339(11)
H18_2 H 0.3842 0.5395 0.9902
C39_2 C 0.4103(3) 0.6465(12) 0.9447(10)
C40_2 C 0.4114(4) 0.7049(13) 0.8622(13)
H19_2 H 0.4287 0.7508 0.8696
C41_2 C 0.3871(5) 0.6961(16) 0.7690(11)
H20_2 H 0.3878 0.7360 0.7127
C42_2 C 0.3617(4) 0.6290(17) 0.7582(10)
C43_2 C 0.1226(3) 0.4608(14) 0.3690(17)
C44_2 C 0.0967(4) 0.4547(13) 0.2792(14)
H21_2 H 0.0982 0.4856 0.2188
C45_2 C 0.0688(3) 0.4033(12) 0.2778(11)
H22_2 H 0.0511 0.3991 0.2164
C46_2 C 0.0667(4) 0.3580(13) 0.3662(13)
C47_2 C 0.0925(5) 0.3641(15) 0.4560(11)
H23_2 H 0.0911 0.3332 0.5165
C48_2 C 0.1205(4) 0.4155(16) 0.4574(14)
H24_2 H 0.1381 0.4197 0.5188
O10_2 O 0.2323(5) 0.6108(18) 0.2189(14)
O11_2 O 0.2404(6) 0.409(2) 0.433(2)
O13_2 O 0.5424(3) 0.6487(11) 0.6525(10)
O14_2 O 0.5625(3) 0.7681(11) 0.7618(15)
C50_2 C 0.7476(2) 0.5924(11) 0.5931(10)
C51_2 C 0.7451(3) 0.6024(13) 0.6905(9)
C52_2 C 0.7158(4) 0.6284(14) 0.7029(8)
H25_2 H 0.7141 0.6352 0.7695
C53_2 C 0.6888(3) 0.6446(13) 0.6180(10)
C54_2 C 0.6912(2) 0.6346(8) 0.5206(8)
C55_2 C 0.7206(2) 0.6085(7) 0.5081(8)
C56_2 C 0.7231(3) 0.5986(11) 0.4107(9)
H26_2 H 0.7432 0.5808 0.4022
C57_2 C 0.6961(4) 0.6147(12) 0.3258(8)
H27_2 H 0.6978 0.6079 0.2592
C58_2 C 0.6667(3) 0.6408(11) 0.3382(9)
C59_2 C 0.6643(2) 0.6507(11) 0.4356(10)
H28_2 H 0.6442 0.6685 0.4441
C60_2 C 0.6557(4) 0.6586(18) 0.6411(16)
C61_2 C 0.6297(5) 0.5958(15) 0.5943(14)
H29_2 H 0.6324 0.5405 0.5539
C62_2 C 0.5998(4) 0.6140(14) 0.6067(14)
H30_2 H 0.5820 0.5711 0.5748
C63_2 C 0.5959(3) 0.6949(14) 0.6659(14)
C64_2 C 0.6219(4) 0.7577(14) 0.7126(14)
H31_2 H 0.6193 0.8130 0.7530
C65_2 C 0.6519(4) 0.7395(17) 0.7002(16)
H32_2 H 0.6697 0.7824 0.7322
C66_2 C 0.5648(4) 0.7084(14) 0.6921(13)
C67_2 C 0.7798(2) 0.5684(12) 0.5694(12)
C68_2 C 0.7843(3) 0.4648(12) 0.5643(12)
C69_2 C 0.8147(4) 0.4267(9) 0.5731(12)
H33_2 H 0.8178 0.3559 0.5696
C70_2 C 0.8407(3) 0.4922(8) 0.5869(11)
C71_2 C 0.8362(2) 0.5958(8) 0.5920(6)
C72_2 C 0.8057(2) 0.6339(9) 0.5832(8)
C73_2 C 0.8012(3) 0.7375(10) 0.5883(12)
H34_2 H 0.7804 0.7636 0.5823
C74_2 C 0.8272(4) 0.8030(8) 0.6021(11)
H35_2 H 0.8241 0.8738 0.6056
C75_2 C 0.8577(3) 0.7649(9) 0.6109(9)
C76_2 C 0.8622(2) 0.6612(9) 0.6058(8)
H36_2 H 0.8830 0.6352 0.6118
C78_2 C 0.8842(4) 0.8418(14) 0.6138(17)
C79_2 C 0.9029(4) 0.8323(12) 0.5494(14)
H37_2 H 0.8976 0.7825 0.4971
C80_2 C 0.9292(4) 0.8955(13) 0.5614(12)
H38_2 H 0.9420 0.8890 0.5174
C81_2 C 0.9370(4) 0.9683(12) 0.6379(13)
C82_2 C 0.9183(5) 0.9778(15) 0.7023(14)
C83_2 C 0.8919(5) 0.9145(18) 0.6903(16)
H40_2 H 0.8791 0.9211 0.7343
C84_2 C 0.9643(4) 0.3091(13) 0.6307(16)
C85_2 C 0.6394(3) 0.5706(13) 0.1593(14)
H41_2 H 0.6567 0.5248 0.1667
C86_2 C 0.6151(4) 0.5794(11) 0.0661(11)
H42_2 H 0.6158 0.5395 0.0098
C87_2 C 0.5897(3) 0.6465(12) 0.0553(10)
C88_2 C 0.5886(4) 0.7049(13) 0.1378(13)
H43_2 H 0.5713 0.7508 0.1304
C89_2 C 0.6129(5) 0.6961(16) 0.2310(11)
H44_2 H 0.6122 0.7360 0.2873
C90_2 C 0.6383(4) 0.6290(17) 0.2418(10)
C91_2 C 0.8774(3) 0.4608(14) 0.6310(17)
C92_2 C 0.9033(4) 0.4547(13) 0.7208(14)
H45_2 H 0.9018 0.4856 0.7812
C93_2 C 0.9312(3) 0.4033(12) 0.7222(11)
H46_2 H 0.9489 0.3991 0.7836
C94_2 C 0.9333(4) 0.3580(13) 0.6338(13)
C95_2 C 0.9075(5) 0.3641(15) 0.5440(11)
H47_2 H 0.9089 0.3332 0.4835
C96_2 C 0.8795(4) 0.4155(16) 0.5426(14)
H48_2 H 0.8619 0.4197 0.4812
O21_2 O 0.7677(5) 0.6108(18) 0.7811(14)
O22_2 O 0.7596(6) 0.409(2) 0.567(2)
O24_2 O 0.4668(5) 0.6077(15) 0.8837(15)
O32_2 O 0.5415(3) 0.7206(9) 0.9351(8)
O34_2 O 0.5599(4) 0.5885(12) 0.8822(12)
H51_2 H 0.780957 0.671965 0.781847
H52_2 H 0.740346 0.426626 0.508346
H57_2 H 0.219043 0.671965 0.218153
H60_2 H 0.259654 0.426626 0.491654
C49_2 C 0.5625(4) 0.6501(14) 0.9549(11)
loop_
_geom_bond_atom_site_label_1
_geom_bond_atom_site_label_2
_geom_bond_site_symmetry_1
_geom_bond_site_symmetry_2
O12 Cd3 1_555 1_555
O23 Cd3 1_555 1_555
Cd4 O13 1_555 1_555
O13 Cd2 1_555 1_555
O14 Cd4 1_555 1_555
C50 C51 1_555 1_555
C51 C52 1_555 1_555
C52 H25 1_555 1_555
C53 C52 1_555 1_555
C54 C53 1_555 1_555
C55 C50 1_555 1_555
C56 C55 1_555 1_555
H26 C56 1_555 1_555
C57 C56 1_555 1_555
H27 C57 1_555 1_555
C58 C57 1_555 1_555
C59 C54 1_555 1_555
H28 C59 1_555 1_555
C60 C53 1_555 1_555
C61 C60 1_555 1_555
H29 C61 1_555 1_555
C62 C61 1_555 1_555
H30 C62 1_555 1_555
C63 C62 1_555 1_555
C64 C63 1_555 1_555
H31 C64 1_555 1_555
C65 C60 1_555 1_555
H32 C65 1_555 1_555
C66 O13 1_555 1_555
C67 C50 1_555 1_555
C72 C67 1_555 1_555
C73 C72 1_555 1_555
H34 C73 1_555 1_555
C74 C73 1_555 1_555
H35 C74 1_555 1_555
C75 C74 1_555 1_555
C76 C71 1_555 1_555
H36 C76 1_555 1_555
C77 C81 1_555 1_555
C78 C75 1_555 1_555
C79 C78 1_555 1_555
H37 C79 1_555 1_555
C80 C79 1_555 1_555
H38 C80 1_555 1_555
C81 C80 1_555 1_555
C82 C81 1_555 1_555
H39 C82 1_555 1_555
C83 C78 1_555 1_555
H40 C83 1_555 1_555
C85 H41 1_555 1_555
C86 C85 1_555 1_555
H42 C86 1_555 1_555
C87 C86 1_555 1_555
C88 C87 1_555 1_555
H43 C88 1_555 1_555
C89 C88 1_555 1_555
H44 C89 1_555 1_555
C90 C58 1_555 1_555
O15 C77 1_555 1_555
O16 C77 1_555 1_555
O21 C51 1_555 1_555
Cd10 O15 1_555 1_555
Cd14 O16 1_555 1_555
O27 Cd2 1_555 1_555
O32 Cd3_2 1_555 1_555
O34 Cd4 1_555 1_555
O35 Cd2 1_555 1_555
Cd4 O32 1_555 1_555
O14 C66 1_555 1_555
C54 C55 1_555 1_555
C58 C59 1_555 1_555
C63 C66 1_555 1_555
C64 C65 1_555 1_555
C71 C72 1_555 1_555
C75 C76 1_555 1_555
C82 C83 1_555 1_555
C85 C90 1_555 1_555
C89 C90 1_555 1_555
O21 H51 1_555 1_555
O32 C49 1_555 1_555
O34 C49 1_555 1_555
C69 C68 1_555 1_555
H33 C69 1_555 1_555
C70 C69 1_555 1_555
C84 C94 1_555 1_555
C91 C70 1_555 1_555
C92 C91 1_555 1_555
H45 C92 1_555 1_555
C93 C92 1_555 1_555
H46 C93 1_555 1_555
C94 C93 1_555 1_555
C95 C94 1_555 1_555
H47 C95 1_555 1_555
C96 C91 1_555 1_555
H48 C96 1_555 1_555
O17 C84 1_555 1_555
O20 C84 1_555 1_555
O22 C68 1_555 1_555
Cd10 O17 1_555 1_555
Cd14 O20 1_555 1_555
C95 C96 1_555 1_555
O22 H52 1_555 1_555
O7 Cd3_3 1_555 1_555
O8 C1 1_555 1_555
Cd5 O7 1_555 1_555
C1 O7 1_555 1_555
O8 Cd5 1_555 1_555
Cd5 O1 1_555 1_555
Cd2_2 O1 1_555 1_555
Cd3_4 O3 1_555 1_555
O1 C18 1_555 1_555
O2 Cd5 1_555 1_555
C2 C3 1_555 1_555
C3 C4 1_555 1_555
C4 H1 1_555 1_555
C5 C4 1_555 1_555
C6 C5 1_555 1_555
C7 C2 1_555 1_555
C8 C7 1_555 1_555
H2 C8 1_555 1_555
C9 C8 1_555 1_555
H3 C9 1_555 1_555
C10 C9 1_555 1_555
C11 C6 1_555 1_555
H4 C11 1_555 1_555
C12 C5 1_555 1_555
C13 C12 1_555 1_555
H5 C13 1_555 1_555
C14 C13 1_555 1_555
H6 C14 1_555 1_555
C15 C14 1_555 1_555
C16 C15 1_555 1_555
H7 C16 1_555 1_555
C17 C12 1_555 1_555
H8 C17 1_555 1_555
C18 O2 1_555 1_555
C19 C2 1_555 1_555
C24 C19 1_555 1_555
C25 C24 1_555 1_555
H10 C25 1_555 1_555
C26 C25 1_555 1_555
H11 C26 1_555 1_555
C27 C26 1_555 1_555
C28 C23 1_555 1_555
H12 C28 1_555 1_555
C29 C33 1_555 1_555
C30 C27 1_555 1_555
C31 C30 1_555 1_555
H13 C31 1_555 1_555
C32 C31 1_555 1_555
H14 C32 1_555 1_555
C33 C32 1_555 1_555
C34 C33 1_555 1_555
H15 C34 1_555 1_555
C35 C30 1_555 1_555
H16 C35 1_555 1_555
C37 H17 1_555 1_555
C38 C37 1_555 1_555
H18 C38 1_555 1_555
C39 C38 1_555 1_555
C40 C39 1_555 1_555
H19 C40 1_555 1_555
C41 C40 1_555 1_555
H20 C41 1_555 1_555
C42 C10 1_555 1_555
O4 C29 1_555 1_555
O5 C29 1_555 1_555
O10 C3 1_555 1_555
O24 Cd3_4 1_555 1_555
Cd8 O4 1_555 1_555
Cd14 O5 1_555 1_555
O28 Cd2_2 1_555 1_555
O36 Cd2_2 1_555 1_555
C6 C7 1_555 1_555
C10 C11 1_555 1_555
C15 C18 1_555 1_555
C16 C17 1_555 1_555
C23 C24 1_555 1_555
C27 C28 1_555 1_555
C34 C35 1_555 1_555
C37 C42 1_555 1_555
C41 C42 1_555 1_555
O10 H57 1_555 1_555
C21 C20 1_555 1_555
H9 C21 1_555 1_555
C22 C21 1_555 1_555
C36 C46 1_555 1_555
C43 C22 1_555 1_555
C44 C43 1_555 1_555
H21 C44 1_555 1_555
C45 C44 1_555 1_555
H22 C45 1_555 1_555
C46 C45 1_555 1_555
C47 C46 1_555 1_555
H23 C47 1_555 1_555
C48 C43 1_555 1_555
H24 C48 1_555 1_555
O6 C36 1_555 1_555
O9 C36 1_555 1_555
O11 C20 1_555 1_555
Cd8 O6 1_555 1_555
Cd14 O9 1_555 1_555
C47 C48 1_555 1_555
O11 H60 1_555 1_555
O25 C29_2 1_555 1_555
O27 C29_2 1_555 1_555
O26 C77_2 1_555 1_555
O28 C77_2 1_555 1_555
O7_2 Cd3_5 1_555 1_555
O8_2 C1_2 1_555 1_555
O12_2 Cd3_5 1_555 1_555
O23_2 Cd3_5 1_555 1_555
Cd8 O7_2 1_555 1_555
C1_2 O7_2 1_555 1_555
O8_2 Cd8 1_555 1_555
Cd8 O1_2 1_555 1_555
Cd14 O1_2 1_555 1_555
Cd3_6 O3_2 1_555 1_555
O1_2 C18_2 1_555 1_555
O2_2 Cd8 1_555 1_555
C2_2 C3_2 1_555 1_555
C3_2 C4_2 1_555 1_555
C4_2 H1_2 1_555 1_555
C5_2 C4_2 1_555 1_555
C6_2 C5_2 1_555 1_555
C7_2 C2_2 1_555 1_555
C8_2 C7_2 1_555 1_555
H2_2 C8_2 1_555 1_555
C9_2 C8_2 1_555 1_555
H3_2 C9_2 1_555 1_555
C10_2 C9_2 1_555 1_555
C11_2 C6_2 1_555 1_555
H4_2 C11_2 1_555 1_555
C12_2 C5_2 1_555 1_555
C13_2 C12_2 1_555 1_555
H5_2 C13_2 1_555 1_555
C14_2 C13_2 1_555 1_555
H6_2 C14_2 1_555 1_555
C15_2 C14_2 1_555 1_555
C16_2 C15_2 1_555 1_555
H7_2 C16_2 1_555 1_555
C17_2 C12_2 1_555 1_555
H8_2 C17_2 1_555 1_555
C18_2 O2_2 1_555 1_555
C19_2 C2_2 1_555 1_555
C20_2 C19_2 1_555 1_555
C21_2 C20_2 1_555 1_555
H9_2 C21_2 1_555 1_555
C22_2 C21_2 1_555 1_555
C23_2 C22_2 1_555 1_555
C24_2 C19_2 1_555 1_555
C25_2 C24_2 1_555 1_555
H10_2 C25_2 1_555 1_555
C26_2 C25_2 1_555 1_555
H11_2 C26_2 1_555 1_555
C27_2 C26_2 1_555 1_555
C28_2 C23_2 1_555 1_555
H12_2 C28_2 1_555 1_555
C30_2 C27_2 1_555 1_555
C31_2 C30_2 1_555 1_555
H13_2 C31_2 1_555 1_555
C32_2 C31_2 1_555 1_555
H14_2 C32_2 1_555 1_555
C33_2 C32_2 1_555 1_555
C34_2 C33_2 1_555 1_555
C35_2 C30_2 1_555 1_555
H16_2 C35_2 1_555 1_555
C36_2 C46_2 1_555 1_555
C37_2 H17_2 1_555 1_555
C38_2 C37_2 1_555 1_555
H18_2 C38_2 1_555 1_555
C39_2 C38_2 1_555 1_555
C40_2 C39_2 1_555 1_555
H19_2 C40_2 1_555 1_555
C41_2 C40_2 1_555 1_555
H20_2 C41_2 1_555 1_555
C42_2 C10_2 1_555 1_555
C43_2 C22_2 1_555 1_555
C44_2 C43_2 1_555 1_555
H21_2 C44_2 1_555 1_555
C45_2 C44_2 1_555 1_555
H22_2 C45_2 1_555 1_555
C46_2 C45_2 1_555 1_555
C47_2 C46_2 1_555 1_555
H23_2 C47_2 1_555 1_555
C48_2 C43_2 1_555 1_555
H24_2 C48_2 1_555 1_555
O29 C36_2 1_555 1_555
O35 C36_2 1_555 1_555
O10_2 C3_2 1_555 1_555
O11_2 C20_2 1_555 1_555
Cd10 O13_2 1_555 1_555
O13_2 Cd14 1_555 1_555
O14_2 Cd10 1_555 1_555
C50_2 C51_2 1_555 1_555
C51_2 C52_2 1_555 1_555
C52_2 H25_2 1_555 1_555
C53_2 C52_2 1_555 1_555
C54_2 C53_2 1_555 1_555
C55_2 C50_2 1_555 1_555
C56_2 C55_2 1_555 1_555
H26_2 C56_2 1_555 1_555
C57_2 C56_2 1_555 1_555
H27_2 C57_2 1_555 1_555
C58_2 C57_2 1_555 1_555
C59_2 C54_2 1_555 1_555
H28_2 C59_2 1_555 1_555
C60_2 C53_2 1_555 1_555
C61_2 C60_2 1_555 1_555
H29_2 C61_2 1_555 1_555
C62_2 C61_2 1_555 1_555
H30_2 C62_2 1_555 1_555
C63_2 C62_2 1_555 1_555
C64_2 C63_2 1_555 1_555
H31_2 C64_2 1_555 1_555
C65_2 C60_2 1_555 1_555
H32_2 C65_2 1_555 1_555
C66_2 O13_2 1_555 1_555
C67_2 C50_2 1_555 1_555
C68_2 C67_2 1_555 1_555
C69_2 C68_2 1_555 1_555
H33_2 C69_2 1_555 1_555
C70_2 C69_2 1_555 1_555
C71_2 C70_2 1_555 1_555
C72_2 C67_2 1_555 1_555
C73_2 C72_2 1_555 1_555
H34_2 C73_2 1_555 1_555
C74_2 C73_2 1_555 1_555
H35_2 C74_2 1_555 1_555
C75_2 C74_2 1_555 1_555
C76_2 C71_2 1_555 1_555
H36_2 C76_2 1_555 1_555
C78_2 C75_2 1_555 1_555
C79_2 C78_2 1_555 1_555
H37_2 C79_2 1_555 1_555
C80_2 C79_2 1_555 1_555
H38_2 C80_2 1_555 1_555
C81_2 C80_2 1_555 1_555
C82_2 C81_2 1_555 1_555
C83_2 C78_2 1_555 1_555
H40_2 C83_2 1_555 1_555
C84_2 C94_2 1_555 1_555
C85_2 H41_2 1_555 1_555
C86_2 C85_2 1_555 1_555
H42_2 C86_2 1_555 1_555
C87_2 C86_2 1_555 1_555
C88_2 C87_2 1_555 1_555
H43_2 C88_2 1_555 1_555
C89_2 C88_2 1_555 1_555
H44_2 C89_2 1_555 1_555
C90_2 C58_2 1_555 1_555
C91_2 C70_2 1_555 1_555
C92_2 C91_2 1_555 1_555
H45_2 C92_2 1_555 1_555
C93_2 C92_2 1_555 1_555
H46_2 C93_2 1_555 1_555
C94_2 C93_2 1_555 1_555
C95_2 C94_2 1_555 1_555
H47_2 C95_2 1_555 1_555
C96_2 C91_2 1_555 1_555
H48_2 C96_2 1_555 1_555
O30 C84_2 1_555 1_555
O36 C84_2 1_555 1_555
O21_2 C51_2 1_555 1_555
O22_2 C68_2 1_555 1_555
O24_2 Cd3_6 1_555 1_555
O32_2 Cd3_6 1_555 1_555
O34_2 Cd10 1_555 1_555
C6_2 C7_2 1_555 1_555
C10_2 C11_2 1_555 1_555
C15_2 C18_2 1_555 1_555
C16_2 C17_2 1_555 1_555
C23_2 C24_2 1_555 1_555
C27_2 C28_2 1_555 1_555
C34_2 C35_2 1_555 1_555
C37_2 C42_2 1_555 1_555
C41_2 C42_2 1_555 1_555
C47_2 C48_2 1_555 1_555
Cd10 O32_2 1_555 1_555
O14_2 C66_2 1_555 1_555
C54_2 C55_2 1_555 1_555
C58_2 C59_2 1_555 1_555
C63_2 C66_2 1_555 1_555
C64_2 C65_2 1_555 1_555
C71_2 C72_2 1_555 1_555
C75_2 C76_2 1_555 1_555
C82_2 C83_2 1_555 1_555
C85_2 C90_2 1_555 1_555
C89_2 C90_2 1_555 1_555
C95_2 C96_2 1_555 1_555
O21_2 H51_2 1_555 1_555
O22_2 H52_2 1_555 1_555
O10_2 H57_2 1_555 1_555
O11_2 H60_2 1_555 1_555
O32_2 C49_2 1_555 1_555
O34_2 C49_2 1_555 1_555

#END
