
###############################################################################
#
# This file contains modified crystal structure data generated from the
# MOF subset of the Cambridge Structural Database (CSD) v543 
# hosted by the Cambridge Crystallographic Data Centre (CCDC).
#
# This work is licensed under the Creative Commons
# Attribution-NonCommercial-ShareAlike 4.0 International License.
# To view a copy of this license, visit
# http://creativecommons.org/licenses/by-nc-sa/4.0/
# or send a letter to
# Creative Commons, PO Box 1866, Mountain View, CA 94042, USA.
#
# CIF created using the CSD Python API on 29 September 2022
# The structure has been converted into the P1 space group
# The structure has a 3D framework
# The original CSD entry KUYHOE is in the monoclinic crystal system
# The framework has been calculated to contain at least 10.0% void space
# The void calculation uses a probe of radius 1.32A, grid spacing 0.4
#
###############################################################################

data_KUYHOE
_chemical_formula_moiety         '(C296 H176 Cd8 N16 Na15 O48 11+)n'
_symmetry_cell_setting           triclinic
_symmetry_space_group_name_H-M   'P 1'
_symmetry_Int_Tables_number      1
_space_group_name_Hall           'P 1'
loop_
_symmetry_equiv_pos_site_id
_symmetry_equiv_pos_as_xyz
1 x,y,z
_cell_length_a                   32.143(4)
_cell_length_b                   10.3824(10)
_cell_length_c                   32.772(4)
_cell_angle_alpha                90
_cell_angle_beta                 115.790(4)
_cell_angle_gamma                90
_cell_volume                     9847.37
loop_
_atom_site_label
_atom_site_type_symbol
_atom_site_fract_x
_atom_site_fract_y
_atom_site_fract_z
Na1 Na 0.500000 0.500000 0.500000
Na1_2 Na 0.500000 0.500000 0.000000
Na1_3 Na 0.500000 0.500000 1.000000
Na1_4 Na -0.000000 -0.000000 0.500000
Na1_5 Na -0.000000 1.000000 0.500000
Na1_6 Na 1.000000 -0.000000 0.500000
Na1_7 Na 1.000000 1.000000 0.500000
Na1_8 Na 0.000000 -0.000000 0.000000
Na1_9 Na 0.000000 -0.000000 1.000000
Na1_10 Na 0.000000 1.000000 0.000000
Na1_11 Na 0.000000 1.000000 1.000000
Na1_12 Na 1.000000 -0.000000 0.000000
Na1_13 Na 1.000000 -0.000000 1.000000
Na1_14 Na 1.000000 1.000000 0.000000
Na1_15 Na 1.000000 1.000000 1.000000
O1 O 0.16792(14) 0.3079(4) 0.06944(13)
O2 O 0.11362(14) 0.1745(5) 0.06376(12)
C1 C 0.28136(16) 0.1067(5) 0.37464(16)
H1 H 0.295244 0.095583 0.405912
C2 C 0.30784(14) 0.1453(4) 0.35223(15)
C3 C 0.23429(15) 0.0853(5) 0.34985(15)
C4 C 0.17429(16) 0.2067(5) 0.13774(15)
C5 C 0.21711(16) 0.1666(5) 0.23121(16)
C6 C 0.15085(18) 0.2327(5) 0.08780(16)
C7 C 0.20537(16) 0.0501(5) 0.37418(15)
C8 C 0.28657(15) 0.1637(5) 0.30618(16)
H2 H 0.304215 0.187925 0.291281
C9 C 0.23789(16) 0.1463(5) 0.28064(15)
C10 C 0.21368(15) 0.1079(5) 0.30422(15)
H3 H 0.181899 0.096660 0.288462
C11 C 0.45366(16) 0.1969(5) 0.42792(17)
C12 C 0.35858(14) 0.1642(5) 0.37890(16)
O4 O 0.0930(2) 0.0154(5) 0.4415(2)
C16 C 0.38434(15) 0.0871(5) 0.41659(16)
H6 H 0.369586 0.023211 0.425320
C17 C 0.43014(16) 0.1044(5) 0.44030(18)
H7 H 0.446421 0.053248 0.465572
C18 C 0.50549(18) 0.2138(6) 0.4550(2)
C19 C 0.23084(19) 0.2584(5) 0.21181(18)
H8 H 0.255724 0.309731 0.230068
C22 C 0.2096(2) 0.2820(6) 0.16495(16)
H9 H 0.219841 0.348993 0.152814
C25 C 0.15865(19) 0.1105(6) 0.15661(17)
H10 H 0.133270 0.060859 0.138346
C26 C 0.16468(19) 0.1083(6) 0.3652(2)
H11 H 0.153427 0.171654 0.343007
C27 C 0.38196(18) 0.2534(5) 0.3663(2)
H12 H 0.366083 0.303098 0.340497
C28 C 0.18105(19) 0.0879(6) 0.20324(16)
H13 H 0.171715 0.019615 0.215655
C29 C 0.1391(2) 0.0737(7) 0.3894(2)
H14 H 0.111593 0.115887 0.383780
O5 O 0.5276(3) 0.1168(10) 0.4697(4)
C31 C 0.4290(2) 0.2706(7) 0.3914(3)
H16 H 0.444036 0.334313 0.382868
O6 O 0.5207(3) 0.3320(9) 0.4670(3)
Cd3 Cd 0.59937(2) 0.23165(3) 0.49616(2)
Cd1 Cd 0.09937(2) 0.73165(3) 0.49616(2)
N1 N 0.12056(15) 0.5391(5) 0.47985(16)
N2 N 0.16695(16) 0.3853(5) 0.48029(18)
O3 O 0.1362(2) 0.8429(6) 0.46634(18)
C13 C 0.15474(17) 0.9799(6) 0.42050(19)
C14 C 0.22068(18) 0.9531(6) 0.40612(16)
H4 H 0.248380 0.911636 0.412059
C15 C 0.16327(18) 0.5022(5) 0.49420(16)
H5 H 0.188484 0.552672 0.512305
C20 C 0.2607(2) 0.1406(6) 0.5277(2)
C21 C 0.2195(2) 0.2072(5) 0.5181(2)
C23 C 0.1282(2) 0.9408(7) 0.4462(2)
C24 C 0.20889(19) 0.3157(6) 0.4911(2)
C30 C 0.1951(2) 0.9152(7) 0.4301(2)
H15 H 0.205301 0.849227 0.451356
C32 C 0.0950(2) 0.4366(7) 0.4562(3)
H17 H 0.062901 0.436084 0.441742
C33 C 0.2682(3) 0.0308(8) 0.5578(3)
C34 C 0.1893(3) 0.1603(7) 0.5366(3)
H19 H 0.161746 0.203899 0.529630
C36 C 0.1216(3) 0.3355(8) 0.4562(3)
H21 H 0.112414 0.254152 0.443563
C37 C 0.1990(4) 0.0567(9) 0.5633(4)
H22 H 0.179601 0.030246 0.575965
N4 N 0.33305(16) 0.1147(5) 0.51971(18)
C39 C 0.2393(2) 0.3594(6) 0.4723(2)
C40 C 0.2805(2) 0.2928(5) 0.4819(2)
C41 C 0.29111(19) 0.1843(6) 0.5089(2)
C42 C 0.4050(2) 0.0634(7) 0.5438(3)
H24 H 0.437099 0.063916 0.558258
C43 C 0.2318(3) 0.4692(8) 0.4422(3)
H25 H 0.203297 0.509882 0.432657
C44 C 0.3107(3) 0.3397(7) 0.4634(3)
H26 H 0.338254 0.296101 0.470370
C45 C 0.2577(4) 0.5148(8) 0.4280(3)
H27 H 0.250793 0.592194 0.412138
C46 C 0.3784(3) 0.1645(8) 0.5438(3)
H28 H 0.387586 0.245848 0.556437
C47 C 0.3010(4) 0.4433(9) 0.4367(4)
H29 H 0.320399 0.469754 0.424035
O14 O 0.16792(14) 0.6921(4) 0.56944(13)
O16 O 0.11362(14) 0.8255(5) 0.56376(12)
O17 O 0.0276(3) 0.6168(10) 0.4697(4)
O19 O 0.0207(3) 0.8320(9) 0.4670(3)
H23 H 0.688484 0.947328 0.012305
O13 O 0.66792(14) 0.8079(4) 0.06944(13)
O15 O 0.61362(14) 0.6745(5) 0.06376(12)
H18 H 0.703297 0.990118 0.932657
C35 C 0.7577(4) 0.9852(8) 0.9280(3)
H20 H 0.750793 0.907806 0.912138
N3 N 0.62056(15) 0.9609(5) 0.97985(16)
C38 C 0.66327(18) 0.9978(5) 0.99420(16)
Cd2 Cd 0.59937(2) 0.76835(3) 0.99616(2)
O7 O 0.66792(14) 0.1921(4) 0.56944(13)
O8 O 0.61362(14) 0.3255(5) 0.56376(12)
C48 C 0.78136(16) 0.3933(5) 0.87464(16)
H30 H 0.795244 0.404417 0.905912
C49 C 0.80784(14) 0.3547(4) 0.85223(15)
C50 C 0.73429(15) 0.4147(5) 0.84985(15)
C51 C 0.67429(16) 0.2933(5) 0.63774(15)
C52 C 0.71711(16) 0.3334(5) 0.73121(16)
C53 C 0.65085(18) 0.2673(5) 0.58780(16)
C54 C 0.70537(16) 0.4499(5) 0.87418(15)
C55 C 0.78657(15) 0.3363(5) 0.80618(16)
H31 H 0.804215 0.312075 0.791281
C56 C 0.73789(16) 0.3537(5) 0.78064(15)
O9 O 0.6362(2) 0.6571(6) 0.96634(18)
C57 C 0.71368(15) 0.3921(5) 0.80422(15)
H32 H 0.681899 0.403340 0.788462
C58 C 0.95366(16) 0.3031(5) 0.92792(17)
C59 C 0.85858(14) 0.3358(5) 0.87890(16)
C60 C 0.65474(17) 0.5201(6) 0.92050(19)
C61 C 0.72068(18) 0.5469(6) 0.90612(16)
H33 H 0.748380 0.588364 0.912059
O10 O 0.5930(2) 0.4846(5) 0.9415(2)
C62 C 0.88434(15) 0.4129(5) 0.91659(16)
H34 H 0.869586 0.476789 0.925320
C63 C 0.93014(16) 0.3956(5) 0.94030(18)
H35 H 0.946421 0.446752 0.965572
C65 C 0.73084(19) 0.2416(5) 0.71181(18)
H36 H 0.755724 0.190269 0.730068
C66 C 0.7096(2) 0.2180(6) 0.66495(16)
H37 H 0.719841 0.151007 0.652814
C67 C 0.6282(2) 0.5592(7) 0.9462(2)
C68 C 0.65865(19) 0.3895(6) 0.65661(17)
H38 H 0.633270 0.439141 0.638346
C69 C 0.66468(19) 0.3917(6) 0.8652(2)
H39 H 0.653427 0.328346 0.843007
C70 C 0.88196(18) 0.2466(5) 0.8663(2)
H40 H 0.866083 0.196902 0.840497
C71 C 0.68105(19) 0.4121(6) 0.70324(16)
H41 H 0.671715 0.480385 0.715655
C72 C 0.6391(2) 0.4263(7) 0.8894(2)
H42 H 0.611593 0.384113 0.883780
C73 C 0.6951(2) 0.5848(7) 0.9301(2)
H43 H 0.705301 0.650773 0.951356
C74 C 0.9290(2) 0.2294(7) 0.8914(3)
H44 H 0.944036 0.165687 0.882868
O18 O 0.5276(3) 0.8832(10) 0.9697(4)
O20 O 0.5207(3) 0.6680(9) 0.9670(3)
C18_2 C 0.00549(18) 0.7138(6) 0.4550(2)
N1_2 N 0.62056(15) 0.0391(5) 0.47985(16)
C1_2 C 0.78136(16) 0.6067(5) 0.37464(16)
H1_2 H 0.795244 0.595583 0.405912
C2_2 C 0.80784(14) 0.6453(4) 0.35223(15)
C3_2 C 0.73429(15) 0.5853(5) 0.34985(15)
C4_2 C 0.67429(16) 0.7067(5) 0.13774(15)
C5_2 C 0.71711(16) 0.6666(5) 0.23121(16)
C6_2 C 0.65085(18) 0.7327(5) 0.08780(16)
C7_2 C 0.70537(16) 0.5501(5) 0.37418(15)
C8_2 C 0.78657(15) 0.6637(5) 0.30618(16)
H2_2 H 0.804215 0.687925 0.291281
C9_2 C 0.73789(16) 0.6463(5) 0.28064(15)
O3_2 O 0.6362(2) 0.3429(6) 0.46634(18)
C10_2 C 0.71368(15) 0.6079(5) 0.30422(15)
H3_2 H 0.681899 0.596660 0.288462
C11_2 C 0.95366(16) 0.6969(5) 0.42792(17)
C12_2 C 0.85858(14) 0.6642(5) 0.37890(16)
C13_2 C 0.65474(17) 0.4799(6) 0.42050(19)
C14_2 C 0.72068(18) 0.4531(6) 0.40612(16)
H4_2 H 0.748380 0.411636 0.412059
C15_2 C 0.66327(18) 0.0022(5) 0.49420(16)
H5_2 H 0.688484 0.052672 0.512305
O4_2 O 0.5930(2) 0.5154(5) 0.4415(2)
C16_2 C 0.88434(15) 0.5871(5) 0.41659(16)
H6_2 H 0.869586 0.523211 0.425320
C17_2 C 0.93014(16) 0.6044(5) 0.44030(18)
H7_2 H 0.946421 0.553248 0.465572
C19_2 C 0.73084(19) 0.7584(5) 0.21181(18)
H8_2 H 0.755724 0.809731 0.230068
C22_2 C 0.7096(2) 0.7820(6) 0.16495(16)
H9_2 H 0.719841 0.848993 0.152814
C23_2 C 0.6282(2) 0.4408(7) 0.4462(2)
C25_2 C 0.65865(19) 0.6105(6) 0.15661(17)
H10_2 H 0.633270 0.560859 0.138346
C26_2 C 0.66468(19) 0.6083(6) 0.3652(2)
H11_2 H 0.653427 0.671654 0.343007
C27_2 C 0.88196(18) 0.7534(5) 0.3663(2)
H12_2 H 0.866083 0.803098 0.340497
C28_2 C 0.68105(19) 0.5879(6) 0.20324(16)
H13_2 H 0.671715 0.519615 0.215655
C29_2 C 0.6391(2) 0.5737(7) 0.3894(2)
H14_2 H 0.611593 0.615887 0.383780
C30_2 C 0.6951(2) 0.4152(7) 0.4301(2)
H15_2 H 0.705301 0.349227 0.451356
C31_2 C 0.9290(2) 0.7706(7) 0.3914(3)
H16_2 H 0.944036 0.834313 0.382868
H25_2 H 0.703297 0.009882 0.432657
C45_2 C 0.7577(4) 0.0148(8) 0.4280(3)
H27_2 H 0.750793 0.092194 0.412138
N2_2 N 0.33305(16) 0.8853(5) 0.01971(18)
C24_2 C 0.29111(19) 0.8157(6) 0.0089(2)
C32_2 C 0.4050(2) 0.9366(7) 0.0438(3)
H17_2 H 0.437099 0.936084 0.058258
C36_2 C 0.3784(3) 0.8355(8) 0.0438(3)
H21_2 H 0.387586 0.754152 0.056437
H23_2 H 0.188484 0.447328 0.012305
C39_2 C 0.2607(2) 0.8594(6) 0.0277(2)
C40_2 C 0.2195(2) 0.7928(5) 0.0181(2)
C43_2 C 0.2682(3) 0.9692(8) 0.0578(3)
C44_2 C 0.1893(3) 0.8397(7) 0.0366(3)
H26_2 H 0.161746 0.796101 0.029630
C47_2 C 0.1990(4) 0.9433(9) 0.0633(4)
H29_2 H 0.179601 0.969754 0.075965
C48_2 C 0.28136(16) 0.8933(5) 0.87464(16)
H30_2 H 0.295244 0.904417 0.905912
C49_2 C 0.30784(14) 0.8547(4) 0.85223(15)
C50_2 C 0.23429(15) 0.9147(5) 0.84985(15)
C51_2 C 0.17429(16) 0.7933(5) 0.63774(15)
C52_2 C 0.21711(16) 0.8334(5) 0.73121(16)
C53_2 C 0.15085(18) 0.7673(5) 0.58780(16)
C54_2 C 0.20537(16) 0.9499(5) 0.87418(15)
C55_2 C 0.28657(15) 0.8363(5) 0.80618(16)
H31_2 H 0.304215 0.812075 0.791281
C56_2 C 0.23789(16) 0.8537(5) 0.78064(15)
C57_2 C 0.21368(15) 0.8921(5) 0.80422(15)
H32_2 H 0.181899 0.903340 0.788462
C58_2 C 0.45366(16) 0.8031(5) 0.92792(17)
C59_2 C 0.35858(14) 0.8358(5) 0.87890(16)
O10_2 O 0.0930(2) 0.9846(5) 0.9415(2)
C62_2 C 0.38434(15) 0.9129(5) 0.91659(16)
H34_2 H 0.369586 0.976789 0.925320
C63_2 C 0.43014(16) 0.8956(5) 0.94030(18)
H35_2 H 0.446421 0.946752 0.965572
C64 C 0.50549(18) 0.7862(6) 0.9550(2)
C65_2 C 0.23084(19) 0.7416(5) 0.71181(18)
H36_2 H 0.255724 0.690269 0.730068
C66_2 C 0.2096(2) 0.7180(6) 0.66495(16)
H37_2 H 0.219841 0.651007 0.652814
C68_2 C 0.15865(19) 0.8895(6) 0.65661(17)
H38_2 H 0.133270 0.939141 0.638346
C69_2 C 0.16468(19) 0.8917(6) 0.8652(2)
H39_2 H 0.153427 0.828346 0.843007
C70_2 C 0.38196(18) 0.7466(5) 0.8663(2)
H40_2 H 0.366083 0.696902 0.840497
C71_2 C 0.18105(19) 0.9121(6) 0.70324(16)
H41_2 H 0.171715 0.980385 0.715655
C72_2 C 0.1391(2) 0.9263(7) 0.8894(2)
H42_2 H 0.111593 0.884113 0.883780
C74_2 C 0.4290(2) 0.7294(7) 0.8914(3)
H44_2 H 0.444036 0.665687 0.882868
Cd6 Cd 0.09937(2) 0.26835(3) 0.99616(2)
C64_2 C 0.00549(18) 0.2862(6) 0.9550(2)
O11 O 0.0276(3) 0.3832(10) 0.9697(4)
O12 O 0.0207(3) 0.1680(9) 0.9670(3)
C20_2 C 0.2393(2) 0.6406(6) 0.9723(2)
C21_2 C 0.2805(2) 0.7072(5) 0.9819(2)
C33_2 C 0.2318(3) 0.5308(8) 0.9422(3)
H18_2 H 0.203297 0.490118 0.932657
C34_2 C 0.3107(3) 0.6603(7) 0.9634(3)
H19_2 H 0.338254 0.703899 0.970370
C35_2 C 0.2577(4) 0.4852(8) 0.9280(3)
H20_2 H 0.250793 0.407806 0.912138
C37_2 C 0.3010(4) 0.5567(9) 0.9367(4)
H22_2 H 0.320399 0.530246 0.924035
N3_2 N 0.12056(15) 0.4609(5) 0.97985(16)
N4_2 N 0.16695(16) 0.6147(5) 0.98029(18)
C38_2 C 0.16327(18) 0.4978(5) 0.99420(16)
C41_2 C 0.20889(19) 0.6843(6) 0.9911(2)
C42_2 C 0.0950(2) 0.5634(7) 0.9562(3)
H24_2 H 0.062901 0.563916 0.941742
C46_2 C 0.1216(3) 0.6645(8) 0.9562(3)
H28_2 H 0.112414 0.745848 0.943563
O9_2 O 0.1362(2) 0.1571(6) 0.96634(18)
C60_2 C 0.15474(17) 0.0201(6) 0.92050(19)
C61_2 C 0.22068(18) 0.0469(6) 0.90612(16)
H33_2 H 0.248380 0.088364 0.912059
C67_2 C 0.1282(2) 0.0592(7) 0.9462(2)
C73_2 C 0.1951(2) 0.0848(7) 0.9301(2)
H43_2 H 0.205301 0.150773 0.951356
Cd4 Cd 0.40063(2) 0.23165(3) 0.00384(2)
H18_3 H 0.296703 0.990118 0.567343
C35_3 C 0.2423(4) 0.9852(8) 0.5720(3)
H20_3 H 0.249207 0.907806 0.587862
N3_3 N 0.37944(15) 0.9609(5) 0.52015(16)
C38_3 C 0.33673(18) 0.9978(5) 0.50580(16)
H23_3 H 0.311516 0.947328 0.487695
Cd2_2 Cd 0.40063(2) 0.76835(3) 0.50384(2)
O7_2 O 0.33208(14) 0.1921(4) 0.93056(13)
O8_2 O 0.38638(14) 0.3255(5) 0.93624(12)
C48_3 C 0.21864(16) 0.3933(5) 0.62536(16)
H30_3 H 0.204756 0.404417 0.594088
C49_3 C 0.19216(14) 0.3547(4) 0.64777(15)
C50_3 C 0.26571(15) 0.4147(5) 0.65015(15)
C51_3 C 0.32571(16) 0.2933(5) 0.86226(15)
C52_3 C 0.28289(16) 0.3334(5) 0.76879(16)
C53_3 C 0.34915(18) 0.2673(5) 0.91220(16)
C54_3 C 0.29463(16) 0.4499(5) 0.62582(15)
C55_3 C 0.21343(15) 0.3363(5) 0.69382(16)
H31_3 H 0.195785 0.312075 0.708719
C56_3 C 0.26211(16) 0.3537(5) 0.71936(15)
O9_3 O 0.3638(2) 0.6571(6) 0.53366(18)
C57_3 C 0.28632(15) 0.3921(5) 0.69578(15)
H32_3 H 0.318101 0.403340 0.711538
C58_3 C 0.04634(16) 0.3031(5) 0.57208(17)
C59_3 C 0.14142(14) 0.3358(5) 0.62110(16)
C60_3 C 0.34526(17) 0.5201(6) 0.57950(19)
C61_3 C 0.27932(18) 0.5469(6) 0.59388(16)
H33_3 H 0.251620 0.588364 0.587941
O10_3 O 0.4070(2) 0.4846(5) 0.5585(2)
C62_3 C 0.11566(15) 0.4129(5) 0.58341(16)
H34_3 H 0.130414 0.476789 0.574680
C63_3 C 0.06986(16) 0.3956(5) 0.55970(18)
H35_3 H 0.053579 0.446752 0.534428
C65_3 C 0.26916(19) 0.2416(5) 0.78819(18)
H36_3 H 0.244276 0.190269 0.769932
C66_3 C 0.2904(2) 0.2180(6) 0.83505(16)
H37_3 H 0.280159 0.151007 0.847186
C67_3 C 0.3718(2) 0.5592(7) 0.5538(2)
C68_3 C 0.34135(19) 0.3895(6) 0.84339(17)
H38_3 H 0.366730 0.439141 0.861654
C69_3 C 0.33532(19) 0.3917(6) 0.6348(2)
H39_3 H 0.346573 0.328346 0.656993
C70_3 C 0.11804(18) 0.2466(5) 0.6337(2)
H40_3 H 0.133917 0.196902 0.659503
C71_3 C 0.31895(19) 0.4121(6) 0.79676(16)
H41_3 H 0.328285 0.480385 0.784345
C72_3 C 0.3609(2) 0.4263(7) 0.6106(2)
H42_3 H 0.388407 0.384113 0.616220
C73_3 C 0.3049(2) 0.5848(7) 0.5699(2)
H43_3 H 0.294699 0.650773 0.548644
C74_3 C 0.0710(2) 0.2294(7) 0.6086(3)
H44_3 H 0.055964 0.165687 0.617132
O13_2 O 0.33208(14) 0.8079(4) 0.43056(13)
O15_2 O 0.38638(14) 0.6745(5) 0.43624(12)
O18_2 O 0.4724(3) 0.8832(10) 0.5303(4)
O20_2 O 0.4793(3) 0.6680(9) 0.5330(3)
C64_3 C 0.99451(18) 0.2862(6) 0.5450(2)
O11_2 O 0.9724(3) 0.3832(10) 0.5303(4)
O12_2 O 0.9793(3) 0.1680(9) 0.5330(3)
Cd5 Cd 0.90063(2) 0.26835(3) 0.50384(2)
O1_2 O 0.83208(14) 0.3079(4) 0.43056(13)
O2_2 O 0.88638(14) 0.1745(5) 0.43624(12)
C1_3 C 0.71864(16) 0.1067(5) 0.12536(16)
H1_3 H 0.704756 0.095583 0.094088
C2_3 C 0.69216(14) 0.1453(4) 0.14777(15)
C3_3 C 0.76571(15) 0.0853(5) 0.15015(15)
C4_3 C 0.82571(16) 0.2067(5) 0.36226(15)
C5_3 C 0.78289(16) 0.1666(5) 0.26879(16)
C6_3 C 0.84915(18) 0.2327(5) 0.41220(16)
C7_3 C 0.79463(16) 0.0501(5) 0.12582(15)
C8_3 C 0.71343(15) 0.1637(5) 0.19382(16)
H2_3 H 0.695785 0.187925 0.208719
C9_3 C 0.76211(16) 0.1463(5) 0.21936(15)
C10_3 C 0.78632(15) 0.1079(5) 0.19578(15)
H3_3 H 0.818101 0.096660 0.211538
C11_3 C 0.54634(16) 0.1969(5) 0.07208(17)
C12_3 C 0.64142(14) 0.1642(5) 0.12110(16)
O4_3 O 0.9070(2) 0.0154(5) 0.0585(2)
C16_3 C 0.61566(15) 0.0871(5) 0.08341(16)
H6_3 H 0.630414 0.023211 0.074680
C17_3 C 0.56986(16) 0.1044(5) 0.05970(18)
H7_3 H 0.553579 0.053248 0.034428
C18_3 C 0.49451(18) 0.2138(6) 0.0450(2)
C19_3 C 0.76916(19) 0.2584(5) 0.28819(18)
H8_3 H 0.744276 0.309731 0.269932
C22_3 C 0.7904(2) 0.2820(6) 0.33505(16)
H9_3 H 0.780159 0.348993 0.347186
C25_3 C 0.84135(19) 0.1105(6) 0.34339(17)
H10_3 H 0.866730 0.060859 0.361654
C26_3 C 0.83532(19) 0.1083(6) 0.1348(2)
H11_3 H 0.846573 0.171654 0.156993
C27_3 C 0.61804(18) 0.2534(5) 0.1337(2)
H12_3 H 0.633917 0.303098 0.159503
C28_3 C 0.81895(19) 0.0879(6) 0.29676(16)
H13_3 H 0.828285 0.019615 0.284345
C29_3 C 0.8609(2) 0.0737(7) 0.1106(2)
H14_3 H 0.888407 0.115887 0.116220
O5_2 O 0.4724(3) 0.1168(10) 0.0303(4)
C31_3 C 0.5710(2) 0.2706(7) 0.1086(3)
H16_3 H 0.555964 0.334313 0.117132
O6_2 O 0.4793(3) 0.3320(9) 0.0330(3)
H5_3 H 0.811516 0.552672 0.987695
C20_3 C 0.7393(2) 0.1406(6) 0.9723(2)
C21_3 C 0.7805(2) 0.2072(5) 0.9819(2)
C33_3 C 0.7318(3) 0.0308(8) 0.9422(3)
C34_3 C 0.8107(3) 0.1603(7) 0.9634(3)
H19_3 H 0.838254 0.203899 0.970370
C37_3 C 0.8010(4) 0.0567(9) 0.9367(4)
H22_3 H 0.820399 0.030246 0.924035
N4_3 N 0.66695(16) 0.1147(5) 0.98029(18)
C41_3 C 0.70889(19) 0.1843(6) 0.9911(2)
C42_3 C 0.5950(2) 0.0634(7) 0.9562(3)
H24_3 H 0.562901 0.063916 0.941742
C46_3 C 0.6216(3) 0.1645(8) 0.9562(3)
H28_3 H 0.612414 0.245848 0.943563
O14_2 O 0.83208(14) 0.6921(4) 0.93056(13)
O16_2 O 0.88638(14) 0.8255(5) 0.93624(12)
N2_3 N 0.66695(16) 0.8853(5) 0.48029(18)
C20_4 C 0.7607(2) 0.6406(6) 0.5277(2)
C21_4 C 0.7195(2) 0.7072(5) 0.5181(2)
C24_3 C 0.70889(19) 0.8157(6) 0.4911(2)
C32_3 C 0.5950(2) 0.9366(7) 0.4562(3)
H17_3 H 0.562901 0.936084 0.441742
C33_4 C 0.7682(3) 0.5308(8) 0.5578(3)
H18_4 H 0.796703 0.490118 0.567343
C34_4 C 0.6893(3) 0.6603(7) 0.5366(3)
H19_4 H 0.661746 0.703899 0.529630
C35_4 C 0.7423(4) 0.4852(8) 0.5720(3)
H20_4 H 0.749207 0.407806 0.587862
C36_3 C 0.6216(3) 0.8355(8) 0.4562(3)
H21_3 H 0.612414 0.754152 0.443563
C37_4 C 0.6990(4) 0.5567(9) 0.5633(4)
H22_4 H 0.679601 0.530246 0.575965
N3_4 N 0.87944(15) 0.4609(5) 0.52015(16)
N4_4 N 0.83305(16) 0.6147(5) 0.51971(18)
C38_4 C 0.83673(18) 0.4978(5) 0.50580(16)
H23_4 H 0.811516 0.447328 0.487695
C39_3 C 0.7393(2) 0.8594(6) 0.4723(2)
C40_3 C 0.7805(2) 0.7928(5) 0.4819(2)
C41_4 C 0.79111(19) 0.6843(6) 0.5089(2)
C42_4 C 0.9050(2) 0.5634(7) 0.5438(3)
H24_4 H 0.937099 0.563916 0.558258
C43_3 C 0.7318(3) 0.9692(8) 0.4422(3)
C44_3 C 0.8107(3) 0.8397(7) 0.4634(3)
H26_3 H 0.838254 0.796101 0.470370
C46_4 C 0.8784(3) 0.6645(8) 0.5438(3)
H28_4 H 0.887586 0.745848 0.556437
C47_3 C 0.8010(4) 0.9433(9) 0.4367(4)
H29_3 H 0.820399 0.969754 0.424035
O9_4 O 0.8638(2) 0.1571(6) 0.53366(18)
C60_4 C 0.84526(17) 0.0201(6) 0.57950(19)
C61_4 C 0.77932(18) 0.0469(6) 0.59388(16)
H33_4 H 0.751620 0.088364 0.587941
C67_4 C 0.8718(2) 0.0592(7) 0.5538(2)
C73_4 C 0.8049(2) 0.0848(7) 0.5699(2)
H43_4 H 0.794699 0.150773 0.548644
C48_4 C 0.71864(16) 0.8933(5) 0.62536(16)
H30_4 H 0.704756 0.904417 0.594088
C49_4 C 0.69216(14) 0.8547(4) 0.64777(15)
C50_4 C 0.76571(15) 0.9147(5) 0.65015(15)
C51_4 C 0.82571(16) 0.7933(5) 0.86226(15)
C52_4 C 0.78289(16) 0.8334(5) 0.76879(16)
C53_4 C 0.84915(18) 0.7673(5) 0.91220(16)
C54_4 C 0.79463(16) 0.9499(5) 0.62582(15)
C55_4 C 0.71343(15) 0.8363(5) 0.69382(16)
H31_4 H 0.695785 0.812075 0.708719
C56_4 C 0.76211(16) 0.8537(5) 0.71936(15)
C57_4 C 0.78632(15) 0.8921(5) 0.69578(15)
H32_4 H 0.818101 0.903340 0.711538
C58_4 C 0.54634(16) 0.8031(5) 0.57208(17)
C59_4 C 0.64142(14) 0.8358(5) 0.62110(16)
O10_4 O 0.9070(2) 0.9846(5) 0.5585(2)
C62_4 C 0.61566(15) 0.9129(5) 0.58341(16)
H34_4 H 0.630414 0.976789 0.574680
C63_4 C 0.56986(16) 0.8956(5) 0.55970(18)
H35_4 H 0.553579 0.946752 0.534428
C64_4 C 0.49451(18) 0.7862(6) 0.5450(2)
C65_4 C 0.76916(19) 0.7416(5) 0.78819(18)
H36_4 H 0.744276 0.690269 0.769932
C66_4 C 0.7904(2) 0.7180(6) 0.83505(16)
H37_4 H 0.780159 0.651007 0.847186
C68_4 C 0.84135(19) 0.8895(6) 0.84339(17)
H38_4 H 0.866730 0.939141 0.861654
C69_4 C 0.83532(19) 0.8917(6) 0.6348(2)
H39_4 H 0.846573 0.828346 0.656993
C70_4 C 0.61804(18) 0.7466(5) 0.6337(2)
H40_4 H 0.633917 0.696902 0.659503
C71_4 C 0.81895(19) 0.9121(6) 0.79676(16)
H41_4 H 0.828285 0.980385 0.784345
C72_4 C 0.8609(2) 0.9263(7) 0.6106(2)
H42_4 H 0.888407 0.884113 0.616220
C74_4 C 0.5710(2) 0.7294(7) 0.6086(3)
H44_4 H 0.555964 0.665687 0.617132
N1_3 N 0.37944(15) 0.0391(5) 0.02015(16)
C1_4 C 0.21864(16) 0.6067(5) 0.12536(16)
H1_4 H 0.204756 0.595583 0.094088
C2_4 C 0.19216(14) 0.6453(4) 0.14777(15)
C3_4 C 0.26571(15) 0.5853(5) 0.15015(15)
C4_4 C 0.32571(16) 0.7067(5) 0.36226(15)
C5_4 C 0.28289(16) 0.6666(5) 0.26879(16)
C6_4 C 0.34915(18) 0.7327(5) 0.41220(16)
C7_4 C 0.29463(16) 0.5501(5) 0.12582(15)
C8_4 C 0.21343(15) 0.6637(5) 0.19382(16)
H2_4 H 0.195785 0.687925 0.208719
C9_4 C 0.26211(16) 0.6463(5) 0.21936(15)
O3_3 O 0.3638(2) 0.3429(6) 0.03366(18)
C10_4 C 0.28632(15) 0.6079(5) 0.19578(15)
H3_4 H 0.318101 0.596660 0.211538
C11_4 C 0.04634(16) 0.6969(5) 0.07208(17)
C12_4 C 0.14142(14) 0.6642(5) 0.12110(16)
C13_3 C 0.34526(17) 0.4799(6) 0.07950(19)
C14_3 C 0.27932(18) 0.4531(6) 0.09388(16)
H4_3 H 0.251620 0.411636 0.087941
C15_3 C 0.33673(18) 0.0022(5) 0.00580(16)
O4_4 O 0.4070(2) 0.5154(5) 0.0585(2)
C16_4 C 0.11566(15) 0.5871(5) 0.08341(16)
H6_4 H 0.130414 0.523211 0.074680
C17_4 C 0.06986(16) 0.6044(5) 0.05970(18)
H7_4 H 0.053579 0.553248 0.034428
C19_4 C 0.26916(19) 0.7584(5) 0.28819(18)
H8_4 H 0.244276 0.809731 0.269932
C22_4 C 0.2904(2) 0.7820(6) 0.33505(16)
H9_4 H 0.280159 0.848993 0.347186
C23_3 C 0.3718(2) 0.4408(7) 0.0538(2)
C25_4 C 0.34135(19) 0.6105(6) 0.34339(17)
H10_4 H 0.366730 0.560859 0.361654
C26_4 C 0.33532(19) 0.6083(6) 0.1348(2)
H11_4 H 0.346573 0.671654 0.156993
C27_4 C 0.11804(18) 0.7534(5) 0.1337(2)
H12_4 H 0.133917 0.803098 0.159503
C28_4 C 0.31895(19) 0.5879(6) 0.29676(16)
H13_4 H 0.328285 0.519615 0.284345
C29_4 C 0.3609(2) 0.5737(7) 0.1106(2)
H14_4 H 0.388407 0.615887 0.116220
C30_3 C 0.3049(2) 0.4152(7) 0.0699(2)
H15_3 H 0.294699 0.349227 0.048644
C31_4 C 0.0710(2) 0.7706(7) 0.1086(3)
H16_4 H 0.055964 0.834313 0.117132
H25_3 H 0.296703 0.009882 0.067343
C45_3 C 0.2423(4) 0.0148(8) 0.0720(3)
H27_3 H 0.249207 0.092194 0.087862
H5_4 H 0.311516 0.052672 0.987695
Cd1_2 Cd 0.90063(2) 0.73165(3) 0.00384(2)
N1_4 N 0.87944(15) 0.5391(5) 0.02015(16)
N2_4 N 0.83305(16) 0.3853(5) 0.01971(18)
O3_4 O 0.8638(2) 0.8429(6) 0.03366(18)
C13_4 C 0.84526(17) 0.9799(6) 0.07950(19)
C14_4 C 0.77932(18) 0.9531(6) 0.09388(16)
H4_4 H 0.751620 0.911636 0.087941
C15_4 C 0.83673(18) 0.5022(5) 0.00580(16)
C23_4 C 0.8718(2) 0.9408(7) 0.0538(2)
C24_4 C 0.79111(19) 0.3157(6) 0.0089(2)
C30_4 C 0.8049(2) 0.9152(7) 0.0699(2)
H15_4 H 0.794699 0.849227 0.048644
C32_4 C 0.9050(2) 0.4366(7) 0.0438(3)
H17_4 H 0.937099 0.436084 0.058258
C36_4 C 0.8784(3) 0.3355(8) 0.0438(3)
H21_4 H 0.887586 0.254152 0.056437
C39_4 C 0.7607(2) 0.3594(6) 0.0277(2)
C40_4 C 0.7195(2) 0.2928(5) 0.0181(2)
C43_4 C 0.7682(3) 0.4692(8) 0.0578(3)
H25_4 H 0.796703 0.509882 0.067343
C44_4 C 0.6893(3) 0.3397(7) 0.0366(3)
H26_4 H 0.661746 0.296101 0.029630
C45_4 C 0.7423(4) 0.5148(8) 0.0720(3)
H27_4 H 0.749207 0.592194 0.087862
C47_4 C 0.6990(4) 0.4433(9) 0.0633(4)
H29_4 H 0.679601 0.469754 0.075965
O17_2 O 0.9724(3) 0.6168(10) 0.0303(4)
O19_2 O 0.9793(3) 0.8320(9) 0.0330(3)
C18_4 C 0.99451(18) 0.7138(6) 0.0450(2)
loop_
_geom_bond_atom_site_label_1
_geom_bond_atom_site_label_2
_geom_bond_site_symmetry_1
_geom_bond_site_symmetry_2
O1 C6 1_555 1_555
O2 C6 1_555 1_555
C1 H1 1_555 1_555
C2 C1 1_555 1_555
C3 C1 1_555 1_555
C4 C6 1_555 1_555
C5 C9 1_555 1_555
C7 C3 1_555 1_555
C8 C2 1_555 1_555
H2 C8 1_555 1_555
C9 C8 1_555 1_555
C10 C3 1_555 1_555
H3 C10 1_555 1_555
C11 C17 1_555 1_555
C12 C2 1_555 1_555
C16 C12 1_555 1_555
H6 C16 1_555 1_555
C17 C16 1_555 1_555
H7 C17 1_555 1_555
C18 C11 1_555 1_555
C19 C5 1_555 1_555
H8 C19 1_555 1_555
C22 C4 1_555 1_555
H9 C22 1_555 1_555
C25 C4 1_555 1_555
H10 C25 1_555 1_555
C26 C7 1_555 1_555
H11 C26 1_555 1_555
C27 C12 1_555 1_555
H12 C27 1_555 1_555
C28 C5 1_555 1_555
H13 C28 1_555 1_555
H14 C29 1_555 1_555
O5 C18 1_555 1_555
C31 C11 1_555 1_555
H16 C31 1_555 1_555
O6 C18 1_555 1_555
Cd3 O5 1_555 1_555
C9 C10 1_555 1_555
C19 C22 1_555 1_555
C25 C28 1_555 1_555
C26 C29 1_555 1_555
C27 C31 1_555 1_555
O6 Cd3 1_555 1_555
Cd1 N1 1_555 1_555
N1 C15 1_555 1_555
N2 C15 1_555 1_555
O3 Cd1 1_555 1_555
C13 C23 1_555 1_555
H4 C14 1_555 1_555
C15 H5 1_555 1_555
C20 C21 1_555 1_555
C21 C24 1_555 1_555
C23 O3 1_555 1_555
C24 N2 1_555 1_555
C30 C13 1_555 1_555
H15 C30 1_555 1_555
C32 N1 1_555 1_555
H17 C32 1_555 1_555
C33 C20 1_555 1_555
C34 C21 1_555 1_555
H19 C34 1_555 1_555
C36 N2 1_555 1_555
H21 C36 1_555 1_555
C37 C34 1_555 1_555
H22 C37 1_555 1_555
C39 C24 1_555 1_555
C40 C39 1_555 1_555
C41 C20 1_555 1_555
H24 C42 1_555 1_555
C43 C39 1_555 1_555
H25 C43 1_555 1_555
C44 C40 1_555 1_555
H26 C44 1_555 1_555
C45 C43 1_555 1_555
H27 C45 1_555 1_555
C46 N4 1_555 1_555
H28 C46 1_555 1_555
C47 C44 1_555 1_555
H29 C47 1_555 1_555
O14 Cd1 1_555 1_555
O16 Cd1 1_555 1_555
O17 Cd1 1_555 1_555
O19 Cd1 1_555 1_555
C14 C30 1_555 1_555
C32 C36 1_555 1_555
N4 C41 1_555 1_555
C40 C41 1_555 1_555
C42 C46 1_555 1_555
C45 C47 1_555 1_555
H20 C35 1_555 1_555
N3 C38 1_555 1_555
Cd2 N3 1_555 1_555
O7 C53 1_555 1_555
O8 C53 1_555 1_555
C48 H30 1_555 1_555
C49 C48 1_555 1_555
C50 C48 1_555 1_555
C51 C53 1_555 1_555
C52 C56 1_555 1_555
C54 C50 1_555 1_555
C55 C49 1_555 1_555
H31 C55 1_555 1_555
C56 C55 1_555 1_555
O9 Cd2 1_555 1_555
C57 C50 1_555 1_555
H32 C57 1_555 1_555
C58 C63 1_555 1_555
C59 C49 1_555 1_555
C60 C67 1_555 1_555
C61 C54 1_555 1_555
H33 C61 1_555 1_555
O10 C67 1_555 1_555
C62 C59 1_555 1_555
H34 C62 1_555 1_555
C63 C62 1_555 1_555
H35 C63 1_555 1_555
C65 C52 1_555 1_555
H36 C65 1_555 1_555
C66 C51 1_555 1_555
H37 C66 1_555 1_555
C67 O9 1_555 1_555
C68 C51 1_555 1_555
H38 C68 1_555 1_555
C69 C54 1_555 1_555
H39 C69 1_555 1_555
C70 C59 1_555 1_555
H40 C70 1_555 1_555
C71 C52 1_555 1_555
H41 C71 1_555 1_555
C72 C60 1_555 1_555
H42 C72 1_555 1_555
C73 C60 1_555 1_555
H43 C73 1_555 1_555
C74 C58 1_555 1_555
H44 C74 1_555 1_555
Cd3 O7 1_555 1_555
O18 Cd2 1_555 1_555
O20 Cd2 1_555 1_555
O8 Cd3 1_555 1_555
C56 C57 1_555 1_555
C61 C73 1_555 1_555
C65 C66 1_555 1_555
C68 C71 1_555 1_555
C69 C72 1_555 1_555
C70 C74 1_555 1_555
O17 C18_2 1_555 1_555
O19 C18_2 1_555 1_555
Cd3 N1_2 1_555 1_555
O13 C6_2 1_555 1_555
O15 C6_2 1_555 1_555
N1_2 C15_2 1_555 1_555
C1_2 H1_2 1_555 1_555
C2_2 C1_2 1_555 1_555
C3_2 C1_2 1_555 1_555
C4_2 C6_2 1_555 1_555
C5_2 C9_2 1_555 1_555
C7_2 C3_2 1_555 1_555
C8_2 C2_2 1_555 1_555
H2_2 C8_2 1_555 1_555
C9_2 C8_2 1_555 1_555
O3_2 Cd3 1_555 1_555
C10_2 C3_2 1_555 1_555
H3_2 C10_2 1_555 1_555
C11_2 C17_2 1_555 1_555
C12_2 C2_2 1_555 1_555
C13_2 C23_2 1_555 1_555
C14_2 C7_2 1_555 1_555
H4_2 C14_2 1_555 1_555
C15_2 H5_2 1_555 1_555
O4_2 C23_2 1_555 1_555
C16_2 C12_2 1_555 1_555
H6_2 C16_2 1_555 1_555
C17_2 C16_2 1_555 1_555
H7_2 C17_2 1_555 1_555
C19_2 C5_2 1_555 1_555
H8_2 C19_2 1_555 1_555
C22_2 C4_2 1_555 1_555
H9_2 C22_2 1_555 1_555
C23_2 O3_2 1_555 1_555
C25_2 C4_2 1_555 1_555
H10_2 C25_2 1_555 1_555
C26_2 C7_2 1_555 1_555
H11_2 C26_2 1_555 1_555
C27_2 C12_2 1_555 1_555
H12_2 C27_2 1_555 1_555
C28_2 C5_2 1_555 1_555
H13_2 C28_2 1_555 1_555
C29_2 C13_2 1_555 1_555
H14_2 C29_2 1_555 1_555
C30_2 C13_2 1_555 1_555
H15_2 C30_2 1_555 1_555
C31_2 C11_2 1_555 1_555
H16_2 C31_2 1_555 1_555
H27_2 C45_2 1_555 1_555
C9_2 C10_2 1_555 1_555
C14_2 C30_2 1_555 1_555
C19_2 C22_2 1_555 1_555
C25_2 C28_2 1_555 1_555
C26_2 C29_2 1_555 1_555
C27_2 C31_2 1_555 1_555
C24_2 N2_2 1_555 1_555
H17_2 C32_2 1_555 1_555
C36_2 N2_2 1_555 1_555
H21_2 C36_2 1_555 1_555
C39_2 C24_2 1_555 1_555
C40_2 C39_2 1_555 1_555
C43_2 C39_2 1_555 1_555
C44_2 C40_2 1_555 1_555
H26_2 C44_2 1_555 1_555
C47_2 C44_2 1_555 1_555
H29_2 C47_2 1_555 1_555
C32_2 C36_2 1_555 1_555
O14 C53_2 1_555 1_555
O16 C53_2 1_555 1_555
C48_2 H30_2 1_555 1_555
C49_2 C48_2 1_555 1_555
C50_2 C48_2 1_555 1_555
C51_2 C53_2 1_555 1_555
C52_2 C56_2 1_555 1_555
C54_2 C50_2 1_555 1_555
C55_2 C49_2 1_555 1_555
H31_2 C55_2 1_555 1_555
C56_2 C55_2 1_555 1_555
C57_2 C50_2 1_555 1_555
H32_2 C57_2 1_555 1_555
C58_2 C63_2 1_555 1_555
C59_2 C49_2 1_555 1_555
C62_2 C59_2 1_555 1_555
H34_2 C62_2 1_555 1_555
C63_2 C62_2 1_555 1_555
H35_2 C63_2 1_555 1_555
C64 C58_2 1_555 1_555
C65_2 C52_2 1_555 1_555
H36_2 C65_2 1_555 1_555
C66_2 C51_2 1_555 1_555
H37_2 C66_2 1_555 1_555
C68_2 C51_2 1_555 1_555
H38_2 C68_2 1_555 1_555
C69_2 C54_2 1_555 1_555
H39_2 C69_2 1_555 1_555
C70_2 C59_2 1_555 1_555
H40_2 C70_2 1_555 1_555
C71_2 C52_2 1_555 1_555
H41_2 C71_2 1_555 1_555
H42_2 C72_2 1_555 1_555
O18 C64 1_555 1_555
C74_2 C58_2 1_555 1_555
H44_2 C74_2 1_555 1_555
O20 C64 1_555 1_555
C56_2 C57_2 1_555 1_555
C65_2 C66_2 1_555 1_555
C68_2 C71_2 1_555 1_555
C69_2 C72_2 1_555 1_555
C70_2 C74_2 1_555 1_555
O11 C64_2 1_555 1_555
O12 C64_2 1_555 1_555
Cd6 O11 1_555 1_555
O12 Cd6 1_555 1_555
C20_2 C21_2 1_555 1_555
C33_2 C20_2 1_555 1_555
H18_2 C33_2 1_555 1_555
C34_2 C21_2 1_555 1_555
H19_2 C34_2 1_555 1_555
C35_2 C33_2 1_555 1_555
H20_2 C35_2 1_555 1_555
C37_2 C34_2 1_555 1_555
H22_2 C37_2 1_555 1_555
N3_2 C38_2 1_555 1_555
N4_2 C38_2 1_555 1_555
C41_2 C20_2 1_555 1_555
C42_2 N3_2 1_555 1_555
H24_2 C42_2 1_555 1_555
C46_2 N4_2 1_555 1_555
H28_2 C46_2 1_555 1_555
Cd6 N3_2 1_555 1_555
O9_2 Cd6 1_555 1_555
C60_2 C67_2 1_555 1_555
H33_2 C61_2 1_555 1_555
C67_2 O9_2 1_555 1_555
C73_2 C60_2 1_555 1_555
H43_2 C73_2 1_555 1_555
C35_2 C37_2 1_555 1_555
N4_2 C41_2 1_555 1_555
C42_2 C46_2 1_555 1_555
C61_2 C73_2 1_555 1_555
H20_3 C35_3 1_555 1_555
N3_3 C38_3 1_555 1_555
C38_3 H23_3 1_555 1_555
Cd2_2 N3_3 1_555 1_555
O7_2 C53_3 1_555 1_555
O8_2 C53_3 1_555 1_555
C48_3 H30_3 1_555 1_555
C49_3 C48_3 1_555 1_555
C50_3 C48_3 1_555 1_555
C51_3 C53_3 1_555 1_555
C52_3 C56_3 1_555 1_555
C54_3 C50_3 1_555 1_555
C55_3 C49_3 1_555 1_555
H31_3 C55_3 1_555 1_555
C56_3 C55_3 1_555 1_555
O9_3 Cd2_2 1_555 1_555
C57_3 C50_3 1_555 1_555
H32_3 C57_3 1_555 1_555
C58_3 C63_3 1_555 1_555
C59_3 C49_3 1_555 1_555
C60_3 C67_3 1_555 1_555
C61_3 C54_3 1_555 1_555
H33_3 C61_3 1_555 1_555
O10_3 C67_3 1_555 1_555
C62_3 C59_3 1_555 1_555
H34_3 C62_3 1_555 1_555
C63_3 C62_3 1_555 1_555
H35_3 C63_3 1_555 1_555
C65_3 C52_3 1_555 1_555
H36_3 C65_3 1_555 1_555
C66_3 C51_3 1_555 1_555
H37_3 C66_3 1_555 1_555
C67_3 O9_3 1_555 1_555
C68_3 C51_3 1_555 1_555
H38_3 C68_3 1_555 1_555
C69_3 C54_3 1_555 1_555
H39_3 C69_3 1_555 1_555
C70_3 C59_3 1_555 1_555
H40_3 C70_3 1_555 1_555
C71_3 C52_3 1_555 1_555
H41_3 C71_3 1_555 1_555
C72_3 C60_3 1_555 1_555
H42_3 C72_3 1_555 1_555
C73_3 C60_3 1_555 1_555
H43_3 C73_3 1_555 1_555
C74_3 C58_3 1_555 1_555
H44_3 C74_3 1_555 1_555
O13_2 Cd2_2 1_555 1_555
O15_2 Cd2_2 1_555 1_555
O18_2 Cd2_2 1_555 1_555
O20_2 Cd2_2 1_555 1_555
C56_3 C57_3 1_555 1_555
C61_3 C73_3 1_555 1_555
C65_3 C66_3 1_555 1_555
C68_3 C71_3 1_555 1_555
C69_3 C72_3 1_555 1_555
C70_3 C74_3 1_555 1_555
O11_2 C64_3 1_555 1_555
O12_2 C64_3 1_555 1_555
Cd5 O11_2 1_555 1_555
O12_2 Cd5 1_555 1_555
O1_2 C6_3 1_555 1_555
O2_2 C6_3 1_555 1_555
C1_3 H1_3 1_555 1_555
C2_3 C1_3 1_555 1_555
C3_3 C1_3 1_555 1_555
C4_3 C6_3 1_555 1_555
C5_3 C9_3 1_555 1_555
C7_3 C3_3 1_555 1_555
C8_3 C2_3 1_555 1_555
H2_3 C8_3 1_555 1_555
C9_3 C8_3 1_555 1_555
C10_3 C3_3 1_555 1_555
H3_3 C10_3 1_555 1_555
C11_3 C17_3 1_555 1_555
C12_3 C2_3 1_555 1_555
C16_3 C12_3 1_555 1_555
H6_3 C16_3 1_555 1_555
C17_3 C16_3 1_555 1_555
H7_3 C17_3 1_555 1_555
C18_3 C11_3 1_555 1_555
C19_3 C5_3 1_555 1_555
H8_3 C19_3 1_555 1_555
C22_3 C4_3 1_555 1_555
H9_3 C22_3 1_555 1_555
C25_3 C4_3 1_555 1_555
H10_3 C25_3 1_555 1_555
C26_3 C7_3 1_555 1_555
H11_3 C26_3 1_555 1_555
C27_3 C12_3 1_555 1_555
H12_3 C27_3 1_555 1_555
C28_3 C5_3 1_555 1_555
H13_3 C28_3 1_555 1_555
H14_3 C29_3 1_555 1_555
O5_2 C18_3 1_555 1_555
C31_3 C11_3 1_555 1_555
H16_3 C31_3 1_555 1_555
O6_2 C18_3 1_555 1_555
Cd4 O5_2 1_555 1_555
Cd5 O1_2 1_555 1_555
O2_2 Cd5 1_555 1_555
C9_3 C10_3 1_555 1_555
C19_3 C22_3 1_555 1_555
C25_3 C28_3 1_555 1_555
C26_3 C29_3 1_555 1_555
C27_3 C31_3 1_555 1_555
O6_2 Cd4 1_555 1_555
C20_3 C21_3 1_555 1_555
C33_3 C20_3 1_555 1_555
C34_3 C21_3 1_555 1_555
H19_3 C34_3 1_555 1_555
C37_3 C34_3 1_555 1_555
H22_3 C37_3 1_555 1_555
C41_3 C20_3 1_555 1_555
H24_3 C42_3 1_555 1_555
C46_3 N4_3 1_555 1_555
H28_3 C46_3 1_555 1_555
N4_3 C41_3 1_555 1_555
C42_3 C46_3 1_555 1_555
C20_4 C21_4 1_555 1_555
C21_4 C24_3 1_555 1_555
C24_3 N2_3 1_555 1_555
H17_3 C32_3 1_555 1_555
C33_4 C20_4 1_555 1_555
H18_4 C33_4 1_555 1_555
C34_4 C21_4 1_555 1_555
H19_4 C34_4 1_555 1_555
C35_4 C33_4 1_555 1_555
H20_4 C35_4 1_555 1_555
C36_3 N2_3 1_555 1_555
H21_3 C36_3 1_555 1_555
C37_4 C34_4 1_555 1_555
H22_4 C37_4 1_555 1_555
N3_4 C38_4 1_555 1_555
N4_4 C38_4 1_555 1_555
C38_4 H23_4 1_555 1_555
C39_3 C24_3 1_555 1_555
C40_3 C39_3 1_555 1_555
C41_4 C20_4 1_555 1_555
C42_4 N3_4 1_555 1_555
H24_4 C42_4 1_555 1_555
C43_3 C39_3 1_555 1_555
C44_3 C40_3 1_555 1_555
H26_3 C44_3 1_555 1_555
C46_4 N4_4 1_555 1_555
H28_4 C46_4 1_555 1_555
C47_3 C44_3 1_555 1_555
H29_3 C47_3 1_555 1_555
Cd5 N3_4 1_555 1_555
O9_4 Cd5 1_555 1_555
C60_4 C67_4 1_555 1_555
H33_4 C61_4 1_555 1_555
C67_4 O9_4 1_555 1_555
C73_4 C60_4 1_555 1_555
H43_4 C73_4 1_555 1_555
C32_3 C36_3 1_555 1_555
C35_4 C37_4 1_555 1_555
N4_4 C41_4 1_555 1_555
C40_3 C41_4 1_555 1_555
C42_4 C46_4 1_555 1_555
C61_4 C73_4 1_555 1_555
O14_2 C53_4 1_555 1_555
O16_2 C53_4 1_555 1_555
C48_4 H30_4 1_555 1_555
C49_4 C48_4 1_555 1_555
C50_4 C48_4 1_555 1_555
C51_4 C53_4 1_555 1_555
C52_4 C56_4 1_555 1_555
C54_4 C50_4 1_555 1_555
C55_4 C49_4 1_555 1_555
H31_4 C55_4 1_555 1_555
C56_4 C55_4 1_555 1_555
C57_4 C50_4 1_555 1_555
H32_4 C57_4 1_555 1_555
C58_4 C63_4 1_555 1_555
C59_4 C49_4 1_555 1_555
C62_4 C59_4 1_555 1_555
H34_4 C62_4 1_555 1_555
C63_4 C62_4 1_555 1_555
H35_4 C63_4 1_555 1_555
C64_4 C58_4 1_555 1_555
C65_4 C52_4 1_555 1_555
H36_4 C65_4 1_555 1_555
C66_4 C51_4 1_555 1_555
H37_4 C66_4 1_555 1_555
C68_4 C51_4 1_555 1_555
H38_4 C68_4 1_555 1_555
C69_4 C54_4 1_555 1_555
H39_4 C69_4 1_555 1_555
C70_4 C59_4 1_555 1_555
H40_4 C70_4 1_555 1_555
C71_4 C52_4 1_555 1_555
H41_4 C71_4 1_555 1_555
H42_4 C72_4 1_555 1_555
O18_2 C64_4 1_555 1_555
C74_4 C58_4 1_555 1_555
H44_4 C74_4 1_555 1_555
O20_2 C64_4 1_555 1_555
C56_4 C57_4 1_555 1_555
C65_4 C66_4 1_555 1_555
C68_4 C71_4 1_555 1_555
C69_4 C72_4 1_555 1_555
C70_4 C74_4 1_555 1_555
Cd4 N1_3 1_555 1_555
O13_2 C6_4 1_555 1_555
O15_2 C6_4 1_555 1_555
N1_3 C15_3 1_555 1_555
C1_4 H1_4 1_555 1_555
C2_4 C1_4 1_555 1_555
C3_4 C1_4 1_555 1_555
C4_4 C6_4 1_555 1_555
C5_4 C9_4 1_555 1_555
C7_4 C3_4 1_555 1_555
C8_4 C2_4 1_555 1_555
H2_4 C8_4 1_555 1_555
C9_4 C8_4 1_555 1_555
O3_3 Cd4 1_555 1_555
C10_4 C3_4 1_555 1_555
H3_4 C10_4 1_555 1_555
C11_4 C17_4 1_555 1_555
C12_4 C2_4 1_555 1_555
C13_3 C23_3 1_555 1_555
C14_3 C7_4 1_555 1_555
H4_3 C14_3 1_555 1_555
O4_4 C23_3 1_555 1_555
C16_4 C12_4 1_555 1_555
H6_4 C16_4 1_555 1_555
C17_4 C16_4 1_555 1_555
H7_4 C17_4 1_555 1_555
C19_4 C5_4 1_555 1_555
H8_4 C19_4 1_555 1_555
C22_4 C4_4 1_555 1_555
H9_4 C22_4 1_555 1_555
C23_3 O3_3 1_555 1_555
C25_4 C4_4 1_555 1_555
H10_4 C25_4 1_555 1_555
C26_4 C7_4 1_555 1_555
H11_4 C26_4 1_555 1_555
C27_4 C12_4 1_555 1_555
H12_4 C27_4 1_555 1_555
C28_4 C5_4 1_555 1_555
H13_4 C28_4 1_555 1_555
C29_4 C13_3 1_555 1_555
H14_4 C29_4 1_555 1_555
C30_3 C13_3 1_555 1_555
H15_3 C30_3 1_555 1_555
C31_4 C11_4 1_555 1_555
H16_4 C31_4 1_555 1_555
H27_3 C45_3 1_555 1_555
C9_4 C10_4 1_555 1_555
C14_3 C30_3 1_555 1_555
C19_4 C22_4 1_555 1_555
C25_4 C28_4 1_555 1_555
C26_4 C29_4 1_555 1_555
C27_4 C31_4 1_555 1_555
Cd1_2 N1_4 1_555 1_555
N1_4 C15_4 1_555 1_555
N2_4 C15_4 1_555 1_555
O3_4 Cd1_2 1_555 1_555
C13_4 C23_4 1_555 1_555
H4_4 C14_4 1_555 1_555
C23_4 O3_4 1_555 1_555
C24_4 N2_4 1_555 1_555
C30_4 C13_4 1_555 1_555
H15_4 C30_4 1_555 1_555
C32_4 N1_4 1_555 1_555
H17_4 C32_4 1_555 1_555
C36_4 N2_4 1_555 1_555
H21_4 C36_4 1_555 1_555
C39_4 C24_4 1_555 1_555
C40_4 C39_4 1_555 1_555
C43_4 C39_4 1_555 1_555
H25_4 C43_4 1_555 1_555
C44_4 C40_4 1_555 1_555
H26_4 C44_4 1_555 1_555
C45_4 C43_4 1_555 1_555
H27_4 C45_4 1_555 1_555
C47_4 C44_4 1_555 1_555
H29_4 C47_4 1_555 1_555
O17_2 Cd1_2 1_555 1_555
O19_2 Cd1_2 1_555 1_555
C14_4 C30_4 1_555 1_555
C32_4 C36_4 1_555 1_555
C45_4 C47_4 1_555 1_555
O17_2 C18_4 1_555 1_555
O19_2 C18_4 1_555 1_555

#END
