
###############################################################################
#
# This file contains modified crystal structure data generated from the
# MOF subset of the Cambridge Structural Database (CSD) v543 
# hosted by the Cambridge Crystallographic Data Centre (CCDC).
#
# This work is licensed under the Creative Commons
# Attribution-NonCommercial-ShareAlike 4.0 International License.
# To view a copy of this license, visit
# http://creativecommons.org/licenses/by-nc-sa/4.0/
# or send a letter to
# Creative Commons, PO Box 1866, Mountain View, CA 94042, USA.
#
# CIF created using the CSD Python API on 29 September 2022
# The structure has been converted into the P1 space group
# The structure has a 3D framework
# The original CSD entry KUYJAS is in the monoclinic crystal system
# The framework has been calculated to contain at least 10.0% void space
# The void calculation uses a probe of radius 1.32A, grid spacing 0.4
# The framework is charged, counterions have been retained in the structure
# H atom positions have been added when not included in the experimental data
# Generated hydrogen atom positions removed from atoms on special positions
#
###############################################################################

data_KUYJAS
_chemical_formula_moiety         '(C230 H116 Ag16 F38 N48 O104 Ru18 S14 10+)n'
_symmetry_cell_setting           triclinic
_symmetry_space_group_name_H-M   'P 1'
_symmetry_Int_Tables_number      1
_space_group_name_Hall           'P 1'
loop_
_symmetry_equiv_pos_site_id
_symmetry_equiv_pos_as_xyz
1 x,y,z
_cell_length_a                   18.862(2)
_cell_length_b                   26.135(3)
_cell_length_c                   20.514(2)
_cell_angle_alpha                90
_cell_angle_beta                 91.362(2)
_cell_angle_gamma                90
_cell_volume                     10109.7
loop_
_atom_site_label
_atom_site_type_symbol
_atom_site_fract_x
_atom_site_fract_y
_atom_site_fract_z
F1 F 0.418(2) 0.500000 0.0029(18)
S1 S 0.2907(8) 0.500000 0.9609(7)
O1 O 0.2584(11) 0.500000 0.8943(10)
O2 O 0.2856(17) 0.5539(12) 0.9915(15)
F2 F 0.3955(14) 0.4622(10) 0.9148(12)
C1 C 0.385(3) 0.500000 0.951(2)
O3 O 0.2856(17) 0.4461(12) 0.9915(15)
F3 F 0.3955(14) 0.5378(10) 0.9148(12)
S1_2 S 0.7093(8) 0.500000 0.0391(7)
O1_2 O 0.7416(11) 0.500000 0.1057(10)
O2_2 O 0.7144(17) 0.5539(12) 0.0085(15)
F2_2 F 0.6045(14) 0.4622(10) 0.0852(12)
C1_2 C 0.615(3) 0.500000 0.049(2)
O3_2 O 0.7144(17) 0.4461(12) 0.0085(15)
F3_2 F 0.6045(14) 0.5378(10) 0.0852(12)
F1_2 F 0.582(2) 0.500000 0.9971(18)
F1_3 F 0.918(2) 0.000000 0.0029(18)
S1_3 S 0.7907(8) 0.000000 0.9609(7)
O1_3 O 0.7584(11) 0.000000 0.8943(10)
O2_3 O 0.7856(17) 0.0539(12) 0.9915(15)
C1_3 C 0.885(3) 0.000000 0.951(2)
F3_3 F 0.8955(14) 0.0378(10) 0.9148(12)
F1_4 F 0.918(2) 1.000000 0.0029(18)
S1_4 S 0.7907(8) 1.000000 0.9609(7)
O1_4 O 0.7584(11) 1.000000 0.8943(10)
F2_3 F 0.8955(14) 0.9622(10) 0.9148(12)
C1_4 C 0.885(3) 1.000000 0.951(2)
O3_3 O 0.7856(17) 0.9461(12) 0.9915(15)
S1_5 S 0.2093(8) 0.000000 0.0391(7)
O1_5 O 0.2416(11) 0.000000 0.1057(10)
O2_4 O 0.2144(17) 0.0539(12) 0.0085(15)
C1_5 C 0.115(3) 0.000000 0.049(2)
F3_4 F 0.1045(14) 0.0378(10) 0.0852(12)
F1_5 F 0.082(2) 0.000000 0.9971(18)
S1_6 S 0.2093(8) 1.000000 0.0391(7)
O1_6 O 0.2416(11) 1.000000 0.1057(10)
F2_4 F 0.1045(14) 0.9622(10) 0.0852(12)
C1_6 C 0.115(3) 1.000000 0.049(2)
O3_4 O 0.2144(17) 0.9461(12) 0.0085(15)
F1_6 F 0.082(2) 1.000000 0.9971(18)
S2 S 0.2396(7) 0.7052(5) 0.6968(6)
O4 O 0.2662(9) 0.6508(7) 0.6885(8)
O5 O 0.2519(15) 0.7205(11) 0.7582(14)
O6 O 0.2706(19) 0.7327(13) 0.6428(17)
F4 F 0.1085(17) 0.6718(11) 0.7325(15)
F5 F 0.133(2) 0.6907(15) 0.6324(19)
F6 F 0.107(3) 0.7451(14) 0.705(2)
C2 C 0.1446(11) 0.7035(17) 0.6943(18)
S2_2 S 0.7604(7) 0.7052(5) 0.3032(6)
O4_2 O 0.7338(9) 0.6508(7) 0.3115(8)
O5_2 O 0.7481(15) 0.7205(11) 0.2418(14)
O6_2 O 0.7294(19) 0.7327(13) 0.3572(17)
F4_2 F 0.8915(17) 0.6718(11) 0.2675(15)
F5_2 F 0.867(2) 0.6907(15) 0.3676(19)
F6_2 F 0.893(3) 0.7451(14) 0.295(2)
C2_2 C 0.8554(11) 0.7035(17) 0.3057(18)
S2_3 S 0.7396(7) 0.2052(5) 0.6968(6)
O4_3 O 0.7662(9) 0.1508(7) 0.6885(8)
O5_3 O 0.7519(15) 0.2205(11) 0.7582(14)
O6_3 O 0.7706(19) 0.2327(13) 0.6428(17)
F4_3 F 0.6085(17) 0.1718(11) 0.7325(15)
F5_3 F 0.633(2) 0.1907(15) 0.6324(19)
F6_3 F 0.607(3) 0.2451(14) 0.705(2)
C2_3 C 0.6446(11) 0.2035(17) 0.6943(18)
S2_4 S 0.2604(7) 0.2052(5) 0.3032(6)
O4_4 O 0.2338(9) 0.1508(7) 0.3115(8)
O5_4 O 0.2481(15) 0.2205(11) 0.2418(14)
O6_4 O 0.2294(19) 0.2327(13) 0.3572(17)
F4_4 F 0.3915(17) 0.1718(11) 0.2675(15)
F5_4 F 0.367(2) 0.1907(15) 0.3676(19)
F6_4 F 0.393(3) 0.2451(14) 0.295(2)
C2_4 C 0.3554(11) 0.2035(17) 0.3057(18)
S2_5 S 0.7604(7) 0.2948(5) 0.3032(6)
O4_5 O 0.7338(9) 0.3492(7) 0.3115(8)
O5_5 O 0.7481(15) 0.2795(11) 0.2418(14)
O6_5 O 0.7294(19) 0.2673(13) 0.3572(17)
F4_5 F 0.8915(17) 0.3282(11) 0.2675(15)
F5_5 F 0.867(2) 0.3093(15) 0.3676(19)
F6_5 F 0.893(3) 0.2549(14) 0.295(2)
C2_5 C 0.8554(11) 0.2965(17) 0.3057(18)
S2_6 S 0.2396(7) 0.2948(5) 0.6968(6)
O4_6 O 0.2662(9) 0.3492(7) 0.6885(8)
O5_6 O 0.2519(15) 0.2795(11) 0.7582(14)
O6_6 O 0.2706(19) 0.2673(13) 0.6428(17)
F4_6 F 0.1085(17) 0.3282(11) 0.7325(15)
F5_6 F 0.133(2) 0.3093(15) 0.6324(19)
F6_6 F 0.107(3) 0.2549(14) 0.705(2)
C2_6 C 0.1446(11) 0.2965(17) 0.6943(18)
S2_7 S 0.2604(7) 0.7948(5) 0.3032(6)
O4_7 O 0.2338(9) 0.8492(7) 0.3115(8)
O5_7 O 0.2481(15) 0.7795(11) 0.2418(14)
O6_7 O 0.2294(19) 0.7673(13) 0.3572(17)
F4_7 F 0.3915(17) 0.8282(11) 0.2675(15)
F5_7 F 0.367(2) 0.8093(15) 0.3676(19)
F6_7 F 0.393(3) 0.7549(14) 0.295(2)
C2_7 C 0.3554(11) 0.7965(17) 0.3057(18)
S2_8 S 0.7396(7) 0.7948(5) 0.6968(6)
O4_8 O 0.7662(9) 0.8492(7) 0.6885(8)
O5_8 O 0.7519(15) 0.7795(11) 0.7582(14)
O6_8 O 0.7706(19) 0.7673(13) 0.6428(17)
F4_8 F 0.6085(17) 0.8282(11) 0.7325(15)
F5_8 F 0.633(2) 0.8093(15) 0.6324(19)
F6_8 F 0.607(3) 0.7549(14) 0.705(2)
C2_8 C 0.6446(11) 0.7965(17) 0.6943(18)
Ag5 Ag 0.000000 0.26611(7) 0.000000
Ru3 Ru 0.54172(10) 0.000000 0.96095(8)
O10 O 0.6166(9) 0.000000 0.8769(7)
O26 O 0.4866(6) 0.0550(3) 0.9124(5)
H19 H 0.590139 0.00904273 0.836087
H20 H 0.654782 0.0254967 0.885231
Ru1 Ru 0.78422(9) 0.500000 0.32048(8)
Ru2 Ru 0.66360(9) 0.500000 0.31002(8)
Ru3_2 Ru 0.54172(10) 1.000000 0.96095(8)
Ag1 Ag 0.500000 0.23389(7) 0.000000
Ag2 Ag 0.44702(13) 0.73154(8) 0.62937(10)
O7 O 0.7897(5) 0.4476(4) 0.2501(5)
O8 O 0.6697(5) 0.4457(4) 0.2408(5)
O9 O 0.7800(6) 0.5546(4) 0.3905(5)
O10_2 O 0.6166(9) 1.000000 0.8769(7)
O11 O 0.4018(6) 0.9452(3) 0.9910(5)
O12 O 0.6609(7) 0.5546(4) 0.3808(5)
O13 O 0.4866(6) 0.9450(3) 0.9124(5)
O14 O 0.5448(9) 0.500000 0.2958(10)
C3 C 0.7342(9) 0.4295(6) 0.2260(7)
N1 N 0.9304(9) 0.3196(5) 0.0548(8)
O15 O 0.9015(7) 0.500000 0.3331(8)
C4 C 0.7176(11) 0.5720(7) 0.4049(8)
C5 C 0.8770(11) 0.3294(6) 0.0783(10)
C6 C 0.8074(10) 0.3419(6) 0.1040(8)
N2 N 0.5730(10) 0.2785(8) 0.0617(9)
C7 C 0.7118(10) 0.6105(7) 0.4542(8)
C8 C 0.6829(10) 0.3296(6) 0.1048(8)
C9 C 0.7458(11) 0.3168(6) 0.0793(8)
H1 H 0.748688 0.291771 0.045840
C10 C 0.7365(8) 0.3908(6) 0.1737(8)
C11 C 0.3903(9) 0.8890(6) 0.8996(8)
C12 C 0.8015(8) 0.3792(5) 0.1464(7)
H2 H 0.842180 0.398673 0.158695
C13 C 0.6225(11) 0.3011(7) 0.0807(9)
C14 C 0.4259(9) 0.9282(6) 0.9379(9)
C15 C 0.6770(9) 0.3672(6) 0.1503(7)
H3 H 0.631774 0.376881 0.165488
C16 C 0.7738(13) 0.6361(7) 0.4733(8)
H4 H 0.817445 0.626408 0.454636
C17 C 0.3246(10) 0.8738(6) 0.9203(8)
H5 H 0.304642 0.890082 0.956959
C18 C 0.4187(9) 0.8649(6) 0.8502(7)
H6 H 0.464747 0.874133 0.836569
C19 C 0.6530(12) 0.6275(7) 0.4796(8)
H7 H 0.609870 0.611843 0.465477
C20 C 0.2867(11) 0.8349(7) 0.8883(10)
C21 C 0.3814(13) 0.8256(7) 0.8174(10)
N3 N 0.1648(11) 0.8036(7) 0.9240(9)
N4 N 0.4432(11) 0.7798(8) 0.7197(11)
C22 C 0.3173(12) 0.8095(7) 0.8364(10)
H8 H 0.293702 0.781849 0.815145
C23 C 0.2172(13) 0.8185(9) 0.9089(11)
C24 C 0.4148(14) 0.8032(9) 0.7614(11)
N5 N 0.5336(12) 0.6928(9) 0.5784(10)
C25 C 0.6489(15) 0.6655(10) 0.5246(10)
C26 C 0.7735(17) 0.6740(9) 0.5174(11)
N6 N 0.8877(15) 0.7213(9) 0.5560(11)
C27 C 0.703(2) 0.6880(9) 0.5448(10)
H9 H 0.699978 0.713792 0.577290
C28 C 0.8374(19) 0.6976(11) 0.5385(13)
C29 C 0.5837(14) 0.6804(8) 0.5562(10)
Ag3 Ag 0.44702(13) 0.26846(8) 0.62937(10)
O18 O 0.7800(6) 0.4454(4) 0.3905(5)
O19 O 0.4018(6) 0.0548(3) 0.9910(5)
O20 O 0.6609(7) 0.4454(4) 0.3808(5)
C39 C 0.7176(11) 0.4280(7) 0.4049(8)
C40 C 0.7118(10) 0.3895(7) 0.4542(8)
C41 C 0.3903(9) 0.1110(6) 0.8996(8)
C42 C 0.4259(9) 0.0718(6) 0.9379(9)
C43 C 0.7738(13) 0.3639(7) 0.4733(8)
H13 H 0.817445 0.373592 0.454636
C44 C 0.3246(10) 0.1262(6) 0.9203(8)
H14 H 0.304642 0.109918 0.956959
C45 C 0.4187(9) 0.1351(6) 0.8502(7)
H15 H 0.464747 0.125867 0.836569
C46 C 0.6530(12) 0.3725(7) 0.4796(8)
H16 H 0.609870 0.388157 0.465477
C47 C 0.2867(11) 0.1651(7) 0.8883(10)
C48 C 0.3814(13) 0.1744(7) 0.8174(10)
N9 N 0.1648(11) 0.1964(7) 0.9240(9)
N10 N 0.4432(11) 0.2202(8) 0.7197(11)
C49 C 0.3173(12) 0.1905(7) 0.8364(10)
H17 H 0.293702 0.218151 0.815145
C50 C 0.2172(13) 0.1815(9) 0.9089(11)
C51 C 0.4148(14) 0.1968(9) 0.7614(11)
N11 N 0.5336(12) 0.3072(9) 0.5784(10)
C52 C 0.6489(15) 0.3345(10) 0.5246(10)
C53 C 0.7735(17) 0.3260(9) 0.5174(11)
N12 N 0.8877(15) 0.2787(9) 0.5560(11)
C54 C 0.703(2) 0.3120(9) 0.5448(10)
H18 H 0.699978 0.286208 0.577290
C55 C 0.8374(19) 0.3024(11) 0.5385(13)
C56 C 0.5837(14) 0.3196(8) 0.5562(10)
Ag5_2 Ag 1.000000 0.26611(7) 0.000000
Ag6 Ag 0.94702(13) 0.23154(8) 0.62937(10)
Ag7 Ag 0.94702(13) 0.76846(8) 0.62937(10)
O22 O 0.7897(5) 0.5524(4) 0.2501(5)
O23 O 0.6697(5) 0.5543(4) 0.2408(5)
N14 N 0.4304(9) 0.1804(5) 0.0548(8)
N15 N 0.3877(15) 0.2213(9) 0.5560(11)
N16 N 0.3877(15) 0.7787(9) 0.5560(11)
Ru1_2 Ru 0.28422(9) 0.000000 0.32048(8)
Ru2_2 Ru 0.16360(9) -0.000000 0.31002(8)
Ru3_3 Ru 0.04172(10) 0.500000 0.96095(8)
O9_2 O 0.2800(6) 0.0546(4) 0.3905(5)
O10_3 O 0.1166(9) 0.500000 0.8769(7)
O12_2 O 0.1609(7) 0.0546(4) 0.3808(5)
O14_2 O 0.0448(9) 0.000000 0.2958(10)
O15_2 O 0.4015(7) 0.000000 0.3331(8)
C4_2 C 0.2176(11) 0.0720(7) 0.4049(8)
C7_2 C 0.2118(10) 0.1105(7) 0.4542(8)
C16_2 C 0.2738(13) 0.1361(7) 0.4733(8)
H4_2 H 0.317445 0.126408 0.454636
C19_2 C 0.1530(12) 0.1275(7) 0.4796(8)
H7_2 H 0.109870 0.111843 0.465477
N5_2 N 0.0336(12) 0.1928(9) 0.5784(10)
C25_2 C 0.1489(15) 0.1655(10) 0.5246(10)
C26_2 C 0.2735(17) 0.1740(9) 0.5174(11)
C27_2 C 0.203(2) 0.1880(9) 0.5448(10)
H9_2 H 0.199978 0.213792 0.577290
C28_2 C 0.3374(19) 0.1976(11) 0.5385(13)
C29_2 C 0.0837(14) 0.1804(8) 0.5562(10)
O22_2 O 0.2897(5) 0.0524(4) 0.2501(5)
O23_2 O 0.1697(5) 0.0543(4) 0.2408(5)
H22 H 0.0220901 3.08149e-33 0.338977
H24 H 0.423589 0 0.289641
Ru1_3 Ru 0.28422(9) 1.000000 0.32048(8)
Ru2_3 Ru 0.16360(9) 1.000000 0.31002(8)
Ag1_2 Ag 0.000000 0.73389(7) 0.000000
O7_2 O 0.2897(5) 0.9476(4) 0.2501(5)
O8_2 O 0.1697(5) 0.9457(4) 0.2408(5)
O14_3 O 0.0448(9) 1.000000 0.2958(10)
C3_2 C 0.2342(9) 0.9295(6) 0.2260(7)
N1_2 N 0.4304(9) 0.8196(5) 0.0548(8)
O15_3 O 0.4015(7) 1.000000 0.3331(8)
C5_2 C 0.3770(11) 0.8294(6) 0.0783(10)
C6_2 C 0.3074(10) 0.8419(6) 0.1040(8)
N2_2 N 0.0730(10) 0.7785(8) 0.0617(9)
C8_2 C 0.1829(10) 0.8296(6) 0.1048(8)
C9_2 C 0.2458(11) 0.8168(6) 0.0793(8)
H1_2 H 0.248688 0.791771 0.045840
C10_2 C 0.2365(8) 0.8908(6) 0.1737(8)
C12_2 C 0.3015(8) 0.8792(5) 0.1464(7)
H2_2 H 0.342180 0.898673 0.158695
C13_2 C 0.1225(11) 0.8011(7) 0.0807(9)
C15_2 C 0.1770(9) 0.8672(6) 0.1503(7)
H3_2 H 0.131774 0.876881 0.165488
O18_2 O 0.2800(6) 0.9454(4) 0.3905(5)
O20_2 O 0.1609(7) 0.9454(4) 0.3808(5)
C39_2 C 0.2176(11) 0.9280(7) 0.4049(8)
C40_2 C 0.2118(10) 0.8895(7) 0.4542(8)
C43_2 C 0.2738(13) 0.8639(7) 0.4733(8)
H13_2 H 0.317445 0.873592 0.454636
C46_2 C 0.1530(12) 0.8725(7) 0.4796(8)
H16_2 H 0.109870 0.888157 0.465477
N11_2 N 0.0336(12) 0.8072(9) 0.5784(10)
C52_2 C 0.1489(15) 0.8345(10) 0.5246(10)
C53_2 C 0.2735(17) 0.8260(9) 0.5174(11)
C54_2 C 0.203(2) 0.8120(9) 0.5448(10)
H18_2 H 0.199978 0.786208 0.577290
C55_2 C 0.3374(19) 0.8024(11) 0.5385(13)
C56_2 C 0.0837(14) 0.8196(8) 0.5562(10)
Ag5_3 Ag 0.500000 0.76611(7) 0.000000
H21 H 0.0299726 0.968977 0.271078
H22_2 H 0.0220901 1 0.338977
H23 H 0.416672 0.968977 0.35765
H24_2 H 0.423589 1 0.289641
O11_2 O 0.9018(6) 0.4452(3) 0.9910(5)
O13_2 O 0.9866(6) 0.4450(3) 0.9124(5)
C11_2 C 0.8903(9) 0.3890(6) 0.8996(8)
C14_2 C 0.9259(9) 0.4282(6) 0.9379(9)
C17_2 C 0.8246(10) 0.3738(6) 0.9203(8)
H5_2 H 0.804642 0.390082 0.956959
C18_2 C 0.9187(9) 0.3649(6) 0.8502(7)
H6_2 H 0.964747 0.374133 0.836569
C20_2 C 0.7867(11) 0.3349(7) 0.8883(10)
C21_2 C 0.8814(13) 0.3256(7) 0.8174(10)
N3_2 N 0.6648(11) 0.3036(7) 0.9240(9)
N4_2 N 0.9432(11) 0.2798(8) 0.7197(11)
C22_2 C 0.8173(12) 0.3095(7) 0.8364(10)
H8_2 H 0.793702 0.281849 0.815145
C23_2 C 0.7172(13) 0.3185(9) 0.9089(11)
C24_2 C 0.9148(14) 0.3032(9) 0.7614(11)
O26_2 O 0.9866(6) 0.5550(3) 0.9124(5)
Ag1_3 Ag 1.000000 0.73389(7) 0.000000
O19_2 O 0.9018(6) 0.5548(3) 0.9910(5)
C41_2 C 0.8903(9) 0.6110(6) 0.8996(8)
C42_2 C 0.9259(9) 0.5718(6) 0.9379(9)
C44_2 C 0.8246(10) 0.6262(6) 0.9203(8)
H14_2 H 0.804642 0.609918 0.956959
C45_2 C 0.9187(9) 0.6351(6) 0.8502(7)
H15_2 H 0.964747 0.625867 0.836569
C47_2 C 0.7867(11) 0.6651(7) 0.8883(10)
C48_2 C 0.8814(13) 0.6744(7) 0.8174(10)
N9_2 N 0.6648(11) 0.6964(7) 0.9240(9)
N10_2 N 0.9432(11) 0.7202(8) 0.7197(11)
C49_2 C 0.8173(12) 0.6905(7) 0.8364(10)
H17_2 H 0.793702 0.718151 0.815145
C50_2 C 0.7172(13) 0.6815(9) 0.9089(11)
C51_2 C 0.9148(14) 0.6968(9) 0.7614(11)
N14_2 N 0.9304(9) 0.6804(5) 0.0548(8)
C30 C 0.7342(9) 0.5705(6) 0.2260(7)
C31 C 0.8770(11) 0.6706(6) 0.0783(10)
C32 C 0.8074(10) 0.6581(6) 0.1040(8)
N8 N 0.5730(10) 0.7215(8) 0.0617(9)
C33 C 0.6829(10) 0.6704(6) 0.1048(8)
C34 C 0.7458(11) 0.6832(6) 0.0793(8)
H10 H 0.748688 0.708229 0.045840
C35 C 0.7365(8) 0.6092(6) 0.1737(8)
C36 C 0.8015(8) 0.6208(5) 0.1464(7)
H11 H 0.842180 0.601327 0.158695
C37 C 0.6225(11) 0.6989(7) 0.0807(9)
C38 C 0.6770(9) 0.6328(6) 0.1503(7)
H12 H 0.631774 0.623119 0.165488
H19_2 H 0.590139 0.990957 0.836087
H20_2 H 0.654782 0.974503 0.885231
C30_2 C 0.2342(9) 0.0705(6) 0.2260(7)
C31_2 C 0.3770(11) 0.1706(6) 0.0783(10)
C32_2 C 0.3074(10) 0.1581(6) 0.1040(8)
N8_2 N 0.0730(10) 0.2215(8) 0.0617(9)
C33_2 C 0.1829(10) 0.1704(6) 0.1048(8)
C34_2 C 0.2458(11) 0.1832(6) 0.0793(8)
H10_2 H 0.248688 0.208229 0.045840
C35_2 C 0.2365(8) 0.1092(6) 0.1737(8)
C36_2 C 0.3015(8) 0.1208(5) 0.1464(7)
H11_2 H 0.342180 0.101327 0.158695
C37_2 C 0.1225(11) 0.1989(7) 0.0807(9)
C38_2 C 0.1770(9) 0.1328(6) 0.1503(7)
H12_2 H 0.131774 0.123119 0.165488
H21_2 H 0.0299726 0.0310228 0.271078
H23_2 H 0.416672 0.0310228 0.35765
Ag5_4 Ag 0.000000 0.26611(7) 1.000000
Ru8 Ru 0.45828(10) 0.000000 0.03905(8)
O25 O 0.5982(6) 0.0548(3) 0.0090(5)
Ru8_2 Ru 0.45828(10) 1.000000 0.03905(8)
O24 O 0.5982(6) 0.9452(3) 0.0090(5)
Ag1_4 Ag 0.500000 0.23389(7) 1.000000
O16 O 0.2103(5) 0.4476(4) 0.7499(5)
O17 O 0.3303(5) 0.4457(4) 0.7592(5)
C30_3 C 0.2658(9) 0.4295(6) 0.7740(7)
N7 N 0.0696(9) 0.3196(5) 0.9452(8)
C31_3 C 0.1230(11) 0.3294(6) 0.9217(10)
C32_3 C 0.1926(10) 0.3419(6) 0.8960(8)
N8_3 N 0.4270(10) 0.2785(8) 0.9383(9)
C33_3 C 0.3171(10) 0.3296(6) 0.8952(8)
C34_3 C 0.2542(11) 0.3168(6) 0.9207(8)
H10_3 H 0.251312 0.291771 0.954160
C35_3 C 0.2635(8) 0.3908(6) 0.8263(8)
C36_3 C 0.1985(8) 0.3792(5) 0.8536(7)
H11_3 H 0.157820 0.398673 0.841305
C37_3 C 0.3775(11) 0.3011(7) 0.9193(9)
C38_3 C 0.3230(9) 0.3672(6) 0.8497(7)
H12_3 H 0.368226 0.376881 0.834512
Ru4 Ru 0.21578(9) 0.500000 0.67952(8)
Ru5 Ru 0.33640(9) 0.500000 0.68998(8)
Ag5_5 Ag 1.000000 0.26611(7) 1.000000
N13 N 0.5696(9) 0.1804(5) 0.9452(8)
O10_4 O 0.3834(9) 0.000000 0.1231(7)
O26_3 O 0.5134(6) 0.0550(3) 0.0876(5)
H19_3 H 0.409861 0.00904273 0.163913
H20_3 H 0.345218 0.0254967 0.114769
Ag2_2 Ag 0.55298(13) 0.73154(8) 0.37063(10)
O9_3 O 0.2200(6) 0.5546(4) 0.6095(5)
O10_5 O 0.3834(9) 1.000000 0.1231(7)
O12_3 O 0.3391(7) 0.5546(4) 0.6192(5)
O13_3 O 0.5134(6) 0.9450(3) 0.0876(5)
O14_4 O 0.4552(9) 0.500000 0.7042(10)
O15_4 O 0.0985(7) 0.500000 0.6669(8)
C4_3 C 0.2824(11) 0.5720(7) 0.5951(8)
C7_3 C 0.2882(10) 0.6105(7) 0.5458(8)
C11_3 C 0.6097(9) 0.8890(6) 0.1004(8)
C14_3 C 0.5741(9) 0.9282(6) 0.0621(9)
C16_3 C 0.2262(13) 0.6361(7) 0.5267(8)
H4_3 H 0.182555 0.626408 0.545364
C17_3 C 0.6754(10) 0.8738(6) 0.0797(8)
H5_3 H 0.695358 0.890082 0.043041
C18_3 C 0.5813(9) 0.8649(6) 0.1498(7)
H6_3 H 0.535253 0.874133 0.163431
C19_3 C 0.3470(12) 0.6275(7) 0.5204(8)
H7_3 H 0.390130 0.611843 0.534523
C20_3 C 0.7133(11) 0.8349(7) 0.1117(10)
C21_3 C 0.6186(13) 0.8256(7) 0.1826(10)
N3_3 N 0.8352(11) 0.8036(7) 0.0760(9)
N4_3 N 0.5568(11) 0.7798(8) 0.2803(11)
C22_3 C 0.6827(12) 0.8095(7) 0.1636(10)
H8_3 H 0.706298 0.781849 0.184855
C23_3 C 0.7828(13) 0.8185(9) 0.0911(11)
C24_3 C 0.5852(14) 0.8032(9) 0.2386(11)
N5_3 N 0.4664(12) 0.6928(9) 0.4216(10)
C25_3 C 0.3511(15) 0.6655(10) 0.4754(10)
C26_3 C 0.2265(17) 0.6740(9) 0.4826(11)
N6_2 N 0.1123(15) 0.7213(9) 0.4440(11)
C27_3 C 0.297(2) 0.6880(9) 0.4552(10)
H9_3 H 0.300022 0.713792 0.422710
C28_3 C 0.1626(19) 0.6976(11) 0.4615(13)
C29_3 C 0.4163(14) 0.6804(8) 0.4438(10)
Ag3_2 Ag 0.55298(13) 0.26846(8) 0.37063(10)
O18_3 O 0.2200(6) 0.4454(4) 0.6095(5)
O20_3 O 0.3391(7) 0.4454(4) 0.6192(5)
C39_3 C 0.2824(11) 0.4280(7) 0.5951(8)
C40_3 C 0.2882(10) 0.3895(7) 0.5458(8)
C41_3 C 0.6097(9) 0.1110(6) 0.1004(8)
C42_3 C 0.5741(9) 0.0718(6) 0.0621(9)
C43_3 C 0.2262(13) 0.3639(7) 0.5267(8)
H13_3 H 0.182555 0.373592 0.545364
C44_3 C 0.6754(10) 0.1262(6) 0.0797(8)
H14_3 H 0.695358 0.109918 0.043041
C45_3 C 0.5813(9) 0.1351(6) 0.1498(7)
H15_3 H 0.535253 0.125867 0.163431
C46_3 C 0.3470(12) 0.3725(7) 0.5204(8)
H16_3 H 0.390130 0.388157 0.534523
C47_3 C 0.7133(11) 0.1651(7) 0.1117(10)
C48_3 C 0.6186(13) 0.1744(7) 0.1826(10)
N9_3 N 0.8352(11) 0.1964(7) 0.0760(9)
N10_3 N 0.5568(11) 0.2202(8) 0.2803(11)
C49_3 C 0.6827(12) 0.1905(7) 0.1636(10)
H17_3 H 0.706298 0.218151 0.184855
C50_3 C 0.7828(13) 0.1815(9) 0.0911(11)
C51_3 C 0.5852(14) 0.1968(9) 0.2386(11)
N11_3 N 0.4664(12) 0.3072(9) 0.4216(10)
C52_3 C 0.3511(15) 0.3345(10) 0.4754(10)
C53_3 C 0.2265(17) 0.3260(9) 0.4826(11)
N12_2 N 0.1123(15) 0.2787(9) 0.4440(11)
C54_3 C 0.297(2) 0.3120(9) 0.4552(10)
H18_3 H 0.300022 0.286208 0.422710
C55_3 C 0.1626(19) 0.3024(11) 0.4615(13)
C56_3 C 0.4163(14) 0.3196(8) 0.4438(10)
Ag6_2 Ag 0.05298(13) 0.23154(8) 0.37063(10)
Ag7_2 Ag 0.05298(13) 0.76846(8) 0.37063(10)
O22_3 O 0.2103(5) 0.5524(4) 0.7499(5)
O23_3 O 0.3303(5) 0.5543(4) 0.7592(5)
N15_2 N 0.6123(15) 0.2213(9) 0.4440(11)
N16_2 N 0.6123(15) 0.7787(9) 0.4440(11)
O24_2 O 0.0982(6) 0.4452(3) 0.0090(5)
O25_2 O 0.0982(6) 0.5548(3) 0.0090(5)
Ag1_5 Ag 0.000000 0.73389(7) 1.000000
Ag5_6 Ag 0.500000 0.76611(7) 1.000000
N13_2 N 0.0696(9) 0.6804(5) 0.9452(8)
Ru8_3 Ru 0.95828(10) 0.500000 0.03905(8)
Ru4_2 Ru 0.71578(9) 0.000000 0.67952(8)
Ru5_2 Ru 0.83640(9) 0.000000 0.68998(8)
Ag1_6 Ag 1.000000 0.73389(7) 1.000000
O16_2 O 0.7103(5) 0.9476(4) 0.7499(5)
O17_2 O 0.8303(5) 0.9457(4) 0.7592(5)
C30_4 C 0.7658(9) 0.9295(6) 0.7740(7)
N7_2 N 0.5696(9) 0.8196(5) 0.9452(8)
C31_4 C 0.6230(11) 0.8294(6) 0.9217(10)
C32_4 C 0.6926(10) 0.8419(6) 0.8960(8)
N8_4 N 0.9270(10) 0.7785(8) 0.9383(9)
C33_4 C 0.8171(10) 0.8296(6) 0.8952(8)
C34_4 C 0.7542(11) 0.8168(6) 0.9207(8)
H10_4 H 0.751312 0.791771 0.954160
C35_4 C 0.7635(8) 0.8908(6) 0.8263(8)
C36_4 C 0.6985(8) 0.8792(5) 0.8536(7)
H11_4 H 0.657820 0.898673 0.841305
C37_4 C 0.8775(11) 0.8011(7) 0.9193(9)
C38_4 C 0.8230(9) 0.8672(6) 0.8497(7)
H12_4 H 0.868226 0.876881 0.834512
Ru4_3 Ru 0.71578(9) 1.000000 0.67952(8)
Ru5_3 Ru 0.83640(9) 1.000000 0.68998(8)
O13_4 O 0.0134(6) 0.4450(3) 0.0876(5)
C11_4 C 0.1097(9) 0.3890(6) 0.1004(8)
C14_4 C 0.0741(9) 0.4282(6) 0.0621(9)
C17_4 C 0.1754(10) 0.3738(6) 0.0797(8)
H5_4 H 0.195358 0.390082 0.043041
C18_4 C 0.0813(9) 0.3649(6) 0.1498(7)
H6_4 H 0.035253 0.374133 0.163431
C20_4 C 0.2133(11) 0.3349(7) 0.1117(10)
C21_4 C 0.1186(13) 0.3256(7) 0.1826(10)
N3_4 N 0.3352(11) 0.3036(7) 0.0760(9)
N4_4 N 0.0568(11) 0.2798(8) 0.2803(11)
C22_4 C 0.1827(12) 0.3095(7) 0.1636(10)
H8_4 H 0.206298 0.281849 0.184855
C23_4 C 0.2828(13) 0.3185(9) 0.0911(11)
C24_4 C 0.0852(14) 0.3032(9) 0.2386(11)
O26_4 O 0.0134(6) 0.5550(3) 0.0876(5)
C41_4 C 0.1097(9) 0.6110(6) 0.1004(8)
C42_4 C 0.0741(9) 0.5718(6) 0.0621(9)
C44_4 C 0.1754(10) 0.6262(6) 0.0797(8)
H14_4 H 0.195358 0.609918 0.043041
C45_4 C 0.0813(9) 0.6351(6) 0.1498(7)
H15_4 H 0.035253 0.625867 0.163431
C47_4 C 0.2133(11) 0.6651(7) 0.1117(10)
C48_4 C 0.1186(13) 0.6744(7) 0.1826(10)
N9_4 N 0.3352(11) 0.6964(7) 0.0760(9)
N10_4 N 0.0568(11) 0.7202(8) 0.2803(11)
C49_4 C 0.1827(12) 0.6905(7) 0.1636(10)
H17_4 H 0.206298 0.718151 0.184855
C50_4 C 0.2828(13) 0.6815(9) 0.0911(11)
C51_4 C 0.0852(14) 0.6968(9) 0.2386(11)
O9_4 O 0.7200(6) 0.0546(4) 0.6095(5)
O10_6 O 0.8834(9) 0.500000 0.1231(7)
O12_4 O 0.8391(7) 0.0546(4) 0.6192(5)
O14_5 O 0.9552(9) -0.000000 0.7042(10)
O15_5 O 0.5985(7) -0.000000 0.6669(8)
C4_4 C 0.7824(11) 0.0720(7) 0.5951(8)
C7_4 C 0.7882(10) 0.1105(7) 0.5458(8)
C16_4 C 0.7262(13) 0.1361(7) 0.5267(8)
H4_4 H 0.682555 0.126408 0.545364
C19_4 C 0.8470(12) 0.1275(7) 0.5204(8)
H7_4 H 0.890130 0.111843 0.534523
N5_4 N 0.9664(12) 0.1928(9) 0.4216(10)
C25_4 C 0.8511(15) 0.1655(10) 0.4754(10)
C26_4 C 0.7265(17) 0.1740(9) 0.4826(11)
C27_4 C 0.797(2) 0.1880(9) 0.4552(10)
H9_4 H 0.800022 0.213792 0.422710
C28_4 C 0.6626(19) 0.1976(11) 0.4615(13)
C29_4 C 0.9163(14) 0.1804(8) 0.4438(10)
O22_4 O 0.7103(5) 0.0524(4) 0.7499(5)
O23_4 O 0.8303(5) 0.0543(4) 0.7592(5)
H22_3 H 0.97791 0 0.661023
H24_3 H 0.576411 6.16298e-33 0.710359
O14_6 O 0.9552(9) 1.000000 0.7042(10)
O15_6 O 0.5985(7) 1.000000 0.6669(8)
O18_4 O 0.7200(6) 0.9454(4) 0.6095(5)
O20_4 O 0.8391(7) 0.9454(4) 0.6192(5)
C39_4 C 0.7824(11) 0.9280(7) 0.5951(8)
C40_4 C 0.7882(10) 0.8895(7) 0.5458(8)
C43_4 C 0.7262(13) 0.8639(7) 0.5267(8)
H13_4 H 0.682555 0.873592 0.545364
C46_4 C 0.8470(12) 0.8725(7) 0.5204(8)
H16_4 H 0.890130 0.888157 0.534523
N11_4 N 0.9664(12) 0.8072(9) 0.4216(10)
C52_4 C 0.8511(15) 0.8345(10) 0.4754(10)
C53_4 C 0.7265(17) 0.8260(9) 0.4826(11)
C54_4 C 0.797(2) 0.8120(9) 0.4552(10)
H18_4 H 0.800022 0.786208 0.422710
C55_4 C 0.6626(19) 0.8024(11) 0.4615(13)
C56_4 C 0.9163(14) 0.8196(8) 0.4438(10)
H21_3 H 0.970027 0.968977 0.728922
H22_4 H 0.97791 1 0.661023
H23_3 H 0.583328 0.968977 0.64235
H24_4 H 0.576411 1 0.710359
C3_3 C 0.2658(9) 0.5705(6) 0.7740(7)
C5_3 C 0.1230(11) 0.6706(6) 0.9217(10)
C6_3 C 0.1926(10) 0.6581(6) 0.8960(8)
N2_3 N 0.4270(10) 0.7215(8) 0.9383(9)
C8_3 C 0.3171(10) 0.6704(6) 0.8952(8)
C9_3 C 0.2542(11) 0.6832(6) 0.9207(8)
H1_3 H 0.251312 0.708229 0.954160
C10_3 C 0.2635(8) 0.6092(6) 0.8263(8)
C12_3 C 0.1985(8) 0.6208(5) 0.8536(7)
H2_3 H 0.157820 0.601327 0.841305
C13_3 C 0.3775(11) 0.6989(7) 0.9193(9)
C15_3 C 0.3230(9) 0.6328(6) 0.8497(7)
H3_3 H 0.368226 0.623119 0.834512
H19_4 H 0.409861 0.990957 0.163913
H20_4 H 0.345218 0.974503 0.114769
C3_4 C 0.7658(9) 0.0705(6) 0.7740(7)
C5_4 C 0.6230(11) 0.1706(6) 0.9217(10)
C6_4 C 0.6926(10) 0.1581(6) 0.8960(8)
N2_4 N 0.9270(10) 0.2215(8) 0.9383(9)
C8_4 C 0.8171(10) 0.1704(6) 0.8952(8)
C9_4 C 0.7542(11) 0.1832(6) 0.9207(8)
H1_4 H 0.751312 0.208229 0.954160
C10_4 C 0.7635(8) 0.1092(6) 0.8263(8)
C12_4 C 0.6985(8) 0.1208(5) 0.8536(7)
H2_4 H 0.657820 0.101327 0.841305
C13_4 C 0.8775(11) 0.1989(7) 0.9193(9)
C15_4 C 0.8230(9) 0.1328(6) 0.8497(7)
H3_4 H 0.868226 0.123119 0.834512
H21_4 H 0.970027 0.0310228 0.728922
H23_4 H 0.583328 0.0310228 0.64235
loop_
_geom_bond_atom_site_label_1
_geom_bond_atom_site_label_2
_geom_bond_site_symmetry_1
_geom_bond_site_symmetry_2
S1 O1 1_555 1_555
O2 S1 1_555 1_555
F2 C1 1_555 1_555
C1 S1 1_555 1_555
O3 S1 1_555 1_555
F3 C1 1_555 1_555
S1_2 O1_2 1_555 1_555
O2_2 S1_2 1_555 1_555
F2_2 C1_2 1_555 1_555
C1_2 S1_2 1_555 1_555
O3_2 S1_2 1_555 1_555
F3_2 C1_2 1_555 1_555
S1_3 O1_3 1_555 1_555
O2_3 S1_3 1_555 1_555
C1_3 S1_3 1_555 1_555
F3_3 C1_3 1_555 1_555
S1_4 O1_4 1_555 1_555
F2_3 C1_4 1_555 1_555
C1_4 S1_4 1_555 1_555
O3_3 S1_4 1_555 1_555
S1_5 O1_5 1_555 1_555
O2_4 S1_5 1_555 1_555
C1_5 S1_5 1_555 1_555
F3_4 C1_5 1_555 1_555
S1_6 O1_6 1_555 1_555
F2_4 C1_6 1_555 1_555
C1_6 S1_6 1_555 1_555
O3_4 S1_6 1_555 1_555
S2 O4 1_555 1_555
O5 S2 1_555 1_555
O6 S2 1_555 1_555
F4 C2 1_555 1_555
F5 C2 1_555 1_555
F6 C2 1_555 1_555
C2 S2 1_555 1_555
S2_2 O4_2 1_555 1_555
O5_2 S2_2 1_555 1_555
O6_2 S2_2 1_555 1_555
F4_2 C2_2 1_555 1_555
F5_2 C2_2 1_555 1_555
F6_2 C2_2 1_555 1_555
C2_2 S2_2 1_555 1_555
S2_3 O4_3 1_555 1_555
O5_3 S2_3 1_555 1_555
O6_3 S2_3 1_555 1_555
F4_3 C2_3 1_555 1_555
F5_3 C2_3 1_555 1_555
F6_3 C2_3 1_555 1_555
C2_3 S2_3 1_555 1_555
S2_4 O4_4 1_555 1_555
O5_4 S2_4 1_555 1_555
O6_4 S2_4 1_555 1_555
F4_4 C2_4 1_555 1_555
F5_4 C2_4 1_555 1_555
F6_4 C2_4 1_555 1_555
C2_4 S2_4 1_555 1_555
S2_5 O4_5 1_555 1_555
O5_5 S2_5 1_555 1_555
O6_5 S2_5 1_555 1_555
F4_5 C2_5 1_555 1_555
F5_5 C2_5 1_555 1_555
F6_5 C2_5 1_555 1_555
C2_5 S2_5 1_555 1_555
S2_6 O4_6 1_555 1_555
O5_6 S2_6 1_555 1_555
O6_6 S2_6 1_555 1_555
F4_6 C2_6 1_555 1_555
F5_6 C2_6 1_555 1_555
F6_6 C2_6 1_555 1_555
C2_6 S2_6 1_555 1_555
S2_7 O4_7 1_555 1_555
O5_7 S2_7 1_555 1_555
O6_7 S2_7 1_555 1_555
F4_7 C2_7 1_555 1_555
F5_7 C2_7 1_555 1_555
F6_7 C2_7 1_555 1_555
C2_7 S2_7 1_555 1_555
S2_8 O4_8 1_555 1_555
O5_8 S2_8 1_555 1_555
O6_8 S2_8 1_555 1_555
F4_8 C2_8 1_555 1_555
F5_8 C2_8 1_555 1_555
F6_8 C2_8 1_555 1_555
C2_8 S2_8 1_555 1_555
Ru3 O10 1_555 1_555
O26 Ru3 1_555 1_555
O10 H19 1_555 1_555
O10 H20 1_555 1_555
Ru1 Ru2 1_555 1_555
Ru2 O8 1_555 1_555
Ru3_2 O10_2 1_555 1_555
Ag1 N2 1_555 1_555
Ag2 N4 1_555 1_555
O7 Ru1 1_555 1_555
O8 C3 1_555 1_555
O9 Ru1 1_555 1_555
O11 C14 1_555 1_555
O12 Ru2 1_555 1_555
O13 Ru3_2 1_555 1_555
O14 Ru2 1_555 1_555
C3 O7 1_555 1_555
N1 C5 1_555 1_555
O15 Ru1 1_555 1_555
C4 O9 1_555 1_555
C5 C6 1_555 1_555
C6 C9 1_555 1_555
N2 C13 1_555 1_555
C7 C4 1_555 1_555
C8 C9 1_555 1_555
C9 H1 1_555 1_555
C10 C3 1_555 1_555
C11 C14 1_555 1_555
C12 C6 1_555 1_555
H2 C12 1_555 1_555
C13 C8 1_555 1_555
C14 O13 1_555 1_555
C15 C8 1_555 1_555
H3 C15 1_555 1_555
C16 C7 1_555 1_555
H4 C16 1_555 1_555
C17 C11 1_555 1_555
H5 C17 1_555 1_555
C18 C11 1_555 1_555
H6 C18 1_555 1_555
C19 C7 1_555 1_555
H7 C19 1_555 1_555
C20 C17 1_555 1_555
C21 C18 1_555 1_555
N3 C23 1_555 1_555
N4 C24 1_555 1_555
C22 C20 1_555 1_555
H8 C22 1_555 1_555
C23 C20 1_555 1_555
C24 C21 1_555 1_555
N5 Ag2 1_555 1_555
C25 C19 1_555 1_555
C26 C16 1_555 1_555
N6 C28 1_555 1_555
C27 C25 1_555 1_555
H9 C27 1_555 1_555
C28 C26 1_555 1_555
C29 N5 1_555 1_555
Ag3 N10 1_555 1_555
O18 Ru1 1_555 1_555
O19 C42 1_555 1_555
O20 Ru2 1_555 1_555
O26 C42 1_555 1_555
C39 O18 1_555 1_555
C40 C39 1_555 1_555
C41 C42 1_555 1_555
C43 C40 1_555 1_555
H13 C43 1_555 1_555
C44 C41 1_555 1_555
H14 C44 1_555 1_555
C45 C41 1_555 1_555
H15 C45 1_555 1_555
C46 C40 1_555 1_555
H16 C46 1_555 1_555
C47 C44 1_555 1_555
C48 C45 1_555 1_555
N9 C50 1_555 1_555
N10 C51 1_555 1_555
C49 C47 1_555 1_555
H17 C49 1_555 1_555
C50 C47 1_555 1_555
C51 C48 1_555 1_555
N11 Ag3 1_555 1_555
C52 C46 1_555 1_555
C53 C43 1_555 1_555
N12 C55 1_555 1_555
C54 C52 1_555 1_555
H18 C54 1_555 1_555
C55 C53 1_555 1_555
C56 N11 1_555 1_555
Ag5_2 N1 1_555 1_555
Ag6 N12 1_555 1_555
Ag7 N6 1_555 1_555
O22 Ru1 1_555 1_555
O23 Ru2 1_555 1_555
N14 Ag1 1_555 1_555
N15 Ag3 1_555 1_555
N16 Ag2 1_555 1_555
O12 C4 1_555 1_555
C10 C12 1_555 1_555
C10 C15 1_555 1_555
C21 C22 1_555 1_555
C25 C29 1_555 1_555
C26 C27 1_555 1_555
O20 C39 1_555 1_555
C48 C49 1_555 1_555
C52 C56 1_555 1_555
C53 C54 1_555 1_555
Ru1_2 Ru2_2 1_555 1_555
Ru3_3 O10_3 1_555 1_555
O9_2 Ru1_2 1_555 1_555
O12_2 Ru2_2 1_555 1_555
O14_2 Ru2_2 1_555 1_555
O15_2 Ru1_2 1_555 1_555
C4_2 O9_2 1_555 1_555
C7_2 C4_2 1_555 1_555
C16_2 C7_2 1_555 1_555
H4_2 C16_2 1_555 1_555
C19_2 C7_2 1_555 1_555
H7_2 C19_2 1_555 1_555
C25_2 C19_2 1_555 1_555
C26_2 C16_2 1_555 1_555
N15 C28_2 1_555 1_555
C27_2 C25_2 1_555 1_555
H9_2 C27_2 1_555 1_555
C28_2 C26_2 1_555 1_555
C29_2 N5_2 1_555 1_555
O22_2 Ru1_2 1_555 1_555
O23_2 Ru2_2 1_555 1_555
O12_2 C4_2 1_555 1_555
C25_2 C29_2 1_555 1_555
C26_2 C27_2 1_555 1_555
O14_2 H22 1_555 1_555
O15_2 H24 1_555 1_555
Ru1_3 Ru2_3 1_555 1_555
Ru2_3 O8_2 1_555 1_555
Ag1_2 N2_2 1_555 1_555
O7_2 Ru1_3 1_555 1_555
O8_2 C3_2 1_555 1_555
O14_3 Ru2_3 1_555 1_555
C3_2 O7_2 1_555 1_555
N1_2 C5_2 1_555 1_555
O15_3 Ru1_3 1_555 1_555
C5_2 C6_2 1_555 1_555
C6_2 C9_2 1_555 1_555
N2_2 C13_2 1_555 1_555
C8_2 C9_2 1_555 1_555
C9_2 H1_2 1_555 1_555
C10_2 C3_2 1_555 1_555
C12_2 C6_2 1_555 1_555
H2_2 C12_2 1_555 1_555
C13_2 C8_2 1_555 1_555
C15_2 C8_2 1_555 1_555
H3_2 C15_2 1_555 1_555
O18_2 Ru1_3 1_555 1_555
O20_2 Ru2_3 1_555 1_555
C39_2 O18_2 1_555 1_555
C40_2 C39_2 1_555 1_555
C43_2 C40_2 1_555 1_555
H13_2 C43_2 1_555 1_555
C46_2 C40_2 1_555 1_555
H16_2 C46_2 1_555 1_555
C52_2 C46_2 1_555 1_555
C53_2 C43_2 1_555 1_555
N16 C55_2 1_555 1_555
C54_2 C52_2 1_555 1_555
H18_2 C54_2 1_555 1_555
C55_2 C53_2 1_555 1_555
C56_2 N11_2 1_555 1_555
Ag5_3 N1_2 1_555 1_555
C10_2 C12_2 1_555 1_555
C10_2 C15_2 1_555 1_555
O20_2 C39_2 1_555 1_555
C52_2 C56_2 1_555 1_555
C53_2 C54_2 1_555 1_555
O14_3 H21 1_555 1_555
O14_3 H22_2 1_555 1_555
O15_3 H23 1_555 1_555
O15_3 H24_2 1_555 1_555
Ag6 N4_2 1_555 1_555
O11_2 C14_2 1_555 1_555
C11_2 C14_2 1_555 1_555
C14_2 O13_2 1_555 1_555
C17_2 C11_2 1_555 1_555
H5_2 C17_2 1_555 1_555
C18_2 C11_2 1_555 1_555
H6_2 C18_2 1_555 1_555
C20_2 C17_2 1_555 1_555
C21_2 C18_2 1_555 1_555
N3_2 C23_2 1_555 1_555
N4_2 C24_2 1_555 1_555
C22_2 C20_2 1_555 1_555
H8_2 C22_2 1_555 1_555
C23_2 C20_2 1_555 1_555
C24_2 C21_2 1_555 1_555
C21_2 C22_2 1_555 1_555
Ag7 N10_2 1_555 1_555
O19_2 C42_2 1_555 1_555
O26_2 C42_2 1_555 1_555
C41_2 C42_2 1_555 1_555
C44_2 C41_2 1_555 1_555
H14_2 C44_2 1_555 1_555
C45_2 C41_2 1_555 1_555
H15_2 C45_2 1_555 1_555
C47_2 C44_2 1_555 1_555
C48_2 C45_2 1_555 1_555
N9_2 C50_2 1_555 1_555
N10_2 C51_2 1_555 1_555
C49_2 C47_2 1_555 1_555
H17_2 C49_2 1_555 1_555
C50_2 C47_2 1_555 1_555
C51_2 C48_2 1_555 1_555
N14_2 Ag1_3 1_555 1_555
C48_2 C49_2 1_555 1_555
O22 C30 1_555 1_555
O23 C30 1_555 1_555
C30 C35 1_555 1_555
N14_2 C31 1_555 1_555
C31 C32 1_555 1_555
C32 C34 1_555 1_555
N8 Ag5_3 1_555 1_555
C33 C34 1_555 1_555
C34 H10 1_555 1_555
C35 C36 1_555 1_555
C36 C32 1_555 1_555
H11 C36 1_555 1_555
C37 N8 1_555 1_555
C38 C33 1_555 1_555
H12 C38 1_555 1_555
C33 C37 1_555 1_555
C35 C38 1_555 1_555
O10_2 H19_2 1_555 1_555
O10_2 H20_2 1_555 1_555
O22_2 C30_2 1_555 1_555
O23_2 C30_2 1_555 1_555
C30_2 C35_2 1_555 1_555
N14 C31_2 1_555 1_555
C31_2 C32_2 1_555 1_555
C32_2 C34_2 1_555 1_555
N8_2 Ag5 1_555 1_555
C33_2 C34_2 1_555 1_555
C34_2 H10_2 1_555 1_555
C35_2 C36_2 1_555 1_555
C36_2 C32_2 1_555 1_555
H11_2 C36_2 1_555 1_555
C37_2 N8_2 1_555 1_555
C38_2 C33_2 1_555 1_555
H12_2 C38_2 1_555 1_555
C33_2 C37_2 1_555 1_555
C35_2 C38_2 1_555 1_555
O14_2 H21_2 1_555 1_555
O15_2 H23_2 1_555 1_555
O16 C30_3 1_555 1_555
O17 C30_3 1_555 1_555
C30_3 C35_3 1_555 1_555
N7 C31_3 1_555 1_555
C31_3 C32_3 1_555 1_555
C32_3 C34_3 1_555 1_555
N8_3 Ag1_4 1_555 1_555
C33_3 C34_3 1_555 1_555
C34_3 H10_3 1_555 1_555
C35_3 C36_3 1_555 1_555
C36_3 C32_3 1_555 1_555
H11_3 C36_3 1_555 1_555
C37_3 N8_3 1_555 1_555
C38_3 C33_3 1_555 1_555
H12_3 C38_3 1_555 1_555
Ru4 O16 1_555 1_555
Ru5 O17 1_555 1_555
Ag5_4 N7 1_555 1_555
N13 Ag1_4 1_555 1_555
C33_3 C37_3 1_555 1_555
C35_3 C38_3 1_555 1_555
Ru4 Ru5 1_555 1_555
Ru8 O10_4 1_555 1_555
O26_3 Ru8 1_555 1_555
O10_4 H19_3 1_555 1_555
O10_4 H20_3 1_555 1_555
Ru8_2 O10_5 1_555 1_555
Ag2_2 N4_3 1_555 1_555
O9_3 Ru4 1_555 1_555
O24 C14_3 1_555 1_555
O12_3 Ru5 1_555 1_555
O13_3 Ru8_2 1_555 1_555
O14_4 Ru5 1_555 1_555
O15_4 Ru4 1_555 1_555
C4_3 O9_3 1_555 1_555
C7_3 C4_3 1_555 1_555
C11_3 C14_3 1_555 1_555
C14_3 O13_3 1_555 1_555
C16_3 C7_3 1_555 1_555
H4_3 C16_3 1_555 1_555
C17_3 C11_3 1_555 1_555
H5_3 C17_3 1_555 1_555
C18_3 C11_3 1_555 1_555
H6_3 C18_3 1_555 1_555
C19_3 C7_3 1_555 1_555
H7_3 C19_3 1_555 1_555
C20_3 C17_3 1_555 1_555
C21_3 C18_3 1_555 1_555
N3_3 C23_3 1_555 1_555
N4_3 C24_3 1_555 1_555
C22_3 C20_3 1_555 1_555
H8_3 C22_3 1_555 1_555
C23_3 C20_3 1_555 1_555
C24_3 C21_3 1_555 1_555
N5_3 Ag2_2 1_555 1_555
C25_3 C19_3 1_555 1_555
C26_3 C16_3 1_555 1_555
N6_2 C28_3 1_555 1_555
C27_3 C25_3 1_555 1_555
H9_3 C27_3 1_555 1_555
C28_3 C26_3 1_555 1_555
C29_3 N5_3 1_555 1_555
Ag3_2 N10_3 1_555 1_555
O18_3 Ru4 1_555 1_555
O25 C42_3 1_555 1_555
O20_3 Ru5 1_555 1_555
O26_3 C42_3 1_555 1_555
C39_3 O18_3 1_555 1_555
C40_3 C39_3 1_555 1_555
C41_3 C42_3 1_555 1_555
C43_3 C40_3 1_555 1_555
H13_3 C43_3 1_555 1_555
C44_3 C41_3 1_555 1_555
H14_3 C44_3 1_555 1_555
C45_3 C41_3 1_555 1_555
H15_3 C45_3 1_555 1_555
C46_3 C40_3 1_555 1_555
H16_3 C46_3 1_555 1_555
C47_3 C44_3 1_555 1_555
C48_3 C45_3 1_555 1_555
N9_3 C50_3 1_555 1_555
N10_3 C51_3 1_555 1_555
C49_3 C47_3 1_555 1_555
H17_3 C49_3 1_555 1_555
C50_3 C47_3 1_555 1_555
C51_3 C48_3 1_555 1_555
N11_3 Ag3_2 1_555 1_555
C52_3 C46_3 1_555 1_555
C53_3 C43_3 1_555 1_555
N12_2 C55_3 1_555 1_555
C54_3 C52_3 1_555 1_555
H18_3 C54_3 1_555 1_555
C55_3 C53_3 1_555 1_555
C56_3 N11_3 1_555 1_555
Ag6_2 N12_2 1_555 1_555
Ag7_2 N6_2 1_555 1_555
O22_3 Ru4 1_555 1_555
O23_3 Ru5 1_555 1_555
N15_2 Ag3_2 1_555 1_555
N16_2 Ag2_2 1_555 1_555
O12_3 C4_3 1_555 1_555
C21_3 C22_3 1_555 1_555
C25_3 C29_3 1_555 1_555
C26_3 C27_3 1_555 1_555
O20_3 C39_3 1_555 1_555
C48_3 C49_3 1_555 1_555
C52_3 C56_3 1_555 1_555
C53_3 C54_3 1_555 1_555
N13_2 Ag1_5 1_555 1_555
Ru4_2 Ru5_2 1_555 1_555
O16_2 C30_4 1_555 1_555
O17_2 C30_4 1_555 1_555
C30_4 C35_4 1_555 1_555
N7_2 C31_4 1_555 1_555
C31_4 C32_4 1_555 1_555
C32_4 C34_4 1_555 1_555
N8_4 Ag1_6 1_555 1_555
C33_4 C34_4 1_555 1_555
C34_4 H10_4 1_555 1_555
C35_4 C36_4 1_555 1_555
C36_4 C32_4 1_555 1_555
H11_4 C36_4 1_555 1_555
C37_4 N8_4 1_555 1_555
C38_4 C33_4 1_555 1_555
H12_4 C38_4 1_555 1_555
Ru4_3 O16_2 1_555 1_555
Ru5_3 O17_2 1_555 1_555
Ag5_6 N7_2 1_555 1_555
C33_4 C37_4 1_555 1_555
C35_4 C38_4 1_555 1_555
Ru4_3 Ru5_3 1_555 1_555
Ag6_2 N4_4 1_555 1_555
O24_2 C14_4 1_555 1_555
C11_4 C14_4 1_555 1_555
C14_4 O13_4 1_555 1_555
C17_4 C11_4 1_555 1_555
H5_4 C17_4 1_555 1_555
C18_4 C11_4 1_555 1_555
H6_4 C18_4 1_555 1_555
C20_4 C17_4 1_555 1_555
C21_4 C18_4 1_555 1_555
N3_4 C23_4 1_555 1_555
N4_4 C24_4 1_555 1_555
C22_4 C20_4 1_555 1_555
H8_4 C22_4 1_555 1_555
C23_4 C20_4 1_555 1_555
C24_4 C21_4 1_555 1_555
C21_4 C22_4 1_555 1_555
Ag7_2 N10_4 1_555 1_555
O25_2 C42_4 1_555 1_555
O26_4 C42_4 1_555 1_555
C41_4 C42_4 1_555 1_555
C44_4 C41_4 1_555 1_555
H14_4 C44_4 1_555 1_555
C45_4 C41_4 1_555 1_555
H15_4 C45_4 1_555 1_555
C47_4 C44_4 1_555 1_555
C48_4 C45_4 1_555 1_555
N9_4 C50_4 1_555 1_555
N10_4 C51_4 1_555 1_555
C49_4 C47_4 1_555 1_555
H17_4 C49_4 1_555 1_555
C50_4 C47_4 1_555 1_555
C51_4 C48_4 1_555 1_555
C48_4 C49_4 1_555 1_555
Ru8_3 O10_6 1_555 1_555
O9_4 Ru4_2 1_555 1_555
O12_4 Ru5_2 1_555 1_555
O14_5 Ru5_2 1_555 1_555
O15_5 Ru4_2 1_555 1_555
C4_4 O9_4 1_555 1_555
C7_4 C4_4 1_555 1_555
C16_4 C7_4 1_555 1_555
H4_4 C16_4 1_555 1_555
C19_4 C7_4 1_555 1_555
H7_4 C19_4 1_555 1_555
C25_4 C19_4 1_555 1_555
C26_4 C16_4 1_555 1_555
N15_2 C28_4 1_555 1_555
C27_4 C25_4 1_555 1_555
H9_4 C27_4 1_555 1_555
C28_4 C26_4 1_555 1_555
C29_4 N5_4 1_555 1_555
O22_4 Ru4_2 1_555 1_555
O23_4 Ru5_2 1_555 1_555
O12_4 C4_4 1_555 1_555
C25_4 C29_4 1_555 1_555
C26_4 C27_4 1_555 1_555
O14_5 H22_3 1_555 1_555
O15_5 H24_3 1_555 1_555
O14_6 Ru5_3 1_555 1_555
O15_6 Ru4_3 1_555 1_555
O18_4 Ru4_3 1_555 1_555
O20_4 Ru5_3 1_555 1_555
C39_4 O18_4 1_555 1_555
C40_4 C39_4 1_555 1_555
C43_4 C40_4 1_555 1_555
H13_4 C43_4 1_555 1_555
C46_4 C40_4 1_555 1_555
H16_4 C46_4 1_555 1_555
C52_4 C46_4 1_555 1_555
C53_4 C43_4 1_555 1_555
N16_2 C55_4 1_555 1_555
C54_4 C52_4 1_555 1_555
H18_4 C54_4 1_555 1_555
C55_4 C53_4 1_555 1_555
C56_4 N11_4 1_555 1_555
O20_4 C39_4 1_555 1_555
C52_4 C56_4 1_555 1_555
C53_4 C54_4 1_555 1_555
O14_6 H21_3 1_555 1_555
O14_6 H22_4 1_555 1_555
O15_6 H23_3 1_555 1_555
O15_6 H24_4 1_555 1_555
Ag5_6 N2_3 1_555 1_555
O23_3 C3_3 1_555 1_555
C3_3 O22_3 1_555 1_555
N13_2 C5_3 1_555 1_555
C5_3 C6_3 1_555 1_555
C6_3 C9_3 1_555 1_555
N2_3 C13_3 1_555 1_555
C8_3 C9_3 1_555 1_555
C9_3 H1_3 1_555 1_555
C10_3 C3_3 1_555 1_555
C12_3 C6_3 1_555 1_555
H2_3 C12_3 1_555 1_555
C13_3 C8_3 1_555 1_555
C15_3 C8_3 1_555 1_555
H3_3 C15_3 1_555 1_555
C10_3 C12_3 1_555 1_555
C10_3 C15_3 1_555 1_555
O10_5 H19_4 1_555 1_555
O10_5 H20_4 1_555 1_555
Ag5_5 N2_4 1_555 1_555
O23_4 C3_4 1_555 1_555
C3_4 O22_4 1_555 1_555
N13 C5_4 1_555 1_555
C5_4 C6_4 1_555 1_555
C6_4 C9_4 1_555 1_555
N2_4 C13_4 1_555 1_555
C8_4 C9_4 1_555 1_555
C9_4 H1_4 1_555 1_555
C10_4 C3_4 1_555 1_555
C12_4 C6_4 1_555 1_555
H2_4 C12_4 1_555 1_555
C13_4 C8_4 1_555 1_555
C15_4 C8_4 1_555 1_555
H3_4 C15_4 1_555 1_555
C10_4 C12_4 1_555 1_555
C10_4 C15_4 1_555 1_555
O14_5 H21_4 1_555 1_555
O15_5 H23_4 1_555 1_555

#END
