
###############################################################################
#
# This file contains modified crystal structure data generated from the
# MOF subset of the Cambridge Structural Database (CSD) v543 
# hosted by the Cambridge Crystallographic Data Centre (CCDC).
#
# This work is licensed under the Creative Commons
# Attribution-NonCommercial-ShareAlike 4.0 International License.
# To view a copy of this license, visit
# http://creativecommons.org/licenses/by-nc-sa/4.0/
# or send a letter to
# Creative Commons, PO Box 1866, Mountain View, CA 94042, USA.
#
# CIF created using the CSD Python API on 29 September 2022
# The structure has been converted into the P1 space group
# The structure has a 3D framework
# The original CSD entry KUYLOH is in the monoclinic crystal system
# The framework has been calculated to contain at least 10.0% void space
# The void calculation uses a probe of radius 1.32A, grid spacing 0.4
# The framework is charged, counterions have been retained in the structure
#
###############################################################################

data_KUYLOH
_chemical_formula_moiety         '(C120 H108 N16 O44 U4 4+)n'
_symmetry_cell_setting           triclinic
_symmetry_space_group_name_H-M   'P 1'
_symmetry_Int_Tables_number      1
_space_group_name_Hall           'P 1'
loop_
_symmetry_equiv_pos_site_id
_symmetry_equiv_pos_as_xyz
1 x,y,z
_cell_length_a                   6.9795(3)
_cell_length_b                   29.5010(15)
_cell_length_c                   15.8327(8)
_cell_angle_alpha                90
_cell_angle_beta                 101.455(5)
_cell_angle_gamma                90
_cell_volume                     3195.05
loop_
_atom_site_label
_atom_site_type_symbol
_atom_site_fract_x
_atom_site_fract_y
_atom_site_fract_z
O8 O 0.0996(6) 0.50213(15) 0.7871(3)
O9 O 0.2521(6) 0.46833(14) 0.9661(3)
O11 O 0.1720(6) 0.40441(14) 0.8181(3)
O4 O 0.1241(6) 0.47161(14) 0.0847(3)
O5 O 0.1720(6) 0.09559(14) 0.3181(3)
O6 O 0.0141(7) 0.15932(16) 0.2693(3)
N2 N 0.7615(7) 0.39618(18) 0.1880(3)
N3 N 0.6971(8) 0.21035(18) 0.3768(4)
C7 C 0.2579(8) 0.4613(2) 0.0450(4)
C8 C 0.4361(8) 0.4383(2) 0.0961(4)
C9 C 0.4414(9) 0.4238(2) 0.1789(4)
H5 H 0.3319 0.4284 0.2052
C10 C 0.6069(9) 0.4025(2) 0.2236(4)
H6 H 0.6100 0.3922 0.2807
C11 C 0.7603(9) 0.4095(2) 0.1061(4)
H7 H 0.8717 0.4043 0.0814
C12 C 0.5981(9) 0.4305(2) 0.0587(4)
H8 H 0.5963 0.4395 0.0010
C13 C 0.1595(9) 0.1378(2) 0.3031(4)
C14 C 0.3511(10) 0.1635(2) 0.3294(4)
C15 C 0.3632(10) 0.2091(2) 0.3088(5)
H9 H 0.2522 0.2244 0.2772
C16 C 0.5381(10) 0.2319(2) 0.3347(5)
H10 H 0.5453 0.2633 0.3224
C17 C 0.6884(10) 0.1660(2) 0.3964(4)
H11 H 0.8014 0.1512 0.4276
C18 C 0.5208(10) 0.1424(2) 0.3721(4)
H12 H 0.5188 0.1108 0.3843
C19 C 0.9035(8) 0.3556(2) 0.4718(4)
C20 C 0.9277(8) 0.3786(2) 0.3963(4)
C21 C 0.9244(8) 0.3538(2) 0.3212(4)
C22 C 0.8985(8) 0.3067(2) 0.3192(4)
C23 C 0.8893(8) 0.2839(2) 0.3966(4)
C24 C 0.8848(8) 0.3079(2) 0.4730(4)
C25 C 0.9010(9) 0.3835(2) 0.5513(4)
H13 H 0.8080 0.4089 0.5362
H14 H 0.8541 0.3644 0.5945
C26 C 0.9552(10) 0.4295(2) 0.3982(4)
H15 H 0.9312 0.4412 0.3392
H17 H 0.8631 0.4434 0.4298
C27 C 0.9496(9) 0.3774(2) 0.2399(4)
C28 C 0.8818(11) 0.2809(3) 0.2351(5)
H20 H 0.8464 0.2493 0.2436
H22 H 0.7807 0.2949 0.1910
C29 C 0.8944(9) 0.2330(2) 0.3989(5)
H23 H 0.9599 0.2232 0.4573
H24 H 0.9749 0.2222 0.3580
C30 C 0.8639(11) 0.2830(3) 0.5525(5)
H25 H 0.8006 0.3027 0.5887
H26 H 0.9935 0.2741 0.5845
H27 H 0.7840 0.2558 0.5367
U3 U 0.01740(3) 0.53606(2) 0.15205(2)
U2 U 0.01740(3) 0.96394(2) 0.65205(2)
O10 O 0.1241(6) 0.02839(14) 0.5847(3)
O1 O 0.1987(6) 0.92760(16) 0.7840(3)
O2 O 0.3488(6) 0.98327(16) 0.7309(3)
O7 O 0.1378(6) 0.92838(14) 0.5886(3)
N1 N 0.9025(7) 0.90201(17) 0.9099(3)
C1 C 0.3522(9) 0.9497(2) 0.7808(4)
C2 C 0.5441(9) 0.9338(2) 0.8304(4)
C3 C 0.7020(9) 0.9628(2) 0.8484(4)
H1 H 0.6871 0.9940 0.8337
C4 C 0.8836(9) 0.9458(2) 0.8886(4)
H2 H 0.9939 0.9653 0.9007
C5 C 0.7491(9) 0.8733(2) 0.8936(4)
H3 H 0.7676 0.8422 0.9089
C6 C 0.5667(10) 0.8884(2) 0.8551(4)
H4 H 0.4579 0.8684 0.8455
O1_2 O 0.1987(6) 0.57240(16) 0.2840(3)
O2_2 O 0.3488(6) 0.51673(16) 0.2309(3)
O7_2 O 0.1378(6) 0.57162(14) 0.0886(3)
N1_2 N 0.9025(7) 0.59799(17) 0.4099(3)
C1_2 C 0.3522(9) 0.5503(2) 0.2808(4)
C2_2 C 0.5441(9) 0.5662(2) 0.3304(4)
C3_2 C 0.7020(9) 0.5372(2) 0.3484(4)
H1_2 H 0.6871 0.5060 0.3337
C4_2 C 0.8836(9) 0.5542(2) 0.3886(4)
H2_2 H 0.9939 0.5347 0.4007
C5_2 C 0.7491(9) 0.6267(2) 0.3936(4)
H3_2 H 0.7676 0.6578 0.4089
C6_2 C 0.5667(10) 0.6116(2) 0.3551(4)
H4_2 H 0.4579 0.6316 0.3455
H16 H 0.9107 0.5632 0.5730
H18 H 0.9941 0.6442 0.7963
H19 H 0.9560 0.5974 0.7448
H21 H 0.9926 0.7182 0.7836
O9_2 O 0.2521(6) 0.03167(14) 0.4661(3)
O6_2 O 0.0141(7) 0.34068(16) 0.7693(3)
N2_2 N 0.7615(7) 0.10382(18) 0.6880(3)
N3_2 N 0.6971(8) 0.28965(18) 0.8768(4)
C7_2 C 0.2579(8) 0.0387(2) 0.5450(4)
C8_2 C 0.4361(8) 0.0617(2) 0.5961(4)
C9_2 C 0.4414(9) 0.0762(2) 0.6789(4)
H5_2 H 0.3319 0.0716 0.7052
C10_2 C 0.6069(9) 0.0975(2) 0.7236(4)
H6_2 H 0.6100 0.1078 0.7807
C11_2 C 0.7603(9) 0.0905(2) 0.6061(4)
H7_2 H 0.8717 0.0957 0.5814
C12_2 C 0.5981(9) 0.0695(2) 0.5587(4)
H8_2 H 0.5963 0.0605 0.5010
C13_2 C 0.1595(9) 0.3622(2) 0.8031(4)
C14_2 C 0.3511(10) 0.3365(2) 0.8294(4)
C15_2 C 0.3632(10) 0.2909(2) 0.8088(5)
H9_2 H 0.2522 0.2756 0.7772
C16_2 C 0.5381(10) 0.2681(2) 0.8347(5)
H10_2 H 0.5453 0.2367 0.8224
C17_2 C 0.6884(10) 0.3340(2) 0.8964(4)
H11_2 H 0.8014 0.3488 0.9276
C18_2 C 0.5208(10) 0.3576(2) 0.8721(4)
H12_2 H 0.5188 0.3892 0.8843
C19_2 C 0.9035(8) 0.1444(2) 0.9718(4)
C20_2 C 0.9277(8) 0.1214(2) 0.8963(4)
C21_2 C 0.9244(8) 0.1462(2) 0.8212(4)
C22_2 C 0.8985(8) 0.1933(2) 0.8192(4)
C23_2 C 0.8893(8) 0.2161(2) 0.8966(4)
C24_2 C 0.8848(8) 0.1921(2) 0.9730(4)
C26_2 C 0.9552(10) 0.0705(2) 0.8982(4)
H15_2 H 0.9312 0.0588 0.8392
H17_2 H 0.8631 0.0566 0.9298
C27_2 C 0.9496(9) 0.1226(2) 0.7399(4)
C28_2 C 0.8818(11) 0.2191(3) 0.7351(5)
H20_2 H 0.8464 0.2507 0.7436
H22_2 H 0.7807 0.2051 0.6910
C29_2 C 0.8944(9) 0.2670(2) 0.8989(5)
H23_2 H 0.9599 0.2768 0.9573
H24_2 H 0.9749 0.2778 0.8580
U1 U 0.98260(3) 0.46394(2) 0.84795(2)
O1_3 O 0.8013(6) 0.42760(16) 0.7160(3)
O2_3 O 0.6512(6) 0.48327(16) 0.7691(3)
O7_3 O 0.8622(6) 0.42838(14) 0.9114(3)
N1_3 N 0.0975(7) 0.40201(17) 0.5901(3)
C1_3 C 0.6478(9) 0.4497(2) 0.7192(4)
C2_3 C 0.4559(9) 0.4338(2) 0.6696(4)
C3_3 C 0.2980(9) 0.4628(2) 0.6516(4)
H1_3 H 0.3129 0.4940 0.6663
C4_3 C 0.1164(9) 0.4458(2) 0.6114(4)
H2_3 H 0.0061 0.4653 0.5993
C5_3 C 0.2509(9) 0.3733(2) 0.6064(4)
H3_3 H 0.2324 0.3422 0.5911
C6_3 C 0.4333(10) 0.3884(2) 0.6449(4)
H4_3 H 0.5421 0.3684 0.6545
H16_2 H 0.0893 0.4368 0.4270
H18_2 H 0.0059 0.3558 0.2037
H19_2 H 0.0440 0.4026 0.2552
H21_2 H 0.0074 0.2818 0.2164
O10_2 O 0.8759(6) 0.52839(14) 0.9153(3)
U4 U 0.98260(3) 0.03606(2) 0.34795(2)
O3 O 0.7479(6) 0.96833(14) 0.5339(3)
O4_2 O 0.8759(6) 0.97161(14) 0.4153(3)
O5_2 O 0.8280(6) 0.59559(14) 0.1819(3)
O6_3 O 0.9859(7) 0.65932(16) 0.2307(3)
N2_3 N 0.2385(7) 0.89618(18) 0.3120(3)
N3_3 N 0.3029(8) 0.71035(18) 0.1232(4)
C7_3 C 0.7421(8) 0.9613(2) 0.4550(4)
C8_3 C 0.5639(8) 0.9383(2) 0.4039(4)
C9_3 C 0.5586(9) 0.9238(2) 0.3211(4)
H5_3 H 0.6681 0.9284 0.2948
C10_3 C 0.3931(9) 0.9025(2) 0.2764(4)
H6_3 H 0.3900 0.8922 0.2193
C11_3 C 0.2397(9) 0.9095(2) 0.3939(4)
H7_3 H 0.1283 0.9043 0.4186
C12_3 C 0.4019(9) 0.9305(2) 0.4413(4)
H8_3 H 0.4037 0.9395 0.4990
C13_3 C 0.8405(9) 0.6378(2) 0.1969(4)
C14_3 C 0.6489(10) 0.6635(2) 0.1706(4)
C15_3 C 0.6368(10) 0.7091(2) 0.1912(5)
H9_3 H 0.7478 0.7244 0.2228
C16_3 C 0.4619(10) 0.7319(2) 0.1653(5)
H10_3 H 0.4547 0.7633 0.1776
C17_3 C 0.3116(10) 0.6660(2) 0.1036(4)
H11_3 H 0.1986 0.6512 0.0724
C18_3 C 0.4792(10) 0.6424(2) 0.1279(4)
H12_3 H 0.4812 0.6108 0.1157
C19_3 C 0.0965(8) 0.8556(2) 0.0282(4)
C20_3 C 0.0723(8) 0.8786(2) 0.1037(4)
C21_3 C 0.0756(8) 0.8538(2) 0.1788(4)
C22_3 C 0.1015(8) 0.8067(2) 0.1808(4)
C23_3 C 0.1107(8) 0.7839(2) 0.1034(4)
C24_3 C 0.1152(8) 0.8079(2) 0.0270(4)
C26_3 C 0.0448(10) 0.9295(2) 0.1018(4)
H15_3 H 0.0688 0.9412 0.1608
H17_3 H 0.1369 0.9434 0.0702
C27_3 C 0.0504(9) 0.8774(2) 0.2601(4)
C28_3 C 0.1182(11) 0.7809(3) 0.2649(5)
H20_3 H 0.1536 0.7493 0.2564
H22_3 H 0.2193 0.7949 0.3090
C29_3 C 0.1056(9) 0.7330(2) 0.1011(5)
H23_3 H 0.0401 0.7232 0.0427
H24_3 H 0.0251 0.7222 0.1420
O11_2 O 0.8280(6) 0.90441(14) 0.6819(3)
O3_2 O 0.7479(6) 0.53167(14) 0.0339(3)
O6_4 O 0.9859(7) 0.84068(16) 0.7307(3)
N2_4 N 0.2385(7) 0.60382(18) 0.8120(3)
N3_4 N 0.3029(8) 0.78965(18) 0.6232(4)
C7_4 C 0.7421(8) 0.5387(2) 0.9550(4)
C8_4 C 0.5639(8) 0.5617(2) 0.9039(4)
C9_4 C 0.5586(9) 0.5762(2) 0.8211(4)
H5_4 H 0.6681 0.5716 0.7948
C10_4 C 0.3931(9) 0.5975(2) 0.7764(4)
H6_4 H 0.3900 0.6078 0.7193
C11_4 C 0.2397(9) 0.5905(2) 0.8939(4)
H7_4 H 0.1283 0.5957 0.9186
C12_4 C 0.4019(9) 0.5695(2) 0.9413(4)
H8_4 H 0.4037 0.5605 0.9990
C13_4 C 0.8405(9) 0.8622(2) 0.6969(4)
C14_4 C 0.6489(10) 0.8365(2) 0.6706(4)
C15_4 C 0.6368(10) 0.7909(2) 0.6912(5)
H9_4 H 0.7478 0.7756 0.7228
C16_4 C 0.4619(10) 0.7681(2) 0.6653(5)
H10_4 H 0.4547 0.7367 0.6776
C17_4 C 0.3116(10) 0.8340(2) 0.6036(4)
H11_4 H 0.1986 0.8488 0.5724
C18_4 C 0.4792(10) 0.8576(2) 0.6279(4)
H12_4 H 0.4812 0.8892 0.6157
C19_4 C 0.0965(8) 0.6444(2) 0.5282(4)
C20_4 C 0.0723(8) 0.6214(2) 0.6037(4)
C21_4 C 0.0756(8) 0.6462(2) 0.6788(4)
C22_4 C 0.1015(8) 0.6933(2) 0.6808(4)
C23_4 C 0.1107(8) 0.7161(2) 0.6034(4)
C24_4 C 0.1152(8) 0.6921(2) 0.5270(4)
C25_2 C 0.0990(9) 0.6165(2) 0.4487(4)
H13_2 H 0.1920 0.5911 0.4638
H14_2 H 0.1459 0.6356 0.4055
C26_4 C 0.0448(10) 0.5705(2) 0.6018(4)
H15_4 H 0.0688 0.5588 0.6608
H17_4 H 0.1369 0.5566 0.5702
C27_4 C 0.0504(9) 0.6226(2) 0.7601(4)
C28_4 C 0.1182(11) 0.7191(3) 0.7649(5)
H20_4 H 0.1536 0.7507 0.7564
H22_4 H 0.2193 0.7051 0.8090
C29_4 C 0.1056(9) 0.7670(2) 0.6011(5)
H23_4 H 0.0401 0.7768 0.5427
H24_4 H 0.0251 0.7778 0.6420
C30_2 C 0.1361(11) 0.7170(3) 0.4475(5)
H25_2 H 0.1994 0.6973 0.4113
H26_2 H 0.0065 0.7259 0.4155
H27_2 H 0.2160 0.7442 0.4633
O8_2 O 0.9004(6) 0.49787(15) 0.2129(3)
O1_4 O 0.8013(6) 0.07240(16) 0.2160(3)
O2_4 O 0.6512(6) 0.01673(16) 0.2691(3)
O7_4 O 0.8622(6) 0.07162(14) 0.4114(3)
N1_4 N 0.0975(7) 0.09799(17) 0.0901(3)
C1_4 C 0.6478(9) 0.0503(2) 0.2192(4)
C2_4 C 0.4559(9) 0.0662(2) 0.1696(4)
C3_4 C 0.2980(9) 0.0372(2) 0.1516(4)
H1_4 H 0.3129 0.0060 0.1663
C4_4 C 0.1164(9) 0.0542(2) 0.1114(4)
H2_4 H 0.0061 0.0347 0.0993
C5_4 C 0.2509(9) 0.1267(2) 0.1064(4)
H3_4 H 0.2324 0.1578 0.0911
C6_4 C 0.4333(10) 0.1116(2) 0.1449(4)
H4_4 H 0.5421 0.1316 0.1545
C25_3 C 0.0990(9) 0.8835(2) 0.9487(4)
H13_3 H 0.1920 0.9089 0.9638
H14_3 H 0.1459 0.8644 0.9055
C30_3 C 0.1361(11) 0.7830(3) 0.9475(5)
H25_3 H 0.1994 0.8027 0.9113
H26_3 H 0.0065 0.7741 0.9155
H27_3 H 0.2160 0.7558 0.9633
H16_3 H 0.9107 0.9368 0.0730
H18_3 H 0.9941 0.8558 0.2963
H19_3 H 0.9560 0.9026 0.2448
H21_3 H 0.9926 0.7818 0.2836
O8_3 O 0.9004(6) 0.00213(15) 0.7129(3)
O8_4 O 0.0996(6) 0.99787(15) 0.2871(3)
H16_4 H 0.0893 0.0632 0.9270
H18_4 H 0.0059 0.1442 0.7037
H19_4 H 0.0440 0.0974 0.7552
H21_4 H 0.0074 0.2182 0.7164
C25_4 C 0.9010(9) 0.1165(2) 0.0513(4)
H13_4 H 0.8080 0.0911 0.0362
H14_4 H 0.8541 0.1356 0.0945
C30_4 C 0.8639(11) 0.2170(3) 0.0525(5)
H25_4 H 0.8006 0.1973 0.0887
H26_4 H 0.9935 0.2259 0.0845
H27_4 H 0.7840 0.2442 0.0367
O12 O 0.3997(18) 0.3355(4) 0.3367(8)
O13 O 0.4313(18) 0.3617(4) 0.4649(9)
O14 O 0.3789(18) 0.2894(4) 0.4455(9)
N4 N 0.4026(9) 0.3282(4) 0.4134(8)
O12_2 O 0.6003(18) 0.8355(4) 0.1633(8)
O13_2 O 0.5687(18) 0.8617(4) 0.0351(9)
O14_2 O 0.6211(18) 0.7894(4) 0.0545(9)
N4_2 N 0.5974(9) 0.8282(4) 0.0866(8)
O12_3 O 0.6003(18) 0.6645(4) 0.6633(8)
O13_3 O 0.5687(18) 0.6383(4) 0.5351(9)
O14_3 O 0.6211(18) 0.7106(4) 0.5545(9)
N4_3 N 0.5974(9) 0.6718(4) 0.5866(8)
O12_4 O 0.3997(18) 0.1645(4) 0.8367(8)
O13_4 O 0.4313(18) 0.1383(4) 0.9649(9)
O14_4 O 0.3789(18) 0.2106(4) 0.9455(9)
N4_4 N 0.4026(9) 0.1718(4) 0.9134(8)
loop_
_geom_bond_atom_site_label_1
_geom_bond_atom_site_label_2
_geom_bond_site_symmetry_1
_geom_bond_site_symmetry_2
O4 C7 1_555 1_555
O5 C13 1_555 1_555
O6 C13 1_555 1_555
N2 C10 1_555 1_555
N3 C16 1_555 1_555
C7 C8 1_555 1_555
C8 C9 1_555 1_555
C9 H5 1_555 1_555
C10 C9 1_555 1_555
H6 C10 1_555 1_555
C11 N2 1_555 1_555
H7 C11 1_555 1_555
C12 C8 1_555 1_555
H8 C12 1_555 1_555
C13 C14 1_555 1_555
C14 C15 1_555 1_555
C15 H9 1_555 1_555
C16 C15 1_555 1_555
H10 C16 1_555 1_555
C17 N3 1_555 1_555
H11 C17 1_555 1_555
C18 C14 1_555 1_555
H12 C18 1_555 1_555
C19 C20 1_555 1_555
C20 C21 1_555 1_555
C21 C22 1_555 1_555
C22 C23 1_555 1_555
C23 C24 1_555 1_555
C24 C19 1_555 1_555
H13 C25 1_555 1_555
H14 C25 1_555 1_555
C26 C20 1_555 1_555
H15 C26 1_555 1_555
H17 C26 1_555 1_555
C27 N2 1_555 1_555
C28 C22 1_555 1_555
H20 C28 1_555 1_555
H22 C28 1_555 1_555
C29 N3 1_555 1_555
H23 C29 1_555 1_555
H24 C29 1_555 1_555
C30 C24 1_555 1_555
H25 C30 1_555 1_555
H26 C30 1_555 1_555
H27 C30 1_555 1_555
U3 O4 1_555 1_555
C11 C12 1_555 1_555
C17 C18 1_555 1_555
C19 C25 1_555 1_555
C21 C27 1_555 1_555
C23 C29 1_555 1_555
U2 O1 1_555 1_555
O1 C1 1_555 1_555
O2 U2 1_555 1_555
O7 U2 1_555 1_555
N1 C4 1_555 1_555
C1 O2 1_555 1_555
C2 C1 1_555 1_555
C3 C2 1_555 1_555
H1 C3 1_555 1_555
C4 C3 1_555 1_555
H2 C4 1_555 1_555
C5 N1 1_555 1_555
H3 C5 1_555 1_555
C6 C2 1_555 1_555
H4 C6 1_555 1_555
C5 C6 1_555 1_555
U3 O1_2 1_555 1_555
O1_2 C1_2 1_555 1_555
O2_2 U3 1_555 1_555
O7_2 U3 1_555 1_555
N1_2 C4_2 1_555 1_555
C1_2 O2_2 1_555 1_555
C2_2 C1_2 1_555 1_555
C3_2 C2_2 1_555 1_555
H1_2 C3_2 1_555 1_555
C4_2 C3_2 1_555 1_555
H2_2 C4_2 1_555 1_555
C5_2 N1_2 1_555 1_555
H3_2 C5_2 1_555 1_555
C6_2 C2_2 1_555 1_555
H4_2 C6_2 1_555 1_555
C5_2 C6_2 1_555 1_555
O9_2 C7_2 1_555 1_555
O10 C7_2 1_555 1_555
O11 C13_2 1_555 1_555
O6_2 C13_2 1_555 1_555
N2_2 C10_2 1_555 1_555
N3_2 C16_2 1_555 1_555
C7_2 C8_2 1_555 1_555
C8_2 C9_2 1_555 1_555
C9_2 H5_2 1_555 1_555
C10_2 C9_2 1_555 1_555
H6_2 C10_2 1_555 1_555
C11_2 N2_2 1_555 1_555
H7_2 C11_2 1_555 1_555
C12_2 C8_2 1_555 1_555
H8_2 C12_2 1_555 1_555
C13_2 C14_2 1_555 1_555
C14_2 C15_2 1_555 1_555
C15_2 H9_2 1_555 1_555
C16_2 C15_2 1_555 1_555
H10_2 C16_2 1_555 1_555
C17_2 N3_2 1_555 1_555
H11_2 C17_2 1_555 1_555
C18_2 C14_2 1_555 1_555
H12_2 C18_2 1_555 1_555
C19_2 C20_2 1_555 1_555
C20_2 C21_2 1_555 1_555
C21_2 C22_2 1_555 1_555
C22_2 C23_2 1_555 1_555
C23_2 C24_2 1_555 1_555
C24_2 C19_2 1_555 1_555
C26_2 C20_2 1_555 1_555
H15_2 C26_2 1_555 1_555
H17_2 C26_2 1_555 1_555
C27_2 N2_2 1_555 1_555
C28_2 C22_2 1_555 1_555
H20_2 C28_2 1_555 1_555
H22_2 C28_2 1_555 1_555
C29_2 N3_2 1_555 1_555
H23_2 C29_2 1_555 1_555
H24_2 C29_2 1_555 1_555
C11_2 C12_2 1_555 1_555
C17_2 C18_2 1_555 1_555
C21_2 C27_2 1_555 1_555
C23_2 C29_2 1_555 1_555
U1 O1_3 1_555 1_555
O1_3 C1_3 1_555 1_555
O2_3 U1 1_555 1_555
O7_3 U1 1_555 1_555
N1_3 C4_3 1_555 1_555
C1_3 O2_3 1_555 1_555
C2_3 C1_3 1_555 1_555
C3_3 C2_3 1_555 1_555
H1_3 C3_3 1_555 1_555
C4_3 C3_3 1_555 1_555
H2_3 C4_3 1_555 1_555
C5_3 N1_3 1_555 1_555
H3_3 C5_3 1_555 1_555
C6_3 C2_3 1_555 1_555
H4_3 C6_3 1_555 1_555
O10_2 U1 1_555 1_555
C5_3 C6_3 1_555 1_555
O3 C7_3 1_555 1_555
O4_2 C7_3 1_555 1_555
O5_2 C13_3 1_555 1_555
O6_3 C13_3 1_555 1_555
N2_3 C10_3 1_555 1_555
N3_3 C16_3 1_555 1_555
C7_3 C8_3 1_555 1_555
C8_3 C9_3 1_555 1_555
C9_3 H5_3 1_555 1_555
C10_3 C9_3 1_555 1_555
H6_3 C10_3 1_555 1_555
C11_3 N2_3 1_555 1_555
H7_3 C11_3 1_555 1_555
C12_3 C8_3 1_555 1_555
H8_3 C12_3 1_555 1_555
C13_3 C14_3 1_555 1_555
C14_3 C15_3 1_555 1_555
C15_3 H9_3 1_555 1_555
C16_3 C15_3 1_555 1_555
H10_3 C16_3 1_555 1_555
C17_3 N3_3 1_555 1_555
H11_3 C17_3 1_555 1_555
C18_3 C14_3 1_555 1_555
H12_3 C18_3 1_555 1_555
C19_3 C20_3 1_555 1_555
C20_3 C21_3 1_555 1_555
C21_3 C22_3 1_555 1_555
C22_3 C23_3 1_555 1_555
C23_3 C24_3 1_555 1_555
C24_3 C19_3 1_555 1_555
C26_3 C20_3 1_555 1_555
H15_3 C26_3 1_555 1_555
H17_3 C26_3 1_555 1_555
C27_3 N2_3 1_555 1_555
C28_3 C22_3 1_555 1_555
H20_3 C28_3 1_555 1_555
H22_3 C28_3 1_555 1_555
C29_3 N3_3 1_555 1_555
H23_3 C29_3 1_555 1_555
H24_3 C29_3 1_555 1_555
C11_3 C12_3 1_555 1_555
C17_3 C18_3 1_555 1_555
C21_3 C27_3 1_555 1_555
C23_3 C29_3 1_555 1_555
O10_2 C7_4 1_555 1_555
O11_2 C13_4 1_555 1_555
O6_4 C13_4 1_555 1_555
N2_4 C10_4 1_555 1_555
N3_4 C16_4 1_555 1_555
C7_4 C8_4 1_555 1_555
C8_4 C9_4 1_555 1_555
C9_4 H5_4 1_555 1_555
C10_4 C9_4 1_555 1_555
H6_4 C10_4 1_555 1_555
C11_4 N2_4 1_555 1_555
H7_4 C11_4 1_555 1_555
C12_4 C8_4 1_555 1_555
H8_4 C12_4 1_555 1_555
C13_4 C14_4 1_555 1_555
C14_4 C15_4 1_555 1_555
C15_4 H9_4 1_555 1_555
C16_4 C15_4 1_555 1_555
H10_4 C16_4 1_555 1_555
C17_4 N3_4 1_555 1_555
H11_4 C17_4 1_555 1_555
C18_4 C14_4 1_555 1_555
H12_4 C18_4 1_555 1_555
C19_4 C20_4 1_555 1_555
C20_4 C21_4 1_555 1_555
C21_4 C22_4 1_555 1_555
C22_4 C23_4 1_555 1_555
C23_4 C24_4 1_555 1_555
C24_4 C19_4 1_555 1_555
H13_2 C25_2 1_555 1_555
H14_2 C25_2 1_555 1_555
C26_4 C20_4 1_555 1_555
H15_4 C26_4 1_555 1_555
H17_4 C26_4 1_555 1_555
C27_4 N2_4 1_555 1_555
C28_4 C22_4 1_555 1_555
H20_4 C28_4 1_555 1_555
H22_4 C28_4 1_555 1_555
C29_4 N3_4 1_555 1_555
H23_4 C29_4 1_555 1_555
H24_4 C29_4 1_555 1_555
C30_2 C24_4 1_555 1_555
H25_2 C30_2 1_555 1_555
H26_2 C30_2 1_555 1_555
H27_2 C30_2 1_555 1_555
C11_4 C12_4 1_555 1_555
C17_4 C18_4 1_555 1_555
C19_4 C25_2 1_555 1_555
C21_4 C27_4 1_555 1_555
C23_4 C29_4 1_555 1_555
U4 O1_4 1_555 1_555
O1_4 C1_4 1_555 1_555
O2_4 U4 1_555 1_555
O7_4 U4 1_555 1_555
N1_4 C4_4 1_555 1_555
C1_4 O2_4 1_555 1_555
C2_4 C1_4 1_555 1_555
C3_4 C2_4 1_555 1_555
H1_4 C3_4 1_555 1_555
C4_4 C3_4 1_555 1_555
H2_4 C4_4 1_555 1_555
C5_4 N1_4 1_555 1_555
H3_4 C5_4 1_555 1_555
C6_4 C2_4 1_555 1_555
H4_4 C6_4 1_555 1_555
C5_4 C6_4 1_555 1_555
H13_3 C25_3 1_555 1_555
H14_3 C25_3 1_555 1_555
H25_3 C30_3 1_555 1_555
H26_3 C30_3 1_555 1_555
H27_3 C30_3 1_555 1_555
H13_4 C25_4 1_555 1_555
H14_4 C25_4 1_555 1_555
H25_4 C30_4 1_555 1_555
H26_4 C30_4 1_555 1_555
H27_4 C30_4 1_555 1_555
O12 N4 1_555 1_555
O13 N4 1_555 1_555
O14 N4 1_555 1_555
O12_2 N4_2 1_555 1_555
O13_2 N4_2 1_555 1_555
O14_2 N4_2 1_555 1_555
O12_3 N4_3 1_555 1_555
O13_3 N4_3 1_555 1_555
O14_3 N4_3 1_555 1_555
O12_4 N4_4 1_555 1_555
O13_4 N4_4 1_555 1_555
O14_4 N4_4 1_555 1_555

#END
