
###############################################################################
#
# This file contains modified crystal structure data generated from the
# MOF subset of the Cambridge Structural Database (CSD) v543 
# hosted by the Cambridge Crystallographic Data Centre (CCDC).
#
# This work is licensed under the Creative Commons
# Attribution-NonCommercial-ShareAlike 4.0 International License.
# To view a copy of this license, visit
# http://creativecommons.org/licenses/by-nc-sa/4.0/
# or send a letter to
# Creative Commons, PO Box 1866, Mountain View, CA 94042, USA.
#
# CIF created using the CSD Python API on 29 September 2022
# The structure has been converted into the P1 space group
# The structure has a 3D framework
# The original CSD entry KUZZAI is in the triclinic crystal system
# The framework has been calculated to contain at least 10.0% void space
# The void calculation uses a probe of radius 1.32A, grid spacing 0.4
#
###############################################################################

data_KUZZAI
_chemical_formula_moiety         '(C102 H76 N20 O16 Zn2)n'
_symmetry_cell_setting           triclinic
_symmetry_space_group_name_H-M   'P 1'
_symmetry_Int_Tables_number      1
_space_group_name_Hall           'P 1'
loop_
_symmetry_equiv_pos_site_id
_symmetry_equiv_pos_as_xyz
1 x,y,z
_cell_length_a                   15.5285(7)
_cell_length_b                   15.7542(7)
_cell_length_c                   15.8691(7)
_cell_angle_alpha                107.604(4)
_cell_angle_beta                 109.573(4)
_cell_angle_gamma                109.808(4)
_cell_volume                     3039.05
loop_
_atom_site_label
_atom_site_type_symbol
_atom_site_fract_x
_atom_site_fract_y
_atom_site_fract_z
H3 H 0.2795 0.7761 0.0026
H7 H 0.2637 0.9062 0.0347
C1 C 0.2195(6) 0.7667(5) 0.9485(5)
H1 H 0.2148 0.7306 0.8849
H2 H 0.1572 0.7279 0.9493
C2 C 0.1235(13) 0.8576(12) 0.9132(10)
H4 H 0.1265 0.9030 0.8839
H5 H 0.1027 0.8756 0.9636
H6 H 0.0734 0.7886 0.8612
N1 N 0.2302(10) 0.8666(8) 0.9617(8)
H8 H 0.2776 0.8945 0.9381
C1_2 C 0.7805(6) 0.2333(5) 0.0515(5)
H1_2 H 0.7852 0.2694 0.1151
H2_2 H 0.8428 0.2721 0.0507
C2_2 C 0.8765(13) 0.1424(12) 0.0868(10)
H4_2 H 0.8735 0.0970 0.1161
H5_2 H 0.8973 0.1244 0.0364
H6_2 H 0.9266 0.2114 0.1388
N1_2 N 0.7698(10) 0.1334(8) 0.0383(8)
H8_2 H 0.7224 0.1055 0.0619
H3_2 H 0.7205 0.2239 0.9974
H7_2 H 0.7363 0.0938 0.9653
O7 O 0.3786(6) 0.1053(5) 0.8171(5)
C51 C 0.2914(6) 0.0512(4) 0.7329(6)
O8 O 0.2603(7) 0.0989(7) 0.6873(8)
Zn6 Zn 0.40677(5) 0.25939(5) 0.88314(4)
O9 O 0.0920(3) 0.3729(3) 0.0713(3)
Zn1 Zn 0.04769(5) 0.30589(4) 0.92891(4)
O3 O 0.0260(3) 0.1299(3) 0.9533(3)
N12 N 0.1707(4) 0.3136(4) 0.9092(4)
C6 C 0.0746(7) 0.7953(6) 0.5831(7)
H11 H 0.0115 0.7592 0.5228
C12 C 0.1334(6) 0.8895(6) 0.6115(8)
H16 H 0.1107 0.9206 0.5744
C18 C 0.0987(5) 0.7430(4) 0.6363(4)
C22 C 0.1977(5) 0.7933(4) 0.7185(5)
H22 H 0.2200 0.7602 0.7533
C32 C 0.2352(8) 0.9475(5) 0.7016(8)
C40 C 0.0119(5) 0.5080(4) 0.8099(4)
H32 H 0.0347 0.5778 0.8377
C41 C 0.0257(5) 0.4657(4) 0.8725(4)
H33 H 0.0581 0.5073 0.9420
C42 C 0.0292(4) 0.5950(4) 0.6701(3)
H34 H 0.0861 0.6318 0.7353
C46 C 0.0207(4) 0.6390(4) 0.6057(4)
C47 C 0.2652(6) 0.8977(5) 0.7490(5)
H36 H 0.3324 0.9319 0.8039
C3 C 0.3116(6) 0.5918(4) 0.3025(4)
H9 H 0.3241 0.6410 0.2806
O4 O 0.1913(5) 0.5243(4) 0.0949(3)
C4 C 0.3761(5) 0.6179(4) 0.4013(4)
H10 H 0.4310 0.6845 0.4447
C5 C 0.2290(4) 0.4941(4) 0.2359(4)
C7 C 0.2128(4) 0.4237(4) 0.2722(4)
H12 H 0.1571 0.3575 0.2288
C8 C 0.8627(4) 0.9295(4) 0.8625(4)
H13 H 0.9273 0.9459 0.9121
C9 C 0.2751(4) 0.4479(4) 0.3686(4)
H14 H 0.2613 0.3986 0.3901
N3 N 0.4571(3) 0.3432(3) 0.8153(3)
N5 N 0.2344(4) 0.2231(5) 0.9829(5)
H19 H 0.1856 0.2059 0.9988
N6 N 0.5210(3) 0.6691(3) 0.5922(3)
C15 C 0.7790(4) 0.8325(4) 0.8149(4)
H20 H 0.7875 0.7849 0.8349
C17 C 0.3609(4) 0.5471(4) 0.4368(3)
C19 C 0.4867(4) 0.4706(4) 0.7261(4)
C20 C 0.6829(4) 0.8036(4) 0.7384(4)
C21 C 0.5846(4) 0.6356(3) 0.7304(4)
H21 H 0.6357 0.6590 0.7960
N7 N 0.2051(5) 0.3716(6) 0.8668(6)
C23 C 0.4990(4) 0.5381(4) 0.6780(4)
N8 N 0.2853(6) 0.3677(6) 0.8625(6)
C26 C 0.5938(4) 0.6983(4) 0.6847(4)
C27 C 0.7532(4) 0.9742(4) 0.7595(5)
C30 C 0.5366(4) 0.5079(4) 0.8296(4)
H26 H 0.5818 0.5776 0.8719
C31 C 0.6724(5) 0.8794(4) 0.7133(5)
H27 H 0.6080 0.8633 0.6636
C33 C 0.1672(5) 0.4628(5) 0.1250(4)
C36 C 0.4237(6) 0.3652(4) 0.6687(4)
H29 H 0.3900 0.3355 0.5984
C38 C 0.4367(4) 0.5743(4) 0.5399(3)
C39 C 0.5196(5) 0.4422(4) 0.8706(4)
H31 H 0.5540 0.4693 0.9407
N9 N 0.3056(4) 0.3053(4) 0.9019(4)
C44 C 0.4243(4) 0.5081(4) 0.5809(4)
H35 H 0.3658 0.4433 0.5435
C49 C 0.4111(6) 0.3057(4) 0.7143(4)
H38 H 0.3685 0.2354 0.6738
C50 C 0.2352(4) 0.2752(5) 0.9302(4)
O2 O 0.9248(3) 0.1721(3) 0.8597(3)
H25 H 0.7440 0.0217 0.7397
C35 C 0.8503(4) 0.0036(4) 0.8359(4)
C45 C 0.9415(5) 0.1079(4) 0.8870(4)
N11 N 0.9942(4) 0.3664(3) 0.8377(3)
O1 O 0.5381(3) 0.3248(3) 0.0093(3)
O5 O 0.4339(4) 0.2297(4) 0.0478(3)
C10 C 0.9550(4) 0.4988(4) 0.6384(4)
C11 C 0.7006(5) 0.4378(4) 0.2137(4)
H15 H 0.7066 0.4679 0.1723
C13 C 0.7791(4) 0.4835(4) 0.3105(4)
H17 H 0.8377 0.5452 0.3342
N4 N 0.9366(3) 0.5879(3) 0.5118(3)
C14 C 0.7751(4) 0.4418(4) 0.3746(4)
H18 H 0.2825 0.2067 0.0009
C16 C 0.6103(4) 0.3452(4) 0.1759(4)
C24 C 0.6043(4) 0.3030(4) 0.2397(4)
H23 H 0.5449 0.2421 0.2164
C25 C 0.6851(4) 0.3496(4) 0.3377(4)
H24 H 0.6797 0.3197 0.3794
C28 C 0.9660(4) 0.4521(4) 0.7079(4)
C29 C 0.8639(4) 0.4943(4) 0.4806(4)
C34 C 0.8692(4) 0.4463(4) 0.5421(4)
H28 H 0.8165 0.3808 0.5188
C37 C 0.9326(5) 0.3492(4) 0.6722(4)
H30 H 0.8995 0.3062 0.6030
C43 C 0.5215(5) 0.2965(5) 0.0720(4)
C48 C 0.9485(6) 0.3109(4) 0.7389(4)
H37 H 0.9257 0.2412 0.7130
Zn3 Zn 0.95231(5) 0.69411(4) 0.07109(4)
Zn2 Zn 0.59323(5) 0.74061(5) 0.11686(4)
C3_2 C 0.6884(6) 0.4082(4) 0.6975(4)
H9_2 H 0.6759 0.3590 0.7194
O4_2 O 0.8087(5) 0.4757(4) 0.9051(3)
C4_2 C 0.6239(5) 0.3821(4) 0.5987(4)
H10_2 H 0.5690 0.3155 0.5553
C5_2 C 0.7710(4) 0.5059(4) 0.7641(4)
C7_2 C 0.7872(4) 0.5763(4) 0.7278(4)
H12_2 H 0.8429 0.6425 0.7712
C8_2 C 0.1373(4) 0.0705(4) 0.1375(4)
H13_2 H 0.0727 0.0541 0.0879
C9_2 C 0.7249(4) 0.5521(4) 0.6314(4)
H14_2 H 0.7387 0.6014 0.6099
N3_2 N 0.5429(3) 0.6568(3) 0.1847(3)
N5_2 N 0.7656(4) 0.7769(5) 0.0171(5)
H19_2 H 0.8144 0.7941 0.0012
N6_2 N 0.4790(3) 0.3309(3) 0.4078(3)
C15_2 C 0.2210(4) 0.1675(4) 0.1851(4)
H20_2 H 0.2125 0.2151 0.1651
O6 O 0.9080(3) 0.6271(3) 0.9287(3)
C17_2 C 0.6391(4) 0.4529(4) 0.5632(3)
C19_2 C 0.5133(4) 0.5294(4) 0.2739(4)
C20_2 C 0.3171(4) 0.1964(4) 0.2616(4)
C21_2 C 0.4154(4) 0.3644(3) 0.2696(4)
H21_2 H 0.3643 0.3410 0.2040
N7_2 N 0.7949(5) 0.6284(6) 0.1332(6)
C23_2 C 0.5010(4) 0.4619(4) 0.3220(4)
N8_2 N 0.7147(6) 0.6323(6) 0.1375(6)
C26_2 C 0.4062(4) 0.3017(4) 0.3153(4)
C27_2 C 0.2468(4) 0.0258(4) 0.2405(5)
C30_2 C 0.4634(4) 0.4921(4) 0.1704(4)
H26_2 H 0.4182 0.4224 0.1281
C31_2 C 0.3276(5) 0.1206(4) 0.2867(5)
H27_2 H 0.3920 0.1367 0.3364
C33_2 C 0.8328(5) 0.5372(5) 0.8750(4)
C36_2 C 0.5763(6) 0.6348(4) 0.3313(4)
H29_2 H 0.6100 0.6645 0.4016
C38_2 C 0.5633(4) 0.4257(4) 0.4601(3)
C39_2 C 0.4804(5) 0.5578(4) 0.1294(4)
H31_2 H 0.4460 0.5307 0.0593
N9_2 N 0.6944(4) 0.6947(4) 0.0981(4)
C44_2 C 0.5757(4) 0.4919(4) 0.4191(4)
H35_2 H 0.6342 0.5567 0.4565
N10 N 0.8293(4) 0.6864(4) 0.0908(4)
C49_2 C 0.5889(6) 0.6943(4) 0.2857(4)
H38_2 H 0.6315 0.7646 0.3262
C50_2 C 0.7648(4) 0.7248(5) 0.0698(4)
O10 O 0.6214(6) 0.8947(5) 0.1829(5)
C6_2 C 0.9254(7) 0.2047(6) 0.4169(7)
H11_2 H 0.9885 0.2408 0.4772
C12_2 C 0.8666(6) 0.1105(6) 0.3885(8)
H16_2 H 0.8893 0.0794 0.4256
C18_2 C 0.9013(5) 0.2570(4) 0.3637(4)
C22_2 C 0.8023(5) 0.2067(4) 0.2815(5)
H22_2 H 0.7800 0.2398 0.2467
C32_2 C 0.7648(8) 0.0525(5) 0.2984(8)
C40_2 C 0.9881(5) 0.4920(4) 0.1901(4)
H32_2 H 0.9653 0.4222 0.1623
C41_2 C 0.9743(5) 0.5343(4) 0.1275(4)
H33_2 H 0.9419 0.4927 0.0580
C42_2 C 0.9708(4) 0.4050(4) 0.3299(3)
H34_2 H 0.9139 0.3682 0.2647
C46_2 C 0.9793(4) 0.3610(4) 0.3943(4)
C47_2 C 0.7348(6) 0.1023(5) 0.2510(5)
H36_2 H 0.6676 0.0681 0.1961
O3_2 O 0.9740(3) 0.8701(3) 0.0467(3)
C51_2 C 0.7086(6) 0.9488(4) 0.2671(6)
O8_2 O 0.7397(7) 0.9011(7) 0.3127(8)
O1_2 O 0.4619(3) 0.6752(3) 0.9907(3)
N2 N 0.0058(4) 0.6336(3) 0.1623(3)
O5_2 O 0.5661(4) 0.7703(4) 0.9522(3)
C10_2 C 0.0450(4) 0.5012(4) 0.3616(4)
C11_2 C 0.2994(5) 0.5622(4) 0.7863(4)
H15_2 H 0.2934 0.5321 0.8277
C13_2 C 0.2209(4) 0.5165(4) 0.6895(4)
H17_2 H 0.1623 0.4548 0.6658
N4_2 N 0.0634(3) 0.4121(3) 0.4882(3)
C14_2 C 0.2249(4) 0.5582(4) 0.6254(4)
H18_2 H 0.7175 0.7933 0.9991
C16_2 C 0.3897(4) 0.6548(4) 0.8241(4)
C24_2 C 0.3957(4) 0.6970(4) 0.7603(4)
H23_2 H 0.4551 0.7579 0.7836
C25_2 C 0.3149(4) 0.6504(4) 0.6623(4)
H24_2 H 0.3203 0.6803 0.6206
C28_2 C 0.0340(4) 0.5479(4) 0.2921(4)
C29_2 C 0.1361(4) 0.5057(4) 0.5194(4)
C34_2 C 0.1308(4) 0.5537(4) 0.4579(4)
H28_2 H 0.1835 0.6192 0.4812
C37_2 C 0.0674(5) 0.6508(4) 0.3278(4)
H30_2 H 0.1005 0.6938 0.3970
C43_2 C 0.4785(5) 0.7035(5) 0.9280(4)
C48_2 C 0.0515(6) 0.6891(4) 0.2611(4)
H37_2 H 0.0743 0.7588 0.2870
O2_2 O 0.0752(3) 0.8279(3) 0.1403(3)
H25_2 H 0.2560 0.9783 0.2603
C35_2 C 0.1497(4) 0.9964(4) 0.1641(4)
C45_2 C 0.0585(5) 0.8921(4) 0.1130(4)
loop_
_geom_bond_atom_site_label_1
_geom_bond_atom_site_label_2
_geom_bond_site_symmetry_1
_geom_bond_site_symmetry_2
C1 H1 1_555 1_555
H2 C1 1_555 1_555
C2 H4 1_555 1_555
H5 C2 1_555 1_555
H6 C2 1_555 1_555
N1 C1 1_555 1_555
H8 N1 1_555 1_555
C2 N1 1_555 1_555
C1_2 H1_2 1_555 1_555
H2_2 C1_2 1_555 1_555
C2_2 H4_2 1_555 1_555
H5_2 C2_2 1_555 1_555
H6_2 C2_2 1_555 1_555
N1_2 C1_2 1_555 1_555
H8_2 N1_2 1_555 1_555
C2_2 N1_2 1_555 1_555
O7 C51 1_555 1_555
O8 C51 1_555 1_555
Zn6 O7 1_555 1_555
N12 Zn1 1_555 1_555
C6 H11 1_555 1_555
C12 C6 1_555 1_555
H16 C12 1_555 1_555
C18 C6 1_555 1_555
C22 C18 1_555 1_555
H22 C22 1_555 1_555
C32 C12 1_555 1_555
H32 C40 1_555 1_555
C41 C40 1_555 1_555
H33 C41 1_555 1_555
H34 C42 1_555 1_555
C47 C22 1_555 1_555
H36 C47 1_555 1_555
C18 C46 1_555 1_555
C32 C47 1_555 1_555
C42 C46 1_555 1_555
C3 H9 1_555 1_555
O4 C33 1_555 1_555
C4 C3 1_555 1_555
H10 C4 1_555 1_555
C5 C3 1_555 1_555
C7 C5 1_555 1_555
H12 C7 1_555 1_555
C8 H13 1_555 1_555
C9 C7 1_555 1_555
H14 C9 1_555 1_555
N3 Zn6 1_555 1_555
H19 N5 1_555 1_555
N6 C26 1_555 1_555
C15 C8 1_555 1_555
H20 C15 1_555 1_555
O9 C33 1_555 1_555
C17 C4 1_555 1_555
C19 C23 1_555 1_555
C20 C15 1_555 1_555
C21 H21 1_555 1_555
N7 N8 1_555 1_555
C23 C21 1_555 1_555
N8 N9 1_555 1_555
C26 C20 1_555 1_555
C30 C19 1_555 1_555
H26 C30 1_555 1_555
C31 C20 1_555 1_555
H27 C31 1_555 1_555
C33 C5 1_555 1_555
C36 C19 1_555 1_555
H29 C36 1_555 1_555
C38 N6 1_555 1_555
C39 N3 1_555 1_555
H31 C39 1_555 1_555
N9 Zn6 1_555 1_555
C44 C23 1_555 1_555
H35 C44 1_555 1_555
N12 N7 1_555 1_555
C49 N3 1_555 1_555
H38 C49 1_555 1_555
C50 N5 1_555 1_555
C9 C17 1_555 1_555
C17 C38 1_555 1_555
C21 C26 1_555 1_555
C27 C31 1_555 1_555
C30 C39 1_555 1_555
C36 C49 1_555 1_555
C38 C44 1_555 1_555
N9 C50 1_555 1_555
N12 C50 1_555 1_555
O2 C45 1_555 1_555
C45 C35 1_555 1_555
O1 C43 1_555 1_555
O5 C43 1_555 1_555
C10 C28 1_555 1_555
C11 H15 1_555 1_555
C13 C11 1_555 1_555
H17 C13 1_555 1_555
N4 C29 1_555 1_555
C14 C13 1_555 1_555
C16 C11 1_555 1_555
C24 C16 1_555 1_555
H23 C24 1_555 1_555
C25 C14 1_555 1_555
H24 C25 1_555 1_555
C28 C37 1_555 1_555
C29 C14 1_555 1_555
C34 C10 1_555 1_555
H28 C34 1_555 1_555
C37 H30 1_555 1_555
C43 C16 1_555 1_555
C48 N11 1_555 1_555
H37 C48 1_555 1_555
C24 C25 1_555 1_555
C29 C34 1_555 1_555
C37 C48 1_555 1_555
C3_2 H9_2 1_555 1_555
O4_2 C33_2 1_555 1_555
C4_2 C3_2 1_555 1_555
H10_2 C4_2 1_555 1_555
C5_2 C3_2 1_555 1_555
C7_2 C5_2 1_555 1_555
H12_2 C7_2 1_555 1_555
C8_2 H13_2 1_555 1_555
C9_2 C7_2 1_555 1_555
H14_2 C9_2 1_555 1_555
N3_2 Zn2 1_555 1_555
H19_2 N5_2 1_555 1_555
N6_2 C26_2 1_555 1_555
C15_2 C8_2 1_555 1_555
H20_2 C15_2 1_555 1_555
O6 C33_2 1_555 1_555
C17_2 C4_2 1_555 1_555
C19_2 C23_2 1_555 1_555
C20_2 C15_2 1_555 1_555
C21_2 H21_2 1_555 1_555
N7_2 N8_2 1_555 1_555
C23_2 C21_2 1_555 1_555
N8_2 N9_2 1_555 1_555
C26_2 C20_2 1_555 1_555
C30_2 C19_2 1_555 1_555
H26_2 C30_2 1_555 1_555
C31_2 C20_2 1_555 1_555
H27_2 C31_2 1_555 1_555
C33_2 C5_2 1_555 1_555
C36_2 C19_2 1_555 1_555
H29_2 C36_2 1_555 1_555
C38_2 N6_2 1_555 1_555
C39_2 N3_2 1_555 1_555
H31_2 C39_2 1_555 1_555
N9_2 Zn2 1_555 1_555
C44_2 C23_2 1_555 1_555
H35_2 C44_2 1_555 1_555
N10 N7_2 1_555 1_555
C49_2 N3_2 1_555 1_555
H38_2 C49_2 1_555 1_555
C50_2 N5_2 1_555 1_555
Zn3 N10 1_555 1_555
O10 Zn2 1_555 1_555
C9_2 C17_2 1_555 1_555
C17_2 C38_2 1_555 1_555
C21_2 C26_2 1_555 1_555
C27_2 C31_2 1_555 1_555
C30_2 C39_2 1_555 1_555
C36_2 C49_2 1_555 1_555
C38_2 C44_2 1_555 1_555
N9_2 C50_2 1_555 1_555
N10 C50_2 1_555 1_555
C6_2 H11_2 1_555 1_555
C12_2 C6_2 1_555 1_555
H16_2 C12_2 1_555 1_555
C18_2 C6_2 1_555 1_555
C22_2 C18_2 1_555 1_555
H22_2 C22_2 1_555 1_555
C32_2 C12_2 1_555 1_555
H32_2 C40_2 1_555 1_555
C41_2 C40_2 1_555 1_555
H33_2 C41_2 1_555 1_555
H34_2 C42_2 1_555 1_555
C47_2 C22_2 1_555 1_555
H36_2 C47_2 1_555 1_555
C18_2 C46_2 1_555 1_555
C32_2 C47_2 1_555 1_555
C42_2 C46_2 1_555 1_555
O10 C51_2 1_555 1_555
O8_2 C51_2 1_555 1_555
O1_2 C43_2 1_555 1_555
O5_2 C43_2 1_555 1_555
C10_2 C28_2 1_555 1_555
C11_2 H15_2 1_555 1_555
C13_2 C11_2 1_555 1_555
H17_2 C13_2 1_555 1_555
N4_2 C29_2 1_555 1_555
C14_2 C13_2 1_555 1_555
C16_2 C11_2 1_555 1_555
C24_2 C16_2 1_555 1_555
H23_2 C24_2 1_555 1_555
C25_2 C14_2 1_555 1_555
H24_2 C25_2 1_555 1_555
C28_2 C37_2 1_555 1_555
C29_2 C14_2 1_555 1_555
C34_2 C10_2 1_555 1_555
H28_2 C34_2 1_555 1_555
C37_2 H30_2 1_555 1_555
C43_2 C16_2 1_555 1_555
C48_2 N2 1_555 1_555
H37_2 C48_2 1_555 1_555
C24_2 C25_2 1_555 1_555
C29_2 C34_2 1_555 1_555
C37_2 C48_2 1_555 1_555
O2_2 C45_2 1_555 1_555
C45_2 C35_2 1_555 1_555

#END
