
###############################################################################
#
# This file contains modified crystal structure data generated from the
# MOF subset of the Cambridge Structural Database (CSD) v543 
# hosted by the Cambridge Crystallographic Data Centre (CCDC).
#
# This work is licensed under the Creative Commons
# Attribution-NonCommercial-ShareAlike 4.0 International License.
# To view a copy of this license, visit
# http://creativecommons.org/licenses/by-nc-sa/4.0/
# or send a letter to
# Creative Commons, PO Box 1866, Mountain View, CA 94042, USA.
#
# CIF created using the CSD Python API on 29 September 2022
# The structure has been converted into the P1 space group
# The structure has a 3D framework
# The original CSD entry LABGAY is in the monoclinic crystal system
# The framework has been calculated to contain at least 10.0% void space
# The void calculation uses a probe of radius 1.32A, grid spacing 0.4
#
###############################################################################

data_LABGAY
_chemical_formula_moiety         '(C136 H108 F24 N24 O32 Zn6)n'
_symmetry_cell_setting           triclinic
_symmetry_space_group_name_H-M   'P 1'
_symmetry_Int_Tables_number      1
_space_group_name_Hall           'P 1'
loop_
_symmetry_equiv_pos_site_id
_symmetry_equiv_pos_as_xyz
1 x,y,z
_cell_length_a                   11.021(3)
_cell_length_b                   20.571(6)
_cell_length_c                   18.561(6)
_cell_angle_alpha                90
_cell_angle_beta                 105.822(10)
_cell_angle_gamma                90
_cell_volume                     4048.59
loop_
_atom_site_label
_atom_site_type_symbol
_atom_site_fract_x
_atom_site_fract_y
_atom_site_fract_z
Zn8 Zn 0.04949(6) 0.35227(3) 0.16619(3)
C14 C 0.4175(6) 0.5811(4) 0.0038(4)
H18 H 0.3870 0.5714 0.0470
H19 H 0.4931 0.6073 0.0207
C45 C 0.8045(6) 0.3917(3) 0.0684(4)
H42 H 0.8439 0.4226 0.0460
C46 C 0.7718(6) 0.3146(3) 0.1396(4)
H43 H 0.7859 0.2821 0.1757
C47 C 0.6589(6) 0.3332(4) 0.0969(5)
H44 H 0.5811 0.3162 0.0979
C49 C 0.5511(5) 0.4816(3) 0.0296(4)
H47 H 0.5208 0.4721 0.0729
H48 H 0.6262 0.5082 0.0459
N12 N 0.8635(4) 0.3509(2) 0.1217(3)
N14 N 0.6793(5) 0.3819(3) 0.0515(3)
Zn1 Zn 0.04540(5) 0.10399(3) 0.42202(3)
C1 C 0.0295(6) 0.2386(3) 0.4787(4)
H1 H 0.0712 0.2286 0.5281
C4 C 0.0116(8) 0.3593(3) 0.4979(4)
H5 H 0.0994 0.3628 0.5263
H8 H 0.0380 0.4377 0.6119
C11 C 0.1955(6) 0.6083(3) 0.9316(4)
H15 H 0.1561 0.5774 0.9540
C12 C 0.2282(6) 0.6854(3) 0.8604(4)
H16 H 0.2141 0.7179 0.8243
C13 C 0.3411(6) 0.6668(4) 0.9031(5)
H17 H 0.4189 0.6838 0.9021
C15 C 0.4489(5) 0.5184(3) 0.9704(4)
H20 H 0.4792 0.5279 0.9271
H21 H 0.3738 0.4918 0.9541
C16 C 0.1739(4) 0.0743(2) 0.5667(3)
C17 C 0.2804(4) 0.0555(2) 0.6321(3)
C18 C 0.3718(5) 0.1028(3) 0.6606(3)
H22 H 0.3639 0.1438 0.6388
C19 C 0.4734(5) 0.0893(3) 0.7206(3)
H23 H 0.5325 0.1216 0.7394
C20 C 0.4892(4) 0.0286(2) 0.7532(3)
C24 C 0.5987(5) 0.0103(3) 0.8224(3)
C25 C 0.7101(6) 0.0584(3) 0.8358(4)
C26 C 0.5426(7) 0.0130(4) 0.8909(3)
N1 N 0.0016(5) 0.1970(2) 0.4290(3)
N5 N 0.1365(4) 0.6491(2) 0.8783(3)
N6 N 0.3207(5) 0.6181(3) 0.9485(3)
O1 O 0.0805(3) 0.10432(19) 0.5762(2)
O2 O 0.1844(3) 0.06307(19) 0.50220(19)
F1 F 0.7473(3) 0.06886(18) 0.7751(3)
F2 F 0.8101(3) 0.0352(2) 0.8884(3)
F3 F 0.6842(4) 0.11661(19) 0.8611(3)
F4 F 0.4890(4) 0.0712(2) 0.8950(2)
F5 F 0.6324(4) 0.0068(2) 0.9559(2)
Zn6 Zn 0.04949(6) 0.14773(3) 0.66619(3)
C48 C 0.5825(6) 0.4189(4) 0.9962(4)
H45 H 0.6130 0.4286 0.9530
H46 H 0.5069 0.3927 0.9793
N11 N 0.0938(4) 0.0906(2) 0.7553(3)
O16 O 0.1613(5) 0.2207(2) 0.6670(3)
O20 O 0.1068(4) 0.0943(2) 0.3319(2)
C21 C 0.3984(5) 0.9822(3) 0.7254(3)
H24 H 0.4080 0.9410 0.7467
C22 C 0.2924(4) 0.9952(2) 0.6661(3)
C23 C 0.1908(5) 0.9450(3) 0.6460(4)
C27 C 0.6515(4) 0.9424(3) 0.8125(3)
C28 C 0.6624(5) 0.8916(3) 0.8640(3)
H25 H 0.6310 0.8963 0.9054
C29 C 0.7198(6) 0.8346(3) 0.8529(3)
H26 H 0.7246 0.8006 0.8867
C30 C 0.7707(5) 0.8260(2) 0.7930(3)
C31 C 0.8491(8) 0.7652(3) 0.7914(5)
C32 C 0.7576(5) 0.8754(2) 0.7400(3)
C33 C 0.8005(5) 0.8699(3) 0.6700(3)
C34 C 0.6962(5) 0.9323(2) 0.7505(3)
H27 H 0.6847 0.9648 0.7144
O3 O 0.0962(3) 0.95738(19) 0.5931(2)
O4 O 0.1973(5) 0.8976(3) 0.6879(4)
O5 O 0.8387(5) 0.7207(2) 0.8330(3)
O6 O 0.9315(6) 0.7649(3) 0.7611(4)
O7 O 0.7432(5) 0.8357(3) 0.6198(3)
O8 O 0.8932(4) 0.9057(2) 0.6681(2)
F6 F 0.4581(4) 0.9687(2) 0.8887(2)
Zn4 Zn 0.95460(5) 0.89601(3) 0.57798(3)
Zn7 Zn 0.95051(6) 0.64773(3) 0.83381(3)
C36 C 0.0561(8) 0.7685(3) 0.6378(4)
H29 H 0.0862 0.7864 0.6854
C37 C 0.0594(8) 0.7052(4) 0.6198(5)
H30 H 0.0924 0.6714 0.6525
H31 H 0.0075 0.6043 0.5364
C39 C 0.0704(7) 0.6362(3) 0.4483(4)
H33 H 0.0475 0.6703 0.4109
H34 H 0.1584 0.6419 0.4755
C40 C 0.0514(7) 0.5695(4) 0.4101(4)
H36 H 0.0820 0.5361 0.4475
C41 C 0.1167(10) 0.5642(4) 0.3526(5)
H37 H 0.0743 0.5909 0.3100
H38 H 0.2022 0.5803 0.3717
C42 C 0.0635(6) 0.4705(3) 0.2597(3)
H39 H 0.0101 0.4939 0.2209
C43 C 0.1740(7) 0.3935(3) 0.3241(4)
H40 H 0.2122 0.3532 0.3371
C44 C 0.1881(7) 0.4461(4) 0.3694(4)
H41 H 0.2350 0.4484 0.4193
N8 N 0.0053(6) 0.6998(2) 0.5445(3)
N9 N 0.1201(5) 0.4949(3) 0.3277(3)
N10 N 0.0938(4) 0.4094(2) 0.2553(3)
C2 C 0.9439(8) 0.2315(3) 0.3622(4)
H2 H 0.9138 0.2136 0.3146
C3 C 0.9406(8) 0.2948(4) 0.3802(5)
H3 H 0.9076 0.3286 0.3475
H4 H 0.9925 0.3957 0.4636
C5 C 0.9296(7) 0.3638(3) 0.5517(4)
H6 H 0.9525 0.3297 0.5891
H7 H 0.8416 0.3581 0.5245
C6 C 0.9486(7) 0.4305(4) 0.5899(4)
H9 H 0.9180 0.4639 0.5525
C7 C 0.8833(10) 0.4358(4) 0.6474(5)
H10 H 0.9257 0.4091 0.6900
H11 H 0.7978 0.4197 0.6283
C8 C 0.9365(6) 0.5295(3) 0.7403(3)
H12 H 0.9899 0.5061 0.7791
C9 C 0.8260(7) 0.6065(3) 0.6759(4)
H13 H 0.7878 0.6468 0.6629
C10 C 0.8119(7) 0.5539(4) 0.6306(4)
H14 H 0.7650 0.5516 0.5807
N2 N 0.9947(6) 0.3002(2) 0.4555(3)
N3 N 0.8799(5) 0.5051(3) 0.6723(3)
N4 N 0.9062(4) 0.5906(2) 0.7447(3)
C55 C 0.6016(5) 0.0178(3) 0.2746(3)
H51 H 0.5920 0.0590 0.2533
C56 C 0.7076(4) 0.0048(2) 0.3339(3)
C57 C 0.8092(5) 0.0550(3) 0.3540(4)
C61 C 0.3485(4) 0.0576(3) 0.1875(3)
C62 C 0.3376(5) 0.1084(3) 0.1360(3)
H52 H 0.3690 0.1037 0.0946
C63 C 0.2802(6) 0.1654(3) 0.1471(3)
H53 H 0.2754 0.1994 0.1133
C64 C 0.2293(5) 0.1740(2) 0.2070(3)
C65 C 0.1509(8) 0.2348(3) 0.2086(5)
C66 C 0.2424(5) 0.1246(2) 0.2600(3)
C67 C 0.1995(5) 0.1301(3) 0.3300(3)
C68 C 0.3038(5) 0.0677(2) 0.2495(3)
H54 H 0.3153 0.0352 0.2856
N13 N 0.8635(4) 0.1491(2) 0.6217(3)
O10 O 0.9195(3) 0.60432(19) 0.9238(2)
O12 O 0.9038(3) 0.04262(19) 0.4069(2)
O13 O 0.8027(5) 0.1024(3) 0.3121(4)
O14 O 0.1613(5) 0.2793(2) 0.1670(3)
O17 O 0.0685(6) 0.2351(3) 0.2389(4)
O18 O 0.2568(5) 0.1643(3) 0.3802(3)
F12 F 0.5419(4) 0.0313(2) 0.1113(2)
Zn9 Zn 0.95051(6) 0.85227(3) 0.33381(3)
C35 C 0.9705(6) 0.7614(3) 0.5213(4)
H28 H 0.9288 0.7714 0.4719
C38 C 0.9884(8) 0.6407(3) 0.5021(4)
H32 H 0.9006 0.6372 0.4737
H35 H 0.9620 0.5623 0.3881
C50 C 0.8261(4) 0.9257(2) 0.4333(3)
C51 C 0.7196(4) 0.9445(2) 0.3679(3)
C52 C 0.6282(5) 0.8972(3) 0.3394(3)
H49 H 0.6361 0.8562 0.3612
C53 C 0.5266(5) 0.9107(3) 0.2794(3)
H50 H 0.4675 0.8784 0.2606
C54 C 0.5108(4) 0.9714(2) 0.2468(3)
C58 C 0.4013(5) 0.9897(3) 0.1776(3)
C59 C 0.2899(6) 0.9416(3) 0.1642(4)
C60 C 0.4574(7) 0.9870(4) 0.1091(3)
N7 N 0.9984(5) 0.8030(2) 0.5710(3)
O9 O 0.9195(3) 0.89568(19) 0.4238(2)
O11 O 0.8156(3) 0.93693(19) 0.49780(19)
F7 F 0.2527(3) 0.93114(18) 0.2249(3)
F8 F 0.1899(3) 0.9648(2) 0.1116(3)
F9 F 0.3158(4) 0.88339(19) 0.1389(3)
F10 F 0.5110(4) 0.9288(2) 0.1050(2)
F11 F 0.3676(4) 0.9932(2) 0.0441(2)
C8_2 C 0.0635(6) 0.0295(3) 0.7597(3)
H12_2 H 0.0101 0.0061 0.7209
C9_2 C 0.1740(7) 0.1065(3) 0.8241(4)
H13_2 H 0.2122 0.1468 0.8371
C10_2 C 0.1881(7) 0.0539(4) 0.8694(4)
H14_2 H 0.2350 0.0516 0.9193
N3_2 N 0.1201(5) 0.0051(3) 0.8277(3)
C2_2 C 0.0561(8) 0.7315(3) 0.1378(4)
H2_2 H 0.0862 0.7136 0.1854
C3_2 C 0.0594(8) 0.7948(4) 0.1198(5)
H3_2 H 0.0924 0.8286 0.1525
H4_2 H 0.0075 0.8957 0.0364
N2_2 N 0.0053(6) 0.8002(2) 0.0445(3)
Zn5 Zn 0.95460(5) 0.60399(3) 0.07798(3)
H28_2 H 0.0712 0.2714 0.0281
H32_2 H 0.0994 0.1372 0.0263
H35_2 H 0.0380 0.0623 0.1119
C50_2 C 0.1739(4) 0.4257(2) 0.0667(3)
C51_2 C 0.2804(4) 0.4445(2) 0.1321(3)
C52_2 C 0.3718(5) 0.3972(3) 0.1606(3)
H49_2 H 0.3639 0.3562 0.1388
C53_2 C 0.4734(5) 0.4107(3) 0.2206(3)
H50_2 H 0.5325 0.3784 0.2394
C54_2 C 0.4892(4) 0.4714(2) 0.2532(3)
C55_2 C 0.3984(5) 0.5178(3) 0.2254(3)
H51_2 H 0.4080 0.5590 0.2467
C56_2 C 0.2924(4) 0.5048(2) 0.1661(3)
C57_2 C 0.1908(5) 0.5550(3) 0.1460(4)
C58_2 C 0.5987(5) 0.4897(3) 0.3224(3)
C59_2 C 0.7101(6) 0.4416(3) 0.3358(4)
C60_2 C 0.5426(7) 0.4870(4) 0.3909(3)
C61_2 C 0.6515(4) 0.5576(3) 0.3125(3)
C62_2 C 0.6624(5) 0.6084(3) 0.3640(3)
H52_2 H 0.6310 0.6037 0.4054
C63_2 C 0.7198(6) 0.6654(3) 0.3529(3)
H53_2 H 0.7246 0.6994 0.3867
C64_2 C 0.7707(5) 0.6740(2) 0.2930(3)
C65_2 C 0.8491(8) 0.7348(3) 0.2914(5)
C66_2 C 0.7576(5) 0.6246(2) 0.2400(3)
C67_2 C 0.8005(5) 0.6301(3) 0.1700(3)
C68_2 C 0.6962(5) 0.5677(2) 0.2505(3)
H54_2 H 0.6847 0.5352 0.2144
O9_2 O 0.0805(3) 0.39568(19) 0.0762(2)
O11_2 O 0.1844(3) 0.43693(19) 0.00220(19)
O12_2 O 0.0962(3) 0.54262(19) 0.0931(2)
O13_2 O 0.1973(5) 0.6024(3) 0.1879(4)
O14_2 O 0.8387(5) 0.7793(2) 0.3330(3)
O17_2 O 0.9315(6) 0.7351(3) 0.2611(4)
O18_2 O 0.7432(5) 0.6643(3) 0.1198(3)
O19 O 0.8932(4) 0.5943(2) 0.1681(2)
F7_2 F 0.7473(3) 0.43114(18) 0.2751(3)
F8_2 F 0.8101(3) 0.4648(2) 0.3884(3)
F9_2 F 0.6842(4) 0.38339(19) 0.3611(3)
F10_2 F 0.4890(4) 0.4288(2) 0.3950(2)
F11_2 F 0.6324(4) 0.4932(2) 0.4559(2)
F12_2 F 0.4581(4) 0.5313(2) 0.3887(2)
C5_2 C 0.0704(7) 0.8638(3) 0.9483(4)
H6_2 H 0.0475 0.8297 0.9109
H7_2 H 0.1584 0.8581 0.9755
C6_2 C 0.0514(7) 0.9305(4) 0.9101(4)
H9_2 H 0.0820 0.9639 0.9475
C7_2 C 0.1167(10) 0.9358(4) 0.8526(5)
H10_2 H 0.0743 0.9091 0.8100
H11_2 H 0.2022 0.9197 0.8717
Zn3 Zn 0.04540(5) 0.39601(3) 0.92202(3)
C35_2 C 0.0295(6) 0.2614(3) 0.9787(4)
C38_2 C 0.0116(8) 0.1407(3) 0.9979(4)
N7_2 N 0.0016(5) 0.3030(2) 0.9290(3)
O21 O 0.1068(4) 0.4057(2) 0.8319(2)
C11_2 C 0.8045(6) 0.1083(3) 0.5684(4)
H15_2 H 0.8439 0.0774 0.5460
C12_2 C 0.7718(6) 0.1854(3) 0.6396(4)
H16_2 H 0.7859 0.2179 0.6757
C13_2 C 0.6589(6) 0.1668(4) 0.5969(5)
H17_2 H 0.5811 0.1838 0.5979
C14_2 C 0.5825(6) 0.0811(4) 0.4962(4)
H18_2 H 0.6130 0.0714 0.4530
H19_2 H 0.5069 0.1073 0.4793
C15_2 C 0.5511(5) 0.0184(3) 0.5296(4)
H20_2 H 0.5208 0.0279 0.5729
N6_2 N 0.6793(5) 0.1181(3) 0.5515(3)
H48_2 H 0.3738 0.0082 0.4541
C1_2 C 0.9705(6) 0.7386(3) 0.0213(4)
C4_2 C 0.9884(8) 0.8593(3) 0.0021(4)
N1_2 N 0.9984(5) 0.6970(2) 0.0710(3)
C39_2 C 0.9296(7) 0.1362(3) 0.0517(4)
H33_2 H 0.9525 0.1703 0.0891
H34_2 H 0.8416 0.1419 0.0245
C40_2 C 0.9486(7) 0.0695(4) 0.0899(4)
H36_2 H 0.9180 0.0361 0.0525
C41_2 C 0.8833(10) 0.0642(4) 0.1474(5)
H37_2 H 0.9257 0.0909 0.1900
H38_2 H 0.7978 0.0803 0.1283
H1_2 H 0.9288 0.7286 0.9719
H5_2 H 0.9006 0.8628 0.9737
H8_2 H 0.9620 0.9377 0.8881
H21_2 H 0.6262 0.9918 0.5459
C16_2 C 0.8261(4) 0.5743(2) 0.9333(3)
C17_2 C 0.7196(4) 0.5555(2) 0.8679(3)
C18_2 C 0.6282(5) 0.6028(3) 0.8394(3)
H22_2 H 0.6361 0.6438 0.8612
C19_2 C 0.5266(5) 0.5893(3) 0.7794(3)
H23_2 H 0.4675 0.6216 0.7606
C20_2 C 0.5108(4) 0.5286(2) 0.7468(3)
C21_2 C 0.6016(5) 0.4822(3) 0.7746(3)
H24_2 H 0.5920 0.4410 0.7533
C22_2 C 0.7076(4) 0.4952(2) 0.8339(3)
C23_2 C 0.8092(5) 0.4450(3) 0.8540(4)
C24_2 C 0.4013(5) 0.5103(3) 0.6776(3)
C25_2 C 0.2899(6) 0.5584(3) 0.6642(4)
C26_2 C 0.4574(7) 0.5130(4) 0.6091(3)
C27_2 C 0.3485(4) 0.4424(3) 0.6875(3)
C28_2 C 0.3376(5) 0.3916(3) 0.6360(3)
H25_2 H 0.3690 0.3963 0.5946
C29_2 C 0.2802(6) 0.3346(3) 0.6471(3)
H26_2 H 0.2754 0.3006 0.6133
C30_2 C 0.2293(5) 0.3260(2) 0.7070(3)
C31_2 C 0.1509(8) 0.2652(3) 0.7086(5)
C32_2 C 0.2424(5) 0.3754(2) 0.7600(3)
C33_2 C 0.1995(5) 0.3699(3) 0.8300(3)
C34_2 C 0.3038(5) 0.4323(2) 0.7495(3)
H27_2 H 0.3153 0.4648 0.7856
O2_2 O 0.8156(3) 0.56307(19) 0.99780(19)
O3_2 O 0.9038(3) 0.45738(19) 0.9069(2)
O4_2 O 0.8027(5) 0.3976(3) 0.8121(4)
O6_2 O 0.0685(6) 0.2649(3) 0.7389(4)
O7_2 O 0.2568(5) 0.3357(3) 0.8802(3)
F1_2 F 0.2527(3) 0.56886(18) 0.7249(3)
F2_2 F 0.1899(3) 0.5352(2) 0.6116(3)
F3_2 F 0.3158(4) 0.61661(19) 0.6389(3)
F4_2 F 0.5110(4) 0.5712(2) 0.6050(2)
F5_2 F 0.3676(4) 0.5068(2) 0.5441(2)
F6_2 F 0.5419(4) 0.4687(2) 0.6113(2)
C36_2 C 0.9439(8) 0.2685(3) 0.8622(4)
H29_2 H 0.9138 0.2864 0.8146
C37_2 C 0.9406(8) 0.2052(4) 0.8802(5)
H30_2 H 0.9076 0.1714 0.8475
H31_2 H 0.9925 0.1043 0.9636
C45_2 C 0.1955(6) 0.8917(3) 0.4316(4)
H42_2 H 0.1561 0.9226 0.4540
C46_2 C 0.2282(6) 0.8146(3) 0.3604(4)
H43_2 H 0.2141 0.7821 0.3243
C47_2 C 0.3411(6) 0.8332(4) 0.4031(5)
H44_2 H 0.4189 0.8162 0.4021
C48_2 C 0.4175(6) 0.9189(4) 0.5038(4)
H45_2 H 0.3870 0.9286 0.5470
H46_2 H 0.4931 0.8927 0.5207
C49_2 C 0.4489(5) 0.9816(3) 0.4704(4)
H47_2 H 0.4792 0.9721 0.4271
N8_2 N 0.9947(6) 0.1998(2) 0.9555(3)
N12_2 N 0.1365(4) 0.8509(2) 0.3783(3)
N14_2 N 0.3207(5) 0.8819(3) 0.4485(3)
C42_2 C 0.9365(6) 0.9705(3) 0.2403(3)
H39_2 H 0.9899 0.9939 0.2791
C43_2 C 0.8260(7) 0.8935(3) 0.1759(4)
H40_2 H 0.7878 0.8532 0.1629
C44_2 C 0.8119(7) 0.9461(4) 0.1306(4)
H41_2 H 0.7650 0.9484 0.0807
N9_2 N 0.8799(5) 0.9949(3) 0.1723(3)
N10_2 N 0.9062(4) 0.9094(2) 0.2447(3)
loop_
_geom_bond_atom_site_label_1
_geom_bond_atom_site_label_2
_geom_bond_site_symmetry_1
_geom_bond_site_symmetry_2
C14 H18 1_555 1_555
H19 C14 1_555 1_555
C45 H42 1_555 1_555
C46 H43 1_555 1_555
C47 C46 1_555 1_555
H44 C47 1_555 1_555
H47 C49 1_555 1_555
H48 C49 1_555 1_555
N12 C45 1_555 1_555
N14 C45 1_555 1_555
C46 N12 1_555 1_555
C47 N14 1_555 1_555
Zn1 N1 1_555 1_555
C1 H1 1_555 1_555
H5 C4 1_555 1_555
C11 H15 1_555 1_555
C12 H16 1_555 1_555
C13 C12 1_555 1_555
H17 C13 1_555 1_555
H20 C15 1_555 1_555
H21 C15 1_555 1_555
C16 C17 1_555 1_555
C17 C18 1_555 1_555
C18 H22 1_555 1_555
C19 C18 1_555 1_555
H23 C19 1_555 1_555
C20 C19 1_555 1_555
C24 C20 1_555 1_555
C25 C24 1_555 1_555
C26 C24 1_555 1_555
N1 C1 1_555 1_555
N6 C11 1_555 1_555
O1 C16 1_555 1_555
O2 Zn1 1_555 1_555
F1 C25 1_555 1_555
F2 C25 1_555 1_555
F3 C25 1_555 1_555
F4 C26 1_555 1_555
F5 C26 1_555 1_555
Zn6 O1 1_555 1_555
C48 H45 1_555 1_555
H46 C48 1_555 1_555
N11 Zn6 1_555 1_555
O16 Zn6 1_555 1_555
O20 Zn1 1_555 1_555
C11 N5 1_555 1_555
C12 N5 1_555 1_555
C13 N6 1_555 1_555
C16 O2 1_555 1_555
H24 C21 1_555 1_555
C23 C22 1_555 1_555
C28 C27 1_555 1_555
H25 C28 1_555 1_555
C29 C28 1_555 1_555
H26 C29 1_555 1_555
C30 C29 1_555 1_555
C31 C30 1_555 1_555
C32 C30 1_555 1_555
C33 C32 1_555 1_555
C34 C27 1_555 1_555
H27 C34 1_555 1_555
O3 C23 1_555 1_555
O4 C23 1_555 1_555
O5 C31 1_555 1_555
O6 C31 1_555 1_555
O7 C33 1_555 1_555
O8 C33 1_555 1_555
Zn4 O8 1_555 1_555
Zn7 O5 1_555 1_555
Zn8 N10 1_555 1_555
C36 H29 1_555 1_555
C37 C36 1_555 1_555
H30 C37 1_555 1_555
H33 C39 1_555 1_555
H34 C39 1_555 1_555
C40 C39 1_555 1_555
H36 C40 1_555 1_555
C41 C40 1_555 1_555
H37 C41 1_555 1_555
H38 C41 1_555 1_555
C42 H39 1_555 1_555
C43 H40 1_555 1_555
C44 C43 1_555 1_555
H41 C44 1_555 1_555
N9 C41 1_555 1_555
N10 C42 1_555 1_555
C21 C22 1_555 1_555
C32 C34 1_555 1_555
C37 N8 1_555 1_555
C42 N9 1_555 1_555
C43 N10 1_555 1_555
C44 N9 1_555 1_555
Zn7 N4 1_555 1_555
C2 H2 1_555 1_555
C3 C2 1_555 1_555
H3 C3 1_555 1_555
H6 C5 1_555 1_555
H7 C5 1_555 1_555
C6 C5 1_555 1_555
H9 C6 1_555 1_555
C7 C6 1_555 1_555
H10 C7 1_555 1_555
H11 C7 1_555 1_555
C8 H12 1_555 1_555
C9 H13 1_555 1_555
C10 C9 1_555 1_555
H14 C10 1_555 1_555
N3 C7 1_555 1_555
N4 C8 1_555 1_555
Zn8 O14 1_555 1_555
H51 C55 1_555 1_555
C57 C56 1_555 1_555
C62 C61 1_555 1_555
H52 C62 1_555 1_555
C63 C62 1_555 1_555
H53 C63 1_555 1_555
C64 C63 1_555 1_555
C65 C64 1_555 1_555
C66 C64 1_555 1_555
C67 C66 1_555 1_555
C68 C61 1_555 1_555
H54 C68 1_555 1_555
O10 Zn7 1_555 1_555
O13 C57 1_555 1_555
O14 C65 1_555 1_555
O17 C65 1_555 1_555
O18 C67 1_555 1_555
O20 C67 1_555 1_555
C3 N2 1_555 1_555
C8 N3 1_555 1_555
C9 N4 1_555 1_555
C10 N3 1_555 1_555
C55 C56 1_555 1_555
C57 O12 1_555 1_555
C66 C68 1_555 1_555
Zn9 O9 1_555 1_555
C35 H28 1_555 1_555
H32 C38 1_555 1_555
C50 C51 1_555 1_555
C51 C52 1_555 1_555
C52 H49 1_555 1_555
C53 C52 1_555 1_555
H50 C53 1_555 1_555
C54 C53 1_555 1_555
C58 C54 1_555 1_555
C59 C58 1_555 1_555
C60 C58 1_555 1_555
N7 Zn4 1_555 1_555
O9 C50 1_555 1_555
O11 Zn4 1_555 1_555
F7 C59 1_555 1_555
F8 C59 1_555 1_555
F9 C59 1_555 1_555
F10 C60 1_555 1_555
F11 C60 1_555 1_555
C35 N7 1_555 1_555
C50 O11 1_555 1_555
C8_2 H12_2 1_555 1_555
C9_2 H13_2 1_555 1_555
C10_2 C9_2 1_555 1_555
H14_2 C10_2 1_555 1_555
N11 C8_2 1_555 1_555
C8_2 N3_2 1_555 1_555
C9_2 N11 1_555 1_555
C10_2 N3_2 1_555 1_555
C2_2 H2_2 1_555 1_555
C3_2 C2_2 1_555 1_555
H3_2 C3_2 1_555 1_555
Zn5 O19 1_555 1_555
Zn8 O9_2 1_555 1_555
Zn9 O14_2 1_555 1_555
C50_2 C51_2 1_555 1_555
C51_2 C52_2 1_555 1_555
C52_2 H49_2 1_555 1_555
C53_2 C52_2 1_555 1_555
H50_2 C53_2 1_555 1_555
C54_2 C53_2 1_555 1_555
C55_2 C54_2 1_555 1_555
H51_2 C55_2 1_555 1_555
C56_2 C51_2 1_555 1_555
C57_2 C56_2 1_555 1_555
C58_2 C54_2 1_555 1_555
C59_2 C58_2 1_555 1_555
C60_2 C58_2 1_555 1_555
C61_2 C58_2 1_555 1_555
C62_2 C61_2 1_555 1_555
H52_2 C62_2 1_555 1_555
C63_2 C62_2 1_555 1_555
H53_2 C63_2 1_555 1_555
C64_2 C63_2 1_555 1_555
C65_2 C64_2 1_555 1_555
C66_2 C64_2 1_555 1_555
C67_2 C66_2 1_555 1_555
C68_2 C61_2 1_555 1_555
H54_2 C68_2 1_555 1_555
O9_2 C50_2 1_555 1_555
O13_2 C57_2 1_555 1_555
O14_2 C65_2 1_555 1_555
O17_2 C65_2 1_555 1_555
O18_2 C67_2 1_555 1_555
O19 C67_2 1_555 1_555
F7_2 C59_2 1_555 1_555
F8_2 C59_2 1_555 1_555
F9_2 C59_2 1_555 1_555
F10_2 C60_2 1_555 1_555
F11_2 C60_2 1_555 1_555
F12_2 C60_2 1_555 1_555
C3_2 N2_2 1_555 1_555
C50_2 O11_2 1_555 1_555
C55_2 C56_2 1_555 1_555
C57_2 O12_2 1_555 1_555
C66_2 C68_2 1_555 1_555
H6_2 C5_2 1_555 1_555
H7_2 C5_2 1_555 1_555
C6_2 C5_2 1_555 1_555
H9_2 C6_2 1_555 1_555
C7_2 C6_2 1_555 1_555
H10_2 C7_2 1_555 1_555
H11_2 C7_2 1_555 1_555
N7_2 Zn3 1_555 1_555
O21 Zn3 1_555 1_555
C35_2 N7_2 1_555 1_555
C11_2 H15_2 1_555 1_555
C12_2 H16_2 1_555 1_555
C13_2 C12_2 1_555 1_555
H17_2 C13_2 1_555 1_555
C14_2 H18_2 1_555 1_555
H19_2 C14_2 1_555 1_555
C15_2 C14_2 1_555 1_555
H20_2 C15_2 1_555 1_555
N6_2 C11_2 1_555 1_555
C11_2 N13 1_555 1_555
C12_2 N13 1_555 1_555
C13_2 N6_2 1_555 1_555
C14_2 N6_2 1_555 1_555
Zn5 N1_2 1_555 1_555
N1_2 C1_2 1_555 1_555
H33_2 C39_2 1_555 1_555
H34_2 C39_2 1_555 1_555
C40_2 C39_2 1_555 1_555
H36_2 C40_2 1_555 1_555
C41_2 C40_2 1_555 1_555
H37_2 C41_2 1_555 1_555
H38_2 C41_2 1_555 1_555
C16_2 C17_2 1_555 1_555
C17_2 C18_2 1_555 1_555
C18_2 H22_2 1_555 1_555
C19_2 C18_2 1_555 1_555
H23_2 C19_2 1_555 1_555
C20_2 C19_2 1_555 1_555
C21_2 C20_2 1_555 1_555
H24_2 C21_2 1_555 1_555
C22_2 C17_2 1_555 1_555
C23_2 C22_2 1_555 1_555
C24_2 C20_2 1_555 1_555
C25_2 C24_2 1_555 1_555
C26_2 C24_2 1_555 1_555
C27_2 C24_2 1_555 1_555
C28_2 C27_2 1_555 1_555
H25_2 C28_2 1_555 1_555
C29_2 C28_2 1_555 1_555
H26_2 C29_2 1_555 1_555
C30_2 C29_2 1_555 1_555
C31_2 C30_2 1_555 1_555
C32_2 C30_2 1_555 1_555
C33_2 C32_2 1_555 1_555
C34_2 C27_2 1_555 1_555
H27_2 C34_2 1_555 1_555
O10 C16_2 1_555 1_555
O3_2 C23_2 1_555 1_555
O4_2 C23_2 1_555 1_555
O16 C31_2 1_555 1_555
O6_2 C31_2 1_555 1_555
O7_2 C33_2 1_555 1_555
O21 C33_2 1_555 1_555
F1_2 C25_2 1_555 1_555
F2_2 C25_2 1_555 1_555
F3_2 C25_2 1_555 1_555
F4_2 C26_2 1_555 1_555
F5_2 C26_2 1_555 1_555
F6_2 C26_2 1_555 1_555
C36_2 H29_2 1_555 1_555
C37_2 C36_2 1_555 1_555
H30_2 C37_2 1_555 1_555
C45_2 H42_2 1_555 1_555
C46_2 H43_2 1_555 1_555
C47_2 C46_2 1_555 1_555
H44_2 C47_2 1_555 1_555
C48_2 H45_2 1_555 1_555
H46_2 C48_2 1_555 1_555
H47_2 C49_2 1_555 1_555
N12_2 C45_2 1_555 1_555
N14_2 C45_2 1_555 1_555
C16_2 O2_2 1_555 1_555
C21_2 C22_2 1_555 1_555
C32_2 C34_2 1_555 1_555
C37_2 N8_2 1_555 1_555
C46_2 N12_2 1_555 1_555
C47_2 N14_2 1_555 1_555
C48_2 C49_2 1_555 1_555
C48_2 N14_2 1_555 1_555
Zn9 N10_2 1_555 1_555
C42_2 H39_2 1_555 1_555
C43_2 H40_2 1_555 1_555
C44_2 C43_2 1_555 1_555
H41_2 C44_2 1_555 1_555
N10_2 C42_2 1_555 1_555
C42_2 N9_2 1_555 1_555
C43_2 N10_2 1_555 1_555
C44_2 N9_2 1_555 1_555

#END
