
###############################################################################
#
# This file contains modified crystal structure data generated from the
# MOF subset of the Cambridge Structural Database (CSD) v543 
# hosted by the Cambridge Crystallographic Data Centre (CCDC).
#
# This work is licensed under the Creative Commons
# Attribution-NonCommercial-ShareAlike 4.0 International License.
# To view a copy of this license, visit
# http://creativecommons.org/licenses/by-nc-sa/4.0/
# or send a letter to
# Creative Commons, PO Box 1866, Mountain View, CA 94042, USA.
#
# CIF created using the CSD Python API on 29 September 2022
# The structure has been converted into the P1 space group
# The structure has a 3D framework
# The original CSD entry LABJOP is in the monoclinic crystal system
# The framework has been calculated to contain at least 10.0% void space
# The void calculation uses a probe of radius 1.32A, grid spacing 0.4
#
###############################################################################

data_LABJOP
_chemical_formula_moiety         '(C104 H72 Br8 Cu8 N16)n'
_symmetry_cell_setting           triclinic
_symmetry_space_group_name_H-M   'P 1'
_symmetry_Int_Tables_number      1
_space_group_name_Hall           'P 1'
loop_
_symmetry_equiv_pos_site_id
_symmetry_equiv_pos_as_xyz
1 x,y,z
_cell_length_a                   13.1150(19)
_cell_length_b                   22.273(3)
_cell_length_c                   10.6802(15)
_cell_angle_alpha                90
_cell_angle_beta                 118.973(2)
_cell_angle_gamma                90
_cell_volume                     2729.35
loop_
_atom_site_label
_atom_site_type_symbol
_atom_site_fract_x
_atom_site_fract_y
_atom_site_fract_z
H2 H 0.1284 0.1502 0.0301
C1 C 0.0340(5) 0.2233(3) 0.9284(6)
H1 H 0.0979 0.2489 0.9651
C2 C 0.0535(5) 0.1641(2) 0.9691(6)
C7 C 0.0585(5) 0.0282(2) 0.9414(5)
H5 H 0.0989 0.0479 0.9022
Cu2 Cu 0.08129(6) 0.33624(3) 0.70420(8)
Br2 Br 0.12776(6) 0.37504(3) 0.94551(7)
N4 N 0.0706(4) 0.24655(19) 0.6603(5)
N7 N 0.1863(4) 0.3803(2) 0.6456(6)
H15 H 0.2752 0.0055 0.9778
Cu4 Cu 0.08129(6) 0.66376(3) 0.20420(8)
N3 N 0.0706(4) 0.75345(19) 0.1603(5)
C16 C 0.0411(5) 0.8744(2) 0.0830(6)
C17 C 0.1486(5) 0.8520(2) 0.1785(6)
H12 H 0.2136 0.8769 0.2192
C18 C 0.1583(5) 0.7920(2) 0.2130(6)
H13 H 0.2317 0.7775 0.2780
C19 C 0.0214(5) 0.9391(2) 0.0365(6)
Cu5 Cu 0.41871(6) 0.83624(3) 0.79580(8)
N5 N 0.3137(4) 0.8803(2) 0.8544(6)
C21 C 0.0815(5) 0.9681(2) 0.9743(6)
C22 C 0.1629(5) 0.9373(2) 0.9357(6)
C23 C 0.2583(5) 0.9662(3) 0.9440(7)
C24 C 0.3295(6) 0.9365(3) 0.9016(8)
H16 H 0.3927 0.9574 0.9066
C25 C 0.2208(5) 0.8524(3) 0.8476(6)
H17 H 0.2069 0.8129 0.8149
C26 C 0.1445(5) 0.8781(2) 0.8858(6)
H18 H 0.0813 0.8564 0.8785
N2 N 0.6863(4) 0.1197(2) 0.1456(6)
C8 C 0.9185(5) 0.0319(2) 0.0257(6)
C9 C 0.8371(5) 0.0627(2) 0.0643(6)
C10 C 0.7417(5) 0.0338(3) 0.0560(7)
C11 C 0.6705(6) 0.0635(3) 0.0984(8)
H7 H 0.6073 0.0426 0.0934
C12 C 0.7792(5) 0.1476(3) 0.1524(6)
H8 H 0.7931 0.1871 0.1851
C13 C 0.8555(5) 0.1219(2) 0.1142(6)
H9 H 0.9187 0.1436 0.1215
Cu3 Cu 0.58129(6) 0.16376(3) 0.20420(8)
Cu1 Cu 0.91871(6) 0.33624(3) 0.79580(8)
Br1 Br 0.87224(6) 0.37504(3) 0.55449(7)
N1 N 0.9294(4) 0.24655(19) 0.8397(5)
C3 C 0.9589(5) 0.1256(2) 0.9170(6)
C4 C 0.8514(5) 0.1480(2) 0.8215(6)
H3 H 0.7864 0.1231 0.7808
C5 C 0.8417(5) 0.2080(2) 0.7870(6)
H4 H 0.7683 0.2225 0.7220
C6 C 0.9786(5) 0.0609(2) 0.9635(6)
N6 N 0.8137(4) 0.3803(2) 0.8544(6)
H6 H 0.7248 0.9945 0.0222
C14 C 0.9660(5) 0.7767(3) 0.0716(6)
H10 H 0.9021 0.7511 0.0349
C15 C 0.9465(5) 0.8359(2) 0.0309(6)
C20 C 0.9415(5) 0.9718(2) 0.0586(5)
H14 H 0.9011 0.9521 0.0978
N2_2 N 0.3137(4) 0.1197(2) 0.3544(6)
C3_2 C 0.0411(5) 0.1256(2) 0.5830(6)
C4_2 C 0.1486(5) 0.1480(2) 0.6785(6)
H3_2 H 0.2136 0.1231 0.7192
C5_2 C 0.1583(5) 0.2080(2) 0.7130(6)
H4_2 H 0.2317 0.2225 0.7780
C6_2 C 0.0214(5) 0.0609(2) 0.5365(6)
C8_2 C 0.0815(5) 0.0319(2) 0.4743(6)
C9_2 C 0.1629(5) 0.0627(2) 0.4357(6)
C10_2 C 0.2583(5) 0.0338(3) 0.4440(7)
C11_2 C 0.3295(6) 0.0635(3) 0.4016(8)
H7_2 H 0.3927 0.0426 0.4066
C12_2 C 0.2208(5) 0.1476(3) 0.3476(6)
H8_2 H 0.2069 0.1871 0.3149
C13_2 C 0.1445(5) 0.1219(2) 0.3858(6)
H9_2 H 0.0813 0.1436 0.3785
Cu3_2 Cu 0.41871(6) 0.16376(3) 0.29580(8)
H6_2 H 0.2752 0.9945 0.4778
C14_2 C 0.0340(5) 0.7767(3) 0.4284(6)
H10_2 H 0.0979 0.7511 0.4651
C15_2 C 0.0535(5) 0.8359(2) 0.4691(6)
H11 H 0.1284 0.8498 0.5301
C20_2 C 0.0585(5) 0.9718(2) 0.4414(5)
H14_2 H 0.0989 0.9521 0.4022
C1_2 C 0.9660(5) 0.2233(3) 0.5716(6)
H1_2 H 0.9021 0.2489 0.5349
C2_2 C 0.9465(5) 0.1641(2) 0.5309(6)
H2_2 H 0.8716 0.1502 0.4699
C7_2 C 0.9415(5) 0.0282(2) 0.5586(5)
H5_2 H 0.9011 0.0479 0.5978
H15_2 H 0.7248 0.0055 0.5222
Cu4_2 Cu 0.91871(6) 0.66376(3) 0.29580(8)
Cu5_2 Cu 0.58129(6) 0.83624(3) 0.70420(8)
N3_2 N 0.9294(4) 0.75345(19) 0.3397(5)
N5_2 N 0.6863(4) 0.8803(2) 0.6456(6)
C16_2 C 0.9589(5) 0.8744(2) 0.4170(6)
C17_2 C 0.8514(5) 0.8520(2) 0.3215(6)
H12_2 H 0.7864 0.8769 0.2808
C18_2 C 0.8417(5) 0.7920(2) 0.2870(6)
H13_2 H 0.7683 0.7775 0.2220
C19_2 C 0.9786(5) 0.9391(2) 0.4635(6)
C21_2 C 0.9185(5) 0.9681(2) 0.5257(6)
C22_2 C 0.8371(5) 0.9373(2) 0.5643(6)
C23_2 C 0.7417(5) 0.9662(3) 0.5560(7)
C24_2 C 0.6705(6) 0.9365(3) 0.5984(8)
H16_2 H 0.6073 0.9574 0.5934
C25_2 C 0.7792(5) 0.8524(3) 0.6524(6)
H17_2 H 0.7931 0.8129 0.6851
C26_2 C 0.8555(5) 0.8781(2) 0.6142(6)
H18_2 H 0.9187 0.8564 0.6215
N2_3 N 0.1863(4) 0.6197(2) 0.1456(6)
H2_3 H 0.6284 0.6502 0.0301
C8_3 C 0.4185(5) 0.5319(2) 0.0257(6)
C9_3 C 0.3371(5) 0.5627(2) 0.0643(6)
C10_3 C 0.2417(5) 0.5338(3) 0.0560(7)
H6_3 H 0.2248 0.4945 0.0222
C11_3 C 0.1705(6) 0.5635(3) 0.0984(8)
H7_3 H 0.1073 0.5426 0.0934
C12_3 C 0.2792(5) 0.6476(3) 0.1524(6)
H8_3 H 0.2931 0.6871 0.1851
C13_3 C 0.3555(5) 0.6219(2) 0.1142(6)
H9_3 H 0.4187 0.6436 0.1215
N3_3 N 0.5706(4) 0.25345(19) 0.1603(5)
C14_3 C 0.4660(5) 0.2767(3) 0.0716(6)
H10_3 H 0.4021 0.2511 0.0349
C15_3 C 0.4465(5) 0.3359(2) 0.0309(6)
C16_3 C 0.5411(5) 0.3744(2) 0.0830(6)
C17_3 C 0.6486(5) 0.3520(2) 0.1785(6)
H12_3 H 0.7136 0.3769 0.2192
C18_3 C 0.6583(5) 0.2920(2) 0.2130(6)
H13_3 H 0.7317 0.2775 0.2780
C19_3 C 0.5214(5) 0.4391(2) 0.0365(6)
C20_3 C 0.4415(5) 0.4718(2) 0.0586(5)
H14_3 H 0.4011 0.4521 0.0978
Br1_2 Br 0.37224(6) 0.87504(3) 0.55449(7)
N1_2 N 0.4294(4) 0.74655(19) 0.8397(5)
C1_3 C 0.5340(5) 0.7233(3) 0.9284(6)
H1_3 H 0.5979 0.7489 0.9651
C2_3 C 0.5535(5) 0.6641(2) 0.9691(6)
C3_3 C 0.4589(5) 0.6256(2) 0.9170(6)
C4_3 C 0.3514(5) 0.6480(2) 0.8215(6)
H3_3 H 0.2864 0.6231 0.7808
C5_3 C 0.3417(5) 0.7080(2) 0.7870(6)
H4_3 H 0.2683 0.7225 0.7220
C6_3 C 0.4786(5) 0.5609(2) 0.9635(6)
C7_3 C 0.5585(5) 0.5282(2) 0.9414(5)
H5_3 H 0.5989 0.5479 0.9022
Br2_2 Br 0.62776(6) 0.87504(3) 0.94551(7)
N4_2 N 0.5706(4) 0.74655(19) 0.6603(5)
H11_2 H 0.3716 0.3498 0.9699
C21_3 C 0.5815(5) 0.4681(2) 0.9743(6)
C22_3 C 0.6629(5) 0.4373(2) 0.9357(6)
C23_3 C 0.7583(5) 0.4662(3) 0.9440(7)
H15_3 H 0.7752 0.5055 0.9778
C24_3 C 0.8295(6) 0.4365(3) 0.9016(8)
H16_3 H 0.8927 0.4574 0.9066
C25_3 C 0.7208(5) 0.3524(3) 0.8476(6)
H17_3 H 0.7069 0.3129 0.8149
C26_3 C 0.6445(5) 0.3781(2) 0.8858(6)
H18_3 H 0.5813 0.3564 0.8785
N2_4 N 0.8137(4) 0.6197(2) 0.3544(6)
C1_4 C 0.4660(5) 0.7233(3) 0.5716(6)
H1_4 H 0.4021 0.7489 0.5349
C2_4 C 0.4465(5) 0.6641(2) 0.5309(6)
H2_4 H 0.3716 0.6502 0.4699
C3_4 C 0.5411(5) 0.6256(2) 0.5830(6)
C4_4 C 0.6486(5) 0.6480(2) 0.6785(6)
H3_4 H 0.7136 0.6231 0.7192
C5_4 C 0.6583(5) 0.7080(2) 0.7130(6)
H4_4 H 0.7317 0.7225 0.7780
C6_4 C 0.5214(5) 0.5609(2) 0.5365(6)
C7_4 C 0.4415(5) 0.5282(2) 0.5586(5)
H5_4 H 0.4011 0.5479 0.5978
C8_4 C 0.5815(5) 0.5319(2) 0.4743(6)
C9_4 C 0.6629(5) 0.5627(2) 0.4357(6)
C10_4 C 0.7583(5) 0.5338(3) 0.4440(7)
H6_4 H 0.7752 0.4945 0.4778
C11_4 C 0.8295(6) 0.5635(3) 0.4016(8)
H7_4 H 0.8927 0.5426 0.4066
C12_4 C 0.7208(5) 0.6476(3) 0.3476(6)
H8_4 H 0.7069 0.6871 0.3149
C13_4 C 0.6445(5) 0.6219(2) 0.3858(6)
H9_4 H 0.5813 0.6436 0.3785
N3_4 N 0.4294(4) 0.25345(19) 0.3397(5)
C14_4 C 0.5340(5) 0.2767(3) 0.4284(6)
H10_4 H 0.5979 0.2511 0.4651
C15_4 C 0.5535(5) 0.3359(2) 0.4691(6)
H11_3 H 0.6284 0.3498 0.5301
C16_4 C 0.4589(5) 0.3744(2) 0.4170(6)
C17_4 C 0.3514(5) 0.3520(2) 0.3215(6)
H12_4 H 0.2864 0.3769 0.2808
C18_4 C 0.3417(5) 0.2920(2) 0.2870(6)
H13_4 H 0.2683 0.2775 0.2220
C19_4 C 0.4786(5) 0.4391(2) 0.4635(6)
C20_4 C 0.5585(5) 0.4718(2) 0.4414(5)
H14_4 H 0.5989 0.4521 0.4022
C21_4 C 0.4185(5) 0.4681(2) 0.5257(6)
C22_4 C 0.3371(5) 0.4373(2) 0.5643(6)
C23_4 C 0.2417(5) 0.4662(3) 0.5560(7)
H15_4 H 0.2248 0.5055 0.5222
C24_4 C 0.1705(6) 0.4365(3) 0.5984(8)
H16_4 H 0.1073 0.4574 0.5934
C25_4 C 0.2792(5) 0.3524(3) 0.6524(6)
H17_4 H 0.2931 0.3129 0.6851
C26_4 C 0.3555(5) 0.3781(2) 0.6142(6)
H18_4 H 0.4187 0.3564 0.6215
Br1_3 Br 0.12776(6) 0.62496(3) 0.44551(7)
Br2_3 Br 0.87224(6) 0.62496(3) 0.05449(7)
Br1_4 Br 0.62776(6) 0.12496(3) 0.44551(7)
Br2_4 Br 0.37224(6) 0.12496(3) 0.05449(7)
H11_4 H 0.8716 0.8498 0.9699
loop_
_geom_bond_atom_site_label_1
_geom_bond_atom_site_label_2
_geom_bond_site_symmetry_1
_geom_bond_site_symmetry_2
H1 C1 1_555 1_555
C2 C1 1_555 1_555
H5 C7 1_555 1_555
Cu2 Br2 1_555 1_555
N4 Cu2 1_555 1_555
N7 Cu2 1_555 1_555
Cu4 N3 1_555 1_555
C17 C16 1_555 1_555
H12 C17 1_555 1_555
C18 N3 1_555 1_555
H13 C18 1_555 1_555
C19 C16 1_555 1_555
C17 C18 1_555 1_555
Cu5 N5 1_555 1_555
N5 C24 1_555 1_555
C22 C21 1_555 1_555
C23 C22 1_555 1_555
C24 C23 1_555 1_555
H16 C24 1_555 1_555
C25 N5 1_555 1_555
H17 C25 1_555 1_555
C26 C22 1_555 1_555
H18 C26 1_555 1_555
C25 C26 1_555 1_555
N2 C11 1_555 1_555
C9 C8 1_555 1_555
C10 C9 1_555 1_555
C11 C10 1_555 1_555
H7 C11 1_555 1_555
C12 N2 1_555 1_555
H8 C12 1_555 1_555
C13 C9 1_555 1_555
H9 C13 1_555 1_555
Cu3 N2 1_555 1_555
C12 C13 1_555 1_555
Cu1 Br1 1_555 1_555
N1 Cu1 1_555 1_555
C4 C3 1_555 1_555
H3 C4 1_555 1_555
C5 N1 1_555 1_555
H4 C5 1_555 1_555
C6 C3 1_555 1_555
N6 Cu1 1_555 1_555
C4 C5 1_555 1_555
C14 H10 1_555 1_555
C15 C14 1_555 1_555
H14 C20 1_555 1_555
N2_2 C11_2 1_555 1_555
C4_2 C3_2 1_555 1_555
H3_2 C4_2 1_555 1_555
C5_2 N4 1_555 1_555
H4_2 C5_2 1_555 1_555
C6_2 C3_2 1_555 1_555
C8_2 C6_2 1_555 1_555
C9_2 C8_2 1_555 1_555
C10_2 C9_2 1_555 1_555
C11_2 C10_2 1_555 1_555
H7_2 C11_2 1_555 1_555
C12_2 N2_2 1_555 1_555
H8_2 C12_2 1_555 1_555
C13_2 C9_2 1_555 1_555
H9_2 C13_2 1_555 1_555
Cu3_2 N2_2 1_555 1_555
C4_2 C5_2 1_555 1_555
C12_2 C13_2 1_555 1_555
C14_2 H10_2 1_555 1_555
C15_2 C14_2 1_555 1_555
H11 C15_2 1_555 1_555
H14_2 C20_2 1_555 1_555
H1_2 C1_2 1_555 1_555
C2_2 C1_2 1_555 1_555
H2_2 C2_2 1_555 1_555
H5_2 C7_2 1_555 1_555
Cu4_2 N3_2 1_555 1_555
Cu5_2 N5_2 1_555 1_555
N5_2 C24_2 1_555 1_555
C17_2 C16_2 1_555 1_555
H12_2 C17_2 1_555 1_555
C18_2 N3_2 1_555 1_555
H13_2 C18_2 1_555 1_555
C19_2 C16_2 1_555 1_555
C22_2 C21_2 1_555 1_555
C23_2 C22_2 1_555 1_555
C24_2 C23_2 1_555 1_555
H16_2 C24_2 1_555 1_555
C25_2 N5_2 1_555 1_555
H17_2 C25_2 1_555 1_555
C26_2 C22_2 1_555 1_555
H18_2 C26_2 1_555 1_555
C17_2 C18_2 1_555 1_555
C19_2 C21_2 1_555 1_555
C25_2 C26_2 1_555 1_555
N2_3 C11_3 1_555 1_555
C9_3 C8_3 1_555 1_555
C10_3 C9_3 1_555 1_555
H6_3 C10_3 1_555 1_555
C11_3 C10_3 1_555 1_555
H7_3 C11_3 1_555 1_555
C12_3 N2_3 1_555 1_555
H8_3 C12_3 1_555 1_555
C13_3 C9_3 1_555 1_555
H9_3 C13_3 1_555 1_555
Cu4 N2_3 1_555 1_555
Cu3 N3_3 1_555 1_555
N3_3 C14_3 1_555 1_555
C14_3 H10_3 1_555 1_555
C15_3 C14_3 1_555 1_555
C16_3 C15_3 1_555 1_555
C17_3 C16_3 1_555 1_555
H12_3 C17_3 1_555 1_555
C18_3 N3_3 1_555 1_555
H13_3 C18_3 1_555 1_555
C19_3 C16_3 1_555 1_555
C20_3 C8_3 1_555 1_555
H14_3 C20_3 1_555 1_555
C12_3 C13_3 1_555 1_555
C17_3 C18_3 1_555 1_555
C19_3 C20_3 1_555 1_555
Cu5 Br1_2 1_555 1_555
Br1_2 Cu5_2 1_555 1_555
N1_2 Cu5 1_555 1_555
C1_3 N1_2 1_555 1_555
H1_3 C1_3 1_555 1_555
C2_3 C1_3 1_555 1_555
C3_3 C2_3 1_555 1_555
C4_3 C3_3 1_555 1_555
H3_3 C4_3 1_555 1_555
C5_3 N1_2 1_555 1_555
H4_3 C5_3 1_555 1_555
C6_3 C3_3 1_555 1_555
C7_3 C6_3 1_555 1_555
H5_3 C7_3 1_555 1_555
Cu5_2 Br2_2 1_555 1_555
Br2_2 Cu5 1_555 1_555
N4_2 Cu5_2 1_555 1_555
N6 C24_3 1_555 1_555
C21_3 C7_3 1_555 1_555
C22_3 C21_3 1_555 1_555
C23_3 C22_3 1_555 1_555
H15_3 C23_3 1_555 1_555
C24_3 C23_3 1_555 1_555
H16_3 C24_3 1_555 1_555
C25_3 N6 1_555 1_555
H17_3 C25_3 1_555 1_555
C26_3 C22_3 1_555 1_555
H18_3 C26_3 1_555 1_555
C4_3 C5_3 1_555 1_555
C25_3 C26_3 1_555 1_555
N2_4 C11_4 1_555 1_555
C1_4 N4_2 1_555 1_555
H1_4 C1_4 1_555 1_555
C2_4 C1_4 1_555 1_555
H2_4 C2_4 1_555 1_555
C3_4 C2_4 1_555 1_555
C4_4 C3_4 1_555 1_555
H3_4 C4_4 1_555 1_555
C5_4 N4_2 1_555 1_555
H4_4 C5_4 1_555 1_555
C6_4 C3_4 1_555 1_555
C7_4 C6_4 1_555 1_555
H5_4 C7_4 1_555 1_555
C8_4 C6_4 1_555 1_555
C9_4 C8_4 1_555 1_555
C10_4 C9_4 1_555 1_555
H6_4 C10_4 1_555 1_555
C11_4 C10_4 1_555 1_555
H7_4 C11_4 1_555 1_555
C12_4 N2_4 1_555 1_555
H8_4 C12_4 1_555 1_555
C13_4 C9_4 1_555 1_555
H9_4 C13_4 1_555 1_555
Cu4_2 N2_4 1_555 1_555
Cu3_2 N3_4 1_555 1_555
N3_4 C14_4 1_555 1_555
N7 C24_4 1_555 1_555
C14_4 H10_4 1_555 1_555
C15_4 C14_4 1_555 1_555
H11_3 C15_4 1_555 1_555
C16_4 C15_4 1_555 1_555
C17_4 C16_4 1_555 1_555
H12_4 C17_4 1_555 1_555
C18_4 N3_4 1_555 1_555
H13_4 C18_4 1_555 1_555
C19_4 C16_4 1_555 1_555
C20_4 C8_4 1_555 1_555
H14_4 C20_4 1_555 1_555
C21_4 C7_4 1_555 1_555
C22_4 C21_4 1_555 1_555
C23_4 C22_4 1_555 1_555
H15_4 C23_4 1_555 1_555
C24_4 C23_4 1_555 1_555
H16_4 C24_4 1_555 1_555
C25_4 N7 1_555 1_555
H17_4 C25_4 1_555 1_555
C26_4 C22_4 1_555 1_555
H18_4 C26_4 1_555 1_555
C4_4 C5_4 1_555 1_555
C12_4 C13_4 1_555 1_555
C17_4 C18_4 1_555 1_555
C19_4 C20_4 1_555 1_555
C19_4 C21_4 1_555 1_555
C25_4 C26_4 1_555 1_555
Cu4 Br1_3 1_555 1_555
Cu4_2 Br2_3 1_555 1_555
Cu3 Br1_4 1_555 1_555
Br1_4 Cu3_2 1_555 1_555
Cu3_2 Br2_4 1_555 1_555
Br2_4 Cu3 1_555 1_555

#END
