
###############################################################################
#
# This file contains modified crystal structure data generated from the
# MOF subset of the Cambridge Structural Database (CSD) v543 
# hosted by the Cambridge Crystallographic Data Centre (CCDC).
#
# This work is licensed under the Creative Commons
# Attribution-NonCommercial-ShareAlike 4.0 International License.
# To view a copy of this license, visit
# http://creativecommons.org/licenses/by-nc-sa/4.0/
# or send a letter to
# Creative Commons, PO Box 1866, Mountain View, CA 94042, USA.
#
# CIF created using the CSD Python API on 29 September 2022
# The structure has been converted into the P1 space group
# The structure has a 3D framework
# The original CSD entry LABJUV is in the triclinic crystal system
# The framework has been calculated to contain at least 10.0% void space
# The void calculation uses a probe of radius 1.32A, grid spacing 0.4
#
###############################################################################

data_LABJUV
_chemical_formula_moiety         '(C52 H36 Cu9 I10 N8)n'
_symmetry_cell_setting           triclinic
_symmetry_space_group_name_H-M   'P 1'
_symmetry_Int_Tables_number      1
_space_group_name_Hall           'P 1'
loop_
_symmetry_equiv_pos_site_id
_symmetry_equiv_pos_as_xyz
1 x,y,z
_cell_length_a                   10.1652(8)
_cell_length_b                   14.6342(12)
_cell_length_c                   15.2829(12)
_cell_angle_alpha                117.5380(10)
_cell_angle_beta                 96.1410(10)
_cell_angle_gamma                104.3380(10)
_cell_volume                     1887.09
loop_
_atom_site_label
_atom_site_type_symbol
_atom_site_fract_x
_atom_site_fract_y
_atom_site_fract_z
_atom_site_U_iso_or_equiv
_atom_site_thermal_displace_type
Cu17 Cu 0.15207(12) 0.31448(8) 0.08543(7) 0.0469 Uani
C20 C 0.0709(7) 0.0385(6) 0.4466(5) 0.0305 Uani
H14 H 0.1179 0.0655 0.4099 0.0370 Uiso
Cu13 Cu 0.67206(11) 0.51081(9) 0.75430(9) 0.0543 Uani
N9 N 0.1033(7) 0.2337(5) 0.9317(4) 0.0384 Uani
N12 N 0.4991(7) 0.3728(5) 0.6882(5) 0.0427 Uani
C40 C 0.0890(9) 0.1290(7) 0.8796(6) 0.0440 Uani
H28 H 0.0909 0.0927 0.9159 0.0530 Uiso
C41 C 0.0715(9) 0.0698(6) 0.7766(5) 0.0383 Uani
C42 C 0.0677(7) 0.1216(6) 0.7208(5) 0.0291 Uani
C43 C 0.0844(8) 0.2317(6) 0.7732(5) 0.0391 Uani
H30 H 0.0848 0.2702 0.7389 0.0470 Uiso
C44 C 0.1004(9) 0.2834(7) 0.8776(6) 0.0466 Uani
H31 H 0.1096 0.3572 0.9121 0.0560 Uiso
C45 C 0.0404(7) 0.0585(6) 0.6061(5) 0.0289 Uani
C47 C 0.1155(7) 0.0972(6) 0.5521(5) 0.0306 Uani
C48 C 0.2475(7) 0.1960(6) 0.6030(5) 0.0285 Uani
C49 C 0.2669(8) 0.2758(6) 0.5763(6) 0.0373 Uani
H33 H 0.1965 0.2715 0.5288 0.0440 Uiso
C50 C 0.3921(8) 0.3619(6) 0.6210(6) 0.0419 Uani
H34 H 0.4028 0.4157 0.6033 0.0510 Uiso
C51 C 0.4792(8) 0.2950(7) 0.7105(6) 0.0459 Uani
H35 H 0.5529 0.2993 0.7556 0.0550 Uiso
C52 C 0.3581(8) 0.2080(6) 0.6725(6) 0.0386 Uani
H36 H 0.3501 0.1570 0.6935 0.0460 Uiso
Cu1 Cu 0.06010(11) 0.42453(9) 0.46631(8) 0.0480 Uani
Cu2 Cu 0.05841(12) 0.38349(9) 0.25476(8) 0.0533 Uani
Cu3 Cu 0.26431(13) 0.27354(11) 0.21815(10) 0.0665 Uani
Cu4 Cu 0.32794(11) 0.48919(9) 0.24570(9) 0.0543 Uani
I1 I 0.29036(5) 0.46144(4) 0.40899(4) 0.0395 Uani
I4 I 0.10266(6) 0.50209(4) 0.15727(4) 0.0445 Uani
I5 I 0.43175(6) 0.33781(5) 0.12593(5) 0.0566 Uani
N3 N 0.8967(7) 0.7663(5) 0.0683(4) 0.0384 Uani
N4 N 0.5009(7) 0.6272(5) 0.3118(5) 0.0427 Uani
C14 C 0.9110(9) 0.8710(7) 0.1204(6) 0.0440 Uani
H10 H 0.9091 0.9073 0.0841 0.0530 Uiso
C15 C 0.9285(9) 0.9302(6) 0.2234(5) 0.0383 Uani
C16 C 0.9323(7) 0.8784(6) 0.2792(5) 0.0291 Uani
C17 C 0.9156(8) 0.7683(6) 0.2268(5) 0.0391 Uani
H12 H 0.9152 0.7298 0.2611 0.0470 Uiso
C18 C 0.8996(9) 0.7166(7) 0.1224(6) 0.0466 Uani
H13 H 0.8904 0.6428 0.0879 0.0560 Uiso
C19 C 0.9596(7) 0.9415(6) 0.3939(5) 0.0289 Uani
C21 C 0.8845(7) 0.9028(6) 0.4479(5) 0.0306 Uani
C22 C 0.7525(7) 0.8040(6) 0.3970(5) 0.0285 Uani
C23 C 0.7331(8) 0.7242(6) 0.4237(6) 0.0373 Uani
H15 H 0.8035 0.7285 0.4712 0.0440 Uiso
C24 C 0.6079(8) 0.6381(6) 0.3790(6) 0.0419 Uani
H16 H 0.5972 0.5843 0.3967 0.0510 Uiso
C25 C 0.5208(8) 0.7050(7) 0.2895(6) 0.0459 Uani
H17 H 0.4471 0.7007 0.2444 0.0550 Uiso
C26 C 0.6419(8) 0.7920(6) 0.3275(6) 0.0386 Uani
H18 H 0.6499 0.8430 0.3065 0.0460 Uiso
I8 I 0.15471(5) 0.58763(4) 0.66458(4) 0.0424 Uani
I9 I 0.00517(6) 0.83281(4) 0.87158(4) 0.0441 Uani
N6 N 0.0423(6) 0.7095(5) 0.5265(5) 0.0394 Uani
N8 N 0.3434(8) 0.1892(6) 0.2730(6) 0.0538 Uani
C46 C 0.9291(7) 0.9615(6) 0.5534(5) 0.0305 Uani
H32 H 0.8821 0.9345 0.5901 0.0370 Uiso
Cu16 Cu 0.84793(12) 0.68552(8) 0.91457(7) 0.0469 Uani
I2 I 0.84529(5) 0.41237(4) 0.33542(4) 0.0424 Uani
I3 I 0.99483(6) 0.16719(4) 0.12842(4) 0.0441 Uani
N1 N 0.9577(6) 0.2905(5) 0.4735(5) 0.0394 Uani
C1 C 0.8711(8) 0.1996(6) 0.3894(6) 0.0368 Uani
H1 H 0.8876 0.1863 0.3266 0.0440 Uiso
C2 C 0.7602(8) 0.1254(6) 0.3902(6) 0.0390 Uani
H2 H 0.7026 0.0641 0.3293 0.0460 Uiso
C3 C 0.7339(7) 0.1429(6) 0.4843(6) 0.0299 Uani
C4 C 0.8253(8) 0.2340(6) 0.5703(6) 0.0355 Uani
H3 H 0.8128 0.2481 0.6342 0.0430 Uiso
C5 C 0.9356(8) 0.3052(7) 0.5635(6) 0.0423 Uani
H4 H 0.9969 0.3656 0.6234 0.0500 Uiso
C6 C 0.6105(8) 0.0711(6) 0.4911(6) 0.0344 Uani
C7 C 0.6343(8) 0.0334(6) 0.5576(6) 0.0326 Uani
H5 H 0.7246 0.0577 0.5979 0.0390 Uiso
C8 C 0.4750(7) 0.0403(6) 0.4350(6) 0.0318 Uani
C9 C 0.4360(7) 0.0896(6) 0.3730(6) 0.0322 Uani
C10 C 0.4951(8) 0.2000(7) 0.4099(6) 0.0407 Uani
H6 H 0.5675 0.2431 0.4695 0.0490 Uiso
C11 C 0.4470(9) 0.2474(7) 0.3585(7) 0.0479 Uani
H7 H 0.4883 0.3221 0.3845 0.0580 Uiso
C12 C 0.2910(9) 0.0826(7) 0.2351(7) 0.0518 Uani
H8 H 0.2219 0.0407 0.1736 0.0620 Uiso
C13 C 0.3335(8) 0.0308(7) 0.2819(6) 0.0449 Uani
Cu6 Cu 0.93990(11) 0.57547(9) 0.53369(8) 0.0480 Uani
Cu8 Cu 0.94159(12) 0.61651(9) 0.74524(8) 0.0533 Uani
Cu11 Cu 0.73569(13) 0.72646(11) 0.78185(10) 0.0665 Uani
I6 I 0.70964(5) 0.53856(4) 0.59101(4) 0.0395 Uani
I11 I 0.89734(6) 0.49791(4) 0.84273(4) 0.0445 Uani
I13 I 0.56825(6) 0.66219(5) 0.87407(5) 0.0566 Uani
H27 H 0.7070 0.0446 0.7480 0.0540 Uiso
H9 H 0.2930 0.9554 0.2520 0.0540 Uiso
N7 N 0.6566(8) 0.8108(6) 0.7270(6) 0.0538 Uani
C27 C 0.1289(8) 0.8004(6) 0.6106(6) 0.0368 Uani
H19 H 0.1124 0.8137 0.6734 0.0440 Uiso
C28 C 0.2398(8) 0.8746(6) 0.6098(6) 0.0390 Uani
H20 H 0.2974 0.9359 0.6707 0.0460 Uiso
C29 C 0.2661(7) 0.8571(6) 0.5157(6) 0.0299 Uani
C30 C 0.1747(8) 0.7660(6) 0.4297(6) 0.0355 Uani
H21 H 0.1872 0.7519 0.3658 0.0430 Uiso
C31 C 0.0644(8) 0.6948(7) 0.4365(6) 0.0423 Uani
H22 H 0.0031 0.6344 0.3766 0.0500 Uiso
C32 C 0.3895(8) 0.9289(6) 0.5089(6) 0.0344 Uani
C33 C 0.3657(8) 0.9666(6) 0.4424(6) 0.0326 Uani
H23 H 0.2754 0.9423 0.4021 0.0390 Uiso
C34 C 0.5250(7) 0.9597(6) 0.5650(6) 0.0318 Uani
C35 C 0.5640(7) 0.9104(6) 0.6270(6) 0.0322 Uani
C36 C 0.5049(8) 0.8000(7) 0.5901(6) 0.0407 Uani
H24 H 0.4325 0.7569 0.5305 0.0490 Uiso
C37 C 0.5530(9) 0.7526(7) 0.6415(7) 0.0479 Uani
H25 H 0.5117 0.6779 0.6155 0.0580 Uiso
C38 C 0.7090(9) 0.9174(7) 0.7649(7) 0.0518 Uani
H26 H 0.7781 0.9593 0.8264 0.0620 Uiso
C39 C 0.6665(8) 0.9692(7) 0.7181(6) 0.0449 Uani
H29 H 0.0624 0.9960 0.7447 0.0460 Uiso
H11 H 0.9376 0.0040 0.2553 0.0460 Uiso
loop_
_atom_site_aniso_label
_atom_site_aniso_U_11
_atom_site_aniso_U_22
_atom_site_aniso_U_33
_atom_site_aniso_U_23
_atom_site_aniso_U_13
_atom_site_aniso_U_12
Cu17 0.0701 0.0402 0.0205 0.0112 0.0047 0.0146
C20 0.032 0.034 0.016 0.009 0.005 0.004
Cu13 0.0418 0.042 0.0564 0.0211 -0.0024 -0.0076
N9 0.061 0.03 0.016 0.009 0.005 0.01
N12 0.042 0.036 0.039 0.018 0.007 -0.001
C40 0.072 0.043 0.025 0.02 0.013 0.026
C41 0.06 0.025 0.024 0.01 0.011 0.01
C42 0.024 0.038 0.018 0.011 0.004 0.006
C43 0.059 0.036 0.023 0.017 0.01 0.013
C44 0.069 0.039 0.027 0.016 0.008 0.014
C45 0.03 0.029 0.023 0.012 0.004 0.006
C47 0.033 0.026 0.027 0.012 0.005 0.005
C48 0.028 0.027 0.016 0.005 0.002 0
C49 0.034 0.042 0.038 0.025 0.003 0.009
C50 0.037 0.036 0.05 0.028 0.003 -0.001
C51 0.038 0.045 0.037 0.021 -0.013 -0.005
C52 0.042 0.03 0.041 0.023 0.003 0.001
Cu1 0.0454 0.0462 0.0585 0.0334 0.0197 0.0083
Cu2 0.0541 0.0546 0.0475 0.0227 0.0198 0.0164
Cu3 0.0631 0.078 0.0814 0.0632 0.0059 0.019
Cu4 0.0418 0.042 0.0564 0.0211 -0.0024 -0.0076
I1 0.0341 0.0484 0.0312 0.0208 0.0088 0.005
I4 0.0563 0.0404 0.0392 0.0208 0.0112 0.0192
I5 0.0505 0.0654 0.0579 0.0318 0.0223 0.0214
N3 0.061 0.03 0.016 0.009 0.005 0.01
N4 0.042 0.036 0.039 0.018 0.007 -0.001
C14 0.072 0.043 0.025 0.02 0.013 0.026
C15 0.06 0.025 0.024 0.01 0.011 0.01
C16 0.024 0.038 0.018 0.011 0.004 0.006
C17 0.059 0.036 0.023 0.017 0.01 0.013
C18 0.069 0.039 0.027 0.016 0.008 0.014
C19 0.03 0.029 0.023 0.012 0.004 0.006
C21 0.033 0.026 0.027 0.012 0.005 0.005
C22 0.028 0.027 0.016 0.005 0.002 0
C23 0.034 0.042 0.038 0.025 0.003 0.009
C24 0.037 0.036 0.05 0.028 0.003 -0.001
C25 0.038 0.045 0.037 0.021 -0.013 -0.005
C26 0.042 0.03 0.041 0.023 0.003 0.001
I8 0.0396 0.0432 0.0408 0.0204 0.0107 0.0099
I9 0.0515 0.0349 0.038 0.0174 0.0116 0.0045
N6 0.038 0.039 0.048 0.03 0.015 0.006
N8 0.058 0.06 0.064 0.05 0.012 0.016
C46 0.032 0.034 0.016 0.009 0.005 0.004
Cu16 0.0701 0.0402 0.0205 0.0112 0.0047 0.0146
I2 0.0396 0.0432 0.0408 0.0204 0.0107 0.0099
I3 0.0515 0.0349 0.038 0.0174 0.0116 0.0045
N1 0.038 0.039 0.048 0.03 0.015 0.006
C1 0.044 0.041 0.039 0.027 0.02 0.018
C2 0.047 0.031 0.038 0.019 0.012 0.008
C3 0.034 0.027 0.041 0.023 0.017 0.015
C4 0.039 0.033 0.037 0.022 0.013 0.006
C5 0.042 0.042 0.04 0.025 0.004 0.004
C6 0.035 0.038 0.04 0.025 0.017 0.014
C7 0.032 0.033 0.038 0.022 0.012 0.01
C8 0.034 0.032 0.039 0.025 0.014 0.01
C9 0.035 0.028 0.039 0.02 0.012 0.012
C10 0.035 0.042 0.044 0.025 0.002 0.008
C11 0.044 0.041 0.059 0.03 0.002 0.01
C12 0.049 0.054 0.05 0.035 -0.002 0.002
C13 0.046 0.038 0.043 0.023 0.002 0.001
Cu6 0.0454 0.0462 0.0585 0.0334 0.0197 0.0083
Cu8 0.0541 0.0546 0.0475 0.0227 0.0198 0.0164
Cu11 0.0631 0.078 0.0814 0.0632 0.0059 0.019
I6 0.0341 0.0484 0.0312 0.0208 0.0088 0.005
I11 0.0563 0.0404 0.0392 0.0208 0.0112 0.0192
I13 0.0505 0.0654 0.0579 0.0318 0.0223 0.0214
N7 0.058 0.06 0.064 0.05 0.012 0.016
C27 0.044 0.041 0.039 0.027 0.02 0.018
C28 0.047 0.031 0.038 0.019 0.012 0.008
C29 0.034 0.027 0.041 0.023 0.017 0.015
C30 0.039 0.033 0.037 0.022 0.013 0.006
C31 0.042 0.042 0.04 0.025 0.004 0.004
C32 0.035 0.038 0.04 0.025 0.017 0.014
C33 0.032 0.033 0.038 0.022 0.012 0.01
C34 0.034 0.032 0.039 0.025 0.014 0.01
C35 0.035 0.028 0.039 0.02 0.012 0.012
C36 0.035 0.042 0.044 0.025 0.002 0.008
C37 0.044 0.041 0.059 0.03 0.002 0.01
C38 0.049 0.054 0.05 0.035 -0.002 0.002
C39 0.046 0.038 0.043 0.023 0.002 0.001
loop_
_geom_bond_atom_site_label_1
_geom_bond_atom_site_label_2
_geom_bond_site_symmetry_1
_geom_bond_site_symmetry_2
H14 C20 1_555 1_555
Cu13 N12 1_555 1_555
N9 C40 1_555 1_555
N12 C50 1_555 1_555
C40 H28 1_555 1_555
C41 C40 1_555 1_555
C42 C41 1_555 1_555
C43 C42 1_555 1_555
H30 C43 1_555 1_555
C44 N9 1_555 1_555
H31 C44 1_555 1_555
C45 C42 1_555 1_555
C47 C20 1_555 1_555
C48 C47 1_555 1_555
C49 C48 1_555 1_555
H33 C49 1_555 1_555
C50 C49 1_555 1_555
H34 C50 1_555 1_555
C51 N12 1_555 1_555
H35 C51 1_555 1_555
C52 C48 1_555 1_555
H36 C52 1_555 1_555
C43 C44 1_555 1_555
C45 C47 1_555 1_555
C51 C52 1_555 1_555
Cu1 I1 1_555 1_555
Cu2 I1 1_555 1_555
Cu3 I1 1_555 1_555
Cu4 I1 1_555 1_555
I4 Cu2 1_555 1_555
I5 Cu3 1_555 1_555
N3 C14 1_555 1_555
N4 Cu4 1_555 1_555
C14 H10 1_555 1_555
C15 C14 1_555 1_555
C16 C15 1_555 1_555
C17 C16 1_555 1_555
H12 C17 1_555 1_555
C18 N3 1_555 1_555
H13 C18 1_555 1_555
C19 C16 1_555 1_555
C21 C19 1_555 1_555
C22 C21 1_555 1_555
C23 C22 1_555 1_555
H15 C23 1_555 1_555
C24 N4 1_555 1_555
H16 C24 1_555 1_555
C25 N4 1_555 1_555
H17 C25 1_555 1_555
C26 C22 1_555 1_555
H18 C26 1_555 1_555
I8 Cu1 1_555 1_555
N8 Cu3 1_555 1_555
C46 C21 1_555 1_555
H32 C46 1_555 1_555
Cu4 I4 1_555 1_555
Cu4 I5 1_555 1_555
Cu17 I4 1_555 1_555
Cu17 I5 1_555 1_555
C17 C18 1_555 1_555
C23 C24 1_555 1_555
C25 C26 1_555 1_555
N8 C11 1_555 1_555
C1 N1 1_555 1_555
H1 C1 1_555 1_555
C2 C1 1_555 1_555
H2 C2 1_555 1_555
C3 C2 1_555 1_555
C4 C3 1_555 1_555
H3 C4 1_555 1_555
C5 N1 1_555 1_555
H4 C5 1_555 1_555
C6 C3 1_555 1_555
C7 C6 1_555 1_555
H5 C7 1_555 1_555
C8 C6 1_555 1_555
C9 C8 1_555 1_555
C10 C9 1_555 1_555
H6 C10 1_555 1_555
C11 C10 1_555 1_555
H7 C11 1_555 1_555
C12 N8 1_555 1_555
H8 C12 1_555 1_555
C13 C9 1_555 1_555
Cu6 I2 1_555 1_555
Cu8 I6 1_555 1_555
Cu11 I6 1_555 1_555
Cu13 I6 1_555 1_555
I6 Cu6 1_555 1_555
I11 Cu8 1_555 1_555
I13 Cu11 1_555 1_555
C4 C5 1_555 1_555
C12 C13 1_555 1_555
Cu13 I11 1_555 1_555
Cu13 I13 1_555 1_555
Cu16 I11 1_555 1_555
Cu16 I13 1_555 1_555
Cu11 N7 1_555 1_555
N6 C27 1_555 1_555
N7 C37 1_555 1_555
C27 H19 1_555 1_555
C28 C27 1_555 1_555
H20 C28 1_555 1_555
C29 C28 1_555 1_555
C30 C29 1_555 1_555
H21 C30 1_555 1_555
C31 N6 1_555 1_555
H22 C31 1_555 1_555
C32 C29 1_555 1_555
H23 C33 1_555 1_555
C35 C34 1_555 1_555
C36 C35 1_555 1_555
H24 C36 1_555 1_555
C37 C36 1_555 1_555
H25 C37 1_555 1_555
C38 N7 1_555 1_555
H26 C38 1_555 1_555
C39 C35 1_555 1_555
C30 C31 1_555 1_555
C32 C33 1_555 1_555
C32 C34 1_555 1_555
C38 C39 1_555 1_555

#END
