
###############################################################################
#
# This file contains modified crystal structure data generated from the
# MOF subset of the Cambridge Structural Database (CSD) v543 
# hosted by the Cambridge Crystallographic Data Centre (CCDC).
#
# This work is licensed under the Creative Commons
# Attribution-NonCommercial-ShareAlike 4.0 International License.
# To view a copy of this license, visit
# http://creativecommons.org/licenses/by-nc-sa/4.0/
# or send a letter to
# Creative Commons, PO Box 1866, Mountain View, CA 94042, USA.
#
# CIF created using the CSD Python API on 29 September 2022
# The structure has been converted into the P1 space group
# The structure has a 3D framework
# The original CSD entry LABKIL is in the triclinic crystal system
# The framework has been calculated to contain at least 10.0% void space
# The void calculation uses a probe of radius 1.32A, grid spacing 0.4
#
###############################################################################

data_LABKIL
_chemical_formula_moiety         '(C100 H60 Cd6 N8 O28)n'
_symmetry_cell_setting           triclinic
_symmetry_space_group_name_H-M   'P 1'
_symmetry_Int_Tables_number      1
_space_group_name_Hall           'P 1'
loop_
_symmetry_equiv_pos_site_id
_symmetry_equiv_pos_as_xyz
1 x,y,z
_cell_length_a                   13.862(3)
_cell_length_b                   14.477(3)
_cell_length_c                   14.664(4)
_cell_angle_alpha                95.331(7)
_cell_angle_beta                 106.021(7)
_cell_angle_gamma                118.084(6)
_cell_volume                     2407.75
loop_
_atom_site_label
_atom_site_type_symbol
_atom_site_fract_x
_atom_site_fract_y
_atom_site_fract_z
H5 H 0.0127 0.1239 0.8275
C14 C 0.0593(9) 0.1083(8) 0.7116(8)
H6 H 0.1245 0.1048 0.7454
C15 C 0.0302(8) 0.1026(7) 0.6124(8)
H7 H 0.0754 0.0954 0.5790
O5 O 0.9109(5) 0.1007(5) 0.4647(5)
O6 O 0.8488(7) 0.1417(7) 0.8532(6)
O7 O 0.7477(6) 0.1631(6) 0.7229(6)
C1 C 0.8235(8) 0.1173(8) 0.4102(7)
C2 C 0.7188(8) 0.0299(7) 0.3487(7)
C4 C 0.6339(8) 0.0447(7) 0.2851(7)
C6 C 0.6619(10) 0.1529(8) 0.2883(9)
H1 H 0.6087 0.1659 0.2460
C7 C 0.7670(11) 0.2385(10) 0.3535(11)
H2 H 0.7829 0.3089 0.3564
C8 C 0.8495(9) 0.2221(8) 0.4147(9)
H3 H 0.9209 0.2806 0.4581
C9 C 0.9340(8) 0.1078(7) 0.5641(8)
C10 C 0.8639(8) 0.1170(7) 0.6116(8)
H4 H 0.7980 0.1189 0.5769
C11 C 0.8931(8) 0.1232(7) 0.7117(7)
C12 C 0.8259(9) 0.1414(8) 0.7649(8)
C13 C 0.9918(8) 0.1192(8) 0.7605(8)
Cd8 Cd 0.71644(6) 0.20615(6) 0.86339(5)
O12 O 0.0984(5) 0.4173(5) 0.9637(4)
O13 O 0.3208(6) 0.3659(6) 0.6799(5)
O14 O 0.3841(6) 0.3677(6) 0.8354(5)
N3 N 0.1968(7) 0.7662(7) 0.9720(6)
H10 H 0.0730 0.2326 0.9853
C24 C 0.1186(8) 0.4100(7) 0.8770(7)
C25 C 0.2083(8) 0.3972(7) 0.8656(7)
H11 H 0.2596 0.3924 0.9185
C26 C 0.2206(8) 0.3918(7) 0.7768(7)
C27 C 0.3164(8) 0.3737(8) 0.7629(8)
C28 C 0.1457(9) 0.3989(8) 0.6980(7)
H12 H 0.1554 0.3964 0.6377
C29 C 0.0543(9) 0.4099(8) 0.7098(7)
H13 H 0.0028 0.4148 0.6571
C30 C 0.0408(8) 0.4134(7) 0.7987(7)
C41 C 0.2184(10) 0.8489(9) 0.9325(9)
H23 H 0.2883 0.9143 0.9663
C42 C 0.1452(10) 0.8459(9) 0.8450(9)
H24 H 0.1644 0.9077 0.8220
C43 C 0.0428(8) 0.7485(8) 0.7926(7)
C44 C 0.0222(9) 0.6600(8) 0.8300(8)
C45 C 0.1004(9) 0.6732(8) 0.9173(7)
H26 H 0.0850 0.6120 0.9406
Cd5 Cd 0.37849(6) 0.28644(6) 0.58144(5)
Cd7 Cd 0.47355(6) 0.27512(5) 0.83077(5)
N4 N 0.2199(7) 0.2712(7) 0.4581(6)
H14 H 0.0215 0.5819 0.1942
H25 H 0.0442 0.4078 0.2041
C46 C 0.0454(8) 0.2588(8) 0.2977(7)
C47 C 0.0561(9) 0.1705(8) 0.3082(8)
H27 H 0.0038 0.1043 0.2613
C48 C 0.1431(9) 0.1792(8) 0.3871(8)
H28 H 0.1490 0.1183 0.3916
C49 C 0.2056(9) 0.3555(8) 0.4485(7)
H29 H 0.2558 0.4198 0.4980
C50 C 0.1231(9) 0.3532(8) 0.3715(7)
H30 H 0.1188 0.4151 0.3685
O1 O 0.5551(6) 0.0256(6) 0.8369(6)
O2 O 0.5174(5) 0.1411(5) 0.7718(5)
O3 O 0.3144(7) 0.1119(5) 0.5752(5)
O4 O 0.3041(6) 0.1365(6) 0.7223(6)
O8 O 0.5506(6) 0.4707(5) 0.6352(5)
O9 O 0.5502(5) 0.3534(5) 0.7204(5)
O10 O 0.8005(6) 0.3831(5) 0.8470(5)
O11 O 0.6712(5) 0.3521(5) 0.9188(5)
N1 N 0.4423(7) 0.2618(6) 0.4542(6)
C3 C 0.3034(8) 0.0823(8) 0.6498(8)
C5 C 0.4869(8) 0.0461(8) 0.7793(7)
C16 C 0.8411(8) 0.6058(8) 0.9586(7)
C17 C 0.7571(7) 0.5200(7) 0.8764(6)
C18 C 0.7409(8) 0.4100(7) 0.8791(7)
C19 C 0.6984(7) 0.5425(7) 0.7961(7)
C20 C 0.5960(8) 0.4520(8) 0.7111(7)
C21 C 0.7298(8) 0.6470(7) 0.7963(8)
H8 H 0.6931 0.6620 0.7414
C22 C 0.8158(10) 0.7306(9) 0.8777(8)
H9 H 0.8369 0.8016 0.8769
C23 C 0.8706(9) 0.7107(8) 0.9593(8)
C31 C 0.5087(9) 0.3495(8) 0.4285(7)
H15 H 0.5495 0.4164 0.4743
C32 C 0.5203(9) 0.3470(9) 0.3404(8)
H16 H 0.5681 0.4112 0.3272
C33 C 0.4620(8) 0.2500(7) 0.2693(7)
C34 C 0.3941(9) 0.1562(8) 0.2951(8)
H17 H 0.3545 0.0882 0.2511
C35 C 0.3876(10) 0.1671(8) 0.3860(8)
H18 H 0.3418 0.1042 0.4021
C36 C 0.4625(8) 0.2472(7) 0.1690(7)
C37 C 0.5476(16) 0.3262(13) 0.1498(13)
H19 H 0.6078 0.3865 0.2007
C38 C 0.5487(19) 0.3207(15) 0.0548(14)
H20 H 0.6158 0.3728 0.0468
C40 C 0.3854(13) 0.1651(11) 0.0902(11)
H22 H 0.3272 0.1024 0.0977
N5 N 0.4636(8) 0.2487(7) 0.9777(6)
C39 C 0.3886(13) 0.1697(11) 0.9982(11)
H21 H 0.3307 0.1094 0.9464
N2 N 0.5364(8) 0.7513(7) 0.0223(6)
C39_2 C 0.6114(13) 0.8303(11) 0.0018(11)
H21_2 H 0.6693 0.8906 0.0536
Cd6 Cd 0.52645(6) 0.72488(5) 0.16923(5)
Cd1 Cd 0.62151(6) 0.71356(6) 0.41856(5)
Cd3 Cd 0.28356(6) 0.79385(6) 0.13661(5)
O1_2 O 0.4449(6) 0.9744(6) 0.1631(6)
O2_2 O 0.4826(5) 0.8589(5) 0.2282(5)
O3_2 O 0.6856(7) 0.8881(5) 0.4248(5)
O4_2 O 0.6959(6) 0.8635(6) 0.2777(6)
O8_2 O 0.4494(6) 0.5293(5) 0.3648(5)
O9_2 O 0.4498(5) 0.6466(5) 0.2796(5)
O10_2 O 0.1995(6) 0.6169(5) 0.1530(5)
O11_2 O 0.3288(5) 0.6479(5) 0.0812(5)
N1_2 N 0.5577(7) 0.7382(6) 0.5458(6)
C3_2 C 0.6966(8) 0.9177(8) 0.3502(8)
C5_2 C 0.5131(8) 0.9539(8) 0.2207(7)
C16_2 C 0.1589(8) 0.3942(8) 0.0414(7)
C17_2 C 0.2429(7) 0.4800(7) 0.1236(6)
C18_2 C 0.2591(8) 0.5900(7) 0.1209(7)
C19_2 C 0.3016(7) 0.4575(7) 0.2039(7)
C20_2 C 0.4040(8) 0.5480(8) 0.2889(7)
C21_2 C 0.2702(8) 0.3530(7) 0.2037(8)
H8_2 H 0.3069 0.3380 0.2586
C22_2 C 0.1842(10) 0.2694(9) 0.1223(8)
H9_2 H 0.1631 0.1984 0.1231
C23_2 C 0.1294(9) 0.2893(8) 0.0407(8)
C31_2 C 0.4913(9) 0.6505(8) 0.5715(7)
H15_2 H 0.4505 0.5836 0.5257
C32_2 C 0.4797(9) 0.6530(9) 0.6596(8)
H16_2 H 0.4319 0.5888 0.6728
C33_2 C 0.5380(8) 0.7500(7) 0.7307(7)
C34_2 C 0.6059(9) 0.8438(8) 0.7049(8)
H17_2 H 0.6455 0.9118 0.7489
C35_2 C 0.6124(10) 0.8329(8) 0.6140(8)
H18_2 H 0.6582 0.8958 0.5979
C36_2 C 0.5375(8) 0.7528(7) 0.8310(7)
C37_2 C 0.4524(16) 0.6738(13) 0.8502(13)
H19_2 H 0.3922 0.6135 0.7993
C38_2 C 0.4513(19) 0.6793(15) 0.9452(14)
H20_2 H 0.3842 0.6272 0.9532
C40_2 C 0.6146(13) 0.8349(11) 0.9098(11)
H22_2 H 0.6728 0.8976 0.9023
O15 O 0.1512(7) 0.8583(7) 0.1468(6)
O16 O 0.2523(6) 0.8369(6) 0.2771(6)
O17 O 0.6792(6) 0.6341(6) 0.3201(5)
O18 O 0.6159(6) 0.6323(6) 0.1646(5)
N6 N 0.7801(7) 0.7288(7) 0.5419(6)
H14_2 H 0.9785 0.4181 0.8058
H25_2 H 0.9558 0.5922 0.7959
C46_2 C 0.9546(8) 0.7412(8) 0.7023(7)
C47_2 C 0.9439(9) 0.8295(8) 0.6918(8)
H27_2 H 0.9962 0.8957 0.7387
C48_2 C 0.8569(9) 0.8208(8) 0.6129(8)
H28_2 H 0.8510 0.8817 0.6084
C49_2 C 0.7944(9) 0.6445(8) 0.5515(7)
H29_2 H 0.7442 0.5802 0.5020
C50_2 C 0.8769(9) 0.6468(8) 0.6285(7)
H30_2 H 0.8812 0.5849 0.6315
O12_2 O 0.9016(5) 0.5827(5) 0.0363(4)
N3_2 N 0.8032(7) 0.2338(7) 0.0280(6)
H10_2 H 0.9270 0.7674 0.0147
C24_2 C 0.8814(8) 0.5900(7) 0.1230(7)
C25_2 C 0.7917(8) 0.6028(7) 0.1344(7)
H11_2 H 0.7404 0.6076 0.0815
C26_2 C 0.7794(8) 0.6082(7) 0.2232(7)
C27_2 C 0.6836(8) 0.6263(8) 0.2371(8)
C28_2 C 0.8543(9) 0.6011(8) 0.3020(7)
H12_2 H 0.8446 0.6036 0.3623
C29_2 C 0.9457(9) 0.5901(8) 0.2902(7)
H13_2 H 0.9972 0.5852 0.3429
C30_2 C 0.9592(8) 0.5866(7) 0.2013(7)
C41_2 C 0.7816(10) 0.1511(9) 0.0675(9)
H23_2 H 0.7117 0.0857 0.0337
C42_2 C 0.8548(10) 0.1541(9) 0.1550(9)
H24_2 H 0.8356 0.0923 0.1780
C43_2 C 0.9572(8) 0.2515(8) 0.2074(7)
C44_2 C 0.9778(9) 0.3400(8) 0.1700(8)
C45_2 C 0.8996(9) 0.3268(8) 0.0827(7)
H26_2 H 0.9150 0.3880 0.0594
O5_2 O 0.0891(5) 0.8993(5) 0.5353(5)
C1_2 C 0.1765(8) 0.8827(8) 0.5898(7)
C2_2 C 0.2812(8) 0.9701(7) 0.6513(7)
C4_2 C 0.3661(8) 0.9553(7) 0.7149(7)
C6_2 C 0.3381(10) 0.8471(8) 0.7117(9)
H1_2 H 0.3913 0.8341 0.7540
C7_2 C 0.2330(11) 0.7615(10) 0.6465(11)
H2_2 H 0.2171 0.6911 0.6436
C8_2 C 0.1505(9) 0.7779(8) 0.5853(9)
H3_2 H 0.0791 0.7194 0.5419
C9_2 C 0.0660(8) 0.8922(7) 0.4359(8)
C10_2 C 0.1361(8) 0.8830(7) 0.3884(8)
H4_2 H 0.2020 0.8811 0.4231
C11_2 C 0.1069(8) 0.8768(7) 0.2883(7)
C12_2 C 0.1741(9) 0.8586(8) 0.2351(8)
C13_2 C 0.0082(8) 0.8808(8) 0.2395(8)
H5_2 H 0.9873 0.8761 0.1725
C14_2 C 0.9407(9) 0.8917(8) 0.2884(8)
H6_2 H 0.8755 0.8952 0.2546
C15_2 C 0.9698(8) 0.8974(7) 0.3876(8)
H7_2 H 0.9246 0.9046 0.4210
loop_
_geom_bond_atom_site_label_1
_geom_bond_atom_site_label_2
_geom_bond_site_symmetry_1
_geom_bond_site_symmetry_2
H6 C14 1_555 1_555
H7 C15 1_555 1_555
C14 C15 1_555 1_555
O5 C1 1_555 1_555
O6 C12 1_555 1_555
O7 C12 1_555 1_555
C1 C2 1_555 1_555
C4 C2 1_555 1_555
C6 C4 1_555 1_555
H1 C6 1_555 1_555
C7 C6 1_555 1_555
H2 C7 1_555 1_555
C8 C1 1_555 1_555
H3 C8 1_555 1_555
C9 O5 1_555 1_555
C10 C9 1_555 1_555
H4 C10 1_555 1_555
C11 C10 1_555 1_555
C12 C11 1_555 1_555
C13 C11 1_555 1_555
Cd8 O6 1_555 1_555
O7 Cd8 1_555 1_555
C7 C8 1_555 1_555
O13 C27 1_555 1_555
O14 C27 1_555 1_555
C24 O12 1_555 1_555
C25 C24 1_555 1_555
H11 C25 1_555 1_555
C26 C25 1_555 1_555
C27 C26 1_555 1_555
C28 C26 1_555 1_555
H12 C28 1_555 1_555
C29 C28 1_555 1_555
H13 C29 1_555 1_555
C30 C24 1_555 1_555
C41 N3 1_555 1_555
H23 C41 1_555 1_555
C42 C41 1_555 1_555
H24 C42 1_555 1_555
C43 C42 1_555 1_555
C44 C43 1_555 1_555
C45 N3 1_555 1_555
H26 C45 1_555 1_555
Cd5 O13 1_555 1_555
Cd7 O14 1_555 1_555
C29 C30 1_555 1_555
C44 C45 1_555 1_555
N4 C48 1_555 1_555
C47 C46 1_555 1_555
H27 C47 1_555 1_555
C48 C47 1_555 1_555
H28 C48 1_555 1_555
C49 N4 1_555 1_555
H29 C49 1_555 1_555
C50 C46 1_555 1_555
H30 C50 1_555 1_555
Cd5 N4 1_555 1_555
C49 C50 1_555 1_555
Cd5 O3 1_555 1_555
Cd7 O2 1_555 1_555
Cd8 O1 1_555 1_555
O1 C5 1_555 1_555
O2 Cd8 1_555 1_555
O3 C3 1_555 1_555
O4 Cd7 1_555 1_555
O8 Cd5 1_555 1_555
O9 Cd5 1_555 1_555
O10 Cd8 1_555 1_555
O11 Cd7 1_555 1_555
N1 Cd5 1_555 1_555
C3 O4 1_555 1_555
C5 O2 1_555 1_555
C16 C17 1_555 1_555
C17 C18 1_555 1_555
C18 O10 1_555 1_555
C19 C17 1_555 1_555
C20 O8 1_555 1_555
C21 C19 1_555 1_555
H8 C21 1_555 1_555
C22 C21 1_555 1_555
H9 C22 1_555 1_555
C23 C16 1_555 1_555
C31 N1 1_555 1_555
H15 C31 1_555 1_555
C32 C31 1_555 1_555
H16 C32 1_555 1_555
C33 C32 1_555 1_555
C34 C33 1_555 1_555
H17 C34 1_555 1_555
C35 N1 1_555 1_555
H18 C35 1_555 1_555
C36 C33 1_555 1_555
C37 C36 1_555 1_555
H19 C37 1_555 1_555
C38 C37 1_555 1_555
H20 C38 1_555 1_555
C40 C36 1_555 1_555
H22 C40 1_555 1_555
N5 Cd7 1_555 1_555
Cd7 O9 1_555 1_555
Cd8 O11 1_555 1_555
O9 C20 1_555 1_555
O11 C18 1_555 1_555
C19 C20 1_555 1_555
C22 C23 1_555 1_555
C34 C35 1_555 1_555
C39 N5 1_555 1_555
H21 C39 1_555 1_555
C39_2 N2 1_555 1_555
H21_2 C39_2 1_555 1_555
Cd6 N2 1_555 1_555
Cd1 O3_2 1_555 1_555
Cd6 O2_2 1_555 1_555
Cd3 O1_2 1_555 1_555
O1_2 C5_2 1_555 1_555
O2_2 Cd3 1_555 1_555
O3_2 C3_2 1_555 1_555
O4_2 Cd6 1_555 1_555
O8_2 Cd1 1_555 1_555
O9_2 Cd1 1_555 1_555
O10_2 Cd3 1_555 1_555
O11_2 Cd6 1_555 1_555
N1_2 Cd1 1_555 1_555
C3_2 O4_2 1_555 1_555
C5_2 O2_2 1_555 1_555
C16_2 C17_2 1_555 1_555
C17_2 C18_2 1_555 1_555
C18_2 O10_2 1_555 1_555
C19_2 C17_2 1_555 1_555
C20_2 O8_2 1_555 1_555
C21_2 C19_2 1_555 1_555
H8_2 C21_2 1_555 1_555
C22_2 C21_2 1_555 1_555
H9_2 C22_2 1_555 1_555
C23_2 C16_2 1_555 1_555
C31_2 N1_2 1_555 1_555
H15_2 C31_2 1_555 1_555
C32_2 C31_2 1_555 1_555
H16_2 C32_2 1_555 1_555
C33_2 C32_2 1_555 1_555
C34_2 C33_2 1_555 1_555
H17_2 C34_2 1_555 1_555
C35_2 N1_2 1_555 1_555
H18_2 C35_2 1_555 1_555
C36_2 C33_2 1_555 1_555
C37_2 C36_2 1_555 1_555
H19_2 C37_2 1_555 1_555
C38_2 C37_2 1_555 1_555
H20_2 C38_2 1_555 1_555
C40_2 C36_2 1_555 1_555
H22_2 C40_2 1_555 1_555
O15 Cd3 1_555 1_555
O16 Cd3 1_555 1_555
O17 Cd1 1_555 1_555
O18 Cd6 1_555 1_555
N6 Cd1 1_555 1_555
Cd6 O9_2 1_555 1_555
Cd3 O11_2 1_555 1_555
O9_2 C20_2 1_555 1_555
O11_2 C18_2 1_555 1_555
C19_2 C20_2 1_555 1_555
C22_2 C23_2 1_555 1_555
C34_2 C35_2 1_555 1_555
N6 C48_2 1_555 1_555
C47_2 C46_2 1_555 1_555
H27_2 C47_2 1_555 1_555
C48_2 C47_2 1_555 1_555
H28_2 C48_2 1_555 1_555
C49_2 N6 1_555 1_555
H29_2 C49_2 1_555 1_555
C50_2 C46_2 1_555 1_555
H30_2 C50_2 1_555 1_555
C49_2 C50_2 1_555 1_555
O17 C27_2 1_555 1_555
O18 C27_2 1_555 1_555
C24_2 O12_2 1_555 1_555
C25_2 C24_2 1_555 1_555
H11_2 C25_2 1_555 1_555
C26_2 C25_2 1_555 1_555
C27_2 C26_2 1_555 1_555
C28_2 C26_2 1_555 1_555
H12_2 C28_2 1_555 1_555
C29_2 C28_2 1_555 1_555
H13_2 C29_2 1_555 1_555
C30_2 C24_2 1_555 1_555
C41_2 N3_2 1_555 1_555
H23_2 C41_2 1_555 1_555
C42_2 C41_2 1_555 1_555
H24_2 C42_2 1_555 1_555
C43_2 C42_2 1_555 1_555
C44_2 C43_2 1_555 1_555
C45_2 N3_2 1_555 1_555
H26_2 C45_2 1_555 1_555
C29_2 C30_2 1_555 1_555
C44_2 C45_2 1_555 1_555
O5_2 C1_2 1_555 1_555
O15 C12_2 1_555 1_555
O16 C12_2 1_555 1_555
C1_2 C2_2 1_555 1_555
C4_2 C2_2 1_555 1_555
C6_2 C4_2 1_555 1_555
H1_2 C6_2 1_555 1_555
C7_2 C6_2 1_555 1_555
H2_2 C7_2 1_555 1_555
C8_2 C1_2 1_555 1_555
H3_2 C8_2 1_555 1_555
C9_2 O5_2 1_555 1_555
C10_2 C9_2 1_555 1_555
H4_2 C10_2 1_555 1_555
C11_2 C10_2 1_555 1_555
C12_2 C11_2 1_555 1_555
C13_2 C11_2 1_555 1_555
C7_2 C8_2 1_555 1_555
H6_2 C14_2 1_555 1_555
H7_2 C15_2 1_555 1_555
C14_2 C15_2 1_555 1_555

#END
