
###############################################################################
#
# This file contains modified crystal structure data generated from the
# MOF subset of the Cambridge Structural Database (CSD) v543 
# hosted by the Cambridge Crystallographic Data Centre (CCDC).
#
# This work is licensed under the Creative Commons
# Attribution-NonCommercial-ShareAlike 4.0 International License.
# To view a copy of this license, visit
# http://creativecommons.org/licenses/by-nc-sa/4.0/
# or send a letter to
# Creative Commons, PO Box 1866, Mountain View, CA 94042, USA.
#
# CIF created using the CSD Python API on 29 September 2022
# The structure has been converted into the P1 space group
# The structure has a 3D framework
# The original CSD entry LABNAG is in the monoclinic crystal system
# The original CSD entry LABNAG is in a Sohncke space group
# The framework has been calculated to contain at least 10.0% void space
# The void calculation uses a probe of radius 1.32A, grid spacing 0.4
# H atom positions have been added when not included in the experimental data
#
###############################################################################

data_LABNAG
_chemical_formula_moiety         '(C288 H192 I48 N96 Zn24)n'
_symmetry_cell_setting           triclinic
_symmetry_space_group_name_H-M   'P 1'
_symmetry_Int_Tables_number      1
_space_group_name_Hall           'P 1'
loop_
_symmetry_equiv_pos_site_id
_symmetry_equiv_pos_as_xyz
1 x,y,z
_cell_length_a                   32.8072(2)
_cell_length_b                   14.9123(1)
_cell_length_c                   34.9062(2)
_cell_angle_alpha                90
_cell_angle_beta                 105.8220(10)
_cell_angle_gamma                90
_cell_volume                     16430.2
loop_
_atom_site_label
_atom_site_type_symbol
_atom_site_fract_x
_atom_site_fract_y
_atom_site_fract_z
I2 I 0.05563(2) 0.32989(3) 0.12625(2)
Zn5 Zn 0.17471(2) 0.03392(6) 0.65542(2)
I7 I 0.05991(2) 0.80375(4) 0.63906(2)
I9 I 0.13893(2) 0.01101(3) 0.71087(2)
C27 C 0.0072(2) 0.4903(5) 0.58848(19)
H19 H 0.0258 0.4503 0.6062
C28 C 0.0087(2) 0.5807(5) 0.5963(2)
H20 H 0.0285 0.6020 0.6197
N9 N 0.12608(16) 0.0929(4) 0.61238(15)
C29 C 0.0901(2) 0.0466(4) 0.59592(19)
C30 C 0.05310(19) 0.0880(4) 0.57467(18)
H22 H 0.0286 0.0537 0.5626
C31 C 0.05262(19) 0.1804(4) 0.57142(17)
C32 C 0.0898(2) 0.2279(5) 0.58713(19)
H23 H 0.0906 0.2912 0.5841
C33 C 0.1255(2) 0.1814(5) 0.60718(19)
H24 H 0.1510 0.2140 0.6178
N11 N 0.01195(16) 0.3156(4) 0.56396(15)
C36 C 0.01346(18) 0.2309(4) 0.55183(17)
N50 N 0.21590(15) 0.1423(4) 0.67015(15)
Zn6 Zn 0.67739(2) 0.26647(6) 0.62028(3)
Zn7 Zn 0.30762(3) 0.23771(6) 0.36796(2)
I11 I 0.69150(2) 0.32497(3) 0.55607(2)
Zn11 Zn 0.49022(3) 0.04434(7) 0.08388(3)
I12 I 0.67484(2) 0.37322(3) 0.67500(2)
I13 I 0.23792(2) 0.22831(3) 0.38531(2)
I14 I 0.34130(2) 0.38464(3) 0.35487(2)
I22 I 0.56253(2) 0.02592(4) 0.13325(2)
N14 N 0.71937(16) 0.1641(3) 0.64294(16)
C42 C 0.74231(19) 0.1271(5) 0.62091(19)
H29 H 0.7404 0.1516 0.5954
C43 C 0.76841(18) 0.0553(5) 0.63363(19)
H30 H 0.7846 0.0310 0.6173
C44 C 0.77086(18) 0.0184(4) 0.67085(18)
C45 C 0.74732(19) 0.0569(5) 0.69430(19)
H31 H 0.7484 0.0331 0.7198
C46 C 0.72242(19) 0.1301(5) 0.67962(19)
H32 H 0.7069 0.1578 0.6957
N19 N 0.62143(16) 0.1953(4) 0.60109(17)
C55 C 0.5838(2) 0.2374(4) 0.5893(2)
H37 H 0.5827 0.3003 0.5932
C56 C 0.54666(19) 0.1921(5) 0.5717(2)
H38 H 0.5206 0.2235 0.5630
C57 C 0.54829(19) 0.0993(5) 0.56698(18)
C58 C 0.5869(2) 0.0556(5) 0.5795(2)
C59 C 0.6225(2) 0.1061(5) 0.5963(2)
H40 H 0.6490 0.0763 0.6048
N20 N 0.35288(16) 0.1690(4) 0.41098(16)
C60 C 0.3810(2) 0.2153(5) 0.4392(2)
H41 H 0.3797 0.2790 0.4388
C61 C 0.4120(2) 0.1737(5) 0.4688(2)
H42 H 0.4316 0.2081 0.4883
C62 C 0.41379(19) 0.0801(4) 0.46966(19)
C63 C 0.38431(19) 0.0319(4) 0.44125(19)
C64 C 0.3542(2) 0.0793(5) 0.41215(19)
H44 H 0.3340 0.0466 0.3925
C70 C 0.51015(18) 0.0466(4) 0.54699(19)
N22 N 0.47936(16) 0.0886(4) 0.51998(16)
C71 C 0.44746(18) 0.0349(4) 0.50071(18)
N37 N 0.30868(18) 0.1582(4) 0.31965(16)
C109 C 0.2756(2) 0.1103(5) 0.29828(19)
H72 H 0.2496 0.1132 0.3052
C110 C 0.2779(2) 0.0573(4) 0.26678(19)
H73 H 0.2541 0.0232 0.2526
C111 C 0.3153(2) 0.0542(5) 0.25591(19)
C112 C 0.3497(2) 0.1046(6) 0.2774(2)
H74 H 0.3757 0.1042 0.2705
C113 C 0.3450(2) 0.1551(6) 0.3091(2)
H75 H 0.3684 0.1891 0.3240
N39 N 0.44498(19) 0.0221(5) 0.11398(18)
C119 C 0.4372(3) 0.0803(6) 0.1399(3)
H80 H 0.4524 0.1352 0.1441
C120 C 0.4077(3) 0.0644(6) 0.1613(3)
H81 H 0.4033 0.1071 0.1799
N42 N 0.35106(17) 0.0164(4) 0.20640(16)
H92 H 0.0136 0.1417 0.1179
N51 N 0.4818(2) 0.1795(4) 0.0694(2)
C96 C 0.4499(3) 0.2120(7) 0.0411(4)
H64 H 0.4295 0.1712 0.0261
C97 C 0.4445(3) 0.3024(6) 0.0323(3)
H65 H 0.4208 0.3228 0.0119
C98 C 0.4738(2) 0.3616(5) 0.0532(2)
C99 C 0.5075(4) 0.3285(6) 0.0812(4)
H66 H 0.5290 0.3678 0.0956
C100 C 0.5105(4) 0.2376(7) 0.0886(4)
H67 H 0.5343 0.2158 0.1085
N33 N 0.61944(18) 0.7326(4) 0.11306(18)
C101 C 0.6175(3) 0.6434(5) 0.1135(3)
H68 H 0.6421 0.6106 0.1269
C102 C 0.5808(3) 0.5969(6) 0.0951(3)
H69 H 0.5804 0.5332 0.0960
C103 C 0.5452(2) 0.6431(5) 0.0755(2)
C104 C 0.5477(2) 0.7358(5) 0.0741(2)
H70 H 0.5238 0.7702 0.0603
C105 C 0.5857(2) 0.7774(5) 0.0932(2)
H71 H 0.5874 0.8409 0.0918
C106 C 0.44469(19) 0.5810(5) 0.0080(2)
N34 N 0.44052(17) 0.4932(4) 0.01520(18)
C107 C 0.4724(2) 0.4606(5) 0.0449(2)
N35 N 0.50489(18) 0.5076(4) 0.06661(18)
C108 C 0.5064(2) 0.5923(5) 0.0556(2)
N36 N 0.47707(17) 0.6334(4) 0.02644(17)
Zn14 Zn 0.67121(3) 0.79335(6) 0.15206(3)
N1 N 0.93839(17) 0.3363(4) 0.11394(16)
I1 I 0.95545(2) 0.40680(3) 0.01740(2)
Zn1 Zn 0.98081(3) 0.31435(6) 0.08095(3)
C1 C 0.9252(2) 0.4201(5) 0.1187(2)
H1 H 0.9362 0.4686 0.1070
C2 C 0.8962(2) 0.4381(5) 0.1399(2)
H2 H 0.8874 0.4979 0.1425
I3 I 0.70751(2) 0.90029(4) 0.11492(2)
Zn3 Zn 0.81949(2) 0.05258(6) 0.36222(2)
C3 C 0.88019(19) 0.3673(4) 0.15738(18)
I4 I 0.64077(2) 0.82307(4) 0.21031(2)
Zn4 Zn 0.98981(3) 0.77396(6) 0.58766(3)
C4 C 0.8943(2) 0.2805(5) 0.1527(2)
H3 H 0.8842 0.2305 0.1643
I5 I 0.75273(2) 0.04586(4) 0.38468(2)
C5 C 0.9232(2) 0.2693(5) 0.1307(2)
H4 H 0.9327 0.2103 0.1275
N2 N 0.71237(17) 0.6839(4) 0.16686(18)
C6 C 0.7325(2) 0.6566(5) 0.1406(2)
H5 H 0.7283 0.6887 0.1164
I8 I 0.96416(2) 0.87720(3) 0.52737(2)
Zn8 Zn 0.48092(3) 0.50521(6) 0.58652(3)
C7 C 0.7593(2) 0.5830(5) 0.1475(2)
H6 H 0.7734 0.5650 0.1283
Zn9 Zn 0.30628(3) 0.76691(6) 0.86862(2)
C8 C 0.76524(18) 0.5363(4) 0.18288(18)
Zn10 Zn 0.17500(2) 0.55409(6) 0.11952(2)
C9 C 0.7441(2) 0.5646(4) 0.21033(19)
H7 H 0.7475 0.5337 0.2348
C10 C 0.71791(19) 0.6389(5) 0.20107(19)
H8 H 0.7034 0.6586 0.2197
N3 N 0.81339(17) 0.1401(4) 0.31472(15)
C11 C 0.8409(2) 0.1332(5) 0.2930(2)
H9 H 0.8612 0.0863 0.2990
C12 C 0.8413(2) 0.1908(6) 0.2624(2)
H10 H 0.8607 0.1823 0.2469
I15 I 0.45232(2) 0.39826(3) 0.52803(2)
C13 C 0.81263(18) 0.2619(4) 0.25465(17)
I16 I 0.55352(2) 0.47646(3) 0.63474(2)
C14 C 0.7838(2) 0.2694(5) 0.27693(19)
H11 H 0.7635 0.3164 0.2719
I17 I 0.34016(2) 0.91321(3) 0.85442(2)
C15 C 0.7850(2) 0.2067(4) 0.30686(18)
H12 H 0.7651 0.2115 0.3221
I18 I 0.23744(2) 0.75298(4) 0.88776(2)
C16 C 0.84796(19) 0.3799(4) 0.17944(18)
I19 I 0.18092(2) 0.51669(4) 0.04942(2)
N4 N 0.82367(16) 0.4535(4) 0.17169(15)
I20 I 0.17772(2) 0.43566(4) 0.17080(2)
C17 C 0.79305(19) 0.4561(4) 0.19023(17)
I21 I 0.46468(2) 0.95003(4) 0.02095(2)
N5 N 0.78612(15) 0.3947(4) 0.21582(14)
C18 C 0.81475(18) 0.3272(4) 0.22331(17)
N6 N 0.84553(16) 0.3165(4) 0.20570(15)
N7 N 0.86300(16) 0.1172(4) 0.40811(15)
C19 C 0.8928(2) 0.0693(4) 0.4340(2)
H13 H 0.8943 0.0065 0.4300
C20 C 0.9214(2) 0.1085(5) 0.4661(2)
H14 H 0.9424 0.0732 0.4838
C21 C 0.91902(18) 0.1993(4) 0.47215(17)
C22 C 0.8882(2) 0.2494(4) 0.4463(2)
H15 H 0.8857 0.3120 0.4501
C23 C 0.8608(2) 0.2049(5) 0.41423(19)
H16 H 0.8396 0.2387 0.3960
N8 N 0.98344(17) 0.6402(4) 0.57246(16)
C24 C 0.9548(2) 0.6099(5) 0.53987(19)
H17 H 0.9364 0.6515 0.5230
C25 C 0.9513(2) 0.5198(5) 0.53000(19)
H18 H 0.9306 0.5004 0.5068
C26 C 0.97814(18) 0.4576(4) 0.55414(18)
C34 C 0.95138(18) 0.2426(4) 0.50549(17)
N10 N 0.94628(15) 0.3285(4) 0.51455(15)
C35 C 0.97788(19) 0.3616(4) 0.54382(17)
N12 N 0.98436(17) 0.1907(4) 0.52327(15)
N13 N 0.94376(17) 0.7918(4) 0.61736(17)
C37 C 0.9304(3) 0.8761(5) 0.6201(2)
H25 H 0.9420 0.9232 0.6080
C38 C 0.9008(2) 0.8965(5) 0.6398(2)
H26 H 0.8917 0.9567 0.6410
C39 C 0.88412(19) 0.8289(5) 0.65802(18)
C40 C 0.8975(2) 0.7413(5) 0.6548(2)
H27 H 0.8866 0.6930 0.6667
C41 C 0.9270(2) 0.7262(5) 0.6340(2)
H28 H 0.9357 0.6663 0.6313
N15 N 0.80328(18) 0.6620(4) 0.82188(15)
C47 C 0.8391(2) 0.6602(5) 0.8110(2)
H33 H 0.8619 0.6246 0.8260
C48 C 0.8444(2) 0.7083(5) 0.7788(2)
H34 H 0.8704 0.7055 0.7718
C49 C 0.81117(19) 0.7608(4) 0.75678(17)
C50 C 0.77370(19) 0.7615(4) 0.76817(18)
H35 H 0.7502 0.7961 0.7537
C51 C 0.7710(2) 0.7116(4) 0.80066(18)
H36 H 0.7453 0.7125 0.8082
C52 C 0.85183(19) 0.8503(4) 0.67892(18)
N16 N 0.82897(16) 0.9242(4) 0.66706(15)
C53 C 0.79824(18) 0.9388(4) 0.68476(17)
N17 N 0.79043(16) 0.8875(4) 0.71334(15)
C54 C 0.81679(18) 0.8170(4) 0.72405(17)
N18 N 0.84770(17) 0.7957(4) 0.70788(15)
H39 H 0.5888 0.9925 0.5766
H43 H 0.3845 0.9682 0.4415
N21 N 0.47832(17) 0.6360(4) 0.56625(18)
C65 C 0.5090(2) 0.6923(5) 0.5849(3)
H45 H 0.5315 0.6697 0.6060
C66 C 0.5095(2) 0.7816(5) 0.5750(3)
H46 H 0.5323 0.8190 0.5887
C67 C 0.47660(19) 0.8164(4) 0.5450(2)
C68 C 0.4450(2) 0.7580(5) 0.5249(2)
H47 H 0.4223 0.7789 0.5036
C69 C 0.4470(2) 0.6687(5) 0.5364(2)
N23 N 0.44434(16) 0.9471(4) 0.50647(17)
C72 C 0.47653(18) 0.9130(5) 0.53514(18)
N24 N 0.50992(16) 0.9600(4) 0.55639(17)
N25 N 0.43815(15) 0.4973(4) 0.61987(16)
C73 C 0.42755(19) 0.4146(5) 0.6289(2)
H48 H 0.4406 0.3642 0.6205
C74 C 0.3981(2) 0.4010(4) 0.65012(19)
H49 H 0.3911 0.3418 0.6561
C75 C 0.37901(18) 0.4738(4) 0.66263(18)
C76 C 0.3912(2) 0.5587(5) 0.6541(2)
H50 H 0.3795 0.6102 0.6631
C77 C 0.4203(2) 0.5680(5) 0.6327(2)
H51 H 0.4281 0.6266 0.6267
N26 N 0.30437(17) 0.6839(4) 0.82065(16)
C78 C 0.2744(2) 0.6220(5) 0.8072(2)
H52 H 0.2522 0.6170 0.8198
C79 C 0.2741(2) 0.5650(5) 0.7760(2)
H53 H 0.2521 0.5220 0.7672
C80 C 0.3065(2) 0.5719(4) 0.75768(19)
C81 C 0.3372(3) 0.6372(7) 0.7713(3)
H54 H 0.3594 0.6447 0.7589
C82 C 0.3352(3) 0.6907(7) 0.8026(3)
H55 H 0.3567 0.7343 0.8119
C83 C 0.21470(19) 0.1974(5) 0.70042(18)
H56 H 0.1966 0.1828 0.7167
C84 C 0.2391(2) 0.2751(5) 0.70866(18)
H57 H 0.2376 0.3128 0.7302
C85 C 0.26574(18) 0.2972(4) 0.68518(17)
C86 C 0.2667(2) 0.2397(5) 0.6538(2)
H58 H 0.2844 0.2527 0.6371
C87 C 0.2416(2) 0.1634(5) 0.6475(2)
H59 H 0.2426 0.1246 0.6262
C88 C 0.34608(18) 0.4606(4) 0.68381(17)
N28 N 0.34123(16) 0.5236(4) 0.70886(15)
C89 C 0.31019(19) 0.5091(4) 0.72564(18)
N29 N 0.28311(16) 0.4396(4) 0.71783(15)
C90 C 0.29204(18) 0.3794(4) 0.69315(17)
N30 N 0.32383(16) 0.3839(4) 0.67598(15)
N31 N 0.35251(17) 0.7061(4) 0.91323(16)
C91 C 0.3820(3) 0.7545(5) 0.9394(3)
H60 H 0.3819 0.8178 0.9365
C92 C 0.4123(3) 0.7156(5) 0.9703(3)
H61 H 0.4332 0.7514 0.9879
C93 C 0.41171(19) 0.6235(5) 0.9752(2)
C94 C 0.3813(2) 0.5734(5) 0.9490(2)
H62 H 0.3801 0.5101 0.9518
C95 C 0.3523(2) 0.6182(5) 0.9183(2)
H63 H 0.3313 0.5838 0.9000
N38 N 0.21811(17) 0.6536(4) 0.14350(17)
C114 C 0.2219(2) 0.6882(5) 0.17970(19)
H76 H 0.2056 0.6633 0.1958
C115 C 0.2489(2) 0.7596(5) 0.19429(19)
H77 H 0.2510 0.7832 0.2200
C116 C 0.27282(19) 0.7958(4) 0.17110(18)
C117 C 0.2700(2) 0.7577(5) 0.1343(2)
H78 H 0.2868 0.7799 0.1181
C118 C 0.2424(2) 0.6866(5) 0.1214(2)
H79 H 0.2405 0.6605 0.0962
C121 C 0.3851(2) 0.9852(5) 0.1547(2)
C122 C 0.3936(3) 0.9239(6) 0.1280(3)
H82 H 0.3792 0.8680 0.1234
C123 C 0.4230(3) 0.9453(6) 0.1082(3)
H83 H 0.4282 0.9035 0.0895
C124 C 0.3203(2) 0.9960(5) 0.22307(18)
N40 N 0.29330(17) 0.9270(4) 0.21278(16)
C125 C 0.30024(19) 0.8759(5) 0.18379(18)
N41 N 0.32924(17) 0.8911(4) 0.16445(16)
C126 C 0.3536(2) 0.9633(5) 0.17675(19)
N43 N 0.11789(16) 0.6231(4) 0.10637(15)
C127 C 0.0815(2) 0.5792(5) 0.0919(2)
H84 H 0.0815 0.5155 0.0934
C128 C 0.04366(19) 0.6227(4) 0.0749(2)
H85 H 0.0183 0.5895 0.0645
C129 C 0.04332(19) 0.7155(4) 0.07335(18)
C130 C 0.0809(2) 0.7616(5) 0.0895(2)
H86 H 0.0814 0.8252 0.0899
C131 C 0.1178(2) 0.7126(5) 0.1051(2)
H87 H 0.1438 0.7438 0.1151
H93 H 0.0126 0.9890 0.1056
C142 C 0.00500(18) 0.7669(4) 0.05298(18)
N48 N 0.00261(16) 0.8519(4) 0.06430(15)
Zn17 Zn 0.80015(3) 0.58765(6) 0.87101(2)
N53 N 0.97259(17) 0.1775(4) 0.06756(16)
H96 H 0.422096 0.623316 0.520518
C137 C 0.9958(2) 0.1194(5) 0.0935(2)
C138 C 0.9952(2) 0.0283(5) 0.0866(2)
C140 C 0.9432(2) 0.0548(5) 0.02518(19)
H94 H 0.9238 0.0342 0.0014
C141 C 0.9466(2) 0.1459(4) 0.0341(2)
H95 H 0.9297 0.1870 0.0156
I23 I 0.72938(2) 0.61250(4) 0.88499(2)
I24 I 0.82826(2) 0.43390(3) 0.85856(2)
N44 N 0.84807(16) 0.6494(4) 0.91322(15)
C132 C 0.8818(2) 0.6030(4) 0.93489(19)
H88 H 0.8837 0.5408 0.9298
C133 C 0.9137(2) 0.6429(5) 0.9644(2)
H89 H 0.9372 0.6087 0.9793
C134 C 0.91083(18) 0.7336(4) 0.97191(17)
C135 C 0.8764(2) 0.7826(4) 0.94909(19)
H90 H 0.8740 0.8452 0.9531
C136 C 0.8459(2) 0.7373(5) 0.92049(19)
H91 H 0.8222 0.7701 0.9052
I10 I 0.21147(2) 0.91548(3) 0.62446(2)
H21 H 0.0902 0.9833 0.5991
I6 I 0.85712(2) 0.91324(3) 0.34560(2)
C139 C 0.96854(19) 0.9948(4) 0.05127(19)
N46 N 0.97631(16) 0.7259(4) 0.02357(16)
C143 C 0.94371(18) 0.7774(4) 0.00437(17)
N47 N 0.93895(16) 0.8640(3) 0.01201(15)
C144 C 0.96958(18) 0.8979(4) 0.04208(17)
Zn12 Zn 0.19985(3) 0.08765(6) 0.12899(2)
I23_2 I 0.27062(2) 0.11250(4) 0.11501(2)
N44_2 N 0.15193(16) 0.1494(4) 0.08678(15)
C132_2 C 0.1182(2) 0.1030(4) 0.06511(19)
H88_2 H 0.1163 0.0408 0.0702
C133_2 C 0.0863(2) 0.1429(5) 0.0356(2)
H89_2 H 0.0628 0.1087 0.0207
C134_2 C 0.08917(18) 0.2336(4) 0.02809(17)
C135_2 C 0.1236(2) 0.2826(4) 0.05091(19)
H90_2 H 0.1260 0.3452 0.0469
C136_2 C 0.1541(2) 0.2373(5) 0.07951(19)
H91_2 H 0.1778 0.2701 0.0948
N49 N 0.19672(18) 0.1620(4) 0.17812(15)
Zn2 Zn 0.32879(3) 0.29335(6) 0.84794(3)
I3_2 I 0.29249(2) 0.40029(4) 0.88508(2)
I4_2 I 0.35923(2) 0.32307(4) 0.78969(2)
Zn4_2 Zn 0.01019(3) 0.27396(6) 0.41234(3)
Zn6_2 Zn 0.32261(2) 0.76647(6) 0.37972(3)
N2_2 N 0.28763(17) 0.1839(4) 0.83314(18)
Zn7_2 Zn 0.69238(3) 0.73771(6) 0.63204(2)
C6_2 C 0.2675(2) 0.1566(5) 0.8594(2)
H5_2 H 0.2717 0.1887 0.8836
I8_2 I 0.03584(2) 0.37720(3) 0.47263(2)
Zn8_2 Zn 0.51908(3) 0.00521(6) 0.41348(3)
C7_2 C 0.2407(2) 0.0830(5) 0.8525(2)
H6_2 H 0.2266 0.0650 0.8717
Zn9_2 Zn 0.69372(3) 0.26691(6) 0.13138(2)
C8_2 C 0.23476(18) 0.0363(4) 0.81712(18)
Zn10_2 Zn 0.82500(2) 0.05409(6) 0.88048(2)
C9_2 C 0.2559(2) 0.0646(4) 0.78967(19)
H7_2 H 0.2525 0.0337 0.7652
I11_2 I 0.30850(2) 0.82497(3) 0.44393(2)
Zn11_2 Zn 0.50978(3) 0.54434(7) 0.91612(3)
C10_2 C 0.28209(19) 0.1389(5) 0.79893(19)
H8_2 H 0.2966 0.1586 0.7803
I12_2 I 0.32516(2) 0.87322(3) 0.32500(2)
I13_2 I 0.76208(2) 0.72831(3) 0.61469(2)
I14_2 I 0.65870(2) 0.88464(3) 0.64513(2)
I17_2 I 0.65984(2) 0.41321(3) 0.14558(2)
I18_2 I 0.76256(2) 0.25298(4) 0.11224(2)
I19_2 I 0.81908(2) 0.01669(4) 0.95058(2)
I21_2 I 0.53532(2) 0.45003(4) 0.97905(2)
I22_2 I 0.43747(2) 0.52592(4) 0.86675(2)
N8_2 N 0.01656(17) 0.1402(4) 0.42754(16)
C24_2 C 0.0452(2) 0.1099(5) 0.46013(19)
H17_2 H 0.0636 0.1515 0.4770
C25_2 C 0.0487(2) 0.0198(5) 0.47000(19)
H18_2 H 0.0694 0.0004 0.4932
N13_2 N 0.05624(17) 0.2918(4) 0.38264(17)
C37_2 C 0.0696(3) 0.3761(5) 0.3799(2)
H25_2 H 0.0580 0.4232 0.3920
C38_2 C 0.0992(2) 0.3965(5) 0.3602(2)
H26_2 H 0.1083 0.4567 0.3590
C39_2 C 0.11588(19) 0.3289(5) 0.34198(18)
C40_2 C 0.1025(2) 0.2413(5) 0.3452(2)
H27_2 H 0.1134 0.1930 0.3333
C41_2 C 0.0730(2) 0.2262(5) 0.3660(2)
H28_2 H 0.0643 0.1663 0.3687
N14_2 N 0.28063(16) 0.6641(3) 0.35706(16)
C42_2 C 0.25769(19) 0.6271(5) 0.37909(19)
H29_2 H 0.2596 0.6516 0.4046
C43_2 C 0.23159(18) 0.5553(5) 0.36637(19)
H30_2 H 0.2154 0.5310 0.3827
C44_2 C 0.22914(18) 0.5184(4) 0.32915(18)
C45_2 C 0.25268(19) 0.5569(5) 0.30570(19)
H31_2 H 0.2516 0.5331 0.2802
C46_2 C 0.27758(19) 0.6301(5) 0.32038(19)
H32_2 H 0.2931 0.6578 0.3043
C47_2 C 0.1609(2) 0.1602(5) 0.1890(2)
H33_2 H 0.1381 0.1246 0.1740
C48_2 C 0.1556(2) 0.2083(5) 0.2212(2)
H34_2 H 0.1296 0.2055 0.2282
C49_2 C 0.18883(19) 0.2608(4) 0.24322(17)
C50_2 C 0.22630(19) 0.2615(4) 0.23183(18)
H35_2 H 0.2498 0.2961 0.2463
C51_2 C 0.2290(2) 0.2116(4) 0.19934(18)
H36_2 H 0.2547 0.2125 0.1918
C52_2 C 0.14817(19) 0.3503(4) 0.32108(18)
N16_2 N 0.17103(16) 0.4242(4) 0.33294(15)
C53_2 C 0.20176(18) 0.4388(4) 0.31524(17)
N17_2 N 0.20957(16) 0.3875(4) 0.28666(15)
C54_2 C 0.18321(18) 0.3170(4) 0.27595(17)
N18_2 N 0.15230(17) 0.2957(4) 0.29212(15)
N19_2 N 0.37857(16) 0.6953(4) 0.39891(17)
C55_2 C 0.4162(2) 0.7374(4) 0.4107(2)
H37_2 H 0.4173 0.8003 0.4068
C56_2 C 0.45334(19) 0.6921(5) 0.4283(2)
H38_2 H 0.4794 0.7235 0.4370
C57_2 C 0.45171(19) 0.5993(5) 0.43302(18)
C58_2 C 0.4131(2) 0.5556(5) 0.4205(2)
H39_2 H 0.4112 0.4925 0.4234
C59_2 C 0.3775(2) 0.6061(5) 0.4037(2)
H40_2 H 0.3510 0.5763 0.3952
N20_2 N 0.64712(16) 0.6690(4) 0.58902(16)
C60_2 C 0.6190(2) 0.7153(5) 0.5608(2)
H41_2 H 0.6203 0.7790 0.5612
C61_2 C 0.5880(2) 0.6737(5) 0.5312(2)
H42_2 H 0.5684 0.7081 0.5117
C62_2 C 0.58621(19) 0.5801(4) 0.53034(19)
C63_2 C 0.61569(19) 0.5319(4) 0.55875(19)
H43_2 H 0.6155 0.4682 0.5585
C64_2 C 0.6458(2) 0.5793(5) 0.58785(19)
H44_2 H 0.6660 0.5466 0.6075
N21_2 N 0.52168(17) 0.1360(4) 0.43375(18)
C65_2 C 0.4910(2) 0.1923(5) 0.4151(3)
H45_2 H 0.4685 0.1697 0.3940
C66_2 C 0.4905(2) 0.2816(5) 0.4250(3)
H46_2 H 0.4677 0.3190 0.4113
C67_2 C 0.52340(19) 0.3164(4) 0.4550(2)
C68_2 C 0.5550(2) 0.2580(5) 0.4751(2)
H47_2 H 0.5777 0.2789 0.4964
C69_2 C 0.5530(2) 0.1687(5) 0.4636(2)
C70_2 C 0.48985(18) 0.5466(4) 0.45301(19)
N22_2 N 0.52064(16) 0.5886(4) 0.48002(16)
C71_2 C 0.55254(18) 0.5349(4) 0.49929(18)
N23_2 N 0.55566(16) 0.4471(4) 0.49353(17)
C72_2 C 0.52347(18) 0.4130(5) 0.46486(18)
N24_2 N 0.49008(16) 0.4600(4) 0.44361(17)
C76_2 C 0.6088(2) 0.0587(5) 0.3459(2)
H50_2 H 0.6205 0.1102 0.3369
C77_2 C 0.5797(2) 0.0680(5) 0.3673(2)
H51_2 H 0.5719 0.1266 0.3733
N26_2 N 0.69563(17) 0.1839(4) 0.17935(16)
C78_2 C 0.7256(2) 0.1220(5) 0.1928(2)
H52_2 H 0.7478 0.1170 0.1802
C79_2 C 0.7259(2) 0.0650(5) 0.2240(2)
H53_2 H 0.7479 0.0220 0.2328
C80_2 C 0.6935(2) 0.0719(4) 0.24232(19)
C81_2 C 0.6628(3) 0.1372(7) 0.2287(3)
H54_2 H 0.6406 0.1447 0.2411
C82_2 C 0.6648(3) 0.1907(7) 0.1974(3)
H55_2 H 0.6433 0.2343 0.1881
N28_2 N 0.65877(16) 0.0236(4) 0.29114(15)
C89_2 C 0.68981(19) 0.0091(4) 0.27436(18)
N31_2 N 0.64749(17) 0.2061(4) 0.08677(16)
C91_2 C 0.6180(3) 0.2545(5) 0.0606(3)
H60_2 H 0.6181 0.3178 0.0635
C92_2 C 0.5877(3) 0.2156(5) 0.0297(3)
H61_2 H 0.5668 0.2514 0.0121
C93_2 C 0.58829(19) 0.1235(5) 0.0248(2)
C94_2 C 0.6187(2) 0.0734(5) 0.0510(2)
H62_2 H 0.6199 0.0101 0.0482
C95_2 C 0.6477(2) 0.1182(5) 0.0817(2)
H63_2 H 0.6687 0.0838 0.1000
N37_2 N 0.69132(18) 0.6582(4) 0.68035(16)
C109_2 C 0.7244(2) 0.6103(5) 0.70172(19)
H72_2 H 0.7504 0.6132 0.6948
C110_2 C 0.7221(2) 0.5573(4) 0.73322(19)
H73_2 H 0.7459 0.5232 0.7474
C111_2 C 0.6847(2) 0.5542(5) 0.74409(19)
C112_2 C 0.6503(2) 0.6046(6) 0.7226(2)
H74_2 H 0.6243 0.6042 0.7295
C113_2 C 0.6550(2) 0.6551(6) 0.6909(2)
H75_2 H 0.6316 0.6891 0.6760
N38_2 N 0.78189(17) 0.1536(4) 0.85650(17)
C114_2 C 0.7781(2) 0.1882(5) 0.82030(19)
H76_2 H 0.7944 0.1633 0.8042
C115_2 C 0.7511(2) 0.2596(5) 0.80571(19)
H77_2 H 0.7490 0.2832 0.7800
C116_2 C 0.72718(19) 0.2958(4) 0.82890(18)
C117_2 C 0.7300(2) 0.2577(5) 0.8657(2)
H78_2 H 0.7132 0.2799 0.8819
C118_2 C 0.7576(2) 0.1866(5) 0.8786(2)
H79_2 H 0.7595 0.1605 0.9038
N39_2 N 0.55502(19) 0.5221(5) 0.88602(18)
C119_2 C 0.5628(3) 0.5803(6) 0.8601(3)
H80_2 H 0.5476 0.6352 0.8559
C120_2 C 0.5923(3) 0.5644(6) 0.8387(3)
H81_2 H 0.5967 0.6071 0.8201
C121_2 C 0.6149(2) 0.4852(5) 0.8453(2)
C122_2 C 0.6064(3) 0.4239(6) 0.8720(3)
H82_2 H 0.6208 0.3680 0.8766
C123_2 C 0.5770(3) 0.4453(6) 0.8918(3)
H83_2 H 0.5718 0.4035 0.9105
C124_2 C 0.6797(2) 0.4960(5) 0.77693(18)
N40_2 N 0.70670(17) 0.4270(4) 0.78722(16)
C125_2 C 0.69976(19) 0.3759(5) 0.81621(18)
N41_2 N 0.67076(17) 0.3911(4) 0.83555(16)
C126_2 C 0.6464(2) 0.4633(5) 0.82325(19)
N42_2 N 0.64894(17) 0.5164(4) 0.79360(16)
N43_2 N 0.88211(16) 0.1231(4) 0.89363(15)
C127_2 C 0.9185(2) 0.0792(5) 0.9081(2)
H84_2 H 0.9185 0.0155 0.9066
C128_2 C 0.95634(19) 0.1227(4) 0.9251(2)
H85_2 H 0.9817 0.0895 0.9355
C129_2 C 0.95668(19) 0.2155(4) 0.92665(18)
C130_2 C 0.9191(2) 0.2616(5) 0.9105(2)
H86_2 H 0.9186 0.3252 0.9101
C131_2 C 0.8822(2) 0.2126(5) 0.8949(2)
H87_2 H 0.8562 0.2438 0.8849
H92_2 H 0.9864 0.6417 0.8821
H93_2 H 0.9874 0.4890 0.8944
C142_2 C 0.99500(18) 0.2669(4) 0.94702(18)
N48_2 N 0.99739(16) 0.3519(4) 0.93570(15)
N51_2 N 0.5182(2) 0.6795(4) 0.9306(2)
N52 N 0.38056(18) 0.2326(4) 0.88694(18)
H96_2 H 0.577904 0.123316 0.479482
C101_2 C 0.3825(3) 0.1434(5) 0.8865(3)
H68_2 H 0.3579 0.1106 0.8731
C102_2 C 0.4192(3) 0.0969(6) 0.9049(3)
H69_2 H 0.4196 0.0332 0.9040
C103_2 C 0.4548(2) 0.1431(5) 0.9245(2)
C104_2 C 0.4523(2) 0.2358(5) 0.9259(2)
H70_2 H 0.4762 0.2702 0.9397
C105_2 C 0.4143(2) 0.2774(5) 0.9068(2)
H71_2 H 0.4126 0.3409 0.9082
C106_2 C 0.55531(19) 0.0810(5) 0.9920(2)
N35_2 N 0.49511(18) 0.0076(4) 0.93339(18)
C108_2 C 0.4936(2) 0.0923(5) 0.9444(2)
N36_2 N 0.52293(17) 0.1334(4) 0.97356(17)
C96_2 C 0.5501(3) 0.7120(7) 0.9589(4)
H64_2 H 0.5705 0.6712 0.9739
C97_2 C 0.5555(3) 0.8024(6) 0.9677(3)
H65_2 H 0.5792 0.8228 0.9881
C98_2 C 0.5262(2) 0.8616(5) 0.9468(2)
C99_2 C 0.4925(4) 0.8285(6) 0.9188(4)
H66_2 H 0.4710 0.8678 0.9044
C100_2 C 0.4895(4) 0.7376(7) 0.9114(4)
H67_2 H 0.4657 0.7158 0.8915
N34_2 N 0.55948(17) 0.9932(4) 0.98480(18)
C107_2 C 0.5276(2) 0.9606(5) 0.9551(2)
N45 N 0.02741(17) 0.6775(4) 0.93244(16)
C137_2 C 0.0042(2) 0.6194(5) 0.9065(2)
C138_2 C 0.0048(2) 0.5283(5) 0.9134(2)
C139_2 C 0.03146(19) 0.4948(4) 0.94873(19)
C140_2 C 0.0568(2) 0.5548(5) 0.97482(19)
H94_2 H 0.0762 0.5342 0.9986
C141_2 C 0.0534(2) 0.6459(4) 0.9659(2)
H95_2 H 0.0703 0.6870 0.9844
N46_2 N 0.02369(16) 0.2259(4) 0.97643(16)
C143_2 C 0.05629(18) 0.2774(4) 0.99563(17)
N47_2 N 0.06105(16) 0.3640(3) 0.98799(15)
C144_2 C 0.03042(18) 0.3979(4) 0.95792(17)
Zn13 Zn 0.01919(3) 0.81435(6) 0.91905(3)
N1_2 N 0.06161(17) 0.8363(4) 0.88606(16)
I1_2 I 0.04455(2) 0.90680(3) 0.98260(2)
C1_2 C 0.0748(2) 0.9201(5) 0.8813(2)
H1_2 H 0.0638 0.9686 0.8930
C2_2 C 0.1038(2) 0.9381(5) 0.8601(2)
H2_2 H 0.1126 0.9979 0.8575
Zn3_2 Zn 0.18051(2) 0.55258(6) 0.63778(2)
C3_2 C 0.11981(19) 0.8673(4) 0.84262(18)
C4_2 C 0.1057(2) 0.7805(5) 0.8473(2)
H3_2 H 0.1158 0.7305 0.8357
I5_2 I 0.24727(2) 0.54586(4) 0.61532(2)
C5_2 C 0.0768(2) 0.7693(5) 0.8693(2)
H4_2 H 0.0673 0.7103 0.8725
I6_2 I 0.14288(2) 0.41324(3) 0.65440(2)
N3_2 N 0.18661(17) 0.6401(4) 0.68528(15)
C11_2 C 0.1591(2) 0.6332(5) 0.7070(2)
H9_2 H 0.1388 0.5863 0.7010
C12_2 C 0.1587(2) 0.6908(6) 0.7376(2)
H10_2 H 0.1393 0.6823 0.7531
I15_2 I 0.54768(2) 0.89826(3) 0.47197(2)
C13_2 C 0.18737(18) 0.7619(4) 0.74535(17)
I16_2 I 0.44648(2) 0.97646(3) 0.36526(2)
C14_2 C 0.2162(2) 0.7694(5) 0.72307(19)
H11_2 H 0.2365 0.8164 0.7281
C15_2 C 0.2150(2) 0.7067(4) 0.69314(18)
H12_2 H 0.2349 0.7115 0.6779
C16_2 C 0.15204(19) 0.8799(4) 0.82056(18)
N4_2 N 0.17633(16) 0.9535(4) 0.82831(15)
I20_2 I 0.82228(2) 0.93566(4) 0.82920(2)
C17_2 C 0.20695(19) 0.9561(4) 0.80977(17)
N5_2 N 0.21388(15) 0.8947(4) 0.78418(14)
C18_2 C 0.18525(18) 0.8272(4) 0.77669(17)
N6_2 N 0.15447(16) 0.8165(4) 0.79430(15)
N7_2 N 0.13700(16) 0.6172(4) 0.59189(15)
C19_2 C 0.1072(2) 0.5693(4) 0.5660(2)
H13_2 H 0.1057 0.5065 0.5700
C20_2 C 0.0786(2) 0.6085(5) 0.5339(2)
H14_2 H 0.0576 0.5732 0.5162
C21_2 C 0.08098(18) 0.6993(4) 0.52785(17)
C22_2 C 0.1118(2) 0.7494(4) 0.5537(2)
H15_2 H 0.1143 0.8120 0.5499
C23_2 C 0.1392(2) 0.7049(5) 0.58577(19)
H16_2 H 0.1604 0.7387 0.6040
C26_2 C 0.02186(18) 0.9576(4) 0.44586(18)
C34_2 C 0.04862(18) 0.7426(4) 0.49451(17)
N10_2 N 0.05372(15) 0.8285(4) 0.48545(15)
C35_2 C 0.02212(19) 0.8616(4) 0.45618(17)
N12_2 N 0.01564(17) 0.6907(4) 0.47673(15)
N25_2 N 0.56185(15) 0.9973(4) 0.38013(16)
C73_2 C 0.57245(19) 0.9146(5) 0.3711(2)
H48_2 H 0.5594 0.8642 0.3795
C74_2 C 0.6019(2) 0.9010(4) 0.34988(19)
H49_2 H 0.6089 0.8418 0.3439
C75_2 C 0.62099(18) 0.9738(4) 0.33737(18)
N27 N 0.78410(15) 0.6423(4) 0.32985(15)
C83_2 C 0.78530(19) 0.6974(5) 0.29958(18)
H56_2 H 0.8034 0.6828 0.2833
C84_2 C 0.7609(2) 0.7751(5) 0.29134(18)
H57_2 H 0.7624 0.8128 0.2698
C85_2 C 0.73426(18) 0.7972(4) 0.31482(17)
C86_2 C 0.7333(2) 0.7397(5) 0.3462(2)
H58_2 H 0.7156 0.7527 0.3629
C87_2 C 0.7584(2) 0.6634(5) 0.3525(2)
H59_2 H 0.7574 0.6246 0.3738
C88_2 C 0.65392(18) 0.9606(4) 0.31619(17)
N29_2 N 0.71689(16) 0.9396(4) 0.28217(15)
C90_2 C 0.70796(18) 0.8794(4) 0.30685(17)
N30_2 N 0.67617(16) 0.8839(4) 0.32402(15)
Zn15 Zn 0.82529(2) 0.53392(6) 0.34458(2)
I2_2 I 0.94437(2) 0.82989(3) 0.87375(2)
I9_2 I 0.86107(2) 0.51101(3) 0.28913(2)
I10_2 I 0.78853(2) 0.41548(3) 0.37554(2)
C27_2 C 0.9928(2) 0.9903(5) 0.41152(19)
H19_2 H 0.9742 0.9503 0.3938
N9_2 N 0.87392(16) 0.5929(4) 0.38762(15)
C29_2 C 0.9099(2) 0.5466(4) 0.40408(19)
H21_2 H 0.9098 0.4833 0.4009
C30_2 C 0.94690(19) 0.5880(4) 0.42533(18)
H22_2 H 0.9714 0.5537 0.4374
C31_2 C 0.94738(19) 0.6804(4) 0.42858(17)
C32_2 C 0.9102(2) 0.7279(5) 0.41287(19)
H23_2 H 0.9094 0.7912 0.4159
C33_2 C 0.8745(2) 0.6814(5) 0.39282(19)
H24_2 H 0.8490 0.7140 0.3822
N11_2 N 0.98805(16) 0.8156(4) 0.43604(15)
C36_2 C 0.98654(18) 0.7309(4) 0.44817(17)
I24_2 I 0.17174(2) 0.93390(3) 0.14144(2)
I7_2 I 0.94009(2) 0.30375(4) 0.36094(2)
C28_2 C 0.9913(2) 0.0807(5) 0.4037(2)
H20_2 H 0.9715 0.1020 0.3803
loop_
_geom_bond_atom_site_label_1
_geom_bond_atom_site_label_2
_geom_bond_site_symmetry_1
_geom_bond_site_symmetry_2
Zn5 I9 1_555 1_555
H19 C27 1_555 1_555
H20 C28 1_555 1_555
N9 Zn5 1_555 1_555
C29 N9 1_555 1_555
C30 C29 1_555 1_555
H22 C30 1_555 1_555
C31 C30 1_555 1_555
C32 C31 1_555 1_555
H23 C32 1_555 1_555
C33 N9 1_555 1_555
H24 C33 1_555 1_555
C36 C31 1_555 1_555
N50 Zn5 1_555 1_555
C27 C28 1_555 1_555
C32 C33 1_555 1_555
N11 C36 1_555 1_555
Zn6 I11 1_555 1_555
Zn7 I13 1_555 1_555
I12 Zn6 1_555 1_555
I14 Zn7 1_555 1_555
I22 Zn11 1_555 1_555
N14 Zn6 1_555 1_555
C42 N14 1_555 1_555
H29 C42 1_555 1_555
C43 C42 1_555 1_555
H30 C43 1_555 1_555
C44 C43 1_555 1_555
C45 C44 1_555 1_555
H31 C45 1_555 1_555
C46 N14 1_555 1_555
H32 C46 1_555 1_555
N19 Zn6 1_555 1_555
C55 N19 1_555 1_555
H37 C55 1_555 1_555
C56 C55 1_555 1_555
H38 C56 1_555 1_555
C57 C56 1_555 1_555
C58 C57 1_555 1_555
C59 N19 1_555 1_555
H40 C59 1_555 1_555
N20 Zn7 1_555 1_555
C60 N20 1_555 1_555
H41 C60 1_555 1_555
C61 C60 1_555 1_555
H42 C61 1_555 1_555
C62 C61 1_555 1_555
C63 C62 1_555 1_555
C64 N20 1_555 1_555
H44 C64 1_555 1_555
C70 C57 1_555 1_555
N22 C70 1_555 1_555
C71 C62 1_555 1_555
N37 Zn7 1_555 1_555
C109 N37 1_555 1_555
H72 C109 1_555 1_555
C110 C109 1_555 1_555
H73 C110 1_555 1_555
C111 C110 1_555 1_555
C112 C111 1_555 1_555
H74 C112 1_555 1_555
C113 N37 1_555 1_555
H75 C113 1_555 1_555
N39 Zn11 1_555 1_555
C119 N39 1_555 1_555
H80 C119 1_555 1_555
C120 C119 1_555 1_555
H81 C120 1_555 1_555
N51 Zn11 1_555 1_555
C45 C46 1_555 1_555
C58 C59 1_555 1_555
C63 C64 1_555 1_555
N22 C71 1_555 1_555
C112 C113 1_555 1_555
N51 C96 1_555 1_555
C96 H64 1_555 1_555
C97 C96 1_555 1_555
H65 C97 1_555 1_555
C98 C97 1_555 1_555
C99 C98 1_555 1_555
H66 C99 1_555 1_555
C100 N51 1_555 1_555
H67 C100 1_555 1_555
N33 C101 1_555 1_555
C101 H68 1_555 1_555
C102 C101 1_555 1_555
H69 C102 1_555 1_555
C103 C102 1_555 1_555
C104 C103 1_555 1_555
H70 C104 1_555 1_555
C105 N33 1_555 1_555
H71 C105 1_555 1_555
N34 C106 1_555 1_555
C107 C98 1_555 1_555
N35 C107 1_555 1_555
C108 C103 1_555 1_555
N36 C106 1_555 1_555
Zn14 N33 1_555 1_555
C99 C100 1_555 1_555
C104 C105 1_555 1_555
N34 C107 1_555 1_555
N35 C108 1_555 1_555
C108 N36 1_555 1_555
N1 Zn1 1_555 1_555
I1 Zn1 1_555 1_555
C1 N1 1_555 1_555
H1 C1 1_555 1_555
Zn14 I3 1_555 1_555
C2 C1 1_555 1_555
H2 C2 1_555 1_555
Zn3 I5 1_555 1_555
C3 C2 1_555 1_555
I4 Zn14 1_555 1_555
C4 C3 1_555 1_555
H3 C4 1_555 1_555
C5 N1 1_555 1_555
H4 C5 1_555 1_555
N2 Zn14 1_555 1_555
C6 N2 1_555 1_555
H5 C6 1_555 1_555
I8 Zn4 1_555 1_555
Zn8 I15 1_555 1_555
C7 C6 1_555 1_555
H6 C7 1_555 1_555
Zn9 I17 1_555 1_555
C8 C7 1_555 1_555
Zn10 I19 1_555 1_555
C9 C8 1_555 1_555
H7 C9 1_555 1_555
C10 N2 1_555 1_555
H8 C10 1_555 1_555
N3 Zn3 1_555 1_555
C11 N3 1_555 1_555
H9 C11 1_555 1_555
C12 C11 1_555 1_555
H10 C12 1_555 1_555
C13 C12 1_555 1_555
I16 Zn8 1_555 1_555
C14 C13 1_555 1_555
H11 C14 1_555 1_555
C15 N3 1_555 1_555
H12 C15 1_555 1_555
I18 Zn9 1_555 1_555
C16 C3 1_555 1_555
N4 C16 1_555 1_555
I20 Zn10 1_555 1_555
C17 C8 1_555 1_555
N5 C17 1_555 1_555
C18 C13 1_555 1_555
N6 C16 1_555 1_555
N7 Zn3 1_555 1_555
C19 N7 1_555 1_555
H13 C19 1_555 1_555
C20 C19 1_555 1_555
H14 C20 1_555 1_555
C21 C20 1_555 1_555
C22 C21 1_555 1_555
H15 C22 1_555 1_555
C23 N7 1_555 1_555
H16 C23 1_555 1_555
N8 Zn4 1_555 1_555
C24 N8 1_555 1_555
H17 C24 1_555 1_555
C25 C24 1_555 1_555
H18 C25 1_555 1_555
C26 C25 1_555 1_555
C34 C21 1_555 1_555
N10 C34 1_555 1_555
C35 C26 1_555 1_555
N12 C34 1_555 1_555
N13 Zn4 1_555 1_555
C37 N13 1_555 1_555
H25 C37 1_555 1_555
C38 C37 1_555 1_555
H26 C38 1_555 1_555
C39 C38 1_555 1_555
C40 C39 1_555 1_555
H27 C40 1_555 1_555
C41 N13 1_555 1_555
H28 C41 1_555 1_555
N15 C47 1_555 1_555
C47 H33 1_555 1_555
C48 C47 1_555 1_555
H34 C48 1_555 1_555
C49 C48 1_555 1_555
C50 C49 1_555 1_555
H35 C50 1_555 1_555
C51 N15 1_555 1_555
H36 C51 1_555 1_555
C52 C39 1_555 1_555
N16 C52 1_555 1_555
N17 C53 1_555 1_555
C54 C49 1_555 1_555
N18 C52 1_555 1_555
N21 Zn8 1_555 1_555
C65 N21 1_555 1_555
H45 C65 1_555 1_555
C66 C65 1_555 1_555
H46 C66 1_555 1_555
C67 C66 1_555 1_555
C68 C67 1_555 1_555
H47 C68 1_555 1_555
C69 N21 1_555 1_555
C72 C67 1_555 1_555
N25 Zn8 1_555 1_555
C73 N25 1_555 1_555
H48 C73 1_555 1_555
C74 C73 1_555 1_555
H49 C74 1_555 1_555
C75 C74 1_555 1_555
C76 C75 1_555 1_555
H50 C76 1_555 1_555
C77 N25 1_555 1_555
H51 C77 1_555 1_555
N26 Zn9 1_555 1_555
C78 N26 1_555 1_555
H52 C78 1_555 1_555
C79 C78 1_555 1_555
H53 C79 1_555 1_555
C80 C79 1_555 1_555
C81 C80 1_555 1_555
H54 C81 1_555 1_555
C82 N26 1_555 1_555
H55 C82 1_555 1_555
N50 C83 1_555 1_555
C83 H56 1_555 1_555
C84 C83 1_555 1_555
H57 C84 1_555 1_555
C85 C84 1_555 1_555
C86 C85 1_555 1_555
H58 C86 1_555 1_555
C87 N50 1_555 1_555
H59 C87 1_555 1_555
C88 C75 1_555 1_555
N28 C88 1_555 1_555
C89 C80 1_555 1_555
N29 C89 1_555 1_555
C90 C85 1_555 1_555
N30 C88 1_555 1_555
N31 Zn9 1_555 1_555
C91 N31 1_555 1_555
H60 C91 1_555 1_555
C92 C91 1_555 1_555
H61 C92 1_555 1_555
C93 C92 1_555 1_555
C94 C93 1_555 1_555
H62 C94 1_555 1_555
C95 N31 1_555 1_555
H63 C95 1_555 1_555
N38 Zn10 1_555 1_555
C114 N38 1_555 1_555
H76 C114 1_555 1_555
C115 C114 1_555 1_555
H77 C115 1_555 1_555
C116 C115 1_555 1_555
C117 C116 1_555 1_555
H78 C117 1_555 1_555
C118 N38 1_555 1_555
H79 C118 1_555 1_555
C122 C121 1_555 1_555
H82 C122 1_555 1_555
H83 C123 1_555 1_555
N40 C124 1_555 1_555
C125 C116 1_555 1_555
N41 C125 1_555 1_555
C126 C121 1_555 1_555
N43 Zn10 1_555 1_555
C127 N43 1_555 1_555
H84 C127 1_555 1_555
C128 C127 1_555 1_555
H85 C128 1_555 1_555
C129 C128 1_555 1_555
C130 C129 1_555 1_555
H86 C130 1_555 1_555
C131 N43 1_555 1_555
H87 C131 1_555 1_555
C142 C129 1_555 1_555
N48 C142 1_555 1_555
Zn17 N15 1_555 1_555
N53 Zn1 1_555 1_555
C4 C5 1_555 1_555
C9 C10 1_555 1_555
C14 C15 1_555 1_555
N4 C17 1_555 1_555
N5 C18 1_555 1_555
C18 N6 1_555 1_555
C22 C23 1_555 1_555
N10 C35 1_555 1_555
C40 C41 1_555 1_555
C50 C51 1_555 1_555
N16 C53 1_555 1_555
N17 C54 1_555 1_555
C54 N18 1_555 1_555
C68 C69 1_555 1_555
N23 C72 1_555 1_555
C72 N24 1_555 1_555
C76 C77 1_555 1_555
C81 C82 1_555 1_555
C86 C87 1_555 1_555
N28 C89 1_555 1_555
N29 C90 1_555 1_555
C90 N30 1_555 1_555
C94 C95 1_555 1_555
C117 C118 1_555 1_555
C122 C123 1_555 1_555
N40 C125 1_555 1_555
N41 C126 1_555 1_555
C130 C131 1_555 1_555
C69 H96 1_555 1_555
N53 C137 1_555 1_555
C138 C137 1_555 1_555
H94 C140 1_555 1_555
C141 N53 1_555 1_555
H95 C141 1_555 1_555
C140 C141 1_555 1_555
Zn17 I23 1_555 1_555
I24 Zn17 1_555 1_555
N44 Zn17 1_555 1_555
C132 N44 1_555 1_555
H88 C132 1_555 1_555
C133 C132 1_555 1_555
H89 C133 1_555 1_555
C134 C133 1_555 1_555
C135 C134 1_555 1_555
H90 C135 1_555 1_555
C136 N44 1_555 1_555
H91 C136 1_555 1_555
C135 C136 1_555 1_555
N47 C143 1_555 1_555
C144 C139 1_555 1_555
N46 C143 1_555 1_555
N47 C144 1_555 1_555
Zn12 I23_2 1_555 1_555
N44_2 Zn12 1_555 1_555
C132_2 N44_2 1_555 1_555
H88_2 C132_2 1_555 1_555
C133_2 C132_2 1_555 1_555
H89_2 C133_2 1_555 1_555
C134_2 C133_2 1_555 1_555
C135_2 C134_2 1_555 1_555
H90_2 C135_2 1_555 1_555
C136_2 N44_2 1_555 1_555
H91_2 C136_2 1_555 1_555
N49 Zn12 1_555 1_555
C135_2 C136_2 1_555 1_555
Zn2 I3_2 1_555 1_555
I4_2 Zn2 1_555 1_555
Zn6_2 I11_2 1_555 1_555
N2_2 Zn2 1_555 1_555
Zn7_2 I13_2 1_555 1_555
C6_2 N2_2 1_555 1_555
H5_2 C6_2 1_555 1_555
I8_2 Zn4_2 1_555 1_555
C7_2 C6_2 1_555 1_555
H6_2 C7_2 1_555 1_555
Zn9_2 I17_2 1_555 1_555
C8_2 C7_2 1_555 1_555
Zn10_2 I19_2 1_555 1_555
C9_2 C8_2 1_555 1_555
H7_2 C9_2 1_555 1_555
Zn11_2 I21_2 1_555 1_555
C10_2 N2_2 1_555 1_555
H8_2 C10_2 1_555 1_555
I12_2 Zn6_2 1_555 1_555
I14_2 Zn7_2 1_555 1_555
I18_2 Zn9_2 1_555 1_555
I22_2 Zn11_2 1_555 1_555
N8_2 Zn4_2 1_555 1_555
C24_2 N8_2 1_555 1_555
H17_2 C24_2 1_555 1_555
C25_2 C24_2 1_555 1_555
H18_2 C25_2 1_555 1_555
N13_2 Zn4_2 1_555 1_555
C37_2 N13_2 1_555 1_555
H25_2 C37_2 1_555 1_555
C38_2 C37_2 1_555 1_555
H26_2 C38_2 1_555 1_555
C39_2 C38_2 1_555 1_555
C40_2 C39_2 1_555 1_555
H27_2 C40_2 1_555 1_555
C41_2 N13_2 1_555 1_555
H28_2 C41_2 1_555 1_555
N14_2 Zn6_2 1_555 1_555
C42_2 N14_2 1_555 1_555
H29_2 C42_2 1_555 1_555
C43_2 C42_2 1_555 1_555
H30_2 C43_2 1_555 1_555
C44_2 C43_2 1_555 1_555
C45_2 C44_2 1_555 1_555
H31_2 C45_2 1_555 1_555
C46_2 N14_2 1_555 1_555
H32_2 C46_2 1_555 1_555
N49 C47_2 1_555 1_555
C47_2 H33_2 1_555 1_555
C48_2 C47_2 1_555 1_555
H34_2 C48_2 1_555 1_555
C49_2 C48_2 1_555 1_555
C50_2 C49_2 1_555 1_555
H35_2 C50_2 1_555 1_555
C51_2 N49 1_555 1_555
H36_2 C51_2 1_555 1_555
C52_2 C39_2 1_555 1_555
N16_2 C52_2 1_555 1_555
C53_2 C44_2 1_555 1_555
N17_2 C53_2 1_555 1_555
C54_2 C49_2 1_555 1_555
N18_2 C52_2 1_555 1_555
N19_2 Zn6_2 1_555 1_555
C55_2 N19_2 1_555 1_555
H37_2 C55_2 1_555 1_555
C56_2 C55_2 1_555 1_555
H38_2 C56_2 1_555 1_555
C57_2 C56_2 1_555 1_555
C58_2 C57_2 1_555 1_555
H39_2 C58_2 1_555 1_555
C59_2 N19_2 1_555 1_555
H40_2 C59_2 1_555 1_555
N20_2 Zn7_2 1_555 1_555
C60_2 N20_2 1_555 1_555
H41_2 C60_2 1_555 1_555
C61_2 C60_2 1_555 1_555
H42_2 C61_2 1_555 1_555
C62_2 C61_2 1_555 1_555
C63_2 C62_2 1_555 1_555
H43_2 C63_2 1_555 1_555
C64_2 N20_2 1_555 1_555
H44_2 C64_2 1_555 1_555
N21_2 Zn8_2 1_555 1_555
C65_2 N21_2 1_555 1_555
H45_2 C65_2 1_555 1_555
C66_2 C65_2 1_555 1_555
H46_2 C66_2 1_555 1_555
C67_2 C66_2 1_555 1_555
C68_2 C67_2 1_555 1_555
H47_2 C68_2 1_555 1_555
C69_2 N21_2 1_555 1_555
C70_2 C57_2 1_555 1_555
N22_2 C70_2 1_555 1_555
C71_2 C62_2 1_555 1_555
N23_2 C71_2 1_555 1_555
C72_2 C67_2 1_555 1_555
N24_2 C70_2 1_555 1_555
H50_2 C76_2 1_555 1_555
H51_2 C77_2 1_555 1_555
N26_2 Zn9_2 1_555 1_555
C78_2 N26_2 1_555 1_555
H52_2 C78_2 1_555 1_555
C79_2 C78_2 1_555 1_555
H53_2 C79_2 1_555 1_555
C80_2 C79_2 1_555 1_555
C81_2 C80_2 1_555 1_555
H54_2 C81_2 1_555 1_555
C82_2 N26_2 1_555 1_555
H55_2 C82_2 1_555 1_555
C89_2 C80_2 1_555 1_555
N31_2 Zn9_2 1_555 1_555
C91_2 N31_2 1_555 1_555
H60_2 C91_2 1_555 1_555
C92_2 C91_2 1_555 1_555
H61_2 C92_2 1_555 1_555
C93_2 C92_2 1_555 1_555
C94_2 C93_2 1_555 1_555
H62_2 C94_2 1_555 1_555
C95_2 N31_2 1_555 1_555
H63_2 C95_2 1_555 1_555
N37_2 Zn7_2 1_555 1_555
C109_2 N37_2 1_555 1_555
H72_2 C109_2 1_555 1_555
C110_2 C109_2 1_555 1_555
H73_2 C110_2 1_555 1_555
C111_2 C110_2 1_555 1_555
C112_2 C111_2 1_555 1_555
H74_2 C112_2 1_555 1_555
C113_2 N37_2 1_555 1_555
H75_2 C113_2 1_555 1_555
N38_2 Zn10_2 1_555 1_555
C114_2 N38_2 1_555 1_555
H76_2 C114_2 1_555 1_555
C115_2 C114_2 1_555 1_555
H77_2 C115_2 1_555 1_555
C116_2 C115_2 1_555 1_555
C117_2 C116_2 1_555 1_555
H78_2 C117_2 1_555 1_555
C118_2 N38_2 1_555 1_555
H79_2 C118_2 1_555 1_555
N39_2 Zn11_2 1_555 1_555
C119_2 N39_2 1_555 1_555
H80_2 C119_2 1_555 1_555
C120_2 C119_2 1_555 1_555
H81_2 C120_2 1_555 1_555
C121_2 C120_2 1_555 1_555
C122_2 C121_2 1_555 1_555
H82_2 C122_2 1_555 1_555
C123_2 N39_2 1_555 1_555
H83_2 C123_2 1_555 1_555
C124_2 C111_2 1_555 1_555
N40_2 C124_2 1_555 1_555
C125_2 C116_2 1_555 1_555
N41_2 C125_2 1_555 1_555
C126_2 C121_2 1_555 1_555
N42_2 C124_2 1_555 1_555
N43_2 Zn10_2 1_555 1_555
C127_2 N43_2 1_555 1_555
H84_2 C127_2 1_555 1_555
C128_2 C127_2 1_555 1_555
H85_2 C128_2 1_555 1_555
C129_2 C128_2 1_555 1_555
C130_2 C129_2 1_555 1_555
H86_2 C130_2 1_555 1_555
C131_2 N43_2 1_555 1_555
H87_2 C131_2 1_555 1_555
C142_2 C129_2 1_555 1_555
N48_2 C142_2 1_555 1_555
N51_2 Zn11_2 1_555 1_555
N52 Zn2 1_555 1_555
C9_2 C10_2 1_555 1_555
C40_2 C41_2 1_555 1_555
C45_2 C46_2 1_555 1_555
C50_2 C51_2 1_555 1_555
N16_2 C53_2 1_555 1_555
N17_2 C54_2 1_555 1_555
C54_2 N18_2 1_555 1_555
C58_2 C59_2 1_555 1_555
C63_2 C64_2 1_555 1_555
C68_2 C69_2 1_555 1_555
N22_2 C71_2 1_555 1_555
N23_2 C72_2 1_555 1_555
C72_2 N24_2 1_555 1_555
C76_2 C77_2 1_555 1_555
C81_2 C82_2 1_555 1_555
N28_2 C89_2 1_555 1_555
C94_2 C95_2 1_555 1_555
C112_2 C113_2 1_555 1_555
C117_2 C118_2 1_555 1_555
C122_2 C123_2 1_555 1_555
N40_2 C125_2 1_555 1_555
N41_2 C126_2 1_555 1_555
C126_2 N42_2 1_555 1_555
C130_2 C131_2 1_555 1_555
C69_2 H96_2 1_555 1_555
N52 C101_2 1_555 1_555
C101_2 H68_2 1_555 1_555
C102_2 C101_2 1_555 1_555
H69_2 C102_2 1_555 1_555
C103_2 C102_2 1_555 1_555
C104_2 C103_2 1_555 1_555
H70_2 C104_2 1_555 1_555
C105_2 N52 1_555 1_555
H71_2 C105_2 1_555 1_555
C108_2 C103_2 1_555 1_555
N36_2 C106_2 1_555 1_555
C104_2 C105_2 1_555 1_555
N35_2 C108_2 1_555 1_555
C108_2 N36_2 1_555 1_555
N51_2 C96_2 1_555 1_555
C96_2 H64_2 1_555 1_555
C97_2 C96_2 1_555 1_555
H65_2 C97_2 1_555 1_555
C98_2 C97_2 1_555 1_555
C99_2 C98_2 1_555 1_555
H66_2 C99_2 1_555 1_555
C100_2 N51_2 1_555 1_555
H67_2 C100_2 1_555 1_555
C107_2 C98_2 1_555 1_555
C99_2 C100_2 1_555 1_555
N34_2 C107_2 1_555 1_555
N45 C137_2 1_555 1_555
C138_2 C137_2 1_555 1_555
C139_2 C138_2 1_555 1_555
C140_2 C139_2 1_555 1_555
H94_2 C140_2 1_555 1_555
C141_2 N45 1_555 1_555
H95_2 C141_2 1_555 1_555
N47_2 C143_2 1_555 1_555
C144_2 C139_2 1_555 1_555
Zn13 N45 1_555 1_555
C140_2 C141_2 1_555 1_555
N46_2 C143_2 1_555 1_555
N47_2 C144_2 1_555 1_555
N1_2 Zn13 1_555 1_555
I1_2 Zn13 1_555 1_555
C1_2 N1_2 1_555 1_555
H1_2 C1_2 1_555 1_555
C2_2 C1_2 1_555 1_555
H2_2 C2_2 1_555 1_555
Zn3_2 I5_2 1_555 1_555
C3_2 C2_2 1_555 1_555
C4_2 C3_2 1_555 1_555
H3_2 C4_2 1_555 1_555
C5_2 N1_2 1_555 1_555
H4_2 C5_2 1_555 1_555
I6_2 Zn3_2 1_555 1_555
N3_2 Zn3_2 1_555 1_555
C11_2 N3_2 1_555 1_555
H9_2 C11_2 1_555 1_555
C12_2 C11_2 1_555 1_555
H10_2 C12_2 1_555 1_555
C13_2 C12_2 1_555 1_555
C14_2 C13_2 1_555 1_555
H11_2 C14_2 1_555 1_555
C15_2 N3_2 1_555 1_555
H12_2 C15_2 1_555 1_555
C16_2 C3_2 1_555 1_555
N4_2 C16_2 1_555 1_555
N5_2 C17_2 1_555 1_555
C18_2 C13_2 1_555 1_555
N6_2 C16_2 1_555 1_555
N7_2 Zn3_2 1_555 1_555
C19_2 N7_2 1_555 1_555
H13_2 C19_2 1_555 1_555
C20_2 C19_2 1_555 1_555
H14_2 C20_2 1_555 1_555
C21_2 C20_2 1_555 1_555
C22_2 C21_2 1_555 1_555
H15_2 C22_2 1_555 1_555
C23_2 N7_2 1_555 1_555
H16_2 C23_2 1_555 1_555
C34_2 C21_2 1_555 1_555
N10_2 C34_2 1_555 1_555
C35_2 C26_2 1_555 1_555
N12_2 C34_2 1_555 1_555
C73_2 N25_2 1_555 1_555
H48_2 C73_2 1_555 1_555
C74_2 C73_2 1_555 1_555
H49_2 C74_2 1_555 1_555
C75_2 C74_2 1_555 1_555
N27 C83_2 1_555 1_555
C83_2 H56_2 1_555 1_555
C84_2 C83_2 1_555 1_555
H57_2 C84_2 1_555 1_555
C85_2 C84_2 1_555 1_555
C86_2 C85_2 1_555 1_555
H58_2 C86_2 1_555 1_555
C87_2 N27 1_555 1_555
H59_2 C87_2 1_555 1_555
C88_2 C75_2 1_555 1_555
C90_2 C85_2 1_555 1_555
N30_2 C88_2 1_555 1_555
Zn15 N27 1_555 1_555
C4_2 C5_2 1_555 1_555
C14_2 C15_2 1_555 1_555
N4_2 C17_2 1_555 1_555
N5_2 C18_2 1_555 1_555
C18_2 N6_2 1_555 1_555
C22_2 C23_2 1_555 1_555
N10_2 C35_2 1_555 1_555
C86_2 C87_2 1_555 1_555
N29_2 C90_2 1_555 1_555
C90_2 N30_2 1_555 1_555
Zn15 I9_2 1_555 1_555
I10_2 Zn15 1_555 1_555
H19_2 C27_2 1_555 1_555
N9_2 Zn15 1_555 1_555
C29_2 N9_2 1_555 1_555
H21_2 C29_2 1_555 1_555
C30_2 C29_2 1_555 1_555
H22_2 C30_2 1_555 1_555
C31_2 C30_2 1_555 1_555
C32_2 C31_2 1_555 1_555
H23_2 C32_2 1_555 1_555
C33_2 N9_2 1_555 1_555
H24_2 C33_2 1_555 1_555
C36_2 C31_2 1_555 1_555
C32_2 C33_2 1_555 1_555
N11_2 C36_2 1_555 1_555
H20_2 C28_2 1_555 1_555

#END
