
###############################################################################
#
# This file contains modified crystal structure data generated from the
# MOF subset of the Cambridge Structural Database (CSD) v543 
# hosted by the Cambridge Crystallographic Data Centre (CCDC).
#
# This work is licensed under the Creative Commons
# Attribution-NonCommercial-ShareAlike 4.0 International License.
# To view a copy of this license, visit
# http://creativecommons.org/licenses/by-nc-sa/4.0/
# or send a letter to
# Creative Commons, PO Box 1866, Mountain View, CA 94042, USA.
#
# CIF created using the CSD Python API on 29 September 2022
# The structure has been converted into the P1 space group
# The structure has a 3D framework
# The original CSD entry LABPOV is in the monoclinic crystal system
# The framework has been calculated to contain at least 10.0% void space
# The void calculation uses a probe of radius 1.32A, grid spacing 0.4
# The framework is charged, counterions have been retained in the structure
#
###############################################################################

data_LABPOV
_chemical_formula_moiety         '(C108 H136 N12 Nd8 O66 P12)n'
_symmetry_cell_setting           triclinic
_symmetry_space_group_name_H-M   'P 1'
_symmetry_Int_Tables_number      1
_space_group_name_Hall           'P 1'
loop_
_symmetry_equiv_pos_site_id
_symmetry_equiv_pos_as_xyz
1 x,y,z
_cell_length_a                   20.891(6)
_cell_length_b                   7.1310(18)
_cell_length_c                   27.845(8)
_cell_angle_alpha                90
_cell_angle_beta                 107.853(4)
_cell_angle_gamma                90
_cell_volume                     3948.42
loop_
_atom_site_label
_atom_site_type_symbol
_atom_site_fract_x
_atom_site_fract_y
_atom_site_fract_z
H22 H 0.2371 0.0062 0.6209
H23 H 0.2519 0.0408 0.5422
Nd5 Nd 0.090598(16) 0.12421(4) 0.339743(11)
P1 P 0.08227(8) 0.0449(2) 0.72779(5)
P2 P 0.25168(8) 0.0811(2) 0.32259(6)
P3 P 0.13740(8) 0.6196(2) 0.37539(6)
N1 N 0.0463(3) 0.3465(7) 0.66495(18)
H1 H 0.0127 0.3535 0.6767
N2 N 0.3879(3) 0.0781(8) 0.3338(2)
H2 H 0.3807 0.1819 0.3145
N3 N 0.2283(3) 0.8200(8) 0.44617(19)
H4 H 0.2070 0.9228 0.4523
H5 H 0.2354 0.8364 0.4162
C1 C 0.0987(4) 0.1963(9) 0.6805(3)
H6 H 0.0987 0.1224 0.6513
H7 H 0.1427 0.2534 0.6941
C2 C 0.0569(4) 0.4829(9) 0.6275(2)
H8 H 0.0188 0.5678 0.6175
H9 H 0.0967 0.5568 0.6436
C3 C 0.0652(4) 0.3901(9) 0.5806(2)
C4 C 0.1273(4) 0.3922(10) 0.5727(3)
H10 H 0.1640 0.4458 0.5966
C5 C 0.1351(4) 0.3139(11) 0.5288(3)
H11 H 0.1769 0.3160 0.5235
C6 C 0.0807(4) 0.2335(9) 0.4932(2)
C7 C 0.0190(4) 0.2332(10) 0.5016(3)
C8 C 0.0113(4) 0.3104(11) 0.5452(3)
C9 C 0.0888(4) 0.1519(9) 0.4449(3)
C10 C 0.3384(3) 0.0718(9) 0.3624(3)
H14 H 0.3468 0.1765 0.3858
C11 C 0.4594(4) 0.0786(13) 0.3678(3)
H17 H 0.4669 0.1885 0.3893
C12 C 0.5085(4) 0.0794(12) 0.3374(3)
C13 C 0.5231(4) 0.2462(12) 0.3179(3)
H18 H 0.5073 0.3586 0.3269
C14 C 0.5610(4) 0.2471(11) 0.2850(3)
H19 H 0.5707 0.3600 0.2720
C15 C 0.5848(4) 0.0788(10) 0.2713(3)
C18 C 0.6215(4) 0.0762(9) 0.2331(3)
C19 C 0.2562(4) 0.7181(12) 0.6808(3)
C20 C 0.2677(4) 0.7376(11) 0.6306(2)
C21 C 0.2530(5) 0.9068(13) 0.6062(3)
C22 C 0.2622(6) 0.9273(14) 0.5592(3)
C23 C 0.2864(4) 0.7806(11) 0.5377(3)
C24 C 0.2947(4) 0.8060(12) 0.4859(3)
H24 H 0.3195 0.7005 0.4786
H25 H 0.3205 0.9189 0.4856
C25 C 0.1829(4) 0.6550(9) 0.4423(2)
H26 H 0.2090 0.5443 0.4561
H27 H 0.1515 0.6783 0.4610
C26 C 0.3035(5) 0.6160(12) 0.5635(3)
H28 H 0.3221 0.5193 0.5497
C27 C 0.2933(4) 0.5914(11) 0.6102(3)
H29 H 0.3036 0.4779 0.6272
O1 O 0.0368(3) 0.1238(7) 0.40874(18)
O2 O 0.1475(3) 0.1262(7) 0.44272(19)
O5 O 0.0704(3) 0.1740(6) 0.76730(16)
O6 O 0.2102(2) 0.0651(6) 0.35829(17)
O7 O 0.2420(2) 0.2628(6) 0.29385(17)
O9 O 0.6338(3) 0.2288(7) 0.21451(19)
O11 O 0.2562(4) 0.5468(8) 0.6969(2)
H30 H 0.2517 0.5478 0.7252
O12 O 0.2472(3) 0.8581(8) 0.70367(18)
O13 O 0.0993(2) 0.4388(6) 0.37170(17)
O14 O 0.0910(2) 0.7873(6) 0.35971(17)
O15 O 0.1943(2) 0.6157(6) 0.35245(17)
H34 H 0.3697 0.0241 0.8908
Nd4 Nd 0.090598(16) 0.37579(4) 0.839743(11)
Nd6 Nd 0.254620(17) 0.58219(4) 0.295240(12)
Nd8 Nd 0.745380(17) 0.08219(4) 0.204760(12)
Nd9 Nd 0.254620(17) 0.91781(4) 0.795240(12)
O19 O 0.0704(3) 0.3260(6) 0.26730(16)
O20 O 0.2420(2) 0.2372(6) 0.79385(17)
O23 O 0.3574(3) 0.0772(7) 0.7787(2)
H3 H 0.3816 0.9780 0.3132
H15 H 0.3452 0.9572 0.3821
H16 H 0.4671 0.9684 0.3893
C16 C 0.5742(4) 0.9131(11) 0.2945(3)
H20 H 0.5935 0.8017 0.2883
C17 C 0.5353(4) 0.9139(12) 0.3265(3)
H21 H 0.5270 0.8022 0.3408
O3 O 0.0203(2) 0.9321(6) 0.70137(17)
O4 O 0.1428(2) 0.9182(6) 0.74499(17)
O8 O 0.2431(2) 0.9149(5) 0.28653(17)
O10 O 0.6426(3) 0.9228(7) 0.2213(2)
O16 O 0.0790(3) 0.9255(6) 0.25558(17)
H31 H 0.0918 0.9926 0.2348
H32 H 0.1034 0.8275 0.2630
O17 O 0.3461(3) 0.9248(6) 0.88804(19)
H33 H 0.3256 0.9260 0.9103
O21 O 0.2431(2) 0.5851(5) 0.78653(17)
O22 O 0.3662(3) 0.7712(7) 0.78549(19)
O26 O 0.1943(2) 0.8843(6) 0.85245(17)
H12 H 0.9821 0.1806 0.4777
H13 H 0.9694 0.3081 0.5505
O18 O 0.9797(2) 0.0679(6) 0.29863(17)
Nd3 Nd 0.909402(16) 0.87579(4) 0.660257(11)
H12_2 H 0.0179 0.6806 0.0223
O18_2 O 0.0203(2) 0.5679(6) 0.20137(17)
H13_2 H 0.0306 0.8081 0.9495
P3_2 P 0.86260(8) 0.1196(2) 0.12461(6)
N3_2 N 0.7717(3) 0.3200(8) 0.05383(19)
H4_2 H 0.7930 0.4228 0.0477
H5_2 H 0.7646 0.3364 0.0838
C24_2 C 0.7053(4) 0.3060(12) 0.0141(3)
H24_2 H 0.6805 0.2005 0.0214
H25_2 H 0.6795 0.4189 0.0144
C25_2 C 0.8171(4) 0.1550(9) 0.0577(2)
H26_2 H 0.7910 0.0443 0.0439
H27_2 H 0.8485 0.1783 0.0390
O14_2 O 0.9090(2) 0.2873(6) 0.14029(17)
O15_2 O 0.8057(2) 0.1157(6) 0.14755(17)
Nd5_2 Nd 0.909402(16) 0.62421(4) 0.160257(11)
H8_2 H 0.9812 0.0678 0.8825
H9_2 H 0.9033 0.0568 0.8564
C19_2 C 0.7438(4) 0.2181(12) 0.8192(3)
C20_2 C 0.7323(4) 0.2376(11) 0.8694(2)
C21_2 C 0.7470(5) 0.4068(13) 0.8938(3)
H22_2 H 0.7629 0.5062 0.8791
C22_2 C 0.7378(6) 0.4273(14) 0.9408(3)
H23_2 H 0.7481 0.5408 0.9578
C23_2 C 0.7136(4) 0.2806(11) 0.9623(3)
C26_2 C 0.6965(5) 0.1160(12) 0.9365(3)
H28_2 H 0.6779 0.0193 0.9503
C27_2 C 0.7067(4) 0.0914(11) 0.8898(3)
O11_2 O 0.7438(4) 0.0468(8) 0.8031(2)
H30_2 H 0.7483 0.0478 0.7748
O12_2 O 0.7528(3) 0.3581(8) 0.79633(18)
Nd9_2 Nd 0.745380(17) 0.41781(4) 0.704760(12)
P2_2 P 0.74832(8) 0.5811(2) 0.17741(6)
N2_2 N 0.6121(3) 0.5781(8) 0.1662(2)
H2_2 H 0.6193 0.6819 0.1855
H3_2 H 0.6184 0.4780 0.1868
C6_2 C 0.9193(4) 0.7335(9) 0.0068(2)
C9_2 C 0.9112(4) 0.6519(9) 0.0551(3)
C10_2 C 0.6616(3) 0.5718(9) 0.1376(3)
H14_2 H 0.6532 0.6765 0.1142
H15_2 H 0.6548 0.4572 0.1179
C11_2 C 0.5406(4) 0.5786(13) 0.1322(3)
H16_2 H 0.5329 0.4684 0.1107
H17_2 H 0.5331 0.6885 0.1107
C12_2 C 0.4915(4) 0.5794(12) 0.1626(3)
C13_2 C 0.4769(4) 0.7462(12) 0.1821(3)
H18_2 H 0.4927 0.8586 0.1731
C14_2 C 0.4390(4) 0.7471(11) 0.2150(3)
H19_2 H 0.4293 0.8600 0.2280
C15_2 C 0.4152(4) 0.5788(10) 0.2287(3)
C16_2 C 0.4258(4) 0.4131(11) 0.2055(3)
H20_2 H 0.4065 0.3017 0.2117
C17_2 C 0.4647(4) 0.4139(12) 0.1735(3)
H21_2 H 0.4730 0.3022 0.1592
C18_2 C 0.3785(4) 0.5762(9) 0.2669(3)
O1_2 O 0.9632(3) 0.6238(7) 0.09126(18)
O2_2 O 0.8525(3) 0.6262(7) 0.05728(19)
O6_2 O 0.7898(2) 0.5651(6) 0.14171(17)
O7_2 O 0.7580(2) 0.7628(6) 0.20615(17)
O8_2 O 0.7569(2) 0.4149(5) 0.21347(17)
O9_2 O 0.3662(3) 0.7288(7) 0.28549(19)
O10_2 O 0.3574(3) 0.4228(7) 0.2787(2)
O13_2 O 0.9007(2) 0.9388(6) 0.12830(17)
O16_2 O 0.9210(3) 0.4255(6) 0.24442(17)
H31_2 H 0.9082 0.4926 0.2652
H32_2 H 0.8966 0.3275 0.2370
O19_2 O 0.9296(3) 0.8260(6) 0.23270(16)
P1_2 P 0.91773(8) 0.5449(2) 0.77221(5)
N1_2 N 0.9537(3) 0.8465(7) 0.83505(18)
H1_2 H 0.9873 0.8535 0.8233
C1_2 C 0.9013(4) 0.6963(9) 0.8195(3)
H6_2 H 0.9013 0.6224 0.8487
H7_2 H 0.8573 0.7534 0.8059
C2_2 C 0.9431(4) 0.9829(9) 0.8725(2)
C3_2 C 0.9348(4) 0.8901(9) 0.9194(2)
C4_2 C 0.8727(4) 0.8922(10) 0.9273(3)
H10_2 H 0.8360 0.9458 0.9034
C5_2 C 0.8649(4) 0.8139(11) 0.9712(3)
H11_2 H 0.8231 0.8160 0.9765
C7_2 C 0.9810(4) 0.7332(10) 0.9984(3)
C8_2 C 0.9887(4) 0.8104(11) 0.9548(3)
H29_2 H 0.6964 0.9779 0.8728
O3_2 O 0.9797(2) 0.4321(6) 0.79863(17)
O4_2 O 0.8572(2) 0.4182(6) 0.75501(17)
O5_2 O 0.9296(3) 0.6740(6) 0.73270(16)
O17_2 O 0.6539(3) 0.4248(6) 0.61196(19)
H33_2 H 0.6744 0.4260 0.5897
H34_2 H 0.6303 0.5241 0.6092
O20_2 O 0.7580(2) 0.7372(6) 0.70615(17)
O21_2 O 0.7569(2) 0.0851(5) 0.71347(17)
O22_2 O 0.6338(3) 0.2712(7) 0.71451(19)
O23_2 O 0.6426(3) 0.5772(7) 0.7213(2)
O26_2 O 0.8057(2) 0.3843(6) 0.64755(17)
H12_3 H 0.0179 0.8194 0.5223
H13_3 H 0.0306 0.6919 0.4495
H3_3 H 0.6184 0.0220 0.6868
H15_3 H 0.6548 0.0428 0.6179
H16_3 H 0.5329 0.0316 0.6107
C16_3 C 0.4258(4) 0.0869(11) 0.7055(3)
H20_3 H 0.4065 0.1983 0.7117
C17_3 C 0.4647(4) 0.0861(12) 0.6735(3)
H21_3 H 0.4730 0.1978 0.6592
O4_3 O 0.8572(2) 0.0818(6) 0.25501(17)
O16_3 O 0.9210(3) 0.0745(6) 0.74442(17)
H31_3 H 0.9082 0.0074 0.7652
H32_3 H 0.8966 0.1725 0.7370
O17_3 O 0.6539(3) 0.0752(6) 0.11196(19)
H33_3 H 0.6744 0.0740 0.0897
O24 O 0.7528(3) 0.1419(8) 0.29633(18)
O25 O 0.9090(2) 0.2127(6) 0.64029(17)
P1_3 P 0.91773(8) 0.9551(2) 0.27221(5)
P2_3 P 0.74832(8) 0.9189(2) 0.67741(6)
P3_3 P 0.86260(8) 0.3804(2) 0.62461(6)
N1_3 N 0.9537(3) 0.6535(7) 0.33505(18)
H1_3 H 0.9873 0.6465 0.3233
N2_3 N 0.6121(3) 0.9219(8) 0.6662(2)
H2_3 H 0.6193 0.8181 0.6855
N3_3 N 0.7717(3) 0.1800(8) 0.55383(19)
H4_3 H 0.7930 0.0772 0.5477
H5_3 H 0.7646 0.1636 0.5838
C1_3 C 0.9013(4) 0.8037(9) 0.3195(3)
H6_3 H 0.9013 0.8776 0.3487
H7_3 H 0.8573 0.7466 0.3059
C2_3 C 0.9431(4) 0.5171(9) 0.3725(2)
H8_3 H 0.9812 0.4322 0.3825
H9_3 H 0.9033 0.4432 0.3564
C3_3 C 0.9348(4) 0.6099(9) 0.4194(2)
C4_3 C 0.8727(4) 0.6078(10) 0.4273(3)
H10_3 H 0.8360 0.5542 0.4034
C5_3 C 0.8649(4) 0.6861(11) 0.4712(3)
H11_3 H 0.8231 0.6840 0.4765
C6_3 C 0.9193(4) 0.7665(9) 0.5068(2)
C7_3 C 0.9810(4) 0.7668(10) 0.4984(3)
C8_3 C 0.9887(4) 0.6896(11) 0.4548(3)
C9_3 C 0.9112(4) 0.8481(9) 0.5551(3)
C10_3 C 0.6616(3) 0.9282(9) 0.6376(3)
H14_3 H 0.6532 0.8235 0.6142
C11_3 C 0.5406(4) 0.9214(13) 0.6322(3)
H17_3 H 0.5331 0.8115 0.6107
C12_3 C 0.4915(4) 0.9206(12) 0.6626(3)
C13_3 C 0.4769(4) 0.7538(12) 0.6821(3)
H18_3 H 0.4927 0.6414 0.6731
C14_3 C 0.4390(4) 0.7529(11) 0.7150(3)
H19_3 H 0.4293 0.6400 0.7280
C15_3 C 0.4152(4) 0.9212(10) 0.7287(3)
C18_3 C 0.3785(4) 0.9238(9) 0.7669(3)
C19_3 C 0.7438(4) 0.2819(12) 0.3192(3)
C20_3 C 0.7323(4) 0.2624(11) 0.3694(2)
C21_3 C 0.7470(5) 0.0932(13) 0.3938(3)
C22_3 C 0.7378(6) 0.0727(14) 0.4408(3)
C23_3 C 0.7136(4) 0.2194(11) 0.4623(3)
C24_3 C 0.7053(4) 0.1940(12) 0.5141(3)
H24_3 H 0.6805 0.2995 0.5214
H25_3 H 0.6795 0.0811 0.5144
C25_3 C 0.8171(4) 0.3450(9) 0.5577(2)
H26_3 H 0.7910 0.4557 0.5439
H27_3 H 0.8485 0.3217 0.5390
C26_3 C 0.6965(5) 0.3840(12) 0.4365(3)
H28_3 H 0.6779 0.4807 0.4503
C27_3 C 0.7067(4) 0.4086(11) 0.3898(3)
H29_3 H 0.6964 0.5221 0.3728
O1_3 O 0.9632(3) 0.8762(7) 0.59126(18)
O2_3 O 0.8525(3) 0.8738(7) 0.55728(19)
O6_3 O 0.7898(2) 0.9349(6) 0.64171(17)
O11_3 O 0.7438(4) 0.4532(8) 0.3031(2)
H30_3 H 0.7483 0.4522 0.2748
O13_3 O 0.9007(2) 0.5612(6) 0.62830(17)
H34_3 H 0.6303 0.9759 0.1092
H22_3 H 0.7629 0.9938 0.3791
H23_3 H 0.7481 0.9592 0.4578
P1_4 P 0.08227(8) 0.4551(2) 0.22779(5)
N1_4 N 0.0463(3) 0.1535(7) 0.16495(18)
H1_4 H 0.0127 0.1465 0.1767
C1_4 C 0.0987(4) 0.3037(9) 0.1805(3)
H6_4 H 0.0987 0.3776 0.1513
H7_4 H 0.1427 0.2466 0.1941
C2_4 C 0.0569(4) 0.0171(9) 0.1275(2)
C3_4 C 0.0652(4) 0.1099(9) 0.0806(2)
C4_4 C 0.1273(4) 0.1078(10) 0.0727(3)
H10_4 H 0.1640 0.0542 0.0966
C5_4 C 0.1351(4) 0.1861(11) 0.0288(3)
H11_4 H 0.1769 0.1840 0.0235
C7_4 C 0.0190(4) 0.2668(10) 0.0016(3)
C8_4 C 0.0113(4) 0.1896(11) 0.0452(3)
H29_4 H 0.3036 0.0221 0.1272
O4_4 O 0.1428(2) 0.5818(6) 0.24499(17)
O17_4 O 0.3461(3) 0.5752(6) 0.38804(19)
H33_4 H 0.3256 0.5740 0.4103
H34_4 H 0.3697 0.4759 0.3908
O24_2 O 0.2472(3) 0.6419(8) 0.20367(18)
P2_4 P 0.25168(8) 0.4189(2) 0.82259(6)
N2_4 N 0.3879(3) 0.4219(8) 0.8338(2)
H2_4 H 0.3807 0.3181 0.8145
H3_4 H 0.3816 0.5220 0.8132
C6_4 C 0.0807(4) 0.2665(9) 0.9932(2)
C9_4 C 0.0888(4) 0.3481(9) 0.9449(3)
C10_4 C 0.3384(3) 0.4282(9) 0.8624(3)
H14_4 H 0.3468 0.3235 0.8858
H15_4 H 0.3452 0.5428 0.8821
C11_4 C 0.4594(4) 0.4214(13) 0.8678(3)
H16_4 H 0.4671 0.5316 0.8893
H17_4 H 0.4669 0.3115 0.8893
C12_4 C 0.5085(4) 0.4206(12) 0.8374(3)
C13_4 C 0.5231(4) 0.2538(12) 0.8179(3)
H18_4 H 0.5073 0.1414 0.8269
C14_4 C 0.5610(4) 0.2529(11) 0.7850(3)
H19_4 H 0.5707 0.1400 0.7720
C15_4 C 0.5848(4) 0.4212(10) 0.7713(3)
C16_4 C 0.5742(4) 0.5869(11) 0.7945(3)
H20_4 H 0.5935 0.6983 0.7883
C17_4 C 0.5353(4) 0.5861(12) 0.8265(3)
H21_4 H 0.5270 0.6978 0.8408
C18_4 C 0.6215(4) 0.4238(9) 0.7331(3)
O1_4 O 0.0368(3) 0.3762(7) 0.90874(18)
O2_4 O 0.1475(3) 0.3738(7) 0.94272(19)
O6_4 O 0.2102(2) 0.4349(6) 0.85829(17)
O13_4 O 0.0993(2) 0.0612(6) 0.87170(17)
O16_4 O 0.0790(3) 0.5745(6) 0.75558(17)
H31_4 H 0.0918 0.5074 0.7348
H32_4 H 0.1034 0.6725 0.7630
O25_2 O 0.0910(2) 0.7127(6) 0.85971(17)
H8_4 H 0.0188 0.9322 0.1175
H9_4 H 0.0967 0.9432 0.1436
C19_4 C 0.2562(4) 0.7819(12) 0.1808(3)
C20_4 C 0.2677(4) 0.7624(11) 0.1306(2)
C21_4 C 0.2530(5) 0.5932(13) 0.1062(3)
H22_4 H 0.2371 0.4938 0.1209
C22_4 C 0.2622(6) 0.5727(14) 0.0592(3)
H23_4 H 0.2519 0.4592 0.0422
C23_4 C 0.2864(4) 0.7194(11) 0.0377(3)
C26_4 C 0.3035(5) 0.8840(12) 0.0635(3)
H28_4 H 0.3221 0.9807 0.0497
C27_4 C 0.2933(4) 0.9086(11) 0.1102(3)
O11_4 O 0.2562(4) 0.9532(8) 0.1969(2)
H30_4 H 0.2517 0.9522 0.2252
P3_4 P 0.13740(8) 0.8804(2) 0.87539(6)
N3_4 N 0.2283(3) 0.6800(8) 0.94617(19)
H4_4 H 0.2070 0.5772 0.9523
H5_4 H 0.2354 0.6636 0.9162
C24_4 C 0.2947(4) 0.6940(12) 0.9859(3)
H24_4 H 0.3195 0.7995 0.9786
H25_4 H 0.3205 0.5811 0.9856
C25_4 C 0.1829(4) 0.8450(9) 0.9423(2)
H26_4 H 0.2090 0.9557 0.9561
H27_4 H 0.1515 0.8217 0.9610
H13_4 H 0.9694 0.1919 0.0505
H12_4 H 0.9821 0.3194 0.9777
loop_
_geom_bond_atom_site_label_1
_geom_bond_atom_site_label_2
_geom_bond_site_symmetry_1
_geom_bond_site_symmetry_2
Nd5 O1 1_555 1_555
P1 C1 1_555 1_555
P2 C10 1_555 1_555
P3 C25 1_555 1_555
N1 H1 1_555 1_555
N2 H2 1_555 1_555
N3 H4 1_555 1_555
H5 N3 1_555 1_555
C1 N1 1_555 1_555
H6 C1 1_555 1_555
H7 C1 1_555 1_555
C2 N1 1_555 1_555
H8 C2 1_555 1_555
H9 C2 1_555 1_555
C3 C2 1_555 1_555
C4 C3 1_555 1_555
H10 C4 1_555 1_555
C5 C4 1_555 1_555
H11 C5 1_555 1_555
C6 C5 1_555 1_555
C7 C6 1_555 1_555
C8 C3 1_555 1_555
C9 C6 1_555 1_555
C10 N2 1_555 1_555
H14 C10 1_555 1_555
C11 N2 1_555 1_555
H17 C11 1_555 1_555
C12 C11 1_555 1_555
C13 C12 1_555 1_555
H18 C13 1_555 1_555
C14 C13 1_555 1_555
H19 C14 1_555 1_555
C15 C14 1_555 1_555
C18 C15 1_555 1_555
C19 C20 1_555 1_555
C20 C21 1_555 1_555
C22 C21 1_555 1_555
C23 C22 1_555 1_555
C24 N3 1_555 1_555
H24 C24 1_555 1_555
H25 C24 1_555 1_555
C25 N3 1_555 1_555
H26 C25 1_555 1_555
H27 C25 1_555 1_555
C26 C23 1_555 1_555
H28 C26 1_555 1_555
C27 C20 1_555 1_555
H29 C27 1_555 1_555
O1 C9 1_555 1_555
O2 Nd5 1_555 1_555
O5 P1 1_555 1_555
O6 Nd5 1_555 1_555
O7 P2 1_555 1_555
O9 C18 1_555 1_555
O11 C19 1_555 1_555
H30 O11 1_555 1_555
O12 C19 1_555 1_555
O13 Nd5 1_555 1_555
O14 P3 1_555 1_555
O15 P3 1_555 1_555
Nd4 O5 1_555 1_555
Nd6 O7 1_555 1_555
Nd8 O9 1_555 1_555
Nd9 O12 1_555 1_555
O19 Nd5 1_555 1_555
P2 O6 1_555 1_555
P3 O13 1_555 1_555
C7 C8 1_555 1_555
C9 O2 1_555 1_555
C23 C24 1_555 1_555
C26 C27 1_555 1_555
O15 Nd6 1_555 1_555
Nd9 O4 1_555 1_555
H20 C16 1_555 1_555
H21 C17 1_555 1_555
H31 O16 1_555 1_555
H32 O16 1_555 1_555
O17 Nd9 1_555 1_555
H33 O17 1_555 1_555
Nd6 O8 1_555 1_555
O21 Nd9 1_555 1_555
O22 Nd9 1_555 1_555
O26 Nd9 1_555 1_555
C16 C17 1_555 1_555
P3_2 C25_2 1_555 1_555
N3_2 H4_2 1_555 1_555
H5_2 N3_2 1_555 1_555
C24_2 N3_2 1_555 1_555
H24_2 C24_2 1_555 1_555
H25_2 C24_2 1_555 1_555
C25_2 N3_2 1_555 1_555
H26_2 C25_2 1_555 1_555
H27_2 C25_2 1_555 1_555
O14_2 P3_2 1_555 1_555
O15_2 P3_2 1_555 1_555
Nd5_2 O14_2 1_555 1_555
O15_2 Nd8 1_555 1_555
C19_2 C20_2 1_555 1_555
C20_2 C21_2 1_555 1_555
C21_2 H22_2 1_555 1_555
C22_2 C21_2 1_555 1_555
H23_2 C22_2 1_555 1_555
C23_2 C22_2 1_555 1_555
C26_2 C23_2 1_555 1_555
H28_2 C26_2 1_555 1_555
C27_2 C20_2 1_555 1_555
O11_2 C19_2 1_555 1_555
H30_2 O11_2 1_555 1_555
O12_2 C19_2 1_555 1_555
Nd9_2 O12_2 1_555 1_555
C26_2 C27_2 1_555 1_555
Nd5_2 O1_2 1_555 1_555
P2_2 C10_2 1_555 1_555
N2_2 H2_2 1_555 1_555
H3_2 N2_2 1_555 1_555
C9_2 C6_2 1_555 1_555
C10_2 N2_2 1_555 1_555
H14_2 C10_2 1_555 1_555
H15_2 C10_2 1_555 1_555
C11_2 N2_2 1_555 1_555
H16_2 C11_2 1_555 1_555
H17_2 C11_2 1_555 1_555
C12_2 C11_2 1_555 1_555
C13_2 C12_2 1_555 1_555
H18_2 C13_2 1_555 1_555
C14_2 C13_2 1_555 1_555
H19_2 C14_2 1_555 1_555
C15_2 C14_2 1_555 1_555
C16_2 C15_2 1_555 1_555
H20_2 C16_2 1_555 1_555
C17_2 C12_2 1_555 1_555
H21_2 C17_2 1_555 1_555
C18_2 C15_2 1_555 1_555
O1_2 C9_2 1_555 1_555
O2_2 Nd5_2 1_555 1_555
O6_2 Nd5_2 1_555 1_555
O7_2 P2_2 1_555 1_555
O8_2 P2_2 1_555 1_555
O9_2 C18_2 1_555 1_555
O10_2 C18_2 1_555 1_555
O13_2 Nd5_2 1_555 1_555
O16_2 Nd5_2 1_555 1_555
H31_2 O16_2 1_555 1_555
H32_2 O16_2 1_555 1_555
Nd8 O8_2 1_555 1_555
Nd6 O9_2 1_555 1_555
O19_2 Nd5_2 1_555 1_555
P2_2 O6_2 1_555 1_555
C9_2 O2_2 1_555 1_555
C16_2 C17_2 1_555 1_555
O10_2 Nd6 1_555 1_555
Nd9_2 O4_2 1_555 1_555
P1_2 C1_2 1_555 1_555
N1_2 H1_2 1_555 1_555
C1_2 N1_2 1_555 1_555
H6_2 C1_2 1_555 1_555
H7_2 C1_2 1_555 1_555
C2_2 N1_2 1_555 1_555
C3_2 C2_2 1_555 1_555
C4_2 C3_2 1_555 1_555
H10_2 C4_2 1_555 1_555
C5_2 C4_2 1_555 1_555
H11_2 C5_2 1_555 1_555
C8_2 C3_2 1_555 1_555
O3_2 P1_2 1_555 1_555
O4_2 P1_2 1_555 1_555
O5_2 P1_2 1_555 1_555
O17_2 Nd9_2 1_555 1_555
H33_2 O17_2 1_555 1_555
H34_2 O17_2 1_555 1_555
Nd3 O5_2 1_555 1_555
O20_2 Nd9_2 1_555 1_555
O21_2 Nd9_2 1_555 1_555
O22_2 Nd9_2 1_555 1_555
O23_2 Nd9_2 1_555 1_555
O26_2 Nd9_2 1_555 1_555
C7_2 C8_2 1_555 1_555
Nd8 O4_3 1_555 1_555
H20_3 C16_3 1_555 1_555
H21_3 C17_3 1_555 1_555
H31_3 O16_3 1_555 1_555
H32_3 O16_3 1_555 1_555
O17_3 Nd8 1_555 1_555
H33_3 O17_3 1_555 1_555
O24 Nd8 1_555 1_555
C16_3 C17_3 1_555 1_555
Nd3 O1_3 1_555 1_555
P1_3 C1_3 1_555 1_555
P2_3 C10_3 1_555 1_555
P3_3 C25_3 1_555 1_555
N1_3 H1_3 1_555 1_555
N2_3 H2_3 1_555 1_555
N3_3 H4_3 1_555 1_555
H5_3 N3_3 1_555 1_555
C1_3 N1_3 1_555 1_555
H6_3 C1_3 1_555 1_555
H7_3 C1_3 1_555 1_555
C2_3 N1_3 1_555 1_555
H8_3 C2_3 1_555 1_555
H9_3 C2_3 1_555 1_555
C3_3 C2_3 1_555 1_555
C4_3 C3_3 1_555 1_555
H10_3 C4_3 1_555 1_555
C5_3 C4_3 1_555 1_555
H11_3 C5_3 1_555 1_555
C6_3 C5_3 1_555 1_555
C7_3 C6_3 1_555 1_555
C8_3 C3_3 1_555 1_555
C9_3 C6_3 1_555 1_555
C10_3 N2_3 1_555 1_555
H14_3 C10_3 1_555 1_555
C11_3 N2_3 1_555 1_555
H17_3 C11_3 1_555 1_555
C12_3 C11_3 1_555 1_555
C13_3 C12_3 1_555 1_555
H18_3 C13_3 1_555 1_555
C14_3 C13_3 1_555 1_555
H19_3 C14_3 1_555 1_555
C15_3 C14_3 1_555 1_555
C18_3 C15_3 1_555 1_555
C19_3 C20_3 1_555 1_555
C20_3 C21_3 1_555 1_555
C22_3 C21_3 1_555 1_555
C23_3 C22_3 1_555 1_555
C24_3 N3_3 1_555 1_555
H24_3 C24_3 1_555 1_555
H25_3 C24_3 1_555 1_555
C25_3 N3_3 1_555 1_555
H26_3 C25_3 1_555 1_555
H27_3 C25_3 1_555 1_555
C26_3 C23_3 1_555 1_555
H28_3 C26_3 1_555 1_555
C27_3 C20_3 1_555 1_555
H29_3 C27_3 1_555 1_555
O1_3 C9_3 1_555 1_555
O2_3 Nd3 1_555 1_555
O19_2 P1_3 1_555 1_555
O6_3 Nd3 1_555 1_555
O20_2 P2_3 1_555 1_555
O22 C18_3 1_555 1_555
O11_3 C19_3 1_555 1_555
H30_3 O11_3 1_555 1_555
O24 C19_3 1_555 1_555
O13_3 Nd3 1_555 1_555
O25 P3_3 1_555 1_555
O26_2 P3_3 1_555 1_555
P2_3 O6_3 1_555 1_555
P3_3 O13_3 1_555 1_555
C7_3 C8_3 1_555 1_555
C9_3 O2_3 1_555 1_555
C23_3 C24_3 1_555 1_555
C26_3 C27_3 1_555 1_555
Nd6 O4_4 1_555 1_555
P1_4 C1_4 1_555 1_555
N1_4 H1_4 1_555 1_555
C1_4 N1_4 1_555 1_555
H6_4 C1_4 1_555 1_555
H7_4 C1_4 1_555 1_555
C2_4 N1_4 1_555 1_555
C3_4 C2_4 1_555 1_555
C4_4 C3_4 1_555 1_555
H10_4 C4_4 1_555 1_555
C5_4 C4_4 1_555 1_555
H11_4 C5_4 1_555 1_555
C8_4 C3_4 1_555 1_555
O18_2 P1_4 1_555 1_555
O4_4 P1_4 1_555 1_555
O19 P1_4 1_555 1_555
O17_4 Nd6 1_555 1_555
H33_4 O17_4 1_555 1_555
H34_4 O17_4 1_555 1_555
O24_2 Nd6 1_555 1_555
C7_4 C8_4 1_555 1_555
Nd4 O1_4 1_555 1_555
P2_4 C10_4 1_555 1_555
N2_4 H2_4 1_555 1_555
H3_4 N2_4 1_555 1_555
C9_4 C6_4 1_555 1_555
C10_4 N2_4 1_555 1_555
H14_4 C10_4 1_555 1_555
H15_4 C10_4 1_555 1_555
C11_4 N2_4 1_555 1_555
H16_4 C11_4 1_555 1_555
H17_4 C11_4 1_555 1_555
C12_4 C11_4 1_555 1_555
C13_4 C12_4 1_555 1_555
H18_4 C13_4 1_555 1_555
C14_4 C13_4 1_555 1_555
H19_4 C14_4 1_555 1_555
C15_4 C14_4 1_555 1_555
C16_4 C15_4 1_555 1_555
H20_4 C16_4 1_555 1_555
C17_4 C12_4 1_555 1_555
H21_4 C17_4 1_555 1_555
C18_4 C15_4 1_555 1_555
O1_4 C9_4 1_555 1_555
O2_4 Nd4 1_555 1_555
O6_4 Nd4 1_555 1_555
O20 P2_4 1_555 1_555
O21 P2_4 1_555 1_555
O22_2 C18_4 1_555 1_555
O23_2 C18_4 1_555 1_555
O13_4 Nd4 1_555 1_555
O16_4 Nd4 1_555 1_555
H31_4 O16_4 1_555 1_555
H32_4 O16_4 1_555 1_555
O25_2 Nd4 1_555 1_555
P2_4 O6_4 1_555 1_555
C9_4 O2_4 1_555 1_555
C16_4 C17_4 1_555 1_555
C19_4 C20_4 1_555 1_555
C20_4 C21_4 1_555 1_555
C21_4 H22_4 1_555 1_555
C22_4 C21_4 1_555 1_555
H23_4 C22_4 1_555 1_555
C23_4 C22_4 1_555 1_555
C26_4 C23_4 1_555 1_555
H28_4 C26_4 1_555 1_555
C27_4 C20_4 1_555 1_555
O11_4 C19_4 1_555 1_555
H30_4 O11_4 1_555 1_555
O24_2 C19_4 1_555 1_555
C26_4 C27_4 1_555 1_555
P3_4 C25_4 1_555 1_555
N3_4 H4_4 1_555 1_555
H5_4 N3_4 1_555 1_555
C24_4 N3_4 1_555 1_555
H24_4 C24_4 1_555 1_555
H25_4 C24_4 1_555 1_555
C25_4 N3_4 1_555 1_555
H26_4 C25_4 1_555 1_555
H27_4 C25_4 1_555 1_555
O25_2 P3_4 1_555 1_555
O26 P3_4 1_555 1_555

#END
