
###############################################################################
#
# This file contains modified crystal structure data generated from the
# MOF subset of the Cambridge Structural Database (CSD) v543 
# hosted by the Cambridge Crystallographic Data Centre (CCDC).
#
# This work is licensed under the Creative Commons
# Attribution-NonCommercial-ShareAlike 4.0 International License.
# To view a copy of this license, visit
# http://creativecommons.org/licenses/by-nc-sa/4.0/
# or send a letter to
# Creative Commons, PO Box 1866, Mountain View, CA 94042, USA.
#
# CIF created using the CSD Python API on 29 September 2022
# The structure has been converted into the P1 space group
# The structure has a 3D framework
# The original CSD entry LABPUB is in the monoclinic crystal system
# The framework has been calculated to contain at least 10.0% void space
# The void calculation uses a probe of radius 1.32A, grid spacing 0.4
# The framework is charged, counterions have been retained in the structure
#
###############################################################################

data_LABPUB
_chemical_formula_moiety         '(C108 H136 N12 O66 P12 Sm8)n'
_symmetry_cell_setting           triclinic
_symmetry_space_group_name_H-M   'P 1'
_symmetry_Int_Tables_number      1
_space_group_name_Hall           'P 1'
loop_
_symmetry_equiv_pos_site_id
_symmetry_equiv_pos_as_xyz
1 x,y,z
_cell_length_a                   20.910(7)
_cell_length_b                   7.090(2)
_cell_length_c                   27.823(9)
_cell_angle_alpha                90
_cell_angle_beta                 107.611(4)
_cell_angle_gamma                90
_cell_volume                     3931.49
loop_
_atom_site_label
_atom_site_type_symbol
_atom_site_fract_x
_atom_site_fract_y
_atom_site_fract_z
H22 H 0.2342 0.0086 0.6182
H23 H 0.2515 0.0463 0.5404
Sm5 Sm 0.089646(12) 0.12723(3) 0.338510(8)
P1 P 0.08221(6) 0.04063(18) 0.72728(4)
P2 P 0.24953(7) 0.08636(18) 0.32049(5)
P3 P 0.13668(6) 0.62247(17) 0.37369(4)
N1 N 0.0458(2) 0.3429(6) 0.66469(15)
H1 H 0.0125 0.3499 0.6767
N2 N 0.3862(2) 0.0827(7) 0.33277(18)
H2 H 0.3793 0.1880 0.3138
N3 N 0.2276(2) 0.8230(7) 0.44445(16)
H4 H 0.2348 0.8395 0.4145
H5 H 0.2061 0.9261 0.4504
C1 C 0.0979(3) 0.1914(8) 0.6792(2)
H6 H 0.0969 0.1166 0.6498
H7 H 0.1421 0.2480 0.6920
C2 C 0.0571(3) 0.4817(8) 0.62721(18)
H8 H 0.0194 0.5680 0.6174
H9 H 0.0970 0.5550 0.6433
C3 C 0.0653(3) 0.3900(7) 0.58054(18)
C4 C 0.1264(3) 0.3931(9) 0.5716(2)
H10 H 0.1630 0.4485 0.5950
C5 C 0.1343(3) 0.3138(10) 0.5275(2)
H11 H 0.1761 0.3161 0.5221
C6 C 0.0806(3) 0.2331(8) 0.49219(19)
C7 C 0.0188(3) 0.2328(9) 0.5009(2)
C8 C 0.0112(3) 0.3070(9) 0.5449(2)
C9 C 0.0878(3) 0.1552(8) 0.4434(2)
C10 C 0.3359(3) 0.0740(8) 0.3613(2)
H14 H 0.3440 0.1777 0.3851
C11 C 0.4574(3) 0.0827(11) 0.3676(2)
H17 H 0.4645 0.1923 0.3895
C12 C 0.5064(3) 0.0861(10) 0.3369(2)
C13 C 0.5222(3) 0.2525(10) 0.3177(3)
H18 H 0.5067 0.3664 0.3264
C14 C 0.5612(3) 0.2505(10) 0.2854(3)
H19 H 0.5715 0.3638 0.2726
C15 C 0.5850(3) 0.0846(8) 0.2718(2)
C18 C 0.6230(3) 0.0819(8) 0.2341(2)
C19 C 0.2549(3) 0.7219(10) 0.6794(2)
C20 C 0.2665(3) 0.7405(10) 0.6290(2)
C21 C 0.2512(5) 0.9094(11) 0.6039(3)
C22 C 0.2613(5) 0.9316(11) 0.5572(2)
C23 C 0.2857(3) 0.7845(9) 0.5357(2)
C24 C 0.2939(3) 0.8111(10) 0.4841(2)
H24 H 0.3192 0.7061 0.4768
H25 H 0.3191 0.9257 0.4838
C25 C 0.1826(3) 0.6577(8) 0.44049(18)
H26 H 0.2088 0.5463 0.4540
H27 H 0.1514 0.6804 0.4595
C26 C 0.3019(4) 0.6182(10) 0.5613(2)
H28 H 0.3196 0.5200 0.5471
C27 C 0.2924(4) 0.5940(10) 0.6082(2)
H29 H 0.3034 0.4802 0.6253
O1 O 0.0368(2) 0.1251(6) 0.40765(15)
O2 O 0.1468(2) 0.1303(6) 0.44059(16)
O5 O 0.0714(2) 0.1707(5) 0.76684(13)
O6 O 0.20699(18) 0.0728(5) 0.35547(14)
O7 O 0.2410(2) 0.2683(5) 0.29134(14)
O9 O 0.6369(2) 0.2339(6) 0.21645(16)
O11 O 0.2546(3) 0.5466(7) 0.69482(17)
H30 H 0.2501 0.5456 0.7231
O12 O 0.2473(2) 0.8589(7) 0.70303(15)
O13 O 0.0985(2) 0.4394(5) 0.36995(14)
O14 O 0.09069(18) 0.7924(5) 0.35830(13)
O15 O 0.19385(19) 0.6191(5) 0.35087(14)
H34 H 0.3650 0.0197 0.8856
Sm4 Sm 0.089646(12) 0.37277(3) 0.838510(8)
Sm6 Sm 0.253050(12) 0.58665(4) 0.293250(9)
Sm8 Sm 0.746950(12) 0.08665(4) 0.206750(9)
Sm9 Sm 0.253050(12) 0.91335(4) 0.793250(9)
O19 O 0.0714(2) 0.3293(5) 0.26684(13)
O20 O 0.2410(2) 0.2317(5) 0.79134(14)
O23 O 0.3552(2) 0.0729(6) 0.77702(18)
H3 H 0.3804 0.9830 0.3119
H15 H 0.3421 0.9573 0.3803
H16 H 0.4650 0.9707 0.3887
C16 C 0.5735(4) 0.9194(11) 0.2947(3)
H20 H 0.5923 0.8069 0.2883
C17 C 0.5344(4) 0.9200(10) 0.3268(3)
H21 H 0.5269 0.8082 0.3418
O3 O 0.02018(18) 0.9279(6) 0.70169(15)
O4 O 0.14289(18) 0.9127(5) 0.74388(14)
O8 O 0.24109(19) 0.9188(5) 0.28484(14)
O10 O 0.6448(2) 0.9271(6) 0.22298(18)
O16 O 0.0787(2) 0.9311(5) 0.25523(13)
H31 H 0.0914 0.9983 0.2345
H32 H 0.1031 0.8331 0.2627
O17 O 0.3413(3) 0.9204(6) 0.88287(16)
H33 H 0.3209 0.9216 0.9051
O21 O 0.24109(19) 0.5812(5) 0.78484(14)
O22 O 0.3631(2) 0.7661(6) 0.78355(16)
O26 O 0.19385(19) 0.8809(5) 0.85087(14)
H12 H 0.9818 0.1818 0.4768
H13 H 0.9697 0.3013 0.5506
O18 O 0.97982(18) 0.0721(6) 0.29831(15)
Sm3 Sm 0.910354(12) 0.87277(3) 0.661490(8)
H12_2 H 0.0182 0.6818 0.0232
O18_2 O 0.02018(18) 0.5721(6) 0.20169(15)
H13_2 H 0.0303 0.8013 0.9494
P3_2 P 0.86332(6) 0.12247(17) 0.12631(4)
N3_2 N 0.7724(2) 0.3230(7) 0.05555(16)
H4_2 H 0.7652 0.3395 0.0855
H5_2 H 0.7939 0.4261 0.0496
C24_2 C 0.7061(3) 0.3111(10) 0.0159(2)
H24_2 H 0.6808 0.2061 0.0232
H25_2 H 0.6809 0.4257 0.0162
C25_2 C 0.8174(3) 0.1577(8) 0.05951(18)
H26_2 H 0.7912 0.0463 0.0460
H27_2 H 0.8486 0.1804 0.0405
O14_2 O 0.90931(18) 0.2924(5) 0.14170(13)
O15_2 O 0.80615(19) 0.1191(5) 0.14913(14)
Sm5_2 Sm 0.910354(12) 0.62723(3) 0.161490(8)
H8_2 H 0.9806 0.0680 0.8826
H9_2 H 0.9030 0.0550 0.8567
C19_2 C 0.7451(3) 0.2219(10) 0.8206(2)
C20_2 C 0.7335(3) 0.2405(10) 0.8710(2)
C21_2 C 0.7488(5) 0.4094(11) 0.8961(3)
H22_2 H 0.7658 0.5086 0.8818
C22_2 C 0.7387(5) 0.4316(11) 0.9428(2)
H23_2 H 0.7485 0.5463 0.9596
C23_2 C 0.7143(3) 0.2845(9) 0.9643(2)
C26_2 C 0.6981(4) 0.1182(10) 0.9387(2)
H28_2 H 0.6804 0.0200 0.9529
C27_2 C 0.7076(4) 0.0940(10) 0.8918(2)
O11_2 O 0.7454(3) 0.0466(7) 0.80518(17)
H30_2 H 0.7499 0.0456 0.7769
O12_2 O 0.7527(2) 0.3589(7) 0.79697(15)
Sm9_2 Sm 0.746950(12) 0.41335(4) 0.706750(9)
P2_2 P 0.75047(7) 0.58636(18) 0.17951(5)
N2_2 N 0.6138(2) 0.5827(7) 0.16723(18)
H2_2 H 0.6207 0.6880 0.1862
H3_2 H 0.6196 0.4830 0.1881
C6_2 C 0.9194(3) 0.7331(8) 0.00781(19)
C9_2 C 0.9122(3) 0.6552(8) 0.0566(2)
C10_2 C 0.6641(3) 0.5740(8) 0.1387(2)
H14_2 H 0.6560 0.6777 0.1149
H15_2 H 0.6579 0.4573 0.1197
C11_2 C 0.5426(3) 0.5827(11) 0.1324(2)
H16_2 H 0.5350 0.4707 0.1113
H17_2 H 0.5355 0.6923 0.1105
C12_2 C 0.4936(3) 0.5861(10) 0.1631(2)
C13_2 C 0.4778(3) 0.7525(10) 0.1823(3)
H18_2 H 0.4933 0.8664 0.1736
C14_2 C 0.4388(3) 0.7505(10) 0.2146(3)
H19_2 H 0.4285 0.8638 0.2274
C15_2 C 0.4150(3) 0.5846(8) 0.2282(2)
C16_2 C 0.4265(4) 0.4194(11) 0.2053(3)
H20_2 H 0.4077 0.3069 0.2117
C17_2 C 0.4656(4) 0.4200(10) 0.1732(3)
H21_2 H 0.4731 0.3082 0.1582
C18_2 C 0.3770(3) 0.5819(8) 0.2659(2)
O1_2 O 0.9632(2) 0.6251(6) 0.09235(15)
O2_2 O 0.8532(2) 0.6303(6) 0.05941(16)
O6_2 O 0.79301(18) 0.5728(5) 0.14453(14)
O7_2 O 0.7590(2) 0.7683(5) 0.20866(14)
O8_2 O 0.75891(19) 0.4188(5) 0.21516(14)
O9_2 O 0.3631(2) 0.7339(6) 0.28355(16)
O10_2 O 0.3552(2) 0.4271(6) 0.27702(18)
O13_2 O 0.9015(2) 0.9394(5) 0.13005(14)
O16_2 O 0.9213(2) 0.4311(5) 0.24477(13)
H31_2 H 0.9086 0.4983 0.2655
H32_2 H 0.8969 0.3331 0.2373
O19_2 O 0.9286(2) 0.8293(5) 0.23316(13)
P1_2 P 0.91779(6) 0.54063(18) 0.77272(4)
N1_2 N 0.9542(2) 0.8429(6) 0.83531(15)
H1_2 H 0.9875 0.8499 0.8233
C1_2 C 0.9021(3) 0.6914(8) 0.8208(2)
H6_2 H 0.9031 0.6166 0.8502
H7_2 H 0.8579 0.7480 0.8080
C2_2 C 0.9429(3) 0.9817(8) 0.87279(18)
C3_2 C 0.9347(3) 0.8900(7) 0.91946(18)
C4_2 C 0.8736(3) 0.8931(9) 0.9284(2)
H10_2 H 0.8370 0.9485 0.9050
C5_2 C 0.8657(3) 0.8138(10) 0.9725(2)
H11_2 H 0.8239 0.8161 0.9779
C7_2 C 0.9812(3) 0.7328(9) 0.9991(2)
C8_2 C 0.9888(3) 0.8070(9) 0.9551(2)
H29_2 H 0.6966 0.9802 0.8747
O3_2 O 0.97982(18) 0.4279(6) 0.79831(15)
O4_2 O 0.85711(18) 0.4127(5) 0.75612(14)
O5_2 O 0.9286(2) 0.6707(5) 0.73316(13)
O17_2 O 0.6587(3) 0.4204(6) 0.61713(16)
H33_2 H 0.6791 0.4216 0.5949
H34_2 H 0.6350 0.5197 0.6144
O20_2 O 0.7590(2) 0.7317(5) 0.70866(14)
O21_2 O 0.75891(19) 0.0812(5) 0.71516(14)
O22_2 O 0.6369(2) 0.2661(6) 0.71645(16)
O23_2 O 0.6448(2) 0.5729(6) 0.72298(18)
O26_2 O 0.80615(19) 0.3809(5) 0.64913(14)
H12_3 H 0.0182 0.8182 0.5232
H13_3 H 0.0303 0.6987 0.4494
H3_3 H 0.6196 0.0170 0.6881
H15_3 H 0.6579 0.0427 0.6197
H16_3 H 0.5350 0.0293 0.6113
C16_3 C 0.4265(4) 0.0806(11) 0.7053(3)
H20_3 H 0.4077 0.1931 0.7117
C17_3 C 0.4656(4) 0.0800(10) 0.6732(3)
H21_3 H 0.4731 0.1918 0.6582
O4_3 O 0.85711(18) 0.0873(5) 0.25612(14)
O16_3 O 0.9213(2) 0.0689(5) 0.74477(13)
H31_3 H 0.9086 0.0017 0.7655
H32_3 H 0.8969 0.1669 0.7373
O17_3 O 0.6587(3) 0.0796(6) 0.11713(16)
H33_3 H 0.6791 0.0784 0.0949
O24 O 0.7527(2) 0.1411(7) 0.29697(15)
O25 O 0.90931(18) 0.2076(5) 0.64170(13)
P1_3 P 0.91779(6) 0.95937(18) 0.27272(4)
P2_3 P 0.75047(7) 0.91364(18) 0.67951(5)
P3_3 P 0.86332(6) 0.37753(17) 0.62631(4)
N1_3 N 0.9542(2) 0.6571(6) 0.33531(15)
H1_3 H 0.9875 0.6501 0.3233
N2_3 N 0.6138(2) 0.9173(7) 0.66723(18)
H2_3 H 0.6207 0.8120 0.6862
N3_3 N 0.7724(2) 0.1770(7) 0.55555(16)
H4_3 H 0.7652 0.1605 0.5855
H5_3 H 0.7939 0.0739 0.5496
C1_3 C 0.9021(3) 0.8086(8) 0.3208(2)
H6_3 H 0.9031 0.8834 0.3502
H7_3 H 0.8579 0.7520 0.3080
C2_3 C 0.9429(3) 0.5183(8) 0.37279(18)
H8_3 H 0.9806 0.4320 0.3826
H9_3 H 0.9030 0.4450 0.3567
C3_3 C 0.9347(3) 0.6100(7) 0.41946(18)
C4_3 C 0.8736(3) 0.6069(9) 0.4284(2)
H10_3 H 0.8370 0.5515 0.4050
C5_3 C 0.8657(3) 0.6862(10) 0.4725(2)
H11_3 H 0.8239 0.6839 0.4779
C6_3 C 0.9194(3) 0.7669(8) 0.50781(19)
C7_3 C 0.9812(3) 0.7672(9) 0.4991(2)
C8_3 C 0.9888(3) 0.6930(9) 0.4551(2)
C9_3 C 0.9122(3) 0.8448(8) 0.5566(2)
C10_3 C 0.6641(3) 0.9260(8) 0.6387(2)
H14_3 H 0.6560 0.8223 0.6149
C11_3 C 0.5426(3) 0.9173(11) 0.6324(2)
H17_3 H 0.5355 0.8077 0.6105
C12_3 C 0.4936(3) 0.9139(10) 0.6631(2)
C13_3 C 0.4778(3) 0.7475(10) 0.6823(3)
H18_3 H 0.4933 0.6336 0.6736
C14_3 C 0.4388(3) 0.7495(10) 0.7146(3)
H19_3 H 0.4285 0.6362 0.7274
C15_3 C 0.4150(3) 0.9154(8) 0.7282(2)
C18_3 C 0.3770(3) 0.9181(8) 0.7659(2)
C19_3 C 0.7451(3) 0.2781(10) 0.3206(2)
C20_3 C 0.7335(3) 0.2595(10) 0.3710(2)
C21_3 C 0.7488(5) 0.0906(11) 0.3961(3)
C22_3 C 0.7387(5) 0.0684(11) 0.4428(2)
C23_3 C 0.7143(3) 0.2155(9) 0.4643(2)
C24_3 C 0.7061(3) 0.1889(10) 0.5159(2)
H24_3 H 0.6808 0.2939 0.5232
H25_3 H 0.6809 0.0743 0.5162
C25_3 C 0.8174(3) 0.3423(8) 0.55951(18)
H26_3 H 0.7912 0.4537 0.5460
H27_3 H 0.8486 0.3196 0.5405
C26_3 C 0.6981(4) 0.3818(10) 0.4387(2)
H28_3 H 0.6804 0.4800 0.4529
C27_3 C 0.7076(4) 0.4060(10) 0.3918(2)
H29_3 H 0.6966 0.5198 0.3747
O1_3 O 0.9632(2) 0.8749(6) 0.59235(15)
O2_3 O 0.8532(2) 0.8697(6) 0.55941(16)
O6_3 O 0.79301(18) 0.9272(5) 0.64453(14)
O11_3 O 0.7454(3) 0.4534(7) 0.30518(17)
H30_3 H 0.7499 0.4544 0.2769
O13_3 O 0.9015(2) 0.5606(5) 0.63005(14)
H34_3 H 0.6350 0.9803 0.1144
H22_3 H 0.7658 0.9914 0.3818
H23_3 H 0.7485 0.9537 0.4596
P1_4 P 0.08221(6) 0.45937(18) 0.22728(4)
N1_4 N 0.0458(2) 0.1571(6) 0.16469(15)
H1_4 H 0.0125 0.1501 0.1767
C1_4 C 0.0979(3) 0.3086(8) 0.1792(2)
H6_4 H 0.0969 0.3834 0.1498
H7_4 H 0.1421 0.2520 0.1920
C2_4 C 0.0571(3) 0.0183(8) 0.12721(18)
C3_4 C 0.0653(3) 0.1100(7) 0.08054(18)
C4_4 C 0.1264(3) 0.1069(9) 0.0716(2)
H10_4 H 0.1630 0.0515 0.0950
C5_4 C 0.1343(3) 0.1862(10) 0.0275(2)
H11_4 H 0.1761 0.1839 0.0221
C7_4 C 0.0188(3) 0.2672(9) 0.0009(2)
C8_4 C 0.0112(3) 0.1930(9) 0.0449(2)
H29_4 H 0.3034 0.0198 0.1253
O4_4 O 0.14289(18) 0.5873(5) 0.24388(14)
O17_4 O 0.3413(3) 0.5796(6) 0.38287(16)
H33_4 H 0.3209 0.5784 0.4051
H34_4 H 0.3650 0.4803 0.3856
O24_2 O 0.2473(2) 0.6411(7) 0.20303(15)
P2_4 P 0.24953(7) 0.41364(18) 0.82049(5)
N2_4 N 0.3862(2) 0.4173(7) 0.83277(18)
H2_4 H 0.3793 0.3120 0.8138
H3_4 H 0.3804 0.5170 0.8119
C6_4 C 0.0806(3) 0.2669(8) 0.99219(19)
C9_4 C 0.0878(3) 0.3448(8) 0.9434(2)
C10_4 C 0.3359(3) 0.4260(8) 0.8613(2)
H14_4 H 0.3440 0.3223 0.8851
H15_4 H 0.3421 0.5427 0.8803
C11_4 C 0.4574(3) 0.4173(11) 0.8676(2)
H16_4 H 0.4650 0.5293 0.8887
H17_4 H 0.4645 0.3077 0.8895
C12_4 C 0.5064(3) 0.4139(10) 0.8369(2)
C13_4 C 0.5222(3) 0.2475(10) 0.8177(3)
H18_4 H 0.5067 0.1336 0.8264
C14_4 C 0.5612(3) 0.2495(10) 0.7854(3)
H19_4 H 0.5715 0.1362 0.7726
C15_4 C 0.5850(3) 0.4154(8) 0.7718(2)
C16_4 C 0.5735(4) 0.5806(11) 0.7947(3)
H20_4 H 0.5923 0.6931 0.7883
C17_4 C 0.5344(4) 0.5800(10) 0.8268(3)
H21_4 H 0.5269 0.6918 0.8418
C18_4 C 0.6230(3) 0.4181(8) 0.7341(2)
O1_4 O 0.0368(2) 0.3749(6) 0.90765(15)
O2_4 O 0.1468(2) 0.3697(6) 0.94059(16)
O6_4 O 0.20699(18) 0.4272(5) 0.85547(14)
O13_4 O 0.0985(2) 0.0606(5) 0.86995(14)
O16_4 O 0.0787(2) 0.5689(5) 0.75523(13)
H31_4 H 0.0914 0.5017 0.7345
H32_4 H 0.1031 0.6669 0.7627
O25_2 O 0.09069(18) 0.7076(5) 0.85830(13)
H8_4 H 0.0194 0.9320 0.1174
H9_4 H 0.0970 0.9450 0.1433
C19_4 C 0.2549(3) 0.7781(10) 0.1794(2)
C20_4 C 0.2665(3) 0.7595(10) 0.1290(2)
C21_4 C 0.2512(5) 0.5906(11) 0.1039(3)
H22_4 H 0.2342 0.4914 0.1182
C22_4 C 0.2613(5) 0.5684(11) 0.0572(2)
H23_4 H 0.2515 0.4537 0.0404
C23_4 C 0.2857(3) 0.7155(9) 0.0357(2)
C26_4 C 0.3019(4) 0.8818(10) 0.0613(2)
H28_4 H 0.3196 0.9800 0.0471
C27_4 C 0.2924(4) 0.9060(10) 0.1082(2)
O11_4 O 0.2546(3) 0.9534(7) 0.19482(17)
H30_4 H 0.2501 0.9544 0.2231
P3_4 P 0.13668(6) 0.87753(17) 0.87369(4)
N3_4 N 0.2276(2) 0.6770(7) 0.94445(16)
H4_4 H 0.2348 0.6605 0.9145
H5_4 H 0.2061 0.5739 0.9504
C24_4 C 0.2939(3) 0.6889(10) 0.9841(2)
H24_4 H 0.3192 0.7939 0.9768
H25_4 H 0.3191 0.5743 0.9838
C25_4 C 0.1826(3) 0.8423(8) 0.94049(18)
H26_4 H 0.2088 0.9537 0.9540
H27_4 H 0.1514 0.8196 0.9595
H13_4 H 0.9697 0.1987 0.0506
H12_4 H 0.9818 0.3182 0.9768
loop_
_geom_bond_atom_site_label_1
_geom_bond_atom_site_label_2
_geom_bond_site_symmetry_1
_geom_bond_site_symmetry_2
Sm5 O1 1_555 1_555
P1 C1 1_555 1_555
P2 C10 1_555 1_555
P3 C25 1_555 1_555
N1 H1 1_555 1_555
N2 H2 1_555 1_555
N3 H4 1_555 1_555
H5 N3 1_555 1_555
C1 N1 1_555 1_555
H6 C1 1_555 1_555
H7 C1 1_555 1_555
C2 N1 1_555 1_555
H8 C2 1_555 1_555
H9 C2 1_555 1_555
C3 C2 1_555 1_555
C4 C3 1_555 1_555
H10 C4 1_555 1_555
C5 C4 1_555 1_555
H11 C5 1_555 1_555
C6 C5 1_555 1_555
C7 C6 1_555 1_555
C8 C3 1_555 1_555
C9 C6 1_555 1_555
C10 N2 1_555 1_555
H14 C10 1_555 1_555
C11 N2 1_555 1_555
H17 C11 1_555 1_555
C12 C11 1_555 1_555
C13 C12 1_555 1_555
H18 C13 1_555 1_555
C14 C13 1_555 1_555
H19 C14 1_555 1_555
C15 C14 1_555 1_555
C18 C15 1_555 1_555
C19 C20 1_555 1_555
C20 C21 1_555 1_555
C22 C21 1_555 1_555
C23 C22 1_555 1_555
C24 N3 1_555 1_555
H24 C24 1_555 1_555
H25 C24 1_555 1_555
C25 N3 1_555 1_555
H26 C25 1_555 1_555
H27 C25 1_555 1_555
C26 C23 1_555 1_555
H28 C26 1_555 1_555
C27 C20 1_555 1_555
H29 C27 1_555 1_555
O1 C9 1_555 1_555
O2 Sm5 1_555 1_555
O5 P1 1_555 1_555
O6 Sm5 1_555 1_555
O7 P2 1_555 1_555
O9 C18 1_555 1_555
O11 C19 1_555 1_555
H30 O11 1_555 1_555
O12 C19 1_555 1_555
O13 Sm5 1_555 1_555
O14 P3 1_555 1_555
O15 P3 1_555 1_555
Sm4 O5 1_555 1_555
Sm6 O7 1_555 1_555
Sm8 O9 1_555 1_555
Sm9 O12 1_555 1_555
O19 Sm5 1_555 1_555
P2 O6 1_555 1_555
P3 O13 1_555 1_555
C7 C8 1_555 1_555
C9 O2 1_555 1_555
C23 C24 1_555 1_555
C26 C27 1_555 1_555
O15 Sm6 1_555 1_555
Sm9 O4 1_555 1_555
H20 C16 1_555 1_555
H21 C17 1_555 1_555
H31 O16 1_555 1_555
H32 O16 1_555 1_555
O17 Sm9 1_555 1_555
H33 O17 1_555 1_555
Sm6 O8 1_555 1_555
O21 Sm9 1_555 1_555
O22 Sm9 1_555 1_555
O26 Sm9 1_555 1_555
C16 C17 1_555 1_555
P3_2 C25_2 1_555 1_555
N3_2 H4_2 1_555 1_555
H5_2 N3_2 1_555 1_555
C24_2 N3_2 1_555 1_555
H24_2 C24_2 1_555 1_555
H25_2 C24_2 1_555 1_555
C25_2 N3_2 1_555 1_555
H26_2 C25_2 1_555 1_555
H27_2 C25_2 1_555 1_555
O14_2 P3_2 1_555 1_555
O15_2 P3_2 1_555 1_555
Sm5_2 O14_2 1_555 1_555
O15_2 Sm8 1_555 1_555
C19_2 C20_2 1_555 1_555
C20_2 C21_2 1_555 1_555
C21_2 H22_2 1_555 1_555
C22_2 C21_2 1_555 1_555
H23_2 C22_2 1_555 1_555
C23_2 C22_2 1_555 1_555
C26_2 C23_2 1_555 1_555
H28_2 C26_2 1_555 1_555
C27_2 C20_2 1_555 1_555
O11_2 C19_2 1_555 1_555
H30_2 O11_2 1_555 1_555
O12_2 C19_2 1_555 1_555
Sm9_2 O12_2 1_555 1_555
C26_2 C27_2 1_555 1_555
Sm5_2 O1_2 1_555 1_555
P2_2 C10_2 1_555 1_555
N2_2 H2_2 1_555 1_555
H3_2 N2_2 1_555 1_555
C9_2 C6_2 1_555 1_555
C10_2 N2_2 1_555 1_555
H14_2 C10_2 1_555 1_555
H15_2 C10_2 1_555 1_555
C11_2 N2_2 1_555 1_555
H16_2 C11_2 1_555 1_555
H17_2 C11_2 1_555 1_555
C12_2 C11_2 1_555 1_555
C13_2 C12_2 1_555 1_555
H18_2 C13_2 1_555 1_555
C14_2 C13_2 1_555 1_555
H19_2 C14_2 1_555 1_555
C15_2 C14_2 1_555 1_555
C16_2 C15_2 1_555 1_555
H20_2 C16_2 1_555 1_555
C17_2 C12_2 1_555 1_555
H21_2 C17_2 1_555 1_555
C18_2 C15_2 1_555 1_555
O1_2 C9_2 1_555 1_555
O2_2 Sm5_2 1_555 1_555
O6_2 Sm5_2 1_555 1_555
O7_2 P2_2 1_555 1_555
O8_2 P2_2 1_555 1_555
O9_2 C18_2 1_555 1_555
O10_2 C18_2 1_555 1_555
O13_2 Sm5_2 1_555 1_555
O16_2 Sm5_2 1_555 1_555
H31_2 O16_2 1_555 1_555
H32_2 O16_2 1_555 1_555
Sm8 O8_2 1_555 1_555
Sm6 O9_2 1_555 1_555
O19_2 Sm5_2 1_555 1_555
P2_2 O6_2 1_555 1_555
C9_2 O2_2 1_555 1_555
C16_2 C17_2 1_555 1_555
O10_2 Sm6 1_555 1_555
Sm9_2 O4_2 1_555 1_555
P1_2 C1_2 1_555 1_555
N1_2 H1_2 1_555 1_555
C1_2 N1_2 1_555 1_555
H6_2 C1_2 1_555 1_555
H7_2 C1_2 1_555 1_555
C2_2 N1_2 1_555 1_555
C3_2 C2_2 1_555 1_555
C4_2 C3_2 1_555 1_555
H10_2 C4_2 1_555 1_555
C5_2 C4_2 1_555 1_555
H11_2 C5_2 1_555 1_555
C8_2 C3_2 1_555 1_555
O3_2 P1_2 1_555 1_555
O4_2 P1_2 1_555 1_555
O5_2 P1_2 1_555 1_555
O17_2 Sm9_2 1_555 1_555
H33_2 O17_2 1_555 1_555
H34_2 O17_2 1_555 1_555
Sm3 O5_2 1_555 1_555
O20_2 Sm9_2 1_555 1_555
O21_2 Sm9_2 1_555 1_555
O22_2 Sm9_2 1_555 1_555
O23_2 Sm9_2 1_555 1_555
O26_2 Sm9_2 1_555 1_555
C7_2 C8_2 1_555 1_555
Sm8 O4_3 1_555 1_555
H20_3 C16_3 1_555 1_555
H21_3 C17_3 1_555 1_555
H31_3 O16_3 1_555 1_555
H32_3 O16_3 1_555 1_555
O17_3 Sm8 1_555 1_555
H33_3 O17_3 1_555 1_555
O24 Sm8 1_555 1_555
C16_3 C17_3 1_555 1_555
Sm3 O1_3 1_555 1_555
P1_3 C1_3 1_555 1_555
P2_3 C10_3 1_555 1_555
P3_3 C25_3 1_555 1_555
N1_3 H1_3 1_555 1_555
N2_3 H2_3 1_555 1_555
N3_3 H4_3 1_555 1_555
H5_3 N3_3 1_555 1_555
C1_3 N1_3 1_555 1_555
H6_3 C1_3 1_555 1_555
H7_3 C1_3 1_555 1_555
C2_3 N1_3 1_555 1_555
H8_3 C2_3 1_555 1_555
H9_3 C2_3 1_555 1_555
C3_3 C2_3 1_555 1_555
C4_3 C3_3 1_555 1_555
H10_3 C4_3 1_555 1_555
C5_3 C4_3 1_555 1_555
H11_3 C5_3 1_555 1_555
C6_3 C5_3 1_555 1_555
C7_3 C6_3 1_555 1_555
C8_3 C3_3 1_555 1_555
C9_3 C6_3 1_555 1_555
C10_3 N2_3 1_555 1_555
H14_3 C10_3 1_555 1_555
C11_3 N2_3 1_555 1_555
H17_3 C11_3 1_555 1_555
C12_3 C11_3 1_555 1_555
C13_3 C12_3 1_555 1_555
H18_3 C13_3 1_555 1_555
C14_3 C13_3 1_555 1_555
H19_3 C14_3 1_555 1_555
C15_3 C14_3 1_555 1_555
C18_3 C15_3 1_555 1_555
C19_3 C20_3 1_555 1_555
C20_3 C21_3 1_555 1_555
C22_3 C21_3 1_555 1_555
C23_3 C22_3 1_555 1_555
C24_3 N3_3 1_555 1_555
H24_3 C24_3 1_555 1_555
H25_3 C24_3 1_555 1_555
C25_3 N3_3 1_555 1_555
H26_3 C25_3 1_555 1_555
H27_3 C25_3 1_555 1_555
C26_3 C23_3 1_555 1_555
H28_3 C26_3 1_555 1_555
C27_3 C20_3 1_555 1_555
H29_3 C27_3 1_555 1_555
O1_3 C9_3 1_555 1_555
O2_3 Sm3 1_555 1_555
O19_2 P1_3 1_555 1_555
O6_3 Sm3 1_555 1_555
O20_2 P2_3 1_555 1_555
O22 C18_3 1_555 1_555
O11_3 C19_3 1_555 1_555
H30_3 O11_3 1_555 1_555
O24 C19_3 1_555 1_555
O13_3 Sm3 1_555 1_555
O25 P3_3 1_555 1_555
O26_2 P3_3 1_555 1_555
P2_3 O6_3 1_555 1_555
P3_3 O13_3 1_555 1_555
C7_3 C8_3 1_555 1_555
C9_3 O2_3 1_555 1_555
C23_3 C24_3 1_555 1_555
C26_3 C27_3 1_555 1_555
Sm6 O4_4 1_555 1_555
P1_4 C1_4 1_555 1_555
N1_4 H1_4 1_555 1_555
C1_4 N1_4 1_555 1_555
H6_4 C1_4 1_555 1_555
H7_4 C1_4 1_555 1_555
C2_4 N1_4 1_555 1_555
C3_4 C2_4 1_555 1_555
C4_4 C3_4 1_555 1_555
H10_4 C4_4 1_555 1_555
C5_4 C4_4 1_555 1_555
H11_4 C5_4 1_555 1_555
C8_4 C3_4 1_555 1_555
O18_2 P1_4 1_555 1_555
O4_4 P1_4 1_555 1_555
O19 P1_4 1_555 1_555
O17_4 Sm6 1_555 1_555
H33_4 O17_4 1_555 1_555
H34_4 O17_4 1_555 1_555
O24_2 Sm6 1_555 1_555
C7_4 C8_4 1_555 1_555
Sm4 O1_4 1_555 1_555
P2_4 C10_4 1_555 1_555
N2_4 H2_4 1_555 1_555
H3_4 N2_4 1_555 1_555
C9_4 C6_4 1_555 1_555
C10_4 N2_4 1_555 1_555
H14_4 C10_4 1_555 1_555
H15_4 C10_4 1_555 1_555
C11_4 N2_4 1_555 1_555
H16_4 C11_4 1_555 1_555
H17_4 C11_4 1_555 1_555
C12_4 C11_4 1_555 1_555
C13_4 C12_4 1_555 1_555
H18_4 C13_4 1_555 1_555
C14_4 C13_4 1_555 1_555
H19_4 C14_4 1_555 1_555
C15_4 C14_4 1_555 1_555
C16_4 C15_4 1_555 1_555
H20_4 C16_4 1_555 1_555
C17_4 C12_4 1_555 1_555
H21_4 C17_4 1_555 1_555
C18_4 C15_4 1_555 1_555
O1_4 C9_4 1_555 1_555
O2_4 Sm4 1_555 1_555
O6_4 Sm4 1_555 1_555
O20 P2_4 1_555 1_555
O21 P2_4 1_555 1_555
O22_2 C18_4 1_555 1_555
O23_2 C18_4 1_555 1_555
O13_4 Sm4 1_555 1_555
O16_4 Sm4 1_555 1_555
H31_4 O16_4 1_555 1_555
H32_4 O16_4 1_555 1_555
O25_2 Sm4 1_555 1_555
P2_4 O6_4 1_555 1_555
C9_4 O2_4 1_555 1_555
C16_4 C17_4 1_555 1_555
C19_4 C20_4 1_555 1_555
C20_4 C21_4 1_555 1_555
C21_4 H22_4 1_555 1_555
C22_4 C21_4 1_555 1_555
H23_4 C22_4 1_555 1_555
C23_4 C22_4 1_555 1_555
C26_4 C23_4 1_555 1_555
H28_4 C26_4 1_555 1_555
C27_4 C20_4 1_555 1_555
O11_4 C19_4 1_555 1_555
H30_4 O11_4 1_555 1_555
O24_2 C19_4 1_555 1_555
C26_4 C27_4 1_555 1_555
P3_4 C25_4 1_555 1_555
N3_4 H4_4 1_555 1_555
H5_4 N3_4 1_555 1_555
C24_4 N3_4 1_555 1_555
H24_4 C24_4 1_555 1_555
H25_4 C24_4 1_555 1_555
C25_4 N3_4 1_555 1_555
H26_4 C25_4 1_555 1_555
H27_4 C25_4 1_555 1_555
O25_2 P3_4 1_555 1_555
O26 P3_4 1_555 1_555

#END
