
###############################################################################
#
# This file contains modified crystal structure data generated from the
# MOF subset of the Cambridge Structural Database (CSD) v543 
# hosted by the Cambridge Crystallographic Data Centre (CCDC).
#
# This work is licensed under the Creative Commons
# Attribution-NonCommercial-ShareAlike 4.0 International License.
# To view a copy of this license, visit
# http://creativecommons.org/licenses/by-nc-sa/4.0/
# or send a letter to
# Creative Commons, PO Box 1866, Mountain View, CA 94042, USA.
#
# CIF created using the CSD Python API on 29 September 2022
# The structure has been converted into the P1 space group
# The structure has a 3D framework
# The original CSD entry LABQAI is in the monoclinic crystal system
# The framework has been calculated to contain at least 10.0% void space
# The void calculation uses a probe of radius 1.32A, grid spacing 0.4
# The framework is charged, counterions have been retained in the structure
#
###############################################################################

data_LABQAI
_chemical_formula_moiety         '(C108 H136 Eu8 N12 O66 P12)n'
_symmetry_cell_setting           triclinic
_symmetry_space_group_name_H-M   'P 1'
_symmetry_Int_Tables_number      1
_space_group_name_Hall           'P 1'
loop_
_symmetry_equiv_pos_site_id
_symmetry_equiv_pos_as_xyz
1 x,y,z
_cell_length_a                   20.943(7)
_cell_length_b                   7.077(2)
_cell_length_c                   27.809(9)
_cell_angle_alpha                90
_cell_angle_beta                 107.309(4)
_cell_angle_gamma                90
_cell_volume                     3935.02
loop_
_atom_site_label
_atom_site_type_symbol
_atom_site_fract_x
_atom_site_fract_y
_atom_site_fract_z
H22 H 0.2328 0.0097 0.6173
H23 H 0.2507 0.0495 0.5391
Eu5 Eu 0.089156(11) 0.12717(3) 0.337765(8)
P1 P 0.08183(6) 0.04053(19) 0.72688(4)
P2 P 0.24801(6) 0.08648(18) 0.31891(5)
P3 P 0.13650(6) 0.62240(18) 0.37279(4)
N1 N 0.0454(2) 0.3426(6) 0.66435(15)
H1 H 0.0122 0.3494 0.6765
N2 N 0.3850(2) 0.0844(7) 0.33157(17)
H2 H 0.3779 0.1900 0.3127
N3 N 0.2269(2) 0.8231(7) 0.44313(16)
H4 H 0.2055 0.9268 0.4489
H5 H 0.2344 0.8389 0.4132
C1 C 0.0970(3) 0.1915(8) 0.6788(2)
H6 H 0.0961 0.1164 0.6494
H7 H 0.1410 0.2484 0.6914
C2 C 0.0562(3) 0.4826(8) 0.62679(19)
H8 H 0.0182 0.5677 0.6170
H9 H 0.0956 0.5575 0.6428
C3 C 0.0650(3) 0.3911(7) 0.58024(17)
C4 C 0.1260(3) 0.3952(9) 0.5710(2)
H10 H 0.1625 0.4508 0.5944
C5 C 0.1341(3) 0.3172(10) 0.5269(2)
H11 H 0.1758 0.3209 0.5215
C6 C 0.0812(3) 0.2353(8) 0.4918(2)
C7 C 0.0194(3) 0.2324(9) 0.5004(2)
C8 C 0.0113(3) 0.3063(9) 0.5443(2)
C9 C 0.0889(3) 0.1570(8) 0.4433(2)
C10 C 0.3343(3) 0.0734(9) 0.35955(19)
H14 H 0.3421 0.1760 0.3837
C11 C 0.4555(3) 0.0862(11) 0.3664(2)
H17 H 0.4620 0.1968 0.3879
C12 C 0.5049(3) 0.0888(10) 0.3365(2)
C13 C 0.5221(3) 0.2552(10) 0.3180(2)
H18 H 0.5072 0.3692 0.3274
C14 C 0.5614(3) 0.2564(10) 0.2853(2)
H19 H 0.5714 0.3698 0.2722
C15 C 0.5856(3) 0.0861(9) 0.2726(2)
C18 C 0.6239(3) 0.0836(9) 0.2351(2)
C19 C 0.2546(3) 0.7216(9) 0.6781(2)
C20 C 0.2662(3) 0.7402(9) 0.6279(2)
C21 C 0.2502(4) 0.9113(12) 0.6029(3)
C22 C 0.2604(5) 0.9345(12) 0.5559(2)
C23 C 0.2849(3) 0.7857(10) 0.53440(19)
C24 C 0.2928(3) 0.8113(11) 0.4828(2)
H24 H 0.3181 0.7060 0.4755
H25 H 0.3180 0.9260 0.4823
C25 C 0.1817(3) 0.6573(8) 0.43928(18)
H26 H 0.2076 0.5454 0.4528
H27 H 0.1504 0.6805 0.4583
C26 C 0.3013(4) 0.6184(10) 0.5596(2)
H28 H 0.3184 0.5199 0.5450
C27 C 0.2926(4) 0.5945(10) 0.6071(2)
H29 H 0.3045 0.4813 0.6244
O1 O 0.0378(3) 0.1256(6) 0.40704(16)
O2 O 0.1476(3) 0.1323(6) 0.44017(18)
O5 O 0.0708(2) 0.1715(6) 0.76652(14)
O6 O 0.20526(17) 0.0729(5) 0.35404(13)
O7 O 0.23963(19) 0.2682(5) 0.28970(14)
O9 O 0.63837(19) 0.2356(6) 0.21738(16)
O11 O 0.2541(3) 0.5476(7) 0.69372(17)
H30 H 0.2496 0.5477 0.7220
O12 O 0.2467(2) 0.8605(6) 0.70206(15)
O13 O 0.09820(19) 0.4398(5) 0.36912(13)
O14 O 0.09053(17) 0.7927(5) 0.35737(13)
O15 O 0.19366(19) 0.6191(6) 0.34978(13)
H34 H 0.3607 0.0208 0.8822
Eu4 Eu 0.089156(11) 0.37283(3) 0.837765(8)
Eu6 Eu 0.252000(11) 0.58672(4) 0.291850(9)
Eu8 Eu 0.748000(11) 0.08672(4) 0.208150(9)
Eu9 Eu 0.252000(11) 0.91328(4) 0.791850(9)
O19 O 0.0708(2) 0.3285(6) 0.26652(14)
O20 O 0.23963(19) 0.2318(5) 0.78970(14)
O23 O 0.3544(2) 0.0716(6) 0.77606(18)
H3 H 0.3798 0.9847 0.3107
H15 H 0.3404 0.9556 0.3782
H16 H 0.4629 0.9749 0.3877
C16 C 0.5732(3) 0.9205(10) 0.2949(3)
H20 H 0.5915 0.8074 0.2882
C17 C 0.5339(3) 0.9211(10) 0.3270(3)
H21 H 0.5268 0.8095 0.3424
O3 O 0.01980(17) 0.9272(6) 0.70157(14)
O4 O 0.14277(17) 0.9124(5) 0.74329(13)
O8 O 0.23962(19) 0.9181(5) 0.28337(13)
O10 O 0.6456(2) 0.9284(6) 0.22394(18)
O16 O 0.07829(19) 0.9308(5) 0.25520(13)
H31 H 0.0911 0.9980 0.2344
H32 H 0.1027 0.8329 0.2626
O17 O 0.3371(2) 0.9215(6) 0.87943(16)
H33 H 0.3166 0.9227 0.9016
O21 O 0.23962(19) 0.5819(5) 0.78337(13)
O22 O 0.36163(19) 0.7644(6) 0.78262(16)
O26 O 0.19366(19) 0.8809(6) 0.84978(13)
H12 H 0.9829 0.1800 0.4764
H13 H 0.9697 0.2995 0.5500
O18 O 0.98020(17) 0.0728(6) 0.29843(14)
Eu3 Eu 0.910844(11) 0.87283(3) 0.662235(8)
H12_2 H 0.0171 0.6800 0.0236
O18_2 O 0.01980(17) 0.5728(6) 0.20157(14)
H13_2 H 0.0303 0.7995 0.9500
P3_2 P 0.86350(6) 0.12240(18) 0.12721(4)
N3_2 N 0.7731(2) 0.3231(7) 0.05687(16)
H4_2 H 0.7945 0.4268 0.0511
H5_2 H 0.7656 0.3389 0.0868
C24_2 C 0.7072(3) 0.3113(11) 0.0172(2)
H24_2 H 0.6819 0.2060 0.0245
H25_2 H 0.6820 0.4260 0.0177
C25_2 C 0.8183(3) 0.1573(8) 0.06072(18)
H26_2 H 0.7924 0.0454 0.0472
H27_2 H 0.8496 0.1805 0.0417
O14_2 O 0.90947(17) 0.2927(5) 0.14263(13)
O15_2 O 0.80634(19) 0.1191(6) 0.15022(13)
Eu5_2 Eu 0.910844(11) 0.62717(3) 0.162235(8)
H8_2 H 0.9818 0.0677 0.8830
H9_2 H 0.9044 0.0575 0.8572
C19_2 C 0.7454(3) 0.2216(9) 0.8219(2)
C20_2 C 0.7338(3) 0.2402(9) 0.8721(2)
C21_2 C 0.7498(4) 0.4113(12) 0.8971(3)
H22_2 H 0.7672 0.5097 0.8827
C22_2 C 0.7396(5) 0.4345(12) 0.9441(2)
H23_2 H 0.7493 0.5495 0.9609
C23_2 C 0.7151(3) 0.2857(10) 0.96560(19)
C26_2 C 0.6987(4) 0.1184(10) 0.9404(2)
H28_2 H 0.6816 0.0199 0.9550
C27_2 C 0.7074(4) 0.0945(10) 0.8929(2)
O11_2 O 0.7459(3) 0.0476(7) 0.80628(17)
H30_2 H 0.7504 0.0477 0.7780
O12_2 O 0.7533(2) 0.3605(6) 0.79794(15)
Eu9_2 Eu 0.748000(11) 0.41328(4) 0.708150(9)
P2_2 P 0.75199(6) 0.58648(18) 0.18109(5)
N2_2 N 0.6150(2) 0.5844(7) 0.16843(17)
H2_2 H 0.6221 0.6900 0.1873
H3_2 H 0.6202 0.4847 0.1893
C6_2 C 0.9188(3) 0.7353(8) 0.0082(2)
C9_2 C 0.9111(3) 0.6570(8) 0.0567(2)
C10_2 C 0.6657(3) 0.5734(9) 0.14045(19)
H14_2 H 0.6579 0.6760 0.1163
H15_2 H 0.6596 0.4556 0.1218
C11_2 C 0.5445(3) 0.5862(11) 0.1336(2)
H16_2 H 0.5371 0.4749 0.1123
H17_2 H 0.5380 0.6968 0.1121
C12_2 C 0.4951(3) 0.5888(10) 0.1635(2)
C13_2 C 0.4779(3) 0.7552(10) 0.1820(2)
H18_2 H 0.4928 0.8692 0.1726
C14_2 C 0.4386(3) 0.7564(10) 0.2147(2)
H19_2 H 0.4286 0.8698 0.2278
C15_2 C 0.4144(3) 0.5861(9) 0.2274(2)
C16_2 C 0.4268(3) 0.4205(10) 0.2051(3)
H20_2 H 0.4085 0.3074 0.2118
C17_2 C 0.4661(3) 0.4211(10) 0.1730(3)
H21_2 H 0.4732 0.3095 0.1576
C18_2 C 0.3761(3) 0.5836(9) 0.2649(2)
O1_2 O 0.9622(3) 0.6256(6) 0.09296(16)
O2_2 O 0.8524(3) 0.6323(6) 0.05983(18)
O6_2 O 0.79474(17) 0.5729(5) 0.14596(13)
O7_2 O 0.76037(19) 0.7682(5) 0.21030(14)
O8_2 O 0.76038(19) 0.4181(5) 0.21663(13)
O9_2 O 0.36163(19) 0.7356(6) 0.28262(16)
O10_2 O 0.3544(2) 0.4284(6) 0.27606(18)
O13_2 O 0.90180(19) 0.9398(5) 0.13088(13)
O16_2 O 0.92171(19) 0.4308(5) 0.24480(13)
H31_2 H 0.9089 0.4980 0.2656
H32_2 H 0.8973 0.3329 0.2374
O19_2 O 0.9292(2) 0.8285(6) 0.23348(14)
P1_2 P 0.91817(6) 0.54053(19) 0.77312(4)
N1_2 N 0.9546(2) 0.8426(6) 0.83565(15)
H1_2 H 0.9878 0.8494 0.8235
C1_2 C 0.9030(3) 0.6915(8) 0.8212(2)
H6_2 H 0.9039 0.6164 0.8506
H7_2 H 0.8590 0.7484 0.8086
C2_2 C 0.9438(3) 0.9826(8) 0.87321(19)
C3_2 C 0.9350(3) 0.8911(7) 0.91976(17)
C4_2 C 0.8740(3) 0.8952(9) 0.9290(2)
H10_2 H 0.8375 0.9508 0.9056
C5_2 C 0.8659(3) 0.8172(10) 0.9731(2)
H11_2 H 0.8242 0.8209 0.9785
C7_2 C 0.9806(3) 0.7324(9) 0.9996(2)
C8_2 C 0.9887(3) 0.8063(9) 0.9557(2)
H29_2 H 0.6955 0.9813 0.8756
O3_2 O 0.98020(17) 0.4272(6) 0.79843(14)
O4_2 O 0.85723(17) 0.4124(5) 0.75671(13)
O5_2 O 0.9292(2) 0.6715(6) 0.73348(14)
O17_2 O 0.6629(2) 0.4215(6) 0.62057(16)
H33_2 H 0.6834 0.4227 0.5984
H34_2 H 0.6393 0.5208 0.6178
O20_2 O 0.76037(19) 0.7318(5) 0.71030(14)
O21_2 O 0.76038(19) 0.0819(5) 0.71663(13)
O22_2 O 0.63837(19) 0.2644(6) 0.71738(16)
O23_2 O 0.6456(2) 0.5716(6) 0.72394(18)
O26_2 O 0.80634(19) 0.3809(6) 0.65022(13)
H12_3 H 0.0171 0.8200 0.5236
H13_3 H 0.0303 0.7005 0.4500
H3_3 H 0.6202 0.0153 0.6893
H15_3 H 0.6596 0.0444 0.6218
H16_3 H 0.5371 0.0251 0.6123
C16_3 C 0.4268(3) 0.0795(10) 0.7051(3)
H20_3 H 0.4085 0.1926 0.7118
C17_3 C 0.4661(3) 0.0789(10) 0.6730(3)
H21_3 H 0.4732 0.1905 0.6576
O4_3 O 0.85723(17) 0.0876(5) 0.25671(13)
O16_3 O 0.92171(19) 0.0692(5) 0.74480(13)
H31_3 H 0.9089 0.0020 0.7656
H32_3 H 0.8973 0.1671 0.7374
O17_3 O 0.6629(2) 0.0785(6) 0.12057(16)
H33_3 H 0.6834 0.0773 0.0984
O24 O 0.7533(2) 0.1395(6) 0.29794(15)
O25 O 0.90947(17) 0.2073(5) 0.64263(13)
P1_3 P 0.91817(6) 0.95947(19) 0.27312(4)
P2_3 P 0.75199(6) 0.91352(18) 0.68109(5)
P3_3 P 0.86350(6) 0.37760(18) 0.62721(4)
N1_3 N 0.9546(2) 0.6574(6) 0.33565(15)
H1_3 H 0.9878 0.6506 0.3235
N2_3 N 0.6150(2) 0.9156(7) 0.66843(17)
H2_3 H 0.6221 0.8100 0.6873
N3_3 N 0.7731(2) 0.1769(7) 0.55687(16)
H4_3 H 0.7945 0.0732 0.5511
H5_3 H 0.7656 0.1611 0.5868
C1_3 C 0.9030(3) 0.8085(8) 0.3212(2)
H6_3 H 0.9039 0.8836 0.3506
H7_3 H 0.8590 0.7516 0.3086
C2_3 C 0.9438(3) 0.5174(8) 0.37321(19)
H8_3 H 0.9818 0.4323 0.3830
H9_3 H 0.9044 0.4425 0.3572
C3_3 C 0.9350(3) 0.6089(7) 0.41976(17)
C4_3 C 0.8740(3) 0.6048(9) 0.4290(2)
H10_3 H 0.8375 0.5492 0.4056
C5_3 C 0.8659(3) 0.6828(10) 0.4731(2)
H11_3 H 0.8242 0.6791 0.4785
C6_3 C 0.9188(3) 0.7647(8) 0.5082(2)
C7_3 C 0.9806(3) 0.7676(9) 0.4996(2)
C8_3 C 0.9887(3) 0.6937(9) 0.4557(2)
C9_3 C 0.9111(3) 0.8430(8) 0.5567(2)
C10_3 C 0.6657(3) 0.9266(9) 0.64045(19)
H14_3 H 0.6579 0.8240 0.6163
C11_3 C 0.5445(3) 0.9138(11) 0.6336(2)
H17_3 H 0.5380 0.8032 0.6121
C12_3 C 0.4951(3) 0.9112(10) 0.6635(2)
C13_3 C 0.4779(3) 0.7448(10) 0.6820(2)
H18_3 H 0.4928 0.6308 0.6726
C14_3 C 0.4386(3) 0.7436(10) 0.7147(2)
H19_3 H 0.4286 0.6302 0.7278
C15_3 C 0.4144(3) 0.9139(9) 0.7274(2)
C18_3 C 0.3761(3) 0.9164(9) 0.7649(2)
C19_3 C 0.7454(3) 0.2784(9) 0.3219(2)
C20_3 C 0.7338(3) 0.2598(9) 0.3721(2)
C21_3 C 0.7498(4) 0.0887(12) 0.3971(3)
C22_3 C 0.7396(5) 0.0655(12) 0.4441(2)
C23_3 C 0.7151(3) 0.2143(10) 0.46560(19)
C24_3 C 0.7072(3) 0.1887(11) 0.5172(2)
H24_3 H 0.6819 0.2940 0.5245
H25_3 H 0.6820 0.0740 0.5177
C25_3 C 0.8183(3) 0.3427(8) 0.56072(18)
H26_3 H 0.7924 0.4546 0.5472
H27_3 H 0.8496 0.3195 0.5417
C26_3 C 0.6987(4) 0.3816(10) 0.4404(2)
H28_3 H 0.6816 0.4801 0.4550
C27_3 C 0.7074(4) 0.4055(10) 0.3929(2)
H29_3 H 0.6955 0.5187 0.3756
O1_3 O 0.9622(3) 0.8744(6) 0.59296(16)
O2_3 O 0.8524(3) 0.8677(6) 0.55983(18)
O6_3 O 0.79474(17) 0.9271(5) 0.64596(13)
O11_3 O 0.7459(3) 0.4524(7) 0.30628(17)
H30_3 H 0.7504 0.4523 0.2780
O13_3 O 0.90180(19) 0.5602(5) 0.63088(13)
H34_3 H 0.6393 0.9792 0.1178
H22_3 H 0.7672 0.9903 0.3827
H23_3 H 0.7493 0.9505 0.4609
P1_4 P 0.08183(6) 0.45947(19) 0.22688(4)
N1_4 N 0.0454(2) 0.1574(6) 0.16435(15)
H1_4 H 0.0122 0.1506 0.1765
C1_4 C 0.0970(3) 0.3085(8) 0.1788(2)
H6_4 H 0.0961 0.3836 0.1494
H7_4 H 0.1410 0.2516 0.1914
C2_4 C 0.0562(3) 0.0174(8) 0.12679(19)
C3_4 C 0.0650(3) 0.1089(7) 0.08024(17)
C4_4 C 0.1260(3) 0.1048(9) 0.0710(2)
H10_4 H 0.1625 0.0492 0.0944
C5_4 C 0.1341(3) 0.1828(10) 0.0269(2)
H11_4 H 0.1758 0.1791 0.0215
C7_4 C 0.0194(3) 0.2676(9) 0.0004(2)
C8_4 C 0.0113(3) 0.1937(9) 0.0443(2)
H29_4 H 0.3045 0.0187 0.1244
O4_4 O 0.14277(17) 0.5876(5) 0.24329(13)
O17_4 O 0.3371(2) 0.5785(6) 0.37943(16)
H33_4 H 0.3166 0.5773 0.4016
H34_4 H 0.3607 0.4792 0.3822
O24_2 O 0.2467(2) 0.6395(6) 0.20206(15)
P2_4 P 0.24801(6) 0.41352(18) 0.81891(5)
N2_4 N 0.3850(2) 0.4156(7) 0.83157(17)
H2_4 H 0.3779 0.3100 0.8127
H3_4 H 0.3798 0.5153 0.8107
C6_4 C 0.0812(3) 0.2647(8) 0.9918(2)
C9_4 C 0.0889(3) 0.3430(8) 0.9433(2)
C10_4 C 0.3343(3) 0.4266(9) 0.85955(19)
H14_4 H 0.3421 0.3240 0.8837
H15_4 H 0.3404 0.5444 0.8782
C11_4 C 0.4555(3) 0.4138(11) 0.8664(2)
H16_4 H 0.4629 0.5251 0.8877
H17_4 H 0.4620 0.3032 0.8879
C12_4 C 0.5049(3) 0.4112(10) 0.8365(2)
C13_4 C 0.5221(3) 0.2448(10) 0.8180(2)
H18_4 H 0.5072 0.1308 0.8274
C14_4 C 0.5614(3) 0.2436(10) 0.7853(2)
H19_4 H 0.5714 0.1302 0.7722
C15_4 C 0.5856(3) 0.4139(9) 0.7726(2)
C16_4 C 0.5732(3) 0.5795(10) 0.7949(3)
H20_4 H 0.5915 0.6926 0.7882
C17_4 C 0.5339(3) 0.5789(10) 0.8270(3)
H21_4 H 0.5268 0.6905 0.8424
C18_4 C 0.6239(3) 0.4164(9) 0.7351(2)
O1_4 O 0.0378(3) 0.3744(6) 0.90704(16)
O2_4 O 0.1476(3) 0.3677(6) 0.94017(18)
O6_4 O 0.20526(17) 0.4271(5) 0.85404(13)
O13_4 O 0.09820(19) 0.0602(5) 0.86912(13)
O16_4 O 0.07829(19) 0.5692(5) 0.75520(13)
H31_4 H 0.0911 0.5020 0.7344
H32_4 H 0.1027 0.6671 0.7626
O25_2 O 0.09053(17) 0.7073(5) 0.85737(13)
H8_4 H 0.0182 0.9323 0.1170
H9_4 H 0.0956 0.9425 0.1428
C19_4 C 0.2546(3) 0.7784(9) 0.1781(2)
C20_4 C 0.2662(3) 0.7598(9) 0.1279(2)
C21_4 C 0.2502(4) 0.5887(12) 0.1029(3)
H22_4 H 0.2328 0.4903 0.1173
C22_4 C 0.2604(5) 0.5655(12) 0.0559(2)
H23_4 H 0.2507 0.4505 0.0391
C23_4 C 0.2849(3) 0.7143(10) 0.03440(19)
C26_4 C 0.3013(4) 0.8816(10) 0.0596(2)
H28_4 H 0.3184 0.9801 0.0450
C27_4 C 0.2926(4) 0.9055(10) 0.1071(2)
O11_4 O 0.2541(3) 0.9524(7) 0.19372(17)
H30_4 H 0.2496 0.9523 0.2220
P3_4 P 0.13650(6) 0.87760(18) 0.87279(4)
N3_4 N 0.2269(2) 0.6769(7) 0.94313(16)
H4_4 H 0.2055 0.5732 0.9489
H5_4 H 0.2344 0.6611 0.9132
C24_4 C 0.2928(3) 0.6887(11) 0.9828(2)
H24_4 H 0.3181 0.7940 0.9755
H25_4 H 0.3180 0.5740 0.9823
C25_4 C 0.1817(3) 0.8427(8) 0.93928(18)
H26_4 H 0.2076 0.9546 0.9528
H27_4 H 0.1504 0.8195 0.9583
H13_4 H 0.9697 0.2005 0.0500
H12_4 H 0.9829 0.3200 0.9764
loop_
_geom_bond_atom_site_label_1
_geom_bond_atom_site_label_2
_geom_bond_site_symmetry_1
_geom_bond_site_symmetry_2
Eu5 O1 1_555 1_555
P1 C1 1_555 1_555
P2 C10 1_555 1_555
P3 C25 1_555 1_555
N1 H1 1_555 1_555
N2 H2 1_555 1_555
N3 H4 1_555 1_555
H5 N3 1_555 1_555
C1 N1 1_555 1_555
H6 C1 1_555 1_555
H7 C1 1_555 1_555
C2 N1 1_555 1_555
H8 C2 1_555 1_555
H9 C2 1_555 1_555
C3 C2 1_555 1_555
C4 C3 1_555 1_555
H10 C4 1_555 1_555
C5 C4 1_555 1_555
H11 C5 1_555 1_555
C6 C5 1_555 1_555
C7 C6 1_555 1_555
C8 C3 1_555 1_555
C9 C6 1_555 1_555
C10 N2 1_555 1_555
H14 C10 1_555 1_555
C11 N2 1_555 1_555
H17 C11 1_555 1_555
C12 C11 1_555 1_555
C13 C12 1_555 1_555
H18 C13 1_555 1_555
C14 C13 1_555 1_555
H19 C14 1_555 1_555
C15 C14 1_555 1_555
C18 C15 1_555 1_555
C19 C20 1_555 1_555
C20 C21 1_555 1_555
C22 C21 1_555 1_555
C23 C22 1_555 1_555
C24 N3 1_555 1_555
H24 C24 1_555 1_555
H25 C24 1_555 1_555
C25 N3 1_555 1_555
H26 C25 1_555 1_555
H27 C25 1_555 1_555
C26 C23 1_555 1_555
H28 C26 1_555 1_555
C27 C20 1_555 1_555
H29 C27 1_555 1_555
O1 C9 1_555 1_555
O2 Eu5 1_555 1_555
O5 P1 1_555 1_555
O6 Eu5 1_555 1_555
O7 P2 1_555 1_555
O9 C18 1_555 1_555
O11 C19 1_555 1_555
H30 O11 1_555 1_555
O12 C19 1_555 1_555
O13 Eu5 1_555 1_555
O14 P3 1_555 1_555
O15 P3 1_555 1_555
Eu4 O5 1_555 1_555
Eu6 O7 1_555 1_555
Eu8 O9 1_555 1_555
Eu9 O12 1_555 1_555
O19 Eu5 1_555 1_555
P2 O6 1_555 1_555
P3 O13 1_555 1_555
C7 C8 1_555 1_555
C9 O2 1_555 1_555
C23 C24 1_555 1_555
C26 C27 1_555 1_555
O15 Eu6 1_555 1_555
Eu9 O4 1_555 1_555
H20 C16 1_555 1_555
H21 C17 1_555 1_555
H31 O16 1_555 1_555
H32 O16 1_555 1_555
O17 Eu9 1_555 1_555
H33 O17 1_555 1_555
Eu6 O8 1_555 1_555
O21 Eu9 1_555 1_555
O22 Eu9 1_555 1_555
O26 Eu9 1_555 1_555
C16 C17 1_555 1_555
P3_2 C25_2 1_555 1_555
N3_2 H4_2 1_555 1_555
H5_2 N3_2 1_555 1_555
C24_2 N3_2 1_555 1_555
H24_2 C24_2 1_555 1_555
H25_2 C24_2 1_555 1_555
C25_2 N3_2 1_555 1_555
H26_2 C25_2 1_555 1_555
H27_2 C25_2 1_555 1_555
O14_2 P3_2 1_555 1_555
O15_2 P3_2 1_555 1_555
Eu5_2 O14_2 1_555 1_555
O15_2 Eu8 1_555 1_555
C19_2 C20_2 1_555 1_555
C20_2 C21_2 1_555 1_555
C21_2 H22_2 1_555 1_555
C22_2 C21_2 1_555 1_555
H23_2 C22_2 1_555 1_555
C23_2 C22_2 1_555 1_555
C26_2 C23_2 1_555 1_555
H28_2 C26_2 1_555 1_555
C27_2 C20_2 1_555 1_555
O11_2 C19_2 1_555 1_555
H30_2 O11_2 1_555 1_555
O12_2 C19_2 1_555 1_555
Eu9_2 O12_2 1_555 1_555
C26_2 C27_2 1_555 1_555
Eu5_2 O1_2 1_555 1_555
P2_2 C10_2 1_555 1_555
N2_2 H2_2 1_555 1_555
H3_2 N2_2 1_555 1_555
C9_2 C6_2 1_555 1_555
C10_2 N2_2 1_555 1_555
H14_2 C10_2 1_555 1_555
H15_2 C10_2 1_555 1_555
C11_2 N2_2 1_555 1_555
H16_2 C11_2 1_555 1_555
H17_2 C11_2 1_555 1_555
C12_2 C11_2 1_555 1_555
C13_2 C12_2 1_555 1_555
H18_2 C13_2 1_555 1_555
C14_2 C13_2 1_555 1_555
H19_2 C14_2 1_555 1_555
C15_2 C14_2 1_555 1_555
C16_2 C15_2 1_555 1_555
H20_2 C16_2 1_555 1_555
C17_2 C12_2 1_555 1_555
H21_2 C17_2 1_555 1_555
C18_2 C15_2 1_555 1_555
O1_2 C9_2 1_555 1_555
O2_2 Eu5_2 1_555 1_555
O6_2 Eu5_2 1_555 1_555
O7_2 P2_2 1_555 1_555
O8_2 P2_2 1_555 1_555
O9_2 C18_2 1_555 1_555
O10_2 C18_2 1_555 1_555
O13_2 Eu5_2 1_555 1_555
O16_2 Eu5_2 1_555 1_555
H31_2 O16_2 1_555 1_555
H32_2 O16_2 1_555 1_555
Eu8 O8_2 1_555 1_555
Eu6 O9_2 1_555 1_555
O19_2 Eu5_2 1_555 1_555
P2_2 O6_2 1_555 1_555
C9_2 O2_2 1_555 1_555
C16_2 C17_2 1_555 1_555
O10_2 Eu6 1_555 1_555
Eu9_2 O4_2 1_555 1_555
P1_2 C1_2 1_555 1_555
N1_2 H1_2 1_555 1_555
C1_2 N1_2 1_555 1_555
H6_2 C1_2 1_555 1_555
H7_2 C1_2 1_555 1_555
C2_2 N1_2 1_555 1_555
C3_2 C2_2 1_555 1_555
C4_2 C3_2 1_555 1_555
H10_2 C4_2 1_555 1_555
C5_2 C4_2 1_555 1_555
H11_2 C5_2 1_555 1_555
C8_2 C3_2 1_555 1_555
O3_2 P1_2 1_555 1_555
O4_2 P1_2 1_555 1_555
O5_2 P1_2 1_555 1_555
O17_2 Eu9_2 1_555 1_555
H33_2 O17_2 1_555 1_555
H34_2 O17_2 1_555 1_555
Eu3 O5_2 1_555 1_555
O20_2 Eu9_2 1_555 1_555
O21_2 Eu9_2 1_555 1_555
O22_2 Eu9_2 1_555 1_555
O23_2 Eu9_2 1_555 1_555
O26_2 Eu9_2 1_555 1_555
C7_2 C8_2 1_555 1_555
Eu8 O4_3 1_555 1_555
H20_3 C16_3 1_555 1_555
H21_3 C17_3 1_555 1_555
H31_3 O16_3 1_555 1_555
H32_3 O16_3 1_555 1_555
O17_3 Eu8 1_555 1_555
H33_3 O17_3 1_555 1_555
O24 Eu8 1_555 1_555
C16_3 C17_3 1_555 1_555
Eu3 O1_3 1_555 1_555
P1_3 C1_3 1_555 1_555
P2_3 C10_3 1_555 1_555
P3_3 C25_3 1_555 1_555
N1_3 H1_3 1_555 1_555
N2_3 H2_3 1_555 1_555
N3_3 H4_3 1_555 1_555
H5_3 N3_3 1_555 1_555
C1_3 N1_3 1_555 1_555
H6_3 C1_3 1_555 1_555
H7_3 C1_3 1_555 1_555
C2_3 N1_3 1_555 1_555
H8_3 C2_3 1_555 1_555
H9_3 C2_3 1_555 1_555
C3_3 C2_3 1_555 1_555
C4_3 C3_3 1_555 1_555
H10_3 C4_3 1_555 1_555
C5_3 C4_3 1_555 1_555
H11_3 C5_3 1_555 1_555
C6_3 C5_3 1_555 1_555
C7_3 C6_3 1_555 1_555
C8_3 C3_3 1_555 1_555
C9_3 C6_3 1_555 1_555
C10_3 N2_3 1_555 1_555
H14_3 C10_3 1_555 1_555
C11_3 N2_3 1_555 1_555
H17_3 C11_3 1_555 1_555
C12_3 C11_3 1_555 1_555
C13_3 C12_3 1_555 1_555
H18_3 C13_3 1_555 1_555
C14_3 C13_3 1_555 1_555
H19_3 C14_3 1_555 1_555
C15_3 C14_3 1_555 1_555
C18_3 C15_3 1_555 1_555
C19_3 C20_3 1_555 1_555
C20_3 C21_3 1_555 1_555
C22_3 C21_3 1_555 1_555
C23_3 C22_3 1_555 1_555
C24_3 N3_3 1_555 1_555
H24_3 C24_3 1_555 1_555
H25_3 C24_3 1_555 1_555
C25_3 N3_3 1_555 1_555
H26_3 C25_3 1_555 1_555
H27_3 C25_3 1_555 1_555
C26_3 C23_3 1_555 1_555
H28_3 C26_3 1_555 1_555
C27_3 C20_3 1_555 1_555
H29_3 C27_3 1_555 1_555
O1_3 C9_3 1_555 1_555
O2_3 Eu3 1_555 1_555
O19_2 P1_3 1_555 1_555
O6_3 Eu3 1_555 1_555
O20_2 P2_3 1_555 1_555
O22 C18_3 1_555 1_555
O11_3 C19_3 1_555 1_555
H30_3 O11_3 1_555 1_555
O24 C19_3 1_555 1_555
O13_3 Eu3 1_555 1_555
O25 P3_3 1_555 1_555
O26_2 P3_3 1_555 1_555
P2_3 O6_3 1_555 1_555
P3_3 O13_3 1_555 1_555
C7_3 C8_3 1_555 1_555
C9_3 O2_3 1_555 1_555
C23_3 C24_3 1_555 1_555
C26_3 C27_3 1_555 1_555
Eu6 O4_4 1_555 1_555
P1_4 C1_4 1_555 1_555
N1_4 H1_4 1_555 1_555
C1_4 N1_4 1_555 1_555
H6_4 C1_4 1_555 1_555
H7_4 C1_4 1_555 1_555
C2_4 N1_4 1_555 1_555
C3_4 C2_4 1_555 1_555
C4_4 C3_4 1_555 1_555
H10_4 C4_4 1_555 1_555
C5_4 C4_4 1_555 1_555
H11_4 C5_4 1_555 1_555
C8_4 C3_4 1_555 1_555
O18_2 P1_4 1_555 1_555
O4_4 P1_4 1_555 1_555
O19 P1_4 1_555 1_555
O17_4 Eu6 1_555 1_555
H33_4 O17_4 1_555 1_555
H34_4 O17_4 1_555 1_555
O24_2 Eu6 1_555 1_555
C7_4 C8_4 1_555 1_555
Eu4 O1_4 1_555 1_555
P2_4 C10_4 1_555 1_555
N2_4 H2_4 1_555 1_555
H3_4 N2_4 1_555 1_555
C9_4 C6_4 1_555 1_555
C10_4 N2_4 1_555 1_555
H14_4 C10_4 1_555 1_555
H15_4 C10_4 1_555 1_555
C11_4 N2_4 1_555 1_555
H16_4 C11_4 1_555 1_555
H17_4 C11_4 1_555 1_555
C12_4 C11_4 1_555 1_555
C13_4 C12_4 1_555 1_555
H18_4 C13_4 1_555 1_555
C14_4 C13_4 1_555 1_555
H19_4 C14_4 1_555 1_555
C15_4 C14_4 1_555 1_555
C16_4 C15_4 1_555 1_555
H20_4 C16_4 1_555 1_555
C17_4 C12_4 1_555 1_555
H21_4 C17_4 1_555 1_555
C18_4 C15_4 1_555 1_555
O1_4 C9_4 1_555 1_555
O2_4 Eu4 1_555 1_555
O6_4 Eu4 1_555 1_555
O20 P2_4 1_555 1_555
O21 P2_4 1_555 1_555
O22_2 C18_4 1_555 1_555
O23_2 C18_4 1_555 1_555
O13_4 Eu4 1_555 1_555
O16_4 Eu4 1_555 1_555
H31_4 O16_4 1_555 1_555
H32_4 O16_4 1_555 1_555
O25_2 Eu4 1_555 1_555
P2_4 O6_4 1_555 1_555
C9_4 O2_4 1_555 1_555
C16_4 C17_4 1_555 1_555
C19_4 C20_4 1_555 1_555
C20_4 C21_4 1_555 1_555
C21_4 H22_4 1_555 1_555
C22_4 C21_4 1_555 1_555
H23_4 C22_4 1_555 1_555
C23_4 C22_4 1_555 1_555
C26_4 C23_4 1_555 1_555
H28_4 C26_4 1_555 1_555
C27_4 C20_4 1_555 1_555
O11_4 C19_4 1_555 1_555
H30_4 O11_4 1_555 1_555
O24_2 C19_4 1_555 1_555
C26_4 C27_4 1_555 1_555
P3_4 C25_4 1_555 1_555
N3_4 H4_4 1_555 1_555
H5_4 N3_4 1_555 1_555
C24_4 N3_4 1_555 1_555
H24_4 C24_4 1_555 1_555
H25_4 C24_4 1_555 1_555
C25_4 N3_4 1_555 1_555
H26_4 C25_4 1_555 1_555
H27_4 C25_4 1_555 1_555
O25_2 P3_4 1_555 1_555
O26 P3_4 1_555 1_555

#END
