
###############################################################################
#
# This file contains modified crystal structure data generated from the
# MOF subset of the Cambridge Structural Database (CSD) v543 
# hosted by the Cambridge Crystallographic Data Centre (CCDC).
#
# This work is licensed under the Creative Commons
# Attribution-NonCommercial-ShareAlike 4.0 International License.
# To view a copy of this license, visit
# http://creativecommons.org/licenses/by-nc-sa/4.0/
# or send a letter to
# Creative Commons, PO Box 1866, Mountain View, CA 94042, USA.
#
# CIF created using the CSD Python API on 29 September 2022
# The structure has been converted into the P1 space group
# The structure has a 3D framework
# The original CSD entry LABRUE is in the monoclinic crystal system
# The framework has been calculated to contain at least 10.0% void space
# The void calculation uses a probe of radius 1.32A, grid spacing 0.4
# The framework is charged, counterions have been retained in the structure
# H atom positions have been added when not included in the experimental data
# Generated hydrogen atom positions removed from atoms on special positions
#
###############################################################################

data_LABRUE
_chemical_formula_moiety         '(C552 H440 Co30 N24 O128 4+)n'
_symmetry_cell_setting           triclinic
_symmetry_space_group_name_H-M   'P 1'
_symmetry_Int_Tables_number      1
_space_group_name_Hall           'P 1'
loop_
_symmetry_equiv_pos_site_id
_symmetry_equiv_pos_as_xyz
1 x,y,z
_cell_length_a                   29.689(3)
_cell_length_b                   19.3120(16)
_cell_length_c                   29.424(3)
_cell_angle_alpha                90
_cell_angle_beta                 107.2920(10)
_cell_angle_gamma                90
_cell_volume                     16107.9
loop_
_atom_site_label
_atom_site_type_symbol
_atom_site_fract_x
_atom_site_fract_y
_atom_site_fract_z
C1 C 0.27789(12) 0.28772(17) 0.29223(12)
C3 C 0.39464(13) 0.22310(18) 0.28304(15)
H1 H 0.4056 0.1881 0.2674
C4 C 0.27614(11) 0.14988(17) 0.36293(11)
C5 C 0.20185(13) 0.19424(19) 0.48980(13)
H2 H 0.1953 0.2414 0.4864
C6 C 0.32977(12) 0.28245(17) 0.29942(13)
C10 C 0.47498(13) 0.0929(2) 0.44889(13)
C12 C 0.55155(14) 0.3179(2) 0.31970(16)
C13 C 0.34781(13) 0.1411(2) 0.43396(12)
H4 H 0.3296 0.1561 0.4529
C14 C 0.35457(12) 0.10881(18) 0.35749(11)
H5 H 0.3408 0.1007 0.3252
C15 C 0.21955(13) 0.09538(19) 0.54039(13)
C16 C 0.64971(12) 0.57465(18) 0.31489(13)
C17 C 0.32721(12) 0.13205(18) 0.38517(12)
C18 C 0.34667(12) 0.23097(18) 0.27565(14)
H6 H 0.3256 0.2017 0.2547
C19 C 0.50428(14) 0.32160(19) 0.31917(18)
H7 H 0.4903 0.3646 0.3192
C20 C 0.64794(12) 0.21000(18) 0.70140(12)
H9 H 0.6340 0.0133 0.4521
C23 C 0.42375(12) 0.10700(19) 0.42658(13)
C24 C 0.56911(13) 0.12322(19) 0.31991(15)
C26 C 0.20994(14) 0.16486(19) 0.53439(13)
H11 H 0.2089 0.1920 0.5601
C27 C 0.40255(12) 0.09753(19) 0.37782(13)
H12 H 0.4208 0.0835 0.3587
C28 C 0.47815(13) 0.2621(2) 0.31856(16)
C29 C 0.42670(13) 0.26762(18) 0.31400(15)
C30 C 0.49970(13) 0.19792(19) 0.31979(17)
H13 H 0.4824 0.1579 0.3203
C31 C 0.36195(13) 0.32596(19) 0.33109(16)
H14 H 0.3511 0.3598 0.3477
C32 C 0.22420(13) 0.0616(2) 0.58667(12)
H15 H 0.2266 0.0899 0.6129
C34 C 0.49991(13) 0.1265(2) 0.49051(13)
H16 H 0.4852 0.1612 0.5029
C35 C 0.57187(13) 0.25299(19) 0.31979(15)
H17 H 0.6030 0.2502 0.3195
C36 C 0.57249(13) 0.1378(2) 0.56131(14)
C37 C 0.39533(13) 0.1278(2) 0.45424(13)
H18 H 0.4086 0.1329 0.4869
C38 C 0.62161(13) 0.1862(2) 0.65196(13)
C39 C 0.54703(13) 0.19242(19) 0.32033(16)
C40 C 0.54212(13) 0.0638(2) 0.30640(15)
H19 H 0.5095 0.0669 0.2991
C41 C 0.49776(13) 0.0435(2) 0.42929(13)
H20 H 0.4814 0.0217 0.4011
C43 C 0.57005(15) 0.2071(2) 0.57303(14)
H22 H 0.5515 0.2375 0.5507
H23 H 0.2269 0.0387 0.6814
C45 C 0.56244(14) 0.0004(2) 0.30343(16)
C46 C 0.56848(13) 0.0590(2) 0.49367(14)
H25 H 0.5997 0.0474 0.5089
C48 C 0.40971(14) 0.3187(2) 0.33764(17)
H27 H 0.4308 0.3485 0.3582
C50 C 0.54631(13) 0.1092(2) 0.51386(14)
C51 C 0.22354(17) 0.0593(2) 0.50104(14)
H28 H 0.2321 0.0128 0.5039
C53 C 0.60086(15) 0.3937(2) 0.28466(17)
H30 H 0.6014 0.3587 0.2632
C54 C 0.54480(13) 0.0261(2) 0.45126(14)
C55 C 0.6026(2) 0.4964(3) 0.3500(2)
H31 H 0.6041 0.5301 0.3730
C56 C 0.59934(14) 0.0935(2) 0.59577(14)
H32 H 0.6012 0.0469 0.5884
C57 C 0.57799(13) 0.38294(19) 0.31831(16)
C58 C 0.62338(14) 0.1166(2) 0.64081(13)
H33 H 0.6407 0.0857 0.6636
C59 C 0.21502(17) 0.0919(2) 0.45819(15)
H34 H 0.2177 0.0663 0.4324
C60 C 0.62442(13) 0.50737(19) 0.31497(14)
C61 C 0.59516(15) 0.2316(2) 0.61792(13)
H35 H 0.5942 0.2783 0.6251
C62 C 0.61781(14) 0.1157(2) 0.3319(2)
H36 H 0.6370 0.1542 0.3422
C63 C 0.63835(14) 0.0523(2) 0.32887(18)
H37 H 0.6710 0.0489 0.3372
C64 C 0.62318(14) 0.4562(2) 0.28224(15)
H38 H 0.6373 0.4634 0.2584
C65 C 0.5784(2) 0.4352(3) 0.3505(3)
H39 H 0.5623 0.4291 0.3729
Co1 Co 0.200919(15) 0.17458(2) 0.269699(14)
Co2 Co 0.188937(15) 0.19907(2) 0.381138(15)
Co3 Co 0.192835(15) 0.33214(2) 0.299562(15)
N1 N 0.20301(11) 0.15848(16) 0.45130(10)
O1 O 0.64772(9) 0.27309(13) 0.71160(8)
O2 O 0.66839(9) 0.16246(12) 0.72922(8)
O3 O 0.25145(8) 0.24703(12) 0.26309(8)
O4 O 0.26324(8) 0.33272(12) 0.31601(8)
O5 O 0.65564(8) 0.59439(13) 0.27626(8)
O6 O 0.66284(10) 0.60547(13) 0.35416(9)
O7 O 0.25619(8) 0.12876(12) 0.32174(8)
O8 O 0.25801(8) 0.18737(13) 0.38807(8)
O9 O 0.17484(8) 0.23818(11) 0.31260(7)
Co4 Co 0.700919(15) 0.67458(2) 0.269699(14)
Co6 Co 0.700919(15) 0.32542(2) 0.769699(14)
Co8 Co 0.688937(15) 0.69907(2) 0.381138(15)
Co10 Co 0.692835(15) 0.16786(2) 0.799562(15)
N3 N 0.21756(10) 0.11747(15) 0.21575(10)
O14 O 0.14772(9) 0.22691(13) 0.21160(8)
O15 O 0.16839(9) 0.33754(12) 0.22922(8)
O16 O 0.15564(8) 0.09439(13) 0.27626(8)
O17 O 0.16284(10) 0.10547(13) 0.35416(9)
O18 O 0.18593(8) 0.30210(12) 0.40485(9)
O19 O 0.12067(9) 0.24219(13) 0.38241(9)
O20 O 0.17763(9) 0.42329(13) 0.32159(9)
C2 C 0.63308(13) 0.92624(19) 0.30891(13)
C7 C 0.61592(12) 0.85864(19) 0.40837(12)
C8 C 0.61120(13) 0.99414(19) 0.31375(13)
C9 C 0.64204(12) 0.79828(18) 0.39748(12)
C11 C 0.64063(12) 0.9186(2) 0.42723(13)
H3 H 0.6729 0.9213 0.4316
C21 C 0.56755(13) 0.8559(2) 0.40005(13)
H8 H 0.5508 0.8167 0.3862
C22 C 0.61731(13) 0.9735(2) 0.43938(13)
C25 C 0.22512(15) 0.9944(2) 0.59315(13)
H10 H 0.2259 0.9670 0.5674
C33 C 0.22507(13) 0.9582(2) 0.63680(13)
C42 C 0.22053(15) 0.8508(2) 0.67652(13)
H21 H 0.2202 0.8026 0.6759
C44 C 0.22461(13) 0.99078(19) 0.67889(13)
H24 H 0.5434 0.9614 0.2945
C47 C 0.54405(13) 0.9115(2) 0.41232(13)
H26 H 0.5116 0.9093 0.4067
C49 C 0.56873(13) 0.9707(2) 0.43298(13)
C52 C 0.22081(13) 0.95203(18) 0.71656(12)
H29 H 0.2205 0.9750 0.7442
C66 C 0.22412(16) 0.8859(2) 0.63662(14)
H40 H 0.2259 0.8615 0.6100
N2 N 0.21756(10) 0.88253(15) 0.71575(10)
O10 O 0.68593(8) 0.80210(12) 0.40485(9)
O11 O 0.62067(9) 0.74219(13) 0.38241(9)
O12 O 0.67763(9) 0.92329(13) 0.32159(9)
O13 O 0.60845(10) 0.87519(15) 0.29186(12)
Co5 Co 0.200919(15) 0.82542(2) 0.769699(14)
Co9 Co 0.692835(15) 0.83214(2) 0.299562(15)
C16_2 C 0.14971(12) 0.07465(18) 0.31489(13)
H31_2 H 0.1041 0.0301 0.3730
C60_2 C 0.12442(13) 0.00737(19) 0.31497(14)
C2_2 C 0.13308(13) 0.42624(19) 0.30891(13)
C7_2 C 0.11592(12) 0.35864(19) 0.40837(12)
C8_2 C 0.11120(13) 0.49414(19) 0.31375(13)
C9_2 C 0.14204(12) 0.29828(18) 0.39748(12)
C11_2 C 0.14063(12) 0.4186(2) 0.42723(13)
H3_2 H 0.1729 0.4213 0.4316
C12_2 C 0.05155(14) 0.8179(2) 0.31970(16)
C19_2 C 0.00428(14) 0.82160(19) 0.31917(18)
C20_2 C 0.14794(12) 0.71000(18) 0.70140(12)
C21_2 C 0.06755(13) 0.3559(2) 0.40005(13)
H8_2 H 0.0508 0.3167 0.3862
C22_2 C 0.11731(13) 0.4735(2) 0.43938(13)
H9_2 H 0.1340 0.5133 0.4521
C24_2 C 0.06911(13) 0.62322(19) 0.31991(15)
C35_2 C 0.07187(13) 0.75299(19) 0.31979(15)
H17_2 H 0.1030 0.7502 0.3195
C36_2 C 0.07249(13) 0.6378(2) 0.56131(14)
C38_2 C 0.12161(13) 0.6862(2) 0.65196(13)
C39_2 C 0.04703(13) 0.69242(19) 0.32033(16)
C40_2 C 0.04212(13) 0.5638(2) 0.30640(15)
H19_2 H 0.0095 0.5669 0.2991
C43_2 C 0.07005(15) 0.7071(2) 0.57303(14)
H22_2 H 0.0515 0.7375 0.5507
C45_2 C 0.06244(14) 0.5004(2) 0.30343(16)
H24_2 H 0.0434 0.4614 0.2945
C46_2 C 0.06848(13) 0.5590(2) 0.49367(14)
H25_2 H 0.0997 0.5474 0.5089
C47_2 C 0.04405(13) 0.4115(2) 0.41232(13)
H26_2 H 0.0116 0.4093 0.4067
C49_2 C 0.06873(13) 0.4707(2) 0.43298(13)
C50_2 C 0.04631(13) 0.6092(2) 0.51386(14)
C53_2 C 0.10086(15) 0.8937(2) 0.28466(17)
H30_2 H 0.1014 0.8587 0.2632
C54_2 C 0.04480(13) 0.5261(2) 0.45126(14)
C55_2 C 0.1026(2) 0.9964(3) 0.3500(2)
C56_2 C 0.09934(14) 0.5935(2) 0.59577(14)
H32_2 H 0.1012 0.5469 0.5884
C57_2 C 0.07799(13) 0.88294(19) 0.31831(16)
C58_2 C 0.12338(14) 0.6166(2) 0.64081(13)
H33_2 H 0.1407 0.5857 0.6636
C61_2 C 0.09516(15) 0.7316(2) 0.61792(13)
H35_2 H 0.0942 0.7783 0.6251
C62_2 C 0.11781(14) 0.6157(2) 0.3319(2)
H36_2 H 0.1370 0.6542 0.3422
C63_2 C 0.13835(14) 0.5523(2) 0.32887(18)
H37_2 H 0.1710 0.5489 0.3372
C64_2 C 0.12318(14) 0.9562(2) 0.28224(15)
H38_2 H 0.1373 0.9634 0.2584
C65_2 C 0.0784(2) 0.9352(3) 0.3505(3)
H39_2 H 0.0623 0.9291 0.3729
O1_2 O 0.14772(9) 0.77309(13) 0.71160(8)
O2_2 O 0.16839(9) 0.66246(12) 0.72922(8)
O13_2 O 0.10845(10) 0.37519(15) 0.29186(12)
Co10_2 Co 0.192835(15) 0.66786(2) 0.799562(15)
C1_2 C 0.77789(12) 0.78772(17) 0.29223(12)
C3_2 C 0.89464(13) 0.72310(18) 0.28304(15)
H1_2 H 0.9056 0.6881 0.2674
C4_2 C 0.77614(11) 0.64988(17) 0.36293(11)
C5_2 C 0.70185(13) 0.69424(19) 0.48980(13)
H2_2 H 0.6953 0.7414 0.4864
C6_2 C 0.82977(12) 0.78245(17) 0.29942(13)
C10_2 C 0.97498(13) 0.5929(2) 0.44889(13)
C13_2 C 0.84781(13) 0.6411(2) 0.43396(12)
H4_2 H 0.8296 0.6561 0.4529
C14_2 C 0.85457(12) 0.60881(18) 0.35749(11)
H5_2 H 0.8408 0.6007 0.3252
C15_2 C 0.71955(13) 0.59538(19) 0.54039(13)
C17_2 C 0.82721(12) 0.63205(18) 0.38517(12)
C18_2 C 0.84667(12) 0.73097(18) 0.27565(14)
H6_2 H 0.8256 0.7017 0.2547
H7_2 H 0.9903 0.8646 0.3192
C23_2 C 0.92375(12) 0.60700(19) 0.42658(13)
C25_2 C 0.72512(15) 0.4944(2) 0.59315(13)
H10_2 H 0.7259 0.4670 0.5674
C26_2 C 0.70994(14) 0.66486(19) 0.53439(13)
H11_2 H 0.7089 0.6920 0.5601
C27_2 C 0.90255(12) 0.59753(19) 0.37782(13)
H12_2 H 0.9208 0.5835 0.3587
C28_2 C 0.97815(13) 0.7621(2) 0.31856(16)
C29_2 C 0.92670(13) 0.76762(18) 0.31400(15)
C30_2 C 0.99970(13) 0.69792(19) 0.31979(17)
H13_2 H 0.9824 0.6579 0.3203
C31_2 C 0.86195(13) 0.82596(19) 0.33109(16)
H14_2 H 0.8511 0.8598 0.3477
C32_2 C 0.72420(13) 0.5616(2) 0.58667(12)
H15_2 H 0.7266 0.5899 0.6129
C33_2 C 0.72507(13) 0.4582(2) 0.63680(13)
C34_2 C 0.99991(13) 0.6265(2) 0.49051(13)
H16_2 H 0.9852 0.6612 0.5029
C37_2 C 0.89533(13) 0.6278(2) 0.45424(13)
H18_2 H 0.9086 0.6329 0.4869
C41_2 C 0.99776(13) 0.5435(2) 0.42929(13)
H20_2 H 0.9814 0.5217 0.4011
C42_2 C 0.72053(15) 0.3508(2) 0.67652(13)
H21_2 H 0.7202 0.3026 0.6759
C44_2 C 0.72461(13) 0.49078(19) 0.67889(13)
H23_2 H 0.7269 0.5387 0.6814
C48_2 C 0.90971(14) 0.8187(2) 0.33764(17)
H27_2 H 0.9308 0.8485 0.3582
C51_2 C 0.72354(17) 0.5593(2) 0.50104(14)
H28_2 H 0.7321 0.5128 0.5039
C52_2 C 0.72081(13) 0.45203(18) 0.71656(12)
H29_2 H 0.7205 0.4750 0.7442
C59_2 C 0.71502(17) 0.5919(2) 0.45819(15)
H34_2 H 0.7177 0.5663 0.4324
C66_2 C 0.72412(16) 0.3859(2) 0.63662(14)
H40_2 H 0.7259 0.3615 0.6100
N1_2 N 0.70301(11) 0.65848(16) 0.45130(10)
N2_2 N 0.71756(10) 0.38253(15) 0.71575(10)
O3_2 O 0.75145(8) 0.74703(12) 0.26309(8)
O4_2 O 0.76324(8) 0.83272(12) 0.31601(8)
O7_2 O 0.75619(8) 0.62876(12) 0.32174(8)
O8_2 O 0.75801(8) 0.68737(13) 0.38807(8)
O9_2 O 0.67484(8) 0.73818(11) 0.31260(7)
N3_2 N 0.71756(10) 0.61747(15) 0.21575(10)
O14_2 O 0.64772(9) 0.72691(13) 0.21160(8)
O15_2 O 0.66839(9) 0.83754(12) 0.22922(8)
C25_3 C 0.22512(15) 0.0056(2) 0.09315(13)
H10_3 H 0.2259 0.0330 0.0674
C33_3 C 0.22507(13) 0.0418(2) 0.13680(13)
C42_3 C 0.22053(15) 0.1492(2) 0.17652(13)
H21_3 H 0.2202 0.1974 0.1759
C44_3 C 0.22461(13) 0.00922(19) 0.17889(13)
C52_3 C 0.22081(13) 0.04797(18) 0.21656(12)
H29_3 H 0.2205 0.0250 0.2442
C66_3 C 0.22412(16) 0.1141(2) 0.13662(14)
H40_3 H 0.2259 0.1385 0.1100
C2_3 C 0.63308(13) 0.07376(19) 0.80891(13)
C7_3 C 0.61592(12) 0.14136(19) 0.90837(12)
C8_3 C 0.61120(13) 0.00586(19) 0.81375(13)
C9_3 C 0.64204(12) 0.20172(18) 0.89748(12)
C11_3 C 0.64063(12) 0.0814(2) 0.92723(13)
H3_3 H 0.6729 0.0787 0.9316
C21_3 C 0.56755(13) 0.1441(2) 0.90005(13)
H8_3 H 0.5508 0.1833 0.8862
C22_3 C 0.61731(13) 0.0265(2) 0.93938(13)
H24_3 H 0.5434 0.0386 0.7945
C47_3 C 0.54405(13) 0.0885(2) 0.91232(13)
H26_3 H 0.5116 0.0907 0.9067
C49_3 C 0.56873(13) 0.0293(2) 0.93298(13)
O10_2 O 0.68593(8) 0.19790(12) 0.90485(9)
O11_2 O 0.62067(9) 0.25781(13) 0.88241(9)
O12_2 O 0.67763(9) 0.07671(13) 0.82159(9)
O13_3 O 0.60845(10) 0.12481(15) 0.79186(12)
Co7 Co 0.688937(15) 0.30093(2) 0.881138(15)
C15_3 C 0.21955(13) 0.90462(19) 0.04039(13)
C20_3 C 0.64794(12) 0.79000(18) 0.20140(12)
C26_3 C 0.20994(14) 0.83514(19) 0.03439(13)
H11_3 H 0.2089 0.8080 0.0601
C32_3 C 0.22420(13) 0.9384(2) 0.08667(12)
H15_3 H 0.2266 0.9101 0.1129
H16_3 H 0.4852 0.8388 0.0029
C36_3 C 0.57249(13) 0.8622(2) 0.06131(14)
C38_3 C 0.62161(13) 0.8138(2) 0.15196(13)
C43_3 C 0.57005(15) 0.7929(2) 0.07303(14)
H22_3 H 0.5515 0.7625 0.0507
H23_3 H 0.2269 0.9613 0.1814
H25_3 H 0.5997 0.9526 0.0089
C50_3 C 0.54631(13) 0.8908(2) 0.01386(14)
C51_3 C 0.22354(17) 0.9407(2) 0.00104(14)
H28_3 H 0.2321 0.9872 0.0039
C56_3 C 0.59934(14) 0.9065(2) 0.09577(14)
H32_3 H 0.6012 0.9531 0.0884
C58_3 C 0.62338(14) 0.8834(2) 0.14081(13)
H33_3 H 0.6407 0.9143 0.1636
C61_3 C 0.59516(15) 0.7684(2) 0.11792(13)
H35_3 H 0.5942 0.7217 0.1251
C1_3 C 0.27789(12) 0.71228(17) 0.79223(12)
C3_3 C 0.39464(13) 0.77690(18) 0.78304(15)
H1_3 H 0.4056 0.8119 0.7674
C4_3 C 0.27614(11) 0.85012(17) 0.86293(11)
C5_3 C 0.20185(13) 0.80576(19) 0.98980(13)
H2_3 H 0.1953 0.7586 0.9864
C6_3 C 0.32977(12) 0.71755(17) 0.79942(13)
C10_3 C 0.47498(13) 0.9071(2) 0.94889(13)
C12_3 C 0.55155(14) 0.6821(2) 0.81970(16)
C13_3 C 0.34781(13) 0.8589(2) 0.93396(12)
H4_3 H 0.3296 0.8439 0.9529
C14_3 C 0.35457(12) 0.89119(18) 0.85749(11)
H5_3 H 0.3408 0.8993 0.8252
C16_3 C 0.64971(12) 0.42535(18) 0.81489(13)
C17_3 C 0.32721(12) 0.86795(18) 0.88517(12)
C18_3 C 0.34667(12) 0.76903(18) 0.77565(14)
H6_3 H 0.3256 0.7983 0.7547
C19_3 C 0.50428(14) 0.67840(19) 0.81917(18)
H7_3 H 0.4903 0.6354 0.8192
H9_3 H 0.6340 0.9867 0.9521
C23_3 C 0.42375(12) 0.89300(19) 0.92658(13)
C24_3 C 0.56911(13) 0.87678(19) 0.81991(15)
C27_3 C 0.40255(12) 0.90247(19) 0.87782(13)
H12_3 H 0.4208 0.9165 0.8587
C28_3 C 0.47815(13) 0.7379(2) 0.81856(16)
C29_3 C 0.42670(13) 0.73238(18) 0.81400(15)
C30_3 C 0.49970(13) 0.80208(19) 0.81979(17)
H13_3 H 0.4824 0.8421 0.8203
C31_3 C 0.36195(13) 0.67404(19) 0.83109(16)
H14_3 H 0.3511 0.6402 0.8477
C34_3 C 0.49991(13) 0.8735(2) 0.99051(13)
C35_3 C 0.57187(13) 0.74701(19) 0.81979(15)
H17_3 H 0.6030 0.7498 0.8195
C37_3 C 0.39533(13) 0.8722(2) 0.95424(13)
H18_3 H 0.4086 0.8671 0.9869
C39_3 C 0.54703(13) 0.80758(19) 0.82033(16)
C40_3 C 0.54212(13) 0.9362(2) 0.80640(15)
H19_3 H 0.5095 0.9331 0.7991
C41_3 C 0.49776(13) 0.9565(2) 0.92929(13)
H20_3 H 0.4814 0.9783 0.9011
C45_3 C 0.56244(14) 0.9996(2) 0.80343(16)
C46_3 C 0.56848(13) 0.9410(2) 0.99367(14)
C48_3 C 0.40971(14) 0.6813(2) 0.83764(17)
H27_3 H 0.4308 0.6515 0.8582
C53_3 C 0.60086(15) 0.6063(2) 0.78466(17)
H30_3 H 0.6014 0.6413 0.7632
C54_3 C 0.54480(13) 0.9739(2) 0.95126(14)
C55_3 C 0.6026(2) 0.5036(3) 0.8500(2)
H31_3 H 0.6041 0.4699 0.8730
C57_3 C 0.57799(13) 0.61706(19) 0.81831(16)
C59_3 C 0.21502(17) 0.9081(2) 0.95819(15)
H34_3 H 0.2177 0.9337 0.9324
C60_3 C 0.62442(13) 0.49263(19) 0.81497(14)
C62_3 C 0.61781(14) 0.8843(2) 0.8319(2)
H36_3 H 0.6370 0.8458 0.8422
C63_3 C 0.63835(14) 0.9477(2) 0.82887(18)
H37_3 H 0.6710 0.9511 0.8372
C64_3 C 0.62318(14) 0.5438(2) 0.78224(15)
H38_3 H 0.6373 0.5366 0.7584
C65_3 C 0.5784(2) 0.5648(3) 0.8505(3)
H39_3 H 0.5623 0.5709 0.8729
Co2_2 Co 0.188937(15) 0.80093(2) 0.881138(15)
N1_3 N 0.20301(11) 0.84152(16) 0.95130(10)
O3_3 O 0.25145(8) 0.75297(12) 0.76309(8)
O4_3 O 0.26324(8) 0.66728(12) 0.81601(8)
O5_2 O 0.65564(8) 0.40561(13) 0.77626(8)
O6_2 O 0.66284(10) 0.39453(13) 0.85416(9)
O7_3 O 0.25619(8) 0.87124(12) 0.82174(8)
O8_3 O 0.25801(8) 0.81263(13) 0.88807(8)
O9_3 O 0.17484(8) 0.76182(11) 0.81260(7)
O16_2 O 0.15564(8) 0.90561(13) 0.77626(8)
O17_2 O 0.16284(10) 0.89453(13) 0.85416(9)
O18_2 O 0.18593(8) 0.69790(12) 0.90485(9)
O19_2 O 0.12067(9) 0.75781(13) 0.88241(9)
O20_2 O 0.17763(9) 0.57671(13) 0.82159(9)
C20_4 C 0.14794(12) 0.29000(18) 0.20140(12)
C36_4 C 0.07249(13) 0.3622(2) 0.06131(14)
C38_4 C 0.12161(13) 0.3138(2) 0.15196(13)
C43_4 C 0.07005(15) 0.2929(2) 0.07303(14)
H22_4 H 0.0515 0.2625 0.0507
H25_4 H 0.0997 0.4526 0.0089
C50_4 C 0.04631(13) 0.3908(2) 0.01386(14)
C56_4 C 0.09934(14) 0.4065(2) 0.09577(14)
H32_4 H 0.1012 0.4531 0.0884
C58_4 C 0.12338(14) 0.3834(2) 0.14081(13)
H33_4 H 0.1407 0.4143 0.1636
C61_4 C 0.09516(15) 0.2684(2) 0.11792(13)
H35_4 H 0.0942 0.2217 0.1251
C2_4 C 0.13308(13) 0.57376(19) 0.80891(13)
C7_4 C 0.11592(12) 0.64136(19) 0.90837(12)
C8_4 C 0.11120(13) 0.50586(19) 0.81375(13)
C9_4 C 0.14204(12) 0.70172(18) 0.89748(12)
C11_4 C 0.14063(12) 0.5814(2) 0.92723(13)
H3_4 H 0.1729 0.5787 0.9316
C12_4 C 0.05155(14) 0.1821(2) 0.81970(16)
C19_4 C 0.00428(14) 0.17840(19) 0.81917(18)
C21_4 C 0.06755(13) 0.6441(2) 0.90005(13)
H8_4 H 0.0508 0.6833 0.8862
C22_4 C 0.11731(13) 0.5265(2) 0.93938(13)
H9_4 H 0.1340 0.4867 0.9521
C24_4 C 0.06911(13) 0.37678(19) 0.81991(15)
C35_4 C 0.07187(13) 0.24701(19) 0.81979(15)
H17_4 H 0.1030 0.2498 0.8195
C39_4 C 0.04703(13) 0.30758(19) 0.82033(16)
C40_4 C 0.04212(13) 0.4362(2) 0.80640(15)
H19_4 H 0.0095 0.4331 0.7991
C45_4 C 0.06244(14) 0.4996(2) 0.80343(16)
H24_4 H 0.0434 0.5386 0.7945
C46_4 C 0.06848(13) 0.4410(2) 0.99367(14)
C47_4 C 0.04405(13) 0.5885(2) 0.91232(13)
H26_4 H 0.0116 0.5907 0.9067
C49_4 C 0.06873(13) 0.5293(2) 0.93298(13)
C53_4 C 0.10086(15) 0.1063(2) 0.78466(17)
H30_4 H 0.1014 0.1413 0.7632
C54_4 C 0.04480(13) 0.4739(2) 0.95126(14)
C55_4 C 0.1026(2) 0.0036(3) 0.8500(2)
C57_4 C 0.07799(13) 0.11706(19) 0.81831(16)
C62_4 C 0.11781(14) 0.3843(2) 0.8319(2)
H36_4 H 0.1370 0.3458 0.8422
C63_4 C 0.13835(14) 0.4477(2) 0.82887(18)
H37_4 H 0.1710 0.4511 0.8372
C64_4 C 0.12318(14) 0.0438(2) 0.78224(15)
H38_4 H 0.1373 0.0366 0.7584
C65_4 C 0.0784(2) 0.0648(3) 0.8505(3)
H39_4 H 0.0623 0.0709 0.8729
O13_4 O 0.10845(10) 0.62481(15) 0.79186(12)
C16_4 C 0.14971(12) 0.92535(18) 0.81489(13)
H31_4 H 0.1041 0.9699 0.8730
C60_4 C 0.12442(13) 0.99263(19) 0.81497(14)
C15_4 C 0.71955(13) 0.40462(19) 0.04039(13)
C25_4 C 0.72512(15) 0.5056(2) 0.09315(13)
H10_4 H 0.7259 0.5330 0.0674
C26_4 C 0.70994(14) 0.33514(19) 0.03439(13)
H11_4 H 0.7089 0.3080 0.0601
C32_4 C 0.72420(13) 0.4384(2) 0.08667(12)
H15_4 H 0.7266 0.4101 0.1129
C33_4 C 0.72507(13) 0.5418(2) 0.13680(13)
H16_4 H 0.9852 0.3388 0.0029
C42_4 C 0.72053(15) 0.6492(2) 0.17652(13)
H21_4 H 0.7202 0.6974 0.1759
C44_4 C 0.72461(13) 0.50922(19) 0.17889(13)
H23_4 H 0.7269 0.4613 0.1814
C51_4 C 0.72354(17) 0.4407(2) 0.00104(14)
H28_4 H 0.7321 0.4872 0.0039
C52_4 C 0.72081(13) 0.54797(18) 0.21656(12)
H29_4 H 0.7205 0.5250 0.2442
C66_4 C 0.72412(16) 0.6141(2) 0.13662(14)
H40_4 H 0.7259 0.6385 0.1100
C1_4 C 0.77789(12) 0.21228(17) 0.79223(12)
C3_4 C 0.89464(13) 0.27690(18) 0.78304(15)
H1_4 H 0.9056 0.3119 0.7674
C4_4 C 0.77614(11) 0.35012(17) 0.86293(11)
C5_4 C 0.70185(13) 0.30576(19) 0.98980(13)
H2_4 H 0.6953 0.2586 0.9864
C6_4 C 0.82977(12) 0.21755(17) 0.79942(13)
C10_4 C 0.97498(13) 0.4071(2) 0.94889(13)
C13_4 C 0.84781(13) 0.3589(2) 0.93396(12)
H4_4 H 0.8296 0.3439 0.9529
C14_4 C 0.85457(12) 0.39119(18) 0.85749(11)
H5_4 H 0.8408 0.3993 0.8252
C17_4 C 0.82721(12) 0.36795(18) 0.88517(12)
C18_4 C 0.84667(12) 0.26903(18) 0.77565(14)
H6_4 H 0.8256 0.2983 0.7547
H7_4 H 0.9903 0.1354 0.8192
C23_4 C 0.92375(12) 0.39300(19) 0.92658(13)
C27_4 C 0.90255(12) 0.40247(19) 0.87782(13)
H12_4 H 0.9208 0.4165 0.8587
C28_4 C 0.97815(13) 0.2379(2) 0.81856(16)
C29_4 C 0.92670(13) 0.23238(18) 0.81400(15)
C30_4 C 0.99970(13) 0.30208(19) 0.81979(17)
H13_4 H 0.9824 0.3421 0.8203
C31_4 C 0.86195(13) 0.17404(19) 0.83109(16)
H14_4 H 0.8511 0.1402 0.8477
C34_4 C 0.99991(13) 0.3735(2) 0.99051(13)
C37_4 C 0.89533(13) 0.3722(2) 0.95424(13)
H18_4 H 0.9086 0.3671 0.9869
C41_4 C 0.99776(13) 0.4565(2) 0.92929(13)
H20_4 H 0.9814 0.4783 0.9011
C48_4 C 0.90971(14) 0.1813(2) 0.83764(17)
H27_4 H 0.9308 0.1515 0.8582
C59_4 C 0.71502(17) 0.4081(2) 0.95819(15)
H34_4 H 0.7177 0.4337 0.9324
N1_4 N 0.70301(11) 0.34152(16) 0.95130(10)
O3_4 O 0.75145(8) 0.25297(12) 0.76309(8)
O4_4 O 0.76324(8) 0.16728(12) 0.81601(8)
O7_4 O 0.75619(8) 0.37124(12) 0.82174(8)
O8_4 O 0.75801(8) 0.31263(13) 0.88807(8)
O9_4 O 0.67484(8) 0.26182(11) 0.81260(7)
C1_5 C 0.72211(12) 0.28772(17) 0.20777(12)
C3_5 C 0.60536(13) 0.22310(18) 0.21696(15)
H1_5 H 0.5944 0.1881 0.2326
C4_5 C 0.72386(11) 0.14988(17) 0.13707(11)
C5_5 C 0.79815(13) 0.19424(19) 0.01020(13)
H2_5 H 0.8047 0.2414 0.0136
C6_5 C 0.67023(12) 0.28245(17) 0.20058(13)
C10_5 C 0.52502(13) 0.0929(2) 0.05111(13)
C12_5 C 0.44845(14) 0.3179(2) 0.18030(16)
C13_5 C 0.65219(13) 0.1411(2) 0.06604(12)
H4_5 H 0.6704 0.1561 0.0471
C14_5 C 0.64543(12) 0.10881(18) 0.14251(11)
H5_5 H 0.6592 0.1007 0.1748
C16_5 C 0.35029(12) 0.57465(18) 0.18511(13)
C17_5 C 0.67279(12) 0.13205(18) 0.11483(12)
C18_5 C 0.65333(12) 0.23097(18) 0.22435(14)
H6_5 H 0.6744 0.2017 0.2453
C19_5 C 0.49572(14) 0.32160(19) 0.18083(18)
H7_5 H 0.5097 0.3646 0.1808
H9_5 H 0.3660 0.0133 0.0479
C23_5 C 0.57625(12) 0.10700(19) 0.07342(13)
C24_5 C 0.43089(13) 0.12322(19) 0.18009(15)
C27_5 C 0.59745(12) 0.09753(19) 0.12218(13)
H12_5 H 0.5792 0.0835 0.1413
C28_5 C 0.52185(13) 0.2621(2) 0.18144(16)
C29_5 C 0.57330(13) 0.26762(18) 0.18600(15)
C30_5 C 0.50030(13) 0.19792(19) 0.18021(17)
H13_5 H 0.5176 0.1579 0.1797
C31_5 C 0.63805(13) 0.32596(19) 0.16891(16)
H14_5 H 0.6489 0.3598 0.1523
C34_5 C 0.50009(13) 0.1265(2) 0.00949(13)
C35_5 C 0.42813(13) 0.25299(19) 0.18021(15)
H17_5 H 0.3970 0.2502 0.1805
C37_5 C 0.60467(13) 0.1278(2) 0.04576(13)
H18_5 H 0.5914 0.1329 0.0131
C39_5 C 0.45297(13) 0.19242(19) 0.17967(16)
C40_5 C 0.45788(13) 0.0638(2) 0.19360(15)
H19_5 H 0.4905 0.0669 0.2009
C41_5 C 0.50224(13) 0.0435(2) 0.07071(13)
H20_5 H 0.5186 0.0217 0.0989
C45_5 C 0.43756(14) 0.0004(2) 0.19657(16)
C46_5 C 0.43152(13) 0.0590(2) 0.00633(14)
C48_5 C 0.59029(14) 0.3187(2) 0.16236(17)
H27_5 H 0.5692 0.3485 0.1418
C53_5 C 0.39914(15) 0.3937(2) 0.21534(17)
H30_5 H 0.3986 0.3587 0.2368
C54_5 C 0.45520(13) 0.0261(2) 0.04874(14)
C55_5 C 0.3974(2) 0.4964(3) 0.1500(2)
H31_5 H 0.3959 0.5301 0.1270
C57_5 C 0.42201(13) 0.38294(19) 0.18169(16)
C59_5 C 0.78498(17) 0.0919(2) 0.04181(15)
H34_5 H 0.7823 0.0663 0.0676
C60_5 C 0.37558(13) 0.50737(19) 0.18503(14)
C62_5 C 0.38219(14) 0.1157(2) 0.1681(2)
H36_5 H 0.3630 0.1542 0.1578
C63_5 C 0.36165(14) 0.0523(2) 0.17113(18)
H37_5 H 0.3290 0.0489 0.1628
C64_5 C 0.37682(14) 0.4562(2) 0.21776(15)
H38_5 H 0.3627 0.4634 0.2416
C65_5 C 0.4216(2) 0.4352(3) 0.1495(3)
H39_5 H 0.4377 0.4291 0.1271
Co1_2 Co 0.799081(15) 0.17458(2) 0.230301(14)
Co2_3 Co 0.811063(15) 0.19907(2) 0.118862(15)
Co3_2 Co 0.807165(15) 0.33214(2) 0.200438(15)
N1_5 N 0.79699(11) 0.15848(16) 0.04870(10)
O3_5 O 0.74855(8) 0.24703(12) 0.23691(8)
O4_5 O 0.73676(8) 0.33272(12) 0.18399(8)
O5_3 O 0.34436(8) 0.59439(13) 0.22374(8)
O6_3 O 0.33716(10) 0.60547(13) 0.14584(9)
O7_5 O 0.74381(8) 0.12876(12) 0.17826(8)
O8_5 O 0.74199(8) 0.18737(13) 0.11193(8)
O9_5 O 0.82516(8) 0.23818(11) 0.18740(7)
Co4_2 Co 0.299081(15) 0.67458(2) 0.230301(14)
Co8_2 Co 0.311063(15) 0.69907(2) 0.118862(15)
N3_3 N 0.78244(10) 0.11747(15) 0.28425(10)
O14_3 O 0.85228(9) 0.22691(13) 0.28840(8)
O15_3 O 0.83161(9) 0.33754(12) 0.27078(8)
O16_3 O 0.84436(8) 0.09439(13) 0.22374(8)
O17_3 O 0.83716(10) 0.10547(13) 0.14584(9)
O18_3 O 0.81407(8) 0.30210(12) 0.09515(9)
O19_3 O 0.87933(9) 0.24219(13) 0.11759(9)
O20_3 O 0.82237(9) 0.42329(13) 0.17841(9)
C15_5 C 0.78045(13) 0.09538(19) 0.95961(13)
C20_5 C 0.35206(12) 0.21000(18) 0.79860(12)
C26_5 C 0.79006(14) 0.16486(19) 0.96561(13)
H11_5 H 0.7911 0.1920 0.9399
C32_5 C 0.77580(13) 0.0616(2) 0.91333(12)
H15_5 H 0.7734 0.0899 0.8871
H16_5 H 0.5148 0.1612 0.9971
C36_5 C 0.42751(13) 0.1378(2) 0.93869(14)
C38_5 C 0.37839(13) 0.1862(2) 0.84804(13)
C43_5 C 0.42995(15) 0.2071(2) 0.92697(14)
H22_5 H 0.4485 0.2375 0.9493
H23_5 H 0.7731 0.0387 0.8186
H25_5 H 0.4003 0.0474 0.9911
C50_5 C 0.45369(13) 0.1092(2) 0.98614(14)
C51_5 C 0.77646(17) 0.0593(2) 0.99896(14)
H28_5 H 0.7679 0.0128 0.9961
C56_5 C 0.40066(14) 0.0935(2) 0.90423(14)
H32_5 H 0.3988 0.0469 0.9116
C58_5 C 0.37662(14) 0.1166(2) 0.85919(13)
H33_5 H 0.3593 0.0857 0.8364
C61_5 C 0.40484(15) 0.2316(2) 0.88208(13)
H35_5 H 0.4058 0.2783 0.8749
O1_3 O 0.35228(9) 0.27309(13) 0.78840(8)
O2_3 O 0.33161(9) 0.16246(12) 0.77078(8)
Co6_2 Co 0.299081(15) 0.32542(2) 0.730301(14)
Co10_3 Co 0.307165(15) 0.16786(2) 0.700438(15)
C2_5 C 0.36692(13) 0.92624(19) 0.19109(13)
C7_5 C 0.38408(12) 0.85864(19) 0.09163(12)
C8_5 C 0.38880(13) 0.99414(19) 0.18625(13)
C9_5 C 0.35796(12) 0.79828(18) 0.10252(12)
C11_5 C 0.35937(12) 0.9186(2) 0.07277(13)
H3_5 H 0.3271 0.9213 0.0684
C21_5 C 0.43245(13) 0.8559(2) 0.09995(13)
H8_5 H 0.4492 0.8167 0.1138
C22_5 C 0.38269(13) 0.9735(2) 0.06062(13)
H24_5 H 0.4566 0.9614 0.2055
C47_5 C 0.45595(13) 0.9115(2) 0.08768(13)
H26_5 H 0.4884 0.9093 0.0933
C49_5 C 0.43127(13) 0.9707(2) 0.06702(13)
O10_3 O 0.31407(8) 0.80210(12) 0.09515(9)
O11_3 O 0.37933(9) 0.74219(13) 0.11759(9)
O12_3 O 0.32237(9) 0.92329(13) 0.17841(9)
O13_5 O 0.39155(10) 0.87519(15) 0.20814(12)
Co9_2 Co 0.307165(15) 0.83214(2) 0.200438(15)
C25_5 C 0.77488(15) 0.9944(2) 0.90685(13)
H10_5 H 0.7741 0.9670 0.9326
C33_5 C 0.77493(13) 0.9582(2) 0.86320(13)
C42_5 C 0.77947(15) 0.8508(2) 0.82348(13)
H21_5 H 0.7798 0.8026 0.8241
C44_5 C 0.77539(13) 0.99078(19) 0.82111(13)
C52_5 C 0.77919(13) 0.95203(18) 0.78344(12)
H29_5 H 0.7795 0.9750 0.7558
C66_5 C 0.77588(16) 0.8859(2) 0.86338(14)
H40_5 H 0.7741 0.8615 0.8900
N2_3 N 0.78244(10) 0.88253(15) 0.78425(10)
Co5_2 Co 0.799081(15) 0.82542(2) 0.730301(14)
C1_6 C 0.22211(12) 0.78772(17) 0.20777(12)
C3_6 C 0.10536(13) 0.72310(18) 0.21696(15)
H1_6 H 0.0944 0.6881 0.2326
C4_6 C 0.22386(11) 0.64988(17) 0.13707(11)
C5_6 C 0.29815(13) 0.69424(19) 0.01020(13)
H2_6 H 0.3047 0.7414 0.0136
C6_6 C 0.17023(12) 0.78245(17) 0.20058(13)
C10_6 C 0.02502(13) 0.5929(2) 0.05111(13)
C13_6 C 0.15219(13) 0.6411(2) 0.06604(12)
H4_6 H 0.1704 0.6561 0.0471
C14_6 C 0.14543(12) 0.60881(18) 0.14251(11)
H5_6 H 0.1592 0.6007 0.1748
C17_6 C 0.17279(12) 0.63205(18) 0.11483(12)
C18_6 C 0.15333(12) 0.73097(18) 0.22435(14)
H6_6 H 0.1744 0.7017 0.2453
H7_6 H 0.0097 0.8646 0.1808
C23_6 C 0.07625(12) 0.60700(19) 0.07342(13)
C27_6 C 0.09745(12) 0.59753(19) 0.12218(13)
H12_6 H 0.0792 0.5835 0.1413
C28_6 C 0.02185(13) 0.7621(2) 0.18144(16)
C29_6 C 0.07330(13) 0.76762(18) 0.18600(15)
C30_6 C 0.00030(13) 0.69792(19) 0.18021(17)
H13_6 H 0.0176 0.6579 0.1797
C31_6 C 0.13805(13) 0.82596(19) 0.16891(16)
H14_6 H 0.1489 0.8598 0.1523
C34_6 C 0.00009(13) 0.6265(2) 0.00949(13)
C37_6 C 0.10467(13) 0.6278(2) 0.04576(13)
H18_6 H 0.0914 0.6329 0.0131
C41_6 C 0.00224(13) 0.5435(2) 0.07071(13)
H20_6 H 0.0186 0.5217 0.0989
C48_6 C 0.09029(14) 0.8187(2) 0.16236(17)
H27_6 H 0.0692 0.8485 0.1418
C59_6 C 0.28498(17) 0.5919(2) 0.04181(15)
H34_6 H 0.2823 0.5663 0.0676
N1_6 N 0.29699(11) 0.65848(16) 0.04870(10)
O3_6 O 0.24855(8) 0.74703(12) 0.23691(8)
O4_6 O 0.23676(8) 0.83272(12) 0.18399(8)
O7_6 O 0.24381(8) 0.62876(12) 0.17826(8)
O8_6 O 0.24199(8) 0.68737(13) 0.11193(8)
O9_6 O 0.32516(8) 0.73818(11) 0.18740(7)
N3_4 N 0.28244(10) 0.61747(15) 0.28425(10)
O14_4 O 0.35228(9) 0.72691(13) 0.28840(8)
O15_4 O 0.33161(9) 0.83754(12) 0.27078(8)
C15_6 C 0.28045(13) 0.59538(19) 0.95961(13)
C25_6 C 0.27488(15) 0.4944(2) 0.90685(13)
H10_6 H 0.2741 0.4670 0.9326
C26_6 C 0.29006(14) 0.66486(19) 0.96561(13)
H11_6 H 0.2911 0.6920 0.9399
C32_6 C 0.27580(13) 0.5616(2) 0.91333(12)
H15_6 H 0.2734 0.5899 0.8871
C33_6 C 0.27493(13) 0.4582(2) 0.86320(13)
H16_6 H 0.0148 0.6612 0.9971
C42_6 C 0.27947(15) 0.3508(2) 0.82348(13)
H21_6 H 0.2798 0.3026 0.8241
C44_6 C 0.27539(13) 0.49078(19) 0.82111(13)
H23_6 H 0.2731 0.5387 0.8186
C51_6 C 0.27646(17) 0.5593(2) 0.99896(14)
H28_6 H 0.2679 0.5128 0.9961
C52_6 C 0.27919(13) 0.45203(18) 0.78344(12)
H29_6 H 0.2795 0.4750 0.7558
C66_6 C 0.27588(16) 0.3859(2) 0.86338(14)
H40_6 H 0.2741 0.3615 0.8900
N2_4 N 0.28244(10) 0.38253(15) 0.78425(10)
C16_6 C 0.85029(12) 0.07465(18) 0.18511(13)
H31_6 H 0.8959 0.0301 0.1270
C60_6 C 0.87558(13) 0.00737(19) 0.18503(14)
C2_6 C 0.86692(13) 0.42624(19) 0.19109(13)
C7_6 C 0.88408(12) 0.35864(19) 0.09163(12)
C8_6 C 0.88880(13) 0.49414(19) 0.18625(13)
C9_6 C 0.85796(12) 0.29828(18) 0.10252(12)
C11_6 C 0.85937(12) 0.4186(2) 0.07277(13)
H3_6 H 0.8271 0.4213 0.0684
C12_6 C 0.94845(14) 0.8179(2) 0.18030(16)
C19_6 C 0.99572(14) 0.82160(19) 0.18083(18)
C21_6 C 0.93245(13) 0.3559(2) 0.09995(13)
H8_6 H 0.9492 0.3167 0.1138
C22_6 C 0.88269(13) 0.4735(2) 0.06062(13)
H9_6 H 0.8660 0.5133 0.0479
C24_6 C 0.93089(13) 0.62322(19) 0.18009(15)
C35_6 C 0.92813(13) 0.75299(19) 0.18021(15)
H17_6 H 0.8970 0.7502 0.1805
C39_6 C 0.95297(13) 0.69242(19) 0.17967(16)
C40_6 C 0.95788(13) 0.5638(2) 0.19360(15)
H19_6 H 0.9905 0.5669 0.2009
C45_6 C 0.93756(14) 0.5004(2) 0.19657(16)
H24_6 H 0.9566 0.4614 0.2055
C46_6 C 0.93152(13) 0.5590(2) 0.00633(14)
C47_6 C 0.95595(13) 0.4115(2) 0.08768(13)
H26_6 H 0.9884 0.4093 0.0933
C49_6 C 0.93127(13) 0.4707(2) 0.06702(13)
C53_6 C 0.89914(15) 0.8937(2) 0.21534(17)
H30_6 H 0.8986 0.8587 0.2368
C54_6 C 0.95520(13) 0.5261(2) 0.04874(14)
C55_6 C 0.8974(2) 0.9964(3) 0.1500(2)
C57_6 C 0.92201(13) 0.88294(19) 0.18169(16)
C62_6 C 0.88219(14) 0.6157(2) 0.1681(2)
H36_6 H 0.8630 0.6542 0.1578
C63_6 C 0.86165(14) 0.5523(2) 0.17113(18)
H37_6 H 0.8290 0.5489 0.1628
C64_6 C 0.87682(14) 0.9562(2) 0.21776(15)
H38_6 H 0.8627 0.9634 0.2416
C65_6 C 0.9216(2) 0.9352(3) 0.1495(3)
H39_6 H 0.9377 0.9291 0.1271
O13_6 O 0.89155(10) 0.37519(15) 0.20814(12)
C20_6 C 0.85206(12) 0.71000(18) 0.79860(12)
C36_6 C 0.92751(13) 0.6378(2) 0.93869(14)
C38_6 C 0.87839(13) 0.6862(2) 0.84804(13)
C43_6 C 0.92995(15) 0.7071(2) 0.92697(14)
H22_6 H 0.9485 0.7375 0.9493
H25_6 H 0.9003 0.5474 0.9911
C50_6 C 0.95369(13) 0.6092(2) 0.98614(14)
C56_6 C 0.90066(14) 0.5935(2) 0.90423(14)
H32_6 H 0.8988 0.5469 0.9116
C58_6 C 0.87662(14) 0.6166(2) 0.85919(13)
H33_6 H 0.8593 0.5857 0.8364
C61_6 C 0.90484(15) 0.7316(2) 0.88208(13)
H35_6 H 0.9058 0.7783 0.8749
O1_4 O 0.85228(9) 0.77309(13) 0.78840(8)
O2_4 O 0.83161(9) 0.66246(12) 0.77078(8)
Co10_4 Co 0.807165(15) 0.66786(2) 0.700438(15)
C2_7 C 0.36692(13) 0.07376(19) 0.69109(13)
C7_7 C 0.38408(12) 0.14136(19) 0.59163(12)
C8_7 C 0.38880(13) 0.00586(19) 0.68625(13)
C9_7 C 0.35796(12) 0.20172(18) 0.60252(12)
C11_7 C 0.35937(12) 0.0814(2) 0.57277(13)
H3_7 H 0.3271 0.0787 0.5684
C21_7 C 0.43245(13) 0.1441(2) 0.59995(13)
H8_7 H 0.4492 0.1833 0.6138
C22_7 C 0.38269(13) 0.0265(2) 0.56062(13)
C25_7 C 0.77488(15) 0.0056(2) 0.40685(13)
H10_7 H 0.7741 0.0330 0.4326
C33_7 C 0.77493(13) 0.0418(2) 0.36320(13)
C42_7 C 0.77947(15) 0.1492(2) 0.32348(13)
H21_7 H 0.7798 0.1974 0.3241
C44_7 C 0.77539(13) 0.00922(19) 0.32111(13)
H24_7 H 0.4566 0.0386 0.7055
C47_7 C 0.45595(13) 0.0885(2) 0.58768(13)
H26_7 H 0.4884 0.0907 0.5933
C49_7 C 0.43127(13) 0.0293(2) 0.56702(13)
C52_7 C 0.77919(13) 0.04797(18) 0.28344(12)
H29_7 H 0.7795 0.0250 0.2558
C66_7 C 0.77588(16) 0.1141(2) 0.36338(14)
H40_7 H 0.7741 0.1385 0.3900
O10_4 O 0.31407(8) 0.19790(12) 0.59515(9)
O11_4 O 0.37933(9) 0.25781(13) 0.61759(9)
O12_4 O 0.32237(9) 0.07671(13) 0.67841(9)
O13_7 O 0.39155(10) 0.12481(15) 0.70814(12)
Co7_2 Co 0.311063(15) 0.30093(2) 0.618862(15)
C1_7 C 0.72211(12) 0.71228(17) 0.70777(12)
C3_7 C 0.60536(13) 0.77690(18) 0.71696(15)
H1_7 H 0.5944 0.8119 0.7326
C4_7 C 0.72386(11) 0.85012(17) 0.63707(11)
C5_7 C 0.79815(13) 0.80576(19) 0.51020(13)
H2_7 H 0.8047 0.7586 0.5136
C6_7 C 0.67023(12) 0.71755(17) 0.70058(13)
C10_7 C 0.52502(13) 0.9071(2) 0.55111(13)
C12_7 C 0.44845(14) 0.6821(2) 0.68030(16)
C13_7 C 0.65219(13) 0.8589(2) 0.56604(12)
H4_7 H 0.6704 0.8439 0.5471
C14_7 C 0.64543(12) 0.89119(18) 0.64251(11)
H5_7 H 0.6592 0.8993 0.6748
C15_7 C 0.78045(13) 0.90462(19) 0.45961(13)
C16_7 C 0.35029(12) 0.42535(18) 0.68511(13)
C17_7 C 0.67279(12) 0.86795(18) 0.61483(12)
C18_7 C 0.65333(12) 0.76903(18) 0.72435(14)
H6_7 H 0.6744 0.7983 0.7453
C19_7 C 0.49572(14) 0.67840(19) 0.68083(18)
H7_7 H 0.5097 0.6354 0.6808
C20_7 C 0.35206(12) 0.79000(18) 0.29860(12)
H9_7 H 0.3660 0.9867 0.5479
C23_7 C 0.57625(12) 0.89300(19) 0.57342(13)
C24_7 C 0.43089(13) 0.87678(19) 0.68009(15)
C26_7 C 0.79006(14) 0.83514(19) 0.46561(13)
H11_7 H 0.7911 0.8080 0.4399
C27_7 C 0.59745(12) 0.90247(19) 0.62218(13)
H12_7 H 0.5792 0.9165 0.6413
C28_7 C 0.52185(13) 0.7379(2) 0.68144(16)
C29_7 C 0.57330(13) 0.73238(18) 0.68600(15)
C30_7 C 0.50030(13) 0.80208(19) 0.68021(17)
H13_7 H 0.5176 0.8421 0.6797
C31_7 C 0.63805(13) 0.67404(19) 0.66891(16)
H14_7 H 0.6489 0.6402 0.6523
C32_7 C 0.77580(13) 0.9384(2) 0.41333(12)
H15_7 H 0.7734 0.9101 0.3871
C34_7 C 0.50009(13) 0.8735(2) 0.50949(13)
H16_7 H 0.5148 0.8388 0.4971
C35_7 C 0.42813(13) 0.74701(19) 0.68021(15)
H17_7 H 0.3970 0.7498 0.6805
C36_7 C 0.42751(13) 0.8622(2) 0.43869(14)
C37_7 C 0.60467(13) 0.8722(2) 0.54576(13)
H18_7 H 0.5914 0.8671 0.5131
C38_7 C 0.37839(13) 0.8138(2) 0.34804(13)
C39_7 C 0.45297(13) 0.80758(19) 0.67967(16)
C40_7 C 0.45788(13) 0.9362(2) 0.69360(15)
H19_7 H 0.4905 0.9331 0.7009
C41_7 C 0.50224(13) 0.9565(2) 0.57071(13)
H20_7 H 0.5186 0.9783 0.5989
C43_7 C 0.42995(15) 0.7929(2) 0.42697(14)
H22_7 H 0.4485 0.7625 0.4493
H23_7 H 0.7731 0.9613 0.3186
C45_7 C 0.43756(14) 0.9996(2) 0.69657(16)
C46_7 C 0.43152(13) 0.9410(2) 0.50633(14)
H25_7 H 0.4003 0.9526 0.4911
C48_7 C 0.59029(14) 0.6813(2) 0.66236(17)
H27_7 H 0.5692 0.6515 0.6418
C50_7 C 0.45369(13) 0.8908(2) 0.48614(14)
C51_7 C 0.77646(17) 0.9407(2) 0.49896(14)
H28_7 H 0.7679 0.9872 0.4961
C53_7 C 0.39914(15) 0.6063(2) 0.71534(17)
H30_7 H 0.3986 0.6413 0.7368
C54_7 C 0.45520(13) 0.9739(2) 0.54874(14)
C55_7 C 0.3974(2) 0.5036(3) 0.6500(2)
H31_7 H 0.3959 0.4699 0.6270
C56_7 C 0.40066(14) 0.9065(2) 0.40423(14)
H32_7 H 0.3988 0.9531 0.4116
C57_7 C 0.42201(13) 0.61706(19) 0.68169(16)
C58_7 C 0.37662(14) 0.8834(2) 0.35919(13)
H33_7 H 0.3593 0.9143 0.3364
C59_7 C 0.78498(17) 0.9081(2) 0.54181(15)
H34_7 H 0.7823 0.9337 0.5676
C60_7 C 0.37558(13) 0.49263(19) 0.68503(14)
C61_7 C 0.40484(15) 0.7684(2) 0.38208(13)
H35_7 H 0.4058 0.7217 0.3749
C62_7 C 0.38219(14) 0.8843(2) 0.6681(2)
H36_7 H 0.3630 0.8458 0.6578
C63_7 C 0.36165(14) 0.9477(2) 0.67113(18)
H37_7 H 0.3290 0.9511 0.6628
C64_7 C 0.37682(14) 0.5438(2) 0.71776(15)
H38_7 H 0.3627 0.5366 0.7416
C65_7 C 0.4216(2) 0.5648(3) 0.6495(3)
H39_7 H 0.4377 0.5709 0.6271
Co2_4 Co 0.811063(15) 0.80093(2) 0.618862(15)
N1_7 N 0.79699(11) 0.84152(16) 0.54870(10)
O3_7 O 0.74855(8) 0.75297(12) 0.73691(8)
O4_7 O 0.73676(8) 0.66728(12) 0.68399(8)
O5_4 O 0.34436(8) 0.40561(13) 0.72374(8)
O6_4 O 0.33716(10) 0.39453(13) 0.64584(9)
O7_7 O 0.74381(8) 0.87124(12) 0.67826(8)
O8_7 O 0.74199(8) 0.81263(13) 0.61193(8)
O9_7 O 0.82516(8) 0.76182(11) 0.68740(7)
O16_4 O 0.84436(8) 0.90561(13) 0.72374(8)
O17_4 O 0.83716(10) 0.89453(13) 0.64584(9)
O18_4 O 0.81407(8) 0.69790(12) 0.59515(9)
O19_4 O 0.87933(9) 0.75781(13) 0.61759(9)
O20_4 O 0.82237(9) 0.57671(13) 0.67841(9)
C1_8 C 0.22211(12) 0.21228(17) 0.70777(12)
C3_8 C 0.10536(13) 0.27690(18) 0.71696(15)
H1_8 H 0.0944 0.3119 0.7326
C4_8 C 0.22386(11) 0.35012(17) 0.63707(11)
C5_8 C 0.29815(13) 0.30576(19) 0.51020(13)
H2_8 H 0.3047 0.2586 0.5136
C6_8 C 0.17023(12) 0.21755(17) 0.70058(13)
C10_8 C 0.02502(13) 0.4071(2) 0.55111(13)
C13_8 C 0.15219(13) 0.3589(2) 0.56604(12)
H4_8 H 0.1704 0.3439 0.5471
C14_8 C 0.14543(12) 0.39119(18) 0.64251(11)
H5_8 H 0.1592 0.3993 0.6748
C15_8 C 0.28045(13) 0.40462(19) 0.45961(13)
C17_8 C 0.17279(12) 0.36795(18) 0.61483(12)
C18_8 C 0.15333(12) 0.26903(18) 0.72435(14)
H6_8 H 0.1744 0.2983 0.7453
H7_8 H 0.0097 0.1354 0.6808
C23_8 C 0.07625(12) 0.39300(19) 0.57342(13)
C25_8 C 0.27488(15) 0.5056(2) 0.40685(13)
H10_8 H 0.2741 0.5330 0.4326
C26_8 C 0.29006(14) 0.33514(19) 0.46561(13)
H11_8 H 0.2911 0.3080 0.4399
C27_8 C 0.09745(12) 0.40247(19) 0.62218(13)
H12_8 H 0.0792 0.4165 0.6413
C28_8 C 0.02185(13) 0.2379(2) 0.68144(16)
C29_8 C 0.07330(13) 0.23238(18) 0.68600(15)
C30_8 C 0.00030(13) 0.30208(19) 0.68021(17)
H13_8 H 0.0176 0.3421 0.6797
C31_8 C 0.13805(13) 0.17404(19) 0.66891(16)
H14_8 H 0.1489 0.1402 0.6523
C32_8 C 0.27580(13) 0.4384(2) 0.41333(12)
H15_8 H 0.2734 0.4101 0.3871
C33_8 C 0.27493(13) 0.5418(2) 0.36320(13)
C34_8 C 0.00009(13) 0.3735(2) 0.50949(13)
H16_8 H 0.0148 0.3388 0.4971
C37_8 C 0.10467(13) 0.3722(2) 0.54576(13)
H18_8 H 0.0914 0.3671 0.5131
C41_8 C 0.00224(13) 0.4565(2) 0.57071(13)
H20_8 H 0.0186 0.4783 0.5989
C42_8 C 0.27947(15) 0.6492(2) 0.32348(13)
H21_8 H 0.2798 0.6974 0.3241
C44_8 C 0.27539(13) 0.50922(19) 0.32111(13)
H23_8 H 0.2731 0.4613 0.3186
C48_8 C 0.09029(14) 0.1813(2) 0.66236(17)
H27_8 H 0.0692 0.1515 0.6418
C51_8 C 0.27646(17) 0.4407(2) 0.49896(14)
H28_8 H 0.2679 0.4872 0.4961
C52_8 C 0.27919(13) 0.54797(18) 0.28344(12)
H29_8 H 0.2795 0.5250 0.2558
C59_8 C 0.28498(17) 0.4081(2) 0.54181(15)
H34_8 H 0.2823 0.4337 0.5676
C66_8 C 0.27588(16) 0.6141(2) 0.36338(14)
H40_8 H 0.2741 0.6385 0.3900
N1_8 N 0.29699(11) 0.34152(16) 0.54870(10)
O3_8 O 0.24855(8) 0.25297(12) 0.73691(8)
O4_8 O 0.23676(8) 0.16728(12) 0.68399(8)
O7_8 O 0.24381(8) 0.37124(12) 0.67826(8)
O8_8 O 0.24199(8) 0.31263(13) 0.61193(8)
O9_8 O 0.32516(8) 0.26182(11) 0.68740(7)
C2_8 C 0.86692(13) 0.57376(19) 0.69109(13)
C7_8 C 0.88408(12) 0.64136(19) 0.59163(12)
C8_8 C 0.88880(13) 0.50586(19) 0.68625(13)
C9_8 C 0.85796(12) 0.70172(18) 0.60252(12)
C11_8 C 0.85937(12) 0.5814(2) 0.57277(13)
H3_8 H 0.8271 0.5787 0.5684
C12_8 C 0.94845(14) 0.1821(2) 0.68030(16)
C19_8 C 0.99572(14) 0.17840(19) 0.68083(18)
C20_8 C 0.85206(12) 0.29000(18) 0.29860(12)
C21_8 C 0.93245(13) 0.6441(2) 0.59995(13)
H8_8 H 0.9492 0.6833 0.6138
C22_8 C 0.88269(13) 0.5265(2) 0.56062(13)
H9_8 H 0.8660 0.4867 0.5479
C24_8 C 0.93089(13) 0.37678(19) 0.68009(15)
C35_8 C 0.92813(13) 0.24701(19) 0.68021(15)
H17_8 H 0.8970 0.2498 0.6805
C36_8 C 0.92751(13) 0.3622(2) 0.43869(14)
C38_8 C 0.87839(13) 0.3138(2) 0.34804(13)
C39_8 C 0.95297(13) 0.30758(19) 0.67967(16)
C40_8 C 0.95788(13) 0.4362(2) 0.69360(15)
H19_8 H 0.9905 0.4331 0.7009
C43_8 C 0.92995(15) 0.2929(2) 0.42697(14)
H22_8 H 0.9485 0.2625 0.4493
C45_8 C 0.93756(14) 0.4996(2) 0.69657(16)
H24_8 H 0.9566 0.5386 0.7055
C46_8 C 0.93152(13) 0.4410(2) 0.50633(14)
H25_8 H 0.9003 0.4526 0.4911
C47_8 C 0.95595(13) 0.5885(2) 0.58768(13)
H26_8 H 0.9884 0.5907 0.5933
C49_8 C 0.93127(13) 0.5293(2) 0.56702(13)
C50_8 C 0.95369(13) 0.3908(2) 0.48614(14)
C53_8 C 0.89914(15) 0.1063(2) 0.71534(17)
H30_8 H 0.8986 0.1413 0.7368
C54_8 C 0.95520(13) 0.4739(2) 0.54874(14)
C55_8 C 0.8974(2) 0.0036(3) 0.6500(2)
C56_8 C 0.90066(14) 0.4065(2) 0.40423(14)
H32_8 H 0.8988 0.4531 0.4116
C57_8 C 0.92201(13) 0.11706(19) 0.68169(16)
C58_8 C 0.87662(14) 0.3834(2) 0.35919(13)
H33_8 H 0.8593 0.4143 0.3364
C61_8 C 0.90484(15) 0.2684(2) 0.38208(13)
H35_8 H 0.9058 0.2217 0.3749
C62_8 C 0.88219(14) 0.3843(2) 0.6681(2)
H36_8 H 0.8630 0.3458 0.6578
C63_8 C 0.86165(14) 0.4477(2) 0.67113(18)
H37_8 H 0.8290 0.4511 0.6628
C64_8 C 0.87682(14) 0.0438(2) 0.71776(15)
H38_8 H 0.8627 0.0366 0.7416
C65_8 C 0.9216(2) 0.0648(3) 0.6495(3)
H39_8 H 0.9377 0.0709 0.6271
O13_8 O 0.89155(10) 0.62481(15) 0.70814(12)
C16_8 C 0.85029(12) 0.92535(18) 0.68511(13)
H31_8 H 0.8959 0.9699 0.6270
C60_8 C 0.87558(13) 0.99263(19) 0.68503(14)
C67 C 0.0514(9) 0.1362(13) 0.2092(9)
H41 H 0.0678 0.1365 0.2415
C68 C 0.1011(5) 0.0847(7) 0.1785(5)
H42 H 0.1041 0.1319 0.1696
H43 H 0.1026 0.0545 0.1530
H44 H 0.1262 0.0736 0.2066
C69 C 0.0199(8) 0.0226(12) 0.1784(8)
Co11 Co 0.0000 0.22557(9) 0.2500
N4 N 0.0579(7) 0.0759(13) 0.1875(8)
O21 O 0.0077(10) 0.3055(15) 0.2055(9)
O22 O 0.0239(8) 0.2028(13) 0.1935(8)
O23 O 0.0663(4) 0.1947(6) 0.3004(4)
H55 H 0.0148004 0.00671642 0.212041
H60 H 0.0128183 0.0443065 0.344575
H51 H 0.0352566 0.334467 0.222289
H52 H 0.0127611 0.28572 0.176251
H56 H 0.0126855 0.296411 0.327403
H57 H 0.00168892 0.349988 0.283015
H54 H 0.0299717 0.97786 0.16109
Co11_2 Co 1.0000 0.22557(9) 0.2500
C70 C 0.9486(9) 0.1362(13) 0.2908(9)
H45 H 0.9322 0.1365 0.2585
C71 C 0.8989(5) 0.0847(7) 0.3215(5)
H46 H 0.8959 0.1319 0.3304
H47 H 0.8974 0.0545 0.3470
H48 H 0.8738 0.0736 0.2934
C72 C 0.9801(8) 0.0226(12) 0.3216(8)
N5 N 0.9421(7) 0.0759(13) 0.3125(8)
O24 O 0.9923(10) 0.3055(15) 0.2945(9)
O25 O 0.9761(8) 0.2028(13) 0.3065(8)
O26 O 0.9337(4) 0.1947(6) 0.1996(4)
H51_2 H 0.964743 0.334467 0.277711
H52_2 H 0.987239 0.28572 0.323749
H53 H 0.987182 0.0443065 0.155425
H56_2 H 0.987314 0.296411 0.172597
H57_2 H 0.998311 0.349988 0.216985
H62 H 0.9852 0.00671642 0.287959
H61 H 0.970028 0.97786 0.33891
C67_2 C 0.5514(9) 0.6362(13) 0.2092(9)
H41_2 H 0.5678 0.6365 0.2415
C68_2 C 0.6011(5) 0.5847(7) 0.1785(5)
H42_2 H 0.6041 0.6319 0.1696
H43_2 H 0.6026 0.5545 0.1530
H44_2 H 0.6262 0.5736 0.2066
C69_2 C 0.5199(8) 0.5226(12) 0.1784(8)
Co11_3 Co 0.5000 0.72557(9) 0.2500
N4_2 N 0.5579(7) 0.5759(13) 0.1875(8)
O21_2 O 0.5077(10) 0.8055(15) 0.2055(9)
O22_2 O 0.5239(8) 0.7028(13) 0.1935(8)
O23_2 O 0.5663(4) 0.6947(6) 0.3004(4)
C70_2 C 0.4486(9) 0.6362(13) 0.2908(9)
H45_2 H 0.4322 0.6365 0.2585
C71_2 C 0.3989(5) 0.5847(7) 0.3215(5)
H46_2 H 0.3959 0.6319 0.3304
H47_2 H 0.3974 0.5545 0.3470
H48_2 H 0.3738 0.5736 0.2934
C72_2 C 0.4801(8) 0.5226(12) 0.3216(8)
N5_2 N 0.4421(7) 0.5759(13) 0.3125(8)
O24_2 O 0.4923(10) 0.8055(15) 0.2945(9)
O25_2 O 0.4761(8) 0.7028(13) 0.3065(8)
O26_2 O 0.4337(4) 0.6947(6) 0.1996(4)
H53_2 H 0.487182 0.544306 0.155425
H54_2 H 0.529972 0.47786 0.16109
H55_2 H 0.5148 0.506716 0.212041
H60_2 H 0.512818 0.544306 0.344575
H61_2 H 0.470028 0.47786 0.33891
H62_2 H 0.4852 0.506716 0.287959
H61_3 H 0.0299717 0.0221405 0.66109
Co11_4 Co 0.0000 0.77443(9) 0.7500
C70_3 C 0.0514(9) 0.8638(13) 0.7092(9)
H45_3 H 0.0678 0.8635 0.7415
C71_3 C 0.1011(5) 0.9153(7) 0.6785(5)
H46_3 H 0.1041 0.8681 0.6696
H47_3 H 0.1026 0.9455 0.6530
H48_3 H 0.1262 0.9264 0.7066
C72_3 C 0.0199(8) 0.9774(12) 0.6784(8)
N5_3 N 0.0579(7) 0.9241(13) 0.6875(8)
O24_3 O 0.0077(10) 0.6945(15) 0.7055(9)
O25_3 O 0.0239(8) 0.7972(13) 0.6935(8)
O26_3 O 0.0663(4) 0.8053(6) 0.8004(4)
H51_3 H 0.0352566 0.665533 0.722289
H52_3 H 0.0127611 0.71428 0.676251
H53_3 H 0.0128183 0.955694 0.844575
H56_3 H 0.0126855 0.703589 0.827403
H57_3 H 0.00168892 0.650012 0.783015
H62_3 H 0.0148004 0.993284 0.712041
H54_3 H 0.970028 0.0221405 0.83891
C67_3 C 0.9486(9) 0.8638(13) 0.7908(9)
H41_3 H 0.9322 0.8635 0.7585
C68_3 C 0.8989(5) 0.9153(7) 0.8215(5)
H42_3 H 0.8959 0.8681 0.8304
H43_3 H 0.8974 0.9455 0.8470
H44_3 H 0.8738 0.9264 0.7934
C69_3 C 0.9801(8) 0.9774(12) 0.8216(8)
Co11_5 Co 1.0000 0.77443(9) 0.7500
N4_3 N 0.9421(7) 0.9241(13) 0.8125(8)
O21_3 O 0.9923(10) 0.6945(15) 0.7945(9)
O22_3 O 0.9761(8) 0.7972(13) 0.8065(8)
O23_3 O 0.9337(4) 0.8053(6) 0.6996(4)
H55_3 H 0.9852 0.993284 0.787959
H60_3 H 0.987182 0.955694 0.655425
H51_4 H 0.964743 0.665533 0.777711
H52_4 H 0.987239 0.71428 0.823749
H56_4 H 0.987314 0.703589 0.672597
H57_4 H 0.998311 0.650012 0.716985
C67_4 C 0.4486(9) 0.3638(13) 0.7908(9)
H41_4 H 0.4322 0.3635 0.7585
C68_4 C 0.3989(5) 0.4153(7) 0.8215(5)
H42_4 H 0.3959 0.3681 0.8304
H43_4 H 0.3974 0.4455 0.8470
H44_4 H 0.3738 0.4264 0.7934
C69_4 C 0.4801(8) 0.4774(12) 0.8216(8)
Co11_6 Co 0.5000 0.27443(9) 0.7500
N4_4 N 0.4421(7) 0.4241(13) 0.8125(8)
O21_4 O 0.4923(10) 0.1945(15) 0.7945(9)
O22_4 O 0.4761(8) 0.2972(13) 0.8065(8)
O23_4 O 0.4337(4) 0.3053(6) 0.6996(4)
C70_4 C 0.5514(9) 0.3638(13) 0.7092(9)
H45_4 H 0.5678 0.3635 0.7415
C71_4 C 0.6011(5) 0.4153(7) 0.6785(5)
H46_4 H 0.6041 0.3681 0.6696
H47_4 H 0.6026 0.4455 0.6530
H48_4 H 0.6262 0.4264 0.7066
C72_4 C 0.5199(8) 0.4774(12) 0.6784(8)
N5_4 N 0.5579(7) 0.4241(13) 0.6875(8)
O24_4 O 0.5077(10) 0.1945(15) 0.7055(9)
O25_4 O 0.5239(8) 0.2972(13) 0.6935(8)
O26_4 O 0.5663(4) 0.3053(6) 0.8004(4)
H53_4 H 0.512818 0.455694 0.844575
H54_4 H 0.470028 0.52214 0.83891
H55_4 H 0.4852 0.493284 0.787959
H60_4 H 0.487182 0.455694 0.655425
H61_4 H 0.529972 0.52214 0.66109
H62_4 H 0.5148 0.493284 0.712041
loop_
_geom_bond_atom_site_label_1
_geom_bond_atom_site_label_2
_geom_bond_site_symmetry_1
_geom_bond_site_symmetry_2
C1 C6 1_555 1_555
C3 H1 1_555 1_555
C4 C17 1_555 1_555
C5 H2 1_555 1_555
C6 C18 1_555 1_555
C10 C23 1_555 1_555
C12 C19 1_555 1_555
C13 H4 1_555 1_555
C14 H5 1_555 1_555
C15 C26 1_555 1_555
C16 C60 1_555 1_555
C17 C13 1_555 1_555
C18 C3 1_555 1_555
H6 C18 1_555 1_555
C19 H7 1_555 1_555
C20 C38 1_555 1_555
C23 C27 1_555 1_555
C24 C39 1_555 1_555
C26 C5 1_555 1_555
H11 C26 1_555 1_555
C27 C14 1_555 1_555
H12 C27 1_555 1_555
C28 C19 1_555 1_555
C29 C3 1_555 1_555
C30 C28 1_555 1_555
H13 C30 1_555 1_555
C31 C6 1_555 1_555
H14 C31 1_555 1_555
C32 C15 1_555 1_555
H15 C32 1_555 1_555
C34 C10 1_555 1_555
H16 C34 1_555 1_555
C35 C12 1_555 1_555
H17 C35 1_555 1_555
C36 C43 1_555 1_555
C37 C13 1_555 1_555
H18 C37 1_555 1_555
C38 C58 1_555 1_555
C39 C30 1_555 1_555
C40 C24 1_555 1_555
H19 C40 1_555 1_555
C41 C10 1_555 1_555
H20 C41 1_555 1_555
C43 H22 1_555 1_555
C45 C40 1_555 1_555
C46 H25 1_555 1_555
C48 C29 1_555 1_555
H27 C48 1_555 1_555
C50 C34 1_555 1_555
C51 C15 1_555 1_555
H28 C51 1_555 1_555
C53 H30 1_555 1_555
C54 C41 1_555 1_555
C55 H31 1_555 1_555
C56 C36 1_555 1_555
H32 C56 1_555 1_555
C57 C12 1_555 1_555
C58 C56 1_555 1_555
H33 C58 1_555 1_555
C59 C51 1_555 1_555
H34 C59 1_555 1_555
C60 C55 1_555 1_555
C61 C38 1_555 1_555
H35 C61 1_555 1_555
C62 C24 1_555 1_555
H36 C62 1_555 1_555
H37 C63 1_555 1_555
C64 C53 1_555 1_555
H38 C64 1_555 1_555
C65 C55 1_555 1_555
H39 C65 1_555 1_555
Co1 O3 1_555 1_555
Co2 N1 1_555 1_555
Co3 O4 1_555 1_555
N1 C5 1_555 1_555
O1 C20 1_555 1_555
O2 C20 1_555 1_555
O3 C1 1_555 1_555
O4 C1 1_555 1_555
O5 C16 1_555 1_555
O6 C16 1_555 1_555
O7 C4 1_555 1_555
O8 C4 1_555 1_555
O9 Co1 1_555 1_555
Co4 O5 1_555 1_555
Co6 O1 1_555 1_555
Co8 O6 1_555 1_555
Co10 O2 1_555 1_555
N3 Co1 1_555 1_555
O14 Co1 1_555 1_555
O15 Co3 1_555 1_555
O16 Co1 1_555 1_555
O17 Co2 1_555 1_555
O18 Co2 1_555 1_555
O19 Co2 1_555 1_555
O20 Co3 1_555 1_555
C14 C17 1_555 1_555
C23 C37 1_555 1_555
C28 C29 1_555 1_555
C31 C48 1_555 1_555
C35 C39 1_555 1_555
C36 C50 1_555 1_555
C43 C61 1_555 1_555
C46 C50 1_555 1_555
C46 C54 1_555 1_555
C53 C57 1_555 1_555
C57 C65 1_555 1_555
C59 N1 1_555 1_555
C60 C64 1_555 1_555
C62 C63 1_555 1_555
Co1 O7 1_555 1_555
Co2 O8 1_555 1_555
Co2 O9 1_555 1_555
Co3 O9 1_555 1_555
C2 C8 1_555 1_555
C7 C9 1_555 1_555
C9 O10 1_555 1_555
C11 C7 1_555 1_555
H3 C11 1_555 1_555
C21 C7 1_555 1_555
H8 C21 1_555 1_555
C22 C11 1_555 1_555
C25 H10 1_555 1_555
C33 C25 1_555 1_555
C42 H21 1_555 1_555
C44 C33 1_555 1_555
C47 C21 1_555 1_555
H26 C47 1_555 1_555
C49 C22 1_555 1_555
C52 C44 1_555 1_555
H29 C52 1_555 1_555
C66 C33 1_555 1_555
H40 C66 1_555 1_555
N2 C42 1_555 1_555
O10 Co8 1_555 1_555
O11 C9 1_555 1_555
O12 C2 1_555 1_555
O13 C2 1_555 1_555
Co5 N2 1_555 1_555
Co8 O11 1_555 1_555
Co9 O12 1_555 1_555
C42 C66 1_555 1_555
C47 C49 1_555 1_555
C52 N2 1_555 1_555
C16_2 C60_2 1_555 1_555
O16 C16_2 1_555 1_555
O17 C16_2 1_555 1_555
C2_2 C8_2 1_555 1_555
C7_2 C9_2 1_555 1_555
C8_2 C45_2 1_555 1_555
C9_2 O18 1_555 1_555
C11_2 C7_2 1_555 1_555
H3_2 C11_2 1_555 1_555
C12_2 C19_2 1_555 1_555
C20_2 C38_2 1_555 1_555
C21_2 C7_2 1_555 1_555
H8_2 C21_2 1_555 1_555
C22_2 C11_2 1_555 1_555
H9_2 C22_2 1_555 1_555
C24_2 C39_2 1_555 1_555
C35_2 C12_2 1_555 1_555
H17_2 C35_2 1_555 1_555
C36_2 C43_2 1_555 1_555
C38_2 C58_2 1_555 1_555
C40_2 C24_2 1_555 1_555
H19_2 C40_2 1_555 1_555
C43_2 H22_2 1_555 1_555
C45_2 C40_2 1_555 1_555
H24_2 C45_2 1_555 1_555
C46_2 H25_2 1_555 1_555
C47_2 C21_2 1_555 1_555
H26_2 C47_2 1_555 1_555
C49_2 C22_2 1_555 1_555
C53_2 H30_2 1_555 1_555
C56_2 C36_2 1_555 1_555
H32_2 C56_2 1_555 1_555
C57_2 C12_2 1_555 1_555
C58_2 C56_2 1_555 1_555
H33_2 C58_2 1_555 1_555
C61_2 C38_2 1_555 1_555
H35_2 C61_2 1_555 1_555
C62_2 C24_2 1_555 1_555
H36_2 C62_2 1_555 1_555
C63_2 C8_2 1_555 1_555
H37_2 C63_2 1_555 1_555
C64_2 C53_2 1_555 1_555
H38_2 C64_2 1_555 1_555
C65_2 C55_2 1_555 1_555
H39_2 C65_2 1_555 1_555
O1_2 C20_2 1_555 1_555
O2_2 C20_2 1_555 1_555
O19 C9_2 1_555 1_555
O20 C2_2 1_555 1_555
O13_2 C2_2 1_555 1_555
Co5 O1_2 1_555 1_555
Co10_2 O2_2 1_555 1_555
C35_2 C39_2 1_555 1_555
C36_2 C50_2 1_555 1_555
C43_2 C61_2 1_555 1_555
C46_2 C50_2 1_555 1_555
C46_2 C54_2 1_555 1_555
C47_2 C49_2 1_555 1_555
C49_2 C54_2 1_555 1_555
C53_2 C57_2 1_555 1_555
C57_2 C65_2 1_555 1_555
C62_2 C63_2 1_555 1_555
C1_2 C6_2 1_555 1_555
C3_2 H1_2 1_555 1_555
C4_2 C17_2 1_555 1_555
C5_2 H2_2 1_555 1_555
C6_2 C18_2 1_555 1_555
C10_2 C23_2 1_555 1_555
C13_2 H4_2 1_555 1_555
C14_2 H5_2 1_555 1_555
C15_2 C26_2 1_555 1_555
C17_2 C13_2 1_555 1_555
C18_2 C3_2 1_555 1_555
H6_2 C18_2 1_555 1_555
C23_2 C27_2 1_555 1_555
C25_2 H10_2 1_555 1_555
C26_2 C5_2 1_555 1_555
H11_2 C26_2 1_555 1_555
C27_2 C14_2 1_555 1_555
H12_2 C27_2 1_555 1_555
C29_2 C3_2 1_555 1_555
C30_2 C28_2 1_555 1_555
H13_2 C30_2 1_555 1_555
C31_2 C6_2 1_555 1_555
H14_2 C31_2 1_555 1_555
C32_2 C15_2 1_555 1_555
H15_2 C32_2 1_555 1_555
C33_2 C25_2 1_555 1_555
C34_2 C10_2 1_555 1_555
H16_2 C34_2 1_555 1_555
C37_2 C13_2 1_555 1_555
H18_2 C37_2 1_555 1_555
C41_2 C10_2 1_555 1_555
H20_2 C41_2 1_555 1_555
C42_2 H21_2 1_555 1_555
C44_2 C33_2 1_555 1_555
H23_2 C44_2 1_555 1_555
C48_2 C29_2 1_555 1_555
H27_2 C48_2 1_555 1_555
C51_2 C15_2 1_555 1_555
H28_2 C51_2 1_555 1_555
C52_2 C44_2 1_555 1_555
H29_2 C52_2 1_555 1_555
C59_2 C51_2 1_555 1_555
H34_2 C59_2 1_555 1_555
C66_2 C33_2 1_555 1_555
H40_2 C66_2 1_555 1_555
Co4 O3_2 1_555 1_555
Co8 N1_2 1_555 1_555
Co9 O4_2 1_555 1_555
N1_2 C5_2 1_555 1_555
N2_2 C42_2 1_555 1_555
O3_2 C1_2 1_555 1_555
O4_2 C1_2 1_555 1_555
O7_2 C4_2 1_555 1_555
O8_2 C4_2 1_555 1_555
O9_2 Co4 1_555 1_555
Co6 N2_2 1_555 1_555
N3_2 Co4 1_555 1_555
O14_2 Co4 1_555 1_555
O15_2 Co9 1_555 1_555
C14_2 C17_2 1_555 1_555
C23_2 C37_2 1_555 1_555
C25_2 C32_2 1_555 1_555
C28_2 C29_2 1_555 1_555
C31_2 C48_2 1_555 1_555
C42_2 C66_2 1_555 1_555
C52_2 N2_2 1_555 1_555
C59_2 N1_2 1_555 1_555
Co4 O7_2 1_555 1_555
Co8 O8_2 1_555 1_555
Co8 O9_2 1_555 1_555
Co9 O9_2 1_555 1_555
C25_3 H10_3 1_555 1_555
C33_3 C25_3 1_555 1_555
C42_3 H21_3 1_555 1_555
C44_3 C33_3 1_555 1_555
C52_3 C44_3 1_555 1_555
H29_3 C52_3 1_555 1_555
C66_3 C33_3 1_555 1_555
H40_3 C66_3 1_555 1_555
N3 C42_3 1_555 1_555
C42_3 C66_3 1_555 1_555
C52_3 N3 1_555 1_555
C2_3 C8_3 1_555 1_555
C7_3 C9_3 1_555 1_555
C9_3 O10_2 1_555 1_555
C11_3 C7_3 1_555 1_555
H3_3 C11_3 1_555 1_555
C21_3 C7_3 1_555 1_555
H8_3 C21_3 1_555 1_555
C22_3 C11_3 1_555 1_555
C47_3 C21_3 1_555 1_555
H26_3 C47_3 1_555 1_555
C49_3 C22_3 1_555 1_555
O10_2 Co7 1_555 1_555
O11_2 C9_3 1_555 1_555
O12_2 C2_3 1_555 1_555
O13_3 C2_3 1_555 1_555
Co7 O11_2 1_555 1_555
Co10 O12_2 1_555 1_555
C47_3 C49_3 1_555 1_555
C15_3 C26_3 1_555 1_555
C20_3 C38_3 1_555 1_555
H11_3 C26_3 1_555 1_555
C32_3 C15_3 1_555 1_555
H15_3 C32_3 1_555 1_555
C36_3 C43_3 1_555 1_555
C38_3 C58_3 1_555 1_555
C43_3 H22_3 1_555 1_555
C51_3 C15_3 1_555 1_555
H28_3 C51_3 1_555 1_555
C56_3 C36_3 1_555 1_555
H32_3 C56_3 1_555 1_555
C58_3 C56_3 1_555 1_555
H33_3 C58_3 1_555 1_555
C61_3 C38_3 1_555 1_555
H35_3 C61_3 1_555 1_555
O14_2 C20_3 1_555 1_555
O15_2 C20_3 1_555 1_555
C36_3 C50_3 1_555 1_555
C43_3 C61_3 1_555 1_555
C1_3 C6_3 1_555 1_555
C3_3 H1_3 1_555 1_555
C4_3 C17_3 1_555 1_555
C5_3 H2_3 1_555 1_555
C6_3 C18_3 1_555 1_555
C10_3 C23_3 1_555 1_555
C12_3 C19_3 1_555 1_555
C13_3 H4_3 1_555 1_555
C14_3 H5_3 1_555 1_555
C16_3 C60_3 1_555 1_555
C17_3 C13_3 1_555 1_555
C18_3 C3_3 1_555 1_555
H6_3 C18_3 1_555 1_555
C19_3 H7_3 1_555 1_555
C23_3 C27_3 1_555 1_555
C24_3 C39_3 1_555 1_555
C27_3 C14_3 1_555 1_555
H12_3 C27_3 1_555 1_555
C28_3 C19_3 1_555 1_555
C29_3 C3_3 1_555 1_555
C30_3 C28_3 1_555 1_555
H13_3 C30_3 1_555 1_555
C31_3 C6_3 1_555 1_555
H14_3 C31_3 1_555 1_555
C34_3 C10_3 1_555 1_555
C35_3 C12_3 1_555 1_555
H17_3 C35_3 1_555 1_555
C37_3 C13_3 1_555 1_555
H18_3 C37_3 1_555 1_555
C39_3 C30_3 1_555 1_555
C40_3 C24_3 1_555 1_555
H19_3 C40_3 1_555 1_555
C41_3 C10_3 1_555 1_555
H20_3 C41_3 1_555 1_555
C45_3 C40_3 1_555 1_555
C48_3 C29_3 1_555 1_555
H27_3 C48_3 1_555 1_555
C53_3 H30_3 1_555 1_555
C54_3 C41_3 1_555 1_555
C55_3 H31_3 1_555 1_555
C57_3 C12_3 1_555 1_555
H34_3 C59_3 1_555 1_555
C60_3 C55_3 1_555 1_555
C62_3 C24_3 1_555 1_555
H36_3 C62_3 1_555 1_555
H37_3 C63_3 1_555 1_555
C64_3 C53_3 1_555 1_555
H38_3 C64_3 1_555 1_555
C65_3 C55_3 1_555 1_555
H39_3 C65_3 1_555 1_555
Co5 O3_3 1_555 1_555
Co2_2 N1_3 1_555 1_555
Co10_2 O4_3 1_555 1_555
N1_3 C5_3 1_555 1_555
O3_3 C1_3 1_555 1_555
O4_3 C1_3 1_555 1_555
O5_2 C16_3 1_555 1_555
O6_2 C16_3 1_555 1_555
O7_3 C4_3 1_555 1_555
O8_3 C4_3 1_555 1_555
O9_3 Co5 1_555 1_555
Co6 O5_2 1_555 1_555
Co7 O6_2 1_555 1_555
O16_2 Co5 1_555 1_555
O17_2 Co2_2 1_555 1_555
O18_2 Co2_2 1_555 1_555
O19_2 Co2_2 1_555 1_555
O20_2 Co10_2 1_555 1_555
C14_3 C17_3 1_555 1_555
C23_3 C37_3 1_555 1_555
C28_3 C29_3 1_555 1_555
C31_3 C48_3 1_555 1_555
C35_3 C39_3 1_555 1_555
C46_3 C54_3 1_555 1_555
C53_3 C57_3 1_555 1_555
C57_3 C65_3 1_555 1_555
C59_3 N1_3 1_555 1_555
C60_3 C64_3 1_555 1_555
C62_3 C63_3 1_555 1_555
Co5 O7_3 1_555 1_555
Co2_2 O8_3 1_555 1_555
Co2_2 O9_3 1_555 1_555
Co10_2 O9_3 1_555 1_555
C20_4 C38_4 1_555 1_555
C36_4 C43_4 1_555 1_555
C38_4 C58_4 1_555 1_555
C43_4 H22_4 1_555 1_555
C56_4 C36_4 1_555 1_555
H32_4 C56_4 1_555 1_555
C58_4 C56_4 1_555 1_555
H33_4 C58_4 1_555 1_555
C61_4 C38_4 1_555 1_555
H35_4 C61_4 1_555 1_555
O14 C20_4 1_555 1_555
O15 C20_4 1_555 1_555
C36_4 C50_4 1_555 1_555
C43_4 C61_4 1_555 1_555
C2_4 C8_4 1_555 1_555
C7_4 C9_4 1_555 1_555
C8_4 C45_4 1_555 1_555
C9_4 O18_2 1_555 1_555
C11_4 C7_4 1_555 1_555
H3_4 C11_4 1_555 1_555
C12_4 C19_4 1_555 1_555
C21_4 C7_4 1_555 1_555
H8_4 C21_4 1_555 1_555
C22_4 C11_4 1_555 1_555
H9_4 C22_4 1_555 1_555
C24_4 C39_4 1_555 1_555
C35_4 C12_4 1_555 1_555
H17_4 C35_4 1_555 1_555
C40_4 C24_4 1_555 1_555
H19_4 C40_4 1_555 1_555
C45_4 C40_4 1_555 1_555
H24_4 C45_4 1_555 1_555
C47_4 C21_4 1_555 1_555
H26_4 C47_4 1_555 1_555
C49_4 C22_4 1_555 1_555
C53_4 H30_4 1_555 1_555
C57_4 C12_4 1_555 1_555
C62_4 C24_4 1_555 1_555
H36_4 C62_4 1_555 1_555
C63_4 C8_4 1_555 1_555
H37_4 C63_4 1_555 1_555
C64_4 C53_4 1_555 1_555
H38_4 C64_4 1_555 1_555
C65_4 C55_4 1_555 1_555
H39_4 C65_4 1_555 1_555
O19_2 C9_4 1_555 1_555
O20_2 C2_4 1_555 1_555
O13_4 C2_4 1_555 1_555
C35_4 C39_4 1_555 1_555
C46_4 C54_4 1_555 1_555
C47_4 C49_4 1_555 1_555
C49_4 C54_4 1_555 1_555
C53_4 C57_4 1_555 1_555
C57_4 C65_4 1_555 1_555
C62_4 C63_4 1_555 1_555
C16_4 C60_4 1_555 1_555
O16_2 C16_4 1_555 1_555
O17_2 C16_4 1_555 1_555
C15_4 C26_4 1_555 1_555
C25_4 H10_4 1_555 1_555
H11_4 C26_4 1_555 1_555
C32_4 C15_4 1_555 1_555
H15_4 C32_4 1_555 1_555
C33_4 C25_4 1_555 1_555
C42_4 H21_4 1_555 1_555
C44_4 C33_4 1_555 1_555
H23_4 C44_4 1_555 1_555
C51_4 C15_4 1_555 1_555
H28_4 C51_4 1_555 1_555
C52_4 C44_4 1_555 1_555
H29_4 C52_4 1_555 1_555
C66_4 C33_4 1_555 1_555
H40_4 C66_4 1_555 1_555
N3_2 C42_4 1_555 1_555
C25_4 C32_4 1_555 1_555
C42_4 C66_4 1_555 1_555
C52_4 N3_2 1_555 1_555
C1_4 C6_4 1_555 1_555
C3_4 H1_4 1_555 1_555
C4_4 C17_4 1_555 1_555
C5_4 H2_4 1_555 1_555
C6_4 C18_4 1_555 1_555
C10_4 C23_4 1_555 1_555
C13_4 H4_4 1_555 1_555
C14_4 H5_4 1_555 1_555
C17_4 C13_4 1_555 1_555
C18_4 C3_4 1_555 1_555
H6_4 C18_4 1_555 1_555
C23_4 C27_4 1_555 1_555
C27_4 C14_4 1_555 1_555
H12_4 C27_4 1_555 1_555
C29_4 C3_4 1_555 1_555
C30_4 C28_4 1_555 1_555
H13_4 C30_4 1_555 1_555
C31_4 C6_4 1_555 1_555
H14_4 C31_4 1_555 1_555
C34_4 C10_4 1_555 1_555
C37_4 C13_4 1_555 1_555
H18_4 C37_4 1_555 1_555
C41_4 C10_4 1_555 1_555
H20_4 C41_4 1_555 1_555
C48_4 C29_4 1_555 1_555
H27_4 C48_4 1_555 1_555
H34_4 C59_4 1_555 1_555
Co6 O3_4 1_555 1_555
Co7 N1_4 1_555 1_555
Co10 O4_4 1_555 1_555
N1_4 C5_4 1_555 1_555
O3_4 C1_4 1_555 1_555
O4_4 C1_4 1_555 1_555
O7_4 C4_4 1_555 1_555
O8_4 C4_4 1_555 1_555
O9_4 Co6 1_555 1_555
C14_4 C17_4 1_555 1_555
C23_4 C37_4 1_555 1_555
C28_4 C29_4 1_555 1_555
C31_4 C48_4 1_555 1_555
C59_4 N1_4 1_555 1_555
Co6 O7_4 1_555 1_555
Co7 O8_4 1_555 1_555
Co7 O9_4 1_555 1_555
Co10 O9_4 1_555 1_555
C1_5 C6_5 1_555 1_555
C3_5 H1_5 1_555 1_555
C4_5 C17_5 1_555 1_555
C5_5 H2_5 1_555 1_555
C6_5 C18_5 1_555 1_555
C10_5 C23_5 1_555 1_555
C12_5 C19_5 1_555 1_555
C13_5 H4_5 1_555 1_555
C14_5 H5_5 1_555 1_555
C16_5 C60_5 1_555 1_555
C17_5 C13_5 1_555 1_555
C18_5 C3_5 1_555 1_555
H6_5 C18_5 1_555 1_555
C19_5 H7_5 1_555 1_555
C23_5 C27_5 1_555 1_555
C24_5 C39_5 1_555 1_555
C27_5 C14_5 1_555 1_555
H12_5 C27_5 1_555 1_555
C28_5 C19_5 1_555 1_555
C29_5 C3_5 1_555 1_555
C30_5 C28_5 1_555 1_555
H13_5 C30_5 1_555 1_555
C31_5 C6_5 1_555 1_555
H14_5 C31_5 1_555 1_555
C34_5 C10_5 1_555 1_555
C35_5 C12_5 1_555 1_555
H17_5 C35_5 1_555 1_555
C37_5 C13_5 1_555 1_555
H18_5 C37_5 1_555 1_555
C39_5 C30_5 1_555 1_555
C40_5 C24_5 1_555 1_555
H19_5 C40_5 1_555 1_555
C41_5 C10_5 1_555 1_555
H20_5 C41_5 1_555 1_555
C45_5 C40_5 1_555 1_555
C48_5 C29_5 1_555 1_555
H27_5 C48_5 1_555 1_555
C53_5 H30_5 1_555 1_555
C54_5 C41_5 1_555 1_555
C55_5 H31_5 1_555 1_555
C57_5 C12_5 1_555 1_555
H34_5 C59_5 1_555 1_555
C60_5 C55_5 1_555 1_555
C62_5 C24_5 1_555 1_555
H36_5 C62_5 1_555 1_555
H37_5 C63_5 1_555 1_555
C64_5 C53_5 1_555 1_555
H38_5 C64_5 1_555 1_555
C65_5 C55_5 1_555 1_555
H39_5 C65_5 1_555 1_555
Co1_2 O3_5 1_555 1_555
Co2_3 N1_5 1_555 1_555
Co3_2 O4_5 1_555 1_555
N1_5 C5_5 1_555 1_555
O3_5 C1_5 1_555 1_555
O4_5 C1_5 1_555 1_555
O5_3 C16_5 1_555 1_555
O6_3 C16_5 1_555 1_555
O7_5 C4_5 1_555 1_555
O8_5 C4_5 1_555 1_555
O9_5 Co1_2 1_555 1_555
Co4_2 O5_3 1_555 1_555
Co8_2 O6_3 1_555 1_555
N3_3 Co1_2 1_555 1_555
O14_3 Co1_2 1_555 1_555
O15_3 Co3_2 1_555 1_555
O16_3 Co1_2 1_555 1_555
O17_3 Co2_3 1_555 1_555
O18_3 Co2_3 1_555 1_555
O19_3 Co2_3 1_555 1_555
O20_3 Co3_2 1_555 1_555
C14_5 C17_5 1_555 1_555
C23_5 C37_5 1_555 1_555
C28_5 C29_5 1_555 1_555
C31_5 C48_5 1_555 1_555
C35_5 C39_5 1_555 1_555
C46_5 C54_5 1_555 1_555
C53_5 C57_5 1_555 1_555
C57_5 C65_5 1_555 1_555
C59_5 N1_5 1_555 1_555
C60_5 C64_5 1_555 1_555
C62_5 C63_5 1_555 1_555
Co1_2 O7_5 1_555 1_555
Co2_3 O8_5 1_555 1_555
Co2_3 O9_5 1_555 1_555
Co3_2 O9_5 1_555 1_555
C15_5 C26_5 1_555 1_555
C20_5 C38_5 1_555 1_555
H11_5 C26_5 1_555 1_555
C32_5 C15_5 1_555 1_555
H15_5 C32_5 1_555 1_555
C36_5 C43_5 1_555 1_555
C38_5 C58_5 1_555 1_555
C43_5 H22_5 1_555 1_555
C51_5 C15_5 1_555 1_555
H28_5 C51_5 1_555 1_555
C56_5 C36_5 1_555 1_555
H32_5 C56_5 1_555 1_555
C58_5 C56_5 1_555 1_555
H33_5 C58_5 1_555 1_555
C61_5 C38_5 1_555 1_555
H35_5 C61_5 1_555 1_555
O1_3 C20_5 1_555 1_555
O2_3 C20_5 1_555 1_555
Co6_2 O1_3 1_555 1_555
Co10_3 O2_3 1_555 1_555
C36_5 C50_5 1_555 1_555
C43_5 C61_5 1_555 1_555
C2_5 C8_5 1_555 1_555
C7_5 C9_5 1_555 1_555
C9_5 O10_3 1_555 1_555
C11_5 C7_5 1_555 1_555
H3_5 C11_5 1_555 1_555
C21_5 C7_5 1_555 1_555
H8_5 C21_5 1_555 1_555
C22_5 C11_5 1_555 1_555
C47_5 C21_5 1_555 1_555
H26_5 C47_5 1_555 1_555
C49_5 C22_5 1_555 1_555
O10_3 Co8_2 1_555 1_555
O11_3 C9_5 1_555 1_555
O12_3 C2_5 1_555 1_555
O13_5 C2_5 1_555 1_555
Co8_2 O11_3 1_555 1_555
Co9_2 O12_3 1_555 1_555
C47_5 C49_5 1_555 1_555
C25_5 H10_5 1_555 1_555
C33_5 C25_5 1_555 1_555
C42_5 H21_5 1_555 1_555
C44_5 C33_5 1_555 1_555
C52_5 C44_5 1_555 1_555
H29_5 C52_5 1_555 1_555
C66_5 C33_5 1_555 1_555
H40_5 C66_5 1_555 1_555
N2_3 C42_5 1_555 1_555
Co5_2 N2_3 1_555 1_555
C42_5 C66_5 1_555 1_555
C52_5 N2_3 1_555 1_555
C1_6 C6_6 1_555 1_555
C3_6 H1_6 1_555 1_555
C4_6 C17_6 1_555 1_555
C5_6 H2_6 1_555 1_555
C6_6 C18_6 1_555 1_555
C10_6 C23_6 1_555 1_555
C13_6 H4_6 1_555 1_555
C14_6 H5_6 1_555 1_555
C17_6 C13_6 1_555 1_555
C18_6 C3_6 1_555 1_555
H6_6 C18_6 1_555 1_555
C23_6 C27_6 1_555 1_555
C27_6 C14_6 1_555 1_555
H12_6 C27_6 1_555 1_555
C29_6 C3_6 1_555 1_555
C30_6 C28_6 1_555 1_555
H13_6 C30_6 1_555 1_555
C31_6 C6_6 1_555 1_555
H14_6 C31_6 1_555 1_555
C34_6 C10_6 1_555 1_555
C37_6 C13_6 1_555 1_555
H18_6 C37_6 1_555 1_555
C41_6 C10_6 1_555 1_555
H20_6 C41_6 1_555 1_555
C48_6 C29_6 1_555 1_555
H27_6 C48_6 1_555 1_555
H34_6 C59_6 1_555 1_555
Co4_2 O3_6 1_555 1_555
Co8_2 N1_6 1_555 1_555
Co9_2 O4_6 1_555 1_555
N1_6 C5_6 1_555 1_555
O3_6 C1_6 1_555 1_555
O4_6 C1_6 1_555 1_555
O7_6 C4_6 1_555 1_555
O8_6 C4_6 1_555 1_555
O9_6 Co4_2 1_555 1_555
N3_4 Co4_2 1_555 1_555
O14_4 Co4_2 1_555 1_555
O15_4 Co9_2 1_555 1_555
C14_6 C17_6 1_555 1_555
C23_6 C37_6 1_555 1_555
C28_6 C29_6 1_555 1_555
C31_6 C48_6 1_555 1_555
C59_6 N1_6 1_555 1_555
Co4_2 O7_6 1_555 1_555
Co8_2 O8_6 1_555 1_555
Co8_2 O9_6 1_555 1_555
Co9_2 O9_6 1_555 1_555
C15_6 C26_6 1_555 1_555
C25_6 H10_6 1_555 1_555
H11_6 C26_6 1_555 1_555
C32_6 C15_6 1_555 1_555
H15_6 C32_6 1_555 1_555
C33_6 C25_6 1_555 1_555
C42_6 H21_6 1_555 1_555
C44_6 C33_6 1_555 1_555
H23_6 C44_6 1_555 1_555
C51_6 C15_6 1_555 1_555
H28_6 C51_6 1_555 1_555
C52_6 C44_6 1_555 1_555
H29_6 C52_6 1_555 1_555
C66_6 C33_6 1_555 1_555
H40_6 C66_6 1_555 1_555
N2_4 C42_6 1_555 1_555
Co6_2 N2_4 1_555 1_555
C25_6 C32_6 1_555 1_555
C42_6 C66_6 1_555 1_555
C52_6 N2_4 1_555 1_555
C16_6 C60_6 1_555 1_555
O16_3 C16_6 1_555 1_555
O17_3 C16_6 1_555 1_555
C2_6 C8_6 1_555 1_555
C7_6 C9_6 1_555 1_555
C8_6 C45_6 1_555 1_555
C9_6 O18_3 1_555 1_555
C11_6 C7_6 1_555 1_555
H3_6 C11_6 1_555 1_555
C12_6 C19_6 1_555 1_555
C21_6 C7_6 1_555 1_555
H8_6 C21_6 1_555 1_555
C22_6 C11_6 1_555 1_555
H9_6 C22_6 1_555 1_555
C24_6 C39_6 1_555 1_555
C35_6 C12_6 1_555 1_555
H17_6 C35_6 1_555 1_555
C40_6 C24_6 1_555 1_555
H19_6 C40_6 1_555 1_555
C45_6 C40_6 1_555 1_555
H24_6 C45_6 1_555 1_555
C47_6 C21_6 1_555 1_555
H26_6 C47_6 1_555 1_555
C49_6 C22_6 1_555 1_555
C53_6 H30_6 1_555 1_555
C57_6 C12_6 1_555 1_555
C62_6 C24_6 1_555 1_555
H36_6 C62_6 1_555 1_555
C63_6 C8_6 1_555 1_555
H37_6 C63_6 1_555 1_555
C64_6 C53_6 1_555 1_555
H38_6 C64_6 1_555 1_555
C65_6 C55_6 1_555 1_555
H39_6 C65_6 1_555 1_555
O19_3 C9_6 1_555 1_555
O20_3 C2_6 1_555 1_555
O13_6 C2_6 1_555 1_555
C35_6 C39_6 1_555 1_555
C46_6 C54_6 1_555 1_555
C47_6 C49_6 1_555 1_555
C49_6 C54_6 1_555 1_555
C53_6 C57_6 1_555 1_555
C57_6 C65_6 1_555 1_555
C62_6 C63_6 1_555 1_555
C20_6 C38_6 1_555 1_555
C36_6 C43_6 1_555 1_555
C38_6 C58_6 1_555 1_555
C43_6 H22_6 1_555 1_555
C56_6 C36_6 1_555 1_555
H32_6 C56_6 1_555 1_555
C58_6 C56_6 1_555 1_555
H33_6 C58_6 1_555 1_555
C61_6 C38_6 1_555 1_555
H35_6 C61_6 1_555 1_555
O1_4 C20_6 1_555 1_555
O2_4 C20_6 1_555 1_555
Co5_2 O1_4 1_555 1_555
Co10_4 O2_4 1_555 1_555
C36_6 C50_6 1_555 1_555
C43_6 C61_6 1_555 1_555
C2_7 C8_7 1_555 1_555
C7_7 C9_7 1_555 1_555
C9_7 O10_4 1_555 1_555
C11_7 C7_7 1_555 1_555
H3_7 C11_7 1_555 1_555
C21_7 C7_7 1_555 1_555
H8_7 C21_7 1_555 1_555
C22_7 C11_7 1_555 1_555
C25_7 H10_7 1_555 1_555
C33_7 C25_7 1_555 1_555
C42_7 H21_7 1_555 1_555
C44_7 C33_7 1_555 1_555
C47_7 C21_7 1_555 1_555
H26_7 C47_7 1_555 1_555
C49_7 C22_7 1_555 1_555
C52_7 C44_7 1_555 1_555
H29_7 C52_7 1_555 1_555
C66_7 C33_7 1_555 1_555
H40_7 C66_7 1_555 1_555
N3_3 C42_7 1_555 1_555
O10_4 Co7_2 1_555 1_555
O11_4 C9_7 1_555 1_555
O12_4 C2_7 1_555 1_555
O13_7 C2_7 1_555 1_555
Co7_2 O11_4 1_555 1_555
Co10_3 O12_4 1_555 1_555
C42_7 C66_7 1_555 1_555
C47_7 C49_7 1_555 1_555
C52_7 N3_3 1_555 1_555
C1_7 C6_7 1_555 1_555
C3_7 H1_7 1_555 1_555
C4_7 C17_7 1_555 1_555
C5_7 H2_7 1_555 1_555
C6_7 C18_7 1_555 1_555
C10_7 C23_7 1_555 1_555
C12_7 C19_7 1_555 1_555
C13_7 H4_7 1_555 1_555
C14_7 H5_7 1_555 1_555
C15_7 C26_7 1_555 1_555
C16_7 C60_7 1_555 1_555
C17_7 C13_7 1_555 1_555
C18_7 C3_7 1_555 1_555
H6_7 C18_7 1_555 1_555
C19_7 H7_7 1_555 1_555
C20_7 C38_7 1_555 1_555
C23_7 C27_7 1_555 1_555
C24_7 C39_7 1_555 1_555
C26_7 C5_7 1_555 1_555
H11_7 C26_7 1_555 1_555
C27_7 C14_7 1_555 1_555
H12_7 C27_7 1_555 1_555
C28_7 C19_7 1_555 1_555
C29_7 C3_7 1_555 1_555
C30_7 C28_7 1_555 1_555
H13_7 C30_7 1_555 1_555
C31_7 C6_7 1_555 1_555
H14_7 C31_7 1_555 1_555
C32_7 C15_7 1_555 1_555
H15_7 C32_7 1_555 1_555
C34_7 C10_7 1_555 1_555
H16_7 C34_7 1_555 1_555
C35_7 C12_7 1_555 1_555
H17_7 C35_7 1_555 1_555
C36_7 C43_7 1_555 1_555
C37_7 C13_7 1_555 1_555
H18_7 C37_7 1_555 1_555
C38_7 C58_7 1_555 1_555
C39_7 C30_7 1_555 1_555
C40_7 C24_7 1_555 1_555
H19_7 C40_7 1_555 1_555
C41_7 C10_7 1_555 1_555
H20_7 C41_7 1_555 1_555
C43_7 H22_7 1_555 1_555
C45_7 C40_7 1_555 1_555
C46_7 H25_7 1_555 1_555
C48_7 C29_7 1_555 1_555
H27_7 C48_7 1_555 1_555
C50_7 C34_7 1_555 1_555
C51_7 C15_7 1_555 1_555
H28_7 C51_7 1_555 1_555
C53_7 H30_7 1_555 1_555
C54_7 C41_7 1_555 1_555
C55_7 H31_7 1_555 1_555
C56_7 C36_7 1_555 1_555
H32_7 C56_7 1_555 1_555
C57_7 C12_7 1_555 1_555
C58_7 C56_7 1_555 1_555
H33_7 C58_7 1_555 1_555
C59_7 C51_7 1_555 1_555
H34_7 C59_7 1_555 1_555
C60_7 C55_7 1_555 1_555
C61_7 C38_7 1_555 1_555
H35_7 C61_7 1_555 1_555
C62_7 C24_7 1_555 1_555
H36_7 C62_7 1_555 1_555
H37_7 C63_7 1_555 1_555
C64_7 C53_7 1_555 1_555
H38_7 C64_7 1_555 1_555
C65_7 C55_7 1_555 1_555
H39_7 C65_7 1_555 1_555
Co5_2 O3_7 1_555 1_555
Co2_4 N1_7 1_555 1_555
Co10_4 O4_7 1_555 1_555
N1_7 C5_7 1_555 1_555
O14_4 C20_7 1_555 1_555
O15_4 C20_7 1_555 1_555
O3_7 C1_7 1_555 1_555
O4_7 C1_7 1_555 1_555
O5_4 C16_7 1_555 1_555
O6_4 C16_7 1_555 1_555
O7_7 C4_7 1_555 1_555
O8_7 C4_7 1_555 1_555
O9_7 Co5_2 1_555 1_555
Co6_2 O5_4 1_555 1_555
Co7_2 O6_4 1_555 1_555
O16_4 Co5_2 1_555 1_555
O17_4 Co2_4 1_555 1_555
O18_4 Co2_4 1_555 1_555
O19_4 Co2_4 1_555 1_555
O20_4 Co10_4 1_555 1_555
C14_7 C17_7 1_555 1_555
C23_7 C37_7 1_555 1_555
C28_7 C29_7 1_555 1_555
C31_7 C48_7 1_555 1_555
C35_7 C39_7 1_555 1_555
C36_7 C50_7 1_555 1_555
C43_7 C61_7 1_555 1_555
C46_7 C50_7 1_555 1_555
C46_7 C54_7 1_555 1_555
C53_7 C57_7 1_555 1_555
C57_7 C65_7 1_555 1_555
C59_7 N1_7 1_555 1_555
C60_7 C64_7 1_555 1_555
C62_7 C63_7 1_555 1_555
Co5_2 O7_7 1_555 1_555
Co2_4 O8_7 1_555 1_555
Co2_4 O9_7 1_555 1_555
Co10_4 O9_7 1_555 1_555
C1_8 C6_8 1_555 1_555
C3_8 H1_8 1_555 1_555
C4_8 C17_8 1_555 1_555
C5_8 H2_8 1_555 1_555
C6_8 C18_8 1_555 1_555
C10_8 C23_8 1_555 1_555
C13_8 H4_8 1_555 1_555
C14_8 H5_8 1_555 1_555
C15_8 C26_8 1_555 1_555
C17_8 C13_8 1_555 1_555
C18_8 C3_8 1_555 1_555
H6_8 C18_8 1_555 1_555
C23_8 C27_8 1_555 1_555
C25_8 H10_8 1_555 1_555
C26_8 C5_8 1_555 1_555
H11_8 C26_8 1_555 1_555
C27_8 C14_8 1_555 1_555
H12_8 C27_8 1_555 1_555
C29_8 C3_8 1_555 1_555
C30_8 C28_8 1_555 1_555
H13_8 C30_8 1_555 1_555
C31_8 C6_8 1_555 1_555
H14_8 C31_8 1_555 1_555
C32_8 C15_8 1_555 1_555
H15_8 C32_8 1_555 1_555
C33_8 C25_8 1_555 1_555
C34_8 C10_8 1_555 1_555
H16_8 C34_8 1_555 1_555
C37_8 C13_8 1_555 1_555
H18_8 C37_8 1_555 1_555
C41_8 C10_8 1_555 1_555
H20_8 C41_8 1_555 1_555
C42_8 H21_8 1_555 1_555
C44_8 C33_8 1_555 1_555
H23_8 C44_8 1_555 1_555
C48_8 C29_8 1_555 1_555
H27_8 C48_8 1_555 1_555
C51_8 C15_8 1_555 1_555
H28_8 C51_8 1_555 1_555
C52_8 C44_8 1_555 1_555
H29_8 C52_8 1_555 1_555
C59_8 C51_8 1_555 1_555
H34_8 C59_8 1_555 1_555
C66_8 C33_8 1_555 1_555
H40_8 C66_8 1_555 1_555
Co6_2 O3_8 1_555 1_555
Co7_2 N1_8 1_555 1_555
Co10_3 O4_8 1_555 1_555
N1_8 C5_8 1_555 1_555
N3_4 C42_8 1_555 1_555
O3_8 C1_8 1_555 1_555
O4_8 C1_8 1_555 1_555
O7_8 C4_8 1_555 1_555
O8_8 C4_8 1_555 1_555
O9_8 Co6_2 1_555 1_555
C14_8 C17_8 1_555 1_555
C23_8 C37_8 1_555 1_555
C25_8 C32_8 1_555 1_555
C28_8 C29_8 1_555 1_555
C31_8 C48_8 1_555 1_555
C42_8 C66_8 1_555 1_555
C52_8 N3_4 1_555 1_555
C59_8 N1_8 1_555 1_555
Co6_2 O7_8 1_555 1_555
Co7_2 O8_8 1_555 1_555
Co7_2 O9_8 1_555 1_555
Co10_3 O9_8 1_555 1_555
C2_8 C8_8 1_555 1_555
C7_8 C9_8 1_555 1_555
C8_8 C45_8 1_555 1_555
C9_8 O18_4 1_555 1_555
C11_8 C7_8 1_555 1_555
H3_8 C11_8 1_555 1_555
C12_8 C19_8 1_555 1_555
C20_8 C38_8 1_555 1_555
C21_8 C7_8 1_555 1_555
H8_8 C21_8 1_555 1_555
C22_8 C11_8 1_555 1_555
H9_8 C22_8 1_555 1_555
C24_8 C39_8 1_555 1_555
C35_8 C12_8 1_555 1_555
H17_8 C35_8 1_555 1_555
C36_8 C43_8 1_555 1_555
C38_8 C58_8 1_555 1_555
C40_8 C24_8 1_555 1_555
H19_8 C40_8 1_555 1_555
C43_8 H22_8 1_555 1_555
C45_8 C40_8 1_555 1_555
H24_8 C45_8 1_555 1_555
C46_8 H25_8 1_555 1_555
C47_8 C21_8 1_555 1_555
H26_8 C47_8 1_555 1_555
C49_8 C22_8 1_555 1_555
C53_8 H30_8 1_555 1_555
C56_8 C36_8 1_555 1_555
H32_8 C56_8 1_555 1_555
C57_8 C12_8 1_555 1_555
C58_8 C56_8 1_555 1_555
H33_8 C58_8 1_555 1_555
C61_8 C38_8 1_555 1_555
H35_8 C61_8 1_555 1_555
C62_8 C24_8 1_555 1_555
H36_8 C62_8 1_555 1_555
C63_8 C8_8 1_555 1_555
H37_8 C63_8 1_555 1_555
C64_8 C53_8 1_555 1_555
H38_8 C64_8 1_555 1_555
C65_8 C55_8 1_555 1_555
H39_8 C65_8 1_555 1_555
O14_3 C20_8 1_555 1_555
O15_3 C20_8 1_555 1_555
O19_4 C9_8 1_555 1_555
O20_4 C2_8 1_555 1_555
O13_8 C2_8 1_555 1_555
C35_8 C39_8 1_555 1_555
C36_8 C50_8 1_555 1_555
C43_8 C61_8 1_555 1_555
C46_8 C50_8 1_555 1_555
C46_8 C54_8 1_555 1_555
C47_8 C49_8 1_555 1_555
C49_8 C54_8 1_555 1_555
C53_8 C57_8 1_555 1_555
C57_8 C65_8 1_555 1_555
C62_8 C63_8 1_555 1_555
C16_8 C60_8 1_555 1_555
O16_4 C16_8 1_555 1_555
O17_4 C16_8 1_555 1_555
C67 H41 1_555 1_555
C68 H42 1_555 1_555
H43 C68 1_555 1_555
H44 C68 1_555 1_555
C69 N4 1_555 1_555
Co11 O21 1_555 1_555
N4 C67 1_555 1_555
O22 C67 1_555 1_555
O23 Co11 1_555 1_555
C68 N4 1_555 1_555
Co11 O22 1_555 1_555
C69 H55 1_555 1_555
O21 H51 1_555 1_555
O21 H52 1_555 1_555
C70 H45 1_555 1_555
C71 H46 1_555 1_555
H47 C71 1_555 1_555
H48 C71 1_555 1_555
C72 N5 1_555 1_555
N5 C70 1_555 1_555
O24 Co11_2 1_555 1_555
O25 Co11_2 1_555 1_555
O26 Co11_2 1_555 1_555
C70 O25 1_555 1_555
C71 N5 1_555 1_555
O24 H51_2 1_555 1_555
O24 H52_2 1_555 1_555
C72 H62 1_555 1_555
C67_2 H41_2 1_555 1_555
C68_2 H42_2 1_555 1_555
H43_2 C68_2 1_555 1_555
H44_2 C68_2 1_555 1_555
C69_2 N4_2 1_555 1_555
Co11_3 O21_2 1_555 1_555
N4_2 C67_2 1_555 1_555
O22_2 C67_2 1_555 1_555
O23_2 Co11_3 1_555 1_555
C70_2 H45_2 1_555 1_555
C71_2 H46_2 1_555 1_555
H47_2 C71_2 1_555 1_555
H48_2 C71_2 1_555 1_555
C72_2 N5_2 1_555 1_555
N5_2 C70_2 1_555 1_555
O24_2 Co11_3 1_555 1_555
O25_2 Co11_3 1_555 1_555
O26_2 Co11_3 1_555 1_555
C68_2 N4_2 1_555 1_555
Co11_3 O22_2 1_555 1_555
C70_2 O25_2 1_555 1_555
C71_2 N5_2 1_555 1_555
C69_2 H53_2 1_555 1_555
C69_2 H54_2 1_555 1_555
C69_2 H55_2 1_555 1_555
C72_2 H60_2 1_555 1_555
C72_2 H61_2 1_555 1_555
C72_2 H62_2 1_555 1_555
C70_3 H45_3 1_555 1_555
C71_3 H46_3 1_555 1_555
H47_3 C71_3 1_555 1_555
H48_3 C71_3 1_555 1_555
C72_3 N5_3 1_555 1_555
N5_3 C70_3 1_555 1_555
O24_3 Co11_4 1_555 1_555
O25_3 Co11_4 1_555 1_555
O26_3 Co11_4 1_555 1_555
C70_3 O25_3 1_555 1_555
C71_3 N5_3 1_555 1_555
O24_3 H51_3 1_555 1_555
O24_3 H52_3 1_555 1_555
C72_3 H62_3 1_555 1_555
C67_3 H41_3 1_555 1_555
C68_3 H42_3 1_555 1_555
H43_3 C68_3 1_555 1_555
H44_3 C68_3 1_555 1_555
C69_3 N4_3 1_555 1_555
Co11_5 O21_3 1_555 1_555
N4_3 C67_3 1_555 1_555
O22_3 C67_3 1_555 1_555
O23_3 Co11_5 1_555 1_555
C68_3 N4_3 1_555 1_555
Co11_5 O22_3 1_555 1_555
C69_3 H55_3 1_555 1_555
O21_3 H51_4 1_555 1_555
O21_3 H52_4 1_555 1_555
C67_4 H41_4 1_555 1_555
C68_4 H42_4 1_555 1_555
H43_4 C68_4 1_555 1_555
H44_4 C68_4 1_555 1_555
C69_4 N4_4 1_555 1_555
Co11_6 O21_4 1_555 1_555
N4_4 C67_4 1_555 1_555
O22_4 C67_4 1_555 1_555
O23_4 Co11_6 1_555 1_555
C70_4 H45_4 1_555 1_555
C71_4 H46_4 1_555 1_555
H47_4 C71_4 1_555 1_555
H48_4 C71_4 1_555 1_555
C72_4 N5_4 1_555 1_555
N5_4 C70_4 1_555 1_555
O24_4 Co11_6 1_555 1_555
O25_4 Co11_6 1_555 1_555
O26_4 Co11_6 1_555 1_555
C68_4 N4_4 1_555 1_555
Co11_6 O22_4 1_555 1_555
C70_4 O25_4 1_555 1_555
C71_4 N5_4 1_555 1_555
C69_4 H53_4 1_555 1_555
C69_4 H54_4 1_555 1_555
C69_4 H55_4 1_555 1_555
C72_4 H60_4 1_555 1_555
C72_4 H61_4 1_555 1_555
C72_4 H62_4 1_555 1_555

#END
