
###############################################################################
#
# This file contains modified crystal structure data generated from the
# MOF subset of the Cambridge Structural Database (CSD) v543 
# hosted by the Cambridge Crystallographic Data Centre (CCDC).
#
# This work is licensed under the Creative Commons
# Attribution-NonCommercial-ShareAlike 4.0 International License.
# To view a copy of this license, visit
# http://creativecommons.org/licenses/by-nc-sa/4.0/
# or send a letter to
# Creative Commons, PO Box 1866, Mountain View, CA 94042, USA.
#
# CIF created using the CSD Python API on 29 September 2022
# The structure has been converted into the P1 space group
# The structure has a 3D framework
# The original CSD entry LABZUM is in the tetragonal crystal system
# The original CSD entry LABZUM is in a Sohncke space group
# The framework has been calculated to contain at least 10.0% void space
# The void calculation uses a probe of radius 1.32A, grid spacing 0.4
#
###############################################################################

data_LABZUM
_chemical_formula_moiety         '(C168 H104 N16 O48 Zn13)n'
_symmetry_cell_setting           triclinic
_symmetry_space_group_name_H-M   'P 1'
_symmetry_Int_Tables_number      1
_space_group_name_Hall           'P 1'
loop_
_symmetry_equiv_pos_site_id
_symmetry_equiv_pos_as_xyz
1 x,y,z
_cell_length_a                   15.270(2)
_cell_length_b                   15.270(2)
_cell_length_c                   23.050(5)
_cell_angle_alpha                90
_cell_angle_beta                 90
_cell_angle_gamma                90
_cell_volume                     5374.64
loop_
_atom_site_label
_atom_site_type_symbol
_atom_site_fract_x
_atom_site_fract_y
_atom_site_fract_z
C2 C 0.0681(3) 0.2018(4) 0.2122(2)
C3 C 0.0862(3) 0.1728(7) 0.2676(3)
H1 H 0.0407 0.1585 0.2927
C4 C 0.1711(4) 0.1651(7) 0.2855(3)
H2 H 0.1836 0.1453 0.3228
C5 C 0.2382(3) 0.1867(5) 0.2481(2)
C6 C 0.1389(3) 0.2209(3) 0.17602(18)
H3 H 0.1277 0.2387 0.1381
C7 C 0.3319(3) 0.1862(6) 0.2649(2)
C8 C 0.3596(4) 0.1586(10) 0.3193(3)
H4 H 0.3196 0.1376 0.3463
C9 C 0.4468(4) 0.1630(8) 0.3323(3)
H5 H 0.4658 0.1482 0.3694
C10 C 0.5067(3) 0.1891(4) 0.2914(2)
C11 C 0.4743(3) 0.2114(3) 0.23722(17)
H6 H 0.5140 0.2282 0.2087
C12 C 0.6035(3) 0.1923(3) 0.30428(19)
N1 N 0.2214(2) 0.2145(3) 0.19362(15)
N2 N 0.3898(2) 0.2102(3) 0.22379(14)
O3 O 0.6238(2) 0.1672(3) 0.35393(14)
O4 O 0.6520(2) 0.2183(3) 0.26505(14)
H20 H 0.0102 0.2772 0.3714
C37 C 0.0669(13) 0.4055(11) 0.3217(9)
C38 C 0.0442(9) 0.4668(13) 0.2797(8)
C39 C 0.1044(13) 0.5299(11) 0.2625(6)
H23 H 0.0893 0.5709 0.2344
C40 C 0.1874(11) 0.5319(12) 0.2874(9)
H24 H 0.2276 0.5742 0.2759
C41 C 0.2101(10) 0.4707(16) 0.3294(9)
H25 H 0.2655 0.4720 0.3460
C42 C 0.1499(15) 0.4075(13) 0.3465(8)
H26 H 0.1650 0.3665 0.3747
Zn5 Zn 0.78577(3) 0.21423(3) 0.2500
Zn8 Zn 0.33875(3) 0.24220(3) 0.14166(2)
Zn9 Zn 0.74220(3) 0.16125(3) 0.39166(2)
Zn2 Zn 0.83875(3) 0.25780(3) 0.10834(2)
C1 C 0.9735(3) 0.2121(3) 0.19254(18)
C13 C 0.7575(5) 0.1123(4) 0.1332(3)
C14 C 0.7017(11) 0.0403(8) 0.1464(6)
C15 C 0.6380(12) 0.0243(14) 0.1723(11)
H8 H 0.6108 0.0707 0.1911
H9 H 0.5345 0.0112 0.2370
O1 O 0.9183(2) 0.2085(3) 0.23152(14)
O2 O 0.9602(2) 0.2267(3) 0.13985(14)
O5 O 0.7600(2) 0.1832(2) 0.16234(12)
O6 O 0.8030(5) 0.1048(5) 0.0895(2)
C22 C 0.7879(3) 0.0265(3) 0.30746(18)
C34 C 0.8877(4) 0.2425(5) 0.3668(3)
C35 C 0.9597(8) 0.2983(11) 0.3536(6)
C36 C 0.9757(14) 0.3620(12) 0.3277(11)
H21 H 0.9293 0.3892 0.3089
H22 H 0.9888 0.4655 0.2630
O7 O 0.7915(3) 0.0817(2) 0.26848(14)
O8 O 0.7733(3) 0.0398(2) 0.36015(14)
O11 O 0.8168(2) 0.2400(2) 0.33766(12)
O12 O 0.8952(5) 0.1970(5) 0.4105(2)
N5 N 0.7145(3) 0.2786(2) 0.44362(15)
N6 N 0.7214(2) 0.2855(3) 0.05638(15)
N7 N 0.7102(3) 0.1102(2) 0.47379(14)
N8 N 0.8898(2) 0.2898(3) 0.02621(14)
O14 O 0.8328(3) 0.3762(2) 0.14607(14)
O16 O 0.7817(3) 0.3480(2) 0.23495(14)
H7 H 0.7228 0.9898 0.1286
C16 C 0.5945(11) 0.9331(13) 0.1783(9)
C17 C 0.5332(13) 0.9558(9) 0.2203(8)
C18 C 0.4701(11) 0.8956(13) 0.2375(6)
H10 H 0.4291 0.9107 0.2656
C19 C 0.4681(12) 0.8126(11) 0.2126(9)
H11 H 0.4258 0.7724 0.2241
C20 C 0.5293(16) 0.7899(10) 0.1706(9)
H12 H 0.5280 0.7345 0.1540
C21 C 0.5925(13) 0.8501(15) 0.1535(8)
H13 H 0.6335 0.8350 0.1253
C23 C 0.7982(4) 0.9319(3) 0.2878(2)
C24 C 0.8272(7) 0.9138(3) 0.2324(3)
H14 H 0.8415 0.9593 0.2073
C25 C 0.8349(7) 0.8289(4) 0.2145(3)
H15 H 0.8547 0.8164 0.1772
C26 C 0.8133(5) 0.7618(3) 0.2519(2)
C27 C 0.7791(3) 0.8611(3) 0.32398(18)
H16 H 0.7613 0.8723 0.3619
C28 C 0.8138(6) 0.6681(3) 0.2351(2)
C29 C 0.8414(10) 0.6404(4) 0.1807(3)
H17 H 0.8624 0.6804 0.1537
C30 C 0.8370(8) 0.5532(4) 0.1677(3)
H18 H 0.8518 0.5342 0.1306
C31 C 0.8109(4) 0.4933(3) 0.2086(2)
C32 C 0.7886(3) 0.5257(3) 0.26278(17)
H19 H 0.7718 0.4860 0.2913
C33 C 0.8077(3) 0.3965(3) 0.19572(19)
N3 N 0.7855(3) 0.7786(2) 0.30638(15)
N4 N 0.7898(3) 0.6102(2) 0.27621(14)
Zn7 Zn 0.75780(3) 0.66125(3) 0.35834(2)
H19_2 H 0.0140 0.2718 0.0413
Zn4 Zn 0.28577(3) 0.28577(3) 0.0000
C31_2 C 0.0067(3) 0.3109(4) 0.9586(2)
C33_2 C 0.1035(3) 0.3077(3) 0.94572(19)
O9 O 0.1238(2) 0.3328(3) 0.89607(14)
O10 O 0.1520(2) 0.2817(3) 0.98495(14)
Zn4_2 Zn 0.28577(3) 0.28577(3) 1.0000
Zn6 Zn 0.24220(3) 0.33875(3) 0.85834(2)
C10_2 C 0.3109(4) 0.0067(3) 0.0414(2)
C12_2 C 0.3077(3) 0.1035(3) 0.05428(19)
O3_2 O 0.3328(3) 0.1238(2) 0.10393(14)
O4_2 O 0.2817(3) 0.1520(2) 0.01505(14)
H6_2 H 0.2718 0.0140 0.9587
C3_2 C 0.3272(7) 0.5862(3) 0.0176(3)
H1_2 H 0.3415 0.5407 0.0427
C4_2 C 0.3349(7) 0.6711(4) 0.0355(3)
H2_2 H 0.3547 0.6836 0.0728
C7_2 C 0.3138(6) 0.8319(3) 0.0149(2)
C8_2 C 0.3414(10) 0.8596(4) 0.0693(3)
H4_2 H 0.3624 0.8196 0.0963
C9_2 C 0.3370(8) 0.9468(4) 0.0823(3)
H5_2 H 0.3518 0.9658 0.1194
C22_2 C 0.4735(3) 0.2879(3) 0.05746(18)
C23_2 C 0.5681(3) 0.2982(4) 0.0378(2)
C26_2 C 0.7382(3) 0.3133(5) 0.0019(2)
C27_2 C 0.6389(3) 0.2791(3) 0.07398(18)
H16_2 H 0.6277 0.2613 0.1119
C32_2 C 0.9743(3) 0.2886(3) 0.01278(17)
C34_2 C 0.2575(5) 0.3877(4) 0.1168(3)
C35_2 C 0.2017(11) 0.4597(8) 0.1036(6)
H20_2 H 0.2228 0.5102 0.1214
C36_2 C 0.1380(12) 0.4757(14) 0.0777(11)
H21_2 H 0.1108 0.4293 0.0589
C37_2 C 0.0945(11) 0.5669(13) 0.0717(9)
C38_2 C 0.0332(13) 0.5442(9) 0.0297(8)
H22_2 H 0.0345 0.4888 0.0130
C41_2 C 0.0293(16) 0.7101(10) 0.0794(9)
H25_2 H 0.0280 0.7655 0.0960
C42_2 C 0.0925(13) 0.6499(15) 0.0965(8)
H26_2 H 0.1335 0.6650 0.1247
O7_2 O 0.4183(2) 0.2915(3) 0.01848(14)
O8_2 O 0.4602(2) 0.2733(3) 0.11015(14)
O11_2 O 0.2600(2) 0.3168(2) 0.08766(12)
O12_2 O 0.3030(5) 0.3952(5) 0.1605(2)
C1_2 C 0.2879(3) 0.4735(3) 0.94254(18)
C2_2 C 0.2982(4) 0.5681(3) 0.9622(2)
C5_2 C 0.3133(5) 0.7382(3) 0.9981(2)
C6_2 C 0.2791(3) 0.6389(3) 0.92602(18)
H3_2 H 0.2613 0.6277 0.8881
C11_2 C 0.2886(3) 0.9743(3) 0.98722(17)
C13_2 C 0.3877(4) 0.2575(5) 0.8832(3)
C14_2 C 0.4597(8) 0.2017(11) 0.8964(6)
H7_2 H 0.5102 0.2228 0.8786
C15_2 C 0.4757(14) 0.1380(12) 0.9223(11)
H8_2 H 0.4293 0.1108 0.9411
C16_2 C 0.5669(13) 0.0945(11) 0.9283(9)
C17_2 C 0.5442(9) 0.0332(13) 0.9703(8)
H9_2 H 0.4888 0.0345 0.9870
C20_2 C 0.7101(10) 0.0293(16) 0.9206(9)
H12_2 H 0.7655 0.0280 0.9040
C21_2 C 0.6499(15) 0.0925(13) 0.9035(8)
H13_2 H 0.6650 0.1335 0.8753
N1_2 N 0.2855(3) 0.7214(2) 0.94362(15)
N2_2 N 0.2898(3) 0.8898(2) 0.97379(14)
O1_2 O 0.2915(3) 0.4183(2) 0.98152(14)
O2_2 O 0.2733(3) 0.4602(2) 0.88985(14)
O5_2 O 0.3168(2) 0.2600(2) 0.91234(12)
O6_2 O 0.3952(5) 0.3030(5) 0.8395(2)
C24_2 C 0.5862(3) 0.3272(7) 0.9824(3)
H14_2 H 0.5407 0.3415 0.9573
C25_2 C 0.6711(4) 0.3349(7) 0.9645(3)
H15_2 H 0.6836 0.3547 0.9272
C28_2 C 0.8319(3) 0.3138(6) 0.9851(2)
C29_2 C 0.8596(4) 0.3414(10) 0.9307(3)
H17_2 H 0.8196 0.3624 0.9037
C30_2 C 0.9468(4) 0.3370(8) 0.9177(3)
H18_2 H 0.9658 0.3518 0.8806
Zn8_2 Zn 0.25780(3) 0.83875(3) 0.89166(2)
N6_2 N 0.2145(3) 0.2214(2) 0.80638(15)
N8_2 N 0.2102(3) 0.3898(2) 0.77621(14)
H7_3 H 0.2772 0.0102 0.6286
C16_3 C 0.4055(11) 0.0669(13) 0.6783(9)
C17_3 C 0.4668(13) 0.0442(9) 0.7203(8)
C18_2 C 0.5299(11) 0.1044(13) 0.7375(6)
H10_2 H 0.5709 0.0893 0.7656
C19_2 C 0.5319(12) 0.1874(11) 0.7126(9)
H11_2 H 0.5742 0.2276 0.7241
C20_3 C 0.4707(16) 0.2101(10) 0.6706(9)
H12_3 H 0.4720 0.2655 0.6540
C21_3 C 0.4075(13) 0.1499(15) 0.6535(8)
H13_3 H 0.3665 0.1650 0.6253
C23_3 C 0.2018(4) 0.0681(3) 0.7878(2)
C24_3 C 0.1728(7) 0.0862(3) 0.7324(3)
H14_3 H 0.1585 0.0407 0.7073
C25_3 C 0.1651(7) 0.1711(4) 0.7145(3)
H15_3 H 0.1453 0.1836 0.6772
C26_3 C 0.1867(5) 0.2382(3) 0.7519(2)
C27_3 C 0.2209(3) 0.1389(3) 0.82398(18)
H16_3 H 0.2387 0.1277 0.8619
C28_3 C 0.1862(6) 0.3319(3) 0.7351(2)
C29_3 C 0.1586(10) 0.3596(4) 0.6807(3)
H17_3 H 0.1376 0.3196 0.6537
C30_3 C 0.1630(8) 0.4468(4) 0.6677(3)
H18_3 H 0.1482 0.4658 0.6306
C31_3 C 0.1891(4) 0.5067(3) 0.7086(2)
C32_3 C 0.2114(3) 0.4743(3) 0.76278(17)
H19_3 H 0.2282 0.5140 0.7913
C33_3 C 0.1923(3) 0.6035(3) 0.69572(19)
O9_2 O 0.1672(3) 0.6238(2) 0.64607(14)
O10_2 O 0.2183(3) 0.6520(2) 0.73495(14)
Zn4_3 Zn 0.21423(3) 0.78577(3) 0.7500
Zn6_2 Zn 0.16125(3) 0.74220(3) 0.60834(2)
C1_3 C 0.0265(3) 0.7879(3) 0.69254(18)
C13_3 C 0.2425(5) 0.8877(4) 0.6332(3)
C14_3 C 0.2983(11) 0.9597(8) 0.6464(6)
C15_3 C 0.3620(12) 0.9757(14) 0.6723(11)
H8_3 H 0.3892 0.9293 0.6911
H9_3 H 0.4655 0.9888 0.7370
O1_3 O 0.0817(2) 0.7915(3) 0.73152(14)
O2_3 O 0.0398(2) 0.7733(3) 0.63985(14)
O5_3 O 0.2400(2) 0.8168(2) 0.66234(12)
O6_3 O 0.1970(5) 0.8952(5) 0.5895(2)
C22_3 C 0.2121(3) 0.9735(3) 0.80746(18)
C34_3 C 0.1123(4) 0.7575(5) 0.8668(3)
C35_3 C 0.0403(8) 0.7017(11) 0.8536(6)
C36_3 C 0.0243(14) 0.6380(12) 0.8277(11)
H21_3 H 0.0707 0.6108 0.8089
H22_3 H 0.0112 0.5345 0.7630
O7_3 O 0.2085(3) 0.9183(2) 0.76848(14)
O8_3 O 0.2267(3) 0.9602(2) 0.86015(14)
O11_3 O 0.1832(2) 0.7600(2) 0.83766(12)
O12_3 O 0.1048(5) 0.8030(5) 0.9105(2)
N6_3 N 0.2786(2) 0.7145(3) 0.55638(15)
N8_3 N 0.1102(2) 0.7102(3) 0.52621(14)
O13 O 0.3762(2) 0.8328(3) 0.85393(14)
O15 O 0.3480(2) 0.7817(3) 0.76505(14)
C2_3 C 0.9319(3) 0.7982(4) 0.7122(2)
C3_3 C 0.9138(3) 0.8272(7) 0.7676(3)
H1_3 H 0.9593 0.8415 0.7927
C4_3 C 0.8289(4) 0.8349(7) 0.7855(3)
H2_3 H 0.8164 0.8547 0.8228
C5_3 C 0.7618(3) 0.8133(5) 0.7481(2)
C6_3 C 0.8611(3) 0.7791(3) 0.67602(18)
H3_3 H 0.8723 0.7613 0.6381
C7_3 C 0.6681(3) 0.8138(6) 0.7649(2)
C8_3 C 0.6404(4) 0.8414(10) 0.8193(3)
H4_3 H 0.6804 0.8624 0.8463
C9_3 C 0.5532(4) 0.8370(8) 0.8323(3)
H5_3 H 0.5342 0.8518 0.8694
C10_3 C 0.4933(3) 0.8109(4) 0.7914(2)
C11_3 C 0.5257(3) 0.7886(3) 0.73722(17)
H6_3 H 0.4860 0.7718 0.7087
C12_3 C 0.3965(3) 0.8077(3) 0.80428(19)
N1_3 N 0.7786(2) 0.7855(3) 0.69362(15)
N2_3 N 0.6102(2) 0.7898(3) 0.72379(14)
H20_3 H 0.9898 0.7228 0.8714
C37_3 C 0.9331(13) 0.5945(11) 0.8217(9)
C38_3 C 0.9558(9) 0.5332(13) 0.7797(8)
C39_2 C 0.8956(13) 0.4701(11) 0.7625(6)
H23_2 H 0.9107 0.4291 0.7344
C40_2 C 0.8126(11) 0.4681(12) 0.7874(9)
H24_2 H 0.7724 0.4258 0.7759
C41_3 C 0.7899(10) 0.5293(16) 0.8294(9)
H25_3 H 0.7345 0.5280 0.8460
C42_3 C 0.8501(15) 0.5925(13) 0.8465(8)
H26_3 H 0.8350 0.6335 0.8747
Zn8_3 Zn 0.66125(3) 0.75780(3) 0.64166(2)
Zn1 Zn 0.71423(3) 0.71423(3) 0.5000
C1_4 C 0.7121(3) 0.5265(3) 0.44254(18)
C2_4 C 0.7018(4) 0.4319(3) 0.4622(2)
C3_4 C 0.6728(7) 0.4138(3) 0.5176(3)
H1_4 H 0.6585 0.4593 0.5427
C4_4 C 0.6651(7) 0.3289(4) 0.5355(3)
H2_4 H 0.6453 0.3164 0.5728
C5_4 C 0.6867(5) 0.2618(3) 0.4981(2)
C6_4 C 0.7209(3) 0.3611(3) 0.42602(18)
H3_4 H 0.7387 0.3723 0.3881
C7_4 C 0.6862(6) 0.1681(3) 0.5149(2)
C8_4 C 0.6586(10) 0.1404(4) 0.5693(3)
H4_4 H 0.6376 0.1804 0.5963
C9_4 C 0.6630(8) 0.0532(4) 0.5823(3)
H5_4 H 0.6482 0.0342 0.6194
C11_4 C 0.7114(3) 0.0257(3) 0.48722(17)
C13_4 C 0.6123(4) 0.7425(5) 0.3832(3)
C14_4 C 0.5403(8) 0.7983(11) 0.3964(6)
H7_4 H 0.4898 0.7772 0.3786
C15_4 C 0.5243(14) 0.8620(12) 0.4223(11)
H8_4 H 0.5707 0.8892 0.4411
C16_4 C 0.4331(13) 0.9055(11) 0.4283(9)
C17_4 C 0.4558(9) 0.9668(13) 0.4703(8)
H9_4 H 0.5112 0.9655 0.4870
C20_4 C 0.2899(10) 0.9707(16) 0.4206(9)
H12_4 H 0.2345 0.9720 0.4040
C21_4 C 0.3501(15) 0.9075(13) 0.4035(8)
H13_4 H 0.3350 0.8665 0.3753
O1_4 O 0.7085(3) 0.5817(2) 0.48152(14)
O2_4 O 0.7267(3) 0.5398(2) 0.38985(14)
O5_4 O 0.6832(2) 0.7400(2) 0.41234(12)
O6_4 O 0.6048(5) 0.6970(5) 0.3395(2)
C22_4 C 0.5265(3) 0.7121(3) 0.55746(18)
C23_4 C 0.4319(3) 0.7018(4) 0.5378(2)
C24_4 C 0.4138(3) 0.6728(7) 0.4824(3)
H14_4 H 0.4593 0.6585 0.4573
C25_4 C 0.3289(4) 0.6651(7) 0.4645(3)
H15_4 H 0.3164 0.6453 0.4272
C26_4 C 0.2618(3) 0.6867(5) 0.5019(2)
C27_4 C 0.3611(3) 0.7209(3) 0.57398(18)
H16_4 H 0.3723 0.7387 0.6119
C28_4 C 0.1681(3) 0.6862(6) 0.4851(2)
C29_4 C 0.1404(4) 0.6586(10) 0.4307(3)
H17_4 H 0.1804 0.6376 0.4037
C30_4 C 0.0532(4) 0.6630(8) 0.4177(3)
H18_4 H 0.0342 0.6482 0.3806
C32_4 C 0.0257(3) 0.7114(3) 0.51278(17)
C34_4 C 0.7425(5) 0.6123(4) 0.6168(3)
C35_4 C 0.7983(11) 0.5403(8) 0.6036(6)
H20_4 H 0.7772 0.4898 0.6214
C36_4 C 0.8620(12) 0.5243(14) 0.5777(11)
H21_4 H 0.8892 0.5707 0.5589
C37_4 C 0.9055(11) 0.4331(13) 0.5717(9)
C38_4 C 0.9668(13) 0.4558(9) 0.5297(8)
H22_4 H 0.9655 0.5112 0.5130
C41_4 C 0.9707(16) 0.2899(10) 0.5794(9)
H25_4 H 0.9720 0.2345 0.5960
C42_4 C 0.9075(13) 0.3501(15) 0.5965(8)
H26_4 H 0.8665 0.3350 0.6247
O7_4 O 0.5817(2) 0.7085(3) 0.51848(14)
O8_4 O 0.5398(2) 0.7267(3) 0.61015(14)
O11_4 O 0.7400(2) 0.6832(2) 0.58766(12)
O12_4 O 0.6970(5) 0.6048(5) 0.6605(2)
O13_2 O 0.6672(3) 0.8762(2) 0.60393(14)
O14_2 O 0.8762(2) 0.6672(3) 0.39607(14)
O15_2 O 0.7183(3) 0.8480(2) 0.51505(14)
O16_2 O 0.8480(2) 0.7183(3) 0.48495(14)
C10_4 C 0.6891(4) 0.9933(3) 0.5414(2)
H6_4 H 0.7282 0.9860 0.4587
C12_4 C 0.6923(3) 0.8965(3) 0.55428(19)
C31_4 C 0.9933(3) 0.6891(4) 0.4586(2)
H19_4 H 0.9860 0.7282 0.5413
C33_4 C 0.8965(3) 0.6923(3) 0.44572(19)
H10_3 H 0.5893 0.9291 0.0156
C18_3 C 0.6044(13) 0.9701(11) 0.9875(6)
C19_3 C 0.6874(11) 0.9681(12) 0.9626(9)
H11_3 H 0.7276 0.9258 0.9741
C39_3 C 0.9701(11) 0.6044(13) 0.0125(6)
C40_3 C 0.9681(12) 0.6874(11) 0.0374(9)
H24_3 H 0.9258 0.7276 0.0259
H23_3 H 0.9291 0.5893 0.9844
C39_4 C 0.0299(11) 0.3956(13) 0.5125(6)
H23_4 H 0.0709 0.4107 0.4844
C40_4 C 0.0319(12) 0.3126(11) 0.5374(9)
H24_4 H 0.0742 0.2724 0.5259
C18_4 C 0.3956(13) 0.0299(11) 0.4875(6)
H10_4 H 0.4107 0.0709 0.5156
C19_4 C 0.3126(11) 0.0319(12) 0.4626(9)
H11_4 H 0.2724 0.0742 0.4741
loop_
_geom_bond_atom_site_label_1
_geom_bond_atom_site_label_2
_geom_bond_site_symmetry_1
_geom_bond_site_symmetry_2
C2 C3 1_555 1_555
C3 H1 1_555 1_555
C4 C3 1_555 1_555
H2 C4 1_555 1_555
C5 C4 1_555 1_555
C6 C2 1_555 1_555
H3 C6 1_555 1_555
C7 C5 1_555 1_555
C8 C7 1_555 1_555
H4 C8 1_555 1_555
C9 C8 1_555 1_555
H5 C9 1_555 1_555
C10 C9 1_555 1_555
C11 C10 1_555 1_555
H6 C11 1_555 1_555
C12 C10 1_555 1_555
N1 C5 1_555 1_555
N2 C7 1_555 1_555
O3 C12 1_555 1_555
O4 C12 1_555 1_555
C38 C37 1_555 1_555
C39 C38 1_555 1_555
H23 C39 1_555 1_555
C40 C39 1_555 1_555
H24 C40 1_555 1_555
C41 C40 1_555 1_555
H25 C41 1_555 1_555
C42 C37 1_555 1_555
H26 C42 1_555 1_555
Zn5 O4 1_555 1_555
Zn8 N1 1_555 1_555
Zn9 O3 1_555 1_555
C6 N1 1_555 1_555
C11 N2 1_555 1_555
N2 Zn8 1_555 1_555
C41 C42 1_555 1_555
Zn5 O1 1_555 1_555
Zn2 O2 1_555 1_555
C13 C14 1_555 1_555
C15 C14 1_555 1_555
H8 C15 1_555 1_555
O1 C1 1_555 1_555
O2 C1 1_555 1_555
O5 Zn5 1_555 1_555
O6 Zn2 1_555 1_555
Zn9 O8 1_555 1_555
C34 C35 1_555 1_555
C36 C35 1_555 1_555
H21 C36 1_555 1_555
O7 Zn5 1_555 1_555
O8 C22 1_555 1_555
O11 Zn5 1_555 1_555
O12 Zn9 1_555 1_555
N5 Zn9 1_555 1_555
N6 Zn2 1_555 1_555
N7 Zn9 1_555 1_555
N8 Zn2 1_555 1_555
O14 Zn2 1_555 1_555
O16 Zn5 1_555 1_555
Zn2 O5 1_555 1_555
C13 O5 1_555 1_555
C13 O6 1_555 1_555
Zn9 O11 1_555 1_555
C22 O7 1_555 1_555
C34 O11 1_555 1_555
C34 O12 1_555 1_555
C17 C16 1_555 1_555
C18 C17 1_555 1_555
H10 C18 1_555 1_555
C19 C18 1_555 1_555
H11 C19 1_555 1_555
C20 C19 1_555 1_555
H12 C20 1_555 1_555
C21 C16 1_555 1_555
H13 C21 1_555 1_555
C23 C24 1_555 1_555
C24 H14 1_555 1_555
C25 C24 1_555 1_555
H15 C25 1_555 1_555
C26 C25 1_555 1_555
C27 C23 1_555 1_555
H16 C27 1_555 1_555
C28 C26 1_555 1_555
C29 C28 1_555 1_555
H17 C29 1_555 1_555
C30 C29 1_555 1_555
H18 C30 1_555 1_555
C31 C30 1_555 1_555
C32 C31 1_555 1_555
H19 C32 1_555 1_555
C33 C31 1_555 1_555
N3 C26 1_555 1_555
N4 C28 1_555 1_555
O14 C33 1_555 1_555
O16 C33 1_555 1_555
Zn7 N3 1_555 1_555
C20 C21 1_555 1_555
C27 N3 1_555 1_555
C32 N4 1_555 1_555
N4 Zn7 1_555 1_555
C33_2 C31_2 1_555 1_555
O9 C33_2 1_555 1_555
O10 C33_2 1_555 1_555
Zn4_2 O10 1_555 1_555
Zn6 O9 1_555 1_555
C12_2 C10_2 1_555 1_555
O3_2 C12_2 1_555 1_555
O4_2 C12_2 1_555 1_555
Zn4 O4_2 1_555 1_555
Zn8 O3_2 1_555 1_555
C3_2 H1_2 1_555 1_555
C4_2 C3_2 1_555 1_555
H2_2 C4_2 1_555 1_555
C8_2 C7_2 1_555 1_555
H4_2 C8_2 1_555 1_555
C9_2 C8_2 1_555 1_555
H5_2 C9_2 1_555 1_555
Zn8 O8_2 1_555 1_555
C22_2 C23_2 1_555 1_555
C27_2 C23_2 1_555 1_555
H16_2 C27_2 1_555 1_555
C34_2 C35_2 1_555 1_555
C35_2 H20_2 1_555 1_555
C36_2 C35_2 1_555 1_555
H21_2 C36_2 1_555 1_555
C37_2 C36_2 1_555 1_555
C38_2 C37_2 1_555 1_555
H22_2 C38_2 1_555 1_555
H25_2 C41_2 1_555 1_555
C42_2 C37_2 1_555 1_555
H26_2 C42_2 1_555 1_555
N6 C26_2 1_555 1_555
O7_2 Zn4 1_555 1_555
O8_2 C22_2 1_555 1_555
O11_2 Zn4 1_555 1_555
O12_2 Zn8 1_555 1_555
Zn8 O11_2 1_555 1_555
C22_2 O7_2 1_555 1_555
C27_2 N6 1_555 1_555
C32_2 N8 1_555 1_555
C34_2 O11_2 1_555 1_555
C34_2 O12_2 1_555 1_555
C41_2 C42_2 1_555 1_555
Zn4_2 O1_2 1_555 1_555
Zn6 O2_2 1_555 1_555
C1_2 C2_2 1_555 1_555
C6_2 C2_2 1_555 1_555
H3_2 C6_2 1_555 1_555
C13_2 C14_2 1_555 1_555
C14_2 H7_2 1_555 1_555
C15_2 C14_2 1_555 1_555
H8_2 C15_2 1_555 1_555
C16_2 C15_2 1_555 1_555
C17_2 C16_2 1_555 1_555
H9_2 C17_2 1_555 1_555
H12_2 C20_2 1_555 1_555
C21_2 C16_2 1_555 1_555
H13_2 C21_2 1_555 1_555
N1_2 C5_2 1_555 1_555
O1_2 C1_2 1_555 1_555
O2_2 C1_2 1_555 1_555
O5_2 Zn4_2 1_555 1_555
O6_2 Zn6 1_555 1_555
C24_2 H14_2 1_555 1_555
C25_2 C24_2 1_555 1_555
H15_2 C25_2 1_555 1_555
C29_2 C28_2 1_555 1_555
H17_2 C29_2 1_555 1_555
C30_2 C29_2 1_555 1_555
H18_2 C30_2 1_555 1_555
Zn8_2 N1_2 1_555 1_555
N6_2 Zn6 1_555 1_555
N8_2 Zn6 1_555 1_555
Zn6 O5_2 1_555 1_555
C6_2 N1_2 1_555 1_555
C11_2 N2_2 1_555 1_555
C13_2 O5_2 1_555 1_555
C13_2 O6_2 1_555 1_555
C20_2 C21_2 1_555 1_555
N2_2 Zn8_2 1_555 1_555
C17_3 C16_3 1_555 1_555
C18_2 C17_3 1_555 1_555
H10_2 C18_2 1_555 1_555
C19_2 C18_2 1_555 1_555
H11_2 C19_2 1_555 1_555
C20_3 C19_2 1_555 1_555
H12_3 C20_3 1_555 1_555
C21_3 C16_3 1_555 1_555
H13_3 C21_3 1_555 1_555
C23_3 C24_3 1_555 1_555
C24_3 H14_3 1_555 1_555
C25_3 C24_3 1_555 1_555
H15_3 C25_3 1_555 1_555
C26_3 C25_3 1_555 1_555
C27_3 C23_3 1_555 1_555
H16_3 C27_3 1_555 1_555
C28_3 C26_3 1_555 1_555
C29_3 C28_3 1_555 1_555
H17_3 C29_3 1_555 1_555
C30_3 C29_3 1_555 1_555
H18_3 C30_3 1_555 1_555
C31_3 C30_3 1_555 1_555
C32_3 C31_3 1_555 1_555
H19_3 C32_3 1_555 1_555
C33_3 C31_3 1_555 1_555
N6_2 C26_3 1_555 1_555
N8_2 C28_3 1_555 1_555
O9_2 C33_3 1_555 1_555
O10_2 C33_3 1_555 1_555
Zn4_3 O10_2 1_555 1_555
Zn6_2 O9_2 1_555 1_555
C20_3 C21_3 1_555 1_555
C27_3 N6_2 1_555 1_555
C32_3 N8_2 1_555 1_555
Zn4_3 O1_3 1_555 1_555
Zn6_2 O2_3 1_555 1_555
C13_3 C14_3 1_555 1_555
C15_3 C14_3 1_555 1_555
H8_3 C15_3 1_555 1_555
O1_3 C1_3 1_555 1_555
O2_3 C1_3 1_555 1_555
O5_3 Zn4_3 1_555 1_555
O6_3 Zn6_2 1_555 1_555
Zn8_2 O8_3 1_555 1_555
C34_3 C35_3 1_555 1_555
C36_3 C35_3 1_555 1_555
H21_3 C36_3 1_555 1_555
O7_3 Zn4_3 1_555 1_555
O8_3 C22_3 1_555 1_555
O11_3 Zn4_3 1_555 1_555
O12_3 Zn8_2 1_555 1_555
N6_3 Zn6_2 1_555 1_555
N8_3 Zn6_2 1_555 1_555
O13 Zn8_2 1_555 1_555
O15 Zn4_3 1_555 1_555
Zn6_2 O5_3 1_555 1_555
C13_3 O5_3 1_555 1_555
C13_3 O6_3 1_555 1_555
Zn8_2 O11_3 1_555 1_555
C22_3 O7_3 1_555 1_555
C34_3 O11_3 1_555 1_555
C34_3 O12_3 1_555 1_555
C2_3 C3_3 1_555 1_555
C3_3 H1_3 1_555 1_555
C4_3 C3_3 1_555 1_555
H2_3 C4_3 1_555 1_555
C5_3 C4_3 1_555 1_555
C6_3 C2_3 1_555 1_555
H3_3 C6_3 1_555 1_555
C7_3 C5_3 1_555 1_555
C8_3 C7_3 1_555 1_555
H4_3 C8_3 1_555 1_555
C9_3 C8_3 1_555 1_555
H5_3 C9_3 1_555 1_555
C10_3 C9_3 1_555 1_555
C11_3 C10_3 1_555 1_555
H6_3 C11_3 1_555 1_555
C12_3 C10_3 1_555 1_555
N1_3 C5_3 1_555 1_555
N2_3 C7_3 1_555 1_555
O13 C12_3 1_555 1_555
O15 C12_3 1_555 1_555
C38_3 C37_3 1_555 1_555
C39_2 C38_3 1_555 1_555
H23_2 C39_2 1_555 1_555
C40_2 C39_2 1_555 1_555
H24_2 C40_2 1_555 1_555
C41_3 C40_2 1_555 1_555
H25_3 C41_3 1_555 1_555
C42_3 C37_3 1_555 1_555
H26_3 C42_3 1_555 1_555
Zn8_3 N1_3 1_555 1_555
C6_3 N1_3 1_555 1_555
C11_3 N2_3 1_555 1_555
N2_3 Zn8_3 1_555 1_555
C41_3 C42_3 1_555 1_555
Zn1 O1_4 1_555 1_555
Zn7 O2_4 1_555 1_555
C1_4 C2_4 1_555 1_555
C2_4 C3_4 1_555 1_555
C3_4 H1_4 1_555 1_555
C4_4 C3_4 1_555 1_555
H2_4 C4_4 1_555 1_555
C5_4 C4_4 1_555 1_555
C6_4 C2_4 1_555 1_555
H3_4 C6_4 1_555 1_555
C7_4 C5_4 1_555 1_555
C8_4 C7_4 1_555 1_555
H4_4 C8_4 1_555 1_555
C9_4 C8_4 1_555 1_555
H5_4 C9_4 1_555 1_555
C13_4 C14_4 1_555 1_555
C14_4 H7_4 1_555 1_555
C15_4 C14_4 1_555 1_555
H8_4 C15_4 1_555 1_555
C16_4 C15_4 1_555 1_555
C17_4 C16_4 1_555 1_555
H9_4 C17_4 1_555 1_555
H12_4 C20_4 1_555 1_555
C21_4 C16_4 1_555 1_555
H13_4 C21_4 1_555 1_555
N5 C5_4 1_555 1_555
N7 C7_4 1_555 1_555
O1_4 C1_4 1_555 1_555
O2_4 C1_4 1_555 1_555
O5_4 Zn1 1_555 1_555
O6_4 Zn7 1_555 1_555
Zn8_3 O8_4 1_555 1_555
C22_4 C23_4 1_555 1_555
C23_4 C24_4 1_555 1_555
C24_4 H14_4 1_555 1_555
C25_4 C24_4 1_555 1_555
H15_4 C25_4 1_555 1_555
C26_4 C25_4 1_555 1_555
C27_4 C23_4 1_555 1_555
H16_4 C27_4 1_555 1_555
C28_4 C26_4 1_555 1_555
C29_4 C28_4 1_555 1_555
H17_4 C29_4 1_555 1_555
C30_4 C29_4 1_555 1_555
H18_4 C30_4 1_555 1_555
C34_4 C35_4 1_555 1_555
C35_4 H20_4 1_555 1_555
C36_4 C35_4 1_555 1_555
H21_4 C36_4 1_555 1_555
C37_4 C36_4 1_555 1_555
C38_4 C37_4 1_555 1_555
H22_4 C38_4 1_555 1_555
H25_4 C41_4 1_555 1_555
C42_4 C37_4 1_555 1_555
H26_4 C42_4 1_555 1_555
N6_3 C26_4 1_555 1_555
N8_3 C28_4 1_555 1_555
O7_4 Zn1 1_555 1_555
O8_4 C22_4 1_555 1_555
O11_4 Zn1 1_555 1_555
O12_4 Zn8_3 1_555 1_555
O13_2 Zn8_3 1_555 1_555
O14_2 Zn7 1_555 1_555
O15_2 Zn1 1_555 1_555
O16_2 Zn1 1_555 1_555
Zn7 O5_4 1_555 1_555
C6_4 N5 1_555 1_555
C11_4 N7 1_555 1_555
C13_4 O5_4 1_555 1_555
C13_4 O6_4 1_555 1_555
C20_4 C21_4 1_555 1_555
Zn8_3 O11_4 1_555 1_555
C22_4 O7_4 1_555 1_555
C27_4 N6_3 1_555 1_555
C32_4 N8_3 1_555 1_555
C34_4 O11_4 1_555 1_555
C34_4 O12_4 1_555 1_555
C41_4 C42_4 1_555 1_555
C12_4 C10_4 1_555 1_555
O13_2 C12_4 1_555 1_555
O15_2 C12_4 1_555 1_555
C33_4 C31_4 1_555 1_555
O14_2 C33_4 1_555 1_555
O16_2 C33_4 1_555 1_555
C19_3 C18_3 1_555 1_555
H11_3 C19_3 1_555 1_555
C40_3 C39_3 1_555 1_555
H24_3 C40_3 1_555 1_555
H23_4 C39_4 1_555 1_555
C40_4 C39_4 1_555 1_555
H24_4 C40_4 1_555 1_555
H10_4 C18_4 1_555 1_555
C19_4 C18_4 1_555 1_555
H11_4 C19_4 1_555 1_555

#END
