
###############################################################################
#
# This file contains modified crystal structure data generated from the
# MOF subset of the Cambridge Structural Database (CSD) v543 
# hosted by the Cambridge Crystallographic Data Centre (CCDC).
#
# This work is licensed under the Creative Commons
# Attribution-NonCommercial-ShareAlike 4.0 International License.
# To view a copy of this license, visit
# http://creativecommons.org/licenses/by-nc-sa/4.0/
# or send a letter to
# Creative Commons, PO Box 1866, Mountain View, CA 94042, USA.
#
# CIF created using the CSD Python API on 29 September 2022
# The structure has been converted into the P1 space group
# The structure has a 3D framework
# The original CSD entry LABZOG is in the tetragonal crystal system
# The original CSD entry LABZOG is in a Sohncke space group
# The framework has been calculated to contain at least 10.0% void space
# The void calculation uses a probe of radius 1.32A, grid spacing 0.4
#
###############################################################################

data_LABZOG
_chemical_formula_moiety         '(C152 H88 N16 O48 Zn13)n'
_symmetry_cell_setting           triclinic
_symmetry_space_group_name_H-M   'P 1'
_symmetry_Int_Tables_number      1
_space_group_name_Hall           'P 1'
loop_
_symmetry_equiv_pos_site_id
_symmetry_equiv_pos_as_xyz
1 x,y,z
_cell_length_a                   15.160(2)
_cell_length_b                   15.160(2)
_cell_length_c                   23.030(5)
_cell_angle_alpha                90
_cell_angle_beta                 90
_cell_angle_gamma                90
_cell_volume                     5292.88
loop_
_atom_site_label
_atom_site_type_symbol
_atom_site_fract_x
_atom_site_fract_y
_atom_site_fract_z
C31 C 0.0276(3) 0.2098(4) 0.0592(2)
O9 O 0.0828(3) 0.2085(4) 0.0200(2)
O10 O 0.0397(2) 0.2213(3) 0.11150(17)
Zn5 Zn 0.21492(4) 0.21492(4) 0.0000
Zn6 Zn 0.16181(4) 0.25464(4) 0.14319(2)
Zn5_2 Zn 0.21492(4) 0.21492(4) 1.0000
C12 C 0.2098(4) 0.0276(3) 0.9408(2)
O3 O 0.2085(4) 0.0828(3) 0.9800(2)
O4 O 0.2213(3) 0.0397(2) 0.88850(17)
Zn9 Zn 0.25464(4) 0.16181(4) 0.85681(2)
C1 C 0.1921(4) 0.3948(3) 0.0557(2)
C2 C 0.1870(6) 0.4930(4) 0.0421(3)
C3 C 0.1559(11) 0.5538(5) 0.0821(4)
H1 H 0.1380 0.5348 0.1186
C4 C 0.1514(12) 0.6407(5) 0.0685(3)
H2 H 0.1289 0.6811 0.0950
C5 C 0.1812(8) 0.6684(4) 0.0142(3)
C8 C 0.1558(12) 0.8282(5) 0.0352(4)
H4 H 0.1315 0.8148 0.0712
C9 C 0.1668(10) 0.9162(4) 0.0171(3)
H5 H 0.1540 0.9625 0.0422
C13 C 0.2445(5) 0.1100(5) 0.1205(3)
C14 C 0.3064(6) 0.0352(5) 0.1091(4)
C15 C 0.3684(7) 0.0426(5) 0.0649(4)
H7 H 0.3725 0.0946 0.0436
O1 O 0.2218(3) 0.3475(2) 0.01774(18)
O2 O 0.1645(3) 0.3735(3) 0.10557(18)
O5 O 0.2448(3) 0.1789(3) 0.08816(17)
O6 O 0.1941(5) 0.1090(5) 0.1637(3)
C25 C 0.5253(4) 0.2130(4) 0.0110(2)
H14 H 0.4855 0.2326 0.0389
C26 C 0.7608(4) 0.1831(8) 0.0033(3)
C29 C 0.9331(3) 0.1970(5) 0.0390(3)
C30 C 0.8618(3) 0.2162(5) 0.0739(2)
H17 H 0.8727 0.2336 0.1119
N3 N 0.6104(3) 0.2116(4) 0.02450(18)
N4 N 0.7776(3) 0.2111(4) 0.0562(2)
Zn8 Zn 0.66181(4) 0.24536(4) 0.10681(2)
N5 N 0.1104(3) 0.2884(4) 0.22550(18)
N7 N 0.2776(3) 0.2889(4) 0.1938(2)
C6 C 0.2130(4) 0.5253(4) 0.9890(2)
H3 H 0.2326 0.4855 0.9611
C7 C 0.1831(8) 0.7608(4) 0.9967(3)
C10 C 0.1970(5) 0.9331(3) 0.9610(3)
C11 C 0.2162(5) 0.8618(3) 0.9261(2)
H6 H 0.2336 0.8727 0.8881
N1 N 0.2116(4) 0.6104(3) 0.97550(18)
N2 N 0.2111(4) 0.7776(3) 0.9438(2)
C20 C 0.3948(3) 0.1921(4) 0.9443(2)
C21 C 0.4930(4) 0.1870(6) 0.9579(3)
C22 C 0.5538(5) 0.1559(11) 0.9179(4)
H12 H 0.5348 0.1380 0.8814
C23 C 0.6407(5) 0.1514(12) 0.9315(3)
H13 H 0.6811 0.1289 0.9050
C24 C 0.6684(4) 0.1812(8) 0.9858(3)
C27 C 0.8282(5) 0.1558(12) 0.9648(4)
H15 H 0.8148 0.1315 0.9288
C28 C 0.9162(4) 0.1668(10) 0.9829(3)
H16 H 0.9625 0.1540 0.9578
C32 C 0.1100(5) 0.2445(5) 0.8795(3)
C33 C 0.0352(5) 0.3064(6) 0.8909(4)
C34 C 0.0426(5) 0.3684(7) 0.9351(4)
H18 H 0.0946 0.3725 0.9564
O7 O 0.3475(2) 0.2218(3) 0.98226(18)
O8 O 0.3735(3) 0.1645(3) 0.89443(18)
O11 O 0.1789(3) 0.2448(3) 0.91184(17)
O12 O 0.1090(5) 0.1941(5) 0.8363(3)
Zn7 Zn 0.24536(4) 0.66181(4) 0.89319(2)
N6 N 0.2884(4) 0.1104(3) 0.77450(18)
N8 N 0.2889(4) 0.2776(3) 0.8062(2)
C22_2 C 0.3441(11) 0.0538(5) 0.6679(4)
H12_2 H 0.3620 0.0348 0.6314
C23_2 C 0.3486(12) 0.1407(5) 0.6815(3)
H13_2 H 0.3711 0.1811 0.6550
C24_2 C 0.3188(8) 0.1684(4) 0.7358(3)
C25_2 C 0.2870(4) 0.0253(4) 0.7610(2)
C26_2 C 0.3169(8) 0.2608(4) 0.7533(3)
C27_2 C 0.3442(12) 0.3282(5) 0.7148(4)
H15_2 H 0.3685 0.3148 0.6788
C28_2 C 0.3332(10) 0.4162(4) 0.7329(3)
H16_2 H 0.3460 0.4625 0.7078
C29_2 C 0.3030(5) 0.4331(3) 0.7890(3)
C30_2 C 0.2838(5) 0.3618(3) 0.8239(2)
H17_2 H 0.2664 0.3727 0.8619
C31_2 C 0.2902(4) 0.5276(3) 0.8092(2)
O9_2 O 0.2915(4) 0.5828(3) 0.7700(2)
O10_2 O 0.2787(3) 0.5397(2) 0.86150(17)
Zn5_3 Zn 0.28508(4) 0.71492(4) 0.7500
C1_2 C 0.1052(3) 0.6921(4) 0.8057(2)
C2_2 C 0.0070(4) 0.6870(6) 0.7921(3)
H3_2 H 0.0145 0.7326 0.7111
C13_2 C 0.3900(5) 0.7445(5) 0.8705(3)
C14_2 C 0.4648(5) 0.8064(6) 0.8591(4)
C15_2 C 0.4574(5) 0.8684(7) 0.8149(4)
H7_2 H 0.4054 0.8725 0.7936
C16 C 0.5276(7) 0.9243(7) 0.8026(4)
H8 H 0.5226 0.9658 0.7730
C17 C 0.6052(6) 0.9183(9) 0.8345(5)
H9 H 0.6522 0.9557 0.8263
C18 C 0.6126(5) 0.8563(9) 0.8787(6)
H10 H 0.6645 0.8522 0.9000
C19 C 0.5424(6) 0.8004(7) 0.8910(5)
H11 H 0.5473 0.7589 0.9206
O1_2 O 0.1525(2) 0.7218(3) 0.76774(18)
O2_2 O 0.1265(3) 0.6645(3) 0.85557(18)
O5_2 O 0.3211(3) 0.7448(3) 0.83816(17)
O6_2 O 0.3910(5) 0.6941(5) 0.9137(3)
Zn3 Zn 0.33819(4) 0.75464(4) 0.60681(2)
C20_2 C 0.3079(4) 0.8948(3) 0.6943(2)
C21_2 C 0.3130(6) 0.9930(4) 0.7079(3)
H14_2 H 0.2674 0.9855 0.7889
C32_2 C 0.2555(5) 0.6100(5) 0.6295(3)
C33_2 C 0.1936(6) 0.5352(5) 0.6409(4)
C34_2 C 0.1316(7) 0.5426(5) 0.6851(4)
H18_2 H 0.1275 0.5946 0.7064
C35 C 0.0757(7) 0.4724(7) 0.6974(4)
H19 H 0.0342 0.4774 0.7270
C36 C 0.0817(9) 0.3948(6) 0.6655(5)
H20 H 0.0443 0.3478 0.6737
C37 C 0.1437(9) 0.3874(5) 0.6213(6)
H21 H 0.1478 0.3355 0.6000
C38 C 0.1996(7) 0.4576(6) 0.6090(5)
H22 H 0.2411 0.4527 0.5794
O7_2 O 0.2782(3) 0.8475(2) 0.73226(18)
O8_2 O 0.3355(3) 0.8735(3) 0.64443(18)
O11_2 O 0.2552(3) 0.6789(3) 0.66184(17)
O12_2 O 0.3059(5) 0.6090(5) 0.5863(3)
N6_2 N 0.3896(3) 0.7884(4) 0.52450(18)
N8_2 N 0.2224(3) 0.7889(4) 0.5562(2)
O13 O 0.4172(3) 0.7085(4) 0.7300(2)
O15 O 0.4603(2) 0.7213(3) 0.63850(17)
C3_2 C 0.9462(5) 0.6559(11) 0.8321(4)
H1_2 H 0.9652 0.6380 0.8686
C4_2 C 0.8593(5) 0.6514(12) 0.8185(3)
H2_2 H 0.8189 0.6289 0.8450
C5_2 C 0.8316(4) 0.6812(8) 0.7642(3)
C6_2 C 0.9747(4) 0.7130(4) 0.7390(2)
C7_2 C 0.7392(4) 0.6831(8) 0.7467(3)
C8_2 C 0.6718(5) 0.6558(12) 0.7852(4)
H4_2 H 0.6852 0.6315 0.8212
C9_2 C 0.5838(4) 0.6668(10) 0.7671(3)
H5_2 H 0.5375 0.6540 0.7922
C10_2 C 0.5669(3) 0.6970(5) 0.7110(3)
C11_2 C 0.6382(3) 0.7162(5) 0.6761(2)
H6_2 H 0.6273 0.7336 0.6381
C12_2 C 0.4724(3) 0.7098(4) 0.6908(2)
N1_2 N 0.8896(3) 0.7116(4) 0.72550(18)
N2_2 N 0.7224(3) 0.7111(4) 0.6938(2)
Zn7_2 Zn 0.83819(4) 0.74536(4) 0.64319(2)
Zn1 Zn 0.78508(4) 0.78508(4) 0.5000
C1_3 C 0.8079(4) 0.6052(3) 0.5557(2)
C2_3 C 0.8130(6) 0.5070(4) 0.5421(3)
C3_3 C 0.8441(11) 0.4462(5) 0.5821(4)
H1_3 H 0.8620 0.4652 0.6186
C4_3 C 0.8486(12) 0.3593(5) 0.5685(3)
H2_3 H 0.8711 0.3189 0.5950
C5_3 C 0.8188(8) 0.3316(4) 0.5142(3)
C6_3 C 0.7870(4) 0.4747(4) 0.4890(2)
H3_3 H 0.7674 0.5145 0.4611
C7_3 C 0.8169(8) 0.2392(4) 0.4967(3)
C8_3 C 0.8442(12) 0.1718(5) 0.5352(4)
H4_3 H 0.8685 0.1852 0.5712
C9_3 C 0.8332(10) 0.0838(4) 0.5171(3)
H5_3 H 0.8460 0.0375 0.5422
C10_3 C 0.8030(5) 0.0669(3) 0.4610(3)
C11_3 C 0.7838(5) 0.1382(3) 0.4261(2)
H6_3 H 0.7664 0.1273 0.3881
C13_3 C 0.7555(5) 0.8900(5) 0.6205(3)
C14_3 C 0.6936(6) 0.9648(5) 0.6091(4)
C15_3 C 0.6316(7) 0.9574(5) 0.5649(4)
H7_3 H 0.6275 0.9054 0.5436
N1_3 N 0.7884(4) 0.3896(3) 0.47550(18)
N2_3 N 0.7889(4) 0.2224(3) 0.4438(2)
O1_3 O 0.7782(3) 0.6525(2) 0.51774(18)
O2_3 O 0.8355(3) 0.6265(3) 0.60557(18)
O5_3 O 0.7552(3) 0.8211(3) 0.58816(17)
O6_3 O 0.8059(5) 0.8910(5) 0.6637(3)
Zn3_2 Zn 0.74536(4) 0.83819(4) 0.35681(2)
C20_3 C 0.6052(3) 0.8079(4) 0.4443(2)
C21_3 C 0.5070(4) 0.8130(6) 0.4579(3)
C22_3 C 0.4462(5) 0.8441(11) 0.4179(4)
H12_3 H 0.4652 0.8620 0.3814
C23_3 C 0.3593(5) 0.8486(12) 0.4315(3)
H13_3 H 0.3189 0.8711 0.4050
C24_3 C 0.3316(4) 0.8188(8) 0.4858(3)
C25_3 C 0.4747(4) 0.7870(4) 0.5110(2)
H14_3 H 0.5145 0.7674 0.5389
C26_3 C 0.2392(4) 0.8169(8) 0.5033(3)
C27_3 C 0.1718(5) 0.8442(12) 0.4648(4)
H15_3 H 0.1852 0.8685 0.4288
C28_3 C 0.0838(4) 0.8332(10) 0.4829(3)
H16_3 H 0.0375 0.8460 0.4578
C29_3 C 0.0669(3) 0.8030(5) 0.5390(3)
C30_3 C 0.1382(3) 0.7838(5) 0.5739(2)
H17_3 H 0.1273 0.7664 0.6119
C32_3 C 0.8900(5) 0.7555(5) 0.3795(3)
C33_3 C 0.9648(5) 0.6936(6) 0.3909(4)
C34_3 C 0.9574(5) 0.6316(7) 0.4351(4)
H18_3 H 0.9054 0.6275 0.4564
O7_3 O 0.6525(2) 0.7782(3) 0.48226(18)
O8_3 O 0.6265(3) 0.8355(3) 0.39443(18)
O11_3 O 0.8211(3) 0.7552(3) 0.41184(17)
O12_3 O 0.8910(5) 0.8059(5) 0.3363(3)
Zn7_3 Zn 0.75464(4) 0.33819(4) 0.39319(2)
N6_3 N 0.7116(4) 0.8896(3) 0.27450(18)
N8_3 N 0.7111(4) 0.7224(3) 0.3062(2)
O13_2 O 0.7915(4) 0.9172(3) 0.4800(2)
O14 O 0.9172(3) 0.7915(4) 0.5200(2)
O15_2 O 0.7787(3) 0.9603(2) 0.38850(17)
O16 O 0.9603(2) 0.7787(3) 0.61150(17)
C12_3 C 0.7902(4) 0.9724(3) 0.4408(2)
C31_3 C 0.9724(3) 0.7902(4) 0.5592(2)
C3_4 C 0.0538(5) 0.3441(11) 0.3321(4)
H1_4 H 0.0348 0.3620 0.3686
C4_4 C 0.1407(5) 0.3486(12) 0.3185(3)
H2_4 H 0.1811 0.3711 0.3450
C5_4 C 0.1684(4) 0.3188(8) 0.2642(3)
C6_4 C 0.0253(4) 0.2870(4) 0.2390(2)
C7_4 C 0.2608(4) 0.3169(8) 0.2467(3)
C8_4 C 0.3282(5) 0.3442(12) 0.2852(4)
H4_4 H 0.3148 0.3685 0.3212
C9_4 C 0.4162(4) 0.3332(10) 0.2671(3)
H5_4 H 0.4625 0.3460 0.2922
C10_4 C 0.4331(3) 0.3030(5) 0.2110(3)
C11_4 C 0.3618(3) 0.2838(5) 0.1761(2)
H6_4 H 0.3727 0.2664 0.1381
C12_4 C 0.5276(3) 0.2902(4) 0.1908(2)
O3_2 O 0.5828(3) 0.2915(4) 0.2300(2)
O4_2 O 0.5397(2) 0.2787(3) 0.13850(17)
Zn4 Zn 0.71492(4) 0.28508(4) 0.2500
C1_4 C 0.8948(3) 0.3079(4) 0.3057(2)
C2_4 C 0.9930(4) 0.3130(6) 0.2921(3)
H3_4 H 0.9855 0.2674 0.2111
C13_4 C 0.6100(5) 0.2555(5) 0.3705(3)
C14_4 C 0.5352(5) 0.1936(6) 0.3591(4)
C15_4 C 0.5426(5) 0.1316(7) 0.3149(4)
H7_4 H 0.5946 0.1275 0.2936
C16_2 C 0.4724(7) 0.0757(7) 0.3026(4)
H8_2 H 0.4774 0.0342 0.2730
C17_2 C 0.3948(6) 0.0817(9) 0.3345(5)
H9_2 H 0.3478 0.0443 0.3263
C18_2 C 0.3874(5) 0.1437(9) 0.3787(6)
H10_2 H 0.3355 0.1478 0.4000
C19_2 C 0.4576(6) 0.1996(7) 0.3910(5)
H11_2 H 0.4527 0.2411 0.4206
O1_4 O 0.8475(2) 0.2782(3) 0.26774(18)
O2_4 O 0.8735(3) 0.3355(3) 0.35557(18)
O5_4 O 0.6789(3) 0.2552(3) 0.33816(17)
O6_4 O 0.6090(5) 0.3059(5) 0.4137(3)
C20_4 C 0.6921(4) 0.1052(3) 0.1943(2)
C21_4 C 0.6870(6) 0.0070(4) 0.2079(3)
H14_4 H 0.7326 0.0145 0.2889
C32_4 C 0.7445(5) 0.3900(5) 0.1295(3)
C33_4 C 0.8064(6) 0.4648(5) 0.1409(4)
C34_4 C 0.8684(7) 0.4574(5) 0.1851(4)
H18_4 H 0.8725 0.4054 0.2064
C35_2 C 0.9243(7) 0.5276(7) 0.1974(4)
H19_2 H 0.9658 0.5226 0.2270
C36_2 C 0.9183(9) 0.6052(6) 0.1655(5)
H20_2 H 0.9557 0.6522 0.1737
C37_2 C 0.8563(9) 0.6126(5) 0.1213(6)
H21_2 H 0.8522 0.6645 0.1000
C38_2 C 0.8004(7) 0.5424(6) 0.1090(5)
H22_2 H 0.7589 0.5473 0.0794
O7_4 O 0.7218(3) 0.1525(2) 0.23226(18)
O8_4 O 0.6645(3) 0.1265(3) 0.14443(18)
O11_4 O 0.7448(3) 0.3211(3) 0.16184(17)
O12_4 O 0.6941(5) 0.3910(5) 0.0863(3)
O14_2 O 0.7085(4) 0.4172(3) 0.2700(2)
O16_2 O 0.7213(3) 0.4603(2) 0.36150(17)
C22_4 C 0.6559(11) 0.9462(5) 0.1679(4)
H12_4 H 0.6380 0.9652 0.1314
C23_4 C 0.6514(12) 0.8593(5) 0.1815(3)
H13_4 H 0.6289 0.8189 0.1550
C24_4 C 0.6812(8) 0.8316(4) 0.2358(3)
C25_4 C 0.7130(4) 0.9747(4) 0.2610(2)
C26_4 C 0.6831(8) 0.7392(4) 0.2533(3)
C27_4 C 0.6558(12) 0.6718(5) 0.2148(4)
H15_4 H 0.6315 0.6852 0.1788
C28_4 C 0.6668(10) 0.5838(4) 0.2329(3)
H16_4 H 0.6540 0.5375 0.2078
C29_4 C 0.6970(5) 0.5669(3) 0.2890(3)
C30_4 C 0.7162(5) 0.6382(3) 0.3239(2)
H17_4 H 0.7336 0.6273 0.3619
C31_4 C 0.7098(4) 0.4724(3) 0.3092(2)
C16_3 C 0.4243(7) 0.9724(7) 0.0526(4)
H8_3 H 0.4658 0.9774 0.0230
C17_3 C 0.4183(9) 0.8948(6) 0.0845(5)
H9_3 H 0.4557 0.8478 0.0763
C18_3 C 0.3563(9) 0.8874(5) 0.1287(6)
H10_3 H 0.3522 0.8355 0.1500
C19_3 C 0.3004(7) 0.9576(6) 0.1410(5)
H11_3 H 0.2589 0.9527 0.1706
C35_3 C 0.9724(7) 0.4243(7) 0.9474(4)
H19_3 H 0.9774 0.4658 0.9770
C36_3 C 0.8948(6) 0.4183(9) 0.9155(5)
H20_3 H 0.8478 0.4557 0.9237
C37_3 C 0.8874(5) 0.3563(9) 0.8713(6)
H21_3 H 0.8355 0.3522 0.8500
C38_3 C 0.9576(6) 0.3004(7) 0.8590(5)
H22_3 H 0.9527 0.2589 0.8294
C35_4 C 0.0276(7) 0.5757(7) 0.4474(4)
H19_4 H 0.0226 0.5342 0.4770
C36_4 C 0.1052(6) 0.5817(9) 0.4155(5)
H20_4 H 0.1522 0.5443 0.4237
C37_4 C 0.1126(5) 0.6437(9) 0.3713(6)
H21_4 H 0.1645 0.6478 0.3500
C38_4 C 0.0424(6) 0.6996(7) 0.3590(5)
H22_4 H 0.0473 0.7411 0.3294
C16_4 C 0.5757(7) 0.0276(7) 0.5526(4)
H8_4 H 0.5342 0.0226 0.5230
C17_4 C 0.5817(9) 0.1052(6) 0.5845(5)
H9_4 H 0.5443 0.1522 0.5763
C18_4 C 0.6437(9) 0.1126(5) 0.6287(6)
H10_4 H 0.6478 0.1645 0.6500
C19_4 C 0.6996(7) 0.0424(6) 0.6410(5)
H11_4 H 0.7411 0.0473 0.6706
loop_
_geom_bond_atom_site_label_1
_geom_bond_atom_site_label_2
_geom_bond_site_symmetry_1
_geom_bond_site_symmetry_2
O9 C31 1_555 1_555
O10 C31 1_555 1_555
Zn5 O9 1_555 1_555
Zn6 O10 1_555 1_555
O3 C12 1_555 1_555
O4 C12 1_555 1_555
Zn5_2 O3 1_555 1_555
Zn9 O4 1_555 1_555
Zn5 O1 1_555 1_555
Zn6 O2 1_555 1_555
C1 C2 1_555 1_555
C2 C3 1_555 1_555
C3 H1 1_555 1_555
C4 C3 1_555 1_555
H2 C4 1_555 1_555
C5 C4 1_555 1_555
H4 C8 1_555 1_555
C9 C8 1_555 1_555
H5 C9 1_555 1_555
C13 C14 1_555 1_555
C14 C15 1_555 1_555
C15 H7 1_555 1_555
O1 C1 1_555 1_555
O2 C1 1_555 1_555
O5 Zn5 1_555 1_555
O6 Zn6 1_555 1_555
H14 C25 1_555 1_555
C30 C29 1_555 1_555
H17 C30 1_555 1_555
N4 C26 1_555 1_555
Zn8 N3 1_555 1_555
N5 Zn6 1_555 1_555
N7 Zn6 1_555 1_555
Zn6 O5 1_555 1_555
C13 O5 1_555 1_555
C13 O6 1_555 1_555
C25 N3 1_555 1_555
C30 N4 1_555 1_555
N4 Zn8 1_555 1_555
H3 C6 1_555 1_555
C11 C10 1_555 1_555
H6 C11 1_555 1_555
N2 C7 1_555 1_555
Zn9 O8 1_555 1_555
C20 C21 1_555 1_555
C21 C22 1_555 1_555
C22 H12 1_555 1_555
C23 C22 1_555 1_555
H13 C23 1_555 1_555
C24 C23 1_555 1_555
H15 C27 1_555 1_555
C28 C27 1_555 1_555
H16 C28 1_555 1_555
C32 C33 1_555 1_555
C33 C34 1_555 1_555
C34 H18 1_555 1_555
O7 Zn5_2 1_555 1_555
O8 C20 1_555 1_555
O11 Zn5_2 1_555 1_555
O12 Zn9 1_555 1_555
Zn7 N1 1_555 1_555
N6 Zn9 1_555 1_555
N8 Zn9 1_555 1_555
C6 N1 1_555 1_555
C11 N2 1_555 1_555
N2 Zn7 1_555 1_555
Zn9 O11 1_555 1_555
C20 O7 1_555 1_555
C32 O11 1_555 1_555
C32 O12 1_555 1_555
C22_2 H12_2 1_555 1_555
C23_2 C22_2 1_555 1_555
H13_2 C23_2 1_555 1_555
C24_2 C23_2 1_555 1_555
C26_2 C24_2 1_555 1_555
C27_2 C26_2 1_555 1_555
H15_2 C27_2 1_555 1_555
C28_2 C27_2 1_555 1_555
H16_2 C28_2 1_555 1_555
C29_2 C28_2 1_555 1_555
C30_2 C29_2 1_555 1_555
H17_2 C30_2 1_555 1_555
C31_2 C29_2 1_555 1_555
N6 C24_2 1_555 1_555
N8 C26_2 1_555 1_555
O9_2 C31_2 1_555 1_555
O10_2 C31_2 1_555 1_555
Zn5_3 O9_2 1_555 1_555
Zn7 O10_2 1_555 1_555
C25_2 N6 1_555 1_555
C30_2 N8 1_555 1_555
Zn5_3 O1_2 1_555 1_555
Zn7 O2_2 1_555 1_555
C1_2 C2_2 1_555 1_555
C13_2 C14_2 1_555 1_555
C14_2 C15_2 1_555 1_555
C15_2 H7_2 1_555 1_555
C16 C15_2 1_555 1_555
H8 C16 1_555 1_555
C17 C16 1_555 1_555
H9 C17 1_555 1_555
C18 C17 1_555 1_555
H10 C18 1_555 1_555
C19 C14_2 1_555 1_555
H11 C19 1_555 1_555
O1_2 C1_2 1_555 1_555
O2_2 C1_2 1_555 1_555
O5_2 Zn5_3 1_555 1_555
O6_2 Zn7 1_555 1_555
Zn3 O8_2 1_555 1_555
C20_2 C21_2 1_555 1_555
C32_2 C33_2 1_555 1_555
C33_2 C34_2 1_555 1_555
C34_2 H18_2 1_555 1_555
C35 C34_2 1_555 1_555
H19 C35 1_555 1_555
C36 C35 1_555 1_555
H20 C36 1_555 1_555
C37 C36 1_555 1_555
H21 C37 1_555 1_555
C38 C33_2 1_555 1_555
H22 C38 1_555 1_555
O7_2 Zn5_3 1_555 1_555
O8_2 C20_2 1_555 1_555
O11_2 Zn5_3 1_555 1_555
O12_2 Zn3 1_555 1_555
N6_2 Zn3 1_555 1_555
N8_2 Zn3 1_555 1_555
O13 Zn5_3 1_555 1_555
O15 Zn3 1_555 1_555
Zn7 O5_2 1_555 1_555
C13_2 O5_2 1_555 1_555
C13_2 O6_2 1_555 1_555
C18 C19 1_555 1_555
Zn3 O11_2 1_555 1_555
C20_2 O7_2 1_555 1_555
C32_2 O11_2 1_555 1_555
C32_2 O12_2 1_555 1_555
C37 C38 1_555 1_555
C3_2 H1_2 1_555 1_555
C4_2 C3_2 1_555 1_555
H2_2 C4_2 1_555 1_555
C5_2 C4_2 1_555 1_555
C7_2 C5_2 1_555 1_555
C8_2 C7_2 1_555 1_555
H4_2 C8_2 1_555 1_555
C9_2 C8_2 1_555 1_555
H5_2 C9_2 1_555 1_555
C10_2 C9_2 1_555 1_555
C11_2 C10_2 1_555 1_555
H6_2 C11_2 1_555 1_555
C12_2 C10_2 1_555 1_555
N1_2 C5_2 1_555 1_555
N2_2 C7_2 1_555 1_555
O13 C12_2 1_555 1_555
O15 C12_2 1_555 1_555
Zn7_2 N1_2 1_555 1_555
C6_2 N1_2 1_555 1_555
C11_2 N2_2 1_555 1_555
N2_2 Zn7_2 1_555 1_555
Zn1 O1_3 1_555 1_555
Zn7_2 O2_3 1_555 1_555
C1_3 C2_3 1_555 1_555
C2_3 C3_3 1_555 1_555
C3_3 H1_3 1_555 1_555
C4_3 C3_3 1_555 1_555
H2_3 C4_3 1_555 1_555
C5_3 C4_3 1_555 1_555
C6_3 C2_3 1_555 1_555
H3_3 C6_3 1_555 1_555
C7_3 C5_3 1_555 1_555
C8_3 C7_3 1_555 1_555
H4_3 C8_3 1_555 1_555
C9_3 C8_3 1_555 1_555
H5_3 C9_3 1_555 1_555
C10_3 C9_3 1_555 1_555
C11_3 C10_3 1_555 1_555
H6_3 C11_3 1_555 1_555
C13_3 C14_3 1_555 1_555
C14_3 C15_3 1_555 1_555
C15_3 H7_3 1_555 1_555
N1_3 C5_3 1_555 1_555
N2_3 C7_3 1_555 1_555
O1_3 C1_3 1_555 1_555
O2_3 C1_3 1_555 1_555
O5_3 Zn1 1_555 1_555
O6_3 Zn7_2 1_555 1_555
Zn3_2 O8_3 1_555 1_555
C20_3 C21_3 1_555 1_555
C21_3 C22_3 1_555 1_555
C22_3 H12_3 1_555 1_555
C23_3 C22_3 1_555 1_555
H13_3 C23_3 1_555 1_555
C24_3 C23_3 1_555 1_555
C25_3 C21_3 1_555 1_555
H14_3 C25_3 1_555 1_555
C26_3 C24_3 1_555 1_555
C27_3 C26_3 1_555 1_555
H15_3 C27_3 1_555 1_555
C28_3 C27_3 1_555 1_555
H16_3 C28_3 1_555 1_555
C29_3 C28_3 1_555 1_555
C30_3 C29_3 1_555 1_555
H17_3 C30_3 1_555 1_555
C32_3 C33_3 1_555 1_555
C33_3 C34_3 1_555 1_555
C34_3 H18_3 1_555 1_555
N6_2 C24_3 1_555 1_555
N8_2 C26_3 1_555 1_555
O7_3 Zn1 1_555 1_555
O8_3 C20_3 1_555 1_555
O11_3 Zn1 1_555 1_555
O12_3 Zn3_2 1_555 1_555
Zn7_3 N1_3 1_555 1_555
N6_3 Zn3_2 1_555 1_555
N8_3 Zn3_2 1_555 1_555
O13_2 Zn1 1_555 1_555
O14 Zn1 1_555 1_555
O15_2 Zn3_2 1_555 1_555
O16 Zn7_2 1_555 1_555
Zn7_2 O5_3 1_555 1_555
C6_3 N1_3 1_555 1_555
C11_3 N2_3 1_555 1_555
C13_3 O5_3 1_555 1_555
C13_3 O6_3 1_555 1_555
N2_3 Zn7_3 1_555 1_555
Zn3_2 O11_3 1_555 1_555
C20_3 O7_3 1_555 1_555
C25_3 N6_2 1_555 1_555
C30_3 N8_2 1_555 1_555
C32_3 O11_3 1_555 1_555
C32_3 O12_3 1_555 1_555
O13_2 C12_3 1_555 1_555
O15_2 C12_3 1_555 1_555
O14 C31_3 1_555 1_555
O16 C31_3 1_555 1_555
C3_4 H1_4 1_555 1_555
C4_4 C3_4 1_555 1_555
H2_4 C4_4 1_555 1_555
C5_4 C4_4 1_555 1_555
C7_4 C5_4 1_555 1_555
C8_4 C7_4 1_555 1_555
H4_4 C8_4 1_555 1_555
C9_4 C8_4 1_555 1_555
H5_4 C9_4 1_555 1_555
C10_4 C9_4 1_555 1_555
C11_4 C10_4 1_555 1_555
H6_4 C11_4 1_555 1_555
C12_4 C10_4 1_555 1_555
N5 C5_4 1_555 1_555
N7 C7_4 1_555 1_555
O3_2 C12_4 1_555 1_555
O4_2 C12_4 1_555 1_555
Zn4 O3_2 1_555 1_555
Zn8 O4_2 1_555 1_555
C6_4 N5 1_555 1_555
C11_4 N7 1_555 1_555
Zn4 O1_4 1_555 1_555
Zn7_3 O2_4 1_555 1_555
C1_4 C2_4 1_555 1_555
C13_4 C14_4 1_555 1_555
C14_4 C15_4 1_555 1_555
C15_4 H7_4 1_555 1_555
C16_2 C15_4 1_555 1_555
H8_2 C16_2 1_555 1_555
C17_2 C16_2 1_555 1_555
H9_2 C17_2 1_555 1_555
C18_2 C17_2 1_555 1_555
H10_2 C18_2 1_555 1_555
C19_2 C14_4 1_555 1_555
H11_2 C19_2 1_555 1_555
O1_4 C1_4 1_555 1_555
O2_4 C1_4 1_555 1_555
O5_4 Zn4 1_555 1_555
O6_4 Zn7_3 1_555 1_555
Zn8 O8_4 1_555 1_555
C20_4 C21_4 1_555 1_555
C32_4 C33_4 1_555 1_555
C33_4 C34_4 1_555 1_555
C34_4 H18_4 1_555 1_555
C35_2 C34_4 1_555 1_555
H19_2 C35_2 1_555 1_555
C36_2 C35_2 1_555 1_555
H20_2 C36_2 1_555 1_555
C37_2 C36_2 1_555 1_555
H21_2 C37_2 1_555 1_555
C38_2 C33_4 1_555 1_555
H22_2 C38_2 1_555 1_555
O7_4 Zn4 1_555 1_555
O8_4 C20_4 1_555 1_555
O11_4 Zn4 1_555 1_555
O12_4 Zn8 1_555 1_555
O14_2 Zn4 1_555 1_555
O16_2 Zn7_3 1_555 1_555
Zn7_3 O5_4 1_555 1_555
C13_4 O5_4 1_555 1_555
C13_4 O6_4 1_555 1_555
C18_2 C19_2 1_555 1_555
Zn8 O11_4 1_555 1_555
C20_4 O7_4 1_555 1_555
C32_4 O11_4 1_555 1_555
C32_4 O12_4 1_555 1_555
C37_2 C38_2 1_555 1_555
C22_4 H12_4 1_555 1_555
C23_4 C22_4 1_555 1_555
H13_4 C23_4 1_555 1_555
C24_4 C23_4 1_555 1_555
C26_4 C24_4 1_555 1_555
C27_4 C26_4 1_555 1_555
H15_4 C27_4 1_555 1_555
C28_4 C27_4 1_555 1_555
H16_4 C28_4 1_555 1_555
C29_4 C28_4 1_555 1_555
C30_4 C29_4 1_555 1_555
H17_4 C30_4 1_555 1_555
C31_4 C29_4 1_555 1_555
N6_3 C24_4 1_555 1_555
N8_3 C26_4 1_555 1_555
O14_2 C31_4 1_555 1_555
O16_2 C31_4 1_555 1_555
C25_4 N6_3 1_555 1_555
C30_4 N8_3 1_555 1_555
H8_3 C16_3 1_555 1_555
C17_3 C16_3 1_555 1_555
H9_3 C17_3 1_555 1_555
C18_3 C17_3 1_555 1_555
H10_3 C18_3 1_555 1_555
H11_3 C19_3 1_555 1_555
C18_3 C19_3 1_555 1_555
H19_3 C35_3 1_555 1_555
C36_3 C35_3 1_555 1_555
H20_3 C36_3 1_555 1_555
C37_3 C36_3 1_555 1_555
H21_3 C37_3 1_555 1_555
H22_3 C38_3 1_555 1_555
C37_3 C38_3 1_555 1_555
H19_4 C35_4 1_555 1_555
C36_4 C35_4 1_555 1_555
H20_4 C36_4 1_555 1_555
C37_4 C36_4 1_555 1_555
H21_4 C37_4 1_555 1_555
H22_4 C38_4 1_555 1_555
C37_4 C38_4 1_555 1_555
H8_4 C16_4 1_555 1_555
C17_4 C16_4 1_555 1_555
H9_4 C17_4 1_555 1_555
C18_4 C17_4 1_555 1_555
H10_4 C18_4 1_555 1_555
H11_4 C19_4 1_555 1_555
C18_4 C19_4 1_555 1_555

#END
