
###############################################################################
#
# This file contains modified crystal structure data generated from the
# MOF subset of the Cambridge Structural Database (CSD) v543 
# hosted by the Cambridge Crystallographic Data Centre (CCDC).
#
# This work is licensed under the Creative Commons
# Attribution-NonCommercial-ShareAlike 4.0 International License.
# To view a copy of this license, visit
# http://creativecommons.org/licenses/by-nc-sa/4.0/
# or send a letter to
# Creative Commons, PO Box 1866, Mountain View, CA 94042, USA.
#
# CIF created using the CSD Python API on 29 September 2022
# The structure has been converted into the P1 space group
# The structure has a 3D framework
# The original CSD entry LABZIA is in the tetragonal crystal system
# The original CSD entry LABZIA is in a Sohncke space group
# The framework has been calculated to contain at least 10.0% void space
# The void calculation uses a probe of radius 1.32A, grid spacing 0.4
#
###############################################################################

data_LABZIA
_chemical_formula_moiety         '(C112 H72 N16 O48 Zn13)n'
_symmetry_cell_setting           triclinic
_symmetry_space_group_name_H-M   'P 1'
_symmetry_Int_Tables_number      1
_space_group_name_Hall           'P 1'
loop_
_symmetry_equiv_pos_site_id
_symmetry_equiv_pos_as_xyz
1 x,y,z
_cell_length_a                   15.300(2)
_cell_length_b                   15.300(2)
_cell_length_c                   23.280(5)
_cell_angle_alpha                90
_cell_angle_beta                 90
_cell_angle_gamma                90
_cell_volume                     5449.62
loop_
_atom_site_label
_atom_site_type_symbol
_atom_site_fract_x
_atom_site_fract_y
_atom_site_fract_z
C2 C 0.0662(2) 0.1985(3) 0.21071(16)
C3 C 0.0848(3) 0.1715(5) 0.2660(2)
H1 H 0.0395 0.1595 0.2915
C4 C 0.1695(3) 0.1622(6) 0.2833(2)
H2 H 0.1827 0.1417 0.3199
C5 C 0.2358(2) 0.1841(4) 0.24498(16)
C6 C 0.1359(2) 0.2144(2) 0.17440(14)
H3 H 0.1241 0.2292 0.1364
C7 C 0.3296(2) 0.1851(4) 0.26177(15)
C8 C 0.3564(3) 0.1649(7) 0.3179(2)
H4 H 0.3160 0.1496 0.3460
C9 C 0.4452(3) 0.1686(6) 0.33000(18)
H5 H 0.4647 0.1556 0.3668
C10 C 0.5040(2) 0.1909(3) 0.28853(16)
C11 C 0.4725(2) 0.2106(2) 0.23382(14)
H6 H 0.5123 0.2256 0.2053
C12 C 0.6013(2) 0.1925(2) 0.30098(14)
N1 N 0.21907(17) 0.2093(2) 0.19107(11)
N2 N 0.38736(17) 0.2088(2) 0.22053(11)
O3 O 0.65018(15) 0.2185(2) 0.26212(11)
O4 O 0.62137(16) 0.1684(2) 0.35041(11)
H17 H 0.0047 0.2951 0.3466
Zn5 Zn 0.78385(2) 0.21615(2) 0.2500
Zn8 Zn 0.33607(2) 0.23703(2) 0.13951(2)
Zn9 Zn 0.73703(2) 0.16393(2) 0.38951(2)
Zn2 Zn 0.83607(2) 0.26297(2) 0.11049(2)
C1 C 0.9719(2) 0.2124(2) 0.19213(14)
C13 C 0.7514(4) 0.1162(3) 0.1365(2)
C14 C 0.6834(13) 0.0541(11) 0.1568(8)
H7 H 0.6697 0.0662 0.1962
H9 H 0.6317 0.0606 0.1338
O1 O 0.91744(15) 0.2101(2) 0.23234(11)
O2 O 0.95734(14) 0.22621(19) 0.14033(10)
O5 O 0.76284(16) 0.18683(16) 0.16308(10)
O6 O 0.7862(4) 0.1023(3) 0.09026(19)
C15 C 0.7876(2) 0.0281(2) 0.30787(14)
C27 C 0.8838(3) 0.2486(4) 0.3635(2)
C28 C 0.9459(11) 0.3166(13) 0.3432(8)
H16 H 0.9338 0.3303 0.3038
H18 H 0.9394 0.3683 0.3662
O7 O 0.7899(2) 0.08256(15) 0.26766(11)
O8 O 0.77379(19) 0.04266(14) 0.35967(10)
O11 O 0.81317(16) 0.23716(16) 0.33692(10)
O12 O 0.8977(3) 0.2138(4) 0.40974(19)
N5 N 0.7093(2) 0.28093(17) 0.44107(11)
N6 N 0.71907(17) 0.2907(2) 0.05893(11)
N7 N 0.7088(2) 0.11264(17) 0.47053(11)
N8 N 0.88736(17) 0.2912(2) 0.02947(11)
O14 O 0.7815(2) 0.34982(15) 0.23788(11)
O16 O 0.8316(2) 0.37863(16) 0.14959(11)
H8 H 0.7049 0.9953 0.1534
C16 C 0.8015(3) 0.9338(2) 0.28929(16)
C17 C 0.8285(5) 0.9152(3) 0.2340(2)
H10 H 0.8405 0.9605 0.2085
C18 C 0.8378(6) 0.8305(3) 0.2167(2)
H11 H 0.8583 0.8173 0.1801
C19 C 0.8159(4) 0.7642(2) 0.25502(16)
C20 C 0.7856(2) 0.8641(2) 0.32560(14)
H12 H 0.7708 0.8759 0.3636
C21 C 0.8149(4) 0.6704(2) 0.23823(15)
C22 C 0.8351(7) 0.6436(3) 0.1821(2)
H13 H 0.8504 0.6840 0.1540
C23 C 0.8314(6) 0.5548(3) 0.17000(18)
H14 H 0.8444 0.5353 0.1332
C24 C 0.8091(3) 0.4960(2) 0.21147(16)
C25 C 0.7894(2) 0.5275(2) 0.26618(14)
H15 H 0.7744 0.4877 0.2947
C26 C 0.8075(2) 0.3987(2) 0.19902(14)
N3 N 0.7907(2) 0.78093(17) 0.30893(11)
N4 N 0.7912(2) 0.61264(17) 0.27947(11)
Zn7 Zn 0.76297(2) 0.66393(2) 0.36049(2)
H15_2 H 0.0123 0.2744 0.0447
Zn4 Zn 0.28385(2) 0.28385(2) 0.0000
C24_2 C 0.0040(2) 0.3091(3) 0.96147(16)
C26_2 C 0.1013(2) 0.3075(2) 0.94902(14)
O9 O 0.15018(15) 0.2815(2) 0.98788(11)
O10 O 0.12137(16) 0.3316(2) 0.89959(11)
Zn4_2 Zn 0.28385(2) 0.28385(2) 1.0000
Zn6 Zn 0.23703(2) 0.33607(2) 0.86049(2)
C10_2 C 0.3091(3) 0.0040(2) 0.03853(16)
C12_2 C 0.3075(2) 0.1013(2) 0.05098(14)
O3_2 O 0.2815(2) 0.15018(15) 0.01212(11)
O4_2 O 0.3316(2) 0.12137(16) 0.10041(11)
H6_2 H 0.2744 0.0123 0.9553
C3_2 C 0.3285(5) 0.5848(3) 0.0160(2)
H1_2 H 0.3405 0.5395 0.0415
C4_2 C 0.3378(6) 0.6695(3) 0.0333(2)
H2_2 H 0.3583 0.6827 0.0699
C7_2 C 0.3149(4) 0.8296(2) 0.01177(15)
C8_2 C 0.3351(7) 0.8564(3) 0.0679(2)
H4_2 H 0.3504 0.8160 0.0960
C9_2 C 0.3314(6) 0.9452(3) 0.08000(18)
H5_2 H 0.3444 0.9647 0.1168
C15_2 C 0.4719(2) 0.2876(2) 0.05787(14)
C16_2 C 0.5662(2) 0.3015(3) 0.03929(16)
C19_2 C 0.7358(2) 0.3159(4) 0.00502(16)
C20_2 C 0.6359(2) 0.2856(2) 0.07560(14)
H12_2 H 0.6241 0.2708 0.1136
C25_2 C 0.9725(2) 0.2894(2) 0.01618(14)
C27_2 C 0.2514(4) 0.3838(3) 0.1135(2)
C28_2 C 0.1834(13) 0.4459(11) 0.0932(8)
H16_2 H 0.1697 0.4338 0.0538
H17_2 H 0.2049 0.5047 0.0966
H18_2 H 0.1317 0.4394 0.1162
O7_2 O 0.41744(15) 0.2899(2) 0.01766(11)
O8_2 O 0.45734(14) 0.27379(19) 0.10967(10)
O11_2 O 0.26284(16) 0.31317(16) 0.08692(10)
O12_2 O 0.2862(4) 0.3977(3) 0.15974(19)
C1_2 C 0.2876(2) 0.4719(2) 0.94213(14)
C2_2 C 0.3015(3) 0.5662(2) 0.96071(16)
C5_2 C 0.3159(4) 0.7358(2) 0.99498(16)
C6_2 C 0.2856(2) 0.6359(2) 0.92440(14)
H3_2 H 0.2708 0.6241 0.8864
C11_2 C 0.2894(2) 0.9725(2) 0.98382(14)
C13_2 C 0.3838(3) 0.2514(4) 0.8865(2)
C14_2 C 0.4459(11) 0.1834(13) 0.9068(8)
H7_2 H 0.4338 0.1697 0.9462
H8_2 H 0.5047 0.2049 0.9034
H9_2 H 0.4394 0.1317 0.8838
N1_2 N 0.2907(2) 0.71907(17) 0.94107(11)
N2_2 N 0.2912(2) 0.88736(17) 0.97053(11)
O1_2 O 0.2899(2) 0.41744(15) 0.98234(11)
O2_2 O 0.27379(19) 0.45734(14) 0.89033(10)
O5_2 O 0.31317(16) 0.26284(16) 0.91308(10)
O6_2 O 0.3977(3) 0.2862(4) 0.84026(19)
C17_2 C 0.5848(3) 0.3285(5) 0.9840(2)
H10_2 H 0.5395 0.3405 0.9585
C18_2 C 0.6695(3) 0.3378(6) 0.9667(2)
H11_2 H 0.6827 0.3583 0.9301
C21_2 C 0.8296(2) 0.3149(4) 0.98823(15)
C22_2 C 0.8564(3) 0.3351(7) 0.9321(2)
H13_2 H 0.8160 0.3504 0.9040
C23_2 C 0.9452(3) 0.3314(6) 0.92000(18)
H14_2 H 0.9647 0.3444 0.8832
Zn8_2 Zn 0.26297(2) 0.83607(2) 0.88951(2)
N6_2 N 0.2093(2) 0.21907(17) 0.80893(11)
N8_2 N 0.2088(2) 0.38736(17) 0.77947(11)
H8_3 H 0.2951 0.0047 0.6534
C16_3 C 0.1985(3) 0.0662(2) 0.78929(16)
C17_3 C 0.1715(5) 0.0848(3) 0.7340(2)
H10_3 H 0.1595 0.0395 0.7085
C18_3 C 0.1622(6) 0.1695(3) 0.7167(2)
H11_3 H 0.1417 0.1827 0.6801
C19_3 C 0.1841(4) 0.2358(2) 0.75502(16)
C20_3 C 0.2144(2) 0.1359(2) 0.82560(14)
H12_3 H 0.2292 0.1241 0.8636
C21_3 C 0.1851(4) 0.3296(2) 0.73823(15)
C22_3 C 0.1649(7) 0.3564(3) 0.6821(2)
H13_3 H 0.1496 0.3160 0.6540
C23_3 C 0.1686(6) 0.4452(3) 0.67000(18)
H14_3 H 0.1556 0.4647 0.6332
C24_3 C 0.1909(3) 0.5040(2) 0.71147(16)
C25_3 C 0.2106(2) 0.4725(2) 0.76618(14)
H15_3 H 0.2256 0.5123 0.7947
C26_3 C 0.1925(2) 0.6013(2) 0.69902(14)
O9_2 O 0.2185(2) 0.65018(15) 0.73788(11)
O10_2 O 0.1684(2) 0.62137(16) 0.64959(11)
Zn4_3 Zn 0.21615(2) 0.78385(2) 0.7500
Zn6_2 Zn 0.16393(2) 0.73703(2) 0.61049(2)
C1_3 C 0.0281(2) 0.7876(2) 0.69213(14)
C13_3 C 0.2486(4) 0.8838(3) 0.6365(2)
C14_3 C 0.3166(13) 0.9459(11) 0.6568(8)
H7_3 H 0.3303 0.9338 0.6962
H9_3 H 0.3683 0.9394 0.6338
O1_3 O 0.08256(15) 0.7899(2) 0.73234(11)
O2_3 O 0.04266(14) 0.77379(19) 0.64033(10)
O5_3 O 0.23716(16) 0.81317(16) 0.66308(10)
O6_3 O 0.2138(4) 0.8977(3) 0.59026(19)
C15_3 C 0.2124(2) 0.9719(2) 0.80787(14)
C27_3 C 0.1162(3) 0.7514(4) 0.8635(2)
C28_3 C 0.0541(11) 0.6834(13) 0.8432(8)
H16_3 H 0.0662 0.6697 0.8038
H18_3 H 0.0606 0.6317 0.8662
O7_3 O 0.2101(2) 0.91744(15) 0.76766(11)
O8_3 O 0.22621(19) 0.95734(14) 0.85967(10)
O11_3 O 0.18683(16) 0.76284(16) 0.83692(10)
O12_3 O 0.1023(3) 0.7862(4) 0.90974(19)
N6_3 N 0.28093(17) 0.7093(2) 0.55893(11)
N8_3 N 0.11264(17) 0.7088(2) 0.52947(11)
O13 O 0.34982(15) 0.7815(2) 0.76212(11)
O15 O 0.37863(16) 0.8316(2) 0.85041(11)
C2_3 C 0.9338(2) 0.8015(3) 0.71071(16)
C3_3 C 0.9152(3) 0.8285(5) 0.7660(2)
H1_3 H 0.9605 0.8405 0.7915
C4_3 C 0.8305(3) 0.8378(6) 0.7833(2)
H2_3 H 0.8173 0.8583 0.8199
C5_3 C 0.7642(2) 0.8159(4) 0.74498(16)
C6_3 C 0.8641(2) 0.7856(2) 0.67440(14)
H3_3 H 0.8759 0.7708 0.6364
C7_3 C 0.6704(2) 0.8149(4) 0.76177(15)
C8_3 C 0.6436(3) 0.8351(7) 0.8179(2)
H4_3 H 0.6840 0.8504 0.8460
C9_3 C 0.5548(3) 0.8314(6) 0.83000(18)
H5_3 H 0.5353 0.8444 0.8668
C10_3 C 0.4960(2) 0.8091(3) 0.78853(16)
C11_3 C 0.5275(2) 0.7894(2) 0.73382(14)
H6_3 H 0.4877 0.7744 0.7053
C12_3 C 0.3987(2) 0.8075(2) 0.80098(14)
N1_3 N 0.78093(17) 0.7907(2) 0.69107(11)
N2_3 N 0.61264(17) 0.7912(2) 0.72053(11)
H17_3 H 0.9953 0.7049 0.8466
Zn8_3 Zn 0.66393(2) 0.76297(2) 0.63951(2)
Zn1 Zn 0.71615(2) 0.71615(2) 0.5000
C1_4 C 0.7124(2) 0.5281(2) 0.44213(14)
C2_4 C 0.6985(3) 0.4338(2) 0.46071(16)
C3_4 C 0.6715(5) 0.4152(3) 0.5160(2)
H1_4 H 0.6595 0.4605 0.5415
C4_4 C 0.6622(6) 0.3305(3) 0.5333(2)
H2_4 H 0.6417 0.3173 0.5699
C5_4 C 0.6841(4) 0.2642(2) 0.49498(16)
C6_4 C 0.7144(2) 0.3641(2) 0.42440(14)
H3_4 H 0.7292 0.3759 0.3864
C7_4 C 0.6851(4) 0.1704(2) 0.51177(15)
C8_4 C 0.6649(7) 0.1436(3) 0.5679(2)
H4_4 H 0.6496 0.1840 0.5960
C9_4 C 0.6686(6) 0.0548(3) 0.58000(18)
H5_4 H 0.6556 0.0353 0.6168
C11_4 C 0.7106(2) 0.0275(2) 0.48382(14)
C13_4 C 0.6162(3) 0.7486(4) 0.3865(2)
C14_4 C 0.5541(11) 0.8166(13) 0.4068(8)
H7_4 H 0.5662 0.8303 0.4462
H8_4 H 0.4953 0.7951 0.4034
H9_4 H 0.5606 0.8683 0.3838
O1_4 O 0.7101(2) 0.58256(15) 0.48234(11)
O2_4 O 0.72621(19) 0.54266(14) 0.39033(10)
O5_4 O 0.68683(16) 0.73716(16) 0.41308(10)
O6_4 O 0.6023(3) 0.7138(4) 0.34026(19)
C15_4 C 0.5281(2) 0.7124(2) 0.55787(14)
C16_4 C 0.4338(2) 0.6985(3) 0.53929(16)
C17_4 C 0.4152(3) 0.6715(5) 0.4840(2)
H10_4 H 0.4605 0.6595 0.4585
C18_4 C 0.3305(3) 0.6622(6) 0.4667(2)
H11_4 H 0.3173 0.6417 0.4301
C19_4 C 0.2642(2) 0.6841(4) 0.50502(16)
C20_4 C 0.3641(2) 0.7144(2) 0.57560(14)
H12_4 H 0.3759 0.7292 0.6136
C21_4 C 0.1704(2) 0.6851(4) 0.48823(15)
C22_4 C 0.1436(3) 0.6649(7) 0.4321(2)
H13_4 H 0.1840 0.6496 0.4040
C23_4 C 0.0548(3) 0.6686(6) 0.42000(18)
H14_4 H 0.0353 0.6556 0.3832
C25_4 C 0.0275(2) 0.7106(2) 0.51618(14)
C27_4 C 0.7486(4) 0.6162(3) 0.6135(2)
C28_4 C 0.8166(13) 0.5541(11) 0.5932(8)
H16_4 H 0.8303 0.5662 0.5538
H17_4 H 0.7951 0.4953 0.5966
H18_4 H 0.8683 0.5606 0.6162
O7_4 O 0.58256(15) 0.7101(2) 0.51766(11)
O8_4 O 0.54266(14) 0.72621(19) 0.60967(10)
O11_4 O 0.73716(16) 0.68683(16) 0.58692(10)
O12_4 O 0.7138(4) 0.6023(3) 0.65974(19)
O13_2 O 0.7185(2) 0.84982(15) 0.51212(11)
O14_2 O 0.84982(15) 0.7185(2) 0.48788(11)
O15_2 O 0.6684(2) 0.87863(16) 0.60041(11)
O16_2 O 0.87863(16) 0.6684(2) 0.39959(11)
C10_4 C 0.6909(3) 0.9960(2) 0.53853(16)
H6_4 H 0.7256 0.9877 0.4553
C12_4 C 0.6925(2) 0.8987(2) 0.55098(14)
C24_4 C 0.9960(2) 0.6909(3) 0.46147(16)
H15_4 H 0.9877 0.7256 0.5447
C26_4 C 0.8987(2) 0.6925(2) 0.44902(14)
loop_
_geom_bond_atom_site_label_1
_geom_bond_atom_site_label_2
_geom_bond_site_symmetry_1
_geom_bond_site_symmetry_2
C2 C3 1_555 1_555
C3 H1 1_555 1_555
C4 C3 1_555 1_555
H2 C4 1_555 1_555
C5 C4 1_555 1_555
C6 C2 1_555 1_555
H3 C6 1_555 1_555
C7 C5 1_555 1_555
C8 C7 1_555 1_555
H4 C8 1_555 1_555
C9 C8 1_555 1_555
H5 C9 1_555 1_555
C10 C9 1_555 1_555
C11 C10 1_555 1_555
H6 C11 1_555 1_555
C12 C10 1_555 1_555
N1 C5 1_555 1_555
N2 C7 1_555 1_555
O3 C12 1_555 1_555
O4 C12 1_555 1_555
Zn5 O3 1_555 1_555
Zn8 N1 1_555 1_555
Zn9 O4 1_555 1_555
C6 N1 1_555 1_555
C11 N2 1_555 1_555
N2 Zn8 1_555 1_555
Zn5 O1 1_555 1_555
Zn2 O2 1_555 1_555
C13 C14 1_555 1_555
C14 H7 1_555 1_555
H9 C14 1_555 1_555
O1 C1 1_555 1_555
O2 C1 1_555 1_555
O5 Zn5 1_555 1_555
O6 C13 1_555 1_555
Zn9 O8 1_555 1_555
C27 C28 1_555 1_555
C28 H16 1_555 1_555
H18 C28 1_555 1_555
O7 Zn5 1_555 1_555
O8 C15 1_555 1_555
O11 Zn5 1_555 1_555
O12 C27 1_555 1_555
N5 Zn9 1_555 1_555
N6 Zn2 1_555 1_555
N7 Zn9 1_555 1_555
N8 Zn2 1_555 1_555
O14 Zn5 1_555 1_555
O16 Zn2 1_555 1_555
Zn2 O5 1_555 1_555
C13 O5 1_555 1_555
Zn9 O11 1_555 1_555
C15 O7 1_555 1_555
C27 O11 1_555 1_555
C16 C17 1_555 1_555
C17 H10 1_555 1_555
C18 C17 1_555 1_555
H11 C18 1_555 1_555
C19 C18 1_555 1_555
C20 C16 1_555 1_555
H12 C20 1_555 1_555
C21 C19 1_555 1_555
C22 C21 1_555 1_555
H13 C22 1_555 1_555
C23 C22 1_555 1_555
H14 C23 1_555 1_555
C24 C23 1_555 1_555
C25 C24 1_555 1_555
H15 C25 1_555 1_555
C26 C24 1_555 1_555
N3 C19 1_555 1_555
N4 C21 1_555 1_555
O14 C26 1_555 1_555
O16 C26 1_555 1_555
Zn7 N3 1_555 1_555
C20 N3 1_555 1_555
C25 N4 1_555 1_555
N4 Zn7 1_555 1_555
C26_2 C24_2 1_555 1_555
O9 C26_2 1_555 1_555
O10 C26_2 1_555 1_555
Zn4_2 O9 1_555 1_555
Zn6 O10 1_555 1_555
C12_2 C10_2 1_555 1_555
O3_2 C12_2 1_555 1_555
O4_2 C12_2 1_555 1_555
Zn4 O3_2 1_555 1_555
Zn8 O4_2 1_555 1_555
C3_2 H1_2 1_555 1_555
C4_2 C3_2 1_555 1_555
H2_2 C4_2 1_555 1_555
C8_2 C7_2 1_555 1_555
H4_2 C8_2 1_555 1_555
C9_2 C8_2 1_555 1_555
H5_2 C9_2 1_555 1_555
Zn8 O8_2 1_555 1_555
C15_2 C16_2 1_555 1_555
C20_2 C16_2 1_555 1_555
H12_2 C20_2 1_555 1_555
C27_2 C28_2 1_555 1_555
C28_2 H16_2 1_555 1_555
H17_2 C28_2 1_555 1_555
H18_2 C28_2 1_555 1_555
N6 C19_2 1_555 1_555
O7_2 Zn4 1_555 1_555
O8_2 C15_2 1_555 1_555
O11_2 Zn4 1_555 1_555
O12_2 C27_2 1_555 1_555
Zn8 O11_2 1_555 1_555
C15_2 O7_2 1_555 1_555
C20_2 N6 1_555 1_555
C25_2 N8 1_555 1_555
C27_2 O11_2 1_555 1_555
Zn4_2 O1_2 1_555 1_555
Zn6 O2_2 1_555 1_555
C1_2 C2_2 1_555 1_555
C6_2 C2_2 1_555 1_555
H3_2 C6_2 1_555 1_555
C13_2 C14_2 1_555 1_555
C14_2 H7_2 1_555 1_555
H8_2 C14_2 1_555 1_555
H9_2 C14_2 1_555 1_555
N1_2 C5_2 1_555 1_555
O1_2 C1_2 1_555 1_555
O2_2 C1_2 1_555 1_555
O5_2 Zn4_2 1_555 1_555
O6_2 C13_2 1_555 1_555
C17_2 H10_2 1_555 1_555
C18_2 C17_2 1_555 1_555
H11_2 C18_2 1_555 1_555
C22_2 C21_2 1_555 1_555
H13_2 C22_2 1_555 1_555
C23_2 C22_2 1_555 1_555
H14_2 C23_2 1_555 1_555
Zn8_2 N1_2 1_555 1_555
N6_2 Zn6 1_555 1_555
N8_2 Zn6 1_555 1_555
Zn6 O5_2 1_555 1_555
C6_2 N1_2 1_555 1_555
C11_2 N2_2 1_555 1_555
C13_2 O5_2 1_555 1_555
N2_2 Zn8_2 1_555 1_555
C16_3 C17_3 1_555 1_555
C17_3 H10_3 1_555 1_555
C18_3 C17_3 1_555 1_555
H11_3 C18_3 1_555 1_555
C19_3 C18_3 1_555 1_555
C20_3 C16_3 1_555 1_555
H12_3 C20_3 1_555 1_555
C21_3 C19_3 1_555 1_555
C22_3 C21_3 1_555 1_555
H13_3 C22_3 1_555 1_555
C23_3 C22_3 1_555 1_555
H14_3 C23_3 1_555 1_555
C24_3 C23_3 1_555 1_555
C25_3 C24_3 1_555 1_555
H15_3 C25_3 1_555 1_555
C26_3 C24_3 1_555 1_555
N6_2 C19_3 1_555 1_555
N8_2 C21_3 1_555 1_555
O9_2 C26_3 1_555 1_555
O10_2 C26_3 1_555 1_555
Zn4_3 O9_2 1_555 1_555
Zn6_2 O10_2 1_555 1_555
C20_3 N6_2 1_555 1_555
C25_3 N8_2 1_555 1_555
Zn4_3 O1_3 1_555 1_555
Zn6_2 O2_3 1_555 1_555
C13_3 C14_3 1_555 1_555
C14_3 H7_3 1_555 1_555
H9_3 C14_3 1_555 1_555
O1_3 C1_3 1_555 1_555
O2_3 C1_3 1_555 1_555
O5_3 Zn4_3 1_555 1_555
O6_3 C13_3 1_555 1_555
Zn8_2 O8_3 1_555 1_555
C27_3 C28_3 1_555 1_555
C28_3 H16_3 1_555 1_555
H18_3 C28_3 1_555 1_555
O7_3 Zn4_3 1_555 1_555
O8_3 C15_3 1_555 1_555
O11_3 Zn4_3 1_555 1_555
O12_3 C27_3 1_555 1_555
N6_3 Zn6_2 1_555 1_555
N8_3 Zn6_2 1_555 1_555
O13 Zn4_3 1_555 1_555
O15 Zn8_2 1_555 1_555
Zn6_2 O5_3 1_555 1_555
C13_3 O5_3 1_555 1_555
Zn8_2 O11_3 1_555 1_555
C15_3 O7_3 1_555 1_555
C27_3 O11_3 1_555 1_555
C2_3 C3_3 1_555 1_555
C3_3 H1_3 1_555 1_555
C4_3 C3_3 1_555 1_555
H2_3 C4_3 1_555 1_555
C5_3 C4_3 1_555 1_555
C6_3 C2_3 1_555 1_555
H3_3 C6_3 1_555 1_555
C7_3 C5_3 1_555 1_555
C8_3 C7_3 1_555 1_555
H4_3 C8_3 1_555 1_555
C9_3 C8_3 1_555 1_555
H5_3 C9_3 1_555 1_555
C10_3 C9_3 1_555 1_555
C11_3 C10_3 1_555 1_555
H6_3 C11_3 1_555 1_555
C12_3 C10_3 1_555 1_555
N1_3 C5_3 1_555 1_555
N2_3 C7_3 1_555 1_555
O13 C12_3 1_555 1_555
O15 C12_3 1_555 1_555
Zn8_3 N1_3 1_555 1_555
C6_3 N1_3 1_555 1_555
C11_3 N2_3 1_555 1_555
N2_3 Zn8_3 1_555 1_555
Zn1 O1_4 1_555 1_555
Zn7 O2_4 1_555 1_555
C1_4 C2_4 1_555 1_555
C2_4 C3_4 1_555 1_555
C3_4 H1_4 1_555 1_555
C4_4 C3_4 1_555 1_555
H2_4 C4_4 1_555 1_555
C5_4 C4_4 1_555 1_555
C6_4 C2_4 1_555 1_555
H3_4 C6_4 1_555 1_555
C7_4 C5_4 1_555 1_555
C8_4 C7_4 1_555 1_555
H4_4 C8_4 1_555 1_555
C9_4 C8_4 1_555 1_555
H5_4 C9_4 1_555 1_555
C13_4 C14_4 1_555 1_555
C14_4 H7_4 1_555 1_555
H8_4 C14_4 1_555 1_555
H9_4 C14_4 1_555 1_555
N5 C5_4 1_555 1_555
N7 C7_4 1_555 1_555
O1_4 C1_4 1_555 1_555
O2_4 C1_4 1_555 1_555
O5_4 Zn1 1_555 1_555
O6_4 C13_4 1_555 1_555
Zn8_3 O8_4 1_555 1_555
C15_4 C16_4 1_555 1_555
C16_4 C17_4 1_555 1_555
C17_4 H10_4 1_555 1_555
C18_4 C17_4 1_555 1_555
H11_4 C18_4 1_555 1_555
C19_4 C18_4 1_555 1_555
C20_4 C16_4 1_555 1_555
H12_4 C20_4 1_555 1_555
C21_4 C19_4 1_555 1_555
C22_4 C21_4 1_555 1_555
H13_4 C22_4 1_555 1_555
C23_4 C22_4 1_555 1_555
H14_4 C23_4 1_555 1_555
C27_4 C28_4 1_555 1_555
C28_4 H16_4 1_555 1_555
H17_4 C28_4 1_555 1_555
H18_4 C28_4 1_555 1_555
N6_3 C19_4 1_555 1_555
N8_3 C21_4 1_555 1_555
O7_4 Zn1 1_555 1_555
O8_4 C15_4 1_555 1_555
O11_4 Zn1 1_555 1_555
O12_4 C27_4 1_555 1_555
O13_2 Zn1 1_555 1_555
O14_2 Zn1 1_555 1_555
O15_2 Zn8_3 1_555 1_555
O16_2 Zn7 1_555 1_555
Zn7 O5_4 1_555 1_555
C6_4 N5 1_555 1_555
C11_4 N7 1_555 1_555
C13_4 O5_4 1_555 1_555
Zn8_3 O11_4 1_555 1_555
C15_4 O7_4 1_555 1_555
C20_4 N6_3 1_555 1_555
C25_4 N8_3 1_555 1_555
C27_4 O11_4 1_555 1_555
C12_4 C10_4 1_555 1_555
O13_2 C12_4 1_555 1_555
O15_2 C12_4 1_555 1_555
C26_4 C24_4 1_555 1_555
O14_2 C26_4 1_555 1_555
O16_2 C26_4 1_555 1_555

#END
