
###############################################################################
#
# This file contains modified crystal structure data generated from the
# MOF subset of the Cambridge Structural Database (CSD) v543 
# hosted by the Cambridge Crystallographic Data Centre (CCDC).
#
# This work is licensed under the Creative Commons
# Attribution-NonCommercial-ShareAlike 4.0 International License.
# To view a copy of this license, visit
# http://creativecommons.org/licenses/by-nc-sa/4.0/
# or send a letter to
# Creative Commons, PO Box 1866, Mountain View, CA 94042, USA.
#
# CIF created using the CSD Python API on 29 September 2022
# The structure has been converted into the P1 space group
# The structure has a 3D framework
# The original CSD entry LACDUR is in the orthorhombic crystal system
# The original CSD entry LACDUR is in a Sohncke space group
# The framework has been calculated to contain at least 10.0% void space
# The void calculation uses a probe of radius 1.32A, grid spacing 0.4
#
###############################################################################

data_LACDUR
_chemical_formula_moiety         '(C224 H144 N32 O96 Zn28)n'
_symmetry_cell_setting           triclinic
_symmetry_space_group_name_H-M   'P 1'
_symmetry_Int_Tables_number      1
_space_group_name_Hall           'P 1'
loop_
_symmetry_equiv_pos_site_id
_symmetry_equiv_pos_as_xyz
1 x,y,z
_cell_length_a                   27.7150
_cell_length_b                   10.5745
_cell_length_c                   21.6912
_cell_angle_alpha                90
_cell_angle_beta                 90
_cell_angle_gamma                90
_cell_volume                     6357.09
loop_
_atom_site_label
_atom_site_type_symbol
_atom_site_fract_x
_atom_site_fract_y
_atom_site_fract_z
_atom_site_U_iso_or_equiv
_atom_site_thermal_displace_type
H10 H 0.05773 0.14113 0.09953 0.0500 Uiso
H11 H 0.14525 0.16015 0.10913 0.0500 Uiso
C15 C 0.20794 0.27910 0.03412 0.0500 Uiso
C16 C 0.07795 0.17572 0.06021 0.0500 Uiso
C17 C 0.12866 0.18467 0.06545 0.0500 Uiso
C18 C 0.15760 0.23300 0.01740 0.0500 Uiso
C20 C 0.05433 0.21928 0.00660 0.0500 Uiso
O7 O 0.22537 0.37052 0.00242 0.0500 Uiso
O8 O 0.22845 0.24749 0.08563 0.0500 Uiso
Zn4 Zn 0.27170 0.50000 -0.00000 0.0500 Uiso
O25 O 0.27095 0.50741 0.08512 0.0500 Uiso
Zn8 Zn 0.27019 0.35877 0.12567 0.0500 Uiso
O34 O 0.32513 0.39355 0.00280 0.0500 Uiso
C1 C 0.28670 0.25359 0.90160 0.0500 Uiso
H1 H 0.16145 0.56699 0.88774 0.0500 Uiso
H2 H 0.20403 0.53652 0.66763 0.0500 Uiso
H3 H 0.12134 0.50132 0.69798 0.0500 Uiso
H4 H 0.37923 0.66990 0.83019 0.0500 Uiso
H5 H 0.36813 0.57042 0.63873 0.0500 Uiso
H6 H 0.28261 0.53577 0.65191 0.0500 Uiso
C2 C 0.28462 0.38778 0.87799 0.0500 Uiso
C3 C 0.08472 0.49146 0.81311 0.0500 Uiso
C4 C 0.13406 0.53417 0.79548 0.0500 Uiso
C5 C 0.16997 0.56840 0.83903 0.0500 Uiso
C6 C 0.22944 0.58284 0.76022 0.0500 Uiso
C7 C 0.19473 0.55163 0.71537 0.0500 Uiso
C8 C 0.14706 0.53092 0.73298 0.0500 Uiso
C9 C 0.28042 0.60917 0.74612 0.0500 Uiso
C10 C 0.35749 0.64985 0.79043 0.0500 Uiso
C11 C 0.38098 0.62872 0.73334 0.0500 Uiso
C12 C 0.35238 0.58764 0.68376 0.0500 Uiso
C13 C 0.30267 0.57390 0.69040 0.0500 Uiso
C14 C 0.42935 0.69040 0.71892 0.0500 Uiso
N1 N 0.30773 0.64457 0.79536 0.0500 Uiso
N2 N 0.21624 0.59682 0.82017 0.0500 Uiso
O1 O 0.29475 0.40519 0.82385 0.0500 Uiso
O2 O 0.27095 0.49259 0.91488 0.0500 Uiso
O3 O 0.07794 0.44128 0.86615 0.0500 Uiso
O4 O 0.05158 0.48830 0.77137 0.0500 Uiso
O5 O 0.44370 0.68473 0.66297 0.0500 Uiso
O6 O 0.45168 0.76013 0.75830 0.0500 Uiso
Zn1 Zn 0.27019 0.64123 0.87433 0.0500 Uiso
Zn2 Zn 0.03758 0.31205 0.88494 0.0500 Uiso
H7 H 0.26018 0.19568 0.87580 0.0500 Uiso
H8 H 0.27731 0.24287 0.95051 0.0500 Uiso
H9 H 0.32375 0.21476 0.89479 0.0500 Uiso
Zn3 Zn 0.00000 0.38455 0.75000 0.0500 Uiso
H12 H 0.15445 0.30300 0.92291 0.0500 Uiso
C19 C 0.13320 0.26832 0.96136 0.0500 Uiso
C23 C 0.00105 0.21216 0.99698 0.0500 Uiso
N4 N 0.08318 0.26219 0.95590 0.0500 Uiso
Zn4_2 Zn 0.27170 0.50000 1.00000 0.0500 Uiso
H16 H 0.02213 0.62920 0.92059 0.0500 Uiso
H17 H 0.01487 0.46969 0.94649 0.0500 Uiso
H31 H 0.10483 0.13422 0.43324 0.0500 Uiso
H32 H 0.01890 0.13901 0.41264 0.0500 Uiso
H33 H 0.07868 0.28788 0.61486 0.0500 Uiso
C49 C 0.08117 0.17024 0.46915 0.0500 Uiso
C50 C 0.03137 0.17095 0.45733 0.0500 Uiso
C52 C 0.06607 0.25450 0.57065 0.0500 Uiso
C53 C 0.10031 0.20920 0.52662 0.0500 Uiso
C54 C 0.15299 0.18007 0.53993 0.0500 Uiso
N7 N 0.01677 0.25412 0.55813 0.0500 Uiso
O21 O 0.17487 0.10645 0.50280 0.0500 Uiso
O22 O 0.17499 0.21461 0.58930 0.0500 Uiso
C55 C 0.00362 0.54899 0.57725 0.0500 Uiso
C56 C 0.01732 0.51440 0.64154 0.0500 Uiso
O23 O 0.00765 0.39157 0.66470 0.0500 Uiso
O24 O 0.03541 0.59588 0.67447 0.0500 Uiso
H36 H 0.03646 0.57641 0.55085 0.0500 Uiso
O27 O 0.05630 0.18473 0.83703 0.0500 Uiso
O29 O 0.04832 0.26013 0.74170 0.0500 Uiso
Zn10 Zn 0.22981 0.14123 0.62567 0.0500 Uiso
Zn12 Zn 0.46242 0.81205 0.61506 0.0500 Uiso
Zn14 Zn 0.50000 0.88455 0.75000 0.0500 Uiso
O30 O 0.22537 0.62948 0.99758 0.0500 Uiso
O32 O 0.22845 0.75251 0.91437 0.0500 Uiso
O33 O 0.32513 0.60645 0.99720 0.0500 Uiso
O35 O 0.32501 0.71461 0.91070 0.0500 Uiso
Zn17 Zn 0.22830 0.00000 0.50000 0.0500 Uiso
Zn17_2 Zn 0.22830 1.00000 0.50000 0.0500 Uiso
H13 H 0.89517 0.13422 0.06676 0.0500 Uiso
H14 H 0.98110 0.13901 0.08736 0.0500 Uiso
C21 C 0.91883 0.17024 0.03085 0.0500 Uiso
C22 C 0.96863 0.17095 0.04267 0.0500 Uiso
Zn16 Zn 0.77170 0.00000 -0.00000 0.0500 Uiso
Zn3_2 Zn 1.00000 0.38455 0.75000 0.0500 Uiso
H15 H 0.92132 0.28788 0.88514 0.0500 Uiso
C24 C 0.93393 0.25450 0.92935 0.0500 Uiso
C25 C 0.89969 0.20920 0.97338 0.0500 Uiso
C26 C 0.84701 0.18007 0.96007 0.0500 Uiso
N3 N 0.98323 0.25412 0.94187 0.0500 Uiso
O9 O 0.82513 0.10645 0.99720 0.0500 Uiso
O10 O 0.82501 0.21461 0.91070 0.0500 Uiso
C27 C 0.99638 0.54899 0.92275 0.0500 Uiso
C28 C 0.98268 0.51440 0.85846 0.0500 Uiso
O11 O 0.99235 0.39157 0.83530 0.0500 Uiso
O12 O 0.96459 0.59588 0.82553 0.0500 Uiso
H18 H 0.96354 0.57641 0.94915 0.0500 Uiso
C29 C 0.71330 0.25359 0.59840 0.0500 Uiso
H19 H 0.83855 0.56699 0.61226 0.0500 Uiso
H20 H 0.79597 0.53652 0.83237 0.0500 Uiso
H21 H 0.87866 0.50132 0.80202 0.0500 Uiso
H22 H 0.62077 0.66990 0.66981 0.0500 Uiso
H23 H 0.63187 0.57042 0.86127 0.0500 Uiso
H24 H 0.71739 0.53577 0.84809 0.0500 Uiso
C30 C 0.71538 0.38778 0.62201 0.0500 Uiso
C31 C 0.91528 0.49146 0.68689 0.0500 Uiso
C32 C 0.86594 0.53417 0.70452 0.0500 Uiso
C33 C 0.83003 0.56840 0.66097 0.0500 Uiso
C34 C 0.77056 0.58284 0.73978 0.0500 Uiso
C35 C 0.80527 0.55163 0.78463 0.0500 Uiso
C36 C 0.85294 0.53092 0.76702 0.0500 Uiso
C37 C 0.71958 0.60917 0.75388 0.0500 Uiso
C38 C 0.64251 0.64985 0.70957 0.0500 Uiso
C39 C 0.61902 0.62872 0.76666 0.0500 Uiso
C40 C 0.64762 0.58764 0.81624 0.0500 Uiso
C41 C 0.69733 0.57390 0.80960 0.0500 Uiso
C42 C 0.57065 0.69040 0.78108 0.0500 Uiso
N5 N 0.69227 0.64457 0.70464 0.0500 Uiso
N6 N 0.78376 0.59682 0.67983 0.0500 Uiso
O13 O 0.70525 0.40519 0.67615 0.0500 Uiso
O14 O 0.72905 0.49259 0.58512 0.0500 Uiso
O15 O 0.92206 0.44128 0.63385 0.0500 Uiso
O16 O 0.94842 0.48830 0.72863 0.0500 Uiso
O17 O 0.55630 0.68473 0.83703 0.0500 Uiso
O18 O 0.54832 0.76013 0.74170 0.0500 Uiso
Zn5 Zn 0.72981 0.64123 0.62567 0.0500 Uiso
Zn6 Zn 0.96242 0.31205 0.61506 0.0500 Uiso
H25 H 0.73982 0.19568 0.62420 0.0500 Uiso
H26 H 0.72269 0.24287 0.54949 0.0500 Uiso
H27 H 0.67625 0.21476 0.60521 0.0500 Uiso
H28 H 0.94227 0.14113 0.40047 0.0500 Uiso
H29 H 0.85475 0.16015 0.39087 0.0500 Uiso
H30 H 0.84555 0.30300 0.57709 0.0500 Uiso
C43 C 0.79206 0.27910 0.46588 0.0500 Uiso
C44 C 0.92205 0.17572 0.43979 0.0500 Uiso
C45 C 0.87134 0.18467 0.43455 0.0500 Uiso
C46 C 0.84240 0.23300 0.48260 0.0500 Uiso
C47 C 0.86680 0.26832 0.53864 0.0500 Uiso
C48 C 0.94567 0.21928 0.49340 0.0500 Uiso
C51 C 0.99895 0.21216 0.50302 0.0500 Uiso
N8 N 0.91682 0.26219 0.54410 0.0500 Uiso
O19 O 0.77463 0.37052 0.49758 0.0500 Uiso
O20 O 0.77155 0.24749 0.41437 0.0500 Uiso
H34 H 0.97787 0.62920 0.57941 0.0500 Uiso
H35 H 0.98513 0.46969 0.55351 0.0500 Uiso
O26 O 0.94370 0.18473 0.66297 0.0500 Uiso
O28 O 0.95168 0.26013 0.75830 0.0500 Uiso
Zn7 Zn 0.72981 0.35877 0.37433 0.0500 Uiso
Zn9 Zn 0.77019 0.14123 0.87433 0.0500 Uiso
Zn11 Zn 0.53758 0.81205 0.88494 0.0500 Uiso
O31 O 0.77155 0.75251 0.58563 0.0500 Uiso
O36 O 0.67499 0.71461 0.58930 0.0500 Uiso
Zn15 Zn 0.72830 0.50000 0.50000 0.0500 Uiso
Zn16_2 Zn 0.77170 0.00000 1.00000 0.0500 Uiso
Zn16_3 Zn 0.77170 1.00000 -0.00000 0.0500 Uiso
Zn16_4 Zn 0.77170 1.00000 1.00000 0.0500 Uiso
Zn3_3 Zn 0.00000 0.61545 0.25000 0.0500 Uiso
H13_2 H 0.10483 0.86578 0.56676 0.0500 Uiso
H14_2 H 0.01890 0.86099 0.58736 0.0500 Uiso
H15_2 H 0.07868 0.71212 0.38514 0.0500 Uiso
C21_2 C 0.08117 0.82976 0.53085 0.0500 Uiso
C22_2 C 0.03137 0.82905 0.54267 0.0500 Uiso
C24_2 C 0.06607 0.74550 0.42935 0.0500 Uiso
C25_2 C 0.10031 0.79080 0.47338 0.0500 Uiso
C26_2 C 0.15299 0.81993 0.46007 0.0500 Uiso
N3_2 N 0.01677 0.74588 0.44187 0.0500 Uiso
O9_2 O 0.17487 0.89355 0.49720 0.0500 Uiso
O10_2 O 0.17499 0.78539 0.41070 0.0500 Uiso
C27_2 C 0.00362 0.45101 0.42275 0.0500 Uiso
C28_2 C 0.01732 0.48560 0.35846 0.0500 Uiso
O11_2 O 0.00765 0.60843 0.33530 0.0500 Uiso
O12_2 O 0.03541 0.40412 0.32553 0.0500 Uiso
H18_2 H 0.03646 0.42359 0.44915 0.0500 Uiso
C29_2 C 0.28670 0.74641 0.09840 0.0500 Uiso
H19_2 H 0.16145 0.43301 0.11226 0.0500 Uiso
H20_2 H 0.20403 0.46348 0.33237 0.0500 Uiso
H21_2 H 0.12134 0.49868 0.30202 0.0500 Uiso
H22_2 H 0.37923 0.33010 0.16981 0.0500 Uiso
H23_2 H 0.36813 0.42958 0.36127 0.0500 Uiso
H24_2 H 0.28261 0.46423 0.34809 0.0500 Uiso
C30_2 C 0.28462 0.61222 0.12201 0.0500 Uiso
C31_2 C 0.08472 0.50854 0.18689 0.0500 Uiso
C32_2 C 0.13406 0.46583 0.20452 0.0500 Uiso
C33_2 C 0.16997 0.43160 0.16097 0.0500 Uiso
C34_2 C 0.22944 0.41716 0.23978 0.0500 Uiso
C35_2 C 0.19473 0.44837 0.28463 0.0500 Uiso
C36_2 C 0.14706 0.46908 0.26702 0.0500 Uiso
C37_2 C 0.28042 0.39083 0.25388 0.0500 Uiso
C38_2 C 0.35749 0.35015 0.20957 0.0500 Uiso
C39_2 C 0.38098 0.37128 0.26666 0.0500 Uiso
C40_2 C 0.35238 0.41236 0.31624 0.0500 Uiso
C41_2 C 0.30267 0.42610 0.30960 0.0500 Uiso
C42_2 C 0.42935 0.30960 0.28108 0.0500 Uiso
N5_2 N 0.30773 0.35543 0.20464 0.0500 Uiso
N6_2 N 0.21624 0.40318 0.17983 0.0500 Uiso
O13_2 O 0.29475 0.59481 0.17615 0.0500 Uiso
O15_2 O 0.07794 0.55872 0.13385 0.0500 Uiso
O16_2 O 0.05158 0.51170 0.22863 0.0500 Uiso
O17_2 O 0.44370 0.31527 0.33703 0.0500 Uiso
O18_2 O 0.45168 0.23987 0.24170 0.0500 Uiso
Zn6_2 Zn 0.03758 0.68795 0.11506 0.0500 Uiso
H25_2 H 0.26018 0.80432 0.12420 0.0500 Uiso
H26_2 H 0.27731 0.75713 0.04949 0.0500 Uiso
H27_2 H 0.32375 0.78524 0.10521 0.0500 Uiso
H30_2 H 0.15445 0.69700 0.07709 0.0500 Uiso
C47_2 C 0.13320 0.73168 0.03864 0.0500 Uiso
C51_2 C 0.00105 0.78784 0.00302 0.0500 Uiso
N8_2 N 0.08318 0.73781 0.04410 0.0500 Uiso
H34_2 H 0.02213 0.37080 0.07941 0.0500 Uiso
H35_2 H 0.01487 0.53031 0.05351 0.0500 Uiso
O26_2 O 0.05630 0.81527 0.16297 0.0500 Uiso
O28_2 O 0.04832 0.73987 0.25830 0.0500 Uiso
Zn9_2 Zn 0.22981 0.85877 0.37433 0.0500 Uiso
Zn11_2 Zn 0.46242 0.18795 0.38494 0.0500 Uiso
Zn13 Zn 0.50000 0.11545 0.25000 0.0500 Uiso
O36_2 O 0.32501 0.28539 0.08930 0.0500 Uiso
H28_2 H 0.05773 0.85887 0.90047 0.0500 Uiso
H29_2 H 0.14525 0.83985 0.89087 0.0500 Uiso
C43_2 C 0.20794 0.72090 0.96588 0.0500 Uiso
C44_2 C 0.07795 0.82428 0.93979 0.0500 Uiso
C45_2 C 0.12866 0.81533 0.93455 0.0500 Uiso
C46_2 C 0.15760 0.76700 0.98260 0.0500 Uiso
C48_2 C 0.05433 0.78072 0.99340 0.0500 Uiso
C1_2 C 0.71330 0.74641 0.40160 0.0500 Uiso
H1_2 H 0.83855 0.43301 0.38774 0.0500 Uiso
H2_2 H 0.79597 0.46348 0.16763 0.0500 Uiso
H3_2 H 0.87866 0.49868 0.19798 0.0500 Uiso
H4_2 H 0.62077 0.33010 0.33019 0.0500 Uiso
H5_2 H 0.63187 0.42958 0.13873 0.0500 Uiso
H6_2 H 0.71739 0.46423 0.15191 0.0500 Uiso
C2_2 C 0.71538 0.61222 0.37799 0.0500 Uiso
C3_2 C 0.91528 0.50854 0.31311 0.0500 Uiso
C4_2 C 0.86594 0.46583 0.29548 0.0500 Uiso
C5_2 C 0.83003 0.43160 0.33903 0.0500 Uiso
C6_2 C 0.77056 0.41716 0.26022 0.0500 Uiso
C7_2 C 0.80527 0.44837 0.21537 0.0500 Uiso
C8_2 C 0.85294 0.46908 0.23298 0.0500 Uiso
C9_2 C 0.71958 0.39083 0.24612 0.0500 Uiso
C10_2 C 0.64251 0.35015 0.29043 0.0500 Uiso
C11_2 C 0.61902 0.37128 0.23334 0.0500 Uiso
C12_2 C 0.64762 0.41236 0.18376 0.0500 Uiso
C13_2 C 0.69733 0.42610 0.19040 0.0500 Uiso
C14_2 C 0.57065 0.30960 0.21892 0.0500 Uiso
N1_2 N 0.69227 0.35543 0.29536 0.0500 Uiso
N2_2 N 0.78376 0.40318 0.32017 0.0500 Uiso
O1_2 O 0.70525 0.59481 0.32385 0.0500 Uiso
O2_2 O 0.72905 0.50741 0.41488 0.0500 Uiso
O3_2 O 0.92206 0.55872 0.36615 0.0500 Uiso
O4_2 O 0.94842 0.51170 0.27137 0.0500 Uiso
O5_2 O 0.55630 0.31527 0.16297 0.0500 Uiso
O6_2 O 0.54832 0.23987 0.25830 0.0500 Uiso
Zn2_2 Zn 0.96242 0.68795 0.38494 0.0500 Uiso
H7_2 H 0.73982 0.80432 0.37580 0.0500 Uiso
H8_2 H 0.72269 0.75713 0.45051 0.0500 Uiso
H9_2 H 0.67625 0.78524 0.39479 0.0500 Uiso
Zn3_4 Zn 1.00000 0.61545 0.25000 0.0500 Uiso
H10_2 H 0.94227 0.85887 0.59953 0.0500 Uiso
H11_2 H 0.85475 0.83985 0.60913 0.0500 Uiso
H12_2 H 0.84555 0.69700 0.42291 0.0500 Uiso
C15_2 C 0.79206 0.72090 0.53412 0.0500 Uiso
C16_2 C 0.92205 0.82428 0.56021 0.0500 Uiso
C17_2 C 0.87134 0.81533 0.56545 0.0500 Uiso
C18_2 C 0.84240 0.76700 0.51740 0.0500 Uiso
C19_2 C 0.86680 0.73168 0.46136 0.0500 Uiso
C20_2 C 0.94567 0.78072 0.50660 0.0500 Uiso
C23_2 C 0.99895 0.78784 0.49698 0.0500 Uiso
N4_2 N 0.91682 0.73781 0.45590 0.0500 Uiso
O7_2 O 0.77463 0.62948 0.50242 0.0500 Uiso
H16_2 H 0.97787 0.37080 0.42059 0.0500 Uiso
H17_2 H 0.98513 0.53031 0.44649 0.0500 Uiso
H33_2 H 0.92132 0.71212 0.11486 0.0500 Uiso
C52_2 C 0.93393 0.74550 0.07065 0.0500 Uiso
C53_2 C 0.89969 0.79080 0.02662 0.0500 Uiso
C54_2 C 0.84701 0.81993 0.03993 0.0500 Uiso
N7_2 N 0.98323 0.74588 0.05813 0.0500 Uiso
O21_2 O 0.82513 0.89355 0.00280 0.0500 Uiso
O22_2 O 0.82501 0.78539 0.08930 0.0500 Uiso
C55_2 C 0.99638 0.45101 0.07725 0.0500 Uiso
C56_2 C 0.98268 0.48560 0.14154 0.0500 Uiso
O23_2 O 0.99235 0.60843 0.16470 0.0500 Uiso
O24_2 O 0.96459 0.40412 0.17447 0.0500 Uiso
H36_2 H 0.96354 0.42359 0.05085 0.0500 Uiso
O27_2 O 0.94370 0.81527 0.33703 0.0500 Uiso
O29_2 O 0.95168 0.73987 0.24170 0.0500 Uiso
Zn10_2 Zn 0.77019 0.85877 0.12567 0.0500 Uiso
Zn12_2 Zn 0.53758 0.18795 0.11506 0.0500 Uiso
O33_2 O 0.67487 0.39355 0.49720 0.0500 Uiso
O34_2 O 0.67487 0.60645 0.50280 0.0500 Uiso
O35_2 O 0.67499 0.28539 0.41070 0.0500 Uiso
H31_2 H 0.89517 0.86578 0.93324 0.0500 Uiso
H32_2 H 0.98110 0.86099 0.91264 0.0500 Uiso
C49_2 C 0.91883 0.82976 0.96915 0.0500 Uiso
C50_2 C 0.96863 0.82905 0.95733 0.0500 Uiso
O25_2 O 0.77095 0.00741 0.08512 0.0500 Uiso
H1_3 H 0.66145 0.06699 0.88774 0.0500 Uiso
H2_3 H 0.70403 0.03652 0.66763 0.0500 Uiso
H3_3 H 0.62134 0.00132 0.69798 0.0500 Uiso
H4_3 H 0.87923 0.16990 0.83019 0.0500 Uiso
H5_3 H 0.86813 0.07042 0.63873 0.0500 Uiso
H6_3 H 0.78261 0.03577 0.65191 0.0500 Uiso
C4_3 C 0.63406 0.03417 0.79548 0.0500 Uiso
C5_3 C 0.66997 0.06840 0.83903 0.0500 Uiso
C6_3 C 0.72944 0.08284 0.76022 0.0500 Uiso
C7_3 C 0.69473 0.05163 0.71537 0.0500 Uiso
C8_3 C 0.64706 0.03092 0.73298 0.0500 Uiso
C9_3 C 0.78042 0.10917 0.74612 0.0500 Uiso
C10_3 C 0.85749 0.14985 0.79043 0.0500 Uiso
C11_3 C 0.88098 0.12872 0.73334 0.0500 Uiso
C12_3 C 0.85238 0.08764 0.68376 0.0500 Uiso
C13_3 C 0.80267 0.07390 0.69040 0.0500 Uiso
C14_3 C 0.92935 0.19040 0.71892 0.0500 Uiso
N1_3 N 0.80773 0.14457 0.79536 0.0500 Uiso
N2_3 N 0.71624 0.09682 0.82017 0.0500 Uiso
C27_3 C 0.49638 0.04899 0.92275 0.0500 Uiso
C28_3 C 0.48268 0.01440 0.85846 0.0500 Uiso
O12_3 O 0.46459 0.09588 0.82553 0.0500 Uiso
H16_3 H 0.52213 0.12920 0.92059 0.0500 Uiso
H18_3 H 0.46354 0.07641 0.94915 0.0500 Uiso
H19_3 H 0.33855 0.06699 0.61226 0.0500 Uiso
H20_3 H 0.29597 0.03652 0.83237 0.0500 Uiso
H21_3 H 0.37866 0.00132 0.80202 0.0500 Uiso
H22_3 H 0.12077 0.16990 0.66981 0.0500 Uiso
H23_3 H 0.13187 0.07042 0.86127 0.0500 Uiso
H24_3 H 0.21739 0.03577 0.84809 0.0500 Uiso
C32_3 C 0.36594 0.03417 0.70452 0.0500 Uiso
C33_3 C 0.33003 0.06840 0.66097 0.0500 Uiso
C34_3 C 0.27056 0.08284 0.73978 0.0500 Uiso
C35_3 C 0.30527 0.05163 0.78463 0.0500 Uiso
C36_3 C 0.35294 0.03092 0.76702 0.0500 Uiso
C37_3 C 0.21958 0.10917 0.75388 0.0500 Uiso
C38_3 C 0.14251 0.14985 0.70957 0.0500 Uiso
C39_3 C 0.11902 0.12872 0.76666 0.0500 Uiso
C40_3 C 0.14762 0.08764 0.81624 0.0500 Uiso
C41_3 C 0.19733 0.07390 0.80960 0.0500 Uiso
C42_3 C 0.07065 0.19040 0.78108 0.0500 Uiso
N5_3 N 0.19227 0.14457 0.70464 0.0500 Uiso
N6_3 N 0.28376 0.09682 0.67983 0.0500 Uiso
C55_3 C 0.50362 0.04899 0.57725 0.0500 Uiso
C56_3 C 0.51732 0.01440 0.64154 0.0500 Uiso
O24_3 O 0.53541 0.09588 0.67447 0.0500 Uiso
H34_3 H 0.47787 0.12920 0.57941 0.0500 Uiso
H36_3 H 0.53646 0.07641 0.55085 0.0500 Uiso
O30_2 O 0.72537 0.12948 0.99758 0.0500 Uiso
O31_2 O 0.27155 0.25251 0.58563 0.0500 Uiso
O32_2 O 0.72845 0.25251 0.91437 0.0500 Uiso
H10_3 H 0.55773 0.64113 0.09953 0.0500 Uiso
H11_3 H 0.64525 0.66015 0.10913 0.0500 Uiso
H13_3 H 0.39517 0.63422 0.06676 0.0500 Uiso
H14_3 H 0.48110 0.63901 0.08736 0.0500 Uiso
C15_3 C 0.70794 0.77910 0.03412 0.0500 Uiso
C16_3 C 0.57795 0.67572 0.06021 0.0500 Uiso
C17_3 C 0.62866 0.68467 0.06545 0.0500 Uiso
C18_3 C 0.65760 0.73300 0.01740 0.0500 Uiso
C20_3 C 0.55433 0.71928 0.00660 0.0500 Uiso
C21_3 C 0.41883 0.67024 0.03085 0.0500 Uiso
C22_3 C 0.46863 0.67095 0.04267 0.0500 Uiso
O7_3 O 0.72537 0.87052 0.00242 0.0500 Uiso
O8_2 O 0.72845 0.74749 0.08563 0.0500 Uiso
C1_3 C 0.78670 0.75359 0.90160 0.0500 Uiso
C2_3 C 0.78462 0.88778 0.87799 0.0500 Uiso
C3_3 C 0.58472 0.99146 0.81311 0.0500 Uiso
O1_3 O 0.79475 0.90519 0.82385 0.0500 Uiso
O2_3 O 0.77095 0.99259 0.91488 0.0500 Uiso
O3_3 O 0.57794 0.94128 0.86615 0.0500 Uiso
O4_3 O 0.55158 0.98830 0.77137 0.0500 Uiso
H7_3 H 0.76018 0.69568 0.87580 0.0500 Uiso
H8_3 H 0.77731 0.74287 0.95051 0.0500 Uiso
H9_3 H 0.82375 0.71476 0.89479 0.0500 Uiso
H12_3 H 0.65445 0.80300 0.92291 0.0500 Uiso
H15_3 H 0.42132 0.78788 0.88514 0.0500 Uiso
C19_3 C 0.63320 0.76832 0.96136 0.0500 Uiso
C23_3 C 0.50105 0.71216 0.99698 0.0500 Uiso
C24_3 C 0.43393 0.75450 0.92935 0.0500 Uiso
C25_3 C 0.39969 0.70920 0.97338 0.0500 Uiso
C26_3 C 0.34701 0.68007 0.96007 0.0500 Uiso
N3_3 N 0.48323 0.75412 0.94187 0.0500 Uiso
N4_3 N 0.58318 0.76219 0.95590 0.0500 Uiso
O11_3 O 0.49235 0.89157 0.83530 0.0500 Uiso
H17_3 H 0.51487 0.96969 0.94649 0.0500 Uiso
C29_3 C 0.21330 0.75359 0.59840 0.0500 Uiso
C30_3 C 0.21538 0.88778 0.62201 0.0500 Uiso
C31_3 C 0.41528 0.99146 0.68689 0.0500 Uiso
O13_3 O 0.20525 0.90519 0.67615 0.0500 Uiso
O14_2 O 0.22905 0.99259 0.58512 0.0500 Uiso
O15_3 O 0.42206 0.94128 0.63385 0.0500 Uiso
O16_3 O 0.44842 0.98830 0.72863 0.0500 Uiso
H25_3 H 0.23982 0.69568 0.62420 0.0500 Uiso
H26_3 H 0.22269 0.74287 0.54949 0.0500 Uiso
H27_3 H 0.17625 0.71476 0.60521 0.0500 Uiso
H28_3 H 0.44227 0.64113 0.40047 0.0500 Uiso
H29_3 H 0.35475 0.66015 0.39087 0.0500 Uiso
H30_3 H 0.34555 0.80300 0.57709 0.0500 Uiso
H31_3 H 0.60483 0.63422 0.43324 0.0500 Uiso
H32_3 H 0.51890 0.63901 0.41264 0.0500 Uiso
H33_3 H 0.57868 0.78788 0.61486 0.0500 Uiso
C43_3 C 0.29206 0.77910 0.46588 0.0500 Uiso
C44_3 C 0.42205 0.67572 0.43979 0.0500 Uiso
C45_3 C 0.37134 0.68467 0.43455 0.0500 Uiso
C46_3 C 0.34240 0.73300 0.48260 0.0500 Uiso
C47_3 C 0.36680 0.76832 0.53864 0.0500 Uiso
C48_3 C 0.44567 0.71928 0.49340 0.0500 Uiso
C49_3 C 0.58117 0.67024 0.46915 0.0500 Uiso
C50_3 C 0.53137 0.67095 0.45733 0.0500 Uiso
C51_3 C 0.49895 0.71216 0.50302 0.0500 Uiso
C52_3 C 0.56607 0.75450 0.57065 0.0500 Uiso
C53_3 C 0.60031 0.70920 0.52662 0.0500 Uiso
C54_3 C 0.65299 0.68007 0.53993 0.0500 Uiso
N7_3 N 0.51677 0.75412 0.55813 0.0500 Uiso
N8_3 N 0.41682 0.76219 0.54410 0.0500 Uiso
O19_2 O 0.27463 0.87052 0.49758 0.0500 Uiso
O20_2 O 0.27155 0.74749 0.41437 0.0500 Uiso
O23_3 O 0.50765 0.89157 0.66470 0.0500 Uiso
H35_3 H 0.48513 0.96969 0.55351 0.0500 Uiso
C1_4 C 0.21330 0.24641 0.40160 0.0500 Uiso
C2_4 C 0.21538 0.11222 0.37799 0.0500 Uiso
C3_4 C 0.41528 0.00854 0.31311 0.0500 Uiso
O1_4 O 0.20525 0.09481 0.32385 0.0500 Uiso
O2_4 O 0.22905 0.00741 0.41488 0.0500 Uiso
O3_4 O 0.42206 0.05872 0.36615 0.0500 Uiso
O4_4 O 0.44842 0.01170 0.27137 0.0500 Uiso
H7_4 H 0.23982 0.30432 0.37580 0.0500 Uiso
H8_4 H 0.22269 0.25713 0.45051 0.0500 Uiso
H9_4 H 0.17625 0.28524 0.39479 0.0500 Uiso
H10_4 H 0.44227 0.35887 0.59953 0.0500 Uiso
H11_4 H 0.35475 0.33985 0.60913 0.0500 Uiso
H12_4 H 0.34555 0.19700 0.42291 0.0500 Uiso
H13_4 H 0.60483 0.36578 0.56676 0.0500 Uiso
H14_4 H 0.51890 0.36099 0.58736 0.0500 Uiso
H15_4 H 0.57868 0.21212 0.38514 0.0500 Uiso
C15_4 C 0.29206 0.22090 0.53412 0.0500 Uiso
C16_4 C 0.42205 0.32428 0.56021 0.0500 Uiso
C17_4 C 0.37134 0.31533 0.56545 0.0500 Uiso
C18_4 C 0.34240 0.26700 0.51740 0.0500 Uiso
C19_4 C 0.36680 0.23168 0.46136 0.0500 Uiso
C20_4 C 0.44567 0.28072 0.50660 0.0500 Uiso
C21_4 C 0.58117 0.32976 0.53085 0.0500 Uiso
C22_4 C 0.53137 0.32905 0.54267 0.0500 Uiso
C23_4 C 0.49895 0.28784 0.49698 0.0500 Uiso
C24_4 C 0.56607 0.24550 0.42935 0.0500 Uiso
C25_4 C 0.60031 0.29080 0.47338 0.0500 Uiso
C26_4 C 0.65299 0.31993 0.46007 0.0500 Uiso
N3_4 N 0.51677 0.24588 0.44187 0.0500 Uiso
N4_4 N 0.41682 0.23781 0.45590 0.0500 Uiso
O7_4 O 0.27463 0.12948 0.50242 0.0500 Uiso
O11_4 O 0.50765 0.10843 0.33530 0.0500 Uiso
H17_4 H 0.48513 0.03031 0.44649 0.0500 Uiso
C29_4 C 0.78670 0.24641 0.09840 0.0500 Uiso
C30_4 C 0.78462 0.11222 0.12201 0.0500 Uiso
C31_4 C 0.58472 0.00854 0.18689 0.0500 Uiso
O13_4 O 0.79475 0.09481 0.17615 0.0500 Uiso
O15_4 O 0.57794 0.05872 0.13385 0.0500 Uiso
O16_4 O 0.55158 0.01170 0.22863 0.0500 Uiso
H25_4 H 0.76018 0.30432 0.12420 0.0500 Uiso
H26_4 H 0.77731 0.25713 0.04949 0.0500 Uiso
H27_4 H 0.82375 0.28524 0.10521 0.0500 Uiso
H30_4 H 0.65445 0.19700 0.07709 0.0500 Uiso
H33_4 H 0.42132 0.21212 0.11486 0.0500 Uiso
C47_4 C 0.63320 0.23168 0.03864 0.0500 Uiso
C51_4 C 0.50105 0.28784 0.00302 0.0500 Uiso
C52_4 C 0.43393 0.24550 0.07065 0.0500 Uiso
C53_4 C 0.39969 0.29080 0.02662 0.0500 Uiso
C54_4 C 0.34701 0.31993 0.03993 0.0500 Uiso
N7_4 N 0.48323 0.24588 0.05813 0.0500 Uiso
N8_4 N 0.58318 0.23781 0.04410 0.0500 Uiso
O23_4 O 0.49235 0.10843 0.16470 0.0500 Uiso
H35_4 H 0.51487 0.03031 0.05351 0.0500 Uiso
H28_4 H 0.55773 0.35887 0.90047 0.0500 Uiso
H29_4 H 0.64525 0.33985 0.89087 0.0500 Uiso
H31_4 H 0.39517 0.36578 0.93324 0.0500 Uiso
H32_4 H 0.48110 0.36099 0.91264 0.0500 Uiso
C43_4 C 0.70794 0.22090 0.96588 0.0500 Uiso
C44_4 C 0.57795 0.32428 0.93979 0.0500 Uiso
C45_4 C 0.62866 0.31533 0.93455 0.0500 Uiso
C46_4 C 0.65760 0.26700 0.98260 0.0500 Uiso
C48_4 C 0.55433 0.28072 0.99340 0.0500 Uiso
C49_4 C 0.41883 0.32976 0.96915 0.0500 Uiso
C50_4 C 0.46863 0.32905 0.95733 0.0500 Uiso
H1_4 H 0.33855 0.93301 0.38774 0.0500 Uiso
H2_4 H 0.29597 0.96348 0.16763 0.0500 Uiso
H3_4 H 0.37866 0.99868 0.19798 0.0500 Uiso
H4_4 H 0.12077 0.83010 0.33019 0.0500 Uiso
H5_4 H 0.13187 0.92958 0.13873 0.0500 Uiso
H6_4 H 0.21739 0.96423 0.15191 0.0500 Uiso
C4_4 C 0.36594 0.96583 0.29548 0.0500 Uiso
C5_4 C 0.33003 0.93160 0.33903 0.0500 Uiso
C6_4 C 0.27056 0.91716 0.26022 0.0500 Uiso
C7_4 C 0.30527 0.94837 0.21537 0.0500 Uiso
C8_4 C 0.35294 0.96908 0.23298 0.0500 Uiso
C9_4 C 0.21958 0.89083 0.24612 0.0500 Uiso
C10_4 C 0.14251 0.85015 0.29043 0.0500 Uiso
C11_4 C 0.11902 0.87128 0.23334 0.0500 Uiso
C12_4 C 0.14762 0.91236 0.18376 0.0500 Uiso
C13_4 C 0.19733 0.92610 0.19040 0.0500 Uiso
C14_4 C 0.07065 0.80960 0.21892 0.0500 Uiso
N1_4 N 0.19227 0.85543 0.29536 0.0500 Uiso
N2_4 N 0.28376 0.90318 0.32017 0.0500 Uiso
C27_4 C 0.50362 0.95101 0.42275 0.0500 Uiso
C28_4 C 0.51732 0.98560 0.35846 0.0500 Uiso
O12_4 O 0.53541 0.90412 0.32553 0.0500 Uiso
H16_4 H 0.47787 0.87080 0.42059 0.0500 Uiso
H18_4 H 0.53646 0.92359 0.44915 0.0500 Uiso
H19_4 H 0.66145 0.93301 0.11226 0.0500 Uiso
H20_4 H 0.70403 0.96348 0.33237 0.0500 Uiso
H21_4 H 0.62134 0.99868 0.30202 0.0500 Uiso
H22_4 H 0.87923 0.83010 0.16981 0.0500 Uiso
H23_4 H 0.86813 0.92958 0.36127 0.0500 Uiso
H24_4 H 0.78261 0.96423 0.34809 0.0500 Uiso
C32_4 C 0.63406 0.96583 0.20452 0.0500 Uiso
C33_4 C 0.66997 0.93160 0.16097 0.0500 Uiso
C34_4 C 0.72944 0.91716 0.23978 0.0500 Uiso
C35_4 C 0.69473 0.94837 0.28463 0.0500 Uiso
C36_4 C 0.64706 0.96908 0.26702 0.0500 Uiso
C37_4 C 0.78042 0.89083 0.25388 0.0500 Uiso
C38_4 C 0.85749 0.85015 0.20957 0.0500 Uiso
C39_4 C 0.88098 0.87128 0.26666 0.0500 Uiso
C40_4 C 0.85238 0.91236 0.31624 0.0500 Uiso
C41_4 C 0.80267 0.92610 0.30960 0.0500 Uiso
C42_4 C 0.92935 0.80960 0.28108 0.0500 Uiso
N5_4 N 0.80773 0.85543 0.20464 0.0500 Uiso
N6_4 N 0.71624 0.90318 0.17983 0.0500 Uiso
C55_4 C 0.49638 0.95101 0.07725 0.0500 Uiso
C56_4 C 0.48268 0.98560 0.14154 0.0500 Uiso
O24_4 O 0.46459 0.90412 0.17447 0.0500 Uiso
H34_4 H 0.52213 0.87080 0.07941 0.0500 Uiso
H36_4 H 0.46354 0.92359 0.05085 0.0500 Uiso
loop_
_geom_bond_atom_site_label_1
_geom_bond_atom_site_label_2
_geom_bond_site_symmetry_1
_geom_bond_site_symmetry_2
H10 C16 1_555 1_555
H11 C17 1_555 1_555
C15 C18 1_555 1_555
C16 C17 1_555 1_555
C17 C18 1_555 1_555
C20 C16 1_555 1_555
O7 C15 1_555 1_555
O8 C15 1_555 1_555
O25 Zn4 1_555 1_555
Zn8 O8 1_555 1_555
O34 Zn4 1_555 1_555
O7 Zn4 1_555 1_555
O25 Zn8 1_555 1_555
C1 C2 1_555 1_555
H1 C5 1_555 1_555
H2 C7 1_555 1_555
H3 C8 1_555 1_555
H4 C10 1_555 1_555
H5 C12 1_555 1_555
H6 C13 1_555 1_555
C2 O1 1_555 1_555
C3 C4 1_555 1_555
C4 C5 1_555 1_555
C5 N2 1_555 1_555
C6 C7 1_555 1_555
C7 C8 1_555 1_555
C8 C4 1_555 1_555
C9 C6 1_555 1_555
C10 C11 1_555 1_555
C11 C12 1_555 1_555
C12 C13 1_555 1_555
C13 C9 1_555 1_555
C14 C11 1_555 1_555
N1 C9 1_555 1_555
N2 C6 1_555 1_555
O2 C2 1_555 1_555
O3 C3 1_555 1_555
O4 C3 1_555 1_555
O5 C14 1_555 1_555
O6 C14 1_555 1_555
Zn1 N1 1_555 1_555
Zn2 O3 1_555 1_555
H7 C1 1_555 1_555
H8 C1 1_555 1_555
H9 C1 1_555 1_555
Zn3 O4 1_555 1_555
H12 C19 1_555 1_555
C19 N4 1_555 1_555
N4 Zn2 1_555 1_555
Zn4_2 O2 1_555 1_555
H31 C49 1_555 1_555
H32 C50 1_555 1_555
H33 C52 1_555 1_555
C49 C50 1_555 1_555
C52 C53 1_555 1_555
C53 C49 1_555 1_555
C54 C53 1_555 1_555
O21 C54 1_555 1_555
O22 C54 1_555 1_555
C55 C56 1_555 1_555
C56 O23 1_555 1_555
O23 Zn3 1_555 1_555
O24 C56 1_555 1_555
H36 C55 1_555 1_555
O27 Zn2 1_555 1_555
O29 Zn3 1_555 1_555
Zn10 O22 1_555 1_555
Zn12 O5 1_555 1_555
Zn14 O6 1_555 1_555
O30 Zn4_2 1_555 1_555
O32 Zn1 1_555 1_555
O33 Zn4_2 1_555 1_555
O35 Zn1 1_555 1_555
Zn17 O21 1_555 1_555
C10 N1 1_555 1_555
N2 Zn1 1_555 1_555
O2 Zn1 1_555 1_555
C52 N7 1_555 1_555
H13 C21 1_555 1_555
H14 C22 1_555 1_555
C21 C22 1_555 1_555
H15 C24 1_555 1_555
C24 C25 1_555 1_555
C26 C25 1_555 1_555
O9 C26 1_555 1_555
O10 C26 1_555 1_555
C27 C28 1_555 1_555
C28 O11 1_555 1_555
O12 C28 1_555 1_555
H18 C27 1_555 1_555
C29 C30 1_555 1_555
H19 C33 1_555 1_555
H20 C35 1_555 1_555
H21 C36 1_555 1_555
H22 C38 1_555 1_555
H23 C40 1_555 1_555
H24 C41 1_555 1_555
C30 O13 1_555 1_555
C31 C32 1_555 1_555
C32 C33 1_555 1_555
C33 N6 1_555 1_555
C34 C35 1_555 1_555
C35 C36 1_555 1_555
C36 C32 1_555 1_555
C37 C34 1_555 1_555
C38 C39 1_555 1_555
C39 C40 1_555 1_555
C40 C41 1_555 1_555
C41 C37 1_555 1_555
C42 C39 1_555 1_555
N5 C37 1_555 1_555
N6 C34 1_555 1_555
O14 C30 1_555 1_555
O15 C31 1_555 1_555
O16 Zn3_2 1_555 1_555
O17 C42 1_555 1_555
O18 C42 1_555 1_555
Zn5 N5 1_555 1_555
Zn6 O15 1_555 1_555
H25 C29 1_555 1_555
H26 C29 1_555 1_555
H27 C29 1_555 1_555
H28 C44 1_555 1_555
H29 C45 1_555 1_555
H30 C47 1_555 1_555
C43 C46 1_555 1_555
C44 C45 1_555 1_555
C45 C46 1_555 1_555
C46 C47 1_555 1_555
C47 N8 1_555 1_555
C48 C44 1_555 1_555
C51 C48 1_555 1_555
N8 Zn6 1_555 1_555
O19 C43 1_555 1_555
O20 C43 1_555 1_555
O26 Zn6 1_555 1_555
O28 Zn3_2 1_555 1_555
Zn7 O20 1_555 1_555
Zn9 O10 1_555 1_555
Zn11 O17 1_555 1_555
Zn14 O18 1_555 1_555
O31 Zn5 1_555 1_555
O36 Zn5 1_555 1_555
Zn15 O14 1_555 1_555
Zn16_2 O9 1_555 1_555
Zn3_2 O11 1_555 1_555
C24 N3 1_555 1_555
C31 O16 1_555 1_555
C38 N5 1_555 1_555
N6 Zn5 1_555 1_555
O14 Zn5 1_555 1_555
C48 N8 1_555 1_555
O19 Zn15 1_555 1_555
H13_2 C21_2 1_555 1_555
H14_2 C22_2 1_555 1_555
H15_2 C24_2 1_555 1_555
C21_2 C22_2 1_555 1_555
C24_2 C25_2 1_555 1_555
C25_2 C21_2 1_555 1_555
C26_2 C25_2 1_555 1_555
O9_2 C26_2 1_555 1_555
O10_2 C26_2 1_555 1_555
C27_2 C28_2 1_555 1_555
C28_2 O11_2 1_555 1_555
O12_2 C28_2 1_555 1_555
H18_2 C27_2 1_555 1_555
C29_2 C30_2 1_555 1_555
H19_2 C33_2 1_555 1_555
H20_2 C35_2 1_555 1_555
H21_2 C36_2 1_555 1_555
H22_2 C38_2 1_555 1_555
H23_2 C40_2 1_555 1_555
H24_2 C41_2 1_555 1_555
C30_2 O13_2 1_555 1_555
C31_2 C32_2 1_555 1_555
C32_2 C33_2 1_555 1_555
C33_2 N6_2 1_555 1_555
C34_2 C35_2 1_555 1_555
C35_2 C36_2 1_555 1_555
C36_2 C32_2 1_555 1_555
C37_2 C34_2 1_555 1_555
C38_2 C39_2 1_555 1_555
C39_2 C40_2 1_555 1_555
C40_2 C41_2 1_555 1_555
C41_2 C37_2 1_555 1_555
C42_2 C39_2 1_555 1_555
N5_2 C37_2 1_555 1_555
N6_2 C34_2 1_555 1_555
O25 C30_2 1_555 1_555
O15_2 C31_2 1_555 1_555
O16_2 Zn3_3 1_555 1_555
O17_2 C42_2 1_555 1_555
O18_2 C42_2 1_555 1_555
Zn8 N5_2 1_555 1_555
Zn6_2 O15_2 1_555 1_555
H25_2 C29_2 1_555 1_555
H26_2 C29_2 1_555 1_555
H27_2 C29_2 1_555 1_555
H30_2 C47_2 1_555 1_555
C47_2 N8_2 1_555 1_555
N8_2 Zn6_2 1_555 1_555
O26_2 Zn6_2 1_555 1_555
O28_2 Zn3_3 1_555 1_555
Zn9_2 O10_2 1_555 1_555
Zn11_2 O17_2 1_555 1_555
Zn13 O18_2 1_555 1_555
O36_2 Zn8 1_555 1_555
Zn17_2 O9_2 1_555 1_555
Zn3_3 O11_2 1_555 1_555
C24_2 N3_2 1_555 1_555
C31_2 O16_2 1_555 1_555
C38_2 N5_2 1_555 1_555
N6_2 Zn8 1_555 1_555
H28_2 C44_2 1_555 1_555
H29_2 C45_2 1_555 1_555
C43_2 C46_2 1_555 1_555
C44_2 C45_2 1_555 1_555
C45_2 C46_2 1_555 1_555
C48_2 C44_2 1_555 1_555
O30 C43_2 1_555 1_555
O32 C43_2 1_555 1_555
C1_2 C2_2 1_555 1_555
H1_2 C5_2 1_555 1_555
H2_2 C7_2 1_555 1_555
H3_2 C8_2 1_555 1_555
H4_2 C10_2 1_555 1_555
H5_2 C12_2 1_555 1_555
H6_2 C13_2 1_555 1_555
C2_2 O1_2 1_555 1_555
C3_2 C4_2 1_555 1_555
C4_2 C5_2 1_555 1_555
C5_2 N2_2 1_555 1_555
C6_2 C7_2 1_555 1_555
C7_2 C8_2 1_555 1_555
C8_2 C4_2 1_555 1_555
C9_2 C6_2 1_555 1_555
C10_2 C11_2 1_555 1_555
C11_2 C12_2 1_555 1_555
C12_2 C13_2 1_555 1_555
C13_2 C9_2 1_555 1_555
C14_2 C11_2 1_555 1_555
N1_2 C9_2 1_555 1_555
N2_2 C6_2 1_555 1_555
O2_2 C2_2 1_555 1_555
O3_2 C3_2 1_555 1_555
O4_2 C3_2 1_555 1_555
O5_2 C14_2 1_555 1_555
O6_2 C14_2 1_555 1_555
Zn7 N1_2 1_555 1_555
Zn2_2 O3_2 1_555 1_555
H7_2 C1_2 1_555 1_555
H8_2 C1_2 1_555 1_555
H9_2 C1_2 1_555 1_555
Zn3_4 O4_2 1_555 1_555
H10_2 C16_2 1_555 1_555
H11_2 C17_2 1_555 1_555
H12_2 C19_2 1_555 1_555
C15_2 C18_2 1_555 1_555
C16_2 C17_2 1_555 1_555
C17_2 C18_2 1_555 1_555
C18_2 C19_2 1_555 1_555
C19_2 N4_2 1_555 1_555
C20_2 C16_2 1_555 1_555
C23_2 C20_2 1_555 1_555
N4_2 Zn2_2 1_555 1_555
O7_2 C15_2 1_555 1_555
O31 C15_2 1_555 1_555
Zn15 O2_2 1_555 1_555
H33_2 C52_2 1_555 1_555
C52_2 C53_2 1_555 1_555
C54_2 C53_2 1_555 1_555
O21_2 C54_2 1_555 1_555
O22_2 C54_2 1_555 1_555
C55_2 C56_2 1_555 1_555
C56_2 O23_2 1_555 1_555
O23_2 Zn3_4 1_555 1_555
O24_2 C56_2 1_555 1_555
H36_2 C55_2 1_555 1_555
O27_2 Zn2_2 1_555 1_555
O29_2 Zn3_4 1_555 1_555
Zn10_2 O22_2 1_555 1_555
Zn12_2 O5_2 1_555 1_555
Zn13 O6_2 1_555 1_555
O33_2 Zn15 1_555 1_555
O34_2 Zn15 1_555 1_555
O35_2 Zn7 1_555 1_555
Zn16_3 O21_2 1_555 1_555
C10_2 N1_2 1_555 1_555
N2_2 Zn7 1_555 1_555
O2_2 Zn7 1_555 1_555
C20_2 N4_2 1_555 1_555
O7_2 Zn15 1_555 1_555
C52_2 N7_2 1_555 1_555
H31_2 C49_2 1_555 1_555
H32_2 C50_2 1_555 1_555
C49_2 C50_2 1_555 1_555
O25_2 Zn16 1_555 1_555
H1_3 C5_3 1_555 1_555
H2_3 C7_3 1_555 1_555
H3_3 C8_3 1_555 1_555
H4_3 C10_3 1_555 1_555
H5_3 C12_3 1_555 1_555
H6_3 C13_3 1_555 1_555
C4_3 C5_3 1_555 1_555
C5_3 N2_3 1_555 1_555
C6_3 C7_3 1_555 1_555
C7_3 C8_3 1_555 1_555
C8_3 C4_3 1_555 1_555
C9_3 C6_3 1_555 1_555
C10_3 C11_3 1_555 1_555
C11_3 C12_3 1_555 1_555
C12_3 C13_3 1_555 1_555
C13_3 C9_3 1_555 1_555
C14_3 C11_3 1_555 1_555
N1_3 C9_3 1_555 1_555
N2_3 C6_3 1_555 1_555
O26 C14_3 1_555 1_555
O28 C14_3 1_555 1_555
Zn9 N1_3 1_555 1_555
C27_3 C28_3 1_555 1_555
O12_3 C28_3 1_555 1_555
H16_3 C27_3 1_555 1_555
H18_3 C27_3 1_555 1_555
H19_3 C33_3 1_555 1_555
H20_3 C35_3 1_555 1_555
H21_3 C36_3 1_555 1_555
H22_3 C38_3 1_555 1_555
H23_3 C40_3 1_555 1_555
H24_3 C41_3 1_555 1_555
C32_3 C33_3 1_555 1_555
C33_3 N6_3 1_555 1_555
C34_3 C35_3 1_555 1_555
C35_3 C36_3 1_555 1_555
C36_3 C32_3 1_555 1_555
C37_3 C34_3 1_555 1_555
C38_3 C39_3 1_555 1_555
C39_3 C40_3 1_555 1_555
C40_3 C41_3 1_555 1_555
C41_3 C37_3 1_555 1_555
C42_3 C39_3 1_555 1_555
N5_3 C37_3 1_555 1_555
N6_3 C34_3 1_555 1_555
O27 C42_3 1_555 1_555
O29 C42_3 1_555 1_555
Zn10 N5_3 1_555 1_555
C55_3 C56_3 1_555 1_555
O24_3 C56_3 1_555 1_555
H34_3 C55_3 1_555 1_555
H36_3 C55_3 1_555 1_555
O30_2 Zn16_2 1_555 1_555
O31_2 Zn10 1_555 1_555
O32_2 Zn9 1_555 1_555
C10_3 N1_3 1_555 1_555
N2_3 Zn9 1_555 1_555
C38_3 N5_3 1_555 1_555
N6_3 Zn10 1_555 1_555
H10_3 C16_3 1_555 1_555
H11_3 C17_3 1_555 1_555
H13_3 C21_3 1_555 1_555
H14_3 C22_3 1_555 1_555
C15_3 C18_3 1_555 1_555
C16_3 C17_3 1_555 1_555
C17_3 C18_3 1_555 1_555
C20_3 C16_3 1_555 1_555
C21_3 C22_3 1_555 1_555
O7_3 C15_3 1_555 1_555
O8_2 C15_3 1_555 1_555
Zn10_2 O8_2 1_555 1_555
O7_3 Zn16_3 1_555 1_555
C1_3 C2_3 1_555 1_555
C2_3 O1_3 1_555 1_555
O2_3 C2_3 1_555 1_555
O3_3 C3_3 1_555 1_555
O4_3 C3_3 1_555 1_555
Zn11 O3_3 1_555 1_555
H7_3 C1_3 1_555 1_555
H8_3 C1_3 1_555 1_555
H9_3 C1_3 1_555 1_555
Zn14 O4_3 1_555 1_555
H12_3 C19_3 1_555 1_555
H15_3 C24_3 1_555 1_555
C19_3 N4_3 1_555 1_555
C24_3 C25_3 1_555 1_555
C26_3 C25_3 1_555 1_555
N3_3 Zn11 1_555 1_555
N4_3 Zn11 1_555 1_555
O33 C26_3 1_555 1_555
O35 C26_3 1_555 1_555
Zn16_4 O2_3 1_555 1_555
O11_3 Zn11 1_555 1_555
C29_3 C30_3 1_555 1_555
C30_3 O13_3 1_555 1_555
O14_2 C30_3 1_555 1_555
O15_3 C31_3 1_555 1_555
O16_3 Zn14 1_555 1_555
Zn12 O15_3 1_555 1_555
H25_3 C29_3 1_555 1_555
H26_3 C29_3 1_555 1_555
H27_3 C29_3 1_555 1_555
H28_3 C44_3 1_555 1_555
H29_3 C45_3 1_555 1_555
H30_3 C47_3 1_555 1_555
H31_3 C49_3 1_555 1_555
H32_3 C50_3 1_555 1_555
H33_3 C52_3 1_555 1_555
C43_3 C46_3 1_555 1_555
C44_3 C45_3 1_555 1_555
C45_3 C46_3 1_555 1_555
C46_3 C47_3 1_555 1_555
C47_3 N8_3 1_555 1_555
C48_3 C44_3 1_555 1_555
C49_3 C50_3 1_555 1_555
C50_3 C51_3 1_555 1_555
C51_3 C48_3 1_555 1_555
C52_3 C53_3 1_555 1_555
C53_3 C49_3 1_555 1_555
C54_3 C53_3 1_555 1_555
N7_3 Zn12 1_555 1_555
N8_3 Zn12 1_555 1_555
O19_2 C43_3 1_555 1_555
O20_2 C43_3 1_555 1_555
O34_2 C54_3 1_555 1_555
O36 C54_3 1_555 1_555
O23_3 Zn14 1_555 1_555
Zn9_2 O20_2 1_555 1_555
Zn17_2 O14_2 1_555 1_555
Zn14 O11_3 1_555 1_555
C23_3 N3_3 1_555 1_555
C24_3 N3_3 1_555 1_555
C31_3 O16_3 1_555 1_555
Zn12 O23_3 1_555 1_555
C48_3 N8_3 1_555 1_555
C51_3 N7_3 1_555 1_555
C52_3 N7_3 1_555 1_555
O19_2 Zn17_2 1_555 1_555
C1_4 C2_4 1_555 1_555
C2_4 O1_4 1_555 1_555
O2_4 C2_4 1_555 1_555
O3_4 C3_4 1_555 1_555
O4_4 C3_4 1_555 1_555
Zn11_2 O3_4 1_555 1_555
H7_4 C1_4 1_555 1_555
H8_4 C1_4 1_555 1_555
H9_4 C1_4 1_555 1_555
Zn13 O4_4 1_555 1_555
H10_4 C16_4 1_555 1_555
H11_4 C17_4 1_555 1_555
H12_4 C19_4 1_555 1_555
H13_4 C21_4 1_555 1_555
H14_4 C22_4 1_555 1_555
H15_4 C24_4 1_555 1_555
C15_4 C18_4 1_555 1_555
C16_4 C17_4 1_555 1_555
C17_4 C18_4 1_555 1_555
C18_4 C19_4 1_555 1_555
C19_4 N4_4 1_555 1_555
C20_4 C16_4 1_555 1_555
C21_4 C22_4 1_555 1_555
C22_4 C23_4 1_555 1_555
C23_4 C20_4 1_555 1_555
C24_4 C25_4 1_555 1_555
C25_4 C21_4 1_555 1_555
C26_4 C25_4 1_555 1_555
N3_4 Zn11_2 1_555 1_555
N4_4 Zn11_2 1_555 1_555
O7_4 C15_4 1_555 1_555
O31_2 C15_4 1_555 1_555
O33_2 C26_4 1_555 1_555
O35_2 C26_4 1_555 1_555
Zn17 O2_4 1_555 1_555
O11_4 Zn11_2 1_555 1_555
C29_4 C30_4 1_555 1_555
C30_4 O13_4 1_555 1_555
O25_2 C30_4 1_555 1_555
O15_4 C31_4 1_555 1_555
O16_4 Zn13 1_555 1_555
Zn12_2 O15_4 1_555 1_555
H25_4 C29_4 1_555 1_555
H26_4 C29_4 1_555 1_555
H27_4 C29_4 1_555 1_555
H30_4 C47_4 1_555 1_555
H33_4 C52_4 1_555 1_555
C47_4 N8_4 1_555 1_555
C52_4 C53_4 1_555 1_555
C54_4 C53_4 1_555 1_555
N7_4 Zn12_2 1_555 1_555
N8_4 Zn12_2 1_555 1_555
O34 C54_4 1_555 1_555
O36_2 C54_4 1_555 1_555
O23_4 Zn13 1_555 1_555
Zn13 O11_4 1_555 1_555
C20_4 N4_4 1_555 1_555
C23_4 N3_4 1_555 1_555
C24_4 N3_4 1_555 1_555
O7_4 Zn17 1_555 1_555
C31_4 O16_4 1_555 1_555
Zn12_2 O23_4 1_555 1_555
C51_4 N7_4 1_555 1_555
C52_4 N7_4 1_555 1_555
H28_4 C44_4 1_555 1_555
H29_4 C45_4 1_555 1_555
H31_4 C49_4 1_555 1_555
H32_4 C50_4 1_555 1_555
C43_4 C46_4 1_555 1_555
C44_4 C45_4 1_555 1_555
C45_4 C46_4 1_555 1_555
C48_4 C44_4 1_555 1_555
C49_4 C50_4 1_555 1_555
O30_2 C43_4 1_555 1_555
O32_2 C43_4 1_555 1_555
H1_4 C5_4 1_555 1_555
H2_4 C7_4 1_555 1_555
H3_4 C8_4 1_555 1_555
H4_4 C10_4 1_555 1_555
H5_4 C12_4 1_555 1_555
H6_4 C13_4 1_555 1_555
C4_4 C5_4 1_555 1_555
C5_4 N2_4 1_555 1_555
C6_4 C7_4 1_555 1_555
C7_4 C8_4 1_555 1_555
C8_4 C4_4 1_555 1_555
C9_4 C6_4 1_555 1_555
C10_4 C11_4 1_555 1_555
C11_4 C12_4 1_555 1_555
C12_4 C13_4 1_555 1_555
C13_4 C9_4 1_555 1_555
C14_4 C11_4 1_555 1_555
N1_4 C9_4 1_555 1_555
N2_4 C6_4 1_555 1_555
O26_2 C14_4 1_555 1_555
O28_2 C14_4 1_555 1_555
Zn9_2 N1_4 1_555 1_555
C27_4 C28_4 1_555 1_555
O12_4 C28_4 1_555 1_555
H16_4 C27_4 1_555 1_555
H18_4 C27_4 1_555 1_555
H19_4 C33_4 1_555 1_555
H20_4 C35_4 1_555 1_555
H21_4 C36_4 1_555 1_555
H22_4 C38_4 1_555 1_555
H23_4 C40_4 1_555 1_555
H24_4 C41_4 1_555 1_555
C32_4 C33_4 1_555 1_555
C33_4 N6_4 1_555 1_555
C34_4 C35_4 1_555 1_555
C35_4 C36_4 1_555 1_555
C36_4 C32_4 1_555 1_555
C37_4 C34_4 1_555 1_555
C38_4 C39_4 1_555 1_555
C39_4 C40_4 1_555 1_555
C40_4 C41_4 1_555 1_555
C41_4 C37_4 1_555 1_555
C42_4 C39_4 1_555 1_555
N5_4 C37_4 1_555 1_555
N6_4 C34_4 1_555 1_555
O27_2 C42_4 1_555 1_555
O29_2 C42_4 1_555 1_555
Zn10_2 N5_4 1_555 1_555
C55_4 C56_4 1_555 1_555
O24_4 C56_4 1_555 1_555
H34_4 C55_4 1_555 1_555
H36_4 C55_4 1_555 1_555
C10_4 N1_4 1_555 1_555
N2_4 Zn9_2 1_555 1_555
C38_4 N5_4 1_555 1_555
N6_4 Zn10_2 1_555 1_555

#END
