
###############################################################################
#
# This file contains modified crystal structure data generated from the
# MOF subset of the Cambridge Structural Database (CSD) v543 
# hosted by the Cambridge Crystallographic Data Centre (CCDC).
#
# This work is licensed under the Creative Commons
# Attribution-NonCommercial-ShareAlike 4.0 International License.
# To view a copy of this license, visit
# http://creativecommons.org/licenses/by-nc-sa/4.0/
# or send a letter to
# Creative Commons, PO Box 1866, Mountain View, CA 94042, USA.
#
# CIF created using the CSD Python API on 29 September 2022
# The structure has been converted into the P1 space group
# The structure has a 3D framework
# The original CSD entry LACGIH is in the triclinic crystal system
# The framework has been calculated to contain at least 10.0% void space
# The void calculation uses a probe of radius 1.32A, grid spacing 0.4
# H atom positions have been added when not included in the experimental data
#
###############################################################################

data_LACGIH
_chemical_formula_moiety         '(C36 H30 N2 O18 Pb2 Sr2)n'
_symmetry_cell_setting           triclinic
_symmetry_space_group_name_H-M   'P 1'
_symmetry_Int_Tables_number      1
_space_group_name_Hall           'P 1'
loop_
_symmetry_equiv_pos_site_id
_symmetry_equiv_pos_as_xyz
1 x,y,z
_cell_length_a                   9.8108(5)
_cell_length_b                   10.4971(4)
_cell_length_c                   12.3568(5)
_cell_angle_alpha                68.336(8)
_cell_angle_beta                 87.529(9)
_cell_angle_gamma                68.261(8)
_cell_volume                     1092.09
loop_
_atom_site_label
_atom_site_type_symbol
_atom_site_fract_x
_atom_site_fract_y
_atom_site_fract_z
O3 O 0.1073(7) 0.1204(6) 0.7118(5)
O4 O 0.1766(7) 0.1222(6) 0.8786(5)
C2 C 0.1432(8) 0.0597(8) 0.8220(7)
Pb2 Pb 0.04881(3) 0.38588(3) 0.72176(2)
Sr2 Sr 0.04515(6) 0.18539(6) 0.50117(5)
O9 O 0.1453(6) 0.6519(6) 0.1829(4)
H2 H 0.1148 0.5431 0.0351
C7 C 0.1379(8) 0.7115(8) 0.0645(7)
C8 C 0.1470(8) 0.8491(8) 0.0055(7)
H3 H 0.1589 0.9023 0.0476
O1 O 0.1177(8) 0.4700(7) 0.8668(6)
O2 O 0.0641(8) 0.6663(7) 0.7007(5)
C1 C 0.1008(9) 0.6043(9) 0.8097(8)
C5 C 0.1179(9) 0.6906(8) 0.8764(7)
C6 C 0.1224(9) 0.6346(9) 0.9974(7)
C9 C 0.1383(8) 0.9076(8) 0.8840(7)
C10 C 0.1227(8) 0.8309(8) 0.8181(7)
H4 H 0.1156 0.8719 0.7367
O14 O 0.1317(6) 0.5759(6) 0.4676(5)
O17 O 0.1347(6) 0.9397(6) 0.4452(6)
O7 O 0.3058(7) 0.0085(8) 0.4849(8)
O16 O 0.8653(6) 0.0603(6) 0.5548(6)
Pb3 Pb 0.95119(3) 0.61412(3) 0.27824(2)
Sr1 Sr 0.95485(6) 0.81461(6) 0.49883(5)
O5 O 0.8683(6) 0.4241(6) 0.5324(5)
O6 O 0.8275(6) 0.6244(6) 0.5704(5)
O10 O 0.4259(7) 0.5696(8) 0.2568(6)
H1 H 0.3365 0.6025 0.2396
C3 C 0.7859(7) 0.5540(7) 0.5247(6)
C4 C 0.2687(8) 0.9239(8) 0.4544(7)
C11 C 0.6356(8) 0.6266(8) 0.4579(7)
C12 C 0.5987(8) 0.5677(8) 0.3846(7)
H5 H 0.6695 0.4870 0.3731
C13 C 0.4560(8) 0.6293(9) 0.3285(7)
C14 C 0.3463(9) 0.7458(8) 0.3530(7)
H6 H 0.2491 0.7837 0.3202
C15 C 0.3852(8) 0.8020(8) 0.4259(7)
C16 C 0.5299(8) 0.7456(8) 0.4762(7)
H7 H 0.5557 0.7878 0.5221
O12 O 0.8927(7) 0.8796(6) 0.2882(5)
O15 O 0.6942(7) 0.9915(8) 0.5151(8)
O18 O 0.8547(6) 0.3481(6) 0.8171(4)
O6_2 O 0.1725(6) 0.3756(6) 0.4296(5)
O10_2 O 0.5741(7) 0.4304(8) 0.7432(6)
H1_2 H 0.6635 0.3975 0.7604
C3_2 C 0.2141(7) 0.4460(7) 0.4753(6)
C4_2 C 0.7313(8) 0.0761(8) 0.5456(7)
C11_2 C 0.3644(8) 0.3734(8) 0.5421(7)
C12_2 C 0.4013(8) 0.4323(8) 0.6154(7)
H5_2 H 0.3305 0.5130 0.6269
C13_2 C 0.5440(8) 0.3707(9) 0.6715(7)
C14_2 C 0.6537(9) 0.2542(8) 0.6470(7)
H6_2 H 0.7509 0.2163 0.6798
C15_2 C 0.6148(8) 0.1980(8) 0.5741(7)
C16_2 C 0.4701(8) 0.2544(8) 0.5238(7)
H7_2 H 0.4443 0.2122 0.4779
O1_2 O 0.8823(8) 0.5300(7) 0.1332(6)
O2_2 O 0.9359(8) 0.3337(7) 0.2993(5)
C1_2 C 0.8992(9) 0.3957(9) 0.1903(8)
C5_2 C 0.8821(9) 0.3094(8) 0.1236(7)
C6_2 C 0.8776(9) 0.3654(9) 0.0026(7)
C9_2 C 0.8617(8) 0.0924(8) 0.1160(7)
C10_2 C 0.8773(8) 0.1691(8) 0.1819(7)
H4_2 H 0.8844 0.1281 0.2633
O13 O 0.8234(7) 0.8778(6) 0.1214(5)
H2_2 H 0.8852 0.4569 0.9649
C7_2 C 0.8621(8) 0.2885(8) 0.9355(7)
C8_2 C 0.8530(8) 0.1509(8) 0.9945(7)
H3_2 H 0.8411 0.0977 0.9524
C2_2 C 0.8568(8) 0.9403(8) 0.1780(7)
H15 H 0.484634 0.0143117 0.716158
N1 N 0.5893(10) 0.8095(13) 0.8497(10)
C17 C 0.747(2) 0.792(3) 0.842(2)
C18 C 0.487(2) 0.902(4) 0.746(2)
H8 H 0.552424 0.852156 0.911811
H9 H 0.586842 0.706715 0.875897
H10 H 0.754518 0.900058 0.815904
H11 H 0.810139 0.719155 0.927105
H12 H 0.791444 0.744013 0.777371
H13 H 0.521561 0.858267 0.677625
H14 H 0.377232 0.903563 0.765582
N1_2 N 0.4107(10) 0.1905(13) 0.1503(10)
C17_2 C 0.253(2) 0.208(3) 0.158(2)
C18_2 C 0.513(2) 0.098(4) 0.254(2)
H8_2 H 0.447576 0.147844 0.0881886
H9_2 H 0.413158 0.293285 0.124103
H10_2 H 0.245482 0.0999416 0.184096
H11_2 H 0.189861 0.280845 0.0728947
H12_2 H 0.208556 0.255987 0.222629
H13_2 H 0.478439 0.141733 0.322375
H14_2 H 0.622768 0.0964368 0.234418
H15_2 H 0.515366 0.985688 0.283842
loop_
_geom_bond_atom_site_label_1
_geom_bond_atom_site_label_2
_geom_bond_site_symmetry_1
_geom_bond_site_symmetry_2
O3 C2 1_555 1_555
O4 C2 1_555 1_555
Pb2 O3 1_555 1_555
Sr2 O3 1_555 1_555
O4 Pb2 1_555 1_555
O9 C7 1_555 1_555
C8 C7 1_555 1_555
H3 C8 1_555 1_555
Pb2 O1 1_555 1_555
O1 C1 1_555 1_555
O2 C1 1_555 1_555
C1 C5 1_555 1_555
C5 C6 1_555 1_555
C10 C5 1_555 1_555
H4 C10 1_555 1_555
C9 C10 1_555 1_555
Sr2 O7 1_555 1_555
O17 C4 1_555 1_555
O10 H1 1_555 1_555
C3 O5 1_555 1_555
C4 C15 1_555 1_555
C11 C3 1_555 1_555
C12 C11 1_555 1_555
H5 C12 1_555 1_555
C13 O10 1_555 1_555
C14 C13 1_555 1_555
H6 C14 1_555 1_555
C15 C14 1_555 1_555
C16 C11 1_555 1_555
H7 C16 1_555 1_555
O12 Sr1 1_555 1_555
O15 Sr1 1_555 1_555
Sr1 O6 1_555 1_555
O6 C3 1_555 1_555
C12 C13 1_555 1_555
C15 C16 1_555 1_555
O16 C4_2 1_555 1_555
O10_2 H1_2 1_555 1_555
C3_2 O14 1_555 1_555
C4_2 C15_2 1_555 1_555
C11_2 C3_2 1_555 1_555
C12_2 C11_2 1_555 1_555
H5_2 C12_2 1_555 1_555
C13_2 O10_2 1_555 1_555
C14_2 C13_2 1_555 1_555
H6_2 C14_2 1_555 1_555
C15_2 C14_2 1_555 1_555
C16_2 C11_2 1_555 1_555
H7_2 C16_2 1_555 1_555
Sr2 O6_2 1_555 1_555
O6_2 C3_2 1_555 1_555
C12_2 C13_2 1_555 1_555
C15_2 C16_2 1_555 1_555
Pb3 O1_2 1_555 1_555
O1_2 C1_2 1_555 1_555
O2_2 C1_2 1_555 1_555
C1_2 C5_2 1_555 1_555
C5_2 C6_2 1_555 1_555
C10_2 C5_2 1_555 1_555
H4_2 C10_2 1_555 1_555
O12 Pb3 1_555 1_555
O13 Pb3 1_555 1_555
C9_2 C10_2 1_555 1_555
O18 C7_2 1_555 1_555
C8_2 C7_2 1_555 1_555
H3_2 C8_2 1_555 1_555
O12 C2_2 1_555 1_555
O13 C2_2 1_555 1_555
N1 C17 1_555 1_555
C18 N1 1_555 1_555
N1 H8 1_555 1_555
N1 H9 1_555 1_555
C17 H10 1_555 1_555
C17 H11 1_555 1_555
C17 H12 1_555 1_555
C18 H13 1_555 1_555
C18 H14 1_555 1_555
N1_2 C17_2 1_555 1_555
C18_2 N1_2 1_555 1_555
N1_2 H8_2 1_555 1_555
N1_2 H9_2 1_555 1_555
C17_2 H10_2 1_555 1_555
C17_2 H11_2 1_555 1_555
C17_2 H12_2 1_555 1_555
C18_2 H13_2 1_555 1_555
C18_2 H14_2 1_555 1_555

#END
