
###############################################################################
#
# This file contains modified crystal structure data generated from the
# MOF subset of the Cambridge Structural Database (CSD) v543 
# hosted by the Cambridge Crystallographic Data Centre (CCDC).
#
# This work is licensed under the Creative Commons
# Attribution-NonCommercial-ShareAlike 4.0 International License.
# To view a copy of this license, visit
# http://creativecommons.org/licenses/by-nc-sa/4.0/
# or send a letter to
# Creative Commons, PO Box 1866, Mountain View, CA 94042, USA.
#
# CIF created using the CSD Python API on 29 September 2022
# The structure has been converted into the P1 space group
# The structure has a 3D framework
# The original CSD entry LACJIL is in the tetragonal crystal system
# The original CSD entry LACJIL is in a Sohncke space group
# The framework has been calculated to contain at least 10.0% void space
# The void calculation uses a probe of radius 1.32A, grid spacing 0.4
#
###############################################################################

data_LACJIL
_chemical_formula_moiety         '(C152 H88 N16 O48 Zn13)n'
_symmetry_cell_setting           triclinic
_symmetry_space_group_name_H-M   'P 1'
_symmetry_Int_Tables_number      1
_space_group_name_Hall           'P 1'
loop_
_symmetry_equiv_pos_site_id
_symmetry_equiv_pos_as_xyz
1 x,y,z
_cell_length_a                   15.0193
_cell_length_b                   15.0193
_cell_length_c                   21.9053
_cell_angle_alpha                90
_cell_angle_beta                 90
_cell_angle_gamma                90
_cell_volume                     4941.38
loop_
_atom_site_label
_atom_site_type_symbol
_atom_site_fract_x
_atom_site_fract_y
_atom_site_fract_z
_atom_site_U_iso_or_equiv
_atom_site_thermal_displace_type
O10 O 0.07269 0.20134 0.02500 0.0500 Uiso
O11 O 0.03463 0.20274 0.11757 0.0500 Uiso
C37 C 0.01941 0.19629 0.06559 0.0500 Uiso
Zn4 Zn 0.15590 0.24036 0.15000 0.0500 Uiso
Zn9 Zn 0.20931 0.20931 0.00000 0.0500 Uiso
Zn9_2 Zn 0.20931 0.20931 1.00000 0.0500 Uiso
O4 O 0.20134 0.07269 0.97500 0.0500 Uiso
O5 O 0.20274 0.03463 0.88243 0.0500 Uiso
C18 C 0.19629 0.01941 0.93441 0.0500 Uiso
Zn7 Zn 0.24036 0.15590 0.85000 0.0500 Uiso
C1 C 0.29453 0.03064 0.11376 0.0500 Uiso
C6 C 0.35386 0.03258 0.06792 0.0500 Uiso
H5 H 0.35785 0.08252 0.04434 0.0500 Uiso
O1 O 0.23261 0.17448 0.08960 0.0500 Uiso
O2 O 0.21481 0.33884 0.01726 0.0500 Uiso
O3 O 0.15869 0.35801 0.10611 0.0500 Uiso
O6 O 0.18398 0.10907 0.16809 0.0500 Uiso
C7 C 0.18794 0.38295 0.05751 0.0500 Uiso
C8 C 0.18887 0.48173 0.04421 0.0500 Uiso
C10 C 0.18225 0.65683 0.01567 0.0500 Uiso
C11 C 0.15107 0.62944 0.06842 0.0500 Uiso
H7 H 0.12753 0.67004 0.09446 0.0500 Uiso
C12 C 0.15489 0.54240 0.08251 0.0500 Uiso
H8 H 0.13434 0.52371 0.11843 0.0500 Uiso
C14 C 0.13579 0.81662 0.02593 0.0500 Uiso
H9 H 0.10838 0.80241 0.06050 0.0500 Uiso
C17 C 0.13762 0.90347 0.00576 0.0500 Uiso
H11 H 0.11004 0.94792 0.02646 0.0500 Uiso
C19 C 0.23353 0.10854 0.12428 0.0500 Uiso
N3 N 0.59879 0.21746 0.02220 0.0500 Uiso
N4 N 0.77061 0.21894 0.05533 0.0500 Uiso
C28 C 0.51453 0.21955 0.00819 0.0500 Uiso
H17 H 0.47481 0.24284 0.03494 0.0500 Uiso
C32 C 0.75184 0.17617 0.00724 0.0500 Uiso
C34 C 0.85400 0.21927 0.07456 0.0500 Uiso
H21 H 0.86604 0.24715 0.10934 0.0500 Uiso
C35 C 0.92296 0.18077 0.04556 0.0500 Uiso
Zn6 Zn 0.65590 0.25964 0.10000 0.0500 Uiso
N5 N 0.09879 0.28254 0.22780 0.0500 Uiso
N7 N 0.27061 0.28106 0.19467 0.0500 Uiso
N1 N 0.21746 0.59879 0.97780 0.0500 Uiso
N2 N 0.21894 0.77061 0.94467 0.0500 Uiso
C9 C 0.21955 0.51453 0.99181 0.0500 Uiso
H6 H 0.24284 0.47481 0.96506 0.0500 Uiso
C13 C 0.17617 0.75184 0.99276 0.0500 Uiso
C15 C 0.21927 0.85400 0.92544 0.0500 Uiso
H10 H 0.24715 0.86604 0.89066 0.0500 Uiso
C16 C 0.18077 0.92296 0.95444 0.0500 Uiso
C20 C 0.03064 0.29453 0.88624 0.0500 Uiso
C25 C 0.03258 0.35386 0.93208 0.0500 Uiso
H16 H 0.08252 0.35785 0.95566 0.0500 Uiso
O7 O 0.17448 0.23261 0.91040 0.0500 Uiso
O8 O 0.33884 0.21481 0.98274 0.0500 Uiso
O9 O 0.35801 0.15869 0.89389 0.0500 Uiso
O12 O 0.10907 0.18398 0.83191 0.0500 Uiso
C26 C 0.38295 0.18794 0.94249 0.0500 Uiso
C27 C 0.48173 0.18887 0.95579 0.0500 Uiso
C29 C 0.65683 0.18225 0.98433 0.0500 Uiso
C30 C 0.62944 0.15107 0.93158 0.0500 Uiso
H18 H 0.67004 0.12753 0.90554 0.0500 Uiso
C31 C 0.54240 0.15489 0.91749 0.0500 Uiso
H19 H 0.52371 0.13434 0.88157 0.0500 Uiso
C33 C 0.81662 0.13579 0.97407 0.0500 Uiso
H20 H 0.80241 0.10838 0.93950 0.0500 Uiso
C36 C 0.90347 0.13762 0.99424 0.0500 Uiso
H22 H 0.94792 0.11004 0.97354 0.0500 Uiso
C38 C 0.10854 0.23353 0.87572 0.0500 Uiso
Zn5 Zn 0.25964 0.65590 0.90000 0.0500 Uiso
N6 N 0.28254 0.09879 0.77220 0.0500 Uiso
N8 N 0.28106 0.27061 0.80533 0.0500 Uiso
C1_2 C 0.70547 0.96936 0.61376 0.0500 Uiso
C6_2 C 0.64614 0.96742 0.56792 0.0500 Uiso
H5_2 H 0.64215 0.91748 0.54434 0.0500 Uiso
Zn1 Zn 0.84410 0.75964 0.65000 0.0500 Uiso
N1_2 N 0.78254 0.40121 0.47780 0.0500 Uiso
N2_2 N 0.78106 0.22939 0.44467 0.0500 Uiso
O1_2 O 0.76739 0.82552 0.58960 0.0500 Uiso
O2_2 O 0.78519 0.66116 0.51726 0.0500 Uiso
O3_2 O 0.84131 0.64199 0.60611 0.0500 Uiso
O6_2 O 0.81602 0.89093 0.66809 0.0500 Uiso
C7_2 C 0.81206 0.61705 0.55751 0.0500 Uiso
C8_2 C 0.81113 0.51827 0.54421 0.0500 Uiso
C9_2 C 0.78045 0.48547 0.49181 0.0500 Uiso
H6_2 H 0.75716 0.52519 0.46506 0.0500 Uiso
C10_2 C 0.81775 0.34317 0.51567 0.0500 Uiso
C11_2 C 0.84893 0.37056 0.56842 0.0500 Uiso
H7_2 H 0.87247 0.32996 0.59446 0.0500 Uiso
C12_2 C 0.84511 0.45760 0.58251 0.0500 Uiso
H8_2 H 0.86566 0.47629 0.61843 0.0500 Uiso
C13_2 C 0.82383 0.24816 0.49276 0.0500 Uiso
C14_2 C 0.86421 0.18338 0.52593 0.0500 Uiso
H9_2 H 0.89162 0.19759 0.56050 0.0500 Uiso
C15_2 C 0.78073 0.14600 0.42544 0.0500 Uiso
H10_2 H 0.75285 0.13396 0.39066 0.0500 Uiso
C16_2 C 0.81923 0.07704 0.45444 0.0500 Uiso
C17_2 C 0.86238 0.09653 0.50576 0.0500 Uiso
H11_2 H 0.88996 0.05208 0.52646 0.0500 Uiso
C19_2 C 0.76647 0.89146 0.62428 0.0500 Uiso
Zn2 Zn 0.79069 0.79069 0.50000 0.0500 Uiso
C20_2 C 0.96936 0.70547 0.38624 0.0500 Uiso
C25_2 C 0.96742 0.64614 0.43208 0.0500 Uiso
H16_2 H 0.91748 0.64215 0.45566 0.0500 Uiso
Zn3 Zn 0.75964 0.84410 0.35000 0.0500 Uiso
N3_2 N 0.40121 0.78254 0.52220 0.0500 Uiso
N4_2 N 0.22939 0.78106 0.55533 0.0500 Uiso
O7_2 O 0.82552 0.76739 0.41040 0.0500 Uiso
O8_2 O 0.66116 0.78519 0.48274 0.0500 Uiso
O9_2 O 0.64199 0.84131 0.39389 0.0500 Uiso
O12_2 O 0.89093 0.81602 0.33191 0.0500 Uiso
C26_2 C 0.61705 0.81206 0.44249 0.0500 Uiso
C27_2 C 0.51827 0.81113 0.45579 0.0500 Uiso
C28_2 C 0.48547 0.78045 0.50819 0.0500 Uiso
H17_2 H 0.52519 0.75716 0.53494 0.0500 Uiso
C29_2 C 0.34317 0.81775 0.48433 0.0500 Uiso
C30_2 C 0.37056 0.84893 0.43158 0.0500 Uiso
H18_2 H 0.32996 0.87247 0.40554 0.0500 Uiso
C31_2 C 0.45760 0.84511 0.41749 0.0500 Uiso
H19_2 H 0.47629 0.86566 0.38157 0.0500 Uiso
C32_2 C 0.24816 0.82383 0.50724 0.0500 Uiso
C33_2 C 0.18338 0.86421 0.47407 0.0500 Uiso
H20_2 H 0.19759 0.89162 0.43950 0.0500 Uiso
C34_2 C 0.14600 0.78073 0.57456 0.0500 Uiso
H21_2 H 0.13396 0.75285 0.60934 0.0500 Uiso
C35_2 C 0.07704 0.81923 0.54556 0.0500 Uiso
C36_2 C 0.09653 0.86238 0.49424 0.0500 Uiso
H22_2 H 0.05208 0.88996 0.47354 0.0500 Uiso
C38_2 C 0.89146 0.76647 0.37572 0.0500 Uiso
Zn5_2 Zn 0.74036 0.34410 0.40000 0.0500 Uiso
Zn6_2 Zn 0.34410 0.74036 0.60000 0.0500 Uiso
N5_2 N 0.90121 0.71746 0.72780 0.0500 Uiso
N6_2 N 0.71746 0.90121 0.27220 0.0500 Uiso
N7_2 N 0.72939 0.71894 0.69467 0.0500 Uiso
N8_2 N 0.71894 0.72939 0.30533 0.0500 Uiso
O13 O 0.79866 0.92731 0.47500 0.0500 Uiso
O14 O 0.92731 0.79866 0.52500 0.0500 Uiso
O15 O 0.79726 0.96537 0.38243 0.0500 Uiso
O16 O 0.96537 0.79726 0.61757 0.0500 Uiso
C18_2 C 0.80371 0.98059 0.43441 0.0500 Uiso
C37_2 C 0.98059 0.80371 0.56559 0.0500 Uiso
O10_2 O 0.29866 0.57269 0.77500 0.0500 Uiso
O11_2 O 0.29726 0.53463 0.86757 0.0500 Uiso
C28_3 C 0.28045 0.01453 0.75819 0.0500 Uiso
C29_3 C 0.31775 0.15683 0.73433 0.0500 Uiso
C30_3 C 0.34893 0.12944 0.68158 0.0500 Uiso
H18_3 H 0.37247 0.17004 0.65554 0.0500 Uiso
C31_3 C 0.34511 0.04240 0.66749 0.0500 Uiso
H19_3 H 0.36566 0.02371 0.63157 0.0500 Uiso
C32_3 C 0.32383 0.25184 0.75724 0.0500 Uiso
C33_3 C 0.36421 0.31662 0.72407 0.0500 Uiso
H20_3 H 0.39162 0.30241 0.68950 0.0500 Uiso
C34_3 C 0.28073 0.35400 0.82456 0.0500 Uiso
H21_3 H 0.25285 0.36604 0.85934 0.0500 Uiso
C35_3 C 0.31923 0.42296 0.79556 0.0500 Uiso
C36_3 C 0.36238 0.40347 0.74424 0.0500 Uiso
H22_3 H 0.38996 0.44792 0.72354 0.0500 Uiso
C37_3 C 0.30371 0.51941 0.81559 0.0500 Uiso
Zn9_3 Zn 0.29069 0.70931 0.75000 0.0500 Uiso
C1_3 C 0.46936 0.79453 0.86376 0.0500 Uiso
C2 C 0.54409 0.78844 0.89897 0.0500 Uiso
H1 H 0.54540 0.74875 0.92967 0.0500 Uiso
C3 C 0.61670 0.84180 0.88832 0.0500 Uiso
H2 H 0.66665 0.83772 0.91190 0.0500 Uiso
C4 C 0.61476 0.90114 0.84248 0.0500 Uiso
H3 H 0.66331 0.93685 0.83535 0.0500 Uiso
C5 C 0.54003 0.90722 0.80728 0.0500 Uiso
H4 H 0.53872 0.94692 0.77657 0.0500 Uiso
C6_3 C 0.46742 0.85386 0.81792 0.0500 Uiso
H5_3 H 0.41748 0.85785 0.79434 0.0500 Uiso
O1_3 O 0.32552 0.73261 0.83960 0.0500 Uiso
O2_3 O 0.16116 0.71481 0.76726 0.0500 Uiso
O3_3 O 0.14199 0.65869 0.85611 0.0500 Uiso
O6_3 O 0.39093 0.68398 0.91809 0.0500 Uiso
C7_3 C 0.11705 0.68794 0.80751 0.0500 Uiso
C8_3 C 0.01827 0.68887 0.79421 0.0500 Uiso
H6_3 H 0.02519 0.74284 0.71506 0.0500 Uiso
C19_3 C 0.39146 0.73353 0.87428 0.0500 Uiso
C20_3 C 0.20547 0.53064 0.63624 0.0500 Uiso
C21 C 0.21156 0.45591 0.60103 0.0500 Uiso
H12 H 0.25125 0.45460 0.57033 0.0500 Uiso
C22 C 0.15820 0.38330 0.61168 0.0500 Uiso
H13 H 0.16228 0.33335 0.58810 0.0500 Uiso
C23 C 0.09886 0.38524 0.65752 0.0500 Uiso
H14 H 0.06315 0.33669 0.66465 0.0500 Uiso
C24 C 0.09278 0.45997 0.69272 0.0500 Uiso
H15 H 0.05308 0.46128 0.72343 0.0500 Uiso
C25_3 C 0.14614 0.53258 0.68208 0.0500 Uiso
H16_3 H 0.14215 0.58252 0.70566 0.0500 Uiso
O7_3 O 0.26739 0.67448 0.66040 0.0500 Uiso
O8_3 O 0.28519 0.83884 0.73274 0.0500 Uiso
O9_3 O 0.34131 0.85801 0.64389 0.0500 Uiso
O12_3 O 0.31602 0.60907 0.58191 0.0500 Uiso
C26_3 C 0.31206 0.88295 0.69249 0.0500 Uiso
C27_3 C 0.31113 0.98173 0.70579 0.0500 Uiso
H17_3 H 0.25716 0.97481 0.78494 0.0500 Uiso
C38_3 C 0.26647 0.60854 0.62572 0.0500 Uiso
O13_2 O 0.42731 0.70134 0.72500 0.0500 Uiso
O15_2 O 0.46537 0.70274 0.63243 0.0500 Uiso
C9_3 C 0.98547 0.71955 0.74181 0.0500 Uiso
C10_3 C 0.84317 0.68225 0.76567 0.0500 Uiso
C11_3 C 0.87056 0.65107 0.81842 0.0500 Uiso
H7_3 H 0.82996 0.62753 0.84446 0.0500 Uiso
C12_3 C 0.95760 0.65489 0.83251 0.0500 Uiso
H8_3 H 0.97629 0.63434 0.86843 0.0500 Uiso
C13_3 C 0.74816 0.67617 0.74276 0.0500 Uiso
C14_3 C 0.68338 0.63579 0.77593 0.0500 Uiso
H9_3 H 0.69759 0.60838 0.81050 0.0500 Uiso
C15_3 C 0.64600 0.71927 0.67544 0.0500 Uiso
H10_3 H 0.63396 0.74715 0.64066 0.0500 Uiso
C16_3 C 0.57704 0.68077 0.70444 0.0500 Uiso
C17_3 C 0.59653 0.63762 0.75576 0.0500 Uiso
H11_3 H 0.55208 0.61004 0.77646 0.0500 Uiso
C18_3 C 0.48059 0.69629 0.68441 0.0500 Uiso
O4_2 O 0.57269 0.29866 0.22500 0.0500 Uiso
O5_2 O 0.53463 0.29726 0.13243 0.0500 Uiso
C9_4 C 0.01453 0.28045 0.24181 0.0500 Uiso
C10_4 C 0.15683 0.31775 0.26567 0.0500 Uiso
C11_4 C 0.12944 0.34893 0.31842 0.0500 Uiso
H7_4 H 0.17004 0.37247 0.34446 0.0500 Uiso
C12_4 C 0.04240 0.34511 0.33251 0.0500 Uiso
H8_4 H 0.02371 0.36566 0.36843 0.0500 Uiso
C13_4 C 0.25184 0.32383 0.24276 0.0500 Uiso
C14_4 C 0.31662 0.36421 0.27593 0.0500 Uiso
H9_4 H 0.30241 0.39162 0.31050 0.0500 Uiso
C15_4 C 0.35400 0.28073 0.17544 0.0500 Uiso
H10_4 H 0.36604 0.25285 0.14066 0.0500 Uiso
C16_4 C 0.42296 0.31923 0.20444 0.0500 Uiso
C17_4 C 0.40347 0.36238 0.25576 0.0500 Uiso
H11_4 H 0.44792 0.38996 0.27646 0.0500 Uiso
C18_4 C 0.51941 0.30371 0.18441 0.0500 Uiso
Zn8 Zn 0.70931 0.29069 0.25000 0.0500 Uiso
C1_4 C 0.53064 0.20547 0.36376 0.0500 Uiso
C2_2 C 0.45591 0.21156 0.39897 0.0500 Uiso
H1_2 H 0.45460 0.25125 0.42967 0.0500 Uiso
C3_2 C 0.38330 0.15820 0.38832 0.0500 Uiso
H2_2 H 0.33335 0.16228 0.41190 0.0500 Uiso
C4_2 C 0.38524 0.09886 0.34248 0.0500 Uiso
H3_2 H 0.33669 0.06315 0.33535 0.0500 Uiso
C5_2 C 0.45997 0.09278 0.30728 0.0500 Uiso
H4_2 H 0.46128 0.05308 0.27657 0.0500 Uiso
C6_4 C 0.53258 0.14614 0.31792 0.0500 Uiso
H5_4 H 0.58252 0.14215 0.29434 0.0500 Uiso
O1_4 O 0.67448 0.26739 0.33960 0.0500 Uiso
O2_4 O 0.83884 0.28519 0.26726 0.0500 Uiso
O3_4 O 0.85801 0.34131 0.35611 0.0500 Uiso
O6_4 O 0.60907 0.31602 0.41809 0.0500 Uiso
C7_4 C 0.88295 0.31206 0.30751 0.0500 Uiso
C8_4 C 0.98173 0.31113 0.29421 0.0500 Uiso
H6_4 H 0.97481 0.25716 0.21506 0.0500 Uiso
C19_4 C 0.60854 0.26647 0.37428 0.0500 Uiso
C20_4 C 0.79453 0.46936 0.13624 0.0500 Uiso
C21_2 C 0.78844 0.54409 0.10103 0.0500 Uiso
H12_2 H 0.74875 0.54540 0.07033 0.0500 Uiso
C22_2 C 0.84180 0.61670 0.11168 0.0500 Uiso
H13_2 H 0.83772 0.66665 0.08810 0.0500 Uiso
C23_2 C 0.90114 0.61476 0.15752 0.0500 Uiso
H14_2 H 0.93685 0.66331 0.16465 0.0500 Uiso
C24_2 C 0.90722 0.54003 0.19272 0.0500 Uiso
H15_2 H 0.94692 0.53872 0.22343 0.0500 Uiso
C25_4 C 0.85386 0.46742 0.18208 0.0500 Uiso
H16_4 H 0.85785 0.41748 0.20566 0.0500 Uiso
O7_4 O 0.73261 0.32552 0.16040 0.0500 Uiso
O8_4 O 0.71481 0.16116 0.23274 0.0500 Uiso
O9_4 O 0.65869 0.14199 0.14389 0.0500 Uiso
O12_4 O 0.68398 0.39093 0.08191 0.0500 Uiso
C26_4 C 0.68794 0.11705 0.19249 0.0500 Uiso
C27_4 C 0.68887 0.01827 0.20579 0.0500 Uiso
H17_4 H 0.74284 0.02519 0.28494 0.0500 Uiso
C38_4 C 0.73353 0.39146 0.12572 0.0500 Uiso
O14_2 O 0.70134 0.42731 0.27500 0.0500 Uiso
O16_2 O 0.70274 0.46537 0.36757 0.0500 Uiso
C28_4 C 0.71955 0.98547 0.25819 0.0500 Uiso
C29_4 C 0.68225 0.84317 0.23433 0.0500 Uiso
C30_4 C 0.65107 0.87056 0.18158 0.0500 Uiso
H18_4 H 0.62753 0.82996 0.15554 0.0500 Uiso
C31_4 C 0.65489 0.95760 0.16749 0.0500 Uiso
H19_4 H 0.63434 0.97629 0.13157 0.0500 Uiso
C32_4 C 0.67617 0.74816 0.25724 0.0500 Uiso
C33_4 C 0.63579 0.68338 0.22407 0.0500 Uiso
H20_4 H 0.60838 0.69759 0.18950 0.0500 Uiso
C34_4 C 0.71927 0.64600 0.32456 0.0500 Uiso
H21_4 H 0.74715 0.63396 0.35934 0.0500 Uiso
C35_4 C 0.68077 0.57704 0.29556 0.0500 Uiso
C36_4 C 0.63762 0.59653 0.24424 0.0500 Uiso
H22_4 H 0.61004 0.55208 0.22354 0.0500 Uiso
C37_4 C 0.69629 0.48059 0.31559 0.0500 Uiso
C2_3 C 0.28844 0.95591 0.14897 0.0500 Uiso
H1_3 H 0.24875 0.95460 0.17967 0.0500 Uiso
C3_3 C 0.34180 0.88330 0.13832 0.0500 Uiso
H2_3 H 0.33772 0.83335 0.16190 0.0500 Uiso
C4_3 C 0.40114 0.88524 0.09248 0.0500 Uiso
H3_3 H 0.43685 0.83669 0.08535 0.0500 Uiso
C5_3 C 0.40722 0.95997 0.05728 0.0500 Uiso
H4_3 H 0.44692 0.96128 0.02657 0.0500 Uiso
C21_3 C 0.95591 0.28844 0.85103 0.0500 Uiso
H12_3 H 0.95460 0.24875 0.82033 0.0500 Uiso
C22_3 C 0.88330 0.34180 0.86168 0.0500 Uiso
H13_3 H 0.83335 0.33772 0.83810 0.0500 Uiso
C23_3 C 0.88524 0.40114 0.90752 0.0500 Uiso
H14_3 H 0.83669 0.43685 0.91465 0.0500 Uiso
C24_3 C 0.95997 0.40722 0.94272 0.0500 Uiso
H15_3 H 0.96128 0.44692 0.97343 0.0500 Uiso
C21_4 C 0.04409 0.71156 0.35103 0.0500 Uiso
H12_4 H 0.04540 0.75125 0.32033 0.0500 Uiso
C22_4 C 0.11670 0.65820 0.36168 0.0500 Uiso
H13_4 H 0.16665 0.66228 0.33810 0.0500 Uiso
C23_4 C 0.11476 0.59886 0.40752 0.0500 Uiso
H14_4 H 0.16331 0.56315 0.41465 0.0500 Uiso
C24_4 C 0.04003 0.59278 0.44272 0.0500 Uiso
H15_4 H 0.03872 0.55308 0.47343 0.0500 Uiso
C2_4 C 0.71156 0.04409 0.64897 0.0500 Uiso
H1_4 H 0.75125 0.04540 0.67967 0.0500 Uiso
C3_4 C 0.65820 0.11670 0.63832 0.0500 Uiso
H2_4 H 0.66228 0.16665 0.66190 0.0500 Uiso
C4_4 C 0.59886 0.11476 0.59248 0.0500 Uiso
H3_4 H 0.56315 0.16331 0.58535 0.0500 Uiso
C5_4 C 0.59278 0.04003 0.55728 0.0500 Uiso
H4_4 H 0.55308 0.03872 0.52657 0.0500 Uiso
loop_
_geom_bond_atom_site_label_1
_geom_bond_atom_site_label_2
_geom_bond_site_symmetry_1
_geom_bond_site_symmetry_2
O10 C37 1_555 1_555
O11 C37 1_555 1_555
Zn4 O11 1_555 1_555
Zn9 O10 1_555 1_555
O4 C18 1_555 1_555
O5 C18 1_555 1_555
Zn7 O5 1_555 1_555
Zn9_2 O4 1_555 1_555
C6 C1 1_555 1_555
H5 C6 1_555 1_555
Zn4 O1 1_555 1_555
O1 C19 1_555 1_555
O2 C7 1_555 1_555
O3 Zn4 1_555 1_555
O6 Zn4 1_555 1_555
C7 O3 1_555 1_555
C8 C7 1_555 1_555
C11 C10 1_555 1_555
H7 C11 1_555 1_555
C12 C8 1_555 1_555
H8 C12 1_555 1_555
H9 C14 1_555 1_555
C17 C14 1_555 1_555
H11 C17 1_555 1_555
C19 C1 1_555 1_555
Zn9 O1 1_555 1_555
N3 C28 1_555 1_555
N4 C32 1_555 1_555
H17 C28 1_555 1_555
C34 N4 1_555 1_555
H21 C34 1_555 1_555
C35 C34 1_555 1_555
Zn6 N3 1_555 1_555
N5 Zn4 1_555 1_555
N7 Zn4 1_555 1_555
O2 Zn9 1_555 1_555
O6 C19 1_555 1_555
C11 C12 1_555 1_555
N4 Zn6 1_555 1_555
N1 C9 1_555 1_555
N2 C13 1_555 1_555
H6 C9 1_555 1_555
C15 N2 1_555 1_555
H10 C15 1_555 1_555
C16 C15 1_555 1_555
C25 C20 1_555 1_555
H16 C25 1_555 1_555
Zn7 O7 1_555 1_555
O7 Zn9_2 1_555 1_555
O8 Zn9_2 1_555 1_555
O9 Zn7 1_555 1_555
O12 Zn7 1_555 1_555
C26 O8 1_555 1_555
C27 C26 1_555 1_555
C30 C29 1_555 1_555
H18 C30 1_555 1_555
C31 C27 1_555 1_555
H19 C31 1_555 1_555
H20 C33 1_555 1_555
C36 C33 1_555 1_555
H22 C36 1_555 1_555
C38 C20 1_555 1_555
Zn5 N1 1_555 1_555
N6 Zn7 1_555 1_555
N8 Zn7 1_555 1_555
N2 Zn5 1_555 1_555
O7 C38 1_555 1_555
O9 C26 1_555 1_555
O12 C38 1_555 1_555
C30 C31 1_555 1_555
C6_2 C1_2 1_555 1_555
H5_2 C6_2 1_555 1_555
Zn1 O1_2 1_555 1_555
N1_2 C9_2 1_555 1_555
N2_2 C13_2 1_555 1_555
O1_2 C19_2 1_555 1_555
O2_2 C7_2 1_555 1_555
O3_2 Zn1 1_555 1_555
O6_2 Zn1 1_555 1_555
C7_2 O3_2 1_555 1_555
C8_2 C7_2 1_555 1_555
C9_2 C8_2 1_555 1_555
H6_2 C9_2 1_555 1_555
C10_2 N1_2 1_555 1_555
C11_2 C10_2 1_555 1_555
H7_2 C11_2 1_555 1_555
C12_2 C8_2 1_555 1_555
H8_2 C12_2 1_555 1_555
C13_2 C10_2 1_555 1_555
C14_2 C13_2 1_555 1_555
H9_2 C14_2 1_555 1_555
C15_2 N2_2 1_555 1_555
H10_2 C15_2 1_555 1_555
C16_2 C15_2 1_555 1_555
C17_2 C14_2 1_555 1_555
H11_2 C17_2 1_555 1_555
C19_2 C1_2 1_555 1_555
Zn2 O1_2 1_555 1_555
C25_2 C20_2 1_555 1_555
H16_2 C25_2 1_555 1_555
Zn3 O7_2 1_555 1_555
N3_2 C28_2 1_555 1_555
N4_2 C32_2 1_555 1_555
O7_2 Zn2 1_555 1_555
O8_2 Zn2 1_555 1_555
O9_2 Zn3 1_555 1_555
O12_2 Zn3 1_555 1_555
C26_2 O8_2 1_555 1_555
C27_2 C26_2 1_555 1_555
C28_2 C27_2 1_555 1_555
H17_2 C28_2 1_555 1_555
C29_2 N3_2 1_555 1_555
C30_2 C29_2 1_555 1_555
H18_2 C30_2 1_555 1_555
C31_2 C27_2 1_555 1_555
H19_2 C31_2 1_555 1_555
C32_2 C29_2 1_555 1_555
C33_2 C32_2 1_555 1_555
H20_2 C33_2 1_555 1_555
C34_2 N4_2 1_555 1_555
H21_2 C34_2 1_555 1_555
C35_2 C34_2 1_555 1_555
C36_2 C33_2 1_555 1_555
H22_2 C36_2 1_555 1_555
C38_2 C20_2 1_555 1_555
Zn5_2 N1_2 1_555 1_555
Zn6_2 N3_2 1_555 1_555
N5_2 Zn1 1_555 1_555
N6_2 Zn3 1_555 1_555
N7_2 Zn1 1_555 1_555
N8_2 Zn3 1_555 1_555
O13 Zn2 1_555 1_555
O14 Zn2 1_555 1_555
O15 Zn3 1_555 1_555
O16 Zn1 1_555 1_555
N2_2 Zn5_2 1_555 1_555
O2_2 Zn2 1_555 1_555
O6_2 C19_2 1_555 1_555
C11_2 C12_2 1_555 1_555
C16_2 C17_2 1_555 1_555
N4_2 Zn6_2 1_555 1_555
O7_2 C38_2 1_555 1_555
O9_2 C26_2 1_555 1_555
O12_2 C38_2 1_555 1_555
C30_2 C31_2 1_555 1_555
C35_2 C36_2 1_555 1_555
O13 C18_2 1_555 1_555
O15 C18_2 1_555 1_555
O14 C37_2 1_555 1_555
O16 C37_2 1_555 1_555
N6 C28_3 1_555 1_555
N8 C32_3 1_555 1_555
O10_2 C37_3 1_555 1_555
O11_2 C37_3 1_555 1_555
C29_3 N6 1_555 1_555
C30_3 C29_3 1_555 1_555
H18_3 C30_3 1_555 1_555
H19_3 C31_3 1_555 1_555
C32_3 C29_3 1_555 1_555
C33_3 C32_3 1_555 1_555
H20_3 C33_3 1_555 1_555
C34_3 N8 1_555 1_555
H21_3 C34_3 1_555 1_555
C35_3 C34_3 1_555 1_555
C36_3 C33_3 1_555 1_555
H22_3 C36_3 1_555 1_555
C37_3 C35_3 1_555 1_555
Zn5 O11_2 1_555 1_555
Zn9_3 O10_2 1_555 1_555
C30_3 C31_3 1_555 1_555
C35_3 C36_3 1_555 1_555
C1_3 C2 1_555 1_555
C2 H1 1_555 1_555
C3 C2 1_555 1_555
H2 C3 1_555 1_555
C4 C3 1_555 1_555
H3 C4 1_555 1_555
C5 C4 1_555 1_555
H4 C5 1_555 1_555
C6_3 C1_3 1_555 1_555
H5_3 C6_3 1_555 1_555
Zn5 O1_3 1_555 1_555
O1_3 C19_3 1_555 1_555
O2_3 C7_3 1_555 1_555
O3_3 Zn5 1_555 1_555
O6_3 Zn5 1_555 1_555
C7_3 O3_3 1_555 1_555
C8_3 C7_3 1_555 1_555
C19_3 C1_3 1_555 1_555
Zn9_3 O1_3 1_555 1_555
C20_3 C21 1_555 1_555
C21 H12 1_555 1_555
C22 C21 1_555 1_555
H13 C22 1_555 1_555
C23 C22 1_555 1_555
H14 C23 1_555 1_555
C24 C23 1_555 1_555
H15 C24 1_555 1_555
C25_3 C20_3 1_555 1_555
H16_3 C25_3 1_555 1_555
Zn6_2 O7_3 1_555 1_555
O7_3 Zn9_3 1_555 1_555
O8_3 Zn9_3 1_555 1_555
O9_3 Zn6_2 1_555 1_555
O12_3 Zn6_2 1_555 1_555
C26_3 O8_3 1_555 1_555
C27_3 C26_3 1_555 1_555
C38_3 C20_3 1_555 1_555
O13_2 Zn9_3 1_555 1_555
O15_2 Zn6_2 1_555 1_555
C5 C6_3 1_555 1_555
O2_3 Zn9_3 1_555 1_555
O6_3 C19_3 1_555 1_555
C24 C25_3 1_555 1_555
O7_3 C38_3 1_555 1_555
O9_3 C26_3 1_555 1_555
O12_3 C38_3 1_555 1_555
N5_2 C9_3 1_555 1_555
N7_2 C13_3 1_555 1_555
O13_2 C18_3 1_555 1_555
O15_2 C18_3 1_555 1_555
C10_3 N5_2 1_555 1_555
C11_3 C10_3 1_555 1_555
H7_3 C11_3 1_555 1_555
H8_3 C12_3 1_555 1_555
C13_3 C10_3 1_555 1_555
C14_3 C13_3 1_555 1_555
H9_3 C14_3 1_555 1_555
C15_3 N7_2 1_555 1_555
H10_3 C15_3 1_555 1_555
C16_3 C15_3 1_555 1_555
C17_3 C14_3 1_555 1_555
H11_3 C17_3 1_555 1_555
C18_3 C16_3 1_555 1_555
C11_3 C12_3 1_555 1_555
C16_3 C17_3 1_555 1_555
N5 C9_4 1_555 1_555
N7 C13_4 1_555 1_555
O4_2 C18_4 1_555 1_555
O5_2 C18_4 1_555 1_555
C10_4 N5 1_555 1_555
C11_4 C10_4 1_555 1_555
H7_4 C11_4 1_555 1_555
H8_4 C12_4 1_555 1_555
C13_4 C10_4 1_555 1_555
C14_4 C13_4 1_555 1_555
H9_4 C14_4 1_555 1_555
C15_4 N7 1_555 1_555
H10_4 C15_4 1_555 1_555
C16_4 C15_4 1_555 1_555
C17_4 C14_4 1_555 1_555
H11_4 C17_4 1_555 1_555
C18_4 C16_4 1_555 1_555
Zn6 O5_2 1_555 1_555
Zn8 O4_2 1_555 1_555
C11_4 C12_4 1_555 1_555
C16_4 C17_4 1_555 1_555
C1_4 C2_2 1_555 1_555
C2_2 H1_2 1_555 1_555
C3_2 C2_2 1_555 1_555
H2_2 C3_2 1_555 1_555
C4_2 C3_2 1_555 1_555
H3_2 C4_2 1_555 1_555
C5_2 C4_2 1_555 1_555
H4_2 C5_2 1_555 1_555
C6_4 C1_4 1_555 1_555
H5_4 C6_4 1_555 1_555
Zn5_2 O1_4 1_555 1_555
O1_4 C19_4 1_555 1_555
O2_4 C7_4 1_555 1_555
O3_4 Zn5_2 1_555 1_555
O6_4 Zn5_2 1_555 1_555
C7_4 O3_4 1_555 1_555
C8_4 C7_4 1_555 1_555
C19_4 C1_4 1_555 1_555
Zn8 O1_4 1_555 1_555
C20_4 C21_2 1_555 1_555
C21_2 H12_2 1_555 1_555
C22_2 C21_2 1_555 1_555
H13_2 C22_2 1_555 1_555
C23_2 C22_2 1_555 1_555
H14_2 C23_2 1_555 1_555
C24_2 C23_2 1_555 1_555
H15_2 C24_2 1_555 1_555
C25_4 C20_4 1_555 1_555
H16_4 C25_4 1_555 1_555
Zn6 O7_4 1_555 1_555
O7_4 Zn8 1_555 1_555
O8_4 Zn8 1_555 1_555
O9_4 Zn6 1_555 1_555
O12_4 Zn6 1_555 1_555
C26_4 O8_4 1_555 1_555
C27_4 C26_4 1_555 1_555
C38_4 C20_4 1_555 1_555
O14_2 Zn8 1_555 1_555
O16_2 Zn5_2 1_555 1_555
C5_2 C6_4 1_555 1_555
O2_4 Zn8 1_555 1_555
O6_4 C19_4 1_555 1_555
C24_2 C25_4 1_555 1_555
O7_4 C38_4 1_555 1_555
O9_4 C26_4 1_555 1_555
O12_4 C38_4 1_555 1_555
N6_2 C28_4 1_555 1_555
N8_2 C32_4 1_555 1_555
O14_2 C37_4 1_555 1_555
O16_2 C37_4 1_555 1_555
C29_4 N6_2 1_555 1_555
C30_4 C29_4 1_555 1_555
H18_4 C30_4 1_555 1_555
H19_4 C31_4 1_555 1_555
C32_4 C29_4 1_555 1_555
C33_4 C32_4 1_555 1_555
H20_4 C33_4 1_555 1_555
C34_4 N8_2 1_555 1_555
H21_4 C34_4 1_555 1_555
C35_4 C34_4 1_555 1_555
C36_4 C33_4 1_555 1_555
H22_4 C36_4 1_555 1_555
C37_4 C35_4 1_555 1_555
C30_4 C31_4 1_555 1_555
C35_4 C36_4 1_555 1_555
C2_3 H1_3 1_555 1_555
C3_3 C2_3 1_555 1_555
H2_3 C3_3 1_555 1_555
C4_3 C3_3 1_555 1_555
H3_3 C4_3 1_555 1_555
C5_3 C4_3 1_555 1_555
H4_3 C5_3 1_555 1_555
C21_3 H12_3 1_555 1_555
C22_3 C21_3 1_555 1_555
H13_3 C22_3 1_555 1_555
C23_3 C22_3 1_555 1_555
H14_3 C23_3 1_555 1_555
C24_3 C23_3 1_555 1_555
H15_3 C24_3 1_555 1_555
C21_4 H12_4 1_555 1_555
C22_4 C21_4 1_555 1_555
H13_4 C22_4 1_555 1_555
C23_4 C22_4 1_555 1_555
H14_4 C23_4 1_555 1_555
C24_4 C23_4 1_555 1_555
H15_4 C24_4 1_555 1_555
C2_4 H1_4 1_555 1_555
C3_4 C2_4 1_555 1_555
H2_4 C3_4 1_555 1_555
C4_4 C3_4 1_555 1_555
H3_4 C4_4 1_555 1_555
C5_4 C4_4 1_555 1_555
H4_4 C5_4 1_555 1_555

#END
