
###############################################################################
#
# This file contains modified crystal structure data generated from the
# MOF subset of the Cambridge Structural Database (CSD) v543 
# hosted by the Cambridge Crystallographic Data Centre (CCDC).
#
# This work is licensed under the Creative Commons
# Attribution-NonCommercial-ShareAlike 4.0 International License.
# To view a copy of this license, visit
# http://creativecommons.org/licenses/by-nc-sa/4.0/
# or send a letter to
# Creative Commons, PO Box 1866, Mountain View, CA 94042, USA.
#
# CIF created using the CSD Python API on 29 September 2022
# The structure has been converted into the P1 space group
# The structure has a 3D framework
# The original CSD entry LACJOR is in the orthorhombic crystal system
# The original CSD entry LACJOR is in a Sohncke space group
# The framework has been calculated to contain at least 10.0% void space
# The void calculation uses a probe of radius 1.32A, grid spacing 0.4
#
###############################################################################

data_LACJOR
_chemical_formula_moiety         '(C336 H208 N32 O96 Zn28)n'
_symmetry_cell_setting           triclinic
_symmetry_space_group_name_H-M   'P 1'
_symmetry_Int_Tables_number      1
_space_group_name_Hall           'P 1'
loop_
_symmetry_equiv_pos_site_id
_symmetry_equiv_pos_as_xyz
1 x,y,z
_cell_length_a                   17.3128
_cell_length_b                   24.5942
_cell_length_c                   22.1389
_cell_angle_alpha                90
_cell_angle_beta                 90
_cell_angle_gamma                90
_cell_volume                     9426.62
loop_
_atom_site_label
_atom_site_type_symbol
_atom_site_fract_x
_atom_site_fract_y
_atom_site_fract_z
_atom_site_U_iso_or_equiv
_atom_site_thermal_displace_type
Zn17 Zn 0.17101 -0.00000 0.50000 0.0500 Uiso
H7 H 0.14253 0.61184 0.05699 0.0500 Uiso
C14 C 0.13793 0.64249 0.02323 0.0500 Uiso
C20 C 0.06218 0.78165 0.01250 0.0500 Uiso
N3 N 0.10473 0.69203 0.03630 0.0500 Uiso
N4 N 0.03849 0.78347 0.07071 0.0500 Uiso
Zn4 Zn 0.32899 0.50000 -0.00000 0.0500 Uiso
Zn10 Zn 0.07482 0.71923 0.11529 0.0500 Uiso
O29 O 0.25032 0.44507 0.00474 0.0500 Uiso
O32 O 0.40087 0.44678 0.02301 0.0500 Uiso
O34 O 0.33195 0.51796 0.08901 0.0500 Uiso
H1 H 0.06127 0.43973 0.72092 0.0500 Uiso
H2 H 0.12274 0.52106 0.68825 0.0500 Uiso
H3 H 0.22944 0.42254 0.86197 0.0500 Uiso
H4 H 0.19666 0.58403 0.65453 0.0500 Uiso
H5 H 0.26153 0.66886 0.63812 0.0500 Uiso
H6 H 0.37845 0.65075 0.80879 0.0500 Uiso
C1 C 0.10960 0.36578 0.80289 0.0500 Uiso
C2 C 0.14557 0.41940 0.78943 0.0500 Uiso
C3 C 0.11428 0.45093 0.74290 0.0500 Uiso
C4 C 0.14892 0.49867 0.72485 0.0500 Uiso
C5 C 0.21272 0.51811 0.75677 0.0500 Uiso
C6 C 0.20733 0.44259 0.82290 0.0500 Uiso
C7 C 0.25162 0.56840 0.74130 0.0500 Uiso
C8 C 0.23598 0.59824 0.68893 0.0500 Uiso
C9 C 0.27313 0.64716 0.67971 0.0500 Uiso
C10 C 0.32558 0.66718 0.72241 0.0500 Uiso
C11 C 0.34016 0.63550 0.77438 0.0500 Uiso
C12 C 0.37097 0.71720 0.70818 0.0500 Uiso
N1 N 0.23763 0.49226 0.80715 0.0500 Uiso
N2 N 0.30519 0.58570 0.78149 0.0500 Uiso
O1 O 0.06799 0.34387 0.76229 0.0500 Uiso
O2 O 0.11620 0.34327 0.85415 0.0500 Uiso
O3 O 0.36103 0.73841 0.65637 0.0500 Uiso
O4 O 0.42213 0.73516 0.74505 0.0500 Uiso
Zn1 Zn 0.30422 0.54135 0.85720 0.0500 Uiso
Zn2 Zn 0.07482 0.28077 0.88471 0.0500 Uiso
Zn3 Zn 0.00000 0.28875 0.75000 0.0500 Uiso
H8 H 0.16954 0.66202 0.87350 0.0500 Uiso
H9 H 0.10138 0.74582 0.89723 0.0500 Uiso
H11 H 0.08514 0.82989 0.93286 0.0500 Uiso
H12 H 0.02381 0.91109 0.97168 0.0500 Uiso
C13 C 0.21963 0.58426 0.95335 0.0500 Uiso
C15 C 0.16751 0.63120 0.96545 0.0500 Uiso
C16 C 0.15160 0.66918 0.91966 0.0500 Uiso
C17 C 0.11508 0.71809 0.93315 0.0500 Uiso
C18 C 0.09714 0.73051 0.99308 0.0500 Uiso
C21 C 0.05991 0.82866 0.97717 0.0500 Uiso
C22 C 0.02403 0.87501 0.99935 0.0500 Uiso
O5 O 0.25032 0.55493 0.99526 0.0500 Uiso
O6 O 0.23774 0.57788 0.89823 0.0500 Uiso
Zn4_2 Zn 0.32899 0.50000 1.00000 0.0500 Uiso
H13 H 0.45456 0.29965 0.83273 0.0500 Uiso
H14 H 0.48006 0.20130 0.82919 0.0500 Uiso
H15 H 0.42381 0.14017 0.90640 0.0500 Uiso
H16 H 0.34076 0.17787 0.98734 0.0500 Uiso
H17 H 0.31585 0.27639 0.99270 0.0500 Uiso
H18 H 0.31273 0.36776 0.93818 0.0500 Uiso
H19 H 0.46575 0.38266 0.87341 0.0500 Uiso
C25 C 0.43083 0.27391 0.86760 0.0500 Uiso
C26 C 0.44483 0.21797 0.86505 0.0500 Uiso
C27 C 0.41290 0.18345 0.90846 0.0500 Uiso
C28 C 0.36613 0.20470 0.95410 0.0500 Uiso
C29 C 0.35201 0.26058 0.95684 0.0500 Uiso
C30 C 0.38504 0.29584 0.91409 0.0500 Uiso
C31 C 0.36482 0.35583 0.91600 0.0500 Uiso
C32 C 0.40996 0.39397 0.89147 0.0500 Uiso
C33 C 0.39037 0.45260 0.88108 0.0500 Uiso
O9 O 0.42563 0.47425 0.84004 0.0500 Uiso
O10 O 0.33195 0.48204 0.91099 0.0500 Uiso
H36 H 0.02547 0.82631 0.36260 0.0500 Uiso
C61 C 0.00255 0.82755 0.40786 0.0500 Uiso
C65 C 0.01538 0.87385 0.44550 0.0500 Uiso
C66 C 0.07461 0.91814 0.43236 0.0500 Uiso
O19 O 0.10379 0.92428 0.38002 0.0500 Uiso
O20 O 0.09913 0.94678 0.47699 0.0500 Uiso
H46 H 0.16387 0.31676 0.68362 0.0500 Uiso
H47 H 0.16144 0.39471 0.57704 0.0500 Uiso
H48 H 0.29725 0.31416 0.67651 0.0500 Uiso
H49 H 0.41582 0.35071 0.72261 0.0500 Uiso
H50 H 0.45178 0.44715 0.70681 0.0500 Uiso
H51 H 0.36264 0.50951 0.65440 0.0500 Uiso
H52 H 0.24342 0.47530 0.60984 0.0500 Uiso
C76 C 0.06271 0.32483 0.62482 0.0500 Uiso
C77 C 0.14286 0.33609 0.64299 0.0500 Uiso
C78 C 0.18646 0.37231 0.61385 0.0500 Uiso
C79 C 0.26212 0.39094 0.63719 0.0500 Uiso
C80 C 0.31062 0.35688 0.67120 0.0500 Uiso
C81 C 0.37773 0.37746 0.69773 0.0500 Uiso
C82 C 0.39745 0.43202 0.68994 0.0500 Uiso
C83 C 0.34787 0.46696 0.65915 0.0500 Uiso
C84 C 0.28043 0.44677 0.63295 0.0500 Uiso
O23 O 0.01495 0.29099 0.65922 0.0500 Uiso
O24 O 0.03812 0.34361 0.57777 0.0500 Uiso
O26 O 0.13897 0.23841 0.84363 0.0500 Uiso
O28 O 0.07787 0.23516 0.75495 0.0500 Uiso
Zn7 Zn 0.19578 0.95865 0.35720 0.0500 Uiso
Zn12 Zn 0.42518 0.78077 0.61529 0.0500 Uiso
Zn14 Zn 0.50000 0.78875 0.75000 0.0500 Uiso
N10 N 0.10473 0.30797 0.96370 0.0500 Uiso
N12 N 0.03849 0.21653 0.92929 0.0500 Uiso
O31 O 0.39621 0.57572 0.88002 0.0500 Uiso
O33 O 0.40087 0.55322 0.97699 0.0500 Uiso
Zn17_2 Zn 0.17101 1.00000 0.50000 0.0500 Uiso
Zn16 Zn 0.82899 -0.00000 -0.00000 0.0500 Uiso
Zn16_2 Zn 0.82899 -0.00000 1.00000 0.0500 Uiso
H10 H 0.97453 0.82631 0.13740 0.0500 Uiso
C19 C 0.99745 0.82755 0.09214 0.0500 Uiso
C23 C 0.98462 0.87385 0.05450 0.0500 Uiso
C24 C 0.92539 0.91814 0.06764 0.0500 Uiso
O7 O 0.89621 0.92428 0.11998 0.0500 Uiso
O8 O 0.90087 0.94678 0.02301 0.0500 Uiso
Zn8 Zn 0.80422 0.95865 0.14280 0.0500 Uiso
Zn16_3 Zn 0.82899 1.00000 -0.00000 0.0500 Uiso
Zn3_2 Zn 1.00000 0.28875 0.75000 0.0500 Uiso
H20 H 0.83613 0.31676 0.81638 0.0500 Uiso
H21 H 0.83856 0.39471 0.92296 0.0500 Uiso
H22 H 0.70275 0.31416 0.82349 0.0500 Uiso
H23 H 0.58418 0.35071 0.77739 0.0500 Uiso
H24 H 0.54822 0.44715 0.79319 0.0500 Uiso
H25 H 0.63736 0.50951 0.84560 0.0500 Uiso
H26 H 0.75658 0.47530 0.89016 0.0500 Uiso
C34 C 0.93729 0.32483 0.87518 0.0500 Uiso
C35 C 0.85714 0.33609 0.85701 0.0500 Uiso
C36 C 0.81354 0.37231 0.88615 0.0500 Uiso
C37 C 0.73788 0.39094 0.86281 0.0500 Uiso
C38 C 0.68938 0.35688 0.82880 0.0500 Uiso
C39 C 0.62227 0.37746 0.80227 0.0500 Uiso
C40 C 0.60255 0.43202 0.81006 0.0500 Uiso
C41 C 0.65213 0.46696 0.84085 0.0500 Uiso
C42 C 0.71957 0.44677 0.86705 0.0500 Uiso
O11 O 0.98505 0.29099 0.84078 0.0500 Uiso
O12 O 0.96188 0.34361 0.92223 0.0500 Uiso
H27 H 0.93873 0.43973 0.77908 0.0500 Uiso
H28 H 0.87726 0.52106 0.81175 0.0500 Uiso
H29 H 0.77056 0.42254 0.63803 0.0500 Uiso
H30 H 0.80334 0.58403 0.84547 0.0500 Uiso
H31 H 0.73847 0.66886 0.86188 0.0500 Uiso
H32 H 0.62155 0.65075 0.69121 0.0500 Uiso
C43 C 0.89040 0.36578 0.69711 0.0500 Uiso
C44 C 0.85443 0.41940 0.71057 0.0500 Uiso
C45 C 0.88572 0.45093 0.75710 0.0500 Uiso
C46 C 0.85108 0.49867 0.77515 0.0500 Uiso
C47 C 0.78728 0.51811 0.74323 0.0500 Uiso
C48 C 0.79267 0.44259 0.67710 0.0500 Uiso
C49 C 0.74838 0.56840 0.75870 0.0500 Uiso
C50 C 0.76402 0.59824 0.81107 0.0500 Uiso
C51 C 0.72687 0.64716 0.82029 0.0500 Uiso
C52 C 0.67442 0.66718 0.77759 0.0500 Uiso
C53 C 0.65984 0.63550 0.72562 0.0500 Uiso
C54 C 0.62903 0.71720 0.79182 0.0500 Uiso
N5 N 0.76237 0.49226 0.69285 0.0500 Uiso
N6 N 0.69481 0.58570 0.71851 0.0500 Uiso
O13 O 0.93201 0.34387 0.73771 0.0500 Uiso
O14 O 0.88380 0.34327 0.64585 0.0500 Uiso
O15 O 0.63897 0.73841 0.84363 0.0500 Uiso
O16 O 0.57787 0.73516 0.75495 0.0500 Uiso
Zn5 Zn 0.69578 0.54135 0.64280 0.0500 Uiso
Zn6 Zn 0.92518 0.28077 0.61529 0.0500 Uiso
H33 H 0.85747 0.61184 0.44301 0.0500 Uiso
H34 H 0.83046 0.66202 0.62650 0.0500 Uiso
H35 H 0.89862 0.74582 0.60277 0.0500 Uiso
H37 H 0.91486 0.82989 0.56714 0.0500 Uiso
H38 H 0.97619 0.91109 0.52832 0.0500 Uiso
C55 C 0.78037 0.58426 0.54665 0.0500 Uiso
C56 C 0.86207 0.64249 0.47677 0.0500 Uiso
C57 C 0.83249 0.63120 0.53455 0.0500 Uiso
C58 C 0.84840 0.66918 0.58034 0.0500 Uiso
C59 C 0.88492 0.71809 0.56685 0.0500 Uiso
C60 C 0.90286 0.73051 0.50692 0.0500 Uiso
C62 C 0.93782 0.78165 0.48750 0.0500 Uiso
C63 C 0.94009 0.82866 0.52283 0.0500 Uiso
C64 C 0.97597 0.87501 0.50065 0.0500 Uiso
N7 N 0.89527 0.69203 0.46370 0.0500 Uiso
N8 N 0.96151 0.78347 0.42929 0.0500 Uiso
O17 O 0.74968 0.55493 0.50474 0.0500 Uiso
O18 O 0.76226 0.57788 0.60177 0.0500 Uiso
H39 H 0.54544 0.29965 0.66727 0.0500 Uiso
H40 H 0.51994 0.20130 0.67081 0.0500 Uiso
H41 H 0.57619 0.14017 0.59360 0.0500 Uiso
H42 H 0.65924 0.17787 0.51266 0.0500 Uiso
H43 H 0.68415 0.27639 0.50730 0.0500 Uiso
H44 H 0.68727 0.36776 0.56182 0.0500 Uiso
H45 H 0.53425 0.38266 0.62659 0.0500 Uiso
C67 C 0.56917 0.27391 0.63240 0.0500 Uiso
C68 C 0.55517 0.21797 0.63495 0.0500 Uiso
C69 C 0.58710 0.18345 0.59154 0.0500 Uiso
C70 C 0.63387 0.20470 0.54590 0.0500 Uiso
C71 C 0.64799 0.26058 0.54316 0.0500 Uiso
C72 C 0.61496 0.29584 0.58591 0.0500 Uiso
C73 C 0.63518 0.35583 0.58400 0.0500 Uiso
C74 C 0.59004 0.39397 0.60853 0.0500 Uiso
C75 C 0.60963 0.45260 0.61892 0.0500 Uiso
O21 O 0.57437 0.47425 0.65996 0.0500 Uiso
O22 O 0.66805 0.48204 0.58901 0.0500 Uiso
O25 O 0.86103 0.23841 0.65637 0.0500 Uiso
O27 O 0.92213 0.23516 0.74505 0.0500 Uiso
Zn9 Zn 0.92518 0.71923 0.38471 0.0500 Uiso
Zn11 Zn 0.57482 0.78077 0.88471 0.0500 Uiso
N9 N 0.89527 0.30797 0.53630 0.0500 Uiso
N11 N 0.96151 0.21653 0.57071 0.0500 Uiso
O30 O 0.60379 0.57572 0.61998 0.0500 Uiso
Zn15 Zn 0.67101 0.50000 0.50000 0.0500 Uiso
Zn16_4 Zn 0.82899 1.00000 1.00000 0.0500 Uiso
Zn3_3 Zn -0.00000 0.71125 0.25000 0.0500 Uiso
H10_2 H 0.02547 0.17369 0.63740 0.0500 Uiso
C19_2 C 0.00255 0.17245 0.59214 0.0500 Uiso
C23_2 C 0.01538 0.12615 0.55450 0.0500 Uiso
C24_2 C 0.07461 0.08186 0.56764 0.0500 Uiso
O7_2 O 0.10379 0.07572 0.61998 0.0500 Uiso
O8_2 O 0.09913 0.05322 0.52301 0.0500 Uiso
H20_2 H 0.16387 0.68324 0.31638 0.0500 Uiso
H21_2 H 0.16144 0.60529 0.42296 0.0500 Uiso
H22_2 H 0.29725 0.68584 0.32349 0.0500 Uiso
H23_2 H 0.41582 0.64929 0.27739 0.0500 Uiso
H24_2 H 0.45178 0.55285 0.29319 0.0500 Uiso
H25_2 H 0.36264 0.49049 0.34560 0.0500 Uiso
H26_2 H 0.24342 0.52470 0.39016 0.0500 Uiso
C34_2 C 0.06271 0.67517 0.37518 0.0500 Uiso
C35_2 C 0.14286 0.66391 0.35701 0.0500 Uiso
C36_2 C 0.18646 0.62769 0.38615 0.0500 Uiso
C37_2 C 0.26212 0.60906 0.36281 0.0500 Uiso
C38_2 C 0.31062 0.64312 0.32880 0.0500 Uiso
C39_2 C 0.37773 0.62254 0.30227 0.0500 Uiso
C40_2 C 0.39745 0.56798 0.31006 0.0500 Uiso
C41_2 C 0.34787 0.53304 0.34085 0.0500 Uiso
C42_2 C 0.28043 0.55323 0.36705 0.0500 Uiso
O11_2 O 0.01495 0.70901 0.34078 0.0500 Uiso
O12_2 O 0.03812 0.65639 0.42223 0.0500 Uiso
H27_2 H 0.06127 0.56027 0.27908 0.0500 Uiso
H28_2 H 0.12274 0.47894 0.31175 0.0500 Uiso
H29_2 H 0.22944 0.57746 0.13803 0.0500 Uiso
H30_2 H 0.19666 0.41597 0.34547 0.0500 Uiso
H31_2 H 0.26153 0.33114 0.36188 0.0500 Uiso
H32_2 H 0.37845 0.34925 0.19121 0.0500 Uiso
C43_2 C 0.10960 0.63422 0.19711 0.0500 Uiso
C44_2 C 0.14557 0.58060 0.21057 0.0500 Uiso
C45_2 C 0.11428 0.54907 0.25710 0.0500 Uiso
C46_2 C 0.14892 0.50133 0.27515 0.0500 Uiso
C47_2 C 0.21272 0.48189 0.24323 0.0500 Uiso
C48_2 C 0.20733 0.55741 0.17710 0.0500 Uiso
C49_2 C 0.25162 0.43160 0.25870 0.0500 Uiso
C50_2 C 0.23598 0.40176 0.31107 0.0500 Uiso
C51_2 C 0.27313 0.35284 0.32029 0.0500 Uiso
C52_2 C 0.32558 0.33282 0.27759 0.0500 Uiso
C53_2 C 0.34016 0.36450 0.22562 0.0500 Uiso
C54_2 C 0.37097 0.28280 0.29182 0.0500 Uiso
N5_2 N 0.23763 0.50774 0.19285 0.0500 Uiso
N6_2 N 0.30519 0.41430 0.21851 0.0500 Uiso
O13_2 O 0.06799 0.65613 0.23771 0.0500 Uiso
O14_2 O 0.11620 0.65673 0.14585 0.0500 Uiso
O15_2 O 0.36103 0.26159 0.34363 0.0500 Uiso
O16_2 O 0.42213 0.26484 0.25495 0.0500 Uiso
Zn5_2 Zn 0.30422 0.45865 0.14280 0.0500 Uiso
H34_2 H 0.16954 0.33798 0.12650 0.0500 Uiso
H35_2 H 0.10138 0.25418 0.10277 0.0500 Uiso
H37_2 H 0.08514 0.17011 0.06714 0.0500 Uiso
H38_2 H 0.02381 0.08891 0.02832 0.0500 Uiso
C55_2 C 0.21963 0.41574 0.04665 0.0500 Uiso
C57_2 C 0.16751 0.36880 0.03455 0.0500 Uiso
C58_2 C 0.15160 0.33082 0.08034 0.0500 Uiso
C59_2 C 0.11508 0.28191 0.06685 0.0500 Uiso
C60_2 C 0.09714 0.26949 0.00692 0.0500 Uiso
C63_2 C 0.05991 0.17134 0.02283 0.0500 Uiso
C64_2 C 0.02403 0.12499 0.00065 0.0500 Uiso
O18_2 O 0.23774 0.42212 0.10177 0.0500 Uiso
H39_2 H 0.45456 0.70035 0.16727 0.0500 Uiso
H40_2 H 0.48006 0.79870 0.17081 0.0500 Uiso
H41_2 H 0.42381 0.85983 0.09360 0.0500 Uiso
H42_2 H 0.34076 0.82213 0.01266 0.0500 Uiso
H43_2 H 0.31585 0.72361 0.00730 0.0500 Uiso
H44_2 H 0.31273 0.63224 0.06182 0.0500 Uiso
H45_2 H 0.46575 0.61734 0.12659 0.0500 Uiso
C67_2 C 0.43083 0.72609 0.13240 0.0500 Uiso
C68_2 C 0.44483 0.78203 0.13495 0.0500 Uiso
C69_2 C 0.41290 0.81655 0.09154 0.0500 Uiso
C70_2 C 0.36613 0.79530 0.04590 0.0500 Uiso
C71_2 C 0.35201 0.73942 0.04316 0.0500 Uiso
C72_2 C 0.38504 0.70416 0.08591 0.0500 Uiso
C73_2 C 0.36482 0.64417 0.08400 0.0500 Uiso
C74_2 C 0.40996 0.60603 0.10853 0.0500 Uiso
C75_2 C 0.39037 0.54740 0.11892 0.0500 Uiso
O21_2 O 0.42563 0.52575 0.15996 0.0500 Uiso
O25_2 O 0.13897 0.76159 0.15637 0.0500 Uiso
O27_2 O 0.07787 0.76484 0.24505 0.0500 Uiso
Zn8_2 Zn 0.19578 0.04135 0.64280 0.0500 Uiso
Zn11_2 Zn 0.42518 0.21923 0.38471 0.0500 Uiso
Zn13 Zn 0.50000 0.21125 0.25000 0.0500 Uiso
O30_2 O 0.39621 0.42428 0.11998 0.0500 Uiso
H33_2 H 0.14253 0.38816 0.94301 0.0500 Uiso
C56_2 C 0.13793 0.35751 0.97677 0.0500 Uiso
C62_2 C 0.06218 0.21835 0.98750 0.0500 Uiso
H1_2 H 0.93873 0.56027 0.22092 0.0500 Uiso
H2_2 H 0.87726 0.47894 0.18825 0.0500 Uiso
H3_2 H 0.77056 0.57746 0.36197 0.0500 Uiso
H4_2 H 0.80334 0.41597 0.15453 0.0500 Uiso
H5_2 H 0.73847 0.33114 0.13812 0.0500 Uiso
H6_2 H 0.62155 0.34925 0.30879 0.0500 Uiso
C1_2 C 0.89040 0.63422 0.30289 0.0500 Uiso
C2_2 C 0.85443 0.58060 0.28943 0.0500 Uiso
C3_2 C 0.88572 0.54907 0.24290 0.0500 Uiso
C4_2 C 0.85108 0.50133 0.22485 0.0500 Uiso
C5_2 C 0.78728 0.48189 0.25677 0.0500 Uiso
C6_2 C 0.79267 0.55741 0.32290 0.0500 Uiso
C7_2 C 0.74838 0.43160 0.24130 0.0500 Uiso
C8_2 C 0.76402 0.40176 0.18893 0.0500 Uiso
C9_2 C 0.72687 0.35284 0.17971 0.0500 Uiso
C10_2 C 0.67442 0.33282 0.22241 0.0500 Uiso
C11_2 C 0.65984 0.36450 0.27438 0.0500 Uiso
C12_2 C 0.62903 0.28280 0.20818 0.0500 Uiso
N1_2 N 0.76237 0.50774 0.30715 0.0500 Uiso
N2_2 N 0.69481 0.41430 0.28149 0.0500 Uiso
O1_2 O 0.93201 0.65613 0.26229 0.0500 Uiso
O2_2 O 0.88380 0.65673 0.35415 0.0500 Uiso
O3_2 O 0.63897 0.26159 0.15637 0.0500 Uiso
O4_2 O 0.57787 0.26484 0.24505 0.0500 Uiso
Zn1_2 Zn 0.69578 0.45865 0.35720 0.0500 Uiso
Zn3_4 Zn 1.00000 0.71125 0.25000 0.0500 Uiso
H7_2 H 0.85747 0.38816 0.55699 0.0500 Uiso
H8_2 H 0.83046 0.33798 0.37350 0.0500 Uiso
H9_2 H 0.89862 0.25418 0.39723 0.0500 Uiso
H11_2 H 0.91486 0.17011 0.43286 0.0500 Uiso
H12_2 H 0.97619 0.08891 0.47168 0.0500 Uiso
C13_2 C 0.78037 0.41574 0.45335 0.0500 Uiso
C14_2 C 0.86207 0.35751 0.52323 0.0500 Uiso
C15_2 C 0.83249 0.36880 0.46545 0.0500 Uiso
C16_2 C 0.84840 0.33082 0.41966 0.0500 Uiso
C17_2 C 0.88492 0.28191 0.43315 0.0500 Uiso
C18_2 C 0.90286 0.26949 0.49308 0.0500 Uiso
C20_2 C 0.93782 0.21835 0.51250 0.0500 Uiso
C21_2 C 0.94009 0.17134 0.47717 0.0500 Uiso
C22_2 C 0.97597 0.12499 0.49935 0.0500 Uiso
O5_2 O 0.74968 0.44507 0.49526 0.0500 Uiso
O6_2 O 0.76226 0.42212 0.39823 0.0500 Uiso
H13_2 H 0.54544 0.70035 0.33273 0.0500 Uiso
H14_2 H 0.51994 0.79870 0.32919 0.0500 Uiso
H15_2 H 0.57619 0.85983 0.40640 0.0500 Uiso
H16_2 H 0.65924 0.82213 0.48734 0.0500 Uiso
H17_2 H 0.68415 0.72361 0.49270 0.0500 Uiso
H18_2 H 0.68727 0.63224 0.43818 0.0500 Uiso
H19_2 H 0.53425 0.61734 0.37341 0.0500 Uiso
C25_2 C 0.56917 0.72609 0.36760 0.0500 Uiso
C26_2 C 0.55517 0.78203 0.36505 0.0500 Uiso
C27_2 C 0.58710 0.81655 0.40846 0.0500 Uiso
C28_2 C 0.63387 0.79530 0.45410 0.0500 Uiso
C29_2 C 0.64799 0.73942 0.45684 0.0500 Uiso
C30_2 C 0.61496 0.70416 0.41409 0.0500 Uiso
C31_2 C 0.63518 0.64417 0.41600 0.0500 Uiso
C32_2 C 0.59004 0.60603 0.39147 0.0500 Uiso
C33_2 C 0.60963 0.54740 0.38108 0.0500 Uiso
O9_2 O 0.57437 0.52575 0.34004 0.0500 Uiso
O10_2 O 0.66805 0.51796 0.41099 0.0500 Uiso
H46_2 H 0.83613 0.68324 0.18362 0.0500 Uiso
H47_2 H 0.83856 0.60529 0.07704 0.0500 Uiso
H48_2 H 0.70275 0.68584 0.17651 0.0500 Uiso
H49_2 H 0.58418 0.64929 0.22261 0.0500 Uiso
H50_2 H 0.54822 0.55285 0.20681 0.0500 Uiso
H51_2 H 0.63736 0.49049 0.15440 0.0500 Uiso
H52_2 H 0.75658 0.52470 0.10984 0.0500 Uiso
C76_2 C 0.93729 0.67517 0.12482 0.0500 Uiso
C77_2 C 0.85714 0.66391 0.14299 0.0500 Uiso
C78_2 C 0.81354 0.62769 0.11385 0.0500 Uiso
C79_2 C 0.73788 0.60906 0.13719 0.0500 Uiso
C80_2 C 0.68938 0.64312 0.17120 0.0500 Uiso
C81_2 C 0.62227 0.62254 0.19773 0.0500 Uiso
C82_2 C 0.60255 0.56798 0.18994 0.0500 Uiso
C83_2 C 0.65213 0.53304 0.15915 0.0500 Uiso
C84_2 C 0.71957 0.55323 0.13295 0.0500 Uiso
O23_2 O 0.98505 0.70901 0.15922 0.0500 Uiso
O24_2 O 0.96188 0.65639 0.07777 0.0500 Uiso
O26_2 O 0.86103 0.76159 0.34363 0.0500 Uiso
O28_2 O 0.92213 0.76484 0.25495 0.0500 Uiso
Zn12_2 Zn 0.57482 0.21923 0.11529 0.0500 Uiso
O31_2 O 0.60379 0.42428 0.38002 0.0500 Uiso
O32_2 O 0.59913 0.55322 0.52301 0.0500 Uiso
O33_2 O 0.59913 0.44678 0.47699 0.0500 Uiso
H36_2 H 0.97453 0.17369 0.86260 0.0500 Uiso
C61_2 C 0.99745 0.17245 0.90786 0.0500 Uiso
C65_2 C 0.98462 0.12615 0.94550 0.0500 Uiso
C66_2 C 0.92539 0.08186 0.93236 0.0500 Uiso
O19_2 O 0.89621 0.07572 0.88002 0.0500 Uiso
O20_2 O 0.90087 0.05322 0.97699 0.0500 Uiso
Zn7_2 Zn 0.80422 0.04135 0.85720 0.0500 Uiso
H7_3 H 0.64253 0.11184 0.05699 0.0500 Uiso
H10_3 H 0.47453 0.32631 0.13740 0.0500 Uiso
C14_3 C 0.63793 0.14249 0.02323 0.0500 Uiso
C19_3 C 0.49745 0.32755 0.09214 0.0500 Uiso
C20_3 C 0.56218 0.28165 0.01250 0.0500 Uiso
C23_3 C 0.48462 0.37385 0.05450 0.0500 Uiso
C24_3 C 0.42539 0.41814 0.06764 0.0500 Uiso
N3_2 N 0.60473 0.19203 0.03630 0.0500 Uiso
N4_2 N 0.53849 0.28347 0.07071 0.0500 Uiso
O34_2 O 0.83195 0.01796 0.08901 0.0500 Uiso
H2_3 H 0.62274 0.02106 0.68825 0.0500 Uiso
H4_3 H 0.69666 0.08403 0.65453 0.0500 Uiso
H5_3 H 0.76153 0.16886 0.63812 0.0500 Uiso
H6_3 H 0.87845 0.15075 0.80879 0.0500 Uiso
C5_3 C 0.71272 0.01811 0.75677 0.0500 Uiso
C7_3 C 0.75162 0.06840 0.74130 0.0500 Uiso
C8_3 C 0.73598 0.09824 0.68893 0.0500 Uiso
C9_3 C 0.77313 0.14716 0.67971 0.0500 Uiso
C10_3 C 0.82558 0.16718 0.72241 0.0500 Uiso
C11_3 C 0.84016 0.13550 0.77438 0.0500 Uiso
C12_3 C 0.87097 0.21720 0.70818 0.0500 Uiso
N2_3 N 0.80519 0.08570 0.78149 0.0500 Uiso
H8_3 H 0.66954 0.16202 0.87350 0.0500 Uiso
H9_3 H 0.60138 0.24582 0.89723 0.0500 Uiso
H11_3 H 0.58514 0.32989 0.93286 0.0500 Uiso
H12_3 H 0.52381 0.41109 0.97168 0.0500 Uiso
C13_3 C 0.71963 0.08426 0.95335 0.0500 Uiso
C15_3 C 0.66751 0.13120 0.96545 0.0500 Uiso
C16_3 C 0.65160 0.16918 0.91966 0.0500 Uiso
C17_3 C 0.61508 0.21809 0.93315 0.0500 Uiso
C18_3 C 0.59714 0.23051 0.99308 0.0500 Uiso
C21_3 C 0.55991 0.32866 0.97717 0.0500 Uiso
C22_3 C 0.52403 0.37501 0.99935 0.0500 Uiso
O5_3 O 0.75032 0.05493 0.99526 0.0500 Uiso
O6_3 O 0.73774 0.07788 0.89823 0.0500 Uiso
H25_3 H 0.13736 0.00951 0.84560 0.0500 Uiso
H28_3 H 0.37726 0.02106 0.81175 0.0500 Uiso
H30_3 H 0.30334 0.08403 0.84547 0.0500 Uiso
H31_3 H 0.23847 0.16886 0.86188 0.0500 Uiso
H32_3 H 0.12155 0.15075 0.69121 0.0500 Uiso
C47_3 C 0.28728 0.01811 0.74323 0.0500 Uiso
C49_3 C 0.24838 0.06840 0.75870 0.0500 Uiso
C50_3 C 0.26402 0.09824 0.81107 0.0500 Uiso
C51_3 C 0.22687 0.14716 0.82029 0.0500 Uiso
C52_3 C 0.17442 0.16718 0.77759 0.0500 Uiso
C53_3 C 0.15984 0.13550 0.72562 0.0500 Uiso
C54_3 C 0.12903 0.21720 0.79182 0.0500 Uiso
N6_3 N 0.19481 0.08570 0.71851 0.0500 Uiso
H33_3 H 0.35747 0.11184 0.44301 0.0500 Uiso
H34_3 H 0.33046 0.16202 0.62650 0.0500 Uiso
H35_3 H 0.39862 0.24582 0.60277 0.0500 Uiso
H36_3 H 0.52547 0.32631 0.36260 0.0500 Uiso
H37_3 H 0.41486 0.32989 0.56714 0.0500 Uiso
H38_3 H 0.47619 0.41109 0.52832 0.0500 Uiso
C55_3 C 0.28037 0.08426 0.54665 0.0500 Uiso
C56_3 C 0.36207 0.14249 0.47677 0.0500 Uiso
C57_3 C 0.33249 0.13120 0.53455 0.0500 Uiso
C58_3 C 0.34840 0.16918 0.58034 0.0500 Uiso
C59_3 C 0.38492 0.21809 0.56685 0.0500 Uiso
C60_3 C 0.40286 0.23051 0.50692 0.0500 Uiso
C61_3 C 0.50255 0.32755 0.40786 0.0500 Uiso
C62_3 C 0.43782 0.28165 0.48750 0.0500 Uiso
C63_3 C 0.44009 0.32866 0.52283 0.0500 Uiso
C64_3 C 0.47597 0.37501 0.50065 0.0500 Uiso
C65_3 C 0.51538 0.37385 0.44550 0.0500 Uiso
C66_3 C 0.57461 0.41814 0.43236 0.0500 Uiso
N7_2 N 0.39527 0.19203 0.46370 0.0500 Uiso
N8_2 N 0.46151 0.28347 0.42929 0.0500 Uiso
O17_2 O 0.24968 0.05493 0.50474 0.0500 Uiso
O18_3 O 0.26226 0.07788 0.60177 0.0500 Uiso
H51_3 H 0.86264 0.00951 0.65440 0.0500 Uiso
O29_2 O 0.75032 0.94507 0.00474 0.0500 Uiso
H1_3 H 0.56127 0.93973 0.72092 0.0500 Uiso
H3_3 H 0.72944 0.92254 0.86197 0.0500 Uiso
C1_3 C 0.60960 0.86578 0.80289 0.0500 Uiso
C2_3 C 0.64557 0.91940 0.78943 0.0500 Uiso
C3_3 C 0.61428 0.95093 0.74290 0.0500 Uiso
C4_3 C 0.64892 0.99867 0.72485 0.0500 Uiso
C6_3 C 0.70733 0.94259 0.82290 0.0500 Uiso
N1_3 N 0.73763 0.99226 0.80715 0.0500 Uiso
O1_3 O 0.56799 0.84387 0.76229 0.0500 Uiso
O2_3 O 0.61620 0.84327 0.85415 0.0500 Uiso
H13_3 H 0.95456 0.79965 0.83273 0.0500 Uiso
H14_3 H 0.98006 0.70130 0.82919 0.0500 Uiso
H15_3 H 0.92381 0.64017 0.90640 0.0500 Uiso
H16_3 H 0.84076 0.67787 0.98734 0.0500 Uiso
H17_3 H 0.81585 0.77639 0.99270 0.0500 Uiso
H18_3 H 0.81273 0.86776 0.93818 0.0500 Uiso
H19_3 H 0.96575 0.88266 0.87341 0.0500 Uiso
C25_3 C 0.93083 0.77391 0.86760 0.0500 Uiso
C26_3 C 0.94483 0.71797 0.86505 0.0500 Uiso
C27_3 C 0.91290 0.68345 0.90846 0.0500 Uiso
C28_3 C 0.86613 0.70470 0.95410 0.0500 Uiso
C29_3 C 0.85201 0.76058 0.95684 0.0500 Uiso
C30_3 C 0.88504 0.79584 0.91409 0.0500 Uiso
C31_3 C 0.86482 0.85583 0.91600 0.0500 Uiso
C32_3 C 0.90996 0.89397 0.89147 0.0500 Uiso
C33_3 C 0.89037 0.95260 0.88108 0.0500 Uiso
O9_3 O 0.92563 0.97425 0.84004 0.0500 Uiso
O10_3 O 0.83195 0.98204 0.91099 0.0500 Uiso
H20_3 H 0.33613 0.81676 0.81638 0.0500 Uiso
H21_3 H 0.33856 0.89471 0.92296 0.0500 Uiso
H22_3 H 0.20275 0.81416 0.82349 0.0500 Uiso
H23_3 H 0.08418 0.85071 0.77739 0.0500 Uiso
H24_3 H 0.04822 0.94715 0.79319 0.0500 Uiso
H26_3 H 0.25658 0.97530 0.89016 0.0500 Uiso
C34_3 C 0.43729 0.82483 0.87518 0.0500 Uiso
C35_3 C 0.35714 0.83609 0.85701 0.0500 Uiso
C36_3 C 0.31354 0.87231 0.88615 0.0500 Uiso
C37_3 C 0.23788 0.89094 0.86281 0.0500 Uiso
C38_3 C 0.18938 0.85688 0.82880 0.0500 Uiso
C39_3 C 0.12227 0.87746 0.80227 0.0500 Uiso
C40_3 C 0.10255 0.93202 0.81006 0.0500 Uiso
C41_3 C 0.15213 0.96696 0.84085 0.0500 Uiso
C42_3 C 0.21957 0.94677 0.86705 0.0500 Uiso
O11_3 O 0.48505 0.79099 0.84078 0.0500 Uiso
O12_3 O 0.46188 0.84361 0.92223 0.0500 Uiso
H27_3 H 0.43873 0.93973 0.77908 0.0500 Uiso
H29_3 H 0.27056 0.92254 0.63803 0.0500 Uiso
C43_3 C 0.39040 0.86578 0.69711 0.0500 Uiso
C44_3 C 0.35443 0.91940 0.71057 0.0500 Uiso
C45_3 C 0.38572 0.95093 0.75710 0.0500 Uiso
C46_3 C 0.35108 0.99867 0.77515 0.0500 Uiso
C48_3 C 0.29267 0.94259 0.67710 0.0500 Uiso
N5_3 N 0.26237 0.99226 0.69285 0.0500 Uiso
O13_3 O 0.43201 0.84387 0.73771 0.0500 Uiso
O14_3 O 0.38380 0.84327 0.64585 0.0500 Uiso
H39_3 H 0.04544 0.79965 0.66727 0.0500 Uiso
H40_3 H 0.01994 0.70130 0.67081 0.0500 Uiso
H41_3 H 0.07619 0.64017 0.59360 0.0500 Uiso
H42_3 H 0.15924 0.67787 0.51266 0.0500 Uiso
H43_3 H 0.18415 0.77639 0.50730 0.0500 Uiso
H44_3 H 0.18727 0.86776 0.56182 0.0500 Uiso
H45_3 H 0.03425 0.88266 0.62659 0.0500 Uiso
C67_3 C 0.06917 0.77391 0.63240 0.0500 Uiso
C68_3 C 0.05517 0.71797 0.63495 0.0500 Uiso
C69_3 C 0.08710 0.68345 0.59154 0.0500 Uiso
C70_3 C 0.13387 0.70470 0.54590 0.0500 Uiso
C71_3 C 0.14799 0.76058 0.54316 0.0500 Uiso
C72_3 C 0.11496 0.79584 0.58591 0.0500 Uiso
C73_3 C 0.13518 0.85583 0.58400 0.0500 Uiso
C74_3 C 0.09004 0.89397 0.60853 0.0500 Uiso
C75_3 C 0.10963 0.95260 0.61892 0.0500 Uiso
O21_3 O 0.07437 0.97425 0.65996 0.0500 Uiso
O22_2 O 0.16805 0.98204 0.58901 0.0500 Uiso
H46_3 H 0.66387 0.81676 0.68362 0.0500 Uiso
H47_3 H 0.66144 0.89471 0.57704 0.0500 Uiso
H48_3 H 0.79725 0.81416 0.67651 0.0500 Uiso
H49_3 H 0.91582 0.85071 0.72261 0.0500 Uiso
H50_3 H 0.95178 0.94715 0.70681 0.0500 Uiso
H52_3 H 0.74342 0.97530 0.60984 0.0500 Uiso
C76_3 C 0.56271 0.82483 0.62482 0.0500 Uiso
C77_3 C 0.64286 0.83609 0.64299 0.0500 Uiso
C78_3 C 0.68646 0.87231 0.61385 0.0500 Uiso
C79_3 C 0.76212 0.89094 0.63719 0.0500 Uiso
C80_3 C 0.81062 0.85688 0.67120 0.0500 Uiso
C81_3 C 0.87773 0.87746 0.69773 0.0500 Uiso
C82_3 C 0.89745 0.93202 0.68994 0.0500 Uiso
C83_3 C 0.84787 0.96696 0.65915 0.0500 Uiso
C84_3 C 0.78043 0.94677 0.63295 0.0500 Uiso
O23_3 O 0.51495 0.79099 0.65922 0.0500 Uiso
O24_3 O 0.53812 0.84361 0.57777 0.0500 Uiso
N9_2 N 0.39527 0.80797 0.53630 0.0500 Uiso
N10_2 N 0.60473 0.80797 0.96370 0.0500 Uiso
N11_2 N 0.46151 0.71653 0.57071 0.0500 Uiso
N12_2 N 0.53849 0.71653 0.92929 0.0500 Uiso
H1_4 H 0.43873 0.06027 0.22092 0.0500 Uiso
H3_4 H 0.27056 0.07746 0.36197 0.0500 Uiso
C1_4 C 0.39040 0.13422 0.30289 0.0500 Uiso
C2_4 C 0.35443 0.08060 0.28943 0.0500 Uiso
C3_4 C 0.38572 0.04907 0.24290 0.0500 Uiso
C4_4 C 0.35108 0.00133 0.22485 0.0500 Uiso
C6_4 C 0.29267 0.05741 0.32290 0.0500 Uiso
N1_4 N 0.26237 0.00774 0.30715 0.0500 Uiso
O1_4 O 0.43201 0.15613 0.26229 0.0500 Uiso
O2_4 O 0.38380 0.15673 0.35415 0.0500 Uiso
H13_4 H 0.04544 0.20035 0.33273 0.0500 Uiso
H14_4 H 0.01994 0.29870 0.32919 0.0500 Uiso
H15_4 H 0.07619 0.35983 0.40640 0.0500 Uiso
H16_4 H 0.15924 0.32213 0.48734 0.0500 Uiso
H17_4 H 0.18415 0.22361 0.49270 0.0500 Uiso
H18_4 H 0.18727 0.13224 0.43818 0.0500 Uiso
H19_4 H 0.03425 0.11734 0.37341 0.0500 Uiso
C25_4 C 0.06917 0.22609 0.36760 0.0500 Uiso
C26_4 C 0.05517 0.28203 0.36505 0.0500 Uiso
C27_4 C 0.08710 0.31655 0.40846 0.0500 Uiso
C28_4 C 0.13387 0.29530 0.45410 0.0500 Uiso
C29_4 C 0.14799 0.23942 0.45684 0.0500 Uiso
C30_4 C 0.11496 0.20416 0.41409 0.0500 Uiso
C31_4 C 0.13518 0.14417 0.41600 0.0500 Uiso
C32_4 C 0.09004 0.10603 0.39147 0.0500 Uiso
C33_4 C 0.10963 0.04740 0.38108 0.0500 Uiso
O9_4 O 0.07437 0.02575 0.34004 0.0500 Uiso
O10_4 O 0.16805 0.01796 0.41099 0.0500 Uiso
H20_4 H 0.66387 0.18324 0.31638 0.0500 Uiso
H21_4 H 0.66144 0.10529 0.42296 0.0500 Uiso
H22_4 H 0.79725 0.18584 0.32349 0.0500 Uiso
H23_4 H 0.91582 0.14929 0.27739 0.0500 Uiso
H24_4 H 0.95178 0.05285 0.29319 0.0500 Uiso
H26_4 H 0.74342 0.02470 0.39016 0.0500 Uiso
C34_4 C 0.56271 0.17517 0.37518 0.0500 Uiso
C35_4 C 0.64286 0.16391 0.35701 0.0500 Uiso
C36_4 C 0.68646 0.12769 0.38615 0.0500 Uiso
C37_4 C 0.76212 0.10906 0.36281 0.0500 Uiso
C38_4 C 0.81062 0.14312 0.32880 0.0500 Uiso
C39_4 C 0.87773 0.12254 0.30227 0.0500 Uiso
C40_4 C 0.89745 0.06798 0.31006 0.0500 Uiso
C41_4 C 0.84787 0.03304 0.34085 0.0500 Uiso
C42_4 C 0.78043 0.05323 0.36705 0.0500 Uiso
O11_4 O 0.51495 0.20901 0.34078 0.0500 Uiso
O12_4 O 0.53812 0.15639 0.42223 0.0500 Uiso
H27_4 H 0.56127 0.06027 0.27908 0.0500 Uiso
H29_4 H 0.72944 0.07746 0.13803 0.0500 Uiso
C43_4 C 0.60960 0.13422 0.19711 0.0500 Uiso
C44_4 C 0.64557 0.08060 0.21057 0.0500 Uiso
C45_4 C 0.61428 0.04907 0.25710 0.0500 Uiso
C46_4 C 0.64892 0.00133 0.27515 0.0500 Uiso
C48_4 C 0.70733 0.05741 0.17710 0.0500 Uiso
N5_4 N 0.73763 0.00774 0.19285 0.0500 Uiso
O13_4 O 0.56799 0.15613 0.23771 0.0500 Uiso
O14_4 O 0.61620 0.15673 0.14585 0.0500 Uiso
H39_4 H 0.95456 0.20035 0.16727 0.0500 Uiso
H40_4 H 0.98006 0.29870 0.17081 0.0500 Uiso
H41_4 H 0.92381 0.35983 0.09360 0.0500 Uiso
H42_4 H 0.84076 0.32213 0.01266 0.0500 Uiso
H43_4 H 0.81585 0.22361 0.00730 0.0500 Uiso
H44_4 H 0.81273 0.13224 0.06182 0.0500 Uiso
H45_4 H 0.96575 0.11734 0.12659 0.0500 Uiso
C67_4 C 0.93083 0.22609 0.13240 0.0500 Uiso
C68_4 C 0.94483 0.28203 0.13495 0.0500 Uiso
C69_4 C 0.91290 0.31655 0.09154 0.0500 Uiso
C70_4 C 0.86613 0.29530 0.04590 0.0500 Uiso
C71_4 C 0.85201 0.23942 0.04316 0.0500 Uiso
C72_4 C 0.88504 0.20416 0.08591 0.0500 Uiso
C73_4 C 0.86482 0.14417 0.08400 0.0500 Uiso
C74_4 C 0.90996 0.10603 0.10853 0.0500 Uiso
C75_4 C 0.89037 0.04740 0.11892 0.0500 Uiso
O21_4 O 0.92563 0.02575 0.15996 0.0500 Uiso
H46_4 H 0.33613 0.18324 0.18362 0.0500 Uiso
H47_4 H 0.33856 0.10529 0.07704 0.0500 Uiso
H48_4 H 0.20275 0.18584 0.17651 0.0500 Uiso
H49_4 H 0.08418 0.14929 0.22261 0.0500 Uiso
H50_4 H 0.04822 0.05285 0.20681 0.0500 Uiso
H52_4 H 0.25658 0.02470 0.10984 0.0500 Uiso
C76_4 C 0.43729 0.17517 0.12482 0.0500 Uiso
C77_4 C 0.35714 0.16391 0.14299 0.0500 Uiso
C78_4 C 0.31354 0.12769 0.11385 0.0500 Uiso
C79_4 C 0.23788 0.10906 0.13719 0.0500 Uiso
C80_4 C 0.18938 0.14312 0.17120 0.0500 Uiso
C81_4 C 0.12227 0.12254 0.19773 0.0500 Uiso
C82_4 C 0.10255 0.06798 0.18994 0.0500 Uiso
C83_4 C 0.15213 0.03304 0.15915 0.0500 Uiso
C84_4 C 0.21957 0.05323 0.13295 0.0500 Uiso
O23_4 O 0.48505 0.20901 0.15922 0.0500 Uiso
O24_4 O 0.46188 0.15639 0.07777 0.0500 Uiso
H2_4 H 0.37726 0.97894 0.18825 0.0500 Uiso
H4_4 H 0.30334 0.91597 0.15453 0.0500 Uiso
H5_4 H 0.23847 0.83114 0.13812 0.0500 Uiso
H6_4 H 0.12155 0.84925 0.30879 0.0500 Uiso
C5_4 C 0.28728 0.98189 0.25677 0.0500 Uiso
C7_4 C 0.24838 0.93160 0.24130 0.0500 Uiso
C8_4 C 0.26402 0.90176 0.18893 0.0500 Uiso
C9_4 C 0.22687 0.85284 0.17971 0.0500 Uiso
C10_4 C 0.17442 0.83282 0.22241 0.0500 Uiso
C11_4 C 0.15984 0.86450 0.27438 0.0500 Uiso
C12_4 C 0.12903 0.78280 0.20818 0.0500 Uiso
N2_4 N 0.19481 0.91430 0.28149 0.0500 Uiso
H7_4 H 0.35747 0.88816 0.55699 0.0500 Uiso
H8_4 H 0.33046 0.83798 0.37350 0.0500 Uiso
H9_4 H 0.39862 0.75418 0.39723 0.0500 Uiso
H10_4 H 0.52547 0.67369 0.63740 0.0500 Uiso
H11_4 H 0.41486 0.67011 0.43286 0.0500 Uiso
H12_4 H 0.47619 0.58891 0.47168 0.0500 Uiso
C13_4 C 0.28037 0.91574 0.45335 0.0500 Uiso
C14_4 C 0.36207 0.85751 0.52323 0.0500 Uiso
C15_4 C 0.33249 0.86880 0.46545 0.0500 Uiso
C16_4 C 0.34840 0.83082 0.41966 0.0500 Uiso
C17_4 C 0.38492 0.78191 0.43315 0.0500 Uiso
C18_4 C 0.40286 0.76949 0.49308 0.0500 Uiso
C19_4 C 0.50255 0.67245 0.59214 0.0500 Uiso
C20_4 C 0.43782 0.71835 0.51250 0.0500 Uiso
C21_4 C 0.44009 0.67134 0.47717 0.0500 Uiso
C22_4 C 0.47597 0.62499 0.49935 0.0500 Uiso
C23_4 C 0.51538 0.62615 0.55450 0.0500 Uiso
C24_4 C 0.57461 0.58186 0.56764 0.0500 Uiso
O5_4 O 0.24968 0.94507 0.49526 0.0500 Uiso
O6_4 O 0.26226 0.92212 0.39823 0.0500 Uiso
H25_4 H 0.86264 0.99049 0.34560 0.0500 Uiso
H28_4 H 0.62274 0.97894 0.31175 0.0500 Uiso
H30_4 H 0.69666 0.91597 0.34547 0.0500 Uiso
H31_4 H 0.76153 0.83114 0.36188 0.0500 Uiso
H32_4 H 0.87845 0.84925 0.19121 0.0500 Uiso
C47_4 C 0.71272 0.98189 0.24323 0.0500 Uiso
C49_4 C 0.75162 0.93160 0.25870 0.0500 Uiso
C50_4 C 0.73598 0.90176 0.31107 0.0500 Uiso
C51_4 C 0.77313 0.85284 0.32029 0.0500 Uiso
C52_4 C 0.82558 0.83282 0.27759 0.0500 Uiso
C53_4 C 0.84016 0.86450 0.22562 0.0500 Uiso
C54_4 C 0.87097 0.78280 0.29182 0.0500 Uiso
N6_4 N 0.80519 0.91430 0.21851 0.0500 Uiso
H34_4 H 0.66954 0.83798 0.12650 0.0500 Uiso
H35_4 H 0.60138 0.75418 0.10277 0.0500 Uiso
H37_4 H 0.58514 0.67011 0.06714 0.0500 Uiso
H38_4 H 0.52381 0.58891 0.02832 0.0500 Uiso
C55_4 C 0.71963 0.91574 0.04665 0.0500 Uiso
C57_4 C 0.66751 0.86880 0.03455 0.0500 Uiso
C58_4 C 0.65160 0.83082 0.08034 0.0500 Uiso
C59_4 C 0.61508 0.78191 0.06685 0.0500 Uiso
C60_4 C 0.59714 0.76949 0.00692 0.0500 Uiso
C63_4 C 0.55991 0.67134 0.02283 0.0500 Uiso
C64_4 C 0.52403 0.62499 0.00065 0.0500 Uiso
O18_4 O 0.73774 0.92212 0.10177 0.0500 Uiso
H51_4 H 0.13736 0.99049 0.15440 0.0500 Uiso
H33_4 H 0.64253 0.88816 0.94301 0.0500 Uiso
H36_4 H 0.47453 0.67369 0.86260 0.0500 Uiso
C56_4 C 0.63793 0.85751 0.97677 0.0500 Uiso
C61_4 C 0.49745 0.67245 0.90786 0.0500 Uiso
C62_4 C 0.56218 0.71835 0.98750 0.0500 Uiso
C65_4 C 0.48462 0.62615 0.94550 0.0500 Uiso
C66_4 C 0.42539 0.58186 0.93236 0.0500 Uiso
loop_
_geom_bond_atom_site_label_1
_geom_bond_atom_site_label_2
_geom_bond_site_symmetry_1
_geom_bond_site_symmetry_2
H7 C14 1_555 1_555
N3 C14 1_555 1_555
Zn10 N3 1_555 1_555
O29 Zn4 1_555 1_555
O32 Zn4 1_555 1_555
O34 Zn4 1_555 1_555
C20 N4 1_555 1_555
N4 Zn10 1_555 1_555
H1 C3 1_555 1_555
H2 C4 1_555 1_555
H3 C6 1_555 1_555
H4 C8 1_555 1_555
H5 C9 1_555 1_555
H6 C11 1_555 1_555
C1 C2 1_555 1_555
C2 C3 1_555 1_555
C3 C4 1_555 1_555
C4 C5 1_555 1_555
C5 C7 1_555 1_555
C6 C2 1_555 1_555
C7 C8 1_555 1_555
C8 C9 1_555 1_555
C9 C10 1_555 1_555
C10 C11 1_555 1_555
C11 N2 1_555 1_555
C12 C10 1_555 1_555
N1 C5 1_555 1_555
N2 C7 1_555 1_555
O1 C1 1_555 1_555
O2 C1 1_555 1_555
O3 C12 1_555 1_555
O4 C12 1_555 1_555
Zn1 N1 1_555 1_555
Zn2 O2 1_555 1_555
Zn3 O1 1_555 1_555
H8 C16 1_555 1_555
H9 C17 1_555 1_555
H11 C21 1_555 1_555
H12 C22 1_555 1_555
C13 C15 1_555 1_555
C15 C16 1_555 1_555
C16 C17 1_555 1_555
C17 C18 1_555 1_555
C21 C22 1_555 1_555
O5 C13 1_555 1_555
O6 Zn1 1_555 1_555
Zn4_2 O5 1_555 1_555
H13 C25 1_555 1_555
H14 C26 1_555 1_555
H15 C27 1_555 1_555
H16 C28 1_555 1_555
H17 C29 1_555 1_555
H18 C31 1_555 1_555
H19 C32 1_555 1_555
C25 C26 1_555 1_555
C26 C27 1_555 1_555
C27 C28 1_555 1_555
C28 C29 1_555 1_555
C29 C30 1_555 1_555
C30 C25 1_555 1_555
C31 C30 1_555 1_555
C32 C31 1_555 1_555
C33 C32 1_555 1_555
O9 C33 1_555 1_555
O10 Zn1 1_555 1_555
H36 C61 1_555 1_555
C61 C65 1_555 1_555
C65 C66 1_555 1_555
C66 O19 1_555 1_555
O19 Zn7 1_555 1_555
O20 C66 1_555 1_555
H46 C77 1_555 1_555
H47 C78 1_555 1_555
H48 C80 1_555 1_555
H49 C81 1_555 1_555
H50 C82 1_555 1_555
H51 C83 1_555 1_555
H52 C84 1_555 1_555
C76 C77 1_555 1_555
C77 C78 1_555 1_555
C78 C79 1_555 1_555
C79 C80 1_555 1_555
C80 C81 1_555 1_555
C81 C82 1_555 1_555
C82 C83 1_555 1_555
C83 C84 1_555 1_555
C84 C79 1_555 1_555
O23 Zn3 1_555 1_555
O24 C76 1_555 1_555
O26 Zn2 1_555 1_555
O28 Zn3 1_555 1_555
Zn12 O3 1_555 1_555
Zn14 O4 1_555 1_555
N10 Zn2 1_555 1_555
N12 Zn2 1_555 1_555
O31 Zn1 1_555 1_555
O33 Zn4_2 1_555 1_555
Zn17_2 O20 1_555 1_555
C6 N1 1_555 1_555
N2 Zn1 1_555 1_555
C13 O6 1_555 1_555
Zn4_2 O10 1_555 1_555
C33 O10 1_555 1_555
C76 O23 1_555 1_555
H10 C19 1_555 1_555
C19 C23 1_555 1_555
C23 C24 1_555 1_555
C24 O7 1_555 1_555
O7 Zn8 1_555 1_555
O8 C24 1_555 1_555
Zn16_3 O8 1_555 1_555
H20 C35 1_555 1_555
H21 C36 1_555 1_555
H22 C38 1_555 1_555
H23 C39 1_555 1_555
H24 C40 1_555 1_555
H25 C41 1_555 1_555
H26 C42 1_555 1_555
C34 C35 1_555 1_555
C35 C36 1_555 1_555
C36 C37 1_555 1_555
C37 C38 1_555 1_555
C38 C39 1_555 1_555
C39 C40 1_555 1_555
C40 C41 1_555 1_555
C41 C42 1_555 1_555
C42 C37 1_555 1_555
O12 C34 1_555 1_555
H27 C45 1_555 1_555
H28 C46 1_555 1_555
H29 C48 1_555 1_555
H30 C50 1_555 1_555
H31 C51 1_555 1_555
H32 C53 1_555 1_555
C43 C44 1_555 1_555
C44 C45 1_555 1_555
C45 C46 1_555 1_555
C46 C47 1_555 1_555
C47 C49 1_555 1_555
C48 C44 1_555 1_555
C49 C50 1_555 1_555
C50 C51 1_555 1_555
C51 C52 1_555 1_555
C52 C53 1_555 1_555
C53 N6 1_555 1_555
C54 C52 1_555 1_555
N5 C47 1_555 1_555
N6 C49 1_555 1_555
O13 Zn3_2 1_555 1_555
O14 C43 1_555 1_555
O15 C54 1_555 1_555
O16 C54 1_555 1_555
Zn5 N5 1_555 1_555
Zn6 O14 1_555 1_555
H33 C56 1_555 1_555
H34 C58 1_555 1_555
H35 C59 1_555 1_555
H37 C63 1_555 1_555
H38 C64 1_555 1_555
C55 C57 1_555 1_555
C56 C57 1_555 1_555
C57 C58 1_555 1_555
C58 C59 1_555 1_555
C59 C60 1_555 1_555
C60 C62 1_555 1_555
C62 C63 1_555 1_555
C63 C64 1_555 1_555
N7 C56 1_555 1_555
O17 C55 1_555 1_555
O18 Zn5 1_555 1_555
H39 C67 1_555 1_555
H40 C68 1_555 1_555
H41 C69 1_555 1_555
H42 C70 1_555 1_555
H43 C71 1_555 1_555
H44 C73 1_555 1_555
H45 C74 1_555 1_555
C67 C68 1_555 1_555
C68 C69 1_555 1_555
C69 C70 1_555 1_555
C70 C71 1_555 1_555
C71 C72 1_555 1_555
C72 C67 1_555 1_555
C73 C72 1_555 1_555
C74 C73 1_555 1_555
C75 C74 1_555 1_555
O21 C75 1_555 1_555
O22 Zn5 1_555 1_555
O25 Zn6 1_555 1_555
O27 Zn3_2 1_555 1_555
Zn9 N7 1_555 1_555
Zn11 O15 1_555 1_555
Zn14 O16 1_555 1_555
N9 Zn6 1_555 1_555
N11 Zn6 1_555 1_555
O30 Zn5 1_555 1_555
Zn15 O17 1_555 1_555
Zn3_2 O11 1_555 1_555
C34 O11 1_555 1_555
C43 O13 1_555 1_555
C48 N5 1_555 1_555
N6 Zn5 1_555 1_555
C55 O18 1_555 1_555
C60 N7 1_555 1_555
C62 N8 1_555 1_555
N8 Zn9 1_555 1_555
C75 O22 1_555 1_555
O22 Zn15 1_555 1_555
H10_2 C19_2 1_555 1_555
C19_2 C23_2 1_555 1_555
C23_2 C24_2 1_555 1_555
C24_2 O7_2 1_555 1_555
O7_2 Zn8_2 1_555 1_555
O8_2 C24_2 1_555 1_555
H20_2 C35_2 1_555 1_555
H21_2 C36_2 1_555 1_555
H22_2 C38_2 1_555 1_555
H23_2 C39_2 1_555 1_555
H24_2 C40_2 1_555 1_555
H25_2 C41_2 1_555 1_555
H26_2 C42_2 1_555 1_555
C34_2 C35_2 1_555 1_555
C35_2 C36_2 1_555 1_555
C36_2 C37_2 1_555 1_555
C37_2 C38_2 1_555 1_555
C38_2 C39_2 1_555 1_555
C39_2 C40_2 1_555 1_555
C40_2 C41_2 1_555 1_555
C41_2 C42_2 1_555 1_555
C42_2 C37_2 1_555 1_555
O12_2 C34_2 1_555 1_555
H27_2 C45_2 1_555 1_555
H28_2 C46_2 1_555 1_555
H29_2 C48_2 1_555 1_555
H30_2 C50_2 1_555 1_555
H31_2 C51_2 1_555 1_555
H32_2 C53_2 1_555 1_555
C43_2 C44_2 1_555 1_555
C44_2 C45_2 1_555 1_555
C45_2 C46_2 1_555 1_555
C46_2 C47_2 1_555 1_555
C47_2 C49_2 1_555 1_555
C48_2 C44_2 1_555 1_555
C49_2 C50_2 1_555 1_555
C50_2 C51_2 1_555 1_555
C51_2 C52_2 1_555 1_555
C52_2 C53_2 1_555 1_555
C53_2 N6_2 1_555 1_555
C54_2 C52_2 1_555 1_555
N5_2 C47_2 1_555 1_555
N6_2 C49_2 1_555 1_555
O13_2 Zn3_3 1_555 1_555
O14_2 C43_2 1_555 1_555
O15_2 C54_2 1_555 1_555
O16_2 C54_2 1_555 1_555
Zn5_2 N5_2 1_555 1_555
Zn10 O14_2 1_555 1_555
H34_2 C58_2 1_555 1_555
H35_2 C59_2 1_555 1_555
H37_2 C63_2 1_555 1_555
H38_2 C64_2 1_555 1_555
C55_2 C57_2 1_555 1_555
C57_2 C58_2 1_555 1_555
C58_2 C59_2 1_555 1_555
C59_2 C60_2 1_555 1_555
C63_2 C64_2 1_555 1_555
O29 C55_2 1_555 1_555
O18_2 Zn5_2 1_555 1_555
H39_2 C67_2 1_555 1_555
H40_2 C68_2 1_555 1_555
H41_2 C69_2 1_555 1_555
H42_2 C70_2 1_555 1_555
H43_2 C71_2 1_555 1_555
H44_2 C73_2 1_555 1_555
H45_2 C74_2 1_555 1_555
C67_2 C68_2 1_555 1_555
C68_2 C69_2 1_555 1_555
C69_2 C70_2 1_555 1_555
C70_2 C71_2 1_555 1_555
C71_2 C72_2 1_555 1_555
C72_2 C67_2 1_555 1_555
C73_2 C72_2 1_555 1_555
C74_2 C73_2 1_555 1_555
C75_2 C74_2 1_555 1_555
O21_2 C75_2 1_555 1_555
O34 Zn5_2 1_555 1_555
O25_2 Zn10 1_555 1_555
O27_2 Zn3_3 1_555 1_555
Zn11_2 O15_2 1_555 1_555
Zn13 O16_2 1_555 1_555
O30_2 Zn5_2 1_555 1_555
Zn17 O8_2 1_555 1_555
Zn3_3 O11_2 1_555 1_555
C34_2 O11_2 1_555 1_555
C43_2 O13_2 1_555 1_555
C48_2 N5_2 1_555 1_555
N6_2 Zn5_2 1_555 1_555
C55_2 O18_2 1_555 1_555
C75_2 O34 1_555 1_555
H33_2 C56_2 1_555 1_555
N10 C56_2 1_555 1_555
C62_2 N12 1_555 1_555
H1_2 C3_2 1_555 1_555
H2_2 C4_2 1_555 1_555
H3_2 C6_2 1_555 1_555
H4_2 C8_2 1_555 1_555
H5_2 C9_2 1_555 1_555
H6_2 C11_2 1_555 1_555
C1_2 C2_2 1_555 1_555
C2_2 C3_2 1_555 1_555
C3_2 C4_2 1_555 1_555
C4_2 C5_2 1_555 1_555
C5_2 C7_2 1_555 1_555
C6_2 C2_2 1_555 1_555
C7_2 C8_2 1_555 1_555
C8_2 C9_2 1_555 1_555
C9_2 C10_2 1_555 1_555
C10_2 C11_2 1_555 1_555
C11_2 N2_2 1_555 1_555
C12_2 C10_2 1_555 1_555
N1_2 C5_2 1_555 1_555
N2_2 C7_2 1_555 1_555
O1_2 C1_2 1_555 1_555
O2_2 C1_2 1_555 1_555
O3_2 C12_2 1_555 1_555
O4_2 C12_2 1_555 1_555
Zn1_2 N1_2 1_555 1_555
Zn9 O2_2 1_555 1_555
Zn3_4 O1_2 1_555 1_555
H7_2 C14_2 1_555 1_555
H8_2 C16_2 1_555 1_555
H9_2 C17_2 1_555 1_555
H11_2 C21_2 1_555 1_555
H12_2 C22_2 1_555 1_555
C13_2 C15_2 1_555 1_555
C14_2 C15_2 1_555 1_555
C15_2 C16_2 1_555 1_555
C16_2 C17_2 1_555 1_555
C17_2 C18_2 1_555 1_555
C18_2 C20_2 1_555 1_555
C20_2 C21_2 1_555 1_555
C21_2 C22_2 1_555 1_555
N9 C14_2 1_555 1_555
O5_2 C13_2 1_555 1_555
O6_2 Zn1_2 1_555 1_555
Zn15 O5_2 1_555 1_555
H13_2 C25_2 1_555 1_555
H14_2 C26_2 1_555 1_555
H15_2 C27_2 1_555 1_555
H16_2 C28_2 1_555 1_555
H17_2 C29_2 1_555 1_555
H18_2 C31_2 1_555 1_555
H19_2 C32_2 1_555 1_555
C25_2 C26_2 1_555 1_555
C26_2 C27_2 1_555 1_555
C27_2 C28_2 1_555 1_555
C28_2 C29_2 1_555 1_555
C29_2 C30_2 1_555 1_555
C30_2 C25_2 1_555 1_555
C31_2 C30_2 1_555 1_555
C32_2 C31_2 1_555 1_555
C33_2 C32_2 1_555 1_555
O9_2 C33_2 1_555 1_555
O10_2 Zn1_2 1_555 1_555
H46_2 C77_2 1_555 1_555
H47_2 C78_2 1_555 1_555
H48_2 C80_2 1_555 1_555
H49_2 C81_2 1_555 1_555
H50_2 C82_2 1_555 1_555
H51_2 C83_2 1_555 1_555
H52_2 C84_2 1_555 1_555
C76_2 C77_2 1_555 1_555
C77_2 C78_2 1_555 1_555
C78_2 C79_2 1_555 1_555
C79_2 C80_2 1_555 1_555
C80_2 C81_2 1_555 1_555
C81_2 C82_2 1_555 1_555
C82_2 C83_2 1_555 1_555
C83_2 C84_2 1_555 1_555
C84_2 C79_2 1_555 1_555
O23_2 Zn3_4 1_555 1_555
O24_2 C76_2 1_555 1_555
O26_2 Zn9 1_555 1_555
O28_2 Zn3_4 1_555 1_555
Zn12_2 O3_2 1_555 1_555
Zn13 O4_2 1_555 1_555
O31_2 Zn1_2 1_555 1_555
O32_2 Zn15 1_555 1_555
O33_2 Zn15 1_555 1_555
C6_2 N1_2 1_555 1_555
N2_2 Zn1_2 1_555 1_555
C13_2 O6_2 1_555 1_555
C18_2 N9 1_555 1_555
C20_2 N11 1_555 1_555
Zn15 O10_2 1_555 1_555
C33_2 O10_2 1_555 1_555
C76_2 O23_2 1_555 1_555
H36_2 C61_2 1_555 1_555
C61_2 C65_2 1_555 1_555
C65_2 C66_2 1_555 1_555
C66_2 O19_2 1_555 1_555
O19_2 Zn7_2 1_555 1_555
O20_2 C66_2 1_555 1_555
Zn16_2 O20_2 1_555 1_555
H7_3 C14_3 1_555 1_555
H10_3 C19_3 1_555 1_555
C19_3 C23_3 1_555 1_555
C23_3 C24_3 1_555 1_555
C24_3 O30_2 1_555 1_555
N3_2 C14_3 1_555 1_555
N4_2 C19_3 1_555 1_555
O32 C24_3 1_555 1_555
Zn12_2 N3_2 1_555 1_555
O34_2 Zn16 1_555 1_555
C20_3 N4_2 1_555 1_555
N4_2 Zn12_2 1_555 1_555
H4_3 C8_3 1_555 1_555
H5_3 C9_3 1_555 1_555
H6_3 C11_3 1_555 1_555
C5_3 C7_3 1_555 1_555
C7_3 C8_3 1_555 1_555
C8_3 C9_3 1_555 1_555
C9_3 C10_3 1_555 1_555
C10_3 C11_3 1_555 1_555
C11_3 N2_3 1_555 1_555
C12_3 C10_3 1_555 1_555
N2_3 C7_3 1_555 1_555
O25 C12_3 1_555 1_555
O27 C12_3 1_555 1_555
H8_3 C16_3 1_555 1_555
H9_3 C17_3 1_555 1_555
H11_3 C21_3 1_555 1_555
H12_3 C22_3 1_555 1_555
C13_3 C15_3 1_555 1_555
C15_3 C16_3 1_555 1_555
C16_3 C17_3 1_555 1_555
C17_3 C18_3 1_555 1_555
C21_3 C22_3 1_555 1_555
O5_3 C13_3 1_555 1_555
O6_3 Zn7_2 1_555 1_555
Zn16_2 O5_3 1_555 1_555
H30_3 C50_3 1_555 1_555
H31_3 C51_3 1_555 1_555
H32_3 C53_3 1_555 1_555
C47_3 C49_3 1_555 1_555
C49_3 C50_3 1_555 1_555
C50_3 C51_3 1_555 1_555
C51_3 C52_3 1_555 1_555
C52_3 C53_3 1_555 1_555
C53_3 N6_3 1_555 1_555
C54_3 C52_3 1_555 1_555
N6_3 C49_3 1_555 1_555
O26 C54_3 1_555 1_555
O28 C54_3 1_555 1_555
H33_3 C56_3 1_555 1_555
H34_3 C58_3 1_555 1_555
H35_3 C59_3 1_555 1_555
H36_3 C61_3 1_555 1_555
H37_3 C63_3 1_555 1_555
H38_3 C64_3 1_555 1_555
C55_3 C57_3 1_555 1_555
C56_3 C57_3 1_555 1_555
C57_3 C58_3 1_555 1_555
C58_3 C59_3 1_555 1_555
C59_3 C60_3 1_555 1_555
C60_3 C62_3 1_555 1_555
C61_3 C65_3 1_555 1_555
C62_3 C63_3 1_555 1_555
C63_3 C64_3 1_555 1_555
C64_3 C65_3 1_555 1_555
C65_3 C66_3 1_555 1_555
C66_3 O31_2 1_555 1_555
N7_2 C56_3 1_555 1_555
N8_2 C61_3 1_555 1_555
O17_2 C55_3 1_555 1_555
O18_3 Zn8_2 1_555 1_555
O33_2 C66_3 1_555 1_555
Zn11_2 N7_2 1_555 1_555
Zn17 O17_2 1_555 1_555
N2_3 Zn7_2 1_555 1_555
C13_3 O6_3 1_555 1_555
N6_3 Zn8_2 1_555 1_555
C55_3 O18_3 1_555 1_555
C60_3 N7_2 1_555 1_555
C62_3 N8_2 1_555 1_555
N8_2 Zn11_2 1_555 1_555
O29_2 Zn16_3 1_555 1_555
H1_3 C3_3 1_555 1_555
H3_3 C6_3 1_555 1_555
C1_3 C2_3 1_555 1_555
C2_3 C3_3 1_555 1_555
C3_3 C4_3 1_555 1_555
C6_3 C2_3 1_555 1_555
O1_3 C1_3 1_555 1_555
O2_3 C1_3 1_555 1_555
Zn11 O2_3 1_555 1_555
Zn14 O1_3 1_555 1_555
H13_3 C25_3 1_555 1_555
H14_3 C26_3 1_555 1_555
H15_3 C27_3 1_555 1_555
H16_3 C28_3 1_555 1_555
H17_3 C29_3 1_555 1_555
H18_3 C31_3 1_555 1_555
H19_3 C32_3 1_555 1_555
C25_3 C26_3 1_555 1_555
C26_3 C27_3 1_555 1_555
C27_3 C28_3 1_555 1_555
C28_3 C29_3 1_555 1_555
C29_3 C30_3 1_555 1_555
C30_3 C25_3 1_555 1_555
C31_3 C30_3 1_555 1_555
C32_3 C31_3 1_555 1_555
C33_3 C32_3 1_555 1_555
O9_3 C33_3 1_555 1_555
H20_3 C35_3 1_555 1_555
H21_3 C36_3 1_555 1_555
H22_3 C38_3 1_555 1_555
H23_3 C39_3 1_555 1_555
H24_3 C40_3 1_555 1_555
H26_3 C42_3 1_555 1_555
C34_3 C35_3 1_555 1_555
C35_3 C36_3 1_555 1_555
C36_3 C37_3 1_555 1_555
C37_3 C38_3 1_555 1_555
C38_3 C39_3 1_555 1_555
C39_3 C40_3 1_555 1_555
C40_3 C41_3 1_555 1_555
C41_3 C42_3 1_555 1_555
C42_3 C37_3 1_555 1_555
O11_3 Zn11 1_555 1_555
O12_3 C34_3 1_555 1_555
H27_3 C45_3 1_555 1_555
H29_3 C48_3 1_555 1_555
C43_3 C44_3 1_555 1_555
C44_3 C45_3 1_555 1_555
C45_3 C46_3 1_555 1_555
C48_3 C44_3 1_555 1_555
O13_3 Zn14 1_555 1_555
O14_3 C43_3 1_555 1_555
Zn12 O14_3 1_555 1_555
H39_3 C67_3 1_555 1_555
H40_3 C68_3 1_555 1_555
H41_3 C69_3 1_555 1_555
H42_3 C70_3 1_555 1_555
H43_3 C71_3 1_555 1_555
H44_3 C73_3 1_555 1_555
H45_3 C74_3 1_555 1_555
C67_3 C68_3 1_555 1_555
C68_3 C69_3 1_555 1_555
C69_3 C70_3 1_555 1_555
C70_3 C71_3 1_555 1_555
C71_3 C72_3 1_555 1_555
C72_3 C67_3 1_555 1_555
C73_3 C72_3 1_555 1_555
C74_3 C73_3 1_555 1_555
C75_3 C74_3 1_555 1_555
O21_3 C75_3 1_555 1_555
H46_3 C77_3 1_555 1_555
H47_3 C78_3 1_555 1_555
H48_3 C80_3 1_555 1_555
H49_3 C81_3 1_555 1_555
H50_3 C82_3 1_555 1_555
H52_3 C84_3 1_555 1_555
C76_3 C77_3 1_555 1_555
C77_3 C78_3 1_555 1_555
C78_3 C79_3 1_555 1_555
C79_3 C80_3 1_555 1_555
C80_3 C81_3 1_555 1_555
C81_3 C82_3 1_555 1_555
C82_3 C83_3 1_555 1_555
C83_3 C84_3 1_555 1_555
C84_3 C79_3 1_555 1_555
O23_3 Zn14 1_555 1_555
O24_3 C76_3 1_555 1_555
N9_2 Zn12 1_555 1_555
N10_2 Zn11 1_555 1_555
N11_2 Zn12 1_555 1_555
N12_2 Zn11 1_555 1_555
C6_3 N1_3 1_555 1_555
Zn14 O11_3 1_555 1_555
Zn16_4 O10_3 1_555 1_555
C33_3 O10_3 1_555 1_555
C34_3 O11_3 1_555 1_555
C43_3 O13_3 1_555 1_555
C48_3 N5_3 1_555 1_555
Zn12 O23_3 1_555 1_555
C75_3 O22_2 1_555 1_555
O22_2 Zn17_2 1_555 1_555
C76_3 O23_3 1_555 1_555
H1_4 C3_4 1_555 1_555
H3_4 C6_4 1_555 1_555
C1_4 C2_4 1_555 1_555
C2_4 C3_4 1_555 1_555
C3_4 C4_4 1_555 1_555
C6_4 C2_4 1_555 1_555
O1_4 C1_4 1_555 1_555
O2_4 C1_4 1_555 1_555
Zn11_2 O2_4 1_555 1_555
Zn13 O1_4 1_555 1_555
H13_4 C25_4 1_555 1_555
H14_4 C26_4 1_555 1_555
H15_4 C27_4 1_555 1_555
H16_4 C28_4 1_555 1_555
H17_4 C29_4 1_555 1_555
H18_4 C31_4 1_555 1_555
H19_4 C32_4 1_555 1_555
C25_4 C26_4 1_555 1_555
C26_4 C27_4 1_555 1_555
C27_4 C28_4 1_555 1_555
C28_4 C29_4 1_555 1_555
C29_4 C30_4 1_555 1_555
C30_4 C25_4 1_555 1_555
C31_4 C30_4 1_555 1_555
C32_4 C31_4 1_555 1_555
C33_4 C32_4 1_555 1_555
O9_4 C33_4 1_555 1_555
H20_4 C35_4 1_555 1_555
H21_4 C36_4 1_555 1_555
H22_4 C38_4 1_555 1_555
H23_4 C39_4 1_555 1_555
H24_4 C40_4 1_555 1_555
H26_4 C42_4 1_555 1_555
C34_4 C35_4 1_555 1_555
C35_4 C36_4 1_555 1_555
C36_4 C37_4 1_555 1_555
C37_4 C38_4 1_555 1_555
C38_4 C39_4 1_555 1_555
C39_4 C40_4 1_555 1_555
C40_4 C41_4 1_555 1_555
C41_4 C42_4 1_555 1_555
C42_4 C37_4 1_555 1_555
O11_4 Zn11_2 1_555 1_555
O12_4 C34_4 1_555 1_555
H27_4 C45_4 1_555 1_555
H29_4 C48_4 1_555 1_555
C43_4 C44_4 1_555 1_555
C44_4 C45_4 1_555 1_555
C45_4 C46_4 1_555 1_555
C48_4 C44_4 1_555 1_555
O13_4 Zn13 1_555 1_555
O14_4 C43_4 1_555 1_555
Zn12_2 O14_4 1_555 1_555
H39_4 C67_4 1_555 1_555
H40_4 C68_4 1_555 1_555
H41_4 C69_4 1_555 1_555
H42_4 C70_4 1_555 1_555
H43_4 C71_4 1_555 1_555
H44_4 C73_4 1_555 1_555
H45_4 C74_4 1_555 1_555
C67_4 C68_4 1_555 1_555
C68_4 C69_4 1_555 1_555
C69_4 C70_4 1_555 1_555
C70_4 C71_4 1_555 1_555
C71_4 C72_4 1_555 1_555
C72_4 C67_4 1_555 1_555
C73_4 C72_4 1_555 1_555
C74_4 C73_4 1_555 1_555
C75_4 C74_4 1_555 1_555
O21_4 C75_4 1_555 1_555
H46_4 C77_4 1_555 1_555
H47_4 C78_4 1_555 1_555
H48_4 C80_4 1_555 1_555
H49_4 C81_4 1_555 1_555
H50_4 C82_4 1_555 1_555
H52_4 C84_4 1_555 1_555
C76_4 C77_4 1_555 1_555
C77_4 C78_4 1_555 1_555
C78_4 C79_4 1_555 1_555
C79_4 C80_4 1_555 1_555
C80_4 C81_4 1_555 1_555
C81_4 C82_4 1_555 1_555
C82_4 C83_4 1_555 1_555
C83_4 C84_4 1_555 1_555
C84_4 C79_4 1_555 1_555
O23_4 Zn13 1_555 1_555
O24_4 C76_4 1_555 1_555
C6_4 N1_4 1_555 1_555
Zn13 O11_4 1_555 1_555
Zn17 O10_4 1_555 1_555
C33_4 O10_4 1_555 1_555
C34_4 O11_4 1_555 1_555
C43_4 O13_4 1_555 1_555
C48_4 N5_4 1_555 1_555
Zn12_2 O23_4 1_555 1_555
C75_4 O34_2 1_555 1_555
C76_4 O23_4 1_555 1_555
H4_4 C8_4 1_555 1_555
H5_4 C9_4 1_555 1_555
H6_4 C11_4 1_555 1_555
C5_4 C7_4 1_555 1_555
C7_4 C8_4 1_555 1_555
C8_4 C9_4 1_555 1_555
C9_4 C10_4 1_555 1_555
C10_4 C11_4 1_555 1_555
C11_4 N2_4 1_555 1_555
C12_4 C10_4 1_555 1_555
N2_4 C7_4 1_555 1_555
O25_2 C12_4 1_555 1_555
O27_2 C12_4 1_555 1_555
H7_4 C14_4 1_555 1_555
H8_4 C16_4 1_555 1_555
H9_4 C17_4 1_555 1_555
H10_4 C19_4 1_555 1_555
H11_4 C21_4 1_555 1_555
H12_4 C22_4 1_555 1_555
C13_4 C15_4 1_555 1_555
C14_4 C15_4 1_555 1_555
C15_4 C16_4 1_555 1_555
C16_4 C17_4 1_555 1_555
C17_4 C18_4 1_555 1_555
C18_4 C20_4 1_555 1_555
C19_4 C23_4 1_555 1_555
C20_4 C21_4 1_555 1_555
C21_4 C22_4 1_555 1_555
C22_4 C23_4 1_555 1_555
C23_4 C24_4 1_555 1_555
C24_4 O30 1_555 1_555
N9_2 C14_4 1_555 1_555
N11_2 C19_4 1_555 1_555
O5_4 C13_4 1_555 1_555
O6_4 Zn7 1_555 1_555
O32_2 C24_4 1_555 1_555
Zn17_2 O5_4 1_555 1_555
H30_4 C50_4 1_555 1_555
H31_4 C51_4 1_555 1_555
H32_4 C53_4 1_555 1_555
C47_4 C49_4 1_555 1_555
C49_4 C50_4 1_555 1_555
C50_4 C51_4 1_555 1_555
C51_4 C52_4 1_555 1_555
C52_4 C53_4 1_555 1_555
C53_4 N6_4 1_555 1_555
C54_4 C52_4 1_555 1_555
N6_4 C49_4 1_555 1_555
O26_2 C54_4 1_555 1_555
O28_2 C54_4 1_555 1_555
H34_4 C58_4 1_555 1_555
H35_4 C59_4 1_555 1_555
H37_4 C63_4 1_555 1_555
H38_4 C64_4 1_555 1_555
C55_4 C57_4 1_555 1_555
C57_4 C58_4 1_555 1_555
C58_4 C59_4 1_555 1_555
C59_4 C60_4 1_555 1_555
C63_4 C64_4 1_555 1_555
O29_2 C55_4 1_555 1_555
O18_4 Zn8 1_555 1_555
N2_4 Zn7 1_555 1_555
C13_4 O6_4 1_555 1_555
C18_4 N9_2 1_555 1_555
C20_4 N11_2 1_555 1_555
N6_4 Zn8 1_555 1_555
C55_4 O18_4 1_555 1_555
H33_4 C56_4 1_555 1_555
H36_4 C61_4 1_555 1_555
C61_4 C65_4 1_555 1_555
C65_4 C66_4 1_555 1_555
C66_4 O31 1_555 1_555
N10_2 C56_4 1_555 1_555
N12_2 C61_4 1_555 1_555
O33 C66_4 1_555 1_555
C62_4 N12_2 1_555 1_555

#END
