
###############################################################################
#
# This file contains modified crystal structure data generated from the
# MOF subset of the Cambridge Structural Database (CSD) v543 
# hosted by the Cambridge Crystallographic Data Centre (CCDC).
#
# This work is licensed under the Creative Commons
# Attribution-NonCommercial-ShareAlike 4.0 International License.
# To view a copy of this license, visit
# http://creativecommons.org/licenses/by-nc-sa/4.0/
# or send a letter to
# Creative Commons, PO Box 1866, Mountain View, CA 94042, USA.
#
# CIF created using the CSD Python API on 29 September 2022
# The structure has been converted into the P1 space group
# The structure has a 3D framework
# The original CSD entry LACJEH is in the orthorhombic crystal system
# The original CSD entry LACJEH is in a Sohncke space group
# The framework has been calculated to contain at least 10.0% void space
# The void calculation uses a probe of radius 1.32A, grid spacing 0.4
#
###############################################################################

data_LACJEH
_chemical_formula_moiety         '(C208 H112 N32 O92 Zn28)n'
_symmetry_cell_setting           triclinic
_symmetry_space_group_name_H-M   'P 1'
_symmetry_Int_Tables_number      1
_space_group_name_Hall           'P 1'
loop_
_symmetry_equiv_pos_site_id
_symmetry_equiv_pos_as_xyz
1 x,y,z
_cell_length_a                   27.8213
_cell_length_b                   10.1840
_cell_length_c                   21.6261
_cell_angle_alpha                90
_cell_angle_beta                 90
_cell_angle_gamma                90
_cell_volume                     6127.37
loop_
_atom_site_label
_atom_site_type_symbol
_atom_site_fract_x
_atom_site_fract_y
_atom_site_fract_z
_atom_site_U_iso_or_equiv
_atom_site_thermal_displace_type
H8 H 0.05855 0.11382 0.09791 0.0500 Uiso
H9 H 0.14385 0.15415 0.11106 0.0500 Uiso
C14 C 0.20481 0.28080 0.03703 0.0500 Uiso
C15 C 0.07689 0.16920 0.06250 0.0500 Uiso
C16 C 0.12643 0.19041 0.06968 0.0500 Uiso
C17 C 0.15247 0.26505 0.02667 0.0500 Uiso
C19 C 0.05211 0.22136 0.01112 0.0500 Uiso
O7 O 0.22250 0.37965 0.00901 0.0500 Uiso
O8 O 0.22860 0.22771 0.08182 0.0500 Uiso
Zn4 Zn 0.26820 0.50000 -0.00000 0.0500 Uiso
O25 O 0.26821 0.50248 0.09080 0.0500 Uiso
Zn8 Zn 0.27155 0.34014 0.12780 0.0500 Uiso
O33 O 0.31714 0.62625 0.00509 0.0500 Uiso
H1 H 0.27523 0.29051 0.89014 0.0500 Uiso
H2 H 0.17003 0.55542 0.88705 0.0500 Uiso
H3 H 0.20393 0.57936 0.66327 0.0500 Uiso
H4 H 0.12523 0.50826 0.69659 0.0500 Uiso
H5 H 0.38467 0.67203 0.82147 0.0500 Uiso
H6 H 0.36539 0.62281 0.62597 0.0500 Uiso
H7 H 0.28045 0.58917 0.64226 0.0500 Uiso
C1 C 0.27798 0.38922 0.87168 0.0500 Uiso
C2 C 0.09349 0.48678 0.81336 0.0500 Uiso
C3 C 0.14174 0.51397 0.79444 0.0500 Uiso
C4 C 0.17851 0.54563 0.83729 0.0500 Uiso
C5 C 0.23271 0.59977 0.75644 0.0500 Uiso
C6 C 0.19703 0.57317 0.71227 0.0500 Uiso
C7 C 0.15156 0.53324 0.73152 0.0500 Uiso
C8 C 0.28320 0.62501 0.74152 0.0500 Uiso
C9 C 0.36152 0.66069 0.78219 0.0500 Uiso
C10 C 0.38236 0.65685 0.72246 0.0500 Uiso
C11 C 0.35170 0.62814 0.67274 0.0500 Uiso
C12 C 0.30254 0.61181 0.68190 0.0500 Uiso
C13 C 0.43539 0.68341 0.71087 0.0500 Uiso
N1 N 0.31256 0.64836 0.79047 0.0500 Uiso
N2 N 0.22219 0.59310 0.81752 0.0500 Uiso
O1 O 0.28990 0.40525 0.81803 0.0500 Uiso
O2 O 0.26821 0.49752 0.90920 0.0500 Uiso
O3 O 0.08641 0.44494 0.86848 0.0500 Uiso
O4 O 0.05919 0.48878 0.77312 0.0500 Uiso
O5 O 0.45147 0.67968 0.65554 0.0500 Uiso
O6 O 0.45890 0.74326 0.75348 0.0500 Uiso
Zn1 Zn 0.27155 0.65986 0.87220 0.0500 Uiso
Zn2 Zn 0.03648 0.33657 0.89850 0.0500 Uiso
Zn3 Zn 0.00000 0.39345 0.75000 0.0500 Uiso
H10 H 0.14505 0.36462 0.93819 0.0500 Uiso
C18 C 0.12622 0.30989 0.97348 0.0500 Uiso
N4 N 0.07725 0.28633 0.96672 0.0500 Uiso
Zn4_2 Zn 0.26820 0.50000 1.00000 0.0500 Uiso
H25 H 0.10430 0.10554 0.43024 0.0500 Uiso
H26 H 0.01928 0.11855 0.41021 0.0500 Uiso
H27 H 0.08196 0.29214 0.60678 0.0500 Uiso
C46 C 0.08171 0.15070 0.46505 0.0500 Uiso
C47 C 0.03227 0.15640 0.45372 0.0500 Uiso
C48 C 0.00098 0.21012 0.49801 0.0500 Uiso
C49 C 0.06863 0.25356 0.56375 0.0500 Uiso
C50 C 0.10174 0.19658 0.52078 0.0500 Uiso
C51 C 0.15537 0.18232 0.53439 0.0500 Uiso
N7 N 0.01956 0.25886 0.55157 0.0500 Uiso
O21 O 0.18286 0.12625 0.49491 0.0500 Uiso
O22 O 0.17229 0.21485 0.58750 0.0500 Uiso
H28 H 0.01502 0.55689 0.57162 0.0500 Uiso
C52 C 0.00855 0.55190 0.62096 0.0500 Uiso
O23 O 0.00790 0.43092 0.65191 0.0500 Uiso
O24 O 0.00255 0.65313 0.65000 0.0500 Uiso
O27 O 0.04853 0.17968 0.84446 0.0500 Uiso
O29 O 0.04110 0.24326 0.74652 0.0500 Uiso
Zn10 Zn 0.22845 0.15986 0.62780 0.0500 Uiso
Zn12 Zn 0.46352 0.83657 0.60150 0.0500 Uiso
Zn14 Zn 0.50000 0.89345 0.75000 0.0500 Uiso
O30 O 0.22250 0.62035 0.99099 0.0500 Uiso
O32 O 0.22860 0.77229 0.91818 0.0500 Uiso
O34 O 0.31714 0.37375 0.99491 0.0500 Uiso
O35 O 0.32771 0.71485 0.91250 0.0500 Uiso
Zn17 Zn 0.23180 0.00000 0.50000 0.0500 Uiso
Zn17_2 Zn 0.23180 1.00000 0.50000 0.0500 Uiso
H11 H 0.89570 0.10554 0.06976 0.0500 Uiso
H12 H 0.98072 0.11855 0.08979 0.0500 Uiso
C20 C 0.91829 0.15070 0.03495 0.0500 Uiso
C21 C 0.96773 0.15640 0.04628 0.0500 Uiso
C22 C 0.99902 0.21012 0.00199 0.0500 Uiso
O9 O 0.81714 0.12625 0.00509 0.0500 Uiso
Zn16 Zn 0.76820 0.00000 -0.00000 0.0500 Uiso
Zn3_2 Zn 1.00000 0.39345 0.75000 0.0500 Uiso
H13 H 0.91804 0.29214 0.89322 0.0500 Uiso
C23 C 0.93137 0.25356 0.93625 0.0500 Uiso
C24 C 0.89826 0.19658 0.97922 0.0500 Uiso
C25 C 0.84463 0.18232 0.96561 0.0500 Uiso
N3 N 0.98044 0.25886 0.94843 0.0500 Uiso
O10 O 0.82771 0.21485 0.91250 0.0500 Uiso
H14 H 0.98498 0.55689 0.92838 0.0500 Uiso
C26 C 0.99145 0.55190 0.87904 0.0500 Uiso
O11 O 0.99210 0.43092 0.84809 0.0500 Uiso
O12 O 0.99745 0.65313 0.85000 0.0500 Uiso
H15 H 0.72477 0.29051 0.60986 0.0500 Uiso
H16 H 0.82997 0.55542 0.61295 0.0500 Uiso
H17 H 0.79607 0.57936 0.83673 0.0500 Uiso
H18 H 0.87477 0.50826 0.80341 0.0500 Uiso
H19 H 0.61533 0.67203 0.67853 0.0500 Uiso
H20 H 0.63461 0.62281 0.87403 0.0500 Uiso
H21 H 0.71955 0.58917 0.85774 0.0500 Uiso
C27 C 0.72202 0.38922 0.62832 0.0500 Uiso
C28 C 0.90651 0.48678 0.68664 0.0500 Uiso
C29 C 0.85826 0.51397 0.70556 0.0500 Uiso
C30 C 0.82149 0.54563 0.66271 0.0500 Uiso
C31 C 0.76729 0.59977 0.74356 0.0500 Uiso
C32 C 0.80297 0.57317 0.78773 0.0500 Uiso
C33 C 0.84844 0.53324 0.76848 0.0500 Uiso
C34 C 0.71680 0.62501 0.75848 0.0500 Uiso
C35 C 0.63848 0.66069 0.71781 0.0500 Uiso
C36 C 0.61764 0.65685 0.77754 0.0500 Uiso
C37 C 0.64830 0.62814 0.82726 0.0500 Uiso
C38 C 0.69746 0.61181 0.81810 0.0500 Uiso
C39 C 0.56461 0.68341 0.78913 0.0500 Uiso
N5 N 0.68744 0.64836 0.70953 0.0500 Uiso
N6 N 0.77781 0.59310 0.68248 0.0500 Uiso
O13 O 0.71010 0.40525 0.68197 0.0500 Uiso
O14 O 0.73179 0.49752 0.59080 0.0500 Uiso
O15 O 0.91359 0.44494 0.63152 0.0500 Uiso
O16 O 0.94081 0.48878 0.72688 0.0500 Uiso
O17 O 0.54853 0.67968 0.84446 0.0500 Uiso
O18 O 0.54110 0.74326 0.74652 0.0500 Uiso
Zn5 Zn 0.72845 0.65986 0.62780 0.0500 Uiso
Zn6 Zn 0.96352 0.33657 0.60150 0.0500 Uiso
H22 H 0.94145 0.11382 0.40209 0.0500 Uiso
H23 H 0.85615 0.15415 0.38894 0.0500 Uiso
H24 H 0.85495 0.36462 0.56181 0.0500 Uiso
C40 C 0.79519 0.28080 0.46297 0.0500 Uiso
C41 C 0.92311 0.16920 0.43750 0.0500 Uiso
C42 C 0.87357 0.19041 0.43032 0.0500 Uiso
C43 C 0.84753 0.26505 0.47333 0.0500 Uiso
C44 C 0.87378 0.30989 0.52652 0.0500 Uiso
C45 C 0.94789 0.22136 0.48888 0.0500 Uiso
N8 N 0.92275 0.28633 0.53328 0.0500 Uiso
O19 O 0.77750 0.37965 0.49099 0.0500 Uiso
O20 O 0.77140 0.22771 0.41818 0.0500 Uiso
O26 O 0.95147 0.17968 0.65554 0.0500 Uiso
O28 O 0.95890 0.24326 0.75348 0.0500 Uiso
Zn7 Zn 0.72845 0.34014 0.37220 0.0500 Uiso
Zn9 Zn 0.77155 0.15986 0.87220 0.0500 Uiso
Zn11 Zn 0.53648 0.83657 0.89850 0.0500 Uiso
O31 O 0.77140 0.77229 0.58182 0.0500 Uiso
O36 O 0.67229 0.71485 0.58750 0.0500 Uiso
Zn15 Zn 0.73180 0.50000 0.50000 0.0500 Uiso
Zn16_2 Zn 0.76820 0.00000 1.00000 0.0500 Uiso
Zn16_3 Zn 0.76820 1.00000 -0.00000 0.0500 Uiso
Zn16_4 Zn 0.76820 1.00000 1.00000 0.0500 Uiso
Zn3_3 Zn 0.00000 0.60655 0.25000 0.0500 Uiso
H11_2 H 0.10430 0.89446 0.56976 0.0500 Uiso
H12_2 H 0.01928 0.88145 0.58979 0.0500 Uiso
H13_2 H 0.08196 0.70786 0.39322 0.0500 Uiso
C20_2 C 0.08171 0.84930 0.53495 0.0500 Uiso
C21_2 C 0.03227 0.84360 0.54628 0.0500 Uiso
C22_2 C 0.00098 0.78988 0.50199 0.0500 Uiso
C23_2 C 0.06863 0.74644 0.43625 0.0500 Uiso
C24_2 C 0.10174 0.80342 0.47922 0.0500 Uiso
C25_2 C 0.15537 0.81768 0.46561 0.0500 Uiso
N3_2 N 0.01956 0.74114 0.44843 0.0500 Uiso
O9_2 O 0.18286 0.87375 0.50509 0.0500 Uiso
O10_2 O 0.17229 0.78515 0.41250 0.0500 Uiso
H14_2 H 0.01502 0.44311 0.42838 0.0500 Uiso
C26_2 C 0.00855 0.44810 0.37904 0.0500 Uiso
O11_2 O 0.00790 0.56908 0.34809 0.0500 Uiso
O12_2 O 0.00255 0.34687 0.35000 0.0500 Uiso
H15_2 H 0.27523 0.70949 0.10986 0.0500 Uiso
H16_2 H 0.17003 0.44458 0.11295 0.0500 Uiso
H17_2 H 0.20393 0.42064 0.33673 0.0500 Uiso
H18_2 H 0.12523 0.49174 0.30341 0.0500 Uiso
H19_2 H 0.38467 0.32797 0.17853 0.0500 Uiso
H20_2 H 0.36539 0.37719 0.37403 0.0500 Uiso
H21_2 H 0.28045 0.41083 0.35774 0.0500 Uiso
C27_2 C 0.27798 0.61078 0.12832 0.0500 Uiso
C28_2 C 0.09349 0.51322 0.18664 0.0500 Uiso
C29_2 C 0.14174 0.48603 0.20556 0.0500 Uiso
C30_2 C 0.17851 0.45437 0.16271 0.0500 Uiso
C31_2 C 0.23271 0.40023 0.24356 0.0500 Uiso
C32_2 C 0.19703 0.42683 0.28773 0.0500 Uiso
C33_2 C 0.15156 0.46676 0.26848 0.0500 Uiso
C34_2 C 0.28320 0.37499 0.25848 0.0500 Uiso
C35_2 C 0.36152 0.33931 0.21781 0.0500 Uiso
C36_2 C 0.38236 0.34315 0.27754 0.0500 Uiso
C37_2 C 0.35170 0.37186 0.32726 0.0500 Uiso
C38_2 C 0.30254 0.38819 0.31810 0.0500 Uiso
C39_2 C 0.43539 0.31659 0.28913 0.0500 Uiso
N5_2 N 0.31256 0.35164 0.20953 0.0500 Uiso
N6_2 N 0.22219 0.40690 0.18248 0.0500 Uiso
O13_2 O 0.28990 0.59475 0.18197 0.0500 Uiso
O15_2 O 0.08641 0.55506 0.13152 0.0500 Uiso
O16_2 O 0.05919 0.51122 0.22688 0.0500 Uiso
O17_2 O 0.45147 0.32032 0.34446 0.0500 Uiso
O18_2 O 0.45890 0.25674 0.24652 0.0500 Uiso
Zn6_2 Zn 0.03648 0.66343 0.10150 0.0500 Uiso
H24_2 H 0.14505 0.63538 0.06181 0.0500 Uiso
C44_2 C 0.12622 0.69011 0.02652 0.0500 Uiso
N8_2 N 0.07725 0.71367 0.03328 0.0500 Uiso
O26_2 O 0.04853 0.82032 0.15554 0.0500 Uiso
O28_2 O 0.04110 0.75674 0.25348 0.0500 Uiso
Zn9_2 Zn 0.22845 0.84014 0.37220 0.0500 Uiso
Zn11_2 Zn 0.46352 0.16343 0.39850 0.0500 Uiso
Zn13 Zn 0.50000 0.10655 0.25000 0.0500 Uiso
O36_2 O 0.32771 0.28515 0.08750 0.0500 Uiso
H22_2 H 0.05855 0.88618 0.90209 0.0500 Uiso
H23_2 H 0.14385 0.84585 0.88894 0.0500 Uiso
C40_2 C 0.20481 0.71920 0.96297 0.0500 Uiso
C41_2 C 0.07689 0.83080 0.93750 0.0500 Uiso
C42_2 C 0.12643 0.80959 0.93032 0.0500 Uiso
C43_2 C 0.15247 0.73495 0.97333 0.0500 Uiso
C45_2 C 0.05211 0.77864 0.98888 0.0500 Uiso
H1_2 H 0.72477 0.70949 0.39014 0.0500 Uiso
H2_2 H 0.82997 0.44458 0.38705 0.0500 Uiso
H3_2 H 0.79607 0.42064 0.16327 0.0500 Uiso
H4_2 H 0.87477 0.49174 0.19659 0.0500 Uiso
H5_2 H 0.61533 0.32797 0.32147 0.0500 Uiso
H6_2 H 0.63461 0.37719 0.12597 0.0500 Uiso
H7_2 H 0.71955 0.41083 0.14226 0.0500 Uiso
C1_2 C 0.72202 0.61078 0.37168 0.0500 Uiso
C2_2 C 0.90651 0.51322 0.31336 0.0500 Uiso
C3_2 C 0.85826 0.48603 0.29444 0.0500 Uiso
C4_2 C 0.82149 0.45437 0.33729 0.0500 Uiso
C5_2 C 0.76729 0.40023 0.25644 0.0500 Uiso
C6_2 C 0.80297 0.42683 0.21227 0.0500 Uiso
C7_2 C 0.84844 0.46676 0.23152 0.0500 Uiso
C8_2 C 0.71680 0.37499 0.24152 0.0500 Uiso
C9_2 C 0.63848 0.33931 0.28219 0.0500 Uiso
C10_2 C 0.61764 0.34315 0.22246 0.0500 Uiso
C11_2 C 0.64830 0.37186 0.17274 0.0500 Uiso
C12_2 C 0.69746 0.38819 0.18190 0.0500 Uiso
C13_2 C 0.56461 0.31659 0.21087 0.0500 Uiso
N1_2 N 0.68744 0.35164 0.29047 0.0500 Uiso
N2_2 N 0.77781 0.40690 0.31752 0.0500 Uiso
O1_2 O 0.71010 0.59475 0.31803 0.0500 Uiso
O2_2 O 0.73179 0.50248 0.40920 0.0500 Uiso
O3_2 O 0.91359 0.55506 0.36848 0.0500 Uiso
O4_2 O 0.94081 0.51122 0.27312 0.0500 Uiso
O5_2 O 0.54853 0.32032 0.15554 0.0500 Uiso
O6_2 O 0.54110 0.25674 0.25348 0.0500 Uiso
Zn2_2 Zn 0.96352 0.66343 0.39850 0.0500 Uiso
Zn3_4 Zn 1.00000 0.60655 0.25000 0.0500 Uiso
H8_2 H 0.94145 0.88618 0.59791 0.0500 Uiso
H9_2 H 0.85615 0.84585 0.61106 0.0500 Uiso
H10_2 H 0.85495 0.63538 0.43819 0.0500 Uiso
C14_2 C 0.79519 0.71920 0.53703 0.0500 Uiso
C15_2 C 0.92311 0.83080 0.56250 0.0500 Uiso
C16_2 C 0.87357 0.80959 0.56968 0.0500 Uiso
C17_2 C 0.84753 0.73495 0.52667 0.0500 Uiso
C18_2 C 0.87378 0.69011 0.47348 0.0500 Uiso
C19_2 C 0.94789 0.77864 0.51112 0.0500 Uiso
N4_2 N 0.92275 0.71367 0.46672 0.0500 Uiso
O7_2 O 0.77750 0.62035 0.50901 0.0500 Uiso
H27_2 H 0.91804 0.70786 0.10678 0.0500 Uiso
C49_2 C 0.93137 0.74644 0.06375 0.0500 Uiso
C50_2 C 0.89826 0.80342 0.02078 0.0500 Uiso
C51_2 C 0.84463 0.81768 0.03439 0.0500 Uiso
N7_2 N 0.98044 0.74114 0.05157 0.0500 Uiso
O22_2 O 0.82771 0.78515 0.08750 0.0500 Uiso
H28_2 H 0.98498 0.44311 0.07162 0.0500 Uiso
C52_2 C 0.99145 0.44810 0.12096 0.0500 Uiso
O23_2 O 0.99210 0.56908 0.15191 0.0500 Uiso
O24_2 O 0.99745 0.34687 0.15000 0.0500 Uiso
O27_2 O 0.95147 0.82032 0.34446 0.0500 Uiso
O29_2 O 0.95890 0.75674 0.24652 0.0500 Uiso
Zn10_2 Zn 0.77155 0.84014 0.12780 0.0500 Uiso
Zn12_2 Zn 0.53648 0.16343 0.10150 0.0500 Uiso
O33_2 O 0.68286 0.37375 0.50509 0.0500 Uiso
O34_2 O 0.68286 0.62625 0.49491 0.0500 Uiso
O35_2 O 0.67229 0.28515 0.41250 0.0500 Uiso
H25_2 H 0.89570 0.89446 0.93024 0.0500 Uiso
H26_2 H 0.98072 0.88145 0.91021 0.0500 Uiso
C46_2 C 0.91829 0.84930 0.96505 0.0500 Uiso
C47_2 C 0.96773 0.84360 0.95372 0.0500 Uiso
C48_2 C 0.99902 0.78988 0.99801 0.0500 Uiso
O21_2 O 0.81714 0.87375 0.99491 0.0500 Uiso
O25_2 O 0.76821 0.00248 0.09080 0.0500 Uiso
H2_3 H 0.67003 0.05542 0.88705 0.0500 Uiso
H3_3 H 0.70393 0.07936 0.66327 0.0500 Uiso
H4_3 H 0.62523 0.00826 0.69659 0.0500 Uiso
H5_3 H 0.88467 0.17203 0.82147 0.0500 Uiso
H6_3 H 0.86539 0.12281 0.62597 0.0500 Uiso
H7_3 H 0.78045 0.08917 0.64226 0.0500 Uiso
C3_3 C 0.64174 0.01397 0.79444 0.0500 Uiso
C4_3 C 0.67851 0.04563 0.83729 0.0500 Uiso
C5_3 C 0.73271 0.09977 0.75644 0.0500 Uiso
C6_3 C 0.69703 0.07317 0.71227 0.0500 Uiso
C7_3 C 0.65156 0.03324 0.73152 0.0500 Uiso
C8_3 C 0.78320 0.12501 0.74152 0.0500 Uiso
C9_3 C 0.86152 0.16069 0.78219 0.0500 Uiso
C10_3 C 0.88236 0.15685 0.72246 0.0500 Uiso
C11_3 C 0.85170 0.12814 0.67274 0.0500 Uiso
C12_3 C 0.80254 0.11181 0.68190 0.0500 Uiso
C13_3 C 0.93539 0.18341 0.71087 0.0500 Uiso
N1_3 N 0.81256 0.14836 0.79047 0.0500 Uiso
N2_3 N 0.72219 0.09310 0.81752 0.0500 Uiso
H14_3 H 0.48498 0.05689 0.92838 0.0500 Uiso
C26_3 C 0.49145 0.05190 0.87904 0.0500 Uiso
O12_3 O 0.49745 0.15313 0.85000 0.0500 Uiso
H16_3 H 0.32997 0.05542 0.61295 0.0500 Uiso
H17_3 H 0.29607 0.07936 0.83673 0.0500 Uiso
H18_3 H 0.37477 0.00826 0.80341 0.0500 Uiso
H19_3 H 0.11533 0.17203 0.67853 0.0500 Uiso
H20_3 H 0.13461 0.12281 0.87403 0.0500 Uiso
H21_3 H 0.21955 0.08917 0.85774 0.0500 Uiso
C29_3 C 0.35826 0.01397 0.70556 0.0500 Uiso
C30_3 C 0.32149 0.04563 0.66271 0.0500 Uiso
C31_3 C 0.26729 0.09977 0.74356 0.0500 Uiso
C32_3 C 0.30297 0.07317 0.78773 0.0500 Uiso
C33_3 C 0.34844 0.03324 0.76848 0.0500 Uiso
C34_3 C 0.21680 0.12501 0.75848 0.0500 Uiso
C35_3 C 0.13848 0.16069 0.71781 0.0500 Uiso
C36_3 C 0.11764 0.15685 0.77754 0.0500 Uiso
C37_3 C 0.14830 0.12814 0.82726 0.0500 Uiso
C38_3 C 0.19746 0.11181 0.81810 0.0500 Uiso
C39_3 C 0.06461 0.18341 0.78913 0.0500 Uiso
N5_3 N 0.18744 0.14836 0.70953 0.0500 Uiso
N6_3 N 0.27781 0.09310 0.68248 0.0500 Uiso
H28_3 H 0.51502 0.05689 0.57162 0.0500 Uiso
C52_3 C 0.50855 0.05190 0.62096 0.0500 Uiso
O24_3 O 0.50255 0.15313 0.65000 0.0500 Uiso
O30_2 O 0.72250 0.12035 0.99099 0.0500 Uiso
O31_2 O 0.27140 0.27229 0.58182 0.0500 Uiso
O32_2 O 0.72860 0.27229 0.91818 0.0500 Uiso
H8_3 H 0.55855 0.61382 0.09791 0.0500 Uiso
H9_3 H 0.64385 0.65415 0.11106 0.0500 Uiso
H11_3 H 0.39570 0.60554 0.06976 0.0500 Uiso
H12_3 H 0.48072 0.61855 0.08979 0.0500 Uiso
C14_3 C 0.70481 0.78080 0.03703 0.0500 Uiso
C15_3 C 0.57689 0.66920 0.06250 0.0500 Uiso
C16_3 C 0.62643 0.69041 0.06968 0.0500 Uiso
C17_3 C 0.65247 0.76505 0.02667 0.0500 Uiso
C19_3 C 0.55211 0.72136 0.01112 0.0500 Uiso
C20_3 C 0.41829 0.65070 0.03495 0.0500 Uiso
C21_3 C 0.46773 0.65640 0.04628 0.0500 Uiso
C22_3 C 0.49902 0.71012 0.00199 0.0500 Uiso
O7_3 O 0.72250 0.87965 0.00901 0.0500 Uiso
O8_2 O 0.72860 0.72771 0.08182 0.0500 Uiso
H1_3 H 0.77523 0.79051 0.89014 0.0500 Uiso
C1_3 C 0.77798 0.88922 0.87168 0.0500 Uiso
C2_3 C 0.59349 0.98678 0.81336 0.0500 Uiso
O1_3 O 0.78990 0.90525 0.81803 0.0500 Uiso
O2_3 O 0.76821 0.99752 0.90920 0.0500 Uiso
O3_3 O 0.58641 0.94494 0.86848 0.0500 Uiso
O4_3 O 0.55919 0.98878 0.77312 0.0500 Uiso
H10_3 H 0.64505 0.86462 0.93819 0.0500 Uiso
H13_3 H 0.41804 0.79214 0.89322 0.0500 Uiso
C18_3 C 0.62622 0.80989 0.97348 0.0500 Uiso
C23_3 C 0.43137 0.75356 0.93625 0.0500 Uiso
C24_3 C 0.39826 0.69658 0.97922 0.0500 Uiso
C25_3 C 0.34463 0.68232 0.96561 0.0500 Uiso
N3_3 N 0.48044 0.75886 0.94843 0.0500 Uiso
N4_3 N 0.57725 0.78633 0.96672 0.0500 Uiso
O11_3 O 0.49210 0.93092 0.84809 0.0500 Uiso
H15_3 H 0.22477 0.79051 0.60986 0.0500 Uiso
C27_3 C 0.22202 0.88922 0.62832 0.0500 Uiso
C28_3 C 0.40651 0.98678 0.68664 0.0500 Uiso
O13_3 O 0.21010 0.90525 0.68197 0.0500 Uiso
O14_2 O 0.23179 0.99752 0.59080 0.0500 Uiso
O15_3 O 0.41359 0.94494 0.63152 0.0500 Uiso
O16_3 O 0.44081 0.98878 0.72688 0.0500 Uiso
H22_3 H 0.44145 0.61382 0.40209 0.0500 Uiso
H23_3 H 0.35615 0.65415 0.38894 0.0500 Uiso
H24_3 H 0.35495 0.86462 0.56181 0.0500 Uiso
H25_3 H 0.60430 0.60554 0.43024 0.0500 Uiso
H26_3 H 0.51928 0.61855 0.41021 0.0500 Uiso
H27_3 H 0.58196 0.79214 0.60678 0.0500 Uiso
C40_3 C 0.29519 0.78080 0.46297 0.0500 Uiso
C41_3 C 0.42311 0.66920 0.43750 0.0500 Uiso
C42_3 C 0.37357 0.69041 0.43032 0.0500 Uiso
C43_3 C 0.34753 0.76505 0.47333 0.0500 Uiso
C44_3 C 0.37378 0.80989 0.52652 0.0500 Uiso
C45_3 C 0.44789 0.72136 0.48888 0.0500 Uiso
C46_3 C 0.58171 0.65070 0.46505 0.0500 Uiso
C47_3 C 0.53227 0.65640 0.45372 0.0500 Uiso
C48_3 C 0.50098 0.71012 0.49801 0.0500 Uiso
C49_3 C 0.56863 0.75356 0.56375 0.0500 Uiso
C50_3 C 0.60174 0.69658 0.52078 0.0500 Uiso
C51_3 C 0.65537 0.68232 0.53439 0.0500 Uiso
N7_3 N 0.51956 0.75886 0.55157 0.0500 Uiso
N8_3 N 0.42275 0.78633 0.53328 0.0500 Uiso
O19_2 O 0.27750 0.87965 0.49099 0.0500 Uiso
O20_2 O 0.27140 0.72771 0.41818 0.0500 Uiso
O23_3 O 0.50790 0.93092 0.65191 0.0500 Uiso
H1_4 H 0.22477 0.20949 0.39014 0.0500 Uiso
C1_4 C 0.22202 0.11078 0.37168 0.0500 Uiso
C2_4 C 0.40651 0.01322 0.31336 0.0500 Uiso
O1_4 O 0.21010 0.09475 0.31803 0.0500 Uiso
O2_4 O 0.23179 0.00248 0.40920 0.0500 Uiso
O3_4 O 0.41359 0.05506 0.36848 0.0500 Uiso
O4_4 O 0.44081 0.01122 0.27312 0.0500 Uiso
H8_4 H 0.44145 0.38618 0.59791 0.0500 Uiso
H9_4 H 0.35615 0.34585 0.61106 0.0500 Uiso
H10_4 H 0.35495 0.13538 0.43819 0.0500 Uiso
H11_4 H 0.60430 0.39446 0.56976 0.0500 Uiso
H12_4 H 0.51928 0.38145 0.58979 0.0500 Uiso
H13_4 H 0.58196 0.20786 0.39322 0.0500 Uiso
C14_4 C 0.29519 0.21920 0.53703 0.0500 Uiso
C15_4 C 0.42311 0.33080 0.56250 0.0500 Uiso
C16_4 C 0.37357 0.30959 0.56968 0.0500 Uiso
C17_4 C 0.34753 0.23495 0.52667 0.0500 Uiso
C18_4 C 0.37378 0.19011 0.47348 0.0500 Uiso
C19_4 C 0.44789 0.27864 0.51112 0.0500 Uiso
C20_4 C 0.58171 0.34930 0.53495 0.0500 Uiso
C21_4 C 0.53227 0.34360 0.54628 0.0500 Uiso
C22_4 C 0.50098 0.28988 0.50199 0.0500 Uiso
C23_4 C 0.56863 0.24644 0.43625 0.0500 Uiso
C24_4 C 0.60174 0.30342 0.47922 0.0500 Uiso
C25_4 C 0.65537 0.31768 0.46561 0.0500 Uiso
N3_4 N 0.51956 0.24114 0.44843 0.0500 Uiso
N4_4 N 0.42275 0.21367 0.46672 0.0500 Uiso
O7_4 O 0.27750 0.12035 0.50901 0.0500 Uiso
O11_4 O 0.50790 0.06908 0.34809 0.0500 Uiso
H15_4 H 0.77523 0.20949 0.10986 0.0500 Uiso
C27_4 C 0.77798 0.11078 0.12832 0.0500 Uiso
C28_4 C 0.59349 0.01322 0.18664 0.0500 Uiso
O13_4 O 0.78990 0.09475 0.18197 0.0500 Uiso
O15_4 O 0.58641 0.05506 0.13152 0.0500 Uiso
O16_4 O 0.55919 0.01122 0.22688 0.0500 Uiso
H24_4 H 0.64505 0.13538 0.06181 0.0500 Uiso
H27_4 H 0.41804 0.20786 0.10678 0.0500 Uiso
C44_4 C 0.62622 0.19011 0.02652 0.0500 Uiso
C49_4 C 0.43137 0.24644 0.06375 0.0500 Uiso
C50_4 C 0.39826 0.30342 0.02078 0.0500 Uiso
C51_4 C 0.34463 0.31768 0.03439 0.0500 Uiso
N7_4 N 0.48044 0.24114 0.05157 0.0500 Uiso
N8_4 N 0.57725 0.21367 0.03328 0.0500 Uiso
O23_4 O 0.49210 0.06908 0.15191 0.0500 Uiso
H22_4 H 0.55855 0.38618 0.90209 0.0500 Uiso
H23_4 H 0.64385 0.34585 0.88894 0.0500 Uiso
H25_4 H 0.39570 0.39446 0.93024 0.0500 Uiso
H26_4 H 0.48072 0.38145 0.91021 0.0500 Uiso
C40_4 C 0.70481 0.21920 0.96297 0.0500 Uiso
C41_4 C 0.57689 0.33080 0.93750 0.0500 Uiso
C42_4 C 0.62643 0.30959 0.93032 0.0500 Uiso
C43_4 C 0.65247 0.23495 0.97333 0.0500 Uiso
C45_4 C 0.55211 0.27864 0.98888 0.0500 Uiso
C46_4 C 0.41829 0.34930 0.96505 0.0500 Uiso
C47_4 C 0.46773 0.34360 0.95372 0.0500 Uiso
C48_4 C 0.49902 0.28988 0.99801 0.0500 Uiso
H2_4 H 0.32997 0.94458 0.38705 0.0500 Uiso
H3_4 H 0.29607 0.92064 0.16327 0.0500 Uiso
H4_4 H 0.37477 0.99174 0.19659 0.0500 Uiso
H5_4 H 0.11533 0.82797 0.32147 0.0500 Uiso
H6_4 H 0.13461 0.87719 0.12597 0.0500 Uiso
H7_4 H 0.21955 0.91083 0.14226 0.0500 Uiso
C3_4 C 0.35826 0.98603 0.29444 0.0500 Uiso
C4_4 C 0.32149 0.95437 0.33729 0.0500 Uiso
C5_4 C 0.26729 0.90023 0.25644 0.0500 Uiso
C6_4 C 0.30297 0.92683 0.21227 0.0500 Uiso
C7_4 C 0.34844 0.96676 0.23152 0.0500 Uiso
C8_4 C 0.21680 0.87499 0.24152 0.0500 Uiso
C9_4 C 0.13848 0.83931 0.28219 0.0500 Uiso
C10_4 C 0.11764 0.84315 0.22246 0.0500 Uiso
C11_4 C 0.14830 0.87186 0.17274 0.0500 Uiso
C12_4 C 0.19746 0.88819 0.18190 0.0500 Uiso
C13_4 C 0.06461 0.81659 0.21087 0.0500 Uiso
N1_4 N 0.18744 0.85164 0.29047 0.0500 Uiso
N2_4 N 0.27781 0.90690 0.31752 0.0500 Uiso
H14_4 H 0.51502 0.94311 0.42838 0.0500 Uiso
C26_4 C 0.50855 0.94810 0.37904 0.0500 Uiso
O12_4 O 0.50255 0.84687 0.35000 0.0500 Uiso
H16_4 H 0.67003 0.94458 0.11295 0.0500 Uiso
H17_4 H 0.70393 0.92064 0.33673 0.0500 Uiso
H18_4 H 0.62523 0.99174 0.30341 0.0500 Uiso
H19_4 H 0.88467 0.82797 0.17853 0.0500 Uiso
H20_4 H 0.86539 0.87719 0.37403 0.0500 Uiso
H21_4 H 0.78045 0.91083 0.35774 0.0500 Uiso
C29_4 C 0.64174 0.98603 0.20556 0.0500 Uiso
C30_4 C 0.67851 0.95437 0.16271 0.0500 Uiso
C31_4 C 0.73271 0.90023 0.24356 0.0500 Uiso
C32_4 C 0.69703 0.92683 0.28773 0.0500 Uiso
C33_4 C 0.65156 0.96676 0.26848 0.0500 Uiso
C34_4 C 0.78320 0.87499 0.25848 0.0500 Uiso
C35_4 C 0.86152 0.83931 0.21781 0.0500 Uiso
C36_4 C 0.88236 0.84315 0.27754 0.0500 Uiso
C37_4 C 0.85170 0.87186 0.32726 0.0500 Uiso
C38_4 C 0.80254 0.88819 0.31810 0.0500 Uiso
C39_4 C 0.93539 0.81659 0.28913 0.0500 Uiso
N5_4 N 0.81256 0.85164 0.20953 0.0500 Uiso
N6_4 N 0.72219 0.90690 0.18248 0.0500 Uiso
H28_4 H 0.48498 0.94311 0.07162 0.0500 Uiso
C52_4 C 0.49145 0.94810 0.12096 0.0500 Uiso
O24_4 O 0.49745 0.84687 0.15000 0.0500 Uiso
loop_
_geom_bond_atom_site_label_1
_geom_bond_atom_site_label_2
_geom_bond_site_symmetry_1
_geom_bond_site_symmetry_2
H8 C15 1_555 1_555
H9 C16 1_555 1_555
C14 C17 1_555 1_555
C15 C16 1_555 1_555
C16 C17 1_555 1_555
C19 C15 1_555 1_555
O7 C14 1_555 1_555
O8 C14 1_555 1_555
O25 Zn4 1_555 1_555
Zn8 O8 1_555 1_555
O33 Zn4 1_555 1_555
O7 Zn4 1_555 1_555
O25 Zn8 1_555 1_555
H1 C1 1_555 1_555
H2 C4 1_555 1_555
H3 C6 1_555 1_555
H4 C7 1_555 1_555
H5 C9 1_555 1_555
H6 C11 1_555 1_555
H7 C12 1_555 1_555
C1 O1 1_555 1_555
C2 C3 1_555 1_555
C3 C4 1_555 1_555
C4 N2 1_555 1_555
C5 C6 1_555 1_555
C6 C7 1_555 1_555
C7 C3 1_555 1_555
C8 C5 1_555 1_555
C9 C10 1_555 1_555
C10 C11 1_555 1_555
C11 C12 1_555 1_555
C12 C8 1_555 1_555
C13 C10 1_555 1_555
N1 C8 1_555 1_555
N2 C5 1_555 1_555
O2 C1 1_555 1_555
O3 C2 1_555 1_555
O4 C2 1_555 1_555
O5 C13 1_555 1_555
O6 C13 1_555 1_555
Zn1 N1 1_555 1_555
Zn2 O3 1_555 1_555
Zn3 O4 1_555 1_555
H10 C18 1_555 1_555
C18 N4 1_555 1_555
N4 Zn2 1_555 1_555
Zn4_2 O2 1_555 1_555
H25 C46 1_555 1_555
H26 C47 1_555 1_555
H27 C49 1_555 1_555
C46 C47 1_555 1_555
C47 C48 1_555 1_555
C49 C50 1_555 1_555
C50 C46 1_555 1_555
C51 C50 1_555 1_555
O21 C51 1_555 1_555
O22 C51 1_555 1_555
H28 C52 1_555 1_555
C52 O23 1_555 1_555
O23 Zn3 1_555 1_555
O24 C52 1_555 1_555
O27 Zn2 1_555 1_555
O29 Zn3 1_555 1_555
Zn10 O22 1_555 1_555
Zn12 O5 1_555 1_555
Zn14 O6 1_555 1_555
O30 Zn4_2 1_555 1_555
O32 Zn1 1_555 1_555
O34 Zn4_2 1_555 1_555
O35 Zn1 1_555 1_555
Zn17 O21 1_555 1_555
C9 N1 1_555 1_555
N2 Zn1 1_555 1_555
O2 Zn1 1_555 1_555
C48 N7 1_555 1_555
C49 N7 1_555 1_555
H11 C20 1_555 1_555
H12 C21 1_555 1_555
C20 C21 1_555 1_555
C21 C22 1_555 1_555
Zn16 O9 1_555 1_555
H13 C23 1_555 1_555
C23 C24 1_555 1_555
C25 C24 1_555 1_555
O10 C25 1_555 1_555
H14 C26 1_555 1_555
C26 O11 1_555 1_555
O12 C26 1_555 1_555
H15 C27 1_555 1_555
H16 C30 1_555 1_555
H17 C32 1_555 1_555
H18 C33 1_555 1_555
H19 C35 1_555 1_555
H20 C37 1_555 1_555
H21 C38 1_555 1_555
C27 O13 1_555 1_555
C28 C29 1_555 1_555
C29 C30 1_555 1_555
C30 N6 1_555 1_555
C31 C32 1_555 1_555
C32 C33 1_555 1_555
C33 C29 1_555 1_555
C34 C31 1_555 1_555
C35 C36 1_555 1_555
C36 C37 1_555 1_555
C37 C38 1_555 1_555
C38 C34 1_555 1_555
C39 C36 1_555 1_555
N5 C34 1_555 1_555
N6 C31 1_555 1_555
O14 C27 1_555 1_555
O15 C28 1_555 1_555
O16 Zn3_2 1_555 1_555
O17 C39 1_555 1_555
O18 C39 1_555 1_555
Zn5 N5 1_555 1_555
Zn6 O15 1_555 1_555
H22 C41 1_555 1_555
H23 C42 1_555 1_555
H24 C44 1_555 1_555
C40 C43 1_555 1_555
C41 C42 1_555 1_555
C42 C43 1_555 1_555
C43 C44 1_555 1_555
C44 N8 1_555 1_555
C45 C41 1_555 1_555
N8 Zn6 1_555 1_555
O19 C40 1_555 1_555
O20 C40 1_555 1_555
O26 Zn6 1_555 1_555
O28 Zn3_2 1_555 1_555
Zn7 O20 1_555 1_555
Zn9 O10 1_555 1_555
Zn11 O17 1_555 1_555
Zn14 O18 1_555 1_555
O31 Zn5 1_555 1_555
O36 Zn5 1_555 1_555
Zn15 O14 1_555 1_555
Zn3_2 O11 1_555 1_555
C23 N3 1_555 1_555
C28 O16 1_555 1_555
C35 N5 1_555 1_555
N6 Zn5 1_555 1_555
O14 Zn5 1_555 1_555
C45 N8 1_555 1_555
O19 Zn15 1_555 1_555
H11_2 C20_2 1_555 1_555
H12_2 C21_2 1_555 1_555
H13_2 C23_2 1_555 1_555
C20_2 C21_2 1_555 1_555
C21_2 C22_2 1_555 1_555
C23_2 C24_2 1_555 1_555
C24_2 C20_2 1_555 1_555
C25_2 C24_2 1_555 1_555
O9_2 C25_2 1_555 1_555
O10_2 C25_2 1_555 1_555
H14_2 C26_2 1_555 1_555
C26_2 O11_2 1_555 1_555
O12_2 C26_2 1_555 1_555
H15_2 C27_2 1_555 1_555
H16_2 C30_2 1_555 1_555
H17_2 C32_2 1_555 1_555
H18_2 C33_2 1_555 1_555
H19_2 C35_2 1_555 1_555
H20_2 C37_2 1_555 1_555
H21_2 C38_2 1_555 1_555
C27_2 O13_2 1_555 1_555
C28_2 C29_2 1_555 1_555
C29_2 C30_2 1_555 1_555
C30_2 N6_2 1_555 1_555
C31_2 C32_2 1_555 1_555
C32_2 C33_2 1_555 1_555
C33_2 C29_2 1_555 1_555
C34_2 C31_2 1_555 1_555
C35_2 C36_2 1_555 1_555
C36_2 C37_2 1_555 1_555
C37_2 C38_2 1_555 1_555
C38_2 C34_2 1_555 1_555
C39_2 C36_2 1_555 1_555
N5_2 C34_2 1_555 1_555
N6_2 C31_2 1_555 1_555
O25 C27_2 1_555 1_555
O15_2 C28_2 1_555 1_555
O16_2 Zn3_3 1_555 1_555
O17_2 C39_2 1_555 1_555
O18_2 C39_2 1_555 1_555
Zn8 N5_2 1_555 1_555
Zn6_2 O15_2 1_555 1_555
H24_2 C44_2 1_555 1_555
C44_2 N8_2 1_555 1_555
N8_2 Zn6_2 1_555 1_555
O26_2 Zn6_2 1_555 1_555
O28_2 Zn3_3 1_555 1_555
Zn9_2 O10_2 1_555 1_555
Zn11_2 O17_2 1_555 1_555
Zn13 O18_2 1_555 1_555
O36_2 Zn8 1_555 1_555
Zn17_2 O9_2 1_555 1_555
Zn3_3 O11_2 1_555 1_555
C22_2 N3_2 1_555 1_555
C23_2 N3_2 1_555 1_555
C28_2 O16_2 1_555 1_555
C35_2 N5_2 1_555 1_555
N6_2 Zn8 1_555 1_555
H22_2 C41_2 1_555 1_555
H23_2 C42_2 1_555 1_555
C40_2 C43_2 1_555 1_555
C41_2 C42_2 1_555 1_555
C42_2 C43_2 1_555 1_555
C45_2 C41_2 1_555 1_555
O30 C40_2 1_555 1_555
O32 C40_2 1_555 1_555
H1_2 C1_2 1_555 1_555
H2_2 C4_2 1_555 1_555
H3_2 C6_2 1_555 1_555
H4_2 C7_2 1_555 1_555
H5_2 C9_2 1_555 1_555
H6_2 C11_2 1_555 1_555
H7_2 C12_2 1_555 1_555
C1_2 O1_2 1_555 1_555
C2_2 C3_2 1_555 1_555
C3_2 C4_2 1_555 1_555
C4_2 N2_2 1_555 1_555
C5_2 C6_2 1_555 1_555
C6_2 C7_2 1_555 1_555
C7_2 C3_2 1_555 1_555
C8_2 C5_2 1_555 1_555
C9_2 C10_2 1_555 1_555
C10_2 C11_2 1_555 1_555
C11_2 C12_2 1_555 1_555
C12_2 C8_2 1_555 1_555
C13_2 C10_2 1_555 1_555
N1_2 C8_2 1_555 1_555
N2_2 C5_2 1_555 1_555
O2_2 C1_2 1_555 1_555
O3_2 C2_2 1_555 1_555
O4_2 C2_2 1_555 1_555
O5_2 C13_2 1_555 1_555
O6_2 C13_2 1_555 1_555
Zn7 N1_2 1_555 1_555
Zn2_2 O3_2 1_555 1_555
Zn3_4 O4_2 1_555 1_555
H8_2 C15_2 1_555 1_555
H9_2 C16_2 1_555 1_555
H10_2 C18_2 1_555 1_555
C14_2 C17_2 1_555 1_555
C15_2 C16_2 1_555 1_555
C16_2 C17_2 1_555 1_555
C17_2 C18_2 1_555 1_555
C18_2 N4_2 1_555 1_555
C19_2 C15_2 1_555 1_555
N4_2 Zn2_2 1_555 1_555
O7_2 C14_2 1_555 1_555
O31 C14_2 1_555 1_555
Zn15 O2_2 1_555 1_555
H27_2 C49_2 1_555 1_555
C49_2 C50_2 1_555 1_555
C51_2 C50_2 1_555 1_555
O22_2 C51_2 1_555 1_555
H28_2 C52_2 1_555 1_555
C52_2 O23_2 1_555 1_555
O23_2 Zn3_4 1_555 1_555
O24_2 C52_2 1_555 1_555
O27_2 Zn2_2 1_555 1_555
O29_2 Zn3_4 1_555 1_555
Zn10_2 O22_2 1_555 1_555
Zn12_2 O5_2 1_555 1_555
Zn13 O6_2 1_555 1_555
O33_2 Zn15 1_555 1_555
O34_2 Zn15 1_555 1_555
O35_2 Zn7 1_555 1_555
C9_2 N1_2 1_555 1_555
N2_2 Zn7 1_555 1_555
O2_2 Zn7 1_555 1_555
C19_2 N4_2 1_555 1_555
O7_2 Zn15 1_555 1_555
C49_2 N7_2 1_555 1_555
H25_2 C46_2 1_555 1_555
H26_2 C47_2 1_555 1_555
C46_2 C47_2 1_555 1_555
C47_2 C48_2 1_555 1_555
Zn16_4 O21_2 1_555 1_555
O25_2 Zn16 1_555 1_555
H2_3 C4_3 1_555 1_555
H3_3 C6_3 1_555 1_555
H4_3 C7_3 1_555 1_555
H5_3 C9_3 1_555 1_555
H6_3 C11_3 1_555 1_555
H7_3 C12_3 1_555 1_555
C3_3 C4_3 1_555 1_555
C4_3 N2_3 1_555 1_555
C5_3 C6_3 1_555 1_555
C6_3 C7_3 1_555 1_555
C7_3 C3_3 1_555 1_555
C8_3 C5_3 1_555 1_555
C9_3 C10_3 1_555 1_555
C10_3 C11_3 1_555 1_555
C11_3 C12_3 1_555 1_555
C12_3 C8_3 1_555 1_555
C13_3 C10_3 1_555 1_555
N1_3 C8_3 1_555 1_555
N2_3 C5_3 1_555 1_555
O26 C13_3 1_555 1_555
O28 C13_3 1_555 1_555
Zn9 N1_3 1_555 1_555
H14_3 C26_3 1_555 1_555
O12_3 C26_3 1_555 1_555
H16_3 C30_3 1_555 1_555
H17_3 C32_3 1_555 1_555
H18_3 C33_3 1_555 1_555
H19_3 C35_3 1_555 1_555
H20_3 C37_3 1_555 1_555
H21_3 C38_3 1_555 1_555
C29_3 C30_3 1_555 1_555
C30_3 N6_3 1_555 1_555
C31_3 C32_3 1_555 1_555
C32_3 C33_3 1_555 1_555
C33_3 C29_3 1_555 1_555
C34_3 C31_3 1_555 1_555
C35_3 C36_3 1_555 1_555
C36_3 C37_3 1_555 1_555
C37_3 C38_3 1_555 1_555
C38_3 C34_3 1_555 1_555
C39_3 C36_3 1_555 1_555
N5_3 C34_3 1_555 1_555
N6_3 C31_3 1_555 1_555
O27 C39_3 1_555 1_555
O29 C39_3 1_555 1_555
Zn10 N5_3 1_555 1_555
H28_3 C52_3 1_555 1_555
O24_3 C52_3 1_555 1_555
O30_2 Zn16_2 1_555 1_555
O31_2 Zn10 1_555 1_555
O32_2 Zn9 1_555 1_555
C9_3 N1_3 1_555 1_555
N2_3 Zn9 1_555 1_555
C35_3 N5_3 1_555 1_555
N6_3 Zn10 1_555 1_555
H8_3 C15_3 1_555 1_555
H9_3 C16_3 1_555 1_555
H11_3 C20_3 1_555 1_555
H12_3 C21_3 1_555 1_555
C14_3 C17_3 1_555 1_555
C15_3 C16_3 1_555 1_555
C16_3 C17_3 1_555 1_555
C19_3 C15_3 1_555 1_555
C20_3 C21_3 1_555 1_555
C21_3 C22_3 1_555 1_555
C22_3 C19_3 1_555 1_555
O7_3 C14_3 1_555 1_555
O8_2 C14_3 1_555 1_555
Zn10_2 O8_2 1_555 1_555
O7_3 Zn16_3 1_555 1_555
H1_3 C1_3 1_555 1_555
C1_3 O1_3 1_555 1_555
O2_3 C1_3 1_555 1_555
O3_3 C2_3 1_555 1_555
O4_3 C2_3 1_555 1_555
Zn11 O3_3 1_555 1_555
Zn14 O4_3 1_555 1_555
H10_3 C18_3 1_555 1_555
H13_3 C23_3 1_555 1_555
C18_3 N4_3 1_555 1_555
C23_3 C24_3 1_555 1_555
C25_3 C24_3 1_555 1_555
N3_3 Zn11 1_555 1_555
N4_3 Zn11 1_555 1_555
O35 C25_3 1_555 1_555
Zn16_4 O2_3 1_555 1_555
O11_3 Zn11 1_555 1_555
H15_3 C27_3 1_555 1_555
C27_3 O13_3 1_555 1_555
O14_2 C27_3 1_555 1_555
O15_3 C28_3 1_555 1_555
O16_3 Zn14 1_555 1_555
Zn12 O15_3 1_555 1_555
H22_3 C41_3 1_555 1_555
H23_3 C42_3 1_555 1_555
H24_3 C44_3 1_555 1_555
H25_3 C46_3 1_555 1_555
H26_3 C47_3 1_555 1_555
H27_3 C49_3 1_555 1_555
C40_3 C43_3 1_555 1_555
C41_3 C42_3 1_555 1_555
C42_3 C43_3 1_555 1_555
C43_3 C44_3 1_555 1_555
C44_3 N8_3 1_555 1_555
C45_3 C41_3 1_555 1_555
C46_3 C47_3 1_555 1_555
C47_3 C48_3 1_555 1_555
C48_3 C45_3 1_555 1_555
C49_3 C50_3 1_555 1_555
C50_3 C46_3 1_555 1_555
C51_3 C50_3 1_555 1_555
N7_3 Zn12 1_555 1_555
N8_3 Zn12 1_555 1_555
O19_2 C40_3 1_555 1_555
O20_2 C40_3 1_555 1_555
O34_2 C51_3 1_555 1_555
O36 C51_3 1_555 1_555
O23_3 Zn14 1_555 1_555
Zn9_2 O20_2 1_555 1_555
Zn17_2 O14_2 1_555 1_555
Zn14 O11_3 1_555 1_555
C23_3 N3_3 1_555 1_555
C28_3 O16_3 1_555 1_555
Zn12 O23_3 1_555 1_555
C45_3 N8_3 1_555 1_555
C48_3 N7_3 1_555 1_555
C49_3 N7_3 1_555 1_555
O19_2 Zn17_2 1_555 1_555
H1_4 C1_4 1_555 1_555
C1_4 O1_4 1_555 1_555
O2_4 C1_4 1_555 1_555
O3_4 C2_4 1_555 1_555
O4_4 C2_4 1_555 1_555
Zn11_2 O3_4 1_555 1_555
Zn13 O4_4 1_555 1_555
H8_4 C15_4 1_555 1_555
H9_4 C16_4 1_555 1_555
H10_4 C18_4 1_555 1_555
H11_4 C20_4 1_555 1_555
H12_4 C21_4 1_555 1_555
H13_4 C23_4 1_555 1_555
C14_4 C17_4 1_555 1_555
C15_4 C16_4 1_555 1_555
C16_4 C17_4 1_555 1_555
C17_4 C18_4 1_555 1_555
C18_4 N4_4 1_555 1_555
C19_4 C15_4 1_555 1_555
C20_4 C21_4 1_555 1_555
C21_4 C22_4 1_555 1_555
C22_4 C19_4 1_555 1_555
C23_4 C24_4 1_555 1_555
C24_4 C20_4 1_555 1_555
C25_4 C24_4 1_555 1_555
N3_4 Zn11_2 1_555 1_555
N4_4 Zn11_2 1_555 1_555
O7_4 C14_4 1_555 1_555
O31_2 C14_4 1_555 1_555
O33_2 C25_4 1_555 1_555
O35_2 C25_4 1_555 1_555
Zn17 O2_4 1_555 1_555
O11_4 Zn11_2 1_555 1_555
H15_4 C27_4 1_555 1_555
C27_4 O13_4 1_555 1_555
O25_2 C27_4 1_555 1_555
O15_4 C28_4 1_555 1_555
O16_4 Zn13 1_555 1_555
Zn12_2 O15_4 1_555 1_555
H24_4 C44_4 1_555 1_555
H27_4 C49_4 1_555 1_555
C44_4 N8_4 1_555 1_555
C49_4 C50_4 1_555 1_555
C51_4 C50_4 1_555 1_555
N7_4 Zn12_2 1_555 1_555
N8_4 Zn12_2 1_555 1_555
O36_2 C51_4 1_555 1_555
O23_4 Zn13 1_555 1_555
Zn13 O11_4 1_555 1_555
C19_4 N4_4 1_555 1_555
C22_4 N3_4 1_555 1_555
C23_4 N3_4 1_555 1_555
O7_4 Zn17 1_555 1_555
C28_4 O16_4 1_555 1_555
Zn12_2 O23_4 1_555 1_555
C49_4 N7_4 1_555 1_555
H22_4 C41_4 1_555 1_555
H23_4 C42_4 1_555 1_555
H25_4 C46_4 1_555 1_555
H26_4 C47_4 1_555 1_555
C40_4 C43_4 1_555 1_555
C41_4 C42_4 1_555 1_555
C42_4 C43_4 1_555 1_555
C45_4 C41_4 1_555 1_555
C46_4 C47_4 1_555 1_555
C47_4 C48_4 1_555 1_555
C48_4 C45_4 1_555 1_555
O30_2 C40_4 1_555 1_555
O32_2 C40_4 1_555 1_555
H2_4 C4_4 1_555 1_555
H3_4 C6_4 1_555 1_555
H4_4 C7_4 1_555 1_555
H5_4 C9_4 1_555 1_555
H6_4 C11_4 1_555 1_555
H7_4 C12_4 1_555 1_555
C3_4 C4_4 1_555 1_555
C4_4 N2_4 1_555 1_555
C5_4 C6_4 1_555 1_555
C6_4 C7_4 1_555 1_555
C7_4 C3_4 1_555 1_555
C8_4 C5_4 1_555 1_555
C9_4 C10_4 1_555 1_555
C10_4 C11_4 1_555 1_555
C11_4 C12_4 1_555 1_555
C12_4 C8_4 1_555 1_555
C13_4 C10_4 1_555 1_555
N1_4 C8_4 1_555 1_555
N2_4 C5_4 1_555 1_555
O26_2 C13_4 1_555 1_555
O28_2 C13_4 1_555 1_555
Zn9_2 N1_4 1_555 1_555
H14_4 C26_4 1_555 1_555
O12_4 C26_4 1_555 1_555
H16_4 C30_4 1_555 1_555
H17_4 C32_4 1_555 1_555
H18_4 C33_4 1_555 1_555
H19_4 C35_4 1_555 1_555
H20_4 C37_4 1_555 1_555
H21_4 C38_4 1_555 1_555
C29_4 C30_4 1_555 1_555
C30_4 N6_4 1_555 1_555
C31_4 C32_4 1_555 1_555
C32_4 C33_4 1_555 1_555
C33_4 C29_4 1_555 1_555
C34_4 C31_4 1_555 1_555
C35_4 C36_4 1_555 1_555
C36_4 C37_4 1_555 1_555
C37_4 C38_4 1_555 1_555
C38_4 C34_4 1_555 1_555
C39_4 C36_4 1_555 1_555
N5_4 C34_4 1_555 1_555
N6_4 C31_4 1_555 1_555
O27_2 C39_4 1_555 1_555
O29_2 C39_4 1_555 1_555
Zn10_2 N5_4 1_555 1_555
H28_4 C52_4 1_555 1_555
O24_4 C52_4 1_555 1_555
C9_4 N1_4 1_555 1_555
N2_4 Zn9_2 1_555 1_555
C35_4 N5_4 1_555 1_555
N6_4 Zn10_2 1_555 1_555

#END
