
###############################################################################
#
# This file contains modified crystal structure data generated from the
# MOF subset of the Cambridge Structural Database (CSD) v543 
# hosted by the Cambridge Crystallographic Data Centre (CCDC).
#
# This work is licensed under the Creative Commons
# Attribution-NonCommercial-ShareAlike 4.0 International License.
# To view a copy of this license, visit
# http://creativecommons.org/licenses/by-nc-sa/4.0/
# or send a letter to
# Creative Commons, PO Box 1866, Mountain View, CA 94042, USA.
#
# CIF created using the CSD Python API on 29 September 2022
# The structure has been converted into the P1 space group
# The structure has a 3D framework
# The original CSD entry LACJAC is in the triclinic crystal system
# The framework has been calculated to contain at least 10.0% void space
# The void calculation uses a probe of radius 1.32A, grid spacing 0.4
#
###############################################################################

data_LACJAC
_chemical_formula_moiety         '(C44 H32 N18 O18 Zn7)n'
_symmetry_cell_setting           triclinic
_symmetry_space_group_name_H-M   'P 1'
_symmetry_Int_Tables_number      1
_space_group_name_Hall           'P 1'
loop_
_symmetry_equiv_pos_site_id
_symmetry_equiv_pos_as_xyz
1 x,y,z
_cell_length_a                   9.781(2)
_cell_length_b                   11.905(2)
_cell_length_c                   15.220(3)
_cell_angle_alpha                96.50(3)
_cell_angle_beta                 99.07(3)
_cell_angle_gamma                112.41(3)
_cell_volume                     1588.51
loop_
_atom_site_label
_atom_site_type_symbol
_atom_site_fract_x
_atom_site_fract_y
_atom_site_fract_z
_atom_site_U_iso_or_equiv
_atom_site_thermal_displace_type
Zn7 Zn 0.01127(5) 0.42971(5) 0.70515(3) 0.0208 Uani
Zn16 Zn 0.56087(5) 0.39516(5) 0.92954(3) 0.0205 Uani
C25 C 0.5220(5) 0.0409(4) 0.8877(3) 0.0319 Uani
H18 H 0.7231 0.0396 0.9425 0.0520 Uiso
C30 C 0.5645(6) 0.1754(5) 0.9166(3) 0.0363 Uani
O12 O 0.4631(4) 0.2159(3) 0.8943(3) 0.0442 Uani
O15 O 0.6941(4) 0.2454(3) 0.9574(3) 0.0463 Uani
C23 C 0.3396(5) 0.8407(4) 0.8061(3) 0.0244 Uani
C24 C 0.3790(5) 0.9655(4) 0.8371(3) 0.0268 Uani
H17 H 0.3080 0.9987 0.8236 0.0320 Uiso
C26 C 0.6262(6) 0.9897(5) 0.9087(4) 0.0429 Uani
C27 C 0.5869(6) 0.8658(5) 0.8798(4) 0.0460 Uani
H19 H 0.6563 0.8318 0.8958 0.0550 Uiso
C28 C 0.4449(5) 0.7913(5) 0.8269(3) 0.0317 Uani
H20 H 0.4203 0.7081 0.8055 0.0380 Uiso
C29 C 0.1871(5) 0.7610(4) 0.7479(3) 0.0268 Uani
H27 H 0.0714 0.6784 0.5140 0.0280 Uiso
N13 N 0.1212(4) 0.5139(3) 0.2285(2) 0.0229 Uani
O10 O 0.1538(4) 0.6512(3) 0.7182(2) 0.0362 Uani
O11 O 0.0940(4) 0.8120(3) 0.7304(2) 0.0355 Uani
O20 O 0.1070(3) 0.7551(3) 0.3042(2) 0.0317 Uani
H21 H 0.8040 0.0114 0.6651 0.0300 Uiso
C33 C 0.6515(5) 0.0843(4) 0.6341(3) 0.0258 Uani
C34 C 0.4958(5) 0.0526(5) 0.6078(3) 0.0322 Uani
H22 H 0.4605 0.1139 0.6003 0.0380 Uiso
C38 C 0.7616(5) 0.2151(4) 0.6459(3) 0.0263 Uani
O18 O 0.8930(3) 0.2449(3) 0.6958(2) 0.0317 Uani
O21 O 0.7276(4) 0.2904(3) 0.6079(2) 0.0359 Uani
Zn12 Zn 0.43913(5) 0.60484(5) 0.07046(3) 0.0205 Uani
Zn1 Zn 0.5000 0.5000 0.5000 0.0129 Uani
Zn3 Zn 0.10931(5) 0.31173(5) 0.32978(3) 0.0222 Uani
C9 C 0.3999(5) 0.1315(4) 0.3719(3) 0.0234 Uani
C10 C 0.2989(5) 0.0090(4) 0.3546(3) 0.0248 Uani
C13 C 0.6050(5) 0.0688(5) 0.4070(4) 0.0338 Uani
H7 H 0.7085 0.0889 0.4228 0.0400 Uiso
C14 C 0.5542(5) 0.1621(4) 0.3985(3) 0.0271 Uani
H8 H 0.6230 0.2444 0.4105 0.0330 Uiso
C15 C 0.3425(5) 0.2305(4) 0.3631(3) 0.0246 Uani
C19 C 0.0315(5) 0.3701(4) 0.5077(3) 0.0231 Uani
C20 C 0.2392(5) 0.4866(4) 0.5922(3) 0.0242 Uani
H12 H 0.3126 0.5381 0.6426 0.0290 Uiso
C21 C 0.2884(5) 0.4041(5) 0.8123(3) 0.0316 Uani
H13 H 0.2915 0.3496 0.7646 0.0380 Uiso
C22 C 0.2236(5) 0.5234(4) 0.8904(3) 0.0256 Uani
H14 H 0.1715 0.5695 0.9089 0.0310 Uiso
N4 N 0.1332(4) 0.3853(3) 0.4582(2) 0.0236 Uani
N5 N 0.2701(4) 0.4609(3) 0.5143(2) 0.0228 Uani
N6 N 0.0925(4) 0.4323(3) 0.5928(2) 0.0222 Uani
N7 N 0.1839(4) 0.4508(4) 0.8089(2) 0.0245 Uani
N8 N 0.3450(4) 0.5223(3) 0.9418(2) 0.0224 Uani
N9 N 0.3879(4) 0.4443(4) 0.8916(2) 0.0273 Uani
O5 O 0.4291(3) 0.3418(3) 0.3852(2) 0.0316 Uani
O6 O 0.2015(4) 0.1930(3) 0.3313(3) 0.0373 Uani
O9 O 0.5046(4) 0.3795(3) 0.5926(2) 0.0351 Uani
H15 H 0.5775 0.3598 0.5891 0.0350 Uiso
H16 H 0.4287 0.3147 0.5916 0.0350 Uiso
Zn5 Zn 0.98873(5) 0.57029(5) 0.29485(3) 0.0208 Uani
Zn9 Zn 0.89069(5) 0.68827(5) 0.67022(3) 0.0222 Uani
C31 C 0.6001(5) 0.8685(4) 0.6281(3) 0.0234 Uani
C32 C 0.7011(5) 0.9910(4) 0.6454(3) 0.0248 Uani
C35 C 0.3950(5) 0.9312(5) 0.5930(4) 0.0338 Uani
H23 H 0.2915 0.9111 0.5772 0.0400 Uiso
C36 C 0.4458(5) 0.8379(4) 0.6015(3) 0.0271 Uani
H24 H 0.3770 0.7556 0.5895 0.0330 Uiso
C37 C 0.6575(5) 0.7695(4) 0.6369(3) 0.0246 Uani
C39 C 0.1931(5) 0.5721(4) 0.1712(3) 0.0276 Uani
H25 H 0.1725 0.6331 0.1462 0.0330 Uiso
C40 C 0.2881(5) 0.4478(5) 0.2024(3) 0.0280 Uani
H26 H 0.3480 0.4030 0.2037 0.0340 Uiso
C41 C 0.9685(5) 0.6299(4) 0.4923(3) 0.0231 Uani
C42 C 0.7608(5) 0.5134(4) 0.4078(3) 0.0242 Uani
H28 H 0.6874 0.4619 0.3574 0.0290 Uiso
C43 C 0.7116(5) 0.5959(5) 0.1877(3) 0.0316 Uani
H29 H 0.7085 0.6504 0.2354 0.0380 Uiso
C44 C 0.7764(5) 0.4766(4) 0.1096(3) 0.0256 Uani
H30 H 0.8285 0.4305 0.0911 0.0310 Uiso
N10 N 0.1834(4) 0.4321(3) 0.2497(2) 0.0231 Uani
N11 N 0.8166(4) 0.5679(3) 0.7503(2) 0.0231 Uani
N14 N 0.2999(4) 0.5347(4) 0.1521(2) 0.0248 Uani
N15 N 0.8668(4) 0.6147(3) 0.5418(2) 0.0236 Uani
N16 N 0.7299(4) 0.5391(3) 0.4857(2) 0.0228 Uani
N17 N 0.9075(4) 0.5677(3) 0.4072(2) 0.0222 Uani
N18 N 0.8161(4) 0.5492(4) 0.1911(2) 0.0245 Uani
N19 N 0.6550(4) 0.4777(3) 0.0582(2) 0.0224 Uani
N22 N 0.6121(4) 0.5557(4) 0.1084(2) 0.0273 Uani
O14 O 0.5369(4) 0.7841(3) 0.1057(3) 0.0442 Uani
O16 O 0.5709(3) 0.6582(3) 0.6148(2) 0.0316 Uani
O17 O 0.7985(4) 0.8070(3) 0.6687(3) 0.0373 Uani
O22 O 0.4954(4) 0.6205(3) 0.4074(2) 0.0351 Uani
H31 H 0.4225 0.6402 0.4109 0.0350 Uiso
H32 H 0.5713 0.6853 0.4084 0.0350 Uiso
H5 H 0.1960 0.9886 0.3349 0.0300 Uiso
C11 C 0.3485(5) 0.9157(4) 0.3659(3) 0.0258 Uani
C12 C 0.5042(5) 0.9474(5) 0.3922(3) 0.0322 Uani
H6 H 0.5395 0.8861 0.3997 0.0380 Uiso
C16 C 0.2384(5) 0.7849(4) 0.3541(3) 0.0263 Uani
O8 O 0.2724(4) 0.7096(3) 0.3921(2) 0.0359 Uani
C1 C 0.6604(5) 0.1593(4) 0.1939(3) 0.0244 Uani
C2 C 0.6210(5) 0.0345(4) 0.1629(3) 0.0268 Uani
H1 H 0.6920 0.0013 0.1764 0.0320 Uiso
C4 C 0.3738(6) 0.0103(5) 0.0913(4) 0.0429 Uani
C5 C 0.4131(6) 0.1342(5) 0.1202(4) 0.0460 Uani
H3 H 0.3437 0.1682 0.1042 0.0550 Uiso
C6 C 0.5551(5) 0.2087(5) 0.1731(3) 0.0317 Uani
H4 H 0.5797 0.2919 0.1945 0.0380 Uiso
C7 C 0.8129(5) 0.2390(4) 0.2521(3) 0.0268 Uani
C17 C 0.8069(5) 0.4279(4) 0.8288(3) 0.0276 Uani
H9 H 0.8275 0.3669 0.8538 0.0330 Uiso
C18 C 0.7119(5) 0.5522(5) 0.7976(3) 0.0280 Uani
H10 H 0.6520 0.5970 0.7963 0.0340 Uiso
H11 H 0.9286 0.3216 0.4860 0.0280 Uiso
N2 N 0.8788(4) 0.4861(3) 0.7715(2) 0.0229 Uani
N3 N 0.7001(4) 0.4653(4) 0.8479(2) 0.0248 Uani
O1 O 0.8462(4) 0.3488(3) 0.2818(2) 0.0362 Uani
O2 O 0.9060(4) 0.1880(3) 0.2696(2) 0.0355 Uani
C3 C 0.4780(5) 0.9591(4) 0.1123(3) 0.0319 Uani
H2 H 0.2769 0.9604 0.0575 0.0520 Uiso
C8 C 0.4355(6) 0.8246(5) 0.0834(3) 0.0363 Uani
O4 O 0.3059(4) 0.7546(3) 0.0426(3) 0.0463 Uani
loop_
_atom_site_aniso_label
_atom_site_aniso_U_11
_atom_site_aniso_U_22
_atom_site_aniso_U_33
_atom_site_aniso_U_23
_atom_site_aniso_U_13
_atom_site_aniso_U_12
Zn7 0.019 0.0262 0.0189 0.0019 0.00391 0.0119
Zn16 0.02 0.024 0.0183 0.0006 0.00321 0.0112
C25 0.036 0.024 0.029 0.001 0.005 0.007
C30 0.045 0.028 0.028 0.001 0.012 0.006
O12 0.045 0.0213 0.059 -0.0003 0.0106 0.0082
O15 0.048 0.028 0.041 -0.0046 0.0055 -0.0035
C23 0.027 0.024 0.022 0.0064 0.0085 0.0083
C24 0.029 0.024 0.027 0.006 0.0042 0.0109
C26 0.029 0.037 0.049 -0.001 -0.004 0.006
C27 0.033 0.035 0.067 0.006 0 0.016
C28 0.031 0.026 0.038 0.004 0.005 0.013
C29 0.027 0.024 0.029 0.0056 0.0067 0.0095
N13 0.0235 0.026 0.026 0.0064 0.0077 0.0161
O10 0.0315 0.026 0.043 -0.005 0.0059 0.007
O11 0.0254 0.0277 0.048 0.0039 -0.0041 0.0107
O20 0.0236 0.0225 0.045 0.0012 -0.0011 0.0099
C33 0.026 0.024 0.027 0.0035 0.0041 0.0109
C34 0.029 0.032 0.04 0.009 0.004 0.018
C38 0.03 0.023 0.028 0.0028 0.0065 0.0134
O18 0.0236 0.0225 0.045 0.0012 -0.0011 0.0099
O21 0.0378 0.0252 0.044 0.0111 0.0022 0.0135
Zn12 0.02 0.024 0.0183 0.0006 0.00321 0.0112
Zn1 0.0092 0.0108 0.0194 0.0045 0.0055 0.0036
Zn3 0.0258 0.0216 0.0203 0.0036 0.0036 0.0116
C9 0.026 0.025 0.022 0.0046 0.0049 0.0136
C10 0.023 0.025 0.027 0.0056 0.0033 0.0112
C13 0.02 0.035 0.044 0.007 0.004 0.01
C14 0.025 0.024 0.03 0.0066 0.0059 0.0072
C15 0.024 0.024 0.025 0.0005 0.0038 0.0106
C19 0.0192 0.027 0.021 0.0008 0.0012 0.0094
C20 0.024 0.024 0.021 0.0022 0.0033 0.007
C21 0.03 0.041 0.024 -0.006 -0.0016 0.021
C22 0.026 0.03 0.023 0.0001 0.003 0.016
N4 0.0234 0.026 0.0198 0.0001 0.0026 0.0102
N5 0.022 0.021 0.0231 0.0011 0.0056 0.0068
N6 0.0239 0.021 0.0218 0.0006 0.0054 0.0101
N7 0.0231 0.028 0.0229 0.0025 0.0009 0.0132
N8 0.0216 0.025 0.0187 -0.0006 0.0019 0.0096
N9 0.0247 0.038 0.022 -0.0011 0.0023 0.0188
O5 0.0298 0.018 0.0425 0.0017 0.0055 0.0069
O6 0.0275 0.0235 0.061 0.0035 0.0024 0.0147
O9 0.0282 0.033 0.046 0.0124 0.006 0.0139
Zn5 0.019 0.0262 0.0189 0.0019 0.00391 0.0119
Zn9 0.0258 0.0216 0.0203 0.0036 0.0036 0.0116
C31 0.026 0.025 0.022 0.0046 0.0049 0.0136
C32 0.023 0.025 0.027 0.0056 0.0033 0.0112
C35 0.02 0.035 0.044 0.007 0.004 0.01
C36 0.025 0.024 0.03 0.0066 0.0059 0.0072
C37 0.024 0.024 0.025 0.0005 0.0038 0.0106
C39 0.031 0.032 0.032 0.016 0.015 0.02
C40 0.029 0.036 0.029 0.008 0.01 0.022
C41 0.0192 0.027 0.021 0.0008 0.0012 0.0094
C42 0.024 0.024 0.021 0.0022 0.0033 0.007
C43 0.03 0.041 0.024 -0.006 -0.0016 0.021
C44 0.026 0.03 0.023 0.0001 0.003 0.016
N10 0.0248 0.023 0.0239 0.003 0.0049 0.0129
N11 0.0248 0.023 0.0239 0.003 0.0049 0.0129
N14 0.0255 0.032 0.0231 0.0071 0.0082 0.0167
N15 0.0234 0.026 0.0198 0.0001 0.0026 0.0102
N16 0.022 0.021 0.0231 0.0011 0.0056 0.0068
N17 0.0239 0.021 0.0218 0.0006 0.0054 0.0101
N18 0.0231 0.028 0.0229 0.0025 0.0009 0.0132
N19 0.0216 0.025 0.0187 -0.0006 0.0019 0.0096
N22 0.0247 0.038 0.022 -0.0011 0.0023 0.0188
O14 0.045 0.0213 0.059 -0.0003 0.0106 0.0082
O16 0.0298 0.018 0.0425 0.0017 0.0055 0.0069
O17 0.0275 0.0235 0.061 0.0035 0.0024 0.0147
O22 0.0282 0.033 0.046 0.0124 0.006 0.0139
C11 0.026 0.024 0.027 0.0035 0.0041 0.0109
C12 0.029 0.032 0.04 0.009 0.004 0.018
C16 0.03 0.023 0.028 0.0028 0.0065 0.0134
O8 0.0378 0.0252 0.044 0.0111 0.0022 0.0135
C1 0.027 0.024 0.022 0.0064 0.0085 0.0083
C2 0.029 0.024 0.027 0.006 0.0042 0.0109
C4 0.029 0.037 0.049 -0.001 -0.004 0.006
C5 0.033 0.035 0.067 0.006 0 0.016
C6 0.031 0.026 0.038 0.004 0.005 0.013
C7 0.027 0.024 0.029 0.0056 0.0067 0.0095
C17 0.031 0.032 0.032 0.016 0.015 0.02
C18 0.029 0.036 0.029 0.008 0.01 0.022
N2 0.0235 0.026 0.026 0.0064 0.0077 0.0161
N3 0.0255 0.032 0.0231 0.0071 0.0082 0.0167
O1 0.0315 0.026 0.043 -0.005 0.0059 0.007
O2 0.0254 0.0277 0.048 0.0039 -0.0041 0.0107
C3 0.036 0.024 0.029 0.001 0.005 0.007
C8 0.045 0.028 0.028 0.001 0.012 0.006
O4 0.048 0.028 0.041 -0.0046 0.0055 -0.0035
loop_
_geom_bond_atom_site_label_1
_geom_bond_atom_site_label_2
_geom_bond_site_symmetry_1
_geom_bond_site_symmetry_2
Zn16 O12 1_555 1_555
C30 C25 1_555 1_555
O12 C30 1_555 1_555
O15 C30 1_555 1_555
C23 C24 1_555 1_555
C24 H17 1_555 1_555
C27 C26 1_555 1_555
H19 C27 1_555 1_555
C28 C23 1_555 1_555
H20 C28 1_555 1_555
C29 C23 1_555 1_555
O10 C29 1_555 1_555
C27 C28 1_555 1_555
C29 O11 1_555 1_555
C34 C33 1_555 1_555
H22 C34 1_555 1_555
C38 C33 1_555 1_555
O18 C38 1_555 1_555
O21 C38 1_555 1_555
Zn1 N5 1_555 1_555
Zn3 N4 1_555 1_555
C9 C10 1_555 1_555
H7 C13 1_555 1_555
C14 C9 1_555 1_555
H8 C14 1_555 1_555
C15 C9 1_555 1_555
C20 H12 1_555 1_555
C21 H13 1_555 1_555
C22 H14 1_555 1_555
N4 C19 1_555 1_555
N5 C20 1_555 1_555
N6 Zn7 1_555 1_555
N7 Zn7 1_555 1_555
N8 C22 1_555 1_555
N9 C21 1_555 1_555
O5 Zn1 1_555 1_555
O6 Zn3 1_555 1_555
O9 Zn1 1_555 1_555
H15 O9 1_555 1_555
H16 O9 1_555 1_555
Zn9 N11 1_555 1_555
Zn12 N14 1_555 1_555
Zn16 N9 1_555 1_555
C31 C32 1_555 1_555
H23 C35 1_555 1_555
C36 C31 1_555 1_555
H24 C36 1_555 1_555
C37 C31 1_555 1_555
C39 H25 1_555 1_555
C40 H26 1_555 1_555
C42 H28 1_555 1_555
C43 H29 1_555 1_555
C44 H30 1_555 1_555
N10 Zn3 1_555 1_555
N13 C39 1_555 1_555
N14 C39 1_555 1_555
N15 Zn9 1_555 1_555
N16 Zn1 1_555 1_555
N17 Zn5 1_555 1_555
N18 Zn5 1_555 1_555
N19 C44 1_555 1_555
N22 Zn12 1_555 1_555
O14 Zn12 1_555 1_555
O16 Zn1 1_555 1_555
O17 Zn9 1_555 1_555
O22 Zn1 1_555 1_555
H31 O22 1_555 1_555
H32 O22 1_555 1_555
C13 C14 1_555 1_555
C15 O5 1_555 1_555
C15 O6 1_555 1_555
C19 N6 1_555 1_555
C20 N6 1_555 1_555
C21 N7 1_555 1_555
C22 N7 1_555 1_555
N4 N5 1_555 1_555
N8 N9 1_555 1_555
C35 C36 1_555 1_555
C37 O16 1_555 1_555
C37 O17 1_555 1_555
C40 N10 1_555 1_555
C40 N14 1_555 1_555
C41 N15 1_555 1_555
C41 N17 1_555 1_555
C42 N16 1_555 1_555
C42 N17 1_555 1_555
C43 N18 1_555 1_555
C43 N22 1_555 1_555
C44 N18 1_555 1_555
N10 N13 1_555 1_555
N15 N16 1_555 1_555
N19 N22 1_555 1_555
C12 C11 1_555 1_555
H6 C12 1_555 1_555
C16 C11 1_555 1_555
O20 C16 1_555 1_555
O8 C16 1_555 1_555
Zn16 N3 1_555 1_555
C1 C2 1_555 1_555
C2 H1 1_555 1_555
C5 C4 1_555 1_555
H3 C5 1_555 1_555
C6 C1 1_555 1_555
H4 C6 1_555 1_555
C7 C1 1_555 1_555
C17 H9 1_555 1_555
C18 H10 1_555 1_555
N11 C18 1_555 1_555
N2 C17 1_555 1_555
N3 C17 1_555 1_555
O1 C7 1_555 1_555
C5 C6 1_555 1_555
C7 O2 1_555 1_555
C18 N3 1_555 1_555
N11 N2 1_555 1_555
C8 C3 1_555 1_555
O14 C8 1_555 1_555
O4 C8 1_555 1_555

#END
