
###############################################################################
#
# This file contains modified crystal structure data generated from the
# MOF subset of the Cambridge Structural Database (CSD) v543 
# hosted by the Cambridge Crystallographic Data Centre (CCDC).
#
# This work is licensed under the Creative Commons
# Attribution-NonCommercial-ShareAlike 4.0 International License.
# To view a copy of this license, visit
# http://creativecommons.org/licenses/by-nc-sa/4.0/
# or send a letter to
# Creative Commons, PO Box 1866, Mountain View, CA 94042, USA.
#
# CIF created using the CSD Python API on 29 September 2022
# The structure has been converted into the P1 space group
# The structure has a 3D framework
# The original CSD entry LACNUB is in the monoclinic crystal system
# The framework has been calculated to contain at least 10.0% void space
# The void calculation uses a probe of radius 1.32A, grid spacing 0.4
#
###############################################################################

data_LACNUB
_chemical_formula_moiety         '(C648 H360 Cu24 O120)n'
_symmetry_cell_setting           triclinic
_symmetry_space_group_name_H-M   'P 1'
_symmetry_Int_Tables_number      1
_space_group_name_Hall           'P 1'
loop_
_symmetry_equiv_pos_site_id
_symmetry_equiv_pos_as_xyz
1 x,y,z
_cell_length_a                   32.0784(13)
_cell_length_b                   18.4491(4)
_cell_length_c                   41.2495(15)
_cell_angle_alpha                90
_cell_angle_beta                 118.550(5)
_cell_angle_gamma                90
_cell_volume                     21443.7
loop_
_atom_site_label
_atom_site_type_symbol
_atom_site_fract_x
_atom_site_fract_y
_atom_site_fract_z
Cu1 Cu 0.21781(3) 0.17692(4) 0.221788(18)
Cu2 Cu 0.27816(3) 0.25088(4) 0.280905(18)
O3 O 0.23385(15) 0.2317(2) 0.29916(10)
O4 O 0.30635(15) 0.1532(2) 0.29937(11)
O6 O 0.18310(14) 0.1685(3) 0.24977(10)
O7 O 0.25600(15) 0.0933(2) 0.24852(10)
O8 O 0.05396(15) 0.0358(3) 0.25045(11)
O9 O 0.04207(17) 0.0402(3) 0.29915(13)
O12 O 0.1720(2) 0.1182(4) 0.17466(15)
H1 H 0.1778 0.0759 0.1688
H2 H 0.1443 0.1323 0.1580
O14 O 0.32708(19) 0.3037(3) 0.33083(14)
H3 H 0.3229 0.3109 0.3503
H4 H 0.3548 0.3221 0.3354
C1 C 0.06530(17) 0.0554(4) 0.28137(14)
C4 C 0.19260(19) 0.2159(3) 0.42408(15)
C7 C 0.1680(2) 0.1759(3) 0.29978(15)
C8 C 0.28755(19) 0.1002(3) 0.28127(13)
C10 C 0.2195(2) 0.2341(3) 0.46158(16)
C11 C 0.12867(18) 0.1323(3) 0.28228(14)
H7 H 0.1187 0.1174 0.2581
C13 C 0.10373(17) 0.1101(3) 0.30023(14)
C16 C 0.1741(2) 0.1996(4) 0.39217(15)
C18 C 0.19694(19) 0.1956(3) 0.28124(14)
C20 C 0.3495(2) 0.0284(3) 0.33571(15)
H11 H 0.3601 0.0725 0.3478
C21 C 0.1177(2) 0.1341(4) 0.33629(15)
H12 H 0.1008 0.1200 0.3483
C23 C 0.2492(2) 0.4235(3) 0.4607(2)
C26 C 0.1833(2) 0.1987(3) 0.33617(14)
H14 H 0.2106 0.2267 0.3484
C29 C 0.3133(2) 0.0273(3) 0.29930(16)
C32 C 0.2511(2) 0.2944(4) 0.47395(17)
C38 C 0.2790(2) 0.4373(3) 0.4970(2)
C39 C 0.2205(2) 0.1930(3) 0.49087(17)
C40 C 0.3390(3) 0.3560(3) 0.4941(2)
C41 C 0.46865(18) 0.0534(3) 0.47927(15)
C44 C 0.1571(2) 0.1790(3) 0.35393(15)
C45 C 0.2558(2) 0.3480(4) 0.44711(19)
H18 H 0.2342 0.3384 0.4210
C47 C 0.3850(3) 0.3526(4) 0.5049(3)
H19 H 0.4065 0.3602 0.5296
C58 C 0.3128(3) 0.3728(4) 0.5163(2)
H24 H 0.3342 0.3814 0.5426
C59 C 0.2787(3) 0.5035(5) 0.5134(3)
H25 H 0.3005 0.5138 0.5378
C61 C 0.2142(3) 0.4765(5) 0.4391(3)
H27 H 0.1932 0.4677 0.4143
C63 C 0.3088(3) 0.3458(4) 0.4579(3)
C64 C 0.3234(4) 0.3341(6) 0.4323(3)
H29 H 0.3013 0.3297 0.4074
C68 C 0.2443(3) 0.5527(4) 0.4915(3)
H32 H 0.2424 0.5970 0.5014
C74 C 0.3688(4) 0.3291(6) 0.4429(4)
H38 H 0.3788 0.3196 0.4255
C75 C 0.4024(4) 0.3378(5) 0.4797(4)
H39 H 0.4348 0.3341 0.4875
C79 C 0.2120(4) 0.5369(5) 0.4544(4)
H43 H 0.1886 0.5706 0.4405
O16 O 0.73891(16) 0.1665(2) 0.75171(11)
O17 O 0.68722(15) 0.2298(2) 0.70178(11)
C82 C 0.70397(15) 0.1705(3) 0.71981(14)
C83 C 0.68350(19) 0.1013(3) 0.70078(14)
C85 C 0.53060(18) 0.0131(3) 0.53769(14)
C86 C 0.70194(18) 0.0361(3) 0.71846(15)
H46 H 0.7253 0.0362 0.7431
C87 C 0.4985(2) 0.0637(3) 0.51594(17)
C88 C 0.6470(2) 0.1014(3) 0.66373(15)
H47 H 0.6346 0.1448 0.6514
C90 C 0.5647(2) 0.0248(3) 0.57614(15)
C92 C 0.6299(2) 0.0353(3) 0.64593(15)
C93 C 0.4995(2) 0.1943(3) 0.5030(2)
C94 C 0.5933(2) 0.0324(3) 0.60785(16)
C95 C 0.4677(2) 0.1828(4) 0.4666(2)
C96 C 0.4657(4) 0.2265(5) 0.4398(3)
H49 H 0.4431 0.2201 0.4152
C98 C 0.3619(2) 0.1332(4) 0.4717(2)
H50 H 0.3405 0.1277 0.4467
C99 C 0.4420(2) 0.1429(4) 0.5215(2)
C100 C 0.4932(3) 0.1403(3) 0.52950(19)
H51 H 0.5158 0.1489 0.5556
C101 C 0.5322(3) 0.2489(4) 0.5133(3)
H52 H 0.5541 0.2549 0.5381
C102 C 0.4239(4) 0.1591(5) 0.5455(3)
H53 H 0.4446 0.1705 0.5700
C103 C 0.4342(2) 0.1187(4) 0.46135(19)
H54 H 0.4118 0.1101 0.4353
C104 C 0.4104(2) 0.1314(4) 0.4830(2)
C105 C 0.4994(3) 0.2822(5) 0.4506(4)
H55 H 0.4996 0.3125 0.4326
C106 C 0.5334(3) 0.2938(5) 0.4882(4)
H56 H 0.5555 0.3310 0.4951
C107 C 0.3752(4) 0.1583(6) 0.5330(4)
H57 H 0.3635 0.1681 0.5493
C108 C 0.3442(3) 0.1430(6) 0.4964(3)
H58 H 0.3118 0.1393 0.4883
O20 O 0.26615(15) 0.2683(2) 0.70084(10)
O21 O 0.31690(14) 0.3315(3) 0.75023(10)
O22 O 0.44604(15) 0.4642(3) 0.74955(11)
O23 O 0.45793(17) 0.4598(3) 0.70085(13)
C109 C 0.43470(17) 0.4446(4) 0.71863(14)
C110 C 0.30740(19) 0.2841(3) 0.57592(15)
C111 C 0.3320(2) 0.3241(3) 0.70022(15)
C112 C 0.2805(2) 0.2659(3) 0.53842(16)
C113 C 0.37133(18) 0.3677(3) 0.71772(14)
H59 H 0.3813 0.3826 0.7419
C114 C 0.39627(17) 0.3899(3) 0.69977(14)
C115 C 0.3259(2) 0.3004(4) 0.60783(15)
C116 C 0.30306(19) 0.3044(3) 0.71876(14)
C117 C 0.3823(2) 0.3659(4) 0.66371(15)
H60 H 0.3992 0.3800 0.6517
C118 C 0.2508(2) 0.0765(3) 0.5393(2)
C119 C 0.3167(2) 0.3013(3) 0.66383(14)
H61 H 0.2894 0.2733 0.6516
C120 C 0.2489(2) 0.2056(4) 0.52605(17)
C121 C 0.2210(2) 0.0627(3) 0.5030(2)
C122 C 0.2795(2) 0.3070(3) 0.50913(17)
C123 C 0.1610(3) 0.1440(3) 0.5059(2)
C124 C 0.3429(2) 0.3210(3) 0.64607(15)
C125 C 0.2442(2) 0.1520(4) 0.55289(19)
H62 H 0.2658 0.1616 0.5790
C126 C 0.1150(3) 0.1474(4) 0.4951(3)
H63 H 0.0935 0.1398 0.4704
C127 C 0.1872(3) 0.1272(4) 0.4837(2)
H64 H 0.1658 0.1186 0.4574
C129 C 0.2858(3) 0.0235(5) 0.5609(3)
H66 H 0.3068 0.0323 0.5857
C130 C 0.1912(3) 0.1542(4) 0.5421(3)
C131 C 0.1766(4) 0.1659(6) 0.5677(3)
H67 H 0.1987 0.1703 0.5926
C133 C 0.1312(4) 0.1709(6) 0.5571(4)
H69 H 0.1212 0.1804 0.5745
C134 C 0.0976(4) 0.1622(5) 0.5203(4)
H70 H 0.0652 0.1659 0.5125
Cu9 Cu 0.28219(3) 0.32308(4) 0.778212(18)
Cu10 Cu 0.71781(3) 0.32308(4) 0.721788(18)
Cu13 Cu 0.22184(3) 0.24912(4) 0.719095(18)
Cu14 Cu 0.77816(3) 0.24912(4) 0.780905(18)
Cu16 Cu 0.50605(2) 0.53609(5) 0.720121(19)
Cu18 Cu 0.49395(2) 0.53609(5) 0.779879(19)
O31 O 0.23891(16) 0.3335(2) 0.25171(11)
O32 O 0.18722(15) 0.2702(2) 0.20178(11)
O41 O 0.26346(15) 0.1984(3) 0.20419(12)
O42 O 0.31552(15) 0.2609(3) 0.25529(12)
O1 O 0.26109(16) 0.8335(2) 0.24829(11)
O2 O 0.31278(15) 0.7702(2) 0.29822(11)
O5 O 0.04557(14) 0.8910(3) 0.29632(11)
O10 O 0.05220(14) 0.8879(3) 0.24452(10)
O11 O 0.23654(15) 0.6984(3) 0.29581(12)
O13 O 0.18448(15) 0.7609(3) 0.24471(12)
C2 C 0.20119(16) 0.7408(3) 0.27753(13)
C3 C 0.2248(2) 0.7430(3) 0.46139(16)
C5 C 0.29603(15) 0.8295(3) 0.28019(14)
C6 C 0.31650(19) 0.8987(3) 0.29922(14)
C9 C 0.46940(18) 0.9869(3) 0.46231(14)
C12 C 0.29806(18) 0.9639(3) 0.28154(15)
H8 H 0.2747 0.9638 0.2569
C14 C 0.12043(19) 0.7983(3) 0.33202(16)
H9 H 0.1033 0.8115 0.3440
C15 C 0.06376(19) 0.8697(3) 0.27714(14)
C17 C 0.5015(2) 0.9363(3) 0.48406(17)
C19 C 0.3530(2) 0.8986(3) 0.33627(15)
H10 H 0.3654 0.8552 0.3486
C22 C 0.10413(19) 0.8206(4) 0.29518(15)
C24 C 0.1295(2) 0.7955(3) 0.27695(16)
H13 H 0.1180 0.8057 0.2520
C25 C 0.4353(2) 0.9752(3) 0.42386(15)
C27 C 0.1708(2) 0.7562(3) 0.29569(16)
C28 C 0.2004(2) 0.7520(3) 0.48130(19)
C30 C 0.3701(2) 0.9647(3) 0.35407(15)
C31 C 0.1994(2) 0.7399(3) 0.42143(17)
C33 C 0.5005(2) 0.8057(3) 0.4970(2)
C34 C 0.1859(2) 0.7357(4) 0.33230(18)
H15 H 0.2129 0.7071 0.3444
C35 C 0.4067(2) 0.9676(3) 0.39215(16)
C36 C 0.5323(2) 0.8172(4) 0.5334(2)
C37 C 0.5343(4) 0.7735(5) 0.5602(3)
H16 H 0.5569 0.7799 0.5848
C42 C 0.2746(2) 0.7412(3) 0.47993(19)
C43 C 0.6381(2) 0.8668(4) 0.5283(2)
H17 H 0.6595 0.8723 0.5533
C46 C 0.1389(2) 0.8296(4) 0.4798(2)
C48 C 0.1637(2) 0.8399(4) 0.5189(2)
C49 C 0.1080(3) 0.8866(4) 0.4564(3)
H20 H 0.0911 0.8829 0.4308
C50 C 0.1548(3) 0.6507(6) 0.5465(3)
H21 H 0.1720 0.6541 0.5721
C51 C 0.1618(2) 0.7568(4) 0.35091(17)
C52 C 0.1800(2) 0.7435(4) 0.38886(19)
C53 C 0.1608(2) 0.7056(4) 0.5243(2)
C54 C 0.5580(2) 0.8571(4) 0.4785(2)
C55 C 0.1460(2) 0.7581(4) 0.4657(2)
H22 H 0.1281 0.7536 0.4388
C56 C 0.5068(3) 0.8597(3) 0.47050(19)
H23 H 0.4842 0.8511 0.4444
C57 C 0.1355(2) 0.6992(4) 0.4856(2)
C60 C 0.4678(3) 0.7511(4) 0.4867(3)
H26 H 0.4459 0.7451 0.4619
C62 C 0.5761(4) 0.8409(5) 0.4545(3)
H28 H 0.5554 0.8295 0.4300
C65 C 0.5658(2) 0.8813(4) 0.53865(19)
H30 H 0.5882 0.8899 0.5647
C66 C 0.5896(2) 0.8686(4) 0.5170(2)
C67 C 0.1581(3) 0.8981(7) 0.5339(3)
H31 H 0.1739 0.9004 0.5595
C69 C 0.1939(3) 0.7694(4) 0.5377(2)
H33 H 0.2117 0.7727 0.5646
C70 C 0.5006(3) 0.7178(5) 0.5494(4)
H34 H 0.5004 0.6875 0.5674
C71 C 0.4666(3) 0.7062(5) 0.5118(4)
H35 H 0.4445 0.6690 0.5049
C72 C 0.1063(4) 0.9464(4) 0.4755(4)
H36 H 0.0873 0.9849 0.4619
C73 C 0.6248(4) 0.8417(6) 0.4670(4)
H37 H 0.6365 0.8319 0.4507
C76 C 0.1043(3) 0.6424(5) 0.4700(3)
H40 H 0.0863 0.6387 0.4445
C77 C 0.1001(4) 0.5913(7) 0.4924(3)
H41 H 0.0798 0.5524 0.4814
C78 C 0.1253(3) 0.5949(5) 0.5314(3)
H42 H 0.1213 0.5598 0.5459
C80 C 0.6558(3) 0.8570(6) 0.5036(3)
H44 H 0.6882 0.8607 0.5117
C81 C 0.1323(3) 0.9541(5) 0.5161(4)
H45 H 0.1304 0.9957 0.5281
O18 O 0.69365(15) 0.8468(2) 0.70063(11)
O19 O 0.74400(15) 0.9067(2) 0.75148(10)
C84 C 0.71245(19) 0.8998(3) 0.71873(13)
C89 C 0.6505(2) 0.9716(3) 0.66429(15)
H48 H 0.6399 0.9275 0.6522
C91 C 0.6867(2) 0.9727(3) 0.70070(16)
C97 C 0.53135(18) 0.9466(3) 0.52073(15)
C128 C 0.2213(3) 0.9965(5) 0.4866(3)
H65 H 0.1995 0.9862 0.4622
C132 C 0.2557(3) 0.9473(4) 0.5085(3)
H68 H 0.2576 0.9030 0.4986
C135 C 0.2880(4) 0.9631(5) 0.5456(4)
H71 H 0.3114 0.9294 0.5595
O24 O 0.45443(14) 0.6090(3) 0.70368(11)
O25 O 0.44780(14) 0.6121(3) 0.75548(10)
O26 O 0.26346(15) 0.8016(3) 0.70419(12)
O27 O 0.31552(15) 0.7391(3) 0.75529(12)
C136 C 0.29881(16) 0.7592(3) 0.72247(13)
C137 C 0.2752(2) 0.7570(3) 0.53861(16)
C138 C 0.37957(19) 0.7017(3) 0.66798(16)
H72 H 0.3967 0.6885 0.6560
C139 C 0.43624(19) 0.6303(3) 0.72286(14)
C140 C 0.39587(19) 0.6794(4) 0.70482(15)
C141 C 0.3705(2) 0.7045(3) 0.72305(16)
H73 H 0.3820 0.6943 0.7480
C142 C 0.3292(2) 0.7438(3) 0.70431(16)
C143 C 0.2996(2) 0.7480(3) 0.51870(19)
C144 C 0.3006(2) 0.7601(3) 0.57857(17)
C145 C 0.3141(2) 0.7643(4) 0.66770(18)
H74 H 0.2871 0.7929 0.6556
C146 C 0.2254(2) 0.7588(3) 0.52007(19)
C147 C 0.3611(2) 0.6704(4) 0.5202(2)
C148 C 0.3363(2) 0.6601(4) 0.4811(2)
C149 C 0.3920(3) 0.6134(4) 0.5436(3)
H75 H 0.4089 0.6171 0.5692
C150 C 0.3452(3) 0.8493(6) 0.4535(3)
H76 H 0.3280 0.8459 0.4279
C151 C 0.3382(2) 0.7432(4) 0.64909(17)
C152 C 0.3200(2) 0.7565(4) 0.61114(19)
C153 C 0.3392(2) 0.7944(4) 0.4757(2)
C154 C 0.3540(2) 0.7419(4) 0.5343(2)
H77 H 0.3719 0.7464 0.5612
C155 C 0.3645(2) 0.8008(4) 0.5144(2)
C156 C 0.3419(3) 0.6019(7) 0.4661(3)
H78 H 0.3261 0.5996 0.4405
C157 C 0.3061(3) 0.7306(4) 0.4623(2)
H79 H 0.2883 0.7273 0.4354
C158 C 0.3937(4) 0.5536(4) 0.5245(4)
H80 H 0.4127 0.5151 0.5381
C159 C 0.3957(3) 0.8576(5) 0.5300(3)
H81 H 0.4137 0.8613 0.5555
C160 C 0.3999(4) 0.9087(7) 0.5076(3)
H82 H 0.4202 0.9476 0.5186
C161 C 0.3747(3) 0.9051(5) 0.4686(3)
H83 H 0.3787 0.9402 0.4541
C162 C 0.3677(3) 0.5459(5) 0.4839(4)
H84 H 0.3696 0.5043 0.4719
Cu4 Cu 0.00605(2) 0.96391(5) 0.220121(19)
O28 O 0.0111(3) 0.9619(4) 0.17111(17)
H85 H 0.0048 0.9995 0.1553
H86 H 0.0200 0.9233 0.1622
Cu5 Cu 0.28219(3) 0.67692(4) 0.278212(18)
O29 O 0.3280(2) 0.6182(4) 0.32534(15)
H87 H 0.3222 0.5759 0.3312
H88 H 0.3557 0.6323 0.3420
Cu6 Cu 0.22184(3) 0.75088(4) 0.219095(18)
O30 O 0.17292(19) 0.8037(3) 0.16917(14)
H89 H 0.1771 0.8109 0.1497
H90 H 0.1452 0.8221 0.1646
Cu7 Cu 0.78219(3) 0.82308(4) 0.778212(18)
Cu8 Cu 0.21781(3) 0.82308(4) 0.721788(18)
Cu11 Cu 0.72184(3) 0.74912(4) 0.719095(18)
Cu12 Cu 0.27816(3) 0.74912(4) 0.780905(18)
O33 O 0.26615(15) 0.7317(2) 0.20084(10)
O34 O 0.19365(15) 0.6532(2) 0.20063(11)
O36 O 0.31690(14) 0.6685(3) 0.25023(10)
O37 O 0.24400(15) 0.5933(2) 0.25148(10)
O38 O 0.94604(15) 0.0358(3) 0.24955(11)
O39 O 0.95793(17) 0.0402(3) 0.20085(13)
Cu3 Cu 0.99395(2) 0.96391(5) 0.279879(19)
O15 O 0.9889(3) 0.9619(4) 0.32889(17)
H5 H 0.9952 0.9995 0.3447
H6 H 0.9800 0.9233 0.3378
O35 O 0.95443(14) 0.8910(3) 0.20368(11)
O40 O 0.94780(14) 0.8879(3) 0.25548(10)
Cu1_2 Cu 0.78219(3) 0.17692(4) 0.278212(18)
Cu2_2 Cu 0.72184(3) 0.25088(4) 0.219095(18)
O3_2 O 0.76615(15) 0.2317(2) 0.20084(10)
O4_2 O 0.69365(15) 0.1532(2) 0.20063(11)
O6_2 O 0.81690(14) 0.1685(3) 0.25023(10)
O7_2 O 0.74400(15) 0.0933(2) 0.25148(10)
O12_2 O 0.8280(2) 0.1182(4) 0.32534(15)
H1_2 H 0.8222 0.0759 0.3312
H2_2 H 0.8557 0.1323 0.3420
O14_2 O 0.67292(19) 0.3037(3) 0.16917(14)
H3_2 H 0.6771 0.3109 0.1497
H4_2 H 0.6452 0.3221 0.1646
C1_2 C 0.93470(17) 0.0554(4) 0.21863(14)
C4_2 C 0.80740(19) 0.2159(3) 0.07592(15)
C7_2 C 0.8320(2) 0.1759(3) 0.20022(15)
C8_2 C 0.71245(19) 0.1002(3) 0.21873(13)
C10_2 C 0.7805(2) 0.2341(3) 0.03842(16)
C11_2 C 0.87133(18) 0.1323(3) 0.21772(14)
H7_2 H 0.8813 0.1174 0.2419
C13_2 C 0.89627(17) 0.1101(3) 0.19977(14)
C16_2 C 0.8259(2) 0.1996(4) 0.10783(15)
C18_2 C 0.80306(19) 0.1956(3) 0.21876(14)
C20_2 C 0.6505(2) 0.0284(3) 0.16429(15)
H11_2 H 0.6399 0.0725 0.1522
C21_2 C 0.8823(2) 0.1341(4) 0.16371(15)
H12_2 H 0.8992 0.1200 0.1517
C23_2 C 0.7508(2) 0.4235(3) 0.0393(2)
C26_2 C 0.8167(2) 0.1987(3) 0.16383(14)
H14_2 H 0.7894 0.2267 0.1516
C29_2 C 0.6867(2) 0.0273(3) 0.20070(16)
C32_2 C 0.7489(2) 0.2944(4) 0.02605(17)
C38_2 C 0.7210(2) 0.4373(3) 0.0030(2)
C39_2 C 0.7795(2) 0.1930(3) 0.00913(17)
C40_2 C 0.6610(3) 0.3560(3) 0.0059(2)
C41_2 C 0.53135(18) 0.0534(3) 0.02073(15)
C44_2 C 0.8429(2) 0.1790(3) 0.14607(15)
C45_2 C 0.7442(2) 0.3480(4) 0.05289(19)
H18_2 H 0.7658 0.3384 0.0790
C61_2 C 0.7858(3) 0.4765(5) 0.0609(3)
H27_2 H 0.8068 0.4677 0.0857
C63_2 C 0.6912(3) 0.3458(4) 0.0421(3)
C64_2 C 0.6766(4) 0.3341(6) 0.0677(3)
H29_2 H 0.6987 0.3297 0.0926
C68_2 C 0.7557(3) 0.5527(4) 0.0085(3)
C74_2 C 0.6312(4) 0.3291(6) 0.0571(4)
H38_2 H 0.6212 0.3196 0.0745
C75_2 C 0.5976(4) 0.3378(5) 0.0203(4)
H39_2 H 0.5652 0.3341 0.0125
C79_2 C 0.7880(4) 0.5369(5) 0.0456(4)
H43_2 H 0.8114 0.5706 0.0595
C95_2 C 0.5323(2) 0.1828(4) 0.0334(2)
C96_2 C 0.5343(4) 0.2265(5) 0.0602(3)
H49_2 H 0.5569 0.2201 0.0848
C98_2 C 0.6381(2) 0.1332(4) 0.0283(2)
H50_2 H 0.6595 0.1277 0.0533
C103_2 C 0.5658(2) 0.1187(4) 0.03865(19)
H54_2 H 0.5882 0.1101 0.0647
C104_2 C 0.5896(2) 0.1314(4) 0.0170(2)
C105_2 C 0.5006(3) 0.2822(5) 0.0494(4)
H55_2 H 0.5004 0.3125 0.0674
C106_2 C 0.4666(3) 0.2938(5) 0.0118(4)
H56_2 H 0.4445 0.3310 0.0049
C108_2 C 0.6558(3) 0.1430(6) 0.0036(3)
H58_2 H 0.6882 0.1393 0.0117
C126_2 C 0.8850(3) 0.1474(4) 0.0049(3)
H63_2 H 0.9065 0.1398 0.0296
C127_2 C 0.8128(3) 0.1272(4) 0.0163(2)
H64_2 H 0.8342 0.1186 0.0426
O31_2 O 0.76109(16) 0.3335(2) 0.24829(11)
O32_2 O 0.81278(15) 0.2702(2) 0.29822(11)
O41_2 O 0.73654(15) 0.1984(3) 0.29581(12)
O42_2 O 0.68448(15) 0.2609(3) 0.24471(12)
C47_2 C 0.6150(3) 0.3526(4) 0.9951(3)
H19_2 H 0.5935 0.3602 0.9704
C58_2 C 0.6872(3) 0.3728(4) 0.9837(2)
H24_2 H 0.6658 0.3814 0.9574
C59_2 C 0.7213(3) 0.5035(5) 0.9866(3)
H25_2 H 0.6995 0.5138 0.9622
H32_2 H 0.7576 0.5970 0.9986
O16_2 O 0.26109(16) 0.1665(2) 0.74829(11)
O17_2 O 0.31278(15) 0.2298(2) 0.79822(11)
C82_2 C 0.29603(15) 0.1705(3) 0.78019(14)
C83_2 C 0.31650(19) 0.1013(3) 0.79922(14)
C85_2 C 0.46940(18) 0.0131(3) 0.96231(14)
C86_2 C 0.29806(18) 0.0361(3) 0.78154(15)
H46_2 H 0.2747 0.0362 0.7569
C87_2 C 0.5015(2) 0.0637(3) 0.98406(17)
C88_2 C 0.3530(2) 0.1014(3) 0.83627(15)
H47_2 H 0.3654 0.1448 0.8486
C90_2 C 0.4353(2) 0.0248(3) 0.92386(15)
C92_2 C 0.3701(2) 0.0353(3) 0.85407(15)
C93_2 C 0.5005(2) 0.1943(3) 0.9970(2)
C94_2 C 0.4067(2) 0.0324(3) 0.89215(16)
C99_2 C 0.5580(2) 0.1429(4) 0.9785(2)
C100_2 C 0.5068(3) 0.1403(3) 0.97050(19)
H51_2 H 0.4842 0.1489 0.9444
C101_2 C 0.4678(3) 0.2489(4) 0.9867(3)
H52_2 H 0.4459 0.2549 0.9619
C102_2 C 0.5761(4) 0.1591(5) 0.9545(3)
H53_2 H 0.5554 0.1705 0.9300
C107_2 C 0.6248(4) 0.1583(6) 0.9670(4)
H57_2 H 0.6365 0.1681 0.9507
O20_2 O 0.73385(15) 0.2683(2) 0.79916(10)
O21_2 O 0.68310(14) 0.3315(3) 0.74977(10)
O22_2 O 0.55396(15) 0.4642(3) 0.75045(11)
O23_2 O 0.54207(17) 0.4598(3) 0.79915(13)
C109_2 C 0.56530(17) 0.4446(4) 0.78137(14)
C110_2 C 0.69260(19) 0.2841(3) 0.92408(15)
C111_2 C 0.6680(2) 0.3241(3) 0.79978(15)
C112_2 C 0.7195(2) 0.2659(3) 0.96158(16)
C113_2 C 0.62867(18) 0.3677(3) 0.78228(14)
H59_2 H 0.6187 0.3826 0.7581
C114_2 C 0.60373(17) 0.3899(3) 0.80023(14)
C115_2 C 0.6741(2) 0.3004(4) 0.89217(15)
C116_2 C 0.69694(19) 0.3044(3) 0.78124(14)
C117_2 C 0.6177(2) 0.3659(4) 0.83629(15)
H60_2 H 0.6008 0.3800 0.8483
C118_2 C 0.7492(2) 0.0765(3) 0.9607(2)
C119_2 C 0.6833(2) 0.3013(3) 0.83617(14)
H61_2 H 0.7106 0.2733 0.8484
C120_2 C 0.7511(2) 0.2056(4) 0.97395(17)
C121_2 C 0.7790(2) 0.0627(3) 0.9970(2)
C122_2 C 0.7205(2) 0.3070(3) 0.99087(17)
C123_2 C 0.8390(3) 0.1440(3) 0.9941(2)
C124_2 C 0.6571(2) 0.3210(3) 0.85393(15)
C125_2 C 0.7558(2) 0.1520(4) 0.94711(19)
H62_2 H 0.7342 0.1616 0.9210
C129_2 C 0.7142(3) 0.0235(5) 0.9391(3)
H66_2 H 0.6932 0.0323 0.9143
C130_2 C 0.8088(3) 0.1542(4) 0.9579(3)
C131_2 C 0.8234(4) 0.1659(6) 0.9323(3)
H67_2 H 0.8013 0.1703 0.9074
C133_2 C 0.8688(4) 0.1709(6) 0.9429(4)
H69_2 H 0.8788 0.1804 0.9255
C134_2 C 0.9024(4) 0.1622(5) 0.9797(4)
H70_2 H 0.9348 0.1659 0.9875
O1_2 O 0.73891(16) 0.8335(2) 0.25171(11)
O2_2 O 0.68722(15) 0.7702(2) 0.20178(11)
O11_2 O 0.76346(15) 0.6984(3) 0.20419(12)
O13_2 O 0.81552(15) 0.7609(3) 0.25529(12)
C2_2 C 0.79881(16) 0.7408(3) 0.22247(13)
C3_2 C 0.7752(2) 0.7430(3) 0.03861(16)
C5_2 C 0.70397(15) 0.8295(3) 0.21981(14)
C6_2 C 0.68350(19) 0.8987(3) 0.20078(14)
C9_2 C 0.53060(18) 0.9869(3) 0.03769(14)
C12_2 C 0.70194(18) 0.9639(3) 0.21846(15)
H8_2 H 0.7253 0.9638 0.2431
C14_2 C 0.87957(19) 0.7983(3) 0.16798(16)
H9_2 H 0.8967 0.8115 0.1560
C15_2 C 0.93624(19) 0.8697(3) 0.22286(14)
C17_2 C 0.4985(2) 0.9363(3) 0.01594(17)
C19_2 C 0.6470(2) 0.8986(3) 0.16373(15)
H10_2 H 0.6346 0.8552 0.1514
C22_2 C 0.89587(19) 0.8206(4) 0.20482(15)
C24_2 C 0.8705(2) 0.7955(3) 0.22305(16)
H13_2 H 0.8820 0.8057 0.2480
C25_2 C 0.5647(2) 0.9752(3) 0.07614(15)
C27_2 C 0.8292(2) 0.7562(3) 0.20431(16)
C28_2 C 0.7996(2) 0.7520(3) 0.01870(19)
C30_2 C 0.6299(2) 0.9647(3) 0.14593(15)
C31_2 C 0.8006(2) 0.7399(3) 0.07857(17)
C33_2 C 0.4995(2) 0.8057(3) 0.0030(2)
C34_2 C 0.8141(2) 0.7357(4) 0.16770(18)
H15_2 H 0.7871 0.7071 0.1556
C35_2 C 0.5933(2) 0.9676(3) 0.10785(16)
C42_2 C 0.7254(2) 0.7412(3) 0.02007(19)
C46_2 C 0.8611(2) 0.8296(4) 0.0202(2)
C49_2 C 0.8920(3) 0.8866(4) 0.0436(3)
H20_2 H 0.9089 0.8829 0.0692
C51_2 C 0.8382(2) 0.7568(4) 0.14909(17)
C52_2 C 0.8200(2) 0.7435(4) 0.11114(19)
C54_2 C 0.4420(2) 0.8571(4) 0.0215(2)
C55_2 C 0.8540(2) 0.7581(4) 0.0343(2)
H22_2 H 0.8719 0.7536 0.0612
C56_2 C 0.4932(3) 0.8597(3) 0.02950(19)
H23_2 H 0.5158 0.8511 0.0556
C57_2 C 0.8645(2) 0.6992(4) 0.0144(2)
C60_2 C 0.5322(3) 0.7511(4) 0.0133(3)
H26_2 H 0.5541 0.7451 0.0381
C62_2 C 0.4239(4) 0.8409(5) 0.0455(3)
H28_2 H 0.4446 0.8295 0.0700
C72_2 C 0.8937(4) 0.9464(4) 0.0245(4)
H36_2 H 0.9127 0.9849 0.0381
C73_2 C 0.3752(4) 0.8417(6) 0.0330(4)
H37_2 H 0.3635 0.8319 0.0493
C76_2 C 0.8957(3) 0.6424(5) 0.0300(3)
H40_2 H 0.9137 0.6387 0.0555
C77_2 C 0.8999(4) 0.5913(7) 0.0076(3)
H41_2 H 0.9202 0.5524 0.0186
C128_2 C 0.7787(3) 0.9965(5) 0.0134(3)
H65_2 H 0.8005 0.9862 0.0378
H68_2 H 0.7424 0.9030 0.0014
C148_2 C 0.6637(2) 0.6601(4) 0.0189(2)
C150_2 C 0.6548(3) 0.8493(6) 0.0465(3)
H76_2 H 0.6720 0.8459 0.0721
C153_2 C 0.6608(2) 0.7944(4) 0.0243(2)
C156_2 C 0.6581(3) 0.6019(7) 0.0339(3)
H78_2 H 0.6739 0.5996 0.0595
C157_2 C 0.6939(3) 0.7306(4) 0.0377(2)
H79_2 H 0.7117 0.7273 0.0646
C161_2 C 0.6253(3) 0.9051(5) 0.0314(3)
H83_2 H 0.6213 0.9402 0.0459
C162_2 C 0.6323(3) 0.5459(5) 0.0161(4)
H84_2 H 0.6304 0.5043 0.0281
Cu5_2 Cu 0.71781(3) 0.67692(4) 0.221788(18)
O29_2 O 0.6720(2) 0.6182(4) 0.17466(15)
H87_2 H 0.6778 0.5759 0.1688
H88_2 H 0.6443 0.6323 0.1580
Cu6_2 Cu 0.77816(3) 0.75088(4) 0.280905(18)
O30_2 O 0.82708(19) 0.8037(3) 0.33083(14)
H89_2 H 0.8229 0.8109 0.3503
H90_2 H 0.8548 0.8221 0.3354
O33_2 O 0.73385(15) 0.7317(2) 0.29916(10)
O34_2 O 0.80635(15) 0.6532(2) 0.29937(11)
O36_2 O 0.68310(14) 0.6685(3) 0.24977(10)
O37_2 O 0.75600(15) 0.5933(2) 0.24852(10)
C36_2 C 0.4677(2) 0.8172(4) 0.9666(2)
C37_2 C 0.4657(4) 0.7735(5) 0.9398(3)
H16_2 H 0.4431 0.7799 0.9152
C43_2 C 0.3619(2) 0.8668(4) 0.9717(2)
H17_2 H 0.3405 0.8723 0.9467
C48_2 C 0.8363(2) 0.8399(4) 0.9811(2)
C50_2 C 0.8452(3) 0.6507(6) 0.9535(3)
H21_2 H 0.8280 0.6541 0.9279
C53_2 C 0.8392(2) 0.7056(4) 0.9757(2)
C65_2 C 0.4342(2) 0.8813(4) 0.96135(19)
H30_2 H 0.4118 0.8899 0.9353
C66_2 C 0.4104(2) 0.8686(4) 0.9830(2)
C67_2 C 0.8419(3) 0.8981(7) 0.9661(3)
H31_2 H 0.8261 0.9004 0.9405
C69_2 C 0.8061(3) 0.7694(4) 0.9623(2)
H33_2 H 0.7883 0.7727 0.9354
C70_2 C 0.4994(3) 0.7178(5) 0.9506(4)
H34_2 H 0.4996 0.6875 0.9326
C71_2 C 0.5334(3) 0.7062(5) 0.9882(4)
H35_2 H 0.5555 0.6690 0.9951
C78_2 C 0.8747(3) 0.5949(5) 0.9686(3)
H42_2 H 0.8787 0.5598 0.9541
C80_2 C 0.3442(3) 0.8570(6) 0.9964(3)
H44_2 H 0.3118 0.8607 0.9883
C81_2 C 0.8677(3) 0.9541(5) 0.9839(4)
H45_2 H 0.8696 0.9957 0.9719
O18_2 O 0.30635(15) 0.8468(2) 0.79937(11)
O19_2 O 0.25600(15) 0.9067(2) 0.74852(10)
C84_2 C 0.28755(19) 0.8998(3) 0.78127(13)
C89_2 C 0.3495(2) 0.9716(3) 0.83571(15)
H48_2 H 0.3601 0.9275 0.8478
C91_2 C 0.3133(2) 0.9727(3) 0.79930(16)
C97_2 C 0.46865(18) 0.9466(3) 0.97927(15)
C132_2 C 0.7443(3) 0.9473(4) 0.9915(3)
C135_2 C 0.7120(4) 0.9631(5) 0.9544(4)
H71_2 H 0.6886 0.9294 0.9405
O24_2 O 0.54557(14) 0.6090(3) 0.79632(11)
O25_2 O 0.55220(14) 0.6121(3) 0.74452(10)
O26_2 O 0.73654(15) 0.8016(3) 0.79581(12)
O27_2 O 0.68448(15) 0.7391(3) 0.74471(12)
C136_2 C 0.70119(16) 0.7592(3) 0.77753(13)
C137_2 C 0.7248(2) 0.7570(3) 0.96139(16)
C138_2 C 0.62043(19) 0.7017(3) 0.83202(16)
H72_2 H 0.6033 0.6885 0.8440
C139_2 C 0.56376(19) 0.6303(3) 0.77714(14)
C140_2 C 0.60413(19) 0.6794(4) 0.79518(15)
C141_2 C 0.6295(2) 0.7045(3) 0.77695(16)
H73_2 H 0.6180 0.6943 0.7520
C142_2 C 0.6708(2) 0.7438(3) 0.79569(16)
C143_2 C 0.7004(2) 0.7480(3) 0.98130(19)
C144_2 C 0.6994(2) 0.7601(3) 0.92143(17)
C145_2 C 0.6859(2) 0.7643(4) 0.83230(18)
H74_2 H 0.7129 0.7929 0.8444
C146_2 C 0.7746(2) 0.7588(3) 0.97993(19)
C147_2 C 0.6389(2) 0.6704(4) 0.9798(2)
C149_2 C 0.6080(3) 0.6134(4) 0.9564(3)
H75_2 H 0.5911 0.6171 0.9308
C151_2 C 0.6618(2) 0.7432(4) 0.85091(17)
C152_2 C 0.6800(2) 0.7565(4) 0.88886(19)
C154_2 C 0.6460(2) 0.7419(4) 0.9657(2)
H77_2 H 0.6281 0.7464 0.9388
C155_2 C 0.6355(2) 0.8008(4) 0.9856(2)
C158_2 C 0.6063(4) 0.5536(4) 0.9755(4)
H80_2 H 0.5873 0.5151 0.9619
C159_2 C 0.6043(3) 0.8576(5) 0.9700(3)
H81_2 H 0.5863 0.8613 0.9445
C160_2 C 0.6001(4) 0.9087(7) 0.9924(3)
H82_2 H 0.5798 0.9476 0.9814
Cu16_2 Cu 0.00605(2) 0.03609(5) 0.720121(19)
C17_3 C 0.0015(2) 0.4363(3) 0.48406(17)
C33_3 C 0.0005(2) 0.3057(3) 0.4970(2)
C36_3 C 0.0323(2) 0.3172(4) 0.5334(2)
C37_3 C 0.0343(4) 0.2735(5) 0.5602(3)
H16_3 H 0.0569 0.2799 0.5848
C43_3 C 0.1381(2) 0.3668(4) 0.5283(2)
H17_3 H 0.1595 0.3723 0.5533
C54_3 C 0.0580(2) 0.3571(4) 0.4785(2)
C56_3 C 0.0068(3) 0.3597(3) 0.47050(19)
C62_3 C 0.0761(4) 0.3409(5) 0.4545(3)
H28_3 H 0.0554 0.3295 0.4300
C65_3 C 0.0658(2) 0.3813(4) 0.53865(19)
H30_3 H 0.0882 0.3899 0.5647
C66_3 C 0.0896(2) 0.3686(4) 0.5170(2)
C70_3 C 0.0006(3) 0.2178(5) 0.5494(4)
H34_3 H 0.0004 0.1875 0.5674
C73_3 C 0.1248(4) 0.3417(6) 0.4670(4)
H37_3 H 0.1365 0.3319 0.4507
C80_3 C 0.1558(3) 0.3570(6) 0.5036(3)
H44_3 H 0.1882 0.3607 0.5117
O16_3 O 0.23891(16) 0.6665(2) 0.75171(11)
O17_3 O 0.18722(15) 0.7298(2) 0.70178(11)
O18_3 O 0.19365(15) 0.3468(2) 0.70063(11)
O19_3 O 0.24400(15) 0.4067(2) 0.75148(10)
C82_3 C 0.20397(15) 0.6705(3) 0.71981(14)
C83_3 C 0.18350(19) 0.6013(3) 0.70078(14)
C84_3 C 0.21245(19) 0.3998(3) 0.71873(13)
C85_3 C 0.03060(18) 0.5131(3) 0.53769(14)
C86_3 C 0.20194(18) 0.5361(3) 0.71846(15)
H46_3 H 0.2253 0.5362 0.7431
C88_3 C 0.1470(2) 0.6014(3) 0.66373(15)
H47_3 H 0.1346 0.6448 0.6514
C89_3 C 0.1505(2) 0.4716(3) 0.66429(15)
H48_3 H 0.1399 0.4275 0.6522
C90_3 C 0.0647(2) 0.5248(3) 0.57614(15)
C91_3 C 0.1867(2) 0.4727(3) 0.70070(16)
C92_3 C 0.1299(2) 0.5353(3) 0.64593(15)
C94_3 C 0.0933(2) 0.5324(3) 0.60785(16)
C97_3 C 0.03135(18) 0.4466(3) 0.52073(15)
H51_3 H 0.0158 0.6489 0.5556
C101_3 C 0.0322(3) 0.7489(4) 0.5133(3)
H52_3 H 0.0541 0.7549 0.5381
C106_3 C 0.0334(3) 0.7938(5) 0.4882(4)
H56_3 H 0.0555 0.8310 0.4951
C59_3 C 0.7787(3) 0.0035(5) 0.5134(3)
H25_3 H 0.8005 0.0138 0.5378
C68_3 C 0.7443(3) 0.0527(4) 0.4915(3)
H32_3 H 0.7424 0.0970 0.5014
C79_3 C 0.7120(4) 0.0369(5) 0.4544(4)
H43_3 H 0.6886 0.0706 0.4405
Cu18_2 Cu 0.99395(2) 0.03609(5) 0.779879(19)
Cu3_2 Cu 0.49395(2) 0.46391(5) 0.279879(19)
O5_2 O 0.54557(14) 0.3910(3) 0.29632(11)
O8_2 O 0.55396(15) 0.5358(3) 0.25045(11)
O9_2 O 0.54207(17) 0.5402(3) 0.29915(13)
O10_2 O 0.55220(14) 0.3879(3) 0.24452(10)
O15_2 O 0.4889(3) 0.4619(4) 0.32889(17)
H5_2 H 0.4952 0.4995 0.3447
H6_2 H 0.4800 0.4233 0.3378
C1_3 C 0.56530(17) 0.5554(4) 0.28137(14)
C2_3 C 0.70119(16) 0.2408(3) 0.27753(13)
C3_3 C 0.7248(2) 0.2430(3) 0.46139(16)
C4_3 C 0.69260(19) 0.7159(3) 0.42408(15)
C5_3 C 0.79603(15) 0.3295(3) 0.28019(14)
C6_3 C 0.81650(19) 0.3987(3) 0.29922(14)
C7_3 C 0.6680(2) 0.6759(3) 0.29978(15)
C8_3 C 0.78755(19) 0.6002(3) 0.28127(13)
C9_3 C 0.96940(18) 0.4869(3) 0.46231(14)
C10_3 C 0.7195(2) 0.7341(3) 0.46158(16)
C11_3 C 0.62867(18) 0.6323(3) 0.28228(14)
H7_3 H 0.6187 0.6174 0.2581
C12_3 C 0.79806(18) 0.4639(3) 0.28154(15)
H8_3 H 0.7747 0.4638 0.2569
C13_3 C 0.60373(17) 0.6101(3) 0.30023(14)
C14_3 C 0.62043(19) 0.2983(3) 0.33202(16)
H9_3 H 0.6033 0.3115 0.3440
C15_3 C 0.56376(19) 0.3697(3) 0.27714(14)
C16_3 C 0.6741(2) 0.6996(4) 0.39217(15)
C18_3 C 0.69694(19) 0.6956(3) 0.28124(14)
C19_3 C 0.8530(2) 0.3986(3) 0.33627(15)
H10_3 H 0.8654 0.3552 0.3486
C20_3 C 0.8495(2) 0.5284(3) 0.33571(15)
H11_3 H 0.8601 0.5725 0.3478
C21_3 C 0.6177(2) 0.6341(4) 0.33629(15)
H12_3 H 0.6008 0.6200 0.3483
C22_3 C 0.60413(19) 0.3206(4) 0.29518(15)
C23_3 C 0.7492(2) 0.9235(3) 0.4607(2)
C24_3 C 0.6295(2) 0.2955(3) 0.27695(16)
H13_3 H 0.6180 0.3057 0.2520
C25_3 C 0.9353(2) 0.4752(3) 0.42386(15)
C26_3 C 0.6833(2) 0.6987(3) 0.33617(14)
H14_3 H 0.7106 0.7267 0.3484
C27_3 C 0.6708(2) 0.2562(3) 0.29569(16)
C28_3 C 0.7004(2) 0.2520(3) 0.48130(19)
C29_3 C 0.8133(2) 0.5273(3) 0.29930(16)
C30_3 C 0.8701(2) 0.4647(3) 0.35407(15)
C31_3 C 0.6994(2) 0.2399(3) 0.42143(17)
C32_3 C 0.7511(2) 0.7944(4) 0.47395(17)
C34_3 C 0.6859(2) 0.2357(4) 0.33230(18)
H15_3 H 0.7129 0.2071 0.3444
C35_3 C 0.9067(2) 0.4676(3) 0.39215(16)
C38_3 C 0.7790(2) 0.9373(3) 0.4970(2)
C39_3 C 0.7205(2) 0.6930(3) 0.49087(17)
C40_3 C 0.8390(3) 0.8560(3) 0.4941(2)
C41_3 C 0.96865(18) 0.5534(3) 0.47927(15)
C42_3 C 0.7746(2) 0.2412(3) 0.47993(19)
C44_3 C 0.6571(2) 0.6790(3) 0.35393(15)
C45_3 C 0.7558(2) 0.8480(4) 0.44711(19)
H18_3 H 0.7342 0.8384 0.4210
C46_3 C 0.6389(2) 0.3296(4) 0.4798(2)
C47_3 C 0.8850(3) 0.8526(4) 0.5049(3)
H19_3 H 0.9065 0.8602 0.5296
C48_3 C 0.6637(2) 0.3399(4) 0.5189(2)
C49_3 C 0.6080(3) 0.3866(4) 0.4564(3)
H20_3 H 0.5911 0.3829 0.4308
C50_3 C 0.6548(3) 0.1507(6) 0.5465(3)
H21_3 H 0.6720 0.1541 0.5721
C51_3 C 0.6618(2) 0.2568(4) 0.35091(17)
C52_3 C 0.6800(2) 0.2435(4) 0.38886(19)
C53_3 C 0.6608(2) 0.2056(4) 0.5243(2)
C55_3 C 0.6460(2) 0.2581(4) 0.4657(2)
H22_3 H 0.6281 0.2536 0.4388
H23_3 H 0.9842 0.3511 0.4444
C57_3 C 0.6355(2) 0.1992(4) 0.4856(2)
C58_3 C 0.8128(3) 0.8728(4) 0.5163(2)
H24_3 H 0.8342 0.8814 0.5426
C60_3 C 0.9678(3) 0.2511(4) 0.4867(3)
H26_3 H 0.9459 0.2451 0.4619
C61_3 C 0.7142(3) 0.9765(5) 0.4391(3)
H27_3 H 0.6932 0.9677 0.4143
C63_3 C 0.8088(3) 0.8458(4) 0.4579(3)
C64_3 C 0.8234(4) 0.8341(6) 0.4323(3)
H29_3 H 0.8013 0.8297 0.4074
C67_3 C 0.6581(3) 0.3981(7) 0.5339(3)
H31_3 H 0.6739 0.4004 0.5595
C69_3 C 0.6939(3) 0.2694(4) 0.5377(2)
H33_3 H 0.7117 0.2727 0.5646
C71_3 C 0.9666(3) 0.2062(5) 0.5118(4)
H35_3 H 0.9445 0.1690 0.5049
C72_3 C 0.6063(4) 0.4464(4) 0.4755(4)
H36_3 H 0.5873 0.4849 0.4619
C74_3 C 0.8688(4) 0.8291(6) 0.4429(4)
H38_3 H 0.8788 0.8196 0.4255
C75_3 C 0.9024(4) 0.8378(5) 0.4797(4)
H39_3 H 0.9348 0.8341 0.4875
C76_3 C 0.6043(3) 0.1424(5) 0.4700(3)
H40_3 H 0.5863 0.1387 0.4445
C77_3 C 0.6001(4) 0.0913(7) 0.4924(3)
H41_3 H 0.5798 0.0524 0.4814
C78_3 C 0.6253(3) 0.0949(5) 0.5314(3)
H42_3 H 0.6213 0.0598 0.5459
C81_3 C 0.6323(3) 0.4541(5) 0.5161(4)
H45_3 H 0.6304 0.4957 0.5281
C87_3 C 0.9985(2) 0.5637(3) 0.51594(17)
C93_3 C 0.9995(2) 0.6943(3) 0.5030(2)
C95_3 C 0.9677(2) 0.6828(4) 0.4666(2)
C96_3 C 0.9657(4) 0.7265(5) 0.4398(3)
H49_3 H 0.9431 0.7201 0.4152
C98_3 C 0.8619(2) 0.6332(4) 0.4717(2)
H50_3 H 0.8405 0.6277 0.4467
C99_3 C 0.9420(2) 0.6429(4) 0.5215(2)
C100_3 C 0.9932(3) 0.6403(3) 0.52950(19)
C102_3 C 0.9239(4) 0.6591(5) 0.5455(3)
H53_3 H 0.9446 0.6705 0.5700
C103_3 C 0.9342(2) 0.6187(4) 0.46135(19)
H54_3 H 0.9118 0.6101 0.4353
C104_3 C 0.9104(2) 0.6314(4) 0.4830(2)
C105_3 C 0.9994(3) 0.7822(5) 0.4506(4)
H55_3 H 0.9996 0.8125 0.4326
C107_3 C 0.8752(4) 0.6583(6) 0.5330(4)
H57_3 H 0.8635 0.6681 0.5493
C108_3 C 0.8442(3) 0.6430(6) 0.4964(3)
H58_3 H 0.8118 0.6393 0.4883
O20_3 O 0.76615(15) 0.7683(2) 0.70084(10)
O21_3 O 0.81690(14) 0.8315(3) 0.75023(10)
O22_3 O 0.94604(15) 0.9642(3) 0.74955(11)
O23_3 O 0.95793(17) 0.9598(3) 0.70085(13)
C109_3 C 0.93470(17) 0.9446(4) 0.71863(14)
C110_3 C 0.80740(19) 0.7841(3) 0.57592(15)
C111_3 C 0.8320(2) 0.8241(3) 0.70022(15)
C112_3 C 0.7805(2) 0.7659(3) 0.53842(16)
C113_3 C 0.87133(18) 0.8677(3) 0.71772(14)
H59_3 H 0.8813 0.8826 0.7419
C114_3 C 0.89627(17) 0.8899(3) 0.69977(14)
C115_3 C 0.8259(2) 0.8004(4) 0.60783(15)
C116_3 C 0.80306(19) 0.8044(3) 0.71876(14)
C117_3 C 0.8823(2) 0.8659(4) 0.66371(15)
H60_3 H 0.8992 0.8800 0.6517
C118_3 C 0.7508(2) 0.5765(3) 0.5393(2)
C119_3 C 0.8167(2) 0.8013(3) 0.66383(14)
H61_3 H 0.7894 0.7733 0.6516
C120_3 C 0.7489(2) 0.7056(4) 0.52605(17)
C121_3 C 0.7210(2) 0.5627(3) 0.5030(2)
C122_3 C 0.7795(2) 0.8070(3) 0.50913(17)
C123_3 C 0.6610(3) 0.6440(3) 0.5059(2)
C124_3 C 0.8429(2) 0.8210(3) 0.64607(15)
C125_3 C 0.7442(2) 0.6520(4) 0.55289(19)
H62_3 H 0.7658 0.6616 0.5790
C126_3 C 0.6150(3) 0.6474(4) 0.4951(3)
H63_3 H 0.5935 0.6398 0.4704
C127_3 C 0.6872(3) 0.6272(4) 0.4837(2)
H64_3 H 0.6658 0.6186 0.4574
C128_3 C 0.7213(3) 0.4965(5) 0.4866(3)
H65_3 H 0.6995 0.4862 0.4622
C129_3 C 0.7858(3) 0.5235(5) 0.5609(3)
H66_3 H 0.8068 0.5323 0.5857
C130_3 C 0.6912(3) 0.6542(4) 0.5421(3)
C131_3 C 0.6766(4) 0.6659(6) 0.5677(3)
H67_3 H 0.6987 0.6703 0.5926
C132_3 C 0.7557(3) 0.4473(4) 0.5085(3)
H68_3 H 0.7576 0.4030 0.4986
C133_3 C 0.6312(4) 0.6709(6) 0.5571(4)
H69_3 H 0.6212 0.6804 0.5745
C134_3 C 0.5976(4) 0.6622(5) 0.5203(4)
H70_3 H 0.5652 0.6659 0.5125
C135_3 C 0.7880(4) 0.4631(5) 0.5456(4)
H71_3 H 0.8114 0.4294 0.5595
O24_3 O 0.95443(14) 0.1090(3) 0.70368(11)
O25_3 O 0.94780(14) 0.1121(3) 0.75548(10)
O26_3 O 0.76346(15) 0.3016(3) 0.70419(12)
O27_3 O 0.81552(15) 0.2391(3) 0.75529(12)
C136_3 C 0.79881(16) 0.2592(3) 0.72247(13)
C137_3 C 0.7752(2) 0.2570(3) 0.53861(16)
C138_3 C 0.87957(19) 0.2017(3) 0.66798(16)
H72_3 H 0.8967 0.1885 0.6560
C139_3 C 0.93624(19) 0.1303(3) 0.72286(14)
C140_3 C 0.89587(19) 0.1794(4) 0.70482(15)
C141_3 C 0.8705(2) 0.2045(3) 0.72305(16)
H73_3 H 0.8820 0.1943 0.7480
C142_3 C 0.8292(2) 0.2438(3) 0.70431(16)
C143_3 C 0.7996(2) 0.2480(3) 0.51870(19)
C144_3 C 0.8006(2) 0.2601(3) 0.57857(17)
C145_3 C 0.8141(2) 0.2643(4) 0.66770(18)
H74_3 H 0.7871 0.2929 0.6556
C146_3 C 0.7254(2) 0.2588(3) 0.52007(19)
C147_3 C 0.8611(2) 0.1704(4) 0.5202(2)
C148_3 C 0.8363(2) 0.1601(4) 0.4811(2)
C149_3 C 0.8920(3) 0.1134(4) 0.5436(3)
H75_3 H 0.9089 0.1171 0.5692
C150_3 C 0.8452(3) 0.3493(6) 0.4535(3)
H76_3 H 0.8280 0.3459 0.4279
C151_3 C 0.8382(2) 0.2432(4) 0.64909(17)
C152_3 C 0.8200(2) 0.2565(4) 0.61114(19)
C153_3 C 0.8392(2) 0.2944(4) 0.4757(2)
C154_3 C 0.8540(2) 0.2419(4) 0.5343(2)
H77_3 H 0.8719 0.2464 0.5612
C155_3 C 0.8645(2) 0.3008(4) 0.5144(2)
C156_3 C 0.8419(3) 0.1019(7) 0.4661(3)
H78_3 H 0.8261 0.0996 0.4405
C157_3 C 0.8061(3) 0.2306(4) 0.4623(2)
H79_3 H 0.7883 0.2273 0.4354
C158_3 C 0.8937(4) 0.0536(4) 0.5245(4)
H80_3 H 0.9127 0.0151 0.5381
C159_3 C 0.8957(3) 0.3576(5) 0.5300(3)
H81_3 H 0.9137 0.3613 0.5555
C160_3 C 0.8999(4) 0.4087(7) 0.5076(3)
H82_3 H 0.9202 0.4476 0.5186
C161_3 C 0.8747(3) 0.4051(5) 0.4686(3)
H83_3 H 0.8787 0.4402 0.4541
C162_3 C 0.8677(3) 0.0459(5) 0.4839(4)
H84_3 H 0.8696 0.0043 0.4719
Cu4_2 Cu 0.50605(2) 0.46391(5) 0.220121(19)
O28_2 O 0.5111(3) 0.4619(4) 0.17111(17)
H85_2 H 0.5048 0.4995 0.1553
H86_2 H 0.5200 0.4233 0.1622
O35_2 O 0.45443(14) 0.3910(3) 0.20368(11)
O38_2 O 0.44604(15) 0.5358(3) 0.24955(11)
O39_2 O 0.45793(17) 0.5402(3) 0.20085(13)
O40_2 O 0.44780(14) 0.3879(3) 0.25548(10)
C68_4 C 0.2557(3) 0.0527(4) 0.0085(3)
C79_4 C 0.2880(4) 0.0369(5) 0.0456(4)
H43_4 H 0.3114 0.0706 0.0595
C59_4 C 0.2213(3) 0.0035(5) 0.9866(3)
H25_4 H 0.1995 0.0138 0.9622
H32_4 H 0.2576 0.0970 0.9986
C1_4 C 0.43470(17) 0.5554(4) 0.21863(14)
C2_4 C 0.29881(16) 0.2408(3) 0.22247(13)
C3_4 C 0.2752(2) 0.2430(3) 0.03861(16)
C4_4 C 0.30740(19) 0.7159(3) 0.07592(15)
C5_4 C 0.20397(15) 0.3295(3) 0.21981(14)
C6_4 C 0.18350(19) 0.3987(3) 0.20078(14)
C7_4 C 0.3320(2) 0.6759(3) 0.20022(15)
C8_4 C 0.21245(19) 0.6002(3) 0.21873(13)
C9_4 C 0.03060(18) 0.4869(3) 0.03769(14)
C10_4 C 0.2805(2) 0.7341(3) 0.03842(16)
C11_4 C 0.37133(18) 0.6323(3) 0.21772(14)
H7_4 H 0.3813 0.6174 0.2419
C12_4 C 0.20194(18) 0.4639(3) 0.21846(15)
H8_4 H 0.2253 0.4638 0.2431
C13_4 C 0.39627(17) 0.6101(3) 0.19977(14)
C14_4 C 0.37957(19) 0.2983(3) 0.16798(16)
H9_4 H 0.3967 0.3115 0.1560
C15_4 C 0.43624(19) 0.3697(3) 0.22286(14)
C16_4 C 0.3259(2) 0.6996(4) 0.10783(15)
C18_4 C 0.30306(19) 0.6956(3) 0.21876(14)
C19_4 C 0.1470(2) 0.3986(3) 0.16373(15)
H10_4 H 0.1346 0.3552 0.1514
C20_4 C 0.1505(2) 0.5284(3) 0.16429(15)
H11_4 H 0.1399 0.5725 0.1522
C21_4 C 0.3823(2) 0.6341(4) 0.16371(15)
H12_4 H 0.3992 0.6200 0.1517
C22_4 C 0.39587(19) 0.3206(4) 0.20482(15)
C23_4 C 0.2508(2) 0.9235(3) 0.0393(2)
C24_4 C 0.3705(2) 0.2955(3) 0.22305(16)
H13_4 H 0.3820 0.3057 0.2480
C25_4 C 0.0647(2) 0.4752(3) 0.07614(15)
C26_4 C 0.3167(2) 0.6987(3) 0.16383(14)
H14_4 H 0.2894 0.7267 0.1516
C27_4 C 0.3292(2) 0.2562(3) 0.20431(16)
C28_4 C 0.2996(2) 0.2520(3) 0.01870(19)
C29_4 C 0.1867(2) 0.5273(3) 0.20070(16)
C30_4 C 0.1299(2) 0.4647(3) 0.14593(15)
C31_4 C 0.3006(2) 0.2399(3) 0.07857(17)
C32_4 C 0.2489(2) 0.7944(4) 0.02605(17)
C34_4 C 0.3141(2) 0.2357(4) 0.16770(18)
H15_4 H 0.2871 0.2071 0.1556
C35_4 C 0.0933(2) 0.4676(3) 0.10785(16)
C38_4 C 0.2210(2) 0.9373(3) 0.0030(2)
C39_4 C 0.2795(2) 0.6930(3) 0.00913(17)
C40_4 C 0.1610(3) 0.8560(3) 0.0059(2)
C41_4 C 0.03135(18) 0.5534(3) 0.02073(15)
C42_4 C 0.2254(2) 0.2412(3) 0.02007(19)
C44_4 C 0.3429(2) 0.6790(3) 0.14607(15)
C45_4 C 0.2442(2) 0.8480(4) 0.05289(19)
H18_4 H 0.2658 0.8384 0.0790
C46_4 C 0.3611(2) 0.3296(4) 0.0202(2)
C49_4 C 0.3920(3) 0.3866(4) 0.0436(3)
H20_4 H 0.4089 0.3829 0.0692
C51_4 C 0.3382(2) 0.2568(4) 0.14909(17)
C52_4 C 0.3200(2) 0.2435(4) 0.11114(19)
C55_4 C 0.3540(2) 0.2581(4) 0.0343(2)
H22_4 H 0.3719 0.2536 0.0612
H23_4 H 0.0158 0.3511 0.0556
C57_4 C 0.3645(2) 0.1992(4) 0.0144(2)
C60_4 C 0.0322(3) 0.2511(4) 0.0133(3)
H26_4 H 0.0541 0.2451 0.0381
C61_4 C 0.2858(3) 0.9765(5) 0.0609(3)
H27_4 H 0.3068 0.9677 0.0857
C63_4 C 0.1912(3) 0.8458(4) 0.0421(3)
C64_4 C 0.1766(4) 0.8341(6) 0.0677(3)
H29_4 H 0.1987 0.8297 0.0926
C72_4 C 0.3937(4) 0.4464(4) 0.0245(4)
H36_4 H 0.4127 0.4849 0.0381
C74_4 C 0.1312(4) 0.8291(6) 0.0571(4)
H38_4 H 0.1212 0.8196 0.0745
C75_4 C 0.0976(4) 0.8378(5) 0.0203(4)
H39_4 H 0.0652 0.8341 0.0125
C76_4 C 0.3957(3) 0.1424(5) 0.0300(3)
H40_4 H 0.4137 0.1387 0.0555
C77_4 C 0.3999(4) 0.0913(7) 0.0076(3)
H41_4 H 0.4202 0.0524 0.0186
C95_4 C 0.0323(2) 0.6828(4) 0.0334(2)
C96_4 C 0.0343(4) 0.7265(5) 0.0602(3)
H49_4 H 0.0569 0.7201 0.0848
C98_4 C 0.1381(2) 0.6332(4) 0.0283(2)
H50_4 H 0.1595 0.6277 0.0533
C103_4 C 0.0658(2) 0.6187(4) 0.03865(19)
H54_4 H 0.0882 0.6101 0.0647
C104_4 C 0.0896(2) 0.6314(4) 0.0170(2)
C105_4 C 0.0006(3) 0.7822(5) 0.0494(4)
H55_4 H 0.0004 0.8125 0.0674
C108_4 C 0.1558(3) 0.6430(6) 0.0036(3)
H58_4 H 0.1882 0.6393 0.0117
C126_4 C 0.3850(3) 0.6474(4) 0.0049(3)
H63_4 H 0.4065 0.6398 0.0296
C127_4 C 0.3128(3) 0.6272(4) 0.0163(2)
H64_4 H 0.3342 0.6186 0.0426
C128_4 C 0.2787(3) 0.4965(5) 0.0134(3)
H65_4 H 0.3005 0.4862 0.0378
H68_4 H 0.2424 0.4030 0.0014
C148_4 C 0.1637(2) 0.1601(4) 0.0189(2)
C150_4 C 0.1548(3) 0.3493(6) 0.0465(3)
H76_4 H 0.1720 0.3459 0.0721
C153_4 C 0.1608(2) 0.2944(4) 0.0243(2)
C156_4 C 0.1581(3) 0.1019(7) 0.0339(3)
H78_4 H 0.1739 0.0996 0.0595
C157_4 C 0.1939(3) 0.2306(4) 0.0377(2)
H79_4 H 0.2117 0.2273 0.0646
C161_4 C 0.1253(3) 0.4051(5) 0.0314(3)
H83_4 H 0.1213 0.4402 0.0459
C162_4 C 0.1323(3) 0.0459(5) 0.0161(4)
H84_4 H 0.1304 0.0043 0.0281
C47_4 C 0.1150(3) 0.8526(4) 0.9951(3)
H19_4 H 0.0935 0.8602 0.9704
C48_4 C 0.3363(2) 0.3399(4) 0.9811(2)
C50_4 C 0.3452(3) 0.1507(6) 0.9535(3)
H21_4 H 0.3280 0.1541 0.9279
C53_4 C 0.3392(2) 0.2056(4) 0.9757(2)
C58_4 C 0.1872(3) 0.8728(4) 0.9837(2)
H24_4 H 0.1658 0.8814 0.9574
C67_4 C 0.3419(3) 0.3981(7) 0.9661(3)
H31_4 H 0.3261 0.4004 0.9405
C69_4 C 0.3061(3) 0.2694(4) 0.9623(2)
H33_4 H 0.2883 0.2727 0.9354
C71_4 C 0.0334(3) 0.2062(5) 0.9882(4)
H35_4 H 0.0555 0.1690 0.9951
C78_4 C 0.3747(3) 0.0949(5) 0.9686(3)
H42_4 H 0.3787 0.0598 0.9541
C81_4 C 0.3677(3) 0.4541(5) 0.9839(4)
H45_4 H 0.3696 0.4957 0.9719
C87_4 C 0.0015(2) 0.5637(3) 0.98406(17)
C93_4 C 0.0005(2) 0.6943(3) 0.9970(2)
C99_4 C 0.0580(2) 0.6429(4) 0.9785(2)
C100_4 C 0.0068(3) 0.6403(3) 0.97050(19)
C102_4 C 0.0761(4) 0.6591(5) 0.9545(3)
H53_4 H 0.0554 0.6705 0.9300
C107_4 C 0.1248(4) 0.6583(6) 0.9670(4)
H57_4 H 0.1365 0.6681 0.9507
O20_4 O 0.23385(15) 0.7683(2) 0.79916(10)
O21_4 O 0.18310(14) 0.8315(3) 0.74977(10)
O22_4 O 0.05396(15) 0.9642(3) 0.75045(11)
O23_4 O 0.04207(17) 0.9598(3) 0.79915(13)
C109_4 C 0.06530(17) 0.9446(4) 0.78137(14)
C110_4 C 0.19260(19) 0.7841(3) 0.92408(15)
C111_4 C 0.1680(2) 0.8241(3) 0.79978(15)
C112_4 C 0.2195(2) 0.7659(3) 0.96158(16)
C113_4 C 0.12867(18) 0.8677(3) 0.78228(14)
H59_4 H 0.1187 0.8826 0.7581
C114_4 C 0.10373(17) 0.8899(3) 0.80023(14)
C115_4 C 0.1741(2) 0.8004(4) 0.89217(15)
C116_4 C 0.19694(19) 0.8044(3) 0.78124(14)
C117_4 C 0.1177(2) 0.8659(4) 0.83629(15)
H60_4 H 0.1008 0.8800 0.8483
C118_4 C 0.2492(2) 0.5765(3) 0.9607(2)
C119_4 C 0.1833(2) 0.8013(3) 0.83617(14)
H61_4 H 0.2106 0.7733 0.8484
C120_4 C 0.2511(2) 0.7056(4) 0.97395(17)
C121_4 C 0.2790(2) 0.5627(3) 0.9970(2)
C122_4 C 0.2205(2) 0.8070(3) 0.99087(17)
C123_4 C 0.3390(3) 0.6440(3) 0.9941(2)
C124_4 C 0.1571(2) 0.8210(3) 0.85393(15)
C125_4 C 0.2558(2) 0.6520(4) 0.94711(19)
H62_4 H 0.2342 0.6616 0.9210
C129_4 C 0.2142(3) 0.5235(5) 0.9391(3)
H66_4 H 0.1932 0.5323 0.9143
C130_4 C 0.3088(3) 0.6542(4) 0.9579(3)
C131_4 C 0.3234(4) 0.6659(6) 0.9323(3)
H67_4 H 0.3013 0.6703 0.9074
C132_4 C 0.2443(3) 0.4473(4) 0.9915(3)
C133_4 C 0.3688(4) 0.6709(6) 0.9429(4)
H69_4 H 0.3788 0.6804 0.9255
C134_4 C 0.4024(4) 0.6622(5) 0.9797(4)
H70_4 H 0.4348 0.6659 0.9875
C135_4 C 0.2120(4) 0.4631(5) 0.9544(4)
H71_4 H 0.1886 0.4294 0.9405
O24_4 O 0.04557(14) 0.1090(3) 0.79632(11)
O25_4 O 0.05220(14) 0.1121(3) 0.74452(10)
O26_4 O 0.23654(15) 0.3016(3) 0.79581(12)
O27_4 O 0.18448(15) 0.2391(3) 0.74471(12)
C136_4 C 0.20119(16) 0.2592(3) 0.77753(13)
C137_4 C 0.2248(2) 0.2570(3) 0.96139(16)
C138_4 C 0.12043(19) 0.2017(3) 0.83202(16)
H72_4 H 0.1033 0.1885 0.8440
C139_4 C 0.06376(19) 0.1303(3) 0.77714(14)
C140_4 C 0.10413(19) 0.1794(4) 0.79518(15)
C141_4 C 0.1295(2) 0.2045(3) 0.77695(16)
H73_4 H 0.1180 0.1943 0.7520
C142_4 C 0.1708(2) 0.2438(3) 0.79569(16)
C143_4 C 0.2004(2) 0.2480(3) 0.98130(19)
C144_4 C 0.1994(2) 0.2601(3) 0.92143(17)
C145_4 C 0.1859(2) 0.2643(4) 0.83230(18)
H74_4 H 0.2129 0.2929 0.8444
C146_4 C 0.2746(2) 0.2588(3) 0.97993(19)
C147_4 C 0.1389(2) 0.1704(4) 0.9798(2)
C149_4 C 0.1080(3) 0.1134(4) 0.9564(3)
H75_4 H 0.0911 0.1171 0.9308
C151_4 C 0.1618(2) 0.2432(4) 0.85091(17)
C152_4 C 0.1800(2) 0.2565(4) 0.88886(19)
C154_4 C 0.1460(2) 0.2419(4) 0.9657(2)
H77_4 H 0.1281 0.2464 0.9388
C155_4 C 0.1355(2) 0.3008(4) 0.9856(2)
C158_4 C 0.1063(4) 0.0536(4) 0.9755(4)
H80_4 H 0.0873 0.0151 0.9619
C159_4 C 0.1043(3) 0.3576(5) 0.9700(3)
H81_4 H 0.0863 0.3613 0.9445
C160_4 C 0.1001(4) 0.4087(7) 0.9924(3)
H82_4 H 0.0798 0.4476 0.9814
C17_4 C 0.9985(2) 0.4363(3) 0.01594(17)
C33_4 C 0.9995(2) 0.3057(3) 0.0030(2)
C54_4 C 0.9420(2) 0.3571(4) 0.0215(2)
C56_4 C 0.9932(3) 0.3597(3) 0.02950(19)
C62_4 C 0.9239(4) 0.3409(5) 0.0455(3)
H28_4 H 0.9446 0.3295 0.0700
C73_4 C 0.8752(4) 0.3417(6) 0.0330(4)
H37_4 H 0.8635 0.3319 0.0493
C106_4 C 0.9666(3) 0.7938(5) 0.0118(4)
H56_4 H 0.9445 0.8310 0.0049
C36_4 C 0.9677(2) 0.3172(4) 0.9666(2)
C37_4 C 0.9657(4) 0.2735(5) 0.9398(3)
H16_4 H 0.9431 0.2799 0.9152
C43_4 C 0.8619(2) 0.3668(4) 0.9717(2)
H17_4 H 0.8405 0.3723 0.9467
C65_4 C 0.9342(2) 0.3813(4) 0.96135(19)
H30_4 H 0.9118 0.3899 0.9353
C66_4 C 0.9104(2) 0.3686(4) 0.9830(2)
C70_4 C 0.9994(3) 0.2178(5) 0.9506(4)
H34_4 H 0.9996 0.1875 0.9326
C80_4 C 0.8442(3) 0.3570(6) 0.9964(3)
H44_4 H 0.8118 0.3607 0.9883
O16_4 O 0.76109(16) 0.6665(2) 0.74829(11)
O17_4 O 0.81278(15) 0.7298(2) 0.79822(11)
O18_4 O 0.80635(15) 0.3468(2) 0.79937(11)
O19_4 O 0.75600(15) 0.4067(2) 0.74852(10)
C82_4 C 0.79603(15) 0.6705(3) 0.78019(14)
C83_4 C 0.81650(19) 0.6013(3) 0.79922(14)
C84_4 C 0.78755(19) 0.3998(3) 0.78127(13)
C85_4 C 0.96940(18) 0.5131(3) 0.96231(14)
C86_4 C 0.79806(18) 0.5361(3) 0.78154(15)
H46_4 H 0.7747 0.5362 0.7569
C88_4 C 0.8530(2) 0.6014(3) 0.83627(15)
H47_4 H 0.8654 0.6448 0.8486
C89_4 C 0.8495(2) 0.4716(3) 0.83571(15)
H48_4 H 0.8601 0.4275 0.8478
C90_4 C 0.9353(2) 0.5248(3) 0.92386(15)
C91_4 C 0.8133(2) 0.4727(3) 0.79930(16)
C92_4 C 0.8701(2) 0.5353(3) 0.85407(15)
C94_4 C 0.9067(2) 0.5324(3) 0.89215(16)
C97_4 C 0.96865(18) 0.4466(3) 0.97927(15)
H51_4 H 0.9842 0.6489 0.9444
C101_4 C 0.9678(3) 0.7489(4) 0.9867(3)
H52_4 H 0.9459 0.7549 0.9619
O15_3 O 0.0111(3) 0.0381(4) 0.67111(17)
H5_3 H 0.0048 0.0005 0.6553
H6_3 H 0.0200 0.0767 0.6622
O28_3 O 0.9889(3) 0.0381(4) 0.82889(17)
H85_3 H 0.9952 0.0005 0.8447
H86_3 H 0.9800 0.0767 0.8378
O29_3 O 0.6720(2) 0.3818(4) 0.67466(15)
H87_3 H 0.6778 0.4241 0.6688
H88_3 H 0.6443 0.3677 0.6580
O30_3 O 0.82708(19) 0.1963(3) 0.83083(14)
H89_3 H 0.8229 0.1891 0.8503
H90_3 H 0.8548 0.1779 0.8354
O12_3 O 0.8280(2) 0.8818(4) 0.82534(15)
H1_3 H 0.8222 0.9241 0.8312
H2_3 H 0.8557 0.8677 0.8420
O14_3 O 0.67292(19) 0.6963(3) 0.66917(14)
H3_3 H 0.6771 0.6891 0.6497
H4_3 H 0.6452 0.6779 0.6646
O29_4 O 0.3280(2) 0.3818(4) 0.82534(15)
H87_4 H 0.3222 0.4241 0.8312
H88_4 H 0.3557 0.3677 0.8420
O30_4 O 0.17292(19) 0.1963(3) 0.66917(14)
H89_4 H 0.1771 0.1891 0.6497
H90_4 H 0.1452 0.1779 0.6646
O12_4 O 0.1720(2) 0.8818(4) 0.67466(15)
H1_4 H 0.1778 0.9241 0.6688
H2_4 H 0.1443 0.8677 0.6580
O14_4 O 0.32708(19) 0.6963(3) 0.83083(14)
H3_4 H 0.3229 0.6891 0.8503
H4_4 H 0.3548 0.6779 0.8354
O15_4 O 0.5111(3) 0.5381(4) 0.67111(17)
H5_4 H 0.5048 0.5005 0.6553
H6_4 H 0.5200 0.5767 0.6622
O28_4 O 0.4889(3) 0.5381(4) 0.82889(17)
H85_4 H 0.4952 0.5005 0.8447
H86_4 H 0.4800 0.5767 0.8378
loop_
_geom_bond_atom_site_label_1
_geom_bond_atom_site_label_2
_geom_bond_site_symmetry_1
_geom_bond_site_symmetry_2
Cu1 O6 1_555 1_555
Cu2 O3 1_555 1_555
O3 C18 1_555 1_555
O4 Cu2 1_555 1_555
O6 C18 1_555 1_555
O7 Cu1 1_555 1_555
O8 C1 1_555 1_555
O12 Cu1 1_555 1_555
H1 O12 1_555 1_555
H2 O12 1_555 1_555
O14 Cu2 1_555 1_555
H3 O14 1_555 1_555
H4 O14 1_555 1_555
C1 O9 1_555 1_555
C4 C10 1_555 1_555
C7 C11 1_555 1_555
C8 O4 1_555 1_555
C10 C32 1_555 1_555
C11 H7 1_555 1_555
C13 C1 1_555 1_555
C16 C4 1_555 1_555
C18 C7 1_555 1_555
C20 H11 1_555 1_555
C21 C13 1_555 1_555
H12 C21 1_555 1_555
C23 C38 1_555 1_555
C26 C7 1_555 1_555
H14 C26 1_555 1_555
C29 C8 1_555 1_555
C32 C45 1_555 1_555
C38 C58 1_555 1_555
C39 C10 1_555 1_555
C40 C47 1_555 1_555
C44 C16 1_555 1_555
C45 C23 1_555 1_555
H18 C45 1_555 1_555
C47 H19 1_555 1_555
C58 C40 1_555 1_555
H24 C58 1_555 1_555
C59 C38 1_555 1_555
H25 C59 1_555 1_555
C61 C23 1_555 1_555
H27 C61 1_555 1_555
C63 C40 1_555 1_555
C64 C63 1_555 1_555
H29 C64 1_555 1_555
C68 C59 1_555 1_555
H32 C68 1_555 1_555
C74 C64 1_555 1_555
H38 C74 1_555 1_555
C75 C47 1_555 1_555
H39 C75 1_555 1_555
C79 C61 1_555 1_555
H43 C79 1_555 1_555
O16 C82 1_555 1_555
O17 C82 1_555 1_555
C82 C83 1_555 1_555
C83 C86 1_555 1_555
C85 C87 1_555 1_555
C86 H46 1_555 1_555
C87 C41 1_555 1_555
C88 C83 1_555 1_555
H47 C88 1_555 1_555
C90 C85 1_555 1_555
C92 C88 1_555 1_555
C93 C95 1_555 1_555
C94 C90 1_555 1_555
C95 C96 1_555 1_555
C96 H49 1_555 1_555
C98 H50 1_555 1_555
C99 C100 1_555 1_555
C100 C87 1_555 1_555
H51 C100 1_555 1_555
C101 C93 1_555 1_555
H52 C101 1_555 1_555
C102 C99 1_555 1_555
H53 C102 1_555 1_555
C103 C41 1_555 1_555
H54 C103 1_555 1_555
C104 C98 1_555 1_555
C105 C96 1_555 1_555
H55 C105 1_555 1_555
C106 C101 1_555 1_555
H56 C106 1_555 1_555
C107 C102 1_555 1_555
H57 C107 1_555 1_555
C108 C98 1_555 1_555
H58 C108 1_555 1_555
O20 C116 1_555 1_555
O21 C116 1_555 1_555
O22 C109 1_555 1_555
O23 C109 1_555 1_555
C109 C114 1_555 1_555
C110 C112 1_555 1_555
C111 C113 1_555 1_555
C112 C120 1_555 1_555
C113 H59 1_555 1_555
C114 C113 1_555 1_555
C115 C110 1_555 1_555
C116 C111 1_555 1_555
C117 C114 1_555 1_555
H60 C117 1_555 1_555
C118 C121 1_555 1_555
C119 C111 1_555 1_555
H61 C119 1_555 1_555
C120 C39 1_555 1_555
C121 C127 1_555 1_555
C122 C32 1_555 1_555
C123 C126 1_555 1_555
C124 C115 1_555 1_555
C125 C118 1_555 1_555
H62 C125 1_555 1_555
C126 H63 1_555 1_555
C127 C39 1_555 1_555
H64 C127 1_555 1_555
C129 C118 1_555 1_555
H66 C129 1_555 1_555
C130 C123 1_555 1_555
C131 C130 1_555 1_555
H67 C131 1_555 1_555
C133 C131 1_555 1_555
H69 C133 1_555 1_555
C134 C126 1_555 1_555
H70 C134 1_555 1_555
Cu9 O21 1_555 1_555
Cu10 O17 1_555 1_555
Cu13 O20 1_555 1_555
Cu14 O16 1_555 1_555
Cu16 O23 1_555 1_555
Cu18 O22 1_555 1_555
O31 Cu2 1_555 1_555
O32 Cu1 1_555 1_555
O41 Cu1 1_555 1_555
O42 Cu2 1_555 1_555
O7 C8 1_555 1_555
C11 C13 1_555 1_555
C20 C29 1_555 1_555
C21 C44 1_555 1_555
C26 C44 1_555 1_555
C45 C63 1_555 1_555
C58 C122 1_555 1_555
C68 C79 1_555 1_555
C74 C75 1_555 1_555
C92 C94 1_555 1_555
C93 C100 1_555 1_555
C95 C103 1_555 1_555
C99 C104 1_555 1_555
C103 C104 1_555 1_555
C105 C106 1_555 1_555
C107 C108 1_555 1_555
C112 C122 1_555 1_555
C117 C124 1_555 1_555
C119 C124 1_555 1_555
C120 C125 1_555 1_555
C123 C127 1_555 1_555
C125 C130 1_555 1_555
C133 C134 1_555 1_555
O1 C5 1_555 1_555
O2 C5 1_555 1_555
O5 C15 1_555 1_555
O10 C15 1_555 1_555
O11 C2 1_555 1_555
O13 C2 1_555 1_555
C2 C27 1_555 1_555
C3 C28 1_555 1_555
C5 C6 1_555 1_555
C6 C12 1_555 1_555
C9 C17 1_555 1_555
C12 H8 1_555 1_555
C14 H9 1_555 1_555
C15 C22 1_555 1_555
C17 C56 1_555 1_555
C19 C6 1_555 1_555
H10 C19 1_555 1_555
C22 C14 1_555 1_555
C24 C22 1_555 1_555
H13 C24 1_555 1_555
C25 C9 1_555 1_555
C27 C24 1_555 1_555
C28 C55 1_555 1_555
C30 C19 1_555 1_555
C31 C3 1_555 1_555
C33 C36 1_555 1_555
C34 C27 1_555 1_555
H15 C34 1_555 1_555
C35 C25 1_555 1_555
C36 C37 1_555 1_555
C37 H16 1_555 1_555
C42 C3 1_555 1_555
C43 H17 1_555 1_555
C46 C48 1_555 1_555
C48 C67 1_555 1_555
C49 C46 1_555 1_555
H20 C49 1_555 1_555
C50 H21 1_555 1_555
C51 C14 1_555 1_555
C52 C31 1_555 1_555
C53 C50 1_555 1_555
C54 C56 1_555 1_555
C55 C46 1_555 1_555
H22 C55 1_555 1_555
C56 C33 1_555 1_555
H23 C56 1_555 1_555
C57 C53 1_555 1_555
C60 C33 1_555 1_555
H26 C60 1_555 1_555
C62 C54 1_555 1_555
H28 C62 1_555 1_555
C65 C36 1_555 1_555
H30 C65 1_555 1_555
C66 C43 1_555 1_555
C67 H31 1_555 1_555
C69 C48 1_555 1_555
H33 C69 1_555 1_555
C70 C37 1_555 1_555
H34 C70 1_555 1_555
C71 C60 1_555 1_555
H35 C71 1_555 1_555
C72 C49 1_555 1_555
H36 C72 1_555 1_555
C73 C62 1_555 1_555
H37 C73 1_555 1_555
C76 C57 1_555 1_555
H40 C76 1_555 1_555
C77 C76 1_555 1_555
H41 C77 1_555 1_555
C78 C50 1_555 1_555
H42 C78 1_555 1_555
C80 C43 1_555 1_555
H44 C80 1_555 1_555
C81 C67 1_555 1_555
H45 C81 1_555 1_555
O18 C84 1_555 1_555
O19 C84 1_555 1_555
C84 C91 1_555 1_555
C89 H48 1_555 1_555
C97 C17 1_555 1_555
H65 C128 1_555 1_555
C132 C128 1_555 1_555
H68 C132 1_555 1_555
H71 C135 1_555 1_555
O24 C139 1_555 1_555
O25 C139 1_555 1_555
O26 C136 1_555 1_555
O27 C136 1_555 1_555
C136 C142 1_555 1_555
C137 C143 1_555 1_555
C138 H72 1_555 1_555
C139 C140 1_555 1_555
C140 C138 1_555 1_555
C141 C140 1_555 1_555
H73 C141 1_555 1_555
C142 C141 1_555 1_555
C143 C42 1_555 1_555
C144 C137 1_555 1_555
C145 C142 1_555 1_555
H74 C145 1_555 1_555
C146 C28 1_555 1_555
C147 C148 1_555 1_555
C148 C156 1_555 1_555
C149 C147 1_555 1_555
H75 C149 1_555 1_555
C150 H76 1_555 1_555
C151 C138 1_555 1_555
C152 C144 1_555 1_555
C153 C150 1_555 1_555
C154 C143 1_555 1_555
H77 C154 1_555 1_555
C155 C153 1_555 1_555
C156 H78 1_555 1_555
C157 C42 1_555 1_555
H79 C157 1_555 1_555
C158 C149 1_555 1_555
H80 C158 1_555 1_555
C159 C155 1_555 1_555
H81 C159 1_555 1_555
C160 C159 1_555 1_555
H82 C160 1_555 1_555
C161 C150 1_555 1_555
H83 C161 1_555 1_555
C162 C156 1_555 1_555
H84 C162 1_555 1_555
O28 Cu4 1_555 1_555
H85 O28 1_555 1_555
H86 O28 1_555 1_555
Cu5 O2 1_555 1_555
O29 Cu5 1_555 1_555
H87 O29 1_555 1_555
H88 O29 1_555 1_555
Cu6 O1 1_555 1_555
O30 Cu6 1_555 1_555
H89 O30 1_555 1_555
H90 O30 1_555 1_555
Cu7 O19 1_555 1_555
Cu8 O26 1_555 1_555
Cu11 O18 1_555 1_555
Cu12 O27 1_555 1_555
Cu16 O24 1_555 1_555
Cu18 O25 1_555 1_555
O33 Cu6 1_555 1_555
O34 Cu6 1_555 1_555
O36 Cu5 1_555 1_555
O37 Cu5 1_555 1_555
O10 Cu4 1_555 1_555
O11 Cu5 1_555 1_555
O13 Cu6 1_555 1_555
C30 C35 1_555 1_555
C34 C51 1_555 1_555
C51 C52 1_555 1_555
C53 C69 1_555 1_555
C54 C66 1_555 1_555
C55 C57 1_555 1_555
C65 C66 1_555 1_555
C65 C97 1_555 1_555
C69 C146 1_555 1_555
C70 C71 1_555 1_555
C72 C81 1_555 1_555
C73 C80 1_555 1_555
C77 C78 1_555 1_555
C89 C91 1_555 1_555
C132 C135 1_555 1_555
C137 C146 1_555 1_555
C145 C151 1_555 1_555
C147 C154 1_555 1_555
C148 C157 1_555 1_555
C151 C152 1_555 1_555
C153 C157 1_555 1_555
C154 C155 1_555 1_555
C158 C162 1_555 1_555
C160 C161 1_555 1_555
O15 Cu3 1_555 1_555
H5 O15 1_555 1_555
H6 O15 1_555 1_555
O40 Cu3 1_555 1_555
Cu1_2 O6_2 1_555 1_555
Cu2_2 O3_2 1_555 1_555
O3_2 C18_2 1_555 1_555
O4_2 Cu2_2 1_555 1_555
O6_2 C18_2 1_555 1_555
O7_2 Cu1_2 1_555 1_555
O38 C1_2 1_555 1_555
O12_2 Cu1_2 1_555 1_555
H1_2 O12_2 1_555 1_555
H2_2 O12_2 1_555 1_555
O14_2 Cu2_2 1_555 1_555
H3_2 O14_2 1_555 1_555
H4_2 O14_2 1_555 1_555
C1_2 O39 1_555 1_555
C4_2 C10_2 1_555 1_555
C7_2 C11_2 1_555 1_555
C8_2 O4_2 1_555 1_555
C10_2 C32_2 1_555 1_555
C11_2 H7_2 1_555 1_555
C13_2 C1_2 1_555 1_555
C16_2 C4_2 1_555 1_555
C18_2 C7_2 1_555 1_555
C20_2 H11_2 1_555 1_555
C21_2 C13_2 1_555 1_555
H12_2 C21_2 1_555 1_555
C23_2 C38_2 1_555 1_555
C26_2 C7_2 1_555 1_555
H14_2 C26_2 1_555 1_555
C29_2 C8_2 1_555 1_555
C32_2 C45_2 1_555 1_555
C39_2 C10_2 1_555 1_555
C44_2 C16_2 1_555 1_555
C45_2 C23_2 1_555 1_555
H18_2 C45_2 1_555 1_555
C61_2 C23_2 1_555 1_555
H27_2 C61_2 1_555 1_555
C63_2 C40_2 1_555 1_555
C64_2 C63_2 1_555 1_555
H29_2 C64_2 1_555 1_555
C74_2 C64_2 1_555 1_555
H38_2 C74_2 1_555 1_555
H39_2 C75_2 1_555 1_555
C79_2 C61_2 1_555 1_555
H43_2 C79_2 1_555 1_555
C95_2 C96_2 1_555 1_555
C96_2 H49_2 1_555 1_555
C98_2 H50_2 1_555 1_555
C103_2 C41_2 1_555 1_555
H54_2 C103_2 1_555 1_555
C104_2 C98_2 1_555 1_555
C105_2 C96_2 1_555 1_555
H55_2 C105_2 1_555 1_555
H56_2 C106_2 1_555 1_555
C108_2 C98_2 1_555 1_555
H58_2 C108_2 1_555 1_555
C126_2 H63_2 1_555 1_555
C127_2 C39_2 1_555 1_555
H64_2 C127_2 1_555 1_555
O31_2 Cu2_2 1_555 1_555
O32_2 Cu1_2 1_555 1_555
O41_2 Cu1_2 1_555 1_555
O42_2 Cu2_2 1_555 1_555
O7_2 C8_2 1_555 1_555
C11_2 C13_2 1_555 1_555
C20_2 C29_2 1_555 1_555
C21_2 C44_2 1_555 1_555
C26_2 C44_2 1_555 1_555
C45_2 C63_2 1_555 1_555
C68_2 C79_2 1_555 1_555
C74_2 C75_2 1_555 1_555
C95_2 C103_2 1_555 1_555
C103_2 C104_2 1_555 1_555
C105_2 C106_2 1_555 1_555
C47_2 H19_2 1_555 1_555
H24_2 C58_2 1_555 1_555
H25_2 C59_2 1_555 1_555
O16_2 C82_2 1_555 1_555
O17_2 C82_2 1_555 1_555
C82_2 C83_2 1_555 1_555
C83_2 C86_2 1_555 1_555
C85_2 C87_2 1_555 1_555
C86_2 H46_2 1_555 1_555
C88_2 C83_2 1_555 1_555
H47_2 C88_2 1_555 1_555
C90_2 C85_2 1_555 1_555
C92_2 C88_2 1_555 1_555
C94_2 C90_2 1_555 1_555
C99_2 C100_2 1_555 1_555
C100_2 C87_2 1_555 1_555
H51_2 C100_2 1_555 1_555
C101_2 C93_2 1_555 1_555
H52_2 C101_2 1_555 1_555
C102_2 C99_2 1_555 1_555
H53_2 C102_2 1_555 1_555
C107_2 C102_2 1_555 1_555
H57_2 C107_2 1_555 1_555
O20_2 C116_2 1_555 1_555
O21_2 C116_2 1_555 1_555
O22_2 C109_2 1_555 1_555
O23_2 C109_2 1_555 1_555
C109_2 C114_2 1_555 1_555
C110_2 C112_2 1_555 1_555
C111_2 C113_2 1_555 1_555
C112_2 C120_2 1_555 1_555
C113_2 H59_2 1_555 1_555
C114_2 C113_2 1_555 1_555
C115_2 C110_2 1_555 1_555
C116_2 C111_2 1_555 1_555
C117_2 C114_2 1_555 1_555
H60_2 C117_2 1_555 1_555
C118_2 C121_2 1_555 1_555
C119_2 C111_2 1_555 1_555
H61_2 C119_2 1_555 1_555
C124_2 C115_2 1_555 1_555
C125_2 C118_2 1_555 1_555
H62_2 C125_2 1_555 1_555
C129_2 C118_2 1_555 1_555
H66_2 C129_2 1_555 1_555
C130_2 C123_2 1_555 1_555
C131_2 C130_2 1_555 1_555
H67_2 C131_2 1_555 1_555
C133_2 C131_2 1_555 1_555
H69_2 C133_2 1_555 1_555
H70_2 C134_2 1_555 1_555
Cu10 O21_2 1_555 1_555
Cu9 O17_2 1_555 1_555
Cu14 O20_2 1_555 1_555
Cu13 O16_2 1_555 1_555
Cu18 O23_2 1_555 1_555
Cu16 O22_2 1_555 1_555
C58_2 C122_2 1_555 1_555
C92_2 C94_2 1_555 1_555
C93_2 C100_2 1_555 1_555
C112_2 C122_2 1_555 1_555
C117_2 C124_2 1_555 1_555
C119_2 C124_2 1_555 1_555
C120_2 C125_2 1_555 1_555
C125_2 C130_2 1_555 1_555
C133_2 C134_2 1_555 1_555
O1_2 C5_2 1_555 1_555
O2_2 C5_2 1_555 1_555
O35 C15_2 1_555 1_555
O40 C15_2 1_555 1_555
O11_2 C2_2 1_555 1_555
O13_2 C2_2 1_555 1_555
C2_2 C27_2 1_555 1_555
C3_2 C28_2 1_555 1_555
C5_2 C6_2 1_555 1_555
C6_2 C12_2 1_555 1_555
C9_2 C17_2 1_555 1_555
C12_2 H8_2 1_555 1_555
C14_2 H9_2 1_555 1_555
C15_2 C22_2 1_555 1_555
C17_2 C56_2 1_555 1_555
C19_2 C6_2 1_555 1_555
H10_2 C19_2 1_555 1_555
C22_2 C14_2 1_555 1_555
C24_2 C22_2 1_555 1_555
H13_2 C24_2 1_555 1_555
C25_2 C9_2 1_555 1_555
C27_2 C24_2 1_555 1_555
C28_2 C55_2 1_555 1_555
C30_2 C19_2 1_555 1_555
C31_2 C3_2 1_555 1_555
C34_2 C27_2 1_555 1_555
H15_2 C34_2 1_555 1_555
C35_2 C25_2 1_555 1_555
C42_2 C3_2 1_555 1_555
C49_2 C46_2 1_555 1_555
H20_2 C49_2 1_555 1_555
C51_2 C14_2 1_555 1_555
C52_2 C31_2 1_555 1_555
C54_2 C56_2 1_555 1_555
C55_2 C46_2 1_555 1_555
H22_2 C55_2 1_555 1_555
C56_2 C33_2 1_555 1_555
H23_2 C56_2 1_555 1_555
C60_2 C33_2 1_555 1_555
H26_2 C60_2 1_555 1_555
C62_2 C54_2 1_555 1_555
H28_2 C62_2 1_555 1_555
C72_2 C49_2 1_555 1_555
H36_2 C72_2 1_555 1_555
C73_2 C62_2 1_555 1_555
H37_2 C73_2 1_555 1_555
C76_2 C57_2 1_555 1_555
H40_2 C76_2 1_555 1_555
C77_2 C76_2 1_555 1_555
H41_2 C77_2 1_555 1_555
H65_2 C128_2 1_555 1_555
C148_2 C156_2 1_555 1_555
C150_2 H76_2 1_555 1_555
C153_2 C150_2 1_555 1_555
C156_2 H78_2 1_555 1_555
C157_2 C42_2 1_555 1_555
H79_2 C157_2 1_555 1_555
C161_2 C150_2 1_555 1_555
H83_2 C161_2 1_555 1_555
C162_2 C156_2 1_555 1_555
H84_2 C162_2 1_555 1_555
Cu5_2 O2_2 1_555 1_555
O29_2 Cu5_2 1_555 1_555
H87_2 O29_2 1_555 1_555
H88_2 O29_2 1_555 1_555
Cu6_2 O1_2 1_555 1_555
O30_2 Cu6_2 1_555 1_555
H89_2 O30_2 1_555 1_555
H90_2 O30_2 1_555 1_555
O33_2 Cu6_2 1_555 1_555
O34_2 Cu6_2 1_555 1_555
O36_2 Cu5_2 1_555 1_555
O37_2 Cu5_2 1_555 1_555
O11_2 Cu5_2 1_555 1_555
O13_2 Cu6_2 1_555 1_555
C30_2 C35_2 1_555 1_555
C34_2 C51_2 1_555 1_555
C51_2 C52_2 1_555 1_555
C55_2 C57_2 1_555 1_555
C148_2 C157_2 1_555 1_555
C153_2 C157_2 1_555 1_555
C36_2 C37_2 1_555 1_555
C37_2 H16_2 1_555 1_555
C43_2 H17_2 1_555 1_555
C48_2 C67_2 1_555 1_555
C50_2 H21_2 1_555 1_555
C53_2 C50_2 1_555 1_555
C65_2 C36_2 1_555 1_555
H30_2 C65_2 1_555 1_555
C66_2 C43_2 1_555 1_555
C67_2 H31_2 1_555 1_555
C69_2 C48_2 1_555 1_555
H33_2 C69_2 1_555 1_555
C70_2 C37_2 1_555 1_555
H34_2 C70_2 1_555 1_555
H35_2 C71_2 1_555 1_555
C78_2 C50_2 1_555 1_555
H42_2 C78_2 1_555 1_555
C80_2 C43_2 1_555 1_555
H44_2 C80_2 1_555 1_555
C81_2 C67_2 1_555 1_555
H45_2 C81_2 1_555 1_555
O18_2 C84_2 1_555 1_555
O19_2 C84_2 1_555 1_555
C84_2 C91_2 1_555 1_555
C89_2 H48_2 1_555 1_555
H71_2 C135_2 1_555 1_555
O24_2 C139_2 1_555 1_555
O25_2 C139_2 1_555 1_555
O26_2 C136_2 1_555 1_555
O27_2 C136_2 1_555 1_555
C136_2 C142_2 1_555 1_555
C137_2 C143_2 1_555 1_555
C138_2 H72_2 1_555 1_555
C139_2 C140_2 1_555 1_555
C140_2 C138_2 1_555 1_555
C141_2 C140_2 1_555 1_555
H73_2 C141_2 1_555 1_555
C142_2 C141_2 1_555 1_555
C144_2 C137_2 1_555 1_555
C145_2 C142_2 1_555 1_555
H74_2 C145_2 1_555 1_555
C149_2 C147_2 1_555 1_555
H75_2 C149_2 1_555 1_555
C151_2 C138_2 1_555 1_555
C152_2 C144_2 1_555 1_555
C154_2 C143_2 1_555 1_555
H77_2 C154_2 1_555 1_555
C158_2 C149_2 1_555 1_555
H80_2 C158_2 1_555 1_555
C159_2 C155_2 1_555 1_555
H81_2 C159_2 1_555 1_555
C160_2 C159_2 1_555 1_555
H82_2 C160_2 1_555 1_555
Cu8 O19_2 1_555 1_555
Cu7 O26_2 1_555 1_555
Cu12 O18_2 1_555 1_555
Cu11 O27_2 1_555 1_555
Cu18 O24_2 1_555 1_555
Cu16 O25_2 1_555 1_555
C53_2 C69_2 1_555 1_555
C65_2 C66_2 1_555 1_555
C65_2 C97_2 1_555 1_555
C69_2 C146_2 1_555 1_555
C70_2 C71_2 1_555 1_555
C89_2 C91_2 1_555 1_555
C132_2 C135_2 1_555 1_555
C137_2 C146_2 1_555 1_555
C145_2 C151_2 1_555 1_555
C147_2 C154_2 1_555 1_555
C151_2 C152_2 1_555 1_555
C154_2 C155_2 1_555 1_555
C17_3 C56_3 1_555 1_555
C33_3 C36_3 1_555 1_555
C36_3 C37_3 1_555 1_555
C37_3 H16_3 1_555 1_555
C43_3 H17_3 1_555 1_555
C54_3 C56_3 1_555 1_555
C56_3 C33_3 1_555 1_555
C62_3 C54_3 1_555 1_555
H28_3 C62_3 1_555 1_555
C65_3 C36_3 1_555 1_555
H30_3 C65_3 1_555 1_555
C66_3 C43_3 1_555 1_555
C70_3 C37_3 1_555 1_555
H34_3 C70_3 1_555 1_555
C73_3 C62_3 1_555 1_555
H37_3 C73_3 1_555 1_555
C80_3 C43_3 1_555 1_555
H44_3 C80_3 1_555 1_555
O16_3 C82_3 1_555 1_555
O17_3 C82_3 1_555 1_555
O18_3 C84_3 1_555 1_555
O19_3 C84_3 1_555 1_555
C82_3 C83_3 1_555 1_555
C83_3 C86_3 1_555 1_555
C84_3 C91_3 1_555 1_555
C86_3 H46_3 1_555 1_555
C88_3 C83_3 1_555 1_555
H47_3 C88_3 1_555 1_555
C89_3 H48_3 1_555 1_555
C90_3 C85_3 1_555 1_555
C91_3 C86_3 1_555 1_555
C92_3 C88_3 1_555 1_555
C94_3 C90_3 1_555 1_555
C97_3 C17_3 1_555 1_555
H52_3 C101_3 1_555 1_555
C106_3 C101_3 1_555 1_555
H56_3 C106_3 1_555 1_555
Cu9 O19_3 1_555 1_555
Cu8 O17_3 1_555 1_555
Cu13 O18_3 1_555 1_555
Cu12 O16_3 1_555 1_555
C54_3 C66_3 1_555 1_555
C65_3 C66_3 1_555 1_555
C65_3 C97_3 1_555 1_555
C73_3 C80_3 1_555 1_555
C85_3 C97_3 1_555 1_555
C89_3 C91_3 1_555 1_555
C89_3 C92_3 1_555 1_555
C92_3 C94_3 1_555 1_555
H25_3 C59_3 1_555 1_555
C68_3 C59_3 1_555 1_555
H32_3 C68_3 1_555 1_555
H43_3 C79_3 1_555 1_555
C68_3 C79_3 1_555 1_555
Cu3_2 O5_2 1_555 1_555
O31_2 C5_3 1_555 1_555
O32_2 C5_3 1_555 1_555
O33_2 C18_3 1_555 1_555
O5_2 C15_3 1_555 1_555
O36_2 C18_3 1_555 1_555
O8_2 C1_3 1_555 1_555
O9_2 Cu3_2 1_555 1_555
O10_2 C15_3 1_555 1_555
O41_2 C2_3 1_555 1_555
O42_2 C2_3 1_555 1_555
O15_2 Cu3_2 1_555 1_555
H5_2 O15_2 1_555 1_555
H6_2 O15_2 1_555 1_555
C1_3 O9_2 1_555 1_555
C2_3 C27_3 1_555 1_555
C3_3 C28_3 1_555 1_555
C4_3 C10_3 1_555 1_555
C5_3 C6_3 1_555 1_555
C6_3 C12_3 1_555 1_555
C7_3 C11_3 1_555 1_555
C8_3 O34_2 1_555 1_555
C10_3 C32_3 1_555 1_555
C11_3 H7_3 1_555 1_555
C12_3 H8_3 1_555 1_555
C13_3 C1_3 1_555 1_555
C14_3 H9_3 1_555 1_555
C15_3 C22_3 1_555 1_555
C16_3 C4_3 1_555 1_555
C18_3 C7_3 1_555 1_555
C19_3 C6_3 1_555 1_555
H10_3 C19_3 1_555 1_555
C20_3 H11_3 1_555 1_555
C21_3 C13_3 1_555 1_555
H12_3 C21_3 1_555 1_555
C22_3 C14_3 1_555 1_555
C23_3 C38_3 1_555 1_555
C24_3 C22_3 1_555 1_555
H13_3 C24_3 1_555 1_555
C25_3 C9_3 1_555 1_555
C26_3 C7_3 1_555 1_555
H14_3 C26_3 1_555 1_555
C27_3 C24_3 1_555 1_555
C28_3 C55_3 1_555 1_555
C29_3 C8_3 1_555 1_555
C30_3 C19_3 1_555 1_555
C31_3 C3_3 1_555 1_555
C32_3 C45_3 1_555 1_555
C34_3 C27_3 1_555 1_555
H15_3 C34_3 1_555 1_555
C35_3 C25_3 1_555 1_555
C38_3 C58_3 1_555 1_555
C39_3 C10_3 1_555 1_555
C40_3 C47_3 1_555 1_555
C41_3 C9_3 1_555 1_555
C42_3 C3_3 1_555 1_555
C44_3 C16_3 1_555 1_555
C45_3 C23_3 1_555 1_555
H18_3 C45_3 1_555 1_555
C46_3 C48_3 1_555 1_555
C47_3 H19_3 1_555 1_555
C48_3 C67_3 1_555 1_555
C49_3 C46_3 1_555 1_555
H20_3 C49_3 1_555 1_555
C50_3 H21_3 1_555 1_555
C51_3 C14_3 1_555 1_555
C52_3 C31_3 1_555 1_555
C53_3 C50_3 1_555 1_555
C55_3 C46_3 1_555 1_555
H22_3 C55_3 1_555 1_555
C57_3 C53_3 1_555 1_555
C58_3 C40_3 1_555 1_555
H24_3 C58_3 1_555 1_555
H26_3 C60_3 1_555 1_555
C61_3 C23_3 1_555 1_555
H27_3 C61_3 1_555 1_555
C63_3 C40_3 1_555 1_555
C64_3 C63_3 1_555 1_555
H29_3 C64_3 1_555 1_555
C67_3 H31_3 1_555 1_555
C69_3 C48_3 1_555 1_555
H33_3 C69_3 1_555 1_555
C71_3 C60_3 1_555 1_555
H35_3 C71_3 1_555 1_555
C72_3 C49_3 1_555 1_555
H36_3 C72_3 1_555 1_555
C74_3 C64_3 1_555 1_555
H38_3 C74_3 1_555 1_555
C75_3 C47_3 1_555 1_555
H39_3 C75_3 1_555 1_555
C76_3 C57_3 1_555 1_555
H40_3 C76_3 1_555 1_555
C77_3 C76_3 1_555 1_555
H41_3 C77_3 1_555 1_555
C78_3 C50_3 1_555 1_555
H42_3 C78_3 1_555 1_555
C81_3 C67_3 1_555 1_555
H45_3 C81_3 1_555 1_555
C87_3 C41_3 1_555 1_555
C93_3 C95_3 1_555 1_555
C95_3 C96_3 1_555 1_555
C96_3 H49_3 1_555 1_555
C98_3 H50_3 1_555 1_555
C99_3 C100_3 1_555 1_555
C100_3 C87_3 1_555 1_555
C102_3 C99_3 1_555 1_555
H53_3 C102_3 1_555 1_555
C103_3 C41_3 1_555 1_555
H54_3 C103_3 1_555 1_555
C104_3 C98_3 1_555 1_555
C105_3 C96_3 1_555 1_555
H55_3 C105_3 1_555 1_555
C107_3 C102_3 1_555 1_555
H57_3 C107_3 1_555 1_555
C108_3 C98_3 1_555 1_555
H58_3 C108_3 1_555 1_555
O20_3 C116_3 1_555 1_555
O21_3 C116_3 1_555 1_555
O22_3 C109_3 1_555 1_555
O23_3 C109_3 1_555 1_555
C109_3 C114_3 1_555 1_555
C110_3 C112_3 1_555 1_555
C111_3 C113_3 1_555 1_555
C112_3 C120_3 1_555 1_555
C113_3 H59_3 1_555 1_555
C114_3 C113_3 1_555 1_555
C115_3 C110_3 1_555 1_555
C116_3 C111_3 1_555 1_555
C117_3 C114_3 1_555 1_555
H60_3 C117_3 1_555 1_555
C118_3 C121_3 1_555 1_555
C119_3 C111_3 1_555 1_555
H61_3 C119_3 1_555 1_555
C120_3 C39_3 1_555 1_555
C121_3 C127_3 1_555 1_555
C122_3 C32_3 1_555 1_555
C123_3 C126_3 1_555 1_555
C124_3 C115_3 1_555 1_555
C125_3 C118_3 1_555 1_555
H62_3 C125_3 1_555 1_555
C126_3 H63_3 1_555 1_555
C127_3 C39_3 1_555 1_555
H64_3 C127_3 1_555 1_555
C128_3 C121_3 1_555 1_555
H65_3 C128_3 1_555 1_555
C129_3 C118_3 1_555 1_555
H66_3 C129_3 1_555 1_555
C130_3 C123_3 1_555 1_555
C131_3 C130_3 1_555 1_555
H67_3 C131_3 1_555 1_555
C132_3 C128_3 1_555 1_555
H68_3 C132_3 1_555 1_555
C133_3 C131_3 1_555 1_555
H69_3 C133_3 1_555 1_555
C134_3 C126_3 1_555 1_555
H70_3 C134_3 1_555 1_555
C135_3 C129_3 1_555 1_555
H71_3 C135_3 1_555 1_555
O24_3 C139_3 1_555 1_555
O25_3 C139_3 1_555 1_555
O26_3 C136_3 1_555 1_555
O27_3 C136_3 1_555 1_555
C136_3 C142_3 1_555 1_555
C137_3 C143_3 1_555 1_555
C138_3 H72_3 1_555 1_555
C139_3 C140_3 1_555 1_555
C140_3 C138_3 1_555 1_555
C141_3 C140_3 1_555 1_555
H73_3 C141_3 1_555 1_555
C142_3 C141_3 1_555 1_555
C143_3 C42_3 1_555 1_555
C144_3 C137_3 1_555 1_555
C145_3 C142_3 1_555 1_555
H74_3 C145_3 1_555 1_555
C146_3 C28_3 1_555 1_555
C147_3 C148_3 1_555 1_555
C148_3 C156_3 1_555 1_555
C149_3 C147_3 1_555 1_555
H75_3 C149_3 1_555 1_555
C150_3 H76_3 1_555 1_555
C151_3 C138_3 1_555 1_555
C152_3 C144_3 1_555 1_555
C153_3 C150_3 1_555 1_555
C154_3 C143_3 1_555 1_555
H77_3 C154_3 1_555 1_555
C155_3 C153_3 1_555 1_555
C156_3 H78_3 1_555 1_555
C157_3 C42_3 1_555 1_555
H79_3 C157_3 1_555 1_555
C158_3 C149_3 1_555 1_555
H80_3 C158_3 1_555 1_555
C159_3 C155_3 1_555 1_555
H81_3 C159_3 1_555 1_555
C160_3 C159_3 1_555 1_555
H82_3 C160_3 1_555 1_555
C161_3 C150_3 1_555 1_555
H83_3 C161_3 1_555 1_555
C162_3 C156_3 1_555 1_555
H84_3 C162_3 1_555 1_555
Cu4_2 O8_2 1_555 1_555
O28_2 Cu4_2 1_555 1_555
H85_2 O28_2 1_555 1_555
H86_2 O28_2 1_555 1_555
Cu10 O26_3 1_555 1_555
Cu7 O21_3 1_555 1_555
Cu14 O27_3 1_555 1_555
Cu11 O20_3 1_555 1_555
Cu18_2 O25_3 1_555 1_555
O35_2 Cu4_2 1_555 1_555
O38_2 Cu3_2 1_555 1_555
O39_2 Cu4_2 1_555 1_555
O40_2 Cu3_2 1_555 1_555
O37_2 C8_3 1_555 1_555
O10_2 Cu4_2 1_555 1_555
C11_3 C13_3 1_555 1_555
C12_3 C29_3 1_555 1_555
C20_3 C29_3 1_555 1_555
C20_3 C30_3 1_555 1_555
C21_3 C44_3 1_555 1_555
C26_3 C44_3 1_555 1_555
C30_3 C35_3 1_555 1_555
C34_3 C51_3 1_555 1_555
C45_3 C63_3 1_555 1_555
C51_3 C52_3 1_555 1_555
C53_3 C69_3 1_555 1_555
C55_3 C57_3 1_555 1_555
C58_3 C122_3 1_555 1_555
C69_3 C146_3 1_555 1_555
C72_3 C81_3 1_555 1_555
C74_3 C75_3 1_555 1_555
C77_3 C78_3 1_555 1_555
C93_3 C100_3 1_555 1_555
C95_3 C103_3 1_555 1_555
C99_3 C104_3 1_555 1_555
C103_3 C104_3 1_555 1_555
C107_3 C108_3 1_555 1_555
C112_3 C122_3 1_555 1_555
C117_3 C124_3 1_555 1_555
C119_3 C124_3 1_555 1_555
C120_3 C125_3 1_555 1_555
C123_3 C127_3 1_555 1_555
C125_3 C130_3 1_555 1_555
C132_3 C135_3 1_555 1_555
C133_3 C134_3 1_555 1_555
C137_3 C146_3 1_555 1_555
C145_3 C151_3 1_555 1_555
C147_3 C154_3 1_555 1_555
C148_3 C157_3 1_555 1_555
C151_3 C152_3 1_555 1_555
C153_3 C157_3 1_555 1_555
C154_3 C155_3 1_555 1_555
C158_3 C162_3 1_555 1_555
C160_3 C161_3 1_555 1_555
H43_4 C79_4 1_555 1_555
C68_4 C79_4 1_555 1_555
H25_4 C59_4 1_555 1_555
O31 C5_4 1_555 1_555
O32 C5_4 1_555 1_555
O33 C18_4 1_555 1_555
O35_2 C15_4 1_555 1_555
O36 C18_4 1_555 1_555
O38_2 C1_4 1_555 1_555
O40_2 C15_4 1_555 1_555
O41 C2_4 1_555 1_555
O42 C2_4 1_555 1_555
C1_4 O39_2 1_555 1_555
C2_4 C27_4 1_555 1_555
C3_4 C28_4 1_555 1_555
C4_4 C10_4 1_555 1_555
C5_4 C6_4 1_555 1_555
C6_4 C12_4 1_555 1_555
C7_4 C11_4 1_555 1_555
C8_4 O34 1_555 1_555
C10_4 C32_4 1_555 1_555
C11_4 H7_4 1_555 1_555
C12_4 H8_4 1_555 1_555
C13_4 C1_4 1_555 1_555
C14_4 H9_4 1_555 1_555
C15_4 C22_4 1_555 1_555
C16_4 C4_4 1_555 1_555
C18_4 C7_4 1_555 1_555
C19_4 C6_4 1_555 1_555
H10_4 C19_4 1_555 1_555
C20_4 H11_4 1_555 1_555
C21_4 C13_4 1_555 1_555
H12_4 C21_4 1_555 1_555
C22_4 C14_4 1_555 1_555
C23_4 C38_4 1_555 1_555
C24_4 C22_4 1_555 1_555
H13_4 C24_4 1_555 1_555
C25_4 C9_4 1_555 1_555
C26_4 C7_4 1_555 1_555
H14_4 C26_4 1_555 1_555
C27_4 C24_4 1_555 1_555
C28_4 C55_4 1_555 1_555
C29_4 C8_4 1_555 1_555
C30_4 C19_4 1_555 1_555
C31_4 C3_4 1_555 1_555
C32_4 C45_4 1_555 1_555
C34_4 C27_4 1_555 1_555
H15_4 C34_4 1_555 1_555
C35_4 C25_4 1_555 1_555
C39_4 C10_4 1_555 1_555
C41_4 C9_4 1_555 1_555
C42_4 C3_4 1_555 1_555
C44_4 C16_4 1_555 1_555
C45_4 C23_4 1_555 1_555
H18_4 C45_4 1_555 1_555
C49_4 C46_4 1_555 1_555
H20_4 C49_4 1_555 1_555
C51_4 C14_4 1_555 1_555
C52_4 C31_4 1_555 1_555
C55_4 C46_4 1_555 1_555
H22_4 C55_4 1_555 1_555
H26_4 C60_4 1_555 1_555
C61_4 C23_4 1_555 1_555
H27_4 C61_4 1_555 1_555
C63_4 C40_4 1_555 1_555
C64_4 C63_4 1_555 1_555
H29_4 C64_4 1_555 1_555
C72_4 C49_4 1_555 1_555
H36_4 C72_4 1_555 1_555
C74_4 C64_4 1_555 1_555
H38_4 C74_4 1_555 1_555
H39_4 C75_4 1_555 1_555
C76_4 C57_4 1_555 1_555
H40_4 C76_4 1_555 1_555
C77_4 C76_4 1_555 1_555
H41_4 C77_4 1_555 1_555
C95_4 C96_4 1_555 1_555
C96_4 H49_4 1_555 1_555
C98_4 H50_4 1_555 1_555
C103_4 C41_4 1_555 1_555
H54_4 C103_4 1_555 1_555
C104_4 C98_4 1_555 1_555
C105_4 C96_4 1_555 1_555
H55_4 C105_4 1_555 1_555
C108_4 C98_4 1_555 1_555
H58_4 C108_4 1_555 1_555
C126_4 H63_4 1_555 1_555
C127_4 C39_4 1_555 1_555
H64_4 C127_4 1_555 1_555
H65_4 C128_4 1_555 1_555
C148_4 C156_4 1_555 1_555
C150_4 H76_4 1_555 1_555
C153_4 C150_4 1_555 1_555
C156_4 H78_4 1_555 1_555
C157_4 C42_4 1_555 1_555
H79_4 C157_4 1_555 1_555
C161_4 C150_4 1_555 1_555
H83_4 C161_4 1_555 1_555
C162_4 C156_4 1_555 1_555
H84_4 C162_4 1_555 1_555
O37 C8_4 1_555 1_555
C11_4 C13_4 1_555 1_555
C12_4 C29_4 1_555 1_555
C20_4 C29_4 1_555 1_555
C20_4 C30_4 1_555 1_555
C21_4 C44_4 1_555 1_555
C26_4 C44_4 1_555 1_555
C30_4 C35_4 1_555 1_555
C34_4 C51_4 1_555 1_555
C45_4 C63_4 1_555 1_555
C51_4 C52_4 1_555 1_555
C55_4 C57_4 1_555 1_555
C74_4 C75_4 1_555 1_555
C95_4 C103_4 1_555 1_555
C103_4 C104_4 1_555 1_555
C148_4 C157_4 1_555 1_555
C153_4 C157_4 1_555 1_555
C47_4 H19_4 1_555 1_555
C48_4 C67_4 1_555 1_555
C50_4 H21_4 1_555 1_555
C53_4 C50_4 1_555 1_555
H24_4 C58_4 1_555 1_555
C67_4 H31_4 1_555 1_555
C69_4 C48_4 1_555 1_555
H33_4 C69_4 1_555 1_555
H35_4 C71_4 1_555 1_555
C78_4 C50_4 1_555 1_555
H42_4 C78_4 1_555 1_555
C81_4 C67_4 1_555 1_555
H45_4 C81_4 1_555 1_555
C99_4 C100_4 1_555 1_555
C100_4 C87_4 1_555 1_555
C102_4 C99_4 1_555 1_555
H53_4 C102_4 1_555 1_555
C107_4 C102_4 1_555 1_555
H57_4 C107_4 1_555 1_555
O20_4 C116_4 1_555 1_555
O21_4 C116_4 1_555 1_555
O22_4 C109_4 1_555 1_555
O23_4 C109_4 1_555 1_555
C109_4 C114_4 1_555 1_555
C110_4 C112_4 1_555 1_555
C111_4 C113_4 1_555 1_555
C112_4 C120_4 1_555 1_555
C113_4 H59_4 1_555 1_555
C114_4 C113_4 1_555 1_555
C115_4 C110_4 1_555 1_555
C116_4 C111_4 1_555 1_555
C117_4 C114_4 1_555 1_555
H60_4 C117_4 1_555 1_555
C118_4 C121_4 1_555 1_555
C119_4 C111_4 1_555 1_555
H61_4 C119_4 1_555 1_555
C124_4 C115_4 1_555 1_555
C125_4 C118_4 1_555 1_555
H62_4 C125_4 1_555 1_555
C129_4 C118_4 1_555 1_555
H66_4 C129_4 1_555 1_555
C130_4 C123_4 1_555 1_555
C131_4 C130_4 1_555 1_555
H67_4 C131_4 1_555 1_555
C133_4 C131_4 1_555 1_555
H69_4 C133_4 1_555 1_555
H70_4 C134_4 1_555 1_555
C135_4 C129_4 1_555 1_555
H71_4 C135_4 1_555 1_555
O24_4 C139_4 1_555 1_555
O25_4 C139_4 1_555 1_555
O26_4 C136_4 1_555 1_555
O27_4 C136_4 1_555 1_555
C136_4 C142_4 1_555 1_555
C137_4 C143_4 1_555 1_555
C138_4 H72_4 1_555 1_555
C139_4 C140_4 1_555 1_555
C140_4 C138_4 1_555 1_555
C141_4 C140_4 1_555 1_555
H73_4 C141_4 1_555 1_555
C142_4 C141_4 1_555 1_555
C144_4 C137_4 1_555 1_555
C145_4 C142_4 1_555 1_555
H74_4 C145_4 1_555 1_555
C149_4 C147_4 1_555 1_555
H75_4 C149_4 1_555 1_555
C151_4 C138_4 1_555 1_555
C152_4 C144_4 1_555 1_555
C154_4 C143_4 1_555 1_555
H77_4 C154_4 1_555 1_555
C158_4 C149_4 1_555 1_555
H80_4 C158_4 1_555 1_555
C159_4 C155_4 1_555 1_555
H81_4 C159_4 1_555 1_555
C160_4 C159_4 1_555 1_555
H82_4 C160_4 1_555 1_555
Cu9 O26_4 1_555 1_555
Cu8 O21_4 1_555 1_555
Cu13 O27_4 1_555 1_555
Cu12 O20_4 1_555 1_555
Cu16_2 O25_4 1_555 1_555
C53_4 C69_4 1_555 1_555
C58_4 C122_4 1_555 1_555
C69_4 C146_4 1_555 1_555
C93_4 C100_4 1_555 1_555
C112_4 C122_4 1_555 1_555
C117_4 C124_4 1_555 1_555
C119_4 C124_4 1_555 1_555
C120_4 C125_4 1_555 1_555
C125_4 C130_4 1_555 1_555
C132_4 C135_4 1_555 1_555
C133_4 C134_4 1_555 1_555
C137_4 C146_4 1_555 1_555
C145_4 C151_4 1_555 1_555
C147_4 C154_4 1_555 1_555
C151_4 C152_4 1_555 1_555
C154_4 C155_4 1_555 1_555
C17_4 C56_4 1_555 1_555
C54_4 C56_4 1_555 1_555
C56_4 C33_4 1_555 1_555
C62_4 C54_4 1_555 1_555
H28_4 C62_4 1_555 1_555
C73_4 C62_4 1_555 1_555
H37_4 C73_4 1_555 1_555
H56_4 C106_4 1_555 1_555
C36_4 C37_4 1_555 1_555
C37_4 H16_4 1_555 1_555
C43_4 H17_4 1_555 1_555
C65_4 C36_4 1_555 1_555
H30_4 C65_4 1_555 1_555
C66_4 C43_4 1_555 1_555
C70_4 C37_4 1_555 1_555
H34_4 C70_4 1_555 1_555
C80_4 C43_4 1_555 1_555
H44_4 C80_4 1_555 1_555
O16_4 C82_4 1_555 1_555
O17_4 C82_4 1_555 1_555
O18_4 C84_4 1_555 1_555
O19_4 C84_4 1_555 1_555
C82_4 C83_4 1_555 1_555
C83_4 C86_4 1_555 1_555
C84_4 C91_4 1_555 1_555
C86_4 H46_4 1_555 1_555
C88_4 C83_4 1_555 1_555
H47_4 C88_4 1_555 1_555
C89_4 H48_4 1_555 1_555
C90_4 C85_4 1_555 1_555
C91_4 C86_4 1_555 1_555
C92_4 C88_4 1_555 1_555
C94_4 C90_4 1_555 1_555
H52_4 C101_4 1_555 1_555
Cu10 O19_4 1_555 1_555
Cu7 O17_4 1_555 1_555
Cu14 O18_4 1_555 1_555
Cu11 O16_4 1_555 1_555
C65_4 C66_4 1_555 1_555
C65_4 C97_4 1_555 1_555
C85_4 C97_4 1_555 1_555
C89_4 C91_4 1_555 1_555
C89_4 C92_4 1_555 1_555
C92_4 C94_4 1_555 1_555
O15_3 Cu16_2 1_555 1_555
H5_3 O15_3 1_555 1_555
H6_3 O15_3 1_555 1_555
O28_3 Cu18_2 1_555 1_555
H85_3 O28_3 1_555 1_555
H86_3 O28_3 1_555 1_555
O29_3 Cu10 1_555 1_555
H87_3 O29_3 1_555 1_555
H88_3 O29_3 1_555 1_555
O30_3 Cu14 1_555 1_555
H89_3 O30_3 1_555 1_555
H90_3 O30_3 1_555 1_555
O12_3 Cu7 1_555 1_555
H1_3 O12_3 1_555 1_555
H2_3 O12_3 1_555 1_555
O14_3 Cu11 1_555 1_555
H3_3 O14_3 1_555 1_555
H4_3 O14_3 1_555 1_555
O29_4 Cu9 1_555 1_555
H87_4 O29_4 1_555 1_555
H88_4 O29_4 1_555 1_555
O30_4 Cu13 1_555 1_555
H89_4 O30_4 1_555 1_555
H90_4 O30_4 1_555 1_555
O12_4 Cu8 1_555 1_555
H1_4 O12_4 1_555 1_555
H2_4 O12_4 1_555 1_555
O14_4 Cu12 1_555 1_555
H3_4 O14_4 1_555 1_555
H4_4 O14_4 1_555 1_555
O15_4 Cu16 1_555 1_555
H5_4 O15_4 1_555 1_555
H6_4 O15_4 1_555 1_555
O28_4 Cu18 1_555 1_555
H85_4 O28_4 1_555 1_555
H86_4 O28_4 1_555 1_555

#END
