
###############################################################################
#
# This file contains modified crystal structure data generated from the
# MOF subset of the Cambridge Structural Database (CSD) v543 
# hosted by the Cambridge Crystallographic Data Centre (CCDC).
#
# This work is licensed under the Creative Commons
# Attribution-NonCommercial-ShareAlike 4.0 International License.
# To view a copy of this license, visit
# http://creativecommons.org/licenses/by-nc-sa/4.0/
# or send a letter to
# Creative Commons, PO Box 1866, Mountain View, CA 94042, USA.
#
# CIF created using the CSD Python API on 29 September 2022
# The structure has been converted into the P1 space group
# The structure has a 3D framework
# The original CSD entry LACYIA is in the trigonal crystal system
# The original CSD entry LACYIA is in a Sohncke space group
# The framework has been calculated to contain at least 10.0% void space
# The void calculation uses a probe of radius 1.32A, grid spacing 0.4
# The framework is charged, counterions have been retained in the structure
# H atom positions have been added when not included in the experimental data
#
###############################################################################

data_LACYIA
_chemical_formula_moiety         '(C156 H96 N12 Na6 O65 Pr1 Zn5 6-)n'
_symmetry_cell_setting           triclinic
_symmetry_space_group_name_H-M   'P 1'
_symmetry_Int_Tables_number      1
_space_group_name_Hall           'P 1'
loop_
_symmetry_equiv_pos_site_id
_symmetry_equiv_pos_as_xyz
1 x,y,z
_cell_length_a                   23.4820(8)
_cell_length_b                   23.4820(8)
_cell_length_c                   16.3180(5)
_cell_angle_alpha                90
_cell_angle_beta                 90
_cell_angle_gamma                120
_cell_volume                     7792.34
loop_
_atom_site_label
_atom_site_type_symbol
_atom_site_fract_x
_atom_site_fract_y
_atom_site_fract_z
Zn3 Zn -0.00000(3) 0.36871(2) 0.5000
O43 O -0.00000(24) 0.45822(17) 0.5000
C122 C 0.01546(28) 0.35806(19) 0.2382(2)
H70 H 0.0399 0.3692 0.1886
C129 C 0.04140(24) 0.37711(17) 0.3190(2)
H76 H 0.0403 0.4986 0.4955
O54 O 0.30947(15) 0.54565(11) 0.92838(13)
O55 O 0.24605(16) 0.59970(12) 0.05571(15)
O56 O 0.25716(16) 0.58539(11) 0.85797(14)
O57 O 0.31832(18) 0.42988(13) 0.10113(17)
O58 O 0.14741(24) 0.57207(18) 0.10511(16)
O59 O 0.2758(4) 0.3136(3) 0.6894(3)
O60 O 0.33044(23) 0.36066(18) 0.8012(2)
O61 O 0.2973(4) 0.3881(3) 0.2322(4)
H77 H 0.3074 0.3382 0.2129
N11 N 0.09979(20) 0.40326(14) 0.48874(16)
N12 N 0.00932(18) 0.36060(13) 0.62488(15)
C131 C 0.25434(22) 0.48882(15) 0.80739(19)
C132 C 0.06603(23) 0.38263(16) 0.6690(2)
C133 C 0.27485(24) 0.54335(14) 0.86916(17)
C134 C 0.0513(3) 0.3720(2) 0.7541(2)
H78 H 0.0821 0.3832 0.7975
C135 C 0.20500(24) 0.47731(17) 0.7501(2)
H79 H 0.1854 0.5042 0.7500
C136 C 0.13570(24) 0.42334(17) 0.4168(2)
C137 C 0.19799(24) 0.51325(17) 0.1520(2)
C138 C 0.12939(23) 0.41058(16) 0.63404(19)
C139 C 0.24226(25) 0.49136(15) 0.13595(19)
H80 H 0.2727 0.5100 0.0920
C140 C 0.15530(23) 0.43929(17) 0.26765(19)
C141 C 0.15463(24) 0.48669(17) 0.21731(19)
H81 H 0.1240 0.5011 0.2278
C142 C 0.14456(23) 0.42136(17) 0.5510(2)
C143 C 0.18500(24) 0.42646(17) 0.6934(2)
C144 C 0.19886(25) 0.41689(18) 0.24971(19)
H82 H 0.1991 0.3837 0.2828
C145 C 0.20999(27) 0.45583(19) 0.5179(2)
H83 H 0.2499 0.4741 0.5482
C146 C 0.10825(25) 0.41263(18) 0.3383(2)
C147 C 0.28417(25) 0.45140(18) 0.8045(2)
H84 H 0.3176 0.4591 0.8430
C149 C 0.20436(27) 0.45752(19) 0.4356(2)
H86 H 0.2395 0.4777 0.3974
C150 C 0.21591(25) 0.39116(19) 0.6896(2)
H87 H 0.2037 0.3584 0.6485
C151 C 0.19733(25) 0.56544(18) 0.1000(2)
C152 C 0.2968(3) 0.3597(2) 0.7416(3)
C153 C 0.24187(25) 0.44270(19) 0.1838(2)
C154 C 0.26605(26) 0.40219(19) 0.7458(2)
C156 C 0.28629(28) 0.4162(2) 0.1627(3)
Pr9 Pr 0.3333 0.6667 0.96550(2)
Na10 Na 0.37255(6) 0.51045(7) 0.99699(8)
Na13 Na 0.13790(9) 0.62745(6) 0.99699(8)
Na5 Na 0.86210(9) 0.48955(7) 0.00301(8)
O52 O 0.8741(3) 0.4179(2) 0.0942(3)
H73 H 0.8352 0.3914 0.1078
H74 H 0.9059 0.4246 0.1239
O53 O 0.95940(21) 0.56617(15) 0.06586(17)
H75 H 0.9626 0.5889 0.1073
Pr4 Pr 0.6667 0.3333 0.03450(2)
Na8 Na 0.62745(6) 0.13790(9) 0.00301(8)
O65 O 0.76382(10) 0.45435(11) 0.07162(13)
H91 H 0.985061 0.598495 0.0223466
Na1 Na 0.51045(7) 0.37255(6) 0.00301(8)
O10 O 0.5821(2) 0.4562(2) 0.0942(3)
H13 H 0.6086 0.4438 0.1078
H14 H 0.5754 0.4813 0.1239
O11 O 0.43383(15) 0.39323(15) 0.06586(17)
H15 H 0.4111 0.3737 0.1073
O29 O 0.5438(2) 0.1259(3) 0.0942(3)
H40 H 0.5562 0.1648 0.1078
H41 H 0.5187 0.0941 0.1239
O30 O 0.60677(15) 0.04060(21) 0.06586(17)
H42 H 0.6263 0.0374 0.1073
Zn3_2 Zn 1.00000(3) 0.36871(2) 0.5000
O43_2 O 1.00000(24) 0.45822(17) 0.5000
H61 H 0.9597 0.4583 0.5045
O44 O 0.69053(15) 0.23618(10) 0.07162(13)
O45 O 0.75395(16) 0.35365(11) 0.94429(15)
O46 O 0.74284(16) 0.32823(11) 0.14203(14)
O47 O 0.68168(18) 0.11156(12) 0.89887(17)
O48 O 0.85259(24) 0.42466(16) 0.89489(16)
O49 O 0.7242(4) 0.0378(3) 0.3106(3)
O50 O 0.66956(23) 0.03022(14) 0.1988(2)
O51 O 0.7027(4) 0.0908(3) 0.7678(4)
H62 H 0.6926 0.0308 0.7871
N9 N 0.90021(20) 0.30347(14) 0.51126(16)
N10 N 0.99068(18) 0.35128(13) 0.37512(15)
C105 C 0.74566(22) 0.23448(16) 0.19261(19)
C106 C 0.93397(23) 0.31660(16) 0.3310(2)
C107 C 0.72515(24) 0.2685(2) 0.13084(17)
C108 C 0.9487(3) 0.3207(2) 0.2459(2)
H63 H 0.9179 0.3011 0.2025
C109 C 0.79500(24) 0.27231(17) 0.2499(2)
H64 H 0.8146 0.3188 0.2500
C110 C 0.86430(24) 0.28764(17) 0.5832(2)
C111 C 0.80201(24) 0.31526(17) 0.8480(2)
C112 C 0.87061(23) 0.28119(17) 0.36596(19)
C113 C 0.75774(25) 0.2491(2) 0.86405(19)
H65 H 0.7273 0.2373 0.9080
C114 C 0.84470(23) 0.28399(16) 0.73235(19)
C115 C 0.84537(24) 0.33206(17) 0.78269(19)
H66 H 0.8760 0.3771 0.7722
C116 C 0.85544(23) 0.27680(16) 0.4490(2)
C117 C 0.81500(24) 0.24146(17) 0.3066(2)
C118 C 0.80114(25) 0.21803(18) 0.75029(19)
H67 H 0.8009 0.1846 0.7172
C119 C 0.79001(27) 0.24584(19) 0.4821(2)
H68 H 0.7501 0.2242 0.4518
C120 C 0.89175(25) 0.30438(17) 0.6617(2)
C121 C 0.71583(25) 0.16723(17) 0.1955(2)
H69 H 0.6824 0.1415 0.1570
C123 C 0.79564(27) 0.25316(19) 0.5644(2)
H71 H 0.7605 0.2382 0.6026
C124 C 0.78409(25) 0.17525(17) 0.3104(2)
H72 H 0.7963 0.1547 0.3515
C125 C 0.80267(25) 0.36811(17) 0.9000(2)
C126 C 0.7032(3) 0.0629(2) 0.2584(3)
C127 C 0.75813(25) 0.20083(17) 0.8162(2)
C128 C 0.73395(26) 0.13614(18) 0.2542(2)
C130 C 0.71371(28) 0.12991(19) 0.8373(3)
C148 C 0.98454(28) 0.3426(2) 0.7618(2)
H85 H 0.9601 0.3293 0.8114
C155 C 0.95860(24) 0.33571(17) 0.6810(2)
O66 O 0.54565(11) 0.30947(15) 0.07162(13)
O73 O 0.67177(11) 0.41461(11) 0.14203(14)
O74 O 0.58539(11) 0.25716(16) 0.14203(14)
O79 O 0.88844(12) 0.57012(13) 0.89887(17)
H93 H 0.401505 0.386566 0.0223466
H94 H 0.613434 0.014939 0.0223466
Zn1 Zn 0.63129(2) 0.63129(2) 0.5000
O1 O 0.54178(17) 0.54178(17) 0.5000
H1 H 0.5417 0.5014 0.5045
O3 O 0.64635(11) 0.40030(12) 0.94429(15)
O6 O 0.57534(16) 0.42793(18) 0.89489(16)
O7 O 0.9622(3) 0.6864(3) 0.3106(3)
O8 O 0.96978(14) 0.63934(18) 0.1988(2)
O9 O 0.9092(3) 0.6119(3) 0.7678(4)
H2 H 0.9692 0.6618 0.7871
N1 N 0.69653(14) 0.59674(14) 0.51126(16)
N2 N 0.64872(13) 0.63940(13) 0.37512(15)
C1 C 0.76552(16) 0.51118(15) 0.19261(19)
C2 C 0.68340(16) 0.61737(16) 0.3310(2)
C3 C 0.7315(2) 0.45665(14) 0.13084(17)
C4 C 0.6793(2) 0.6280(2) 0.2459(2)
H3 H 0.6989 0.6168 0.2025
C5 C 0.72769(17) 0.52269(17) 0.2499(2)
H4 H 0.6812 0.4958 0.2500
C6 C 0.71236(17) 0.57666(17) 0.5832(2)
C7 C 0.68474(17) 0.48675(17) 0.8480(2)
C8 C 0.71881(17) 0.58942(16) 0.36596(19)
C9 C 0.7509(2) 0.50864(15) 0.86405(19)
H5 H 0.7627 0.4900 0.9080
C10 C 0.71601(16) 0.56071(17) 0.73235(19)
C11 C 0.66794(17) 0.51331(17) 0.78269(19)
H6 H 0.6229 0.4989 0.7722
C12 C 0.72320(16) 0.57864(17) 0.4490(2)
C13 C 0.75854(17) 0.57354(17) 0.3066(2)
C14 C 0.78197(18) 0.58311(18) 0.75029(19)
H7 H 0.8154 0.6163 0.7172
C15 C 0.75416(19) 0.54417(19) 0.4821(2)
H8 H 0.7758 0.5259 0.4518
C16 C 0.69562(17) 0.58737(18) 0.6617(2)
C17 C 0.83277(17) 0.54860(18) 0.1955(2)
H9 H 0.8585 0.5409 0.1570
C18 C 0.64194(19) 0.6574(2) 0.2382(2)
H10 H 0.6308 0.6707 0.1886
C19 C 0.74684(19) 0.54248(19) 0.5644(2)
H11 H 0.7618 0.5223 0.6026
C20 C 0.82475(17) 0.60884(19) 0.3104(2)
H12 H 0.8453 0.6416 0.3515
C21 C 0.63189(17) 0.43456(18) 0.9000(2)
C22 C 0.9371(2) 0.6403(2) 0.2584(3)
C23 C 0.79917(17) 0.55730(19) 0.8162(2)
C24 C 0.86386(18) 0.59781(19) 0.2542(2)
C25 C 0.62289(17) 0.66429(17) 0.3190(2)
C26 C 0.87009(19) 0.5838(2) 0.8373(3)
H16 H 0.5014 0.5417 0.4955
O12 O 0.45435(11) 0.76382(10) 0.92838(13)
O13 O 0.40030(12) 0.64635(11) 0.05571(15)
O14 O 0.41461(11) 0.67177(11) 0.85797(14)
O15 O 0.57012(13) 0.88844(12) 0.10113(17)
O16 O 0.42793(18) 0.57534(16) 0.10511(16)
O17 O 0.6864(3) 0.9622(3) 0.6894(3)
O18 O 0.63934(18) 0.96978(14) 0.8012(2)
O19 O 0.6119(3) 0.9092(3) 0.2322(4)
H17 H 0.6618 0.9692 0.2129
N3 N 0.59674(14) 0.69653(14) 0.48874(16)
N4 N 0.63940(13) 0.64872(13) 0.62488(15)
C27 C 0.51118(15) 0.76552(16) 0.80739(19)
C28 C 0.61737(16) 0.68340(16) 0.6690(2)
C29 C 0.45665(14) 0.7315(2) 0.86916(17)
C30 C 0.6280(2) 0.6793(2) 0.7541(2)
H18 H 0.6168 0.6989 0.7975
C31 C 0.52269(17) 0.72769(17) 0.7501(2)
H19 H 0.4958 0.6812 0.7500
C32 C 0.57666(17) 0.71236(17) 0.4168(2)
C33 C 0.48675(17) 0.68474(17) 0.1520(2)
C34 C 0.58942(16) 0.71881(17) 0.63404(19)
C35 C 0.50864(15) 0.7509(2) 0.13595(19)
H20 H 0.4900 0.7627 0.0920
C36 C 0.56071(17) 0.71601(16) 0.26765(19)
C37 C 0.51331(17) 0.66794(17) 0.21731(19)
H21 H 0.4989 0.6229 0.2278
C38 C 0.57864(17) 0.72320(16) 0.5510(2)
C39 C 0.57354(17) 0.75854(17) 0.6934(2)
C40 C 0.58311(18) 0.78197(18) 0.24971(19)
H22 H 0.6163 0.8154 0.2828
C41 C 0.54417(19) 0.75416(19) 0.5179(2)
H23 H 0.5259 0.7758 0.5482
C42 C 0.58737(18) 0.69562(17) 0.3383(2)
C43 C 0.54860(18) 0.83277(17) 0.8045(2)
H24 H 0.5409 0.8585 0.8430
C44 C 0.6574(2) 0.64194(19) 0.7618(2)
H25 H 0.6707 0.6308 0.8114
C45 C 0.54248(19) 0.74684(19) 0.4356(2)
H26 H 0.5223 0.7618 0.3974
C46 C 0.60884(19) 0.82475(17) 0.6896(2)
H27 H 0.6416 0.8453 0.6485
C47 C 0.43456(18) 0.63189(17) 0.1000(2)
C48 C 0.6403(2) 0.9371(2) 0.7416(3)
C49 C 0.55730(19) 0.79917(17) 0.1838(2)
C50 C 0.59781(19) 0.86386(18) 0.7458(2)
C51 C 0.66429(17) 0.62289(17) 0.6810(2)
C52 C 0.5838(2) 0.87009(19) 0.1627(3)
Zn2 Zn 0.36871(2) 0.00000(3) 0.5000
O20 O 0.45822(17) 0.00000(24) 0.5000
H28 H 0.4986 0.0403 0.5045
O22 O 0.59970(12) 0.24605(16) 0.94429(15)
O24 O 0.42988(13) 0.31832(18) 0.89887(17)
O25 O 0.57207(18) 0.14741(24) 0.89489(16)
O26 O 0.3136(3) 0.2758(4) 0.3106(3)
O27 O 0.36066(18) 0.33044(23) 0.1988(2)
O28 O 0.3881(3) 0.2973(4) 0.7678(4)
H29 H 0.3382 0.3074 0.7871
N5 N 0.40326(14) 0.09979(20) 0.51126(16)
N6 N 0.36060(13) 0.00932(18) 0.37512(15)
C53 C 0.48882(15) 0.25434(22) 0.19261(19)
C54 C 0.38263(16) 0.06603(23) 0.3310(2)
C55 C 0.54335(14) 0.27485(24) 0.13084(17)
C56 C 0.3720(2) 0.0513(3) 0.2459(2)
H30 H 0.3832 0.0821 0.2025
C57 C 0.47731(17) 0.20500(24) 0.2499(2)
H31 H 0.5042 0.1854 0.2500
C58 C 0.42334(17) 0.13570(24) 0.5832(2)
C59 C 0.51325(17) 0.19799(24) 0.8480(2)
C60 C 0.41058(16) 0.12939(23) 0.36596(19)
C61 C 0.49136(15) 0.24226(25) 0.86405(19)
H32 H 0.5100 0.2727 0.9080
C62 C 0.43929(17) 0.15530(23) 0.73235(19)
C63 C 0.48669(17) 0.15463(24) 0.78269(19)
H33 H 0.5011 0.1240 0.7722
C64 C 0.42136(17) 0.14456(23) 0.4490(2)
C65 C 0.42646(17) 0.18500(24) 0.3066(2)
C66 C 0.41689(18) 0.19886(25) 0.75029(19)
H34 H 0.3837 0.1991 0.7172
C67 C 0.45583(19) 0.20999(27) 0.4821(2)
H35 H 0.4741 0.2499 0.4518
C68 C 0.41263(18) 0.10825(25) 0.6617(2)
C69 C 0.45140(18) 0.28417(25) 0.1955(2)
H36 H 0.4591 0.3176 0.1570
C71 C 0.45752(19) 0.20436(27) 0.5644(2)
H38 H 0.4777 0.2395 0.6026
C72 C 0.39116(19) 0.21591(25) 0.3104(2)
H39 H 0.3584 0.2037 0.3515
C73 C 0.56544(18) 0.19733(25) 0.9000(2)
C74 C 0.3597(2) 0.2968(3) 0.2584(3)
C75 C 0.44270(19) 0.24187(25) 0.8162(2)
C76 C 0.40219(19) 0.26605(26) 0.2542(2)
C78 C 0.4162(2) 0.28629(28) 0.8373(3)
C96 C 0.35806(19) 0.01546(28) 0.7618(2)
H52 H 0.3692 0.0399 0.8114
C103 C 0.37711(17) 0.04140(24) 0.6810(2)
Na16 Na 0.48955(7) 0.86210(9) 0.99699(8)
O72 O 0.35365(11) 0.75395(16) 0.05571(15)
O41 O 0.4562(2) 0.5821(2) 0.9058(3)
H58 H 0.4438 0.6086 0.8922
H59 H 0.4813 0.5754 0.8761
O42 O 0.39323(15) 0.43383(15) 0.93414(17)
H60 H 0.3737 0.4111 0.8927
O69 O 0.23618(10) 0.69053(15) 0.92838(13)
O77 O 0.32823(11) 0.74284(16) 0.85797(14)
H95 H 0.386566 0.401505 0.977653
Zn2_2 Zn 0.36871(2) 1.00000(3) 0.5000
O20_2 O 0.45822(17) 1.00000(24) 0.5000
C70 C 0.3426(2) 0.98454(28) 0.2382(2)
H37 H 0.3293 0.9601 0.1886
C77 C 0.33571(17) 0.95860(24) 0.3190(2)
H43 H 0.4583 0.9597 0.4955
O34 O 0.11156(12) 0.68168(18) 0.10113(17)
O35 O 0.42466(16) 0.85259(24) 0.10511(16)
O36 O 0.0378(3) 0.7242(4) 0.6894(3)
O37 O 0.03022(14) 0.66956(23) 0.8012(2)
O38 O 0.0908(3) 0.7027(4) 0.2322(4)
H44 H 0.0308 0.6926 0.2129
N7 N 0.30347(14) 0.90021(20) 0.48874(16)
N8 N 0.35128(13) 0.99068(18) 0.62488(15)
C79 C 0.23448(16) 0.74566(22) 0.80739(19)
C80 C 0.31660(16) 0.93397(23) 0.6690(2)
C81 C 0.2685(2) 0.72515(24) 0.86916(17)
C82 C 0.3207(2) 0.9487(3) 0.7541(2)
H45 H 0.3011 0.9179 0.7975
C83 C 0.27231(17) 0.79500(24) 0.7501(2)
H46 H 0.3188 0.8146 0.7500
C84 C 0.28764(17) 0.86430(24) 0.4168(2)
C85 C 0.31526(17) 0.80201(24) 0.1520(2)
C86 C 0.28119(17) 0.87061(23) 0.63404(19)
C87 C 0.2491(2) 0.75774(25) 0.13595(19)
H47 H 0.2373 0.7273 0.0920
C88 C 0.28399(16) 0.84470(23) 0.26765(19)
C89 C 0.33206(17) 0.84537(24) 0.21731(19)
H48 H 0.3771 0.8760 0.2278
C90 C 0.27680(16) 0.85544(23) 0.5510(2)
C91 C 0.24146(17) 0.81500(24) 0.6934(2)
C92 C 0.21803(18) 0.80114(25) 0.24971(19)
H49 H 0.1846 0.8009 0.2828
C93 C 0.24584(19) 0.79001(27) 0.5179(2)
H50 H 0.2242 0.7501 0.5482
C94 C 0.30438(17) 0.89175(25) 0.3383(2)
C95 C 0.16723(17) 0.71583(25) 0.8045(2)
H51 H 0.1415 0.6824 0.8430
C97 C 0.25316(19) 0.79564(27) 0.4356(2)
H53 H 0.2382 0.7605 0.3974
C98 C 0.17525(17) 0.78409(25) 0.6896(2)
H54 H 0.1547 0.7963 0.6485
C99 C 0.36811(17) 0.80267(25) 0.1000(2)
C100 C 0.0629(2) 0.7032(3) 0.7416(3)
C101 C 0.20083(17) 0.75813(25) 0.1838(2)
C102 C 0.13614(18) 0.73395(26) 0.7458(2)
C104 C 0.12991(19) 0.71371(28) 0.1627(3)
O41_2 O 0.4179(2) 0.8741(3) 0.9058(3)
H58_2 H 0.3914 0.8352 0.8922
H59_2 H 0.4246 0.9059 0.8761
O42_2 O 0.56617(15) 0.95940(21) 0.93414(17)
H60_2 H 0.5889 0.9626 0.8927
H95_2 H 0.598495 0.985061 0.977653
O41_3 O 0.1259(3) 0.5438(2) 0.9058(3)
H58_3 H 0.1648 0.5562 0.8922
H59_3 H 0.0941 0.5187 0.8761
O42_3 O 0.04060(21) 0.60677(15) 0.93414(17)
H60_3 H 0.0374 0.6263 0.8927
H95_3 H 0.014939 0.613434 0.977653
loop_
_geom_bond_atom_site_label_1
_geom_bond_atom_site_label_2
_geom_bond_site_symmetry_1
_geom_bond_site_symmetry_2
Zn3 O43 1_555 1_555
H70 C122 1_555 1_555
H76 O43 1_555 1_555
O54 C133 1_555 1_555
O55 C151 1_555 1_555
O56 C133 1_555 1_555
O57 C156 1_555 1_555
O58 C151 1_555 1_555
O59 C152 1_555 1_555
O60 C152 1_555 1_555
O61 H77 1_555 1_555
N11 Zn3 1_555 1_555
N12 Zn3 1_555 1_555
C131 C133 1_555 1_555
C132 N12 1_555 1_555
C134 C132 1_555 1_555
H78 C134 1_555 1_555
C135 C131 1_555 1_555
H79 C135 1_555 1_555
C136 N11 1_555 1_555
C137 C139 1_555 1_555
C138 C132 1_555 1_555
C139 H80 1_555 1_555
C140 C141 1_555 1_555
C141 C137 1_555 1_555
H81 C141 1_555 1_555
C142 N11 1_555 1_555
C143 C135 1_555 1_555
C144 C140 1_555 1_555
H82 C144 1_555 1_555
C145 C142 1_555 1_555
H83 C145 1_555 1_555
C146 C129 1_555 1_555
C147 C131 1_555 1_555
H84 C147 1_555 1_555
C149 C136 1_555 1_555
H86 C149 1_555 1_555
C150 C143 1_555 1_555
H87 C150 1_555 1_555
C151 C137 1_555 1_555
C152 C154 1_555 1_555
C153 C139 1_555 1_555
C154 C147 1_555 1_555
C156 O61 1_555 1_555
Pr9 O54 1_555 1_555
Na10 O54 1_555 1_555
C122 C129 1_555 1_555
O56 Pr9 1_555 1_555
C136 C146 1_555 1_555
C138 C142 1_555 1_555
C138 C143 1_555 1_555
C140 C146 1_555 1_555
C144 C153 1_555 1_555
C145 C149 1_555 1_555
C150 C154 1_555 1_555
C153 C156 1_555 1_555
O52 Na5 1_555 1_555
H73 O52 1_555 1_555
H74 O52 1_555 1_555
O53 Na5 1_555 1_555
H75 O53 1_555 1_555
O65 Na5 1_555 1_555
Pr4 O65 1_555 1_555
O53 H91 1_555 1_555
O10 Na1 1_555 1_555
H13 O10 1_555 1_555
H14 O10 1_555 1_555
O11 Na1 1_555 1_555
H15 O11 1_555 1_555
O29 Na8 1_555 1_555
H40 O29 1_555 1_555
H41 O29 1_555 1_555
O30 Na8 1_555 1_555
H42 O30 1_555 1_555
Zn3_2 O43_2 1_555 1_555
O43_2 H61 1_555 1_555
O44 Pr4 1_555 1_555
O45 C125 1_555 1_555
O46 Pr4 1_555 1_555
O47 C130 1_555 1_555
O48 C125 1_555 1_555
O49 C126 1_555 1_555
O50 C126 1_555 1_555
O51 H62 1_555 1_555
N9 Zn3_2 1_555 1_555
N10 Zn3_2 1_555 1_555
C105 C107 1_555 1_555
C106 N10 1_555 1_555
C107 O44 1_555 1_555
C108 C106 1_555 1_555
H63 C108 1_555 1_555
C109 C105 1_555 1_555
H64 C109 1_555 1_555
C110 N9 1_555 1_555
C111 C113 1_555 1_555
C112 C106 1_555 1_555
C113 H65 1_555 1_555
C114 C115 1_555 1_555
C115 C111 1_555 1_555
H66 C115 1_555 1_555
C116 N9 1_555 1_555
C117 C109 1_555 1_555
C118 C114 1_555 1_555
H67 C118 1_555 1_555
C119 C116 1_555 1_555
H68 C119 1_555 1_555
C120 C110 1_555 1_555
C121 C105 1_555 1_555
H69 C121 1_555 1_555
C123 C110 1_555 1_555
H71 C123 1_555 1_555
C124 C117 1_555 1_555
H72 C124 1_555 1_555
C125 C111 1_555 1_555
C126 C128 1_555 1_555
C127 C113 1_555 1_555
C128 C121 1_555 1_555
C130 O51 1_555 1_555
H85 C148 1_555 1_555
C155 C120 1_555 1_555
O66 Pr4 1_555 1_555
O73 Pr4 1_555 1_555
O74 Pr4 1_555 1_555
Na1 O66 1_555 1_555
Na8 O44 1_555 1_555
O46 C107 1_555 1_555
C112 C116 1_555 1_555
C112 C117 1_555 1_555
C114 C120 1_555 1_555
C118 C127 1_555 1_555
C119 C123 1_555 1_555
C124 C128 1_555 1_555
C127 C130 1_555 1_555
C148 C155 1_555 1_555
O11 H93 1_555 1_555
O30 H94 1_555 1_555
Zn1 O1 1_555 1_555
O1 H1 1_555 1_555
O65 C3 1_555 1_555
O3 C21 1_555 1_555
O73 C3 1_555 1_555
O79 C26 1_555 1_555
O6 C21 1_555 1_555
O7 C22 1_555 1_555
O8 C22 1_555 1_555
O9 H2 1_555 1_555
N1 Zn1 1_555 1_555
N2 Zn1 1_555 1_555
C1 C3 1_555 1_555
C2 N2 1_555 1_555
C4 C2 1_555 1_555
H3 C4 1_555 1_555
C5 C1 1_555 1_555
H4 C5 1_555 1_555
C6 N1 1_555 1_555
C7 C9 1_555 1_555
C8 C2 1_555 1_555
C9 H5 1_555 1_555
C10 C11 1_555 1_555
C11 C7 1_555 1_555
H6 C11 1_555 1_555
C12 N1 1_555 1_555
C13 C5 1_555 1_555
C14 C10 1_555 1_555
H7 C14 1_555 1_555
C15 C12 1_555 1_555
H8 C15 1_555 1_555
C16 C6 1_555 1_555
C17 C1 1_555 1_555
H9 C17 1_555 1_555
C18 C4 1_555 1_555
H10 C18 1_555 1_555
C19 C6 1_555 1_555
H11 C19 1_555 1_555
C20 C13 1_555 1_555
H12 C20 1_555 1_555
C21 C7 1_555 1_555
C22 C24 1_555 1_555
C23 C9 1_555 1_555
C24 C17 1_555 1_555
C25 N2 1_555 1_555
C26 O9 1_555 1_555
H16 O1 1_555 1_555
O12 C29 1_555 1_555
O13 C47 1_555 1_555
O14 C29 1_555 1_555
O15 C52 1_555 1_555
O16 C47 1_555 1_555
O17 C48 1_555 1_555
O18 C48 1_555 1_555
O19 H17 1_555 1_555
N3 Zn1 1_555 1_555
N4 Zn1 1_555 1_555
C27 C29 1_555 1_555
C28 N4 1_555 1_555
C30 C28 1_555 1_555
H18 C30 1_555 1_555
C31 C27 1_555 1_555
H19 C31 1_555 1_555
C32 N3 1_555 1_555
C33 C35 1_555 1_555
C34 C28 1_555 1_555
C35 H20 1_555 1_555
C36 C37 1_555 1_555
C37 C33 1_555 1_555
H21 C37 1_555 1_555
C38 N3 1_555 1_555
C39 C31 1_555 1_555
C40 C36 1_555 1_555
H22 C40 1_555 1_555
C41 C38 1_555 1_555
H23 C41 1_555 1_555
C42 C25 1_555 1_555
C43 C27 1_555 1_555
H24 C43 1_555 1_555
C44 C30 1_555 1_555
H25 C44 1_555 1_555
C45 C32 1_555 1_555
H26 C45 1_555 1_555
C46 C39 1_555 1_555
H27 C46 1_555 1_555
C47 C33 1_555 1_555
C48 C50 1_555 1_555
C49 C35 1_555 1_555
C50 C43 1_555 1_555
C51 C16 1_555 1_555
C52 O19 1_555 1_555
Zn2 O20 1_555 1_555
O20 H28 1_555 1_555
O66 C55 1_555 1_555
O74 C55 1_555 1_555
O25 C73 1_555 1_555
O26 C74 1_555 1_555
O27 C74 1_555 1_555
O28 H29 1_555 1_555
N5 Zn2 1_555 1_555
N6 Zn2 1_555 1_555
C53 C55 1_555 1_555
C54 N6 1_555 1_555
C56 C54 1_555 1_555
H30 C56 1_555 1_555
C57 C53 1_555 1_555
H31 C57 1_555 1_555
C58 N5 1_555 1_555
C59 C61 1_555 1_555
C60 C54 1_555 1_555
C61 H32 1_555 1_555
C62 C63 1_555 1_555
C63 C59 1_555 1_555
H33 C63 1_555 1_555
C64 N5 1_555 1_555
C65 C57 1_555 1_555
C66 C62 1_555 1_555
H34 C66 1_555 1_555
C67 C64 1_555 1_555
H35 C67 1_555 1_555
C68 C58 1_555 1_555
C69 C53 1_555 1_555
H36 C69 1_555 1_555
C71 C58 1_555 1_555
H38 C71 1_555 1_555
C72 C65 1_555 1_555
H39 C72 1_555 1_555
C73 O22 1_555 1_555
C74 C76 1_555 1_555
C75 C61 1_555 1_555
C76 C69 1_555 1_555
C78 O24 1_555 1_555
H52 C96 1_555 1_555
C103 C68 1_555 1_555
Pr9 O12 1_555 1_555
Na16 O12 1_555 1_555
C8 C12 1_555 1_555
C8 C13 1_555 1_555
C10 C16 1_555 1_555
C14 C23 1_555 1_555
C15 C19 1_555 1_555
C18 C25 1_555 1_555
C20 C24 1_555 1_555
C23 C26 1_555 1_555
O14 Pr9 1_555 1_555
N4 C51 1_555 1_555
C32 C42 1_555 1_555
C34 C38 1_555 1_555
C34 C39 1_555 1_555
C36 C42 1_555 1_555
C40 C49 1_555 1_555
C41 C45 1_555 1_555
C44 C51 1_555 1_555
C46 C50 1_555 1_555
C49 C52 1_555 1_555
O28 C78 1_555 1_555
C59 C73 1_555 1_555
C60 C64 1_555 1_555
C60 C65 1_555 1_555
C62 C68 1_555 1_555
C66 C75 1_555 1_555
C67 C71 1_555 1_555
C72 C76 1_555 1_555
C75 C78 1_555 1_555
C96 C103 1_555 1_555
O41 Na10 1_555 1_555
H58 O41 1_555 1_555
H59 O41 1_555 1_555
O42 Na10 1_555 1_555
H60 O42 1_555 1_555
O69 Pr9 1_555 1_555
O77 Pr9 1_555 1_555
O42 H95 1_555 1_555
Zn2_2 O20_2 1_555 1_555
H37 C70 1_555 1_555
H43 O20_2 1_555 1_555
O69 C81 1_555 1_555
O72 C99 1_555 1_555
O77 C81 1_555 1_555
O34 C104 1_555 1_555
O35 C99 1_555 1_555
O36 C100 1_555 1_555
O37 C100 1_555 1_555
O38 H44 1_555 1_555
N7 Zn2_2 1_555 1_555
N8 Zn2_2 1_555 1_555
C79 C81 1_555 1_555
C80 N8 1_555 1_555
C82 C80 1_555 1_555
H45 C82 1_555 1_555
C83 C79 1_555 1_555
H46 C83 1_555 1_555
C84 N7 1_555 1_555
C85 C87 1_555 1_555
C86 C80 1_555 1_555
C87 H47 1_555 1_555
C88 C89 1_555 1_555
C89 C85 1_555 1_555
H48 C89 1_555 1_555
C90 N7 1_555 1_555
C91 C83 1_555 1_555
C92 C88 1_555 1_555
H49 C92 1_555 1_555
C93 C90 1_555 1_555
H50 C93 1_555 1_555
C94 C77 1_555 1_555
C95 C79 1_555 1_555
H51 C95 1_555 1_555
C97 C84 1_555 1_555
H53 C97 1_555 1_555
C98 C91 1_555 1_555
H54 C98 1_555 1_555
C99 C85 1_555 1_555
C100 C102 1_555 1_555
C101 C87 1_555 1_555
C102 C95 1_555 1_555
C104 O38 1_555 1_555
Na13 O69 1_555 1_555
C70 C77 1_555 1_555
C84 C94 1_555 1_555
C86 C90 1_555 1_555
C86 C91 1_555 1_555
C88 C94 1_555 1_555
C92 C101 1_555 1_555
C93 C97 1_555 1_555
C98 C102 1_555 1_555
C101 C104 1_555 1_555
O41_2 Na16 1_555 1_555
H58_2 O41_2 1_555 1_555
H59_2 O41_2 1_555 1_555
O42_2 Na16 1_555 1_555
H60_2 O42_2 1_555 1_555
O42_2 H95_2 1_555 1_555
O41_3 Na13 1_555 1_555
H58_3 O41_3 1_555 1_555
H59_3 O41_3 1_555 1_555
O42_3 Na13 1_555 1_555
H60_3 O42_3 1_555 1_555
O42_3 H95_3 1_555 1_555

#END
