
###############################################################################
#
# This file contains modified crystal structure data generated from the
# MOF subset of the Cambridge Structural Database (CSD) v543 
# hosted by the Cambridge Crystallographic Data Centre (CCDC).
#
# This work is licensed under the Creative Commons
# Attribution-NonCommercial-ShareAlike 4.0 International License.
# To view a copy of this license, visit
# http://creativecommons.org/licenses/by-nc-sa/4.0/
# or send a letter to
# Creative Commons, PO Box 1866, Mountain View, CA 94042, USA.
#
# CIF created using the CSD Python API on 29 September 2022
# The structure has been converted into the P1 space group
# The structure has a 3D framework
# The original CSD entry LACYUN is in the cubic crystal system
# The framework has been calculated to contain at least 10.0% void space
# The void calculation uses a probe of radius 1.32A, grid spacing 0.4
# The framework is charged, counterions have been retained in the structure
#
###############################################################################

data_LACYUN
_chemical_formula_moiety         '(C960 H672 Cu18 N216 O180 Pd48)n'
_symmetry_cell_setting           triclinic
_symmetry_space_group_name_H-M   'P 1'
_symmetry_Int_Tables_number      1
_space_group_name_Hall           'P 1'
loop_
_symmetry_equiv_pos_site_id
_symmetry_equiv_pos_as_xyz
1 x,y,z
_cell_length_a                   33.5608(19)
_cell_length_b                   33.5608(19)
_cell_length_c                   33.5608(19)
_cell_angle_alpha                90
_cell_angle_beta                 90
_cell_angle_gamma                90
_cell_volume                     37800.4
loop_
_atom_site_label
_atom_site_type_symbol
_atom_site_fract_x
_atom_site_fract_y
_atom_site_fract_z
C1 C 0.24242(17) 0.03448(19) 0.14167(14)
H1 H 0.256566 0.054781 0.155419
C2 C 0.22036(19) 0.04601(19) 0.10770(18)
H2 H 0.216803 0.073151 0.100487
C3 C 0.20416(19) 0.01487(18) 0.08551(16)
H3 H 0.190873 0.020306 0.061114
C11 C 0.32979(13) 0.04708(16) 0.18862(15)
H9 H 0.336542 0.040043 0.162049
C12 C 0.34686(15) 0.08002(13) 0.21118(18)
C13 C 0.33075(12) 0.07652(13) 0.24775(16)
H10 H 0.337811 0.093028 0.269634
C14 C 0.37964(19) 0.10550(15) 0.1935(2)
C15 C 0.39838(18) 0.13129(19) 0.2162(2)
H11 H 0.393938 0.130846 0.244131
C16 C 0.42640(18) 0.16115(19) 0.1992(2)
H12 H 0.436460 0.182813 0.214417
C17 C 0.43682(16) 0.15514(18) 0.1596(3)
C18 C 0.41890(18) 0.1261(2) 0.1370(2)
H13 H 0.425292 0.123135 0.109568
C19 C 0.39086(17) 0.1008(2) 0.1553(2)
H14 H 0.379516 0.079720 0.140180
C20 C 0.46698(17) 0.18331(18) 0.14238(18)
Cu1 Cu 0.500000 0.250000 0.125000
N3 N 0.30138(11) 0.02725(10) 0.21292(11)
N4 N 0.30246(11) 0.04593(11) 0.25004(12)
O1 O 0.47582(14) 0.17261(15) 0.11019(16)
O2 O 0.47652(12) 0.20846(12) 0.16323(13)
H15 H 0.695219 0.006566 0.094581
H22 H 0.860474 0.010276 0.015061
C31 C 0.70292(16) 0.07979(13) 0.06138(15)
H23 H 0.709957 0.086542 0.087951
C32 C 0.66998(13) 0.09686(15) 0.03882(18)
C33 C 0.67348(13) 0.08075(12) 0.00225(16)
C34 C 0.64450(15) 0.12964(19) 0.0565(2)
C35 C 0.61871(19) 0.14838(18) 0.0338(2)
H25 H 0.619154 0.143938 0.005869
C36 C 0.58885(19) 0.17640(18) 0.0508(2)
H26 H 0.567187 0.186460 0.035583
C37 C 0.59486(18) 0.18682(16) 0.0904(3)
C38 C 0.6239(2) 0.16890(18) 0.1130(2)
H27 H 0.626865 0.175292 0.140432
C39 C 0.6492(2) 0.14086(17) 0.0947(2)
H28 H 0.670280 0.129516 0.109820
C40 C 0.56669(18) 0.21698(17) 0.10762(18)
N7 N 0.72275(10) 0.05138(11) 0.03708(11)
O3 O 0.57739(15) 0.22582(14) 0.13981(16)
O4 O 0.54154(12) 0.22652(12) 0.08677(13)
Pd2 Pd 0.77344(2) 0.02464(2) 0.04660(2)
C41 C 0.75758(17) 0.46552(19) 0.14167(14)
H29 H 0.743434 0.445219 0.155419
C42 C 0.77964(19) 0.45399(19) 0.10770(18)
H30 H 0.783197 0.426849 0.100487
C43 C 0.79584(19) 0.48513(18) 0.08551(16)
H31 H 0.809127 0.479694 0.061114
C44 C 0.79250(18) 0.5248(2) 0.09926(17)
H32 H 0.805165 0.545549 0.084766
C45 C 0.77152(17) 0.53398(16) 0.13287(15)
C46 C 0.77240(17) 0.57309(16) 0.15224(15)
C47 C 0.78993(17) 0.60793(18) 0.13714(15)
H33 H 0.801887 0.607577 0.111489
C48 C 0.79001(16) 0.64068(19) 0.15781(15)
H34 H 0.802166 0.663749 0.146804
C49 C 0.77312(17) 0.64310(16) 0.19503(16)
H35 H 0.774900 0.666858 0.210313
C50 C 0.75296(14) 0.60914(14) 0.20996(14)
H36 H 0.739724 0.610474 0.234939
C51 C 0.67021(13) 0.45292(16) 0.18862(15)
H37 H 0.663458 0.459957 0.162049
C52 C 0.65314(15) 0.41998(13) 0.21118(18)
C53 C 0.66925(12) 0.42348(13) 0.24775(16)
H38 H 0.662189 0.406972 0.269634
C54 C 0.62036(19) 0.39450(15) 0.1935(2)
C55 C 0.60162(18) 0.36871(19) 0.2162(2)
H39 H 0.606062 0.369154 0.244131
C56 C 0.57360(18) 0.33885(19) 0.1992(2)
H40 H 0.563540 0.317187 0.214417
C57 C 0.56318(16) 0.34486(18) 0.1596(3)
C58 C 0.58110(18) 0.3739(2) 0.1370(2)
H41 H 0.574708 0.376865 0.109568
C59 C 0.60914(17) 0.3992(2) 0.1553(2)
H42 H 0.620484 0.420280 0.140180
C60 C 0.53302(17) 0.31669(18) 0.14238(18)
N9 N 0.75494(12) 0.50215(12) 0.15596(12)
N10 N 0.75247(12) 0.57388(12) 0.18823(11)
N11 N 0.69862(11) 0.47275(10) 0.21292(11)
N12 N 0.69754(11) 0.45407(11) 0.25004(12)
O5 O 0.52418(14) 0.32739(15) 0.11019(16)
O6 O 0.52348(12) 0.29154(12) 0.16323(13)
Pd3 Pd 0.72536(2) 0.52344(2) 0.20340(2)
C61 C 0.28448(19) 0.50758(17) 0.10833(14)
H43 H 0.304781 0.493434 0.094581
C62 C 0.29601(19) 0.52964(19) 0.14230(18)
H44 H 0.323151 0.533197 0.149513
C63 C 0.26487(18) 0.54584(19) 0.16449(16)
H45 H 0.270306 0.559127 0.188886
C64 C 0.2252(2) 0.54250(18) 0.15074(17)
H46 H 0.204451 0.555165 0.165234
C65 C 0.21602(16) 0.52152(17) 0.11713(15)
C66 C 0.17691(16) 0.52240(17) 0.09776(15)
C67 C 0.14207(18) 0.53993(17) 0.11286(15)
H47 H 0.142423 0.551887 0.138511
C68 C 0.10932(19) 0.54001(16) 0.09219(15)
H48 H 0.086251 0.552166 0.103196
C69 C 0.10690(16) 0.52312(17) 0.05497(16)
H49 H 0.083142 0.524900 0.039687
C70 C 0.14086(14) 0.50296(14) 0.04004(14)
H50 H 0.139526 0.489724 0.015061
C71 C 0.29708(16) 0.42021(13) 0.06138(15)
H51 H 0.290043 0.413458 0.087951
C72 C 0.33002(13) 0.40314(15) 0.03882(18)
C73 C 0.32652(13) 0.41925(12) 0.00225(16)
C74 C 0.35550(15) 0.37036(19) 0.0565(2)
C75 C 0.38129(19) 0.35162(18) 0.0338(2)
H53 H 0.380846 0.356062 0.005869
C76 C 0.41115(19) 0.32360(18) 0.0508(2)
H54 H 0.432813 0.313540 0.035583
C77 C 0.40514(18) 0.31318(16) 0.0904(3)
C78 C 0.3761(2) 0.33110(18) 0.1130(2)
H55 H 0.373135 0.324708 0.140432
C79 C 0.3508(2) 0.35914(17) 0.0947(2)
H56 H 0.329720 0.370484 0.109820
C80 C 0.43331(18) 0.28302(17) 0.10762(18)
N13 N 0.24785(12) 0.50494(12) 0.09404(12)
N14 N 0.17612(12) 0.50247(12) 0.06177(11)
N15 N 0.27725(10) 0.44862(11) 0.03708(11)
O7 O 0.42261(15) 0.27418(14) 0.13981(16)
O8 O 0.45846(12) 0.27348(12) 0.08677(13)
Pd4 Pd 0.22656(2) 0.47536(2) 0.04660(2)
N17 N 0.69754(11) 0.54593(11) 0.24996(12)
N18 N 0.20407(11) 0.44754(11) 0.00004(12)
N20 N 0.79593(11) 0.05246(11) 0.00004(12)
Pd5 Pd 0.72536(2) 0.47656(2) 0.29660(2)
Pd7 Pd 0.27464(2) 0.02344(2) 0.29660(2)
H24 H 0.656972 0.087811 0.980366
N8 N 0.70407(11) 0.05246(11) 0.99996(12)
H52 H 0.343028 0.412189 0.980366
N16 N 0.29593(11) 0.44754(11) 0.99996(12)
Pd6 Pd 0.27344(2) 0.47536(2) 0.95340(2)
Pd8 Pd 0.72656(2) 0.02464(2) 0.95340(2)
C4 C 0.20750(18) 0.9752(2) 0.09926(17)
H4 H 0.194835 0.954451 0.084766
C5 C 0.22848(17) 0.96602(16) 0.13287(15)
C6 C 0.22760(17) 0.92691(16) 0.15224(15)
C7 C 0.21007(17) 0.89207(18) 0.13714(15)
H5 H 0.198113 0.892423 0.111489
C8 C 0.20999(16) 0.85932(19) 0.15781(15)
H6 H 0.197834 0.836251 0.146804
C9 C 0.22688(17) 0.85690(16) 0.19503(16)
H7 H 0.225100 0.833142 0.210313
C10 C 0.24704(14) 0.89086(14) 0.20996(14)
H8 H 0.260276 0.889526 0.234939
N1 N 0.24506(12) 0.99785(12) 0.15596(12)
N2 N 0.24753(12) 0.92612(12) 0.18823(11)
Pd1 Pd 0.27464(2) 0.97656(2) 0.20340(2)
C21 C 0.71552(19) 0.99242(17) 0.10833(14)
C22 C 0.70399(19) 0.97036(19) 0.14230(18)
H16 H 0.676849 0.966803 0.149513
C23 C 0.73513(18) 0.95416(19) 0.16449(16)
H17 H 0.729694 0.940873 0.188886
C24 C 0.7748(2) 0.95750(18) 0.15074(17)
H18 H 0.795549 0.944835 0.165234
C25 C 0.78398(16) 0.97848(17) 0.11713(15)
C26 C 0.82309(16) 0.97760(17) 0.09776(15)
C27 C 0.85793(18) 0.96007(17) 0.11286(15)
H19 H 0.857577 0.948113 0.138511
C28 C 0.89068(19) 0.95999(16) 0.09219(15)
H20 H 0.913749 0.947834 0.103196
C29 C 0.89310(16) 0.97688(17) 0.05497(16)
H21 H 0.916858 0.975100 0.039687
C30 C 0.85914(14) 0.99704(14) 0.04004(14)
N5 N 0.75215(12) 0.99506(12) 0.09404(12)
N6 N 0.82388(12) 0.99753(12) 0.06177(11)
N19 N 0.30246(11) 0.95407(11) 0.24996(12)
C4_2 C 0.29250(18) 0.0248(2) 0.59926(17)
H4_2 H 0.305165 0.045549 0.584766
C5_2 C 0.27152(17) 0.03398(16) 0.63287(15)
C6_2 C 0.27240(17) 0.07309(16) 0.65224(15)
C7_2 C 0.28993(17) 0.10793(18) 0.63714(15)
H5_2 H 0.301887 0.107577 0.611489
C8_2 C 0.29001(16) 0.14068(19) 0.65781(15)
H6_2 H 0.302166 0.163749 0.646804
C9_2 C 0.27312(17) 0.14310(16) 0.69503(16)
H7_2 H 0.274900 0.166858 0.710313
C10_2 C 0.25296(14) 0.10914(14) 0.70996(14)
H8_2 H 0.239724 0.110474 0.734939
N1_2 N 0.25494(12) 0.00215(12) 0.65596(12)
N2_2 N 0.25247(12) 0.07388(12) 0.68823(11)
Pd1_2 Pd 0.22536(2) 0.02344(2) 0.70340(2)
N19_2 N 0.19754(11) 0.04593(11) 0.74996(12)
C1_2 C 0.25758(17) 0.96552(19) 0.64167(14)
H1_2 H 0.243434 0.945219 0.655419
C2_2 C 0.27964(19) 0.95399(19) 0.60770(18)
H2_2 H 0.283197 0.926849 0.600487
C3_2 C 0.29584(19) 0.98513(18) 0.58551(16)
H3_2 H 0.309127 0.979694 0.561114
C11_2 C 0.17021(13) 0.95292(16) 0.68862(15)
H9_2 H 0.163458 0.959957 0.662049
C12_2 C 0.15314(15) 0.91998(13) 0.71118(18)
C13_2 C 0.16925(12) 0.92348(13) 0.74775(16)
H10_2 H 0.162189 0.906972 0.769634
C14_2 C 0.12036(19) 0.89450(15) 0.6935(2)
C15_2 C 0.10162(18) 0.86871(19) 0.7162(2)
H11_2 H 0.106062 0.869154 0.744131
C16_2 C 0.07360(18) 0.83885(19) 0.6992(2)
H12_2 H 0.063540 0.817187 0.714417
C17_2 C 0.06318(16) 0.84486(18) 0.6596(3)
C18_2 C 0.08110(18) 0.8739(2) 0.6370(2)
H13_2 H 0.074708 0.876865 0.609568
C19_2 C 0.10914(17) 0.8992(2) 0.6553(2)
H14_2 H 0.120484 0.920280 0.640180
C20_2 C 0.03302(17) 0.81669(18) 0.64238(18)
Cu1_2 Cu -0.000000 0.750000 0.625000
N3_2 N 0.19862(11) 0.97275(10) 0.71292(11)
N4_2 N 0.19754(11) 0.95407(11) 0.75004(12)
O1_2 O 0.02418(14) 0.82739(15) 0.61019(16)
O2_2 O 0.02348(12) 0.79154(12) 0.66323(13)
C61_2 C 0.21552(19) 0.49242(17) 0.60833(14)
H43_2 H 0.195219 0.506566 0.594581
C62_2 C 0.20399(19) 0.47036(19) 0.64230(18)
H44_2 H 0.176849 0.466803 0.649513
C63_2 C 0.23513(18) 0.45416(19) 0.66449(16)
H45_2 H 0.229694 0.440873 0.688886
C64_2 C 0.2748(2) 0.45750(18) 0.65074(17)
H46_2 H 0.295549 0.444835 0.665234
C65_2 C 0.28398(16) 0.47848(17) 0.61713(15)
C66_2 C 0.32309(16) 0.47760(17) 0.59776(15)
C67_2 C 0.35793(18) 0.46007(17) 0.61286(15)
H47_2 H 0.357577 0.448113 0.638511
C68_2 C 0.39068(19) 0.45999(16) 0.59219(15)
H48_2 H 0.413749 0.447834 0.603196
C69_2 C 0.39310(16) 0.47688(17) 0.55497(16)
H49_2 H 0.416858 0.475100 0.539687
C70_2 C 0.35914(14) 0.49704(14) 0.54004(14)
H50_2 H 0.360474 0.510276 0.515061
C71_2 C 0.20292(16) 0.57979(13) 0.56138(15)
H51_2 H 0.209957 0.586542 0.587951
C72_2 C 0.16998(13) 0.59686(15) 0.53882(18)
C73_2 C 0.17348(13) 0.58075(12) 0.50225(16)
H52_2 H 0.156972 0.587811 0.480366
C74_2 C 0.14450(15) 0.62964(19) 0.5565(2)
C75_2 C 0.11871(19) 0.64838(18) 0.5338(2)
H53_2 H 0.119154 0.643938 0.505869
C76_2 C 0.08885(19) 0.67640(18) 0.5508(2)
H54_2 H 0.067187 0.686460 0.535583
C77_2 C 0.09486(18) 0.68682(16) 0.5904(3)
C78_2 C 0.1239(2) 0.66890(18) 0.6130(2)
H55_2 H 0.126865 0.675292 0.640432
C79_2 C 0.1492(2) 0.64086(17) 0.5947(2)
H56_2 H 0.170280 0.629516 0.609820
C80_2 C 0.06669(18) 0.71698(17) 0.60762(18)
N13_2 N 0.25215(12) 0.49506(12) 0.59404(12)
N14_2 N 0.32388(12) 0.49753(12) 0.56177(11)
N15_2 N 0.22275(10) 0.55138(11) 0.53708(11)
N16_2 N 0.20407(11) 0.55246(11) 0.49996(12)
O7_2 O 0.07739(15) 0.72582(14) 0.63981(16)
O8_2 O 0.04154(12) 0.72652(12) 0.58677(13)
Pd4_2 Pd 0.27344(2) 0.52464(2) 0.54660(2)
N18_2 N 0.29593(11) 0.55246(11) 0.50004(12)
Pd6_2 Pd 0.22656(2) 0.52464(2) 0.45340(2)
Pd7_2 Pd 0.22536(2) 0.97656(2) 0.79660(2)
Cu1_3 Cu 1.000000 0.750000 0.625000
H15_2 H 0.804781 0.993434 0.594581
H22_2 H 0.639526 0.989724 0.515061
C31_2 C 0.79708(16) 0.92021(13) 0.56138(15)
H23_2 H 0.790043 0.913458 0.587951
C32_2 C 0.83002(13) 0.90314(15) 0.53882(18)
C33_2 C 0.82652(13) 0.91925(12) 0.50225(16)
H24_2 H 0.843028 0.912189 0.480366
C34_2 C 0.85550(15) 0.87036(19) 0.5565(2)
C35_2 C 0.88129(19) 0.85162(18) 0.5338(2)
H25_2 H 0.880846 0.856062 0.505869
C36_2 C 0.91115(19) 0.82360(18) 0.5508(2)
H26_2 H 0.932813 0.813540 0.535583
C37_2 C 0.90514(18) 0.81318(16) 0.5904(3)
C38_2 C 0.8761(2) 0.83110(18) 0.6130(2)
H27_2 H 0.873135 0.824708 0.640432
C39_2 C 0.8508(2) 0.85914(17) 0.5947(2)
H28_2 H 0.829720 0.870484 0.609820
C40_2 C 0.93331(18) 0.78302(17) 0.60762(18)
N7_2 N 0.77725(10) 0.94862(11) 0.53708(11)
N8_2 N 0.79593(11) 0.94754(11) 0.49996(12)
O3_2 O 0.92261(15) 0.77418(14) 0.63981(16)
O4_2 O 0.95846(12) 0.77348(12) 0.58677(13)
Pd2_2 Pd 0.72656(2) 0.97536(2) 0.54660(2)
C41_2 C 0.74242(17) 0.53448(19) 0.64167(14)
H29_2 H 0.756566 0.554781 0.655419
C42_2 C 0.72036(19) 0.54601(19) 0.60770(18)
H30_2 H 0.716803 0.573151 0.600487
C43_2 C 0.70416(19) 0.51487(18) 0.58551(16)
H31_2 H 0.690873 0.520306 0.561114
C44_2 C 0.70750(18) 0.4752(2) 0.59926(17)
H32_2 H 0.694835 0.454451 0.584766
C45_2 C 0.72848(17) 0.46602(16) 0.63287(15)
C46_2 C 0.72760(17) 0.42691(16) 0.65224(15)
C47_2 C 0.71007(17) 0.39207(18) 0.63714(15)
H33_2 H 0.698113 0.392423 0.611489
C48_2 C 0.70999(16) 0.35932(19) 0.65781(15)
H34_2 H 0.697834 0.336251 0.646804
C49_2 C 0.72688(17) 0.35690(16) 0.69503(16)
H35_2 H 0.725100 0.333142 0.710313
C50_2 C 0.74704(14) 0.39086(14) 0.70996(14)
H36_2 H 0.760276 0.389526 0.734939
C51_2 C 0.82979(13) 0.54708(16) 0.68862(15)
H37_2 H 0.836542 0.540043 0.662049
C52_2 C 0.84686(15) 0.58002(13) 0.71118(18)
C53_2 C 0.83075(12) 0.57652(13) 0.74775(16)
H38_2 H 0.837811 0.593028 0.769634
C54_2 C 0.87964(19) 0.60550(15) 0.6935(2)
C55_2 C 0.89838(18) 0.63129(19) 0.7162(2)
H39_2 H 0.893938 0.630846 0.744131
C56_2 C 0.92640(18) 0.66115(19) 0.6992(2)
H40_2 H 0.936460 0.682813 0.714417
C57_2 C 0.93682(16) 0.65514(18) 0.6596(3)
C58_2 C 0.91890(18) 0.6261(2) 0.6370(2)
H41_2 H 0.925292 0.623135 0.609568
C59_2 C 0.89086(17) 0.6008(2) 0.6553(2)
H42_2 H 0.879516 0.579720 0.640180
C60_2 C 0.96698(17) 0.68331(18) 0.64238(18)
N9_2 N 0.74506(12) 0.49785(12) 0.65596(12)
N10_2 N 0.74753(12) 0.42612(12) 0.68823(11)
N11_2 N 0.80138(11) 0.52725(10) 0.71292(11)
N12_2 N 0.80246(11) 0.54593(11) 0.75004(12)
O5_2 O 0.97582(14) 0.67261(15) 0.61019(16)
O6_2 O 0.97652(12) 0.70846(12) 0.66323(13)
Pd3_2 Pd 0.77464(2) 0.47656(2) 0.70340(2)
N17_2 N 0.80246(11) 0.45407(11) 0.74996(12)
N20_2 N 0.70407(11) 0.94754(11) 0.50004(12)
Pd5_2 Pd 0.77464(2) 0.52344(2) 0.79660(2)
Pd8_2 Pd 0.77344(2) 0.97536(2) 0.45340(2)
C44_3 C 0.20750(18) 0.0248(2) 0.40074(17)
H32_3 H 0.194835 0.045549 0.415234
C45_3 C 0.22848(17) 0.03398(16) 0.36713(15)
C46_3 C 0.22760(17) 0.07309(16) 0.34776(15)
C47_3 C 0.21007(17) 0.10793(18) 0.36286(15)
H33_3 H 0.198113 0.107577 0.388511
C48_3 C 0.20999(16) 0.14068(19) 0.34219(15)
H34_3 H 0.197834 0.163749 0.353196
C49_3 C 0.22688(17) 0.14310(16) 0.30497(16)
H35_3 H 0.225100 0.166858 0.289687
C50_3 C 0.24704(14) 0.10914(14) 0.29004(14)
H36_3 H 0.260276 0.110474 0.265061
N9_3 N 0.24506(12) 0.00215(12) 0.34404(12)
N10_3 N 0.24753(12) 0.07388(12) 0.31177(11)
C61_3 C 0.71552(19) 0.00758(17) 0.39167(14)
C62_3 C 0.70399(19) 0.02964(19) 0.35770(18)
H44_3 H 0.676849 0.033197 0.350487
C63_3 C 0.73513(18) 0.04584(19) 0.33551(16)
H45_3 H 0.729694 0.059127 0.311114
C64_3 C 0.7748(2) 0.04250(18) 0.34926(17)
H46_3 H 0.795549 0.055165 0.334766
C65_3 C 0.78398(16) 0.02152(17) 0.38287(15)
C66_3 C 0.82309(16) 0.02240(17) 0.40224(15)
C67_3 C 0.85793(18) 0.03993(17) 0.38714(15)
H47_3 H 0.857577 0.051887 0.361489
C68_3 C 0.89068(19) 0.04001(16) 0.40781(15)
H48_3 H 0.913749 0.052166 0.396804
C69_3 C 0.89310(16) 0.02312(17) 0.44503(16)
H49_3 H 0.916858 0.024900 0.460313
C70_3 C 0.85914(14) 0.00296(14) 0.45996(14)
N13_3 N 0.75215(12) 0.00494(12) 0.40596(12)
N14_3 N 0.82388(12) 0.00247(12) 0.43823(11)
C1_3 C 0.75758(17) 0.53448(19) 0.35833(14)
H1_3 H 0.743434 0.554781 0.344581
C2_3 C 0.77964(19) 0.54601(19) 0.39230(18)
H2_3 H 0.783197 0.573151 0.399513
C3_3 C 0.79584(19) 0.51487(18) 0.41449(16)
H3_3 H 0.809127 0.520306 0.438886
C4_3 C 0.79250(18) 0.4752(2) 0.40074(17)
H4_3 H 0.805165 0.454451 0.415234
C5_3 C 0.77152(17) 0.46602(16) 0.36713(15)
C6_3 C 0.77240(17) 0.42691(16) 0.34776(15)
C7_3 C 0.78993(17) 0.39207(18) 0.36286(15)
H5_3 H 0.801887 0.392423 0.388511
C8_3 C 0.79001(16) 0.35932(19) 0.34219(15)
H6_3 H 0.802166 0.336251 0.353196
C9_3 C 0.77312(17) 0.35690(16) 0.30497(16)
H7_3 H 0.774900 0.333142 0.289687
C10_3 C 0.75296(14) 0.39086(14) 0.29004(14)
H8_3 H 0.739724 0.389526 0.265061
C11_3 C 0.67021(13) 0.54708(16) 0.31138(15)
H9_3 H 0.663458 0.540043 0.337951
C12_3 C 0.65314(15) 0.58002(13) 0.28882(18)
C13_3 C 0.66925(12) 0.57652(13) 0.25225(16)
H10_3 H 0.662189 0.593028 0.230366
C14_3 C 0.62036(19) 0.60550(15) 0.3065(2)
C15_3 C 0.60162(18) 0.63129(19) 0.2838(2)
H11_3 H 0.606062 0.630846 0.255869
C16_3 C 0.57360(18) 0.66115(19) 0.3008(2)
H12_3 H 0.563540 0.682813 0.285583
C17_3 C 0.56318(16) 0.65514(18) 0.3404(3)
C18_3 C 0.58110(18) 0.6261(2) 0.3630(2)
H13_3 H 0.574708 0.623135 0.390432
C19_3 C 0.60914(17) 0.6008(2) 0.3447(2)
H14_3 H 0.620484 0.579720 0.359820
C20_3 C 0.53302(17) 0.68331(18) 0.35762(18)
Cu1_4 Cu 0.500000 0.750000 0.375000
N1_3 N 0.75494(12) 0.49785(12) 0.34404(12)
N2_3 N 0.75247(12) 0.42612(12) 0.31177(11)
N3_3 N 0.69862(11) 0.52725(10) 0.28708(11)
O1_3 O 0.52418(14) 0.67261(15) 0.38981(16)
O2_3 O 0.52348(12) 0.70846(12) 0.33677(13)
C21_2 C 0.28448(19) 0.49242(17) 0.39167(14)
H15_3 H 0.304781 0.506566 0.405419
C22_2 C 0.29601(19) 0.47036(19) 0.35770(18)
H16_2 H 0.323151 0.466803 0.350487
C23_2 C 0.26487(18) 0.45416(19) 0.33551(16)
H17_2 H 0.270306 0.440873 0.311114
C24_2 C 0.2252(2) 0.45750(18) 0.34926(17)
H18_2 H 0.204451 0.444835 0.334766
C25_2 C 0.21602(16) 0.47848(17) 0.38287(15)
C26_2 C 0.17691(16) 0.47760(17) 0.40224(15)
C27_2 C 0.14207(18) 0.46007(17) 0.38714(15)
H19_2 H 0.142423 0.448113 0.361489
C28_2 C 0.10932(19) 0.45999(16) 0.40781(15)
H20_2 H 0.086251 0.447834 0.396804
C29_2 C 0.10690(16) 0.47688(17) 0.44503(16)
H21_2 H 0.083142 0.475100 0.460313
C30_2 C 0.14086(14) 0.49704(14) 0.45996(14)
H22_3 H 0.139526 0.510276 0.484939
C31_3 C 0.29708(16) 0.57979(13) 0.43862(15)
H23_3 H 0.290043 0.586542 0.412049
C32_3 C 0.33002(13) 0.59686(15) 0.46118(18)
C33_3 C 0.32652(13) 0.58075(12) 0.49775(16)
H24_3 H 0.343028 0.587811 0.519634
C34_3 C 0.35550(15) 0.62964(19) 0.4435(2)
C35_3 C 0.38129(19) 0.64838(18) 0.4662(2)
H25_3 H 0.380846 0.643938 0.494131
C36_3 C 0.41115(19) 0.67640(18) 0.4492(2)
H26_3 H 0.432813 0.686460 0.464417
C37_3 C 0.40514(18) 0.68682(16) 0.4096(3)
C38_3 C 0.3761(2) 0.66890(18) 0.3870(2)
H27_3 H 0.373135 0.675292 0.359568
C39_3 C 0.3508(2) 0.64086(17) 0.4053(2)
H28_3 H 0.329720 0.629516 0.390180
C40_3 C 0.43331(18) 0.71698(17) 0.39238(18)
N5_2 N 0.24785(12) 0.49506(12) 0.40596(12)
N6_2 N 0.17612(12) 0.49753(12) 0.43823(11)
N7_3 N 0.27725(10) 0.55138(11) 0.46292(11)
O3_3 O 0.42261(15) 0.72582(14) 0.36019(16)
O4_3 O 0.45846(12) 0.72652(12) 0.41323(13)
C41_3 C 0.24242(17) 0.96552(19) 0.35833(14)
H29_3 H 0.256566 0.945219 0.344581
C42_3 C 0.22036(19) 0.95399(19) 0.39230(18)
H30_3 H 0.216803 0.926849 0.399513
C43_3 C 0.20416(19) 0.98513(18) 0.41449(16)
H31_3 H 0.190873 0.979694 0.438886
C51_3 C 0.32979(13) 0.95292(16) 0.31138(15)
H37_3 H 0.336542 0.959957 0.337951
C52_3 C 0.34686(15) 0.91998(13) 0.28882(18)
C53_3 C 0.33075(12) 0.92348(13) 0.25225(16)
H38_3 H 0.337811 0.906972 0.230366
C54_3 C 0.37964(19) 0.89450(15) 0.3065(2)
C55_3 C 0.39838(18) 0.86871(19) 0.2838(2)
H39_3 H 0.393938 0.869154 0.255869
C56_3 C 0.42640(18) 0.83885(19) 0.3008(2)
H40_3 H 0.436460 0.817187 0.285583
C57_3 C 0.43682(16) 0.84486(18) 0.3404(3)
C58_3 C 0.41890(18) 0.8739(2) 0.3630(2)
H41_3 H 0.425292 0.876865 0.390432
C59_3 C 0.39086(17) 0.8992(2) 0.3447(2)
H42_3 H 0.379516 0.920280 0.359820
C60_3 C 0.46698(17) 0.81669(18) 0.35762(18)
N11_3 N 0.30138(11) 0.97275(10) 0.28708(11)
O5_3 O 0.47582(14) 0.82739(15) 0.38981(16)
O6_3 O 0.47652(12) 0.79154(12) 0.33677(13)
H43_3 H 0.695219 0.993434 0.405419
H50_3 H 0.860474 0.989724 0.484939
C71_3 C 0.70292(16) 0.92021(13) 0.43862(15)
H51_3 H 0.709957 0.913458 0.412049
C72_3 C 0.66998(13) 0.90314(15) 0.46118(18)
C73_3 C 0.67348(13) 0.91925(12) 0.49775(16)
H52_3 H 0.656972 0.912189 0.519634
C74_3 C 0.64450(15) 0.87036(19) 0.4435(2)
C75_3 C 0.61871(19) 0.85162(18) 0.4662(2)
H53_3 H 0.619154 0.856062 0.494131
C76_3 C 0.58885(19) 0.82360(18) 0.4492(2)
H54_3 H 0.567187 0.813540 0.464417
C77_3 C 0.59486(18) 0.81318(16) 0.4096(3)
C78_3 C 0.6239(2) 0.83110(18) 0.3870(2)
H55_3 H 0.626865 0.824708 0.359568
C79_3 C 0.6492(2) 0.85914(17) 0.4053(2)
H56_3 H 0.670280 0.870484 0.390180
C80_3 C 0.56669(18) 0.78302(17) 0.39238(18)
N15_3 N 0.72275(10) 0.94862(11) 0.46292(11)
O7_3 O 0.57739(15) 0.77418(14) 0.36019(16)
O8_3 O 0.54154(12) 0.77348(12) 0.41323(13)
H24_4 H 0.156972 0.412189 0.019634
Cu1_5 Cu -0.000000 0.250000 0.875000
C21_3 C 0.21552(19) 0.50758(17) 0.89167(14)
H15_4 H 0.195219 0.493434 0.905419
C22_3 C 0.20399(19) 0.52964(19) 0.85770(18)
H16_3 H 0.176849 0.533197 0.850487
C23_3 C 0.23513(18) 0.54584(19) 0.83551(16)
H17_3 H 0.229694 0.559127 0.811114
C24_3 C 0.2748(2) 0.54250(18) 0.84926(17)
H18_3 H 0.295549 0.555165 0.834766
C25_3 C 0.28398(16) 0.52152(17) 0.88287(15)
C26_3 C 0.32309(16) 0.52240(17) 0.90224(15)
C27_3 C 0.35793(18) 0.53993(17) 0.88714(15)
H19_3 H 0.357577 0.551887 0.861489
C28_3 C 0.39068(19) 0.54001(16) 0.90781(15)
H20_3 H 0.413749 0.552166 0.896804
C29_3 C 0.39310(16) 0.52312(17) 0.94503(16)
H21_3 H 0.416858 0.524900 0.960313
C30_3 C 0.35914(14) 0.50296(14) 0.95996(14)
H22_4 H 0.360474 0.489724 0.984939
C31_4 C 0.20292(16) 0.42021(13) 0.93862(15)
H23_4 H 0.209957 0.413458 0.912049
C32_4 C 0.16998(13) 0.40314(15) 0.96118(18)
C33_4 C 0.17348(13) 0.41925(12) 0.99775(16)
C34_4 C 0.14450(15) 0.37036(19) 0.9435(2)
C35_4 C 0.11871(19) 0.35162(18) 0.9662(2)
H25_4 H 0.119154 0.356062 0.994131
C36_4 C 0.08885(19) 0.32360(18) 0.9492(2)
H26_4 H 0.067187 0.313540 0.964417
C37_4 C 0.09486(18) 0.31318(16) 0.9096(3)
C38_4 C 0.1239(2) 0.33110(18) 0.8870(2)
H27_4 H 0.126865 0.324708 0.859568
C39_4 C 0.1492(2) 0.35914(17) 0.9053(2)
H28_4 H 0.170280 0.370484 0.890180
C40_4 C 0.06669(18) 0.28302(17) 0.89238(18)
N5_3 N 0.25215(12) 0.50494(12) 0.90596(12)
N6_3 N 0.32388(12) 0.50247(12) 0.93823(11)
N7_4 N 0.22275(10) 0.44862(11) 0.96292(11)
O3_4 O 0.07739(15) 0.27418(14) 0.86019(16)
O4_4 O 0.04154(12) 0.27348(12) 0.91323(13)
C41_4 C 0.25758(17) 0.03448(19) 0.85833(14)
H29_4 H 0.243434 0.054781 0.844581
C42_4 C 0.27964(19) 0.04601(19) 0.89230(18)
H30_4 H 0.283197 0.073151 0.899513
C43_4 C 0.29584(19) 0.01487(18) 0.91449(16)
H31_4 H 0.309127 0.020306 0.938886
C51_4 C 0.17021(13) 0.04708(16) 0.81138(15)
H37_4 H 0.163458 0.040043 0.837951
C52_4 C 0.15314(15) 0.08002(13) 0.78882(18)
C53_4 C 0.16925(12) 0.07652(13) 0.75225(16)
H38_4 H 0.162189 0.093028 0.730366
C54_4 C 0.12036(19) 0.10550(15) 0.8065(2)
C55_4 C 0.10162(18) 0.13129(19) 0.7838(2)
H39_4 H 0.106062 0.130846 0.755869
C56_4 C 0.07360(18) 0.16115(19) 0.8008(2)
H40_4 H 0.063540 0.182813 0.785583
C57_4 C 0.06318(16) 0.15514(18) 0.8404(3)
C58_4 C 0.08110(18) 0.1261(2) 0.8630(2)
H41_4 H 0.074708 0.123135 0.890432
C59_4 C 0.10914(17) 0.1008(2) 0.8447(2)
H42_4 H 0.120484 0.079720 0.859820
C60_4 C 0.03302(17) 0.18331(18) 0.85762(18)
N11_4 N 0.19862(11) 0.02725(10) 0.78708(11)
O5_4 O 0.02418(14) 0.17261(15) 0.88981(16)
O6_4 O 0.02348(12) 0.20846(12) 0.83677(13)
C44_4 C 0.29250(18) 0.9752(2) 0.90074(17)
H32_4 H 0.305165 0.954451 0.915234
C45_4 C 0.27152(17) 0.96602(16) 0.86713(15)
C46_4 C 0.27240(17) 0.92691(16) 0.84776(15)
C47_4 C 0.28993(17) 0.89207(18) 0.86286(15)
H33_4 H 0.301887 0.892423 0.888511
C48_4 C 0.29001(16) 0.85932(19) 0.84219(15)
H34_4 H 0.302166 0.836251 0.853196
C49_4 C 0.27312(17) 0.85690(16) 0.80497(16)
H35_4 H 0.274900 0.833142 0.789687
C50_4 C 0.25296(14) 0.89086(14) 0.79004(14)
H36_4 H 0.239724 0.889526 0.765061
N9_4 N 0.25494(12) 0.99785(12) 0.84404(12)
N10_4 N 0.25247(12) 0.92612(12) 0.81177(11)
H52_4 H 0.843028 0.087811 0.019634
C1_4 C 0.74242(17) 0.46552(19) 0.85833(14)
H1_4 H 0.756566 0.445219 0.844581
C2_4 C 0.72036(19) 0.45399(19) 0.89230(18)
H2_4 H 0.716803 0.426849 0.899513
C3_4 C 0.70416(19) 0.48513(18) 0.91449(16)
H3_4 H 0.690873 0.479694 0.938886
C4_4 C 0.70750(18) 0.5248(2) 0.90074(17)
H4_4 H 0.694835 0.545549 0.915234
C5_4 C 0.72848(17) 0.53398(16) 0.86713(15)
C6_4 C 0.72760(17) 0.57309(16) 0.84776(15)
C7_4 C 0.71007(17) 0.60793(18) 0.86286(15)
H5_4 H 0.698113 0.607577 0.888511
C8_4 C 0.70999(16) 0.64068(19) 0.84219(15)
H6_4 H 0.697834 0.663749 0.853196
C9_4 C 0.72688(17) 0.64310(16) 0.80497(16)
H7_4 H 0.725100 0.666858 0.789687
C10_4 C 0.74704(14) 0.60914(14) 0.79004(14)
H8_4 H 0.760276 0.610474 0.765061
C11_4 C 0.82979(13) 0.45292(16) 0.81138(15)
H9_4 H 0.836542 0.459957 0.837951
C12_4 C 0.84686(15) 0.41998(13) 0.78882(18)
C13_4 C 0.83075(12) 0.42348(13) 0.75225(16)
H10_4 H 0.837811 0.406972 0.730366
C14_4 C 0.87964(19) 0.39450(15) 0.8065(2)
C15_4 C 0.89838(18) 0.36871(19) 0.7838(2)
H11_4 H 0.893938 0.369154 0.755869
C16_4 C 0.92640(18) 0.33885(19) 0.8008(2)
H12_4 H 0.936460 0.317187 0.785583
C17_4 C 0.93682(16) 0.34486(18) 0.8404(3)
C18_4 C 0.91890(18) 0.3739(2) 0.8630(2)
H13_4 H 0.925292 0.376865 0.890432
C19_4 C 0.89086(17) 0.3992(2) 0.8447(2)
H14_4 H 0.879516 0.420280 0.859820
C20_4 C 0.96698(17) 0.31669(18) 0.85762(18)
Cu1_6 Cu 1.000000 0.250000 0.875000
N1_4 N 0.74506(12) 0.50215(12) 0.84404(12)
N2_4 N 0.74753(12) 0.57388(12) 0.81177(11)
N3_4 N 0.80138(11) 0.47275(10) 0.78708(11)
O1_4 O 0.97582(14) 0.32739(15) 0.88981(16)
O2_4 O 0.97652(12) 0.29154(12) 0.83677(13)
H43_4 H 0.804781 0.006566 0.905419
H50_4 H 0.639526 0.010276 0.984939
C71_4 C 0.79708(16) 0.07979(13) 0.93862(15)
H51_4 H 0.790043 0.086542 0.912049
C72_4 C 0.83002(13) 0.09686(15) 0.96118(18)
C73_4 C 0.82652(13) 0.08075(12) 0.99775(16)
C74_4 C 0.85550(15) 0.12964(19) 0.9435(2)
C75_4 C 0.88129(19) 0.14838(18) 0.9662(2)
H53_4 H 0.880846 0.143938 0.994131
C76_4 C 0.91115(19) 0.17640(18) 0.9492(2)
H54_4 H 0.932813 0.186460 0.964417
C77_4 C 0.90514(18) 0.18682(16) 0.9096(3)
C78_4 C 0.8761(2) 0.16890(18) 0.8870(2)
H55_4 H 0.873135 0.175292 0.859568
C79_4 C 0.8508(2) 0.14086(17) 0.9053(2)
H56_4 H 0.829720 0.129516 0.890180
C80_4 C 0.93331(18) 0.21698(17) 0.89238(18)
N15_4 N 0.77725(10) 0.05138(11) 0.96292(11)
O7_4 O 0.92261(15) 0.22582(14) 0.86019(16)
O8_4 O 0.95846(12) 0.22652(12) 0.91323(13)
C21_4 C 0.78448(19) 0.00758(17) 0.60833(14)
C22_4 C 0.79601(19) 0.02964(19) 0.64230(18)
H16_4 H 0.823151 0.033197 0.649513
C23_4 C 0.76487(18) 0.04584(19) 0.66449(16)
H17_4 H 0.770306 0.059127 0.688886
C24_4 C 0.7252(2) 0.04250(18) 0.65074(17)
H18_4 H 0.704451 0.055165 0.665234
C25_4 C 0.71602(16) 0.02152(17) 0.61713(15)
C26_4 C 0.67691(16) 0.02240(17) 0.59776(15)
C27_4 C 0.64207(18) 0.03993(17) 0.61286(15)
H19_4 H 0.642423 0.051887 0.638511
C28_4 C 0.60932(19) 0.04001(16) 0.59219(15)
H20_4 H 0.586251 0.052166 0.603196
C29_4 C 0.60690(16) 0.02312(17) 0.55497(16)
H21_4 H 0.583142 0.024900 0.539687
C30_4 C 0.64086(14) 0.00296(14) 0.54004(14)
N5_4 N 0.74785(12) 0.00494(12) 0.59404(12)
N6_4 N 0.67612(12) 0.00247(12) 0.56177(11)
C61_4 C 0.78448(19) 0.99242(17) 0.89167(14)
C62_4 C 0.79601(19) 0.97036(19) 0.85770(18)
H44_4 H 0.823151 0.966803 0.850487
C63_4 C 0.76487(18) 0.95416(19) 0.83551(16)
H45_4 H 0.770306 0.940873 0.811114
C64_4 C 0.7252(2) 0.95750(18) 0.84926(17)
H46_4 H 0.704451 0.944835 0.834766
C65_4 C 0.71602(16) 0.97848(17) 0.88287(15)
C66_4 C 0.67691(16) 0.97760(17) 0.90224(15)
C67_4 C 0.64207(18) 0.96007(17) 0.88714(15)
H47_4 H 0.642423 0.948113 0.861489
C68_4 C 0.60932(19) 0.95999(16) 0.90781(15)
H48_4 H 0.586251 0.947834 0.896804
C69_4 C 0.60690(16) 0.97688(17) 0.94503(16)
H49_4 H 0.583142 0.975100 0.960313
C70_4 C 0.64086(14) 0.99704(14) 0.95996(14)
N13_4 N 0.74785(12) 0.99506(12) 0.90596(12)
N14_4 N 0.67612(12) 0.99753(12) 0.93823(11)
C1_5 C 0.14167(14) 0.24242(17) 0.03448(19)
H1_5 H 0.155419 0.256566 0.054781
C2_5 C 0.10770(18) 0.22036(19) 0.04601(19)
H2_5 H 0.100487 0.216803 0.073151
C3_5 C 0.08551(16) 0.20416(19) 0.01487(18)
H3_5 H 0.061114 0.190873 0.020306
C11_5 C 0.18862(15) 0.32979(13) 0.04708(16)
H9_5 H 0.162049 0.336542 0.040043
C12_5 C 0.21118(18) 0.34686(15) 0.08002(13)
C13_5 C 0.24775(16) 0.33075(12) 0.07652(13)
H10_5 H 0.269634 0.337811 0.093028
C14_5 C 0.1935(2) 0.37964(19) 0.10550(15)
C15_5 C 0.2162(2) 0.39838(18) 0.13129(19)
H11_5 H 0.244131 0.393938 0.130846
C16_5 C 0.1992(2) 0.42640(18) 0.16115(19)
H12_5 H 0.214417 0.436460 0.182813
C17_5 C 0.1596(3) 0.43682(16) 0.15514(18)
C18_5 C 0.1370(2) 0.41890(18) 0.1261(2)
H13_5 H 0.109568 0.425292 0.123135
C19_5 C 0.1553(2) 0.39086(17) 0.1008(2)
H14_5 H 0.140180 0.379516 0.079720
C20_5 C 0.14238(18) 0.46698(17) 0.18331(18)
Cu1_7 Cu 0.125000 0.500000 0.250000
N3_5 N 0.21292(11) 0.30138(11) 0.02725(10)
N4_3 N 0.25004(12) 0.30246(11) 0.04593(11)
O1_5 O 0.11019(16) 0.47582(14) 0.17261(15)
O2_5 O 0.16323(13) 0.47652(12) 0.20846(12)
H15_5 H 0.094581 0.695219 0.006566
H22_5 H 0.015061 0.860474 0.010276
C31_5 C 0.06138(15) 0.70292(16) 0.07979(13)
H23_5 H 0.087951 0.709957 0.086542
C32_5 C 0.03882(18) 0.66998(13) 0.09686(15)
C33_5 C 0.00225(16) 0.67348(13) 0.08075(12)
C34_5 C 0.0565(2) 0.64450(15) 0.12964(19)
C35_5 C 0.0338(2) 0.61871(19) 0.14838(18)
H25_5 H 0.005869 0.619154 0.143938
C36_5 C 0.0508(2) 0.58885(19) 0.17640(18)
H26_5 H 0.035583 0.567187 0.186460
C37_5 C 0.0904(3) 0.59486(18) 0.18682(16)
C38_5 C 0.1130(2) 0.6239(2) 0.16890(18)
H27_5 H 0.140432 0.626865 0.175292
C39_5 C 0.0947(2) 0.6492(2) 0.14086(17)
H28_5 H 0.109820 0.670280 0.129516
C40_5 C 0.10762(18) 0.56669(18) 0.21698(17)
N7_5 N 0.03708(11) 0.72275(10) 0.05138(11)
O3_5 O 0.13981(16) 0.57739(15) 0.22582(14)
O4_5 O 0.08677(13) 0.54154(12) 0.22652(12)
Pd2_3 Pd 0.04660(2) 0.77344(2) 0.02464(2)
C41_5 C 0.14167(14) 0.75758(17) 0.46552(19)
H29_5 H 0.155419 0.743434 0.445219
C42_5 C 0.10770(18) 0.77964(19) 0.45399(19)
H30_5 H 0.100487 0.783197 0.426849
C43_5 C 0.08551(16) 0.79584(19) 0.48513(18)
H31_5 H 0.061114 0.809127 0.479694
C44_5 C 0.09926(17) 0.79250(18) 0.5248(2)
H32_5 H 0.084766 0.805165 0.545549
C45_5 C 0.13287(15) 0.77152(17) 0.53398(16)
C46_5 C 0.15224(15) 0.77240(17) 0.57309(16)
C47_5 C 0.13714(15) 0.78993(17) 0.60793(18)
H33_5 H 0.111489 0.801887 0.607577
C48_5 C 0.15781(15) 0.79001(16) 0.64068(19)
H34_5 H 0.146804 0.802166 0.663749
C49_5 C 0.19503(16) 0.77312(17) 0.64310(16)
H35_5 H 0.210313 0.774900 0.666858
C50_5 C 0.20996(14) 0.75296(14) 0.60914(14)
H36_5 H 0.234939 0.739724 0.610474
C51_5 C 0.18862(15) 0.67021(13) 0.45292(16)
H37_5 H 0.162049 0.663458 0.459957
C52_5 C 0.21118(18) 0.65314(15) 0.41998(13)
C53_5 C 0.24775(16) 0.66925(12) 0.42348(13)
H38_5 H 0.269634 0.662189 0.406972
C54_5 C 0.1935(2) 0.62036(19) 0.39450(15)
C55_5 C 0.2162(2) 0.60162(18) 0.36871(19)
H39_5 H 0.244131 0.606062 0.369154
C56_5 C 0.1992(2) 0.57360(18) 0.33885(19)
H40_5 H 0.214417 0.563540 0.317187
C57_5 C 0.1596(3) 0.56318(16) 0.34486(18)
C58_5 C 0.1370(2) 0.58110(18) 0.3739(2)
H41_5 H 0.109568 0.574708 0.376865
C59_5 C 0.1553(2) 0.60914(17) 0.3992(2)
H42_5 H 0.140180 0.620484 0.420280
C60_5 C 0.14238(18) 0.53302(17) 0.31669(18)
N9_5 N 0.15596(12) 0.75494(12) 0.50215(12)
N10_5 N 0.18823(11) 0.75247(12) 0.57388(12)
N11_5 N 0.21292(11) 0.69862(11) 0.47275(10)
N12_3 N 0.25004(12) 0.69754(11) 0.45407(11)
O5_5 O 0.11019(16) 0.52418(14) 0.32739(15)
O6_5 O 0.16323(13) 0.52348(12) 0.29154(12)
Pd3_3 Pd 0.20340(2) 0.72536(2) 0.52344(2)
C61_5 C 0.10833(14) 0.28448(19) 0.50758(17)
H43_5 H 0.094581 0.304781 0.493434
C62_5 C 0.14230(18) 0.29601(19) 0.52964(19)
H44_5 H 0.149513 0.323151 0.533197
C63_5 C 0.16449(16) 0.26487(18) 0.54584(19)
H45_5 H 0.188886 0.270306 0.559127
C64_5 C 0.15074(17) 0.2252(2) 0.54250(18)
H46_5 H 0.165234 0.204451 0.555165
C65_5 C 0.11713(15) 0.21602(16) 0.52152(17)
C66_5 C 0.09776(15) 0.17691(16) 0.52240(17)
C67_5 C 0.11286(15) 0.14207(18) 0.53993(17)
H47_5 H 0.138511 0.142423 0.551887
C68_5 C 0.09219(15) 0.10932(19) 0.54001(16)
H48_5 H 0.103196 0.086251 0.552166
C69_5 C 0.05497(16) 0.10690(16) 0.52312(17)
H49_5 H 0.039687 0.083142 0.524900
C70_5 C 0.04004(14) 0.14086(14) 0.50296(14)
H50_5 H 0.015061 0.139526 0.489724
C71_5 C 0.06138(15) 0.29708(16) 0.42021(13)
H51_5 H 0.087951 0.290043 0.413458
C72_5 C 0.03882(18) 0.33002(13) 0.40314(15)
C73_5 C 0.00225(16) 0.32652(13) 0.41925(12)
C74_5 C 0.0565(2) 0.35550(15) 0.37036(19)
C75_5 C 0.0338(2) 0.38129(19) 0.35162(18)
H53_5 H 0.005869 0.380846 0.356062
C76_5 C 0.0508(2) 0.41115(19) 0.32360(18)
H54_5 H 0.035583 0.432813 0.313540
C77_5 C 0.0904(3) 0.40514(18) 0.31318(16)
C78_5 C 0.1130(2) 0.3761(2) 0.33110(18)
H55_5 H 0.140432 0.373135 0.324708
C79_5 C 0.0947(2) 0.3508(2) 0.35914(17)
H56_5 H 0.109820 0.329720 0.370484
C80_5 C 0.10762(18) 0.43331(18) 0.28302(17)
N13_5 N 0.09404(12) 0.24785(12) 0.50494(12)
N14_5 N 0.06177(11) 0.17612(12) 0.50247(12)
N15_5 N 0.03708(11) 0.27725(10) 0.44862(11)
O7_5 O 0.13981(16) 0.42261(15) 0.27418(14)
O8_5 O 0.08677(13) 0.45846(12) 0.27348(12)
Pd4_3 Pd 0.04660(2) 0.22656(2) 0.47536(2)
N17_3 N 0.24996(12) 0.69754(11) 0.54593(11)
N18_3 N 0.00004(12) 0.20407(11) 0.44754(11)
N20_3 N 0.00004(12) 0.79593(11) 0.05246(11)
Pd5_3 Pd 0.29660(2) 0.72536(2) 0.47656(2)
Pd7_3 Pd 0.29660(2) 0.27464(2) 0.02344(2)
C4_5 C 0.09926(17) 0.20750(18) 0.9752(2)
H4_5 H 0.084766 0.194835 0.954451
C5_5 C 0.13287(15) 0.22848(17) 0.96602(16)
C6_5 C 0.15224(15) 0.22760(17) 0.92691(16)
C7_5 C 0.13714(15) 0.21007(17) 0.89207(18)
H5_5 H 0.111489 0.198113 0.892423
C8_5 C 0.15781(15) 0.20999(16) 0.85932(19)
H6_5 H 0.146804 0.197834 0.836251
C9_5 C 0.19503(16) 0.22688(17) 0.85690(16)
H7_5 H 0.210313 0.225100 0.833142
C10_5 C 0.20996(14) 0.24704(14) 0.89086(14)
H8_5 H 0.234939 0.260276 0.889526
N1_5 N 0.15596(12) 0.24506(12) 0.99785(12)
N2_5 N 0.18823(11) 0.24753(12) 0.92612(12)
Pd1_3 Pd 0.20340(2) 0.27464(2) 0.97656(2)
C21_5 C 0.10833(14) 0.71552(19) 0.99242(17)
C22_5 C 0.14230(18) 0.70399(19) 0.97036(19)
H16_5 H 0.149513 0.676849 0.966803
C23_5 C 0.16449(16) 0.73513(18) 0.95416(19)
H17_5 H 0.188886 0.729694 0.940873
C24_5 C 0.15074(17) 0.7748(2) 0.95750(18)
H18_5 H 0.165234 0.795549 0.944835
C25_5 C 0.11713(15) 0.78398(16) 0.97848(17)
C26_5 C 0.09776(15) 0.82309(16) 0.97760(17)
C27_5 C 0.11286(15) 0.85793(18) 0.96007(17)
H19_5 H 0.138511 0.857577 0.948113
C28_5 C 0.09219(15) 0.89068(19) 0.95999(16)
H20_5 H 0.103196 0.913749 0.947834
C29_5 C 0.05497(16) 0.89310(16) 0.97688(17)
H21_5 H 0.039687 0.916858 0.975100
C30_5 C 0.04004(14) 0.85914(14) 0.99704(14)
N5_5 N 0.09404(12) 0.75215(12) 0.99506(12)
N6_5 N 0.06177(11) 0.82388(12) 0.99753(12)
N19_3 N 0.24996(12) 0.30246(11) 0.95407(11)
H24_5 H 0.980366 0.656972 0.087811
N8_3 N 0.99996(12) 0.70407(11) 0.05246(11)
H52_5 H 0.980366 0.343028 0.412189
N16_3 N 0.99996(12) 0.29593(11) 0.44754(11)
Pd6_3 Pd 0.95340(2) 0.27344(2) 0.47536(2)
Pd8_3 Pd 0.95340(2) 0.72656(2) 0.02464(2)
C4_6 C 0.59926(17) 0.29250(18) 0.0248(2)
H4_6 H 0.584766 0.305165 0.045549
C5_6 C 0.63287(15) 0.27152(17) 0.03398(16)
C6_6 C 0.65224(15) 0.27240(17) 0.07309(16)
C7_6 C 0.63714(15) 0.28993(17) 0.10793(18)
H5_6 H 0.611489 0.301887 0.107577
C8_6 C 0.65781(15) 0.29001(16) 0.14068(19)
H6_6 H 0.646804 0.302166 0.163749
C9_6 C 0.69503(16) 0.27312(17) 0.14310(16)
H7_6 H 0.710313 0.274900 0.166858
C10_6 C 0.70996(14) 0.25296(14) 0.10914(14)
H8_6 H 0.734939 0.239724 0.110474
N1_6 N 0.65596(12) 0.25494(12) 0.00215(12)
N2_6 N 0.68823(11) 0.25247(12) 0.07388(12)
Pd1_4 Pd 0.70340(2) 0.22536(2) 0.02344(2)
N19_4 N 0.74996(12) 0.19754(11) 0.04593(11)
C1_6 C 0.64167(14) 0.25758(17) 0.96552(19)
H1_6 H 0.655419 0.243434 0.945219
C2_6 C 0.60770(18) 0.27964(19) 0.95399(19)
H2_6 H 0.600487 0.283197 0.926849
C3_6 C 0.58551(16) 0.29584(19) 0.98513(18)
H3_6 H 0.561114 0.309127 0.979694
C11_6 C 0.68862(15) 0.17021(13) 0.95292(16)
H9_6 H 0.662049 0.163458 0.959957
C12_6 C 0.71118(18) 0.15314(15) 0.91998(13)
C13_6 C 0.74775(16) 0.16925(12) 0.92348(13)
H10_6 H 0.769634 0.162189 0.906972
C14_6 C 0.6935(2) 0.12036(19) 0.89450(15)
C15_6 C 0.7162(2) 0.10162(18) 0.86871(19)
H11_6 H 0.744131 0.106062 0.869154
C16_6 C 0.6992(2) 0.07360(18) 0.83885(19)
H12_6 H 0.714417 0.063540 0.817187
C17_6 C 0.6596(3) 0.06318(16) 0.84486(18)
C18_6 C 0.6370(2) 0.08110(18) 0.8739(2)
H13_6 H 0.609568 0.074708 0.876865
C19_6 C 0.6553(2) 0.10914(17) 0.8992(2)
H14_6 H 0.640180 0.120484 0.920280
C20_6 C 0.64238(18) 0.03302(17) 0.81669(18)
Cu1_8 Cu 0.625000 0.000000 0.750000
N3_6 N 0.71292(11) 0.19862(11) 0.97275(10)
N4_4 N 0.75004(12) 0.19754(11) 0.95407(11)
O1_6 O 0.61019(16) 0.02418(14) 0.82739(15)
O2_6 O 0.66323(13) 0.02348(12) 0.79154(12)
C61_6 C 0.60833(14) 0.21552(19) 0.49242(17)
H43_6 H 0.594581 0.195219 0.506566
C62_6 C 0.64230(18) 0.20399(19) 0.47036(19)
H44_6 H 0.649513 0.176849 0.466803
C63_6 C 0.66449(16) 0.23513(18) 0.45416(19)
H45_6 H 0.688886 0.229694 0.440873
C64_6 C 0.65074(17) 0.2748(2) 0.45750(18)
H46_6 H 0.665234 0.295549 0.444835
C65_6 C 0.61713(15) 0.28398(16) 0.47848(17)
C66_6 C 0.59776(15) 0.32309(16) 0.47760(17)
C67_6 C 0.61286(15) 0.35793(18) 0.46007(17)
H47_6 H 0.638511 0.357577 0.448113
C68_6 C 0.59219(15) 0.39068(19) 0.45999(16)
H48_6 H 0.603196 0.413749 0.447834
C69_6 C 0.55497(16) 0.39310(16) 0.47688(17)
H49_6 H 0.539687 0.416858 0.475100
C70_6 C 0.54004(14) 0.35914(14) 0.49704(14)
H50_6 H 0.515061 0.360474 0.510276
C71_6 C 0.56138(15) 0.20292(16) 0.57979(13)
H51_6 H 0.587951 0.209957 0.586542
C72_6 C 0.53882(18) 0.16998(13) 0.59686(15)
C73_6 C 0.50225(16) 0.17348(13) 0.58075(12)
H52_6 H 0.480366 0.156972 0.587811
C74_6 C 0.5565(2) 0.14450(15) 0.62964(19)
C75_6 C 0.5338(2) 0.11871(19) 0.64838(18)
H53_6 H 0.505869 0.119154 0.643938
C76_6 C 0.5508(2) 0.08885(19) 0.67640(18)
H54_6 H 0.535583 0.067187 0.686460
C77_6 C 0.5904(3) 0.09486(18) 0.68682(16)
C78_6 C 0.6130(2) 0.1239(2) 0.66890(18)
H55_6 H 0.640432 0.126865 0.675292
C79_6 C 0.5947(2) 0.1492(2) 0.64086(17)
H56_6 H 0.609820 0.170280 0.629516
C80_6 C 0.60762(18) 0.06669(18) 0.71698(17)
N13_6 N 0.59404(12) 0.25215(12) 0.49506(12)
N14_6 N 0.56177(11) 0.32388(12) 0.49753(12)
N15_6 N 0.53708(11) 0.22275(10) 0.55138(11)
N16_4 N 0.49996(12) 0.20407(11) 0.55246(11)
O7_6 O 0.63981(16) 0.07739(15) 0.72582(14)
O8_6 O 0.58677(13) 0.04154(12) 0.72652(12)
Pd4_4 Pd 0.54660(2) 0.27344(2) 0.52464(2)
N18_4 N 0.50004(12) 0.29593(11) 0.55246(11)
Pd6_4 Pd 0.45340(2) 0.22656(2) 0.52464(2)
Pd7_4 Pd 0.79660(2) 0.22536(2) 0.97656(2)
Cu1_9 Cu 0.625000 1.000000 0.750000
H15_6 H 0.594581 0.804781 0.993434
H22_6 H 0.515061 0.639526 0.989724
C31_6 C 0.56138(15) 0.79708(16) 0.92021(13)
H23_6 H 0.587951 0.790043 0.913458
C32_6 C 0.53882(18) 0.83002(13) 0.90314(15)
C33_6 C 0.50225(16) 0.82652(13) 0.91925(12)
H24_6 H 0.480366 0.843028 0.912189
C34_6 C 0.5565(2) 0.85550(15) 0.87036(19)
C35_6 C 0.5338(2) 0.88129(19) 0.85162(18)
H25_6 H 0.505869 0.880846 0.856062
C36_6 C 0.5508(2) 0.91115(19) 0.82360(18)
H26_6 H 0.535583 0.932813 0.813540
C37_6 C 0.5904(3) 0.90514(18) 0.81318(16)
C38_6 C 0.6130(2) 0.8761(2) 0.83110(18)
H27_6 H 0.640432 0.873135 0.824708
C39_6 C 0.5947(2) 0.8508(2) 0.85914(17)
H28_6 H 0.609820 0.829720 0.870484
C40_6 C 0.60762(18) 0.93331(18) 0.78302(17)
N7_6 N 0.53708(11) 0.77725(10) 0.94862(11)
N8_4 N 0.49996(12) 0.79593(11) 0.94754(11)
O3_6 O 0.63981(16) 0.92261(15) 0.77418(14)
O4_6 O 0.58677(13) 0.95846(12) 0.77348(12)
Pd2_4 Pd 0.54660(2) 0.72656(2) 0.97536(2)
C41_6 C 0.64167(14) 0.74242(17) 0.53448(19)
H29_6 H 0.655419 0.756566 0.554781
C42_6 C 0.60770(18) 0.72036(19) 0.54601(19)
H30_6 H 0.600487 0.716803 0.573151
C43_6 C 0.58551(16) 0.70416(19) 0.51487(18)
H31_6 H 0.561114 0.690873 0.520306
C44_6 C 0.59926(17) 0.70750(18) 0.4752(2)
H32_6 H 0.584766 0.694835 0.454451
C45_6 C 0.63287(15) 0.72848(17) 0.46602(16)
C46_6 C 0.65224(15) 0.72760(17) 0.42691(16)
C47_6 C 0.63714(15) 0.71007(17) 0.39207(18)
H33_6 H 0.611489 0.698113 0.392423
C48_6 C 0.65781(15) 0.70999(16) 0.35932(19)
H34_6 H 0.646804 0.697834 0.336251
C49_6 C 0.69503(16) 0.72688(17) 0.35690(16)
H35_6 H 0.710313 0.725100 0.333142
C50_6 C 0.70996(14) 0.74704(14) 0.39086(14)
H36_6 H 0.734939 0.760276 0.389526
C51_6 C 0.68862(15) 0.82979(13) 0.54708(16)
H37_6 H 0.662049 0.836542 0.540043
C52_6 C 0.71118(18) 0.84686(15) 0.58002(13)
C53_6 C 0.74775(16) 0.83075(12) 0.57652(13)
H38_6 H 0.769634 0.837811 0.593028
C54_6 C 0.6935(2) 0.87964(19) 0.60550(15)
C55_6 C 0.7162(2) 0.89838(18) 0.63129(19)
H39_6 H 0.744131 0.893938 0.630846
C56_6 C 0.6992(2) 0.92640(18) 0.66115(19)
H40_6 H 0.714417 0.936460 0.682813
C57_6 C 0.6596(3) 0.93682(16) 0.65514(18)
C58_6 C 0.6370(2) 0.91890(18) 0.6261(2)
H41_6 H 0.609568 0.925292 0.623135
C59_6 C 0.6553(2) 0.89086(17) 0.6008(2)
H42_6 H 0.640180 0.879516 0.579720
C60_6 C 0.64238(18) 0.96698(17) 0.68331(18)
N9_6 N 0.65596(12) 0.74506(12) 0.49785(12)
N10_6 N 0.68823(11) 0.74753(12) 0.42612(12)
N11_6 N 0.71292(11) 0.80138(11) 0.52725(10)
N12_4 N 0.75004(12) 0.80246(11) 0.54593(11)
O5_6 O 0.61019(16) 0.97582(14) 0.67261(15)
O6_6 O 0.66323(13) 0.97652(12) 0.70846(12)
Pd3_4 Pd 0.70340(2) 0.77464(2) 0.47656(2)
N17_4 N 0.74996(12) 0.80246(11) 0.45407(11)
N20_4 N 0.50004(12) 0.70407(11) 0.94754(11)
Pd5_4 Pd 0.79660(2) 0.77464(2) 0.52344(2)
Pd8_4 Pd 0.45340(2) 0.77344(2) 0.97536(2)
C44_7 C 0.40074(17) 0.20750(18) 0.0248(2)
H32_7 H 0.415234 0.194835 0.045549
C45_7 C 0.36713(15) 0.22848(17) 0.03398(16)
C46_7 C 0.34776(15) 0.22760(17) 0.07309(16)
C47_7 C 0.36286(15) 0.21007(17) 0.10793(18)
H33_7 H 0.388511 0.198113 0.107577
C48_7 C 0.34219(15) 0.20999(16) 0.14068(19)
H34_7 H 0.353196 0.197834 0.163749
C49_7 C 0.30497(16) 0.22688(17) 0.14310(16)
H35_7 H 0.289687 0.225100 0.166858
C50_7 C 0.29004(14) 0.24704(14) 0.10914(14)
H36_7 H 0.265061 0.260276 0.110474
N9_7 N 0.34404(12) 0.24506(12) 0.00215(12)
N10_7 N 0.31177(11) 0.24753(12) 0.07388(12)
C61_7 C 0.39167(14) 0.71552(19) 0.00758(17)
C62_7 C 0.35770(18) 0.70399(19) 0.02964(19)
H44_7 H 0.350487 0.676849 0.033197
C63_7 C 0.33551(16) 0.73513(18) 0.04584(19)
H45_7 H 0.311114 0.729694 0.059127
C64_7 C 0.34926(17) 0.7748(2) 0.04250(18)
H46_7 H 0.334766 0.795549 0.055165
C65_7 C 0.38287(15) 0.78398(16) 0.02152(17)
C66_7 C 0.40224(15) 0.82309(16) 0.02240(17)
C67_7 C 0.38714(15) 0.85793(18) 0.03993(17)
H47_7 H 0.361489 0.857577 0.051887
C68_7 C 0.40781(15) 0.89068(19) 0.04001(16)
H48_7 H 0.396804 0.913749 0.052166
C69_7 C 0.44503(16) 0.89310(16) 0.02312(17)
H49_7 H 0.460313 0.916858 0.024900
C70_7 C 0.45996(14) 0.85914(14) 0.00296(14)
N13_7 N 0.40596(12) 0.75215(12) 0.00494(12)
N14_7 N 0.43823(11) 0.82388(12) 0.00247(12)
C1_7 C 0.35833(14) 0.75758(17) 0.53448(19)
H1_7 H 0.344581 0.743434 0.554781
C2_7 C 0.39230(18) 0.77964(19) 0.54601(19)
H2_7 H 0.399513 0.783197 0.573151
C3_7 C 0.41449(16) 0.79584(19) 0.51487(18)
H3_7 H 0.438886 0.809127 0.520306
C4_7 C 0.40074(17) 0.79250(18) 0.4752(2)
H4_7 H 0.415234 0.805165 0.454451
C5_7 C 0.36713(15) 0.77152(17) 0.46602(16)
C6_7 C 0.34776(15) 0.77240(17) 0.42691(16)
C7_7 C 0.36286(15) 0.78993(17) 0.39207(18)
H5_7 H 0.388511 0.801887 0.392423
C8_7 C 0.34219(15) 0.79001(16) 0.35932(19)
H6_7 H 0.353196 0.802166 0.336251
C9_7 C 0.30497(16) 0.77312(17) 0.35690(16)
H7_7 H 0.289687 0.774900 0.333142
C10_7 C 0.29004(14) 0.75296(14) 0.39086(14)
H8_7 H 0.265061 0.739724 0.389526
C11_7 C 0.31138(15) 0.67021(13) 0.54708(16)
H9_7 H 0.337951 0.663458 0.540043
C12_7 C 0.28882(18) 0.65314(15) 0.58002(13)
C13_7 C 0.25225(16) 0.66925(12) 0.57652(13)
H10_7 H 0.230366 0.662189 0.593028
C14_7 C 0.3065(2) 0.62036(19) 0.60550(15)
C15_7 C 0.2838(2) 0.60162(18) 0.63129(19)
H11_7 H 0.255869 0.606062 0.630846
C16_7 C 0.3008(2) 0.57360(18) 0.66115(19)
H12_7 H 0.285583 0.563540 0.682813
C17_7 C 0.3404(3) 0.56318(16) 0.65514(18)
C18_7 C 0.3630(2) 0.58110(18) 0.6261(2)
H13_7 H 0.390432 0.574708 0.623135
C19_7 C 0.3447(2) 0.60914(17) 0.6008(2)
H14_7 H 0.359820 0.620484 0.579720
C20_7 C 0.35762(18) 0.53302(17) 0.68331(18)
Cu1_10 Cu 0.375000 0.500000 0.750000
N1_7 N 0.34404(12) 0.75494(12) 0.49785(12)
N2_7 N 0.31177(11) 0.75247(12) 0.42612(12)
N3_7 N 0.28708(11) 0.69862(11) 0.52725(10)
O1_7 O 0.38981(16) 0.52418(14) 0.67261(15)
O2_7 O 0.33677(13) 0.52348(12) 0.70846(12)
C21_6 C 0.39167(14) 0.28448(19) 0.49242(17)
H15_7 H 0.405419 0.304781 0.506566
C22_6 C 0.35770(18) 0.29601(19) 0.47036(19)
H16_6 H 0.350487 0.323151 0.466803
C23_6 C 0.33551(16) 0.26487(18) 0.45416(19)
H17_6 H 0.311114 0.270306 0.440873
C24_6 C 0.34926(17) 0.2252(2) 0.45750(18)
H18_6 H 0.334766 0.204451 0.444835
C25_6 C 0.38287(15) 0.21602(16) 0.47848(17)
C26_6 C 0.40224(15) 0.17691(16) 0.47760(17)
C27_6 C 0.38714(15) 0.14207(18) 0.46007(17)
H19_6 H 0.361489 0.142423 0.448113
C28_6 C 0.40781(15) 0.10932(19) 0.45999(16)
H20_6 H 0.396804 0.086251 0.447834
C29_6 C 0.44503(16) 0.10690(16) 0.47688(17)
H21_6 H 0.460313 0.083142 0.475100
C30_6 C 0.45996(14) 0.14086(14) 0.49704(14)
H22_7 H 0.484939 0.139526 0.510276
C31_7 C 0.43862(15) 0.29708(16) 0.57979(13)
H23_7 H 0.412049 0.290043 0.586542
C32_7 C 0.46118(18) 0.33002(13) 0.59686(15)
C33_7 C 0.49775(16) 0.32652(13) 0.58075(12)
H24_7 H 0.519634 0.343028 0.587811
C34_7 C 0.4435(2) 0.35550(15) 0.62964(19)
C35_7 C 0.4662(2) 0.38129(19) 0.64838(18)
H25_7 H 0.494131 0.380846 0.643938
C36_7 C 0.4492(2) 0.41115(19) 0.67640(18)
H26_7 H 0.464417 0.432813 0.686460
C37_7 C 0.4096(3) 0.40514(18) 0.68682(16)
C38_7 C 0.3870(2) 0.3761(2) 0.66890(18)
H27_7 H 0.359568 0.373135 0.675292
C39_7 C 0.4053(2) 0.3508(2) 0.64086(17)
H28_7 H 0.390180 0.329720 0.629516
C40_7 C 0.39238(18) 0.43331(18) 0.71698(17)
N5_6 N 0.40596(12) 0.24785(12) 0.49506(12)
N6_6 N 0.43823(11) 0.17612(12) 0.49753(12)
N7_7 N 0.46292(11) 0.27725(10) 0.55138(11)
O3_7 O 0.36019(16) 0.42261(15) 0.72582(14)
O4_7 O 0.41323(13) 0.45846(12) 0.72652(12)
C41_7 C 0.35833(14) 0.24242(17) 0.96552(19)
H29_7 H 0.344581 0.256566 0.945219
C42_7 C 0.39230(18) 0.22036(19) 0.95399(19)
H30_7 H 0.399513 0.216803 0.926849
C43_7 C 0.41449(16) 0.20416(19) 0.98513(18)
H31_7 H 0.438886 0.190873 0.979694
C51_7 C 0.31138(15) 0.32979(13) 0.95292(16)
H37_7 H 0.337951 0.336542 0.959957
C52_7 C 0.28882(18) 0.34686(15) 0.91998(13)
C53_7 C 0.25225(16) 0.33075(12) 0.92348(13)
H38_7 H 0.230366 0.337811 0.906972
C54_7 C 0.3065(2) 0.37964(19) 0.89450(15)
C55_7 C 0.2838(2) 0.39838(18) 0.86871(19)
H39_7 H 0.255869 0.393938 0.869154
C56_7 C 0.3008(2) 0.42640(18) 0.83885(19)
H40_7 H 0.285583 0.436460 0.817187
C57_7 C 0.3404(3) 0.43682(16) 0.84486(18)
C58_7 C 0.3630(2) 0.41890(18) 0.8739(2)
H41_7 H 0.390432 0.425292 0.876865
C59_7 C 0.3447(2) 0.39086(17) 0.8992(2)
H42_7 H 0.359820 0.379516 0.920280
C60_7 C 0.35762(18) 0.46698(17) 0.81669(18)
N11_7 N 0.28708(11) 0.30138(11) 0.97275(10)
O5_7 O 0.38981(16) 0.47582(14) 0.82739(15)
O6_7 O 0.33677(13) 0.47652(12) 0.79154(12)
H43_7 H 0.405419 0.695219 0.993434
H50_7 H 0.484939 0.860474 0.989724
C71_7 C 0.43862(15) 0.70292(16) 0.92021(13)
H51_7 H 0.412049 0.709957 0.913458
C72_7 C 0.46118(18) 0.66998(13) 0.90314(15)
C73_7 C 0.49775(16) 0.67348(13) 0.91925(12)
H52_7 H 0.519634 0.656972 0.912189
C74_7 C 0.4435(2) 0.64450(15) 0.87036(19)
C75_7 C 0.4662(2) 0.61871(19) 0.85162(18)
H53_7 H 0.494131 0.619154 0.856062
C76_7 C 0.4492(2) 0.58885(19) 0.82360(18)
H54_7 H 0.464417 0.567187 0.813540
C77_7 C 0.4096(3) 0.59486(18) 0.81318(16)
C78_7 C 0.3870(2) 0.6239(2) 0.83110(18)
H55_7 H 0.359568 0.626865 0.824708
C79_7 C 0.4053(2) 0.6492(2) 0.85914(17)
H56_7 H 0.390180 0.670280 0.870484
C80_7 C 0.39238(18) 0.56669(18) 0.78302(17)
N15_7 N 0.46292(11) 0.72275(10) 0.94862(11)
O7_7 O 0.36019(16) 0.57739(15) 0.77418(14)
O8_7 O 0.41323(13) 0.54154(12) 0.77348(12)
H24_8 H 0.019634 0.156972 0.412189
H52_8 H 0.019634 0.843028 0.087811
Cu1_11 Cu 0.875000 -0.000000 0.250000
C21_7 C 0.89167(14) 0.21552(19) 0.50758(17)
H15_8 H 0.905419 0.195219 0.493434
C22_7 C 0.85770(18) 0.20399(19) 0.52964(19)
H16_7 H 0.850487 0.176849 0.533197
C23_7 C 0.83551(16) 0.23513(18) 0.54584(19)
H17_7 H 0.811114 0.229694 0.559127
C24_7 C 0.84926(17) 0.2748(2) 0.54250(18)
H18_7 H 0.834766 0.295549 0.555165
C25_7 C 0.88287(15) 0.28398(16) 0.52152(17)
C26_7 C 0.90224(15) 0.32309(16) 0.52240(17)
C27_7 C 0.88714(15) 0.35793(18) 0.53993(17)
H19_7 H 0.861489 0.357577 0.551887
C28_7 C 0.90781(15) 0.39068(19) 0.54001(16)
H20_7 H 0.896804 0.413749 0.552166
C29_7 C 0.94503(16) 0.39310(16) 0.52312(17)
H21_7 H 0.960313 0.416858 0.524900
C30_7 C 0.95996(14) 0.35914(14) 0.50296(14)
H22_8 H 0.984939 0.360474 0.489724
C31_8 C 0.93862(15) 0.20292(16) 0.42021(13)
H23_8 H 0.912049 0.209957 0.413458
C32_8 C 0.96118(18) 0.16998(13) 0.40314(15)
C33_8 C 0.99775(16) 0.17348(13) 0.41925(12)
C34_8 C 0.9435(2) 0.14450(15) 0.37036(19)
C35_8 C 0.9662(2) 0.11871(19) 0.35162(18)
H25_8 H 0.994131 0.119154 0.356062
C36_8 C 0.9492(2) 0.08885(19) 0.32360(18)
H26_8 H 0.964417 0.067187 0.313540
C37_8 C 0.9096(3) 0.09486(18) 0.31318(16)
C38_8 C 0.8870(2) 0.1239(2) 0.33110(18)
H27_8 H 0.859568 0.126865 0.324708
C39_8 C 0.9053(2) 0.1492(2) 0.35914(17)
H28_8 H 0.890180 0.170280 0.370484
C40_8 C 0.89238(18) 0.06669(18) 0.28302(17)
N5_7 N 0.90596(12) 0.25215(12) 0.50494(12)
N6_7 N 0.93823(11) 0.32388(12) 0.50247(12)
N7_8 N 0.96292(11) 0.22275(10) 0.44862(11)
O3_8 O 0.86019(16) 0.07739(15) 0.27418(14)
O4_8 O 0.91323(13) 0.04154(12) 0.27348(12)
C41_8 C 0.85833(14) 0.25758(17) 0.03448(19)
H29_8 H 0.844581 0.243434 0.054781
C42_8 C 0.89230(18) 0.27964(19) 0.04601(19)
H30_8 H 0.899513 0.283197 0.073151
C43_8 C 0.91449(16) 0.29584(19) 0.01487(18)
H31_8 H 0.938886 0.309127 0.020306
C51_8 C 0.81138(15) 0.17021(13) 0.04708(16)
H37_8 H 0.837951 0.163458 0.040043
C52_8 C 0.78882(18) 0.15314(15) 0.08002(13)
C53_8 C 0.75225(16) 0.16925(12) 0.07652(13)
H38_8 H 0.730366 0.162189 0.093028
C54_8 C 0.8065(2) 0.12036(19) 0.10550(15)
C55_8 C 0.7838(2) 0.10162(18) 0.13129(19)
H39_8 H 0.755869 0.106062 0.130846
C56_8 C 0.8008(2) 0.07360(18) 0.16115(19)
H40_8 H 0.785583 0.063540 0.182813
C57_8 C 0.8404(3) 0.06318(16) 0.15514(18)
C58_8 C 0.8630(2) 0.08110(18) 0.1261(2)
H41_8 H 0.890432 0.074708 0.123135
C59_8 C 0.8447(2) 0.10914(17) 0.1008(2)
H42_8 H 0.859820 0.120484 0.079720
C60_8 C 0.85762(18) 0.03302(17) 0.18331(18)
N11_8 N 0.78708(11) 0.19862(11) 0.02725(10)
O5_8 O 0.88981(16) 0.02418(14) 0.17261(15)
O6_8 O 0.83677(13) 0.02348(12) 0.20846(12)
C44_8 C 0.90074(17) 0.29250(18) 0.9752(2)
H32_8 H 0.915234 0.305165 0.954451
C45_8 C 0.86713(15) 0.27152(17) 0.96602(16)
C46_8 C 0.84776(15) 0.27240(17) 0.92691(16)
C47_8 C 0.86286(15) 0.28993(17) 0.89207(18)
H33_8 H 0.888511 0.301887 0.892423
C48_8 C 0.84219(15) 0.29001(16) 0.85932(19)
H34_8 H 0.853196 0.302166 0.836251
C49_8 C 0.80497(16) 0.27312(17) 0.85690(16)
H35_8 H 0.789687 0.274900 0.833142
C50_8 C 0.79004(14) 0.25296(14) 0.89086(14)
H36_8 H 0.765061 0.239724 0.889526
N9_8 N 0.84404(12) 0.25494(12) 0.99785(12)
N10_8 N 0.81177(11) 0.25247(12) 0.92612(12)
C1_8 C 0.85833(14) 0.74242(17) 0.46552(19)
H1_8 H 0.844581 0.756566 0.445219
C2_8 C 0.89230(18) 0.72036(19) 0.45399(19)
H2_8 H 0.899513 0.716803 0.426849
C3_8 C 0.91449(16) 0.70416(19) 0.48513(18)
H3_8 H 0.938886 0.690873 0.479694
C4_8 C 0.90074(17) 0.70750(18) 0.5248(2)
H4_8 H 0.915234 0.694835 0.545549
C5_8 C 0.86713(15) 0.72848(17) 0.53398(16)
C6_8 C 0.84776(15) 0.72760(17) 0.57309(16)
C7_8 C 0.86286(15) 0.71007(17) 0.60793(18)
H5_8 H 0.888511 0.698113 0.607577
C8_8 C 0.84219(15) 0.70999(16) 0.64068(19)
H6_8 H 0.853196 0.697834 0.663749
C9_8 C 0.80497(16) 0.72688(17) 0.64310(16)
H7_8 H 0.789687 0.725100 0.666858
C10_8 C 0.79004(14) 0.74704(14) 0.60914(14)
H8_8 H 0.765061 0.760276 0.610474
C11_8 C 0.81138(15) 0.82979(13) 0.45292(16)
H9_8 H 0.837951 0.836542 0.459957
C12_8 C 0.78882(18) 0.84686(15) 0.41998(13)
C13_8 C 0.75225(16) 0.83075(12) 0.42348(13)
H10_8 H 0.730366 0.837811 0.406972
C14_8 C 0.8065(2) 0.87964(19) 0.39450(15)
C15_8 C 0.7838(2) 0.89838(18) 0.36871(19)
H11_8 H 0.755869 0.893938 0.369154
C16_8 C 0.8008(2) 0.92640(18) 0.33885(19)
H12_8 H 0.785583 0.936460 0.317187
C17_8 C 0.8404(3) 0.93682(16) 0.34486(18)
C18_8 C 0.8630(2) 0.91890(18) 0.3739(2)
H13_8 H 0.890432 0.925292 0.376865
C19_8 C 0.8447(2) 0.89086(17) 0.3992(2)
H14_8 H 0.859820 0.879516 0.420280
C20_8 C 0.85762(18) 0.96698(17) 0.31669(18)
Cu1_12 Cu 0.875000 1.000000 0.250000
N1_8 N 0.84404(12) 0.74506(12) 0.50215(12)
N2_8 N 0.81177(11) 0.74753(12) 0.57388(12)
N3_8 N 0.78708(11) 0.80138(11) 0.47275(10)
O1_8 O 0.88981(16) 0.97582(14) 0.32739(15)
O2_8 O 0.83677(13) 0.97652(12) 0.29154(12)
H43_8 H 0.905419 0.804781 0.006566
H50_8 H 0.984939 0.639526 0.010276
C71_8 C 0.93862(15) 0.79708(16) 0.07979(13)
H51_8 H 0.912049 0.790043 0.086542
C72_8 C 0.96118(18) 0.83002(13) 0.09686(15)
C73_8 C 0.99775(16) 0.82652(13) 0.08075(12)
C74_8 C 0.9435(2) 0.85550(15) 0.12964(19)
C75_8 C 0.9662(2) 0.88129(19) 0.14838(18)
H53_8 H 0.994131 0.880846 0.143938
C76_8 C 0.9492(2) 0.91115(19) 0.17640(18)
H54_8 H 0.964417 0.932813 0.186460
C77_8 C 0.9096(3) 0.90514(18) 0.18682(16)
C78_8 C 0.8870(2) 0.8761(2) 0.16890(18)
H55_8 H 0.859568 0.873135 0.175292
C79_8 C 0.9053(2) 0.8508(2) 0.14086(17)
H56_8 H 0.890180 0.829720 0.129516
C80_8 C 0.89238(18) 0.93331(18) 0.21698(17)
N15_8 N 0.96292(11) 0.77725(10) 0.05138(11)
O7_8 O 0.86019(16) 0.92261(15) 0.22582(14)
O8_8 O 0.91323(13) 0.95846(12) 0.22652(12)
C21_8 C 0.60833(14) 0.78448(19) 0.00758(17)
C22_8 C 0.64230(18) 0.79601(19) 0.02964(19)
H16_8 H 0.649513 0.823151 0.033197
C23_8 C 0.66449(16) 0.76487(18) 0.04584(19)
H17_8 H 0.688886 0.770306 0.059127
C24_8 C 0.65074(17) 0.7252(2) 0.04250(18)
H18_8 H 0.665234 0.704451 0.055165
C25_8 C 0.61713(15) 0.71602(16) 0.02152(17)
C26_8 C 0.59776(15) 0.67691(16) 0.02240(17)
C27_8 C 0.61286(15) 0.64207(18) 0.03993(17)
H19_8 H 0.638511 0.642423 0.051887
C28_8 C 0.59219(15) 0.60932(19) 0.04001(16)
H20_8 H 0.603196 0.586251 0.052166
C29_8 C 0.55497(16) 0.60690(16) 0.02312(17)
H21_8 H 0.539687 0.583142 0.024900
C30_8 C 0.54004(14) 0.64086(14) 0.00296(14)
N5_8 N 0.59404(12) 0.74785(12) 0.00494(12)
N6_8 N 0.56177(11) 0.67612(12) 0.00247(12)
C61_8 C 0.89167(14) 0.78448(19) 0.99242(17)
C62_8 C 0.85770(18) 0.79601(19) 0.97036(19)
H44_8 H 0.850487 0.823151 0.966803
C63_8 C 0.83551(16) 0.76487(18) 0.95416(19)
H45_8 H 0.811114 0.770306 0.940873
C64_8 C 0.84926(17) 0.7252(2) 0.95750(18)
H46_8 H 0.834766 0.704451 0.944835
C65_8 C 0.88287(15) 0.71602(16) 0.97848(17)
C66_8 C 0.90224(15) 0.67691(16) 0.97760(17)
C67_8 C 0.88714(15) 0.64207(18) 0.96007(17)
H47_8 H 0.861489 0.642423 0.948113
C68_8 C 0.90781(15) 0.60932(19) 0.95999(16)
H48_8 H 0.896804 0.586251 0.947834
C69_8 C 0.94503(16) 0.60690(16) 0.97688(17)
H49_8 H 0.960313 0.583142 0.975100
C70_8 C 0.95996(14) 0.64086(14) 0.99704(14)
N13_8 N 0.90596(12) 0.74785(12) 0.99506(12)
N14_8 N 0.93823(11) 0.67612(12) 0.99753(12)
C1_9 C 0.03448(19) 0.14167(14) 0.24242(17)
H1_9 H 0.054781 0.155419 0.256566
C2_9 C 0.04601(19) 0.10770(18) 0.22036(19)
H2_9 H 0.073151 0.100487 0.216803
C3_9 C 0.01487(18) 0.08551(16) 0.20416(19)
H3_9 H 0.020306 0.061114 0.190873
C11_9 C 0.04708(16) 0.18862(15) 0.32979(13)
H9_9 H 0.040043 0.162049 0.336542
C12_9 C 0.08002(13) 0.21118(18) 0.34686(15)
C13_9 C 0.07652(13) 0.24775(16) 0.33075(12)
H10_9 H 0.093028 0.269634 0.337811
C14_9 C 0.10550(15) 0.1935(2) 0.37964(19)
C15_9 C 0.13129(19) 0.2162(2) 0.39838(18)
H11_9 H 0.130846 0.244131 0.393938
C16_9 C 0.16115(19) 0.1992(2) 0.42640(18)
H12_9 H 0.182813 0.214417 0.436460
C17_9 C 0.15514(18) 0.1596(3) 0.43682(16)
C18_9 C 0.1261(2) 0.1370(2) 0.41890(18)
H13_9 H 0.123135 0.109568 0.425292
C19_9 C 0.1008(2) 0.1553(2) 0.39086(17)
H14_9 H 0.079720 0.140180 0.379516
C20_9 C 0.18331(18) 0.14238(18) 0.46698(17)
Cu1_13 Cu 0.250000 0.125000 0.500000
N3_9 N 0.02725(10) 0.21292(11) 0.30138(11)
N4_5 N 0.04593(11) 0.25004(12) 0.30246(11)
O1_9 O 0.17261(15) 0.11019(16) 0.47582(14)
O2_9 O 0.20846(12) 0.16323(13) 0.47652(12)
H15_9 H 0.006566 0.094581 0.695219
H22_9 H 0.010276 0.015061 0.860474
C31_9 C 0.07979(13) 0.06138(15) 0.70292(16)
H23_9 H 0.086542 0.087951 0.709957
C32_9 C 0.09686(15) 0.03882(18) 0.66998(13)
C33_9 C 0.08075(12) 0.00225(16) 0.67348(13)
C34_9 C 0.12964(19) 0.0565(2) 0.64450(15)
C35_9 C 0.14838(18) 0.0338(2) 0.61871(19)
H25_9 H 0.143938 0.005869 0.619154
C36_9 C 0.17640(18) 0.0508(2) 0.58885(19)
H26_9 H 0.186460 0.035583 0.567187
C37_9 C 0.18682(16) 0.0904(3) 0.59486(18)
C38_9 C 0.16890(18) 0.1130(2) 0.6239(2)
H27_9 H 0.175292 0.140432 0.626865
C39_9 C 0.14086(17) 0.0947(2) 0.6492(2)
H28_9 H 0.129516 0.109820 0.670280
C40_9 C 0.21698(17) 0.10762(18) 0.56669(18)
N7_9 N 0.05138(11) 0.03708(11) 0.72275(10)
O3_9 O 0.22582(14) 0.13981(16) 0.57739(15)
O4_9 O 0.22652(12) 0.08677(13) 0.54154(12)
Pd2_5 Pd 0.02464(2) 0.04660(2) 0.77344(2)
C41_9 C 0.46552(19) 0.14167(14) 0.75758(17)
H29_9 H 0.445219 0.155419 0.743434
C42_9 C 0.45399(19) 0.10770(18) 0.77964(19)
H30_9 H 0.426849 0.100487 0.783197
C43_9 C 0.48513(18) 0.08551(16) 0.79584(19)
H31_9 H 0.479694 0.061114 0.809127
C44_9 C 0.5248(2) 0.09926(17) 0.79250(18)
H32_9 H 0.545549 0.084766 0.805165
C45_9 C 0.53398(16) 0.13287(15) 0.77152(17)
C46_9 C 0.57309(16) 0.15224(15) 0.77240(17)
C47_9 C 0.60793(18) 0.13714(15) 0.78993(17)
H33_9 H 0.607577 0.111489 0.801887
C48_9 C 0.64068(19) 0.15781(15) 0.79001(16)
H34_9 H 0.663749 0.146804 0.802166
C49_9 C 0.64310(16) 0.19503(16) 0.77312(17)
H35_9 H 0.666858 0.210313 0.774900
C50_9 C 0.60914(14) 0.20996(14) 0.75296(14)
H36_9 H 0.610474 0.234939 0.739724
C51_9 C 0.45292(16) 0.18862(15) 0.67021(13)
H37_9 H 0.459957 0.162049 0.663458
C52_9 C 0.41998(13) 0.21118(18) 0.65314(15)
C53_9 C 0.42348(13) 0.24775(16) 0.66925(12)
H38_9 H 0.406972 0.269634 0.662189
C54_9 C 0.39450(15) 0.1935(2) 0.62036(19)
C55_9 C 0.36871(19) 0.2162(2) 0.60162(18)
H39_9 H 0.369154 0.244131 0.606062
C56_9 C 0.33885(19) 0.1992(2) 0.57360(18)
H40_9 H 0.317187 0.214417 0.563540
C57_9 C 0.34486(18) 0.1596(3) 0.56318(16)
C58_9 C 0.3739(2) 0.1370(2) 0.58110(18)
H41_9 H 0.376865 0.109568 0.574708
C59_9 C 0.3992(2) 0.1553(2) 0.60914(17)
H42_9 H 0.420280 0.140180 0.620484
C60_9 C 0.31669(18) 0.14238(18) 0.53302(17)
N9_9 N 0.50215(12) 0.15596(12) 0.75494(12)
N10_9 N 0.57388(12) 0.18823(11) 0.75247(12)
N11_9 N 0.47275(10) 0.21292(11) 0.69862(11)
N12_5 N 0.45407(11) 0.25004(12) 0.69754(11)
O5_9 O 0.32739(15) 0.11019(16) 0.52418(14)
O6_9 O 0.29154(12) 0.16323(13) 0.52348(12)
Pd3_5 Pd 0.52344(2) 0.20340(2) 0.72536(2)
C61_9 C 0.50758(17) 0.10833(14) 0.28448(19)
H43_9 H 0.493434 0.094581 0.304781
C62_9 C 0.52964(19) 0.14230(18) 0.29601(19)
H44_9 H 0.533197 0.149513 0.323151
C63_9 C 0.54584(19) 0.16449(16) 0.26487(18)
H45_9 H 0.559127 0.188886 0.270306
C64_9 C 0.54250(18) 0.15074(17) 0.2252(2)
H46_9 H 0.555165 0.165234 0.204451
C65_9 C 0.52152(17) 0.11713(15) 0.21602(16)
C66_9 C 0.52240(17) 0.09776(15) 0.17691(16)
C67_9 C 0.53993(17) 0.11286(15) 0.14207(18)
H47_9 H 0.551887 0.138511 0.142423
C68_9 C 0.54001(16) 0.09219(15) 0.10932(19)
H48_9 H 0.552166 0.103196 0.086251
C69_9 C 0.52312(17) 0.05497(16) 0.10690(16)
H49_9 H 0.524900 0.039687 0.083142
C70_9 C 0.50296(14) 0.04004(14) 0.14086(14)
H50_9 H 0.489724 0.015061 0.139526
C71_9 C 0.42021(13) 0.06138(15) 0.29708(16)
H51_9 H 0.413458 0.087951 0.290043
C72_9 C 0.40314(15) 0.03882(18) 0.33002(13)
C73_9 C 0.41925(12) 0.00225(16) 0.32652(13)
C74_9 C 0.37036(19) 0.0565(2) 0.35550(15)
C75_9 C 0.35162(18) 0.0338(2) 0.38129(19)
H53_9 H 0.356062 0.005869 0.380846
C76_9 C 0.32360(18) 0.0508(2) 0.41115(19)
H54_9 H 0.313540 0.035583 0.432813
C77_9 C 0.31318(16) 0.0904(3) 0.40514(18)
C78_9 C 0.33110(18) 0.1130(2) 0.3761(2)
H55_9 H 0.324708 0.140432 0.373135
C79_9 C 0.35914(17) 0.0947(2) 0.3508(2)
H56_9 H 0.370484 0.109820 0.329720
C80_9 C 0.28302(17) 0.10762(18) 0.43331(18)
N13_9 N 0.50494(12) 0.09404(12) 0.24785(12)
N14_9 N 0.50247(12) 0.06177(11) 0.17612(12)
N15_9 N 0.44862(11) 0.03708(11) 0.27725(10)
O7_9 O 0.27418(14) 0.13981(16) 0.42261(15)
O8_9 O 0.27348(12) 0.08677(13) 0.45846(12)
Pd4_5 Pd 0.47536(2) 0.04660(2) 0.22656(2)
N17_5 N 0.54593(11) 0.24996(12) 0.69754(11)
N18_5 N 0.44754(11) 0.00004(12) 0.20407(11)
N20_5 N 0.05246(11) 0.00004(12) 0.79593(11)
Pd5_5 Pd 0.47656(2) 0.29660(2) 0.72536(2)
Pd7_5 Pd 0.02344(2) 0.29660(2) 0.27464(2)
H24_9 H 0.087811 0.980366 0.656972
N8_5 N 0.05246(11) 0.99996(12) 0.70407(11)
H52_9 H 0.412189 0.980366 0.343028
N16_5 N 0.44754(11) 0.99996(12) 0.29593(11)
Pd6_5 Pd 0.47536(2) 0.95340(2) 0.27344(2)
Pd8_5 Pd 0.02464(2) 0.95340(2) 0.72656(2)
C4_9 C 0.9752(2) 0.09926(17) 0.20750(18)
H4_9 H 0.954451 0.084766 0.194835
C5_9 C 0.96602(16) 0.13287(15) 0.22848(17)
C6_9 C 0.92691(16) 0.15224(15) 0.22760(17)
C7_9 C 0.89207(18) 0.13714(15) 0.21007(17)
H5_9 H 0.892423 0.111489 0.198113
C8_9 C 0.85932(19) 0.15781(15) 0.20999(16)
H6_9 H 0.836251 0.146804 0.197834
C9_9 C 0.85690(16) 0.19503(16) 0.22688(17)
H7_9 H 0.833142 0.210313 0.225100
C10_9 C 0.89086(14) 0.20996(14) 0.24704(14)
H8_9 H 0.889526 0.234939 0.260276
N1_9 N 0.99785(12) 0.15596(12) 0.24506(12)
N2_9 N 0.92612(12) 0.18823(11) 0.24753(12)
Pd1_5 Pd 0.97656(2) 0.20340(2) 0.27464(2)
C21_9 C 0.99242(17) 0.10833(14) 0.71552(19)
C22_9 C 0.97036(19) 0.14230(18) 0.70399(19)
H16_9 H 0.966803 0.149513 0.676849
C23_9 C 0.95416(19) 0.16449(16) 0.73513(18)
H17_9 H 0.940873 0.188886 0.729694
C24_9 C 0.95750(18) 0.15074(17) 0.7748(2)
H18_9 H 0.944835 0.165234 0.795549
C25_9 C 0.97848(17) 0.11713(15) 0.78398(16)
C26_9 C 0.97760(17) 0.09776(15) 0.82309(16)
C27_9 C 0.96007(17) 0.11286(15) 0.85793(18)
H19_9 H 0.948113 0.138511 0.857577
C28_9 C 0.95999(16) 0.09219(15) 0.89068(19)
H20_9 H 0.947834 0.103196 0.913749
C29_9 C 0.97688(17) 0.05497(16) 0.89310(16)
H21_9 H 0.975100 0.039687 0.916858
C30_9 C 0.99704(14) 0.04004(14) 0.85914(14)
N5_9 N 0.99506(12) 0.09404(12) 0.75215(12)
N6_9 N 0.99753(12) 0.06177(11) 0.82388(12)
N19_5 N 0.95407(11) 0.24996(12) 0.30246(11)
C4_10 C 0.0248(2) 0.59926(17) 0.29250(18)
H4_10 H 0.045549 0.584766 0.305165
C5_10 C 0.03398(16) 0.63287(15) 0.27152(17)
C6_10 C 0.07309(16) 0.65224(15) 0.27240(17)
C7_10 C 0.10793(18) 0.63714(15) 0.28993(17)
H5_10 H 0.107577 0.611489 0.301887
C8_10 C 0.14068(19) 0.65781(15) 0.29001(16)
H6_10 H 0.163749 0.646804 0.302166
C9_10 C 0.14310(16) 0.69503(16) 0.27312(17)
H7_10 H 0.166858 0.710313 0.274900
C10_10 C 0.10914(14) 0.70996(14) 0.25296(14)
H8_10 H 0.110474 0.734939 0.239724
N1_10 N 0.00215(12) 0.65596(12) 0.25494(12)
N2_10 N 0.07388(12) 0.68823(11) 0.25247(12)
Pd1_6 Pd 0.02344(2) 0.70340(2) 0.22536(2)
N19_6 N 0.04593(11) 0.74996(12) 0.19754(11)
C1_10 C 0.96552(19) 0.64167(14) 0.25758(17)
H1_10 H 0.945219 0.655419 0.243434
C2_10 C 0.95399(19) 0.60770(18) 0.27964(19)
H2_10 H 0.926849 0.600487 0.283197
C3_10 C 0.98513(18) 0.58551(16) 0.29584(19)
H3_10 H 0.979694 0.561114 0.309127
C11_10 C 0.95292(16) 0.68862(15) 0.17021(13)
H9_10 H 0.959957 0.662049 0.163458
C12_10 C 0.91998(13) 0.71118(18) 0.15314(15)
C13_10 C 0.92348(13) 0.74775(16) 0.16925(12)
H10_10 H 0.906972 0.769634 0.162189
C14_10 C 0.89450(15) 0.6935(2) 0.12036(19)
C15_10 C 0.86871(19) 0.7162(2) 0.10162(18)
H11_10 H 0.869154 0.744131 0.106062
C16_10 C 0.83885(19) 0.6992(2) 0.07360(18)
H12_10 H 0.817187 0.714417 0.063540
C17_10 C 0.84486(18) 0.6596(3) 0.06318(16)
C18_10 C 0.8739(2) 0.6370(2) 0.08110(18)
H13_10 H 0.876865 0.609568 0.074708
C19_10 C 0.8992(2) 0.6553(2) 0.10914(17)
H14_10 H 0.920280 0.640180 0.120484
C20_10 C 0.81669(18) 0.64238(18) 0.03302(17)
Cu1_14 Cu 0.750000 0.625000 0.000000
N3_10 N 0.97275(10) 0.71292(11) 0.19862(11)
N4_6 N 0.95407(11) 0.75004(12) 0.19754(11)
O1_10 O 0.82739(15) 0.61019(16) 0.02418(14)
O2_10 O 0.79154(12) 0.66323(13) 0.02348(12)
C61_10 C 0.49242(17) 0.60833(14) 0.21552(19)
H43_10 H 0.506566 0.594581 0.195219
C62_10 C 0.47036(19) 0.64230(18) 0.20399(19)
H44_10 H 0.466803 0.649513 0.176849
C63_10 C 0.45416(19) 0.66449(16) 0.23513(18)
H45_10 H 0.440873 0.688886 0.229694
C64_10 C 0.45750(18) 0.65074(17) 0.2748(2)
H46_10 H 0.444835 0.665234 0.295549
C65_10 C 0.47848(17) 0.61713(15) 0.28398(16)
C66_10 C 0.47760(17) 0.59776(15) 0.32309(16)
C67_10 C 0.46007(17) 0.61286(15) 0.35793(18)
H47_10 H 0.448113 0.638511 0.357577
C68_10 C 0.45999(16) 0.59219(15) 0.39068(19)
H48_10 H 0.447834 0.603196 0.413749
C69_10 C 0.47688(17) 0.55497(16) 0.39310(16)
H49_10 H 0.475100 0.539687 0.416858
C70_10 C 0.49704(14) 0.54004(14) 0.35914(14)
H50_10 H 0.510276 0.515061 0.360474
C71_10 C 0.57979(13) 0.56138(15) 0.20292(16)
H51_10 H 0.586542 0.587951 0.209957
C72_10 C 0.59686(15) 0.53882(18) 0.16998(13)
C73_10 C 0.58075(12) 0.50225(16) 0.17348(13)
H52_10 H 0.587811 0.480366 0.156972
C74_10 C 0.62964(19) 0.5565(2) 0.14450(15)
C75_10 C 0.64838(18) 0.5338(2) 0.11871(19)
H53_10 H 0.643938 0.505869 0.119154
C76_10 C 0.67640(18) 0.5508(2) 0.08885(19)
H54_10 H 0.686460 0.535583 0.067187
C77_10 C 0.68682(16) 0.5904(3) 0.09486(18)
C78_10 C 0.66890(18) 0.6130(2) 0.1239(2)
H55_10 H 0.675292 0.640432 0.126865
C79_10 C 0.64086(17) 0.5947(2) 0.1492(2)
H56_10 H 0.629516 0.609820 0.170280
C80_10 C 0.71698(17) 0.60762(18) 0.06669(18)
N13_10 N 0.49506(12) 0.59404(12) 0.25215(12)
N14_10 N 0.49753(12) 0.56177(11) 0.32388(12)
N15_10 N 0.55138(11) 0.53708(11) 0.22275(10)
N16_6 N 0.55246(11) 0.49996(12) 0.20407(11)
O7_10 O 0.72582(14) 0.63981(16) 0.07739(15)
O8_10 O 0.72652(12) 0.58677(13) 0.04154(12)
Pd4_6 Pd 0.52464(2) 0.54660(2) 0.27344(2)
N18_6 N 0.55246(11) 0.50004(12) 0.29593(11)
Pd6_6 Pd 0.52464(2) 0.45340(2) 0.22656(2)
Pd7_6 Pd 0.97656(2) 0.79660(2) 0.22536(2)
Cu1_15 Cu 0.750000 0.625000 1.000000
H15_10 H 0.993434 0.594581 0.804781
H22_10 H 0.989724 0.515061 0.639526
C31_10 C 0.92021(13) 0.56138(15) 0.79708(16)
H23_10 H 0.913458 0.587951 0.790043
C32_10 C 0.90314(15) 0.53882(18) 0.83002(13)
C33_10 C 0.91925(12) 0.50225(16) 0.82652(13)
H24_10 H 0.912189 0.480366 0.843028
C34_10 C 0.87036(19) 0.5565(2) 0.85550(15)
C35_10 C 0.85162(18) 0.5338(2) 0.88129(19)
H25_10 H 0.856062 0.505869 0.880846
C36_10 C 0.82360(18) 0.5508(2) 0.91115(19)
H26_10 H 0.813540 0.535583 0.932813
C37_10 C 0.81318(16) 0.5904(3) 0.90514(18)
C38_10 C 0.83110(18) 0.6130(2) 0.8761(2)
H27_10 H 0.824708 0.640432 0.873135
C39_10 C 0.85914(17) 0.5947(2) 0.8508(2)
H28_10 H 0.870484 0.609820 0.829720
C40_10 C 0.78302(17) 0.60762(18) 0.93331(18)
N7_10 N 0.94862(11) 0.53708(11) 0.77725(10)
N8_6 N 0.94754(11) 0.49996(12) 0.79593(11)
O3_10 O 0.77418(14) 0.63981(16) 0.92261(15)
O4_10 O 0.77348(12) 0.58677(13) 0.95846(12)
Pd2_6 Pd 0.97536(2) 0.54660(2) 0.72656(2)
C41_10 C 0.53448(19) 0.64167(14) 0.74242(17)
H29_10 H 0.554781 0.655419 0.756566
C42_10 C 0.54601(19) 0.60770(18) 0.72036(19)
H30_10 H 0.573151 0.600487 0.716803
C43_10 C 0.51487(18) 0.58551(16) 0.70416(19)
H31_10 H 0.520306 0.561114 0.690873
C44_10 C 0.4752(2) 0.59926(17) 0.70750(18)
H32_10 H 0.454451 0.584766 0.694835
C45_10 C 0.46602(16) 0.63287(15) 0.72848(17)
C46_10 C 0.42691(16) 0.65224(15) 0.72760(17)
C47_10 C 0.39207(18) 0.63714(15) 0.71007(17)
H33_10 H 0.392423 0.611489 0.698113
C48_10 C 0.35932(19) 0.65781(15) 0.70999(16)
H34_10 H 0.336251 0.646804 0.697834
C49_10 C 0.35690(16) 0.69503(16) 0.72688(17)
H35_10 H 0.333142 0.710313 0.725100
C50_10 C 0.39086(14) 0.70996(14) 0.74704(14)
H36_10 H 0.389526 0.734939 0.760276
C51_10 C 0.54708(16) 0.68862(15) 0.82979(13)
H37_10 H 0.540043 0.662049 0.836542
C52_10 C 0.58002(13) 0.71118(18) 0.84686(15)
C53_10 C 0.57652(13) 0.74775(16) 0.83075(12)
H38_10 H 0.593028 0.769634 0.837811
C54_10 C 0.60550(15) 0.6935(2) 0.87964(19)
C55_10 C 0.63129(19) 0.7162(2) 0.89838(18)
H39_10 H 0.630846 0.744131 0.893938
C56_10 C 0.66115(19) 0.6992(2) 0.92640(18)
H40_10 H 0.682813 0.714417 0.936460
C57_10 C 0.65514(18) 0.6596(3) 0.93682(16)
C58_10 C 0.6261(2) 0.6370(2) 0.91890(18)
H41_10 H 0.623135 0.609568 0.925292
C59_10 C 0.6008(2) 0.6553(2) 0.89086(17)
H42_10 H 0.579720 0.640180 0.879516
C60_10 C 0.68331(18) 0.64238(18) 0.96698(17)
N9_10 N 0.49785(12) 0.65596(12) 0.74506(12)
N10_10 N 0.42612(12) 0.68823(11) 0.74753(12)
N11_10 N 0.52725(10) 0.71292(11) 0.80138(11)
N12_6 N 0.54593(11) 0.75004(12) 0.80246(11)
O5_10 O 0.67261(15) 0.61019(16) 0.97582(14)
O6_10 O 0.70846(12) 0.66323(13) 0.97652(12)
Pd3_6 Pd 0.47656(2) 0.70340(2) 0.77464(2)
N17_6 N 0.45407(11) 0.74996(12) 0.80246(11)
N20_6 N 0.94754(11) 0.50004(12) 0.70407(11)
Pd5_6 Pd 0.52344(2) 0.79660(2) 0.77464(2)
Pd8_6 Pd 0.97536(2) 0.45340(2) 0.77344(2)
C44_11 C 0.0248(2) 0.40074(17) 0.20750(18)
H32_11 H 0.045549 0.415234 0.194835
C45_11 C 0.03398(16) 0.36713(15) 0.22848(17)
C46_11 C 0.07309(16) 0.34776(15) 0.22760(17)
C47_11 C 0.10793(18) 0.36286(15) 0.21007(17)
H33_11 H 0.107577 0.388511 0.198113
C48_11 C 0.14068(19) 0.34219(15) 0.20999(16)
H34_11 H 0.163749 0.353196 0.197834
C49_11 C 0.14310(16) 0.30497(16) 0.22688(17)
H35_11 H 0.166858 0.289687 0.225100
C50_11 C 0.10914(14) 0.29004(14) 0.24704(14)
H36_11 H 0.110474 0.265061 0.260276
N9_11 N 0.00215(12) 0.34404(12) 0.24506(12)
N10_11 N 0.07388(12) 0.31177(11) 0.24753(12)
C61_11 C 0.00758(17) 0.39167(14) 0.71552(19)
C62_11 C 0.02964(19) 0.35770(18) 0.70399(19)
H44_11 H 0.033197 0.350487 0.676849
C63_11 C 0.04584(19) 0.33551(16) 0.73513(18)
H45_11 H 0.059127 0.311114 0.729694
C64_11 C 0.04250(18) 0.34926(17) 0.7748(2)
H46_11 H 0.055165 0.334766 0.795549
C65_11 C 0.02152(17) 0.38287(15) 0.78398(16)
C66_11 C 0.02240(17) 0.40224(15) 0.82309(16)
C67_11 C 0.03993(17) 0.38714(15) 0.85793(18)
H47_11 H 0.051887 0.361489 0.857577
C68_11 C 0.04001(16) 0.40781(15) 0.89068(19)
H48_11 H 0.052166 0.396804 0.913749
C69_11 C 0.02312(17) 0.44503(16) 0.89310(16)
H49_11 H 0.024900 0.460313 0.916858
C70_11 C 0.00296(14) 0.45996(14) 0.85914(14)
N13_11 N 0.00494(12) 0.40596(12) 0.75215(12)
N14_11 N 0.00247(12) 0.43823(11) 0.82388(12)
C1_11 C 0.53448(19) 0.35833(14) 0.75758(17)
H1_11 H 0.554781 0.344581 0.743434
C2_11 C 0.54601(19) 0.39230(18) 0.77964(19)
H2_11 H 0.573151 0.399513 0.783197
C3_11 C 0.51487(18) 0.41449(16) 0.79584(19)
H3_11 H 0.520306 0.438886 0.809127
C4_11 C 0.4752(2) 0.40074(17) 0.79250(18)
H4_11 H 0.454451 0.415234 0.805165
C5_11 C 0.46602(16) 0.36713(15) 0.77152(17)
C6_11 C 0.42691(16) 0.34776(15) 0.77240(17)
C7_11 C 0.39207(18) 0.36286(15) 0.78993(17)
H5_11 H 0.392423 0.388511 0.801887
C8_11 C 0.35932(19) 0.34219(15) 0.79001(16)
H6_11 H 0.336251 0.353196 0.802166
C9_11 C 0.35690(16) 0.30497(16) 0.77312(17)
H7_11 H 0.333142 0.289687 0.774900
C10_11 C 0.39086(14) 0.29004(14) 0.75296(14)
H8_11 H 0.389526 0.265061 0.739724
C11_11 C 0.54708(16) 0.31138(15) 0.67021(13)
H9_11 H 0.540043 0.337951 0.663458
C12_11 C 0.58002(13) 0.28882(18) 0.65314(15)
C13_11 C 0.57652(13) 0.25225(16) 0.66925(12)
H10_11 H 0.593028 0.230366 0.662189
C14_11 C 0.60550(15) 0.3065(2) 0.62036(19)
C15_11 C 0.63129(19) 0.2838(2) 0.60162(18)
H11_11 H 0.630846 0.255869 0.606062
C16_11 C 0.66115(19) 0.3008(2) 0.57360(18)
H12_11 H 0.682813 0.285583 0.563540
C17_11 C 0.65514(18) 0.3404(3) 0.56318(16)
C18_11 C 0.6261(2) 0.3630(2) 0.58110(18)
H13_11 H 0.623135 0.390432 0.574708
C19_11 C 0.6008(2) 0.3447(2) 0.60914(17)
H14_11 H 0.579720 0.359820 0.620484
C20_11 C 0.68331(18) 0.35762(18) 0.53302(17)
Cu1_16 Cu 0.750000 0.375000 0.500000
N1_11 N 0.49785(12) 0.34404(12) 0.75494(12)
N2_11 N 0.42612(12) 0.31177(11) 0.75247(12)
N3_11 N 0.52725(10) 0.28708(11) 0.69862(11)
O1_11 O 0.67261(15) 0.38981(16) 0.52418(14)
O2_11 O 0.70846(12) 0.33677(13) 0.52348(12)
C21_10 C 0.49242(17) 0.39167(14) 0.28448(19)
H15_11 H 0.506566 0.405419 0.304781
C22_10 C 0.47036(19) 0.35770(18) 0.29601(19)
H16_10 H 0.466803 0.350487 0.323151
C23_10 C 0.45416(19) 0.33551(16) 0.26487(18)
H17_10 H 0.440873 0.311114 0.270306
C24_10 C 0.45750(18) 0.34926(17) 0.2252(2)
H18_10 H 0.444835 0.334766 0.204451
C25_10 C 0.47848(17) 0.38287(15) 0.21602(16)
C26_10 C 0.47760(17) 0.40224(15) 0.17691(16)
C27_10 C 0.46007(17) 0.38714(15) 0.14207(18)
H19_10 H 0.448113 0.361489 0.142423
C28_10 C 0.45999(16) 0.40781(15) 0.10932(19)
H20_10 H 0.447834 0.396804 0.086251
C29_10 C 0.47688(17) 0.44503(16) 0.10690(16)
H21_10 H 0.475100 0.460313 0.083142
C30_10 C 0.49704(14) 0.45996(14) 0.14086(14)
H22_11 H 0.510276 0.484939 0.139526
C31_11 C 0.57979(13) 0.43862(15) 0.29708(16)
H23_11 H 0.586542 0.412049 0.290043
C32_11 C 0.59686(15) 0.46118(18) 0.33002(13)
C33_11 C 0.58075(12) 0.49775(16) 0.32652(13)
H24_11 H 0.587811 0.519634 0.343028
C34_11 C 0.62964(19) 0.4435(2) 0.35550(15)
C35_11 C 0.64838(18) 0.4662(2) 0.38129(19)
H25_11 H 0.643938 0.494131 0.380846
C36_11 C 0.67640(18) 0.4492(2) 0.41115(19)
H26_11 H 0.686460 0.464417 0.432813
C37_11 C 0.68682(16) 0.4096(3) 0.40514(18)
C38_11 C 0.66890(18) 0.3870(2) 0.3761(2)
H27_11 H 0.675292 0.359568 0.373135
C39_11 C 0.64086(17) 0.4053(2) 0.3508(2)
H28_11 H 0.629516 0.390180 0.329720
C40_11 C 0.71698(17) 0.39238(18) 0.43331(18)
N5_10 N 0.49506(12) 0.40596(12) 0.24785(12)
N6_10 N 0.49753(12) 0.43823(11) 0.17612(12)
N7_11 N 0.55138(11) 0.46292(11) 0.27725(10)
O3_11 O 0.72582(14) 0.36019(16) 0.42261(15)
O4_11 O 0.72652(12) 0.41323(13) 0.45846(12)
C41_11 C 0.96552(19) 0.35833(14) 0.24242(17)
H29_11 H 0.945219 0.344581 0.256566
C42_11 C 0.95399(19) 0.39230(18) 0.22036(19)
H30_11 H 0.926849 0.399513 0.216803
C43_11 C 0.98513(18) 0.41449(16) 0.20416(19)
H31_11 H 0.979694 0.438886 0.190873
C51_11 C 0.95292(16) 0.31138(15) 0.32979(13)
H37_11 H 0.959957 0.337951 0.336542
C52_11 C 0.91998(13) 0.28882(18) 0.34686(15)
C53_11 C 0.92348(13) 0.25225(16) 0.33075(12)
H38_11 H 0.906972 0.230366 0.337811
C54_11 C 0.89450(15) 0.3065(2) 0.37964(19)
C55_11 C 0.86871(19) 0.2838(2) 0.39838(18)
H39_11 H 0.869154 0.255869 0.393938
C56_11 C 0.83885(19) 0.3008(2) 0.42640(18)
H40_11 H 0.817187 0.285583 0.436460
C57_11 C 0.84486(18) 0.3404(3) 0.43682(16)
C58_11 C 0.8739(2) 0.3630(2) 0.41890(18)
H41_11 H 0.876865 0.390432 0.425292
C59_11 C 0.8992(2) 0.3447(2) 0.39086(17)
H42_11 H 0.920280 0.359820 0.379516
C60_11 C 0.81669(18) 0.35762(18) 0.46698(17)
N11_11 N 0.97275(10) 0.28708(11) 0.30138(11)
O5_11 O 0.82739(15) 0.38981(16) 0.47582(14)
O6_11 O 0.79154(12) 0.33677(13) 0.47652(12)
H43_11 H 0.993434 0.405419 0.695219
H50_11 H 0.989724 0.484939 0.860474
C71_11 C 0.92021(13) 0.43862(15) 0.70292(16)
H51_11 H 0.913458 0.412049 0.709957
C72_11 C 0.90314(15) 0.46118(18) 0.66998(13)
C73_11 C 0.91925(12) 0.49775(16) 0.67348(13)
H52_11 H 0.912189 0.519634 0.656972
C74_11 C 0.87036(19) 0.4435(2) 0.64450(15)
C75_11 C 0.85162(18) 0.4662(2) 0.61871(19)
H53_11 H 0.856062 0.494131 0.619154
C76_11 C 0.82360(18) 0.4492(2) 0.58885(19)
H54_11 H 0.813540 0.464417 0.567187
C77_11 C 0.81318(16) 0.4096(3) 0.59486(18)
C78_11 C 0.83110(18) 0.3870(2) 0.6239(2)
H55_11 H 0.824708 0.359568 0.626865
C79_11 C 0.85914(17) 0.4053(2) 0.6492(2)
H56_11 H 0.870484 0.390180 0.670280
C80_11 C 0.78302(17) 0.39238(18) 0.56669(18)
N15_11 N 0.94862(11) 0.46292(11) 0.72275(10)
O7_11 O 0.77418(14) 0.36019(16) 0.57739(15)
O8_11 O 0.77348(12) 0.41323(13) 0.54154(12)
H24_12 H 0.412189 0.019634 0.156972
H52_12 H 0.087811 0.019634 0.843028
Cu1_17 Cu 0.250000 0.875000 0.000000
C21_11 C 0.50758(17) 0.89167(14) 0.21552(19)
H15_12 H 0.493434 0.905419 0.195219
C22_11 C 0.52964(19) 0.85770(18) 0.20399(19)
H16_11 H 0.533197 0.850487 0.176849
C23_11 C 0.54584(19) 0.83551(16) 0.23513(18)
H17_11 H 0.559127 0.811114 0.229694
C24_11 C 0.54250(18) 0.84926(17) 0.2748(2)
H18_11 H 0.555165 0.834766 0.295549
C25_11 C 0.52152(17) 0.88287(15) 0.28398(16)
C26_11 C 0.52240(17) 0.90224(15) 0.32309(16)
C27_11 C 0.53993(17) 0.88714(15) 0.35793(18)
H19_11 H 0.551887 0.861489 0.357577
C28_11 C 0.54001(16) 0.90781(15) 0.39068(19)
H20_11 H 0.552166 0.896804 0.413749
C29_11 C 0.52312(17) 0.94503(16) 0.39310(16)
H21_11 H 0.524900 0.960313 0.416858
C30_11 C 0.50296(14) 0.95996(14) 0.35914(14)
H22_12 H 0.489724 0.984939 0.360474
C31_12 C 0.42021(13) 0.93862(15) 0.20292(16)
H23_12 H 0.413458 0.912049 0.209957
C32_12 C 0.40314(15) 0.96118(18) 0.16998(13)
C33_12 C 0.41925(12) 0.99775(16) 0.17348(13)
C34_12 C 0.37036(19) 0.9435(2) 0.14450(15)
C35_12 C 0.35162(18) 0.9662(2) 0.11871(19)
H25_12 H 0.356062 0.994131 0.119154
C36_12 C 0.32360(18) 0.9492(2) 0.08885(19)
H26_12 H 0.313540 0.964417 0.067187
C37_12 C 0.31318(16) 0.9096(3) 0.09486(18)
C38_12 C 0.33110(18) 0.8870(2) 0.1239(2)
H27_12 H 0.324708 0.859568 0.126865
C39_12 C 0.35914(17) 0.9053(2) 0.1492(2)
H28_12 H 0.370484 0.890180 0.170280
C40_12 C 0.28302(17) 0.89238(18) 0.06669(18)
N5_11 N 0.50494(12) 0.90596(12) 0.25215(12)
N6_11 N 0.50247(12) 0.93823(11) 0.32388(12)
N7_12 N 0.44862(11) 0.96292(11) 0.22275(10)
O3_12 O 0.27418(14) 0.86019(16) 0.07739(15)
O4_12 O 0.27348(12) 0.91323(13) 0.04154(12)
C41_12 C 0.03448(19) 0.85833(14) 0.25758(17)
H29_12 H 0.054781 0.844581 0.243434
C42_12 C 0.04601(19) 0.89230(18) 0.27964(19)
H30_12 H 0.073151 0.899513 0.283197
C43_12 C 0.01487(18) 0.91449(16) 0.29584(19)
H31_12 H 0.020306 0.938886 0.309127
C51_12 C 0.04708(16) 0.81138(15) 0.17021(13)
H37_12 H 0.040043 0.837951 0.163458
C52_12 C 0.08002(13) 0.78882(18) 0.15314(15)
C53_12 C 0.07652(13) 0.75225(16) 0.16925(12)
H38_12 H 0.093028 0.730366 0.162189
C54_12 C 0.10550(15) 0.8065(2) 0.12036(19)
C55_12 C 0.13129(19) 0.7838(2) 0.10162(18)
H39_12 H 0.130846 0.755869 0.106062
C56_12 C 0.16115(19) 0.8008(2) 0.07360(18)
H40_12 H 0.182813 0.785583 0.063540
C57_12 C 0.15514(18) 0.8404(3) 0.06318(16)
C58_12 C 0.1261(2) 0.8630(2) 0.08110(18)
H41_12 H 0.123135 0.890432 0.074708
C59_12 C 0.1008(2) 0.8447(2) 0.10914(17)
H42_12 H 0.079720 0.859820 0.120484
C60_12 C 0.18331(18) 0.85762(18) 0.03302(17)
N11_12 N 0.02725(10) 0.78708(11) 0.19862(11)
O5_12 O 0.17261(15) 0.88981(16) 0.02418(14)
O6_12 O 0.20846(12) 0.83677(13) 0.02348(12)
C1_12 C 0.46552(19) 0.85833(14) 0.74242(17)
H1_12 H 0.445219 0.844581 0.756566
C2_12 C 0.45399(19) 0.89230(18) 0.72036(19)
H2_12 H 0.426849 0.899513 0.716803
C3_12 C 0.48513(18) 0.91449(16) 0.70416(19)
H3_12 H 0.479694 0.938886 0.690873
C4_12 C 0.5248(2) 0.90074(17) 0.70750(18)
H4_12 H 0.545549 0.915234 0.694835
C5_12 C 0.53398(16) 0.86713(15) 0.72848(17)
C6_12 C 0.57309(16) 0.84776(15) 0.72760(17)
C7_12 C 0.60793(18) 0.86286(15) 0.71007(17)
H5_12 H 0.607577 0.888511 0.698113
C8_12 C 0.64068(19) 0.84219(15) 0.70999(16)
H6_12 H 0.663749 0.853196 0.697834
C9_12 C 0.64310(16) 0.80497(16) 0.72688(17)
H7_12 H 0.666858 0.789687 0.725100
C10_12 C 0.60914(14) 0.79004(14) 0.74704(14)
H8_12 H 0.610474 0.765061 0.760276
C11_12 C 0.45292(16) 0.81138(15) 0.82979(13)
H9_12 H 0.459957 0.837951 0.836542
C12_12 C 0.41998(13) 0.78882(18) 0.84686(15)
C13_12 C 0.42348(13) 0.75225(16) 0.83075(12)
H10_12 H 0.406972 0.730366 0.837811
C14_12 C 0.39450(15) 0.8065(2) 0.87964(19)
C15_12 C 0.36871(19) 0.7838(2) 0.89838(18)
H11_12 H 0.369154 0.755869 0.893938
C16_12 C 0.33885(19) 0.8008(2) 0.92640(18)
H12_12 H 0.317187 0.785583 0.936460
C17_12 C 0.34486(18) 0.8404(3) 0.93682(16)
C18_12 C 0.3739(2) 0.8630(2) 0.91890(18)
H13_12 H 0.376865 0.890432 0.925292
C19_12 C 0.3992(2) 0.8447(2) 0.89086(17)
H14_12 H 0.420280 0.859820 0.879516
C20_12 C 0.31669(18) 0.85762(18) 0.96698(17)
Cu1_18 Cu 0.250000 0.875000 1.000000
N1_12 N 0.50215(12) 0.84404(12) 0.74506(12)
N2_12 N 0.57388(12) 0.81177(11) 0.74753(12)
N3_12 N 0.47275(10) 0.78708(11) 0.80138(11)
O1_12 O 0.32739(15) 0.88981(16) 0.97582(14)
O2_12 O 0.29154(12) 0.83677(13) 0.97652(12)
H43_12 H 0.006566 0.905419 0.804781
H50_12 H 0.010276 0.984939 0.639526
C71_12 C 0.07979(13) 0.93862(15) 0.79708(16)
H51_12 H 0.086542 0.912049 0.790043
C72_12 C 0.09686(15) 0.96118(18) 0.83002(13)
C73_12 C 0.08075(12) 0.99775(16) 0.82652(13)
C74_12 C 0.12964(19) 0.9435(2) 0.85550(15)
C75_12 C 0.14838(18) 0.9662(2) 0.88129(19)
H53_12 H 0.143938 0.994131 0.880846
C76_12 C 0.17640(18) 0.9492(2) 0.91115(19)
H54_12 H 0.186460 0.964417 0.932813
C77_12 C 0.18682(16) 0.9096(3) 0.90514(18)
C78_12 C 0.16890(18) 0.8870(2) 0.8761(2)
H55_12 H 0.175292 0.859568 0.873135
C79_12 C 0.14086(17) 0.9053(2) 0.8508(2)
H56_12 H 0.129516 0.890180 0.829720
C80_12 C 0.21698(17) 0.89238(18) 0.93331(18)
N15_12 N 0.05138(11) 0.96292(11) 0.77725(10)
O7_12 O 0.22582(14) 0.86019(16) 0.92261(15)
O8_12 O 0.22652(12) 0.91323(13) 0.95846(12)
C44_12 C 0.9752(2) 0.90074(17) 0.29250(18)
H32_12 H 0.954451 0.915234 0.305165
C45_12 C 0.96602(16) 0.86713(15) 0.27152(17)
C46_12 C 0.92691(16) 0.84776(15) 0.27240(17)
C47_12 C 0.89207(18) 0.86286(15) 0.28993(17)
H33_12 H 0.892423 0.888511 0.301887
C48_12 C 0.85932(19) 0.84219(15) 0.29001(16)
H34_12 H 0.836251 0.853196 0.302166
C49_12 C 0.85690(16) 0.80497(16) 0.27312(17)
H35_12 H 0.833142 0.789687 0.274900
C50_12 C 0.89086(14) 0.79004(14) 0.25296(14)
H36_12 H 0.889526 0.765061 0.239724
N9_12 N 0.99785(12) 0.84404(12) 0.25494(12)
N10_12 N 0.92612(12) 0.81177(11) 0.25247(12)
C21_12 C 0.00758(17) 0.60833(14) 0.78448(19)
C22_12 C 0.02964(19) 0.64230(18) 0.79601(19)
H16_12 H 0.033197 0.649513 0.823151
C23_12 C 0.04584(19) 0.66449(16) 0.76487(18)
H17_12 H 0.059127 0.688886 0.770306
C24_12 C 0.04250(18) 0.65074(17) 0.7252(2)
H18_12 H 0.055165 0.665234 0.704451
C25_12 C 0.02152(17) 0.61713(15) 0.71602(16)
C26_12 C 0.02240(17) 0.59776(15) 0.67691(16)
C27_12 C 0.03993(17) 0.61286(15) 0.64207(18)
H19_12 H 0.051887 0.638511 0.642423
C28_12 C 0.04001(16) 0.59219(15) 0.60932(19)
H20_12 H 0.052166 0.603196 0.586251
C29_12 C 0.02312(17) 0.55497(16) 0.60690(16)
H21_12 H 0.024900 0.539687 0.583142
C30_12 C 0.00296(14) 0.54004(14) 0.64086(14)
N5_12 N 0.00494(12) 0.59404(12) 0.74785(12)
N6_12 N 0.00247(12) 0.56177(11) 0.67612(12)
C61_12 C 0.99242(17) 0.89167(14) 0.78448(19)
C62_12 C 0.97036(19) 0.85770(18) 0.79601(19)
H44_12 H 0.966803 0.850487 0.823151
C63_12 C 0.95416(19) 0.83551(16) 0.76487(18)
H45_12 H 0.940873 0.811114 0.770306
C64_12 C 0.95750(18) 0.84926(17) 0.7252(2)
H46_12 H 0.944835 0.834766 0.704451
C65_12 C 0.97848(17) 0.88287(15) 0.71602(16)
C66_12 C 0.97760(17) 0.90224(15) 0.67691(16)
C67_12 C 0.96007(17) 0.88714(15) 0.64207(18)
H47_12 H 0.948113 0.861489 0.642423
C68_12 C 0.95999(16) 0.90781(15) 0.60932(19)
H48_12 H 0.947834 0.896804 0.586251
C69_12 C 0.97688(17) 0.94503(16) 0.60690(16)
H49_12 H 0.975100 0.960313 0.583142
C70_12 C 0.99704(14) 0.95996(14) 0.64086(14)
N13_12 N 0.99506(12) 0.90596(12) 0.74785(12)
N14_12 N 0.99753(12) 0.93823(11) 0.67612(12)
N21 N 0.1540(2) -0.000000 0.250000
O9 O 0.19234(17) -0.000000 0.250000
O10 O 0.13709(13) 0.01841(12) 0.27634(15)
N21_2 N 0.1540(2) 1.000000 0.250000
O9_2 O 0.19234(17) 1.000000 0.250000
O11 O 0.13709(13) 0.98159(12) 0.22366(15)
N21_3 N 0.3460(2) 0.000000 0.750000
O9_3 O 0.30766(17) 0.000000 0.750000
O11_2 O 0.36291(13) 0.01841(12) 0.72366(15)
N21_4 N 0.3460(2) 1.000000 0.750000
O9_4 O 0.30766(17) 1.000000 0.750000
O10_2 O 0.36291(13) 0.98159(12) 0.77634(15)
N21_5 N 0.8460(2) 0.500000 0.250000
O9_5 O 0.80766(17) 0.500000 0.250000
O10_3 O 0.86291(13) 0.51841(12) 0.22366(15)
O11_3 O 0.86291(13) 0.48159(12) 0.27634(15)
N21_6 N 0.6540(2) 0.500000 0.750000
O9_6 O 0.69234(17) 0.500000 0.750000
O10_4 O 0.63709(13) 0.48159(12) 0.72366(15)
O11_4 O 0.63709(13) 0.51841(12) 0.77634(15)
N21_7 N 0.250000 0.1540(2) -0.000000
O9_7 O 0.250000 0.19234(17) -0.000000
O10_5 O 0.27634(15) 0.13709(13) 0.01841(12)
N21_8 N 0.250000 0.1540(2) 1.000000
O9_8 O 0.250000 0.19234(17) 1.000000
O11_5 O 0.22366(15) 0.13709(13) 0.98159(12)
N21_9 N 0.750000 0.3460(2) 0.000000
O9_9 O 0.750000 0.30766(17) 0.000000
O11_6 O 0.72366(15) 0.36291(13) 0.01841(12)
N21_10 N 0.750000 0.3460(2) 1.000000
O9_10 O 0.750000 0.30766(17) 1.000000
O10_6 O 0.77634(15) 0.36291(13) 0.98159(12)
N21_11 N 0.250000 0.8460(2) 0.500000
O9_11 O 0.250000 0.80766(17) 0.500000
O10_7 O 0.22366(15) 0.86291(13) 0.51841(12)
O11_7 O 0.27634(15) 0.86291(13) 0.48159(12)
N21_12 N 0.750000 0.6540(2) 0.500000
O9_12 O 0.750000 0.69234(17) 0.500000
O10_8 O 0.72366(15) 0.63709(13) 0.48159(12)
O11_8 O 0.77634(15) 0.63709(13) 0.51841(12)
N21_13 N -0.000000 0.250000 0.1540(2)
O9_13 O -0.000000 0.250000 0.19234(17)
O10_9 O 0.01841(12) 0.27634(15) 0.13709(13)
N21_14 N 1.000000 0.250000 0.1540(2)
O9_14 O 1.000000 0.250000 0.19234(17)
O11_9 O 0.98159(12) 0.22366(15) 0.13709(13)
N21_15 N -0.000000 0.750000 0.3460(2)
O9_15 O 0.000000 0.750000 0.30766(17)
O11_10 O 0.01841(12) 0.72366(15) 0.36291(13)
N21_16 N 1.000000 0.750000 0.3460(2)
O9_16 O 1.000000 0.750000 0.30766(17)
O10_10 O 0.98159(12) 0.77634(15) 0.36291(13)
N21_17 N 0.500000 0.250000 0.8460(2)
O9_17 O 0.500000 0.250000 0.80766(17)
O10_11 O 0.51841(12) 0.22366(15) 0.86291(13)
O11_11 O 0.48159(12) 0.27634(15) 0.86291(13)
N21_18 N 0.500000 0.750000 0.6540(2)
O9_18 O 0.500000 0.750000 0.69234(17)
O10_12 O 0.48159(12) 0.72366(15) 0.63709(13)
O11_12 O 0.51841(12) 0.77634(15) 0.63709(13)
N21_19 N 0.250000 0.4040(2) 0.500000
O9_19 O 0.250000 0.44234(17) 0.500000
O10_13 O 0.26841(12) 0.38709(13) 0.52634(15)
O11_13 O 0.23159(12) 0.38709(13) 0.47366(15)
N21_20 N 0.250000 0.5960(2) 0.000000
O9_20 O 0.250000 0.55766(17) 0.000000
O10_14 O 0.23159(12) 0.61291(13) 0.02634(15)
N21_21 N 0.250000 0.5960(2) 1.000000
O9_21 O 0.250000 0.55766(17) 1.000000
O11_14 O 0.26841(12) 0.61291(13) 0.97366(15)
N21_22 N 0.750000 0.0960(2) 0.500000
O9_22 O 0.750000 0.05766(17) 0.500000
O10_15 O 0.76841(12) 0.11291(13) 0.47366(15)
O11_15 O 0.73159(12) 0.11291(13) 0.52634(15)
N21_23 N 0.750000 0.9040(2) 0.000000
O9_23 O 0.750000 0.94234(17) 0.000000
O11_16 O 0.76841(12) 0.88709(13) 0.02634(15)
N21_24 N 0.750000 0.9040(2) 1.000000
O9_24 O 0.750000 0.94234(17) 1.000000
O10_16 O 0.73159(12) 0.88709(13) 0.97366(15)
N21_25 N 0.4040(2) 0.500000 0.250000
O9_25 O 0.44234(17) 0.500000 0.250000
O10_17 O 0.38709(13) 0.52634(15) 0.26841(12)
O11_17 O 0.38709(13) 0.47366(15) 0.23159(12)
N21_26 N 0.5960(2) -0.000000 0.250000
O9_26 O 0.55766(17) -0.000000 0.250000
O10_18 O 0.61291(13) 0.02634(15) 0.23159(12)
N21_27 N 0.5960(2) 1.000000 0.250000
O9_27 O 0.55766(17) 1.000000 0.250000
O11_18 O 0.61291(13) 0.97366(15) 0.26841(12)
N21_28 N 0.0960(2) 0.500000 0.750000
O9_28 O 0.05766(17) 0.500000 0.750000
O10_19 O 0.11291(13) 0.47366(15) 0.76841(12)
O11_19 O 0.11291(13) 0.52634(15) 0.73159(12)
N21_29 N 0.9040(2) 0.000000 0.750000
O9_29 O 0.94234(17) 0.000000 0.750000
O11_20 O 0.88709(13) 0.02634(15) 0.76841(12)
N21_30 N 0.9040(2) 1.000000 0.750000
O9_30 O 0.94234(17) 1.000000 0.750000
O10_20 O 0.88709(13) 0.97366(15) 0.73159(12)
N21_31 N 0.500000 0.250000 0.4040(2)
O9_31 O 0.500000 0.250000 0.44234(17)
O10_21 O 0.52634(15) 0.26841(12) 0.38709(13)
O11_21 O 0.47366(15) 0.23159(12) 0.38709(13)
N21_32 N -0.000000 0.250000 0.5960(2)
O9_32 O -0.000000 0.250000 0.55766(17)
O10_22 O 0.02634(15) 0.23159(12) 0.61291(13)
N21_33 N 1.000000 0.250000 0.5960(2)
O9_33 O 1.000000 0.250000 0.55766(17)
O11_22 O 0.97366(15) 0.26841(12) 0.61291(13)
N21_34 N 0.500000 0.750000 0.0960(2)
O9_34 O 0.500000 0.750000 0.05766(17)
O10_23 O 0.47366(15) 0.76841(12) 0.11291(13)
O11_23 O 0.52634(15) 0.73159(12) 0.11291(13)
N21_35 N -0.000000 0.750000 0.9040(2)
O9_35 O -0.000000 0.750000 0.94234(17)
O11_24 O 0.02634(15) 0.76841(12) 0.88709(13)
N21_36 N 1.000000 0.750000 0.9040(2)
O9_36 O 1.000000 0.750000 0.94234(17)
O10_24 O 0.97366(15) 0.73159(12) 0.88709(13)
loop_
_geom_bond_atom_site_label_1
_geom_bond_atom_site_label_2
_geom_bond_site_symmetry_1
_geom_bond_site_symmetry_2
C1 H1 1_555 1_555
C2 C1 1_555 1_555
H2 C2 1_555 1_555
C3 C2 1_555 1_555
H3 C3 1_555 1_555
C11 H9 1_555 1_555
C12 C11 1_555 1_555
C13 C12 1_555 1_555
H10 C13 1_555 1_555
C14 C12 1_555 1_555
C15 C14 1_555 1_555
H11 C15 1_555 1_555
C16 C15 1_555 1_555
H12 C16 1_555 1_555
C17 C16 1_555 1_555
C18 C17 1_555 1_555
H13 C18 1_555 1_555
C19 C14 1_555 1_555
H14 C19 1_555 1_555
C20 C17 1_555 1_555
Cu1 O1 1_555 1_555
N3 C11 1_555 1_555
N4 C13 1_555 1_555
O1 C20 1_555 1_555
O2 C20 1_555 1_555
C31 H23 1_555 1_555
C32 C31 1_555 1_555
C33 C32 1_555 1_555
C34 C32 1_555 1_555
C35 C34 1_555 1_555
H25 C35 1_555 1_555
C36 C35 1_555 1_555
H26 C36 1_555 1_555
C37 C36 1_555 1_555
C38 C37 1_555 1_555
H27 C38 1_555 1_555
C39 C34 1_555 1_555
H28 C39 1_555 1_555
C40 C37 1_555 1_555
N7 C31 1_555 1_555
O3 Cu1 1_555 1_555
O4 Cu1 1_555 1_555
C41 H29 1_555 1_555
C42 C41 1_555 1_555
H30 C42 1_555 1_555
C43 C42 1_555 1_555
H31 C43 1_555 1_555
C44 C43 1_555 1_555
H32 C44 1_555 1_555
C45 C44 1_555 1_555
C46 C45 1_555 1_555
C47 C46 1_555 1_555
H33 C47 1_555 1_555
C48 C47 1_555 1_555
H34 C48 1_555 1_555
C49 C48 1_555 1_555
H35 C49 1_555 1_555
C50 C49 1_555 1_555
H36 C50 1_555 1_555
C51 H37 1_555 1_555
C52 C51 1_555 1_555
C53 C52 1_555 1_555
H38 C53 1_555 1_555
C54 C52 1_555 1_555
C55 C54 1_555 1_555
H39 C55 1_555 1_555
C56 C55 1_555 1_555
H40 C56 1_555 1_555
C57 C56 1_555 1_555
C58 C57 1_555 1_555
H41 C58 1_555 1_555
C59 C54 1_555 1_555
H42 C59 1_555 1_555
C60 C57 1_555 1_555
N9 C41 1_555 1_555
N10 C46 1_555 1_555
N11 C51 1_555 1_555
N12 C53 1_555 1_555
O5 Cu1 1_555 1_555
O6 Cu1 1_555 1_555
Pd3 N9 1_555 1_555
C61 H43 1_555 1_555
C62 C61 1_555 1_555
H44 C62 1_555 1_555
C63 C62 1_555 1_555
H45 C63 1_555 1_555
C64 C63 1_555 1_555
H46 C64 1_555 1_555
C65 C64 1_555 1_555
C66 C65 1_555 1_555
C67 C66 1_555 1_555
H47 C67 1_555 1_555
C68 C67 1_555 1_555
H48 C68 1_555 1_555
C69 C68 1_555 1_555
H49 C69 1_555 1_555
C70 C69 1_555 1_555
H50 C70 1_555 1_555
C71 H51 1_555 1_555
C72 C71 1_555 1_555
C73 C72 1_555 1_555
C74 C72 1_555 1_555
C75 C74 1_555 1_555
H53 C75 1_555 1_555
C76 C75 1_555 1_555
H54 C76 1_555 1_555
C77 C76 1_555 1_555
C78 C77 1_555 1_555
H55 C78 1_555 1_555
C79 C74 1_555 1_555
H56 C79 1_555 1_555
C80 C77 1_555 1_555
N13 C61 1_555 1_555
N14 C66 1_555 1_555
N15 C71 1_555 1_555
O7 Cu1 1_555 1_555
O8 Cu1 1_555 1_555
Pd4 N13 1_555 1_555
N17 Pd3 1_555 1_555
N18 Pd4 1_555 1_555
N20 Pd2 1_555 1_555
Pd5 N12 1_555 1_555
Pd7 N4 1_555 1_555
C18 C19 1_555 1_555
Cu1 O2 1_555 1_555
N3 N4 1_555 1_555
C38 C39 1_555 1_555
C40 O3 1_555 1_555
C40 O4 1_555 1_555
N7 Pd2 1_555 1_555
C45 N9 1_555 1_555
C50 N10 1_555 1_555
C58 C59 1_555 1_555
C60 O5 1_555 1_555
C60 O6 1_555 1_555
N10 Pd3 1_555 1_555
N11 N12 1_555 1_555
N11 Pd3 1_555 1_555
C65 N13 1_555 1_555
C70 N14 1_555 1_555
C78 C79 1_555 1_555
C80 O7 1_555 1_555
C80 O8 1_555 1_555
N14 Pd4 1_555 1_555
N15 Pd4 1_555 1_555
Pd6 N16 1_555 1_555
Pd8 N8 1_555 1_555
H4 C4 1_555 1_555
C5 C4 1_555 1_555
C6 C5 1_555 1_555
C7 C6 1_555 1_555
H5 C7 1_555 1_555
C8 C7 1_555 1_555
H6 C8 1_555 1_555
C9 C8 1_555 1_555
H7 C9 1_555 1_555
C10 C9 1_555 1_555
H8 C10 1_555 1_555
N2 C6 1_555 1_555
Pd1 N1 1_555 1_555
C22 C21 1_555 1_555
H16 C22 1_555 1_555
C23 C22 1_555 1_555
H17 C23 1_555 1_555
C24 C23 1_555 1_555
H18 C24 1_555 1_555
C25 C24 1_555 1_555
C26 C25 1_555 1_555
C27 C26 1_555 1_555
H19 C27 1_555 1_555
C28 C27 1_555 1_555
H20 C28 1_555 1_555
C29 C28 1_555 1_555
H21 C29 1_555 1_555
C30 C29 1_555 1_555
N5 C21 1_555 1_555
N6 C26 1_555 1_555
N19 Pd1 1_555 1_555
C5 N1 1_555 1_555
C10 N2 1_555 1_555
N2 Pd1 1_555 1_555
C25 N5 1_555 1_555
C30 N6 1_555 1_555
H4_2 C4_2 1_555 1_555
C5_2 C4_2 1_555 1_555
C6_2 C5_2 1_555 1_555
C7_2 C6_2 1_555 1_555
H5_2 C7_2 1_555 1_555
C8_2 C7_2 1_555 1_555
H6_2 C8_2 1_555 1_555
C9_2 C8_2 1_555 1_555
H7_2 C9_2 1_555 1_555
C10_2 C9_2 1_555 1_555
H8_2 C10_2 1_555 1_555
N2_2 C6_2 1_555 1_555
Pd1_2 N1_2 1_555 1_555
N19_2 Pd1_2 1_555 1_555
C5_2 N1_2 1_555 1_555
C10_2 N2_2 1_555 1_555
N2_2 Pd1_2 1_555 1_555
C1_2 H1_2 1_555 1_555
C2_2 C1_2 1_555 1_555
H2_2 C2_2 1_555 1_555
C3_2 C2_2 1_555 1_555
H3_2 C3_2 1_555 1_555
C11_2 H9_2 1_555 1_555
C12_2 C11_2 1_555 1_555
C13_2 C12_2 1_555 1_555
H10_2 C13_2 1_555 1_555
C14_2 C12_2 1_555 1_555
C15_2 C14_2 1_555 1_555
H11_2 C15_2 1_555 1_555
C16_2 C15_2 1_555 1_555
H12_2 C16_2 1_555 1_555
C17_2 C16_2 1_555 1_555
C18_2 C17_2 1_555 1_555
H13_2 C18_2 1_555 1_555
C19_2 C14_2 1_555 1_555
H14_2 C19_2 1_555 1_555
C20_2 C17_2 1_555 1_555
Cu1_2 O1_2 1_555 1_555
N3_2 C11_2 1_555 1_555
N4_2 C13_2 1_555 1_555
O1_2 C20_2 1_555 1_555
O2_2 C20_2 1_555 1_555
C61_2 H43_2 1_555 1_555
C62_2 C61_2 1_555 1_555
H44_2 C62_2 1_555 1_555
C63_2 C62_2 1_555 1_555
H45_2 C63_2 1_555 1_555
C64_2 C63_2 1_555 1_555
H46_2 C64_2 1_555 1_555
C65_2 C64_2 1_555 1_555
C66_2 C65_2 1_555 1_555
C67_2 C66_2 1_555 1_555
H47_2 C67_2 1_555 1_555
C68_2 C67_2 1_555 1_555
H48_2 C68_2 1_555 1_555
C69_2 C68_2 1_555 1_555
H49_2 C69_2 1_555 1_555
C70_2 C69_2 1_555 1_555
H50_2 C70_2 1_555 1_555
C71_2 H51_2 1_555 1_555
C72_2 C71_2 1_555 1_555
C73_2 C72_2 1_555 1_555
H52_2 C73_2 1_555 1_555
C74_2 C72_2 1_555 1_555
C75_2 C74_2 1_555 1_555
H53_2 C75_2 1_555 1_555
C76_2 C75_2 1_555 1_555
H54_2 C76_2 1_555 1_555
C77_2 C76_2 1_555 1_555
C78_2 C77_2 1_555 1_555
H55_2 C78_2 1_555 1_555
C79_2 C74_2 1_555 1_555
H56_2 C79_2 1_555 1_555
C80_2 C77_2 1_555 1_555
N13_2 C61_2 1_555 1_555
N14_2 C66_2 1_555 1_555
N15_2 C71_2 1_555 1_555
N16_2 C73_2 1_555 1_555
O7_2 Cu1_2 1_555 1_555
O8_2 Cu1_2 1_555 1_555
Pd4_2 N13_2 1_555 1_555
N18_2 Pd4_2 1_555 1_555
Pd6_2 N16_2 1_555 1_555
Pd7_2 N4_2 1_555 1_555
C18_2 C19_2 1_555 1_555
Cu1_2 O2_2 1_555 1_555
N3_2 N4_2 1_555 1_555
C65_2 N13_2 1_555 1_555
C70_2 N14_2 1_555 1_555
C78_2 C79_2 1_555 1_555
C80_2 O7_2 1_555 1_555
C80_2 O8_2 1_555 1_555
N14_2 Pd4_2 1_555 1_555
N15_2 N16_2 1_555 1_555
N15_2 Pd4_2 1_555 1_555
C31_2 H23_2 1_555 1_555
C32_2 C31_2 1_555 1_555
C33_2 C32_2 1_555 1_555
H24_2 C33_2 1_555 1_555
C34_2 C32_2 1_555 1_555
C35_2 C34_2 1_555 1_555
H25_2 C35_2 1_555 1_555
C36_2 C35_2 1_555 1_555
H26_2 C36_2 1_555 1_555
C37_2 C36_2 1_555 1_555
C38_2 C37_2 1_555 1_555
H27_2 C38_2 1_555 1_555
C39_2 C34_2 1_555 1_555
H28_2 C39_2 1_555 1_555
C40_2 C37_2 1_555 1_555
N7_2 C31_2 1_555 1_555
N8_2 C33_2 1_555 1_555
O3_2 Cu1_3 1_555 1_555
O4_2 Cu1_3 1_555 1_555
C41_2 H29_2 1_555 1_555
C42_2 C41_2 1_555 1_555
H30_2 C42_2 1_555 1_555
C43_2 C42_2 1_555 1_555
H31_2 C43_2 1_555 1_555
C44_2 C43_2 1_555 1_555
H32_2 C44_2 1_555 1_555
C45_2 C44_2 1_555 1_555
C46_2 C45_2 1_555 1_555
C47_2 C46_2 1_555 1_555
H33_2 C47_2 1_555 1_555
C48_2 C47_2 1_555 1_555
H34_2 C48_2 1_555 1_555
C49_2 C48_2 1_555 1_555
H35_2 C49_2 1_555 1_555
C50_2 C49_2 1_555 1_555
H36_2 C50_2 1_555 1_555
C51_2 H37_2 1_555 1_555
C52_2 C51_2 1_555 1_555
C53_2 C52_2 1_555 1_555
H38_2 C53_2 1_555 1_555
C54_2 C52_2 1_555 1_555
C55_2 C54_2 1_555 1_555
H39_2 C55_2 1_555 1_555
C56_2 C55_2 1_555 1_555
H40_2 C56_2 1_555 1_555
C57_2 C56_2 1_555 1_555
C58_2 C57_2 1_555 1_555
H41_2 C58_2 1_555 1_555
C59_2 C54_2 1_555 1_555
H42_2 C59_2 1_555 1_555
C60_2 C57_2 1_555 1_555
N9_2 C41_2 1_555 1_555
N10_2 C46_2 1_555 1_555
N11_2 C51_2 1_555 1_555
N12_2 C53_2 1_555 1_555
O5_2 Cu1_3 1_555 1_555
O6_2 Cu1_3 1_555 1_555
Pd3_2 N9_2 1_555 1_555
N17_2 Pd3_2 1_555 1_555
N20_2 Pd2_2 1_555 1_555
Pd5_2 N12_2 1_555 1_555
Pd8_2 N8_2 1_555 1_555
C38_2 C39_2 1_555 1_555
C40_2 O3_2 1_555 1_555
C40_2 O4_2 1_555 1_555
N7_2 N8_2 1_555 1_555
N7_2 Pd2_2 1_555 1_555
C45_2 N9_2 1_555 1_555
C50_2 N10_2 1_555 1_555
C58_2 C59_2 1_555 1_555
C60_2 O5_2 1_555 1_555
C60_2 O6_2 1_555 1_555
N10_2 Pd3_2 1_555 1_555
N11_2 N12_2 1_555 1_555
N11_2 Pd3_2 1_555 1_555
H32_3 C44_3 1_555 1_555
C45_3 C44_3 1_555 1_555
C46_3 C45_3 1_555 1_555
C47_3 C46_3 1_555 1_555
H33_3 C47_3 1_555 1_555
C48_3 C47_3 1_555 1_555
H34_3 C48_3 1_555 1_555
C49_3 C48_3 1_555 1_555
H35_3 C49_3 1_555 1_555
C50_3 C49_3 1_555 1_555
H36_3 C50_3 1_555 1_555
N10_3 C46_3 1_555 1_555
Pd7 N9_3 1_555 1_555
C62_3 C61_3 1_555 1_555
H44_3 C62_3 1_555 1_555
C63_3 C62_3 1_555 1_555
H45_3 C63_3 1_555 1_555
C64_3 C63_3 1_555 1_555
H46_3 C64_3 1_555 1_555
C65_3 C64_3 1_555 1_555
C66_3 C65_3 1_555 1_555
C67_3 C66_3 1_555 1_555
H47_3 C67_3 1_555 1_555
C68_3 C67_3 1_555 1_555
H48_3 C68_3 1_555 1_555
C69_3 C68_3 1_555 1_555
H49_3 C69_3 1_555 1_555
C70_3 C69_3 1_555 1_555
N13_3 C61_3 1_555 1_555
N14_3 C66_3 1_555 1_555
C45_3 N9_3 1_555 1_555
C50_3 N10_3 1_555 1_555
N10_3 Pd7 1_555 1_555
C65_3 N13_3 1_555 1_555
C70_3 N14_3 1_555 1_555
C1_3 H1_3 1_555 1_555
C2_3 C1_3 1_555 1_555
H2_3 C2_3 1_555 1_555
C3_3 C2_3 1_555 1_555
H3_3 C3_3 1_555 1_555
C4_3 C3_3 1_555 1_555
H4_3 C4_3 1_555 1_555
C5_3 C4_3 1_555 1_555
C6_3 C5_3 1_555 1_555
C7_3 C6_3 1_555 1_555
H5_3 C7_3 1_555 1_555
C8_3 C7_3 1_555 1_555
H6_3 C8_3 1_555 1_555
C9_3 C8_3 1_555 1_555
H7_3 C9_3 1_555 1_555
C10_3 C9_3 1_555 1_555
H8_3 C10_3 1_555 1_555
C11_3 H9_3 1_555 1_555
C12_3 C11_3 1_555 1_555
C13_3 C12_3 1_555 1_555
H10_3 C13_3 1_555 1_555
C14_3 C12_3 1_555 1_555
C15_3 C14_3 1_555 1_555
H11_3 C15_3 1_555 1_555
C16_3 C15_3 1_555 1_555
H12_3 C16_3 1_555 1_555
C17_3 C16_3 1_555 1_555
C18_3 C17_3 1_555 1_555
H13_3 C18_3 1_555 1_555
C19_3 C14_3 1_555 1_555
H14_3 C19_3 1_555 1_555
C20_3 C17_3 1_555 1_555
Cu1_4 O1_3 1_555 1_555
N1_3 C1_3 1_555 1_555
N2_3 C6_3 1_555 1_555
N3_3 C11_3 1_555 1_555
N17 C13_3 1_555 1_555
O1_3 C20_3 1_555 1_555
O2_3 C20_3 1_555 1_555
Pd5 N1_3 1_555 1_555
C21_2 H15_3 1_555 1_555
C22_2 C21_2 1_555 1_555
H16_2 C22_2 1_555 1_555
C23_2 C22_2 1_555 1_555
H17_2 C23_2 1_555 1_555
C24_2 C23_2 1_555 1_555
H18_2 C24_2 1_555 1_555
C25_2 C24_2 1_555 1_555
C26_2 C25_2 1_555 1_555
C27_2 C26_2 1_555 1_555
H19_2 C27_2 1_555 1_555
C28_2 C27_2 1_555 1_555
H20_2 C28_2 1_555 1_555
C29_2 C28_2 1_555 1_555
H21_2 C29_2 1_555 1_555
C30_2 C29_2 1_555 1_555
H22_3 C30_2 1_555 1_555
C31_3 H23_3 1_555 1_555
C32_3 C31_3 1_555 1_555
C33_3 C32_3 1_555 1_555
H24_3 C33_3 1_555 1_555
C34_3 C32_3 1_555 1_555
C35_3 C34_3 1_555 1_555
H25_3 C35_3 1_555 1_555
C36_3 C35_3 1_555 1_555
H26_3 C36_3 1_555 1_555
C37_3 C36_3 1_555 1_555
C38_3 C37_3 1_555 1_555
H27_3 C38_3 1_555 1_555
C39_3 C34_3 1_555 1_555
H28_3 C39_3 1_555 1_555
C40_3 C37_3 1_555 1_555
N5_2 C21_2 1_555 1_555
N6_2 C26_2 1_555 1_555
N7_3 C31_3 1_555 1_555
N18_2 C33_3 1_555 1_555
O3_3 Cu1_4 1_555 1_555
O4_3 Cu1_4 1_555 1_555
Pd6_2 N5_2 1_555 1_555
C41_3 H29_3 1_555 1_555
C42_3 C41_3 1_555 1_555
H30_3 C42_3 1_555 1_555
C43_3 C42_3 1_555 1_555
H31_3 C43_3 1_555 1_555
C51_3 H37_3 1_555 1_555
C52_3 C51_3 1_555 1_555
C53_3 C52_3 1_555 1_555
H38_3 C53_3 1_555 1_555
C54_3 C52_3 1_555 1_555
C55_3 C54_3 1_555 1_555
H39_3 C55_3 1_555 1_555
C56_3 C55_3 1_555 1_555
H40_3 C56_3 1_555 1_555
C57_3 C56_3 1_555 1_555
C58_3 C57_3 1_555 1_555
H41_3 C58_3 1_555 1_555
C59_3 C54_3 1_555 1_555
H42_3 C59_3 1_555 1_555
C60_3 C57_3 1_555 1_555
N11_3 C51_3 1_555 1_555
N19 C53_3 1_555 1_555
O5_3 Cu1_4 1_555 1_555
O6_3 Cu1_4 1_555 1_555
C71_3 H51_3 1_555 1_555
C72_3 C71_3 1_555 1_555
C73_3 C72_3 1_555 1_555
H52_3 C73_3 1_555 1_555
C74_3 C72_3 1_555 1_555
C75_3 C74_3 1_555 1_555
H53_3 C75_3 1_555 1_555
C76_3 C75_3 1_555 1_555
H54_3 C76_3 1_555 1_555
C77_3 C76_3 1_555 1_555
C78_3 C77_3 1_555 1_555
H55_3 C78_3 1_555 1_555
C79_3 C74_3 1_555 1_555
H56_3 C79_3 1_555 1_555
C80_3 C77_3 1_555 1_555
N15_3 C71_3 1_555 1_555
N20_2 C73_3 1_555 1_555
O7_3 Cu1_4 1_555 1_555
O8_3 Cu1_4 1_555 1_555
C5_3 N1_3 1_555 1_555
C10_3 N2_3 1_555 1_555
C18_3 C19_3 1_555 1_555
Cu1_4 O2_3 1_555 1_555
N2_3 Pd5 1_555 1_555
N3_3 N17 1_555 1_555
N3_3 Pd5 1_555 1_555
C25_2 N5_2 1_555 1_555
C30_2 N6_2 1_555 1_555
C38_3 C39_3 1_555 1_555
C40_3 O3_3 1_555 1_555
C40_3 O4_3 1_555 1_555
N6_2 Pd6_2 1_555 1_555
N7_3 N18_2 1_555 1_555
N7_3 Pd6_2 1_555 1_555
C58_3 C59_3 1_555 1_555
C60_3 O5_3 1_555 1_555
C60_3 O6_3 1_555 1_555
N11_3 N19 1_555 1_555
C78_3 C79_3 1_555 1_555
C80_3 O7_3 1_555 1_555
C80_3 O8_3 1_555 1_555
N15_3 N20_2 1_555 1_555
N15_3 Pd8_2 1_555 1_555
C21_3 H15_4 1_555 1_555
C22_3 C21_3 1_555 1_555
H16_3 C22_3 1_555 1_555
C23_3 C22_3 1_555 1_555
H17_3 C23_3 1_555 1_555
C24_3 C23_3 1_555 1_555
H18_3 C24_3 1_555 1_555
C25_3 C24_3 1_555 1_555
C26_3 C25_3 1_555 1_555
C27_3 C26_3 1_555 1_555
H19_3 C27_3 1_555 1_555
C28_3 C27_3 1_555 1_555
H20_3 C28_3 1_555 1_555
C29_3 C28_3 1_555 1_555
H21_3 C29_3 1_555 1_555
C30_3 C29_3 1_555 1_555
H22_4 C30_3 1_555 1_555
C31_4 H23_4 1_555 1_555
C32_4 C31_4 1_555 1_555
C33_4 C32_4 1_555 1_555
C34_4 C32_4 1_555 1_555
C35_4 C34_4 1_555 1_555
H25_4 C35_4 1_555 1_555
C36_4 C35_4 1_555 1_555
H26_4 C36_4 1_555 1_555
C37_4 C36_4 1_555 1_555
C38_4 C37_4 1_555 1_555
H27_4 C38_4 1_555 1_555
C39_4 C34_4 1_555 1_555
H28_4 C39_4 1_555 1_555
C40_4 C37_4 1_555 1_555
N5_3 C21_3 1_555 1_555
N6_3 C26_3 1_555 1_555
N7_4 C31_4 1_555 1_555
O3_4 Cu1_5 1_555 1_555
O4_4 Cu1_5 1_555 1_555
Pd6 N5_3 1_555 1_555
C41_4 H29_4 1_555 1_555
C42_4 C41_4 1_555 1_555
H30_4 C42_4 1_555 1_555
C43_4 C42_4 1_555 1_555
H31_4 C43_4 1_555 1_555
C51_4 H37_4 1_555 1_555
C52_4 C51_4 1_555 1_555
C53_4 C52_4 1_555 1_555
H38_4 C53_4 1_555 1_555
C54_4 C52_4 1_555 1_555
C55_4 C54_4 1_555 1_555
H39_4 C55_4 1_555 1_555
C56_4 C55_4 1_555 1_555
H40_4 C56_4 1_555 1_555
C57_4 C56_4 1_555 1_555
C58_4 C57_4 1_555 1_555
H41_4 C58_4 1_555 1_555
C59_4 C54_4 1_555 1_555
H42_4 C59_4 1_555 1_555
C60_4 C57_4 1_555 1_555
N11_4 C51_4 1_555 1_555
N19_2 C53_4 1_555 1_555
O5_4 Cu1_5 1_555 1_555
O6_4 Cu1_5 1_555 1_555
C25_3 N5_3 1_555 1_555
C30_3 N6_3 1_555 1_555
C38_4 C39_4 1_555 1_555
C40_4 O3_4 1_555 1_555
C40_4 O4_4 1_555 1_555
N6_3 Pd6 1_555 1_555
N7_4 Pd6 1_555 1_555
C58_4 C59_4 1_555 1_555
C60_4 O5_4 1_555 1_555
C60_4 O6_4 1_555 1_555
N11_4 N19_2 1_555 1_555
H32_4 C44_4 1_555 1_555
C45_4 C44_4 1_555 1_555
C46_4 C45_4 1_555 1_555
C47_4 C46_4 1_555 1_555
H33_4 C47_4 1_555 1_555
C48_4 C47_4 1_555 1_555
H34_4 C48_4 1_555 1_555
C49_4 C48_4 1_555 1_555
H35_4 C49_4 1_555 1_555
C50_4 C49_4 1_555 1_555
H36_4 C50_4 1_555 1_555
N10_4 C46_4 1_555 1_555
Pd7_2 N9_4 1_555 1_555
C45_4 N9_4 1_555 1_555
C50_4 N10_4 1_555 1_555
N10_4 Pd7_2 1_555 1_555
C1_4 H1_4 1_555 1_555
C2_4 C1_4 1_555 1_555
H2_4 C2_4 1_555 1_555
C3_4 C2_4 1_555 1_555
H3_4 C3_4 1_555 1_555
C4_4 C3_4 1_555 1_555
H4_4 C4_4 1_555 1_555
C5_4 C4_4 1_555 1_555
C6_4 C5_4 1_555 1_555
C7_4 C6_4 1_555 1_555
H5_4 C7_4 1_555 1_555
C8_4 C7_4 1_555 1_555
H6_4 C8_4 1_555 1_555
C9_4 C8_4 1_555 1_555
H7_4 C9_4 1_555 1_555
C10_4 C9_4 1_555 1_555
H8_4 C10_4 1_555 1_555
C11_4 H9_4 1_555 1_555
C12_4 C11_4 1_555 1_555
C13_4 C12_4 1_555 1_555
H10_4 C13_4 1_555 1_555
C14_4 C12_4 1_555 1_555
C15_4 C14_4 1_555 1_555
H11_4 C15_4 1_555 1_555
C16_4 C15_4 1_555 1_555
H12_4 C16_4 1_555 1_555
C17_4 C16_4 1_555 1_555
C18_4 C17_4 1_555 1_555
H13_4 C18_4 1_555 1_555
C19_4 C14_4 1_555 1_555
H14_4 C19_4 1_555 1_555
C20_4 C17_4 1_555 1_555
Cu1_6 O1_4 1_555 1_555
N1_4 C1_4 1_555 1_555
N2_4 C6_4 1_555 1_555
N3_4 C11_4 1_555 1_555
N17_2 C13_4 1_555 1_555
O1_4 C20_4 1_555 1_555
O2_4 C20_4 1_555 1_555
Pd5_2 N1_4 1_555 1_555
C71_4 H51_4 1_555 1_555
C72_4 C71_4 1_555 1_555
C73_4 C72_4 1_555 1_555
C74_4 C72_4 1_555 1_555
C75_4 C74_4 1_555 1_555
H53_4 C75_4 1_555 1_555
C76_4 C75_4 1_555 1_555
H54_4 C76_4 1_555 1_555
C77_4 C76_4 1_555 1_555
C78_4 C77_4 1_555 1_555
H55_4 C78_4 1_555 1_555
C79_4 C74_4 1_555 1_555
H56_4 C79_4 1_555 1_555
C80_4 C77_4 1_555 1_555
N15_4 C71_4 1_555 1_555
O7_4 Cu1_6 1_555 1_555
O8_4 Cu1_6 1_555 1_555
C5_4 N1_4 1_555 1_555
C10_4 N2_4 1_555 1_555
C18_4 C19_4 1_555 1_555
Cu1_6 O2_4 1_555 1_555
N2_4 Pd5_2 1_555 1_555
N3_4 N17_2 1_555 1_555
N3_4 Pd5_2 1_555 1_555
C78_4 C79_4 1_555 1_555
C80_4 O7_4 1_555 1_555
C80_4 O8_4 1_555 1_555
N15_4 Pd8 1_555 1_555
C22_4 C21_4 1_555 1_555
H16_4 C22_4 1_555 1_555
C23_4 C22_4 1_555 1_555
H17_4 C23_4 1_555 1_555
C24_4 C23_4 1_555 1_555
H18_4 C24_4 1_555 1_555
C25_4 C24_4 1_555 1_555
C26_4 C25_4 1_555 1_555
C27_4 C26_4 1_555 1_555
H19_4 C27_4 1_555 1_555
C28_4 C27_4 1_555 1_555
H20_4 C28_4 1_555 1_555
C29_4 C28_4 1_555 1_555
H21_4 C29_4 1_555 1_555
C30_4 C29_4 1_555 1_555
N5_4 C21_4 1_555 1_555
N6_4 C26_4 1_555 1_555
C25_4 N5_4 1_555 1_555
C30_4 N6_4 1_555 1_555
C62_4 C61_4 1_555 1_555
H44_4 C62_4 1_555 1_555
C63_4 C62_4 1_555 1_555
H45_4 C63_4 1_555 1_555
C64_4 C63_4 1_555 1_555
H46_4 C64_4 1_555 1_555
C65_4 C64_4 1_555 1_555
C66_4 C65_4 1_555 1_555
C67_4 C66_4 1_555 1_555
H47_4 C67_4 1_555 1_555
C68_4 C67_4 1_555 1_555
H48_4 C68_4 1_555 1_555
C69_4 C68_4 1_555 1_555
H49_4 C69_4 1_555 1_555
C70_4 C69_4 1_555 1_555
N13_4 C61_4 1_555 1_555
N14_4 C66_4 1_555 1_555
C65_4 N13_4 1_555 1_555
C70_4 N14_4 1_555 1_555
C1_5 H1_5 1_555 1_555
C2_5 C1_5 1_555 1_555
H2_5 C2_5 1_555 1_555
C3_5 C2_5 1_555 1_555
H3_5 C3_5 1_555 1_555
C11_5 H9_5 1_555 1_555
C12_5 C11_5 1_555 1_555
C13_5 C12_5 1_555 1_555
H10_5 C13_5 1_555 1_555
C14_5 C12_5 1_555 1_555
C15_5 C14_5 1_555 1_555
H11_5 C15_5 1_555 1_555
C16_5 C15_5 1_555 1_555
H12_5 C16_5 1_555 1_555
C17_5 C16_5 1_555 1_555
C18_5 C17_5 1_555 1_555
H13_5 C18_5 1_555 1_555
C19_5 C14_5 1_555 1_555
H14_5 C19_5 1_555 1_555
C20_5 C17_5 1_555 1_555
Cu1_7 O1_5 1_555 1_555
N3_5 C11_5 1_555 1_555
N4_3 C13_5 1_555 1_555
O1_5 C20_5 1_555 1_555
O2_5 C20_5 1_555 1_555
C31_5 H23_5 1_555 1_555
C32_5 C31_5 1_555 1_555
C33_5 C32_5 1_555 1_555
C34_5 C32_5 1_555 1_555
C35_5 C34_5 1_555 1_555
H25_5 C35_5 1_555 1_555
C36_5 C35_5 1_555 1_555
H26_5 C36_5 1_555 1_555
C37_5 C36_5 1_555 1_555
C38_5 C37_5 1_555 1_555
H27_5 C38_5 1_555 1_555
C39_5 C34_5 1_555 1_555
H28_5 C39_5 1_555 1_555
C40_5 C37_5 1_555 1_555
N7_5 C31_5 1_555 1_555
O3_5 Cu1_7 1_555 1_555
O4_5 Cu1_7 1_555 1_555
C41_5 H29_5 1_555 1_555
C42_5 C41_5 1_555 1_555
H30_5 C42_5 1_555 1_555
C43_5 C42_5 1_555 1_555
H31_5 C43_5 1_555 1_555
C44_5 C43_5 1_555 1_555
H32_5 C44_5 1_555 1_555
C45_5 C44_5 1_555 1_555
C46_5 C45_5 1_555 1_555
C47_5 C46_5 1_555 1_555
H33_5 C47_5 1_555 1_555
C48_5 C47_5 1_555 1_555
H34_5 C48_5 1_555 1_555
C49_5 C48_5 1_555 1_555
H35_5 C49_5 1_555 1_555
C50_5 C49_5 1_555 1_555
H36_5 C50_5 1_555 1_555
C51_5 H37_5 1_555 1_555
C52_5 C51_5 1_555 1_555
C53_5 C52_5 1_555 1_555
H38_5 C53_5 1_555 1_555
C54_5 C52_5 1_555 1_555
C55_5 C54_5 1_555 1_555
H39_5 C55_5 1_555 1_555
C56_5 C55_5 1_555 1_555
H40_5 C56_5 1_555 1_555
C57_5 C56_5 1_555 1_555
C58_5 C57_5 1_555 1_555
H41_5 C58_5 1_555 1_555
C59_5 C54_5 1_555 1_555
H42_5 C59_5 1_555 1_555
C60_5 C57_5 1_555 1_555
N9_5 C41_5 1_555 1_555
N10_5 C46_5 1_555 1_555
N11_5 C51_5 1_555 1_555
N12_3 C53_5 1_555 1_555
O5_5 Cu1_7 1_555 1_555
O6_5 Cu1_7 1_555 1_555
Pd3_3 N9_5 1_555 1_555
C61_5 H43_5 1_555 1_555
C62_5 C61_5 1_555 1_555
H44_5 C62_5 1_555 1_555
C63_5 C62_5 1_555 1_555
H45_5 C63_5 1_555 1_555
C64_5 C63_5 1_555 1_555
H46_5 C64_5 1_555 1_555
C65_5 C64_5 1_555 1_555
C66_5 C65_5 1_555 1_555
C67_5 C66_5 1_555 1_555
H47_5 C67_5 1_555 1_555
C68_5 C67_5 1_555 1_555
H48_5 C68_5 1_555 1_555
C69_5 C68_5 1_555 1_555
H49_5 C69_5 1_555 1_555
C70_5 C69_5 1_555 1_555
H50_5 C70_5 1_555 1_555
C71_5 H51_5 1_555 1_555
C72_5 C71_5 1_555 1_555
C73_5 C72_5 1_555 1_555
C74_5 C72_5 1_555 1_555
C75_5 C74_5 1_555 1_555
H53_5 C75_5 1_555 1_555
C76_5 C75_5 1_555 1_555
H54_5 C76_5 1_555 1_555
C77_5 C76_5 1_555 1_555
C78_5 C77_5 1_555 1_555
H55_5 C78_5 1_555 1_555
C79_5 C74_5 1_555 1_555
H56_5 C79_5 1_555 1_555
C80_5 C77_5 1_555 1_555
N13_5 C61_5 1_555 1_555
N14_5 C66_5 1_555 1_555
N15_5 C71_5 1_555 1_555
O7_5 Cu1_7 1_555 1_555
O8_5 Cu1_7 1_555 1_555
Pd4_3 N13_5 1_555 1_555
N17_3 Pd3_3 1_555 1_555
N18_3 Pd4_3 1_555 1_555
N20_3 Pd2_3 1_555 1_555
Pd5_3 N12_3 1_555 1_555
Pd7_3 N4_3 1_555 1_555
C18_5 C19_5 1_555 1_555
Cu1_7 O2_5 1_555 1_555
N3_5 N4_3 1_555 1_555
C38_5 C39_5 1_555 1_555
C40_5 O3_5 1_555 1_555
C40_5 O4_5 1_555 1_555
N7_5 Pd2_3 1_555 1_555
C45_5 N9_5 1_555 1_555
C50_5 N10_5 1_555 1_555
C58_5 C59_5 1_555 1_555
C60_5 O5_5 1_555 1_555
C60_5 O6_5 1_555 1_555
N10_5 Pd3_3 1_555 1_555
N11_5 N12_3 1_555 1_555
N11_5 Pd3_3 1_555 1_555
C65_5 N13_5 1_555 1_555
C70_5 N14_5 1_555 1_555
C78_5 C79_5 1_555 1_555
C80_5 O7_5 1_555 1_555
C80_5 O8_5 1_555 1_555
N14_5 Pd4_3 1_555 1_555
N15_5 Pd4_3 1_555 1_555
H4_5 C4_5 1_555 1_555
C5_5 C4_5 1_555 1_555
C6_5 C5_5 1_555 1_555
C7_5 C6_5 1_555 1_555
H5_5 C7_5 1_555 1_555
C8_5 C7_5 1_555 1_555
H6_5 C8_5 1_555 1_555
C9_5 C8_5 1_555 1_555
H7_5 C9_5 1_555 1_555
C10_5 C9_5 1_555 1_555
H8_5 C10_5 1_555 1_555
N2_5 C6_5 1_555 1_555
Pd1_3 N1_5 1_555 1_555
C22_5 C21_5 1_555 1_555
H16_5 C22_5 1_555 1_555
C23_5 C22_5 1_555 1_555
H17_5 C23_5 1_555 1_555
C24_5 C23_5 1_555 1_555
H18_5 C24_5 1_555 1_555
C25_5 C24_5 1_555 1_555
C26_5 C25_5 1_555 1_555
C27_5 C26_5 1_555 1_555
H19_5 C27_5 1_555 1_555
C28_5 C27_5 1_555 1_555
H20_5 C28_5 1_555 1_555
C29_5 C28_5 1_555 1_555
H21_5 C29_5 1_555 1_555
C30_5 C29_5 1_555 1_555
N5_5 C21_5 1_555 1_555
N6_5 C26_5 1_555 1_555
N19_3 Pd1_3 1_555 1_555
C5_5 N1_5 1_555 1_555
C10_5 N2_5 1_555 1_555
N2_5 Pd1_3 1_555 1_555
C25_5 N5_5 1_555 1_555
C30_5 N6_5 1_555 1_555
Pd6_3 N16_3 1_555 1_555
Pd8_3 N8_3 1_555 1_555
H4_6 C4_6 1_555 1_555
C5_6 C4_6 1_555 1_555
C6_6 C5_6 1_555 1_555
C7_6 C6_6 1_555 1_555
H5_6 C7_6 1_555 1_555
C8_6 C7_6 1_555 1_555
H6_6 C8_6 1_555 1_555
C9_6 C8_6 1_555 1_555
H7_6 C9_6 1_555 1_555
C10_6 C9_6 1_555 1_555
H8_6 C10_6 1_555 1_555
N2_6 C6_6 1_555 1_555
Pd1_4 N1_6 1_555 1_555
N19_4 Pd1_4 1_555 1_555
C5_6 N1_6 1_555 1_555
C10_6 N2_6 1_555 1_555
N2_6 Pd1_4 1_555 1_555
C1_6 H1_6 1_555 1_555
C2_6 C1_6 1_555 1_555
H2_6 C2_6 1_555 1_555
C3_6 C2_6 1_555 1_555
H3_6 C3_6 1_555 1_555
C11_6 H9_6 1_555 1_555
C12_6 C11_6 1_555 1_555
C13_6 C12_6 1_555 1_555
H10_6 C13_6 1_555 1_555
C14_6 C12_6 1_555 1_555
C15_6 C14_6 1_555 1_555
H11_6 C15_6 1_555 1_555
C16_6 C15_6 1_555 1_555
H12_6 C16_6 1_555 1_555
C17_6 C16_6 1_555 1_555
C18_6 C17_6 1_555 1_555
H13_6 C18_6 1_555 1_555
C19_6 C14_6 1_555 1_555
H14_6 C19_6 1_555 1_555
C20_6 C17_6 1_555 1_555
Cu1_8 O1_6 1_555 1_555
N3_6 C11_6 1_555 1_555
N4_4 C13_6 1_555 1_555
O1_6 C20_6 1_555 1_555
O2_6 C20_6 1_555 1_555
C61_6 H43_6 1_555 1_555
C62_6 C61_6 1_555 1_555
H44_6 C62_6 1_555 1_555
C63_6 C62_6 1_555 1_555
H45_6 C63_6 1_555 1_555
C64_6 C63_6 1_555 1_555
H46_6 C64_6 1_555 1_555
C65_6 C64_6 1_555 1_555
C66_6 C65_6 1_555 1_555
C67_6 C66_6 1_555 1_555
H47_6 C67_6 1_555 1_555
C68_6 C67_6 1_555 1_555
H48_6 C68_6 1_555 1_555
C69_6 C68_6 1_555 1_555
H49_6 C69_6 1_555 1_555
C70_6 C69_6 1_555 1_555
H50_6 C70_6 1_555 1_555
C71_6 H51_6 1_555 1_555
C72_6 C71_6 1_555 1_555
C73_6 C72_6 1_555 1_555
H52_6 C73_6 1_555 1_555
C74_6 C72_6 1_555 1_555
C75_6 C74_6 1_555 1_555
H53_6 C75_6 1_555 1_555
C76_6 C75_6 1_555 1_555
H54_6 C76_6 1_555 1_555
C77_6 C76_6 1_555 1_555
C78_6 C77_6 1_555 1_555
H55_6 C78_6 1_555 1_555
C79_6 C74_6 1_555 1_555
H56_6 C79_6 1_555 1_555
C80_6 C77_6 1_555 1_555
N13_6 C61_6 1_555 1_555
N14_6 C66_6 1_555 1_555
N15_6 C71_6 1_555 1_555
N16_4 C73_6 1_555 1_555
O7_6 Cu1_8 1_555 1_555
O8_6 Cu1_8 1_555 1_555
Pd4_4 N13_6 1_555 1_555
N18_4 Pd4_4 1_555 1_555
Pd6_4 N16_4 1_555 1_555
Pd7_4 N4_4 1_555 1_555
C18_6 C19_6 1_555 1_555
Cu1_8 O2_6 1_555 1_555
N3_6 N4_4 1_555 1_555
C65_6 N13_6 1_555 1_555
C70_6 N14_6 1_555 1_555
C78_6 C79_6 1_555 1_555
C80_6 O7_6 1_555 1_555
C80_6 O8_6 1_555 1_555
N14_6 Pd4_4 1_555 1_555
N15_6 N16_4 1_555 1_555
N15_6 Pd4_4 1_555 1_555
C31_6 H23_6 1_555 1_555
C32_6 C31_6 1_555 1_555
C33_6 C32_6 1_555 1_555
H24_6 C33_6 1_555 1_555
C34_6 C32_6 1_555 1_555
C35_6 C34_6 1_555 1_555
H25_6 C35_6 1_555 1_555
C36_6 C35_6 1_555 1_555
H26_6 C36_6 1_555 1_555
C37_6 C36_6 1_555 1_555
C38_6 C37_6 1_555 1_555
H27_6 C38_6 1_555 1_555
C39_6 C34_6 1_555 1_555
H28_6 C39_6 1_555 1_555
C40_6 C37_6 1_555 1_555
N7_6 C31_6 1_555 1_555
N8_4 C33_6 1_555 1_555
O3_6 Cu1_9 1_555 1_555
O4_6 Cu1_9 1_555 1_555
C41_6 H29_6 1_555 1_555
C42_6 C41_6 1_555 1_555
H30_6 C42_6 1_555 1_555
C43_6 C42_6 1_555 1_555
H31_6 C43_6 1_555 1_555
C44_6 C43_6 1_555 1_555
H32_6 C44_6 1_555 1_555
C45_6 C44_6 1_555 1_555
C46_6 C45_6 1_555 1_555
C47_6 C46_6 1_555 1_555
H33_6 C47_6 1_555 1_555
C48_6 C47_6 1_555 1_555
H34_6 C48_6 1_555 1_555
C49_6 C48_6 1_555 1_555
H35_6 C49_6 1_555 1_555
C50_6 C49_6 1_555 1_555
H36_6 C50_6 1_555 1_555
C51_6 H37_6 1_555 1_555
C52_6 C51_6 1_555 1_555
C53_6 C52_6 1_555 1_555
H38_6 C53_6 1_555 1_555
C54_6 C52_6 1_555 1_555
C55_6 C54_6 1_555 1_555
H39_6 C55_6 1_555 1_555
C56_6 C55_6 1_555 1_555
H40_6 C56_6 1_555 1_555
C57_6 C56_6 1_555 1_555
C58_6 C57_6 1_555 1_555
H41_6 C58_6 1_555 1_555
C59_6 C54_6 1_555 1_555
H42_6 C59_6 1_555 1_555
C60_6 C57_6 1_555 1_555
N9_6 C41_6 1_555 1_555
N10_6 C46_6 1_555 1_555
N11_6 C51_6 1_555 1_555
N12_4 C53_6 1_555 1_555
O5_6 Cu1_9 1_555 1_555
O6_6 Cu1_9 1_555 1_555
Pd3_4 N9_6 1_555 1_555
N17_4 Pd3_4 1_555 1_555
N20_4 Pd2_4 1_555 1_555
Pd5_4 N12_4 1_555 1_555
Pd8_4 N8_4 1_555 1_555
C38_6 C39_6 1_555 1_555
C40_6 O3_6 1_555 1_555
C40_6 O4_6 1_555 1_555
N7_6 N8_4 1_555 1_555
N7_6 Pd2_4 1_555 1_555
C45_6 N9_6 1_555 1_555
C50_6 N10_6 1_555 1_555
C58_6 C59_6 1_555 1_555
C60_6 O5_6 1_555 1_555
C60_6 O6_6 1_555 1_555
N10_6 Pd3_4 1_555 1_555
N11_6 N12_4 1_555 1_555
N11_6 Pd3_4 1_555 1_555
H32_7 C44_7 1_555 1_555
C45_7 C44_7 1_555 1_555
C46_7 C45_7 1_555 1_555
C47_7 C46_7 1_555 1_555
H33_7 C47_7 1_555 1_555
C48_7 C47_7 1_555 1_555
H34_7 C48_7 1_555 1_555
C49_7 C48_7 1_555 1_555
H35_7 C49_7 1_555 1_555
C50_7 C49_7 1_555 1_555
H36_7 C50_7 1_555 1_555
N10_7 C46_7 1_555 1_555
Pd7_3 N9_7 1_555 1_555
C62_7 C61_7 1_555 1_555
H44_7 C62_7 1_555 1_555
C63_7 C62_7 1_555 1_555
H45_7 C63_7 1_555 1_555
C64_7 C63_7 1_555 1_555
H46_7 C64_7 1_555 1_555
C65_7 C64_7 1_555 1_555
C66_7 C65_7 1_555 1_555
C67_7 C66_7 1_555 1_555
H47_7 C67_7 1_555 1_555
C68_7 C67_7 1_555 1_555
H48_7 C68_7 1_555 1_555
C69_7 C68_7 1_555 1_555
H49_7 C69_7 1_555 1_555
C70_7 C69_7 1_555 1_555
N13_7 C61_7 1_555 1_555
N14_7 C66_7 1_555 1_555
C45_7 N9_7 1_555 1_555
C50_7 N10_7 1_555 1_555
N10_7 Pd7_3 1_555 1_555
C65_7 N13_7 1_555 1_555
C70_7 N14_7 1_555 1_555
C1_7 H1_7 1_555 1_555
C2_7 C1_7 1_555 1_555
H2_7 C2_7 1_555 1_555
C3_7 C2_7 1_555 1_555
H3_7 C3_7 1_555 1_555
C4_7 C3_7 1_555 1_555
H4_7 C4_7 1_555 1_555
C5_7 C4_7 1_555 1_555
C6_7 C5_7 1_555 1_555
C7_7 C6_7 1_555 1_555
H5_7 C7_7 1_555 1_555
C8_7 C7_7 1_555 1_555
H6_7 C8_7 1_555 1_555
C9_7 C8_7 1_555 1_555
H7_7 C9_7 1_555 1_555
C10_7 C9_7 1_555 1_555
H8_7 C10_7 1_555 1_555
C11_7 H9_7 1_555 1_555
C12_7 C11_7 1_555 1_555
C13_7 C12_7 1_555 1_555
H10_7 C13_7 1_555 1_555
C14_7 C12_7 1_555 1_555
C15_7 C14_7 1_555 1_555
H11_7 C15_7 1_555 1_555
C16_7 C15_7 1_555 1_555
H12_7 C16_7 1_555 1_555
C17_7 C16_7 1_555 1_555
C18_7 C17_7 1_555 1_555
H13_7 C18_7 1_555 1_555
C19_7 C14_7 1_555 1_555
H14_7 C19_7 1_555 1_555
C20_7 C17_7 1_555 1_555
Cu1_10 O1_7 1_555 1_555
N1_7 C1_7 1_555 1_555
N2_7 C6_7 1_555 1_555
N3_7 C11_7 1_555 1_555
N17_3 C13_7 1_555 1_555
O1_7 C20_7 1_555 1_555
O2_7 C20_7 1_555 1_555
Pd5_3 N1_7 1_555 1_555
C21_6 H15_7 1_555 1_555
C22_6 C21_6 1_555 1_555
H16_6 C22_6 1_555 1_555
C23_6 C22_6 1_555 1_555
H17_6 C23_6 1_555 1_555
C24_6 C23_6 1_555 1_555
H18_6 C24_6 1_555 1_555
C25_6 C24_6 1_555 1_555
C26_6 C25_6 1_555 1_555
C27_6 C26_6 1_555 1_555
H19_6 C27_6 1_555 1_555
C28_6 C27_6 1_555 1_555
H20_6 C28_6 1_555 1_555
C29_6 C28_6 1_555 1_555
H21_6 C29_6 1_555 1_555
C30_6 C29_6 1_555 1_555
H22_7 C30_6 1_555 1_555
C31_7 H23_7 1_555 1_555
C32_7 C31_7 1_555 1_555
C33_7 C32_7 1_555 1_555
H24_7 C33_7 1_555 1_555
C34_7 C32_7 1_555 1_555
C35_7 C34_7 1_555 1_555
H25_7 C35_7 1_555 1_555
C36_7 C35_7 1_555 1_555
H26_7 C36_7 1_555 1_555
C37_7 C36_7 1_555 1_555
C38_7 C37_7 1_555 1_555
H27_7 C38_7 1_555 1_555
C39_7 C34_7 1_555 1_555
H28_7 C39_7 1_555 1_555
C40_7 C37_7 1_555 1_555
N5_6 C21_6 1_555 1_555
N6_6 C26_6 1_555 1_555
N7_7 C31_7 1_555 1_555
N18_4 C33_7 1_555 1_555
O3_7 Cu1_10 1_555 1_555
O4_7 Cu1_10 1_555 1_555
Pd6_4 N5_6 1_555 1_555
C41_7 H29_7 1_555 1_555
C42_7 C41_7 1_555 1_555
H30_7 C42_7 1_555 1_555
C43_7 C42_7 1_555 1_555
H31_7 C43_7 1_555 1_555
C51_7 H37_7 1_555 1_555
C52_7 C51_7 1_555 1_555
C53_7 C52_7 1_555 1_555
H38_7 C53_7 1_555 1_555
C54_7 C52_7 1_555 1_555
C55_7 C54_7 1_555 1_555
H39_7 C55_7 1_555 1_555
C56_7 C55_7 1_555 1_555
H40_7 C56_7 1_555 1_555
C57_7 C56_7 1_555 1_555
C58_7 C57_7 1_555 1_555
H41_7 C58_7 1_555 1_555
C59_7 C54_7 1_555 1_555
H42_7 C59_7 1_555 1_555
C60_7 C57_7 1_555 1_555
N11_7 C51_7 1_555 1_555
N19_3 C53_7 1_555 1_555
O5_7 Cu1_10 1_555 1_555
O6_7 Cu1_10 1_555 1_555
C71_7 H51_7 1_555 1_555
C72_7 C71_7 1_555 1_555
C73_7 C72_7 1_555 1_555
H52_7 C73_7 1_555 1_555
C74_7 C72_7 1_555 1_555
C75_7 C74_7 1_555 1_555
H53_7 C75_7 1_555 1_555
C76_7 C75_7 1_555 1_555
H54_7 C76_7 1_555 1_555
C77_7 C76_7 1_555 1_555
C78_7 C77_7 1_555 1_555
H55_7 C78_7 1_555 1_555
C79_7 C74_7 1_555 1_555
H56_7 C79_7 1_555 1_555
C80_7 C77_7 1_555 1_555
N15_7 C71_7 1_555 1_555
N20_4 C73_7 1_555 1_555
O7_7 Cu1_10 1_555 1_555
O8_7 Cu1_10 1_555 1_555
C5_7 N1_7 1_555 1_555
C10_7 N2_7 1_555 1_555
C18_7 C19_7 1_555 1_555
Cu1_10 O2_7 1_555 1_555
N2_7 Pd5_3 1_555 1_555
N3_7 N17_3 1_555 1_555
N3_7 Pd5_3 1_555 1_555
C25_6 N5_6 1_555 1_555
C30_6 N6_6 1_555 1_555
C38_7 C39_7 1_555 1_555
C40_7 O3_7 1_555 1_555
C40_7 O4_7 1_555 1_555
N6_6 Pd6_4 1_555 1_555
N7_7 N18_4 1_555 1_555
N7_7 Pd6_4 1_555 1_555
C58_7 C59_7 1_555 1_555
C60_7 O5_7 1_555 1_555
C60_7 O6_7 1_555 1_555
N11_7 N19_3 1_555 1_555
C78_7 C79_7 1_555 1_555
C80_7 O7_7 1_555 1_555
C80_7 O8_7 1_555 1_555
N15_7 N20_4 1_555 1_555
N15_7 Pd8_4 1_555 1_555
C21_7 H15_8 1_555 1_555
C22_7 C21_7 1_555 1_555
H16_7 C22_7 1_555 1_555
C23_7 C22_7 1_555 1_555
H17_7 C23_7 1_555 1_555
C24_7 C23_7 1_555 1_555
H18_7 C24_7 1_555 1_555
C25_7 C24_7 1_555 1_555
C26_7 C25_7 1_555 1_555
C27_7 C26_7 1_555 1_555
H19_7 C27_7 1_555 1_555
C28_7 C27_7 1_555 1_555
H20_7 C28_7 1_555 1_555
C29_7 C28_7 1_555 1_555
H21_7 C29_7 1_555 1_555
C30_7 C29_7 1_555 1_555
H22_8 C30_7 1_555 1_555
C31_8 H23_8 1_555 1_555
C32_8 C31_8 1_555 1_555
C33_8 C32_8 1_555 1_555
C34_8 C32_8 1_555 1_555
C35_8 C34_8 1_555 1_555
H25_8 C35_8 1_555 1_555
C36_8 C35_8 1_555 1_555
H26_8 C36_8 1_555 1_555
C37_8 C36_8 1_555 1_555
C38_8 C37_8 1_555 1_555
H27_8 C38_8 1_555 1_555
C39_8 C34_8 1_555 1_555
H28_8 C39_8 1_555 1_555
C40_8 C37_8 1_555 1_555
N5_7 C21_7 1_555 1_555
N6_7 C26_7 1_555 1_555
N7_8 C31_8 1_555 1_555
O3_8 Cu1_11 1_555 1_555
O4_8 Cu1_11 1_555 1_555
Pd6_3 N5_7 1_555 1_555
C41_8 H29_8 1_555 1_555
C42_8 C41_8 1_555 1_555
H30_8 C42_8 1_555 1_555
C43_8 C42_8 1_555 1_555
H31_8 C43_8 1_555 1_555
C51_8 H37_8 1_555 1_555
C52_8 C51_8 1_555 1_555
C53_8 C52_8 1_555 1_555
H38_8 C53_8 1_555 1_555
C54_8 C52_8 1_555 1_555
C55_8 C54_8 1_555 1_555
H39_8 C55_8 1_555 1_555
C56_8 C55_8 1_555 1_555
H40_8 C56_8 1_555 1_555
C57_8 C56_8 1_555 1_555
C58_8 C57_8 1_555 1_555
H41_8 C58_8 1_555 1_555
C59_8 C54_8 1_555 1_555
H42_8 C59_8 1_555 1_555
C60_8 C57_8 1_555 1_555
N11_8 C51_8 1_555 1_555
N19_4 C53_8 1_555 1_555
O5_8 Cu1_11 1_555 1_555
O6_8 Cu1_11 1_555 1_555
C25_7 N5_7 1_555 1_555
C30_7 N6_7 1_555 1_555
C38_8 C39_8 1_555 1_555
C40_8 O3_8 1_555 1_555
C40_8 O4_8 1_555 1_555
N6_7 Pd6_3 1_555 1_555
N7_8 Pd6_3 1_555 1_555
C58_8 C59_8 1_555 1_555
C60_8 O5_8 1_555 1_555
C60_8 O6_8 1_555 1_555
N11_8 N19_4 1_555 1_555
H32_8 C44_8 1_555 1_555
C45_8 C44_8 1_555 1_555
C46_8 C45_8 1_555 1_555
C47_8 C46_8 1_555 1_555
H33_8 C47_8 1_555 1_555
C48_8 C47_8 1_555 1_555
H34_8 C48_8 1_555 1_555
C49_8 C48_8 1_555 1_555
H35_8 C49_8 1_555 1_555
C50_8 C49_8 1_555 1_555
H36_8 C50_8 1_555 1_555
N10_8 C46_8 1_555 1_555
Pd7_4 N9_8 1_555 1_555
C45_8 N9_8 1_555 1_555
C50_8 N10_8 1_555 1_555
N10_8 Pd7_4 1_555 1_555
C1_8 H1_8 1_555 1_555
C2_8 C1_8 1_555 1_555
H2_8 C2_8 1_555 1_555
C3_8 C2_8 1_555 1_555
H3_8 C3_8 1_555 1_555
C4_8 C3_8 1_555 1_555
H4_8 C4_8 1_555 1_555
C5_8 C4_8 1_555 1_555
C6_8 C5_8 1_555 1_555
C7_8 C6_8 1_555 1_555
H5_8 C7_8 1_555 1_555
C8_8 C7_8 1_555 1_555
H6_8 C8_8 1_555 1_555
C9_8 C8_8 1_555 1_555
H7_8 C9_8 1_555 1_555
C10_8 C9_8 1_555 1_555
H8_8 C10_8 1_555 1_555
C11_8 H9_8 1_555 1_555
C12_8 C11_8 1_555 1_555
C13_8 C12_8 1_555 1_555
H10_8 C13_8 1_555 1_555
C14_8 C12_8 1_555 1_555
C15_8 C14_8 1_555 1_555
H11_8 C15_8 1_555 1_555
C16_8 C15_8 1_555 1_555
H12_8 C16_8 1_555 1_555
C17_8 C16_8 1_555 1_555
C18_8 C17_8 1_555 1_555
H13_8 C18_8 1_555 1_555
C19_8 C14_8 1_555 1_555
H14_8 C19_8 1_555 1_555
C20_8 C17_8 1_555 1_555
Cu1_12 O1_8 1_555 1_555
N1_8 C1_8 1_555 1_555
N2_8 C6_8 1_555 1_555
N3_8 C11_8 1_555 1_555
N17_4 C13_8 1_555 1_555
O1_8 C20_8 1_555 1_555
O2_8 C20_8 1_555 1_555
Pd5_4 N1_8 1_555 1_555
C71_8 H51_8 1_555 1_555
C72_8 C71_8 1_555 1_555
C73_8 C72_8 1_555 1_555
C74_8 C72_8 1_555 1_555
C75_8 C74_8 1_555 1_555
H53_8 C75_8 1_555 1_555
C76_8 C75_8 1_555 1_555
H54_8 C76_8 1_555 1_555
C77_8 C76_8 1_555 1_555
C78_8 C77_8 1_555 1_555
H55_8 C78_8 1_555 1_555
C79_8 C74_8 1_555 1_555
H56_8 C79_8 1_555 1_555
C80_8 C77_8 1_555 1_555
N15_8 C71_8 1_555 1_555
O7_8 Cu1_12 1_555 1_555
O8_8 Cu1_12 1_555 1_555
C5_8 N1_8 1_555 1_555
C10_8 N2_8 1_555 1_555
C18_8 C19_8 1_555 1_555
Cu1_12 O2_8 1_555 1_555
N2_8 Pd5_4 1_555 1_555
N3_8 N17_4 1_555 1_555
N3_8 Pd5_4 1_555 1_555
C78_8 C79_8 1_555 1_555
C80_8 O7_8 1_555 1_555
C80_8 O8_8 1_555 1_555
N15_8 Pd8_3 1_555 1_555
C22_8 C21_8 1_555 1_555
H16_8 C22_8 1_555 1_555
C23_8 C22_8 1_555 1_555
H17_8 C23_8 1_555 1_555
C24_8 C23_8 1_555 1_555
H18_8 C24_8 1_555 1_555
C25_8 C24_8 1_555 1_555
C26_8 C25_8 1_555 1_555
C27_8 C26_8 1_555 1_555
H19_8 C27_8 1_555 1_555
C28_8 C27_8 1_555 1_555
H20_8 C28_8 1_555 1_555
C29_8 C28_8 1_555 1_555
H21_8 C29_8 1_555 1_555
C30_8 C29_8 1_555 1_555
N5_8 C21_8 1_555 1_555
N6_8 C26_8 1_555 1_555
C25_8 N5_8 1_555 1_555
C30_8 N6_8 1_555 1_555
C62_8 C61_8 1_555 1_555
H44_8 C62_8 1_555 1_555
C63_8 C62_8 1_555 1_555
H45_8 C63_8 1_555 1_555
C64_8 C63_8 1_555 1_555
H46_8 C64_8 1_555 1_555
C65_8 C64_8 1_555 1_555
C66_8 C65_8 1_555 1_555
C67_8 C66_8 1_555 1_555
H47_8 C67_8 1_555 1_555
C68_8 C67_8 1_555 1_555
H48_8 C68_8 1_555 1_555
C69_8 C68_8 1_555 1_555
H49_8 C69_8 1_555 1_555
C70_8 C69_8 1_555 1_555
N13_8 C61_8 1_555 1_555
N14_8 C66_8 1_555 1_555
C65_8 N13_8 1_555 1_555
C70_8 N14_8 1_555 1_555
C1_9 H1_9 1_555 1_555
C2_9 C1_9 1_555 1_555
H2_9 C2_9 1_555 1_555
C3_9 C2_9 1_555 1_555
H3_9 C3_9 1_555 1_555
C11_9 H9_9 1_555 1_555
C12_9 C11_9 1_555 1_555
C13_9 C12_9 1_555 1_555
H10_9 C13_9 1_555 1_555
C14_9 C12_9 1_555 1_555
C15_9 C14_9 1_555 1_555
H11_9 C15_9 1_555 1_555
C16_9 C15_9 1_555 1_555
H12_9 C16_9 1_555 1_555
C17_9 C16_9 1_555 1_555
C18_9 C17_9 1_555 1_555
H13_9 C18_9 1_555 1_555
C19_9 C14_9 1_555 1_555
H14_9 C19_9 1_555 1_555
C20_9 C17_9 1_555 1_555
Cu1_13 O1_9 1_555 1_555
N3_9 C11_9 1_555 1_555
N4_5 C13_9 1_555 1_555
O1_9 C20_9 1_555 1_555
O2_9 C20_9 1_555 1_555
C31_9 H23_9 1_555 1_555
C32_9 C31_9 1_555 1_555
C33_9 C32_9 1_555 1_555
C34_9 C32_9 1_555 1_555
C35_9 C34_9 1_555 1_555
H25_9 C35_9 1_555 1_555
C36_9 C35_9 1_555 1_555
H26_9 C36_9 1_555 1_555
C37_9 C36_9 1_555 1_555
C38_9 C37_9 1_555 1_555
H27_9 C38_9 1_555 1_555
C39_9 C34_9 1_555 1_555
H28_9 C39_9 1_555 1_555
C40_9 C37_9 1_555 1_555
N7_9 C31_9 1_555 1_555
O3_9 Cu1_13 1_555 1_555
O4_9 Cu1_13 1_555 1_555
C41_9 H29_9 1_555 1_555
C42_9 C41_9 1_555 1_555
H30_9 C42_9 1_555 1_555
C43_9 C42_9 1_555 1_555
H31_9 C43_9 1_555 1_555
C44_9 C43_9 1_555 1_555
H32_9 C44_9 1_555 1_555
C45_9 C44_9 1_555 1_555
C46_9 C45_9 1_555 1_555
C47_9 C46_9 1_555 1_555
H33_9 C47_9 1_555 1_555
C48_9 C47_9 1_555 1_555
H34_9 C48_9 1_555 1_555
C49_9 C48_9 1_555 1_555
H35_9 C49_9 1_555 1_555
C50_9 C49_9 1_555 1_555
H36_9 C50_9 1_555 1_555
C51_9 H37_9 1_555 1_555
C52_9 C51_9 1_555 1_555
C53_9 C52_9 1_555 1_555
H38_9 C53_9 1_555 1_555
C54_9 C52_9 1_555 1_555
C55_9 C54_9 1_555 1_555
H39_9 C55_9 1_555 1_555
C56_9 C55_9 1_555 1_555
H40_9 C56_9 1_555 1_555
C57_9 C56_9 1_555 1_555
C58_9 C57_9 1_555 1_555
H41_9 C58_9 1_555 1_555
C59_9 C54_9 1_555 1_555
H42_9 C59_9 1_555 1_555
C60_9 C57_9 1_555 1_555
N9_9 C41_9 1_555 1_555
N10_9 C46_9 1_555 1_555
N11_9 C51_9 1_555 1_555
N12_5 C53_9 1_555 1_555
O5_9 Cu1_13 1_555 1_555
O6_9 Cu1_13 1_555 1_555
Pd3_5 N9_9 1_555 1_555
C61_9 H43_9 1_555 1_555
C62_9 C61_9 1_555 1_555
H44_9 C62_9 1_555 1_555
C63_9 C62_9 1_555 1_555
H45_9 C63_9 1_555 1_555
C64_9 C63_9 1_555 1_555
H46_9 C64_9 1_555 1_555
C65_9 C64_9 1_555 1_555
C66_9 C65_9 1_555 1_555
C67_9 C66_9 1_555 1_555
H47_9 C67_9 1_555 1_555
C68_9 C67_9 1_555 1_555
H48_9 C68_9 1_555 1_555
C69_9 C68_9 1_555 1_555
H49_9 C69_9 1_555 1_555
C70_9 C69_9 1_555 1_555
H50_9 C70_9 1_555 1_555
C71_9 H51_9 1_555 1_555
C72_9 C71_9 1_555 1_555
C73_9 C72_9 1_555 1_555
C74_9 C72_9 1_555 1_555
C75_9 C74_9 1_555 1_555
H53_9 C75_9 1_555 1_555
C76_9 C75_9 1_555 1_555
H54_9 C76_9 1_555 1_555
C77_9 C76_9 1_555 1_555
C78_9 C77_9 1_555 1_555
H55_9 C78_9 1_555 1_555
C79_9 C74_9 1_555 1_555
H56_9 C79_9 1_555 1_555
C80_9 C77_9 1_555 1_555
N13_9 C61_9 1_555 1_555
N14_9 C66_9 1_555 1_555
N15_9 C71_9 1_555 1_555
O7_9 Cu1_13 1_555 1_555
O8_9 Cu1_13 1_555 1_555
Pd4_5 N13_9 1_555 1_555
N17_5 Pd3_5 1_555 1_555
N18_5 Pd4_5 1_555 1_555
N20_5 Pd2_5 1_555 1_555
Pd5_5 N12_5 1_555 1_555
Pd7_5 N4_5 1_555 1_555
C18_9 C19_9 1_555 1_555
Cu1_13 O2_9 1_555 1_555
N3_9 N4_5 1_555 1_555
C38_9 C39_9 1_555 1_555
C40_9 O3_9 1_555 1_555
C40_9 O4_9 1_555 1_555
N7_9 Pd2_5 1_555 1_555
C45_9 N9_9 1_555 1_555
C50_9 N10_9 1_555 1_555
C58_9 C59_9 1_555 1_555
C60_9 O5_9 1_555 1_555
C60_9 O6_9 1_555 1_555
N10_9 Pd3_5 1_555 1_555
N11_9 N12_5 1_555 1_555
N11_9 Pd3_5 1_555 1_555
C65_9 N13_9 1_555 1_555
C70_9 N14_9 1_555 1_555
C78_9 C79_9 1_555 1_555
C80_9 O7_9 1_555 1_555
C80_9 O8_9 1_555 1_555
N14_9 Pd4_5 1_555 1_555
N15_9 Pd4_5 1_555 1_555
Pd6_5 N16_5 1_555 1_555
Pd8_5 N8_5 1_555 1_555
H4_9 C4_9 1_555 1_555
C5_9 C4_9 1_555 1_555
C6_9 C5_9 1_555 1_555
C7_9 C6_9 1_555 1_555
H5_9 C7_9 1_555 1_555
C8_9 C7_9 1_555 1_555
H6_9 C8_9 1_555 1_555
C9_9 C8_9 1_555 1_555
H7_9 C9_9 1_555 1_555
C10_9 C9_9 1_555 1_555
H8_9 C10_9 1_555 1_555
N2_9 C6_9 1_555 1_555
Pd1_5 N1_9 1_555 1_555
C22_9 C21_9 1_555 1_555
H16_9 C22_9 1_555 1_555
C23_9 C22_9 1_555 1_555
H17_9 C23_9 1_555 1_555
C24_9 C23_9 1_555 1_555
H18_9 C24_9 1_555 1_555
C25_9 C24_9 1_555 1_555
C26_9 C25_9 1_555 1_555
C27_9 C26_9 1_555 1_555
H19_9 C27_9 1_555 1_555
C28_9 C27_9 1_555 1_555
H20_9 C28_9 1_555 1_555
C29_9 C28_9 1_555 1_555
H21_9 C29_9 1_555 1_555
C30_9 C29_9 1_555 1_555
N5_9 C21_9 1_555 1_555
N6_9 C26_9 1_555 1_555
N19_5 Pd1_5 1_555 1_555
C5_9 N1_9 1_555 1_555
C10_9 N2_9 1_555 1_555
N2_9 Pd1_5 1_555 1_555
C25_9 N5_9 1_555 1_555
C30_9 N6_9 1_555 1_555
H4_10 C4_10 1_555 1_555
C5_10 C4_10 1_555 1_555
C6_10 C5_10 1_555 1_555
C7_10 C6_10 1_555 1_555
H5_10 C7_10 1_555 1_555
C8_10 C7_10 1_555 1_555
H6_10 C8_10 1_555 1_555
C9_10 C8_10 1_555 1_555
H7_10 C9_10 1_555 1_555
C10_10 C9_10 1_555 1_555
H8_10 C10_10 1_555 1_555
N2_10 C6_10 1_555 1_555
Pd1_6 N1_10 1_555 1_555
N19_6 Pd1_6 1_555 1_555
C5_10 N1_10 1_555 1_555
C10_10 N2_10 1_555 1_555
N2_10 Pd1_6 1_555 1_555
C1_10 H1_10 1_555 1_555
C2_10 C1_10 1_555 1_555
H2_10 C2_10 1_555 1_555
C3_10 C2_10 1_555 1_555
H3_10 C3_10 1_555 1_555
C11_10 H9_10 1_555 1_555
C12_10 C11_10 1_555 1_555
C13_10 C12_10 1_555 1_555
H10_10 C13_10 1_555 1_555
C14_10 C12_10 1_555 1_555
C15_10 C14_10 1_555 1_555
H11_10 C15_10 1_555 1_555
C16_10 C15_10 1_555 1_555
H12_10 C16_10 1_555 1_555
C17_10 C16_10 1_555 1_555
C18_10 C17_10 1_555 1_555
H13_10 C18_10 1_555 1_555
C19_10 C14_10 1_555 1_555
H14_10 C19_10 1_555 1_555
C20_10 C17_10 1_555 1_555
Cu1_14 O1_10 1_555 1_555
N3_10 C11_10 1_555 1_555
N4_6 C13_10 1_555 1_555
O1_10 C20_10 1_555 1_555
O2_10 C20_10 1_555 1_555
C61_10 H43_10 1_555 1_555
C62_10 C61_10 1_555 1_555
H44_10 C62_10 1_555 1_555
C63_10 C62_10 1_555 1_555
H45_10 C63_10 1_555 1_555
C64_10 C63_10 1_555 1_555
H46_10 C64_10 1_555 1_555
C65_10 C64_10 1_555 1_555
C66_10 C65_10 1_555 1_555
C67_10 C66_10 1_555 1_555
H47_10 C67_10 1_555 1_555
C68_10 C67_10 1_555 1_555
H48_10 C68_10 1_555 1_555
C69_10 C68_10 1_555 1_555
H49_10 C69_10 1_555 1_555
C70_10 C69_10 1_555 1_555
H50_10 C70_10 1_555 1_555
C71_10 H51_10 1_555 1_555
C72_10 C71_10 1_555 1_555
C73_10 C72_10 1_555 1_555
H52_10 C73_10 1_555 1_555
C74_10 C72_10 1_555 1_555
C75_10 C74_10 1_555 1_555
H53_10 C75_10 1_555 1_555
C76_10 C75_10 1_555 1_555
H54_10 C76_10 1_555 1_555
C77_10 C76_10 1_555 1_555
C78_10 C77_10 1_555 1_555
H55_10 C78_10 1_555 1_555
C79_10 C74_10 1_555 1_555
H56_10 C79_10 1_555 1_555
C80_10 C77_10 1_555 1_555
N13_10 C61_10 1_555 1_555
N14_10 C66_10 1_555 1_555
N15_10 C71_10 1_555 1_555
N16_6 C73_10 1_555 1_555
O7_10 Cu1_14 1_555 1_555
O8_10 Cu1_14 1_555 1_555
Pd4_6 N13_10 1_555 1_555
N18_6 Pd4_6 1_555 1_555
Pd6_6 N16_6 1_555 1_555
Pd7_6 N4_6 1_555 1_555
C18_10 C19_10 1_555 1_555
Cu1_14 O2_10 1_555 1_555
N3_10 N4_6 1_555 1_555
C65_10 N13_10 1_555 1_555
C70_10 N14_10 1_555 1_555
C78_10 C79_10 1_555 1_555
C80_10 O7_10 1_555 1_555
C80_10 O8_10 1_555 1_555
N14_10 Pd4_6 1_555 1_555
N15_10 N16_6 1_555 1_555
N15_10 Pd4_6 1_555 1_555
C31_10 H23_10 1_555 1_555
C32_10 C31_10 1_555 1_555
C33_10 C32_10 1_555 1_555
H24_10 C33_10 1_555 1_555
C34_10 C32_10 1_555 1_555
C35_10 C34_10 1_555 1_555
H25_10 C35_10 1_555 1_555
C36_10 C35_10 1_555 1_555
H26_10 C36_10 1_555 1_555
C37_10 C36_10 1_555 1_555
C38_10 C37_10 1_555 1_555
H27_10 C38_10 1_555 1_555
C39_10 C34_10 1_555 1_555
H28_10 C39_10 1_555 1_555
C40_10 C37_10 1_555 1_555
N7_10 C31_10 1_555 1_555
N8_6 C33_10 1_555 1_555
O3_10 Cu1_15 1_555 1_555
O4_10 Cu1_15 1_555 1_555
C41_10 H29_10 1_555 1_555
C42_10 C41_10 1_555 1_555
H30_10 C42_10 1_555 1_555
C43_10 C42_10 1_555 1_555
H31_10 C43_10 1_555 1_555
C44_10 C43_10 1_555 1_555
H32_10 C44_10 1_555 1_555
C45_10 C44_10 1_555 1_555
C46_10 C45_10 1_555 1_555
C47_10 C46_10 1_555 1_555
H33_10 C47_10 1_555 1_555
C48_10 C47_10 1_555 1_555
H34_10 C48_10 1_555 1_555
C49_10 C48_10 1_555 1_555
H35_10 C49_10 1_555 1_555
C50_10 C49_10 1_555 1_555
H36_10 C50_10 1_555 1_555
C51_10 H37_10 1_555 1_555
C52_10 C51_10 1_555 1_555
C53_10 C52_10 1_555 1_555
H38_10 C53_10 1_555 1_555
C54_10 C52_10 1_555 1_555
C55_10 C54_10 1_555 1_555
H39_10 C55_10 1_555 1_555
C56_10 C55_10 1_555 1_555
H40_10 C56_10 1_555 1_555
C57_10 C56_10 1_555 1_555
C58_10 C57_10 1_555 1_555
H41_10 C58_10 1_555 1_555
C59_10 C54_10 1_555 1_555
H42_10 C59_10 1_555 1_555
C60_10 C57_10 1_555 1_555
N9_10 C41_10 1_555 1_555
N10_10 C46_10 1_555 1_555
N11_10 C51_10 1_555 1_555
N12_6 C53_10 1_555 1_555
O5_10 Cu1_15 1_555 1_555
O6_10 Cu1_15 1_555 1_555
Pd3_6 N9_10 1_555 1_555
N17_6 Pd3_6 1_555 1_555
N20_6 Pd2_6 1_555 1_555
Pd5_6 N12_6 1_555 1_555
Pd8_6 N8_6 1_555 1_555
C38_10 C39_10 1_555 1_555
C40_10 O3_10 1_555 1_555
C40_10 O4_10 1_555 1_555
N7_10 N8_6 1_555 1_555
N7_10 Pd2_6 1_555 1_555
C45_10 N9_10 1_555 1_555
C50_10 N10_10 1_555 1_555
C58_10 C59_10 1_555 1_555
C60_10 O5_10 1_555 1_555
C60_10 O6_10 1_555 1_555
N10_10 Pd3_6 1_555 1_555
N11_10 N12_6 1_555 1_555
N11_10 Pd3_6 1_555 1_555
H32_11 C44_11 1_555 1_555
C45_11 C44_11 1_555 1_555
C46_11 C45_11 1_555 1_555
C47_11 C46_11 1_555 1_555
H33_11 C47_11 1_555 1_555
C48_11 C47_11 1_555 1_555
H34_11 C48_11 1_555 1_555
C49_11 C48_11 1_555 1_555
H35_11 C49_11 1_555 1_555
C50_11 C49_11 1_555 1_555
H36_11 C50_11 1_555 1_555
N10_11 C46_11 1_555 1_555
Pd7_5 N9_11 1_555 1_555
C62_11 C61_11 1_555 1_555
H44_11 C62_11 1_555 1_555
C63_11 C62_11 1_555 1_555
H45_11 C63_11 1_555 1_555
C64_11 C63_11 1_555 1_555
H46_11 C64_11 1_555 1_555
C65_11 C64_11 1_555 1_555
C66_11 C65_11 1_555 1_555
C67_11 C66_11 1_555 1_555
H47_11 C67_11 1_555 1_555
C68_11 C67_11 1_555 1_555
H48_11 C68_11 1_555 1_555
C69_11 C68_11 1_555 1_555
H49_11 C69_11 1_555 1_555
C70_11 C69_11 1_555 1_555
N13_11 C61_11 1_555 1_555
N14_11 C66_11 1_555 1_555
C45_11 N9_11 1_555 1_555
C50_11 N10_11 1_555 1_555
N10_11 Pd7_5 1_555 1_555
C65_11 N13_11 1_555 1_555
C70_11 N14_11 1_555 1_555
C1_11 H1_11 1_555 1_555
C2_11 C1_11 1_555 1_555
H2_11 C2_11 1_555 1_555
C3_11 C2_11 1_555 1_555
H3_11 C3_11 1_555 1_555
C4_11 C3_11 1_555 1_555
H4_11 C4_11 1_555 1_555
C5_11 C4_11 1_555 1_555
C6_11 C5_11 1_555 1_555
C7_11 C6_11 1_555 1_555
H5_11 C7_11 1_555 1_555
C8_11 C7_11 1_555 1_555
H6_11 C8_11 1_555 1_555
C9_11 C8_11 1_555 1_555
H7_11 C9_11 1_555 1_555
C10_11 C9_11 1_555 1_555
H8_11 C10_11 1_555 1_555
C11_11 H9_11 1_555 1_555
C12_11 C11_11 1_555 1_555
C13_11 C12_11 1_555 1_555
H10_11 C13_11 1_555 1_555
C14_11 C12_11 1_555 1_555
C15_11 C14_11 1_555 1_555
H11_11 C15_11 1_555 1_555
C16_11 C15_11 1_555 1_555
H12_11 C16_11 1_555 1_555
C17_11 C16_11 1_555 1_555
C18_11 C17_11 1_555 1_555
H13_11 C18_11 1_555 1_555
C19_11 C14_11 1_555 1_555
H14_11 C19_11 1_555 1_555
C20_11 C17_11 1_555 1_555
Cu1_16 O1_11 1_555 1_555
N1_11 C1_11 1_555 1_555
N2_11 C6_11 1_555 1_555
N3_11 C11_11 1_555 1_555
N17_5 C13_11 1_555 1_555
O1_11 C20_11 1_555 1_555
O2_11 C20_11 1_555 1_555
Pd5_5 N1_11 1_555 1_555
C21_10 H15_11 1_555 1_555
C22_10 C21_10 1_555 1_555
H16_10 C22_10 1_555 1_555
C23_10 C22_10 1_555 1_555
H17_10 C23_10 1_555 1_555
C24_10 C23_10 1_555 1_555
H18_10 C24_10 1_555 1_555
C25_10 C24_10 1_555 1_555
C26_10 C25_10 1_555 1_555
C27_10 C26_10 1_555 1_555
H19_10 C27_10 1_555 1_555
C28_10 C27_10 1_555 1_555
H20_10 C28_10 1_555 1_555
C29_10 C28_10 1_555 1_555
H21_10 C29_10 1_555 1_555
C30_10 C29_10 1_555 1_555
H22_11 C30_10 1_555 1_555
C31_11 H23_11 1_555 1_555
C32_11 C31_11 1_555 1_555
C33_11 C32_11 1_555 1_555
H24_11 C33_11 1_555 1_555
C34_11 C32_11 1_555 1_555
C35_11 C34_11 1_555 1_555
H25_11 C35_11 1_555 1_555
C36_11 C35_11 1_555 1_555
H26_11 C36_11 1_555 1_555
C37_11 C36_11 1_555 1_555
C38_11 C37_11 1_555 1_555
H27_11 C38_11 1_555 1_555
C39_11 C34_11 1_555 1_555
H28_11 C39_11 1_555 1_555
C40_11 C37_11 1_555 1_555
N5_10 C21_10 1_555 1_555
N6_10 C26_10 1_555 1_555
N7_11 C31_11 1_555 1_555
N18_6 C33_11 1_555 1_555
O3_11 Cu1_16 1_555 1_555
O4_11 Cu1_16 1_555 1_555
Pd6_6 N5_10 1_555 1_555
C41_11 H29_11 1_555 1_555
C42_11 C41_11 1_555 1_555
H30_11 C42_11 1_555 1_555
C43_11 C42_11 1_555 1_555
H31_11 C43_11 1_555 1_555
C51_11 H37_11 1_555 1_555
C52_11 C51_11 1_555 1_555
C53_11 C52_11 1_555 1_555
H38_11 C53_11 1_555 1_555
C54_11 C52_11 1_555 1_555
C55_11 C54_11 1_555 1_555
H39_11 C55_11 1_555 1_555
C56_11 C55_11 1_555 1_555
H40_11 C56_11 1_555 1_555
C57_11 C56_11 1_555 1_555
C58_11 C57_11 1_555 1_555
H41_11 C58_11 1_555 1_555
C59_11 C54_11 1_555 1_555
H42_11 C59_11 1_555 1_555
C60_11 C57_11 1_555 1_555
N11_11 C51_11 1_555 1_555
N19_5 C53_11 1_555 1_555
O5_11 Cu1_16 1_555 1_555
O6_11 Cu1_16 1_555 1_555
C71_11 H51_11 1_555 1_555
C72_11 C71_11 1_555 1_555
C73_11 C72_11 1_555 1_555
H52_11 C73_11 1_555 1_555
C74_11 C72_11 1_555 1_555
C75_11 C74_11 1_555 1_555
H53_11 C75_11 1_555 1_555
C76_11 C75_11 1_555 1_555
H54_11 C76_11 1_555 1_555
C77_11 C76_11 1_555 1_555
C78_11 C77_11 1_555 1_555
H55_11 C78_11 1_555 1_555
C79_11 C74_11 1_555 1_555
H56_11 C79_11 1_555 1_555
C80_11 C77_11 1_555 1_555
N15_11 C71_11 1_555 1_555
N20_6 C73_11 1_555 1_555
O7_11 Cu1_16 1_555 1_555
O8_11 Cu1_16 1_555 1_555
C5_11 N1_11 1_555 1_555
C10_11 N2_11 1_555 1_555
C18_11 C19_11 1_555 1_555
Cu1_16 O2_11 1_555 1_555
N2_11 Pd5_5 1_555 1_555
N3_11 N17_5 1_555 1_555
N3_11 Pd5_5 1_555 1_555
C25_10 N5_10 1_555 1_555
C30_10 N6_10 1_555 1_555
C38_11 C39_11 1_555 1_555
C40_11 O3_11 1_555 1_555
C40_11 O4_11 1_555 1_555
N6_10 Pd6_6 1_555 1_555
N7_11 N18_6 1_555 1_555
N7_11 Pd6_6 1_555 1_555
C58_11 C59_11 1_555 1_555
C60_11 O5_11 1_555 1_555
C60_11 O6_11 1_555 1_555
N11_11 N19_5 1_555 1_555
C78_11 C79_11 1_555 1_555
C80_11 O7_11 1_555 1_555
C80_11 O8_11 1_555 1_555
N15_11 N20_6 1_555 1_555
N15_11 Pd8_6 1_555 1_555
C21_11 H15_12 1_555 1_555
C22_11 C21_11 1_555 1_555
H16_11 C22_11 1_555 1_555
C23_11 C22_11 1_555 1_555
H17_11 C23_11 1_555 1_555
C24_11 C23_11 1_555 1_555
H18_11 C24_11 1_555 1_555
C25_11 C24_11 1_555 1_555
C26_11 C25_11 1_555 1_555
C27_11 C26_11 1_555 1_555
H19_11 C27_11 1_555 1_555
C28_11 C27_11 1_555 1_555
H20_11 C28_11 1_555 1_555
C29_11 C28_11 1_555 1_555
H21_11 C29_11 1_555 1_555
C30_11 C29_11 1_555 1_555
H22_12 C30_11 1_555 1_555
C31_12 H23_12 1_555 1_555
C32_12 C31_12 1_555 1_555
C33_12 C32_12 1_555 1_555
C34_12 C32_12 1_555 1_555
C35_12 C34_12 1_555 1_555
H25_12 C35_12 1_555 1_555
C36_12 C35_12 1_555 1_555
H26_12 C36_12 1_555 1_555
C37_12 C36_12 1_555 1_555
C38_12 C37_12 1_555 1_555
H27_12 C38_12 1_555 1_555
C39_12 C34_12 1_555 1_555
H28_12 C39_12 1_555 1_555
C40_12 C37_12 1_555 1_555
N5_11 C21_11 1_555 1_555
N6_11 C26_11 1_555 1_555
N7_12 C31_12 1_555 1_555
O3_12 Cu1_17 1_555 1_555
O4_12 Cu1_17 1_555 1_555
Pd6_5 N5_11 1_555 1_555
C41_12 H29_12 1_555 1_555
C42_12 C41_12 1_555 1_555
H30_12 C42_12 1_555 1_555
C43_12 C42_12 1_555 1_555
H31_12 C43_12 1_555 1_555
C51_12 H37_12 1_555 1_555
C52_12 C51_12 1_555 1_555
C53_12 C52_12 1_555 1_555
H38_12 C53_12 1_555 1_555
C54_12 C52_12 1_555 1_555
C55_12 C54_12 1_555 1_555
H39_12 C55_12 1_555 1_555
C56_12 C55_12 1_555 1_555
H40_12 C56_12 1_555 1_555
C57_12 C56_12 1_555 1_555
C58_12 C57_12 1_555 1_555
H41_12 C58_12 1_555 1_555
C59_12 C54_12 1_555 1_555
H42_12 C59_12 1_555 1_555
C60_12 C57_12 1_555 1_555
N11_12 C51_12 1_555 1_555
N19_6 C53_12 1_555 1_555
O5_12 Cu1_17 1_555 1_555
O6_12 Cu1_17 1_555 1_555
C25_11 N5_11 1_555 1_555
C30_11 N6_11 1_555 1_555
C38_12 C39_12 1_555 1_555
C40_12 O3_12 1_555 1_555
C40_12 O4_12 1_555 1_555
N6_11 Pd6_5 1_555 1_555
N7_12 Pd6_5 1_555 1_555
C58_12 C59_12 1_555 1_555
C60_12 O5_12 1_555 1_555
C60_12 O6_12 1_555 1_555
N11_12 N19_6 1_555 1_555
C1_12 H1_12 1_555 1_555
C2_12 C1_12 1_555 1_555
H2_12 C2_12 1_555 1_555
C3_12 C2_12 1_555 1_555
H3_12 C3_12 1_555 1_555
C4_12 C3_12 1_555 1_555
H4_12 C4_12 1_555 1_555
C5_12 C4_12 1_555 1_555
C6_12 C5_12 1_555 1_555
C7_12 C6_12 1_555 1_555
H5_12 C7_12 1_555 1_555
C8_12 C7_12 1_555 1_555
H6_12 C8_12 1_555 1_555
C9_12 C8_12 1_555 1_555
H7_12 C9_12 1_555 1_555
C10_12 C9_12 1_555 1_555
H8_12 C10_12 1_555 1_555
C11_12 H9_12 1_555 1_555
C12_12 C11_12 1_555 1_555
C13_12 C12_12 1_555 1_555
H10_12 C13_12 1_555 1_555
C14_12 C12_12 1_555 1_555
C15_12 C14_12 1_555 1_555
H11_12 C15_12 1_555 1_555
C16_12 C15_12 1_555 1_555
H12_12 C16_12 1_555 1_555
C17_12 C16_12 1_555 1_555
C18_12 C17_12 1_555 1_555
H13_12 C18_12 1_555 1_555
C19_12 C14_12 1_555 1_555
H14_12 C19_12 1_555 1_555
C20_12 C17_12 1_555 1_555
Cu1_18 O1_12 1_555 1_555
N1_12 C1_12 1_555 1_555
N2_12 C6_12 1_555 1_555
N3_12 C11_12 1_555 1_555
N17_6 C13_12 1_555 1_555
O1_12 C20_12 1_555 1_555
O2_12 C20_12 1_555 1_555
Pd5_6 N1_12 1_555 1_555
C71_12 H51_12 1_555 1_555
C72_12 C71_12 1_555 1_555
C73_12 C72_12 1_555 1_555
C74_12 C72_12 1_555 1_555
C75_12 C74_12 1_555 1_555
H53_12 C75_12 1_555 1_555
C76_12 C75_12 1_555 1_555
H54_12 C76_12 1_555 1_555
C77_12 C76_12 1_555 1_555
C78_12 C77_12 1_555 1_555
H55_12 C78_12 1_555 1_555
C79_12 C74_12 1_555 1_555
H56_12 C79_12 1_555 1_555
C80_12 C77_12 1_555 1_555
N15_12 C71_12 1_555 1_555
O7_12 Cu1_18 1_555 1_555
O8_12 Cu1_18 1_555 1_555
C5_12 N1_12 1_555 1_555
C10_12 N2_12 1_555 1_555
C18_12 C19_12 1_555 1_555
Cu1_18 O2_12 1_555 1_555
N2_12 Pd5_6 1_555 1_555
N3_12 N17_6 1_555 1_555
N3_12 Pd5_6 1_555 1_555
C78_12 C79_12 1_555 1_555
C80_12 O7_12 1_555 1_555
C80_12 O8_12 1_555 1_555
N15_12 Pd8_5 1_555 1_555
H32_12 C44_12 1_555 1_555
C45_12 C44_12 1_555 1_555
C46_12 C45_12 1_555 1_555
C47_12 C46_12 1_555 1_555
H33_12 C47_12 1_555 1_555
C48_12 C47_12 1_555 1_555
H34_12 C48_12 1_555 1_555
C49_12 C48_12 1_555 1_555
H35_12 C49_12 1_555 1_555
C50_12 C49_12 1_555 1_555
H36_12 C50_12 1_555 1_555
N10_12 C46_12 1_555 1_555
Pd7_6 N9_12 1_555 1_555
C45_12 N9_12 1_555 1_555
C50_12 N10_12 1_555 1_555
N10_12 Pd7_6 1_555 1_555
C22_12 C21_12 1_555 1_555
H16_12 C22_12 1_555 1_555
C23_12 C22_12 1_555 1_555
H17_12 C23_12 1_555 1_555
C24_12 C23_12 1_555 1_555
H18_12 C24_12 1_555 1_555
C25_12 C24_12 1_555 1_555
C26_12 C25_12 1_555 1_555
C27_12 C26_12 1_555 1_555
H19_12 C27_12 1_555 1_555
C28_12 C27_12 1_555 1_555
H20_12 C28_12 1_555 1_555
C29_12 C28_12 1_555 1_555
H21_12 C29_12 1_555 1_555
C30_12 C29_12 1_555 1_555
N5_12 C21_12 1_555 1_555
N6_12 C26_12 1_555 1_555
C25_12 N5_12 1_555 1_555
C30_12 N6_12 1_555 1_555
C62_12 C61_12 1_555 1_555
H44_12 C62_12 1_555 1_555
C63_12 C62_12 1_555 1_555
H45_12 C63_12 1_555 1_555
C64_12 C63_12 1_555 1_555
H46_12 C64_12 1_555 1_555
C65_12 C64_12 1_555 1_555
C66_12 C65_12 1_555 1_555
C67_12 C66_12 1_555 1_555
H47_12 C67_12 1_555 1_555
C68_12 C67_12 1_555 1_555
H48_12 C68_12 1_555 1_555
C69_12 C68_12 1_555 1_555
H49_12 C69_12 1_555 1_555
C70_12 C69_12 1_555 1_555
N13_12 C61_12 1_555 1_555
N14_12 C66_12 1_555 1_555
C65_12 N13_12 1_555 1_555
C70_12 N14_12 1_555 1_555
N21 O9 1_555 1_555
O10 N21 1_555 1_555
N21_2 O9_2 1_555 1_555
O11 N21_2 1_555 1_555
N21_3 O9_3 1_555 1_555
O11_2 N21_3 1_555 1_555
N21_4 O9_4 1_555 1_555
O10_2 N21_4 1_555 1_555
N21_5 O9_5 1_555 1_555
O10_3 N21_5 1_555 1_555
O11_3 N21_5 1_555 1_555
N21_6 O9_6 1_555 1_555
O10_4 N21_6 1_555 1_555
O11_4 N21_6 1_555 1_555
N21_7 O9_7 1_555 1_555
O10_5 N21_7 1_555 1_555
N21_8 O9_8 1_555 1_555
O11_5 N21_8 1_555 1_555
N21_9 O9_9 1_555 1_555
O11_6 N21_9 1_555 1_555
N21_10 O9_10 1_555 1_555
O10_6 N21_10 1_555 1_555
N21_11 O9_11 1_555 1_555
O10_7 N21_11 1_555 1_555
O11_7 N21_11 1_555 1_555
N21_12 O9_12 1_555 1_555
O10_8 N21_12 1_555 1_555
O11_8 N21_12 1_555 1_555
N21_13 O9_13 1_555 1_555
O10_9 N21_13 1_555 1_555
N21_14 O9_14 1_555 1_555
O11_9 N21_14 1_555 1_555
N21_15 O9_15 1_555 1_555
O11_10 N21_15 1_555 1_555
N21_16 O9_16 1_555 1_555
O10_10 N21_16 1_555 1_555
N21_17 O9_17 1_555 1_555
O10_11 N21_17 1_555 1_555
O11_11 N21_17 1_555 1_555
N21_18 O9_18 1_555 1_555
O10_12 N21_18 1_555 1_555
O11_12 N21_18 1_555 1_555
N21_19 O9_19 1_555 1_555
O10_13 N21_19 1_555 1_555
O11_13 N21_19 1_555 1_555
N21_20 O9_20 1_555 1_555
O10_14 N21_20 1_555 1_555
N21_21 O9_21 1_555 1_555
O11_14 N21_21 1_555 1_555
N21_22 O9_22 1_555 1_555
O10_15 N21_22 1_555 1_555
O11_15 N21_22 1_555 1_555
N21_23 O9_23 1_555 1_555
O11_16 N21_23 1_555 1_555
N21_24 O9_24 1_555 1_555
O10_16 N21_24 1_555 1_555
N21_25 O9_25 1_555 1_555
O10_17 N21_25 1_555 1_555
O11_17 N21_25 1_555 1_555
N21_26 O9_26 1_555 1_555
O10_18 N21_26 1_555 1_555
N21_27 O9_27 1_555 1_555
O11_18 N21_27 1_555 1_555
N21_28 O9_28 1_555 1_555
O10_19 N21_28 1_555 1_555
O11_19 N21_28 1_555 1_555
N21_29 O9_29 1_555 1_555
O11_20 N21_29 1_555 1_555
N21_30 O9_30 1_555 1_555
O10_20 N21_30 1_555 1_555
N21_31 O9_31 1_555 1_555
O10_21 N21_31 1_555 1_555
O11_21 N21_31 1_555 1_555
N21_32 O9_32 1_555 1_555
O10_22 N21_32 1_555 1_555
N21_33 O9_33 1_555 1_555
O11_22 N21_33 1_555 1_555
N21_34 O9_34 1_555 1_555
O10_23 N21_34 1_555 1_555
O11_23 N21_34 1_555 1_555
N21_35 O9_35 1_555 1_555
O11_24 N21_35 1_555 1_555
N21_36 O9_36 1_555 1_555
O10_24 N21_36 1_555 1_555

#END
