
###############################################################################
#
# This file contains modified crystal structure data generated from the
# MOF subset of the Cambridge Structural Database (CSD) v543 
# hosted by the Cambridge Crystallographic Data Centre (CCDC).
#
# This work is licensed under the Creative Commons
# Attribution-NonCommercial-ShareAlike 4.0 International License.
# To view a copy of this license, visit
# http://creativecommons.org/licenses/by-nc-sa/4.0/
# or send a letter to
# Creative Commons, PO Box 1866, Mountain View, CA 94042, USA.
#
# CIF created using the CSD Python API on 29 September 2022
# The structure has been converted into the P1 space group
# The structure has a 3D framework
# The original CSD entry LADHIJ is in the monoclinic crystal system
# The framework has been calculated to contain at least 10.0% void space
# The void calculation uses a probe of radius 1.32A, grid spacing 0.4
# H atom positions have been added when not included in the experimental data
#
###############################################################################

data_LADHIJ
_chemical_formula_moiety         '(C168 H212 N44 O52 Zn16)n'
_symmetry_cell_setting           triclinic
_symmetry_space_group_name_H-M   'P 1'
_symmetry_Int_Tables_number      1
_space_group_name_Hall           'P 1'
loop_
_symmetry_equiv_pos_site_id
_symmetry_equiv_pos_as_xyz
1 x,y,z
_cell_length_a                   14.8858(11)
_cell_length_b                   23.0550(18)
_cell_length_c                   17.7834(14)
_cell_angle_alpha                90
_cell_angle_beta                 108.9050(10)
_cell_angle_gamma                90
_cell_volume                     5773.9
loop_
_atom_site_label
_atom_site_type_symbol
_atom_site_fract_x
_atom_site_fract_y
_atom_site_fract_z
H11 H 0.3102 0.0074 0.9548
C1 C 0.4667(9) 0.7541(8) 0.0925(8)
H1 H 0.4611 0.7505 0.0373
H2 H 0.5255 0.7371 0.1246
H3 H 0.4657 0.7944 0.1058
C3 C 0.3900(7) 0.7252(6) 0.1067(7)
H7 H 0.3909 0.7341 0.1602
H8 H 0.3992 0.6837 0.1039
H9 H 0.0010 0.9077 0.1350
H10 H 0.0442 0.9580 0.0982
H13 H 0.3950 0.9692 0.0063
H16 H 0.3011 0.8889 0.0418
H17 H 0.2150 0.9317 0.0097
N1 N 0.1577(4) 0.8153(2) 0.0283(3)
C10 C 0.1164(5) 0.8547(3) 0.0766(4)
H22 H 0.1072 0.8322 0.1196
H23 H 0.1628 0.8846 0.1004
C11 C 0.2462(5) 0.7873(4) 0.0861(4)
H24 H 0.2292 0.7698 0.1292
H25 H 0.2924 0.8175 0.1088
C12 C 0.0567(5) 0.7277(3) 0.0387(4)
H26 H 0.0334 0.7494 0.0754
H27 H 0.1111 0.7050 0.0695
C14 C 0.0240(6) 0.8838(4) 0.0325(5)
C16 C 0.2932(7) 0.7408(6) 0.0492(6)
H35 H 0.2534 0.7065 0.0368
H36 H 0.3000 0.7554 0.0001
C5 C 0.3498(5) 0.9746(3) 0.9542(5)
H12 H 0.3828 0.9814 0.9168
C6 C 0.2884(5) 0.9205(3) 0.9301(4)
H14 H 0.3260 0.8896 0.9183
H15 H 0.2360 0.9287 0.8822
C7 C 0.2492(5) 0.9002(3) 0.9950(4)
C8 C 0.0863(4) 0.7695(3) 0.9845(4)
H18 H 0.1135 0.7473 0.9508
H19 H 0.0301 0.7889 0.9502
C9 C 0.1836(5) 0.8496(3) 0.9655(4)
H20 H 0.2130 0.8233 0.9377
H21 H 0.1255 0.8638 0.9270
H31 H 0.0298 0.9036 0.9862
C2 C 0.9024(8) 0.9513(5) 0.0489(7)
H5 H 0.8936 0.9834 0.0802
H6 H 0.8556 0.9220 0.0466
C4 C 0.9981(7) 0.9267(4) 0.0856(5)
H29 H 0.9764 0.6527 0.0189
H30 H 0.9743 0.8549 0.0145
H32 H 0.8686 0.7274 0.0101
H4 H 0.8956 0.9644 0.9962
C13 C 0.9787(5) 0.6873(3) 0.9884(5)
H28 H 0.9937 0.6754 0.9415
C15 C 0.8841(6) 0.7163(5) 0.9637(6)
H33 H 0.8368 0.6900 0.9323
H34 H 0.8860 0.7501 0.9329
C2_2 C 0.0976(8) 0.4513(5) 0.4511(7)
H4_2 H 0.1044 0.4644 0.5038
H5_2 H 0.1064 0.4834 0.4198
H6_2 H 0.1444 0.4220 0.4534
C4_2 C 0.0019(7) 0.4267(4) 0.4144(5)
C13_2 C 0.0213(5) 0.1873(3) 0.5116(5)
H28_2 H 0.0063 0.1754 0.5585
H29_2 H 0.0236 0.1527 0.4811
H30_2 H 0.0257 0.3549 0.4855
C15_2 C 0.1159(6) 0.2163(5) 0.5363(6)
H32_2 H 0.1314 0.2274 0.4899
H33_2 H 0.1632 0.1900 0.5677
H34_2 H 0.1140 0.2501 0.5671
C1_2 C 0.5333(9) 0.2541(8) 0.4075(8)
H1_2 H 0.5389 0.2505 0.4627
H2_2 H 0.4745 0.2371 0.3754
H3_2 H 0.5343 0.2944 0.3942
C3_2 C 0.6100(7) 0.2252(6) 0.3933(7)
H7_2 H 0.6091 0.2341 0.3398
H8_2 H 0.6008 0.1837 0.3961
H9_2 H 0.9990 0.4077 0.3650
H10_2 H 0.9558 0.4580 0.4018
C5_2 C 0.6502(5) 0.4746(3) 0.5458(5)
H11_2 H 0.6898 0.5074 0.5452
H12_2 H 0.6172 0.4814 0.5832
H13_2 H 0.6050 0.4692 0.4937
C6_2 C 0.7116(5) 0.4205(3) 0.5699(4)
H14_2 H 0.6740 0.3896 0.5817
H15_2 H 0.7640 0.4287 0.6178
C7_2 C 0.7508(5) 0.4002(3) 0.5050(4)
H16_2 H 0.6989 0.3889 0.4582
H17_2 H 0.7850 0.4317 0.4903
C8_2 C 0.9137(4) 0.2695(3) 0.5155(4)
H18_2 H 0.8865 0.2473 0.5492
H19_2 H 0.9699 0.2889 0.5498
N1_2 N 0.8423(4) 0.3153(2) 0.4717(3)
C9_2 C 0.8164(5) 0.3496(3) 0.5345(4)
H20_2 H 0.7870 0.3233 0.5623
H21_2 H 0.8745 0.3638 0.5730
C10_2 C 0.8836(5) 0.3547(3) 0.4234(4)
H22_2 H 0.8928 0.3322 0.3804
H23_2 H 0.8372 0.3846 0.3996
C11_2 C 0.7538(5) 0.2873(4) 0.4139(4)
H24_2 H 0.7708 0.2698 0.3708
H25_2 H 0.7076 0.3175 0.3912
C12_2 C 0.9433(5) 0.2277(3) 0.4613(4)
H26_2 H 0.9666 0.2494 0.4246
H27_2 H 0.8889 0.2050 0.4305
C14_2 C 0.9760(6) 0.3838(4) 0.4675(5)
H31_2 H 0.9702 0.4036 0.5138
C16_2 C 0.7068(7) 0.2408(6) 0.4508(6)
H35_2 H 0.7466 0.2065 0.4632
H36_2 H 0.7000 0.2554 0.4999
H4_3 H 0.1044 0.0356 0.0038
C13_3 C 0.0213(5) 0.3127(3) 0.0116(5)
H28_3 H 0.0063 0.3246 0.0585
C15_3 C 0.1159(6) 0.2837(5) 0.0363(6)
H33_3 H 0.1632 0.3100 0.0677
H34_3 H 0.1140 0.2499 0.0671
C2_3 C 0.0976(8) 0.0487(5) 0.9511(7)
H5_3 H 0.1064 0.0166 0.9198
H6_3 H 0.1444 0.0780 0.9534
C4_3 C 0.0019(7) 0.0733(4) 0.9144(5)
H29_3 H 0.0236 0.3473 0.9811
H30_3 H 0.0257 0.1451 0.9855
H32_3 H 0.1314 0.2726 0.9899
C5_3 C 0.6502(5) 0.0254(3) 0.0458(5)
H12_3 H 0.6172 0.0186 0.0832
C6_3 C 0.7116(5) 0.0795(3) 0.0699(4)
H14_3 H 0.6740 0.1104 0.0817
H15_3 H 0.7640 0.0713 0.1178
C7_3 C 0.7508(5) 0.0998(3) 0.0050(4)
C8_3 C 0.9137(4) 0.2305(3) 0.0155(4)
H18_3 H 0.8865 0.2527 0.0492
H19_3 H 0.9699 0.2111 0.0498
C9_3 C 0.8164(5) 0.1504(3) 0.0345(4)
H20_3 H 0.7870 0.1767 0.0623
H21_3 H 0.8745 0.1362 0.0730
H31_3 H 0.9702 0.0964 0.0138
C1_3 C 0.5333(9) 0.2459(8) 0.9075(8)
H1_3 H 0.5389 0.2495 0.9627
H2_3 H 0.4745 0.2629 0.8754
H3_3 H 0.5343 0.2056 0.8942
C3_3 C 0.6100(7) 0.2748(6) 0.8933(7)
H7_3 H 0.6091 0.2659 0.8398
H8_3 H 0.6008 0.3163 0.8961
H9_3 H 0.9990 0.0923 0.8650
H10_3 H 0.9558 0.0420 0.9018
H13_3 H 0.6050 0.0308 0.9937
H16_3 H 0.6989 0.1111 0.9582
H17_3 H 0.7850 0.0683 0.9903
N1_3 N 0.8423(4) 0.1847(2) 0.9717(3)
C10_3 C 0.8836(5) 0.1453(3) 0.9234(4)
H22_3 H 0.8928 0.1678 0.8804
H23_3 H 0.8372 0.1154 0.8996
C11_3 C 0.7538(5) 0.2127(4) 0.9139(4)
H24_3 H 0.7708 0.2302 0.8708
H25_3 H 0.7076 0.1825 0.8912
C12_3 C 0.9433(5) 0.2723(3) 0.9613(4)
H26_3 H 0.9666 0.2506 0.9246
H27_3 H 0.8889 0.2950 0.9305
C14_3 C 0.9760(6) 0.1162(4) 0.9675(5)
C16_3 C 0.7068(7) 0.2592(6) 0.9508(6)
H35_3 H 0.7466 0.2935 0.9632
H36_3 H 0.7000 0.2446 0.9999
H11_3 H 0.6898 0.9926 0.0452
C1_4 C 0.4667(9) 0.7459(8) 0.5925(8)
H1_4 H 0.4611 0.7495 0.5373
H2_4 H 0.5255 0.7629 0.6246
H3_4 H 0.4657 0.7056 0.6058
C3_4 C 0.3900(7) 0.7748(6) 0.6067(7)
H7_4 H 0.3909 0.7659 0.6602
H8_4 H 0.3992 0.8163 0.6039
H9_4 H 0.0010 0.5923 0.6350
H10_4 H 0.0442 0.5420 0.5982
C5_4 C 0.3498(5) 0.5254(3) 0.4542(5)
H11_4 H 0.3102 0.4926 0.4548
H12_4 H 0.3828 0.5186 0.4168
H13_4 H 0.3950 0.5308 0.5063
C6_4 C 0.2884(5) 0.5795(3) 0.4301(4)
H14_4 H 0.3260 0.6104 0.4183
H15_4 H 0.2360 0.5713 0.3822
C7_4 C 0.2492(5) 0.5998(3) 0.4950(4)
H16_4 H 0.3011 0.6111 0.5418
H17_4 H 0.2150 0.5683 0.5097
C8_4 C 0.0863(4) 0.7305(3) 0.4845(4)
H18_4 H 0.1135 0.7527 0.4508
H19_4 H 0.0301 0.7111 0.4502
N1_4 N 0.1577(4) 0.6847(2) 0.5283(3)
C9_4 C 0.1836(5) 0.6504(3) 0.4655(4)
H20_4 H 0.2130 0.6767 0.4377
H21_4 H 0.1255 0.6362 0.4270
C10_4 C 0.1164(5) 0.6453(3) 0.5766(4)
H22_4 H 0.1072 0.6678 0.6196
H23_4 H 0.1628 0.6154 0.6004
C11_4 C 0.2462(5) 0.7127(4) 0.5861(4)
H24_4 H 0.2292 0.7302 0.6292
H25_4 H 0.2924 0.6825 0.6088
C12_4 C 0.0567(5) 0.7723(3) 0.5387(4)
H26_4 H 0.0334 0.7506 0.5754
H27_4 H 0.1111 0.7950 0.5695
C14_4 C 0.0240(6) 0.6162(4) 0.5325(5)
H31_4 H 0.0298 0.5964 0.4862
C16_4 C 0.2932(7) 0.7592(6) 0.5492(6)
H35_4 H 0.2534 0.7935 0.5368
H36_4 H 0.3000 0.7446 0.5001
C2_4 C 0.9024(8) 0.5487(5) 0.5489(7)
H4_4 H 0.8956 0.5356 0.4962
H5_4 H 0.8936 0.5166 0.5802
H6_4 H 0.8556 0.5780 0.5466
C4_4 C 0.9981(7) 0.5733(4) 0.5856(5)
C13_4 C 0.9787(5) 0.8127(3) 0.4884(5)
H28_4 H 0.9937 0.8246 0.4415
H29_4 H 0.9764 0.8473 0.5189
H30_4 H 0.9743 0.6451 0.5145
C15_4 C 0.8841(6) 0.7837(5) 0.4637(6)
H32_4 H 0.8686 0.7726 0.5101
H33_4 H 0.8368 0.8100 0.4323
H34_4 H 0.8860 0.7499 0.4329
Zn9 Zn 0.00145(4) 0.96277(2) 0.70098(4)
H41 H 0.7762 0.0135 0.2439
Zn10 Zn 0.99855(4) 0.03723(2) 0.29902(4)
C17 C 0.6498(4) 0.0816(2) 0.7622(4)
H37 H 0.6258 0.1192 0.7577
C18 C 0.8571(3) 0.0054(2) 0.7319(4)
C19 C 0.7703(3) 0.0151(2) 0.7549(3)
C20 C 0.7324(4) 0.0709(2) 0.7460(4)
H38 H 0.7631 0.1009 0.7292
C22 C 0.6014(3) 0.0369(2) 0.7852(3)
O6 O 0.5102(3) 0.0873(2) 0.8503(3)
O11 O 0.8832(3) 0.04309(18) 0.6949(3)
O13 O 0.4326(3) 0.03624(19) 0.7470(3)
C40 C 0.5096(4) 0.0525(3) 0.7963(4)
Zn7 Zn 0.36698(4) 0.10235(2) 0.81181(3)
N15 N 0.0975(3) 0.02596(19) 0.7348(3)
Zn2 Zn 0.81050(4) 0.79939(2) 0.19252(3)
O8 O 0.7941(2) 0.71328(16) 0.1437(2)
N2 N 0.8360(3) 0.88788(18) 0.2321(3)
N3 N 0.7086(3) 0.82410(19) 0.0872(3)
N5 N 0.7656(3) 0.92924(18) 0.2252(3)
N9 N 0.6396(3) 0.86449(18) 0.0844(3)
N10 N 0.9025(3) 0.97404(19) 0.2652(3)
C25 C 0.8079(3) 0.9786(2) 0.2444(3)
C26 C 0.9158(3) 0.9170(2) 0.2571(3)
H42 H 0.9754 0.9000 0.2679
C30 C 0.6884(3) 0.8047(2) 0.0140(3)
C32 C 0.5845(3) 0.8669(2) 0.0109(3)
Zn8 Zn 0.63302(4) 0.89765(2) 0.18819(3)
O14 O 0.9381(2) 0.76029(17) 0.2891(2)
O15 O 0.9468(2) 0.79719(16) 0.1780(3)
N13 N 0.7170(3) 0.78504(18) 0.2542(3)
H52 H 0.857649 0.695608 0.153159
H53 H 0.757192 0.689316 0.169724
C21 C 0.7224(3) 0.9706(2) 0.7779(3)
H39 H 0.7475 0.9333 0.7839
Zn1 Zn 0.55487(4) 0.82018(2) 0.84723(3)
Zn3 Zn 0.63302(4) 0.60235(2) 0.68819(3)
O1 O 0.4158(2) 0.82035(15) 0.8121(2)
O5 O 0.5348(3) 0.94151(17) 0.8558(2)
O7 O 0.6038(3) 0.88142(16) 0.7931(3)
N4 N 0.6479(3) 0.67503(18) 0.7545(3)
O9 O 0.9008(2) 0.95720(16) 0.7512(3)
N6 N 0.6221(3) 0.75494(18) 0.8127(3)
O10 O 0.0909(3) 0.89791(16) 0.7296(3)
N7 N 0.6115(3) 0.83082(19) 0.9634(3)
N8 N 0.7170(3) 0.71496(18) 0.7542(3)
O12 O 0.4409(3) 0.73246(17) 0.8633(3)
C23 C 0.6378(3) 0.9810(2) 0.7921(3)
C24 C 0.5943(3) 0.7006(2) 0.7900(3)
H40 H 0.5423 0.6829 0.7985
C27 C 0.1207(3) 0.7984(2) 0.7541(3)
C28 C 0.2177(3) 0.8075(2) 0.7744(3)
H43 H 0.2399 0.8434 0.7644
C29 C 0.6988(3) 0.7619(2) 0.7888(3)
H44 H 0.7345 0.7957 0.7960
H45 H 0.7234 0.7763 0.9989
C31 C 0.0531(3) 0.8477(2) 0.7206(3)
H46 H 0.5320 0.8912 0.9932
C33 C 0.5870(3) 0.9318(2) 0.8162(3)
C34 C 0.1503(3) 0.7010(2) 0.8036(3)
H47 H 0.1278 0.6651 0.8132
C35 C 0.2817(3) 0.7644(2) 0.8092(3)
C36 C 0.0867(3) 0.7442(2) 0.7665(3)
C37 C 0.2471(3) 0.7110(2) 0.8264(3)
H48 H 0.2893 0.6823 0.8532
C39 C 0.3865(3) 0.7720(2) 0.8303(3)
Zn6 Zn 0.81050(4) 0.70061(2) 0.69252(3)
O16 O 0.4898(3) 0.5873(2) 0.6497(3)
N12 N 0.7656(3) 0.57076(18) 0.7252(3)
N14 N 0.6396(3) 0.63551(18) 0.5844(3)
O19 O 0.5674(3) 0.53624(19) 0.7530(3)
O2 O 0.9685(2) 0.83853(15) 0.6882(2)
O3 O 0.9381(2) 0.73971(17) 0.7891(2)
O4 O 0.9468(2) 0.70281(16) 0.6780(3)
N11 N 0.9394(4) 0.9581(2) 0.5862(3)
C38 C 0.9834(3) 0.7292(2) 0.7429(3)
C41 C 0.8103(7) 0.9360(5) 0.4858(5)
H49 H 0.7692 0.9691 0.4738
H50 H 0.7731 0.9012 0.4715
H51 H 0.8540 0.9381 0.4563
C42 C 0.8569(7) 0.9351(4) 0.5605(5)
O2_2 O 0.0315(2) 0.33853(15) 0.8118(2)
O3_2 O 0.0619(2) 0.23971(17) 0.7109(2)
O4_2 O 0.0532(2) 0.20281(16) 0.8220(3)
N11_2 N 0.0606(4) 0.4581(2) 0.9138(3)
C38_2 C 0.0166(3) 0.2292(2) 0.7571(3)
C42_2 C 0.1431(7) 0.4351(4) 0.9395(5)
Zn5 Zn 0.18950(4) 0.20061(2) 0.80748(3)
O17 O 0.0992(2) 0.45720(16) 0.7488(3)
O18 O 0.1168(3) 0.54309(18) 0.8051(3)
C17_2 C 0.3502(4) 0.5816(2) 0.7378(4)
H37_2 H 0.3742 0.6192 0.7423
C18_2 C 0.1429(3) 0.5054(2) 0.7681(4)
C19_2 C 0.2297(3) 0.5151(2) 0.7451(3)
C20_2 C 0.2676(4) 0.5709(2) 0.7540(4)
H38_2 H 0.2369 0.6009 0.7708
C21_2 C 0.2776(3) 0.4706(2) 0.7221(3)
H39_2 H 0.2525 0.4333 0.7161
C22_2 C 0.3986(3) 0.5369(2) 0.7148(3)
Zn1_2 Zn 0.44513(4) 0.32018(2) 0.65277(3)
Zn2_2 Zn 0.18950(4) 0.29939(2) 0.30748(3)
Zn4 Zn 0.99855(4) 0.46277(2) 0.79902(4)
O1_2 O 0.5842(2) 0.32035(15) 0.6879(2)
O5_2 O 0.4652(3) 0.44151(17) 0.6442(2)
O7_2 O 0.3962(3) 0.38142(16) 0.7069(3)
O8_2 O 0.2059(2) 0.21328(16) 0.3563(2)
N2_2 N 0.1640(3) 0.38788(18) 0.2679(3)
N3_2 N 0.2914(3) 0.32410(19) 0.4128(3)
N4_2 N 0.3521(3) 0.17503(18) 0.7455(3)
N5_2 N 0.2344(3) 0.42924(18) 0.2748(3)
N6_2 N 0.3779(3) 0.25494(18) 0.6873(3)
O10_2 O 0.9091(3) 0.39791(16) 0.7704(3)
N7_2 N 0.3885(3) 0.33082(19) 0.5366(3)
N8_2 N 0.2830(3) 0.21496(18) 0.7458(3)
O12_2 O 0.5591(3) 0.23246(17) 0.6367(3)
N9_2 N 0.3604(3) 0.36449(18) 0.4156(3)
N10_2 N 0.0975(3) 0.47404(19) 0.2348(3)
C23_2 C 0.3622(3) 0.4810(2) 0.7079(3)
C24_2 C 0.4057(3) 0.2006(2) 0.7100(3)
H40_2 H 0.4577 0.1829 0.7015
C25_2 C 0.1921(3) 0.4786(2) 0.2556(3)
H41_2 H 0.2238 0.5135 0.2561
C26_2 C 0.0842(3) 0.4170(2) 0.2429(3)
H42_2 H 0.0246 0.4000 0.2321
C27_2 C 0.8793(3) 0.2984(2) 0.7459(3)
C28_2 C 0.7823(3) 0.3075(2) 0.7256(3)
H43_2 H 0.7601 0.3434 0.7356
C29_2 C 0.3012(3) 0.2619(2) 0.7112(3)
H44_2 H 0.2655 0.2957 0.7040
C30_2 C 0.3116(3) 0.3047(2) 0.4860(3)
H45_2 H 0.2766 0.2763 0.5011
C31_2 C 0.9469(3) 0.3477(2) 0.7794(3)
C32_2 C 0.4155(3) 0.3669(2) 0.4891(3)
H46_2 H 0.4680 0.3912 0.5068
C33_2 C 0.4130(3) 0.4318(2) 0.6838(3)
C34_2 C 0.8497(3) 0.2010(2) 0.6964(3)
H47_2 H 0.8722 0.1651 0.6868
C35_2 C 0.7183(3) 0.2644(2) 0.6908(3)
C36_2 C 0.9133(3) 0.2442(2) 0.7335(3)
C37_2 C 0.7529(3) 0.2110(2) 0.6736(3)
H48_2 H 0.7107 0.1823 0.6468
C39_2 C 0.6135(3) 0.2720(2) 0.6697(3)
C40_2 C 0.4904(4) 0.5525(3) 0.7037(4)
Zn8_2 Zn 0.36698(4) 0.39765(2) 0.31181(3)
Zn10_2 Zn 0.00145(4) 0.53723(2) 0.20098(4)
O14_2 O 0.0619(2) 0.26029(17) 0.2109(2)
O15_2 O 0.0532(2) 0.29719(16) 0.3220(3)
N12_2 N 0.2344(3) 0.07076(18) 0.7748(3)
N13_2 N 0.2830(3) 0.28504(18) 0.2458(3)
N14_2 N 0.3604(3) 0.13551(18) 0.9156(3)
N15_2 N 0.9025(3) 0.52596(19) 0.7652(3)
H52_2 H 0.142351 0.195608 0.346841
H53_2 H 0.242808 0.189316 0.330276
O2_3 O 0.0315(2) 0.16147(15) 0.3118(2)
N11_3 N 0.0606(4) 0.0419(2) 0.4138(3)
C38_3 C 0.0166(3) 0.2708(2) 0.2571(3)
C41_2 C 0.1897(7) 0.0640(5) 0.5142(5)
H49_2 H 0.2308 0.0309 0.5262
H50_2 H 0.2269 0.0988 0.5285
H51_2 H 0.1460 0.0619 0.5437
C42_3 C 0.1431(7) 0.0649(4) 0.4395(5)
O17_2 O 0.0992(2) 0.04280(16) 0.2488(3)
O18_2 O 0.1168(3) 0.95691(18) 0.3051(3)
C21_3 C 0.2776(3) 0.0294(2) 0.2221(3)
H39_3 H 0.2525 0.0667 0.2161
Zn1_3 Zn 0.44513(4) 0.17982(2) 0.15277(3)
O1_3 O 0.5842(2) 0.17965(15) 0.1879(2)
O5_3 O 0.4652(3) 0.05849(17) 0.1442(2)
O7_3 O 0.3962(3) 0.11858(16) 0.2069(3)
N4_3 N 0.3521(3) 0.32497(18) 0.2455(3)
N6_3 N 0.3779(3) 0.24506(18) 0.1873(3)
O10_3 O 0.9091(3) 0.10209(16) 0.2704(3)
N7_3 N 0.3885(3) 0.16918(19) 0.0366(3)
O12_3 O 0.5591(3) 0.26754(17) 0.1367(3)
C23_3 C 0.3622(3) 0.0190(2) 0.2079(3)
C24_3 C 0.4057(3) 0.2994(2) 0.2100(3)
H40_3 H 0.4577 0.3171 0.2015
C27_3 C 0.8793(3) 0.2016(2) 0.2459(3)
C28_3 C 0.7823(3) 0.1925(2) 0.2256(3)
H43_3 H 0.7601 0.1566 0.2356
C29_3 C 0.3012(3) 0.2381(2) 0.2112(3)
H44_3 H 0.2655 0.2043 0.2040
H45_3 H 0.2766 0.2237 0.0011
C31_3 C 0.9469(3) 0.1523(2) 0.2794(3)
H46_3 H 0.4680 0.1088 0.0068
C33_3 C 0.4130(3) 0.0682(2) 0.1838(3)
C34_3 C 0.8497(3) 0.2990(2) 0.1964(3)
H47_3 H 0.8722 0.3349 0.1868
C35_3 C 0.7183(3) 0.2356(2) 0.1908(3)
C36_3 C 0.9133(3) 0.2558(2) 0.2335(3)
C37_3 C 0.7529(3) 0.2890(2) 0.1736(3)
H48_3 H 0.7107 0.3177 0.1468
C39_3 C 0.6135(3) 0.2280(2) 0.1697(3)
O16_2 O 0.5102(3) 0.4127(2) 0.3503(3)
O19_2 O 0.4326(3) 0.46376(19) 0.2470(3)
O8_3 O 0.2059(2) 0.28672(16) 0.8563(2)
N2_3 N 0.1640(3) 0.11212(18) 0.7679(3)
N3_3 N 0.2914(3) 0.17590(19) 0.9128(3)
C25_3 C 0.1921(3) 0.0214(2) 0.7556(3)
C26_3 C 0.0842(3) 0.0830(2) 0.7429(3)
H42_3 H 0.0246 0.1000 0.7321
C30_3 C 0.3116(3) 0.1953(2) 0.9860(3)
C32_3 C 0.4155(3) 0.1331(2) 0.9891(3)
H52_3 H 0.142351 0.304392 0.846841
H53_3 H 0.242808 0.310684 0.830276
C17_3 C 0.3502(4) 0.9184(2) 0.2378(4)
H37_3 H 0.3742 0.8808 0.2423
C18_3 C 0.1429(3) 0.9946(2) 0.2681(4)
C19_3 C 0.2297(3) 0.9849(2) 0.2451(3)
C20_3 C 0.2676(4) 0.9291(2) 0.2540(4)
H38_3 H 0.2369 0.8991 0.2708
C22_3 C 0.3986(3) 0.9631(2) 0.2148(3)
O6_2 O 0.4898(3) 0.9127(2) 0.1497(3)
O13_2 O 0.5674(3) 0.96376(19) 0.2530(3)
C40_3 C 0.4904(4) 0.9475(3) 0.2037(4)
H41_3 H 0.2238 0.9865 0.7561
C17_4 C 0.6498(4) 0.4184(2) 0.2622(4)
H37_4 H 0.6258 0.3808 0.2577
C18_4 C 0.8571(3) 0.4946(2) 0.2319(4)
C19_4 C 0.7703(3) 0.4849(2) 0.2549(3)
C20_4 C 0.7324(4) 0.4291(2) 0.2460(4)
H38_4 H 0.7631 0.3991 0.2292
C21_4 C 0.7224(3) 0.5294(2) 0.2779(3)
H39_4 H 0.7475 0.5667 0.2839
C22_4 C 0.6014(3) 0.4631(2) 0.2852(3)
Zn1_4 Zn 0.55487(4) 0.67982(2) 0.34723(3)
O1_4 O 0.4158(2) 0.67965(15) 0.3121(2)
O5_4 O 0.5348(3) 0.55849(17) 0.3558(2)
O7_4 O 0.6038(3) 0.61858(16) 0.2931(3)
O8_4 O 0.7941(2) 0.78672(16) 0.6437(2)
N2_4 N 0.8360(3) 0.61212(18) 0.7321(3)
N3_4 N 0.7086(3) 0.67590(19) 0.5872(3)
N4_4 N 0.6479(3) 0.82497(18) 0.2545(3)
O9_2 O 0.9008(2) 0.54280(16) 0.2512(3)
N6_4 N 0.6221(3) 0.74506(18) 0.3127(3)
O10_4 O 0.0909(3) 0.60209(16) 0.2296(3)
N7_4 N 0.6115(3) 0.66918(19) 0.4634(3)
O11_2 O 0.8832(3) 0.45691(18) 0.1949(3)
O12_4 O 0.4409(3) 0.76754(17) 0.3633(3)
C23_4 C 0.6378(3) 0.5190(2) 0.2921(3)
C24_4 C 0.5943(3) 0.7994(2) 0.2900(3)
H40_4 H 0.5423 0.8171 0.2985
C25_4 C 0.8079(3) 0.5214(2) 0.7444(3)
H41_4 H 0.7762 0.4865 0.7439
C26_4 C 0.9158(3) 0.5830(2) 0.7571(3)
H42_4 H 0.9754 0.6000 0.7679
C27_4 C 0.1207(3) 0.7016(2) 0.2541(3)
C28_4 C 0.2177(3) 0.6925(2) 0.2744(3)
H43_4 H 0.2399 0.6566 0.2644
C29_4 C 0.6988(3) 0.7381(2) 0.2888(3)
H44_4 H 0.7345 0.7043 0.2960
C30_4 C 0.6884(3) 0.6953(2) 0.5140(3)
H45_4 H 0.7234 0.7237 0.4989
C31_4 C 0.0531(3) 0.6523(2) 0.2206(3)
C32_4 C 0.5845(3) 0.6331(2) 0.5109(3)
H46_4 H 0.5320 0.6088 0.4932
C33_4 C 0.5870(3) 0.5682(2) 0.3162(3)
C34_4 C 0.1503(3) 0.7990(2) 0.3036(3)
H47_4 H 0.1278 0.8349 0.3132
C35_4 C 0.2817(3) 0.7356(2) 0.3092(3)
C36_4 C 0.0867(3) 0.7558(2) 0.2665(3)
C37_4 C 0.2471(3) 0.7890(2) 0.3264(3)
H48_4 H 0.2893 0.8177 0.3532
C39_4 C 0.3865(3) 0.7280(2) 0.3303(3)
C40_4 C 0.5096(4) 0.4475(3) 0.2963(4)
H52_4 H 0.857649 0.804392 0.653159
H53_4 H 0.757192 0.810684 0.669724
O2_4 O 0.9685(2) 0.66147(15) 0.1882(2)
N11_4 N 0.9394(4) 0.5419(2) 0.0862(3)
C38_4 C 0.9834(3) 0.7708(2) 0.2429(3)
C42_4 C 0.8569(7) 0.5649(4) 0.0605(5)
C41_3 C 0.1897(7) 0.4360(5) 0.0142(5)
H49_3 H 0.2308 0.4691 0.0262
H50_3 H 0.2269 0.4012 0.0285
H51_3 H 0.1460 0.4381 0.0437
C41_4 C 0.8103(7) 0.5640(5) 0.9858(5)
H49_4 H 0.7692 0.5309 0.9738
H50_4 H 0.7731 0.5988 0.9715
H51_4 H 0.8540 0.5619 0.9563
loop_
_geom_bond_atom_site_label_1
_geom_bond_atom_site_label_2
_geom_bond_site_symmetry_1
_geom_bond_site_symmetry_2
C1 H1 1_555 1_555
H2 C1 1_555 1_555
H3 C1 1_555 1_555
C3 C1 1_555 1_555
H7 C3 1_555 1_555
H8 C3 1_555 1_555
C10 N1 1_555 1_555
H22 C10 1_555 1_555
H23 C10 1_555 1_555
C11 N1 1_555 1_555
H24 C11 1_555 1_555
H25 C11 1_555 1_555
H26 C12 1_555 1_555
H27 C12 1_555 1_555
C16 C3 1_555 1_555
H35 C16 1_555 1_555
H36 C16 1_555 1_555
C10 C14 1_555 1_555
C11 C16 1_555 1_555
H12 C5 1_555 1_555
C6 C5 1_555 1_555
H14 C6 1_555 1_555
H15 C6 1_555 1_555
C7 C6 1_555 1_555
C8 H18 1_555 1_555
H19 C8 1_555 1_555
C9 C7 1_555 1_555
H20 C9 1_555 1_555
H21 C9 1_555 1_555
H5 C2 1_555 1_555
H6 C2 1_555 1_555
C4 C2 1_555 1_555
H28 C13 1_555 1_555
C15 C13 1_555 1_555
H33 C15 1_555 1_555
H34 C15 1_555 1_555
C2_2 H4_2 1_555 1_555
H5_2 C2_2 1_555 1_555
H6_2 C2_2 1_555 1_555
C4_2 C2_2 1_555 1_555
H28_2 C13_2 1_555 1_555
H29_2 C13_2 1_555 1_555
C15_2 C13_2 1_555 1_555
H32_2 C15_2 1_555 1_555
H33_2 C15_2 1_555 1_555
H34_2 C15_2 1_555 1_555
C1_2 H1_2 1_555 1_555
H2_2 C1_2 1_555 1_555
H3_2 C1_2 1_555 1_555
C3_2 C1_2 1_555 1_555
H7_2 C3_2 1_555 1_555
H8_2 C3_2 1_555 1_555
C5_2 H11_2 1_555 1_555
H12_2 C5_2 1_555 1_555
H13_2 C5_2 1_555 1_555
C6_2 C5_2 1_555 1_555
H14_2 C6_2 1_555 1_555
H15_2 C6_2 1_555 1_555
C7_2 C6_2 1_555 1_555
H16_2 C7_2 1_555 1_555
H17_2 C7_2 1_555 1_555
C8_2 H18_2 1_555 1_555
H19_2 C8_2 1_555 1_555
N1_2 C8_2 1_555 1_555
C9_2 C7_2 1_555 1_555
H20_2 C9_2 1_555 1_555
H21_2 C9_2 1_555 1_555
C10_2 N1_2 1_555 1_555
H22_2 C10_2 1_555 1_555
H23_2 C10_2 1_555 1_555
C11_2 N1_2 1_555 1_555
H24_2 C11_2 1_555 1_555
H25_2 C11_2 1_555 1_555
C12_2 C8_2 1_555 1_555
H26_2 C12_2 1_555 1_555
H27_2 C12_2 1_555 1_555
H31_2 C14_2 1_555 1_555
C16_2 C3_2 1_555 1_555
H35_2 C16_2 1_555 1_555
H36_2 C16_2 1_555 1_555
N1_2 C9_2 1_555 1_555
C10_2 C14_2 1_555 1_555
C11_2 C16_2 1_555 1_555
H28_3 C13_3 1_555 1_555
C15_3 C13_3 1_555 1_555
H33_3 C15_3 1_555 1_555
H34_3 C15_3 1_555 1_555
H5_3 C2_3 1_555 1_555
H6_3 C2_3 1_555 1_555
C4_3 C2_3 1_555 1_555
H12_3 C5_3 1_555 1_555
C6_3 C5_3 1_555 1_555
H14_3 C6_3 1_555 1_555
H15_3 C6_3 1_555 1_555
C7_3 C6_3 1_555 1_555
C8_3 H18_3 1_555 1_555
H19_3 C8_3 1_555 1_555
C9_3 C7_3 1_555 1_555
H20_3 C9_3 1_555 1_555
H21_3 C9_3 1_555 1_555
C1_3 H1_3 1_555 1_555
H2_3 C1_3 1_555 1_555
H3_3 C1_3 1_555 1_555
C3_3 C1_3 1_555 1_555
H7_3 C3_3 1_555 1_555
H8_3 C3_3 1_555 1_555
C10_3 N1_3 1_555 1_555
H22_3 C10_3 1_555 1_555
H23_3 C10_3 1_555 1_555
C11_3 N1_3 1_555 1_555
H24_3 C11_3 1_555 1_555
H25_3 C11_3 1_555 1_555
H26_3 C12_3 1_555 1_555
H27_3 C12_3 1_555 1_555
C16_3 C3_3 1_555 1_555
H35_3 C16_3 1_555 1_555
H36_3 C16_3 1_555 1_555
C10_3 C14_3 1_555 1_555
C11_3 C16_3 1_555 1_555
C1_4 H1_4 1_555 1_555
H2_4 C1_4 1_555 1_555
H3_4 C1_4 1_555 1_555
C3_4 C1_4 1_555 1_555
H7_4 C3_4 1_555 1_555
H8_4 C3_4 1_555 1_555
C5_4 H11_4 1_555 1_555
H12_4 C5_4 1_555 1_555
H13_4 C5_4 1_555 1_555
C6_4 C5_4 1_555 1_555
H14_4 C6_4 1_555 1_555
H15_4 C6_4 1_555 1_555
C7_4 C6_4 1_555 1_555
H16_4 C7_4 1_555 1_555
H17_4 C7_4 1_555 1_555
C8_4 H18_4 1_555 1_555
H19_4 C8_4 1_555 1_555
N1_4 C8_4 1_555 1_555
C9_4 C7_4 1_555 1_555
H20_4 C9_4 1_555 1_555
H21_4 C9_4 1_555 1_555
C10_4 N1_4 1_555 1_555
H22_4 C10_4 1_555 1_555
H23_4 C10_4 1_555 1_555
C11_4 N1_4 1_555 1_555
H24_4 C11_4 1_555 1_555
H25_4 C11_4 1_555 1_555
C12_4 C8_4 1_555 1_555
H26_4 C12_4 1_555 1_555
H27_4 C12_4 1_555 1_555
H31_4 C14_4 1_555 1_555
C16_4 C3_4 1_555 1_555
H35_4 C16_4 1_555 1_555
H36_4 C16_4 1_555 1_555
N1_4 C9_4 1_555 1_555
C10_4 C14_4 1_555 1_555
C11_4 C16_4 1_555 1_555
C2_4 H4_4 1_555 1_555
H5_4 C2_4 1_555 1_555
H6_4 C2_4 1_555 1_555
C4_4 C2_4 1_555 1_555
H28_4 C13_4 1_555 1_555
H29_4 C13_4 1_555 1_555
C15_4 C13_4 1_555 1_555
H32_4 C15_4 1_555 1_555
H33_4 C15_4 1_555 1_555
H34_4 C15_4 1_555 1_555
C17 H37 1_555 1_555
C18 C19 1_555 1_555
C19 C20 1_555 1_555
C20 C17 1_555 1_555
H38 C20 1_555 1_555
C22 C17 1_555 1_555
O6 C40 1_555 1_555
O11 C18 1_555 1_555
O13 C40 1_555 1_555
C40 C22 1_555 1_555
Zn7 O6 1_555 1_555
O13 Zn7 1_555 1_555
Zn2 O8 1_555 1_555
N2 Zn2 1_555 1_555
N3 Zn2 1_555 1_555
N5 N2 1_555 1_555
N9 N3 1_555 1_555
N10 C25 1_555 1_555
C25 N5 1_555 1_555
C26 N2 1_555 1_555
H42 C26 1_555 1_555
C30 N3 1_555 1_555
Zn8 N5 1_555 1_555
O14 Zn2 1_555 1_555
O15 Zn2 1_555 1_555
N13 Zn2 1_555 1_555
N9 C32 1_555 1_555
N9 Zn8 1_555 1_555
N10 C26 1_555 1_555
O8 H52 1_555 1_555
O8 H53 1_555 1_555
H39 C21 1_555 1_555
Zn1 O1 1_555 1_555
Zn3 N4 1_555 1_555
Zn9 O10 1_555 1_555
O1 C39 1_555 1_555
O5 C33 1_555 1_555
O7 Zn1 1_555 1_555
N4 N8 1_555 1_555
N6 Zn1 1_555 1_555
O10 C31 1_555 1_555
N7 Zn1 1_555 1_555
N8 C29 1_555 1_555
O12 C39 1_555 1_555
C23 C21 1_555 1_555
C24 N4 1_555 1_555
H40 C24 1_555 1_555
C27 C28 1_555 1_555
C28 H43 1_555 1_555
C29 N6 1_555 1_555
H44 C29 1_555 1_555
C31 C27 1_555 1_555
C33 O7 1_555 1_555
C34 H47 1_555 1_555
C35 C28 1_555 1_555
C36 C27 1_555 1_555
C37 C34 1_555 1_555
H48 C37 1_555 1_555
C39 C35 1_555 1_555
Zn6 N8 1_555 1_555
O16 Zn3 1_555 1_555
N12 Zn3 1_555 1_555
N14 Zn3 1_555 1_555
O19 Zn3 1_555 1_555
N6 C24 1_555 1_555
C23 C33 1_555 1_555
C34 C36 1_555 1_555
C35 C37 1_555 1_555
O3 C38 1_555 1_555
O4 C38 1_555 1_555
C41 H49 1_555 1_555
H50 C41 1_555 1_555
H51 C41 1_555 1_555
C42 N11 1_555 1_555
Zn6 O3 1_555 1_555
O4 Zn6 1_555 1_555
C41 C42 1_555 1_555
O3_2 C38_2 1_555 1_555
O4_2 C38_2 1_555 1_555
C42_2 N11_2 1_555 1_555
Zn5 O3_2 1_555 1_555
O4_2 Zn5 1_555 1_555
C17_2 H37_2 1_555 1_555
C18_2 C19_2 1_555 1_555
C19_2 C20_2 1_555 1_555
C20_2 C17_2 1_555 1_555
H38_2 C20_2 1_555 1_555
C21_2 C19_2 1_555 1_555
H39_2 C21_2 1_555 1_555
C22_2 C17_2 1_555 1_555
Zn1_2 O1_2 1_555 1_555
Zn2_2 O8_2 1_555 1_555
Zn7 N4_2 1_555 1_555
Zn4 O10_2 1_555 1_555
O1_2 C39_2 1_555 1_555
O5_2 C33_2 1_555 1_555
O16 C40_2 1_555 1_555
O7_2 Zn1_2 1_555 1_555
N2_2 Zn2_2 1_555 1_555
N3_2 Zn2_2 1_555 1_555
N4_2 N8_2 1_555 1_555
N5_2 N2_2 1_555 1_555
O17 C18_2 1_555 1_555
N6_2 Zn1_2 1_555 1_555
O10_2 C31_2 1_555 1_555
N7_2 Zn1_2 1_555 1_555
O18 C18_2 1_555 1_555
N8_2 C29_2 1_555 1_555
O12_2 C39_2 1_555 1_555
N9_2 N3_2 1_555 1_555
O19 C40_2 1_555 1_555
N10_2 C25_2 1_555 1_555
C23_2 C21_2 1_555 1_555
C24_2 N4_2 1_555 1_555
H40_2 C24_2 1_555 1_555
C25_2 N5_2 1_555 1_555
H41_2 C25_2 1_555 1_555
C26_2 N2_2 1_555 1_555
H42_2 C26_2 1_555 1_555
C27_2 C28_2 1_555 1_555
C28_2 H43_2 1_555 1_555
C29_2 N6_2 1_555 1_555
H44_2 C29_2 1_555 1_555
C30_2 N3_2 1_555 1_555
H45_2 C30_2 1_555 1_555
C31_2 C27_2 1_555 1_555
C32_2 N7_2 1_555 1_555
H46_2 C32_2 1_555 1_555
C33_2 O7_2 1_555 1_555
C34_2 H47_2 1_555 1_555
C35_2 C28_2 1_555 1_555
C36_2 C27_2 1_555 1_555
C37_2 C34_2 1_555 1_555
H48_2 C37_2 1_555 1_555
C39_2 C35_2 1_555 1_555
C40_2 C22_2 1_555 1_555
Zn5 N8_2 1_555 1_555
Zn8_2 N5_2 1_555 1_555
Zn10_2 N10_2 1_555 1_555
O14_2 Zn2_2 1_555 1_555
O15_2 Zn2_2 1_555 1_555
N12_2 Zn7 1_555 1_555
N13_2 Zn2_2 1_555 1_555
N14_2 Zn7 1_555 1_555
N15_2 Zn4 1_555 1_555
C22_2 C23_2 1_555 1_555
N6_2 C24_2 1_555 1_555
N7_2 C30_2 1_555 1_555
N9_2 C32_2 1_555 1_555
N9_2 Zn8_2 1_555 1_555
N10_2 C26_2 1_555 1_555
C23_2 C33_2 1_555 1_555
C34_2 C36_2 1_555 1_555
C35_2 C37_2 1_555 1_555
O8_2 H52_2 1_555 1_555
O8_2 H53_2 1_555 1_555
O14_2 C38_3 1_555 1_555
O15_2 C38_3 1_555 1_555
C41_2 H49_2 1_555 1_555
H50_2 C41_2 1_555 1_555
H51_2 C41_2 1_555 1_555
C42_3 N11_3 1_555 1_555
C41_2 C42_3 1_555 1_555
H39_3 C21_3 1_555 1_555
Zn1_3 O1_3 1_555 1_555
Zn8_2 N4_3 1_555 1_555
Zn10 O10_3 1_555 1_555
O1_3 C39_3 1_555 1_555
O5_3 C33_3 1_555 1_555
O7_3 Zn1_3 1_555 1_555
N4_3 N13_2 1_555 1_555
N6_3 Zn1_3 1_555 1_555
O10_3 C31_3 1_555 1_555
N7_3 Zn1_3 1_555 1_555
N13_2 C29_3 1_555 1_555
O12_3 C39_3 1_555 1_555
C23_3 C21_3 1_555 1_555
C24_3 N4_3 1_555 1_555
H40_3 C24_3 1_555 1_555
C27_3 C28_3 1_555 1_555
C28_3 H43_3 1_555 1_555
C29_3 N6_3 1_555 1_555
H44_3 C29_3 1_555 1_555
C31_3 C27_3 1_555 1_555
C33_3 O7_3 1_555 1_555
C34_3 H47_3 1_555 1_555
C35_3 C28_3 1_555 1_555
C36_3 C27_3 1_555 1_555
C37_3 C34_3 1_555 1_555
H48_3 C37_3 1_555 1_555
C39_3 C35_3 1_555 1_555
O16_2 Zn8_2 1_555 1_555
O19_2 Zn8_2 1_555 1_555
N6_3 C24_3 1_555 1_555
C23_3 C33_3 1_555 1_555
C34_3 C36_3 1_555 1_555
C35_3 C37_3 1_555 1_555
Zn5 O8_3 1_555 1_555
N2_3 Zn5 1_555 1_555
N3_3 Zn5 1_555 1_555
N12_2 N2_3 1_555 1_555
N14_2 N3_3 1_555 1_555
N15 C25_3 1_555 1_555
C25_3 N12_2 1_555 1_555
C26_3 N2_3 1_555 1_555
H42_3 C26_3 1_555 1_555
C30_3 N3_3 1_555 1_555
N14_2 C32_3 1_555 1_555
N15 C26_3 1_555 1_555
O8_3 H52_3 1_555 1_555
O8_3 H53_3 1_555 1_555
C17_3 H37_3 1_555 1_555
C18_3 C19_3 1_555 1_555
C19_3 C20_3 1_555 1_555
C20_3 C17_3 1_555 1_555
H38_3 C20_3 1_555 1_555
C22_3 C17_3 1_555 1_555
O6_2 C40_3 1_555 1_555
O18_2 C18_3 1_555 1_555
O13_2 C40_3 1_555 1_555
C40_3 C22_3 1_555 1_555
Zn8 O6_2 1_555 1_555
O13_2 Zn8 1_555 1_555
C17_4 H37_4 1_555 1_555
C18_4 C19_4 1_555 1_555
C19_4 C20_4 1_555 1_555
C20_4 C17_4 1_555 1_555
H38_4 C20_4 1_555 1_555
C21_4 C19_4 1_555 1_555
H39_4 C21_4 1_555 1_555
C22_4 C17_4 1_555 1_555
Zn1_4 O1_4 1_555 1_555
Zn6 O8_4 1_555 1_555
Zn8 N4_4 1_555 1_555
Zn10_2 O10_4 1_555 1_555
O1_4 C39_4 1_555 1_555
O5_4 C33_4 1_555 1_555
O16_2 C40_4 1_555 1_555
O7_4 Zn1_4 1_555 1_555
N2_4 Zn6 1_555 1_555
N3_4 Zn6 1_555 1_555
N4_4 N13 1_555 1_555
N12 N2_4 1_555 1_555
O9_2 C18_4 1_555 1_555
N6_4 Zn1_4 1_555 1_555
O10_4 C31_4 1_555 1_555
N7_4 Zn1_4 1_555 1_555
O11_2 C18_4 1_555 1_555
N13 C29_4 1_555 1_555
O12_4 C39_4 1_555 1_555
N14 N3_4 1_555 1_555
O19_2 C40_4 1_555 1_555
N15_2 C25_4 1_555 1_555
C23_4 C21_4 1_555 1_555
C24_4 N4_4 1_555 1_555
H40_4 C24_4 1_555 1_555
C25_4 N12 1_555 1_555
H41_4 C25_4 1_555 1_555
C26_4 N2_4 1_555 1_555
H42_4 C26_4 1_555 1_555
C27_4 C28_4 1_555 1_555
C28_4 H43_4 1_555 1_555
C29_4 N6_4 1_555 1_555
H44_4 C29_4 1_555 1_555
C30_4 N3_4 1_555 1_555
H45_4 C30_4 1_555 1_555
C31_4 C27_4 1_555 1_555
C32_4 N7_4 1_555 1_555
H46_4 C32_4 1_555 1_555
C33_4 O7_4 1_555 1_555
C34_4 H47_4 1_555 1_555
C35_4 C28_4 1_555 1_555
C36_4 C27_4 1_555 1_555
C37_4 C34_4 1_555 1_555
H48_4 C37_4 1_555 1_555
C39_4 C35_4 1_555 1_555
C40_4 C22_4 1_555 1_555
C22_4 C23_4 1_555 1_555
N6_4 C24_4 1_555 1_555
N7_4 C30_4 1_555 1_555
N14 C32_4 1_555 1_555
N15_2 C26_4 1_555 1_555
C23_4 C33_4 1_555 1_555
C34_4 C36_4 1_555 1_555
C35_4 C37_4 1_555 1_555
O8_4 H52_4 1_555 1_555
O8_4 H53_4 1_555 1_555
O14 C38_4 1_555 1_555
O15 C38_4 1_555 1_555
C42_4 N11_4 1_555 1_555
C41_3 H49_3 1_555 1_555
H50_3 C41_3 1_555 1_555
H51_3 C41_3 1_555 1_555
C41_4 H49_4 1_555 1_555
H50_4 C41_4 1_555 1_555
H51_4 C41_4 1_555 1_555

#END
