
###############################################################################
#
# This file contains modified crystal structure data generated from the
# MOF subset of the Cambridge Structural Database (CSD) v543 
# hosted by the Cambridge Crystallographic Data Centre (CCDC).
#
# This work is licensed under the Creative Commons
# Attribution-NonCommercial-ShareAlike 4.0 International License.
# To view a copy of this license, visit
# http://creativecommons.org/licenses/by-nc-sa/4.0/
# or send a letter to
# Creative Commons, PO Box 1866, Mountain View, CA 94042, USA.
#
# CIF created using the CSD Python API on 29 September 2022
# The structure has been converted into the P1 space group
# The structure has a 3D framework
# The original CSD entry LADQUF is in the triclinic crystal system
# The framework has been calculated to contain at least 10.0% void space
# The void calculation uses a probe of radius 1.32A, grid spacing 0.4
# H atom positions have been added when not included in the experimental data
#
###############################################################################

data_LADQUF
_chemical_formula_moiety         '(C110 H102 N2 O32 Tb4)n'
_symmetry_cell_setting           triclinic
_symmetry_space_group_name_H-M   'P 1'
_symmetry_Int_Tables_number      1
_space_group_name_Hall           'P 1'
loop_
_symmetry_equiv_pos_site_id
_symmetry_equiv_pos_as_xyz
1 x,y,z
_cell_length_a                   11.4646(4)
_cell_length_b                   13.6288(5)
_cell_length_c                   23.7978(7)
_cell_angle_alpha                92.929(3)
_cell_angle_beta                 103.548(3)
_cell_angle_gamma                112.494(3)
_cell_volume                     3298.64
loop_
_atom_site_label
_atom_site_type_symbol
_atom_site_fract_x
_atom_site_fract_y
_atom_site_fract_z
Tb1 Tb 0.37832(4) 0.30086(3) 0.517674(15)
C6 C 0.0199(8) 0.4102(7) 0.2728(3)
C7 C 0.0102(8) 0.3361(7) 0.3113(4)
C8 C 0.1153(8) 0.3565(6) 0.3592(4)
H4 H 0.1091 0.3080 0.3857
C9 C 0.2310(8) 0.4489(6) 0.3687(3)
C10 C 0.3425(8) 0.4719(6) 0.4216(3)
C11 C 0.2430(8) 0.5208(7) 0.3290(4)
H5 H 0.3212 0.5808 0.3342
C12 C 0.1364(8) 0.5014(7) 0.2816(3)
C13 C 0.1242(8) 0.5710(8) 0.2341(4)
C14 C 0.2243(10) 0.5825(12) 0.1994(5)
H6 H 0.2163 0.5128 0.1843
H7 H 0.3112 0.6224 0.2246
H8 H 0.2085 0.6203 0.1675
C15 C 0.1423(12) 0.6825(8) 0.2605(5)
H9 H 0.1256 0.7221 0.2297
H10 H 0.2308 0.7202 0.2847
H11 H 0.0823 0.6752 0.2838
C26 C 0.0577(8) 0.0580(7) 0.3891(3)
C27 C 0.1713(8) 0.1403(6) 0.4363(4)
C28 C 0.0633(8) 0.0571(7) 0.3317(4)
H17 H 0.1354 0.1068 0.3224
H22 H 0.0312 0.1213 0.2096
C35 C 0.4632(8) 0.1640(7) 0.5819(3)
C36 C 0.4984(8) 0.0834(6) 0.6152(3)
C37 C 0.5345(9) 0.0099(7) 0.5887(4)
H25 H 0.5382 0.0116 0.5501
C48 C 0.6143(11) 0.0859(8) 0.8101(4)
H30 H 0.6201 0.0670 0.8487
H31 H 0.5834 0.1422 0.8068
H32 H 0.6994 0.1103 0.8033
H34 H 0.3491 0.0103 0.7618
C50 C 0.5227(8) 0.0064(7) 0.7029(3)
C51 C 0.4932(8) 0.0820(6) 0.6726(3)
H36 H 0.4702 0.1312 0.6907
C52 C 0.1103(13) 0.4314(14) 0.5376(8)
H37 H 0.0259 0.3784 0.5375
H38 H 0.1255 0.4219 0.5001
H39 H 0.1126 0.5019 0.5456
C53 C 0.2200(13) 0.4190(10) 0.5857(6)
C54 C 0.201(3) 0.5503(17) 0.6500(10)
H40 H 0.2398 0.6164 0.6357
H41 H 0.2238 0.5635 0.6920
H42 H 0.1068 0.5221 0.6347
C55 C 0.364(3) 0.4628(15) 0.6783(7)
H43 H 0.3271 0.3993 0.6951
H44 H 0.4048 0.5245 0.7085
H45 H 0.4281 0.4568 0.6604
N1 N 0.2495(17) 0.4749(10) 0.6312(6)
O3 O 0.4514(5) 0.5449(5) 0.4234(3)
O4 O 0.3207(5) 0.4211(4) 0.4636(2)
O7 O 0.2717(5) 0.1986(4) 0.4223(2)
O8 O 0.1634(6) 0.1509(5) 0.4882(3)
O9 O 0.4601(6) 0.1610(5) 0.5284(2)
O10 O 0.4343(6) 0.2314(5) 0.6072(2)
O13 O 0.5421(6) 0.3589(5) 0.4644(3)
O14 O 0.2675(7) 0.3562(6) 0.5730(3)
Tb3 Tb 0.62168(4) 0.69914(3) 0.482326(15)
O19 O 0.5486(5) 0.4551(5) 0.5766(3)
H50 H 0.592761 0.437949 0.474867
H51 H 0.602587 0.322368 0.474733
C6_2 C 0.9801(8) 0.5898(7) 0.7272(3)
C7_2 C 0.9898(8) 0.6639(7) 0.6887(4)
C8_2 C 0.8847(8) 0.6435(6) 0.6408(4)
H4_2 H 0.8909 0.6920 0.6143
C9_2 C 0.7690(8) 0.5511(6) 0.6313(3)
C10_2 C 0.6575(8) 0.5281(6) 0.5784(3)
C11_2 C 0.7570(8) 0.4792(7) 0.6710(4)
H5_2 H 0.6788 0.4192 0.6658
C12_2 C 0.8636(8) 0.4986(7) 0.7184(3)
C13_2 C 0.8758(8) 0.4290(8) 0.7659(4)
C14_2 C 0.7757(10) 0.4175(12) 0.8006(5)
H6_2 H 0.7837 0.4872 0.8157
H7_2 H 0.6888 0.3776 0.7754
H8_2 H 0.7915 0.3797 0.8325
C15_2 C 0.8577(12) 0.3175(8) 0.7395(5)
H9_2 H 0.8744 0.2779 0.7703
H10_2 H 0.7692 0.2798 0.7153
H11_2 H 0.9177 0.3248 0.7162
C26_2 C 0.9423(8) 0.9420(7) 0.6109(3)
C27_2 C 0.8287(8) 0.8597(6) 0.5637(4)
C28_2 C 0.9367(8) 0.9429(7) 0.6683(4)
H17_2 H 0.8646 0.8932 0.6776
H22_2 H 0.9688 0.8787 0.7904
C35_2 C 0.5368(8) 0.8360(7) 0.4181(3)
C36_2 C 0.5016(8) 0.9166(6) 0.3848(3)
C37_2 C 0.4655(9) 0.9901(7) 0.4113(4)
H25_2 H 0.4618 0.9884 0.4499
C48_2 C 0.3857(11) 0.9141(8) 0.1899(4)
H30_2 H 0.3799 0.9330 0.1513
H31_2 H 0.4166 0.8578 0.1932
H32_2 H 0.3006 0.8897 0.1967
H34_2 H 0.6509 0.9897 0.2382
C50_2 C 0.4773(8) 0.9936(7) 0.2971(3)
C51_2 C 0.5068(8) 0.9180(6) 0.3274(3)
H36_2 H 0.5298 0.8688 0.3093
C52_2 C 0.8897(13) 0.5686(14) 0.4624(8)
H37_2 H 0.9741 0.6216 0.4625
H38_2 H 0.8745 0.5781 0.4999
H39_2 H 0.8874 0.4981 0.4544
C53_2 C 0.7800(13) 0.5810(10) 0.4143(6)
C54_2 C 0.799(3) 0.4497(17) 0.3500(10)
H40_2 H 0.7602 0.3836 0.3643
H41_2 H 0.7762 0.4365 0.3080
H42_2 H 0.8932 0.4779 0.3653
C55_2 C 0.636(3) 0.5372(15) 0.3217(7)
H43_2 H 0.6729 0.6007 0.3049
H44_2 H 0.5952 0.4755 0.2915
H45_2 H 0.5719 0.5432 0.3396
N1_2 N 0.7505(17) 0.5251(10) 0.3688(6)
O4_2 O 0.6793(5) 0.5789(4) 0.5364(2)
O7_2 O 0.7283(5) 0.8014(4) 0.5777(2)
O8_2 O 0.8366(6) 0.8491(5) 0.5118(3)
O9_2 O 0.5399(6) 0.8390(5) 0.4716(2)
O10_2 O 0.5657(6) 0.7686(5) 0.3928(2)
O13_2 O 0.4579(6) 0.6411(5) 0.5356(3)
O14_2 O 0.7325(7) 0.6438(6) 0.4270(3)
H50_2 H 0.407239 0.562051 0.525133
H51_2 H 0.397413 0.677632 0.525267
O17 O 0.7659(7) 0.5514(6) 0.0422(3)
O20 O 0.6142(7) 0.6869(5) 0.0376(3)
H47 H 0.907643 0.726349 0.0162825
C1 C 0.7040(10) 0.4941(8) 0.0730(4)
C2 C 0.7820(8) 0.4652(8) 0.1257(4)
C3 C 0.7212(9) 0.3747(8) 0.1487(4)
H1 H 0.6324 0.3316 0.1324
C4 C 0.7930(8) 0.3480(7) 0.1965(4)
H2 H 0.7534 0.2861 0.2118
C5 C 0.9245(8) 0.4148(7) 0.2211(3)
H3 H 0.9340 0.2737 0.3048
C16 C 0.9835(8) 0.5076(7) 0.1982(4)
C17 C 0.9122(9) 0.5312(8) 0.1495(4)
H12 H 0.9521 0.5913 0.1331
C32 C 0.9460(11) 0.0633(8) 0.1953(5)
H21 H 0.9247 0.0464 0.1535
H23 H 0.8816 0.0841 0.2055
O2 O 0.5817(6) 0.4575(6) 0.0630(3)
Tb7 Tb 0.35852(4) 0.40528(3) 0.038373(16)
C18 C 0.5559(9) 0.6616(7) 0.0771(4)
C19 C 0.6248(8) 0.7244(7) 0.1375(4)
C20 C 0.5736(9) 0.6962(7) 0.1832(4)
H13 H 0.4920 0.6392 0.1763
C21 C 0.6395(9) 0.7499(7) 0.2397(4)
H14 H 0.6037 0.7291 0.2706
C22 C 0.7610(8) 0.8361(6) 0.2490(4)
C23 C 0.8522(8) 0.9073(7) 0.3027(3)
C24 C 0.8469(8) 0.9065(7) 0.3606(4)
H15 H 0.7762 0.8558 0.3704
C25 C 0.9498(8) 0.9833(7) 0.4026(4)
H16 H 0.9471 0.9853 0.4414
C29 C 0.9609(8) 0.9817(7) 0.2887(3)
C30 C 0.9455(8) 0.9646(7) 0.2230(4)
C33 C 0.8123(8) 0.8688(7) 0.2025(4)
C34 C 0.7456(8) 0.8135(6) 0.1462(3)
H24 H 0.7798 0.8348 0.1149
O6 O 0.4430(6) 0.5865(5) 0.0700(3)
C31 C 0.9447(10) 0.0638(10) 0.7893(5)
H18 H 0.9401 0.1221 0.7693
H19 H 0.8624 0.0023 0.7756
H20 H 0.9628 0.0849 0.8306
C38 C 0.4353(9) 0.0648(7) 0.3815(4)
H26 H 0.4107 0.1131 0.3995
C39 C 0.4421(8) 0.0672(6) 0.3239(3)
C40 C 0.4187(8) 0.1373(7) 0.2822(4)
C41 C 0.3834(9) 0.2236(7) 0.2873(4)
H27 H 0.3710 0.2465 0.3221
C42 C 0.3672(9) 0.2743(7) 0.2391(4)
H28 H 0.3415 0.3309 0.2420
C43 C 0.3869(8) 0.2459(7) 0.1878(3)
C44 C 0.3726(9) 0.3007(7) 0.1356(4)
C45 C 0.4229(8) 0.1573(7) 0.1829(4)
H29 H 0.4347 0.1348 0.1479
C46 C 0.4402(8) 0.1051(7) 0.2302(4)
C47 C 0.4818(8) 0.0126(6) 0.2355(3)
C49 C 0.6224(10) 0.0462(9) 0.2295(5)
H33 H 0.6802 0.1107 0.2566
H35 H 0.6236 0.0590 0.1903
O11 O 0.3682(8) 0.3911(5) 0.1412(3)
O12 O 0.3680(8) 0.2573(5) 0.0862(3)
O15 O 0.154(4) 0.430(2) 0.0644(15)
O16 O 0.1400(13) 0.2911(13) 0.0260(6)
H46 H 0.13534 0.223828 0.0415108
H48 H 0.10095 0.364245 0.078142
H49 H 0.098499 0.442024 0.0289443
Tb2 Tb 0.64148(4) 0.59472(3) 0.961627(16)
C31_2 C 0.0553(10) 0.9362(10) 0.2107(5)
H18_2 H 0.0599 0.8779 0.2307
H19_2 H 0.1376 0.9977 0.2244
H20_2 H 0.0372 0.9151 0.1694
C38_2 C 0.5647(9) 0.9352(7) 0.6185(4)
H26_2 H 0.5893 0.8869 0.6005
C39_2 C 0.5579(8) 0.9328(6) 0.6761(3)
C40_2 C 0.5813(8) 0.8627(7) 0.7178(4)
C41_2 C 0.6166(9) 0.7764(7) 0.7127(4)
H27_2 H 0.6290 0.7535 0.6779
C42_2 C 0.6328(9) 0.7257(7) 0.7609(4)
H28_2 H 0.6585 0.6691 0.7580
C43_2 C 0.6131(8) 0.7541(7) 0.8122(3)
C44_2 C 0.6274(9) 0.6993(7) 0.8644(4)
C45_2 C 0.5771(8) 0.8427(7) 0.8171(4)
H29_2 H 0.5653 0.8652 0.8521
C46_2 C 0.5598(8) 0.8949(7) 0.7698(4)
C47_2 C 0.5182(8) 0.9874(6) 0.7645(3)
C49_2 C 0.3776(10) 0.9538(9) 0.7705(5)
H33_2 H 0.3198 0.8893 0.7434
H35_2 H 0.3764 0.9410 0.8097
O11_2 O 0.6318(8) 0.6089(5) 0.8588(3)
O12_2 O 0.6320(8) 0.7427(5) 0.9138(3)
O15_2 O 0.846(4) 0.570(2) 0.9356(15)
O16_2 O 0.8600(13) 0.7089(13) 0.9740(6)
O18 O 0.4183(6) 0.5425(6) 0.9370(3)
O21 O 0.5570(6) 0.4135(5) 0.9300(3)
H46_2 H 0.86466 0.776172 0.958489
H48_2 H 0.89905 0.635755 0.921858
H49_2 H 0.901501 0.557976 0.971056
C18_2 C 0.4441(9) 0.3384(7) 0.9229(4)
C19_2 C 0.3752(8) 0.2756(7) 0.8625(4)
C20_2 C 0.4264(9) 0.3038(7) 0.8168(4)
H13_2 H 0.5080 0.3608 0.8237
C21_2 C 0.3605(9) 0.2501(7) 0.7603(4)
H14_2 H 0.3963 0.2709 0.7294
C22_2 C 0.2390(8) 0.1639(6) 0.7510(4)
C23_2 C 0.1478(8) 0.0927(7) 0.6973(3)
C24_2 C 0.1531(8) 0.0935(7) 0.6394(4)
H15_2 H 0.2238 0.1442 0.6296
C25_2 C 0.0502(8) 0.0167(7) 0.5974(4)
H16_2 H 0.0529 0.0147 0.5586
C29_2 C 0.0391(8) 0.0183(7) 0.7113(3)
C30_2 C 0.0545(8) 0.0354(7) 0.7770(4)
C33_2 C 0.1877(8) 0.1312(7) 0.7975(4)
C34_2 C 0.2544(8) 0.1865(6) 0.8538(3)
H24_2 H 0.2202 0.1652 0.8851
O5 O 0.3858(7) 0.3131(5) 0.9624(3)
C1_2 C 0.2960(10) 0.5059(8) 0.9270(4)
C2_2 C 0.2180(8) 0.5348(8) 0.8743(4)
C3_2 C 0.2788(9) 0.6253(8) 0.8513(4)
H1_2 H 0.3676 0.6684 0.8676
C4_2 C 0.2070(8) 0.6520(7) 0.8035(4)
H2_2 H 0.2466 0.7139 0.7882
C5_2 C 0.0755(8) 0.5852(7) 0.7789(3)
H3_2 H 0.0660 0.7263 0.6952
C16_2 C 0.0165(8) 0.4924(7) 0.8018(4)
C17_2 C 0.0878(9) 0.4688(8) 0.8505(4)
H12_2 H 0.0479 0.4087 0.8669
C32_2 C 0.0540(11) 0.9367(8) 0.8047(5)
H21_2 H 0.0753 0.9536 0.8465
H23_2 H 0.1184 0.9159 0.7945
O1 O 0.2341(7) 0.4486(6) 0.9578(3)
H47_2 H 0.0923565 0.273651 0.983718
loop_
_geom_bond_atom_site_label_1
_geom_bond_atom_site_label_2
_geom_bond_site_symmetry_1
_geom_bond_site_symmetry_2
Tb1 O4 1_555 1_555
C7 C6 1_555 1_555
C8 C7 1_555 1_555
H4 C8 1_555 1_555
C9 C8 1_555 1_555
C10 C9 1_555 1_555
C11 C9 1_555 1_555
H5 C11 1_555 1_555
C12 C6 1_555 1_555
C13 C12 1_555 1_555
C14 C13 1_555 1_555
H6 C14 1_555 1_555
H7 C14 1_555 1_555
H8 C14 1_555 1_555
C15 C13 1_555 1_555
H9 C15 1_555 1_555
H10 C15 1_555 1_555
H11 C15 1_555 1_555
C27 C26 1_555 1_555
C28 C26 1_555 1_555
H17 C28 1_555 1_555
C35 C36 1_555 1_555
C36 C37 1_555 1_555
C37 H25 1_555 1_555
H30 C48 1_555 1_555
H31 C48 1_555 1_555
H32 C48 1_555 1_555
C51 C36 1_555 1_555
H36 C51 1_555 1_555
C52 H37 1_555 1_555
H38 C52 1_555 1_555
H39 C52 1_555 1_555
C53 C52 1_555 1_555
C54 H40 1_555 1_555
H41 C54 1_555 1_555
H42 C54 1_555 1_555
C55 H43 1_555 1_555
H44 C55 1_555 1_555
H45 C55 1_555 1_555
N1 C53 1_555 1_555
O3 C10 1_555 1_555
O4 C10 1_555 1_555
O7 Tb1 1_555 1_555
O8 Tb1 1_555 1_555
O9 Tb1 1_555 1_555
O10 Tb1 1_555 1_555
O13 Tb1 1_555 1_555
O14 Tb1 1_555 1_555
Tb3 O3 1_555 1_555
O19 Tb1 1_555 1_555
C11 C12 1_555 1_555
C27 O7 1_555 1_555
C27 O8 1_555 1_555
C35 O9 1_555 1_555
C35 O10 1_555 1_555
C50 C51 1_555 1_555
C53 O14 1_555 1_555
C54 N1 1_555 1_555
C55 N1 1_555 1_555
O13 H50 1_555 1_555
O13 H51 1_555 1_555
Tb3 O4_2 1_555 1_555
C7_2 C6_2 1_555 1_555
C8_2 C7_2 1_555 1_555
H4_2 C8_2 1_555 1_555
C9_2 C8_2 1_555 1_555
C10_2 C9_2 1_555 1_555
C11_2 C9_2 1_555 1_555
H5_2 C11_2 1_555 1_555
C12_2 C6_2 1_555 1_555
C13_2 C12_2 1_555 1_555
C14_2 C13_2 1_555 1_555
H6_2 C14_2 1_555 1_555
H7_2 C14_2 1_555 1_555
H8_2 C14_2 1_555 1_555
C15_2 C13_2 1_555 1_555
H9_2 C15_2 1_555 1_555
H10_2 C15_2 1_555 1_555
H11_2 C15_2 1_555 1_555
C27_2 C26_2 1_555 1_555
C28_2 C26_2 1_555 1_555
H17_2 C28_2 1_555 1_555
C35_2 C36_2 1_555 1_555
C36_2 C37_2 1_555 1_555
C37_2 H25_2 1_555 1_555
H30_2 C48_2 1_555 1_555
H31_2 C48_2 1_555 1_555
H32_2 C48_2 1_555 1_555
C51_2 C36_2 1_555 1_555
H36_2 C51_2 1_555 1_555
C52_2 H37_2 1_555 1_555
H38_2 C52_2 1_555 1_555
H39_2 C52_2 1_555 1_555
C53_2 C52_2 1_555 1_555
C54_2 H40_2 1_555 1_555
H41_2 C54_2 1_555 1_555
H42_2 C54_2 1_555 1_555
C55_2 H43_2 1_555 1_555
H44_2 C55_2 1_555 1_555
H45_2 C55_2 1_555 1_555
N1_2 C53_2 1_555 1_555
O19 C10_2 1_555 1_555
O4_2 C10_2 1_555 1_555
O7_2 Tb3 1_555 1_555
O8_2 Tb3 1_555 1_555
O9_2 Tb3 1_555 1_555
O10_2 Tb3 1_555 1_555
O13_2 Tb3 1_555 1_555
O14_2 Tb3 1_555 1_555
C11_2 C12_2 1_555 1_555
C27_2 O7_2 1_555 1_555
C27_2 O8_2 1_555 1_555
C35_2 O9_2 1_555 1_555
C35_2 O10_2 1_555 1_555
C50_2 C51_2 1_555 1_555
C53_2 O14_2 1_555 1_555
C54_2 N1_2 1_555 1_555
C55_2 N1_2 1_555 1_555
O13_2 H50_2 1_555 1_555
O13_2 H51_2 1_555 1_555
C1 C2 1_555 1_555
C2 C3 1_555 1_555
C3 H1 1_555 1_555
C4 C3 1_555 1_555
H2 C4 1_555 1_555
C5 C4 1_555 1_555
C16 C5 1_555 1_555
C17 C2 1_555 1_555
H12 C17 1_555 1_555
H21 C32 1_555 1_555
H23 C32 1_555 1_555
O17 C1 1_555 1_555
O2 C1 1_555 1_555
Tb7 O2 1_555 1_555
C16 C17 1_555 1_555
C18 C19 1_555 1_555
C19 C20 1_555 1_555
C20 H13 1_555 1_555
C21 C20 1_555 1_555
H14 C21 1_555 1_555
C22 C21 1_555 1_555
C23 C22 1_555 1_555
C24 C23 1_555 1_555
H15 C24 1_555 1_555
C25 C24 1_555 1_555
H16 C25 1_555 1_555
C29 C23 1_555 1_555
C30 C29 1_555 1_555
C33 C22 1_555 1_555
C34 C19 1_555 1_555
H24 C34 1_555 1_555
O20 C18 1_555 1_555
O6 C18 1_555 1_555
Tb7 O6 1_555 1_555
C30 C33 1_555 1_555
C33 C34 1_555 1_555
Tb7 O11 1_555 1_555
H18 C31 1_555 1_555
H19 C31 1_555 1_555
H20 C31 1_555 1_555
H26 C38 1_555 1_555
C39 C38 1_555 1_555
C40 C39 1_555 1_555
C41 C40 1_555 1_555
H27 C41 1_555 1_555
C42 C41 1_555 1_555
H28 C42 1_555 1_555
C43 C42 1_555 1_555
C44 C43 1_555 1_555
C45 C43 1_555 1_555
H29 C45 1_555 1_555
C46 C40 1_555 1_555
C47 C46 1_555 1_555
C49 C47 1_555 1_555
H33 C49 1_555 1_555
H35 C49 1_555 1_555
O11 C44 1_555 1_555
O12 Tb7 1_555 1_555
O15 Tb7 1_555 1_555
O16 Tb7 1_555 1_555
C44 O12 1_555 1_555
C45 C46 1_555 1_555
O16 H46 1_555 1_555
O15 H48 1_555 1_555
O15 H49 1_555 1_555
Tb2 O11_2 1_555 1_555
H18_2 C31_2 1_555 1_555
H19_2 C31_2 1_555 1_555
H20_2 C31_2 1_555 1_555
H26_2 C38_2 1_555 1_555
C39_2 C38_2 1_555 1_555
C40_2 C39_2 1_555 1_555
C41_2 C40_2 1_555 1_555
H27_2 C41_2 1_555 1_555
C42_2 C41_2 1_555 1_555
H28_2 C42_2 1_555 1_555
C43_2 C42_2 1_555 1_555
C44_2 C43_2 1_555 1_555
C45_2 C43_2 1_555 1_555
H29_2 C45_2 1_555 1_555
C46_2 C40_2 1_555 1_555
C47_2 C46_2 1_555 1_555
C49_2 C47_2 1_555 1_555
H33_2 C49_2 1_555 1_555
H35_2 C49_2 1_555 1_555
O11_2 C44_2 1_555 1_555
O12_2 Tb2 1_555 1_555
O15_2 Tb2 1_555 1_555
O16_2 Tb2 1_555 1_555
O18 Tb2 1_555 1_555
O21 Tb2 1_555 1_555
C44_2 O12_2 1_555 1_555
C45_2 C46_2 1_555 1_555
O16_2 H46_2 1_555 1_555
O15_2 H48_2 1_555 1_555
O15_2 H49_2 1_555 1_555
C18_2 C19_2 1_555 1_555
C19_2 C20_2 1_555 1_555
C20_2 H13_2 1_555 1_555
C21_2 C20_2 1_555 1_555
H14_2 C21_2 1_555 1_555
C22_2 C21_2 1_555 1_555
C23_2 C22_2 1_555 1_555
C24_2 C23_2 1_555 1_555
H15_2 C24_2 1_555 1_555
C25_2 C24_2 1_555 1_555
H16_2 C25_2 1_555 1_555
C29_2 C23_2 1_555 1_555
C30_2 C29_2 1_555 1_555
C33_2 C22_2 1_555 1_555
C34_2 C19_2 1_555 1_555
H24_2 C34_2 1_555 1_555
O5 C18_2 1_555 1_555
O21 C18_2 1_555 1_555
C30_2 C33_2 1_555 1_555
C33_2 C34_2 1_555 1_555
C1_2 C2_2 1_555 1_555
C2_2 C3_2 1_555 1_555
C3_2 H1_2 1_555 1_555
C4_2 C3_2 1_555 1_555
H2_2 C4_2 1_555 1_555
C5_2 C4_2 1_555 1_555
C16_2 C5_2 1_555 1_555
C17_2 C2_2 1_555 1_555
H12_2 C17_2 1_555 1_555
H21_2 C32_2 1_555 1_555
H23_2 C32_2 1_555 1_555
O1 C1_2 1_555 1_555
O18 C1_2 1_555 1_555
C16_2 C17_2 1_555 1_555

#END
