
###############################################################################
#
# This file contains modified crystal structure data generated from the
# MOF subset of the Cambridge Structural Database (CSD) v543 
# hosted by the Cambridge Crystallographic Data Centre (CCDC).
#
# This work is licensed under the Creative Commons
# Attribution-NonCommercial-ShareAlike 4.0 International License.
# To view a copy of this license, visit
# http://creativecommons.org/licenses/by-nc-sa/4.0/
# or send a letter to
# Creative Commons, PO Box 1866, Mountain View, CA 94042, USA.
#
# CIF created using the CSD Python API on 29 September 2022
# The structure has been converted into the P1 space group
# The structure has a 3D framework
# The original CSD entry LADQEP is in the triclinic crystal system
# The framework has been calculated to contain at least 10.0% void space
# The void calculation uses a probe of radius 1.32A, grid spacing 0.4
# H atom positions have been added when not included in the experimental data
#
###############################################################################

data_LADQEP
_chemical_formula_moiety         '(C110 H102 Eu4 N2 O32)n'
_symmetry_cell_setting           triclinic
_symmetry_space_group_name_H-M   'P 1'
_symmetry_Int_Tables_number      1
_space_group_name_Hall           'P 1'
loop_
_symmetry_equiv_pos_site_id
_symmetry_equiv_pos_as_xyz
1 x,y,z
_cell_length_a                   11.4422(4)
_cell_length_b                   13.6499(5)
_cell_length_c                   23.9769(8)
_cell_angle_alpha                92.915(3)
_cell_angle_beta                 103.671(3)
_cell_angle_gamma                112.821(3)
_cell_volume                     3311.16
loop_
_atom_site_label
_atom_site_type_symbol
_atom_site_fract_x
_atom_site_fract_y
_atom_site_fract_z
Eu1 Eu 0.37634(9) 0.29865(7) 0.51752(4)
C6 C 0.0195(18) 0.4132(16) 0.2728(8)
C7 C 0.009(2) 0.3384(17) 0.3111(9)
C8 C 0.1140(19) 0.3567(15) 0.3585(8)
H4 H 0.1070 0.3066 0.3838
C9 C 0.2304(19) 0.4493(14) 0.3692(7)
C10 C 0.3426(18) 0.4722(14) 0.4212(8)
C11 C 0.2428(19) 0.5222(16) 0.3309(8)
H5 H 0.3214 0.5830 0.3372
C12 C 0.1381(18) 0.5044(16) 0.2834(8)
C13 C 0.1262(19) 0.5761(17) 0.2370(8)
C14 C 0.227(2) 0.584(3) 0.2014(11)
H6 H 0.2195 0.5140 0.1863
H7 H 0.3144 0.6237 0.2267
H8 H 0.2116 0.6215 0.1695
C15 C 0.147(3) 0.6860(19) 0.2634(12)
H9 H 0.1307 0.7256 0.2326
H10 H 0.2359 0.7237 0.2876
H11 H 0.0873 0.6787 0.2867
C26 C 0.0530(18) 0.0535(16) 0.3879(8)
C27 C 0.1689(18) 0.1382(15) 0.4353(8)
C28 C 0.0607(18) 0.0546(15) 0.3300(8)
H17 H 0.1327 0.1053 0.3208
H22 H 0.0328 0.1195 0.2101
C35 C 0.4620(18) 0.1605(16) 0.5814(8)
C36 C 0.4966(18) 0.0812(15) 0.6144(8)
C37 C 0.531(2) 0.0066(15) 0.5884(8)
H25 H 0.5322 0.0070 0.5497
C48 C 0.611(3) 0.0819(18) 0.8094(9)
H30 H 0.6165 0.0630 0.8479
H31 H 0.5799 0.1382 0.8061
H32 H 0.6959 0.1063 0.8025
H34 H 0.3444 0.0077 0.7594
C50 C 0.5210(17) 0.0045(16) 0.7018(8)
C51 C 0.4913(19) 0.0791(15) 0.6722(8)
H36 H 0.4678 0.1278 0.6902
C52 C 0.113(3) 0.434(3) 0.5376(18)
H37 H 0.0285 0.3806 0.5374
H38 H 0.1281 0.4241 0.5001
H39 H 0.1152 0.5041 0.5455
C53 C 0.217(3) 0.419(2) 0.5848(14)
C54 C 0.211(7) 0.555(4) 0.654(2)
H40 H 0.2503 0.6206 0.6394
H41 H 0.2343 0.5678 0.6957
H42 H 0.1173 0.5263 0.6385
C55 C 0.353(5) 0.450(4) 0.6798(18)
H43 H 0.3165 0.3864 0.6966
H44 H 0.3942 0.5116 0.7100
H45 H 0.4175 0.4439 0.6619
N1 N 0.255(4) 0.476(2) 0.6303(12)
O3 O 0.4536(13) 0.5438(12) 0.4235(6)
O4 O 0.3180(13) 0.4203(10) 0.4631(5)
O7 O 0.2684(13) 0.1961(10) 0.4213(5)
O8 O 0.1596(14) 0.1463(12) 0.4858(6)
O9 O 0.4570(15) 0.1563(12) 0.5284(6)
O10 O 0.4353(15) 0.2304(11) 0.6069(6)
O13 O 0.5433(15) 0.3584(12) 0.4645(7)
O14 O 0.2616(17) 0.3528(14) 0.5725(8)
Eu3 Eu 0.62366(9) 0.70135(7) 0.48248(4)
O19 O 0.5464(13) 0.4562(12) 0.5765(6)
H46 H 0.594272 0.437593 0.475052
H47 H 0.60403 0.322198 0.474866
C6_2 C 0.9805(18) 0.5868(16) 0.7272(8)
C7_2 C 0.991(2) 0.6616(17) 0.6889(9)
C8_2 C 0.8860(19) 0.6433(15) 0.6415(8)
H4_2 H 0.8930 0.6934 0.6162
C9_2 C 0.7696(19) 0.5507(14) 0.6308(7)
C10_2 C 0.6574(18) 0.5278(14) 0.5788(8)
C11_2 C 0.7572(19) 0.4778(16) 0.6691(8)
H5_2 H 0.6786 0.4170 0.6628
C12_2 C 0.8619(18) 0.4956(16) 0.7166(8)
C13_2 C 0.8738(19) 0.4239(17) 0.7630(8)
C14_2 C 0.773(2) 0.416(3) 0.7986(11)
H6_2 H 0.7805 0.4860 0.8137
H7_2 H 0.6856 0.3763 0.7733
H8_2 H 0.7884 0.3785 0.8305
C15_2 C 0.853(3) 0.3140(19) 0.7366(12)
H9_2 H 0.8693 0.2744 0.7674
H10_2 H 0.7641 0.2763 0.7124
H11_2 H 0.9127 0.3213 0.7133
C26_2 C 0.9470(18) 0.9465(16) 0.6121(8)
C27_2 C 0.8311(18) 0.8618(15) 0.5647(8)
C28_2 C 0.9393(18) 0.9454(15) 0.6700(8)
H17_2 H 0.8673 0.8947 0.6792
H22_2 H 0.9672 0.8805 0.7899
C35_2 C 0.5380(18) 0.8395(16) 0.4186(8)
C36_2 C 0.5034(18) 0.9188(15) 0.3856(8)
C37_2 C 0.469(2) 0.9934(15) 0.4116(8)
H25_2 H 0.4678 0.9930 0.4503
C48_2 C 0.389(3) 0.9181(18) 0.1906(9)
H30_2 H 0.3835 0.9370 0.1521
H31_2 H 0.4201 0.8618 0.1939
H32_2 H 0.3041 0.8937 0.1975
H34_2 H 0.6556 0.9923 0.2406
C50_2 C 0.4790(17) 0.9955(16) 0.2982(8)
C51_2 C 0.5087(19) 0.9209(15) 0.3278(8)
H36_2 H 0.5322 0.8722 0.3098
C52_2 C 0.887(3) 0.566(3) 0.4624(18)
H37_2 H 0.9715 0.6194 0.4626
H38_2 H 0.8719 0.5759 0.4999
H39_2 H 0.8848 0.4959 0.4545
C53_2 C 0.783(3) 0.581(2) 0.4152(14)
C54_2 C 0.789(7) 0.445(4) 0.346(2)
H40_2 H 0.7497 0.3794 0.3606
H41_2 H 0.7657 0.4322 0.3043
H42_2 H 0.8827 0.4737 0.3615
C55_2 C 0.647(5) 0.550(4) 0.3202(18)
H43_2 H 0.6835 0.6136 0.3034
H44_2 H 0.6058 0.4884 0.2900
H45_2 H 0.5825 0.5561 0.3381
N1_2 N 0.745(4) 0.524(2) 0.3697(12)
O4_2 O 0.6820(13) 0.5797(10) 0.5369(5)
O7_2 O 0.7316(13) 0.8039(10) 0.5787(5)
O8_2 O 0.8404(14) 0.8537(12) 0.5142(6)
O9_2 O 0.5430(15) 0.8437(12) 0.4716(6)
O10_2 O 0.5647(15) 0.7696(11) 0.3931(6)
O13_2 O 0.4567(15) 0.6416(12) 0.5355(7)
O14_2 O 0.7384(17) 0.6472(14) 0.4275(8)
H46_2 H 0.405728 0.562407 0.524948
H47_2 H 0.39597 0.677802 0.525134
O17 O 0.7696(15) 0.5607(15) 0.0465(7)
O20 O 0.6064(16) 0.6913(13) 0.0354(7)
H51 H 0.916145 0.738824 0.0202381
C1 C 0.708(2) 0.5010(18) 0.0763(9)
C2 C 0.7828(19) 0.4736(17) 0.1287(8)
C3 C 0.721(2) 0.3817(18) 0.1514(8)
H1 H 0.6317 0.3393 0.1355
C4 C 0.792(2) 0.3532(18) 0.1969(9)
H2 H 0.7506 0.2897 0.2106
C5 C 0.9243(18) 0.4185(17) 0.2229(8)
H3 H 0.9320 0.2763 0.3044
C16 C 0.9839(19) 0.5121(16) 0.2007(8)
C17 C 0.9145(19) 0.5396(18) 0.1536(9)
H12 H 0.9556 0.6016 0.1388
C32 C 0.948(3) 0.061(2) 0.1958(12)
H21 H 0.9263 0.0446 0.1540
H23 H 0.8832 0.0823 0.2060
O2 O 0.5832(14) 0.4630(13) 0.0648(7)
Eu7 Eu 0.35440(9) 0.40266(7) 0.03808(4)
C18 C 0.548(2) 0.6638(15) 0.0750(8)
C19 C 0.6169(15) 0.7200(13) 0.1356(7)
C20 C 0.568(2) 0.6944(17) 0.1807(9)
H13 H 0.4852 0.6376 0.1739
C21 C 0.632(2) 0.7472(16) 0.2359(9)
H14 H 0.5940 0.7267 0.2661
C22 C 0.7560(19) 0.8331(15) 0.2467(8)
C23 C 0.8480(19) 0.9038(16) 0.3000(8)
C24 C 0.843(2) 0.9029(16) 0.3576(8)
H15 H 0.7722 0.8512 0.3669
C25 C 0.9465(19) 0.9804(15) 0.4010(8)
H16 H 0.9427 0.9823 0.4393
C29 C 0.9586(19) 0.9786(16) 0.2884(8)
C30 C 0.9433(19) 0.9631(16) 0.2224(8)
C33 C 0.8084(19) 0.8670(16) 0.2006(9)
C34 C 0.7467(17) 0.8124(13) 0.1467(7)
H24 H 0.7849 0.8322 0.1166
O6 O 0.4355(14) 0.5876(11) 0.0665(7)
C31 C 0.948(2) 0.068(2) 0.7893(11)
H18 H 0.9437 0.1260 0.7693
H19 H 0.8660 0.0062 0.7756
H20 H 0.9664 0.0887 0.8306
C38 C 0.437(2) 0.0676(17) 0.3823(9)
H26 H 0.4126 0.1158 0.4003
C39 C 0.4423(19) 0.0680(15) 0.3239(8)
C40 C 0.421(2) 0.1390(16) 0.2837(9)
C41 C 0.382(2) 0.2255(17) 0.2868(10)
H27 H 0.3652 0.2473 0.3203
C42 C 0.369(2) 0.2752(16) 0.2401(10)
H28 H 0.3453 0.3327 0.2429
C43 C 0.389(2) 0.2468(16) 0.1892(8)
C44 C 0.373(2) 0.2983(16) 0.1379(11)
C45 C 0.425(2) 0.1569(16) 0.1847(9)
H29 H 0.4355 0.1334 0.1498
C46 C 0.4436(17) 0.1062(15) 0.2315(7)
C47 C 0.4827(19) 0.0139(15) 0.2367(8)
C49 C 0.627(2) 0.0488(18) 0.2319(10)
H33 H 0.6849 0.1133 0.2589
H35 H 0.6283 0.0616 0.1927
O11 O 0.3633(18) 0.3892(13) 0.1421(7)
O12 O 0.3722(18) 0.2584(13) 0.0880(6)
O15 O 0.157(6) 0.424(4) 0.059(2)
O16 O 0.129(4) 0.279(3) 0.0221(17)
H48 H 0.103025 0.358192 0.0724692
H49 H 0.102488 0.434866 0.0230101
H50 H 0.125784 0.212196 0.0376086
Eu2 Eu 0.64560(9) 0.59734(7) 0.96192(4)
C31_2 C 0.052(2) 0.932(2) 0.2107(11)
H18_2 H 0.0563 0.8740 0.2307
H19_2 H 0.1340 0.9938 0.2244
H20_2 H 0.0336 0.9113 0.1694
C38_2 C 0.563(2) 0.9324(17) 0.6177(9)
H26_2 H 0.5874 0.8842 0.5997
C39_2 C 0.5577(19) 0.9320(15) 0.6761(8)
C40_2 C 0.579(2) 0.8610(16) 0.7163(9)
C41_2 C 0.618(2) 0.7745(17) 0.7132(10)
H27_2 H 0.6348 0.7527 0.6797
C42_2 C 0.631(2) 0.7248(16) 0.7599(10)
H28_2 H 0.6547 0.6673 0.7571
C43_2 C 0.611(2) 0.7532(16) 0.8108(8)
C44_2 C 0.627(2) 0.7017(16) 0.8621(11)
C45_2 C 0.575(2) 0.8431(16) 0.8153(9)
H29_2 H 0.5645 0.8666 0.8502
C46_2 C 0.5564(17) 0.8938(15) 0.7685(7)
C47_2 C 0.5173(19) 0.9861(15) 0.7633(8)
C49_2 C 0.373(2) 0.9512(18) 0.7681(10)
H33_2 H 0.3151 0.8867 0.7411
H35_2 H 0.3717 0.9384 0.8073
O11_2 O 0.6367(18) 0.6108(13) 0.8579(7)
O12_2 O 0.6278(18) 0.7416(13) 0.9120(6)
O15_2 O 0.843(6) 0.576(4) 0.941(2)
O16_2 O 0.871(4) 0.721(3) 0.9779(17)
O18 O 0.4168(14) 0.5370(13) 0.9352(7)
O21 O 0.5645(14) 0.4124(11) 0.9335(7)
H48_2 H 0.896975 0.641808 0.927531
H49_2 H 0.897512 0.565134 0.97699
H50_2 H 0.874216 0.787804 0.962391
C18_2 C 0.452(2) 0.3362(15) 0.9250(8)
C19_2 C 0.3831(15) 0.2800(13) 0.8644(7)
C20_2 C 0.432(2) 0.3056(17) 0.8193(9)
H13_2 H 0.5148 0.3624 0.8261
C21_2 C 0.368(2) 0.2528(16) 0.7641(9)
H14_2 H 0.4060 0.2733 0.7339
C22_2 C 0.2440(19) 0.1669(15) 0.7533(8)
C23_2 C 0.1520(19) 0.0962(16) 0.7000(8)
C24_2 C 0.157(2) 0.0971(16) 0.6424(8)
H15_2 H 0.2278 0.1488 0.6331
C25_2 C 0.0535(19) 0.0196(15) 0.5990(8)
H16_2 H 0.0573 0.0177 0.5607
C29_2 C 0.0414(19) 0.0214(16) 0.7116(8)
C30_2 C 0.0567(19) 0.0369(16) 0.7776(8)
C33_2 C 0.1916(19) 0.1330(16) 0.7994(9)
C34_2 C 0.2533(17) 0.1876(13) 0.8533(7)
H24_2 H 0.2151 0.1678 0.8834
O5 O 0.3936(16) 0.3087(13) 0.9646(7)
C1_2 C 0.292(2) 0.4990(18) 0.9237(9)
C2_2 C 0.2172(19) 0.5264(17) 0.8713(8)
C3_2 C 0.279(2) 0.6183(18) 0.8486(8)
H1_2 H 0.3683 0.6607 0.8645
C4_2 C 0.208(2) 0.6468(18) 0.8031(9)
H2_2 H 0.2494 0.7103 0.7894
C5_2 C 0.0757(18) 0.5815(17) 0.7771(8)
H3_2 H 0.0680 0.7237 0.6956
C16_2 C 0.0161(19) 0.4879(16) 0.7993(8)
C17_2 C 0.0855(19) 0.4604(18) 0.8464(9)
H12_2 H 0.0444 0.3984 0.8612
C32_2 C 0.052(3) 0.939(2) 0.8042(12)
H21_2 H 0.0737 0.9554 0.8460
H23_2 H 0.1168 0.9177 0.7940
O1 O 0.2304(15) 0.4393(15) 0.9535(7)
H51_2 H 0.0838554 0.261176 0.979762
loop_
_geom_bond_atom_site_label_1
_geom_bond_atom_site_label_2
_geom_bond_site_symmetry_1
_geom_bond_site_symmetry_2
Eu1 O4 1_555 1_555
C7 C6 1_555 1_555
C8 C7 1_555 1_555
H4 C8 1_555 1_555
C9 C8 1_555 1_555
C10 C9 1_555 1_555
C11 C9 1_555 1_555
H5 C11 1_555 1_555
C12 C6 1_555 1_555
C13 C12 1_555 1_555
C14 C13 1_555 1_555
H6 C14 1_555 1_555
H7 C14 1_555 1_555
H8 C14 1_555 1_555
C15 C13 1_555 1_555
H9 C15 1_555 1_555
H10 C15 1_555 1_555
H11 C15 1_555 1_555
C27 C26 1_555 1_555
C28 C26 1_555 1_555
H17 C28 1_555 1_555
C35 C36 1_555 1_555
C36 C37 1_555 1_555
C37 H25 1_555 1_555
H30 C48 1_555 1_555
H31 C48 1_555 1_555
H32 C48 1_555 1_555
C51 C36 1_555 1_555
H36 C51 1_555 1_555
C52 H37 1_555 1_555
H38 C52 1_555 1_555
H39 C52 1_555 1_555
C53 C52 1_555 1_555
C54 H40 1_555 1_555
H41 C54 1_555 1_555
H42 C54 1_555 1_555
C55 H43 1_555 1_555
H44 C55 1_555 1_555
H45 C55 1_555 1_555
N1 C53 1_555 1_555
O3 C10 1_555 1_555
O4 C10 1_555 1_555
O7 Eu1 1_555 1_555
O8 Eu1 1_555 1_555
O9 Eu1 1_555 1_555
O10 Eu1 1_555 1_555
O13 Eu1 1_555 1_555
O14 Eu1 1_555 1_555
Eu3 O3 1_555 1_555
O19 Eu1 1_555 1_555
C11 C12 1_555 1_555
C27 O7 1_555 1_555
C27 O8 1_555 1_555
C35 O9 1_555 1_555
C35 O10 1_555 1_555
C50 C51 1_555 1_555
C53 O14 1_555 1_555
C54 N1 1_555 1_555
C55 N1 1_555 1_555
O13 H46 1_555 1_555
O13 H47 1_555 1_555
Eu3 O4_2 1_555 1_555
C7_2 C6_2 1_555 1_555
C8_2 C7_2 1_555 1_555
H4_2 C8_2 1_555 1_555
C9_2 C8_2 1_555 1_555
C10_2 C9_2 1_555 1_555
C11_2 C9_2 1_555 1_555
H5_2 C11_2 1_555 1_555
C12_2 C6_2 1_555 1_555
C13_2 C12_2 1_555 1_555
C14_2 C13_2 1_555 1_555
H6_2 C14_2 1_555 1_555
H7_2 C14_2 1_555 1_555
H8_2 C14_2 1_555 1_555
C15_2 C13_2 1_555 1_555
H9_2 C15_2 1_555 1_555
H10_2 C15_2 1_555 1_555
H11_2 C15_2 1_555 1_555
C27_2 C26_2 1_555 1_555
C28_2 C26_2 1_555 1_555
H17_2 C28_2 1_555 1_555
C35_2 C36_2 1_555 1_555
C36_2 C37_2 1_555 1_555
C37_2 H25_2 1_555 1_555
H30_2 C48_2 1_555 1_555
H31_2 C48_2 1_555 1_555
H32_2 C48_2 1_555 1_555
C51_2 C36_2 1_555 1_555
H36_2 C51_2 1_555 1_555
C52_2 H37_2 1_555 1_555
H38_2 C52_2 1_555 1_555
H39_2 C52_2 1_555 1_555
C53_2 C52_2 1_555 1_555
C54_2 H40_2 1_555 1_555
H41_2 C54_2 1_555 1_555
H42_2 C54_2 1_555 1_555
C55_2 H43_2 1_555 1_555
H44_2 C55_2 1_555 1_555
H45_2 C55_2 1_555 1_555
N1_2 C53_2 1_555 1_555
O19 C10_2 1_555 1_555
O4_2 C10_2 1_555 1_555
O7_2 Eu3 1_555 1_555
O8_2 Eu3 1_555 1_555
O9_2 Eu3 1_555 1_555
O10_2 Eu3 1_555 1_555
O13_2 Eu3 1_555 1_555
O14_2 Eu3 1_555 1_555
C11_2 C12_2 1_555 1_555
C27_2 O7_2 1_555 1_555
C27_2 O8_2 1_555 1_555
C35_2 O9_2 1_555 1_555
C35_2 O10_2 1_555 1_555
C50_2 C51_2 1_555 1_555
C53_2 O14_2 1_555 1_555
C54_2 N1_2 1_555 1_555
C55_2 N1_2 1_555 1_555
O13_2 H46_2 1_555 1_555
O13_2 H47_2 1_555 1_555
C1 C2 1_555 1_555
C2 C3 1_555 1_555
C3 H1 1_555 1_555
C4 C3 1_555 1_555
H2 C4 1_555 1_555
C5 C4 1_555 1_555
C16 C5 1_555 1_555
C17 C2 1_555 1_555
H12 C17 1_555 1_555
H21 C32 1_555 1_555
H23 C32 1_555 1_555
O17 C1 1_555 1_555
O2 C1 1_555 1_555
Eu7 O2 1_555 1_555
C16 C17 1_555 1_555
C18 C19 1_555 1_555
C19 C20 1_555 1_555
C20 H13 1_555 1_555
C21 C20 1_555 1_555
H14 C21 1_555 1_555
C22 C21 1_555 1_555
C23 C22 1_555 1_555
C24 C23 1_555 1_555
H15 C24 1_555 1_555
C25 C24 1_555 1_555
H16 C25 1_555 1_555
C29 C23 1_555 1_555
C30 C29 1_555 1_555
C33 C22 1_555 1_555
C34 C19 1_555 1_555
H24 C34 1_555 1_555
O20 C18 1_555 1_555
O6 C18 1_555 1_555
Eu7 O6 1_555 1_555
C30 C33 1_555 1_555
C33 C34 1_555 1_555
Eu7 O11 1_555 1_555
H18 C31 1_555 1_555
H19 C31 1_555 1_555
H20 C31 1_555 1_555
H26 C38 1_555 1_555
C39 C38 1_555 1_555
C40 C39 1_555 1_555
C41 C40 1_555 1_555
H27 C41 1_555 1_555
C42 C41 1_555 1_555
H28 C42 1_555 1_555
C43 C42 1_555 1_555
C44 C43 1_555 1_555
C45 C43 1_555 1_555
H29 C45 1_555 1_555
C46 C40 1_555 1_555
C47 C46 1_555 1_555
C49 C47 1_555 1_555
H33 C49 1_555 1_555
H35 C49 1_555 1_555
O11 C44 1_555 1_555
O12 Eu7 1_555 1_555
O15 Eu7 1_555 1_555
O16 Eu7 1_555 1_555
C44 O12 1_555 1_555
C45 C46 1_555 1_555
O15 H48 1_555 1_555
O15 H49 1_555 1_555
O16 H50 1_555 1_555
Eu2 O11_2 1_555 1_555
H18_2 C31_2 1_555 1_555
H19_2 C31_2 1_555 1_555
H20_2 C31_2 1_555 1_555
H26_2 C38_2 1_555 1_555
C39_2 C38_2 1_555 1_555
C40_2 C39_2 1_555 1_555
C41_2 C40_2 1_555 1_555
H27_2 C41_2 1_555 1_555
C42_2 C41_2 1_555 1_555
H28_2 C42_2 1_555 1_555
C43_2 C42_2 1_555 1_555
C44_2 C43_2 1_555 1_555
C45_2 C43_2 1_555 1_555
H29_2 C45_2 1_555 1_555
C46_2 C40_2 1_555 1_555
C47_2 C46_2 1_555 1_555
C49_2 C47_2 1_555 1_555
H33_2 C49_2 1_555 1_555
H35_2 C49_2 1_555 1_555
O11_2 C44_2 1_555 1_555
O12_2 Eu2 1_555 1_555
O15_2 Eu2 1_555 1_555
O16_2 Eu2 1_555 1_555
O18 Eu2 1_555 1_555
O21 Eu2 1_555 1_555
C44_2 O12_2 1_555 1_555
C45_2 C46_2 1_555 1_555
O15_2 H48_2 1_555 1_555
O15_2 H49_2 1_555 1_555
O16_2 H50_2 1_555 1_555
C18_2 C19_2 1_555 1_555
C19_2 C20_2 1_555 1_555
C20_2 H13_2 1_555 1_555
C21_2 C20_2 1_555 1_555
H14_2 C21_2 1_555 1_555
C22_2 C21_2 1_555 1_555
C23_2 C22_2 1_555 1_555
C24_2 C23_2 1_555 1_555
H15_2 C24_2 1_555 1_555
C25_2 C24_2 1_555 1_555
H16_2 C25_2 1_555 1_555
C29_2 C23_2 1_555 1_555
C30_2 C29_2 1_555 1_555
C33_2 C22_2 1_555 1_555
C34_2 C19_2 1_555 1_555
H24_2 C34_2 1_555 1_555
O5 C18_2 1_555 1_555
O21 C18_2 1_555 1_555
C30_2 C33_2 1_555 1_555
C33_2 C34_2 1_555 1_555
C1_2 C2_2 1_555 1_555
C2_2 C3_2 1_555 1_555
C3_2 H1_2 1_555 1_555
C4_2 C3_2 1_555 1_555
H2_2 C4_2 1_555 1_555
C5_2 C4_2 1_555 1_555
C16_2 C5_2 1_555 1_555
C17_2 C2_2 1_555 1_555
H12_2 C17_2 1_555 1_555
H21_2 C32_2 1_555 1_555
H23_2 C32_2 1_555 1_555
O1 C1_2 1_555 1_555
O18 C1_2 1_555 1_555
C16_2 C17_2 1_555 1_555

#END
