
###############################################################################
#
# This file contains modified crystal structure data generated from the
# MOF subset of the Cambridge Structural Database (CSD) v543 
# hosted by the Cambridge Crystallographic Data Centre (CCDC).
#
# This work is licensed under the Creative Commons
# Attribution-NonCommercial-ShareAlike 4.0 International License.
# To view a copy of this license, visit
# http://creativecommons.org/licenses/by-nc-sa/4.0/
# or send a letter to
# Creative Commons, PO Box 1866, Mountain View, CA 94042, USA.
#
# CIF created using the CSD Python API on 29 September 2022
# The structure has been converted into the P1 space group
# The structure has a 3D framework
# The original CSD entry LADQIT is in the triclinic crystal system
# The framework has been calculated to contain at least 10.0% void space
# The void calculation uses a probe of radius 1.32A, grid spacing 0.4
# H atom positions have been added when not included in the experimental data
#
###############################################################################

data_LADQIT
_chemical_formula_moiety         '(C110 H102 Gd4 N2 O32)n'
_symmetry_cell_setting           triclinic
_symmetry_space_group_name_H-M   'P 1'
_symmetry_Int_Tables_number      1
_space_group_name_Hall           'P 1'
loop_
_symmetry_equiv_pos_site_id
_symmetry_equiv_pos_as_xyz
1 x,y,z
_cell_length_a                   11.4957(4)
_cell_length_b                   13.6804(4)
_cell_length_c                   23.9693(8)
_cell_angle_alpha                76.328(3)
_cell_angle_beta                 76.214(3)
_cell_angle_gamma                66.917(3)
_cell_volume                     3324.48
loop_
_atom_site_label
_atom_site_type_symbol
_atom_site_fract_x
_atom_site_fract_y
_atom_site_fract_z
H1 H 0.0017 0.3377 0.8665
H37 H 0.0043 0.4421 0.4448
H41 H 0.0248 0.5212 0.3276
Gd7 Gd 0.18404(3) 0.40190(3) 0.961727(14)
C18 C 0.0262(7) 0.6618(6) 0.9258(3)
C19 C 0.0155(6) 0.7247(6) 0.8657(3)
C20 C 0.1153(7) 0.6941(6) 0.8201(3)
H13 H 0.1900 0.6363 0.8273
C21 C 0.1048(7) 0.7489(6) 0.7635(3)
H14 H 0.1721 0.7283 0.7331
C24 C 0.0164(6) 0.9033(6) 0.6425(3)
H15 H 0.0971 0.8520 0.6335
H16 H 0.0008 0.9813 0.5614
O6 O 0.1309(5) 0.5864(4) 0.9334(2)
O18 O 0.0151(5) 0.5366(4) 0.0654(2)
Gd5 Gd 0.81596(3) 0.59810(3) 0.038273(14)
Gd1 Gd 0.64066(3) 0.29881(2) 0.482698(13)
C1 C 0.8744(8) 0.5006(6) 0.9230(3)
C2 C 0.8487(7) 0.4730(6) 0.8713(3)
C3 C 0.9299(7) 0.3816(6) 0.8495(3)
C4 C 0.9067(7) 0.3535(6) 0.8024(3)
H2 H 0.9622 0.2908 0.7881
C5 C 0.8003(6) 0.4193(6) 0.7770(3)
C6 C 0.7542(6) 0.4132(5) 0.7263(3)
C7 C 0.8032(7) 0.3383(6) 0.6886(3)
H3 H 0.8746 0.2767 0.6951
C8 C 0.7437(7) 0.3571(6) 0.6412(3)
H4 H 0.7757 0.3073 0.6157
C9 C 0.6382(6) 0.4479(5) 0.6309(3)
C10 C 0.5797(7) 0.4709(5) 0.5780(3)
C11 C 0.5867(6) 0.5219(6) 0.6701(3)
H5 H 0.5135 0.5821 0.6644
C12 C 0.6450(6) 0.5047(6) 0.7170(3)
C13 C 0.6111(6) 0.5757(6) 0.7626(3)
C14 C 0.4781(7) 0.5882(8) 0.7975(4)
H6 H 0.4157 0.6254 0.7721
H7 H 0.4614 0.6290 0.8279
H8 H 0.4732 0.5186 0.8143
C15 C 0.6181(9) 0.6881(7) 0.7347(4)
H9 H 0.6992 0.6798 0.7098
H10 H 0.6093 0.7272 0.7648
H11 H 0.5501 0.7270 0.7123
C16 C 0.7168(6) 0.5128(6) 0.7995(3)
C17 C 0.7412(7) 0.5390(6) 0.8461(3)
H12 H 0.6858 0.6011 0.8610
C26 C 0.8331(6) 0.0558(5) 0.6121(3)
C27 C 0.7679(6) 0.1369(5) 0.5659(3)
C28 C 0.7709(6) 0.0548(6) 0.6690(3)
H17 H 0.6891 0.1044 0.6781
C32 C 0.7512(8) 0.0629(7) 0.8042(3)
H21 H 0.7355 0.0460 0.8459
H22 H 0.6771 0.1197 0.7911
H23 H 0.8236 0.0858 0.7922
C35 C 0.6190(6) 0.1615(5) 0.4185(3)
C36 C 0.6167(6) 0.0826(5) 0.3850(3)
C37 C 0.5538(7) 0.0101(6) 0.4112(3)
H25 H 0.5104 0.0134 0.4491
C48 C 0.6963(8) 0.0849(6) 0.1922(3)
H30 H 0.7285 0.0664 0.1538
H31 H 0.7248 0.1399 0.1959
H32 H 0.6043 0.1110 0.1986
H34 H 0.9104 0.0057 0.2434
C50 C 0.6807(6) 0.0050(5) 0.2989(3)
C51 C 0.6789(6) 0.0796(5) 0.3284(3)
H36 H 0.7197 0.1283 0.3103
C52 C 0.9233(9) 0.4342(9) 0.4619(6)
H38 H 0.9359 0.3727 0.4922
H39 H 0.8667 0.4976 0.4780
C53 C 0.8643(9) 0.4171(8) 0.4140(5)
C54 C 0.9428(17) 0.5520(12) 0.3506(7)
H40 H 0.8908 0.6145 0.3278
H42 H 0.9544 0.5722 0.3841
C55 C 0.8159(18) 0.4565(12) 0.3247(6)
H43 H 0.7275 0.4695 0.3413
H44 H 0.8560 0.3841 0.3164
H45 H 0.8213 0.5062 0.2893
N1 N 0.8828(11) 0.4719(8) 0.3697(5)
O1 O 0.7794(5) 0.5619(5) 0.9528(2)
O2 O 0.9849(5) 0.4634(4) 0.9346(2)
O3 O 0.4689(5) 0.5427(4) 0.57593(19)
O4 O 0.6432(4) 0.4190(4) 0.53689(18)
O7 O 0.6533(4) 0.1954(4) 0.57847(19)
O8 O 0.8264(4) 0.1476(4) 0.5139(2)
O9 O 0.5698(5) 0.1592(4) 0.47175(19)
O10 O 0.6697(4) 0.2307(4) 0.3933(2)
O13 O 0.4216(4) 0.3587(4) 0.5347(2)
O14 O 0.8081(5) 0.3523(4) 0.4283(2)
Gd3 Gd 0.35934(3) 0.70119(2) 0.517302(13)
O19 O 0.5311(5) 0.4573(4) 0.42407(19)
H46 H 0.381135 0.437894 0.524041
H47 H 0.371941 0.32263 0.523984
C22 C 0.9937(6) 0.8339(5) 0.7530(3)
C23 C 0.9538(6) 0.9038(5) 0.6990(3)
C25 C 0.9578(6) 0.9795(5) 0.5996(3)
C29 C 0.8314(6) 0.9796(6) 0.7119(3)
C30 C 0.7794(6) 0.9625(6) 0.7779(3)
C31 C 0.6595(7) 0.9330(8) 0.7885(4)
H18 H 0.6748 0.8779 0.7663
H19 H 0.5889 0.9956 0.7768
H20 H 0.6395 0.9071 0.8291
C33 C 0.8941(7) 0.8667(5) 0.7990(3)
C34 C 0.9045(7) 0.8112(6) 0.8553(3)
H24 H 0.8375 0.8320 0.8857
C38 C 0.5542(7) 0.9338(6) 0.3822(3)
H26 H 0.5130 0.8854 0.4004
C39 C 0.6178(6) 0.9316(5) 0.3252(3)
C40 C 0.6366(6) 0.8612(5) 0.2834(3)
C41 C 0.5955(7) 0.7769(6) 0.2880(3)
H27 H 0.5471 0.7555 0.3223
C42 C 0.6281(7) 0.7246(6) 0.2402(3)
H28 H 0.6009 0.6678 0.2427
C43 C 0.7004(7) 0.7552(6) 0.1888(3)
C44 C 0.7362(7) 0.6982(6) 0.1370(3)
C45 C 0.7392(6) 0.8398(6) 0.1851(3)
H29 H 0.7861 0.8619 0.1505
C46 C 0.7090(6) 0.8929(5) 0.2323(3)
C47 C 0.7461(6) 0.9851(5) 0.2373(3)
C49 C 0.8915(7) 0.9504(7) 0.2332(4)
H33 H 0.9233 0.8844 0.2592
H35 H 0.9320 0.9400 0.1940
O5 O 0.9289(5) 0.6878(4) 0.9645(2)
O11 O 0.7216(6) 0.6109(5) 0.1420(2)
O12 O 0.7841(6) 0.7417(4) 0.0888(2)
O15 O 0.5956(9) 0.5786(12) 0.0582(6)
O16 O 0.6235(11) 0.7357(12) 0.0154(5)
O21 O 0.8691(5) 0.4136(4) 0.0666(2)
H48 H 0.528521 0.644502 0.0717022
H49 H 0.577375 0.568555 0.0218947
H50 H 0.611214 0.800837 0.0309457
H51 H 0.627848 0.753243 0.972493
O17 O 0.2206(5) 0.4381(5) 0.0472(2)
O20 O 0.0711(5) 0.3122(4) 0.0355(2)
H51_2 H 0.372152 0.246757 0.0275073
C22_2 C 0.0063(6) 0.1661(5) 0.2470(3)
C23_2 C 0.0462(6) 0.0962(5) 0.3010(3)
C25_2 C 0.0422(6) 0.0205(5) 0.4004(3)
C29_2 C 0.1686(6) 0.0204(6) 0.2881(3)
C30_2 C 0.2206(6) 0.0375(6) 0.2221(3)
C31_2 C 0.3405(7) 0.0670(8) 0.2115(4)
H18_2 H 0.3252 0.1221 0.2337
H19_2 H 0.4111 0.0044 0.2232
H20_2 H 0.3605 0.0929 0.1709
C33_2 C 0.1059(7) 0.1333(5) 0.2010(3)
C34_2 C 0.0955(7) 0.1888(6) 0.1447(3)
H24_2 H 0.1625 0.1680 0.1143
C38_2 C 0.4458(7) 0.0662(6) 0.6178(3)
H26_2 H 0.4870 0.1146 0.5996
C39_2 C 0.3822(6) 0.0684(5) 0.6748(3)
C40_2 C 0.3634(6) 0.1388(5) 0.7166(3)
C41_2 C 0.4045(7) 0.2231(6) 0.7120(3)
H27_2 H 0.4529 0.2445 0.6777
C42_2 C 0.3719(7) 0.2754(6) 0.7598(3)
H28_2 H 0.3991 0.3322 0.7573
C43_2 C 0.2996(7) 0.2448(6) 0.8112(3)
C44_2 C 0.2638(7) 0.3018(6) 0.8630(3)
C45_2 C 0.2608(6) 0.1602(6) 0.8149(3)
H29_2 H 0.2139 0.1381 0.8495
C46_2 C 0.2910(6) 0.1071(5) 0.7677(3)
C47_2 C 0.2539(6) 0.0149(5) 0.7627(3)
C49_2 C 0.1085(7) 0.0496(7) 0.7668(4)
H33_2 H 0.0767 0.1156 0.7408
H35_2 H 0.0680 0.0600 0.8060
O11_2 O 0.2784(6) 0.3891(5) 0.8580(2)
O12_2 O 0.2159(6) 0.2583(4) 0.9112(2)
O15_2 O 0.4044(9) 0.4214(12) 0.9418(6)
O16_2 O 0.3765(11) 0.2643(12) 0.9846(5)
H48_2 H 0.471479 0.355498 0.928298
H49_2 H 0.422625 0.431445 0.978105
H50_2 H 0.388786 0.199163 0.969054
C1_2 C 0.1256(8) 0.4994(6) 0.0770(3)
C2_2 C 0.1513(7) 0.5270(6) 0.1287(3)
C3_2 C 0.0701(7) 0.6184(6) 0.1505(3)
C4_2 C 0.0933(7) 0.6465(6) 0.1976(3)
H2_2 H 0.0378 0.7092 0.2119
C5_2 C 0.1997(6) 0.5807(6) 0.2230(3)
C6_2 C 0.2458(6) 0.5868(5) 0.2737(3)
C7_2 C 0.1968(7) 0.6617(6) 0.3114(3)
H3_2 H 0.1254 0.7233 0.3049
C8_2 C 0.2563(7) 0.6429(6) 0.3588(3)
H4_2 H 0.2243 0.6927 0.3843
C9_2 C 0.3618(6) 0.5521(5) 0.3691(3)
C10_2 C 0.4203(7) 0.5291(5) 0.4220(3)
C11_2 C 0.4133(6) 0.4781(6) 0.3299(3)
H5_2 H 0.4865 0.4179 0.3356
C12_2 C 0.3550(6) 0.4953(6) 0.2830(3)
C13_2 C 0.3889(6) 0.4243(6) 0.2374(3)
C14_2 C 0.5219(7) 0.4118(8) 0.2025(4)
H6_2 H 0.5843 0.3746 0.2279
H7_2 H 0.5386 0.3710 0.1721
H8_2 H 0.5268 0.4814 0.1857
C15_2 C 0.3819(9) 0.3119(7) 0.2653(4)
H9_2 H 0.3008 0.3202 0.2902
H10_2 H 0.3907 0.2728 0.2352
H11_2 H 0.4499 0.2730 0.2877
C16_2 C 0.2832(6) 0.4872(6) 0.2005(3)
C17_2 C 0.2588(7) 0.4610(6) 0.1539(3)
H12_2 H 0.3142 0.3989 0.1390
C26_2 C 0.1669(6) 0.9442(5) 0.3879(3)
C27_2 C 0.2321(6) 0.8631(5) 0.4341(3)
C28_2 C 0.2291(6) 0.9452(6) 0.3310(3)
H17_2 H 0.3109 0.8956 0.3219
C32_2 C 0.2488(8) 0.9371(7) 0.1958(3)
H21_2 H 0.2645 0.9540 0.1541
H22_2 H 0.3229 0.8803 0.2089
H23_2 H 0.1764 0.9142 0.2078
C35_2 C 0.3810(6) 0.8385(5) 0.5815(3)
C36_2 C 0.3833(6) 0.9174(5) 0.6150(3)
C37_2 C 0.4462(7) 0.9899(6) 0.5888(3)
H25_2 H 0.4896 0.9866 0.5509
C48_2 C 0.3037(8) 0.9151(6) 0.8078(3)
H30_2 H 0.2715 0.9336 0.8462
H31_2 H 0.2752 0.8601 0.8041
H32_2 H 0.3957 0.8890 0.8014
H34_2 H 0.0896 0.9943 0.7566
C50_2 C 0.3193(6) 0.9950(5) 0.7011(3)
C51_2 C 0.3211(6) 0.9204(5) 0.6716(3)
H36_2 H 0.2803 0.8717 0.6897
C52_2 C 0.0767(9) 0.5658(9) 0.5381(6)
H38_2 H 0.0641 0.6273 0.5078
H39_2 H 0.1333 0.5024 0.5220
C53_2 C 0.1357(9) 0.5829(8) 0.5860(5)
C54_2 C 0.0572(17) 0.4480(12) 0.6494(7)
H40_2 H 0.1092 0.3855 0.6722
H42_2 H 0.0456 0.4278 0.6159
C55_2 C 0.1841(18) 0.5435(12) 0.6753(6)
H43_2 H 0.2725 0.5305 0.6587
H44_2 H 0.1440 0.6159 0.6836
H45_2 H 0.1787 0.4938 0.7107
N1_2 N 0.1172(11) 0.5281(8) 0.6303(5)
O4_2 O 0.3568(4) 0.5810(4) 0.46311(18)
O7_2 O 0.3467(4) 0.8046(4) 0.42153(19)
O8_2 O 0.1736(4) 0.8524(4) 0.4861(2)
O9_2 O 0.4302(5) 0.8408(4) 0.52825(19)
O10_2 O 0.3303(4) 0.7693(4) 0.6067(2)
O13_2 O 0.5784(4) 0.6413(4) 0.4653(2)
O14_2 O 0.1919(5) 0.6477(4) 0.5717(2)
H46_2 H 0.618865 0.562106 0.475959
H47_2 H 0.628059 0.67737 0.476016
C18_2 C 0.9738(7) 0.3382(6) 0.0742(3)
C19_2 C 0.9845(6) 0.2753(6) 0.1343(3)
C20_2 C 0.8847(7) 0.3059(6) 0.1799(3)
H13_2 H 0.8100 0.3637 0.1727
C21_2 C 0.8952(7) 0.2511(6) 0.2365(3)
H14_2 H 0.8279 0.2717 0.2669
C24_2 C 0.9836(6) 0.0967(6) 0.3575(3)
H15_2 H 0.9029 0.1480 0.3665
H16_2 H 0.9992 0.0187 0.4386
H1_2 H 0.9983 0.6623 0.1335
H37_2 H 0.9957 0.5579 0.5552
H41_2 H 0.9752 0.4788 0.6724
loop_
_geom_bond_atom_site_label_1
_geom_bond_atom_site_label_2
_geom_bond_site_symmetry_1
_geom_bond_site_symmetry_2
C18 C19 1_555 1_555
C19 C20 1_555 1_555
C20 H13 1_555 1_555
C21 C20 1_555 1_555
H14 C21 1_555 1_555
H15 C24 1_555 1_555
O6 C18 1_555 1_555
Gd7 O6 1_555 1_555
Gd1 O4 1_555 1_555
C1 C2 1_555 1_555
C2 C3 1_555 1_555
C4 C3 1_555 1_555
H2 C4 1_555 1_555
C5 C4 1_555 1_555
C6 C5 1_555 1_555
C7 C6 1_555 1_555
H3 C7 1_555 1_555
C8 C7 1_555 1_555
H4 C8 1_555 1_555
C9 C8 1_555 1_555
C10 C9 1_555 1_555
C11 C9 1_555 1_555
H5 C11 1_555 1_555
C12 C6 1_555 1_555
C13 C12 1_555 1_555
C14 C13 1_555 1_555
H6 C14 1_555 1_555
H7 C14 1_555 1_555
H8 C14 1_555 1_555
C15 C13 1_555 1_555
H9 C15 1_555 1_555
H10 C15 1_555 1_555
H11 C15 1_555 1_555
C16 C5 1_555 1_555
C17 C2 1_555 1_555
H12 C17 1_555 1_555
C27 C26 1_555 1_555
C28 C26 1_555 1_555
H17 C28 1_555 1_555
H21 C32 1_555 1_555
H22 C32 1_555 1_555
H23 C32 1_555 1_555
C35 C36 1_555 1_555
C36 C37 1_555 1_555
C37 H25 1_555 1_555
H30 C48 1_555 1_555
H31 C48 1_555 1_555
H32 C48 1_555 1_555
C51 C36 1_555 1_555
H36 C51 1_555 1_555
H38 C52 1_555 1_555
H39 C52 1_555 1_555
C53 C52 1_555 1_555
C54 H40 1_555 1_555
H42 C54 1_555 1_555
C55 H43 1_555 1_555
H44 C55 1_555 1_555
H45 C55 1_555 1_555
N1 C53 1_555 1_555
O1 C1 1_555 1_555
O2 C1 1_555 1_555
O3 C10 1_555 1_555
O4 C10 1_555 1_555
O7 Gd1 1_555 1_555
O8 Gd1 1_555 1_555
O9 Gd1 1_555 1_555
O10 Gd1 1_555 1_555
O13 Gd1 1_555 1_555
O14 Gd1 1_555 1_555
Gd3 O3 1_555 1_555
O19 Gd1 1_555 1_555
C11 C12 1_555 1_555
C13 C16 1_555 1_555
C16 C17 1_555 1_555
C27 O7 1_555 1_555
C27 O8 1_555 1_555
C35 O9 1_555 1_555
C35 O10 1_555 1_555
C50 C51 1_555 1_555
C53 O14 1_555 1_555
C54 N1 1_555 1_555
C55 N1 1_555 1_555
O13 H46 1_555 1_555
O13 H47 1_555 1_555
Gd5 O11 1_555 1_555
C23 C22 1_555 1_555
C29 C23 1_555 1_555
C30 C29 1_555 1_555
C31 C30 1_555 1_555
H18 C31 1_555 1_555
H19 C31 1_555 1_555
H20 C31 1_555 1_555
C33 C22 1_555 1_555
H24 C34 1_555 1_555
H26 C38 1_555 1_555
C39 C38 1_555 1_555
C40 C39 1_555 1_555
C41 C40 1_555 1_555
H27 C41 1_555 1_555
C42 C41 1_555 1_555
H28 C42 1_555 1_555
C43 C42 1_555 1_555
C44 C43 1_555 1_555
C45 C43 1_555 1_555
H29 C45 1_555 1_555
C46 C40 1_555 1_555
C47 C46 1_555 1_555
C49 C47 1_555 1_555
H33 C49 1_555 1_555
H35 C49 1_555 1_555
O11 C44 1_555 1_555
O12 Gd5 1_555 1_555
O15 Gd5 1_555 1_555
O16 Gd5 1_555 1_555
O21 Gd5 1_555 1_555
C30 C33 1_555 1_555
C33 C34 1_555 1_555
C44 O12 1_555 1_555
C45 C46 1_555 1_555
O15 H48 1_555 1_555
O15 H49 1_555 1_555
O16 H50 1_555 1_555
Gd7 O11_2 1_555 1_555
C23_2 C22_2 1_555 1_555
C29_2 C23_2 1_555 1_555
C30_2 C29_2 1_555 1_555
C31_2 C30_2 1_555 1_555
H18_2 C31_2 1_555 1_555
H19_2 C31_2 1_555 1_555
H20_2 C31_2 1_555 1_555
C33_2 C22_2 1_555 1_555
H24_2 C34_2 1_555 1_555
H26_2 C38_2 1_555 1_555
C39_2 C38_2 1_555 1_555
C40_2 C39_2 1_555 1_555
C41_2 C40_2 1_555 1_555
H27_2 C41_2 1_555 1_555
C42_2 C41_2 1_555 1_555
H28_2 C42_2 1_555 1_555
C43_2 C42_2 1_555 1_555
C44_2 C43_2 1_555 1_555
C45_2 C43_2 1_555 1_555
H29_2 C45_2 1_555 1_555
C46_2 C40_2 1_555 1_555
C47_2 C46_2 1_555 1_555
C49_2 C47_2 1_555 1_555
H33_2 C49_2 1_555 1_555
H35_2 C49_2 1_555 1_555
O11_2 C44_2 1_555 1_555
O12_2 Gd7 1_555 1_555
O15_2 Gd7 1_555 1_555
O16_2 Gd7 1_555 1_555
C30_2 C33_2 1_555 1_555
C33_2 C34_2 1_555 1_555
C44_2 O12_2 1_555 1_555
C45_2 C46_2 1_555 1_555
O15_2 H48_2 1_555 1_555
O15_2 H49_2 1_555 1_555
O16_2 H50_2 1_555 1_555
Gd3 O4_2 1_555 1_555
C1_2 C2_2 1_555 1_555
C2_2 C3_2 1_555 1_555
C4_2 C3_2 1_555 1_555
H2_2 C4_2 1_555 1_555
C5_2 C4_2 1_555 1_555
C6_2 C5_2 1_555 1_555
C7_2 C6_2 1_555 1_555
H3_2 C7_2 1_555 1_555
C8_2 C7_2 1_555 1_555
H4_2 C8_2 1_555 1_555
C9_2 C8_2 1_555 1_555
C10_2 C9_2 1_555 1_555
C11_2 C9_2 1_555 1_555
H5_2 C11_2 1_555 1_555
C12_2 C6_2 1_555 1_555
C13_2 C12_2 1_555 1_555
C14_2 C13_2 1_555 1_555
H6_2 C14_2 1_555 1_555
H7_2 C14_2 1_555 1_555
H8_2 C14_2 1_555 1_555
C15_2 C13_2 1_555 1_555
H9_2 C15_2 1_555 1_555
H10_2 C15_2 1_555 1_555
H11_2 C15_2 1_555 1_555
C16_2 C5_2 1_555 1_555
C17_2 C2_2 1_555 1_555
H12_2 C17_2 1_555 1_555
C27_2 C26_2 1_555 1_555
C28_2 C26_2 1_555 1_555
H17_2 C28_2 1_555 1_555
H21_2 C32_2 1_555 1_555
H22_2 C32_2 1_555 1_555
H23_2 C32_2 1_555 1_555
C35_2 C36_2 1_555 1_555
C36_2 C37_2 1_555 1_555
C37_2 H25_2 1_555 1_555
H30_2 C48_2 1_555 1_555
H31_2 C48_2 1_555 1_555
H32_2 C48_2 1_555 1_555
C51_2 C36_2 1_555 1_555
H36_2 C51_2 1_555 1_555
H38_2 C52_2 1_555 1_555
H39_2 C52_2 1_555 1_555
C53_2 C52_2 1_555 1_555
C54_2 H40_2 1_555 1_555
H42_2 C54_2 1_555 1_555
C55_2 H43_2 1_555 1_555
H44_2 C55_2 1_555 1_555
H45_2 C55_2 1_555 1_555
N1_2 C53_2 1_555 1_555
O17 C1_2 1_555 1_555
O18 C1_2 1_555 1_555
O19 C10_2 1_555 1_555
O4_2 C10_2 1_555 1_555
O7_2 Gd3 1_555 1_555
O8_2 Gd3 1_555 1_555
O9_2 Gd3 1_555 1_555
O10_2 Gd3 1_555 1_555
O13_2 Gd3 1_555 1_555
O14_2 Gd3 1_555 1_555
C11_2 C12_2 1_555 1_555
C13_2 C16_2 1_555 1_555
C16_2 C17_2 1_555 1_555
C27_2 O7_2 1_555 1_555
C27_2 O8_2 1_555 1_555
C35_2 O9_2 1_555 1_555
C35_2 O10_2 1_555 1_555
C50_2 C51_2 1_555 1_555
C53_2 O14_2 1_555 1_555
C54_2 N1_2 1_555 1_555
C55_2 N1_2 1_555 1_555
O13_2 H46_2 1_555 1_555
O13_2 H47_2 1_555 1_555
C18_2 C19_2 1_555 1_555
C19_2 C20_2 1_555 1_555
C20_2 H13_2 1_555 1_555
C21_2 C20_2 1_555 1_555
H14_2 C21_2 1_555 1_555
H15_2 C24_2 1_555 1_555
O21 C18_2 1_555 1_555

#END
