
###############################################################################
#
# This file contains modified crystal structure data generated from the
# MOF subset of the Cambridge Structural Database (CSD) v543 
# hosted by the Cambridge Crystallographic Data Centre (CCDC).
#
# This work is licensed under the Creative Commons
# Attribution-NonCommercial-ShareAlike 4.0 International License.
# To view a copy of this license, visit
# http://creativecommons.org/licenses/by-nc-sa/4.0/
# or send a letter to
# Creative Commons, PO Box 1866, Mountain View, CA 94042, USA.
#
# CIF created using the CSD Python API on 29 September 2022
# The structure has been converted into the P1 space group
# The structure has a 3D framework
# The original CSD entry LAFFEG02 is in the rhombohedral crystal system
# The framework has been calculated to contain at least 10.0% void space
# The void calculation uses a probe of radius 1.32A, grid spacing 0.4
# The framework is charged, counterions have been retained in the structure
#
###############################################################################

data_LAFFEG02
_chemical_formula_moiety         '(C382 H360 N108 O72 Zn14 13-)n'
_symmetry_cell_setting           triclinic
_symmetry_space_group_name_H-M   'P 1'
_symmetry_Int_Tables_number      1
_space_group_name_Hall           'P 1'
loop_
_symmetry_equiv_pos_site_id
_symmetry_equiv_pos_as_xyz
1 x,y,z
_cell_length_a                   31.4077(9)
_cell_length_b                   31.4077(9)
_cell_length_c                   15.0945(7)
_cell_angle_alpha                90
_cell_angle_beta                 90
_cell_angle_gamma                120
_cell_volume                     12895
loop_
_atom_site_label
_atom_site_type_symbol
_atom_site_fract_x
_atom_site_fract_y
_atom_site_fract_z
C38 C 0.18070(19) 0.25540(28) 0.4334(4)
C39 C 0.14415(18) 0.20210(25) 0.4167(3)
C40 C 0.10445(19) 0.18868(27) 0.3593(4)
H23 H 0.1009 0.2129 0.3306
C41 C 0.07070(19) 0.14020(28) 0.3449(3)
H24 H 0.0440 0.1321 0.3080
C42 C 0.07544(16) 0.10251(23) 0.3841(3)
C43 C 0.11565(16) 0.11567(23) 0.4393(3)
H25 H 0.1198 0.0912 0.4658
C44 C 0.14968(17) 0.16475(25) 0.4556(3)
H26 H 0.1763 0.1728 0.4926
C45 C 0.03675(16) 0.04982(23) 0.3745(3)
C46 C 0.04916(17) 0.01264(24) 0.3740(3)
H27 H 0.0821 0.0212 0.3734
O9 O 0.1793(2) 0.28812(28) 0.3917(4)
O10 O 0.21271(15) 0.26395(23) 0.4926(3)
Zn4 Zn 0.26927(2) 0.33026(3) 0.48688(4)
Zn1 Zn 0.06099(2) 0.73073(2) 0.48688(4)
C1 C 0.14877(18) 0.73931(18) 0.5454(3)
C2 C 0.18614(17) 0.72238(17) 0.5509(3)
C3 C 0.17635(17) 0.67761(17) 0.5133(3)
H1 H 0.1460 0.6572 0.4870
C4 C 0.21152(17) 0.66387(17) 0.5153(3)
H2 H 0.2044 0.6339 0.4906
C5 C 0.25817(17) 0.69405(16) 0.5539(3)
C6 C 0.26610(18) 0.73749(18) 0.5944(3)
H3 H 0.2959 0.7575 0.6227
C7 C 0.2307(2) 0.75147(19) 0.5933(3)
H4 H 0.2368 0.7804 0.6211
C8 C 0.29656(17) 0.67981(17) 0.5520(3)
C9 C 0.34646(17) 0.71604(18) 0.5516(3)
H5 H 0.3552 0.7490 0.5510
C10 C 0.0747(2) 0.81930(19) 0.4334(4)
C11 C 0.05795(18) 0.85585(18) 0.4167(3)
C12 C 0.08423(19) 0.89555(19) 0.3593(4)
H6 H 0.1120 0.8991 0.3306
C13 C 0.0695(2) 0.92930(19) 0.3449(3)
H7 H 0.0881 0.9560 0.3080
C14 C 0.02707(17) 0.92456(16) 0.3841(3)
C15 C 0.00002(17) 0.88435(16) 0.4393(3)
C16 C 0.01507(18) 0.85032(17) 0.4556(3)
C17 C 0.01307(17) 0.96325(16) 0.3745(3)
C19 C 0.04252(18) 0.6707(2) 0.3180(3)
O1 O 0.10882(19) 0.8207(2) 0.3917(4)
O2 O 0.05124(18) 0.78729(15) 0.4926(3)
O3 O 0.15096(16) 0.77167(14) 0.5946(3)
O4 O 0.11538(14) 0.71742(15) 0.4866(3)
N2 N 0.00779(15) 0.64786(17) 0.2570(3)
N4 N 0.0867(2) 0.6735(3) 0.3178(4)
H11 H 0.0942 0.6599 0.2759
H12 H 0.1074 0.6889 0.3596
N5 N 0.02896(15) 0.69370(17) 0.3763(3)
C20 C 0.26069(18) 0.40946(25) 0.5454(3)
C21 C 0.27762(17) 0.46376(24) 0.5509(3)
C22 C 0.32239(17) 0.49874(24) 0.5133(3)
H13 H 0.3428 0.4888 0.4870
C23 C 0.33613(17) 0.54765(24) 0.5153(3)
H14 H 0.3661 0.5705 0.4906
C24 C 0.30595(16) 0.56412(23) 0.5539(3)
C25 C 0.26251(18) 0.52861(25) 0.5944(3)
H15 H 0.2425 0.5384 0.6227
C26 C 0.24853(19) 0.47923(28) 0.5933(3)
H16 H 0.2196 0.4564 0.6211
C27 C 0.32019(17) 0.61675(24) 0.5520(3)
C28 C 0.28396(18) 0.63042(25) 0.5516(3)
H17 H 0.2510 0.6062 0.5510
O5 O 0.22833(14) 0.37929(21) 0.5946(3)
O6 O 0.28258(15) 0.39796(21) 0.4866(3)
C29 C 0.59054(25) 0.85123(18) 0.5454(3)
C30 C 0.53624(24) 0.81386(17) 0.5509(3)
C31 C 0.50126(24) 0.82365(17) 0.5133(3)
H18 H 0.5112 0.8540 0.4870
C32 C 0.45235(24) 0.78848(17) 0.5153(3)
H19 H 0.4295 0.7956 0.4906
C33 C 0.43588(23) 0.74183(17) 0.5539(3)
C34 C 0.47139(25) 0.73390(18) 0.5944(3)
H20 H 0.4616 0.7041 0.6227
C35 C 0.52077(28) 0.7693(2) 0.5933(3)
H21 H 0.5436 0.7632 0.6211
C36 C 0.38325(24) 0.70344(17) 0.5520(3)
C37 C 0.36958(25) 0.65354(17) 0.5516(3)
H22 H 0.3938 0.6448 0.5510
O7 O 0.62071(21) 0.84904(16) 0.5946(3)
O8 O 0.60204(21) 0.88462(14) 0.4866(3)
C56 C 0.3293(2) 0.37182(27) 0.3180(3)
N6 N 0.3427(3) 0.31430(36) 0.2798(4)
N7 N 0.35214(17) 0.35993(23) 0.2570(3)
N8 N 0.3153(3) 0.29943(36) 0.3493(4)
N9 N 0.3265(3) 0.4132(4) 0.3178(4)
H33 H 0.3401 0.4343 0.2759
H34 H 0.3111 0.4185 0.3596
N10 N 0.30630(17) 0.33526(23) 0.3763(3)
N11 N 0.0094(3) 0.64763(36) 0.6131(4)
N12 N 0.01881(17) 0.69326(23) 0.5903(3)
H35 H 0.0068 0.7676 0.6092
Zn6 Zn 0.66974(3) 0.93901(2) 0.48688(4)
Zn7 Zn 0.39432(2) 0.39740(2) 0.15355(4)
Zn8 Zn 0.00307(3) 0.60568(2) 0.15355(4)
N16 N 0.30674(23) 0.32554(15) 0.5903(3)
C52 C 0.88433(23) -0.00002(17) 0.4393(3)
H30 H 0.9088 0.0286 0.4658
H31 H 0.8272 0.0035 0.4926
C55 C 0.98736(24) 0.03652(17) 0.3740(3)
H32 H 0.9788 0.0609 0.3734
C15_2 C 1.00002(17) 0.88435(16) 0.4393(3)
H8 H 0.9714 0.8802 0.4658
H9 H 0.9965 0.8237 0.4926
C18 C 0.96348(17) 0.95084(17) 0.3740(3)
H10 H 0.9391 0.9179 0.3734
N1 N 0.97160(19) 0.6573(3) 0.2798(4)
N3 N 0.98413(19) 0.6847(3) 0.3493(4)
C47 C 0.74460(28) 0.9253(2) 0.4334(4)
C48 C 0.79790(25) 0.94205(18) 0.4167(3)
C49 C 0.81132(27) 0.91577(19) 0.3593(4)
H28 H 0.7871 0.8880 0.3306
C50 C 0.85980(28) 0.9305(2) 0.3449(3)
H29 H 0.8679 0.9119 0.3080
C51 C 0.89749(23) 0.97293(17) 0.3841(3)
C52_2 C 0.88433(23) 0.99998(17) 0.4393(3)
C53 C 0.83525(25) 0.98493(18) 0.4556(3)
C54 C 0.95018(23) 0.98693(17) 0.3745(3)
O11 O 0.71188(28) 0.89118(19) 0.3917(4)
O12 O 0.73605(23) 0.94876(18) 0.4926(3)
Zn3 Zn 0.93594(2) 0.66359(3) 0.82021(4)
C57 C 0.9960(2) 0.70515(27) 0.6513(3)
N13 N 0.9820(3) 0.63276(36) 0.6826(4)
N14 N 0.9932(3) 0.7465(4) 0.6511(4)
H36 H 0.9778 0.7518 0.6929
N15 N 0.97297(17) 0.66859(23) 0.7096(3)
O14 O 0.87938(15) 0.59728(23) 0.8259(3)
O15 O 0.94925(15) 0.73129(21) 0.8199(3)
N17 N 0.97340(23) 0.65888(15) 0.9237(3)
N6_2 N 0.68570(36) 0.02840(47) 0.2798(4)
N8_2 N 0.70057(36) 0.01587(47) 0.3493(4)
C56_2 C 0.62818(27) 0.95748(34) 0.3180(3)
N7_2 N 0.64007(23) 0.99221(29) 0.2570(3)
N9_2 N 0.5868(4) 0.9133(5) 0.3178(4)
H33_2 H 0.5657 0.9058 0.2759
H34_2 H 0.5815 0.8926 0.3596
N10_2 N 0.66474(23) 0.97104(29) 0.3763(3)
Zn3_2 Zn 0.33641(3) 0.27234(4) 0.82021(4)
C57_2 C 0.29485(27) 0.29081(34) 0.6513(3)
N11_2 N 0.35237(36) 0.36173(47) 0.6131(4)
N13_2 N 0.36724(36) 0.34920(47) 0.6826(4)
N14_2 N 0.2535(4) 0.2466(5) 0.6511(4)
H35_2 H 0.2324 0.2391 0.6092
H36_2 H 0.2482 0.2259 0.6929
N15_2 N 0.33141(23) 0.30437(29) 0.7096(3)
Zn7_2 Zn 0.60260(2) 0.99693(3) 0.15355(4)
O14_2 O 0.40272(23) 0.28209(27) 0.8259(3)
O15_2 O 0.26871(21) 0.21795(26) 0.8199(3)
N16_2 N 0.67446(15) 0.98119(27) 0.5903(3)
N17_2 N 0.34112(15) 0.31453(27) 0.9237(3)
Zn3_3 Zn 0.72766(4) 0.06406(2) 0.82021(4)
C57_3 C 0.70919(34) 0.0040(2) 0.6513(3)
N13_3 N 0.65080(47) 0.0180(3) 0.6826(4)
N14_3 N 0.7534(5) 0.0068(3) 0.6511(4)
H36_3 H 0.7741 0.0222 0.6929
N15_3 N 0.69563(29) 0.02703(17) 0.7096(3)
O14_3 O 0.71791(27) 0.12062(15) 0.8259(3)
O15_3 O 0.78205(26) 0.05075(15) 0.8199(3)
N17_3 N 0.68547(27) 0.02660(23) 0.9237(3)
N11_3 N 0.63827(47) 0.9906(3) 0.6131(4)
H35_3 H 0.7609 0.9932 0.6092
C9_2 C 0.01313(17) 0.04937(18) 0.8849(3)
H5_2 H 0.0219 0.0823 0.8843
C29_2 C 0.25721(25) 0.18456(18) 0.8787(3)
C30_2 C 0.20291(24) 0.14719(17) 0.8842(3)
C31_2 C 0.16793(24) 0.15698(17) 0.8466(3)
H18_2 H 0.1779 0.1873 0.8203
C32_2 C 0.11902(24) 0.12181(17) 0.8486(3)
H19_2 H 0.0962 0.1289 0.8239
C33_2 C 0.10255(23) 0.07516(17) 0.8872(3)
C34_2 C 0.13806(25) 0.06723(18) 0.9277(3)
H20_2 H 0.1283 0.0374 0.9560
C35_2 C 0.18744(28) 0.1026(2) 0.9266(3)
H21_2 H 0.2103 0.0965 0.9544
C36_2 C 0.04992(24) 0.03677(17) 0.8853(3)
O7_2 O 0.28738(21) 0.18237(16) 0.9279(3)
H13_2 H 0.0095 0.8221 0.8203
C23_2 C 0.00280(17) 0.88098(24) 0.8486(3)
H14_2 H 0.0328 0.9038 0.8239
C37_2 C 0.03625(25) 0.98687(17) 0.8849(3)
H22_2 H 0.0605 0.9781 0.8843
H36_4 H 0.6444 0.0852 0.0263
N15_4 N 0.63963(17) 0.00193(23) 0.0430(3)
O15_4 O 0.61591(15) 0.06463(21) 0.1533(3)
C1_2 C 0.81544(18) 0.07264(18) 0.8787(3)
C2_2 C 0.85281(17) 0.05571(17) 0.8842(3)
C3_2 C 0.84302(17) 0.01094(17) 0.8466(3)
C5_2 C 0.92484(17) 0.02738(16) 0.8872(3)
C6_2 C 0.93277(18) 0.07082(18) 0.9277(3)
H3_2 H 0.9626 0.0908 0.9560
C7_2 C 0.8974(2) 0.08480(19) 0.9266(3)
H4_2 H 0.9035 0.1137 0.9544
C8_2 C 0.96323(17) 0.01314(17) 0.8853(3)
C10_2 C 0.7414(2) 0.15263(19) 0.7667(4)
C11_2 C 0.72462(18) 0.18918(18) 0.7500(3)
C12_2 C 0.75090(19) 0.22888(19) 0.6926(4)
H6_2 H 0.7787 0.2324 0.6639
C13_2 C 0.7362(2) 0.26263(19) 0.6782(3)
H7_2 H 0.7548 0.2893 0.6413
C14_2 C 0.69374(17) 0.25789(16) 0.7174(3)
C15_3 C 0.66669(17) 0.21768(16) 0.7726(3)
H8_2 H 0.6381 0.2135 0.7991
C16_2 C 0.68174(18) 0.18365(17) 0.7889(3)
H9_2 H 0.6632 0.1570 0.8259
C17_2 C 0.67974(17) 0.29658(16) 0.7078(3)
C18_2 C 0.63015(17) 0.28417(17) 0.7073(3)
H10_2 H 0.6058 0.2512 0.7067
O1_2 O 0.77549(19) 0.1540(2) 0.7250(4)
O3_2 O 0.81763(16) 0.10500(14) 0.9279(3)
C38_2 C 0.84737(19) 0.58873(28) 0.7667(4)
C39_2 C 0.81082(18) 0.53543(25) 0.7500(3)
C40_2 C 0.77112(19) 0.52201(27) 0.6926(4)
H23_2 H 0.7676 0.5462 0.6639
C41_2 C 0.73737(19) 0.47353(28) 0.6782(3)
H24_2 H 0.7107 0.4654 0.6413
C42_2 C 0.74211(16) 0.43584(23) 0.7174(3)
C43_2 C 0.78232(16) 0.44900(23) 0.7726(3)
H25_2 H 0.7865 0.4245 0.7991
C44_2 C 0.81635(17) 0.49808(25) 0.7889(3)
H26_2 H 0.8430 0.5061 0.8259
C45_2 C 0.70342(16) 0.38315(23) 0.7078(3)
C46_2 C 0.71583(17) 0.34597(24) 0.7073(3)
H27_2 H 0.7488 0.3545 0.7067
O9_2 O 0.8460(2) 0.62145(28) 0.7250(4)
C47_2 C 0.41127(28) 0.2586(2) 0.7667(4)
C48_2 C 0.46457(25) 0.27538(18) 0.7500(3)
C49_2 C 0.47799(27) 0.24910(19) 0.6926(4)
H28_2 H 0.4538 0.2213 0.6639
C50_2 C 0.52647(28) 0.2638(2) 0.6782(3)
H29_2 H 0.5346 0.2452 0.6413
C51_2 C 0.56416(23) 0.30626(17) 0.7174(3)
C52_3 C 0.55100(23) 0.33331(17) 0.7726(3)
H30_2 H 0.5755 0.3619 0.7991
C53_2 C 0.50192(25) 0.31826(18) 0.7889(3)
H31_2 H 0.4939 0.3368 0.8259
C54_2 C 0.61685(23) 0.32026(17) 0.7078(3)
C55_2 C 0.65403(24) 0.36985(17) 0.7073(3)
H32_2 H 0.6455 0.3942 0.7067
O11_2 O 0.37855(28) 0.22451(19) 0.7250(4)
C57_4 C 0.6626(2) 0.03849(27) 0.9847(3)
N14_4 N 0.6598(3) 0.0799(4) 0.9845(4)
H35_4 H 0.6734 0.1010 0.9426
N13_4 N 0.6486(3) 0.96610(36) 0.0160(4)
O14_4 O 0.54604(15) 0.93062(23) 0.1593(3)
H1_2 H 0.8127 0.9905 0.8203
C4_2 C 0.87819(17) 0.99720(17) 0.8486(3)
H2_2 H 0.8711 0.9672 0.8239
C20_2 C 0.92736(18) 0.74279(25) 0.8787(3)
C21_2 C 0.94429(17) 0.79709(24) 0.8842(3)
C22_2 C 0.98906(17) 0.83207(24) 0.8466(3)
C24_2 C 0.97262(16) 0.89745(23) 0.8872(3)
C25_2 C 0.92918(18) 0.86194(25) 0.9277(3)
H15_2 H 0.9092 0.8717 0.9560
C26_2 C 0.91520(19) 0.81256(28) 0.9266(3)
H16_2 H 0.8863 0.7897 0.9544
C27_2 C 0.98686(17) 0.95008(24) 0.8853(3)
C28_2 C 0.95063(18) 0.96375(25) 0.8849(3)
H17_2 H 0.9177 0.9395 0.8843
O5_2 O 0.89500(14) 0.71262(21) 0.9279(3)
N11_4 N 0.6760(3) 0.98097(36) 0.9465(4)
N13_5 N 0.03390(36) 0.68254(47) 0.0160(4)
O14_5 O 0.06938(23) 0.61543(27) 0.1593(3)
N11_5 N 0.01903(36) 0.69507(47) 0.9465(4)
H36_5 H 0.9148 0.5593 0.0263
N15_5 N 0.99807(23) 0.63771(29) 0.0430(3)
O15_5 O 0.93537(21) 0.55129(26) 0.1533(3)
C57_5 C 0.96151(27) 0.62415(34) 0.9847(3)
N14_5 N 0.9201(4) 0.5800(5) 0.9845(4)
H35_5 H 0.8990 0.5725 0.9426
N13_6 N 0.31746(47) 0.3514(3) 0.0160(4)
H36_6 H 0.4407 0.3556 0.0263
N15_6 N 0.36229(29) 0.36037(17) 0.0430(3)
O14_6 O 0.38457(27) 0.45396(15) 0.1593(3)
O15_6 O 0.44871(26) 0.38409(15) 0.1533(3)
C57_6 C 0.37585(34) 0.3374(2) 0.9847(3)
N11_6 N 0.30493(47) 0.3240(3) 0.9465(4)
N14_6 N 0.4200(5) 0.3402(3) 0.9845(4)
H35_6 H 0.4275 0.3266 0.9426
C1_3 C 0.48210(18) 0.40598(18) 0.2121(3)
C2_3 C 0.51947(17) 0.38905(17) 0.2176(3)
C3_3 C 0.50968(17) 0.34428(17) 0.1800(3)
H1_3 H 0.4793 0.3239 0.1537
C4_3 C 0.54485(17) 0.33054(17) 0.1820(3)
H2_3 H 0.5377 0.3006 0.1573
C5_3 C 0.59150(17) 0.36072(16) 0.2206(3)
C6_3 C 0.59943(18) 0.40416(18) 0.2611(3)
H3_3 H 0.6292 0.4242 0.2894
C7_3 C 0.5640(2) 0.41814(19) 0.2600(3)
H4_3 H 0.5701 0.4471 0.2878
C8_3 C 0.62989(17) 0.34648(17) 0.2187(3)
C9_3 C 0.67979(17) 0.38271(18) 0.2183(3)
H5_3 H 0.6885 0.4157 0.2177
C10_3 C 0.4080(2) 0.48597(19) 0.1001(4)
C11_3 C 0.39128(18) 0.52252(18) 0.0834(3)
C12_3 C 0.41756(19) 0.56222(19) 0.0260(4)
C13_3 C 0.4028(2) 0.59597(19) 0.0116(3)
C14_3 C 0.36040(17) 0.59123(16) 0.0508(3)
C15_4 C 0.33335(17) 0.55102(16) 0.1060(3)
H8_3 H 0.3047 0.5469 0.1325
C16_3 C 0.34840(18) 0.51699(17) 0.1223(3)
H9_3 H 0.3298 0.4904 0.1593
C17_3 C 0.34640(17) 0.62992(16) 0.0412(3)
C18_3 C 0.29681(17) 0.61751(17) 0.0407(3)
H10_3 H 0.2724 0.5846 0.0401
O1_3 O 0.44215(19) 0.4874(2) 0.0584(4)
O3_3 O 0.48429(16) 0.43834(14) 0.2613(3)
C20_3 C 0.59402(18) 0.07613(25) 0.2121(3)
C21_3 C 0.61095(17) 0.13043(24) 0.2176(3)
C22_3 C 0.65572(17) 0.16541(24) 0.1800(3)
H13_3 H 0.6761 0.1555 0.1537
C23_3 C 0.66946(17) 0.21432(24) 0.1820(3)
H14_3 H 0.6994 0.2372 0.1573
C24_3 C 0.63928(16) 0.23079(23) 0.2206(3)
C25_3 C 0.59584(18) 0.19528(25) 0.2611(3)
H15_3 H 0.5758 0.2051 0.2894
C26_3 C 0.58186(19) 0.14590(28) 0.2600(3)
H16_3 H 0.5529 0.1231 0.2878
C27_3 C 0.65352(17) 0.28342(24) 0.2187(3)
C28_3 C 0.61729(18) 0.29709(25) 0.2183(3)
H17_3 H 0.5843 0.2729 0.2177
O5_3 O 0.56166(14) 0.04596(21) 0.2613(3)
C29_3 C 0.92387(25) 0.51790(18) 0.2121(3)
C30_3 C 0.86957(24) 0.48053(17) 0.2176(3)
C31_3 C 0.83459(24) 0.49032(17) 0.1800(3)
H18_3 H 0.8445 0.5207 0.1537
C32_3 C 0.78568(24) 0.45515(17) 0.1820(3)
H19_3 H 0.7628 0.4623 0.1573
C33_3 C 0.76921(23) 0.40850(17) 0.2206(3)
C34_3 C 0.80472(25) 0.40057(18) 0.2611(3)
H20_3 H 0.7949 0.3708 0.2894
C35_3 C 0.85410(28) 0.4360(2) 0.2600(3)
H21_3 H 0.8769 0.4299 0.2878
C36_3 C 0.71658(24) 0.37011(17) 0.2187(3)
C37_3 C 0.70291(25) 0.32021(17) 0.2183(3)
H22_3 H 0.7271 0.3115 0.2177
O7_3 O 0.95404(21) 0.51571(16) 0.2613(3)
C38_3 C 0.51403(19) 0.92207(28) 0.1001(4)
C39_3 C 0.47748(18) 0.86877(25) 0.0834(3)
C40_3 C 0.43778(19) 0.85535(27) 0.0260(4)
C41_3 C 0.40403(19) 0.80687(28) 0.0116(3)
C42_3 C 0.40877(16) 0.76918(23) 0.0508(3)
C43_3 C 0.44898(16) 0.78234(23) 0.1060(3)
H25_3 H 0.4531 0.7579 0.1325
C44_3 C 0.48301(17) 0.83142(25) 0.1223(3)
H26_3 H 0.5096 0.8395 0.1593
C45_3 C 0.37008(16) 0.71649(23) 0.0412(3)
C46_3 C 0.38249(17) 0.67931(24) 0.0407(3)
H27_3 H 0.4154 0.6879 0.0401
O9_3 O 0.5126(2) 0.95479(28) 0.0584(4)
C47_3 C 0.07793(28) 0.5920(2) 0.1001(4)
C48_3 C 0.13123(25) 0.60872(18) 0.0834(3)
C49_3 C 0.14465(27) 0.58244(19) 0.0260(4)
C50_3 C 0.19313(28) 0.5972(2) 0.0116(3)
C51_3 C 0.23082(23) 0.63960(17) 0.0508(3)
C52_4 C 0.21766(23) 0.66665(17) 0.1060(3)
H30_3 H 0.2421 0.6953 0.1325
C53_3 C 0.16858(25) 0.65160(18) 0.1223(3)
H31_3 H 0.1605 0.6702 0.1593
C54_3 C 0.28351(23) 0.65360(17) 0.0412(3)
C55_3 C 0.32069(24) 0.70319(17) 0.0407(3)
H32_3 H 0.3121 0.7276 0.0401
O11_3 O 0.04521(28) 0.55785(19) 0.0584(4)
H6_3 H 0.4453 0.5658 0.9973
H7_3 H 0.4214 0.6227 0.9747
H23_3 H 0.4342 0.8796 0.9973
H24_3 H 0.3773 0.7988 0.9747
H28_3 H 0.1204 0.5547 0.9973
H29_3 H 0.2012 0.5786 0.9747
C15_5 C -0.00002(17) 0.11565(16) 0.5607(3)
H8_4 H 0.0286 0.1198 0.5342
H9_4 H 0.0035 0.1763 0.5074
C18_4 C 0.03652(17) 0.04916(17) 0.6260(3)
H10_4 H 0.0609 0.0821 0.6266
N1_2 N 0.02840(19) 0.3427(3) 0.7202(4)
N3_2 N 0.01587(19) 0.3153(3) 0.6507(4)
C47_4 C 0.25540(28) 0.0747(2) 0.5666(4)
C48_4 C 0.20210(25) 0.05795(18) 0.5833(3)
C49_4 C 0.18868(27) 0.08423(19) 0.6407(4)
H28_4 H 0.2129 0.1120 0.6694
C50_4 C 0.14020(28) 0.0695(2) 0.6551(3)
H29_4 H 0.1321 0.0881 0.6920
C51_4 C 0.10251(23) 0.02707(17) 0.6159(3)
C52_5 C 0.11567(23) 0.00002(17) 0.5607(3)
C53_4 C 0.16475(25) 0.01507(18) 0.5444(3)
C54_4 C 0.04982(23) 0.01307(17) 0.6255(3)
O11_4 O 0.28812(28) 0.10882(19) 0.6083(4)
O12_2 O 0.26395(23) 0.05124(18) 0.5074(3)
Zn3_4 Zn 0.06406(2) 0.33641(3) 0.17979(4)
C57_7 C 0.0040(2) 0.29485(27) 0.3487(3)
N13_7 N 0.0180(3) 0.36724(36) 0.3174(4)
N14_7 N 0.0068(3) 0.2535(4) 0.3489(4)
H36_7 H 0.0222 0.2482 0.3071
N15_7 N 0.02703(17) 0.33141(23) 0.2904(3)
Zn5 Zn 0.33026(3) 0.06099(2) 0.51312(4)
O14_7 O 0.12062(15) 0.40272(23) 0.1741(3)
O15_7 O 0.05075(15) 0.26871(21) 0.1801(3)
N17_4 N 0.02660(23) 0.34112(15) 0.0763(3)
C52_6 C 0.11567(23) 1.00002(17) 0.5607(3)
H30_4 H 0.0912 0.9714 0.5342
H31_4 H 0.1728 0.9965 0.5074
C55_4 C 0.01264(24) 0.96348(17) 0.6260(3)
H32_4 H 0.0212 0.9391 0.6266
Zn1_2 Zn 0.93901(2) 0.26927(2) 0.51312(4)
C1_4 C 0.85123(18) 0.26069(18) 0.4546(3)
C2_4 C 0.81386(17) 0.27762(17) 0.4491(3)
C3_4 C 0.82365(17) 0.32239(17) 0.4867(3)
H1_4 H 0.8540 0.3428 0.5130
C4_4 C 0.78848(17) 0.33613(17) 0.4847(3)
H2_4 H 0.7956 0.3661 0.5094
C5_4 C 0.74183(17) 0.30595(16) 0.4461(3)
C6_4 C 0.73390(18) 0.26251(18) 0.4056(3)
H3_4 H 0.7041 0.2425 0.3773
C7_4 C 0.7693(2) 0.24853(19) 0.4067(3)
H4_4 H 0.7632 0.2196 0.3789
C8_4 C 0.70344(17) 0.32019(17) 0.4480(3)
C9_4 C 0.65354(17) 0.28396(18) 0.4484(3)
H5_4 H 0.6448 0.2510 0.4490
C10_4 C 0.9253(2) 0.18070(19) 0.5666(4)
C11_4 C 0.94205(18) 0.14415(18) 0.5833(3)
C12_4 C 0.91577(19) 0.10445(19) 0.6407(4)
H6_4 H 0.8880 0.1009 0.6694
C13_4 C 0.9305(2) 0.07070(19) 0.6551(3)
H7_4 H 0.9119 0.0440 0.6920
C14_4 C 0.97293(17) 0.07544(16) 0.6159(3)
C15_6 C 0.99998(17) 0.11565(16) 0.5607(3)
C16_4 C 0.98493(18) 0.14968(17) 0.5444(3)
C17_4 C 0.98693(17) 0.03675(16) 0.6255(3)
C19_2 C 0.95748(18) 0.3293(2) 0.6820(3)
O1_4 O 0.89118(19) 0.1793(2) 0.6083(4)
O2_2 O 0.94876(18) 0.21271(15) 0.5074(3)
O3_4 O 0.84904(16) 0.22833(14) 0.4054(3)
O4_2 O 0.88462(14) 0.28258(15) 0.5134(3)
N2_2 N 0.99221(15) 0.35214(17) 0.7430(3)
N4_2 N 0.9133(2) 0.3265(3) 0.6822(4)
H11_2 H 0.9058 0.3401 0.7241
H12_2 H 0.8926 0.3111 0.6404
N5_2 N 0.97104(15) 0.30630(17) 0.6237(3)
C20_4 C 0.73931(18) 0.59054(25) 0.4546(3)
C21_4 C 0.72238(17) 0.53624(24) 0.4491(3)
C22_4 C 0.67761(17) 0.50126(24) 0.4867(3)
H13_4 H 0.6572 0.5112 0.5130
C23_4 C 0.66387(17) 0.45235(24) 0.4847(3)
H14_4 H 0.6339 0.4295 0.5094
C24_4 C 0.69405(16) 0.43588(23) 0.4461(3)
C25_4 C 0.73749(18) 0.47139(25) 0.4056(3)
H15_4 H 0.7575 0.4616 0.3773
C26_4 C 0.75147(19) 0.52077(28) 0.4067(3)
H16_4 H 0.7804 0.5436 0.3789
C27_4 C 0.67981(17) 0.38325(24) 0.4480(3)
C28_4 C 0.71604(18) 0.36958(25) 0.4484(3)
H17_4 H 0.7490 0.3938 0.4490
O5_4 O 0.77167(14) 0.62071(21) 0.4054(3)
O6_2 O 0.71742(15) 0.60204(21) 0.5134(3)
C29_4 C 0.40946(25) 0.14877(18) 0.4546(3)
C30_4 C 0.46376(24) 0.18614(17) 0.4491(3)
C31_4 C 0.49874(24) 0.17635(17) 0.4867(3)
H18_4 H 0.4888 0.1460 0.5130
C32_4 C 0.54765(24) 0.21152(17) 0.4847(3)
H19_4 H 0.5705 0.2044 0.5094
C33_4 C 0.56412(23) 0.25817(17) 0.4461(3)
C34_4 C 0.52861(25) 0.26610(18) 0.4056(3)
H20_4 H 0.5384 0.2959 0.3773
C35_4 C 0.47923(28) 0.2307(2) 0.4067(3)
H21_4 H 0.4564 0.2368 0.3789
C36_4 C 0.61675(24) 0.29656(17) 0.4480(3)
C37_4 C 0.63042(25) 0.34646(17) 0.4484(3)
H22_4 H 0.6062 0.3552 0.4490
O7_4 O 0.37929(21) 0.15096(16) 0.4054(3)
O8_2 O 0.39796(21) 0.11538(14) 0.5134(3)
Zn2 Zn 0.73073(2) 0.66974(3) 0.51312(4)
C56_3 C 0.6707(2) 0.62818(27) 0.6820(3)
N6_3 N 0.6573(3) 0.68570(36) 0.7202(4)
N7_3 N 0.64786(17) 0.64007(23) 0.7430(3)
N8_3 N 0.6847(3) 0.70057(36) 0.6507(4)
N9_3 N 0.6735(3) 0.5868(4) 0.6822(4)
H33_3 H 0.6599 0.5657 0.7241
H34_3 H 0.6889 0.5815 0.6404
N10_3 N 0.69370(17) 0.66474(23) 0.6237(3)
N11_7 N 0.9906(3) 0.35237(36) 0.3869(4)
N12_2 N 0.98119(17) 0.30674(23) 0.4097(3)
H35_7 H 0.9932 0.2324 0.3908
Zn7_3 Zn 0.60568(2) 0.60260(2) 0.84645(4)
Zn8_2 Zn 0.99693(3) 0.39432(2) 0.84645(4)
O13 O 0.78729(15) 0.73605(23) 0.5074(3)
N16_3 N 0.69326(23) 0.67446(15) 0.4097(3)
C38_4 C 0.81930(19) 0.74460(28) 0.5666(4)
C39_4 C 0.85585(18) 0.79790(25) 0.5833(3)
C40_4 C 0.89555(19) 0.81132(27) 0.6407(4)
H23_4 H 0.8991 0.7871 0.6694
C41_4 C 0.92930(19) 0.85980(28) 0.6551(3)
H24_4 H 0.9560 0.8679 0.6920
C42_4 C 0.92456(16) 0.89749(23) 0.6159(3)
C43_4 C 0.88435(16) 0.88433(23) 0.5607(3)
H25_4 H 0.8802 0.9088 0.5342
C44_4 C 0.85032(17) 0.83525(25) 0.5444(3)
H26_4 H 0.8237 0.8272 0.5074
C45_4 C 0.96325(16) 0.95018(23) 0.6255(3)
C46_4 C 0.95084(17) 0.98736(24) 0.6260(3)
H27_4 H 0.9179 0.9788 0.6266
O9_4 O 0.8207(2) 0.71188(28) 0.6083(4)
C56_4 C 0.37182(27) 0.04252(34) 0.6820(3)
N7_4 N 0.35993(23) 0.00779(29) 0.7430(3)
N9_4 N 0.4132(4) 0.0867(5) 0.6822(4)
H33_4 H 0.4343 0.0942 0.7241
H34_4 H 0.4185 0.1074 0.6404
N10_4 N 0.33526(23) 0.02896(29) 0.6237(3)
Zn3_5 Zn 0.66359(3) 0.72766(4) 0.17979(4)
C57_8 C 0.70515(27) 0.70919(34) 0.3487(3)
N11_8 N 0.64763(36) 0.63827(47) 0.3869(4)
N13_8 N 0.63276(36) 0.65080(47) 0.3174(4)
N14_8 N 0.7465(4) 0.7534(5) 0.3489(4)
H35_8 H 0.7676 0.7609 0.3908
H36_8 H 0.7518 0.7741 0.3071
N15_8 N 0.66859(23) 0.69563(29) 0.2904(3)
Zn7_4 Zn 0.39740(2) 0.00307(3) 0.84645(4)
O14_8 O 0.59728(23) 0.71791(27) 0.1741(3)
O15_8 O 0.73129(21) 0.78205(26) 0.1801(3)
N16_4 N 0.32554(15) 0.01881(27) 0.4097(3)
N17_5 N 0.65888(15) 0.68547(27) 0.0763(3)
N6_4 N 0.31430(36) 0.97160(47) 0.7202(4)
N8_4 N 0.29943(36) 0.98413(47) 0.6507(4)
N11_9 N 0.36173(47) 0.0094(3) 0.3869(4)
H35_9 H 0.2391 0.0068 0.3908
Zn3_6 Zn 0.27234(4) 0.93594(2) 0.17979(4)
C57_9 C 0.29081(34) 0.9960(2) 0.3487(3)
N13_9 N 0.34920(47) 0.9820(3) 0.3174(4)
N14_9 N 0.2466(5) 0.9932(3) 0.3489(4)
H36_9 H 0.2259 0.9778 0.3071
N15_9 N 0.30437(29) 0.97297(17) 0.2904(3)
O14_9 O 0.28209(27) 0.87938(15) 0.1741(3)
O15_9 O 0.21795(26) 0.94925(15) 0.1801(3)
N17_6 N 0.31453(27) 0.97340(23) 0.0763(3)
H1_5 H 0.1873 0.0095 0.1797
C4_5 C 0.12181(17) 0.00280(17) 0.1514(3)
H2_5 H 0.1289 0.0328 0.1761
C20_5 C 0.07264(18) 0.25721(25) 0.1213(3)
C21_5 C 0.05571(17) 0.20291(24) 0.1158(3)
C22_5 C 0.01094(17) 0.16793(24) 0.1534(3)
C24_5 C 0.02738(16) 0.10255(23) 0.1128(3)
C25_5 C 0.07082(18) 0.13806(25) 0.0723(3)
H15_5 H 0.0908 0.1283 0.0440
C26_5 C 0.08480(19) 0.18744(28) 0.0734(3)
H16_5 H 0.1137 0.2103 0.0456
C27_5 C 0.01314(17) 0.04992(24) 0.1147(3)
C28_5 C 0.04937(18) 0.03625(25) 0.1151(3)
H17_5 H 0.0823 0.0605 0.1157
O5_5 O 0.10500(14) 0.28738(21) 0.0721(3)
N11_10 N 0.3240(3) 0.01903(36) 0.0535(4)
N13_10 N 0.3514(3) 0.03390(36) 0.9840(4)
O14_10 O 0.45396(15) 0.06938(23) 0.8407(3)
C1_5 C 0.18456(18) 0.92736(18) 0.1213(3)
C2_5 C 0.14719(17) 0.94429(17) 0.1158(3)
C3_5 C 0.15698(17) 0.98906(17) 0.1534(3)
C5_5 C 0.07516(17) 0.97262(16) 0.1128(3)
C6_5 C 0.06723(18) 0.92918(18) 0.0723(3)
H3_5 H 0.0374 0.9092 0.0440
C7_5 C 0.1026(2) 0.91520(19) 0.0734(3)
H4_5 H 0.0965 0.8863 0.0456
C8_5 C 0.03677(17) 0.98686(17) 0.1147(3)
C10_5 C 0.2586(2) 0.84737(19) 0.2333(4)
C11_5 C 0.27538(18) 0.81082(18) 0.2500(3)
C12_5 C 0.24910(19) 0.77112(19) 0.3074(4)
H6_5 H 0.2213 0.7676 0.3361
C13_5 C 0.2638(2) 0.73737(19) 0.3218(3)
H7_5 H 0.2452 0.7107 0.3587
C14_5 C 0.30626(17) 0.74211(16) 0.2826(3)
C15_7 C 0.33331(17) 0.78232(16) 0.2274(3)
H8_5 H 0.3619 0.7865 0.2009
C16_5 C 0.31826(18) 0.81635(17) 0.2111(3)
H9_5 H 0.3368 0.8430 0.1741
C17_5 C 0.32026(17) 0.70342(16) 0.2922(3)
C18_5 C 0.36985(17) 0.71583(17) 0.2927(3)
H10_5 H 0.3942 0.7488 0.2933
O1_5 O 0.22451(19) 0.8460(2) 0.2750(4)
O3_5 O 0.18237(16) 0.89500(14) 0.0721(3)
C38_5 C 0.15263(19) 0.41127(28) 0.2333(4)
C39_5 C 0.18918(18) 0.46457(25) 0.2500(3)
C40_5 C 0.22888(19) 0.47799(27) 0.3074(4)
H23_5 H 0.2324 0.4538 0.3361
C41_5 C 0.26263(19) 0.52647(28) 0.3218(3)
H24_5 H 0.2893 0.5346 0.3587
C42_5 C 0.25789(16) 0.56416(23) 0.2826(3)
C43_5 C 0.21768(16) 0.55100(23) 0.2274(3)
H25_5 H 0.2135 0.5755 0.2009
C44_5 C 0.18365(17) 0.50192(25) 0.2111(3)
H26_5 H 0.1570 0.4939 0.1741
C45_5 C 0.29658(16) 0.61685(23) 0.2922(3)
C46_5 C 0.28417(17) 0.65403(24) 0.2927(3)
H27_5 H 0.2512 0.6455 0.2933
O9_5 O 0.1540(2) 0.37855(28) 0.2750(4)
C47_5 C 0.58873(28) 0.7414(2) 0.2333(4)
C48_5 C 0.53543(25) 0.72462(18) 0.2500(3)
C49_5 C 0.52201(27) 0.75090(19) 0.3074(4)
H28_5 H 0.5462 0.7787 0.3361
C50_5 C 0.47353(28) 0.7362(2) 0.3218(3)
H29_5 H 0.4654 0.7548 0.3587
C51_5 C 0.43584(23) 0.69374(17) 0.2826(3)
C52_7 C 0.44900(23) 0.66669(17) 0.2274(3)
H30_5 H 0.4245 0.6381 0.2009
C53_5 C 0.49808(25) 0.68174(18) 0.2111(3)
H31_5 H 0.5061 0.6632 0.1741
C54_5 C 0.38315(23) 0.67974(17) 0.2922(3)
C55_5 C 0.34597(24) 0.63015(17) 0.2927(3)
H32_5 H 0.3545 0.6058 0.2933
O11_5 O 0.62145(28) 0.77549(19) 0.2750(4)
C57_10 C 0.3374(2) 0.96151(27) 0.0153(3)
N14_10 N 0.3402(3) 0.9201(4) 0.0155(4)
H35_10 H 0.3266 0.8990 0.0574
H36_10 H 0.3556 0.9148 0.9737
N15_10 N 0.36037(17) 0.99807(23) 0.9570(3)
O15_10 O 0.38409(15) 0.93537(21) 0.8467(3)
H13_5 H 0.9905 0.1779 0.1797
C23_5 C 0.99720(17) 0.11902(24) 0.1514(3)
H14_5 H 0.9672 0.0962 0.1761
C37_5 C 0.96375(25) 0.01313(17) 0.1151(3)
H22_5 H 0.9395 0.0219 0.1157
C9_5 C 0.98687(17) 0.95063(18) 0.1151(3)
H5_5 H 0.9781 0.9177 0.1157
C29_5 C 0.74279(25) 0.81544(18) 0.1213(3)
C30_5 C 0.79709(24) 0.85281(17) 0.1158(3)
C31_5 C 0.83207(24) 0.84302(17) 0.1534(3)
H18_5 H 0.8221 0.8127 0.1797
C32_5 C 0.88098(24) 0.87819(17) 0.1514(3)
H19_5 H 0.9038 0.8711 0.1761
C33_5 C 0.89745(23) 0.92484(17) 0.1128(3)
C34_5 C 0.86194(25) 0.93277(18) 0.0723(3)
H20_5 H 0.8717 0.9626 0.0440
C35_5 C 0.81256(28) 0.8974(2) 0.0734(3)
H21_5 H 0.7897 0.9035 0.0456
C36_5 C 0.95008(24) 0.96323(17) 0.1147(3)
O7_5 O 0.71262(21) 0.81763(16) 0.0721(3)
C57_11 C 0.03849(27) 0.37585(34) 0.0153(3)
N14_11 N 0.0799(4) 0.4200(5) 0.0155(4)
H35_11 H 0.1010 0.4275 0.0574
H36_11 H 0.0852 0.4407 0.9737
N15_11 N 0.00193(23) 0.36229(29) 0.9570(3)
O15_11 O 0.06463(21) 0.44871(26) 0.8467(3)
N11_11 N 0.98097(36) 0.30493(47) 0.0535(4)
N13_11 N 0.96610(36) 0.31746(47) 0.9840(4)
O14_11 O 0.93062(23) 0.38457(27) 0.8407(3)
C57_12 C 0.62415(34) 0.6626(2) 0.0153(3)
N11_12 N 0.69507(47) 0.6760(3) 0.0535(4)
N14_12 N 0.5800(5) 0.6598(3) 0.0155(4)
H35_12 H 0.5725 0.6734 0.0574
N13_12 N 0.68254(47) 0.6486(3) 0.9840(4)
H36_12 H 0.5593 0.6444 0.9737
N15_12 N 0.63771(29) 0.63963(17) 0.9570(3)
O14_12 O 0.61543(27) 0.54604(15) 0.8407(3)
O15_12 O 0.55129(26) 0.61591(15) 0.8467(3)
H6_6 H 0.5547 0.4342 0.0027
H7_6 H 0.5786 0.3773 0.0253
H23_6 H 0.5658 0.1204 0.0027
H24_6 H 0.6227 0.2012 0.0253
H28_6 H 0.8796 0.4453 0.0027
H29_6 H 0.7988 0.4214 0.0253
C1_6 C 0.51790(18) 0.59402(18) 0.7879(3)
C2_6 C 0.48053(17) 0.61095(17) 0.7824(3)
C3_6 C 0.49032(17) 0.65572(17) 0.8200(3)
H1_6 H 0.5207 0.6761 0.8463
C4_6 C 0.45515(17) 0.66946(17) 0.8180(3)
H2_6 H 0.4623 0.6994 0.8427
C5_6 C 0.40850(17) 0.63928(16) 0.7794(3)
C6_6 C 0.40057(18) 0.59584(18) 0.7389(3)
H3_6 H 0.3708 0.5758 0.7106
C7_6 C 0.4360(2) 0.58186(19) 0.7400(3)
H4_6 H 0.4299 0.5529 0.7122
C8_6 C 0.37011(17) 0.65352(17) 0.7813(3)
C9_6 C 0.32021(17) 0.61729(18) 0.7817(3)
H5_6 H 0.3115 0.5843 0.7823
C10_6 C 0.5920(2) 0.51403(19) 0.8999(4)
C11_6 C 0.60872(18) 0.47748(18) 0.9166(3)
C12_6 C 0.58244(19) 0.43778(19) 0.9740(4)
C13_6 C 0.5972(2) 0.40403(19) 0.9884(3)
C14_6 C 0.63960(17) 0.40877(16) 0.9492(3)
C15_8 C 0.66665(17) 0.44898(16) 0.8940(3)
H8_6 H 0.6953 0.4531 0.8675
C16_6 C 0.65160(18) 0.48301(17) 0.8777(3)
H9_6 H 0.6702 0.5096 0.8407
C17_6 C 0.65360(17) 0.37008(16) 0.9588(3)
C18_6 C 0.70319(17) 0.38249(17) 0.9593(3)
H10_6 H 0.7276 0.4154 0.9599
O1_6 O 0.55785(19) 0.5126(2) 0.9416(4)
O3_6 O 0.51571(16) 0.56166(14) 0.7387(3)
C20_6 C 0.40598(18) 0.92387(25) 0.7879(3)
C21_6 C 0.38905(17) 0.86957(24) 0.7824(3)
C22_6 C 0.34428(17) 0.83459(24) 0.8200(3)
H13_6 H 0.3239 0.8445 0.8463
C23_6 C 0.33054(17) 0.78568(24) 0.8180(3)
H14_6 H 0.3006 0.7628 0.8427
C24_6 C 0.36072(16) 0.76921(23) 0.7794(3)
C25_6 C 0.40416(18) 0.80472(25) 0.7389(3)
H15_6 H 0.4242 0.7949 0.7106
C26_6 C 0.41814(19) 0.85410(28) 0.7400(3)
H16_6 H 0.4471 0.8769 0.7122
C27_6 C 0.34648(17) 0.71658(24) 0.7813(3)
C28_6 C 0.38271(18) 0.70291(25) 0.7817(3)
H17_6 H 0.4157 0.7271 0.7823
O5_6 O 0.43834(14) 0.95404(21) 0.7387(3)
C29_6 C 0.07613(25) 0.48210(18) 0.7879(3)
C30_6 C 0.13043(24) 0.51947(17) 0.7824(3)
C31_6 C 0.16541(24) 0.50968(17) 0.8200(3)
H18_6 H 0.1555 0.4793 0.8463
C32_6 C 0.21432(24) 0.54485(17) 0.8180(3)
H19_6 H 0.2372 0.5377 0.8427
C33_6 C 0.23079(23) 0.59150(17) 0.7794(3)
C34_6 C 0.19528(25) 0.59943(18) 0.7389(3)
H20_6 H 0.2051 0.6292 0.7106
C35_6 C 0.14590(28) 0.5640(2) 0.7400(3)
H21_6 H 0.1231 0.5701 0.7122
C36_6 C 0.28342(24) 0.62989(17) 0.7813(3)
C37_6 C 0.29709(25) 0.67979(17) 0.7817(3)
H22_6 H 0.2729 0.6885 0.7823
O7_6 O 0.04596(21) 0.48429(16) 0.7387(3)
C38_6 C 0.48597(19) 0.07793(28) 0.8999(4)
C39_6 C 0.52252(18) 0.13123(25) 0.9166(3)
C40_6 C 0.56222(19) 0.14465(27) 0.9740(4)
C41_6 C 0.59597(19) 0.19313(28) 0.9884(3)
C42_6 C 0.59123(16) 0.23082(23) 0.9492(3)
C43_6 C 0.55102(16) 0.21766(23) 0.8940(3)
H25_6 H 0.5469 0.2421 0.8675
C44_6 C 0.51699(17) 0.16858(25) 0.8777(3)
H26_6 H 0.4904 0.1605 0.8407
C45_6 C 0.62992(16) 0.28351(23) 0.9588(3)
C46_6 C 0.61751(17) 0.32069(24) 0.9593(3)
H27_6 H 0.5846 0.3121 0.9599
O9_6 O 0.4874(2) 0.04521(28) 0.9416(4)
C47_6 C 0.92207(28) 0.4080(2) 0.8999(4)
C48_6 C 0.86877(25) 0.39128(18) 0.9166(3)
C49_6 C 0.85535(27) 0.41756(19) 0.9740(4)
C50_6 C 0.80687(28) 0.4028(2) 0.9884(3)
C51_6 C 0.76918(23) 0.36040(17) 0.9492(3)
C52_8 C 0.78234(23) 0.33335(17) 0.8940(3)
H30_6 H 0.7579 0.3047 0.8675
C53_6 C 0.83142(25) 0.34840(18) 0.8777(3)
H31_6 H 0.8395 0.3298 0.8407
C54_6 C 0.71649(23) 0.34640(17) 0.9588(3)
C55_6 C 0.67931(24) 0.29681(17) 0.9593(3)
H32_6 H 0.6879 0.2724 0.9599
O11_6 O 0.95479(28) 0.44215(19) 0.9416(4)
C59 C 0.0081(7) 0.5551(6) 0.8478(8)
H40 H 0.0428 0.5676 0.8532
H42 H 0.0016 0.5819 0.8488
H43 H 0.0065 0.5478 0.7161
C58 C 0.9391(4) 0.5072(5) 0.7453(12)
H37 H 0.9306 0.4900 0.6897
H38 H 0.9314 0.5331 0.7435
H39 H 0.9208 0.4847 0.7921
H41 H 0.9913 0.5333 0.8963
N18 N 0.9898(3) 0.5272(3) 0.7609(6)
H44 H 0.9967 0.5027 0.7602
C58_2 C 0.4928(5) 0.4319(6) 0.7453(12)
H37_2 H 0.5100 0.4406 0.6897
H38_2 H 0.4669 0.3983 0.7435
H39_2 H 0.5153 0.4361 0.7921
C59_2 C 0.4449(6) 0.4530(9) 0.8478(8)
H40_2 H 0.4324 0.4752 0.8532
H41_2 H 0.4667 0.4580 0.8963
H42_2 H 0.4181 0.4197 0.8488
N18_2 N 0.4728(3) 0.4626(4) 0.7609(6)
H43_2 H 0.4522 0.4587 0.7161
H44_2 H 0.4973 0.4940 0.7602
C58_3 C 0.5681(6) 0.0609(4) 0.7453(12)
H37_3 H 0.5594 0.0694 0.6897
H38_3 H 0.6017 0.0686 0.7435
H39_3 H 0.5639 0.0792 0.7921
H41_3 H 0.5420 0.0087 0.8963
N18_3 N 0.5374(4) 0.0102(3) 0.7609(6)
H44_3 H 0.5060 0.0033 0.7602
C59_3 C 0.5470(9) 0.9919(7) 0.8478(8)
H40_3 H 0.5248 0.9572 0.8532
H42_3 H 0.5803 0.9984 0.8488
H43_3 H 0.5413 0.9935 0.7161
C58_4 C 0.6058(4) 0.8405(5) 0.0786(12)
H37_4 H 0.5973 0.8233 0.0230
H38_4 H 0.5981 0.8664 0.0768
H39_4 H 0.5875 0.8180 0.1254
C59_4 C 0.6748(7) 0.8884(6) 0.1811(8)
H40_4 H 0.7095 0.9009 0.1865
H41_4 H 0.6580 0.8666 0.2296
H42_4 H 0.6683 0.9152 0.1821
N18_4 N 0.6565(3) 0.8605(3) 0.0942(6)
H43_4 H 0.6732 0.8811 0.0494
H44_4 H 0.6634 0.8360 0.0935
C58_5 C 0.1595(5) 0.7652(6) 0.0786(12)
H37_5 H 0.1767 0.7739 0.0230
H38_5 H 0.1336 0.7316 0.0768
H39_5 H 0.1820 0.7694 0.1254
C59_5 C 0.1116(6) 0.7863(9) 0.1811(8)
H40_5 H 0.0991 0.8085 0.1865
H41_5 H 0.1334 0.7913 0.2296
H42_5 H 0.0848 0.7530 0.1821
N18_5 N 0.1395(3) 0.7959(4) 0.0942(6)
H43_5 H 0.1189 0.7920 0.0494
H44_5 H 0.1640 0.8273 0.0935
C58_6 C 0.2348(6) 0.3942(4) 0.0786(12)
H37_6 H 0.2261 0.4027 0.0230
H38_6 H 0.2684 0.4019 0.0768
H39_6 H 0.2306 0.4125 0.1254
C59_6 C 0.2137(9) 0.3252(7) 0.1811(8)
H40_6 H 0.1915 0.2905 0.1865
H41_6 H 0.2087 0.3420 0.2296
H42_6 H 0.2470 0.3317 0.1821
N18_6 N 0.2041(4) 0.3435(3) 0.0942(6)
H43_6 H 0.2080 0.3268 0.0494
H44_6 H 0.1727 0.3366 0.0935
C58_7 C 0.2724(4) 0.1739(5) 0.4120(12)
H37_7 H 0.2639 0.1567 0.3564
H38_7 H 0.2647 0.1998 0.4102
H39_7 H 0.2541 0.1514 0.4588
C59_7 C 0.3414(7) 0.2218(6) 0.5145(8)
H40_7 H 0.3761 0.2343 0.5199
H41_7 H 0.3246 0.2000 0.5630
H42_7 H 0.3349 0.2486 0.5155
N18_7 N 0.3231(3) 0.1939(3) 0.4276(6)
H43_7 H 0.3398 0.2145 0.3828
H44_7 H 0.3300 0.1694 0.4269
C58_8 C 0.8261(5) 0.0986(6) 0.4120(12)
H37_8 H 0.8433 0.1073 0.3564
H38_8 H 0.8002 0.0650 0.4102
H39_8 H 0.8486 0.1028 0.4588
C59_8 C 0.7782(6) 0.1197(9) 0.5145(8)
H40_8 H 0.7657 0.1419 0.5199
H41_8 H 0.8000 0.1247 0.5630
H42_8 H 0.7514 0.0864 0.5155
N18_8 N 0.8061(3) 0.1293(4) 0.4276(6)
H43_8 H 0.7855 0.1254 0.3828
H44_8 H 0.8306 0.1607 0.4269
C58_9 C 0.9014(6) 0.7276(4) 0.4120(12)
H37_9 H 0.8927 0.7361 0.3564
H38_9 H 0.9350 0.7353 0.4102
H39_9 H 0.8972 0.7459 0.4588
C59_9 C 0.8803(9) 0.6586(7) 0.5145(8)
H40_9 H 0.8581 0.6239 0.5199
H41_9 H 0.8753 0.6754 0.5630
H42_9 H 0.9136 0.6651 0.5155
N18_9 N 0.8707(4) 0.6769(3) 0.4276(6)
H43_9 H 0.8746 0.6602 0.3828
H44_9 H 0.8393 0.6700 0.4269
C58_10 C 0.0609(4) 0.4928(5) 0.2547(12)
H37_10 H 0.0694 0.5100 0.3103
H38_10 H 0.0686 0.4669 0.2565
H39_10 H 0.0792 0.5153 0.2079
H41_10 H 0.0087 0.4667 0.1037
N18_10 N 0.0102(3) 0.4728(3) 0.2391(6)
H44_10 H 0.0033 0.4973 0.2398
C59_10 C 0.9919(7) 0.4449(6) 0.1522(8)
H40_10 H 0.9572 0.4324 0.1468
H42_10 H 0.9984 0.4181 0.1512
H43_10 H 0.9935 0.4522 0.2839
C58_11 C 0.5072(5) 0.5681(6) 0.2547(12)
H37_11 H 0.4900 0.5594 0.3103
H38_11 H 0.5331 0.6017 0.2565
H39_11 H 0.4847 0.5639 0.2079
C59_11 C 0.5551(6) 0.5470(9) 0.1522(8)
H40_11 H 0.5676 0.5248 0.1468
H41_11 H 0.5333 0.5420 0.1037
H42_11 H 0.5819 0.5803 0.1512
N18_11 N 0.5272(3) 0.5374(4) 0.2391(6)
H43_11 H 0.5478 0.5413 0.2839
H44_11 H 0.5027 0.5060 0.2398
C59_12 C 0.4530(9) 0.0081(7) 0.1522(8)
H40_12 H 0.4752 0.0428 0.1468
H42_12 H 0.4197 0.0016 0.1512
H43_12 H 0.4587 0.0065 0.2839
C58_12 C 0.4319(6) 0.9391(4) 0.2547(12)
H37_12 H 0.4406 0.9306 0.3103
H38_12 H 0.3983 0.9314 0.2565
H39_12 H 0.4361 0.9208 0.2079
H41_12 H 0.4580 0.9913 0.1037
N18_12 N 0.4626(4) 0.9898(3) 0.2391(6)
H44_12 H 0.4940 0.9967 0.2398
C58_13 C 0.3942(4) 0.1595(5) 0.9214(12)
H37_13 H 0.4027 0.1767 0.9770
H38_13 H 0.4019 0.1336 0.9232
H39_13 H 0.4125 0.1820 0.8746
C59_13 C 0.3252(7) 0.1116(6) 0.8189(8)
H40_13 H 0.2905 0.0991 0.8135
H41_13 H 0.3420 0.1334 0.7704
H42_13 H 0.3317 0.0848 0.8179
N18_13 N 0.3435(3) 0.1395(3) 0.9058(6)
H43_13 H 0.3268 0.1189 0.9506
H44_13 H 0.3366 0.1640 0.9065
C58_14 C 0.8405(5) 0.2348(6) 0.9214(12)
H37_14 H 0.8233 0.2261 0.9770
H38_14 H 0.8664 0.2684 0.9232
H39_14 H 0.8180 0.2306 0.8746
C59_14 C 0.8884(6) 0.2137(9) 0.8189(8)
H40_14 H 0.9009 0.1915 0.8135
H41_14 H 0.8666 0.2087 0.7704
H42_14 H 0.9152 0.2470 0.8179
N18_14 N 0.8605(3) 0.2041(4) 0.9058(6)
H43_14 H 0.8811 0.2080 0.9506
H44_14 H 0.8360 0.1727 0.9065
C58_15 C 0.7652(6) 0.6058(4) 0.9214(12)
H37_15 H 0.7739 0.5973 0.9770
H38_15 H 0.7316 0.5981 0.9232
H39_15 H 0.7694 0.5875 0.8746
C59_15 C 0.7863(9) 0.6748(7) 0.8189(8)
H40_15 H 0.8085 0.7095 0.8135
H41_15 H 0.7913 0.6580 0.7704
H42_15 H 0.7530 0.6683 0.8179
N18_15 N 0.7959(4) 0.6565(3) 0.9058(6)
H43_15 H 0.7920 0.6732 0.9506
H44_15 H 0.8273 0.6634 0.9065
C58_16 C 0.7276(4) 0.8261(5) 0.5880(12)
H37_16 H 0.7361 0.8433 0.6436
H38_16 H 0.7353 0.8002 0.5898
H39_16 H 0.7459 0.8486 0.5412
C59_16 C 0.6586(7) 0.7782(6) 0.4855(8)
H40_16 H 0.6239 0.7657 0.4801
H41_16 H 0.6754 0.8000 0.4370
H42_16 H 0.6651 0.7514 0.4845
N18_16 N 0.6769(3) 0.8061(3) 0.5724(6)
H43_16 H 0.6602 0.7855 0.6172
H44_16 H 0.6700 0.8306 0.5731
C58_17 C 0.1739(5) 0.9014(6) 0.5880(12)
H37_17 H 0.1567 0.8927 0.6436
H38_17 H 0.1998 0.9350 0.5898
H39_17 H 0.1514 0.8972 0.5412
C59_17 C 0.2218(6) 0.8803(9) 0.4855(8)
H40_17 H 0.2343 0.8581 0.4801
H41_17 H 0.2000 0.8753 0.4370
H42_17 H 0.2486 0.9136 0.4845
N18_17 N 0.1939(3) 0.8707(4) 0.5724(6)
H43_17 H 0.2145 0.8746 0.6172
H44_17 H 0.1694 0.8393 0.5731
C58_18 C 0.0986(6) 0.2724(4) 0.5880(12)
H37_18 H 0.1073 0.2639 0.6436
H38_18 H 0.0650 0.2647 0.5898
H39_18 H 0.1028 0.2541 0.5412
C59_18 C 0.1197(9) 0.3414(7) 0.4855(8)
H40_18 H 0.1419 0.3761 0.4801
H41_18 H 0.1247 0.3246 0.4370
H42_18 H 0.0864 0.3349 0.4845
N18_18 N 0.1293(4) 0.3231(3) 0.5724(6)
H43_18 H 0.1254 0.3398 0.6172
H44_18 H 0.1607 0.3300 0.5731
loop_
_geom_bond_atom_site_label_1
_geom_bond_atom_site_label_2
_geom_bond_site_symmetry_1
_geom_bond_site_symmetry_2
C38 C39 1_555 1_555
C39 C40 1_555 1_555
C40 H23 1_555 1_555
C41 C40 1_555 1_555
H24 C41 1_555 1_555
C42 C41 1_555 1_555
C43 C42 1_555 1_555
H25 C43 1_555 1_555
C44 C39 1_555 1_555
H26 C44 1_555 1_555
C45 C42 1_555 1_555
H27 C46 1_555 1_555
O9 C38 1_555 1_555
O10 C38 1_555 1_555
Zn4 O10 1_555 1_555
C43 C44 1_555 1_555
C45 C46 1_555 1_555
Zn1 O2 1_555 1_555
C1 C2 1_555 1_555
C2 C3 1_555 1_555
C3 H1 1_555 1_555
C4 C3 1_555 1_555
H2 C4 1_555 1_555
C5 C4 1_555 1_555
C6 C5 1_555 1_555
H3 C6 1_555 1_555
C7 C2 1_555 1_555
H4 C7 1_555 1_555
C8 C5 1_555 1_555
C9 C8 1_555 1_555
H5 C9 1_555 1_555
C10 C11 1_555 1_555
C11 C12 1_555 1_555
C12 H6 1_555 1_555
C13 C12 1_555 1_555
H7 C13 1_555 1_555
C14 C13 1_555 1_555
C15 C14 1_555 1_555
C16 C11 1_555 1_555
C17 C14 1_555 1_555
C19 N2 1_555 1_555
O1 C10 1_555 1_555
O2 C10 1_555 1_555
O3 C1 1_555 1_555
O4 Zn1 1_555 1_555
N2 Zn8 1_555 1_555
N4 C19 1_555 1_555
H11 N4 1_555 1_555
H12 N4 1_555 1_555
N5 Zn1 1_555 1_555
C20 C21 1_555 1_555
C21 C22 1_555 1_555
C22 H13 1_555 1_555
C23 C22 1_555 1_555
H14 C23 1_555 1_555
C24 C23 1_555 1_555
C25 C24 1_555 1_555
H15 C25 1_555 1_555
C26 C21 1_555 1_555
H16 C26 1_555 1_555
C27 C24 1_555 1_555
C28 C8 1_555 1_555
H17 C28 1_555 1_555
O5 C20 1_555 1_555
O6 C20 1_555 1_555
C29 C30 1_555 1_555
C30 C31 1_555 1_555
C31 H18 1_555 1_555
C32 C31 1_555 1_555
H19 C32 1_555 1_555
C33 C32 1_555 1_555
C34 C33 1_555 1_555
H20 C34 1_555 1_555
C35 C30 1_555 1_555
H21 C35 1_555 1_555
C36 C9 1_555 1_555
C37 C27 1_555 1_555
H22 C37 1_555 1_555
O7 C29 1_555 1_555
O8 C29 1_555 1_555
Zn4 O6 1_555 1_555
C56 N7 1_555 1_555
N6 N7 1_555 1_555
N7 Zn7 1_555 1_555
N8 N6 1_555 1_555
N9 C56 1_555 1_555
H33 N9 1_555 1_555
H34 N9 1_555 1_555
N10 Zn4 1_555 1_555
N11 N12 1_555 1_555
N12 Zn1 1_555 1_555
Zn6 O8 1_555 1_555
N16 Zn4 1_555 1_555
C1 O4 1_555 1_555
C6 C7 1_555 1_555
C15 C16 1_555 1_555
C19 N5 1_555 1_555
C25 C26 1_555 1_555
C27 C28 1_555 1_555
C33 C36 1_555 1_555
C34 C35 1_555 1_555
C36 C37 1_555 1_555
C56 N10 1_555 1_555
N8 N10 1_555 1_555
H30 C52 1_555 1_555
H32 C55 1_555 1_555
H8 C15_2 1_555 1_555
H10 C18 1_555 1_555
N3 N1 1_555 1_555
C47 C48 1_555 1_555
C48 C49 1_555 1_555
C49 H28 1_555 1_555
C50 C49 1_555 1_555
H29 C50 1_555 1_555
C51 C50 1_555 1_555
C52_2 C51 1_555 1_555
C53 C48 1_555 1_555
C54 C18 1_555 1_555
O11 C47 1_555 1_555
O12 C47 1_555 1_555
Zn3 N15 1_555 1_555
N14 C57 1_555 1_555
H36 N14 1_555 1_555
N15 C57 1_555 1_555
Zn6 O12 1_555 1_555
O14 Zn3 1_555 1_555
O15 Zn3 1_555 1_555
N17 Zn3 1_555 1_555
C51 C54 1_555 1_555
C52_2 C53 1_555 1_555
N13 N15 1_555 1_555
N8_2 N6_2 1_555 1_555
C56_2 N7_2 1_555 1_555
N7_2 Zn7_2 1_555 1_555
N9_2 C56_2 1_555 1_555
H33_2 N9_2 1_555 1_555
H34_2 N9_2 1_555 1_555
N10_2 Zn6 1_555 1_555
Zn3_2 N15_2 1_555 1_555
C57_2 N16 1_555 1_555
N11_2 N16 1_555 1_555
N13_2 N11_2 1_555 1_555
N14_2 C57_2 1_555 1_555
H35_2 N14_2 1_555 1_555
H36_2 N14_2 1_555 1_555
N15_2 C57_2 1_555 1_555
O14_2 Zn3_2 1_555 1_555
O15_2 Zn3_2 1_555 1_555
N16_2 Zn6 1_555 1_555
N17_2 Zn3_2 1_555 1_555
C56_2 N10_2 1_555 1_555
N13_2 N15_2 1_555 1_555
Zn3_3 N15_3 1_555 1_555
N14_3 C57_3 1_555 1_555
H36_3 N14_3 1_555 1_555
N15_3 C57_3 1_555 1_555
O14_3 Zn3_3 1_555 1_555
O15_3 Zn3_3 1_555 1_555
N17_3 Zn3_3 1_555 1_555
N13_3 N15_3 1_555 1_555
N11_3 N16_2 1_555 1_555
H5_2 C9_2 1_555 1_555
C29_2 C30_2 1_555 1_555
C30_2 C31_2 1_555 1_555
C31_2 H18_2 1_555 1_555
C32_2 C31_2 1_555 1_555
H19_2 C32_2 1_555 1_555
C33_2 C32_2 1_555 1_555
C34_2 C33_2 1_555 1_555
H20_2 C34_2 1_555 1_555
C35_2 C30_2 1_555 1_555
H21_2 C35_2 1_555 1_555
C36_2 C9_2 1_555 1_555
O7_2 C29_2 1_555 1_555
O15_2 C29_2 1_555 1_555
C33_2 C36_2 1_555 1_555
C34_2 C35_2 1_555 1_555
H14_2 C23_2 1_555 1_555
H22_2 C37_2 1_555 1_555
C1_2 C2_2 1_555 1_555
C2_2 C3_2 1_555 1_555
C6_2 C5_2 1_555 1_555
H3_2 C6_2 1_555 1_555
C7_2 C2_2 1_555 1_555
H4_2 C7_2 1_555 1_555
C8_2 C5_2 1_555 1_555
C10_2 C11_2 1_555 1_555
C11_2 C12_2 1_555 1_555
C12_2 H6_2 1_555 1_555
C13_2 C12_2 1_555 1_555
H7_2 C13_2 1_555 1_555
C14_2 C13_2 1_555 1_555
C15_3 C14_2 1_555 1_555
H8_2 C15_3 1_555 1_555
C16_2 C11_2 1_555 1_555
H9_2 C16_2 1_555 1_555
C17_2 C14_2 1_555 1_555
C18_2 C17_2 1_555 1_555
H10_2 C18_2 1_555 1_555
O1_2 C10_2 1_555 1_555
O14_3 C10_2 1_555 1_555
O3_2 C1_2 1_555 1_555
C38_2 C39_2 1_555 1_555
C39_2 C40_2 1_555 1_555
C40_2 H23_2 1_555 1_555
C41_2 C40_2 1_555 1_555
H24_2 C41_2 1_555 1_555
C42_2 C41_2 1_555 1_555
C43_2 C42_2 1_555 1_555
H25_2 C43_2 1_555 1_555
C44_2 C39_2 1_555 1_555
H26_2 C44_2 1_555 1_555
C45_2 C42_2 1_555 1_555
C46_2 C17_2 1_555 1_555
H27_2 C46_2 1_555 1_555
O9_2 C38_2 1_555 1_555
O14 C38_2 1_555 1_555
C47_2 C48_2 1_555 1_555
C48_2 C49_2 1_555 1_555
C49_2 H28_2 1_555 1_555
C50_2 C49_2 1_555 1_555
H29_2 C50_2 1_555 1_555
C51_2 C50_2 1_555 1_555
C52_3 C51_2 1_555 1_555
H30_2 C52_3 1_555 1_555
C53_2 C48_2 1_555 1_555
H31_2 C53_2 1_555 1_555
C54_2 C18_2 1_555 1_555
C55_2 C45_2 1_555 1_555
H32_2 C55_2 1_555 1_555
O11_2 C47_2 1_555 1_555
O14_2 C47_2 1_555 1_555
C57_4 N17_3 1_555 1_555
N14_4 C57_4 1_555 1_555
H35_4 N14_4 1_555 1_555
C1_2 O15_3 1_555 1_555
C6_2 C7_2 1_555 1_555
C15_3 C16_2 1_555 1_555
C43_2 C44_2 1_555 1_555
C45_2 C46_2 1_555 1_555
C51_2 C54_2 1_555 1_555
C52_3 C53_2 1_555 1_555
C54_2 C55_2 1_555 1_555
O14_4 Zn7_2 1_555 1_555
H2_2 C4_2 1_555 1_555
C20_2 C21_2 1_555 1_555
C21_2 C22_2 1_555 1_555
C25_2 C24_2 1_555 1_555
H15_2 C25_2 1_555 1_555
C26_2 C21_2 1_555 1_555
H16_2 C26_2 1_555 1_555
C27_2 C24_2 1_555 1_555
H17_2 C28_2 1_555 1_555
O5_2 C20_2 1_555 1_555
O15 C20_2 1_555 1_555
C25_2 C26_2 1_555 1_555
C27_2 C28_2 1_555 1_555
O14_5 Zn8 1_555 1_555
C57_5 N17 1_555 1_555
N14_5 C57_5 1_555 1_555
H35_5 N14_5 1_555 1_555
Zn7 N15_6 1_555 1_555
O14_6 Zn7 1_555 1_555
O15_6 Zn7 1_555 1_555
N13_6 N15_6 1_555 1_555
C57_6 N17_2 1_555 1_555
N11_6 N17_2 1_555 1_555
N14_6 C57_6 1_555 1_555
H35_6 N14_6 1_555 1_555
C1_3 C2_3 1_555 1_555
C2_3 C3_3 1_555 1_555
C3_3 H1_3 1_555 1_555
C4_3 C3_3 1_555 1_555
H2_3 C4_3 1_555 1_555
C5_3 C4_3 1_555 1_555
C6_3 C5_3 1_555 1_555
H3_3 C6_3 1_555 1_555
C7_3 C2_3 1_555 1_555
H4_3 C7_3 1_555 1_555
C8_3 C5_3 1_555 1_555
C9_3 C8_3 1_555 1_555
H5_3 C9_3 1_555 1_555
C10_3 C11_3 1_555 1_555
C11_3 C12_3 1_555 1_555
C13_3 C12_3 1_555 1_555
C14_3 C13_3 1_555 1_555
C15_4 C14_3 1_555 1_555
H8_3 C15_4 1_555 1_555
C16_3 C11_3 1_555 1_555
H9_3 C16_3 1_555 1_555
C17_3 C14_3 1_555 1_555
C18_3 C17_3 1_555 1_555
H10_3 C18_3 1_555 1_555
O1_3 C10_3 1_555 1_555
O14_6 C10_3 1_555 1_555
O3_3 C1_3 1_555 1_555
C20_3 C21_3 1_555 1_555
C21_3 C22_3 1_555 1_555
C22_3 H13_3 1_555 1_555
C23_3 C22_3 1_555 1_555
H14_3 C23_3 1_555 1_555
C24_3 C23_3 1_555 1_555
C25_3 C24_3 1_555 1_555
H15_3 C25_3 1_555 1_555
C26_3 C21_3 1_555 1_555
H16_3 C26_3 1_555 1_555
C27_3 C24_3 1_555 1_555
C28_3 C8_3 1_555 1_555
H17_3 C28_3 1_555 1_555
O5_3 C20_3 1_555 1_555
O15_4 C20_3 1_555 1_555
C29_3 C30_3 1_555 1_555
C30_3 C31_3 1_555 1_555
C31_3 H18_3 1_555 1_555
C32_3 C31_3 1_555 1_555
H19_3 C32_3 1_555 1_555
C33_3 C32_3 1_555 1_555
C34_3 C33_3 1_555 1_555
H20_3 C34_3 1_555 1_555
C35_3 C30_3 1_555 1_555
H21_3 C35_3 1_555 1_555
C36_3 C9_3 1_555 1_555
C37_3 C27_3 1_555 1_555
H22_3 C37_3 1_555 1_555
O7_3 C29_3 1_555 1_555
O15_5 C29_3 1_555 1_555
C38_3 C39_3 1_555 1_555
C39_3 C40_3 1_555 1_555
C41_3 C40_3 1_555 1_555
C42_3 C41_3 1_555 1_555
C43_3 C42_3 1_555 1_555
H25_3 C43_3 1_555 1_555
C44_3 C39_3 1_555 1_555
H26_3 C44_3 1_555 1_555
C45_3 C42_3 1_555 1_555
C46_3 C17_3 1_555 1_555
H27_3 C46_3 1_555 1_555
O9_3 C38_3 1_555 1_555
O14_4 C38_3 1_555 1_555
C47_3 C48_3 1_555 1_555
C48_3 C49_3 1_555 1_555
C50_3 C49_3 1_555 1_555
C51_3 C50_3 1_555 1_555
C52_4 C51_3 1_555 1_555
H30_3 C52_4 1_555 1_555
C53_3 C48_3 1_555 1_555
H31_3 C53_3 1_555 1_555
C54_3 C18_3 1_555 1_555
C55_3 C45_3 1_555 1_555
H32_3 C55_3 1_555 1_555
O11_3 C47_3 1_555 1_555
O14_5 C47_3 1_555 1_555
C1_3 O15_6 1_555 1_555
C6_3 C7_3 1_555 1_555
C15_4 C16_3 1_555 1_555
C25_3 C26_3 1_555 1_555
C27_3 C28_3 1_555 1_555
C33_3 C36_3 1_555 1_555
C34_3 C35_3 1_555 1_555
C36_3 C37_3 1_555 1_555
C43_3 C44_3 1_555 1_555
C45_3 C46_3 1_555 1_555
C51_3 C54_3 1_555 1_555
C52_4 C53_3 1_555 1_555
C54_3 C55_3 1_555 1_555
H8_4 C15_5 1_555 1_555
H10_4 C18_4 1_555 1_555
N3_2 N1_2 1_555 1_555
C47_4 C48_4 1_555 1_555
C48_4 C49_4 1_555 1_555
C49_4 H28_4 1_555 1_555
C50_4 C49_4 1_555 1_555
H29_4 C50_4 1_555 1_555
C51_4 C50_4 1_555 1_555
C52_5 C51_4 1_555 1_555
C53_4 C48_4 1_555 1_555
C54_4 C18_4 1_555 1_555
O11_4 C47_4 1_555 1_555
O12_2 C47_4 1_555 1_555
Zn3_4 N15_7 1_555 1_555
N14_7 C57_7 1_555 1_555
H36_7 N14_7 1_555 1_555
N15_7 C57_7 1_555 1_555
Zn5 O12_2 1_555 1_555
O14_7 Zn3_4 1_555 1_555
O15_7 Zn3_4 1_555 1_555
N17_4 Zn3_4 1_555 1_555
C51_4 C54_4 1_555 1_555
C52_5 C53_4 1_555 1_555
N13_7 N15_7 1_555 1_555
H30_4 C52_6 1_555 1_555
H32_4 C55_4 1_555 1_555
Zn1_2 O2_2 1_555 1_555
C1_4 C2_4 1_555 1_555
C2_4 C3_4 1_555 1_555
C3_4 H1_4 1_555 1_555
C4_4 C3_4 1_555 1_555
H2_4 C4_4 1_555 1_555
C5_4 C4_4 1_555 1_555
C6_4 C5_4 1_555 1_555
H3_4 C6_4 1_555 1_555
C7_4 C2_4 1_555 1_555
H4_4 C7_4 1_555 1_555
C8_4 C5_4 1_555 1_555
C9_4 C8_4 1_555 1_555
H5_4 C9_4 1_555 1_555
C10_4 C11_4 1_555 1_555
C11_4 C12_4 1_555 1_555
C12_4 H6_4 1_555 1_555
C13_4 C12_4 1_555 1_555
H7_4 C13_4 1_555 1_555
C14_4 C13_4 1_555 1_555
C15_6 C14_4 1_555 1_555
C16_4 C11_4 1_555 1_555
C17_4 C14_4 1_555 1_555
C19_2 N2_2 1_555 1_555
O1_4 C10_4 1_555 1_555
O2_2 C10_4 1_555 1_555
O3_4 C1_4 1_555 1_555
O4_2 Zn1_2 1_555 1_555
N2_2 Zn8_2 1_555 1_555
N4_2 C19_2 1_555 1_555
H11_2 N4_2 1_555 1_555
H12_2 N4_2 1_555 1_555
N5_2 Zn1_2 1_555 1_555
C20_4 C21_4 1_555 1_555
C21_4 C22_4 1_555 1_555
C22_4 H13_4 1_555 1_555
C23_4 C22_4 1_555 1_555
H14_4 C23_4 1_555 1_555
C24_4 C23_4 1_555 1_555
C25_4 C24_4 1_555 1_555
H15_4 C25_4 1_555 1_555
C26_4 C21_4 1_555 1_555
H16_4 C26_4 1_555 1_555
C27_4 C24_4 1_555 1_555
C28_4 C8_4 1_555 1_555
H17_4 C28_4 1_555 1_555
O5_4 C20_4 1_555 1_555
O6_2 C20_4 1_555 1_555
C29_4 C30_4 1_555 1_555
C30_4 C31_4 1_555 1_555
C31_4 H18_4 1_555 1_555
C32_4 C31_4 1_555 1_555
H19_4 C32_4 1_555 1_555
C33_4 C32_4 1_555 1_555
C34_4 C33_4 1_555 1_555
H20_4 C34_4 1_555 1_555
C35_4 C30_4 1_555 1_555
H21_4 C35_4 1_555 1_555
C36_4 C9_4 1_555 1_555
C37_4 C27_4 1_555 1_555
H22_4 C37_4 1_555 1_555
O7_4 C29_4 1_555 1_555
O8_2 C29_4 1_555 1_555
Zn2 O6_2 1_555 1_555
C56_3 N7_3 1_555 1_555
N6_3 N7_3 1_555 1_555
N7_3 Zn7_3 1_555 1_555
N8_3 N6_3 1_555 1_555
N9_3 C56_3 1_555 1_555
H33_3 N9_3 1_555 1_555
H34_3 N9_3 1_555 1_555
N10_3 Zn2 1_555 1_555
N11_7 N12_2 1_555 1_555
N12_2 Zn1_2 1_555 1_555
Zn5 O8_2 1_555 1_555
O13 Zn2 1_555 1_555
N16_3 Zn2 1_555 1_555
C1_4 O4_2 1_555 1_555
C6_4 C7_4 1_555 1_555
C15_6 C16_4 1_555 1_555
C19_2 N5_2 1_555 1_555
C25_4 C26_4 1_555 1_555
C27_4 C28_4 1_555 1_555
C33_4 C36_4 1_555 1_555
C34_4 C35_4 1_555 1_555
C36_4 C37_4 1_555 1_555
C56_3 N10_3 1_555 1_555
N8_3 N10_3 1_555 1_555
C38_4 C39_4 1_555 1_555
C39_4 C40_4 1_555 1_555
C40_4 H23_4 1_555 1_555
C41_4 C40_4 1_555 1_555
H24_4 C41_4 1_555 1_555
C42_4 C41_4 1_555 1_555
C43_4 C42_4 1_555 1_555
H25_4 C43_4 1_555 1_555
C44_4 C39_4 1_555 1_555
H26_4 C44_4 1_555 1_555
C45_4 C42_4 1_555 1_555
H27_4 C46_4 1_555 1_555
O9_4 C38_4 1_555 1_555
O13 C38_4 1_555 1_555
C43_4 C44_4 1_555 1_555
C45_4 C46_4 1_555 1_555
C56_4 N7_4 1_555 1_555
N7_4 Zn7_4 1_555 1_555
N9_4 C56_4 1_555 1_555
H33_4 N9_4 1_555 1_555
H34_4 N9_4 1_555 1_555
N10_4 Zn5 1_555 1_555
Zn3_5 N15_8 1_555 1_555
C57_8 N16_3 1_555 1_555
N11_8 N16_3 1_555 1_555
N13_8 N11_8 1_555 1_555
N14_8 C57_8 1_555 1_555
H35_8 N14_8 1_555 1_555
H36_8 N14_8 1_555 1_555
N15_8 C57_8 1_555 1_555
O14_8 Zn3_5 1_555 1_555
O15_8 Zn3_5 1_555 1_555
N16_4 Zn5 1_555 1_555
N17_5 Zn3_5 1_555 1_555
C56_4 N10_4 1_555 1_555
N13_8 N15_8 1_555 1_555
N8_4 N6_4 1_555 1_555
N11_9 N16_4 1_555 1_555
Zn3_6 N15_9 1_555 1_555
N14_9 C57_9 1_555 1_555
H36_9 N14_9 1_555 1_555
N15_9 C57_9 1_555 1_555
O14_9 Zn3_6 1_555 1_555
O15_9 Zn3_6 1_555 1_555
N17_6 Zn3_6 1_555 1_555
N13_9 N15_9 1_555 1_555
H2_5 C4_5 1_555 1_555
C20_5 C21_5 1_555 1_555
C21_5 C22_5 1_555 1_555
C25_5 C24_5 1_555 1_555
H15_5 C25_5 1_555 1_555
C26_5 C21_5 1_555 1_555
H16_5 C26_5 1_555 1_555
C27_5 C24_5 1_555 1_555
H17_5 C28_5 1_555 1_555
O5_5 C20_5 1_555 1_555
O15_7 C20_5 1_555 1_555
C25_5 C26_5 1_555 1_555
C27_5 C28_5 1_555 1_555
O14_10 Zn7_4 1_555 1_555
C1_5 C2_5 1_555 1_555
C2_5 C3_5 1_555 1_555
C6_5 C5_5 1_555 1_555
H3_5 C6_5 1_555 1_555
C7_5 C2_5 1_555 1_555
H4_5 C7_5 1_555 1_555
C8_5 C5_5 1_555 1_555
C10_5 C11_5 1_555 1_555
C11_5 C12_5 1_555 1_555
C12_5 H6_5 1_555 1_555
C13_5 C12_5 1_555 1_555
H7_5 C13_5 1_555 1_555
C14_5 C13_5 1_555 1_555
C15_7 C14_5 1_555 1_555
H8_5 C15_7 1_555 1_555
C16_5 C11_5 1_555 1_555
H9_5 C16_5 1_555 1_555
C17_5 C14_5 1_555 1_555
C18_5 C17_5 1_555 1_555
H10_5 C18_5 1_555 1_555
O1_5 C10_5 1_555 1_555
O14_9 C10_5 1_555 1_555
O3_5 C1_5 1_555 1_555
C38_5 C39_5 1_555 1_555
C39_5 C40_5 1_555 1_555
C40_5 H23_5 1_555 1_555
C41_5 C40_5 1_555 1_555
H24_5 C41_5 1_555 1_555
C42_5 C41_5 1_555 1_555
C43_5 C42_5 1_555 1_555
H25_5 C43_5 1_555 1_555
C44_5 C39_5 1_555 1_555
H26_5 C44_5 1_555 1_555
C45_5 C42_5 1_555 1_555
C46_5 C17_5 1_555 1_555
H27_5 C46_5 1_555 1_555
O9_5 C38_5 1_555 1_555
O14_7 C38_5 1_555 1_555
C47_5 C48_5 1_555 1_555
C48_5 C49_5 1_555 1_555
C49_5 H28_5 1_555 1_555
C50_5 C49_5 1_555 1_555
H29_5 C50_5 1_555 1_555
C51_5 C50_5 1_555 1_555
C52_7 C51_5 1_555 1_555
H30_5 C52_7 1_555 1_555
C53_5 C48_5 1_555 1_555
H31_5 C53_5 1_555 1_555
C54_5 C18_5 1_555 1_555
C55_5 C45_5 1_555 1_555
H32_5 C55_5 1_555 1_555
O11_5 C47_5 1_555 1_555
O14_8 C47_5 1_555 1_555
C57_10 N17_6 1_555 1_555
N14_10 C57_10 1_555 1_555
H35_10 N14_10 1_555 1_555
C1_5 O15_9 1_555 1_555
C6_5 C7_5 1_555 1_555
C15_7 C16_5 1_555 1_555
C43_5 C44_5 1_555 1_555
C45_5 C46_5 1_555 1_555
C51_5 C54_5 1_555 1_555
C52_7 C53_5 1_555 1_555
C54_5 C55_5 1_555 1_555
H14_5 C23_5 1_555 1_555
H22_5 C37_5 1_555 1_555
H5_5 C9_5 1_555 1_555
C29_5 C30_5 1_555 1_555
C30_5 C31_5 1_555 1_555
C31_5 H18_5 1_555 1_555
C32_5 C31_5 1_555 1_555
H19_5 C32_5 1_555 1_555
C33_5 C32_5 1_555 1_555
C34_5 C33_5 1_555 1_555
H20_5 C34_5 1_555 1_555
C35_5 C30_5 1_555 1_555
H21_5 C35_5 1_555 1_555
C36_5 C9_5 1_555 1_555
O7_5 C29_5 1_555 1_555
O15_8 C29_5 1_555 1_555
C33_5 C36_5 1_555 1_555
C34_5 C35_5 1_555 1_555
C57_11 N17_4 1_555 1_555
N14_11 C57_11 1_555 1_555
H35_11 N14_11 1_555 1_555
O14_11 Zn8_2 1_555 1_555
C57_12 N17_5 1_555 1_555
N11_12 N17_5 1_555 1_555
N14_12 C57_12 1_555 1_555
H35_12 N14_12 1_555 1_555
Zn7_3 N15_12 1_555 1_555
O14_12 Zn7_3 1_555 1_555
O15_12 Zn7_3 1_555 1_555
N13_12 N15_12 1_555 1_555
C1_6 C2_6 1_555 1_555
C2_6 C3_6 1_555 1_555
C3_6 H1_6 1_555 1_555
C4_6 C3_6 1_555 1_555
H2_6 C4_6 1_555 1_555
C5_6 C4_6 1_555 1_555
C6_6 C5_6 1_555 1_555
H3_6 C6_6 1_555 1_555
C7_6 C2_6 1_555 1_555
H4_6 C7_6 1_555 1_555
C8_6 C5_6 1_555 1_555
C9_6 C8_6 1_555 1_555
H5_6 C9_6 1_555 1_555
C10_6 C11_6 1_555 1_555
C11_6 C12_6 1_555 1_555
C13_6 C12_6 1_555 1_555
C14_6 C13_6 1_555 1_555
C15_8 C14_6 1_555 1_555
H8_6 C15_8 1_555 1_555
C16_6 C11_6 1_555 1_555
H9_6 C16_6 1_555 1_555
C17_6 C14_6 1_555 1_555
C18_6 C17_6 1_555 1_555
H10_6 C18_6 1_555 1_555
O1_6 C10_6 1_555 1_555
O14_12 C10_6 1_555 1_555
O3_6 C1_6 1_555 1_555
C20_6 C21_6 1_555 1_555
C21_6 C22_6 1_555 1_555
C22_6 H13_6 1_555 1_555
C23_6 C22_6 1_555 1_555
H14_6 C23_6 1_555 1_555
C24_6 C23_6 1_555 1_555
C25_6 C24_6 1_555 1_555
H15_6 C25_6 1_555 1_555
C26_6 C21_6 1_555 1_555
H16_6 C26_6 1_555 1_555
C27_6 C24_6 1_555 1_555
C28_6 C8_6 1_555 1_555
H17_6 C28_6 1_555 1_555
O5_6 C20_6 1_555 1_555
O15_10 C20_6 1_555 1_555
C29_6 C30_6 1_555 1_555
C30_6 C31_6 1_555 1_555
C31_6 H18_6 1_555 1_555
C32_6 C31_6 1_555 1_555
H19_6 C32_6 1_555 1_555
C33_6 C32_6 1_555 1_555
C34_6 C33_6 1_555 1_555
H20_6 C34_6 1_555 1_555
C35_6 C30_6 1_555 1_555
H21_6 C35_6 1_555 1_555
C36_6 C9_6 1_555 1_555
C37_6 C27_6 1_555 1_555
H22_6 C37_6 1_555 1_555
O7_6 C29_6 1_555 1_555
O15_11 C29_6 1_555 1_555
C38_6 C39_6 1_555 1_555
C39_6 C40_6 1_555 1_555
C41_6 C40_6 1_555 1_555
C42_6 C41_6 1_555 1_555
C43_6 C42_6 1_555 1_555
H25_6 C43_6 1_555 1_555
C44_6 C39_6 1_555 1_555
H26_6 C44_6 1_555 1_555
C45_6 C42_6 1_555 1_555
C46_6 C17_6 1_555 1_555
H27_6 C46_6 1_555 1_555
O9_6 C38_6 1_555 1_555
O14_10 C38_6 1_555 1_555
C47_6 C48_6 1_555 1_555
C48_6 C49_6 1_555 1_555
C50_6 C49_6 1_555 1_555
C51_6 C50_6 1_555 1_555
C52_8 C51_6 1_555 1_555
H30_6 C52_8 1_555 1_555
C53_6 C48_6 1_555 1_555
H31_6 C53_6 1_555 1_555
C54_6 C18_6 1_555 1_555
C55_6 C45_6 1_555 1_555
H32_6 C55_6 1_555 1_555
O11_6 C47_6 1_555 1_555
O14_11 C47_6 1_555 1_555
C1_6 O15_12 1_555 1_555
C6_6 C7_6 1_555 1_555
C15_8 C16_6 1_555 1_555
C25_6 C26_6 1_555 1_555
C27_6 C28_6 1_555 1_555
C33_6 C36_6 1_555 1_555
C34_6 C35_6 1_555 1_555
C36_6 C37_6 1_555 1_555
C43_6 C44_6 1_555 1_555
C45_6 C46_6 1_555 1_555
C51_6 C54_6 1_555 1_555
C52_8 C53_6 1_555 1_555
C54_6 C55_6 1_555 1_555
C59 H40 1_555 1_555
H42 C59 1_555 1_555
C58 H37 1_555 1_555
H38 C58 1_555 1_555
H39 C58 1_555 1_555
N18 C58 1_555 1_555
H44 N18 1_555 1_555
C58_2 H37_2 1_555 1_555
H38_2 C58_2 1_555 1_555
H39_2 C58_2 1_555 1_555
C59_2 H40_2 1_555 1_555
H41_2 C59_2 1_555 1_555
H42_2 C59_2 1_555 1_555
N18_2 C58_2 1_555 1_555
H43_2 N18_2 1_555 1_555
H44_2 N18_2 1_555 1_555
C59_2 N18_2 1_555 1_555
C58_3 H37_3 1_555 1_555
H38_3 C58_3 1_555 1_555
H39_3 C58_3 1_555 1_555
N18_3 C58_3 1_555 1_555
H44_3 N18_3 1_555 1_555
C59_3 H40_3 1_555 1_555
H42_3 C59_3 1_555 1_555
C58_4 H37_4 1_555 1_555
H38_4 C58_4 1_555 1_555
H39_4 C58_4 1_555 1_555
C59_4 H40_4 1_555 1_555
H41_4 C59_4 1_555 1_555
H42_4 C59_4 1_555 1_555
N18_4 C58_4 1_555 1_555
H43_4 N18_4 1_555 1_555
H44_4 N18_4 1_555 1_555
C59_4 N18_4 1_555 1_555
C58_5 H37_5 1_555 1_555
H38_5 C58_5 1_555 1_555
H39_5 C58_5 1_555 1_555
C59_5 H40_5 1_555 1_555
H41_5 C59_5 1_555 1_555
H42_5 C59_5 1_555 1_555
N18_5 C58_5 1_555 1_555
H43_5 N18_5 1_555 1_555
H44_5 N18_5 1_555 1_555
C59_5 N18_5 1_555 1_555
C58_6 H37_6 1_555 1_555
H38_6 C58_6 1_555 1_555
H39_6 C58_6 1_555 1_555
C59_6 H40_6 1_555 1_555
H41_6 C59_6 1_555 1_555
H42_6 C59_6 1_555 1_555
N18_6 C58_6 1_555 1_555
H43_6 N18_6 1_555 1_555
H44_6 N18_6 1_555 1_555
C59_6 N18_6 1_555 1_555
C58_7 H37_7 1_555 1_555
H38_7 C58_7 1_555 1_555
H39_7 C58_7 1_555 1_555
C59_7 H40_7 1_555 1_555
H41_7 C59_7 1_555 1_555
H42_7 C59_7 1_555 1_555
N18_7 C58_7 1_555 1_555
H43_7 N18_7 1_555 1_555
H44_7 N18_7 1_555 1_555
C59_7 N18_7 1_555 1_555
C58_8 H37_8 1_555 1_555
H38_8 C58_8 1_555 1_555
H39_8 C58_8 1_555 1_555
C59_8 H40_8 1_555 1_555
H41_8 C59_8 1_555 1_555
H42_8 C59_8 1_555 1_555
N18_8 C58_8 1_555 1_555
H43_8 N18_8 1_555 1_555
H44_8 N18_8 1_555 1_555
C59_8 N18_8 1_555 1_555
C58_9 H37_9 1_555 1_555
H38_9 C58_9 1_555 1_555
H39_9 C58_9 1_555 1_555
C59_9 H40_9 1_555 1_555
H41_9 C59_9 1_555 1_555
H42_9 C59_9 1_555 1_555
N18_9 C58_9 1_555 1_555
H43_9 N18_9 1_555 1_555
H44_9 N18_9 1_555 1_555
C59_9 N18_9 1_555 1_555
C58_10 H37_10 1_555 1_555
H38_10 C58_10 1_555 1_555
H39_10 C58_10 1_555 1_555
N18_10 C58_10 1_555 1_555
H44_10 N18_10 1_555 1_555
C59_10 H40_10 1_555 1_555
H42_10 C59_10 1_555 1_555
C58_11 H37_11 1_555 1_555
H38_11 C58_11 1_555 1_555
H39_11 C58_11 1_555 1_555
C59_11 H40_11 1_555 1_555
H41_11 C59_11 1_555 1_555
H42_11 C59_11 1_555 1_555
N18_11 C58_11 1_555 1_555
H43_11 N18_11 1_555 1_555
H44_11 N18_11 1_555 1_555
C59_11 N18_11 1_555 1_555
C59_12 H40_12 1_555 1_555
H42_12 C59_12 1_555 1_555
C58_12 H37_12 1_555 1_555
H38_12 C58_12 1_555 1_555
H39_12 C58_12 1_555 1_555
N18_12 C58_12 1_555 1_555
H44_12 N18_12 1_555 1_555
C58_13 H37_13 1_555 1_555
H38_13 C58_13 1_555 1_555
H39_13 C58_13 1_555 1_555
C59_13 H40_13 1_555 1_555
H41_13 C59_13 1_555 1_555
H42_13 C59_13 1_555 1_555
N18_13 C58_13 1_555 1_555
H43_13 N18_13 1_555 1_555
H44_13 N18_13 1_555 1_555
C59_13 N18_13 1_555 1_555
C58_14 H37_14 1_555 1_555
H38_14 C58_14 1_555 1_555
H39_14 C58_14 1_555 1_555
C59_14 H40_14 1_555 1_555
H41_14 C59_14 1_555 1_555
H42_14 C59_14 1_555 1_555
N18_14 C58_14 1_555 1_555
H43_14 N18_14 1_555 1_555
H44_14 N18_14 1_555 1_555
C59_14 N18_14 1_555 1_555
C58_15 H37_15 1_555 1_555
H38_15 C58_15 1_555 1_555
H39_15 C58_15 1_555 1_555
C59_15 H40_15 1_555 1_555
H41_15 C59_15 1_555 1_555
H42_15 C59_15 1_555 1_555
N18_15 C58_15 1_555 1_555
H43_15 N18_15 1_555 1_555
H44_15 N18_15 1_555 1_555
C59_15 N18_15 1_555 1_555
C58_16 H37_16 1_555 1_555
H38_16 C58_16 1_555 1_555
H39_16 C58_16 1_555 1_555
C59_16 H40_16 1_555 1_555
H41_16 C59_16 1_555 1_555
H42_16 C59_16 1_555 1_555
N18_16 C58_16 1_555 1_555
H43_16 N18_16 1_555 1_555
H44_16 N18_16 1_555 1_555
C59_16 N18_16 1_555 1_555
C58_17 H37_17 1_555 1_555
H38_17 C58_17 1_555 1_555
H39_17 C58_17 1_555 1_555
C59_17 H40_17 1_555 1_555
H41_17 C59_17 1_555 1_555
H42_17 C59_17 1_555 1_555
N18_17 C58_17 1_555 1_555
H43_17 N18_17 1_555 1_555
H44_17 N18_17 1_555 1_555
C59_17 N18_17 1_555 1_555
C58_18 H37_18 1_555 1_555
H38_18 C58_18 1_555 1_555
H39_18 C58_18 1_555 1_555
C59_18 H40_18 1_555 1_555
H41_18 C59_18 1_555 1_555
H42_18 C59_18 1_555 1_555
N18_18 C58_18 1_555 1_555
H43_18 N18_18 1_555 1_555
H44_18 N18_18 1_555 1_555
C59_18 N18_18 1_555 1_555

#END
