
###############################################################################
#
# This file contains modified crystal structure data generated from the
# MOF subset of the Cambridge Structural Database (CSD) v543 
# hosted by the Cambridge Crystallographic Data Centre (CCDC).
#
# This work is licensed under the Creative Commons
# Attribution-NonCommercial-ShareAlike 4.0 International License.
# To view a copy of this license, visit
# http://creativecommons.org/licenses/by-nc-sa/4.0/
# or send a letter to
# Creative Commons, PO Box 1866, Mountain View, CA 94042, USA.
#
# CIF created using the CSD Python API on 29 September 2022
# The structure has been converted into the P1 space group
# The structure has a 3D framework
# The original CSD entry LAFFEG is in the rhombohedral crystal system
# The framework has been calculated to contain at least 10.0% void space
# The void calculation uses a probe of radius 1.32A, grid spacing 0.4
# The framework is charged, counterions have been retained in the structure
#
###############################################################################

data_LAFFEG
_chemical_formula_moiety         '(C378 H360 N108 O72 Zn14 13-)n'
_symmetry_cell_setting           triclinic
_symmetry_space_group_name_H-M   'P 1'
_symmetry_Int_Tables_number      1
_space_group_name_Hall           'P 1'
loop_
_symmetry_equiv_pos_site_id
_symmetry_equiv_pos_as_xyz
1 x,y,z
_cell_length_a                   31.3837(10)
_cell_length_b                   31.3837(10)
_cell_length_c                   15.0411(7)
_cell_angle_alpha                90
_cell_angle_beta                 90
_cell_angle_gamma                120
_cell_volume                     12829.8
loop_
_atom_site_label
_atom_site_type_symbol
_atom_site_fract_x
_atom_site_fract_y
_atom_site_fract_z
C38 C 0.18016(13) 0.25519(18) 0.4332(2)
C39 C 0.14417(12) 0.20222(17) 0.4163(2)
C40 C 0.10430(13) 0.18877(18) 0.3592(2)
H23 H 0.1006 0.2130 0.3307
C41 C 0.07040(12) 0.13992(17) 0.3447(2)
H24 H 0.0437 0.1318 0.3077
C42 C 0.07525(11) 0.10259(16) 0.38419(19)
C43 C 0.11587(11) 0.11595(16) 0.4392(2)
H25 H 0.1205 0.0917 0.4651
C44 C 0.14926(11) 0.16486(16) 0.4555(2)
H26 H 0.1757 0.1730 0.4933
C45 C 0.03685(11) 0.04979(16) 0.37437(18)
C46 C 0.04914(11) 0.01266(16) 0.37381(19)
H27 H 0.0821 0.0212 0.3731
O9 O 0.17914(12) 0.28815(17) 0.3912(3)
O10 O 0.21246(10) 0.26430(15) 0.49310(17)
Zn4 Zn 0.269008(15) 0.330272(21) 0.48673(2)
Zn1 Zn 0.061264(15) 0.730992(15) 0.48673(2)
C1 C 0.14864(12) 0.73902(12) 0.5458(2)
C2 C 0.18600(12) 0.72225(12) 0.5515(2)
C3 C 0.17617(11) 0.67775(11) 0.5142(2)
H1 H 0.1458 0.6574 0.4879
C4 C 0.21149(11) 0.66367(11) 0.5160(2)
H2 H 0.2043 0.6335 0.4917
C5 C 0.25809(11) 0.69400(11) 0.55392(18)
C6 C 0.26604(12) 0.73728(12) 0.5947(2)
H3 H 0.2959 0.7572 0.6231
C7 C 0.23084(12) 0.75127(12) 0.5939(2)
H4 H 0.2371 0.7803 0.6219
C8 C 0.29646(11) 0.68001(11) 0.55190(18)
C9 C 0.34620(12) 0.71595(11) 0.55146(18)
H5 H 0.3549 0.7490 0.5509
C10 C 0.07503(13) 0.81984(13) 0.4332(2)
C11 C 0.05805(12) 0.85583(12) 0.4163(2)
C12 C 0.08447(13) 0.89570(13) 0.3592(2)
H6 H 0.1124 0.8994 0.3307
C13 C 0.06952(12) 0.92960(12) 0.3447(2)
H7 H 0.0881 0.9563 0.3077
C14 C 0.02734(11) 0.92475(11) 0.38419(19)
C15 C 0.00008(11) 0.88413(11) 0.4392(2)
C16 C 0.01560(12) 0.85074(11) 0.4555(2)
C17 C 0.01294(11) 0.96315(11) 0.37437(18)
C19 C 0.04298(12) 0.67123(13) 0.3172(2)
O1 O 0.10901(12) 0.82086(12) 0.3912(3)
O2 O 0.05184(11) 0.78754(10) 0.49310(17)
O3 O 0.15106(10) 0.77166(9) 0.59555(17)
O4 O 0.11539(9) 0.71745(10) 0.48704(16)
N2 N 0.00799(10) 0.64808(11) 0.25675(18)
N4 N 0.08706(13) 0.67365(17) 0.3173(3)
H11 H 0.0943 0.6595 0.2759
H12 H 0.1079 0.6894 0.3588
N5 N 0.02920(10) 0.69404(11) 0.37588(18)
C20 C 0.26098(12) 0.40962(17) 0.5458(2)
C21 C 0.27775(12) 0.46375(17) 0.5515(2)
C22 C 0.32225(11) 0.49842(16) 0.5142(2)
H13 H 0.3426 0.4884 0.4879
C23 C 0.33633(11) 0.54782(16) 0.5160(2)
H14 H 0.3665 0.5708 0.4917
C24 C 0.30600(11) 0.56409(16) 0.55392(18)
C25 C 0.26272(12) 0.52876(17) 0.5947(2)
H15 H 0.2428 0.5387 0.6231
C26 C 0.24873(12) 0.47957(17) 0.5939(2)
H16 H 0.2197 0.4568 0.6219
C27 C 0.31999(11) 0.61645(16) 0.55190(18)
C28 C 0.28405(11) 0.63025(16) 0.55146(18)
H17 H 0.2510 0.6059 0.5509
O5 O 0.22834(9) 0.37940(13) 0.59555(17)
O6 O 0.28255(10) 0.39794(13) 0.48704(16)
C29 C 0.59038(17) 0.85136(12) 0.5458(2)
C30 C 0.53625(17) 0.81400(12) 0.5515(2)
C31 C 0.50158(16) 0.82383(11) 0.5142(2)
H18 H 0.5116 0.8542 0.4879
C32 C 0.45218(16) 0.78851(11) 0.5160(2)
H19 H 0.4292 0.7957 0.4917
C33 C 0.43591(16) 0.74191(11) 0.55392(18)
C34 C 0.47124(17) 0.73396(12) 0.5947(2)
H20 H 0.4613 0.7041 0.6231
C35 C 0.52043(17) 0.76916(12) 0.5939(2)
H21 H 0.5432 0.7629 0.6219
C36 C 0.38355(16) 0.70354(11) 0.55190(18)
C37 C 0.36975(16) 0.65380(12) 0.55146(18)
H22 H 0.3941 0.6451 0.5509
O7 O 0.62060(13) 0.84894(10) 0.59555(17)
O8 O 0.60206(13) 0.88461(9) 0.48704(16)
C56 C 0.32877(13) 0.37175(18) 0.3172(2)
N6 N 0.34259(16) 0.31442(20) 0.2791(2)
N7 N 0.35192(11) 0.35991(15) 0.25675(18)
N8 N 0.31520(16) 0.29948(21) 0.3491(2)
N9 N 0.32635(17) 0.41341(21) 0.3173(3)
H33 H 0.3405 0.4348 0.2759
H34 H 0.3106 0.4185 0.3588
N10 N 0.30596(11) 0.33516(15) 0.37588(18)
N11 N 0.00926(16) 0.64775(20) 0.6124(2)
N12 N 0.01859(11) 0.69324(15) 0.59008(18)
H35 H 0.0072 0.7681 0.6092
Zn6 Zn 0.669728(21) 0.938736(15) 0.48673(2)
Zn7 Zn 0.394597(15) 0.397659(15) 0.15340(2)
Zn8 Zn 0.003061(21) 0.605403(15) 0.15340(2)
N16 N 0.30676(15) 0.32534(10) 0.59008(18)
H30 H 0.9083 0.0288 0.4651
H31 H 0.8270 0.0027 0.4933
C55 C 0.98734(16) 0.03648(11) 0.37381(19)
H32 H 0.9788 0.0609 0.3731
H8 H 0.9712 0.8795 0.4651
H9 H 0.9973 0.8243 0.4933
C18 C 0.96352(11) 0.95086(11) 0.37381(19)
H10 H 0.9391 0.9179 0.3731
N1 N 0.97183(12) 0.65741(16) 0.2791(2)
N3 N 0.98428(13) 0.68480(16) 0.3491(2)
C47 C 0.74481(18) 0.92497(13) 0.4332(2)
C48 C 0.79778(17) 0.94195(12) 0.4163(2)
C49 C 0.81123(18) 0.91553(13) 0.3592(2)
H28 H 0.7870 0.8876 0.3307
C50 C 0.86008(17) 0.93048(12) 0.3447(2)
H29 H 0.8682 0.9119 0.3077
C51 C 0.89741(16) 0.97266(11) 0.38419(19)
C52 C 0.88405(16) 0.99992(11) 0.4392(2)
C53 C 0.83514(16) 0.98440(12) 0.4555(2)
C54 C 0.95021(16) 0.98706(11) 0.37437(18)
O11 O 0.71185(17) 0.89099(12) 0.3912(3)
O12 O 0.73570(15) 0.94816(11) 0.49310(17)
Zn3 Zn 0.935675(15) 0.663605(21) 0.82006(2)
C57 C 0.99544(13) 0.70508(18) 0.6505(2)
N13 N 0.98187(16) 0.63281(21) 0.6824(2)
N14 N 0.99302(17) 0.74674(21) 0.6506(3)
H36 H 0.9773 0.7518 0.6921
N15 N 0.97263(11) 0.66849(15) 0.70921(18)
O14 O 0.87913(10) 0.59763(15) 0.82643(17)
O15 O 0.94922(10) 0.73127(13) 0.82037(16)
N17 N 0.97342(15) 0.65868(10) 0.92342(18)
N6_2 N 0.68558(20) 0.02817(26) 0.2791(2)
N8_2 N 0.70052(21) 0.01572(26) 0.3491(2)
C56_2 C 0.62825(18) 0.95702(22) 0.3172(2)
N7_2 N 0.64009(15) 0.99201(19) 0.25675(18)
N9_2 N 0.58659(21) 0.91294(27) 0.3173(3)
H33_2 H 0.5652 0.9057 0.2759
H34_2 H 0.5815 0.8921 0.3588
N10_2 N 0.66484(15) 0.97080(19) 0.37588(18)
Zn3_2 Zn 0.336395(21) 0.272069(26) 0.82006(2)
C57_2 C 0.29492(18) 0.29035(22) 0.6505(2)
N11_2 N 0.35225(20) 0.36150(26) 0.6124(2)
N13_2 N 0.36719(21) 0.34905(26) 0.6824(2)
N14_2 N 0.25326(21) 0.24627(27) 0.6506(3)
H35_2 H 0.2319 0.2390 0.6092
H36_2 H 0.2482 0.2254 0.6921
N15_2 N 0.33151(15) 0.30413(19) 0.70921(18)
Zn7_2 Zn 0.602341(15) 0.996939(21) 0.15340(2)
O14_2 O 0.40237(15) 0.28149(18) 0.82643(17)
O15_2 O 0.26873(13) 0.21794(16) 0.82037(16)
N16_2 N 0.67466(10) 0.98141(18) 0.59008(18)
N17_2 N 0.34132(10) 0.31475(18) 0.92342(18)
Zn3_3 Zn 0.727931(26) 0.064325(15) 0.82006(2)
C57_3 C 0.70965(22) 0.00456(13) 0.6505(2)
N13_3 N 0.65095(26) 0.01813(16) 0.6824(2)
N14_3 N 0.75373(27) 0.00698(17) 0.6506(3)
H36_3 H 0.7746 0.0227 0.6921
N15_3 N 0.69587(19) 0.02737(11) 0.70921(18)
O14_3 O 0.71851(18) 0.12087(10) 0.82643(17)
O15_3 O 0.78206(16) 0.05078(10) 0.82037(16)
N17_3 N 0.68525(18) 0.02658(15) 0.92342(18)
N11_3 N 0.63850(26) 0.99074(16) 0.6124(2)
H35_3 H 0.7610 0.9928 0.6092
C9_2 C 0.01287(12) 0.04928(11) 0.88479(18)
H5_2 H 0.0216 0.0823 0.8842
C29_2 C 0.25705(17) 0.18469(12) 0.8791(2)
C30_2 C 0.20292(17) 0.14733(12) 0.8848(2)
C31_2 C 0.16825(16) 0.15716(11) 0.8475(2)
H18_2 H 0.1783 0.1875 0.8212
C32_2 C 0.11885(16) 0.12184(11) 0.8493(2)
H19_2 H 0.0959 0.1290 0.8250
C33_2 C 0.10258(16) 0.07524(11) 0.88725(18)
C34_2 C 0.13791(17) 0.06729(12) 0.9280(2)
H20_2 H 0.1280 0.0374 0.9564
C35_2 C 0.18710(17) 0.10249(12) 0.9272(2)
H21_2 H 0.2099 0.0962 0.9552
C36_2 C 0.05022(16) 0.03687(11) 0.88523(18)
O7_2 O 0.28727(13) 0.18227(10) 0.92888(17)
H13_2 H 0.0093 0.8217 0.8212
C23_2 C 0.00300(11) 0.88115(16) 0.8493(2)
H14_2 H 0.0332 0.9041 0.8250
C37_2 C 0.03642(16) 0.98713(12) 0.88479(18)
H22_2 H 0.0608 0.9784 0.8842
H36_4 H 0.6439 0.0852 0.0255
N15_4 N 0.63929(11) 0.00183(15) 0.04255(18)
O15_4 O 0.61588(10) 0.06461(13) 0.15371(16)
C1_2 C 0.81531(12) 0.07235(12) 0.8791(2)
C2_2 C 0.85267(12) 0.05558(12) 0.8848(2)
C3_2 C 0.84284(11) 0.01108(11) 0.8475(2)
C5_2 C 0.92476(11) 0.02733(11) 0.88725(18)
C6_2 C 0.93271(12) 0.07061(12) 0.9280(2)
H3_2 H 0.9626 0.0905 0.9564
C7_2 C 0.89751(12) 0.08460(12) 0.9272(2)
H4_2 H 0.9038 0.1136 0.9552
C8_2 C 0.96313(11) 0.01334(11) 0.88523(18)
C10_2 C 0.74170(13) 0.15317(13) 0.7665(2)
C11_2 C 0.72472(12) 0.18916(12) 0.7496(2)
C12_2 C 0.75114(13) 0.22903(13) 0.6925(2)
H6_2 H 0.7791 0.2327 0.6640
C13_2 C 0.73619(12) 0.26293(12) 0.6780(2)
H7_2 H 0.7548 0.2896 0.6410
C14_2 C 0.69401(11) 0.25808(11) 0.71752(19)
C15_2 C 0.66675(11) 0.21746(11) 0.7725(2)
H8_2 H 0.6379 0.2128 0.7984
C16_2 C 0.68227(12) 0.18407(11) 0.7888(2)
H9_2 H 0.6640 0.1576 0.8266
C17_2 C 0.67961(11) 0.29648(11) 0.70770(18)
C18_2 C 0.63019(11) 0.28419(11) 0.70714(19)
H10_2 H 0.6058 0.2512 0.7064
O1_2 O 0.77568(12) 0.15419(12) 0.7245(3)
O3_2 O 0.81773(10) 0.10499(9) 0.92888(17)
C38_2 C 0.84683(13) 0.58852(18) 0.7665(2)
C39_2 C 0.81084(12) 0.53555(17) 0.7496(2)
C40_2 C 0.77097(13) 0.52210(18) 0.6925(2)
H23_2 H 0.7673 0.5463 0.6640
C41_2 C 0.73707(12) 0.47325(17) 0.6780(2)
H24_2 H 0.7104 0.4651 0.6410
C42_2 C 0.74192(11) 0.43592(16) 0.71752(19)
C43_2 C 0.78254(11) 0.44928(16) 0.7725(2)
H25_2 H 0.7872 0.4250 0.7984
C44_2 C 0.81593(11) 0.49819(16) 0.7888(2)
H26_2 H 0.8424 0.5063 0.8266
C45_2 C 0.70352(11) 0.38312(16) 0.70770(18)
C46_2 C 0.71581(11) 0.34599(16) 0.70714(19)
H27_2 H 0.7488 0.3545 0.7064
O9_2 O 0.84581(12) 0.62148(17) 0.7245(3)
C47_2 C 0.41148(18) 0.25830(13) 0.7665(2)
C48_2 C 0.46445(17) 0.27528(12) 0.7496(2)
C49_2 C 0.47790(18) 0.24886(13) 0.6925(2)
H28_2 H 0.4537 0.2209 0.6640
C50_2 C 0.52675(17) 0.26381(12) 0.6780(2)
H29_2 H 0.5349 0.2452 0.6410
C51_2 C 0.56408(16) 0.30599(11) 0.71752(19)
C52_2 C 0.55072(16) 0.33325(11) 0.7725(2)
H30_2 H 0.5750 0.3621 0.7984
C53_2 C 0.50181(16) 0.31773(12) 0.7888(2)
H31_2 H 0.4937 0.3360 0.8266
C54_2 C 0.61688(16) 0.32039(11) 0.70770(18)
C55_2 C 0.65401(16) 0.36981(11) 0.70714(19)
H32_2 H 0.6455 0.3942 0.7064
O11_2 O 0.37852(17) 0.22432(12) 0.7245(3)
C57_4 C 0.66210(13) 0.03842(18) 0.9839(2)
N14_4 N 0.65968(17) 0.08008(21) 0.9840(3)
H35_4 H 0.6738 0.1015 0.9426
N13_4 N 0.64853(16) 0.96615(21) 0.0158(2)
O14_4 O 0.54579(10) 0.93097(15) 0.15977(17)
H1_2 H 0.8125 0.9907 0.8212
C4_2 C 0.87816(11) 0.99700(11) 0.8493(2)
H2_2 H 0.8710 0.9668 0.8250
C20_2 C 0.92765(12) 0.74295(17) 0.8791(2)
C21_2 C 0.94442(12) 0.79708(17) 0.8848(2)
C22_2 C 0.98892(11) 0.83175(16) 0.8475(2)
C24_2 C 0.97267(11) 0.89742(16) 0.88725(18)
C25_2 C 0.92939(12) 0.86209(17) 0.9280(2)
H15_2 H 0.9095 0.8720 0.9564
C26_2 C 0.91540(12) 0.81290(17) 0.9272(2)
H16_2 H 0.8864 0.7901 0.9552
C27_2 C 0.98666(11) 0.94978(16) 0.88523(18)
C28_2 C 0.95072(11) 0.96358(16) 0.88479(18)
H17_2 H 0.9177 0.9392 0.8842
O5_2 O 0.89501(9) 0.71273(13) 0.92888(17)
N11_4 N 0.67592(16) 0.98109(20) 0.9458(2)
N13_5 N 0.03385(21) 0.68239(26) 0.0158(2)
O14_5 O 0.06903(15) 0.61483(18) 0.15977(17)
N11_5 N 0.01891(20) 0.69484(26) 0.9458(2)
H36_5 H 0.9148 0.5588 0.0255
N15_5 N 0.99817(15) 0.63747(19) 0.04255(18)
O15_5 O 0.93539(13) 0.55128(16) 0.15371(16)
C57_5 C 0.96158(18) 0.62369(22) 0.9839(2)
N14_5 N 0.91992(21) 0.57961(27) 0.9840(3)
H35_5 H 0.8985 0.5724 0.9426
N13_6 N 0.31761(26) 0.35147(16) 0.0158(2)
H36_6 H 0.4412 0.3561 0.0255
N15_6 N 0.36253(19) 0.36071(11) 0.04255(18)
O14_6 O 0.38517(18) 0.45421(10) 0.15977(17)
O15_6 O 0.44872(16) 0.38412(10) 0.15371(16)
C57_6 C 0.37631(22) 0.33790(13) 0.9839(2)
N11_6 N 0.30516(26) 0.32408(16) 0.9458(2)
N14_6 N 0.42039(27) 0.34032(17) 0.9840(3)
H35_6 H 0.4276 0.3262 0.9426
C1_3 C 0.48197(12) 0.40569(12) 0.2125(2)
C2_3 C 0.51933(12) 0.38892(12) 0.2182(2)
C3_3 C 0.50950(11) 0.34442(11) 0.1809(2)
H1_3 H 0.4791 0.3241 0.1546
C4_3 C 0.54482(11) 0.33034(11) 0.1827(2)
H2_3 H 0.5376 0.3002 0.1584
C5_3 C 0.59142(11) 0.36067(11) 0.22059(18)
C6_3 C 0.59937(12) 0.40395(12) 0.2614(2)
H3_3 H 0.6292 0.4239 0.2898
C7_3 C 0.56417(12) 0.41794(12) 0.2606(2)
H4_3 H 0.5704 0.4470 0.2886
C8_3 C 0.62979(11) 0.34668(11) 0.21857(18)
C9_3 C 0.67953(12) 0.38262(11) 0.21813(18)
H5_3 H 0.6882 0.4157 0.2176
C10_3 C 0.40836(13) 0.48651(13) 0.0999(2)
C11_3 C 0.39138(12) 0.52250(12) 0.0830(2)
C12_3 C 0.41780(13) 0.56237(13) 0.0259(2)
C13_3 C 0.40285(12) 0.59627(12) 0.0114(2)
C14_3 C 0.36067(11) 0.59142(11) 0.05086(19)
C15_3 C 0.33341(11) 0.55080(11) 0.1059(2)
H8_3 H 0.3045 0.5462 0.1318
C16_3 C 0.34893(12) 0.51741(11) 0.1222(2)
H9_3 H 0.3306 0.4910 0.1600
C17_3 C 0.34627(11) 0.62982(11) 0.04104(18)
C18_3 C 0.29685(11) 0.61753(11) 0.04048(19)
H10_3 H 0.2724 0.5846 0.0398
O1_3 O 0.44234(12) 0.48753(12) 0.0579(3)
O3_3 O 0.48439(10) 0.43833(9) 0.26222(17)
C20_3 C 0.59431(12) 0.07629(17) 0.2125(2)
C21_3 C 0.61108(12) 0.13042(17) 0.2182(2)
C22_3 C 0.65558(11) 0.16509(16) 0.1809(2)
H13_3 H 0.6759 0.1551 0.1546
C23_3 C 0.66966(11) 0.21449(16) 0.1827(2)
H14_3 H 0.6998 0.2375 0.1584
C24_3 C 0.63933(11) 0.23076(16) 0.22059(18)
C25_3 C 0.59605(12) 0.19543(17) 0.2614(2)
H15_3 H 0.5761 0.2054 0.2898
C26_3 C 0.58206(12) 0.14624(17) 0.2606(2)
H16_3 H 0.5530 0.1235 0.2886
C27_3 C 0.65332(11) 0.28312(16) 0.21857(18)
C28_3 C 0.61738(11) 0.29692(16) 0.21813(18)
H17_3 H 0.5843 0.2726 0.2176
O5_3 O 0.56167(9) 0.04607(13) 0.26222(17)
C29_3 C 0.92371(17) 0.51803(12) 0.2125(2)
C30_3 C 0.86958(17) 0.48067(12) 0.2182(2)
C31_3 C 0.83491(16) 0.49050(11) 0.1809(2)
H18_3 H 0.8449 0.5209 0.1546
C32_3 C 0.78551(16) 0.45518(11) 0.1827(2)
H19_3 H 0.7625 0.4624 0.1584
C33_3 C 0.76924(16) 0.40858(11) 0.22059(18)
C34_3 C 0.80457(17) 0.40063(12) 0.2614(2)
H20_3 H 0.7946 0.3708 0.2898
C35_3 C 0.85376(17) 0.43583(12) 0.2606(2)
H21_3 H 0.8765 0.4296 0.2886
C36_3 C 0.71688(16) 0.37021(11) 0.21857(18)
C37_3 C 0.70308(16) 0.32047(12) 0.21813(18)
H22_3 H 0.7274 0.3118 0.2176
O7_3 O 0.95393(13) 0.51561(10) 0.26222(17)
C38_3 C 0.51349(13) 0.92186(18) 0.0999(2)
C39_3 C 0.47750(12) 0.86889(17) 0.0830(2)
C40_3 C 0.43763(13) 0.85544(18) 0.0259(2)
C41_3 C 0.40373(12) 0.80659(17) 0.0114(2)
C42_3 C 0.40858(11) 0.76926(16) 0.05086(19)
C43_3 C 0.44920(11) 0.78262(16) 0.1059(2)
H25_3 H 0.4538 0.7584 0.1318
C44_3 C 0.48259(11) 0.83153(16) 0.1222(2)
H26_3 H 0.5090 0.8397 0.1600
C45_3 C 0.37018(11) 0.71646(16) 0.04104(18)
C46_3 C 0.38247(11) 0.67933(16) 0.04048(19)
H27_3 H 0.4154 0.6879 0.0398
O9_3 O 0.51247(12) 0.95482(17) 0.0579(3)
C47_3 C 0.07814(18) 0.59164(13) 0.0999(2)
C48_3 C 0.13111(17) 0.60862(12) 0.0830(2)
C49_3 C 0.14456(18) 0.58220(13) 0.0259(2)
C50_3 C 0.19341(17) 0.59715(12) 0.0114(2)
C51_3 C 0.23074(16) 0.63933(11) 0.05086(19)
C52_3 C 0.21738(16) 0.66659(11) 0.1059(2)
H30_3 H 0.2416 0.6955 0.1318
C53_3 C 0.16847(16) 0.65107(12) 0.1222(2)
H31_3 H 0.1603 0.6694 0.1600
C54_3 C 0.28354(16) 0.65373(11) 0.04104(18)
C55_3 C 0.32067(16) 0.70315(11) 0.04048(19)
H32_3 H 0.3121 0.7276 0.0398
O11_3 O 0.04518(17) 0.55766(12) 0.0579(3)
H6_3 H 0.4457 0.5661 0.9974
H7_3 H 0.4214 0.6230 0.9744
H23_3 H 0.4339 0.8797 0.9974
H24_3 H 0.3770 0.7985 0.9744
H28_3 H 0.1203 0.5543 0.9974
H29_3 H 0.2015 0.5786 0.9744
H8_4 H 0.0288 0.1205 0.5349
H9_4 H 0.0027 0.1757 0.5067
C18_4 C 0.03648(11) 0.04914(11) 0.62619(19)
H10_4 H 0.0609 0.0821 0.6269
N1_2 N 0.02817(12) 0.34259(16) 0.7209(2)
N3_2 N 0.01572(13) 0.31520(16) 0.6509(2)
C47_4 C 0.25519(18) 0.07503(13) 0.5668(2)
C48_4 C 0.20222(17) 0.05805(12) 0.5837(2)
C49_4 C 0.18877(18) 0.08447(13) 0.6408(2)
H28_4 H 0.2130 0.1124 0.6693
C50_4 C 0.13992(17) 0.06952(12) 0.6553(2)
H29_4 H 0.1318 0.0881 0.6923
C51_4 C 0.10259(16) 0.02734(11) 0.61581(19)
C52_4 C 0.11595(16) 0.00008(11) 0.5608(2)
C53_4 C 0.16486(16) 0.01560(12) 0.5445(2)
C54_4 C 0.04979(16) 0.01294(11) 0.62563(18)
O11_4 O 0.28815(17) 0.10901(12) 0.6088(3)
O12_2 O 0.26430(15) 0.05184(11) 0.50690(17)
Zn3_4 Zn 0.064325(15) 0.336395(21) 0.17994(2)
C57_7 C 0.00456(13) 0.29492(18) 0.3495(2)
N13_7 N 0.01813(16) 0.36719(21) 0.3176(2)
N14_7 N 0.00698(17) 0.25326(21) 0.3494(3)
H36_7 H 0.0227 0.2482 0.3079
N15_7 N 0.02737(11) 0.33151(15) 0.29079(18)
Zn5 Zn 0.330272(21) 0.061264(15) 0.51327(2)
O14_7 O 0.12087(10) 0.40237(15) 0.17357(17)
O15_7 O 0.05078(10) 0.26873(13) 0.17963(16)
N17_4 N 0.02658(15) 0.34132(10) 0.07658(18)
H30_4 H 0.0917 0.9712 0.5349
H31_4 H 0.1730 0.9973 0.5067
C55_4 C 0.01266(16) 0.96352(11) 0.62619(19)
H32_4 H 0.0212 0.9391 0.6269
Zn1_2 Zn 0.938736(15) 0.269008(15) 0.51327(2)
C1_4 C 0.85136(12) 0.26098(12) 0.4542(2)
C2_4 C 0.81400(12) 0.27775(12) 0.4485(2)
C3_4 C 0.82383(11) 0.32225(11) 0.4858(2)
H1_4 H 0.8542 0.3426 0.5121
C4_4 C 0.78851(11) 0.33633(11) 0.4840(2)
H2_4 H 0.7957 0.3665 0.5083
C5_4 C 0.74191(11) 0.30600(11) 0.44608(18)
C6_4 C 0.73396(12) 0.26272(12) 0.4053(2)
H3_4 H 0.7041 0.2428 0.3769
C7_4 C 0.76916(12) 0.24873(12) 0.4061(2)
H4_4 H 0.7629 0.2197 0.3781
C8_4 C 0.70354(11) 0.31999(11) 0.44810(18)
C9_4 C 0.65380(12) 0.28405(11) 0.44854(18)
H5_4 H 0.6451 0.2510 0.4491
C10_4 C 0.92497(13) 0.18016(13) 0.5668(2)
C11_4 C 0.94195(12) 0.14417(12) 0.5837(2)
C12_4 C 0.91553(13) 0.10430(13) 0.6408(2)
H6_4 H 0.8876 0.1006 0.6693
C13_4 C 0.93048(12) 0.07040(12) 0.6553(2)
H7_4 H 0.9119 0.0437 0.6923
C14_4 C 0.97266(11) 0.07525(11) 0.61581(19)
C15_4 C 0.99992(11) 0.11587(11) 0.5608(2)
C16_4 C 0.98440(12) 0.14926(11) 0.5445(2)
C17_4 C 0.98706(11) 0.03685(11) 0.62563(18)
C19_2 C 0.95702(12) 0.32877(13) 0.6828(2)
O1_4 O 0.89099(12) 0.17914(12) 0.6088(3)
O2_2 O 0.94816(11) 0.21246(10) 0.50690(17)
O3_4 O 0.84894(10) 0.22834(9) 0.40445(17)
O4_2 O 0.88461(9) 0.28255(10) 0.51296(16)
N2_2 N 0.99201(10) 0.35192(11) 0.74325(18)
N4_2 N 0.91294(13) 0.32635(17) 0.6827(3)
H11_2 H 0.9057 0.3405 0.7241
H12_2 H 0.8921 0.3106 0.6412
N5_2 N 0.97080(10) 0.30596(11) 0.62412(18)
C20_4 C 0.73902(12) 0.59038(17) 0.4542(2)
C21_4 C 0.72225(12) 0.53625(17) 0.4485(2)
C22_4 C 0.67775(11) 0.50158(16) 0.4858(2)
H13_4 H 0.6574 0.5116 0.5121
C23_4 C 0.66367(11) 0.45218(16) 0.4840(2)
H14_4 H 0.6335 0.4292 0.5083
C24_4 C 0.69400(11) 0.43591(16) 0.44608(18)
C25_4 C 0.73728(12) 0.47124(17) 0.4053(2)
H15_4 H 0.7572 0.4613 0.3769
C26_4 C 0.75127(12) 0.52043(17) 0.4061(2)
H16_4 H 0.7803 0.5432 0.3781
C27_4 C 0.68001(11) 0.38355(16) 0.44810(18)
C28_4 C 0.71595(11) 0.36975(16) 0.44854(18)
H17_4 H 0.7490 0.3941 0.4491
O5_4 O 0.77166(9) 0.62060(13) 0.40445(17)
O6_2 O 0.71745(10) 0.60206(13) 0.51296(16)
C29_4 C 0.40962(17) 0.14864(12) 0.4542(2)
C30_4 C 0.46375(17) 0.18600(12) 0.4485(2)
C31_4 C 0.49842(16) 0.17617(11) 0.4858(2)
H18_4 H 0.4884 0.1458 0.5121
C32_4 C 0.54782(16) 0.21149(11) 0.4840(2)
H19_4 H 0.5708 0.2043 0.5083
C33_4 C 0.56409(16) 0.25809(11) 0.44608(18)
C34_4 C 0.52876(17) 0.26604(12) 0.4053(2)
H20_4 H 0.5387 0.2959 0.3769
C35_4 C 0.47957(17) 0.23084(12) 0.4061(2)
H21_4 H 0.4568 0.2371 0.3781
C36_4 C 0.61645(16) 0.29646(11) 0.44810(18)
C37_4 C 0.63025(16) 0.34620(12) 0.44854(18)
H22_4 H 0.6059 0.3549 0.4491
O7_4 O 0.37940(13) 0.15106(10) 0.40445(17)
O8_2 O 0.39794(13) 0.11539(9) 0.51296(16)
Zn2 Zn 0.730992(15) 0.669728(21) 0.51327(2)
C56_3 C 0.67123(13) 0.62825(18) 0.6828(2)
N6_3 N 0.65741(16) 0.68558(20) 0.7209(2)
N7_3 N 0.64808(11) 0.64009(15) 0.74325(18)
N8_3 N 0.68480(16) 0.70052(21) 0.6509(2)
N9_3 N 0.67365(17) 0.58659(21) 0.6827(3)
H33_3 H 0.6595 0.5652 0.7241
H34_3 H 0.6894 0.5815 0.6412
N10_3 N 0.69404(11) 0.66484(15) 0.62412(18)
N11_7 N 0.99074(16) 0.35225(20) 0.3876(2)
N12_2 N 0.98141(11) 0.30676(15) 0.40992(18)
H35_7 H 0.9928 0.2319 0.3908
Zn7_3 Zn 0.605403(15) 0.602341(15) 0.84660(2)
Zn8_2 Zn 0.996939(21) 0.394597(15) 0.84660(2)
O13 O 0.78754(10) 0.73570(15) 0.50690(17)
N16_3 N 0.69324(15) 0.67466(10) 0.40992(18)
C38_4 C 0.81984(13) 0.74481(18) 0.5668(2)
C39_4 C 0.85583(12) 0.79778(17) 0.5837(2)
C40_4 C 0.89570(13) 0.81123(18) 0.6408(2)
H23_4 H 0.8994 0.7870 0.6693
C41_4 C 0.92960(12) 0.86008(17) 0.6553(2)
H24_4 H 0.9563 0.8682 0.6923
C42_4 C 0.92475(11) 0.89741(16) 0.61581(19)
C43_4 C 0.88413(11) 0.88405(16) 0.5608(2)
H25_4 H 0.8795 0.9083 0.5349
C44_4 C 0.85074(11) 0.83514(16) 0.5445(2)
H26_4 H 0.8243 0.8270 0.5067
C45_4 C 0.96315(11) 0.95021(16) 0.62563(18)
C46_4 C 0.95086(11) 0.98734(16) 0.62619(19)
H27_4 H 0.9179 0.9788 0.6269
O9_4 O 0.82086(12) 0.71185(17) 0.6088(3)
C56_4 C 0.37175(18) 0.04298(22) 0.6828(2)
N7_4 N 0.35991(15) 0.00799(19) 0.74325(18)
N9_4 N 0.41341(21) 0.08706(27) 0.6827(3)
H33_4 H 0.4348 0.0943 0.7241
H34_4 H 0.4185 0.1079 0.6412
N10_4 N 0.33516(15) 0.02920(19) 0.62412(18)
Zn3_5 Zn 0.663605(21) 0.727931(26) 0.17994(2)
C57_8 C 0.70508(18) 0.70965(22) 0.3495(2)
N11_8 N 0.64775(20) 0.63850(26) 0.3876(2)
N13_8 N 0.63281(21) 0.65095(26) 0.3176(2)
N14_8 N 0.74674(21) 0.75373(27) 0.3494(3)
H35_8 H 0.7681 0.7610 0.3908
H36_8 H 0.7518 0.7746 0.3079
N15_8 N 0.66849(15) 0.69587(19) 0.29079(18)
Zn7_4 Zn 0.397659(15) 0.003061(21) 0.84660(2)
O14_8 O 0.59763(15) 0.71851(18) 0.17357(17)
O15_8 O 0.73127(13) 0.78206(16) 0.17963(16)
N16_4 N 0.32534(10) 0.01859(18) 0.40992(18)
N17_5 N 0.65868(10) 0.68525(18) 0.07658(18)
N6_4 N 0.31442(20) 0.97183(26) 0.7209(2)
N8_4 N 0.29948(21) 0.98428(26) 0.6509(2)
N11_9 N 0.36150(26) 0.00926(16) 0.3876(2)
H35_9 H 0.2390 0.0072 0.3908
Zn3_6 Zn 0.272069(26) 0.935675(15) 0.17994(2)
C57_9 C 0.29035(22) 0.99544(13) 0.3495(2)
N13_9 N 0.34905(26) 0.98187(16) 0.3176(2)
N14_9 N 0.24627(27) 0.99302(17) 0.3494(3)
H36_9 H 0.2254 0.9773 0.3079
N15_9 N 0.30413(19) 0.97263(11) 0.29079(18)
O14_9 O 0.28149(18) 0.87913(10) 0.17357(17)
O15_9 O 0.21794(16) 0.94922(10) 0.17963(16)
N17_6 N 0.31475(18) 0.97342(15) 0.07658(18)
H1_5 H 0.1875 0.0093 0.1788
C4_5 C 0.12184(11) 0.00300(11) 0.1507(2)
H2_5 H 0.1290 0.0332 0.1750
C20_5 C 0.07235(12) 0.25705(17) 0.1209(2)
C21_5 C 0.05558(12) 0.20292(17) 0.1152(2)
C22_5 C 0.01108(11) 0.16825(16) 0.1525(2)
C24_5 C 0.02733(11) 0.10258(16) 0.11275(18)
C25_5 C 0.07061(12) 0.13791(17) 0.0720(2)
H15_5 H 0.0905 0.1280 0.0436
C26_5 C 0.08460(12) 0.18710(17) 0.0728(2)
H16_5 H 0.1136 0.2099 0.0448
C27_5 C 0.01334(11) 0.05022(16) 0.11477(18)
C28_5 C 0.04928(11) 0.03642(16) 0.11521(18)
H17_5 H 0.0823 0.0608 0.1158
O5_5 O 0.10499(9) 0.28727(13) 0.07112(17)
N11_10 N 0.32408(16) 0.01891(20) 0.0542(2)
N13_10 N 0.35147(16) 0.03385(21) 0.9842(2)
O14_10 O 0.45421(10) 0.06903(15) 0.84023(17)
C1_5 C 0.18469(12) 0.92765(12) 0.1209(2)
C2_5 C 0.14733(12) 0.94442(12) 0.1152(2)
C3_5 C 0.15716(11) 0.98892(11) 0.1525(2)
C5_5 C 0.07524(11) 0.97267(11) 0.11275(18)
C6_5 C 0.06729(12) 0.92939(12) 0.0720(2)
H3_5 H 0.0374 0.9095 0.0436
C7_5 C 0.10249(12) 0.91540(12) 0.0728(2)
H4_5 H 0.0962 0.8864 0.0448
C8_5 C 0.03687(11) 0.98666(11) 0.11477(18)
C10_5 C 0.25830(13) 0.84683(13) 0.2335(2)
C11_5 C 0.27528(12) 0.81084(12) 0.2504(2)
C12_5 C 0.24886(13) 0.77097(13) 0.3075(2)
H6_5 H 0.2209 0.7673 0.3360
C13_5 C 0.26381(12) 0.73707(12) 0.3220(2)
H7_5 H 0.2452 0.7104 0.3590
C14_5 C 0.30599(11) 0.74192(11) 0.28248(19)
C15_5 C 0.33325(11) 0.78254(11) 0.2275(2)
H8_5 H 0.3621 0.7872 0.2016
C16_5 C 0.31773(12) 0.81593(11) 0.2112(2)
H9_5 H 0.3360 0.8424 0.1734
C17_5 C 0.32039(11) 0.70352(11) 0.29230(18)
C18_5 C 0.36981(11) 0.71581(11) 0.29286(19)
H10_5 H 0.3942 0.7488 0.2936
O1_5 O 0.22432(12) 0.84581(12) 0.2755(3)
O3_5 O 0.18227(10) 0.89501(9) 0.07112(17)
C38_5 C 0.15317(13) 0.41148(18) 0.2335(2)
C39_5 C 0.18916(12) 0.46445(17) 0.2504(2)
C40_5 C 0.22903(13) 0.47790(18) 0.3075(2)
H23_5 H 0.2327 0.4537 0.3360
C41_5 C 0.26293(12) 0.52675(17) 0.3220(2)
H24_5 H 0.2896 0.5349 0.3590
C42_5 C 0.25808(11) 0.56408(16) 0.28248(19)
C43_5 C 0.21746(11) 0.55072(16) 0.2275(2)
H25_5 H 0.2128 0.5750 0.2016
C44_5 C 0.18407(11) 0.50181(16) 0.2112(2)
H26_5 H 0.1576 0.4937 0.1734
C45_5 C 0.29648(11) 0.61688(16) 0.29230(18)
C46_5 C 0.28419(11) 0.65401(16) 0.29286(19)
H27_5 H 0.2512 0.6455 0.2936
O9_5 O 0.15419(12) 0.37852(17) 0.2755(3)
C47_5 C 0.58852(18) 0.74170(13) 0.2335(2)
C48_5 C 0.53555(17) 0.72472(12) 0.2504(2)
C49_5 C 0.52210(18) 0.75114(13) 0.3075(2)
H28_5 H 0.5463 0.7791 0.3360
C50_5 C 0.47325(17) 0.73619(12) 0.3220(2)
H29_5 H 0.4651 0.7548 0.3590
C51_5 C 0.43592(16) 0.69401(11) 0.28248(19)
C52_5 C 0.44928(16) 0.66675(11) 0.2275(2)
H30_5 H 0.4250 0.6379 0.2016
C53_5 C 0.49819(16) 0.68227(12) 0.2112(2)
H31_5 H 0.5063 0.6640 0.1734
C54_5 C 0.38312(16) 0.67961(11) 0.29230(18)
C55_5 C 0.34599(16) 0.63019(11) 0.29286(19)
H32_5 H 0.3545 0.6058 0.2936
O11_5 O 0.62148(17) 0.77568(12) 0.2755(3)
C57_10 C 0.33790(13) 0.96158(18) 0.0161(2)
N14_10 N 0.34032(17) 0.91992(21) 0.0160(3)
H35_10 H 0.3262 0.8985 0.0574
H36_10 H 0.3561 0.9148 0.9745
N15_10 N 0.36071(11) 0.99817(15) 0.95745(18)
O15_10 O 0.38412(10) 0.93539(13) 0.84629(16)
H13_5 H 0.9907 0.1783 0.1788
C23_5 C 0.99700(11) 0.11885(16) 0.1507(2)
H14_5 H 0.9668 0.0959 0.1750
C37_5 C 0.96358(16) 0.01287(12) 0.11521(18)
H22_5 H 0.9392 0.0216 0.1158
C9_5 C 0.98713(12) 0.95072(11) 0.11521(18)
H5_5 H 0.9784 0.9177 0.1158
C29_5 C 0.74295(17) 0.81531(12) 0.1209(2)
C30_5 C 0.79708(17) 0.85267(12) 0.1152(2)
C31_5 C 0.83175(16) 0.84284(11) 0.1525(2)
H18_5 H 0.8217 0.8125 0.1788
C32_5 C 0.88115(16) 0.87816(11) 0.1507(2)
H19_5 H 0.9041 0.8710 0.1750
C33_5 C 0.89742(16) 0.92476(11) 0.11275(18)
C34_5 C 0.86209(17) 0.93271(12) 0.0720(2)
H20_5 H 0.8720 0.9626 0.0436
C35_5 C 0.81290(17) 0.89751(12) 0.0728(2)
H21_5 H 0.7901 0.9038 0.0448
C36_5 C 0.94978(16) 0.96313(11) 0.11477(18)
O7_5 O 0.71273(13) 0.81773(10) 0.07112(17)
C57_11 C 0.03842(18) 0.37631(22) 0.0161(2)
N14_11 N 0.08008(21) 0.42039(27) 0.0160(3)
H35_11 H 0.1015 0.4276 0.0574
H36_11 H 0.0852 0.4412 0.9745
N15_11 N 0.00183(15) 0.36253(19) 0.95745(18)
O15_11 O 0.06461(13) 0.44872(16) 0.84629(16)
N11_11 N 0.98109(20) 0.30516(26) 0.0542(2)
N13_11 N 0.96615(21) 0.31761(26) 0.9842(2)
O14_11 O 0.93097(15) 0.38517(18) 0.84023(17)
C57_12 C 0.62369(22) 0.66210(13) 0.0161(2)
N11_12 N 0.69484(26) 0.67592(16) 0.0542(2)
N14_12 N 0.57961(27) 0.65968(17) 0.0160(3)
H35_12 H 0.5724 0.6738 0.0574
N13_12 N 0.68239(26) 0.64853(16) 0.9842(2)
H36_12 H 0.5588 0.6439 0.9745
N15_12 N 0.63747(19) 0.63929(11) 0.95745(18)
O14_12 O 0.61483(18) 0.54579(10) 0.84023(17)
O15_12 O 0.55128(16) 0.61588(10) 0.84629(16)
H6_6 H 0.5543 0.4339 0.0026
H7_6 H 0.5786 0.3770 0.0256
H23_6 H 0.5661 0.1203 0.0026
H24_6 H 0.6230 0.2015 0.0256
H28_6 H 0.8797 0.4457 0.0026
H29_6 H 0.7985 0.4214 0.0256
C1_6 C 0.51803(12) 0.59431(12) 0.7875(2)
C2_6 C 0.48067(12) 0.61108(12) 0.7818(2)
C3_6 C 0.49050(11) 0.65558(11) 0.8191(2)
H1_6 H 0.5209 0.6759 0.8454
C4_6 C 0.45518(11) 0.66966(11) 0.8173(2)
H2_6 H 0.4624 0.6998 0.8416
C5_6 C 0.40858(11) 0.63933(11) 0.77941(18)
C6_6 C 0.40063(12) 0.59605(12) 0.7386(2)
H3_6 H 0.3708 0.5761 0.7102
C7_6 C 0.43583(12) 0.58206(12) 0.7394(2)
H4_6 H 0.4296 0.5530 0.7114
C8_6 C 0.37021(11) 0.65332(11) 0.78143(18)
C9_6 C 0.32047(12) 0.61738(11) 0.78187(18)
H5_6 H 0.3118 0.5843 0.7824
C10_6 C 0.59164(13) 0.51349(13) 0.9001(2)
C11_6 C 0.60862(12) 0.47750(12) 0.9170(2)
C12_6 C 0.58220(13) 0.43763(13) 0.9741(2)
C13_6 C 0.59715(12) 0.40373(12) 0.9886(2)
C14_6 C 0.63933(11) 0.40858(11) 0.94914(19)
C15_6 C 0.66659(11) 0.44920(11) 0.8941(2)
H8_6 H 0.6955 0.4538 0.8682
C16_6 C 0.65107(12) 0.48259(11) 0.8778(2)
H9_6 H 0.6694 0.5090 0.8400
C17_6 C 0.65373(11) 0.37018(11) 0.95896(18)
C18_6 C 0.70315(11) 0.38247(11) 0.95952(19)
H10_6 H 0.7276 0.4154 0.9602
O1_6 O 0.55766(12) 0.51247(12) 0.9421(3)
O3_6 O 0.51561(10) 0.56167(9) 0.73778(17)
C20_6 C 0.40569(12) 0.92371(17) 0.7875(2)
C21_6 C 0.38892(12) 0.86958(17) 0.7818(2)
C22_6 C 0.34442(11) 0.83491(16) 0.8191(2)
H13_6 H 0.3241 0.8449 0.8454
C23_6 C 0.33034(11) 0.78551(16) 0.8173(2)
H14_6 H 0.3002 0.7625 0.8416
C24_6 C 0.36067(11) 0.76924(16) 0.77941(18)
C25_6 C 0.40395(12) 0.80457(17) 0.7386(2)
H15_6 H 0.4239 0.7946 0.7102
C26_6 C 0.41794(12) 0.85376(17) 0.7394(2)
H16_6 H 0.4470 0.8765 0.7114
C27_6 C 0.34668(11) 0.71688(16) 0.78143(18)
C28_6 C 0.38262(11) 0.70308(16) 0.78187(18)
H17_6 H 0.4157 0.7274 0.7824
O5_6 O 0.43833(9) 0.95393(13) 0.73778(17)
C29_6 C 0.07629(17) 0.48197(12) 0.7875(2)
C30_6 C 0.13042(17) 0.51933(12) 0.7818(2)
C31_6 C 0.16509(16) 0.50950(11) 0.8191(2)
H18_6 H 0.1551 0.4791 0.8454
C32_6 C 0.21449(16) 0.54482(11) 0.8173(2)
H19_6 H 0.2375 0.5376 0.8416
C33_6 C 0.23076(16) 0.59142(11) 0.77941(18)
C34_6 C 0.19543(17) 0.59937(12) 0.7386(2)
H20_6 H 0.2054 0.6292 0.7102
C35_6 C 0.14624(17) 0.56417(12) 0.7394(2)
H21_6 H 0.1235 0.5704 0.7114
C36_6 C 0.28312(16) 0.62979(11) 0.78143(18)
C37_6 C 0.29692(16) 0.67953(12) 0.78187(18)
H22_6 H 0.2726 0.6882 0.7824
O7_6 O 0.04607(13) 0.48439(10) 0.73778(17)
C38_6 C 0.48651(13) 0.07814(18) 0.9001(2)
C39_6 C 0.52250(12) 0.13111(17) 0.9170(2)
C40_6 C 0.56237(13) 0.14456(18) 0.9741(2)
C41_6 C 0.59627(12) 0.19341(17) 0.9886(2)
C42_6 C 0.59142(11) 0.23074(16) 0.94914(19)
C43_6 C 0.55080(11) 0.21738(16) 0.8941(2)
H25_6 H 0.5462 0.2416 0.8682
C44_6 C 0.51741(11) 0.16847(16) 0.8778(2)
H26_6 H 0.4910 0.1603 0.8400
C45_6 C 0.62982(11) 0.28354(16) 0.95896(18)
C46_6 C 0.61753(11) 0.32067(16) 0.95952(19)
H27_6 H 0.5846 0.3121 0.9602
O9_6 O 0.48753(12) 0.04518(17) 0.9421(3)
C47_6 C 0.92186(18) 0.40836(13) 0.9001(2)
C48_6 C 0.86889(17) 0.39138(12) 0.9170(2)
C49_6 C 0.85544(18) 0.41780(13) 0.9741(2)
C50_6 C 0.80659(17) 0.40285(12) 0.9886(2)
C51_6 C 0.76926(16) 0.36067(11) 0.94914(19)
C52_6 C 0.78262(16) 0.33341(11) 0.8941(2)
H30_6 H 0.7584 0.3045 0.8682
C53_6 C 0.83153(16) 0.34893(12) 0.8778(2)
H31_6 H 0.8397 0.3306 0.8400
C54_6 C 0.71646(16) 0.34627(11) 0.95896(18)
C55_6 C 0.67933(16) 0.29685(11) 0.95952(19)
H32_6 H 0.6879 0.2724 0.9602
O11_6 O 0.95482(17) 0.44234(12) 0.9421(3)
C59 C 0.0080(3) 0.5551(3) 0.8464(5)
H40 H 0.0428 0.5677 0.8522
H42 H 0.0015 0.5818 0.8470
H43 H 0.0068 0.5478 0.7147
C58 C 0.9388(2) 0.5064(3) 0.7432(6)
H37 H 0.9306 0.4893 0.6874
H38 H 0.9307 0.5321 0.7412
H39 H 0.9205 0.4837 0.7900
H41 H 0.9912 0.5333 0.8951
N18 N 0.99014(15) 0.52718(16) 0.7596(3)
H44 H 0.9974 0.5028 0.7592
C58_2 C 0.4936(3) 0.4324(4) 0.7432(6)
H37_2 H 0.5107 0.4413 0.6874
H38_2 H 0.4679 0.3986 0.7412
H39_2 H 0.5163 0.4368 0.7900
C59_2 C 0.4449(3) 0.4529(4) 0.8464(5)
H40_2 H 0.4323 0.4751 0.8522
H41_2 H 0.4667 0.4579 0.8951
H42_2 H 0.4182 0.4197 0.8470
N18_2 N 0.47282(16) 0.46296(22) 0.7596(3)
H43_2 H 0.4522 0.4590 0.7147
H44_2 H 0.4972 0.4946 0.7592
C58_3 C 0.5676(4) 0.0612(2) 0.7432(6)
H37_3 H 0.5587 0.0694 0.6874
H38_3 H 0.6014 0.0693 0.7412
H39_3 H 0.5632 0.0795 0.7900
H41_3 H 0.5421 0.0088 0.8951
N18_3 N 0.53704(22) 0.00986(15) 0.7596(3)
H44_3 H 0.5054 0.0026 0.7592
C59_3 C 0.5471(4) 0.9920(3) 0.8464(5)
H40_3 H 0.5249 0.9572 0.8522
H42_3 H 0.5803 0.9985 0.8470
H43_3 H 0.5410 0.9932 0.7147
C58_4 C 0.6055(2) 0.8397(3) 0.0765(6)
H37_4 H 0.5973 0.8226 0.0207
H38_4 H 0.5974 0.8654 0.0745
H39_4 H 0.5872 0.8170 0.1233
C59_4 C 0.6747(3) 0.8884(3) 0.1797(5)
H40_4 H 0.7095 0.9010 0.1855
H41_4 H 0.6579 0.8666 0.2284
H42_4 H 0.6682 0.9151 0.1803
N18_4 N 0.65681(15) 0.86051(16) 0.0929(3)
H43_4 H 0.6735 0.8811 0.0480
H44_4 H 0.6641 0.8361 0.0925
C58_5 C 0.1603(3) 0.7657(4) 0.0765(6)
H37_5 H 0.1774 0.7746 0.0207
H38_5 H 0.1346 0.7319 0.0745
H39_5 H 0.1830 0.7701 0.1233
C59_5 C 0.1116(3) 0.7862(4) 0.1797(5)
H40_5 H 0.0990 0.8084 0.1855
H41_5 H 0.1334 0.7912 0.2284
H42_5 H 0.0849 0.7530 0.1803
N18_5 N 0.13949(16) 0.79629(22) 0.0929(3)
H43_5 H 0.1189 0.7923 0.0480
H44_5 H 0.1639 0.8279 0.0925
C58_6 C 0.2343(4) 0.3945(2) 0.0765(6)
H37_6 H 0.2254 0.4027 0.0207
H38_6 H 0.2681 0.4026 0.0745
H39_6 H 0.2299 0.4128 0.1233
C59_6 C 0.2138(4) 0.3253(3) 0.1797(5)
H40_6 H 0.1916 0.2905 0.1855
H41_6 H 0.2088 0.3421 0.2284
H42_6 H 0.2470 0.3318 0.1803
N18_6 N 0.20371(22) 0.34319(15) 0.0929(3)
H43_6 H 0.2077 0.3265 0.0480
H44_6 H 0.1721 0.3359 0.0925
C58_7 C 0.2721(2) 0.1731(3) 0.4099(6)
H37_7 H 0.2639 0.1560 0.3541
H38_7 H 0.2640 0.1988 0.4079
H39_7 H 0.2538 0.1504 0.4567
C59_7 C 0.3413(3) 0.2218(3) 0.5131(5)
H40_7 H 0.3761 0.2344 0.5189
H41_7 H 0.3245 0.2000 0.5618
H42_7 H 0.3348 0.2485 0.5137
N18_7 N 0.32347(15) 0.19385(16) 0.4263(3)
H43_7 H 0.3401 0.2145 0.3814
H44_7 H 0.3307 0.1695 0.4259
C58_8 C 0.8269(3) 0.0991(4) 0.4099(6)
H37_8 H 0.8440 0.1080 0.3541
H38_8 H 0.8012 0.0653 0.4079
H39_8 H 0.8496 0.1035 0.4567
C59_8 C 0.7782(3) 0.1196(4) 0.5131(5)
H40_8 H 0.7656 0.1418 0.5189
H41_8 H 0.8000 0.1246 0.5618
H42_8 H 0.7515 0.0864 0.5137
N18_8 N 0.80615(16) 0.12963(22) 0.4263(3)
H43_8 H 0.7855 0.1257 0.3814
H44_8 H 0.8305 0.1613 0.4259
C58_9 C 0.9009(4) 0.7279(2) 0.4099(6)
H37_9 H 0.8920 0.7361 0.3541
H38_9 H 0.9347 0.7360 0.4079
H39_9 H 0.8965 0.7462 0.4567
C59_9 C 0.8804(4) 0.6587(3) 0.5131(5)
H40_9 H 0.8582 0.6239 0.5189
H41_9 H 0.8754 0.6755 0.5618
H42_9 H 0.9136 0.6652 0.5137
N18_9 N 0.87037(22) 0.67653(15) 0.4263(3)
H43_9 H 0.8743 0.6599 0.3814
H44_9 H 0.8387 0.6693 0.4259
C58_10 C 0.0612(2) 0.4936(3) 0.2568(6)
H37_10 H 0.0694 0.5107 0.3126
H38_10 H 0.0693 0.4679 0.2588
H39_10 H 0.0795 0.5163 0.2100
H41_10 H 0.0088 0.4667 0.1049
N18_10 N 0.00986(15) 0.47282(16) 0.2404(3)
H44_10 H 0.0026 0.4972 0.2408
C59_10 C 0.9920(3) 0.4449(3) 0.1536(5)
H40_10 H 0.9572 0.4323 0.1478
H42_10 H 0.9985 0.4182 0.1530
H43_10 H 0.9932 0.4522 0.2853
C58_11 C 0.5064(3) 0.5676(4) 0.2568(6)
H37_11 H 0.4893 0.5587 0.3126
H38_11 H 0.5321 0.6014 0.2588
H39_11 H 0.4837 0.5632 0.2100
C59_11 C 0.5551(3) 0.5471(4) 0.1536(5)
H40_11 H 0.5677 0.5249 0.1478
H41_11 H 0.5333 0.5421 0.1049
H42_11 H 0.5818 0.5803 0.1530
N18_11 N 0.52718(16) 0.53704(22) 0.2404(3)
H43_11 H 0.5478 0.5410 0.2853
H44_11 H 0.5028 0.5054 0.2408
C59_12 C 0.4529(4) 0.0080(3) 0.1536(5)
H40_12 H 0.4751 0.0428 0.1478
H42_12 H 0.4197 0.0015 0.1530
H43_12 H 0.4590 0.0068 0.2853
C58_12 C 0.4324(4) 0.9388(2) 0.2568(6)
H37_12 H 0.4413 0.9306 0.3126
H38_12 H 0.3986 0.9307 0.2588
H39_12 H 0.4368 0.9205 0.2100
H41_12 H 0.4579 0.9912 0.1049
N18_12 N 0.46296(22) 0.99014(15) 0.2404(3)
H44_12 H 0.4946 0.9974 0.2408
C58_13 C 0.3945(2) 0.1603(3) 0.9235(6)
H37_13 H 0.4027 0.1774 0.9793
H38_13 H 0.4026 0.1346 0.9255
H39_13 H 0.4128 0.1830 0.8767
C59_13 C 0.3253(3) 0.1116(3) 0.8203(5)
H40_13 H 0.2905 0.0990 0.8145
H41_13 H 0.3421 0.1334 0.7716
H42_13 H 0.3318 0.0849 0.8197
N18_13 N 0.34319(15) 0.13949(16) 0.9071(3)
H43_13 H 0.3265 0.1189 0.9520
H44_13 H 0.3359 0.1639 0.9075
C58_14 C 0.8397(3) 0.2343(4) 0.9235(6)
H37_14 H 0.8226 0.2254 0.9793
H38_14 H 0.8654 0.2681 0.9255
H39_14 H 0.8170 0.2299 0.8767
C59_14 C 0.8884(3) 0.2138(4) 0.8203(5)
H40_14 H 0.9010 0.1916 0.8145
H41_14 H 0.8666 0.2088 0.7716
H42_14 H 0.9151 0.2470 0.8197
N18_14 N 0.86051(16) 0.20371(22) 0.9071(3)
H43_14 H 0.8811 0.2077 0.9520
H44_14 H 0.8361 0.1721 0.9075
C58_15 C 0.7657(4) 0.6055(2) 0.9235(6)
H37_15 H 0.7746 0.5973 0.9793
H38_15 H 0.7319 0.5974 0.9255
H39_15 H 0.7701 0.5872 0.8767
C59_15 C 0.7862(4) 0.6747(3) 0.8203(5)
H40_15 H 0.8084 0.7095 0.8145
H41_15 H 0.7912 0.6579 0.7716
H42_15 H 0.7530 0.6682 0.8197
N18_15 N 0.79629(22) 0.65681(15) 0.9071(3)
H43_15 H 0.7923 0.6735 0.9520
H44_15 H 0.8279 0.6641 0.9075
C58_16 C 0.7279(2) 0.8269(3) 0.5901(6)
H37_16 H 0.7361 0.8440 0.6459
H38_16 H 0.7360 0.8012 0.5921
H39_16 H 0.7462 0.8496 0.5433
C59_16 C 0.6587(3) 0.7782(3) 0.4869(5)
H40_16 H 0.6239 0.7656 0.4811
H41_16 H 0.6755 0.8000 0.4382
H42_16 H 0.6652 0.7515 0.4863
N18_16 N 0.67653(15) 0.80615(16) 0.5737(3)
H43_16 H 0.6599 0.7855 0.6186
H44_16 H 0.6693 0.8305 0.5741
C58_17 C 0.1731(3) 0.9009(4) 0.5901(6)
H37_17 H 0.1560 0.8920 0.6459
H38_17 H 0.1988 0.9347 0.5921
H39_17 H 0.1504 0.8965 0.5433
C59_17 C 0.2218(3) 0.8804(4) 0.4869(5)
H40_17 H 0.2344 0.8582 0.4811
H41_17 H 0.2000 0.8754 0.4382
H42_17 H 0.2485 0.9136 0.4863
N18_17 N 0.19385(16) 0.87037(22) 0.5737(3)
H43_17 H 0.2145 0.8743 0.6186
H44_17 H 0.1695 0.8387 0.5741
C58_18 C 0.0991(4) 0.2721(2) 0.5901(6)
H37_18 H 0.1080 0.2639 0.6459
H38_18 H 0.0653 0.2640 0.5921
H39_18 H 0.1035 0.2538 0.5433
C59_18 C 0.1196(4) 0.3413(3) 0.4869(5)
H40_18 H 0.1418 0.3761 0.4811
H41_18 H 0.1246 0.3245 0.4382
H42_18 H 0.0864 0.3348 0.4863
N18_18 N 0.12963(22) 0.32347(15) 0.5737(3)
H43_18 H 0.1257 0.3401 0.6186
H44_18 H 0.1613 0.3307 0.5741
loop_
_geom_bond_atom_site_label_1
_geom_bond_atom_site_label_2
_geom_bond_site_symmetry_1
_geom_bond_site_symmetry_2
C38 C39 1_555 1_555
C39 C40 1_555 1_555
C40 H23 1_555 1_555
C41 C40 1_555 1_555
H24 C41 1_555 1_555
C42 C41 1_555 1_555
C43 C42 1_555 1_555
H25 C43 1_555 1_555
C44 C39 1_555 1_555
H26 C44 1_555 1_555
C45 C42 1_555 1_555
H27 C46 1_555 1_555
O9 C38 1_555 1_555
O10 C38 1_555 1_555
Zn4 O10 1_555 1_555
C43 C44 1_555 1_555
C45 C46 1_555 1_555
Zn1 O2 1_555 1_555
C1 C2 1_555 1_555
C2 C3 1_555 1_555
C3 H1 1_555 1_555
C4 C3 1_555 1_555
H2 C4 1_555 1_555
C5 C4 1_555 1_555
C6 C5 1_555 1_555
H3 C6 1_555 1_555
C7 C2 1_555 1_555
H4 C7 1_555 1_555
C8 C5 1_555 1_555
C9 C8 1_555 1_555
H5 C9 1_555 1_555
C10 C11 1_555 1_555
C11 C12 1_555 1_555
C12 H6 1_555 1_555
C13 C12 1_555 1_555
H7 C13 1_555 1_555
C14 C13 1_555 1_555
C15 C14 1_555 1_555
C16 C11 1_555 1_555
C17 C14 1_555 1_555
C19 N2 1_555 1_555
O1 C10 1_555 1_555
O2 C10 1_555 1_555
O3 C1 1_555 1_555
O4 Zn1 1_555 1_555
N2 Zn8 1_555 1_555
N4 C19 1_555 1_555
H11 N4 1_555 1_555
H12 N4 1_555 1_555
N5 Zn1 1_555 1_555
C20 C21 1_555 1_555
C21 C22 1_555 1_555
C22 H13 1_555 1_555
C23 C22 1_555 1_555
H14 C23 1_555 1_555
C24 C23 1_555 1_555
C25 C24 1_555 1_555
H15 C25 1_555 1_555
C26 C21 1_555 1_555
H16 C26 1_555 1_555
C27 C24 1_555 1_555
C28 C8 1_555 1_555
H17 C28 1_555 1_555
O5 C20 1_555 1_555
O6 C20 1_555 1_555
C29 C30 1_555 1_555
C30 C31 1_555 1_555
C31 H18 1_555 1_555
C32 C31 1_555 1_555
H19 C32 1_555 1_555
C33 C32 1_555 1_555
C34 C33 1_555 1_555
H20 C34 1_555 1_555
C35 C30 1_555 1_555
H21 C35 1_555 1_555
C36 C9 1_555 1_555
C37 C27 1_555 1_555
H22 C37 1_555 1_555
O7 C29 1_555 1_555
O8 C29 1_555 1_555
Zn4 O6 1_555 1_555
C56 N7 1_555 1_555
N6 N7 1_555 1_555
N7 Zn7 1_555 1_555
N8 N6 1_555 1_555
N9 C56 1_555 1_555
H33 N9 1_555 1_555
H34 N9 1_555 1_555
N10 Zn4 1_555 1_555
N11 N12 1_555 1_555
N12 Zn1 1_555 1_555
Zn6 O8 1_555 1_555
N16 Zn4 1_555 1_555
C1 O4 1_555 1_555
C6 C7 1_555 1_555
C15 C16 1_555 1_555
C19 N5 1_555 1_555
C25 C26 1_555 1_555
C27 C28 1_555 1_555
C33 C36 1_555 1_555
C34 C35 1_555 1_555
C36 C37 1_555 1_555
C56 N10 1_555 1_555
N8 N10 1_555 1_555
H32 C55 1_555 1_555
H10 C18 1_555 1_555
N3 N1 1_555 1_555
C47 C48 1_555 1_555
C48 C49 1_555 1_555
C49 H28 1_555 1_555
C50 C49 1_555 1_555
H29 C50 1_555 1_555
C51 C50 1_555 1_555
C52 C51 1_555 1_555
C53 C48 1_555 1_555
C54 C18 1_555 1_555
O11 C47 1_555 1_555
O12 C47 1_555 1_555
Zn3 N15 1_555 1_555
N14 C57 1_555 1_555
H36 N14 1_555 1_555
N15 C57 1_555 1_555
Zn6 O12 1_555 1_555
O14 Zn3 1_555 1_555
O15 Zn3 1_555 1_555
N17 Zn3 1_555 1_555
C51 C54 1_555 1_555
C52 C53 1_555 1_555
N13 N15 1_555 1_555
N8_2 N6_2 1_555 1_555
C56_2 N7_2 1_555 1_555
N7_2 Zn7_2 1_555 1_555
N9_2 C56_2 1_555 1_555
H33_2 N9_2 1_555 1_555
H34_2 N9_2 1_555 1_555
N10_2 Zn6 1_555 1_555
Zn3_2 N15_2 1_555 1_555
C57_2 N16 1_555 1_555
N11_2 N16 1_555 1_555
N13_2 N11_2 1_555 1_555
N14_2 C57_2 1_555 1_555
H35_2 N14_2 1_555 1_555
H36_2 N14_2 1_555 1_555
N15_2 C57_2 1_555 1_555
O14_2 Zn3_2 1_555 1_555
O15_2 Zn3_2 1_555 1_555
N16_2 Zn6 1_555 1_555
N17_2 Zn3_2 1_555 1_555
C56_2 N10_2 1_555 1_555
N13_2 N15_2 1_555 1_555
Zn3_3 N15_3 1_555 1_555
N14_3 C57_3 1_555 1_555
H36_3 N14_3 1_555 1_555
N15_3 C57_3 1_555 1_555
O14_3 Zn3_3 1_555 1_555
O15_3 Zn3_3 1_555 1_555
N17_3 Zn3_3 1_555 1_555
N13_3 N15_3 1_555 1_555
N11_3 N16_2 1_555 1_555
H5_2 C9_2 1_555 1_555
C29_2 C30_2 1_555 1_555
C30_2 C31_2 1_555 1_555
C31_2 H18_2 1_555 1_555
C32_2 C31_2 1_555 1_555
H19_2 C32_2 1_555 1_555
C33_2 C32_2 1_555 1_555
C34_2 C33_2 1_555 1_555
H20_2 C34_2 1_555 1_555
C35_2 C30_2 1_555 1_555
H21_2 C35_2 1_555 1_555
C36_2 C9_2 1_555 1_555
O7_2 C29_2 1_555 1_555
O15_2 C29_2 1_555 1_555
C33_2 C36_2 1_555 1_555
C34_2 C35_2 1_555 1_555
H14_2 C23_2 1_555 1_555
H22_2 C37_2 1_555 1_555
C1_2 C2_2 1_555 1_555
C2_2 C3_2 1_555 1_555
C6_2 C5_2 1_555 1_555
H3_2 C6_2 1_555 1_555
C7_2 C2_2 1_555 1_555
H4_2 C7_2 1_555 1_555
C8_2 C5_2 1_555 1_555
C10_2 C11_2 1_555 1_555
C11_2 C12_2 1_555 1_555
C12_2 H6_2 1_555 1_555
C13_2 C12_2 1_555 1_555
H7_2 C13_2 1_555 1_555
C14_2 C13_2 1_555 1_555
C15_2 C14_2 1_555 1_555
H8_2 C15_2 1_555 1_555
C16_2 C11_2 1_555 1_555
H9_2 C16_2 1_555 1_555
C17_2 C14_2 1_555 1_555
C18_2 C17_2 1_555 1_555
H10_2 C18_2 1_555 1_555
O1_2 C10_2 1_555 1_555
O14_3 C10_2 1_555 1_555
O3_2 C1_2 1_555 1_555
C38_2 C39_2 1_555 1_555
C39_2 C40_2 1_555 1_555
C40_2 H23_2 1_555 1_555
C41_2 C40_2 1_555 1_555
H24_2 C41_2 1_555 1_555
C42_2 C41_2 1_555 1_555
C43_2 C42_2 1_555 1_555
H25_2 C43_2 1_555 1_555
C44_2 C39_2 1_555 1_555
H26_2 C44_2 1_555 1_555
C45_2 C42_2 1_555 1_555
C46_2 C17_2 1_555 1_555
H27_2 C46_2 1_555 1_555
O9_2 C38_2 1_555 1_555
O14 C38_2 1_555 1_555
C47_2 C48_2 1_555 1_555
C48_2 C49_2 1_555 1_555
C49_2 H28_2 1_555 1_555
C50_2 C49_2 1_555 1_555
H29_2 C50_2 1_555 1_555
C51_2 C50_2 1_555 1_555
C52_2 C51_2 1_555 1_555
H30_2 C52_2 1_555 1_555
C53_2 C48_2 1_555 1_555
H31_2 C53_2 1_555 1_555
C54_2 C18_2 1_555 1_555
C55_2 C45_2 1_555 1_555
H32_2 C55_2 1_555 1_555
O11_2 C47_2 1_555 1_555
O14_2 C47_2 1_555 1_555
C57_4 N17_3 1_555 1_555
N14_4 C57_4 1_555 1_555
H35_4 N14_4 1_555 1_555
C1_2 O15_3 1_555 1_555
C6_2 C7_2 1_555 1_555
C15_2 C16_2 1_555 1_555
C43_2 C44_2 1_555 1_555
C45_2 C46_2 1_555 1_555
C51_2 C54_2 1_555 1_555
C52_2 C53_2 1_555 1_555
C54_2 C55_2 1_555 1_555
O14_4 Zn7_2 1_555 1_555
H2_2 C4_2 1_555 1_555
C20_2 C21_2 1_555 1_555
C21_2 C22_2 1_555 1_555
C25_2 C24_2 1_555 1_555
H15_2 C25_2 1_555 1_555
C26_2 C21_2 1_555 1_555
H16_2 C26_2 1_555 1_555
C27_2 C24_2 1_555 1_555
H17_2 C28_2 1_555 1_555
O5_2 C20_2 1_555 1_555
O15 C20_2 1_555 1_555
C25_2 C26_2 1_555 1_555
C27_2 C28_2 1_555 1_555
O14_5 Zn8 1_555 1_555
C57_5 N17 1_555 1_555
N14_5 C57_5 1_555 1_555
H35_5 N14_5 1_555 1_555
Zn7 N15_6 1_555 1_555
O14_6 Zn7 1_555 1_555
O15_6 Zn7 1_555 1_555
N13_6 N15_6 1_555 1_555
C57_6 N17_2 1_555 1_555
N11_6 N17_2 1_555 1_555
N14_6 C57_6 1_555 1_555
H35_6 N14_6 1_555 1_555
C1_3 C2_3 1_555 1_555
C2_3 C3_3 1_555 1_555
C3_3 H1_3 1_555 1_555
C4_3 C3_3 1_555 1_555
H2_3 C4_3 1_555 1_555
C5_3 C4_3 1_555 1_555
C6_3 C5_3 1_555 1_555
H3_3 C6_3 1_555 1_555
C7_3 C2_3 1_555 1_555
H4_3 C7_3 1_555 1_555
C8_3 C5_3 1_555 1_555
C9_3 C8_3 1_555 1_555
H5_3 C9_3 1_555 1_555
C10_3 C11_3 1_555 1_555
C11_3 C12_3 1_555 1_555
C13_3 C12_3 1_555 1_555
C14_3 C13_3 1_555 1_555
C15_3 C14_3 1_555 1_555
H8_3 C15_3 1_555 1_555
C16_3 C11_3 1_555 1_555
H9_3 C16_3 1_555 1_555
C17_3 C14_3 1_555 1_555
C18_3 C17_3 1_555 1_555
H10_3 C18_3 1_555 1_555
O1_3 C10_3 1_555 1_555
O14_6 C10_3 1_555 1_555
O3_3 C1_3 1_555 1_555
C20_3 C21_3 1_555 1_555
C21_3 C22_3 1_555 1_555
C22_3 H13_3 1_555 1_555
C23_3 C22_3 1_555 1_555
H14_3 C23_3 1_555 1_555
C24_3 C23_3 1_555 1_555
C25_3 C24_3 1_555 1_555
H15_3 C25_3 1_555 1_555
C26_3 C21_3 1_555 1_555
H16_3 C26_3 1_555 1_555
C27_3 C24_3 1_555 1_555
C28_3 C8_3 1_555 1_555
H17_3 C28_3 1_555 1_555
O5_3 C20_3 1_555 1_555
O15_4 C20_3 1_555 1_555
C29_3 C30_3 1_555 1_555
C30_3 C31_3 1_555 1_555
C31_3 H18_3 1_555 1_555
C32_3 C31_3 1_555 1_555
H19_3 C32_3 1_555 1_555
C33_3 C32_3 1_555 1_555
C34_3 C33_3 1_555 1_555
H20_3 C34_3 1_555 1_555
C35_3 C30_3 1_555 1_555
H21_3 C35_3 1_555 1_555
C36_3 C9_3 1_555 1_555
C37_3 C27_3 1_555 1_555
H22_3 C37_3 1_555 1_555
O7_3 C29_3 1_555 1_555
O15_5 C29_3 1_555 1_555
C38_3 C39_3 1_555 1_555
C39_3 C40_3 1_555 1_555
C41_3 C40_3 1_555 1_555
C42_3 C41_3 1_555 1_555
C43_3 C42_3 1_555 1_555
H25_3 C43_3 1_555 1_555
C44_3 C39_3 1_555 1_555
H26_3 C44_3 1_555 1_555
C45_3 C42_3 1_555 1_555
C46_3 C17_3 1_555 1_555
H27_3 C46_3 1_555 1_555
O9_3 C38_3 1_555 1_555
O14_4 C38_3 1_555 1_555
C47_3 C48_3 1_555 1_555
C48_3 C49_3 1_555 1_555
C50_3 C49_3 1_555 1_555
C51_3 C50_3 1_555 1_555
C52_3 C51_3 1_555 1_555
H30_3 C52_3 1_555 1_555
C53_3 C48_3 1_555 1_555
H31_3 C53_3 1_555 1_555
C54_3 C18_3 1_555 1_555
C55_3 C45_3 1_555 1_555
H32_3 C55_3 1_555 1_555
O11_3 C47_3 1_555 1_555
O14_5 C47_3 1_555 1_555
C1_3 O15_6 1_555 1_555
C6_3 C7_3 1_555 1_555
C15_3 C16_3 1_555 1_555
C25_3 C26_3 1_555 1_555
C27_3 C28_3 1_555 1_555
C33_3 C36_3 1_555 1_555
C34_3 C35_3 1_555 1_555
C36_3 C37_3 1_555 1_555
C43_3 C44_3 1_555 1_555
C45_3 C46_3 1_555 1_555
C51_3 C54_3 1_555 1_555
C52_3 C53_3 1_555 1_555
C54_3 C55_3 1_555 1_555
H10_4 C18_4 1_555 1_555
N3_2 N1_2 1_555 1_555
C47_4 C48_4 1_555 1_555
C48_4 C49_4 1_555 1_555
C49_4 H28_4 1_555 1_555
C50_4 C49_4 1_555 1_555
H29_4 C50_4 1_555 1_555
C51_4 C50_4 1_555 1_555
C52_4 C51_4 1_555 1_555
C53_4 C48_4 1_555 1_555
C54_4 C18_4 1_555 1_555
O11_4 C47_4 1_555 1_555
O12_2 C47_4 1_555 1_555
Zn3_4 N15_7 1_555 1_555
N14_7 C57_7 1_555 1_555
H36_7 N14_7 1_555 1_555
N15_7 C57_7 1_555 1_555
Zn5 O12_2 1_555 1_555
O14_7 Zn3_4 1_555 1_555
O15_7 Zn3_4 1_555 1_555
N17_4 Zn3_4 1_555 1_555
C51_4 C54_4 1_555 1_555
C52_4 C53_4 1_555 1_555
N13_7 N15_7 1_555 1_555
H32_4 C55_4 1_555 1_555
Zn1_2 O2_2 1_555 1_555
C1_4 C2_4 1_555 1_555
C2_4 C3_4 1_555 1_555
C3_4 H1_4 1_555 1_555
C4_4 C3_4 1_555 1_555
H2_4 C4_4 1_555 1_555
C5_4 C4_4 1_555 1_555
C6_4 C5_4 1_555 1_555
H3_4 C6_4 1_555 1_555
C7_4 C2_4 1_555 1_555
H4_4 C7_4 1_555 1_555
C8_4 C5_4 1_555 1_555
C9_4 C8_4 1_555 1_555
H5_4 C9_4 1_555 1_555
C10_4 C11_4 1_555 1_555
C11_4 C12_4 1_555 1_555
C12_4 H6_4 1_555 1_555
C13_4 C12_4 1_555 1_555
H7_4 C13_4 1_555 1_555
C14_4 C13_4 1_555 1_555
C15_4 C14_4 1_555 1_555
C16_4 C11_4 1_555 1_555
C17_4 C14_4 1_555 1_555
C19_2 N2_2 1_555 1_555
O1_4 C10_4 1_555 1_555
O2_2 C10_4 1_555 1_555
O3_4 C1_4 1_555 1_555
O4_2 Zn1_2 1_555 1_555
N2_2 Zn8_2 1_555 1_555
N4_2 C19_2 1_555 1_555
H11_2 N4_2 1_555 1_555
H12_2 N4_2 1_555 1_555
N5_2 Zn1_2 1_555 1_555
C20_4 C21_4 1_555 1_555
C21_4 C22_4 1_555 1_555
C22_4 H13_4 1_555 1_555
C23_4 C22_4 1_555 1_555
H14_4 C23_4 1_555 1_555
C24_4 C23_4 1_555 1_555
C25_4 C24_4 1_555 1_555
H15_4 C25_4 1_555 1_555
C26_4 C21_4 1_555 1_555
H16_4 C26_4 1_555 1_555
C27_4 C24_4 1_555 1_555
C28_4 C8_4 1_555 1_555
H17_4 C28_4 1_555 1_555
O5_4 C20_4 1_555 1_555
O6_2 C20_4 1_555 1_555
C29_4 C30_4 1_555 1_555
C30_4 C31_4 1_555 1_555
C31_4 H18_4 1_555 1_555
C32_4 C31_4 1_555 1_555
H19_4 C32_4 1_555 1_555
C33_4 C32_4 1_555 1_555
C34_4 C33_4 1_555 1_555
H20_4 C34_4 1_555 1_555
C35_4 C30_4 1_555 1_555
H21_4 C35_4 1_555 1_555
C36_4 C9_4 1_555 1_555
C37_4 C27_4 1_555 1_555
H22_4 C37_4 1_555 1_555
O7_4 C29_4 1_555 1_555
O8_2 C29_4 1_555 1_555
Zn2 O6_2 1_555 1_555
C56_3 N7_3 1_555 1_555
N6_3 N7_3 1_555 1_555
N7_3 Zn7_3 1_555 1_555
N8_3 N6_3 1_555 1_555
N9_3 C56_3 1_555 1_555
H33_3 N9_3 1_555 1_555
H34_3 N9_3 1_555 1_555
N10_3 Zn2 1_555 1_555
N11_7 N12_2 1_555 1_555
N12_2 Zn1_2 1_555 1_555
Zn5 O8_2 1_555 1_555
O13 Zn2 1_555 1_555
N16_3 Zn2 1_555 1_555
C1_4 O4_2 1_555 1_555
C6_4 C7_4 1_555 1_555
C15_4 C16_4 1_555 1_555
C19_2 N5_2 1_555 1_555
C25_4 C26_4 1_555 1_555
C27_4 C28_4 1_555 1_555
C33_4 C36_4 1_555 1_555
C34_4 C35_4 1_555 1_555
C36_4 C37_4 1_555 1_555
C56_3 N10_3 1_555 1_555
N8_3 N10_3 1_555 1_555
C38_4 C39_4 1_555 1_555
C39_4 C40_4 1_555 1_555
C40_4 H23_4 1_555 1_555
C41_4 C40_4 1_555 1_555
H24_4 C41_4 1_555 1_555
C42_4 C41_4 1_555 1_555
C43_4 C42_4 1_555 1_555
H25_4 C43_4 1_555 1_555
C44_4 C39_4 1_555 1_555
H26_4 C44_4 1_555 1_555
C45_4 C42_4 1_555 1_555
H27_4 C46_4 1_555 1_555
O9_4 C38_4 1_555 1_555
O13 C38_4 1_555 1_555
C43_4 C44_4 1_555 1_555
C45_4 C46_4 1_555 1_555
C56_4 N7_4 1_555 1_555
N7_4 Zn7_4 1_555 1_555
N9_4 C56_4 1_555 1_555
H33_4 N9_4 1_555 1_555
H34_4 N9_4 1_555 1_555
N10_4 Zn5 1_555 1_555
Zn3_5 N15_8 1_555 1_555
C57_8 N16_3 1_555 1_555
N11_8 N16_3 1_555 1_555
N13_8 N11_8 1_555 1_555
N14_8 C57_8 1_555 1_555
H35_8 N14_8 1_555 1_555
H36_8 N14_8 1_555 1_555
N15_8 C57_8 1_555 1_555
O14_8 Zn3_5 1_555 1_555
O15_8 Zn3_5 1_555 1_555
N16_4 Zn5 1_555 1_555
N17_5 Zn3_5 1_555 1_555
C56_4 N10_4 1_555 1_555
N13_8 N15_8 1_555 1_555
N8_4 N6_4 1_555 1_555
N11_9 N16_4 1_555 1_555
Zn3_6 N15_9 1_555 1_555
N14_9 C57_9 1_555 1_555
H36_9 N14_9 1_555 1_555
N15_9 C57_9 1_555 1_555
O14_9 Zn3_6 1_555 1_555
O15_9 Zn3_6 1_555 1_555
N17_6 Zn3_6 1_555 1_555
N13_9 N15_9 1_555 1_555
H2_5 C4_5 1_555 1_555
C20_5 C21_5 1_555 1_555
C21_5 C22_5 1_555 1_555
C25_5 C24_5 1_555 1_555
H15_5 C25_5 1_555 1_555
C26_5 C21_5 1_555 1_555
H16_5 C26_5 1_555 1_555
C27_5 C24_5 1_555 1_555
H17_5 C28_5 1_555 1_555
O5_5 C20_5 1_555 1_555
O15_7 C20_5 1_555 1_555
C25_5 C26_5 1_555 1_555
C27_5 C28_5 1_555 1_555
O14_10 Zn7_4 1_555 1_555
C1_5 C2_5 1_555 1_555
C2_5 C3_5 1_555 1_555
C6_5 C5_5 1_555 1_555
H3_5 C6_5 1_555 1_555
C7_5 C2_5 1_555 1_555
H4_5 C7_5 1_555 1_555
C8_5 C5_5 1_555 1_555
C10_5 C11_5 1_555 1_555
C11_5 C12_5 1_555 1_555
C12_5 H6_5 1_555 1_555
C13_5 C12_5 1_555 1_555
H7_5 C13_5 1_555 1_555
C14_5 C13_5 1_555 1_555
C15_5 C14_5 1_555 1_555
H8_5 C15_5 1_555 1_555
C16_5 C11_5 1_555 1_555
H9_5 C16_5 1_555 1_555
C17_5 C14_5 1_555 1_555
C18_5 C17_5 1_555 1_555
H10_5 C18_5 1_555 1_555
O1_5 C10_5 1_555 1_555
O14_9 C10_5 1_555 1_555
O3_5 C1_5 1_555 1_555
C38_5 C39_5 1_555 1_555
C39_5 C40_5 1_555 1_555
C40_5 H23_5 1_555 1_555
C41_5 C40_5 1_555 1_555
H24_5 C41_5 1_555 1_555
C42_5 C41_5 1_555 1_555
C43_5 C42_5 1_555 1_555
H25_5 C43_5 1_555 1_555
C44_5 C39_5 1_555 1_555
H26_5 C44_5 1_555 1_555
C45_5 C42_5 1_555 1_555
C46_5 C17_5 1_555 1_555
H27_5 C46_5 1_555 1_555
O9_5 C38_5 1_555 1_555
O14_7 C38_5 1_555 1_555
C47_5 C48_5 1_555 1_555
C48_5 C49_5 1_555 1_555
C49_5 H28_5 1_555 1_555
C50_5 C49_5 1_555 1_555
H29_5 C50_5 1_555 1_555
C51_5 C50_5 1_555 1_555
C52_5 C51_5 1_555 1_555
H30_5 C52_5 1_555 1_555
C53_5 C48_5 1_555 1_555
H31_5 C53_5 1_555 1_555
C54_5 C18_5 1_555 1_555
C55_5 C45_5 1_555 1_555
H32_5 C55_5 1_555 1_555
O11_5 C47_5 1_555 1_555
O14_8 C47_5 1_555 1_555
C57_10 N17_6 1_555 1_555
N14_10 C57_10 1_555 1_555
H35_10 N14_10 1_555 1_555
C1_5 O15_9 1_555 1_555
C6_5 C7_5 1_555 1_555
C15_5 C16_5 1_555 1_555
C43_5 C44_5 1_555 1_555
C45_5 C46_5 1_555 1_555
C51_5 C54_5 1_555 1_555
C52_5 C53_5 1_555 1_555
C54_5 C55_5 1_555 1_555
H14_5 C23_5 1_555 1_555
H22_5 C37_5 1_555 1_555
H5_5 C9_5 1_555 1_555
C29_5 C30_5 1_555 1_555
C30_5 C31_5 1_555 1_555
C31_5 H18_5 1_555 1_555
C32_5 C31_5 1_555 1_555
H19_5 C32_5 1_555 1_555
C33_5 C32_5 1_555 1_555
C34_5 C33_5 1_555 1_555
H20_5 C34_5 1_555 1_555
C35_5 C30_5 1_555 1_555
H21_5 C35_5 1_555 1_555
C36_5 C9_5 1_555 1_555
O7_5 C29_5 1_555 1_555
O15_8 C29_5 1_555 1_555
C33_5 C36_5 1_555 1_555
C34_5 C35_5 1_555 1_555
C57_11 N17_4 1_555 1_555
N14_11 C57_11 1_555 1_555
H35_11 N14_11 1_555 1_555
O14_11 Zn8_2 1_555 1_555
C57_12 N17_5 1_555 1_555
N11_12 N17_5 1_555 1_555
N14_12 C57_12 1_555 1_555
H35_12 N14_12 1_555 1_555
Zn7_3 N15_12 1_555 1_555
O14_12 Zn7_3 1_555 1_555
O15_12 Zn7_3 1_555 1_555
N13_12 N15_12 1_555 1_555
C1_6 C2_6 1_555 1_555
C2_6 C3_6 1_555 1_555
C3_6 H1_6 1_555 1_555
C4_6 C3_6 1_555 1_555
H2_6 C4_6 1_555 1_555
C5_6 C4_6 1_555 1_555
C6_6 C5_6 1_555 1_555
H3_6 C6_6 1_555 1_555
C7_6 C2_6 1_555 1_555
H4_6 C7_6 1_555 1_555
C8_6 C5_6 1_555 1_555
C9_6 C8_6 1_555 1_555
H5_6 C9_6 1_555 1_555
C10_6 C11_6 1_555 1_555
C11_6 C12_6 1_555 1_555
C13_6 C12_6 1_555 1_555
C14_6 C13_6 1_555 1_555
C15_6 C14_6 1_555 1_555
H8_6 C15_6 1_555 1_555
C16_6 C11_6 1_555 1_555
H9_6 C16_6 1_555 1_555
C17_6 C14_6 1_555 1_555
C18_6 C17_6 1_555 1_555
H10_6 C18_6 1_555 1_555
O1_6 C10_6 1_555 1_555
O14_12 C10_6 1_555 1_555
O3_6 C1_6 1_555 1_555
C20_6 C21_6 1_555 1_555
C21_6 C22_6 1_555 1_555
C22_6 H13_6 1_555 1_555
C23_6 C22_6 1_555 1_555
H14_6 C23_6 1_555 1_555
C24_6 C23_6 1_555 1_555
C25_6 C24_6 1_555 1_555
H15_6 C25_6 1_555 1_555
C26_6 C21_6 1_555 1_555
H16_6 C26_6 1_555 1_555
C27_6 C24_6 1_555 1_555
C28_6 C8_6 1_555 1_555
H17_6 C28_6 1_555 1_555
O5_6 C20_6 1_555 1_555
O15_10 C20_6 1_555 1_555
C29_6 C30_6 1_555 1_555
C30_6 C31_6 1_555 1_555
C31_6 H18_6 1_555 1_555
C32_6 C31_6 1_555 1_555
H19_6 C32_6 1_555 1_555
C33_6 C32_6 1_555 1_555
C34_6 C33_6 1_555 1_555
H20_6 C34_6 1_555 1_555
C35_6 C30_6 1_555 1_555
H21_6 C35_6 1_555 1_555
C36_6 C9_6 1_555 1_555
C37_6 C27_6 1_555 1_555
H22_6 C37_6 1_555 1_555
O7_6 C29_6 1_555 1_555
O15_11 C29_6 1_555 1_555
C38_6 C39_6 1_555 1_555
C39_6 C40_6 1_555 1_555
C41_6 C40_6 1_555 1_555
C42_6 C41_6 1_555 1_555
C43_6 C42_6 1_555 1_555
H25_6 C43_6 1_555 1_555
C44_6 C39_6 1_555 1_555
H26_6 C44_6 1_555 1_555
C45_6 C42_6 1_555 1_555
C46_6 C17_6 1_555 1_555
H27_6 C46_6 1_555 1_555
O9_6 C38_6 1_555 1_555
O14_10 C38_6 1_555 1_555
C47_6 C48_6 1_555 1_555
C48_6 C49_6 1_555 1_555
C50_6 C49_6 1_555 1_555
C51_6 C50_6 1_555 1_555
C52_6 C51_6 1_555 1_555
H30_6 C52_6 1_555 1_555
C53_6 C48_6 1_555 1_555
H31_6 C53_6 1_555 1_555
C54_6 C18_6 1_555 1_555
C55_6 C45_6 1_555 1_555
H32_6 C55_6 1_555 1_555
O11_6 C47_6 1_555 1_555
O14_11 C47_6 1_555 1_555
C1_6 O15_12 1_555 1_555
C6_6 C7_6 1_555 1_555
C15_6 C16_6 1_555 1_555
C25_6 C26_6 1_555 1_555
C27_6 C28_6 1_555 1_555
C33_6 C36_6 1_555 1_555
C34_6 C35_6 1_555 1_555
C36_6 C37_6 1_555 1_555
C43_6 C44_6 1_555 1_555
C45_6 C46_6 1_555 1_555
C51_6 C54_6 1_555 1_555
C52_6 C53_6 1_555 1_555
C54_6 C55_6 1_555 1_555
C59 H40 1_555 1_555
H42 C59 1_555 1_555
C58 H37 1_555 1_555
H38 C58 1_555 1_555
H39 C58 1_555 1_555
N18 C58 1_555 1_555
H44 N18 1_555 1_555
C58_2 H37_2 1_555 1_555
H38_2 C58_2 1_555 1_555
H39_2 C58_2 1_555 1_555
C59_2 H40_2 1_555 1_555
H41_2 C59_2 1_555 1_555
H42_2 C59_2 1_555 1_555
N18_2 C58_2 1_555 1_555
H43_2 N18_2 1_555 1_555
H44_2 N18_2 1_555 1_555
C59_2 N18_2 1_555 1_555
C58_3 H37_3 1_555 1_555
H38_3 C58_3 1_555 1_555
H39_3 C58_3 1_555 1_555
N18_3 C58_3 1_555 1_555
H44_3 N18_3 1_555 1_555
C59_3 H40_3 1_555 1_555
H42_3 C59_3 1_555 1_555
C58_4 H37_4 1_555 1_555
H38_4 C58_4 1_555 1_555
H39_4 C58_4 1_555 1_555
C59_4 H40_4 1_555 1_555
H41_4 C59_4 1_555 1_555
H42_4 C59_4 1_555 1_555
N18_4 C58_4 1_555 1_555
H43_4 N18_4 1_555 1_555
H44_4 N18_4 1_555 1_555
C59_4 N18_4 1_555 1_555
C58_5 H37_5 1_555 1_555
H38_5 C58_5 1_555 1_555
H39_5 C58_5 1_555 1_555
C59_5 H40_5 1_555 1_555
H41_5 C59_5 1_555 1_555
H42_5 C59_5 1_555 1_555
N18_5 C58_5 1_555 1_555
H43_5 N18_5 1_555 1_555
H44_5 N18_5 1_555 1_555
C59_5 N18_5 1_555 1_555
C58_6 H37_6 1_555 1_555
H38_6 C58_6 1_555 1_555
H39_6 C58_6 1_555 1_555
C59_6 H40_6 1_555 1_555
H41_6 C59_6 1_555 1_555
H42_6 C59_6 1_555 1_555
N18_6 C58_6 1_555 1_555
H43_6 N18_6 1_555 1_555
H44_6 N18_6 1_555 1_555
C59_6 N18_6 1_555 1_555
C58_7 H37_7 1_555 1_555
H38_7 C58_7 1_555 1_555
H39_7 C58_7 1_555 1_555
C59_7 H40_7 1_555 1_555
H41_7 C59_7 1_555 1_555
H42_7 C59_7 1_555 1_555
N18_7 C58_7 1_555 1_555
H43_7 N18_7 1_555 1_555
H44_7 N18_7 1_555 1_555
C59_7 N18_7 1_555 1_555
C58_8 H37_8 1_555 1_555
H38_8 C58_8 1_555 1_555
H39_8 C58_8 1_555 1_555
C59_8 H40_8 1_555 1_555
H41_8 C59_8 1_555 1_555
H42_8 C59_8 1_555 1_555
N18_8 C58_8 1_555 1_555
H43_8 N18_8 1_555 1_555
H44_8 N18_8 1_555 1_555
C59_8 N18_8 1_555 1_555
C58_9 H37_9 1_555 1_555
H38_9 C58_9 1_555 1_555
H39_9 C58_9 1_555 1_555
C59_9 H40_9 1_555 1_555
H41_9 C59_9 1_555 1_555
H42_9 C59_9 1_555 1_555
N18_9 C58_9 1_555 1_555
H43_9 N18_9 1_555 1_555
H44_9 N18_9 1_555 1_555
C59_9 N18_9 1_555 1_555
C58_10 H37_10 1_555 1_555
H38_10 C58_10 1_555 1_555
H39_10 C58_10 1_555 1_555
N18_10 C58_10 1_555 1_555
H44_10 N18_10 1_555 1_555
C59_10 H40_10 1_555 1_555
H42_10 C59_10 1_555 1_555
C58_11 H37_11 1_555 1_555
H38_11 C58_11 1_555 1_555
H39_11 C58_11 1_555 1_555
C59_11 H40_11 1_555 1_555
H41_11 C59_11 1_555 1_555
H42_11 C59_11 1_555 1_555
N18_11 C58_11 1_555 1_555
H43_11 N18_11 1_555 1_555
H44_11 N18_11 1_555 1_555
C59_11 N18_11 1_555 1_555
C59_12 H40_12 1_555 1_555
H42_12 C59_12 1_555 1_555
C58_12 H37_12 1_555 1_555
H38_12 C58_12 1_555 1_555
H39_12 C58_12 1_555 1_555
N18_12 C58_12 1_555 1_555
H44_12 N18_12 1_555 1_555
C58_13 H37_13 1_555 1_555
H38_13 C58_13 1_555 1_555
H39_13 C58_13 1_555 1_555
C59_13 H40_13 1_555 1_555
H41_13 C59_13 1_555 1_555
H42_13 C59_13 1_555 1_555
N18_13 C58_13 1_555 1_555
H43_13 N18_13 1_555 1_555
H44_13 N18_13 1_555 1_555
C59_13 N18_13 1_555 1_555
C58_14 H37_14 1_555 1_555
H38_14 C58_14 1_555 1_555
H39_14 C58_14 1_555 1_555
C59_14 H40_14 1_555 1_555
H41_14 C59_14 1_555 1_555
H42_14 C59_14 1_555 1_555
N18_14 C58_14 1_555 1_555
H43_14 N18_14 1_555 1_555
H44_14 N18_14 1_555 1_555
C59_14 N18_14 1_555 1_555
C58_15 H37_15 1_555 1_555
H38_15 C58_15 1_555 1_555
H39_15 C58_15 1_555 1_555
C59_15 H40_15 1_555 1_555
H41_15 C59_15 1_555 1_555
H42_15 C59_15 1_555 1_555
N18_15 C58_15 1_555 1_555
H43_15 N18_15 1_555 1_555
H44_15 N18_15 1_555 1_555
C59_15 N18_15 1_555 1_555
C58_16 H37_16 1_555 1_555
H38_16 C58_16 1_555 1_555
H39_16 C58_16 1_555 1_555
C59_16 H40_16 1_555 1_555
H41_16 C59_16 1_555 1_555
H42_16 C59_16 1_555 1_555
N18_16 C58_16 1_555 1_555
H43_16 N18_16 1_555 1_555
H44_16 N18_16 1_555 1_555
C59_16 N18_16 1_555 1_555
C58_17 H37_17 1_555 1_555
H38_17 C58_17 1_555 1_555
H39_17 C58_17 1_555 1_555
C59_17 H40_17 1_555 1_555
H41_17 C59_17 1_555 1_555
H42_17 C59_17 1_555 1_555
N18_17 C58_17 1_555 1_555
H43_17 N18_17 1_555 1_555
H44_17 N18_17 1_555 1_555
C59_17 N18_17 1_555 1_555
C58_18 H37_18 1_555 1_555
H38_18 C58_18 1_555 1_555
H39_18 C58_18 1_555 1_555
C59_18 H40_18 1_555 1_555
H41_18 C59_18 1_555 1_555
H42_18 C59_18 1_555 1_555
N18_18 C58_18 1_555 1_555
H43_18 N18_18 1_555 1_555
H44_18 N18_18 1_555 1_555
C59_18 N18_18 1_555 1_555

#END
