
###############################################################################
#
# This file contains modified crystal structure data generated from the
# MOF subset of the Cambridge Structural Database (CSD) v543 
# hosted by the Cambridge Crystallographic Data Centre (CCDC).
#
# This work is licensed under the Creative Commons
# Attribution-NonCommercial-ShareAlike 4.0 International License.
# To view a copy of this license, visit
# http://creativecommons.org/licenses/by-nc-sa/4.0/
# or send a letter to
# Creative Commons, PO Box 1866, Mountain View, CA 94042, USA.
#
# CIF created using the CSD Python API on 29 September 2022
# The structure has been converted into the P1 space group
# The structure has a 3D framework
# The original CSD entry LAFJUY is in the orthorhombic crystal system
# The framework has been calculated to contain at least 10.0% void space
# The void calculation uses a probe of radius 1.32A, grid spacing 0.4
# The framework is charged, counterions have been retained in the structure
#
###############################################################################

data_LAFJUY
_chemical_formula_moiety         '(C32 H16 Fe9 N32 10+)n'
_symmetry_cell_setting           triclinic
_symmetry_space_group_name_H-M   'P 1'
_symmetry_Int_Tables_number      1
_space_group_name_Hall           'P 1'
loop_
_symmetry_equiv_pos_site_id
_symmetry_equiv_pos_as_xyz
1 x,y,z
_cell_length_a                   13.0061(5)
_cell_length_b                   12.3550(4)
_cell_length_c                   9.2235(4)
_cell_angle_alpha                90
_cell_angle_beta                 90
_cell_angle_gamma                90
_cell_volume                     1482.13
loop_
_atom_site_label
_atom_site_type_symbol
_atom_site_fract_x
_atom_site_fract_y
_atom_site_fract_z
Fe1 Fe -0.0000 0.5000 0.0000
H1 H 0.010(2) 0.2500 0.050(3)
Fe2 Fe 0.0000 0.0000 0.0000
N11 N 0.06583(9) 0.4345(1) 0.1919(1)
Fe1_2 Fe -0.0000 0.5000 1.0000
N1 N 0.03440(9) 0.1539(1) 0.8858(1)
N2 N 0.14644(10) 0.5651(1) 0.9399(1)
N3 N 0.43417(9) 0.5655(1) 0.6919(1)
N4 N 0.32994(9) 0.6074(1) 0.9063(1)
C1 C 0.0211(2) 0.2500 0.9481(2)
C2 C 0.0651(1) 0.3453(1) 0.7464(2)
C3 C 0.0812(2) 0.2500 0.6716(2)
C4 C 0.2326(1) 0.5822(1) 0.9178(1)
C5 C 0.3810(1) 0.5824(1) 0.7896(2)
H2 H 0.078(1) 0.089(1) 0.701(2)
H3 H 0.105(2) 0.2500 0.573(3)
Fe2_2 Fe 0.0000 0.0000 1.0000
N5 N 0.03440(9) 0.3461(1) 0.8858(1)
Fe3 Fe 0.5000 0.5000 0.5000
C8 C 0.0651(1) 0.1547(1) 0.7464(2)
H4 H 0.078(1) 0.411(1) 0.701(2)
Fe2_3 Fe -0.0000 1.0000 0.0000
Fe2_4 Fe 0.0000 1.0000 1.0000
Fe1_3 Fe 1.0000 0.5000 0.0000
Fe2_5 Fe 1.0000 0.0000 0.0000
N6 N 0.96560(9) 0.6539(1) 0.1142(1)
N10 N 0.85356(10) 0.4349(1) 0.0601(1)
Fe1_4 Fe 1.0000 0.5000 1.0000
Fe2_6 Fe 1.0000 0.0000 1.0000
N7 N 0.64644(10) 0.5651(1) 0.5601(1)
C6 C 0.7326(1) 0.5822(1) 0.5822(1)
N8 N 0.82994(9) 0.6074(1) 0.5937(1)
C7 C 0.8810(1) 0.5824(1) 0.7104(2)
N9 N 0.93417(9) 0.5655(1) 0.8081(1)
Fe2_7 Fe 1.0000 1.0000 0.0000
Fe2_8 Fe 1.0000 1.0000 1.0000
Fe1_5 Fe 0.5000 0.0000 0.5000
N2_2 N 0.35356(10) 0.0651(1) 0.4399(1)
N3_2 N 0.06583(9) 0.0655(1) 0.1919(1)
N4_2 N 0.17006(9) 0.1074(1) 0.4063(1)
C4_2 C 0.2674(1) 0.0822(1) 0.4178(1)
C5_2 C 0.1190(1) 0.0824(1) 0.2896(2)
N6_2 N 0.53440(9) 0.1539(1) 0.6142(1)
N7_2 N 0.85356(10) 0.0651(1) 0.0601(1)
C6_2 C 0.7674(1) 0.0822(1) 0.0822(1)
N8_2 N 0.67006(9) 0.1074(1) 0.0937(1)
C7_2 C 0.6190(1) 0.0824(1) 0.2104(2)
N9_2 N 0.56583(9) 0.0655(1) 0.3081(1)
Fe1_6 Fe 0.5000 1.0000 0.5000
N1_2 N 0.46560(9) 0.6539(1) 0.3858(1)
C1_2 C 0.4789(2) 0.7500 0.4481(2)
C2_2 C 0.4349(1) 0.8453(1) 0.2464(2)
C3_2 C 0.4188(2) 0.7500 0.1716(2)
H1_2 H 0.490(2) 0.7500 0.550(3)
H2_2 H 0.422(1) 0.589(1) 0.201(2)
H3_2 H 0.395(2) 0.7500 0.073(3)
N5_2 N 0.46560(9) 0.8461(1) 0.3858(1)
N10_2 N 0.64644(10) 0.9349(1) 0.5601(1)
N11_2 N 0.43417(9) 0.9345(1) 0.6919(1)
C8_2 C 0.4349(1) 0.6547(1) 0.2464(2)
H4_2 H 0.422(1) 0.911(1) 0.201(2)
N2_3 N 0.14644(10) 0.9349(1) 0.9399(1)
N4_3 N 0.32994(9) 0.8926(1) 0.9063(1)
C4_3 C 0.2326(1) 0.9178(1) 0.9178(1)
C5_3 C 0.3810(1) 0.9176(1) 0.7896(2)
N6_3 N 0.96560(9) 0.8461(1) 0.1142(1)
C6_3 C 0.7326(1) 0.9178(1) 0.5822(1)
N8_3 N 0.82994(9) 0.8926(1) 0.5937(1)
C7_3 C 0.8810(1) 0.9176(1) 0.7104(2)
N9_3 N 0.93417(9) 0.9345(1) 0.8081(1)
C1_3 C 0.5211(2) 0.2500 0.5519(2)
C2_3 C 0.5651(1) 0.3453(1) 0.7536(2)
C3_3 C 0.5812(2) 0.2500 0.8284(2)
H1_3 H 0.510(2) 0.2500 0.450(3)
H2_3 H 0.578(1) 0.089(1) 0.799(2)
H3_3 H 0.605(2) 0.2500 0.927(3)
N5_3 N 0.53440(9) 0.3461(1) 0.6142(1)
N10_3 N 0.35356(10) 0.4349(1) 0.4399(1)
N11_3 N 0.56583(9) 0.4345(1) 0.3081(1)
C8_3 C 0.5651(1) 0.1547(1) 0.7536(2)
H4_3 H 0.578(1) 0.411(1) 0.799(2)
C6_4 C 0.2674(1) 0.4178(1) 0.4178(1)
N8_4 N 0.17006(9) 0.3926(1) 0.4063(1)
C7_4 C 0.1190(1) 0.4176(1) 0.2896(2)
N4_4 N 0.67006(9) 0.3926(1) 0.0937(1)
C1_4 C 0.9789(2) 0.7500 0.0519(2)
C2_4 C 0.9349(1) 0.6547(1) 0.2536(2)
C3_4 C 0.9188(2) 0.7500 0.3284(2)
C4_4 C 0.7674(1) 0.4178(1) 0.0822(1)
C5_4 C 0.6190(1) 0.4176(1) 0.2104(2)
H2_4 H 0.922(1) 0.911(1) 0.299(2)
H3_4 H 0.895(2) 0.7500 0.427(3)
C8_4 C 0.9349(1) 0.8453(1) 0.2536(2)
H4_4 H 0.922(1) 0.589(1) 0.299(2)
H1_4 H 0.990(2) 0.7500 0.950(3)
loop_
_geom_bond_atom_site_label_1
_geom_bond_atom_site_label_2
_geom_bond_site_symmetry_1
_geom_bond_site_symmetry_2
N11 Fe1 1_555 1_555
Fe1_2 N2 1_555 1_555
N1 C1 1_555 1_555
N2 C4 1_555 1_555
N3 C5 1_555 1_555
N4 C4 1_555 1_555
C2 C3 1_555 1_555
C3 H3 1_555 1_555
C5 N4 1_555 1_555
H2 C8 1_555 1_555
Fe2_2 N1 1_555 1_555
N5 Fe1_2 1_555 1_555
Fe3 N3 1_555 1_555
C8 N1 1_555 1_555
H4 C2 1_555 1_555
C1 N5 1_555 1_555
C2 N5 1_555 1_555
C3 C8 1_555 1_555
N6 Fe1_3 1_555 1_555
N10 Fe1_3 1_555 1_555
Fe3 N7 1_555 1_555
N7 C6 1_555 1_555
C6 N8 1_555 1_555
N8 C7 1_555 1_555
C7 N9 1_555 1_555
N9 Fe1_4 1_555 1_555
Fe1_5 N2_2 1_555 1_555
N2_2 C4_2 1_555 1_555
N3_2 C5_2 1_555 1_555
N4_2 C4_2 1_555 1_555
C5_2 N4_2 1_555 1_555
N6_2 Fe1_5 1_555 1_555
Fe2 N3_2 1_555 1_555
Fe2_5 N7_2 1_555 1_555
N7_2 C6_2 1_555 1_555
C6_2 N8_2 1_555 1_555
N8_2 C7_2 1_555 1_555
C7_2 N9_2 1_555 1_555
N9_2 Fe1_5 1_555 1_555
N1_2 C1_2 1_555 1_555
C1_2 H1_2 1_555 1_555
C2_2 C3_2 1_555 1_555
C3_2 H3_2 1_555 1_555
H2_2 C8_2 1_555 1_555
Fe3 N1_2 1_555 1_555
N5_2 Fe1_6 1_555 1_555
N10_2 Fe1_6 1_555 1_555
N11_2 Fe1_6 1_555 1_555
C8_2 N1_2 1_555 1_555
H4_2 C2_2 1_555 1_555
C1_2 N5_2 1_555 1_555
C2_2 N5_2 1_555 1_555
C3_2 C8_2 1_555 1_555
Fe2_4 N2_3 1_555 1_555
N2_3 C4_3 1_555 1_555
N11_2 C5_3 1_555 1_555
N4_3 C4_3 1_555 1_555
C5_3 N4_3 1_555 1_555
N6_3 Fe2_7 1_555 1_555
N10_2 C6_3 1_555 1_555
C6_3 N8_3 1_555 1_555
N8_3 C7_3 1_555 1_555
C7_3 N9_3 1_555 1_555
N9_3 Fe2_8 1_555 1_555
N6_2 C1_3 1_555 1_555
C1_3 H1_3 1_555 1_555
C2_3 C3_3 1_555 1_555
C3_3 H3_3 1_555 1_555
H2_3 C8_3 1_555 1_555
N5_3 Fe3 1_555 1_555
N10_3 Fe3 1_555 1_555
N11_3 Fe3 1_555 1_555
C8_3 N6_2 1_555 1_555
H4_3 C2_3 1_555 1_555
C1_3 N5_3 1_555 1_555
C2_3 N5_3 1_555 1_555
C3_3 C8_3 1_555 1_555
N10_3 C6_4 1_555 1_555
C6_4 N8_4 1_555 1_555
N8_4 C7_4 1_555 1_555
C7_4 N11 1_555 1_555
N6_3 C1_4 1_555 1_555
N10 C4_4 1_555 1_555
N11_3 C5_4 1_555 1_555
N4_4 C4_4 1_555 1_555
C2_4 C3_4 1_555 1_555
C3_4 H3_4 1_555 1_555
C5_4 N4_4 1_555 1_555
H2_4 C8_4 1_555 1_555
C8_4 N6_3 1_555 1_555
H4_4 C2_4 1_555 1_555
C1_4 N6 1_555 1_555
C2_4 N6 1_555 1_555
C3_4 C8_4 1_555 1_555

#END
