
###############################################################################
#
# This file contains modified crystal structure data generated from the
# MOF subset of the Cambridge Structural Database (CSD) v543 
# hosted by the Cambridge Crystallographic Data Centre (CCDC).
#
# This work is licensed under the Creative Commons
# Attribution-NonCommercial-ShareAlike 4.0 International License.
# To view a copy of this license, visit
# http://creativecommons.org/licenses/by-nc-sa/4.0/
# or send a letter to
# Creative Commons, PO Box 1866, Mountain View, CA 94042, USA.
#
# CIF created using the CSD Python API on 29 September 2022
# The structure has been converted into the P1 space group
# The structure has a 3D framework
# The original CSD entry LAFQUG is in the cubic crystal system
# The framework has been calculated to contain at least 10.0% void space
# The void calculation uses a probe of radius 1.32A, grid spacing 0.4
#
###############################################################################

data_LAFQUG
_chemical_formula_moiety         '(C4992 H3072 Co216 N1920 S384)n'
_symmetry_cell_setting           triclinic
_symmetry_space_group_name_H-M   'P 1'
_symmetry_Int_Tables_number      1
_space_group_name_Hall           'P 1'
loop_
_symmetry_equiv_pos_site_id
_symmetry_equiv_pos_as_xyz
1 x,y,z
_cell_length_a                   63.724(7)
_cell_length_b                   63.724(7)
_cell_length_c                   63.724(7)
_cell_angle_alpha                90
_cell_angle_beta                 90
_cell_angle_gamma                90
_cell_volume                     258767
loop_
_atom_site_label
_atom_site_type_symbol
_atom_site_fract_x
_atom_site_fract_y
_atom_site_fract_z
Co1 Co 0.370919(12) 0.0000 0.120919(12)
Co4 Co 0.379081(12) 0.129081(12) 0.0000
Co6 Co 0.379081(12) 0.120919(12) 0.2500
Co10 Co 0.252232(14) 0.1250 0.1250
Co13 Co 0.497768(14) 0.1250 0.1250
Co14 Co 0.3750 0.002232(14) 0.3750
S3 S 0.41365(3) 0.04384(3) 0.07744(3)
S6 S 0.33635(3) 0.17256(3) 0.04384(3)
S11 S 0.24585(4) 0.20064(4) 0.13094(8)
S12 S 0.24585(4) 0.04936(4) 0.11906(8)
N11 N 0.38693(7) 0.02418(6) 0.10581(7)
N14 N 0.36307(7) 0.14419(7) 0.02418(6)
N19 N 0.25105(7) 0.15752(8) 0.12739(7)
N20 N 0.25105(7) 0.09248(8) 0.12261(7)
N22 N 0.34026(7) 0.01484(7) 0.11605(6)
N23 N 0.40974(7) 0.11605(6) 0.23516(7)
N26 N 0.40974(7) 0.13395(6) 0.01484(7)
N29 N 0.37609(7) 0.09893(7) 0.01601(7)
N30 N 0.37391(7) 0.01601(7) 0.15107(7)
N36 N 0.34011(7) 0.06081(7) 0.07041(7)
N37 N 0.40989(7) 0.07041(7) 0.18919(7)
N41 N 0.33074(7) 0.09580(7) 0.06164(7)
N42 N 0.41926(7) 0.06164(7) 0.15420(7)
N46 N 0.31193(7) 0.07743(7) 0.08806(8)
N47 N 0.43807(7) 0.08806(8) 0.17257(7)
N51 N 0.27619(7) 0.12901(7) 0.10131(8)
N52 N 0.47381(7) 0.10131(8) 0.12099(7)
N56 N 0.27619(7) 0.12099(7) 0.14869(8)
N64 N 0.23039(7) 0.12490(8) 0.15106(8)
N65 N 0.23039(7) 0.12510(8) 0.09894(8)
C27 C 0.39797(9) 0.03286(8) 0.09422(8)
C30 C 0.35203(9) 0.15578(8) 0.03286(8)
C35 C 0.24890(9) 0.17537(12) 0.12880(12)
C36 C 0.24890(9) 0.07463(12) 0.12120(12)
C38 C 0.32240(11) 0.01112(10) 0.12658(10)
C39 C 0.42760(11) 0.12658(10) 0.23888(10)
H18 H 0.3223 0.0002 0.1367
H19 H 0.4277 0.1367 0.2498
C43 C 0.30414(13) 0.02237(11) 0.12346(12)
C44 C 0.44586(13) 0.12346(12) 0.22763(11)
H23 H 0.2917 0.0186 0.1307
H24 H 0.4583 0.1307 0.2314
C48 C 0.30417(12) 0.03912(10) 0.10980(10)
C49 C 0.44583(12) 0.10980(10) 0.21088(10)
H28 H 0.2921 0.0476 0.1080
H29 H 0.4579 0.1080 0.2024
C53 C 0.32250(9) 0.04317(9) 0.09880(8)
C54 C 0.42750(9) 0.09880(8) 0.20683(9)
C58 C 0.33977(8) 0.03043(8) 0.10210(7)
C59 C 0.41023(8) 0.10210(7) 0.21957(8)
H33 H 0.3520 0.0329 0.0939
H34 H 0.3980 0.0939 0.2171
C63 C 0.38981(12) 0.08315(11) 0.01417(11)
C64 C 0.36019(12) 0.01417(11) 0.16685(11)
H38 H 0.4006 0.0843 0.0039
H39 H 0.3494 0.0039 0.1657
C68 C 0.38915(13) 0.06515(12) 0.02640(13)
C69 C 0.36085(13) 0.02640(13) 0.18485(12)
H43 H 0.3993 0.0544 0.0245
H44 H 0.3507 0.0245 0.1956
C73 C 0.37376(11) 0.06308(11) 0.04123(12)
C74 C 0.37624(11) 0.04123(12) 0.18692(11)
H48 H 0.3731 0.0510 0.0500
H49 H 0.3769 0.0500 0.1990
C78 C 0.35896(9) 0.07916(9) 0.04316(9)
C79 C 0.39104(9) 0.04316(9) 0.17084(9)
C83 C 0.36087(8) 0.09661(8) 0.03041(8)
C84 C 0.38913(8) 0.03041(8) 0.15339(8)
H53 H 0.3509 0.1076 0.0319
H54 H 0.3991 0.0319 0.1424
C88 C 0.34222(8) 0.07828(8) 0.05918(8)
C89 C 0.40778(8) 0.05918(8) 0.17172(8)
C93 C 0.32477(8) 0.06135(8) 0.08475(9)
C94 C 0.42523(8) 0.08475(9) 0.18865(8)
C98 C 0.31574(8) 0.09444(8) 0.07626(9)
C99 C 0.43426(8) 0.07626(9) 0.15556(8)
C103 C 0.28852(8) 0.11290(8) 0.09661(9)
C104 C 0.46148(8) 0.09661(9) 0.13710(8)
H58 H 0.2874 0.1005 0.1049
H59 H 0.4626 0.1049 0.1495
C108 C 0.30301(9) 0.11312(9) 0.08030(10)
C109 C 0.44699(9) 0.08030(10) 0.13688(9)
C113 C 0.30496(12) 0.13131(11) 0.06850(12)
C114 C 0.44504(12) 0.06850(12) 0.11869(11)
H63 H 0.3148 0.1322 0.0573
H64 H 0.4352 0.0573 0.1178
C118 C 0.29226(13) 0.14817(12) 0.07345(14)
C119 C 0.45774(13) 0.07345(14) 0.10183(12)
H68 H 0.2934 0.1609 0.0658
H69 H 0.4566 0.0658 0.0891
C123 C 0.27793(11) 0.14628(10) 0.08960(12)
C124 C 0.47207(11) 0.08960(12) 0.10372(10)
H73 H 0.2689 0.1578 0.0925
H74 H 0.4811 0.0925 0.0922
Co4_2 Co 0.379081(12) 0.129081(12) 1.0000
S7 S 0.42256(3) 0.08635(3) 0.95616(3)
N15 N 0.39419(7) 0.11307(7) 0.97582(6)
N27 N 0.38395(6) 0.15974(7) 0.98516(7)
N34 N 0.34893(7) 0.12609(7) 0.98399(7)
C31 C 0.40578(8) 0.10203(9) 0.96714(8)
Co1_2 Co 0.370919(12) 1.0000 0.120919(12)
Co2 Co 0.3750 0.8750 0.247768(14)
S1 S 0.32744(3) 0.95616(3) 0.16365(3)
S2 S 0.29936(4) 0.86906(8) 0.25415(4)
N1 N 0.35581(7) 0.97582(6) 0.13693(7)
N2 N 0.34248(8) 0.87261(7) 0.24895(7)
N3 N 0.48516(7) 0.88395(6) 0.15974(7)
N4 N 0.40107(7) 0.98399(7) 0.12391(7)
N5 N 0.43919(7) 0.92959(7) 0.15989(7)
N6 N 0.40420(7) 0.93836(7) 0.16926(7)
N7 N 0.42257(7) 0.91194(8) 0.18807(7)
N8 N 0.37099(7) 0.89869(8) 0.22381(7)
N9 N 0.37510(8) 0.84894(8) 0.26961(7)
N10 N 0.42187(8) 0.84393(8) 0.31371(8)
C1 C 0.34422(8) 0.96714(8) 0.14797(9)
C2 C 0.32463(12) 0.87120(12) 0.25110(9)
C3 C 0.48888(10) 0.87342(10) 0.17760(11)
H1 H 0.4998 0.8633 0.1777
C4 C 0.47763(11) 0.87654(12) 0.19586(13)
H2 H 0.4814 0.8693 0.2083
C5 C 0.46088(10) 0.89020(10) 0.19583(12)
H3 H 0.4524 0.8920 0.2079
C6 C 0.45683(9) 0.90120(8) 0.17750(9)
C7 C 0.46957(8) 0.89790(7) 0.16023(8)
H4 H 0.4671 0.9061 0.1480
C8 C 0.41685(11) 0.98583(11) 0.11019(12)
H5 H 0.4157 0.9961 0.0994
C9 C 0.43485(12) 0.97360(13) 0.11085(13)
H6 H 0.4456 0.9755 0.1007
C10 C 0.43692(11) 0.95877(12) 0.12624(11)
H7 H 0.4490 0.9500 0.1269
C11 C 0.42084(9) 0.95684(9) 0.14104(9)
C12 C 0.40339(8) 0.96959(8) 0.13913(8)
H8 H 0.3924 0.9681 0.1491
C13 C 0.42172(8) 0.94082(8) 0.15778(8)
C14 C 0.43865(8) 0.91525(9) 0.17523(8)
C15 C 0.40556(8) 0.92374(9) 0.18426(8)
C16 C 0.38710(8) 0.90339(9) 0.21148(8)
H9 H 0.3995 0.8951 0.2126
C17 C 0.38688(9) 0.91970(10) 0.19699(9)
C18 C 0.36869(11) 0.93150(12) 0.19504(12)
H10 H 0.3678 0.9427 0.1852
C19 C 0.35183(12) 0.92655(14) 0.20774(13)
H11 H 0.3391 0.9342 0.2066
C20 C 0.35372(10) 0.91040(12) 0.22207(11)
H12 H 0.3422 0.9075 0.2311
C21 C 0.36170(12) 0.83277(11) 0.26698(11)
H13 H 0.3513 0.8339 0.2564
C22 C 0.36236(15) 0.81485(12) 0.27886(14)
H14 H 0.3527 0.8038 0.2763
C23 C 0.37719(13) 0.81310(12) 0.29455(13)
H15 H 0.3780 0.8009 0.3030
C24 C 0.39103(11) 0.82984(10) 0.29766(10)
C25 C 0.38959(9) 0.84717(9) 0.28474(8)
H16 H 0.3993 0.8583 0.2866
C26 C 0.40736(10) 0.82889(10) 0.31395(10)
Co3 Co 0.2500 0.870919(12) 0.129081(12)
Co5 Co 0.5000 0.879081(12) 0.129081(12)
Co7 Co 0.379081(12) 0.7500 0.120919(12)
Co8 Co 0.120919(12) 0.879081(12) 0.2500
Co9 Co 0.3750 0.8750 0.002232(14)
Co11 Co 0.3750 0.747768(14) 0.3750
Co12 Co 0.502232(14) 0.8750 0.3750
Co15 Co 0.247768(14) 0.8750 0.3750
Co16 Co 0.1250 0.752232(14) 0.1250
S4 S 0.29384(3) 0.82744(3) 0.08635(3)
S5 S 0.20616(3) 0.91365(3) 0.17256(3)
S8 S 0.45064(4) 0.88094(8) 0.25415(4)
N12 N 0.27418(6) 0.85581(7) 0.11307(7)
N13 N 0.22582(6) 0.88693(7) 0.14419(7)
N16 N 0.40752(8) 0.87739(7) 0.24895(7)
N17 N 0.37739(7) 0.84248(8) 0.00105(7)
N18 N 0.37261(7) 0.90752(8) 0.00105(7)
N21 N 0.36605(6) 0.98516(7) 0.09026(7)
N24 N 0.26484(7) 0.86605(6) 0.15974(7)
N25 N 0.23516(7) 0.84026(7) 0.13395(6)
N28 N 0.26601(7) 0.90107(7) 0.12609(7)
N31 N 0.34893(7) 0.76601(7) 0.12391(7)
N32 N 0.15107(7) 0.87609(7) 0.23399(7)
N33 N 0.23399(7) 0.87391(7) 0.09893(7)
N35 N 0.32041(7) 0.93919(7) 0.09011(7)
N38 N 0.31081(7) 0.82041(7) 0.15989(7)
N39 N 0.18919(7) 0.84011(7) 0.17959(7)
N40 N 0.31164(7) 0.90420(7) 0.08074(7)
N43 N 0.34580(7) 0.81164(7) 0.16926(7)
N44 N 0.15420(7) 0.83074(7) 0.18836(7)
N45 N 0.33806(8) 0.92257(7) 0.06193(7)
N48 N 0.32743(7) 0.83806(8) 0.18807(7)
N49 N 0.17257(7) 0.81193(7) 0.16194(8)
N50 N 0.35131(8) 0.87099(7) 0.02619(7)
N53 N 0.37901(7) 0.85131(8) 0.22381(7)
N54 N 0.12099(7) 0.77619(7) 0.14869(8)
N55 N 0.39869(8) 0.87901(7) 0.02619(7)
N57 N 0.40106(8) 0.76961(7) 0.37490(8)
N58 N 0.48039(7) 0.87490(8) 0.34894(8)
N59 N 0.37490(8) 0.90106(8) 0.26961(7)
N60 N 0.34894(8) 0.98039(7) 0.37490(8)
N61 N 0.26961(7) 0.87510(8) 0.34894(8)
N66 N 0.43629(8) 0.82813(8) 0.34393(8)
N67 N 0.40607(8) 0.81371(8) 0.32813(8)
N68 N 0.32813(8) 0.90607(8) 0.31371(8)
N69 N 0.31371(8) 0.92187(8) 0.34393(8)
N70 N 0.34393(8) 0.93629(8) 0.32813(8)
C28 C 0.28286(8) 0.84422(8) 0.10203(9)
C29 C 0.21714(8) 0.89797(9) 0.15578(8)
C32 C 0.42537(12) 0.87880(12) 0.25110(9)
C37 C 0.37658(10) 0.98888(10) 0.07240(11)
C40 C 0.26112(10) 0.87658(10) 0.17760(11)
C41 C 0.23888(10) 0.82240(11) 0.12342(10)
H17 H 0.3867 0.9998 0.0723
H20 H 0.2502 0.8867 0.1777
H21 H 0.2498 0.8223 0.1133
C42 C 0.37346(12) 0.97763(11) 0.05414(13)
C45 C 0.27237(11) 0.87346(12) 0.19586(13)
C46 C 0.22763(11) 0.80414(13) 0.12654(12)
H22 H 0.3807 0.9814 0.0417
H25 H 0.2686 0.8807 0.2083
H26 H 0.2314 0.7917 0.1193
C47 C 0.35980(10) 0.96088(10) 0.05417(12)
C50 C 0.28912(10) 0.85980(10) 0.19583(12)
C51 C 0.21088(10) 0.80417(12) 0.14020(10)
H27 H 0.3580 0.9524 0.0421
H30 H 0.2976 0.8580 0.2079
H31 H 0.2024 0.7921 0.1420
C52 C 0.34880(8) 0.95683(9) 0.07250(9)
C55 C 0.29317(9) 0.84880(8) 0.17750(9)
C56 C 0.20683(9) 0.82250(9) 0.15120(8)
C57 C 0.35210(7) 0.96957(8) 0.08977(8)
C60 C 0.28043(8) 0.85210(7) 0.16023(8)
C61 C 0.21957(8) 0.83977(8) 0.14790(7)
H32 H 0.3439 0.9671 0.1020
H35 H 0.2829 0.8439 0.1480
H36 H 0.2171 0.8520 0.1561
C62 C 0.26417(11) 0.91685(11) 0.13981(12)
C65 C 0.33315(11) 0.76417(11) 0.11019(12)
C66 C 0.16685(11) 0.88981(12) 0.23583(11)
H37 H 0.2539 0.9157 0.1506
H40 H 0.3343 0.7539 0.0994
H41 H 0.1657 0.9006 0.2461
C67 C 0.27640(13) 0.93485(12) 0.13915(13)
C70 C 0.31515(12) 0.77640(13) 0.11085(13)
C71 C 0.18485(12) 0.88915(13) 0.22360(13)
H42 H 0.2745 0.9456 0.1493
H45 H 0.3044 0.7745 0.1007
H46 H 0.1956 0.8993 0.2255
C72 C 0.29123(12) 0.93692(11) 0.12376(11)
C75 C 0.31308(11) 0.79123(12) 0.12624(11)
C76 C 0.18692(11) 0.87376(11) 0.20877(12)
H47 H 0.3000 0.9490 0.1231
H50 H 0.3010 0.8000 0.1269
H51 H 0.1990 0.8731 0.2000
C77 C 0.29316(9) 0.92084(9) 0.10896(9)
C80 C 0.32916(9) 0.79316(9) 0.14104(9)
C81 C 0.17084(9) 0.85896(9) 0.20684(9)
C82 C 0.28041(8) 0.90339(8) 0.11087(8)
C85 C 0.34661(8) 0.78041(8) 0.13913(8)
C86 C 0.15339(8) 0.86087(8) 0.21959(8)
H52 H 0.2819 0.8924 0.1009
H55 H 0.3576 0.7819 0.1491
H56 H 0.1424 0.8509 0.2181
C87 C 0.30918(8) 0.92172(8) 0.09222(8)
C90 C 0.32828(8) 0.80918(8) 0.15778(8)
C91 C 0.17172(8) 0.84222(8) 0.19082(8)
C92 C 0.33475(9) 0.93865(8) 0.07477(8)
C95 C 0.31135(8) 0.83475(9) 0.17523(8)
C96 C 0.18865(8) 0.82477(8) 0.16525(9)
C97 C 0.32626(9) 0.90556(8) 0.06574(8)
C100 C 0.34444(8) 0.82626(9) 0.18426(8)
C101 C 0.15556(8) 0.81574(8) 0.17374(9)
C102 C 0.34661(9) 0.88710(8) 0.03852(8)
C105 C 0.36290(8) 0.84661(9) 0.21148(8)
C106 C 0.13710(8) 0.78852(8) 0.15339(9)
H57 H 0.3549 0.8995 0.0374
H60 H 0.3505 0.8549 0.2126
H61 H 0.1495 0.7874 0.1451
C107 C 0.33030(10) 0.88688(9) 0.05301(9)
C110 C 0.36312(9) 0.83030(10) 0.19699(9)
C111 C 0.13688(9) 0.80301(9) 0.16970(10)
C112 C 0.31850(12) 0.86869(11) 0.05496(12)
C115 C 0.38131(11) 0.81850(12) 0.19504(12)
C116 C 0.11869(11) 0.80496(12) 0.18150(12)
H62 H 0.3073 0.8678 0.0648
H65 H 0.3822 0.8073 0.1852
H66 H 0.1178 0.8148 0.1927
C117 C 0.32345(14) 0.85183(12) 0.04226(13)
C120 C 0.39817(12) 0.82345(14) 0.20774(13)
C121 C 0.10183(12) 0.79226(13) 0.17655(14)
H67 H 0.3158 0.8391 0.0434
H70 H 0.4109 0.8158 0.2066
H71 H 0.0891 0.7934 0.1842
C122 C 0.33960(12) 0.85372(10) 0.02793(11)
C125 C 0.39628(10) 0.83960(12) 0.22207(11)
C126 C 0.10372(10) 0.77793(11) 0.16040(12)
H72 H 0.3425 0.8422 0.0189
H75 H 0.4078 0.8425 0.2311
H76 H 0.0922 0.7689 0.1575
C127 C 0.41723(11) 0.76698(11) 0.38830(12)
C128 C 0.48302(11) 0.88830(12) 0.33277(11)
C129 C 0.38830(12) 0.91723(11) 0.26698(11)
C130 C 0.33277(11) 0.98302(11) 0.38830(12)
C131 C 0.26698(11) 0.86170(12) 0.33277(11)
H77 H 0.4161 0.7564 0.3987
H78 H 0.4936 0.8987 0.3339
H79 H 0.3987 0.9161 0.2564
H80 H 0.3339 0.9936 0.3987
H81 H 0.2564 0.8513 0.3339
C132 C 0.43515(12) 0.77886(14) 0.38764(15)
C133 C 0.47114(14) 0.88764(15) 0.31485(12)
C134 C 0.38764(15) 0.93515(12) 0.27886(14)
C135 C 0.31485(12) 0.97114(14) 0.38764(15)
C136 C 0.27886(14) 0.86236(15) 0.31485(12)
H82 H 0.4462 0.7763 0.3973
H83 H 0.4737 0.8973 0.3038
H84 H 0.3973 0.9462 0.2763
H85 H 0.3038 0.9737 0.3973
H86 H 0.2763 0.8527 0.3038
C137 C 0.43690(12) 0.79455(13) 0.37281(13)
C138 C 0.45545(13) 0.87281(13) 0.31310(12)
C139 C 0.37281(13) 0.93690(12) 0.29455(13)
C140 C 0.31310(12) 0.95545(13) 0.37281(13)
C141 C 0.29455(13) 0.87719(13) 0.31310(12)
H87 H 0.4491 0.8030 0.3720
H88 H 0.4470 0.8720 0.3009
H89 H 0.3720 0.9491 0.3030
H90 H 0.3009 0.9470 0.3720
H91 H 0.3030 0.8780 0.3009
C142 C 0.42016(10) 0.79766(10) 0.35897(11)
C143 C 0.45234(10) 0.85897(11) 0.32984(10)
C144 C 0.35897(11) 0.92016(10) 0.29766(10)
C145 C 0.32984(10) 0.95234(10) 0.35897(11)
C146 C 0.29766(10) 0.89103(11) 0.32984(10)
C147 C 0.40283(9) 0.78474(8) 0.36041(9)
C148 C 0.46526(8) 0.86041(9) 0.34717(9)
C149 C 0.36041(9) 0.90283(9) 0.28474(8)
C150 C 0.34717(9) 0.96526(8) 0.36041(9)
C151 C 0.28474(8) 0.88959(9) 0.34717(9)
H92 H 0.3917 0.7866 0.3507
H93 H 0.4634 0.8507 0.3583
H94 H 0.3507 0.8917 0.2866
H95 H 0.3583 0.9634 0.3507
H96 H 0.2866 0.8993 0.3583
C152 C 0.43605(10) 0.84264(10) 0.32889(10)
C153 C 0.42111(10) 0.81395(10) 0.34264(10)
C154 C 0.34264(10) 0.92111(10) 0.31395(10)
C155 C 0.31395(10) 0.90736(10) 0.32889(10)
C156 C 0.32889(10) 0.93605(10) 0.34264(10)
S9 S 0.38094(8) 0.79936(4) 0.99585(4)
S10 S 0.36906(8) 0.95064(4) 0.99585(4)
N62 N 0.40106(8) 0.87510(8) 0.98039(7)
N63 N 0.34894(8) 0.87490(8) 0.98039(7)
C33 C 0.37880(12) 0.82463(12) 0.99890(9)
C34 C 0.37120(12) 0.92537(12) 0.99890(9)
Co1_3 Co 0.2500 0.620919(12) 0.379081(12)
Co2_2 Co 0.1250 0.6250 0.252232(14)
S1_2 S 0.20616(3) 0.57744(3) 0.33635(3)
S2_2 S 0.11906(8) 0.54936(4) 0.24585(4)
N1_2 N 0.22582(6) 0.60581(7) 0.36307(7)
N2_2 N 0.12261(7) 0.59248(8) 0.25105(7)
N3_2 N 0.13395(6) 0.73516(7) 0.34026(7)
N4_2 N 0.23399(7) 0.65107(7) 0.37609(7)
N5_2 N 0.17959(7) 0.68919(7) 0.34011(7)
N6_2 N 0.18836(7) 0.65420(7) 0.33074(7)
N7_2 N 0.16194(8) 0.67257(7) 0.31193(7)
N8_2 N 0.14869(8) 0.62099(7) 0.27619(7)
N9_2 N 0.09894(8) 0.62510(8) 0.23039(7)
N10_2 N 0.09393(8) 0.67187(8) 0.18629(8)
C1_2 C 0.21714(8) 0.59422(8) 0.35203(9)
C2_2 C 0.12120(12) 0.57463(12) 0.24890(9)
C3_2 C 0.12342(10) 0.73888(10) 0.32240(11)
H1_2 H 0.1133 0.7498 0.3223
C4_2 C 0.12654(12) 0.72763(11) 0.30414(13)
H2_2 H 0.1193 0.7314 0.2917
C5_2 C 0.14020(10) 0.71088(10) 0.30417(12)
H3_2 H 0.1420 0.7024 0.2921
C6_2 C 0.15120(8) 0.70683(9) 0.32250(9)
C7_2 C 0.14790(7) 0.71957(8) 0.33977(8)
H4_2 H 0.1561 0.7171 0.3520
C8_2 C 0.23583(11) 0.66685(11) 0.38981(12)
H5_2 H 0.2461 0.6657 0.4006
C9_2 C 0.22360(13) 0.68485(12) 0.38915(13)
H6_2 H 0.2255 0.6956 0.3993
C10_2 C 0.20877(12) 0.68692(11) 0.37376(11)
H7_2 H 0.2000 0.6990 0.3731
C11_2 C 0.20684(9) 0.67084(9) 0.35896(9)
C12_2 C 0.21959(8) 0.65339(8) 0.36087(8)
H8_2 H 0.2181 0.6424 0.3509
C13_2 C 0.19082(8) 0.67172(8) 0.34222(8)
C14_2 C 0.16525(9) 0.68865(8) 0.32477(8)
C15_2 C 0.17374(9) 0.65556(8) 0.31574(8)
C16_2 C 0.15339(9) 0.63710(8) 0.28852(8)
H9_2 H 0.1451 0.6495 0.2874
C17_2 C 0.16970(10) 0.63688(9) 0.30301(9)
C18_2 C 0.18150(12) 0.61869(11) 0.30496(12)
H10_2 H 0.1927 0.6178 0.3148
C19_2 C 0.17655(14) 0.60183(12) 0.29226(13)
H11_2 H 0.1842 0.5891 0.2934
C20_2 C 0.16040(12) 0.60372(10) 0.27793(11)
H12_2 H 0.1575 0.5922 0.2689
C21_2 C 0.08277(11) 0.61170(12) 0.23302(11)
H13_2 H 0.0839 0.6013 0.2436
C22_2 C 0.06485(12) 0.61236(15) 0.22114(14)
H14_2 H 0.0538 0.6027 0.2237
C23_2 C 0.06310(12) 0.62719(13) 0.20545(13)
H15_2 H 0.0509 0.6280 0.1970
C24_2 C 0.07984(10) 0.64103(11) 0.20234(10)
C25_2 C 0.09717(9) 0.63959(9) 0.21526(8)
H16_2 H 0.1083 0.6493 0.2134
C26_2 C 0.07889(10) 0.65736(10) 0.18605(10)
Co3_2 Co 0.120919(12) 0.5000 0.370919(12)
Co4_3 Co 0.379081(12) 0.629081(12) 0.5000
Co5_2 Co 0.129081(12) 0.7500 0.370919(12)
Co6_2 Co 0.370919(12) 0.629081(12) 0.2500
Co7_2 Co -0.0000 0.629081(12) 0.379081(12)
Co8_2 Co 0.129081(12) 0.370919(12) 0.2500
Co9_2 Co 0.1250 0.6250 0.497768(14)
Co10_2 Co 0.3750 0.502232(14) 0.3750
Co14_2 Co 0.252232(14) 0.6250 0.1250
Co15_2 Co 0.1250 0.497768(14) 0.1250
Co16_2 Co 0.002232(14) 0.3750 0.3750
S3_2 S 0.29384(3) 0.66365(3) 0.42256(3)
S4_2 S 0.07744(3) 0.54384(3) 0.41365(3)
S5_2 S 0.16365(3) 0.45616(3) 0.32744(3)
S6_2 S 0.42256(3) 0.58635(3) 0.45616(3)
S7_2 S 0.33635(3) 0.67256(3) 0.54384(3)
S8_2 S 0.13094(8) 0.70064(4) 0.24585(4)
S9_2 S 0.04936(4) 0.63094(8) 0.50415(4)
S10_2 S 0.20064(4) 0.61906(8) 0.50415(4)
S11_2 S 0.45064(4) 0.49585(4) 0.36906(8)
S12_2 S 0.29936(4) 0.49585(4) 0.38094(8)
N11_2 N 0.27418(6) 0.63693(7) 0.39419(7)
N12_2 N 0.10581(7) 0.52418(6) 0.38693(7)
N13_2 N 0.13693(7) 0.47582(6) 0.35581(7)
N14_2 N 0.39419(7) 0.61307(7) 0.47582(6)
N15_2 N 0.36307(7) 0.64419(7) 0.52418(6)
N16_2 N 0.12739(7) 0.65752(8) 0.25105(7)
N17_2 N 0.09248(8) 0.62739(7) 0.49895(7)
N18_2 N 0.15752(8) 0.62261(7) 0.49895(7)
N19_2 N 0.40752(8) 0.50105(7) 0.37261(7)
N20_2 N 0.34248(8) 0.50105(7) 0.37739(7)
N21_2 N 0.23516(7) 0.61605(6) 0.40974(7)
N22_2 N 0.26484(7) 0.59026(7) 0.38395(6)
N23_2 N 0.36605(6) 0.65974(7) 0.26484(7)
N24_2 N 0.11605(6) 0.51484(7) 0.34026(7)
N25_2 N 0.09026(7) 0.48516(7) 0.36605(6)
N26_2 N 0.38395(6) 0.65974(7) 0.48516(7)
N27_2 N 0.40974(7) 0.63395(6) 0.51484(7)
N28_2 N 0.15107(7) 0.51601(7) 0.37391(7)
N29_2 N 0.34893(7) 0.62609(7) 0.48399(7)
N30_2 N 0.26601(7) 0.62391(7) 0.34893(7)
N31_2 N 0.01601(7) 0.59893(7) 0.37609(7)
N32_2 N 0.12609(7) 0.40107(7) 0.26601(7)
N33_2 N 0.12391(7) 0.48399(7) 0.40107(7)
N34_2 N 0.37609(7) 0.59893(7) 0.51601(7)
N35_2 N 0.18919(7) 0.57041(7) 0.40989(7)
N36_2 N 0.31081(7) 0.59011(7) 0.42959(7)
N37_2 N 0.32041(7) 0.65989(7) 0.31081(7)
N38_2 N 0.07041(7) 0.56081(7) 0.34011(7)
N39_2 N 0.09011(7) 0.43919(7) 0.32041(7)
N40_2 N 0.15420(7) 0.56164(7) 0.41926(7)
N41_2 N 0.34580(7) 0.58074(7) 0.43836(7)
N42_2 N 0.31164(7) 0.66926(7) 0.34580(7)
N43_2 N 0.06164(7) 0.59580(7) 0.33074(7)
N44_2 N 0.08074(7) 0.40420(7) 0.31164(7)
N45_2 N 0.17257(7) 0.58806(8) 0.43807(7)
N46_2 N 0.32743(7) 0.56193(7) 0.41194(8)
N47_2 N 0.33806(8) 0.68807(7) 0.32743(7)
N48_2 N 0.08806(8) 0.57743(7) 0.31193(7)
N49_2 N 0.06193(7) 0.42257(7) 0.33806(8)
N50_2 N 0.12099(7) 0.60131(8) 0.47381(7)
N51_2 N 0.37901(7) 0.52619(7) 0.39869(8)
N52_2 N 0.35131(8) 0.72381(7) 0.37901(7)
N53_2 N 0.10131(8) 0.62901(7) 0.27619(7)
N54_2 N 0.02619(7) 0.37099(7) 0.35131(8)
N55_2 N 0.12901(7) 0.64869(8) 0.47381(7)
N56_2 N 0.37099(7) 0.52619(7) 0.35131(8)
N57_2 N 0.01961(7) 0.65106(8) 0.12510(8)
N58_2 N 0.12490(8) 0.73039(7) 0.15106(8)
N59_2 N 0.15106(8) 0.62490(8) 0.23039(7)
N60_2 N 0.23039(7) 0.59894(8) 0.12510(8)
N61_2 N 0.12510(8) 0.51961(7) 0.15106(8)
N62_2 N 0.12510(8) 0.65106(8) 0.51961(7)
N63_2 N 0.12490(8) 0.59894(8) 0.51961(7)
N64_2 N 0.37490(8) 0.48039(7) 0.34894(8)
N65_2 N 0.37510(8) 0.48039(7) 0.40106(8)
N66_2 N 0.07813(8) 0.68629(8) 0.15607(8)
N67_2 N 0.06371(8) 0.65607(8) 0.17187(8)
N68_2 N 0.15607(8) 0.57813(8) 0.18629(8)
N69_2 N 0.17187(8) 0.56371(8) 0.15607(8)
N70_2 N 0.18629(8) 0.59393(8) 0.17187(8)
C27_2 C 0.28286(8) 0.64797(9) 0.40578(8)
C28_2 C 0.09422(8) 0.53286(8) 0.39797(9)
C29_2 C 0.14797(9) 0.46714(8) 0.34422(8)
C30_2 C 0.40578(8) 0.60203(9) 0.46714(8)
C31_2 C 0.35203(9) 0.65578(8) 0.53286(8)
C32_2 C 0.12880(12) 0.67537(12) 0.24890(9)
C33_2 C 0.07463(12) 0.62880(12) 0.50110(9)
C34_2 C 0.17537(12) 0.62120(12) 0.50110(9)
C35_2 C 0.42537(12) 0.49890(9) 0.37120(12)
C36_2 C 0.32463(12) 0.49890(9) 0.37880(12)
C37_2 C 0.23888(10) 0.62658(10) 0.42760(11)
C38_2 C 0.26112(10) 0.57240(11) 0.37342(10)
C39_2 C 0.37658(10) 0.67760(11) 0.26112(10)
C40_2 C 0.12658(10) 0.51112(10) 0.32240(11)
C41_2 C 0.07240(11) 0.48888(10) 0.37658(10)
H17_2 H 0.2498 0.6367 0.4277
H18_2 H 0.2502 0.5723 0.3633
H19_2 H 0.3867 0.6777 0.2502
H20_2 H 0.1367 0.5002 0.3223
H21_2 H 0.0723 0.4998 0.3867
C42_2 C 0.22763(11) 0.62346(12) 0.44586(13)
C43_2 C 0.27237(11) 0.55414(13) 0.37654(12)
C44_2 C 0.37346(12) 0.69586(13) 0.27237(11)
C45_2 C 0.12346(12) 0.52237(11) 0.30414(13)
C46_2 C 0.05414(13) 0.47763(11) 0.37346(12)
H22_2 H 0.2314 0.6307 0.4583
H23_2 H 0.2686 0.5417 0.3693
H24_2 H 0.3807 0.7083 0.2686
H25_2 H 0.1307 0.5186 0.2917
H26_2 H 0.0417 0.4814 0.3807
C47_2 C 0.21088(10) 0.60980(10) 0.44583(12)
C48_2 C 0.28912(10) 0.55417(12) 0.39020(10)
C49_2 C 0.35980(10) 0.69583(12) 0.28912(10)
C50_2 C 0.10980(10) 0.53912(10) 0.30417(12)
C51_2 C 0.05417(12) 0.46088(10) 0.35980(10)
H27_2 H 0.2024 0.6080 0.4579
H28_2 H 0.2976 0.5421 0.3920
H29_2 H 0.3580 0.7079 0.2976
H30_2 H 0.1080 0.5476 0.2921
H31_2 H 0.0421 0.4524 0.3580
C52_2 C 0.20683(9) 0.59880(8) 0.42750(9)
C53_2 C 0.29317(9) 0.57250(9) 0.40120(8)
C54_2 C 0.34880(8) 0.67750(9) 0.29317(9)
C55_2 C 0.09880(8) 0.54317(9) 0.32250(9)
C56_2 C 0.07250(9) 0.45683(9) 0.34880(8)
C57_2 C 0.21957(8) 0.60210(7) 0.41023(8)
C58_2 C 0.28043(8) 0.58977(8) 0.39790(7)
C59_2 C 0.35210(7) 0.66023(8) 0.28043(8)
C60_2 C 0.10210(7) 0.53043(8) 0.33977(8)
C61_2 C 0.08977(8) 0.46957(8) 0.35210(7)
H32_2 H 0.2171 0.5939 0.3980
H33_2 H 0.2829 0.6020 0.4061
H34_2 H 0.3439 0.6480 0.2829
H35_2 H 0.0939 0.5329 0.3520
H36_2 H 0.1020 0.4671 0.3439
C62_2 C 0.16685(11) 0.51417(11) 0.36019(12)
C63_2 C 0.33315(11) 0.63981(12) 0.48583(11)
C64_2 C 0.26417(11) 0.61019(12) 0.33315(11)
C65_2 C 0.01417(11) 0.58315(11) 0.38981(12)
C66_2 C 0.13981(12) 0.41685(11) 0.26417(11)
H37_2 H 0.1657 0.5039 0.3494
H38_2 H 0.3343 0.6506 0.4961
H39_2 H 0.2539 0.5994 0.3343
H40_2 H 0.0039 0.5843 0.4006
H41_2 H 0.1506 0.4157 0.2539
C67_2 C 0.18485(12) 0.52640(13) 0.36085(13)
C68_2 C 0.31515(12) 0.63915(13) 0.47360(13)
C69_2 C 0.27640(13) 0.61085(13) 0.31515(12)
C70_2 C 0.02640(13) 0.56515(12) 0.38915(13)
C71_2 C 0.13915(13) 0.43485(12) 0.27640(13)
H42_2 H 0.1956 0.5245 0.3507
H43_2 H 0.3044 0.6493 0.4755
H44_2 H 0.2745 0.6007 0.3044
H45_2 H 0.0245 0.5544 0.3993
H46_2 H 0.1493 0.4456 0.2745
C72_2 C 0.18692(11) 0.54123(12) 0.37624(11)
C73_2 C 0.31308(11) 0.62376(11) 0.45877(12)
C74_2 C 0.29123(12) 0.62624(11) 0.31308(11)
C75_2 C 0.04123(12) 0.56308(11) 0.37376(11)
C76_2 C 0.12376(11) 0.43692(11) 0.29123(12)
H47_2 H 0.1990 0.5500 0.3769
H48_2 H 0.3010 0.6231 0.4500
H49_2 H 0.3000 0.6269 0.3010
H50_2 H 0.0500 0.5510 0.3731
H51_2 H 0.1231 0.4490 0.3000
C77_2 C 0.17084(9) 0.54316(9) 0.39104(9)
C78_2 C 0.32916(9) 0.60896(9) 0.45684(9)
C79_2 C 0.29316(9) 0.64104(9) 0.32916(9)
C80_2 C 0.04316(9) 0.57916(9) 0.35896(9)
C81_2 C 0.10896(9) 0.42084(9) 0.29316(9)
C82_2 C 0.15339(8) 0.53041(8) 0.38913(8)
C83_2 C 0.34661(8) 0.61087(8) 0.46959(8)
C84_2 C 0.28041(8) 0.63913(8) 0.34661(8)
C85_2 C 0.03041(8) 0.59661(8) 0.36087(8)
C86_2 C 0.11087(8) 0.40339(8) 0.28041(8)
H52_2 H 0.1424 0.5319 0.3991
H53_2 H 0.3576 0.6009 0.4681
H54_2 H 0.2819 0.6491 0.3576
H55_2 H 0.0319 0.6076 0.3509
H56_2 H 0.1009 0.3924 0.2819
C87_2 C 0.17172(8) 0.55918(8) 0.40778(8)
C88_2 C 0.32828(8) 0.59222(8) 0.44082(8)
C89_2 C 0.30918(8) 0.65778(8) 0.32828(8)
C90_2 C 0.05918(8) 0.57828(8) 0.34222(8)
C91_2 C 0.09222(8) 0.42172(8) 0.30918(8)
C92_2 C 0.18865(8) 0.58475(9) 0.42523(8)
C93_2 C 0.31135(8) 0.57477(8) 0.41525(9)
C94_2 C 0.33475(9) 0.67523(8) 0.31135(8)
C95_2 C 0.08475(9) 0.56135(8) 0.32477(8)
C96_2 C 0.07477(8) 0.43865(8) 0.33475(9)
C97_2 C 0.15556(8) 0.57626(9) 0.43426(8)
C98_2 C 0.34444(8) 0.56574(8) 0.42374(9)
C99_2 C 0.32626(9) 0.68426(8) 0.34444(8)
C100_2 C 0.07626(9) 0.59444(8) 0.31574(8)
C101_2 C 0.06574(8) 0.40556(8) 0.32626(9)
C102_2 C 0.13710(8) 0.59661(9) 0.46148(8)
C103_2 C 0.36290(8) 0.53852(8) 0.40339(9)
C104_2 C 0.34661(9) 0.71148(8) 0.36290(8)
C105_2 C 0.09661(9) 0.61290(8) 0.28852(8)
C106_2 C 0.03852(8) 0.38710(8) 0.34661(9)
H57_2 H 0.1495 0.6049 0.4626
H58_2 H 0.3505 0.5374 0.3951
H59_2 H 0.3549 0.7126 0.3505
H60_2 H 0.1049 0.6005 0.2874
H61_2 H 0.0374 0.3995 0.3549
C107_2 C 0.13688(9) 0.58030(10) 0.44699(9)
C108_2 C 0.36312(9) 0.55301(9) 0.41970(10)
C109_2 C 0.33030(10) 0.69699(9) 0.36312(9)
C110_2 C 0.08030(10) 0.61312(9) 0.30301(9)
C111_2 C 0.05301(9) 0.38688(9) 0.33030(10)
C112_2 C 0.11869(11) 0.56850(12) 0.44504(12)
C113_2 C 0.38131(11) 0.55496(12) 0.43150(12)
C114_2 C 0.31850(12) 0.69504(12) 0.38131(11)
C115_2 C 0.06850(12) 0.63131(11) 0.30496(12)
C116_2 C 0.05496(12) 0.36869(11) 0.31850(12)
H62_2 H 0.1178 0.5573 0.4352
H63_2 H 0.3822 0.5648 0.4427
H64_2 H 0.3073 0.6852 0.3822
H65_2 H 0.0573 0.6322 0.3148
H66_2 H 0.0648 0.3678 0.3073
C117_2 C 0.10183(12) 0.57345(14) 0.45774(13)
C118_2 C 0.39817(12) 0.54226(13) 0.42655(14)
C119_2 C 0.32345(14) 0.70774(13) 0.39817(12)
C120_2 C 0.07345(14) 0.64817(12) 0.29226(13)
C121_2 C 0.04226(13) 0.35183(12) 0.32345(14)
H67_2 H 0.0891 0.5658 0.4566
H68_2 H 0.4109 0.5434 0.4342
H69_2 H 0.3158 0.7066 0.4109
H70_2 H 0.0658 0.6609 0.2934
H71_2 H 0.0434 0.3391 0.3158
C122_2 C 0.10372(10) 0.58960(12) 0.47207(11)
C123_2 C 0.39628(10) 0.52793(11) 0.41040(12)
C124_2 C 0.33960(12) 0.72207(11) 0.39628(10)
C125_2 C 0.08960(12) 0.64628(10) 0.27793(11)
C126_2 C 0.02793(11) 0.35372(10) 0.33960(12)
H72_2 H 0.0922 0.5925 0.4811
H73_2 H 0.4078 0.5189 0.4075
H74_2 H 0.3425 0.7311 0.4078
H75_2 H 0.0925 0.6578 0.2689
H76_2 H 0.0189 0.3422 0.3425
C127_2 C 0.01698(11) 0.66723(11) 0.11170(12)
C128_2 C 0.13830(12) 0.73302(11) 0.16723(11)
C129_2 C 0.16723(11) 0.63830(12) 0.23302(11)
C130_2 C 0.23302(11) 0.58277(11) 0.11170(12)
C131_2 C 0.11170(12) 0.51698(11) 0.16723(11)
H77_2 H 0.0064 0.6661 0.1013
H78_2 H 0.1487 0.7436 0.1661
H79_2 H 0.1661 0.6487 0.2436
H80_2 H 0.2436 0.5839 0.1013
H81_2 H 0.1013 0.5064 0.1661
C132_2 C 0.02886(14) 0.68515(12) 0.11236(15)
C133_2 C 0.13764(15) 0.72114(14) 0.18515(12)
C134_2 C 0.18515(12) 0.63764(15) 0.22114(14)
C135_2 C 0.22114(14) 0.56485(12) 0.11236(15)
C136_2 C 0.11236(15) 0.52886(14) 0.18515(12)
H82_2 H 0.0263 0.6962 0.1027
H83_2 H 0.1473 0.7237 0.1962
H84_2 H 0.1962 0.6473 0.2237
H85_2 H 0.2237 0.5538 0.1027
H86_2 H 0.1027 0.5263 0.1962
C137_2 C 0.04455(13) 0.68690(12) 0.12719(13)
C138_2 C 0.12281(13) 0.70545(13) 0.18690(12)
C139_2 C 0.18690(12) 0.62281(13) 0.20545(13)
C140_2 C 0.20545(13) 0.56310(12) 0.12719(13)
C141_2 C 0.12719(13) 0.54455(13) 0.18690(12)
H87_2 H 0.0530 0.6991 0.1280
H88_2 H 0.1220 0.6970 0.1991
H89_2 H 0.1991 0.6220 0.1970
H90_2 H 0.1970 0.5509 0.1280
H91_2 H 0.1280 0.5530 0.1991
C142_2 C 0.04766(10) 0.67016(10) 0.14103(11)
C143_2 C 0.10897(11) 0.70234(10) 0.17016(10)
C144_2 C 0.17016(10) 0.60897(11) 0.20234(10)
C145_2 C 0.20234(10) 0.57984(10) 0.14103(11)
C146_2 C 0.14103(11) 0.54766(10) 0.17016(10)
C147_2 C 0.03474(8) 0.65283(9) 0.13959(9)
C148_2 C 0.11041(9) 0.71526(8) 0.15283(9)
C149_2 C 0.15283(9) 0.61041(9) 0.21526(8)
C150_2 C 0.21526(8) 0.59717(9) 0.13959(9)
C151_2 C 0.13959(9) 0.53474(8) 0.15283(9)
H92_2 H 0.0366 0.6417 0.1493
H93_2 H 0.1007 0.7134 0.1417
H94_2 H 0.1417 0.6007 0.2134
H95_2 H 0.2134 0.6083 0.1493
H96_2 H 0.1493 0.5366 0.1417
C152_2 C 0.09264(10) 0.68605(10) 0.17111(10)
C153_2 C 0.06395(10) 0.67111(10) 0.15736(10)
C154_2 C 0.17111(10) 0.59264(10) 0.18605(10)
C155_2 C 0.15736(10) 0.56395(10) 0.17111(10)
C156_2 C 0.18605(10) 0.57889(10) 0.15736(10)
Co7_3 Co 1.0000 0.629081(12) 0.379081(12)
Co11_2 Co 0.997768(14) 0.6250 0.1250
Co4_4 Co 0.629081(12) 0.0000 0.879081(12)
S7_3 S 0.67256(3) 0.04384(3) 0.83635(3)
S9_3 S 0.63094(8) 0.00415(4) 0.54936(4)
S10_3 S 0.61906(8) 0.00415(4) 0.70064(4)
N15_3 N 0.64419(7) 0.02418(6) 0.86307(7)
N27_3 N 0.63395(6) 0.01484(7) 0.90974(7)
N34_3 N 0.59893(7) 0.01601(7) 0.87609(7)
N62_3 N 0.65106(8) 0.01961(7) 0.62510(8)
N63_3 N 0.59894(8) 0.01961(7) 0.62490(8)
C31_3 C 0.65578(8) 0.03286(8) 0.85203(9)
C33_3 C 0.62880(12) 0.00110(9) 0.57463(12)
C34_3 C 0.62120(12) 0.00110(9) 0.67537(12)
Co1_4 Co 0.620919(12) 0.879081(12) 0.7500
Co2_3 Co 0.6250 0.752232(14) 0.6250
S1_3 S 0.57744(3) 0.83635(3) 0.70616(3)
S2_3 S 0.54936(4) 0.74585(4) 0.61906(8)
N1_3 N 0.60581(7) 0.86307(7) 0.72582(6)
N2_3 N 0.59248(8) 0.75105(7) 0.62261(7)
N3_3 N 0.73516(7) 0.84026(7) 0.63395(6)
N4_3 N 0.65107(7) 0.87609(7) 0.73399(7)
N5_3 N 0.68919(7) 0.84011(7) 0.67959(7)
N6_3 N 0.65420(7) 0.83074(7) 0.68836(7)
N7_3 N 0.67257(7) 0.81193(7) 0.66194(8)
N8_3 N 0.62099(7) 0.77619(7) 0.64869(8)
N9_3 N 0.62510(8) 0.73039(7) 0.59894(8)
N10_3 N 0.67187(8) 0.68629(8) 0.59393(8)
C1_3 C 0.59422(8) 0.85203(9) 0.71714(8)
C2_3 C 0.57463(12) 0.74890(9) 0.62120(12)
C3_3 C 0.73888(10) 0.82240(11) 0.62342(10)
H1_3 H 0.7498 0.8223 0.6133
C4_3 C 0.72763(11) 0.80414(13) 0.62654(12)
H2_3 H 0.7314 0.7917 0.6193
C5_3 C 0.71088(10) 0.80417(12) 0.64020(10)
H3_3 H 0.7024 0.7921 0.6420
C6_3 C 0.70683(9) 0.82250(9) 0.65120(8)
C7_3 C 0.71957(8) 0.83977(8) 0.64790(7)
H4_3 H 0.7171 0.8520 0.6561
C8_3 C 0.66685(11) 0.88981(12) 0.73583(11)
H5_3 H 0.6657 0.9006 0.7461
C9_3 C 0.68485(12) 0.88915(13) 0.72360(13)
H6_3 H 0.6956 0.8993 0.7255
C10_3 C 0.68692(11) 0.87376(11) 0.70877(12)
H7_3 H 0.6990 0.8731 0.7000
C11_3 C 0.67084(9) 0.85896(9) 0.70684(9)
C12_3 C 0.65339(8) 0.86087(8) 0.71959(8)
H8_3 H 0.6424 0.8509 0.7181
C13_3 C 0.67172(8) 0.84222(8) 0.69082(8)
C14_3 C 0.68865(8) 0.82477(8) 0.66525(9)
C15_3 C 0.65556(8) 0.81574(8) 0.67374(9)
C16_3 C 0.63710(8) 0.78852(8) 0.65339(9)
H9_3 H 0.6495 0.7874 0.6451
C17_3 C 0.63688(9) 0.80301(9) 0.66970(10)
C18_3 C 0.61869(11) 0.80496(12) 0.68150(12)
H10_3 H 0.6178 0.8148 0.6927
C19_3 C 0.60183(12) 0.79226(13) 0.67655(14)
H11_3 H 0.5891 0.7934 0.6842
C20_3 C 0.60372(10) 0.77793(11) 0.66040(12)
H12_3 H 0.5922 0.7689 0.6575
C21_3 C 0.61170(12) 0.73302(11) 0.58277(11)
H13_3 H 0.6013 0.7436 0.5839
C22_3 C 0.61236(15) 0.72114(14) 0.56485(12)
H14_3 H 0.6027 0.7237 0.5538
C23_3 C 0.62719(13) 0.70545(13) 0.56310(12)
H15_3 H 0.6280 0.6970 0.5509
C24_3 C 0.64103(11) 0.70234(10) 0.57984(10)
C25_3 C 0.63959(9) 0.71526(8) 0.59717(9)
H16_3 H 0.6493 0.7134 0.6083
C26_3 C 0.65736(10) 0.68605(10) 0.57889(10)
Co3_3 Co 0.5000 0.870919(12) 0.620919(12)
Co4_5 Co 0.629081(12) 1.0000 0.879081(12)
Co5_3 Co 0.7500 0.870919(12) 0.629081(12)
Co6_3 Co 0.629081(12) 0.7500 0.870919(12)
Co7_4 Co 0.629081(12) 0.879081(12) 0.5000
Co8_3 Co 0.370919(12) 0.7500 0.629081(12)
Co9_3 Co 0.6250 0.997768(14) 0.6250
Co10_3 Co 0.502232(14) 0.8750 0.8750
Co11_3 Co 0.6250 0.6250 0.497768(14)
Co12_2 Co 0.752232(14) 0.6250 0.6250
Co13_2 Co 0.747768(14) 0.8750 0.8750
Co14_3 Co 0.6250 0.6250 0.752232(14)
Co15_3 Co 0.497768(14) 0.6250 0.6250
Co16_3 Co 0.3750 0.8750 0.502232(14)
S3_3 S 0.66365(3) 0.92256(3) 0.79384(3)
S4_3 S 0.54384(3) 0.91365(3) 0.57744(3)
S5_3 S 0.45616(3) 0.82744(3) 0.66365(3)
S6_3 S 0.58635(3) 0.95616(3) 0.92256(3)
S8_3 S 0.70064(4) 0.74585(4) 0.63094(8)
S11_3 S 0.49585(4) 0.86906(8) 0.95064(4)
S12_3 S 0.49585(4) 0.88094(8) 0.79936(4)
N11_3 N 0.63693(7) 0.89419(7) 0.77418(6)
N12_3 N 0.52418(6) 0.88693(7) 0.60581(7)
N13_3 N 0.47582(6) 0.85581(7) 0.63693(7)
N14_3 N 0.61307(7) 0.97582(6) 0.89419(7)
N16_3 N 0.65752(8) 0.75105(7) 0.62739(7)
N17_3 N 0.62739(7) 0.99895(7) 0.59248(8)
N18_3 N 0.62261(7) 0.99895(7) 0.65752(8)
N19_3 N 0.50105(7) 0.87261(7) 0.90752(8)
N20_3 N 0.50105(7) 0.87739(7) 0.84248(8)
N21_3 N 0.61605(6) 0.90974(7) 0.73516(7)
N22_3 N 0.59026(7) 0.88395(6) 0.76484(7)
N23_3 N 0.65974(7) 0.76484(7) 0.86605(6)
N24_3 N 0.51484(7) 0.84026(7) 0.61605(6)
N25_3 N 0.48516(7) 0.86605(6) 0.59026(7)
N26_3 N 0.65974(7) 0.98516(7) 0.88395(6)
N28_3 N 0.51601(7) 0.87391(7) 0.65107(7)
N29_3 N 0.62609(7) 0.98399(7) 0.84893(7)
N30_3 N 0.62391(7) 0.84893(7) 0.76601(7)
N31_3 N 0.59893(7) 0.87609(7) 0.51601(7)
N32_3 N 0.40107(7) 0.76601(7) 0.62609(7)
N33_3 N 0.48399(7) 0.90107(7) 0.62391(7)
N35_3 N 0.57041(7) 0.90989(7) 0.68919(7)
N36_3 N 0.59011(7) 0.92959(7) 0.81081(7)
N37_3 N 0.65989(7) 0.81081(7) 0.82041(7)
N38_3 N 0.56081(7) 0.84011(7) 0.57041(7)
N39_3 N 0.43919(7) 0.82041(7) 0.59011(7)
N40_3 N 0.56164(7) 0.91926(7) 0.65420(7)
N41_3 N 0.58074(7) 0.93836(7) 0.84580(7)
N42_3 N 0.66926(7) 0.84580(7) 0.81164(7)
N43_3 N 0.59580(7) 0.83074(7) 0.56164(7)
N44_3 N 0.40420(7) 0.81164(7) 0.58074(7)
N45_3 N 0.58806(8) 0.93807(7) 0.67257(7)
N46_3 N 0.56193(7) 0.91194(8) 0.82743(7)
N47_3 N 0.68807(7) 0.82743(7) 0.83806(8)
N48_3 N 0.57743(7) 0.81193(7) 0.58806(8)
N49_3 N 0.42257(7) 0.83806(8) 0.56193(7)
N50_3 N 0.60131(8) 0.97381(7) 0.62099(7)
N51_3 N 0.52619(7) 0.89869(8) 0.87901(7)
N52_3 N 0.72381(7) 0.87901(7) 0.85131(8)
N53_3 N 0.62901(7) 0.77619(7) 0.60131(8)
N54_3 N 0.37099(7) 0.85131(8) 0.52619(7)
N55_3 N 0.64869(8) 0.97381(7) 0.62901(7)
N56_3 N 0.52619(7) 0.85131(8) 0.87099(7)
N57_3 N 0.65106(8) 0.62510(8) 0.51961(7)
N58_3 N 0.73039(7) 0.65106(8) 0.62490(8)
N59_3 N 0.62490(8) 0.73039(7) 0.65106(8)
N60_3 N 0.59894(8) 0.62510(8) 0.73039(7)
N61_3 N 0.51961(7) 0.65106(8) 0.62510(8)
N64_3 N 0.48039(7) 0.84894(8) 0.87490(8)
N65_3 N 0.48039(7) 0.90106(8) 0.87510(8)
N66_3 N 0.68629(8) 0.65607(8) 0.57813(8)
N67_3 N 0.65607(8) 0.67187(8) 0.56371(8)
N68_3 N 0.57813(8) 0.68629(8) 0.65607(8)
N69_3 N 0.56371(8) 0.65607(8) 0.67187(8)
N70_3 N 0.59393(8) 0.67187(8) 0.68629(8)
C27_3 C 0.64797(9) 0.90578(8) 0.78286(8)
C28_3 C 0.53286(8) 0.89797(9) 0.59422(8)
C29_3 C 0.46714(8) 0.84422(8) 0.64797(9)
C30_3 C 0.60203(9) 0.96714(8) 0.90578(8)
C32_3 C 0.67537(12) 0.74890(9) 0.62880(12)
C35_3 C 0.49890(9) 0.87120(12) 0.92537(12)
C36_3 C 0.49890(9) 0.87880(12) 0.82463(12)
C37_3 C 0.62658(10) 0.92760(11) 0.73888(10)
C38_3 C 0.57240(11) 0.87342(10) 0.76112(10)
C39_3 C 0.67760(11) 0.76112(10) 0.87658(10)
C40_3 C 0.51112(10) 0.82240(11) 0.62658(10)
C41_3 C 0.48888(10) 0.87658(10) 0.57240(11)
H17_3 H 0.6367 0.9277 0.7498
H18_3 H 0.5723 0.8633 0.7502
H19_3 H 0.6777 0.7502 0.8867
H20_3 H 0.5002 0.8223 0.6367
H21_3 H 0.4998 0.8867 0.5723
C42_3 C 0.62346(12) 0.94586(13) 0.72763(11)
C43_3 C 0.55414(13) 0.87654(12) 0.77237(11)
C44_3 C 0.69586(13) 0.77237(11) 0.87346(12)
C45_3 C 0.52237(11) 0.80414(13) 0.62346(12)
C46_3 C 0.47763(11) 0.87346(12) 0.55414(13)
H22_3 H 0.6307 0.9583 0.7314
H23_3 H 0.5417 0.8693 0.7686
H24_3 H 0.7083 0.7686 0.8807
H25_3 H 0.5186 0.7917 0.6307
H26_3 H 0.4814 0.8807 0.5417
C47_3 C 0.60980(10) 0.94583(12) 0.71088(10)
C48_3 C 0.55417(12) 0.89020(10) 0.78912(10)
C49_3 C 0.69583(12) 0.78912(10) 0.85980(10)
C50_3 C 0.53912(10) 0.80417(12) 0.60980(10)
C51_3 C 0.46088(10) 0.85980(10) 0.55417(12)
H27_3 H 0.6080 0.9579 0.7024
H28_3 H 0.5421 0.8920 0.7976
H29_3 H 0.7079 0.7976 0.8580
H30_3 H 0.5476 0.7921 0.6080
H31_3 H 0.4524 0.8580 0.5421
C52_3 C 0.59880(8) 0.92750(9) 0.70683(9)
C53_3 C 0.57250(9) 0.90120(8) 0.79317(9)
C54_3 C 0.67750(9) 0.79317(9) 0.84880(8)
C55_3 C 0.54317(9) 0.82250(9) 0.59880(8)
C56_3 C 0.45683(9) 0.84880(8) 0.57250(9)
C57_3 C 0.60210(7) 0.91023(8) 0.71957(8)
C58_3 C 0.58977(8) 0.89790(7) 0.78043(8)
C59_3 C 0.66023(8) 0.78043(8) 0.85210(7)
C60_3 C 0.53043(8) 0.83977(8) 0.60210(7)
C61_3 C 0.46957(8) 0.85210(7) 0.58977(8)
H32_3 H 0.5939 0.8980 0.7171
H33_3 H 0.6020 0.9061 0.7829
H34_3 H 0.6480 0.7829 0.8439
H35_3 H 0.5329 0.8520 0.5939
H36_3 H 0.4671 0.8439 0.6020
C62_3 C 0.51417(11) 0.86019(12) 0.66685(11)
C63_3 C 0.63981(12) 0.98583(11) 0.83315(11)
C64_3 C 0.61019(12) 0.83315(11) 0.76417(11)
C65_3 C 0.58315(11) 0.88981(12) 0.51417(11)
C66_3 C 0.41685(11) 0.76417(11) 0.63981(12)
H37_3 H 0.5039 0.8494 0.6657
H38_3 H 0.6506 0.9961 0.8343
H39_3 H 0.5994 0.8343 0.7539
H40_3 H 0.5843 0.9006 0.5039
H41_3 H 0.4157 0.7539 0.6506
C67_3 C 0.52640(13) 0.86085(13) 0.68485(12)
C68_3 C 0.63915(13) 0.97360(13) 0.81515(12)
C69_3 C 0.61085(13) 0.81515(12) 0.77640(13)
C70_3 C 0.56515(12) 0.88915(13) 0.52640(13)
C71_3 C 0.43485(12) 0.77640(13) 0.63915(13)
H42_3 H 0.5245 0.8507 0.6956
H43_3 H 0.6493 0.9755 0.8044
H44_3 H 0.6007 0.8044 0.7745
H45_3 H 0.5544 0.8993 0.5245
H46_3 H 0.4456 0.7745 0.6493
C72_3 C 0.54123(12) 0.87624(11) 0.68692(11)
C73_3 C 0.62376(11) 0.95877(12) 0.81308(11)
C74_3 C 0.62624(11) 0.81308(11) 0.79123(12)
C75_3 C 0.56308(11) 0.87376(11) 0.54123(12)
C76_3 C 0.43692(11) 0.79123(12) 0.62376(11)
H47_3 H 0.5500 0.8769 0.6990
H48_3 H 0.6231 0.9500 0.8010
H49_3 H 0.6269 0.8010 0.8000
H50_3 H 0.5510 0.8731 0.5500
H51_3 H 0.4490 0.8000 0.6231
C77_3 C 0.54316(9) 0.89104(9) 0.67084(9)
C78_3 C 0.60896(9) 0.95684(9) 0.82916(9)
C79_3 C 0.64104(9) 0.82916(9) 0.79316(9)
C80_3 C 0.57916(9) 0.85896(9) 0.54316(9)
C81_3 C 0.42084(9) 0.79316(9) 0.60896(9)
C82_3 C 0.53041(8) 0.88913(8) 0.65339(8)
C83_3 C 0.61087(8) 0.96959(8) 0.84661(8)
C84_3 C 0.63913(8) 0.84661(8) 0.78041(8)
C85_3 C 0.59661(8) 0.86087(8) 0.53041(8)
C86_3 C 0.40339(8) 0.78041(8) 0.61087(8)
H52_3 H 0.5319 0.8991 0.6424
H53_3 H 0.6009 0.9681 0.8576
H54_3 H 0.6491 0.8576 0.7819
H55_3 H 0.6076 0.8509 0.5319
H56_3 H 0.3924 0.7819 0.6009
C87_3 C 0.55918(8) 0.90778(8) 0.67172(8)
C88_3 C 0.59222(8) 0.94082(8) 0.82828(8)
C89_3 C 0.65778(8) 0.82828(8) 0.80918(8)
C90_3 C 0.57828(8) 0.84222(8) 0.55918(8)
C91_3 C 0.42172(8) 0.80918(8) 0.59222(8)
C92_3 C 0.58475(9) 0.92523(8) 0.68865(8)
C93_3 C 0.57477(8) 0.91525(9) 0.81135(8)
C94_3 C 0.67523(8) 0.81135(8) 0.83475(9)
C95_3 C 0.56135(8) 0.82477(8) 0.58475(9)
C96_3 C 0.43865(8) 0.83475(9) 0.57477(8)
C97_3 C 0.57626(9) 0.93426(8) 0.65556(8)
C98_3 C 0.56574(8) 0.92374(9) 0.84444(8)
C99_3 C 0.68426(8) 0.84444(8) 0.82626(9)
C100_3 C 0.59444(8) 0.81574(8) 0.57626(9)
C101_3 C 0.40556(8) 0.82626(9) 0.56574(8)
C102_3 C 0.59661(9) 0.96148(8) 0.63710(8)
C103_3 C 0.53852(8) 0.90339(9) 0.86290(8)
C104_3 C 0.71148(8) 0.86290(8) 0.84661(9)
C105_3 C 0.61290(8) 0.78852(8) 0.59661(9)
C106_3 C 0.38710(8) 0.84661(9) 0.53852(8)
H57_3 H 0.6049 0.9626 0.6495
H58_3 H 0.5374 0.8951 0.8505
H59_3 H 0.7126 0.8505 0.8549
H60_3 H 0.6005 0.7874 0.6049
H61_3 H 0.3995 0.8549 0.5374
C107_3 C 0.58030(10) 0.94699(9) 0.63688(9)
C108_3 C 0.55301(9) 0.91970(10) 0.86312(9)
C109_3 C 0.69699(9) 0.86312(9) 0.83030(10)
C110_3 C 0.61312(9) 0.80301(9) 0.58030(10)
C111_3 C 0.38688(9) 0.83030(10) 0.55301(9)
C112_3 C 0.56850(12) 0.94504(12) 0.61869(11)
C113_3 C 0.55496(12) 0.93150(12) 0.88131(11)
C114_3 C 0.69504(12) 0.88131(11) 0.81850(12)
C115_3 C 0.63131(11) 0.80496(12) 0.56850(12)
C116_3 C 0.36869(11) 0.81850(12) 0.55496(12)
H62_3 H 0.5573 0.9352 0.6178
H63_3 H 0.5648 0.9427 0.8822
H64_3 H 0.6852 0.8822 0.8073
H65_3 H 0.6322 0.8148 0.5573
H66_3 H 0.3678 0.8073 0.5648
C117_3 C 0.57345(14) 0.95774(13) 0.60183(12)
C118_3 C 0.54226(13) 0.92655(14) 0.89817(12)
C119_3 C 0.70774(13) 0.89817(12) 0.82345(14)
C120_3 C 0.64817(12) 0.79226(13) 0.57345(14)
C121_3 C 0.35183(12) 0.82345(14) 0.54226(13)
H67_3 H 0.5658 0.9566 0.5891
H68_3 H 0.5434 0.9342 0.9109
H69_3 H 0.7066 0.9109 0.8158
H70_3 H 0.6609 0.7934 0.5658
H71_3 H 0.3391 0.8158 0.5434
C122_3 C 0.58960(12) 0.97207(11) 0.60372(10)
C123_3 C 0.52793(11) 0.91040(12) 0.89628(10)
C124_3 C 0.72207(11) 0.89628(10) 0.83960(12)
C125_3 C 0.64628(10) 0.77793(11) 0.58960(12)
C126_3 C 0.35372(10) 0.83960(12) 0.52793(11)
H72_3 H 0.5925 0.9811 0.5922
H73_3 H 0.5189 0.9075 0.9078
H74_3 H 0.7311 0.9078 0.8425
H75_3 H 0.6578 0.7689 0.5925
H76_3 H 0.3422 0.8425 0.5189
C127_3 C 0.66723(11) 0.61170(12) 0.51698(11)
C128_3 C 0.73302(11) 0.66723(11) 0.63830(12)
C129_3 C 0.63830(12) 0.73302(11) 0.66723(11)
C130_3 C 0.58277(11) 0.61170(12) 0.73302(11)
C131_3 C 0.51698(11) 0.66723(11) 0.61170(12)
H77_3 H 0.6661 0.6013 0.5064
H78_3 H 0.7436 0.6661 0.6487
H79_3 H 0.6487 0.7436 0.6661
H80_3 H 0.5839 0.6013 0.7436
H81_3 H 0.5064 0.6661 0.6013
C132_3 C 0.68515(12) 0.61236(15) 0.52886(14)
C133_3 C 0.72114(14) 0.68515(12) 0.63764(15)
C134_3 C 0.63764(15) 0.72114(14) 0.68515(12)
C135_3 C 0.56485(12) 0.61236(15) 0.72114(14)
C136_3 C 0.52886(14) 0.68515(12) 0.61236(15)
H82_3 H 0.6962 0.6027 0.5263
H83_3 H 0.7237 0.6962 0.6473
H84_3 H 0.6473 0.7237 0.6962
H85_3 H 0.5538 0.6027 0.7237
H86_3 H 0.5263 0.6962 0.6027
C137_3 C 0.68690(12) 0.62719(13) 0.54455(13)
C138_3 C 0.70545(13) 0.68690(12) 0.62281(13)
C139_3 C 0.62281(13) 0.70545(13) 0.68690(12)
C140_3 C 0.56310(12) 0.62719(13) 0.70545(13)
C141_3 C 0.54455(13) 0.68690(12) 0.62719(13)
H87_3 H 0.6991 0.6280 0.5530
H88_3 H 0.6970 0.6991 0.6220
H89_3 H 0.6220 0.6970 0.6991
H90_3 H 0.5509 0.6280 0.6970
H91_3 H 0.5530 0.6991 0.6280
C142_3 C 0.67016(10) 0.64103(11) 0.54766(10)
C143_3 C 0.70234(10) 0.67016(10) 0.60897(11)
C144_3 C 0.60897(11) 0.70234(10) 0.67016(10)
C145_3 C 0.57984(10) 0.64103(11) 0.70234(10)
C146_3 C 0.54766(10) 0.67016(10) 0.64103(11)
C147_3 C 0.65283(9) 0.63959(9) 0.53474(8)
C148_3 C 0.71526(8) 0.65283(9) 0.61041(9)
C149_3 C 0.61041(9) 0.71526(8) 0.65283(9)
C150_3 C 0.59717(9) 0.63959(9) 0.71526(8)
C151_3 C 0.53474(8) 0.65283(9) 0.63959(9)
H92_3 H 0.6417 0.6493 0.5366
H93_3 H 0.7134 0.6417 0.6007
H94_3 H 0.6007 0.7134 0.6417
H95_3 H 0.6083 0.6493 0.7134
H96_3 H 0.5366 0.6417 0.6493
C152_3 C 0.68605(10) 0.67111(10) 0.59264(10)
C153_3 C 0.67111(10) 0.65736(10) 0.56395(10)
C154_3 C 0.59264(10) 0.68605(10) 0.67111(10)
C155_3 C 0.56395(10) 0.67111(10) 0.65736(10)
C156_3 C 0.57889(10) 0.65736(10) 0.68605(10)
Co4_6 Co 0.0000 0.379081(12) 0.129081(12)
S7_4 S 0.04384(3) 0.33635(3) 0.17256(3)
S9_4 S 0.00415(4) 0.04936(4) 0.13094(8)
S10_4 S 0.00415(4) 0.20064(4) 0.11906(8)
N15_4 N 0.02418(6) 0.36307(7) 0.14419(7)
N27_4 N 0.01484(7) 0.40974(7) 0.13395(6)
N34_4 N 0.01601(7) 0.37609(7) 0.09893(7)
N62_4 N 0.01961(7) 0.12510(8) 0.15106(8)
N63_4 N 0.01961(7) 0.12490(8) 0.09894(8)
C31_4 C 0.03286(8) 0.35203(9) 0.15578(8)
C33_4 C 0.00110(9) 0.07463(12) 0.12880(12)
C34_4 C 0.00110(9) 0.17537(12) 0.12120(12)
Co1_5 Co 0.879081(12) 0.2500 0.120919(12)
Co2_4 Co 0.752232(14) 0.1250 0.1250
S1_4 S 0.83635(3) 0.20616(3) 0.07744(3)
S2_4 S 0.74585(4) 0.11906(8) 0.04936(4)
N1_4 N 0.86307(7) 0.22582(6) 0.10581(7)
N2_4 N 0.75105(7) 0.12261(7) 0.09248(8)
N3_4 N 0.84026(7) 0.13395(6) 0.23516(7)
N4_4 N 0.87609(7) 0.23399(7) 0.15107(7)
N5_4 N 0.84011(7) 0.17959(7) 0.18919(7)
N6_4 N 0.83074(7) 0.18836(7) 0.15420(7)
N7_4 N 0.81193(7) 0.16194(8) 0.17257(7)
N8_4 N 0.77619(7) 0.14869(8) 0.12099(7)
N9_4 N 0.73039(7) 0.09894(8) 0.12510(8)
N10_4 N 0.68629(8) 0.09393(8) 0.17187(8)
C1_4 C 0.85203(9) 0.21714(8) 0.09422(8)
C2_4 C 0.74890(9) 0.12120(12) 0.07463(12)
C3_4 C 0.82240(11) 0.12342(10) 0.23888(10)
H1_4 H 0.8223 0.1133 0.2498
C4_4 C 0.80414(13) 0.12654(12) 0.22763(11)
H2_4 H 0.7917 0.1193 0.2314
C5_4 C 0.80417(12) 0.14020(10) 0.21088(10)
H3_4 H 0.7921 0.1420 0.2024
C6_4 C 0.82250(9) 0.15120(8) 0.20683(9)
C7_4 C 0.83977(8) 0.14790(7) 0.21957(8)
H4_4 H 0.8520 0.1561 0.2171
C8_4 C 0.88981(12) 0.23583(11) 0.16685(11)
H5_4 H 0.9006 0.2461 0.1657
C9_4 C 0.88915(13) 0.22360(13) 0.18485(12)
H6_4 H 0.8993 0.2255 0.1956
C10_4 C 0.87376(11) 0.20877(12) 0.18692(11)
H7_4 H 0.8731 0.2000 0.1990
C11_4 C 0.85896(9) 0.20684(9) 0.17084(9)
C12_4 C 0.86087(8) 0.21959(8) 0.15339(8)
H8_4 H 0.8509 0.2181 0.1424
C13_4 C 0.84222(8) 0.19082(8) 0.17172(8)
C14_4 C 0.82477(8) 0.16525(9) 0.18865(8)
C15_4 C 0.81574(8) 0.17374(9) 0.15556(8)
C16_4 C 0.78852(8) 0.15339(9) 0.13710(8)
H9_4 H 0.7874 0.1451 0.1495
C17_4 C 0.80301(9) 0.16970(10) 0.13688(9)
C18_4 C 0.80496(12) 0.18150(12) 0.11869(11)
H10_4 H 0.8148 0.1927 0.1178
C19_4 C 0.79226(13) 0.17655(14) 0.10183(12)
H11_4 H 0.7934 0.1842 0.0891
C20_4 C 0.77793(11) 0.16040(12) 0.10372(10)
H12_4 H 0.7689 0.1575 0.0922
C21_4 C 0.73302(11) 0.08277(11) 0.11170(12)
H13_4 H 0.7436 0.0839 0.1013
C22_4 C 0.72114(14) 0.06485(12) 0.11236(15)
H14_4 H 0.7237 0.0538 0.1027
C23_4 C 0.70545(13) 0.06310(12) 0.12719(13)
H15_4 H 0.6970 0.0509 0.1280
C24_4 C 0.70234(10) 0.07984(10) 0.14103(11)
C25_4 C 0.71526(8) 0.09717(9) 0.13959(9)
H16_4 H 0.7134 0.1083 0.1493
C26_4 C 0.68605(10) 0.07889(10) 0.15736(10)
Co3_4 Co 0.870919(12) 0.120919(12) 0.0000
Co4_7 Co 1.0000 0.379081(12) 0.129081(12)
Co5_4 Co 0.870919(12) 0.129081(12) 0.2500
Co6_4 Co 0.7500 0.370919(12) 0.129081(12)
Co7_5 Co 0.879081(12) 0.0000 0.129081(12)
Co9_4 Co 0.997768(14) 0.1250 0.1250
Co10_4 Co 0.8750 0.3750 0.002232(14)
Co12_3 Co 0.6250 0.1250 0.252232(14)
Co13_3 Co 0.8750 0.3750 0.247768(14)
Co14_4 Co 0.6250 0.252232(14) 0.1250
S3_4 S 0.92256(3) 0.29384(3) 0.16365(3)
S4_4 S 0.91365(3) 0.07744(3) 0.04384(3)
S6_4 S 0.95616(3) 0.42256(3) 0.08635(3)
S8_4 S 0.74585(4) 0.13094(8) 0.20064(4)
N11_4 N 0.89419(7) 0.27418(6) 0.13693(7)
N12_4 N 0.88693(7) 0.10581(7) 0.02418(6)
N14_4 N 0.97582(6) 0.39419(7) 0.11307(7)
N16_4 N 0.75105(7) 0.12739(7) 0.15752(8)
N17_4 N 0.99895(7) 0.09248(8) 0.12739(7)
N18_4 N 0.99895(7) 0.15752(8) 0.12261(7)
N19_4 N 0.87261(7) 0.40752(8) 0.00105(7)
N20_4 N 0.87739(7) 0.34248(8) 0.00105(7)
N21_4 N 0.90974(7) 0.23516(7) 0.11605(6)
N22_4 N 0.88395(6) 0.26484(7) 0.09026(7)
N23_4 N 0.76484(7) 0.36605(6) 0.15974(7)
N24_4 N 0.84026(7) 0.11605(6) 0.01484(7)
N26_4 N 0.98516(7) 0.38395(6) 0.15974(7)
N28_4 N 0.87391(7) 0.15107(7) 0.01601(7)
N29_4 N 0.98399(7) 0.34893(7) 0.12609(7)
N30_4 N 0.84893(7) 0.26601(7) 0.12391(7)
N31_4 N 0.87609(7) 0.01601(7) 0.09893(7)
N35_4 N 0.90989(7) 0.18919(7) 0.07041(7)
N36_4 N 0.92959(7) 0.31081(7) 0.09011(7)
N37_4 N 0.81081(7) 0.32041(7) 0.15989(7)
N38_4 N 0.84011(7) 0.07041(7) 0.06081(7)
N40_4 N 0.91926(7) 0.15420(7) 0.06164(7)
N41_4 N 0.93836(7) 0.34580(7) 0.08074(7)
N42_4 N 0.84580(7) 0.31164(7) 0.16926(7)
N43_4 N 0.83074(7) 0.06164(7) 0.09580(7)
N45_4 N 0.93807(7) 0.17257(7) 0.08806(8)
N46_4 N 0.91194(8) 0.32743(7) 0.06193(7)
N47_4 N 0.82743(7) 0.33806(8) 0.18807(7)
N48_4 N 0.81193(7) 0.08806(8) 0.07743(7)
N50_4 N 0.97381(7) 0.12099(7) 0.10131(8)
N51_4 N 0.89869(8) 0.37901(7) 0.02619(7)
N52_4 N 0.87901(7) 0.35131(8) 0.22381(7)
N53_4 N 0.77619(7) 0.10131(8) 0.12901(7)
N55_4 N 0.97381(7) 0.12901(7) 0.14869(8)
N56_4 N 0.85131(8) 0.37099(7) 0.02619(7)
N57_4 N 0.62510(8) 0.01961(7) 0.15106(8)
N58_4 N 0.65106(8) 0.12490(8) 0.23039(7)
N59_4 N 0.73039(7) 0.15106(8) 0.12490(8)
N60_4 N 0.62510(8) 0.23039(7) 0.09894(8)
N61_4 N 0.65106(8) 0.12510(8) 0.01961(7)
N66_4 N 0.65607(8) 0.07813(8) 0.18629(8)
N67_4 N 0.67187(8) 0.06371(8) 0.15607(8)
N68_4 N 0.68629(8) 0.15607(8) 0.07813(8)
N69_4 N 0.65607(8) 0.17187(8) 0.06371(8)
N70_4 N 0.67187(8) 0.18629(8) 0.09393(8)
C27_4 C 0.90578(8) 0.28286(8) 0.14797(9)
C28_4 C 0.89797(9) 0.09422(8) 0.03286(8)
C30_4 C 0.96714(8) 0.40578(8) 0.10203(9)
C32_4 C 0.74890(9) 0.12880(12) 0.17537(12)
C37_4 C 0.92760(11) 0.23888(10) 0.12658(10)
C38_4 C 0.87342(10) 0.26112(10) 0.07240(11)
C39_4 C 0.76112(10) 0.37658(10) 0.17760(11)
C40_4 C 0.82240(11) 0.12658(10) 0.01112(10)
H17_4 H 0.9277 0.2498 0.1367
H18_4 H 0.8633 0.2502 0.0723
H19_4 H 0.7502 0.3867 0.1777
H20_4 H 0.8223 0.1367 0.0002
C42_4 C 0.94586(13) 0.22763(11) 0.12346(12)
C43_4 C 0.87654(12) 0.27237(11) 0.05414(13)
C44_4 C 0.77237(11) 0.37346(12) 0.19586(13)
C45_4 C 0.80414(13) 0.12346(12) 0.02237(11)
H22_4 H 0.9583 0.2314 0.1307
H23_4 H 0.8693 0.2686 0.0417
H24_4 H 0.7686 0.3807 0.2083
H25_4 H 0.7917 0.1307 0.0186
C47_4 C 0.94583(12) 0.21088(10) 0.10980(10)
C48_4 C 0.89020(10) 0.28912(10) 0.05417(12)
C49_4 C 0.78912(10) 0.35980(10) 0.19583(12)
C50_4 C 0.80417(12) 0.10980(10) 0.03912(10)
H27_4 H 0.9579 0.2024 0.1080
H28_4 H 0.8920 0.2976 0.0421
H29_4 H 0.7976 0.3580 0.2079
H30_4 H 0.7921 0.1080 0.0476
C52_4 C 0.92750(9) 0.20683(9) 0.09880(8)
C53_4 C 0.90120(8) 0.29317(9) 0.07250(9)
C54_4 C 0.79317(9) 0.34880(8) 0.17750(9)
C55_4 C 0.82250(9) 0.09880(8) 0.04317(9)
C57_4 C 0.91023(8) 0.21957(8) 0.10210(7)
C58_4 C 0.89790(7) 0.28043(8) 0.08977(8)
C59_4 C 0.78043(8) 0.35210(7) 0.16023(8)
C60_4 C 0.83977(8) 0.10210(7) 0.03043(8)
H32_4 H 0.8980 0.2171 0.0939
H33_4 H 0.9061 0.2829 0.1020
H34_4 H 0.7829 0.3439 0.1480
H35_4 H 0.8520 0.0939 0.0329
C62_4 C 0.86019(12) 0.16685(11) 0.01417(11)
C63_4 C 0.98583(11) 0.33315(11) 0.13981(12)
C64_4 C 0.83315(11) 0.26417(11) 0.11019(12)
C65_4 C 0.88981(12) 0.01417(11) 0.08315(11)
H37_4 H 0.8494 0.1657 0.0039
H38_4 H 0.9961 0.3343 0.1506
H39_4 H 0.8343 0.2539 0.0994
H40_4 H 0.9006 0.0039 0.0843
C67_4 C 0.86085(13) 0.18485(12) 0.02640(13)
C68_4 C 0.97360(13) 0.31515(12) 0.13915(13)
C69_4 C 0.81515(12) 0.27640(13) 0.11085(13)
C70_4 C 0.88915(13) 0.02640(13) 0.06515(12)
H42_4 H 0.8507 0.1956 0.0245
H43_4 H 0.9755 0.3044 0.1493
H44_4 H 0.8044 0.2745 0.1007
H45_4 H 0.8993 0.0245 0.0544
C72_4 C 0.87624(11) 0.18692(11) 0.04123(12)
C73_4 C 0.95877(12) 0.31308(11) 0.12376(11)
C74_4 C 0.81308(11) 0.29123(12) 0.12624(11)
C75_4 C 0.87376(11) 0.04123(12) 0.06308(11)
H47_4 H 0.8769 0.1990 0.0500
H48_4 H 0.9500 0.3010 0.1231
H49_4 H 0.8010 0.3000 0.1269
H50_4 H 0.8731 0.0500 0.0510
C77_4 C 0.89104(9) 0.17084(9) 0.04316(9)
C78_4 C 0.95684(9) 0.32916(9) 0.10896(9)
C79_4 C 0.82916(9) 0.29316(9) 0.14104(9)
C80_4 C 0.85896(9) 0.04316(9) 0.07916(9)
C82_4 C 0.88913(8) 0.15339(8) 0.03041(8)
C83_4 C 0.96959(8) 0.34661(8) 0.11087(8)
C84_4 C 0.84661(8) 0.28041(8) 0.13913(8)
C85_4 C 0.86087(8) 0.03041(8) 0.09661(8)
H52_4 H 0.8991 0.1424 0.0319
H53_4 H 0.9681 0.3576 0.1009
H54_4 H 0.8576 0.2819 0.1491
H55_4 H 0.8509 0.0319 0.1076
C87_4 C 0.90778(8) 0.17172(8) 0.05918(8)
C88_4 C 0.94082(8) 0.32828(8) 0.09222(8)
C89_4 C 0.82828(8) 0.30918(8) 0.15778(8)
C90_4 C 0.84222(8) 0.05918(8) 0.07828(8)
C92_4 C 0.92523(8) 0.18865(8) 0.08475(9)
C93_4 C 0.91525(9) 0.31135(8) 0.07477(8)
C94_4 C 0.81135(8) 0.33475(9) 0.17523(8)
C95_4 C 0.82477(8) 0.08475(9) 0.06135(8)
C97_4 C 0.93426(8) 0.15556(8) 0.07626(9)
C98_4 C 0.92374(9) 0.34444(8) 0.06574(8)
C99_4 C 0.84444(8) 0.32626(9) 0.18426(8)
C100_4 C 0.81574(8) 0.07626(9) 0.09444(8)
C102_4 C 0.96148(8) 0.13710(8) 0.09661(9)
C103_4 C 0.90339(9) 0.36290(8) 0.03852(8)
C104_4 C 0.86290(8) 0.34661(9) 0.21148(8)
C105_4 C 0.78852(8) 0.09661(9) 0.11290(8)
H57_4 H 0.9626 0.1495 0.1049
H58_4 H 0.8951 0.3505 0.0374
H59_4 H 0.8505 0.3549 0.2126
H60_4 H 0.7874 0.1049 0.1005
C107_4 C 0.94699(9) 0.13688(9) 0.08030(10)
C108_4 C 0.91970(10) 0.36312(9) 0.05301(9)
C109_4 C 0.86312(9) 0.33030(10) 0.19699(9)
C110_4 C 0.80301(9) 0.08030(10) 0.11312(9)
C112_4 C 0.94504(12) 0.11869(11) 0.06850(12)
C113_4 C 0.93150(12) 0.38131(11) 0.05496(12)
C114_4 C 0.88131(11) 0.31850(12) 0.19504(12)
C115_4 C 0.80496(12) 0.06850(12) 0.13131(11)
H62_4 H 0.9352 0.1178 0.0573
H63_4 H 0.9427 0.3822 0.0648
H64_4 H 0.8822 0.3073 0.1852
H65_4 H 0.8148 0.0573 0.1322
C117_4 C 0.95774(13) 0.10183(12) 0.07345(14)
C118_4 C 0.92655(14) 0.39817(12) 0.04226(13)
C119_4 C 0.89817(12) 0.32345(14) 0.20774(13)
C120_4 C 0.79226(13) 0.07345(14) 0.14817(12)
H67_4 H 0.9566 0.0891 0.0658
H68_4 H 0.9342 0.4109 0.0434
H69_4 H 0.9109 0.3158 0.2066
H70_4 H 0.7934 0.0658 0.1609
C122_4 C 0.97207(11) 0.10372(10) 0.08960(12)
C123_4 C 0.91040(12) 0.39628(10) 0.02793(11)
C124_4 C 0.89628(10) 0.33960(12) 0.22207(11)
C125_4 C 0.77793(11) 0.08960(12) 0.14628(10)
H72_4 H 0.9811 0.0922 0.0925
H73_4 H 0.9075 0.4078 0.0189
H74_4 H 0.9078 0.3425 0.2311
H75_4 H 0.7689 0.0925 0.1578
C127_4 C 0.61170(12) 0.01698(11) 0.16723(11)
C128_4 C 0.66723(11) 0.13830(12) 0.23302(11)
C129_4 C 0.73302(11) 0.16723(11) 0.13830(12)
C130_4 C 0.61170(12) 0.23302(11) 0.08277(11)
C131_4 C 0.66723(11) 0.11170(12) 0.01698(11)
H77_4 H 0.6013 0.0064 0.1661
H78_4 H 0.6661 0.1487 0.2436
H79_4 H 0.7436 0.1661 0.1487
H80_4 H 0.6013 0.2436 0.0839
H81_4 H 0.6661 0.1013 0.0064
C132_4 C 0.61236(15) 0.02886(14) 0.18515(12)
C133_4 C 0.68515(12) 0.13764(15) 0.22114(14)
C134_4 C 0.72114(14) 0.18515(12) 0.13764(15)
C135_4 C 0.61236(15) 0.22114(14) 0.06485(12)
C136_4 C 0.68515(12) 0.11236(15) 0.02886(14)
H82_4 H 0.6027 0.0263 0.1962
H83_4 H 0.6962 0.1473 0.2237
H84_4 H 0.7237 0.1962 0.1473
H85_4 H 0.6027 0.2237 0.0538
H86_4 H 0.6962 0.1027 0.0263
C137_4 C 0.62719(13) 0.04455(13) 0.18690(12)
C138_4 C 0.68690(12) 0.12281(13) 0.20545(13)
C139_4 C 0.70545(13) 0.18690(12) 0.12281(13)
C140_4 C 0.62719(13) 0.20545(13) 0.06310(12)
C141_4 C 0.68690(12) 0.12719(13) 0.04455(13)
H87_4 H 0.6280 0.0530 0.1991
H88_4 H 0.6991 0.1220 0.1970
H89_4 H 0.6970 0.1991 0.1220
H90_4 H 0.6280 0.1970 0.0509
H91_4 H 0.6991 0.1280 0.0530
C142_4 C 0.64103(11) 0.04766(10) 0.17016(10)
C143_4 C 0.67016(10) 0.10897(11) 0.20234(10)
C144_4 C 0.70234(10) 0.17016(10) 0.10897(11)
C145_4 C 0.64103(11) 0.20234(10) 0.07984(10)
C146_4 C 0.67016(10) 0.14103(11) 0.04766(10)
C147_4 C 0.63959(9) 0.03474(8) 0.15283(9)
C148_4 C 0.65283(9) 0.11041(9) 0.21526(8)
C149_4 C 0.71526(8) 0.15283(9) 0.11041(9)
C150_4 C 0.63959(9) 0.21526(8) 0.09717(9)
C151_4 C 0.65283(9) 0.13959(9) 0.03474(8)
H92_4 H 0.6493 0.0366 0.1417
H93_4 H 0.6417 0.1007 0.2134
H94_4 H 0.7134 0.1417 0.1007
H95_4 H 0.6493 0.2134 0.1083
H96_4 H 0.6417 0.1493 0.0366
C152_4 C 0.67111(10) 0.09264(10) 0.18605(10)
C153_4 C 0.65736(10) 0.06395(10) 0.17111(10)
C154_4 C 0.68605(10) 0.17111(10) 0.09264(10)
C155_4 C 0.67111(10) 0.15736(10) 0.06395(10)
C156_4 C 0.65736(10) 0.18605(10) 0.07889(10)
Co3_5 Co 0.870919(12) 0.120919(12) 1.0000
Co8_4 Co 0.7500 0.129081(12) 0.870919(12)
Co15_4 Co 0.6250 0.1250 0.997768(14)
Co16_4 Co 0.8750 0.002232(14) 0.8750
S5_4 S 0.82744(3) 0.16365(3) 0.95616(3)
S11_4 S 0.86906(8) 0.45064(4) 0.99585(4)
S12_4 S 0.88094(8) 0.29936(4) 0.99585(4)
N13_4 N 0.85581(7) 0.13693(7) 0.97582(6)
N25_4 N 0.86605(6) 0.09026(7) 0.98516(7)
N32_4 N 0.76601(7) 0.12609(7) 0.90107(7)
N33_4 N 0.90107(7) 0.12391(7) 0.98399(7)
N39_4 N 0.82041(7) 0.09011(7) 0.93919(7)
N44_4 N 0.81164(7) 0.08074(7) 0.90420(7)
N49_4 N 0.83806(8) 0.06193(7) 0.92257(7)
N54_4 N 0.85131(8) 0.02619(7) 0.87099(7)
N64_4 N 0.84894(8) 0.37490(8) 0.98039(7)
N65_4 N 0.90106(8) 0.37510(8) 0.98039(7)
C29_4 C 0.84422(8) 0.14797(9) 0.96714(8)
C35_4 C 0.87120(12) 0.42537(12) 0.99890(9)
C36_4 C 0.87880(12) 0.32463(12) 0.99890(9)
C41_4 C 0.87658(10) 0.07240(11) 0.98888(10)
H21_4 H 0.8867 0.0723 0.9998
C46_4 C 0.87346(12) 0.05414(13) 0.97763(11)
H26_4 H 0.8807 0.0417 0.9814
C51_4 C 0.85980(10) 0.05417(12) 0.96088(10)
H31_4 H 0.8580 0.0421 0.9524
C56_4 C 0.84880(8) 0.07250(9) 0.95683(9)
C61_4 C 0.85210(7) 0.08977(8) 0.96957(8)
H36_4 H 0.8439 0.1020 0.9671
C66_4 C 0.76417(11) 0.13981(12) 0.91685(11)
H41_4 H 0.7539 0.1506 0.9157
C71_4 C 0.77640(13) 0.13915(13) 0.93485(12)
H46_4 H 0.7745 0.1493 0.9456
C76_4 C 0.79123(12) 0.12376(11) 0.93692(11)
H51_4 H 0.8000 0.1231 0.9490
C81_4 C 0.79316(9) 0.10896(9) 0.92084(9)
C86_4 C 0.78041(8) 0.11087(8) 0.90339(8)
H56_4 H 0.7819 0.1009 0.8924
C91_4 C 0.80918(8) 0.09222(8) 0.92172(8)
C96_4 C 0.83475(9) 0.07477(8) 0.93865(8)
C101_4 C 0.82626(9) 0.06574(8) 0.90556(8)
C106_4 C 0.84661(9) 0.03852(8) 0.88710(8)
H61_4 H 0.8549 0.0374 0.8995
C111_4 C 0.83030(10) 0.05301(9) 0.88688(9)
C116_4 C 0.81850(12) 0.05496(12) 0.86869(11)
H66_4 H 0.8073 0.0648 0.8678
C121_4 C 0.82345(14) 0.04226(13) 0.85183(12)
H71_4 H 0.8158 0.0434 0.8391
C126_4 C 0.83960(12) 0.02793(11) 0.85372(10)
H76_4 H 0.8425 0.0189 0.8422
Co7_6 Co 0.879081(12) 1.0000 0.129081(12)
Co11_4 Co 0.6250 0.997768(14) 0.1250
S2_5 S 0.00415(4) 0.11906(8) 0.70064(4)
N9_5 N 0.01961(7) 0.09894(8) 0.62490(8)
N10_5 N 0.06371(8) 0.09393(8) 0.57813(8)
C2_5 C 0.00110(9) 0.12120(12) 0.67537(12)
C21_5 C 0.01698(11) 0.08277(11) 0.63830(12)
H13_5 H 0.0064 0.0839 0.6487
C22_5 C 0.02886(14) 0.06485(12) 0.63764(15)
H14_5 H 0.0263 0.0538 0.6473
C23_5 C 0.04455(13) 0.06310(12) 0.62281(13)
H15_5 H 0.0530 0.0509 0.6220
C24_5 C 0.04766(10) 0.07984(10) 0.60897(11)
C25_5 C 0.03474(8) 0.09717(9) 0.61041(9)
H16_5 H 0.0366 0.1083 0.6007
C26_5 C 0.06395(10) 0.07889(10) 0.59264(10)
Co6_5 Co -0.0000 0.370919(12) 0.620919(12)
Co8_5 Co -0.0000 0.129081(12) 0.879081(12)
Co12_4 Co 0.1250 0.1250 0.497768(14)
Co14_5 Co 0.1250 0.252232(14) 0.6250
Co15_5 Co 0.1250 0.1250 0.752232(14)
S8_5 S 0.00415(4) 0.13094(8) 0.54936(4)
N57_5 N 0.12490(8) 0.01961(7) 0.59894(8)
N58_5 N 0.09894(8) 0.12490(8) 0.51961(7)
N59_5 N 0.01961(7) 0.15106(8) 0.62510(8)
N60_5 N 0.12490(8) 0.23039(7) 0.65106(8)
N61_5 N 0.09894(8) 0.12510(8) 0.73039(7)
N66_5 N 0.09393(8) 0.07813(8) 0.56371(8)
N67_5 N 0.07813(8) 0.06371(8) 0.59393(8)
N68_5 N 0.06371(8) 0.15607(8) 0.67187(8)
N69_5 N 0.09393(8) 0.17187(8) 0.68629(8)
N70_5 N 0.07813(8) 0.18629(8) 0.65607(8)
C32_5 C 0.00110(9) 0.12880(12) 0.57463(12)
C127_5 C 0.13830(12) 0.01698(11) 0.58277(11)
C128_5 C 0.08277(11) 0.13830(12) 0.51698(11)
C129_5 C 0.01698(11) 0.16723(11) 0.61170(12)
C130_5 C 0.13830(12) 0.23302(11) 0.66723(11)
C131_5 C 0.08277(11) 0.11170(12) 0.73302(11)
H77_5 H 0.1487 0.0064 0.5839
H78_5 H 0.0839 0.1487 0.5064
H79_5 H 0.0064 0.1661 0.6013
H80_5 H 0.1487 0.2436 0.6661
H81_5 H 0.0839 0.1013 0.7436
C132_5 C 0.13764(15) 0.02886(14) 0.56485(12)
C133_5 C 0.06485(12) 0.13764(15) 0.52886(14)
C134_5 C 0.02886(14) 0.18515(12) 0.61236(15)
C135_5 C 0.13764(15) 0.22114(14) 0.68515(12)
C136_5 C 0.06485(12) 0.11236(15) 0.72114(14)
H82_5 H 0.1473 0.0263 0.5538
H83_5 H 0.0538 0.1473 0.5263
H84_5 H 0.0263 0.1962 0.6027
H85_5 H 0.1473 0.2237 0.6962
H86_5 H 0.0538 0.1027 0.7237
C137_5 C 0.12281(13) 0.04455(13) 0.56310(12)
C138_5 C 0.06310(12) 0.12281(13) 0.54455(13)
C139_5 C 0.04455(13) 0.18690(12) 0.62719(13)
C140_5 C 0.12281(13) 0.20545(13) 0.68690(12)
C141_5 C 0.06310(12) 0.12719(13) 0.70545(13)
H87_5 H 0.1220 0.0530 0.5509
H88_5 H 0.0509 0.1220 0.5530
H89_5 H 0.0530 0.1991 0.6280
H90_5 H 0.1220 0.1970 0.6991
H91_5 H 0.0509 0.1280 0.6970
C142_5 C 0.10897(11) 0.04766(10) 0.57984(10)
C143_5 C 0.07984(10) 0.10897(11) 0.54766(10)
C144_5 C 0.04766(10) 0.17016(10) 0.64103(11)
C145_5 C 0.10897(11) 0.20234(10) 0.67016(10)
C146_5 C 0.07984(10) 0.14103(11) 0.70234(10)
C147_5 C 0.11041(9) 0.03474(8) 0.59717(9)
C148_5 C 0.09717(9) 0.11041(9) 0.53474(8)
C149_5 C 0.03474(8) 0.15283(9) 0.63959(9)
C150_5 C 0.11041(9) 0.21526(8) 0.65283(9)
C151_5 C 0.09717(9) 0.13959(9) 0.71526(8)
H92_5 H 0.1007 0.0366 0.6083
H93_5 H 0.1083 0.1007 0.5366
H94_5 H 0.0366 0.1417 0.6493
H95_5 H 0.1007 0.2134 0.6417
H96_5 H 0.1083 0.1493 0.7134
C152_5 C 0.07889(10) 0.09264(10) 0.56395(10)
C153_5 C 0.09264(10) 0.06395(10) 0.57889(10)
C154_5 C 0.06395(10) 0.17111(10) 0.65736(10)
C155_5 C 0.07889(10) 0.15736(10) 0.68605(10)
C156_5 C 0.09264(10) 0.18605(10) 0.67111(10)
Co11_5 Co 0.1250 0.997768(14) 0.6250
Co1_6 Co 0.870919(12) 0.2500 0.629081(12)
Co2_5 Co 0.997768(14) 0.1250 0.6250
S1_5 S 0.91365(3) 0.20616(3) 0.67256(3)
N1_5 N 0.88693(7) 0.22582(6) 0.64419(7)
N2_5 N 0.99895(7) 0.12261(7) 0.65752(8)
N3_5 N 0.90974(7) 0.13395(6) 0.51484(7)
N4_5 N 0.87391(7) 0.23399(7) 0.59893(7)
N5_5 N 0.90989(7) 0.17959(7) 0.56081(7)
N6_5 N 0.91926(7) 0.18836(7) 0.59580(7)
N7_5 N 0.93807(7) 0.16194(8) 0.57743(7)
N8_5 N 0.97381(7) 0.14869(8) 0.62901(7)
C1_5 C 0.89797(9) 0.21714(8) 0.65578(8)
C3_5 C 0.92760(11) 0.12342(10) 0.51112(10)
H1_5 H 0.9277 0.1133 0.5002
C4_5 C 0.94586(13) 0.12654(12) 0.52237(11)
H2_5 H 0.9583 0.1193 0.5186
C5_5 C 0.94583(12) 0.14020(10) 0.53912(10)
H3_5 H 0.9579 0.1420 0.5476
C6_5 C 0.92750(9) 0.15120(8) 0.54317(9)
C7_5 C 0.91023(8) 0.14790(7) 0.53043(8)
H4_5 H 0.8980 0.1561 0.5329
C8_5 C 0.86019(12) 0.23583(11) 0.58315(11)
H5_5 H 0.8494 0.2461 0.5843
C9_5 C 0.86085(13) 0.22360(13) 0.56515(12)
H6_5 H 0.8507 0.2255 0.5544
C10_5 C 0.87624(11) 0.20877(12) 0.56308(11)
H7_5 H 0.8769 0.2000 0.5510
C11_5 C 0.89104(9) 0.20684(9) 0.57916(9)
C12_5 C 0.88913(8) 0.21959(8) 0.59661(8)
H8_5 H 0.8991 0.2181 0.6076
C13_5 C 0.90778(8) 0.19082(8) 0.57828(8)
C14_5 C 0.92523(8) 0.16525(9) 0.56135(8)
C15_5 C 0.93426(8) 0.17374(9) 0.59444(8)
C16_5 C 0.96148(8) 0.15339(9) 0.61290(8)
H9_5 H 0.9626 0.1451 0.6005
C17_5 C 0.94699(9) 0.16970(10) 0.61312(9)
C18_5 C 0.94504(12) 0.18150(12) 0.63131(11)
H10_5 H 0.9352 0.1927 0.6322
C19_5 C 0.95774(13) 0.17655(14) 0.64817(12)
H11_5 H 0.9566 0.1842 0.6609
C20_5 C 0.97207(11) 0.16040(12) 0.64628(10)
H12_5 H 0.9811 0.1575 0.6578
Co3_6 Co 0.879081(12) 0.120919(12) 0.7500
Co4_8 Co 0.7500 0.379081(12) 0.620919(12)
Co5_5 Co 0.879081(12) 0.129081(12) 0.5000
Co6_6 Co 1.0000 0.370919(12) 0.620919(12)
Co7_7 Co 0.870919(12) -0.0000 0.620919(12)
Co8_6 Co 1.0000 0.129081(12) 0.879081(12)
Co9_5 Co 0.752232(14) 0.1250 0.6250
Co10_5 Co 0.8750 0.3750 0.747768(14)
Co13_4 Co 0.8750 0.3750 0.502232(14)
S3_5 S 0.82744(3) 0.29384(3) 0.58635(3)
S4_5 S 0.83635(3) 0.07744(3) 0.70616(3)
S5_5 S 0.92256(3) 0.16365(3) 0.79384(3)
S6_5 S 0.79384(3) 0.42256(3) 0.66365(3)
S7_5 S 0.70616(3) 0.33635(3) 0.57744(3)
S9_5 S 0.74585(4) 0.04936(4) 0.61906(8)
S10_5 S 0.74585(4) 0.20064(4) 0.63094(8)
S11_5 S 0.88094(8) 0.45064(4) 0.75415(4)
S12_5 S 0.86906(8) 0.29936(4) 0.75415(4)
N11_5 N 0.85581(7) 0.27418(6) 0.61307(7)
N12_5 N 0.86307(7) 0.10581(7) 0.72582(6)
N13_5 N 0.89419(7) 0.13693(7) 0.77418(6)
N14_5 N 0.77418(6) 0.39419(7) 0.63693(7)
N15_5 N 0.72582(6) 0.36307(7) 0.60581(7)
N16_5 N 0.99895(7) 0.12739(7) 0.59248(8)
N17_5 N 0.75105(7) 0.09248(8) 0.62261(7)
N18_5 N 0.75105(7) 0.15752(8) 0.62739(7)
N19_5 N 0.87739(7) 0.40752(8) 0.74895(7)
N20_5 N 0.87261(7) 0.34248(8) 0.74895(7)
N21_5 N 0.84026(7) 0.23516(7) 0.63395(6)
N22_5 N 0.86605(6) 0.26484(7) 0.65974(7)
N23_5 N 0.98516(7) 0.36605(6) 0.59026(7)
N24_5 N 0.90974(7) 0.11605(6) 0.73516(7)
N25_5 N 0.88395(6) 0.09026(7) 0.76484(7)
N26_5 N 0.76484(7) 0.38395(6) 0.59026(7)
N27_5 N 0.73516(7) 0.40974(7) 0.61605(6)
N28_5 N 0.87609(7) 0.15107(7) 0.73399(7)
N29_5 N 0.76601(7) 0.34893(7) 0.62391(7)
N30_5 N 0.90107(7) 0.26601(7) 0.62609(7)
N31_5 N 0.87391(7) 0.01601(7) 0.65107(7)
N32_5 N 0.98399(7) 0.12609(7) 0.84893(7)
N33_5 N 0.84893(7) 0.12391(7) 0.76601(7)
N34_5 N 0.73399(7) 0.37609(7) 0.65107(7)
N35_5 N 0.84011(7) 0.18919(7) 0.67959(7)
N36_5 N 0.82041(7) 0.31081(7) 0.65989(7)
N37_5 N 0.93919(7) 0.32041(7) 0.59011(7)
N38_5 N 0.90989(7) 0.07041(7) 0.68919(7)
N39_5 N 0.92959(7) 0.09011(7) 0.81081(7)
N40_5 N 0.83074(7) 0.15420(7) 0.68836(7)
N41_5 N 0.81164(7) 0.34580(7) 0.66926(7)
N42_5 N 0.90420(7) 0.31164(7) 0.58074(7)
N43_5 N 0.91926(7) 0.06164(7) 0.65420(7)
N44_5 N 0.93836(7) 0.08074(7) 0.84580(7)
N45_5 N 0.81193(7) 0.17257(7) 0.66194(8)
N46_5 N 0.83806(8) 0.32743(7) 0.68807(7)
N47_5 N 0.92257(7) 0.33806(8) 0.56193(7)
N48_5 N 0.93807(7) 0.08806(8) 0.67257(7)
N49_5 N 0.91194(8) 0.06193(7) 0.82743(7)
N50_5 N 0.77619(7) 0.12099(7) 0.64869(8)
N51_5 N 0.85131(8) 0.37901(7) 0.72381(7)
N52_5 N 0.87099(7) 0.35131(8) 0.52619(7)
N53_5 N 0.97381(7) 0.10131(8) 0.62099(7)
N54_5 N 0.89869(8) 0.02619(7) 0.87901(7)
N55_5 N 0.77619(7) 0.12901(7) 0.60131(8)
N56_5 N 0.89869(8) 0.37099(7) 0.72381(7)
N62_5 N 0.73039(7) 0.12510(8) 0.59894(8)
N63_5 N 0.73039(7) 0.12490(8) 0.65106(8)
N64_5 N 0.90106(8) 0.37490(8) 0.76961(7)
N65_5 N 0.84894(8) 0.37510(8) 0.76961(7)
C27_5 C 0.84422(8) 0.28286(8) 0.60203(9)
C28_5 C 0.85203(9) 0.09422(8) 0.71714(8)
C29_5 C 0.90578(8) 0.14797(9) 0.78286(8)
C30_5 C 0.78286(8) 0.40578(8) 0.64797(9)
C31_5 C 0.71714(8) 0.35203(9) 0.59422(8)
C33_5 C 0.74890(9) 0.07463(12) 0.62120(12)
C34_5 C 0.74890(9) 0.17537(12) 0.62880(12)
C35_5 C 0.87880(12) 0.42537(12) 0.75110(9)
C36_5 C 0.87120(12) 0.32463(12) 0.75110(9)
C37_5 C 0.82240(11) 0.23888(10) 0.62342(10)
C38_5 C 0.87658(10) 0.26112(10) 0.67760(11)
C39_5 C 0.98888(10) 0.37658(10) 0.57240(11)
C40_5 C 0.92760(11) 0.12658(10) 0.73888(10)
C41_5 C 0.87342(10) 0.07240(11) 0.76112(10)
H17_5 H 0.8223 0.2498 0.6133
H18_5 H 0.8867 0.2502 0.6777
H19_5 H 0.9998 0.3867 0.5723
H20_5 H 0.9277 0.1367 0.7498
H21_5 H 0.8633 0.0723 0.7502
C42_5 C 0.80414(13) 0.22763(11) 0.62654(12)
C43_5 C 0.87346(12) 0.27237(11) 0.69586(13)
C44_5 C 0.97763(11) 0.37346(12) 0.55414(13)
C45_5 C 0.94586(13) 0.12346(12) 0.72763(11)
C46_5 C 0.87654(12) 0.05414(13) 0.77237(11)
H22_5 H 0.7917 0.2314 0.6193
H23_5 H 0.8807 0.2686 0.7083
H24_5 H 0.9814 0.3807 0.5417
H25_5 H 0.9583 0.1307 0.7314
H26_5 H 0.8693 0.0417 0.7686
C47_5 C 0.80417(12) 0.21088(10) 0.64020(10)
C48_5 C 0.85980(10) 0.28912(10) 0.69583(12)
C49_5 C 0.96088(10) 0.35980(10) 0.55417(12)
C50_5 C 0.94583(12) 0.10980(10) 0.71088(10)
C51_5 C 0.89020(10) 0.05417(12) 0.78912(10)
H27_5 H 0.7921 0.2024 0.6420
H28_5 H 0.8580 0.2976 0.7079
H29_5 H 0.9524 0.3580 0.5421
H30_5 H 0.9579 0.1080 0.7024
H31_5 H 0.8920 0.0421 0.7976
C52_5 C 0.82250(9) 0.20683(9) 0.65120(8)
C53_5 C 0.84880(8) 0.29317(9) 0.67750(9)
C54_5 C 0.95683(9) 0.34880(8) 0.57250(9)
C55_5 C 0.92750(9) 0.09880(8) 0.70683(9)
C56_5 C 0.90120(8) 0.07250(9) 0.79317(9)
C57_5 C 0.83977(8) 0.21957(8) 0.64790(7)
C58_5 C 0.85210(7) 0.28043(8) 0.66023(8)
C59_5 C 0.96957(8) 0.35210(7) 0.58977(8)
C60_5 C 0.91023(8) 0.10210(7) 0.71957(8)
C61_5 C 0.89790(7) 0.08977(8) 0.78043(8)
H32_5 H 0.8520 0.2171 0.6561
H33_5 H 0.8439 0.2829 0.6480
H34_5 H 0.9671 0.3439 0.6020
H35_5 H 0.8980 0.0939 0.7171
H36_5 H 0.9061 0.1020 0.7829
C62_5 C 0.88981(12) 0.16685(11) 0.73583(11)
C63_5 C 0.76417(11) 0.33315(11) 0.61019(12)
C64_5 C 0.91685(11) 0.26417(11) 0.63981(12)
C65_5 C 0.86019(12) 0.01417(11) 0.66685(11)
C66_5 C 0.98583(11) 0.13981(12) 0.83315(11)
H37_5 H 0.9006 0.1657 0.7461
H38_5 H 0.7539 0.3343 0.5994
H39_5 H 0.9157 0.2539 0.6506
H40_5 H 0.8494 0.0039 0.6657
H41_5 H 0.9961 0.1506 0.8343
C67_5 C 0.88915(13) 0.18485(12) 0.72360(13)
C68_5 C 0.77640(13) 0.31515(12) 0.61085(13)
C69_5 C 0.93485(12) 0.27640(13) 0.63915(13)
C70_5 C 0.86085(13) 0.02640(13) 0.68485(12)
C71_5 C 0.97360(13) 0.13915(13) 0.81515(12)
H42_5 H 0.8993 0.1956 0.7255
H43_5 H 0.7745 0.3044 0.6007
H44_5 H 0.9456 0.2745 0.6493
H45_5 H 0.8507 0.0245 0.6956
H46_5 H 0.9755 0.1493 0.8044
C72_5 C 0.87376(11) 0.18692(11) 0.70877(12)
C73_5 C 0.79123(12) 0.31308(11) 0.62624(11)
C74_5 C 0.93692(11) 0.29123(12) 0.62376(11)
C75_5 C 0.87624(11) 0.04123(12) 0.68692(11)
C76_5 C 0.95877(12) 0.12376(11) 0.81308(11)
H47_5 H 0.8731 0.1990 0.7000
H48_5 H 0.8000 0.3010 0.6269
H49_5 H 0.9490 0.3000 0.6231
H50_5 H 0.8769 0.0500 0.6990
H51_5 H 0.9500 0.1231 0.8010
C77_5 C 0.85896(9) 0.17084(9) 0.70684(9)
C78_5 C 0.79316(9) 0.32916(9) 0.64104(9)
C79_5 C 0.92084(9) 0.29316(9) 0.60896(9)
C80_5 C 0.89104(9) 0.04316(9) 0.67084(9)
C81_5 C 0.95684(9) 0.10896(9) 0.82916(9)
C82_5 C 0.86087(8) 0.15339(8) 0.71959(8)
C83_5 C 0.78041(8) 0.34661(8) 0.63913(8)
C84_5 C 0.90339(8) 0.28041(8) 0.61087(8)
C85_5 C 0.88913(8) 0.03041(8) 0.65339(8)
C86_5 C 0.96959(8) 0.11087(8) 0.84661(8)
H52_5 H 0.8509 0.1424 0.7181
H53_5 H 0.7819 0.3576 0.6491
H54_5 H 0.8924 0.2819 0.6009
H55_5 H 0.8991 0.0319 0.6424
H56_5 H 0.9681 0.1009 0.8576
C87_5 C 0.84222(8) 0.17172(8) 0.69082(8)
C88_5 C 0.80918(8) 0.32828(8) 0.65778(8)
C89_5 C 0.92172(8) 0.30918(8) 0.59222(8)
C90_5 C 0.90778(8) 0.05918(8) 0.67172(8)
C91_5 C 0.94082(8) 0.09222(8) 0.82828(8)
C92_5 C 0.82477(8) 0.18865(8) 0.66525(9)
C93_5 C 0.83475(9) 0.31135(8) 0.67523(8)
C94_5 C 0.93865(8) 0.33475(9) 0.57477(8)
C95_5 C 0.92523(8) 0.08475(9) 0.68865(8)
C96_5 C 0.91525(9) 0.07477(8) 0.81135(8)
C97_5 C 0.81574(8) 0.15556(8) 0.67374(9)
C98_5 C 0.82626(9) 0.34444(8) 0.68426(8)
C99_5 C 0.90556(8) 0.32626(9) 0.56574(8)
C100_5 C 0.93426(8) 0.07626(9) 0.65556(8)
C101_5 C 0.92374(9) 0.06574(8) 0.84444(8)
C102_5 C 0.78852(8) 0.13710(8) 0.65339(9)
C103_5 C 0.84661(9) 0.36290(8) 0.71148(8)
C104_5 C 0.88710(8) 0.34661(9) 0.53852(8)
C105_5 C 0.96148(8) 0.09661(9) 0.63710(8)
C106_5 C 0.90339(9) 0.03852(8) 0.86290(8)
H57_5 H 0.7874 0.1495 0.6451
H58_5 H 0.8549 0.3505 0.7126
H59_5 H 0.8995 0.3549 0.5374
H60_5 H 0.9626 0.1049 0.6495
H61_5 H 0.8951 0.0374 0.8505
C107_5 C 0.80301(9) 0.13688(9) 0.66970(10)
C108_5 C 0.83030(10) 0.36312(9) 0.69699(9)
C109_5 C 0.88688(9) 0.33030(10) 0.55301(9)
C110_5 C 0.94699(9) 0.08030(10) 0.63688(9)
C111_5 C 0.91970(10) 0.05301(9) 0.86312(9)
C112_5 C 0.80496(12) 0.11869(11) 0.68150(12)
C113_5 C 0.81850(12) 0.38131(11) 0.69504(12)
C114_5 C 0.86869(11) 0.31850(12) 0.55496(12)
C115_5 C 0.94504(12) 0.06850(12) 0.61869(11)
C116_5 C 0.93150(12) 0.05496(12) 0.88131(11)
H62_5 H 0.8148 0.1178 0.6927
H63_5 H 0.8073 0.3822 0.6852
H64_5 H 0.8678 0.3073 0.5648
H65_5 H 0.9352 0.0573 0.6178
H66_5 H 0.9427 0.0648 0.8822
C117_5 C 0.79226(13) 0.10183(12) 0.67655(14)
C118_5 C 0.82345(14) 0.39817(12) 0.70774(13)
C119_5 C 0.85183(12) 0.32345(14) 0.54226(13)
C120_5 C 0.95774(13) 0.07345(14) 0.60183(12)
C121_5 C 0.92655(14) 0.04226(13) 0.89817(12)
H67_5 H 0.7934 0.0891 0.6842
H68_5 H 0.8158 0.4109 0.7066
H69_5 H 0.8391 0.3158 0.5434
H70_5 H 0.9566 0.0658 0.5891
H71_5 H 0.9342 0.0434 0.9109
C122_5 C 0.77793(11) 0.10372(10) 0.66040(12)
C123_5 C 0.83960(12) 0.39628(10) 0.72207(11)
C124_5 C 0.85372(10) 0.33960(12) 0.52793(11)
C125_5 C 0.97207(11) 0.08960(12) 0.60372(10)
C126_5 C 0.91040(12) 0.02793(11) 0.89628(10)
H72_5 H 0.7689 0.0922 0.6575
H73_5 H 0.8425 0.4078 0.7311
H74_5 H 0.8422 0.3425 0.5189
H75_5 H 0.9811 0.0925 0.5922
H76_5 H 0.9075 0.0189 0.9078
Co7_8 Co 0.870919(12) 1.0000 0.620919(12)
S1_6 S 0.08635(3) 0.32744(3) 0.29384(3)
N1_6 N 0.11307(7) 0.35581(7) 0.27418(6)
N2_6 N 0.00105(7) 0.34248(8) 0.37739(7)
C1_6 C 0.10203(9) 0.34422(8) 0.28286(8)
Co3_7 Co 0.120919(12) 0.2500 0.379081(12)
Co4_9 Co 0.2500 0.379081(12) 0.120919(12)
Co7_9 Co 0.129081(12) 0.379081(12) 0.5000
Co8_7 Co -0.0000 0.120919(12) 0.370919(12)
Co9_6 Co 0.247768(14) 0.3750 0.3750
Co10_6 Co 0.1250 0.252232(14) 0.1250
S3_6 S 0.17256(3) 0.41365(3) 0.20616(3)
S4_6 S 0.16365(3) 0.29384(3) 0.42256(3)
S5_6 S 0.07744(3) 0.20616(3) 0.33635(3)
S6_6 S 0.20616(3) 0.33635(3) 0.07744(3)
S7_6 S 0.29384(3) 0.42256(3) 0.16365(3)
S9_6 S 0.25415(4) 0.38094(8) 0.45064(4)
S10_6 S 0.25415(4) 0.36906(8) 0.29936(4)
S11_6 S 0.11906(8) 0.24585(4) 0.04936(4)
S12_6 S 0.13094(8) 0.24585(4) 0.20064(4)
N11_6 N 0.14419(7) 0.38693(7) 0.22582(6)
N12_6 N 0.13693(7) 0.27418(6) 0.39419(7)
N13_6 N 0.10581(7) 0.22582(6) 0.36307(7)
N14_6 N 0.22582(6) 0.36307(7) 0.10581(7)
N15_6 N 0.27418(6) 0.39419(7) 0.13693(7)
N16_6 N 0.00105(7) 0.40752(8) 0.37261(7)
N17_6 N 0.24895(7) 0.37739(7) 0.40752(8)
N18_6 N 0.24895(7) 0.37261(7) 0.34248(8)
N19_6 N 0.12261(7) 0.25105(7) 0.09248(8)
N20_6 N 0.12739(7) 0.25105(7) 0.15752(8)
N21_6 N 0.15974(7) 0.36605(6) 0.26484(7)
N22_6 N 0.13395(6) 0.34026(7) 0.23516(7)
N24_6 N 0.09026(7) 0.26484(7) 0.38395(6)
N25_6 N 0.11605(6) 0.23516(7) 0.40974(7)
N26_6 N 0.23516(7) 0.40974(7) 0.11605(6)
N27_6 N 0.26484(7) 0.38395(6) 0.09026(7)
N28_6 N 0.12391(7) 0.26601(7) 0.34893(7)
N29_6 N 0.23399(7) 0.37609(7) 0.15107(7)
N30_6 N 0.09893(7) 0.37391(7) 0.23399(7)
N31_6 N 0.12609(7) 0.34893(7) 0.48399(7)
N32_6 N 0.01601(7) 0.15107(7) 0.37391(7)
N33_6 N 0.15107(7) 0.23399(7) 0.37609(7)
N34_6 N 0.26601(7) 0.34893(7) 0.12391(7)
N35_6 N 0.15989(7) 0.32041(7) 0.31081(7)
N36_6 N 0.17959(7) 0.34011(7) 0.18919(7)
N37_6 N 0.06081(7) 0.40989(7) 0.17959(7)
N38_6 N 0.09011(7) 0.31081(7) 0.42959(7)
N39_6 N 0.07041(7) 0.18919(7) 0.40989(7)
N40_6 N 0.16926(7) 0.31164(7) 0.34580(7)
N41_6 N 0.18836(7) 0.33074(7) 0.15420(7)
N42_6 N 0.09580(7) 0.41926(7) 0.18836(7)
N43_6 N 0.08074(7) 0.34580(7) 0.43836(7)
N44_6 N 0.06164(7) 0.15420(7) 0.41926(7)
N45_6 N 0.18807(7) 0.33806(8) 0.32743(7)
N46_6 N 0.16194(8) 0.31193(7) 0.17257(7)
N47_6 N 0.07743(7) 0.43807(7) 0.16194(8)
N48_6 N 0.06193(7) 0.32743(7) 0.41194(8)
N49_6 N 0.08806(8) 0.17257(7) 0.43807(7)
N50_6 N 0.22381(7) 0.35131(8) 0.37901(7)
N51_6 N 0.14869(8) 0.27619(7) 0.12099(7)
N52_6 N 0.12901(7) 0.47381(7) 0.14869(8)
N53_6 N 0.02619(7) 0.37901(7) 0.39869(8)
N54_6 N 0.10131(8) 0.12099(7) 0.47381(7)
N55_6 N 0.22381(7) 0.39869(8) 0.37099(7)
N56_6 N 0.10131(8) 0.27619(7) 0.12901(7)
N62_6 N 0.26961(7) 0.40106(8) 0.37490(8)
N63_6 N 0.26961(7) 0.34894(8) 0.37510(8)
N64_6 N 0.09894(8) 0.23039(7) 0.12510(8)
N65_6 N 0.15106(8) 0.23039(7) 0.12490(8)
C27_6 C 0.15578(8) 0.39797(9) 0.21714(8)
C28_6 C 0.14797(9) 0.28286(8) 0.40578(8)
C29_6 C 0.09422(8) 0.21714(8) 0.35203(9)
C30_6 C 0.21714(8) 0.35203(9) 0.09422(8)
C31_6 C 0.28286(8) 0.40578(8) 0.14797(9)
C33_6 C 0.25110(9) 0.37880(12) 0.42537(12)
C34_6 C 0.25110(9) 0.37120(12) 0.32463(12)
C35_6 C 0.12120(12) 0.24890(9) 0.07463(12)
C36_6 C 0.12880(12) 0.24890(9) 0.17537(12)
C37_6 C 0.17760(11) 0.37658(10) 0.26112(10)
C38_6 C 0.12342(10) 0.32240(11) 0.23888(10)
C39_6 C 0.01112(10) 0.42760(11) 0.12342(10)
C40_6 C 0.07240(11) 0.26112(10) 0.37342(10)
C41_6 C 0.12658(10) 0.23888(10) 0.42760(11)
H17_6 H 0.1777 0.3867 0.2502
H18_6 H 0.1133 0.3223 0.2498
H19_6 H 0.0002 0.4277 0.1133
H20_6 H 0.0723 0.2502 0.3633
H21_6 H 0.1367 0.2498 0.4277
C42_6 C 0.19586(13) 0.37346(12) 0.27237(11)
C43_6 C 0.12654(12) 0.30414(13) 0.22763(11)
C44_6 C 0.02237(11) 0.44586(13) 0.12654(12)
C45_6 C 0.05414(13) 0.27237(11) 0.37654(12)
C46_6 C 0.12346(12) 0.22763(11) 0.44586(13)
H22_6 H 0.2083 0.3807 0.2686
H23_6 H 0.1193 0.2917 0.2314
H24_6 H 0.0186 0.4583 0.1193
H25_6 H 0.0417 0.2686 0.3693
H26_6 H 0.1307 0.2314 0.4583
C47_6 C 0.19583(12) 0.35980(10) 0.28912(10)
C48_6 C 0.14020(10) 0.30417(12) 0.21088(10)
C49_6 C 0.03912(10) 0.44583(12) 0.14020(10)
C50_6 C 0.05417(12) 0.28912(10) 0.39020(10)
C51_6 C 0.10980(10) 0.21088(10) 0.44583(12)
H27_6 H 0.2079 0.3580 0.2976
H28_6 H 0.1420 0.2921 0.2024
H29_6 H 0.0476 0.4579 0.1420
H30_6 H 0.0421 0.2976 0.3920
H31_6 H 0.1080 0.2024 0.4579
C52_6 C 0.17750(9) 0.34880(8) 0.29317(9)
C53_6 C 0.15120(8) 0.32250(9) 0.20683(9)
C54_6 C 0.04317(9) 0.42750(9) 0.15120(8)
C55_6 C 0.07250(9) 0.29317(9) 0.40120(8)
C56_6 C 0.09880(8) 0.20683(9) 0.42750(9)
C57_6 C 0.16023(8) 0.35210(7) 0.28043(8)
C58_6 C 0.14790(7) 0.33977(8) 0.21957(8)
C59_6 C 0.03043(8) 0.41023(8) 0.14790(7)
C60_6 C 0.08977(8) 0.28043(8) 0.39790(7)
C61_6 C 0.10210(7) 0.21957(8) 0.41023(8)
H32_6 H 0.1480 0.3439 0.2829
H33_6 H 0.1561 0.3520 0.2171
H34_6 H 0.0329 0.3980 0.1561
H35_6 H 0.1020 0.2829 0.4061
H36_6 H 0.0939 0.2171 0.3980
C62_6 C 0.11019(12) 0.26417(11) 0.33315(11)
C63_6 C 0.23583(11) 0.38981(12) 0.16685(11)
C64_6 C 0.08315(11) 0.36019(12) 0.23583(11)
C65_6 C 0.13981(12) 0.33315(11) 0.48583(11)
C66_6 C 0.01417(11) 0.16685(11) 0.36019(12)
H37_6 H 0.0994 0.2539 0.3343
H38_6 H 0.2461 0.4006 0.1657
H39_6 H 0.0843 0.3494 0.2461
H40_6 H 0.1506 0.3343 0.4961
H41_6 H 0.0039 0.1657 0.3494
C67_6 C 0.11085(13) 0.27640(13) 0.31515(12)
C68_6 C 0.22360(13) 0.38915(13) 0.18485(12)
C69_6 C 0.06515(12) 0.36085(13) 0.22360(13)
C70_6 C 0.13915(13) 0.31515(12) 0.47360(13)
C71_6 C 0.02640(13) 0.18485(12) 0.36085(13)
H42_6 H 0.1007 0.2745 0.3044
H43_6 H 0.2255 0.3993 0.1956
H44_6 H 0.0544 0.3507 0.2255
H45_6 H 0.1493 0.3044 0.4755
H46_6 H 0.0245 0.1956 0.3507
C72_6 C 0.12624(11) 0.29123(12) 0.31308(11)
C73_6 C 0.20877(12) 0.37376(11) 0.18692(11)
C74_6 C 0.06308(11) 0.37624(11) 0.20877(12)
C75_6 C 0.12376(11) 0.31308(11) 0.45877(12)
C76_6 C 0.04123(12) 0.18692(11) 0.37624(11)
H47_6 H 0.1269 0.3000 0.3010
H48_6 H 0.2000 0.3731 0.1990
H49_6 H 0.0510 0.3769 0.2000
H50_6 H 0.1231 0.3010 0.4500
H51_6 H 0.0500 0.1990 0.3769
C77_6 C 0.14104(9) 0.29316(9) 0.32916(9)
C78_6 C 0.20684(9) 0.35896(9) 0.17084(9)
C79_6 C 0.07916(9) 0.39104(9) 0.20684(9)
C80_6 C 0.10896(9) 0.32916(9) 0.45684(9)
C81_6 C 0.04316(9) 0.17084(9) 0.39104(9)
C82_6 C 0.13913(8) 0.28041(8) 0.34661(8)
C83_6 C 0.21959(8) 0.36087(8) 0.15339(8)
C84_6 C 0.09661(8) 0.38913(8) 0.21959(8)
C85_6 C 0.11087(8) 0.34661(8) 0.46959(8)
C86_6 C 0.03041(8) 0.15339(8) 0.38913(8)
H52_6 H 0.1491 0.2819 0.3576
H53_6 H 0.2181 0.3509 0.1424
H54_6 H 0.1076 0.3991 0.2181
H55_6 H 0.1009 0.3576 0.4681
H56_6 H 0.0319 0.1424 0.3991
C87_6 C 0.15778(8) 0.30918(8) 0.32828(8)
C88_6 C 0.19082(8) 0.34222(8) 0.17172(8)
C89_6 C 0.07828(8) 0.40778(8) 0.19082(8)
C90_6 C 0.09222(8) 0.32828(8) 0.44082(8)
C91_6 C 0.05918(8) 0.17172(8) 0.40778(8)
C92_6 C 0.17523(8) 0.33475(9) 0.31135(8)
C93_6 C 0.16525(9) 0.32477(8) 0.18865(8)
C94_6 C 0.06135(8) 0.42523(8) 0.16525(9)
C95_6 C 0.07477(8) 0.31135(8) 0.41525(9)
C96_6 C 0.08475(9) 0.18865(8) 0.42523(8)
C97_6 C 0.18426(8) 0.32626(9) 0.34444(8)
C98_6 C 0.17374(9) 0.31574(8) 0.15556(8)
C99_6 C 0.09444(8) 0.43426(8) 0.17374(9)
C100_6 C 0.06574(8) 0.34444(8) 0.42374(9)
C101_6 C 0.07626(9) 0.15556(8) 0.43426(8)
C102_6 C 0.21148(8) 0.34661(9) 0.36290(8)
C103_6 C 0.15339(9) 0.28852(8) 0.13710(8)
C104_6 C 0.11290(8) 0.46148(8) 0.15339(9)
C105_6 C 0.03852(8) 0.36290(8) 0.40339(9)
C106_6 C 0.09661(9) 0.13710(8) 0.46148(8)
H57_6 H 0.2126 0.3549 0.3505
H58_6 H 0.1451 0.2874 0.1495
H59_6 H 0.1005 0.4626 0.1451
H60_6 H 0.0374 0.3505 0.3951
H61_6 H 0.1049 0.1495 0.4626
C107_6 C 0.19699(9) 0.33030(10) 0.36312(9)
C108_6 C 0.16970(10) 0.30301(9) 0.13688(9)
C109_6 C 0.11312(9) 0.44699(9) 0.16970(10)
C110_6 C 0.05301(9) 0.36312(9) 0.41970(10)
C111_6 C 0.08030(10) 0.13688(9) 0.44699(9)
C112_6 C 0.19504(12) 0.31850(12) 0.38131(11)
C113_6 C 0.18150(12) 0.30496(12) 0.11869(11)
C114_6 C 0.13131(11) 0.44504(12) 0.18150(12)
C115_6 C 0.05496(12) 0.38131(11) 0.43150(12)
C116_6 C 0.06850(12) 0.11869(11) 0.44504(12)
H62_6 H 0.1852 0.3073 0.3822
H63_6 H 0.1927 0.3148 0.1178
H64_6 H 0.1322 0.4352 0.1927
H65_6 H 0.0648 0.3822 0.4427
H66_6 H 0.0573 0.1178 0.4352
C117_6 C 0.20774(13) 0.32345(14) 0.39817(12)
C118_6 C 0.17655(14) 0.29226(13) 0.10183(12)
C119_6 C 0.14817(12) 0.45774(13) 0.17655(14)
C120_6 C 0.04226(13) 0.39817(12) 0.42655(14)
C121_6 C 0.07345(14) 0.10183(12) 0.45774(13)
H67_6 H 0.2066 0.3158 0.4109
H68_6 H 0.1842 0.2934 0.0891
H69_6 H 0.1609 0.4566 0.1842
H70_6 H 0.0434 0.4109 0.4342
H71_6 H 0.0658 0.0891 0.4566
C122_6 C 0.22207(11) 0.33960(12) 0.39628(10)
C123_6 C 0.16040(12) 0.27793(11) 0.10372(10)
C124_6 C 0.14628(10) 0.47207(11) 0.16040(12)
C125_6 C 0.02793(11) 0.39628(10) 0.41040(12)
C126_6 C 0.08960(12) 0.10372(10) 0.47207(11)
H72_6 H 0.2311 0.3425 0.4078
H73_6 H 0.1575 0.2689 0.0922
H74_6 H 0.1578 0.4811 0.1575
H75_6 H 0.0189 0.4078 0.4075
H76_6 H 0.0925 0.0922 0.4811
S2_6 S 0.99585(4) 0.29936(4) 0.38094(8)
N9_6 N 0.98039(7) 0.37510(8) 0.40106(8)
N10_6 N 0.93629(8) 0.42187(8) 0.40607(8)
C2_6 C 0.99890(9) 0.32463(12) 0.37880(12)
C21_6 C 0.98302(11) 0.36170(12) 0.41723(11)
H13_6 H 0.9936 0.3513 0.4161
C22_6 C 0.97114(14) 0.36236(15) 0.43515(12)
H14_6 H 0.9737 0.3527 0.4462
C23_6 C 0.95545(13) 0.37719(13) 0.43690(12)
H15_6 H 0.9470 0.3780 0.4491
C24_6 C 0.95234(10) 0.39103(11) 0.42016(10)
C25_6 C 0.96526(8) 0.38959(9) 0.40283(9)
H16_6 H 0.9634 0.3993 0.3917
C26_6 C 0.93605(10) 0.40736(10) 0.42111(10)
Co8_8 Co 1.0000 0.120919(12) 0.370919(12)
Co12_5 Co 0.8750 0.502232(14) 0.3750
Co15_6 Co 0.8750 0.247768(14) 0.3750
S8_6 S 0.99585(4) 0.45064(4) 0.36906(8)
N57_6 N 0.87510(8) 0.40106(8) 0.48039(7)
N58_6 N 0.90106(8) 0.48039(7) 0.37510(8)
N59_6 N 0.98039(7) 0.37490(8) 0.34894(8)
N60_6 N 0.87510(8) 0.34894(8) 0.26961(7)
N61_6 N 0.90106(8) 0.26961(7) 0.37490(8)
N66_6 N 0.90607(8) 0.43629(8) 0.42187(8)
N67_6 N 0.92187(8) 0.40607(8) 0.43629(8)
N68_6 N 0.93629(8) 0.32813(8) 0.34393(8)
N69_6 N 0.90607(8) 0.31371(8) 0.32813(8)
N70_6 N 0.92187(8) 0.34393(8) 0.31371(8)
C32_6 C 0.99890(9) 0.42537(12) 0.37120(12)
C127_6 C 0.86170(12) 0.41723(11) 0.48302(11)
C128_6 C 0.91723(11) 0.48302(11) 0.36170(12)
C129_6 C 0.98302(11) 0.38830(12) 0.33277(11)
C130_6 C 0.86170(12) 0.33277(11) 0.26698(11)
C131_6 C 0.91723(11) 0.26698(11) 0.38830(12)
H77_6 H 0.8513 0.4161 0.4936
H78_6 H 0.9161 0.4936 0.3513
H79_6 H 0.9936 0.3987 0.3339
H80_6 H 0.8513 0.3339 0.2564
H81_6 H 0.9161 0.2564 0.3987
C132_6 C 0.86236(15) 0.43515(12) 0.47114(14)
C133_6 C 0.93515(12) 0.47114(14) 0.36236(15)
C134_6 C 0.97114(14) 0.38764(15) 0.31485(12)
C135_6 C 0.86236(15) 0.31485(12) 0.27886(14)
C136_6 C 0.93515(12) 0.27886(14) 0.38764(15)
H82_6 H 0.8527 0.4462 0.4737
H83_6 H 0.9462 0.4737 0.3527
H84_6 H 0.9737 0.3973 0.3038
H85_6 H 0.8527 0.3038 0.2763
H86_6 H 0.9462 0.2763 0.3973
C137_6 C 0.87719(13) 0.43690(12) 0.45545(13)
C138_6 C 0.93690(12) 0.45545(13) 0.37719(13)
C139_6 C 0.95545(13) 0.37281(13) 0.31310(12)
C140_6 C 0.87719(13) 0.31310(12) 0.29455(13)
C141_6 C 0.93690(12) 0.29455(13) 0.37281(13)
H87_6 H 0.8780 0.4491 0.4470
H88_6 H 0.9491 0.4470 0.3780
H89_6 H 0.9470 0.3720 0.3009
H90_6 H 0.8780 0.3009 0.3030
H91_6 H 0.9491 0.3030 0.3720
C142_6 C 0.89103(11) 0.42016(10) 0.45234(10)
C143_6 C 0.92016(10) 0.45234(10) 0.39103(11)
C144_6 C 0.95234(10) 0.35897(11) 0.32984(10)
C145_6 C 0.89103(11) 0.32984(10) 0.29766(10)
C146_6 C 0.92016(10) 0.29766(10) 0.35897(11)
C147_6 C 0.88959(9) 0.40283(9) 0.46526(8)
C148_6 C 0.90283(9) 0.46526(8) 0.38959(9)
C149_6 C 0.96526(8) 0.36041(9) 0.34717(9)
C150_6 C 0.88959(9) 0.34717(9) 0.28474(8)
C151_6 C 0.90283(9) 0.28474(8) 0.36041(9)
H92_6 H 0.8993 0.3917 0.4634
H93_6 H 0.8917 0.4634 0.3993
H94_6 H 0.9634 0.3507 0.3583
H95_6 H 0.8993 0.3583 0.2866
H96_6 H 0.8917 0.2866 0.3507
C152_6 C 0.92111(10) 0.43605(10) 0.40736(10)
C153_6 C 0.90736(10) 0.42111(10) 0.43605(10)
C154_6 C 0.93605(10) 0.34264(10) 0.32889(10)
C155_6 C 0.92111(10) 0.31395(10) 0.34264(10)
C156_6 C 0.90736(10) 0.32889(10) 0.31395(10)
S2_7 S 0.54936(4) 0.00415(4) 0.13094(8)
C2_7 C 0.57463(12) 0.00110(9) 0.12880(12)
S8_7 S 0.70064(4) 0.00415(4) 0.11906(8)
N59_7 N 0.62490(8) 0.01961(7) 0.09894(8)
N60_7 N 0.59894(8) 0.12490(8) 0.01961(7)
N61_7 N 0.51961(7) 0.09894(8) 0.12490(8)
N68_7 N 0.57813(8) 0.06371(8) 0.09393(8)
N69_7 N 0.56371(8) 0.09393(8) 0.07813(8)
N70_7 N 0.59393(8) 0.07813(8) 0.06371(8)
C32_7 C 0.67537(12) 0.00110(9) 0.12120(12)
C129_7 C 0.63830(12) 0.01698(11) 0.08277(11)
C130_7 C 0.58277(11) 0.13830(12) 0.01698(11)
C131_7 C 0.51698(11) 0.08277(11) 0.13830(12)
H79_7 H 0.6487 0.0064 0.0839
H80_7 H 0.5839 0.1487 0.0064
H81_7 H 0.5064 0.0839 0.1487
C134_7 C 0.63764(15) 0.02886(14) 0.06485(12)
C135_7 C 0.56485(12) 0.13764(15) 0.02886(14)
C136_7 C 0.52886(14) 0.06485(12) 0.13764(15)
H84_7 H 0.6473 0.0263 0.0538
H85_7 H 0.5538 0.1473 0.0263
H86_7 H 0.5263 0.0538 0.1473
C139_7 C 0.62281(13) 0.04455(13) 0.06310(12)
C140_7 C 0.56310(12) 0.12281(13) 0.04455(13)
C141_7 C 0.54455(13) 0.06310(12) 0.12281(13)
H89_7 H 0.6220 0.0530 0.0509
H90_7 H 0.5509 0.1220 0.0530
H91_7 H 0.5530 0.0509 0.1220
C144_7 C 0.60897(11) 0.04766(10) 0.07984(10)
C145_7 C 0.57984(10) 0.10897(11) 0.04766(10)
C146_7 C 0.54766(10) 0.07984(10) 0.10897(11)
C149_7 C 0.61041(9) 0.03474(8) 0.09717(9)
C150_7 C 0.59717(9) 0.11041(9) 0.03474(8)
C151_7 C 0.53474(8) 0.09717(9) 0.11041(9)
H94_7 H 0.6007 0.0366 0.1083
H95_7 H 0.6083 0.1007 0.0366
H96_7 H 0.5366 0.1083 0.1007
C154_7 C 0.59264(10) 0.06395(10) 0.07889(10)
C155_7 C 0.56395(10) 0.07889(10) 0.09264(10)
C156_7 C 0.57889(10) 0.09264(10) 0.06395(10)
Co1_7 Co 0.620919(12) 0.870919(12) 0.0000
S1_7 S 0.57744(3) 0.91365(3) 0.04384(3)
N1_7 N 0.60581(7) 0.88693(7) 0.02418(6)
N2_7 N 0.59248(8) 0.99895(7) 0.12739(7)
N3_6 N 0.73516(7) 0.90974(7) 0.11605(6)
N4_6 N 0.65107(7) 0.87391(7) 0.01601(7)
N5_6 N 0.68919(7) 0.90989(7) 0.07041(7)
N6_6 N 0.65420(7) 0.91926(7) 0.06164(7)
N7_6 N 0.67257(7) 0.93807(7) 0.08806(8)
N8_6 N 0.62099(7) 0.97381(7) 0.10131(8)
C1_7 C 0.59422(8) 0.89797(9) 0.03286(8)
C3_6 C 0.73888(10) 0.92760(11) 0.12658(10)
H1_6 H 0.7498 0.9277 0.1367
C4_6 C 0.72763(11) 0.94586(13) 0.12346(12)
H2_6 H 0.7314 0.9583 0.1307
C5_6 C 0.71088(10) 0.94583(12) 0.10980(10)
H3_6 H 0.7024 0.9579 0.1080
C6_6 C 0.70683(9) 0.92750(9) 0.09880(8)
C7_6 C 0.71957(8) 0.91023(8) 0.10210(7)
H4_6 H 0.7171 0.8980 0.0939
C8_6 C 0.66685(11) 0.86019(12) 0.01417(11)
H5_6 H 0.6657 0.8494 0.0039
C9_6 C 0.68485(12) 0.86085(13) 0.02640(13)
H6_6 H 0.6956 0.8507 0.0245
C10_6 C 0.68692(11) 0.87624(11) 0.04123(12)
H7_6 H 0.6990 0.8769 0.0500
C11_6 C 0.67084(9) 0.89104(9) 0.04316(9)
C12_6 C 0.65339(8) 0.88913(8) 0.03041(8)
H8_6 H 0.6424 0.8991 0.0319
C13_6 C 0.67172(8) 0.90778(8) 0.05918(8)
C14_6 C 0.68865(8) 0.92523(8) 0.08475(9)
C15_6 C 0.65556(8) 0.93426(8) 0.07626(9)
C16_6 C 0.63710(8) 0.96148(8) 0.09661(9)
H9_6 H 0.6495 0.9626 0.1049
C17_6 C 0.63688(9) 0.94699(9) 0.08030(10)
C18_6 C 0.61869(11) 0.94504(12) 0.06850(12)
H10_6 H 0.6178 0.9352 0.0573
C19_6 C 0.60183(12) 0.95774(13) 0.07345(14)
H11_6 H 0.5891 0.9566 0.0658
C20_6 C 0.60372(10) 0.97207(11) 0.08960(12)
H12_6 H 0.5922 0.9811 0.0925
Co5_6 Co 0.7500 0.879081(12) 0.120919(12)
Co7_10 Co 0.629081(12) 0.870919(12) 0.2500
Co9_7 Co 0.6250 0.752232(14) 0.1250
S4_7 S 0.54384(3) 0.83635(3) 0.17256(3)
S5_7 S 0.45616(3) 0.92256(3) 0.08635(3)
S9_7 S 0.63094(8) 0.74585(4) 0.20064(4)
S10_7 S 0.61906(8) 0.74585(4) 0.04936(4)
N12_7 N 0.52418(6) 0.86307(7) 0.14419(7)
N13_7 N 0.47582(6) 0.89419(7) 0.11307(7)
N16_7 N 0.65752(8) 0.99895(7) 0.12261(7)
N17_7 N 0.62739(7) 0.75105(7) 0.15752(8)
N18_7 N 0.62261(7) 0.75105(7) 0.09248(8)
N21_7 N 0.61605(6) 0.84026(7) 0.01484(7)
N24_7 N 0.51484(7) 0.90974(7) 0.13395(6)
N28_7 N 0.51601(7) 0.87609(7) 0.09893(7)
N31_7 N 0.59893(7) 0.87391(7) 0.23399(7)
N33_7 N 0.48399(7) 0.84893(7) 0.12609(7)
N35_7 N 0.57041(7) 0.84011(7) 0.06081(7)
N38_7 N 0.56081(7) 0.90989(7) 0.17959(7)
N40_7 N 0.56164(7) 0.83074(7) 0.09580(7)
N43_7 N 0.59580(7) 0.91926(7) 0.18836(7)
N45_7 N 0.58806(8) 0.81193(7) 0.07743(7)
N48_7 N 0.57743(7) 0.93807(7) 0.16194(8)
N50_7 N 0.60131(8) 0.77619(7) 0.12901(7)
N53_7 N 0.62901(7) 0.97381(7) 0.14869(8)
N55_7 N 0.64869(8) 0.77619(7) 0.12099(7)
N62_7 N 0.65106(8) 0.73039(7) 0.12490(8)
N63_7 N 0.59894(8) 0.73039(7) 0.12510(8)
C28_7 C 0.53286(8) 0.85203(9) 0.15578(8)
C29_7 C 0.46714(8) 0.90578(8) 0.10203(9)
C33_7 C 0.62880(12) 0.74890(9) 0.17537(12)
C34_7 C 0.62120(12) 0.74890(9) 0.07463(12)
C37_7 C 0.62658(10) 0.82240(11) 0.01112(10)
C40_7 C 0.51112(10) 0.92760(11) 0.12342(10)
H17_7 H 0.6367 0.8223 0.0002
H20_7 H 0.5002 0.9277 0.1133
C42_7 C 0.62346(12) 0.80414(13) 0.02237(11)
C45_7 C 0.52237(11) 0.94586(13) 0.12654(12)
H22_7 H 0.6307 0.7917 0.0186
H25_7 H 0.5186 0.9583 0.1193
C47_7 C 0.60980(10) 0.80417(12) 0.03912(10)
C50_7 C 0.53912(10) 0.94583(12) 0.14020(10)
H27_7 H 0.6080 0.7921 0.0476
H30_7 H 0.5476 0.9579 0.1420
C52_7 C 0.59880(8) 0.82250(9) 0.04317(9)
C55_7 C 0.54317(9) 0.92750(9) 0.15120(8)
C57_7 C 0.60210(7) 0.83977(8) 0.03043(8)
C60_7 C 0.53043(8) 0.91023(8) 0.14790(7)
H32_7 H 0.5939 0.8520 0.0329
H35_7 H 0.5329 0.8980 0.1561
C62_7 C 0.51417(11) 0.88981(12) 0.08315(11)
C65_7 C 0.58315(11) 0.86019(12) 0.23583(11)
H37_7 H 0.5039 0.9006 0.0843
H40_7 H 0.5843 0.8494 0.2461
C67_7 C 0.52640(13) 0.88915(13) 0.06515(12)
C70_7 C 0.56515(12) 0.86085(13) 0.22360(13)
H42_7 H 0.5245 0.8993 0.0544
H45_7 H 0.5544 0.8507 0.2255
C72_7 C 0.54123(12) 0.87376(11) 0.06308(11)
C75_7 C 0.56308(11) 0.87624(11) 0.20877(12)
H47_7 H 0.5500 0.8731 0.0510
H50_7 H 0.5510 0.8769 0.2000
C77_7 C 0.54316(9) 0.85896(9) 0.07916(9)
C80_7 C 0.57916(9) 0.89104(9) 0.20684(9)
C82_7 C 0.53041(8) 0.86087(8) 0.09661(8)
C85_7 C 0.59661(8) 0.88913(8) 0.21959(8)
H52_7 H 0.5319 0.8509 0.1076
H55_7 H 0.6076 0.8991 0.2181
C87_7 C 0.55918(8) 0.84222(8) 0.07828(8)
C90_7 C 0.57828(8) 0.90778(8) 0.19082(8)
C92_7 C 0.58475(9) 0.82477(8) 0.06135(8)
C95_7 C 0.56135(8) 0.92523(8) 0.16525(9)
C97_7 C 0.57626(9) 0.81574(8) 0.09444(8)
C100_7 C 0.59444(8) 0.93426(8) 0.17374(9)
C102_7 C 0.59661(9) 0.78852(8) 0.11290(8)
C105_7 C 0.61290(8) 0.96148(8) 0.15339(9)
H57_7 H 0.6049 0.7874 0.1005
H60_7 H 0.6005 0.9626 0.1451
C107_7 C 0.58030(10) 0.80301(9) 0.11312(9)
C110_7 C 0.61312(9) 0.94699(9) 0.16970(10)
C112_7 C 0.56850(12) 0.80496(12) 0.13131(11)
C115_7 C 0.63131(11) 0.94504(12) 0.18150(12)
H62_7 H 0.5573 0.8148 0.1322
H65_7 H 0.6322 0.9352 0.1927
C117_7 C 0.57345(14) 0.79226(13) 0.14817(12)
C120_7 C 0.64817(12) 0.95774(13) 0.17655(14)
H67_7 H 0.5658 0.7934 0.1609
H70_7 H 0.6609 0.9566 0.1842
C122_7 C 0.58960(12) 0.77793(11) 0.14628(10)
C125_7 C 0.64628(10) 0.97207(11) 0.16040(12)
H72_7 H 0.5925 0.7689 0.1578
H75_7 H 0.6578 0.9811 0.1575
Co1_8 Co 0.620919(12) 0.870919(12) 1.0000
S3_7 S 0.66365(3) 0.82744(3) 0.95616(3)
S6_7 S 0.58635(3) 0.79384(3) 0.82744(3)
S7_7 S 0.67256(3) 0.70616(3) 0.91365(3)
N11_7 N 0.63693(7) 0.85581(7) 0.97582(6)
N14_7 N 0.61307(7) 0.77418(6) 0.85581(7)
N15_7 N 0.64419(7) 0.72582(6) 0.88693(7)
N22_7 N 0.59026(7) 0.86605(6) 0.98516(7)
N27_7 N 0.63395(6) 0.73516(7) 0.84026(7)
N29_7 N 0.62609(7) 0.76601(7) 0.90107(7)
N30_7 N 0.62391(7) 0.90107(7) 0.98399(7)
N34_7 N 0.59893(7) 0.73399(7) 0.87391(7)
N36_7 N 0.59011(7) 0.82041(7) 0.93919(7)
N37_7 N 0.65989(7) 0.93919(7) 0.92959(7)
N41_7 N 0.58074(7) 0.81164(7) 0.90420(7)
N42_7 N 0.66926(7) 0.90420(7) 0.93836(7)
N46_7 N 0.56193(7) 0.83806(8) 0.92257(7)
N47_7 N 0.68807(7) 0.92257(7) 0.91194(8)
N52_7 N 0.72381(7) 0.87099(7) 0.89869(8)
C27_7 C 0.64797(9) 0.84422(8) 0.96714(8)
C30_7 C 0.60203(9) 0.78286(8) 0.84422(8)
C31_7 C 0.65578(8) 0.71714(8) 0.89797(9)
C38_7 C 0.57240(11) 0.87658(10) 0.98888(10)
C39_7 C 0.67760(11) 0.98888(10) 0.87342(10)
H18_7 H 0.5723 0.8867 0.9998
H19_7 H 0.6777 0.9998 0.8633
C43_7 C 0.55414(13) 0.87346(12) 0.97763(11)
C44_7 C 0.69586(13) 0.97763(11) 0.87654(12)
H23_7 H 0.5417 0.8807 0.9814
H24_7 H 0.7083 0.9814 0.8693
C48_7 C 0.55417(12) 0.85980(10) 0.96088(10)
C49_7 C 0.69583(12) 0.96088(10) 0.89020(10)
H28_7 H 0.5421 0.8580 0.9524
H29_7 H 0.7079 0.9524 0.8920
C53_7 C 0.57250(9) 0.84880(8) 0.95683(9)
C54_7 C 0.67750(9) 0.95683(9) 0.90120(8)
C58_7 C 0.58977(8) 0.85210(7) 0.96957(8)
C59_7 C 0.66023(8) 0.96957(8) 0.89790(7)
H33_7 H 0.6020 0.8439 0.9671
H34_7 H 0.6480 0.9671 0.9061
C63_7 C 0.63981(12) 0.76417(11) 0.91685(11)
C64_7 C 0.61019(12) 0.91685(11) 0.98583(11)
H38_7 H 0.6506 0.7539 0.9157
H39_7 H 0.5994 0.9157 0.9961
C68_7 C 0.63915(13) 0.77640(13) 0.93485(12)
C69_7 C 0.61085(13) 0.93485(12) 0.97360(13)
H43_7 H 0.6493 0.7745 0.9456
H44_7 H 0.6007 0.9456 0.9755
C73_7 C 0.62376(11) 0.79123(12) 0.93692(11)
C74_7 C 0.62624(11) 0.93692(11) 0.95877(12)
H48_7 H 0.6231 0.8000 0.9490
H49_7 H 0.6269 0.9490 0.9500
C78_7 C 0.60896(9) 0.79316(9) 0.92084(9)
C79_7 C 0.64104(9) 0.92084(9) 0.95684(9)
C83_7 C 0.61087(8) 0.78041(8) 0.90339(8)
C84_7 C 0.63913(8) 0.90339(8) 0.96959(8)
H53_7 H 0.6009 0.7819 0.8924
H54_7 H 0.6491 0.8924 0.9681
C88_7 C 0.59222(8) 0.80918(8) 0.92172(8)
C89_7 C 0.65778(8) 0.92172(8) 0.94082(8)
C93_7 C 0.57477(8) 0.83475(9) 0.93865(8)
C94_7 C 0.67523(8) 0.93865(8) 0.91525(9)
C98_7 C 0.56574(8) 0.82626(9) 0.90556(8)
C99_7 C 0.68426(8) 0.90556(8) 0.92374(9)
C103_7 C 0.53852(8) 0.84661(9) 0.88710(8)
C104_7 C 0.71148(8) 0.88710(8) 0.90339(9)
H58_7 H 0.5374 0.8549 0.8995
H59_7 H 0.7126 0.8995 0.8951
C108_7 C 0.55301(9) 0.83030(10) 0.88688(9)
C109_7 C 0.69699(9) 0.88688(9) 0.91970(10)
C113_7 C 0.55496(12) 0.81850(12) 0.86869(11)
C114_7 C 0.69504(12) 0.86869(11) 0.93150(12)
H63_7 H 0.5648 0.8073 0.8678
H64_7 H 0.6852 0.8678 0.9427
C118_7 C 0.54226(13) 0.82345(14) 0.85183(12)
C119_7 C 0.70774(13) 0.85183(12) 0.92655(14)
H68_7 H 0.5434 0.8158 0.8391
H69_7 H 0.7066 0.8391 0.9342
C123_7 C 0.52793(11) 0.83960(12) 0.85372(10)
C124_7 C 0.72207(11) 0.85372(10) 0.91040(12)
H73_7 H 0.5189 0.8425 0.8422
H74_7 H 0.7311 0.8422 0.9075
S11_7 S 0.20064(4) 0.11906(8) 0.00415(4)
S12_7 S 0.04936(4) 0.13094(8) 0.00415(4)
N64_7 N 0.12490(8) 0.09894(8) 0.01961(7)
N65_7 N 0.12510(8) 0.15106(8) 0.01961(7)
C35_7 C 0.17537(12) 0.12120(12) 0.00110(9)
C36_7 C 0.07463(12) 0.12880(12) 0.00110(9)
Co4_10 Co 0.129081(12) 0.2500 0.870919(12)
Co6_7 Co 0.120919(12) 0.0000 0.870919(12)
Co10_7 Co 0.1250 0.1250 0.997768(14)
S3_8 S 0.04384(3) 0.17256(3) 0.83635(3)
S6_8 S 0.17256(3) 0.20616(3) 0.91365(3)
S7_8 S 0.08635(3) 0.29384(3) 0.82744(3)
N11_8 N 0.02418(6) 0.14419(7) 0.86307(7)
N14_8 N 0.14419(7) 0.22582(6) 0.88693(7)
N15_8 N 0.11307(7) 0.27418(6) 0.85581(7)
N19_7 N 0.15752(8) 0.12261(7) 0.99895(7)
N20_7 N 0.09248(8) 0.12739(7) 0.99895(7)
N22_8 N 0.01484(7) 0.13395(6) 0.90974(7)
N23_6 N 0.11605(6) 0.01484(7) 0.84026(7)
N26_7 N 0.13395(6) 0.23516(7) 0.84026(7)
N27_8 N 0.15974(7) 0.26484(7) 0.86605(6)
N29_8 N 0.09893(7) 0.23399(7) 0.87391(7)
N30_8 N 0.01601(7) 0.09893(7) 0.87609(7)
N34_8 N 0.12609(7) 0.26601(7) 0.90107(7)
N36_8 N 0.06081(7) 0.17959(7) 0.90989(7)
N37_8 N 0.07041(7) 0.06081(7) 0.84011(7)
N41_8 N 0.09580(7) 0.18836(7) 0.91926(7)
N42_8 N 0.06164(7) 0.09580(7) 0.83074(7)
N46_8 N 0.07743(7) 0.16194(8) 0.93807(7)
N47_8 N 0.08806(8) 0.07743(7) 0.81193(7)
N51_7 N 0.12901(7) 0.14869(8) 0.97381(7)
N52_8 N 0.10131(8) 0.12901(7) 0.77619(7)
N56_7 N 0.12099(7) 0.10131(8) 0.97381(7)
C27_8 C 0.03286(8) 0.15578(8) 0.85203(9)
C30_8 C 0.15578(8) 0.21714(8) 0.89797(9)
C31_8 C 0.10203(9) 0.28286(8) 0.84422(8)
C38_8 C 0.01112(10) 0.12342(10) 0.92760(11)
C39_8 C 0.12658(10) 0.01112(10) 0.82240(11)
H18_8 H 0.0002 0.1133 0.9277
H19_8 H 0.1367 0.0002 0.8223
C43_8 C 0.02237(11) 0.12654(12) 0.94586(13)
C44_8 C 0.12346(12) 0.02237(11) 0.80414(13)
H23_8 H 0.0186 0.1193 0.9583
H24_8 H 0.1307 0.0186 0.7917
C48_8 C 0.03912(10) 0.14020(10) 0.94583(12)
C49_8 C 0.10980(10) 0.03912(10) 0.80417(12)
H28_8 H 0.0476 0.1420 0.9579
H29_8 H 0.1080 0.0476 0.7921
C53_8 C 0.04317(9) 0.15120(8) 0.92750(9)
C54_8 C 0.09880(8) 0.04317(9) 0.82250(9)
C58_8 C 0.03043(8) 0.14790(7) 0.91023(8)
C59_8 C 0.10210(7) 0.03043(8) 0.83977(8)
H33_8 H 0.0329 0.1561 0.8980
H34_8 H 0.0939 0.0329 0.8520
C63_8 C 0.08315(11) 0.23583(11) 0.86019(12)
C64_8 C 0.01417(11) 0.08315(11) 0.88981(12)
H38_8 H 0.0843 0.2461 0.8494
H39_8 H 0.0039 0.0843 0.9006
C68_8 C 0.06515(12) 0.22360(13) 0.86085(13)
C69_8 C 0.02640(13) 0.06515(12) 0.88915(13)
H43_8 H 0.0544 0.2255 0.8507
H44_8 H 0.0245 0.0544 0.8993
C73_8 C 0.06308(11) 0.20877(12) 0.87624(11)
C74_8 C 0.04123(12) 0.06308(11) 0.87376(11)
H48_8 H 0.0510 0.2000 0.8769
H49_8 H 0.0500 0.0510 0.8731
C78_8 C 0.07916(9) 0.20684(9) 0.89104(9)
C79_8 C 0.04316(9) 0.07916(9) 0.85896(9)
C83_8 C 0.09661(8) 0.21959(8) 0.88913(8)
C84_8 C 0.03041(8) 0.09661(8) 0.86087(8)
H53_8 H 0.1076 0.2181 0.8991
H54_8 H 0.0319 0.1076 0.8509
C88_8 C 0.07828(8) 0.19082(8) 0.90778(8)
C89_8 C 0.05918(8) 0.07828(8) 0.84222(8)
C93_8 C 0.06135(8) 0.16525(9) 0.92523(8)
C94_8 C 0.08475(9) 0.06135(8) 0.82477(8)
C98_8 C 0.09444(8) 0.17374(9) 0.93426(8)
C99_8 C 0.07626(9) 0.09444(8) 0.81574(8)
C103_8 C 0.11290(8) 0.15339(9) 0.96148(8)
C104_8 C 0.09661(9) 0.11290(8) 0.78852(8)
H58_8 H 0.1005 0.1451 0.9626
H59_8 H 0.1049 0.1005 0.7874
C108_8 C 0.11312(9) 0.16970(10) 0.94699(9)
C109_8 C 0.08030(10) 0.11312(9) 0.80301(9)
C113_8 C 0.13131(11) 0.18150(12) 0.94504(12)
C114_8 C 0.06850(12) 0.13131(11) 0.80496(12)
H63_8 H 0.1322 0.1927 0.9352
H64_8 H 0.0573 0.1322 0.8148
C118_8 C 0.14817(12) 0.17655(14) 0.95774(13)
C119_8 C 0.07345(14) 0.14817(12) 0.79226(13)
H68_8 H 0.1609 0.1842 0.9566
H69_8 H 0.0658 0.1609 0.7934
C123_8 C 0.14628(10) 0.16040(12) 0.97207(11)
C124_8 C 0.08960(12) 0.14628(10) 0.77793(11)
H73_8 H 0.1578 0.1575 0.9811
H74_8 H 0.0925 0.1578 0.7689
Co6_8 Co 0.120919(12) 1.0000 0.870919(12)
Co14_6 Co 0.002232(14) 0.8750 0.8750
S1_8 S 0.95616(3) 0.08635(3) 0.92256(3)
N1_8 N 0.97582(6) 0.11307(7) 0.89419(7)
N2_8 N 0.87261(7) 0.00105(7) 0.90752(8)
C1_8 C 0.96714(8) 0.10203(9) 0.90578(8)
Co9_8 Co 0.8750 0.247768(14) 0.8750
S9_8 S 0.79936(4) 0.25415(4) 0.86906(8)
S10_8 S 0.95064(4) 0.25415(4) 0.88094(8)
N16_8 N 0.87739(7) 0.00105(7) 0.84248(8)
N17_8 N 0.84248(8) 0.24895(7) 0.87261(7)
N18_8 N 0.90752(8) 0.24895(7) 0.87739(7)
N21_8 N 0.98516(7) 0.15974(7) 0.88395(6)
N35_8 N 0.93919(7) 0.15989(7) 0.92959(7)
N40_8 N 0.90420(7) 0.16926(7) 0.93836(7)
N45_8 N 0.92257(7) 0.18807(7) 0.91194(8)
N50_8 N 0.87099(7) 0.22381(7) 0.89869(8)
N55_8 N 0.87901(7) 0.22381(7) 0.85131(8)
N62_8 N 0.87510(8) 0.26961(7) 0.84894(8)
N63_8 N 0.87490(8) 0.26961(7) 0.90106(8)
C33_8 C 0.82463(12) 0.25110(9) 0.87120(12)
C34_8 C 0.92537(12) 0.25110(9) 0.87880(12)
C37_8 C 0.98888(10) 0.17760(11) 0.87342(10)
H17_8 H 0.9998 0.1777 0.8633
C42_8 C 0.97763(11) 0.19586(13) 0.87654(12)
H22_8 H 0.9814 0.2083 0.8693
C47_8 C 0.96088(10) 0.19583(12) 0.89020(10)
H27_8 H 0.9524 0.2079 0.8920
C52_8 C 0.95683(9) 0.17750(9) 0.90120(8)
C57_8 C 0.96957(8) 0.16023(8) 0.89790(7)
H32_8 H 0.9671 0.1480 0.9061
C62_8 C 0.91685(11) 0.11019(12) 0.98583(11)
H37_8 H 0.9157 0.0994 0.9961
C67_8 C 0.93485(12) 0.11085(13) 0.97360(13)
H42_8 H 0.9456 0.1007 0.9755
C72_8 C 0.93692(11) 0.12624(11) 0.95877(12)
H47_8 H 0.9490 0.1269 0.9500
C77_8 C 0.92084(9) 0.14104(9) 0.95684(9)
C82_8 C 0.90339(8) 0.13913(8) 0.96959(8)
H52_8 H 0.8924 0.1491 0.9681
C87_8 C 0.92172(8) 0.15778(8) 0.94082(8)
C92_8 C 0.93865(8) 0.17523(8) 0.91525(9)
C97_8 C 0.90556(8) 0.18426(8) 0.92374(9)
C102_8 C 0.88710(8) 0.21148(8) 0.90339(9)
H57_8 H 0.8995 0.2126 0.8951
C107_8 C 0.88688(9) 0.19699(9) 0.91970(10)
C112_8 C 0.86869(11) 0.19504(12) 0.93150(12)
H62_8 H 0.8678 0.1852 0.9427
C117_8 C 0.85183(12) 0.20774(13) 0.92655(14)
H67_8 H 0.8391 0.2066 0.9342
C122_8 C 0.85372(10) 0.22207(11) 0.91040(12)
H72_8 H 0.8422 0.2311 0.9075
Co15_7 Co 0.8750 0.8750 0.002232(14)
S2_8 S 0.86906(8) 0.99585(4) 0.95064(4)
N9_7 N 0.84894(8) 0.98039(7) 0.87490(8)
N10_7 N 0.84393(8) 0.93629(8) 0.82813(8)
C2_8 C 0.87120(12) 0.99890(9) 0.92537(12)
C21_7 C 0.83277(11) 0.98302(11) 0.88830(12)
H13_7 H 0.8339 0.9936 0.8987
C22_7 C 0.81485(12) 0.97114(14) 0.88764(15)
H14_7 H 0.8038 0.9737 0.8973
C23_7 C 0.81310(12) 0.95545(13) 0.87281(13)
H15_7 H 0.8009 0.9470 0.8720
C24_7 C 0.82984(10) 0.95234(10) 0.85897(11)
C25_7 C 0.84717(9) 0.96526(8) 0.86041(9)
H16_7 H 0.8583 0.9634 0.8507
C26_7 C 0.82889(10) 0.93605(10) 0.84264(10)
Co12_6 Co 0.8750 0.8750 0.747768(14)
S8_8 S 0.88094(8) 0.99585(4) 0.79936(4)
N57_7 N 0.76961(7) 0.87510(8) 0.84894(8)
N58_7 N 0.87490(8) 0.90106(8) 0.76961(7)
N59_8 N 0.90106(8) 0.98039(7) 0.87510(8)
N60_8 N 0.98039(7) 0.87510(8) 0.90106(8)
N61_8 N 0.87510(8) 0.90106(8) 0.98039(7)
N66_7 N 0.82813(8) 0.90607(8) 0.81371(8)
N67_7 N 0.81371(8) 0.92187(8) 0.84393(8)
N68_8 N 0.90607(8) 0.93629(8) 0.92187(8)
N69_8 N 0.92187(8) 0.90607(8) 0.93629(8)
N70_8 N 0.93629(8) 0.92187(8) 0.90607(8)
C32_8 C 0.87880(12) 0.99890(9) 0.82463(12)
C127_7 C 0.76698(11) 0.86170(12) 0.83277(11)
C128_7 C 0.88830(12) 0.91723(11) 0.76698(11)
C129_8 C 0.91723(11) 0.98302(11) 0.86170(12)
C130_8 C 0.98302(11) 0.86170(12) 0.91723(11)
C131_8 C 0.86170(12) 0.91723(11) 0.98302(11)
H77_7 H 0.7564 0.8513 0.8339
H78_7 H 0.8987 0.9161 0.7564
H79_8 H 0.9161 0.9936 0.8513
H80_8 H 0.9936 0.8513 0.9161
H81_8 H 0.8513 0.9161 0.9936
C132_7 C 0.77886(14) 0.86236(15) 0.81485(12)
C133_7 C 0.88764(15) 0.93515(12) 0.77886(14)
C134_8 C 0.93515(12) 0.97114(14) 0.86236(15)
C135_8 C 0.97114(14) 0.86236(15) 0.93515(12)
C136_8 C 0.86236(15) 0.93515(12) 0.97114(14)
H82_7 H 0.7763 0.8527 0.8038
H83_7 H 0.8973 0.9462 0.7763
H84_8 H 0.9462 0.9737 0.8527
H85_8 H 0.9737 0.8527 0.9462
H86_8 H 0.8527 0.9462 0.9737
C137_7 C 0.79455(13) 0.87719(13) 0.81310(12)
C138_7 C 0.87281(13) 0.93690(12) 0.79455(13)
C139_8 C 0.93690(12) 0.95545(13) 0.87719(13)
C140_8 C 0.95545(13) 0.87719(13) 0.93690(12)
C141_8 C 0.87719(13) 0.93690(12) 0.95545(13)
H87_7 H 0.8030 0.8780 0.8009
H88_7 H 0.8720 0.9491 0.8030
H89_8 H 0.9491 0.9470 0.8780
H90_8 H 0.9470 0.8780 0.9491
H91_8 H 0.8780 0.9491 0.9470
C142_7 C 0.79766(10) 0.89103(11) 0.82984(10)
C143_7 C 0.85897(11) 0.92016(10) 0.79766(10)
C144_8 C 0.92016(10) 0.95234(10) 0.89103(11)
C145_8 C 0.95234(10) 0.89103(11) 0.92016(10)
C146_8 C 0.89103(11) 0.92016(10) 0.95234(10)
C147_7 C 0.78474(8) 0.88959(9) 0.84717(9)
C148_7 C 0.86041(9) 0.90283(9) 0.78474(8)
C149_8 C 0.90283(9) 0.96526(8) 0.88959(9)
C150_8 C 0.96526(8) 0.88959(9) 0.90283(9)
C151_8 C 0.88959(9) 0.90283(9) 0.96526(8)
H92_7 H 0.7866 0.8993 0.8583
H93_7 H 0.8507 0.8917 0.7866
H94_8 H 0.8917 0.9634 0.8993
H95_8 H 0.9634 0.8993 0.8917
H96_8 H 0.8993 0.8917 0.9634
C152_7 C 0.84264(10) 0.92111(10) 0.81395(10)
C153_7 C 0.81395(10) 0.90736(10) 0.82889(10)
C154_8 C 0.92111(10) 0.93605(10) 0.90736(10)
C155_8 C 0.90736(10) 0.92111(10) 0.93605(10)
C156_8 C 0.93605(10) 0.90736(10) 0.92111(10)
S2_9 S 0.11906(8) 0.70064(4) 0.00415(4)
N9_8 N 0.09894(8) 0.62490(8) 0.01961(7)
N10_8 N 0.09393(8) 0.57813(8) 0.06371(8)
C2_9 C 0.12120(12) 0.67537(12) 0.00110(9)
C21_8 C 0.08277(11) 0.63830(12) 0.01698(11)
H13_8 H 0.0839 0.6487 0.0064
C22_8 C 0.06485(12) 0.63764(15) 0.02886(14)
H14_8 H 0.0538 0.6473 0.0263
C23_8 C 0.06310(12) 0.62281(13) 0.04455(13)
H15_8 H 0.0509 0.6220 0.0530
C24_8 C 0.07984(10) 0.60897(11) 0.04766(10)
C25_8 C 0.09717(9) 0.61041(9) 0.03474(8)
H16_8 H 0.1083 0.6007 0.0366
C26_8 C 0.07889(10) 0.59264(10) 0.06395(10)
Co6_9 Co 0.370919(12) 0.620919(12) 0.0000
Co8_9 Co 0.129081(12) 0.879081(12) 0.0000
S8_9 S 0.13094(8) 0.54936(4) 0.00415(4)
N57_8 N 0.01961(7) 0.59894(8) 0.12490(8)
N58_8 N 0.12490(8) 0.51961(7) 0.09894(8)
N59_9 N 0.15106(8) 0.62510(8) 0.01961(7)
N60_9 N 0.23039(7) 0.65106(8) 0.12490(8)
N61_9 N 0.12510(8) 0.73039(7) 0.09894(8)
N66_8 N 0.07813(8) 0.56371(8) 0.09393(8)
N67_8 N 0.06371(8) 0.59393(8) 0.07813(8)
N68_9 N 0.15607(8) 0.67187(8) 0.06371(8)
N69_9 N 0.17187(8) 0.68629(8) 0.09393(8)
N70_9 N 0.18629(8) 0.65607(8) 0.07813(8)
C32_9 C 0.12880(12) 0.57463(12) 0.00110(9)
C127_8 C 0.01698(11) 0.58277(11) 0.13830(12)
C128_8 C 0.13830(12) 0.51698(11) 0.08277(11)
C129_9 C 0.16723(11) 0.61170(12) 0.01698(11)
C130_9 C 0.23302(11) 0.66723(11) 0.13830(12)
C131_9 C 0.11170(12) 0.73302(11) 0.08277(11)
H77_8 H 0.0064 0.5839 0.1487
H78_8 H 0.1487 0.5064 0.0839
H79_9 H 0.1661 0.6013 0.0064
H80_9 H 0.2436 0.6661 0.1487
H81_9 H 0.1013 0.7436 0.0839
C132_8 C 0.02886(14) 0.56485(12) 0.13764(15)
C133_8 C 0.13764(15) 0.52886(14) 0.06485(12)
C134_9 C 0.18515(12) 0.61236(15) 0.02886(14)
C135_9 C 0.22114(14) 0.68515(12) 0.13764(15)
C136_9 C 0.11236(15) 0.72114(14) 0.06485(12)
H82_8 H 0.0263 0.5538 0.1473
H83_8 H 0.1473 0.5263 0.0538
H84_9 H 0.1962 0.6027 0.0263
H85_9 H 0.2237 0.6962 0.1473
H86_9 H 0.1027 0.7237 0.0538
C137_8 C 0.04455(13) 0.56310(12) 0.12281(13)
C138_8 C 0.12281(13) 0.54455(13) 0.06310(12)
C139_9 C 0.18690(12) 0.62719(13) 0.04455(13)
C140_9 C 0.20545(13) 0.68690(12) 0.12281(13)
C141_9 C 0.12719(13) 0.70545(13) 0.06310(12)
H87_8 H 0.0530 0.5509 0.1220
H88_8 H 0.1220 0.5530 0.0509
H89_9 H 0.1991 0.6280 0.0530
H90_9 H 0.1970 0.6991 0.1220
H91_9 H 0.1280 0.6970 0.0509
C142_8 C 0.04766(10) 0.57984(10) 0.10897(11)
C143_8 C 0.10897(11) 0.54766(10) 0.07984(10)
C144_9 C 0.17016(10) 0.64103(11) 0.04766(10)
C145_9 C 0.20234(10) 0.67016(10) 0.10897(11)
C146_9 C 0.14103(11) 0.70234(10) 0.07984(10)
C147_8 C 0.03474(8) 0.59717(9) 0.11041(9)
C148_8 C 0.11041(9) 0.53474(8) 0.09717(9)
C149_9 C 0.15283(9) 0.63959(9) 0.03474(8)
C150_9 C 0.21526(8) 0.65283(9) 0.11041(9)
C151_9 C 0.13959(9) 0.71526(8) 0.09717(9)
H92_8 H 0.0366 0.6083 0.1007
H93_8 H 0.1007 0.5366 0.1083
H94_9 H 0.1417 0.6493 0.0366
H95_9 H 0.2134 0.6417 0.1007
H96_9 H 0.1493 0.7134 0.1083
C152_8 C 0.09264(10) 0.56395(10) 0.07889(10)
C153_8 C 0.06395(10) 0.57889(10) 0.09264(10)
C154_9 C 0.17111(10) 0.65736(10) 0.06395(10)
C155_9 C 0.15736(10) 0.68605(10) 0.07889(10)
C156_9 C 0.18605(10) 0.67111(10) 0.09264(10)
Co1_9 Co 0.2500 0.629081(12) 0.870919(12)
Co2_6 Co 0.1250 0.6250 0.997768(14)
S1_9 S 0.20616(3) 0.67256(3) 0.91365(3)
N1_9 N 0.22582(6) 0.64419(7) 0.88693(7)
N2_9 N 0.12261(7) 0.65752(8) 0.99895(7)
N3_7 N 0.13395(6) 0.51484(7) 0.90974(7)
N4_7 N 0.23399(7) 0.59893(7) 0.87391(7)
N5_7 N 0.17959(7) 0.56081(7) 0.90989(7)
N6_7 N 0.18836(7) 0.59580(7) 0.91926(7)
N7_7 N 0.16194(8) 0.57743(7) 0.93807(7)
N8_7 N 0.14869(8) 0.62901(7) 0.97381(7)
C1_9 C 0.21714(8) 0.65578(8) 0.89797(9)
C3_7 C 0.12342(10) 0.51112(10) 0.92760(11)
H1_7 H 0.1133 0.5002 0.9277
C4_7 C 0.12654(12) 0.52237(11) 0.94586(13)
H2_7 H 0.1193 0.5186 0.9583
C5_7 C 0.14020(10) 0.53912(10) 0.94583(12)
H3_7 H 0.1420 0.5476 0.9579
C6_7 C 0.15120(8) 0.54317(9) 0.92750(9)
C7_7 C 0.14790(7) 0.53043(8) 0.91023(8)
H4_7 H 0.1561 0.5329 0.8980
C8_7 C 0.23583(11) 0.58315(11) 0.86019(12)
H5_7 H 0.2461 0.5843 0.8494
C9_7 C 0.22360(13) 0.56515(12) 0.86085(13)
H6_7 H 0.2255 0.5544 0.8507
C10_7 C 0.20877(12) 0.56308(11) 0.87624(11)
H7_7 H 0.2000 0.5510 0.8769
C11_7 C 0.20684(9) 0.57916(9) 0.89104(9)
C12_7 C 0.21959(8) 0.59661(8) 0.88913(8)
H8_7 H 0.2181 0.6076 0.8991
C13_7 C 0.19082(8) 0.57828(8) 0.90778(8)
C14_7 C 0.16525(9) 0.56135(8) 0.92523(8)
C15_7 C 0.17374(9) 0.59444(8) 0.93426(8)
C16_7 C 0.15339(9) 0.61290(8) 0.96148(8)
H9_7 H 0.1451 0.6005 0.9626
C17_7 C 0.16970(10) 0.61312(9) 0.94699(9)
C18_7 C 0.18150(12) 0.63131(11) 0.94504(12)
H10_7 H 0.1927 0.6322 0.9352
C19_7 C 0.17655(14) 0.64817(12) 0.95774(13)
H11_7 H 0.1842 0.6609 0.9566
C20_7 C 0.16040(12) 0.64628(10) 0.97207(11)
H12_7 H 0.1575 0.6578 0.9811
Co3_8 Co 0.120919(12) 0.7500 0.879081(12)
Co4_11 Co 0.379081(12) 0.620919(12) 0.7500
Co5_7 Co 0.129081(12) 0.5000 0.879081(12)
Co6_10 Co 0.370919(12) 0.620919(12) 1.0000
Co7_11 Co 0.0000 0.620919(12) 0.870919(12)
Co8_10 Co 0.129081(12) 0.879081(12) 1.0000
Co9_9 Co 0.1250 0.6250 0.752232(14)
Co10_8 Co 0.3750 0.747768(14) 0.8750
Co13_5 Co 0.3750 0.502232(14) 0.8750
S3_9 S 0.29384(3) 0.58635(3) 0.82744(3)
S4_8 S 0.07744(3) 0.70616(3) 0.83635(3)
S5_8 S 0.16365(3) 0.79384(3) 0.92256(3)
S6_9 S 0.42256(3) 0.66365(3) 0.79384(3)
S7_9 S 0.33635(3) 0.57744(3) 0.70616(3)
S9_9 S 0.04936(4) 0.61906(8) 0.74585(4)
S10_9 S 0.20064(4) 0.63094(8) 0.74585(4)
S11_8 S 0.45064(4) 0.75415(4) 0.88094(8)
S12_8 S 0.29936(4) 0.75415(4) 0.86906(8)
N11_9 N 0.27418(6) 0.61307(7) 0.85581(7)
N12_8 N 0.10581(7) 0.72582(6) 0.86307(7)
N13_8 N 0.13693(7) 0.77418(6) 0.89419(7)
N14_9 N 0.39419(7) 0.63693(7) 0.77418(6)
N15_9 N 0.36307(7) 0.60581(7) 0.72582(6)
N16_9 N 0.12739(7) 0.59248(8) 0.99895(7)
N17_9 N 0.09248(8) 0.62261(7) 0.75105(7)
N18_9 N 0.15752(8) 0.62739(7) 0.75105(7)
N19_8 N 0.40752(8) 0.74895(7) 0.87739(7)
N20_8 N 0.34248(8) 0.74895(7) 0.87261(7)
N21_9 N 0.23516(7) 0.63395(6) 0.84026(7)
N22_9 N 0.26484(7) 0.65974(7) 0.86605(6)
N23_7 N 0.36605(6) 0.59026(7) 0.98516(7)
N24_8 N 0.11605(6) 0.73516(7) 0.90974(7)
N25_7 N 0.09026(7) 0.76484(7) 0.88395(6)
N26_8 N 0.38395(6) 0.59026(7) 0.76484(7)
N27_9 N 0.40974(7) 0.61605(6) 0.73516(7)
N28_8 N 0.15107(7) 0.73399(7) 0.87609(7)
N29_9 N 0.34893(7) 0.62391(7) 0.76601(7)
N30_9 N 0.26601(7) 0.62609(7) 0.90107(7)
N31_8 N 0.01601(7) 0.65107(7) 0.87391(7)
N32_7 N 0.12609(7) 0.84893(7) 0.98399(7)
N33_8 N 0.12391(7) 0.76601(7) 0.84893(7)
N34_9 N 0.37609(7) 0.65107(7) 0.73399(7)
N35_9 N 0.18919(7) 0.67959(7) 0.84011(7)
N36_9 N 0.31081(7) 0.65989(7) 0.82041(7)
N37_9 N 0.32041(7) 0.59011(7) 0.93919(7)
N38_8 N 0.07041(7) 0.68919(7) 0.90989(7)
N39_7 N 0.09011(7) 0.81081(7) 0.92959(7)
N40_9 N 0.15420(7) 0.68836(7) 0.83074(7)
N41_9 N 0.34580(7) 0.66926(7) 0.81164(7)
N42_9 N 0.31164(7) 0.58074(7) 0.90420(7)
N43_8 N 0.06164(7) 0.65420(7) 0.91926(7)
N44_7 N 0.08074(7) 0.84580(7) 0.93836(7)
N45_9 N 0.17257(7) 0.66194(8) 0.81193(7)
N46_9 N 0.32743(7) 0.68807(7) 0.83806(8)
N47_9 N 0.33806(8) 0.56193(7) 0.92257(7)
N48_8 N 0.08806(8) 0.67257(7) 0.93807(7)
N49_7 N 0.06193(7) 0.82743(7) 0.91194(8)
N50_9 N 0.12099(7) 0.64869(8) 0.77619(7)
N51_8 N 0.37901(7) 0.72381(7) 0.85131(8)
N52_9 N 0.35131(8) 0.52619(7) 0.87099(7)
N53_8 N 0.10131(8) 0.62099(7) 0.97381(7)
N54_7 N 0.02619(7) 0.87901(7) 0.89869(8)
N55_9 N 0.12901(7) 0.60131(8) 0.77619(7)
N56_8 N 0.37099(7) 0.72381(7) 0.89869(8)
N62_9 N 0.12510(8) 0.59894(8) 0.73039(7)
N63_9 N 0.12490(8) 0.65106(8) 0.73039(7)
N64_8 N 0.37490(8) 0.76961(7) 0.90106(8)
N65_8 N 0.37510(8) 0.76961(7) 0.84894(8)
C27_9 C 0.28286(8) 0.60203(9) 0.84422(8)
C28_8 C 0.09422(8) 0.71714(8) 0.85203(9)
C29_8 C 0.14797(9) 0.78286(8) 0.90578(8)
C30_9 C 0.40578(8) 0.64797(9) 0.78286(8)
C31_9 C 0.35203(9) 0.59422(8) 0.71714(8)
C33_9 C 0.07463(12) 0.62120(12) 0.74890(9)
C34_9 C 0.17537(12) 0.62880(12) 0.74890(9)
C35_8 C 0.42537(12) 0.75110(9) 0.87880(12)
C36_8 C 0.32463(12) 0.75110(9) 0.87120(12)
C37_9 C 0.23888(10) 0.62342(10) 0.82240(11)
C38_9 C 0.26112(10) 0.67760(11) 0.87658(10)
C39_9 C 0.37658(10) 0.57240(11) 0.98888(10)
C40_8 C 0.12658(10) 0.73888(10) 0.92760(11)
C41_7 C 0.07240(11) 0.76112(10) 0.87342(10)
H17_9 H 0.2498 0.6133 0.8223
H18_9 H 0.2502 0.6777 0.8867
H19_9 H 0.3867 0.5723 0.9998
H20_8 H 0.1367 0.7498 0.9277
H21_7 H 0.0723 0.7502 0.8633
C42_9 C 0.22763(11) 0.62654(12) 0.80414(13)
C43_9 C 0.27237(11) 0.69586(13) 0.87346(12)
C44_9 C 0.37346(12) 0.55414(13) 0.97763(11)
C45_8 C 0.12346(12) 0.72763(11) 0.94586(13)
C46_7 C 0.05414(13) 0.77237(11) 0.87654(12)
H22_9 H 0.2314 0.6193 0.7917
H23_9 H 0.2686 0.7083 0.8807
H24_9 H 0.3807 0.5417 0.9814
H25_8 H 0.1307 0.7314 0.9583
H26_7 H 0.0417 0.7686 0.8693
C47_9 C 0.21088(10) 0.64020(10) 0.80417(12)
C48_9 C 0.28912(10) 0.69583(12) 0.85980(10)
C49_9 C 0.35980(10) 0.55417(12) 0.96088(10)
C50_8 C 0.10980(10) 0.71088(10) 0.94583(12)
C51_7 C 0.05417(12) 0.78912(10) 0.89020(10)
H27_9 H 0.2024 0.6420 0.7921
H28_9 H 0.2976 0.7079 0.8580
H29_9 H 0.3580 0.5421 0.9524
H30_8 H 0.1080 0.7024 0.9579
H31_7 H 0.0421 0.7976 0.8920
C52_9 C 0.20683(9) 0.65120(8) 0.82250(9)
C53_9 C 0.29317(9) 0.67750(9) 0.84880(8)
C54_9 C 0.34880(8) 0.57250(9) 0.95683(9)
C55_8 C 0.09880(8) 0.70683(9) 0.92750(9)
C56_7 C 0.07250(9) 0.79317(9) 0.90120(8)
C57_9 C 0.21957(8) 0.64790(7) 0.83977(8)
C58_9 C 0.28043(8) 0.66023(8) 0.85210(7)
C59_9 C 0.35210(7) 0.58977(8) 0.96957(8)
C60_8 C 0.10210(7) 0.71957(8) 0.91023(8)
C61_7 C 0.08977(8) 0.78043(8) 0.89790(7)
H32_9 H 0.2171 0.6561 0.8520
H33_9 H 0.2829 0.6480 0.8439
H34_9 H 0.3439 0.6020 0.9671
H35_8 H 0.0939 0.7171 0.8980
H36_7 H 0.1020 0.7829 0.9061
C62_9 C 0.16685(11) 0.73583(11) 0.88981(12)
C63_9 C 0.33315(11) 0.61019(12) 0.76417(11)
C64_9 C 0.26417(11) 0.63981(12) 0.91685(11)
C65_8 C 0.01417(11) 0.66685(11) 0.86019(12)
C66_7 C 0.13981(12) 0.83315(11) 0.98583(11)
H37_9 H 0.1657 0.7461 0.9006
H38_9 H 0.3343 0.5994 0.7539
H39_9 H 0.2539 0.6506 0.9157
H40_8 H 0.0039 0.6657 0.8494
H41_7 H 0.1506 0.8343 0.9961
C67_9 C 0.18485(12) 0.72360(13) 0.88915(13)
C68_9 C 0.31515(12) 0.61085(13) 0.77640(13)
C69_9 C 0.27640(13) 0.63915(13) 0.93485(12)
C70_8 C 0.02640(13) 0.68485(12) 0.86085(13)
C71_7 C 0.13915(13) 0.81515(12) 0.97360(13)
H42_9 H 0.1956 0.7255 0.8993
H43_9 H 0.3044 0.6007 0.7745
H44_9 H 0.2745 0.6493 0.9456
H45_8 H 0.0245 0.6956 0.8507
H46_7 H 0.1493 0.8044 0.9755
C72_9 C 0.18692(11) 0.70877(12) 0.87376(11)
C73_9 C 0.31308(11) 0.62624(11) 0.79123(12)
C74_9 C 0.29123(12) 0.62376(11) 0.93692(11)
C75_8 C 0.04123(12) 0.68692(11) 0.87624(11)
C76_7 C 0.12376(11) 0.81308(11) 0.95877(12)
H47_9 H 0.1990 0.7000 0.8731
H48_9 H 0.3010 0.6269 0.8000
H49_9 H 0.3000 0.6231 0.9490
H50_8 H 0.0500 0.6990 0.8769
H51_7 H 0.1231 0.8010 0.9500
C77_9 C 0.17084(9) 0.70684(9) 0.85896(9)
C78_9 C 0.32916(9) 0.64104(9) 0.79316(9)
C79_9 C 0.29316(9) 0.60896(9) 0.92084(9)
C80_8 C 0.04316(9) 0.67084(9) 0.89104(9)
C81_7 C 0.10896(9) 0.82916(9) 0.95684(9)
C82_9 C 0.15339(8) 0.71959(8) 0.86087(8)
C83_9 C 0.34661(8) 0.63913(8) 0.78041(8)
C84_9 C 0.28041(8) 0.61087(8) 0.90339(8)
C85_8 C 0.03041(8) 0.65339(8) 0.88913(8)
C86_7 C 0.11087(8) 0.84661(8) 0.96959(8)
H52_9 H 0.1424 0.7181 0.8509
H53_9 H 0.3576 0.6491 0.7819
H54_9 H 0.2819 0.6009 0.8924
H55_8 H 0.0319 0.6424 0.8991
H56_7 H 0.1009 0.8576 0.9681
C87_9 C 0.17172(8) 0.69082(8) 0.84222(8)
C88_9 C 0.32828(8) 0.65778(8) 0.80918(8)
C89_9 C 0.30918(8) 0.59222(8) 0.92172(8)
C90_8 C 0.05918(8) 0.67172(8) 0.90778(8)
C91_7 C 0.09222(8) 0.82828(8) 0.94082(8)
C92_9 C 0.18865(8) 0.66525(9) 0.82477(8)
C93_9 C 0.31135(8) 0.67523(8) 0.83475(9)
C94_9 C 0.33475(9) 0.57477(8) 0.93865(8)
C95_8 C 0.08475(9) 0.68865(8) 0.92523(8)
C96_7 C 0.07477(8) 0.81135(8) 0.91525(9)
C97_9 C 0.15556(8) 0.67374(9) 0.81574(8)
C98_9 C 0.34444(8) 0.68426(8) 0.82626(9)
C99_9 C 0.32626(9) 0.56574(8) 0.90556(8)
C100_8 C 0.07626(9) 0.65556(8) 0.93426(8)
C101_7 C 0.06574(8) 0.84444(8) 0.92374(9)
C102_9 C 0.13710(8) 0.65339(9) 0.78852(8)
C103_9 C 0.36290(8) 0.71148(8) 0.84661(9)
C104_9 C 0.34661(9) 0.53852(8) 0.88710(8)
C105_8 C 0.09661(9) 0.63710(8) 0.96148(8)
C106_7 C 0.03852(8) 0.86290(8) 0.90339(9)
H57_9 H 0.1495 0.6451 0.7874
H58_9 H 0.3505 0.7126 0.8549
H59_9 H 0.3549 0.5374 0.8995
H60_8 H 0.1049 0.6495 0.9626
H61_7 H 0.0374 0.8505 0.8951
C107_9 C 0.13688(9) 0.66970(10) 0.80301(9)
C108_9 C 0.36312(9) 0.69699(9) 0.83030(10)
C109_9 C 0.33030(10) 0.55301(9) 0.88688(9)
C110_8 C 0.08030(10) 0.63688(9) 0.94699(9)
C111_7 C 0.05301(9) 0.86312(9) 0.91970(10)
C112_9 C 0.11869(11) 0.68150(12) 0.80496(12)
C113_9 C 0.38131(11) 0.69504(12) 0.81850(12)
C114_9 C 0.31850(12) 0.55496(12) 0.86869(11)
C115_8 C 0.06850(12) 0.61869(11) 0.94504(12)
C116_7 C 0.05496(12) 0.88131(11) 0.93150(12)
H62_9 H 0.1178 0.6927 0.8148
H63_9 H 0.3822 0.6852 0.8073
H64_9 H 0.3073 0.5648 0.8678
H65_8 H 0.0573 0.6178 0.9352
H66_7 H 0.0648 0.8822 0.9427
C117_9 C 0.10183(12) 0.67655(14) 0.79226(13)
C118_9 C 0.39817(12) 0.70774(13) 0.82345(14)
C119_9 C 0.32345(14) 0.54226(13) 0.85183(12)
C120_8 C 0.07345(14) 0.60183(12) 0.95774(13)
C121_7 C 0.04226(13) 0.89817(12) 0.92655(14)
H67_9 H 0.0891 0.6842 0.7934
H68_9 H 0.4109 0.7066 0.8158
H69_9 H 0.3158 0.5434 0.8391
H70_8 H 0.0658 0.5891 0.9566
H71_7 H 0.0434 0.9109 0.9342
C122_9 C 0.10372(10) 0.66040(12) 0.77793(11)
C123_9 C 0.39628(10) 0.72207(11) 0.83960(12)
C124_9 C 0.33960(12) 0.52793(11) 0.85372(10)
C125_8 C 0.08960(12) 0.60372(10) 0.97207(11)
C126_7 C 0.02793(11) 0.89628(10) 0.91040(12)
H72_9 H 0.0922 0.6575 0.7689
H73_9 H 0.4078 0.7311 0.8425
H74_9 H 0.3425 0.5189 0.8422
H75_8 H 0.0925 0.5922 0.9811
H76_7 H 0.0189 0.9078 0.9075
Co7_12 Co 1.0000 0.620919(12) 0.870919(12)
Co1_10 Co 0.370919(12) 0.2500 0.129081(12)
Co2_7 Co 0.3750 0.3750 0.002232(14)
S1_10 S 0.32744(3) 0.29384(3) 0.08635(3)
N1_10 N 0.35581(7) 0.27418(6) 0.11307(7)
N2_10 N 0.34248(8) 0.37739(7) 0.00105(7)
N3_8 N 0.48516(7) 0.36605(6) 0.09026(7)
N4_8 N 0.40107(7) 0.26601(7) 0.12609(7)
N5_8 N 0.43919(7) 0.32041(7) 0.09011(7)
N6_8 N 0.40420(7) 0.31164(7) 0.08074(7)
N7_8 N 0.42257(7) 0.33806(8) 0.06193(7)
N8_8 N 0.37099(7) 0.35131(8) 0.02619(7)
C1_10 C 0.34422(8) 0.28286(8) 0.10203(9)
C3_8 C 0.48888(10) 0.37658(10) 0.07240(11)
H1_8 H 0.4998 0.3867 0.0723
C4_8 C 0.47763(11) 0.37346(12) 0.05414(13)
H2_8 H 0.4814 0.3807 0.0417
C5_8 C 0.46088(10) 0.35980(10) 0.05417(12)
H3_8 H 0.4524 0.3580 0.0421
C6_8 C 0.45683(9) 0.34880(8) 0.07250(9)
C7_8 C 0.46957(8) 0.35210(7) 0.08977(8)
H4_8 H 0.4671 0.3439 0.1020
C8_8 C 0.41685(11) 0.26417(11) 0.13981(12)
H5_8 H 0.4157 0.2539 0.1506
C9_8 C 0.43485(12) 0.27640(13) 0.13915(13)
H6_8 H 0.4456 0.2745 0.1493
C10_8 C 0.43692(11) 0.29123(12) 0.12376(11)
H7_8 H 0.4490 0.3000 0.1231
C11_8 C 0.42084(9) 0.29316(9) 0.10896(9)
C12_8 C 0.40339(8) 0.28041(8) 0.11087(8)
H8_8 H 0.3924 0.2819 0.1009
C13_8 C 0.42172(8) 0.30918(8) 0.09222(8)
C14_8 C 0.43865(8) 0.33475(9) 0.07477(8)
C15_8 C 0.40556(8) 0.32626(9) 0.06574(8)
C16_8 C 0.38710(8) 0.34661(9) 0.03852(8)
H9_8 H 0.3995 0.3549 0.0374
C17_8 C 0.38688(9) 0.33030(10) 0.05301(9)
C18_8 C 0.36869(11) 0.31850(12) 0.05496(12)
H10_8 H 0.3678 0.3073 0.0648
C19_8 C 0.35183(12) 0.32345(14) 0.04226(13)
H11_8 H 0.3391 0.3158 0.0434
C20_8 C 0.35372(10) 0.33960(12) 0.02793(11)
H12_8 H 0.3422 0.3425 0.0189
Co5_8 Co 0.5000 0.370919(12) 0.120919(12)
Co7_13 Co 0.379081(12) 0.5000 0.129081(12)
Co8_11 Co 0.120919(12) 0.370919(12) 0.0000
Co9_10 Co 0.3750 0.3750 0.247768(14)
S3_10 S 0.41365(3) 0.20616(3) 0.17256(3)
S6_10 S 0.33635(3) 0.07744(3) 0.20616(3)
S7_10 S 0.42256(3) 0.16365(3) 0.29384(3)
S9_10 S 0.38094(8) 0.45064(4) 0.25415(4)
S10_10 S 0.36906(8) 0.29936(4) 0.25415(4)
N11_10 N 0.38693(7) 0.22582(6) 0.14419(7)
N14_10 N 0.36307(7) 0.10581(7) 0.22582(6)
N15_10 N 0.39419(7) 0.13693(7) 0.27418(6)
N16_10 N 0.40752(8) 0.37261(7) 0.00105(7)
N17_10 N 0.37739(7) 0.40752(8) 0.24895(7)
N18_10 N 0.37261(7) 0.34248(8) 0.24895(7)
N21_10 N 0.36605(6) 0.26484(7) 0.15974(7)
N22_10 N 0.34026(7) 0.23516(7) 0.13395(6)
N27_10 N 0.38395(6) 0.09026(7) 0.26484(7)
N29_10 N 0.37609(7) 0.15107(7) 0.23399(7)
N30_10 N 0.37391(7) 0.23399(7) 0.09893(7)
N31_9 N 0.34893(7) 0.48399(7) 0.12609(7)
N32_8 N 0.15107(7) 0.37391(7) 0.01601(7)
N34_10 N 0.34893(7) 0.12391(7) 0.26601(7)
N35_10 N 0.32041(7) 0.31081(7) 0.15989(7)
N36_10 N 0.34011(7) 0.18919(7) 0.17959(7)
N37_10 N 0.40989(7) 0.17959(7) 0.06081(7)
N38_9 N 0.31081(7) 0.42959(7) 0.09011(7)
N39_8 N 0.18919(7) 0.40989(7) 0.07041(7)
N40_10 N 0.31164(7) 0.34580(7) 0.16926(7)
N41_10 N 0.33074(7) 0.15420(7) 0.18836(7)
N42_10 N 0.41926(7) 0.18836(7) 0.09580(7)
N43_9 N 0.34580(7) 0.43836(7) 0.08074(7)
N44_8 N 0.15420(7) 0.41926(7) 0.06164(7)
N45_10 N 0.33806(8) 0.32743(7) 0.18807(7)
N46_10 N 0.31193(7) 0.17257(7) 0.16194(8)
N47_10 N 0.43807(7) 0.16194(8) 0.07743(7)
N48_9 N 0.32743(7) 0.41194(8) 0.06193(7)
N49_8 N 0.17257(7) 0.43807(7) 0.08806(8)
N50_10 N 0.35131(8) 0.37901(7) 0.22381(7)
N52_10 N 0.47381(7) 0.14869(8) 0.12901(7)
N53_9 N 0.37901(7) 0.39869(8) 0.02619(7)
N54_8 N 0.12099(7) 0.47381(7) 0.10131(8)
N55_10 N 0.39869(8) 0.37099(7) 0.22381(7)
N62_10 N 0.40106(8) 0.37490(8) 0.26961(7)
N63_10 N 0.34894(8) 0.37510(8) 0.26961(7)
C27_10 C 0.39797(9) 0.21714(8) 0.15578(8)
C30_10 C 0.35203(9) 0.09422(8) 0.21714(8)
C31_10 C 0.40578(8) 0.14797(9) 0.28286(8)
C33_10 C 0.37880(12) 0.42537(12) 0.25110(9)
C34_10 C 0.37120(12) 0.32463(12) 0.25110(9)
C37_10 C 0.37658(10) 0.26112(10) 0.17760(11)
C38_10 C 0.32240(11) 0.23888(10) 0.12342(10)
C39_10 C 0.42760(11) 0.12342(10) 0.01112(10)
C40_9 C 0.26112(10) 0.37342(10) 0.07240(11)
C41_8 C 0.23888(10) 0.42760(11) 0.12658(10)
H17_10 H 0.3867 0.2502 0.1777
H18_10 H 0.3223 0.2498 0.1133
H19_10 H 0.4277 0.1133 0.0002
H20_9 H 0.2502 0.3633 0.0723
H21_8 H 0.2498 0.4277 0.1367
C42_10 C 0.37346(12) 0.27237(11) 0.19586(13)
C43_10 C 0.30414(13) 0.22763(11) 0.12654(12)
C44_10 C 0.44586(13) 0.12654(12) 0.02237(11)
C45_9 C 0.27237(11) 0.37654(12) 0.05414(13)
C46_8 C 0.22763(11) 0.44586(13) 0.12346(12)
H22_10 H 0.3807 0.2686 0.2083
H23_10 H 0.2917 0.2314 0.1193
H24_10 H 0.4583 0.1193 0.0186
H25_9 H 0.2686 0.3693 0.0417
H26_8 H 0.2314 0.4583 0.1307
C47_10 C 0.35980(10) 0.28912(10) 0.19583(12)
C48_10 C 0.30417(12) 0.21088(10) 0.14020(10)
C49_10 C 0.44583(12) 0.14020(10) 0.03912(10)
C50_9 C 0.28912(10) 0.39020(10) 0.05417(12)
C51_8 C 0.21088(10) 0.44583(12) 0.10980(10)
H27_10 H 0.3580 0.2976 0.2079
H28_10 H 0.2921 0.2024 0.1420
H29_10 H 0.4579 0.1420 0.0476
H30_9 H 0.2976 0.3920 0.0421
H31_8 H 0.2024 0.4579 0.1080
C52_10 C 0.34880(8) 0.29317(9) 0.17750(9)
C53_10 C 0.32250(9) 0.20683(9) 0.15120(8)
C54_10 C 0.42750(9) 0.15120(8) 0.04317(9)
C55_9 C 0.29317(9) 0.40120(8) 0.07250(9)
C56_8 C 0.20683(9) 0.42750(9) 0.09880(8)
C57_10 C 0.35210(7) 0.28043(8) 0.16023(8)
C58_10 C 0.33977(8) 0.21957(8) 0.14790(7)
C59_10 C 0.41023(8) 0.14790(7) 0.03043(8)
C60_9 C 0.28043(8) 0.39790(7) 0.08977(8)
C61_8 C 0.21957(8) 0.41023(8) 0.10210(7)
H32_10 H 0.3439 0.2829 0.1480
H33_10 H 0.3520 0.2171 0.1561
H34_10 H 0.3980 0.1561 0.0329
H35_9 H 0.2829 0.4061 0.1020
H36_8 H 0.2171 0.3980 0.0939
C62_10 C 0.26417(11) 0.33315(11) 0.11019(12)
C63_10 C 0.38981(12) 0.16685(11) 0.23583(11)
C64_10 C 0.36019(12) 0.23583(11) 0.08315(11)
C65_9 C 0.33315(11) 0.48583(11) 0.13981(12)
C66_8 C 0.16685(11) 0.36019(12) 0.01417(11)
H37_10 H 0.2539 0.3343 0.0994
H38_10 H 0.4006 0.1657 0.2461
H39_10 H 0.3494 0.2461 0.0843
H40_9 H 0.3343 0.4961 0.1506
H41_8 H 0.1657 0.3494 0.0039
C67_10 C 0.27640(13) 0.31515(12) 0.11085(13)
C68_10 C 0.38915(13) 0.18485(12) 0.22360(13)
C69_10 C 0.36085(13) 0.22360(13) 0.06515(12)
C70_9 C 0.31515(12) 0.47360(13) 0.13915(13)
C71_8 C 0.18485(12) 0.36085(13) 0.02640(13)
H42_10 H 0.2745 0.3044 0.1007
H43_10 H 0.3993 0.1956 0.2255
H44_10 H 0.3507 0.2255 0.0544
H45_9 H 0.3044 0.4755 0.1493
H46_8 H 0.1956 0.3507 0.0245
C72_10 C 0.29123(12) 0.31308(11) 0.12624(11)
C73_10 C 0.37376(11) 0.18692(11) 0.20877(12)
C74_10 C 0.37624(11) 0.20877(12) 0.06308(11)
C75_9 C 0.31308(11) 0.45877(12) 0.12376(11)
C76_8 C 0.18692(11) 0.37624(11) 0.04123(12)
H47_10 H 0.3000 0.3010 0.1269
H48_10 H 0.3731 0.1990 0.2000
H49_10 H 0.3769 0.2000 0.0510
H50_9 H 0.3010 0.4500 0.1231
H51_8 H 0.1990 0.3769 0.0500
C77_10 C 0.29316(9) 0.32916(9) 0.14104(9)
C78_10 C 0.35896(9) 0.17084(9) 0.20684(9)
C79_10 C 0.39104(9) 0.20684(9) 0.07916(9)
C80_9 C 0.32916(9) 0.45684(9) 0.10896(9)
C81_8 C 0.17084(9) 0.39104(9) 0.04316(9)
C82_10 C 0.28041(8) 0.34661(8) 0.13913(8)
C83_10 C 0.36087(8) 0.15339(8) 0.21959(8)
C84_10 C 0.38913(8) 0.21959(8) 0.09661(8)
C85_9 C 0.34661(8) 0.46959(8) 0.11087(8)
C86_8 C 0.15339(8) 0.38913(8) 0.03041(8)
H52_10 H 0.2819 0.3576 0.1491
H53_10 H 0.3509 0.1424 0.2181
H54_10 H 0.3991 0.2181 0.1076
H55_9 H 0.3576 0.4681 0.1009
H56_8 H 0.1424 0.3991 0.0319
C87_10 C 0.30918(8) 0.32828(8) 0.15778(8)
C88_10 C 0.34222(8) 0.17172(8) 0.19082(8)
C89_10 C 0.40778(8) 0.19082(8) 0.07828(8)
C90_9 C 0.32828(8) 0.44082(8) 0.09222(8)
C91_8 C 0.17172(8) 0.40778(8) 0.05918(8)
C92_10 C 0.33475(9) 0.31135(8) 0.17523(8)
C93_10 C 0.32477(8) 0.18865(8) 0.16525(9)
C94_10 C 0.42523(8) 0.16525(9) 0.06135(8)
C95_9 C 0.31135(8) 0.41525(9) 0.07477(8)
C96_8 C 0.18865(8) 0.42523(8) 0.08475(9)
C97_10 C 0.32626(9) 0.34444(8) 0.18426(8)
C98_10 C 0.31574(8) 0.15556(8) 0.17374(9)
C99_10 C 0.43426(8) 0.17374(9) 0.09444(8)
C100_9 C 0.34444(8) 0.42374(9) 0.06574(8)
C101_8 C 0.15556(8) 0.43426(8) 0.07626(9)
C102_10 C 0.34661(9) 0.36290(8) 0.21148(8)
C103_10 C 0.28852(8) 0.13710(8) 0.15339(9)
C104_10 C 0.46148(8) 0.15339(9) 0.11290(8)
C105_9 C 0.36290(8) 0.40339(9) 0.03852(8)
C106_8 C 0.13710(8) 0.46148(8) 0.09661(9)
H57_10 H 0.3549 0.3505 0.2126
H58_10 H 0.2874 0.1495 0.1451
H59_10 H 0.4626 0.1451 0.1005
H60_9 H 0.3505 0.3951 0.0374
H61_8 H 0.1495 0.4626 0.1049
C107_10 C 0.33030(10) 0.36312(9) 0.19699(9)
C108_10 C 0.30301(9) 0.13688(9) 0.16970(10)
C109_10 C 0.44699(9) 0.16970(10) 0.11312(9)
C110_9 C 0.36312(9) 0.41970(10) 0.05301(9)
C111_8 C 0.13688(9) 0.44699(9) 0.08030(10)
C112_10 C 0.31850(12) 0.38131(11) 0.19504(12)
C113_10 C 0.30496(12) 0.11869(11) 0.18150(12)
C114_10 C 0.44504(12) 0.18150(12) 0.13131(11)
C115_9 C 0.38131(11) 0.43150(12) 0.05496(12)
C116_8 C 0.11869(11) 0.44504(12) 0.06850(12)
H62_10 H 0.3073 0.3822 0.1852
H63_10 H 0.3148 0.1178 0.1927
H64_10 H 0.4352 0.1927 0.1322
H65_9 H 0.3822 0.4427 0.0648
H66_8 H 0.1178 0.4352 0.0573
C117_10 C 0.32345(14) 0.39817(12) 0.20774(13)
C118_10 C 0.29226(13) 0.10183(12) 0.17655(14)
C119_10 C 0.45774(13) 0.17655(14) 0.14817(12)
C120_9 C 0.39817(12) 0.42655(14) 0.04226(13)
C121_8 C 0.10183(12) 0.45774(13) 0.07345(14)
H67_10 H 0.3158 0.4109 0.2066
H68_10 H 0.2934 0.0891 0.1842
H69_10 H 0.4566 0.1842 0.1609
H70_9 H 0.4109 0.4342 0.0434
H71_8 H 0.0891 0.4566 0.0658
C122_10 C 0.33960(12) 0.39628(10) 0.22207(11)
C123_10 C 0.27793(11) 0.10372(10) 0.16040(12)
C124_10 C 0.47207(11) 0.16040(12) 0.14628(10)
C125_9 C 0.39628(10) 0.41040(12) 0.02793(11)
C126_8 C 0.10372(10) 0.47207(11) 0.08960(12)
H72_10 H 0.3425 0.4078 0.2311
H73_10 H 0.2689 0.0922 0.1575
H74_10 H 0.4811 0.1575 0.1578
H75_9 H 0.4078 0.4075 0.0189
H76_8 H 0.0922 0.4811 0.0925
S2_10 S 0.29936(4) 0.38094(8) 0.99585(4)
N9_9 N 0.37510(8) 0.40106(8) 0.98039(7)
N10_9 N 0.42187(8) 0.40607(8) 0.93629(8)
C2_10 C 0.32463(12) 0.37880(12) 0.99890(9)
C21_9 C 0.36170(12) 0.41723(11) 0.98302(11)
H13_9 H 0.3513 0.4161 0.9936
C22_9 C 0.36236(15) 0.43515(12) 0.97114(14)
H14_9 H 0.3527 0.4462 0.9737
C23_9 C 0.37719(13) 0.43690(12) 0.95545(13)
H15_9 H 0.3780 0.4491 0.9470
C24_9 C 0.39103(11) 0.42016(10) 0.95234(10)
C25_9 C 0.38959(9) 0.40283(9) 0.96526(8)
H16_9 H 0.3993 0.3917 0.9634
C26_9 C 0.40736(10) 0.42111(10) 0.93605(10)
Co8_12 Co 0.120919(12) 0.370919(12) 1.0000
Co12_7 Co 0.502232(14) 0.3750 0.8750
Co14_7 Co 0.3750 0.247768(14) 0.8750
Co15_8 Co 0.247768(14) 0.3750 0.8750
S8_10 S 0.45064(4) 0.36906(8) 0.99585(4)
N57_9 N 0.40106(8) 0.48039(7) 0.87510(8)
N58_9 N 0.48039(7) 0.37510(8) 0.90106(8)
N59_10 N 0.37490(8) 0.34894(8) 0.98039(7)
N60_10 N 0.34894(8) 0.26961(7) 0.87510(8)
N61_10 N 0.26961(7) 0.37490(8) 0.90106(8)
N66_9 N 0.43629(8) 0.42187(8) 0.90607(8)
N67_9 N 0.40607(8) 0.43629(8) 0.92187(8)
N68_10 N 0.32813(8) 0.34393(8) 0.93629(8)
N69_10 N 0.31371(8) 0.32813(8) 0.90607(8)
N70_10 N 0.34393(8) 0.31371(8) 0.92187(8)
C32_10 C 0.42537(12) 0.37120(12) 0.99890(9)
C127_9 C 0.41723(11) 0.48302(11) 0.86170(12)
C128_9 C 0.48302(11) 0.36170(12) 0.91723(11)
C129_10 C 0.38830(12) 0.33277(11) 0.98302(11)
C130_10 C 0.33277(11) 0.26698(11) 0.86170(12)
C131_10 C 0.26698(11) 0.38830(12) 0.91723(11)
H77_9 H 0.4161 0.4936 0.8513
H78_9 H 0.4936 0.3513 0.9161
H79_10 H 0.3987 0.3339 0.9936
H80_10 H 0.3339 0.2564 0.8513
H81_10 H 0.2564 0.3987 0.9161
C132_9 C 0.43515(12) 0.47114(14) 0.86236(15)
C133_9 C 0.47114(14) 0.36236(15) 0.93515(12)
C134_10 C 0.38764(15) 0.31485(12) 0.97114(14)
C135_10 C 0.31485(12) 0.27886(14) 0.86236(15)
C136_10 C 0.27886(14) 0.38764(15) 0.93515(12)
H82_9 H 0.4462 0.4737 0.8527
H83_9 H 0.4737 0.3527 0.9462
H84_10 H 0.3973 0.3038 0.9737
H85_10 H 0.3038 0.2763 0.8527
H86_10 H 0.2763 0.3973 0.9462
C137_9 C 0.43690(12) 0.45545(13) 0.87719(13)
C138_9 C 0.45545(13) 0.37719(13) 0.93690(12)
C139_10 C 0.37281(13) 0.31310(12) 0.95545(13)
C140_10 C 0.31310(12) 0.29455(13) 0.87719(13)
C141_10 C 0.29455(13) 0.37281(13) 0.93690(12)
H87_9 H 0.4491 0.4470 0.8780
H88_9 H 0.4470 0.3780 0.9491
H89_10 H 0.3720 0.3009 0.9470
H90_10 H 0.3009 0.3030 0.8780
H91_10 H 0.3030 0.3720 0.9491
C142_9 C 0.42016(10) 0.45234(10) 0.89103(11)
C143_9 C 0.45234(10) 0.39103(11) 0.92016(10)
C144_10 C 0.35897(11) 0.32984(10) 0.95234(10)
C145_10 C 0.32984(10) 0.29766(10) 0.89103(11)
C146_10 C 0.29766(10) 0.35897(11) 0.92016(10)
C147_9 C 0.40283(9) 0.46526(8) 0.88959(9)
C148_9 C 0.46526(8) 0.38959(9) 0.90283(9)
C149_10 C 0.36041(9) 0.34717(9) 0.96526(8)
C150_10 C 0.34717(9) 0.28474(8) 0.88959(9)
C151_10 C 0.28474(8) 0.36041(9) 0.90283(9)
H92_9 H 0.3917 0.4634 0.8993
H93_9 H 0.4634 0.3993 0.8917
H94_10 H 0.3507 0.3583 0.9634
H95_10 H 0.3583 0.2866 0.8993
H96_10 H 0.2866 0.3507 0.8917
C152_9 C 0.43605(10) 0.40736(10) 0.92111(10)
C153_9 C 0.42111(10) 0.43605(10) 0.90736(10)
C154_10 C 0.34264(10) 0.32889(10) 0.93605(10)
C155_10 C 0.31395(10) 0.34264(10) 0.92111(10)
C156_10 C 0.32889(10) 0.31395(10) 0.90736(10)
S2_11 S 0.95064(4) 0.38094(8) 0.25415(4)
N2_11 N 0.90752(8) 0.37739(7) 0.24895(7)
N9_10 N 0.87490(8) 0.40106(8) 0.26961(7)
N10_10 N 0.82813(8) 0.40607(8) 0.31371(8)
C2_11 C 0.92537(12) 0.37880(12) 0.25110(9)
C21_10 C 0.88830(12) 0.41723(11) 0.26698(11)
H13_10 H 0.8987 0.4161 0.2564
C22_10 C 0.88764(15) 0.43515(12) 0.27886(14)
H14_10 H 0.8973 0.4462 0.2763
C23_10 C 0.87281(13) 0.43690(12) 0.29455(13)
H15_10 H 0.8720 0.4491 0.3030
C24_10 C 0.85897(11) 0.42016(10) 0.29766(10)
C25_10 C 0.86041(9) 0.40283(9) 0.28474(8)
H16_10 H 0.8507 0.3917 0.2866
C26_10 C 0.84264(10) 0.42111(10) 0.31395(10)
Co7_14 Co 0.870919(12) 0.5000 0.120919(12)
Co12_8 Co 0.747768(14) 0.3750 0.3750
S8_11 S 0.79936(4) 0.36906(8) 0.25415(4)
N16_11 N 0.84248(8) 0.37261(7) 0.24895(7)
N31_10 N 0.90107(7) 0.48399(7) 0.12391(7)
N38_10 N 0.93919(7) 0.42959(7) 0.15989(7)
N43_10 N 0.90420(7) 0.43836(7) 0.16926(7)
N48_10 N 0.92257(7) 0.41194(8) 0.18807(7)
N53_10 N 0.87099(7) 0.39869(8) 0.22381(7)
N57_10 N 0.84894(8) 0.48039(7) 0.37490(8)
N58_10 N 0.76961(7) 0.37510(8) 0.34894(8)
N66_10 N 0.81371(8) 0.42187(8) 0.34393(8)
N67_10 N 0.84393(8) 0.43629(8) 0.32813(8)
C32_11 C 0.82463(12) 0.37120(12) 0.25110(9)
C40_10 C 0.98888(10) 0.37342(10) 0.17760(11)
H20_10 H 0.9998 0.3633 0.1777
C45_10 C 0.97763(11) 0.37654(12) 0.19586(13)
H25_10 H 0.9814 0.3693 0.2083
C50_10 C 0.96088(10) 0.39020(10) 0.19583(12)
H30_10 H 0.9524 0.3920 0.2079
C55_10 C 0.95683(9) 0.40120(8) 0.17750(9)
C60_10 C 0.96957(8) 0.39790(7) 0.16023(8)
H35_10 H 0.9671 0.4061 0.1480
C65_10 C 0.91685(11) 0.48583(11) 0.11019(12)
H40_10 H 0.9157 0.4961 0.0994
C70_10 C 0.93485(12) 0.47360(13) 0.11085(13)
H45_10 H 0.9456 0.4755 0.1007
C75_10 C 0.93692(11) 0.45877(12) 0.12624(11)
H50_10 H 0.9490 0.4500 0.1269
C80_10 C 0.92084(9) 0.45684(9) 0.14104(9)
C85_10 C 0.90339(8) 0.46959(8) 0.13913(8)
H55_10 H 0.8924 0.4681 0.1491
C90_10 C 0.92172(8) 0.44082(8) 0.15778(8)
C95_10 C 0.93865(8) 0.41525(9) 0.17523(8)
C100_10 C 0.90556(8) 0.42374(9) 0.18426(8)
C105_10 C 0.88710(8) 0.40339(9) 0.21148(8)
H60_10 H 0.8995 0.3951 0.2126
C110_10 C 0.88688(9) 0.41970(10) 0.19699(9)
C115_10 C 0.86869(11) 0.43150(12) 0.19504(12)
H65_10 H 0.8678 0.4427 0.1852
C120_10 C 0.85183(12) 0.42655(14) 0.20774(13)
H70_10 H 0.8391 0.4342 0.2066
C125_10 C 0.85372(10) 0.41040(12) 0.22207(11)
H75_10 H 0.8422 0.4075 0.2311
C127_10 C 0.83277(11) 0.48302(11) 0.38830(12)
C128_10 C 0.76698(11) 0.36170(12) 0.33277(11)
H77_10 H 0.8339 0.4936 0.3987
H78_10 H 0.7564 0.3513 0.3339
C132_10 C 0.81485(12) 0.47114(14) 0.38764(15)
C133_10 C 0.77886(14) 0.36236(15) 0.31485(12)
H82_10 H 0.8038 0.4737 0.3973
H83_10 H 0.7763 0.3527 0.3038
C137_10 C 0.81310(12) 0.45545(13) 0.37281(13)
C138_10 C 0.79455(13) 0.37719(13) 0.31310(12)
H87_10 H 0.8009 0.4470 0.3720
H88_10 H 0.8030 0.3780 0.3009
C142_10 C 0.82984(10) 0.45234(10) 0.35897(11)
C143_10 C 0.79766(10) 0.39103(11) 0.32984(10)
C147_10 C 0.84717(9) 0.46526(8) 0.36041(9)
C148_10 C 0.78474(8) 0.38959(9) 0.34717(9)
H92_10 H 0.8583 0.4634 0.3507
H93_10 H 0.7866 0.3993 0.3583
C152_10 C 0.81395(10) 0.40736(10) 0.32889(10)
C153_10 C 0.82889(10) 0.43605(10) 0.34264(10)
S7_11 S 0.41365(3) 0.57744(3) 0.04384(3)
S9_11 S 0.70064(4) 0.61906(8) 0.00415(4)
S10_11 S 0.54936(4) 0.63094(8) 0.00415(4)
N15_11 N 0.38693(7) 0.60581(7) 0.02418(6)
N27_11 N 0.34026(7) 0.61605(6) 0.01484(7)
N34_11 N 0.37391(7) 0.65107(7) 0.01601(7)
N62_11 N 0.62490(8) 0.59894(8) 0.01961(7)
N63_11 N 0.62510(8) 0.65106(8) 0.01961(7)
C31_11 C 0.39797(9) 0.59422(8) 0.03286(8)
C33_11 C 0.67537(12) 0.62120(12) 0.00110(9)
C34_11 C 0.57463(12) 0.62880(12) 0.00110(9)
Co1_11 Co 0.5000 0.629081(12) 0.879081(12)
S1_11 S 0.54384(3) 0.67256(3) 0.83635(3)
S2_12 S 0.63094(8) 0.70064(4) 0.74585(4)
N1_11 N 0.52418(6) 0.64419(7) 0.86307(7)
N2_12 N 0.62739(7) 0.65752(8) 0.75105(7)
N3_9 N 0.61605(6) 0.51484(7) 0.84026(7)
N4_9 N 0.51601(7) 0.59893(7) 0.87609(7)
N5_9 N 0.57041(7) 0.56081(7) 0.84011(7)
N6_9 N 0.56164(7) 0.59580(7) 0.83074(7)
N7_9 N 0.58806(8) 0.57743(7) 0.81193(7)
N8_9 N 0.60131(8) 0.62901(7) 0.77619(7)
N9_11 N 0.65106(8) 0.62490(8) 0.73039(7)
N10_11 N 0.65607(8) 0.57813(8) 0.68629(8)
C1_11 C 0.53286(8) 0.65578(8) 0.85203(9)
C2_12 C 0.62880(12) 0.67537(12) 0.74890(9)
C3_9 C 0.62658(10) 0.51112(10) 0.82240(11)
H1_9 H 0.6367 0.5002 0.8223
C4_9 C 0.62346(12) 0.52237(11) 0.80414(13)
H2_9 H 0.6307 0.5186 0.7917
C5_9 C 0.60980(10) 0.53912(10) 0.80417(12)
H3_9 H 0.6080 0.5476 0.7921
C6_9 C 0.59880(8) 0.54317(9) 0.82250(9)
C7_9 C 0.60210(7) 0.53043(8) 0.83977(8)
H4_9 H 0.5939 0.5329 0.8520
C8_9 C 0.51417(11) 0.58315(11) 0.88981(12)
H5_9 H 0.5039 0.5843 0.9006
C9_9 C 0.52640(13) 0.56515(12) 0.88915(13)
H6_9 H 0.5245 0.5544 0.8993
C10_9 C 0.54123(12) 0.56308(11) 0.87376(11)
H7_9 H 0.5500 0.5510 0.8731
C11_9 C 0.54316(9) 0.57916(9) 0.85896(9)
C12_9 C 0.53041(8) 0.59661(8) 0.86087(8)
H8_9 H 0.5319 0.6076 0.8509
C13_9 C 0.55918(8) 0.57828(8) 0.84222(8)
C14_9 C 0.58475(9) 0.56135(8) 0.82477(8)
C15_9 C 0.57626(9) 0.59444(8) 0.81574(8)
C16_9 C 0.59661(9) 0.61290(8) 0.78852(8)
H9_9 H 0.6049 0.6005 0.7874
C17_9 C 0.58030(10) 0.61312(9) 0.80301(9)
C18_9 C 0.56850(12) 0.63131(11) 0.80496(12)
H10_9 H 0.5573 0.6322 0.8148
C19_9 C 0.57345(14) 0.64817(12) 0.79226(13)
H11_9 H 0.5658 0.6609 0.7934
C20_9 C 0.58960(12) 0.64628(10) 0.77793(11)
H12_9 H 0.5925 0.6578 0.7689
C21_11 C 0.66723(11) 0.63830(12) 0.73302(11)
H13_11 H 0.6661 0.6487 0.7436
C22_11 C 0.68515(12) 0.63764(15) 0.72114(14)
H14_11 H 0.6962 0.6473 0.7237
C23_11 C 0.68690(12) 0.62281(13) 0.70545(13)
H15_11 H 0.6991 0.6220 0.6970
C24_11 C 0.67016(10) 0.60897(11) 0.70234(10)
C25_11 C 0.65283(9) 0.61041(9) 0.71526(8)
H16_11 H 0.6417 0.6007 0.7134
C26_11 C 0.67111(10) 0.59264(10) 0.68605(10)
Co5_9 Co 0.620919(12) 0.5000 0.870919(12)
Co7_15 Co 0.7500 0.620919(12) 0.879081(12)
Co9_11 Co 0.6250 0.6250 0.997768(14)
Co12_9 Co 0.6250 0.497768(14) 0.6250
S3_11 S 0.45616(3) 0.58635(3) 0.92256(3)
S6_11 S 0.32744(3) 0.66365(3) 0.95616(3)
S8_12 S 0.61906(8) 0.54936(4) 0.74585(4)
N11_11 N 0.47582(6) 0.61307(7) 0.89419(7)
N14_11 N 0.35581(7) 0.63693(7) 0.97582(6)
N16_12 N 0.62261(7) 0.59248(8) 0.75105(7)
N17_11 N 0.65752(8) 0.62261(7) 0.99895(7)
N18_11 N 0.59248(8) 0.62739(7) 0.99895(7)
N21_11 N 0.51484(7) 0.63395(6) 0.90974(7)
N22_11 N 0.48516(7) 0.65974(7) 0.88395(6)
N29_11 N 0.40107(7) 0.62391(7) 0.98399(7)
N30_11 N 0.48399(7) 0.62609(7) 0.84893(7)
N31_11 N 0.73399(7) 0.65107(7) 0.87609(7)
N35_11 N 0.56081(7) 0.67959(7) 0.90989(7)
N36_11 N 0.43919(7) 0.65989(7) 0.92959(7)
N37_11 N 0.42959(7) 0.59011(7) 0.81081(7)
N38_11 N 0.67959(7) 0.68919(7) 0.84011(7)
N40_11 N 0.59580(7) 0.68836(7) 0.91926(7)
N41_11 N 0.40420(7) 0.66926(7) 0.93836(7)
N42_11 N 0.43836(7) 0.58074(7) 0.84580(7)
N43_11 N 0.68836(7) 0.65420(7) 0.83074(7)
N45_11 N 0.57743(7) 0.66194(8) 0.93807(7)
N46_11 N 0.42257(7) 0.68807(7) 0.91194(8)
N47_11 N 0.41194(8) 0.56193(7) 0.82743(7)
N48_11 N 0.66194(8) 0.67257(7) 0.81193(7)
N50_11 N 0.62901(7) 0.64869(8) 0.97381(7)
N52_11 N 0.39869(8) 0.52619(7) 0.87901(7)
N53_11 N 0.64869(8) 0.62099(7) 0.77619(7)
N55_11 N 0.62099(7) 0.60131(8) 0.97381(7)
N57_11 N 0.73039(7) 0.59894(8) 0.62510(8)
N58_11 N 0.62510(8) 0.51961(7) 0.65106(8)
N66_11 N 0.67187(8) 0.56371(8) 0.65607(8)
N67_11 N 0.68629(8) 0.59393(8) 0.67187(8)
C27_11 C 0.46714(8) 0.60203(9) 0.90578(8)
C30_11 C 0.34422(8) 0.64797(9) 0.96714(8)
C32_12 C 0.62120(12) 0.57463(12) 0.74890(9)
C37_11 C 0.51112(10) 0.62342(10) 0.92760(11)
C38_11 C 0.48888(10) 0.67760(11) 0.87342(10)
C39_11 C 0.37342(10) 0.57240(11) 0.76112(10)
C40_11 C 0.62342(10) 0.73888(10) 0.82240(11)
H17_11 H 0.5002 0.6133 0.9277
H18_11 H 0.4998 0.6777 0.8633
H19_11 H 0.3633 0.5723 0.7502
H20_11 H 0.6133 0.7498 0.8223
C42_11 C 0.52237(11) 0.62654(12) 0.94586(13)
C43_11 C 0.47763(11) 0.69586(13) 0.87654(12)
C44_11 C 0.37654(12) 0.55414(13) 0.77237(11)
C45_11 C 0.62654(12) 0.72763(11) 0.80414(13)
H22_11 H 0.5186 0.6193 0.9583
H23_11 H 0.4814 0.7083 0.8693
H24_11 H 0.3693 0.5417 0.7686
H25_11 H 0.6193 0.7314 0.7917
C47_11 C 0.53912(10) 0.64020(10) 0.94583(12)
C48_11 C 0.46088(10) 0.69583(12) 0.89020(10)
C49_11 C 0.39020(10) 0.55417(12) 0.78912(10)
C50_11 C 0.64020(10) 0.71088(10) 0.80417(12)
H27_11 H 0.5476 0.6420 0.9579
H28_11 H 0.4524 0.7079 0.8920
H29_11 H 0.3920 0.5421 0.7976
H30_11 H 0.6420 0.7024 0.7921
C52_11 C 0.54317(9) 0.65120(8) 0.92750(9)
C53_11 C 0.45683(9) 0.67750(9) 0.90120(8)
C54_11 C 0.40120(8) 0.57250(9) 0.79317(9)
C55_11 C 0.65120(8) 0.70683(9) 0.82250(9)
C57_11 C 0.53043(8) 0.64790(7) 0.91023(8)
C58_11 C 0.46957(8) 0.66023(8) 0.89790(7)
C59_11 C 0.39790(7) 0.58977(8) 0.78043(8)
C60_11 C 0.64790(7) 0.71957(8) 0.83977(8)
H32_11 H 0.5329 0.6561 0.8980
H33_11 H 0.4671 0.6480 0.9061
H34_11 H 0.4061 0.6020 0.7829
H35_11 H 0.6561 0.7171 0.8520
C62_11 C 0.58315(11) 0.73583(11) 0.86019(12)
C63_11 C 0.41685(11) 0.61019(12) 0.98583(11)
C64_11 C 0.48583(11) 0.63981(12) 0.83315(11)
C65_11 C 0.73583(11) 0.66685(11) 0.88981(12)
H37_11 H 0.5843 0.7461 0.8494
H38_11 H 0.4157 0.5994 0.9961
H39_11 H 0.4961 0.6506 0.8343
H40_11 H 0.7461 0.6657 0.9006
C67_11 C 0.56515(12) 0.72360(13) 0.86085(13)
C68_11 C 0.43485(12) 0.61085(13) 0.97360(13)
C69_11 C 0.47360(13) 0.63915(13) 0.81515(12)
C70_11 C 0.72360(13) 0.68485(12) 0.88915(13)
H42_11 H 0.5544 0.7255 0.8507
H43_11 H 0.4456 0.6007 0.9755
H44_11 H 0.4755 0.6493 0.8044
H45_11 H 0.7255 0.6956 0.8993
C72_11 C 0.56308(11) 0.70877(12) 0.87624(11)
C73_11 C 0.43692(11) 0.62624(11) 0.95877(12)
C74_11 C 0.45877(12) 0.62376(11) 0.81308(11)
C75_11 C 0.70877(12) 0.68692(11) 0.87376(11)
H47_11 H 0.5510 0.7000 0.8769
H48_11 H 0.4490 0.6269 0.9500
H49_11 H 0.4500 0.6231 0.8010
H50_11 H 0.7000 0.6990 0.8731
C77_11 C 0.57916(9) 0.70684(9) 0.89104(9)
C78_11 C 0.42084(9) 0.64104(9) 0.95684(9)
C79_11 C 0.45684(9) 0.60896(9) 0.82916(9)
C80_11 C 0.70684(9) 0.67084(9) 0.85896(9)
C82_11 C 0.59661(8) 0.71959(8) 0.88913(8)
C83_11 C 0.40339(8) 0.63913(8) 0.96959(8)
C84_11 C 0.46959(8) 0.61087(8) 0.84661(8)
C85_11 C 0.71959(8) 0.65339(8) 0.86087(8)
H52_11 H 0.6076 0.7181 0.8991
H53_11 H 0.3924 0.6491 0.9681
H54_11 H 0.4681 0.6009 0.8576
H55_11 H 0.7181 0.6424 0.8509
C87_11 C 0.57828(8) 0.69082(8) 0.90778(8)
C88_11 C 0.42172(8) 0.65778(8) 0.94082(8)
C89_11 C 0.44082(8) 0.59222(8) 0.82828(8)
C90_11 C 0.69082(8) 0.67172(8) 0.84222(8)
C92_11 C 0.56135(8) 0.66525(9) 0.92523(8)
C93_11 C 0.43865(8) 0.67523(8) 0.91525(9)
C94_11 C 0.41525(9) 0.57477(8) 0.81135(8)
C95_11 C 0.66525(9) 0.68865(8) 0.82477(8)
C97_11 C 0.59444(8) 0.67374(9) 0.93426(8)
C98_11 C 0.40556(8) 0.68426(8) 0.92374(9)
C99_11 C 0.42374(9) 0.56574(8) 0.84444(8)
C100_11 C 0.67374(9) 0.65556(8) 0.81574(8)
C102_11 C 0.61290(8) 0.65339(9) 0.96148(8)
C103_11 C 0.38710(8) 0.71148(8) 0.90339(9)
C104_11 C 0.40339(9) 0.53852(8) 0.86290(8)
C105_11 C 0.65339(9) 0.63710(8) 0.78852(8)
H57_11 H 0.6005 0.6451 0.9626
H58_11 H 0.3995 0.7126 0.8951
H59_11 H 0.3951 0.5374 0.8505
H60_11 H 0.6451 0.6495 0.7874
C107_11 C 0.61312(9) 0.66970(10) 0.94699(9)
C108_11 C 0.38688(9) 0.69699(9) 0.91970(10)
C109_11 C 0.41970(10) 0.55301(9) 0.86312(9)
C110_11 C 0.66970(10) 0.63688(9) 0.80301(9)
C112_11 C 0.63131(11) 0.68150(12) 0.94504(12)
C113_11 C 0.36869(11) 0.69504(12) 0.93150(12)
C114_11 C 0.43150(12) 0.55496(12) 0.88131(11)
C115_11 C 0.68150(12) 0.61869(11) 0.80496(12)
H62_11 H 0.6322 0.6927 0.9352
H63_11 H 0.3678 0.6852 0.9427
H64_11 H 0.4427 0.5648 0.8822
H65_11 H 0.6927 0.6178 0.8148
C117_11 C 0.64817(12) 0.67655(14) 0.95774(13)
C118_11 C 0.35183(12) 0.70774(13) 0.92655(14)
C119_11 C 0.42655(14) 0.54226(13) 0.89817(12)
C120_11 C 0.67655(14) 0.60183(12) 0.79226(13)
H67_11 H 0.6609 0.6842 0.9566
H68_11 H 0.3391 0.7066 0.9342
H69_11 H 0.4342 0.5434 0.9109
H70_11 H 0.6842 0.5891 0.7934
C122_11 C 0.64628(10) 0.66040(12) 0.97207(11)
C123_11 C 0.35372(10) 0.72207(11) 0.91040(12)
C124_11 C 0.41040(12) 0.52793(11) 0.89628(10)
C125_11 C 0.66040(12) 0.60372(10) 0.77793(11)
H72_11 H 0.6578 0.6575 0.9811
H73_11 H 0.3422 0.7311 0.9075
H74_11 H 0.4075 0.5189 0.9078
H75_11 H 0.6575 0.5922 0.7689
C127_11 C 0.73302(11) 0.58277(11) 0.61170(12)
C128_11 C 0.61170(12) 0.51698(11) 0.66723(11)
H77_11 H 0.7436 0.5839 0.6013
H78_11 H 0.6013 0.5064 0.6661
C132_11 C 0.72114(14) 0.56485(12) 0.61236(15)
C133_11 C 0.61236(15) 0.52886(14) 0.68515(12)
H82_11 H 0.7237 0.5538 0.6027
H83_11 H 0.6027 0.5263 0.6962
C137_11 C 0.70545(13) 0.56310(12) 0.62719(13)
C138_11 C 0.62719(13) 0.54455(13) 0.68690(12)
H87_11 H 0.6970 0.5509 0.6280
H88_11 H 0.6280 0.5530 0.6991
C142_11 C 0.70234(10) 0.57984(10) 0.64103(11)
C143_11 C 0.64103(11) 0.54766(10) 0.67016(10)
C147_11 C 0.71526(8) 0.59717(9) 0.63959(9)
C148_11 C 0.63959(9) 0.53474(8) 0.65283(9)
H92_11 H 0.7134 0.6083 0.6493
H93_11 H 0.6493 0.5366 0.6417
C152_11 C 0.65736(10) 0.56395(10) 0.67111(10)
C153_11 C 0.68605(10) 0.57889(10) 0.65736(10)
Co4_12 Co -0.0000 0.870919(12) 0.120919(12)
S7_12 S 0.04384(3) 0.91365(3) 0.07744(3)
N15_12 N 0.02418(6) 0.88693(7) 0.10581(7)
N27_12 N 0.01484(7) 0.84026(7) 0.11605(6)
N34_12 N 0.01601(7) 0.87391(7) 0.15107(7)
C31_12 C 0.03286(8) 0.89797(9) 0.09422(8)
S1_12 S 0.83635(3) 0.04384(3) 0.17256(3)
N1_12 N 0.86307(7) 0.02418(6) 0.14419(7)
C1_12 C 0.85203(9) 0.03286(8) 0.15578(8)
Co8_13 Co 0.7500 0.120919(12) 0.379081(12)
S4_9 S 0.91365(3) 0.17256(3) 0.20616(3)
S5_9 S 0.82744(3) 0.08635(3) 0.29384(3)
N12_9 N 0.88693(7) 0.14419(7) 0.22582(6)
N13_9 N 0.85581(7) 0.11307(7) 0.27418(6)
N21_12 N 0.90974(7) 0.01484(7) 0.13395(6)
N25_8 N 0.86605(6) 0.15974(7) 0.26484(7)
N28_9 N 0.87391(7) 0.09893(7) 0.23399(7)
N32_9 N 0.76601(7) 0.12391(7) 0.34893(7)
N33_9 N 0.90107(7) 0.12609(7) 0.26601(7)
N35_12 N 0.90989(7) 0.06081(7) 0.17959(7)
N39_9 N 0.82041(7) 0.15989(7) 0.31081(7)
N40_12 N 0.91926(7) 0.09580(7) 0.18836(7)
N44_9 N 0.81164(7) 0.16926(7) 0.34580(7)
N45_12 N 0.93807(7) 0.07743(7) 0.16194(8)
N49_9 N 0.83806(8) 0.18807(7) 0.32743(7)
N54_9 N 0.85131(8) 0.22381(7) 0.37901(7)
C28_9 C 0.89797(9) 0.15578(8) 0.21714(8)
C29_9 C 0.84422(8) 0.10203(9) 0.28286(8)
C37_12 C 0.92760(11) 0.01112(10) 0.12342(10)
C41_9 C 0.87658(10) 0.17760(11) 0.26112(10)
H17_12 H 0.9277 0.0002 0.1133
H21_9 H 0.8867 0.1777 0.2502
C42_12 C 0.94586(13) 0.02237(11) 0.12654(12)
C46_9 C 0.87346(12) 0.19586(13) 0.27237(11)
H22_12 H 0.9583 0.0186 0.1193
H26_9 H 0.8807 0.2083 0.2686
C47_12 C 0.94583(12) 0.03912(10) 0.14020(10)
C51_9 C 0.85980(10) 0.19583(12) 0.28912(10)
H27_12 H 0.9579 0.0476 0.1420
H31_9 H 0.8580 0.2079 0.2976
C52_12 C 0.92750(9) 0.04317(9) 0.15120(8)
C56_9 C 0.84880(8) 0.17750(9) 0.29317(9)
C57_12 C 0.91023(8) 0.03043(8) 0.14790(7)
C61_9 C 0.85210(7) 0.16023(8) 0.28043(8)
H32_12 H 0.8980 0.0329 0.1561
H36_9 H 0.8439 0.1480 0.2829
C62_12 C 0.86019(12) 0.08315(11) 0.23583(11)
C66_9 C 0.76417(11) 0.11019(12) 0.33315(11)
H37_12 H 0.8494 0.0843 0.2461
H41_9 H 0.7539 0.0994 0.3343
C67_12 C 0.86085(13) 0.06515(12) 0.22360(13)
C71_9 C 0.77640(13) 0.11085(13) 0.31515(12)
H42_12 H 0.8507 0.0544 0.2255
H46_9 H 0.7745 0.1007 0.3044
C72_12 C 0.87624(11) 0.06308(11) 0.20877(12)
C76_9 C 0.79123(12) 0.12624(11) 0.31308(11)
H47_12 H 0.8769 0.0510 0.2000
H51_9 H 0.8000 0.1269 0.3010
C77_12 C 0.89104(9) 0.07916(9) 0.20684(9)
C81_9 C 0.79316(9) 0.14104(9) 0.32916(9)
C82_12 C 0.88913(8) 0.09661(8) 0.21959(8)
C86_9 C 0.78041(8) 0.13913(8) 0.34661(8)
H52_12 H 0.8991 0.1076 0.2181
H56_9 H 0.7819 0.1491 0.3576
C87_12 C 0.90778(8) 0.07828(8) 0.19082(8)
C91_9 C 0.80918(8) 0.15778(8) 0.32828(8)
C92_12 C 0.92523(8) 0.06135(8) 0.16525(9)
C96_9 C 0.83475(9) 0.17523(8) 0.31135(8)
C97_12 C 0.93426(8) 0.09444(8) 0.17374(9)
C101_9 C 0.82626(9) 0.18426(8) 0.34444(8)
C102_12 C 0.96148(8) 0.11290(8) 0.15339(9)
C106_9 C 0.84661(9) 0.21148(8) 0.36290(8)
H57_12 H 0.9626 0.1005 0.1451
H61_9 H 0.8549 0.2126 0.3505
C107_12 C 0.94699(9) 0.11312(9) 0.16970(10)
C111_9 C 0.83030(10) 0.19699(9) 0.36312(9)
C112_12 C 0.94504(12) 0.13131(11) 0.18150(12)
C116_9 C 0.81850(12) 0.19504(12) 0.38131(11)
H62_12 H 0.9352 0.1322 0.1927
H66_9 H 0.8073 0.1852 0.3822
C117_12 C 0.95774(13) 0.14817(12) 0.17655(14)
C121_9 C 0.82345(14) 0.20774(13) 0.39817(12)
H67_12 H 0.9566 0.1609 0.1842
H71_9 H 0.8158 0.2066 0.4109
C122_12 C 0.97207(11) 0.14628(10) 0.16040(12)
C126_9 C 0.83960(12) 0.22207(11) 0.39628(10)
H72_12 H 0.9811 0.1578 0.1575
H76_9 H 0.8425 0.2311 0.4078
Co4_13 Co 1.0000 0.870919(12) 0.120919(12)
Co10_9 Co 0.8750 0.8750 0.247768(14)
S3_12 S 0.92256(3) 0.95616(3) 0.08635(3)
S6_12 S 0.95616(3) 0.82744(3) 0.16365(3)
S11_9 S 0.86906(8) 0.79936(4) 0.25415(4)
S12_9 S 0.88094(8) 0.95064(4) 0.25415(4)
N11_12 N 0.89419(7) 0.97582(6) 0.11307(7)
N14_12 N 0.97582(6) 0.85581(7) 0.13693(7)
N19_9 N 0.87261(7) 0.84248(8) 0.24895(7)
N20_9 N 0.87739(7) 0.90752(8) 0.24895(7)
N22_12 N 0.88395(6) 0.98516(7) 0.15974(7)
N23_8 N 0.76484(7) 0.88395(6) 0.09026(7)
N26_9 N 0.98516(7) 0.86605(6) 0.09026(7)
N29_12 N 0.98399(7) 0.90107(7) 0.12391(7)
N30_12 N 0.84893(7) 0.98399(7) 0.12609(7)
N36_12 N 0.92959(7) 0.93919(7) 0.15989(7)
N37_12 N 0.81081(7) 0.92959(7) 0.09011(7)
N41_12 N 0.93836(7) 0.90420(7) 0.16926(7)
N42_12 N 0.84580(7) 0.93836(7) 0.08074(7)
N46_12 N 0.91194(8) 0.92257(7) 0.18807(7)
N47_12 N 0.82743(7) 0.91194(8) 0.06193(7)
N51_9 N 0.89869(8) 0.87099(7) 0.22381(7)
N52_12 N 0.87901(7) 0.89869(8) 0.02619(7)
N56_9 N 0.85131(8) 0.87901(7) 0.22381(7)
N64_9 N 0.84894(8) 0.87510(8) 0.26961(7)
N65_9 N 0.90106(8) 0.87490(8) 0.26961(7)
C27_12 C 0.90578(8) 0.96714(8) 0.10203(9)
C30_12 C 0.96714(8) 0.84422(8) 0.14797(9)
C35_9 C 0.87120(12) 0.82463(12) 0.25110(9)
C36_9 C 0.87880(12) 0.92537(12) 0.25110(9)
C38_12 C 0.87342(10) 0.98888(10) 0.17760(11)
C39_12 C 0.76112(10) 0.87342(10) 0.07240(11)
H18_12 H 0.8633 0.9998 0.1777
H19_12 H 0.7502 0.8633 0.0723
C43_12 C 0.87654(12) 0.97763(11) 0.19586(13)
C44_12 C 0.77237(11) 0.87654(12) 0.05414(13)
H23_12 H 0.8693 0.9814 0.2083
H24_12 H 0.7686 0.8693 0.0417
C48_12 C 0.89020(10) 0.96088(10) 0.19583(12)
C49_12 C 0.78912(10) 0.89020(10) 0.05417(12)
H28_12 H 0.8920 0.9524 0.2079
H29_12 H 0.7976 0.8920 0.0421
C53_12 C 0.90120(8) 0.95683(9) 0.17750(9)
C54_12 C 0.79317(9) 0.90120(8) 0.07250(9)
C58_12 C 0.89790(7) 0.96957(8) 0.16023(8)
C59_12 C 0.78043(8) 0.89790(7) 0.08977(8)
H33_12 H 0.9061 0.9671 0.1480
H34_12 H 0.7829 0.9061 0.1020
C63_12 C 0.98583(11) 0.91685(11) 0.11019(12)
C64_12 C 0.83315(11) 0.98583(11) 0.13981(12)
H38_12 H 0.9961 0.9157 0.0994
H39_12 H 0.8343 0.9961 0.1506
C68_12 C 0.97360(13) 0.93485(12) 0.11085(13)
C69_12 C 0.81515(12) 0.97360(13) 0.13915(13)
H43_12 H 0.9755 0.9456 0.1007
H44_12 H 0.8044 0.9755 0.1493
C73_12 C 0.95877(12) 0.93692(11) 0.12624(11)
C74_12 C 0.81308(11) 0.95877(12) 0.12376(11)
H48_12 H 0.9500 0.9490 0.1269
H49_12 H 0.8010 0.9500 0.1231
C78_12 C 0.95684(9) 0.92084(9) 0.14104(9)
C79_12 C 0.82916(9) 0.95684(9) 0.10896(9)
C83_12 C 0.96959(8) 0.90339(8) 0.13913(8)
C84_12 C 0.84661(8) 0.96959(8) 0.11087(8)
H53_12 H 0.9681 0.8924 0.1491
H54_12 H 0.8576 0.9681 0.1009
C88_12 C 0.94082(8) 0.92172(8) 0.15778(8)
C89_12 C 0.82828(8) 0.94082(8) 0.09222(8)
C93_12 C 0.91525(9) 0.93865(8) 0.17523(8)
C94_12 C 0.81135(8) 0.91525(9) 0.07477(8)
C98_12 C 0.92374(9) 0.90556(8) 0.18426(8)
C99_12 C 0.84444(8) 0.92374(9) 0.06574(8)
C103_12 C 0.90339(9) 0.88710(8) 0.21148(8)
C104_12 C 0.86290(8) 0.90339(9) 0.03852(8)
H58_12 H 0.8951 0.8995 0.2126
H59_12 H 0.8505 0.8951 0.0374
C108_12 C 0.91970(10) 0.88688(9) 0.19699(9)
C109_12 C 0.86312(9) 0.91970(10) 0.05301(9)
C113_12 C 0.93150(12) 0.86869(11) 0.19504(12)
C114_12 C 0.88131(11) 0.93150(12) 0.05496(12)
H63_12 H 0.9427 0.8678 0.1852
H64_12 H 0.8822 0.9427 0.0648
C118_12 C 0.92655(14) 0.85183(12) 0.20774(13)
C119_12 C 0.89817(12) 0.92655(14) 0.04226(13)
H68_12 H 0.9342 0.8391 0.2066
H69_12 H 0.9109 0.9342 0.0434
C123_12 C 0.91040(12) 0.85372(10) 0.22207(11)
C124_12 C 0.89628(10) 0.91040(12) 0.02793(11)
H73_12 H 0.9075 0.8422 0.2311
H74_12 H 0.9078 0.9075 0.0189
Co3_9 Co 0.129081(12) 0.0000 0.379081(12)
Co8_14 Co 0.2500 0.129081(12) 0.370919(12)
S5_10 S 0.17256(3) 0.04384(3) 0.33635(3)
S11_10 S 0.13094(8) 0.00415(4) 0.04936(4)
S12_10 S 0.11906(8) 0.00415(4) 0.20064(4)
N13_10 N 0.14419(7) 0.02418(6) 0.36307(7)
N25_9 N 0.13395(6) 0.01484(7) 0.40974(7)
N32_10 N 0.23399(7) 0.09893(7) 0.37391(7)
N33_10 N 0.09893(7) 0.01601(7) 0.37609(7)
N39_10 N 0.17959(7) 0.06081(7) 0.40989(7)
N44_10 N 0.18836(7) 0.09580(7) 0.41926(7)
N49_10 N 0.16194(8) 0.07743(7) 0.43807(7)
N54_10 N 0.14869(8) 0.12901(7) 0.47381(7)
N64_10 N 0.15106(8) 0.01961(7) 0.12510(8)
N65_10 N 0.09894(8) 0.01961(7) 0.12490(8)
C29_10 C 0.15578(8) 0.03286(8) 0.35203(9)
C35_10 C 0.12880(12) 0.00110(9) 0.07463(12)
C36_10 C 0.12120(12) 0.00110(9) 0.17537(12)
C41_10 C 0.12342(10) 0.01112(10) 0.42760(11)
H21_10 H 0.1133 0.0002 0.4277
C46_10 C 0.12654(12) 0.02237(11) 0.44586(13)
H26_10 H 0.1193 0.0186 0.4583
C51_10 C 0.14020(10) 0.03912(10) 0.44583(12)
H31_10 H 0.1420 0.0476 0.4579
C56_10 C 0.15120(8) 0.04317(9) 0.42750(9)
C61_10 C 0.14790(7) 0.03043(8) 0.41023(8)
H36_10 H 0.1561 0.0329 0.3980
C66_10 C 0.23583(11) 0.08315(11) 0.36019(12)
H41_10 H 0.2461 0.0843 0.3494
C71_10 C 0.22360(13) 0.06515(12) 0.36085(13)
H46_10 H 0.2255 0.0544 0.3507
C76_10 C 0.20877(12) 0.06308(11) 0.37624(11)
H51_10 H 0.2000 0.0510 0.3769
C81_10 C 0.20684(9) 0.07916(9) 0.39104(9)
C86_10 C 0.21959(8) 0.09661(8) 0.38913(8)
H56_10 H 0.2181 0.1076 0.3991
C91_10 C 0.19082(8) 0.07828(8) 0.40778(8)
C96_10 C 0.16525(9) 0.06135(8) 0.42523(8)
C101_10 C 0.17374(9) 0.09444(8) 0.43426(8)
C106_10 C 0.15339(9) 0.11290(8) 0.46148(8)
H61_10 H 0.1451 0.1005 0.4626
C111_10 C 0.16970(10) 0.11312(9) 0.44699(9)
C116_10 C 0.18150(12) 0.13131(11) 0.44504(12)
H66_10 H 0.1927 0.1322 0.4352
C121_10 C 0.17655(14) 0.14817(12) 0.45774(13)
H71_10 H 0.1842 0.1609 0.4566
C126_10 C 0.16040(12) 0.14628(10) 0.47207(11)
H76_10 H 0.1575 0.1578 0.4811
S1_13 S 0.16365(3) 0.92256(3) 0.29384(3)
S2_13 S 0.25415(4) 0.95064(4) 0.38094(8)
N1_13 N 0.13693(7) 0.89419(7) 0.27418(6)
N2_13 N 0.24895(7) 0.90752(8) 0.37739(7)
N3_10 N 0.15974(7) 0.76484(7) 0.36605(6)
N4_10 N 0.12391(7) 0.84893(7) 0.26601(7)
N5_10 N 0.15989(7) 0.81081(7) 0.32041(7)
N6_10 N 0.16926(7) 0.84580(7) 0.31164(7)
N7_10 N 0.18807(7) 0.82743(7) 0.33806(8)
N8_10 N 0.22381(7) 0.87901(7) 0.35131(8)
N9_12 N 0.26961(7) 0.87490(8) 0.40106(8)
N10_12 N 0.31371(8) 0.82813(8) 0.40607(8)
C1_13 C 0.14797(9) 0.90578(8) 0.28286(8)
C2_13 C 0.25110(9) 0.92537(12) 0.37880(12)
C3_10 C 0.17760(11) 0.76112(10) 0.37658(10)
H1_10 H 0.1777 0.7502 0.3867
C4_10 C 0.19586(13) 0.77237(11) 0.37346(12)
H2_10 H 0.2083 0.7686 0.3807
C5_10 C 0.19583(12) 0.78912(10) 0.35980(10)
H3_10 H 0.2079 0.7976 0.3580
C6_10 C 0.17750(9) 0.79317(9) 0.34880(8)
C7_10 C 0.16023(8) 0.78043(8) 0.35210(7)
H4_10 H 0.1480 0.7829 0.3439
C8_10 C 0.11019(12) 0.83315(11) 0.26417(11)
H5_10 H 0.0994 0.8343 0.2539
C9_10 C 0.11085(13) 0.81515(12) 0.27640(13)
H6_10 H 0.1007 0.8044 0.2745
C10_10 C 0.12624(11) 0.81308(11) 0.29123(12)
H7_10 H 0.1269 0.8010 0.3000
C11_10 C 0.14104(9) 0.82916(9) 0.29316(9)
C12_10 C 0.13913(8) 0.84661(8) 0.28041(8)
H8_10 H 0.1491 0.8576 0.2819
C13_10 C 0.15778(8) 0.82828(8) 0.30918(8)
C14_10 C 0.17523(8) 0.81135(8) 0.33475(9)
C15_10 C 0.18426(8) 0.84444(8) 0.32626(9)
C16_10 C 0.21148(8) 0.86290(8) 0.34661(9)
H9_10 H 0.2126 0.8505 0.3549
C17_10 C 0.19699(9) 0.86312(9) 0.33030(10)
C18_10 C 0.19504(12) 0.88131(11) 0.31850(12)
H10_10 H 0.1852 0.8822 0.3073
C19_10 C 0.20774(13) 0.89817(12) 0.32345(14)
H11_10 H 0.2066 0.9109 0.3158
C20_10 C 0.22207(11) 0.89628(10) 0.33960(12)
H12_10 H 0.2311 0.9078 0.3425
C21_12 C 0.26698(11) 0.88830(12) 0.41723(11)
H13_12 H 0.2564 0.8987 0.4161
C22_12 C 0.27886(14) 0.88764(15) 0.43515(12)
H14_12 H 0.2763 0.8973 0.4462
C23_12 C 0.29455(13) 0.87281(13) 0.43690(12)
H15_12 H 0.3030 0.8720 0.4491
C24_12 C 0.29766(10) 0.85897(11) 0.42016(10)
C25_12 C 0.28474(8) 0.86041(9) 0.40283(9)
H16_12 H 0.2866 0.8507 0.3917
C26_12 C 0.31395(10) 0.84264(10) 0.42111(10)
Co3_10 Co 0.129081(12) 1.0000 0.379081(12)
Co7_16 Co 0.120919(12) 0.870919(12) 0.5000
Co9_12 Co 0.002232(14) 0.8750 0.3750
Co10_10 Co 0.1250 0.997768(14) 0.1250
S3_13 S 0.07744(3) 0.83635(3) 0.20616(3)
S4_10 S 0.08635(3) 0.95616(3) 0.42256(3)
S8_13 S 0.25415(4) 0.79936(4) 0.36906(8)
N11_13 N 0.10581(7) 0.86307(7) 0.22582(6)
N12_10 N 0.11307(7) 0.97582(6) 0.39419(7)
N16_13 N 0.24895(7) 0.84248(8) 0.37261(7)
N17_12 N 0.00105(7) 0.87261(7) 0.40752(8)
N18_12 N 0.00105(7) 0.87739(7) 0.34248(8)
N19_10 N 0.12739(7) 0.99895(7) 0.09248(8)
N20_10 N 0.12261(7) 0.99895(7) 0.15752(8)
N21_13 N 0.09026(7) 0.88395(6) 0.26484(7)
N22_13 N 0.11605(6) 0.90974(7) 0.23516(7)
N24_9 N 0.15974(7) 0.98516(7) 0.38395(6)
N28_10 N 0.12609(7) 0.98399(7) 0.34893(7)
N31_12 N 0.12391(7) 0.90107(7) 0.48399(7)
N35_13 N 0.09011(7) 0.92959(7) 0.31081(7)
N36_13 N 0.07041(7) 0.90989(7) 0.18919(7)
N38_12 N 0.15989(7) 0.93919(7) 0.42959(7)
N40_13 N 0.08074(7) 0.93836(7) 0.34580(7)
N41_13 N 0.06164(7) 0.91926(7) 0.15420(7)
N43_12 N 0.16926(7) 0.90420(7) 0.43836(7)
N45_13 N 0.06193(7) 0.91194(8) 0.32743(7)
N46_13 N 0.08806(8) 0.93807(7) 0.17257(7)
N48_12 N 0.18807(7) 0.92257(7) 0.41194(8)
N50_12 N 0.02619(7) 0.89869(8) 0.37901(7)
N51_10 N 0.10131(8) 0.97381(7) 0.12099(7)
N53_12 N 0.22381(7) 0.87099(7) 0.39869(8)
N55_12 N 0.02619(7) 0.85131(8) 0.37099(7)
N56_10 N 0.14869(8) 0.97381(7) 0.12901(7)
N57_12 N 0.37490(8) 0.84894(8) 0.48039(7)
N58_12 N 0.34894(8) 0.76961(7) 0.37510(8)
N66_12 N 0.34393(8) 0.81371(8) 0.42187(8)
N67_12 N 0.32813(8) 0.84393(8) 0.43629(8)
C27_13 C 0.09422(8) 0.85203(9) 0.21714(8)
C28_10 C 0.10203(9) 0.96714(8) 0.40578(8)
C32_13 C 0.25110(9) 0.82463(12) 0.37120(12)
C37_13 C 0.07240(11) 0.87342(10) 0.26112(10)
C38_13 C 0.12658(10) 0.92760(11) 0.23888(10)
C40_12 C 0.17760(11) 0.98888(10) 0.37342(10)
H17_13 H 0.0723 0.8633 0.2502
H18_13 H 0.1367 0.9277 0.2498
H20_12 H 0.1777 0.9998 0.3633
C42_13 C 0.05414(13) 0.87654(12) 0.27237(11)
C43_13 C 0.12346(12) 0.94586(13) 0.22763(11)
C45_12 C 0.19586(13) 0.97763(11) 0.37654(12)
H22_13 H 0.0417 0.8693 0.2686
H23_13 H 0.1307 0.9583 0.2314
H25_12 H 0.2083 0.9814 0.3693
C47_13 C 0.05417(12) 0.89020(10) 0.28912(10)
C48_13 C 0.10980(10) 0.94583(12) 0.21088(10)
C50_12 C 0.19583(12) 0.96088(10) 0.39020(10)
H27_13 H 0.0421 0.8920 0.2976
H28_13 H 0.1080 0.9579 0.2024
H30_12 H 0.2079 0.9524 0.3920
C52_13 C 0.07250(9) 0.90120(8) 0.29317(9)
C53_13 C 0.09880(8) 0.92750(9) 0.20683(9)
C55_12 C 0.17750(9) 0.95683(9) 0.40120(8)
C57_13 C 0.08977(8) 0.89790(7) 0.28043(8)
C58_13 C 0.10210(7) 0.91023(8) 0.21957(8)
C60_12 C 0.16023(8) 0.96957(8) 0.39790(7)
H32_13 H 0.1020 0.9061 0.2829
H33_13 H 0.0939 0.8980 0.2171
H35_12 H 0.1480 0.9671 0.4061
C62_13 C 0.13981(12) 0.98583(11) 0.33315(11)
C63_13 C 0.01417(11) 0.86019(12) 0.16685(11)
C65_12 C 0.11019(12) 0.91685(11) 0.48583(11)
H37_13 H 0.1506 0.9961 0.3343
H38_13 H 0.0039 0.8494 0.1657
H40_12 H 0.0994 0.9157 0.4961
C67_13 C 0.13915(13) 0.97360(13) 0.31515(12)
C68_13 C 0.02640(13) 0.86085(13) 0.18485(12)
C70_12 C 0.11085(13) 0.93485(12) 0.47360(13)
H42_13 H 0.1493 0.9755 0.3044
H43_13 H 0.0245 0.8507 0.1956
H45_12 H 0.1007 0.9456 0.4755
C72_13 C 0.12376(11) 0.95877(12) 0.31308(11)
C73_13 C 0.04123(12) 0.87624(11) 0.18692(11)
C75_12 C 0.12624(11) 0.93692(11) 0.45877(12)
H47_13 H 0.1231 0.9500 0.3010
H48_13 H 0.0500 0.8769 0.1990
H50_12 H 0.1269 0.9490 0.4500
C77_13 C 0.10896(9) 0.95684(9) 0.32916(9)
C78_13 C 0.04316(9) 0.89104(9) 0.17084(9)
C80_12 C 0.14104(9) 0.92084(9) 0.45684(9)
C82_13 C 0.11087(8) 0.96959(8) 0.34661(8)
C83_13 C 0.03041(8) 0.88913(8) 0.15339(8)
C85_12 C 0.13913(8) 0.90339(8) 0.46959(8)
H52_13 H 0.1009 0.9681 0.3576
H53_13 H 0.0319 0.8991 0.1424
H55_12 H 0.1491 0.8924 0.4681
C87_13 C 0.09222(8) 0.94082(8) 0.32828(8)
C88_13 C 0.05918(8) 0.90778(8) 0.17172(8)
C90_12 C 0.15778(8) 0.92172(8) 0.44082(8)
C92_13 C 0.07477(8) 0.91525(9) 0.31135(8)
C93_13 C 0.08475(9) 0.92523(8) 0.18865(8)
C95_12 C 0.17523(8) 0.93865(8) 0.41525(9)
C97_13 C 0.06574(8) 0.92374(9) 0.34444(8)
C98_13 C 0.07626(9) 0.93426(8) 0.15556(8)
C100_12 C 0.18426(8) 0.90556(8) 0.42374(9)
C102_13 C 0.03852(8) 0.90339(9) 0.36290(8)
C103_13 C 0.09661(9) 0.96148(8) 0.13710(8)
C105_12 C 0.21148(8) 0.88710(8) 0.40339(9)
H57_13 H 0.0374 0.8951 0.3505
H58_13 H 0.1049 0.9626 0.1495
H60_12 H 0.2126 0.8995 0.3951
C107_13 C 0.05301(9) 0.91970(10) 0.36312(9)
C108_13 C 0.08030(10) 0.94699(9) 0.13688(9)
C110_12 C 0.19699(9) 0.88688(9) 0.41970(10)
C112_13 C 0.05496(12) 0.93150(12) 0.38131(11)
C113_13 C 0.06850(12) 0.94504(12) 0.11869(11)
C115_12 C 0.19504(12) 0.86869(11) 0.43150(12)
H62_13 H 0.0648 0.9427 0.3822
H63_13 H 0.0573 0.9352 0.1178
H65_12 H 0.1852 0.8678 0.4427
C117_13 C 0.04226(13) 0.92655(14) 0.39817(12)
C118_13 C 0.07345(14) 0.95774(13) 0.10183(12)
C120_12 C 0.20774(13) 0.85183(12) 0.42655(14)
H67_13 H 0.0434 0.9342 0.4109
H68_13 H 0.0658 0.9566 0.0891
H70_12 H 0.2066 0.8391 0.4342
C122_13 C 0.02793(11) 0.91040(12) 0.39628(10)
C123_13 C 0.08960(12) 0.97207(11) 0.10372(10)
C125_12 C 0.22207(11) 0.85372(10) 0.41040(12)
H72_13 H 0.0189 0.9075 0.4078
H73_13 H 0.0925 0.9811 0.0922
H75_12 H 0.2311 0.8422 0.4075
C127_12 C 0.38830(12) 0.83277(11) 0.48302(11)
C128_12 C 0.33277(11) 0.76698(11) 0.36170(12)
H77_12 H 0.3987 0.8339 0.4936
H78_12 H 0.3339 0.7564 0.3513
C132_12 C 0.38764(15) 0.81485(12) 0.47114(14)
C133_12 C 0.31485(12) 0.77886(14) 0.36236(15)
H82_12 H 0.3973 0.8038 0.4737
H83_12 H 0.3038 0.7763 0.3527
C137_12 C 0.37281(13) 0.81310(12) 0.45545(13)
C138_12 C 0.31310(12) 0.79455(13) 0.37719(13)
H87_12 H 0.3720 0.8009 0.4470
H88_12 H 0.3009 0.8030 0.3780
C142_12 C 0.35897(11) 0.82984(10) 0.45234(10)
C143_12 C 0.32984(10) 0.79766(10) 0.39103(11)
C147_12 C 0.36041(9) 0.84717(9) 0.46526(8)
C148_12 C 0.34717(9) 0.78474(8) 0.38959(9)
H92_12 H 0.3507 0.8583 0.4634
H93_12 H 0.3583 0.7866 0.3993
C152_12 C 0.32889(10) 0.81395(10) 0.40736(10)
C153_12 C 0.34264(10) 0.82889(10) 0.43605(10)
S9_12 S 0.99585(4) 0.86906(8) 0.45064(4)
S10_12 S 0.99585(4) 0.88094(8) 0.29936(4)
N62_12 N 0.98039(7) 0.84894(8) 0.37490(8)
N63_12 N 0.98039(7) 0.90106(8) 0.37510(8)
C33_12 C 0.99890(9) 0.87120(12) 0.42537(12)
C34_12 C 0.99890(9) 0.87880(12) 0.32463(12)
Co1_12 Co 0.370919(12) 0.5000 0.620919(12)
Co2_8 Co 0.3750 0.3750 0.747768(14)
S1_14 S 0.32744(3) 0.45616(3) 0.66365(3)
S2_14 S 0.29936(4) 0.36906(8) 0.75415(4)
N1_14 N 0.35581(7) 0.47582(6) 0.63693(7)
N2_14 N 0.34248(8) 0.37261(7) 0.74895(7)
N3_11 N 0.48516(7) 0.38395(6) 0.65974(7)
N4_11 N 0.40107(7) 0.48399(7) 0.62391(7)
N5_11 N 0.43919(7) 0.42959(7) 0.65989(7)
N6_11 N 0.40420(7) 0.43836(7) 0.66926(7)
N7_11 N 0.42257(7) 0.41194(8) 0.68807(7)
N8_11 N 0.37099(7) 0.39869(8) 0.72381(7)
N9_13 N 0.37510(8) 0.34894(8) 0.76961(7)
N10_13 N 0.42187(8) 0.34393(8) 0.81371(8)
C1_14 C 0.34422(8) 0.46714(8) 0.64797(9)
C2_14 C 0.32463(12) 0.37120(12) 0.75110(9)
C3_11 C 0.48888(10) 0.37342(10) 0.67760(11)
H1_11 H 0.4998 0.3633 0.6777
C4_11 C 0.47763(11) 0.37654(12) 0.69586(13)
H2_11 H 0.4814 0.3693 0.7083
C5_11 C 0.46088(10) 0.39020(10) 0.69583(12)
H3_11 H 0.4524 0.3920 0.7079
C6_11 C 0.45683(9) 0.40120(8) 0.67750(9)
C7_11 C 0.46957(8) 0.39790(7) 0.66023(8)
H4_11 H 0.4671 0.4061 0.6480
C8_11 C 0.41685(11) 0.48583(11) 0.61019(12)
H5_11 H 0.4157 0.4961 0.5994
C9_11 C 0.43485(12) 0.47360(13) 0.61085(13)
H6_11 H 0.4456 0.4755 0.6007
C10_11 C 0.43692(11) 0.45877(12) 0.62624(11)
H7_11 H 0.4490 0.4500 0.6269
C11_11 C 0.42084(9) 0.45684(9) 0.64104(9)
C12_11 C 0.40339(8) 0.46959(8) 0.63913(8)
H8_11 H 0.3924 0.4681 0.6491
C13_11 C 0.42172(8) 0.44082(8) 0.65778(8)
C14_11 C 0.43865(8) 0.41525(9) 0.67523(8)
C15_11 C 0.40556(8) 0.42374(9) 0.68426(8)
C16_11 C 0.38710(8) 0.40339(9) 0.71148(8)
H9_11 H 0.3995 0.3951 0.7126
C17_11 C 0.38688(9) 0.41970(10) 0.69699(9)
C18_11 C 0.36869(11) 0.43150(12) 0.69504(12)
H10_11 H 0.3678 0.4427 0.6852
C19_11 C 0.35183(12) 0.42655(14) 0.70774(13)
H11_11 H 0.3391 0.4342 0.7066
C20_11 C 0.35372(10) 0.41040(12) 0.72207(11)
H12_11 H 0.3422 0.4075 0.7311
C21_13 C 0.36170(12) 0.33277(11) 0.76698(11)
H13_13 H 0.3513 0.3339 0.7564
C22_13 C 0.36236(15) 0.31485(12) 0.77886(14)
H14_13 H 0.3527 0.3038 0.7763
C23_13 C 0.37719(13) 0.31310(12) 0.79455(13)
H15_13 H 0.3780 0.3009 0.8030
C24_13 C 0.39103(11) 0.32984(10) 0.79766(10)
C25_13 C 0.38959(9) 0.34717(9) 0.78474(8)
H16_13 H 0.3993 0.3583 0.7866
C26_13 C 0.40736(10) 0.32889(10) 0.81395(10)
Co3_11 Co 0.2500 0.370919(12) 0.629081(12)
Co5_10 Co 0.5000 0.379081(12) 0.629081(12)
Co7_17 Co 0.379081(12) 0.2500 0.620919(12)
Co8_15 Co 0.120919(12) 0.379081(12) 0.7500
Co9_13 Co 0.3750 0.3750 0.502232(14)
Co10_11 Co 0.252232(14) 0.6250 0.6250
S3_14 S 0.41365(3) 0.54384(3) 0.57744(3)
S4_11 S 0.29384(3) 0.32744(3) 0.58635(3)
S5_11 S 0.20616(3) 0.41365(3) 0.67256(3)
S8_14 S 0.45064(4) 0.38094(8) 0.75415(4)
S9_13 S 0.38094(8) 0.29936(4) 0.49585(4)
S10_13 S 0.36906(8) 0.45064(4) 0.49585(4)
S11_11 S 0.24585(4) 0.70064(4) 0.63094(8)
S12_11 S 0.24585(4) 0.54936(4) 0.61906(8)
N11_14 N 0.38693(7) 0.52418(6) 0.60581(7)
N12_11 N 0.27418(6) 0.35581(7) 0.61307(7)
N13_11 N 0.22582(6) 0.38693(7) 0.64419(7)
N16_14 N 0.40752(8) 0.37739(7) 0.74895(7)
N17_13 N 0.37739(7) 0.34248(8) 0.50105(7)
N18_13 N 0.37261(7) 0.40752(8) 0.50105(7)
N19_11 N 0.25105(7) 0.65752(8) 0.62739(7)
N20_11 N 0.25105(7) 0.59248(8) 0.62261(7)
N21_14 N 0.36605(6) 0.48516(7) 0.59026(7)
N22_14 N 0.34026(7) 0.51484(7) 0.61605(6)
N24_10 N 0.26484(7) 0.36605(6) 0.65974(7)
N25_10 N 0.23516(7) 0.34026(7) 0.63395(6)
N28_11 N 0.26601(7) 0.40107(7) 0.62609(7)
N30_13 N 0.37391(7) 0.51601(7) 0.65107(7)
N31_13 N 0.34893(7) 0.26601(7) 0.62391(7)
N32_11 N 0.15107(7) 0.37609(7) 0.73399(7)
N33_11 N 0.23399(7) 0.37391(7) 0.59893(7)
N35_14 N 0.32041(7) 0.43919(7) 0.59011(7)
N36_14 N 0.34011(7) 0.56081(7) 0.57041(7)
N37_13 N 0.40989(7) 0.57041(7) 0.68919(7)
N38_13 N 0.31081(7) 0.32041(7) 0.65989(7)
N39_11 N 0.18919(7) 0.34011(7) 0.67959(7)
N40_14 N 0.31164(7) 0.40420(7) 0.58074(7)
N41_14 N 0.33074(7) 0.59580(7) 0.56164(7)
N42_13 N 0.41926(7) 0.56164(7) 0.65420(7)
N43_13 N 0.34580(7) 0.31164(7) 0.66926(7)
N44_11 N 0.15420(7) 0.33074(7) 0.68836(7)
N45_14 N 0.33806(8) 0.42257(7) 0.56193(7)
N46_14 N 0.31193(7) 0.57743(7) 0.58806(8)
N47_13 N 0.43807(7) 0.58806(8) 0.67257(7)
N48_13 N 0.32743(7) 0.33806(8) 0.68807(7)
N49_11 N 0.17257(7) 0.31193(7) 0.66194(8)
N50_13 N 0.35131(8) 0.37099(7) 0.52619(7)
N51_11 N 0.27619(7) 0.62901(7) 0.60131(8)
N52_13 N 0.47381(7) 0.60131(8) 0.62099(7)
N53_13 N 0.37901(7) 0.35131(8) 0.72381(7)
N54_11 N 0.12099(7) 0.27619(7) 0.64869(8)
N55_13 N 0.39869(8) 0.37901(7) 0.52619(7)
N56_11 N 0.27619(7) 0.62099(7) 0.64869(8)
N57_13 N 0.40106(8) 0.26961(7) 0.87490(8)
N58_13 N 0.48039(7) 0.37490(8) 0.84894(8)
N59_11 N 0.37490(8) 0.40106(8) 0.76961(7)
N60_11 N 0.34894(8) 0.48039(7) 0.87490(8)
N61_11 N 0.26961(7) 0.37510(8) 0.84894(8)
N62_13 N 0.40106(8) 0.37510(8) 0.48039(7)
N63_13 N 0.34894(8) 0.37490(8) 0.48039(7)
N64_11 N 0.23039(7) 0.62490(8) 0.65106(8)
N65_11 N 0.23039(7) 0.62510(8) 0.59894(8)
N66_13 N 0.43629(8) 0.32813(8) 0.84393(8)
N67_13 N 0.40607(8) 0.31371(8) 0.82813(8)
N68_11 N 0.32813(8) 0.40607(8) 0.81371(8)
N69_11 N 0.31371(8) 0.42187(8) 0.84393(8)
N70_11 N 0.34393(8) 0.43629(8) 0.82813(8)
C27_14 C 0.39797(9) 0.53286(8) 0.59422(8)
C28_11 C 0.28286(8) 0.34422(8) 0.60203(9)
C29_11 C 0.21714(8) 0.39797(9) 0.65578(8)
C32_14 C 0.42537(12) 0.37880(12) 0.75110(9)
C33_13 C 0.37880(12) 0.32463(12) 0.49890(9)
C34_13 C 0.37120(12) 0.42537(12) 0.49890(9)
C35_11 C 0.24890(9) 0.67537(12) 0.62880(12)
C36_11 C 0.24890(9) 0.57463(12) 0.62120(12)
C37_14 C 0.37658(10) 0.48888(10) 0.57240(11)
C38_14 C 0.32240(11) 0.51112(10) 0.62658(10)
C39_13 C 0.42760(11) 0.62658(10) 0.73888(10)
C40_13 C 0.26112(10) 0.37658(10) 0.67760(11)
C41_11 C 0.23888(10) 0.32240(11) 0.62342(10)
H17_14 H 0.3867 0.4998 0.5723
H18_14 H 0.3223 0.5002 0.6367
H19_13 H 0.4277 0.6367 0.7498
H20_13 H 0.2502 0.3867 0.6777
H21_11 H 0.2498 0.3223 0.6133
C42_14 C 0.37346(12) 0.47763(11) 0.55414(13)
C43_14 C 0.30414(13) 0.52237(11) 0.62346(12)
C44_13 C 0.44586(13) 0.62346(12) 0.72763(11)
C45_13 C 0.27237(11) 0.37346(12) 0.69586(13)
C46_11 C 0.22763(11) 0.30414(13) 0.62654(12)
H22_14 H 0.3807 0.4814 0.5417
H23_14 H 0.2917 0.5186 0.6307
H24_13 H 0.4583 0.6307 0.7314
H25_13 H 0.2686 0.3807 0.7083
H26_11 H 0.2314 0.2917 0.6193
C47_14 C 0.35980(10) 0.46088(10) 0.55417(12)
C48_14 C 0.30417(12) 0.53912(10) 0.60980(10)
C49_13 C 0.44583(12) 0.60980(10) 0.71088(10)
C50_13 C 0.28912(10) 0.35980(10) 0.69583(12)
C51_11 C 0.21088(10) 0.30417(12) 0.64020(10)
H27_14 H 0.3580 0.4524 0.5421
H28_14 H 0.2921 0.5476 0.6080
H29_13 H 0.4579 0.6080 0.7024
H30_13 H 0.2976 0.3580 0.7079
H31_11 H 0.2024 0.2921 0.6420
C52_14 C 0.34880(8) 0.45683(9) 0.57250(9)
C53_14 C 0.32250(9) 0.54317(9) 0.59880(8)
C54_13 C 0.42750(9) 0.59880(8) 0.70683(9)
C55_13 C 0.29317(9) 0.34880(8) 0.67750(9)
C56_11 C 0.20683(9) 0.32250(9) 0.65120(8)
C57_14 C 0.35210(7) 0.46957(8) 0.58977(8)
C58_14 C 0.33977(8) 0.53043(8) 0.60210(7)
C59_13 C 0.41023(8) 0.60210(7) 0.71957(8)
C60_13 C 0.28043(8) 0.35210(7) 0.66023(8)
C61_11 C 0.21957(8) 0.33977(8) 0.64790(7)
H32_14 H 0.3439 0.4671 0.6020
H33_14 H 0.3520 0.5329 0.5939
H34_13 H 0.3980 0.5939 0.7171
H35_13 H 0.2829 0.3439 0.6480
H36_11 H 0.2171 0.3520 0.6561
C62_14 C 0.26417(11) 0.41685(11) 0.63981(12)
C63_14 C 0.38981(12) 0.58315(11) 0.51417(11)
C64_13 C 0.36019(12) 0.51417(11) 0.66685(11)
C65_13 C 0.33315(11) 0.26417(11) 0.61019(12)
C66_11 C 0.16685(11) 0.38981(12) 0.73583(11)
H37_14 H 0.2539 0.4157 0.6506
H38_14 H 0.4006 0.5843 0.5039
H39_13 H 0.3494 0.5039 0.6657
H40_13 H 0.3343 0.2539 0.5994
H41_11 H 0.1657 0.4006 0.7461
C67_14 C 0.27640(13) 0.43485(12) 0.63915(13)
C68_14 C 0.38915(13) 0.56515(12) 0.52640(13)
C69_13 C 0.36085(13) 0.52640(13) 0.68485(12)
C70_13 C 0.31515(12) 0.27640(13) 0.61085(13)
C71_11 C 0.18485(12) 0.38915(13) 0.72360(13)
H42_14 H 0.2745 0.4456 0.6493
H43_14 H 0.3993 0.5544 0.5245
H44_13 H 0.3507 0.5245 0.6956
H45_13 H 0.3044 0.2745 0.6007
H46_11 H 0.1956 0.3993 0.7255
C72_14 C 0.29123(12) 0.43692(11) 0.62376(11)
C73_14 C 0.37376(11) 0.56308(11) 0.54123(12)
C74_13 C 0.37624(11) 0.54123(12) 0.68692(11)
C75_13 C 0.31308(11) 0.29123(12) 0.62624(11)
C76_11 C 0.18692(11) 0.37376(11) 0.70877(12)
H47_14 H 0.3000 0.4490 0.6231
H48_14 H 0.3731 0.5510 0.5500
H49_13 H 0.3769 0.5500 0.6990
H50_13 H 0.3010 0.3000 0.6269
H51_11 H 0.1990 0.3731 0.7000
C77_14 C 0.29316(9) 0.42084(9) 0.60896(9)
C78_14 C 0.35896(9) 0.57916(9) 0.54316(9)
C79_13 C 0.39104(9) 0.54316(9) 0.67084(9)
C80_13 C 0.32916(9) 0.29316(9) 0.64104(9)
C81_11 C 0.17084(9) 0.35896(9) 0.70684(9)
C82_14 C 0.28041(8) 0.40339(8) 0.61087(8)
C83_14 C 0.36087(8) 0.59661(8) 0.53041(8)
C84_13 C 0.38913(8) 0.53041(8) 0.65339(8)
C85_13 C 0.34661(8) 0.28041(8) 0.63913(8)
C86_11 C 0.15339(8) 0.36087(8) 0.71959(8)
H52_14 H 0.2819 0.3924 0.6009
H53_14 H 0.3509 0.6076 0.5319
H54_13 H 0.3991 0.5319 0.6424
H55_13 H 0.3576 0.2819 0.6491
H56_11 H 0.1424 0.3509 0.7181
C87_14 C 0.30918(8) 0.42172(8) 0.59222(8)
C88_14 C 0.34222(8) 0.57828(8) 0.55918(8)
C89_13 C 0.40778(8) 0.55918(8) 0.67172(8)
C90_13 C 0.32828(8) 0.30918(8) 0.65778(8)
C91_11 C 0.17172(8) 0.34222(8) 0.69082(8)
C92_14 C 0.33475(9) 0.43865(8) 0.57477(8)
C93_14 C 0.32477(8) 0.56135(8) 0.58475(9)
C94_13 C 0.42523(8) 0.58475(9) 0.68865(8)
C95_13 C 0.31135(8) 0.33475(9) 0.67523(8)
C96_11 C 0.18865(8) 0.32477(8) 0.66525(9)
C97_14 C 0.32626(9) 0.40556(8) 0.56574(8)
C98_14 C 0.31574(8) 0.59444(8) 0.57626(9)
C99_13 C 0.43426(8) 0.57626(9) 0.65556(8)
C100_13 C 0.34444(8) 0.32626(9) 0.68426(8)
C101_11 C 0.15556(8) 0.31574(8) 0.67374(9)
C102_14 C 0.34661(9) 0.38710(8) 0.53852(8)
C103_14 C 0.28852(8) 0.61290(8) 0.59661(9)
C104_13 C 0.46148(8) 0.59661(9) 0.63710(8)
C105_13 C 0.36290(8) 0.34661(9) 0.71148(8)
C106_11 C 0.13710(8) 0.28852(8) 0.65339(9)
H57_14 H 0.3549 0.3995 0.5374
H58_14 H 0.2874 0.6005 0.6049
H59_13 H 0.4626 0.6049 0.6495
H60_13 H 0.3505 0.3549 0.7126
H61_11 H 0.1495 0.2874 0.6451
C107_14 C 0.33030(10) 0.38688(9) 0.55301(9)
C108_14 C 0.30301(9) 0.61312(9) 0.58030(10)
C109_13 C 0.44699(9) 0.58030(10) 0.63688(9)
C110_13 C 0.36312(9) 0.33030(10) 0.69699(9)
C111_11 C 0.13688(9) 0.30301(9) 0.66970(10)
C112_14 C 0.31850(12) 0.36869(11) 0.55496(12)
C113_14 C 0.30496(12) 0.63131(11) 0.56850(12)
C114_13 C 0.44504(12) 0.56850(12) 0.61869(11)
C115_13 C 0.38131(11) 0.31850(12) 0.69504(12)
C116_11 C 0.11869(11) 0.30496(12) 0.68150(12)
H62_14 H 0.3073 0.3678 0.5648
H63_14 H 0.3148 0.6322 0.5573
H64_13 H 0.4352 0.5573 0.6178
H65_13 H 0.3822 0.3073 0.6852
H66_11 H 0.1178 0.3148 0.6927
C117_14 C 0.32345(14) 0.35183(12) 0.54226(13)
C118_14 C 0.29226(13) 0.64817(12) 0.57345(14)
C119_13 C 0.45774(13) 0.57345(14) 0.60183(12)
C120_13 C 0.39817(12) 0.32345(14) 0.70774(13)
C121_11 C 0.10183(12) 0.29226(13) 0.67655(14)
H67_14 H 0.3158 0.3391 0.5434
H68_14 H 0.2934 0.6609 0.5658
H69_13 H 0.4566 0.5658 0.5891
H70_13 H 0.4109 0.3158 0.7066
H71_11 H 0.0891 0.2934 0.6842
C122_14 C 0.33960(12) 0.35372(10) 0.52793(11)
C123_14 C 0.27793(11) 0.64628(10) 0.58960(12)
C124_13 C 0.47207(11) 0.58960(12) 0.60372(10)
C125_13 C 0.39628(10) 0.33960(12) 0.72207(11)
C126_11 C 0.10372(10) 0.27793(11) 0.66040(12)
H72_14 H 0.3425 0.3422 0.5189
H73_14 H 0.2689 0.6578 0.5925
H74_13 H 0.4811 0.5925 0.5922
H75_13 H 0.4078 0.3425 0.7311
H76_11 H 0.0922 0.2689 0.6575
C127_13 C 0.41723(11) 0.26698(11) 0.88830(12)
C128_13 C 0.48302(11) 0.38830(12) 0.83277(11)
C129_11 C 0.38830(12) 0.41723(11) 0.76698(11)
C130_11 C 0.33277(11) 0.48302(11) 0.88830(12)
C131_11 C 0.26698(11) 0.36170(12) 0.83277(11)
H77_13 H 0.4161 0.2564 0.8987
H78_13 H 0.4936 0.3987 0.8339
H79_11 H 0.3987 0.4161 0.7564
H80_11 H 0.3339 0.4936 0.8987
H81_11 H 0.2564 0.3513 0.8339
C132_13 C 0.43515(12) 0.27886(14) 0.88764(15)
C133_13 C 0.47114(14) 0.38764(15) 0.81485(12)
C134_11 C 0.38764(15) 0.43515(12) 0.77886(14)
C135_11 C 0.31485(12) 0.47114(14) 0.88764(15)
C136_11 C 0.27886(14) 0.36236(15) 0.81485(12)
H82_13 H 0.4462 0.2763 0.8973
H83_13 H 0.4737 0.3973 0.8038
H84_11 H 0.3973 0.4462 0.7763
H85_11 H 0.3038 0.4737 0.8973
H86_11 H 0.2763 0.3527 0.8038
C137_13 C 0.43690(12) 0.29455(13) 0.87281(13)
C138_13 C 0.45545(13) 0.37281(13) 0.81310(12)
C139_11 C 0.37281(13) 0.43690(12) 0.79455(13)
C140_11 C 0.31310(12) 0.45545(13) 0.87281(13)
C141_11 C 0.29455(13) 0.37719(13) 0.81310(12)
H87_13 H 0.4491 0.3030 0.8720
H88_13 H 0.4470 0.3720 0.8009
H89_11 H 0.3720 0.4491 0.8030
H90_11 H 0.3009 0.4470 0.8720
H91_11 H 0.3030 0.3780 0.8009
C142_13 C 0.42016(10) 0.29766(10) 0.85897(11)
C143_13 C 0.45234(10) 0.35897(11) 0.82984(10)
C144_11 C 0.35897(11) 0.42016(10) 0.79766(10)
C145_11 C 0.32984(10) 0.45234(10) 0.85897(11)
C146_11 C 0.29766(10) 0.39103(11) 0.82984(10)
C147_13 C 0.40283(9) 0.28474(8) 0.86041(9)
C148_13 C 0.46526(8) 0.36041(9) 0.84717(9)
C149_11 C 0.36041(9) 0.40283(9) 0.78474(8)
C150_11 C 0.34717(9) 0.46526(8) 0.86041(9)
C151_11 C 0.28474(8) 0.38959(9) 0.84717(9)
H92_13 H 0.3917 0.2866 0.8507
H93_13 H 0.4634 0.3507 0.8583
H94_11 H 0.3507 0.3917 0.7866
H95_11 H 0.3583 0.4634 0.8507
H96_11 H 0.2866 0.3993 0.8583
C152_13 C 0.43605(10) 0.34264(10) 0.82889(10)
C153_13 C 0.42111(10) 0.31395(10) 0.84264(10)
C154_11 C 0.34264(10) 0.42111(10) 0.81395(10)
C155_11 C 0.31395(10) 0.40736(10) 0.82889(10)
C156_11 C 0.32889(10) 0.43605(10) 0.84264(10)
Co1_13 Co 0.2500 0.120919(12) 0.879081(12)
S1_15 S 0.20616(3) 0.07744(3) 0.83635(3)
S2_15 S 0.11906(8) 0.04936(4) 0.74585(4)
N1_15 N 0.22582(6) 0.10581(7) 0.86307(7)
N2_15 N 0.12261(7) 0.09248(8) 0.75105(7)
N4_12 N 0.23399(7) 0.15107(7) 0.87609(7)
N5_12 N 0.17959(7) 0.18919(7) 0.84011(7)
N6_12 N 0.18836(7) 0.15420(7) 0.83074(7)
N7_12 N 0.16194(8) 0.17257(7) 0.81193(7)
N8_12 N 0.14869(8) 0.12099(7) 0.77619(7)
C1_15 C 0.21714(8) 0.09422(8) 0.85203(9)
C2_15 C 0.12120(12) 0.07463(12) 0.74890(9)
C3_12 C 0.12342(10) 0.23888(10) 0.82240(11)
H1_12 H 0.1133 0.2498 0.8223
C4_12 C 0.12654(12) 0.22763(11) 0.80414(13)
H2_12 H 0.1193 0.2314 0.7917
C5_12 C 0.14020(10) 0.21088(10) 0.80417(12)
H3_12 H 0.1420 0.2024 0.7921
C6_12 C 0.15120(8) 0.20683(9) 0.82250(9)
C7_12 C 0.14790(7) 0.21957(8) 0.83977(8)
H4_12 H 0.1561 0.2171 0.8520
C8_12 C 0.23583(11) 0.16685(11) 0.88981(12)
H5_12 H 0.2461 0.1657 0.9006
C9_12 C 0.22360(13) 0.18485(12) 0.88915(13)
H6_12 H 0.2255 0.1956 0.8993
C10_12 C 0.20877(12) 0.18692(11) 0.87376(11)
H7_12 H 0.2000 0.1990 0.8731
C11_12 C 0.20684(9) 0.17084(9) 0.85896(9)
C12_12 C 0.21959(8) 0.15339(8) 0.86087(8)
H8_12 H 0.2181 0.1424 0.8509
C13_12 C 0.19082(8) 0.17172(8) 0.84222(8)
C14_12 C 0.16525(9) 0.18865(8) 0.82477(8)
C15_12 C 0.17374(9) 0.15556(8) 0.81574(8)
C16_12 C 0.15339(9) 0.13710(8) 0.78852(8)
H9_12 H 0.1451 0.1495 0.7874
C17_12 C 0.16970(10) 0.13688(9) 0.80301(9)
C18_12 C 0.18150(12) 0.11869(11) 0.80496(12)
H10_12 H 0.1927 0.1178 0.8148
C19_12 C 0.17655(14) 0.10183(12) 0.79226(13)
H11_12 H 0.1842 0.0891 0.7934
C20_12 C 0.16040(12) 0.10372(10) 0.77793(11)
H12_12 H 0.1575 0.0922 0.7689
Co6_11 Co 0.370919(12) 0.129081(12) 0.7500
Co10_12 Co 0.3750 0.002232(14) 0.8750
Co14_8 Co 0.252232(14) 0.1250 0.6250
S3_15 S 0.29384(3) 0.16365(3) 0.92256(3)
S4_12 S 0.07744(3) 0.04384(3) 0.91365(3)
S8_15 S 0.13094(8) 0.20064(4) 0.74585(4)
N11_15 N 0.27418(6) 0.13693(7) 0.89419(7)
N12_12 N 0.10581(7) 0.02418(6) 0.88693(7)
N16_15 N 0.12739(7) 0.15752(8) 0.75105(7)
N19_12 N 0.40752(8) 0.00105(7) 0.87261(7)
N20_12 N 0.34248(8) 0.00105(7) 0.87739(7)
N21_15 N 0.23516(7) 0.11605(6) 0.90974(7)
N22_15 N 0.26484(7) 0.09026(7) 0.88395(6)
N23_9 N 0.36605(6) 0.15974(7) 0.76484(7)
N28_12 N 0.15107(7) 0.01601(7) 0.87391(7)
N30_14 N 0.26601(7) 0.12391(7) 0.84893(7)
N35_15 N 0.18919(7) 0.07041(7) 0.90989(7)
N36_15 N 0.31081(7) 0.09011(7) 0.92959(7)
N37_14 N 0.32041(7) 0.15989(7) 0.81081(7)
N40_15 N 0.15420(7) 0.06164(7) 0.91926(7)
N41_15 N 0.34580(7) 0.08074(7) 0.93836(7)
N42_14 N 0.31164(7) 0.16926(7) 0.84580(7)
N45_15 N 0.17257(7) 0.08806(8) 0.93807(7)
N46_15 N 0.32743(7) 0.06193(7) 0.91194(8)
N47_14 N 0.33806(8) 0.18807(7) 0.82743(7)
N51_12 N 0.37901(7) 0.02619(7) 0.89869(8)
N52_14 N 0.35131(8) 0.22381(7) 0.87901(7)
N56_12 N 0.37099(7) 0.02619(7) 0.85131(8)
N59_12 N 0.15106(8) 0.12490(8) 0.73039(7)
N60_12 N 0.23039(7) 0.09894(8) 0.62510(8)
N61_12 N 0.12510(8) 0.01961(7) 0.65106(8)
N68_12 N 0.15607(8) 0.07813(8) 0.68629(8)
N69_12 N 0.17187(8) 0.06371(8) 0.65607(8)
N70_12 N 0.18629(8) 0.09393(8) 0.67187(8)
C27_15 C 0.28286(8) 0.14797(9) 0.90578(8)
C28_12 C 0.09422(8) 0.03286(8) 0.89797(9)
C32_15 C 0.12880(12) 0.17537(12) 0.74890(9)
C37_15 C 0.23888(10) 0.12658(10) 0.92760(11)
C38_15 C 0.26112(10) 0.07240(11) 0.87342(10)
C39_14 C 0.37658(10) 0.17760(11) 0.76112(10)
H17_15 H 0.2498 0.1367 0.9277
H18_15 H 0.2502 0.0723 0.8633
H19_14 H 0.3867 0.1777 0.7502
C42_15 C 0.22763(11) 0.12346(12) 0.94586(13)
C43_15 C 0.27237(11) 0.05414(13) 0.87654(12)
C44_14 C 0.37346(12) 0.19586(13) 0.77237(11)
H22_15 H 0.2314 0.1307 0.9583
H23_15 H 0.2686 0.0417 0.8693
H24_14 H 0.3807 0.2083 0.7686
C47_15 C 0.21088(10) 0.10980(10) 0.94583(12)
C48_15 C 0.28912(10) 0.05417(12) 0.89020(10)
C49_14 C 0.35980(10) 0.19583(12) 0.78912(10)
H27_15 H 0.2024 0.1080 0.9579
H28_15 H 0.2976 0.0421 0.8920
H29_14 H 0.3580 0.2079 0.7976
C52_15 C 0.20683(9) 0.09880(8) 0.92750(9)
C53_15 C 0.29317(9) 0.07250(9) 0.90120(8)
C54_14 C 0.34880(8) 0.17750(9) 0.79317(9)
C57_15 C 0.21957(8) 0.10210(7) 0.91023(8)
C58_15 C 0.28043(8) 0.08977(8) 0.89790(7)
C59_14 C 0.35210(7) 0.16023(8) 0.78043(8)
H32_15 H 0.2171 0.0939 0.8980
H33_15 H 0.2829 0.1020 0.9061
H34_14 H 0.3439 0.1480 0.7829
C62_15 C 0.16685(11) 0.01417(11) 0.86019(12)
C63_15 C 0.33315(11) 0.13981(12) 0.98583(11)
C64_14 C 0.26417(11) 0.11019(12) 0.83315(11)
H37_15 H 0.1657 0.0039 0.8494
H38_15 H 0.3343 0.1506 0.9961
H39_14 H 0.2539 0.0994 0.8343
C67_15 C 0.18485(12) 0.02640(13) 0.86085(13)
C68_15 C 0.31515(12) 0.13915(13) 0.97360(13)
C69_14 C 0.27640(13) 0.11085(13) 0.81515(12)
H42_15 H 0.1956 0.0245 0.8507
H43_15 H 0.3044 0.1493 0.9755
H44_14 H 0.2745 0.1007 0.8044
C72_15 C 0.18692(11) 0.04123(12) 0.87624(11)
C73_15 C 0.31308(11) 0.12376(11) 0.95877(12)
C74_14 C 0.29123(12) 0.12624(11) 0.81308(11)
H47_15 H 0.1990 0.0500 0.8769
H48_15 H 0.3010 0.1231 0.9500
H49_14 H 0.3000 0.1269 0.8010
C77_15 C 0.17084(9) 0.04316(9) 0.89104(9)
C78_15 C 0.32916(9) 0.10896(9) 0.95684(9)
C79_14 C 0.29316(9) 0.14104(9) 0.82916(9)
C82_15 C 0.15339(8) 0.03041(8) 0.88913(8)
C83_15 C 0.34661(8) 0.11087(8) 0.96959(8)
C84_14 C 0.28041(8) 0.13913(8) 0.84661(8)
H52_15 H 0.1424 0.0319 0.8991
H53_15 H 0.3576 0.1009 0.9681
H54_14 H 0.2819 0.1491 0.8576
C87_15 C 0.17172(8) 0.05918(8) 0.90778(8)
C88_15 C 0.32828(8) 0.09222(8) 0.94082(8)
C89_14 C 0.30918(8) 0.15778(8) 0.82828(8)
C92_15 C 0.18865(8) 0.08475(9) 0.92523(8)
C93_15 C 0.31135(8) 0.07477(8) 0.91525(9)
C94_14 C 0.33475(9) 0.17523(8) 0.81135(8)
C97_15 C 0.15556(8) 0.07626(9) 0.93426(8)
C98_15 C 0.34444(8) 0.06574(8) 0.92374(9)
C99_14 C 0.32626(9) 0.18426(8) 0.84444(8)
C102_15 C 0.13710(8) 0.09661(9) 0.96148(8)
C103_15 C 0.36290(8) 0.03852(8) 0.90339(9)
C104_14 C 0.34661(9) 0.21148(8) 0.86290(8)
H57_15 H 0.1495 0.1049 0.9626
H58_15 H 0.3505 0.0374 0.8951
H59_14 H 0.3549 0.2126 0.8505
C107_15 C 0.13688(9) 0.08030(10) 0.94699(9)
C108_15 C 0.36312(9) 0.05301(9) 0.91970(10)
C109_14 C 0.33030(10) 0.19699(9) 0.86312(9)
C112_15 C 0.11869(11) 0.06850(12) 0.94504(12)
C113_15 C 0.38131(11) 0.05496(12) 0.93150(12)
C114_14 C 0.31850(12) 0.19504(12) 0.88131(11)
H62_15 H 0.1178 0.0573 0.9352
H63_15 H 0.3822 0.0648 0.9427
H64_14 H 0.3073 0.1852 0.8822
C117_15 C 0.10183(12) 0.07345(14) 0.95774(13)
C118_15 C 0.39817(12) 0.04226(13) 0.92655(14)
C119_14 C 0.32345(14) 0.20774(13) 0.89817(12)
H67_15 H 0.0891 0.0658 0.9566
H68_15 H 0.4109 0.0434 0.9342
H69_14 H 0.3158 0.2066 0.9109
C122_15 C 0.10372(10) 0.08960(12) 0.97207(11)
C123_15 C 0.39628(10) 0.02793(11) 0.91040(12)
C124_14 C 0.33960(12) 0.22207(11) 0.89628(10)
H72_15 H 0.0922 0.0925 0.9811
H73_15 H 0.4078 0.0189 0.9075
H74_14 H 0.3425 0.2311 0.9078
C129_12 C 0.16723(11) 0.13830(12) 0.73302(11)
C130_12 C 0.23302(11) 0.08277(11) 0.61170(12)
C131_12 C 0.11170(12) 0.01698(11) 0.66723(11)
H79_12 H 0.1661 0.1487 0.7436
H80_12 H 0.2436 0.0839 0.6013
H81_12 H 0.1013 0.0064 0.6661
C134_12 C 0.18515(12) 0.13764(15) 0.72114(14)
C135_12 C 0.22114(14) 0.06485(12) 0.61236(15)
C136_12 C 0.11236(15) 0.02886(14) 0.68515(12)
H84_12 H 0.1962 0.1473 0.7237
H85_12 H 0.2237 0.0538 0.6027
H86_12 H 0.1027 0.0263 0.6962
C139_12 C 0.18690(12) 0.12281(13) 0.70545(13)
C140_12 C 0.20545(13) 0.06310(12) 0.62719(13)
C141_12 C 0.12719(13) 0.04455(13) 0.68690(12)
H89_12 H 0.1991 0.1220 0.6970
H90_12 H 0.1970 0.0509 0.6280
H91_12 H 0.1280 0.0530 0.6991
C144_12 C 0.17016(10) 0.10897(11) 0.70234(10)
C145_12 C 0.20234(10) 0.07984(10) 0.64103(11)
C146_12 C 0.14103(11) 0.04766(10) 0.67016(10)
C149_12 C 0.15283(9) 0.11041(9) 0.71526(8)
C150_12 C 0.21526(8) 0.09717(9) 0.63959(9)
C151_12 C 0.13959(9) 0.03474(8) 0.65283(9)
H94_12 H 0.1417 0.1007 0.7134
H95_12 H 0.2134 0.1083 0.6493
H96_12 H 0.1493 0.0366 0.6417
C154_12 C 0.17111(10) 0.09264(10) 0.68605(10)
C155_12 C 0.15736(10) 0.06395(10) 0.67111(10)
C156_12 C 0.18605(10) 0.07889(10) 0.65736(10)
Co8_16 Co 0.129081(12) 0.870919(12) 0.7500
S5_12 S 0.16365(3) 0.95616(3) 0.82744(3)
S11_12 S 0.45064(4) 0.99585(4) 0.86906(8)
S12_12 S 0.29936(4) 0.99585(4) 0.88094(8)
N13_12 N 0.13693(7) 0.97582(6) 0.85581(7)
N25_11 N 0.09026(7) 0.98516(7) 0.86605(6)
N32_12 N 0.12609(7) 0.90107(7) 0.76601(7)
N33_12 N 0.12391(7) 0.98399(7) 0.90107(7)
N39_12 N 0.09011(7) 0.93919(7) 0.82041(7)
N44_12 N 0.08074(7) 0.90420(7) 0.81164(7)
N49_12 N 0.06193(7) 0.92257(7) 0.83806(8)
N54_12 N 0.02619(7) 0.87099(7) 0.85131(8)
N64_12 N 0.37490(8) 0.98039(7) 0.84894(8)
N65_12 N 0.37510(8) 0.98039(7) 0.90106(8)
C29_12 C 0.14797(9) 0.96714(8) 0.84422(8)
C35_12 C 0.42537(12) 0.99890(9) 0.87120(12)
C36_12 C 0.32463(12) 0.99890(9) 0.87880(12)
C41_12 C 0.07240(11) 0.98888(10) 0.87658(10)
H21_12 H 0.0723 0.9998 0.8867
C46_12 C 0.05414(13) 0.97763(11) 0.87346(12)
H26_12 H 0.0417 0.9814 0.8807
C51_12 C 0.05417(12) 0.96088(10) 0.85980(10)
H31_12 H 0.0421 0.9524 0.8580
C56_12 C 0.07250(9) 0.95683(9) 0.84880(8)
C61_12 C 0.08977(8) 0.96957(8) 0.85210(7)
H36_12 H 0.1020 0.9671 0.8439
C66_12 C 0.13981(12) 0.91685(11) 0.76417(11)
H41_12 H 0.1506 0.9157 0.7539
C71_12 C 0.13915(13) 0.93485(12) 0.77640(13)
H46_12 H 0.1493 0.9456 0.7745
C76_12 C 0.12376(11) 0.93692(11) 0.79123(12)
H51_12 H 0.1231 0.9490 0.8000
C81_12 C 0.10896(9) 0.92084(9) 0.79316(9)
C86_12 C 0.11087(8) 0.90339(8) 0.78041(8)
H56_12 H 0.1009 0.8924 0.7819
C91_12 C 0.09222(8) 0.92172(8) 0.80918(8)
C96_12 C 0.07477(8) 0.93865(8) 0.83475(9)
C101_12 C 0.06574(8) 0.90556(8) 0.82626(9)
C106_12 C 0.03852(8) 0.88710(8) 0.84661(9)
H61_12 H 0.0374 0.8995 0.8549
C111_12 C 0.05301(9) 0.88688(9) 0.83030(10)
C116_12 C 0.05496(12) 0.86869(11) 0.81850(12)
H66_12 H 0.0648 0.8678 0.8073
C121_12 C 0.04226(13) 0.85183(12) 0.82345(14)
H71_12 H 0.0434 0.8391 0.8158
C126_12 C 0.02793(11) 0.85372(10) 0.83960(12)
H76_12 H 0.0189 0.8422 0.8425
Co1_14 Co 0.620919(12) 0.379081(12) 0.2500
S1_16 S 0.57744(3) 0.33635(3) 0.20616(3)
S2_16 S 0.54936(4) 0.24585(4) 0.11906(8)
N1_16 N 0.60581(7) 0.36307(7) 0.22582(6)
N2_16 N 0.59248(8) 0.25105(7) 0.12261(7)
N3_12 N 0.73516(7) 0.34026(7) 0.13395(6)
N4_13 N 0.65107(7) 0.37609(7) 0.23399(7)
N5_13 N 0.68919(7) 0.34011(7) 0.17959(7)
N6_13 N 0.65420(7) 0.33074(7) 0.18836(7)
N7_13 N 0.67257(7) 0.31193(7) 0.16194(8)
N8_13 N 0.62099(7) 0.27619(7) 0.14869(8)
C1_16 C 0.59422(8) 0.35203(9) 0.21714(8)
C2_16 C 0.57463(12) 0.24890(9) 0.12120(12)
C3_13 C 0.73888(10) 0.32240(11) 0.12342(10)
H1_13 H 0.7498 0.3223 0.1133
C4_13 C 0.72763(11) 0.30414(13) 0.12654(12)
H2_13 H 0.7314 0.2917 0.1193
C5_13 C 0.71088(10) 0.30417(12) 0.14020(10)
H3_13 H 0.7024 0.2921 0.1420
C6_13 C 0.70683(9) 0.32250(9) 0.15120(8)
C7_13 C 0.71957(8) 0.33977(8) 0.14790(7)
H4_13 H 0.7171 0.3520 0.1561
C8_13 C 0.66685(11) 0.38981(12) 0.23583(11)
H5_13 H 0.6657 0.4006 0.2461
C9_13 C 0.68485(12) 0.38915(13) 0.22360(13)
H6_13 H 0.6956 0.3993 0.2255
C10_13 C 0.68692(11) 0.37376(11) 0.20877(12)
H7_13 H 0.6990 0.3731 0.2000
C11_13 C 0.67084(9) 0.35896(9) 0.20684(9)
C12_13 C 0.65339(8) 0.36087(8) 0.21959(8)
H8_13 H 0.6424 0.3509 0.2181
C13_13 C 0.67172(8) 0.34222(8) 0.19082(8)
C14_13 C 0.68865(8) 0.32477(8) 0.16525(9)
C15_13 C 0.65556(8) 0.31574(8) 0.17374(9)
C16_13 C 0.63710(8) 0.28852(8) 0.15339(9)
H9_13 H 0.6495 0.2874 0.1451
C17_13 C 0.63688(9) 0.30301(9) 0.16970(10)
C18_13 C 0.61869(11) 0.30496(12) 0.18150(12)
H10_13 H 0.6178 0.3148 0.1927
C19_13 C 0.60183(12) 0.29226(13) 0.17655(14)
H11_13 H 0.5891 0.2934 0.1842
C20_13 C 0.60372(10) 0.27793(11) 0.16040(12)
H12_13 H 0.5922 0.2689 0.1575
Co4_14 Co 0.629081(12) 0.5000 0.379081(12)
Co6_12 Co 0.629081(12) 0.2500 0.370919(12)
Co7_18 Co 0.629081(12) 0.379081(12) 0.0000
Co9_14 Co 0.6250 0.497768(14) 0.1250
Co10_13 Co 0.502232(14) 0.3750 0.3750
S3_16 S 0.66365(3) 0.42256(3) 0.29384(3)
S4_13 S 0.54384(3) 0.41365(3) 0.07744(3)
S5_13 S 0.45616(3) 0.32744(3) 0.16365(3)
S6_13 S 0.58635(3) 0.45616(3) 0.42256(3)
S7_13 S 0.67256(3) 0.54384(3) 0.33635(3)
S8_16 S 0.70064(4) 0.24585(4) 0.13094(8)
S9_14 S 0.63094(8) 0.50415(4) 0.04936(4)
S10_14 S 0.61906(8) 0.50415(4) 0.20064(4)
S11_13 S 0.49585(4) 0.36906(8) 0.45064(4)
S12_13 S 0.49585(4) 0.38094(8) 0.29936(4)
N11_16 N 0.63693(7) 0.39419(7) 0.27418(6)
N12_13 N 0.52418(6) 0.38693(7) 0.10581(7)
N13_13 N 0.47582(6) 0.35581(7) 0.13693(7)
N14_13 N 0.61307(7) 0.47582(6) 0.39419(7)
N15_13 N 0.64419(7) 0.52418(6) 0.36307(7)
N16_16 N 0.65752(8) 0.25105(7) 0.12739(7)
N17_14 N 0.62739(7) 0.49895(7) 0.09248(8)
N18_14 N 0.62261(7) 0.49895(7) 0.15752(8)
N19_13 N 0.50105(7) 0.37261(7) 0.40752(8)
N20_13 N 0.50105(7) 0.37739(7) 0.34248(8)
N21_16 N 0.61605(6) 0.40974(7) 0.23516(7)
N22_16 N 0.59026(7) 0.38395(6) 0.26484(7)
N23_10 N 0.65974(7) 0.26484(7) 0.36605(6)
N24_11 N 0.51484(7) 0.34026(7) 0.11605(6)
N26_10 N 0.65974(7) 0.48516(7) 0.38395(6)
N27_13 N 0.63395(6) 0.51484(7) 0.40974(7)
N28_13 N 0.51601(7) 0.37391(7) 0.15107(7)
N29_13 N 0.62609(7) 0.48399(7) 0.34893(7)
N30_15 N 0.62391(7) 0.34893(7) 0.26601(7)
N31_14 N 0.59893(7) 0.37609(7) 0.01601(7)
N33_13 N 0.48399(7) 0.40107(7) 0.12391(7)
N34_13 N 0.59893(7) 0.51601(7) 0.37609(7)
N35_16 N 0.57041(7) 0.40989(7) 0.18919(7)
N36_16 N 0.59011(7) 0.42959(7) 0.31081(7)
N37_15 N 0.65989(7) 0.31081(7) 0.32041(7)
N38_14 N 0.56081(7) 0.34011(7) 0.07041(7)
N40_16 N 0.56164(7) 0.41926(7) 0.15420(7)
N41_16 N 0.58074(7) 0.43836(7) 0.34580(7)
N42_15 N 0.66926(7) 0.34580(7) 0.31164(7)
N43_14 N 0.59580(7) 0.33074(7) 0.06164(7)
N45_16 N 0.58806(8) 0.43807(7) 0.17257(7)
N46_16 N 0.56193(7) 0.41194(8) 0.32743(7)
N47_15 N 0.68807(7) 0.32743(7) 0.33806(8)
N48_14 N 0.57743(7) 0.31193(7) 0.08806(8)
N50_14 N 0.60131(8) 0.47381(7) 0.12099(7)
N51_13 N 0.52619(7) 0.39869(8) 0.37901(7)
N52_15 N 0.72381(7) 0.37901(7) 0.35131(8)
N53_14 N 0.62901(7) 0.27619(7) 0.10131(8)
N55_14 N 0.64869(8) 0.47381(7) 0.12901(7)
N56_13 N 0.52619(7) 0.35131(8) 0.37099(7)
N59_13 N 0.62490(8) 0.23039(7) 0.15106(8)
N60_13 N 0.59894(8) 0.12510(8) 0.23039(7)
N61_13 N 0.51961(7) 0.15106(8) 0.12510(8)
N62_14 N 0.65106(8) 0.51961(7) 0.12510(8)
N63_14 N 0.59894(8) 0.51961(7) 0.12490(8)
N64_13 N 0.48039(7) 0.34894(8) 0.37490(8)
N65_13 N 0.48039(7) 0.40106(8) 0.37510(8)
N68_13 N 0.57813(8) 0.18629(8) 0.15607(8)
N69_13 N 0.56371(8) 0.15607(8) 0.17187(8)
N70_13 N 0.59393(8) 0.17187(8) 0.18629(8)
C27_16 C 0.64797(9) 0.40578(8) 0.28286(8)
C28_13 C 0.53286(8) 0.39797(9) 0.09422(8)
C29_13 C 0.46714(8) 0.34422(8) 0.14797(9)
C30_13 C 0.60203(9) 0.46714(8) 0.40578(8)
C31_13 C 0.65578(8) 0.53286(8) 0.35203(9)
C32_16 C 0.67537(12) 0.24890(9) 0.12880(12)
C33_14 C 0.62880(12) 0.50110(9) 0.07463(12)
C34_14 C 0.62120(12) 0.50110(9) 0.17537(12)
C35_13 C 0.49890(9) 0.37120(12) 0.42537(12)
C36_13 C 0.49890(9) 0.37880(12) 0.32463(12)
C37_16 C 0.62658(10) 0.42760(11) 0.23888(10)
C38_16 C 0.57240(11) 0.37342(10) 0.26112(10)
C39_15 C 0.67760(11) 0.26112(10) 0.37658(10)
C40_14 C 0.51112(10) 0.32240(11) 0.12658(10)
H17_16 H 0.6367 0.4277 0.2498
H18_16 H 0.5723 0.3633 0.2502
H19_15 H 0.6777 0.2502 0.3867
H20_14 H 0.5002 0.3223 0.1367
C42_16 C 0.62346(12) 0.44586(13) 0.22763(11)
C43_16 C 0.55414(13) 0.37654(12) 0.27237(11)
C44_15 C 0.69586(13) 0.27237(11) 0.37346(12)
C45_14 C 0.52237(11) 0.30414(13) 0.12346(12)
H22_16 H 0.6307 0.4583 0.2314
H23_16 H 0.5417 0.3693 0.2686
H24_15 H 0.7083 0.2686 0.3807
H25_14 H 0.5186 0.2917 0.1307
C47_16 C 0.60980(10) 0.44583(12) 0.21088(10)
C48_16 C 0.55417(12) 0.39020(10) 0.28912(10)
C49_15 C 0.69583(12) 0.28912(10) 0.35980(10)
C50_14 C 0.53912(10) 0.30417(12) 0.10980(10)
H27_16 H 0.6080 0.4579 0.2024
H28_16 H 0.5421 0.3920 0.2976
H29_15 H 0.7079 0.2976 0.3580
H30_14 H 0.5476 0.2921 0.1080
C52_16 C 0.59880(8) 0.42750(9) 0.20683(9)
C53_16 C 0.57250(9) 0.40120(8) 0.29317(9)
C54_15 C 0.67750(9) 0.29317(9) 0.34880(8)
C55_14 C 0.54317(9) 0.32250(9) 0.09880(8)
C57_16 C 0.60210(7) 0.41023(8) 0.21957(8)
C58_16 C 0.58977(8) 0.39790(7) 0.28043(8)
C59_15 C 0.66023(8) 0.28043(8) 0.35210(7)
C60_14 C 0.53043(8) 0.33977(8) 0.10210(7)
H32_16 H 0.5939 0.3980 0.2171
H33_16 H 0.6020 0.4061 0.2829
H34_15 H 0.6480 0.2829 0.3439
H35_14 H 0.5329 0.3520 0.0939
C62_16 C 0.51417(11) 0.36019(12) 0.16685(11)
C63_16 C 0.63981(12) 0.48583(11) 0.33315(11)
C64_15 C 0.61019(12) 0.33315(11) 0.26417(11)
C65_14 C 0.58315(11) 0.38981(12) 0.01417(11)
H37_16 H 0.5039 0.3494 0.1657
H38_16 H 0.6506 0.4961 0.3343
H39_15 H 0.5994 0.3343 0.2539
H40_14 H 0.5843 0.4006 0.0039
C67_16 C 0.52640(13) 0.36085(13) 0.18485(12)
C68_16 C 0.63915(13) 0.47360(13) 0.31515(12)
C69_15 C 0.61085(13) 0.31515(12) 0.27640(13)
C70_14 C 0.56515(12) 0.38915(13) 0.02640(13)
H42_16 H 0.5245 0.3507 0.1956
H43_16 H 0.6493 0.4755 0.3044
H44_15 H 0.6007 0.3044 0.2745
H45_14 H 0.5544 0.3993 0.0245
C72_16 C 0.54123(12) 0.37624(11) 0.18692(11)
C73_16 C 0.62376(11) 0.45877(12) 0.31308(11)
C74_15 C 0.62624(11) 0.31308(11) 0.29123(12)
C75_14 C 0.56308(11) 0.37376(11) 0.04123(12)
H47_16 H 0.5500 0.3769 0.1990
H48_16 H 0.6231 0.4500 0.3010
H49_15 H 0.6269 0.3010 0.3000
H50_14 H 0.5510 0.3731 0.0500
C77_16 C 0.54316(9) 0.39104(9) 0.17084(9)
C78_16 C 0.60896(9) 0.45684(9) 0.32916(9)
C79_15 C 0.64104(9) 0.32916(9) 0.29316(9)
C80_14 C 0.57916(9) 0.35896(9) 0.04316(9)
C82_16 C 0.53041(8) 0.38913(8) 0.15339(8)
C83_16 C 0.61087(8) 0.46959(8) 0.34661(8)
C84_15 C 0.63913(8) 0.34661(8) 0.28041(8)
C85_14 C 0.59661(8) 0.36087(8) 0.03041(8)
H52_16 H 0.5319 0.3991 0.1424
H53_16 H 0.6009 0.4681 0.3576
H54_15 H 0.6491 0.3576 0.2819
H55_14 H 0.6076 0.3509 0.0319
C87_16 C 0.55918(8) 0.40778(8) 0.17172(8)
C88_16 C 0.59222(8) 0.44082(8) 0.32828(8)
C89_15 C 0.65778(8) 0.32828(8) 0.30918(8)
C90_14 C 0.57828(8) 0.34222(8) 0.05918(8)
C92_16 C 0.58475(9) 0.42523(8) 0.18865(8)
C93_16 C 0.57477(8) 0.41525(9) 0.31135(8)
C94_15 C 0.67523(8) 0.31135(8) 0.33475(9)
C95_14 C 0.56135(8) 0.32477(8) 0.08475(9)
C97_16 C 0.57626(9) 0.43426(8) 0.15556(8)
C98_16 C 0.56574(8) 0.42374(9) 0.34444(8)
C99_15 C 0.68426(8) 0.34444(8) 0.32626(9)
C100_14 C 0.59444(8) 0.31574(8) 0.07626(9)
C102_16 C 0.59661(9) 0.46148(8) 0.13710(8)
C103_16 C 0.53852(8) 0.40339(9) 0.36290(8)
C104_15 C 0.71148(8) 0.36290(8) 0.34661(9)
C105_14 C 0.61290(8) 0.28852(8) 0.09661(9)
H57_16 H 0.6049 0.4626 0.1495
H58_16 H 0.5374 0.3951 0.3505
H59_15 H 0.7126 0.3505 0.3549
H60_14 H 0.6005 0.2874 0.1049
C107_16 C 0.58030(10) 0.44699(9) 0.13688(9)
C108_16 C 0.55301(9) 0.41970(10) 0.36312(9)
C109_15 C 0.69699(9) 0.36312(9) 0.33030(10)
C110_14 C 0.61312(9) 0.30301(9) 0.08030(10)
C112_16 C 0.56850(12) 0.44504(12) 0.11869(11)
C113_16 C 0.55496(12) 0.43150(12) 0.38131(11)
C114_15 C 0.69504(12) 0.38131(11) 0.31850(12)
C115_14 C 0.63131(11) 0.30496(12) 0.06850(12)
H62_16 H 0.5573 0.4352 0.1178
H63_16 H 0.5648 0.4427 0.3822
H64_15 H 0.6852 0.3822 0.3073
H65_14 H 0.6322 0.3148 0.0573
C117_16 C 0.57345(14) 0.45774(13) 0.10183(12)
C118_16 C 0.54226(13) 0.42655(14) 0.39817(12)
C119_15 C 0.70774(13) 0.39817(12) 0.32345(14)
C120_14 C 0.64817(12) 0.29226(13) 0.07345(14)
H67_16 H 0.5658 0.4566 0.0891
H68_16 H 0.5434 0.4342 0.4109
H69_15 H 0.7066 0.4109 0.3158
H70_14 H 0.6609 0.2934 0.0658
C122_16 C 0.58960(12) 0.47207(11) 0.10372(10)
C123_16 C 0.52793(11) 0.41040(12) 0.39628(10)
C124_15 C 0.72207(11) 0.39628(10) 0.33960(12)
C125_14 C 0.64628(10) 0.27793(11) 0.08960(12)
H72_16 H 0.5925 0.4811 0.0922
H73_16 H 0.5189 0.4075 0.4078
H74_15 H 0.7311 0.4078 0.3425
H75_14 H 0.6578 0.2689 0.0925
C129_13 C 0.63830(12) 0.23302(11) 0.16723(11)
C130_13 C 0.58277(11) 0.11170(12) 0.23302(11)
C131_13 C 0.51698(11) 0.16723(11) 0.11170(12)
H79_13 H 0.6487 0.2436 0.1661
H80_13 H 0.5839 0.1013 0.2436
H81_13 H 0.5064 0.1661 0.1013
C134_13 C 0.63764(15) 0.22114(14) 0.18515(12)
C135_13 C 0.56485(12) 0.11236(15) 0.22114(14)
C136_13 C 0.52886(14) 0.18515(12) 0.11236(15)
H84_13 H 0.6473 0.2237 0.1962
H85_13 H 0.5538 0.1027 0.2237
H86_13 H 0.5263 0.1962 0.1027
C139_13 C 0.62281(13) 0.20545(13) 0.18690(12)
C140_13 C 0.56310(12) 0.12719(13) 0.20545(13)
C141_13 C 0.54455(13) 0.18690(12) 0.12719(13)
H89_13 H 0.6220 0.1970 0.1991
H90_13 H 0.5509 0.1280 0.1970
H91_13 H 0.5530 0.1991 0.1280
C144_13 C 0.60897(11) 0.20234(10) 0.17016(10)
C145_13 C 0.57984(10) 0.14103(11) 0.20234(10)
C146_13 C 0.54766(10) 0.17016(10) 0.14103(11)
C149_13 C 0.61041(9) 0.21526(8) 0.15283(9)
C150_13 C 0.59717(9) 0.13959(9) 0.21526(8)
C151_13 C 0.53474(8) 0.15283(9) 0.13959(9)
H94_13 H 0.6007 0.2134 0.1417
H95_13 H 0.6083 0.1493 0.2134
H96_13 H 0.5366 0.1417 0.1493
C154_13 C 0.59264(10) 0.18605(10) 0.17111(10)
C155_13 C 0.56395(10) 0.17111(10) 0.15736(10)
C156_13 C 0.57889(10) 0.15736(10) 0.18605(10)
Co7_19 Co 0.629081(12) 0.379081(12) 1.0000
Co4_15 Co 0.0000 0.879081(12) 0.629081(12)
S7_14 S 0.04384(3) 0.83635(3) 0.67256(3)
S9_15 S 0.00415(4) 0.54936(4) 0.63094(8)
S10_15 S 0.00415(4) 0.70064(4) 0.61906(8)
N15_14 N 0.02418(6) 0.86307(7) 0.64419(7)
N27_14 N 0.01484(7) 0.90974(7) 0.63395(6)
N34_14 N 0.01601(7) 0.87609(7) 0.59893(7)
N62_15 N 0.01961(7) 0.62510(8) 0.65106(8)
N63_15 N 0.01961(7) 0.62490(8) 0.59894(8)
C31_14 C 0.03286(8) 0.85203(9) 0.65578(8)
C33_15 C 0.00110(9) 0.57463(12) 0.62880(12)
C34_15 C 0.00110(9) 0.67537(12) 0.62120(12)
Co1_15 Co 0.879081(12) 0.7500 0.620919(12)
S1_17 S 0.83635(3) 0.70616(3) 0.57744(3)
S2_17 S 0.74585(4) 0.61906(8) 0.54936(4)
N1_17 N 0.86307(7) 0.72582(6) 0.60581(7)
N2_17 N 0.75105(7) 0.62261(7) 0.59248(8)
N3_13 N 0.84026(7) 0.63395(6) 0.73516(7)
N4_14 N 0.87609(7) 0.73399(7) 0.65107(7)
N5_14 N 0.84011(7) 0.67959(7) 0.68919(7)
N6_14 N 0.83074(7) 0.68836(7) 0.65420(7)
N7_14 N 0.81193(7) 0.66194(8) 0.67257(7)
N8_14 N 0.77619(7) 0.64869(8) 0.62099(7)
C1_17 C 0.85203(9) 0.71714(8) 0.59422(8)
C2_17 C 0.74890(9) 0.62120(12) 0.57463(12)
C3_14 C 0.82240(11) 0.62342(10) 0.73888(10)
H1_14 H 0.8223 0.6133 0.7498
C4_14 C 0.80414(13) 0.62654(12) 0.72763(11)
H2_14 H 0.7917 0.6193 0.7314
C5_14 C 0.80417(12) 0.64020(10) 0.71088(10)
H3_14 H 0.7921 0.6420 0.7024
C6_14 C 0.82250(9) 0.65120(8) 0.70683(9)
C7_14 C 0.83977(8) 0.64790(7) 0.71957(8)
H4_14 H 0.8520 0.6561 0.7171
C8_14 C 0.88981(12) 0.73583(11) 0.66685(11)
H5_14 H 0.9006 0.7461 0.6657
C9_14 C 0.88915(13) 0.72360(13) 0.68485(12)
H6_14 H 0.8993 0.7255 0.6956
C10_14 C 0.87376(11) 0.70877(12) 0.68692(11)
H7_14 H 0.8731 0.7000 0.6990
C11_14 C 0.85896(9) 0.70684(9) 0.67084(9)
C12_14 C 0.86087(8) 0.71959(8) 0.65339(8)
H8_14 H 0.8509 0.7181 0.6424
C13_14 C 0.84222(8) 0.69082(8) 0.67172(8)
C14_14 C 0.82477(8) 0.66525(9) 0.68865(8)
C15_14 C 0.81574(8) 0.67374(9) 0.65556(8)
C16_14 C 0.78852(8) 0.65339(9) 0.63710(8)
H9_14 H 0.7874 0.6451 0.6495
C17_14 C 0.80301(9) 0.66970(10) 0.63688(9)
C18_14 C 0.80496(12) 0.68150(12) 0.61869(11)
H10_14 H 0.8148 0.6927 0.6178
C19_14 C 0.79226(13) 0.67655(14) 0.60183(12)
H11_14 H 0.7934 0.6842 0.5891
C20_14 C 0.77793(11) 0.66040(12) 0.60372(10)
H12_14 H 0.7689 0.6575 0.5922
Co3_12 Co 0.870919(12) 0.620919(12) 0.5000
Co4_16 Co 1.0000 0.879081(12) 0.629081(12)
Co5_11 Co 0.870919(12) 0.629081(12) 0.7500
Co7_20 Co 0.879081(12) 0.5000 0.629081(12)
Co8_17 Co 0.7500 0.629081(12) 0.370919(12)
Co9_15 Co 0.997768(14) 0.6250 0.6250
Co10_14 Co 0.8750 0.8750 0.502232(14)
S3_17 S 0.92256(3) 0.79384(3) 0.66365(3)
S4_14 S 0.91365(3) 0.57744(3) 0.54384(3)
S5_14 S 0.82744(3) 0.66365(3) 0.45616(3)
S6_14 S 0.95616(3) 0.92256(3) 0.58635(3)
S8_17 S 0.74585(4) 0.63094(8) 0.70064(4)
S11_14 S 0.86906(8) 0.95064(4) 0.49585(4)
S12_14 S 0.88094(8) 0.79936(4) 0.49585(4)
N11_17 N 0.89419(7) 0.77418(6) 0.63693(7)
N12_14 N 0.88693(7) 0.60581(7) 0.52418(6)
N13_14 N 0.85581(7) 0.63693(7) 0.47582(6)
N14_14 N 0.97582(6) 0.89419(7) 0.61307(7)
N16_17 N 0.75105(7) 0.62739(7) 0.65752(8)
N17_15 N 0.99895(7) 0.59248(8) 0.62739(7)
N18_15 N 0.99895(7) 0.65752(8) 0.62261(7)
N19_14 N 0.87261(7) 0.90752(8) 0.50105(7)
N20_14 N 0.87739(7) 0.84248(8) 0.50105(7)
N21_17 N 0.90974(7) 0.73516(7) 0.61605(6)
N22_17 N 0.88395(6) 0.76484(7) 0.59026(7)
N23_11 N 0.76484(7) 0.86605(6) 0.65974(7)
N24_12 N 0.84026(7) 0.61605(6) 0.51484(7)
N25_12 N 0.86605(6) 0.59026(7) 0.48516(7)
N26_11 N 0.98516(7) 0.88395(6) 0.65974(7)
N28_14 N 0.87391(7) 0.65107(7) 0.51601(7)
N29_14 N 0.98399(7) 0.84893(7) 0.62609(7)
N30_16 N 0.84893(7) 0.76601(7) 0.62391(7)
N31_15 N 0.87609(7) 0.51601(7) 0.59893(7)
N32_13 N 0.76601(7) 0.62609(7) 0.40107(7)
N33_14 N 0.90107(7) 0.62391(7) 0.48399(7)
N35_17 N 0.90989(7) 0.68919(7) 0.57041(7)
N36_17 N 0.92959(7) 0.81081(7) 0.59011(7)
N37_16 N 0.81081(7) 0.82041(7) 0.65989(7)
N38_15 N 0.84011(7) 0.57041(7) 0.56081(7)
N39_13 N 0.82041(7) 0.59011(7) 0.43919(7)
N40_17 N 0.91926(7) 0.65420(7) 0.56164(7)
N41_17 N 0.93836(7) 0.84580(7) 0.58074(7)
N42_16 N 0.84580(7) 0.81164(7) 0.66926(7)
N43_15 N 0.83074(7) 0.56164(7) 0.59580(7)
N44_13 N 0.81164(7) 0.58074(7) 0.40420(7)
N45_17 N 0.93807(7) 0.67257(7) 0.58806(8)
N46_17 N 0.91194(8) 0.82743(7) 0.56193(7)
N47_16 N 0.82743(7) 0.83806(8) 0.68807(7)
N48_15 N 0.81193(7) 0.58806(8) 0.57743(7)
N49_13 N 0.83806(8) 0.56193(7) 0.42257(7)
N50_15 N 0.97381(7) 0.62099(7) 0.60131(8)
N51_14 N 0.89869(8) 0.87901(7) 0.52619(7)
N52_16 N 0.87901(7) 0.85131(8) 0.72381(7)
N53_15 N 0.77619(7) 0.60131(8) 0.62901(7)
N54_13 N 0.85131(8) 0.52619(7) 0.37099(7)
N55_15 N 0.97381(7) 0.62901(7) 0.64869(8)
N56_14 N 0.85131(8) 0.87099(7) 0.52619(7)
N64_14 N 0.84894(8) 0.87490(8) 0.48039(7)
N65_14 N 0.90106(8) 0.87510(8) 0.48039(7)
C27_17 C 0.90578(8) 0.78286(8) 0.64797(9)
C28_14 C 0.89797(9) 0.59422(8) 0.53286(8)
C29_14 C 0.84422(8) 0.64797(9) 0.46714(8)
C30_14 C 0.96714(8) 0.90578(8) 0.60203(9)
C32_17 C 0.74890(9) 0.62880(12) 0.67537(12)
C35_14 C 0.87120(12) 0.92537(12) 0.49890(9)
C36_14 C 0.87880(12) 0.82463(12) 0.49890(9)
C37_17 C 0.92760(11) 0.73888(10) 0.62658(10)
C38_17 C 0.87342(10) 0.76112(10) 0.57240(11)
C39_16 C 0.76112(10) 0.87658(10) 0.67760(11)
C40_15 C 0.82240(11) 0.62658(10) 0.51112(10)
C41_13 C 0.87658(10) 0.57240(11) 0.48888(10)
H17_17 H 0.9277 0.7498 0.6367
H18_17 H 0.8633 0.7502 0.5723
H19_16 H 0.7502 0.8867 0.6777
H20_15 H 0.8223 0.6367 0.5002
H21_13 H 0.8867 0.5723 0.4998
C42_17 C 0.94586(13) 0.72763(11) 0.62346(12)
C43_17 C 0.87654(12) 0.77237(11) 0.55414(13)
C44_16 C 0.77237(11) 0.87346(12) 0.69586(13)
C45_15 C 0.80414(13) 0.62346(12) 0.52237(11)
C46_13 C 0.87346(12) 0.55414(13) 0.47763(11)
H22_17 H 0.9583 0.7314 0.6307
H23_17 H 0.8693 0.7686 0.5417
H24_16 H 0.7686 0.8807 0.7083
H25_15 H 0.7917 0.6307 0.5186
H26_13 H 0.8807 0.5417 0.4814
C47_17 C 0.94583(12) 0.71088(10) 0.60980(10)
C48_17 C 0.89020(10) 0.78912(10) 0.55417(12)
C49_16 C 0.78912(10) 0.85980(10) 0.69583(12)
C50_15 C 0.80417(12) 0.60980(10) 0.53912(10)
C51_13 C 0.85980(10) 0.55417(12) 0.46088(10)
H27_17 H 0.9579 0.7024 0.6080
H28_17 H 0.8920 0.7976 0.5421
H29_16 H 0.7976 0.8580 0.7079
H30_15 H 0.7921 0.6080 0.5476
H31_13 H 0.8580 0.5421 0.4524
C52_17 C 0.92750(9) 0.70683(9) 0.59880(8)
C53_17 C 0.90120(8) 0.79317(9) 0.57250(9)
C54_16 C 0.79317(9) 0.84880(8) 0.67750(9)
C55_15 C 0.82250(9) 0.59880(8) 0.54317(9)
C56_13 C 0.84880(8) 0.57250(9) 0.45683(9)
C57_17 C 0.91023(8) 0.71957(8) 0.60210(7)
C58_17 C 0.89790(7) 0.78043(8) 0.58977(8)
C59_16 C 0.78043(8) 0.85210(7) 0.66023(8)
C60_15 C 0.83977(8) 0.60210(7) 0.53043(8)
C61_13 C 0.85210(7) 0.58977(8) 0.46957(8)
H32_17 H 0.8980 0.7171 0.5939
H33_17 H 0.9061 0.7829 0.6020
H34_16 H 0.7829 0.8439 0.6480
H35_15 H 0.8520 0.5939 0.5329
H36_13 H 0.8439 0.6020 0.4671
C62_17 C 0.86019(12) 0.66685(11) 0.51417(11)
C63_17 C 0.98583(11) 0.83315(11) 0.63981(12)
C64_16 C 0.83315(11) 0.76417(11) 0.61019(12)
C65_15 C 0.88981(12) 0.51417(11) 0.58315(11)
C66_13 C 0.76417(11) 0.63981(12) 0.41685(11)
H37_17 H 0.8494 0.6657 0.5039
H38_17 H 0.9961 0.8343 0.6506
H39_16 H 0.8343 0.7539 0.5994
H40_15 H 0.9006 0.5039 0.5843
H41_13 H 0.7539 0.6506 0.4157
C67_17 C 0.86085(13) 0.68485(12) 0.52640(13)
C68_17 C 0.97360(13) 0.81515(12) 0.63915(13)
C69_16 C 0.81515(12) 0.77640(13) 0.61085(13)
C70_15 C 0.88915(13) 0.52640(13) 0.56515(12)
C71_13 C 0.77640(13) 0.63915(13) 0.43485(12)
H42_17 H 0.8507 0.6956 0.5245
H43_17 H 0.9755 0.8044 0.6493
H44_16 H 0.8044 0.7745 0.6007
H45_15 H 0.8993 0.5245 0.5544
H46_13 H 0.7745 0.6493 0.4456
C72_17 C 0.87624(11) 0.68692(11) 0.54123(12)
C73_17 C 0.95877(12) 0.81308(11) 0.62376(11)
C74_16 C 0.81308(11) 0.79123(12) 0.62624(11)
C75_15 C 0.87376(11) 0.54123(12) 0.56308(11)
C76_13 C 0.79123(12) 0.62376(11) 0.43692(11)
H47_17 H 0.8769 0.6990 0.5500
H48_17 H 0.9500 0.8010 0.6231
H49_16 H 0.8010 0.8000 0.6269
H50_15 H 0.8731 0.5500 0.5510
H51_13 H 0.8000 0.6231 0.4490
C77_17 C 0.89104(9) 0.67084(9) 0.54316(9)
C78_17 C 0.95684(9) 0.82916(9) 0.60896(9)
C79_16 C 0.82916(9) 0.79316(9) 0.64104(9)
C80_15 C 0.85896(9) 0.54316(9) 0.57916(9)
C81_13 C 0.79316(9) 0.60896(9) 0.42084(9)
C82_17 C 0.88913(8) 0.65339(8) 0.53041(8)
C83_17 C 0.96959(8) 0.84661(8) 0.61087(8)
C84_16 C 0.84661(8) 0.78041(8) 0.63913(8)
C85_15 C 0.86087(8) 0.53041(8) 0.59661(8)
C86_13 C 0.78041(8) 0.61087(8) 0.40339(8)
H52_17 H 0.8991 0.6424 0.5319
H53_17 H 0.9681 0.8576 0.6009
H54_16 H 0.8576 0.7819 0.6491
H55_15 H 0.8509 0.5319 0.6076
H56_13 H 0.7819 0.6009 0.3924
C87_17 C 0.90778(8) 0.67172(8) 0.55918(8)
C88_17 C 0.94082(8) 0.82828(8) 0.59222(8)
C89_16 C 0.82828(8) 0.80918(8) 0.65778(8)
C90_15 C 0.84222(8) 0.55918(8) 0.57828(8)
C91_13 C 0.80918(8) 0.59222(8) 0.42172(8)
C92_17 C 0.92523(8) 0.68865(8) 0.58475(9)
C93_17 C 0.91525(9) 0.81135(8) 0.57477(8)
C94_16 C 0.81135(8) 0.83475(9) 0.67523(8)
C95_15 C 0.82477(8) 0.58475(9) 0.56135(8)
C96_13 C 0.83475(9) 0.57477(8) 0.43865(8)
C97_17 C 0.93426(8) 0.65556(8) 0.57626(9)
C98_17 C 0.92374(9) 0.84444(8) 0.56574(8)
C99_16 C 0.84444(8) 0.82626(9) 0.68426(8)
C100_15 C 0.81574(8) 0.57626(9) 0.59444(8)
C101_13 C 0.82626(9) 0.56574(8) 0.40556(8)
C102_17 C 0.96148(8) 0.63710(8) 0.59661(9)
C103_17 C 0.90339(9) 0.86290(8) 0.53852(8)
C104_16 C 0.86290(8) 0.84661(9) 0.71148(8)
C105_15 C 0.78852(8) 0.59661(9) 0.61290(8)
C106_13 C 0.84661(9) 0.53852(8) 0.38710(8)
H57_17 H 0.9626 0.6495 0.6049
H58_17 H 0.8951 0.8505 0.5374
H59_16 H 0.8505 0.8549 0.7126
H60_15 H 0.7874 0.6049 0.6005
H61_13 H 0.8549 0.5374 0.3995
C107_17 C 0.94699(9) 0.63688(9) 0.58030(10)
C108_17 C 0.91970(10) 0.86312(9) 0.55301(9)
C109_16 C 0.86312(9) 0.83030(10) 0.69699(9)
C110_15 C 0.80301(9) 0.58030(10) 0.61312(9)
C111_13 C 0.83030(10) 0.55301(9) 0.38688(9)
C112_17 C 0.94504(12) 0.61869(11) 0.56850(12)
C113_17 C 0.93150(12) 0.88131(11) 0.55496(12)
C114_16 C 0.88131(11) 0.81850(12) 0.69504(12)
C115_15 C 0.80496(12) 0.56850(12) 0.63131(11)
C116_13 C 0.81850(12) 0.55496(12) 0.36869(11)
H62_17 H 0.9352 0.6178 0.5573
H63_17 H 0.9427 0.8822 0.5648
H64_16 H 0.8822 0.8073 0.6852
H65_15 H 0.8148 0.5573 0.6322
H66_13 H 0.8073 0.5648 0.3678
C117_17 C 0.95774(13) 0.60183(12) 0.57345(14)
C118_17 C 0.92655(14) 0.89817(12) 0.54226(13)
C119_16 C 0.89817(12) 0.82345(14) 0.70774(13)
C120_15 C 0.79226(13) 0.57345(14) 0.64817(12)
C121_13 C 0.82345(14) 0.54226(13) 0.35183(12)
H67_17 H 0.9566 0.5891 0.5658
H68_17 H 0.9342 0.9109 0.5434
H69_16 H 0.9109 0.8158 0.7066
H70_15 H 0.7934 0.5658 0.6609
H71_13 H 0.8158 0.5434 0.3391
C122_17 C 0.97207(11) 0.60372(10) 0.58960(12)
C123_17 C 0.91040(12) 0.89628(10) 0.52793(11)
C124_16 C 0.89628(10) 0.83960(12) 0.72207(11)
C125_15 C 0.77793(11) 0.58960(12) 0.64628(10)
C126_13 C 0.83960(12) 0.52793(11) 0.35372(10)
H72_17 H 0.9811 0.5922 0.5925
H73_17 H 0.9075 0.9078 0.5189
H74_16 H 0.9078 0.8425 0.7311
H75_15 H 0.7689 0.5925 0.6578
H76_13 H 0.8425 0.5189 0.3422
S2_18 S 0.00415(4) 0.61906(8) 0.20064(4)
C2_18 C 0.00110(9) 0.62120(12) 0.17537(12)
S8_18 S 0.00415(4) 0.63094(8) 0.04936(4)
C32_18 C 0.00110(9) 0.62880(12) 0.07463(12)
Co1_16 Co 0.870919(12) 0.7500 0.129081(12)
S1_18 S 0.91365(3) 0.70616(3) 0.17256(3)
N1_18 N 0.88693(7) 0.72582(6) 0.14419(7)
N2_18 N 0.99895(7) 0.62261(7) 0.15752(8)
N3_14 N 0.90974(7) 0.63395(6) 0.01484(7)
N4_15 N 0.87391(7) 0.73399(7) 0.09893(7)
N5_15 N 0.90989(7) 0.67959(7) 0.06081(7)
N6_15 N 0.91926(7) 0.68836(7) 0.09580(7)
N7_15 N 0.93807(7) 0.66194(8) 0.07743(7)
N8_15 N 0.97381(7) 0.64869(8) 0.12901(7)
C1_18 C 0.89797(9) 0.71714(8) 0.15578(8)
C3_15 C 0.92760(11) 0.62342(10) 0.01112(10)
H1_15 H 0.9277 0.6133 0.0002
C4_15 C 0.94586(13) 0.62654(12) 0.02237(11)
H2_15 H 0.9583 0.6193 0.0186
C5_15 C 0.94583(12) 0.64020(10) 0.03912(10)
H3_15 H 0.9579 0.6420 0.0476
C6_15 C 0.92750(9) 0.65120(8) 0.04317(9)
C7_15 C 0.91023(8) 0.64790(7) 0.03043(8)
H4_15 H 0.8980 0.6561 0.0329
C8_15 C 0.86019(12) 0.73583(11) 0.08315(11)
H5_15 H 0.8494 0.7461 0.0843
C9_15 C 0.86085(13) 0.72360(13) 0.06515(12)
H6_15 H 0.8507 0.7255 0.0544
C10_15 C 0.87624(11) 0.70877(12) 0.06308(11)
H7_15 H 0.8769 0.7000 0.0510
C11_15 C 0.89104(9) 0.70684(9) 0.07916(9)
C12_15 C 0.88913(8) 0.71959(8) 0.09661(8)
H8_15 H 0.8991 0.7181 0.1076
C13_15 C 0.90778(8) 0.69082(8) 0.07828(8)
C14_15 C 0.92523(8) 0.66525(9) 0.06135(8)
C15_15 C 0.93426(8) 0.67374(9) 0.09444(8)
C16_15 C 0.96148(8) 0.65339(9) 0.11290(8)
H9_15 H 0.9626 0.6451 0.1005
C17_15 C 0.94699(9) 0.66970(10) 0.11312(9)
C18_15 C 0.94504(12) 0.68150(12) 0.13131(11)
H10_15 H 0.9352 0.6927 0.1322
C19_15 C 0.95774(13) 0.67655(14) 0.14817(12)
H11_15 H 0.9566 0.6842 0.1609
C20_15 C 0.97207(11) 0.66040(12) 0.14628(10)
H12_15 H 0.9811 0.6575 0.1578
Co3_13 Co 0.879081(12) 0.620919(12) 0.2500
Co5_12 Co 0.879081(12) 0.629081(12) 0.0000
Co9_16 Co 0.752232(14) 0.6250 0.1250
S3_18 S 0.82744(3) 0.79384(3) 0.08635(3)
S4_15 S 0.83635(3) 0.57744(3) 0.20616(3)
S5_15 S 0.92256(3) 0.66365(3) 0.29384(3)
S6_15 S 0.79384(3) 0.92256(3) 0.16365(3)
S7_15 S 0.70616(3) 0.83635(3) 0.07744(3)
S9_16 S 0.74585(4) 0.54936(4) 0.11906(8)
S10_16 S 0.74585(4) 0.70064(4) 0.13094(8)
N11_18 N 0.85581(7) 0.77418(6) 0.11307(7)
N12_15 N 0.86307(7) 0.60581(7) 0.22582(6)
N13_15 N 0.89419(7) 0.63693(7) 0.27418(6)
N14_15 N 0.77418(6) 0.89419(7) 0.13693(7)
N15_15 N 0.72582(6) 0.86307(7) 0.10581(7)
N16_18 N 0.99895(7) 0.62739(7) 0.09248(8)
N17_16 N 0.75105(7) 0.59248(8) 0.12261(7)
N18_16 N 0.75105(7) 0.65752(8) 0.12739(7)
N21_18 N 0.84026(7) 0.73516(7) 0.13395(6)
N22_18 N 0.86605(6) 0.76484(7) 0.15974(7)
N24_13 N 0.90974(7) 0.61605(6) 0.23516(7)
N25_13 N 0.88395(6) 0.59026(7) 0.26484(7)
N28_15 N 0.87609(7) 0.65107(7) 0.23399(7)
N29_15 N 0.76601(7) 0.84893(7) 0.12391(7)
N30_17 N 0.90107(7) 0.76601(7) 0.12609(7)
N31_16 N 0.87391(7) 0.51601(7) 0.15107(7)
N32_14 N 0.98399(7) 0.62609(7) 0.34893(7)
N33_15 N 0.84893(7) 0.62391(7) 0.26601(7)
N34_15 N 0.73399(7) 0.87609(7) 0.15107(7)
N35_18 N 0.84011(7) 0.68919(7) 0.17959(7)
N36_18 N 0.82041(7) 0.81081(7) 0.15989(7)
N37_17 N 0.93919(7) 0.82041(7) 0.09011(7)
N38_16 N 0.90989(7) 0.57041(7) 0.18919(7)
N39_14 N 0.92959(7) 0.59011(7) 0.31081(7)
N40_18 N 0.83074(7) 0.65420(7) 0.18836(7)
N41_18 N 0.81164(7) 0.84580(7) 0.16926(7)
N42_17 N 0.90420(7) 0.81164(7) 0.08074(7)
N43_16 N 0.91926(7) 0.56164(7) 0.15420(7)
N44_14 N 0.93836(7) 0.58074(7) 0.34580(7)
N45_18 N 0.81193(7) 0.67257(7) 0.16194(8)
N46_18 N 0.83806(8) 0.82743(7) 0.18807(7)
N47_17 N 0.92257(7) 0.83806(8) 0.06193(7)
N48_16 N 0.93807(7) 0.58806(8) 0.17257(7)
N49_14 N 0.91194(8) 0.56193(7) 0.32743(7)
N50_16 N 0.77619(7) 0.62099(7) 0.14869(8)
N52_17 N 0.87099(7) 0.85131(8) 0.02619(7)
N53_16 N 0.97381(7) 0.60131(8) 0.12099(7)
N54_14 N 0.89869(8) 0.52619(7) 0.37901(7)
N55_16 N 0.77619(7) 0.62901(7) 0.10131(8)
N62_16 N 0.73039(7) 0.62510(8) 0.09894(8)
N63_16 N 0.73039(7) 0.62490(8) 0.15106(8)
C27_18 C 0.84422(8) 0.78286(8) 0.10203(9)
C28_15 C 0.85203(9) 0.59422(8) 0.21714(8)
C29_15 C 0.90578(8) 0.64797(9) 0.28286(8)
C30_15 C 0.78286(8) 0.90578(8) 0.14797(9)
C31_15 C 0.71714(8) 0.85203(9) 0.09422(8)
C33_16 C 0.74890(9) 0.57463(12) 0.12120(12)
C34_16 C 0.74890(9) 0.67537(12) 0.12880(12)
C37_18 C 0.82240(11) 0.73888(10) 0.12342(10)
C38_18 C 0.87658(10) 0.76112(10) 0.17760(11)
C39_17 C 0.98888(10) 0.87658(10) 0.07240(11)
C40_16 C 0.92760(11) 0.62658(10) 0.23888(10)
C41_14 C 0.87342(10) 0.57240(11) 0.26112(10)
H17_18 H 0.8223 0.7498 0.1133
H18_18 H 0.8867 0.7502 0.1777
H19_17 H 0.9998 0.8867 0.0723
H20_16 H 0.9277 0.6367 0.2498
H21_14 H 0.8633 0.5723 0.2502
C42_18 C 0.80414(13) 0.72763(11) 0.12654(12)
C43_18 C 0.87346(12) 0.77237(11) 0.19586(13)
C44_17 C 0.97763(11) 0.87346(12) 0.05414(13)
C45_16 C 0.94586(13) 0.62346(12) 0.22763(11)
C46_14 C 0.87654(12) 0.55414(13) 0.27237(11)
H22_18 H 0.7917 0.7314 0.1193
H23_18 H 0.8807 0.7686 0.2083
H24_17 H 0.9814 0.8807 0.0417
H25_16 H 0.9583 0.6307 0.2314
H26_14 H 0.8693 0.5417 0.2686
C47_18 C 0.80417(12) 0.71088(10) 0.14020(10)
C48_18 C 0.85980(10) 0.78912(10) 0.19583(12)
C49_17 C 0.96088(10) 0.85980(10) 0.05417(12)
C50_16 C 0.94583(12) 0.60980(10) 0.21088(10)
C51_14 C 0.89020(10) 0.55417(12) 0.28912(10)
H27_18 H 0.7921 0.7024 0.1420
H28_18 H 0.8580 0.7976 0.2079
H29_17 H 0.9524 0.8580 0.0421
H30_16 H 0.9579 0.6080 0.2024
H31_14 H 0.8920 0.5421 0.2976
C52_18 C 0.82250(9) 0.70683(9) 0.15120(8)
C53_18 C 0.84880(8) 0.79317(9) 0.17750(9)
C54_17 C 0.95683(9) 0.84880(8) 0.07250(9)
C55_16 C 0.92750(9) 0.59880(8) 0.20683(9)
C56_14 C 0.90120(8) 0.57250(9) 0.29317(9)
C57_18 C 0.83977(8) 0.71957(8) 0.14790(7)
C58_18 C 0.85210(7) 0.78043(8) 0.16023(8)
C59_17 C 0.96957(8) 0.85210(7) 0.08977(8)
C60_16 C 0.91023(8) 0.60210(7) 0.21957(8)
C61_14 C 0.89790(7) 0.58977(8) 0.28043(8)
H32_18 H 0.8520 0.7171 0.1561
H33_18 H 0.8439 0.7829 0.1480
H34_17 H 0.9671 0.8439 0.1020
H35_16 H 0.8980 0.5939 0.2171
H36_14 H 0.9061 0.6020 0.2829
C62_18 C 0.88981(12) 0.66685(11) 0.23583(11)
C63_18 C 0.76417(11) 0.83315(11) 0.11019(12)
C64_17 C 0.91685(11) 0.76417(11) 0.13981(12)
C65_16 C 0.86019(12) 0.51417(11) 0.16685(11)
C66_14 C 0.98583(11) 0.63981(12) 0.33315(11)
H37_18 H 0.9006 0.6657 0.2461
H38_18 H 0.7539 0.8343 0.0994
H39_17 H 0.9157 0.7539 0.1506
H40_16 H 0.8494 0.5039 0.1657
H41_14 H 0.9961 0.6506 0.3343
C67_18 C 0.88915(13) 0.68485(12) 0.22360(13)
C68_18 C 0.77640(13) 0.81515(12) 0.11085(13)
C69_17 C 0.93485(12) 0.77640(13) 0.13915(13)
C70_16 C 0.86085(13) 0.52640(13) 0.18485(12)
C71_14 C 0.97360(13) 0.63915(13) 0.31515(12)
H42_18 H 0.8993 0.6956 0.2255
H43_18 H 0.7745 0.8044 0.1007
H44_17 H 0.9456 0.7745 0.1493
H45_16 H 0.8507 0.5245 0.1956
H46_14 H 0.9755 0.6493 0.3044
C72_18 C 0.87376(11) 0.68692(11) 0.20877(12)
C73_18 C 0.79123(12) 0.81308(11) 0.12624(11)
C74_17 C 0.93692(11) 0.79123(12) 0.12376(11)
C75_16 C 0.87624(11) 0.54123(12) 0.18692(11)
C76_14 C 0.95877(12) 0.62376(11) 0.31308(11)
H47_18 H 0.8731 0.6990 0.2000
H48_18 H 0.8000 0.8010 0.1269
H49_17 H 0.9490 0.8000 0.1231
H50_16 H 0.8769 0.5500 0.1990
H51_14 H 0.9500 0.6231 0.3010
C77_18 C 0.85896(9) 0.67084(9) 0.20684(9)
C78_18 C 0.79316(9) 0.82916(9) 0.14104(9)
C79_17 C 0.92084(9) 0.79316(9) 0.10896(9)
C80_16 C 0.89104(9) 0.54316(9) 0.17084(9)
C81_14 C 0.95684(9) 0.60896(9) 0.32916(9)
C82_18 C 0.86087(8) 0.65339(8) 0.21959(8)
C83_18 C 0.78041(8) 0.84661(8) 0.13913(8)
C84_17 C 0.90339(8) 0.78041(8) 0.11087(8)
C85_16 C 0.88913(8) 0.53041(8) 0.15339(8)
C86_14 C 0.96959(8) 0.61087(8) 0.34661(8)
H52_18 H 0.8509 0.6424 0.2181
H53_18 H 0.7819 0.8576 0.1491
H54_17 H 0.8924 0.7819 0.1009
H55_16 H 0.8991 0.5319 0.1424
H56_14 H 0.9681 0.6009 0.3576
C87_18 C 0.84222(8) 0.67172(8) 0.19082(8)
C88_18 C 0.80918(8) 0.82828(8) 0.15778(8)
C89_17 C 0.92172(8) 0.80918(8) 0.09222(8)
C90_16 C 0.90778(8) 0.55918(8) 0.17172(8)
C91_14 C 0.94082(8) 0.59222(8) 0.32828(8)
C92_18 C 0.82477(8) 0.68865(8) 0.16525(9)
C93_18 C 0.83475(9) 0.81135(8) 0.17523(8)
C94_17 C 0.93865(8) 0.83475(9) 0.07477(8)
C95_16 C 0.92523(8) 0.58475(9) 0.18865(8)
C96_14 C 0.91525(9) 0.57477(8) 0.31135(8)
C97_18 C 0.81574(8) 0.65556(8) 0.17374(9)
C98_18 C 0.82626(9) 0.84444(8) 0.18426(8)
C99_17 C 0.90556(8) 0.82626(9) 0.06574(8)
C100_16 C 0.93426(8) 0.57626(9) 0.15556(8)
C101_14 C 0.92374(9) 0.56574(8) 0.34444(8)
C102_18 C 0.78852(8) 0.63710(8) 0.15339(9)
C103_18 C 0.84661(9) 0.86290(8) 0.21148(8)
C104_17 C 0.88710(8) 0.84661(9) 0.03852(8)
C105_16 C 0.96148(8) 0.59661(9) 0.13710(8)
C106_14 C 0.90339(9) 0.53852(8) 0.36290(8)
H57_18 H 0.7874 0.6495 0.1451
H58_18 H 0.8549 0.8505 0.2126
H59_17 H 0.8995 0.8549 0.0374
H60_16 H 0.9626 0.6049 0.1495
H61_14 H 0.8951 0.5374 0.3505
C107_18 C 0.80301(9) 0.63688(9) 0.16970(10)
C108_18 C 0.83030(10) 0.86312(9) 0.19699(9)
C109_17 C 0.88688(9) 0.83030(10) 0.05301(9)
C110_16 C 0.94699(9) 0.58030(10) 0.13688(9)
C111_14 C 0.91970(10) 0.55301(9) 0.36312(9)
C112_18 C 0.80496(12) 0.61869(11) 0.18150(12)
C113_18 C 0.81850(12) 0.88131(11) 0.19504(12)
C114_17 C 0.86869(11) 0.81850(12) 0.05496(12)
C115_16 C 0.94504(12) 0.56850(12) 0.11869(11)
C116_14 C 0.93150(12) 0.55496(12) 0.38131(11)
H62_18 H 0.8148 0.6178 0.1927
H63_18 H 0.8073 0.8822 0.1852
H64_17 H 0.8678 0.8073 0.0648
H65_16 H 0.9352 0.5573 0.1178
H66_14 H 0.9427 0.5648 0.3822
C117_18 C 0.79226(13) 0.60183(12) 0.17655(14)
C118_18 C 0.82345(14) 0.89817(12) 0.20774(13)
C119_17 C 0.85183(12) 0.82345(14) 0.04226(13)
C120_16 C 0.95774(13) 0.57345(14) 0.10183(12)
C121_14 C 0.92655(14) 0.54226(13) 0.39817(12)
H67_18 H 0.7934 0.5891 0.1842
H68_18 H 0.8158 0.9109 0.2066
H69_17 H 0.8391 0.8158 0.0434
H70_16 H 0.9566 0.5658 0.0891
H71_14 H 0.9342 0.5434 0.4109
C122_18 C 0.77793(11) 0.60372(10) 0.16040(12)
C123_18 C 0.83960(12) 0.89628(10) 0.22207(11)
C124_17 C 0.85372(10) 0.83960(12) 0.02793(11)
C125_16 C 0.97207(11) 0.58960(12) 0.10372(10)
C126_14 C 0.91040(12) 0.52793(11) 0.39628(10)
H72_18 H 0.7689 0.5922 0.1575
H73_18 H 0.8425 0.9078 0.2311
H74_17 H 0.8422 0.8425 0.0189
H75_16 H 0.9811 0.5925 0.0922
H76_14 H 0.9075 0.5189 0.4078
Co5_13 Co 0.879081(12) 0.629081(12) 1.0000
S1_19 S 0.08635(3) 0.82744(3) 0.79384(3)
N1_19 N 0.11307(7) 0.85581(7) 0.77418(6)
N2_19 N 0.00105(7) 0.84248(8) 0.87739(7)
C1_19 C 0.10203(9) 0.84422(8) 0.78286(8)
Co4_17 Co 0.2500 0.879081(12) 0.620919(12)
Co9_17 Co 0.247768(14) 0.8750 0.8750
Co10_15 Co 0.1250 0.752232(14) 0.6250
S3_19 S 0.17256(3) 0.91365(3) 0.70616(3)
S6_16 S 0.20616(3) 0.83635(3) 0.57744(3)
S7_16 S 0.29384(3) 0.92256(3) 0.66365(3)
S9_17 S 0.25415(4) 0.88094(8) 0.95064(4)
S10_17 S 0.25415(4) 0.86906(8) 0.79936(4)
S11_15 S 0.11906(8) 0.74585(4) 0.54936(4)
S12_15 S 0.13094(8) 0.74585(4) 0.70064(4)
N11_19 N 0.14419(7) 0.88693(7) 0.72582(6)
N14_16 N 0.22582(6) 0.86307(7) 0.60581(7)
N15_16 N 0.27418(6) 0.89419(7) 0.63693(7)
N16_19 N 0.00105(7) 0.90752(8) 0.87261(7)
N17_17 N 0.24895(7) 0.87739(7) 0.90752(8)
N18_17 N 0.24895(7) 0.87261(7) 0.84248(8)
N19_15 N 0.12261(7) 0.75105(7) 0.59248(8)
N20_15 N 0.12739(7) 0.75105(7) 0.65752(8)
N21_19 N 0.15974(7) 0.86605(6) 0.76484(7)
N22_19 N 0.13395(6) 0.84026(7) 0.73516(7)
N26_12 N 0.23516(7) 0.90974(7) 0.61605(6)
N27_15 N 0.26484(7) 0.88395(6) 0.59026(7)
N29_16 N 0.23399(7) 0.87609(7) 0.65107(7)
N30_18 N 0.09893(7) 0.87391(7) 0.73399(7)
N34_16 N 0.26601(7) 0.84893(7) 0.62391(7)
N35_19 N 0.15989(7) 0.82041(7) 0.81081(7)
N36_19 N 0.17959(7) 0.84011(7) 0.68919(7)
N37_18 N 0.06081(7) 0.90989(7) 0.67959(7)
N40_19 N 0.16926(7) 0.81164(7) 0.84580(7)
N41_19 N 0.18836(7) 0.83074(7) 0.65420(7)
N42_18 N 0.09580(7) 0.91926(7) 0.68836(7)
N45_19 N 0.18807(7) 0.83806(8) 0.82743(7)
N46_19 N 0.16194(8) 0.81193(7) 0.67257(7)
N47_18 N 0.07743(7) 0.93807(7) 0.66194(8)
N50_17 N 0.22381(7) 0.85131(8) 0.87901(7)
N51_15 N 0.14869(8) 0.77619(7) 0.62099(7)
N52_18 N 0.12901(7) 0.97381(7) 0.64869(8)
N55_17 N 0.22381(7) 0.89869(8) 0.87099(7)
N56_15 N 0.10131(8) 0.77619(7) 0.62901(7)
N62_17 N 0.26961(7) 0.90106(8) 0.87490(8)
N63_17 N 0.26961(7) 0.84894(8) 0.87510(8)
N64_15 N 0.09894(8) 0.73039(7) 0.62510(8)
N65_15 N 0.15106(8) 0.73039(7) 0.62490(8)
C27_19 C 0.15578(8) 0.89797(9) 0.71714(8)
C30_16 C 0.21714(8) 0.85203(9) 0.59422(8)
C31_16 C 0.28286(8) 0.90578(8) 0.64797(9)
C33_17 C 0.25110(9) 0.87880(12) 0.92537(12)
C34_17 C 0.25110(9) 0.87120(12) 0.82463(12)
C35_15 C 0.12120(12) 0.74890(9) 0.57463(12)
C36_15 C 0.12880(12) 0.74890(9) 0.67537(12)
C37_19 C 0.17760(11) 0.87658(10) 0.76112(10)
C38_19 C 0.12342(10) 0.82240(11) 0.73888(10)
C39_18 C 0.01112(10) 0.92760(11) 0.62342(10)
H17_19 H 0.1777 0.8867 0.7502
H18_19 H 0.1133 0.8223 0.7498
H19_18 H 0.0002 0.9277 0.6133
C42_19 C 0.19586(13) 0.87346(12) 0.77237(11)
C43_19 C 0.12654(12) 0.80414(13) 0.72763(11)
C44_18 C 0.02237(11) 0.94586(13) 0.62654(12)
H22_19 H 0.2083 0.8807 0.7686
H23_19 H 0.1193 0.7917 0.7314
H24_18 H 0.0186 0.9583 0.6193
C47_19 C 0.19583(12) 0.85980(10) 0.78912(10)
C48_19 C 0.14020(10) 0.80417(12) 0.71088(10)
C49_18 C 0.03912(10) 0.94583(12) 0.64020(10)
H27_19 H 0.2079 0.8580 0.7976
H28_19 H 0.1420 0.7921 0.7024
H29_18 H 0.0476 0.9579 0.6420
C52_19 C 0.17750(9) 0.84880(8) 0.79317(9)
C53_19 C 0.15120(8) 0.82250(9) 0.70683(9)
C54_18 C 0.04317(9) 0.92750(9) 0.65120(8)
C57_19 C 0.16023(8) 0.85210(7) 0.78043(8)
C58_19 C 0.14790(7) 0.83977(8) 0.71957(8)
C59_18 C 0.03043(8) 0.91023(8) 0.64790(7)
H32_19 H 0.1480 0.8439 0.7829
H33_19 H 0.1561 0.8520 0.7171
H34_18 H 0.0329 0.8980 0.6561
C62_19 C 0.11019(12) 0.76417(11) 0.83315(11)
C63_19 C 0.23583(11) 0.88981(12) 0.66685(11)
C64_18 C 0.08315(11) 0.86019(12) 0.73583(11)
H37_19 H 0.0994 0.7539 0.8343
H38_19 H 0.2461 0.9006 0.6657
H39_18 H 0.0843 0.8494 0.7461
C67_19 C 0.11085(13) 0.77640(13) 0.81515(12)
C68_19 C 0.22360(13) 0.88915(13) 0.68485(12)
C69_18 C 0.06515(12) 0.86085(13) 0.72360(13)
H42_19 H 0.1007 0.7745 0.8044
H43_19 H 0.2255 0.8993 0.6956
H44_18 H 0.0544 0.8507 0.7255
C72_19 C 0.12624(11) 0.79123(12) 0.81308(11)
C73_19 C 0.20877(12) 0.87376(11) 0.68692(11)
C74_18 C 0.06308(11) 0.87624(11) 0.70877(12)
H47_19 H 0.1269 0.8000 0.8010
H48_19 H 0.2000 0.8731 0.6990
H49_18 H 0.0510 0.8769 0.7000
C77_19 C 0.14104(9) 0.79316(9) 0.82916(9)
C78_19 C 0.20684(9) 0.85896(9) 0.67084(9)
C79_18 C 0.07916(9) 0.89104(9) 0.70684(9)
C82_19 C 0.13913(8) 0.78041(8) 0.84661(8)
C83_19 C 0.21959(8) 0.86087(8) 0.65339(8)
C84_18 C 0.09661(8) 0.88913(8) 0.71959(8)
H52_19 H 0.1491 0.7819 0.8576
H53_19 H 0.2181 0.8509 0.6424
H54_18 H 0.1076 0.8991 0.7181
C87_19 C 0.15778(8) 0.80918(8) 0.82828(8)
C88_19 C 0.19082(8) 0.84222(8) 0.67172(8)
C89_18 C 0.07828(8) 0.90778(8) 0.69082(8)
C92_19 C 0.17523(8) 0.83475(9) 0.81135(8)
C93_19 C 0.16525(9) 0.82477(8) 0.68865(8)
C94_18 C 0.06135(8) 0.92523(8) 0.66525(9)
C97_19 C 0.18426(8) 0.82626(9) 0.84444(8)
C98_19 C 0.17374(9) 0.81574(8) 0.65556(8)
C99_18 C 0.09444(8) 0.93426(8) 0.67374(9)
C102_19 C 0.21148(8) 0.84661(9) 0.86290(8)
C103_19 C 0.15339(9) 0.78852(8) 0.63710(8)
C104_18 C 0.11290(8) 0.96148(8) 0.65339(9)
H57_19 H 0.2126 0.8549 0.8505
H58_19 H 0.1451 0.7874 0.6495
H59_18 H 0.1005 0.9626 0.6451
C107_19 C 0.19699(9) 0.83030(10) 0.86312(9)
C108_19 C 0.16970(10) 0.80301(9) 0.63688(9)
C109_18 C 0.11312(9) 0.94699(9) 0.66970(10)
C112_19 C 0.19504(12) 0.81850(12) 0.88131(11)
C113_19 C 0.18150(12) 0.80496(12) 0.61869(11)
C114_18 C 0.13131(11) 0.94504(12) 0.68150(12)
H62_19 H 0.1852 0.8073 0.8822
H63_19 H 0.1927 0.8148 0.6178
H64_18 H 0.1322 0.9352 0.6927
C117_19 C 0.20774(13) 0.82345(14) 0.89817(12)
C118_19 C 0.17655(14) 0.79226(13) 0.60183(12)
C119_18 C 0.14817(12) 0.95774(13) 0.67655(14)
H67_19 H 0.2066 0.8158 0.9109
H68_19 H 0.1842 0.7934 0.5891
H69_18 H 0.1609 0.9566 0.6842
C122_19 C 0.22207(11) 0.83960(12) 0.89628(10)
C123_19 C 0.16040(12) 0.77793(11) 0.60372(10)
C124_18 C 0.14628(10) 0.97207(11) 0.66040(12)
H72_19 H 0.2311 0.8425 0.9078
H73_19 H 0.1575 0.7689 0.5922
H74_18 H 0.1578 0.9811 0.6575
S2_19 S 0.99585(4) 0.79936(4) 0.88094(8)
C2_19 C 0.99890(9) 0.82463(12) 0.87880(12)
Co15_9 Co 0.8750 0.747768(14) 0.8750
S8_19 S 0.99585(4) 0.95064(4) 0.86906(8)
N59_14 N 0.98039(7) 0.87490(8) 0.84894(8)
N60_14 N 0.87510(8) 0.84894(8) 0.76961(7)
N61_14 N 0.90106(8) 0.76961(7) 0.87490(8)
N68_14 N 0.93629(8) 0.82813(8) 0.84393(8)
N69_14 N 0.90607(8) 0.81371(8) 0.82813(8)
N70_14 N 0.92187(8) 0.84393(8) 0.81371(8)
C32_19 C 0.99890(9) 0.92537(12) 0.87120(12)
C129_14 C 0.98302(11) 0.88830(12) 0.83277(11)
C130_14 C 0.86170(12) 0.83277(11) 0.76698(11)
C131_14 C 0.91723(11) 0.76698(11) 0.88830(12)
H79_14 H 0.9936 0.8987 0.8339
H80_14 H 0.8513 0.8339 0.7564
H81_14 H 0.9161 0.7564 0.8987
C134_14 C 0.97114(14) 0.88764(15) 0.81485(12)
C135_14 C 0.86236(15) 0.81485(12) 0.77886(14)
C136_14 C 0.93515(12) 0.77886(14) 0.88764(15)
H84_14 H 0.9737 0.8973 0.8038
H85_14 H 0.8527 0.8038 0.7763
H86_14 H 0.9462 0.7763 0.8973
C139_14 C 0.95545(13) 0.87281(13) 0.81310(12)
C140_14 C 0.87719(13) 0.81310(12) 0.79455(13)
C141_14 C 0.93690(12) 0.79455(13) 0.87281(13)
H89_14 H 0.9470 0.8720 0.8009
H90_14 H 0.8780 0.8009 0.8030
H91_14 H 0.9491 0.8030 0.8720
C144_14 C 0.95234(10) 0.85897(11) 0.82984(10)
C145_14 C 0.89103(11) 0.82984(10) 0.79766(10)
C146_14 C 0.92016(10) 0.79766(10) 0.85897(11)
C149_14 C 0.96526(8) 0.86041(9) 0.84717(9)
C150_14 C 0.88959(9) 0.84717(9) 0.78474(8)
C151_14 C 0.90283(9) 0.78474(8) 0.86041(9)
H94_14 H 0.9634 0.8507 0.8583
H95_14 H 0.8993 0.8583 0.7866
H96_14 H 0.8917 0.7866 0.8507
C154_14 C 0.93605(10) 0.84264(10) 0.82889(10)
C155_14 C 0.92111(10) 0.81395(10) 0.84264(10)
C156_14 C 0.90736(10) 0.82889(10) 0.81395(10)
Co1_17 Co 0.620919(12) 0.370919(12) 0.5000
S1_20 S 0.57744(3) 0.41365(3) 0.54384(3)
S2_20 S 0.54936(4) 0.50415(4) 0.63094(8)
N1_20 N 0.60581(7) 0.38693(7) 0.52418(6)
N2_20 N 0.59248(8) 0.49895(7) 0.62739(7)
N4_16 N 0.65107(7) 0.37391(7) 0.51601(7)
N5_16 N 0.68919(7) 0.40989(7) 0.57041(7)
N6_16 N 0.65420(7) 0.41926(7) 0.56164(7)
N7_16 N 0.67257(7) 0.43807(7) 0.58806(8)
N8_16 N 0.62099(7) 0.47381(7) 0.60131(8)
C1_20 C 0.59422(8) 0.39797(9) 0.53286(8)
C2_20 C 0.57463(12) 0.50110(9) 0.62880(12)
C3_16 C 0.73888(10) 0.42760(11) 0.62658(10)
H1_16 H 0.7498 0.4277 0.6367
C4_16 C 0.72763(11) 0.44586(13) 0.62346(12)
H2_16 H 0.7314 0.4583 0.6307
C5_16 C 0.71088(10) 0.44583(12) 0.60980(10)
H3_16 H 0.7024 0.4579 0.6080
C6_16 C 0.70683(9) 0.42750(9) 0.59880(8)
C7_16 C 0.71957(8) 0.41023(8) 0.60210(7)
H4_16 H 0.7171 0.3980 0.5939
C8_16 C 0.66685(11) 0.36019(12) 0.51417(11)
H5_16 H 0.6657 0.3494 0.5039
C9_16 C 0.68485(12) 0.36085(13) 0.52640(13)
H6_16 H 0.6956 0.3507 0.5245
C10_16 C 0.68692(11) 0.37624(11) 0.54123(12)
H7_16 H 0.6990 0.3769 0.5500
C11_16 C 0.67084(9) 0.39104(9) 0.54316(9)
C12_16 C 0.65339(8) 0.38913(8) 0.53041(8)
H8_16 H 0.6424 0.3991 0.5319
C13_16 C 0.67172(8) 0.40778(8) 0.55918(8)
C14_16 C 0.68865(8) 0.42523(8) 0.58475(9)
C15_16 C 0.65556(8) 0.43426(8) 0.57626(9)
C16_16 C 0.63710(8) 0.46148(8) 0.59661(9)
H9_16 H 0.6495 0.4626 0.6049
C17_16 C 0.63688(9) 0.44699(9) 0.58030(10)
C18_16 C 0.61869(11) 0.44504(12) 0.56850(12)
H10_16 H 0.6178 0.4352 0.5573
C19_16 C 0.60183(12) 0.45774(13) 0.57345(14)
H11_16 H 0.5891 0.4566 0.5658
C20_16 C 0.60372(10) 0.47207(11) 0.58960(12)
H12_16 H 0.5922 0.4811 0.5925
Co7_21 Co 0.629081(12) 0.370919(12) 0.7500
Co9_18 Co 0.6250 0.252232(14) 0.6250
S3_20 S 0.66365(3) 0.32744(3) 0.45616(3)
S4_16 S 0.54384(3) 0.33635(3) 0.67256(3)
S5_16 S 0.45616(3) 0.42256(3) 0.58635(3)
S6_17 S 0.58635(3) 0.29384(3) 0.32744(3)
S7_17 S 0.67256(3) 0.20616(3) 0.41365(3)
S8_20 S 0.70064(4) 0.50415(4) 0.61906(8)
S9_18 S 0.63094(8) 0.24585(4) 0.70064(4)
S10_18 S 0.61906(8) 0.24585(4) 0.54936(4)
N11_20 N 0.63693(7) 0.35581(7) 0.47582(6)
N12_16 N 0.52418(6) 0.36307(7) 0.64419(7)
N13_16 N 0.47582(6) 0.39419(7) 0.61307(7)
N14_17 N 0.61307(7) 0.27418(6) 0.35581(7)
N15_17 N 0.64419(7) 0.22582(6) 0.38693(7)
N16_20 N 0.65752(8) 0.49895(7) 0.62261(7)
N17_18 N 0.62739(7) 0.25105(7) 0.65752(8)
N18_18 N 0.62261(7) 0.25105(7) 0.59248(8)
N21_20 N 0.61605(6) 0.34026(7) 0.51484(7)
N22_20 N 0.59026(7) 0.36605(6) 0.48516(7)
N24_14 N 0.51484(7) 0.40974(7) 0.63395(6)
N27_16 N 0.63395(6) 0.23516(7) 0.34026(7)
N28_16 N 0.51601(7) 0.37609(7) 0.59893(7)
N29_17 N 0.62609(7) 0.26601(7) 0.40107(7)
N30_19 N 0.62391(7) 0.40107(7) 0.48399(7)
N31_17 N 0.59893(7) 0.37391(7) 0.73399(7)
N33_16 N 0.48399(7) 0.34893(7) 0.62609(7)
N34_17 N 0.59893(7) 0.23399(7) 0.37391(7)
N35_20 N 0.57041(7) 0.34011(7) 0.56081(7)
N36_20 N 0.59011(7) 0.32041(7) 0.43919(7)
N37_19 N 0.65989(7) 0.43919(7) 0.42959(7)
N38_17 N 0.56081(7) 0.40989(7) 0.67959(7)
N40_20 N 0.56164(7) 0.33074(7) 0.59580(7)
N41_20 N 0.58074(7) 0.31164(7) 0.40420(7)
N42_19 N 0.66926(7) 0.40420(7) 0.43836(7)
N43_17 N 0.59580(7) 0.41926(7) 0.68836(7)
N45_20 N 0.58806(8) 0.31193(7) 0.57743(7)
N46_20 N 0.56193(7) 0.33806(8) 0.42257(7)
N47_19 N 0.68807(7) 0.42257(7) 0.41194(8)
N48_17 N 0.57743(7) 0.43807(7) 0.66194(8)
N50_18 N 0.60131(8) 0.27619(7) 0.62901(7)
N52_19 N 0.72381(7) 0.37099(7) 0.39869(8)
N53_17 N 0.62901(7) 0.47381(7) 0.64869(8)
N55_18 N 0.64869(8) 0.27619(7) 0.62099(7)
N59_15 N 0.62490(8) 0.51961(7) 0.59894(8)
N60_15 N 0.59894(8) 0.62490(8) 0.51961(7)
N61_15 N 0.51961(7) 0.59894(8) 0.62490(8)
N62_18 N 0.65106(8) 0.23039(7) 0.62490(8)
N63_18 N 0.59894(8) 0.23039(7) 0.62510(8)
N68_15 N 0.57813(8) 0.56371(8) 0.59393(8)
N69_15 N 0.56371(8) 0.59393(8) 0.57813(8)
N70_15 N 0.59393(8) 0.57813(8) 0.56371(8)
C27_20 C 0.64797(9) 0.34422(8) 0.46714(8)
C28_16 C 0.53286(8) 0.35203(9) 0.65578(8)
C29_16 C 0.46714(8) 0.40578(8) 0.60203(9)
C30_17 C 0.60203(9) 0.28286(8) 0.34422(8)
C31_17 C 0.65578(8) 0.21714(8) 0.39797(9)
C32_20 C 0.67537(12) 0.50110(9) 0.62120(12)
C33_18 C 0.62880(12) 0.24890(9) 0.67537(12)
C34_18 C 0.62120(12) 0.24890(9) 0.57463(12)
C37_20 C 0.62658(10) 0.32240(11) 0.51112(10)
C38_20 C 0.57240(11) 0.37658(10) 0.48888(10)
C39_19 C 0.67760(11) 0.48888(10) 0.37342(10)
C40_17 C 0.51112(10) 0.42760(11) 0.62342(10)
H17_20 H 0.6367 0.3223 0.5002
H18_20 H 0.5723 0.3867 0.4998
H19_19 H 0.6777 0.4998 0.3633
H20_17 H 0.5002 0.4277 0.6133
C42_20 C 0.62346(12) 0.30414(13) 0.52237(11)
C43_20 C 0.55414(13) 0.37346(12) 0.47763(11)
C44_19 C 0.69586(13) 0.47763(11) 0.37654(12)
C45_17 C 0.52237(11) 0.44586(13) 0.62654(12)
H22_20 H 0.6307 0.2917 0.5186
H23_20 H 0.5417 0.3807 0.4814
H24_19 H 0.7083 0.4814 0.3693
H25_17 H 0.5186 0.4583 0.6193
C47_20 C 0.60980(10) 0.30417(12) 0.53912(10)
C48_20 C 0.55417(12) 0.35980(10) 0.46088(10)
C49_19 C 0.69583(12) 0.46088(10) 0.39020(10)
C50_17 C 0.53912(10) 0.44583(12) 0.64020(10)
H27_20 H 0.6080 0.2921 0.5476
H28_20 H 0.5421 0.3580 0.4524
H29_19 H 0.7079 0.4524 0.3920
H30_17 H 0.5476 0.4579 0.6420
C52_20 C 0.59880(8) 0.32250(9) 0.54317(9)
C53_20 C 0.57250(9) 0.34880(8) 0.45683(9)
C54_19 C 0.67750(9) 0.45683(9) 0.40120(8)
C55_17 C 0.54317(9) 0.42750(9) 0.65120(8)
C57_20 C 0.60210(7) 0.33977(8) 0.53043(8)
C58_20 C 0.58977(8) 0.35210(7) 0.46957(8)
C59_19 C 0.66023(8) 0.46957(8) 0.39790(7)
C60_17 C 0.53043(8) 0.41023(8) 0.64790(7)
H32_20 H 0.5939 0.3520 0.5329
H33_20 H 0.6020 0.3439 0.4671
H34_19 H 0.6480 0.4671 0.4061
H35_17 H 0.5329 0.3980 0.6561
C62_20 C 0.51417(11) 0.38981(12) 0.58315(11)
C63_20 C 0.63981(12) 0.26417(11) 0.41685(11)
C64_19 C 0.61019(12) 0.41685(11) 0.48583(11)
C65_17 C 0.58315(11) 0.36019(12) 0.73583(11)
H37_20 H 0.5039 0.4006 0.5843
H38_20 H 0.6506 0.2539 0.4157
H39_19 H 0.5994 0.4157 0.4961
H40_17 H 0.5843 0.3494 0.7461
C67_20 C 0.52640(13) 0.38915(13) 0.56515(12)
C68_20 C 0.63915(13) 0.27640(13) 0.43485(12)
C69_19 C 0.61085(13) 0.43485(12) 0.47360(13)
C70_17 C 0.56515(12) 0.36085(13) 0.72360(13)
H42_20 H 0.5245 0.3993 0.5544
H43_20 H 0.6493 0.2745 0.4456
H44_19 H 0.6007 0.4456 0.4755
H45_17 H 0.5544 0.3507 0.7255
C72_20 C 0.54123(12) 0.37376(11) 0.56308(11)
C73_20 C 0.62376(11) 0.29123(12) 0.43692(11)
C74_19 C 0.62624(11) 0.43692(11) 0.45877(12)
C75_17 C 0.56308(11) 0.37624(11) 0.70877(12)
H47_20 H 0.5500 0.3731 0.5510
H48_20 H 0.6231 0.3000 0.4490
H49_19 H 0.6269 0.4490 0.4500
H50_17 H 0.5510 0.3769 0.7000
C77_20 C 0.54316(9) 0.35896(9) 0.57916(9)
C78_20 C 0.60896(9) 0.29316(9) 0.42084(9)
C79_19 C 0.64104(9) 0.42084(9) 0.45684(9)
C80_17 C 0.57916(9) 0.39104(9) 0.70684(9)
C82_20 C 0.53041(8) 0.36087(8) 0.59661(8)
C83_20 C 0.61087(8) 0.28041(8) 0.40339(8)
C84_19 C 0.63913(8) 0.40339(8) 0.46959(8)
C85_17 C 0.59661(8) 0.38913(8) 0.71959(8)
H52_20 H 0.5319 0.3509 0.6076
H53_20 H 0.6009 0.2819 0.3924
H54_19 H 0.6491 0.3924 0.4681
H55_17 H 0.6076 0.3991 0.7181
C87_20 C 0.55918(8) 0.34222(8) 0.57828(8)
C88_20 C 0.59222(8) 0.30918(8) 0.42172(8)
C89_19 C 0.65778(8) 0.42172(8) 0.44082(8)
C90_17 C 0.57828(8) 0.40778(8) 0.69082(8)
C92_20 C 0.58475(9) 0.32477(8) 0.56135(8)
C93_20 C 0.57477(8) 0.33475(9) 0.43865(8)
C94_19 C 0.67523(8) 0.43865(8) 0.41525(9)
C95_17 C 0.56135(8) 0.42523(8) 0.66525(9)
C97_20 C 0.57626(9) 0.31574(8) 0.59444(8)
C98_20 C 0.56574(8) 0.32626(9) 0.40556(8)
C99_19 C 0.68426(8) 0.40556(8) 0.42374(9)
C100_17 C 0.59444(8) 0.43426(8) 0.67374(9)
C102_20 C 0.59661(9) 0.28852(8) 0.61290(8)
C103_20 C 0.53852(8) 0.34661(9) 0.38710(8)
C104_19 C 0.71148(8) 0.38710(8) 0.40339(9)
C105_17 C 0.61290(8) 0.46148(8) 0.65339(9)
H57_20 H 0.6049 0.2874 0.6005
H58_20 H 0.5374 0.3549 0.3995
H59_19 H 0.7126 0.3995 0.3951
H60_17 H 0.6005 0.4626 0.6451
C107_20 C 0.58030(10) 0.30301(9) 0.61312(9)
C108_20 C 0.55301(9) 0.33030(10) 0.38688(9)
C109_19 C 0.69699(9) 0.38688(9) 0.41970(10)
C110_17 C 0.61312(9) 0.44699(9) 0.66970(10)
C112_20 C 0.56850(12) 0.30496(12) 0.63131(11)
C113_20 C 0.55496(12) 0.31850(12) 0.36869(11)
C114_19 C 0.69504(12) 0.36869(11) 0.43150(12)
C115_17 C 0.63131(11) 0.44504(12) 0.68150(12)
H62_20 H 0.5573 0.3148 0.6322
H63_20 H 0.5648 0.3073 0.3678
H64_19 H 0.6852 0.3678 0.4427
H65_17 H 0.6322 0.4352 0.6927
C117_20 C 0.57345(14) 0.29226(13) 0.64817(12)
C118_20 C 0.54226(13) 0.32345(14) 0.35183(12)
C119_19 C 0.70774(13) 0.35183(12) 0.42655(14)
C120_17 C 0.64817(12) 0.45774(13) 0.67655(14)
H67_20 H 0.5658 0.2934 0.6609
H68_20 H 0.5434 0.3158 0.3391
H69_19 H 0.7066 0.3391 0.4342
H70_17 H 0.6609 0.4566 0.6842
C122_20 C 0.58960(12) 0.27793(11) 0.64628(10)
C123_20 C 0.52793(11) 0.33960(12) 0.35372(10)
C124_19 C 0.72207(11) 0.35372(10) 0.41040(12)
C125_17 C 0.64628(10) 0.47207(11) 0.66040(12)
H72_20 H 0.5925 0.2689 0.6578
H73_20 H 0.5189 0.3425 0.3422
H74_19 H 0.7311 0.3422 0.4075
H75_17 H 0.6578 0.4811 0.6575
C129_15 C 0.63830(12) 0.51698(11) 0.58277(11)
C130_15 C 0.58277(11) 0.63830(12) 0.51698(11)
C131_15 C 0.51698(11) 0.58277(11) 0.63830(12)
H79_15 H 0.6487 0.5064 0.5839
H80_15 H 0.5839 0.6487 0.5064
H81_15 H 0.5064 0.5839 0.6487
C134_15 C 0.63764(15) 0.52886(14) 0.56485(12)
C135_15 C 0.56485(12) 0.63764(15) 0.52886(14)
C136_15 C 0.52886(14) 0.56485(12) 0.63764(15)
H84_15 H 0.6473 0.5263 0.5538
H85_15 H 0.5538 0.6473 0.5263
H86_15 H 0.5263 0.5538 0.6473
C139_15 C 0.62281(13) 0.54455(13) 0.56310(12)
C140_15 C 0.56310(12) 0.62281(13) 0.54455(13)
C141_15 C 0.54455(13) 0.56310(12) 0.62281(13)
H89_15 H 0.6220 0.5530 0.5509
H90_15 H 0.5509 0.6220 0.5530
H91_15 H 0.5530 0.5509 0.6220
C144_15 C 0.60897(11) 0.54766(10) 0.57984(10)
C145_15 C 0.57984(10) 0.60897(11) 0.54766(10)
C146_15 C 0.54766(10) 0.57984(10) 0.60897(11)
C149_15 C 0.61041(9) 0.53474(8) 0.59717(9)
C150_15 C 0.59717(9) 0.61041(9) 0.53474(8)
C151_15 C 0.53474(8) 0.59717(9) 0.61041(9)
H94_15 H 0.6007 0.5366 0.6083
H95_15 H 0.6083 0.6007 0.5366
H96_15 H 0.5366 0.6083 0.6007
C154_15 C 0.59264(10) 0.56395(10) 0.57889(10)
C155_15 C 0.56395(10) 0.57889(10) 0.59264(10)
C156_15 C 0.57889(10) 0.59264(10) 0.56395(10)
S3_21 S 0.04384(3) 0.67256(3) 0.33635(3)
S6_18 S 0.17256(3) 0.70616(3) 0.41365(3)
S7_18 S 0.08635(3) 0.79384(3) 0.32744(3)
N11_21 N 0.02418(6) 0.64419(7) 0.36307(7)
N14_18 N 0.14419(7) 0.72582(6) 0.38693(7)
N15_18 N 0.11307(7) 0.77418(6) 0.35581(7)
N22_21 N 0.01484(7) 0.63395(6) 0.40974(7)
N29_18 N 0.09893(7) 0.73399(7) 0.37391(7)
N34_18 N 0.12609(7) 0.76601(7) 0.40107(7)
N36_21 N 0.06081(7) 0.67959(7) 0.40989(7)
N41_21 N 0.09580(7) 0.68836(7) 0.41926(7)
N46_21 N 0.07743(7) 0.66194(8) 0.43807(7)
C27_21 C 0.03286(8) 0.65578(8) 0.35203(9)
C30_18 C 0.15578(8) 0.71714(8) 0.39797(9)
C31_18 C 0.10203(9) 0.78286(8) 0.34422(8)
C38_21 C 0.01112(10) 0.62342(10) 0.42760(11)
H18_21 H 0.0002 0.6133 0.4277
C43_21 C 0.02237(11) 0.62654(12) 0.44586(13)
H23_21 H 0.0186 0.6193 0.4583
C48_21 C 0.03912(10) 0.64020(10) 0.44583(12)
H28_21 H 0.0476 0.6420 0.4579
C53_21 C 0.04317(9) 0.65120(8) 0.42750(9)
C58_21 C 0.03043(8) 0.64790(7) 0.41023(8)
H33_21 H 0.0329 0.6561 0.3980
C63_21 C 0.08315(11) 0.73583(11) 0.36019(12)
H38_21 H 0.0843 0.7461 0.3494
C68_21 C 0.06515(12) 0.72360(13) 0.36085(13)
H43_21 H 0.0544 0.7255 0.3507
C73_21 C 0.06308(11) 0.70877(12) 0.37624(11)
H48_21 H 0.0510 0.7000 0.3769
C78_21 C 0.07916(9) 0.70684(9) 0.39104(9)
C83_21 C 0.09661(8) 0.71959(8) 0.38913(8)
H53_21 H 0.1076 0.7181 0.3991
C88_21 C 0.07828(8) 0.69082(8) 0.40778(8)
C93_21 C 0.06135(8) 0.66525(9) 0.42523(8)
C98_21 C 0.09444(8) 0.67374(9) 0.43426(8)
C103_21 C 0.11290(8) 0.65339(9) 0.46148(8)
H58_21 H 0.1005 0.6451 0.4626
C108_21 C 0.11312(9) 0.66970(10) 0.44699(9)
C113_21 C 0.13131(11) 0.68150(12) 0.44504(12)
H63_21 H 0.1322 0.6927 0.4352
C118_21 C 0.14817(12) 0.67655(14) 0.45774(13)
H68_21 H 0.1609 0.6842 0.4566
C123_21 C 0.14628(10) 0.66040(12) 0.47207(11)
H73_21 H 0.1578 0.6575 0.4811
S1_21 S 0.95616(3) 0.58635(3) 0.42256(3)
S2_21 S 0.86906(8) 0.49585(4) 0.45064(4)
N1_21 N 0.97582(6) 0.61307(7) 0.39419(7)
N2_21 N 0.87261(7) 0.50105(7) 0.40752(8)
C1_21 C 0.96714(8) 0.60203(9) 0.40578(8)
C2_21 C 0.87120(12) 0.49890(9) 0.42537(12)
Co9_19 Co 0.8750 0.747768(14) 0.3750
S8_21 S 0.88094(8) 0.49585(4) 0.29936(4)
S9_19 S 0.79936(4) 0.75415(4) 0.36906(8)
S10_19 S 0.95064(4) 0.75415(4) 0.38094(8)
N16_21 N 0.87739(7) 0.50105(7) 0.34248(8)
N17_19 N 0.84248(8) 0.74895(7) 0.37261(7)
N18_19 N 0.90752(8) 0.74895(7) 0.37739(7)
N21_21 N 0.98516(7) 0.65974(7) 0.38395(6)
N35_21 N 0.93919(7) 0.65989(7) 0.42959(7)
N40_21 N 0.90420(7) 0.66926(7) 0.43836(7)
N45_21 N 0.92257(7) 0.68807(7) 0.41194(8)
N50_19 N 0.87099(7) 0.72381(7) 0.39869(8)
N55_19 N 0.87901(7) 0.72381(7) 0.35131(8)
N62_19 N 0.87510(8) 0.76961(7) 0.34894(8)
N63_19 N 0.87490(8) 0.76961(7) 0.40106(8)
C32_21 C 0.87880(12) 0.49890(9) 0.32463(12)
C33_19 C 0.82463(12) 0.75110(9) 0.37120(12)
C34_19 C 0.92537(12) 0.75110(9) 0.37880(12)
C37_21 C 0.98888(10) 0.67760(11) 0.37342(10)
H17_21 H 0.9998 0.6777 0.3633
C42_21 C 0.97763(11) 0.69586(13) 0.37654(12)
H22_21 H 0.9814 0.7083 0.3693
C47_21 C 0.96088(10) 0.69583(12) 0.39020(10)
H27_21 H 0.9524 0.7079 0.3920
C52_21 C 0.95683(9) 0.67750(9) 0.40120(8)
C57_21 C 0.96957(8) 0.66023(8) 0.39790(7)
H32_21 H 0.9671 0.6480 0.4061
C62_21 C 0.91685(11) 0.61019(12) 0.48583(11)
H37_21 H 0.9157 0.5994 0.4961
C67_21 C 0.93485(12) 0.61085(13) 0.47360(13)
H42_21 H 0.9456 0.6007 0.4755
C72_21 C 0.93692(11) 0.62624(11) 0.45877(12)
H47_21 H 0.9490 0.6269 0.4500
C77_21 C 0.92084(9) 0.64104(9) 0.45684(9)
C82_21 C 0.90339(8) 0.63913(8) 0.46959(8)
H52_21 H 0.8924 0.6491 0.4681
C87_21 C 0.92172(8) 0.65778(8) 0.44082(8)
C92_21 C 0.93865(8) 0.67523(8) 0.41525(9)
C97_21 C 0.90556(8) 0.68426(8) 0.42374(9)
C102_21 C 0.88710(8) 0.71148(8) 0.40339(9)
H57_21 H 0.8995 0.7126 0.3951
C107_21 C 0.88688(9) 0.69699(9) 0.41970(10)
C112_21 C 0.86869(11) 0.69504(12) 0.43150(12)
H62_21 H 0.8678 0.6852 0.4427
C117_21 C 0.85183(12) 0.70774(13) 0.42655(14)
H67_21 H 0.8391 0.7066 0.4342
C122_21 C 0.85372(10) 0.72207(11) 0.41040(12)
H72_21 H 0.8422 0.7311 0.4075
S1_22 S 0.20616(3) 0.17256(3) 0.41365(3)
S2_22 S 0.11906(8) 0.20064(4) 0.50415(4)
N1_22 N 0.22582(6) 0.14419(7) 0.38693(7)
N2_22 N 0.12261(7) 0.15752(8) 0.49895(7)
C1_22 C 0.21714(8) 0.15578(8) 0.39797(9)
C2_22 C 0.12120(12) 0.17537(12) 0.50110(9)
Co6_13 Co 0.370919(12) 0.120919(12) 0.5000
Co9_20 Co 0.1250 0.1250 0.252232(14)
Co10_16 Co 0.3750 0.247768(14) 0.3750
S3_22 S 0.29384(3) 0.08635(3) 0.32744(3)
S8_22 S 0.13094(8) 0.04936(4) 0.50415(4)
S9_20 S 0.04936(4) 0.11906(8) 0.24585(4)
S10_20 S 0.20064(4) 0.13094(8) 0.24585(4)
S11_16 S 0.45064(4) 0.25415(4) 0.38094(8)
S12_16 S 0.29936(4) 0.25415(4) 0.36906(8)
N11_22 N 0.27418(6) 0.11307(7) 0.35581(7)
N16_22 N 0.12739(7) 0.09248(8) 0.49895(7)
N17_20 N 0.09248(8) 0.12261(7) 0.25105(7)
N18_20 N 0.15752(8) 0.12739(7) 0.25105(7)
N19_16 N 0.40752(8) 0.24895(7) 0.37739(7)
N20_16 N 0.34248(8) 0.24895(7) 0.37261(7)
N21_22 N 0.23516(7) 0.13395(6) 0.34026(7)
N22_22 N 0.26484(7) 0.15974(7) 0.36605(6)
N23_12 N 0.36605(6) 0.09026(7) 0.48516(7)
N30_20 N 0.26601(7) 0.12609(7) 0.40107(7)
N35_22 N 0.18919(7) 0.17959(7) 0.34011(7)
N36_22 N 0.31081(7) 0.15989(7) 0.32041(7)
N37_20 N 0.32041(7) 0.09011(7) 0.43919(7)
N40_22 N 0.15420(7) 0.18836(7) 0.33074(7)
N41_22 N 0.34580(7) 0.16926(7) 0.31164(7)
N42_20 N 0.31164(7) 0.08074(7) 0.40420(7)
N45_22 N 0.17257(7) 0.16194(8) 0.31193(7)
N46_22 N 0.32743(7) 0.18807(7) 0.33806(8)
N47_20 N 0.33806(8) 0.06193(7) 0.42257(7)
N50_20 N 0.12099(7) 0.14869(8) 0.27619(7)
N51_16 N 0.37901(7) 0.22381(7) 0.35131(8)
N52_20 N 0.35131(8) 0.02619(7) 0.37099(7)
N55_20 N 0.12901(7) 0.10131(8) 0.27619(7)
N56_16 N 0.37099(7) 0.22381(7) 0.39869(8)
N59_16 N 0.15106(8) 0.12510(8) 0.51961(7)
N60_16 N 0.23039(7) 0.15106(8) 0.62490(8)
N61_16 N 0.12510(8) 0.23039(7) 0.59894(8)
N62_20 N 0.12510(8) 0.09894(8) 0.23039(7)
N63_20 N 0.12490(8) 0.15106(8) 0.23039(7)
N64_16 N 0.37490(8) 0.26961(7) 0.40106(8)
N65_16 N 0.37510(8) 0.26961(7) 0.34894(8)
N68_16 N 0.15607(8) 0.17187(8) 0.56371(8)
N69_16 N 0.17187(8) 0.18629(8) 0.59393(8)
N70_16 N 0.18629(8) 0.15607(8) 0.57813(8)
C27_22 C 0.28286(8) 0.10203(9) 0.34422(8)
C32_22 C 0.12880(12) 0.07463(12) 0.50110(9)
C33_20 C 0.07463(12) 0.12120(12) 0.24890(9)
C34_20 C 0.17537(12) 0.12880(12) 0.24890(9)
C35_16 C 0.42537(12) 0.25110(9) 0.37880(12)
C36_16 C 0.32463(12) 0.25110(9) 0.37120(12)
C37_22 C 0.23888(10) 0.12342(10) 0.32240(11)
C38_22 C 0.26112(10) 0.17760(11) 0.37658(10)
C39_20 C 0.37658(10) 0.07240(11) 0.48888(10)
H17_22 H 0.2498 0.1133 0.3223
H18_22 H 0.2502 0.1777 0.3867
H19_20 H 0.3867 0.0723 0.4998
C42_22 C 0.22763(11) 0.12654(12) 0.30414(13)
C43_22 C 0.27237(11) 0.19586(13) 0.37346(12)
C44_20 C 0.37346(12) 0.05414(13) 0.47763(11)
H22_22 H 0.2314 0.1193 0.2917
H23_22 H 0.2686 0.2083 0.3807
H24_20 H 0.3807 0.0417 0.4814
C47_22 C 0.21088(10) 0.14020(10) 0.30417(12)
C48_22 C 0.28912(10) 0.19583(12) 0.35980(10)
C49_20 C 0.35980(10) 0.05417(12) 0.46088(10)
H27_22 H 0.2024 0.1420 0.2921
H28_22 H 0.2976 0.2079 0.3580
H29_20 H 0.3580 0.0421 0.4524
C52_22 C 0.20683(9) 0.15120(8) 0.32250(9)
C53_22 C 0.29317(9) 0.17750(9) 0.34880(8)
C54_20 C 0.34880(8) 0.07250(9) 0.45683(9)
C57_22 C 0.21957(8) 0.14790(7) 0.33977(8)
C58_22 C 0.28043(8) 0.16023(8) 0.35210(7)
C59_20 C 0.35210(7) 0.08977(8) 0.46957(8)
H32_22 H 0.2171 0.1561 0.3520
H33_22 H 0.2829 0.1480 0.3439
H34_20 H 0.3439 0.1020 0.4671
C62_22 C 0.16685(11) 0.23583(11) 0.38981(12)
C63_22 C 0.33315(11) 0.11019(12) 0.26417(11)
C64_20 C 0.26417(11) 0.13981(12) 0.41685(11)
H37_22 H 0.1657 0.2461 0.4006
H38_22 H 0.3343 0.0994 0.2539
H39_20 H 0.2539 0.1506 0.4157
C67_22 C 0.18485(12) 0.22360(13) 0.38915(13)
C68_22 C 0.31515(12) 0.11085(13) 0.27640(13)
C69_20 C 0.27640(13) 0.13915(13) 0.43485(12)
H42_22 H 0.1956 0.2255 0.3993
H43_22 H 0.3044 0.1007 0.2745
H44_20 H 0.2745 0.1493 0.4456
C72_22 C 0.18692(11) 0.20877(12) 0.37376(11)
C73_22 C 0.31308(11) 0.12624(11) 0.29123(12)
C74_20 C 0.29123(12) 0.12376(11) 0.43692(11)
H47_22 H 0.1990 0.2000 0.3731
H48_22 H 0.3010 0.1269 0.3000
H49_20 H 0.3000 0.1231 0.4490
C77_22 C 0.17084(9) 0.20684(9) 0.35896(9)
C78_22 C 0.32916(9) 0.14104(9) 0.29316(9)
C79_20 C 0.29316(9) 0.10896(9) 0.42084(9)
C82_22 C 0.15339(8) 0.21959(8) 0.36087(8)
C83_22 C 0.34661(8) 0.13913(8) 0.28041(8)
C84_20 C 0.28041(8) 0.11087(8) 0.40339(8)
H52_22 H 0.1424 0.2181 0.3509
H53_22 H 0.3576 0.1491 0.2819
H54_20 H 0.2819 0.1009 0.3924
C87_22 C 0.17172(8) 0.19082(8) 0.34222(8)
C88_22 C 0.32828(8) 0.15778(8) 0.30918(8)
C89_20 C 0.30918(8) 0.09222(8) 0.42172(8)
C92_22 C 0.18865(8) 0.16525(9) 0.32477(8)
C93_22 C 0.31135(8) 0.17523(8) 0.33475(9)
C94_20 C 0.33475(9) 0.07477(8) 0.43865(8)
C97_22 C 0.15556(8) 0.17374(9) 0.31574(8)
C98_22 C 0.34444(8) 0.18426(8) 0.32626(9)
C99_20 C 0.32626(9) 0.06574(8) 0.40556(8)
C102_22 C 0.13710(8) 0.15339(9) 0.28852(8)
C103_22 C 0.36290(8) 0.21148(8) 0.34661(9)
C104_20 C 0.34661(9) 0.03852(8) 0.38710(8)
H57_22 H 0.1495 0.1451 0.2874
H58_22 H 0.3505 0.2126 0.3549
H59_20 H 0.3549 0.0374 0.3995
C107_22 C 0.13688(9) 0.16970(10) 0.30301(9)
C108_22 C 0.36312(9) 0.19699(9) 0.33030(10)
C109_20 C 0.33030(10) 0.05301(9) 0.38688(9)
C112_22 C 0.11869(11) 0.18150(12) 0.30496(12)
C113_22 C 0.38131(11) 0.19504(12) 0.31850(12)
C114_20 C 0.31850(12) 0.05496(12) 0.36869(11)
H62_22 H 0.1178 0.1927 0.3148
H63_22 H 0.3822 0.1852 0.3073
H64_20 H 0.3073 0.0648 0.3678
C117_22 C 0.10183(12) 0.17655(14) 0.29226(13)
C118_22 C 0.39817(12) 0.20774(13) 0.32345(14)
C119_20 C 0.32345(14) 0.04226(13) 0.35183(12)
H67_22 H 0.0891 0.1842 0.2934
H68_22 H 0.4109 0.2066 0.3158
H69_20 H 0.3158 0.0434 0.3391
C122_22 C 0.10372(10) 0.16040(12) 0.27793(11)
C123_22 C 0.39628(10) 0.22207(11) 0.33960(12)
C124_20 C 0.33960(12) 0.02793(11) 0.35372(10)
H72_22 H 0.0922 0.1575 0.2689
H73_22 H 0.4078 0.2311 0.3425
H74_20 H 0.3425 0.0189 0.3422
C129_16 C 0.16723(11) 0.11170(12) 0.51698(11)
C130_16 C 0.23302(11) 0.16723(11) 0.63830(12)
C131_16 C 0.11170(12) 0.23302(11) 0.58277(11)
H79_16 H 0.1661 0.1013 0.5064
H80_16 H 0.2436 0.1661 0.6487
H81_16 H 0.1013 0.2436 0.5839
C134_16 C 0.18515(12) 0.11236(15) 0.52886(14)
C135_16 C 0.22114(14) 0.18515(12) 0.63764(15)
C136_16 C 0.11236(15) 0.22114(14) 0.56485(12)
H84_16 H 0.1962 0.1027 0.5263
H85_16 H 0.2237 0.1962 0.6473
H86_16 H 0.1027 0.2237 0.5538
C139_16 C 0.18690(12) 0.12719(13) 0.54455(13)
C140_16 C 0.20545(13) 0.18690(12) 0.62281(13)
C141_16 C 0.12719(13) 0.20545(13) 0.56310(12)
H89_16 H 0.1991 0.1280 0.5530
H90_16 H 0.1970 0.1991 0.6220
H91_16 H 0.1280 0.1970 0.5509
C144_16 C 0.17016(10) 0.14103(11) 0.54766(10)
C145_16 C 0.20234(10) 0.17016(10) 0.60897(11)
C146_16 C 0.14103(11) 0.20234(10) 0.57984(10)
C149_16 C 0.15283(9) 0.13959(9) 0.53474(8)
C150_16 C 0.21526(8) 0.15283(9) 0.61041(9)
C151_16 C 0.13959(9) 0.21526(8) 0.59717(9)
H94_16 H 0.1417 0.1493 0.5366
H95_16 H 0.2134 0.1417 0.6007
H96_16 H 0.1493 0.2134 0.6083
C154_16 C 0.17111(10) 0.15736(10) 0.56395(10)
C155_16 C 0.15736(10) 0.18605(10) 0.57889(10)
C156_16 C 0.18605(10) 0.17111(10) 0.59264(10)
Co7_22 Co 0.379081(12) 0.0000 0.629081(12)
S1_23 S 0.32744(3) 0.79384(3) 0.58635(3)
S2_23 S 0.29936(4) 0.88094(8) 0.49585(4)
N1_23 N 0.35581(7) 0.77418(6) 0.61307(7)
N2_23 N 0.34248(8) 0.87739(7) 0.50105(7)
N9_14 N 0.37510(8) 0.90106(8) 0.48039(7)
N10_14 N 0.42187(8) 0.90607(8) 0.43629(8)
C1_23 C 0.34422(8) 0.78286(8) 0.60203(9)
C2_23 C 0.32463(12) 0.87880(12) 0.49890(9)
C21_14 C 0.36170(12) 0.91723(11) 0.48302(11)
H13_14 H 0.3513 0.9161 0.4936
C22_14 C 0.36236(15) 0.93515(12) 0.47114(14)
H14_14 H 0.3527 0.9462 0.4737
C23_14 C 0.37719(13) 0.93690(12) 0.45545(13)
H15_14 H 0.3780 0.9491 0.4470
C24_14 C 0.39103(11) 0.92016(10) 0.45234(10)
C25_14 C 0.38959(9) 0.90283(9) 0.46526(8)
H16_14 H 0.3993 0.8917 0.4634
C26_14 C 0.40736(10) 0.92111(10) 0.43605(10)
Co7_23 Co 0.379081(12) 1.0000 0.629081(12)
Co9_21 Co 0.3750 0.8750 0.747768(14)
S3_23 S 0.41365(3) 0.70616(3) 0.67256(3)
S8_23 S 0.45064(4) 0.86906(8) 0.49585(4)
S9_21 S 0.38094(8) 0.95064(4) 0.75415(4)
S10_21 S 0.36906(8) 0.79936(4) 0.75415(4)
N11_23 N 0.38693(7) 0.72582(6) 0.64419(7)
N16_23 N 0.40752(8) 0.87261(7) 0.50105(7)
N17_21 N 0.37739(7) 0.90752(8) 0.74895(7)
N18_21 N 0.37261(7) 0.84248(8) 0.74895(7)
N21_23 N 0.36605(6) 0.76484(7) 0.65974(7)
N22_23 N 0.34026(7) 0.73516(7) 0.63395(6)
N30_21 N 0.37391(7) 0.73399(7) 0.59893(7)
N31_18 N 0.34893(7) 0.98399(7) 0.62609(7)
N32_15 N 0.15107(7) 0.87391(7) 0.51601(7)
N35_23 N 0.32041(7) 0.81081(7) 0.65989(7)
N36_23 N 0.34011(7) 0.68919(7) 0.67959(7)
N37_21 N 0.40989(7) 0.67959(7) 0.56081(7)
N38_18 N 0.31081(7) 0.92959(7) 0.59011(7)
N39_15 N 0.18919(7) 0.90989(7) 0.57041(7)
N40_23 N 0.31164(7) 0.84580(7) 0.66926(7)
N41_23 N 0.33074(7) 0.65420(7) 0.68836(7)
N42_21 N 0.41926(7) 0.68836(7) 0.59580(7)
N43_18 N 0.34580(7) 0.93836(7) 0.58074(7)
N44_15 N 0.15420(7) 0.91926(7) 0.56164(7)
N45_23 N 0.33806(8) 0.82743(7) 0.68807(7)
N46_23 N 0.31193(7) 0.67257(7) 0.66194(8)
N47_21 N 0.43807(7) 0.66194(8) 0.57743(7)
N48_18 N 0.32743(7) 0.91194(8) 0.56193(7)
N49_15 N 0.17257(7) 0.93807(7) 0.58806(8)
N50_21 N 0.35131(8) 0.87901(7) 0.72381(7)
N52_21 N 0.47381(7) 0.64869(8) 0.62901(7)
N53_18 N 0.37901(7) 0.89869(8) 0.52619(7)
N54_15 N 0.12099(7) 0.97381(7) 0.60131(8)
N55_21 N 0.39869(8) 0.87099(7) 0.72381(7)
N57_14 N 0.40106(8) 0.98039(7) 0.37510(8)
N58_14 N 0.48039(7) 0.87510(8) 0.40106(8)
N62_21 N 0.40106(8) 0.87490(8) 0.76961(7)
N63_21 N 0.34894(8) 0.87510(8) 0.76961(7)
N66_14 N 0.43629(8) 0.92187(8) 0.40607(8)
N67_14 N 0.40607(8) 0.93629(8) 0.42187(8)
C27_23 C 0.39797(9) 0.71714(8) 0.65578(8)
C32_23 C 0.42537(12) 0.87120(12) 0.49890(9)
C33_21 C 0.37880(12) 0.92537(12) 0.75110(9)
C34_21 C 0.37120(12) 0.82463(12) 0.75110(9)
C37_23 C 0.37658(10) 0.76112(10) 0.67760(11)
C38_23 C 0.32240(11) 0.73888(10) 0.62342(10)
C39_21 C 0.42760(11) 0.62342(10) 0.51112(10)
C40_18 C 0.26112(10) 0.87342(10) 0.57240(11)
C41_15 C 0.23888(10) 0.92760(11) 0.62658(10)
H17_23 H 0.3867 0.7502 0.6777
H18_23 H 0.3223 0.7498 0.6133
H19_21 H 0.4277 0.6133 0.5002
H20_18 H 0.2502 0.8633 0.5723
H21_15 H 0.2498 0.9277 0.6367
C42_23 C 0.37346(12) 0.77237(11) 0.69586(13)
C43_23 C 0.30414(13) 0.72763(11) 0.62654(12)
C44_21 C 0.44586(13) 0.62654(12) 0.52237(11)
C45_18 C 0.27237(11) 0.87654(12) 0.55414(13)
C46_15 C 0.22763(11) 0.94586(13) 0.62346(12)
H22_23 H 0.3807 0.7686 0.7083
H23_23 H 0.2917 0.7314 0.6193
H24_21 H 0.4583 0.6193 0.5186
H25_18 H 0.2686 0.8693 0.5417
H26_15 H 0.2314 0.9583 0.6307
C47_23 C 0.35980(10) 0.78912(10) 0.69583(12)
C48_23 C 0.30417(12) 0.71088(10) 0.64020(10)
C49_21 C 0.44583(12) 0.64020(10) 0.53912(10)
C50_18 C 0.28912(10) 0.89020(10) 0.55417(12)
C51_15 C 0.21088(10) 0.94583(12) 0.60980(10)
H27_23 H 0.3580 0.7976 0.7079
H28_23 H 0.2921 0.7024 0.6420
H29_21 H 0.4579 0.6420 0.5476
H30_18 H 0.2976 0.8920 0.5421
H31_15 H 0.2024 0.9579 0.6080
C52_23 C 0.34880(8) 0.79317(9) 0.67750(9)
C53_23 C 0.32250(9) 0.70683(9) 0.65120(8)
C54_21 C 0.42750(9) 0.65120(8) 0.54317(9)
C55_18 C 0.29317(9) 0.90120(8) 0.57250(9)
C56_15 C 0.20683(9) 0.92750(9) 0.59880(8)
C57_23 C 0.35210(7) 0.78043(8) 0.66023(8)
C58_23 C 0.33977(8) 0.71957(8) 0.64790(7)
C59_21 C 0.41023(8) 0.64790(7) 0.53043(8)
C60_18 C 0.28043(8) 0.89790(7) 0.58977(8)
C61_15 C 0.21957(8) 0.91023(8) 0.60210(7)
H32_23 H 0.3439 0.7829 0.6480
H33_23 H 0.3520 0.7171 0.6561
H34_21 H 0.3980 0.6561 0.5329
H35_18 H 0.2829 0.9061 0.6020
H36_15 H 0.2171 0.8980 0.5939
C62_23 C 0.26417(11) 0.83315(11) 0.61019(12)
C63_23 C 0.38981(12) 0.66685(11) 0.73583(11)
C64_21 C 0.36019(12) 0.73583(11) 0.58315(11)
C65_18 C 0.33315(11) 0.98583(11) 0.63981(12)
C66_15 C 0.16685(11) 0.86019(12) 0.51417(11)
H37_23 H 0.2539 0.8343 0.5994
H38_23 H 0.4006 0.6657 0.7461
H39_21 H 0.3494 0.7461 0.5843
H40_18 H 0.3343 0.9961 0.6506
H41_15 H 0.1657 0.8494 0.5039
C67_23 C 0.27640(13) 0.81515(12) 0.61085(13)
C68_23 C 0.38915(13) 0.68485(12) 0.72360(13)
C69_21 C 0.36085(13) 0.72360(13) 0.56515(12)
C70_18 C 0.31515(12) 0.97360(13) 0.63915(13)
C71_15 C 0.18485(12) 0.86085(13) 0.52640(13)
H42_23 H 0.2745 0.8044 0.6007
H43_23 H 0.3993 0.6956 0.7255
H44_21 H 0.3507 0.7255 0.5544
H45_18 H 0.3044 0.9755 0.6493
H46_15 H 0.1956 0.8507 0.5245
C72_23 C 0.29123(12) 0.81308(11) 0.62624(11)
C73_23 C 0.37376(11) 0.68692(11) 0.70877(12)
C74_21 C 0.37624(11) 0.70877(12) 0.56308(11)
C75_18 C 0.31308(11) 0.95877(12) 0.62376(11)
C76_15 C 0.18692(11) 0.87624(11) 0.54123(12)
H47_23 H 0.3000 0.8010 0.6269
H48_23 H 0.3731 0.6990 0.7000
H49_21 H 0.3769 0.7000 0.5510
H50_18 H 0.3010 0.9500 0.6231
H51_15 H 0.1990 0.8769 0.5500
C77_23 C 0.29316(9) 0.82916(9) 0.64104(9)
C78_23 C 0.35896(9) 0.67084(9) 0.70684(9)
C79_21 C 0.39104(9) 0.70684(9) 0.57916(9)
C80_18 C 0.32916(9) 0.95684(9) 0.60896(9)
C81_15 C 0.17084(9) 0.89104(9) 0.54316(9)
C82_23 C 0.28041(8) 0.84661(8) 0.63913(8)
C83_23 C 0.36087(8) 0.65339(8) 0.71959(8)
C84_21 C 0.38913(8) 0.71959(8) 0.59661(8)
C85_18 C 0.34661(8) 0.96959(8) 0.61087(8)
C86_15 C 0.15339(8) 0.88913(8) 0.53041(8)
H52_23 H 0.2819 0.8576 0.6491
H53_23 H 0.3509 0.6424 0.7181
H54_21 H 0.3991 0.7181 0.6076
H55_18 H 0.3576 0.9681 0.6009
H56_15 H 0.1424 0.8991 0.5319
C87_23 C 0.30918(8) 0.82828(8) 0.65778(8)
C88_23 C 0.34222(8) 0.67172(8) 0.69082(8)
C89_21 C 0.40778(8) 0.69082(8) 0.57828(8)
C90_18 C 0.32828(8) 0.94082(8) 0.59222(8)
C91_15 C 0.17172(8) 0.90778(8) 0.55918(8)
C92_23 C 0.33475(9) 0.81135(8) 0.67523(8)
C93_23 C 0.32477(8) 0.68865(8) 0.66525(9)
C94_21 C 0.42523(8) 0.66525(9) 0.56135(8)
C95_18 C 0.31135(8) 0.91525(9) 0.57477(8)
C96_15 C 0.18865(8) 0.92523(8) 0.58475(9)
C97_23 C 0.32626(9) 0.84444(8) 0.68426(8)
C98_23 C 0.31574(8) 0.65556(8) 0.67374(9)
C99_21 C 0.43426(8) 0.67374(9) 0.59444(8)
C100_18 C 0.34444(8) 0.92374(9) 0.56574(8)
C101_15 C 0.15556(8) 0.93426(8) 0.57626(9)
C102_23 C 0.34661(9) 0.86290(8) 0.71148(8)
C103_23 C 0.28852(8) 0.63710(8) 0.65339(9)
C104_21 C 0.46148(8) 0.65339(9) 0.61290(8)
C105_18 C 0.36290(8) 0.90339(9) 0.53852(8)
C106_15 C 0.13710(8) 0.96148(8) 0.59661(9)
H57_23 H 0.3549 0.8505 0.7126
H58_23 H 0.2874 0.6495 0.6451
H59_21 H 0.4626 0.6451 0.6005
H60_18 H 0.3505 0.8951 0.5374
H61_15 H 0.1495 0.9626 0.6049
C107_23 C 0.33030(10) 0.86312(9) 0.69699(9)
C108_23 C 0.30301(9) 0.63688(9) 0.66970(10)
C109_21 C 0.44699(9) 0.66970(10) 0.61312(9)
C110_18 C 0.36312(9) 0.91970(10) 0.55301(9)
C111_15 C 0.13688(9) 0.94699(9) 0.58030(10)
C112_23 C 0.31850(12) 0.88131(11) 0.69504(12)
C113_23 C 0.30496(12) 0.61869(11) 0.68150(12)
C114_21 C 0.44504(12) 0.68150(12) 0.63131(11)
C115_18 C 0.38131(11) 0.93150(12) 0.55496(12)
C116_15 C 0.11869(11) 0.94504(12) 0.56850(12)
H62_23 H 0.3073 0.8822 0.6852
H63_23 H 0.3148 0.6178 0.6927
H64_21 H 0.4352 0.6927 0.6322
H65_18 H 0.3822 0.9427 0.5648
H66_15 H 0.1178 0.9352 0.5573
C117_23 C 0.32345(14) 0.89817(12) 0.70774(13)
C118_23 C 0.29226(13) 0.60183(12) 0.67655(14)
C119_21 C 0.45774(13) 0.67655(14) 0.64817(12)
C120_18 C 0.39817(12) 0.92655(14) 0.54226(13)
C121_15 C 0.10183(12) 0.95774(13) 0.57345(14)
H67_23 H 0.3158 0.9109 0.7066
H68_23 H 0.2934 0.5891 0.6842
H69_21 H 0.4566 0.6842 0.6609
H70_18 H 0.4109 0.9342 0.5434
H71_15 H 0.0891 0.9566 0.5658
C122_23 C 0.33960(12) 0.89628(10) 0.72207(11)
C123_23 C 0.27793(11) 0.60372(10) 0.66040(12)
C124_21 C 0.47207(11) 0.66040(12) 0.64628(10)
C125_18 C 0.39628(10) 0.91040(12) 0.52793(11)
C126_15 C 0.10372(10) 0.97207(11) 0.58960(12)
H72_23 H 0.3425 0.9078 0.7311
H73_23 H 0.2689 0.5922 0.6575
H74_21 H 0.4811 0.6575 0.6578
H75_18 H 0.4078 0.9075 0.5189
H76_15 H 0.0922 0.9811 0.5925
C127_14 C 0.41723(11) 0.98302(11) 0.36170(12)
C128_14 C 0.48302(11) 0.86170(12) 0.41723(11)
H77_14 H 0.4161 0.9936 0.3513
H78_14 H 0.4936 0.8513 0.4161
C132_14 C 0.43515(12) 0.97114(14) 0.36236(15)
C133_14 C 0.47114(14) 0.86236(15) 0.43515(12)
H82_14 H 0.4462 0.9737 0.3527
H83_14 H 0.4737 0.8527 0.4462
C137_14 C 0.43690(12) 0.95545(13) 0.37719(13)
C138_14 C 0.45545(13) 0.87719(13) 0.43690(12)
H87_14 H 0.4491 0.9470 0.3780
H88_14 H 0.4470 0.8780 0.4491
C142_14 C 0.42016(10) 0.95234(10) 0.39103(11)
C143_14 C 0.45234(10) 0.89103(11) 0.42016(10)
C147_14 C 0.40283(9) 0.96526(8) 0.38959(9)
C148_14 C 0.46526(8) 0.88959(9) 0.40283(9)
H92_14 H 0.3917 0.9634 0.3993
H93_14 H 0.4634 0.8993 0.3917
C152_14 C 0.43605(10) 0.90736(10) 0.42111(10)
C153_14 C 0.42111(10) 0.93605(10) 0.40736(10)
S2_24 S 0.95064(4) 0.88094(8) 0.75415(4)
N2_24 N 0.90752(8) 0.87739(7) 0.74895(7)
C2_24 C 0.92537(12) 0.87880(12) 0.75110(9)
S8_24 S 0.79936(4) 0.86906(8) 0.75415(4)
N16_24 N 0.84248(8) 0.87261(7) 0.74895(7)
N31_19 N 0.90107(7) 0.98399(7) 0.62391(7)
N38_19 N 0.93919(7) 0.92959(7) 0.65989(7)
N43_19 N 0.90420(7) 0.93836(7) 0.66926(7)
N48_19 N 0.92257(7) 0.91194(8) 0.68807(7)
N53_19 N 0.87099(7) 0.89869(8) 0.72381(7)
C32_24 C 0.82463(12) 0.87120(12) 0.75110(9)
C40_19 C 0.98888(10) 0.87342(10) 0.67760(11)
H20_19 H 0.9998 0.8633 0.6777
C45_19 C 0.97763(11) 0.87654(12) 0.69586(13)
H25_19 H 0.9814 0.8693 0.7083
C50_19 C 0.96088(10) 0.89020(10) 0.69583(12)
H30_19 H 0.9524 0.8920 0.7079
C55_19 C 0.95683(9) 0.90120(8) 0.67750(9)
C60_19 C 0.96957(8) 0.89790(7) 0.66023(8)
H35_19 H 0.9671 0.9061 0.6480
C65_19 C 0.91685(11) 0.98583(11) 0.61019(12)
H40_19 H 0.9157 0.9961 0.5994
C70_19 C 0.93485(12) 0.97360(13) 0.61085(13)
H45_19 H 0.9456 0.9755 0.6007
C75_19 C 0.93692(11) 0.95877(12) 0.62624(11)
H50_19 H 0.9490 0.9500 0.6269
C80_19 C 0.92084(9) 0.95684(9) 0.64104(9)
C85_19 C 0.90339(8) 0.96959(8) 0.63913(8)
H55_19 H 0.8924 0.9681 0.6491
C90_19 C 0.92172(8) 0.94082(8) 0.65778(8)
C95_19 C 0.93865(8) 0.91525(9) 0.67523(8)
C100_19 C 0.90556(8) 0.92374(9) 0.68426(8)
C105_19 C 0.88710(8) 0.90339(9) 0.71148(8)
H60_19 H 0.8995 0.8951 0.7126
C110_19 C 0.88688(9) 0.91970(10) 0.69699(9)
C115_19 C 0.86869(11) 0.93150(12) 0.69504(12)
H65_19 H 0.8678 0.9427 0.6852
C120_19 C 0.85183(12) 0.92655(14) 0.70774(13)
H70_19 H 0.8391 0.9342 0.7066
C125_19 C 0.85372(10) 0.91040(12) 0.72207(11)
H75_19 H 0.8422 0.9075 0.7311
Co1_18 Co 0.5000 0.129081(12) 0.379081(12)
S1_24 S 0.54384(3) 0.17256(3) 0.33635(3)
S2_25 S 0.63094(8) 0.20064(4) 0.24585(4)
N1_24 N 0.52418(6) 0.14419(7) 0.36307(7)
N2_25 N 0.62739(7) 0.15752(8) 0.25105(7)
N3_15 N 0.61605(6) 0.01484(7) 0.34026(7)
N4_17 N 0.51601(7) 0.09893(7) 0.37609(7)
N5_17 N 0.57041(7) 0.06081(7) 0.34011(7)
N6_17 N 0.56164(7) 0.09580(7) 0.33074(7)
N7_17 N 0.58806(8) 0.07743(7) 0.31193(7)
N8_17 N 0.60131(8) 0.12901(7) 0.27619(7)
C1_24 C 0.53286(8) 0.15578(8) 0.35203(9)
C2_25 C 0.62880(12) 0.17537(12) 0.24890(9)
C3_17 C 0.62658(10) 0.01112(10) 0.32240(11)
H1_17 H 0.6367 0.0002 0.3223
C4_17 C 0.62346(12) 0.02237(11) 0.30414(13)
H2_17 H 0.6307 0.0186 0.2917
C5_17 C 0.60980(10) 0.03912(10) 0.30417(12)
H3_17 H 0.6080 0.0476 0.2921
C6_17 C 0.59880(8) 0.04317(9) 0.32250(9)
C7_17 C 0.60210(7) 0.03043(8) 0.33977(8)
H4_17 H 0.5939 0.0329 0.3520
C8_17 C 0.51417(11) 0.08315(11) 0.38981(12)
H5_17 H 0.5039 0.0843 0.4006
C9_17 C 0.52640(13) 0.06515(12) 0.38915(13)
H6_17 H 0.5245 0.0544 0.3993
C10_17 C 0.54123(12) 0.06308(11) 0.37376(11)
H7_17 H 0.5500 0.0510 0.3731
C11_17 C 0.54316(9) 0.07916(9) 0.35896(9)
C12_17 C 0.53041(8) 0.09661(8) 0.36087(8)
H8_17 H 0.5319 0.1076 0.3509
C13_17 C 0.55918(8) 0.07828(8) 0.34222(8)
C14_17 C 0.58475(9) 0.06135(8) 0.32477(8)
C15_17 C 0.57626(9) 0.09444(8) 0.31574(8)
C16_17 C 0.59661(9) 0.11290(8) 0.28852(8)
H9_17 H 0.6049 0.1005 0.2874
C17_17 C 0.58030(10) 0.11312(9) 0.30301(9)
C18_17 C 0.56850(12) 0.13131(11) 0.30496(12)
H10_17 H 0.5573 0.1322 0.3148
C19_17 C 0.57345(14) 0.14817(12) 0.29226(13)
H11_17 H 0.5658 0.1609 0.2934
C20_17 C 0.58960(12) 0.14628(10) 0.27793(11)
H12_17 H 0.5925 0.1578 0.2689
Co5_14 Co 0.620919(12) 0.0000 0.370919(12)
Co9_22 Co 0.6250 0.1250 0.497768(14)
S3_24 S 0.45616(3) 0.08635(3) 0.42256(3)
S6_19 S 0.32744(3) 0.16365(3) 0.45616(3)
S7_19 S 0.41365(3) 0.07744(3) 0.54384(3)
S8_25 S 0.61906(8) 0.04936(4) 0.24585(4)
S9_22 S 0.70064(4) 0.11906(8) 0.50415(4)
S10_22 S 0.54936(4) 0.13094(8) 0.50415(4)
N11_24 N 0.47582(6) 0.11307(7) 0.39419(7)
N14_19 N 0.35581(7) 0.13693(7) 0.47582(6)
N15_19 N 0.38693(7) 0.10581(7) 0.52418(6)
N16_25 N 0.62261(7) 0.09248(8) 0.25105(7)
N17_22 N 0.65752(8) 0.12261(7) 0.49895(7)
N18_22 N 0.59248(8) 0.12739(7) 0.49895(7)
N21_24 N 0.51484(7) 0.13395(6) 0.40974(7)
N22_24 N 0.48516(7) 0.15974(7) 0.38395(6)
N27_17 N 0.34026(7) 0.11605(6) 0.51484(7)
N29_19 N 0.40107(7) 0.12391(7) 0.48399(7)
N30_22 N 0.48399(7) 0.12609(7) 0.34893(7)
N31_20 N 0.73399(7) 0.15107(7) 0.37609(7)
N34_19 N 0.37391(7) 0.15107(7) 0.51601(7)
N35_24 N 0.56081(7) 0.17959(7) 0.40989(7)
N36_24 N 0.43919(7) 0.15989(7) 0.42959(7)
N37_22 N 0.42959(7) 0.09011(7) 0.31081(7)
N38_20 N 0.67959(7) 0.18919(7) 0.34011(7)
N40_24 N 0.59580(7) 0.18836(7) 0.41926(7)
N41_24 N 0.40420(7) 0.16926(7) 0.43836(7)
N42_22 N 0.43836(7) 0.08074(7) 0.34580(7)
N43_20 N 0.68836(7) 0.15420(7) 0.33074(7)
N45_24 N 0.57743(7) 0.16194(8) 0.43807(7)
N46_24 N 0.42257(7) 0.18807(7) 0.41194(8)
N47_22 N 0.41194(8) 0.06193(7) 0.32743(7)
N48_20 N 0.66194(8) 0.17257(7) 0.31193(7)
N50_22 N 0.62901(7) 0.14869(8) 0.47381(7)
N52_22 N 0.39869(8) 0.02619(7) 0.37901(7)
N53_20 N 0.64869(8) 0.12099(7) 0.27619(7)
N55_22 N 0.62099(7) 0.10131(8) 0.47381(7)
N62_22 N 0.62490(8) 0.09894(8) 0.51961(7)
N63_22 N 0.62510(8) 0.15106(8) 0.51961(7)
C27_24 C 0.46714(8) 0.10203(9) 0.40578(8)
C30_19 C 0.34422(8) 0.14797(9) 0.46714(8)
C31_19 C 0.39797(9) 0.09422(8) 0.53286(8)
C32_25 C 0.62120(12) 0.07463(12) 0.24890(9)
C33_22 C 0.67537(12) 0.12120(12) 0.50110(9)
C34_22 C 0.57463(12) 0.12880(12) 0.50110(9)
C37_24 C 0.51112(10) 0.12342(10) 0.42760(11)
C38_24 C 0.48888(10) 0.17760(11) 0.37342(10)
C39_22 C 0.37342(10) 0.07240(11) 0.26112(10)
C40_20 C 0.62342(10) 0.23888(10) 0.32240(11)
H17_24 H 0.5002 0.1133 0.4277
H18_24 H 0.4998 0.1777 0.3633
H19_22 H 0.3633 0.0723 0.2502
H20_20 H 0.6133 0.2498 0.3223
C42_24 C 0.52237(11) 0.12654(12) 0.44586(13)
C43_24 C 0.47763(11) 0.19586(13) 0.37654(12)
C44_22 C 0.37654(12) 0.05414(13) 0.27237(11)
C45_20 C 0.62654(12) 0.22763(11) 0.30414(13)
H22_24 H 0.5186 0.1193 0.4583
H23_24 H 0.4814 0.2083 0.3693
H24_22 H 0.3693 0.0417 0.2686
H25_20 H 0.6193 0.2314 0.2917
C47_24 C 0.53912(10) 0.14020(10) 0.44583(12)
C48_24 C 0.46088(10) 0.19583(12) 0.39020(10)
C49_22 C 0.39020(10) 0.05417(12) 0.28912(10)
C50_20 C 0.64020(10) 0.21088(10) 0.30417(12)
H27_24 H 0.5476 0.1420 0.4579
H28_24 H 0.4524 0.2079 0.3920
H29_22 H 0.3920 0.0421 0.2976
H30_20 H 0.6420 0.2024 0.2921
C52_24 C 0.54317(9) 0.15120(8) 0.42750(9)
C53_24 C 0.45683(9) 0.17750(9) 0.40120(8)
C54_22 C 0.40120(8) 0.07250(9) 0.29317(9)
C55_20 C 0.65120(8) 0.20683(9) 0.32250(9)
C57_24 C 0.53043(8) 0.14790(7) 0.41023(8)
C58_24 C 0.46957(8) 0.16023(8) 0.39790(7)
C59_22 C 0.39790(7) 0.08977(8) 0.28043(8)
C60_20 C 0.64790(7) 0.21957(8) 0.33977(8)
H32_24 H 0.5329 0.1561 0.3980
H33_24 H 0.4671 0.1480 0.4061
H34_22 H 0.4061 0.1020 0.2829
H35_20 H 0.6561 0.2171 0.3520
C62_24 C 0.58315(11) 0.23583(11) 0.36019(12)
C63_24 C 0.41685(11) 0.11019(12) 0.48583(11)
C64_22 C 0.48583(11) 0.13981(12) 0.33315(11)
C65_20 C 0.73583(11) 0.16685(11) 0.38981(12)
H37_24 H 0.5843 0.2461 0.3494
H38_24 H 0.4157 0.0994 0.4961
H39_22 H 0.4961 0.1506 0.3343
H40_20 H 0.7461 0.1657 0.4006
C67_24 C 0.56515(12) 0.22360(13) 0.36085(13)
C68_24 C 0.43485(12) 0.11085(13) 0.47360(13)
C69_22 C 0.47360(13) 0.13915(13) 0.31515(12)
C70_20 C 0.72360(13) 0.18485(12) 0.38915(13)
H42_24 H 0.5544 0.2255 0.3507
H43_24 H 0.4456 0.1007 0.4755
H44_22 H 0.4755 0.1493 0.3044
H45_20 H 0.7255 0.1956 0.3993
C72_24 C 0.56308(11) 0.20877(12) 0.37624(11)
C73_24 C 0.43692(11) 0.12624(11) 0.45877(12)
C74_22 C 0.45877(12) 0.12376(11) 0.31308(11)
C75_20 C 0.70877(12) 0.18692(11) 0.37376(11)
H47_24 H 0.5510 0.2000 0.3769
H48_24 H 0.4490 0.1269 0.4500
H49_22 H 0.4500 0.1231 0.3010
H50_20 H 0.7000 0.1990 0.3731
C77_24 C 0.57916(9) 0.20684(9) 0.39104(9)
C78_24 C 0.42084(9) 0.14104(9) 0.45684(9)
C79_22 C 0.45684(9) 0.10896(9) 0.32916(9)
C80_20 C 0.70684(9) 0.17084(9) 0.35896(9)
C82_24 C 0.59661(8) 0.21959(8) 0.38913(8)
C83_24 C 0.40339(8) 0.13913(8) 0.46959(8)
C84_22 C 0.46959(8) 0.11087(8) 0.34661(8)
C85_20 C 0.71959(8) 0.15339(8) 0.36087(8)
H52_24 H 0.6076 0.2181 0.3991
H53_24 H 0.3924 0.1491 0.4681
H54_22 H 0.4681 0.1009 0.3576
H55_20 H 0.7181 0.1424 0.3509
C87_24 C 0.57828(8) 0.19082(8) 0.40778(8)
C88_24 C 0.42172(8) 0.15778(8) 0.44082(8)
C89_22 C 0.44082(8) 0.09222(8) 0.32828(8)
C90_20 C 0.69082(8) 0.17172(8) 0.34222(8)
C92_24 C 0.56135(8) 0.16525(9) 0.42523(8)
C93_24 C 0.43865(8) 0.17523(8) 0.41525(9)
C94_22 C 0.41525(9) 0.07477(8) 0.31135(8)
C95_20 C 0.66525(9) 0.18865(8) 0.32477(8)
C97_24 C 0.59444(8) 0.17374(9) 0.43426(8)
C98_24 C 0.40556(8) 0.18426(8) 0.42374(9)
C99_22 C 0.42374(9) 0.06574(8) 0.34444(8)
C100_20 C 0.67374(9) 0.15556(8) 0.31574(8)
C102_24 C 0.61290(8) 0.15339(9) 0.46148(8)
C103_24 C 0.38710(8) 0.21148(8) 0.40339(9)
C104_22 C 0.40339(9) 0.03852(8) 0.36290(8)
C105_20 C 0.65339(9) 0.13710(8) 0.28852(8)
H57_24 H 0.6005 0.1451 0.4626
H58_24 H 0.3995 0.2126 0.3951
H59_22 H 0.3951 0.0374 0.3505
H60_20 H 0.6451 0.1495 0.2874
C107_24 C 0.61312(9) 0.16970(10) 0.44699(9)
C108_24 C 0.38688(9) 0.19699(9) 0.41970(10)
C109_22 C 0.41970(10) 0.05301(9) 0.36312(9)
C110_20 C 0.66970(10) 0.13688(9) 0.30301(9)
C112_24 C 0.63131(11) 0.18150(12) 0.44504(12)
C113_24 C 0.36869(11) 0.19504(12) 0.43150(12)
C114_22 C 0.43150(12) 0.05496(12) 0.38131(11)
C115_20 C 0.68150(12) 0.11869(11) 0.30496(12)
H62_24 H 0.6322 0.1927 0.4352
H63_24 H 0.3678 0.1852 0.4427
H64_22 H 0.4427 0.0648 0.3822
H65_20 H 0.6927 0.1178 0.3148
C117_24 C 0.64817(12) 0.17655(14) 0.45774(13)
C118_24 C 0.35183(12) 0.20774(13) 0.42655(14)
C119_22 C 0.42655(14) 0.04226(13) 0.39817(12)
C120_20 C 0.67655(14) 0.10183(12) 0.29226(13)
H67_24 H 0.6609 0.1842 0.4566
H68_24 H 0.3391 0.2066 0.4342
H69_22 H 0.4342 0.0434 0.4109
H70_20 H 0.6842 0.0891 0.2934
C122_24 C 0.64628(10) 0.16040(12) 0.47207(11)
C123_24 C 0.35372(10) 0.22207(11) 0.41040(12)
C124_22 C 0.41040(12) 0.02793(11) 0.39628(10)
C125_20 C 0.66040(12) 0.10372(10) 0.27793(11)
H72_24 H 0.6578 0.1575 0.4811
H73_24 H 0.3422 0.2311 0.4075
H74_22 H 0.4075 0.0189 0.4078
H75_20 H 0.6575 0.0922 0.2689
Co5_15 Co 0.620919(12) 1.0000 0.370919(12)
S7_20 S 0.04384(3) 0.41365(3) 0.57744(3)
N15_20 N 0.02418(6) 0.38693(7) 0.60581(7)
N27_18 N 0.01484(7) 0.34026(7) 0.61605(6)
N34_20 N 0.01601(7) 0.37391(7) 0.65107(7)
C31_20 C 0.03286(8) 0.39797(9) 0.59422(8)
S1_25 S 0.83635(3) 0.54384(3) 0.67256(3)
N1_25 N 0.86307(7) 0.52418(6) 0.64419(7)
C1_25 C 0.85203(9) 0.53286(8) 0.65578(8)
S3_25 S 0.92256(3) 0.45616(3) 0.58635(3)
S4_17 S 0.91365(3) 0.67256(3) 0.70616(3)
S5_17 S 0.82744(3) 0.58635(3) 0.79384(3)
S6_20 S 0.95616(3) 0.32744(3) 0.66365(3)
N11_25 N 0.89419(7) 0.47582(6) 0.61307(7)
N12_17 N 0.88693(7) 0.64419(7) 0.72582(6)
N13_17 N 0.85581(7) 0.61307(7) 0.77418(6)
N14_20 N 0.97582(6) 0.35581(7) 0.63693(7)
N21_25 N 0.90974(7) 0.51484(7) 0.63395(6)
N22_25 N 0.88395(6) 0.48516(7) 0.65974(7)
N25_14 N 0.86605(6) 0.65974(7) 0.76484(7)
N28_17 N 0.87391(7) 0.59893(7) 0.73399(7)
N29_20 N 0.98399(7) 0.40107(7) 0.62391(7)
N30_23 N 0.84893(7) 0.48399(7) 0.62609(7)
N32_16 N 0.76601(7) 0.62391(7) 0.84893(7)
N33_17 N 0.90107(7) 0.62609(7) 0.76601(7)
N35_25 N 0.90989(7) 0.56081(7) 0.67959(7)
N36_25 N 0.92959(7) 0.43919(7) 0.65989(7)
N37_23 N 0.81081(7) 0.42959(7) 0.59011(7)
N39_16 N 0.82041(7) 0.65989(7) 0.81081(7)
N40_25 N 0.91926(7) 0.59580(7) 0.68836(7)
N41_25 N 0.93836(7) 0.40420(7) 0.66926(7)
N42_23 N 0.84580(7) 0.43836(7) 0.58074(7)
N44_16 N 0.81164(7) 0.66926(7) 0.84580(7)
N45_25 N 0.93807(7) 0.57743(7) 0.66194(8)
N46_25 N 0.91194(8) 0.42257(7) 0.68807(7)
N47_23 N 0.82743(7) 0.41194(8) 0.56193(7)
N49_16 N 0.83806(8) 0.68807(7) 0.82743(7)
N52_23 N 0.87901(7) 0.39869(8) 0.52619(7)
N54_16 N 0.85131(8) 0.72381(7) 0.87901(7)
C27_25 C 0.90578(8) 0.46714(8) 0.60203(9)
C28_17 C 0.89797(9) 0.65578(8) 0.71714(8)
C29_17 C 0.84422(8) 0.60203(9) 0.78286(8)
C30_20 C 0.96714(8) 0.34422(8) 0.64797(9)
C37_25 C 0.92760(11) 0.51112(10) 0.62342(10)
C38_25 C 0.87342(10) 0.48888(10) 0.67760(11)
C39_23 C 0.76112(10) 0.37342(10) 0.57240(11)
C41_16 C 0.87658(10) 0.67760(11) 0.76112(10)
H17_25 H 0.9277 0.5002 0.6133
H18_25 H 0.8633 0.4998 0.6777
H19_23 H 0.7502 0.3633 0.5723
H21_16 H 0.8867 0.6777 0.7502
C42_25 C 0.94586(13) 0.52237(11) 0.62654(12)
C43_25 C 0.87654(12) 0.47763(11) 0.69586(13)
C44_23 C 0.77237(11) 0.37654(12) 0.55414(13)
C46_16 C 0.87346(12) 0.69586(13) 0.77237(11)
H22_25 H 0.9583 0.5186 0.6193
H23_25 H 0.8693 0.4814 0.7083
H24_23 H 0.7686 0.3693 0.5417
H26_16 H 0.8807 0.7083 0.7686
C47_25 C 0.94583(12) 0.53912(10) 0.64020(10)
C48_25 C 0.89020(10) 0.46088(10) 0.69583(12)
C49_23 C 0.78912(10) 0.39020(10) 0.55417(12)
C51_16 C 0.85980(10) 0.69583(12) 0.78912(10)
H27_25 H 0.9579 0.5476 0.6420
H28_25 H 0.8920 0.4524 0.7079
H29_23 H 0.7976 0.3920 0.5421
H31_16 H 0.8580 0.7079 0.7976
C52_25 C 0.92750(9) 0.54317(9) 0.65120(8)
C53_25 C 0.90120(8) 0.45683(9) 0.67750(9)
C54_23 C 0.79317(9) 0.40120(8) 0.57250(9)
C56_16 C 0.84880(8) 0.67750(9) 0.79317(9)
C57_25 C 0.91023(8) 0.53043(8) 0.64790(7)
C58_25 C 0.89790(7) 0.46957(8) 0.66023(8)
C59_23 C 0.78043(8) 0.39790(7) 0.58977(8)
C61_16 C 0.85210(7) 0.66023(8) 0.78043(8)
H32_25 H 0.8980 0.5329 0.6561
H33_25 H 0.9061 0.4671 0.6480
H34_23 H 0.7829 0.4061 0.6020
H36_16 H 0.8439 0.6480 0.7829
C62_25 C 0.86019(12) 0.58315(11) 0.73583(11)
C63_25 C 0.98583(11) 0.41685(11) 0.61019(12)
C64_23 C 0.83315(11) 0.48583(11) 0.63981(12)
C66_16 C 0.76417(11) 0.61019(12) 0.83315(11)
H37_25 H 0.8494 0.5843 0.7461
H38_25 H 0.9961 0.4157 0.5994
H39_23 H 0.8343 0.4961 0.6506
H41_16 H 0.7539 0.5994 0.8343
C67_25 C 0.86085(13) 0.56515(12) 0.72360(13)
C68_25 C 0.97360(13) 0.43485(12) 0.61085(13)
C69_23 C 0.81515(12) 0.47360(13) 0.63915(13)
C71_16 C 0.77640(13) 0.61085(13) 0.81515(12)
H42_25 H 0.8507 0.5544 0.7255
H43_25 H 0.9755 0.4456 0.6007
H44_23 H 0.8044 0.4755 0.6493
H46_16 H 0.7745 0.6007 0.8044
C72_25 C 0.87624(11) 0.56308(11) 0.70877(12)
C73_25 C 0.95877(12) 0.43692(11) 0.62624(11)
C74_23 C 0.81308(11) 0.45877(12) 0.62376(11)
C76_16 C 0.79123(12) 0.62624(11) 0.81308(11)
H47_25 H 0.8769 0.5510 0.7000
H48_25 H 0.9500 0.4490 0.6269
H49_23 H 0.8010 0.4500 0.6231
H51_16 H 0.8000 0.6269 0.8010
C77_25 C 0.89104(9) 0.57916(9) 0.70684(9)
C78_25 C 0.95684(9) 0.42084(9) 0.64104(9)
C79_23 C 0.82916(9) 0.45684(9) 0.60896(9)
C81_16 C 0.79316(9) 0.64104(9) 0.82916(9)
C82_25 C 0.88913(8) 0.59661(8) 0.71959(8)
C83_25 C 0.96959(8) 0.40339(8) 0.63913(8)
C84_23 C 0.84661(8) 0.46959(8) 0.61087(8)
C86_16 C 0.78041(8) 0.63913(8) 0.84661(8)
H52_25 H 0.8991 0.6076 0.7181
H53_25 H 0.9681 0.3924 0.6491
H54_23 H 0.8576 0.4681 0.6009
H56_16 H 0.7819 0.6491 0.8576
C87_25 C 0.90778(8) 0.57828(8) 0.69082(8)
C88_25 C 0.94082(8) 0.42172(8) 0.65778(8)
C89_23 C 0.82828(8) 0.44082(8) 0.59222(8)
C91_16 C 0.80918(8) 0.65778(8) 0.82828(8)
C92_25 C 0.92523(8) 0.56135(8) 0.66525(9)
C93_25 C 0.91525(9) 0.43865(8) 0.67523(8)
C94_23 C 0.81135(8) 0.41525(9) 0.57477(8)
C96_16 C 0.83475(9) 0.67523(8) 0.81135(8)
C97_25 C 0.93426(8) 0.59444(8) 0.67374(9)
C98_25 C 0.92374(9) 0.40556(8) 0.68426(8)
C99_23 C 0.84444(8) 0.42374(9) 0.56574(8)
C101_16 C 0.82626(9) 0.68426(8) 0.84444(8)
C102_25 C 0.96148(8) 0.61290(8) 0.65339(9)
C103_25 C 0.90339(9) 0.38710(8) 0.71148(8)
C104_23 C 0.86290(8) 0.40339(9) 0.53852(8)
C106_16 C 0.84661(9) 0.71148(8) 0.86290(8)
H57_25 H 0.9626 0.6005 0.6451
H58_25 H 0.8951 0.3995 0.7126
H59_23 H 0.8505 0.3951 0.5374
H61_16 H 0.8549 0.7126 0.8505
C107_25 C 0.94699(9) 0.61312(9) 0.66970(10)
C108_25 C 0.91970(10) 0.38688(9) 0.69699(9)
C109_23 C 0.86312(9) 0.41970(10) 0.55301(9)
C111_16 C 0.83030(10) 0.69699(9) 0.86312(9)
C112_25 C 0.94504(12) 0.63131(11) 0.68150(12)
C113_25 C 0.93150(12) 0.36869(11) 0.69504(12)
C114_23 C 0.88131(11) 0.43150(12) 0.55496(12)
C116_16 C 0.81850(12) 0.69504(12) 0.88131(11)
H62_25 H 0.9352 0.6322 0.6927
H63_25 H 0.9427 0.3678 0.6852
H64_23 H 0.8822 0.4427 0.5648
H66_16 H 0.8073 0.6852 0.8822
C117_25 C 0.95774(13) 0.64817(12) 0.67655(14)
C118_25 C 0.92655(14) 0.35183(12) 0.70774(13)
C119_23 C 0.89817(12) 0.42655(14) 0.54226(13)
C121_16 C 0.82345(14) 0.70774(13) 0.89817(12)
H67_25 H 0.9566 0.6609 0.6842
H68_25 H 0.9342 0.3391 0.7066
H69_23 H 0.9109 0.4342 0.5434
H71_16 H 0.8158 0.7066 0.9109
C122_25 C 0.97207(11) 0.64628(10) 0.66040(12)
C123_25 C 0.91040(12) 0.35372(10) 0.72207(11)
C124_23 C 0.89628(10) 0.41040(12) 0.52793(11)
C126_16 C 0.83960(12) 0.72207(11) 0.89628(10)
H72_25 H 0.9811 0.6578 0.6575
H73_25 H 0.9075 0.3422 0.7311
H74_23 H 0.9078 0.4075 0.5189
H76_16 H 0.8425 0.7311 0.9078
S1_26 S 0.16365(3) 0.42256(3) 0.79384(3)
S2_26 S 0.25415(4) 0.45064(4) 0.88094(8)
N1_26 N 0.13693(7) 0.39419(7) 0.77418(6)
N2_26 N 0.24895(7) 0.40752(8) 0.87739(7)
N4_18 N 0.12391(7) 0.34893(7) 0.76601(7)
N5_18 N 0.15989(7) 0.31081(7) 0.82041(7)
N6_18 N 0.16926(7) 0.34580(7) 0.81164(7)
N7_18 N 0.18807(7) 0.32743(7) 0.83806(8)
N8_18 N 0.22381(7) 0.37901(7) 0.85131(8)
C1_26 C 0.14797(9) 0.40578(8) 0.78286(8)
C2_26 C 0.25110(9) 0.42537(12) 0.87880(12)
C3_18 C 0.17760(11) 0.26112(10) 0.87658(10)
H1_18 H 0.1777 0.2502 0.8867
C4_18 C 0.19586(13) 0.27237(11) 0.87346(12)
H2_18 H 0.2083 0.2686 0.8807
C5_18 C 0.19583(12) 0.28912(10) 0.85980(10)
H3_18 H 0.2079 0.2976 0.8580
C6_18 C 0.17750(9) 0.29317(9) 0.84880(8)
C7_18 C 0.16023(8) 0.28043(8) 0.85210(7)
H4_18 H 0.1480 0.2829 0.8439
C8_18 C 0.11019(12) 0.33315(11) 0.76417(11)
H5_18 H 0.0994 0.3343 0.7539
C9_18 C 0.11085(13) 0.31515(12) 0.77640(13)
H6_18 H 0.1007 0.3044 0.7745
C10_18 C 0.12624(11) 0.31308(11) 0.79123(12)
H7_18 H 0.1269 0.3010 0.8000
C11_18 C 0.14104(9) 0.32916(9) 0.79316(9)
C12_18 C 0.13913(8) 0.34661(8) 0.78041(8)
H8_18 H 0.1491 0.3576 0.7819
C13_18 C 0.15778(8) 0.32828(8) 0.80918(8)
C14_18 C 0.17523(8) 0.31135(8) 0.83475(9)
C15_18 C 0.18426(8) 0.34444(8) 0.82626(9)
C16_18 C 0.21148(8) 0.36290(8) 0.84661(9)
H9_18 H 0.2126 0.3505 0.8549
C17_18 C 0.19699(9) 0.36312(9) 0.83030(10)
C18_18 C 0.19504(12) 0.38131(11) 0.81850(12)
H10_18 H 0.1852 0.3822 0.8073
C19_18 C 0.20774(13) 0.39817(12) 0.82345(14)
H11_18 H 0.2066 0.4109 0.8158
C20_18 C 0.22207(11) 0.39628(10) 0.83960(12)
H12_18 H 0.2311 0.4078 0.8425
Co9_23 Co 0.002232(14) 0.3750 0.8750
Co10_17 Co 0.1250 0.497768(14) 0.6250
S3_26 S 0.07744(3) 0.33635(3) 0.70616(3)
S4_18 S 0.08635(3) 0.45616(3) 0.92256(3)
S5_18 S 0.17256(3) 0.54384(3) 0.83635(3)
S8_26 S 0.25415(4) 0.29936(4) 0.86906(8)
S11_17 S 0.13094(8) 0.50415(4) 0.54936(4)
S12_17 S 0.11906(8) 0.50415(4) 0.70064(4)
N11_26 N 0.10581(7) 0.36307(7) 0.72582(6)
N12_18 N 0.11307(7) 0.47582(6) 0.89419(7)
N13_18 N 0.14419(7) 0.52418(6) 0.86307(7)
N16_26 N 0.24895(7) 0.34248(8) 0.87261(7)
N17_23 N 0.00105(7) 0.37261(7) 0.90752(8)
N18_23 N 0.00105(7) 0.37739(7) 0.84248(8)
N19_17 N 0.12739(7) 0.49895(7) 0.59248(8)
N20_17 N 0.12261(7) 0.49895(7) 0.65752(8)
N21_26 N 0.09026(7) 0.38395(6) 0.76484(7)
N22_26 N 0.11605(6) 0.40974(7) 0.73516(7)
N24_15 N 0.15974(7) 0.48516(7) 0.88395(6)
N28_18 N 0.12609(7) 0.48399(7) 0.84893(7)
N31_21 N 0.12391(7) 0.40107(7) 0.98399(7)
N33_18 N 0.09893(7) 0.51601(7) 0.87609(7)
N35_26 N 0.09011(7) 0.42959(7) 0.81081(7)
N36_26 N 0.07041(7) 0.40989(7) 0.68919(7)
N38_21 N 0.15989(7) 0.43919(7) 0.92959(7)
N40_26 N 0.08074(7) 0.43836(7) 0.84580(7)
N41_26 N 0.06164(7) 0.41926(7) 0.65420(7)
N43_21 N 0.16926(7) 0.40420(7) 0.93836(7)
N45_26 N 0.06193(7) 0.41194(8) 0.82743(7)
N46_26 N 0.08806(8) 0.43807(7) 0.67257(7)
N48_21 N 0.18807(7) 0.42257(7) 0.91194(8)
N50_23 N 0.02619(7) 0.39869(8) 0.87901(7)
N51_17 N 0.10131(8) 0.47381(7) 0.62099(7)
N53_21 N 0.22381(7) 0.37099(7) 0.89869(8)
N55_23 N 0.02619(7) 0.35131(8) 0.87099(7)
N56_17 N 0.14869(8) 0.47381(7) 0.62901(7)
N64_17 N 0.15106(8) 0.51961(7) 0.62510(8)
N65_17 N 0.09894(8) 0.51961(7) 0.62490(8)
C27_26 C 0.09422(8) 0.35203(9) 0.71714(8)
C28_18 C 0.10203(9) 0.46714(8) 0.90578(8)
C29_18 C 0.15578(8) 0.53286(8) 0.85203(9)
C32_26 C 0.25110(9) 0.32463(12) 0.87120(12)
C35_17 C 0.12880(12) 0.50110(9) 0.57463(12)
C36_17 C 0.12120(12) 0.50110(9) 0.67537(12)
C37_26 C 0.07240(11) 0.37342(10) 0.76112(10)
C38_26 C 0.12658(10) 0.42760(11) 0.73888(10)
C40_21 C 0.17760(11) 0.48888(10) 0.87342(10)
H17_26 H 0.0723 0.3633 0.7502
H18_26 H 0.1367 0.4277 0.7498
H20_21 H 0.1777 0.4998 0.8633
C42_26 C 0.05414(13) 0.37654(12) 0.77237(11)
C43_26 C 0.12346(12) 0.44586(13) 0.72763(11)
C45_21 C 0.19586(13) 0.47763(11) 0.87654(12)
H22_26 H 0.0417 0.3693 0.7686
H23_26 H 0.1307 0.4583 0.7314
H25_21 H 0.2083 0.4814 0.8693
C47_26 C 0.05417(12) 0.39020(10) 0.78912(10)
C48_26 C 0.10980(10) 0.44583(12) 0.71088(10)
C50_21 C 0.19583(12) 0.46088(10) 0.89020(10)
H27_26 H 0.0421 0.3920 0.7976
H28_26 H 0.1080 0.4579 0.7024
H30_21 H 0.2079 0.4524 0.8920
C52_26 C 0.07250(9) 0.40120(8) 0.79317(9)
C53_26 C 0.09880(8) 0.42750(9) 0.70683(9)
C55_21 C 0.17750(9) 0.45683(9) 0.90120(8)
C57_26 C 0.08977(8) 0.39790(7) 0.78043(8)
C58_26 C 0.10210(7) 0.41023(8) 0.71957(8)
C60_21 C 0.16023(8) 0.46957(8) 0.89790(7)
H32_26 H 0.1020 0.4061 0.7829
H33_26 H 0.0939 0.3980 0.7171
H35_21 H 0.1480 0.4671 0.9061
C62_26 C 0.13981(12) 0.48583(11) 0.83315(11)
C63_26 C 0.01417(11) 0.36019(12) 0.66685(11)
C65_21 C 0.11019(12) 0.41685(11) 0.98583(11)
H37_26 H 0.1506 0.4961 0.8343
H38_26 H 0.0039 0.3494 0.6657
H40_21 H 0.0994 0.4157 0.9961
C67_26 C 0.13915(13) 0.47360(13) 0.81515(12)
C68_26 C 0.02640(13) 0.36085(13) 0.68485(12)
C70_21 C 0.11085(13) 0.43485(12) 0.97360(13)
H42_26 H 0.1493 0.4755 0.8044
H43_26 H 0.0245 0.3507 0.6956
H45_21 H 0.1007 0.4456 0.9755
C72_26 C 0.12376(11) 0.45877(12) 0.81308(11)
C73_26 C 0.04123(12) 0.37624(11) 0.68692(11)
C75_21 C 0.12624(11) 0.43692(11) 0.95877(12)
H47_26 H 0.1231 0.4500 0.8010
H48_26 H 0.0500 0.3769 0.6990
H50_21 H 0.1269 0.4490 0.9500
C77_26 C 0.10896(9) 0.45684(9) 0.82916(9)
C78_26 C 0.04316(9) 0.39104(9) 0.67084(9)
C80_21 C 0.14104(9) 0.42084(9) 0.95684(9)
C82_26 C 0.11087(8) 0.46959(8) 0.84661(8)
C83_26 C 0.03041(8) 0.38913(8) 0.65339(8)
C85_21 C 0.13913(8) 0.40339(8) 0.96959(8)
H52_26 H 0.1009 0.4681 0.8576
H53_26 H 0.0319 0.3991 0.6424
H55_21 H 0.1491 0.3924 0.9681
C87_26 C 0.09222(8) 0.44082(8) 0.82828(8)
C88_26 C 0.05918(8) 0.40778(8) 0.67172(8)
C90_21 C 0.15778(8) 0.42172(8) 0.94082(8)
C92_26 C 0.07477(8) 0.41525(9) 0.81135(8)
C93_26 C 0.08475(9) 0.42523(8) 0.68865(8)
C95_21 C 0.17523(8) 0.43865(8) 0.91525(9)
C97_26 C 0.06574(8) 0.42374(9) 0.84444(8)
C98_26 C 0.07626(9) 0.43426(8) 0.65556(8)
C100_21 C 0.18426(8) 0.40556(8) 0.92374(9)
C102_26 C 0.03852(8) 0.40339(9) 0.86290(8)
C103_26 C 0.09661(9) 0.46148(8) 0.63710(8)
C105_21 C 0.21148(8) 0.38710(8) 0.90339(9)
H57_26 H 0.0374 0.3951 0.8505
H58_26 H 0.1049 0.4626 0.6495
H60_21 H 0.2126 0.3995 0.8951
C107_26 C 0.05301(9) 0.41970(10) 0.86312(9)
C108_26 C 0.08030(10) 0.44699(9) 0.63688(9)
C110_21 C 0.19699(9) 0.38688(9) 0.91970(10)
C112_26 C 0.05496(12) 0.43150(12) 0.88131(11)
C113_26 C 0.06850(12) 0.44504(12) 0.61869(11)
C115_21 C 0.19504(12) 0.36869(11) 0.93150(12)
H62_26 H 0.0648 0.4427 0.8822
H63_26 H 0.0573 0.4352 0.6178
H65_21 H 0.1852 0.3678 0.9427
C117_26 C 0.04226(13) 0.42655(14) 0.89817(12)
C118_26 C 0.07345(14) 0.45774(13) 0.60183(12)
C120_21 C 0.20774(13) 0.35183(12) 0.92655(14)
H67_26 H 0.0434 0.4342 0.9109
H68_26 H 0.0658 0.4566 0.5891
H70_21 H 0.2066 0.3391 0.9342
C122_26 C 0.02793(11) 0.41040(12) 0.89628(10)
C123_26 C 0.08960(12) 0.47207(11) 0.60372(10)
C125_21 C 0.22207(11) 0.35372(10) 0.91040(12)
H72_26 H 0.0189 0.4075 0.9078
H73_26 H 0.0925 0.4811 0.5922
H75_21 H 0.2311 0.3422 0.9075
S9_23 S 0.99585(4) 0.36906(8) 0.95064(4)
S10_23 S 0.99585(4) 0.38094(8) 0.79936(4)
N62_23 N 0.98039(7) 0.34894(8) 0.87490(8)
N63_23 N 0.98039(7) 0.40106(8) 0.87510(8)
C33_23 C 0.99890(9) 0.37120(12) 0.92537(12)
C34_23 C 0.99890(9) 0.37880(12) 0.82463(12)
S3_27 S 0.91365(3) 0.04384(3) 0.57744(3)
S6_21 S 0.83635(3) 0.17256(3) 0.54384(3)
S7_21 S 0.92256(3) 0.08635(3) 0.45616(3)
N11_27 N 0.88693(7) 0.02418(6) 0.60581(7)
N14_21 N 0.86307(7) 0.14419(7) 0.52418(6)
N15_21 N 0.89419(7) 0.11307(7) 0.47582(6)
N22_27 N 0.84026(7) 0.01484(7) 0.61605(6)
N27_19 N 0.88395(6) 0.15974(7) 0.48516(7)
N29_21 N 0.87609(7) 0.09893(7) 0.51601(7)
N34_21 N 0.84893(7) 0.12609(7) 0.48399(7)
N36_27 N 0.84011(7) 0.06081(7) 0.57041(7)
N41_27 N 0.83074(7) 0.09580(7) 0.56164(7)
N46_27 N 0.81193(7) 0.07743(7) 0.58806(8)
C27_27 C 0.89797(9) 0.03286(8) 0.59422(8)
C30_21 C 0.85203(9) 0.15578(8) 0.53286(8)
C31_21 C 0.90578(8) 0.10203(9) 0.46714(8)
C38_27 C 0.82240(11) 0.01112(10) 0.62658(10)
H18_27 H 0.8223 0.0002 0.6367
C43_27 C 0.80414(13) 0.02237(11) 0.62346(12)
H23_27 H 0.7917 0.0186 0.6307
C48_27 C 0.80417(12) 0.03912(10) 0.60980(10)
H28_27 H 0.7921 0.0476 0.6080
C53_27 C 0.82250(9) 0.04317(9) 0.59880(8)
C58_27 C 0.83977(8) 0.03043(8) 0.60210(7)
H33_27 H 0.8520 0.0329 0.5939
C63_27 C 0.88981(12) 0.08315(11) 0.51417(11)
H38_27 H 0.9006 0.0843 0.5039
C68_27 C 0.88915(13) 0.06515(12) 0.52640(13)
H43_27 H 0.8993 0.0544 0.5245
C73_27 C 0.87376(11) 0.06308(11) 0.54123(12)
H48_27 H 0.8731 0.0510 0.5500
C78_27 C 0.85896(9) 0.07916(9) 0.54316(9)
C83_27 C 0.86087(8) 0.09661(8) 0.53041(8)
H53_27 H 0.8509 0.1076 0.5319
C88_27 C 0.84222(8) 0.07828(8) 0.55918(8)
C93_27 C 0.82477(8) 0.06135(8) 0.58475(9)
C98_27 C 0.81574(8) 0.09444(8) 0.57626(9)
C103_27 C 0.78852(8) 0.11290(8) 0.59661(9)
H58_27 H 0.7874 0.1005 0.6049
C108_27 C 0.80301(9) 0.11312(9) 0.58030(10)
C113_27 C 0.80496(12) 0.13131(11) 0.56850(12)
H63_27 H 0.8148 0.1322 0.5573
C118_27 C 0.79226(13) 0.14817(12) 0.57345(14)
H68_27 H 0.7934 0.1609 0.5658
C123_27 C 0.77793(11) 0.14628(10) 0.58960(12)
H73_27 H 0.7689 0.1578 0.5925
S1_27 S 0.82744(3) 0.95616(3) 0.66365(3)
N1_27 N 0.85581(7) 0.97582(6) 0.63693(7)
C1_27 C 0.84422(8) 0.96714(8) 0.64797(9)
S4_19 S 0.79384(3) 0.82744(3) 0.58635(3)
S5_19 S 0.70616(3) 0.91365(3) 0.67256(3)
N12_19 N 0.77418(6) 0.85581(7) 0.61307(7)
N13_19 N 0.72582(6) 0.88693(7) 0.64419(7)
N21_27 N 0.86605(6) 0.98516(7) 0.59026(7)
N28_19 N 0.76601(7) 0.90107(7) 0.62609(7)
N33_19 N 0.73399(7) 0.87391(7) 0.59893(7)
N35_27 N 0.82041(7) 0.93919(7) 0.59011(7)
N40_27 N 0.81164(7) 0.90420(7) 0.58074(7)
N45_27 N 0.83806(8) 0.92257(7) 0.56193(7)
C28_19 C 0.78286(8) 0.84422(8) 0.60203(9)
C29_19 C 0.71714(8) 0.89797(9) 0.65578(8)
C37_27 C 0.87658(10) 0.98888(10) 0.57240(11)
H17_27 H 0.8867 0.9998 0.5723
C42_27 C 0.87346(12) 0.97763(11) 0.55414(13)
H22_27 H 0.8807 0.9814 0.5417
C47_27 C 0.85980(10) 0.96088(10) 0.55417(12)
H27_27 H 0.8580 0.9524 0.5421
C52_27 C 0.84880(8) 0.95683(9) 0.57250(9)
C57_27 C 0.85210(7) 0.96957(8) 0.58977(8)
H32_27 H 0.8439 0.9671 0.6020
C62_27 C 0.76417(11) 0.91685(11) 0.63981(12)
H37_27 H 0.7539 0.9157 0.6506
C67_27 C 0.77640(13) 0.93485(12) 0.63915(13)
H42_27 H 0.7745 0.9456 0.6493
C72_27 C 0.79123(12) 0.93692(11) 0.62376(11)
H47_27 H 0.8000 0.9490 0.6231
C77_27 C 0.79316(9) 0.92084(9) 0.60896(9)
C82_27 C 0.78041(8) 0.90339(8) 0.61087(8)
H52_27 H 0.7819 0.8924 0.6009
C87_27 C 0.80918(8) 0.92172(8) 0.59222(8)
C92_27 C 0.83475(9) 0.93865(8) 0.57477(8)
C97_27 C 0.82626(9) 0.90556(8) 0.56574(8)
C102_27 C 0.84661(9) 0.88710(8) 0.53852(8)
H57_27 H 0.8549 0.8995 0.5374
C107_27 C 0.83030(10) 0.88688(9) 0.55301(9)
C112_27 C 0.81850(12) 0.86869(11) 0.55496(12)
H62_27 H 0.8073 0.8678 0.5648
C117_27 C 0.82345(14) 0.85183(12) 0.54226(13)
H67_27 H 0.8158 0.8391 0.5434
C122_27 C 0.83960(12) 0.85372(10) 0.52793(11)
H72_27 H 0.8425 0.8422 0.5189
S7_22 S 0.83635(3) 0.67256(3) 0.04384(3)
N15_22 N 0.86307(7) 0.64419(7) 0.02418(6)
N34_22 N 0.87609(7) 0.59893(7) 0.01601(7)
C31_22 C 0.85203(9) 0.65578(8) 0.03286(8)
S1_28 S 0.70616(3) 0.57744(3) 0.83635(3)
N1_28 N 0.72582(6) 0.60581(7) 0.86307(7)
C1_28 C 0.71714(8) 0.59422(8) 0.85203(9)
Co10_18 Co 0.8750 0.502232(14) 0.8750
S3_28 S 0.79384(3) 0.66365(3) 0.92256(3)
S4_20 S 0.57744(3) 0.54384(3) 0.91365(3)
S5_20 S 0.66365(3) 0.45616(3) 0.82744(3)
S6_22 S 0.92256(3) 0.58635(3) 0.95616(3)
S11_18 S 0.95064(4) 0.49585(4) 0.86906(8)
S12_18 S 0.79936(4) 0.49585(4) 0.88094(8)
N11_28 N 0.77418(6) 0.63693(7) 0.89419(7)
N12_20 N 0.60581(7) 0.52418(6) 0.88693(7)
N13_20 N 0.63693(7) 0.47582(6) 0.85581(7)
N14_22 N 0.89419(7) 0.61307(7) 0.97582(6)
N19_18 N 0.90752(8) 0.50105(7) 0.87261(7)
N20_18 N 0.84248(8) 0.50105(7) 0.87739(7)
N21_28 N 0.73516(7) 0.61605(6) 0.90974(7)
N22_28 N 0.76484(7) 0.59026(7) 0.88395(6)
N25_15 N 0.59026(7) 0.48516(7) 0.86605(6)
N26_13 N 0.88395(6) 0.65974(7) 0.98516(7)
N28_20 N 0.65107(7) 0.51601(7) 0.87391(7)
N29_22 N 0.84893(7) 0.62609(7) 0.98399(7)
N32_17 N 0.62609(7) 0.40107(7) 0.76601(7)
N33_20 N 0.62391(7) 0.48399(7) 0.90107(7)
N35_28 N 0.68919(7) 0.57041(7) 0.90989(7)
N36_28 N 0.81081(7) 0.59011(7) 0.92959(7)
N39_17 N 0.59011(7) 0.43919(7) 0.82041(7)
N40_28 N 0.65420(7) 0.56164(7) 0.91926(7)
N41_28 N 0.84580(7) 0.58074(7) 0.93836(7)
N44_17 N 0.58074(7) 0.40420(7) 0.81164(7)
N45_28 N 0.67257(7) 0.58806(8) 0.93807(7)
N46_28 N 0.82743(7) 0.56193(7) 0.91194(8)
N49_17 N 0.56193(7) 0.42257(7) 0.83806(8)
N51_18 N 0.87901(7) 0.52619(7) 0.89869(8)
N54_17 N 0.52619(7) 0.37099(7) 0.85131(8)
N56_18 N 0.87099(7) 0.52619(7) 0.85131(8)
N64_18 N 0.87490(8) 0.48039(7) 0.84894(8)
N65_18 N 0.87510(8) 0.48039(7) 0.90106(8)
C27_28 C 0.78286(8) 0.64797(9) 0.90578(8)
C28_20 C 0.59422(8) 0.53286(8) 0.89797(9)
C29_20 C 0.64797(9) 0.46714(8) 0.84422(8)
C30_22 C 0.90578(8) 0.60203(9) 0.96714(8)
C35_18 C 0.92537(12) 0.49890(9) 0.87120(12)
C36_18 C 0.82463(12) 0.49890(9) 0.87880(12)
C37_28 C 0.73888(10) 0.62658(10) 0.92760(11)
C38_28 C 0.76112(10) 0.57240(11) 0.87342(10)
C41_17 C 0.57240(11) 0.48888(10) 0.87658(10)
H17_28 H 0.7498 0.6367 0.9277
H18_28 H 0.7502 0.5723 0.8633
H21_17 H 0.5723 0.4998 0.8867
C42_28 C 0.72763(11) 0.62346(12) 0.94586(13)
C43_28 C 0.77237(11) 0.55414(13) 0.87654(12)
C46_17 C 0.55414(13) 0.47763(11) 0.87346(12)
H22_28 H 0.7314 0.6307 0.9583
H23_28 H 0.7686 0.5417 0.8693
H26_17 H 0.5417 0.4814 0.8807
C47_28 C 0.71088(10) 0.60980(10) 0.94583(12)
C48_28 C 0.78912(10) 0.55417(12) 0.89020(10)
C51_17 C 0.55417(12) 0.46088(10) 0.85980(10)
H27_28 H 0.7024 0.6080 0.9579
H28_28 H 0.7976 0.5421 0.8920
H31_17 H 0.5421 0.4524 0.8580
C52_28 C 0.70683(9) 0.59880(8) 0.92750(9)
C53_28 C 0.79317(9) 0.57250(9) 0.90120(8)
C56_17 C 0.57250(9) 0.45683(9) 0.84880(8)
C57_28 C 0.71957(8) 0.60210(7) 0.91023(8)
C58_28 C 0.78043(8) 0.58977(8) 0.89790(7)
C61_17 C 0.58977(8) 0.46957(8) 0.85210(7)
H32_28 H 0.7171 0.5939 0.8980
H33_28 H 0.7829 0.6020 0.9061
H36_17 H 0.6020 0.4671 0.8439
C62_28 C 0.66685(11) 0.51417(11) 0.86019(12)
C63_28 C 0.83315(11) 0.63981(12) 0.98583(11)
C66_17 C 0.63981(12) 0.41685(11) 0.76417(11)
H37_28 H 0.6657 0.5039 0.8494
H38_28 H 0.8343 0.6506 0.9961
H41_17 H 0.6506 0.4157 0.7539
C67_28 C 0.68485(12) 0.52640(13) 0.86085(13)
C68_28 C 0.81515(12) 0.63915(13) 0.97360(13)
C71_17 C 0.63915(13) 0.43485(12) 0.77640(13)
H42_28 H 0.6956 0.5245 0.8507
H43_28 H 0.8044 0.6493 0.9755
H46_17 H 0.6493 0.4456 0.7745
C72_28 C 0.68692(11) 0.54123(12) 0.87624(11)
C73_28 C 0.81308(11) 0.62376(11) 0.95877(12)
C76_17 C 0.62376(11) 0.43692(11) 0.79123(12)
H47_28 H 0.6990 0.5500 0.8769
H48_28 H 0.8010 0.6231 0.9500
H51_17 H 0.6231 0.4490 0.8000
C77_28 C 0.67084(9) 0.54316(9) 0.89104(9)
C78_28 C 0.82916(9) 0.60896(9) 0.95684(9)
C81_17 C 0.60896(9) 0.42084(9) 0.79316(9)
C82_28 C 0.65339(8) 0.53041(8) 0.88913(8)
C83_28 C 0.84661(8) 0.61087(8) 0.96959(8)
C86_17 C 0.61087(8) 0.40339(8) 0.78041(8)
H52_28 H 0.6424 0.5319 0.8991
H53_28 H 0.8576 0.6009 0.9681
H56_17 H 0.6009 0.3924 0.7819
C87_28 C 0.67172(8) 0.55918(8) 0.90778(8)
C88_28 C 0.82828(8) 0.59222(8) 0.94082(8)
C91_17 C 0.59222(8) 0.42172(8) 0.80918(8)
C92_28 C 0.68865(8) 0.58475(9) 0.92523(8)
C93_28 C 0.81135(8) 0.57477(8) 0.91525(9)
C96_17 C 0.57477(8) 0.43865(8) 0.83475(9)
C97_28 C 0.65556(8) 0.57626(9) 0.93426(8)
C98_28 C 0.84444(8) 0.56574(8) 0.92374(9)
C101_17 C 0.56574(8) 0.40556(8) 0.82626(9)
C102_28 C 0.63710(8) 0.59661(9) 0.96148(8)
C103_28 C 0.86290(8) 0.53852(8) 0.90339(9)
C106_17 C 0.53852(8) 0.38710(8) 0.84661(9)
H57_28 H 0.6495 0.6049 0.9626
H58_28 H 0.8505 0.5374 0.8951
H61_17 H 0.5374 0.3995 0.8549
C107_28 C 0.63688(9) 0.58030(10) 0.94699(9)
C108_28 C 0.86312(9) 0.55301(9) 0.91970(10)
C111_17 C 0.55301(9) 0.38688(9) 0.83030(10)
C112_28 C 0.61869(11) 0.56850(12) 0.94504(12)
C113_28 C 0.88131(11) 0.55496(12) 0.93150(12)
C116_17 C 0.55496(12) 0.36869(11) 0.81850(12)
H62_28 H 0.6178 0.5573 0.9352
H63_28 H 0.8822 0.5648 0.9427
H66_17 H 0.5648 0.3678 0.8073
C117_28 C 0.60183(12) 0.57345(14) 0.95774(13)
C118_28 C 0.89817(12) 0.54226(13) 0.92655(14)
C121_17 C 0.54226(13) 0.35183(12) 0.82345(14)
H67_28 H 0.5891 0.5658 0.9566
H68_28 H 0.9109 0.5434 0.9342
H71_17 H 0.5434 0.3391 0.8158
C122_28 C 0.60372(10) 0.58960(12) 0.97207(11)
C123_28 C 0.89628(10) 0.52793(11) 0.91040(12)
C126_17 C 0.52793(11) 0.35372(10) 0.83960(12)
H72_28 H 0.5922 0.5925 0.9811
H73_28 H 0.9078 0.5189 0.9075
H76_17 H 0.5189 0.3422 0.8425
S2_27 S 0.04936(4) 0.74585(4) 0.11906(8)
N2_27 N 0.09248(8) 0.75105(7) 0.12261(7)
C2_27 C 0.07463(12) 0.74890(9) 0.12120(12)
S8_27 S 0.20064(4) 0.74585(4) 0.13094(8)
N16_27 N 0.15752(8) 0.75105(7) 0.12739(7)
N31_22 N 0.09893(7) 0.87609(7) 0.01601(7)
N38_22 N 0.06081(7) 0.84011(7) 0.07041(7)
N43_22 N 0.09580(7) 0.83074(7) 0.06164(7)
N48_22 N 0.07743(7) 0.81193(7) 0.08806(8)
N53_22 N 0.12901(7) 0.77619(7) 0.10131(8)
C32_27 C 0.17537(12) 0.74890(9) 0.12880(12)
C40_22 C 0.01112(10) 0.82240(11) 0.12658(10)
H20_22 H 0.0002 0.8223 0.1367
C45_22 C 0.02237(11) 0.80414(13) 0.12346(12)
H25_22 H 0.0186 0.7917 0.1307
C50_22 C 0.03912(10) 0.80417(12) 0.10980(10)
H30_22 H 0.0476 0.7921 0.1080
C55_22 C 0.04317(9) 0.82250(9) 0.09880(8)
C60_22 C 0.03043(8) 0.83977(8) 0.10210(7)
H35_22 H 0.0329 0.8520 0.0939
C65_22 C 0.08315(11) 0.88981(12) 0.01417(11)
H40_22 H 0.0843 0.9006 0.0039
C70_22 C 0.06515(12) 0.88915(13) 0.02640(13)
H45_22 H 0.0544 0.8993 0.0245
C75_22 C 0.06308(11) 0.87376(11) 0.04123(12)
H50_22 H 0.0510 0.8731 0.0500
C80_22 C 0.07916(9) 0.85896(9) 0.04316(9)
C85_22 C 0.09661(8) 0.86087(8) 0.03041(8)
H55_22 H 0.1076 0.8509 0.0319
C90_22 C 0.07828(8) 0.84222(8) 0.05918(8)
C95_22 C 0.06135(8) 0.82477(8) 0.08475(9)
C100_22 C 0.09444(8) 0.81574(8) 0.07626(9)
C105_22 C 0.11290(8) 0.78852(8) 0.09661(9)
H60_22 H 0.1005 0.7874 0.1049
C110_22 C 0.11312(9) 0.80301(9) 0.08030(10)
C115_22 C 0.13131(11) 0.80496(12) 0.06850(12)
H65_22 H 0.1322 0.8148 0.0573
C120_22 C 0.14817(12) 0.79226(13) 0.07345(14)
H70_22 H 0.1609 0.7934 0.0658
C125_22 C 0.14628(10) 0.77793(11) 0.08960(12)
H75_22 H 0.1578 0.7689 0.0925
S1_29 S 0.33635(3) 0.20616(3) 0.57744(3)
S2_28 S 0.24585(4) 0.11906(8) 0.54936(4)
N1_29 N 0.36307(7) 0.22582(6) 0.60581(7)
N2_28 N 0.25105(7) 0.12261(7) 0.59248(8)
N3_16 N 0.34026(7) 0.13395(6) 0.73516(7)
N4_19 N 0.37609(7) 0.23399(7) 0.65107(7)
N5_19 N 0.34011(7) 0.17959(7) 0.68919(7)
N6_19 N 0.33074(7) 0.18836(7) 0.65420(7)
N7_19 N 0.31193(7) 0.16194(8) 0.67257(7)
N8_19 N 0.27619(7) 0.14869(8) 0.62099(7)
C1_29 C 0.35203(9) 0.21714(8) 0.59422(8)
C2_28 C 0.24890(9) 0.12120(12) 0.57463(12)
C3_19 C 0.32240(11) 0.12342(10) 0.73888(10)
H1_19 H 0.3223 0.1133 0.7498
C4_19 C 0.30414(13) 0.12654(12) 0.72763(11)
H2_19 H 0.2917 0.1193 0.7314
C5_19 C 0.30417(12) 0.14020(10) 0.71088(10)
H3_19 H 0.2921 0.1420 0.7024
C6_19 C 0.32250(9) 0.15120(8) 0.70683(9)
C7_19 C 0.33977(8) 0.14790(7) 0.71957(8)
H4_19 H 0.3520 0.1561 0.7171
C8_19 C 0.38981(12) 0.23583(11) 0.66685(11)
H5_19 H 0.4006 0.2461 0.6657
C9_19 C 0.38915(13) 0.22360(13) 0.68485(12)
H6_19 H 0.3993 0.2255 0.6956
C10_19 C 0.37376(11) 0.20877(12) 0.68692(11)
H7_19 H 0.3731 0.2000 0.6990
C11_19 C 0.35896(9) 0.20684(9) 0.67084(9)
C12_19 C 0.36087(8) 0.21959(8) 0.65339(8)
H8_19 H 0.3509 0.2181 0.6424
C13_19 C 0.34222(8) 0.19082(8) 0.67172(8)
C14_19 C 0.32477(8) 0.16525(9) 0.68865(8)
C15_19 C 0.31574(8) 0.17374(9) 0.65556(8)
C16_19 C 0.28852(8) 0.15339(9) 0.63710(8)
H9_19 H 0.2874 0.1451 0.6495
C17_19 C 0.30301(9) 0.16970(10) 0.63688(9)
C18_19 C 0.30496(12) 0.18150(12) 0.61869(11)
H10_19 H 0.3148 0.1927 0.6178
C19_19 C 0.29226(13) 0.17655(14) 0.60183(12)
H11_19 H 0.2934 0.1842 0.5891
C20_19 C 0.27793(11) 0.16040(12) 0.60372(10)
H12_19 H 0.2689 0.1575 0.5922
Co9_24 Co 0.497768(14) 0.1250 0.6250
S3_29 S 0.42256(3) 0.29384(3) 0.66365(3)
S8_28 S 0.24585(4) 0.13094(8) 0.70064(4)
S9_24 S 0.50415(4) 0.04936(4) 0.63094(8)
S10_24 S 0.50415(4) 0.20064(4) 0.61906(8)
N11_29 N 0.39419(7) 0.27418(6) 0.63693(7)
N16_28 N 0.25105(7) 0.12739(7) 0.65752(8)
N17_24 N 0.49895(7) 0.09248(8) 0.62739(7)
N18_24 N 0.49895(7) 0.15752(8) 0.62261(7)
N21_29 N 0.40974(7) 0.23516(7) 0.61605(6)
N22_29 N 0.38395(6) 0.26484(7) 0.59026(7)
N31_23 N 0.37609(7) 0.01601(7) 0.59893(7)
N35_29 N 0.40989(7) 0.18919(7) 0.57041(7)
N36_29 N 0.42959(7) 0.31081(7) 0.59011(7)
N38_23 N 0.34011(7) 0.07041(7) 0.56081(7)
N40_29 N 0.41926(7) 0.15420(7) 0.56164(7)
N41_29 N 0.43836(7) 0.34580(7) 0.58074(7)
N43_23 N 0.33074(7) 0.06164(7) 0.59580(7)
N45_29 N 0.43807(7) 0.17257(7) 0.58806(8)
N46_29 N 0.41194(8) 0.32743(7) 0.56193(7)
N48_23 N 0.31193(7) 0.08806(8) 0.57743(7)
N50_24 N 0.47381(7) 0.12099(7) 0.60131(8)
N53_23 N 0.27619(7) 0.10131(8) 0.62901(7)
N55_24 N 0.47381(7) 0.12901(7) 0.64869(8)
N62_24 N 0.51961(7) 0.12510(8) 0.65106(8)
N63_24 N 0.51961(7) 0.12490(8) 0.59894(8)
C27_29 C 0.40578(8) 0.28286(8) 0.64797(9)
C32_28 C 0.24890(9) 0.12880(12) 0.67537(12)
C33_24 C 0.50110(9) 0.07463(12) 0.62880(12)
C34_24 C 0.50110(9) 0.17537(12) 0.62120(12)
C37_29 C 0.42760(11) 0.23888(10) 0.62658(10)
C38_29 C 0.37342(10) 0.26112(10) 0.57240(11)
C40_23 C 0.32240(11) 0.12658(10) 0.51112(10)
H17_29 H 0.4277 0.2498 0.6367
H18_29 H 0.3633 0.2502 0.5723
H20_23 H 0.3223 0.1367 0.5002
C42_29 C 0.44586(13) 0.22763(11) 0.62346(12)
C43_29 C 0.37654(12) 0.27237(11) 0.55414(13)
C45_23 C 0.30414(13) 0.12346(12) 0.52237(11)
H22_29 H 0.4583 0.2314 0.6307
H23_29 H 0.3693 0.2686 0.5417
H25_23 H 0.2917 0.1307 0.5186
C47_29 C 0.44583(12) 0.21088(10) 0.60980(10)
C48_29 C 0.39020(10) 0.28912(10) 0.55417(12)
C50_23 C 0.30417(12) 0.10980(10) 0.53912(10)
H27_29 H 0.4579 0.2024 0.6080
H28_29 H 0.3920 0.2976 0.5421
H30_23 H 0.2921 0.1080 0.5476
C52_29 C 0.42750(9) 0.20683(9) 0.59880(8)
C53_29 C 0.40120(8) 0.29317(9) 0.57250(9)
C55_23 C 0.32250(9) 0.09880(8) 0.54317(9)
C57_29 C 0.41023(8) 0.21957(8) 0.60210(7)
C58_29 C 0.39790(7) 0.28043(8) 0.58977(8)
C60_23 C 0.33977(8) 0.10210(7) 0.53043(8)
H32_29 H 0.3980 0.2171 0.5939
H33_29 H 0.4061 0.2829 0.6020
H35_23 H 0.3520 0.0939 0.5329
C62_29 C 0.36019(12) 0.16685(11) 0.51417(11)
C63_29 C 0.48583(11) 0.33315(11) 0.63981(12)
C65_23 C 0.38981(12) 0.01417(11) 0.58315(11)
H37_29 H 0.3494 0.1657 0.5039
H38_29 H 0.4961 0.3343 0.6506
H40_23 H 0.4006 0.0039 0.5843
C67_29 C 0.36085(13) 0.18485(12) 0.52640(13)
C68_29 C 0.47360(13) 0.31515(12) 0.63915(13)
C70_23 C 0.38915(13) 0.02640(13) 0.56515(12)
H42_29 H 0.3507 0.1956 0.5245
H43_29 H 0.4755 0.3044 0.6493
H45_23 H 0.3993 0.0245 0.5544
C72_29 C 0.37624(11) 0.18692(11) 0.54123(12)
C73_29 C 0.45877(12) 0.31308(11) 0.62376(11)
C75_23 C 0.37376(11) 0.04123(12) 0.56308(11)
H47_29 H 0.3769 0.1990 0.5500
H48_29 H 0.4500 0.3010 0.6231
H50_23 H 0.3731 0.0500 0.5510
C77_29 C 0.39104(9) 0.17084(9) 0.54316(9)
C78_29 C 0.45684(9) 0.32916(9) 0.60896(9)
C80_23 C 0.35896(9) 0.04316(9) 0.57916(9)
C82_29 C 0.38913(8) 0.15339(8) 0.53041(8)
C83_29 C 0.46959(8) 0.34661(8) 0.61087(8)
C85_23 C 0.36087(8) 0.03041(8) 0.59661(8)
H52_29 H 0.3991 0.1424 0.5319
H53_29 H 0.4681 0.3576 0.6009
H55_23 H 0.3509 0.0319 0.6076
C87_29 C 0.40778(8) 0.17172(8) 0.55918(8)
C88_29 C 0.44082(8) 0.32828(8) 0.59222(8)
C90_23 C 0.34222(8) 0.05918(8) 0.57828(8)
C92_29 C 0.42523(8) 0.18865(8) 0.58475(9)
C93_29 C 0.41525(9) 0.31135(8) 0.57477(8)
C95_23 C 0.32477(8) 0.08475(9) 0.56135(8)
C97_29 C 0.43426(8) 0.15556(8) 0.57626(9)
C98_29 C 0.42374(9) 0.34444(8) 0.56574(8)
C100_23 C 0.31574(8) 0.07626(9) 0.59444(8)
C102_29 C 0.46148(8) 0.13710(8) 0.59661(9)
C103_29 C 0.40339(9) 0.36290(8) 0.53852(8)
C105_23 C 0.28852(8) 0.09661(9) 0.61290(8)
H57_29 H 0.4626 0.1495 0.6049
H58_29 H 0.3951 0.3505 0.5374
H60_23 H 0.2874 0.1049 0.6005
C107_29 C 0.44699(9) 0.13688(9) 0.58030(10)
C108_29 C 0.41970(10) 0.36312(9) 0.55301(9)
C110_23 C 0.30301(9) 0.08030(10) 0.61312(9)
C112_29 C 0.44504(12) 0.11869(11) 0.56850(12)
C113_29 C 0.43150(12) 0.38131(11) 0.55496(12)
C115_23 C 0.30496(12) 0.06850(12) 0.63131(11)
H62_29 H 0.4352 0.1178 0.5573
H63_29 H 0.4427 0.3822 0.5648
H65_23 H 0.3148 0.0573 0.6322
C117_29 C 0.45774(13) 0.10183(12) 0.57345(14)
C118_29 C 0.42655(14) 0.39817(12) 0.54226(13)
C120_23 C 0.29226(13) 0.07345(14) 0.64817(12)
H67_29 H 0.4566 0.0891 0.5658
H68_29 H 0.4342 0.4109 0.5434
H70_23 H 0.2934 0.0658 0.6609
C122_29 C 0.47207(11) 0.10372(10) 0.58960(12)
C123_29 C 0.41040(12) 0.39628(10) 0.52793(11)
C125_23 C 0.27793(11) 0.08960(12) 0.64628(10)
H72_29 H 0.4811 0.0922 0.5925
H73_29 H 0.4075 0.4078 0.5189
H75_23 H 0.2689 0.0925 0.6578
S2_29 S 0.50415(4) 0.11906(8) 0.20064(4)
N2_29 N 0.49895(7) 0.12261(7) 0.15752(8)
C2_29 C 0.50110(9) 0.12120(12) 0.17537(12)
S8_29 S 0.50415(4) 0.13094(8) 0.04936(4)
N16_29 N 0.49895(7) 0.12739(7) 0.09248(8)
C32_29 C 0.50110(9) 0.12880(12) 0.07463(12)
S1_30 S 0.58635(3) 0.32744(3) 0.79384(3)
S2_30 S 0.49585(4) 0.29936(4) 0.88094(8)
N1_30 N 0.61307(7) 0.35581(7) 0.77418(6)
N2_30 N 0.50105(7) 0.34248(8) 0.87739(7)
C1_30 C 0.60203(9) 0.34422(8) 0.78286(8)
C2_30 C 0.49890(9) 0.32463(12) 0.87880(12)
Co3_14 Co 0.620919(12) 0.2500 0.879081(12)
Co8_18 Co 0.5000 0.120919(12) 0.870919(12)
Co9_25 Co 0.747768(14) 0.3750 0.8750
S3_30 S 0.67256(3) 0.41365(3) 0.70616(3)
S4_21 S 0.66365(3) 0.29384(3) 0.92256(3)
S5_21 S 0.57744(3) 0.20616(3) 0.83635(3)
S8_30 S 0.49585(4) 0.45064(4) 0.86906(8)
S9_25 S 0.75415(4) 0.38094(8) 0.95064(4)
S10_25 S 0.75415(4) 0.36906(8) 0.79936(4)
N11_30 N 0.64419(7) 0.38693(7) 0.72582(6)
N12_21 N 0.63693(7) 0.27418(6) 0.89419(7)
N13_21 N 0.60581(7) 0.22582(6) 0.86307(7)
N16_30 N 0.50105(7) 0.40752(8) 0.87261(7)
N17_25 N 0.74895(7) 0.37739(7) 0.90752(8)
N18_25 N 0.74895(7) 0.37261(7) 0.84248(8)
N21_30 N 0.65974(7) 0.36605(6) 0.76484(7)
N22_30 N 0.63395(6) 0.34026(7) 0.73516(7)
N24_16 N 0.59026(7) 0.26484(7) 0.88395(6)
N25_16 N 0.61605(6) 0.23516(7) 0.90974(7)
N28_21 N 0.62391(7) 0.26601(7) 0.84893(7)
N31_24 N 0.62609(7) 0.34893(7) 0.98399(7)
N32_18 N 0.51601(7) 0.15107(7) 0.87391(7)
N33_21 N 0.65107(7) 0.23399(7) 0.87609(7)
N35_30 N 0.65989(7) 0.32041(7) 0.81081(7)
N36_30 N 0.67959(7) 0.34011(7) 0.68919(7)
N38_24 N 0.59011(7) 0.31081(7) 0.92959(7)
N39_18 N 0.57041(7) 0.18919(7) 0.90989(7)
N40_30 N 0.66926(7) 0.31164(7) 0.84580(7)
N41_30 N 0.68836(7) 0.33074(7) 0.65420(7)
N43_24 N 0.58074(7) 0.34580(7) 0.93836(7)
N44_18 N 0.56164(7) 0.15420(7) 0.91926(7)
N45_30 N 0.68807(7) 0.33806(8) 0.82743(7)
N46_30 N 0.66194(8) 0.31193(7) 0.67257(7)
N48_24 N 0.56193(7) 0.32743(7) 0.91194(8)
N49_18 N 0.58806(8) 0.17257(7) 0.93807(7)
N50_25 N 0.72381(7) 0.35131(8) 0.87901(7)
N53_24 N 0.52619(7) 0.37901(7) 0.89869(8)
N54_18 N 0.60131(8) 0.12099(7) 0.97381(7)
N55_25 N 0.72381(7) 0.39869(8) 0.87099(7)
N62_25 N 0.76961(7) 0.40106(8) 0.87490(8)
N63_25 N 0.76961(7) 0.34894(8) 0.87510(8)
C27_30 C 0.65578(8) 0.39797(9) 0.71714(8)
C28_21 C 0.64797(9) 0.28286(8) 0.90578(8)
C29_21 C 0.59422(8) 0.21714(8) 0.85203(9)
C32_30 C 0.49890(9) 0.42537(12) 0.87120(12)
C33_25 C 0.75110(9) 0.37880(12) 0.92537(12)
C34_25 C 0.75110(9) 0.37120(12) 0.82463(12)
C37_30 C 0.67760(11) 0.37658(10) 0.76112(10)
C38_30 C 0.62342(10) 0.32240(11) 0.73888(10)
C40_24 C 0.57240(11) 0.26112(10) 0.87342(10)
C41_18 C 0.62658(10) 0.23888(10) 0.92760(11)
H17_30 H 0.6777 0.3867 0.7502
H18_30 H 0.6133 0.3223 0.7498
H20_24 H 0.5723 0.2502 0.8633
H21_18 H 0.6367 0.2498 0.9277
C42_30 C 0.69586(13) 0.37346(12) 0.77237(11)
C43_30 C 0.62654(12) 0.30414(13) 0.72763(11)
C45_24 C 0.55414(13) 0.27237(11) 0.87654(12)
C46_18 C 0.62346(12) 0.22763(11) 0.94586(13)
H22_30 H 0.7083 0.3807 0.7686
H23_30 H 0.6193 0.2917 0.7314
H25_24 H 0.5417 0.2686 0.8693
H26_18 H 0.6307 0.2314 0.9583
C47_30 C 0.69583(12) 0.35980(10) 0.78912(10)
C48_30 C 0.64020(10) 0.30417(12) 0.71088(10)
C50_24 C 0.55417(12) 0.28912(10) 0.89020(10)
C51_18 C 0.60980(10) 0.21088(10) 0.94583(12)
H27_30 H 0.7079 0.3580 0.7976
H28_30 H 0.6420 0.2921 0.7024
H30_24 H 0.5421 0.2976 0.8920
H31_18 H 0.6080 0.2024 0.9579
C52_30 C 0.67750(9) 0.34880(8) 0.79317(9)
C53_30 C 0.65120(8) 0.32250(9) 0.70683(9)
C55_24 C 0.57250(9) 0.29317(9) 0.90120(8)
C56_18 C 0.59880(8) 0.20683(9) 0.92750(9)
C57_30 C 0.66023(8) 0.35210(7) 0.78043(8)
C58_30 C 0.64790(7) 0.33977(8) 0.71957(8)
C60_24 C 0.58977(8) 0.28043(8) 0.89790(7)
C61_18 C 0.60210(7) 0.21957(8) 0.91023(8)
H32_30 H 0.6480 0.3439 0.7829
H33_30 H 0.6561 0.3520 0.7171
H35_24 H 0.6020 0.2829 0.9061
H36_18 H 0.5939 0.2171 0.8980
C62_30 C 0.61019(12) 0.26417(11) 0.83315(11)
C63_30 C 0.73583(11) 0.38981(12) 0.66685(11)
C65_24 C 0.63981(12) 0.33315(11) 0.98583(11)
C66_18 C 0.51417(11) 0.16685(11) 0.86019(12)
H37_30 H 0.5994 0.2539 0.8343
H38_30 H 0.7461 0.4006 0.6657
H40_24 H 0.6506 0.3343 0.9961
H41_18 H 0.5039 0.1657 0.8494
C67_30 C 0.61085(13) 0.27640(13) 0.81515(12)
C68_30 C 0.72360(13) 0.38915(13) 0.68485(12)
C70_24 C 0.63915(13) 0.31515(12) 0.97360(13)
C71_18 C 0.52640(13) 0.18485(12) 0.86085(13)
H42_30 H 0.6007 0.2745 0.8044
H43_30 H 0.7255 0.3993 0.6956
H45_24 H 0.6493 0.3044 0.9755
H46_18 H 0.5245 0.1956 0.8507
C72_30 C 0.62624(11) 0.29123(12) 0.81308(11)
C73_30 C 0.70877(12) 0.37376(11) 0.68692(11)
C75_24 C 0.62376(11) 0.31308(11) 0.95877(12)
C76_18 C 0.54123(12) 0.18692(11) 0.87624(11)
H47_30 H 0.6269 0.3000 0.8010
H48_30 H 0.7000 0.3731 0.6990
H50_24 H 0.6231 0.3010 0.9500
H51_18 H 0.5500 0.1990 0.8769
C77_30 C 0.64104(9) 0.29316(9) 0.82916(9)
C78_30 C 0.70684(9) 0.35896(9) 0.67084(9)
C80_24 C 0.60896(9) 0.32916(9) 0.95684(9)
C81_18 C 0.54316(9) 0.17084(9) 0.89104(9)
C82_30 C 0.63913(8) 0.28041(8) 0.84661(8)
C83_30 C 0.71959(8) 0.36087(8) 0.65339(8)
C85_24 C 0.61087(8) 0.34661(8) 0.96959(8)
C86_18 C 0.53041(8) 0.15339(8) 0.88913(8)
H52_30 H 0.6491 0.2819 0.8576
H53_30 H 0.7181 0.3509 0.6424
H55_24 H 0.6009 0.3576 0.9681
H56_18 H 0.5319 0.1424 0.8991
C87_30 C 0.65778(8) 0.30918(8) 0.82828(8)
C88_30 C 0.69082(8) 0.34222(8) 0.67172(8)
C90_24 C 0.59222(8) 0.32828(8) 0.94082(8)
C91_18 C 0.55918(8) 0.17172(8) 0.90778(8)
C92_30 C 0.67523(8) 0.33475(9) 0.81135(8)
C93_30 C 0.66525(9) 0.32477(8) 0.68865(8)
C95_24 C 0.57477(8) 0.31135(8) 0.91525(9)
C96_18 C 0.58475(9) 0.18865(8) 0.92523(8)
C97_30 C 0.68426(8) 0.32626(9) 0.84444(8)
C98_30 C 0.67374(9) 0.31574(8) 0.65556(8)
C100_24 C 0.56574(8) 0.34444(8) 0.92374(9)
C101_18 C 0.57626(9) 0.15556(8) 0.93426(8)
C102_30 C 0.71148(8) 0.34661(9) 0.86290(8)
C103_30 C 0.65339(9) 0.28852(8) 0.63710(8)
C105_24 C 0.53852(8) 0.36290(8) 0.90339(9)
C106_18 C 0.59661(9) 0.13710(8) 0.96148(8)
H57_30 H 0.7126 0.3549 0.8505
H58_30 H 0.6451 0.2874 0.6495
H60_24 H 0.5374 0.3505 0.8951
H61_18 H 0.6049 0.1495 0.9626
C107_30 C 0.69699(9) 0.33030(10) 0.86312(9)
C108_30 C 0.66970(10) 0.30301(9) 0.63688(9)
C110_24 C 0.55301(9) 0.36312(9) 0.91970(10)
C111_18 C 0.58030(10) 0.13688(9) 0.94699(9)
C112_30 C 0.69504(12) 0.31850(12) 0.88131(11)
C113_30 C 0.68150(12) 0.30496(12) 0.61869(11)
C115_24 C 0.55496(12) 0.38131(11) 0.93150(12)
C116_18 C 0.56850(12) 0.11869(11) 0.94504(12)
H62_30 H 0.6852 0.3073 0.8822
H63_30 H 0.6927 0.3148 0.6178
H65_24 H 0.5648 0.3822 0.9427
H66_18 H 0.5573 0.1178 0.9352
C117_30 C 0.70774(13) 0.32345(14) 0.89817(12)
C118_30 C 0.67655(14) 0.29226(13) 0.60183(12)
C120_24 C 0.54226(13) 0.39817(12) 0.92655(14)
C121_18 C 0.57345(14) 0.10183(12) 0.95774(13)
H67_30 H 0.7066 0.3158 0.9109
H68_30 H 0.6842 0.2934 0.5891
H70_24 H 0.5434 0.4109 0.9342
H71_18 H 0.5658 0.0891 0.9566
C122_30 C 0.72207(11) 0.33960(12) 0.89628(10)
C123_30 C 0.66040(12) 0.27793(11) 0.60372(10)
C125_24 C 0.52793(11) 0.39628(10) 0.91040(12)
C126_18 C 0.58960(12) 0.10372(10) 0.97207(11)
H72_30 H 0.7311 0.3425 0.9078
H73_30 H 0.6575 0.2689 0.5922
H75_24 H 0.5189 0.4078 0.9075
H76_18 H 0.5925 0.0922 0.9811
S2_31 S 0.04936(4) 0.00415(4) 0.63094(8)
C2_31 C 0.07463(12) 0.00110(9) 0.62880(12)
S8_31 S 0.20064(4) 0.00415(4) 0.61906(8)
C32_31 C 0.17537(12) 0.00110(9) 0.62120(12)
S1_31 S 0.07744(3) 0.91365(3) 0.54384(3)
N1_31 N 0.10581(7) 0.88693(7) 0.52418(6)
N2_31 N 0.09248(8) 0.99895(7) 0.62739(7)
C1_31 C 0.09422(8) 0.89797(9) 0.53286(8)
S3_31 S 0.16365(3) 0.82744(3) 0.45616(3)
N11_31 N 0.13693(7) 0.85581(7) 0.47582(6)
N16_31 N 0.15752(8) 0.99895(7) 0.62261(7)
N21_31 N 0.11605(6) 0.84026(7) 0.51484(7)
N22_31 N 0.09026(7) 0.86605(6) 0.48516(7)
N35_31 N 0.07041(7) 0.84011(7) 0.56081(7)
N36_31 N 0.09011(7) 0.82041(7) 0.43919(7)
N40_31 N 0.06164(7) 0.83074(7) 0.59580(7)
N41_31 N 0.08074(7) 0.81164(7) 0.40420(7)
N45_31 N 0.08806(8) 0.81193(7) 0.57743(7)
N46_31 N 0.06193(7) 0.83806(8) 0.42257(7)
C27_31 C 0.14797(9) 0.84422(8) 0.46714(8)
C37_31 C 0.12658(10) 0.82240(11) 0.51112(10)
C38_31 C 0.07240(11) 0.87658(10) 0.48888(10)
H17_31 H 0.1367 0.8223 0.5002
H18_31 H 0.0723 0.8867 0.4998
C42_31 C 0.12346(12) 0.80414(13) 0.52237(11)
C43_31 C 0.05414(13) 0.87346(12) 0.47763(11)
H22_31 H 0.1307 0.7917 0.5186
H23_31 H 0.0417 0.8807 0.4814
C47_31 C 0.10980(10) 0.80417(12) 0.53912(10)
C48_31 C 0.05417(12) 0.85980(10) 0.46088(10)
H27_31 H 0.1080 0.7921 0.5476
H28_31 H 0.0421 0.8580 0.4524
C52_31 C 0.09880(8) 0.82250(9) 0.54317(9)
C53_31 C 0.07250(9) 0.84880(8) 0.45683(9)
C57_31 C 0.10210(7) 0.83977(8) 0.53043(8)
C58_31 C 0.08977(8) 0.85210(7) 0.46957(8)
H32_31 H 0.0939 0.8520 0.5329
H33_31 H 0.1020 0.8439 0.4671
C62_31 C 0.01417(11) 0.88981(12) 0.58315(11)
C63_31 C 0.13981(12) 0.76417(11) 0.41685(11)
H37_31 H 0.0039 0.9006 0.5843
H38_31 H 0.1506 0.7539 0.4157
C67_31 C 0.02640(13) 0.88915(13) 0.56515(12)
C68_31 C 0.13915(13) 0.77640(13) 0.43485(12)
H42_31 H 0.0245 0.8993 0.5544
H43_31 H 0.1493 0.7745 0.4456
C72_31 C 0.04123(12) 0.87376(11) 0.56308(11)
C73_31 C 0.12376(11) 0.79123(12) 0.43692(11)
H47_31 H 0.0500 0.8731 0.5510
H48_31 H 0.1231 0.8000 0.4490
C77_31 C 0.04316(9) 0.85896(9) 0.57916(9)
C78_31 C 0.10896(9) 0.79316(9) 0.42084(9)
C82_31 C 0.03041(8) 0.86087(8) 0.59661(8)
C83_31 C 0.11087(8) 0.78041(8) 0.40339(8)
H52_31 H 0.0319 0.8509 0.6076
H53_31 H 0.1009 0.7819 0.3924
C87_31 C 0.05918(8) 0.84222(8) 0.57828(8)
C88_31 C 0.09222(8) 0.80918(8) 0.42172(8)
C92_31 C 0.08475(9) 0.82477(8) 0.56135(8)
C93_31 C 0.07477(8) 0.83475(9) 0.43865(8)
C97_31 C 0.07626(9) 0.81574(8) 0.59444(8)
C98_31 C 0.06574(8) 0.82626(9) 0.40556(8)
C102_31 C 0.09661(9) 0.78852(8) 0.61290(8)
C103_31 C 0.03852(8) 0.84661(9) 0.38710(8)
H57_31 H 0.1049 0.7874 0.6005
H58_31 H 0.0374 0.8549 0.3995
C107_31 C 0.08030(10) 0.80301(9) 0.61312(9)
C108_31 C 0.05301(9) 0.83030(10) 0.38688(9)
C112_31 C 0.06850(12) 0.80496(12) 0.63131(11)
C113_31 C 0.05496(12) 0.81850(12) 0.36869(11)
H62_31 H 0.0573 0.8148 0.6322
H63_31 H 0.0648 0.8073 0.3678
C117_31 C 0.07345(14) 0.79226(13) 0.64817(12)
C118_31 C 0.04226(13) 0.82345(14) 0.35183(12)
H67_31 H 0.0658 0.7934 0.6609
H68_31 H 0.0434 0.8158 0.3391
C122_31 C 0.08960(12) 0.77793(11) 0.64628(10)
C123_31 C 0.02793(11) 0.83960(12) 0.35372(10)
H72_31 H 0.0925 0.7689 0.6578
H73_31 H 0.0189 0.8425 0.3422
N2_32 N 0.37261(7) 0.00105(7) 0.40752(8)
N16_32 N 0.37739(7) 0.00105(7) 0.34248(8)
S2_32 S 0.36906(8) 0.99585(4) 0.45064(4)
C2_32 C 0.37120(12) 0.99890(9) 0.42537(12)
S8_32 S 0.38094(8) 0.99585(4) 0.29936(4)
C32_32 C 0.37880(12) 0.99890(9) 0.32463(12)
S1_32 S 0.70616(3) 0.67256(3) 0.41365(3)
S2_33 S 0.61906(8) 0.70064(4) 0.50415(4)
N1_32 N 0.72582(6) 0.64419(7) 0.38693(7)
N2_33 N 0.62261(7) 0.65752(8) 0.49895(7)
N4_20 N 0.73399(7) 0.59893(7) 0.37391(7)
N5_20 N 0.67959(7) 0.56081(7) 0.40989(7)
N6_20 N 0.68836(7) 0.59580(7) 0.41926(7)
N7_20 N 0.66194(8) 0.57743(7) 0.43807(7)
N8_20 N 0.64869(8) 0.62901(7) 0.47381(7)
C1_32 C 0.71714(8) 0.65578(8) 0.39797(9)
C2_33 C 0.62120(12) 0.67537(12) 0.50110(9)
C3_20 C 0.62342(10) 0.51112(10) 0.42760(11)
H1_20 H 0.6133 0.5002 0.4277
C4_20 C 0.62654(12) 0.52237(11) 0.44586(13)
H2_20 H 0.6193 0.5186 0.4583
C5_20 C 0.64020(10) 0.53912(10) 0.44583(12)
H3_20 H 0.6420 0.5476 0.4579
C6_20 C 0.65120(8) 0.54317(9) 0.42750(9)
C7_20 C 0.64790(7) 0.53043(8) 0.41023(8)
H4_20 H 0.6561 0.5329 0.3980
C8_20 C 0.73583(11) 0.58315(11) 0.36019(12)
H5_20 H 0.7461 0.5843 0.3494
C9_20 C 0.72360(13) 0.56515(12) 0.36085(13)
H6_20 H 0.7255 0.5544 0.3507
C10_20 C 0.70877(12) 0.56308(11) 0.37624(11)
H7_20 H 0.7000 0.5510 0.3769
C11_20 C 0.70684(9) 0.57916(9) 0.39104(9)
C12_20 C 0.71959(8) 0.59661(8) 0.38913(8)
H8_20 H 0.7181 0.6076 0.3991
C13_20 C 0.69082(8) 0.57828(8) 0.40778(8)
C14_20 C 0.66525(9) 0.56135(8) 0.42523(8)
C15_20 C 0.67374(9) 0.59444(8) 0.43426(8)
C16_20 C 0.65339(9) 0.61290(8) 0.46148(8)
H9_20 H 0.6451 0.6005 0.4626
C17_20 C 0.66970(10) 0.61312(9) 0.44699(9)
C18_20 C 0.68150(12) 0.63131(11) 0.44504(12)
H10_20 H 0.6927 0.6322 0.4352
C19_20 C 0.67655(14) 0.64817(12) 0.45774(13)
H11_20 H 0.6842 0.6609 0.4566
C20_20 C 0.66040(12) 0.64628(10) 0.47207(11)
H12_20 H 0.6575 0.6578 0.4811
Co3_15 Co 0.620919(12) 0.7500 0.379081(12)
Co7_24 Co 0.5000 0.620919(12) 0.370919(12)
Co9_26 Co 0.6250 0.6250 0.252232(14)
S3_32 S 0.79384(3) 0.58635(3) 0.32744(3)
S4_22 S 0.57744(3) 0.70616(3) 0.33635(3)
S5_22 S 0.66365(3) 0.79384(3) 0.42256(3)
S8_33 S 0.63094(8) 0.54936(4) 0.50415(4)
S9_26 S 0.54936(4) 0.61906(8) 0.24585(4)
S10_26 S 0.70064(4) 0.63094(8) 0.24585(4)
N11_32 N 0.77418(6) 0.61307(7) 0.35581(7)
N12_22 N 0.60581(7) 0.72582(6) 0.36307(7)
N13_22 N 0.63693(7) 0.77418(6) 0.39419(7)
N16_33 N 0.62739(7) 0.59248(8) 0.49895(7)
N17_26 N 0.59248(8) 0.62261(7) 0.25105(7)
N18_26 N 0.65752(8) 0.62739(7) 0.25105(7)
N21_32 N 0.73516(7) 0.63395(6) 0.34026(7)
N22_32 N 0.76484(7) 0.65974(7) 0.36605(6)
N24_17 N 0.61605(6) 0.73516(7) 0.40974(7)
N25_17 N 0.59026(7) 0.76484(7) 0.38395(6)
N28_22 N 0.65107(7) 0.73399(7) 0.37609(7)
N31_25 N 0.51601(7) 0.65107(7) 0.37391(7)
N32_19 N 0.62609(7) 0.84893(7) 0.48399(7)
N33_22 N 0.62391(7) 0.76601(7) 0.34893(7)
N35_32 N 0.68919(7) 0.67959(7) 0.34011(7)
N36_32 N 0.81081(7) 0.65989(7) 0.32041(7)
N38_25 N 0.57041(7) 0.68919(7) 0.40989(7)
N39_19 N 0.59011(7) 0.81081(7) 0.42959(7)
N40_32 N 0.65420(7) 0.68836(7) 0.33074(7)
N41_32 N 0.84580(7) 0.66926(7) 0.31164(7)
N43_25 N 0.56164(7) 0.65420(7) 0.41926(7)
N44_19 N 0.58074(7) 0.84580(7) 0.43836(7)
N45_32 N 0.67257(7) 0.66194(8) 0.31193(7)
N46_32 N 0.82743(7) 0.68807(7) 0.33806(8)
N48_25 N 0.58806(8) 0.67257(7) 0.43807(7)
N49_19 N 0.56193(7) 0.82743(7) 0.41194(8)
N50_26 N 0.62099(7) 0.64869(8) 0.27619(7)
N53_25 N 0.60131(8) 0.62099(7) 0.47381(7)
N54_19 N 0.52619(7) 0.87901(7) 0.39869(8)
N55_26 N 0.62901(7) 0.60131(8) 0.27619(7)
N62_26 N 0.62510(8) 0.59894(8) 0.23039(7)
N63_26 N 0.62490(8) 0.65106(8) 0.23039(7)
C27_32 C 0.78286(8) 0.60203(9) 0.34422(8)
C28_22 C 0.59422(8) 0.71714(8) 0.35203(9)
C29_22 C 0.64797(9) 0.78286(8) 0.40578(8)
C32_33 C 0.62880(12) 0.57463(12) 0.50110(9)
C33_26 C 0.57463(12) 0.62120(12) 0.24890(9)
C34_26 C 0.67537(12) 0.62880(12) 0.24890(9)
C37_32 C 0.73888(10) 0.62342(10) 0.32240(11)
C38_32 C 0.76112(10) 0.67760(11) 0.37658(10)
C40_25 C 0.62658(10) 0.73888(10) 0.42760(11)
C41_19 C 0.57240(11) 0.76112(10) 0.37342(10)
H17_32 H 0.7498 0.6133 0.3223
H18_32 H 0.7502 0.6777 0.3867
H20_25 H 0.6367 0.7498 0.4277
H21_19 H 0.5723 0.7502 0.3633
C42_32 C 0.72763(11) 0.62654(12) 0.30414(13)
C43_32 C 0.77237(11) 0.69586(13) 0.37346(12)
C45_25 C 0.62346(12) 0.72763(11) 0.44586(13)
C46_19 C 0.55414(13) 0.77237(11) 0.37654(12)
H22_32 H 0.7314 0.6193 0.2917
H23_32 H 0.7686 0.7083 0.3807
H25_25 H 0.6307 0.7314 0.4583
H26_19 H 0.5417 0.7686 0.3693
C47_32 C 0.71088(10) 0.64020(10) 0.30417(12)
C48_32 C 0.78912(10) 0.69583(12) 0.35980(10)
C50_25 C 0.60980(10) 0.71088(10) 0.44583(12)
C51_19 C 0.55417(12) 0.78912(10) 0.39020(10)
H27_32 H 0.7024 0.6420 0.2921
H28_32 H 0.7976 0.7079 0.3580
H30_25 H 0.6080 0.7024 0.4579
H31_19 H 0.5421 0.7976 0.3920
C52_32 C 0.70683(9) 0.65120(8) 0.32250(9)
C53_32 C 0.79317(9) 0.67750(9) 0.34880(8)
C55_25 C 0.59880(8) 0.70683(9) 0.42750(9)
C56_19 C 0.57250(9) 0.79317(9) 0.40120(8)
C57_32 C 0.71957(8) 0.64790(7) 0.33977(8)
C58_32 C 0.78043(8) 0.66023(8) 0.35210(7)
C60_25 C 0.60210(7) 0.71957(8) 0.41023(8)
C61_19 C 0.58977(8) 0.78043(8) 0.39790(7)
H32_32 H 0.7171 0.6561 0.3520
H33_32 H 0.7829 0.6480 0.3439
H35_25 H 0.5939 0.7171 0.3980
H36_19 H 0.6020 0.7829 0.4061
C62_32 C 0.66685(11) 0.73583(11) 0.38981(12)
C63_32 C 0.83315(11) 0.61019(12) 0.26417(11)
C65_25 C 0.51417(11) 0.66685(11) 0.36019(12)
C66_19 C 0.63981(12) 0.83315(11) 0.48583(11)
H37_32 H 0.6657 0.7461 0.4006
H38_32 H 0.8343 0.5994 0.2539
H40_25 H 0.5039 0.6657 0.3494
H41_19 H 0.6506 0.8343 0.4961
C67_32 C 0.68485(12) 0.72360(13) 0.38915(13)
C68_32 C 0.81515(12) 0.61085(13) 0.27640(13)
C70_25 C 0.52640(13) 0.68485(12) 0.36085(13)
C71_19 C 0.63915(13) 0.81515(12) 0.47360(13)
H42_32 H 0.6956 0.7255 0.3993
H43_32 H 0.8044 0.6007 0.2745
H45_25 H 0.5245 0.6956 0.3507
H46_19 H 0.6493 0.8044 0.4755
C72_32 C 0.68692(11) 0.70877(12) 0.37376(11)
C73_32 C 0.81308(11) 0.62624(11) 0.29123(12)
C75_25 C 0.54123(12) 0.68692(11) 0.37624(11)
C76_19 C 0.62376(11) 0.81308(11) 0.45877(12)
H47_32 H 0.6990 0.7000 0.3731
H48_32 H 0.8010 0.6269 0.3000
H50_25 H 0.5500 0.6990 0.3769
H51_19 H 0.6231 0.8010 0.4500
C77_32 C 0.67084(9) 0.70684(9) 0.35896(9)
C78_32 C 0.82916(9) 0.64104(9) 0.29316(9)
C80_25 C 0.54316(9) 0.67084(9) 0.39104(9)
C81_19 C 0.60896(9) 0.82916(9) 0.45684(9)
C82_32 C 0.65339(8) 0.71959(8) 0.36087(8)
C83_32 C 0.84661(8) 0.63913(8) 0.28041(8)
C85_25 C 0.53041(8) 0.65339(8) 0.38913(8)
C86_19 C 0.61087(8) 0.84661(8) 0.46959(8)
H52_32 H 0.6424 0.7181 0.3509
H53_32 H 0.8576 0.6491 0.2819
H55_25 H 0.5319 0.6424 0.3991
H56_19 H 0.6009 0.8576 0.4681
C87_32 C 0.67172(8) 0.69082(8) 0.34222(8)
C88_32 C 0.82828(8) 0.65778(8) 0.30918(8)
C90_25 C 0.55918(8) 0.67172(8) 0.40778(8)
C91_19 C 0.59222(8) 0.82828(8) 0.44082(8)
C92_32 C 0.68865(8) 0.66525(9) 0.32477(8)
C93_32 C 0.81135(8) 0.67523(8) 0.33475(9)
C95_25 C 0.58475(9) 0.68865(8) 0.42523(8)
C96_19 C 0.57477(8) 0.81135(8) 0.41525(9)
C97_32 C 0.65556(8) 0.67374(9) 0.31574(8)
C98_32 C 0.84444(8) 0.68426(8) 0.32626(9)
C100_25 C 0.57626(9) 0.65556(8) 0.43426(8)
C101_19 C 0.56574(8) 0.84444(8) 0.42374(9)
C102_32 C 0.63710(8) 0.65339(9) 0.28852(8)
C103_32 C 0.86290(8) 0.71148(8) 0.34661(9)
C105_25 C 0.59661(9) 0.63710(8) 0.46148(8)
C106_19 C 0.53852(8) 0.86290(8) 0.40339(9)
H57_32 H 0.6495 0.6451 0.2874
H58_32 H 0.8505 0.7126 0.3549
H60_25 H 0.6049 0.6495 0.4626
H61_19 H 0.5374 0.8505 0.3951
C107_32 C 0.63688(9) 0.66970(10) 0.30301(9)
C108_32 C 0.86312(9) 0.69699(9) 0.33030(10)
C110_25 C 0.58030(10) 0.63688(9) 0.44699(9)
C111_19 C 0.55301(9) 0.86312(9) 0.41970(10)
C112_32 C 0.61869(11) 0.68150(12) 0.30496(12)
C113_32 C 0.88131(11) 0.69504(12) 0.31850(12)
C115_25 C 0.56850(12) 0.61869(11) 0.44504(12)
C116_19 C 0.55496(12) 0.88131(11) 0.43150(12)
H62_32 H 0.6178 0.6927 0.3148
H63_32 H 0.8822 0.6852 0.3073
H65_25 H 0.5573 0.6178 0.4352
H66_19 H 0.5648 0.8822 0.4427
C117_32 C 0.60183(12) 0.67655(14) 0.29226(13)
C118_32 C 0.89817(12) 0.70774(13) 0.32345(14)
C120_25 C 0.57345(14) 0.60183(12) 0.45774(13)
C121_19 C 0.54226(13) 0.89817(12) 0.42655(14)
H67_32 H 0.5891 0.6842 0.2934
H68_32 H 0.9109 0.7066 0.3158
H70_25 H 0.5658 0.5891 0.4566
H71_19 H 0.5434 0.9109 0.4342
C122_32 C 0.60372(10) 0.66040(12) 0.27793(11)
C123_32 C 0.89628(10) 0.72207(11) 0.33960(12)
C125_25 C 0.58960(12) 0.60372(10) 0.47207(11)
C126_19 C 0.52793(11) 0.89628(10) 0.41040(12)
H72_32 H 0.5922 0.6575 0.2689
H73_32 H 0.9078 0.7311 0.3425
H75_25 H 0.5925 0.5922 0.4811
H76_19 H 0.5189 0.9078 0.4075
S2_34 S 0.79936(4) 0.38094(8) 0.49585(4)
N2_34 N 0.84248(8) 0.37739(7) 0.50105(7)
C2_34 C 0.82463(12) 0.37880(12) 0.49890(9)
S8_34 S 0.95064(4) 0.36906(8) 0.49585(4)
N16_34 N 0.90752(8) 0.37261(7) 0.50105(7)
N59_17 N 0.87490(8) 0.34894(8) 0.48039(7)
N60_17 N 0.84894(8) 0.26961(7) 0.37510(8)
N61_17 N 0.76961(7) 0.37490(8) 0.40106(8)
N68_17 N 0.82813(8) 0.34393(8) 0.43629(8)
N69_17 N 0.81371(8) 0.32813(8) 0.40607(8)
N70_17 N 0.84393(8) 0.31371(8) 0.42187(8)
C32_34 C 0.92537(12) 0.37120(12) 0.49890(9)
C129_17 C 0.88830(12) 0.33277(11) 0.48302(11)
C130_17 C 0.83277(11) 0.26698(11) 0.36170(12)
C131_17 C 0.76698(11) 0.38830(12) 0.41723(11)
H79_17 H 0.8987 0.3339 0.4936
H80_17 H 0.8339 0.2564 0.3513
H81_17 H 0.7564 0.3987 0.4161
C134_17 C 0.88764(15) 0.31485(12) 0.47114(14)
C135_17 C 0.81485(12) 0.27886(14) 0.36236(15)
C136_17 C 0.77886(14) 0.38764(15) 0.43515(12)
H84_17 H 0.8973 0.3038 0.4737
H85_17 H 0.8038 0.2763 0.3527
H86_17 H 0.7763 0.3973 0.4462
C139_17 C 0.87281(13) 0.31310(12) 0.45545(13)
C140_17 C 0.81310(12) 0.29455(13) 0.37719(13)
C141_17 C 0.79455(13) 0.37281(13) 0.43690(12)
H89_17 H 0.8720 0.3009 0.4470
H90_17 H 0.8009 0.3030 0.3780
H91_17 H 0.8030 0.3720 0.4491
C144_17 C 0.85897(11) 0.32984(10) 0.45234(10)
C145_17 C 0.82984(10) 0.29766(10) 0.39103(11)
C146_17 C 0.79766(10) 0.35897(11) 0.42016(10)
C149_17 C 0.86041(9) 0.34717(9) 0.46526(8)
C150_17 C 0.84717(9) 0.28474(8) 0.38959(9)
C151_17 C 0.78474(8) 0.36041(9) 0.40283(9)
H94_17 H 0.8507 0.3583 0.4634
H95_17 H 0.8583 0.2866 0.3993
H96_17 H 0.7866 0.3507 0.3917
C154_17 C 0.84264(10) 0.32889(10) 0.43605(10)
C155_17 C 0.81395(10) 0.34264(10) 0.42111(10)
C156_17 C 0.82889(10) 0.31395(10) 0.40736(10)
S1_33 S 0.33635(3) 0.04384(3) 0.67256(3)
N1_33 N 0.36307(7) 0.02418(6) 0.64419(7)
C1_33 C 0.35203(9) 0.03286(8) 0.65578(8)
S4_23 S 0.41365(3) 0.17256(3) 0.70616(3)
S5_23 S 0.32744(3) 0.08635(3) 0.79384(3)
N12_23 N 0.38693(7) 0.14419(7) 0.72582(6)
N13_23 N 0.35581(7) 0.11307(7) 0.77418(6)
N21_33 N 0.40974(7) 0.01484(7) 0.63395(6)
N28_23 N 0.37391(7) 0.09893(7) 0.73399(7)
N33_23 N 0.40107(7) 0.12609(7) 0.76601(7)
N35_33 N 0.40989(7) 0.06081(7) 0.67959(7)
N40_33 N 0.41926(7) 0.09580(7) 0.68836(7)
N45_33 N 0.43807(7) 0.07743(7) 0.66194(8)
C28_23 C 0.39797(9) 0.15578(8) 0.71714(8)
C29_23 C 0.34422(8) 0.10203(9) 0.78286(8)
C37_33 C 0.42760(11) 0.01112(10) 0.62342(10)
H17_33 H 0.4277 0.0002 0.6133
C42_33 C 0.44586(13) 0.02237(11) 0.62654(12)
H22_33 H 0.4583 0.0186 0.6193
C47_33 C 0.44583(12) 0.03912(10) 0.64020(10)
H27_33 H 0.4579 0.0476 0.6420
C52_33 C 0.42750(9) 0.04317(9) 0.65120(8)
C57_33 C 0.41023(8) 0.03043(8) 0.64790(7)
H32_33 H 0.3980 0.0329 0.6561
C62_33 C 0.36019(12) 0.08315(11) 0.73583(11)
H37_33 H 0.3494 0.0843 0.7461
C67_33 C 0.36085(13) 0.06515(12) 0.72360(13)
H42_33 H 0.3507 0.0544 0.7255
C72_33 C 0.37624(11) 0.06308(11) 0.70877(12)
H47_33 H 0.3769 0.0510 0.7000
C77_33 C 0.39104(9) 0.07916(9) 0.70684(9)
C82_33 C 0.38913(8) 0.09661(8) 0.71959(8)
H52_33 H 0.3991 0.1076 0.7181
C87_33 C 0.40778(8) 0.07828(8) 0.69082(8)
C92_33 C 0.42523(8) 0.06135(8) 0.66525(9)
C97_33 C 0.43426(8) 0.09444(8) 0.67374(9)
C102_33 C 0.46148(8) 0.11290(8) 0.65339(9)
H57_33 H 0.4626 0.1005 0.6451
C107_33 C 0.44699(9) 0.11312(9) 0.66970(10)
C112_33 C 0.44504(12) 0.13131(11) 0.68150(12)
H62_33 H 0.4352 0.1322 0.6927
C117_33 C 0.45774(13) 0.14817(12) 0.67655(14)
H67_33 H 0.4566 0.1609 0.6842
C122_33 C 0.47207(11) 0.14628(10) 0.66040(12)
H72_33 H 0.4811 0.1578 0.6575
S3_33 S 0.42256(3) 0.95616(3) 0.58635(3)
N11_33 N 0.39419(7) 0.97582(6) 0.61307(7)
N22_33 N 0.38395(6) 0.98516(7) 0.65974(7)
N36_33 N 0.42959(7) 0.93919(7) 0.65989(7)
N41_33 N 0.43836(7) 0.90420(7) 0.66926(7)
N46_33 N 0.41194(8) 0.92257(7) 0.68807(7)
C27_33 C 0.40578(8) 0.96714(8) 0.60203(9)
C38_33 C 0.37342(10) 0.98888(10) 0.67760(11)
H18_33 H 0.3633 0.9998 0.6777
C43_33 C 0.37654(12) 0.97763(11) 0.69586(13)
H23_33 H 0.3693 0.9814 0.7083
C48_33 C 0.39020(10) 0.96088(10) 0.69583(12)
H28_33 H 0.3920 0.9524 0.7079
C53_33 C 0.40120(8) 0.95683(9) 0.67750(9)
C58_33 C 0.39790(7) 0.96957(8) 0.66023(8)
H33_33 H 0.4061 0.9671 0.6480
C63_33 C 0.48583(11) 0.91685(11) 0.61019(12)
H38_33 H 0.4961 0.9157 0.5994
C68_33 C 0.47360(13) 0.93485(12) 0.61085(13)
H43_33 H 0.4755 0.9456 0.6007
C73_33 C 0.45877(12) 0.93692(11) 0.62624(11)
H48_33 H 0.4500 0.9490 0.6269
C78_33 C 0.45684(9) 0.92084(9) 0.64104(9)
C83_33 C 0.46959(8) 0.90339(8) 0.63913(8)
H53_33 H 0.4681 0.8924 0.6491
C88_33 C 0.44082(8) 0.92172(8) 0.65778(8)
C93_33 C 0.41525(9) 0.93865(8) 0.67523(8)
C98_33 C 0.42374(9) 0.90556(8) 0.68426(8)
C103_33 C 0.40339(9) 0.88710(8) 0.71148(8)
H58_33 H 0.3951 0.8995 0.7126
C108_33 C 0.41970(10) 0.88688(9) 0.69699(9)
C113_33 C 0.43150(12) 0.86869(11) 0.69504(12)
H63_33 H 0.4427 0.8678 0.6852
C118_33 C 0.42655(14) 0.85183(12) 0.70774(13)
H68_33 H 0.4342 0.8391 0.7066
C123_33 C 0.41040(12) 0.85372(10) 0.72207(11)
H73_33 H 0.4075 0.8422 0.7311
N32_20 N 0.73399(7) 0.09893(7) 0.87391(7)
N39_20 N 0.67959(7) 0.06081(7) 0.90989(7)
N44_20 N 0.68836(7) 0.09580(7) 0.91926(7)
N49_20 N 0.66194(8) 0.07743(7) 0.93807(7)
N54_20 N 0.64869(8) 0.12901(7) 0.97381(7)
C41_20 C 0.62342(10) 0.01112(10) 0.92760(11)
H21_20 H 0.6133 0.0002 0.9277
C46_20 C 0.62654(12) 0.02237(11) 0.94586(13)
H26_20 H 0.6193 0.0186 0.9583
C51_20 C 0.64020(10) 0.03912(10) 0.94583(12)
H31_20 H 0.6420 0.0476 0.9579
C56_20 C 0.65120(8) 0.04317(9) 0.92750(9)
C61_20 C 0.64790(7) 0.03043(8) 0.91023(8)
H36_20 H 0.6561 0.0329 0.8980
C66_20 C 0.73583(11) 0.08315(11) 0.86019(12)
H41_20 H 0.7461 0.0843 0.8494
C71_20 C 0.72360(13) 0.06515(12) 0.86085(13)
H46_20 H 0.7255 0.0544 0.8507
C76_20 C 0.70877(12) 0.06308(11) 0.87624(11)
H51_20 H 0.7000 0.0510 0.8769
C81_20 C 0.70684(9) 0.07916(9) 0.89104(9)
C86_20 C 0.71959(8) 0.09661(8) 0.88913(8)
H56_20 H 0.7181 0.1076 0.8991
C91_20 C 0.69082(8) 0.07828(8) 0.90778(8)
C96_20 C 0.66525(9) 0.06135(8) 0.92523(8)
C101_20 C 0.67374(9) 0.09444(8) 0.93426(8)
C106_20 C 0.65339(9) 0.11290(8) 0.96148(8)
H61_20 H 0.6451 0.1005 0.9626
C111_20 C 0.66970(10) 0.11312(9) 0.94699(9)
C116_20 C 0.68150(12) 0.13131(11) 0.94504(12)
H66_20 H 0.6927 0.1322 0.9352
C121_20 C 0.67655(14) 0.14817(12) 0.95774(13)
H71_20 H 0.6842 0.1609 0.9566
C126_20 C 0.66040(12) 0.14628(10) 0.97207(11)
H76_20 H 0.6575 0.1578 0.9811
S2_35 S 0.75415(4) 0.95064(4) 0.88094(8)
N2_35 N 0.74895(7) 0.90752(8) 0.87739(7)
N9_15 N 0.76961(7) 0.87490(8) 0.90106(8)
N10_15 N 0.81371(8) 0.82813(8) 0.90607(8)
C2_35 C 0.75110(9) 0.92537(12) 0.87880(12)
C21_15 C 0.76698(11) 0.88830(12) 0.91723(11)
H13_15 H 0.7564 0.8987 0.9161
C22_15 C 0.77886(14) 0.88764(15) 0.93515(12)
H14_15 H 0.7763 0.8973 0.9462
C23_15 C 0.79455(13) 0.87281(13) 0.93690(12)
H15_15 H 0.8030 0.8720 0.9491
C24_15 C 0.79766(10) 0.85897(11) 0.92016(10)
C25_15 C 0.78474(8) 0.86041(9) 0.90283(9)
H16_15 H 0.7866 0.8507 0.8917
C26_15 C 0.81395(10) 0.84264(10) 0.92111(10)
S8_35 S 0.75415(4) 0.79936(4) 0.86906(8)
N16_35 N 0.74895(7) 0.84248(8) 0.87261(7)
N57_15 N 0.87490(8) 0.84894(8) 0.98039(7)
N58_15 N 0.84894(8) 0.76961(7) 0.87510(8)
N66_15 N 0.84393(8) 0.81371(8) 0.92187(8)
N67_15 N 0.82813(8) 0.84393(8) 0.93629(8)
C32_35 C 0.75110(9) 0.82463(12) 0.87120(12)
C127_15 C 0.88830(12) 0.83277(11) 0.98302(11)
C128_15 C 0.83277(11) 0.76698(11) 0.86170(12)
H77_15 H 0.8987 0.8339 0.9936
H78_15 H 0.8339 0.7564 0.8513
C132_15 C 0.88764(15) 0.81485(12) 0.97114(14)
C133_15 C 0.81485(12) 0.77886(14) 0.86236(15)
H82_15 H 0.8973 0.8038 0.9737
H83_15 H 0.8038 0.7763 0.8527
C137_15 C 0.87281(13) 0.81310(12) 0.95545(13)
C138_15 C 0.81310(12) 0.79455(13) 0.87719(13)
H87_15 H 0.8720 0.8009 0.9470
H88_15 H 0.8009 0.8030 0.8780
C142_15 C 0.85897(11) 0.82984(10) 0.95234(10)
C143_15 C 0.82984(10) 0.79766(10) 0.89103(11)
C147_15 C 0.86041(9) 0.84717(9) 0.96526(8)
C148_15 C 0.84717(9) 0.78474(8) 0.88959(9)
H92_15 H 0.8507 0.8583 0.9634
H93_15 H 0.8583 0.7866 0.8993
C152_15 C 0.82889(10) 0.81395(10) 0.90736(10)
C153_15 C 0.84264(10) 0.82889(10) 0.93605(10)
S1_34 S 0.82744(3) 0.45616(3) 0.16365(3)
N1_34 N 0.85581(7) 0.47582(6) 0.13693(7)
C1_34 C 0.84422(8) 0.46714(8) 0.14797(9)
S3_34 S 0.91365(3) 0.54384(3) 0.07744(3)
S4_24 S 0.79384(3) 0.32744(3) 0.08635(3)
S5_24 S 0.70616(3) 0.41365(3) 0.17256(3)
N11_34 N 0.88693(7) 0.52418(6) 0.10581(7)
N12_24 N 0.77418(6) 0.35581(7) 0.11307(7)
N13_24 N 0.72582(6) 0.38693(7) 0.14419(7)
N21_34 N 0.86605(6) 0.48516(7) 0.09026(7)
N22_34 N 0.84026(7) 0.51484(7) 0.11605(6)
N28_24 N 0.76601(7) 0.40107(7) 0.12609(7)
N33_24 N 0.73399(7) 0.37391(7) 0.09893(7)
N35_34 N 0.82041(7) 0.43919(7) 0.09011(7)
N36_34 N 0.84011(7) 0.56081(7) 0.07041(7)
N40_34 N 0.81164(7) 0.40420(7) 0.08074(7)
N41_34 N 0.83074(7) 0.59580(7) 0.06164(7)
N45_34 N 0.83806(8) 0.42257(7) 0.06193(7)
N46_34 N 0.81193(7) 0.57743(7) 0.08806(8)
C27_34 C 0.89797(9) 0.53286(8) 0.09422(8)
C28_24 C 0.78286(8) 0.34422(8) 0.10203(9)
C29_24 C 0.71714(8) 0.39797(9) 0.15578(8)
C37_34 C 0.87658(10) 0.48888(10) 0.07240(11)
C38_34 C 0.82240(11) 0.51112(10) 0.12658(10)
H17_34 H 0.8867 0.4998 0.0723
H18_34 H 0.8223 0.5002 0.1367
C42_34 C 0.87346(12) 0.47763(11) 0.05414(13)
C43_34 C 0.80414(13) 0.52237(11) 0.12346(12)
H22_34 H 0.8807 0.4814 0.0417
H23_34 H 0.7917 0.5186 0.1307
C47_34 C 0.85980(10) 0.46088(10) 0.05417(12)
C48_34 C 0.80417(12) 0.53912(10) 0.10980(10)
H27_34 H 0.8580 0.4524 0.0421
H28_34 H 0.7921 0.5476 0.1080
C52_34 C 0.84880(8) 0.45683(9) 0.07250(9)
C53_34 C 0.82250(9) 0.54317(9) 0.09880(8)
C57_34 C 0.85210(7) 0.46957(8) 0.08977(8)
C58_34 C 0.83977(8) 0.53043(8) 0.10210(7)
H32_34 H 0.8439 0.4671 0.1020
H33_34 H 0.8520 0.5329 0.0939
C62_34 C 0.76417(11) 0.41685(11) 0.13981(12)
C63_34 C 0.88981(12) 0.58315(11) 0.01417(11)
H37_34 H 0.7539 0.4157 0.1506
H38_34 H 0.9006 0.5843 0.0039
C67_34 C 0.77640(13) 0.43485(12) 0.13915(13)
C68_34 C 0.88915(13) 0.56515(12) 0.02640(13)
H42_34 H 0.7745 0.4456 0.1493
H43_34 H 0.8993 0.5544 0.0245
C72_34 C 0.79123(12) 0.43692(11) 0.12376(11)
C73_34 C 0.87376(11) 0.56308(11) 0.04123(12)
H47_34 H 0.8000 0.4490 0.1231
H48_34 H 0.8731 0.5510 0.0500
C77_34 C 0.79316(9) 0.42084(9) 0.10896(9)
C78_34 C 0.85896(9) 0.57916(9) 0.04316(9)
C82_34 C 0.78041(8) 0.40339(8) 0.11087(8)
C83_34 C 0.86087(8) 0.59661(8) 0.03041(8)
H52_34 H 0.7819 0.3924 0.1009
H53_34 H 0.8509 0.6076 0.0319
C87_34 C 0.80918(8) 0.42172(8) 0.09222(8)
C88_34 C 0.84222(8) 0.57828(8) 0.05918(8)
C92_34 C 0.83475(9) 0.43865(8) 0.07477(8)
C93_34 C 0.82477(8) 0.56135(8) 0.08475(9)
C97_34 C 0.82626(9) 0.40556(8) 0.06574(8)
C98_34 C 0.81574(8) 0.59444(8) 0.07626(9)
C102_34 C 0.84661(9) 0.38710(8) 0.03852(8)
C103_34 C 0.78852(8) 0.61290(8) 0.09661(9)
H57_34 H 0.8549 0.3995 0.0374
H58_34 H 0.7874 0.6005 0.1049
C107_34 C 0.83030(10) 0.38688(9) 0.05301(9)
C108_34 C 0.80301(9) 0.61312(9) 0.08030(10)
C112_34 C 0.81850(12) 0.36869(11) 0.05496(12)
C113_34 C 0.80496(12) 0.63131(11) 0.06850(12)
H62_34 H 0.8073 0.3678 0.0648
H63_34 H 0.8148 0.6322 0.0573
C117_34 C 0.82345(14) 0.35183(12) 0.04226(13)
C118_34 C 0.79226(13) 0.64817(12) 0.07345(14)
H67_34 H 0.8158 0.3391 0.0434
H68_34 H 0.7934 0.6609 0.0658
C122_34 C 0.83960(12) 0.35372(10) 0.02793(11)
C123_34 C 0.77793(11) 0.64628(10) 0.08960(12)
H72_34 H 0.8425 0.3422 0.0189
H73_34 H 0.7689 0.6578 0.0925
S1_35 S 0.70616(3) 0.07744(3) 0.33635(3)
N1_35 N 0.72582(6) 0.10581(7) 0.36307(7)
C1_35 C 0.71714(8) 0.09422(8) 0.35203(9)
Co10_19 Co 0.8750 0.002232(14) 0.3750
S3_35 S 0.79384(3) 0.16365(3) 0.42256(3)
S4_25 S 0.57744(3) 0.04384(3) 0.41365(3)
N11_35 N 0.77418(6) 0.13693(7) 0.39419(7)
N12_25 N 0.60581(7) 0.02418(6) 0.38693(7)
N19_19 N 0.90752(8) 0.00105(7) 0.37261(7)
N20_19 N 0.84248(8) 0.00105(7) 0.37739(7)
N21_35 N 0.73516(7) 0.11605(6) 0.40974(7)
N22_35 N 0.76484(7) 0.09026(7) 0.38395(6)
N28_25 N 0.65107(7) 0.01601(7) 0.37391(7)
N35_35 N 0.68919(7) 0.07041(7) 0.40989(7)
N36_35 N 0.81081(7) 0.09011(7) 0.42959(7)
N40_35 N 0.65420(7) 0.06164(7) 0.41926(7)
N41_35 N 0.84580(7) 0.08074(7) 0.43836(7)
N45_35 N 0.67257(7) 0.08806(8) 0.43807(7)
N46_35 N 0.82743(7) 0.06193(7) 0.41194(8)
N51_19 N 0.87901(7) 0.02619(7) 0.39869(8)
N56_19 N 0.87099(7) 0.02619(7) 0.35131(8)
C27_35 C 0.78286(8) 0.14797(9) 0.40578(8)
C28_25 C 0.59422(8) 0.03286(8) 0.39797(9)
C37_35 C 0.73888(10) 0.12658(10) 0.42760(11)
C38_35 C 0.76112(10) 0.07240(11) 0.37342(10)
H17_35 H 0.7498 0.1367 0.4277
H18_35 H 0.7502 0.0723 0.3633
C42_35 C 0.72763(11) 0.12346(12) 0.44586(13)
C43_35 C 0.77237(11) 0.05414(13) 0.37654(12)
H22_35 H 0.7314 0.1307 0.4583
H23_35 H 0.7686 0.0417 0.3693
C47_35 C 0.71088(10) 0.10980(10) 0.44583(12)
C48_35 C 0.78912(10) 0.05417(12) 0.39020(10)
H27_35 H 0.7024 0.1080 0.4579
H28_35 H 0.7976 0.0421 0.3920
C52_35 C 0.70683(9) 0.09880(8) 0.42750(9)
C53_35 C 0.79317(9) 0.07250(9) 0.40120(8)
C57_35 C 0.71957(8) 0.10210(7) 0.41023(8)
C58_35 C 0.78043(8) 0.08977(8) 0.39790(7)
H32_35 H 0.7171 0.0939 0.3980
H33_35 H 0.7829 0.1020 0.4061
C62_35 C 0.66685(11) 0.01417(11) 0.36019(12)
C63_35 C 0.83315(11) 0.13981(12) 0.48583(11)
H37_35 H 0.6657 0.0039 0.3494
H38_35 H 0.8343 0.1506 0.4961
C67_35 C 0.68485(12) 0.02640(13) 0.36085(13)
C68_35 C 0.81515(12) 0.13915(13) 0.47360(13)
H42_35 H 0.6956 0.0245 0.3507
H43_35 H 0.8044 0.1493 0.4755
C72_35 C 0.68692(11) 0.04123(12) 0.37624(11)
C73_35 C 0.81308(11) 0.12376(11) 0.45877(12)
H47_35 H 0.6990 0.0500 0.3769
H48_35 H 0.8010 0.1231 0.4500
C77_35 C 0.67084(9) 0.04316(9) 0.39104(9)
C78_35 C 0.82916(9) 0.10896(9) 0.45684(9)
C82_35 C 0.65339(8) 0.03041(8) 0.38913(8)
C83_35 C 0.84661(8) 0.11087(8) 0.46959(8)
H52_35 H 0.6424 0.0319 0.3991
H53_35 H 0.8576 0.1009 0.4681
C87_35 C 0.67172(8) 0.05918(8) 0.40778(8)
C88_35 C 0.82828(8) 0.09222(8) 0.44082(8)
C92_35 C 0.68865(8) 0.08475(9) 0.42523(8)
C93_35 C 0.81135(8) 0.07477(8) 0.41525(9)
C97_35 C 0.65556(8) 0.07626(9) 0.43426(8)
C98_35 C 0.84444(8) 0.06574(8) 0.42374(9)
C102_35 C 0.63710(8) 0.09661(9) 0.46148(8)
C103_35 C 0.86290(8) 0.03852(8) 0.40339(9)
H57_35 H 0.6495 0.1049 0.4626
H58_35 H 0.8505 0.0374 0.3951
C107_35 C 0.63688(9) 0.08030(10) 0.44699(9)
C108_35 C 0.86312(9) 0.05301(9) 0.41970(10)
C112_35 C 0.61869(11) 0.06850(12) 0.44504(12)
C113_35 C 0.88131(11) 0.05496(12) 0.43150(12)
H62_35 H 0.6178 0.0573 0.4352
H63_35 H 0.8822 0.0648 0.4427
C117_35 C 0.60183(12) 0.07345(14) 0.45774(13)
C118_35 C 0.89817(12) 0.04226(13) 0.42655(14)
H67_35 H 0.5891 0.0658 0.4566
H68_35 H 0.9109 0.0434 0.4342
C122_35 C 0.60372(10) 0.08960(12) 0.47207(11)
C123_35 C 0.89628(10) 0.02793(11) 0.41040(12)
H72_35 H 0.5922 0.0925 0.4811
H73_35 H 0.9078 0.0189 0.4075
S5_25 S 0.66365(3) 0.95616(3) 0.32744(3)
S11_19 S 0.95064(4) 0.99585(4) 0.36906(8)
S12_19 S 0.79936(4) 0.99585(4) 0.38094(8)
N13_25 N 0.63693(7) 0.97582(6) 0.35581(7)
N25_18 N 0.59026(7) 0.98516(7) 0.36605(6)
N32_21 N 0.62609(7) 0.90107(7) 0.26601(7)
N33_25 N 0.62391(7) 0.98399(7) 0.40107(7)
N39_21 N 0.59011(7) 0.93919(7) 0.32041(7)
N44_21 N 0.58074(7) 0.90420(7) 0.31164(7)
N49_21 N 0.56193(7) 0.92257(7) 0.33806(8)
N54_21 N 0.52619(7) 0.87099(7) 0.35131(8)
N64_19 N 0.87490(8) 0.98039(7) 0.34894(8)
N65_19 N 0.87510(8) 0.98039(7) 0.40106(8)
C29_25 C 0.64797(9) 0.96714(8) 0.34422(8)
C35_19 C 0.92537(12) 0.99890(9) 0.37120(12)
C36_19 C 0.82463(12) 0.99890(9) 0.37880(12)
C41_21 C 0.57240(11) 0.98888(10) 0.37658(10)
H21_21 H 0.5723 0.9998 0.3867
C46_21 C 0.55414(13) 0.97763(11) 0.37346(12)
H26_21 H 0.5417 0.9814 0.3807
C51_21 C 0.55417(12) 0.96088(10) 0.35980(10)
H31_21 H 0.5421 0.9524 0.3580
C56_21 C 0.57250(9) 0.95683(9) 0.34880(8)
C61_21 C 0.58977(8) 0.96957(8) 0.35210(7)
H36_21 H 0.6020 0.9671 0.3439
C66_21 C 0.63981(12) 0.91685(11) 0.26417(11)
H41_21 H 0.6506 0.9157 0.2539
C71_21 C 0.63915(13) 0.93485(12) 0.27640(13)
H46_21 H 0.6493 0.9456 0.2745
C76_21 C 0.62376(11) 0.93692(11) 0.29123(12)
H51_21 H 0.6231 0.9490 0.3000
C81_21 C 0.60896(9) 0.92084(9) 0.29316(9)
C86_21 C 0.61087(8) 0.90339(8) 0.28041(8)
H56_21 H 0.6009 0.8924 0.2819
C91_21 C 0.59222(8) 0.92172(8) 0.30918(8)
C96_21 C 0.57477(8) 0.93865(8) 0.33475(9)
C101_21 C 0.56574(8) 0.90556(8) 0.32626(9)
C106_21 C 0.53852(8) 0.88710(8) 0.34661(9)
H61_21 H 0.5374 0.8995 0.3549
C111_21 C 0.55301(9) 0.88688(9) 0.33030(10)
C116_21 C 0.55496(12) 0.86869(11) 0.31850(12)
H66_21 H 0.5648 0.8678 0.3073
C121_21 C 0.54226(13) 0.85183(12) 0.32345(14)
H71_21 H 0.5434 0.8391 0.3158
C126_21 C 0.52793(11) 0.85372(10) 0.33960(12)
H76_21 H 0.5189 0.8422 0.3425
S2_36 S 0.04936(4) 0.24585(4) 0.61906(8)
N2_36 N 0.09248(8) 0.25105(7) 0.62261(7)
C2_36 C 0.07463(12) 0.24890(9) 0.62120(12)
S8_36 S 0.20064(4) 0.24585(4) 0.63094(8)
N16_36 N 0.15752(8) 0.25105(7) 0.62739(7)
N31_26 N 0.09893(7) 0.37609(7) 0.51601(7)
N38_26 N 0.06081(7) 0.34011(7) 0.57041(7)
N43_26 N 0.09580(7) 0.33074(7) 0.56164(7)
N48_26 N 0.07743(7) 0.31193(7) 0.58806(8)
N53_26 N 0.12901(7) 0.27619(7) 0.60131(8)
C32_36 C 0.17537(12) 0.24890(9) 0.62880(12)
C40_26 C 0.01112(10) 0.32240(11) 0.62658(10)
H20_26 H 0.0002 0.3223 0.6367
C45_26 C 0.02237(11) 0.30414(13) 0.62346(12)
H25_26 H 0.0186 0.2917 0.6307
C50_26 C 0.03912(10) 0.30417(12) 0.60980(10)
H30_26 H 0.0476 0.2921 0.6080
C55_26 C 0.04317(9) 0.32250(9) 0.59880(8)
C60_26 C 0.03043(8) 0.33977(8) 0.60210(7)
H35_26 H 0.0329 0.3520 0.5939
C65_26 C 0.08315(11) 0.38981(12) 0.51417(11)
H40_26 H 0.0843 0.4006 0.5039
C70_26 C 0.06515(12) 0.38915(13) 0.52640(13)
H45_26 H 0.0544 0.3993 0.5245
C75_26 C 0.06308(11) 0.37376(11) 0.54123(12)
H50_26 H 0.0510 0.3731 0.5500
C80_26 C 0.07916(9) 0.35896(9) 0.54316(9)
C85_26 C 0.09661(8) 0.36087(8) 0.53041(8)
H55_26 H 0.1076 0.3509 0.5319
C90_26 C 0.07828(8) 0.34222(8) 0.55918(8)
C95_26 C 0.06135(8) 0.32477(8) 0.58475(9)
C100_26 C 0.09444(8) 0.31574(8) 0.57626(9)
C105_26 C 0.11290(8) 0.28852(8) 0.59661(9)
H60_26 H 0.1005 0.2874 0.6049
C110_26 C 0.11312(9) 0.30301(9) 0.58030(10)
C115_26 C 0.13131(11) 0.30496(12) 0.56850(12)
H65_26 H 0.1322 0.3148 0.5573
C120_26 C 0.14817(12) 0.29226(13) 0.57345(14)
H70_26 H 0.1609 0.2934 0.5658
C125_26 C 0.14628(10) 0.27793(11) 0.58960(12)
H75_26 H 0.1578 0.2689 0.5925
S1_36 S 0.33635(3) 0.70616(3) 0.07744(3)
S2_37 S 0.24585(4) 0.61906(8) 0.04936(4)
N1_36 N 0.36307(7) 0.72582(6) 0.10581(7)
N2_37 N 0.25105(7) 0.62261(7) 0.09248(8)
N3_17 N 0.34026(7) 0.63395(6) 0.23516(7)
N4_21 N 0.37609(7) 0.73399(7) 0.15107(7)
N5_21 N 0.34011(7) 0.67959(7) 0.18919(7)
N6_21 N 0.33074(7) 0.68836(7) 0.15420(7)
N7_21 N 0.31193(7) 0.66194(8) 0.17257(7)
N8_21 N 0.27619(7) 0.64869(8) 0.12099(7)
C1_36 C 0.35203(9) 0.71714(8) 0.09422(8)
C2_37 C 0.24890(9) 0.62120(12) 0.07463(12)
C3_21 C 0.32240(11) 0.62342(10) 0.23888(10)
H1_21 H 0.3223 0.6133 0.2498
C4_21 C 0.30414(13) 0.62654(12) 0.22763(11)
H2_21 H 0.2917 0.6193 0.2314
C5_21 C 0.30417(12) 0.64020(10) 0.21088(10)
H3_21 H 0.2921 0.6420 0.2024
C6_21 C 0.32250(9) 0.65120(8) 0.20683(9)
C7_21 C 0.33977(8) 0.64790(7) 0.21957(8)
H4_21 H 0.3520 0.6561 0.2171
C8_21 C 0.38981(12) 0.73583(11) 0.16685(11)
H5_21 H 0.4006 0.7461 0.1657
C9_21 C 0.38915(13) 0.72360(13) 0.18485(12)
H6_21 H 0.3993 0.7255 0.1956
C10_21 C 0.37376(11) 0.70877(12) 0.18692(11)
H7_21 H 0.3731 0.7000 0.1990
C11_21 C 0.35896(9) 0.70684(9) 0.17084(9)
C12_21 C 0.36087(8) 0.71959(8) 0.15339(8)
H8_21 H 0.3509 0.7181 0.1424
C13_21 C 0.34222(8) 0.69082(8) 0.17172(8)
C14_21 C 0.32477(8) 0.66525(9) 0.18865(8)
C15_21 C 0.31574(8) 0.67374(9) 0.15556(8)
C16_21 C 0.28852(8) 0.65339(9) 0.13710(8)
H9_21 H 0.2874 0.6451 0.1495
C17_21 C 0.30301(9) 0.66970(10) 0.13688(9)
C18_21 C 0.30496(12) 0.68150(12) 0.11869(11)
H10_21 H 0.3148 0.6927 0.1178
C19_21 C 0.29226(13) 0.67655(14) 0.10183(12)
H11_21 H 0.2934 0.6842 0.0891
C20_21 C 0.27793(11) 0.66040(12) 0.10372(10)
H12_21 H 0.2689 0.6575 0.0922
Co9_27 Co 0.497768(14) 0.6250 0.1250
S3_36 S 0.42256(3) 0.79384(3) 0.16365(3)
S8_37 S 0.24585(4) 0.63094(8) 0.20064(4)
S9_27 S 0.50415(4) 0.54936(4) 0.13094(8)
S10_27 S 0.50415(4) 0.70064(4) 0.11906(8)
N11_36 N 0.39419(7) 0.77418(6) 0.13693(7)
N16_37 N 0.25105(7) 0.62739(7) 0.15752(8)
N17_27 N 0.49895(7) 0.59248(8) 0.12739(7)
N18_27 N 0.49895(7) 0.65752(8) 0.12261(7)
N21_36 N 0.40974(7) 0.73516(7) 0.11605(6)
N22_36 N 0.38395(6) 0.76484(7) 0.09026(7)
N31_27 N 0.37609(7) 0.51601(7) 0.09893(7)
N35_36 N 0.40989(7) 0.68919(7) 0.07041(7)
N36_36 N 0.42959(7) 0.81081(7) 0.09011(7)
N38_27 N 0.34011(7) 0.57041(7) 0.06081(7)
N40_36 N 0.41926(7) 0.65420(7) 0.06164(7)
N41_36 N 0.43836(7) 0.84580(7) 0.08074(7)
N43_27 N 0.33074(7) 0.56164(7) 0.09580(7)
N45_36 N 0.43807(7) 0.67257(7) 0.08806(8)
N46_36 N 0.41194(8) 0.82743(7) 0.06193(7)
N48_27 N 0.31193(7) 0.58806(8) 0.07743(7)
N50_27 N 0.47381(7) 0.62099(7) 0.10131(8)
N53_27 N 0.27619(7) 0.60131(8) 0.12901(7)
N55_27 N 0.47381(7) 0.62901(7) 0.14869(8)
N62_27 N 0.51961(7) 0.62510(8) 0.15106(8)
N63_27 N 0.51961(7) 0.62490(8) 0.09894(8)
C27_36 C 0.40578(8) 0.78286(8) 0.14797(9)
C32_37 C 0.24890(9) 0.62880(12) 0.17537(12)
C33_27 C 0.50110(9) 0.57463(12) 0.12880(12)
C34_27 C 0.50110(9) 0.67537(12) 0.12120(12)
C37_36 C 0.42760(11) 0.73888(10) 0.12658(10)
C38_36 C 0.37342(10) 0.76112(10) 0.07240(11)
C40_27 C 0.32240(11) 0.62658(10) 0.01112(10)
H17_36 H 0.4277 0.7498 0.1367
H18_36 H 0.3633 0.7502 0.0723
H20_27 H 0.3223 0.6367 0.0002
C42_36 C 0.44586(13) 0.72763(11) 0.12346(12)
C43_36 C 0.37654(12) 0.77237(11) 0.05414(13)
C45_27 C 0.30414(13) 0.62346(12) 0.02237(11)
H22_36 H 0.4583 0.7314 0.1307
H23_36 H 0.3693 0.7686 0.0417
H25_27 H 0.2917 0.6307 0.0186
C47_36 C 0.44583(12) 0.71088(10) 0.10980(10)
C48_36 C 0.39020(10) 0.78912(10) 0.05417(12)
C50_27 C 0.30417(12) 0.60980(10) 0.03912(10)
H27_36 H 0.4579 0.7024 0.1080
H28_36 H 0.3920 0.7976 0.0421
H30_27 H 0.2921 0.6080 0.0476
C52_36 C 0.42750(9) 0.70683(9) 0.09880(8)
C53_36 C 0.40120(8) 0.79317(9) 0.07250(9)
C55_27 C 0.32250(9) 0.59880(8) 0.04317(9)
C57_36 C 0.41023(8) 0.71957(8) 0.10210(7)
C58_36 C 0.39790(7) 0.78043(8) 0.08977(8)
C60_27 C 0.33977(8) 0.60210(7) 0.03043(8)
H32_36 H 0.3980 0.7171 0.0939
H33_36 H 0.4061 0.7829 0.1020
H35_27 H 0.3520 0.5939 0.0329
C62_36 C 0.36019(12) 0.66685(11) 0.01417(11)
C63_36 C 0.48583(11) 0.83315(11) 0.13981(12)
C65_27 C 0.38981(12) 0.51417(11) 0.08315(11)
H37_36 H 0.3494 0.6657 0.0039
H38_36 H 0.4961 0.8343 0.1506
H40_27 H 0.4006 0.5039 0.0843
C67_36 C 0.36085(13) 0.68485(12) 0.02640(13)
C68_36 C 0.47360(13) 0.81515(12) 0.13915(13)
C70_27 C 0.38915(13) 0.52640(13) 0.06515(12)
H42_36 H 0.3507 0.6956 0.0245
H43_36 H 0.4755 0.8044 0.1493
H45_27 H 0.3993 0.5245 0.0544
C72_36 C 0.37624(11) 0.68692(11) 0.04123(12)
C73_36 C 0.45877(12) 0.81308(11) 0.12376(11)
C75_27 C 0.37376(11) 0.54123(12) 0.06308(11)
H47_36 H 0.3769 0.6990 0.0500
H48_36 H 0.4500 0.8010 0.1231
H50_27 H 0.3731 0.5500 0.0510
C77_36 C 0.39104(9) 0.67084(9) 0.04316(9)
C78_36 C 0.45684(9) 0.82916(9) 0.10896(9)
C80_27 C 0.35896(9) 0.54316(9) 0.07916(9)
C82_36 C 0.38913(8) 0.65339(8) 0.03041(8)
C83_36 C 0.46959(8) 0.84661(8) 0.11087(8)
C85_27 C 0.36087(8) 0.53041(8) 0.09661(8)
H52_36 H 0.3991 0.6424 0.0319
H53_36 H 0.4681 0.8576 0.1009
H55_27 H 0.3509 0.5319 0.1076
C87_36 C 0.40778(8) 0.67172(8) 0.05918(8)
C88_36 C 0.44082(8) 0.82828(8) 0.09222(8)
C90_27 C 0.34222(8) 0.55918(8) 0.07828(8)
C92_36 C 0.42523(8) 0.68865(8) 0.08475(9)
C93_36 C 0.41525(9) 0.81135(8) 0.07477(8)
C95_27 C 0.32477(8) 0.58475(9) 0.06135(8)
C97_36 C 0.43426(8) 0.65556(8) 0.07626(9)
C98_36 C 0.42374(9) 0.84444(8) 0.06574(8)
C100_27 C 0.31574(8) 0.57626(9) 0.09444(8)
C102_36 C 0.46148(8) 0.63710(8) 0.09661(9)
C103_36 C 0.40339(9) 0.86290(8) 0.03852(8)
C105_27 C 0.28852(8) 0.59661(9) 0.11290(8)
H57_36 H 0.4626 0.6495 0.1049
H58_36 H 0.3951 0.8505 0.0374
H60_27 H 0.2874 0.6049 0.1005
C107_36 C 0.44699(9) 0.63688(9) 0.08030(10)
C108_36 C 0.41970(10) 0.86312(9) 0.05301(9)
C110_27 C 0.30301(9) 0.58030(10) 0.11312(9)
C112_36 C 0.44504(12) 0.61869(11) 0.06850(12)
C113_36 C 0.43150(12) 0.88131(11) 0.05496(12)
C115_27 C 0.30496(12) 0.56850(12) 0.13131(11)
H62_36 H 0.4352 0.6178 0.0573
H63_36 H 0.4427 0.8822 0.0648
H65_27 H 0.3148 0.5573 0.1322
C117_36 C 0.45774(13) 0.60183(12) 0.07345(14)
C118_36 C 0.42655(14) 0.89817(12) 0.04226(13)
C120_27 C 0.29226(13) 0.57345(14) 0.14817(12)
H67_36 H 0.4566 0.5891 0.0658
H68_36 H 0.4342 0.9109 0.0434
H70_27 H 0.2934 0.5658 0.1609
C122_36 C 0.47207(11) 0.60372(10) 0.08960(12)
C123_36 C 0.41040(12) 0.89628(10) 0.02793(11)
C125_27 C 0.27793(11) 0.58960(12) 0.14628(10)
H72_36 H 0.4811 0.5922 0.0925
H73_36 H 0.4075 0.9078 0.0189
H75_27 H 0.2689 0.5925 0.1578
S2_38 S 0.50415(4) 0.61906(8) 0.70064(4)
N2_38 N 0.49895(7) 0.62261(7) 0.65752(8)
C2_38 C 0.50110(9) 0.62120(12) 0.67537(12)
S8_38 S 0.50415(4) 0.63094(8) 0.54936(4)
N16_38 N 0.49895(7) 0.62739(7) 0.59248(8)
C32_38 C 0.50110(9) 0.62880(12) 0.57463(12)
S1_37 S 0.58635(3) 0.82744(3) 0.29384(3)
S2_39 S 0.49585(4) 0.79936(4) 0.38094(8)
N1_37 N 0.61307(7) 0.85581(7) 0.27418(6)
N2_39 N 0.50105(7) 0.84248(8) 0.37739(7)
C1_37 C 0.60203(9) 0.84422(8) 0.28286(8)
C2_39 C 0.49890(9) 0.82463(12) 0.37880(12)
Co9_28 Co 0.747768(14) 0.8750 0.3750
S3_37 S 0.67256(3) 0.91365(3) 0.20616(3)
S8_39 S 0.49585(4) 0.95064(4) 0.36906(8)
S9_28 S 0.75415(4) 0.88094(8) 0.45064(4)
S10_28 S 0.75415(4) 0.86906(8) 0.29936(4)
N11_37 N 0.64419(7) 0.88693(7) 0.22582(6)
N16_39 N 0.50105(7) 0.90752(8) 0.37261(7)
N17_28 N 0.74895(7) 0.87739(7) 0.40752(8)
N18_28 N 0.74895(7) 0.87261(7) 0.34248(8)
N21_37 N 0.65974(7) 0.86605(6) 0.26484(7)
N22_37 N 0.63395(6) 0.84026(7) 0.23516(7)
N35_37 N 0.65989(7) 0.82041(7) 0.31081(7)
N36_37 N 0.67959(7) 0.84011(7) 0.18919(7)
N40_37 N 0.66926(7) 0.81164(7) 0.34580(7)
N41_37 N 0.68836(7) 0.83074(7) 0.15420(7)
N45_37 N 0.68807(7) 0.83806(8) 0.32743(7)
N46_37 N 0.66194(8) 0.81193(7) 0.17257(7)
N50_28 N 0.72381(7) 0.85131(8) 0.37901(7)
N55_28 N 0.72381(7) 0.89869(8) 0.37099(7)
N62_28 N 0.76961(7) 0.90106(8) 0.37490(8)
N63_28 N 0.76961(7) 0.84894(8) 0.37510(8)
C27_37 C 0.65578(8) 0.89797(9) 0.21714(8)
C32_39 C 0.49890(9) 0.92537(12) 0.37120(12)
C33_28 C 0.75110(9) 0.87880(12) 0.42537(12)
C34_28 C 0.75110(9) 0.87120(12) 0.32463(12)
C37_37 C 0.67760(11) 0.87658(10) 0.26112(10)
C38_37 C 0.62342(10) 0.82240(11) 0.23888(10)
H17_37 H 0.6777 0.8867 0.2502
H18_37 H 0.6133 0.8223 0.2498
C42_37 C 0.69586(13) 0.87346(12) 0.27237(11)
C43_37 C 0.62654(12) 0.80414(13) 0.22763(11)
H22_37 H 0.7083 0.8807 0.2686
H23_37 H 0.6193 0.7917 0.2314
C47_37 C 0.69583(12) 0.85980(10) 0.28912(10)
C48_37 C 0.64020(10) 0.80417(12) 0.21088(10)
H27_37 H 0.7079 0.8580 0.2976
H28_37 H 0.6420 0.7921 0.2024
C52_37 C 0.67750(9) 0.84880(8) 0.29317(9)
C53_37 C 0.65120(8) 0.82250(9) 0.20683(9)
C57_37 C 0.66023(8) 0.85210(7) 0.28043(8)
C58_37 C 0.64790(7) 0.83977(8) 0.21957(8)
H32_37 H 0.6480 0.8439 0.2829
H33_37 H 0.6561 0.8520 0.2171
C62_37 C 0.61019(12) 0.76417(11) 0.33315(11)
C63_37 C 0.73583(11) 0.88981(12) 0.16685(11)
H37_37 H 0.5994 0.7539 0.3343
H38_37 H 0.7461 0.9006 0.1657
C67_37 C 0.61085(13) 0.77640(13) 0.31515(12)
C68_37 C 0.72360(13) 0.88915(13) 0.18485(12)
H42_37 H 0.6007 0.7745 0.3044
H43_37 H 0.7255 0.8993 0.1956
C72_37 C 0.62624(11) 0.79123(12) 0.31308(11)
C73_37 C 0.70877(12) 0.87376(11) 0.18692(11)
H47_37 H 0.6269 0.8000 0.3010
H48_37 H 0.7000 0.8731 0.1990
C77_37 C 0.64104(9) 0.79316(9) 0.32916(9)
C78_37 C 0.70684(9) 0.85896(9) 0.17084(9)
C82_37 C 0.63913(8) 0.78041(8) 0.34661(8)
C83_37 C 0.71959(8) 0.86087(8) 0.15339(8)
H52_37 H 0.6491 0.7819 0.3576
H53_37 H 0.7181 0.8509 0.1424
C87_37 C 0.65778(8) 0.80918(8) 0.32828(8)
C88_37 C 0.69082(8) 0.84222(8) 0.17172(8)
C92_37 C 0.67523(8) 0.83475(9) 0.31135(8)
C93_37 C 0.66525(9) 0.82477(8) 0.18865(8)
C97_37 C 0.68426(8) 0.82626(9) 0.34444(8)
C98_37 C 0.67374(9) 0.81574(8) 0.15556(8)
C102_37 C 0.71148(8) 0.84661(9) 0.36290(8)
C103_37 C 0.65339(9) 0.78852(8) 0.13710(8)
H57_37 H 0.7126 0.8549 0.3505
H58_37 H 0.6451 0.7874 0.1495
C107_37 C 0.69699(9) 0.83030(10) 0.36312(9)
C108_37 C 0.66970(10) 0.80301(9) 0.13688(9)
C112_37 C 0.69504(12) 0.81850(12) 0.38131(11)
C113_37 C 0.68150(12) 0.80496(12) 0.11869(11)
H62_37 H 0.6852 0.8073 0.3822
H63_37 H 0.6927 0.8148 0.1178
C117_37 C 0.70774(13) 0.82345(14) 0.39817(12)
C118_37 C 0.67655(14) 0.79226(13) 0.10183(12)
H67_37 H 0.7066 0.8158 0.4109
H68_37 H 0.6842 0.7934 0.0891
C122_37 C 0.72207(11) 0.83960(12) 0.39628(10)
C123_37 C 0.66040(12) 0.77793(11) 0.10372(10)
H72_37 H 0.7311 0.8425 0.4078
H73_37 H 0.6575 0.7689 0.0922
S1_38 S 0.07744(3) 0.41365(3) 0.04384(3)
S2_40 S 0.04936(4) 0.50415(4) 0.13094(8)
N1_38 N 0.10581(7) 0.38693(7) 0.02418(6)
N2_40 N 0.09248(8) 0.49895(7) 0.12739(7)
C1_38 C 0.09422(8) 0.39797(9) 0.03286(8)
C2_40 C 0.07463(12) 0.50110(9) 0.12880(12)
S8_40 S 0.20064(4) 0.50415(4) 0.11906(8)
N16_40 N 0.15752(8) 0.49895(7) 0.12261(7)
N21_38 N 0.11605(6) 0.34026(7) 0.01484(7)
N35_38 N 0.07041(7) 0.34011(7) 0.06081(7)
N40_38 N 0.06164(7) 0.33074(7) 0.09580(7)
N45_38 N 0.08806(8) 0.31193(7) 0.07743(7)
C32_40 C 0.17537(12) 0.50110(9) 0.12120(12)
C37_38 C 0.12658(10) 0.32240(11) 0.01112(10)
H17_38 H 0.1367 0.3223 0.0002
C42_38 C 0.12346(12) 0.30414(13) 0.02237(11)
H22_38 H 0.1307 0.2917 0.0186
C47_38 C 0.10980(10) 0.30417(12) 0.03912(10)
H27_38 H 0.1080 0.2921 0.0476
C52_38 C 0.09880(8) 0.32250(9) 0.04317(9)
C57_38 C 0.10210(7) 0.33977(8) 0.03043(8)
H32_38 H 0.0939 0.3520 0.0329
C62_38 C 0.01417(11) 0.38981(12) 0.08315(11)
H37_38 H 0.0039 0.4006 0.0843
C67_38 C 0.02640(13) 0.38915(13) 0.06515(12)
H42_38 H 0.0245 0.3993 0.0544
C72_38 C 0.04123(12) 0.37376(11) 0.06308(11)
H47_38 H 0.0500 0.3731 0.0510
C77_38 C 0.04316(9) 0.35896(9) 0.07916(9)
C82_38 C 0.03041(8) 0.36087(8) 0.09661(8)
H52_38 H 0.0319 0.3509 0.1076
C87_38 C 0.05918(8) 0.34222(8) 0.07828(8)
C92_38 C 0.08475(9) 0.32477(8) 0.06135(8)
C97_38 C 0.07626(9) 0.31574(8) 0.09444(8)
C102_38 C 0.09661(9) 0.28852(8) 0.11290(8)
H57_38 H 0.1049 0.2874 0.1005
C107_38 C 0.08030(10) 0.30301(9) 0.11312(9)
C112_38 C 0.06850(12) 0.30496(12) 0.13131(11)
H62_38 H 0.0573 0.3148 0.1322
C117_38 C 0.07345(14) 0.29226(13) 0.14817(12)
H67_38 H 0.0658 0.2934 0.1609
C122_38 C 0.08960(12) 0.27793(11) 0.14628(10)
H72_38 H 0.0925 0.2689 0.1578
S3_38 S 0.16365(3) 0.32744(3) 0.95616(3)
N11_38 N 0.13693(7) 0.35581(7) 0.97582(6)
N22_38 N 0.09026(7) 0.36605(6) 0.98516(7)
N36_38 N 0.09011(7) 0.32041(7) 0.93919(7)
N41_38 N 0.08074(7) 0.31164(7) 0.90420(7)
N46_38 N 0.06193(7) 0.33806(8) 0.92257(7)
C27_38 C 0.14797(9) 0.34422(8) 0.96714(8)
C38_38 C 0.07240(11) 0.37658(10) 0.98888(10)
H18_38 H 0.0723 0.3867 0.9998
C43_38 C 0.05414(13) 0.37346(12) 0.97763(11)
H23_38 H 0.0417 0.3807 0.9814
C48_38 C 0.05417(12) 0.35980(10) 0.96088(10)
H28_38 H 0.0421 0.3580 0.9524
C53_38 C 0.07250(9) 0.34880(8) 0.95683(9)
C58_38 C 0.08977(8) 0.35210(7) 0.96957(8)
H33_38 H 0.1020 0.3439 0.9671
C63_38 C 0.13981(12) 0.26417(11) 0.91685(11)
H38_38 H 0.1506 0.2539 0.9157
C68_38 C 0.13915(13) 0.27640(13) 0.93485(12)
H43_38 H 0.1493 0.2745 0.9456
C73_38 C 0.12376(11) 0.29123(12) 0.93692(11)
H48_38 H 0.1231 0.3000 0.9490
C78_38 C 0.10896(9) 0.29316(9) 0.92084(9)
C83_38 C 0.11087(8) 0.28041(8) 0.90339(8)
H53_38 H 0.1009 0.2819 0.8924
C88_38 C 0.09222(8) 0.30918(8) 0.92172(8)
C93_38 C 0.07477(8) 0.33475(9) 0.93865(8)
C98_38 C 0.06574(8) 0.32626(9) 0.90556(8)
C103_38 C 0.03852(8) 0.34661(9) 0.88710(8)
H58_38 H 0.0374 0.3549 0.8995
C108_38 C 0.05301(9) 0.33030(10) 0.88688(9)
C113_38 C 0.05496(12) 0.31850(12) 0.86869(11)
H63_38 H 0.0648 0.3073 0.8678
C118_38 C 0.04226(13) 0.32345(14) 0.85183(12)
H68_38 H 0.0434 0.3158 0.8391
C123_38 C 0.02793(11) 0.33960(12) 0.85372(10)
H73_38 H 0.0189 0.3425 0.8422
S2_41 S 0.36906(8) 0.49585(4) 0.95064(4)
N2_41 N 0.37261(7) 0.50105(7) 0.90752(8)
C2_41 C 0.37120(12) 0.49890(9) 0.92537(12)
S8_41 S 0.38094(8) 0.49585(4) 0.79936(4)
N16_41 N 0.37739(7) 0.50105(7) 0.84248(8)
C32_41 C 0.37880(12) 0.49890(9) 0.82463(12)
S2_42 S 0.61906(8) 0.20064(4) 0.00415(4)
C2_42 C 0.62120(12) 0.17537(12) 0.00110(9)
S8_42 S 0.63094(8) 0.04936(4) 0.00415(4)
C32_42 C 0.62880(12) 0.07463(12) 0.00110(9)
S1_39 S 0.70616(3) 0.17256(3) 0.91365(3)
N1_39 N 0.72582(6) 0.14419(7) 0.88693(7)
N2_42 N 0.62261(7) 0.15752(8) 0.99895(7)
C1_39 C 0.71714(8) 0.15578(8) 0.89797(9)
Co9_29 Co 0.6250 0.1250 0.752232(14)
S3_39 S 0.79384(3) 0.08635(3) 0.82744(3)
S9_29 S 0.54936(4) 0.11906(8) 0.74585(4)
S10_29 S 0.70064(4) 0.13094(8) 0.74585(4)
N11_39 N 0.77418(6) 0.11307(7) 0.85581(7)
N16_42 N 0.62739(7) 0.09248(8) 0.99895(7)
N17_29 N 0.59248(8) 0.12261(7) 0.75105(7)
N18_29 N 0.65752(8) 0.12739(7) 0.75105(7)
N21_39 N 0.73516(7) 0.13395(6) 0.84026(7)
N22_39 N 0.76484(7) 0.15974(7) 0.86605(6)
N35_39 N 0.68919(7) 0.17959(7) 0.84011(7)
N36_39 N 0.81081(7) 0.15989(7) 0.82041(7)
N40_39 N 0.65420(7) 0.18836(7) 0.83074(7)
N41_39 N 0.84580(7) 0.16926(7) 0.81164(7)
N45_39 N 0.67257(7) 0.16194(8) 0.81193(7)
N46_39 N 0.82743(7) 0.18807(7) 0.83806(8)
N50_29 N 0.62099(7) 0.14869(8) 0.77619(7)
N55_29 N 0.62901(7) 0.10131(8) 0.77619(7)
N62_29 N 0.62510(8) 0.09894(8) 0.73039(7)
N63_29 N 0.62490(8) 0.15106(8) 0.73039(7)
C27_39 C 0.78286(8) 0.10203(9) 0.84422(8)
C33_29 C 0.57463(12) 0.12120(12) 0.74890(9)
C34_29 C 0.67537(12) 0.12880(12) 0.74890(9)
C37_39 C 0.73888(10) 0.12342(10) 0.82240(11)
C38_39 C 0.76112(10) 0.17760(11) 0.87658(10)
H17_39 H 0.7498 0.1133 0.8223
H18_39 H 0.7502 0.1777 0.8867
C42_39 C 0.72763(11) 0.12654(12) 0.80414(13)
C43_39 C 0.77237(11) 0.19586(13) 0.87346(12)
H22_39 H 0.7314 0.1193 0.7917
H23_39 H 0.7686 0.2083 0.8807
C47_39 C 0.71088(10) 0.14020(10) 0.80417(12)
C48_39 C 0.78912(10) 0.19583(12) 0.85980(10)
H27_39 H 0.7024 0.1420 0.7921
H28_39 H 0.7976 0.2079 0.8580
C52_39 C 0.70683(9) 0.15120(8) 0.82250(9)
C53_39 C 0.79317(9) 0.17750(9) 0.84880(8)
C57_39 C 0.71957(8) 0.14790(7) 0.83977(8)
C58_39 C 0.78043(8) 0.16023(8) 0.85210(7)
H32_39 H 0.7171 0.1561 0.8520
H33_39 H 0.7829 0.1480 0.8439
C62_39 C 0.66685(11) 0.23583(11) 0.88981(12)
C63_39 C 0.83315(11) 0.11019(12) 0.76417(11)
H37_39 H 0.6657 0.2461 0.9006
H38_39 H 0.8343 0.0994 0.7539
C67_39 C 0.68485(12) 0.22360(13) 0.88915(13)
C68_39 C 0.81515(12) 0.11085(13) 0.77640(13)
H42_39 H 0.6956 0.2255 0.8993
H43_39 H 0.8044 0.1007 0.7745
C72_39 C 0.68692(11) 0.20877(12) 0.87376(11)
C73_39 C 0.81308(11) 0.12624(11) 0.79123(12)
H47_39 H 0.6990 0.2000 0.8731
H48_39 H 0.8010 0.1269 0.8000
C77_39 C 0.67084(9) 0.20684(9) 0.85896(9)
C78_39 C 0.82916(9) 0.14104(9) 0.79316(9)
C82_39 C 0.65339(8) 0.21959(8) 0.86087(8)
C83_39 C 0.84661(8) 0.13913(8) 0.78041(8)
H52_39 H 0.6424 0.2181 0.8509
H53_39 H 0.8576 0.1491 0.7819
C87_39 C 0.67172(8) 0.19082(8) 0.84222(8)
C88_39 C 0.82828(8) 0.15778(8) 0.80918(8)
C92_39 C 0.68865(8) 0.16525(9) 0.82477(8)
C93_39 C 0.81135(8) 0.17523(8) 0.83475(9)
C97_39 C 0.65556(8) 0.17374(9) 0.81574(8)
C98_39 C 0.84444(8) 0.18426(8) 0.82626(9)
C102_39 C 0.63710(8) 0.15339(9) 0.78852(8)
C103_39 C 0.86290(8) 0.21148(8) 0.84661(9)
H57_39 H 0.6495 0.1451 0.7874
H58_39 H 0.8505 0.2126 0.8549
C107_39 C 0.63688(9) 0.16970(10) 0.80301(9)
C108_39 C 0.86312(9) 0.19699(9) 0.83030(10)
C112_39 C 0.61869(11) 0.18150(12) 0.80496(12)
C113_39 C 0.88131(11) 0.19504(12) 0.81850(12)
H62_39 H 0.6178 0.1927 0.8148
H63_39 H 0.8822 0.1852 0.8073
C117_39 C 0.60183(12) 0.17655(14) 0.79226(13)
C118_39 C 0.89817(12) 0.20774(13) 0.82345(14)
H67_39 H 0.5891 0.1842 0.7934
H68_39 H 0.9109 0.2066 0.8158
C122_39 C 0.60372(10) 0.16040(12) 0.77793(11)
C123_39 C 0.89628(10) 0.22207(11) 0.83960(12)
H72_39 H 0.5922 0.1575 0.7689
H73_39 H 0.9078 0.2311 0.8425
N2_43 N 0.84248(8) 0.87739(7) 0.00105(7)
N16_43 N 0.90752(8) 0.87261(7) 0.00105(7)
S2_43 S 0.79936(4) 0.88094(8) 0.99585(4)
C2_43 C 0.82463(12) 0.87880(12) 0.99890(9)
S8_43 S 0.95064(4) 0.86906(8) 0.99585(4)
C32_43 C 0.92537(12) 0.87120(12) 0.99890(9)
S1_40 S 0.33635(3) 0.54384(3) 0.17256(3)
N1_40 N 0.36307(7) 0.52418(6) 0.14419(7)
C1_40 C 0.35203(9) 0.53286(8) 0.15578(8)
S3_40 S 0.42256(3) 0.45616(3) 0.08635(3)
S4_26 S 0.41365(3) 0.67256(3) 0.20616(3)
S5_26 S 0.32744(3) 0.58635(3) 0.29384(3)
N11_40 N 0.39419(7) 0.47582(6) 0.11307(7)
N12_26 N 0.38693(7) 0.64419(7) 0.22582(6)
N13_26 N 0.35581(7) 0.61307(7) 0.27418(6)
N21_40 N 0.40974(7) 0.51484(7) 0.13395(6)
N22_40 N 0.38395(6) 0.48516(7) 0.15974(7)
N28_26 N 0.37391(7) 0.59893(7) 0.23399(7)
N33_26 N 0.40107(7) 0.62609(7) 0.26601(7)
N35_40 N 0.40989(7) 0.56081(7) 0.17959(7)
N36_40 N 0.42959(7) 0.43919(7) 0.15989(7)
N40_40 N 0.41926(7) 0.59580(7) 0.18836(7)
N41_40 N 0.43836(7) 0.40420(7) 0.16926(7)
N45_40 N 0.43807(7) 0.57743(7) 0.16194(8)
N46_40 N 0.41194(8) 0.42257(7) 0.18807(7)
C27_40 C 0.40578(8) 0.46714(8) 0.10203(9)
C28_26 C 0.39797(9) 0.65578(8) 0.21714(8)
C29_26 C 0.34422(8) 0.60203(9) 0.28286(8)
C37_40 C 0.42760(11) 0.51112(10) 0.12342(10)
C38_40 C 0.37342(10) 0.48888(10) 0.17760(11)
H17_40 H 0.4277 0.5002 0.1133
H18_40 H 0.3633 0.4998 0.1777
C42_40 C 0.44586(13) 0.52237(11) 0.12654(12)
C43_40 C 0.37654(12) 0.47763(11) 0.19586(13)
H22_40 H 0.4583 0.5186 0.1193
H23_40 H 0.3693 0.4814 0.2083
C47_40 C 0.44583(12) 0.53912(10) 0.14020(10)
C48_40 C 0.39020(10) 0.46088(10) 0.19583(12)
H27_40 H 0.4579 0.5476 0.1420
H28_40 H 0.3920 0.4524 0.2079
C52_40 C 0.42750(9) 0.54317(9) 0.15120(8)
C53_40 C 0.40120(8) 0.45683(9) 0.17750(9)
C57_40 C 0.41023(8) 0.53043(8) 0.14790(7)
C58_40 C 0.39790(7) 0.46957(8) 0.16023(8)
H32_40 H 0.3980 0.5329 0.1561
H33_40 H 0.4061 0.4671 0.1480
C62_40 C 0.36019(12) 0.58315(11) 0.23583(11)
C63_40 C 0.48583(11) 0.41685(11) 0.11019(12)
H37_40 H 0.3494 0.5843 0.2461
H38_40 H 0.4961 0.4157 0.0994
C67_40 C 0.36085(13) 0.56515(12) 0.22360(13)
C68_40 C 0.47360(13) 0.43485(12) 0.11085(13)
H42_40 H 0.3507 0.5544 0.2255
H43_40 H 0.4755 0.4456 0.1007
C72_40 C 0.37624(11) 0.56308(11) 0.20877(12)
C73_40 C 0.45877(12) 0.43692(11) 0.12624(11)
H47_40 H 0.3769 0.5510 0.2000
H48_40 H 0.4500 0.4490 0.1269
C77_40 C 0.39104(9) 0.57916(9) 0.20684(9)
C78_40 C 0.45684(9) 0.42084(9) 0.14104(9)
C82_40 C 0.38913(8) 0.59661(8) 0.21959(8)
C83_40 C 0.46959(8) 0.40339(8) 0.13913(8)
H52_40 H 0.3991 0.6076 0.2181
H53_40 H 0.4681 0.3924 0.1491
C87_40 C 0.40778(8) 0.57828(8) 0.19082(8)
C88_40 C 0.44082(8) 0.42172(8) 0.15778(8)
C92_40 C 0.42523(8) 0.56135(8) 0.16525(9)
C93_40 C 0.41525(9) 0.43865(8) 0.17523(8)
C97_40 C 0.43426(8) 0.59444(8) 0.17374(9)
C98_40 C 0.42374(9) 0.40556(8) 0.18426(8)
C102_40 C 0.46148(8) 0.61290(8) 0.15339(9)
C103_40 C 0.40339(9) 0.38710(8) 0.21148(8)
H57_40 H 0.4626 0.6005 0.1451
H58_40 H 0.3951 0.3995 0.2126
C107_40 C 0.44699(9) 0.61312(9) 0.16970(10)
C108_40 C 0.41970(10) 0.38688(9) 0.19699(9)
C112_40 C 0.44504(12) 0.63131(11) 0.18150(12)
C113_40 C 0.43150(12) 0.36869(11) 0.19504(12)
H62_40 H 0.4352 0.6322 0.1927
H63_40 H 0.4427 0.3678 0.1852
C117_40 C 0.45774(13) 0.64817(12) 0.17655(14)
C118_40 C 0.42655(14) 0.35183(12) 0.20774(13)
H67_40 H 0.4566 0.6609 0.1842
H68_40 H 0.4342 0.3391 0.2066
C122_40 C 0.47207(11) 0.64628(10) 0.16040(12)
C123_40 C 0.41040(12) 0.35372(10) 0.22207(11)
H72_40 H 0.4811 0.6578 0.1575
H73_40 H 0.4075 0.3422 0.2311
S2_44 S 0.75415(4) 0.45064(4) 0.38094(8)
N2_44 N 0.74895(7) 0.40752(8) 0.37739(7)
C2_44 C 0.75110(9) 0.42537(12) 0.37880(12)
S8_44 S 0.75415(4) 0.29936(4) 0.36906(8)
N16_44 N 0.74895(7) 0.34248(8) 0.37261(7)
C32_44 C 0.75110(9) 0.32463(12) 0.37120(12)
S1_41 S 0.67256(3) 0.33635(3) 0.04384(3)
N1_41 N 0.64419(7) 0.36307(7) 0.02418(6)
C1_41 C 0.65578(8) 0.35203(9) 0.03286(8)
N21_41 N 0.63395(6) 0.40974(7) 0.01484(7)
N35_41 N 0.67959(7) 0.40989(7) 0.06081(7)
N40_41 N 0.68836(7) 0.41926(7) 0.09580(7)
N45_41 N 0.66194(8) 0.43807(7) 0.07743(7)
C37_41 C 0.62342(10) 0.42760(11) 0.01112(10)
H17_41 H 0.6133 0.4277 0.0002
C42_41 C 0.62654(12) 0.44586(13) 0.02237(11)
H22_41 H 0.6193 0.4583 0.0186
C47_41 C 0.64020(10) 0.44583(12) 0.03912(10)
H27_41 H 0.6420 0.4579 0.0476
C52_41 C 0.65120(8) 0.42750(9) 0.04317(9)
C57_41 C 0.64790(7) 0.41023(8) 0.03043(8)
H32_41 H 0.6561 0.3980 0.0329
C62_41 C 0.73583(11) 0.36019(12) 0.08315(11)
H37_41 H 0.7461 0.3494 0.0843
C67_41 C 0.72360(13) 0.36085(13) 0.06515(12)
H42_41 H 0.7255 0.3507 0.0544
C72_41 C 0.70877(12) 0.37624(11) 0.06308(11)
H47_41 H 0.7000 0.3769 0.0510
C77_41 C 0.70684(9) 0.39104(9) 0.07916(9)
C82_41 C 0.71959(8) 0.38913(8) 0.09661(8)
H52_41 H 0.7181 0.3991 0.1076
C87_41 C 0.69082(8) 0.40778(8) 0.07828(8)
C92_41 C 0.66525(9) 0.42523(8) 0.06135(8)
C97_41 C 0.67374(9) 0.43426(8) 0.09444(8)
C102_41 C 0.65339(9) 0.46148(8) 0.11290(8)
H57_41 H 0.6451 0.4626 0.1005
C107_41 C 0.66970(10) 0.44699(9) 0.11312(9)
C112_41 C 0.68150(12) 0.44504(12) 0.13131(11)
H62_41 H 0.6927 0.4352 0.1322
C117_41 C 0.67655(14) 0.45774(13) 0.14817(12)
H67_41 H 0.6842 0.4566 0.1609
C122_41 C 0.66040(12) 0.47207(11) 0.14628(10)
H72_41 H 0.6575 0.4811 0.1578
S3_41 S 0.58635(3) 0.42256(3) 0.95616(3)
N11_41 N 0.61307(7) 0.39419(7) 0.97582(6)
N22_41 N 0.65974(7) 0.38395(6) 0.98516(7)
N36_41 N 0.65989(7) 0.42959(7) 0.93919(7)
N41_41 N 0.66926(7) 0.43836(7) 0.90420(7)
N46_41 N 0.68807(7) 0.41194(8) 0.92257(7)
C27_41 C 0.60203(9) 0.40578(8) 0.96714(8)
C38_41 C 0.67760(11) 0.37342(10) 0.98888(10)
H18_41 H 0.6777 0.3633 0.9998
C43_41 C 0.69586(13) 0.37654(12) 0.97763(11)
H23_41 H 0.7083 0.3693 0.9814
C48_41 C 0.69583(12) 0.39020(10) 0.96088(10)
H28_41 H 0.7079 0.3920 0.9524
C53_41 C 0.67750(9) 0.40120(8) 0.95683(9)
C58_41 C 0.66023(8) 0.39790(7) 0.96957(8)
H33_41 H 0.6480 0.4061 0.9671
C63_41 C 0.61019(12) 0.48583(11) 0.91685(11)
H38_41 H 0.5994 0.4961 0.9157
C68_41 C 0.61085(13) 0.47360(13) 0.93485(12)
H43_41 H 0.6007 0.4755 0.9456
C73_41 C 0.62624(11) 0.45877(12) 0.93692(11)
H48_41 H 0.6269 0.4500 0.9490
C78_41 C 0.64104(9) 0.45684(9) 0.92084(9)
C83_41 C 0.63913(8) 0.46959(8) 0.90339(8)
H53_41 H 0.6491 0.4681 0.8924
C88_41 C 0.65778(8) 0.44082(8) 0.92172(8)
C93_41 C 0.67523(8) 0.41525(9) 0.93865(8)
C98_41 C 0.68426(8) 0.42374(9) 0.90556(8)
C103_41 C 0.71148(8) 0.40339(9) 0.88710(8)
H58_41 H 0.7126 0.3951 0.8995
C108_41 C 0.69699(9) 0.41970(10) 0.88688(9)
C113_41 C 0.69504(12) 0.43150(12) 0.86869(11)
H63_41 H 0.6852 0.4427 0.8678
C118_41 C 0.70774(13) 0.42655(14) 0.85183(12)
H68_41 H 0.7066 0.4342 0.8391
C123_41 C 0.72207(11) 0.41040(12) 0.85372(10)
H73_41 H 0.7311 0.4075 0.8422
S2_45 S 0.88094(8) 0.25415(4) 0.45064(4)
N2_45 N 0.87739(7) 0.24895(7) 0.40752(8)
C2_45 C 0.87880(12) 0.25110(9) 0.42537(12)
S8_45 S 0.86906(8) 0.25415(4) 0.29936(4)
N16_45 N 0.87261(7) 0.24895(7) 0.34248(8)
N31_28 N 0.98399(7) 0.12391(7) 0.40107(7)
N38_28 N 0.92959(7) 0.15989(7) 0.43919(7)
N43_28 N 0.93836(7) 0.16926(7) 0.40420(7)
N48_28 N 0.91194(8) 0.18807(7) 0.42257(7)
N53_28 N 0.89869(8) 0.22381(7) 0.37099(7)
C32_45 C 0.87120(12) 0.25110(9) 0.32463(12)
C40_28 C 0.87342(10) 0.17760(11) 0.48888(10)
H20_28 H 0.8633 0.1777 0.4998
C45_28 C 0.87654(12) 0.19586(13) 0.47763(11)
H25_28 H 0.8693 0.2083 0.4814
C50_28 C 0.89020(10) 0.19583(12) 0.46088(10)
H30_28 H 0.8920 0.2079 0.4524
C55_28 C 0.90120(8) 0.17750(9) 0.45683(9)
C60_28 C 0.89790(7) 0.16023(8) 0.46957(8)
H35_28 H 0.9061 0.1480 0.4671
C65_28 C 0.98583(11) 0.11019(12) 0.41685(11)
H40_28 H 0.9961 0.0994 0.4157
C70_28 C 0.97360(13) 0.11085(13) 0.43485(12)
H45_28 H 0.9755 0.1007 0.4456
C75_28 C 0.95877(12) 0.12624(11) 0.43692(11)
H50_28 H 0.9500 0.1269 0.4490
C80_28 C 0.95684(9) 0.14104(9) 0.42084(9)
C85_28 C 0.96959(8) 0.13913(8) 0.40339(8)
H55_28 H 0.9681 0.1491 0.3924
C90_28 C 0.94082(8) 0.15778(8) 0.42172(8)
C95_28 C 0.91525(9) 0.17523(8) 0.43865(8)
C100_28 C 0.92374(9) 0.18426(8) 0.40556(8)
C105_28 C 0.90339(9) 0.21148(8) 0.38710(8)
H60_28 H 0.8951 0.2126 0.3995
C110_28 C 0.91970(10) 0.19699(9) 0.38688(9)
C115_28 C 0.93150(12) 0.19504(12) 0.36869(11)
H65_28 H 0.9427 0.1852 0.3678
C120_28 C 0.92655(14) 0.20774(13) 0.35183(12)
H70_28 H 0.9342 0.2066 0.3391
C125_28 C 0.91040(12) 0.22207(11) 0.35372(10)
H75_28 H 0.9075 0.2311 0.3422
N32_22 N 0.98399(7) 0.62391(7) 0.90107(7)
N39_22 N 0.92959(7) 0.65989(7) 0.93919(7)
N44_22 N 0.93836(7) 0.66926(7) 0.90420(7)
N49_22 N 0.91194(8) 0.68807(7) 0.92257(7)
N54_22 N 0.89869(8) 0.72381(7) 0.87099(7)
C41_22 C 0.87342(10) 0.67760(11) 0.98888(10)
H21_22 H 0.8633 0.6777 0.9998
C46_22 C 0.87654(12) 0.69586(13) 0.97763(11)
H26_22 H 0.8693 0.7083 0.9814
C51_22 C 0.89020(10) 0.69583(12) 0.96088(10)
H31_22 H 0.8920 0.7079 0.9524
C56_22 C 0.90120(8) 0.67750(9) 0.95683(9)
C61_22 C 0.89790(7) 0.66023(8) 0.96957(8)
H36_22 H 0.9061 0.6480 0.9671
C66_22 C 0.98583(11) 0.61019(12) 0.91685(11)
H41_22 H 0.9961 0.5994 0.9157
C71_22 C 0.97360(13) 0.61085(13) 0.93485(12)
H46_22 H 0.9755 0.6007 0.9456
C76_22 C 0.95877(12) 0.62624(11) 0.93692(11)
H51_22 H 0.9500 0.6269 0.9490
C81_22 C 0.95684(9) 0.64104(9) 0.92084(9)
C86_22 C 0.96959(8) 0.63913(8) 0.90339(8)
H56_22 H 0.9681 0.6491 0.8924
C91_22 C 0.94082(8) 0.65778(8) 0.92172(8)
C96_22 C 0.91525(9) 0.67523(8) 0.93865(8)
C101_22 C 0.92374(9) 0.68426(8) 0.90556(8)
C106_22 C 0.90339(9) 0.71148(8) 0.88710(8)
H61_22 H 0.8951 0.7126 0.8995
C111_22 C 0.91970(10) 0.69699(9) 0.88688(9)
C116_22 C 0.93150(12) 0.69504(12) 0.86869(11)
H66_22 H 0.9427 0.6852 0.8678
C121_22 C 0.92655(14) 0.70774(13) 0.85183(12)
H71_22 H 0.9342 0.7066 0.8391
C126_22 C 0.91040(12) 0.72207(11) 0.85372(10)
H76_22 H 0.9075 0.7311 0.8422
S1_42 S 0.54384(3) 0.07744(3) 0.91365(3)
N1_42 N 0.52418(6) 0.10581(7) 0.88693(7)
C1_42 C 0.53286(8) 0.09422(8) 0.89797(9)
S3_42 S 0.45616(3) 0.16365(3) 0.82744(3)
N11_42 N 0.47582(6) 0.13693(7) 0.85581(7)
N21_42 N 0.51484(7) 0.11605(6) 0.84026(7)
N22_42 N 0.48516(7) 0.09026(7) 0.86605(6)
N30_24 N 0.48399(7) 0.12391(7) 0.90107(7)
N35_42 N 0.56081(7) 0.07041(7) 0.84011(7)
N36_42 N 0.43919(7) 0.09011(7) 0.82041(7)
N37_24 N 0.42959(7) 0.15989(7) 0.93919(7)
N40_42 N 0.59580(7) 0.06164(7) 0.83074(7)
N41_42 N 0.40420(7) 0.08074(7) 0.81164(7)
N42_24 N 0.43836(7) 0.16926(7) 0.90420(7)
N45_42 N 0.57743(7) 0.08806(8) 0.81193(7)
N46_42 N 0.42257(7) 0.06193(7) 0.83806(8)
N47_24 N 0.41194(8) 0.18807(7) 0.92257(7)
N52_24 N 0.39869(8) 0.22381(7) 0.87099(7)
C27_42 C 0.46714(8) 0.14797(9) 0.84422(8)
C37_42 C 0.51112(10) 0.12658(10) 0.82240(11)
C38_42 C 0.48888(10) 0.07240(11) 0.87658(10)
C39_24 C 0.37342(10) 0.17760(11) 0.98888(10)
H17_42 H 0.5002 0.1367 0.8223
H18_42 H 0.4998 0.0723 0.8867
H19_24 H 0.3633 0.1777 0.9998
C42_42 C 0.52237(11) 0.12346(12) 0.80414(13)
C43_42 C 0.47763(11) 0.05414(13) 0.87346(12)
C44_24 C 0.37654(12) 0.19586(13) 0.97763(11)
H22_42 H 0.5186 0.1307 0.7917
H23_42 H 0.4814 0.0417 0.8807
H24_24 H 0.3693 0.2083 0.9814
C47_42 C 0.53912(10) 0.10980(10) 0.80417(12)
C48_42 C 0.46088(10) 0.05417(12) 0.85980(10)
C49_24 C 0.39020(10) 0.19583(12) 0.96088(10)
H27_42 H 0.5476 0.1080 0.7921
H28_42 H 0.4524 0.0421 0.8580
H29_24 H 0.3920 0.2079 0.9524
C52_42 C 0.54317(9) 0.09880(8) 0.82250(9)
C53_42 C 0.45683(9) 0.07250(9) 0.84880(8)
C54_24 C 0.40120(8) 0.17750(9) 0.95683(9)
C57_42 C 0.53043(8) 0.10210(7) 0.83977(8)
C58_42 C 0.46957(8) 0.08977(8) 0.85210(7)
C59_24 C 0.39790(7) 0.16023(8) 0.96957(8)
H32_42 H 0.5329 0.0939 0.8520
H33_42 H 0.4671 0.1020 0.8439
H34_24 H 0.4061 0.1480 0.9671
C62_42 C 0.58315(11) 0.01417(11) 0.88981(12)
C63_42 C 0.41685(11) 0.13981(12) 0.76417(11)
C64_24 C 0.48583(11) 0.11019(12) 0.91685(11)
H37_42 H 0.5843 0.0039 0.9006
H38_42 H 0.4157 0.1506 0.7539
H39_24 H 0.4961 0.0994 0.9157
C67_42 C 0.56515(12) 0.02640(13) 0.88915(13)
C68_42 C 0.43485(12) 0.13915(13) 0.77640(13)
C69_24 C 0.47360(13) 0.11085(13) 0.93485(12)
H42_42 H 0.5544 0.0245 0.8993
H43_42 H 0.4456 0.1493 0.7745
H44_24 H 0.4755 0.1007 0.9456
C72_42 C 0.56308(11) 0.04123(12) 0.87376(11)
C73_42 C 0.43692(11) 0.12376(11) 0.79123(12)
C74_24 C 0.45877(12) 0.12624(11) 0.93692(11)
H47_42 H 0.5510 0.0500 0.8731
H48_42 H 0.4490 0.1231 0.8000
H49_24 H 0.4500 0.1269 0.9490
C77_42 C 0.57916(9) 0.04316(9) 0.85896(9)
C78_42 C 0.42084(9) 0.10896(9) 0.79316(9)
C79_24 C 0.45684(9) 0.14104(9) 0.92084(9)
C82_42 C 0.59661(8) 0.03041(8) 0.86087(8)
C83_42 C 0.40339(8) 0.11087(8) 0.78041(8)
C84_24 C 0.46959(8) 0.13913(8) 0.90339(8)
H52_42 H 0.6076 0.0319 0.8509
H53_42 H 0.3924 0.1009 0.7819
H54_24 H 0.4681 0.1491 0.8924
C87_42 C 0.57828(8) 0.05918(8) 0.84222(8)
C88_42 C 0.42172(8) 0.09222(8) 0.80918(8)
C89_24 C 0.44082(8) 0.15778(8) 0.92172(8)
C92_42 C 0.56135(8) 0.08475(9) 0.82477(8)
C93_42 C 0.43865(8) 0.07477(8) 0.83475(9)
C94_24 C 0.41525(9) 0.17523(8) 0.93865(8)
C97_42 C 0.59444(8) 0.07626(9) 0.81574(8)
C98_42 C 0.40556(8) 0.06574(8) 0.82626(9)
C99_24 C 0.42374(9) 0.18426(8) 0.90556(8)
C102_42 C 0.61290(8) 0.09661(9) 0.78852(8)
C103_42 C 0.38710(8) 0.03852(8) 0.84661(9)
C104_24 C 0.40339(9) 0.21148(8) 0.88710(8)
H57_42 H 0.6005 0.1049 0.7874
H58_42 H 0.3995 0.0374 0.8549
H59_24 H 0.3951 0.2126 0.8995
C107_42 C 0.61312(9) 0.08030(10) 0.80301(9)
C108_42 C 0.38688(9) 0.05301(9) 0.83030(10)
C109_24 C 0.41970(10) 0.19699(9) 0.88688(9)
C112_42 C 0.63131(11) 0.06850(12) 0.80496(12)
C113_42 C 0.36869(11) 0.05496(12) 0.81850(12)
C114_24 C 0.43150(12) 0.19504(12) 0.86869(11)
H62_42 H 0.6322 0.0573 0.8148
H63_42 H 0.3678 0.0648 0.8073
H64_24 H 0.4427 0.1852 0.8678
C117_42 C 0.64817(12) 0.07345(14) 0.79226(13)
C118_42 C 0.35183(12) 0.04226(13) 0.82345(14)
C119_24 C 0.42655(14) 0.20774(13) 0.85183(12)
H67_42 H 0.6609 0.0658 0.7934
H68_42 H 0.3391 0.0434 0.8158
H69_24 H 0.4342 0.2066 0.8391
C122_42 C 0.64628(10) 0.08960(12) 0.77793(11)
C123_42 C 0.35372(10) 0.02793(11) 0.83960(12)
C124_24 C 0.41040(12) 0.22207(11) 0.85372(10)
H72_42 H 0.6578 0.0925 0.7689
H73_42 H 0.3422 0.0189 0.8425
H74_24 H 0.4075 0.2311 0.8422
S3_43 S 0.04384(3) 0.07744(3) 0.41365(3)
N11_43 N 0.02418(6) 0.10581(7) 0.38693(7)
N22_43 N 0.01484(7) 0.11605(6) 0.34026(7)
N36_43 N 0.06081(7) 0.07041(7) 0.34011(7)
N41_43 N 0.09580(7) 0.06164(7) 0.33074(7)
N46_43 N 0.07743(7) 0.08806(8) 0.31193(7)
C27_43 C 0.03286(8) 0.09422(8) 0.39797(9)
C38_43 C 0.01112(10) 0.12658(10) 0.32240(11)
H18_43 H 0.0002 0.1367 0.3223
C43_43 C 0.02237(11) 0.12346(12) 0.30414(13)
H23_43 H 0.0186 0.1307 0.2917
C48_43 C 0.03912(10) 0.10980(10) 0.30417(12)
H28_43 H 0.0476 0.1080 0.2921
C53_43 C 0.04317(9) 0.09880(8) 0.32250(9)
C58_43 C 0.03043(8) 0.10210(7) 0.33977(8)
H33_43 H 0.0329 0.0939 0.3520
C63_43 C 0.08315(11) 0.01417(11) 0.38981(12)
H38_43 H 0.0843 0.0039 0.4006
C68_43 C 0.06515(12) 0.02640(13) 0.38915(13)
H43_43 H 0.0544 0.0245 0.3993
C73_43 C 0.06308(11) 0.04123(12) 0.37376(11)
H48_43 H 0.0510 0.0500 0.3731
C78_43 C 0.07916(9) 0.04316(9) 0.35896(9)
C83_43 C 0.09661(8) 0.03041(8) 0.36087(8)
H53_43 H 0.1076 0.0319 0.3509
C88_43 C 0.07828(8) 0.05918(8) 0.34222(8)
C93_43 C 0.06135(8) 0.08475(9) 0.32477(8)
C98_43 C 0.09444(8) 0.07626(9) 0.31574(8)
C103_43 C 0.11290(8) 0.09661(9) 0.28852(8)
H58_43 H 0.1005 0.1049 0.2874
C108_43 C 0.11312(9) 0.08030(10) 0.30301(9)
C113_43 C 0.13131(11) 0.06850(12) 0.30496(12)
H63_43 H 0.1322 0.0573 0.3148
C118_43 C 0.14817(12) 0.07345(14) 0.29226(13)
H68_43 H 0.1609 0.0658 0.2934
C123_43 C 0.14628(10) 0.08960(12) 0.27793(11)
H73_43 H 0.1578 0.0925 0.2689
S1_43 S 0.95616(3) 0.16365(3) 0.32744(3)
N1_43 N 0.97582(6) 0.13693(7) 0.35581(7)
C1_43 C 0.96714(8) 0.14797(9) 0.34422(8)
N21_43 N 0.98516(7) 0.09026(7) 0.36605(6)
N35_43 N 0.93919(7) 0.09011(7) 0.32041(7)
N40_43 N 0.90420(7) 0.08074(7) 0.31164(7)
N45_43 N 0.92257(7) 0.06193(7) 0.33806(8)
C37_43 C 0.98888(10) 0.07240(11) 0.37658(10)
H17_43 H 0.9998 0.0723 0.3867
C42_43 C 0.97763(11) 0.05414(13) 0.37346(12)
H22_43 H 0.9814 0.0417 0.3807
C47_43 C 0.96088(10) 0.05417(12) 0.35980(10)
H27_43 H 0.9524 0.0421 0.3580
C52_43 C 0.95683(9) 0.07250(9) 0.34880(8)
C57_43 C 0.96957(8) 0.08977(8) 0.35210(7)
H32_43 H 0.9671 0.1020 0.3439
C62_43 C 0.91685(11) 0.13981(12) 0.26417(11)
H37_43 H 0.9157 0.1506 0.2539
C67_43 C 0.93485(12) 0.13915(13) 0.27640(13)
H42_43 H 0.9456 0.1493 0.2745
C72_43 C 0.93692(11) 0.12376(11) 0.29123(12)
H47_43 H 0.9490 0.1231 0.3000
C77_43 C 0.92084(9) 0.10896(9) 0.29316(9)
C82_43 C 0.90339(8) 0.11087(8) 0.28041(8)
H52_43 H 0.8924 0.1009 0.2819
C87_43 C 0.92172(8) 0.09222(8) 0.30918(8)
C92_43 C 0.93865(8) 0.07477(8) 0.33475(9)
C97_43 C 0.90556(8) 0.06574(8) 0.32626(9)
C102_43 C 0.88710(8) 0.03852(8) 0.34661(9)
H57_43 H 0.8995 0.0374 0.3549
C107_43 C 0.88688(9) 0.05301(9) 0.33030(10)
C112_43 C 0.86869(11) 0.05496(12) 0.31850(12)
H62_43 H 0.8678 0.0648 0.3073
C117_43 C 0.85183(12) 0.04226(13) 0.32345(14)
H67_43 H 0.8391 0.0434 0.3158
C122_43 C 0.85372(10) 0.02793(11) 0.33960(12)
H72_43 H 0.8422 0.0189 0.3425
S1_44 S 0.67256(3) 0.83635(3) 0.54384(3)
N1_44 N 0.64419(7) 0.86307(7) 0.52418(6)
C1_44 C 0.65578(8) 0.85203(9) 0.53286(8)
S3_44 S 0.58635(3) 0.92256(3) 0.45616(3)
N11_44 N 0.61307(7) 0.89419(7) 0.47582(6)
N21_44 N 0.63395(6) 0.90974(7) 0.51484(7)
N22_44 N 0.65974(7) 0.88395(6) 0.48516(7)
N35_44 N 0.67959(7) 0.90989(7) 0.56081(7)
N36_44 N 0.65989(7) 0.92959(7) 0.43919(7)
N40_44 N 0.68836(7) 0.91926(7) 0.59580(7)
N41_44 N 0.66926(7) 0.93836(7) 0.40420(7)
N45_44 N 0.66194(8) 0.93807(7) 0.57743(7)
N46_44 N 0.68807(7) 0.91194(8) 0.42257(7)
C27_44 C 0.60203(9) 0.90578(8) 0.46714(8)
C37_44 C 0.62342(10) 0.92760(11) 0.51112(10)
C38_44 C 0.67760(11) 0.87342(10) 0.48888(10)
H17_44 H 0.6133 0.9277 0.5002
H18_44 H 0.6777 0.8633 0.4998
C42_44 C 0.62654(12) 0.94586(13) 0.52237(11)
C43_44 C 0.69586(13) 0.87654(12) 0.47763(11)
H22_44 H 0.6193 0.9583 0.5186
H23_44 H 0.7083 0.8693 0.4814
C47_44 C 0.64020(10) 0.94583(12) 0.53912(10)
C48_44 C 0.69583(12) 0.89020(10) 0.46088(10)
H27_44 H 0.6420 0.9579 0.5476
H28_44 H 0.7079 0.8920 0.4524
C52_44 C 0.65120(8) 0.92750(9) 0.54317(9)
C53_44 C 0.67750(9) 0.90120(8) 0.45683(9)
C57_44 C 0.64790(7) 0.91023(8) 0.53043(8)
C58_44 C 0.66023(8) 0.89790(7) 0.46957(8)
H32_44 H 0.6561 0.8980 0.5329
H33_44 H 0.6480 0.9061 0.4671
C62_44 C 0.73583(11) 0.86019(12) 0.58315(11)
C63_44 C 0.61019(12) 0.98583(11) 0.41685(11)
H37_44 H 0.7461 0.8494 0.5843
H38_44 H 0.5994 0.9961 0.4157
C67_44 C 0.72360(13) 0.86085(13) 0.56515(12)
C68_44 C 0.61085(13) 0.97360(13) 0.43485(12)
H42_44 H 0.7255 0.8507 0.5544
H43_44 H 0.6007 0.9755 0.4456
C72_44 C 0.70877(12) 0.87624(11) 0.56308(11)
C73_44 C 0.62624(11) 0.95877(12) 0.43692(11)
H47_44 H 0.7000 0.8769 0.5510
H48_44 H 0.6269 0.9500 0.4490
C77_44 C 0.70684(9) 0.89104(9) 0.57916(9)
C78_44 C 0.64104(9) 0.95684(9) 0.42084(9)
C82_44 C 0.71959(8) 0.88913(8) 0.59661(8)
C83_44 C 0.63913(8) 0.96959(8) 0.40339(8)
H52_44 H 0.7181 0.8991 0.6076
H53_44 H 0.6491 0.9681 0.3924
C87_44 C 0.69082(8) 0.90778(8) 0.57828(8)
C88_44 C 0.65778(8) 0.94082(8) 0.42172(8)
C92_44 C 0.66525(9) 0.92523(8) 0.56135(8)
C93_44 C 0.67523(8) 0.91525(9) 0.43865(8)
C97_44 C 0.67374(9) 0.93426(8) 0.59444(8)
C98_44 C 0.68426(8) 0.92374(9) 0.40556(8)
C102_44 C 0.65339(9) 0.96148(8) 0.61290(8)
C103_44 C 0.71148(8) 0.90339(9) 0.38710(8)
H57_44 H 0.6451 0.9626 0.6005
H58_44 H 0.7126 0.8951 0.3995
C107_44 C 0.66970(10) 0.94699(9) 0.61312(9)
C108_44 C 0.69699(9) 0.91970(10) 0.38688(9)
C112_44 C 0.68150(12) 0.94504(12) 0.63131(11)
C113_44 C 0.69504(12) 0.93150(12) 0.36869(11)
H62_44 H 0.6927 0.9352 0.6322
H63_44 H 0.6852 0.9427 0.3678
C117_44 C 0.67655(14) 0.95774(13) 0.64817(12)
C118_44 C 0.70774(13) 0.92655(14) 0.35183(12)
H67_44 H 0.6842 0.9566 0.6609
H68_44 H 0.7066 0.9342 0.3391
C122_44 C 0.66040(12) 0.97207(11) 0.64628(10)
C123_44 C 0.72207(11) 0.91040(12) 0.35372(10)
H72_44 H 0.6575 0.9811 0.6578
H73_44 H 0.7311 0.9075 0.3422
S2_46 S 0.88094(8) 0.75415(4) 0.95064(4)
N2_46 N 0.87739(7) 0.74895(7) 0.90752(8)
C2_46 C 0.87880(12) 0.75110(9) 0.92537(12)
S8_46 S 0.86906(8) 0.75415(4) 0.79936(4)
N16_46 N 0.87261(7) 0.74895(7) 0.84248(8)
C32_46 C 0.87120(12) 0.75110(9) 0.82463(12)
S1_45 S 0.54384(3) 0.57744(3) 0.41365(3)
N1_45 N 0.52418(6) 0.60581(7) 0.38693(7)
C1_45 C 0.53286(8) 0.59422(8) 0.39797(9)
S3_45 S 0.45616(3) 0.66365(3) 0.32744(3)
N11_45 N 0.47582(6) 0.63693(7) 0.35581(7)
N21_45 N 0.51484(7) 0.61605(6) 0.34026(7)
N22_45 N 0.48516(7) 0.59026(7) 0.36605(6)
N30_25 N 0.48399(7) 0.62391(7) 0.40107(7)
N35_45 N 0.56081(7) 0.57041(7) 0.34011(7)
N36_45 N 0.43919(7) 0.59011(7) 0.32041(7)
N37_25 N 0.42959(7) 0.65989(7) 0.43919(7)
N40_45 N 0.59580(7) 0.56164(7) 0.33074(7)
N41_45 N 0.40420(7) 0.58074(7) 0.31164(7)
N42_25 N 0.43836(7) 0.66926(7) 0.40420(7)
N45_45 N 0.57743(7) 0.58806(8) 0.31193(7)
N46_45 N 0.42257(7) 0.56193(7) 0.33806(8)
N47_25 N 0.41194(8) 0.68807(7) 0.42257(7)
N52_25 N 0.39869(8) 0.72381(7) 0.37099(7)
C27_45 C 0.46714(8) 0.64797(9) 0.34422(8)
C37_45 C 0.51112(10) 0.62658(10) 0.32240(11)
C38_45 C 0.48888(10) 0.57240(11) 0.37658(10)
C39_25 C 0.37342(10) 0.67760(11) 0.48888(10)
H17_45 H 0.5002 0.6367 0.3223
H18_45 H 0.4998 0.5723 0.3867
H19_25 H 0.3633 0.6777 0.4998
C42_45 C 0.52237(11) 0.62346(12) 0.30414(13)
C43_45 C 0.47763(11) 0.55414(13) 0.37346(12)
C44_25 C 0.37654(12) 0.69586(13) 0.47763(11)
H22_45 H 0.5186 0.6307 0.2917
H23_45 H 0.4814 0.5417 0.3807
H24_25 H 0.3693 0.7083 0.4814
C47_45 C 0.53912(10) 0.60980(10) 0.30417(12)
C48_45 C 0.46088(10) 0.55417(12) 0.35980(10)
C49_25 C 0.39020(10) 0.69583(12) 0.46088(10)
H27_45 H 0.5476 0.6080 0.2921
H28_45 H 0.4524 0.5421 0.3580
H29_25 H 0.3920 0.7079 0.4524
C52_45 C 0.54317(9) 0.59880(8) 0.32250(9)
C53_45 C 0.45683(9) 0.57250(9) 0.34880(8)
C54_25 C 0.40120(8) 0.67750(9) 0.45683(9)
C57_45 C 0.53043(8) 0.60210(7) 0.33977(8)
C58_45 C 0.46957(8) 0.58977(8) 0.35210(7)
C59_25 C 0.39790(7) 0.66023(8) 0.46957(8)
H32_45 H 0.5329 0.5939 0.3520
H33_45 H 0.4671 0.6020 0.3439
H34_25 H 0.4061 0.6480 0.4671
C62_45 C 0.58315(11) 0.51417(11) 0.38981(12)
C63_45 C 0.41685(11) 0.63981(12) 0.26417(11)
C64_25 C 0.48583(11) 0.61019(12) 0.41685(11)
H37_45 H 0.5843 0.5039 0.4006
H38_45 H 0.4157 0.6506 0.2539
H39_25 H 0.4961 0.5994 0.4157
C67_45 C 0.56515(12) 0.52640(13) 0.38915(13)
C68_45 C 0.43485(12) 0.63915(13) 0.27640(13)
C69_25 C 0.47360(13) 0.61085(13) 0.43485(12)
H42_45 H 0.5544 0.5245 0.3993
H43_45 H 0.4456 0.6493 0.2745
H44_25 H 0.4755 0.6007 0.4456
C72_45 C 0.56308(11) 0.54123(12) 0.37376(11)
C73_45 C 0.43692(11) 0.62376(11) 0.29123(12)
C74_25 C 0.45877(12) 0.62624(11) 0.43692(11)
H47_45 H 0.5510 0.5500 0.3731
H48_45 H 0.4490 0.6231 0.3000
H49_25 H 0.4500 0.6269 0.4490
C77_45 C 0.57916(9) 0.54316(9) 0.35896(9)
C78_45 C 0.42084(9) 0.60896(9) 0.29316(9)
C79_25 C 0.45684(9) 0.64104(9) 0.42084(9)
C82_45 C 0.59661(8) 0.53041(8) 0.36087(8)
C83_45 C 0.40339(8) 0.61087(8) 0.28041(8)
C84_25 C 0.46959(8) 0.63913(8) 0.40339(8)
H52_45 H 0.6076 0.5319 0.3509
H53_45 H 0.3924 0.6009 0.2819
H54_25 H 0.4681 0.6491 0.3924
C87_45 C 0.57828(8) 0.55918(8) 0.34222(8)
C88_45 C 0.42172(8) 0.59222(8) 0.30918(8)
C89_25 C 0.44082(8) 0.65778(8) 0.42172(8)
C92_45 C 0.56135(8) 0.58475(9) 0.32477(8)
C93_45 C 0.43865(8) 0.57477(8) 0.33475(9)
C94_25 C 0.41525(9) 0.67523(8) 0.43865(8)
C97_45 C 0.59444(8) 0.57626(9) 0.31574(8)
C98_45 C 0.40556(8) 0.56574(8) 0.32626(9)
C99_25 C 0.42374(9) 0.68426(8) 0.40556(8)
C102_45 C 0.61290(8) 0.59661(9) 0.28852(8)
C103_45 C 0.38710(8) 0.53852(8) 0.34661(9)
C104_25 C 0.40339(9) 0.71148(8) 0.38710(8)
H57_45 H 0.6005 0.6049 0.2874
H58_45 H 0.3995 0.5374 0.3549
H59_25 H 0.3951 0.7126 0.3995
C107_45 C 0.61312(9) 0.58030(10) 0.30301(9)
C108_45 C 0.38688(9) 0.55301(9) 0.33030(10)
C109_25 C 0.41970(10) 0.69699(9) 0.38688(9)
C112_45 C 0.63131(11) 0.56850(12) 0.30496(12)
C113_45 C 0.36869(11) 0.55496(12) 0.31850(12)
C114_25 C 0.43150(12) 0.69504(12) 0.36869(11)
H62_45 H 0.6322 0.5573 0.3148
H63_45 H 0.3678 0.5648 0.3073
H64_25 H 0.4427 0.6852 0.3678
C117_45 C 0.64817(12) 0.57345(14) 0.29226(13)
C118_45 C 0.35183(12) 0.54226(13) 0.32345(14)
C119_25 C 0.42655(14) 0.70774(13) 0.35183(12)
H67_45 H 0.6609 0.5658 0.2934
H68_45 H 0.3391 0.5434 0.3158
H69_25 H 0.4342 0.7066 0.3391
C122_45 C 0.64628(10) 0.58960(12) 0.27793(11)
C123_45 C 0.35372(10) 0.52793(11) 0.33960(12)
C124_25 C 0.41040(12) 0.72207(11) 0.35372(10)
H72_45 H 0.6578 0.5925 0.2689
H73_45 H 0.3422 0.5189 0.3425
H74_25 H 0.4075 0.7311 0.3422
S3_46 S 0.04384(3) 0.57744(3) 0.91365(3)
N11_46 N 0.02418(6) 0.60581(7) 0.88693(7)
N22_46 N 0.01484(7) 0.61605(6) 0.84026(7)
N36_46 N 0.06081(7) 0.57041(7) 0.84011(7)
N41_46 N 0.09580(7) 0.56164(7) 0.83074(7)
N46_46 N 0.07743(7) 0.58806(8) 0.81193(7)
C27_46 C 0.03286(8) 0.59422(8) 0.89797(9)
C38_46 C 0.01112(10) 0.62658(10) 0.82240(11)
H18_46 H 0.0002 0.6367 0.8223
C43_46 C 0.02237(11) 0.62346(12) 0.80414(13)
H23_46 H 0.0186 0.6307 0.7917
C48_46 C 0.03912(10) 0.60980(10) 0.80417(12)
H28_46 H 0.0476 0.6080 0.7921
C53_46 C 0.04317(9) 0.59880(8) 0.82250(9)
C58_46 C 0.03043(8) 0.60210(7) 0.83977(8)
H33_46 H 0.0329 0.5939 0.8520
C63_46 C 0.08315(11) 0.51417(11) 0.88981(12)
H38_46 H 0.0843 0.5039 0.9006
C68_46 C 0.06515(12) 0.52640(13) 0.88915(13)
H43_46 H 0.0544 0.5245 0.8993
C73_46 C 0.06308(11) 0.54123(12) 0.87376(11)
H48_46 H 0.0510 0.5500 0.8731
C78_46 C 0.07916(9) 0.54316(9) 0.85896(9)
C83_46 C 0.09661(8) 0.53041(8) 0.86087(8)
H53_46 H 0.1076 0.5319 0.8509
C88_46 C 0.07828(8) 0.55918(8) 0.84222(8)
C93_46 C 0.06135(8) 0.58475(9) 0.82477(8)
C98_46 C 0.09444(8) 0.57626(9) 0.81574(8)
C103_46 C 0.11290(8) 0.59661(9) 0.78852(8)
H58_46 H 0.1005 0.6049 0.7874
C108_46 C 0.11312(9) 0.58030(10) 0.80301(9)
C113_46 C 0.13131(11) 0.56850(12) 0.80496(12)
H63_46 H 0.1322 0.5573 0.8148
C118_46 C 0.14817(12) 0.57345(14) 0.79226(13)
H68_46 H 0.1609 0.5658 0.7934
C123_46 C 0.14628(10) 0.58960(12) 0.77793(11)
H73_46 H 0.1578 0.5925 0.7689
S1_46 S 0.95616(3) 0.66365(3) 0.82744(3)
N1_46 N 0.97582(6) 0.63693(7) 0.85581(7)
C1_46 C 0.96714(8) 0.64797(9) 0.84422(8)
N21_46 N 0.98516(7) 0.59026(7) 0.86605(6)
N35_46 N 0.93919(7) 0.59011(7) 0.82041(7)
N40_46 N 0.90420(7) 0.58074(7) 0.81164(7)
N45_46 N 0.92257(7) 0.56193(7) 0.83806(8)
C37_46 C 0.98888(10) 0.57240(11) 0.87658(10)
H17_46 H 0.9998 0.5723 0.8867
C42_46 C 0.97763(11) 0.55414(13) 0.87346(12)
H22_46 H 0.9814 0.5417 0.8807
C47_46 C 0.96088(10) 0.55417(12) 0.85980(10)
H27_46 H 0.9524 0.5421 0.8580
C52_46 C 0.95683(9) 0.57250(9) 0.84880(8)
C57_46 C 0.96957(8) 0.58977(8) 0.85210(7)
H32_46 H 0.9671 0.6020 0.8439
C62_46 C 0.91685(11) 0.63981(12) 0.76417(11)
H37_46 H 0.9157 0.6506 0.7539
C67_46 C 0.93485(12) 0.63915(13) 0.77640(13)
H42_46 H 0.9456 0.6493 0.7745
C72_46 C 0.93692(11) 0.62376(11) 0.79123(12)
H47_46 H 0.9490 0.6231 0.8000
C77_46 C 0.92084(9) 0.60896(9) 0.79316(9)
C82_46 C 0.90339(8) 0.61087(8) 0.78041(8)
H52_46 H 0.8924 0.6009 0.7819
C87_46 C 0.92172(8) 0.59222(8) 0.80918(8)
C92_46 C 0.93865(8) 0.57477(8) 0.83475(9)
C97_46 C 0.90556(8) 0.56574(8) 0.82626(9)
C102_46 C 0.88710(8) 0.53852(8) 0.84661(9)
H57_46 H 0.8995 0.5374 0.8549
C107_46 C 0.88688(9) 0.55301(9) 0.83030(10)
C112_46 C 0.86869(11) 0.55496(12) 0.81850(12)
H62_46 H 0.8678 0.5648 0.8073
C117_46 C 0.85183(12) 0.54226(13) 0.82345(14)
H67_46 H 0.8391 0.5434 0.8158
C122_46 C 0.85372(10) 0.52793(11) 0.83960(12)
H72_46 H 0.8422 0.5189 0.8425
S1_47 S 0.17256(3) 0.33635(3) 0.54384(3)
N1_47 N 0.14419(7) 0.36307(7) 0.52418(6)
C1_47 C 0.15578(8) 0.35203(9) 0.53286(8)
S3_47 S 0.08635(3) 0.42256(3) 0.45616(3)
N11_47 N 0.11307(7) 0.39419(7) 0.47582(6)
N21_47 N 0.13395(6) 0.40974(7) 0.51484(7)
N22_47 N 0.15974(7) 0.38395(6) 0.48516(7)
N35_47 N 0.17959(7) 0.40989(7) 0.56081(7)
N36_47 N 0.15989(7) 0.42959(7) 0.43919(7)
N40_47 N 0.18836(7) 0.41926(7) 0.59580(7)
N41_47 N 0.16926(7) 0.43836(7) 0.40420(7)
N45_47 N 0.16194(8) 0.43807(7) 0.57743(7)
N46_47 N 0.18807(7) 0.41194(8) 0.42257(7)
C27_47 C 0.10203(9) 0.40578(8) 0.46714(8)
C37_47 C 0.12342(10) 0.42760(11) 0.51112(10)
C38_47 C 0.17760(11) 0.37342(10) 0.48888(10)
H17_47 H 0.1133 0.4277 0.5002
H18_47 H 0.1777 0.3633 0.4998
C42_47 C 0.12654(12) 0.44586(13) 0.52237(11)
C43_47 C 0.19586(13) 0.37654(12) 0.47763(11)
H22_47 H 0.1193 0.4583 0.5186
H23_47 H 0.2083 0.3693 0.4814
C47_47 C 0.14020(10) 0.44583(12) 0.53912(10)
C48_47 C 0.19583(12) 0.39020(10) 0.46088(10)
H27_47 H 0.1420 0.4579 0.5476
H28_47 H 0.2079 0.3920 0.4524
C52_47 C 0.15120(8) 0.42750(9) 0.54317(9)
C53_47 C 0.17750(9) 0.40120(8) 0.45683(9)
C57_47 C 0.14790(7) 0.41023(8) 0.53043(8)
C58_47 C 0.16023(8) 0.39790(7) 0.46957(8)
H32_47 H 0.1561 0.3980 0.5329
H33_47 H 0.1480 0.4061 0.4671
C62_47 C 0.23583(11) 0.36019(12) 0.58315(11)
C63_47 C 0.11019(12) 0.48583(11) 0.41685(11)
H37_47 H 0.2461 0.3494 0.5843
H38_47 H 0.0994 0.4961 0.4157
C67_47 C 0.22360(13) 0.36085(13) 0.56515(12)
C68_47 C 0.11085(13) 0.47360(13) 0.43485(12)
H42_47 H 0.2255 0.3507 0.5544
H43_47 H 0.1007 0.4755 0.4456
C72_47 C 0.20877(12) 0.37624(11) 0.56308(11)
C73_47 C 0.12624(11) 0.45877(12) 0.43692(11)
H47_47 H 0.2000 0.3769 0.5510
H48_47 H 0.1269 0.4500 0.4490
C77_47 C 0.20684(9) 0.39104(9) 0.57916(9)
C78_47 C 0.14104(9) 0.45684(9) 0.42084(9)
C82_47 C 0.21959(8) 0.38913(8) 0.59661(8)
C83_47 C 0.13913(8) 0.46959(8) 0.40339(8)
H52_47 H 0.2181 0.3991 0.6076
H53_47 H 0.1491 0.4681 0.3924
C87_47 C 0.19082(8) 0.40778(8) 0.57828(8)
C88_47 C 0.15778(8) 0.44082(8) 0.42172(8)
C92_47 C 0.16525(9) 0.42523(8) 0.56135(8)
C93_47 C 0.17523(8) 0.41525(9) 0.43865(8)
C97_47 C 0.17374(9) 0.43426(8) 0.59444(8)
C98_47 C 0.18426(8) 0.42374(9) 0.40556(8)
C102_47 C 0.15339(9) 0.46148(8) 0.61290(8)
C103_47 C 0.21148(8) 0.40339(9) 0.38710(8)
H57_47 H 0.1451 0.4626 0.6005
H58_47 H 0.2126 0.3951 0.3995
C107_47 C 0.16970(10) 0.44699(9) 0.61312(9)
C108_47 C 0.19699(9) 0.41970(10) 0.38688(9)
C112_47 C 0.18150(12) 0.44504(12) 0.63131(11)
C113_47 C 0.19504(12) 0.43150(12) 0.36869(11)
H62_47 H 0.1927 0.4352 0.6322
H63_47 H 0.1852 0.4427 0.3678
C117_47 C 0.17655(14) 0.45774(13) 0.64817(12)
C118_47 C 0.20774(13) 0.42655(14) 0.35183(12)
H67_47 H 0.1842 0.4566 0.6609
H68_47 H 0.2066 0.4342 0.3391
C122_47 C 0.16040(12) 0.47207(11) 0.64628(10)
C123_47 C 0.22207(11) 0.41040(12) 0.35372(10)
H72_47 H 0.1575 0.4811 0.6578
H73_47 H 0.2311 0.4075 0.3422
S2_47 S 0.38094(8) 0.25415(4) 0.95064(4)
N2_47 N 0.37739(7) 0.24895(7) 0.90752(8)
C2_47 C 0.37880(12) 0.25110(9) 0.92537(12)
S8_47 S 0.36906(8) 0.25415(4) 0.79936(4)
N16_47 N 0.37261(7) 0.24895(7) 0.84248(8)
C32_47 C 0.37120(12) 0.25110(9) 0.82463(12)
S1_48 S 0.17256(3) 0.83635(3) 0.04384(3)
N1_48 N 0.14419(7) 0.86307(7) 0.02418(6)
C1_48 C 0.15578(8) 0.85203(9) 0.03286(8)
N21_48 N 0.13395(6) 0.90974(7) 0.01484(7)
N35_48 N 0.17959(7) 0.90989(7) 0.06081(7)
N40_48 N 0.18836(7) 0.91926(7) 0.09580(7)
N45_48 N 0.16194(8) 0.93807(7) 0.07743(7)
C37_48 C 0.12342(10) 0.92760(11) 0.01112(10)
H17_48 H 0.1133 0.9277 0.0002
C42_48 C 0.12654(12) 0.94586(13) 0.02237(11)
H22_48 H 0.1193 0.9583 0.0186
C47_48 C 0.14020(10) 0.94583(12) 0.03912(10)
H27_48 H 0.1420 0.9579 0.0476
C52_48 C 0.15120(8) 0.92750(9) 0.04317(9)
C57_48 C 0.14790(7) 0.91023(8) 0.03043(8)
H32_48 H 0.1561 0.8980 0.0329
C62_48 C 0.23583(11) 0.86019(12) 0.08315(11)
H37_48 H 0.2461 0.8494 0.0843
C67_48 C 0.22360(13) 0.86085(13) 0.06515(12)
H42_48 H 0.2255 0.8507 0.0544
C72_48 C 0.20877(12) 0.87624(11) 0.06308(11)
H47_48 H 0.2000 0.8769 0.0510
C77_48 C 0.20684(9) 0.89104(9) 0.07916(9)
C82_48 C 0.21959(8) 0.88913(8) 0.09661(8)
H52_48 H 0.2181 0.8991 0.1076
C87_48 C 0.19082(8) 0.90778(8) 0.07828(8)
C92_48 C 0.16525(9) 0.92523(8) 0.06135(8)
C97_48 C 0.17374(9) 0.93426(8) 0.09444(8)
C102_48 C 0.15339(9) 0.96148(8) 0.11290(8)
H57_48 H 0.1451 0.9626 0.1005
C107_48 C 0.16970(10) 0.94699(9) 0.11312(9)
C112_48 C 0.18150(12) 0.94504(12) 0.13131(11)
H62_48 H 0.1927 0.9352 0.1322
C117_48 C 0.17655(14) 0.95774(13) 0.14817(12)
H67_48 H 0.1842 0.9566 0.1609
C122_48 C 0.16040(12) 0.97207(11) 0.14628(10)
H72_48 H 0.1575 0.9811 0.1578
S3_48 S 0.08635(3) 0.92256(3) 0.95616(3)
N11_48 N 0.11307(7) 0.89419(7) 0.97582(6)
N22_48 N 0.15974(7) 0.88395(6) 0.98516(7)
N36_48 N 0.15989(7) 0.92959(7) 0.93919(7)
N41_48 N 0.16926(7) 0.93836(7) 0.90420(7)
N46_48 N 0.18807(7) 0.91194(8) 0.92257(7)
C27_48 C 0.10203(9) 0.90578(8) 0.96714(8)
C38_48 C 0.17760(11) 0.87342(10) 0.98888(10)
H18_48 H 0.1777 0.8633 0.9998
C43_48 C 0.19586(13) 0.87654(12) 0.97763(11)
H23_48 H 0.2083 0.8693 0.9814
C48_48 C 0.19583(12) 0.89020(10) 0.96088(10)
H28_48 H 0.2079 0.8920 0.9524
C53_48 C 0.17750(9) 0.90120(8) 0.95683(9)
C58_48 C 0.16023(8) 0.89790(7) 0.96957(8)
H33_48 H 0.1480 0.9061 0.9671
C63_48 C 0.11019(12) 0.98583(11) 0.91685(11)
H38_48 H 0.0994 0.9961 0.9157
C68_48 C 0.11085(13) 0.97360(13) 0.93485(12)
H43_48 H 0.1007 0.9755 0.9456
C73_48 C 0.12624(11) 0.95877(12) 0.93692(11)
H48_48 H 0.1269 0.9500 0.9490
C78_48 C 0.14104(9) 0.95684(9) 0.92084(9)
C83_48 C 0.13913(8) 0.96959(8) 0.90339(8)
H53_48 H 0.1491 0.9681 0.8924
C88_48 C 0.15778(8) 0.94082(8) 0.92172(8)
C93_48 C 0.17523(8) 0.91525(9) 0.93865(8)
C98_48 C 0.18426(8) 0.92374(9) 0.90556(8)
C103_48 C 0.21148(8) 0.90339(9) 0.88710(8)
H58_48 H 0.2126 0.8951 0.8995
C108_48 C 0.19699(9) 0.91970(10) 0.88688(9)
C113_48 C 0.19504(12) 0.93150(12) 0.86869(11)
H63_48 H 0.1852 0.9427 0.8678
C118_48 C 0.20774(13) 0.92655(14) 0.85183(12)
H68_48 H 0.2066 0.9342 0.8391
C123_48 C 0.22207(11) 0.91040(12) 0.85372(10)
H73_48 H 0.2311 0.9075 0.8422
S2_48 S 0.38094(8) 0.75415(4) 0.45064(4)
N2_48 N 0.37739(7) 0.74895(7) 0.40752(8)
C2_48 C 0.37880(12) 0.75110(9) 0.42537(12)
S8_48 S 0.36906(8) 0.75415(4) 0.29936(4)
N16_48 N 0.37261(7) 0.74895(7) 0.34248(8)
C32_48 C 0.37120(12) 0.75110(9) 0.32463(12)
N10_16 N 0.57813(8) 0.15607(8) 0.68629(8)
C21_16 C 0.63830(12) 0.16723(11) 0.73302(11)
H13_16 H 0.6487 0.1661 0.7436
C22_16 C 0.63764(15) 0.18515(12) 0.72114(14)
H14_16 H 0.6473 0.1962 0.7237
C23_16 C 0.62281(13) 0.18690(12) 0.70545(13)
H15_16 H 0.6220 0.1991 0.6970
C24_16 C 0.60897(11) 0.17016(10) 0.70234(10)
C25_16 C 0.61041(9) 0.15283(9) 0.71526(8)
H16_16 H 0.6007 0.1417 0.7134
C26_16 C 0.59264(10) 0.17111(10) 0.68605(10)
N66_16 N 0.56371(8) 0.17187(8) 0.65607(8)
N67_16 N 0.59393(8) 0.18629(8) 0.67187(8)
N68_18 N 0.67187(8) 0.09393(8) 0.68629(8)
N69_18 N 0.68629(8) 0.07813(8) 0.65607(8)
N70_18 N 0.65607(8) 0.06371(8) 0.67187(8)
C127_16 C 0.58277(11) 0.23302(11) 0.61170(12)
C128_16 C 0.51698(11) 0.11170(12) 0.66723(11)
C129_18 C 0.61170(12) 0.08277(11) 0.73302(11)
C130_18 C 0.66723(11) 0.01698(11) 0.61170(12)
C131_18 C 0.73302(11) 0.13830(12) 0.66723(11)
H77_16 H 0.5839 0.2436 0.6013
H78_16 H 0.5064 0.1013 0.6661
H79_18 H 0.6013 0.0839 0.7436
H80_18 H 0.6661 0.0064 0.6013
H81_18 H 0.7436 0.1487 0.6661
C132_16 C 0.56485(12) 0.22114(14) 0.61236(15)
C133_16 C 0.52886(14) 0.11236(15) 0.68515(12)
C134_18 C 0.61236(15) 0.06485(12) 0.72114(14)
C135_18 C 0.68515(12) 0.02886(14) 0.61236(15)
C136_18 C 0.72114(14) 0.13764(15) 0.68515(12)
H82_16 H 0.5538 0.2237 0.6027
H83_16 H 0.5263 0.1027 0.6962
H84_18 H 0.6027 0.0538 0.7237
H85_18 H 0.6962 0.0263 0.6027
H86_18 H 0.7237 0.1473 0.6962
C137_16 C 0.56310(12) 0.20545(13) 0.62719(13)
C138_16 C 0.54455(13) 0.12719(13) 0.68690(12)
C139_18 C 0.62719(13) 0.06310(12) 0.70545(13)
C140_18 C 0.68690(12) 0.04455(13) 0.62719(13)
C141_18 C 0.70545(13) 0.12281(13) 0.68690(12)
H87_16 H 0.5509 0.1970 0.6280
H88_16 H 0.5530 0.1280 0.6991
H89_18 H 0.6280 0.0509 0.6970
H90_18 H 0.6991 0.0530 0.6280
H91_18 H 0.6970 0.1220 0.6991
C142_16 C 0.57984(10) 0.20234(10) 0.64103(11)
C143_16 C 0.54766(10) 0.14103(11) 0.67016(10)
C144_18 C 0.64103(11) 0.07984(10) 0.70234(10)
C145_18 C 0.67016(10) 0.04766(10) 0.64103(11)
C146_18 C 0.70234(10) 0.10897(11) 0.67016(10)
C147_16 C 0.59717(9) 0.21526(8) 0.63959(9)
C148_16 C 0.53474(8) 0.13959(9) 0.65283(9)
C149_18 C 0.63959(9) 0.09717(9) 0.71526(8)
C150_18 C 0.65283(9) 0.03474(8) 0.63959(9)
C151_18 C 0.71526(8) 0.11041(9) 0.65283(9)
H92_16 H 0.6083 0.2134 0.6493
H93_16 H 0.5366 0.1493 0.6417
H94_18 H 0.6493 0.1083 0.7134
H95_18 H 0.6417 0.0366 0.6493
H96_18 H 0.7134 0.1007 0.6417
C152_16 C 0.56395(10) 0.15736(10) 0.67111(10)
C153_16 C 0.57889(10) 0.18605(10) 0.65736(10)
C154_18 C 0.65736(10) 0.07889(10) 0.68605(10)
C155_18 C 0.68605(10) 0.09264(10) 0.67111(10)
C156_18 C 0.67111(10) 0.06395(10) 0.65736(10)
N10_17 N 0.90607(8) 0.32813(8) 0.81371(8)
C21_17 C 0.91723(11) 0.38830(12) 0.76698(11)
H13_17 H 0.9161 0.3987 0.7564
C22_17 C 0.93515(12) 0.38764(15) 0.77886(14)
H14_17 H 0.9462 0.3973 0.7763
C23_17 C 0.93690(12) 0.37281(13) 0.79455(13)
H15_17 H 0.9491 0.3720 0.8030
C24_17 C 0.92016(10) 0.35897(11) 0.79766(10)
C25_17 C 0.90283(9) 0.36041(9) 0.78474(8)
H16_17 H 0.8917 0.3507 0.7866
C26_17 C 0.92111(10) 0.34264(10) 0.81395(10)
N66_17 N 0.92187(8) 0.31371(8) 0.84393(8)
N67_17 N 0.93629(8) 0.34393(8) 0.82813(8)
N68_19 N 0.84393(8) 0.42187(8) 0.81371(8)
N69_19 N 0.82813(8) 0.43629(8) 0.84393(8)
N70_19 N 0.81371(8) 0.40607(8) 0.82813(8)
C127_17 C 0.98302(11) 0.33277(11) 0.88830(12)
C128_17 C 0.86170(12) 0.26698(11) 0.83277(11)
C129_19 C 0.83277(11) 0.36170(12) 0.76698(11)
C130_19 C 0.76698(11) 0.41723(11) 0.88830(12)
C131_19 C 0.88830(12) 0.48302(11) 0.83277(11)
H77_17 H 0.9936 0.3339 0.8987
H78_17 H 0.8513 0.2564 0.8339
H79_19 H 0.8339 0.3513 0.7564
H80_19 H 0.7564 0.4161 0.8987
H81_19 H 0.8987 0.4936 0.8339
C132_17 C 0.97114(14) 0.31485(12) 0.88764(15)
C133_17 C 0.86236(15) 0.27886(14) 0.81485(12)
C134_19 C 0.81485(12) 0.36236(15) 0.77886(14)
C135_19 C 0.77886(14) 0.43515(12) 0.88764(15)
C136_19 C 0.88764(15) 0.47114(14) 0.81485(12)
H82_17 H 0.9737 0.3038 0.8973
H83_17 H 0.8527 0.2763 0.8038
H84_19 H 0.8038 0.3527 0.7763
H85_19 H 0.7763 0.4462 0.8973
H86_19 H 0.8973 0.4737 0.8038
C137_17 C 0.95545(13) 0.31310(12) 0.87281(13)
C138_17 C 0.87719(13) 0.29455(13) 0.81310(12)
C139_19 C 0.81310(12) 0.37719(13) 0.79455(13)
C140_19 C 0.79455(13) 0.43690(12) 0.87281(13)
C141_19 C 0.87281(13) 0.45545(13) 0.81310(12)
H87_17 H 0.9470 0.3009 0.8720
H88_17 H 0.8780 0.3030 0.8009
H89_19 H 0.8009 0.3780 0.8030
H90_19 H 0.8030 0.4491 0.8720
H91_19 H 0.8720 0.4470 0.8009
C142_17 C 0.95234(10) 0.32984(10) 0.85897(11)
C143_17 C 0.89103(11) 0.29766(10) 0.82984(10)
C144_19 C 0.82984(10) 0.39103(11) 0.79766(10)
C145_19 C 0.79766(10) 0.42016(10) 0.85897(11)
C146_19 C 0.85897(11) 0.45234(10) 0.82984(10)
C147_17 C 0.96526(8) 0.34717(9) 0.86041(9)
C148_17 C 0.88959(9) 0.28474(8) 0.84717(9)
C149_19 C 0.84717(9) 0.38959(9) 0.78474(8)
C150_19 C 0.78474(8) 0.40283(9) 0.86041(9)
C151_19 C 0.86041(9) 0.46526(8) 0.84717(9)
H92_17 H 0.9634 0.3583 0.8507
H93_17 H 0.8993 0.2866 0.8583
H94_19 H 0.8583 0.3993 0.7866
H95_19 H 0.7866 0.3917 0.8507
H96_19 H 0.8507 0.4634 0.8583
C152_17 C 0.90736(10) 0.31395(10) 0.82889(10)
C153_17 C 0.93605(10) 0.32889(10) 0.84264(10)
C154_19 C 0.82889(10) 0.40736(10) 0.81395(10)
C155_19 C 0.84264(10) 0.43605(10) 0.82889(10)
C156_19 C 0.81395(10) 0.42111(10) 0.84264(10)
N10_18 N 0.32813(8) 0.31371(8) 0.40607(8)
C21_18 C 0.38830(12) 0.26698(11) 0.41723(11)
H13_18 H 0.3987 0.2564 0.4161
C22_18 C 0.38764(15) 0.27886(14) 0.43515(12)
H14_18 H 0.3973 0.2763 0.4462
C23_18 C 0.37281(13) 0.29455(13) 0.43690(12)
H15_18 H 0.3720 0.3030 0.4491
C24_18 C 0.35897(11) 0.29766(10) 0.42016(10)
C25_18 C 0.36041(9) 0.28474(8) 0.40283(9)
H16_18 H 0.3507 0.2866 0.3917
C26_18 C 0.34264(10) 0.31395(10) 0.42111(10)
N66_18 N 0.31371(8) 0.34393(8) 0.42187(8)
N67_18 N 0.34393(8) 0.32813(8) 0.43629(8)
N68_20 N 0.42187(8) 0.31371(8) 0.34393(8)
N69_20 N 0.43629(8) 0.34393(8) 0.32813(8)
N70_20 N 0.40607(8) 0.32813(8) 0.31371(8)
C127_18 C 0.33277(11) 0.38830(12) 0.48302(11)
C128_18 C 0.26698(11) 0.33277(11) 0.36170(12)
C129_20 C 0.36170(12) 0.26698(11) 0.33277(11)
C130_20 C 0.41723(11) 0.38830(12) 0.26698(11)
C131_20 C 0.48302(11) 0.33277(11) 0.38830(12)
H77_18 H 0.3339 0.3987 0.4936
H78_18 H 0.2564 0.3339 0.3513
H79_20 H 0.3513 0.2564 0.3339
H80_20 H 0.4161 0.3987 0.2564
H81_20 H 0.4936 0.3339 0.3987
C132_18 C 0.31485(12) 0.38764(15) 0.47114(14)
C133_18 C 0.27886(14) 0.31485(12) 0.36236(15)
C134_20 C 0.36236(15) 0.27886(14) 0.31485(12)
C135_20 C 0.43515(12) 0.38764(15) 0.27886(14)
C136_20 C 0.47114(14) 0.31485(12) 0.38764(15)
H82_18 H 0.3038 0.3973 0.4737
H83_18 H 0.2763 0.3038 0.3527
H84_20 H 0.3527 0.2763 0.3038
H85_20 H 0.4462 0.3973 0.2763
H86_20 H 0.4737 0.3038 0.3973
C137_18 C 0.31310(12) 0.37281(13) 0.45545(13)
C138_18 C 0.29455(13) 0.31310(12) 0.37719(13)
C139_20 C 0.37719(13) 0.29455(13) 0.31310(12)
C140_20 C 0.43690(12) 0.37281(13) 0.29455(13)
C141_20 C 0.45545(13) 0.31310(12) 0.37281(13)
H87_18 H 0.3009 0.3720 0.4470
H88_18 H 0.3030 0.3009 0.3780
H89_20 H 0.3780 0.3030 0.3009
H90_20 H 0.4491 0.3720 0.3030
H91_20 H 0.4470 0.3009 0.3720
C142_18 C 0.32984(10) 0.35897(11) 0.45234(10)
C143_18 C 0.29766(10) 0.32984(10) 0.39103(11)
C144_20 C 0.39103(11) 0.29766(10) 0.32984(10)
C145_20 C 0.42016(10) 0.35897(11) 0.29766(10)
C146_20 C 0.45234(10) 0.32984(10) 0.35897(11)
C147_18 C 0.34717(9) 0.36041(9) 0.46526(8)
C148_18 C 0.28474(8) 0.34717(9) 0.38959(9)
C149_20 C 0.38959(9) 0.28474(8) 0.34717(9)
C150_20 C 0.40283(9) 0.36041(9) 0.28474(8)
C151_20 C 0.46526(8) 0.34717(9) 0.36041(9)
H92_18 H 0.3583 0.3507 0.4634
H93_18 H 0.2866 0.3583 0.3993
H94_20 H 0.3993 0.2866 0.3583
H95_20 H 0.3917 0.3507 0.2866
H96_20 H 0.4634 0.3583 0.3507
C152_18 C 0.31395(10) 0.32889(10) 0.40736(10)
C153_18 C 0.32889(10) 0.34264(10) 0.43605(10)
C154_20 C 0.40736(10) 0.31395(10) 0.32889(10)
C155_20 C 0.43605(10) 0.32889(10) 0.34264(10)
C156_20 C 0.42111(10) 0.34264(10) 0.31395(10)
N10_19 N 0.31371(8) 0.90607(8) 0.82813(8)
C21_19 C 0.26698(11) 0.91723(11) 0.88830(12)
H13_19 H 0.2564 0.9161 0.8987
C22_19 C 0.27886(14) 0.93515(12) 0.88764(15)
H14_19 H 0.2763 0.9462 0.8973
C23_19 C 0.29455(13) 0.93690(12) 0.87281(13)
H15_19 H 0.3030 0.9491 0.8720
C24_19 C 0.29766(10) 0.92016(10) 0.85897(11)
C25_19 C 0.28474(8) 0.90283(9) 0.86041(9)
H16_19 H 0.2866 0.8917 0.8507
C26_19 C 0.31395(10) 0.92111(10) 0.84264(10)
N66_19 N 0.34393(8) 0.92187(8) 0.81371(8)
N67_19 N 0.32813(8) 0.93629(8) 0.84393(8)
N68_21 N 0.31371(8) 0.84393(8) 0.92187(8)
N69_21 N 0.34393(8) 0.82813(8) 0.93629(8)
N70_21 N 0.32813(8) 0.81371(8) 0.90607(8)
C127_19 C 0.38830(12) 0.98302(11) 0.83277(11)
C128_19 C 0.33277(11) 0.86170(12) 0.76698(11)
C129_21 C 0.26698(11) 0.83277(11) 0.86170(12)
C130_21 C 0.38830(12) 0.76698(11) 0.91723(11)
C131_21 C 0.33277(11) 0.88830(12) 0.98302(11)
H77_19 H 0.3987 0.9936 0.8339
H78_19 H 0.3339 0.8513 0.7564
H79_21 H 0.2564 0.8339 0.8513
H80_21 H 0.3987 0.7564 0.9161
H81_21 H 0.3339 0.8987 0.9936
C132_19 C 0.38764(15) 0.97114(14) 0.81485(12)
C133_19 C 0.31485(12) 0.86236(15) 0.77886(14)
C134_21 C 0.27886(14) 0.81485(12) 0.86236(15)
C135_21 C 0.38764(15) 0.77886(14) 0.93515(12)
C136_21 C 0.31485(12) 0.88764(15) 0.97114(14)
H82_19 H 0.3973 0.9737 0.8038
H83_19 H 0.3038 0.8527 0.7763
H84_21 H 0.2763 0.8038 0.8527
H85_21 H 0.3973 0.7763 0.9462
H86_21 H 0.3038 0.8973 0.9737
C137_19 C 0.37281(13) 0.95545(13) 0.81310(12)
C138_19 C 0.31310(12) 0.87719(13) 0.79455(13)
C139_21 C 0.29455(13) 0.81310(12) 0.87719(13)
C140_21 C 0.37281(13) 0.79455(13) 0.93690(12)
C141_21 C 0.31310(12) 0.87281(13) 0.95545(13)
H87_19 H 0.3720 0.9470 0.8009
H88_19 H 0.3009 0.8780 0.8030
H89_21 H 0.3030 0.8009 0.8780
H90_21 H 0.3720 0.8030 0.9491
H91_21 H 0.3009 0.8720 0.9470
C142_19 C 0.35897(11) 0.95234(10) 0.82984(10)
C143_19 C 0.32984(10) 0.89103(11) 0.79766(10)
C144_21 C 0.29766(10) 0.82984(10) 0.89103(11)
C145_21 C 0.35897(11) 0.79766(10) 0.92016(10)
C146_21 C 0.32984(10) 0.85897(11) 0.95234(10)
C147_19 C 0.36041(9) 0.96526(8) 0.84717(9)
C148_19 C 0.34717(9) 0.88959(9) 0.78474(8)
C149_21 C 0.28474(8) 0.84717(9) 0.88959(9)
C150_21 C 0.36041(9) 0.78474(8) 0.90283(9)
C151_21 C 0.34717(9) 0.86041(9) 0.96526(8)
H92_19 H 0.3507 0.9634 0.8583
H93_19 H 0.3583 0.8993 0.7866
H94_21 H 0.2866 0.8583 0.8993
H95_21 H 0.3507 0.7866 0.8917
H96_21 H 0.3583 0.8507 0.9634
C152_19 C 0.32889(10) 0.90736(10) 0.81395(10)
C153_19 C 0.34264(10) 0.93605(10) 0.82889(10)
C154_21 C 0.31395(10) 0.82889(10) 0.90736(10)
C155_21 C 0.32889(10) 0.84264(10) 0.93605(10)
C156_21 C 0.34264(10) 0.81395(10) 0.92111(10)
N10_20 N 0.93629(8) 0.90607(8) 0.42187(8)
C21_20 C 0.98302(11) 0.91723(11) 0.36170(12)
H13_20 H 0.9936 0.9161 0.3513
C22_20 C 0.97114(14) 0.93515(12) 0.36236(15)
H14_20 H 0.9737 0.9462 0.3527
C23_20 C 0.95545(13) 0.93690(12) 0.37719(13)
H15_20 H 0.9470 0.9491 0.3780
C24_20 C 0.95234(10) 0.92016(10) 0.39103(11)
C25_20 C 0.96526(8) 0.90283(9) 0.38959(9)
H16_20 H 0.9634 0.8917 0.3993
C26_20 C 0.93605(10) 0.92111(10) 0.40736(10)
N66_20 N 0.90607(8) 0.92187(8) 0.43629(8)
N67_20 N 0.92187(8) 0.93629(8) 0.40607(8)
N68_22 N 0.93629(8) 0.84393(8) 0.32813(8)
N69_22 N 0.90607(8) 0.82813(8) 0.31371(8)
N70_22 N 0.92187(8) 0.81371(8) 0.34393(8)
C127_20 C 0.86170(12) 0.98302(11) 0.41723(11)
C128_20 C 0.91723(11) 0.86170(12) 0.48302(11)
C129_22 C 0.98302(11) 0.83277(11) 0.38830(12)
C130_22 C 0.86170(12) 0.76698(11) 0.33277(11)
C131_22 C 0.91723(11) 0.88830(12) 0.26698(11)
H77_20 H 0.8513 0.9936 0.4161
H78_20 H 0.9161 0.8513 0.4936
H79_22 H 0.9936 0.8339 0.3987
H80_22 H 0.8513 0.7564 0.3339
H81_22 H 0.9161 0.8987 0.2564
C132_20 C 0.86236(15) 0.97114(14) 0.43515(12)
C133_20 C 0.93515(12) 0.86236(15) 0.47114(14)
C134_22 C 0.97114(14) 0.81485(12) 0.38764(15)
C135_22 C 0.86236(15) 0.77886(14) 0.31485(12)
C136_22 C 0.93515(12) 0.88764(15) 0.27886(14)
H82_20 H 0.8527 0.9737 0.4462
H83_20 H 0.9462 0.8527 0.4737
H84_22 H 0.9737 0.8038 0.3973
H85_22 H 0.8527 0.7763 0.3038
H86_22 H 0.9462 0.8973 0.2763
C137_20 C 0.87719(13) 0.95545(13) 0.43690(12)
C138_20 C 0.93690(12) 0.87719(13) 0.45545(13)
C139_22 C 0.95545(13) 0.81310(12) 0.37281(13)
C140_22 C 0.87719(13) 0.79455(13) 0.31310(12)
C141_22 C 0.93690(12) 0.87281(13) 0.29455(13)
H87_20 H 0.8780 0.9470 0.4491
H88_20 H 0.9491 0.8780 0.4470
H89_22 H 0.9470 0.8009 0.3720
H90_22 H 0.8780 0.8030 0.3009
H91_22 H 0.9491 0.8720 0.3030
C142_20 C 0.89103(11) 0.95234(10) 0.42016(10)
C143_20 C 0.92016(10) 0.89103(11) 0.45234(10)
C144_22 C 0.95234(10) 0.82984(10) 0.35897(11)
C145_22 C 0.89103(11) 0.79766(10) 0.32984(10)
C146_22 C 0.92016(10) 0.85897(11) 0.29766(10)
C147_20 C 0.88959(9) 0.96526(8) 0.40283(9)
C148_20 C 0.90283(9) 0.88959(9) 0.46526(8)
C149_22 C 0.96526(8) 0.84717(9) 0.36041(9)
C150_22 C 0.88959(9) 0.78474(8) 0.34717(9)
C151_22 C 0.90283(9) 0.86041(9) 0.28474(8)
H92_20 H 0.8993 0.9634 0.3917
H93_20 H 0.8917 0.8993 0.4634
H94_22 H 0.9634 0.8583 0.3507
H95_22 H 0.8993 0.7866 0.3583
H96_22 H 0.8917 0.8507 0.2866
C152_20 C 0.92111(10) 0.90736(10) 0.43605(10)
C153_20 C 0.90736(10) 0.93605(10) 0.42111(10)
C154_22 C 0.93605(10) 0.82889(10) 0.34264(10)
C155_22 C 0.92111(10) 0.84264(10) 0.31395(10)
C156_22 C 0.90736(10) 0.81395(10) 0.32889(10)
N10_21 N 0.06371(8) 0.57813(8) 0.59393(8)
C21_21 C 0.01698(11) 0.63830(12) 0.58277(11)
H13_21 H 0.0064 0.6487 0.5839
C22_21 C 0.02886(14) 0.63764(15) 0.56485(12)
H14_21 H 0.0263 0.6473 0.5538
C23_21 C 0.04455(13) 0.62281(13) 0.56310(12)
H15_21 H 0.0530 0.6220 0.5509
C24_21 C 0.04766(10) 0.60897(11) 0.57984(10)
C25_21 C 0.03474(8) 0.61041(9) 0.59717(9)
H16_21 H 0.0366 0.6007 0.6083
C26_21 C 0.06395(10) 0.59264(10) 0.57889(10)
N66_21 N 0.09393(8) 0.56371(8) 0.57813(8)
N67_21 N 0.07813(8) 0.59393(8) 0.56371(8)
N68_23 N 0.06371(8) 0.67187(8) 0.65607(8)
N69_23 N 0.09393(8) 0.68629(8) 0.67187(8)
N70_23 N 0.07813(8) 0.65607(8) 0.68629(8)
C127_21 C 0.13830(12) 0.58277(11) 0.51698(11)
C128_21 C 0.08277(11) 0.51698(11) 0.63830(12)
C129_23 C 0.01698(11) 0.61170(12) 0.66723(11)
C130_23 C 0.13830(12) 0.66723(11) 0.73302(11)
C131_23 C 0.08277(11) 0.73302(11) 0.61170(12)
H77_21 H 0.1487 0.5839 0.5064
H78_21 H 0.0839 0.5064 0.6487
H79_23 H 0.0064 0.6013 0.6661
H80_23 H 0.1487 0.6661 0.7436
H81_23 H 0.0839 0.7436 0.6013
C132_21 C 0.13764(15) 0.56485(12) 0.52886(14)
C133_21 C 0.06485(12) 0.52886(14) 0.63764(15)
C134_23 C 0.02886(14) 0.61236(15) 0.68515(12)
C135_23 C 0.13764(15) 0.68515(12) 0.72114(14)
C136_23 C 0.06485(12) 0.72114(14) 0.61236(15)
H82_21 H 0.1473 0.5538 0.5263
H83_21 H 0.0538 0.5263 0.6473
H84_23 H 0.0263 0.6027 0.6962
H85_23 H 0.1473 0.6962 0.7237
H86_23 H 0.0538 0.7237 0.6027
C137_21 C 0.12281(13) 0.56310(12) 0.54455(13)
C138_21 C 0.06310(12) 0.54455(13) 0.62281(13)
C139_23 C 0.04455(13) 0.62719(13) 0.68690(12)
C140_23 C 0.12281(13) 0.68690(12) 0.70545(13)
C141_23 C 0.06310(12) 0.70545(13) 0.62719(13)
H87_21 H 0.1220 0.5509 0.5530
H88_21 H 0.0509 0.5530 0.6220
H89_23 H 0.0530 0.6280 0.6991
H90_23 H 0.1220 0.6991 0.6970
H91_23 H 0.0509 0.6970 0.6280
C142_21 C 0.10897(11) 0.57984(10) 0.54766(10)
C143_21 C 0.07984(10) 0.54766(10) 0.60897(11)
C144_23 C 0.04766(10) 0.64103(11) 0.67016(10)
C145_23 C 0.10897(11) 0.67016(10) 0.70234(10)
C146_23 C 0.07984(10) 0.70234(10) 0.64103(11)
C147_21 C 0.11041(9) 0.59717(9) 0.53474(8)
C148_21 C 0.09717(9) 0.53474(8) 0.61041(9)
C149_23 C 0.03474(8) 0.63959(9) 0.65283(9)
C150_23 C 0.11041(9) 0.65283(9) 0.71526(8)
C151_23 C 0.09717(9) 0.71526(8) 0.63959(9)
H92_21 H 0.1007 0.6083 0.5366
H93_21 H 0.1083 0.5366 0.6007
H94_23 H 0.0366 0.6493 0.6417
H95_23 H 0.1007 0.6417 0.7134
H96_23 H 0.1083 0.7134 0.6493
C152_21 C 0.07889(10) 0.56395(10) 0.59264(10)
C153_21 C 0.09264(10) 0.57889(10) 0.56395(10)
C154_23 C 0.06395(10) 0.65736(10) 0.67111(10)
C155_23 C 0.07889(10) 0.68605(10) 0.65736(10)
C156_23 C 0.09264(10) 0.67111(10) 0.68605(10)
N68_24 N 0.42187(8) 0.93629(8) 0.90607(8)
N69_24 N 0.43629(8) 0.90607(8) 0.92187(8)
N70_24 N 0.40607(8) 0.92187(8) 0.93629(8)
C129_24 C 0.36170(12) 0.98302(11) 0.91723(11)
C130_24 C 0.41723(11) 0.86170(12) 0.98302(11)
C131_24 C 0.48302(11) 0.91723(11) 0.86170(12)
H79_24 H 0.3513 0.9936 0.9161
H80_24 H 0.4161 0.8513 0.9936
H81_24 H 0.4936 0.9161 0.8513
C134_24 C 0.36236(15) 0.97114(14) 0.93515(12)
C135_24 C 0.43515(12) 0.86236(15) 0.97114(14)
C136_24 C 0.47114(14) 0.93515(12) 0.86236(15)
H84_24 H 0.3527 0.9737 0.9462
H85_24 H 0.4462 0.8527 0.9737
H86_24 H 0.4737 0.9462 0.8527
C139_24 C 0.37719(13) 0.95545(13) 0.93690(12)
C140_24 C 0.43690(12) 0.87719(13) 0.95545(13)
C141_24 C 0.45545(13) 0.93690(12) 0.87719(13)
H89_24 H 0.3780 0.9470 0.9491
H90_24 H 0.4491 0.8780 0.9470
H91_24 H 0.4470 0.9491 0.8780
C144_24 C 0.39103(11) 0.95234(10) 0.92016(10)
C145_24 C 0.42016(10) 0.89103(11) 0.95234(10)
C146_24 C 0.45234(10) 0.92016(10) 0.89103(11)
C149_24 C 0.38959(9) 0.96526(8) 0.90283(9)
C150_24 C 0.40283(9) 0.88959(9) 0.96526(8)
C151_24 C 0.46526(8) 0.90283(9) 0.88959(9)
H94_24 H 0.3993 0.9634 0.8917
H95_24 H 0.3917 0.8993 0.9634
H96_24 H 0.4634 0.8917 0.8993
C154_24 C 0.40736(10) 0.93605(10) 0.92111(10)
C155_24 C 0.43605(10) 0.92111(10) 0.90736(10)
C156_24 C 0.42111(10) 0.90736(10) 0.93605(10)
N10_22 N 0.15607(8) 0.06371(8) 0.17187(8)
C21_22 C 0.16723(11) 0.01698(11) 0.11170(12)
H13_22 H 0.1661 0.0064 0.1013
C22_22 C 0.18515(12) 0.02886(14) 0.11236(15)
H14_22 H 0.1962 0.0263 0.1027
C23_22 C 0.18690(12) 0.04455(13) 0.12719(13)
H15_22 H 0.1991 0.0530 0.1280
C24_22 C 0.17016(10) 0.04766(10) 0.14103(11)
C25_22 C 0.15283(9) 0.03474(8) 0.13959(9)
H16_22 H 0.1417 0.0366 0.1493
C26_22 C 0.17111(10) 0.06395(10) 0.15736(10)
N66_22 N 0.17187(8) 0.09393(8) 0.18629(8)
N67_22 N 0.18629(8) 0.07813(8) 0.15607(8)
N68_25 N 0.09393(8) 0.06371(8) 0.07813(8)
N69_25 N 0.07813(8) 0.09393(8) 0.06371(8)
N70_25 N 0.06371(8) 0.07813(8) 0.09393(8)
C127_22 C 0.23302(11) 0.13830(12) 0.16723(11)
C128_22 C 0.11170(12) 0.08277(11) 0.23302(11)
C129_25 C 0.08277(11) 0.01698(11) 0.13830(12)
C130_25 C 0.01698(11) 0.13830(12) 0.08277(11)
C131_25 C 0.13830(12) 0.08277(11) 0.01698(11)
H77_22 H 0.2436 0.1487 0.1661
H78_22 H 0.1013 0.0839 0.2436
H79_25 H 0.0839 0.0064 0.1487
H80_25 H 0.0064 0.1487 0.0839
H81_25 H 0.1487 0.0839 0.0064
C132_22 C 0.22114(14) 0.13764(15) 0.18515(12)
C133_22 C 0.11236(15) 0.06485(12) 0.22114(14)
C134_25 C 0.06485(12) 0.02886(14) 0.13764(15)
C135_25 C 0.02886(14) 0.13764(15) 0.06485(12)
C136_25 C 0.13764(15) 0.06485(12) 0.02886(14)
H82_22 H 0.2237 0.1473 0.1962
H83_22 H 0.1027 0.0538 0.2237
H84_25 H 0.0538 0.0263 0.1473
H85_25 H 0.0263 0.1473 0.0538
H86_25 H 0.1473 0.0538 0.0263
C137_22 C 0.20545(13) 0.12281(13) 0.18690(12)
C138_22 C 0.12719(13) 0.06310(12) 0.20545(13)
C139_25 C 0.06310(12) 0.04455(13) 0.12281(13)
C140_25 C 0.04455(13) 0.12281(13) 0.06310(12)
C141_25 C 0.12281(13) 0.06310(12) 0.04455(13)
H87_22 H 0.1970 0.1220 0.1991
H88_22 H 0.1280 0.0509 0.1970
H89_25 H 0.0509 0.0530 0.1220
H90_25 H 0.0530 0.1220 0.0509
H91_25 H 0.1220 0.0509 0.0530
C142_22 C 0.20234(10) 0.10897(11) 0.17016(10)
C143_22 C 0.14103(11) 0.07984(10) 0.20234(10)
C144_25 C 0.07984(10) 0.04766(10) 0.10897(11)
C145_25 C 0.04766(10) 0.10897(11) 0.07984(10)
C146_25 C 0.10897(11) 0.07984(10) 0.04766(10)
C147_22 C 0.21526(8) 0.11041(9) 0.15283(9)
C148_22 C 0.13959(9) 0.09717(9) 0.21526(8)
C149_25 C 0.09717(9) 0.03474(8) 0.11041(9)
C150_25 C 0.03474(8) 0.11041(9) 0.09717(9)
C151_25 C 0.11041(9) 0.09717(9) 0.03474(8)
H92_22 H 0.2134 0.1007 0.1417
H93_22 H 0.1493 0.1083 0.2134
H94_25 H 0.1083 0.0366 0.1007
H95_25 H 0.0366 0.1007 0.1083
H96_25 H 0.1007 0.1083 0.0366
C152_22 C 0.15736(10) 0.07889(10) 0.18605(10)
C153_22 C 0.18605(10) 0.09264(10) 0.17111(10)
C154_25 C 0.07889(10) 0.06395(10) 0.09264(10)
C155_25 C 0.09264(10) 0.07889(10) 0.06395(10)
C156_25 C 0.06395(10) 0.09264(10) 0.07889(10)
N10_23 N 0.90607(8) 0.42187(8) 0.93629(8)
C21_23 C 0.91723(11) 0.36170(12) 0.98302(11)
H13_23 H 0.9161 0.3513 0.9936
C22_23 C 0.93515(12) 0.36236(15) 0.97114(14)
H14_23 H 0.9462 0.3527 0.9737
C23_23 C 0.93690(12) 0.37719(13) 0.95545(13)
H15_23 H 0.9491 0.3780 0.9470
C24_23 C 0.92016(10) 0.39103(11) 0.95234(10)
C25_23 C 0.90283(9) 0.38959(9) 0.96526(8)
H16_23 H 0.8917 0.3993 0.9634
C26_23 C 0.92111(10) 0.40736(10) 0.93605(10)
N66_23 N 0.92187(8) 0.43629(8) 0.90607(8)
N67_23 N 0.93629(8) 0.40607(8) 0.92187(8)
N68_26 N 0.84393(8) 0.32813(8) 0.93629(8)
N69_26 N 0.82813(8) 0.31371(8) 0.90607(8)
N70_26 N 0.81371(8) 0.34393(8) 0.92187(8)
C127_23 C 0.98302(11) 0.41723(11) 0.86170(12)
C128_23 C 0.86170(12) 0.48302(11) 0.91723(11)
C129_26 C 0.83277(11) 0.38830(12) 0.98302(11)
C130_26 C 0.76698(11) 0.33277(11) 0.86170(12)
C131_26 C 0.88830(12) 0.26698(11) 0.91723(11)
H77_23 H 0.9936 0.4161 0.8513
H78_23 H 0.8513 0.4936 0.9161
H79_26 H 0.8339 0.3987 0.9936
H80_26 H 0.7564 0.3339 0.8513
H81_26 H 0.8987 0.2564 0.9161
C132_23 C 0.97114(14) 0.43515(12) 0.86236(15)
C133_23 C 0.86236(15) 0.47114(14) 0.93515(12)
C134_26 C 0.81485(12) 0.38764(15) 0.97114(14)
C135_26 C 0.77886(14) 0.31485(12) 0.86236(15)
C136_26 C 0.88764(15) 0.27886(14) 0.93515(12)
H82_23 H 0.9737 0.4462 0.8527
H83_23 H 0.8527 0.4737 0.9462
H84_26 H 0.8038 0.3973 0.9737
H85_26 H 0.7763 0.3038 0.8527
H86_26 H 0.8973 0.2763 0.9462
C137_23 C 0.95545(13) 0.43690(12) 0.87719(13)
C138_23 C 0.87719(13) 0.45545(13) 0.93690(12)
C139_26 C 0.81310(12) 0.37281(13) 0.95545(13)
C140_26 C 0.79455(13) 0.31310(12) 0.87719(13)
C141_26 C 0.87281(13) 0.29455(13) 0.93690(12)
H87_23 H 0.9470 0.4491 0.8780
H88_23 H 0.8780 0.4470 0.9491
H89_26 H 0.8009 0.3720 0.9470
H90_26 H 0.8030 0.3009 0.8780
H91_26 H 0.8720 0.3030 0.9491
C142_23 C 0.95234(10) 0.42016(10) 0.89103(11)
C143_23 C 0.89103(11) 0.45234(10) 0.92016(10)
C144_26 C 0.82984(10) 0.35897(11) 0.95234(10)
C145_26 C 0.79766(10) 0.32984(10) 0.89103(11)
C146_26 C 0.85897(11) 0.29766(10) 0.92016(10)
C147_23 C 0.96526(8) 0.40283(9) 0.88959(9)
C148_23 C 0.88959(9) 0.46526(8) 0.90283(9)
C149_26 C 0.84717(9) 0.36041(9) 0.96526(8)
C150_26 C 0.78474(8) 0.34717(9) 0.88959(9)
C151_26 C 0.86041(9) 0.28474(8) 0.90283(9)
H92_23 H 0.9634 0.3917 0.8993
H93_23 H 0.8993 0.4634 0.8917
H94_26 H 0.8583 0.3507 0.9634
H95_26 H 0.7866 0.3583 0.8993
H96_26 H 0.8507 0.2866 0.8917
C152_23 C 0.90736(10) 0.43605(10) 0.92111(10)
C153_23 C 0.93605(10) 0.42111(10) 0.90736(10)
C154_26 C 0.82889(10) 0.34264(10) 0.93605(10)
C155_26 C 0.84264(10) 0.31395(10) 0.92111(10)
C156_26 C 0.81395(10) 0.32889(10) 0.90736(10)
N10_24 N 0.57813(8) 0.59393(8) 0.06371(8)
C21_24 C 0.63830(12) 0.58277(11) 0.01698(11)
H13_24 H 0.6487 0.5839 0.0064
C22_24 C 0.63764(15) 0.56485(12) 0.02886(14)
H14_24 H 0.6473 0.5538 0.0263
C23_24 C 0.62281(13) 0.56310(12) 0.04455(13)
H15_24 H 0.6220 0.5509 0.0530
C24_24 C 0.60897(11) 0.57984(10) 0.04766(10)
C25_24 C 0.61041(9) 0.59717(9) 0.03474(8)
H16_24 H 0.6007 0.6083 0.0366
C26_24 C 0.59264(10) 0.57889(10) 0.06395(10)
N66_24 N 0.56371(8) 0.57813(8) 0.09393(8)
N67_24 N 0.59393(8) 0.56371(8) 0.07813(8)
N68_27 N 0.67187(8) 0.65607(8) 0.06371(8)
N69_27 N 0.68629(8) 0.67187(8) 0.09393(8)
N70_27 N 0.65607(8) 0.68629(8) 0.07813(8)
C127_24 C 0.58277(11) 0.51698(11) 0.13830(12)
C128_24 C 0.51698(11) 0.63830(12) 0.08277(11)
C129_27 C 0.61170(12) 0.66723(11) 0.01698(11)
C130_27 C 0.66723(11) 0.73302(11) 0.13830(12)
C131_27 C 0.73302(11) 0.61170(12) 0.08277(11)
H77_24 H 0.5839 0.5064 0.1487
H78_24 H 0.5064 0.6487 0.0839
H79_27 H 0.6013 0.6661 0.0064
H80_27 H 0.6661 0.7436 0.1487
H81_27 H 0.7436 0.6013 0.0839
C132_24 C 0.56485(12) 0.52886(14) 0.13764(15)
C133_24 C 0.52886(14) 0.63764(15) 0.06485(12)
C134_27 C 0.61236(15) 0.68515(12) 0.02886(14)
C135_27 C 0.68515(12) 0.72114(14) 0.13764(15)
C136_27 C 0.72114(14) 0.61236(15) 0.06485(12)
H82_24 H 0.5538 0.5263 0.1473
H83_24 H 0.5263 0.6473 0.0538
H84_27 H 0.6027 0.6962 0.0263
H85_27 H 0.6962 0.7237 0.1473
H86_27 H 0.7237 0.6027 0.0538
C137_24 C 0.56310(12) 0.54455(13) 0.12281(13)
C138_24 C 0.54455(13) 0.62281(13) 0.06310(12)
C139_27 C 0.62719(13) 0.68690(12) 0.04455(13)
C140_27 C 0.68690(12) 0.70545(13) 0.12281(13)
C141_27 C 0.70545(13) 0.62719(13) 0.06310(12)
H87_24 H 0.5509 0.5530 0.1220
H88_24 H 0.5530 0.6220 0.0509
H89_27 H 0.6280 0.6991 0.0530
H90_27 H 0.6991 0.6970 0.1220
H91_27 H 0.6970 0.6280 0.0509
C142_24 C 0.57984(10) 0.54766(10) 0.10897(11)
C143_24 C 0.54766(10) 0.60897(11) 0.07984(10)
C144_27 C 0.64103(11) 0.67016(10) 0.04766(10)
C145_27 C 0.67016(10) 0.70234(10) 0.10897(11)
C146_27 C 0.70234(10) 0.64103(11) 0.07984(10)
C147_24 C 0.59717(9) 0.53474(8) 0.11041(9)
C148_24 C 0.53474(8) 0.61041(9) 0.09717(9)
C149_27 C 0.63959(9) 0.65283(9) 0.03474(8)
C150_27 C 0.65283(9) 0.71526(8) 0.11041(9)
C151_27 C 0.71526(8) 0.63959(9) 0.09717(9)
H92_24 H 0.6083 0.5366 0.1007
H93_24 H 0.5366 0.6007 0.1083
H94_27 H 0.6493 0.6417 0.0366
H95_27 H 0.6417 0.7134 0.1007
H96_27 H 0.7134 0.6493 0.1083
C152_24 C 0.56395(10) 0.59264(10) 0.07889(10)
C153_24 C 0.57889(10) 0.56395(10) 0.09264(10)
C154_27 C 0.65736(10) 0.67111(10) 0.06395(10)
C155_27 C 0.68605(10) 0.65736(10) 0.07889(10)
C156_27 C 0.67111(10) 0.68605(10) 0.09264(10)
N10_25 N 0.17187(8) 0.59393(8) 0.68629(8)
C21_25 C 0.11170(12) 0.58277(11) 0.73302(11)
H13_25 H 0.1013 0.5839 0.7436
C22_25 C 0.11236(15) 0.56485(12) 0.72114(14)
H14_25 H 0.1027 0.5538 0.7237
C23_25 C 0.12719(13) 0.56310(12) 0.70545(13)
H15_25 H 0.1280 0.5509 0.6970
C24_25 C 0.14103(11) 0.57984(10) 0.70234(10)
C25_25 C 0.13959(9) 0.59717(9) 0.71526(8)
H16_25 H 0.1493 0.6083 0.7134
C26_25 C 0.15736(10) 0.57889(10) 0.68605(10)
N66_25 N 0.18629(8) 0.57813(8) 0.65607(8)
N67_25 N 0.15607(8) 0.56371(8) 0.67187(8)
C127_25 C 0.16723(11) 0.51698(11) 0.61170(12)
C128_25 C 0.23302(11) 0.63830(12) 0.66723(11)
H77_25 H 0.1661 0.5064 0.6013
H78_25 H 0.2436 0.6487 0.6661
C132_25 C 0.18515(12) 0.52886(14) 0.61236(15)
C133_25 C 0.22114(14) 0.63764(15) 0.68515(12)
H82_25 H 0.1962 0.5263 0.6027
H83_25 H 0.2237 0.6473 0.6962
C137_25 C 0.18690(12) 0.54455(13) 0.62719(13)
C138_25 C 0.20545(13) 0.62281(13) 0.68690(12)
H87_25 H 0.1991 0.5530 0.6280
H88_25 H 0.1970 0.6220 0.6991
C142_25 C 0.17016(10) 0.54766(10) 0.64103(11)
C143_25 C 0.20234(10) 0.60897(11) 0.67016(10)
C147_25 C 0.15283(9) 0.53474(8) 0.63959(9)
C148_25 C 0.21526(8) 0.61041(9) 0.65283(9)
H92_25 H 0.1417 0.5366 0.6493
H93_25 H 0.2134 0.6007 0.6417
C152_25 C 0.18605(10) 0.59264(10) 0.67111(10)
C153_25 C 0.17111(10) 0.56395(10) 0.65736(10)
N10_26 N 0.34393(8) 0.42187(8) 0.31371(8)
C21_26 C 0.33277(11) 0.36170(12) 0.26698(11)
H13_26 H 0.3339 0.3513 0.2564
C22_26 C 0.31485(12) 0.36236(15) 0.27886(14)
H14_26 H 0.3038 0.3527 0.2763
C23_26 C 0.31310(12) 0.37719(13) 0.29455(13)
H15_26 H 0.3009 0.3780 0.3030
C24_26 C 0.32984(10) 0.39103(11) 0.29766(10)
C25_26 C 0.34717(9) 0.38959(9) 0.28474(8)
H16_26 H 0.3583 0.3993 0.2866
C26_26 C 0.32889(10) 0.40736(10) 0.31395(10)
N66_26 N 0.32813(8) 0.43629(8) 0.34393(8)
N67_26 N 0.31371(8) 0.40607(8) 0.32813(8)
C127_26 C 0.26698(11) 0.41723(11) 0.38830(12)
C128_26 C 0.38830(12) 0.48302(11) 0.33277(11)
H77_26 H 0.2564 0.4161 0.3987
H78_26 H 0.3987 0.4936 0.3339
C132_26 C 0.27886(14) 0.43515(12) 0.38764(15)
C133_26 C 0.38764(15) 0.47114(14) 0.31485(12)
H82_26 H 0.2763 0.4462 0.3973
H83_26 H 0.3973 0.4737 0.3038
C137_26 C 0.29455(13) 0.43690(12) 0.37281(13)
C138_26 C 0.37281(13) 0.45545(13) 0.31310(12)
H87_26 H 0.3030 0.4491 0.3720
H88_26 H 0.3720 0.4470 0.3009
C142_26 C 0.29766(10) 0.42016(10) 0.35897(11)
C143_26 C 0.35897(11) 0.45234(10) 0.32984(10)
C147_26 C 0.28474(8) 0.40283(9) 0.36041(9)
C148_26 C 0.36041(9) 0.46526(8) 0.34717(9)
H92_26 H 0.2866 0.3917 0.3507
H93_26 H 0.3507 0.4634 0.3583
C152_26 C 0.34264(10) 0.43605(10) 0.32889(10)
C153_26 C 0.31395(10) 0.42111(10) 0.34264(10)
N10_27 N 0.68629(8) 0.17187(8) 0.59393(8)
C21_27 C 0.73302(11) 0.11170(12) 0.58277(11)
H13_27 H 0.7436 0.1013 0.5839
C22_27 C 0.72114(14) 0.11236(15) 0.56485(12)
H14_27 H 0.7237 0.1027 0.5538
C23_27 C 0.70545(13) 0.12719(13) 0.56310(12)
H15_27 H 0.6970 0.1280 0.5509
C24_27 C 0.70234(10) 0.14103(11) 0.57984(10)
C25_27 C 0.71526(8) 0.13959(9) 0.59717(9)
H16_27 H 0.7134 0.1493 0.6083
C26_27 C 0.68605(10) 0.15736(10) 0.57889(10)
N66_27 N 0.65607(8) 0.18629(8) 0.57813(8)
N67_27 N 0.67187(8) 0.15607(8) 0.56371(8)
C127_27 C 0.61170(12) 0.16723(11) 0.51698(11)
C128_27 C 0.66723(11) 0.23302(11) 0.63830(12)
H77_27 H 0.6013 0.1661 0.5064
H78_27 H 0.6661 0.2436 0.6487
C132_27 C 0.61236(15) 0.18515(12) 0.52886(14)
C133_27 C 0.68515(12) 0.22114(14) 0.63764(15)
H82_27 H 0.6027 0.1962 0.5263
H83_27 H 0.6962 0.2237 0.6473
C137_27 C 0.62719(13) 0.18690(12) 0.54455(13)
C138_27 C 0.68690(12) 0.20545(13) 0.62281(13)
H87_27 H 0.6280 0.1991 0.5530
H88_27 H 0.6991 0.1970 0.6220
C142_27 C 0.64103(11) 0.17016(10) 0.54766(10)
C143_27 C 0.67016(10) 0.20234(10) 0.60897(11)
C147_27 C 0.63959(9) 0.15283(9) 0.53474(8)
C148_27 C 0.65283(9) 0.21526(8) 0.61041(9)
H92_27 H 0.6493 0.1417 0.5366
H93_27 H 0.6417 0.2134 0.6007
C152_27 C 0.67111(10) 0.18605(10) 0.59264(10)
C153_27 C 0.65736(10) 0.17111(10) 0.56395(10)
N10_28 N 0.57813(8) 0.65607(8) 0.18629(8)
C21_28 C 0.63830(12) 0.66723(11) 0.23302(11)
H13_28 H 0.6487 0.6661 0.2436
C22_28 C 0.63764(15) 0.68515(12) 0.22114(14)
H14_28 H 0.6473 0.6962 0.2237
C23_28 C 0.62281(13) 0.68690(12) 0.20545(13)
H15_28 H 0.6220 0.6991 0.1970
C24_28 C 0.60897(11) 0.67016(10) 0.20234(10)
C25_28 C 0.61041(9) 0.65283(9) 0.21526(8)
H16_28 H 0.6007 0.6417 0.2134
C26_28 C 0.59264(10) 0.67111(10) 0.18605(10)
N66_28 N 0.56371(8) 0.67187(8) 0.15607(8)
N67_28 N 0.59393(8) 0.68629(8) 0.17187(8)
N68_28 N 0.67187(8) 0.59393(8) 0.18629(8)
N69_28 N 0.68629(8) 0.57813(8) 0.15607(8)
N70_28 N 0.65607(8) 0.56371(8) 0.17187(8)
C127_28 C 0.58277(11) 0.73302(11) 0.11170(12)
C128_28 C 0.51698(11) 0.61170(12) 0.16723(11)
C129_28 C 0.61170(12) 0.58277(11) 0.23302(11)
C130_28 C 0.66723(11) 0.51698(11) 0.11170(12)
C131_28 C 0.73302(11) 0.63830(12) 0.16723(11)
H77_28 H 0.5839 0.7436 0.1013
H78_28 H 0.5064 0.6013 0.1661
H79_28 H 0.6013 0.5839 0.2436
H80_28 H 0.6661 0.5064 0.1013
H81_28 H 0.7436 0.6487 0.1661
C132_28 C 0.56485(12) 0.72114(14) 0.11236(15)
C133_28 C 0.52886(14) 0.61236(15) 0.18515(12)
C134_28 C 0.61236(15) 0.56485(12) 0.22114(14)
C135_28 C 0.68515(12) 0.52886(14) 0.11236(15)
C136_28 C 0.72114(14) 0.63764(15) 0.18515(12)
H82_28 H 0.5538 0.7237 0.1027
H83_28 H 0.5263 0.6027 0.1962
H84_28 H 0.6027 0.5538 0.2237
H85_28 H 0.6962 0.5263 0.1027
H86_28 H 0.7237 0.6473 0.1962
C137_28 C 0.56310(12) 0.70545(13) 0.12719(13)
C138_28 C 0.54455(13) 0.62719(13) 0.18690(12)
C139_28 C 0.62719(13) 0.56310(12) 0.20545(13)
C140_28 C 0.68690(12) 0.54455(13) 0.12719(13)
C141_28 C 0.70545(13) 0.62281(13) 0.18690(12)
H87_28 H 0.5509 0.6970 0.1280
H88_28 H 0.5530 0.6280 0.1991
H89_28 H 0.6280 0.5509 0.1970
H90_28 H 0.6991 0.5530 0.1280
H91_28 H 0.6970 0.6220 0.1991
C142_28 C 0.57984(10) 0.70234(10) 0.14103(11)
C143_28 C 0.54766(10) 0.64103(11) 0.17016(10)
C144_28 C 0.64103(11) 0.57984(10) 0.20234(10)
C145_28 C 0.67016(10) 0.54766(10) 0.14103(11)
C146_28 C 0.70234(10) 0.60897(11) 0.17016(10)
C147_28 C 0.59717(9) 0.71526(8) 0.13959(9)
C148_28 C 0.53474(8) 0.63959(9) 0.15283(9)
C149_28 C 0.63959(9) 0.59717(9) 0.21526(8)
C150_28 C 0.65283(9) 0.53474(8) 0.13959(9)
C151_28 C 0.71526(8) 0.61041(9) 0.15283(9)
H92_28 H 0.6083 0.7134 0.1493
H93_28 H 0.5366 0.6493 0.1417
H94_28 H 0.6493 0.6083 0.2134
H95_28 H 0.6417 0.5366 0.1493
H96_28 H 0.7134 0.6007 0.1417
C152_28 C 0.56395(10) 0.65736(10) 0.17111(10)
C153_28 C 0.57889(10) 0.68605(10) 0.15736(10)
C154_28 C 0.65736(10) 0.57889(10) 0.18605(10)
C155_28 C 0.68605(10) 0.59264(10) 0.17111(10)
C156_28 C 0.67111(10) 0.56395(10) 0.15736(10)
N68_29 N 0.84393(8) 0.92187(8) 0.31371(8)
N69_29 N 0.82813(8) 0.93629(8) 0.34393(8)
N70_29 N 0.81371(8) 0.90607(8) 0.32813(8)
C129_29 C 0.83277(11) 0.86170(12) 0.26698(11)
C130_29 C 0.76698(11) 0.91723(11) 0.38830(12)
C131_29 C 0.88830(12) 0.98302(11) 0.33277(11)
H79_29 H 0.8339 0.8513 0.2564
H80_29 H 0.7564 0.9161 0.3987
H81_29 H 0.8987 0.9936 0.3339
C134_29 C 0.81485(12) 0.86236(15) 0.27886(14)
C135_29 C 0.77886(14) 0.93515(12) 0.38764(15)
C136_29 C 0.88764(15) 0.97114(14) 0.31485(12)
H84_29 H 0.8038 0.8527 0.2763
H85_29 H 0.7763 0.9462 0.3973
H86_29 H 0.8973 0.9737 0.3038
C139_29 C 0.81310(12) 0.87719(13) 0.29455(13)
C140_29 C 0.79455(13) 0.93690(12) 0.37281(13)
C141_29 C 0.87281(13) 0.95545(13) 0.31310(12)
H89_29 H 0.8009 0.8780 0.3030
H90_29 H 0.8030 0.9491 0.3720
H91_29 H 0.8720 0.9470 0.3009
C144_29 C 0.82984(10) 0.89103(11) 0.29766(10)
C145_29 C 0.79766(10) 0.92016(10) 0.35897(11)
C146_29 C 0.85897(11) 0.95234(10) 0.32984(10)
C149_29 C 0.84717(9) 0.88959(9) 0.28474(8)
C150_29 C 0.78474(8) 0.90283(9) 0.36041(9)
C151_29 C 0.86041(9) 0.96526(8) 0.34717(9)
H94_29 H 0.8583 0.8993 0.2866
H95_29 H 0.7866 0.8917 0.3507
H96_29 H 0.8507 0.9634 0.3583
C154_29 C 0.82889(10) 0.90736(10) 0.31395(10)
C155_29 C 0.84264(10) 0.93605(10) 0.32889(10)
C156_29 C 0.81395(10) 0.92111(10) 0.34264(10)
N68_30 N 0.42187(8) 0.81371(8) 0.84393(8)
N69_30 N 0.43629(8) 0.84393(8) 0.82813(8)
N70_30 N 0.40607(8) 0.82813(8) 0.81371(8)
C129_30 C 0.36170(12) 0.76698(11) 0.83277(11)
C130_30 C 0.41723(11) 0.88830(12) 0.76698(11)
C131_30 C 0.48302(11) 0.83277(11) 0.88830(12)
H79_30 H 0.3513 0.7564 0.8339
H80_30 H 0.4161 0.8987 0.7564
H81_30 H 0.4936 0.8339 0.8987
C134_30 C 0.36236(15) 0.77886(14) 0.81485(12)
C135_30 C 0.43515(12) 0.88764(15) 0.77886(14)
C136_30 C 0.47114(14) 0.81485(12) 0.88764(15)
H84_30 H 0.3527 0.7763 0.8038
H85_30 H 0.4462 0.8973 0.7763
H86_30 H 0.4737 0.8038 0.8973
C139_30 C 0.37719(13) 0.79455(13) 0.81310(12)
C140_30 C 0.43690(12) 0.87281(13) 0.79455(13)
C141_30 C 0.45545(13) 0.81310(12) 0.87281(13)
H89_30 H 0.3780 0.8030 0.8009
H90_30 H 0.4491 0.8720 0.8030
H91_30 H 0.4470 0.8009 0.8720
C144_30 C 0.39103(11) 0.79766(10) 0.82984(10)
C145_30 C 0.42016(10) 0.85897(11) 0.79766(10)
C146_30 C 0.45234(10) 0.82984(10) 0.85897(11)
C149_30 C 0.38959(9) 0.78474(8) 0.84717(9)
C150_30 C 0.40283(9) 0.86041(9) 0.78474(8)
C151_30 C 0.46526(8) 0.84717(9) 0.86041(9)
H94_30 H 0.3993 0.7866 0.8583
H95_30 H 0.3917 0.8507 0.7866
H96_30 H 0.4634 0.8583 0.8507
C154_30 C 0.40736(10) 0.81395(10) 0.82889(10)
C155_30 C 0.43605(10) 0.82889(10) 0.84264(10)
C156_30 C 0.42111(10) 0.84264(10) 0.81395(10)
N68_31 N 0.06371(8) 0.17187(8) 0.15607(8)
N69_31 N 0.09393(8) 0.18629(8) 0.17187(8)
N70_31 N 0.07813(8) 0.15607(8) 0.18629(8)
C129_31 C 0.01698(11) 0.11170(12) 0.16723(11)
C130_31 C 0.13830(12) 0.16723(11) 0.23302(11)
C131_31 C 0.08277(11) 0.23302(11) 0.11170(12)
H79_31 H 0.0064 0.1013 0.1661
H80_31 H 0.1487 0.1661 0.2436
H81_31 H 0.0839 0.2436 0.1013
C134_31 C 0.02886(14) 0.11236(15) 0.18515(12)
C135_31 C 0.13764(15) 0.18515(12) 0.22114(14)
C136_31 C 0.06485(12) 0.22114(14) 0.11236(15)
H84_31 H 0.0263 0.1027 0.1962
H85_31 H 0.1473 0.1962 0.2237
H86_31 H 0.0538 0.2237 0.1027
C139_31 C 0.04455(13) 0.12719(13) 0.18690(12)
C140_31 C 0.12281(13) 0.18690(12) 0.20545(13)
C141_31 C 0.06310(12) 0.20545(13) 0.12719(13)
H89_31 H 0.0530 0.1280 0.1991
H90_31 H 0.1220 0.1991 0.1970
H91_31 H 0.0509 0.1970 0.1280
C144_31 C 0.04766(10) 0.14103(11) 0.17016(10)
C145_31 C 0.10897(11) 0.17016(10) 0.20234(10)
C146_31 C 0.07984(10) 0.20234(10) 0.14103(11)
C149_31 C 0.03474(8) 0.13959(9) 0.15283(9)
C150_31 C 0.11041(9) 0.15283(9) 0.21526(8)
C151_31 C 0.09717(9) 0.21526(8) 0.13959(9)
H94_31 H 0.0366 0.1493 0.1417
H95_31 H 0.1007 0.1417 0.2134
H96_31 H 0.1083 0.2134 0.1493
C154_31 C 0.06395(10) 0.15736(10) 0.17111(10)
C155_31 C 0.07889(10) 0.18605(10) 0.15736(10)
C156_31 C 0.09264(10) 0.17111(10) 0.18605(10)
N68_32 N 0.42187(8) 0.43629(8) 0.40607(8)
N69_32 N 0.43629(8) 0.40607(8) 0.42187(8)
N70_32 N 0.40607(8) 0.42187(8) 0.43629(8)
C129_32 C 0.36170(12) 0.48302(11) 0.41723(11)
C130_32 C 0.41723(11) 0.36170(12) 0.48302(11)
C131_32 C 0.48302(11) 0.41723(11) 0.36170(12)
H79_32 H 0.3513 0.4936 0.4161
H80_32 H 0.4161 0.3513 0.4936
H81_32 H 0.4936 0.4161 0.3513
C134_32 C 0.36236(15) 0.47114(14) 0.43515(12)
C135_32 C 0.43515(12) 0.36236(15) 0.47114(14)
C136_32 C 0.47114(14) 0.43515(12) 0.36236(15)
H84_32 H 0.3527 0.4737 0.4462
H85_32 H 0.4462 0.3527 0.4737
H86_32 H 0.4737 0.4462 0.3527
C139_32 C 0.37719(13) 0.45545(13) 0.43690(12)
C140_32 C 0.43690(12) 0.37719(13) 0.45545(13)
C141_32 C 0.45545(13) 0.43690(12) 0.37719(13)
H89_32 H 0.3780 0.4470 0.4491
H90_32 H 0.4491 0.3780 0.4470
H91_32 H 0.4470 0.4491 0.3780
C144_32 C 0.39103(11) 0.45234(10) 0.42016(10)
C145_32 C 0.42016(10) 0.39103(11) 0.45234(10)
C146_32 C 0.45234(10) 0.42016(10) 0.39103(11)
C149_32 C 0.38959(9) 0.46526(8) 0.40283(9)
C150_32 C 0.40283(9) 0.38959(9) 0.46526(8)
C151_32 C 0.46526(8) 0.40283(9) 0.38959(9)
H94_32 H 0.3993 0.4634 0.3917
H95_32 H 0.3917 0.3993 0.4634
H96_32 H 0.4634 0.3917 0.3993
C154_32 C 0.40736(10) 0.43605(10) 0.42111(10)
C155_32 C 0.43605(10) 0.42111(10) 0.40736(10)
C156_32 C 0.42111(10) 0.40736(10) 0.43605(10)
N68_33 N 0.84393(8) 0.82813(8) 0.43629(8)
N69_33 N 0.82813(8) 0.81371(8) 0.40607(8)
N70_33 N 0.81371(8) 0.84393(8) 0.42187(8)
C129_33 C 0.83277(11) 0.88830(12) 0.48302(11)
C130_33 C 0.76698(11) 0.83277(11) 0.36170(12)
C131_33 C 0.88830(12) 0.76698(11) 0.41723(11)
H79_33 H 0.8339 0.8987 0.4936
H80_33 H 0.7564 0.8339 0.3513
H81_33 H 0.8987 0.7564 0.4161
C134_33 C 0.81485(12) 0.88764(15) 0.47114(14)
C135_33 C 0.77886(14) 0.81485(12) 0.36236(15)
C136_33 C 0.88764(15) 0.77886(14) 0.43515(12)
H84_33 H 0.8038 0.8973 0.4737
H85_33 H 0.7763 0.8038 0.3527
H86_33 H 0.8973 0.7763 0.4462
C139_33 C 0.81310(12) 0.87281(13) 0.45545(13)
C140_33 C 0.79455(13) 0.81310(12) 0.37719(13)
C141_33 C 0.87281(13) 0.79455(13) 0.43690(12)
H89_33 H 0.8009 0.8720 0.4470
H90_33 H 0.8030 0.8009 0.3780
H91_33 H 0.8720 0.8030 0.4491
C144_33 C 0.82984(10) 0.85897(11) 0.45234(10)
C145_33 C 0.79766(10) 0.82984(10) 0.39103(11)
C146_33 C 0.85897(11) 0.79766(10) 0.42016(10)
C149_33 C 0.84717(9) 0.86041(9) 0.46526(8)
C150_33 C 0.78474(8) 0.84717(9) 0.38959(9)
C151_33 C 0.86041(9) 0.78474(8) 0.40283(9)
H94_33 H 0.8583 0.8507 0.4634
H95_33 H 0.7866 0.8583 0.3993
H96_33 H 0.8507 0.7866 0.3917
C154_33 C 0.82889(10) 0.84264(10) 0.43605(10)
C155_33 C 0.84264(10) 0.81395(10) 0.42111(10)
C156_33 C 0.81395(10) 0.82889(10) 0.40736(10)
N10_29 N 0.57813(8) 0.09393(8) 0.56371(8)
C21_29 C 0.63830(12) 0.08277(11) 0.51698(11)
H13_29 H 0.6487 0.0839 0.5064
C22_29 C 0.63764(15) 0.06485(12) 0.52886(14)
H14_29 H 0.6473 0.0538 0.5263
C23_29 C 0.62281(13) 0.06310(12) 0.54455(13)
H15_29 H 0.6220 0.0509 0.5530
C24_29 C 0.60897(11) 0.07984(10) 0.54766(10)
C25_29 C 0.61041(9) 0.09717(9) 0.53474(8)
H16_29 H 0.6007 0.1083 0.5366
C26_29 C 0.59264(10) 0.07889(10) 0.56395(10)
N66_29 N 0.56371(8) 0.07813(8) 0.59393(8)
N67_29 N 0.59393(8) 0.06371(8) 0.57813(8)
C127_29 C 0.58277(11) 0.01698(11) 0.63830(12)
C128_29 C 0.51698(11) 0.13830(12) 0.58277(11)
H77_29 H 0.5839 0.0064 0.6487
H78_29 H 0.5064 0.1487 0.5839
C132_29 C 0.56485(12) 0.02886(14) 0.63764(15)
C133_29 C 0.52886(14) 0.13764(15) 0.56485(12)
H82_29 H 0.5538 0.0263 0.6473
H83_29 H 0.5263 0.1473 0.5538
C137_29 C 0.56310(12) 0.04455(13) 0.62281(13)
C138_29 C 0.54455(13) 0.12281(13) 0.56310(12)
H87_29 H 0.5509 0.0530 0.6220
H88_29 H 0.5530 0.1220 0.5509
C142_29 C 0.57984(10) 0.04766(10) 0.60897(11)
C143_29 C 0.54766(10) 0.10897(11) 0.57984(10)
C147_29 C 0.59717(9) 0.03474(8) 0.61041(9)
C148_29 C 0.53474(8) 0.11041(9) 0.59717(9)
H92_29 H 0.6083 0.0366 0.6007
H93_29 H 0.5366 0.1007 0.6083
C152_29 C 0.56395(10) 0.09264(10) 0.57889(10)
C153_29 C 0.57889(10) 0.06395(10) 0.59264(10)
N68_34 N 0.17187(8) 0.65607(8) 0.56371(8)
N69_34 N 0.18629(8) 0.67187(8) 0.59393(8)
N70_34 N 0.15607(8) 0.68629(8) 0.57813(8)
C129_34 C 0.11170(12) 0.66723(11) 0.51698(11)
C130_34 C 0.16723(11) 0.73302(11) 0.63830(12)
C131_34 C 0.23302(11) 0.61170(12) 0.58277(11)
H79_34 H 0.1013 0.6661 0.5064
H80_34 H 0.1661 0.7436 0.6487
H81_34 H 0.2436 0.6013 0.5839
C134_34 C 0.11236(15) 0.68515(12) 0.52886(14)
C135_34 C 0.18515(12) 0.72114(14) 0.63764(15)
C136_34 C 0.22114(14) 0.61236(15) 0.56485(12)
H84_34 H 0.1027 0.6962 0.5263
H85_34 H 0.1962 0.7237 0.6473
H86_34 H 0.2237 0.6027 0.5538
C139_34 C 0.12719(13) 0.68690(12) 0.54455(13)
C140_34 C 0.18690(12) 0.70545(13) 0.62281(13)
C141_34 C 0.20545(13) 0.62719(13) 0.56310(12)
H89_34 H 0.1280 0.6991 0.5530
H90_34 H 0.1991 0.6970 0.6220
H91_34 H 0.1970 0.6280 0.5509
C144_34 C 0.14103(11) 0.67016(10) 0.54766(10)
C145_34 C 0.17016(10) 0.70234(10) 0.60897(11)
C146_34 C 0.20234(10) 0.64103(11) 0.57984(10)
C149_34 C 0.13959(9) 0.65283(9) 0.53474(8)
C150_34 C 0.15283(9) 0.71526(8) 0.61041(9)
C151_34 C 0.21526(8) 0.63959(9) 0.59717(9)
H94_34 H 0.1493 0.6417 0.5366
H95_34 H 0.1417 0.7134 0.6007
H96_34 H 0.2134 0.6493 0.6083
C154_34 C 0.15736(10) 0.67111(10) 0.56395(10)
C155_34 C 0.18605(10) 0.65736(10) 0.57889(10)
C156_34 C 0.17111(10) 0.68605(10) 0.59264(10)
N10_30 N 0.18629(8) 0.17187(8) 0.09393(8)
C21_30 C 0.23302(11) 0.11170(12) 0.08277(11)
H13_30 H 0.2436 0.1013 0.0839
C22_30 C 0.22114(14) 0.11236(15) 0.06485(12)
H14_30 H 0.2237 0.1027 0.0538
C23_30 C 0.20545(13) 0.12719(13) 0.06310(12)
H15_30 H 0.1970 0.1280 0.0509
C24_30 C 0.20234(10) 0.14103(11) 0.07984(10)
C25_30 C 0.21526(8) 0.13959(9) 0.09717(9)
H16_30 H 0.2134 0.1493 0.1083
C26_30 C 0.18605(10) 0.15736(10) 0.07889(10)
N66_30 N 0.15607(8) 0.18629(8) 0.07813(8)
N67_30 N 0.17187(8) 0.15607(8) 0.06371(8)
C127_30 C 0.11170(12) 0.16723(11) 0.01698(11)
C128_30 C 0.16723(11) 0.23302(11) 0.13830(12)
H77_30 H 0.1013 0.1661 0.0064
H78_30 H 0.1661 0.2436 0.1487
C132_30 C 0.11236(15) 0.18515(12) 0.02886(14)
C133_30 C 0.18515(12) 0.22114(14) 0.13764(15)
H82_30 H 0.1027 0.1962 0.0263
H83_30 H 0.1962 0.2237 0.1473
C137_30 C 0.12719(13) 0.18690(12) 0.04455(13)
C138_30 C 0.18690(12) 0.20545(13) 0.12281(13)
H87_30 H 0.1280 0.1991 0.0530
H88_30 H 0.1991 0.1970 0.1220
C142_30 C 0.14103(11) 0.17016(10) 0.04766(10)
C143_30 C 0.17016(10) 0.20234(10) 0.10897(11)
C147_30 C 0.13959(9) 0.15283(9) 0.03474(8)
C148_30 C 0.15283(9) 0.21526(8) 0.11041(9)
H92_30 H 0.1493 0.1417 0.0366
H93_30 H 0.1417 0.2134 0.1007
C152_30 C 0.17111(10) 0.18605(10) 0.09264(10)
C153_30 C 0.15736(10) 0.17111(10) 0.06395(10)
loop_
_geom_bond_atom_site_label_1
_geom_bond_atom_site_label_2
_geom_bond_site_symmetry_1
_geom_bond_site_symmetry_2
Co4 N14 1_555 1_555
Co6 N23 1_555 1_555
Co10 N19 1_555 1_555
Co13 N52 1_555 1_555
S3 C27 1_555 1_555
S6 C30 1_555 1_555
S11 C35 1_555 1_555
S12 C36 1_555 1_555
N11 Co1 1_555 1_555
N14 C30 1_555 1_555
N19 C35 1_555 1_555
N20 Co10 1_555 1_555
N22 Co1 1_555 1_555
N23 C39 1_555 1_555
N26 Co4 1_555 1_555
N29 Co4 1_555 1_555
N30 Co1 1_555 1_555
N36 C88 1_555 1_555
N37 C89 1_555 1_555
N41 C88 1_555 1_555
N42 C89 1_555 1_555
N46 C93 1_555 1_555
N47 C94 1_555 1_555
N51 Co10 1_555 1_555
N52 C104 1_555 1_555
N56 Co10 1_555 1_555
N64 Co10 1_555 1_555
N65 Co10 1_555 1_555
C27 N11 1_555 1_555
C36 N20 1_555 1_555
C38 N22 1_555 1_555
C39 H19 1_555 1_555
H18 C38 1_555 1_555
C43 C38 1_555 1_555
C44 C39 1_555 1_555
H23 C43 1_555 1_555
H24 C44 1_555 1_555
C48 C43 1_555 1_555
C49 C44 1_555 1_555
H28 C48 1_555 1_555
H29 C49 1_555 1_555
C53 C48 1_555 1_555
C54 C49 1_555 1_555
C58 N22 1_555 1_555
C59 N23 1_555 1_555
H33 C58 1_555 1_555
H34 C59 1_555 1_555
C63 N29 1_555 1_555
C64 N30 1_555 1_555
H38 C63 1_555 1_555
H39 C64 1_555 1_555
C68 C63 1_555 1_555
C69 C64 1_555 1_555
H43 C68 1_555 1_555
H44 C69 1_555 1_555
C73 C68 1_555 1_555
C74 C69 1_555 1_555
H48 C73 1_555 1_555
H49 C74 1_555 1_555
C78 C73 1_555 1_555
C79 C74 1_555 1_555
C83 N29 1_555 1_555
C84 N30 1_555 1_555
H53 C83 1_555 1_555
H54 C84 1_555 1_555
C88 C78 1_555 1_555
C89 C79 1_555 1_555
C93 N36 1_555 1_555
C94 N37 1_555 1_555
C98 N41 1_555 1_555
C99 N42 1_555 1_555
C103 N51 1_555 1_555
C104 H59 1_555 1_555
H58 C103 1_555 1_555
C108 C98 1_555 1_555
C109 C99 1_555 1_555
C113 C108 1_555 1_555
C114 C109 1_555 1_555
H63 C113 1_555 1_555
H64 C114 1_555 1_555
C118 C113 1_555 1_555
C119 C114 1_555 1_555
H68 C118 1_555 1_555
H69 C119 1_555 1_555
C123 N51 1_555 1_555
C124 N52 1_555 1_555
H73 C123 1_555 1_555
H74 C124 1_555 1_555
N46 C98 1_555 1_555
N47 C99 1_555 1_555
C53 C58 1_555 1_555
C53 C93 1_555 1_555
C54 C59 1_555 1_555
C54 C94 1_555 1_555
C78 C83 1_555 1_555
C79 C84 1_555 1_555
C103 C108 1_555 1_555
C104 C109 1_555 1_555
C118 C123 1_555 1_555
C119 C124 1_555 1_555
S7 C31 1_555 1_555
N15 Co4_2 1_555 1_555
N27 Co4_2 1_555 1_555
N34 Co4_2 1_555 1_555
C31 N15 1_555 1_555
Co1_2 N1 1_555 1_555
Co2 N2 1_555 1_555
S1 C1 1_555 1_555
S2 C2 1_555 1_555
N1 C1 1_555 1_555
N2 C2 1_555 1_555
N3 C3 1_555 1_555
N4 Co1_2 1_555 1_555
N5 C13 1_555 1_555
N6 C13 1_555 1_555
N7 C14 1_555 1_555
N8 Co2 1_555 1_555
N9 Co2 1_555 1_555
N10 C26 1_555 1_555
C3 H1 1_555 1_555
C4 C3 1_555 1_555
H2 C4 1_555 1_555
C5 C4 1_555 1_555
H3 C5 1_555 1_555
C6 C5 1_555 1_555
C7 N3 1_555 1_555
H4 C7 1_555 1_555
C8 N4 1_555 1_555
H5 C8 1_555 1_555
C9 C8 1_555 1_555
H6 C9 1_555 1_555
C10 C9 1_555 1_555
H7 C10 1_555 1_555
C11 C10 1_555 1_555
C12 N4 1_555 1_555
H8 C12 1_555 1_555
C13 C11 1_555 1_555
C14 N5 1_555 1_555
C15 N6 1_555 1_555
C16 N8 1_555 1_555
H9 C16 1_555 1_555
C17 C15 1_555 1_555
C18 C17 1_555 1_555
H10 C18 1_555 1_555
C19 C18 1_555 1_555
H11 C19 1_555 1_555
C20 N8 1_555 1_555
H12 C20 1_555 1_555
C21 N9 1_555 1_555
H13 C21 1_555 1_555
C22 C21 1_555 1_555
H14 C22 1_555 1_555
C23 C22 1_555 1_555
H15 C23 1_555 1_555
C24 C23 1_555 1_555
C25 N9 1_555 1_555
H16 C25 1_555 1_555
C26 C24 1_555 1_555
Co3 N12 1_555 1_555
Co5 N3 1_555 1_555
Co7 N31 1_555 1_555
Co8 N32 1_555 1_555
Co9 N17 1_555 1_555
Co11 N57 1_555 1_555
Co12 N58 1_555 1_555
Co15 N61 1_555 1_555
Co16 N54 1_555 1_555
S4 C28 1_555 1_555
S5 C29 1_555 1_555
S8 C32 1_555 1_555
N12 C28 1_555 1_555
N13 Co3 1_555 1_555
N16 Co2 1_555 1_555
N18 Co9 1_555 1_555
N21 Co1_2 1_555 1_555
N24 Co3 1_555 1_555
N25 Co3 1_555 1_555
N28 Co3 1_555 1_555
N31 C65 1_555 1_555
N32 C66 1_555 1_555
N33 Co3 1_555 1_555
N35 C87 1_555 1_555
N38 C90 1_555 1_555
N39 C91 1_555 1_555
N40 C87 1_555 1_555
N43 C90 1_555 1_555
N44 C91 1_555 1_555
N45 C92 1_555 1_555
N48 C95 1_555 1_555
N49 C96 1_555 1_555
N50 Co9 1_555 1_555
N53 Co2 1_555 1_555
N54 C106 1_555 1_555
N55 Co9 1_555 1_555
N57 C127 1_555 1_555
N58 C128 1_555 1_555
N59 Co2 1_555 1_555
N60 C130 1_555 1_555
N61 C131 1_555 1_555
N66 C152 1_555 1_555
N67 C26 1_555 1_555
N68 C154 1_555 1_555
N69 C155 1_555 1_555
N70 C154 1_555 1_555
C29 N13 1_555 1_555
C32 N16 1_555 1_555
C37 N21 1_555 1_555
C40 N24 1_555 1_555
C41 N25 1_555 1_555
H17 C37 1_555 1_555
H20 C40 1_555 1_555
H21 C41 1_555 1_555
C42 C37 1_555 1_555
C45 C40 1_555 1_555
C46 C41 1_555 1_555
H22 C42 1_555 1_555
H25 C45 1_555 1_555
H26 C46 1_555 1_555
C47 C42 1_555 1_555
C50 C45 1_555 1_555
C51 C46 1_555 1_555
H27 C47 1_555 1_555
H30 C50 1_555 1_555
H31 C51 1_555 1_555
C52 C47 1_555 1_555
C55 C50 1_555 1_555
C56 C51 1_555 1_555
C57 N21 1_555 1_555
C60 N24 1_555 1_555
C61 N25 1_555 1_555
H32 C57 1_555 1_555
H35 C60 1_555 1_555
H36 C61 1_555 1_555
C62 N28 1_555 1_555
C65 H40 1_555 1_555
C66 H41 1_555 1_555
H37 C62 1_555 1_555
C67 C62 1_555 1_555
C70 C65 1_555 1_555
C71 C66 1_555 1_555
H42 C67 1_555 1_555
H45 C70 1_555 1_555
H46 C71 1_555 1_555
C72 C67 1_555 1_555
C75 C70 1_555 1_555
C76 C71 1_555 1_555
H47 C72 1_555 1_555
H50 C75 1_555 1_555
H51 C76 1_555 1_555
C77 C72 1_555 1_555
C80 C75 1_555 1_555
C81 C76 1_555 1_555
C82 N28 1_555 1_555
C85 N31 1_555 1_555
C86 N32 1_555 1_555
H52 C82 1_555 1_555
H55 C85 1_555 1_555
H56 C86 1_555 1_555
C87 C77 1_555 1_555
C90 C80 1_555 1_555
C91 C81 1_555 1_555
C92 N35 1_555 1_555
C95 N38 1_555 1_555
C96 N39 1_555 1_555
C97 N40 1_555 1_555
C100 N43 1_555 1_555
C101 N44 1_555 1_555
C102 N50 1_555 1_555
C105 N53 1_555 1_555
C106 H61 1_555 1_555
H57 C102 1_555 1_555
H60 C105 1_555 1_555
C107 C97 1_555 1_555
C110 C100 1_555 1_555
C111 C101 1_555 1_555
C112 C107 1_555 1_555
C115 C110 1_555 1_555
C116 C111 1_555 1_555
H62 C112 1_555 1_555
H65 C115 1_555 1_555
H66 C116 1_555 1_555
C117 C112 1_555 1_555
C120 C115 1_555 1_555
C121 C116 1_555 1_555
H67 C117 1_555 1_555
H70 C120 1_555 1_555
H71 C121 1_555 1_555
C122 N50 1_555 1_555
C125 N53 1_555 1_555
C126 N54 1_555 1_555
H72 C122 1_555 1_555
H75 C125 1_555 1_555
H76 C126 1_555 1_555
C127 H77 1_555 1_555
C128 H78 1_555 1_555
C129 N59 1_555 1_555
C130 H80 1_555 1_555
C131 H81 1_555 1_555
H79 C129 1_555 1_555
C132 C127 1_555 1_555
C133 C128 1_555 1_555
C134 C129 1_555 1_555
C135 C130 1_555 1_555
C136 C131 1_555 1_555
H82 C132 1_555 1_555
H83 C133 1_555 1_555
H84 C134 1_555 1_555
H85 C135 1_555 1_555
H86 C136 1_555 1_555
C137 C132 1_555 1_555
C138 C133 1_555 1_555
C139 C134 1_555 1_555
C140 C135 1_555 1_555
C141 C136 1_555 1_555
H87 C137 1_555 1_555
H88 C138 1_555 1_555
H89 C139 1_555 1_555
H90 C140 1_555 1_555
H91 C141 1_555 1_555
C142 C137 1_555 1_555
C143 C138 1_555 1_555
C144 C139 1_555 1_555
C145 C140 1_555 1_555
C146 C141 1_555 1_555
C147 N57 1_555 1_555
C148 N58 1_555 1_555
C149 N59 1_555 1_555
C150 N60 1_555 1_555
C151 N61 1_555 1_555
H92 C147 1_555 1_555
H93 C148 1_555 1_555
H94 C149 1_555 1_555
H95 C150 1_555 1_555
H96 C151 1_555 1_555
C152 N10 1_555 1_555
C153 N66 1_555 1_555
C154 C144 1_555 1_555
C155 N68 1_555 1_555
C156 N69 1_555 1_555
N7 C15 1_555 1_555
C6 C7 1_555 1_555
C6 C14 1_555 1_555
C11 C12 1_555 1_555
C16 C17 1_555 1_555
C19 C20 1_555 1_555
C24 C25 1_555 1_555
N45 C97 1_555 1_555
N48 C100 1_555 1_555
N49 C101 1_555 1_555
N67 C153 1_555 1_555
N70 C156 1_555 1_555
C52 C57 1_555 1_555
C52 C92 1_555 1_555
C55 C60 1_555 1_555
C55 C95 1_555 1_555
C56 C61 1_555 1_555
C56 C96 1_555 1_555
C77 C82 1_555 1_555
C80 C85 1_555 1_555
C81 C86 1_555 1_555
C102 C107 1_555 1_555
C105 C110 1_555 1_555
C106 C111 1_555 1_555
C117 C122 1_555 1_555
C120 C125 1_555 1_555
C121 C126 1_555 1_555
C142 C147 1_555 1_555
C142 C153 1_555 1_555
C143 C148 1_555 1_555
C143 C152 1_555 1_555
C144 C149 1_555 1_555
C145 C150 1_555 1_555
C145 C156 1_555 1_555
C146 C151 1_555 1_555
C146 C155 1_555 1_555
S9 C33 1_555 1_555
S10 C34 1_555 1_555
Co1_3 N1_2 1_555 1_555
Co2_2 N2_2 1_555 1_555
S1_2 C1_2 1_555 1_555
S2_2 C2_2 1_555 1_555
N1_2 C1_2 1_555 1_555
N2_2 C2_2 1_555 1_555
N3_2 C3_2 1_555 1_555
N4_2 Co1_3 1_555 1_555
N5_2 C13_2 1_555 1_555
N6_2 C13_2 1_555 1_555
N7_2 C14_2 1_555 1_555
N8_2 Co2_2 1_555 1_555
N9_2 Co2_2 1_555 1_555
N10_2 C26_2 1_555 1_555
C3_2 H1_2 1_555 1_555
C4_2 C3_2 1_555 1_555
H2_2 C4_2 1_555 1_555
C5_2 C4_2 1_555 1_555
H3_2 C5_2 1_555 1_555
C6_2 C5_2 1_555 1_555
C7_2 N3_2 1_555 1_555
H4_2 C7_2 1_555 1_555
C8_2 N4_2 1_555 1_555
H5_2 C8_2 1_555 1_555
C9_2 C8_2 1_555 1_555
H6_2 C9_2 1_555 1_555
C10_2 C9_2 1_555 1_555
H7_2 C10_2 1_555 1_555
C11_2 C10_2 1_555 1_555
C12_2 N4_2 1_555 1_555
H8_2 C12_2 1_555 1_555
C13_2 C11_2 1_555 1_555
C14_2 N5_2 1_555 1_555
C15_2 N6_2 1_555 1_555
C16_2 N8_2 1_555 1_555
H9_2 C16_2 1_555 1_555
C17_2 C15_2 1_555 1_555
C18_2 C17_2 1_555 1_555
H10_2 C18_2 1_555 1_555
C19_2 C18_2 1_555 1_555
H11_2 C19_2 1_555 1_555
C20_2 N8_2 1_555 1_555
H12_2 C20_2 1_555 1_555
C21_2 N9_2 1_555 1_555
H13_2 C21_2 1_555 1_555
C22_2 C21_2 1_555 1_555
H14_2 C22_2 1_555 1_555
C23_2 C22_2 1_555 1_555
H15_2 C23_2 1_555 1_555
C24_2 C23_2 1_555 1_555
C25_2 N9_2 1_555 1_555
H16_2 C25_2 1_555 1_555
C26_2 C24_2 1_555 1_555
Co3_2 N12_2 1_555 1_555
Co4_3 N14_2 1_555 1_555
Co5_2 N3_2 1_555 1_555
Co6_2 N23_2 1_555 1_555
Co7_2 N31_2 1_555 1_555
Co8_2 N32_2 1_555 1_555
Co9_2 N17_2 1_555 1_555
Co10_2 N19_2 1_555 1_555
Co16 N58_2 1_555 1_555
Co11 N52_2 1_555 1_555
Co14_2 N60_2 1_555 1_555
Co15_2 N61_2 1_555 1_555
Co16_2 N54_2 1_555 1_555
S3_2 C27_2 1_555 1_555
S4_2 C28_2 1_555 1_555
S5_2 C29_2 1_555 1_555
S6_2 C30_2 1_555 1_555
S7_2 C31_2 1_555 1_555
S8_2 C32_2 1_555 1_555
S9_2 C33_2 1_555 1_555
S10_2 C34_2 1_555 1_555
S11_2 C35_2 1_555 1_555
S12_2 C36_2 1_555 1_555
N11_2 Co1_3 1_555 1_555
N12_2 C28_2 1_555 1_555
N13_2 Co3_2 1_555 1_555
N14_2 C30_2 1_555 1_555
N15_2 Co4_3 1_555 1_555
N16_2 Co2_2 1_555 1_555
N17_2 C33_2 1_555 1_555
N18_2 Co9_2 1_555 1_555
N19_2 C35_2 1_555 1_555
N20_2 Co10_2 1_555 1_555
N21_2 Co1_3 1_555 1_555
N22_2 Co1_3 1_555 1_555
N23_2 C39_2 1_555 1_555
N24_2 Co3_2 1_555 1_555
N25_2 Co3_2 1_555 1_555
N26_2 Co4_3 1_555 1_555
N27_2 Co4_3 1_555 1_555
N28_2 Co3_2 1_555 1_555
N29_2 Co4_3 1_555 1_555
N30_2 Co1_3 1_555 1_555
N31_2 C65_2 1_555 1_555
N32_2 C66_2 1_555 1_555
N33_2 Co3_2 1_555 1_555
N34_2 Co4_3 1_555 1_555
N35_2 C87_2 1_555 1_555
N36_2 C88_2 1_555 1_555
N37_2 C89_2 1_555 1_555
N38_2 C90_2 1_555 1_555
N39_2 C91_2 1_555 1_555
N40_2 C87_2 1_555 1_555
N41_2 C88_2 1_555 1_555
N42_2 C89_2 1_555 1_555
N43_2 C90_2 1_555 1_555
N44_2 C91_2 1_555 1_555
N45_2 C92_2 1_555 1_555
N46_2 C93_2 1_555 1_555
N47_2 C94_2 1_555 1_555
N48_2 C95_2 1_555 1_555
N49_2 C96_2 1_555 1_555
N50_2 Co9_2 1_555 1_555
N51_2 Co10_2 1_555 1_555
N52_2 C104_2 1_555 1_555
N53_2 Co2_2 1_555 1_555
N54_2 C106_2 1_555 1_555
N55_2 Co9_2 1_555 1_555
N56_2 Co10_2 1_555 1_555
N57_2 C127_2 1_555 1_555
N58_2 C128_2 1_555 1_555
N59_2 Co2_2 1_555 1_555
N60_2 C130_2 1_555 1_555
N61_2 C131_2 1_555 1_555
N62_2 Co9_2 1_555 1_555
N63_2 Co9_2 1_555 1_555
N64_2 Co10_2 1_555 1_555
N65_2 Co10_2 1_555 1_555
N66_2 C152_2 1_555 1_555
N67_2 C26_2 1_555 1_555
N68_2 C154_2 1_555 1_555
N69_2 C155_2 1_555 1_555
N70_2 C154_2 1_555 1_555
C27_2 N11_2 1_555 1_555
C29_2 N13_2 1_555 1_555
C31_2 N15_2 1_555 1_555
C32_2 N16_2 1_555 1_555
C34_2 N18_2 1_555 1_555
C36_2 N20_2 1_555 1_555
C37_2 N21_2 1_555 1_555
C38_2 N22_2 1_555 1_555
C39_2 H19_2 1_555 1_555
C40_2 N24_2 1_555 1_555
C41_2 N25_2 1_555 1_555
H17_2 C37_2 1_555 1_555
H18_2 C38_2 1_555 1_555
H20_2 C40_2 1_555 1_555
H21_2 C41_2 1_555 1_555
C42_2 C37_2 1_555 1_555
C43_2 C38_2 1_555 1_555
C44_2 C39_2 1_555 1_555
C45_2 C40_2 1_555 1_555
C46_2 C41_2 1_555 1_555
H22_2 C42_2 1_555 1_555
H23_2 C43_2 1_555 1_555
H24_2 C44_2 1_555 1_555
H25_2 C45_2 1_555 1_555
H26_2 C46_2 1_555 1_555
C47_2 C42_2 1_555 1_555
C48_2 C43_2 1_555 1_555
C49_2 C44_2 1_555 1_555
C50_2 C45_2 1_555 1_555
C51_2 C46_2 1_555 1_555
H27_2 C47_2 1_555 1_555
H28_2 C48_2 1_555 1_555
H29_2 C49_2 1_555 1_555
H30_2 C50_2 1_555 1_555
H31_2 C51_2 1_555 1_555
C52_2 C47_2 1_555 1_555
C53_2 C48_2 1_555 1_555
C54_2 C49_2 1_555 1_555
C55_2 C50_2 1_555 1_555
C56_2 C51_2 1_555 1_555
C57_2 N21_2 1_555 1_555
C58_2 N22_2 1_555 1_555
C59_2 N23_2 1_555 1_555
C60_2 N24_2 1_555 1_555
C61_2 N25_2 1_555 1_555
H32_2 C57_2 1_555 1_555
H33_2 C58_2 1_555 1_555
H34_2 C59_2 1_555 1_555
H35_2 C60_2 1_555 1_555
H36_2 C61_2 1_555 1_555
C62_2 N28_2 1_555 1_555
C63_2 N29_2 1_555 1_555
C64_2 N30_2 1_555 1_555
C65_2 H40_2 1_555 1_555
C66_2 H41_2 1_555 1_555
H37_2 C62_2 1_555 1_555
H38_2 C63_2 1_555 1_555
H39_2 C64_2 1_555 1_555
C67_2 C62_2 1_555 1_555
C68_2 C63_2 1_555 1_555
C69_2 C64_2 1_555 1_555
C70_2 C65_2 1_555 1_555
C71_2 C66_2 1_555 1_555
H42_2 C67_2 1_555 1_555
H43_2 C68_2 1_555 1_555
H44_2 C69_2 1_555 1_555
H45_2 C70_2 1_555 1_555
H46_2 C71_2 1_555 1_555
C72_2 C67_2 1_555 1_555
C73_2 C68_2 1_555 1_555
C74_2 C69_2 1_555 1_555
C75_2 C70_2 1_555 1_555
C76_2 C71_2 1_555 1_555
H47_2 C72_2 1_555 1_555
H48_2 C73_2 1_555 1_555
H49_2 C74_2 1_555 1_555
H50_2 C75_2 1_555 1_555
H51_2 C76_2 1_555 1_555
C77_2 C72_2 1_555 1_555
C78_2 C73_2 1_555 1_555
C79_2 C74_2 1_555 1_555
C80_2 C75_2 1_555 1_555
C81_2 C76_2 1_555 1_555
C82_2 N28_2 1_555 1_555
C83_2 N29_2 1_555 1_555
C84_2 N30_2 1_555 1_555
C85_2 N31_2 1_555 1_555
C86_2 N32_2 1_555 1_555
H52_2 C82_2 1_555 1_555
H53_2 C83_2 1_555 1_555
H54_2 C84_2 1_555 1_555
H55_2 C85_2 1_555 1_555
H56_2 C86_2 1_555 1_555
C87_2 C77_2 1_555 1_555
C88_2 C78_2 1_555 1_555
C89_2 C79_2 1_555 1_555
C90_2 C80_2 1_555 1_555
C91_2 C81_2 1_555 1_555
C92_2 N35_2 1_555 1_555
C93_2 N36_2 1_555 1_555
C94_2 N37_2 1_555 1_555
C95_2 N38_2 1_555 1_555
C96_2 N39_2 1_555 1_555
C97_2 N40_2 1_555 1_555
C98_2 N41_2 1_555 1_555
C99_2 N42_2 1_555 1_555
C100_2 N43_2 1_555 1_555
C101_2 N44_2 1_555 1_555
C102_2 N50_2 1_555 1_555
C103_2 N51_2 1_555 1_555
C104_2 H59_2 1_555 1_555
C105_2 N53_2 1_555 1_555
C106_2 H61_2 1_555 1_555
H57_2 C102_2 1_555 1_555
H58_2 C103_2 1_555 1_555
H60_2 C105_2 1_555 1_555
C107_2 C97_2 1_555 1_555
C108_2 C98_2 1_555 1_555
C109_2 C99_2 1_555 1_555
C110_2 C100_2 1_555 1_555
C111_2 C101_2 1_555 1_555
C112_2 C107_2 1_555 1_555
C113_2 C108_2 1_555 1_555
C114_2 C109_2 1_555 1_555
C115_2 C110_2 1_555 1_555
C116_2 C111_2 1_555 1_555
H62_2 C112_2 1_555 1_555
H63_2 C113_2 1_555 1_555
H64_2 C114_2 1_555 1_555
H65_2 C115_2 1_555 1_555
H66_2 C116_2 1_555 1_555
C117_2 C112_2 1_555 1_555
C118_2 C113_2 1_555 1_555
C119_2 C114_2 1_555 1_555
C120_2 C115_2 1_555 1_555
C121_2 C116_2 1_555 1_555
H67_2 C117_2 1_555 1_555
H68_2 C118_2 1_555 1_555
H69_2 C119_2 1_555 1_555
H70_2 C120_2 1_555 1_555
H71_2 C121_2 1_555 1_555
C122_2 N50_2 1_555 1_555
C123_2 N51_2 1_555 1_555
C124_2 N52_2 1_555 1_555
C125_2 N53_2 1_555 1_555
C126_2 N54_2 1_555 1_555
H72_2 C122_2 1_555 1_555
H73_2 C123_2 1_555 1_555
H74_2 C124_2 1_555 1_555
H75_2 C125_2 1_555 1_555
H76_2 C126_2 1_555 1_555
C127_2 H77_2 1_555 1_555
C128_2 H78_2 1_555 1_555
C129_2 N59_2 1_555 1_555
C130_2 H80_2 1_555 1_555
C131_2 H81_2 1_555 1_555
H79_2 C129_2 1_555 1_555
C132_2 C127_2 1_555 1_555
C133_2 C128_2 1_555 1_555
C134_2 C129_2 1_555 1_555
C135_2 C130_2 1_555 1_555
C136_2 C131_2 1_555 1_555
H82_2 C132_2 1_555 1_555
H83_2 C133_2 1_555 1_555
H84_2 C134_2 1_555 1_555
H85_2 C135_2 1_555 1_555
H86_2 C136_2 1_555 1_555
C137_2 C132_2 1_555 1_555
C138_2 C133_2 1_555 1_555
C139_2 C134_2 1_555 1_555
C140_2 C135_2 1_555 1_555
C141_2 C136_2 1_555 1_555
H87_2 C137_2 1_555 1_555
H88_2 C138_2 1_555 1_555
H89_2 C139_2 1_555 1_555
H90_2 C140_2 1_555 1_555
H91_2 C141_2 1_555 1_555
C142_2 C137_2 1_555 1_555
C143_2 C138_2 1_555 1_555
C144_2 C139_2 1_555 1_555
C145_2 C140_2 1_555 1_555
C146_2 C141_2 1_555 1_555
C147_2 N57_2 1_555 1_555
C148_2 N58_2 1_555 1_555
C149_2 N59_2 1_555 1_555
C150_2 N60_2 1_555 1_555
C151_2 N61_2 1_555 1_555
H92_2 C147_2 1_555 1_555
H93_2 C148_2 1_555 1_555
H94_2 C149_2 1_555 1_555
H95_2 C150_2 1_555 1_555
H96_2 C151_2 1_555 1_555
C152_2 N10_2 1_555 1_555
C153_2 N66_2 1_555 1_555
C154_2 C144_2 1_555 1_555
C155_2 N68_2 1_555 1_555
C156_2 N69_2 1_555 1_555
N7_2 C15_2 1_555 1_555
C6_2 C7_2 1_555 1_555
C6_2 C14_2 1_555 1_555
C11_2 C12_2 1_555 1_555
C16_2 C17_2 1_555 1_555
C19_2 C20_2 1_555 1_555
C24_2 C25_2 1_555 1_555
N45_2 C97_2 1_555 1_555
N46_2 C98_2 1_555 1_555
N47_2 C99_2 1_555 1_555
N48_2 C100_2 1_555 1_555
N49_2 C101_2 1_555 1_555
N67_2 C153_2 1_555 1_555
N70_2 C156_2 1_555 1_555
C52_2 C57_2 1_555 1_555
C52_2 C92_2 1_555 1_555
C53_2 C58_2 1_555 1_555
C53_2 C93_2 1_555 1_555
C54_2 C59_2 1_555 1_555
C54_2 C94_2 1_555 1_555
C55_2 C60_2 1_555 1_555
C55_2 C95_2 1_555 1_555
C56_2 C61_2 1_555 1_555
C56_2 C96_2 1_555 1_555
C77_2 C82_2 1_555 1_555
C78_2 C83_2 1_555 1_555
C79_2 C84_2 1_555 1_555
C80_2 C85_2 1_555 1_555
C81_2 C86_2 1_555 1_555
C102_2 C107_2 1_555 1_555
C103_2 C108_2 1_555 1_555
C104_2 C109_2 1_555 1_555
C105_2 C110_2 1_555 1_555
C106_2 C111_2 1_555 1_555
C117_2 C122_2 1_555 1_555
C118_2 C123_2 1_555 1_555
C119_2 C124_2 1_555 1_555
C120_2 C125_2 1_555 1_555
C121_2 C126_2 1_555 1_555
C142_2 C147_2 1_555 1_555
C142_2 C153_2 1_555 1_555
C143_2 C148_2 1_555 1_555
C143_2 C152_2 1_555 1_555
C144_2 C149_2 1_555 1_555
C145_2 C150_2 1_555 1_555
C145_2 C156_2 1_555 1_555
C146_2 C151_2 1_555 1_555
C146_2 C155_2 1_555 1_555
S7_3 C31_3 1_555 1_555
S9_3 C33_3 1_555 1_555
S10_3 C34_3 1_555 1_555
N15_3 Co4_4 1_555 1_555
N27_3 Co4_4 1_555 1_555
N34_3 Co4_4 1_555 1_555
C31_3 N15_3 1_555 1_555
Co1_4 N1_3 1_555 1_555
Co2_3 N2_3 1_555 1_555
S1_3 C1_3 1_555 1_555
S2_3 C2_3 1_555 1_555
N1_3 C1_3 1_555 1_555
N2_3 C2_3 1_555 1_555
N3_3 C3_3 1_555 1_555
N4_3 Co1_4 1_555 1_555
N5_3 C13_3 1_555 1_555
N6_3 C13_3 1_555 1_555
N7_3 C14_3 1_555 1_555
N8_3 Co2_3 1_555 1_555
N9_3 Co2_3 1_555 1_555
N10_3 C26_3 1_555 1_555
C3_3 H1_3 1_555 1_555
C4_3 C3_3 1_555 1_555
H2_3 C4_3 1_555 1_555
C5_3 C4_3 1_555 1_555
H3_3 C5_3 1_555 1_555
C6_3 C5_3 1_555 1_555
C7_3 N3_3 1_555 1_555
H4_3 C7_3 1_555 1_555
C8_3 N4_3 1_555 1_555
H5_3 C8_3 1_555 1_555
C9_3 C8_3 1_555 1_555
H6_3 C9_3 1_555 1_555
C10_3 C9_3 1_555 1_555
H7_3 C10_3 1_555 1_555
C11_3 C10_3 1_555 1_555
C12_3 N4_3 1_555 1_555
H8_3 C12_3 1_555 1_555
C13_3 C11_3 1_555 1_555
C14_3 N5_3 1_555 1_555
C15_3 N6_3 1_555 1_555
C16_3 N8_3 1_555 1_555
H9_3 C16_3 1_555 1_555
C17_3 C15_3 1_555 1_555
C18_3 C17_3 1_555 1_555
H10_3 C18_3 1_555 1_555
C19_3 C18_3 1_555 1_555
H11_3 C19_3 1_555 1_555
C20_3 N8_3 1_555 1_555
H12_3 C20_3 1_555 1_555
C21_3 N9_3 1_555 1_555
H13_3 C21_3 1_555 1_555
C22_3 C21_3 1_555 1_555
H14_3 C22_3 1_555 1_555
C23_3 C22_3 1_555 1_555
H15_3 C23_3 1_555 1_555
C24_3 C23_3 1_555 1_555
C25_3 N9_3 1_555 1_555
H16_3 C25_3 1_555 1_555
C26_3 C24_3 1_555 1_555
Co3_3 N12_3 1_555 1_555
Co4_5 N14_3 1_555 1_555
Co5_3 N3_3 1_555 1_555
Co6_3 N23_3 1_555 1_555
Co7_4 N31_3 1_555 1_555
Co8_3 N32_3 1_555 1_555
Co9_3 N17_3 1_555 1_555
Co10_3 N19_3 1_555 1_555
Co11_3 N57_3 1_555 1_555
Co12_2 N58_3 1_555 1_555
Co13_2 N52_3 1_555 1_555
Co14_3 N60_3 1_555 1_555
Co15_3 N61_3 1_555 1_555
Co16_3 N54_3 1_555 1_555
S3_3 C27_3 1_555 1_555
S4_3 C28_3 1_555 1_555
S5_3 C29_3 1_555 1_555
S6_3 C30_3 1_555 1_555
S8_3 C32_3 1_555 1_555
S11_3 C35_3 1_555 1_555
S12_3 C36_3 1_555 1_555
N11_3 Co1_4 1_555 1_555
N12_3 C28_3 1_555 1_555
N13_3 Co3_3 1_555 1_555
N14_3 C30_3 1_555 1_555
N16_3 Co2_3 1_555 1_555
N18_3 Co9_3 1_555 1_555
N19_3 C35_3 1_555 1_555
N20_3 Co10_3 1_555 1_555
N21_3 Co1_4 1_555 1_555
N22_3 Co1_4 1_555 1_555
N23_3 C39_3 1_555 1_555
N24_3 Co3_3 1_555 1_555
N25_3 Co3_3 1_555 1_555
N26_3 Co4_5 1_555 1_555
N28_3 Co3_3 1_555 1_555
N29_3 Co4_5 1_555 1_555
N30_3 Co1_4 1_555 1_555
N31_3 C65_3 1_555 1_555
N32_3 C66_3 1_555 1_555
N33_3 Co3_3 1_555 1_555
N35_3 C87_3 1_555 1_555
N36_3 C88_3 1_555 1_555
N37_3 C89_3 1_555 1_555
N38_3 C90_3 1_555 1_555
N39_3 C91_3 1_555 1_555
N40_3 C87_3 1_555 1_555
N41_3 C88_3 1_555 1_555
N42_3 C89_3 1_555 1_555
N43_3 C90_3 1_555 1_555
N44_3 C91_3 1_555 1_555
N45_3 C92_3 1_555 1_555
N46_3 C93_3 1_555 1_555
N47_3 C94_3 1_555 1_555
N48_3 C95_3 1_555 1_555
N49_3 C96_3 1_555 1_555
N50_3 Co9_3 1_555 1_555
N51_3 Co10_3 1_555 1_555
N52_3 C104_3 1_555 1_555
N53_3 Co2_3 1_555 1_555
N54_3 C106_3 1_555 1_555
N55_3 Co9_3 1_555 1_555
N56_3 Co10_3 1_555 1_555
N57_3 C127_3 1_555 1_555
N58_3 C128_3 1_555 1_555
N59_3 Co2_3 1_555 1_555
N60_3 C130_3 1_555 1_555
N61_3 C131_3 1_555 1_555
N64_3 Co10_3 1_555 1_555
N65_3 Co10_3 1_555 1_555
N66_3 C152_3 1_555 1_555
N67_3 C26_3 1_555 1_555
N68_3 C154_3 1_555 1_555
N69_3 C155_3 1_555 1_555
N70_3 C154_3 1_555 1_555
C27_3 N11_3 1_555 1_555
C29_3 N13_3 1_555 1_555
C32_3 N16_3 1_555 1_555
C36_3 N20_3 1_555 1_555
C37_3 N21_3 1_555 1_555
C38_3 N22_3 1_555 1_555
C39_3 H19_3 1_555 1_555
C40_3 N24_3 1_555 1_555
C41_3 N25_3 1_555 1_555
H17_3 C37_3 1_555 1_555
H18_3 C38_3 1_555 1_555
H20_3 C40_3 1_555 1_555
H21_3 C41_3 1_555 1_555
C42_3 C37_3 1_555 1_555
C43_3 C38_3 1_555 1_555
C44_3 C39_3 1_555 1_555
C45_3 C40_3 1_555 1_555
C46_3 C41_3 1_555 1_555
H22_3 C42_3 1_555 1_555
H23_3 C43_3 1_555 1_555
H24_3 C44_3 1_555 1_555
H25_3 C45_3 1_555 1_555
H26_3 C46_3 1_555 1_555
C47_3 C42_3 1_555 1_555
C48_3 C43_3 1_555 1_555
C49_3 C44_3 1_555 1_555
C50_3 C45_3 1_555 1_555
C51_3 C46_3 1_555 1_555
H27_3 C47_3 1_555 1_555
H28_3 C48_3 1_555 1_555
H29_3 C49_3 1_555 1_555
H30_3 C50_3 1_555 1_555
H31_3 C51_3 1_555 1_555
C52_3 C47_3 1_555 1_555
C53_3 C48_3 1_555 1_555
C54_3 C49_3 1_555 1_555
C55_3 C50_3 1_555 1_555
C56_3 C51_3 1_555 1_555
C57_3 N21_3 1_555 1_555
C58_3 N22_3 1_555 1_555
C59_3 N23_3 1_555 1_555
C60_3 N24_3 1_555 1_555
C61_3 N25_3 1_555 1_555
H32_3 C57_3 1_555 1_555
H33_3 C58_3 1_555 1_555
H34_3 C59_3 1_555 1_555
H35_3 C60_3 1_555 1_555
H36_3 C61_3 1_555 1_555
C62_3 N28_3 1_555 1_555
C63_3 N29_3 1_555 1_555
C64_3 N30_3 1_555 1_555
C65_3 H40_3 1_555 1_555
C66_3 H41_3 1_555 1_555
H37_3 C62_3 1_555 1_555
H38_3 C63_3 1_555 1_555
H39_3 C64_3 1_555 1_555
C67_3 C62_3 1_555 1_555
C68_3 C63_3 1_555 1_555
C69_3 C64_3 1_555 1_555
C70_3 C65_3 1_555 1_555
C71_3 C66_3 1_555 1_555
H42_3 C67_3 1_555 1_555
H43_3 C68_3 1_555 1_555
H44_3 C69_3 1_555 1_555
H45_3 C70_3 1_555 1_555
H46_3 C71_3 1_555 1_555
C72_3 C67_3 1_555 1_555
C73_3 C68_3 1_555 1_555
C74_3 C69_3 1_555 1_555
C75_3 C70_3 1_555 1_555
C76_3 C71_3 1_555 1_555
H47_3 C72_3 1_555 1_555
H48_3 C73_3 1_555 1_555
H49_3 C74_3 1_555 1_555
H50_3 C75_3 1_555 1_555
H51_3 C76_3 1_555 1_555
C77_3 C72_3 1_555 1_555
C78_3 C73_3 1_555 1_555
C79_3 C74_3 1_555 1_555
C80_3 C75_3 1_555 1_555
C81_3 C76_3 1_555 1_555
C82_3 N28_3 1_555 1_555
C83_3 N29_3 1_555 1_555
C84_3 N30_3 1_555 1_555
C85_3 N31_3 1_555 1_555
C86_3 N32_3 1_555 1_555
H52_3 C82_3 1_555 1_555
H53_3 C83_3 1_555 1_555
H54_3 C84_3 1_555 1_555
H55_3 C85_3 1_555 1_555
H56_3 C86_3 1_555 1_555
C87_3 C77_3 1_555 1_555
C88_3 C78_3 1_555 1_555
C89_3 C79_3 1_555 1_555
C90_3 C80_3 1_555 1_555
C91_3 C81_3 1_555 1_555
C92_3 N35_3 1_555 1_555
C93_3 N36_3 1_555 1_555
C94_3 N37_3 1_555 1_555
C95_3 N38_3 1_555 1_555
C96_3 N39_3 1_555 1_555
C97_3 N40_3 1_555 1_555
C98_3 N41_3 1_555 1_555
C99_3 N42_3 1_555 1_555
C100_3 N43_3 1_555 1_555
C101_3 N44_3 1_555 1_555
C102_3 N50_3 1_555 1_555
C103_3 N51_3 1_555 1_555
C104_3 H59_3 1_555 1_555
C105_3 N53_3 1_555 1_555
C106_3 H61_3 1_555 1_555
H57_3 C102_3 1_555 1_555
H58_3 C103_3 1_555 1_555
H60_3 C105_3 1_555 1_555
C107_3 C97_3 1_555 1_555
C108_3 C98_3 1_555 1_555
C109_3 C99_3 1_555 1_555
C110_3 C100_3 1_555 1_555
C111_3 C101_3 1_555 1_555
C112_3 C107_3 1_555 1_555
C113_3 C108_3 1_555 1_555
C114_3 C109_3 1_555 1_555
C115_3 C110_3 1_555 1_555
C116_3 C111_3 1_555 1_555
H62_3 C112_3 1_555 1_555
H63_3 C113_3 1_555 1_555
H64_3 C114_3 1_555 1_555
H65_3 C115_3 1_555 1_555
H66_3 C116_3 1_555 1_555
C117_3 C112_3 1_555 1_555
C118_3 C113_3 1_555 1_555
C119_3 C114_3 1_555 1_555
C120_3 C115_3 1_555 1_555
C121_3 C116_3 1_555 1_555
H67_3 C117_3 1_555 1_555
H68_3 C118_3 1_555 1_555
H69_3 C119_3 1_555 1_555
H70_3 C120_3 1_555 1_555
H71_3 C121_3 1_555 1_555
C122_3 N50_3 1_555 1_555
C123_3 N51_3 1_555 1_555
C124_3 N52_3 1_555 1_555
C125_3 N53_3 1_555 1_555
C126_3 N54_3 1_555 1_555
H72_3 C122_3 1_555 1_555
H73_3 C123_3 1_555 1_555
H74_3 C124_3 1_555 1_555
H75_3 C125_3 1_555 1_555
H76_3 C126_3 1_555 1_555
C127_3 H77_3 1_555 1_555
C128_3 H78_3 1_555 1_555
C129_3 N59_3 1_555 1_555
C130_3 H80_3 1_555 1_555
C131_3 H81_3 1_555 1_555
H79_3 C129_3 1_555 1_555
C132_3 C127_3 1_555 1_555
C133_3 C128_3 1_555 1_555
C134_3 C129_3 1_555 1_555
C135_3 C130_3 1_555 1_555
C136_3 C131_3 1_555 1_555
H82_3 C132_3 1_555 1_555
H83_3 C133_3 1_555 1_555
H84_3 C134_3 1_555 1_555
H85_3 C135_3 1_555 1_555
H86_3 C136_3 1_555 1_555
C137_3 C132_3 1_555 1_555
C138_3 C133_3 1_555 1_555
C139_3 C134_3 1_555 1_555
C140_3 C135_3 1_555 1_555
C141_3 C136_3 1_555 1_555
H87_3 C137_3 1_555 1_555
H88_3 C138_3 1_555 1_555
H89_3 C139_3 1_555 1_555
H90_3 C140_3 1_555 1_555
H91_3 C141_3 1_555 1_555
C142_3 C137_3 1_555 1_555
C143_3 C138_3 1_555 1_555
C144_3 C139_3 1_555 1_555
C145_3 C140_3 1_555 1_555
C146_3 C141_3 1_555 1_555
C147_3 N57_3 1_555 1_555
C148_3 N58_3 1_555 1_555
C149_3 N59_3 1_555 1_555
C150_3 N60_3 1_555 1_555
C151_3 N61_3 1_555 1_555
H92_3 C147_3 1_555 1_555
H93_3 C148_3 1_555 1_555
H94_3 C149_3 1_555 1_555
H95_3 C150_3 1_555 1_555
H96_3 C151_3 1_555 1_555
C152_3 N10_3 1_555 1_555
C153_3 N66_3 1_555 1_555
C154_3 C144_3 1_555 1_555
C155_3 N68_3 1_555 1_555
C156_3 N69_3 1_555 1_555
N7_3 C15_3 1_555 1_555
C6_3 C7_3 1_555 1_555
C6_3 C14_3 1_555 1_555
C11_3 C12_3 1_555 1_555
C16_3 C17_3 1_555 1_555
C19_3 C20_3 1_555 1_555
C24_3 C25_3 1_555 1_555
N45_3 C97_3 1_555 1_555
N46_3 C98_3 1_555 1_555
N47_3 C99_3 1_555 1_555
N48_3 C100_3 1_555 1_555
N49_3 C101_3 1_555 1_555
N67_3 C153_3 1_555 1_555
N70_3 C156_3 1_555 1_555
C52_3 C57_3 1_555 1_555
C52_3 C92_3 1_555 1_555
C53_3 C58_3 1_555 1_555
C53_3 C93_3 1_555 1_555
C54_3 C59_3 1_555 1_555
C54_3 C94_3 1_555 1_555
C55_3 C60_3 1_555 1_555
C55_3 C95_3 1_555 1_555
C56_3 C61_3 1_555 1_555
C56_3 C96_3 1_555 1_555
C77_3 C82_3 1_555 1_555
C78_3 C83_3 1_555 1_555
C79_3 C84_3 1_555 1_555
C80_3 C85_3 1_555 1_555
C81_3 C86_3 1_555 1_555
C102_3 C107_3 1_555 1_555
C103_3 C108_3 1_555 1_555
C104_3 C109_3 1_555 1_555
C105_3 C110_3 1_555 1_555
C106_3 C111_3 1_555 1_555
C117_3 C122_3 1_555 1_555
C118_3 C123_3 1_555 1_555
C119_3 C124_3 1_555 1_555
C120_3 C125_3 1_555 1_555
C121_3 C126_3 1_555 1_555
C142_3 C147_3 1_555 1_555
C142_3 C153_3 1_555 1_555
C143_3 C148_3 1_555 1_555
C143_3 C152_3 1_555 1_555
C144_3 C149_3 1_555 1_555
C145_3 C150_3 1_555 1_555
C145_3 C156_3 1_555 1_555
C146_3 C151_3 1_555 1_555
C146_3 C155_3 1_555 1_555
S7_4 C31_4 1_555 1_555
S9_4 C33_4 1_555 1_555
S10_4 C34_4 1_555 1_555
N15_4 Co4_6 1_555 1_555
N27_4 Co4_6 1_555 1_555
N34_4 Co4_6 1_555 1_555
C31_4 N15_4 1_555 1_555
Co1_5 N1_4 1_555 1_555
Co2_4 N2_4 1_555 1_555
S1_4 C1_4 1_555 1_555
S2_4 C2_4 1_555 1_555
N1_4 C1_4 1_555 1_555
N2_4 C2_4 1_555 1_555
N3_4 C3_4 1_555 1_555
N4_4 Co1_5 1_555 1_555
N5_4 C13_4 1_555 1_555
N6_4 C13_4 1_555 1_555
N7_4 C14_4 1_555 1_555
N8_4 Co2_4 1_555 1_555
N9_4 Co2_4 1_555 1_555
N10_4 C26_4 1_555 1_555
C3_4 H1_4 1_555 1_555
C4_4 C3_4 1_555 1_555
H2_4 C4_4 1_555 1_555
C5_4 C4_4 1_555 1_555
H3_4 C5_4 1_555 1_555
C6_4 C5_4 1_555 1_555
C7_4 N3_4 1_555 1_555
H4_4 C7_4 1_555 1_555
C8_4 N4_4 1_555 1_555
H5_4 C8_4 1_555 1_555
C9_4 C8_4 1_555 1_555
H6_4 C9_4 1_555 1_555
C10_4 C9_4 1_555 1_555
H7_4 C10_4 1_555 1_555
C11_4 C10_4 1_555 1_555
C12_4 N4_4 1_555 1_555
H8_4 C12_4 1_555 1_555
C13_4 C11_4 1_555 1_555
C14_4 N5_4 1_555 1_555
C15_4 N6_4 1_555 1_555
C16_4 N8_4 1_555 1_555
H9_4 C16_4 1_555 1_555
C17_4 C15_4 1_555 1_555
C18_4 C17_4 1_555 1_555
H10_4 C18_4 1_555 1_555
C19_4 C18_4 1_555 1_555
H11_4 C19_4 1_555 1_555
C20_4 N8_4 1_555 1_555
H12_4 C20_4 1_555 1_555
C21_4 N9_4 1_555 1_555
H13_4 C21_4 1_555 1_555
C22_4 C21_4 1_555 1_555
H14_4 C22_4 1_555 1_555
C23_4 C22_4 1_555 1_555
H15_4 C23_4 1_555 1_555
C24_4 C23_4 1_555 1_555
C25_4 N9_4 1_555 1_555
H16_4 C25_4 1_555 1_555
C26_4 C24_4 1_555 1_555
Co3_4 N12_4 1_555 1_555
Co4_7 N14_4 1_555 1_555
Co5_4 N3_4 1_555 1_555
Co6_4 N23_4 1_555 1_555
Co7_5 N31_4 1_555 1_555
Co9_4 N17_4 1_555 1_555
Co10_4 N19_4 1_555 1_555
Co12_3 N58_4 1_555 1_555
Co13_3 N52_4 1_555 1_555
Co14_4 N60_4 1_555 1_555
S3_4 C27_4 1_555 1_555
S4_4 C28_4 1_555 1_555
S6_4 C30_4 1_555 1_555
S8_4 C32_4 1_555 1_555
N11_4 Co1_5 1_555 1_555
N12_4 C28_4 1_555 1_555
N14_4 C30_4 1_555 1_555
N16_4 Co2_4 1_555 1_555
N18_4 Co9_4 1_555 1_555
N20_4 Co10_4 1_555 1_555
N21_4 Co1_5 1_555 1_555
N22_4 Co1_5 1_555 1_555
N23_4 C39_4 1_555 1_555
N24_4 Co3_4 1_555 1_555
N26_4 Co4_7 1_555 1_555
N28_4 Co3_4 1_555 1_555
N29_4 Co4_7 1_555 1_555
N30_4 Co1_5 1_555 1_555
N31_4 C65_4 1_555 1_555
N35_4 C87_4 1_555 1_555
N36_4 C88_4 1_555 1_555
N37_4 C89_4 1_555 1_555
N38_4 C90_4 1_555 1_555
N40_4 C87_4 1_555 1_555
N41_4 C88_4 1_555 1_555
N42_4 C89_4 1_555 1_555
N43_4 C90_4 1_555 1_555
N45_4 C92_4 1_555 1_555
N46_4 C93_4 1_555 1_555
N47_4 C94_4 1_555 1_555
N48_4 C95_4 1_555 1_555
N50_4 Co9_4 1_555 1_555
N51_4 Co10_4 1_555 1_555
N52_4 C104_4 1_555 1_555
N53_4 Co2_4 1_555 1_555
N55_4 Co9_4 1_555 1_555
N56_4 Co10_4 1_555 1_555
N57_4 C127_4 1_555 1_555
N58_4 C128_4 1_555 1_555
N59_4 Co2_4 1_555 1_555
N60_4 C130_4 1_555 1_555
N61_4 C131_4 1_555 1_555
N66_4 C152_4 1_555 1_555
N67_4 C26_4 1_555 1_555
N68_4 C154_4 1_555 1_555
N69_4 C155_4 1_555 1_555
N70_4 C154_4 1_555 1_555
C27_4 N11_4 1_555 1_555
C32_4 N16_4 1_555 1_555
C37_4 N21_4 1_555 1_555
C38_4 N22_4 1_555 1_555
C39_4 H19_4 1_555 1_555
C40_4 N24_4 1_555 1_555
H17_4 C37_4 1_555 1_555
H18_4 C38_4 1_555 1_555
H20_4 C40_4 1_555 1_555
C42_4 C37_4 1_555 1_555
C43_4 C38_4 1_555 1_555
C44_4 C39_4 1_555 1_555
C45_4 C40_4 1_555 1_555
H22_4 C42_4 1_555 1_555
H23_4 C43_4 1_555 1_555
H24_4 C44_4 1_555 1_555
H25_4 C45_4 1_555 1_555
C47_4 C42_4 1_555 1_555
C48_4 C43_4 1_555 1_555
C49_4 C44_4 1_555 1_555
C50_4 C45_4 1_555 1_555
H27_4 C47_4 1_555 1_555
H28_4 C48_4 1_555 1_555
H29_4 C49_4 1_555 1_555
H30_4 C50_4 1_555 1_555
C52_4 C47_4 1_555 1_555
C53_4 C48_4 1_555 1_555
C54_4 C49_4 1_555 1_555
C55_4 C50_4 1_555 1_555
C57_4 N21_4 1_555 1_555
C58_4 N22_4 1_555 1_555
C59_4 N23_4 1_555 1_555
C60_4 N24_4 1_555 1_555
H32_4 C57_4 1_555 1_555
H33_4 C58_4 1_555 1_555
H34_4 C59_4 1_555 1_555
H35_4 C60_4 1_555 1_555
C62_4 N28_4 1_555 1_555
C63_4 N29_4 1_555 1_555
C64_4 N30_4 1_555 1_555
C65_4 H40_4 1_555 1_555
H37_4 C62_4 1_555 1_555
H38_4 C63_4 1_555 1_555
H39_4 C64_4 1_555 1_555
C67_4 C62_4 1_555 1_555
C68_4 C63_4 1_555 1_555
C69_4 C64_4 1_555 1_555
C70_4 C65_4 1_555 1_555
H42_4 C67_4 1_555 1_555
H43_4 C68_4 1_555 1_555
H44_4 C69_4 1_555 1_555
H45_4 C70_4 1_555 1_555
C72_4 C67_4 1_555 1_555
C73_4 C68_4 1_555 1_555
C74_4 C69_4 1_555 1_555
C75_4 C70_4 1_555 1_555
H47_4 C72_4 1_555 1_555
H48_4 C73_4 1_555 1_555
H49_4 C74_4 1_555 1_555
H50_4 C75_4 1_555 1_555
C77_4 C72_4 1_555 1_555
C78_4 C73_4 1_555 1_555
C79_4 C74_4 1_555 1_555
C80_4 C75_4 1_555 1_555
C82_4 N28_4 1_555 1_555
C83_4 N29_4 1_555 1_555
C84_4 N30_4 1_555 1_555
C85_4 N31_4 1_555 1_555
H52_4 C82_4 1_555 1_555
H53_4 C83_4 1_555 1_555
H54_4 C84_4 1_555 1_555
H55_4 C85_4 1_555 1_555
C87_4 C77_4 1_555 1_555
C88_4 C78_4 1_555 1_555
C89_4 C79_4 1_555 1_555
C90_4 C80_4 1_555 1_555
C92_4 N35_4 1_555 1_555
C93_4 N36_4 1_555 1_555
C94_4 N37_4 1_555 1_555
C95_4 N38_4 1_555 1_555
C97_4 N40_4 1_555 1_555
C98_4 N41_4 1_555 1_555
C99_4 N42_4 1_555 1_555
C100_4 N43_4 1_555 1_555
C102_4 N50_4 1_555 1_555
C103_4 N51_4 1_555 1_555
C104_4 H59_4 1_555 1_555
C105_4 N53_4 1_555 1_555
H57_4 C102_4 1_555 1_555
H58_4 C103_4 1_555 1_555
H60_4 C105_4 1_555 1_555
C107_4 C97_4 1_555 1_555
C108_4 C98_4 1_555 1_555
C109_4 C99_4 1_555 1_555
C110_4 C100_4 1_555 1_555
C112_4 C107_4 1_555 1_555
C113_4 C108_4 1_555 1_555
C114_4 C109_4 1_555 1_555
C115_4 C110_4 1_555 1_555
H62_4 C112_4 1_555 1_555
H63_4 C113_4 1_555 1_555
H64_4 C114_4 1_555 1_555
H65_4 C115_4 1_555 1_555
C117_4 C112_4 1_555 1_555
C118_4 C113_4 1_555 1_555
C119_4 C114_4 1_555 1_555
C120_4 C115_4 1_555 1_555
H67_4 C117_4 1_555 1_555
H68_4 C118_4 1_555 1_555
H69_4 C119_4 1_555 1_555
H70_4 C120_4 1_555 1_555
C122_4 N50_4 1_555 1_555
C123_4 N51_4 1_555 1_555
C124_4 N52_4 1_555 1_555
C125_4 N53_4 1_555 1_555
H72_4 C122_4 1_555 1_555
H73_4 C123_4 1_555 1_555
H74_4 C124_4 1_555 1_555
H75_4 C125_4 1_555 1_555
C127_4 H77_4 1_555 1_555
C128_4 H78_4 1_555 1_555
C129_4 N59_4 1_555 1_555
C130_4 H80_4 1_555 1_555
C131_4 H81_4 1_555 1_555
H79_4 C129_4 1_555 1_555
C132_4 C127_4 1_555 1_555
C133_4 C128_4 1_555 1_555
C134_4 C129_4 1_555 1_555
C135_4 C130_4 1_555 1_555
C136_4 C131_4 1_555 1_555
H82_4 C132_4 1_555 1_555
H83_4 C133_4 1_555 1_555
H84_4 C134_4 1_555 1_555
H85_4 C135_4 1_555 1_555
H86_4 C136_4 1_555 1_555
C137_4 C132_4 1_555 1_555
C138_4 C133_4 1_555 1_555
C139_4 C134_4 1_555 1_555
C140_4 C135_4 1_555 1_555
C141_4 C136_4 1_555 1_555
H87_4 C137_4 1_555 1_555
H88_4 C138_4 1_555 1_555
H89_4 C139_4 1_555 1_555
H90_4 C140_4 1_555 1_555
H91_4 C141_4 1_555 1_555
C142_4 C137_4 1_555 1_555
C143_4 C138_4 1_555 1_555
C144_4 C139_4 1_555 1_555
C145_4 C140_4 1_555 1_555
C146_4 C141_4 1_555 1_555
C147_4 N57_4 1_555 1_555
C148_4 N58_4 1_555 1_555
C149_4 N59_4 1_555 1_555
C150_4 N60_4 1_555 1_555
C151_4 N61_4 1_555 1_555
H92_4 C147_4 1_555 1_555
H93_4 C148_4 1_555 1_555
H94_4 C149_4 1_555 1_555
H95_4 C150_4 1_555 1_555
H96_4 C151_4 1_555 1_555
C152_4 N10_4 1_555 1_555
C153_4 N66_4 1_555 1_555
C154_4 C144_4 1_555 1_555
C155_4 N68_4 1_555 1_555
C156_4 N69_4 1_555 1_555
N7_4 C15_4 1_555 1_555
C6_4 C7_4 1_555 1_555
C6_4 C14_4 1_555 1_555
C11_4 C12_4 1_555 1_555
C16_4 C17_4 1_555 1_555
C19_4 C20_4 1_555 1_555
C24_4 C25_4 1_555 1_555
N45_4 C97_4 1_555 1_555
N46_4 C98_4 1_555 1_555
N47_4 C99_4 1_555 1_555
N48_4 C100_4 1_555 1_555
N67_4 C153_4 1_555 1_555
N70_4 C156_4 1_555 1_555
C52_4 C57_4 1_555 1_555
C52_4 C92_4 1_555 1_555
C53_4 C58_4 1_555 1_555
C53_4 C93_4 1_555 1_555
C54_4 C59_4 1_555 1_555
C54_4 C94_4 1_555 1_555
C55_4 C60_4 1_555 1_555
C55_4 C95_4 1_555 1_555
C77_4 C82_4 1_555 1_555
C78_4 C83_4 1_555 1_555
C79_4 C84_4 1_555 1_555
C80_4 C85_4 1_555 1_555
C102_4 C107_4 1_555 1_555
C103_4 C108_4 1_555 1_555
C104_4 C109_4 1_555 1_555
C105_4 C110_4 1_555 1_555
C117_4 C122_4 1_555 1_555
C118_4 C123_4 1_555 1_555
C119_4 C124_4 1_555 1_555
C120_4 C125_4 1_555 1_555
C142_4 C147_4 1_555 1_555
C142_4 C153_4 1_555 1_555
C143_4 C148_4 1_555 1_555
C143_4 C152_4 1_555 1_555
C144_4 C149_4 1_555 1_555
C145_4 C150_4 1_555 1_555
C145_4 C156_4 1_555 1_555
C146_4 C151_4 1_555 1_555
C146_4 C155_4 1_555 1_555
Co8_4 N32_4 1_555 1_555
Co16_4 N54_4 1_555 1_555
S5_4 C29_4 1_555 1_555
S11_4 C35_4 1_555 1_555
S12_4 C36_4 1_555 1_555
N13_4 Co3_5 1_555 1_555
N25_4 Co3_5 1_555 1_555
N32_4 C66_4 1_555 1_555
N33_4 Co3_5 1_555 1_555
N39_4 C91_4 1_555 1_555
N44_4 C91_4 1_555 1_555
N49_4 C96_4 1_555 1_555
N54_4 C106_4 1_555 1_555
C29_4 N13_4 1_555 1_555
C41_4 N25_4 1_555 1_555
H21_4 C41_4 1_555 1_555
C46_4 C41_4 1_555 1_555
H26_4 C46_4 1_555 1_555
C51_4 C46_4 1_555 1_555
H31_4 C51_4 1_555 1_555
C56_4 C51_4 1_555 1_555
C61_4 N25_4 1_555 1_555
H36_4 C61_4 1_555 1_555
C66_4 H41_4 1_555 1_555
C71_4 C66_4 1_555 1_555
H46_4 C71_4 1_555 1_555
C76_4 C71_4 1_555 1_555
H51_4 C76_4 1_555 1_555
C81_4 C76_4 1_555 1_555
C86_4 N32_4 1_555 1_555
H56_4 C86_4 1_555 1_555
C91_4 C81_4 1_555 1_555
C96_4 N39_4 1_555 1_555
C101_4 N44_4 1_555 1_555
C106_4 H61_4 1_555 1_555
C111_4 C101_4 1_555 1_555
C116_4 C111_4 1_555 1_555
H66_4 C116_4 1_555 1_555
C121_4 C116_4 1_555 1_555
H71_4 C121_4 1_555 1_555
C126_4 N54_4 1_555 1_555
H76_4 C126_4 1_555 1_555
N49_4 C101_4 1_555 1_555
C56_4 C61_4 1_555 1_555
C56_4 C96_4 1_555 1_555
C81_4 C86_4 1_555 1_555
C106_4 C111_4 1_555 1_555
C121_4 C126_4 1_555 1_555
S2_5 C2_5 1_555 1_555
N10_5 C26_5 1_555 1_555
C21_5 N9_5 1_555 1_555
H13_5 C21_5 1_555 1_555
C22_5 C21_5 1_555 1_555
H14_5 C22_5 1_555 1_555
C23_5 C22_5 1_555 1_555
H15_5 C23_5 1_555 1_555
C24_5 C23_5 1_555 1_555
C25_5 N9_5 1_555 1_555
H16_5 C25_5 1_555 1_555
C26_5 C24_5 1_555 1_555
Co12_4 N58_5 1_555 1_555
Co14_5 N60_5 1_555 1_555
Co15_5 N61_5 1_555 1_555
S8_5 C32_5 1_555 1_555
N57_5 C127_5 1_555 1_555
N58_5 C128_5 1_555 1_555
N60_5 C130_5 1_555 1_555
N61_5 C131_5 1_555 1_555
N66_5 C152_5 1_555 1_555
N67_5 C26_5 1_555 1_555
N68_5 C154_5 1_555 1_555
N69_5 C155_5 1_555 1_555
N70_5 C154_5 1_555 1_555
C127_5 H77_5 1_555 1_555
C128_5 H78_5 1_555 1_555
C129_5 N59_5 1_555 1_555
C130_5 H80_5 1_555 1_555
C131_5 H81_5 1_555 1_555
H79_5 C129_5 1_555 1_555
C132_5 C127_5 1_555 1_555
C133_5 C128_5 1_555 1_555
C134_5 C129_5 1_555 1_555
C135_5 C130_5 1_555 1_555
C136_5 C131_5 1_555 1_555
H82_5 C132_5 1_555 1_555
H83_5 C133_5 1_555 1_555
H84_5 C134_5 1_555 1_555
H85_5 C135_5 1_555 1_555
H86_5 C136_5 1_555 1_555
C137_5 C132_5 1_555 1_555
C138_5 C133_5 1_555 1_555
C139_5 C134_5 1_555 1_555
C140_5 C135_5 1_555 1_555
C141_5 C136_5 1_555 1_555
H87_5 C137_5 1_555 1_555
H88_5 C138_5 1_555 1_555
H89_5 C139_5 1_555 1_555
H90_5 C140_5 1_555 1_555
H91_5 C141_5 1_555 1_555
C142_5 C137_5 1_555 1_555
C143_5 C138_5 1_555 1_555
C144_5 C139_5 1_555 1_555
C145_5 C140_5 1_555 1_555
C146_5 C141_5 1_555 1_555
C147_5 N57_5 1_555 1_555
C148_5 N58_5 1_555 1_555
C149_5 N59_5 1_555 1_555
C150_5 N60_5 1_555 1_555
C151_5 N61_5 1_555 1_555
H92_5 C147_5 1_555 1_555
H93_5 C148_5 1_555 1_555
H94_5 C149_5 1_555 1_555
H95_5 C150_5 1_555 1_555
H96_5 C151_5 1_555 1_555
C152_5 N10_5 1_555 1_555
C153_5 N66_5 1_555 1_555
C154_5 C144_5 1_555 1_555
C155_5 N68_5 1_555 1_555
C156_5 N69_5 1_555 1_555
C24_5 C25_5 1_555 1_555
N67_5 C153_5 1_555 1_555
N70_5 C156_5 1_555 1_555
C142_5 C147_5 1_555 1_555
C142_5 C153_5 1_555 1_555
C143_5 C148_5 1_555 1_555
C143_5 C152_5 1_555 1_555
C144_5 C149_5 1_555 1_555
C145_5 C150_5 1_555 1_555
C145_5 C156_5 1_555 1_555
C146_5 C151_5 1_555 1_555
C146_5 C155_5 1_555 1_555
Co1_6 N1_5 1_555 1_555
Co2_5 N2_5 1_555 1_555
S1_5 C1_5 1_555 1_555
N1_5 C1_5 1_555 1_555
N3_5 C3_5 1_555 1_555
N4_5 Co1_6 1_555 1_555
N5_5 C13_5 1_555 1_555
N6_5 C13_5 1_555 1_555
N7_5 C14_5 1_555 1_555
N8_5 Co2_5 1_555 1_555
C3_5 H1_5 1_555 1_555
C4_5 C3_5 1_555 1_555
H2_5 C4_5 1_555 1_555
C5_5 C4_5 1_555 1_555
H3_5 C5_5 1_555 1_555
C6_5 C5_5 1_555 1_555
C7_5 N3_5 1_555 1_555
H4_5 C7_5 1_555 1_555
C8_5 N4_5 1_555 1_555
H5_5 C8_5 1_555 1_555
C9_5 C8_5 1_555 1_555
H6_5 C9_5 1_555 1_555
C10_5 C9_5 1_555 1_555
H7_5 C10_5 1_555 1_555
C11_5 C10_5 1_555 1_555
C12_5 N4_5 1_555 1_555
H8_5 C12_5 1_555 1_555
C13_5 C11_5 1_555 1_555
C14_5 N5_5 1_555 1_555
C15_5 N6_5 1_555 1_555
C16_5 N8_5 1_555 1_555
H9_5 C16_5 1_555 1_555
C17_5 C15_5 1_555 1_555
C18_5 C17_5 1_555 1_555
H10_5 C18_5 1_555 1_555
C19_5 C18_5 1_555 1_555
H11_5 C19_5 1_555 1_555
C20_5 N8_5 1_555 1_555
H12_5 C20_5 1_555 1_555
Co3_6 N12_5 1_555 1_555
Co4_8 N14_5 1_555 1_555
Co5_5 N3_5 1_555 1_555
Co6_6 N23_5 1_555 1_555
Co7_7 N31_5 1_555 1_555
Co8_6 N32_5 1_555 1_555
Co9_5 N17_5 1_555 1_555
Co10_5 N19_5 1_555 1_555
Co13_4 N52_5 1_555 1_555
Co16_4 N54_5 1_555 1_555
S3_5 C27_5 1_555 1_555
S4_5 C28_5 1_555 1_555
S5_5 C29_5 1_555 1_555
S6_5 C30_5 1_555 1_555
S7_5 C31_5 1_555 1_555
S9_5 C33_5 1_555 1_555
S10_5 C34_5 1_555 1_555
S11_5 C35_5 1_555 1_555
S12_5 C36_5 1_555 1_555
N11_5 Co1_6 1_555 1_555
N12_5 C28_5 1_555 1_555
N13_5 Co3_6 1_555 1_555
N14_5 C30_5 1_555 1_555
N15_5 Co4_8 1_555 1_555
N16_5 Co2_5 1_555 1_555
N17_5 C33_5 1_555 1_555
N18_5 Co9_5 1_555 1_555
N19_5 C35_5 1_555 1_555
N20_5 Co10_5 1_555 1_555
N21_5 Co1_6 1_555 1_555
N22_5 Co1_6 1_555 1_555
N23_5 C39_5 1_555 1_555
N24_5 Co3_6 1_555 1_555
N25_5 Co3_6 1_555 1_555
N26_5 Co4_8 1_555 1_555
N27_5 Co4_8 1_555 1_555
N28_5 Co3_6 1_555 1_555
N29_5 Co4_8 1_555 1_555
N30_5 Co1_6 1_555 1_555
N31_5 C65_5 1_555 1_555
N32_5 C66_5 1_555 1_555
N33_5 Co3_6 1_555 1_555
N34_5 Co4_8 1_555 1_555
N35_5 C87_5 1_555 1_555
N36_5 C88_5 1_555 1_555
N37_5 C89_5 1_555 1_555
N38_5 C90_5 1_555 1_555
N39_5 C91_5 1_555 1_555
N40_5 C87_5 1_555 1_555
N41_5 C88_5 1_555 1_555
N42_5 C89_5 1_555 1_555
N43_5 C90_5 1_555 1_555
N44_5 C91_5 1_555 1_555
N45_5 C92_5 1_555 1_555
N46_5 C93_5 1_555 1_555
N47_5 C94_5 1_555 1_555
N48_5 C95_5 1_555 1_555
N49_5 C96_5 1_555 1_555
N50_5 Co9_5 1_555 1_555
N51_5 Co10_5 1_555 1_555
N52_5 C104_5 1_555 1_555
N53_5 Co2_5 1_555 1_555
N54_5 C106_5 1_555 1_555
N55_5 Co9_5 1_555 1_555
N56_5 Co10_5 1_555 1_555
N62_5 Co9_5 1_555 1_555
N63_5 Co9_5 1_555 1_555
N64_5 Co10_5 1_555 1_555
N65_5 Co10_5 1_555 1_555
C27_5 N11_5 1_555 1_555
C29_5 N13_5 1_555 1_555
C31_5 N15_5 1_555 1_555
C34_5 N18_5 1_555 1_555
C36_5 N20_5 1_555 1_555
C37_5 N21_5 1_555 1_555
C38_5 N22_5 1_555 1_555
C39_5 H19_5 1_555 1_555
C40_5 N24_5 1_555 1_555
C41_5 N25_5 1_555 1_555
H17_5 C37_5 1_555 1_555
H18_5 C38_5 1_555 1_555
H20_5 C40_5 1_555 1_555
H21_5 C41_5 1_555 1_555
C42_5 C37_5 1_555 1_555
C43_5 C38_5 1_555 1_555
C44_5 C39_5 1_555 1_555
C45_5 C40_5 1_555 1_555
C46_5 C41_5 1_555 1_555
H22_5 C42_5 1_555 1_555
H23_5 C43_5 1_555 1_555
H24_5 C44_5 1_555 1_555
H25_5 C45_5 1_555 1_555
H26_5 C46_5 1_555 1_555
C47_5 C42_5 1_555 1_555
C48_5 C43_5 1_555 1_555
C49_5 C44_5 1_555 1_555
C50_5 C45_5 1_555 1_555
C51_5 C46_5 1_555 1_555
H27_5 C47_5 1_555 1_555
H28_5 C48_5 1_555 1_555
H29_5 C49_5 1_555 1_555
H30_5 C50_5 1_555 1_555
H31_5 C51_5 1_555 1_555
C52_5 C47_5 1_555 1_555
C53_5 C48_5 1_555 1_555
C54_5 C49_5 1_555 1_555
C55_5 C50_5 1_555 1_555
C56_5 C51_5 1_555 1_555
C57_5 N21_5 1_555 1_555
C58_5 N22_5 1_555 1_555
C59_5 N23_5 1_555 1_555
C60_5 N24_5 1_555 1_555
C61_5 N25_5 1_555 1_555
H32_5 C57_5 1_555 1_555
H33_5 C58_5 1_555 1_555
H34_5 C59_5 1_555 1_555
H35_5 C60_5 1_555 1_555
H36_5 C61_5 1_555 1_555
C62_5 N28_5 1_555 1_555
C63_5 N29_5 1_555 1_555
C64_5 N30_5 1_555 1_555
C65_5 H40_5 1_555 1_555
C66_5 H41_5 1_555 1_555
H37_5 C62_5 1_555 1_555
H38_5 C63_5 1_555 1_555
H39_5 C64_5 1_555 1_555
C67_5 C62_5 1_555 1_555
C68_5 C63_5 1_555 1_555
C69_5 C64_5 1_555 1_555
C70_5 C65_5 1_555 1_555
C71_5 C66_5 1_555 1_555
H42_5 C67_5 1_555 1_555
H43_5 C68_5 1_555 1_555
H44_5 C69_5 1_555 1_555
H45_5 C70_5 1_555 1_555
H46_5 C71_5 1_555 1_555
C72_5 C67_5 1_555 1_555
C73_5 C68_5 1_555 1_555
C74_5 C69_5 1_555 1_555
C75_5 C70_5 1_555 1_555
C76_5 C71_5 1_555 1_555
H47_5 C72_5 1_555 1_555
H48_5 C73_5 1_555 1_555
H49_5 C74_5 1_555 1_555
H50_5 C75_5 1_555 1_555
H51_5 C76_5 1_555 1_555
C77_5 C72_5 1_555 1_555
C78_5 C73_5 1_555 1_555
C79_5 C74_5 1_555 1_555
C80_5 C75_5 1_555 1_555
C81_5 C76_5 1_555 1_555
C82_5 N28_5 1_555 1_555
C83_5 N29_5 1_555 1_555
C84_5 N30_5 1_555 1_555
C85_5 N31_5 1_555 1_555
C86_5 N32_5 1_555 1_555
H52_5 C82_5 1_555 1_555
H53_5 C83_5 1_555 1_555
H54_5 C84_5 1_555 1_555
H55_5 C85_5 1_555 1_555
H56_5 C86_5 1_555 1_555
C87_5 C77_5 1_555 1_555
C88_5 C78_5 1_555 1_555
C89_5 C79_5 1_555 1_555
C90_5 C80_5 1_555 1_555
C91_5 C81_5 1_555 1_555
C92_5 N35_5 1_555 1_555
C93_5 N36_5 1_555 1_555
C94_5 N37_5 1_555 1_555
C95_5 N38_5 1_555 1_555
C96_5 N39_5 1_555 1_555
C97_5 N40_5 1_555 1_555
C98_5 N41_5 1_555 1_555
C99_5 N42_5 1_555 1_555
C100_5 N43_5 1_555 1_555
C101_5 N44_5 1_555 1_555
C102_5 N50_5 1_555 1_555
C103_5 N51_5 1_555 1_555
C104_5 H59_5 1_555 1_555
C105_5 N53_5 1_555 1_555
C106_5 H61_5 1_555 1_555
H57_5 C102_5 1_555 1_555
H58_5 C103_5 1_555 1_555
H60_5 C105_5 1_555 1_555
C107_5 C97_5 1_555 1_555
C108_5 C98_5 1_555 1_555
C109_5 C99_5 1_555 1_555
C110_5 C100_5 1_555 1_555
C111_5 C101_5 1_555 1_555
C112_5 C107_5 1_555 1_555
C113_5 C108_5 1_555 1_555
C114_5 C109_5 1_555 1_555
C115_5 C110_5 1_555 1_555
C116_5 C111_5 1_555 1_555
H62_5 C112_5 1_555 1_555
H63_5 C113_5 1_555 1_555
H64_5 C114_5 1_555 1_555
H65_5 C115_5 1_555 1_555
H66_5 C116_5 1_555 1_555
C117_5 C112_5 1_555 1_555
C118_5 C113_5 1_555 1_555
C119_5 C114_5 1_555 1_555
C120_5 C115_5 1_555 1_555
C121_5 C116_5 1_555 1_555
H67_5 C117_5 1_555 1_555
H68_5 C118_5 1_555 1_555
H69_5 C119_5 1_555 1_555
H70_5 C120_5 1_555 1_555
H71_5 C121_5 1_555 1_555
C122_5 N50_5 1_555 1_555
C123_5 N51_5 1_555 1_555
C124_5 N52_5 1_555 1_555
C125_5 N53_5 1_555 1_555
C126_5 N54_5 1_555 1_555
H72_5 C122_5 1_555 1_555
H73_5 C123_5 1_555 1_555
H74_5 C124_5 1_555 1_555
H75_5 C125_5 1_555 1_555
H76_5 C126_5 1_555 1_555
N7_5 C15_5 1_555 1_555
C6_5 C7_5 1_555 1_555
C6_5 C14_5 1_555 1_555
C11_5 C12_5 1_555 1_555
C16_5 C17_5 1_555 1_555
C19_5 C20_5 1_555 1_555
N45_5 C97_5 1_555 1_555
N46_5 C98_5 1_555 1_555
N47_5 C99_5 1_555 1_555
N48_5 C100_5 1_555 1_555
N49_5 C101_5 1_555 1_555
C52_5 C57_5 1_555 1_555
C52_5 C92_5 1_555 1_555
C53_5 C58_5 1_555 1_555
C53_5 C93_5 1_555 1_555
C54_5 C59_5 1_555 1_555
C54_5 C94_5 1_555 1_555
C55_5 C60_5 1_555 1_555
C55_5 C95_5 1_555 1_555
C56_5 C61_5 1_555 1_555
C56_5 C96_5 1_555 1_555
C77_5 C82_5 1_555 1_555
C78_5 C83_5 1_555 1_555
C79_5 C84_5 1_555 1_555
C80_5 C85_5 1_555 1_555
C81_5 C86_5 1_555 1_555
C102_5 C107_5 1_555 1_555
C103_5 C108_5 1_555 1_555
C104_5 C109_5 1_555 1_555
C105_5 C110_5 1_555 1_555
C106_5 C111_5 1_555 1_555
C117_5 C122_5 1_555 1_555
C118_5 C123_5 1_555 1_555
C119_5 C124_5 1_555 1_555
C120_5 C125_5 1_555 1_555
C121_5 C126_5 1_555 1_555
Co8_2 N1_6 1_555 1_555
Co16_2 N2_6 1_555 1_555
S1_6 C1_6 1_555 1_555
N1_6 C1_6 1_555 1_555
Co3_7 N12_6 1_555 1_555
Co4_9 N14_6 1_555 1_555
Co7_9 N31_6 1_555 1_555
Co8_7 N32_6 1_555 1_555
Co9_6 N17_6 1_555 1_555
Co10_6 N19_6 1_555 1_555
Co15_2 N52_6 1_555 1_555
Co12_4 N54_6 1_555 1_555
S3_6 C27_6 1_555 1_555
S4_6 C28_6 1_555 1_555
S5_6 C29_6 1_555 1_555
S6_6 C30_6 1_555 1_555
S7_6 C31_6 1_555 1_555
S9_6 C33_6 1_555 1_555
S10_6 C34_6 1_555 1_555
S11_6 C35_6 1_555 1_555
S12_6 C36_6 1_555 1_555
N11_6 Co8_2 1_555 1_555
N12_6 C28_6 1_555 1_555
N13_6 Co3_7 1_555 1_555
N14_6 C30_6 1_555 1_555
N15_6 Co4_9 1_555 1_555
N16_6 Co16_2 1_555 1_555
N17_6 C33_6 1_555 1_555
N18_6 Co9_6 1_555 1_555
N19_6 C35_6 1_555 1_555
N20_6 Co10_6 1_555 1_555
N21_6 Co8_2 1_555 1_555
N22_6 Co8_2 1_555 1_555
N27_4 C39_6 1_555 1_555
N24_6 Co3_7 1_555 1_555
N25_6 Co3_7 1_555 1_555
N26_6 Co4_9 1_555 1_555
N27_6 Co4_9 1_555 1_555
N28_6 Co3_7 1_555 1_555
N29_6 Co4_9 1_555 1_555
N30_6 Co8_2 1_555 1_555
N31_6 C65_6 1_555 1_555
N32_6 C66_6 1_555 1_555
N33_6 Co3_7 1_555 1_555
N34_6 Co4_9 1_555 1_555
N35_6 C87_6 1_555 1_555
N36_6 C88_6 1_555 1_555
N37_6 C89_6 1_555 1_555
N38_6 C90_6 1_555 1_555
N39_6 C91_6 1_555 1_555
N40_6 C87_6 1_555 1_555
N41_6 C88_6 1_555 1_555
N42_6 C89_6 1_555 1_555
N43_6 C90_6 1_555 1_555
N44_6 C91_6 1_555 1_555
N45_6 C92_6 1_555 1_555
N46_6 C93_6 1_555 1_555
N47_6 C94_6 1_555 1_555
N48_6 C95_6 1_555 1_555
N49_6 C96_6 1_555 1_555
N50_6 Co9_6 1_555 1_555
N51_6 Co10_6 1_555 1_555
N52_6 C104_6 1_555 1_555
N53_6 Co16_2 1_555 1_555
N54_6 C106_6 1_555 1_555
N55_6 Co9_6 1_555 1_555
N56_6 Co10_6 1_555 1_555
N62_6 Co9_6 1_555 1_555
N63_6 Co9_6 1_555 1_555
N64_6 Co10_6 1_555 1_555
N65_6 Co10_6 1_555 1_555
C27_6 N11_6 1_555 1_555
C29_6 N13_6 1_555 1_555
C31_6 N15_6 1_555 1_555
C34_6 N18_6 1_555 1_555
C36_6 N20_6 1_555 1_555
C37_6 N21_6 1_555 1_555
C38_6 N22_6 1_555 1_555
C39_6 H19_6 1_555 1_555
C40_6 N24_6 1_555 1_555
C41_6 N25_6 1_555 1_555
H17_6 C37_6 1_555 1_555
H18_6 C38_6 1_555 1_555
H20_6 C40_6 1_555 1_555
H21_6 C41_6 1_555 1_555
C42_6 C37_6 1_555 1_555
C43_6 C38_6 1_555 1_555
C44_6 C39_6 1_555 1_555
C45_6 C40_6 1_555 1_555
C46_6 C41_6 1_555 1_555
H22_6 C42_6 1_555 1_555
H23_6 C43_6 1_555 1_555
H24_6 C44_6 1_555 1_555
H25_6 C45_6 1_555 1_555
H26_6 C46_6 1_555 1_555
C47_6 C42_6 1_555 1_555
C48_6 C43_6 1_555 1_555
C49_6 C44_6 1_555 1_555
C50_6 C45_6 1_555 1_555
C51_6 C46_6 1_555 1_555
H27_6 C47_6 1_555 1_555
H28_6 C48_6 1_555 1_555
H29_6 C49_6 1_555 1_555
H30_6 C50_6 1_555 1_555
H31_6 C51_6 1_555 1_555
C52_6 C47_6 1_555 1_555
C53_6 C48_6 1_555 1_555
C54_6 C49_6 1_555 1_555
C55_6 C50_6 1_555 1_555
C56_6 C51_6 1_555 1_555
C57_6 N21_6 1_555 1_555
C58_6 N22_6 1_555 1_555
C59_6 N27_4 1_555 1_555
C60_6 N24_6 1_555 1_555
C61_6 N25_6 1_555 1_555
H32_6 C57_6 1_555 1_555
H33_6 C58_6 1_555 1_555
H34_6 C59_6 1_555 1_555
H35_6 C60_6 1_555 1_555
H36_6 C61_6 1_555 1_555
C62_6 N28_6 1_555 1_555
C63_6 N29_6 1_555 1_555
C64_6 N30_6 1_555 1_555
C65_6 H40_6 1_555 1_555
C66_6 H41_6 1_555 1_555
H37_6 C62_6 1_555 1_555
H38_6 C63_6 1_555 1_555
H39_6 C64_6 1_555 1_555
C67_6 C62_6 1_555 1_555
C68_6 C63_6 1_555 1_555
C69_6 C64_6 1_555 1_555
C70_6 C65_6 1_555 1_555
C71_6 C66_6 1_555 1_555
H42_6 C67_6 1_555 1_555
H43_6 C68_6 1_555 1_555
H44_6 C69_6 1_555 1_555
H45_6 C70_6 1_555 1_555
H46_6 C71_6 1_555 1_555
C72_6 C67_6 1_555 1_555
C73_6 C68_6 1_555 1_555
C74_6 C69_6 1_555 1_555
C75_6 C70_6 1_555 1_555
C76_6 C71_6 1_555 1_555
H47_6 C72_6 1_555 1_555
H48_6 C73_6 1_555 1_555
H49_6 C74_6 1_555 1_555
H50_6 C75_6 1_555 1_555
H51_6 C76_6 1_555 1_555
C77_6 C72_6 1_555 1_555
C78_6 C73_6 1_555 1_555
C79_6 C74_6 1_555 1_555
C80_6 C75_6 1_555 1_555
C81_6 C76_6 1_555 1_555
C82_6 N28_6 1_555 1_555
C83_6 N29_6 1_555 1_555
C84_6 N30_6 1_555 1_555
C85_6 N31_6 1_555 1_555
C86_6 N32_6 1_555 1_555
H52_6 C82_6 1_555 1_555
H53_6 C83_6 1_555 1_555
H54_6 C84_6 1_555 1_555
H55_6 C85_6 1_555 1_555
H56_6 C86_6 1_555 1_555
C87_6 C77_6 1_555 1_555
C88_6 C78_6 1_555 1_555
C89_6 C79_6 1_555 1_555
C90_6 C80_6 1_555 1_555
C91_6 C81_6 1_555 1_555
C92_6 N35_6 1_555 1_555
C93_6 N36_6 1_555 1_555
C94_6 N37_6 1_555 1_555
C95_6 N38_6 1_555 1_555
C96_6 N39_6 1_555 1_555
C97_6 N40_6 1_555 1_555
C98_6 N41_6 1_555 1_555
C99_6 N42_6 1_555 1_555
C100_6 N43_6 1_555 1_555
C101_6 N44_6 1_555 1_555
C102_6 N50_6 1_555 1_555
C103_6 N51_6 1_555 1_555
C104_6 H59_6 1_555 1_555
C105_6 N53_6 1_555 1_555
C106_6 H61_6 1_555 1_555
H57_6 C102_6 1_555 1_555
H58_6 C103_6 1_555 1_555
H60_6 C105_6 1_555 1_555
C107_6 C97_6 1_555 1_555
C108_6 C98_6 1_555 1_555
C109_6 C99_6 1_555 1_555
C110_6 C100_6 1_555 1_555
C111_6 C101_6 1_555 1_555
C112_6 C107_6 1_555 1_555
C113_6 C108_6 1_555 1_555
C114_6 C109_6 1_555 1_555
C115_6 C110_6 1_555 1_555
C116_6 C111_6 1_555 1_555
H62_6 C112_6 1_555 1_555
H63_6 C113_6 1_555 1_555
H64_6 C114_6 1_555 1_555
H65_6 C115_6 1_555 1_555
H66_6 C116_6 1_555 1_555
C117_6 C112_6 1_555 1_555
C118_6 C113_6 1_555 1_555
C119_6 C114_6 1_555 1_555
C120_6 C115_6 1_555 1_555
C121_6 C116_6 1_555 1_555
H67_6 C117_6 1_555 1_555
H68_6 C118_6 1_555 1_555
H69_6 C119_6 1_555 1_555
H70_6 C120_6 1_555 1_555
H71_6 C121_6 1_555 1_555
C122_6 N50_6 1_555 1_555
C123_6 N51_6 1_555 1_555
C124_6 N52_6 1_555 1_555
C125_6 N53_6 1_555 1_555
C126_6 N54_6 1_555 1_555
H72_6 C122_6 1_555 1_555
H73_6 C123_6 1_555 1_555
H74_6 C124_6 1_555 1_555
H75_6 C125_6 1_555 1_555
H76_6 C126_6 1_555 1_555
N45_6 C97_6 1_555 1_555
N46_6 C98_6 1_555 1_555
N47_6 C99_6 1_555 1_555
N48_6 C100_6 1_555 1_555
N49_6 C101_6 1_555 1_555
C52_6 C57_6 1_555 1_555
C52_6 C92_6 1_555 1_555
C53_6 C58_6 1_555 1_555
C53_6 C93_6 1_555 1_555
C54_6 C59_6 1_555 1_555
C54_6 C94_6 1_555 1_555
C55_6 C60_6 1_555 1_555
C55_6 C95_6 1_555 1_555
C56_6 C61_6 1_555 1_555
C56_6 C96_6 1_555 1_555
C77_6 C82_6 1_555 1_555
C78_6 C83_6 1_555 1_555
C79_6 C84_6 1_555 1_555
C80_6 C85_6 1_555 1_555
C81_6 C86_6 1_555 1_555
C102_6 C107_6 1_555 1_555
C103_6 C108_6 1_555 1_555
C104_6 C109_6 1_555 1_555
C105_6 C110_6 1_555 1_555
C106_6 C111_6 1_555 1_555
C117_6 C122_6 1_555 1_555
C118_6 C123_6 1_555 1_555
C119_6 C124_6 1_555 1_555
C120_6 C125_6 1_555 1_555
C121_6 C126_6 1_555 1_555
S2_6 C2_6 1_555 1_555
N10_6 C26_6 1_555 1_555
C21_6 N9_6 1_555 1_555
H13_6 C21_6 1_555 1_555
C22_6 C21_6 1_555 1_555
H14_6 C22_6 1_555 1_555
C23_6 C22_6 1_555 1_555
H15_6 C23_6 1_555 1_555
C24_6 C23_6 1_555 1_555
C25_6 N9_6 1_555 1_555
H16_6 C25_6 1_555 1_555
C26_6 C24_6 1_555 1_555
Co13_4 N57_6 1_555 1_555
Co12_5 N58_6 1_555 1_555
Co13_3 N60_6 1_555 1_555
Co15_6 N61_6 1_555 1_555
S8_6 C32_6 1_555 1_555
N57_6 C127_6 1_555 1_555
N58_6 C128_6 1_555 1_555
N60_6 C130_6 1_555 1_555
N61_6 C131_6 1_555 1_555
N66_6 C152_6 1_555 1_555
N67_6 C26_6 1_555 1_555
N68_6 C154_6 1_555 1_555
N69_6 C155_6 1_555 1_555
N70_6 C154_6 1_555 1_555
C127_6 H77_6 1_555 1_555
C128_6 H78_6 1_555 1_555
C129_6 N59_6 1_555 1_555
C130_6 H80_6 1_555 1_555
C131_6 H81_6 1_555 1_555
H79_6 C129_6 1_555 1_555
C132_6 C127_6 1_555 1_555
C133_6 C128_6 1_555 1_555
C134_6 C129_6 1_555 1_555
C135_6 C130_6 1_555 1_555
C136_6 C131_6 1_555 1_555
H82_6 C132_6 1_555 1_555
H83_6 C133_6 1_555 1_555
H84_6 C134_6 1_555 1_555
H85_6 C135_6 1_555 1_555
H86_6 C136_6 1_555 1_555
C137_6 C132_6 1_555 1_555
C138_6 C133_6 1_555 1_555
C139_6 C134_6 1_555 1_555
C140_6 C135_6 1_555 1_555
C141_6 C136_6 1_555 1_555
H87_6 C137_6 1_555 1_555
H88_6 C138_6 1_555 1_555
H89_6 C139_6 1_555 1_555
H90_6 C140_6 1_555 1_555
H91_6 C141_6 1_555 1_555
C142_6 C137_6 1_555 1_555
C143_6 C138_6 1_555 1_555
C144_6 C139_6 1_555 1_555
C145_6 C140_6 1_555 1_555
C146_6 C141_6 1_555 1_555
C147_6 N57_6 1_555 1_555
C148_6 N58_6 1_555 1_555
C149_6 N59_6 1_555 1_555
C150_6 N60_6 1_555 1_555
C151_6 N61_6 1_555 1_555
H92_6 C147_6 1_555 1_555
H93_6 C148_6 1_555 1_555
H94_6 C149_6 1_555 1_555
H95_6 C150_6 1_555 1_555
H96_6 C151_6 1_555 1_555
C152_6 N10_6 1_555 1_555
C153_6 N66_6 1_555 1_555
C154_6 C144_6 1_555 1_555
C155_6 N68_6 1_555 1_555
C156_6 N69_6 1_555 1_555
C24_6 C25_6 1_555 1_555
N67_6 C153_6 1_555 1_555
N70_6 C156_6 1_555 1_555
C142_6 C147_6 1_555 1_555
C142_6 C153_6 1_555 1_555
C143_6 C148_6 1_555 1_555
C143_6 C152_6 1_555 1_555
C144_6 C149_6 1_555 1_555
C145_6 C150_6 1_555 1_555
C145_6 C156_6 1_555 1_555
C146_6 C151_6 1_555 1_555
C146_6 C155_6 1_555 1_555
S2_7 C2_7 1_555 1_555
Co13 N61_7 1_555 1_555
S8_7 C32_7 1_555 1_555
N60_7 C130_7 1_555 1_555
N61_7 C131_7 1_555 1_555
N68_7 C154_7 1_555 1_555
N69_7 C155_7 1_555 1_555
N70_7 C154_7 1_555 1_555
C129_7 N59_7 1_555 1_555
C130_7 H80_7 1_555 1_555
C131_7 H81_7 1_555 1_555
H79_7 C129_7 1_555 1_555
C134_7 C129_7 1_555 1_555
C135_7 C130_7 1_555 1_555
C136_7 C131_7 1_555 1_555
H84_7 C134_7 1_555 1_555
H85_7 C135_7 1_555 1_555
H86_7 C136_7 1_555 1_555
C139_7 C134_7 1_555 1_555
C140_7 C135_7 1_555 1_555
C141_7 C136_7 1_555 1_555
H89_7 C139_7 1_555 1_555
H90_7 C140_7 1_555 1_555
H91_7 C141_7 1_555 1_555
C144_7 C139_7 1_555 1_555
C145_7 C140_7 1_555 1_555
C146_7 C141_7 1_555 1_555
C149_7 N59_7 1_555 1_555
C150_7 N60_7 1_555 1_555
C151_7 N61_7 1_555 1_555
H94_7 C149_7 1_555 1_555
H95_7 C150_7 1_555 1_555
H96_7 C151_7 1_555 1_555
C154_7 C144_7 1_555 1_555
C155_7 N68_7 1_555 1_555
C156_7 N69_7 1_555 1_555
N70_7 C156_7 1_555 1_555
C144_7 C149_7 1_555 1_555
C145_7 C150_7 1_555 1_555
C145_7 C156_7 1_555 1_555
C146_7 C151_7 1_555 1_555
C146_7 C155_7 1_555 1_555
Co1_7 N1_7 1_555 1_555
Co11_4 N2_7 1_555 1_555
S1_7 C1_7 1_555 1_555
N1_7 C1_7 1_555 1_555
N3_6 C3_6 1_555 1_555
N4_6 Co1_7 1_555 1_555
N5_6 C13_6 1_555 1_555
N6_6 C13_6 1_555 1_555
N7_6 C14_6 1_555 1_555
N8_6 Co11_4 1_555 1_555
C3_6 H1_6 1_555 1_555
C4_6 C3_6 1_555 1_555
H2_6 C4_6 1_555 1_555
C5_6 C4_6 1_555 1_555
H3_6 C5_6 1_555 1_555
C6_6 C5_6 1_555 1_555
C7_6 N3_6 1_555 1_555
H4_6 C7_6 1_555 1_555
C8_6 N4_6 1_555 1_555
H5_6 C8_6 1_555 1_555
C9_6 C8_6 1_555 1_555
H6_6 C9_6 1_555 1_555
C10_6 C9_6 1_555 1_555
H7_6 C10_6 1_555 1_555
C11_6 C10_6 1_555 1_555
C12_6 N4_6 1_555 1_555
H8_6 C12_6 1_555 1_555
C13_6 C11_6 1_555 1_555
C14_6 N5_6 1_555 1_555
C15_6 N6_6 1_555 1_555
C16_6 N8_6 1_555 1_555
H9_6 C16_6 1_555 1_555
C17_6 C15_6 1_555 1_555
C18_6 C17_6 1_555 1_555
H10_6 C18_6 1_555 1_555
C19_6 C18_6 1_555 1_555
H11_6 C19_6 1_555 1_555
C20_6 N8_6 1_555 1_555
H12_6 C20_6 1_555 1_555
Co5 N12_7 1_555 1_555
Co5_6 N3_6 1_555 1_555
Co7_10 N31_7 1_555 1_555
Co9_7 N17_7 1_555 1_555
S4_7 C28_7 1_555 1_555
S5_7 C29_7 1_555 1_555
S9_7 C33_7 1_555 1_555
S10_7 C34_7 1_555 1_555
N12_7 C28_7 1_555 1_555
N13_7 Co5 1_555 1_555
N16_7 Co11_4 1_555 1_555
N17_7 C33_7 1_555 1_555
N18_7 Co9_7 1_555 1_555
N21_7 Co1_7 1_555 1_555
N24_7 Co5 1_555 1_555
N28_7 Co5 1_555 1_555
N31_7 C65_7 1_555 1_555
N33_7 Co5 1_555 1_555
N35_7 C87_7 1_555 1_555
N38_7 C90_7 1_555 1_555
N40_7 C87_7 1_555 1_555
N43_7 C90_7 1_555 1_555
N45_7 C92_7 1_555 1_555
N48_7 C95_7 1_555 1_555
N50_7 Co9_7 1_555 1_555
N53_7 Co11_4 1_555 1_555
N55_7 Co9_7 1_555 1_555
N62_7 Co9_7 1_555 1_555
N63_7 Co9_7 1_555 1_555
C29_7 N13_7 1_555 1_555
C34_7 N18_7 1_555 1_555
C37_7 N21_7 1_555 1_555
C40_7 N24_7 1_555 1_555
H17_7 C37_7 1_555 1_555
H20_7 C40_7 1_555 1_555
C42_7 C37_7 1_555 1_555
C45_7 C40_7 1_555 1_555
H22_7 C42_7 1_555 1_555
H25_7 C45_7 1_555 1_555
C47_7 C42_7 1_555 1_555
C50_7 C45_7 1_555 1_555
H27_7 C47_7 1_555 1_555
H30_7 C50_7 1_555 1_555
C52_7 C47_7 1_555 1_555
C55_7 C50_7 1_555 1_555
C57_7 N21_7 1_555 1_555
C60_7 N24_7 1_555 1_555
H32_7 C57_7 1_555 1_555
H35_7 C60_7 1_555 1_555
C62_7 N28_7 1_555 1_555
C65_7 H40_7 1_555 1_555
H37_7 C62_7 1_555 1_555
C67_7 C62_7 1_555 1_555
C70_7 C65_7 1_555 1_555
H42_7 C67_7 1_555 1_555
H45_7 C70_7 1_555 1_555
C72_7 C67_7 1_555 1_555
C75_7 C70_7 1_555 1_555
H47_7 C72_7 1_555 1_555
H50_7 C75_7 1_555 1_555
C77_7 C72_7 1_555 1_555
C80_7 C75_7 1_555 1_555
C82_7 N28_7 1_555 1_555
C85_7 N31_7 1_555 1_555
H52_7 C82_7 1_555 1_555
H55_7 C85_7 1_555 1_555
C87_7 C77_7 1_555 1_555
C90_7 C80_7 1_555 1_555
C92_7 N35_7 1_555 1_555
C95_7 N38_7 1_555 1_555
C97_7 N40_7 1_555 1_555
C100_7 N43_7 1_555 1_555
C102_7 N50_7 1_555 1_555
C105_7 N53_7 1_555 1_555
H57_7 C102_7 1_555 1_555
H60_7 C105_7 1_555 1_555
C107_7 C97_7 1_555 1_555
C110_7 C100_7 1_555 1_555
C112_7 C107_7 1_555 1_555
C115_7 C110_7 1_555 1_555
H62_7 C112_7 1_555 1_555
H65_7 C115_7 1_555 1_555
C117_7 C112_7 1_555 1_555
C120_7 C115_7 1_555 1_555
H67_7 C117_7 1_555 1_555
H70_7 C120_7 1_555 1_555
C122_7 N50_7 1_555 1_555
C125_7 N53_7 1_555 1_555
H72_7 C122_7 1_555 1_555
H75_7 C125_7 1_555 1_555
N7_6 C15_6 1_555 1_555
C6_6 C7_6 1_555 1_555
C6_6 C14_6 1_555 1_555
C11_6 C12_6 1_555 1_555
C16_6 C17_6 1_555 1_555
C19_6 C20_6 1_555 1_555
N45_7 C97_7 1_555 1_555
N48_7 C100_7 1_555 1_555
C52_7 C57_7 1_555 1_555
C52_7 C92_7 1_555 1_555
C55_7 C60_7 1_555 1_555
C55_7 C95_7 1_555 1_555
C77_7 C82_7 1_555 1_555
C80_7 C85_7 1_555 1_555
C102_7 C107_7 1_555 1_555
C105_7 C110_7 1_555 1_555
C117_7 C122_7 1_555 1_555
C120_7 C125_7 1_555 1_555
Co6_3 N14_7 1_555 1_555
Co13_2 N52_7 1_555 1_555
S3_7 C27_7 1_555 1_555
S6_7 C30_7 1_555 1_555
S7_7 C31_7 1_555 1_555
N11_7 Co1_8 1_555 1_555
N14_7 C30_7 1_555 1_555
N15_7 Co6_3 1_555 1_555
N22_7 Co1_8 1_555 1_555
N26_3 C39_7 1_555 1_555
N27_7 Co6_3 1_555 1_555
N29_7 Co6_3 1_555 1_555
N30_7 Co1_8 1_555 1_555
N34_7 Co6_3 1_555 1_555
N36_7 C88_7 1_555 1_555
N37_7 C89_7 1_555 1_555
N41_7 C88_7 1_555 1_555
N42_7 C89_7 1_555 1_555
N46_7 C93_7 1_555 1_555
N47_7 C94_7 1_555 1_555
N52_7 C104_7 1_555 1_555
C27_7 N11_7 1_555 1_555
C31_7 N15_7 1_555 1_555
C38_7 N22_7 1_555 1_555
C39_7 H19_7 1_555 1_555
H18_7 C38_7 1_555 1_555
C43_7 C38_7 1_555 1_555
C44_7 C39_7 1_555 1_555
H23_7 C43_7 1_555 1_555
H24_7 C44_7 1_555 1_555
C48_7 C43_7 1_555 1_555
C49_7 C44_7 1_555 1_555
H28_7 C48_7 1_555 1_555
H29_7 C49_7 1_555 1_555
C53_7 C48_7 1_555 1_555
C54_7 C49_7 1_555 1_555
C58_7 N22_7 1_555 1_555
C59_7 N26_3 1_555 1_555
H33_7 C58_7 1_555 1_555
H34_7 C59_7 1_555 1_555
C63_7 N29_7 1_555 1_555
C64_7 N30_7 1_555 1_555
H38_7 C63_7 1_555 1_555
H39_7 C64_7 1_555 1_555
C68_7 C63_7 1_555 1_555
C69_7 C64_7 1_555 1_555
H43_7 C68_7 1_555 1_555
H44_7 C69_7 1_555 1_555
C73_7 C68_7 1_555 1_555
C74_7 C69_7 1_555 1_555
H48_7 C73_7 1_555 1_555
H49_7 C74_7 1_555 1_555
C78_7 C73_7 1_555 1_555
C79_7 C74_7 1_555 1_555
C83_7 N29_7 1_555 1_555
C84_7 N30_7 1_555 1_555
H53_7 C83_7 1_555 1_555
H54_7 C84_7 1_555 1_555
C88_7 C78_7 1_555 1_555
C89_7 C79_7 1_555 1_555
C93_7 N36_7 1_555 1_555
C94_7 N37_7 1_555 1_555
C98_7 N41_7 1_555 1_555
C99_7 N42_7 1_555 1_555
C103_7 N56_3 1_555 1_555
C104_7 H59_7 1_555 1_555
H58_7 C103_7 1_555 1_555
C108_7 C98_7 1_555 1_555
C109_7 C99_7 1_555 1_555
C113_7 C108_7 1_555 1_555
C114_7 C109_7 1_555 1_555
H63_7 C113_7 1_555 1_555
H64_7 C114_7 1_555 1_555
C118_7 C113_7 1_555 1_555
C119_7 C114_7 1_555 1_555
H68_7 C118_7 1_555 1_555
H69_7 C119_7 1_555 1_555
C123_7 N56_3 1_555 1_555
C124_7 N52_7 1_555 1_555
H73_7 C123_7 1_555 1_555
H74_7 C124_7 1_555 1_555
N46_7 C98_7 1_555 1_555
N47_7 C99_7 1_555 1_555
C53_7 C58_7 1_555 1_555
C53_7 C93_7 1_555 1_555
C54_7 C59_7 1_555 1_555
C54_7 C94_7 1_555 1_555
C78_7 C83_7 1_555 1_555
C79_7 C84_7 1_555 1_555
C103_7 C108_7 1_555 1_555
C104_7 C109_7 1_555 1_555
C118_7 C123_7 1_555 1_555
C119_7 C124_7 1_555 1_555
S11_7 C35_7 1_555 1_555
S12_7 C36_7 1_555 1_555
Co4_10 N14_8 1_555 1_555
Co6_7 N23_6 1_555 1_555
Co10_7 N19_7 1_555 1_555
Co15_5 N52_8 1_555 1_555
S3_8 C27_8 1_555 1_555
S6_8 C30_8 1_555 1_555
S7_8 C31_8 1_555 1_555
N11_8 Co8_5 1_555 1_555
N14_8 C30_8 1_555 1_555
N15_8 Co4_10 1_555 1_555
N20_7 Co10_7 1_555 1_555
N22_8 Co8_5 1_555 1_555
N23_6 C39_8 1_555 1_555
N26_7 Co4_10 1_555 1_555
N27_8 Co4_10 1_555 1_555
N29_8 Co4_10 1_555 1_555
N30_8 Co8_5 1_555 1_555
N34_8 Co4_10 1_555 1_555
N36_8 C88_8 1_555 1_555
N37_8 C89_8 1_555 1_555
N41_8 C88_8 1_555 1_555
N42_8 C89_8 1_555 1_555
N46_8 C93_8 1_555 1_555
N47_8 C94_8 1_555 1_555
N51_7 Co10_7 1_555 1_555
N52_8 C104_8 1_555 1_555
N56_7 Co10_7 1_555 1_555
C27_8 N11_8 1_555 1_555
C31_8 N15_8 1_555 1_555
C38_8 N22_8 1_555 1_555
C39_8 H19_8 1_555 1_555
H18_8 C38_8 1_555 1_555
C43_8 C38_8 1_555 1_555
C44_8 C39_8 1_555 1_555
H23_8 C43_8 1_555 1_555
H24_8 C44_8 1_555 1_555
C48_8 C43_8 1_555 1_555
C49_8 C44_8 1_555 1_555
H28_8 C48_8 1_555 1_555
H29_8 C49_8 1_555 1_555
C53_8 C48_8 1_555 1_555
C54_8 C49_8 1_555 1_555
C58_8 N22_8 1_555 1_555
C59_8 N23_6 1_555 1_555
H33_8 C58_8 1_555 1_555
H34_8 C59_8 1_555 1_555
C63_8 N29_8 1_555 1_555
C64_8 N30_8 1_555 1_555
H38_8 C63_8 1_555 1_555
H39_8 C64_8 1_555 1_555
C68_8 C63_8 1_555 1_555
C69_8 C64_8 1_555 1_555
H43_8 C68_8 1_555 1_555
H44_8 C69_8 1_555 1_555
C73_8 C68_8 1_555 1_555
C74_8 C69_8 1_555 1_555
H48_8 C73_8 1_555 1_555
H49_8 C74_8 1_555 1_555
C78_8 C73_8 1_555 1_555
C79_8 C74_8 1_555 1_555
C83_8 N29_8 1_555 1_555
C84_8 N30_8 1_555 1_555
H53_8 C83_8 1_555 1_555
H54_8 C84_8 1_555 1_555
C88_8 C78_8 1_555 1_555
C89_8 C79_8 1_555 1_555
C93_8 N36_8 1_555 1_555
C94_8 N37_8 1_555 1_555
C98_8 N41_8 1_555 1_555
C99_8 N42_8 1_555 1_555
C103_8 N51_7 1_555 1_555
C104_8 H59_8 1_555 1_555
H58_8 C103_8 1_555 1_555
C108_8 C98_8 1_555 1_555
C109_8 C99_8 1_555 1_555
C113_8 C108_8 1_555 1_555
C114_8 C109_8 1_555 1_555
H63_8 C113_8 1_555 1_555
H64_8 C114_8 1_555 1_555
C118_8 C113_8 1_555 1_555
C119_8 C114_8 1_555 1_555
H68_8 C118_8 1_555 1_555
H69_8 C119_8 1_555 1_555
C123_8 N51_7 1_555 1_555
C124_8 N52_8 1_555 1_555
H73_8 C123_8 1_555 1_555
H74_8 C124_8 1_555 1_555
N46_8 C98_8 1_555 1_555
N47_8 C99_8 1_555 1_555
C53_8 C58_8 1_555 1_555
C53_8 C93_8 1_555 1_555
C54_8 C59_8 1_555 1_555
C54_8 C94_8 1_555 1_555
C78_8 C83_8 1_555 1_555
C79_8 C84_8 1_555 1_555
C103_8 C108_8 1_555 1_555
C104_8 C109_8 1_555 1_555
C118_8 C123_8 1_555 1_555
C119_8 C124_8 1_555 1_555
Co8_6 N1_8 1_555 1_555
Co16_4 N2_8 1_555 1_555
S1_8 C1_8 1_555 1_555
N1_8 C1_8 1_555 1_555
Co9_8 N17_8 1_555 1_555
S9_8 C33_8 1_555 1_555
S10_8 C34_8 1_555 1_555
N16_8 Co16_4 1_555 1_555
N17_8 C33_8 1_555 1_555
N18_8 Co9_8 1_555 1_555
N21_8 Co8_6 1_555 1_555
N35_8 C87_8 1_555 1_555
N40_8 C87_8 1_555 1_555
N45_8 C92_8 1_555 1_555
N50_8 Co9_8 1_555 1_555
N55_8 Co9_8 1_555 1_555
N62_8 Co9_8 1_555 1_555
N63_8 Co9_8 1_555 1_555
C34_8 N18_8 1_555 1_555
C37_8 N21_8 1_555 1_555
H17_8 C37_8 1_555 1_555
C42_8 C37_8 1_555 1_555
H22_8 C42_8 1_555 1_555
C47_8 C42_8 1_555 1_555
H27_8 C47_8 1_555 1_555
C52_8 C47_8 1_555 1_555
C57_8 N21_8 1_555 1_555
H32_8 C57_8 1_555 1_555
C62_8 N33_4 1_555 1_555
H37_8 C62_8 1_555 1_555
C67_8 C62_8 1_555 1_555
H42_8 C67_8 1_555 1_555
C72_8 C67_8 1_555 1_555
H47_8 C72_8 1_555 1_555
C77_8 C72_8 1_555 1_555
C82_8 N33_4 1_555 1_555
H52_8 C82_8 1_555 1_555
C87_8 C77_8 1_555 1_555
C92_8 N35_8 1_555 1_555
C97_8 N40_8 1_555 1_555
C102_8 N50_8 1_555 1_555
H57_8 C102_8 1_555 1_555
C107_8 C97_8 1_555 1_555
C112_8 C107_8 1_555 1_555
H62_8 C112_8 1_555 1_555
C117_8 C112_8 1_555 1_555
H67_8 C117_8 1_555 1_555
C122_8 N50_8 1_555 1_555
H72_8 C122_8 1_555 1_555
N45_8 C97_8 1_555 1_555
C52_8 C57_8 1_555 1_555
C52_8 C92_8 1_555 1_555
C77_8 C82_8 1_555 1_555
C102_8 C107_8 1_555 1_555
C117_8 C122_8 1_555 1_555
S2_8 C2_8 1_555 1_555
N10_7 C26_7 1_555 1_555
C21_7 N9_7 1_555 1_555
H13_7 C21_7 1_555 1_555
C22_7 C21_7 1_555 1_555
H14_7 C22_7 1_555 1_555
C23_7 C22_7 1_555 1_555
H15_7 C23_7 1_555 1_555
C24_7 C23_7 1_555 1_555
C25_7 N9_7 1_555 1_555
H16_7 C25_7 1_555 1_555
C26_7 C24_7 1_555 1_555
Co13_2 N57_7 1_555 1_555
Co12_6 N58_7 1_555 1_555
S8_8 C32_8 1_555 1_555
N57_7 C127_7 1_555 1_555
N58_7 C128_7 1_555 1_555
N60_8 C130_8 1_555 1_555
N61_8 C131_8 1_555 1_555
N66_7 C152_7 1_555 1_555
N67_7 C26_7 1_555 1_555
N68_8 C154_8 1_555 1_555
N69_8 C155_8 1_555 1_555
N70_8 C154_8 1_555 1_555
C127_7 H77_7 1_555 1_555
C128_7 H78_7 1_555 1_555
C129_8 N59_8 1_555 1_555
C130_8 H80_8 1_555 1_555
C131_8 H81_8 1_555 1_555
H79_8 C129_8 1_555 1_555
C132_7 C127_7 1_555 1_555
C133_7 C128_7 1_555 1_555
C134_8 C129_8 1_555 1_555
C135_8 C130_8 1_555 1_555
C136_8 C131_8 1_555 1_555
H82_7 C132_7 1_555 1_555
H83_7 C133_7 1_555 1_555
H84_8 C134_8 1_555 1_555
H85_8 C135_8 1_555 1_555
H86_8 C136_8 1_555 1_555
C137_7 C132_7 1_555 1_555
C138_7 C133_7 1_555 1_555
C139_8 C134_8 1_555 1_555
C140_8 C135_8 1_555 1_555
C141_8 C136_8 1_555 1_555
H87_7 C137_7 1_555 1_555
H88_7 C138_7 1_555 1_555
H89_8 C139_8 1_555 1_555
H90_8 C140_8 1_555 1_555
H91_8 C141_8 1_555 1_555
C142_7 C137_7 1_555 1_555
C143_7 C138_7 1_555 1_555
C144_8 C139_8 1_555 1_555
C145_8 C140_8 1_555 1_555
C146_8 C141_8 1_555 1_555
C147_7 N57_7 1_555 1_555
C148_7 N58_7 1_555 1_555
C149_8 N59_8 1_555 1_555
C150_8 N60_8 1_555 1_555
C151_8 N61_8 1_555 1_555
H92_7 C147_7 1_555 1_555
H93_7 C148_7 1_555 1_555
H94_8 C149_8 1_555 1_555
H95_8 C150_8 1_555 1_555
H96_8 C151_8 1_555 1_555
C152_7 N10_7 1_555 1_555
C153_7 N66_7 1_555 1_555
C154_8 C144_8 1_555 1_555
C155_8 N68_8 1_555 1_555
C156_8 N69_8 1_555 1_555
C24_7 C25_7 1_555 1_555
N67_7 C153_7 1_555 1_555
N70_8 C156_8 1_555 1_555
C142_7 C147_7 1_555 1_555
C142_7 C153_7 1_555 1_555
C143_7 C148_7 1_555 1_555
C143_7 C152_7 1_555 1_555
C144_8 C149_8 1_555 1_555
C145_8 C150_8 1_555 1_555
C145_8 C156_8 1_555 1_555
C146_8 C151_8 1_555 1_555
C146_8 C155_8 1_555 1_555
S2_9 C2_9 1_555 1_555
N10_8 C26_8 1_555 1_555
C21_8 N9_8 1_555 1_555
H13_8 C21_8 1_555 1_555
C22_8 C21_8 1_555 1_555
H14_8 C22_8 1_555 1_555
C23_8 C22_8 1_555 1_555
H15_8 C23_8 1_555 1_555
C24_8 C23_8 1_555 1_555
C25_8 N9_8 1_555 1_555
H16_8 C25_8 1_555 1_555
C26_8 C24_8 1_555 1_555
Co15_2 N58_8 1_555 1_555
Co14_2 N60_9 1_555 1_555
Co16 N61_9 1_555 1_555
S8_9 C32_9 1_555 1_555
N57_8 C127_8 1_555 1_555
N58_8 C128_8 1_555 1_555
N60_9 C130_9 1_555 1_555
N61_9 C131_9 1_555 1_555
N66_8 C152_8 1_555 1_555
N67_8 C26_8 1_555 1_555
N68_9 C154_9 1_555 1_555
N69_9 C155_9 1_555 1_555
N70_9 C154_9 1_555 1_555
C127_8 H77_8 1_555 1_555
C128_8 H78_8 1_555 1_555
C129_9 N59_9 1_555 1_555
C130_9 H80_9 1_555 1_555
C131_9 H81_9 1_555 1_555
H79_9 C129_9 1_555 1_555
C132_8 C127_8 1_555 1_555
C133_8 C128_8 1_555 1_555
C134_9 C129_9 1_555 1_555
C135_9 C130_9 1_555 1_555
C136_9 C131_9 1_555 1_555
H82_8 C132_8 1_555 1_555
H83_8 C133_8 1_555 1_555
H84_9 C134_9 1_555 1_555
H85_9 C135_9 1_555 1_555
H86_9 C136_9 1_555 1_555
C137_8 C132_8 1_555 1_555
C138_8 C133_8 1_555 1_555
C139_9 C134_9 1_555 1_555
C140_9 C135_9 1_555 1_555
C141_9 C136_9 1_555 1_555
H87_8 C137_8 1_555 1_555
H88_8 C138_8 1_555 1_555
H89_9 C139_9 1_555 1_555
H90_9 C140_9 1_555 1_555
H91_9 C141_9 1_555 1_555
C142_8 C137_8 1_555 1_555
C143_8 C138_8 1_555 1_555
C144_9 C139_9 1_555 1_555
C145_9 C140_9 1_555 1_555
C146_9 C141_9 1_555 1_555
C147_8 N57_8 1_555 1_555
C148_8 N58_8 1_555 1_555
C149_9 N59_9 1_555 1_555
C150_9 N60_9 1_555 1_555
C151_9 N61_9 1_555 1_555
H92_8 C147_8 1_555 1_555
H93_8 C148_8 1_555 1_555
H94_9 C149_9 1_555 1_555
H95_9 C150_9 1_555 1_555
H96_9 C151_9 1_555 1_555
C152_8 N10_8 1_555 1_555
C153_8 N66_8 1_555 1_555
C154_9 C144_9 1_555 1_555
C155_9 N68_9 1_555 1_555
C156_9 N69_9 1_555 1_555
C24_8 C25_8 1_555 1_555
N67_8 C153_8 1_555 1_555
N70_9 C156_9 1_555 1_555
C142_8 C147_8 1_555 1_555
C142_8 C153_8 1_555 1_555
C143_8 C148_8 1_555 1_555
C143_8 C152_8 1_555 1_555
C144_9 C149_9 1_555 1_555
C145_9 C150_9 1_555 1_555
C145_9 C156_9 1_555 1_555
C146_9 C151_9 1_555 1_555
C146_9 C155_9 1_555 1_555
Co1_9 N1_9 1_555 1_555
Co2_6 N2_9 1_555 1_555
S1_9 C1_9 1_555 1_555
N1_9 C1_9 1_555 1_555
N3_7 C3_7 1_555 1_555
N4_7 Co1_9 1_555 1_555
N5_7 C13_7 1_555 1_555
N6_7 C13_7 1_555 1_555
N7_7 C14_7 1_555 1_555
N8_7 Co2_6 1_555 1_555
C3_7 H1_7 1_555 1_555
C4_7 C3_7 1_555 1_555
H2_7 C4_7 1_555 1_555
C5_7 C4_7 1_555 1_555
H3_7 C5_7 1_555 1_555
C6_7 C5_7 1_555 1_555
C7_7 N3_7 1_555 1_555
H4_7 C7_7 1_555 1_555
C8_7 N4_7 1_555 1_555
H5_7 C8_7 1_555 1_555
C9_7 C8_7 1_555 1_555
H6_7 C9_7 1_555 1_555
C10_7 C9_7 1_555 1_555
H7_7 C10_7 1_555 1_555
C11_7 C10_7 1_555 1_555
C12_7 N4_7 1_555 1_555
H8_7 C12_7 1_555 1_555
C13_7 C11_7 1_555 1_555
C14_7 N5_7 1_555 1_555
C15_7 N6_7 1_555 1_555
C16_7 N8_7 1_555 1_555
H9_7 C16_7 1_555 1_555
C17_7 C15_7 1_555 1_555
C18_7 C17_7 1_555 1_555
H10_7 C18_7 1_555 1_555
C19_7 C18_7 1_555 1_555
H11_7 C19_7 1_555 1_555
C20_7 N8_7 1_555 1_555
H12_7 C20_7 1_555 1_555
Co3_8 N12_8 1_555 1_555
Co4_11 N14_9 1_555 1_555
Co5_7 N3_7 1_555 1_555
Co6_10 N23_7 1_555 1_555
Co7_11 N31_8 1_555 1_555
Co8_10 N32_7 1_555 1_555
Co9_9 N17_9 1_555 1_555
Co10_8 N19_8 1_555 1_555
Co13_5 N52_9 1_555 1_555
Co14_6 N54_7 1_555 1_555
S3_9 C27_9 1_555 1_555
S4_8 C28_8 1_555 1_555
S5_8 C29_8 1_555 1_555
S6_9 C30_9 1_555 1_555
S7_9 C31_9 1_555 1_555
S9_9 C33_9 1_555 1_555
S10_9 C34_9 1_555 1_555
S11_8 C35_8 1_555 1_555
S12_8 C36_8 1_555 1_555
N11_9 Co1_9 1_555 1_555
N12_8 C28_8 1_555 1_555
N13_8 Co3_8 1_555 1_555
N14_9 C30_9 1_555 1_555
N15_9 Co4_11 1_555 1_555
N16_9 Co2_6 1_555 1_555
N17_9 C33_9 1_555 1_555
N18_9 Co9_9 1_555 1_555
N19_8 C35_8 1_555 1_555
N20_8 Co10_8 1_555 1_555
N21_9 Co1_9 1_555 1_555
N22_9 Co1_9 1_555 1_555
N23_7 C39_9 1_555 1_555
N24_8 Co3_8 1_555 1_555
N25_7 Co3_8 1_555 1_555
N26_8 Co4_11 1_555 1_555
N27_9 Co4_11 1_555 1_555
N28_8 Co3_8 1_555 1_555
N29_9 Co4_11 1_555 1_555
N30_9 Co1_9 1_555 1_555
N31_8 C65_8 1_555 1_555
N32_7 C66_7 1_555 1_555
N33_8 Co3_8 1_555 1_555
N34_9 Co4_11 1_555 1_555
N35_9 C87_9 1_555 1_555
N36_9 C88_9 1_555 1_555
N37_9 C89_9 1_555 1_555
N38_8 C90_8 1_555 1_555
N39_7 C91_7 1_555 1_555
N40_9 C87_9 1_555 1_555
N41_9 C88_9 1_555 1_555
N42_9 C89_9 1_555 1_555
N43_8 C90_8 1_555 1_555
N44_7 C91_7 1_555 1_555
N45_9 C92_9 1_555 1_555
N46_9 C93_9 1_555 1_555
N47_9 C94_9 1_555 1_555
N48_8 C95_8 1_555 1_555
N49_7 C96_7 1_555 1_555
N50_9 Co9_9 1_555 1_555
N51_8 Co10_8 1_555 1_555
N52_9 C104_9 1_555 1_555
N53_8 Co2_6 1_555 1_555
N54_7 C106_7 1_555 1_555
N55_9 Co9_9 1_555 1_555
N56_8 Co10_8 1_555 1_555
N62_9 Co9_9 1_555 1_555
N63_9 Co9_9 1_555 1_555
N64_8 Co10_8 1_555 1_555
N65_8 Co10_8 1_555 1_555
C27_9 N11_9 1_555 1_555
C29_8 N13_8 1_555 1_555
C31_9 N15_9 1_555 1_555
C34_9 N18_9 1_555 1_555
C36_8 N20_8 1_555 1_555
C37_9 N21_9 1_555 1_555
C38_9 N22_9 1_555 1_555
C39_9 H19_9 1_555 1_555
C40_8 N24_8 1_555 1_555
C41_7 N25_7 1_555 1_555
H17_9 C37_9 1_555 1_555
H18_9 C38_9 1_555 1_555
H20_8 C40_8 1_555 1_555
H21_7 C41_7 1_555 1_555
C42_9 C37_9 1_555 1_555
C43_9 C38_9 1_555 1_555
C44_9 C39_9 1_555 1_555
C45_8 C40_8 1_555 1_555
C46_7 C41_7 1_555 1_555
H22_9 C42_9 1_555 1_555
H23_9 C43_9 1_555 1_555
H24_9 C44_9 1_555 1_555
H25_8 C45_8 1_555 1_555
H26_7 C46_7 1_555 1_555
C47_9 C42_9 1_555 1_555
C48_9 C43_9 1_555 1_555
C49_9 C44_9 1_555 1_555
C50_8 C45_8 1_555 1_555
C51_7 C46_7 1_555 1_555
H27_9 C47_9 1_555 1_555
H28_9 C48_9 1_555 1_555
H29_9 C49_9 1_555 1_555
H30_8 C50_8 1_555 1_555
H31_7 C51_7 1_555 1_555
C52_9 C47_9 1_555 1_555
C53_9 C48_9 1_555 1_555
C54_9 C49_9 1_555 1_555
C55_8 C50_8 1_555 1_555
C56_7 C51_7 1_555 1_555
C57_9 N21_9 1_555 1_555
C58_9 N22_9 1_555 1_555
C59_9 N23_7 1_555 1_555
C60_8 N24_8 1_555 1_555
C61_7 N25_7 1_555 1_555
H32_9 C57_9 1_555 1_555
H33_9 C58_9 1_555 1_555
H34_9 C59_9 1_555 1_555
H35_8 C60_8 1_555 1_555
H36_7 C61_7 1_555 1_555
C62_9 N28_8 1_555 1_555
C63_9 N29_9 1_555 1_555
C64_9 N30_9 1_555 1_555
C65_8 H40_8 1_555 1_555
C66_7 H41_7 1_555 1_555
H37_9 C62_9 1_555 1_555
H38_9 C63_9 1_555 1_555
H39_9 C64_9 1_555 1_555
C67_9 C62_9 1_555 1_555
C68_9 C63_9 1_555 1_555
C69_9 C64_9 1_555 1_555
C70_8 C65_8 1_555 1_555
C71_7 C66_7 1_555 1_555
H42_9 C67_9 1_555 1_555
H43_9 C68_9 1_555 1_555
H44_9 C69_9 1_555 1_555
H45_8 C70_8 1_555 1_555
H46_7 C71_7 1_555 1_555
C72_9 C67_9 1_555 1_555
C73_9 C68_9 1_555 1_555
C74_9 C69_9 1_555 1_555
C75_8 C70_8 1_555 1_555
C76_7 C71_7 1_555 1_555
H47_9 C72_9 1_555 1_555
H48_9 C73_9 1_555 1_555
H49_9 C74_9 1_555 1_555
H50_8 C75_8 1_555 1_555
H51_7 C76_7 1_555 1_555
C77_9 C72_9 1_555 1_555
C78_9 C73_9 1_555 1_555
C79_9 C74_9 1_555 1_555
C80_8 C75_8 1_555 1_555
C81_7 C76_7 1_555 1_555
C82_9 N28_8 1_555 1_555
C83_9 N29_9 1_555 1_555
C84_9 N30_9 1_555 1_555
C85_8 N31_8 1_555 1_555
C86_7 N32_7 1_555 1_555
H52_9 C82_9 1_555 1_555
H53_9 C83_9 1_555 1_555
H54_9 C84_9 1_555 1_555
H55_8 C85_8 1_555 1_555
H56_7 C86_7 1_555 1_555
C87_9 C77_9 1_555 1_555
C88_9 C78_9 1_555 1_555
C89_9 C79_9 1_555 1_555
C90_8 C80_8 1_555 1_555
C91_7 C81_7 1_555 1_555
C92_9 N35_9 1_555 1_555
C93_9 N36_9 1_555 1_555
C94_9 N37_9 1_555 1_555
C95_8 N38_8 1_555 1_555
C96_7 N39_7 1_555 1_555
C97_9 N40_9 1_555 1_555
C98_9 N41_9 1_555 1_555
C99_9 N42_9 1_555 1_555
C100_8 N43_8 1_555 1_555
C101_7 N44_7 1_555 1_555
C102_9 N50_9 1_555 1_555
C103_9 N51_8 1_555 1_555
C104_9 H59_9 1_555 1_555
C105_8 N53_8 1_555 1_555
C106_7 H61_7 1_555 1_555
H57_9 C102_9 1_555 1_555
H58_9 C103_9 1_555 1_555
H60_8 C105_8 1_555 1_555
C107_9 C97_9 1_555 1_555
C108_9 C98_9 1_555 1_555
C109_9 C99_9 1_555 1_555
C110_8 C100_8 1_555 1_555
C111_7 C101_7 1_555 1_555
C112_9 C107_9 1_555 1_555
C113_9 C108_9 1_555 1_555
C114_9 C109_9 1_555 1_555
C115_8 C110_8 1_555 1_555
C116_7 C111_7 1_555 1_555
H62_9 C112_9 1_555 1_555
H63_9 C113_9 1_555 1_555
H64_9 C114_9 1_555 1_555
H65_8 C115_8 1_555 1_555
H66_7 C116_7 1_555 1_555
C117_9 C112_9 1_555 1_555
C118_9 C113_9 1_555 1_555
C119_9 C114_9 1_555 1_555
C120_8 C115_8 1_555 1_555
C121_7 C116_7 1_555 1_555
H67_9 C117_9 1_555 1_555
H68_9 C118_9 1_555 1_555
H69_9 C119_9 1_555 1_555
H70_8 C120_8 1_555 1_555
H71_7 C121_7 1_555 1_555
C122_9 N50_9 1_555 1_555
C123_9 N51_8 1_555 1_555
C124_9 N52_9 1_555 1_555
C125_8 N53_8 1_555 1_555
C126_7 N54_7 1_555 1_555
H72_9 C122_9 1_555 1_555
H73_9 C123_9 1_555 1_555
H74_9 C124_9 1_555 1_555
H75_8 C125_8 1_555 1_555
H76_7 C126_7 1_555 1_555
N7_7 C15_7 1_555 1_555
C6_7 C7_7 1_555 1_555
C6_7 C14_7 1_555 1_555
C11_7 C12_7 1_555 1_555
C16_7 C17_7 1_555 1_555
C19_7 C20_7 1_555 1_555
N45_9 C97_9 1_555 1_555
N46_9 C98_9 1_555 1_555
N47_9 C99_9 1_555 1_555
N48_8 C100_8 1_555 1_555
N49_7 C101_7 1_555 1_555
C52_9 C57_9 1_555 1_555
C52_9 C92_9 1_555 1_555
C53_9 C58_9 1_555 1_555
C53_9 C93_9 1_555 1_555
C54_9 C59_9 1_555 1_555
C54_9 C94_9 1_555 1_555
C55_8 C60_8 1_555 1_555
C55_8 C95_8 1_555 1_555
C56_7 C61_7 1_555 1_555
C56_7 C96_7 1_555 1_555
C77_9 C82_9 1_555 1_555
C78_9 C83_9 1_555 1_555
C79_9 C84_9 1_555 1_555
C80_8 C85_8 1_555 1_555
C81_7 C86_7 1_555 1_555
C102_9 C107_9 1_555 1_555
C103_9 C108_9 1_555 1_555
C104_9 C109_9 1_555 1_555
C105_8 C110_8 1_555 1_555
C106_7 C111_7 1_555 1_555
C117_9 C122_9 1_555 1_555
C118_9 C123_9 1_555 1_555
C119_9 C124_9 1_555 1_555
C120_8 C125_8 1_555 1_555
C121_7 C126_7 1_555 1_555
Co1_10 N1_10 1_555 1_555
Co2_7 N2_10 1_555 1_555
S1_10 C1_10 1_555 1_555
N1_10 C1_10 1_555 1_555
N3_8 C3_8 1_555 1_555
N4_8 Co1_10 1_555 1_555
N5_8 C13_8 1_555 1_555
N6_8 C13_8 1_555 1_555
N7_8 C14_8 1_555 1_555
N8_8 Co2_7 1_555 1_555
C3_8 H1_8 1_555 1_555
C4_8 C3_8 1_555 1_555
H2_8 C4_8 1_555 1_555
C5_8 C4_8 1_555 1_555
H3_8 C5_8 1_555 1_555
C6_8 C5_8 1_555 1_555
C7_8 N3_8 1_555 1_555
H4_8 C7_8 1_555 1_555
C8_8 N4_8 1_555 1_555
H5_8 C8_8 1_555 1_555
C9_8 C8_8 1_555 1_555
H6_8 C9_8 1_555 1_555
C10_8 C9_8 1_555 1_555
H7_8 C10_8 1_555 1_555
C11_8 C10_8 1_555 1_555
C12_8 N4_8 1_555 1_555
H8_8 C12_8 1_555 1_555
C13_8 C11_8 1_555 1_555
C14_8 N5_8 1_555 1_555
C15_8 N6_8 1_555 1_555
C16_8 N8_8 1_555 1_555
H9_8 C16_8 1_555 1_555
C17_8 C15_8 1_555 1_555
C18_8 C17_8 1_555 1_555
H10_8 C18_8 1_555 1_555
C19_8 C18_8 1_555 1_555
H11_8 C19_8 1_555 1_555
C20_8 N8_8 1_555 1_555
H12_8 C20_8 1_555 1_555
Co6 N14_10 1_555 1_555
Co5_8 N3_8 1_555 1_555
Co7_13 N31_9 1_555 1_555
Co8_11 N32_8 1_555 1_555
Co9_10 N17_10 1_555 1_555
Co13 N52_10 1_555 1_555
Co15_2 N54_8 1_555 1_555
S3_10 C27_10 1_555 1_555
S6_10 C30_10 1_555 1_555
S7_10 C31_10 1_555 1_555
S9_10 C33_10 1_555 1_555
S10_10 C34_10 1_555 1_555
N11_10 Co1_10 1_555 1_555
N14_10 C30_10 1_555 1_555
N15_10 Co6 1_555 1_555
N16_10 Co2_7 1_555 1_555
N17_10 C33_10 1_555 1_555
N18_10 Co9_10 1_555 1_555
N21_10 Co1_10 1_555 1_555
N22_10 Co1_10 1_555 1_555
N26 C39_10 1_555 1_555
N27_10 Co6 1_555 1_555
N29_10 Co6 1_555 1_555
N30_10 Co1_10 1_555 1_555
N31_9 C65_9 1_555 1_555
N32_8 C66_8 1_555 1_555
N34_10 Co6 1_555 1_555
N35_10 C87_10 1_555 1_555
N36_10 C88_10 1_555 1_555
N37_10 C89_10 1_555 1_555
N38_9 C90_9 1_555 1_555
N39_8 C91_8 1_555 1_555
N40_10 C87_10 1_555 1_555
N41_10 C88_10 1_555 1_555
N42_10 C89_10 1_555 1_555
N43_9 C90_9 1_555 1_555
N44_8 C91_8 1_555 1_555
N45_10 C92_10 1_555 1_555
N46_10 C93_10 1_555 1_555
N47_10 C94_10 1_555 1_555
N48_9 C95_9 1_555 1_555
N49_8 C96_8 1_555 1_555
N50_10 Co9_10 1_555 1_555
N52_10 C104_10 1_555 1_555
N53_9 Co2_7 1_555 1_555
N54_8 C106_8 1_555 1_555
N55_10 Co9_10 1_555 1_555
N62_10 Co9_10 1_555 1_555
N63_10 Co9_10 1_555 1_555
C27_10 N11_10 1_555 1_555
C31_10 N15_10 1_555 1_555
C34_10 N18_10 1_555 1_555
C37_10 N21_10 1_555 1_555
C38_10 N22_10 1_555 1_555
C39_10 H19_10 1_555 1_555
C40_9 N27_6 1_555 1_555
C41_8 N26_6 1_555 1_555
H17_10 C37_10 1_555 1_555
H18_10 C38_10 1_555 1_555
H20_9 C40_9 1_555 1_555
H21_8 C41_8 1_555 1_555
C42_10 C37_10 1_555 1_555
C43_10 C38_10 1_555 1_555
C44_10 C39_10 1_555 1_555
C45_9 C40_9 1_555 1_555
C46_8 C41_8 1_555 1_555
H22_10 C42_10 1_555 1_555
H23_10 C43_10 1_555 1_555
H24_10 C44_10 1_555 1_555
H25_9 C45_9 1_555 1_555
H26_8 C46_8 1_555 1_555
C47_10 C42_10 1_555 1_555
C48_10 C43_10 1_555 1_555
C49_10 C44_10 1_555 1_555
C50_9 C45_9 1_555 1_555
C51_8 C46_8 1_555 1_555
H27_10 C47_10 1_555 1_555
H28_10 C48_10 1_555 1_555
H29_10 C49_10 1_555 1_555
H30_9 C50_9 1_555 1_555
H31_8 C51_8 1_555 1_555
C52_10 C47_10 1_555 1_555
C53_10 C48_10 1_555 1_555
C54_10 C49_10 1_555 1_555
C55_9 C50_9 1_555 1_555
C56_8 C51_8 1_555 1_555
C57_10 N21_10 1_555 1_555
C58_10 N22_10 1_555 1_555
C59_10 N26 1_555 1_555
C60_9 N27_6 1_555 1_555
C61_8 N26_6 1_555 1_555
H32_10 C57_10 1_555 1_555
H33_10 C58_10 1_555 1_555
H34_10 C59_10 1_555 1_555
H35_9 C60_9 1_555 1_555
H36_8 C61_8 1_555 1_555
C62_10 N34_6 1_555 1_555
C63_10 N29_10 1_555 1_555
C64_10 N30_10 1_555 1_555
C65_9 H40_9 1_555 1_555
C66_8 H41_8 1_555 1_555
H37_10 C62_10 1_555 1_555
H38_10 C63_10 1_555 1_555
H39_10 C64_10 1_555 1_555
C67_10 C62_10 1_555 1_555
C68_10 C63_10 1_555 1_555
C69_10 C64_10 1_555 1_555
C70_9 C65_9 1_555 1_555
C71_8 C66_8 1_555 1_555
H42_10 C67_10 1_555 1_555
H43_10 C68_10 1_555 1_555
H44_10 C69_10 1_555 1_555
H45_9 C70_9 1_555 1_555
H46_8 C71_8 1_555 1_555
C72_10 C67_10 1_555 1_555
C73_10 C68_10 1_555 1_555
C74_10 C69_10 1_555 1_555
C75_9 C70_9 1_555 1_555
C76_8 C71_8 1_555 1_555
H47_10 C72_10 1_555 1_555
H48_10 C73_10 1_555 1_555
H49_10 C74_10 1_555 1_555
H50_9 C75_9 1_555 1_555
H51_8 C76_8 1_555 1_555
C77_10 C72_10 1_555 1_555
C78_10 C73_10 1_555 1_555
C79_10 C74_10 1_555 1_555
C80_9 C75_9 1_555 1_555
C81_8 C76_8 1_555 1_555
C82_10 N34_6 1_555 1_555
C83_10 N29_10 1_555 1_555
C84_10 N30_10 1_555 1_555
C85_9 N31_9 1_555 1_555
C86_8 N32_8 1_555 1_555
H52_10 C82_10 1_555 1_555
H53_10 C83_10 1_555 1_555
H54_10 C84_10 1_555 1_555
H55_9 C85_9 1_555 1_555
H56_8 C86_8 1_555 1_555
C87_10 C77_10 1_555 1_555
C88_10 C78_10 1_555 1_555
C89_10 C79_10 1_555 1_555
C90_9 C80_9 1_555 1_555
C91_8 C81_8 1_555 1_555
C92_10 N35_10 1_555 1_555
C93_10 N36_10 1_555 1_555
C94_10 N37_10 1_555 1_555
C95_9 N38_9 1_555 1_555
C96_8 N39_8 1_555 1_555
C97_10 N40_10 1_555 1_555
C98_10 N41_10 1_555 1_555
C99_10 N42_10 1_555 1_555
C100_9 N43_9 1_555 1_555
C101_8 N44_8 1_555 1_555
C102_10 N50_10 1_555 1_555
C103_10 N56 1_555 1_555
C104_10 H59_10 1_555 1_555
C105_9 N53_9 1_555 1_555
C106_8 H61_8 1_555 1_555
H57_10 C102_10 1_555 1_555
H58_10 C103_10 1_555 1_555
H60_9 C105_9 1_555 1_555
C107_10 C97_10 1_555 1_555
C108_10 C98_10 1_555 1_555
C109_10 C99_10 1_555 1_555
C110_9 C100_9 1_555 1_555
C111_8 C101_8 1_555 1_555
C112_10 C107_10 1_555 1_555
C113_10 C108_10 1_555 1_555
C114_10 C109_10 1_555 1_555
C115_9 C110_9 1_555 1_555
C116_8 C111_8 1_555 1_555
H62_10 C112_10 1_555 1_555
H63_10 C113_10 1_555 1_555
H64_10 C114_10 1_555 1_555
H65_9 C115_9 1_555 1_555
H66_8 C116_8 1_555 1_555
C117_10 C112_10 1_555 1_555
C118_10 C113_10 1_555 1_555
C119_10 C114_10 1_555 1_555
C120_9 C115_9 1_555 1_555
C121_8 C116_8 1_555 1_555
H67_10 C117_10 1_555 1_555
H68_10 C118_10 1_555 1_555
H69_10 C119_10 1_555 1_555
H70_9 C120_9 1_555 1_555
H71_8 C121_8 1_555 1_555
C122_10 N50_10 1_555 1_555
C123_10 N56 1_555 1_555
C124_10 N52_10 1_555 1_555
C125_9 N53_9 1_555 1_555
C126_8 N54_8 1_555 1_555
H72_10 C122_10 1_555 1_555
H73_10 C123_10 1_555 1_555
H74_10 C124_10 1_555 1_555
H75_9 C125_9 1_555 1_555
H76_8 C126_8 1_555 1_555
N7_8 C15_8 1_555 1_555
C6_8 C7_8 1_555 1_555
C6_8 C14_8 1_555 1_555
C11_8 C12_8 1_555 1_555
C16_8 C17_8 1_555 1_555
C19_8 C20_8 1_555 1_555
N45_10 C97_10 1_555 1_555
N46_10 C98_10 1_555 1_555
N47_10 C99_10 1_555 1_555
N48_9 C100_9 1_555 1_555
N49_8 C101_8 1_555 1_555
C52_10 C57_10 1_555 1_555
C52_10 C92_10 1_555 1_555
C53_10 C58_10 1_555 1_555
C53_10 C93_10 1_555 1_555
C54_10 C59_10 1_555 1_555
C54_10 C94_10 1_555 1_555
C55_9 C60_9 1_555 1_555
C55_9 C95_9 1_555 1_555
C56_8 C61_8 1_555 1_555
C56_8 C96_8 1_555 1_555
C77_10 C82_10 1_555 1_555
C78_10 C83_10 1_555 1_555
C79_10 C84_10 1_555 1_555
C80_9 C85_9 1_555 1_555
C81_8 C86_8 1_555 1_555
C102_10 C107_10 1_555 1_555
C103_10 C108_10 1_555 1_555
C104_10 C109_10 1_555 1_555
C105_9 C110_9 1_555 1_555
C106_8 C111_8 1_555 1_555
C117_10 C122_10 1_555 1_555
C118_10 C123_10 1_555 1_555
C119_10 C124_10 1_555 1_555
C120_9 C125_9 1_555 1_555
C121_8 C126_8 1_555 1_555
S2_10 C2_10 1_555 1_555
N10_9 C26_9 1_555 1_555
C21_9 N9_9 1_555 1_555
H13_9 C21_9 1_555 1_555
C22_9 C21_9 1_555 1_555
H14_9 C22_9 1_555 1_555
C23_9 C22_9 1_555 1_555
H15_9 C23_9 1_555 1_555
C24_9 C23_9 1_555 1_555
C25_9 N9_9 1_555 1_555
H16_9 C25_9 1_555 1_555
C26_9 C24_9 1_555 1_555
Co13_5 N57_9 1_555 1_555
Co12_7 N58_9 1_555 1_555
Co14_7 N60_10 1_555 1_555
Co15_8 N61_10 1_555 1_555
S8_10 C32_10 1_555 1_555
N57_9 C127_9 1_555 1_555
N58_9 C128_9 1_555 1_555
N60_10 C130_10 1_555 1_555
N61_10 C131_10 1_555 1_555
N66_9 C152_9 1_555 1_555
N67_9 C26_9 1_555 1_555
N68_10 C154_10 1_555 1_555
N69_10 C155_10 1_555 1_555
N70_10 C154_10 1_555 1_555
C127_9 H77_9 1_555 1_555
C128_9 H78_9 1_555 1_555
C129_10 N59_10 1_555 1_555
C130_10 H80_10 1_555 1_555
C131_10 H81_10 1_555 1_555
H79_10 C129_10 1_555 1_555
C132_9 C127_9 1_555 1_555
C133_9 C128_9 1_555 1_555
C134_10 C129_10 1_555 1_555
C135_10 C130_10 1_555 1_555
C136_10 C131_10 1_555 1_555
H82_9 C132_9 1_555 1_555
H83_9 C133_9 1_555 1_555
H84_10 C134_10 1_555 1_555
H85_10 C135_10 1_555 1_555
H86_10 C136_10 1_555 1_555
C137_9 C132_9 1_555 1_555
C138_9 C133_9 1_555 1_555
C139_10 C134_10 1_555 1_555
C140_10 C135_10 1_555 1_555
C141_10 C136_10 1_555 1_555
H87_9 C137_9 1_555 1_555
H88_9 C138_9 1_555 1_555
H89_10 C139_10 1_555 1_555
H90_10 C140_10 1_555 1_555
H91_10 C141_10 1_555 1_555
C142_9 C137_9 1_555 1_555
C143_9 C138_9 1_555 1_555
C144_10 C139_10 1_555 1_555
C145_10 C140_10 1_555 1_555
C146_10 C141_10 1_555 1_555
C147_9 N57_9 1_555 1_555
C148_9 N58_9 1_555 1_555
C149_10 N59_10 1_555 1_555
C150_10 N60_10 1_555 1_555
C151_10 N61_10 1_555 1_555
H92_9 C147_9 1_555 1_555
H93_9 C148_9 1_555 1_555
H94_10 C149_10 1_555 1_555
H95_10 C150_10 1_555 1_555
H96_10 C151_10 1_555 1_555
C152_9 N10_9 1_555 1_555
C153_9 N66_9 1_555 1_555
C154_10 C144_10 1_555 1_555
C155_10 N68_10 1_555 1_555
C156_10 N69_10 1_555 1_555
C24_9 C25_9 1_555 1_555
N67_9 C153_9 1_555 1_555
N70_10 C156_10 1_555 1_555
C142_9 C147_9 1_555 1_555
C142_9 C153_9 1_555 1_555
C143_9 C148_9 1_555 1_555
C143_9 C152_9 1_555 1_555
C144_10 C149_10 1_555 1_555
C145_10 C150_10 1_555 1_555
C145_10 C156_10 1_555 1_555
C146_10 C151_10 1_555 1_555
C146_10 C155_10 1_555 1_555
Co13_3 N2_11 1_555 1_555
S2_11 C2_11 1_555 1_555
N2_11 C2_11 1_555 1_555
N9_10 Co13_3 1_555 1_555
N10_10 C26_10 1_555 1_555
C21_10 N9_10 1_555 1_555
H13_10 C21_10 1_555 1_555
C22_10 C21_10 1_555 1_555
H14_10 C22_10 1_555 1_555
C23_10 C22_10 1_555 1_555
H15_10 C23_10 1_555 1_555
C24_10 C23_10 1_555 1_555
C25_10 N9_10 1_555 1_555
H16_10 C25_10 1_555 1_555
C26_10 C24_10 1_555 1_555
Co7_14 N31_10 1_555 1_555
Co12_5 N57_10 1_555 1_555
Co12_8 N58_10 1_555 1_555
S8_11 C32_11 1_555 1_555
N16_11 Co13_3 1_555 1_555
N31_10 C65_10 1_555 1_555
N38_10 C90_10 1_555 1_555
N43_10 C90_10 1_555 1_555
N48_10 C95_10 1_555 1_555
N53_10 Co13_3 1_555 1_555
N57_10 C127_10 1_555 1_555
N58_10 C128_10 1_555 1_555
N66_10 C152_10 1_555 1_555
N67_10 C26_10 1_555 1_555
C32_11 N16_11 1_555 1_555
C40_10 N26_4 1_555 1_555
H20_10 C40_10 1_555 1_555
C45_10 C40_10 1_555 1_555
H25_10 C45_10 1_555 1_555
C50_10 C45_10 1_555 1_555
H30_10 C50_10 1_555 1_555
C55_10 C50_10 1_555 1_555
C60_10 N26_4 1_555 1_555
H35_10 C60_10 1_555 1_555
C65_10 H40_10 1_555 1_555
C70_10 C65_10 1_555 1_555
H45_10 C70_10 1_555 1_555
C75_10 C70_10 1_555 1_555
H50_10 C75_10 1_555 1_555
C80_10 C75_10 1_555 1_555
C85_10 N31_10 1_555 1_555
H55_10 C85_10 1_555 1_555
C90_10 C80_10 1_555 1_555
C95_10 N38_10 1_555 1_555
C100_10 N43_10 1_555 1_555
C105_10 N53_10 1_555 1_555
H60_10 C105_10 1_555 1_555
C110_10 C100_10 1_555 1_555
C115_10 C110_10 1_555 1_555
H65_10 C115_10 1_555 1_555
C120_10 C115_10 1_555 1_555
H70_10 C120_10 1_555 1_555
C125_10 N53_10 1_555 1_555
H75_10 C125_10 1_555 1_555
C127_10 H77_10 1_555 1_555
C128_10 H78_10 1_555 1_555
C132_10 C127_10 1_555 1_555
C133_10 C128_10 1_555 1_555
H82_10 C132_10 1_555 1_555
H83_10 C133_10 1_555 1_555
C137_10 C132_10 1_555 1_555
C138_10 C133_10 1_555 1_555
H87_10 C137_10 1_555 1_555
H88_10 C138_10 1_555 1_555
C142_10 C137_10 1_555 1_555
C143_10 C138_10 1_555 1_555
C147_10 N57_10 1_555 1_555
C148_10 N58_10 1_555 1_555
H92_10 C147_10 1_555 1_555
H93_10 C148_10 1_555 1_555
C152_10 N10_10 1_555 1_555
C153_10 N66_10 1_555 1_555
C24_10 C25_10 1_555 1_555
N48_10 C100_10 1_555 1_555
N67_10 C153_10 1_555 1_555
C55_10 C60_10 1_555 1_555
C55_10 C95_10 1_555 1_555
C80_10 C85_10 1_555 1_555
C105_10 C110_10 1_555 1_555
C120_10 C125_10 1_555 1_555
C142_10 C147_10 1_555 1_555
C142_10 C153_10 1_555 1_555
C143_10 C148_10 1_555 1_555
C143_10 C152_10 1_555 1_555
S7_11 C31_11 1_555 1_555
S9_11 C33_11 1_555 1_555
S10_11 C34_11 1_555 1_555
N15_11 Co6_9 1_555 1_555
N27_11 Co6_9 1_555 1_555
N34_11 Co6_9 1_555 1_555
C31_11 N15_11 1_555 1_555
Co1_11 N1_11 1_555 1_555
Co14_3 N2_12 1_555 1_555
S1_11 C1_11 1_555 1_555
S2_12 C2_12 1_555 1_555
N1_11 C1_11 1_555 1_555
N2_12 C2_12 1_555 1_555
N3_9 C3_9 1_555 1_555
N4_9 Co1_11 1_555 1_555
N5_9 C13_9 1_555 1_555
N6_9 C13_9 1_555 1_555
N7_9 C14_9 1_555 1_555
N8_9 Co14_3 1_555 1_555
N9_11 Co14_3 1_555 1_555
N10_11 C26_11 1_555 1_555
C3_9 H1_9 1_555 1_555
C4_9 C3_9 1_555 1_555
H2_9 C4_9 1_555 1_555
C5_9 C4_9 1_555 1_555
H3_9 C5_9 1_555 1_555
C6_9 C5_9 1_555 1_555
C7_9 N3_9 1_555 1_555
H4_9 C7_9 1_555 1_555
C8_9 N4_9 1_555 1_555
H5_9 C8_9 1_555 1_555
C9_9 C8_9 1_555 1_555
H6_9 C9_9 1_555 1_555
C10_9 C9_9 1_555 1_555
H7_9 C10_9 1_555 1_555
C11_9 C10_9 1_555 1_555
C12_9 N4_9 1_555 1_555
H8_9 C12_9 1_555 1_555
C13_9 C11_9 1_555 1_555
C14_9 N5_9 1_555 1_555
C15_9 N6_9 1_555 1_555
C16_9 N8_9 1_555 1_555
H9_9 C16_9 1_555 1_555
C17_9 C15_9 1_555 1_555
C18_9 C17_9 1_555 1_555
H10_9 C18_9 1_555 1_555
C19_9 C18_9 1_555 1_555
H11_9 C19_9 1_555 1_555
C20_9 N8_9 1_555 1_555
H12_9 C20_9 1_555 1_555
C21_11 N9_11 1_555 1_555
H13_11 C21_11 1_555 1_555
C22_11 C21_11 1_555 1_555
H14_11 C22_11 1_555 1_555
C23_11 C22_11 1_555 1_555
H15_11 C23_11 1_555 1_555
C24_11 C23_11 1_555 1_555
C25_11 N9_11 1_555 1_555
H16_11 C25_11 1_555 1_555
C26_11 C24_11 1_555 1_555
Co6_10 N14_11 1_555 1_555
Co5_9 N3_9 1_555 1_555
Co7_15 N31_11 1_555 1_555
Co9_11 N17_11 1_555 1_555
Co12_2 N57_11 1_555 1_555
Co12_9 N58_11 1_555 1_555
Co13_5 N52_11 1_555 1_555
S3_11 C27_11 1_555 1_555
S6_11 C30_11 1_555 1_555
S8_12 C32_12 1_555 1_555
N11_11 Co1_11 1_555 1_555
N14_11 C30_11 1_555 1_555
N16_12 Co14_3 1_555 1_555
N18_11 Co9_11 1_555 1_555
N21_11 Co1_11 1_555 1_555
N22_11 Co1_11 1_555 1_555
N26_8 C39_11 1_555 1_555
N29_11 Co6_10 1_555 1_555
N30_11 Co1_11 1_555 1_555
N31_11 C65_11 1_555 1_555
N35_11 C87_11 1_555 1_555
N36_11 C88_11 1_555 1_555
N37_11 C89_11 1_555 1_555
N38_11 C90_11 1_555 1_555
N40_11 C87_11 1_555 1_555
N41_11 C88_11 1_555 1_555
N42_11 C89_11 1_555 1_555
N43_11 C90_11 1_555 1_555
N45_11 C92_11 1_555 1_555
N46_11 C93_11 1_555 1_555
N47_11 C94_11 1_555 1_555
N48_11 C95_11 1_555 1_555
N50_11 Co9_11 1_555 1_555
N52_11 C104_11 1_555 1_555
N53_11 Co14_3 1_555 1_555
N55_11 Co9_11 1_555 1_555
N57_11 C127_11 1_555 1_555
N58_11 C128_11 1_555 1_555
N66_11 C152_11 1_555 1_555
N67_11 C26_11 1_555 1_555
C27_11 N11_11 1_555 1_555
C32_12 N16_12 1_555 1_555
C37_11 N21_11 1_555 1_555
C38_11 N22_11 1_555 1_555
C39_11 H19_11 1_555 1_555
C40_11 N27_7 1_555 1_555
H17_11 C37_11 1_555 1_555
H18_11 C38_11 1_555 1_555
H20_11 C40_11 1_555 1_555
C42_11 C37_11 1_555 1_555
C43_11 C38_11 1_555 1_555
C44_11 C39_11 1_555 1_555
C45_11 C40_11 1_555 1_555
H22_11 C42_11 1_555 1_555
H23_11 C43_11 1_555 1_555
H24_11 C44_11 1_555 1_555
H25_11 C45_11 1_555 1_555
C47_11 C42_11 1_555 1_555
C48_11 C43_11 1_555 1_555
C49_11 C44_11 1_555 1_555
C50_11 C45_11 1_555 1_555
H27_11 C47_11 1_555 1_555
H28_11 C48_11 1_555 1_555
H29_11 C49_11 1_555 1_555
H30_11 C50_11 1_555 1_555
C52_11 C47_11 1_555 1_555
C53_11 C48_11 1_555 1_555
C54_11 C49_11 1_555 1_555
C55_11 C50_11 1_555 1_555
C57_11 N21_11 1_555 1_555
C58_11 N22_11 1_555 1_555
C59_11 N26_8 1_555 1_555
C60_11 N27_7 1_555 1_555
H32_11 C57_11 1_555 1_555
H33_11 C58_11 1_555 1_555
H34_11 C59_11 1_555 1_555
H35_11 C60_11 1_555 1_555
C62_11 N34_7 1_555 1_555
C63_11 N29_11 1_555 1_555
C64_11 N30_11 1_555 1_555
C65_11 H40_11 1_555 1_555
H37_11 C62_11 1_555 1_555
H38_11 C63_11 1_555 1_555
H39_11 C64_11 1_555 1_555
C67_11 C62_11 1_555 1_555
C68_11 C63_11 1_555 1_555
C69_11 C64_11 1_555 1_555
C70_11 C65_11 1_555 1_555
H42_11 C67_11 1_555 1_555
H43_11 C68_11 1_555 1_555
H44_11 C69_11 1_555 1_555
H45_11 C70_11 1_555 1_555
C72_11 C67_11 1_555 1_555
C73_11 C68_11 1_555 1_555
C74_11 C69_11 1_555 1_555
C75_11 C70_11 1_555 1_555
H47_11 C72_11 1_555 1_555
H48_11 C73_11 1_555 1_555
H49_11 C74_11 1_555 1_555
H50_11 C75_11 1_555 1_555
C77_11 C72_11 1_555 1_555
C78_11 C73_11 1_555 1_555
C79_11 C74_11 1_555 1_555
C80_11 C75_11 1_555 1_555
C82_11 N34_7 1_555 1_555
C83_11 N29_11 1_555 1_555
C84_11 N30_11 1_555 1_555
C85_11 N31_11 1_555 1_555
H52_11 C82_11 1_555 1_555
H53_11 C83_11 1_555 1_555
H54_11 C84_11 1_555 1_555
H55_11 C85_11 1_555 1_555
C87_11 C77_11 1_555 1_555
C88_11 C78_11 1_555 1_555
C89_11 C79_11 1_555 1_555
C90_11 C80_11 1_555 1_555
C92_11 N35_11 1_555 1_555
C93_11 N36_11 1_555 1_555
C94_11 N37_11 1_555 1_555
C95_11 N38_11 1_555 1_555
C97_11 N40_11 1_555 1_555
C98_11 N41_11 1_555 1_555
C99_11 N42_11 1_555 1_555
C100_11 N43_11 1_555 1_555
C102_11 N50_11 1_555 1_555
C103_11 N56_8 1_555 1_555
C104_11 H59_11 1_555 1_555
C105_11 N53_11 1_555 1_555
H57_11 C102_11 1_555 1_555
H58_11 C103_11 1_555 1_555
H60_11 C105_11 1_555 1_555
C107_11 C97_11 1_555 1_555
C108_11 C98_11 1_555 1_555
C109_11 C99_11 1_555 1_555
C110_11 C100_11 1_555 1_555
C112_11 C107_11 1_555 1_555
C113_11 C108_11 1_555 1_555
C114_11 C109_11 1_555 1_555
C115_11 C110_11 1_555 1_555
H62_11 C112_11 1_555 1_555
H63_11 C113_11 1_555 1_555
H64_11 C114_11 1_555 1_555
H65_11 C115_11 1_555 1_555
C117_11 C112_11 1_555 1_555
C118_11 C113_11 1_555 1_555
C119_11 C114_11 1_555 1_555
C120_11 C115_11 1_555 1_555
H67_11 C117_11 1_555 1_555
H68_11 C118_11 1_555 1_555
H69_11 C119_11 1_555 1_555
H70_11 C120_11 1_555 1_555
C122_11 N50_11 1_555 1_555
C123_11 N56_8 1_555 1_555
C124_11 N52_11 1_555 1_555
C125_11 N53_11 1_555 1_555
H72_11 C122_11 1_555 1_555
H73_11 C123_11 1_555 1_555
H74_11 C124_11 1_555 1_555
H75_11 C125_11 1_555 1_555
C127_11 H77_11 1_555 1_555
C128_11 H78_11 1_555 1_555
C132_11 C127_11 1_555 1_555
C133_11 C128_11 1_555 1_555
H82_11 C132_11 1_555 1_555
H83_11 C133_11 1_555 1_555
C137_11 C132_11 1_555 1_555
C138_11 C133_11 1_555 1_555
H87_11 C137_11 1_555 1_555
H88_11 C138_11 1_555 1_555
C142_11 C137_11 1_555 1_555
C143_11 C138_11 1_555 1_555
C147_11 N57_11 1_555 1_555
C148_11 N58_11 1_555 1_555
H92_11 C147_11 1_555 1_555
H93_11 C148_11 1_555 1_555
C152_11 N10_11 1_555 1_555
C153_11 N66_11 1_555 1_555
N7_9 C15_9 1_555 1_555
C6_9 C7_9 1_555 1_555
C6_9 C14_9 1_555 1_555
C11_9 C12_9 1_555 1_555
C16_9 C17_9 1_555 1_555
C19_9 C20_9 1_555 1_555
C24_11 C25_11 1_555 1_555
N45_11 C97_11 1_555 1_555
N46_11 C98_11 1_555 1_555
N47_11 C99_11 1_555 1_555
N48_11 C100_11 1_555 1_555
N67_11 C153_11 1_555 1_555
C52_11 C57_11 1_555 1_555
C52_11 C92_11 1_555 1_555
C53_11 C58_11 1_555 1_555
C53_11 C93_11 1_555 1_555
C54_11 C59_11 1_555 1_555
C54_11 C94_11 1_555 1_555
C55_11 C60_11 1_555 1_555
C55_11 C95_11 1_555 1_555
C77_11 C82_11 1_555 1_555
C78_11 C83_11 1_555 1_555
C79_11 C84_11 1_555 1_555
C80_11 C85_11 1_555 1_555
C102_11 C107_11 1_555 1_555
C103_11 C108_11 1_555 1_555
C104_11 C109_11 1_555 1_555
C105_11 C110_11 1_555 1_555
C117_11 C122_11 1_555 1_555
C118_11 C123_11 1_555 1_555
C119_11 C124_11 1_555 1_555
C120_11 C125_11 1_555 1_555
C142_11 C147_11 1_555 1_555
C142_11 C153_11 1_555 1_555
C143_11 C148_11 1_555 1_555
C143_11 C152_11 1_555 1_555
S7_12 C31_12 1_555 1_555
N15_12 Co4_12 1_555 1_555
N27_12 Co4_12 1_555 1_555
N34_12 Co4_12 1_555 1_555
C31_12 N15_12 1_555 1_555
Co7_5 N1_12 1_555 1_555
S1_12 C1_12 1_555 1_555
N1_12 C1_12 1_555 1_555
Co5_4 N12_9 1_555 1_555
Co8_13 N32_9 1_555 1_555
Co15_6 N54_9 1_555 1_555
S4_9 C28_9 1_555 1_555
S5_9 C29_9 1_555 1_555
N12_9 C28_9 1_555 1_555
N13_9 Co5_4 1_555 1_555
N21_12 Co7_5 1_555 1_555
N25_8 Co5_4 1_555 1_555
N28_9 Co5_4 1_555 1_555
N32_9 C66_9 1_555 1_555
N33_9 Co5_4 1_555 1_555
N35_12 C87_12 1_555 1_555
N39_9 C91_9 1_555 1_555
N40_12 C87_12 1_555 1_555
N44_9 C91_9 1_555 1_555
N45_12 C92_12 1_555 1_555
N49_9 C96_9 1_555 1_555
N54_9 C106_9 1_555 1_555
C29_9 N13_9 1_555 1_555
C37_12 N21_12 1_555 1_555
C41_9 N25_8 1_555 1_555
H17_12 C37_12 1_555 1_555
H21_9 C41_9 1_555 1_555
C42_12 C37_12 1_555 1_555
C46_9 C41_9 1_555 1_555
H22_12 C42_12 1_555 1_555
H26_9 C46_9 1_555 1_555
C47_12 C42_12 1_555 1_555
C51_9 C46_9 1_555 1_555
H27_12 C47_12 1_555 1_555
H31_9 C51_9 1_555 1_555
C52_12 C47_12 1_555 1_555
C56_9 C51_9 1_555 1_555
C57_12 N21_12 1_555 1_555
C61_9 N25_8 1_555 1_555
H32_12 C57_12 1_555 1_555
H36_9 C61_9 1_555 1_555
C62_12 N28_9 1_555 1_555
C66_9 H41_9 1_555 1_555
H37_12 C62_12 1_555 1_555
C67_12 C62_12 1_555 1_555
C71_9 C66_9 1_555 1_555
H42_12 C67_12 1_555 1_555
H46_9 C71_9 1_555 1_555
C72_12 C67_12 1_555 1_555
C76_9 C71_9 1_555 1_555
H47_12 C72_12 1_555 1_555
H51_9 C76_9 1_555 1_555
C77_12 C72_12 1_555 1_555
C81_9 C76_9 1_555 1_555
C82_12 N28_9 1_555 1_555
C86_9 N32_9 1_555 1_555
H52_12 C82_12 1_555 1_555
H56_9 C86_9 1_555 1_555
C87_12 C77_12 1_555 1_555
C91_9 C81_9 1_555 1_555
C92_12 N35_12 1_555 1_555
C96_9 N39_9 1_555 1_555
C97_12 N40_12 1_555 1_555
C101_9 N44_9 1_555 1_555
C102_12 N55_4 1_555 1_555
C106_9 H61_9 1_555 1_555
H57_12 C102_12 1_555 1_555
C107_12 C97_12 1_555 1_555
C111_9 C101_9 1_555 1_555
C112_12 C107_12 1_555 1_555
C116_9 C111_9 1_555 1_555
H62_12 C112_12 1_555 1_555
H66_9 C116_9 1_555 1_555
C117_12 C112_12 1_555 1_555
C121_9 C116_9 1_555 1_555
H67_12 C117_12 1_555 1_555
H71_9 C121_9 1_555 1_555
C122_12 N55_4 1_555 1_555
C126_9 N54_9 1_555 1_555
H72_12 C122_12 1_555 1_555
H76_9 C126_9 1_555 1_555
N45_12 C97_12 1_555 1_555
N49_9 C101_9 1_555 1_555
C52_12 C57_12 1_555 1_555
C52_12 C92_12 1_555 1_555
C56_9 C61_9 1_555 1_555
C56_9 C96_9 1_555 1_555
C77_12 C82_12 1_555 1_555
C81_9 C86_9 1_555 1_555
C102_12 C107_12 1_555 1_555
C106_9 C111_9 1_555 1_555
C117_12 C122_12 1_555 1_555
C121_9 C126_9 1_555 1_555
Co4_13 N14_12 1_555 1_555
Co5_6 N23_8 1_555 1_555
Co10_9 N19_9 1_555 1_555
Co15_7 N52_12 1_555 1_555
S3_12 C27_12 1_555 1_555
S6_12 C30_12 1_555 1_555
S11_9 C35_9 1_555 1_555
S12_9 C36_9 1_555 1_555
N11_12 Co7_6 1_555 1_555
N14_12 C30_12 1_555 1_555
N19_9 C35_9 1_555 1_555
N20_9 Co10_9 1_555 1_555
N22_12 Co7_6 1_555 1_555
N23_8 C39_12 1_555 1_555
N26_9 Co4_13 1_555 1_555
N29_12 Co4_13 1_555 1_555
N30_12 Co7_6 1_555 1_555
N36_12 C88_12 1_555 1_555
N37_12 C89_12 1_555 1_555
N41_12 C88_12 1_555 1_555
N42_12 C89_12 1_555 1_555
N46_12 C93_12 1_555 1_555
N47_12 C94_12 1_555 1_555
N51_9 Co10_9 1_555 1_555
N52_12 C104_12 1_555 1_555
N56_9 Co10_9 1_555 1_555
N64_9 Co10_9 1_555 1_555
N65_9 Co10_9 1_555 1_555
C27_12 N11_12 1_555 1_555
C36_9 N20_9 1_555 1_555
C38_12 N22_12 1_555 1_555
C39_12 H19_12 1_555 1_555
H18_12 C38_12 1_555 1_555
C43_12 C38_12 1_555 1_555
C44_12 C39_12 1_555 1_555
H23_12 C43_12 1_555 1_555
H24_12 C44_12 1_555 1_555
C48_12 C43_12 1_555 1_555
C49_12 C44_12 1_555 1_555
H28_12 C48_12 1_555 1_555
H29_12 C49_12 1_555 1_555
C53_12 C48_12 1_555 1_555
C54_12 C49_12 1_555 1_555
C58_12 N22_12 1_555 1_555
C59_12 N23_8 1_555 1_555
H33_12 C58_12 1_555 1_555
H34_12 C59_12 1_555 1_555
C63_12 N29_12 1_555 1_555
C64_12 N30_12 1_555 1_555
H38_12 C63_12 1_555 1_555
H39_12 C64_12 1_555 1_555
C68_12 C63_12 1_555 1_555
C69_12 C64_12 1_555 1_555
H43_12 C68_12 1_555 1_555
H44_12 C69_12 1_555 1_555
C73_12 C68_12 1_555 1_555
C74_12 C69_12 1_555 1_555
H48_12 C73_12 1_555 1_555
H49_12 C74_12 1_555 1_555
C78_12 C73_12 1_555 1_555
C79_12 C74_12 1_555 1_555
C83_12 N29_12 1_555 1_555
C84_12 N30_12 1_555 1_555
H53_12 C83_12 1_555 1_555
H54_12 C84_12 1_555 1_555
C88_12 C78_12 1_555 1_555
C89_12 C79_12 1_555 1_555
C93_12 N36_12 1_555 1_555
C94_12 N37_12 1_555 1_555
C98_12 N41_12 1_555 1_555
C99_12 N42_12 1_555 1_555
C103_12 N51_9 1_555 1_555
C104_12 H59_12 1_555 1_555
H58_12 C103_12 1_555 1_555
C108_12 C98_12 1_555 1_555
C109_12 C99_12 1_555 1_555
C113_12 C108_12 1_555 1_555
C114_12 C109_12 1_555 1_555
H63_12 C113_12 1_555 1_555
H64_12 C114_12 1_555 1_555
C118_12 C113_12 1_555 1_555
C119_12 C114_12 1_555 1_555
H68_12 C118_12 1_555 1_555
H69_12 C119_12 1_555 1_555
C123_12 N51_9 1_555 1_555
C124_12 N52_12 1_555 1_555
H73_12 C123_12 1_555 1_555
H74_12 C124_12 1_555 1_555
N46_12 C98_12 1_555 1_555
N47_12 C99_12 1_555 1_555
C53_12 C58_12 1_555 1_555
C53_12 C93_12 1_555 1_555
C54_12 C59_12 1_555 1_555
C54_12 C94_12 1_555 1_555
C78_12 C83_12 1_555 1_555
C79_12 C84_12 1_555 1_555
C103_12 C108_12 1_555 1_555
C104_12 C109_12 1_555 1_555
C118_12 C123_12 1_555 1_555
C119_12 C124_12 1_555 1_555
Co8_14 N32_10 1_555 1_555
Co12_4 N54_10 1_555 1_555
S5_10 C29_10 1_555 1_555
S11_10 C35_10 1_555 1_555
S12_10 C36_10 1_555 1_555
N13_10 Co3_9 1_555 1_555
N25_9 Co3_9 1_555 1_555
N32_10 C66_10 1_555 1_555
N33_10 Co3_9 1_555 1_555
N39_10 C91_10 1_555 1_555
N44_10 C91_10 1_555 1_555
N49_10 C96_10 1_555 1_555
N54_10 C106_10 1_555 1_555
C29_10 N13_10 1_555 1_555
C41_10 N25_9 1_555 1_555
H21_10 C41_10 1_555 1_555
C46_10 C41_10 1_555 1_555
H26_10 C46_10 1_555 1_555
C51_10 C46_10 1_555 1_555
H31_10 C51_10 1_555 1_555
C56_10 C51_10 1_555 1_555
C61_10 N25_9 1_555 1_555
H36_10 C61_10 1_555 1_555
C66_10 H41_10 1_555 1_555
C71_10 C66_10 1_555 1_555
H46_10 C71_10 1_555 1_555
C76_10 C71_10 1_555 1_555
H51_10 C76_10 1_555 1_555
C81_10 C76_10 1_555 1_555
C86_10 N32_10 1_555 1_555
H56_10 C86_10 1_555 1_555
C91_10 C81_10 1_555 1_555
C96_10 N39_10 1_555 1_555
C101_10 N44_10 1_555 1_555
C106_10 H61_10 1_555 1_555
C111_10 C101_10 1_555 1_555
C116_10 C111_10 1_555 1_555
H66_10 C116_10 1_555 1_555
C121_10 C116_10 1_555 1_555
H71_10 C121_10 1_555 1_555
C126_10 N54_10 1_555 1_555
H76_10 C126_10 1_555 1_555
N49_10 C101_10 1_555 1_555
C56_10 C61_10 1_555 1_555
C56_10 C96_10 1_555 1_555
C81_10 C86_10 1_555 1_555
C106_10 C111_10 1_555 1_555
C121_10 C126_10 1_555 1_555
Co8 N1_13 1_555 1_555
Co15 N2_13 1_555 1_555
S1_13 C1_13 1_555 1_555
S2_13 C2_13 1_555 1_555
N1_13 C1_13 1_555 1_555
N2_13 C2_13 1_555 1_555
N3_10 C3_10 1_555 1_555
N4_10 Co8 1_555 1_555
N5_10 C13_10 1_555 1_555
N6_10 C13_10 1_555 1_555
N7_10 C14_10 1_555 1_555
N8_10 Co15 1_555 1_555
N9_12 Co15 1_555 1_555
N10_12 C26_12 1_555 1_555
C3_10 H1_10 1_555 1_555
C4_10 C3_10 1_555 1_555
H2_10 C4_10 1_555 1_555
C5_10 C4_10 1_555 1_555
H3_10 C5_10 1_555 1_555
C6_10 C5_10 1_555 1_555
C7_10 N3_10 1_555 1_555
H4_10 C7_10 1_555 1_555
C8_10 N4_10 1_555 1_555
H5_10 C8_10 1_555 1_555
C9_10 C8_10 1_555 1_555
H6_10 C9_10 1_555 1_555
C10_10 C9_10 1_555 1_555
H7_10 C10_10 1_555 1_555
C11_10 C10_10 1_555 1_555
C12_10 N4_10 1_555 1_555
H8_10 C12_10 1_555 1_555
C13_10 C11_10 1_555 1_555
C14_10 N5_10 1_555 1_555
C15_10 N6_10 1_555 1_555
C16_10 N8_10 1_555 1_555
H9_10 C16_10 1_555 1_555
C17_10 C15_10 1_555 1_555
C18_10 C17_10 1_555 1_555
H10_10 C18_10 1_555 1_555
C19_10 C18_10 1_555 1_555
H11_10 C19_10 1_555 1_555
C20_10 N8_10 1_555 1_555
H12_10 C20_10 1_555 1_555
C21_12 N9_12 1_555 1_555
H13_12 C21_12 1_555 1_555
C22_12 C21_12 1_555 1_555
H14_12 C22_12 1_555 1_555
C23_12 C22_12 1_555 1_555
H15_12 C23_12 1_555 1_555
C24_12 C23_12 1_555 1_555
C25_12 N9_12 1_555 1_555
H16_12 C25_12 1_555 1_555
C26_12 C24_12 1_555 1_555
Co3_10 N12_10 1_555 1_555
Co5_2 N3_10 1_555 1_555
Co7_16 N31_12 1_555 1_555
Co9_12 N17_12 1_555 1_555
Co10_10 N19_10 1_555 1_555
Co16_3 N57_12 1_555 1_555
Co11 N58_12 1_555 1_555
S3_13 C27_13 1_555 1_555
S4_10 C28_10 1_555 1_555
S8_13 C32_13 1_555 1_555
N11_13 Co8 1_555 1_555
N12_10 C28_10 1_555 1_555
N16_13 Co15 1_555 1_555
N18_12 Co9_12 1_555 1_555
N20_10 Co10_10 1_555 1_555
N21_13 Co8 1_555 1_555
N22_13 Co8 1_555 1_555
N24_9 Co3_10 1_555 1_555
N28_10 Co3_10 1_555 1_555
N31_12 C65_12 1_555 1_555
N35_13 C87_13 1_555 1_555
N36_13 C88_13 1_555 1_555
N38_12 C90_12 1_555 1_555
N40_13 C87_13 1_555 1_555
N41_13 C88_13 1_555 1_555
N43_12 C90_12 1_555 1_555
N45_13 C92_13 1_555 1_555
N46_13 C93_13 1_555 1_555
N48_12 C95_12 1_555 1_555
N50_12 Co9_12 1_555 1_555
N51_10 Co10_10 1_555 1_555
N53_12 Co15 1_555 1_555
N55_12 Co9_12 1_555 1_555
N56_10 Co10_10 1_555 1_555
N57_12 C127_12 1_555 1_555
N58_12 C128_12 1_555 1_555
N66_12 C152_12 1_555 1_555
N67_12 C26_12 1_555 1_555
C27_13 N11_13 1_555 1_555
C32_13 N16_13 1_555 1_555
C37_13 N21_13 1_555 1_555
C38_13 N22_13 1_555 1_555
C40_12 N24_9 1_555 1_555
H17_13 C37_13 1_555 1_555
H18_13 C38_13 1_555 1_555
H20_12 C40_12 1_555 1_555
C42_13 C37_13 1_555 1_555
C43_13 C38_13 1_555 1_555
C45_12 C40_12 1_555 1_555
H22_13 C42_13 1_555 1_555
H23_13 C43_13 1_555 1_555
H25_12 C45_12 1_555 1_555
C47_13 C42_13 1_555 1_555
C48_13 C43_13 1_555 1_555
C50_12 C45_12 1_555 1_555
H27_13 C47_13 1_555 1_555
H28_13 C48_13 1_555 1_555
H30_12 C50_12 1_555 1_555
C52_13 C47_13 1_555 1_555
C53_13 C48_13 1_555 1_555
C55_12 C50_12 1_555 1_555
C57_13 N21_13 1_555 1_555
C58_13 N22_13 1_555 1_555
C60_12 N24_9 1_555 1_555
H32_13 C57_13 1_555 1_555
H33_13 C58_13 1_555 1_555
H35_12 C60_12 1_555 1_555
C62_13 N28_10 1_555 1_555
C63_13 N34_12 1_555 1_555
C65_12 H40_12 1_555 1_555
H37_13 C62_13 1_555 1_555
H38_13 C63_13 1_555 1_555
C67_13 C62_13 1_555 1_555
C68_13 C63_13 1_555 1_555
C70_12 C65_12 1_555 1_555
H42_13 C67_13 1_555 1_555
H43_13 C68_13 1_555 1_555
H45_12 C70_12 1_555 1_555
C72_13 C67_13 1_555 1_555
C73_13 C68_13 1_555 1_555
C75_12 C70_12 1_555 1_555
H47_13 C72_13 1_555 1_555
H48_13 C73_13 1_555 1_555
H50_12 C75_12 1_555 1_555
C77_13 C72_13 1_555 1_555
C78_13 C73_13 1_555 1_555
C80_12 C75_12 1_555 1_555
C82_13 N28_10 1_555 1_555
C83_13 N34_12 1_555 1_555
C85_12 N31_12 1_555 1_555
H52_13 C82_13 1_555 1_555
H53_13 C83_13 1_555 1_555
H55_12 C85_12 1_555 1_555
C87_13 C77_13 1_555 1_555
C88_13 C78_13 1_555 1_555
C90_12 C80_12 1_555 1_555
C92_13 N35_13 1_555 1_555
C93_13 N36_13 1_555 1_555
C95_12 N38_12 1_555 1_555
C97_13 N40_13 1_555 1_555
C98_13 N41_13 1_555 1_555
C100_12 N43_12 1_555 1_555
C102_13 N50_12 1_555 1_555
C103_13 N51_10 1_555 1_555
C105_12 N53_12 1_555 1_555
H57_13 C102_13 1_555 1_555
H58_13 C103_13 1_555 1_555
H60_12 C105_12 1_555 1_555
C107_13 C97_13 1_555 1_555
C108_13 C98_13 1_555 1_555
C110_12 C100_12 1_555 1_555
C112_13 C107_13 1_555 1_555
C113_13 C108_13 1_555 1_555
C115_12 C110_12 1_555 1_555
H62_13 C112_13 1_555 1_555
H63_13 C113_13 1_555 1_555
H65_12 C115_12 1_555 1_555
C117_13 C112_13 1_555 1_555
C118_13 C113_13 1_555 1_555
C120_12 C115_12 1_555 1_555
H67_13 C117_13 1_555 1_555
H68_13 C118_13 1_555 1_555
H70_12 C120_12 1_555 1_555
C122_13 N50_12 1_555 1_555
C123_13 N51_10 1_555 1_555
C125_12 N53_12 1_555 1_555
H72_13 C122_13 1_555 1_555
H73_13 C123_13 1_555 1_555
H75_12 C125_12 1_555 1_555
C127_12 H77_12 1_555 1_555
C128_12 H78_12 1_555 1_555
C132_12 C127_12 1_555 1_555
C133_12 C128_12 1_555 1_555
H82_12 C132_12 1_555 1_555
H83_12 C133_12 1_555 1_555
C137_12 C132_12 1_555 1_555
C138_12 C133_12 1_555 1_555
H87_12 C137_12 1_555 1_555
H88_12 C138_12 1_555 1_555
C142_12 C137_12 1_555 1_555
C143_12 C138_12 1_555 1_555
C147_12 N57_12 1_555 1_555
C148_12 N58_12 1_555 1_555
H92_12 C147_12 1_555 1_555
H93_12 C148_12 1_555 1_555
C152_12 N10_12 1_555 1_555
C153_12 N66_12 1_555 1_555
N7_10 C15_10 1_555 1_555
C6_10 C7_10 1_555 1_555
C6_10 C14_10 1_555 1_555
C11_10 C12_10 1_555 1_555
C16_10 C17_10 1_555 1_555
C19_10 C20_10 1_555 1_555
C24_12 C25_12 1_555 1_555
N45_13 C97_13 1_555 1_555
N46_13 C98_13 1_555 1_555
N48_12 C100_12 1_555 1_555
N67_12 C153_12 1_555 1_555
C52_13 C57_13 1_555 1_555
C52_13 C92_13 1_555 1_555
C53_13 C58_13 1_555 1_555
C53_13 C93_13 1_555 1_555
C55_12 C60_12 1_555 1_555
C55_12 C95_12 1_555 1_555
C77_13 C82_13 1_555 1_555
C78_13 C83_13 1_555 1_555
C80_12 C85_12 1_555 1_555
C102_13 C107_13 1_555 1_555
C103_13 C108_13 1_555 1_555
C105_12 C110_12 1_555 1_555
C117_13 C122_13 1_555 1_555
C118_13 C123_13 1_555 1_555
C120_12 C125_12 1_555 1_555
C142_12 C147_12 1_555 1_555
C142_12 C153_12 1_555 1_555
C143_12 C148_12 1_555 1_555
C143_12 C152_12 1_555 1_555
S9_12 C33_12 1_555 1_555
S10_12 C34_12 1_555 1_555
Co1_12 N1_14 1_555 1_555
Co2_8 N2_14 1_555 1_555
S1_14 C1_14 1_555 1_555
S2_14 C2_14 1_555 1_555
N1_14 C1_14 1_555 1_555
N2_14 C2_14 1_555 1_555
N3_11 C3_11 1_555 1_555
N4_11 Co1_12 1_555 1_555
N5_11 C13_11 1_555 1_555
N6_11 C13_11 1_555 1_555
N7_11 C14_11 1_555 1_555
N8_11 Co2_8 1_555 1_555
N9_13 Co2_8 1_555 1_555
N10_13 C26_13 1_555 1_555
C3_11 H1_11 1_555 1_555
C4_11 C3_11 1_555 1_555
H2_11 C4_11 1_555 1_555
C5_11 C4_11 1_555 1_555
H3_11 C5_11 1_555 1_555
C6_11 C5_11 1_555 1_555
C7_11 N3_11 1_555 1_555
H4_11 C7_11 1_555 1_555
C8_11 N4_11 1_555 1_555
H5_11 C8_11 1_555 1_555
C9_11 C8_11 1_555 1_555
H6_11 C9_11 1_555 1_555
C10_11 C9_11 1_555 1_555
H7_11 C10_11 1_555 1_555
C11_11 C10_11 1_555 1_555
C12_11 N4_11 1_555 1_555
H8_11 C12_11 1_555 1_555
C13_11 C11_11 1_555 1_555
C14_11 N5_11 1_555 1_555
C15_11 N6_11 1_555 1_555
C16_11 N8_11 1_555 1_555
H9_11 C16_11 1_555 1_555
C17_11 C15_11 1_555 1_555
C18_11 C17_11 1_555 1_555
H10_11 C18_11 1_555 1_555
C19_11 C18_11 1_555 1_555
H11_11 C19_11 1_555 1_555
C20_11 N8_11 1_555 1_555
H12_11 C20_11 1_555 1_555
C21_13 N9_13 1_555 1_555
H13_13 C21_13 1_555 1_555
C22_13 C21_13 1_555 1_555
H14_13 C22_13 1_555 1_555
C23_13 C22_13 1_555 1_555
H15_13 C23_13 1_555 1_555
C24_13 C23_13 1_555 1_555
C25_13 N9_13 1_555 1_555
H16_13 C25_13 1_555 1_555
C26_13 C24_13 1_555 1_555
Co3_11 N12_11 1_555 1_555
Co5_10 N3_11 1_555 1_555
Co7_17 N31_13 1_555 1_555
Co8_15 N32_11 1_555 1_555
Co9_13 N17_13 1_555 1_555
Co10_11 N19_11 1_555 1_555
Co14_7 N57_13 1_555 1_555
Co12_7 N58_13 1_555 1_555
Co15_3 N52_13 1_555 1_555
Co13_5 N60_11 1_555 1_555
Co15_8 N61_11 1_555 1_555
Co14_5 N54_11 1_555 1_555
S3_14 C27_14 1_555 1_555
S4_11 C28_11 1_555 1_555
S5_11 C29_11 1_555 1_555
S8_14 C32_14 1_555 1_555
S9_13 C33_13 1_555 1_555
S10_13 C34_13 1_555 1_555
S11_11 C35_11 1_555 1_555
S12_11 C36_11 1_555 1_555
N11_14 Co1_12 1_555 1_555
N12_11 C28_11 1_555 1_555
N13_11 Co3_11 1_555 1_555
N16_14 Co2_8 1_555 1_555
N17_13 C33_13 1_555 1_555
N18_13 Co9_13 1_555 1_555
N19_11 C35_11 1_555 1_555
N20_11 Co10_11 1_555 1_555
N21_14 Co1_12 1_555 1_555
N22_14 Co1_12 1_555 1_555
N27_9 C39_13 1_555 1_555
N24_10 Co3_11 1_555 1_555
N25_10 Co3_11 1_555 1_555
N28_11 Co3_11 1_555 1_555
N30_13 Co1_12 1_555 1_555
N31_13 C65_13 1_555 1_555
N32_11 C66_11 1_555 1_555
N33_11 Co3_11 1_555 1_555
N35_14 C87_14 1_555 1_555
N36_14 C88_14 1_555 1_555
N37_13 C89_13 1_555 1_555
N38_13 C90_13 1_555 1_555
N39_11 C91_11 1_555 1_555
N40_14 C87_14 1_555 1_555
N41_14 C88_14 1_555 1_555
N42_13 C89_13 1_555 1_555
N43_13 C90_13 1_555 1_555
N44_11 C91_11 1_555 1_555
N45_14 C92_14 1_555 1_555
N46_14 C93_14 1_555 1_555
N47_13 C94_13 1_555 1_555
N48_13 C95_13 1_555 1_555
N49_11 C96_11 1_555 1_555
N50_13 Co9_13 1_555 1_555
N51_11 Co10_11 1_555 1_555
N52_13 C104_13 1_555 1_555
N53_13 Co2_8 1_555 1_555
N54_11 C106_11 1_555 1_555
N55_13 Co9_13 1_555 1_555
N56_11 Co10_11 1_555 1_555
N57_13 C127_13 1_555 1_555
N58_13 C128_13 1_555 1_555
N59_11 Co2_8 1_555 1_555
N60_11 C130_11 1_555 1_555
N61_11 C131_11 1_555 1_555
N62_13 Co9_13 1_555 1_555
N63_13 Co9_13 1_555 1_555
N64_11 Co10_11 1_555 1_555
N65_11 Co10_11 1_555 1_555
N66_13 C152_13 1_555 1_555
N67_13 C26_13 1_555 1_555
N68_11 C154_11 1_555 1_555
N69_11 C155_11 1_555 1_555
N70_11 C154_11 1_555 1_555
C27_14 N11_14 1_555 1_555
C29_11 N13_11 1_555 1_555
C32_14 N16_14 1_555 1_555
C34_13 N18_13 1_555 1_555
C36_11 N20_11 1_555 1_555
C37_14 N21_14 1_555 1_555
C38_14 N22_14 1_555 1_555
C39_13 H19_13 1_555 1_555
C40_13 N24_10 1_555 1_555
C41_11 N25_10 1_555 1_555
H17_14 C37_14 1_555 1_555
H18_14 C38_14 1_555 1_555
H20_13 C40_13 1_555 1_555
H21_11 C41_11 1_555 1_555
C42_14 C37_14 1_555 1_555
C43_14 C38_14 1_555 1_555
C44_13 C39_13 1_555 1_555
C45_13 C40_13 1_555 1_555
C46_11 C41_11 1_555 1_555
H22_14 C42_14 1_555 1_555
H23_14 C43_14 1_555 1_555
H24_13 C44_13 1_555 1_555
H25_13 C45_13 1_555 1_555
H26_11 C46_11 1_555 1_555
C47_14 C42_14 1_555 1_555
C48_14 C43_14 1_555 1_555
C49_13 C44_13 1_555 1_555
C50_13 C45_13 1_555 1_555
C51_11 C46_11 1_555 1_555
H27_14 C47_14 1_555 1_555
H28_14 C48_14 1_555 1_555
H29_13 C49_13 1_555 1_555
H30_13 C50_13 1_555 1_555
H31_11 C51_11 1_555 1_555
C52_14 C47_14 1_555 1_555
C53_14 C48_14 1_555 1_555
C54_13 C49_13 1_555 1_555
C55_13 C50_13 1_555 1_555
C56_11 C51_11 1_555 1_555
C57_14 N21_14 1_555 1_555
C58_14 N22_14 1_555 1_555
C59_13 N27_9 1_555 1_555
C60_13 N24_10 1_555 1_555
C61_11 N25_10 1_555 1_555
H32_14 C57_14 1_555 1_555
H33_14 C58_14 1_555 1_555
H34_13 C59_13 1_555 1_555
H35_13 C60_13 1_555 1_555
H36_11 C61_11 1_555 1_555
C62_14 N28_11 1_555 1_555
C63_14 N34_2 1_555 1_555
C64_13 N30_13 1_555 1_555
C65_13 H40_13 1_555 1_555
C66_11 H41_11 1_555 1_555
H37_14 C62_14 1_555 1_555
H38_14 C63_14 1_555 1_555
H39_13 C64_13 1_555 1_555
C67_14 C62_14 1_555 1_555
C68_14 C63_14 1_555 1_555
C69_13 C64_13 1_555 1_555
C70_13 C65_13 1_555 1_555
C71_11 C66_11 1_555 1_555
H42_14 C67_14 1_555 1_555
H43_14 C68_14 1_555 1_555
H44_13 C69_13 1_555 1_555
H45_13 C70_13 1_555 1_555
H46_11 C71_11 1_555 1_555
C72_14 C67_14 1_555 1_555
C73_14 C68_14 1_555 1_555
C74_13 C69_13 1_555 1_555
C75_13 C70_13 1_555 1_555
C76_11 C71_11 1_555 1_555
H47_14 C72_14 1_555 1_555
H48_14 C73_14 1_555 1_555
H49_13 C74_13 1_555 1_555
H50_13 C75_13 1_555 1_555
H51_11 C76_11 1_555 1_555
C77_14 C72_14 1_555 1_555
C78_14 C73_14 1_555 1_555
C79_13 C74_13 1_555 1_555
C80_13 C75_13 1_555 1_555
C81_11 C76_11 1_555 1_555
C82_14 N28_11 1_555 1_555
C83_14 N34_2 1_555 1_555
C84_13 N30_13 1_555 1_555
C85_13 N31_13 1_555 1_555
C86_11 N32_11 1_555 1_555
H52_14 C82_14 1_555 1_555
H53_14 C83_14 1_555 1_555
H54_13 C84_13 1_555 1_555
H55_13 C85_13 1_555 1_555
H56_11 C86_11 1_555 1_555
C87_14 C77_14 1_555 1_555
C88_14 C78_14 1_555 1_555
C89_13 C79_13 1_555 1_555
C90_13 C80_13 1_555 1_555
C91_11 C81_11 1_555 1_555
C92_14 N35_14 1_555 1_555
C93_14 N36_14 1_555 1_555
C94_13 N37_13 1_555 1_555
C95_13 N38_13 1_555 1_555
C96_11 N39_11 1_555 1_555
C97_14 N40_14 1_555 1_555
C98_14 N41_14 1_555 1_555
C99_13 N42_13 1_555 1_555
C100_13 N43_13 1_555 1_555
C101_11 N44_11 1_555 1_555
C102_14 N50_13 1_555 1_555
C103_14 N51_11 1_555 1_555
C104_13 H59_13 1_555 1_555
C105_13 N53_13 1_555 1_555
C106_11 H61_11 1_555 1_555
H57_14 C102_14 1_555 1_555
H58_14 C103_14 1_555 1_555
H60_13 C105_13 1_555 1_555
C107_14 C97_14 1_555 1_555
C108_14 C98_14 1_555 1_555
C109_13 C99_13 1_555 1_555
C110_13 C100_13 1_555 1_555
C111_11 C101_11 1_555 1_555
C112_14 C107_14 1_555 1_555
C113_14 C108_14 1_555 1_555
C114_13 C109_13 1_555 1_555
C115_13 C110_13 1_555 1_555
C116_11 C111_11 1_555 1_555
H62_14 C112_14 1_555 1_555
H63_14 C113_14 1_555 1_555
H64_13 C114_13 1_555 1_555
H65_13 C115_13 1_555 1_555
H66_11 C116_11 1_555 1_555
C117_14 C112_14 1_555 1_555
C118_14 C113_14 1_555 1_555
C119_13 C114_13 1_555 1_555
C120_13 C115_13 1_555 1_555
C121_11 C116_11 1_555 1_555
H67_14 C117_14 1_555 1_555
H68_14 C118_14 1_555 1_555
H69_13 C119_13 1_555 1_555
H70_13 C120_13 1_555 1_555
H71_11 C121_11 1_555 1_555
C122_14 N50_13 1_555 1_555
C123_14 N51_11 1_555 1_555
C124_13 N52_13 1_555 1_555
C125_13 N53_13 1_555 1_555
C126_11 N54_11 1_555 1_555
H72_14 C122_14 1_555 1_555
H73_14 C123_14 1_555 1_555
H74_13 C124_13 1_555 1_555
H75_13 C125_13 1_555 1_555
H76_11 C126_11 1_555 1_555
C127_13 H77_13 1_555 1_555
C128_13 H78_13 1_555 1_555
C129_11 N59_11 1_555 1_555
C130_11 H80_11 1_555 1_555
C131_11 H81_11 1_555 1_555
H79_11 C129_11 1_555 1_555
C132_13 C127_13 1_555 1_555
C133_13 C128_13 1_555 1_555
C134_11 C129_11 1_555 1_555
C135_11 C130_11 1_555 1_555
C136_11 C131_11 1_555 1_555
H82_13 C132_13 1_555 1_555
H83_13 C133_13 1_555 1_555
H84_11 C134_11 1_555 1_555
H85_11 C135_11 1_555 1_555
H86_11 C136_11 1_555 1_555
C137_13 C132_13 1_555 1_555
C138_13 C133_13 1_555 1_555
C139_11 C134_11 1_555 1_555
C140_11 C135_11 1_555 1_555
C141_11 C136_11 1_555 1_555
H87_13 C137_13 1_555 1_555
H88_13 C138_13 1_555 1_555
H89_11 C139_11 1_555 1_555
H90_11 C140_11 1_555 1_555
H91_11 C141_11 1_555 1_555
C142_13 C137_13 1_555 1_555
C143_13 C138_13 1_555 1_555
C144_11 C139_11 1_555 1_555
C145_11 C140_11 1_555 1_555
C146_11 C141_11 1_555 1_555
C147_13 N57_13 1_555 1_555
C148_13 N58_13 1_555 1_555
C149_11 N59_11 1_555 1_555
C150_11 N60_11 1_555 1_555
C151_11 N61_11 1_555 1_555
H92_13 C147_13 1_555 1_555
H93_13 C148_13 1_555 1_555
H94_11 C149_11 1_555 1_555
H95_11 C150_11 1_555 1_555
H96_11 C151_11 1_555 1_555
C152_13 N10_13 1_555 1_555
C153_13 N66_13 1_555 1_555
C154_11 C144_11 1_555 1_555
C155_11 N68_11 1_555 1_555
C156_11 N69_11 1_555 1_555
N7_11 C15_11 1_555 1_555
C6_11 C7_11 1_555 1_555
C6_11 C14_11 1_555 1_555
C11_11 C12_11 1_555 1_555
C16_11 C17_11 1_555 1_555
C19_11 C20_11 1_555 1_555
C24_13 C25_13 1_555 1_555
N45_14 C97_14 1_555 1_555
N46_14 C98_14 1_555 1_555
N47_13 C99_13 1_555 1_555
N48_13 C100_13 1_555 1_555
N49_11 C101_11 1_555 1_555
N67_13 C153_13 1_555 1_555
N70_11 C156_11 1_555 1_555
C52_14 C57_14 1_555 1_555
C52_14 C92_14 1_555 1_555
C53_14 C58_14 1_555 1_555
C53_14 C93_14 1_555 1_555
C54_13 C59_13 1_555 1_555
C54_13 C94_13 1_555 1_555
C55_13 C60_13 1_555 1_555
C55_13 C95_13 1_555 1_555
C56_11 C61_11 1_555 1_555
C56_11 C96_11 1_555 1_555
C77_14 C82_14 1_555 1_555
C78_14 C83_14 1_555 1_555
C79_13 C84_13 1_555 1_555
C80_13 C85_13 1_555 1_555
C81_11 C86_11 1_555 1_555
C102_14 C107_14 1_555 1_555
C103_14 C108_14 1_555 1_555
C104_13 C109_13 1_555 1_555
C105_13 C110_13 1_555 1_555
C106_11 C111_11 1_555 1_555
C117_14 C122_14 1_555 1_555
C118_14 C123_14 1_555 1_555
C119_13 C124_13 1_555 1_555
C120_13 C125_13 1_555 1_555
C121_11 C126_11 1_555 1_555
C142_13 C147_13 1_555 1_555
C142_13 C153_13 1_555 1_555
C143_13 C148_13 1_555 1_555
C143_13 C152_13 1_555 1_555
C144_11 C149_11 1_555 1_555
C145_11 C150_11 1_555 1_555
C145_11 C156_11 1_555 1_555
C146_11 C151_11 1_555 1_555
C146_11 C155_11 1_555 1_555
Co1_13 N1_15 1_555 1_555
Co15_5 N2_15 1_555 1_555
S1_15 C1_15 1_555 1_555
S2_15 C2_15 1_555 1_555
N1_15 C1_15 1_555 1_555
N2_15 C2_15 1_555 1_555
N26_7 C3_12 1_555 1_555
N4_12 Co1_13 1_555 1_555
N5_12 C13_12 1_555 1_555
N6_12 C13_12 1_555 1_555
N7_12 C14_12 1_555 1_555
N8_12 Co15_5 1_555 1_555
C3_12 H1_12 1_555 1_555
C4_12 C3_12 1_555 1_555
H2_12 C4_12 1_555 1_555
C5_12 C4_12 1_555 1_555
H3_12 C5_12 1_555 1_555
C6_12 C5_12 1_555 1_555
C7_12 N26_7 1_555 1_555
H4_12 C7_12 1_555 1_555
C8_12 N4_12 1_555 1_555
H5_12 C8_12 1_555 1_555
C9_12 C8_12 1_555 1_555
H6_12 C9_12 1_555 1_555
C10_12 C9_12 1_555 1_555
H7_12 C10_12 1_555 1_555
C11_12 C10_12 1_555 1_555
C12_12 N4_12 1_555 1_555
H8_12 C12_12 1_555 1_555
C13_12 C11_12 1_555 1_555
C14_12 N5_12 1_555 1_555
C15_12 N6_12 1_555 1_555
C16_12 N8_12 1_555 1_555
H9_12 C16_12 1_555 1_555
C17_12 C15_12 1_555 1_555
C18_12 C17_12 1_555 1_555
H10_12 C18_12 1_555 1_555
C19_12 C18_12 1_555 1_555
H11_12 C19_12 1_555 1_555
C20_12 N8_12 1_555 1_555
H12_12 C20_12 1_555 1_555
Co6_7 N12_12 1_555 1_555
Co6_11 N23_9 1_555 1_555
Co10_12 N19_12 1_555 1_555
Co14_7 N52_14 1_555 1_555
Co14_8 N60_12 1_555 1_555
S3_15 C27_15 1_555 1_555
S4_12 C28_12 1_555 1_555
S8_15 C32_15 1_555 1_555
N11_15 Co1_13 1_555 1_555
N12_12 C28_12 1_555 1_555
N16_15 Co15_5 1_555 1_555
N20_12 Co10_12 1_555 1_555
N21_15 Co1_13 1_555 1_555
N22_15 Co1_13 1_555 1_555
N23_9 C39_14 1_555 1_555
N28_12 Co6_7 1_555 1_555
N30_14 Co1_13 1_555 1_555
N35_15 C87_15 1_555 1_555
N36_15 C88_15 1_555 1_555
N37_14 C89_14 1_555 1_555
N40_15 C87_15 1_555 1_555
N41_15 C88_15 1_555 1_555
N42_14 C89_14 1_555 1_555
N45_15 C92_15 1_555 1_555
N46_15 C93_15 1_555 1_555
N47_14 C94_14 1_555 1_555
N51_12 Co10_12 1_555 1_555
N52_14 C104_14 1_555 1_555
N56_12 Co10_12 1_555 1_555
N59_12 Co15_5 1_555 1_555
N60_12 C130_12 1_555 1_555
N61_12 C131_12 1_555 1_555
N68_12 C154_12 1_555 1_555
N69_12 C155_12 1_555 1_555
N70_12 C154_12 1_555 1_555
C27_15 N11_15 1_555 1_555
C32_15 N16_15 1_555 1_555
C37_15 N21_15 1_555 1_555
C38_15 N22_15 1_555 1_555
C39_14 H19_14 1_555 1_555
H17_15 C37_15 1_555 1_555
H18_15 C38_15 1_555 1_555
C42_15 C37_15 1_555 1_555
C43_15 C38_15 1_555 1_555
C44_14 C39_14 1_555 1_555
H22_15 C42_15 1_555 1_555
H23_15 C43_15 1_555 1_555
H24_14 C44_14 1_555 1_555
C47_15 C42_15 1_555 1_555
C48_15 C43_15 1_555 1_555
C49_14 C44_14 1_555 1_555
H27_15 C47_15 1_555 1_555
H28_15 C48_15 1_555 1_555
H29_14 C49_14 1_555 1_555
C52_15 C47_15 1_555 1_555
C53_15 C48_15 1_555 1_555
C54_14 C49_14 1_555 1_555
C57_15 N21_15 1_555 1_555
C58_15 N22_15 1_555 1_555
C59_14 N23_9 1_555 1_555
H32_15 C57_15 1_555 1_555
H33_15 C58_15 1_555 1_555
H34_14 C59_14 1_555 1_555
C62_15 N28_12 1_555 1_555
C63_15 N34 1_555 1_555
C64_14 N30_14 1_555 1_555
H37_15 C62_15 1_555 1_555
H38_15 C63_15 1_555 1_555
H39_14 C64_14 1_555 1_555
C67_15 C62_15 1_555 1_555
C68_15 C63_15 1_555 1_555
C69_14 C64_14 1_555 1_555
H42_15 C67_15 1_555 1_555
H43_15 C68_15 1_555 1_555
H44_14 C69_14 1_555 1_555
C72_15 C67_15 1_555 1_555
C73_15 C68_15 1_555 1_555
C74_14 C69_14 1_555 1_555
H47_15 C72_15 1_555 1_555
H48_15 C73_15 1_555 1_555
H49_14 C74_14 1_555 1_555
C77_15 C72_15 1_555 1_555
C78_15 C73_15 1_555 1_555
C79_14 C74_14 1_555 1_555
C82_15 N28_12 1_555 1_555
C83_15 N34 1_555 1_555
C84_14 N30_14 1_555 1_555
H52_15 C82_15 1_555 1_555
H53_15 C83_15 1_555 1_555
H54_14 C84_14 1_555 1_555
C87_15 C77_15 1_555 1_555
C88_15 C78_15 1_555 1_555
C89_14 C79_14 1_555 1_555
C92_15 N35_15 1_555 1_555
C93_15 N36_15 1_555 1_555
C94_14 N37_14 1_555 1_555
C97_15 N40_15 1_555 1_555
C98_15 N41_15 1_555 1_555
C99_14 N42_14 1_555 1_555
C102_15 N56_7 1_555 1_555
C103_15 N51_12 1_555 1_555
C104_14 H59_14 1_555 1_555
H57_15 C102_15 1_555 1_555
H58_15 C103_15 1_555 1_555
C107_15 C97_15 1_555 1_555
C108_15 C98_15 1_555 1_555
C109_14 C99_14 1_555 1_555
C112_15 C107_15 1_555 1_555
C113_15 C108_15 1_555 1_555
C114_14 C109_14 1_555 1_555
H62_15 C112_15 1_555 1_555
H63_15 C113_15 1_555 1_555
H64_14 C114_14 1_555 1_555
C117_15 C112_15 1_555 1_555
C118_15 C113_15 1_555 1_555
C119_14 C114_14 1_555 1_555
H67_15 C117_15 1_555 1_555
H68_15 C118_15 1_555 1_555
H69_14 C119_14 1_555 1_555
C122_15 N56_7 1_555 1_555
C123_15 N51_12 1_555 1_555
C124_14 N52_14 1_555 1_555
H72_15 C122_15 1_555 1_555
H73_15 C123_15 1_555 1_555
H74_14 C124_14 1_555 1_555
C129_12 N59_12 1_555 1_555
C130_12 H80_12 1_555 1_555
C131_12 H81_12 1_555 1_555
H79_12 C129_12 1_555 1_555
C134_12 C129_12 1_555 1_555
C135_12 C130_12 1_555 1_555
C136_12 C131_12 1_555 1_555
H84_12 C134_12 1_555 1_555
H85_12 C135_12 1_555 1_555
H86_12 C136_12 1_555 1_555
C139_12 C134_12 1_555 1_555
C140_12 C135_12 1_555 1_555
C141_12 C136_12 1_555 1_555
H89_12 C139_12 1_555 1_555
H90_12 C140_12 1_555 1_555
H91_12 C141_12 1_555 1_555
C144_12 C139_12 1_555 1_555
C145_12 C140_12 1_555 1_555
C146_12 C141_12 1_555 1_555
C149_12 N59_12 1_555 1_555
C150_12 N60_12 1_555 1_555
C151_12 N61_12 1_555 1_555
H94_12 C149_12 1_555 1_555
H95_12 C150_12 1_555 1_555
H96_12 C151_12 1_555 1_555
C154_12 C144_12 1_555 1_555
C155_12 N68_12 1_555 1_555
C156_12 N69_12 1_555 1_555
N7_12 C15_12 1_555 1_555
C6_12 C7_12 1_555 1_555
C6_12 C14_12 1_555 1_555
C11_12 C12_12 1_555 1_555
C16_12 C17_12 1_555 1_555
C19_12 C20_12 1_555 1_555
N45_15 C97_15 1_555 1_555
N46_15 C98_15 1_555 1_555
N47_14 C99_14 1_555 1_555
N70_12 C156_12 1_555 1_555
C52_15 C57_15 1_555 1_555
C52_15 C92_15 1_555 1_555
C53_15 C58_15 1_555 1_555
C53_15 C93_15 1_555 1_555
C54_14 C59_14 1_555 1_555
C54_14 C94_14 1_555 1_555
C77_15 C82_15 1_555 1_555
C78_15 C83_15 1_555 1_555
C79_14 C84_14 1_555 1_555
C102_15 C107_15 1_555 1_555
C103_15 C108_15 1_555 1_555
C104_14 C109_14 1_555 1_555
C117_15 C122_15 1_555 1_555
C118_15 C123_15 1_555 1_555
C119_14 C124_14 1_555 1_555
C144_12 C149_12 1_555 1_555
C145_12 C150_12 1_555 1_555
C145_12 C156_12 1_555 1_555
C146_12 C151_12 1_555 1_555
C146_12 C155_12 1_555 1_555
Co8_16 N32_12 1_555 1_555
Co14_6 N54_12 1_555 1_555
S5_12 C29_12 1_555 1_555
S11_12 C35_12 1_555 1_555
S12_12 C36_12 1_555 1_555
N13_12 Co6_8 1_555 1_555
N25_11 Co6_8 1_555 1_555
N32_12 C66_12 1_555 1_555
N33_12 Co6_8 1_555 1_555
N39_12 C91_12 1_555 1_555
N44_12 C91_12 1_555 1_555
N49_12 C96_12 1_555 1_555
N54_12 C106_12 1_555 1_555
C29_12 N13_12 1_555 1_555
C41_12 N25_11 1_555 1_555
H21_12 C41_12 1_555 1_555
C46_12 C41_12 1_555 1_555
H26_12 C46_12 1_555 1_555
C51_12 C46_12 1_555 1_555
H31_12 C51_12 1_555 1_555
C56_12 C51_12 1_555 1_555
C61_12 N25_11 1_555 1_555
H36_12 C61_12 1_555 1_555
C66_12 H41_12 1_555 1_555
C71_12 C66_12 1_555 1_555
H46_12 C71_12 1_555 1_555
C76_12 C71_12 1_555 1_555
H51_12 C76_12 1_555 1_555
C81_12 C76_12 1_555 1_555
C86_12 N32_12 1_555 1_555
H56_12 C86_12 1_555 1_555
C91_12 C81_12 1_555 1_555
C96_12 N39_12 1_555 1_555
C101_12 N44_12 1_555 1_555
C106_12 H61_12 1_555 1_555
C111_12 C101_12 1_555 1_555
C116_12 C111_12 1_555 1_555
H66_12 C116_12 1_555 1_555
C121_12 C116_12 1_555 1_555
H71_12 C121_12 1_555 1_555
C126_12 N54_12 1_555 1_555
H76_12 C126_12 1_555 1_555
N49_12 C101_12 1_555 1_555
C56_12 C61_12 1_555 1_555
C56_12 C96_12 1_555 1_555
C81_12 C86_12 1_555 1_555
C106_12 C111_12 1_555 1_555
C121_12 C126_12 1_555 1_555
Co1_14 N1_16 1_555 1_555
Co14_4 N2_16 1_555 1_555
S1_16 C1_16 1_555 1_555
S2_16 C2_16 1_555 1_555
N1_16 C1_16 1_555 1_555
N2_16 C2_16 1_555 1_555
N3_12 C3_13 1_555 1_555
N4_13 Co1_14 1_555 1_555
N5_13 C13_13 1_555 1_555
N6_13 C13_13 1_555 1_555
N7_13 C14_13 1_555 1_555
N8_13 Co14_4 1_555 1_555
C3_13 H1_13 1_555 1_555
C4_13 C3_13 1_555 1_555
H2_13 C4_13 1_555 1_555
C5_13 C4_13 1_555 1_555
H3_13 C5_13 1_555 1_555
C6_13 C5_13 1_555 1_555
C7_13 N3_12 1_555 1_555
H4_13 C7_13 1_555 1_555
C8_13 N4_13 1_555 1_555
H5_13 C8_13 1_555 1_555
C9_13 C8_13 1_555 1_555
H6_13 C9_13 1_555 1_555
C10_13 C9_13 1_555 1_555
H7_13 C10_13 1_555 1_555
C11_13 C10_13 1_555 1_555
C12_13 N4_13 1_555 1_555
H8_13 C12_13 1_555 1_555
C13_13 C11_13 1_555 1_555
C14_13 N5_13 1_555 1_555
C15_13 N6_13 1_555 1_555
C16_13 N8_13 1_555 1_555
H9_13 C16_13 1_555 1_555
C17_13 C15_13 1_555 1_555
C18_13 C17_13 1_555 1_555
H10_13 C18_13 1_555 1_555
C19_13 C18_13 1_555 1_555
H11_13 C19_13 1_555 1_555
C20_13 N8_13 1_555 1_555
H12_13 C20_13 1_555 1_555
Co5_8 N12_13 1_555 1_555
Co4_14 N14_13 1_555 1_555
Co6_4 N3_12 1_555 1_555
Co6_12 N23_10 1_555 1_555
Co7_18 N31_14 1_555 1_555
Co9_14 N17_14 1_555 1_555
Co10_13 N19_13 1_555 1_555
Co12_8 N52_15 1_555 1_555
Co12_3 N60_13 1_555 1_555
Co13 N61_13 1_555 1_555
S3_16 C27_16 1_555 1_555
S4_13 C28_13 1_555 1_555
S5_13 C29_13 1_555 1_555
S6_13 C30_13 1_555 1_555
S7_13 C31_13 1_555 1_555
S8_16 C32_16 1_555 1_555
S9_14 C33_14 1_555 1_555
S10_14 C34_14 1_555 1_555
S11_13 C35_13 1_555 1_555
S12_13 C36_13 1_555 1_555
N11_16 Co1_14 1_555 1_555
N12_13 C28_13 1_555 1_555
N13_13 Co5_8 1_555 1_555
N14_13 C30_13 1_555 1_555
N15_13 Co4_14 1_555 1_555
N16_16 Co14_4 1_555 1_555
N17_14 C33_14 1_555 1_555
N18_14 Co9_14 1_555 1_555
N19_13 C35_13 1_555 1_555
N20_13 Co10_13 1_555 1_555
N21_16 Co1_14 1_555 1_555
N22_16 Co1_14 1_555 1_555
N23_10 C39_15 1_555 1_555
N24_11 Co5_8 1_555 1_555
N26_10 Co4_14 1_555 1_555
N27_13 Co4_14 1_555 1_555
N28_13 Co5_8 1_555 1_555
N29_13 Co4_14 1_555 1_555
N30_15 Co1_14 1_555 1_555
N31_14 C65_14 1_555 1_555
N33_13 Co5_8 1_555 1_555
N34_13 Co4_14 1_555 1_555
N35_16 C87_16 1_555 1_555
N36_16 C88_16 1_555 1_555
N37_15 C89_15 1_555 1_555
N38_14 C90_14 1_555 1_555
N40_16 C87_16 1_555 1_555
N41_16 C88_16 1_555 1_555
N42_15 C89_15 1_555 1_555
N43_14 C90_14 1_555 1_555
N45_16 C92_16 1_555 1_555
N46_16 C93_16 1_555 1_555
N47_15 C94_15 1_555 1_555
N48_14 C95_14 1_555 1_555
N50_14 Co9_14 1_555 1_555
N51_13 Co10_13 1_555 1_555
N52_15 C104_15 1_555 1_555
N53_14 Co14_4 1_555 1_555
N55_14 Co9_14 1_555 1_555
N56_13 Co10_13 1_555 1_555
N59_13 Co14_4 1_555 1_555
N60_13 C130_13 1_555 1_555
N61_13 C131_13 1_555 1_555
N62_14 Co9_14 1_555 1_555
N63_14 Co9_14 1_555 1_555
N64_13 Co10_13 1_555 1_555
N65_13 Co10_13 1_555 1_555
N68_13 C154_13 1_555 1_555
N69_13 C155_13 1_555 1_555
N70_13 C154_13 1_555 1_555
C27_16 N11_16 1_555 1_555
C29_13 N13_13 1_555 1_555
C31_13 N15_13 1_555 1_555
C32_16 N16_16 1_555 1_555
C34_14 N18_14 1_555 1_555
C36_13 N20_13 1_555 1_555
C37_16 N21_16 1_555 1_555
C38_16 N22_16 1_555 1_555
C39_15 H19_15 1_555 1_555
C40_14 N24_11 1_555 1_555
H17_16 C37_16 1_555 1_555
H18_16 C38_16 1_555 1_555
H20_14 C40_14 1_555 1_555
C42_16 C37_16 1_555 1_555
C43_16 C38_16 1_555 1_555
C44_15 C39_15 1_555 1_555
C45_14 C40_14 1_555 1_555
H22_16 C42_16 1_555 1_555
H23_16 C43_16 1_555 1_555
H24_15 C44_15 1_555 1_555
H25_14 C45_14 1_555 1_555
C47_16 C42_16 1_555 1_555
C48_16 C43_16 1_555 1_555
C49_15 C44_15 1_555 1_555
C50_14 C45_14 1_555 1_555
H27_16 C47_16 1_555 1_555
H28_16 C48_16 1_555 1_555
H29_15 C49_15 1_555 1_555
H30_14 C50_14 1_555 1_555
C52_16 C47_16 1_555 1_555
C53_16 C48_16 1_555 1_555
C54_15 C49_15 1_555 1_555
C55_14 C50_14 1_555 1_555
C57_16 N21_16 1_555 1_555
C58_16 N22_16 1_555 1_555
C59_15 N23_10 1_555 1_555
C60_14 N24_11 1_555 1_555
H32_16 C57_16 1_555 1_555
H33_16 C58_16 1_555 1_555
H34_15 C59_15 1_555 1_555
H35_14 C60_14 1_555 1_555
C62_16 N28_13 1_555 1_555
C63_16 N29_13 1_555 1_555
C64_15 N30_15 1_555 1_555
C65_14 H40_14 1_555 1_555
H37_16 C62_16 1_555 1_555
H38_16 C63_16 1_555 1_555
H39_15 C64_15 1_555 1_555
C67_16 C62_16 1_555 1_555
C68_16 C63_16 1_555 1_555
C69_15 C64_15 1_555 1_555
C70_14 C65_14 1_555 1_555
H42_16 C67_16 1_555 1_555
H43_16 C68_16 1_555 1_555
H44_15 C69_15 1_555 1_555
H45_14 C70_14 1_555 1_555
C72_16 C67_16 1_555 1_555
C73_16 C68_16 1_555 1_555
C74_15 C69_15 1_555 1_555
C75_14 C70_14 1_555 1_555
H47_16 C72_16 1_555 1_555
H48_16 C73_16 1_555 1_555
H49_15 C74_15 1_555 1_555
H50_14 C75_14 1_555 1_555
C77_16 C72_16 1_555 1_555
C78_16 C73_16 1_555 1_555
C79_15 C74_15 1_555 1_555
C80_14 C75_14 1_555 1_555
C82_16 N28_13 1_555 1_555
C83_16 N29_13 1_555 1_555
C84_15 N30_15 1_555 1_555
C85_14 N31_14 1_555 1_555
H52_16 C82_16 1_555 1_555
H53_16 C83_16 1_555 1_555
H54_15 C84_15 1_555 1_555
H55_14 C85_14 1_555 1_555
C87_16 C77_16 1_555 1_555
C88_16 C78_16 1_555 1_555
C89_15 C79_15 1_555 1_555
C90_14 C80_14 1_555 1_555
C92_16 N35_16 1_555 1_555
C93_16 N36_16 1_555 1_555
C94_15 N37_15 1_555 1_555
C95_14 N38_14 1_555 1_555
C97_16 N40_16 1_555 1_555
C98_16 N41_16 1_555 1_555
C99_15 N42_15 1_555 1_555
C100_14 N43_14 1_555 1_555
C102_16 N50_14 1_555 1_555
C103_16 N51_13 1_555 1_555
C104_15 H59_15 1_555 1_555
C105_14 N53_14 1_555 1_555
H57_16 C102_16 1_555 1_555
H58_16 C103_16 1_555 1_555
H60_14 C105_14 1_555 1_555
C107_16 C97_16 1_555 1_555
C108_16 C98_16 1_555 1_555
C109_15 C99_15 1_555 1_555
C110_14 C100_14 1_555 1_555
C112_16 C107_16 1_555 1_555
C113_16 C108_16 1_555 1_555
C114_15 C109_15 1_555 1_555
C115_14 C110_14 1_555 1_555
H62_16 C112_16 1_555 1_555
H63_16 C113_16 1_555 1_555
H64_15 C114_15 1_555 1_555
H65_14 C115_14 1_555 1_555
C117_16 C112_16 1_555 1_555
C118_16 C113_16 1_555 1_555
C119_15 C114_15 1_555 1_555
C120_14 C115_14 1_555 1_555
H67_16 C117_16 1_555 1_555
H68_16 C118_16 1_555 1_555
H69_15 C119_15 1_555 1_555
H70_14 C120_14 1_555 1_555
C122_16 N50_14 1_555 1_555
C123_16 N51_13 1_555 1_555
C124_15 N52_15 1_555 1_555
C125_14 N53_14 1_555 1_555
H72_16 C122_16 1_555 1_555
H73_16 C123_16 1_555 1_555
H74_15 C124_15 1_555 1_555
H75_14 C125_14 1_555 1_555
C129_13 N59_13 1_555 1_555
C130_13 H80_13 1_555 1_555
C131_13 H81_13 1_555 1_555
H79_13 C129_13 1_555 1_555
C134_13 C129_13 1_555 1_555
C135_13 C130_13 1_555 1_555
C136_13 C131_13 1_555 1_555
H84_13 C134_13 1_555 1_555
H85_13 C135_13 1_555 1_555
H86_13 C136_13 1_555 1_555
C139_13 C134_13 1_555 1_555
C140_13 C135_13 1_555 1_555
C141_13 C136_13 1_555 1_555
H89_13 C139_13 1_555 1_555
H90_13 C140_13 1_555 1_555
H91_13 C141_13 1_555 1_555
C144_13 C139_13 1_555 1_555
C145_13 C140_13 1_555 1_555
C146_13 C141_13 1_555 1_555
C149_13 N59_13 1_555 1_555
C150_13 N60_13 1_555 1_555
C151_13 N61_13 1_555 1_555
H94_13 C149_13 1_555 1_555
H95_13 C150_13 1_555 1_555
H96_13 C151_13 1_555 1_555
C154_13 C144_13 1_555 1_555
C155_13 N68_13 1_555 1_555
C156_13 N69_13 1_555 1_555
N7_13 C15_13 1_555 1_555
C6_13 C7_13 1_555 1_555
C6_13 C14_13 1_555 1_555
C11_13 C12_13 1_555 1_555
C16_13 C17_13 1_555 1_555
C19_13 C20_13 1_555 1_555
N45_16 C97_16 1_555 1_555
N46_16 C98_16 1_555 1_555
N47_15 C99_15 1_555 1_555
N48_14 C100_14 1_555 1_555
N70_13 C156_13 1_555 1_555
C52_16 C57_16 1_555 1_555
C52_16 C92_16 1_555 1_555
C53_16 C58_16 1_555 1_555
C53_16 C93_16 1_555 1_555
C54_15 C59_15 1_555 1_555
C54_15 C94_15 1_555 1_555
C55_14 C60_14 1_555 1_555
C55_14 C95_14 1_555 1_555
C77_16 C82_16 1_555 1_555
C78_16 C83_16 1_555 1_555
C79_15 C84_15 1_555 1_555
C80_14 C85_14 1_555 1_555
C102_16 C107_16 1_555 1_555
C103_16 C108_16 1_555 1_555
C104_15 C109_15 1_555 1_555
C105_14 C110_14 1_555 1_555
C117_16 C122_16 1_555 1_555
C118_16 C123_16 1_555 1_555
C119_15 C124_15 1_555 1_555
C120_14 C125_14 1_555 1_555
C144_13 C149_13 1_555 1_555
C145_13 C150_13 1_555 1_555
C145_13 C156_13 1_555 1_555
C146_13 C151_13 1_555 1_555
C146_13 C155_13 1_555 1_555
S7_14 C31_14 1_555 1_555
S9_15 C33_15 1_555 1_555
S10_15 C34_15 1_555 1_555
N15_14 Co4_15 1_555 1_555
N27_14 Co4_15 1_555 1_555
N34_14 Co4_15 1_555 1_555
C31_14 N15_14 1_555 1_555
Co1_15 N1_17 1_555 1_555
Co12_2 N2_17 1_555 1_555
S1_17 C1_17 1_555 1_555
S2_17 C2_17 1_555 1_555
N1_17 C1_17 1_555 1_555
N2_17 C2_17 1_555 1_555
N3_13 C3_14 1_555 1_555
N4_14 Co1_15 1_555 1_555
N5_14 C13_14 1_555 1_555
N6_14 C13_14 1_555 1_555
N7_14 C14_14 1_555 1_555
N8_14 Co12_2 1_555 1_555
C3_14 H1_14 1_555 1_555
C4_14 C3_14 1_555 1_555
H2_14 C4_14 1_555 1_555
C5_14 C4_14 1_555 1_555
H3_14 C5_14 1_555 1_555
C6_14 C5_14 1_555 1_555
C7_14 N3_13 1_555 1_555
H4_14 C7_14 1_555 1_555
C8_14 N4_14 1_555 1_555
H5_14 C8_14 1_555 1_555
C9_14 C8_14 1_555 1_555
H6_14 C9_14 1_555 1_555
C10_14 C9_14 1_555 1_555
H7_14 C10_14 1_555 1_555
C11_14 C10_14 1_555 1_555
C12_14 N4_14 1_555 1_555
H8_14 C12_14 1_555 1_555
C13_14 C11_14 1_555 1_555
C14_14 N5_14 1_555 1_555
C15_14 N6_14 1_555 1_555
C16_14 N8_14 1_555 1_555
H9_14 C16_14 1_555 1_555
C17_14 C15_14 1_555 1_555
C18_14 C17_14 1_555 1_555
H10_14 C18_14 1_555 1_555
C19_14 C18_14 1_555 1_555
H11_14 C19_14 1_555 1_555
C20_14 N8_14 1_555 1_555
H12_14 C20_14 1_555 1_555
Co3_12 N12_14 1_555 1_555
Co4_16 N14_14 1_555 1_555
Co5_11 N3_13 1_555 1_555
Co5_3 N23_11 1_555 1_555
Co7_20 N31_15 1_555 1_555
Co8_17 N32_13 1_555 1_555
Co9_15 N17_15 1_555 1_555
Co10_14 N19_14 1_555 1_555
Co12_6 N52_16 1_555 1_555
Co12_5 N54_13 1_555 1_555
S3_17 C27_17 1_555 1_555
S4_14 C28_14 1_555 1_555
S5_14 C29_14 1_555 1_555
S6_14 C30_14 1_555 1_555
S8_17 C32_17 1_555 1_555
S11_14 C35_14 1_555 1_555
S12_14 C36_14 1_555 1_555
N11_17 Co1_15 1_555 1_555
N12_14 C28_14 1_555 1_555
N13_14 Co3_12 1_555 1_555
N14_14 C30_14 1_555 1_555
N16_17 Co12_2 1_555 1_555
N18_15 Co9_15 1_555 1_555
N19_14 C35_14 1_555 1_555
N20_14 Co10_14 1_555 1_555
N21_17 Co1_15 1_555 1_555
N22_17 Co1_15 1_555 1_555
N23_11 C39_16 1_555 1_555
N24_12 Co3_12 1_555 1_555
N25_12 Co3_12 1_555 1_555
N26_11 Co4_16 1_555 1_555
N28_14 Co3_12 1_555 1_555
N29_14 Co4_16 1_555 1_555
N30_16 Co1_15 1_555 1_555
N31_15 C65_15 1_555 1_555
N32_13 C66_13 1_555 1_555
N33_14 Co3_12 1_555 1_555
N35_17 C87_17 1_555 1_555
N36_17 C88_17 1_555 1_555
N37_16 C89_16 1_555 1_555
N38_15 C90_15 1_555 1_555
N39_13 C91_13 1_555 1_555
N40_17 C87_17 1_555 1_555
N41_17 C88_17 1_555 1_555
N42_16 C89_16 1_555 1_555
N43_15 C90_15 1_555 1_555
N44_13 C91_13 1_555 1_555
N45_17 C92_17 1_555 1_555
N46_17 C93_17 1_555 1_555
N47_16 C94_16 1_555 1_555
N48_15 C95_15 1_555 1_555
N49_13 C96_13 1_555 1_555
N50_15 Co9_15 1_555 1_555
N51_14 Co10_14 1_555 1_555
N52_16 C104_16 1_555 1_555
N53_15 Co12_2 1_555 1_555
N54_13 C106_13 1_555 1_555
N55_15 Co9_15 1_555 1_555
N56_14 Co10_14 1_555 1_555
N64_14 Co10_14 1_555 1_555
N65_14 Co10_14 1_555 1_555
C27_17 N11_17 1_555 1_555
C29_14 N13_14 1_555 1_555
C32_17 N16_17 1_555 1_555
C36_14 N20_14 1_555 1_555
C37_17 N21_17 1_555 1_555
C38_17 N22_17 1_555 1_555
C39_16 H19_16 1_555 1_555
C40_15 N24_12 1_555 1_555
C41_13 N25_12 1_555 1_555
H17_17 C37_17 1_555 1_555
H18_17 C38_17 1_555 1_555
H20_15 C40_15 1_555 1_555
H21_13 C41_13 1_555 1_555
C42_17 C37_17 1_555 1_555
C43_17 C38_17 1_555 1_555
C44_16 C39_16 1_555 1_555
C45_15 C40_15 1_555 1_555
C46_13 C41_13 1_555 1_555
H22_17 C42_17 1_555 1_555
H23_17 C43_17 1_555 1_555
H24_16 C44_16 1_555 1_555
H25_15 C45_15 1_555 1_555
H26_13 C46_13 1_555 1_555
C47_17 C42_17 1_555 1_555
C48_17 C43_17 1_555 1_555
C49_16 C44_16 1_555 1_555
C50_15 C45_15 1_555 1_555
C51_13 C46_13 1_555 1_555
H27_17 C47_17 1_555 1_555
H28_17 C48_17 1_555 1_555
H29_16 C49_16 1_555 1_555
H30_15 C50_15 1_555 1_555
H31_13 C51_13 1_555 1_555
C52_17 C47_17 1_555 1_555
C53_17 C48_17 1_555 1_555
C54_16 C49_16 1_555 1_555
C55_15 C50_15 1_555 1_555
C56_13 C51_13 1_555 1_555
C57_17 N21_17 1_555 1_555
C58_17 N22_17 1_555 1_555
C59_16 N23_11 1_555 1_555
C60_15 N24_12 1_555 1_555
C61_13 N25_12 1_555 1_555
H32_17 C57_17 1_555 1_555
H33_17 C58_17 1_555 1_555
H34_16 C59_16 1_555 1_555
H35_15 C60_15 1_555 1_555
H36_13 C61_13 1_555 1_555
C62_17 N28_14 1_555 1_555
C63_17 N29_14 1_555 1_555
C64_16 N30_16 1_555 1_555
C65_15 H40_15 1_555 1_555
C66_13 H41_13 1_555 1_555
H37_17 C62_17 1_555 1_555
H38_17 C63_17 1_555 1_555
H39_16 C64_16 1_555 1_555
C67_17 C62_17 1_555 1_555
C68_17 C63_17 1_555 1_555
C69_16 C64_16 1_555 1_555
C70_15 C65_15 1_555 1_555
C71_13 C66_13 1_555 1_555
H42_17 C67_17 1_555 1_555
H43_17 C68_17 1_555 1_555
H44_16 C69_16 1_555 1_555
H45_15 C70_15 1_555 1_555
H46_13 C71_13 1_555 1_555
C72_17 C67_17 1_555 1_555
C73_17 C68_17 1_555 1_555
C74_16 C69_16 1_555 1_555
C75_15 C70_15 1_555 1_555
C76_13 C71_13 1_555 1_555
H47_17 C72_17 1_555 1_555
H48_17 C73_17 1_555 1_555
H49_16 C74_16 1_555 1_555
H50_15 C75_15 1_555 1_555
H51_13 C76_13 1_555 1_555
C77_17 C72_17 1_555 1_555
C78_17 C73_17 1_555 1_555
C79_16 C74_16 1_555 1_555
C80_15 C75_15 1_555 1_555
C81_13 C76_13 1_555 1_555
C82_17 N28_14 1_555 1_555
C83_17 N29_14 1_555 1_555
C84_16 N30_16 1_555 1_555
C85_15 N31_15 1_555 1_555
C86_13 N32_13 1_555 1_555
H52_17 C82_17 1_555 1_555
H53_17 C83_17 1_555 1_555
H54_16 C84_16 1_555 1_555
H55_15 C85_15 1_555 1_555
H56_13 C86_13 1_555 1_555
C87_17 C77_17 1_555 1_555
C88_17 C78_17 1_555 1_555
C89_16 C79_16 1_555 1_555
C90_15 C80_15 1_555 1_555
C91_13 C81_13 1_555 1_555
C92_17 N35_17 1_555 1_555
C93_17 N36_17 1_555 1_555
C94_16 N37_16 1_555 1_555
C95_15 N38_15 1_555 1_555
C96_13 N39_13 1_555 1_555
C97_17 N40_17 1_555 1_555
C98_17 N41_17 1_555 1_555
C99_16 N42_16 1_555 1_555
C100_15 N43_15 1_555 1_555
C101_13 N44_13 1_555 1_555
C102_17 N50_15 1_555 1_555
C103_17 N51_14 1_555 1_555
C104_16 H59_16 1_555 1_555
C105_15 N53_15 1_555 1_555
C106_13 H61_13 1_555 1_555
H57_17 C102_17 1_555 1_555
H58_17 C103_17 1_555 1_555
H60_15 C105_15 1_555 1_555
C107_17 C97_17 1_555 1_555
C108_17 C98_17 1_555 1_555
C109_16 C99_16 1_555 1_555
C110_15 C100_15 1_555 1_555
C111_13 C101_13 1_555 1_555
C112_17 C107_17 1_555 1_555
C113_17 C108_17 1_555 1_555
C114_16 C109_16 1_555 1_555
C115_15 C110_15 1_555 1_555
C116_13 C111_13 1_555 1_555
H62_17 C112_17 1_555 1_555
H63_17 C113_17 1_555 1_555
H64_16 C114_16 1_555 1_555
H65_15 C115_15 1_555 1_555
H66_13 C116_13 1_555 1_555
C117_17 C112_17 1_555 1_555
C118_17 C113_17 1_555 1_555
C119_16 C114_16 1_555 1_555
C120_15 C115_15 1_555 1_555
C121_13 C116_13 1_555 1_555
H67_17 C117_17 1_555 1_555
H68_17 C118_17 1_555 1_555
H69_16 C119_16 1_555 1_555
H70_15 C120_15 1_555 1_555
H71_13 C121_13 1_555 1_555
C122_17 N50_15 1_555 1_555
C123_17 N51_14 1_555 1_555
C124_16 N52_16 1_555 1_555
C125_15 N53_15 1_555 1_555
C126_13 N54_13 1_555 1_555
H72_17 C122_17 1_555 1_555
H73_17 C123_17 1_555 1_555
H74_16 C124_16 1_555 1_555
H75_15 C125_15 1_555 1_555
H76_13 C126_13 1_555 1_555
N7_14 C15_14 1_555 1_555
C6_14 C7_14 1_555 1_555
C6_14 C14_14 1_555 1_555
C11_14 C12_14 1_555 1_555
C16_14 C17_14 1_555 1_555
C19_14 C20_14 1_555 1_555
N45_17 C97_17 1_555 1_555
N46_17 C98_17 1_555 1_555
N47_16 C99_16 1_555 1_555
N48_15 C100_15 1_555 1_555
N49_13 C101_13 1_555 1_555
C52_17 C57_17 1_555 1_555
C52_17 C92_17 1_555 1_555
C53_17 C58_17 1_555 1_555
C53_17 C93_17 1_555 1_555
C54_16 C59_16 1_555 1_555
C54_16 C94_16 1_555 1_555
C55_15 C60_15 1_555 1_555
C55_15 C95_15 1_555 1_555
C56_13 C61_13 1_555 1_555
C56_13 C96_13 1_555 1_555
C77_17 C82_17 1_555 1_555
C78_17 C83_17 1_555 1_555
C79_16 C84_16 1_555 1_555
C80_15 C85_15 1_555 1_555
C81_13 C86_13 1_555 1_555
C102_17 C107_17 1_555 1_555
C103_17 C108_17 1_555 1_555
C104_16 C109_16 1_555 1_555
C105_15 C110_15 1_555 1_555
C106_13 C111_13 1_555 1_555
C117_17 C122_17 1_555 1_555
C118_17 C123_17 1_555 1_555
C119_16 C124_16 1_555 1_555
C120_15 C125_15 1_555 1_555
C121_13 C126_13 1_555 1_555
S2_18 C2_18 1_555 1_555
S8_18 C32_18 1_555 1_555
Co1_16 N1_18 1_555 1_555
Co11_2 N2_18 1_555 1_555
S1_18 C1_18 1_555 1_555
N1_18 C1_18 1_555 1_555
N3_14 C3_15 1_555 1_555
N4_15 Co1_16 1_555 1_555
N5_15 C13_15 1_555 1_555
N6_15 C13_15 1_555 1_555
N7_15 C14_15 1_555 1_555
N8_15 Co11_2 1_555 1_555
C3_15 H1_15 1_555 1_555
C4_15 C3_15 1_555 1_555
H2_15 C4_15 1_555 1_555
C5_15 C4_15 1_555 1_555
H3_15 C5_15 1_555 1_555
C6_15 C5_15 1_555 1_555
C7_15 N3_14 1_555 1_555
H4_15 C7_15 1_555 1_555
C8_15 N4_15 1_555 1_555
H5_15 C8_15 1_555 1_555
C9_15 C8_15 1_555 1_555
H6_15 C9_15 1_555 1_555
C10_15 C9_15 1_555 1_555
H7_15 C10_15 1_555 1_555
C11_15 C10_15 1_555 1_555
C12_15 N4_15 1_555 1_555
H8_15 C12_15 1_555 1_555
C13_15 C11_15 1_555 1_555
C14_15 N5_15 1_555 1_555
C15_15 N6_15 1_555 1_555
C16_15 N8_15 1_555 1_555
H9_15 C16_15 1_555 1_555
C17_15 C15_15 1_555 1_555
C18_15 C17_15 1_555 1_555
H10_15 C18_15 1_555 1_555
C19_15 C18_15 1_555 1_555
H11_15 C19_15 1_555 1_555
C20_15 N8_15 1_555 1_555
H12_15 C20_15 1_555 1_555
Co3_13 N12_15 1_555 1_555
Co5_6 N14_15 1_555 1_555
Co5_12 N3_14 1_555 1_555
Co7_14 N31_16 1_555 1_555
Co7_3 N32_14 1_555 1_555
Co9_16 N17_16 1_555 1_555
Co15_7 N52_17 1_555 1_555
Co12_5 N54_14 1_555 1_555
S3_18 C27_18 1_555 1_555
S4_15 C28_15 1_555 1_555
S5_15 C29_15 1_555 1_555
S6_15 C30_15 1_555 1_555
S7_15 C31_15 1_555 1_555
S9_16 C33_16 1_555 1_555
S10_16 C34_16 1_555 1_555
N11_18 Co1_16 1_555 1_555
N12_15 C28_15 1_555 1_555
N13_15 Co3_13 1_555 1_555
N14_15 C30_15 1_555 1_555
N15_15 Co5_6 1_555 1_555
N16_18 Co11_2 1_555 1_555
N17_16 C33_16 1_555 1_555
N18_16 Co9_16 1_555 1_555
N21_18 Co1_16 1_555 1_555
N22_18 Co1_16 1_555 1_555
N26_9 C39_17 1_555 1_555
N24_13 Co3_13 1_555 1_555
N25_13 Co3_13 1_555 1_555
N28_15 Co3_13 1_555 1_555
N29_15 Co5_6 1_555 1_555
N30_17 Co1_16 1_555 1_555
N31_16 C65_16 1_555 1_555
N32_14 C66_14 1_555 1_555
N33_15 Co3_13 1_555 1_555
N34_15 Co5_6 1_555 1_555
N35_18 C87_18 1_555 1_555
N36_18 C88_18 1_555 1_555
N37_17 C89_17 1_555 1_555
N38_16 C90_16 1_555 1_555
N39_14 C91_14 1_555 1_555
N40_18 C87_18 1_555 1_555
N41_18 C88_18 1_555 1_555
N42_17 C89_17 1_555 1_555
N43_16 C90_16 1_555 1_555
N44_14 C91_14 1_555 1_555
N45_18 C92_18 1_555 1_555
N46_18 C93_18 1_555 1_555
N47_17 C94_17 1_555 1_555
N48_16 C95_16 1_555 1_555
N49_14 C96_14 1_555 1_555
N50_16 Co9_16 1_555 1_555
N52_17 C104_17 1_555 1_555
N53_16 Co11_2 1_555 1_555
N54_14 C106_14 1_555 1_555
N55_16 Co9_16 1_555 1_555
N62_16 Co9_16 1_555 1_555
N63_16 Co9_16 1_555 1_555
C27_18 N11_18 1_555 1_555
C29_15 N13_15 1_555 1_555
C31_15 N15_15 1_555 1_555
C34_16 N18_16 1_555 1_555
C37_18 N21_18 1_555 1_555
C38_18 N22_18 1_555 1_555
C39_17 H19_17 1_555 1_555
C40_16 N24_13 1_555 1_555
C41_14 N25_13 1_555 1_555
H17_18 C37_18 1_555 1_555
H18_18 C38_18 1_555 1_555
H20_16 C40_16 1_555 1_555
H21_14 C41_14 1_555 1_555
C42_18 C37_18 1_555 1_555
C43_18 C38_18 1_555 1_555
C44_17 C39_17 1_555 1_555
C45_16 C40_16 1_555 1_555
C46_14 C41_14 1_555 1_555
H22_18 C42_18 1_555 1_555
H23_18 C43_18 1_555 1_555
H24_17 C44_17 1_555 1_555
H25_16 C45_16 1_555 1_555
H26_14 C46_14 1_555 1_555
C47_18 C42_18 1_555 1_555
C48_18 C43_18 1_555 1_555
C49_17 C44_17 1_555 1_555
C50_16 C45_16 1_555 1_555
C51_14 C46_14 1_555 1_555
H27_18 C47_18 1_555 1_555
H28_18 C48_18 1_555 1_555
H29_17 C49_17 1_555 1_555
H30_16 C50_16 1_555 1_555
H31_14 C51_14 1_555 1_555
C52_18 C47_18 1_555 1_555
C53_18 C48_18 1_555 1_555
C54_17 C49_17 1_555 1_555
C55_16 C50_16 1_555 1_555
C56_14 C51_14 1_555 1_555
C57_18 N21_18 1_555 1_555
C58_18 N22_18 1_555 1_555
C59_17 N26_9 1_555 1_555
C60_16 N24_13 1_555 1_555
C61_14 N25_13 1_555 1_555
H32_18 C57_18 1_555 1_555
H33_18 C58_18 1_555 1_555
H34_17 C59_17 1_555 1_555
H35_16 C60_16 1_555 1_555
H36_14 C61_14 1_555 1_555
C62_18 N28_15 1_555 1_555
C63_18 N29_15 1_555 1_555
C64_17 N30_17 1_555 1_555
C65_16 H40_16 1_555 1_555
C66_14 H41_14 1_555 1_555
H37_18 C62_18 1_555 1_555
H38_18 C63_18 1_555 1_555
H39_17 C64_17 1_555 1_555
C67_18 C62_18 1_555 1_555
C68_18 C63_18 1_555 1_555
C69_17 C64_17 1_555 1_555
C70_16 C65_16 1_555 1_555
C71_14 C66_14 1_555 1_555
H42_18 C67_18 1_555 1_555
H43_18 C68_18 1_555 1_555
H44_17 C69_17 1_555 1_555
H45_16 C70_16 1_555 1_555
H46_14 C71_14 1_555 1_555
C72_18 C67_18 1_555 1_555
C73_18 C68_18 1_555 1_555
C74_17 C69_17 1_555 1_555
C75_16 C70_16 1_555 1_555
C76_14 C71_14 1_555 1_555
H47_18 C72_18 1_555 1_555
H48_18 C73_18 1_555 1_555
H49_17 C74_17 1_555 1_555
H50_16 C75_16 1_555 1_555
H51_14 C76_14 1_555 1_555
C77_18 C72_18 1_555 1_555
C78_18 C73_18 1_555 1_555
C79_17 C74_17 1_555 1_555
C80_16 C75_16 1_555 1_555
C81_14 C76_14 1_555 1_555
C82_18 N28_15 1_555 1_555
C83_18 N29_15 1_555 1_555
C84_17 N30_17 1_555 1_555
C85_16 N31_16 1_555 1_555
C86_14 N32_14 1_555 1_555
H52_18 C82_18 1_555 1_555
H53_18 C83_18 1_555 1_555
H54_17 C84_17 1_555 1_555
H55_16 C85_16 1_555 1_555
H56_14 C86_14 1_555 1_555
C87_18 C77_18 1_555 1_555
C88_18 C78_18 1_555 1_555
C89_17 C79_17 1_555 1_555
C90_16 C80_16 1_555 1_555
C91_14 C81_14 1_555 1_555
C92_18 N35_18 1_555 1_555
C93_18 N36_18 1_555 1_555
C94_17 N37_17 1_555 1_555
C95_16 N38_16 1_555 1_555
C96_14 N39_14 1_555 1_555
C97_18 N40_18 1_555 1_555
C98_18 N41_18 1_555 1_555
C99_17 N42_17 1_555 1_555
C100_16 N43_16 1_555 1_555
C101_14 N44_14 1_555 1_555
C102_18 N50_16 1_555 1_555
C103_18 N56_9 1_555 1_555
C104_17 H59_17 1_555 1_555
C105_16 N53_16 1_555 1_555
C106_14 H61_14 1_555 1_555
H57_18 C102_18 1_555 1_555
H58_18 C103_18 1_555 1_555
H60_16 C105_16 1_555 1_555
C107_18 C97_18 1_555 1_555
C108_18 C98_18 1_555 1_555
C109_17 C99_17 1_555 1_555
C110_16 C100_16 1_555 1_555
C111_14 C101_14 1_555 1_555
C112_18 C107_18 1_555 1_555
C113_18 C108_18 1_555 1_555
C114_17 C109_17 1_555 1_555
C115_16 C110_16 1_555 1_555
C116_14 C111_14 1_555 1_555
H62_18 C112_18 1_555 1_555
H63_18 C113_18 1_555 1_555
H64_17 C114_17 1_555 1_555
H65_16 C115_16 1_555 1_555
H66_14 C116_14 1_555 1_555
C117_18 C112_18 1_555 1_555
C118_18 C113_18 1_555 1_555
C119_17 C114_17 1_555 1_555
C120_16 C115_16 1_555 1_555
C121_14 C116_14 1_555 1_555
H67_18 C117_18 1_555 1_555
H68_18 C118_18 1_555 1_555
H69_17 C119_17 1_555 1_555
H70_16 C120_16 1_555 1_555
H71_14 C121_14 1_555 1_555
C122_18 N50_16 1_555 1_555
C123_18 N56_9 1_555 1_555
C124_17 N52_17 1_555 1_555
C125_16 N53_16 1_555 1_555
C126_14 N54_14 1_555 1_555
H72_18 C122_18 1_555 1_555
H73_18 C123_18 1_555 1_555
H74_17 C124_17 1_555 1_555
H75_16 C125_16 1_555 1_555
H76_14 C126_14 1_555 1_555
N7_15 C15_15 1_555 1_555
C6_15 C7_15 1_555 1_555
C6_15 C14_15 1_555 1_555
C11_15 C12_15 1_555 1_555
C16_15 C17_15 1_555 1_555
C19_15 C20_15 1_555 1_555
N45_18 C97_18 1_555 1_555
N46_18 C98_18 1_555 1_555
N47_17 C99_17 1_555 1_555
N48_16 C100_16 1_555 1_555
N49_14 C101_14 1_555 1_555
C52_18 C57_18 1_555 1_555
C52_18 C92_18 1_555 1_555
C53_18 C58_18 1_555 1_555
C53_18 C93_18 1_555 1_555
C54_17 C59_17 1_555 1_555
C54_17 C94_17 1_555 1_555
C55_16 C60_16 1_555 1_555
C55_16 C95_16 1_555 1_555
C56_14 C61_14 1_555 1_555
C56_14 C96_14 1_555 1_555
C77_18 C82_18 1_555 1_555
C78_18 C83_18 1_555 1_555
C79_17 C84_17 1_555 1_555
C80_16 C85_16 1_555 1_555
C81_14 C86_14 1_555 1_555
C102_18 C107_18 1_555 1_555
C103_18 C108_18 1_555 1_555
C104_17 C109_17 1_555 1_555
C105_16 C110_16 1_555 1_555
C106_14 C111_14 1_555 1_555
C117_18 C122_18 1_555 1_555
C118_18 C123_18 1_555 1_555
C119_17 C124_17 1_555 1_555
C120_16 C125_16 1_555 1_555
C121_14 C126_14 1_555 1_555
Co8_16 N1_19 1_555 1_555
Co14_6 N2_19 1_555 1_555
S1_19 C1_19 1_555 1_555
N1_19 C1_19 1_555 1_555
Co4_17 N14_16 1_555 1_555
Co9_17 N17_17 1_555 1_555
Co10_15 N19_15 1_555 1_555
Co11_5 N52_18 1_555 1_555
S3_19 C27_19 1_555 1_555
S6_16 C30_16 1_555 1_555
S7_16 C31_16 1_555 1_555
S9_17 C33_17 1_555 1_555
S10_17 C34_17 1_555 1_555
S11_15 C35_15 1_555 1_555
S12_15 C36_15 1_555 1_555
N11_19 Co8_16 1_555 1_555
N14_16 C30_16 1_555 1_555
N15_16 Co4_17 1_555 1_555
N16_19 Co14_6 1_555 1_555
N17_17 C33_17 1_555 1_555
N18_17 Co9_17 1_555 1_555
N19_15 C35_15 1_555 1_555
N20_15 Co10_15 1_555 1_555
N21_19 Co8_16 1_555 1_555
N22_19 Co8_16 1_555 1_555
N27_14 C39_18 1_555 1_555
N26_12 Co4_17 1_555 1_555
N27_15 Co4_17 1_555 1_555
N29_16 Co4_17 1_555 1_555
N30_18 Co8_16 1_555 1_555
N34_16 Co4_17 1_555 1_555
N35_19 C87_19 1_555 1_555
N36_19 C88_19 1_555 1_555
N37_18 C89_18 1_555 1_555
N40_19 C87_19 1_555 1_555
N41_19 C88_19 1_555 1_555
N42_18 C89_18 1_555 1_555
N45_19 C92_19 1_555 1_555
N46_19 C93_19 1_555 1_555
N47_18 C94_18 1_555 1_555
N50_17 Co9_17 1_555 1_555
N51_15 Co10_15 1_555 1_555
N52_18 C104_18 1_555 1_555
N55_17 Co9_17 1_555 1_555
N56_15 Co10_15 1_555 1_555
N62_17 Co9_17 1_555 1_555
N63_17 Co9_17 1_555 1_555
N64_15 Co10_15 1_555 1_555
N65_15 Co10_15 1_555 1_555
C27_19 N11_19 1_555 1_555
C31_16 N15_16 1_555 1_555
C34_17 N18_17 1_555 1_555
C36_15 N20_15 1_555 1_555
C37_19 N21_19 1_555 1_555
C38_19 N22_19 1_555 1_555
C39_18 H19_18 1_555 1_555
H17_19 C37_19 1_555 1_555
H18_19 C38_19 1_555 1_555
C42_19 C37_19 1_555 1_555
C43_19 C38_19 1_555 1_555
C44_18 C39_18 1_555 1_555
H22_19 C42_19 1_555 1_555
H23_19 C43_19 1_555 1_555
H24_18 C44_18 1_555 1_555
C47_19 C42_19 1_555 1_555
C48_19 C43_19 1_555 1_555
C49_18 C44_18 1_555 1_555
H27_19 C47_19 1_555 1_555
H28_19 C48_19 1_555 1_555
H29_18 C49_18 1_555 1_555
C52_19 C47_19 1_555 1_555
C53_19 C48_19 1_555 1_555
C54_18 C49_18 1_555 1_555
C57_19 N21_19 1_555 1_555
C58_19 N22_19 1_555 1_555
C59_18 N27_14 1_555 1_555
H32_19 C57_19 1_555 1_555
H33_19 C58_19 1_555 1_555
H34_18 C59_18 1_555 1_555
C62_19 N33_8 1_555 1_555
C63_19 N29_16 1_555 1_555
C64_18 N30_18 1_555 1_555
H37_19 C62_19 1_555 1_555
H38_19 C63_19 1_555 1_555
H39_18 C64_18 1_555 1_555
C67_19 C62_19 1_555 1_555
C68_19 C63_19 1_555 1_555
C69_18 C64_18 1_555 1_555
H42_19 C67_19 1_555 1_555
H43_19 C68_19 1_555 1_555
H44_18 C69_18 1_555 1_555
C72_19 C67_19 1_555 1_555
C73_19 C68_19 1_555 1_555
C74_18 C69_18 1_555 1_555
H47_19 C72_19 1_555 1_555
H48_19 C73_19 1_555 1_555
H49_18 C74_18 1_555 1_555
C77_19 C72_19 1_555 1_555
C78_19 C73_19 1_555 1_555
C79_18 C74_18 1_555 1_555
C82_19 N33_8 1_555 1_555
C83_19 N29_16 1_555 1_555
C84_18 N30_18 1_555 1_555
H52_19 C82_19 1_555 1_555
H53_19 C83_19 1_555 1_555
H54_18 C84_18 1_555 1_555
C87_19 C77_19 1_555 1_555
C88_19 C78_19 1_555 1_555
C89_18 C79_18 1_555 1_555
C92_19 N35_19 1_555 1_555
C93_19 N36_19 1_555 1_555
C94_18 N37_18 1_555 1_555
C97_19 N40_19 1_555 1_555
C98_19 N41_19 1_555 1_555
C99_18 N42_18 1_555 1_555
C102_19 N50_17 1_555 1_555
C103_19 N51_15 1_555 1_555
C104_18 H59_18 1_555 1_555
H57_19 C102_19 1_555 1_555
H58_19 C103_19 1_555 1_555
C107_19 C97_19 1_555 1_555
C108_19 C98_19 1_555 1_555
C109_18 C99_18 1_555 1_555
C112_19 C107_19 1_555 1_555
C113_19 C108_19 1_555 1_555
C114_18 C109_18 1_555 1_555
H62_19 C112_19 1_555 1_555
H63_19 C113_19 1_555 1_555
H64_18 C114_18 1_555 1_555
C117_19 C112_19 1_555 1_555
C118_19 C113_19 1_555 1_555
C119_18 C114_18 1_555 1_555
H67_19 C117_19 1_555 1_555
H68_19 C118_19 1_555 1_555
H69_18 C119_18 1_555 1_555
C122_19 N50_17 1_555 1_555
C123_19 N51_15 1_555 1_555
C124_18 N52_18 1_555 1_555
H72_19 C122_19 1_555 1_555
H73_19 C123_19 1_555 1_555
H74_18 C124_18 1_555 1_555
N45_19 C97_19 1_555 1_555
N46_19 C98_19 1_555 1_555
N47_18 C99_18 1_555 1_555
C52_19 C57_19 1_555 1_555
C52_19 C92_19 1_555 1_555
C53_19 C58_19 1_555 1_555
C53_19 C93_19 1_555 1_555
C54_18 C59_18 1_555 1_555
C54_18 C94_18 1_555 1_555
C77_19 C82_19 1_555 1_555
C78_19 C83_19 1_555 1_555
C79_18 C84_18 1_555 1_555
C102_19 C107_19 1_555 1_555
C103_19 C108_19 1_555 1_555
C104_18 C109_18 1_555 1_555
C117_19 C122_19 1_555 1_555
C118_19 C123_19 1_555 1_555
C119_18 C124_18 1_555 1_555
S2_19 C2_19 1_555 1_555
Co12_6 N60_14 1_555 1_555
Co15_9 N61_14 1_555 1_555
S8_19 C32_19 1_555 1_555
N60_14 C130_14 1_555 1_555
N61_14 C131_14 1_555 1_555
N68_14 C154_14 1_555 1_555
N69_14 C155_14 1_555 1_555
N70_14 C154_14 1_555 1_555
C129_14 N59_14 1_555 1_555
C130_14 H80_14 1_555 1_555
C131_14 H81_14 1_555 1_555
H79_14 C129_14 1_555 1_555
C134_14 C129_14 1_555 1_555
C135_14 C130_14 1_555 1_555
C136_14 C131_14 1_555 1_555
H84_14 C134_14 1_555 1_555
H85_14 C135_14 1_555 1_555
H86_14 C136_14 1_555 1_555
C139_14 C134_14 1_555 1_555
C140_14 C135_14 1_555 1_555
C141_14 C136_14 1_555 1_555
H89_14 C139_14 1_555 1_555
H90_14 C140_14 1_555 1_555
H91_14 C141_14 1_555 1_555
C144_14 C139_14 1_555 1_555
C145_14 C140_14 1_555 1_555
C146_14 C141_14 1_555 1_555
C149_14 N59_14 1_555 1_555
C150_14 N60_14 1_555 1_555
C151_14 N61_14 1_555 1_555
H94_14 C149_14 1_555 1_555
H95_14 C150_14 1_555 1_555
H96_14 C151_14 1_555 1_555
C154_14 C144_14 1_555 1_555
C155_14 N68_14 1_555 1_555
C156_14 N69_14 1_555 1_555
N70_14 C156_14 1_555 1_555
C144_14 C149_14 1_555 1_555
C145_14 C150_14 1_555 1_555
C145_14 C156_14 1_555 1_555
C146_14 C151_14 1_555 1_555
C146_14 C155_14 1_555 1_555
Co1_17 N1_20 1_555 1_555
Co12_9 N2_20 1_555 1_555
S1_20 C1_20 1_555 1_555
S2_20 C2_20 1_555 1_555
N1_20 C1_20 1_555 1_555
N2_20 C2_20 1_555 1_555
N27_5 C3_16 1_555 1_555
N4_16 Co1_17 1_555 1_555
N5_16 C13_16 1_555 1_555
N6_16 C13_16 1_555 1_555
N7_16 C14_16 1_555 1_555
N8_16 Co12_9 1_555 1_555
C3_16 H1_16 1_555 1_555
C4_16 C3_16 1_555 1_555
H2_16 C4_16 1_555 1_555
C5_16 C4_16 1_555 1_555
H3_16 C5_16 1_555 1_555
C6_16 C5_16 1_555 1_555
C7_16 N27_5 1_555 1_555
H4_16 C7_16 1_555 1_555
C8_16 N4_16 1_555 1_555
H5_16 C8_16 1_555 1_555
C9_16 C8_16 1_555 1_555
H6_16 C9_16 1_555 1_555
C10_16 C9_16 1_555 1_555
H7_16 C10_16 1_555 1_555
C11_16 C10_16 1_555 1_555
C12_16 N4_16 1_555 1_555
H8_16 C12_16 1_555 1_555
C13_16 C11_16 1_555 1_555
C14_16 N5_16 1_555 1_555
C15_16 N6_16 1_555 1_555
C16_16 N8_16 1_555 1_555
H9_16 C16_16 1_555 1_555
C17_16 C15_16 1_555 1_555
C18_16 C17_16 1_555 1_555
H10_16 C18_16 1_555 1_555
C19_16 C18_16 1_555 1_555
H11_16 C19_16 1_555 1_555
C20_16 N8_16 1_555 1_555
H12_16 C20_16 1_555 1_555
Co5_10 N12_16 1_555 1_555
Co6_12 N14_17 1_555 1_555
Co7_21 N31_17 1_555 1_555
Co9_18 N17_18 1_555 1_555
Co12_8 N52_19 1_555 1_555
Co11_3 N60_15 1_555 1_555
Co15_3 N61_15 1_555 1_555
S3_20 C27_20 1_555 1_555
S4_16 C28_16 1_555 1_555
S5_16 C29_16 1_555 1_555
S6_17 C30_17 1_555 1_555
S7_17 C31_17 1_555 1_555
S8_20 C32_20 1_555 1_555
S9_18 C33_18 1_555 1_555
S10_18 C34_18 1_555 1_555
N11_20 Co1_17 1_555 1_555
N12_16 C28_16 1_555 1_555
N13_16 Co5_10 1_555 1_555
N14_17 C30_17 1_555 1_555
N15_17 Co6_12 1_555 1_555
N16_20 Co12_9 1_555 1_555
N17_18 C33_18 1_555 1_555
N18_18 Co9_18 1_555 1_555
N21_20 Co1_17 1_555 1_555
N22_20 Co1_17 1_555 1_555
N26_10 C39_19 1_555 1_555
N24_14 Co5_10 1_555 1_555
N27_16 Co6_12 1_555 1_555
N28_16 Co5_10 1_555 1_555
N29_17 Co6_12 1_555 1_555
N30_19 Co1_17 1_555 1_555
N31_17 C65_17 1_555 1_555
N33_16 Co5_10 1_555 1_555
N34_17 Co6_12 1_555 1_555
N35_20 C87_20 1_555 1_555
N36_20 C88_20 1_555 1_555
N37_19 C89_19 1_555 1_555
N38_17 C90_17 1_555 1_555
N40_20 C87_20 1_555 1_555
N41_20 C88_20 1_555 1_555
N42_19 C89_19 1_555 1_555
N43_17 C90_17 1_555 1_555
N45_20 C92_20 1_555 1_555
N46_20 C93_20 1_555 1_555
N47_19 C94_19 1_555 1_555
N48_17 C95_17 1_555 1_555
N50_18 Co9_18 1_555 1_555
N52_19 C104_19 1_555 1_555
N53_17 Co12_9 1_555 1_555
N55_18 Co9_18 1_555 1_555
N59_15 Co12_9 1_555 1_555
N60_15 C130_15 1_555 1_555
N61_15 C131_15 1_555 1_555
N62_18 Co9_18 1_555 1_555
N63_18 Co9_18 1_555 1_555
N68_15 C154_15 1_555 1_555
N69_15 C155_15 1_555 1_555
N70_15 C154_15 1_555 1_555
C27_20 N11_20 1_555 1_555
C29_16 N13_16 1_555 1_555
C31_17 N15_17 1_555 1_555
C32_20 N16_20 1_555 1_555
C34_18 N18_18 1_555 1_555
C37_20 N21_20 1_555 1_555
C38_20 N22_20 1_555 1_555
C39_19 H19_19 1_555 1_555
C40_17 N24_14 1_555 1_555
H17_20 C37_20 1_555 1_555
H18_20 C38_20 1_555 1_555
H20_17 C40_17 1_555 1_555
C42_20 C37_20 1_555 1_555
C43_20 C38_20 1_555 1_555
C44_19 C39_19 1_555 1_555
C45_17 C40_17 1_555 1_555
H22_20 C42_20 1_555 1_555
H23_20 C43_20 1_555 1_555
H24_19 C44_19 1_555 1_555
H25_17 C45_17 1_555 1_555
C47_20 C42_20 1_555 1_555
C48_20 C43_20 1_555 1_555
C49_19 C44_19 1_555 1_555
C50_17 C45_17 1_555 1_555
H27_20 C47_20 1_555 1_555
H28_20 C48_20 1_555 1_555
H29_19 C49_19 1_555 1_555
H30_17 C50_17 1_555 1_555
C52_20 C47_20 1_555 1_555
C53_20 C48_20 1_555 1_555
C54_19 C49_19 1_555 1_555
C55_17 C50_17 1_555 1_555
C57_20 N21_20 1_555 1_555
C58_20 N22_20 1_555 1_555
C59_19 N26_10 1_555 1_555
C60_17 N24_14 1_555 1_555
H32_20 C57_20 1_555 1_555
H33_20 C58_20 1_555 1_555
H34_19 C59_19 1_555 1_555
H35_17 C60_17 1_555 1_555
C62_20 N28_16 1_555 1_555
C63_20 N29_17 1_555 1_555
C64_19 N30_19 1_555 1_555
C65_17 H40_17 1_555 1_555
H37_20 C62_20 1_555 1_555
H38_20 C63_20 1_555 1_555
H39_19 C64_19 1_555 1_555
C67_20 C62_20 1_555 1_555
C68_20 C63_20 1_555 1_555
C69_19 C64_19 1_555 1_555
C70_17 C65_17 1_555 1_555
H42_20 C67_20 1_555 1_555
H43_20 C68_20 1_555 1_555
H44_19 C69_19 1_555 1_555
H45_17 C70_17 1_555 1_555
C72_20 C67_20 1_555 1_555
C73_20 C68_20 1_555 1_555
C74_19 C69_19 1_555 1_555
C75_17 C70_17 1_555 1_555
H47_20 C72_20 1_555 1_555
H48_20 C73_20 1_555 1_555
H49_19 C74_19 1_555 1_555
H50_17 C75_17 1_555 1_555
C77_20 C72_20 1_555 1_555
C78_20 C73_20 1_555 1_555
C79_19 C74_19 1_555 1_555
C80_17 C75_17 1_555 1_555
C82_20 N28_16 1_555 1_555
C83_20 N29_17 1_555 1_555
C84_19 N30_19 1_555 1_555
C85_17 N31_17 1_555 1_555
H52_20 C82_20 1_555 1_555
H53_20 C83_20 1_555 1_555
H54_19 C84_19 1_555 1_555
H55_17 C85_17 1_555 1_555
C87_20 C77_20 1_555 1_555
C88_20 C78_20 1_555 1_555
C89_19 C79_19 1_555 1_555
C90_17 C80_17 1_555 1_555
C92_20 N35_20 1_555 1_555
C93_20 N36_20 1_555 1_555
C94_19 N37_19 1_555 1_555
C95_17 N38_17 1_555 1_555
C97_20 N40_20 1_555 1_555
C98_20 N41_20 1_555 1_555
C99_19 N42_19 1_555 1_555
C100_17 N43_17 1_555 1_555
C102_20 N50_18 1_555 1_555
C103_20 N56_13 1_555 1_555
C104_19 H59_19 1_555 1_555
C105_17 N53_17 1_555 1_555
H57_20 C102_20 1_555 1_555
H58_20 C103_20 1_555 1_555
H60_17 C105_17 1_555 1_555
C107_20 C97_20 1_555 1_555
C108_20 C98_20 1_555 1_555
C109_19 C99_19 1_555 1_555
C110_17 C100_17 1_555 1_555
C112_20 C107_20 1_555 1_555
C113_20 C108_20 1_555 1_555
C114_19 C109_19 1_555 1_555
C115_17 C110_17 1_555 1_555
H62_20 C112_20 1_555 1_555
H63_20 C113_20 1_555 1_555
H64_19 C114_19 1_555 1_555
H65_17 C115_17 1_555 1_555
C117_20 C112_20 1_555 1_555
C118_20 C113_20 1_555 1_555
C119_19 C114_19 1_555 1_555
C120_17 C115_17 1_555 1_555
H67_20 C117_20 1_555 1_555
H68_20 C118_20 1_555 1_555
H69_19 C119_19 1_555 1_555
H70_17 C120_17 1_555 1_555
C122_20 N50_18 1_555 1_555
C123_20 N56_13 1_555 1_555
C124_19 N52_19 1_555 1_555
C125_17 N53_17 1_555 1_555
H72_20 C122_20 1_555 1_555
H73_20 C123_20 1_555 1_555
H74_19 C124_19 1_555 1_555
H75_17 C125_17 1_555 1_555
C129_15 N59_15 1_555 1_555
C130_15 H80_15 1_555 1_555
C131_15 H81_15 1_555 1_555
H79_15 C129_15 1_555 1_555
C134_15 C129_15 1_555 1_555
C135_15 C130_15 1_555 1_555
C136_15 C131_15 1_555 1_555
H84_15 C134_15 1_555 1_555
H85_15 C135_15 1_555 1_555
H86_15 C136_15 1_555 1_555
C139_15 C134_15 1_555 1_555
C140_15 C135_15 1_555 1_555
C141_15 C136_15 1_555 1_555
H89_15 C139_15 1_555 1_555
H90_15 C140_15 1_555 1_555
H91_15 C141_15 1_555 1_555
C144_15 C139_15 1_555 1_555
C145_15 C140_15 1_555 1_555
C146_15 C141_15 1_555 1_555
C149_15 N59_15 1_555 1_555
C150_15 N60_15 1_555 1_555
C151_15 N61_15 1_555 1_555
H94_15 C149_15 1_555 1_555
H95_15 C150_15 1_555 1_555
H96_15 C151_15 1_555 1_555
C154_15 C144_15 1_555 1_555
C155_15 N68_15 1_555 1_555
C156_15 N69_15 1_555 1_555
N7_16 C15_16 1_555 1_555
C6_16 C7_16 1_555 1_555
C6_16 C14_16 1_555 1_555
C11_16 C12_16 1_555 1_555
C16_16 C17_16 1_555 1_555
C19_16 C20_16 1_555 1_555
N45_20 C97_20 1_555 1_555
N46_20 C98_20 1_555 1_555
N47_19 C99_19 1_555 1_555
N48_17 C100_17 1_555 1_555
N70_15 C156_15 1_555 1_555
C52_20 C57_20 1_555 1_555
C52_20 C92_20 1_555 1_555
C53_20 C58_20 1_555 1_555
C53_20 C93_20 1_555 1_555
C54_19 C59_19 1_555 1_555
C54_19 C94_19 1_555 1_555
C55_17 C60_17 1_555 1_555
C55_17 C95_17 1_555 1_555
C77_20 C82_20 1_555 1_555
C78_20 C83_20 1_555 1_555
C79_19 C84_19 1_555 1_555
C80_17 C85_17 1_555 1_555
C102_20 C107_20 1_555 1_555
C103_20 C108_20 1_555 1_555
C104_19 C109_19 1_555 1_555
C105_17 C110_17 1_555 1_555
C117_20 C122_20 1_555 1_555
C118_20 C123_20 1_555 1_555
C119_19 C124_19 1_555 1_555
C120_17 C125_17 1_555 1_555
C144_15 C149_15 1_555 1_555
C145_15 C150_15 1_555 1_555
C145_15 C156_15 1_555 1_555
C146_15 C151_15 1_555 1_555
C146_15 C155_15 1_555 1_555
Co5_2 N14_18 1_555 1_555
S3_21 C27_21 1_555 1_555
S6_18 C30_18 1_555 1_555
S7_18 C31_18 1_555 1_555
N11_21 Co7_2 1_555 1_555
N14_18 C30_18 1_555 1_555
N15_18 Co5_2 1_555 1_555
N22_21 Co7_2 1_555 1_555
N29_18 Co5_2 1_555 1_555
N34_18 Co5_2 1_555 1_555
N36_21 C88_21 1_555 1_555
N41_21 C88_21 1_555 1_555
N46_21 C93_21 1_555 1_555
C27_21 N11_21 1_555 1_555
C31_18 N15_18 1_555 1_555
C38_21 N22_21 1_555 1_555
H18_21 C38_21 1_555 1_555
C43_21 C38_21 1_555 1_555
H23_21 C43_21 1_555 1_555
C48_21 C43_21 1_555 1_555
H28_21 C48_21 1_555 1_555
C53_21 C48_21 1_555 1_555
C58_21 N22_21 1_555 1_555
H33_21 C58_21 1_555 1_555
C63_21 N29_18 1_555 1_555
H38_21 C63_21 1_555 1_555
C68_21 C63_21 1_555 1_555
H43_21 C68_21 1_555 1_555
C73_21 C68_21 1_555 1_555
H48_21 C73_21 1_555 1_555
C78_21 C73_21 1_555 1_555
C83_21 N29_18 1_555 1_555
H53_21 C83_21 1_555 1_555
C88_21 C78_21 1_555 1_555
C93_21 N36_21 1_555 1_555
C98_21 N41_21 1_555 1_555
C103_21 N55_2 1_555 1_555
H58_21 C103_21 1_555 1_555
C108_21 C98_21 1_555 1_555
C113_21 C108_21 1_555 1_555
H63_21 C113_21 1_555 1_555
C118_21 C113_21 1_555 1_555
H68_21 C118_21 1_555 1_555
C123_21 N55_2 1_555 1_555
H73_21 C123_21 1_555 1_555
N46_21 C98_21 1_555 1_555
C53_21 C58_21 1_555 1_555
C53_21 C93_21 1_555 1_555
C78_21 C83_21 1_555 1_555
C103_21 C108_21 1_555 1_555
C118_21 C123_21 1_555 1_555
Co7_3 N1_21 1_555 1_555
Co12_5 N2_21 1_555 1_555
S1_21 C1_21 1_555 1_555
S2_21 C2_21 1_555 1_555
N1_21 C1_21 1_555 1_555
N2_21 C2_21 1_555 1_555
Co9_19 N17_19 1_555 1_555
S8_21 C32_21 1_555 1_555
S9_19 C33_19 1_555 1_555
S10_19 C34_19 1_555 1_555
N16_21 Co12_5 1_555 1_555
N17_19 C33_19 1_555 1_555
N18_19 Co9_19 1_555 1_555
N21_21 Co7_3 1_555 1_555
N35_21 C87_21 1_555 1_555
N40_21 C87_21 1_555 1_555
N45_21 C92_21 1_555 1_555
N50_19 Co9_19 1_555 1_555
N55_19 Co9_19 1_555 1_555
N62_19 Co9_19 1_555 1_555
N63_19 Co9_19 1_555 1_555
C32_21 N16_21 1_555 1_555
C34_19 N18_19 1_555 1_555
C37_21 N21_21 1_555 1_555
H17_21 C37_21 1_555 1_555
C42_21 C37_21 1_555 1_555
H22_21 C42_21 1_555 1_555
C47_21 C42_21 1_555 1_555
H27_21 C47_21 1_555 1_555
C52_21 C47_21 1_555 1_555
C57_21 N21_21 1_555 1_555
H32_21 C57_21 1_555 1_555
C62_21 N33_14 1_555 1_555
H37_21 C62_21 1_555 1_555
C67_21 C62_21 1_555 1_555
H42_21 C67_21 1_555 1_555
C72_21 C67_21 1_555 1_555
H47_21 C72_21 1_555 1_555
C77_21 C72_21 1_555 1_555
C82_21 N33_14 1_555 1_555
H52_21 C82_21 1_555 1_555
C87_21 C77_21 1_555 1_555
C92_21 N35_21 1_555 1_555
C97_21 N40_21 1_555 1_555
C102_21 N50_19 1_555 1_555
H57_21 C102_21 1_555 1_555
C107_21 C97_21 1_555 1_555
C112_21 C107_21 1_555 1_555
H62_21 C112_21 1_555 1_555
C117_21 C112_21 1_555 1_555
H67_21 C117_21 1_555 1_555
C122_21 N50_19 1_555 1_555
H72_21 C122_21 1_555 1_555
N45_21 C97_21 1_555 1_555
C52_21 C57_21 1_555 1_555
C52_21 C92_21 1_555 1_555
C77_21 C82_21 1_555 1_555
C102_21 C107_21 1_555 1_555
C117_21 C122_21 1_555 1_555
Co8_14 N1_22 1_555 1_555
Co12_4 N2_22 1_555 1_555
S1_22 C1_22 1_555 1_555
S2_22 C2_22 1_555 1_555
N1_22 C1_22 1_555 1_555
N2_22 C2_22 1_555 1_555
Co6_13 N23_12 1_555 1_555
Co9_20 N17_20 1_555 1_555
Co10_16 N19_16 1_555 1_555
Co14 N52_20 1_555 1_555
Co14_8 N60_16 1_555 1_555
Co14_5 N61_16 1_555 1_555
S3_22 C27_22 1_555 1_555
S8_22 C32_22 1_555 1_555
S9_20 C33_20 1_555 1_555
S10_20 C34_20 1_555 1_555
S11_16 C35_16 1_555 1_555
S12_16 C36_16 1_555 1_555
N11_22 Co8_14 1_555 1_555
N16_22 Co12_4 1_555 1_555
N17_20 C33_20 1_555 1_555
N18_20 Co9_20 1_555 1_555
N19_16 C35_16 1_555 1_555
N20_16 Co10_16 1_555 1_555
N21_22 Co8_14 1_555 1_555
N22_22 Co8_14 1_555 1_555
N23_12 C39_20 1_555 1_555
N30_20 Co8_14 1_555 1_555
N35_22 C87_22 1_555 1_555
N36_22 C88_22 1_555 1_555
N37_20 C89_20 1_555 1_555
N40_22 C87_22 1_555 1_555
N41_22 C88_22 1_555 1_555
N42_20 C89_20 1_555 1_555
N45_22 C92_22 1_555 1_555
N46_22 C93_22 1_555 1_555
N47_20 C94_20 1_555 1_555
N50_20 Co9_20 1_555 1_555
N51_16 Co10_16 1_555 1_555
N52_20 C104_20 1_555 1_555
N55_20 Co9_20 1_555 1_555
N56_16 Co10_16 1_555 1_555
N59_16 Co12_4 1_555 1_555
N60_16 C130_16 1_555 1_555
N61_16 C131_16 1_555 1_555
N62_20 Co9_20 1_555 1_555
N63_20 Co9_20 1_555 1_555
N64_16 Co10_16 1_555 1_555
N65_16 Co10_16 1_555 1_555
N68_16 C154_16 1_555 1_555
N69_16 C155_16 1_555 1_555
N70_16 C154_16 1_555 1_555
C27_22 N11_22 1_555 1_555
C32_22 N16_22 1_555 1_555
C34_20 N18_20 1_555 1_555
C36_16 N20_16 1_555 1_555
C37_22 N21_22 1_555 1_555
C38_22 N22_22 1_555 1_555
C39_20 H19_20 1_555 1_555
H17_22 C37_22 1_555 1_555
H18_22 C38_22 1_555 1_555
C42_22 C37_22 1_555 1_555
C43_22 C38_22 1_555 1_555
C44_20 C39_20 1_555 1_555
H22_22 C42_22 1_555 1_555
H23_22 C43_22 1_555 1_555
H24_20 C44_20 1_555 1_555
C47_22 C42_22 1_555 1_555
C48_22 C43_22 1_555 1_555
C49_20 C44_20 1_555 1_555
H27_22 C47_22 1_555 1_555
H28_22 C48_22 1_555 1_555
H29_20 C49_20 1_555 1_555
C52_22 C47_22 1_555 1_555
C53_22 C48_22 1_555 1_555
C54_20 C49_20 1_555 1_555
C57_22 N21_22 1_555 1_555
C58_22 N22_22 1_555 1_555
C59_20 N23_12 1_555 1_555
H32_22 C57_22 1_555 1_555
H33_22 C58_22 1_555 1_555
H34_20 C59_20 1_555 1_555
C62_22 N33_6 1_555 1_555
C63_22 N34_10 1_555 1_555
C64_20 N30_20 1_555 1_555
H37_22 C62_22 1_555 1_555
H38_22 C63_22 1_555 1_555
H39_20 C64_20 1_555 1_555
C67_22 C62_22 1_555 1_555
C68_22 C63_22 1_555 1_555
C69_20 C64_20 1_555 1_555
H42_22 C67_22 1_555 1_555
H43_22 C68_22 1_555 1_555
H44_20 C69_20 1_555 1_555
C72_22 C67_22 1_555 1_555
C73_22 C68_22 1_555 1_555
C74_20 C69_20 1_555 1_555
H47_22 C72_22 1_555 1_555
H48_22 C73_22 1_555 1_555
H49_20 C74_20 1_555 1_555
C77_22 C72_22 1_555 1_555
C78_22 C73_22 1_555 1_555
C79_20 C74_20 1_555 1_555
C82_22 N33_6 1_555 1_555
C83_22 N34_10 1_555 1_555
C84_20 N30_20 1_555 1_555
H52_22 C82_22 1_555 1_555
H53_22 C83_22 1_555 1_555
H54_20 C84_20 1_555 1_555
C87_22 C77_22 1_555 1_555
C88_22 C78_22 1_555 1_555
C89_20 C79_20 1_555 1_555
C92_22 N35_22 1_555 1_555
C93_22 N36_22 1_555 1_555
C94_20 N37_20 1_555 1_555
C97_22 N40_22 1_555 1_555
C98_22 N41_22 1_555 1_555
C99_20 N42_20 1_555 1_555
C102_22 N50_20 1_555 1_555
C103_22 N51_16 1_555 1_555
C104_20 H59_20 1_555 1_555
H57_22 C102_22 1_555 1_555
H58_22 C103_22 1_555 1_555
C107_22 C97_22 1_555 1_555
C108_22 C98_22 1_555 1_555
C109_20 C99_20 1_555 1_555
C112_22 C107_22 1_555 1_555
C113_22 C108_22 1_555 1_555
C114_20 C109_20 1_555 1_555
H62_22 C112_22 1_555 1_555
H63_22 C113_22 1_555 1_555
H64_20 C114_20 1_555 1_555
C117_22 C112_22 1_555 1_555
C118_22 C113_22 1_555 1_555
C119_20 C114_20 1_555 1_555
H67_22 C117_22 1_555 1_555
H68_22 C118_22 1_555 1_555
H69_20 C119_20 1_555 1_555
C122_22 N50_20 1_555 1_555
C123_22 N51_16 1_555 1_555
C124_20 N52_20 1_555 1_555
H72_22 C122_22 1_555 1_555
H73_22 C123_22 1_555 1_555
H74_20 C124_20 1_555 1_555
C129_16 N59_16 1_555 1_555
C130_16 H80_16 1_555 1_555
C131_16 H81_16 1_555 1_555
H79_16 C129_16 1_555 1_555
C134_16 C129_16 1_555 1_555
C135_16 C130_16 1_555 1_555
C136_16 C131_16 1_555 1_555
H84_16 C134_16 1_555 1_555
H85_16 C135_16 1_555 1_555
H86_16 C136_16 1_555 1_555
C139_16 C134_16 1_555 1_555
C140_16 C135_16 1_555 1_555
C141_16 C136_16 1_555 1_555
H89_16 C139_16 1_555 1_555
H90_16 C140_16 1_555 1_555
H91_16 C141_16 1_555 1_555
C144_16 C139_16 1_555 1_555
C145_16 C140_16 1_555 1_555
C146_16 C141_16 1_555 1_555
C149_16 N59_16 1_555 1_555
C150_16 N60_16 1_555 1_555
C151_16 N61_16 1_555 1_555
H94_16 C149_16 1_555 1_555
H95_16 C150_16 1_555 1_555
H96_16 C151_16 1_555 1_555
C154_16 C144_16 1_555 1_555
C155_16 N68_16 1_555 1_555
C156_16 N69_16 1_555 1_555
N45_22 C97_22 1_555 1_555
N46_22 C98_22 1_555 1_555
N47_20 C99_20 1_555 1_555
N70_16 C156_16 1_555 1_555
C52_22 C57_22 1_555 1_555
C52_22 C92_22 1_555 1_555
C53_22 C58_22 1_555 1_555
C53_22 C93_22 1_555 1_555
C54_20 C59_20 1_555 1_555
C54_20 C94_20 1_555 1_555
C77_22 C82_22 1_555 1_555
C78_22 C83_22 1_555 1_555
C79_20 C84_20 1_555 1_555
C102_22 C107_22 1_555 1_555
C103_22 C108_22 1_555 1_555
C104_20 C109_20 1_555 1_555
C117_22 C122_22 1_555 1_555
C118_22 C123_22 1_555 1_555
C119_20 C124_20 1_555 1_555
C144_16 C149_16 1_555 1_555
C145_16 C150_16 1_555 1_555
C145_16 C156_16 1_555 1_555
C146_16 C151_16 1_555 1_555
C146_16 C155_16 1_555 1_555
Co8_3 N1_23 1_555 1_555
Co16_3 N2_23 1_555 1_555
S1_23 C1_23 1_555 1_555
S2_23 C2_23 1_555 1_555
N1_23 C1_23 1_555 1_555
N2_23 C2_23 1_555 1_555
N9_14 Co16_3 1_555 1_555
N10_14 C26_14 1_555 1_555
C21_14 N9_14 1_555 1_555
H13_14 C21_14 1_555 1_555
C22_14 C21_14 1_555 1_555
H14_14 C22_14 1_555 1_555
C23_14 C22_14 1_555 1_555
H15_14 C23_14 1_555 1_555
C24_14 C23_14 1_555 1_555
C25_14 N9_14 1_555 1_555
H16_14 C25_14 1_555 1_555
C26_14 C24_14 1_555 1_555
Co7_23 N31_18 1_555 1_555
Co7_16 N32_15 1_555 1_555
Co9_21 N17_21 1_555 1_555
Co12 N58_14 1_555 1_555
Co15_3 N52_21 1_555 1_555
Co11_5 N54_15 1_555 1_555
S3_23 C27_23 1_555 1_555
S8_23 C32_23 1_555 1_555
S9_21 C33_21 1_555 1_555
S10_21 C34_21 1_555 1_555
N11_23 Co8_3 1_555 1_555
N16_23 Co16_3 1_555 1_555
N17_21 C33_21 1_555 1_555
N18_21 Co9_21 1_555 1_555
N21_23 Co8_3 1_555 1_555
N22_23 Co8_3 1_555 1_555
N27_2 C39_21 1_555 1_555
N30_21 Co8_3 1_555 1_555
N31_18 C65_18 1_555 1_555
N32_15 C66_15 1_555 1_555
N35_23 C87_23 1_555 1_555
N36_23 C88_23 1_555 1_555
N37_21 C89_21 1_555 1_555
N38_18 C90_18 1_555 1_555
N39_15 C91_15 1_555 1_555
N40_23 C87_23 1_555 1_555
N41_23 C88_23 1_555 1_555
N42_21 C89_21 1_555 1_555
N43_18 C90_18 1_555 1_555
N44_15 C91_15 1_555 1_555
N45_23 C92_23 1_555 1_555
N46_23 C93_23 1_555 1_555
N47_21 C94_21 1_555 1_555
N48_18 C95_18 1_555 1_555
N49_15 C96_15 1_555 1_555
N50_21 Co9_21 1_555 1_555
N52_21 C104_21 1_555 1_555
N53_18 Co16_3 1_555 1_555
N54_15 C106_15 1_555 1_555
N55_21 Co9_21 1_555 1_555
N57_14 C127_14 1_555 1_555
N58_14 C128_14 1_555 1_555
N62_21 Co9_21 1_555 1_555
N63_21 Co9_21 1_555 1_555
N66_14 C152_14 1_555 1_555
N67_14 C26_14 1_555 1_555
C27_23 N11_23 1_555 1_555
C32_23 N16_23 1_555 1_555
C34_21 N18_21 1_555 1_555
C37_23 N21_23 1_555 1_555
C38_23 N22_23 1_555 1_555
C39_21 H19_21 1_555 1_555
C40_18 N27_15 1_555 1_555
C41_15 N26_12 1_555 1_555
H17_23 C37_23 1_555 1_555
H18_23 C38_23 1_555 1_555
H20_18 C40_18 1_555 1_555
H21_15 C41_15 1_555 1_555
C42_23 C37_23 1_555 1_555
C43_23 C38_23 1_555 1_555
C44_21 C39_21 1_555 1_555
C45_18 C40_18 1_555 1_555
C46_15 C41_15 1_555 1_555
H22_23 C42_23 1_555 1_555
H23_23 C43_23 1_555 1_555
H24_21 C44_21 1_555 1_555
H25_18 C45_18 1_555 1_555
H26_15 C46_15 1_555 1_555
C47_23 C42_23 1_555 1_555
C48_23 C43_23 1_555 1_555
C49_21 C44_21 1_555 1_555
C50_18 C45_18 1_555 1_555
C51_15 C46_15 1_555 1_555
H27_23 C47_23 1_555 1_555
H28_23 C48_23 1_555 1_555
H29_21 C49_21 1_555 1_555
H30_18 C50_18 1_555 1_555
H31_15 C51_15 1_555 1_555
C52_23 C47_23 1_555 1_555
C53_23 C48_23 1_555 1_555
C54_21 C49_21 1_555 1_555
C55_18 C50_18 1_555 1_555
C56_15 C51_15 1_555 1_555
C57_23 N21_23 1_555 1_555
C58_23 N22_23 1_555 1_555
C59_21 N27_2 1_555 1_555
C60_18 N27_15 1_555 1_555
C61_15 N26_12 1_555 1_555
H32_23 C57_23 1_555 1_555
H33_23 C58_23 1_555 1_555
H34_21 C59_21 1_555 1_555
H35_18 C60_18 1_555 1_555
H36_15 C61_15 1_555 1_555
C62_23 N34_16 1_555 1_555
C63_23 N34_9 1_555 1_555
C64_21 N30_21 1_555 1_555
C65_18 H40_18 1_555 1_555
C66_15 H41_15 1_555 1_555
H37_23 C62_23 1_555 1_555
H38_23 C63_23 1_555 1_555
H39_21 C64_21 1_555 1_555
C67_23 C62_23 1_555 1_555
C68_23 C63_23 1_555 1_555
C69_21 C64_21 1_555 1_555
C70_18 C65_18 1_555 1_555
C71_15 C66_15 1_555 1_555
H42_23 C67_23 1_555 1_555
H43_23 C68_23 1_555 1_555
H44_21 C69_21 1_555 1_555
H45_18 C70_18 1_555 1_555
H46_15 C71_15 1_555 1_555
C72_23 C67_23 1_555 1_555
C73_23 C68_23 1_555 1_555
C74_21 C69_21 1_555 1_555
C75_18 C70_18 1_555 1_555
C76_15 C71_15 1_555 1_555
H47_23 C72_23 1_555 1_555
H48_23 C73_23 1_555 1_555
H49_21 C74_21 1_555 1_555
H50_18 C75_18 1_555 1_555
H51_15 C76_15 1_555 1_555
C77_23 C72_23 1_555 1_555
C78_23 C73_23 1_555 1_555
C79_21 C74_21 1_555 1_555
C80_18 C75_18 1_555 1_555
C81_15 C76_15 1_555 1_555
C82_23 N34_16 1_555 1_555
C83_23 N34_9 1_555 1_555
C84_21 N30_21 1_555 1_555
C85_18 N31_18 1_555 1_555
C86_15 N32_15 1_555 1_555
H52_23 C82_23 1_555 1_555
H53_23 C83_23 1_555 1_555
H54_21 C84_21 1_555 1_555
H55_18 C85_18 1_555 1_555
H56_15 C86_15 1_555 1_555
C87_23 C77_23 1_555 1_555
C88_23 C78_23 1_555 1_555
C89_21 C79_21 1_555 1_555
C90_18 C80_18 1_555 1_555
C91_15 C81_15 1_555 1_555
C92_23 N35_23 1_555 1_555
C93_23 N36_23 1_555 1_555
C94_21 N37_21 1_555 1_555
C95_18 N38_18 1_555 1_555
C96_15 N39_15 1_555 1_555
C97_23 N40_23 1_555 1_555
C98_23 N41_23 1_555 1_555
C99_21 N42_21 1_555 1_555
C100_18 N43_18 1_555 1_555
C101_15 N44_15 1_555 1_555
C102_23 N50_21 1_555 1_555
C103_23 N56_11 1_555 1_555
C104_21 H59_21 1_555 1_555
C105_18 N53_18 1_555 1_555
C106_15 H61_15 1_555 1_555
H57_23 C102_23 1_555 1_555
H58_23 C103_23 1_555 1_555
H60_18 C105_18 1_555 1_555
C107_23 C97_23 1_555 1_555
C108_23 C98_23 1_555 1_555
C109_21 C99_21 1_555 1_555
C110_18 C100_18 1_555 1_555
C111_15 C101_15 1_555 1_555
C112_23 C107_23 1_555 1_555
C113_23 C108_23 1_555 1_555
C114_21 C109_21 1_555 1_555
C115_18 C110_18 1_555 1_555
C116_15 C111_15 1_555 1_555
H62_23 C112_23 1_555 1_555
H63_23 C113_23 1_555 1_555
H64_21 C114_21 1_555 1_555
H65_18 C115_18 1_555 1_555
H66_15 C116_15 1_555 1_555
C117_23 C112_23 1_555 1_555
C118_23 C113_23 1_555 1_555
C119_21 C114_21 1_555 1_555
C120_18 C115_18 1_555 1_555
C121_15 C116_15 1_555 1_555
H67_23 C117_23 1_555 1_555
H68_23 C118_23 1_555 1_555
H69_21 C119_21 1_555 1_555
H70_18 C120_18 1_555 1_555
H71_15 C121_15 1_555 1_555
C122_23 N50_21 1_555 1_555
C123_23 N56_11 1_555 1_555
C124_21 N52_21 1_555 1_555
C125_18 N53_18 1_555 1_555
C126_15 N54_15 1_555 1_555
H72_23 C122_23 1_555 1_555
H73_23 C123_23 1_555 1_555
H74_21 C124_21 1_555 1_555
H75_18 C125_18 1_555 1_555
H76_15 C126_15 1_555 1_555
C127_14 H77_14 1_555 1_555
C128_14 H78_14 1_555 1_555
C132_14 C127_14 1_555 1_555
C133_14 C128_14 1_555 1_555
H82_14 C132_14 1_555 1_555
H83_14 C133_14 1_555 1_555
C137_14 C132_14 1_555 1_555
C138_14 C133_14 1_555 1_555
H87_14 C137_14 1_555 1_555
H88_14 C138_14 1_555 1_555
C142_14 C137_14 1_555 1_555
C143_14 C138_14 1_555 1_555
C147_14 N57_14 1_555 1_555
C148_14 N58_14 1_555 1_555
H92_14 C147_14 1_555 1_555
H93_14 C148_14 1_555 1_555
C152_14 N10_14 1_555 1_555
C153_14 N66_14 1_555 1_555
C24_14 C25_14 1_555 1_555
N45_23 C97_23 1_555 1_555
N46_23 C98_23 1_555 1_555
N47_21 C99_21 1_555 1_555
N48_18 C100_18 1_555 1_555
N49_15 C101_15 1_555 1_555
N67_14 C153_14 1_555 1_555
C52_23 C57_23 1_555 1_555
C52_23 C92_23 1_555 1_555
C53_23 C58_23 1_555 1_555
C53_23 C93_23 1_555 1_555
C54_21 C59_21 1_555 1_555
C54_21 C94_21 1_555 1_555
C55_18 C60_18 1_555 1_555
C55_18 C95_18 1_555 1_555
C56_15 C61_15 1_555 1_555
C56_15 C96_15 1_555 1_555
C77_23 C82_23 1_555 1_555
C78_23 C83_23 1_555 1_555
C79_21 C84_21 1_555 1_555
C80_18 C85_18 1_555 1_555
C81_15 C86_15 1_555 1_555
C102_23 C107_23 1_555 1_555
C103_23 C108_23 1_555 1_555
C104_21 C109_21 1_555 1_555
C105_18 C110_18 1_555 1_555
C106_15 C111_15 1_555 1_555
C117_23 C122_23 1_555 1_555
C118_23 C123_23 1_555 1_555
C119_21 C124_21 1_555 1_555
C120_18 C125_18 1_555 1_555
C121_15 C126_15 1_555 1_555
C142_14 C147_14 1_555 1_555
C142_14 C153_14 1_555 1_555
C143_14 C148_14 1_555 1_555
C143_14 C152_14 1_555 1_555
Co12_6 N2_24 1_555 1_555
S2_24 C2_24 1_555 1_555
N2_24 C2_24 1_555 1_555
Co7_8 N31_19 1_555 1_555
S8_24 C32_24 1_555 1_555
N16_24 Co12_6 1_555 1_555
N31_19 C65_19 1_555 1_555
N38_19 C90_19 1_555 1_555
N43_19 C90_19 1_555 1_555
N48_19 C95_19 1_555 1_555
N53_19 Co12_6 1_555 1_555
C32_24 N16_24 1_555 1_555
C40_19 N26_11 1_555 1_555
H20_19 C40_19 1_555 1_555
C45_19 C40_19 1_555 1_555
H25_19 C45_19 1_555 1_555
C50_19 C45_19 1_555 1_555
H30_19 C50_19 1_555 1_555
C55_19 C50_19 1_555 1_555
C60_19 N26_11 1_555 1_555
H35_19 C60_19 1_555 1_555
C65_19 H40_19 1_555 1_555
C70_19 C65_19 1_555 1_555
H45_19 C70_19 1_555 1_555
C75_19 C70_19 1_555 1_555
H50_19 C75_19 1_555 1_555
C80_19 C75_19 1_555 1_555
C85_19 N31_19 1_555 1_555
H55_19 C85_19 1_555 1_555
C90_19 C80_19 1_555 1_555
C95_19 N38_19 1_555 1_555
C100_19 N43_19 1_555 1_555
C105_19 N53_19 1_555 1_555
H60_19 C105_19 1_555 1_555
C110_19 C100_19 1_555 1_555
C115_19 C110_19 1_555 1_555
H65_19 C115_19 1_555 1_555
C120_19 C115_19 1_555 1_555
H70_19 C120_19 1_555 1_555
C125_19 N53_19 1_555 1_555
H75_19 C125_19 1_555 1_555
N48_19 C100_19 1_555 1_555
C55_19 C60_19 1_555 1_555
C55_19 C95_19 1_555 1_555
C80_19 C85_19 1_555 1_555
C105_19 C110_19 1_555 1_555
C120_19 C125_19 1_555 1_555
Co1_18 N1_24 1_555 1_555
Co12_3 N2_25 1_555 1_555
S1_24 C1_24 1_555 1_555
S2_25 C2_25 1_555 1_555
N1_24 C1_24 1_555 1_555
N2_25 C2_25 1_555 1_555
N3_15 C3_17 1_555 1_555
N4_17 Co1_18 1_555 1_555
N5_17 C13_17 1_555 1_555
N6_17 C13_17 1_555 1_555
N7_17 C14_17 1_555 1_555
N8_17 Co12_3 1_555 1_555
C3_17 H1_17 1_555 1_555
C4_17 C3_17 1_555 1_555
H2_17 C4_17 1_555 1_555
C5_17 C4_17 1_555 1_555
H3_17 C5_17 1_555 1_555
C6_17 C5_17 1_555 1_555
C7_17 N3_15 1_555 1_555
H4_17 C7_17 1_555 1_555
C8_17 N4_17 1_555 1_555
H5_17 C8_17 1_555 1_555
C9_17 C8_17 1_555 1_555
H6_17 C9_17 1_555 1_555
C10_17 C9_17 1_555 1_555
H7_17 C10_17 1_555 1_555
C11_17 C10_17 1_555 1_555
C12_17 N4_17 1_555 1_555
H8_17 C12_17 1_555 1_555
C13_17 C11_17 1_555 1_555
C14_17 N5_17 1_555 1_555
C15_17 N6_17 1_555 1_555
C16_17 N8_17 1_555 1_555
H9_17 C16_17 1_555 1_555
C17_17 C15_17 1_555 1_555
C18_17 C17_17 1_555 1_555
H10_17 C18_17 1_555 1_555
C19_17 C18_17 1_555 1_555
H11_17 C19_17 1_555 1_555
C20_17 N8_17 1_555 1_555
H12_17 C20_17 1_555 1_555
Co6_13 N14_19 1_555 1_555
Co5_14 N3_15 1_555 1_555
Co8_13 N31_20 1_555 1_555
Co9_22 N17_22 1_555 1_555
Co14 N52_22 1_555 1_555
S3_24 C27_24 1_555 1_555
S6_19 C30_19 1_555 1_555
S7_19 C31_19 1_555 1_555
S8_25 C32_25 1_555 1_555
S9_22 C33_22 1_555 1_555
S10_22 C34_22 1_555 1_555
N11_24 Co1_18 1_555 1_555
N14_19 C30_19 1_555 1_555
N15_19 Co6_13 1_555 1_555
N16_25 Co12_3 1_555 1_555
N17_22 C33_22 1_555 1_555
N18_22 Co9_22 1_555 1_555
N21_24 Co1_18 1_555 1_555
N22_24 Co1_18 1_555 1_555
N27_10 C39_22 1_555 1_555
N27_17 Co6_13 1_555 1_555
N29_19 Co6_13 1_555 1_555
N30_22 Co1_18 1_555 1_555
N31_20 C65_20 1_555 1_555
N34_19 Co6_13 1_555 1_555
N35_24 C87_24 1_555 1_555
N36_24 C88_24 1_555 1_555
N37_22 C89_22 1_555 1_555
N38_20 C90_20 1_555 1_555
N40_24 C87_24 1_555 1_555
N41_24 C88_24 1_555 1_555
N42_22 C89_22 1_555 1_555
N43_20 C90_20 1_555 1_555
N45_24 C92_24 1_555 1_555
N46_24 C93_24 1_555 1_555
N47_22 C94_22 1_555 1_555
N48_20 C95_20 1_555 1_555
N50_22 Co9_22 1_555 1_555
N52_22 C104_22 1_555 1_555
N53_20 Co12_3 1_555 1_555
N55_22 Co9_22 1_555 1_555
N62_22 Co9_22 1_555 1_555
N63_22 Co9_22 1_555 1_555
C27_24 N11_24 1_555 1_555
C31_19 N15_19 1_555 1_555
C32_25 N16_25 1_555 1_555
C34_22 N18_22 1_555 1_555
C37_24 N21_24 1_555 1_555
C38_24 N22_24 1_555 1_555
C39_22 H19_22 1_555 1_555
C40_20 N27_16 1_555 1_555
H17_24 C37_24 1_555 1_555
H18_24 C38_24 1_555 1_555
H20_20 C40_20 1_555 1_555
C42_24 C37_24 1_555 1_555
C43_24 C38_24 1_555 1_555
C44_22 C39_22 1_555 1_555
C45_20 C40_20 1_555 1_555
H22_24 C42_24 1_555 1_555
H23_24 C43_24 1_555 1_555
H24_22 C44_22 1_555 1_555
H25_20 C45_20 1_555 1_555
C47_24 C42_24 1_555 1_555
C48_24 C43_24 1_555 1_555
C49_22 C44_22 1_555 1_555
C50_20 C45_20 1_555 1_555
H27_24 C47_24 1_555 1_555
H28_24 C48_24 1_555 1_555
H29_22 C49_22 1_555 1_555
H30_20 C50_20 1_555 1_555
C52_24 C47_24 1_555 1_555
C53_24 C48_24 1_555 1_555
C54_22 C49_22 1_555 1_555
C55_20 C50_20 1_555 1_555
C57_24 N21_24 1_555 1_555
C58_24 N22_24 1_555 1_555
C59_22 N27_10 1_555 1_555
C60_20 N27_16 1_555 1_555
H32_24 C57_24 1_555 1_555
H33_24 C58_24 1_555 1_555
H34_22 C59_22 1_555 1_555
H35_20 C60_20 1_555 1_555
C62_24 N34_17 1_555 1_555
C63_24 N29_19 1_555 1_555
C64_22 N30_22 1_555 1_555
C65_20 H40_20 1_555 1_555
H37_24 C62_24 1_555 1_555
H38_24 C63_24 1_555 1_555
H39_22 C64_22 1_555 1_555
C67_24 C62_24 1_555 1_555
C68_24 C63_24 1_555 1_555
C69_22 C64_22 1_555 1_555
C70_20 C65_20 1_555 1_555
H42_24 C67_24 1_555 1_555
H43_24 C68_24 1_555 1_555
H44_22 C69_22 1_555 1_555
H45_20 C70_20 1_555 1_555
C72_24 C67_24 1_555 1_555
C73_24 C68_24 1_555 1_555
C74_22 C69_22 1_555 1_555
C75_20 C70_20 1_555 1_555
H47_24 C72_24 1_555 1_555
H48_24 C73_24 1_555 1_555
H49_22 C74_22 1_555 1_555
H50_20 C75_20 1_555 1_555
C77_24 C72_24 1_555 1_555
C78_24 C73_24 1_555 1_555
C79_22 C74_22 1_555 1_555
C80_20 C75_20 1_555 1_555
C82_24 N34_17 1_555 1_555
C83_24 N29_19 1_555 1_555
C84_22 N30_22 1_555 1_555
C85_20 N31_20 1_555 1_555
H52_24 C82_24 1_555 1_555
H53_24 C83_24 1_555 1_555
H54_22 C84_22 1_555 1_555
H55_20 C85_20 1_555 1_555
C87_24 C77_24 1_555 1_555
C88_24 C78_24 1_555 1_555
C89_22 C79_22 1_555 1_555
C90_20 C80_20 1_555 1_555
C92_24 N35_24 1_555 1_555
C93_24 N36_24 1_555 1_555
C94_22 N37_22 1_555 1_555
C95_20 N38_20 1_555 1_555
C97_24 N40_24 1_555 1_555
C98_24 N41_24 1_555 1_555
C99_22 N42_22 1_555 1_555
C100_20 N43_20 1_555 1_555
C102_24 N50_22 1_555 1_555
C103_24 N56_16 1_555 1_555
C104_22 H59_22 1_555 1_555
C105_20 N53_20 1_555 1_555
H57_24 C102_24 1_555 1_555
H58_24 C103_24 1_555 1_555
H60_20 C105_20 1_555 1_555
C107_24 C97_24 1_555 1_555
C108_24 C98_24 1_555 1_555
C109_22 C99_22 1_555 1_555
C110_20 C100_20 1_555 1_555
C112_24 C107_24 1_555 1_555
C113_24 C108_24 1_555 1_555
C114_22 C109_22 1_555 1_555
C115_20 C110_20 1_555 1_555
H62_24 C112_24 1_555 1_555
H63_24 C113_24 1_555 1_555
H64_22 C114_22 1_555 1_555
H65_20 C115_20 1_555 1_555
C117_24 C112_24 1_555 1_555
C118_24 C113_24 1_555 1_555
C119_22 C114_22 1_555 1_555
C120_20 C115_20 1_555 1_555
H67_24 C117_24 1_555 1_555
H68_24 C118_24 1_555 1_555
H69_22 C119_22 1_555 1_555
H70_20 C120_20 1_555 1_555
C122_24 N50_22 1_555 1_555
C123_24 N56_16 1_555 1_555
C124_22 N52_22 1_555 1_555
C125_20 N53_20 1_555 1_555
H72_24 C122_24 1_555 1_555
H73_24 C123_24 1_555 1_555
H74_22 C124_22 1_555 1_555
H75_20 C125_20 1_555 1_555
N7_17 C15_17 1_555 1_555
C6_17 C7_17 1_555 1_555
C6_17 C14_17 1_555 1_555
C11_17 C12_17 1_555 1_555
C16_17 C17_17 1_555 1_555
C19_17 C20_17 1_555 1_555
N45_24 C97_24 1_555 1_555
N46_24 C98_24 1_555 1_555
N47_22 C99_22 1_555 1_555
N48_20 C100_20 1_555 1_555
C52_24 C57_24 1_555 1_555
C52_24 C92_24 1_555 1_555
C53_24 C58_24 1_555 1_555
C53_24 C93_24 1_555 1_555
C54_22 C59_22 1_555 1_555
C54_22 C94_22 1_555 1_555
C55_20 C60_20 1_555 1_555
C55_20 C95_20 1_555 1_555
C77_24 C82_24 1_555 1_555
C78_24 C83_24 1_555 1_555
C79_22 C84_22 1_555 1_555
C80_20 C85_20 1_555 1_555
C102_24 C107_24 1_555 1_555
C103_24 C108_24 1_555 1_555
C104_22 C109_22 1_555 1_555
C105_20 C110_20 1_555 1_555
C117_24 C122_24 1_555 1_555
C118_24 C123_24 1_555 1_555
C119_22 C124_22 1_555 1_555
C120_20 C125_20 1_555 1_555
S7_20 C31_20 1_555 1_555
N15_20 Co6_5 1_555 1_555
N27_18 Co6_5 1_555 1_555
N34_20 Co6_5 1_555 1_555
C31_20 N15_20 1_555 1_555
Co7_20 N1_25 1_555 1_555
S1_25 C1_25 1_555 1_555
N1_25 C1_25 1_555 1_555
Co5_11 N12_17 1_555 1_555
Co6_6 N14_20 1_555 1_555
Co7_15 N32_16 1_555 1_555
Co13_4 N52_23 1_555 1_555
Co15_9 N54_16 1_555 1_555
S3_25 C27_25 1_555 1_555
S4_17 C28_17 1_555 1_555
S5_17 C29_17 1_555 1_555
S6_20 C30_20 1_555 1_555
N11_25 Co7_20 1_555 1_555
N12_17 C28_17 1_555 1_555
N13_17 Co5_11 1_555 1_555
N14_20 C30_20 1_555 1_555
N21_25 Co7_20 1_555 1_555
N22_25 Co7_20 1_555 1_555
N26_5 C39_23 1_555 1_555
N25_14 Co5_11 1_555 1_555
N28_17 Co5_11 1_555 1_555
N29_20 Co6_6 1_555 1_555
N30_23 Co7_20 1_555 1_555
N32_16 C66_16 1_555 1_555
N33_17 Co5_11 1_555 1_555
N35_25 C87_25 1_555 1_555
N36_25 C88_25 1_555 1_555
N37_23 C89_23 1_555 1_555
N39_16 C91_16 1_555 1_555
N40_25 C87_25 1_555 1_555
N41_25 C88_25 1_555 1_555
N42_23 C89_23 1_555 1_555
N44_16 C91_16 1_555 1_555
N45_25 C92_25 1_555 1_555
N46_25 C93_25 1_555 1_555
N47_23 C94_23 1_555 1_555
N49_16 C96_16 1_555 1_555
N52_23 C104_23 1_555 1_555
N54_16 C106_16 1_555 1_555
C27_25 N11_25 1_555 1_555
C29_17 N13_17 1_555 1_555
C37_25 N21_25 1_555 1_555
C38_25 N22_25 1_555 1_555
C39_23 H19_23 1_555 1_555
C41_16 N25_14 1_555 1_555
H17_25 C37_25 1_555 1_555
H18_25 C38_25 1_555 1_555
H21_16 C41_16 1_555 1_555
C42_25 C37_25 1_555 1_555
C43_25 C38_25 1_555 1_555
C44_23 C39_23 1_555 1_555
C46_16 C41_16 1_555 1_555
H22_25 C42_25 1_555 1_555
H23_25 C43_25 1_555 1_555
H24_23 C44_23 1_555 1_555
H26_16 C46_16 1_555 1_555
C47_25 C42_25 1_555 1_555
C48_25 C43_25 1_555 1_555
C49_23 C44_23 1_555 1_555
C51_16 C46_16 1_555 1_555
H27_25 C47_25 1_555 1_555
H28_25 C48_25 1_555 1_555
H29_23 C49_23 1_555 1_555
H31_16 C51_16 1_555 1_555
C52_25 C47_25 1_555 1_555
C53_25 C48_25 1_555 1_555
C54_23 C49_23 1_555 1_555
C56_16 C51_16 1_555 1_555
C57_25 N21_25 1_555 1_555
C58_25 N22_25 1_555 1_555
C59_23 N26_5 1_555 1_555
C61_16 N25_14 1_555 1_555
H32_25 C57_25 1_555 1_555
H33_25 C58_25 1_555 1_555
H34_23 C59_23 1_555 1_555
H36_16 C61_16 1_555 1_555
C62_25 N28_17 1_555 1_555
C63_25 N29_20 1_555 1_555
C64_23 N30_23 1_555 1_555
C66_16 H41_16 1_555 1_555
H37_25 C62_25 1_555 1_555
H38_25 C63_25 1_555 1_555
H39_23 C64_23 1_555 1_555
C67_25 C62_25 1_555 1_555
C68_25 C63_25 1_555 1_555
C69_23 C64_23 1_555 1_555
C71_16 C66_16 1_555 1_555
H42_25 C67_25 1_555 1_555
H43_25 C68_25 1_555 1_555
H44_23 C69_23 1_555 1_555
H46_16 C71_16 1_555 1_555
C72_25 C67_25 1_555 1_555
C73_25 C68_25 1_555 1_555
C74_23 C69_23 1_555 1_555
C76_16 C71_16 1_555 1_555
H47_25 C72_25 1_555 1_555
H48_25 C73_25 1_555 1_555
H49_23 C74_23 1_555 1_555
H51_16 C76_16 1_555 1_555
C77_25 C72_25 1_555 1_555
C78_25 C73_25 1_555 1_555
C79_23 C74_23 1_555 1_555
C81_16 C76_16 1_555 1_555
C82_25 N28_17 1_555 1_555
C83_25 N29_20 1_555 1_555
C84_23 N30_23 1_555 1_555
C86_16 N32_16 1_555 1_555
H52_25 C82_25 1_555 1_555
H53_25 C83_25 1_555 1_555
H54_23 C84_23 1_555 1_555
H56_16 C86_16 1_555 1_555
C87_25 C77_25 1_555 1_555
C88_25 C78_25 1_555 1_555
C89_23 C79_23 1_555 1_555
C91_16 C81_16 1_555 1_555
C92_25 N35_25 1_555 1_555
C93_25 N36_25 1_555 1_555
C94_23 N37_23 1_555 1_555
C96_16 N39_16 1_555 1_555
C97_25 N40_25 1_555 1_555
C98_25 N41_25 1_555 1_555
C99_23 N42_23 1_555 1_555
C101_16 N44_16 1_555 1_555
C102_25 N55_15 1_555 1_555
C103_25 N56_5 1_555 1_555
C104_23 H59_23 1_555 1_555
C106_16 H61_16 1_555 1_555
H57_25 C102_25 1_555 1_555
H58_25 C103_25 1_555 1_555
C107_25 C97_25 1_555 1_555
C108_25 C98_25 1_555 1_555
C109_23 C99_23 1_555 1_555
C111_16 C101_16 1_555 1_555
C112_25 C107_25 1_555 1_555
C113_25 C108_25 1_555 1_555
C114_23 C109_23 1_555 1_555
C116_16 C111_16 1_555 1_555
H62_25 C112_25 1_555 1_555
H63_25 C113_25 1_555 1_555
H64_23 C114_23 1_555 1_555
H66_16 C116_16 1_555 1_555
C117_25 C112_25 1_555 1_555
C118_25 C113_25 1_555 1_555
C119_23 C114_23 1_555 1_555
C121_16 C116_16 1_555 1_555
H67_25 C117_25 1_555 1_555
H68_25 C118_25 1_555 1_555
H69_23 C119_23 1_555 1_555
H71_16 C121_16 1_555 1_555
C122_25 N55_15 1_555 1_555
C123_25 N56_5 1_555 1_555
C124_23 N52_23 1_555 1_555
C126_16 N54_16 1_555 1_555
H72_25 C122_25 1_555 1_555
H73_25 C123_25 1_555 1_555
H74_23 C124_23 1_555 1_555
H76_16 C126_16 1_555 1_555
N45_25 C97_25 1_555 1_555
N46_25 C98_25 1_555 1_555
N47_23 C99_23 1_555 1_555
N49_16 C101_16 1_555 1_555
C52_25 C57_25 1_555 1_555
C52_25 C92_25 1_555 1_555
C53_25 C58_25 1_555 1_555
C53_25 C93_25 1_555 1_555
C54_23 C59_23 1_555 1_555
C54_23 C94_23 1_555 1_555
C56_16 C61_16 1_555 1_555
C56_16 C96_16 1_555 1_555
C77_25 C82_25 1_555 1_555
C78_25 C83_25 1_555 1_555
C79_23 C84_23 1_555 1_555
C81_16 C86_16 1_555 1_555
C102_25 C107_25 1_555 1_555
C103_25 C108_25 1_555 1_555
C104_23 C109_23 1_555 1_555
C106_16 C111_16 1_555 1_555
C117_25 C122_25 1_555 1_555
C118_25 C123_25 1_555 1_555
C119_23 C124_23 1_555 1_555
C121_16 C126_16 1_555 1_555
Co8_15 N1_26 1_555 1_555
Co15_8 N2_26 1_555 1_555
S1_26 C1_26 1_555 1_555
S2_26 C2_26 1_555 1_555
N1_26 C1_26 1_555 1_555
N2_26 C2_26 1_555 1_555
N27_8 C3_18 1_555 1_555
N4_18 Co8_15 1_555 1_555
N5_18 C13_18 1_555 1_555
N6_18 C13_18 1_555 1_555
N7_18 C14_18 1_555 1_555
N8_18 Co15_8 1_555 1_555
C3_18 H1_18 1_555 1_555
C4_18 C3_18 1_555 1_555
H2_18 C4_18 1_555 1_555
C5_18 C4_18 1_555 1_555
H3_18 C5_18 1_555 1_555
C6_18 C5_18 1_555 1_555
C7_18 N27_8 1_555 1_555
H4_18 C7_18 1_555 1_555
C8_18 N4_18 1_555 1_555
H5_18 C8_18 1_555 1_555
C9_18 C8_18 1_555 1_555
H6_18 C9_18 1_555 1_555
C10_18 C9_18 1_555 1_555
H7_18 C10_18 1_555 1_555
C11_18 C10_18 1_555 1_555
C12_18 N4_18 1_555 1_555
H8_18 C12_18 1_555 1_555
C13_18 C11_18 1_555 1_555
C14_18 N5_18 1_555 1_555
C15_18 N6_18 1_555 1_555
C16_18 N8_18 1_555 1_555
H9_18 C16_18 1_555 1_555
C17_18 C15_18 1_555 1_555
C18_18 C17_18 1_555 1_555
H10_18 C18_18 1_555 1_555
C19_18 C18_18 1_555 1_555
H11_18 C19_18 1_555 1_555
C20_18 N8_18 1_555 1_555
H12_18 C20_18 1_555 1_555
Co5_7 N12_18 1_555 1_555
Co8_12 N31_21 1_555 1_555
Co9_23 N17_23 1_555 1_555
Co10_17 N19_17 1_555 1_555
S3_26 C27_26 1_555 1_555
S4_18 C28_18 1_555 1_555
S5_18 C29_18 1_555 1_555
S8_26 C32_26 1_555 1_555
S11_17 C35_17 1_555 1_555
S12_17 C36_17 1_555 1_555
N11_26 Co8_15 1_555 1_555
N12_18 C28_18 1_555 1_555
N13_18 Co5_7 1_555 1_555
N16_26 Co15_8 1_555 1_555
N18_23 Co9_23 1_555 1_555
N19_17 C35_17 1_555 1_555
N20_17 Co10_17 1_555 1_555
N21_26 Co8_15 1_555 1_555
N22_26 Co8_15 1_555 1_555
N24_15 Co5_7 1_555 1_555
N28_18 Co5_7 1_555 1_555
N31_21 C65_21 1_555 1_555
N33_18 Co5_7 1_555 1_555
N35_26 C87_26 1_555 1_555
N36_26 C88_26 1_555 1_555
N38_21 C90_21 1_555 1_555
N40_26 C87_26 1_555 1_555
N41_26 C88_26 1_555 1_555
N43_21 C90_21 1_555 1_555
N45_26 C92_26 1_555 1_555
N46_26 C93_26 1_555 1_555
N48_21 C95_21 1_555 1_555
N50_23 Co9_23 1_555 1_555
N51_17 Co10_17 1_555 1_555
N53_21 Co15_8 1_555 1_555
N55_23 Co9_23 1_555 1_555
N56_17 Co10_17 1_555 1_555
N64_17 Co10_17 1_555 1_555
N65_17 Co10_17 1_555 1_555
C27_26 N11_26 1_555 1_555
C29_18 N13_18 1_555 1_555
C32_26 N16_26 1_555 1_555
C36_17 N20_17 1_555 1_555
C37_26 N21_26 1_555 1_555
C38_26 N22_26 1_555 1_555
C40_21 N24_15 1_555 1_555
H17_26 C37_26 1_555 1_555
H18_26 C38_26 1_555 1_555
H20_21 C40_21 1_555 1_555
C42_26 C37_26 1_555 1_555
C43_26 C38_26 1_555 1_555
C45_21 C40_21 1_555 1_555
H22_26 C42_26 1_555 1_555
H23_26 C43_26 1_555 1_555
H25_21 C45_21 1_555 1_555
C47_26 C42_26 1_555 1_555
C48_26 C43_26 1_555 1_555
C50_21 C45_21 1_555 1_555
H27_26 C47_26 1_555 1_555
H28_26 C48_26 1_555 1_555
H30_21 C50_21 1_555 1_555
C52_26 C47_26 1_555 1_555
C53_26 C48_26 1_555 1_555
C55_21 C50_21 1_555 1_555
C57_26 N21_26 1_555 1_555
C58_26 N22_26 1_555 1_555
C60_21 N24_15 1_555 1_555
H32_26 C57_26 1_555 1_555
H33_26 C58_26 1_555 1_555
H35_21 C60_21 1_555 1_555
C62_26 N28_18 1_555 1_555
C63_26 N34_20 1_555 1_555
C65_21 H40_21 1_555 1_555
H37_26 C62_26 1_555 1_555
H38_26 C63_26 1_555 1_555
C67_26 C62_26 1_555 1_555
C68_26 C63_26 1_555 1_555
C70_21 C65_21 1_555 1_555
H42_26 C67_26 1_555 1_555
H43_26 C68_26 1_555 1_555
H45_21 C70_21 1_555 1_555
C72_26 C67_26 1_555 1_555
C73_26 C68_26 1_555 1_555
C75_21 C70_21 1_555 1_555
H47_26 C72_26 1_555 1_555
H48_26 C73_26 1_555 1_555
H50_21 C75_21 1_555 1_555
C77_26 C72_26 1_555 1_555
C78_26 C73_26 1_555 1_555
C80_21 C75_21 1_555 1_555
C82_26 N28_18 1_555 1_555
C83_26 N34_20 1_555 1_555
C85_21 N31_21 1_555 1_555
H52_26 C82_26 1_555 1_555
H53_26 C83_26 1_555 1_555
H55_21 C85_21 1_555 1_555
C87_26 C77_26 1_555 1_555
C88_26 C78_26 1_555 1_555
C90_21 C80_21 1_555 1_555
C92_26 N35_26 1_555 1_555
C93_26 N36_26 1_555 1_555
C95_21 N38_21 1_555 1_555
C97_26 N40_26 1_555 1_555
C98_26 N41_26 1_555 1_555
C100_21 N43_21 1_555 1_555
C102_26 N50_23 1_555 1_555
C103_26 N51_17 1_555 1_555
C105_21 N53_21 1_555 1_555
H57_26 C102_26 1_555 1_555
H58_26 C103_26 1_555 1_555
H60_21 C105_21 1_555 1_555
C107_26 C97_26 1_555 1_555
C108_26 C98_26 1_555 1_555
C110_21 C100_21 1_555 1_555
C112_26 C107_26 1_555 1_555
C113_26 C108_26 1_555 1_555
C115_21 C110_21 1_555 1_555
H62_26 C112_26 1_555 1_555
H63_26 C113_26 1_555 1_555
H65_21 C115_21 1_555 1_555
C117_26 C112_26 1_555 1_555
C118_26 C113_26 1_555 1_555
C120_21 C115_21 1_555 1_555
H67_26 C117_26 1_555 1_555
H68_26 C118_26 1_555 1_555
H70_21 C120_21 1_555 1_555
C122_26 N50_23 1_555 1_555
C123_26 N51_17 1_555 1_555
C125_21 N53_21 1_555 1_555
H72_26 C122_26 1_555 1_555
H73_26 C123_26 1_555 1_555
H75_21 C125_21 1_555 1_555
N7_18 C15_18 1_555 1_555
C6_18 C7_18 1_555 1_555
C6_18 C14_18 1_555 1_555
C11_18 C12_18 1_555 1_555
C16_18 C17_18 1_555 1_555
C19_18 C20_18 1_555 1_555
N45_26 C97_26 1_555 1_555
N46_26 C98_26 1_555 1_555
N48_21 C100_21 1_555 1_555
C52_26 C57_26 1_555 1_555
C52_26 C92_26 1_555 1_555
C53_26 C58_26 1_555 1_555
C53_26 C93_26 1_555 1_555
C55_21 C60_21 1_555 1_555
C55_21 C95_21 1_555 1_555
C77_26 C82_26 1_555 1_555
C78_26 C83_26 1_555 1_555
C80_21 C85_21 1_555 1_555
C102_26 C107_26 1_555 1_555
C103_26 C108_26 1_555 1_555
C105_21 C110_21 1_555 1_555
C117_26 C122_26 1_555 1_555
C118_26 C123_26 1_555 1_555
C120_21 C125_21 1_555 1_555
S9_23 C33_23 1_555 1_555
S10_23 C34_23 1_555 1_555
Co5_5 N14_21 1_555 1_555
S3_27 C27_27 1_555 1_555
S6_21 C30_21 1_555 1_555
S7_21 C31_21 1_555 1_555
N11_27 Co7_7 1_555 1_555
N14_21 C30_21 1_555 1_555
N15_21 Co5_5 1_555 1_555
N22_27 Co7_7 1_555 1_555
N27_19 Co5_5 1_555 1_555
N29_21 Co5_5 1_555 1_555
N34_21 Co5_5 1_555 1_555
N36_27 C88_27 1_555 1_555
N41_27 C88_27 1_555 1_555
N46_27 C93_27 1_555 1_555
C27_27 N11_27 1_555 1_555
C31_21 N15_21 1_555 1_555
C38_27 N22_27 1_555 1_555
H18_27 C38_27 1_555 1_555
C43_27 C38_27 1_555 1_555
H23_27 C43_27 1_555 1_555
C48_27 C43_27 1_555 1_555
H28_27 C48_27 1_555 1_555
C53_27 C48_27 1_555 1_555
C58_27 N22_27 1_555 1_555
H33_27 C58_27 1_555 1_555
C63_27 N29_21 1_555 1_555
H38_27 C63_27 1_555 1_555
C68_27 C63_27 1_555 1_555
H43_27 C68_27 1_555 1_555
C73_27 C68_27 1_555 1_555
H48_27 C73_27 1_555 1_555
C78_27 C73_27 1_555 1_555
C83_27 N29_21 1_555 1_555
H53_27 C83_27 1_555 1_555
C88_27 C78_27 1_555 1_555
C93_27 N36_27 1_555 1_555
C98_27 N41_27 1_555 1_555
C103_27 N55_5 1_555 1_555
H58_27 C103_27 1_555 1_555
C108_27 C98_27 1_555 1_555
C113_27 C108_27 1_555 1_555
H63_27 C113_27 1_555 1_555
C118_27 C113_27 1_555 1_555
H68_27 C118_27 1_555 1_555
C123_27 N55_5 1_555 1_555
H73_27 C123_27 1_555 1_555
N46_27 C98_27 1_555 1_555
C53_27 C58_27 1_555 1_555
C53_27 C93_27 1_555 1_555
C78_27 C83_27 1_555 1_555
C103_27 C108_27 1_555 1_555
C118_27 C123_27 1_555 1_555
Co7_8 N1_27 1_555 1_555
S1_27 C1_27 1_555 1_555
N1_27 C1_27 1_555 1_555
Co5_3 N12_19 1_555 1_555
S4_19 C28_19 1_555 1_555
S5_19 C29_19 1_555 1_555
N12_19 C28_19 1_555 1_555
N13_19 Co5_3 1_555 1_555
N21_27 Co7_8 1_555 1_555
N28_19 Co5_3 1_555 1_555
N33_19 Co5_3 1_555 1_555
N35_27 C87_27 1_555 1_555
N40_27 C87_27 1_555 1_555
N45_27 C92_27 1_555 1_555
C29_19 N13_19 1_555 1_555
C37_27 N21_27 1_555 1_555
H17_27 C37_27 1_555 1_555
C42_27 C37_27 1_555 1_555
H22_27 C42_27 1_555 1_555
C47_27 C42_27 1_555 1_555
H27_27 C47_27 1_555 1_555
C52_27 C47_27 1_555 1_555
C57_27 N21_27 1_555 1_555
H32_27 C57_27 1_555 1_555
C62_27 N28_19 1_555 1_555
H37_27 C62_27 1_555 1_555
C67_27 C62_27 1_555 1_555
H42_27 C67_27 1_555 1_555
C72_27 C67_27 1_555 1_555
H47_27 C72_27 1_555 1_555
C77_27 C72_27 1_555 1_555
C82_27 N28_19 1_555 1_555
H52_27 C82_27 1_555 1_555
C87_27 C77_27 1_555 1_555
C92_27 N35_27 1_555 1_555
C97_27 N40_27 1_555 1_555
C102_27 N56_14 1_555 1_555
H57_27 C102_27 1_555 1_555
C107_27 C97_27 1_555 1_555
C112_27 C107_27 1_555 1_555
H62_27 C112_27 1_555 1_555
C117_27 C112_27 1_555 1_555
H67_27 C117_27 1_555 1_555
C122_27 N56_14 1_555 1_555
H72_27 C122_27 1_555 1_555
N45_27 C97_27 1_555 1_555
C52_27 C57_27 1_555 1_555
C52_27 C92_27 1_555 1_555
C77_27 C82_27 1_555 1_555
C102_27 C107_27 1_555 1_555
C117_27 C122_27 1_555 1_555
S7_22 C31_22 1_555 1_555
N15_22 Co5_12 1_555 1_555
N34_22 Co5_12 1_555 1_555
C31_22 N15_22 1_555 1_555
Co7_15 N1_28 1_555 1_555
S1_28 C1_28 1_555 1_555
N1_28 C1_28 1_555 1_555
Co5_9 N12_20 1_555 1_555
Co5_13 N14_22 1_555 1_555
Co7_21 N32_17 1_555 1_555
Co10_18 N19_18 1_555 1_555
Co12_7 N54_17 1_555 1_555
S3_28 C27_28 1_555 1_555
S4_20 C28_20 1_555 1_555
S5_20 C29_20 1_555 1_555
S6_22 C30_22 1_555 1_555
S11_18 C35_18 1_555 1_555
S12_18 C36_18 1_555 1_555
N11_28 Co7_15 1_555 1_555
N12_20 C28_20 1_555 1_555
N13_20 Co5_9 1_555 1_555
N14_22 C30_22 1_555 1_555
N19_18 C35_18 1_555 1_555
N20_18 Co10_18 1_555 1_555
N21_28 Co7_15 1_555 1_555
N22_28 Co7_15 1_555 1_555
N25_15 Co5_9 1_555 1_555
N26_13 Co5_13 1_555 1_555
N28_20 Co5_9 1_555 1_555
N29_22 Co5_13 1_555 1_555
N32_17 C66_17 1_555 1_555
N33_20 Co5_9 1_555 1_555
N35_28 C87_28 1_555 1_555
N36_28 C88_28 1_555 1_555
N39_17 C91_17 1_555 1_555
N40_28 C87_28 1_555 1_555
N41_28 C88_28 1_555 1_555
N44_17 C91_17 1_555 1_555
N45_28 C92_28 1_555 1_555
N46_28 C93_28 1_555 1_555
N49_17 C96_17 1_555 1_555
N51_18 Co10_18 1_555 1_555
N54_17 C106_17 1_555 1_555
N56_18 Co10_18 1_555 1_555
N64_18 Co10_18 1_555 1_555
N65_18 Co10_18 1_555 1_555
C27_28 N11_28 1_555 1_555
C29_20 N13_20 1_555 1_555
C36_18 N20_18 1_555 1_555
C37_28 N21_28 1_555 1_555
C38_28 N22_28 1_555 1_555
C41_17 N25_15 1_555 1_555
H17_28 C37_28 1_555 1_555
H18_28 C38_28 1_555 1_555
H21_17 C41_17 1_555 1_555
C42_28 C37_28 1_555 1_555
C43_28 C38_28 1_555 1_555
C46_17 C41_17 1_555 1_555
H22_28 C42_28 1_555 1_555
H23_28 C43_28 1_555 1_555
H26_17 C46_17 1_555 1_555
C47_28 C42_28 1_555 1_555
C48_28 C43_28 1_555 1_555
C51_17 C46_17 1_555 1_555
H27_28 C47_28 1_555 1_555
H28_28 C48_28 1_555 1_555
H31_17 C51_17 1_555 1_555
C52_28 C47_28 1_555 1_555
C53_28 C48_28 1_555 1_555
C56_17 C51_17 1_555 1_555
C57_28 N21_28 1_555 1_555
C58_28 N22_28 1_555 1_555
C61_17 N25_15 1_555 1_555
H32_28 C57_28 1_555 1_555
H33_28 C58_28 1_555 1_555
H36_17 C61_17 1_555 1_555
C62_28 N28_20 1_555 1_555
C63_28 N29_22 1_555 1_555
C66_17 H41_17 1_555 1_555
H37_28 C62_28 1_555 1_555
H38_28 C63_28 1_555 1_555
C67_28 C62_28 1_555 1_555
C68_28 C63_28 1_555 1_555
C71_17 C66_17 1_555 1_555
H42_28 C67_28 1_555 1_555
H43_28 C68_28 1_555 1_555
H46_17 C71_17 1_555 1_555
C72_28 C67_28 1_555 1_555
C73_28 C68_28 1_555 1_555
C76_17 C71_17 1_555 1_555
H47_28 C72_28 1_555 1_555
H48_28 C73_28 1_555 1_555
H51_17 C76_17 1_555 1_555
C77_28 C72_28 1_555 1_555
C78_28 C73_28 1_555 1_555
C81_17 C76_17 1_555 1_555
C82_28 N28_20 1_555 1_555
C83_28 N29_22 1_555 1_555
C86_17 N32_17 1_555 1_555
H52_28 C82_28 1_555 1_555
H53_28 C83_28 1_555 1_555
H56_17 C86_17 1_555 1_555
C87_28 C77_28 1_555 1_555
C88_28 C78_28 1_555 1_555
C91_17 C81_17 1_555 1_555
C92_28 N35_28 1_555 1_555
C93_28 N36_28 1_555 1_555
C96_17 N39_17 1_555 1_555
C97_28 N40_28 1_555 1_555
C98_28 N41_28 1_555 1_555
C101_17 N44_17 1_555 1_555
C102_28 N55_11 1_555 1_555
C103_28 N51_18 1_555 1_555
C106_17 H61_17 1_555 1_555
H57_28 C102_28 1_555 1_555
H58_28 C103_28 1_555 1_555
C107_28 C97_28 1_555 1_555
C108_28 C98_28 1_555 1_555
C111_17 C101_17 1_555 1_555
C112_28 C107_28 1_555 1_555
C113_28 C108_28 1_555 1_555
C116_17 C111_17 1_555 1_555
H62_28 C112_28 1_555 1_555
H63_28 C113_28 1_555 1_555
H66_17 C116_17 1_555 1_555
C117_28 C112_28 1_555 1_555
C118_28 C113_28 1_555 1_555
C121_17 C116_17 1_555 1_555
H67_28 C117_28 1_555 1_555
H68_28 C118_28 1_555 1_555
H71_17 C121_17 1_555 1_555
C122_28 N55_11 1_555 1_555
C123_28 N51_18 1_555 1_555
C126_17 N54_17 1_555 1_555
H72_28 C122_28 1_555 1_555
H73_28 C123_28 1_555 1_555
H76_17 C126_17 1_555 1_555
N45_28 C97_28 1_555 1_555
N46_28 C98_28 1_555 1_555
N49_17 C101_17 1_555 1_555
C52_28 C57_28 1_555 1_555
C52_28 C92_28 1_555 1_555
C53_28 C58_28 1_555 1_555
C53_28 C93_28 1_555 1_555
C56_17 C61_17 1_555 1_555
C56_17 C96_17 1_555 1_555
C77_28 C82_28 1_555 1_555
C78_28 C83_28 1_555 1_555
C81_17 C86_17 1_555 1_555
C102_28 C107_28 1_555 1_555
C103_28 C108_28 1_555 1_555
C106_17 C111_17 1_555 1_555
C117_28 C122_28 1_555 1_555
C118_28 C123_28 1_555 1_555
C121_17 C126_17 1_555 1_555
Co16 N2_27 1_555 1_555
S2_27 C2_27 1_555 1_555
N2_27 C2_27 1_555 1_555
Co8_9 N31_22 1_555 1_555
S8_27 C32_27 1_555 1_555
N16_27 Co16 1_555 1_555
N31_22 C65_22 1_555 1_555
N38_22 C90_22 1_555 1_555
N43_22 C90_22 1_555 1_555
N48_22 C95_22 1_555 1_555
N53_22 Co16 1_555 1_555
C32_27 N16_27 1_555 1_555
C40_22 N27_12 1_555 1_555
H20_22 C40_22 1_555 1_555
C45_22 C40_22 1_555 1_555
H25_22 C45_22 1_555 1_555
C50_22 C45_22 1_555 1_555
H30_22 C50_22 1_555 1_555
C55_22 C50_22 1_555 1_555
C60_22 N27_12 1_555 1_555
H35_22 C60_22 1_555 1_555
C65_22 H40_22 1_555 1_555
C70_22 C65_22 1_555 1_555
H45_22 C70_22 1_555 1_555
C75_22 C70_22 1_555 1_555
H50_22 C75_22 1_555 1_555
C80_22 C75_22 1_555 1_555
C85_22 N31_22 1_555 1_555
H55_22 C85_22 1_555 1_555
C90_22 C80_22 1_555 1_555
C95_22 N38_22 1_555 1_555
C100_22 N43_22 1_555 1_555
C105_22 N53_22 1_555 1_555
H60_22 C105_22 1_555 1_555
C110_22 C100_22 1_555 1_555
C115_22 C110_22 1_555 1_555
H65_22 C115_22 1_555 1_555
C120_22 C115_22 1_555 1_555
H70_22 C120_22 1_555 1_555
C125_22 N53_22 1_555 1_555
H75_22 C125_22 1_555 1_555
N48_22 C100_22 1_555 1_555
C55_22 C60_22 1_555 1_555
C55_22 C95_22 1_555 1_555
C80_22 C85_22 1_555 1_555
C105_22 C110_22 1_555 1_555
C120_22 C125_22 1_555 1_555
Co7_17 N1_29 1_555 1_555
Co14_8 N2_28 1_555 1_555
S1_29 C1_29 1_555 1_555
S2_28 C2_28 1_555 1_555
N1_29 C1_29 1_555 1_555
N2_28 C2_28 1_555 1_555
N3_16 C3_19 1_555 1_555
N4_19 Co7_17 1_555 1_555
N5_19 C13_19 1_555 1_555
N6_19 C13_19 1_555 1_555
N7_19 C14_19 1_555 1_555
N8_19 Co14_8 1_555 1_555
C3_19 H1_19 1_555 1_555
C4_19 C3_19 1_555 1_555
H2_19 C4_19 1_555 1_555
C5_19 C4_19 1_555 1_555
H3_19 C5_19 1_555 1_555
C6_19 C5_19 1_555 1_555
C7_19 N3_16 1_555 1_555
H4_19 C7_19 1_555 1_555
C8_19 N4_19 1_555 1_555
H5_19 C8_19 1_555 1_555
C9_19 C8_19 1_555 1_555
H6_19 C9_19 1_555 1_555
C10_19 C9_19 1_555 1_555
H7_19 C10_19 1_555 1_555
C11_19 C10_19 1_555 1_555
C12_19 N4_19 1_555 1_555
H8_19 C12_19 1_555 1_555
C13_19 C11_19 1_555 1_555
C14_19 N5_19 1_555 1_555
C15_19 N6_19 1_555 1_555
C16_19 N8_19 1_555 1_555
H9_19 C16_19 1_555 1_555
C17_19 C15_19 1_555 1_555
C18_19 C17_19 1_555 1_555
H10_19 C18_19 1_555 1_555
C19_19 C18_19 1_555 1_555
H11_19 C19_19 1_555 1_555
C20_19 N8_19 1_555 1_555
H12_19 C20_19 1_555 1_555
Co6_11 N3_16 1_555 1_555
Co7_22 N31_23 1_555 1_555
Co9_24 N17_24 1_555 1_555
S3_29 C27_29 1_555 1_555
S8_28 C32_28 1_555 1_555
S9_24 C33_24 1_555 1_555
S10_24 C34_24 1_555 1_555
N11_29 Co7_17 1_555 1_555
N16_28 Co14_8 1_555 1_555
N17_24 C33_24 1_555 1_555
N18_24 Co9_24 1_555 1_555
N21_29 Co7_17 1_555 1_555
N22_29 Co7_17 1_555 1_555
N31_23 C65_23 1_555 1_555
N35_29 C87_29 1_555 1_555
N36_29 C88_29 1_555 1_555
N38_23 C90_23 1_555 1_555
N40_29 C87_29 1_555 1_555
N41_29 C88_29 1_555 1_555
N43_23 C90_23 1_555 1_555
N45_29 C92_29 1_555 1_555
N46_29 C93_29 1_555 1_555
N48_23 C95_23 1_555 1_555
N50_24 Co9_24 1_555 1_555
N53_23 Co14_8 1_555 1_555
N55_24 Co9_24 1_555 1_555
N62_24 Co9_24 1_555 1_555
N63_24 Co9_24 1_555 1_555
C27_29 N11_29 1_555 1_555
C32_28 N16_28 1_555 1_555
C34_24 N18_24 1_555 1_555
C37_29 N21_29 1_555 1_555
C38_29 N22_29 1_555 1_555
C40_23 N27_17 1_555 1_555
H17_29 C37_29 1_555 1_555
H18_29 C38_29 1_555 1_555
H20_23 C40_23 1_555 1_555
C42_29 C37_29 1_555 1_555
C43_29 C38_29 1_555 1_555
C45_23 C40_23 1_555 1_555
H22_29 C42_29 1_555 1_555
H23_29 C43_29 1_555 1_555
H25_23 C45_23 1_555 1_555
C47_29 C42_29 1_555 1_555
C48_29 C43_29 1_555 1_555
C50_23 C45_23 1_555 1_555
H27_29 C47_29 1_555 1_555
H28_29 C48_29 1_555 1_555
H30_23 C50_23 1_555 1_555
C52_29 C47_29 1_555 1_555
C53_29 C48_29 1_555 1_555
C55_23 C50_23 1_555 1_555
C57_29 N21_29 1_555 1_555
C58_29 N22_29 1_555 1_555
C60_23 N27_17 1_555 1_555
H32_29 C57_29 1_555 1_555
H33_29 C58_29 1_555 1_555
H35_23 C60_23 1_555 1_555
C62_29 N34_19 1_555 1_555
C63_29 N33_16 1_555 1_555
C65_23 H40_23 1_555 1_555
H37_29 C62_29 1_555 1_555
H38_29 C63_29 1_555 1_555
C67_29 C62_29 1_555 1_555
C68_29 C63_29 1_555 1_555
C70_23 C65_23 1_555 1_555
H42_29 C67_29 1_555 1_555
H43_29 C68_29 1_555 1_555
H45_23 C70_23 1_555 1_555
C72_29 C67_29 1_555 1_555
C73_29 C68_29 1_555 1_555
C75_23 C70_23 1_555 1_555
H47_29 C72_29 1_555 1_555
H48_29 C73_29 1_555 1_555
H50_23 C75_23 1_555 1_555
C77_29 C72_29 1_555 1_555
C78_29 C73_29 1_555 1_555
C80_23 C75_23 1_555 1_555
C82_29 N34_19 1_555 1_555
C83_29 N33_16 1_555 1_555
C85_23 N31_23 1_555 1_555
H52_29 C82_29 1_555 1_555
H53_29 C83_29 1_555 1_555
H55_23 C85_23 1_555 1_555
C87_29 C77_29 1_555 1_555
C88_29 C78_29 1_555 1_555
C90_23 C80_23 1_555 1_555
C92_29 N35_29 1_555 1_555
C93_29 N36_29 1_555 1_555
C95_23 N38_23 1_555 1_555
C97_29 N40_29 1_555 1_555
C98_29 N41_29 1_555 1_555
C100_23 N43_23 1_555 1_555
C102_29 N50_24 1_555 1_555
C103_29 N55_13 1_555 1_555
C105_23 N53_23 1_555 1_555
H57_29 C102_29 1_555 1_555
H58_29 C103_29 1_555 1_555
H60_23 C105_23 1_555 1_555
C107_29 C97_29 1_555 1_555
C108_29 C98_29 1_555 1_555
C110_23 C100_23 1_555 1_555
C112_29 C107_29 1_555 1_555
C113_29 C108_29 1_555 1_555
C115_23 C110_23 1_555 1_555
H62_29 C112_29 1_555 1_555
H63_29 C113_29 1_555 1_555
H65_23 C115_23 1_555 1_555
C117_29 C112_29 1_555 1_555
C118_29 C113_29 1_555 1_555
C120_23 C115_23 1_555 1_555
H67_29 C117_29 1_555 1_555
H68_29 C118_29 1_555 1_555
H70_23 C120_23 1_555 1_555
C122_29 N50_24 1_555 1_555
C123_29 N55_13 1_555 1_555
C125_23 N53_23 1_555 1_555
H72_29 C122_29 1_555 1_555
H73_29 C123_29 1_555 1_555
H75_23 C125_23 1_555 1_555
N7_19 C15_19 1_555 1_555
C6_19 C7_19 1_555 1_555
C6_19 C14_19 1_555 1_555
C11_19 C12_19 1_555 1_555
C16_19 C17_19 1_555 1_555
C19_19 C20_19 1_555 1_555
N45_29 C97_29 1_555 1_555
N46_29 C98_29 1_555 1_555
N48_23 C100_23 1_555 1_555
C52_29 C57_29 1_555 1_555
C52_29 C92_29 1_555 1_555
C53_29 C58_29 1_555 1_555
C53_29 C93_29 1_555 1_555
C55_23 C60_23 1_555 1_555
C55_23 C95_23 1_555 1_555
C77_29 C82_29 1_555 1_555
C78_29 C83_29 1_555 1_555
C80_23 C85_23 1_555 1_555
C102_29 C107_29 1_555 1_555
C103_29 C108_29 1_555 1_555
C105_23 C110_23 1_555 1_555
C117_29 C122_29 1_555 1_555
C118_29 C123_29 1_555 1_555
C120_23 C125_23 1_555 1_555
Co13 N2_29 1_555 1_555
S2_29 C2_29 1_555 1_555
N2_29 C2_29 1_555 1_555
S8_29 C32_29 1_555 1_555
N16_29 Co13 1_555 1_555
C32_29 N16_29 1_555 1_555
Co7_21 N1_30 1_555 1_555
Co12_7 N2_30 1_555 1_555
S1_30 C1_30 1_555 1_555
S2_30 C2_30 1_555 1_555
N1_30 C1_30 1_555 1_555
N2_30 C2_30 1_555 1_555
Co3_14 N12_21 1_555 1_555
Co7_19 N31_24 1_555 1_555
Co8_18 N32_18 1_555 1_555
Co9_25 N17_25 1_555 1_555
Co15_4 N54_18 1_555 1_555
S3_30 C27_30 1_555 1_555
S4_21 C28_21 1_555 1_555
S5_21 C29_21 1_555 1_555
S8_30 C32_30 1_555 1_555
S9_25 C33_25 1_555 1_555
S10_25 C34_25 1_555 1_555
N11_30 Co7_21 1_555 1_555
N12_21 C28_21 1_555 1_555
N13_21 Co3_14 1_555 1_555
N16_30 Co12_7 1_555 1_555
N17_25 C33_25 1_555 1_555
N18_25 Co9_25 1_555 1_555
N21_30 Co7_21 1_555 1_555
N22_30 Co7_21 1_555 1_555
N24_16 Co3_14 1_555 1_555
N25_16 Co3_14 1_555 1_555
N28_21 Co3_14 1_555 1_555
N31_24 C65_24 1_555 1_555
N32_18 C66_18 1_555 1_555
N33_21 Co3_14 1_555 1_555
N35_30 C87_30 1_555 1_555
N36_30 C88_30 1_555 1_555
N38_24 C90_24 1_555 1_555
N39_18 C91_18 1_555 1_555
N40_30 C87_30 1_555 1_555
N41_30 C88_30 1_555 1_555
N43_24 C90_24 1_555 1_555
N44_18 C91_18 1_555 1_555
N45_30 C92_30 1_555 1_555
N46_30 C93_30 1_555 1_555
N48_24 C95_24 1_555 1_555
N49_18 C96_18 1_555 1_555
N50_25 Co9_25 1_555 1_555
N53_24 Co12_7 1_555 1_555
N54_18 C106_18 1_555 1_555
N55_25 Co9_25 1_555 1_555
N62_25 Co9_25 1_555 1_555
N63_25 Co9_25 1_555 1_555
C27_30 N11_30 1_555 1_555
C29_21 N13_21 1_555 1_555
C32_30 N16_30 1_555 1_555
C34_25 N18_25 1_555 1_555
C37_30 N21_30 1_555 1_555
C38_30 N22_30 1_555 1_555
C40_24 N24_16 1_555 1_555
C41_18 N25_16 1_555 1_555
H17_30 C37_30 1_555 1_555
H18_30 C38_30 1_555 1_555
H20_24 C40_24 1_555 1_555
H21_18 C41_18 1_555 1_555
C42_30 C37_30 1_555 1_555
C43_30 C38_30 1_555 1_555
C45_24 C40_24 1_555 1_555
C46_18 C41_18 1_555 1_555
H22_30 C42_30 1_555 1_555
H23_30 C43_30 1_555 1_555
H25_24 C45_24 1_555 1_555
H26_18 C46_18 1_555 1_555
C47_30 C42_30 1_555 1_555
C48_30 C43_30 1_555 1_555
C50_24 C45_24 1_555 1_555
C51_18 C46_18 1_555 1_555
H27_30 C47_30 1_555 1_555
H28_30 C48_30 1_555 1_555
H30_24 C50_24 1_555 1_555
H31_18 C51_18 1_555 1_555
C52_30 C47_30 1_555 1_555
C53_30 C48_30 1_555 1_555
C55_24 C50_24 1_555 1_555
C56_18 C51_18 1_555 1_555
C57_30 N21_30 1_555 1_555
C58_30 N22_30 1_555 1_555
C60_24 N24_16 1_555 1_555
C61_18 N25_16 1_555 1_555
H32_30 C57_30 1_555 1_555
H33_30 C58_30 1_555 1_555
H35_24 C60_24 1_555 1_555
H36_18 C61_18 1_555 1_555
C62_30 N28_21 1_555 1_555
C63_30 N34_5 1_555 1_555
C65_24 H40_24 1_555 1_555
C66_18 H41_18 1_555 1_555
H37_30 C62_30 1_555 1_555
H38_30 C63_30 1_555 1_555
C67_30 C62_30 1_555 1_555
C68_30 C63_30 1_555 1_555
C70_24 C65_24 1_555 1_555
C71_18 C66_18 1_555 1_555
H42_30 C67_30 1_555 1_555
H43_30 C68_30 1_555 1_555
H45_24 C70_24 1_555 1_555
H46_18 C71_18 1_555 1_555
C72_30 C67_30 1_555 1_555
C73_30 C68_30 1_555 1_555
C75_24 C70_24 1_555 1_555
C76_18 C71_18 1_555 1_555
H47_30 C72_30 1_555 1_555
H48_30 C73_30 1_555 1_555
H50_24 C75_24 1_555 1_555
H51_18 C76_18 1_555 1_555
C77_30 C72_30 1_555 1_555
C78_30 C73_30 1_555 1_555
C80_24 C75_24 1_555 1_555
C81_18 C76_18 1_555 1_555
C82_30 N28_21 1_555 1_555
C83_30 N34_5 1_555 1_555
C85_24 N31_24 1_555 1_555
C86_18 N32_18 1_555 1_555
H52_30 C82_30 1_555 1_555
H53_30 C83_30 1_555 1_555
H55_24 C85_24 1_555 1_555
H56_18 C86_18 1_555 1_555
C87_30 C77_30 1_555 1_555
C88_30 C78_30 1_555 1_555
C90_24 C80_24 1_555 1_555
C91_18 C81_18 1_555 1_555
C92_30 N35_30 1_555 1_555
C93_30 N36_30 1_555 1_555
C95_24 N38_24 1_555 1_555
C96_18 N39_18 1_555 1_555
C97_30 N40_30 1_555 1_555
C98_30 N41_30 1_555 1_555
C100_24 N43_24 1_555 1_555
C101_18 N44_18 1_555 1_555
C102_30 N50_25 1_555 1_555
C103_30 N55_18 1_555 1_555
C105_24 N53_24 1_555 1_555
C106_18 H61_18 1_555 1_555
H57_30 C102_30 1_555 1_555
H58_30 C103_30 1_555 1_555
H60_24 C105_24 1_555 1_555
C107_30 C97_30 1_555 1_555
C108_30 C98_30 1_555 1_555
C110_24 C100_24 1_555 1_555
C111_18 C101_18 1_555 1_555
C112_30 C107_30 1_555 1_555
C113_30 C108_30 1_555 1_555
C115_24 C110_24 1_555 1_555
C116_18 C111_18 1_555 1_555
H62_30 C112_30 1_555 1_555
H63_30 C113_30 1_555 1_555
H65_24 C115_24 1_555 1_555
H66_18 C116_18 1_555 1_555
C117_30 C112_30 1_555 1_555
C118_30 C113_30 1_555 1_555
C120_24 C115_24 1_555 1_555
C121_18 C116_18 1_555 1_555
H67_30 C117_30 1_555 1_555
H68_30 C118_30 1_555 1_555
H70_24 C120_24 1_555 1_555
H71_18 C121_18 1_555 1_555
C122_30 N50_25 1_555 1_555
C123_30 N55_18 1_555 1_555
C125_24 N53_24 1_555 1_555
C126_18 N54_18 1_555 1_555
H72_30 C122_30 1_555 1_555
H73_30 C123_30 1_555 1_555
H75_24 C125_24 1_555 1_555
H76_18 C126_18 1_555 1_555
N45_30 C97_30 1_555 1_555
N46_30 C98_30 1_555 1_555
N48_24 C100_24 1_555 1_555
N49_18 C101_18 1_555 1_555
C52_30 C57_30 1_555 1_555
C52_30 C92_30 1_555 1_555
C53_30 C58_30 1_555 1_555
C53_30 C93_30 1_555 1_555
C55_24 C60_24 1_555 1_555
C55_24 C95_24 1_555 1_555
C56_18 C61_18 1_555 1_555
C56_18 C96_18 1_555 1_555
C77_30 C82_30 1_555 1_555
C78_30 C83_30 1_555 1_555
C80_24 C85_24 1_555 1_555
C81_18 C86_18 1_555 1_555
C102_30 C107_30 1_555 1_555
C103_30 C108_30 1_555 1_555
C105_24 C110_24 1_555 1_555
C106_18 C111_18 1_555 1_555
C117_30 C122_30 1_555 1_555
C118_30 C123_30 1_555 1_555
C120_24 C125_24 1_555 1_555
C121_18 C126_18 1_555 1_555
S2_31 C2_31 1_555 1_555
S8_31 C32_31 1_555 1_555
Co7_16 N1_31 1_555 1_555
Co11_5 N2_31 1_555 1_555
S1_31 C1_31 1_555 1_555
N1_31 C1_31 1_555 1_555
S3_31 C27_31 1_555 1_555
N11_31 Co7_16 1_555 1_555
N16_31 Co11_5 1_555 1_555
N21_31 Co7_16 1_555 1_555
N22_31 Co7_16 1_555 1_555
N35_31 C87_31 1_555 1_555
N36_31 C88_31 1_555 1_555
N40_31 C87_31 1_555 1_555
N41_31 C88_31 1_555 1_555
N45_31 C92_31 1_555 1_555
N46_31 C93_31 1_555 1_555
C27_31 N11_31 1_555 1_555
C37_31 N21_31 1_555 1_555
C38_31 N22_31 1_555 1_555
H17_31 C37_31 1_555 1_555
H18_31 C38_31 1_555 1_555
C42_31 C37_31 1_555 1_555
C43_31 C38_31 1_555 1_555
H22_31 C42_31 1_555 1_555
H23_31 C43_31 1_555 1_555
C47_31 C42_31 1_555 1_555
C48_31 C43_31 1_555 1_555
H27_31 C47_31 1_555 1_555
H28_31 C48_31 1_555 1_555
C52_31 C47_31 1_555 1_555
C53_31 C48_31 1_555 1_555
C57_31 N21_31 1_555 1_555
C58_31 N22_31 1_555 1_555
H32_31 C57_31 1_555 1_555
H33_31 C58_31 1_555 1_555
C62_31 N34_14 1_555 1_555
C63_31 N34_18 1_555 1_555
H37_31 C62_31 1_555 1_555
H38_31 C63_31 1_555 1_555
C67_31 C62_31 1_555 1_555
C68_31 C63_31 1_555 1_555
H42_31 C67_31 1_555 1_555
H43_31 C68_31 1_555 1_555
C72_31 C67_31 1_555 1_555
C73_31 C68_31 1_555 1_555
H47_31 C72_31 1_555 1_555
H48_31 C73_31 1_555 1_555
C77_31 C72_31 1_555 1_555
C78_31 C73_31 1_555 1_555
C82_31 N34_14 1_555 1_555
C83_31 N34_18 1_555 1_555
H52_31 C82_31 1_555 1_555
H53_31 C83_31 1_555 1_555
C87_31 C77_31 1_555 1_555
C88_31 C78_31 1_555 1_555
C92_31 N35_31 1_555 1_555
C93_31 N36_31 1_555 1_555
C97_31 N40_31 1_555 1_555
C98_31 N41_31 1_555 1_555
C102_31 N56_15 1_555 1_555
C103_31 N55_12 1_555 1_555
H57_31 C102_31 1_555 1_555
H58_31 C103_31 1_555 1_555
C107_31 C97_31 1_555 1_555
C108_31 C98_31 1_555 1_555
C112_31 C107_31 1_555 1_555
C113_31 C108_31 1_555 1_555
H62_31 C112_31 1_555 1_555
H63_31 C113_31 1_555 1_555
C117_31 C112_31 1_555 1_555
C118_31 C113_31 1_555 1_555
H67_31 C117_31 1_555 1_555
H68_31 C118_31 1_555 1_555
C122_31 N56_15 1_555 1_555
C123_31 N55_12 1_555 1_555
H72_31 C122_31 1_555 1_555
H73_31 C123_31 1_555 1_555
N45_31 C97_31 1_555 1_555
N46_31 C98_31 1_555 1_555
C52_31 C57_31 1_555 1_555
C52_31 C92_31 1_555 1_555
C53_31 C58_31 1_555 1_555
C53_31 C93_31 1_555 1_555
C77_31 C82_31 1_555 1_555
C78_31 C83_31 1_555 1_555
C102_31 C107_31 1_555 1_555
C103_31 C108_31 1_555 1_555
C117_31 C122_31 1_555 1_555
C118_31 C123_31 1_555 1_555
Co14 N2_32 1_555 1_555
N16_32 Co14 1_555 1_555
S2_32 C2_32 1_555 1_555
S8_32 C32_32 1_555 1_555
Co8_17 N1_32 1_555 1_555
Co11_3 N2_33 1_555 1_555
S1_32 C1_32 1_555 1_555
S2_33 C2_33 1_555 1_555
N1_32 C1_32 1_555 1_555
N2_33 C2_33 1_555 1_555
N27_13 C3_20 1_555 1_555
N4_20 Co8_17 1_555 1_555
N5_20 C13_20 1_555 1_555
N6_20 C13_20 1_555 1_555
N7_20 C14_20 1_555 1_555
N8_20 Co11_3 1_555 1_555
C3_20 H1_20 1_555 1_555
C4_20 C3_20 1_555 1_555
H2_20 C4_20 1_555 1_555
C5_20 C4_20 1_555 1_555
H3_20 C5_20 1_555 1_555
C6_20 C5_20 1_555 1_555
C7_20 N27_13 1_555 1_555
H4_20 C7_20 1_555 1_555
C8_20 N4_20 1_555 1_555
H5_20 C8_20 1_555 1_555
C9_20 C8_20 1_555 1_555
H6_20 C9_20 1_555 1_555
C10_20 C9_20 1_555 1_555
H7_20 C10_20 1_555 1_555
C11_20 C10_20 1_555 1_555
C12_20 N4_20 1_555 1_555
H8_20 C12_20 1_555 1_555
C13_20 C11_20 1_555 1_555
C14_20 N5_20 1_555 1_555
C15_20 N6_20 1_555 1_555
C16_20 N8_20 1_555 1_555
H9_20 C16_20 1_555 1_555
C17_20 C15_20 1_555 1_555
C18_20 C17_20 1_555 1_555
H10_20 C18_20 1_555 1_555
C19_20 C18_20 1_555 1_555
H11_20 C19_20 1_555 1_555
C20_20 N8_20 1_555 1_555
H12_20 C20_20 1_555 1_555
Co3_15 N12_22 1_555 1_555
Co7_24 N31_25 1_555 1_555
Co7_4 N32_19 1_555 1_555
Co9_26 N17_26 1_555 1_555
Co12 N54_19 1_555 1_555
S3_32 C27_32 1_555 1_555
S4_22 C28_22 1_555 1_555
S5_22 C29_22 1_555 1_555
S8_33 C32_33 1_555 1_555
S9_26 C33_26 1_555 1_555
S10_26 C34_26 1_555 1_555
N11_32 Co8_17 1_555 1_555
N12_22 C28_22 1_555 1_555
N13_22 Co3_15 1_555 1_555
N16_33 Co11_3 1_555 1_555
N17_26 C33_26 1_555 1_555
N18_26 Co9_26 1_555 1_555
N21_32 Co8_17 1_555 1_555
N22_32 Co8_17 1_555 1_555
N24_17 Co3_15 1_555 1_555
N25_17 Co3_15 1_555 1_555
N28_22 Co3_15 1_555 1_555
N31_25 C65_25 1_555 1_555
N32_19 C66_19 1_555 1_555
N33_22 Co3_15 1_555 1_555
N35_32 C87_32 1_555 1_555
N36_32 C88_32 1_555 1_555
N38_25 C90_25 1_555 1_555
N39_19 C91_19 1_555 1_555
N40_32 C87_32 1_555 1_555
N41_32 C88_32 1_555 1_555
N43_25 C90_25 1_555 1_555
N44_19 C91_19 1_555 1_555
N45_32 C92_32 1_555 1_555
N46_32 C93_32 1_555 1_555
N48_25 C95_25 1_555 1_555
N49_19 C96_19 1_555 1_555
N50_26 Co9_26 1_555 1_555
N53_25 Co11_3 1_555 1_555
N54_19 C106_19 1_555 1_555
N55_26 Co9_26 1_555 1_555
N62_26 Co9_26 1_555 1_555
N63_26 Co9_26 1_555 1_555
C27_32 N11_32 1_555 1_555
C29_22 N13_22 1_555 1_555
C32_33 N16_33 1_555 1_555
C34_26 N18_26 1_555 1_555
C37_32 N21_32 1_555 1_555
C38_32 N22_32 1_555 1_555
C40_25 N24_17 1_555 1_555
C41_19 N25_17 1_555 1_555
H17_32 C37_32 1_555 1_555
H18_32 C38_32 1_555 1_555
H20_25 C40_25 1_555 1_555
H21_19 C41_19 1_555 1_555
C42_32 C37_32 1_555 1_555
C43_32 C38_32 1_555 1_555
C45_25 C40_25 1_555 1_555
C46_19 C41_19 1_555 1_555
H22_32 C42_32 1_555 1_555
H23_32 C43_32 1_555 1_555
H25_25 C45_25 1_555 1_555
H26_19 C46_19 1_555 1_555
C47_32 C42_32 1_555 1_555
C48_32 C43_32 1_555 1_555
C50_25 C45_25 1_555 1_555
C51_19 C46_19 1_555 1_555
H27_32 C47_32 1_555 1_555
H28_32 C48_32 1_555 1_555
H30_25 C50_25 1_555 1_555
H31_19 C51_19 1_555 1_555
C52_32 C47_32 1_555 1_555
C53_32 C48_32 1_555 1_555
C55_25 C50_25 1_555 1_555
C56_19 C51_19 1_555 1_555
C57_32 N21_32 1_555 1_555
C58_32 N22_32 1_555 1_555
C60_25 N24_17 1_555 1_555
C61_19 N25_17 1_555 1_555
H32_32 C57_32 1_555 1_555
H33_32 C58_32 1_555 1_555
H35_25 C60_25 1_555 1_555
H36_19 C61_19 1_555 1_555
C62_32 N28_22 1_555 1_555
C63_32 N33_15 1_555 1_555
C65_25 H40_25 1_555 1_555
C66_19 H41_19 1_555 1_555
H37_32 C62_32 1_555 1_555
H38_32 C63_32 1_555 1_555
C67_32 C62_32 1_555 1_555
C68_32 C63_32 1_555 1_555
C70_25 C65_25 1_555 1_555
C71_19 C66_19 1_555 1_555
H42_32 C67_32 1_555 1_555
H43_32 C68_32 1_555 1_555
H45_25 C70_25 1_555 1_555
H46_19 C71_19 1_555 1_555
C72_32 C67_32 1_555 1_555
C73_32 C68_32 1_555 1_555
C75_25 C70_25 1_555 1_555
C76_19 C71_19 1_555 1_555
H47_32 C72_32 1_555 1_555
H48_32 C73_32 1_555 1_555
H50_25 C75_25 1_555 1_555
H51_19 C76_19 1_555 1_555
C77_32 C72_32 1_555 1_555
C78_32 C73_32 1_555 1_555
C80_25 C75_25 1_555 1_555
C81_19 C76_19 1_555 1_555
C82_32 N28_22 1_555 1_555
C83_32 N33_15 1_555 1_555
C85_25 N31_25 1_555 1_555
C86_19 N32_19 1_555 1_555
H52_32 C82_32 1_555 1_555
H53_32 C83_32 1_555 1_555
H55_25 C85_25 1_555 1_555
H56_19 C86_19 1_555 1_555
C87_32 C77_32 1_555 1_555
C88_32 C78_32 1_555 1_555
C90_25 C80_25 1_555 1_555
C91_19 C81_19 1_555 1_555
C92_32 N35_32 1_555 1_555
C93_32 N36_32 1_555 1_555
C95_25 N38_25 1_555 1_555
C96_19 N39_19 1_555 1_555
C97_32 N40_32 1_555 1_555
C98_32 N41_32 1_555 1_555
C100_25 N43_25 1_555 1_555
C101_19 N44_19 1_555 1_555
C102_32 N50_26 1_555 1_555
C103_32 N55_19 1_555 1_555
C105_25 N53_25 1_555 1_555
C106_19 H61_19 1_555 1_555
H57_32 C102_32 1_555 1_555
H58_32 C103_32 1_555 1_555
H60_25 C105_25 1_555 1_555
C107_32 C97_32 1_555 1_555
C108_32 C98_32 1_555 1_555
C110_25 C100_25 1_555 1_555
C111_19 C101_19 1_555 1_555
C112_32 C107_32 1_555 1_555
C113_32 C108_32 1_555 1_555
C115_25 C110_25 1_555 1_555
C116_19 C111_19 1_555 1_555
H62_32 C112_32 1_555 1_555
H63_32 C113_32 1_555 1_555
H65_25 C115_25 1_555 1_555
H66_19 C116_19 1_555 1_555
C117_32 C112_32 1_555 1_555
C118_32 C113_32 1_555 1_555
C120_25 C115_25 1_555 1_555
C121_19 C116_19 1_555 1_555
H67_32 C117_32 1_555 1_555
H68_32 C118_32 1_555 1_555
H70_25 C120_25 1_555 1_555
H71_19 C121_19 1_555 1_555
C122_32 N50_26 1_555 1_555
C123_32 N55_19 1_555 1_555
C125_25 N53_25 1_555 1_555
C126_19 N54_19 1_555 1_555
H72_32 C122_32 1_555 1_555
H73_32 C123_32 1_555 1_555
H75_25 C125_25 1_555 1_555
H76_19 C126_19 1_555 1_555
N7_20 C15_20 1_555 1_555
C6_20 C7_20 1_555 1_555
C6_20 C14_20 1_555 1_555
C11_20 C12_20 1_555 1_555
C16_20 C17_20 1_555 1_555
C19_20 C20_20 1_555 1_555
N45_32 C97_32 1_555 1_555
N46_32 C98_32 1_555 1_555
N48_25 C100_25 1_555 1_555
N49_19 C101_19 1_555 1_555
C52_32 C57_32 1_555 1_555
C52_32 C92_32 1_555 1_555
C53_32 C58_32 1_555 1_555
C53_32 C93_32 1_555 1_555
C55_25 C60_25 1_555 1_555
C55_25 C95_25 1_555 1_555
C56_19 C61_19 1_555 1_555
C56_19 C96_19 1_555 1_555
C77_32 C82_32 1_555 1_555
C78_32 C83_32 1_555 1_555
C80_25 C85_25 1_555 1_555
C81_19 C86_19 1_555 1_555
C102_32 C107_32 1_555 1_555
C103_32 C108_32 1_555 1_555
C105_25 C110_25 1_555 1_555
C106_19 C111_19 1_555 1_555
C117_32 C122_32 1_555 1_555
C118_32 C123_32 1_555 1_555
C120_25 C125_25 1_555 1_555
C121_19 C126_19 1_555 1_555
Co13_4 N2_34 1_555 1_555
S2_34 C2_34 1_555 1_555
N2_34 C2_34 1_555 1_555
Co15_6 N60_17 1_555 1_555
Co12_8 N61_17 1_555 1_555
S8_34 C32_34 1_555 1_555
N16_34 Co13_4 1_555 1_555
N59_17 Co13_4 1_555 1_555
N60_17 C130_17 1_555 1_555
N61_17 C131_17 1_555 1_555
N68_17 C154_17 1_555 1_555
N69_17 C155_17 1_555 1_555
N70_17 C154_17 1_555 1_555
C32_34 N16_34 1_555 1_555
C129_17 N59_17 1_555 1_555
C130_17 H80_17 1_555 1_555
C131_17 H81_17 1_555 1_555
H79_17 C129_17 1_555 1_555
C134_17 C129_17 1_555 1_555
C135_17 C130_17 1_555 1_555
C136_17 C131_17 1_555 1_555
H84_17 C134_17 1_555 1_555
H85_17 C135_17 1_555 1_555
H86_17 C136_17 1_555 1_555
C139_17 C134_17 1_555 1_555
C140_17 C135_17 1_555 1_555
C141_17 C136_17 1_555 1_555
H89_17 C139_17 1_555 1_555
H90_17 C140_17 1_555 1_555
H91_17 C141_17 1_555 1_555
C144_17 C139_17 1_555 1_555
C145_17 C140_17 1_555 1_555
C146_17 C141_17 1_555 1_555
C149_17 N59_17 1_555 1_555
C150_17 N60_17 1_555 1_555
C151_17 N61_17 1_555 1_555
H94_17 C149_17 1_555 1_555
H95_17 C150_17 1_555 1_555
H96_17 C151_17 1_555 1_555
C154_17 C144_17 1_555 1_555
C155_17 N68_17 1_555 1_555
C156_17 N69_17 1_555 1_555
N70_17 C156_17 1_555 1_555
C144_17 C149_17 1_555 1_555
C145_17 C150_17 1_555 1_555
C145_17 C156_17 1_555 1_555
C146_17 C151_17 1_555 1_555
C146_17 C155_17 1_555 1_555
Co7_22 N1_33 1_555 1_555
S1_33 C1_33 1_555 1_555
N1_33 C1_33 1_555 1_555
Co6_11 N12_23 1_555 1_555
S4_23 C28_23 1_555 1_555
S5_23 C29_23 1_555 1_555
N12_23 C28_23 1_555 1_555
N13_23 Co6_11 1_555 1_555
N21_33 Co7_22 1_555 1_555
N28_23 Co6_11 1_555 1_555
N33_23 Co6_11 1_555 1_555
N35_33 C87_33 1_555 1_555
N40_33 C87_33 1_555 1_555
N45_33 C92_33 1_555 1_555
C29_23 N13_23 1_555 1_555
C37_33 N21_33 1_555 1_555
H17_33 C37_33 1_555 1_555
C42_33 C37_33 1_555 1_555
H22_33 C42_33 1_555 1_555
C47_33 C42_33 1_555 1_555
H27_33 C47_33 1_555 1_555
C52_33 C47_33 1_555 1_555
C57_33 N21_33 1_555 1_555
H32_33 C57_33 1_555 1_555
C62_33 N28_23 1_555 1_555
H37_33 C62_33 1_555 1_555
C67_33 C62_33 1_555 1_555
H42_33 C67_33 1_555 1_555
C72_33 C67_33 1_555 1_555
H47_33 C72_33 1_555 1_555
C77_33 C72_33 1_555 1_555
C82_33 N28_23 1_555 1_555
H52_33 C82_33 1_555 1_555
C87_33 C77_33 1_555 1_555
C92_33 N35_33 1_555 1_555
C97_33 N40_33 1_555 1_555
C102_33 N55_24 1_555 1_555
H57_33 C102_33 1_555 1_555
C107_33 C97_33 1_555 1_555
C112_33 C107_33 1_555 1_555
H62_33 C112_33 1_555 1_555
C117_33 C112_33 1_555 1_555
H67_33 C117_33 1_555 1_555
C122_33 N55_24 1_555 1_555
H72_33 C122_33 1_555 1_555
N45_33 C97_33 1_555 1_555
C52_33 C57_33 1_555 1_555
C52_33 C92_33 1_555 1_555
C77_33 C82_33 1_555 1_555
C102_33 C107_33 1_555 1_555
C117_33 C122_33 1_555 1_555
S3_33 C27_33 1_555 1_555
N11_33 Co7_23 1_555 1_555
N22_33 Co7_23 1_555 1_555
N36_33 C88_33 1_555 1_555
N41_33 C88_33 1_555 1_555
N46_33 C93_33 1_555 1_555
C27_33 N11_33 1_555 1_555
C38_33 N22_33 1_555 1_555
H18_33 C38_33 1_555 1_555
C43_33 C38_33 1_555 1_555
H23_33 C43_33 1_555 1_555
C48_33 C43_33 1_555 1_555
H28_33 C48_33 1_555 1_555
C53_33 C48_33 1_555 1_555
C58_33 N22_33 1_555 1_555
H33_33 C58_33 1_555 1_555
C63_33 N33_3 1_555 1_555
H38_33 C63_33 1_555 1_555
C68_33 C63_33 1_555 1_555
H43_33 C68_33 1_555 1_555
C73_33 C68_33 1_555 1_555
H48_33 C73_33 1_555 1_555
C78_33 C73_33 1_555 1_555
C83_33 N33_3 1_555 1_555
H53_33 C83_33 1_555 1_555
C88_33 C78_33 1_555 1_555
C93_33 N36_33 1_555 1_555
C98_33 N41_33 1_555 1_555
C103_33 N55_21 1_555 1_555
H58_33 C103_33 1_555 1_555
C108_33 C98_33 1_555 1_555
C113_33 C108_33 1_555 1_555
H63_33 C113_33 1_555 1_555
C118_33 C113_33 1_555 1_555
H68_33 C118_33 1_555 1_555
C123_33 N55_21 1_555 1_555
H73_33 C123_33 1_555 1_555
N46_33 C98_33 1_555 1_555
C53_33 C58_33 1_555 1_555
C53_33 C93_33 1_555 1_555
C78_33 C83_33 1_555 1_555
C103_33 C108_33 1_555 1_555
C118_33 C123_33 1_555 1_555
Co8_4 N32_20 1_555 1_555
Co15_4 N54_20 1_555 1_555
N32_20 C66_20 1_555 1_555
N39_20 C91_20 1_555 1_555
N44_20 C91_20 1_555 1_555
N49_20 C96_20 1_555 1_555
N54_20 C106_20 1_555 1_555
C41_20 N27_3 1_555 1_555
H21_20 C41_20 1_555 1_555
C46_20 C41_20 1_555 1_555
H26_20 C46_20 1_555 1_555
C51_20 C46_20 1_555 1_555
H31_20 C51_20 1_555 1_555
C56_20 C51_20 1_555 1_555
C61_20 N27_3 1_555 1_555
H36_20 C61_20 1_555 1_555
C66_20 H41_20 1_555 1_555
C71_20 C66_20 1_555 1_555
H46_20 C71_20 1_555 1_555
C76_20 C71_20 1_555 1_555
H51_20 C76_20 1_555 1_555
C81_20 C76_20 1_555 1_555
C86_20 N32_20 1_555 1_555
H56_20 C86_20 1_555 1_555
C91_20 C81_20 1_555 1_555
C96_20 N39_20 1_555 1_555
C101_20 N44_20 1_555 1_555
C106_20 H61_20 1_555 1_555
C111_20 C101_20 1_555 1_555
C116_20 C111_20 1_555 1_555
H66_20 C116_20 1_555 1_555
C121_20 C116_20 1_555 1_555
H71_20 C121_20 1_555 1_555
C126_20 N54_20 1_555 1_555
H76_20 C126_20 1_555 1_555
N49_20 C101_20 1_555 1_555
C56_20 C61_20 1_555 1_555
C56_20 C96_20 1_555 1_555
C81_20 C86_20 1_555 1_555
C106_20 C111_20 1_555 1_555
C121_20 C126_20 1_555 1_555
Co13_2 N2_35 1_555 1_555
S2_35 C2_35 1_555 1_555
N2_35 C2_35 1_555 1_555
N9_15 Co13_2 1_555 1_555
N10_15 C26_15 1_555 1_555
C21_15 N9_15 1_555 1_555
H13_15 C21_15 1_555 1_555
C22_15 C21_15 1_555 1_555
H14_15 C22_15 1_555 1_555
C23_15 C22_15 1_555 1_555
H15_15 C23_15 1_555 1_555
C24_15 C23_15 1_555 1_555
C25_15 N9_15 1_555 1_555
H16_15 C25_15 1_555 1_555
C26_15 C24_15 1_555 1_555
Co15_9 N58_15 1_555 1_555
S8_35 C32_35 1_555 1_555
N16_35 Co13_2 1_555 1_555
N57_15 C127_15 1_555 1_555
N58_15 C128_15 1_555 1_555
N66_15 C152_15 1_555 1_555
N67_15 C26_15 1_555 1_555
C32_35 N16_35 1_555 1_555
C127_15 H77_15 1_555 1_555
C128_15 H78_15 1_555 1_555
C132_15 C127_15 1_555 1_555
C133_15 C128_15 1_555 1_555
H82_15 C132_15 1_555 1_555
H83_15 C133_15 1_555 1_555
C137_15 C132_15 1_555 1_555
C138_15 C133_15 1_555 1_555
H87_15 C137_15 1_555 1_555
H88_15 C138_15 1_555 1_555
C142_15 C137_15 1_555 1_555
C143_15 C138_15 1_555 1_555
C147_15 N57_15 1_555 1_555
C148_15 N58_15 1_555 1_555
H92_15 C147_15 1_555 1_555
H93_15 C148_15 1_555 1_555
C152_15 N10_15 1_555 1_555
C153_15 N66_15 1_555 1_555
C24_15 C25_15 1_555 1_555
N67_15 C153_15 1_555 1_555
C142_15 C147_15 1_555 1_555
C142_15 C153_15 1_555 1_555
C143_15 C148_15 1_555 1_555
C143_15 C152_15 1_555 1_555
Co7_14 N1_34 1_555 1_555
S1_34 C1_34 1_555 1_555
N1_34 C1_34 1_555 1_555
Co6_4 N12_24 1_555 1_555
S3_34 C27_34 1_555 1_555
S4_24 C28_24 1_555 1_555
S5_24 C29_24 1_555 1_555
N11_34 Co7_14 1_555 1_555
N12_24 C28_24 1_555 1_555
N13_24 Co6_4 1_555 1_555
N21_34 Co7_14 1_555 1_555
N22_34 Co7_14 1_555 1_555
N28_24 Co6_4 1_555 1_555
N33_24 Co6_4 1_555 1_555
N35_34 C87_34 1_555 1_555
N36_34 C88_34 1_555 1_555
N40_34 C87_34 1_555 1_555
N41_34 C88_34 1_555 1_555
N45_34 C92_34 1_555 1_555
N46_34 C93_34 1_555 1_555
C27_34 N11_34 1_555 1_555
C29_24 N13_24 1_555 1_555
C37_34 N21_34 1_555 1_555
C38_34 N22_34 1_555 1_555
H17_34 C37_34 1_555 1_555
H18_34 C38_34 1_555 1_555
C42_34 C37_34 1_555 1_555
C43_34 C38_34 1_555 1_555
H22_34 C42_34 1_555 1_555
H23_34 C43_34 1_555 1_555
C47_34 C42_34 1_555 1_555
C48_34 C43_34 1_555 1_555
H27_34 C47_34 1_555 1_555
H28_34 C48_34 1_555 1_555
C52_34 C47_34 1_555 1_555
C53_34 C48_34 1_555 1_555
C57_34 N21_34 1_555 1_555
C58_34 N22_34 1_555 1_555
H32_34 C57_34 1_555 1_555
H33_34 C58_34 1_555 1_555
C62_34 N28_24 1_555 1_555
C63_34 N34_22 1_555 1_555
H37_34 C62_34 1_555 1_555
H38_34 C63_34 1_555 1_555
C67_34 C62_34 1_555 1_555
C68_34 C63_34 1_555 1_555
H42_34 C67_34 1_555 1_555
H43_34 C68_34 1_555 1_555
C72_34 C67_34 1_555 1_555
C73_34 C68_34 1_555 1_555
H47_34 C72_34 1_555 1_555
H48_34 C73_34 1_555 1_555
C77_34 C72_34 1_555 1_555
C78_34 C73_34 1_555 1_555
C82_34 N28_24 1_555 1_555
C83_34 N34_22 1_555 1_555
H52_34 C82_34 1_555 1_555
H53_34 C83_34 1_555 1_555
C87_34 C77_34 1_555 1_555
C88_34 C78_34 1_555 1_555
C92_34 N35_34 1_555 1_555
C93_34 N36_34 1_555 1_555
C97_34 N40_34 1_555 1_555
C98_34 N41_34 1_555 1_555
C102_34 N56_4 1_555 1_555
C103_34 N55_16 1_555 1_555
H57_34 C102_34 1_555 1_555
H58_34 C103_34 1_555 1_555
C107_34 C97_34 1_555 1_555
C108_34 C98_34 1_555 1_555
C112_34 C107_34 1_555 1_555
C113_34 C108_34 1_555 1_555
H62_34 C112_34 1_555 1_555
H63_34 C113_34 1_555 1_555
C117_34 C112_34 1_555 1_555
C118_34 C113_34 1_555 1_555
H67_34 C117_34 1_555 1_555
H68_34 C118_34 1_555 1_555
C122_34 N56_4 1_555 1_555
C123_34 N55_16 1_555 1_555
H72_34 C122_34 1_555 1_555
H73_34 C123_34 1_555 1_555
N45_34 C97_34 1_555 1_555
N46_34 C98_34 1_555 1_555
C52_34 C57_34 1_555 1_555
C52_34 C92_34 1_555 1_555
C53_34 C58_34 1_555 1_555
C53_34 C93_34 1_555 1_555
C77_34 C82_34 1_555 1_555
C78_34 C83_34 1_555 1_555
C102_34 C107_34 1_555 1_555
C103_34 C108_34 1_555 1_555
C117_34 C122_34 1_555 1_555
C118_34 C123_34 1_555 1_555
Co8_13 N1_35 1_555 1_555
S1_35 C1_35 1_555 1_555
N1_35 C1_35 1_555 1_555
Co5_14 N12_25 1_555 1_555
Co10_19 N19_19 1_555 1_555
S3_35 C27_35 1_555 1_555
S4_25 C28_25 1_555 1_555
N11_35 Co8_13 1_555 1_555
N12_25 C28_25 1_555 1_555
N20_19 Co10_19 1_555 1_555
N21_35 Co8_13 1_555 1_555
N22_35 Co8_13 1_555 1_555
N28_25 Co5_14 1_555 1_555
N35_35 C87_35 1_555 1_555
N36_35 C88_35 1_555 1_555
N40_35 C87_35 1_555 1_555
N41_35 C88_35 1_555 1_555
N45_35 C92_35 1_555 1_555
N46_35 C93_35 1_555 1_555
N51_19 Co10_19 1_555 1_555
N56_19 Co10_19 1_555 1_555
C27_35 N11_35 1_555 1_555
C37_35 N21_35 1_555 1_555
C38_35 N22_35 1_555 1_555
H17_35 C37_35 1_555 1_555
H18_35 C38_35 1_555 1_555
C42_35 C37_35 1_555 1_555
C43_35 C38_35 1_555 1_555
H22_35 C42_35 1_555 1_555
H23_35 C43_35 1_555 1_555
C47_35 C42_35 1_555 1_555
C48_35 C43_35 1_555 1_555
H27_35 C47_35 1_555 1_555
H28_35 C48_35 1_555 1_555
C52_35 C47_35 1_555 1_555
C53_35 C48_35 1_555 1_555
C57_35 N21_35 1_555 1_555
C58_35 N22_35 1_555 1_555
H32_35 C57_35 1_555 1_555
H33_35 C58_35 1_555 1_555
C62_35 N28_25 1_555 1_555
C63_35 N34_21 1_555 1_555
H37_35 C62_35 1_555 1_555
H38_35 C63_35 1_555 1_555
C67_35 C62_35 1_555 1_555
C68_35 C63_35 1_555 1_555
H42_35 C67_35 1_555 1_555
H43_35 C68_35 1_555 1_555
C72_35 C67_35 1_555 1_555
C73_35 C68_35 1_555 1_555
H47_35 C72_35 1_555 1_555
H48_35 C73_35 1_555 1_555
C77_35 C72_35 1_555 1_555
C78_35 C73_35 1_555 1_555
C82_35 N28_25 1_555 1_555
C83_35 N34_21 1_555 1_555
H52_35 C82_35 1_555 1_555
H53_35 C83_35 1_555 1_555
C87_35 C77_35 1_555 1_555
C88_35 C78_35 1_555 1_555
C92_35 N35_35 1_555 1_555
C93_35 N36_35 1_555 1_555
C97_35 N40_35 1_555 1_555
C98_35 N41_35 1_555 1_555
C102_35 N55_22 1_555 1_555
C103_35 N51_19 1_555 1_555
H57_35 C102_35 1_555 1_555
H58_35 C103_35 1_555 1_555
C107_35 C97_35 1_555 1_555
C108_35 C98_35 1_555 1_555
C112_35 C107_35 1_555 1_555
C113_35 C108_35 1_555 1_555
H62_35 C112_35 1_555 1_555
H63_35 C113_35 1_555 1_555
C117_35 C112_35 1_555 1_555
C118_35 C113_35 1_555 1_555
H67_35 C117_35 1_555 1_555
H68_35 C118_35 1_555 1_555
C122_35 N55_22 1_555 1_555
C123_35 N51_19 1_555 1_555
H72_35 C122_35 1_555 1_555
H73_35 C123_35 1_555 1_555
N45_35 C97_35 1_555 1_555
N46_35 C98_35 1_555 1_555
C52_35 C57_35 1_555 1_555
C52_35 C92_35 1_555 1_555
C53_35 C58_35 1_555 1_555
C53_35 C93_35 1_555 1_555
C77_35 C82_35 1_555 1_555
C78_35 C83_35 1_555 1_555
C102_35 C107_35 1_555 1_555
C103_35 C108_35 1_555 1_555
C117_35 C122_35 1_555 1_555
C118_35 C123_35 1_555 1_555
Co7_10 N32_21 1_555 1_555
Co12 N54_21 1_555 1_555
S5_25 C29_25 1_555 1_555
S11_19 C35_19 1_555 1_555
S12_19 C36_19 1_555 1_555
N13_25 Co5_15 1_555 1_555
N25_18 Co5_15 1_555 1_555
N32_21 C66_21 1_555 1_555
N33_25 Co5_15 1_555 1_555
N39_21 C91_21 1_555 1_555
N44_21 C91_21 1_555 1_555
N49_21 C96_21 1_555 1_555
N54_21 C106_21 1_555 1_555
C29_25 N13_25 1_555 1_555
C41_21 N25_18 1_555 1_555
H21_21 C41_21 1_555 1_555
C46_21 C41_21 1_555 1_555
H26_21 C46_21 1_555 1_555
C51_21 C46_21 1_555 1_555
H31_21 C51_21 1_555 1_555
C56_21 C51_21 1_555 1_555
C61_21 N25_18 1_555 1_555
H36_21 C61_21 1_555 1_555
C66_21 H41_21 1_555 1_555
C71_21 C66_21 1_555 1_555
H46_21 C71_21 1_555 1_555
C76_21 C71_21 1_555 1_555
H51_21 C76_21 1_555 1_555
C81_21 C76_21 1_555 1_555
C86_21 N32_21 1_555 1_555
H56_21 C86_21 1_555 1_555
C91_21 C81_21 1_555 1_555
C96_21 N39_21 1_555 1_555
C101_21 N44_21 1_555 1_555
C106_21 H61_21 1_555 1_555
C111_21 C101_21 1_555 1_555
C116_21 C111_21 1_555 1_555
H66_21 C116_21 1_555 1_555
C121_21 C116_21 1_555 1_555
H71_21 C121_21 1_555 1_555
C126_21 N54_21 1_555 1_555
H76_21 C126_21 1_555 1_555
N49_21 C101_21 1_555 1_555
C56_21 C61_21 1_555 1_555
C56_21 C96_21 1_555 1_555
C81_21 C86_21 1_555 1_555
C106_21 C111_21 1_555 1_555
C121_21 C126_21 1_555 1_555
Co14_5 N2_36 1_555 1_555
S2_36 C2_36 1_555 1_555
N2_36 C2_36 1_555 1_555
Co7_9 N31_26 1_555 1_555
S8_36 C32_36 1_555 1_555
N16_36 Co14_5 1_555 1_555
N31_26 C65_26 1_555 1_555
N38_26 C90_26 1_555 1_555
N43_26 C90_26 1_555 1_555
N48_26 C95_26 1_555 1_555
N53_26 Co14_5 1_555 1_555
C32_36 N16_36 1_555 1_555
C40_26 N27_18 1_555 1_555
H20_26 C40_26 1_555 1_555
C45_26 C40_26 1_555 1_555
H25_26 C45_26 1_555 1_555
C50_26 C45_26 1_555 1_555
H30_26 C50_26 1_555 1_555
C55_26 C50_26 1_555 1_555
C60_26 N27_18 1_555 1_555
H35_26 C60_26 1_555 1_555
C65_26 H40_26 1_555 1_555
C70_26 C65_26 1_555 1_555
H45_26 C70_26 1_555 1_555
C75_26 C70_26 1_555 1_555
H50_26 C75_26 1_555 1_555
C80_26 C75_26 1_555 1_555
C85_26 N31_26 1_555 1_555
H55_26 C85_26 1_555 1_555
C90_26 C80_26 1_555 1_555
C95_26 N38_26 1_555 1_555
C100_26 N43_26 1_555 1_555
C105_26 N53_26 1_555 1_555
H60_26 C105_26 1_555 1_555
C110_26 C100_26 1_555 1_555
C115_26 C110_26 1_555 1_555
H65_26 C115_26 1_555 1_555
C120_26 C115_26 1_555 1_555
H70_26 C120_26 1_555 1_555
C125_26 N53_26 1_555 1_555
H75_26 C125_26 1_555 1_555
N48_26 C100_26 1_555 1_555
C55_26 C60_26 1_555 1_555
C55_26 C95_26 1_555 1_555
C80_26 C85_26 1_555 1_555
C105_26 C110_26 1_555 1_555
C120_26 C125_26 1_555 1_555
Co7 N1_36 1_555 1_555
Co14_2 N2_37 1_555 1_555
S1_36 C1_36 1_555 1_555
S2_37 C2_37 1_555 1_555
N1_36 C1_36 1_555 1_555
N2_37 C2_37 1_555 1_555
N3_17 C3_21 1_555 1_555
N4_21 Co7 1_555 1_555
N5_21 C13_21 1_555 1_555
N6_21 C13_21 1_555 1_555
N7_21 C14_21 1_555 1_555
N8_21 Co14_2 1_555 1_555
C3_21 H1_21 1_555 1_555
C4_21 C3_21 1_555 1_555
H2_21 C4_21 1_555 1_555
C5_21 C4_21 1_555 1_555
H3_21 C5_21 1_555 1_555
C6_21 C5_21 1_555 1_555
C7_21 N3_17 1_555 1_555
H4_21 C7_21 1_555 1_555
C8_21 N4_21 1_555 1_555
H5_21 C8_21 1_555 1_555
C9_21 C8_21 1_555 1_555
H6_21 C9_21 1_555 1_555
C10_21 C9_21 1_555 1_555
H7_21 C10_21 1_555 1_555
C11_21 C10_21 1_555 1_555
C12_21 N4_21 1_555 1_555
H8_21 C12_21 1_555 1_555
C13_21 C11_21 1_555 1_555
C14_21 N5_21 1_555 1_555
C15_21 N6_21 1_555 1_555
C16_21 N8_21 1_555 1_555
H9_21 C16_21 1_555 1_555
C17_21 C15_21 1_555 1_555
C18_21 C17_21 1_555 1_555
H10_21 C18_21 1_555 1_555
C19_21 C18_21 1_555 1_555
H11_21 C19_21 1_555 1_555
C20_21 N8_21 1_555 1_555
H12_21 C20_21 1_555 1_555
Co6_2 N3_17 1_555 1_555
Co7_13 N31_27 1_555 1_555
Co9_27 N17_27 1_555 1_555
S3_36 C27_36 1_555 1_555
S8_37 C32_37 1_555 1_555
S9_27 C33_27 1_555 1_555
S10_27 C34_27 1_555 1_555
N11_36 Co7 1_555 1_555
N16_37 Co14_2 1_555 1_555
N17_27 C33_27 1_555 1_555
N18_27 Co9_27 1_555 1_555
N21_36 Co7 1_555 1_555
N22_36 Co7 1_555 1_555
N31_27 C65_27 1_555 1_555
N35_36 C87_36 1_555 1_555
N36_36 C88_36 1_555 1_555
N38_27 C90_27 1_555 1_555
N40_36 C87_36 1_555 1_555
N41_36 C88_36 1_555 1_555
N43_27 C90_27 1_555 1_555
N45_36 C92_36 1_555 1_555
N46_36 C93_36 1_555 1_555
N48_27 C95_27 1_555 1_555
N50_27 Co9_27 1_555 1_555
N53_27 Co14_2 1_555 1_555
N55_27 Co9_27 1_555 1_555
N62_27 Co9_27 1_555 1_555
N63_27 Co9_27 1_555 1_555
C27_36 N11_36 1_555 1_555
C32_37 N16_37 1_555 1_555
C34_27 N18_27 1_555 1_555
C37_36 N21_36 1_555 1_555
C38_36 N22_36 1_555 1_555
C40_27 N27_11 1_555 1_555
H17_36 C37_36 1_555 1_555
H18_36 C38_36 1_555 1_555
H20_27 C40_27 1_555 1_555
C42_36 C37_36 1_555 1_555
C43_36 C38_36 1_555 1_555
C45_27 C40_27 1_555 1_555
H22_36 C42_36 1_555 1_555
H23_36 C43_36 1_555 1_555
H25_27 C45_27 1_555 1_555
C47_36 C42_36 1_555 1_555
C48_36 C43_36 1_555 1_555
C50_27 C45_27 1_555 1_555
H27_36 C47_36 1_555 1_555
H28_36 C48_36 1_555 1_555
H30_27 C50_27 1_555 1_555
C52_36 C47_36 1_555 1_555
C53_36 C48_36 1_555 1_555
C55_27 C50_27 1_555 1_555
C57_36 N21_36 1_555 1_555
C58_36 N22_36 1_555 1_555
C60_27 N27_11 1_555 1_555
H32_36 C57_36 1_555 1_555
H33_36 C58_36 1_555 1_555
H35_27 C60_27 1_555 1_555
C62_36 N34_11 1_555 1_555
C63_36 N33_7 1_555 1_555
C65_27 H40_27 1_555 1_555
H37_36 C62_36 1_555 1_555
H38_36 C63_36 1_555 1_555
C67_36 C62_36 1_555 1_555
C68_36 C63_36 1_555 1_555
C70_27 C65_27 1_555 1_555
H42_36 C67_36 1_555 1_555
H43_36 C68_36 1_555 1_555
H45_27 C70_27 1_555 1_555
C72_36 C67_36 1_555 1_555
C73_36 C68_36 1_555 1_555
C75_27 C70_27 1_555 1_555
H47_36 C72_36 1_555 1_555
H48_36 C73_36 1_555 1_555
H50_27 C75_27 1_555 1_555
C77_36 C72_36 1_555 1_555
C78_36 C73_36 1_555 1_555
C80_27 C75_27 1_555 1_555
C82_36 N34_11 1_555 1_555
C83_36 N33_7 1_555 1_555
C85_27 N31_27 1_555 1_555
H52_36 C82_36 1_555 1_555
H53_36 C83_36 1_555 1_555
H55_27 C85_27 1_555 1_555
C87_36 C77_36 1_555 1_555
C88_36 C78_36 1_555 1_555
C90_27 C80_27 1_555 1_555
C92_36 N35_36 1_555 1_555
C93_36 N36_36 1_555 1_555
C95_27 N38_27 1_555 1_555
C97_36 N40_36 1_555 1_555
C98_36 N41_36 1_555 1_555
C100_27 N43_27 1_555 1_555
C102_36 N50_27 1_555 1_555
C103_36 N55 1_555 1_555
C105_27 N53_27 1_555 1_555
H57_36 C102_36 1_555 1_555
H58_36 C103_36 1_555 1_555
H60_27 C105_27 1_555 1_555
C107_36 C97_36 1_555 1_555
C108_36 C98_36 1_555 1_555
C110_27 C100_27 1_555 1_555
C112_36 C107_36 1_555 1_555
C113_36 C108_36 1_555 1_555
C115_27 C110_27 1_555 1_555
H62_36 C112_36 1_555 1_555
H63_36 C113_36 1_555 1_555
H65_27 C115_27 1_555 1_555
C117_36 C112_36 1_555 1_555
C118_36 C113_36 1_555 1_555
C120_27 C115_27 1_555 1_555
H67_36 C117_36 1_555 1_555
H68_36 C118_36 1_555 1_555
H70_27 C120_27 1_555 1_555
C122_36 N50_27 1_555 1_555
C123_36 N55 1_555 1_555
C125_27 N53_27 1_555 1_555
H72_36 C122_36 1_555 1_555
H73_36 C123_36 1_555 1_555
H75_27 C125_27 1_555 1_555
N7_21 C15_21 1_555 1_555
C6_21 C7_21 1_555 1_555
C6_21 C14_21 1_555 1_555
C11_21 C12_21 1_555 1_555
C16_21 C17_21 1_555 1_555
C19_21 C20_21 1_555 1_555
N45_36 C97_36 1_555 1_555
N46_36 C98_36 1_555 1_555
N48_27 C100_27 1_555 1_555
C52_36 C57_36 1_555 1_555
C52_36 C92_36 1_555 1_555
C53_36 C58_36 1_555 1_555
C53_36 C93_36 1_555 1_555
C55_27 C60_27 1_555 1_555
C55_27 C95_27 1_555 1_555
C77_36 C82_36 1_555 1_555
C78_36 C83_36 1_555 1_555
C80_27 C85_27 1_555 1_555
C102_36 C107_36 1_555 1_555
C103_36 C108_36 1_555 1_555
C105_27 C110_27 1_555 1_555
C117_36 C122_36 1_555 1_555
C118_36 C123_36 1_555 1_555
C120_27 C125_27 1_555 1_555
Co15_3 N2_38 1_555 1_555
S2_38 C2_38 1_555 1_555
N2_38 C2_38 1_555 1_555
S8_38 C32_38 1_555 1_555
N16_38 Co15_3 1_555 1_555
C32_38 N16_38 1_555 1_555
Co7_10 N1_37 1_555 1_555
Co12 N2_39 1_555 1_555
S1_37 C1_37 1_555 1_555
S2_39 C2_39 1_555 1_555
N1_37 C1_37 1_555 1_555
N2_39 C2_39 1_555 1_555
Co9_28 N17_28 1_555 1_555
S3_37 C27_37 1_555 1_555
S8_39 C32_39 1_555 1_555
S9_28 C33_28 1_555 1_555
S10_28 C34_28 1_555 1_555
N11_37 Co7_10 1_555 1_555
N16_39 Co12 1_555 1_555
N17_28 C33_28 1_555 1_555
N18_28 Co9_28 1_555 1_555
N21_37 Co7_10 1_555 1_555
N22_37 Co7_10 1_555 1_555
N35_37 C87_37 1_555 1_555
N36_37 C88_37 1_555 1_555
N40_37 C87_37 1_555 1_555
N41_37 C88_37 1_555 1_555
N45_37 C92_37 1_555 1_555
N46_37 C93_37 1_555 1_555
N50_28 Co9_28 1_555 1_555
N55_28 Co9_28 1_555 1_555
N62_28 Co9_28 1_555 1_555
N63_28 Co9_28 1_555 1_555
C27_37 N11_37 1_555 1_555
C32_39 N16_39 1_555 1_555
C34_28 N18_28 1_555 1_555
C37_37 N21_37 1_555 1_555
C38_37 N22_37 1_555 1_555
H17_37 C37_37 1_555 1_555
H18_37 C38_37 1_555 1_555
C42_37 C37_37 1_555 1_555
C43_37 C38_37 1_555 1_555
H22_37 C42_37 1_555 1_555
H23_37 C43_37 1_555 1_555
C47_37 C42_37 1_555 1_555
C48_37 C43_37 1_555 1_555
H27_37 C47_37 1_555 1_555
H28_37 C48_37 1_555 1_555
C52_37 C47_37 1_555 1_555
C53_37 C48_37 1_555 1_555
C57_37 N21_37 1_555 1_555
C58_37 N22_37 1_555 1_555
H32_37 C57_37 1_555 1_555
H33_37 C58_37 1_555 1_555
C62_37 N33_22 1_555 1_555
C63_37 N34_15 1_555 1_555
H37_37 C62_37 1_555 1_555
H38_37 C63_37 1_555 1_555
C67_37 C62_37 1_555 1_555
C68_37 C63_37 1_555 1_555
H42_37 C67_37 1_555 1_555
H43_37 C68_37 1_555 1_555
C72_37 C67_37 1_555 1_555
C73_37 C68_37 1_555 1_555
H47_37 C72_37 1_555 1_555
H48_37 C73_37 1_555 1_555
C77_37 C72_37 1_555 1_555
C78_37 C73_37 1_555 1_555
C82_37 N33_22 1_555 1_555
C83_37 N34_15 1_555 1_555
H52_37 C82_37 1_555 1_555
H53_37 C83_37 1_555 1_555
C87_37 C77_37 1_555 1_555
C88_37 C78_37 1_555 1_555
C92_37 N35_37 1_555 1_555
C93_37 N36_37 1_555 1_555
C97_37 N40_37 1_555 1_555
C98_37 N41_37 1_555 1_555
C102_37 N50_28 1_555 1_555
C103_37 N55_7 1_555 1_555
H57_37 C102_37 1_555 1_555
H58_37 C103_37 1_555 1_555
C107_37 C97_37 1_555 1_555
C108_37 C98_37 1_555 1_555
C112_37 C107_37 1_555 1_555
C113_37 C108_37 1_555 1_555
H62_37 C112_37 1_555 1_555
H63_37 C113_37 1_555 1_555
C117_37 C112_37 1_555 1_555
C118_37 C113_37 1_555 1_555
H67_37 C117_37 1_555 1_555
H68_37 C118_37 1_555 1_555
C122_37 N50_28 1_555 1_555
C123_37 N55_7 1_555 1_555
H72_37 C122_37 1_555 1_555
H73_37 C123_37 1_555 1_555
N45_37 C97_37 1_555 1_555
N46_37 C98_37 1_555 1_555
C52_37 C57_37 1_555 1_555
C52_37 C92_37 1_555 1_555
C53_37 C58_37 1_555 1_555
C53_37 C93_37 1_555 1_555
C77_37 C82_37 1_555 1_555
C78_37 C83_37 1_555 1_555
C102_37 C107_37 1_555 1_555
C103_37 C108_37 1_555 1_555
C117_37 C122_37 1_555 1_555
C118_37 C123_37 1_555 1_555
Co8_11 N1_38 1_555 1_555
Co15_2 N2_40 1_555 1_555
S1_38 C1_38 1_555 1_555
S2_40 C2_40 1_555 1_555
N1_38 C1_38 1_555 1_555
N2_40 C2_40 1_555 1_555
S8_40 C32_40 1_555 1_555
N16_40 Co15_2 1_555 1_555
N21_38 Co8_11 1_555 1_555
N35_38 C87_38 1_555 1_555
N40_38 C87_38 1_555 1_555
N45_38 C92_38 1_555 1_555
C32_40 N16_40 1_555 1_555
C37_38 N21_38 1_555 1_555
H17_38 C37_38 1_555 1_555
C42_38 C37_38 1_555 1_555
H22_38 C42_38 1_555 1_555
C47_38 C42_38 1_555 1_555
H27_38 C47_38 1_555 1_555
C52_38 C47_38 1_555 1_555
C57_38 N21_38 1_555 1_555
H32_38 C57_38 1_555 1_555
C62_38 N34_4 1_555 1_555
H37_38 C62_38 1_555 1_555
C67_38 C62_38 1_555 1_555
H42_38 C67_38 1_555 1_555
C72_38 C67_38 1_555 1_555
H47_38 C72_38 1_555 1_555
C77_38 C72_38 1_555 1_555
C82_38 N34_4 1_555 1_555
H52_38 C82_38 1_555 1_555
C87_38 C77_38 1_555 1_555
C92_38 N35_38 1_555 1_555
C97_38 N40_38 1_555 1_555
C102_38 N56_6 1_555 1_555
H57_38 C102_38 1_555 1_555
C107_38 C97_38 1_555 1_555
C112_38 C107_38 1_555 1_555
H62_38 C112_38 1_555 1_555
C117_38 C112_38 1_555 1_555
H67_38 C117_38 1_555 1_555
C122_38 N56_6 1_555 1_555
H72_38 C122_38 1_555 1_555
N45_38 C97_38 1_555 1_555
C52_38 C57_38 1_555 1_555
C52_38 C92_38 1_555 1_555
C77_38 C82_38 1_555 1_555
C102_38 C107_38 1_555 1_555
C117_38 C122_38 1_555 1_555
S3_38 C27_38 1_555 1_555
N11_38 Co8_12 1_555 1_555
N22_38 Co8_12 1_555 1_555
N36_38 C88_38 1_555 1_555
N41_38 C88_38 1_555 1_555
N46_38 C93_38 1_555 1_555
C27_38 N11_38 1_555 1_555
C38_38 N22_38 1_555 1_555
H18_38 C38_38 1_555 1_555
C43_38 C38_38 1_555 1_555
H23_38 C43_38 1_555 1_555
C48_38 C43_38 1_555 1_555
H28_38 C48_38 1_555 1_555
C53_38 C48_38 1_555 1_555
C58_38 N22_38 1_555 1_555
H33_38 C58_38 1_555 1_555
C63_38 N34_8 1_555 1_555
H38_38 C63_38 1_555 1_555
C68_38 C63_38 1_555 1_555
H43_38 C68_38 1_555 1_555
C73_38 C68_38 1_555 1_555
H48_38 C73_38 1_555 1_555
C78_38 C73_38 1_555 1_555
C83_38 N34_8 1_555 1_555
H53_38 C83_38 1_555 1_555
C88_38 C78_38 1_555 1_555
C93_38 N36_38 1_555 1_555
C98_38 N41_38 1_555 1_555
C103_38 N55_23 1_555 1_555
H58_38 C103_38 1_555 1_555
C108_38 C98_38 1_555 1_555
C113_38 C108_38 1_555 1_555
H63_38 C113_38 1_555 1_555
C118_38 C113_38 1_555 1_555
H68_38 C118_38 1_555 1_555
C123_38 N55_23 1_555 1_555
H73_38 C123_38 1_555 1_555
N46_38 C98_38 1_555 1_555
C53_38 C58_38 1_555 1_555
C53_38 C93_38 1_555 1_555
C78_38 C83_38 1_555 1_555
C103_38 C108_38 1_555 1_555
C118_38 C123_38 1_555 1_555
Co13_5 N2_41 1_555 1_555
S2_41 C2_41 1_555 1_555
N2_41 C2_41 1_555 1_555
S8_41 C32_41 1_555 1_555
N16_41 Co13_5 1_555 1_555
C32_41 N16_41 1_555 1_555
S2_42 C2_42 1_555 1_555
S8_42 C32_42 1_555 1_555
Co8_4 N1_39 1_555 1_555
Co15_4 N2_42 1_555 1_555
S1_39 C1_39 1_555 1_555
N1_39 C1_39 1_555 1_555
Co9_29 N17_29 1_555 1_555
S3_39 C27_39 1_555 1_555
S9_29 C33_29 1_555 1_555
S10_29 C34_29 1_555 1_555
N11_39 Co8_4 1_555 1_555
N16_42 Co15_4 1_555 1_555
N17_29 C33_29 1_555 1_555
N18_29 Co9_29 1_555 1_555
N21_39 Co8_4 1_555 1_555
N22_39 Co8_4 1_555 1_555
N35_39 C87_39 1_555 1_555
N36_39 C88_39 1_555 1_555
N40_39 C87_39 1_555 1_555
N41_39 C88_39 1_555 1_555
N45_39 C92_39 1_555 1_555
N46_39 C93_39 1_555 1_555
N50_29 Co9_29 1_555 1_555
N55_29 Co9_29 1_555 1_555
N62_29 Co9_29 1_555 1_555
N63_29 Co9_29 1_555 1_555
C27_39 N11_39 1_555 1_555
C34_29 N18_29 1_555 1_555
C37_39 N21_39 1_555 1_555
C38_39 N22_39 1_555 1_555
H17_39 C37_39 1_555 1_555
H18_39 C38_39 1_555 1_555
C42_39 C37_39 1_555 1_555
C43_39 C38_39 1_555 1_555
H22_39 C42_39 1_555 1_555
H23_39 C43_39 1_555 1_555
C47_39 C42_39 1_555 1_555
C48_39 C43_39 1_555 1_555
H27_39 C47_39 1_555 1_555
H28_39 C48_39 1_555 1_555
C52_39 C47_39 1_555 1_555
C53_39 C48_39 1_555 1_555
C57_39 N21_39 1_555 1_555
C58_39 N22_39 1_555 1_555
H32_39 C57_39 1_555 1_555
H33_39 C58_39 1_555 1_555
C62_39 N33_21 1_555 1_555
C63_39 N33_5 1_555 1_555
H37_39 C62_39 1_555 1_555
H38_39 C63_39 1_555 1_555
C67_39 C62_39 1_555 1_555
C68_39 C63_39 1_555 1_555
H42_39 C67_39 1_555 1_555
H43_39 C68_39 1_555 1_555
C72_39 C67_39 1_555 1_555
C73_39 C68_39 1_555 1_555
H47_39 C72_39 1_555 1_555
H48_39 C73_39 1_555 1_555
C77_39 C72_39 1_555 1_555
C78_39 C73_39 1_555 1_555
C82_39 N33_21 1_555 1_555
C83_39 N33_5 1_555 1_555
H52_39 C82_39 1_555 1_555
H53_39 C83_39 1_555 1_555
C87_39 C77_39 1_555 1_555
C88_39 C78_39 1_555 1_555
C92_39 N35_39 1_555 1_555
C93_39 N36_39 1_555 1_555
C97_39 N40_39 1_555 1_555
C98_39 N41_39 1_555 1_555
C102_39 N50_29 1_555 1_555
C103_39 N55_8 1_555 1_555
H57_39 C102_39 1_555 1_555
H58_39 C103_39 1_555 1_555
C107_39 C97_39 1_555 1_555
C108_39 C98_39 1_555 1_555
C112_39 C107_39 1_555 1_555
C113_39 C108_39 1_555 1_555
H62_39 C112_39 1_555 1_555
H63_39 C113_39 1_555 1_555
C117_39 C112_39 1_555 1_555
C118_39 C113_39 1_555 1_555
H67_39 C117_39 1_555 1_555
H68_39 C118_39 1_555 1_555
C122_39 N50_29 1_555 1_555
C123_39 N55_8 1_555 1_555
H72_39 C122_39 1_555 1_555
H73_39 C123_39 1_555 1_555
N45_39 C97_39 1_555 1_555
N46_39 C98_39 1_555 1_555
C52_39 C57_39 1_555 1_555
C52_39 C92_39 1_555 1_555
C53_39 C58_39 1_555 1_555
C53_39 C93_39 1_555 1_555
C77_39 C82_39 1_555 1_555
C78_39 C83_39 1_555 1_555
C102_39 C107_39 1_555 1_555
C103_39 C108_39 1_555 1_555
C117_39 C122_39 1_555 1_555
C118_39 C123_39 1_555 1_555
Co15_7 N2_43 1_555 1_555
N16_43 Co15_7 1_555 1_555
S2_43 C2_43 1_555 1_555
S8_43 C32_43 1_555 1_555
Co7_13 N1_40 1_555 1_555
S1_40 C1_40 1_555 1_555
N1_40 C1_40 1_555 1_555
Co6_2 N12_26 1_555 1_555
S3_40 C27_40 1_555 1_555
S4_26 C28_26 1_555 1_555
S5_26 C29_26 1_555 1_555
N11_40 Co7_13 1_555 1_555
N12_26 C28_26 1_555 1_555
N13_26 Co6_2 1_555 1_555
N21_40 Co7_13 1_555 1_555
N22_40 Co7_13 1_555 1_555
N28_26 Co6_2 1_555 1_555
N33_26 Co6_2 1_555 1_555
N35_40 C87_40 1_555 1_555
N36_40 C88_40 1_555 1_555
N40_40 C87_40 1_555 1_555
N41_40 C88_40 1_555 1_555
N45_40 C92_40 1_555 1_555
N46_40 C93_40 1_555 1_555
C27_40 N11_40 1_555 1_555
C29_26 N13_26 1_555 1_555
C37_40 N21_40 1_555 1_555
C38_40 N22_40 1_555 1_555
H17_40 C37_40 1_555 1_555
H18_40 C38_40 1_555 1_555
C42_40 C37_40 1_555 1_555
C43_40 C38_40 1_555 1_555
H22_40 C42_40 1_555 1_555
H23_40 C43_40 1_555 1_555
C47_40 C42_40 1_555 1_555
C48_40 C43_40 1_555 1_555
H27_40 C47_40 1_555 1_555
H28_40 C48_40 1_555 1_555
C52_40 C47_40 1_555 1_555
C53_40 C48_40 1_555 1_555
C57_40 N21_40 1_555 1_555
C58_40 N22_40 1_555 1_555
H32_40 C57_40 1_555 1_555
H33_40 C58_40 1_555 1_555
C62_40 N28_26 1_555 1_555
C63_40 N33_13 1_555 1_555
H37_40 C62_40 1_555 1_555
H38_40 C63_40 1_555 1_555
C67_40 C62_40 1_555 1_555
C68_40 C63_40 1_555 1_555
H42_40 C67_40 1_555 1_555
H43_40 C68_40 1_555 1_555
C72_40 C67_40 1_555 1_555
C73_40 C68_40 1_555 1_555
H47_40 C72_40 1_555 1_555
H48_40 C73_40 1_555 1_555
C77_40 C72_40 1_555 1_555
C78_40 C73_40 1_555 1_555
C82_40 N28_26 1_555 1_555
C83_40 N33_13 1_555 1_555
H52_40 C82_40 1_555 1_555
H53_40 C83_40 1_555 1_555
C87_40 C77_40 1_555 1_555
C88_40 C78_40 1_555 1_555
C92_40 N35_40 1_555 1_555
C93_40 N36_40 1_555 1_555
C97_40 N40_40 1_555 1_555
C98_40 N41_40 1_555 1_555
C102_40 N55_27 1_555 1_555
C103_40 N55_10 1_555 1_555
H57_40 C102_40 1_555 1_555
H58_40 C103_40 1_555 1_555
C107_40 C97_40 1_555 1_555
C108_40 C98_40 1_555 1_555
C112_40 C107_40 1_555 1_555
C113_40 C108_40 1_555 1_555
H62_40 C112_40 1_555 1_555
H63_40 C113_40 1_555 1_555
C117_40 C112_40 1_555 1_555
C118_40 C113_40 1_555 1_555
H67_40 C117_40 1_555 1_555
H68_40 C118_40 1_555 1_555
C122_40 N55_27 1_555 1_555
C123_40 N55_10 1_555 1_555
H72_40 C122_40 1_555 1_555
H73_40 C123_40 1_555 1_555
N45_40 C97_40 1_555 1_555
N46_40 C98_40 1_555 1_555
C52_40 C57_40 1_555 1_555
C52_40 C92_40 1_555 1_555
C53_40 C58_40 1_555 1_555
C53_40 C93_40 1_555 1_555
C77_40 C82_40 1_555 1_555
C78_40 C83_40 1_555 1_555
C102_40 C107_40 1_555 1_555
C103_40 C108_40 1_555 1_555
C117_40 C122_40 1_555 1_555
C118_40 C123_40 1_555 1_555
Co12_8 N2_44 1_555 1_555
S2_44 C2_44 1_555 1_555
N2_44 C2_44 1_555 1_555
S8_44 C32_44 1_555 1_555
N16_44 Co12_8 1_555 1_555
C32_44 N16_44 1_555 1_555
Co7_18 N1_41 1_555 1_555
S1_41 C1_41 1_555 1_555
N1_41 C1_41 1_555 1_555
N21_41 Co7_18 1_555 1_555
N35_41 C87_41 1_555 1_555
N40_41 C87_41 1_555 1_555
N45_41 C92_41 1_555 1_555
C37_41 N21_41 1_555 1_555
H17_41 C37_41 1_555 1_555
C42_41 C37_41 1_555 1_555
H22_41 C42_41 1_555 1_555
C47_41 C42_41 1_555 1_555
H27_41 C47_41 1_555 1_555
C52_41 C47_41 1_555 1_555
C57_41 N21_41 1_555 1_555
H32_41 C57_41 1_555 1_555
C62_41 N33_24 1_555 1_555
H37_41 C62_41 1_555 1_555
C67_41 C62_41 1_555 1_555
H42_41 C67_41 1_555 1_555
C72_41 C67_41 1_555 1_555
H47_41 C72_41 1_555 1_555
C77_41 C72_41 1_555 1_555
C82_41 N33_24 1_555 1_555
H52_41 C82_41 1_555 1_555
C87_41 C77_41 1_555 1_555
C92_41 N35_41 1_555 1_555
C97_41 N40_41 1_555 1_555
C102_41 N55_14 1_555 1_555
H57_41 C102_41 1_555 1_555
C107_41 C97_41 1_555 1_555
C112_41 C107_41 1_555 1_555
H62_41 C112_41 1_555 1_555
C117_41 C112_41 1_555 1_555
H67_41 C117_41 1_555 1_555
C122_41 N55_14 1_555 1_555
H72_41 C122_41 1_555 1_555
N45_41 C97_41 1_555 1_555
C52_41 C57_41 1_555 1_555
C52_41 C92_41 1_555 1_555
C77_41 C82_41 1_555 1_555
C102_41 C107_41 1_555 1_555
C117_41 C122_41 1_555 1_555
S3_41 C27_41 1_555 1_555
N11_41 Co7_19 1_555 1_555
N22_41 Co7_19 1_555 1_555
N36_41 C88_41 1_555 1_555
N41_41 C88_41 1_555 1_555
N46_41 C93_41 1_555 1_555
C27_41 N11_41 1_555 1_555
C38_41 N22_41 1_555 1_555
H18_41 C38_41 1_555 1_555
C43_41 C38_41 1_555 1_555
H23_41 C43_41 1_555 1_555
C48_41 C43_41 1_555 1_555
H28_41 C48_41 1_555 1_555
C53_41 C48_41 1_555 1_555
C58_41 N22_41 1_555 1_555
H33_41 C58_41 1_555 1_555
C63_41 N33_20 1_555 1_555
H38_41 C63_41 1_555 1_555
C68_41 C63_41 1_555 1_555
H43_41 C68_41 1_555 1_555
C73_41 C68_41 1_555 1_555
H48_41 C73_41 1_555 1_555
C78_41 C73_41 1_555 1_555
C83_41 N33_20 1_555 1_555
H53_41 C83_41 1_555 1_555
C88_41 C78_41 1_555 1_555
C93_41 N36_41 1_555 1_555
C98_41 N41_41 1_555 1_555
C103_41 N55_25 1_555 1_555
H58_41 C103_41 1_555 1_555
C108_41 C98_41 1_555 1_555
C113_41 C108_41 1_555 1_555
H63_41 C113_41 1_555 1_555
C118_41 C113_41 1_555 1_555
H68_41 C118_41 1_555 1_555
C123_41 N55_25 1_555 1_555
H73_41 C123_41 1_555 1_555
N46_41 C98_41 1_555 1_555
C53_41 C58_41 1_555 1_555
C53_41 C93_41 1_555 1_555
C78_41 C83_41 1_555 1_555
C103_41 C108_41 1_555 1_555
C118_41 C123_41 1_555 1_555
Co15_6 N2_45 1_555 1_555
S2_45 C2_45 1_555 1_555
N2_45 C2_45 1_555 1_555
Co8_8 N31_28 1_555 1_555
S8_45 C32_45 1_555 1_555
N16_45 Co15_6 1_555 1_555
N31_28 C65_28 1_555 1_555
N38_28 C90_28 1_555 1_555
N43_28 C90_28 1_555 1_555
N48_28 C95_28 1_555 1_555
N53_28 Co15_6 1_555 1_555
C32_45 N16_45 1_555 1_555
C40_28 N27_19 1_555 1_555
H20_28 C40_28 1_555 1_555
C45_28 C40_28 1_555 1_555
H25_28 C45_28 1_555 1_555
C50_28 C45_28 1_555 1_555
H30_28 C50_28 1_555 1_555
C55_28 C50_28 1_555 1_555
C60_28 N27_19 1_555 1_555
H35_28 C60_28 1_555 1_555
C65_28 H40_28 1_555 1_555
C70_28 C65_28 1_555 1_555
H45_28 C70_28 1_555 1_555
C75_28 C70_28 1_555 1_555
H50_28 C75_28 1_555 1_555
C80_28 C75_28 1_555 1_555
C85_28 N31_28 1_555 1_555
H55_28 C85_28 1_555 1_555
C90_28 C80_28 1_555 1_555
C95_28 N38_28 1_555 1_555
C100_28 N43_28 1_555 1_555
C105_28 N53_28 1_555 1_555
H60_28 C105_28 1_555 1_555
C110_28 C100_28 1_555 1_555
C115_28 C110_28 1_555 1_555
H65_28 C115_28 1_555 1_555
C120_28 C115_28 1_555 1_555
H70_28 C120_28 1_555 1_555
C125_28 N53_28 1_555 1_555
H75_28 C125_28 1_555 1_555
N48_28 C100_28 1_555 1_555
C55_28 C60_28 1_555 1_555
C55_28 C95_28 1_555 1_555
C80_28 C85_28 1_555 1_555
C105_28 C110_28 1_555 1_555
C120_28 C125_28 1_555 1_555
Co7_12 N32_22 1_555 1_555
Co15_9 N54_22 1_555 1_555
N32_22 C66_22 1_555 1_555
N39_22 C91_22 1_555 1_555
N44_22 C91_22 1_555 1_555
N49_22 C96_22 1_555 1_555
N54_22 C106_22 1_555 1_555
C41_22 N26_13 1_555 1_555
H21_22 C41_22 1_555 1_555
C46_22 C41_22 1_555 1_555
H26_22 C46_22 1_555 1_555
C51_22 C46_22 1_555 1_555
H31_22 C51_22 1_555 1_555
C56_22 C51_22 1_555 1_555
C61_22 N26_13 1_555 1_555
H36_22 C61_22 1_555 1_555
C66_22 H41_22 1_555 1_555
C71_22 C66_22 1_555 1_555
H46_22 C71_22 1_555 1_555
C76_22 C71_22 1_555 1_555
H51_22 C76_22 1_555 1_555
C81_22 C76_22 1_555 1_555
C86_22 N32_22 1_555 1_555
H56_22 C86_22 1_555 1_555
C91_22 C81_22 1_555 1_555
C96_22 N39_22 1_555 1_555
C101_22 N44_22 1_555 1_555
C106_22 H61_22 1_555 1_555
C111_22 C101_22 1_555 1_555
C116_22 C111_22 1_555 1_555
H66_22 C116_22 1_555 1_555
C121_22 C116_22 1_555 1_555
H71_22 C121_22 1_555 1_555
C126_22 N54_22 1_555 1_555
H76_22 C126_22 1_555 1_555
N49_22 C101_22 1_555 1_555
C56_22 C61_22 1_555 1_555
C56_22 C96_22 1_555 1_555
C81_22 C86_22 1_555 1_555
C106_22 C111_22 1_555 1_555
C121_22 C126_22 1_555 1_555
Co8_18 N1_42 1_555 1_555
S1_42 C1_42 1_555 1_555
N1_42 C1_42 1_555 1_555
Co14_7 N52_24 1_555 1_555
S3_42 C27_42 1_555 1_555
N11_42 Co8_18 1_555 1_555
N21_42 Co8_18 1_555 1_555
N22_42 Co8_18 1_555 1_555
N27 C39_24 1_555 1_555
N30_24 Co8_18 1_555 1_555
N35_42 C87_42 1_555 1_555
N36_42 C88_42 1_555 1_555
N37_24 C89_24 1_555 1_555
N40_42 C87_42 1_555 1_555
N41_42 C88_42 1_555 1_555
N42_24 C89_24 1_555 1_555
N45_42 C92_42 1_555 1_555
N46_42 C93_42 1_555 1_555
N47_24 C94_24 1_555 1_555
N52_24 C104_24 1_555 1_555
C27_42 N11_42 1_555 1_555
C37_42 N21_42 1_555 1_555
C38_42 N22_42 1_555 1_555
C39_24 H19_24 1_555 1_555
H17_42 C37_42 1_555 1_555
H18_42 C38_42 1_555 1_555
C42_42 C37_42 1_555 1_555
C43_42 C38_42 1_555 1_555
C44_24 C39_24 1_555 1_555
H22_42 C42_42 1_555 1_555
H23_42 C43_42 1_555 1_555
H24_24 C44_24 1_555 1_555
C47_42 C42_42 1_555 1_555
C48_42 C43_42 1_555 1_555
C49_24 C44_24 1_555 1_555
H27_42 C47_42 1_555 1_555
H28_42 C48_42 1_555 1_555
H29_24 C49_24 1_555 1_555
C52_42 C47_42 1_555 1_555
C53_42 C48_42 1_555 1_555
C54_24 C49_24 1_555 1_555
C57_42 N21_42 1_555 1_555
C58_42 N22_42 1_555 1_555
C59_24 N27 1_555 1_555
H32_42 C57_42 1_555 1_555
H33_42 C58_42 1_555 1_555
H34_24 C59_24 1_555 1_555
C62_42 N34_3 1_555 1_555
C63_42 N33_23 1_555 1_555
C64_24 N30_24 1_555 1_555
H37_42 C62_42 1_555 1_555
H38_42 C63_42 1_555 1_555
H39_24 C64_24 1_555 1_555
C67_42 C62_42 1_555 1_555
C68_42 C63_42 1_555 1_555
C69_24 C64_24 1_555 1_555
H42_42 C67_42 1_555 1_555
H43_42 C68_42 1_555 1_555
H44_24 C69_24 1_555 1_555
C72_42 C67_42 1_555 1_555
C73_42 C68_42 1_555 1_555
C74_24 C69_24 1_555 1_555
H47_42 C72_42 1_555 1_555
H48_42 C73_42 1_555 1_555
H49_24 C74_24 1_555 1_555
C77_42 C72_42 1_555 1_555
C78_42 C73_42 1_555 1_555
C79_24 C74_24 1_555 1_555
C82_42 N34_3 1_555 1_555
C83_42 N33_23 1_555 1_555
C84_24 N30_24 1_555 1_555
H52_42 C82_42 1_555 1_555
H53_42 C83_42 1_555 1_555
H54_24 C84_24 1_555 1_555
C87_42 C77_42 1_555 1_555
C88_42 C78_42 1_555 1_555
C89_24 C79_24 1_555 1_555
C92_42 N35_42 1_555 1_555
C93_42 N36_42 1_555 1_555
C94_24 N37_24 1_555 1_555
C97_42 N40_42 1_555 1_555
C98_42 N41_42 1_555 1_555
C99_24 N42_24 1_555 1_555
C102_42 N55_29 1_555 1_555
C103_42 N56_12 1_555 1_555
C104_24 H59_24 1_555 1_555
H57_42 C102_42 1_555 1_555
H58_42 C103_42 1_555 1_555
C107_42 C97_42 1_555 1_555
C108_42 C98_42 1_555 1_555
C109_24 C99_24 1_555 1_555
C112_42 C107_42 1_555 1_555
C113_42 C108_42 1_555 1_555
C114_24 C109_24 1_555 1_555
H62_42 C112_42 1_555 1_555
H63_42 C113_42 1_555 1_555
H64_24 C114_24 1_555 1_555
C117_42 C112_42 1_555 1_555
C118_42 C113_42 1_555 1_555
C119_24 C114_24 1_555 1_555
H67_42 C117_42 1_555 1_555
H68_42 C118_42 1_555 1_555
H69_24 C119_24 1_555 1_555
C122_42 N55_29 1_555 1_555
C123_42 N56_12 1_555 1_555
C124_24 N52_24 1_555 1_555
H72_42 C122_42 1_555 1_555
H73_42 C123_42 1_555 1_555
H74_24 C124_24 1_555 1_555
N45_42 C97_42 1_555 1_555
N46_42 C98_42 1_555 1_555
N47_24 C99_24 1_555 1_555
C52_42 C57_42 1_555 1_555
C52_42 C92_42 1_555 1_555
C53_42 C58_42 1_555 1_555
C53_42 C93_42 1_555 1_555
C54_24 C59_24 1_555 1_555
C54_24 C94_24 1_555 1_555
C77_42 C82_42 1_555 1_555
C78_42 C83_42 1_555 1_555
C79_24 C84_24 1_555 1_555
C102_42 C107_42 1_555 1_555
C103_42 C108_42 1_555 1_555
C104_24 C109_24 1_555 1_555
C117_42 C122_42 1_555 1_555
C118_42 C123_42 1_555 1_555
C119_24 C124_24 1_555 1_555
S3_43 C27_43 1_555 1_555
N11_43 Co8_7 1_555 1_555
N22_43 Co8_7 1_555 1_555
N36_43 C88_43 1_555 1_555
N41_43 C88_43 1_555 1_555
N46_43 C93_43 1_555 1_555
C27_43 N11_43 1_555 1_555
C38_43 N22_43 1_555 1_555
H18_43 C38_43 1_555 1_555
C43_43 C38_43 1_555 1_555
H23_43 C43_43 1_555 1_555
C48_43 C43_43 1_555 1_555
H28_43 C48_43 1_555 1_555
C53_43 C48_43 1_555 1_555
C58_43 N22_43 1_555 1_555
H33_43 C58_43 1_555 1_555
C63_43 N33_10 1_555 1_555
H38_43 C63_43 1_555 1_555
C68_43 C63_43 1_555 1_555
H43_43 C68_43 1_555 1_555
C73_43 C68_43 1_555 1_555
H48_43 C73_43 1_555 1_555
C78_43 C73_43 1_555 1_555
C83_43 N33_10 1_555 1_555
H53_43 C83_43 1_555 1_555
C88_43 C78_43 1_555 1_555
C93_43 N36_43 1_555 1_555
C98_43 N41_43 1_555 1_555
C103_43 N55_20 1_555 1_555
H58_43 C103_43 1_555 1_555
C108_43 C98_43 1_555 1_555
C113_43 C108_43 1_555 1_555
H63_43 C113_43 1_555 1_555
C118_43 C113_43 1_555 1_555
H68_43 C118_43 1_555 1_555
C123_43 N55_20 1_555 1_555
H73_43 C123_43 1_555 1_555
N46_43 C98_43 1_555 1_555
C53_43 C58_43 1_555 1_555
C53_43 C93_43 1_555 1_555
C78_43 C83_43 1_555 1_555
C103_43 C108_43 1_555 1_555
C118_43 C123_43 1_555 1_555
Co8_8 N1_43 1_555 1_555
S1_43 C1_43 1_555 1_555
N1_43 C1_43 1_555 1_555
N21_43 Co8_8 1_555 1_555
N35_43 C87_43 1_555 1_555
N40_43 C87_43 1_555 1_555
N45_43 C92_43 1_555 1_555
C37_43 N21_43 1_555 1_555
H17_43 C37_43 1_555 1_555
C42_43 C37_43 1_555 1_555
H22_43 C42_43 1_555 1_555
C47_43 C42_43 1_555 1_555
H27_43 C47_43 1_555 1_555
C52_43 C47_43 1_555 1_555
C57_43 N21_43 1_555 1_555
H32_43 C57_43 1_555 1_555
C62_43 N33_9 1_555 1_555
H37_43 C62_43 1_555 1_555
C67_43 C62_43 1_555 1_555
H42_43 C67_43 1_555 1_555
C72_43 C67_43 1_555 1_555
H47_43 C72_43 1_555 1_555
C77_43 C72_43 1_555 1_555
C82_43 N33_9 1_555 1_555
H52_43 C82_43 1_555 1_555
C87_43 C77_43 1_555 1_555
C92_43 N35_43 1_555 1_555
C97_43 N40_43 1_555 1_555
C102_43 N56_19 1_555 1_555
H57_43 C102_43 1_555 1_555
C107_43 C97_43 1_555 1_555
C112_43 C107_43 1_555 1_555
H62_43 C112_43 1_555 1_555
C117_43 C112_43 1_555 1_555
H67_43 C117_43 1_555 1_555
C122_43 N56_19 1_555 1_555
H72_43 C122_43 1_555 1_555
N45_43 C97_43 1_555 1_555
C52_43 C57_43 1_555 1_555
C52_43 C92_43 1_555 1_555
C77_43 C82_43 1_555 1_555
C102_43 C107_43 1_555 1_555
C117_43 C122_43 1_555 1_555
Co7_4 N1_44 1_555 1_555
S1_44 C1_44 1_555 1_555
N1_44 C1_44 1_555 1_555
S3_44 C27_44 1_555 1_555
N11_44 Co7_4 1_555 1_555
N21_44 Co7_4 1_555 1_555
N22_44 Co7_4 1_555 1_555
N35_44 C87_44 1_555 1_555
N36_44 C88_44 1_555 1_555
N40_44 C87_44 1_555 1_555
N41_44 C88_44 1_555 1_555
N45_44 C92_44 1_555 1_555
N46_44 C93_44 1_555 1_555
C27_44 N11_44 1_555 1_555
C37_44 N21_44 1_555 1_555
C38_44 N22_44 1_555 1_555
H17_44 C37_44 1_555 1_555
H18_44 C38_44 1_555 1_555
C42_44 C37_44 1_555 1_555
C43_44 C38_44 1_555 1_555
H22_44 C42_44 1_555 1_555
H23_44 C43_44 1_555 1_555
C47_44 C42_44 1_555 1_555
C48_44 C43_44 1_555 1_555
H27_44 C47_44 1_555 1_555
H28_44 C48_44 1_555 1_555
C52_44 C47_44 1_555 1_555
C53_44 C48_44 1_555 1_555
C57_44 N21_44 1_555 1_555
C58_44 N22_44 1_555 1_555
H32_44 C57_44 1_555 1_555
H33_44 C58_44 1_555 1_555
C62_44 N33_19 1_555 1_555
C63_44 N33_25 1_555 1_555
H37_44 C62_44 1_555 1_555
H38_44 C63_44 1_555 1_555
C67_44 C62_44 1_555 1_555
C68_44 C63_44 1_555 1_555
H42_44 C67_44 1_555 1_555
H43_44 C68_44 1_555 1_555
C72_44 C67_44 1_555 1_555
C73_44 C68_44 1_555 1_555
H47_44 C72_44 1_555 1_555
H48_44 C73_44 1_555 1_555
C77_44 C72_44 1_555 1_555
C78_44 C73_44 1_555 1_555
C82_44 N33_19 1_555 1_555
C83_44 N33_25 1_555 1_555
H52_44 C82_44 1_555 1_555
H53_44 C83_44 1_555 1_555
C87_44 C77_44 1_555 1_555
C88_44 C78_44 1_555 1_555
C92_44 N35_44 1_555 1_555
C93_44 N36_44 1_555 1_555
C97_44 N40_44 1_555 1_555
C98_44 N41_44 1_555 1_555
C102_44 N55_3 1_555 1_555
C103_44 N55_28 1_555 1_555
H57_44 C102_44 1_555 1_555
H58_44 C103_44 1_555 1_555
C107_44 C97_44 1_555 1_555
C108_44 C98_44 1_555 1_555
C112_44 C107_44 1_555 1_555
C113_44 C108_44 1_555 1_555
H62_44 C112_44 1_555 1_555
H63_44 C113_44 1_555 1_555
C117_44 C112_44 1_555 1_555
C118_44 C113_44 1_555 1_555
H67_44 C117_44 1_555 1_555
H68_44 C118_44 1_555 1_555
C122_44 N55_3 1_555 1_555
C123_44 N55_28 1_555 1_555
H72_44 C122_44 1_555 1_555
H73_44 C123_44 1_555 1_555
N45_44 C97_44 1_555 1_555
N46_44 C98_44 1_555 1_555
C52_44 C57_44 1_555 1_555
C52_44 C92_44 1_555 1_555
C53_44 C58_44 1_555 1_555
C53_44 C93_44 1_555 1_555
C77_44 C82_44 1_555 1_555
C78_44 C83_44 1_555 1_555
C102_44 C107_44 1_555 1_555
C103_44 C108_44 1_555 1_555
C117_44 C122_44 1_555 1_555
C118_44 C123_44 1_555 1_555
Co15_9 N2_46 1_555 1_555
S2_46 C2_46 1_555 1_555
N2_46 C2_46 1_555 1_555
S8_46 C32_46 1_555 1_555
N16_46 Co15_9 1_555 1_555
C32_46 N16_46 1_555 1_555
Co7_24 N1_45 1_555 1_555
S1_45 C1_45 1_555 1_555
N1_45 C1_45 1_555 1_555
Co11 N52_25 1_555 1_555
S3_45 C27_45 1_555 1_555
N11_45 Co7_24 1_555 1_555
N21_45 Co7_24 1_555 1_555
N22_45 Co7_24 1_555 1_555
N26_2 C39_25 1_555 1_555
N30_25 Co7_24 1_555 1_555
N35_45 C87_45 1_555 1_555
N36_45 C88_45 1_555 1_555
N37_25 C89_25 1_555 1_555
N40_45 C87_45 1_555 1_555
N41_45 C88_45 1_555 1_555
N42_25 C89_25 1_555 1_555
N45_45 C92_45 1_555 1_555
N46_45 C93_45 1_555 1_555
N47_25 C94_25 1_555 1_555
N52_25 C104_25 1_555 1_555
C27_45 N11_45 1_555 1_555
C37_45 N21_45 1_555 1_555
C38_45 N22_45 1_555 1_555
C39_25 H19_25 1_555 1_555
H17_45 C37_45 1_555 1_555
H18_45 C38_45 1_555 1_555
C42_45 C37_45 1_555 1_555
C43_45 C38_45 1_555 1_555
C44_25 C39_25 1_555 1_555
H22_45 C42_45 1_555 1_555
H23_45 C43_45 1_555 1_555
H24_25 C44_25 1_555 1_555
C47_45 C42_45 1_555 1_555
C48_45 C43_45 1_555 1_555
C49_25 C44_25 1_555 1_555
H27_45 C47_45 1_555 1_555
H28_45 C48_45 1_555 1_555
H29_25 C49_25 1_555 1_555
C52_45 C47_45 1_555 1_555
C53_45 C48_45 1_555 1_555
C54_25 C49_25 1_555 1_555
C57_45 N21_45 1_555 1_555
C58_45 N22_45 1_555 1_555
C59_25 N26_2 1_555 1_555
H32_45 C57_45 1_555 1_555
H33_45 C58_45 1_555 1_555
H34_25 C59_25 1_555 1_555
C62_45 N34_13 1_555 1_555
C63_45 N33_26 1_555 1_555
C64_25 N30_25 1_555 1_555
H37_45 C62_45 1_555 1_555
H38_45 C63_45 1_555 1_555
H39_25 C64_25 1_555 1_555
C67_45 C62_45 1_555 1_555
C68_45 C63_45 1_555 1_555
C69_25 C64_25 1_555 1_555
H42_45 C67_45 1_555 1_555
H43_45 C68_45 1_555 1_555
H44_25 C69_25 1_555 1_555
C72_45 C67_45 1_555 1_555
C73_45 C68_45 1_555 1_555
C74_25 C69_25 1_555 1_555
H47_45 C72_45 1_555 1_555
H48_45 C73_45 1_555 1_555
H49_25 C74_25 1_555 1_555
C77_45 C72_45 1_555 1_555
C78_45 C73_45 1_555 1_555
C79_25 C74_25 1_555 1_555
C82_45 N34_13 1_555 1_555
C83_45 N33_26 1_555 1_555
C84_25 N30_25 1_555 1_555
H52_45 C82_45 1_555 1_555
H53_45 C83_45 1_555 1_555
H54_25 C84_25 1_555 1_555
C87_45 C77_45 1_555 1_555
C88_45 C78_45 1_555 1_555
C89_25 C79_25 1_555 1_555
C92_45 N35_45 1_555 1_555
C93_45 N36_45 1_555 1_555
C94_25 N37_25 1_555 1_555
C97_45 N40_45 1_555 1_555
C98_45 N41_45 1_555 1_555
C99_25 N42_25 1_555 1_555
C102_45 N55_26 1_555 1_555
C103_45 N56_2 1_555 1_555
C104_25 H59_25 1_555 1_555
H57_45 C102_45 1_555 1_555
H58_45 C103_45 1_555 1_555
C107_45 C97_45 1_555 1_555
C108_45 C98_45 1_555 1_555
C109_25 C99_25 1_555 1_555
C112_45 C107_45 1_555 1_555
C113_45 C108_45 1_555 1_555
C114_25 C109_25 1_555 1_555
H62_45 C112_45 1_555 1_555
H63_45 C113_45 1_555 1_555
H64_25 C114_25 1_555 1_555
C117_45 C112_45 1_555 1_555
C118_45 C113_45 1_555 1_555
C119_25 C114_25 1_555 1_555
H67_45 C117_45 1_555 1_555
H68_45 C118_45 1_555 1_555
H69_25 C119_25 1_555 1_555
C122_45 N55_26 1_555 1_555
C123_45 N56_2 1_555 1_555
C124_25 N52_25 1_555 1_555
H72_45 C122_45 1_555 1_555
H73_45 C123_45 1_555 1_555
H74_25 C124_25 1_555 1_555
N45_45 C97_45 1_555 1_555
N46_45 C98_45 1_555 1_555
N47_25 C99_25 1_555 1_555
C52_45 C57_45 1_555 1_555
C52_45 C92_45 1_555 1_555
C53_45 C58_45 1_555 1_555
C53_45 C93_45 1_555 1_555
C54_25 C59_25 1_555 1_555
C54_25 C94_25 1_555 1_555
C77_45 C82_45 1_555 1_555
C78_45 C83_45 1_555 1_555
C79_25 C84_25 1_555 1_555
C102_45 C107_45 1_555 1_555
C103_45 C108_45 1_555 1_555
C104_25 C109_25 1_555 1_555
C117_45 C122_45 1_555 1_555
C118_45 C123_45 1_555 1_555
C119_25 C124_25 1_555 1_555
S3_46 C27_46 1_555 1_555
N11_46 Co7_11 1_555 1_555
N22_46 Co7_11 1_555 1_555
N36_46 C88_46 1_555 1_555
N41_46 C88_46 1_555 1_555
N46_46 C93_46 1_555 1_555
C27_46 N11_46 1_555 1_555
C38_46 N22_46 1_555 1_555
H18_46 C38_46 1_555 1_555
C43_46 C38_46 1_555 1_555
H23_46 C43_46 1_555 1_555
C48_46 C43_46 1_555 1_555
H28_46 C48_46 1_555 1_555
C53_46 C48_46 1_555 1_555
C58_46 N22_46 1_555 1_555
H33_46 C58_46 1_555 1_555
C63_46 N33_18 1_555 1_555
H38_46 C63_46 1_555 1_555
C68_46 C63_46 1_555 1_555
H43_46 C68_46 1_555 1_555
C73_46 C68_46 1_555 1_555
H48_46 C73_46 1_555 1_555
C78_46 C73_46 1_555 1_555
C83_46 N33_18 1_555 1_555
H53_46 C83_46 1_555 1_555
C88_46 C78_46 1_555 1_555
C93_46 N36_46 1_555 1_555
C98_46 N41_46 1_555 1_555
C103_46 N55_9 1_555 1_555
H58_46 C103_46 1_555 1_555
C108_46 C98_46 1_555 1_555
C113_46 C108_46 1_555 1_555
H63_46 C113_46 1_555 1_555
C118_46 C113_46 1_555 1_555
H68_46 C118_46 1_555 1_555
C123_46 N55_9 1_555 1_555
H73_46 C123_46 1_555 1_555
N46_46 C98_46 1_555 1_555
C53_46 C58_46 1_555 1_555
C53_46 C93_46 1_555 1_555
C78_46 C83_46 1_555 1_555
C103_46 C108_46 1_555 1_555
C118_46 C123_46 1_555 1_555
Co7_12 N1_46 1_555 1_555
S1_46 C1_46 1_555 1_555
N1_46 C1_46 1_555 1_555
N21_46 Co7_12 1_555 1_555
N35_46 C87_46 1_555 1_555
N40_46 C87_46 1_555 1_555
N45_46 C92_46 1_555 1_555
C37_46 N21_46 1_555 1_555
H17_46 C37_46 1_555 1_555
C42_46 C37_46 1_555 1_555
H22_46 C42_46 1_555 1_555
C47_46 C42_46 1_555 1_555
H27_46 C47_46 1_555 1_555
C52_46 C47_46 1_555 1_555
C57_46 N21_46 1_555 1_555
H32_46 C57_46 1_555 1_555
C62_46 N33_17 1_555 1_555
H37_46 C62_46 1_555 1_555
C67_46 C62_46 1_555 1_555
H42_46 C67_46 1_555 1_555
C72_46 C67_46 1_555 1_555
H47_46 C72_46 1_555 1_555
C77_46 C72_46 1_555 1_555
C82_46 N33_17 1_555 1_555
H52_46 C82_46 1_555 1_555
C87_46 C77_46 1_555 1_555
C92_46 N35_46 1_555 1_555
C97_46 N40_46 1_555 1_555
C102_46 N56_18 1_555 1_555
H57_46 C102_46 1_555 1_555
C107_46 C97_46 1_555 1_555
C112_46 C107_46 1_555 1_555
H62_46 C112_46 1_555 1_555
C117_46 C112_46 1_555 1_555
H67_46 C117_46 1_555 1_555
C122_46 N56_18 1_555 1_555
H72_46 C122_46 1_555 1_555
N45_46 C97_46 1_555 1_555
C52_46 C57_46 1_555 1_555
C52_46 C92_46 1_555 1_555
C77_46 C82_46 1_555 1_555
C102_46 C107_46 1_555 1_555
C117_46 C122_46 1_555 1_555
Co7_9 N1_47 1_555 1_555
S1_47 C1_47 1_555 1_555
N1_47 C1_47 1_555 1_555
S3_47 C27_47 1_555 1_555
N11_47 Co7_9 1_555 1_555
N21_47 Co7_9 1_555 1_555
N22_47 Co7_9 1_555 1_555
N35_47 C87_47 1_555 1_555
N36_47 C88_47 1_555 1_555
N40_47 C87_47 1_555 1_555
N41_47 C88_47 1_555 1_555
N45_47 C92_47 1_555 1_555
N46_47 C93_47 1_555 1_555
C27_47 N11_47 1_555 1_555
C37_47 N21_47 1_555 1_555
C38_47 N22_47 1_555 1_555
H17_47 C37_47 1_555 1_555
H18_47 C38_47 1_555 1_555
C42_47 C37_47 1_555 1_555
C43_47 C38_47 1_555 1_555
H22_47 C42_47 1_555 1_555
H23_47 C43_47 1_555 1_555
C47_47 C42_47 1_555 1_555
C48_47 C43_47 1_555 1_555
H27_47 C47_47 1_555 1_555
H28_47 C48_47 1_555 1_555
C52_47 C47_47 1_555 1_555
C53_47 C48_47 1_555 1_555
C57_47 N21_47 1_555 1_555
C58_47 N22_47 1_555 1_555
H32_47 C57_47 1_555 1_555
H33_47 C58_47 1_555 1_555
C62_47 N33_11 1_555 1_555
C63_47 N33_2 1_555 1_555
H37_47 C62_47 1_555 1_555
H38_47 C63_47 1_555 1_555
C67_47 C62_47 1_555 1_555
C68_47 C63_47 1_555 1_555
H42_47 C67_47 1_555 1_555
H43_47 C68_47 1_555 1_555
C72_47 C67_47 1_555 1_555
C73_47 C68_47 1_555 1_555
H47_47 C72_47 1_555 1_555
H48_47 C73_47 1_555 1_555
C77_47 C72_47 1_555 1_555
C78_47 C73_47 1_555 1_555
C82_47 N33_11 1_555 1_555
C83_47 N33_2 1_555 1_555
H52_47 C82_47 1_555 1_555
H53_47 C83_47 1_555 1_555
C87_47 C77_47 1_555 1_555
C88_47 C78_47 1_555 1_555
C92_47 N35_47 1_555 1_555
C93_47 N36_47 1_555 1_555
C97_47 N40_47 1_555 1_555
C98_47 N41_47 1_555 1_555
C102_47 N56_17 1_555 1_555
C103_47 N55_6 1_555 1_555
H57_47 C102_47 1_555 1_555
H58_47 C103_47 1_555 1_555
C107_47 C97_47 1_555 1_555
C108_47 C98_47 1_555 1_555
C112_47 C107_47 1_555 1_555
C113_47 C108_47 1_555 1_555
H62_47 C112_47 1_555 1_555
H63_47 C113_47 1_555 1_555
C117_47 C112_47 1_555 1_555
C118_47 C113_47 1_555 1_555
H67_47 C117_47 1_555 1_555
H68_47 C118_47 1_555 1_555
C122_47 N56_17 1_555 1_555
C123_47 N55_6 1_555 1_555
H72_47 C122_47 1_555 1_555
H73_47 C123_47 1_555 1_555
N45_47 C97_47 1_555 1_555
N46_47 C98_47 1_555 1_555
C52_47 C57_47 1_555 1_555
C52_47 C92_47 1_555 1_555
C53_47 C58_47 1_555 1_555
C53_47 C93_47 1_555 1_555
C77_47 C82_47 1_555 1_555
C78_47 C83_47 1_555 1_555
C102_47 C107_47 1_555 1_555
C103_47 C108_47 1_555 1_555
C117_47 C122_47 1_555 1_555
C118_47 C123_47 1_555 1_555
Co14_7 N2_47 1_555 1_555
S2_47 C2_47 1_555 1_555
N2_47 C2_47 1_555 1_555
S8_47 C32_47 1_555 1_555
N16_47 Co14_7 1_555 1_555
C32_47 N16_47 1_555 1_555
Co8_9 N1_48 1_555 1_555
S1_48 C1_48 1_555 1_555
N1_48 C1_48 1_555 1_555
N21_48 Co8_9 1_555 1_555
N35_48 C87_48 1_555 1_555
N40_48 C87_48 1_555 1_555
N45_48 C92_48 1_555 1_555
C37_48 N21_48 1_555 1_555
H17_48 C37_48 1_555 1_555
C42_48 C37_48 1_555 1_555
H22_48 C42_48 1_555 1_555
C47_48 C42_48 1_555 1_555
H27_48 C47_48 1_555 1_555
C52_48 C47_48 1_555 1_555
C57_48 N21_48 1_555 1_555
H32_48 C57_48 1_555 1_555
C62_48 N33 1_555 1_555
H37_48 C62_48 1_555 1_555
C67_48 C62_48 1_555 1_555
H42_48 C67_48 1_555 1_555
C72_48 C67_48 1_555 1_555
H47_48 C72_48 1_555 1_555
C77_48 C72_48 1_555 1_555
C82_48 N33 1_555 1_555
H52_48 C82_48 1_555 1_555
C87_48 C77_48 1_555 1_555
C92_48 N35_48 1_555 1_555
C97_48 N40_48 1_555 1_555
C102_48 N56_10 1_555 1_555
H57_48 C102_48 1_555 1_555
C107_48 C97_48 1_555 1_555
C112_48 C107_48 1_555 1_555
H62_48 C112_48 1_555 1_555
C117_48 C112_48 1_555 1_555
H67_48 C117_48 1_555 1_555
C122_48 N56_10 1_555 1_555
H72_48 C122_48 1_555 1_555
N45_48 C97_48 1_555 1_555
C52_48 C57_48 1_555 1_555
C52_48 C92_48 1_555 1_555
C77_48 C82_48 1_555 1_555
C102_48 C107_48 1_555 1_555
C117_48 C122_48 1_555 1_555
S3_48 C27_48 1_555 1_555
N11_48 Co8_10 1_555 1_555
N22_48 Co8_10 1_555 1_555
N36_48 C88_48 1_555 1_555
N41_48 C88_48 1_555 1_555
N46_48 C93_48 1_555 1_555
C27_48 N11_48 1_555 1_555
C38_48 N22_48 1_555 1_555
H18_48 C38_48 1_555 1_555
C43_48 C38_48 1_555 1_555
H23_48 C43_48 1_555 1_555
C48_48 C43_48 1_555 1_555
H28_48 C48_48 1_555 1_555
C53_48 C48_48 1_555 1_555
C58_48 N22_48 1_555 1_555
H33_48 C58_48 1_555 1_555
C63_48 N33_12 1_555 1_555
H38_48 C63_48 1_555 1_555
C68_48 C63_48 1_555 1_555
H43_48 C68_48 1_555 1_555
C73_48 C68_48 1_555 1_555
H48_48 C73_48 1_555 1_555
C78_48 C73_48 1_555 1_555
C83_48 N33_12 1_555 1_555
H53_48 C83_48 1_555 1_555
C88_48 C78_48 1_555 1_555
C93_48 N36_48 1_555 1_555
C98_48 N41_48 1_555 1_555
C103_48 N55_17 1_555 1_555
H58_48 C103_48 1_555 1_555
C108_48 C98_48 1_555 1_555
C113_48 C108_48 1_555 1_555
H63_48 C113_48 1_555 1_555
C118_48 C113_48 1_555 1_555
H68_48 C118_48 1_555 1_555
C123_48 N55_17 1_555 1_555
H73_48 C123_48 1_555 1_555
N46_48 C98_48 1_555 1_555
C53_48 C58_48 1_555 1_555
C53_48 C93_48 1_555 1_555
C78_48 C83_48 1_555 1_555
C103_48 C108_48 1_555 1_555
C118_48 C123_48 1_555 1_555
Co11 N2_48 1_555 1_555
S2_48 C2_48 1_555 1_555
N2_48 C2_48 1_555 1_555
S8_48 C32_48 1_555 1_555
N16_48 Co11 1_555 1_555
C32_48 N16_48 1_555 1_555
N10_16 C26_16 1_555 1_555
C21_16 N63_29 1_555 1_555
H13_16 C21_16 1_555 1_555
C22_16 C21_16 1_555 1_555
H14_16 C22_16 1_555 1_555
C23_16 C22_16 1_555 1_555
H15_16 C23_16 1_555 1_555
C24_16 C23_16 1_555 1_555
C25_16 N63_29 1_555 1_555
H16_16 C25_16 1_555 1_555
C26_16 C24_16 1_555 1_555
N63_18 C127_16 1_555 1_555
N62_24 C128_16 1_555 1_555
N62_3 C130_18 1_555 1_555
N63_5 C131_18 1_555 1_555
N66_16 C152_16 1_555 1_555
N67_16 C26_16 1_555 1_555
N68_18 C154_18 1_555 1_555
N69_18 C155_18 1_555 1_555
N70_18 C154_18 1_555 1_555
C127_16 H77_16 1_555 1_555
C128_16 H78_16 1_555 1_555
C129_18 N62_29 1_555 1_555
C130_18 H80_18 1_555 1_555
C131_18 H81_18 1_555 1_555
H79_18 C129_18 1_555 1_555
C132_16 C127_16 1_555 1_555
C133_16 C128_16 1_555 1_555
C134_18 C129_18 1_555 1_555
C135_18 C130_18 1_555 1_555
C136_18 C131_18 1_555 1_555
H82_16 C132_16 1_555 1_555
H83_16 C133_16 1_555 1_555
H84_18 C134_18 1_555 1_555
H85_18 C135_18 1_555 1_555
H86_18 C136_18 1_555 1_555
C137_16 C132_16 1_555 1_555
C138_16 C133_16 1_555 1_555
C139_18 C134_18 1_555 1_555
C140_18 C135_18 1_555 1_555
C141_18 C136_18 1_555 1_555
H87_16 C137_16 1_555 1_555
H88_16 C138_16 1_555 1_555
H89_18 C139_18 1_555 1_555
H90_18 C140_18 1_555 1_555
H91_18 C141_18 1_555 1_555
C142_16 C137_16 1_555 1_555
C143_16 C138_16 1_555 1_555
C144_18 C139_18 1_555 1_555
C145_18 C140_18 1_555 1_555
C146_18 C141_18 1_555 1_555
C147_16 N63_18 1_555 1_555
C148_16 N62_24 1_555 1_555
C149_18 N62_29 1_555 1_555
C150_18 N62_3 1_555 1_555
C151_18 N63_5 1_555 1_555
H92_16 C147_16 1_555 1_555
H93_16 C148_16 1_555 1_555
H94_18 C149_18 1_555 1_555
H95_18 C150_18 1_555 1_555
H96_18 C151_18 1_555 1_555
C152_16 N10_16 1_555 1_555
C153_16 N66_16 1_555 1_555
C154_18 C144_18 1_555 1_555
C155_18 N68_18 1_555 1_555
C156_18 N69_18 1_555 1_555
C24_16 C25_16 1_555 1_555
N67_16 C153_16 1_555 1_555
N70_18 C156_18 1_555 1_555
C142_16 C147_16 1_555 1_555
C142_16 C153_16 1_555 1_555
C143_16 C148_16 1_555 1_555
C143_16 C152_16 1_555 1_555
C144_18 C149_18 1_555 1_555
C145_18 C150_18 1_555 1_555
C145_18 C156_18 1_555 1_555
C146_18 C151_18 1_555 1_555
C146_18 C155_18 1_555 1_555
N10_17 C26_17 1_555 1_555
C21_17 N64_5 1_555 1_555
H13_17 C21_17 1_555 1_555
C22_17 C21_17 1_555 1_555
H14_17 C22_17 1_555 1_555
C23_17 C22_17 1_555 1_555
H15_17 C23_17 1_555 1_555
C24_17 C23_17 1_555 1_555
C25_17 N64_5 1_555 1_555
H16_17 C25_17 1_555 1_555
C26_17 C24_17 1_555 1_555
N62_23 C127_17 1_555 1_555
N62_8 C128_17 1_555 1_555
N62_25 C130_19 1_555 1_555
N64_18 C131_19 1_555 1_555
N66_17 C152_17 1_555 1_555
N67_17 C26_17 1_555 1_555
N68_19 C154_19 1_555 1_555
N69_19 C155_19 1_555 1_555
N70_19 C154_19 1_555 1_555
C127_17 H77_17 1_555 1_555
C128_17 H78_17 1_555 1_555
C129_19 N65_5 1_555 1_555
C130_19 H80_19 1_555 1_555
C131_19 H81_19 1_555 1_555
H79_19 C129_19 1_555 1_555
C132_17 C127_17 1_555 1_555
C133_17 C128_17 1_555 1_555
C134_19 C129_19 1_555 1_555
C135_19 C130_19 1_555 1_555
C136_19 C131_19 1_555 1_555
H82_17 C132_17 1_555 1_555
H83_17 C133_17 1_555 1_555
H84_19 C134_19 1_555 1_555
H85_19 C135_19 1_555 1_555
H86_19 C136_19 1_555 1_555
C137_17 C132_17 1_555 1_555
C138_17 C133_17 1_555 1_555
C139_19 C134_19 1_555 1_555
C140_19 C135_19 1_555 1_555
C141_19 C136_19 1_555 1_555
H87_17 C137_17 1_555 1_555
H88_17 C138_17 1_555 1_555
H89_19 C139_19 1_555 1_555
H90_19 C140_19 1_555 1_555
H91_19 C141_19 1_555 1_555
C142_17 C137_17 1_555 1_555
C143_17 C138_17 1_555 1_555
C144_19 C139_19 1_555 1_555
C145_19 C140_19 1_555 1_555
C146_19 C141_19 1_555 1_555
C147_17 N62_23 1_555 1_555
C148_17 N62_8 1_555 1_555
C149_19 N65_5 1_555 1_555
C150_19 N62_25 1_555 1_555
C151_19 N64_18 1_555 1_555
H92_17 C147_17 1_555 1_555
H93_17 C148_17 1_555 1_555
H94_19 C149_19 1_555 1_555
H95_19 C150_19 1_555 1_555
H96_19 C151_19 1_555 1_555
C152_17 N10_17 1_555 1_555
C153_17 N66_17 1_555 1_555
C154_19 C144_19 1_555 1_555
C155_19 N68_19 1_555 1_555
C156_19 N69_19 1_555 1_555
C24_17 C25_17 1_555 1_555
N67_17 C153_17 1_555 1_555
N70_19 C156_19 1_555 1_555
C142_17 C147_17 1_555 1_555
C142_17 C153_17 1_555 1_555
C143_17 C148_17 1_555 1_555
C143_17 C152_17 1_555 1_555
C144_19 C149_19 1_555 1_555
C145_19 C150_19 1_555 1_555
C145_19 C156_19 1_555 1_555
C146_19 C151_19 1_555 1_555
C146_19 C155_19 1_555 1_555
N10_18 C26_18 1_555 1_555
C21_18 N64_16 1_555 1_555
H13_18 C21_18 1_555 1_555
C22_18 C21_18 1_555 1_555
H14_18 C22_18 1_555 1_555
C23_18 C22_18 1_555 1_555
H15_18 C23_18 1_555 1_555
C24_18 C23_18 1_555 1_555
C25_18 N64_16 1_555 1_555
H16_18 C25_18 1_555 1_555
C26_18 C24_18 1_555 1_555
N63_13 C127_18 1_555 1_555
N63_6 C128_18 1_555 1_555
N62_10 C130_20 1_555 1_555
N64_13 C131_20 1_555 1_555
N66_18 C152_18 1_555 1_555
N67_18 C26_18 1_555 1_555
N68_20 C154_20 1_555 1_555
N69_20 C155_20 1_555 1_555
N70_20 C154_20 1_555 1_555
C127_18 H77_18 1_555 1_555
C128_18 H78_18 1_555 1_555
C129_20 N65_16 1_555 1_555
C130_20 H80_20 1_555 1_555
C131_20 H81_20 1_555 1_555
H79_20 C129_20 1_555 1_555
C132_18 C127_18 1_555 1_555
C133_18 C128_18 1_555 1_555
C134_20 C129_20 1_555 1_555
C135_20 C130_20 1_555 1_555
C136_20 C131_20 1_555 1_555
H82_18 C132_18 1_555 1_555
H83_18 C133_18 1_555 1_555
H84_20 C134_20 1_555 1_555
H85_20 C135_20 1_555 1_555
H86_20 C136_20 1_555 1_555
C137_18 C132_18 1_555 1_555
C138_18 C133_18 1_555 1_555
C139_20 C134_20 1_555 1_555
C140_20 C135_20 1_555 1_555
C141_20 C136_20 1_555 1_555
H87_18 C137_18 1_555 1_555
H88_18 C138_18 1_555 1_555
H89_20 C139_20 1_555 1_555
H90_20 C140_20 1_555 1_555
H91_20 C141_20 1_555 1_555
C142_18 C137_18 1_555 1_555
C143_18 C138_18 1_555 1_555
C144_20 C139_20 1_555 1_555
C145_20 C140_20 1_555 1_555
C146_20 C141_20 1_555 1_555
C147_18 N63_13 1_555 1_555
C148_18 N63_6 1_555 1_555
C149_20 N65_16 1_555 1_555
C150_20 N62_10 1_555 1_555
C151_20 N64_13 1_555 1_555
H92_18 C147_18 1_555 1_555
H93_18 C148_18 1_555 1_555
H94_20 C149_20 1_555 1_555
H95_20 C150_20 1_555 1_555
H96_20 C151_20 1_555 1_555
C152_18 N10_18 1_555 1_555
C153_18 N66_18 1_555 1_555
C154_20 C144_20 1_555 1_555
C155_20 N68_20 1_555 1_555
C156_20 N69_20 1_555 1_555
C24_18 C25_18 1_555 1_555
N67_18 C153_18 1_555 1_555
N70_20 C156_20 1_555 1_555
C142_18 C147_18 1_555 1_555
C142_18 C153_18 1_555 1_555
C143_18 C148_18 1_555 1_555
C143_18 C152_18 1_555 1_555
C144_20 C149_20 1_555 1_555
C145_20 C150_20 1_555 1_555
C145_20 C156_20 1_555 1_555
C146_20 C151_20 1_555 1_555
C146_20 C155_20 1_555 1_555
N10_19 C26_19 1_555 1_555
C21_19 N62_17 1_555 1_555
H13_19 C21_19 1_555 1_555
C22_19 C21_19 1_555 1_555
H14_19 C22_19 1_555 1_555
C23_19 C22_19 1_555 1_555
H15_19 C23_19 1_555 1_555
C24_19 C23_19 1_555 1_555
C25_19 N62_17 1_555 1_555
H16_19 C25_19 1_555 1_555
C26_19 C24_19 1_555 1_555
N64_12 C127_19 1_555 1_555
N63_21 C128_19 1_555 1_555
N64_8 C130_21 1_555 1_555
N63 C131_21 1_555 1_555
N66_19 C152_19 1_555 1_555
N67_19 C26_19 1_555 1_555
N68_21 C154_21 1_555 1_555
N69_21 C155_21 1_555 1_555
N70_21 C154_21 1_555 1_555
C127_19 H77_19 1_555 1_555
C128_19 H78_19 1_555 1_555
C129_21 N63_17 1_555 1_555
C130_21 H80_21 1_555 1_555
C131_21 H81_21 1_555 1_555
H79_21 C129_21 1_555 1_555
C132_19 C127_19 1_555 1_555
C133_19 C128_19 1_555 1_555
C134_21 C129_21 1_555 1_555
C135_21 C130_21 1_555 1_555
C136_21 C131_21 1_555 1_555
H82_19 C132_19 1_555 1_555
H83_19 C133_19 1_555 1_555
H84_21 C134_21 1_555 1_555
H85_21 C135_21 1_555 1_555
H86_21 C136_21 1_555 1_555
C137_19 C132_19 1_555 1_555
C138_19 C133_19 1_555 1_555
C139_21 C134_21 1_555 1_555
C140_21 C135_21 1_555 1_555
C141_21 C136_21 1_555 1_555
H87_19 C137_19 1_555 1_555
H88_19 C138_19 1_555 1_555
H89_21 C139_21 1_555 1_555
H90_21 C140_21 1_555 1_555
H91_21 C141_21 1_555 1_555
C142_19 C137_19 1_555 1_555
C143_19 C138_19 1_555 1_555
C144_21 C139_21 1_555 1_555
C145_21 C140_21 1_555 1_555
C146_21 C141_21 1_555 1_555
C147_19 N64_12 1_555 1_555
C148_19 N63_21 1_555 1_555
C149_21 N63_17 1_555 1_555
C150_21 N64_8 1_555 1_555
C151_21 N63 1_555 1_555
H92_19 C147_19 1_555 1_555
H93_19 C148_19 1_555 1_555
H94_21 C149_21 1_555 1_555
H95_21 C150_21 1_555 1_555
H96_21 C151_21 1_555 1_555
C152_19 N10_19 1_555 1_555
C153_19 N66_19 1_555 1_555
C154_21 C144_21 1_555 1_555
C155_21 N68_21 1_555 1_555
C156_21 N69_21 1_555 1_555
C24_19 C25_19 1_555 1_555
N67_19 C153_19 1_555 1_555
N70_21 C156_21 1_555 1_555
C142_19 C147_19 1_555 1_555
C142_19 C153_19 1_555 1_555
C143_19 C148_19 1_555 1_555
C143_19 C152_19 1_555 1_555
C144_21 C149_21 1_555 1_555
C145_21 C150_21 1_555 1_555
C145_21 C156_21 1_555 1_555
C146_21 C151_21 1_555 1_555
C146_21 C155_21 1_555 1_555
N10_20 C26_20 1_555 1_555
C21_20 N63_12 1_555 1_555
H13_20 C21_20 1_555 1_555
C22_20 C21_20 1_555 1_555
H14_20 C22_20 1_555 1_555
C23_20 C22_20 1_555 1_555
H15_20 C23_20 1_555 1_555
C24_20 C23_20 1_555 1_555
C25_20 N63_12 1_555 1_555
H16_20 C25_20 1_555 1_555
C26_20 C24_20 1_555 1_555
N65_19 C127_20 1_555 1_555
N65_14 C128_20 1_555 1_555
N62_19 C130_22 1_555 1_555
N65_9 C131_22 1_555 1_555
N66_20 C152_20 1_555 1_555
N67_20 C26_20 1_555 1_555
N68_22 C154_22 1_555 1_555
N69_22 C155_22 1_555 1_555
N70_22 C154_22 1_555 1_555
C127_20 H77_20 1_555 1_555
C128_20 H78_20 1_555 1_555
C129_22 N62_12 1_555 1_555
C130_22 H80_22 1_555 1_555
C131_22 H81_22 1_555 1_555
H79_22 C129_22 1_555 1_555
C132_20 C127_20 1_555 1_555
C133_20 C128_20 1_555 1_555
C134_22 C129_22 1_555 1_555
C135_22 C130_22 1_555 1_555
C136_22 C131_22 1_555 1_555
H82_20 C132_20 1_555 1_555
H83_20 C133_20 1_555 1_555
H84_22 C134_22 1_555 1_555
H85_22 C135_22 1_555 1_555
H86_22 C136_22 1_555 1_555
C137_20 C132_20 1_555 1_555
C138_20 C133_20 1_555 1_555
C139_22 C134_22 1_555 1_555
C140_22 C135_22 1_555 1_555
C141_22 C136_22 1_555 1_555
H87_20 C137_20 1_555 1_555
H88_20 C138_20 1_555 1_555
H89_22 C139_22 1_555 1_555
H90_22 C140_22 1_555 1_555
H91_22 C141_22 1_555 1_555
C142_20 C137_20 1_555 1_555
C143_20 C138_20 1_555 1_555
C144_22 C139_22 1_555 1_555
C145_22 C140_22 1_555 1_555
C146_22 C141_22 1_555 1_555
C147_20 N65_19 1_555 1_555
C148_20 N65_14 1_555 1_555
C149_22 N62_12 1_555 1_555
C150_22 N62_19 1_555 1_555
C151_22 N65_9 1_555 1_555
H92_20 C147_20 1_555 1_555
H93_20 C148_20 1_555 1_555
H94_22 C149_22 1_555 1_555
H95_22 C150_22 1_555 1_555
H96_22 C151_22 1_555 1_555
C152_20 N10_20 1_555 1_555
C153_20 N66_20 1_555 1_555
C154_22 C144_22 1_555 1_555
C155_22 N68_22 1_555 1_555
C156_22 N69_22 1_555 1_555
C24_20 C25_20 1_555 1_555
N67_20 C153_20 1_555 1_555
N70_22 C156_22 1_555 1_555
C142_20 C147_20 1_555 1_555
C142_20 C153_20 1_555 1_555
C143_20 C148_20 1_555 1_555
C143_20 C152_20 1_555 1_555
C144_22 C149_22 1_555 1_555
C145_22 C150_22 1_555 1_555
C145_22 C156_22 1_555 1_555
C146_22 C151_22 1_555 1_555
C146_22 C155_22 1_555 1_555
N10_21 C26_21 1_555 1_555
C21_21 N63_15 1_555 1_555
H13_21 C21_21 1_555 1_555
C22_21 C21_21 1_555 1_555
H14_21 C22_21 1_555 1_555
C23_21 C22_21 1_555 1_555
H15_21 C23_21 1_555 1_555
C24_21 C23_21 1_555 1_555
C25_21 N63_15 1_555 1_555
H16_21 C25_21 1_555 1_555
C26_21 C24_21 1_555 1_555
N63_2 C127_21 1_555 1_555
N65_17 C128_21 1_555 1_555
N63_9 C130_23 1_555 1_555
N64_15 C131_23 1_555 1_555
N66_21 C152_21 1_555 1_555
N67_21 C26_21 1_555 1_555
N68_23 C154_23 1_555 1_555
N69_23 C155_23 1_555 1_555
N70_23 C154_23 1_555 1_555
C127_21 H77_21 1_555 1_555
C128_21 H78_21 1_555 1_555
C129_23 N62_15 1_555 1_555
C130_23 H80_23 1_555 1_555
C131_23 H81_23 1_555 1_555
H79_23 C129_23 1_555 1_555
C132_21 C127_21 1_555 1_555
C133_21 C128_21 1_555 1_555
C134_23 C129_23 1_555 1_555
C135_23 C130_23 1_555 1_555
C136_23 C131_23 1_555 1_555
H82_21 C132_21 1_555 1_555
H83_21 C133_21 1_555 1_555
H84_23 C134_23 1_555 1_555
H85_23 C135_23 1_555 1_555
H86_23 C136_23 1_555 1_555
C137_21 C132_21 1_555 1_555
C138_21 C133_21 1_555 1_555
C139_23 C134_23 1_555 1_555
C140_23 C135_23 1_555 1_555
C141_23 C136_23 1_555 1_555
H87_21 C137_21 1_555 1_555
H88_21 C138_21 1_555 1_555
H89_23 C139_23 1_555 1_555
H90_23 C140_23 1_555 1_555
H91_23 C141_23 1_555 1_555
C142_21 C137_21 1_555 1_555
C143_21 C138_21 1_555 1_555
C144_23 C139_23 1_555 1_555
C145_23 C140_23 1_555 1_555
C146_23 C141_23 1_555 1_555
C147_21 N63_2 1_555 1_555
C148_21 N65_17 1_555 1_555
C149_23 N62_15 1_555 1_555
C150_23 N63_9 1_555 1_555
C151_23 N64_15 1_555 1_555
H92_21 C147_21 1_555 1_555
H93_21 C148_21 1_555 1_555
H94_23 C149_23 1_555 1_555
H95_23 C150_23 1_555 1_555
H96_23 C151_23 1_555 1_555
C152_21 N10_21 1_555 1_555
C153_21 N66_21 1_555 1_555
C154_23 C144_23 1_555 1_555
C155_23 N68_23 1_555 1_555
C156_23 N69_23 1_555 1_555
C24_21 C25_21 1_555 1_555
N67_21 C153_21 1_555 1_555
N70_23 C156_23 1_555 1_555
C142_21 C147_21 1_555 1_555
C142_21 C153_21 1_555 1_555
C143_21 C148_21 1_555 1_555
C143_21 C152_21 1_555 1_555
C144_23 C149_23 1_555 1_555
C145_23 C150_23 1_555 1_555
C145_23 C156_23 1_555 1_555
C146_23 C151_23 1_555 1_555
C146_23 C155_23 1_555 1_555
N62 C130_24 1_555 1_555
N65_3 C131_24 1_555 1_555
N68_24 C154_24 1_555 1_555
N69_24 C155_24 1_555 1_555
N70_24 C154_24 1_555 1_555
C129_24 N65_12 1_555 1_555
C130_24 H80_24 1_555 1_555
C131_24 H81_24 1_555 1_555
H79_24 C129_24 1_555 1_555
C134_24 C129_24 1_555 1_555
C135_24 C130_24 1_555 1_555
C136_24 C131_24 1_555 1_555
H84_24 C134_24 1_555 1_555
H85_24 C135_24 1_555 1_555
H86_24 C136_24 1_555 1_555
C139_24 C134_24 1_555 1_555
C140_24 C135_24 1_555 1_555
C141_24 C136_24 1_555 1_555
H89_24 C139_24 1_555 1_555
H90_24 C140_24 1_555 1_555
H91_24 C141_24 1_555 1_555
C144_24 C139_24 1_555 1_555
C145_24 C140_24 1_555 1_555
C146_24 C141_24 1_555 1_555
C149_24 N65_12 1_555 1_555
C150_24 N62 1_555 1_555
C151_24 N65_3 1_555 1_555
H94_24 C149_24 1_555 1_555
H95_24 C150_24 1_555 1_555
H96_24 C151_24 1_555 1_555
C154_24 C144_24 1_555 1_555
C155_24 N68_24 1_555 1_555
C156_24 N69_24 1_555 1_555
N70_24 C156_24 1_555 1_555
C144_24 C149_24 1_555 1_555
C145_24 C150_24 1_555 1_555
C145_24 C156_24 1_555 1_555
C146_24 C151_24 1_555 1_555
C146_24 C155_24 1_555 1_555
N10_22 C26_22 1_555 1_555
C21_22 N64_10 1_555 1_555
H13_22 C21_22 1_555 1_555
C22_22 C21_22 1_555 1_555
H14_22 C22_22 1_555 1_555
C23_22 C22_22 1_555 1_555
H15_22 C23_22 1_555 1_555
C24_22 C23_22 1_555 1_555
C25_22 N64_10 1_555 1_555
H16_22 C25_22 1_555 1_555
C26_22 C24_22 1_555 1_555
N64 C127_22 1_555 1_555
N62_20 C128_22 1_555 1_555
N63_4 C130_25 1_555 1_555
N64_7 C131_25 1_555 1_555
N66_22 C152_22 1_555 1_555
N67_22 C26_22 1_555 1_555
N68_25 C154_25 1_555 1_555
N69_25 C155_25 1_555 1_555
N70_25 C154_25 1_555 1_555
C127_22 H77_22 1_555 1_555
C128_22 H78_22 1_555 1_555
C129_25 N65_10 1_555 1_555
C130_25 H80_25 1_555 1_555
C131_25 H81_25 1_555 1_555
H79_25 C129_25 1_555 1_555
C132_22 C127_22 1_555 1_555
C133_22 C128_22 1_555 1_555
C134_25 C129_25 1_555 1_555
C135_25 C130_25 1_555 1_555
C136_25 C131_25 1_555 1_555
H82_22 C132_22 1_555 1_555
H83_22 C133_22 1_555 1_555
H84_25 C134_25 1_555 1_555
H85_25 C135_25 1_555 1_555
H86_25 C136_25 1_555 1_555
C137_22 C132_22 1_555 1_555
C138_22 C133_22 1_555 1_555
C139_25 C134_25 1_555 1_555
C140_25 C135_25 1_555 1_555
C141_25 C136_25 1_555 1_555
H87_22 C137_22 1_555 1_555
H88_22 C138_22 1_555 1_555
H89_25 C139_25 1_555 1_555
H90_25 C140_25 1_555 1_555
H91_25 C141_25 1_555 1_555
C142_22 C137_22 1_555 1_555
C143_22 C138_22 1_555 1_555
C144_25 C139_25 1_555 1_555
C145_25 C140_25 1_555 1_555
C146_25 C141_25 1_555 1_555
C147_22 N64 1_555 1_555
C148_22 N62_20 1_555 1_555
C149_25 N65_10 1_555 1_555
C150_25 N63_4 1_555 1_555
C151_25 N64_7 1_555 1_555
H92_22 C147_22 1_555 1_555
H93_22 C148_22 1_555 1_555
H94_25 C149_25 1_555 1_555
H95_25 C150_25 1_555 1_555
H96_25 C151_25 1_555 1_555
C152_22 N10_22 1_555 1_555
C153_22 N66_22 1_555 1_555
C154_25 C144_25 1_555 1_555
C155_25 N68_25 1_555 1_555
C156_25 N69_25 1_555 1_555
C24_22 C25_22 1_555 1_555
N67_22 C153_22 1_555 1_555
N70_25 C156_25 1_555 1_555
C142_22 C147_22 1_555 1_555
C142_22 C153_22 1_555 1_555
C143_22 C148_22 1_555 1_555
C143_22 C152_22 1_555 1_555
C144_25 C149_25 1_555 1_555
C145_25 C150_25 1_555 1_555
C145_25 C156_25 1_555 1_555
C146_25 C151_25 1_555 1_555
C146_25 C155_25 1_555 1_555
N10_23 C26_23 1_555 1_555
C21_23 N65_4 1_555 1_555
H13_23 C21_23 1_555 1_555
C22_23 C21_23 1_555 1_555
H14_23 C22_23 1_555 1_555
C23_23 C22_23 1_555 1_555
H15_23 C23_23 1_555 1_555
C24_23 C23_23 1_555 1_555
C25_23 N65_4 1_555 1_555
H16_23 C25_23 1_555 1_555
C26_23 C24_23 1_555 1_555
N63_23 C127_23 1_555 1_555
N65_18 C128_23 1_555 1_555
N63_25 C130_26 1_555 1_555
N63_8 C131_26 1_555 1_555
N66_23 C152_23 1_555 1_555
N67_23 C26_23 1_555 1_555
N68_26 C154_26 1_555 1_555
N69_26 C155_26 1_555 1_555
N70_26 C154_26 1_555 1_555
C127_23 H77_23 1_555 1_555
C128_23 H78_23 1_555 1_555
C129_26 N64_4 1_555 1_555
C130_26 H80_26 1_555 1_555
C131_26 H81_26 1_555 1_555
H79_26 C129_26 1_555 1_555
C132_23 C127_23 1_555 1_555
C133_23 C128_23 1_555 1_555
C134_26 C129_26 1_555 1_555
C135_26 C130_26 1_555 1_555
C136_26 C131_26 1_555 1_555
H82_23 C132_23 1_555 1_555
H83_23 C133_23 1_555 1_555
H84_26 C134_26 1_555 1_555
H85_26 C135_26 1_555 1_555
H86_26 C136_26 1_555 1_555
C137_23 C132_23 1_555 1_555
C138_23 C133_23 1_555 1_555
C139_26 C134_26 1_555 1_555
C140_26 C135_26 1_555 1_555
C141_26 C136_26 1_555 1_555
H87_23 C137_23 1_555 1_555
H88_23 C138_23 1_555 1_555
H89_26 C139_26 1_555 1_555
H90_26 C140_26 1_555 1_555
H91_26 C141_26 1_555 1_555
C142_23 C137_23 1_555 1_555
C143_23 C138_23 1_555 1_555
C144_26 C139_26 1_555 1_555
C145_26 C140_26 1_555 1_555
C146_26 C141_26 1_555 1_555
C147_23 N63_23 1_555 1_555
C148_23 N65_18 1_555 1_555
C149_26 N64_4 1_555 1_555
C150_26 N63_25 1_555 1_555
C151_26 N63_8 1_555 1_555
H92_23 C147_23 1_555 1_555
H93_23 C148_23 1_555 1_555
H94_26 C149_26 1_555 1_555
H95_26 C150_26 1_555 1_555
H96_26 C151_26 1_555 1_555
C152_23 N10_23 1_555 1_555
C153_23 N66_23 1_555 1_555
C154_26 C144_26 1_555 1_555
C155_26 N68_26 1_555 1_555
C156_26 N69_26 1_555 1_555
C24_23 C25_23 1_555 1_555
N67_23 C153_23 1_555 1_555
N70_26 C156_26 1_555 1_555
C142_23 C147_23 1_555 1_555
C142_23 C153_23 1_555 1_555
C143_23 C148_23 1_555 1_555
C143_23 C152_23 1_555 1_555
C144_26 C149_26 1_555 1_555
C145_26 C150_26 1_555 1_555
C145_26 C156_26 1_555 1_555
C146_26 C151_26 1_555 1_555
C146_26 C155_26 1_555 1_555
N10_24 C26_24 1_555 1_555
C21_24 N62_11 1_555 1_555
H13_24 C21_24 1_555 1_555
C22_24 C21_24 1_555 1_555
H14_24 C22_24 1_555 1_555
C23_24 C22_24 1_555 1_555
H15_24 C23_24 1_555 1_555
C24_24 C23_24 1_555 1_555
C25_24 N62_11 1_555 1_555
H16_24 C25_24 1_555 1_555
C26_24 C24_24 1_555 1_555
N63_14 C127_24 1_555 1_555
N63_27 C128_24 1_555 1_555
N62_7 C130_27 1_555 1_555
N62_16 C131_27 1_555 1_555
N66_24 C152_24 1_555 1_555
N67_24 C26_24 1_555 1_555
N68_27 C154_27 1_555 1_555
N69_27 C155_27 1_555 1_555
N70_27 C154_27 1_555 1_555
C127_24 H77_24 1_555 1_555
C128_24 H78_24 1_555 1_555
C129_27 N63_11 1_555 1_555
C130_27 H80_27 1_555 1_555
C131_27 H81_27 1_555 1_555
H79_27 C129_27 1_555 1_555
C132_24 C127_24 1_555 1_555
C133_24 C128_24 1_555 1_555
C134_27 C129_27 1_555 1_555
C135_27 C130_27 1_555 1_555
C136_27 C131_27 1_555 1_555
H82_24 C132_24 1_555 1_555
H83_24 C133_24 1_555 1_555
H84_27 C134_27 1_555 1_555
H85_27 C135_27 1_555 1_555
H86_27 C136_27 1_555 1_555
C137_24 C132_24 1_555 1_555
C138_24 C133_24 1_555 1_555
C139_27 C134_27 1_555 1_555
C140_27 C135_27 1_555 1_555
C141_27 C136_27 1_555 1_555
H87_24 C137_24 1_555 1_555
H88_24 C138_24 1_555 1_555
H89_27 C139_27 1_555 1_555
H90_27 C140_27 1_555 1_555
H91_27 C141_27 1_555 1_555
C142_24 C137_24 1_555 1_555
C143_24 C138_24 1_555 1_555
C144_27 C139_27 1_555 1_555
C145_27 C140_27 1_555 1_555
C146_27 C141_27 1_555 1_555
C147_24 N63_14 1_555 1_555
C148_24 N63_27 1_555 1_555
C149_27 N63_11 1_555 1_555
C150_27 N62_7 1_555 1_555
C151_27 N62_16 1_555 1_555
H92_24 C147_24 1_555 1_555
H93_24 C148_24 1_555 1_555
H94_27 C149_27 1_555 1_555
H95_27 C150_27 1_555 1_555
H96_27 C151_27 1_555 1_555
C152_24 N10_24 1_555 1_555
C153_24 N66_24 1_555 1_555
C154_27 C144_27 1_555 1_555
C155_27 N68_27 1_555 1_555
C156_27 N69_27 1_555 1_555
C24_24 C25_24 1_555 1_555
N67_24 C153_24 1_555 1_555
N70_27 C156_27 1_555 1_555
C142_24 C147_24 1_555 1_555
C142_24 C153_24 1_555 1_555
C143_24 C148_24 1_555 1_555
C143_24 C152_24 1_555 1_555
C144_27 C149_27 1_555 1_555
C145_27 C150_27 1_555 1_555
C145_27 C156_27 1_555 1_555
C146_27 C151_27 1_555 1_555
C146_27 C155_27 1_555 1_555
N10_25 C26_25 1_555 1_555
C21_25 N62_9 1_555 1_555
H13_25 C21_25 1_555 1_555
C22_25 C21_25 1_555 1_555
H14_25 C22_25 1_555 1_555
C23_25 C22_25 1_555 1_555
H15_25 C23_25 1_555 1_555
C24_25 C23_25 1_555 1_555
C25_25 N62_9 1_555 1_555
H16_25 C25_25 1_555 1_555
C26_25 C24_25 1_555 1_555
N64_17 C127_25 1_555 1_555
N64_11 C128_25 1_555 1_555
N66_25 C152_25 1_555 1_555
N67_25 C26_25 1_555 1_555
C127_25 H77_25 1_555 1_555
C128_25 H78_25 1_555 1_555
C132_25 C127_25 1_555 1_555
C133_25 C128_25 1_555 1_555
H82_25 C132_25 1_555 1_555
H83_25 C133_25 1_555 1_555
C137_25 C132_25 1_555 1_555
C138_25 C133_25 1_555 1_555
H87_25 C137_25 1_555 1_555
H88_25 C138_25 1_555 1_555
C142_25 C137_25 1_555 1_555
C143_25 C138_25 1_555 1_555
C147_25 N64_17 1_555 1_555
C148_25 N64_11 1_555 1_555
H92_25 C147_25 1_555 1_555
H93_25 C148_25 1_555 1_555
C152_25 N10_25 1_555 1_555
C153_25 N66_25 1_555 1_555
C24_25 C25_25 1_555 1_555
N67_25 C153_25 1_555 1_555
C142_25 C147_25 1_555 1_555
C142_25 C153_25 1_555 1_555
C143_25 C148_25 1_555 1_555
C143_25 C152_25 1_555 1_555
N10_26 C26_26 1_555 1_555
C21_26 N63_10 1_555 1_555
H13_26 C21_26 1_555 1_555
C22_26 C21_26 1_555 1_555
H14_26 C22_26 1_555 1_555
C23_26 C22_26 1_555 1_555
H15_26 C23_26 1_555 1_555
C24_26 C23_26 1_555 1_555
C25_26 N63_10 1_555 1_555
H16_26 C25_26 1_555 1_555
C26_26 C24_26 1_555 1_555
N62_6 C127_26 1_555 1_555
N64_2 C128_26 1_555 1_555
N66_26 C152_26 1_555 1_555
N67_26 C26_26 1_555 1_555
C127_26 H77_26 1_555 1_555
C128_26 H78_26 1_555 1_555
C132_26 C127_26 1_555 1_555
C133_26 C128_26 1_555 1_555
H82_26 C132_26 1_555 1_555
H83_26 C133_26 1_555 1_555
C137_26 C132_26 1_555 1_555
C138_26 C133_26 1_555 1_555
H87_26 C137_26 1_555 1_555
H88_26 C138_26 1_555 1_555
C142_26 C137_26 1_555 1_555
C143_26 C138_26 1_555 1_555
C147_26 N62_6 1_555 1_555
C148_26 N64_2 1_555 1_555
H92_26 C147_26 1_555 1_555
H93_26 C148_26 1_555 1_555
C152_26 N10_26 1_555 1_555
C153_26 N66_26 1_555 1_555
C24_26 C25_26 1_555 1_555
N67_26 C153_26 1_555 1_555
C142_26 C147_26 1_555 1_555
C142_26 C153_26 1_555 1_555
C143_26 C148_26 1_555 1_555
C143_26 C152_26 1_555 1_555
N10_27 C26_27 1_555 1_555
C21_27 N62_5 1_555 1_555
H13_27 C21_27 1_555 1_555
C22_27 C21_27 1_555 1_555
H14_27 C22_27 1_555 1_555
C23_27 C22_27 1_555 1_555
H15_27 C23_27 1_555 1_555
C24_27 C23_27 1_555 1_555
C25_27 N62_5 1_555 1_555
H16_27 C25_27 1_555 1_555
C26_27 C24_27 1_555 1_555
N63_22 C127_27 1_555 1_555
N62_18 C128_27 1_555 1_555
N66_27 C152_27 1_555 1_555
N67_27 C26_27 1_555 1_555
C127_27 H77_27 1_555 1_555
C128_27 H78_27 1_555 1_555
C132_27 C127_27 1_555 1_555
C133_27 C128_27 1_555 1_555
H82_27 C132_27 1_555 1_555
H83_27 C133_27 1_555 1_555
C137_27 C132_27 1_555 1_555
C138_27 C133_27 1_555 1_555
H87_27 C137_27 1_555 1_555
H88_27 C138_27 1_555 1_555
C142_27 C137_27 1_555 1_555
C143_27 C138_27 1_555 1_555
C147_27 N63_22 1_555 1_555
C148_27 N62_18 1_555 1_555
H92_27 C147_27 1_555 1_555
H93_27 C148_27 1_555 1_555
C152_27 N10_27 1_555 1_555
C153_27 N66_27 1_555 1_555
C24_27 C25_27 1_555 1_555
N67_27 C153_27 1_555 1_555
C142_27 C147_27 1_555 1_555
C142_27 C153_27 1_555 1_555
C143_27 C148_27 1_555 1_555
C143_27 C152_27 1_555 1_555
N10_28 C26_28 1_555 1_555
C21_28 N63_26 1_555 1_555
H13_28 C21_28 1_555 1_555
C22_28 C21_28 1_555 1_555
H14_28 C22_28 1_555 1_555
C23_28 C22_28 1_555 1_555
H15_28 C23_28 1_555 1_555
C24_28 C23_28 1_555 1_555
C25_28 N63_26 1_555 1_555
H16_28 C25_28 1_555 1_555
C26_28 C24_28 1_555 1_555
N63_7 C127_28 1_555 1_555
N62_27 C128_28 1_555 1_555
N62_14 C130_28 1_555 1_555
N63_16 C131_28 1_555 1_555
N66_28 C152_28 1_555 1_555
N67_28 C26_28 1_555 1_555
N68_28 C154_28 1_555 1_555
N69_28 C155_28 1_555 1_555
N70_28 C154_28 1_555 1_555
C127_28 H77_28 1_555 1_555
C128_28 H78_28 1_555 1_555
C129_28 N62_26 1_555 1_555
C130_28 H80_28 1_555 1_555
C131_28 H81_28 1_555 1_555
H79_28 C129_28 1_555 1_555
C132_28 C127_28 1_555 1_555
C133_28 C128_28 1_555 1_555
C134_28 C129_28 1_555 1_555
C135_28 C130_28 1_555 1_555
C136_28 C131_28 1_555 1_555
H82_28 C132_28 1_555 1_555
H83_28 C133_28 1_555 1_555
H84_28 C134_28 1_555 1_555
H85_28 C135_28 1_555 1_555
H86_28 C136_28 1_555 1_555
C137_28 C132_28 1_555 1_555
C138_28 C133_28 1_555 1_555
C139_28 C134_28 1_555 1_555
C140_28 C135_28 1_555 1_555
C141_28 C136_28 1_555 1_555
H87_28 C137_28 1_555 1_555
H88_28 C138_28 1_555 1_555
H89_28 C139_28 1_555 1_555
H90_28 C140_28 1_555 1_555
H91_28 C141_28 1_555 1_555
C142_28 C137_28 1_555 1_555
C143_28 C138_28 1_555 1_555
C144_28 C139_28 1_555 1_555
C145_28 C140_28 1_555 1_555
C146_28 C141_28 1_555 1_555
C147_28 N63_7 1_555 1_555
C148_28 N62_27 1_555 1_555
C149_28 N62_26 1_555 1_555
C150_28 N62_14 1_555 1_555
C151_28 N63_16 1_555 1_555
H92_28 C147_28 1_555 1_555
H93_28 C148_28 1_555 1_555
H94_28 C149_28 1_555 1_555
H95_28 C150_28 1_555 1_555
H96_28 C151_28 1_555 1_555
C152_28 N10_28 1_555 1_555
C153_28 N66_28 1_555 1_555
C154_28 C144_28 1_555 1_555
C155_28 N68_28 1_555 1_555
C156_28 N69_28 1_555 1_555
C24_28 C25_28 1_555 1_555
N67_28 C153_28 1_555 1_555
N70_28 C156_28 1_555 1_555
C142_28 C147_28 1_555 1_555
C142_28 C153_28 1_555 1_555
C143_28 C148_28 1_555 1_555
C143_28 C152_28 1_555 1_555
C144_28 C149_28 1_555 1_555
C145_28 C150_28 1_555 1_555
C145_28 C156_28 1_555 1_555
C146_28 C151_28 1_555 1_555
C146_28 C155_28 1_555 1_555
N62_28 C130_29 1_555 1_555
N64_19 C131_29 1_555 1_555
N68_29 C154_29 1_555 1_555
N69_29 C155_29 1_555 1_555
N70_29 C154_29 1_555 1_555
C129_29 N64_9 1_555 1_555
C130_29 H80_29 1_555 1_555
C131_29 H81_29 1_555 1_555
H79_29 C129_29 1_555 1_555
C134_29 C129_29 1_555 1_555
C135_29 C130_29 1_555 1_555
C136_29 C131_29 1_555 1_555
H84_29 C134_29 1_555 1_555
H85_29 C135_29 1_555 1_555
H86_29 C136_29 1_555 1_555
C139_29 C134_29 1_555 1_555
C140_29 C135_29 1_555 1_555
C141_29 C136_29 1_555 1_555
H89_29 C139_29 1_555 1_555
H90_29 C140_29 1_555 1_555
H91_29 C141_29 1_555 1_555
C144_29 C139_29 1_555 1_555
C145_29 C140_29 1_555 1_555
C146_29 C141_29 1_555 1_555
C149_29 N64_9 1_555 1_555
C150_29 N62_28 1_555 1_555
C151_29 N64_19 1_555 1_555
H94_29 C149_29 1_555 1_555
H95_29 C150_29 1_555 1_555
H96_29 C151_29 1_555 1_555
C154_29 C144_29 1_555 1_555
C155_29 N68_29 1_555 1_555
C156_29 N69_29 1_555 1_555
N70_29 C156_29 1_555 1_555
C144_29 C149_29 1_555 1_555
C145_29 C150_29 1_555 1_555
C145_29 C156_29 1_555 1_555
C146_29 C151_29 1_555 1_555
C146_29 C155_29 1_555 1_555
N62_21 C130_30 1_555 1_555
N64_3 C131_30 1_555 1_555
N68_30 C154_30 1_555 1_555
N69_30 C155_30 1_555 1_555
N70_30 C154_30 1_555 1_555
C129_30 N65_8 1_555 1_555
C130_30 H80_30 1_555 1_555
C131_30 H81_30 1_555 1_555
H79_30 C129_30 1_555 1_555
C134_30 C129_30 1_555 1_555
C135_30 C130_30 1_555 1_555
C136_30 C131_30 1_555 1_555
H84_30 C134_30 1_555 1_555
H85_30 C135_30 1_555 1_555
H86_30 C136_30 1_555 1_555
C139_30 C134_30 1_555 1_555
C140_30 C135_30 1_555 1_555
C141_30 C136_30 1_555 1_555
H89_30 C139_30 1_555 1_555
H90_30 C140_30 1_555 1_555
H91_30 C141_30 1_555 1_555
C144_30 C139_30 1_555 1_555
C145_30 C140_30 1_555 1_555
C146_30 C141_30 1_555 1_555
C149_30 N65_8 1_555 1_555
C150_30 N62_21 1_555 1_555
C151_30 N64_3 1_555 1_555
H94_30 C149_30 1_555 1_555
H95_30 C150_30 1_555 1_555
H96_30 C151_30 1_555 1_555
C154_30 C144_30 1_555 1_555
C155_30 N68_30 1_555 1_555
C156_30 N69_30 1_555 1_555
N70_30 C156_30 1_555 1_555
C144_30 C149_30 1_555 1_555
C145_30 C150_30 1_555 1_555
C145_30 C156_30 1_555 1_555
C146_30 C151_30 1_555 1_555
C146_30 C155_30 1_555 1_555
N63_20 C130_31 1_555 1_555
N64_6 C131_31 1_555 1_555
N68_31 C154_31 1_555 1_555
N69_31 C155_31 1_555 1_555
N70_31 C154_31 1_555 1_555
C129_31 N62_4 1_555 1_555
C130_31 H80_31 1_555 1_555
C131_31 H81_31 1_555 1_555
H79_31 C129_31 1_555 1_555
C134_31 C129_31 1_555 1_555
C135_31 C130_31 1_555 1_555
C136_31 C131_31 1_555 1_555
H84_31 C134_31 1_555 1_555
H85_31 C135_31 1_555 1_555
H86_31 C136_31 1_555 1_555
C139_31 C134_31 1_555 1_555
C140_31 C135_31 1_555 1_555
C141_31 C136_31 1_555 1_555
H89_31 C139_31 1_555 1_555
H90_31 C140_31 1_555 1_555
H91_31 C141_31 1_555 1_555
C144_31 C139_31 1_555 1_555
C145_31 C140_31 1_555 1_555
C146_31 C141_31 1_555 1_555
C149_31 N62_4 1_555 1_555
C150_31 N63_20 1_555 1_555
C151_31 N64_6 1_555 1_555
H94_31 C149_31 1_555 1_555
H95_31 C150_31 1_555 1_555
H96_31 C151_31 1_555 1_555
C154_31 C144_31 1_555 1_555
C155_31 N68_31 1_555 1_555
C156_31 N69_31 1_555 1_555
N70_31 C156_31 1_555 1_555
C144_31 C149_31 1_555 1_555
C145_31 C150_31 1_555 1_555
C145_31 C156_31 1_555 1_555
C146_31 C151_31 1_555 1_555
C146_31 C155_31 1_555 1_555
N62_13 C130_32 1_555 1_555
N65_13 C131_32 1_555 1_555
N68_32 C154_32 1_555 1_555
N69_32 C155_32 1_555 1_555
N70_32 C154_32 1_555 1_555
C129_32 N65_2 1_555 1_555
C130_32 H80_32 1_555 1_555
C131_32 H81_32 1_555 1_555
H79_32 C129_32 1_555 1_555
C134_32 C129_32 1_555 1_555
C135_32 C130_32 1_555 1_555
C136_32 C131_32 1_555 1_555
H84_32 C134_32 1_555 1_555
H85_32 C135_32 1_555 1_555
H86_32 C136_32 1_555 1_555
C139_32 C134_32 1_555 1_555
C140_32 C135_32 1_555 1_555
C141_32 C136_32 1_555 1_555
H89_32 C139_32 1_555 1_555
H90_32 C140_32 1_555 1_555
H91_32 C141_32 1_555 1_555
C144_32 C139_32 1_555 1_555
C145_32 C140_32 1_555 1_555
C146_32 C141_32 1_555 1_555
C149_32 N65_2 1_555 1_555
C150_32 N62_13 1_555 1_555
C151_32 N65_13 1_555 1_555
H94_32 C149_32 1_555 1_555
H95_32 C150_32 1_555 1_555
H96_32 C151_32 1_555 1_555
C154_32 C144_32 1_555 1_555
C155_32 N68_32 1_555 1_555
C156_32 N69_32 1_555 1_555
N70_32 C156_32 1_555 1_555
C144_32 C149_32 1_555 1_555
C145_32 C150_32 1_555 1_555
C145_32 C156_32 1_555 1_555
C146_32 C151_32 1_555 1_555
C146_32 C155_32 1_555 1_555
N63_28 C130_33 1_555 1_555
N63_19 C131_33 1_555 1_555
N68_33 C154_33 1_555 1_555
N69_33 C155_33 1_555 1_555
N70_33 C154_33 1_555 1_555
C129_33 N64_14 1_555 1_555
C130_33 H80_33 1_555 1_555
C131_33 H81_33 1_555 1_555
H79_33 C129_33 1_555 1_555
C134_33 C129_33 1_555 1_555
C135_33 C130_33 1_555 1_555
C136_33 C131_33 1_555 1_555
H84_33 C134_33 1_555 1_555
H85_33 C135_33 1_555 1_555
H86_33 C136_33 1_555 1_555
C139_33 C134_33 1_555 1_555
C140_33 C135_33 1_555 1_555
C141_33 C136_33 1_555 1_555
H89_33 C139_33 1_555 1_555
H90_33 C140_33 1_555 1_555
H91_33 C141_33 1_555 1_555
C144_33 C139_33 1_555 1_555
C145_33 C140_33 1_555 1_555
C146_33 C141_33 1_555 1_555
C149_33 N64_14 1_555 1_555
C150_33 N63_28 1_555 1_555
C151_33 N63_19 1_555 1_555
H94_33 C149_33 1_555 1_555
H95_33 C150_33 1_555 1_555
H96_33 C151_33 1_555 1_555
C154_33 C144_33 1_555 1_555
C155_33 N68_33 1_555 1_555
C156_33 N69_33 1_555 1_555
N70_33 C156_33 1_555 1_555
C144_33 C149_33 1_555 1_555
C145_33 C150_33 1_555 1_555
C145_33 C156_33 1_555 1_555
C146_33 C151_33 1_555 1_555
C146_33 C155_33 1_555 1_555
N10_29 C26_29 1_555 1_555
C21_29 N62_22 1_555 1_555
H13_29 C21_29 1_555 1_555
C22_29 C21_29 1_555 1_555
H14_29 C22_29 1_555 1_555
C23_29 C22_29 1_555 1_555
H15_29 C23_29 1_555 1_555
C24_29 C23_29 1_555 1_555
C25_29 N62_22 1_555 1_555
H16_29 C25_29 1_555 1_555
C26_29 C24_29 1_555 1_555
N63_3 C127_29 1_555 1_555
N63_24 C128_29 1_555 1_555
N66_29 C152_29 1_555 1_555
N67_29 C26_29 1_555 1_555
C127_29 H77_29 1_555 1_555
C128_29 H78_29 1_555 1_555
C132_29 C127_29 1_555 1_555
C133_29 C128_29 1_555 1_555
H82_29 C132_29 1_555 1_555
H83_29 C133_29 1_555 1_555
C137_29 C132_29 1_555 1_555
C138_29 C133_29 1_555 1_555
H87_29 C137_29 1_555 1_555
H88_29 C138_29 1_555 1_555
C142_29 C137_29 1_555 1_555
C143_29 C138_29 1_555 1_555
C147_29 N63_3 1_555 1_555
C148_29 N63_24 1_555 1_555
H92_29 C147_29 1_555 1_555
H93_29 C148_29 1_555 1_555
C152_29 N10_29 1_555 1_555
C153_29 N66_29 1_555 1_555
C24_29 C25_29 1_555 1_555
N67_29 C153_29 1_555 1_555
C142_29 C147_29 1_555 1_555
C142_29 C153_29 1_555 1_555
C143_29 C148_29 1_555 1_555
C143_29 C152_29 1_555 1_555
N65_15 C130_34 1_555 1_555
N65_11 C131_34 1_555 1_555
N68_34 C154_34 1_555 1_555
N69_34 C155_34 1_555 1_555
N70_34 C154_34 1_555 1_555
C129_34 N62_2 1_555 1_555
C130_34 H80_34 1_555 1_555
C131_34 H81_34 1_555 1_555
H79_34 C129_34 1_555 1_555
C134_34 C129_34 1_555 1_555
C135_34 C130_34 1_555 1_555
C136_34 C131_34 1_555 1_555
H84_34 C134_34 1_555 1_555
H85_34 C135_34 1_555 1_555
H86_34 C136_34 1_555 1_555
C139_34 C134_34 1_555 1_555
C140_34 C135_34 1_555 1_555
C141_34 C136_34 1_555 1_555
H89_34 C139_34 1_555 1_555
H90_34 C140_34 1_555 1_555
H91_34 C141_34 1_555 1_555
C144_34 C139_34 1_555 1_555
C145_34 C140_34 1_555 1_555
C146_34 C141_34 1_555 1_555
C149_34 N62_2 1_555 1_555
C150_34 N65_15 1_555 1_555
C151_34 N65_11 1_555 1_555
H94_34 C149_34 1_555 1_555
H95_34 C150_34 1_555 1_555
H96_34 C151_34 1_555 1_555
C154_34 C144_34 1_555 1_555
C155_34 N68_34 1_555 1_555
C156_34 N69_34 1_555 1_555
N70_34 C156_34 1_555 1_555
C144_34 C149_34 1_555 1_555
C145_34 C150_34 1_555 1_555
C145_34 C156_34 1_555 1_555
C146_34 C151_34 1_555 1_555
C146_34 C155_34 1_555 1_555
N10_30 C26_30 1_555 1_555
C21_30 N65 1_555 1_555
H13_30 C21_30 1_555 1_555
C22_30 C21_30 1_555 1_555
H14_30 C22_30 1_555 1_555
C23_30 C22_30 1_555 1_555
H15_30 C23_30 1_555 1_555
C24_30 C23_30 1_555 1_555
C25_30 N65 1_555 1_555
H16_30 C25_30 1_555 1_555
C26_30 C24_30 1_555 1_555
N65_7 C127_30 1_555 1_555
N65_6 C128_30 1_555 1_555
N66_30 C152_30 1_555 1_555
N67_30 C26_30 1_555 1_555
C127_30 H77_30 1_555 1_555
C128_30 H78_30 1_555 1_555
C132_30 C127_30 1_555 1_555
C133_30 C128_30 1_555 1_555
H82_30 C132_30 1_555 1_555
H83_30 C133_30 1_555 1_555
C137_30 C132_30 1_555 1_555
C138_30 C133_30 1_555 1_555
H87_30 C137_30 1_555 1_555
H88_30 C138_30 1_555 1_555
C142_30 C137_30 1_555 1_555
C143_30 C138_30 1_555 1_555
C147_30 N65_7 1_555 1_555
C148_30 N65_6 1_555 1_555
H92_30 C147_30 1_555 1_555
H93_30 C148_30 1_555 1_555
C152_30 N10_30 1_555 1_555
C153_30 N66_30 1_555 1_555
C24_30 C25_30 1_555 1_555
N67_30 C153_30 1_555 1_555
C142_30 C147_30 1_555 1_555
C142_30 C153_30 1_555 1_555
C143_30 C148_30 1_555 1_555
C143_30 C152_30 1_555 1_555

#END
