
###############################################################################
#
# This file contains modified crystal structure data generated from the
# MOF subset of the Cambridge Structural Database (CSD) v543 
# hosted by the Cambridge Crystallographic Data Centre (CCDC).
#
# This work is licensed under the Creative Commons
# Attribution-NonCommercial-ShareAlike 4.0 International License.
# To view a copy of this license, visit
# http://creativecommons.org/licenses/by-nc-sa/4.0/
# or send a letter to
# Creative Commons, PO Box 1866, Mountain View, CA 94042, USA.
#
# CIF created using the CSD Python API on 29 September 2022
# The structure has been converted into the P1 space group
# The structure has a 3D framework
# The original CSD entry LAFRER is in the cubic crystal system
# The framework has been calculated to contain at least 10.0% void space
# The void calculation uses a probe of radius 1.32A, grid spacing 0.4
#
###############################################################################

data_LAFRER
_chemical_formula_moiety         '(C4992 H3072 Co216 N1920 S384)n'
_symmetry_cell_setting           triclinic
_symmetry_space_group_name_H-M   'P 1'
_symmetry_Int_Tables_number      1
_space_group_name_Hall           'P 1'
loop_
_symmetry_equiv_pos_site_id
_symmetry_equiv_pos_as_xyz
1 x,y,z
_cell_length_a                   64.412(10)
_cell_length_b                   64.412(10)
_cell_length_c                   64.412(10)
_cell_angle_alpha                90
_cell_angle_beta                 90
_cell_angle_gamma                90
_cell_volume                     267239
loop_
_atom_site_label
_atom_site_type_symbol
_atom_site_fract_x
_atom_site_fract_y
_atom_site_fract_z
Co1 Co 0.121072(19) 0.2500 0.378928(19)
Co2 Co 0.1250 0.1250 0.25144(2)
N1 N 0.13708(10) 0.27320(9) 0.39394(10)
N2 N 0.09293(12) 0.12329(10) 0.25058(9)
N3 N 0.23474(10) 0.13435(9) 0.34101(10)
N4 N 0.15072(11) 0.23344(10) 0.37501(10)
N5 N 0.15473(10) 0.18848(10) 0.32947(10)
N6 N 0.18852(9) 0.17919(10) 0.33997(10)
N7 N 0.17314(10) 0.16224(10) 0.31119(9)
N8 N 0.12248(10) 0.14926(10) 0.27453(10)
N9 N 0.12516(10) 0.09915(10) 0.22928(10)
N10 N 0.17186(11) 0.09409(12) 0.18610(11)
S1 S 0.16216(5) 0.29698(5) 0.41980(5)
S2 S 0.05061(7) 0.11856(15) 0.24559(7)
C1 C 0.14741(13) 0.28381(12) 0.40456(12)
C2 C 0.21902(12) 0.14834(11) 0.34018(12)
H1 H 0.2163 0.1565 0.3521
C3 C 0.20698(12) 0.15126(11) 0.32314(12)
C4 C 0.21112(14) 0.14017(15) 0.30482(16)
H2 H 0.2029 0.1419 0.2927
C5 C 0.22757(15) 0.12677(16) 0.30540(17)
H3 H 0.2313 0.1193 0.2933
C6 C 0.23863(15) 0.12404(14) 0.32314(16)
H4 H 0.2497 0.1143 0.3230
C7 C 0.16627(15) 0.23465(15) 0.38923(16)
H5 H 0.1654 0.2448 0.3999
C8 C 0.18277(17) 0.22190(16) 0.38865(17)
H6 H 0.1930 0.2228 0.3992
C9 C 0.18504(16) 0.20780(15) 0.37326(15)
H7 H 0.1969 0.1990 0.3729
C10 C 0.16995(13) 0.20626(12) 0.35801(13)
C11 C 0.15296(12) 0.21918(11) 0.35960(12)
H8 H 0.1423 0.2181 0.3495
C12 C 0.17125(12) 0.19041(11) 0.34145(12)
C13 C 0.18837(11) 0.16545(12) 0.32471(12)
C14 C 0.15670(12) 0.17385(12) 0.31435(12)
C15 C 0.10594(14) 0.16191(15) 0.27549(14)
H9 H 0.0947 0.1593 0.2663
C16 C 0.10426(15) 0.17836(15) 0.28890(15)
H10 H 0.0921 0.1867 0.2892
C17 C 0.12096(14) 0.18251(13) 0.30202(14)
H11 H 0.1203 0.1938 0.3115
C18 C 0.13804(13) 0.17051(12) 0.30119(12)
C19 C 0.13826(11) 0.15321(12) 0.28735(11)
H12 H 0.1500 0.1442 0.2873
C20 C 0.11165(16) 0.08377(15) 0.23166(14)
H13 H 0.1008 0.0854 0.2416
C21 C 0.1126(2) 0.06531(17) 0.22020(17)
H14 H 0.1033 0.0542 0.2229
C22 C 0.12750(16) 0.06380(15) 0.20485(16)
H15 H 0.1282 0.0518 0.1964
C23 C 0.14131(14) 0.07984(14) 0.20191(13)
C24 C 0.13931(13) 0.09738(12) 0.21472(12)
H16 H 0.1487 0.1086 0.2127
C25 C 0.15725(14) 0.07921(13) 0.18569(13)
C26 C 0.07544(19) 0.1218(2) 0.24851(14)
Co3 Co -0.0000 0.121072(19) 0.371072(19)
Co4 Co 0.128928(19) 0.378928(19) 0.5000
Co5 Co 0.2500 0.128928(19) 0.371072(19)
Co6 Co 0.128928(19) 0.371072(19) 0.2500
Co7 Co 0.128928(19) 0.0000 0.378928(19)
Co9 Co 0.1250 0.1250 0.49856(2)
Co10 Co 0.00144(2) 0.3750 0.3750
Co12 Co 0.25144(2) 0.1250 0.1250
Co13 Co 0.24856(2) 0.3750 0.3750
Co14 Co 0.1250 0.25144(2) 0.1250
N11 N 0.10606(10) 0.22680(9) 0.36292(10)
N13 N 0.02320(9) 0.10606(10) 0.38708(10)
N14 N 0.14394(10) 0.36292(10) 0.52320(9)
N15 N 0.11292(10) 0.39394(10) 0.47680(9)
N16 N 0.15707(12) 0.12671(10) 0.25058(9)
N17 N 0.12671(10) 0.09293(12) 0.49942(9)
N18 N 0.12329(10) 0.15707(12) 0.49942(9)
N19 N 0.00058(9) 0.40707(12) 0.37329(10)
N20 N 0.00058(9) 0.34293(12) 0.37671(10)
N21 N 0.11565(9) 0.23474(10) 0.40899(10)
N22 N 0.09101(10) 0.26526(10) 0.38435(9)
N23 N 0.15899(10) 0.36565(9) 0.26526(10)
N24 N 0.01526(10) 0.11565(9) 0.34101(10)
N26 N 0.15899(10) 0.38435(9) 0.48474(10)
N27 N 0.13435(9) 0.40899(10) 0.51526(10)
N28 N 0.01656(10) 0.15072(11) 0.37499(10)
N29 N 0.12501(10) 0.34928(11) 0.48344(10)
N30 N 0.12499(10) 0.26656(10) 0.34928(11)
N31 N 0.09928(11) 0.01656(10) 0.37501(10)
N34 N 0.09928(11) 0.37501(10) 0.51656(10)
N35 N 0.06152(10) 0.15473(10) 0.42053(10)
N36 N 0.07947(10) 0.34527(10) 0.43848(10)
N37 N 0.17053(10) 0.31152(10) 0.34527(10)
N38 N 0.09527(10) 0.06152(10) 0.32947(10)
N40 N 0.07081(10) 0.18852(9) 0.41003(10)
N41 N 0.08997(10) 0.31148(9) 0.42919(10)
N42 N 0.16003(10) 0.32081(10) 0.31148(9)
N43 N 0.06148(9) 0.07081(10) 0.33997(10)
N45 N 0.08776(10) 0.17314(10) 0.43881(9)
N46 N 0.06119(9) 0.32686(10) 0.41224(10)
N47 N 0.18881(9) 0.33776(10) 0.32686(10)
N48 N 0.07686(10) 0.08776(10) 0.31119(9)
N50 N 0.10074(10) 0.12248(10) 0.47547(10)
N51 N 0.02453(10) 0.37752(10) 0.39926(10)
N52 N 0.22547(10) 0.35074(10) 0.37752(10)
N53 N 0.12752(10) 0.10074(10) 0.27453(10)
N55 N 0.14926(10) 0.12752(10) 0.47547(10)
N56 N 0.02453(10) 0.37248(10) 0.35074(10)
N57 N 0.15085(10) 0.02072(10) 0.12516(10)
N58 N 0.22928(10) 0.12484(10) 0.15085(10)
N59 N 0.12484(10) 0.15085(10) 0.22928(10)
N60 N 0.09915(10) 0.22928(10) 0.12516(10)
N61 N 0.02072(10) 0.12516(10) 0.15085(10)
N62 N 0.15085(10) 0.12516(10) 0.52072(10)
N63 N 0.09915(10) 0.12484(10) 0.52072(10)
N66 N 0.18610(11) 0.07814(11) 0.15591(12)
N67 N 0.15591(12) 0.06390(11) 0.17186(11)
N68 N 0.07814(11) 0.15591(12) 0.18610(11)
N69 N 0.06390(11) 0.17186(11) 0.15591(12)
N70 N 0.09409(12) 0.18610(11) 0.17186(11)
S3 S 0.08020(5) 0.20302(5) 0.33784(5)
S5 S 0.04698(5) 0.08020(5) 0.41216(5)
S6 S 0.16980(5) 0.33784(5) 0.54698(5)
S7 S 0.08784(5) 0.41980(5) 0.45302(5)
S8 S 0.19939(7) 0.13144(15) 0.24559(7)
S9 S 0.13144(15) 0.05061(7) 0.50441(7)
S10 S 0.11856(15) 0.19939(7) 0.50441(7)
C27 C 0.09544(12) 0.21619(12) 0.35259(13)
C29 C 0.03381(12) 0.09544(12) 0.39741(13)
C30 C 0.15456(12) 0.35259(13) 0.53381(12)
C31 C 0.10259(13) 0.40456(12) 0.46619(12)
C32 C 0.10166(11) 0.21902(12) 0.40982(12)
C33 C 0.09018(12) 0.28098(12) 0.39834(11)
C34 C 0.15982(12) 0.35166(11) 0.28098(12)
C35 C 0.03098(12) 0.10166(11) 0.34018(12)
H17 H 0.0935 0.2163 0.3979
H18 H 0.1021 0.2837 0.4065
H19 H 0.1479 0.3435 0.2837
H20 H 0.0337 0.0935 0.3521
C37 C 0.09874(11) 0.20698(12) 0.42686(12)
C38 C 0.07314(12) 0.29302(12) 0.40126(11)
C39 C 0.17686(12) 0.34874(11) 0.29302(12)
C40 C 0.04302(12) 0.09874(11) 0.32314(12)
C42 C 0.10983(15) 0.21112(14) 0.44518(16)
C43 C 0.05482(16) 0.28888(14) 0.39017(15)
C44 C 0.19518(16) 0.35983(15) 0.28888(14)
C45 C 0.03888(14) 0.10983(15) 0.30482(16)
H22 H 0.1081 0.2029 0.4573
H23 H 0.0427 0.2971 0.3919
H24 H 0.2073 0.3581 0.2971
H25 H 0.0471 0.1081 0.2927
C47 C 0.12323(16) 0.22757(15) 0.44460(17)
C48 C 0.05540(17) 0.27243(15) 0.37677(16)
C49 C 0.19460(17) 0.37323(16) 0.27243(15)
C50 C 0.02243(15) 0.12323(16) 0.30540(17)
H27 H 0.1307 0.2313 0.4567
H28 H 0.0433 0.2687 0.3693
H29 H 0.2067 0.3807 0.2687
H30 H 0.0187 0.1307 0.2933
C52 C 0.12596(14) 0.23863(15) 0.42686(16)
C53 C 0.07314(16) 0.26137(15) 0.37404(14)
C54 C 0.17686(16) 0.37596(14) 0.26137(15)
C55 C 0.01137(15) 0.12596(14) 0.32314(16)
H32 H 0.1357 0.2497 0.4270
H33 H 0.0730 0.2503 0.3643
H34 H 0.1770 0.3857 0.2503
H35 H 0.0003 0.1357 0.3230
C57 C 0.01535(15) 0.16627(15) 0.36077(16)
C58 C 0.13923(16) 0.33373(15) 0.48465(15)
C59 C 0.11077(16) 0.26535(15) 0.33373(15)
C60 C 0.08373(15) 0.01535(15) 0.38923(16)
H37 H 0.0052 0.1654 0.3501
H38 H 0.1499 0.3346 0.4948
H39 H 0.1001 0.2552 0.3346
H40 H 0.0846 0.0052 0.3999
C62 C 0.02810(16) 0.18277(17) 0.36135(17)
C63 C 0.13865(17) 0.31723(17) 0.47190(16)
C64 C 0.11135(17) 0.27810(16) 0.31723(17)
C65 C 0.06723(17) 0.02810(16) 0.38865(17)
H42 H 0.0272 0.1930 0.3508
H43 H 0.1492 0.3070 0.4728
H44 H 0.1008 0.2772 0.3070
H45 H 0.0570 0.0272 0.3992
C67 C 0.04220(15) 0.18504(16) 0.37674(15)
C68 C 0.12326(15) 0.31496(16) 0.45780(15)
C69 C 0.12674(15) 0.29220(15) 0.31496(16)
C70 C 0.06496(16) 0.04220(15) 0.37326(15)
H47 H 0.0510 0.1969 0.3771
H48 H 0.1229 0.3031 0.4490
H49 H 0.1271 0.3010 0.3031
H50 H 0.0531 0.0510 0.3729
C72 C 0.04374(12) 0.16995(13) 0.39199(13)
C73 C 0.10801(13) 0.33005(13) 0.45626(12)
C74 C 0.14199(13) 0.29374(12) 0.33005(13)
C75 C 0.08005(13) 0.04374(12) 0.35801(13)
C77 C 0.03082(11) 0.15296(12) 0.39040(12)
C78 C 0.10960(12) 0.34704(12) 0.46918(11)
C79 C 0.14040(12) 0.28082(11) 0.34704(12)
C80 C 0.09704(12) 0.03082(11) 0.35960(12)
H52 H 0.0319 0.1423 0.4005
H53 H 0.0995 0.3577 0.4681
H54 H 0.1505 0.2819 0.3577
H55 H 0.1077 0.0319 0.3495
C82 C 0.05959(11) 0.17125(12) 0.40855(12)
C83 C 0.09145(12) 0.32875(12) 0.44041(11)
C84 C 0.15855(12) 0.30959(11) 0.32875(12)
C85 C 0.07875(12) 0.05959(11) 0.34145(12)
C87 C 0.08455(12) 0.18837(11) 0.42529(12)
C88 C 0.07471(12) 0.31163(11) 0.41545(12)
C89 C 0.17529(12) 0.33455(12) 0.31163(11)
C90 C 0.06163(11) 0.08455(12) 0.32471(12)
C92 C 0.07615(12) 0.15670(12) 0.43565(12)
C93 C 0.06435(12) 0.34330(12) 0.42385(12)
C94 C 0.18565(12) 0.32615(12) 0.34330(12)
C95 C 0.09330(12) 0.07615(12) 0.31435(12)
C97 C 0.08809(15) 0.10594(14) 0.47451(14)
C98 C 0.02549(14) 0.39406(14) 0.41191(15)
C99 C 0.22451(14) 0.33809(15) 0.39406(14)
C100 C 0.14406(14) 0.08809(15) 0.27549(14)
H57 H 0.0907 0.0947 0.4837
H58 H 0.0163 0.4053 0.4093
H59 H 0.2337 0.3407 0.4053
H60 H 0.1553 0.0907 0.2663
C102 C 0.07164(15) 0.10426(15) 0.46110(15)
C103 C 0.03890(15) 0.39574(15) 0.42836(15)
C104 C 0.21110(15) 0.32164(15) 0.39574(15)
C105 C 0.14574(15) 0.07164(15) 0.28890(15)
H62 H 0.0633 0.0921 0.4608
H63 H 0.0392 0.4079 0.4367
H64 H 0.2108 0.3133 0.4079
H65 H 0.1579 0.0633 0.2892
C107 C 0.06749(13) 0.12096(14) 0.44798(14)
C108 C 0.05202(14) 0.37904(14) 0.43251(13)
C109 C 0.19798(14) 0.31749(13) 0.37904(14)
C110 C 0.12904(14) 0.06749(13) 0.30202(14)
H67 H 0.0562 0.1203 0.4385
H68 H 0.0615 0.3797 0.4438
H69 H 0.1885 0.3062 0.3797
H70 H 0.1297 0.0562 0.3115
C112 C 0.07949(12) 0.13804(13) 0.44881(12)
C113 C 0.05119(12) 0.36196(13) 0.42051(12)
C114 C 0.19881(12) 0.32949(12) 0.36196(13)
C115 C 0.11196(13) 0.07949(12) 0.30119(12)
C117 C 0.09679(12) 0.13826(11) 0.46265(11)
C118 C 0.03735(11) 0.36174(11) 0.40321(12)
C119 C 0.21265(11) 0.34679(12) 0.36174(11)
C120 C 0.11174(11) 0.09679(12) 0.28735(11)
H72 H 0.1058 0.1500 0.4627
H73 H 0.0373 0.3500 0.3942
H74 H 0.2127 0.3558 0.3500
H75 H 0.1000 0.1058 0.2873
C122 C 0.16623(15) 0.01834(14) 0.11165(16)
C123 C 0.23166(14) 0.13835(16) 0.16623(15)
C124 C 0.13835(16) 0.16623(15) 0.23166(14)
C125 C 0.08377(15) 0.23166(14) 0.11165(16)
C126 C 0.01834(14) 0.11165(16) 0.16623(15)
H77 H 0.1646 0.0084 0.1008
H78 H 0.2416 0.1492 0.1646
H79 H 0.1492 0.1646 0.2416
H80 H 0.0854 0.2416 0.1008
H81 H 0.0084 0.1008 0.1646
C127 C 0.18469(17) 0.02980(17) 0.1126(2)
C128 C 0.22020(17) 0.1374(2) 0.18469(17)
C129 C 0.1374(2) 0.18469(17) 0.22020(17)
C130 C 0.06531(17) 0.22020(17) 0.1126(2)
C131 C 0.02980(17) 0.1126(2) 0.18469(17)
H82 H 0.1958 0.0271 0.1033
H83 H 0.2229 0.1467 0.1958
H84 H 0.1467 0.1958 0.2229
H85 H 0.0542 0.2229 0.1033
H86 H 0.0271 0.1033 0.1958
C132 C 0.18620(15) 0.04515(16) 0.12750(16)
C133 C 0.20485(16) 0.12250(16) 0.18620(15)
C134 C 0.12250(16) 0.18620(15) 0.20485(16)
C135 C 0.06380(15) 0.20485(16) 0.12750(16)
C136 C 0.04515(16) 0.12750(16) 0.18620(15)
H87 H 0.1982 0.0536 0.1282
H88 H 0.1964 0.1218 0.1982
H89 H 0.1218 0.1982 0.1964
H90 H 0.0518 0.1964 0.1282
H91 H 0.0536 0.1282 0.1982
C137 C 0.17016(14) 0.04809(13) 0.14131(14)
C138 C 0.20191(13) 0.10869(14) 0.17016(14)
C139 C 0.10869(14) 0.17016(14) 0.20191(13)
C140 C 0.07984(14) 0.20191(13) 0.14131(14)
C141 C 0.04809(13) 0.14131(14) 0.17016(14)
C142 C 0.15262(12) 0.03528(12) 0.13931(13)
C143 C 0.21472(12) 0.11069(13) 0.15262(12)
C144 C 0.11069(13) 0.15262(12) 0.21472(12)
C145 C 0.09738(12) 0.21472(12) 0.13931(13)
C146 C 0.03528(12) 0.13931(13) 0.15262(12)
H92 H 0.1414 0.0373 0.1487
H93 H 0.2127 0.1013 0.1414
H94 H 0.1013 0.1414 0.2127
H95 H 0.1086 0.2127 0.1487
H96 H 0.0373 0.1487 0.1414
C147 C 0.18569(13) 0.09275(14) 0.17079(13)
C148 C 0.17079(13) 0.06431(13) 0.15725(14)
C149 C 0.09275(14) 0.17079(13) 0.18569(13)
C150 C 0.06431(13) 0.15725(14) 0.17079(13)
C151 C 0.07921(13) 0.18569(13) 0.15725(14)
C152 C 0.17456(19) 0.1282(2) 0.24851(14)
C153 C 0.1282(2) 0.07544(19) 0.50149(14)
C154 C 0.1218(2) 0.17456(19) 0.50149(14)
Co7_2 Co 0.128928(19) 1.0000 0.378928(19)
Co11 Co 0.1250 0.99856(2) 0.1250
Co3_2 Co 1.0000 0.121072(19) 0.371072(19)
Co8 Co 0.871072(19) 0.128928(19) 0.2500
Co15 Co 0.99856(2) 0.1250 0.1250
Co16 Co 0.8750 0.00144(2) 0.3750
N12 N 0.97680(9) 0.13708(10) 0.35606(10)
N25 N 0.98474(10) 0.09101(10) 0.36565(9)
N32 N 0.90072(11) 0.12501(10) 0.26656(10)
N33 N 0.98344(10) 0.12499(10) 0.40072(11)
N39 N 0.90473(10) 0.07947(10) 0.31152(10)
N44 N 0.93852(9) 0.08997(10) 0.32081(10)
N49 N 0.92314(10) 0.06119(9) 0.33776(10)
N54 N 0.87248(10) 0.02453(10) 0.35074(10)
N64 N 0.97928(10) 0.37484(10) 0.34915(10)
N65 N 0.97928(10) 0.37516(10) 0.40085(10)
S4 S 0.95302(5) 0.16216(5) 0.33020(5)
S11 S 0.99559(7) 0.44939(7) 0.36856(15)
S12 S 0.99559(7) 0.30061(7) 0.38144(15)
C28 C 0.96619(12) 0.14741(13) 0.34544(12)
C36 C 0.96902(12) 0.09018(12) 0.35166(11)
H21 H 0.9663 0.1021 0.3435
C41 C 0.95698(12) 0.07314(12) 0.34874(11)
C46 C 0.96112(14) 0.05482(16) 0.35983(15)
H26 H 0.9529 0.0427 0.3581
C51 C 0.97757(15) 0.05540(17) 0.37323(16)
H31 H 0.9813 0.0433 0.3807
C56 C 0.98863(15) 0.07314(16) 0.37596(14)
H36 H 0.9997 0.0730 0.3857
C61 C 0.91627(15) 0.13923(16) 0.26535(15)
H41 H 0.9154 0.1499 0.2552
C66 C 0.93277(17) 0.13865(17) 0.27810(16)
H46 H 0.9430 0.1492 0.2772
C71 C 0.93504(16) 0.12326(15) 0.29220(15)
H51 H 0.9469 0.1229 0.3010
C76 C 0.91995(13) 0.10801(13) 0.29374(12)
C81 C 0.90296(12) 0.10960(12) 0.28082(11)
H56 H 0.8923 0.0995 0.2819
C86 C 0.92125(12) 0.09145(12) 0.30959(11)
C91 C 0.93837(11) 0.07471(12) 0.33455(12)
C96 C 0.90670(12) 0.06435(12) 0.32615(12)
C101 C 0.85594(14) 0.02549(14) 0.33809(15)
H61 H 0.8447 0.0163 0.3407
C106 C 0.85426(15) 0.03890(15) 0.32164(15)
H66 H 0.8421 0.0392 0.3133
C111 C 0.87096(14) 0.05202(14) 0.31749(13)
H71 H 0.8703 0.0615 0.3062
C116 C 0.88804(13) 0.05119(12) 0.32949(12)
C121 C 0.88826(11) 0.03735(11) 0.34679(12)
H76 H 0.9000 0.0373 0.3558
C155 C 0.99851(14) 0.42456(19) 0.3718(2)
C156 C 0.99851(14) 0.32544(19) 0.3782(2)
Co1_2 Co 0.5000 0.371072(19) 0.121072(19)
Co2_2 Co 0.3750 0.3750 0.24856(2)
N1_2 N 0.52320(9) 0.38708(10) 0.10606(10)
N2_2 N 0.37329(10) 0.34293(12) 0.24942(9)
N3_2 N 0.38435(9) 0.48474(10) 0.15899(10)
N4_2 N 0.48344(10) 0.40072(11) 0.12499(10)
N5_2 N 0.43848(10) 0.40473(10) 0.17053(10)
N6_2 N 0.42919(10) 0.43852(9) 0.16003(10)
N7_2 N 0.41224(10) 0.42314(10) 0.18881(9)
N8_2 N 0.39926(10) 0.37248(10) 0.22547(10)
N9_2 N 0.34915(10) 0.37516(10) 0.27072(10)
N10_2 N 0.34409(12) 0.42186(11) 0.31390(11)
S1_2 S 0.54698(5) 0.41216(5) 0.08020(5)
S2_2 S 0.36856(15) 0.30061(7) 0.25441(7)
C1_2 C 0.53381(12) 0.39741(13) 0.09544(12)
C2_2 C 0.39834(11) 0.46902(12) 0.15982(12)
H1_2 H 0.4065 0.4663 0.1479
C3_2 C 0.40126(11) 0.45698(12) 0.17686(12)
C4_2 C 0.39017(15) 0.46112(14) 0.19518(16)
H2_2 H 0.3919 0.4529 0.2073
C5_2 C 0.37677(16) 0.47757(15) 0.19460(17)
H3_2 H 0.3693 0.4813 0.2067
C6_2 C 0.37404(14) 0.48863(15) 0.17686(16)
H4_2 H 0.3643 0.4997 0.1770
C7_2 C 0.48465(15) 0.41627(15) 0.11077(16)
H5_2 H 0.4948 0.4154 0.1001
C8_2 C 0.47190(16) 0.43277(17) 0.11135(17)
H6_2 H 0.4728 0.4430 0.1008
C9_2 C 0.45780(15) 0.43504(16) 0.12674(15)
H7_2 H 0.4490 0.4469 0.1271
C10_2 C 0.45626(12) 0.41995(13) 0.14199(13)
C11_2 C 0.46918(11) 0.40296(12) 0.14040(12)
H8_2 H 0.4681 0.3923 0.1505
C12_2 C 0.44041(11) 0.42125(12) 0.15855(12)
C13_2 C 0.41545(12) 0.43837(11) 0.17529(12)
C14_2 C 0.42385(12) 0.40670(12) 0.18565(12)
C15_2 C 0.41191(15) 0.35594(14) 0.22451(14)
H9_2 H 0.4093 0.3447 0.2337
C16_2 C 0.42836(15) 0.35426(15) 0.21110(15)
H10_2 H 0.4367 0.3421 0.2108
C17_2 C 0.43251(13) 0.37096(14) 0.19798(14)
H11_2 H 0.4438 0.3703 0.1885
C18_2 C 0.42051(12) 0.38804(13) 0.19881(12)
C19_2 C 0.40321(12) 0.38826(11) 0.21265(11)
H12_2 H 0.3942 0.4000 0.2127
C20_2 C 0.33377(15) 0.36165(16) 0.26834(14)
H13_2 H 0.3354 0.3508 0.2584
C21_2 C 0.31531(17) 0.3626(2) 0.27980(17)
H14_2 H 0.3042 0.3533 0.2771
C22_2 C 0.31380(15) 0.37750(16) 0.29515(16)
H15_2 H 0.3018 0.3782 0.3036
C23_2 C 0.32984(14) 0.39131(14) 0.29809(13)
C24_2 C 0.34738(12) 0.38931(13) 0.28528(12)
H16_2 H 0.3586 0.3987 0.2873
C25_2 C 0.32921(13) 0.40725(14) 0.31431(13)
C26_2 C 0.3718(2) 0.32544(19) 0.25149(14)
Co3_3 Co 0.371072(19) 0.2500 0.128928(19)
Co4_2 Co 0.628928(19) 0.378928(19) 0.0000
Co5_2 Co 0.378928(19) 0.5000 0.128928(19)
Co6_2 Co 0.621072(19) 0.378928(19) 0.2500
Co7_3 Co 0.2500 0.378928(19) 0.121072(19)
Co8_2 Co 0.378928(19) 0.121072(19) 0.2500
Co9_2 Co 0.3750 0.3750 0.00144(2)
Co10_2 Co 0.6250 0.25144(2) 0.1250
Co12_2 Co 0.3750 0.50144(2) 0.3750
Co13_2 Co 0.6250 0.49856(2) 0.1250
Co14_2 Co 0.50144(2) 0.3750 0.3750
Co15_2 Co 0.3750 0.24856(2) 0.3750
N11_2 N 0.47680(9) 0.35606(10) 0.13708(10)
N12_2 N 0.38708(10) 0.22680(9) 0.14394(10)
N13_2 N 0.35606(10) 0.27320(9) 0.11292(10)
N15_2 N 0.64394(10) 0.36292(10) 0.02320(9)
N16_2 N 0.37671(10) 0.40707(12) 0.24942(9)
N17_2 N 0.34293(12) 0.37671(10) 0.00058(9)
N18_2 N 0.40707(12) 0.37329(10) 0.00058(9)
N19_2 N 0.65707(12) 0.25058(9) 0.12671(10)
N20_2 N 0.59293(12) 0.25058(9) 0.12329(10)
N21_2 N 0.48474(10) 0.36565(9) 0.09101(10)
N22_2 N 0.51526(10) 0.34101(10) 0.11565(9)
N23_2 N 0.61565(9) 0.40899(10) 0.23474(10)
N24_2 N 0.36565(9) 0.26526(10) 0.15899(10)
N25_2 N 0.34101(10) 0.23474(10) 0.13435(9)
N26_2 N 0.63435(9) 0.40899(10) 0.01526(10)
N28_2 N 0.40072(11) 0.26656(10) 0.12501(10)
N29_2 N 0.59928(11) 0.37501(10) 0.01656(10)
N30_2 N 0.51656(10) 0.37499(10) 0.15072(11)
N31_2 N 0.26656(10) 0.34928(11) 0.12499(10)
N32_2 N 0.37501(10) 0.15072(11) 0.23344(10)
N33_2 N 0.37499(10) 0.23344(10) 0.09928(11)
N35_2 N 0.40473(10) 0.31152(10) 0.07947(10)
N36_2 N 0.59527(10) 0.32947(10) 0.06152(10)
N37_2 N 0.56152(10) 0.42053(10) 0.15473(10)
N38_2 N 0.31152(10) 0.34527(10) 0.17053(10)
N39_2 N 0.32947(10) 0.15473(10) 0.18848(10)
N40_2 N 0.43852(9) 0.32081(10) 0.08997(10)
N41_2 N 0.56148(9) 0.33997(10) 0.07081(10)
N42_2 N 0.57081(10) 0.41003(10) 0.18852(9)
N43_2 N 0.32081(10) 0.31148(9) 0.16003(10)
N44_2 N 0.33997(10) 0.18852(9) 0.17919(10)
N45_2 N 0.42314(10) 0.33776(10) 0.06119(9)
N46_2 N 0.57686(10) 0.31119(9) 0.08776(10)
N47_2 N 0.58776(10) 0.43881(9) 0.17314(10)
N48_2 N 0.33776(10) 0.32686(10) 0.18881(9)
N49_2 N 0.31119(9) 0.17314(10) 0.16224(10)
N50_2 N 0.37248(10) 0.35074(10) 0.02453(10)
N51_2 N 0.62752(10) 0.27453(10) 0.10074(10)
N52_2 N 0.60074(10) 0.47547(10) 0.12248(10)
N53_2 N 0.35074(10) 0.37752(10) 0.22547(10)
N54_2 N 0.27453(10) 0.12248(10) 0.14926(10)
N55_2 N 0.37752(10) 0.39926(10) 0.02453(10)
N56_2 N 0.62248(10) 0.27453(10) 0.14926(10)
N57_2 N 0.27072(10) 0.40085(10) 0.37484(10)
N58_2 N 0.37484(10) 0.47928(10) 0.34915(10)
N59_2 N 0.40085(10) 0.37484(10) 0.27072(10)
N60_2 N 0.47928(10) 0.34915(10) 0.37484(10)
N61_2 N 0.37516(10) 0.27072(10) 0.34915(10)
N64_2 N 0.62484(10) 0.22928(10) 0.15085(10)
N65_2 N 0.62516(10) 0.22928(10) 0.09915(10)
N66_2 N 0.32814(11) 0.43610(11) 0.34409(12)
N67_2 N 0.31390(11) 0.40591(12) 0.32814(11)
N68_2 N 0.40591(12) 0.32814(11) 0.31390(11)
N69_2 N 0.42186(11) 0.31390(11) 0.34409(12)
N70_2 N 0.43610(11) 0.34409(12) 0.32814(11)
S3_2 S 0.45302(5) 0.33020(5) 0.16216(5)
S4_2 S 0.41216(5) 0.20302(5) 0.16980(5)
S5_2 S 0.33020(5) 0.29698(5) 0.08784(5)
S7_2 S 0.66980(5) 0.33784(5) 0.04698(5)
S8_2 S 0.38144(15) 0.44939(7) 0.25441(7)
S11_2 S 0.69939(7) 0.24559(7) 0.13144(15)
S12_2 S 0.55061(7) 0.24559(7) 0.11856(15)
C27_2 C 0.46619(12) 0.34544(12) 0.14741(13)
C28_2 C 0.39741(13) 0.21619(12) 0.15456(12)
C29_2 C 0.34544(12) 0.28381(12) 0.10259(13)
C31_2 C 0.65456(12) 0.35259(13) 0.03381(12)
C32_2 C 0.46902(12) 0.35166(11) 0.09018(12)
C33_2 C 0.53098(12) 0.34018(12) 0.10166(11)
C34_2 C 0.60166(11) 0.40982(12) 0.21902(12)
C35_2 C 0.35166(11) 0.28098(12) 0.15982(12)
C36_2 C 0.34018(12) 0.21902(12) 0.14834(11)
H17_2 H 0.4663 0.3435 0.1021
H18_2 H 0.5337 0.3521 0.0935
H19_2 H 0.5935 0.3979 0.2163
H20_2 H 0.3435 0.2837 0.1479
H21_2 H 0.3521 0.2163 0.1565
C37_2 C 0.45698(12) 0.34874(11) 0.07314(12)
C38_2 C 0.54302(12) 0.32314(12) 0.09874(11)
C39_2 C 0.59874(11) 0.42686(12) 0.20698(12)
C40_2 C 0.34874(11) 0.29302(12) 0.17686(12)
C41_2 C 0.32314(12) 0.20698(12) 0.15126(11)
C42_2 C 0.46112(14) 0.35983(15) 0.05482(16)
C43_2 C 0.53888(14) 0.30482(16) 0.10983(15)
C44_2 C 0.60983(15) 0.44518(16) 0.21112(14)
C45_2 C 0.35983(15) 0.28888(14) 0.19518(16)
C46_2 C 0.30482(16) 0.21112(14) 0.14017(15)
H22_2 H 0.4529 0.3581 0.0427
H23_2 H 0.5471 0.2927 0.1081
H24_2 H 0.6081 0.4573 0.2029
H25_2 H 0.3581 0.2971 0.2073
H26_2 H 0.2927 0.2029 0.1419
C47_2 C 0.47757(15) 0.37323(16) 0.05540(17)
C48_2 C 0.52243(15) 0.30540(17) 0.12323(16)
C49_2 C 0.62323(16) 0.44460(17) 0.22757(15)
C50_2 C 0.37323(16) 0.27243(15) 0.19460(17)
C51_2 C 0.30540(17) 0.22757(15) 0.12677(16)
H27_2 H 0.4813 0.3807 0.0433
H28_2 H 0.5187 0.2933 0.1307
H29_2 H 0.6307 0.4567 0.2313
H30_2 H 0.3807 0.2687 0.2067
H31_2 H 0.2933 0.2313 0.1193
C52_2 C 0.48863(15) 0.37596(14) 0.07314(16)
C53_2 C 0.51137(15) 0.32314(16) 0.12596(14)
C54_2 C 0.62596(14) 0.42686(16) 0.23863(15)
C55_2 C 0.37596(14) 0.26137(15) 0.17686(16)
C56_2 C 0.32314(16) 0.23863(15) 0.12404(14)
H32_2 H 0.4997 0.3857 0.0730
H33_2 H 0.5003 0.3230 0.1357
H34_2 H 0.6357 0.4270 0.2497
H35_2 H 0.3857 0.2503 0.1770
H36_2 H 0.3230 0.2497 0.1143
C57_2 C 0.41627(15) 0.26535(15) 0.13923(16)
C58_2 C 0.58373(15) 0.38923(16) 0.01535(15)
C59_2 C 0.51535(15) 0.36077(16) 0.16627(15)
C60_2 C 0.26535(15) 0.33373(15) 0.11077(16)
C61_2 C 0.38923(16) 0.16627(15) 0.23465(15)
H37_2 H 0.4154 0.2552 0.1499
H38_2 H 0.5846 0.3999 0.0052
H39_2 H 0.5052 0.3501 0.1654
H40_2 H 0.2552 0.3346 0.1001
H41_2 H 0.3999 0.1654 0.2448
C62_2 C 0.43277(17) 0.27810(16) 0.13865(17)
C63_2 C 0.56723(17) 0.38865(17) 0.02810(16)
C64_2 C 0.52810(16) 0.36135(17) 0.18277(17)
C65_2 C 0.27810(16) 0.31723(17) 0.11135(17)
C66_2 C 0.38865(17) 0.18277(17) 0.22190(16)
H42_2 H 0.4430 0.2772 0.1492
H43_2 H 0.5570 0.3992 0.0272
H44_2 H 0.5272 0.3508 0.1930
H45_2 H 0.2772 0.3070 0.1008
H46_2 H 0.3992 0.1930 0.2228
C67_2 C 0.43504(16) 0.29220(15) 0.12326(15)
C68_2 C 0.56496(16) 0.37326(15) 0.04220(15)
C69_2 C 0.54220(15) 0.37674(15) 0.18504(16)
C70_2 C 0.29220(15) 0.31496(16) 0.12674(15)
C71_2 C 0.37326(15) 0.18504(16) 0.20780(15)
H47_2 H 0.4469 0.3010 0.1229
H48_2 H 0.5531 0.3729 0.0510
H49_2 H 0.5510 0.3771 0.1969
H50_2 H 0.3010 0.3031 0.1271
H51_2 H 0.3729 0.1969 0.1990
C72_2 C 0.41995(13) 0.29374(12) 0.10801(13)
C73_2 C 0.58005(13) 0.35801(13) 0.04374(12)
C74_2 C 0.54374(12) 0.39199(13) 0.16995(13)
C75_2 C 0.29374(12) 0.33005(13) 0.14199(13)
C76_2 C 0.35801(13) 0.16995(13) 0.20626(12)
C77_2 C 0.40296(12) 0.28082(11) 0.10960(12)
C78_2 C 0.59704(12) 0.35960(12) 0.03082(11)
C79_2 C 0.53082(11) 0.39040(12) 0.15296(12)
C80_2 C 0.28082(11) 0.34704(12) 0.14040(12)
C81_2 C 0.35960(12) 0.15296(12) 0.21918(11)
H52_2 H 0.3923 0.2819 0.0995
H53_2 H 0.6077 0.3495 0.0319
H54_2 H 0.5319 0.4005 0.1423
H55_2 H 0.2819 0.3577 0.1505
H56_2 H 0.3495 0.1423 0.2181
C82_2 C 0.42125(12) 0.30959(11) 0.09145(12)
C83_2 C 0.57875(12) 0.34145(12) 0.05959(11)
C84_2 C 0.55959(11) 0.40855(12) 0.17125(12)
C85_2 C 0.30959(11) 0.32875(12) 0.15855(12)
C86_2 C 0.34145(12) 0.17125(12) 0.19041(11)
C87_2 C 0.43837(11) 0.33455(12) 0.07471(12)
C88_2 C 0.56163(11) 0.32471(12) 0.08455(12)
C89_2 C 0.58455(12) 0.42529(12) 0.18837(11)
C90_2 C 0.33455(12) 0.31163(11) 0.17529(12)
C91_2 C 0.32471(12) 0.18837(11) 0.16545(12)
C92_2 C 0.40670(12) 0.32615(12) 0.06435(12)
C93_2 C 0.59330(12) 0.31435(12) 0.07615(12)
C94_2 C 0.57615(12) 0.43565(12) 0.15670(12)
C95_2 C 0.32615(12) 0.34330(12) 0.18565(12)
C96_2 C 0.31435(12) 0.15670(12) 0.17385(12)
C97_2 C 0.35594(14) 0.33809(15) 0.02549(14)
C98_2 C 0.64406(14) 0.27549(14) 0.08809(15)
C99_2 C 0.58809(15) 0.47451(14) 0.10594(14)
C100_2 C 0.33809(15) 0.39406(14) 0.22451(14)
C101_2 C 0.27549(14) 0.10594(14) 0.16191(15)
H57_2 H 0.3447 0.3407 0.0163
H58_2 H 0.6553 0.2663 0.0907
H59_2 H 0.5907 0.4837 0.0947
H60_2 H 0.3407 0.4053 0.2337
H61_2 H 0.2663 0.0947 0.1593
C102_2 C 0.35426(15) 0.32164(15) 0.03890(15)
C103_2 C 0.64574(15) 0.28890(15) 0.07164(15)
C104_2 C 0.57164(15) 0.46110(15) 0.10426(15)
C105_2 C 0.32164(15) 0.39574(15) 0.21110(15)
C106_2 C 0.28890(15) 0.10426(15) 0.17836(15)
H62_2 H 0.3421 0.3133 0.0392
H63_2 H 0.6579 0.2892 0.0633
H64_2 H 0.5633 0.4608 0.0921
H65_2 H 0.3133 0.4079 0.2108
H66_2 H 0.2892 0.0921 0.1867
C107_2 C 0.37096(14) 0.31749(13) 0.05202(14)
C108_2 C 0.62904(14) 0.30202(14) 0.06749(13)
C109_2 C 0.56749(13) 0.44798(14) 0.12096(14)
C110_2 C 0.31749(13) 0.37904(14) 0.19798(14)
C111_2 C 0.30202(14) 0.12096(14) 0.18251(13)
H67_2 H 0.3703 0.3062 0.0615
H68_2 H 0.6297 0.3115 0.0562
H69_2 H 0.5562 0.4385 0.1203
H70_2 H 0.3062 0.3797 0.1885
H71_2 H 0.3115 0.1203 0.1938
C112_2 C 0.38804(13) 0.32949(12) 0.05119(12)
C113_2 C 0.61196(13) 0.30119(12) 0.07949(12)
C114_2 C 0.57949(12) 0.44881(12) 0.13804(13)
C115_2 C 0.32949(12) 0.36196(13) 0.19881(12)
C116_2 C 0.30119(12) 0.13804(13) 0.17051(12)
C117_2 C 0.38826(11) 0.34679(12) 0.03735(11)
C118_2 C 0.61174(11) 0.28735(11) 0.09679(12)
C119_2 C 0.59679(12) 0.46265(11) 0.13826(11)
C120_2 C 0.34679(12) 0.36174(11) 0.21265(11)
C121_2 C 0.28735(11) 0.13826(11) 0.15321(12)
H72_2 H 0.4000 0.3558 0.0373
H73_2 H 0.6000 0.2873 0.1058
H74_2 H 0.6058 0.4627 0.1500
H75_2 H 0.3558 0.3500 0.2127
H76_2 H 0.2873 0.1500 0.1442
C122_2 C 0.26834(14) 0.41623(15) 0.38835(16)
C123_2 C 0.38835(16) 0.48166(14) 0.33377(15)
C124_2 C 0.41623(15) 0.38835(16) 0.26834(14)
C125_2 C 0.48166(14) 0.33377(15) 0.38835(16)
C126_2 C 0.36165(16) 0.26834(14) 0.33377(15)
H77_2 H 0.2584 0.4146 0.3992
H78_2 H 0.3992 0.4916 0.3354
H79_2 H 0.4146 0.3992 0.2584
H80_2 H 0.4916 0.3354 0.3992
H81_2 H 0.3508 0.2584 0.3354
C127_2 C 0.27980(17) 0.43469(17) 0.3874(2)
C128_2 C 0.3874(2) 0.47020(17) 0.31531(17)
C129_2 C 0.43469(17) 0.3874(2) 0.27980(17)
C130_2 C 0.47020(17) 0.31531(17) 0.3874(2)
C131_2 C 0.3626(2) 0.27980(17) 0.31531(17)
H82_2 H 0.2771 0.4458 0.3967
H83_2 H 0.3967 0.4729 0.3042
H84_2 H 0.4458 0.3967 0.2771
H85_2 H 0.4729 0.3042 0.3967
H86_2 H 0.3533 0.2771 0.3042
C132_2 C 0.29515(16) 0.43620(15) 0.37250(16)
C133_2 C 0.37250(16) 0.45485(16) 0.31380(15)
C134_2 C 0.43620(15) 0.37250(16) 0.29515(16)
C135_2 C 0.45485(16) 0.31380(15) 0.37250(16)
C136_2 C 0.37750(16) 0.29515(16) 0.31380(15)
H87_2 H 0.3036 0.4482 0.3718
H88_2 H 0.3718 0.4464 0.3018
H89_2 H 0.4482 0.3718 0.3036
H90_2 H 0.4464 0.3018 0.3718
H91_2 H 0.3782 0.3036 0.3018
C137_2 C 0.29809(13) 0.42016(14) 0.35869(14)
C138_2 C 0.35869(14) 0.45191(13) 0.32984(14)
C139_2 C 0.42016(14) 0.35869(14) 0.29809(13)
C140_2 C 0.45191(13) 0.32984(14) 0.35869(14)
C141_2 C 0.39131(14) 0.29809(13) 0.32984(14)
C142_2 C 0.28528(12) 0.40262(12) 0.36069(13)
C143_2 C 0.36069(13) 0.46472(12) 0.34738(12)
C144_2 C 0.40262(12) 0.36069(13) 0.28528(12)
C145_2 C 0.46472(12) 0.34738(12) 0.36069(13)
C146_2 C 0.38931(13) 0.28528(12) 0.34738(12)
H92_2 H 0.2873 0.3914 0.3513
H93_2 H 0.3513 0.4627 0.3586
H94_2 H 0.3914 0.3513 0.2873
H95_2 H 0.4627 0.3586 0.3513
H96_2 H 0.3987 0.2873 0.3586
C147_2 C 0.34275(14) 0.43569(13) 0.32921(13)
C148_2 C 0.31431(13) 0.42079(13) 0.34275(14)
C149_2 C 0.42079(13) 0.34275(14) 0.31431(13)
C150_2 C 0.40725(14) 0.31431(13) 0.32921(13)
C151_2 C 0.43569(13) 0.32921(13) 0.34275(14)
C152_2 C 0.3782(2) 0.42456(19) 0.25149(14)
C155_2 C 0.67456(19) 0.24851(14) 0.1282(2)
C156_2 C 0.57544(19) 0.24851(14) 0.1218(2)
Co4_3 Co 0.628928(19) 0.378928(19) 1.0000
N14_2 N 0.61292(10) 0.39394(10) 0.97680(9)
N27_2 N 0.65899(10) 0.38435(9) 0.98474(10)
N34_2 N 0.62501(10) 0.34928(11) 0.98344(10)
N62_2 N 0.37516(10) 0.40085(10) 0.97928(10)
N63_2 N 0.37484(10) 0.34915(10) 0.97928(10)
S6_2 S 0.58784(5) 0.41980(5) 0.95302(5)
S9_2 S 0.30061(7) 0.38144(15) 0.99559(7)
S10_2 S 0.44939(7) 0.36856(15) 0.99559(7)
C30_2 C 0.60259(13) 0.40456(12) 0.96619(12)
C153_2 C 0.32544(19) 0.3782(2) 0.99851(14)
C154_2 C 0.42456(19) 0.3718(2) 0.99851(14)
Co1_3 Co 0.371072(19) 0.621072(19) -0.0000
N1_3 N 0.38708(10) 0.60606(10) 0.02320(9)
S1_3 S 0.41216(5) 0.58020(5) 0.04698(5)
C1_3 C 0.39741(13) 0.59544(12) 0.03381(12)
Co6_3 Co 0.378928(19) 0.7500 0.121072(19)
Co10_3 Co 0.25144(2) 0.6250 0.1250
Co13_3 Co 0.49856(2) 0.6250 0.1250
Co14_3 Co 0.3750 0.8750 0.00144(2)
N14_3 N 0.39394(10) 0.47680(9) 0.11292(10)
N15_3 N 0.36292(10) 0.52320(9) 0.14394(10)
N19_3 N 0.25058(9) 0.62671(10) 0.15707(12)
N20_3 N 0.25058(9) 0.62329(10) 0.09293(12)
N22_3 N 0.34101(10) 0.61565(9) 0.01526(10)
N23_3 N 0.40899(10) 0.73474(10) 0.11565(9)
N26_3 N 0.40899(10) 0.51526(10) 0.13435(9)
N29_3 N 0.37501(10) 0.51656(10) 0.09928(11)
N30_3 N 0.37499(10) 0.65072(11) 0.01656(10)
N34_3 N 0.34928(11) 0.48344(10) 0.12501(10)
N36_3 N 0.32947(10) 0.56152(10) 0.09527(10)
N37_3 N 0.42053(10) 0.65473(10) 0.06152(10)
N41_3 N 0.33997(10) 0.57081(10) 0.06148(9)
N42_3 N 0.41003(10) 0.68852(9) 0.07081(10)
N46_3 N 0.31119(9) 0.58776(10) 0.07686(10)
N47_3 N 0.43881(9) 0.67314(10) 0.08776(10)
N51_3 N 0.27453(10) 0.60074(10) 0.12752(10)
N52_3 N 0.47547(10) 0.62248(10) 0.10074(10)
N56_3 N 0.27453(10) 0.64926(10) 0.12248(10)
N64_3 N 0.22928(10) 0.65085(10) 0.12484(10)
N65_3 N 0.22928(10) 0.59915(10) 0.12516(10)
S6_3 S 0.41980(5) 0.45302(5) 0.08784(5)
S7_3 S 0.33784(5) 0.54698(5) 0.16980(5)
S11_3 S 0.24559(7) 0.63144(15) 0.19939(7)
S12_3 S 0.24559(7) 0.61856(15) 0.05061(7)
C30_3 C 0.40456(12) 0.46619(12) 0.10259(13)
C31_3 C 0.35259(13) 0.53381(12) 0.15456(12)
C33_3 C 0.34018(12) 0.60166(11) 0.03098(12)
C34_3 C 0.40982(12) 0.71902(12) 0.10166(11)
H18_3 H 0.3521 0.5935 0.0337
H19_3 H 0.3979 0.7163 0.0935
C38_3 C 0.32314(12) 0.59874(11) 0.04302(12)
C39_3 C 0.42686(12) 0.70698(12) 0.09874(11)
C43_3 C 0.30482(16) 0.60983(15) 0.03888(14)
C44_3 C 0.44518(16) 0.71112(14) 0.10983(15)
H23_3 H 0.2927 0.6081 0.0471
H24_3 H 0.4573 0.7029 0.1081
C48_3 C 0.30540(17) 0.62323(16) 0.02243(15)
C49_3 C 0.44460(17) 0.72757(15) 0.12323(16)
H28_3 H 0.2933 0.6307 0.0187
H29_3 H 0.4567 0.7313 0.1307
C53_3 C 0.32314(16) 0.62596(14) 0.01137(15)
C54_3 C 0.42686(16) 0.73863(15) 0.12596(14)
H33_3 H 0.3230 0.6357 0.0003
H34_3 H 0.4270 0.7497 0.1357
C58_3 C 0.38923(16) 0.51535(15) 0.08373(15)
C59_3 C 0.36077(16) 0.66627(15) 0.01535(15)
H38_3 H 0.3999 0.5052 0.0846
H39_3 H 0.3501 0.6654 0.0052
C63_3 C 0.38865(17) 0.52810(16) 0.06723(17)
C64_3 C 0.36135(17) 0.68277(17) 0.02810(16)
H43_3 H 0.3992 0.5272 0.0570
H44_3 H 0.3508 0.6930 0.0272
C68_3 C 0.37326(15) 0.54220(15) 0.06496(16)
C69_3 C 0.37674(15) 0.68504(16) 0.04220(15)
H48_3 H 0.3729 0.5510 0.0531
H49_3 H 0.3771 0.6969 0.0510
C73_3 C 0.35801(13) 0.54374(12) 0.08005(13)
C74_3 C 0.39199(13) 0.66995(13) 0.04374(12)
C78_3 C 0.35960(12) 0.53082(11) 0.09704(12)
C79_3 C 0.39040(12) 0.65296(12) 0.03082(11)
H53_3 H 0.3495 0.5319 0.1077
H54_3 H 0.4005 0.6423 0.0319
C83_3 C 0.34145(12) 0.55959(11) 0.07875(12)
C84_3 C 0.40855(12) 0.67125(12) 0.05959(11)
C88_3 C 0.32471(12) 0.58455(12) 0.06163(11)
C89_3 C 0.42529(12) 0.68837(11) 0.08455(12)
C93_3 C 0.31435(12) 0.57615(12) 0.09330(12)
C94_3 C 0.43565(12) 0.65670(12) 0.07615(12)
C98_3 C 0.27549(14) 0.58809(15) 0.14406(14)
C99_3 C 0.47451(14) 0.60594(14) 0.08809(15)
H58_3 H 0.2663 0.5907 0.1553
H59_3 H 0.4837 0.5947 0.0907
C103_3 C 0.28890(15) 0.57164(15) 0.14574(15)
C104_3 C 0.46110(15) 0.60426(15) 0.07164(15)
H63_3 H 0.2892 0.5633 0.1579
H64_3 H 0.4608 0.5921 0.0633
C108_3 C 0.30202(14) 0.56749(13) 0.12904(14)
C109_3 C 0.44798(14) 0.62096(14) 0.06749(13)
H68_3 H 0.3115 0.5562 0.1297
H69_3 H 0.4385 0.6203 0.0562
C113_3 C 0.30119(12) 0.57949(12) 0.11196(13)
C114_3 C 0.44881(12) 0.63804(13) 0.07949(12)
C118_3 C 0.28735(11) 0.59679(12) 0.11174(11)
C119_3 C 0.46265(11) 0.63826(11) 0.09679(12)
H73_3 H 0.2873 0.6058 0.1000
H74_3 H 0.4627 0.6500 0.1058
C155_3 C 0.24851(14) 0.6282(2) 0.17456(19)
C156_3 C 0.24851(14) 0.6218(2) 0.07544(19)
Co1_4 Co 0.371072(19) 0.621072(19) 1.0000
Co2_3 Co 0.3750 0.74856(2) 0.8750
N2_3 N 0.34293(12) 0.74942(9) 0.87329(10)
N3_3 N 0.48474(10) 0.65899(10) 0.88435(9)
N4_3 N 0.40072(11) 0.62499(10) 0.98344(10)
N5_3 N 0.40473(10) 0.67053(10) 0.93848(10)
N6_3 N 0.43852(9) 0.66003(10) 0.92919(10)
N7_3 N 0.42314(10) 0.68881(9) 0.91224(10)
N8_3 N 0.37248(10) 0.72547(10) 0.89926(10)
N9_3 N 0.37516(10) 0.77072(10) 0.84915(10)
N10_3 N 0.42186(11) 0.81390(11) 0.84409(12)
S2_3 S 0.30061(7) 0.75441(7) 0.86856(15)
C2_3 C 0.46902(12) 0.65982(12) 0.89834(11)
H1_3 H 0.4663 0.6479 0.9065
C3_3 C 0.45698(12) 0.67686(12) 0.90126(11)
C4_3 C 0.46112(14) 0.69518(16) 0.89017(15)
H2_3 H 0.4529 0.7073 0.8919
C5_3 C 0.47757(15) 0.69460(17) 0.87677(16)
H3_3 H 0.4813 0.7067 0.8693
C6_3 C 0.48863(15) 0.67686(16) 0.87404(14)
H4_3 H 0.4997 0.6770 0.8643
C7_3 C 0.41627(15) 0.61077(16) 0.98465(15)
H5_3 H 0.4154 0.6001 0.9948
C8_3 C 0.43277(17) 0.61135(17) 0.97190(16)
H6_3 H 0.4430 0.6008 0.9728
C9_3 C 0.43504(16) 0.62674(15) 0.95780(15)
H7_3 H 0.4469 0.6271 0.9490
C10_3 C 0.41995(13) 0.64199(13) 0.95626(12)
C11_3 C 0.40296(12) 0.64040(12) 0.96918(11)
H8_3 H 0.3923 0.6505 0.9681
C12_3 C 0.42125(12) 0.65855(12) 0.94041(11)
C13_3 C 0.43837(11) 0.67529(12) 0.91545(12)
C14_3 C 0.40670(12) 0.68565(12) 0.92385(12)
C15_3 C 0.35594(14) 0.72451(14) 0.91191(15)
H9_3 H 0.3447 0.7337 0.9093
C16_3 C 0.35426(15) 0.71110(15) 0.92836(15)
H10_3 H 0.3421 0.7108 0.9367
C17_3 C 0.37096(14) 0.69798(14) 0.93251(13)
H11_3 H 0.3703 0.6885 0.9438
C18_3 C 0.38804(13) 0.69881(12) 0.92051(12)
C19_3 C 0.38826(11) 0.71265(11) 0.90321(12)
H12_3 H 0.4000 0.7127 0.8942
C20_3 C 0.36165(16) 0.76834(14) 0.83377(15)
H13_3 H 0.3508 0.7584 0.8354
C21_3 C 0.3626(2) 0.77980(17) 0.81531(17)
H14_3 H 0.3533 0.7771 0.8042
C22_3 C 0.37750(16) 0.79515(16) 0.81380(15)
H15_3 H 0.3782 0.8036 0.8018
C23_3 C 0.39131(14) 0.79809(13) 0.82984(14)
C24_3 C 0.38931(13) 0.78528(12) 0.84738(12)
H16_3 H 0.3987 0.7873 0.8586
C25_3 C 0.40725(14) 0.81431(13) 0.82921(13)
C26_3 C 0.32544(19) 0.75149(14) 0.8718(2)
Co3_4 Co 0.2500 0.628928(19) 0.871072(19)
Co5_3 Co 0.5000 0.628928(19) 0.878928(19)
Co7_4 Co 0.378928(19) 0.621072(19) 0.7500
Co8_3 Co 0.121072(19) 0.7500 0.878928(19)
Co9_3 Co 0.3750 0.50144(2) 0.8750
Co11_2 Co 0.3750 0.8750 0.74856(2)
Co12_3 Co 0.50144(2) 0.8750 0.8750
Co15_3 Co 0.24856(2) 0.8750 0.8750
Co16_2 Co 0.1250 0.6250 0.75144(2)
N11_3 N 0.35606(10) 0.63708(10) 0.97680(9)
N12_3 N 0.22680(9) 0.64394(10) 0.88708(10)
N13_3 N 0.27320(9) 0.61292(10) 0.85606(10)
N16_3 N 0.40707(12) 0.74942(9) 0.87671(10)
N17_3 N 0.37671(10) 0.50058(9) 0.84293(12)
N18_3 N 0.37329(10) 0.50058(9) 0.90707(12)
N21_3 N 0.36565(9) 0.59101(10) 0.98474(10)
N24_3 N 0.26526(10) 0.65899(10) 0.86565(9)
N25_3 N 0.23474(10) 0.63435(9) 0.84101(10)
N28_3 N 0.26656(10) 0.62501(10) 0.90072(11)
N31_3 N 0.34928(11) 0.62499(10) 0.76656(10)
N32_3 N 0.15072(11) 0.73344(10) 0.87501(10)
N33_3 N 0.23344(10) 0.59928(11) 0.87499(10)
N35_3 N 0.31152(10) 0.57947(10) 0.90473(10)
N38_3 N 0.34527(10) 0.67053(10) 0.81152(10)
N39_3 N 0.15473(10) 0.68848(10) 0.82947(10)
N40_3 N 0.32081(10) 0.58997(10) 0.93852(9)
N43_3 N 0.31148(9) 0.66003(10) 0.82081(10)
N44_3 N 0.18852(9) 0.67919(10) 0.83997(10)
N45_3 N 0.33776(10) 0.56119(9) 0.92314(10)
N48_3 N 0.32686(10) 0.68881(9) 0.83776(10)
N49_3 N 0.17314(10) 0.66224(10) 0.81119(9)
N50_3 N 0.35074(10) 0.52453(10) 0.87248(10)
N53_3 N 0.37752(10) 0.72547(10) 0.85074(10)
N54_3 N 0.12248(10) 0.64926(10) 0.77453(10)
N55_3 N 0.39926(10) 0.52453(10) 0.87752(10)
N57_3 N 0.40085(10) 0.87484(10) 0.77072(10)
N58_3 N 0.47928(10) 0.84915(10) 0.87484(10)
N59_3 N 0.37484(10) 0.77072(10) 0.90085(10)
N60_3 N 0.34915(10) 0.87484(10) 0.97928(10)
N61_3 N 0.27072(10) 0.84915(10) 0.87516(10)
N62_3 N 0.40085(10) 0.47928(10) 0.87516(10)
N63_3 N 0.34915(10) 0.47928(10) 0.87484(10)
N66_3 N 0.43610(11) 0.84409(12) 0.82814(11)
N67_3 N 0.40591(12) 0.82814(11) 0.81390(11)
N68_3 N 0.32814(11) 0.81390(11) 0.90591(12)
N69_3 N 0.31390(11) 0.84409(12) 0.92186(11)
N70_3 N 0.34409(12) 0.82814(11) 0.93610(11)
S3_3 S 0.33020(5) 0.66216(5) 0.95302(5)
S4_3 S 0.20302(5) 0.66980(5) 0.91216(5)
S5_3 S 0.29698(5) 0.58784(5) 0.83020(5)
S8_3 S 0.44939(7) 0.75441(7) 0.88144(15)
S9_3 S 0.38144(15) 0.49559(7) 0.80061(7)
S10_3 S 0.36856(15) 0.49559(7) 0.94939(7)
C27_3 C 0.34544(12) 0.64741(13) 0.96619(12)
C28_3 C 0.21619(12) 0.65456(12) 0.89741(13)
C29_3 C 0.28381(12) 0.60259(13) 0.84544(12)
C32_3 C 0.35166(11) 0.59018(12) 0.96902(12)
C35_3 C 0.28098(12) 0.65982(12) 0.85166(11)
C36_3 C 0.21902(12) 0.64834(11) 0.84018(12)
H17_3 H 0.3435 0.6021 0.9663
H20_3 H 0.2837 0.6479 0.8435
H21_3 H 0.2163 0.6565 0.8521
C37_3 C 0.34874(11) 0.57314(12) 0.95698(12)
C40_3 C 0.29302(12) 0.67686(12) 0.84874(11)
C41_3 C 0.20698(12) 0.65126(11) 0.82314(12)
C42_3 C 0.35983(15) 0.55482(16) 0.96112(14)
C45_3 C 0.28888(14) 0.69518(16) 0.85983(15)
C46_3 C 0.21112(14) 0.64017(15) 0.80482(16)
H22_3 H 0.3581 0.5427 0.9529
H25_3 H 0.2971 0.7073 0.8581
H26_3 H 0.2029 0.6419 0.7927
C47_3 C 0.37323(16) 0.55540(17) 0.97757(15)
C50_3 C 0.27243(15) 0.69460(17) 0.87323(16)
C51_3 C 0.22757(15) 0.62677(16) 0.80540(17)
H27_3 H 0.3807 0.5433 0.9813
H30_3 H 0.2687 0.7067 0.8807
H31_3 H 0.2313 0.6193 0.7933
C52_3 C 0.37596(14) 0.57314(16) 0.98863(15)
C55_3 C 0.26137(15) 0.67686(16) 0.87596(14)
C56_3 C 0.23863(15) 0.62404(14) 0.82314(16)
H32_3 H 0.3857 0.5730 0.9997
H35_3 H 0.2503 0.6770 0.8857
H36_3 H 0.2497 0.6143 0.8230
C57_3 C 0.26535(15) 0.63923(16) 0.91627(15)
C60_3 C 0.33373(15) 0.61077(16) 0.76535(15)
C61_3 C 0.16627(15) 0.73465(15) 0.88923(16)
H37_3 H 0.2552 0.6499 0.9154
H40_3 H 0.3346 0.6001 0.7552
H41_3 H 0.1654 0.7448 0.8999
C62_3 C 0.27810(16) 0.63865(17) 0.93277(17)
C65_3 C 0.31723(17) 0.61135(17) 0.77810(16)
C66_3 C 0.18277(17) 0.72190(16) 0.88865(17)
H42_3 H 0.2772 0.6492 0.9430
H45_3 H 0.3070 0.6008 0.7772
H46_3 H 0.1930 0.7228 0.8992
C67_3 C 0.29220(15) 0.62326(15) 0.93504(16)
C70_3 C 0.31496(16) 0.62674(15) 0.79220(15)
C71_3 C 0.18504(16) 0.70780(15) 0.87326(15)
H47_3 H 0.3010 0.6229 0.9469
H50_3 H 0.3031 0.6271 0.8010
H51_3 H 0.1969 0.6990 0.8729
C72_3 C 0.29374(12) 0.60801(13) 0.91995(13)
C75_3 C 0.33005(13) 0.64199(13) 0.79374(12)
C76_3 C 0.16995(13) 0.70626(12) 0.85801(13)
C77_3 C 0.28082(11) 0.60960(12) 0.90296(12)
C80_3 C 0.34704(12) 0.64040(12) 0.78082(11)
C81_3 C 0.15296(12) 0.71918(11) 0.85960(12)
H52_3 H 0.2819 0.5995 0.8923
H55_3 H 0.3577 0.6505 0.7819
H56_3 H 0.1423 0.7181 0.8495
C82_3 C 0.30959(11) 0.59145(12) 0.92125(12)
C85_3 C 0.32875(12) 0.65855(12) 0.80959(11)
C86_3 C 0.17125(12) 0.69041(11) 0.84145(12)
C87_3 C 0.33455(12) 0.57471(12) 0.93837(11)
C90_3 C 0.31163(11) 0.67529(12) 0.83455(12)
C91_3 C 0.18837(11) 0.66545(12) 0.82471(12)
C92_3 C 0.32615(12) 0.56435(12) 0.90670(12)
C95_3 C 0.34330(12) 0.68565(12) 0.82615(12)
C96_3 C 0.15670(12) 0.67385(12) 0.81435(12)
C97_3 C 0.33809(15) 0.52549(14) 0.85594(14)
C100_3 C 0.39406(14) 0.72451(14) 0.83809(15)
C101_3 C 0.10594(14) 0.66191(15) 0.77549(14)
H57_3 H 0.3407 0.5163 0.8447
H60_3 H 0.4053 0.7337 0.8407
H61_3 H 0.0947 0.6593 0.7663
C102_3 C 0.32164(15) 0.53890(15) 0.85426(15)
C105_3 C 0.39574(15) 0.71110(15) 0.82164(15)
C106_3 C 0.10426(15) 0.67836(15) 0.78890(15)
H62_3 H 0.3133 0.5392 0.8421
H65_3 H 0.4079 0.7108 0.8133
H66_3 H 0.0921 0.6867 0.7892
C107_3 C 0.31749(13) 0.55202(14) 0.87096(14)
C110_3 C 0.37904(14) 0.69798(14) 0.81749(13)
C111_3 C 0.12096(14) 0.68251(13) 0.80202(14)
H67_3 H 0.3062 0.5615 0.8703
H70_3 H 0.3797 0.6885 0.8062
H71_3 H 0.1203 0.6938 0.8115
C112_3 C 0.32949(12) 0.55119(12) 0.88804(13)
C115_3 C 0.36196(13) 0.69881(12) 0.82949(12)
C116_3 C 0.13804(13) 0.67051(12) 0.80119(12)
C117_3 C 0.34679(12) 0.53735(11) 0.88826(11)
C120_3 C 0.36174(11) 0.71265(11) 0.84679(12)
C121_3 C 0.13826(11) 0.65321(12) 0.78735(11)
H72_3 H 0.3558 0.5373 0.9000
H75_3 H 0.3500 0.7127 0.8558
H76_3 H 0.1500 0.6442 0.7873
C122_3 C 0.41623(15) 0.88835(16) 0.76834(14)
C123_3 C 0.48166(14) 0.83377(15) 0.88835(16)
C124_3 C 0.38835(16) 0.76834(14) 0.91623(15)
C125_3 C 0.33377(15) 0.88835(16) 0.98166(14)
C126_3 C 0.26834(14) 0.83377(15) 0.86165(16)
H77_3 H 0.4146 0.8992 0.7584
H78_3 H 0.4916 0.8354 0.8992
H79_3 H 0.3992 0.7584 0.9146
H80_3 H 0.3354 0.8992 0.9916
H81_3 H 0.2584 0.8354 0.8508
C127_3 C 0.43469(17) 0.8874(2) 0.77980(17)
C128_3 C 0.47020(17) 0.81531(17) 0.8874(2)
C129_3 C 0.3874(2) 0.77980(17) 0.93469(17)
C130_3 C 0.31531(17) 0.8874(2) 0.97020(17)
C131_3 C 0.27980(17) 0.81531(17) 0.8626(2)
H82_3 H 0.4458 0.8967 0.7771
H83_3 H 0.4729 0.8042 0.8967
H84_3 H 0.3967 0.7771 0.9458
H85_3 H 0.3042 0.8967 0.9729
H86_3 H 0.2771 0.8042 0.8533
C132_3 C 0.43620(15) 0.87250(16) 0.79515(16)
C133_3 C 0.45485(16) 0.81380(15) 0.87250(16)
C134_3 C 0.37250(16) 0.79515(16) 0.93620(15)
C135_3 C 0.31380(15) 0.87250(16) 0.95485(16)
C136_3 C 0.29515(16) 0.81380(15) 0.87750(16)
H87_3 H 0.4482 0.8718 0.8036
H88_3 H 0.4464 0.8018 0.8718
H89_3 H 0.3718 0.8036 0.9482
H90_3 H 0.3018 0.8718 0.9464
H91_3 H 0.3036 0.8018 0.8782
C137_3 C 0.42016(14) 0.85869(14) 0.79809(13)
C138_3 C 0.45191(13) 0.82984(14) 0.85869(14)
C139_3 C 0.35869(14) 0.79809(13) 0.92016(14)
C140_3 C 0.32984(14) 0.85869(14) 0.95191(13)
C141_3 C 0.29809(13) 0.82984(14) 0.89131(14)
C142_3 C 0.40262(12) 0.86069(13) 0.78528(12)
C143_3 C 0.46472(12) 0.84738(12) 0.86069(13)
C144_3 C 0.36069(13) 0.78528(12) 0.90262(12)
C145_3 C 0.34738(12) 0.86069(13) 0.96472(12)
C146_3 C 0.28528(12) 0.84738(12) 0.88931(13)
H92_3 H 0.3914 0.8513 0.7873
H93_3 H 0.4627 0.8586 0.8513
H94_3 H 0.3513 0.7873 0.8914
H95_3 H 0.3586 0.8513 0.9627
H96_3 H 0.2873 0.8586 0.8987
C147_3 C 0.43569(13) 0.82921(13) 0.84275(14)
C148_3 C 0.42079(13) 0.84275(14) 0.81431(13)
C149_3 C 0.34275(14) 0.81431(13) 0.92079(13)
C150_3 C 0.31431(13) 0.82921(13) 0.90725(14)
C151_3 C 0.32921(13) 0.84275(14) 0.93569(13)
C152_3 C 0.42456(19) 0.75149(14) 0.8782(2)
C153_3 C 0.3782(2) 0.49851(14) 0.82544(19)
C154_3 C 0.3718(2) 0.49851(14) 0.92456(19)
Co12_4 Co 0.8750 0.3750 0.00144(2)
Co1_5 Co 0.621072(19) 0.5000 0.871072(19)
Co2_4 Co 0.74856(2) 0.3750 0.8750
N1_4 N 0.60606(10) 0.52320(9) 0.88708(10)
N2_4 N 0.74942(9) 0.37329(10) 0.84293(12)
N4_4 N 0.62499(10) 0.48344(10) 0.90072(11)
N5_4 N 0.67053(10) 0.43848(10) 0.90473(10)
N6_4 N 0.66003(10) 0.42919(10) 0.93852(9)
N7_4 N 0.68881(9) 0.41224(10) 0.92314(10)
N8_4 N 0.72547(10) 0.39926(10) 0.87248(10)
N9_4 N 0.77072(10) 0.34915(10) 0.87516(10)
N10_4 N 0.81390(11) 0.34409(12) 0.92186(11)
S1_4 S 0.58020(5) 0.54698(5) 0.91216(5)
S2_4 S 0.75441(7) 0.36856(15) 0.80061(7)
C1_4 C 0.59544(12) 0.53381(12) 0.89741(13)
C2_4 C 0.65982(12) 0.39834(11) 0.96902(12)
H1_4 H 0.6479 0.4065 0.9663
C3_4 C 0.67686(12) 0.40126(11) 0.95698(12)
C4_4 C 0.69518(16) 0.39017(15) 0.96112(14)
H2_4 H 0.7073 0.3919 0.9529
C5_4 C 0.69460(17) 0.37677(16) 0.97757(15)
H3_4 H 0.7067 0.3693 0.9813
C6_4 C 0.67686(16) 0.37404(14) 0.98863(15)
H4_4 H 0.6770 0.3643 0.9997
C7_4 C 0.61077(16) 0.48465(15) 0.91627(15)
H5_4 H 0.6001 0.4948 0.9154
C8_4 C 0.61135(17) 0.47190(16) 0.93277(17)
H6_4 H 0.6008 0.4728 0.9430
C9_4 C 0.62674(15) 0.45780(15) 0.93504(16)
H7_4 H 0.6271 0.4490 0.9469
C10_4 C 0.64199(13) 0.45626(12) 0.91995(13)
C11_4 C 0.64040(12) 0.46918(11) 0.90296(12)
H8_4 H 0.6505 0.4681 0.8923
C12_4 C 0.65855(12) 0.44041(11) 0.92125(12)
C13_4 C 0.67529(12) 0.41545(12) 0.93837(11)
C14_4 C 0.68565(12) 0.42385(12) 0.90670(12)
C15_4 C 0.72451(14) 0.41191(15) 0.85594(14)
H9_4 H 0.7337 0.4093 0.8447
C16_4 C 0.71110(15) 0.42836(15) 0.85426(15)
H10_4 H 0.7108 0.4367 0.8421
C17_4 C 0.69798(14) 0.43251(13) 0.87096(14)
H11_4 H 0.6885 0.4438 0.8703
C18_4 C 0.69881(12) 0.42051(12) 0.88804(13)
C19_4 C 0.71265(11) 0.40321(12) 0.88826(11)
H12_4 H 0.7127 0.3942 0.9000
C20_4 C 0.76834(14) 0.33377(15) 0.86165(16)
H13_4 H 0.7584 0.3354 0.8508
C21_4 C 0.77980(17) 0.31531(17) 0.8626(2)
H14_4 H 0.7771 0.3042 0.8533
C22_4 C 0.79515(16) 0.31380(15) 0.87750(16)
H15_4 H 0.8036 0.3018 0.8782
C23_4 C 0.79809(13) 0.32984(14) 0.89131(14)
C24_4 C 0.78528(12) 0.34738(12) 0.88931(13)
H16_4 H 0.7873 0.3586 0.8987
C25_4 C 0.81431(13) 0.32921(13) 0.90725(14)
C26_4 C 0.75149(14) 0.3718(2) 0.82544(19)
Co3_5 Co 0.628928(19) 0.371072(19) 0.7500
Co6_4 Co 0.7500 0.621072(19) 0.878928(19)
Co7_5 Co 0.621072(19) 0.2500 0.878928(19)
Co8_4 Co 0.7500 0.378928(19) 0.621072(19)
Co9_4 Co 0.50144(2) 0.3750 0.8750
Co10_4 Co 0.6250 0.6250 0.75144(2)
Co11_3 Co 0.8750 0.24856(2) 0.8750
Co13_4 Co 0.6250 0.6250 0.99856(2)
Co14_4 Co 0.8750 0.50144(2) 0.8750
Co15_4 Co 0.8750 0.3750 0.74856(2)
Co16_3 Co 0.6250 0.25144(2) 0.6250
N11_4 N 0.63708(10) 0.47680(9) 0.85606(10)
N12_4 N 0.64394(10) 0.38708(10) 0.72680(9)
N13_4 N 0.61292(10) 0.35606(10) 0.77320(9)
N14_4 N 0.47680(9) 0.61292(10) 0.89394(10)
N15_4 N 0.52320(9) 0.64394(10) 0.86292(10)
N16_4 N 0.74942(9) 0.37671(10) 0.90707(12)
N17_4 N 0.50058(9) 0.34293(12) 0.87671(10)
N18_4 N 0.50058(9) 0.40707(12) 0.87329(10)
N19_4 N 0.62671(10) 0.65707(12) 0.75058(9)
N20_4 N 0.62329(10) 0.59293(12) 0.75058(9)
N21_4 N 0.59101(10) 0.48474(10) 0.86565(9)
N22_4 N 0.61565(9) 0.51526(10) 0.84101(10)
N23_4 N 0.73474(10) 0.61565(9) 0.90899(10)
N24_4 N 0.65899(10) 0.36565(9) 0.76526(10)
N25_4 N 0.63435(9) 0.34101(10) 0.73474(10)
N26_4 N 0.51526(10) 0.63435(9) 0.90899(10)
N28_4 N 0.62501(10) 0.40072(11) 0.76656(10)
N29_4 N 0.51656(10) 0.59928(11) 0.87501(10)
N30_4 N 0.65072(11) 0.51656(10) 0.87499(10)
N31_4 N 0.62499(10) 0.26656(10) 0.84928(11)
N32_4 N 0.73344(10) 0.37501(10) 0.65072(11)
N33_4 N 0.59928(11) 0.37499(10) 0.73344(10)
N34_4 N 0.48344(10) 0.62501(10) 0.84928(11)
N35_4 N 0.57947(10) 0.40473(10) 0.81152(10)
N36_4 N 0.56152(10) 0.59527(10) 0.82947(10)
N37_4 N 0.65473(10) 0.56152(10) 0.92053(10)
N38_4 N 0.67053(10) 0.31152(10) 0.84527(10)
N39_4 N 0.68848(10) 0.32947(10) 0.65473(10)
N40_4 N 0.58997(10) 0.43852(9) 0.82081(10)
N41_4 N 0.57081(10) 0.56148(9) 0.83997(10)
N42_4 N 0.68852(9) 0.57081(10) 0.91003(10)
N43_4 N 0.66003(10) 0.32081(10) 0.81148(9)
N44_4 N 0.67919(10) 0.33997(10) 0.68852(9)
N45_4 N 0.56119(9) 0.42314(10) 0.83776(10)
N46_4 N 0.58776(10) 0.57686(10) 0.81119(9)
N47_4 N 0.67314(10) 0.58776(10) 0.93881(9)
N48_4 N 0.68881(9) 0.33776(10) 0.82686(10)
N49_4 N 0.66224(10) 0.31119(9) 0.67314(10)
N50_4 N 0.52453(10) 0.37248(10) 0.85074(10)
N51_4 N 0.60074(10) 0.62752(10) 0.77453(10)
N52_4 N 0.62248(10) 0.60074(10) 0.97547(10)
N53_4 N 0.72547(10) 0.35074(10) 0.87752(10)
N54_4 N 0.64926(10) 0.27453(10) 0.62248(10)
N55_4 N 0.52453(10) 0.37752(10) 0.89926(10)
N56_4 N 0.64926(10) 0.62248(10) 0.77453(10)
N57_4 N 0.87484(10) 0.27072(10) 0.90085(10)
N58_4 N 0.84915(10) 0.37484(10) 0.97928(10)
N59_4 N 0.77072(10) 0.40085(10) 0.87484(10)
N60_4 N 0.87484(10) 0.47928(10) 0.84915(10)
N61_4 N 0.84915(10) 0.37516(10) 0.77072(10)
N62_4 N 0.47928(10) 0.37516(10) 0.90085(10)
N63_4 N 0.47928(10) 0.37484(10) 0.84915(10)
N64_4 N 0.65085(10) 0.62484(10) 0.72928(10)
N65_4 N 0.59915(10) 0.62516(10) 0.72928(10)
N66_4 N 0.84409(12) 0.32814(11) 0.93610(11)
N67_4 N 0.82814(11) 0.31390(11) 0.90591(12)
N68_4 N 0.81390(11) 0.40591(12) 0.82814(11)
N69_4 N 0.84409(12) 0.42186(11) 0.81390(11)
N70_4 N 0.82814(11) 0.43610(11) 0.84409(12)
S3_4 S 0.66216(5) 0.45302(5) 0.83020(5)
S4_4 S 0.66980(5) 0.41216(5) 0.70302(5)
S5_4 S 0.58784(5) 0.33020(5) 0.79698(5)
S6_4 S 0.45302(5) 0.58784(5) 0.91980(5)
S7_4 S 0.54698(5) 0.66980(5) 0.83784(5)
S8_4 S 0.75441(7) 0.38144(15) 0.94939(7)
S9_4 S 0.49559(7) 0.30061(7) 0.88144(15)
S10_4 S 0.49559(7) 0.44939(7) 0.86856(15)
S11_4 S 0.63144(15) 0.69939(7) 0.74559(7)
S12_4 S 0.61856(15) 0.55061(7) 0.74559(7)
C27_4 C 0.64741(13) 0.46619(12) 0.84544(12)
C28_4 C 0.65456(12) 0.39741(13) 0.71619(12)
C29_4 C 0.60259(13) 0.34544(12) 0.78381(12)
C30_4 C 0.46619(12) 0.60259(13) 0.90456(12)
C31_4 C 0.53381(12) 0.65456(12) 0.85259(13)
C32_4 C 0.59018(12) 0.46902(12) 0.85166(11)
C33_4 C 0.60166(11) 0.53098(12) 0.84018(12)
C34_4 C 0.71902(12) 0.60166(11) 0.90982(12)
C35_4 C 0.65982(12) 0.35166(11) 0.78098(12)
C36_4 C 0.64834(11) 0.34018(12) 0.71902(12)
H17_4 H 0.6021 0.4663 0.8435
H18_4 H 0.5935 0.5337 0.8521
H19_4 H 0.7163 0.5935 0.8979
H20_4 H 0.6479 0.3435 0.7837
H21_4 H 0.6565 0.3521 0.7163
C37_4 C 0.57314(12) 0.45698(12) 0.84874(11)
C38_4 C 0.59874(11) 0.54302(12) 0.82314(12)
C39_4 C 0.70698(12) 0.59874(11) 0.92686(12)
C40_4 C 0.67686(12) 0.34874(11) 0.79302(12)
C41_4 C 0.65126(11) 0.32314(12) 0.70698(12)
C42_4 C 0.55482(16) 0.46112(14) 0.85983(15)
C43_4 C 0.60983(15) 0.53888(14) 0.80482(16)
C44_4 C 0.71112(14) 0.60983(15) 0.94518(16)
C45_4 C 0.69518(16) 0.35983(15) 0.78888(14)
C46_4 C 0.64017(15) 0.30482(16) 0.71112(14)
H22_4 H 0.5427 0.4529 0.8581
H23_4 H 0.6081 0.5471 0.7927
H24_4 H 0.7029 0.6081 0.9573
H25_4 H 0.7073 0.3581 0.7971
H26_4 H 0.6419 0.2927 0.7029
C47_4 C 0.55540(17) 0.47757(15) 0.87323(16)
C48_4 C 0.62323(16) 0.52243(15) 0.80540(17)
C49_4 C 0.72757(15) 0.62323(16) 0.94460(17)
C50_4 C 0.69460(17) 0.37323(16) 0.77243(15)
C51_4 C 0.62677(16) 0.30540(17) 0.72757(15)
H27_4 H 0.5433 0.4813 0.8807
H28_4 H 0.6307 0.5187 0.7933
H29_4 H 0.7313 0.6307 0.9567
H30_4 H 0.7067 0.3807 0.7687
H31_4 H 0.6193 0.2933 0.7313
C52_4 C 0.57314(16) 0.48863(15) 0.87596(14)
C53_4 C 0.62596(14) 0.51137(15) 0.82314(16)
C54_4 C 0.73863(15) 0.62596(14) 0.92686(16)
C55_4 C 0.67686(16) 0.37596(14) 0.76137(15)
C56_4 C 0.62404(14) 0.32314(16) 0.73863(15)
H32_4 H 0.5730 0.4997 0.8857
H33_4 H 0.6357 0.5003 0.8230
H34_4 H 0.7497 0.6357 0.9270
H35_4 H 0.6770 0.3857 0.7503
H36_4 H 0.6143 0.3230 0.7497
C57_4 C 0.63923(16) 0.41627(15) 0.76535(15)
C58_4 C 0.51535(15) 0.58373(15) 0.88923(16)
C59_4 C 0.66627(15) 0.51535(15) 0.86077(16)
C60_4 C 0.61077(16) 0.26535(15) 0.83373(15)
C61_4 C 0.73465(15) 0.38923(16) 0.66627(15)
H37_4 H 0.6499 0.4154 0.7552
H38_4 H 0.5052 0.5846 0.8999
H39_4 H 0.6654 0.5052 0.8501
H40_4 H 0.6001 0.2552 0.8346
H41_4 H 0.7448 0.3999 0.6654
C62_4 C 0.63865(17) 0.43277(17) 0.77810(16)
C63_4 C 0.52810(16) 0.56723(17) 0.88865(17)
C64_4 C 0.68277(17) 0.52810(16) 0.86135(17)
C65_4 C 0.61135(17) 0.27810(16) 0.81723(17)
C66_4 C 0.72190(16) 0.38865(17) 0.68277(17)
H42_4 H 0.6492 0.4430 0.7772
H43_4 H 0.5272 0.5570 0.8992
H44_4 H 0.6930 0.5272 0.8508
H45_4 H 0.6008 0.2772 0.8070
H46_4 H 0.7228 0.3992 0.6930
C67_4 C 0.62326(15) 0.43504(16) 0.79220(15)
C68_4 C 0.54220(15) 0.56496(16) 0.87326(15)
C69_4 C 0.68504(16) 0.54220(15) 0.87674(15)
C70_4 C 0.62674(15) 0.29220(15) 0.81496(16)
C71_4 C 0.70780(15) 0.37326(15) 0.68504(16)
H47_4 H 0.6229 0.4469 0.8010
H48_4 H 0.5510 0.5531 0.8729
H49_4 H 0.6969 0.5510 0.8771
H50_4 H 0.6271 0.3010 0.8031
H51_4 H 0.6990 0.3729 0.6969
C72_4 C 0.60801(13) 0.41995(13) 0.79374(12)
C73_4 C 0.54374(12) 0.58005(13) 0.85801(13)
C74_4 C 0.66995(13) 0.54374(12) 0.89199(13)
C75_4 C 0.64199(13) 0.29374(12) 0.83005(13)
C76_4 C 0.70626(12) 0.35801(13) 0.66995(13)
C77_4 C 0.60960(12) 0.40296(12) 0.78082(11)
C78_4 C 0.53082(11) 0.59704(12) 0.85960(12)
C79_4 C 0.65296(12) 0.53082(11) 0.89040(12)
C80_4 C 0.64040(12) 0.28082(11) 0.84704(12)
C81_4 C 0.71918(11) 0.35960(12) 0.65296(12)
H52_4 H 0.5995 0.3923 0.7819
H53_4 H 0.5319 0.6077 0.8495
H54_4 H 0.6423 0.5319 0.9005
H55_4 H 0.6505 0.2819 0.8577
H56_4 H 0.7181 0.3495 0.6423
C82_4 C 0.59145(12) 0.42125(12) 0.80959(11)
C83_4 C 0.55959(11) 0.57875(12) 0.84145(12)
C84_4 C 0.67125(12) 0.55959(11) 0.90855(12)
C85_4 C 0.65855(12) 0.30959(11) 0.82875(12)
C86_4 C 0.69041(11) 0.34145(12) 0.67125(12)
C87_4 C 0.57471(12) 0.43837(11) 0.83455(12)
C88_4 C 0.58455(12) 0.56163(11) 0.82471(12)
C89_4 C 0.68837(11) 0.58455(12) 0.92529(12)
C90_4 C 0.67529(12) 0.33455(12) 0.81163(11)
C91_4 C 0.66545(12) 0.32471(12) 0.68837(11)
C92_4 C 0.56435(12) 0.40670(12) 0.82615(12)
C93_4 C 0.57615(12) 0.59330(12) 0.81435(12)
C94_4 C 0.65670(12) 0.57615(12) 0.93565(12)
C95_4 C 0.68565(12) 0.32615(12) 0.84330(12)
C96_4 C 0.67385(12) 0.31435(12) 0.65670(12)
C97_4 C 0.52549(14) 0.35594(14) 0.83809(15)
C98_4 C 0.58809(15) 0.64406(14) 0.77549(14)
C99_4 C 0.60594(14) 0.58809(15) 0.97451(14)
C100_4 C 0.72451(14) 0.33809(15) 0.89406(14)
C101_4 C 0.66191(15) 0.27549(14) 0.60594(14)
H57_4 H 0.5163 0.3447 0.8407
H58_4 H 0.5907 0.6553 0.7663
H59_4 H 0.5947 0.5907 0.9837
H60_4 H 0.7337 0.3407 0.9053
H61_4 H 0.6593 0.2663 0.5947
C102_4 C 0.53890(15) 0.35426(15) 0.82164(15)
C103_4 C 0.57164(15) 0.64574(15) 0.78890(15)
C104_4 C 0.60426(15) 0.57164(15) 0.96110(15)
C105_4 C 0.71110(15) 0.32164(15) 0.89574(15)
C106_4 C 0.67836(15) 0.28890(15) 0.60426(15)
H62_4 H 0.5392 0.3421 0.8133
H63_4 H 0.5633 0.6579 0.7892
H64_4 H 0.5921 0.5633 0.9608
H65_4 H 0.7108 0.3133 0.9079
H66_4 H 0.6867 0.2892 0.5921
C107_4 C 0.55202(14) 0.37096(14) 0.81749(13)
C108_4 C 0.56749(13) 0.62904(14) 0.80202(14)
C109_4 C 0.62096(14) 0.56749(13) 0.94798(14)
C110_4 C 0.69798(14) 0.31749(13) 0.87904(14)
C111_4 C 0.68251(13) 0.30202(14) 0.62096(14)
H67_4 H 0.5615 0.3703 0.8062
H68_4 H 0.5562 0.6297 0.8115
H69_4 H 0.6203 0.5562 0.9385
H70_4 H 0.6885 0.3062 0.8797
H71_4 H 0.6938 0.3115 0.6203
C112_4 C 0.55119(12) 0.38804(13) 0.82949(12)
C113_4 C 0.57949(12) 0.61196(13) 0.80119(12)
C114_4 C 0.63804(13) 0.57949(12) 0.94881(12)
C115_4 C 0.69881(12) 0.32949(12) 0.86196(13)
C116_4 C 0.67051(12) 0.30119(12) 0.63804(13)
C117_4 C 0.53735(11) 0.38826(11) 0.84679(12)
C118_4 C 0.59679(12) 0.61174(11) 0.78735(11)
C119_4 C 0.63826(11) 0.59679(12) 0.96265(11)
C120_4 C 0.71265(11) 0.34679(12) 0.86174(11)
C121_4 C 0.65321(12) 0.28735(11) 0.63826(11)
H72_4 H 0.5373 0.4000 0.8558
H73_4 H 0.6058 0.6000 0.7873
H74_4 H 0.6500 0.6058 0.9627
H75_4 H 0.7127 0.3558 0.8500
H76_4 H 0.6442 0.2873 0.6500
C122_4 C 0.88835(16) 0.26834(14) 0.91623(15)
C123_4 C 0.83377(15) 0.38835(16) 0.98166(14)
C124_4 C 0.76834(14) 0.41623(15) 0.88835(16)
C125_4 C 0.88835(16) 0.48166(14) 0.83377(15)
C126_4 C 0.83377(15) 0.36165(16) 0.76834(14)
H77_4 H 0.8992 0.2584 0.9146
H78_4 H 0.8354 0.3992 0.9916
H79_4 H 0.7584 0.4146 0.8992
H80_4 H 0.8992 0.4916 0.8354
H81_4 H 0.8354 0.3508 0.7584
C127_4 C 0.8874(2) 0.27980(17) 0.93469(17)
C128_4 C 0.81531(17) 0.3874(2) 0.97020(17)
C129_4 C 0.77980(17) 0.43469(17) 0.8874(2)
C130_4 C 0.8874(2) 0.47020(17) 0.81531(17)
C131_4 C 0.81531(17) 0.3626(2) 0.77980(17)
H82_4 H 0.8967 0.2771 0.9458
H83_4 H 0.8042 0.3967 0.9729
H84_4 H 0.7771 0.4458 0.8967
H85_4 H 0.8967 0.4729 0.8042
H86_4 H 0.8042 0.3533 0.7771
C132_4 C 0.87250(16) 0.29515(16) 0.93620(15)
C133_4 C 0.81380(15) 0.37250(16) 0.95485(16)
C134_4 C 0.79515(16) 0.43620(15) 0.87250(16)
C135_4 C 0.87250(16) 0.45485(16) 0.81380(15)
C136_4 C 0.81380(15) 0.37750(16) 0.79515(16)
H87_4 H 0.8718 0.3036 0.9482
H88_4 H 0.8018 0.3718 0.9464
H89_4 H 0.8036 0.4482 0.8718
H90_4 H 0.8718 0.4464 0.8018
H91_4 H 0.8018 0.3782 0.8036
C137_4 C 0.85869(14) 0.29809(13) 0.92016(14)
C138_4 C 0.82984(14) 0.35869(14) 0.95191(13)
C139_4 C 0.79809(13) 0.42016(14) 0.85869(14)
C140_4 C 0.85869(14) 0.45191(13) 0.82984(14)
C141_4 C 0.82984(14) 0.39131(14) 0.79809(13)
C142_4 C 0.86069(13) 0.28528(12) 0.90262(12)
C143_4 C 0.84738(12) 0.36069(13) 0.96472(12)
C144_4 C 0.78528(12) 0.40262(12) 0.86069(13)
C145_4 C 0.86069(13) 0.46472(12) 0.84738(12)
C146_4 C 0.84738(12) 0.38931(13) 0.78528(12)
H92_4 H 0.8513 0.2873 0.8914
H93_4 H 0.8586 0.3513 0.9627
H94_4 H 0.7873 0.3914 0.8513
H95_4 H 0.8513 0.4627 0.8586
H96_4 H 0.8586 0.3987 0.7873
C147_4 C 0.82921(13) 0.34275(14) 0.93569(13)
C148_4 C 0.84275(14) 0.31431(13) 0.92079(13)
C149_4 C 0.81431(13) 0.42079(13) 0.84275(14)
C150_4 C 0.82921(13) 0.40725(14) 0.81431(13)
C151_4 C 0.84275(14) 0.43569(13) 0.82921(13)
C152_4 C 0.75149(14) 0.3782(2) 0.92456(19)
C153_4 C 0.49851(14) 0.32544(19) 0.8782(2)
C154_4 C 0.49851(14) 0.42456(19) 0.8718(2)
C155_4 C 0.6282(2) 0.67456(19) 0.74851(14)
C156_4 C 0.6218(2) 0.57544(19) 0.74851(14)
Co3_6 Co 0.121072(19) 0.371072(19) 0.0000
Co8_5 Co -0.0000 0.378928(19) 0.128928(19)
N12_5 N 0.10606(10) 0.38708(10) 0.02320(9)
N25_5 N 0.11565(9) 0.34101(10) 0.01526(10)
N32_5 N 0.01656(10) 0.37501(10) 0.09928(11)
N33_5 N 0.15072(11) 0.37499(10) 0.01656(10)
N39_5 N 0.06152(10) 0.32947(10) 0.09527(10)
N44_5 N 0.07081(10) 0.33997(10) 0.06148(9)
N49_5 N 0.08776(10) 0.31119(9) 0.07686(10)
N54_5 N 0.10074(10) 0.27453(10) 0.12752(10)
N64_5 N 0.09915(10) 0.62484(10) 0.02072(10)
N65_5 N 0.15085(10) 0.62516(10) 0.02072(10)
S4_5 S 0.08020(5) 0.41216(5) 0.04698(5)
S11_5 S 0.11856(15) 0.69939(7) 0.00441(7)
S12_5 S 0.13144(15) 0.55061(7) 0.00441(7)
C28_5 C 0.09544(12) 0.39741(13) 0.03381(12)
C36_5 C 0.10166(11) 0.34018(12) 0.03098(12)
H21_5 H 0.0935 0.3521 0.0337
C41_5 C 0.09874(11) 0.32314(12) 0.04302(12)
C46_5 C 0.10983(15) 0.30482(16) 0.03888(14)
H26_5 H 0.1081 0.2927 0.0471
C51_5 C 0.12323(16) 0.30540(17) 0.02243(15)
H31_5 H 0.1307 0.2933 0.0187
C56_5 C 0.12596(14) 0.32314(16) 0.01137(15)
H36_5 H 0.1357 0.3230 0.0003
C61_5 C 0.01535(15) 0.38923(16) 0.08373(15)
H41_5 H 0.0052 0.3999 0.0846
C66_5 C 0.02810(16) 0.38865(17) 0.06723(17)
H46_5 H 0.0272 0.3992 0.0570
C71_5 C 0.04220(15) 0.37326(15) 0.06496(16)
H51_5 H 0.0510 0.3729 0.0531
C76_5 C 0.04374(12) 0.35801(13) 0.08005(13)
C81_5 C 0.03082(11) 0.35960(12) 0.09704(12)
H56_5 H 0.0319 0.3495 0.1077
C86_5 C 0.05959(11) 0.34145(12) 0.07875(12)
C91_5 C 0.08455(12) 0.32471(12) 0.06163(11)
C96_5 C 0.07615(12) 0.31435(12) 0.09330(12)
C101_5 C 0.08809(15) 0.27549(14) 0.14406(14)
H61_5 H 0.0907 0.2663 0.1553
C106_5 C 0.07164(15) 0.28890(15) 0.14574(15)
H66_5 H 0.0633 0.2892 0.1579
C111_5 C 0.06749(13) 0.30202(14) 0.12904(14)
H71_5 H 0.0562 0.3115 0.1297
C116_5 C 0.07949(12) 0.30119(12) 0.11196(13)
C121_5 C 0.09679(12) 0.28735(11) 0.11174(11)
H76_5 H 0.1058 0.2873 0.1000
C155_5 C 0.1218(2) 0.67456(19) 0.00149(14)
C156_5 C 0.1282(2) 0.57544(19) 0.00149(14)
Co1_6 Co 0.128928(19) 0.5000 0.878928(19)
Co2_5 Co 0.00144(2) 0.3750 0.8750
N1_5 N 0.14394(10) 0.52320(9) 0.86292(10)
N2_5 N 0.00058(9) 0.37329(10) 0.90707(12)
N3_4 N 0.09101(10) 0.38435(9) 0.76526(10)
N4_5 N 0.12501(10) 0.48344(10) 0.84928(11)
N5_5 N 0.07947(10) 0.43848(10) 0.84527(10)
N6_5 N 0.08997(10) 0.42919(10) 0.81148(9)
N7_5 N 0.06119(9) 0.41224(10) 0.82686(10)
N8_5 N 0.02453(10) 0.39926(10) 0.87752(10)
S1_5 S 0.16980(5) 0.54698(5) 0.83784(5)
C1_5 C 0.15456(12) 0.53381(12) 0.85259(13)
C2_5 C 0.09018(12) 0.39834(11) 0.78098(12)
H1_5 H 0.1021 0.4065 0.7837
C3_5 C 0.07314(12) 0.40126(11) 0.79302(12)
C4_5 C 0.05482(16) 0.39017(15) 0.78888(14)
H2_5 H 0.0427 0.3919 0.7971
C5_5 C 0.05540(17) 0.37677(16) 0.77243(15)
H3_5 H 0.0433 0.3693 0.7687
C6_5 C 0.07314(16) 0.37404(14) 0.76137(15)
H4_5 H 0.0730 0.3643 0.7503
C7_5 C 0.13923(16) 0.48465(15) 0.83373(15)
H5_5 H 0.1499 0.4948 0.8346
C8_5 C 0.13865(17) 0.47190(16) 0.81723(17)
H6_5 H 0.1492 0.4728 0.8070
C9_5 C 0.12326(15) 0.45780(15) 0.81496(16)
H7_5 H 0.1229 0.4490 0.8031
C10_5 C 0.10801(13) 0.45626(12) 0.83005(13)
C11_5 C 0.10960(12) 0.46918(11) 0.84704(12)
H8_5 H 0.0995 0.4681 0.8577
C12_5 C 0.09145(12) 0.44041(11) 0.82875(12)
C13_5 C 0.07471(12) 0.41545(12) 0.81163(11)
C14_5 C 0.06435(12) 0.42385(12) 0.84330(12)
C15_5 C 0.02549(14) 0.41191(15) 0.89406(14)
H9_5 H 0.0163 0.4093 0.9053
C16_5 C 0.03890(15) 0.42836(15) 0.89574(15)
H10_5 H 0.0392 0.4367 0.9079
C17_5 C 0.05202(14) 0.43251(13) 0.87904(14)
H11_5 H 0.0615 0.4438 0.8797
C18_5 C 0.05119(12) 0.42051(12) 0.86196(13)
C19_5 C 0.03735(11) 0.40321(12) 0.86174(11)
H12_5 H 0.0373 0.3942 0.8500
Co3_7 Co 0.121072(19) 0.371072(19) 1.0000
Co5_4 Co 0.121072(19) 0.378928(19) 0.7500
Co6_5 Co 0.0000 0.621072(19) 0.871072(19)
Co7_6 Co 0.128928(19) 0.2500 0.871072(19)
Co9_5 Co 0.24856(2) 0.3750 0.8750
Co10_5 Co 0.1250 0.6250 0.99856(2)
N11_5 N 0.11292(10) 0.47680(9) 0.89394(10)
N13_5 N 0.13708(10) 0.35606(10) 0.97680(9)
N16_5 N 0.00058(9) 0.37671(10) 0.84293(12)
N17_5 N 0.24942(9) 0.34293(12) 0.87329(10)
N18_5 N 0.24942(9) 0.40707(12) 0.87671(10)
N19_5 N 0.12329(10) 0.65707(12) 0.99942(9)
N20_5 N 0.12671(10) 0.59293(12) 0.99942(9)
N21_5 N 0.15899(10) 0.48474(10) 0.88435(9)
N22_5 N 0.13435(9) 0.51526(10) 0.90899(10)
N23_5 N 0.01526(10) 0.61565(9) 0.84101(10)
N24_5 N 0.09101(10) 0.36565(9) 0.98474(10)
N28_5 N 0.12499(10) 0.40072(11) 0.98344(10)
N30_5 N 0.09928(11) 0.51656(10) 0.87501(10)
N31_5 N 0.12501(10) 0.26656(10) 0.90072(11)
N35_5 N 0.17053(10) 0.40473(10) 0.93848(10)
N36_5 N 0.18848(10) 0.59527(10) 0.92053(10)
N37_5 N 0.09527(10) 0.56152(10) 0.82947(10)
N38_5 N 0.07947(10) 0.31152(10) 0.90473(10)
N40_5 N 0.16003(10) 0.43852(9) 0.92919(10)
N41_5 N 0.17919(10) 0.56148(9) 0.91003(10)
N42_5 N 0.06148(9) 0.57081(10) 0.83997(10)
N43_5 N 0.08997(10) 0.32081(10) 0.93852(9)
N45_5 N 0.18881(9) 0.42314(10) 0.91224(10)
N46_5 N 0.16224(10) 0.57686(10) 0.93881(9)
N47_5 N 0.07686(10) 0.58776(10) 0.81119(9)
N48_5 N 0.06119(9) 0.33776(10) 0.92314(10)
N50_5 N 0.22547(10) 0.37248(10) 0.89926(10)
N51_5 N 0.14926(10) 0.62752(10) 0.97547(10)
N52_5 N 0.12752(10) 0.60074(10) 0.77453(10)
N53_5 N 0.02453(10) 0.35074(10) 0.87248(10)
N55_5 N 0.22547(10) 0.37752(10) 0.85074(10)
N56_5 N 0.10074(10) 0.62248(10) 0.97547(10)
N62_5 N 0.27072(10) 0.37516(10) 0.84915(10)
N63_5 N 0.27072(10) 0.37484(10) 0.90085(10)
S3_5 S 0.08784(5) 0.45302(5) 0.91980(5)
S5_5 S 0.16216(5) 0.33020(5) 0.95302(5)
S9_5 S 0.25441(7) 0.30061(7) 0.86856(15)
S10_5 S 0.25441(7) 0.44939(7) 0.88144(15)
C27_5 C 0.10259(13) 0.46619(12) 0.90456(12)
C29_5 C 0.14741(13) 0.34544(12) 0.96619(12)
C32_5 C 0.15982(12) 0.46902(12) 0.89834(11)
C33_5 C 0.14834(11) 0.53098(12) 0.90982(12)
C34_5 C 0.03098(12) 0.60166(11) 0.84018(12)
C35_5 C 0.09018(12) 0.35166(11) 0.96902(12)
H17_5 H 0.1479 0.4663 0.9065
H18_5 H 0.1565 0.5337 0.8979
H19_5 H 0.0337 0.5935 0.8521
H20_5 H 0.1021 0.3435 0.9663
C37_5 C 0.17686(12) 0.45698(12) 0.90126(11)
C38_5 C 0.15126(11) 0.54302(12) 0.92686(12)
C39_5 C 0.04302(12) 0.59874(11) 0.82314(12)
C40_5 C 0.07314(12) 0.34874(11) 0.95698(12)
C42_5 C 0.19518(16) 0.46112(14) 0.89017(15)
C43_5 C 0.14017(15) 0.53888(14) 0.94518(16)
C44_5 C 0.03888(14) 0.60983(15) 0.80482(16)
C45_5 C 0.05482(16) 0.35983(15) 0.96112(14)
H22_5 H 0.2073 0.4529 0.8919
H23_5 H 0.1419 0.5471 0.9573
H24_5 H 0.0471 0.6081 0.7927
H25_5 H 0.0427 0.3581 0.9529
C47_5 C 0.19460(17) 0.47757(15) 0.87677(16)
C48_5 C 0.12677(16) 0.52243(15) 0.94460(17)
C49_5 C 0.02243(15) 0.62323(16) 0.80540(17)
C50_5 C 0.05540(17) 0.37323(16) 0.97757(15)
H27_5 H 0.2067 0.4813 0.8693
H28_5 H 0.1193 0.5187 0.9567
H29_5 H 0.0187 0.6307 0.7933
H30_5 H 0.0433 0.3807 0.9813
C52_5 C 0.17686(16) 0.48863(15) 0.87404(14)
C53_5 C 0.12404(14) 0.51137(15) 0.92686(16)
C54_5 C 0.01137(15) 0.62596(14) 0.82314(16)
C55_5 C 0.07314(16) 0.37596(14) 0.98863(15)
H32_5 H 0.1770 0.4997 0.8643
H33_5 H 0.1143 0.5003 0.9270
H34_5 H 0.0003 0.6357 0.8230
H35_5 H 0.0730 0.3857 0.9997
C57_5 C 0.11077(16) 0.41627(15) 0.98465(15)
C58_5 C 0.23465(15) 0.58373(15) 0.86077(16)
C59_5 C 0.08373(15) 0.51535(15) 0.88923(16)
C60_5 C 0.13923(16) 0.26535(15) 0.91627(15)
H37_5 H 0.1001 0.4154 0.9948
H38_5 H 0.2448 0.5846 0.8501
H39_5 H 0.0846 0.5052 0.8999
H40_5 H 0.1499 0.2552 0.9154
C62_5 C 0.11135(17) 0.43277(17) 0.97190(16)
C63_5 C 0.22190(16) 0.56723(17) 0.86135(17)
C64_5 C 0.06723(17) 0.52810(16) 0.88865(17)
C65_5 C 0.13865(17) 0.27810(16) 0.93277(17)
H42_5 H 0.1008 0.4430 0.9728
H43_5 H 0.2228 0.5570 0.8508
H44_5 H 0.0570 0.5272 0.8992
H45_5 H 0.1492 0.2772 0.9430
C67_5 C 0.12674(15) 0.43504(16) 0.95780(15)
C68_5 C 0.20780(15) 0.56496(16) 0.87674(15)
C69_5 C 0.06496(16) 0.54220(15) 0.87326(15)
C70_5 C 0.12326(15) 0.29220(15) 0.93504(16)
H47_5 H 0.1271 0.4469 0.9490
H48_5 H 0.1990 0.5531 0.8771
H49_5 H 0.0531 0.5510 0.8729
H50_5 H 0.1229 0.3010 0.9469
C72_5 C 0.14199(13) 0.41995(13) 0.95626(12)
C73_5 C 0.20626(12) 0.58005(13) 0.89199(13)
C74_5 C 0.08005(13) 0.54374(12) 0.85801(13)
C75_5 C 0.10801(13) 0.29374(12) 0.91995(13)
C77_5 C 0.14040(12) 0.40296(12) 0.96918(11)
C78_5 C 0.21918(11) 0.59704(12) 0.89040(12)
C79_5 C 0.09704(12) 0.53082(11) 0.85960(12)
C80_5 C 0.10960(12) 0.28082(11) 0.90296(12)
H52_5 H 0.1505 0.3923 0.9681
H53_5 H 0.2181 0.6077 0.9005
H54_5 H 0.1077 0.5319 0.8495
H55_5 H 0.0995 0.2819 0.8923
C82_5 C 0.15855(12) 0.42125(12) 0.94041(11)
C83_5 C 0.19041(11) 0.57875(12) 0.90855(12)
C84_5 C 0.07875(12) 0.55959(11) 0.84145(12)
C85_5 C 0.09145(12) 0.30959(11) 0.92125(12)
C87_5 C 0.17529(12) 0.43837(11) 0.91545(12)
C88_5 C 0.16545(12) 0.56163(11) 0.92529(12)
C89_5 C 0.06163(11) 0.58455(12) 0.82471(12)
C90_5 C 0.07471(12) 0.33455(12) 0.93837(11)
C92_5 C 0.18565(12) 0.40670(12) 0.92385(12)
C93_5 C 0.17385(12) 0.59330(12) 0.93565(12)
C94_5 C 0.09330(12) 0.57615(12) 0.81435(12)
C95_5 C 0.06435(12) 0.32615(12) 0.90670(12)
C97_5 C 0.22451(14) 0.35594(14) 0.91191(15)
C98_5 C 0.16191(15) 0.64406(14) 0.97451(14)
C99_5 C 0.14406(14) 0.58809(15) 0.77549(14)
C100_5 C 0.02549(14) 0.33809(15) 0.85594(14)
H57_5 H 0.2337 0.3447 0.9093
H58_5 H 0.1593 0.6553 0.9837
H59_5 H 0.1553 0.5907 0.7663
H60_5 H 0.0163 0.3407 0.8447
C102_5 C 0.21110(15) 0.35426(15) 0.92836(15)
C103_5 C 0.17836(15) 0.64574(15) 0.96110(15)
C104_5 C 0.14574(15) 0.57164(15) 0.78890(15)
C105_5 C 0.03890(15) 0.32164(15) 0.85426(15)
H62_5 H 0.2108 0.3421 0.9367
H63_5 H 0.1867 0.6579 0.9608
H64_5 H 0.1579 0.5633 0.7892
H65_5 H 0.0392 0.3133 0.8421
C107_5 C 0.19798(14) 0.37096(14) 0.93251(13)
C108_5 C 0.18251(13) 0.62904(14) 0.94798(14)
C109_5 C 0.12904(14) 0.56749(13) 0.80202(14)
C110_5 C 0.05202(14) 0.31749(13) 0.87096(14)
H67_5 H 0.1885 0.3703 0.9438
H68_5 H 0.1938 0.6297 0.9385
H69_5 H 0.1297 0.5562 0.8115
H70_5 H 0.0615 0.3062 0.8703
C112_5 C 0.19881(12) 0.38804(13) 0.92051(12)
C113_5 C 0.17051(12) 0.61196(13) 0.94881(12)
C114_5 C 0.11196(13) 0.57949(12) 0.80119(12)
C115_5 C 0.05119(12) 0.32949(12) 0.88804(13)
C117_5 C 0.21265(11) 0.38826(11) 0.90321(12)
C118_5 C 0.15321(12) 0.61174(11) 0.96265(11)
C119_5 C 0.11174(11) 0.59679(12) 0.78735(11)
C120_5 C 0.03735(11) 0.34679(12) 0.88826(11)
H72_5 H 0.2127 0.4000 0.8942
H73_5 H 0.1442 0.6000 0.9627
H74_5 H 0.1000 0.6058 0.7873
H75_5 H 0.0373 0.3558 0.9000
C153_5 C 0.25149(14) 0.32544(19) 0.8718(2)
C154_5 C 0.25149(14) 0.42456(19) 0.8782(2)
Co8_6 Co 1.0000 0.378928(19) 0.128928(19)
N9_5 N 0.97928(10) 0.34915(10) 0.87484(10)
N10_5 N 0.93610(11) 0.34409(12) 0.82814(11)
S2_5 S 0.99559(7) 0.36856(15) 0.94939(7)
C20_5 C 0.98166(14) 0.33377(15) 0.88835(16)
H13_5 H 0.9916 0.3354 0.8992
C21_5 C 0.97020(17) 0.31531(17) 0.8874(2)
H14_5 H 0.9729 0.3042 0.8967
C22_5 C 0.95485(16) 0.31380(15) 0.87250(16)
H15_5 H 0.9464 0.3018 0.8718
C23_5 C 0.95191(13) 0.32984(14) 0.85869(14)
C24_5 C 0.96472(12) 0.34738(12) 0.86069(13)
H16_5 H 0.9627 0.3586 0.8513
C25_5 C 0.93569(13) 0.32921(13) 0.84275(14)
C26_5 C 0.99851(14) 0.3718(2) 0.92456(19)
Co6_6 Co 1.0000 0.621072(19) 0.871072(19)
N57_5 N 0.87516(10) 0.27072(10) 0.84915(10)
N58_5 N 0.90085(10) 0.37484(10) 0.77072(10)
N59_5 N 0.97928(10) 0.40085(10) 0.87516(10)
N60_5 N 0.87516(10) 0.47928(10) 0.90085(10)
N61_5 N 0.90085(10) 0.37516(10) 0.97928(10)
N66_5 N 0.90591(12) 0.32814(11) 0.81390(11)
N67_5 N 0.92186(11) 0.31390(11) 0.84409(12)
N68_5 N 0.93610(11) 0.40591(12) 0.92186(11)
N69_5 N 0.90591(12) 0.42186(11) 0.93610(11)
N70_5 N 0.92186(11) 0.43610(11) 0.90591(12)
S8_5 S 0.99559(7) 0.38144(15) 0.80061(7)
C122_5 C 0.86165(16) 0.26834(14) 0.83377(15)
C123_5 C 0.91623(15) 0.38835(16) 0.76834(14)
C124_5 C 0.98166(14) 0.41623(15) 0.86165(16)
C125_5 C 0.86165(16) 0.48166(14) 0.91623(15)
C126_5 C 0.91623(15) 0.36165(16) 0.98166(14)
H77_5 H 0.8508 0.2584 0.8354
H78_5 H 0.9146 0.3992 0.7584
H79_5 H 0.9916 0.4146 0.8508
H80_5 H 0.8508 0.4916 0.9146
H81_5 H 0.9146 0.3508 0.9916
C127_5 C 0.8626(2) 0.27980(17) 0.81531(17)
C128_5 C 0.93469(17) 0.3874(2) 0.77980(17)
C129_5 C 0.97020(17) 0.43469(17) 0.8626(2)
C130_5 C 0.8626(2) 0.47020(17) 0.93469(17)
C131_5 C 0.93469(17) 0.3626(2) 0.97020(17)
H82_5 H 0.8533 0.2771 0.8042
H83_5 H 0.9458 0.3967 0.7771
H84_5 H 0.9729 0.4458 0.8533
H85_5 H 0.8533 0.4729 0.9458
H86_5 H 0.9458 0.3533 0.9729
C132_5 C 0.87750(16) 0.29515(16) 0.81380(15)
C133_5 C 0.93620(15) 0.37250(16) 0.79515(16)
C134_5 C 0.95485(16) 0.43620(15) 0.87750(16)
C135_5 C 0.87750(16) 0.45485(16) 0.93620(15)
C136_5 C 0.93620(15) 0.37750(16) 0.95485(16)
H87_5 H 0.8782 0.3036 0.8018
H88_5 H 0.9482 0.3718 0.8036
H89_5 H 0.9464 0.4482 0.8782
H90_5 H 0.8782 0.4464 0.9482
H91_5 H 0.9482 0.3782 0.9464
C137_5 C 0.89131(14) 0.29809(13) 0.82984(14)
C138_5 C 0.92016(14) 0.35869(14) 0.79809(13)
C139_5 C 0.95191(13) 0.42016(14) 0.89131(14)
C140_5 C 0.89131(14) 0.45191(13) 0.92016(14)
C141_5 C 0.92016(14) 0.39131(14) 0.95191(13)
C142_5 C 0.88931(13) 0.28528(12) 0.84738(12)
C143_5 C 0.90262(12) 0.36069(13) 0.78528(12)
C144_5 C 0.96472(12) 0.40262(12) 0.88931(13)
C145_5 C 0.88931(13) 0.46472(12) 0.90262(12)
C146_5 C 0.90262(12) 0.38931(13) 0.96472(12)
H92_5 H 0.8987 0.2873 0.8586
H93_5 H 0.8914 0.3513 0.7873
H94_5 H 0.9627 0.3914 0.8987
H95_5 H 0.8987 0.4627 0.8914
H96_5 H 0.8914 0.3987 0.9627
C147_5 C 0.92079(13) 0.34275(14) 0.81431(13)
C148_5 C 0.90725(14) 0.31431(13) 0.82921(13)
C149_5 C 0.93569(13) 0.42079(13) 0.90725(14)
C150_5 C 0.92079(13) 0.40725(14) 0.93569(13)
C151_5 C 0.90725(14) 0.43569(13) 0.92079(13)
C152_5 C 0.99851(14) 0.3782(2) 0.82544(19)
S2_6 S 0.00441(7) 0.05061(7) 0.13144(15)
C26_6 C 0.00149(14) 0.07544(19) 0.1282(2)
N59_6 N 0.02072(10) 0.12484(10) 0.09915(10)
N60_6 N 0.12484(10) 0.09915(10) 0.02072(10)
N61_6 N 0.09915(10) 0.02072(10) 0.12484(10)
N68_6 N 0.06390(11) 0.07814(11) 0.09409(12)
N69_6 N 0.09409(12) 0.06390(11) 0.07814(11)
N70_6 N 0.07814(11) 0.09409(12) 0.06390(11)
S8_6 S 0.00441(7) 0.19939(7) 0.11856(15)
C124_6 C 0.01834(14) 0.13835(16) 0.08377(15)
C125_6 C 0.13835(16) 0.08377(15) 0.01834(14)
C126_6 C 0.08377(15) 0.01834(14) 0.13835(16)
H79_6 H 0.0084 0.1492 0.0854
H80_6 H 0.1492 0.0854 0.0084
H81_6 H 0.0854 0.0084 0.1492
C129_6 C 0.02980(17) 0.1374(2) 0.06531(17)
C130_6 C 0.1374(2) 0.06531(17) 0.02980(17)
C131_6 C 0.06531(17) 0.02980(17) 0.1374(2)
H84_6 H 0.0271 0.1467 0.0542
H85_6 H 0.1467 0.0542 0.0271
H86_6 H 0.0542 0.0271 0.1467
C134_6 C 0.04515(16) 0.12250(16) 0.06380(15)
C135_6 C 0.12250(16) 0.06380(15) 0.04515(16)
C136_6 C 0.06380(15) 0.04515(16) 0.12250(16)
H89_6 H 0.0536 0.1218 0.0518
H90_6 H 0.1218 0.0518 0.0536
H91_6 H 0.0518 0.0536 0.1218
C139_6 C 0.04809(13) 0.10869(14) 0.07984(14)
C140_6 C 0.10869(14) 0.07984(14) 0.04809(13)
C141_6 C 0.07984(14) 0.04809(13) 0.10869(14)
C144_6 C 0.03528(12) 0.11069(13) 0.09738(12)
C145_6 C 0.11069(13) 0.09738(12) 0.03528(12)
C146_6 C 0.09738(12) 0.03528(12) 0.11069(13)
H94_6 H 0.0373 0.1013 0.1086
H95_6 H 0.1013 0.1086 0.0373
H96_6 H 0.1086 0.0373 0.1013
C149_6 C 0.06431(13) 0.09275(14) 0.07921(13)
C150_6 C 0.07921(13) 0.06431(13) 0.09275(14)
C151_6 C 0.09275(14) 0.07921(13) 0.06431(13)
C152_6 C 0.00149(14) 0.17456(19) 0.1218(2)
Co6_7 Co -0.0000 0.128928(19) 0.878928(19)
Co14_5 Co 0.1250 0.1250 0.99856(2)
Co8_7 Co -0.0000 0.871072(19) 0.121072(19)
Co1_7 Co 0.871072(19) 0.121072(19) 0.0000
N2_6 N 0.99942(9) 0.09293(12) 0.12671(10)
N3_5 N 0.90899(10) 0.23474(10) 0.11565(9)
N4_6 N 0.87499(10) 0.15072(11) 0.01656(10)
N5_6 N 0.92053(10) 0.15473(10) 0.06152(10)
N6_6 N 0.91003(10) 0.18852(9) 0.07081(10)
N7_6 N 0.93881(9) 0.17314(10) 0.08776(10)
N8_6 N 0.97547(10) 0.12248(10) 0.10074(10)
C2_6 C 0.90982(12) 0.21902(12) 0.10166(11)
H1_6 H 0.8979 0.2163 0.0935
C3_6 C 0.92686(12) 0.20698(12) 0.09874(11)
C4_6 C 0.94518(16) 0.21112(14) 0.10983(15)
H2_6 H 0.9573 0.2029 0.1081
C5_6 C 0.94460(17) 0.22757(15) 0.12323(16)
H3_6 H 0.9567 0.2313 0.1307
C6_6 C 0.92686(16) 0.23863(15) 0.12596(14)
H4_6 H 0.9270 0.2497 0.1357
C7_6 C 0.86077(16) 0.16627(15) 0.01535(15)
H5_6 H 0.8501 0.1654 0.0052
C8_6 C 0.86135(17) 0.18277(17) 0.02810(16)
H6_6 H 0.8508 0.1930 0.0272
C9_6 C 0.87674(15) 0.18504(16) 0.04220(15)
H7_6 H 0.8771 0.1969 0.0510
C10_6 C 0.89199(13) 0.16995(13) 0.04374(12)
C11_6 C 0.89040(12) 0.15296(12) 0.03082(11)
H8_6 H 0.9005 0.1423 0.0319
C12_6 C 0.90855(12) 0.17125(12) 0.05959(11)
C13_6 C 0.92529(12) 0.18837(11) 0.08455(12)
C14_6 C 0.93565(12) 0.15670(12) 0.07615(12)
C15_6 C 0.97451(14) 0.10594(14) 0.08809(15)
H9_6 H 0.9837 0.0947 0.0907
C16_6 C 0.96110(15) 0.10426(15) 0.07164(15)
H10_6 H 0.9608 0.0921 0.0633
C17_6 C 0.94798(14) 0.12096(14) 0.06749(13)
H11_6 H 0.9385 0.1203 0.0562
C18_6 C 0.94881(12) 0.13804(13) 0.07949(12)
C19_6 C 0.96265(11) 0.13826(11) 0.09679(12)
H12_6 H 0.9627 0.1500 0.1058
Co3_8 Co 0.878928(19) -0.0000 0.128928(19)
Co5_5 Co 0.878928(19) 0.2500 0.121072(19)
Co9_6 Co 0.75144(2) 0.1250 0.1250
N11_6 N 0.88708(10) 0.10606(10) 0.02320(9)
N13_6 N 0.86292(10) 0.02320(9) 0.14394(10)
N16_6 N 0.99942(9) 0.15707(12) 0.12329(10)
N17_6 N 0.75058(9) 0.12671(10) 0.15707(12)
N18_6 N 0.75058(9) 0.12329(10) 0.09293(12)
N21_6 N 0.84101(10) 0.11565(9) 0.01526(10)
N24_6 N 0.90899(10) 0.01526(10) 0.13435(9)
N28_6 N 0.87501(10) 0.01656(10) 0.09928(11)
N31_6 N 0.87499(10) 0.09928(11) 0.23344(10)
N35_6 N 0.82947(10) 0.06152(10) 0.09527(10)
N38_6 N 0.92053(10) 0.09527(10) 0.18848(10)
N40_6 N 0.83997(10) 0.07081(10) 0.06148(9)
N43_6 N 0.91003(10) 0.06148(9) 0.17919(10)
N45_6 N 0.81119(9) 0.08776(10) 0.07686(10)
N48_6 N 0.93881(9) 0.07686(10) 0.16224(10)
N50_6 N 0.77453(10) 0.10074(10) 0.12752(10)
N53_6 N 0.97547(10) 0.12752(10) 0.14926(10)
N55_6 N 0.77453(10) 0.14926(10) 0.12248(10)
N62_6 N 0.72928(10) 0.15085(10) 0.12484(10)
N63_6 N 0.72928(10) 0.09915(10) 0.12516(10)
S3_6 S 0.91216(5) 0.08020(5) 0.04698(5)
S5_6 S 0.83784(5) 0.04698(5) 0.16980(5)
S9_6 S 0.74559(7) 0.13144(15) 0.19939(7)
S10_6 S 0.74559(7) 0.11856(15) 0.05061(7)
C27_6 C 0.89741(13) 0.09544(12) 0.03381(12)
C29_6 C 0.85259(13) 0.03381(12) 0.15456(12)
C32_6 C 0.84018(12) 0.10166(11) 0.03098(12)
C35_6 C 0.90982(12) 0.03098(12) 0.14834(11)
H17_6 H 0.8521 0.0935 0.0337
H20_6 H 0.8979 0.0337 0.1565
C37_6 C 0.82314(12) 0.09874(11) 0.04302(12)
C40_6 C 0.92686(12) 0.04302(12) 0.15126(11)
C42_6 C 0.80482(16) 0.10983(15) 0.03888(14)
C45_6 C 0.94518(16) 0.03888(14) 0.14017(15)
H22_6 H 0.7927 0.1081 0.0471
H25_6 H 0.9573 0.0471 0.1419
C47_6 C 0.80540(17) 0.12323(16) 0.02243(15)
C50_6 C 0.94460(17) 0.02243(15) 0.12677(16)
H27_6 H 0.7933 0.1307 0.0187
H30_6 H 0.9567 0.0187 0.1193
C52_6 C 0.82314(16) 0.12596(14) 0.01137(15)
C55_6 C 0.92686(16) 0.01137(15) 0.12404(14)
H32_6 H 0.8230 0.1357 0.0003
H35_6 H 0.9270 0.0003 0.1143
C57_6 C 0.88923(16) 0.01535(15) 0.08373(15)
C60_6 C 0.86077(16) 0.08373(15) 0.23465(15)
H37_6 H 0.8999 0.0052 0.0846
H40_6 H 0.8501 0.0846 0.2448
C62_6 C 0.88865(17) 0.02810(16) 0.06723(17)
C65_6 C 0.86135(17) 0.06723(17) 0.22190(16)
H42_6 H 0.8992 0.0272 0.0570
H45_6 H 0.8508 0.0570 0.2228
C67_6 C 0.87326(15) 0.04220(15) 0.06496(16)
C70_6 C 0.87674(15) 0.06496(16) 0.20780(15)
H47_6 H 0.8729 0.0510 0.0531
H50_6 H 0.8771 0.0531 0.1990
C72_6 C 0.85801(13) 0.04374(12) 0.08005(13)
C75_6 C 0.89199(13) 0.08005(13) 0.20626(12)
C77_6 C 0.85960(12) 0.03082(11) 0.09704(12)
C80_6 C 0.89040(12) 0.09704(12) 0.21918(11)
H52_6 H 0.8495 0.0319 0.1077
H55_6 H 0.9005 0.1077 0.2181
C82_6 C 0.84145(12) 0.05959(11) 0.07875(12)
C85_6 C 0.90855(12) 0.07875(12) 0.19041(11)
C87_6 C 0.82471(12) 0.08455(12) 0.06163(11)
C90_6 C 0.92529(12) 0.06163(11) 0.16545(12)
C92_6 C 0.81435(12) 0.07615(12) 0.09330(12)
C95_6 C 0.93565(12) 0.09330(12) 0.17385(12)
C97_6 C 0.77549(14) 0.08809(15) 0.14406(14)
C100_6 C 0.97451(14) 0.14406(14) 0.16191(15)
H57_6 H 0.7663 0.0907 0.1553
H60_6 H 0.9837 0.1553 0.1593
C102_6 C 0.78890(15) 0.07164(15) 0.14574(15)
C105_6 C 0.96110(15) 0.14574(15) 0.17836(15)
H62_6 H 0.7892 0.0633 0.1579
H65_6 H 0.9608 0.1579 0.1867
C107_6 C 0.80202(14) 0.06749(13) 0.12904(14)
C110_6 C 0.94798(14) 0.12904(14) 0.18251(13)
H67_6 H 0.8115 0.0562 0.1297
H70_6 H 0.9385 0.1297 0.1938
C112_6 C 0.80119(12) 0.07949(12) 0.11196(13)
C115_6 C 0.94881(12) 0.11196(13) 0.17051(12)
C117_6 C 0.78735(11) 0.09679(12) 0.11174(11)
C120_6 C 0.96265(11) 0.11174(11) 0.15321(12)
H72_6 H 0.7873 0.1058 0.1000
H75_6 H 0.9627 0.1000 0.1442
C153_6 C 0.74851(14) 0.1282(2) 0.17456(19)
C154_6 C 0.74851(14) 0.1218(2) 0.07544(19)
Co1_8 Co 0.871072(19) 0.121072(19) 1.0000
N1_6 N 0.85606(10) 0.13708(10) 0.97680(9)
S1_6 S 0.83020(5) 0.16216(5) 0.95302(5)
C1_6 C 0.84544(12) 0.14741(13) 0.96619(12)
Co4_4 Co 0.7500 0.128928(19) 0.871072(19)
Co6_8 Co 1.0000 0.128928(19) 0.878928(19)
Co10_6 Co 0.8750 0.00144(2) 0.8750
N14_5 N 0.72680(9) 0.14394(10) 0.88708(10)
N15_5 N 0.77320(9) 0.11292(10) 0.85606(10)
N19_6 N 0.87671(10) 0.00058(9) 0.84293(12)
N20_6 N 0.87329(10) 0.00058(9) 0.90707(12)
N22_6 N 0.86565(9) 0.09101(10) 0.98474(10)
N23_6 N 0.98474(10) 0.15899(10) 0.88435(9)
N26_5 N 0.76526(10) 0.15899(10) 0.86565(9)
N27_3 N 0.73474(10) 0.13435(9) 0.84101(10)
N29_5 N 0.76656(10) 0.12501(10) 0.90072(11)
N30_6 N 0.90072(11) 0.12499(10) 0.98344(10)
N34_5 N 0.73344(10) 0.09928(11) 0.87499(10)
N36_6 N 0.81152(10) 0.07947(10) 0.90473(10)
N37_6 N 0.90473(10) 0.17053(10) 0.93848(10)
N41_6 N 0.82081(10) 0.08997(10) 0.93852(9)
N42_6 N 0.93852(9) 0.16003(10) 0.92919(10)
N46_6 N 0.83776(10) 0.06119(9) 0.92314(10)
N47_6 N 0.92314(10) 0.18881(9) 0.91224(10)
N51_6 N 0.85074(10) 0.02453(10) 0.87248(10)
N52_6 N 0.87248(10) 0.22547(10) 0.89926(10)
N56_6 N 0.89926(10) 0.02453(10) 0.87752(10)
S6_5 S 0.70302(5) 0.16980(5) 0.91216(5)
S7_5 S 0.79698(5) 0.08784(5) 0.83020(5)
C30_5 C 0.71619(12) 0.15456(12) 0.89741(13)
C31_5 C 0.78381(12) 0.10259(13) 0.84544(12)
C33_6 C 0.85166(11) 0.09018(12) 0.96902(12)
C34_6 C 0.96902(12) 0.15982(12) 0.89834(11)
H18_6 H 0.8435 0.1021 0.9663
H19_6 H 0.9663 0.1479 0.9065
C38_6 C 0.84874(11) 0.07314(12) 0.95698(12)
C39_6 C 0.95698(12) 0.17686(12) 0.90126(11)
C43_6 C 0.85983(15) 0.05482(16) 0.96112(14)
C44_6 C 0.96112(14) 0.19518(16) 0.89017(15)
H23_6 H 0.8581 0.0427 0.9529
H24_6 H 0.9529 0.2073 0.8919
C48_6 C 0.87323(16) 0.05540(17) 0.97757(15)
C49_6 C 0.97757(15) 0.19460(17) 0.87677(16)
H28_6 H 0.8807 0.0433 0.9813
H29_6 H 0.9813 0.2067 0.8693
C53_6 C 0.87596(14) 0.07314(16) 0.98863(15)
C54_6 C 0.98863(15) 0.17686(16) 0.87404(14)
H33_6 H 0.8857 0.0730 0.9997
H34_6 H 0.9997 0.1770 0.8643
C58_6 C 0.76535(15) 0.13923(16) 0.91627(15)
C59_6 C 0.91627(15) 0.11077(16) 0.98465(15)
H38_6 H 0.7552 0.1499 0.9154
H39_6 H 0.9154 0.1001 0.9948
C63_6 C 0.77810(16) 0.13865(17) 0.93277(17)
C64_6 C 0.93277(17) 0.11135(17) 0.97190(16)
H43_6 H 0.7772 0.1492 0.9430
H44_6 H 0.9430 0.1008 0.9728
C68_6 C 0.79220(15) 0.12326(15) 0.93504(16)
C69_6 C 0.93504(16) 0.12674(15) 0.95780(15)
H48_6 H 0.8010 0.1229 0.9469
H49_6 H 0.9469 0.1271 0.9490
C73_6 C 0.79374(12) 0.10801(13) 0.91995(13)
C74_6 C 0.91995(13) 0.14199(13) 0.95626(12)
C78_6 C 0.78082(11) 0.10960(12) 0.90296(12)
C79_6 C 0.90296(12) 0.14040(12) 0.96918(11)
H53_6 H 0.7819 0.0995 0.8923
H54_6 H 0.8923 0.1505 0.9681
C83_6 C 0.80959(11) 0.09145(12) 0.92125(12)
C84_6 C 0.92125(12) 0.15855(12) 0.94041(11)
C88_6 C 0.83455(12) 0.07471(12) 0.93837(11)
C89_6 C 0.93837(11) 0.17529(12) 0.91545(12)
C93_6 C 0.82615(12) 0.06435(12) 0.90670(12)
C94_6 C 0.90670(12) 0.18565(12) 0.92385(12)
C98_6 C 0.83809(15) 0.02549(14) 0.85594(14)
C99_6 C 0.85594(14) 0.22451(14) 0.91191(15)
H58_6 H 0.8407 0.0163 0.8447
H59_6 H 0.8447 0.2337 0.9093
C103_6 C 0.82164(15) 0.03890(15) 0.85426(15)
C104_6 C 0.85426(15) 0.21110(15) 0.92836(15)
H63_6 H 0.8133 0.0392 0.8421
H64_6 H 0.8421 0.2108 0.9367
C108_6 C 0.81749(13) 0.05202(14) 0.87096(14)
C109_6 C 0.87096(14) 0.19798(14) 0.93251(13)
H68_6 H 0.8062 0.0615 0.8703
H69_6 H 0.8703 0.1885 0.9438
C113_6 C 0.82949(12) 0.05119(12) 0.88804(13)
C114_6 C 0.88804(13) 0.19881(12) 0.92051(12)
C118_6 C 0.84679(12) 0.03735(11) 0.88826(11)
C119_6 C 0.88826(11) 0.21265(11) 0.90321(12)
H73_6 H 0.8558 0.0373 0.9000
H74_6 H 0.9000 0.2127 0.8942
Co3_9 Co 0.878928(19) 1.0000 0.128928(19)
Co8_8 Co 1.0000 0.871072(19) 0.121072(19)
Co16_4 Co 0.8750 0.8750 0.24856(2)
N12_6 N 0.89394(10) 0.97680(9) 0.11292(10)
N25_6 N 0.88435(9) 0.98474(10) 0.15899(10)
N32_6 N 0.98344(10) 0.90072(11) 0.12499(10)
N33_6 N 0.84928(11) 0.98344(10) 0.12501(10)
N39_6 N 0.93848(10) 0.90473(10) 0.17053(10)
N44_6 N 0.92919(10) 0.93852(9) 0.16003(10)
N49_6 N 0.91224(10) 0.92314(10) 0.18881(9)
N54_6 N 0.89926(10) 0.87248(10) 0.22547(10)
S4_6 S 0.91980(5) 0.95302(5) 0.08784(5)
C28_6 C 0.90456(12) 0.96619(12) 0.10259(13)
C36_6 C 0.89834(11) 0.96902(12) 0.15982(12)
H21_6 H 0.9065 0.9663 0.1479
C41_6 C 0.90126(11) 0.95698(12) 0.17686(12)
C46_6 C 0.89017(15) 0.96112(14) 0.19518(16)
H26_6 H 0.8919 0.9529 0.2073
C51_6 C 0.87677(16) 0.97757(15) 0.19460(17)
H31_6 H 0.8693 0.9813 0.2067
C56_6 C 0.87404(14) 0.98863(15) 0.17686(16)
H36_6 H 0.8643 0.9997 0.1770
C61_6 C 0.98465(15) 0.91627(15) 0.11077(16)
H41_6 H 0.9948 0.9154 0.1001
C66_6 C 0.97190(16) 0.93277(17) 0.11135(17)
H46_6 H 0.9728 0.9430 0.1008
C71_6 C 0.95780(15) 0.93504(16) 0.12674(15)
H51_6 H 0.9490 0.9469 0.1271
C76_6 C 0.95626(12) 0.91995(13) 0.14199(13)
C81_6 C 0.96918(11) 0.90296(12) 0.14040(12)
H56_6 H 0.9681 0.8923 0.1505
C86_6 C 0.94041(11) 0.92125(12) 0.15855(12)
C91_6 C 0.91545(12) 0.93837(11) 0.17529(12)
C96_6 C 0.92385(12) 0.90670(12) 0.18565(12)
C101_6 C 0.91191(15) 0.85594(14) 0.22451(14)
H61_6 H 0.9093 0.8447 0.2337
C106_6 C 0.92836(15) 0.85426(15) 0.21110(15)
H66_6 H 0.9367 0.8421 0.2108
C111_6 C 0.93251(13) 0.87096(14) 0.19798(14)
H71_6 H 0.9438 0.8703 0.1885
C116_6 C 0.92051(12) 0.88804(13) 0.19881(12)
C121_6 C 0.90321(12) 0.88826(11) 0.21265(11)
H76_6 H 0.8942 0.9000 0.2127
N64_6 N 0.90085(10) 0.97928(10) 0.87516(10)
N65_6 N 0.84915(10) 0.97928(10) 0.87484(10)
S11_6 S 0.88144(15) 0.99559(7) 0.80061(7)
S12_6 S 0.86856(15) 0.99559(7) 0.94939(7)
C155_6 C 0.8782(2) 0.99851(14) 0.82544(19)
C156_6 C 0.8718(2) 0.99851(14) 0.92456(19)
Co7_7 Co 0.378928(19) 0.128928(19) 0.0000
Co1_9 Co 0.371072(19) 0.128928(19) 0.7500
Co2_6 Co 0.3750 0.00144(2) 0.8750
N1_7 N 0.38708(10) 0.14394(10) 0.72680(9)
N2_7 N 0.34293(12) 0.00058(9) 0.87671(10)
N3_6 N 0.48474(10) 0.09101(10) 0.86565(9)
N4_7 N 0.40072(11) 0.12501(10) 0.76656(10)
N5_7 N 0.40473(10) 0.07947(10) 0.81152(10)
N6_7 N 0.43852(9) 0.08997(10) 0.82081(10)
N7_7 N 0.42314(10) 0.06119(9) 0.83776(10)
N8_7 N 0.37248(10) 0.02453(10) 0.85074(10)
S1_7 S 0.41216(5) 0.16980(5) 0.70302(5)
C1_7 C 0.39741(13) 0.15456(12) 0.71619(12)
C2_7 C 0.46902(12) 0.09018(12) 0.85166(11)
H1_7 H 0.4663 0.1021 0.8435
C3_7 C 0.45698(12) 0.07314(12) 0.84874(11)
C4_7 C 0.46112(14) 0.05482(16) 0.85983(15)
H2_7 H 0.4529 0.0427 0.8581
C5_7 C 0.47757(15) 0.05540(17) 0.87323(16)
H3_7 H 0.4813 0.0433 0.8807
C6_7 C 0.48863(15) 0.07314(16) 0.87596(14)
H4_7 H 0.4997 0.0730 0.8857
C7_7 C 0.41627(15) 0.13923(16) 0.76535(15)
H5_7 H 0.4154 0.1499 0.7552
C8_7 C 0.43277(17) 0.13865(17) 0.77810(16)
H6_7 H 0.4430 0.1492 0.7772
C9_7 C 0.43504(16) 0.12326(15) 0.79220(15)
H7_7 H 0.4469 0.1229 0.8010
C10_7 C 0.41995(13) 0.10801(13) 0.79374(12)
C11_7 C 0.40296(12) 0.10960(12) 0.78082(11)
H8_7 H 0.3923 0.0995 0.7819
C12_7 C 0.42125(12) 0.09145(12) 0.80959(11)
C13_7 C 0.43837(11) 0.07471(12) 0.83455(12)
C14_7 C 0.40670(12) 0.06435(12) 0.82615(12)
C15_7 C 0.35594(14) 0.02549(14) 0.83809(15)
H9_7 H 0.3447 0.0163 0.8407
C16_7 C 0.35426(15) 0.03890(15) 0.82164(15)
H10_7 H 0.3421 0.0392 0.8133
C17_7 C 0.37096(14) 0.05202(14) 0.81749(13)
H11_7 H 0.3703 0.0615 0.8062
C18_7 C 0.38804(13) 0.05119(12) 0.82949(12)
C19_7 C 0.38826(11) 0.03735(11) 0.84679(12)
H12_7 H 0.4000 0.0373 0.8558
Co3_10 Co 0.2500 0.121072(19) 0.878928(19)
Co4_5 Co 0.378928(19) 0.2500 0.621072(19)
Co5_6 Co 0.5000 0.121072(19) 0.871072(19)
Co6_9 Co 0.378928(19) 0.0000 0.628928(19)
Co7_8 Co 0.378928(19) 0.128928(19) 1.0000
Co8_9 Co 0.121072(19) 0.0000 0.871072(19)
Co9_7 Co 0.3750 0.24856(2) 0.8750
Co10_7 Co 0.25144(2) 0.1250 0.6250
Co13_5 Co 0.49856(2) 0.1250 0.6250
N11_7 N 0.35606(10) 0.11292(10) 0.77320(9)
N12_7 N 0.22680(9) 0.10606(10) 0.86292(10)
N13_7 N 0.27320(9) 0.13708(10) 0.89394(10)
N14_6 N 0.39394(10) 0.27320(9) 0.63708(10)
N15_6 N 0.36292(10) 0.22680(9) 0.60606(10)
N16_7 N 0.40707(12) 0.00058(9) 0.87329(10)
N17_7 N 0.37671(10) 0.24942(9) 0.90707(12)
N18_7 N 0.37329(10) 0.24942(9) 0.84293(12)
N19_7 N 0.25058(9) 0.12329(10) 0.59293(12)
N20_7 N 0.25058(9) 0.12671(10) 0.65707(12)
N21_7 N 0.36565(9) 0.15899(10) 0.76526(10)
N22_7 N 0.34101(10) 0.13435(9) 0.73474(10)
N23_7 N 0.40899(10) 0.01526(10) 0.63435(9)
N24_7 N 0.26526(10) 0.09101(10) 0.88435(9)
N25_7 N 0.23474(10) 0.11565(9) 0.90899(10)
N26_6 N 0.40899(10) 0.23474(10) 0.61565(9)
N27_4 N 0.38435(9) 0.26526(10) 0.59101(10)
N28_7 N 0.26656(10) 0.12499(10) 0.84928(11)
N29_6 N 0.37501(10) 0.23344(10) 0.65072(11)
N30_7 N 0.37499(10) 0.09928(11) 0.73344(10)
N31_7 N 0.34928(11) 0.12501(10) 0.98344(10)
N32_7 N 0.15072(11) 0.01656(10) 0.87499(10)
N33_7 N 0.23344(10) 0.15072(11) 0.87501(10)
N34_6 N 0.34928(11) 0.26656(10) 0.62499(10)
N35_7 N 0.31152(10) 0.17053(10) 0.84527(10)
N36_7 N 0.32947(10) 0.18848(10) 0.65473(10)
N37_7 N 0.42053(10) 0.09527(10) 0.68848(10)
N38_7 N 0.34527(10) 0.07947(10) 0.93848(10)
N39_7 N 0.15473(10) 0.06152(10) 0.92053(10)
N40_7 N 0.32081(10) 0.16003(10) 0.81148(9)
N41_7 N 0.33997(10) 0.17919(10) 0.68852(9)
N42_7 N 0.41003(10) 0.06148(9) 0.67919(10)
N43_7 N 0.31148(9) 0.08997(10) 0.92919(10)
N44_7 N 0.18852(9) 0.07081(10) 0.91003(10)
N45_7 N 0.33776(10) 0.18881(9) 0.82686(10)
N46_7 N 0.31119(9) 0.16224(10) 0.67314(10)
N47_7 N 0.43881(9) 0.07686(10) 0.66224(10)
N48_7 N 0.32686(10) 0.06119(9) 0.91224(10)
N49_7 N 0.17314(10) 0.08776(10) 0.93881(9)
N50_7 N 0.35074(10) 0.22547(10) 0.87752(10)
N51_7 N 0.27453(10) 0.14926(10) 0.62248(10)
N52_7 N 0.47547(10) 0.12752(10) 0.64926(10)
N53_7 N 0.37752(10) 0.02453(10) 0.89926(10)
N54_7 N 0.12248(10) 0.10074(10) 0.97547(10)
N55_7 N 0.39926(10) 0.22547(10) 0.87248(10)
N56_7 N 0.27453(10) 0.10074(10) 0.62752(10)
N62_7 N 0.40085(10) 0.27072(10) 0.87484(10)
N63_7 N 0.34915(10) 0.27072(10) 0.87516(10)
N64_7 N 0.22928(10) 0.09915(10) 0.62516(10)
N65_7 N 0.22928(10) 0.15085(10) 0.62484(10)
S3_7 S 0.33020(5) 0.08784(5) 0.79698(5)
S4_7 S 0.20302(5) 0.08020(5) 0.83784(5)
S5_7 S 0.29698(5) 0.16216(5) 0.91980(5)
S6_6 S 0.41980(5) 0.29698(5) 0.66216(5)
S7_6 S 0.33784(5) 0.20302(5) 0.58020(5)
S9_7 S 0.38144(15) 0.25441(7) 0.94939(7)
S10_7 S 0.36856(15) 0.25441(7) 0.80061(7)
S11_7 S 0.24559(7) 0.11856(15) 0.55061(7)
S12_7 S 0.24559(7) 0.13144(15) 0.69939(7)
C27_7 C 0.34544(12) 0.10259(13) 0.78381(12)
C28_7 C 0.21619(12) 0.09544(12) 0.85259(13)
C29_7 C 0.28381(12) 0.14741(13) 0.90456(12)
C30_6 C 0.40456(12) 0.28381(12) 0.64741(13)
C31_6 C 0.35259(13) 0.21619(12) 0.59544(12)
C32_7 C 0.35166(11) 0.15982(12) 0.78098(12)
C33_7 C 0.34018(12) 0.14834(11) 0.71902(12)
C34_7 C 0.40982(12) 0.03098(12) 0.64834(11)
C35_7 C 0.28098(12) 0.09018(12) 0.89834(11)
C36_7 C 0.21902(12) 0.10166(11) 0.90982(12)
H17_7 H 0.3435 0.1479 0.7837
H18_7 H 0.3521 0.1565 0.7163
H19_7 H 0.3979 0.0337 0.6565
H20_7 H 0.2837 0.1021 0.9065
H21_7 H 0.2163 0.0935 0.8979
C37_7 C 0.34874(11) 0.17686(12) 0.79302(12)
C38_7 C 0.32314(12) 0.15126(11) 0.70698(12)
C39_7 C 0.42686(12) 0.04302(12) 0.65126(11)
C40_7 C 0.29302(12) 0.07314(12) 0.90126(11)
C41_7 C 0.20698(12) 0.09874(11) 0.92686(12)
C42_7 C 0.35983(15) 0.19518(16) 0.78888(14)
C43_7 C 0.30482(16) 0.14017(15) 0.71112(14)
C44_7 C 0.44518(16) 0.03888(14) 0.64017(15)
C45_7 C 0.28888(14) 0.05482(16) 0.89017(15)
C46_7 C 0.21112(14) 0.10983(15) 0.94518(16)
H22_7 H 0.3581 0.2073 0.7971
H23_7 H 0.2927 0.1419 0.7029
H24_7 H 0.4573 0.0471 0.6419
H25_7 H 0.2971 0.0427 0.8919
H26_7 H 0.2029 0.1081 0.9573
C47_7 C 0.37323(16) 0.19460(17) 0.77243(15)
C48_7 C 0.30540(17) 0.12677(16) 0.72757(15)
C49_7 C 0.44460(17) 0.02243(15) 0.62677(16)
C50_7 C 0.27243(15) 0.05540(17) 0.87677(16)
C51_7 C 0.22757(15) 0.12323(16) 0.94460(17)
H27_7 H 0.3807 0.2067 0.7687
H28_7 H 0.2933 0.1193 0.7313
H29_7 H 0.4567 0.0187 0.6193
H30_7 H 0.2687 0.0433 0.8693
H31_7 H 0.2313 0.1307 0.9567
C52_7 C 0.37596(14) 0.17686(16) 0.76137(15)
C53_7 C 0.32314(16) 0.12404(14) 0.73863(15)
C54_7 C 0.42686(16) 0.01137(15) 0.62404(14)
C55_7 C 0.26137(15) 0.07314(16) 0.87404(14)
C56_7 C 0.23863(15) 0.12596(14) 0.92686(16)
H32_7 H 0.3857 0.1770 0.7503
H33_7 H 0.3230 0.1143 0.7497
H34_7 H 0.4270 0.0003 0.6143
H35_7 H 0.2503 0.0730 0.8643
H36_7 H 0.2497 0.1357 0.9270
C57_7 C 0.26535(15) 0.11077(16) 0.83373(15)
C58_7 C 0.38923(16) 0.23465(15) 0.66627(15)
C59_7 C 0.36077(16) 0.08373(15) 0.73465(15)
C60_7 C 0.33373(15) 0.13923(16) 0.98465(15)
C61_7 C 0.16627(15) 0.01535(15) 0.86077(16)
H37_7 H 0.2552 0.1001 0.8346
H38_7 H 0.3999 0.2448 0.6654
H39_7 H 0.3501 0.0846 0.7448
H40_7 H 0.3346 0.1499 0.9948
H41_7 H 0.1654 0.0052 0.8501
C62_7 C 0.27810(16) 0.11135(17) 0.81723(17)
C63_7 C 0.38865(17) 0.22190(16) 0.68277(17)
C64_7 C 0.36135(17) 0.06723(17) 0.72190(16)
C65_7 C 0.31723(17) 0.13865(17) 0.97190(16)
C66_7 C 0.18277(17) 0.02810(16) 0.86135(17)
H42_7 H 0.2772 0.1008 0.8070
H43_7 H 0.3992 0.2228 0.6930
H44_7 H 0.3508 0.0570 0.7228
H45_7 H 0.3070 0.1492 0.9728
H46_7 H 0.1930 0.0272 0.8508
C67_7 C 0.29220(15) 0.12674(15) 0.81496(16)
C68_7 C 0.37326(15) 0.20780(15) 0.68504(16)
C69_7 C 0.37674(15) 0.06496(16) 0.70780(15)
C70_7 C 0.31496(16) 0.12326(15) 0.95780(15)
C71_7 C 0.18504(16) 0.04220(15) 0.87674(15)
H47_7 H 0.3010 0.1271 0.8031
H48_7 H 0.3729 0.1990 0.6969
H49_7 H 0.3771 0.0531 0.6990
H50_7 H 0.3031 0.1229 0.9490
H51_7 H 0.1969 0.0510 0.8771
C72_7 C 0.29374(12) 0.14199(13) 0.83005(13)
C73_7 C 0.35801(13) 0.20626(12) 0.66995(13)
C74_7 C 0.39199(13) 0.08005(13) 0.70626(12)
C75_7 C 0.33005(13) 0.10801(13) 0.95626(12)
C76_7 C 0.16995(13) 0.04374(12) 0.89199(13)
C77_7 C 0.28082(11) 0.14040(12) 0.84704(12)
C78_7 C 0.35960(12) 0.21918(11) 0.65296(12)
C79_7 C 0.39040(12) 0.09704(12) 0.71918(11)
C80_7 C 0.34704(12) 0.10960(12) 0.96918(11)
C81_7 C 0.15296(12) 0.03082(11) 0.89040(12)
H52_7 H 0.2819 0.1505 0.8577
H53_7 H 0.3495 0.2181 0.6423
H54_7 H 0.4005 0.1077 0.7181
H55_7 H 0.3577 0.0995 0.9681
H56_7 H 0.1423 0.0319 0.9005
C82_7 C 0.30959(11) 0.15855(12) 0.82875(12)
C83_7 C 0.34145(12) 0.19041(11) 0.67125(12)
C84_7 C 0.40855(12) 0.07875(12) 0.69041(11)
C85_7 C 0.32875(12) 0.09145(12) 0.94041(11)
C86_7 C 0.17125(12) 0.05959(11) 0.90855(12)
C87_7 C 0.33455(12) 0.17529(12) 0.81163(11)
C88_7 C 0.32471(12) 0.16545(12) 0.68837(11)
C89_7 C 0.42529(12) 0.06163(11) 0.66545(12)
C90_7 C 0.31163(11) 0.07471(12) 0.91545(12)
C91_7 C 0.18837(11) 0.08455(12) 0.92529(12)
C92_7 C 0.32615(12) 0.18565(12) 0.84330(12)
C93_7 C 0.31435(12) 0.17385(12) 0.65670(12)
C94_7 C 0.43565(12) 0.09330(12) 0.67385(12)
C95_7 C 0.34330(12) 0.06435(12) 0.92385(12)
C96_7 C 0.15670(12) 0.07615(12) 0.93565(12)
C97_7 C 0.33809(15) 0.22451(14) 0.89406(14)
C98_7 C 0.27549(14) 0.16191(15) 0.60594(14)
C99_7 C 0.47451(14) 0.14406(14) 0.66191(15)
C100_7 C 0.39406(14) 0.02549(14) 0.91191(15)
C101_7 C 0.10594(14) 0.08809(15) 0.97451(14)
H57_7 H 0.3407 0.2337 0.9053
H58_7 H 0.2663 0.1593 0.5947
H59_7 H 0.4837 0.1553 0.6593
H60_7 H 0.4053 0.0163 0.9093
H61_7 H 0.0947 0.0907 0.9837
C102_7 C 0.32164(15) 0.21110(15) 0.89574(15)
C103_7 C 0.28890(15) 0.17836(15) 0.60426(15)
C104_7 C 0.46110(15) 0.14574(15) 0.67836(15)
C105_7 C 0.39574(15) 0.03890(15) 0.92836(15)
C106_7 C 0.10426(15) 0.07164(15) 0.96110(15)
H62_7 H 0.3133 0.2108 0.9079
H63_7 H 0.2892 0.1867 0.5921
H64_7 H 0.4608 0.1579 0.6867
H65_7 H 0.4079 0.0392 0.9367
H66_7 H 0.0921 0.0633 0.9608
C107_7 C 0.31749(13) 0.19798(14) 0.87904(14)
C108_7 C 0.30202(14) 0.18251(13) 0.62096(14)
C109_7 C 0.44798(14) 0.12904(14) 0.68251(13)
C110_7 C 0.37904(14) 0.05202(14) 0.93251(13)
C111_7 C 0.12096(14) 0.06749(13) 0.94798(14)
H67_7 H 0.3062 0.1885 0.8797
H68_7 H 0.3115 0.1938 0.6203
H69_7 H 0.4385 0.1297 0.6938
H70_7 H 0.3797 0.0615 0.9438
H71_7 H 0.1203 0.0562 0.9385
C112_7 C 0.32949(12) 0.19881(12) 0.86196(13)
C113_7 C 0.30119(12) 0.17051(12) 0.63804(13)
C114_7 C 0.44881(12) 0.11196(13) 0.67051(12)
C115_7 C 0.36196(13) 0.05119(12) 0.92051(12)
C116_7 C 0.13804(13) 0.07949(12) 0.94881(12)
C117_7 C 0.34679(12) 0.21265(11) 0.86174(11)
C118_7 C 0.28735(11) 0.15321(12) 0.63826(11)
C119_7 C 0.46265(11) 0.11174(11) 0.65321(12)
C120_7 C 0.36174(11) 0.03735(11) 0.90321(12)
C121_7 C 0.13826(11) 0.09679(12) 0.96265(11)
H72_7 H 0.3558 0.2127 0.8500
H73_7 H 0.2873 0.1442 0.6500
H74_7 H 0.4627 0.1000 0.6442
H75_7 H 0.3500 0.0373 0.8942
H76_7 H 0.1500 0.1058 0.9627
C153_7 C 0.3782(2) 0.25149(14) 0.92456(19)
C154_7 C 0.3718(2) 0.25149(14) 0.82544(19)
C155_7 C 0.24851(14) 0.1218(2) 0.57544(19)
C156_7 C 0.24851(14) 0.1282(2) 0.67456(19)
N9_6 N 0.37516(10) 0.97928(10) 0.90085(10)
N10_6 N 0.42186(11) 0.93610(11) 0.90591(12)
S2_7 S 0.30061(7) 0.99559(7) 0.88144(15)
C20_6 C 0.36165(16) 0.98166(14) 0.91623(15)
H13_6 H 0.3508 0.9916 0.9146
C21_6 C 0.3626(2) 0.97020(17) 0.93469(17)
H14_6 H 0.3533 0.9729 0.9458
C22_6 C 0.37750(16) 0.95485(16) 0.93620(15)
H15_6 H 0.3782 0.9464 0.9482
C23_6 C 0.39131(14) 0.95191(13) 0.92016(14)
C24_6 C 0.38931(13) 0.96472(12) 0.90262(12)
H16_6 H 0.3987 0.9627 0.8914
C25_6 C 0.40725(14) 0.93569(13) 0.92079(13)
C26_7 C 0.32544(19) 0.99851(14) 0.8782(2)
Co6_10 Co 0.378928(19) 1.0000 0.628928(19)
Co8_10 Co 0.121072(19) 1.0000 0.871072(19)
N57_6 N 0.40085(10) 0.87516(10) 0.97928(10)
N58_6 N 0.47928(10) 0.90085(10) 0.87516(10)
N59_7 N 0.37484(10) 0.97928(10) 0.84915(10)
N60_7 N 0.34915(10) 0.87516(10) 0.77072(10)
N61_7 N 0.27072(10) 0.90085(10) 0.87484(10)
N66_6 N 0.43610(11) 0.90591(12) 0.92186(11)
N67_6 N 0.40591(12) 0.92186(11) 0.93610(11)
N68_7 N 0.32814(11) 0.93610(11) 0.84409(12)
N69_7 N 0.31390(11) 0.90591(12) 0.82814(11)
N70_7 N 0.34409(12) 0.92186(11) 0.81390(11)
S8_7 S 0.44939(7) 0.99559(7) 0.86856(15)
C122_6 C 0.41623(15) 0.86165(16) 0.98166(14)
C123_6 C 0.48166(14) 0.91623(15) 0.86165(16)
C124_7 C 0.38835(16) 0.98166(14) 0.83377(15)
C125_7 C 0.33377(15) 0.86165(16) 0.76834(14)
C126_7 C 0.26834(14) 0.91623(15) 0.88835(16)
H77_6 H 0.4146 0.8508 0.9916
H78_6 H 0.4916 0.9146 0.8508
H79_7 H 0.3992 0.9916 0.8354
H80_7 H 0.3354 0.8508 0.7584
H81_7 H 0.2584 0.9146 0.8992
C127_6 C 0.43469(17) 0.8626(2) 0.97020(17)
C128_6 C 0.47020(17) 0.93469(17) 0.8626(2)
C129_7 C 0.3874(2) 0.97020(17) 0.81531(17)
C130_7 C 0.31531(17) 0.8626(2) 0.77980(17)
C131_7 C 0.27980(17) 0.93469(17) 0.8874(2)
H82_6 H 0.4458 0.8533 0.9729
H83_6 H 0.4729 0.9458 0.8533
H84_7 H 0.3967 0.9729 0.8042
H85_7 H 0.3042 0.8533 0.7771
H86_7 H 0.2771 0.9458 0.8967
C132_6 C 0.43620(15) 0.87750(16) 0.95485(16)
C133_6 C 0.45485(16) 0.93620(15) 0.87750(16)
C134_7 C 0.37250(16) 0.95485(16) 0.81380(15)
C135_7 C 0.31380(15) 0.87750(16) 0.79515(16)
C136_7 C 0.29515(16) 0.93620(15) 0.87250(16)
H87_6 H 0.4482 0.8782 0.9464
H88_6 H 0.4464 0.9482 0.8782
H89_7 H 0.3718 0.9464 0.8018
H90_7 H 0.3018 0.8782 0.8036
H91_7 H 0.3036 0.9482 0.8718
C137_6 C 0.42016(14) 0.89131(14) 0.95191(13)
C138_6 C 0.45191(13) 0.92016(14) 0.89131(14)
C139_7 C 0.35869(14) 0.95191(13) 0.82984(14)
C140_7 C 0.32984(14) 0.89131(14) 0.79809(13)
C141_7 C 0.29809(13) 0.92016(14) 0.85869(14)
C142_6 C 0.40262(12) 0.88931(13) 0.96472(12)
C143_6 C 0.46472(12) 0.90262(12) 0.88931(13)
C144_7 C 0.36069(13) 0.96472(12) 0.84738(12)
C145_7 C 0.34738(12) 0.88931(13) 0.78528(12)
C146_7 C 0.28528(12) 0.90262(12) 0.86069(13)
H92_6 H 0.3914 0.8987 0.9627
H93_6 H 0.4627 0.8914 0.8987
H94_7 H 0.3513 0.9627 0.8586
H95_7 H 0.3586 0.8987 0.7873
H96_7 H 0.2873 0.8914 0.8513
C147_6 C 0.43569(13) 0.92079(13) 0.90725(14)
C148_6 C 0.42079(13) 0.90725(14) 0.93569(13)
C149_7 C 0.34275(14) 0.93569(13) 0.82921(13)
C150_7 C 0.31431(13) 0.92079(13) 0.84275(14)
C151_7 C 0.32921(13) 0.90725(14) 0.81431(13)
C152_7 C 0.42456(19) 0.99851(14) 0.8718(2)
S2_8 S 0.11856(15) 0.00441(7) 0.19939(7)
C26_8 C 0.1218(2) 0.00149(14) 0.17456(19)
Co6_11 Co 0.371072(19) 0.0000 0.121072(19)
S8_8 S 0.13144(15) 0.00441(7) 0.05061(7)
C152_8 C 0.1282(2) 0.00149(14) 0.07544(19)
Co1_10 Co 0.2500 0.871072(19) 0.128928(19)
N1_8 N 0.27320(9) 0.85606(10) 0.11292(10)
N2_8 N 0.12329(10) 0.99942(9) 0.15707(12)
N3_7 N 0.13435(9) 0.90899(10) 0.01526(10)
N4_8 N 0.23344(10) 0.87499(10) 0.09928(11)
N5_8 N 0.18848(10) 0.92053(10) 0.09527(10)
N6_8 N 0.17919(10) 0.91003(10) 0.06148(9)
N7_8 N 0.16224(10) 0.93881(9) 0.07686(10)
N8_8 N 0.14926(10) 0.97547(10) 0.12752(10)
S1_8 S 0.29698(5) 0.83020(5) 0.08784(5)
C1_8 C 0.28381(12) 0.84544(12) 0.10259(13)
C2_8 C 0.14834(11) 0.90982(12) 0.03098(12)
H1_8 H 0.1565 0.8979 0.0337
C3_8 C 0.15126(11) 0.92686(12) 0.04302(12)
C4_8 C 0.14017(15) 0.94518(16) 0.03888(14)
H2_8 H 0.1419 0.9573 0.0471
C5_8 C 0.12677(16) 0.94460(17) 0.02243(15)
H3_8 H 0.1193 0.9567 0.0187
C6_8 C 0.12404(14) 0.92686(16) 0.01137(15)
H4_8 H 0.1143 0.9270 0.0003
C7_8 C 0.23465(15) 0.86077(16) 0.08373(15)
H5_8 H 0.2448 0.8501 0.0846
C8_8 C 0.22190(16) 0.86135(17) 0.06723(17)
H6_8 H 0.2228 0.8508 0.0570
C9_8 C 0.20780(15) 0.87674(15) 0.06496(16)
H7_8 H 0.1990 0.8771 0.0531
C10_8 C 0.20626(12) 0.89199(13) 0.08005(13)
C11_8 C 0.21918(11) 0.89040(12) 0.09704(12)
H8_8 H 0.2181 0.9005 0.1077
C12_8 C 0.19041(11) 0.90855(12) 0.07875(12)
C13_8 C 0.16545(12) 0.92529(12) 0.06163(11)
C14_8 C 0.17385(12) 0.93565(12) 0.09330(12)
C15_8 C 0.16191(15) 0.97451(14) 0.14406(14)
H9_8 H 0.1593 0.9837 0.1553
C16_8 C 0.17836(15) 0.96110(15) 0.14574(15)
H10_8 H 0.1867 0.9608 0.1579
C17_8 C 0.18251(13) 0.94798(14) 0.12904(14)
H11_8 H 0.1938 0.9385 0.1297
C18_8 C 0.17051(12) 0.94881(12) 0.11196(13)
C19_8 C 0.15321(12) 0.96265(11) 0.11174(11)
H12_8 H 0.1442 0.9627 0.1000
Co3_11 Co 0.121072(19) 0.878928(19) 0.2500
Co5_7 Co 0.128928(19) 0.878928(19) 0.0000
Co6_12 Co 0.371072(19) 1.0000 0.121072(19)
Co9_8 Co 0.1250 0.75144(2) 0.1250
Co10_8 Co 0.3750 0.8750 0.24856(2)
Co16_5 Co 0.00144(2) 0.8750 0.3750
N11_8 N 0.22680(9) 0.88708(10) 0.14394(10)
N12_8 N 0.13708(10) 0.89394(10) 0.27320(9)
N13_8 N 0.10606(10) 0.86292(10) 0.22680(9)
N14_7 N 0.36292(10) 0.72680(9) 0.10606(10)
N15_7 N 0.39394(10) 0.77320(9) 0.13708(10)
N16_8 N 0.12671(10) 0.99942(9) 0.09293(12)
N17_8 N 0.09293(12) 0.75058(9) 0.12329(10)
N18_8 N 0.15707(12) 0.75058(9) 0.12671(10)
N19_8 N 0.40707(12) 0.87671(10) 0.24942(9)
N20_8 N 0.34293(12) 0.87329(10) 0.24942(9)
N21_8 N 0.23474(10) 0.84101(10) 0.13435(9)
N22_8 N 0.26526(10) 0.86565(9) 0.15899(10)
N23_8 N 0.36565(9) 0.98474(10) 0.09101(10)
N24_8 N 0.11565(9) 0.90899(10) 0.23474(10)
N25_8 N 0.09101(10) 0.88435(9) 0.26526(10)
N26_7 N 0.38435(9) 0.76526(10) 0.09101(10)
N28_8 N 0.15072(11) 0.87501(10) 0.23344(10)
N29_7 N 0.34928(11) 0.76656(10) 0.12499(10)
N30_8 N 0.26656(10) 0.90072(11) 0.12501(10)
N31_8 N 0.01656(10) 0.87499(10) 0.15072(11)
N32_8 N 0.12501(10) 0.98344(10) 0.34928(11)
N33_8 N 0.12499(10) 0.84928(11) 0.26656(10)
N34_7 N 0.37501(10) 0.73344(10) 0.15072(11)
N35_8 N 0.15473(10) 0.82947(10) 0.18848(10)
N36_8 N 0.34527(10) 0.81152(10) 0.17053(10)
N37_8 N 0.31152(10) 0.90473(10) 0.07947(10)
N38_8 N 0.06152(10) 0.92053(10) 0.15473(10)
N39_8 N 0.07947(10) 0.93848(10) 0.34527(10)
N40_8 N 0.18852(9) 0.83997(10) 0.17919(10)
N41_8 N 0.31148(9) 0.82081(10) 0.16003(10)
N42_8 N 0.32081(10) 0.93852(9) 0.08997(10)
N43_8 N 0.07081(10) 0.91003(10) 0.18852(9)
N44_8 N 0.08997(10) 0.92919(10) 0.31148(9)
N45_8 N 0.17314(10) 0.81119(9) 0.16224(10)
N46_8 N 0.32686(10) 0.83776(10) 0.18881(9)
N47_8 N 0.33776(10) 0.92314(10) 0.06119(9)
N48_8 N 0.08776(10) 0.93881(9) 0.17314(10)
N49_8 N 0.06119(9) 0.91224(10) 0.32686(10)
N50_8 N 0.12248(10) 0.77453(10) 0.14926(10)
N51_8 N 0.37752(10) 0.85074(10) 0.22547(10)
N52_8 N 0.35074(10) 0.87248(10) 0.02453(10)
N53_8 N 0.10074(10) 0.97547(10) 0.12248(10)
N54_8 N 0.02453(10) 0.89926(10) 0.37752(10)
N55_8 N 0.12752(10) 0.77453(10) 0.10074(10)
N56_8 N 0.37248(10) 0.89926(10) 0.22547(10)
N62_8 N 0.12516(10) 0.72928(10) 0.09915(10)
N63_8 N 0.12484(10) 0.72928(10) 0.15085(10)
N64_8 N 0.37484(10) 0.90085(10) 0.27072(10)
N65_8 N 0.37516(10) 0.84915(10) 0.27072(10)
S3_8 S 0.20302(5) 0.91216(5) 0.16980(5)
S4_8 S 0.16216(5) 0.91980(5) 0.29698(5)
S5_8 S 0.08020(5) 0.83784(5) 0.20302(5)
S6_7 S 0.33784(5) 0.70302(5) 0.08020(5)
S7_7 S 0.41980(5) 0.79698(5) 0.16216(5)
S9_8 S 0.05061(7) 0.74559(7) 0.11856(15)
S10_8 S 0.19939(7) 0.74559(7) 0.13144(15)
S11_8 S 0.44939(7) 0.88144(15) 0.25441(7)
S12_8 S 0.30061(7) 0.86856(15) 0.25441(7)
C27_8 C 0.21619(12) 0.89741(13) 0.15456(12)
C28_8 C 0.14741(13) 0.90456(12) 0.28381(12)
C29_8 C 0.09544(12) 0.85259(13) 0.21619(12)
C30_7 C 0.35259(13) 0.71619(12) 0.09544(12)
C31_7 C 0.40456(12) 0.78381(12) 0.14741(13)
C32_8 C 0.21902(12) 0.84018(12) 0.14834(11)
C33_8 C 0.28098(12) 0.85166(11) 0.15982(12)
C34_8 C 0.35166(11) 0.96902(12) 0.09018(12)
C35_8 C 0.10166(11) 0.90982(12) 0.21902(12)
C36_8 C 0.09018(12) 0.89834(11) 0.28098(12)
H17_8 H 0.2163 0.8521 0.1565
H18_8 H 0.2837 0.8435 0.1479
H19_8 H 0.3435 0.9663 0.1021
H20_8 H 0.0935 0.8979 0.2163
H21_8 H 0.1021 0.9065 0.2837
C37_8 C 0.20698(12) 0.82314(12) 0.15126(11)
C38_8 C 0.29302(12) 0.84874(11) 0.17686(12)
C39_8 C 0.34874(11) 0.95698(12) 0.07314(12)
C40_8 C 0.09874(11) 0.92686(12) 0.20698(12)
C41_8 C 0.07314(12) 0.90126(11) 0.29302(12)
C42_8 C 0.21112(14) 0.80482(16) 0.14017(15)
C43_8 C 0.28888(14) 0.85983(15) 0.19518(16)
C44_8 C 0.35983(15) 0.96112(14) 0.05482(16)
C45_8 C 0.10983(15) 0.94518(16) 0.21112(14)
C46_8 C 0.05482(16) 0.89017(15) 0.28888(14)
H22_8 H 0.2029 0.7927 0.1419
H23_8 H 0.2971 0.8581 0.2073
H24_8 H 0.3581 0.9529 0.0427
H25_8 H 0.1081 0.9573 0.2029
H26_8 H 0.0427 0.8919 0.2971
C47_8 C 0.22757(15) 0.80540(17) 0.12677(16)
C48_8 C 0.27243(15) 0.87323(16) 0.19460(17)
C49_8 C 0.37323(16) 0.97757(15) 0.05540(17)
C50_8 C 0.12323(16) 0.94460(17) 0.22757(15)
C51_8 C 0.05540(17) 0.87677(16) 0.27243(15)
H27_8 H 0.2313 0.7933 0.1193
H28_8 H 0.2687 0.8807 0.2067
H29_8 H 0.3807 0.9813 0.0433
H30_8 H 0.1307 0.9567 0.2313
H31_8 H 0.0433 0.8693 0.2687
C52_8 C 0.23863(15) 0.82314(16) 0.12404(14)
C53_8 C 0.26137(15) 0.87596(14) 0.17686(16)
C54_8 C 0.37596(14) 0.98863(15) 0.07314(16)
C55_8 C 0.12596(14) 0.92686(16) 0.23863(15)
C56_8 C 0.07314(16) 0.87404(14) 0.26137(15)
H32_8 H 0.2497 0.8230 0.1143
H33_8 H 0.2503 0.8857 0.1770
H34_8 H 0.3857 0.9997 0.0730
H35_8 H 0.1357 0.9270 0.2497
H36_8 H 0.0730 0.8643 0.2503
C57_8 C 0.16627(15) 0.88923(16) 0.23465(15)
C58_8 C 0.33373(15) 0.76535(15) 0.11077(16)
C59_8 C 0.26535(15) 0.91627(15) 0.13923(16)
C60_8 C 0.01535(15) 0.86077(16) 0.16627(15)
C61_8 C 0.13923(16) 0.98465(15) 0.33373(15)
H37_8 H 0.1654 0.8999 0.2448
H38_8 H 0.3346 0.7552 0.1001
H39_8 H 0.2552 0.9154 0.1499
H40_8 H 0.0052 0.8501 0.1654
H41_8 H 0.1499 0.9948 0.3346
C62_8 C 0.18277(17) 0.88865(17) 0.22190(16)
C63_8 C 0.31723(17) 0.77810(16) 0.11135(17)
C64_8 C 0.27810(16) 0.93277(17) 0.13865(17)
C65_8 C 0.02810(16) 0.86135(17) 0.18277(17)
C66_8 C 0.13865(17) 0.97190(16) 0.31723(17)
H42_8 H 0.1930 0.8992 0.2228
H43_8 H 0.3070 0.7772 0.1008
H44_8 H 0.2772 0.9430 0.1492
H45_8 H 0.0272 0.8508 0.1930
H46_8 H 0.1492 0.9728 0.3070
C67_8 C 0.18504(16) 0.87326(15) 0.20780(15)
C68_8 C 0.31496(16) 0.79220(15) 0.12674(15)
C69_8 C 0.29220(15) 0.93504(16) 0.12326(15)
C70_8 C 0.04220(15) 0.87674(15) 0.18504(16)
C71_8 C 0.12326(15) 0.95780(15) 0.31496(16)
H47_8 H 0.1969 0.8729 0.1990
H48_8 H 0.3031 0.8010 0.1271
H49_8 H 0.3010 0.9469 0.1229
H50_8 H 0.0510 0.8771 0.1969
H51_8 H 0.1229 0.9490 0.3031
C72_8 C 0.16995(13) 0.85801(13) 0.20626(12)
C73_8 C 0.33005(13) 0.79374(12) 0.14199(13)
C74_8 C 0.29374(12) 0.91995(13) 0.10801(13)
C75_8 C 0.04374(12) 0.89199(13) 0.16995(13)
C76_8 C 0.10801(13) 0.95626(12) 0.33005(13)
C77_8 C 0.15296(12) 0.85960(12) 0.21918(11)
C78_8 C 0.34704(12) 0.78082(11) 0.14040(12)
C79_8 C 0.28082(11) 0.90296(12) 0.10960(12)
C80_8 C 0.03082(11) 0.89040(12) 0.15296(12)
C81_8 C 0.10960(12) 0.96918(11) 0.34704(12)
H52_8 H 0.1423 0.8495 0.2181
H53_8 H 0.3577 0.7819 0.1505
H54_8 H 0.2819 0.8923 0.0995
H55_8 H 0.0319 0.9005 0.1423
H56_8 H 0.0995 0.9681 0.3577
C82_8 C 0.17125(12) 0.84145(12) 0.19041(11)
C83_8 C 0.32875(12) 0.80959(11) 0.15855(12)
C84_8 C 0.30959(11) 0.92125(12) 0.09145(12)
C85_8 C 0.05959(11) 0.90855(12) 0.17125(12)
C86_8 C 0.09145(12) 0.94041(11) 0.32875(12)
C87_8 C 0.18837(11) 0.82471(12) 0.16545(12)
C88_8 C 0.31163(11) 0.83455(12) 0.17529(12)
C89_8 C 0.33455(12) 0.93837(11) 0.07471(12)
C90_8 C 0.08455(12) 0.92529(12) 0.18837(11)
C91_8 C 0.07471(12) 0.91545(12) 0.31163(11)
C92_8 C 0.15670(12) 0.81435(12) 0.17385(12)
C93_8 C 0.34330(12) 0.82615(12) 0.18565(12)
C94_8 C 0.32615(12) 0.90670(12) 0.06435(12)
C95_8 C 0.07615(12) 0.93565(12) 0.15670(12)
C96_8 C 0.06435(12) 0.92385(12) 0.34330(12)
C97_8 C 0.10594(14) 0.77549(14) 0.16191(15)
C98_8 C 0.39406(14) 0.83809(15) 0.22451(14)
C99_8 C 0.33809(15) 0.85594(14) 0.02549(14)
C100_8 C 0.08809(15) 0.97451(14) 0.10594(14)
C101_8 C 0.02549(14) 0.91191(15) 0.39406(14)
H57_8 H 0.0947 0.7663 0.1593
H58_8 H 0.4053 0.8407 0.2337
H59_8 H 0.3407 0.8447 0.0163
H60_8 H 0.0907 0.9837 0.0947
H61_8 H 0.0163 0.9093 0.4053
C102_8 C 0.10426(15) 0.78890(15) 0.17836(15)
C103_8 C 0.39574(15) 0.82164(15) 0.21110(15)
C104_8 C 0.32164(15) 0.85426(15) 0.03890(15)
C105_8 C 0.07164(15) 0.96110(15) 0.10426(15)
C106_8 C 0.03890(15) 0.92836(15) 0.39574(15)
H62_8 H 0.0921 0.7892 0.1867
H63_8 H 0.4079 0.8133 0.2108
H64_8 H 0.3133 0.8421 0.0392
H65_8 H 0.0633 0.9608 0.0921
H66_8 H 0.0392 0.9367 0.4079
C107_8 C 0.12096(14) 0.80202(14) 0.18251(13)
C108_8 C 0.37904(14) 0.81749(13) 0.19798(14)
C109_8 C 0.31749(13) 0.87096(14) 0.05202(14)
C110_8 C 0.06749(13) 0.94798(14) 0.12096(14)
C111_8 C 0.05202(14) 0.93251(13) 0.37904(14)
H67_8 H 0.1203 0.8115 0.1938
H68_8 H 0.3797 0.8062 0.1885
H69_8 H 0.3062 0.8703 0.0615
H70_8 H 0.0562 0.9385 0.1203
H71_8 H 0.0615 0.9438 0.3797
C112_8 C 0.13804(13) 0.80119(12) 0.17051(12)
C113_8 C 0.36196(13) 0.82949(12) 0.19881(12)
C114_8 C 0.32949(12) 0.88804(13) 0.05119(12)
C115_8 C 0.07949(12) 0.94881(12) 0.13804(13)
C116_8 C 0.05119(12) 0.92051(12) 0.36196(13)
C117_8 C 0.13826(11) 0.78735(11) 0.15321(12)
C118_8 C 0.36174(11) 0.84679(12) 0.21265(11)
C119_8 C 0.34679(12) 0.88826(11) 0.03735(11)
C120_8 C 0.09679(12) 0.96265(11) 0.13826(11)
C121_8 C 0.03735(11) 0.90321(12) 0.36174(11)
H72_8 H 0.1500 0.7873 0.1442
H73_8 H 0.3500 0.8558 0.2127
H74_8 H 0.3558 0.9000 0.0373
H75_8 H 0.1058 0.9627 0.1500
H76_8 H 0.0373 0.8942 0.3500
C153_8 C 0.07544(19) 0.74851(14) 0.1218(2)
C154_8 C 0.17456(19) 0.74851(14) 0.1282(2)
C155_8 C 0.42456(19) 0.8782(2) 0.25149(14)
C156_8 C 0.32544(19) 0.8718(2) 0.25149(14)
Co5_8 Co 0.128928(19) 0.878928(19) 1.0000
N12_9 N 0.38708(10) 0.02320(9) 0.10606(10)
N25_9 N 0.34101(10) 0.01526(10) 0.11565(9)
N32_9 N 0.37501(10) 0.09928(11) 0.01656(10)
N33_9 N 0.37499(10) 0.01656(10) 0.15072(11)
N39_9 N 0.32947(10) 0.09527(10) 0.06152(10)
N44_9 N 0.33997(10) 0.06148(9) 0.07081(10)
N49_9 N 0.31119(9) 0.07686(10) 0.08776(10)
N54_9 N 0.27453(10) 0.12752(10) 0.10074(10)
N64_9 N 0.62484(10) 0.02072(10) 0.09915(10)
N65_9 N 0.62516(10) 0.02072(10) 0.15085(10)
S4_9 S 0.41216(5) 0.04698(5) 0.08020(5)
S11_9 S 0.69939(7) 0.00441(7) 0.11856(15)
S12_9 S 0.55061(7) 0.00441(7) 0.13144(15)
C28_9 C 0.39741(13) 0.03381(12) 0.09544(12)
C36_9 C 0.34018(12) 0.03098(12) 0.10166(11)
H21_9 H 0.3521 0.0337 0.0935
C41_9 C 0.32314(12) 0.04302(12) 0.09874(11)
C46_9 C 0.30482(16) 0.03888(14) 0.10983(15)
H26_9 H 0.2927 0.0471 0.1081
C51_9 C 0.30540(17) 0.02243(15) 0.12323(16)
H31_9 H 0.2933 0.0187 0.1307
C56_9 C 0.32314(16) 0.01137(15) 0.12596(14)
H36_9 H 0.3230 0.0003 0.1357
C61_9 C 0.38923(16) 0.08373(15) 0.01535(15)
H41_9 H 0.3999 0.0846 0.0052
C66_9 C 0.38865(17) 0.06723(17) 0.02810(16)
H46_9 H 0.3992 0.0570 0.0272
C71_9 C 0.37326(15) 0.06496(16) 0.04220(15)
H51_9 H 0.3729 0.0531 0.0510
C76_9 C 0.35801(13) 0.08005(13) 0.04374(12)
C81_9 C 0.35960(12) 0.09704(12) 0.03082(11)
H56_9 H 0.3495 0.1077 0.0319
C86_9 C 0.34145(12) 0.07875(12) 0.05959(11)
C91_9 C 0.32471(12) 0.06163(11) 0.08455(12)
C96_9 C 0.31435(12) 0.09330(12) 0.07615(12)
C101_9 C 0.27549(14) 0.14406(14) 0.08809(15)
H61_9 H 0.2663 0.1553 0.0907
C106_9 C 0.28890(15) 0.14574(15) 0.07164(15)
H66_9 H 0.2892 0.1579 0.0633
C111_9 C 0.30202(14) 0.12904(14) 0.06749(13)
H71_9 H 0.3115 0.1297 0.0562
C116_9 C 0.30119(12) 0.11196(13) 0.07949(12)
C121_9 C 0.28735(11) 0.11174(11) 0.09679(12)
H76_9 H 0.2873 0.1000 0.1058
C155_9 C 0.67456(19) 0.00149(14) 0.1218(2)
C156_9 C 0.57544(19) 0.00149(14) 0.1282(2)
Co1_11 Co 0.5000 0.878928(19) 0.128928(19)
N1_9 N 0.52320(9) 0.86292(10) 0.14394(10)
N2_9 N 0.37329(10) 0.90707(12) 0.00058(9)
N4_9 N 0.48344(10) 0.84928(11) 0.12501(10)
N5_9 N 0.43848(10) 0.84527(10) 0.07947(10)
N6_9 N 0.42919(10) 0.81148(9) 0.08997(10)
N7_9 N 0.41224(10) 0.82686(10) 0.06119(9)
N8_9 N 0.39926(10) 0.87752(10) 0.02453(10)
S1_9 S 0.54698(5) 0.83784(5) 0.16980(5)
C1_9 C 0.53381(12) 0.85259(13) 0.15456(12)
C2_9 C 0.39834(11) 0.78098(12) 0.09018(12)
H1_9 H 0.4065 0.7837 0.1021
C3_9 C 0.40126(11) 0.79302(12) 0.07314(12)
C4_9 C 0.39017(15) 0.78888(14) 0.05482(16)
H2_9 H 0.3919 0.7971 0.0427
C5_9 C 0.37677(16) 0.77243(15) 0.05540(17)
H3_9 H 0.3693 0.7687 0.0433
C6_9 C 0.37404(14) 0.76137(15) 0.07314(16)
H4_9 H 0.3643 0.7503 0.0730
C7_9 C 0.48465(15) 0.83373(15) 0.13923(16)
H5_9 H 0.4948 0.8346 0.1499
C8_9 C 0.47190(16) 0.81723(17) 0.13865(17)
H6_9 H 0.4728 0.8070 0.1492
C9_9 C 0.45780(15) 0.81496(16) 0.12326(15)
H7_9 H 0.4490 0.8031 0.1229
C10_9 C 0.45626(12) 0.83005(13) 0.10801(13)
C11_9 C 0.46918(11) 0.84704(12) 0.10960(12)
H8_9 H 0.4681 0.8577 0.0995
C12_9 C 0.44041(11) 0.82875(12) 0.09145(12)
C13_9 C 0.41545(12) 0.81163(11) 0.07471(12)
C14_9 C 0.42385(12) 0.84330(12) 0.06435(12)
C15_9 C 0.41191(15) 0.89406(14) 0.02549(14)
H9_9 H 0.4093 0.9053 0.0163
C16_9 C 0.42836(15) 0.89574(15) 0.03890(15)
H10_9 H 0.4367 0.9079 0.0392
C17_9 C 0.43251(13) 0.87904(14) 0.05202(14)
H11_9 H 0.4438 0.8797 0.0615
C18_9 C 0.42051(12) 0.86196(13) 0.05119(12)
C19_9 C 0.40321(12) 0.86174(11) 0.03735(11)
H12_9 H 0.3942 0.8500 0.0373
Co4_6 Co 0.628928(19) 0.871072(19) 0.2500
Co6_13 Co 0.621072(19) 0.871072(19) 0.0000
Co10_9 Co 0.6250 0.99856(2) 0.1250
Co13_6 Co 0.6250 0.75144(2) 0.1250
N11_9 N 0.47680(9) 0.89394(10) 0.11292(10)
N13_9 N 0.35606(10) 0.97680(9) 0.13708(10)
N14_8 N 0.61292(10) 0.85606(10) 0.27320(9)
N15_8 N 0.64394(10) 0.88708(10) 0.22680(9)
N16_9 N 0.37671(10) 0.84293(12) 0.00058(9)
N19_9 N 0.65707(12) 0.99942(9) 0.12329(10)
N20_9 N 0.59293(12) 0.99942(9) 0.12671(10)
N21_9 N 0.48474(10) 0.88435(9) 0.15899(10)
N22_9 N 0.51526(10) 0.90899(10) 0.13435(9)
N23_9 N 0.61565(9) 0.84101(10) 0.01526(10)
N26_8 N 0.63435(9) 0.84101(10) 0.23474(10)
N27_5 N 0.65899(10) 0.86565(9) 0.26526(10)
N28_9 N 0.40072(11) 0.98344(10) 0.12499(10)
N29_8 N 0.59928(11) 0.87499(10) 0.23344(10)
N30_9 N 0.51656(10) 0.87501(10) 0.09928(11)
N34_8 N 0.62501(10) 0.90072(11) 0.26656(10)
N35_9 N 0.40473(10) 0.93848(10) 0.17053(10)
N36_9 N 0.59527(10) 0.92053(10) 0.18848(10)
N37_9 N 0.56152(10) 0.82947(10) 0.09527(10)
N40_9 N 0.43852(9) 0.92919(10) 0.16003(10)
N41_9 N 0.56148(9) 0.91003(10) 0.17919(10)
N42_9 N 0.57081(10) 0.83997(10) 0.06148(9)
N45_9 N 0.42314(10) 0.91224(10) 0.18881(9)
N46_9 N 0.57686(10) 0.93881(9) 0.16224(10)
N47_9 N 0.58776(10) 0.81119(9) 0.07686(10)
N51_9 N 0.62752(10) 0.97547(10) 0.14926(10)
N52_9 N 0.60074(10) 0.77453(10) 0.12752(10)
N56_9 N 0.62248(10) 0.97547(10) 0.10074(10)
S3_9 S 0.45302(5) 0.91980(5) 0.08784(5)
S5_9 S 0.33020(5) 0.95302(5) 0.16216(5)
S6_8 S 0.58784(5) 0.83020(5) 0.29698(5)
S7_8 S 0.66980(5) 0.91216(5) 0.20302(5)
C27_9 C 0.46619(12) 0.90456(12) 0.10259(13)
C29_9 C 0.34544(12) 0.96619(12) 0.14741(13)
C30_8 C 0.60259(13) 0.84544(12) 0.28381(12)
C31_8 C 0.65456(12) 0.89741(13) 0.21619(12)
C32_9 C 0.46902(12) 0.89834(11) 0.15982(12)
C33_9 C 0.53098(12) 0.90982(12) 0.14834(11)
C34_9 C 0.60166(11) 0.84018(12) 0.03098(12)
H17_9 H 0.4663 0.9065 0.1479
H18_9 H 0.5337 0.8979 0.1565
H19_9 H 0.5935 0.8521 0.0337
C37_9 C 0.45698(12) 0.90126(11) 0.17686(12)
C38_9 C 0.54302(12) 0.92686(12) 0.15126(11)
C39_9 C 0.59874(11) 0.82314(12) 0.04302(12)
C42_9 C 0.46112(14) 0.89017(15) 0.19518(16)
C43_9 C 0.53888(14) 0.94518(16) 0.14017(15)
C44_9 C 0.60983(15) 0.80482(16) 0.03888(14)
H22_9 H 0.4529 0.8919 0.2073
H23_9 H 0.5471 0.9573 0.1419
H24_9 H 0.6081 0.7927 0.0471
C47_9 C 0.47757(15) 0.87677(16) 0.19460(17)
C48_9 C 0.52243(15) 0.94460(17) 0.12677(16)
C49_9 C 0.62323(16) 0.80540(17) 0.02243(15)
H27_9 H 0.4813 0.8693 0.2067
H28_9 H 0.5187 0.9567 0.1193
H29_9 H 0.6307 0.7933 0.0187
C52_9 C 0.48863(15) 0.87404(14) 0.17686(16)
C53_9 C 0.51137(15) 0.92686(16) 0.12404(14)
C54_9 C 0.62596(14) 0.82314(16) 0.01137(15)
H32_9 H 0.4997 0.8643 0.1770
H33_9 H 0.5003 0.9270 0.1143
H34_9 H 0.6357 0.8230 0.0003
C57_9 C 0.41627(15) 0.98465(15) 0.11077(16)
C58_9 C 0.58373(15) 0.86077(16) 0.23465(15)
C59_9 C 0.51535(15) 0.88923(16) 0.08373(15)
H37_9 H 0.4154 0.9948 0.1001
H38_9 H 0.5846 0.8501 0.2448
H39_9 H 0.5052 0.8999 0.0846
C62_9 C 0.43277(17) 0.97190(16) 0.11135(17)
C63_9 C 0.56723(17) 0.86135(17) 0.22190(16)
C64_9 C 0.52810(16) 0.88865(17) 0.06723(17)
H42_9 H 0.4430 0.9728 0.1008
H43_9 H 0.5570 0.8508 0.2228
H44_9 H 0.5272 0.8992 0.0570
C67_9 C 0.43504(16) 0.95780(15) 0.12674(15)
C68_9 C 0.56496(16) 0.87674(15) 0.20780(15)
C69_9 C 0.54220(15) 0.87326(15) 0.06496(16)
H47_9 H 0.4469 0.9490 0.1271
H48_9 H 0.5531 0.8771 0.1990
H49_9 H 0.5510 0.8729 0.0531
C72_9 C 0.41995(13) 0.95626(12) 0.14199(13)
C73_9 C 0.58005(13) 0.89199(13) 0.20626(12)
C74_9 C 0.54374(12) 0.85801(13) 0.08005(13)
C77_9 C 0.40296(12) 0.96918(11) 0.14040(12)
C78_9 C 0.59704(12) 0.89040(12) 0.21918(11)
C79_9 C 0.53082(11) 0.85960(12) 0.09704(12)
H52_9 H 0.3923 0.9681 0.1505
H53_9 H 0.6077 0.9005 0.2181
H54_9 H 0.5319 0.8495 0.1077
C82_9 C 0.42125(12) 0.94041(11) 0.15855(12)
C83_9 C 0.57875(12) 0.90855(12) 0.19041(11)
C84_9 C 0.55959(11) 0.84145(12) 0.07875(12)
C87_9 C 0.43837(11) 0.91545(12) 0.17529(12)
C88_9 C 0.56163(11) 0.92529(12) 0.16545(12)
C89_9 C 0.58455(12) 0.82471(12) 0.06163(11)
C92_9 C 0.40670(12) 0.92385(12) 0.18565(12)
C93_9 C 0.59330(12) 0.93565(12) 0.17385(12)
C94_9 C 0.57615(12) 0.81435(12) 0.09330(12)
C97_9 C 0.35594(14) 0.91191(15) 0.22451(14)
C98_9 C 0.64406(14) 0.97451(14) 0.16191(15)
C99_9 C 0.58809(15) 0.77549(14) 0.14406(14)
H57_9 H 0.3447 0.9093 0.2337
H58_9 H 0.6553 0.9837 0.1593
H59_9 H 0.5907 0.7663 0.1553
C102_9 C 0.35426(15) 0.92836(15) 0.21110(15)
C103_9 C 0.64574(15) 0.96110(15) 0.17836(15)
C104_9 C 0.57164(15) 0.78890(15) 0.14574(15)
H62_9 H 0.3421 0.9367 0.2108
H63_9 H 0.6579 0.9608 0.1867
H64_9 H 0.5633 0.7892 0.1579
C107_9 C 0.37096(14) 0.93251(13) 0.19798(14)
C108_9 C 0.62904(14) 0.94798(14) 0.18251(13)
C109_9 C 0.56749(13) 0.80202(14) 0.12904(14)
H67_9 H 0.3703 0.9438 0.1885
H68_9 H 0.6297 0.9385 0.1938
H69_9 H 0.5562 0.8115 0.1297
C112_9 C 0.38804(13) 0.92051(12) 0.19881(12)
C113_9 C 0.61196(13) 0.94881(12) 0.17051(12)
C114_9 C 0.57949(12) 0.80119(12) 0.11196(13)
C117_9 C 0.38826(11) 0.90321(12) 0.21265(11)
C118_9 C 0.61174(11) 0.96265(11) 0.15321(12)
C119_9 C 0.59679(12) 0.78735(11) 0.11174(11)
H72_9 H 0.4000 0.8942 0.2127
H73_9 H 0.6000 0.9627 0.1442
H74_9 H 0.6058 0.7873 0.1000
S2_9 S 0.36856(15) 0.94939(7) 0.99559(7)
C26_9 C 0.3718(2) 0.92456(19) 0.99851(14)
Co6_14 Co 0.621072(19) 0.871072(19) 1.0000
S8_9 S 0.38144(15) 0.80061(7) 0.99559(7)
C152_9 C 0.3782(2) 0.82544(19) 0.99851(14)
N9_7 N 0.12516(10) 0.15085(10) 0.02072(10)
N10_7 N 0.17186(11) 0.15591(12) 0.06390(11)
S2_10 S 0.05061(7) 0.13144(15) 0.00441(7)
C20_7 C 0.11165(16) 0.16623(15) 0.01834(14)
H13_7 H 0.1008 0.1646 0.0084
C21_7 C 0.1126(2) 0.18469(17) 0.02980(17)
H14_7 H 0.1033 0.1958 0.0271
C22_7 C 0.12750(16) 0.18620(15) 0.04515(16)
H15_7 H 0.1282 0.1982 0.0536
C23_7 C 0.14131(14) 0.17016(14) 0.04809(13)
C24_7 C 0.13931(13) 0.15262(12) 0.03528(12)
H16_7 H 0.1487 0.1414 0.0373
C25_7 C 0.15725(14) 0.17079(13) 0.06431(13)
C26_10 C 0.07544(19) 0.1282(2) 0.00149(14)
N57_7 N 0.15085(10) 0.22928(10) 0.12484(10)
N58_7 N 0.22928(10) 0.12516(10) 0.09915(10)
N66_7 N 0.18610(11) 0.17186(11) 0.09409(12)
N67_7 N 0.15591(12) 0.18610(11) 0.07814(11)
S8_10 S 0.19939(7) 0.11856(15) 0.00441(7)
C122_7 C 0.16623(15) 0.23166(14) 0.13835(16)
C123_7 C 0.23166(14) 0.11165(16) 0.08377(15)
H77_7 H 0.1646 0.2416 0.1492
H78_7 H 0.2416 0.1008 0.0854
C127_7 C 0.18469(17) 0.22020(17) 0.1374(2)
C128_7 C 0.22020(17) 0.1126(2) 0.06531(17)
H82_7 H 0.1958 0.2229 0.1467
H83_7 H 0.2229 0.1033 0.0542
C132_7 C 0.18620(15) 0.20485(16) 0.12250(16)
C133_7 C 0.20485(16) 0.12750(16) 0.06380(15)
H87_7 H 0.1982 0.1964 0.1218
H88_7 H 0.1964 0.1282 0.0518
C137_7 C 0.17016(14) 0.20191(13) 0.10869(14)
C138_7 C 0.20191(13) 0.14131(14) 0.07984(14)
C142_7 C 0.15262(12) 0.21472(12) 0.11069(13)
C143_7 C 0.21472(12) 0.13931(13) 0.09738(12)
H92_7 H 0.1414 0.2127 0.1013
H93_7 H 0.2127 0.1487 0.1086
C147_7 C 0.18569(13) 0.15725(14) 0.07921(13)
C148_7 C 0.17079(13) 0.18569(13) 0.09275(14)
C152_10 C 0.17456(19) 0.1218(2) 0.00149(14)
N2_10 N 0.09293(12) 0.12671(10) 0.99942(9)
Co9_9 Co 0.1250 0.1250 0.75144(2)
N11_10 N 0.10606(10) 0.02320(9) 0.88708(10)
N13_10 N 0.02320(9) 0.14394(10) 0.86292(10)
N16_10 N 0.15707(12) 0.12329(10) 0.99942(9)
N17_9 N 0.12671(10) 0.15707(12) 0.75058(9)
N18_9 N 0.12329(10) 0.09293(12) 0.75058(9)
N21_10 N 0.11565(9) 0.01526(10) 0.84101(10)
N24_9 N 0.01526(10) 0.13435(9) 0.90899(10)
N28_10 N 0.01656(10) 0.09928(11) 0.87501(10)
N31_9 N 0.09928(11) 0.23344(10) 0.87499(10)
N35_10 N 0.06152(10) 0.09527(10) 0.82947(10)
N38_9 N 0.09527(10) 0.18848(10) 0.92053(10)
N40_10 N 0.07081(10) 0.06148(9) 0.83997(10)
N43_9 N 0.06148(9) 0.17919(10) 0.91003(10)
N45_10 N 0.08776(10) 0.07686(10) 0.81119(9)
N48_9 N 0.07686(10) 0.16224(10) 0.93881(9)
N50_9 N 0.10074(10) 0.12752(10) 0.77453(10)
N53_9 N 0.12752(10) 0.14926(10) 0.97547(10)
N55_9 N 0.14926(10) 0.12248(10) 0.77453(10)
N62_9 N 0.15085(10) 0.12484(10) 0.72928(10)
N63_9 N 0.09915(10) 0.12516(10) 0.72928(10)
S3_10 S 0.08020(5) 0.04698(5) 0.91216(5)
S5_10 S 0.04698(5) 0.16980(5) 0.83784(5)
S9_9 S 0.13144(15) 0.19939(7) 0.74559(7)
S10_9 S 0.11856(15) 0.05061(7) 0.74559(7)
C27_10 C 0.09544(12) 0.03381(12) 0.89741(13)
C29_10 C 0.03381(12) 0.15456(12) 0.85259(13)
C32_10 C 0.10166(11) 0.03098(12) 0.84018(12)
C35_9 C 0.03098(12) 0.14834(11) 0.90982(12)
H17_10 H 0.0935 0.0337 0.8521
H20_9 H 0.0337 0.1565 0.8979
C37_10 C 0.09874(11) 0.04302(12) 0.82314(12)
C40_9 C 0.04302(12) 0.15126(11) 0.92686(12)
C42_10 C 0.10983(15) 0.03888(14) 0.80482(16)
C45_9 C 0.03888(14) 0.14017(15) 0.94518(16)
H22_10 H 0.1081 0.0471 0.7927
H25_9 H 0.0471 0.1419 0.9573
C47_10 C 0.12323(16) 0.02243(15) 0.80540(17)
C50_9 C 0.02243(15) 0.12677(16) 0.94460(17)
H27_10 H 0.1307 0.0187 0.7933
H30_9 H 0.0187 0.1193 0.9567
C52_10 C 0.12596(14) 0.01137(15) 0.82314(16)
C55_9 C 0.01137(15) 0.12404(14) 0.92686(16)
H32_10 H 0.1357 0.0003 0.8230
H35_9 H 0.0003 0.1143 0.9270
C57_10 C 0.01535(15) 0.08373(15) 0.88923(16)
C60_9 C 0.08373(15) 0.23465(15) 0.86077(16)
H37_10 H 0.0052 0.0846 0.8999
H40_9 H 0.0846 0.2448 0.8501
C62_10 C 0.02810(16) 0.06723(17) 0.88865(17)
C65_9 C 0.06723(17) 0.22190(16) 0.86135(17)
H42_10 H 0.0272 0.0570 0.8992
H45_9 H 0.0570 0.2228 0.8508
C67_10 C 0.04220(15) 0.06496(16) 0.87326(15)
C70_9 C 0.06496(16) 0.20780(15) 0.87674(15)
H47_10 H 0.0510 0.0531 0.8729
H50_9 H 0.0531 0.1990 0.8771
C72_10 C 0.04374(12) 0.08005(13) 0.85801(13)
C75_9 C 0.08005(13) 0.20626(12) 0.89199(13)
C77_10 C 0.03082(11) 0.09704(12) 0.85960(12)
C80_9 C 0.09704(12) 0.21918(11) 0.89040(12)
H52_10 H 0.0319 0.1077 0.8495
H55_9 H 0.1077 0.2181 0.9005
C82_10 C 0.05959(11) 0.07875(12) 0.84145(12)
C85_9 C 0.07875(12) 0.19041(11) 0.90855(12)
C87_10 C 0.08455(12) 0.06163(11) 0.82471(12)
C90_9 C 0.06163(11) 0.16545(12) 0.92529(12)
C92_10 C 0.07615(12) 0.09330(12) 0.81435(12)
C95_9 C 0.09330(12) 0.17385(12) 0.93565(12)
C97_10 C 0.08809(15) 0.14406(14) 0.77549(14)
C100_9 C 0.14406(14) 0.16191(15) 0.97451(14)
H57_10 H 0.0907 0.1553 0.7663
H60_9 H 0.1553 0.1593 0.9837
C102_10 C 0.07164(15) 0.14574(15) 0.78890(15)
C105_9 C 0.14574(15) 0.17836(15) 0.96110(15)
H62_10 H 0.0633 0.1579 0.7892
H65_9 H 0.1579 0.1867 0.9608
C107_10 C 0.06749(13) 0.12904(14) 0.80202(14)
C110_9 C 0.12904(14) 0.18251(13) 0.94798(14)
H67_10 H 0.0562 0.1297 0.8115
H70_9 H 0.1297 0.1938 0.9385
C112_10 C 0.07949(12) 0.11196(13) 0.80119(12)
C115_9 C 0.11196(13) 0.17051(12) 0.94881(12)
C117_10 C 0.09679(12) 0.11174(11) 0.78735(11)
C120_9 C 0.11174(11) 0.15321(12) 0.96265(11)
H72_10 H 0.1058 0.1000 0.7873
H75_9 H 0.1000 0.1442 0.9627
C153_9 C 0.1282(2) 0.17456(19) 0.74851(14)
C154_9 C 0.1218(2) 0.07544(19) 0.74851(14)
N1_10 N 0.13708(10) 0.97680(9) 0.85606(10)
S1_10 S 0.16216(5) 0.95302(5) 0.83020(5)
C1_10 C 0.14741(13) 0.96619(12) 0.84544(12)
Co4_7 Co 0.128928(19) 0.871072(19) 0.7500
Co10_10 Co 0.00144(2) 0.8750 0.8750
N14_9 N 0.14394(10) 0.88708(10) 0.72680(9)
N15_9 N 0.11292(10) 0.85606(10) 0.77320(9)
N19_10 N 0.00058(9) 0.84293(12) 0.87671(10)
N20_10 N 0.00058(9) 0.90707(12) 0.87329(10)
N22_10 N 0.09101(10) 0.98474(10) 0.86565(9)
N23_10 N 0.15899(10) 0.88435(9) 0.98474(10)
N26_9 N 0.15899(10) 0.86565(9) 0.76526(10)
N27_6 N 0.13435(9) 0.84101(10) 0.73474(10)
N29_9 N 0.12501(10) 0.90072(11) 0.76656(10)
N30_10 N 0.12499(10) 0.98344(10) 0.90072(11)
N34_9 N 0.09928(11) 0.87499(10) 0.73344(10)
N36_10 N 0.07947(10) 0.90473(10) 0.81152(10)
N37_10 N 0.17053(10) 0.93848(10) 0.90473(10)
N41_10 N 0.08997(10) 0.93852(9) 0.82081(10)
N42_10 N 0.16003(10) 0.92919(10) 0.93852(9)
N46_10 N 0.06119(9) 0.92314(10) 0.83776(10)
N47_10 N 0.18881(9) 0.91224(10) 0.92314(10)
N51_10 N 0.02453(10) 0.87248(10) 0.85074(10)
N52_10 N 0.22547(10) 0.89926(10) 0.87248(10)
N56_10 N 0.02453(10) 0.87752(10) 0.89926(10)
S6_9 S 0.16980(5) 0.91216(5) 0.70302(5)
S7_9 S 0.08784(5) 0.83020(5) 0.79698(5)
C30_9 C 0.15456(12) 0.89741(13) 0.71619(12)
C31_9 C 0.10259(13) 0.84544(12) 0.78381(12)
C33_10 C 0.09018(12) 0.96902(12) 0.85166(11)
C34_10 C 0.15982(12) 0.89834(11) 0.96902(12)
H18_10 H 0.1021 0.9663 0.8435
H19_10 H 0.1479 0.9065 0.9663
C38_10 C 0.07314(12) 0.95698(12) 0.84874(11)
C39_10 C 0.17686(12) 0.90126(11) 0.95698(12)
C43_10 C 0.05482(16) 0.96112(14) 0.85983(15)
C44_10 C 0.19518(16) 0.89017(15) 0.96112(14)
H23_10 H 0.0427 0.9529 0.8581
H24_10 H 0.2073 0.8919 0.9529
C48_10 C 0.05540(17) 0.97757(15) 0.87323(16)
C49_10 C 0.19460(17) 0.87677(16) 0.97757(15)
H28_10 H 0.0433 0.9813 0.8807
H29_10 H 0.2067 0.8693 0.9813
C53_10 C 0.07314(16) 0.98863(15) 0.87596(14)
C54_10 C 0.17686(16) 0.87404(14) 0.98863(15)
H33_10 H 0.0730 0.9997 0.8857
H34_10 H 0.1770 0.8643 0.9997
C58_10 C 0.13923(16) 0.91627(15) 0.76535(15)
C59_10 C 0.11077(16) 0.98465(15) 0.91627(15)
H38_10 H 0.1499 0.9154 0.7552
H39_10 H 0.1001 0.9948 0.9154
C63_10 C 0.13865(17) 0.93277(17) 0.77810(16)
C64_10 C 0.11135(17) 0.97190(16) 0.93277(17)
H43_10 H 0.1492 0.9430 0.7772
H44_10 H 0.1008 0.9728 0.9430
C68_10 C 0.12326(15) 0.93504(16) 0.79220(15)
C69_10 C 0.12674(15) 0.95780(15) 0.93504(16)
H48_10 H 0.1229 0.9469 0.8010
H49_10 H 0.1271 0.9490 0.9469
C73_10 C 0.10801(13) 0.91995(13) 0.79374(12)
C74_10 C 0.14199(13) 0.95626(12) 0.91995(13)
C78_10 C 0.10960(12) 0.90296(12) 0.78082(11)
C79_10 C 0.14040(12) 0.96918(11) 0.90296(12)
H53_10 H 0.0995 0.8923 0.7819
H54_10 H 0.1505 0.9681 0.8923
C83_10 C 0.09145(12) 0.92125(12) 0.80959(11)
C84_10 C 0.15855(12) 0.94041(11) 0.92125(12)
C88_10 C 0.07471(12) 0.93837(11) 0.83455(12)
C89_10 C 0.17529(12) 0.91545(12) 0.93837(11)
C93_10 C 0.06435(12) 0.90670(12) 0.82615(12)
C94_10 C 0.18565(12) 0.92385(12) 0.90670(12)
C98_10 C 0.02549(14) 0.85594(14) 0.83809(15)
C99_10 C 0.22451(14) 0.91191(15) 0.85594(14)
H58_10 H 0.0163 0.8447 0.8407
H59_10 H 0.2337 0.9093 0.8447
C103_10 C 0.03890(15) 0.85426(15) 0.82164(15)
C104_10 C 0.21110(15) 0.92836(15) 0.85426(15)
H63_10 H 0.0392 0.8421 0.8133
H64_10 H 0.2108 0.9367 0.8421
C108_10 C 0.05202(14) 0.87096(14) 0.81749(13)
C109_10 C 0.19798(14) 0.93251(13) 0.87096(14)
H68_10 H 0.0615 0.8703 0.8062
H69_10 H 0.1885 0.9438 0.8703
C113_10 C 0.05119(12) 0.88804(13) 0.82949(12)
C114_10 C 0.19881(12) 0.92051(12) 0.88804(13)
C118_10 C 0.03735(11) 0.88826(11) 0.84679(12)
C119_10 C 0.21265(11) 0.90321(12) 0.88826(11)
H73_10 H 0.0373 0.9000 0.8558
H74_10 H 0.2127 0.8942 0.9000
N12_10 N 0.97680(9) 0.11292(10) 0.89394(10)
N33_10 N 0.98344(10) 0.12501(10) 0.84928(11)
S4_10 S 0.95302(5) 0.08784(5) 0.91980(5)
C28_10 C 0.96619(12) 0.10259(13) 0.90456(12)
N64_10 N 0.97928(10) 0.87516(10) 0.90085(10)
N65_10 N 0.97928(10) 0.87484(10) 0.84915(10)
S11_10 S 0.99559(7) 0.80061(7) 0.88144(15)
S12_10 S 0.99559(7) 0.94939(7) 0.86856(15)
C155_10 C 0.99851(14) 0.82544(19) 0.8782(2)
C156_10 C 0.99851(14) 0.92456(19) 0.8718(2)
N11_11 N 0.14394(10) 0.02320(9) 0.36292(10)
N12_11 N 0.27320(9) 0.11292(10) 0.35606(10)
N13_11 N 0.22680(9) 0.14394(10) 0.38708(10)
N21_11 N 0.13435(9) 0.01526(10) 0.40899(10)
N25_10 N 0.26526(10) 0.15899(10) 0.36565(9)
N28_11 N 0.23344(10) 0.09928(11) 0.37499(10)
N32_10 N 0.34928(11) 0.12499(10) 0.26656(10)
N33_11 N 0.26656(10) 0.12501(10) 0.40072(11)
N35_11 N 0.18848(10) 0.09527(10) 0.42053(10)
N39_10 N 0.34527(10) 0.17053(10) 0.31152(10)
N40_11 N 0.17919(10) 0.06148(9) 0.41003(10)
N44_10 N 0.31148(9) 0.16003(10) 0.32081(10)
N45_11 N 0.16224(10) 0.07686(10) 0.43881(9)
N49_10 N 0.32686(10) 0.18881(9) 0.33776(10)
N54_10 N 0.37752(10) 0.22547(10) 0.35074(10)
S3_11 S 0.16980(5) 0.04698(5) 0.33784(5)
S4_11 S 0.29698(5) 0.08784(5) 0.33020(5)
S5_11 S 0.20302(5) 0.16980(5) 0.41216(5)
C27_11 C 0.15456(12) 0.03381(12) 0.35259(13)
C28_11 C 0.28381(12) 0.10259(13) 0.34544(12)
C29_11 C 0.21619(12) 0.15456(12) 0.39741(13)
C32_11 C 0.14834(11) 0.03098(12) 0.40982(12)
C36_10 C 0.28098(12) 0.15982(12) 0.35166(11)
H17_11 H 0.1565 0.0337 0.3979
H21_10 H 0.2837 0.1479 0.3435
C37_11 C 0.15126(11) 0.04302(12) 0.42686(12)
C41_10 C 0.29302(12) 0.17686(12) 0.34874(11)
C42_11 C 0.14017(15) 0.03888(14) 0.44518(16)
C46_10 C 0.28888(14) 0.19518(16) 0.35983(15)
H22_11 H 0.1419 0.0471 0.4573
H26_10 H 0.2971 0.2073 0.3581
C47_11 C 0.12677(16) 0.02243(15) 0.44460(17)
C51_10 C 0.27243(15) 0.19460(17) 0.37323(16)
H27_11 H 0.1193 0.0187 0.4567
H31_10 H 0.2687 0.2067 0.3807
C52_11 C 0.12404(14) 0.01137(15) 0.42686(16)
C56_10 C 0.26137(15) 0.17686(16) 0.37596(14)
H32_11 H 0.1143 0.0003 0.4270
H36_10 H 0.2503 0.1770 0.3857
C57_11 C 0.23465(15) 0.08373(15) 0.36077(16)
C61_10 C 0.33373(15) 0.11077(16) 0.26535(15)
H37_11 H 0.2448 0.0846 0.3501
H41_10 H 0.3346 0.1001 0.2552
C62_11 C 0.22190(16) 0.06723(17) 0.36135(17)
C66_10 C 0.31723(17) 0.11135(17) 0.27810(16)
H42_11 H 0.2228 0.0570 0.3508
H46_10 H 0.3070 0.1008 0.2772
C67_11 C 0.20780(15) 0.06496(16) 0.37674(15)
C71_10 C 0.31496(16) 0.12674(15) 0.29220(15)
H47_11 H 0.1990 0.0531 0.3771
H51_10 H 0.3031 0.1271 0.3010
C72_11 C 0.20626(12) 0.08005(13) 0.39199(13)
C76_10 C 0.33005(13) 0.14199(13) 0.29374(12)
C77_11 C 0.21918(11) 0.09704(12) 0.39040(12)
C81_10 C 0.34704(12) 0.14040(12) 0.28082(11)
H52_11 H 0.2181 0.1077 0.4005
H56_10 H 0.3577 0.1505 0.2819
C82_11 C 0.19041(11) 0.07875(12) 0.40855(12)
C86_10 C 0.32875(12) 0.15855(12) 0.30959(11)
C87_11 C 0.16545(12) 0.06163(11) 0.42529(12)
C91_10 C 0.31163(11) 0.17529(12) 0.33455(12)
C92_11 C 0.17385(12) 0.09330(12) 0.43565(12)
C96_10 C 0.34330(12) 0.18565(12) 0.32615(12)
C97_11 C 0.16191(15) 0.14406(14) 0.47451(14)
C101_10 C 0.39406(14) 0.22451(14) 0.33809(15)
H57_11 H 0.1593 0.1553 0.4837
H61_10 H 0.4053 0.2337 0.3407
C102_11 C 0.17836(15) 0.14574(15) 0.46110(15)
C106_10 C 0.39574(15) 0.21110(15) 0.32164(15)
H62_11 H 0.1867 0.1579 0.4608
H66_10 H 0.4079 0.2108 0.3133
C107_11 C 0.18251(13) 0.12904(14) 0.44798(14)
C111_10 C 0.37904(14) 0.19798(14) 0.31749(13)
H67_11 H 0.1938 0.1297 0.4385
H71_10 H 0.3797 0.1885 0.3062
C112_11 C 0.17051(12) 0.11196(13) 0.44881(12)
C116_10 C 0.36196(13) 0.19881(12) 0.32949(12)
C117_11 C 0.15321(12) 0.11174(11) 0.46265(11)
C121_10 C 0.36174(11) 0.21265(11) 0.34679(12)
H72_11 H 0.1442 0.1000 0.4627
H76_10 H 0.3500 0.2127 0.3558
N1_11 N 0.11292(10) 0.97680(9) 0.39394(10)
S1_11 S 0.08784(5) 0.95302(5) 0.41980(5)
C1_11 C 0.10259(13) 0.96619(12) 0.40456(12)
Co4_8 Co 0.121072(19) 0.871072(19) 0.5000
Co10_11 Co 0.24856(2) 0.8750 0.3750
N14_10 N 0.10606(10) 0.88708(10) 0.52320(9)
N15_10 N 0.13708(10) 0.85606(10) 0.47680(9)
N19_11 N 0.24942(9) 0.84293(12) 0.37329(10)
N20_11 N 0.24942(9) 0.90707(12) 0.37671(10)
N22_11 N 0.15899(10) 0.98474(10) 0.38435(9)
N26_10 N 0.09101(10) 0.86565(9) 0.48474(10)
N27_7 N 0.11565(9) 0.84101(10) 0.51526(10)
N29_10 N 0.12499(10) 0.90072(11) 0.48344(10)
N34_10 N 0.15072(11) 0.87499(10) 0.51656(10)
N36_11 N 0.17053(10) 0.90473(10) 0.43848(10)
N41_11 N 0.16003(10) 0.93852(9) 0.42919(10)
N46_11 N 0.18881(9) 0.92314(10) 0.41224(10)
N51_11 N 0.22547(10) 0.87248(10) 0.39926(10)
N56_11 N 0.22547(10) 0.87752(10) 0.35074(10)
N64_11 N 0.27072(10) 0.87516(10) 0.34915(10)
N65_11 N 0.27072(10) 0.87484(10) 0.40085(10)
S6_10 S 0.08020(5) 0.91216(5) 0.54698(5)
S7_10 S 0.16216(5) 0.83020(5) 0.45302(5)
S11_11 S 0.25441(7) 0.80061(7) 0.36856(15)
S12_11 S 0.25441(7) 0.94939(7) 0.38144(15)
C30_10 C 0.09544(12) 0.89741(13) 0.53381(12)
C31_10 C 0.14741(13) 0.84544(12) 0.46619(12)
C33_11 C 0.15982(12) 0.96902(12) 0.39834(11)
H18_11 H 0.1479 0.9663 0.4065
C38_11 C 0.17686(12) 0.95698(12) 0.40126(11)
C43_11 C 0.19518(16) 0.96112(14) 0.39017(15)
H23_11 H 0.2073 0.9529 0.3919
C48_11 C 0.19460(17) 0.97757(15) 0.37677(16)
H28_11 H 0.2067 0.9813 0.3693
C53_11 C 0.17686(16) 0.98863(15) 0.37404(14)
H33_11 H 0.1770 0.9997 0.3643
C58_11 C 0.11077(16) 0.91627(15) 0.48465(15)
H38_11 H 0.1001 0.9154 0.4948
C63_11 C 0.11135(17) 0.93277(17) 0.47190(16)
H43_11 H 0.1008 0.9430 0.4728
C68_11 C 0.12674(15) 0.93504(16) 0.45780(15)
H48_11 H 0.1271 0.9469 0.4490
C73_11 C 0.14199(13) 0.91995(13) 0.45626(12)
C78_11 C 0.14040(12) 0.90296(12) 0.46918(11)
H53_11 H 0.1505 0.8923 0.4681
C83_11 C 0.15855(12) 0.92125(12) 0.44041(11)
C88_11 C 0.17529(12) 0.93837(11) 0.41545(12)
C93_11 C 0.18565(12) 0.90670(12) 0.42385(12)
C98_11 C 0.22451(14) 0.85594(14) 0.41191(15)
H58_11 H 0.2337 0.8447 0.4093
C103_11 C 0.21110(15) 0.85426(15) 0.42836(15)
H63_11 H 0.2108 0.8421 0.4367
C108_11 C 0.19798(14) 0.87096(14) 0.43251(13)
H68_11 H 0.1885 0.8703 0.4438
C113_11 C 0.19881(12) 0.88804(13) 0.42051(12)
C118_11 C 0.21265(11) 0.88826(11) 0.40321(12)
H73_11 H 0.2127 0.9000 0.3942
C155_11 C 0.25149(14) 0.82544(19) 0.3718(2)
C156_11 C 0.25149(14) 0.92456(19) 0.3782(2)
N12_12 N 0.36292(10) 0.02320(9) 0.64394(10)
N33_12 N 0.37501(10) 0.01656(10) 0.59928(11)
N64_12 N 0.12516(10) 0.02072(10) 0.65085(10)
N65_12 N 0.12484(10) 0.02072(10) 0.59915(10)
S4_12 S 0.33784(5) 0.04698(5) 0.66980(5)
S11_12 S 0.05061(7) 0.00441(7) 0.63144(15)
S12_12 S 0.19939(7) 0.00441(7) 0.61856(15)
C28_12 C 0.35259(13) 0.03381(12) 0.65456(12)
C155_12 C 0.07544(19) 0.00149(14) 0.6282(2)
C156_12 C 0.17456(19) 0.00149(14) 0.6218(2)
Co1_12 Co 0.2500 0.878928(19) 0.621072(19)
N1_12 N 0.22680(9) 0.86292(10) 0.60606(10)
N2_11 N 0.37671(10) 0.90707(12) 0.74942(9)
N3_8 N 0.36565(9) 0.76526(10) 0.65899(10)
N4_10 N 0.26656(10) 0.84928(11) 0.62499(10)
N5_10 N 0.31152(10) 0.84527(10) 0.67053(10)
N6_10 N 0.32081(10) 0.81148(9) 0.66003(10)
N7_10 N 0.33776(10) 0.82686(10) 0.68881(9)
N8_10 N 0.35074(10) 0.87752(10) 0.72547(10)
S1_12 S 0.20302(5) 0.83784(5) 0.58020(5)
S2_11 S 0.38144(15) 0.94939(7) 0.75441(7)
C1_12 C 0.21619(12) 0.85259(13) 0.59544(12)
C2_10 C 0.35166(11) 0.78098(12) 0.65982(12)
H1_10 H 0.3435 0.7837 0.6479
C3_10 C 0.34874(11) 0.79302(12) 0.67686(12)
C4_10 C 0.35983(15) 0.78888(14) 0.69518(16)
H2_10 H 0.3581 0.7971 0.7073
C5_10 C 0.37323(16) 0.77243(15) 0.69460(17)
H3_10 H 0.3807 0.7687 0.7067
C6_10 C 0.37596(14) 0.76137(15) 0.67686(16)
H4_10 H 0.3857 0.7503 0.6770
C7_10 C 0.26535(15) 0.83373(15) 0.61077(16)
H5_10 H 0.2552 0.8346 0.6001
C8_10 C 0.27810(16) 0.81723(17) 0.61135(17)
H6_10 H 0.2772 0.8070 0.6008
C9_10 C 0.29220(15) 0.81496(16) 0.62674(15)
H7_10 H 0.3010 0.8031 0.6271
C10_10 C 0.29374(12) 0.83005(13) 0.64199(13)
C11_10 C 0.28082(11) 0.84704(12) 0.64040(12)
H8_10 H 0.2819 0.8577 0.6505
C12_10 C 0.30959(11) 0.82875(12) 0.65855(12)
C13_10 C 0.33455(12) 0.81163(11) 0.67529(12)
C14_10 C 0.32615(12) 0.84330(12) 0.68565(12)
C15_10 C 0.33809(15) 0.89406(14) 0.72451(14)
H9_10 H 0.3407 0.9053 0.7337
C16_10 C 0.32164(15) 0.89574(15) 0.71110(15)
H10_10 H 0.3133 0.9079 0.7108
C17_10 C 0.31749(13) 0.87904(14) 0.69798(14)
H11_10 H 0.3062 0.8797 0.6885
C18_10 C 0.32949(12) 0.86196(13) 0.69881(12)
C19_10 C 0.34679(12) 0.86174(11) 0.71265(11)
H12_10 H 0.3558 0.8500 0.7127
C26_11 C 0.3782(2) 0.92456(19) 0.75149(14)
Co5_9 Co 0.371072(19) 0.7500 0.628928(19)
Co7_9 Co 0.5000 0.871072(19) 0.621072(19)
Co9_10 Co 0.3750 0.8750 0.50144(2)
Co10_12 Co 0.1250 0.99856(2) 0.6250
Co13_7 Co 0.1250 0.75144(2) 0.6250
N11_12 N 0.27320(9) 0.89394(10) 0.63708(10)
N13_12 N 0.39394(10) 0.97680(9) 0.61292(10)
N16_11 N 0.37329(10) 0.84293(12) 0.74942(9)
N17_10 N 0.40707(12) 0.87329(10) 0.50058(9)
N18_10 N 0.34293(12) 0.87671(10) 0.50058(9)
N19_12 N 0.09293(12) 0.99942(9) 0.62671(10)
N20_12 N 0.15707(12) 0.99942(9) 0.62329(10)
N21_12 N 0.26526(10) 0.88435(9) 0.59101(10)
N22_12 N 0.23474(10) 0.90899(10) 0.61565(9)
N24_10 N 0.38435(9) 0.98474(10) 0.65899(10)
N28_12 N 0.34928(11) 0.98344(10) 0.62501(10)
N30_11 N 0.23344(10) 0.87501(10) 0.65072(11)
N31_10 N 0.48344(10) 0.90072(11) 0.62499(10)
N35_12 N 0.34527(10) 0.93848(10) 0.57947(10)
N36_12 N 0.15473(10) 0.92053(10) 0.56152(10)
N37_11 N 0.18848(10) 0.82947(10) 0.65473(10)
N38_10 N 0.43848(10) 0.90473(10) 0.67053(10)
N40_12 N 0.31148(9) 0.92919(10) 0.58997(10)
N41_12 N 0.18852(9) 0.91003(10) 0.57081(10)
N42_11 N 0.17919(10) 0.83997(10) 0.68852(9)
N43_10 N 0.42919(10) 0.93852(9) 0.66003(10)
N45_12 N 0.32686(10) 0.91224(10) 0.56119(9)
N46_12 N 0.17314(10) 0.93881(9) 0.58776(10)
N47_11 N 0.16224(10) 0.81119(9) 0.67314(10)
N48_10 N 0.41224(10) 0.92314(10) 0.68881(9)
N50_10 N 0.37752(10) 0.89926(10) 0.52453(10)
N51_12 N 0.12248(10) 0.97547(10) 0.60074(10)
N52_11 N 0.14926(10) 0.77453(10) 0.62248(10)
N53_10 N 0.39926(10) 0.87248(10) 0.72547(10)
N55_10 N 0.37248(10) 0.85074(10) 0.52453(10)
N56_12 N 0.12752(10) 0.97547(10) 0.64926(10)
N62_10 N 0.37484(10) 0.84915(10) 0.47928(10)
N63_10 N 0.37516(10) 0.90085(10) 0.47928(10)
S3_12 S 0.29698(5) 0.91980(5) 0.66216(5)
S5_12 S 0.41980(5) 0.95302(5) 0.58784(5)
S8_11 S 0.36856(15) 0.80061(7) 0.75441(7)
S9_10 S 0.44939(7) 0.86856(15) 0.49559(7)
S10_10 S 0.30061(7) 0.88144(15) 0.49559(7)
C27_12 C 0.28381(12) 0.90456(12) 0.64741(13)
C29_12 C 0.40456(12) 0.96619(12) 0.60259(13)
C32_12 C 0.28098(12) 0.89834(11) 0.59018(12)
C33_12 C 0.21902(12) 0.90982(12) 0.60166(11)
C34_11 C 0.14834(11) 0.84018(12) 0.71902(12)
C35_10 C 0.39834(11) 0.96902(12) 0.65982(12)
H17_12 H 0.2837 0.9065 0.6021
H18_12 H 0.2163 0.8979 0.5935
H19_11 H 0.1565 0.8521 0.7163
H20_10 H 0.4065 0.9663 0.6479
C37_12 C 0.29302(12) 0.90126(11) 0.57314(12)
C38_12 C 0.20698(12) 0.92686(12) 0.59874(11)
C39_11 C 0.15126(11) 0.82314(12) 0.70698(12)
C40_10 C 0.40126(11) 0.95698(12) 0.67686(12)
C42_12 C 0.28888(14) 0.89017(15) 0.55482(16)
C43_12 C 0.21112(14) 0.94518(16) 0.60983(15)
C44_11 C 0.14017(15) 0.80482(16) 0.71112(14)
C45_10 C 0.39017(15) 0.96112(14) 0.69518(16)
H22_12 H 0.2971 0.8919 0.5427
H23_12 H 0.2029 0.9573 0.6081
H24_11 H 0.1419 0.7927 0.7029
H25_10 H 0.3919 0.9529 0.7073
C47_12 C 0.27243(15) 0.87677(16) 0.55540(17)
C48_12 C 0.22757(15) 0.94460(17) 0.62323(16)
C49_11 C 0.12677(16) 0.80540(17) 0.72757(15)
C50_10 C 0.37677(16) 0.97757(15) 0.69460(17)
H27_12 H 0.2687 0.8693 0.5433
H28_12 H 0.2313 0.9567 0.6307
H29_11 H 0.1193 0.7933 0.7313
H30_10 H 0.3693 0.9813 0.7067
C52_12 C 0.26137(15) 0.87404(14) 0.57314(16)
C53_12 C 0.23863(15) 0.92686(16) 0.62596(14)
C54_11 C 0.12404(14) 0.82314(16) 0.73863(15)
C55_10 C 0.37404(14) 0.98863(15) 0.67686(16)
H32_12 H 0.2503 0.8643 0.5730
H33_12 H 0.2497 0.9270 0.6357
H34_11 H 0.1143 0.8230 0.7497
H35_10 H 0.3643 0.9997 0.6770
C57_12 C 0.33373(15) 0.98465(15) 0.63923(16)
C58_12 C 0.16627(15) 0.86077(16) 0.51535(15)
C59_11 C 0.23465(15) 0.88923(16) 0.66627(15)
C60_10 C 0.48465(15) 0.91627(15) 0.61077(16)
H37_12 H 0.3346 0.9948 0.6499
H38_12 H 0.1654 0.8501 0.5052
H39_11 H 0.2448 0.8999 0.6654
H40_10 H 0.4948 0.9154 0.6001
C62_12 C 0.31723(17) 0.97190(16) 0.63865(17)
C63_12 C 0.18277(17) 0.86135(17) 0.52810(16)
C64_11 C 0.22190(16) 0.88865(17) 0.68277(17)
C65_10 C 0.47190(16) 0.93277(17) 0.61135(17)
H42_12 H 0.3070 0.9728 0.6492
H43_12 H 0.1930 0.8508 0.5272
H44_11 H 0.2228 0.8992 0.6930
H45_10 H 0.4728 0.9430 0.6008
C67_12 C 0.31496(16) 0.95780(15) 0.62326(15)
C68_12 C 0.18504(16) 0.87674(15) 0.54220(15)
C69_11 C 0.20780(15) 0.87326(15) 0.68504(16)
C70_10 C 0.45780(15) 0.93504(16) 0.62674(15)
H47_12 H 0.3031 0.9490 0.6229
H48_12 H 0.1969 0.8771 0.5510
H49_11 H 0.1990 0.8729 0.6969
H50_10 H 0.4490 0.9469 0.6271
C72_12 C 0.33005(13) 0.95626(12) 0.60801(13)
C73_12 C 0.16995(13) 0.89199(13) 0.54374(12)
C74_11 C 0.20626(12) 0.85801(13) 0.66995(13)
C75_10 C 0.45626(12) 0.91995(13) 0.64199(13)
C77_12 C 0.34704(12) 0.96918(11) 0.60960(12)
C78_12 C 0.15296(12) 0.89040(12) 0.53082(11)
C79_11 C 0.21918(11) 0.85960(12) 0.65296(12)
C80_10 C 0.46918(11) 0.90296(12) 0.64040(12)
H52_12 H 0.3577 0.9681 0.5995
H53_12 H 0.1423 0.9005 0.5319
H54_11 H 0.2181 0.8495 0.6423
H55_10 H 0.4681 0.8923 0.6505
C82_12 C 0.32875(12) 0.94041(11) 0.59145(12)
C83_12 C 0.17125(12) 0.90855(12) 0.55959(11)
C84_11 C 0.19041(11) 0.84145(12) 0.67125(12)
C85_10 C 0.44041(11) 0.92125(12) 0.65855(12)
C87_12 C 0.31163(11) 0.91545(12) 0.57471(12)
C88_12 C 0.18837(11) 0.92529(12) 0.58455(12)
C89_11 C 0.16545(12) 0.82471(12) 0.68837(11)
C90_10 C 0.41545(12) 0.93837(11) 0.67529(12)
C92_12 C 0.34330(12) 0.92385(12) 0.56435(12)
C93_12 C 0.15670(12) 0.93565(12) 0.57615(12)
C94_11 C 0.17385(12) 0.81435(12) 0.65670(12)
C95_10 C 0.42385(12) 0.90670(12) 0.68565(12)
C97_12 C 0.39406(14) 0.91191(15) 0.52549(14)
C98_12 C 0.10594(14) 0.97451(14) 0.58809(15)
C99_11 C 0.16191(15) 0.77549(14) 0.60594(14)
C100_10 C 0.41191(15) 0.85594(14) 0.72451(14)
H57_12 H 0.4053 0.9093 0.5163
H58_12 H 0.0947 0.9837 0.5907
H59_11 H 0.1593 0.7663 0.5947
H60_10 H 0.4093 0.8447 0.7337
C102_12 C 0.39574(15) 0.92836(15) 0.53890(15)
C103_12 C 0.10426(15) 0.96110(15) 0.57164(15)
C104_11 C 0.17836(15) 0.78890(15) 0.60426(15)
C105_10 C 0.42836(15) 0.85426(15) 0.71110(15)
H62_12 H 0.4079 0.9367 0.5392
H63_12 H 0.0921 0.9608 0.5633
H64_11 H 0.1867 0.7892 0.5921
H65_10 H 0.4367 0.8421 0.7108
C107_12 C 0.37904(14) 0.93251(13) 0.55202(14)
C108_12 C 0.12096(14) 0.94798(14) 0.56749(13)
C109_11 C 0.18251(13) 0.80202(14) 0.62096(14)
C110_10 C 0.43251(13) 0.87096(14) 0.69798(14)
H67_12 H 0.3797 0.9438 0.5615
H68_12 H 0.1203 0.9385 0.5562
H69_11 H 0.1938 0.8115 0.6203
H70_10 H 0.4438 0.8703 0.6885
C112_12 C 0.36196(13) 0.92051(12) 0.55119(12)
C113_12 C 0.13804(13) 0.94881(12) 0.57949(12)
C114_11 C 0.17051(12) 0.80119(12) 0.63804(13)
C115_10 C 0.42051(12) 0.88804(13) 0.69881(12)
C117_12 C 0.36174(11) 0.90321(12) 0.53735(11)
C118_12 C 0.13826(11) 0.96265(11) 0.59679(12)
C119_11 C 0.15321(12) 0.78735(11) 0.63826(11)
C120_10 C 0.40321(12) 0.88826(11) 0.71265(11)
H72_12 H 0.3500 0.8942 0.5373
H73_12 H 0.1500 0.9627 0.6058
H74_11 H 0.1442 0.7873 0.6500
H75_10 H 0.3942 0.9000 0.7127
C152_11 C 0.3718(2) 0.82544(19) 0.75149(14)
C153_10 C 0.42456(19) 0.8718(2) 0.49851(14)
C154_10 C 0.32544(19) 0.8782(2) 0.49851(14)
Co7_10 Co 0.621072(19) -0.0000 0.371072(19)
Co1_13 Co 0.621072(19) 0.7500 0.378928(19)
Co2_7 Co 0.74856(2) 0.8750 0.3750
N1_13 N 0.60606(10) 0.72680(9) 0.36292(10)
N2_12 N 0.74942(9) 0.87671(10) 0.40707(12)
N4_11 N 0.62499(10) 0.76656(10) 0.34928(11)
N5_11 N 0.67053(10) 0.81152(10) 0.34527(10)
N6_11 N 0.66003(10) 0.82081(10) 0.31148(9)
N7_11 N 0.68881(9) 0.83776(10) 0.32686(10)
N8_11 N 0.72547(10) 0.85074(10) 0.37752(10)
N9_8 N 0.77072(10) 0.90085(10) 0.37484(10)
N10_8 N 0.81390(11) 0.90591(12) 0.32814(11)
S1_13 S 0.58020(5) 0.70302(5) 0.33784(5)
S2_12 S 0.75441(7) 0.88144(15) 0.44939(7)
C1_13 C 0.59544(12) 0.71619(12) 0.35259(13)
C2_11 C 0.65982(12) 0.85166(11) 0.28098(12)
H1_11 H 0.6479 0.8435 0.2837
C3_11 C 0.67686(12) 0.84874(11) 0.29302(12)
C4_11 C 0.69518(16) 0.85983(15) 0.28888(14)
H2_11 H 0.7073 0.8581 0.2971
C5_11 C 0.69460(17) 0.87323(16) 0.27243(15)
H3_11 H 0.7067 0.8807 0.2687
C6_11 C 0.67686(16) 0.87596(14) 0.26137(15)
H4_11 H 0.6770 0.8857 0.2503
C7_11 C 0.61077(16) 0.76535(15) 0.33373(15)
H5_11 H 0.6001 0.7552 0.3346
C8_11 C 0.61135(17) 0.77810(16) 0.31723(17)
H6_11 H 0.6008 0.7772 0.3070
C9_11 C 0.62674(15) 0.79220(15) 0.31496(16)
H7_11 H 0.6271 0.8010 0.3031
C10_11 C 0.64199(13) 0.79374(12) 0.33005(13)
C11_11 C 0.64040(12) 0.78082(11) 0.34704(12)
H8_11 H 0.6505 0.7819 0.3577
C12_11 C 0.65855(12) 0.80959(11) 0.32875(12)
C13_11 C 0.67529(12) 0.83455(12) 0.31163(11)
C14_11 C 0.68565(12) 0.82615(12) 0.34330(12)
C15_11 C 0.72451(14) 0.83809(15) 0.39406(14)
H9_11 H 0.7337 0.8407 0.4053
C16_11 C 0.71110(15) 0.82164(15) 0.39574(15)
H10_11 H 0.7108 0.8133 0.4079
C17_11 C 0.69798(14) 0.81749(13) 0.37904(14)
H11_11 H 0.6885 0.8062 0.3797
C18_11 C 0.69881(12) 0.82949(12) 0.36196(13)
C19_11 C 0.71265(11) 0.84679(12) 0.36174(11)
H12_11 H 0.7127 0.8558 0.3500
C20_8 C 0.76834(14) 0.91623(15) 0.38835(16)
H13_8 H 0.7584 0.9146 0.3992
C21_8 C 0.77980(17) 0.93469(17) 0.3874(2)
H14_8 H 0.7771 0.9458 0.3967
C22_8 C 0.79515(16) 0.93620(15) 0.37250(16)
H15_8 H 0.8036 0.9482 0.3718
C23_8 C 0.79809(13) 0.92016(14) 0.35869(14)
C24_8 C 0.78528(12) 0.90262(12) 0.36069(13)
H16_8 H 0.7873 0.8914 0.3513
C25_8 C 0.81431(13) 0.92079(13) 0.34275(14)
C26_12 C 0.75149(14) 0.8782(2) 0.42456(19)
Co3_12 Co 0.628928(19) 0.878928(19) 0.5000
Co4_9 Co 0.5000 0.621072(19) 0.371072(19)
Co6_15 Co 0.7500 0.628928(19) 0.371072(19)
Co7_11 Co 0.621072(19) 1.0000 0.371072(19)
Co8_11 Co 0.7500 0.871072(19) 0.628928(19)
Co9_11 Co 0.50144(2) 0.8750 0.3750
Co10_13 Co 0.6250 0.6250 0.49856(2)
Co13_8 Co 0.6250 0.6250 0.25144(2)
Co14_6 Co 0.8750 0.74856(2) 0.3750
Co15_5 Co 0.8750 0.8750 0.50144(2)
Co16_6 Co 0.6250 0.99856(2) 0.6250
N11_13 N 0.63708(10) 0.77320(9) 0.39394(10)
N12_13 N 0.64394(10) 0.86292(10) 0.52320(9)
N13_13 N 0.61292(10) 0.89394(10) 0.47680(9)
N14_11 N 0.47680(9) 0.63708(10) 0.35606(10)
N15_11 N 0.52320(9) 0.60606(10) 0.38708(10)
N16_12 N 0.74942(9) 0.87329(10) 0.34293(12)
N17_11 N 0.50058(9) 0.90707(12) 0.37329(10)
N18_11 N 0.50058(9) 0.84293(12) 0.37671(10)
N19_13 N 0.62671(10) 0.59293(12) 0.49942(9)
N20_13 N 0.62329(10) 0.65707(12) 0.49942(9)
N21_13 N 0.59101(10) 0.76526(10) 0.38435(9)
N22_13 N 0.61565(9) 0.73474(10) 0.40899(10)
N23_11 N 0.73474(10) 0.63435(9) 0.34101(10)
N24_11 N 0.65899(10) 0.88435(9) 0.48474(10)
N25_11 N 0.63435(9) 0.90899(10) 0.51526(10)
N26_11 N 0.51526(10) 0.61565(9) 0.34101(10)
N27_8 N 0.48474(10) 0.59101(10) 0.36565(9)
N28_13 N 0.62501(10) 0.84928(11) 0.48344(10)
N29_11 N 0.51656(10) 0.65072(11) 0.37499(10)
N30_12 N 0.65072(11) 0.73344(10) 0.37501(10)
N31_11 N 0.62499(10) 0.98344(10) 0.40072(11)
N32_11 N 0.73344(10) 0.87499(10) 0.59928(11)
N33_13 N 0.59928(11) 0.87501(10) 0.51656(10)
N34_11 N 0.48344(10) 0.62499(10) 0.40072(11)
N35_13 N 0.57947(10) 0.84527(10) 0.43848(10)
N36_13 N 0.56152(10) 0.65473(10) 0.42053(10)
N37_12 N 0.65473(10) 0.68848(10) 0.32947(10)
N38_11 N 0.67053(10) 0.93848(10) 0.40473(10)
N39_11 N 0.68848(10) 0.92053(10) 0.59527(10)
N40_13 N 0.58997(10) 0.81148(9) 0.42919(10)
N41_13 N 0.57081(10) 0.68852(9) 0.41003(10)
N42_12 N 0.68852(9) 0.67919(10) 0.33997(10)
N43_11 N 0.66003(10) 0.92919(10) 0.43852(9)
N44_11 N 0.67919(10) 0.91003(10) 0.56148(9)
N45_13 N 0.56119(9) 0.82686(10) 0.41224(10)
N46_13 N 0.58776(10) 0.67314(10) 0.43881(9)
N47_12 N 0.67314(10) 0.66224(10) 0.31119(9)
N48_11 N 0.68881(9) 0.91224(10) 0.42314(10)
N49_11 N 0.66224(10) 0.93881(9) 0.57686(10)
N50_11 N 0.52453(10) 0.87752(10) 0.39926(10)
N51_13 N 0.60074(10) 0.62248(10) 0.47547(10)
N52_12 N 0.62248(10) 0.64926(10) 0.27453(10)
N53_11 N 0.72547(10) 0.89926(10) 0.37248(10)
N54_11 N 0.64926(10) 0.97547(10) 0.62752(10)
N55_11 N 0.52453(10) 0.87248(10) 0.35074(10)
N56_13 N 0.64926(10) 0.62752(10) 0.47547(10)
N57_8 N 0.87484(10) 0.97928(10) 0.34915(10)
N58_8 N 0.84915(10) 0.87516(10) 0.27072(10)
N59_8 N 0.77072(10) 0.84915(10) 0.37516(10)
N60_8 N 0.87484(10) 0.77072(10) 0.40085(10)
N61_8 N 0.84915(10) 0.87484(10) 0.47928(10)
N62_11 N 0.47928(10) 0.87484(10) 0.34915(10)
N63_11 N 0.47928(10) 0.87516(10) 0.40085(10)
N64_13 N 0.65085(10) 0.62516(10) 0.52072(10)
N65_13 N 0.59915(10) 0.62484(10) 0.52072(10)
N66_8 N 0.84409(12) 0.92186(11) 0.31390(11)
N67_8 N 0.82814(11) 0.93610(11) 0.34409(12)
N68_8 N 0.81390(11) 0.84409(12) 0.42186(11)
N69_8 N 0.84409(12) 0.82814(11) 0.43610(11)
N70_8 N 0.82814(11) 0.81390(11) 0.40591(12)
S3_13 S 0.66216(5) 0.79698(5) 0.41980(5)
S4_13 S 0.66980(5) 0.83784(5) 0.54698(5)
S5_13 S 0.58784(5) 0.91980(5) 0.45302(5)
S6_11 S 0.45302(5) 0.66216(5) 0.33020(5)
S7_11 S 0.54698(5) 0.58020(5) 0.41216(5)
S8_12 S 0.75441(7) 0.86856(15) 0.30061(7)
S9_11 S 0.49559(7) 0.94939(7) 0.36856(15)
S10_11 S 0.49559(7) 0.80061(7) 0.38144(15)
S11_13 S 0.63144(15) 0.55061(7) 0.50441(7)
S12_13 S 0.61856(15) 0.69939(7) 0.50441(7)
C27_13 C 0.64741(13) 0.78381(12) 0.40456(12)
C28_13 C 0.65456(12) 0.85259(13) 0.53381(12)
C29_13 C 0.60259(13) 0.90456(12) 0.46619(12)
C30_11 C 0.46619(12) 0.64741(13) 0.34544(12)
C31_11 C 0.53381(12) 0.59544(12) 0.39741(13)
C32_13 C 0.59018(12) 0.78098(12) 0.39834(11)
C33_13 C 0.60166(11) 0.71902(12) 0.40982(12)
C34_12 C 0.71902(12) 0.64834(11) 0.34018(12)
C35_11 C 0.65982(12) 0.89834(11) 0.46902(12)
C36_11 C 0.64834(11) 0.90982(12) 0.53098(12)
H17_13 H 0.6021 0.7837 0.4065
H18_13 H 0.5935 0.7163 0.3979
H19_12 H 0.7163 0.6565 0.3521
H20_11 H 0.6479 0.9065 0.4663
H21_11 H 0.6565 0.8979 0.5337
C37_13 C 0.57314(12) 0.79302(12) 0.40126(11)
C38_13 C 0.59874(11) 0.70698(12) 0.42686(12)
C39_12 C 0.70698(12) 0.65126(11) 0.32314(12)
C40_11 C 0.67686(12) 0.90126(11) 0.45698(12)
C41_11 C 0.65126(11) 0.92686(12) 0.54302(12)
C42_13 C 0.55482(16) 0.78888(14) 0.39017(15)
C43_13 C 0.60983(15) 0.71112(14) 0.44518(16)
C44_12 C 0.71112(14) 0.64017(15) 0.30482(16)
C45_11 C 0.69518(16) 0.89017(15) 0.46112(14)
C46_11 C 0.64017(15) 0.94518(16) 0.53888(14)
H22_13 H 0.5427 0.7971 0.3919
H23_13 H 0.6081 0.7029 0.4573
H24_12 H 0.7029 0.6419 0.2927
H25_11 H 0.7073 0.8919 0.4529
H26_11 H 0.6419 0.9573 0.5471
C47_13 C 0.55540(17) 0.77243(15) 0.37677(16)
C48_13 C 0.62323(16) 0.72757(15) 0.44460(17)
C49_12 C 0.72757(15) 0.62677(16) 0.30540(17)
C50_11 C 0.69460(17) 0.87677(16) 0.47757(15)
C51_11 C 0.62677(16) 0.94460(17) 0.52243(15)
H27_13 H 0.5433 0.7687 0.3693
H28_13 H 0.6307 0.7313 0.4567
H29_12 H 0.7313 0.6193 0.2933
H30_11 H 0.7067 0.8693 0.4813
H31_11 H 0.6193 0.9567 0.5187
C52_13 C 0.57314(16) 0.76137(15) 0.37404(14)
C53_13 C 0.62596(14) 0.73863(15) 0.42686(16)
C54_12 C 0.73863(15) 0.62404(14) 0.32314(16)
C55_11 C 0.67686(16) 0.87404(14) 0.48863(15)
C56_11 C 0.62404(14) 0.92686(16) 0.51137(15)
H32_13 H 0.5730 0.7503 0.3643
H33_13 H 0.6357 0.7497 0.4270
H34_12 H 0.7497 0.6143 0.3230
H35_11 H 0.6770 0.8643 0.4997
H36_11 H 0.6143 0.9270 0.5003
C57_13 C 0.63923(16) 0.83373(15) 0.48465(15)
C58_13 C 0.51535(15) 0.66627(15) 0.36077(16)
C59_12 C 0.66627(15) 0.73465(15) 0.38923(16)
C60_11 C 0.61077(16) 0.98465(15) 0.41627(15)
C61_11 C 0.73465(15) 0.86077(16) 0.58373(15)
H37_13 H 0.6499 0.8346 0.4948
H38_13 H 0.5052 0.6654 0.3501
H39_12 H 0.6654 0.7448 0.3999
H40_11 H 0.6001 0.9948 0.4154
H41_11 H 0.7448 0.8501 0.5846
C62_13 C 0.63865(17) 0.81723(17) 0.47190(16)
C63_13 C 0.52810(16) 0.68277(17) 0.36135(17)
C64_12 C 0.68277(17) 0.72190(16) 0.38865(17)
C65_11 C 0.61135(17) 0.97190(16) 0.43277(17)
C66_11 C 0.72190(16) 0.86135(17) 0.56723(17)
H42_13 H 0.6492 0.8070 0.4728
H43_13 H 0.5272 0.6930 0.3508
H44_12 H 0.6930 0.7228 0.3992
H45_11 H 0.6008 0.9728 0.4430
H46_11 H 0.7228 0.8508 0.5570
C67_13 C 0.62326(15) 0.81496(16) 0.45780(15)
C68_13 C 0.54220(15) 0.68504(16) 0.37674(15)
C69_12 C 0.68504(16) 0.70780(15) 0.37326(15)
C70_11 C 0.62674(15) 0.95780(15) 0.43504(16)
C71_11 C 0.70780(15) 0.87674(15) 0.56496(16)
H47_13 H 0.6229 0.8031 0.4490
H48_13 H 0.5510 0.6969 0.3771
H49_12 H 0.6969 0.6990 0.3729
H50_11 H 0.6271 0.9490 0.4469
H51_11 H 0.6990 0.8771 0.5531
C72_13 C 0.60801(13) 0.83005(13) 0.45626(12)
C73_13 C 0.54374(12) 0.66995(13) 0.39199(13)
C74_12 C 0.66995(13) 0.70626(12) 0.35801(13)
C75_11 C 0.64199(13) 0.95626(12) 0.41995(13)
C76_11 C 0.70626(12) 0.89199(13) 0.58005(13)
C77_13 C 0.60960(12) 0.84704(12) 0.46918(11)
C78_13 C 0.53082(11) 0.65296(12) 0.39040(12)
C79_12 C 0.65296(12) 0.71918(11) 0.35960(12)
C80_11 C 0.64040(12) 0.96918(11) 0.40296(12)
C81_11 C 0.71918(11) 0.89040(12) 0.59704(12)
H52_13 H 0.5995 0.8577 0.4681
H53_13 H 0.5319 0.6423 0.4005
H54_12 H 0.6423 0.7181 0.3495
H55_11 H 0.6505 0.9681 0.3923
H56_11 H 0.7181 0.9005 0.6077
C82_13 C 0.59145(12) 0.82875(12) 0.44041(11)
C83_13 C 0.55959(11) 0.67125(12) 0.40855(12)
C84_12 C 0.67125(12) 0.69041(11) 0.34145(12)
C85_11 C 0.65855(12) 0.94041(11) 0.42125(12)
C86_11 C 0.69041(11) 0.90855(12) 0.57875(12)
C87_13 C 0.57471(12) 0.81163(11) 0.41545(12)
C88_13 C 0.58455(12) 0.68837(11) 0.42529(12)
C89_12 C 0.68837(11) 0.66545(12) 0.32471(12)
C90_11 C 0.67529(12) 0.91545(12) 0.43837(11)
C91_11 C 0.66545(12) 0.92529(12) 0.56163(11)
C92_13 C 0.56435(12) 0.84330(12) 0.42385(12)
C93_13 C 0.57615(12) 0.65670(12) 0.43565(12)
C94_12 C 0.65670(12) 0.67385(12) 0.31435(12)
C95_11 C 0.68565(12) 0.92385(12) 0.40670(12)
C96_11 C 0.67385(12) 0.93565(12) 0.59330(12)
C97_13 C 0.52549(14) 0.89406(14) 0.41191(15)
C98_13 C 0.58809(15) 0.60594(14) 0.47451(14)
C99_12 C 0.60594(14) 0.66191(15) 0.27549(14)
C100_11 C 0.72451(14) 0.91191(15) 0.35594(14)
C101_11 C 0.66191(15) 0.97451(14) 0.64406(14)
H57_13 H 0.5163 0.9053 0.4093
H58_13 H 0.5907 0.5947 0.4837
H59_12 H 0.5947 0.6593 0.2663
H60_11 H 0.7337 0.9093 0.3447
H61_11 H 0.6593 0.9837 0.6553
C102_13 C 0.53890(15) 0.89574(15) 0.42836(15)
C103_13 C 0.57164(15) 0.60426(15) 0.46110(15)
C104_12 C 0.60426(15) 0.67836(15) 0.28890(15)
C105_11 C 0.71110(15) 0.92836(15) 0.35426(15)
C106_11 C 0.67836(15) 0.96110(15) 0.64574(15)
H62_13 H 0.5392 0.9079 0.4367
H63_13 H 0.5633 0.5921 0.4608
H64_12 H 0.5921 0.6867 0.2892
H65_11 H 0.7108 0.9367 0.3421
H66_11 H 0.6867 0.9608 0.6579
C107_13 C 0.55202(14) 0.87904(14) 0.43251(13)
C108_13 C 0.56749(13) 0.62096(14) 0.44798(14)
C109_12 C 0.62096(14) 0.68251(13) 0.30202(14)
C110_11 C 0.69798(14) 0.93251(13) 0.37096(14)
C111_11 C 0.68251(13) 0.94798(14) 0.62904(14)
H67_13 H 0.5615 0.8797 0.4438
H68_13 H 0.5562 0.6203 0.4385
H69_12 H 0.6203 0.6938 0.3115
H70_11 H 0.6885 0.9438 0.3703
H71_11 H 0.6938 0.9385 0.6297
C112_13 C 0.55119(12) 0.86196(13) 0.42051(12)
C113_13 C 0.57949(12) 0.63804(13) 0.44881(12)
C114_12 C 0.63804(13) 0.67051(12) 0.30119(12)
C115_11 C 0.69881(12) 0.92051(12) 0.38804(13)
C116_11 C 0.67051(12) 0.94881(12) 0.61196(13)
C117_13 C 0.53735(11) 0.86174(11) 0.40321(12)
C118_13 C 0.59679(12) 0.63826(11) 0.46265(11)
C119_12 C 0.63826(11) 0.65321(12) 0.28735(11)
C120_11 C 0.71265(11) 0.90321(12) 0.38826(11)
C121_11 C 0.65321(12) 0.96265(11) 0.61174(11)
H72_13 H 0.5373 0.8500 0.3942
H73_13 H 0.6058 0.6500 0.4627
H74_12 H 0.6500 0.6442 0.2873
H75_11 H 0.7127 0.8942 0.4000
H76_11 H 0.6442 0.9627 0.6000
C122_8 C 0.88835(16) 0.98166(14) 0.33377(15)
C123_8 C 0.83377(15) 0.86165(16) 0.26834(14)
C124_8 C 0.76834(14) 0.83377(15) 0.36165(16)
C125_8 C 0.88835(16) 0.76834(14) 0.41623(15)
C126_8 C 0.83377(15) 0.88835(16) 0.48166(14)
H77_8 H 0.8992 0.9916 0.3354
H78_8 H 0.8354 0.8508 0.2584
H79_8 H 0.7584 0.8354 0.3508
H80_8 H 0.8992 0.7584 0.4146
H81_8 H 0.8354 0.8992 0.4916
C127_8 C 0.8874(2) 0.97020(17) 0.31531(17)
C128_8 C 0.81531(17) 0.8626(2) 0.27980(17)
C129_8 C 0.77980(17) 0.81531(17) 0.3626(2)
C130_8 C 0.8874(2) 0.77980(17) 0.43469(17)
C131_8 C 0.81531(17) 0.8874(2) 0.47020(17)
H82_8 H 0.8967 0.9729 0.3042
H83_8 H 0.8042 0.8533 0.2771
H84_8 H 0.7771 0.8042 0.3533
H85_8 H 0.8967 0.7771 0.4458
H86_8 H 0.8042 0.8967 0.4729
C132_8 C 0.87250(16) 0.95485(16) 0.31380(15)
C133_8 C 0.81380(15) 0.87750(16) 0.29515(16)
C134_8 C 0.79515(16) 0.81380(15) 0.37750(16)
C135_8 C 0.87250(16) 0.79515(16) 0.43620(15)
C136_8 C 0.81380(15) 0.87250(16) 0.45485(16)
H87_8 H 0.8718 0.9464 0.3018
H88_8 H 0.8018 0.8782 0.3036
H89_8 H 0.8036 0.8018 0.3782
H90_8 H 0.8718 0.8036 0.4482
H91_8 H 0.8018 0.8718 0.4464
C137_8 C 0.85869(14) 0.95191(13) 0.32984(14)
C138_8 C 0.82984(14) 0.89131(14) 0.29809(13)
C139_8 C 0.79809(13) 0.82984(14) 0.39131(14)
C140_8 C 0.85869(14) 0.79809(13) 0.42016(14)
C141_8 C 0.82984(14) 0.85869(14) 0.45191(13)
C142_8 C 0.86069(13) 0.96472(12) 0.34738(12)
C143_8 C 0.84738(12) 0.88931(13) 0.28528(12)
C144_8 C 0.78528(12) 0.84738(12) 0.38931(13)
C145_8 C 0.86069(13) 0.78528(12) 0.40262(12)
C146_8 C 0.84738(12) 0.86069(13) 0.46472(12)
H92_8 H 0.8513 0.9627 0.3586
H93_8 H 0.8586 0.8987 0.2873
H94_8 H 0.7873 0.8586 0.3987
H95_8 H 0.8513 0.7873 0.3914
H96_8 H 0.8586 0.8513 0.4627
C147_8 C 0.82921(13) 0.90725(14) 0.31431(13)
C148_8 C 0.84275(14) 0.93569(13) 0.32921(13)
C149_8 C 0.81431(13) 0.82921(13) 0.40725(14)
C150_8 C 0.82921(13) 0.84275(14) 0.43569(13)
C151_8 C 0.84275(14) 0.81431(13) 0.42079(13)
C152_12 C 0.75149(14) 0.8718(2) 0.32544(19)
C153_11 C 0.49851(14) 0.92456(19) 0.3718(2)
C154_11 C 0.49851(14) 0.82544(19) 0.3782(2)
C155_13 C 0.6282(2) 0.57544(19) 0.50149(14)
C156_13 C 0.6218(2) 0.67456(19) 0.50149(14)
N2_13 N 0.25058(9) 0.15707(12) 0.12671(10)
S2_13 S 0.24559(7) 0.19939(7) 0.13144(15)
C26_13 C 0.24851(14) 0.17456(19) 0.1282(2)
Co9_12 Co 0.49856(2) 0.1250 0.1250
N11_14 N 0.36292(10) 0.14394(10) 0.02320(9)
N16_13 N 0.25058(9) 0.09293(12) 0.12329(10)
N17_12 N 0.49942(9) 0.12329(10) 0.15707(12)
N18_12 N 0.49942(9) 0.12671(10) 0.09293(12)
N21_14 N 0.40899(10) 0.13435(9) 0.01526(10)
N35_14 N 0.42053(10) 0.18848(10) 0.09527(10)
N40_14 N 0.41003(10) 0.17919(10) 0.06148(9)
N45_14 N 0.43881(9) 0.16224(10) 0.07686(10)
N50_12 N 0.47547(10) 0.14926(10) 0.12752(10)
N55_12 N 0.47547(10) 0.10074(10) 0.12248(10)
N62_12 N 0.52072(10) 0.09915(10) 0.12484(10)
N63_12 N 0.52072(10) 0.15085(10) 0.12516(10)
S3_14 S 0.33784(5) 0.16980(5) 0.04698(5)
S8_13 S 0.24559(7) 0.05061(7) 0.11856(15)
S9_12 S 0.50441(7) 0.11856(15) 0.19939(7)
S10_12 S 0.50441(7) 0.13144(15) 0.05061(7)
C27_14 C 0.35259(13) 0.15456(12) 0.03381(12)
C32_14 C 0.40982(12) 0.14834(11) 0.03098(12)
H17_14 H 0.3979 0.1565 0.0337
C37_14 C 0.42686(12) 0.15126(11) 0.04302(12)
C42_14 C 0.44518(16) 0.14017(15) 0.03888(14)
H22_14 H 0.4573 0.1419 0.0471
C47_14 C 0.44460(17) 0.12677(16) 0.02243(15)
H27_14 H 0.4567 0.1193 0.0187
C52_14 C 0.42686(16) 0.12404(14) 0.01137(15)
H32_14 H 0.4270 0.1143 0.0003
C57_14 C 0.36077(16) 0.23465(15) 0.08373(15)
H37_14 H 0.3501 0.2448 0.0846
C62_14 C 0.36135(17) 0.22190(16) 0.06723(17)
H42_14 H 0.3508 0.2228 0.0570
C67_14 C 0.37674(15) 0.20780(15) 0.06496(16)
H47_14 H 0.3771 0.1990 0.0531
C72_14 C 0.39199(13) 0.20626(12) 0.08005(13)
C77_14 C 0.39040(12) 0.21918(11) 0.09704(12)
H52_14 H 0.4005 0.2181 0.1077
C82_14 C 0.40855(12) 0.19041(11) 0.07875(12)
C87_14 C 0.42529(12) 0.16545(12) 0.06163(11)
C92_14 C 0.43565(12) 0.17385(12) 0.09330(12)
C97_14 C 0.47451(14) 0.16191(15) 0.14406(14)
H57_14 H 0.4837 0.1593 0.1553
C102_14 C 0.46110(15) 0.17836(15) 0.14574(15)
H62_14 H 0.4608 0.1867 0.1579
C107_14 C 0.44798(14) 0.18251(13) 0.12904(14)
H67_14 H 0.4385 0.1938 0.1297
C112_14 C 0.44881(12) 0.17051(12) 0.11196(13)
C117_14 C 0.46265(11) 0.15321(12) 0.11174(11)
H72_14 H 0.4627 0.1442 0.1000
C152_13 C 0.24851(14) 0.07544(19) 0.1218(2)
C153_12 C 0.50149(14) 0.1218(2) 0.17456(19)
C154_12 C 0.50149(14) 0.1282(2) 0.07544(19)
N1_14 N 0.39394(10) 0.11292(10) 0.97680(9)
S1_14 S 0.41980(5) 0.08784(5) 0.95302(5)
C1_14 C 0.40456(12) 0.10259(13) 0.96619(12)
N14_12 N 0.52320(9) 0.10606(10) 0.88708(10)
N15_12 N 0.47680(9) 0.13708(10) 0.85606(10)
N22_14 N 0.38435(9) 0.15899(10) 0.98474(10)
N27_9 N 0.51526(10) 0.11565(9) 0.84101(10)
N29_12 N 0.48344(10) 0.12499(10) 0.90072(11)
N34_12 N 0.51656(10) 0.15072(11) 0.87499(10)
N36_14 N 0.43848(10) 0.17053(10) 0.90473(10)
N41_14 N 0.42919(10) 0.16003(10) 0.93852(9)
N46_14 N 0.41224(10) 0.18881(9) 0.92314(10)
S6_12 S 0.54698(5) 0.08020(5) 0.91216(5)
S7_12 S 0.45302(5) 0.16216(5) 0.83020(5)
C30_12 C 0.53381(12) 0.09544(12) 0.89741(13)
C31_12 C 0.46619(12) 0.14741(13) 0.84544(12)
C33_14 C 0.39834(11) 0.15982(12) 0.96902(12)
H18_14 H 0.4065 0.1479 0.9663
C38_14 C 0.40126(11) 0.17686(12) 0.95698(12)
C43_14 C 0.39017(15) 0.19518(16) 0.96112(14)
H23_14 H 0.3919 0.2073 0.9529
C48_14 C 0.37677(16) 0.19460(17) 0.97757(15)
H28_14 H 0.3693 0.2067 0.9813
C53_14 C 0.37404(14) 0.17686(16) 0.98863(15)
H33_14 H 0.3643 0.1770 0.9997
C58_14 C 0.48465(15) 0.11077(16) 0.91627(15)
H38_14 H 0.4948 0.1001 0.9154
C63_14 C 0.47190(16) 0.11135(17) 0.93277(17)
H43_14 H 0.4728 0.1008 0.9430
C68_14 C 0.45780(15) 0.12674(15) 0.93504(16)
H48_14 H 0.4490 0.1271 0.9469
C73_14 C 0.45626(12) 0.14199(13) 0.91995(13)
C78_14 C 0.46918(11) 0.14040(12) 0.90296(12)
H53_14 H 0.4681 0.1505 0.8923
C83_14 C 0.44041(11) 0.15855(12) 0.92125(12)
C88_14 C 0.41545(12) 0.17529(12) 0.93837(11)
C93_14 C 0.42385(12) 0.18565(12) 0.90670(12)
C98_14 C 0.41191(15) 0.22451(14) 0.85594(14)
H58_14 H 0.4093 0.2337 0.8447
C103_14 C 0.42836(15) 0.21110(15) 0.85426(15)
H63_14 H 0.4367 0.2108 0.8421
C108_14 C 0.43251(13) 0.19798(14) 0.87096(14)
H68_14 H 0.4438 0.1885 0.8703
C113_14 C 0.42051(12) 0.19881(12) 0.88804(13)
C118_14 C 0.40321(12) 0.21265(11) 0.88826(11)
H73_14 H 0.3942 0.2127 0.9000
N14_13 N 0.14394(10) 0.86292(10) 0.02320(9)
N34_13 N 0.09928(11) 0.87501(10) 0.01656(10)
S6_13 S 0.16980(5) 0.83784(5) 0.04698(5)
C30_13 C 0.15456(12) 0.85259(13) 0.03381(12)
N1_15 N 0.13708(10) 0.77320(9) 0.89394(10)
N2_14 N 0.09293(12) 0.62329(10) 0.75058(9)
N9_9 N 0.12516(10) 0.59915(10) 0.72928(10)
N10_9 N 0.17186(11) 0.59409(12) 0.68610(11)
S1_15 S 0.16216(5) 0.79698(5) 0.91980(5)
S2_14 S 0.05061(7) 0.61856(15) 0.74559(7)
C1_15 C 0.14741(13) 0.78381(12) 0.90456(12)
C20_9 C 0.11165(16) 0.58377(15) 0.73166(14)
H13_9 H 0.1008 0.5854 0.7416
C21_9 C 0.1126(2) 0.56531(17) 0.72020(17)
H14_9 H 0.1033 0.5542 0.7229
C22_9 C 0.12750(16) 0.56380(15) 0.70485(16)
H15_9 H 0.1282 0.5518 0.6964
C23_9 C 0.14131(14) 0.57984(14) 0.70191(13)
C24_9 C 0.13931(13) 0.59738(12) 0.71472(12)
H16_9 H 0.1487 0.6086 0.7127
C25_9 C 0.15725(14) 0.57921(13) 0.68569(13)
C26_14 C 0.07544(19) 0.6218(2) 0.74851(14)
Co11_4 Co 0.1250 0.49856(2) 0.6250
Co12_5 Co 0.25144(2) 0.6250 0.6250
N11_15 N 0.10606(10) 0.72680(9) 0.86292(10)
N13_14 N 0.02320(9) 0.60606(10) 0.88708(10)
N15_13 N 0.11292(10) 0.89394(10) 0.97680(9)
N16_14 N 0.15707(12) 0.62671(10) 0.75058(9)
N21_15 N 0.11565(9) 0.73474(10) 0.90899(10)
N22_15 N 0.09101(10) 0.76526(10) 0.88435(9)
N28_14 N 0.01656(10) 0.65072(11) 0.87499(10)
N29_13 N 0.12501(10) 0.84928(11) 0.98344(10)
N30_13 N 0.12499(10) 0.76656(10) 0.84928(11)
N35_15 N 0.06152(10) 0.65473(10) 0.92053(10)
N36_15 N 0.07947(10) 0.84527(10) 0.93848(10)
N37_13 N 0.17053(10) 0.81152(10) 0.84527(10)
N40_15 N 0.07081(10) 0.68852(9) 0.91003(10)
N41_15 N 0.08997(10) 0.81148(9) 0.92919(10)
N42_13 N 0.16003(10) 0.82081(10) 0.81148(9)
N45_15 N 0.08776(10) 0.67314(10) 0.93881(9)
N46_15 N 0.06119(9) 0.82686(10) 0.91224(10)
N47_13 N 0.18881(9) 0.83776(10) 0.82686(10)
N52_13 N 0.22547(10) 0.85074(10) 0.87752(10)
N57_9 N 0.15085(10) 0.52072(10) 0.62516(10)
N58_9 N 0.22928(10) 0.62484(10) 0.65085(10)
N59_9 N 0.12484(10) 0.65085(10) 0.72928(10)
N60_9 N 0.09915(10) 0.72928(10) 0.62516(10)
N61_9 N 0.02072(10) 0.62516(10) 0.65085(10)
N66_9 N 0.18610(11) 0.57814(11) 0.65591(12)
N67_9 N 0.15591(12) 0.56390(11) 0.67186(11)
N68_9 N 0.07814(11) 0.65591(12) 0.68610(11)
N69_9 N 0.06390(11) 0.67186(11) 0.65591(12)
N70_9 N 0.09409(12) 0.68610(11) 0.67186(11)
S3_15 S 0.08020(5) 0.70302(5) 0.83784(5)
S5_14 S 0.04698(5) 0.58020(5) 0.91216(5)
S7_13 S 0.08784(5) 0.91980(5) 0.95302(5)
S8_14 S 0.19939(7) 0.63144(15) 0.74559(7)
C27_15 C 0.09544(12) 0.71619(12) 0.85259(13)
C29_14 C 0.03381(12) 0.59544(12) 0.89741(13)
C31_13 C 0.10259(13) 0.90456(12) 0.96619(12)
C32_15 C 0.10166(11) 0.71902(12) 0.90982(12)
C33_15 C 0.09018(12) 0.78098(12) 0.89834(11)
C34_13 C 0.15982(12) 0.85166(11) 0.78098(12)
H17_15 H 0.0935 0.7163 0.8979
H18_15 H 0.1021 0.7837 0.9065
H19_13 H 0.1479 0.8435 0.7837
C37_15 C 0.09874(11) 0.70698(12) 0.92686(12)
C38_15 C 0.07314(12) 0.79302(12) 0.90126(11)
C39_13 C 0.17686(12) 0.84874(11) 0.79302(12)
C42_15 C 0.10983(15) 0.71112(14) 0.94518(16)
C43_15 C 0.05482(16) 0.78888(14) 0.89017(15)
C44_13 C 0.19518(16) 0.85983(15) 0.78888(14)
H22_15 H 0.1081 0.7029 0.9573
H23_15 H 0.0427 0.7971 0.8919
H24_13 H 0.2073 0.8581 0.7971
C47_15 C 0.12323(16) 0.72757(15) 0.94460(17)
C48_15 C 0.05540(17) 0.77243(15) 0.87677(16)
C49_13 C 0.19460(17) 0.87323(16) 0.77243(15)
H27_15 H 0.1307 0.7313 0.9567
H28_15 H 0.0433 0.7687 0.8693
H29_13 H 0.2067 0.8807 0.7687
C52_15 C 0.12596(14) 0.73863(15) 0.92686(16)
C53_15 C 0.07314(16) 0.76137(15) 0.87404(14)
C54_13 C 0.17686(16) 0.87596(14) 0.76137(15)
H32_15 H 0.1357 0.7497 0.9270
H33_15 H 0.0730 0.7503 0.8643
H34_13 H 0.1770 0.8857 0.7503
C57_15 C 0.01535(15) 0.66627(15) 0.86077(16)
C58_15 C 0.13923(16) 0.83373(15) 0.98465(15)
C59_13 C 0.11077(16) 0.76535(15) 0.83373(15)
H37_15 H 0.0052 0.6654 0.8501
H38_15 H 0.1499 0.8346 0.9948
H39_13 H 0.1001 0.7552 0.8346
C62_15 C 0.02810(16) 0.68277(17) 0.86135(17)
C63_15 C 0.13865(17) 0.81723(17) 0.97190(16)
C64_13 C 0.11135(17) 0.77810(16) 0.81723(17)
H42_15 H 0.0272 0.6930 0.8508
H43_15 H 0.1492 0.8070 0.9728
H44_13 H 0.1008 0.7772 0.8070
C67_15 C 0.04220(15) 0.68504(16) 0.87674(15)
C68_15 C 0.12326(15) 0.81496(16) 0.95780(15)
C69_13 C 0.12674(15) 0.79220(15) 0.81496(16)
H47_15 H 0.0510 0.6969 0.8771
H48_15 H 0.1229 0.8031 0.9490
H49_13 H 0.1271 0.8010 0.8031
C72_15 C 0.04374(12) 0.66995(13) 0.89199(13)
C73_15 C 0.10801(13) 0.83005(13) 0.95626(12)
C74_13 C 0.14199(13) 0.79374(12) 0.83005(13)
C77_15 C 0.03082(11) 0.65296(12) 0.89040(12)
C78_15 C 0.10960(12) 0.84704(12) 0.96918(11)
C79_13 C 0.14040(12) 0.78082(11) 0.84704(12)
H52_15 H 0.0319 0.6423 0.9005
H53_15 H 0.0995 0.8577 0.9681
H54_13 H 0.1505 0.7819 0.8577
C82_15 C 0.05959(11) 0.67125(12) 0.90855(12)
C83_15 C 0.09145(12) 0.82875(12) 0.94041(11)
C84_13 C 0.15855(12) 0.80959(11) 0.82875(12)
C87_15 C 0.08455(12) 0.68837(11) 0.92529(12)
C88_15 C 0.07471(12) 0.81163(11) 0.91545(12)
C89_13 C 0.17529(12) 0.83455(12) 0.81163(11)
C92_15 C 0.07615(12) 0.65670(12) 0.93565(12)
C93_15 C 0.06435(12) 0.84330(12) 0.92385(12)
C94_13 C 0.18565(12) 0.82615(12) 0.84330(12)
C97_15 C 0.08809(15) 0.60594(14) 0.97451(14)
C98_15 C 0.02549(14) 0.89406(14) 0.91191(15)
C99_13 C 0.22451(14) 0.83809(15) 0.89406(14)
H57_15 H 0.0907 0.5947 0.9837
H58_15 H 0.0163 0.9053 0.9093
H59_13 H 0.2337 0.8407 0.9053
C102_15 C 0.07164(15) 0.60426(15) 0.96110(15)
C103_15 C 0.03890(15) 0.89574(15) 0.92836(15)
C104_13 C 0.21110(15) 0.82164(15) 0.89574(15)
H62_15 H 0.0633 0.5921 0.9608
H63_15 H 0.0392 0.9079 0.9367
H64_13 H 0.2108 0.8133 0.9079
C107_15 C 0.06749(13) 0.62096(14) 0.94798(14)
C108_15 C 0.05202(14) 0.87904(14) 0.93251(13)
C109_13 C 0.19798(14) 0.81749(13) 0.87904(14)
H67_15 H 0.0562 0.6203 0.9385
H68_15 H 0.0615 0.8797 0.9438
H69_13 H 0.1885 0.8062 0.8797
C112_15 C 0.07949(12) 0.63804(13) 0.94881(12)
C113_15 C 0.05119(12) 0.86196(13) 0.92051(12)
C114_13 C 0.19881(12) 0.82949(12) 0.86196(13)
C117_15 C 0.09679(12) 0.63826(11) 0.96265(11)
C118_15 C 0.03735(11) 0.86174(11) 0.90321(12)
C119_13 C 0.21265(11) 0.84679(12) 0.86174(11)
H72_15 H 0.1058 0.6500 0.9627
H73_15 H 0.0373 0.8500 0.8942
H74_13 H 0.2127 0.8558 0.8500
C122_9 C 0.16623(15) 0.51834(14) 0.61165(16)
C123_9 C 0.23166(14) 0.63835(16) 0.66623(15)
C124_9 C 0.13835(16) 0.66623(15) 0.73166(14)
C125_9 C 0.08377(15) 0.73166(14) 0.61165(16)
C126_9 C 0.01834(14) 0.61165(16) 0.66623(15)
H77_9 H 0.1646 0.5084 0.6008
H78_9 H 0.2416 0.6492 0.6646
H79_9 H 0.1492 0.6646 0.7416
H80_9 H 0.0854 0.7416 0.6008
H81_9 H 0.0084 0.6008 0.6646
C127_9 C 0.18469(17) 0.52980(17) 0.6126(2)
C128_9 C 0.22020(17) 0.6374(2) 0.68469(17)
C129_9 C 0.1374(2) 0.68469(17) 0.72020(17)
C130_9 C 0.06531(17) 0.72020(17) 0.6126(2)
C131_9 C 0.02980(17) 0.6126(2) 0.68469(17)
H82_9 H 0.1958 0.5271 0.6033
H83_9 H 0.2229 0.6467 0.6958
H84_9 H 0.1467 0.6958 0.7229
H85_9 H 0.0542 0.7229 0.6033
H86_9 H 0.0271 0.6033 0.6958
C132_9 C 0.18620(15) 0.54515(16) 0.62750(16)
C133_9 C 0.20485(16) 0.62250(16) 0.68620(15)
C134_9 C 0.12250(16) 0.68620(15) 0.70485(16)
C135_9 C 0.06380(15) 0.70485(16) 0.62750(16)
C136_9 C 0.04515(16) 0.62750(16) 0.68620(15)
H87_9 H 0.1982 0.5536 0.6282
H88_9 H 0.1964 0.6218 0.6982
H89_9 H 0.1218 0.6982 0.6964
H90_9 H 0.0518 0.6964 0.6282
H91_9 H 0.0536 0.6282 0.6982
C137_9 C 0.17016(14) 0.54809(13) 0.64131(14)
C138_9 C 0.20191(13) 0.60869(14) 0.67016(14)
C139_9 C 0.10869(14) 0.67016(14) 0.70191(13)
C140_9 C 0.07984(14) 0.70191(13) 0.64131(14)
C141_9 C 0.04809(13) 0.64131(14) 0.67016(14)
C142_9 C 0.15262(12) 0.53528(12) 0.63931(13)
C143_9 C 0.21472(12) 0.61069(13) 0.65262(12)
C144_9 C 0.11069(13) 0.65262(12) 0.71472(12)
C145_9 C 0.09738(12) 0.71472(12) 0.63931(13)
C146_9 C 0.03528(12) 0.63931(13) 0.65262(12)
H92_9 H 0.1414 0.5373 0.6487
H93_9 H 0.2127 0.6013 0.6414
H94_9 H 0.1013 0.6414 0.7127
H95_9 H 0.1086 0.7127 0.6487
H96_9 H 0.0373 0.6487 0.6414
C147_9 C 0.18569(13) 0.59275(14) 0.67079(13)
C148_9 C 0.17079(13) 0.56431(13) 0.65725(14)
C149_9 C 0.09275(14) 0.67079(13) 0.68569(13)
C150_9 C 0.06431(13) 0.65725(14) 0.67079(13)
C151_9 C 0.07921(13) 0.68569(13) 0.65725(14)
C152_14 C 0.17456(19) 0.6282(2) 0.74851(14)
Co8_12 Co 0.871072(19) 0.628928(19) 0.7500
Co15_6 Co 0.99856(2) 0.6250 0.6250
N12_14 N 0.97680(9) 0.63708(10) 0.85606(10)
N25_12 N 0.98474(10) 0.59101(10) 0.86565(9)
N32_12 N 0.90072(11) 0.62501(10) 0.76656(10)
N33_14 N 0.98344(10) 0.62499(10) 0.90072(11)
N39_12 N 0.90473(10) 0.57947(10) 0.81152(10)
N44_12 N 0.93852(9) 0.58997(10) 0.82081(10)
N49_12 N 0.92314(10) 0.56119(9) 0.83776(10)
N54_12 N 0.87248(10) 0.52453(10) 0.85074(10)
S4_14 S 0.95302(5) 0.66216(5) 0.83020(5)
C28_14 C 0.96619(12) 0.64741(13) 0.84544(12)
C36_12 C 0.96902(12) 0.59018(12) 0.85166(11)
H21_12 H 0.9663 0.6021 0.8435
C41_12 C 0.95698(12) 0.57314(12) 0.84874(11)
C46_12 C 0.96112(14) 0.55482(16) 0.85983(15)
H26_12 H 0.9529 0.5427 0.8581
C51_12 C 0.97757(15) 0.55540(17) 0.87323(16)
H31_12 H 0.9813 0.5433 0.8807
C56_12 C 0.98863(15) 0.57314(16) 0.87596(14)
H36_12 H 0.9997 0.5730 0.8857
C61_12 C 0.91627(15) 0.63923(16) 0.76535(15)
H41_12 H 0.9154 0.6499 0.7552
C66_12 C 0.93277(17) 0.63865(17) 0.77810(16)
H46_12 H 0.9430 0.6492 0.7772
C71_12 C 0.93504(16) 0.62326(15) 0.79220(15)
H51_12 H 0.9469 0.6229 0.8010
C76_12 C 0.91995(13) 0.60801(13) 0.79374(12)
C81_12 C 0.90296(12) 0.60960(12) 0.78082(11)
H56_12 H 0.8923 0.5995 0.7819
C86_12 C 0.92125(12) 0.59145(12) 0.80959(11)
C91_12 C 0.93837(11) 0.57471(12) 0.83455(12)
C96_12 C 0.90670(12) 0.56435(12) 0.82615(12)
C101_12 C 0.85594(14) 0.52549(14) 0.83809(15)
H61_12 H 0.8447 0.5163 0.8407
C106_12 C 0.85426(15) 0.53890(15) 0.82164(15)
H66_12 H 0.8421 0.5392 0.8133
C111_12 C 0.87096(14) 0.55202(14) 0.81749(13)
H71_12 H 0.8703 0.5615 0.8062
C116_12 C 0.88804(13) 0.55119(12) 0.82949(12)
C121_12 C 0.88826(11) 0.53735(11) 0.84679(12)
H76_12 H 0.9000 0.5373 0.8558
N1_16 N 0.52320(9) 0.88708(10) 0.60606(10)
S1_16 S 0.54698(5) 0.91216(5) 0.58020(5)
C1_16 C 0.53381(12) 0.89741(13) 0.59544(12)
Co6_16 Co 0.621072(19) 0.878928(19) 0.7500
Co10_14 Co 0.6250 0.75144(2) 0.6250
N11_16 N 0.47680(9) 0.85606(10) 0.63708(10)
N12_15 N 0.38708(10) 0.72680(9) 0.64394(10)
N13_15 N 0.35606(10) 0.77320(9) 0.61292(10)
N19_14 N 0.65707(12) 0.75058(9) 0.62671(10)
N20_14 N 0.59293(12) 0.75058(9) 0.62329(10)
N21_16 N 0.48474(10) 0.86565(9) 0.59101(10)
N22_16 N 0.51526(10) 0.84101(10) 0.61565(9)
N23_12 N 0.61565(9) 0.90899(10) 0.73474(10)
N25_13 N 0.34101(10) 0.73474(10) 0.63435(9)
N28_15 N 0.40072(11) 0.76656(10) 0.62501(10)
N30_14 N 0.51656(10) 0.87499(10) 0.65072(11)
N32_13 N 0.37501(10) 0.65072(11) 0.73344(10)
N33_15 N 0.37499(10) 0.73344(10) 0.59928(11)
N35_16 N 0.40473(10) 0.81152(10) 0.57947(10)
N36_16 N 0.59527(10) 0.82947(10) 0.56152(10)
N37_14 N 0.56152(10) 0.92053(10) 0.65473(10)
N39_13 N 0.32947(10) 0.65473(10) 0.68848(10)
N40_16 N 0.43852(9) 0.82081(10) 0.58997(10)
N41_16 N 0.56148(9) 0.83997(10) 0.57081(10)
N42_14 N 0.57081(10) 0.91003(10) 0.68852(9)
N44_13 N 0.33997(10) 0.68852(9) 0.67919(10)
N45_16 N 0.42314(10) 0.83776(10) 0.56119(9)
N46_16 N 0.57686(10) 0.81119(9) 0.58776(10)
N47_14 N 0.58776(10) 0.93881(9) 0.67314(10)
N49_13 N 0.31119(9) 0.67314(10) 0.66224(10)
N51_14 N 0.62752(10) 0.77453(10) 0.60074(10)
N52_14 N 0.60074(10) 0.97547(10) 0.62248(10)
N54_13 N 0.27453(10) 0.62248(10) 0.64926(10)
N56_14 N 0.62248(10) 0.77453(10) 0.64926(10)
N64_14 N 0.62484(10) 0.72928(10) 0.65085(10)
N65_14 N 0.62516(10) 0.72928(10) 0.59915(10)
S3_16 S 0.45302(5) 0.83020(5) 0.66216(5)
S4_15 S 0.41216(5) 0.70302(5) 0.66980(5)
S5_15 S 0.33020(5) 0.79698(5) 0.58784(5)
S11_14 S 0.69939(7) 0.74559(7) 0.63144(15)
S12_14 S 0.55061(7) 0.74559(7) 0.61856(15)
C27_16 C 0.46619(12) 0.84544(12) 0.64741(13)
C28_15 C 0.39741(13) 0.71619(12) 0.65456(12)
C29_15 C 0.34544(12) 0.78381(12) 0.60259(13)
C32_16 C 0.46902(12) 0.85166(11) 0.59018(12)
C33_16 C 0.53098(12) 0.84018(12) 0.60166(11)
C34_14 C 0.60166(11) 0.90982(12) 0.71902(12)
C36_13 C 0.34018(12) 0.71902(12) 0.64834(11)
H17_16 H 0.4663 0.8435 0.6021
H18_16 H 0.5337 0.8521 0.5935
H19_14 H 0.5935 0.8979 0.7163
H21_13 H 0.3521 0.7163 0.6565
C37_16 C 0.45698(12) 0.84874(11) 0.57314(12)
C38_16 C 0.54302(12) 0.82314(12) 0.59874(11)
C39_14 C 0.59874(11) 0.92686(12) 0.70698(12)
C41_13 C 0.32314(12) 0.70698(12) 0.65126(11)
C42_16 C 0.46112(14) 0.85983(15) 0.55482(16)
C43_16 C 0.53888(14) 0.80482(16) 0.60983(15)
C44_14 C 0.60983(15) 0.94518(16) 0.71112(14)
C46_13 C 0.30482(16) 0.71112(14) 0.64017(15)
H22_16 H 0.4529 0.8581 0.5427
H23_16 H 0.5471 0.7927 0.6081
H24_14 H 0.6081 0.9573 0.7029
H26_13 H 0.2927 0.7029 0.6419
C47_16 C 0.47757(15) 0.87323(16) 0.55540(17)
C48_16 C 0.52243(15) 0.80540(17) 0.62323(16)
C49_14 C 0.62323(16) 0.94460(17) 0.72757(15)
C51_13 C 0.30540(17) 0.72757(15) 0.62677(16)
H27_16 H 0.4813 0.8807 0.5433
H28_16 H 0.5187 0.7933 0.6307
H29_14 H 0.6307 0.9567 0.7313
H31_13 H 0.2933 0.7313 0.6193
C52_16 C 0.48863(15) 0.87596(14) 0.57314(16)
C53_16 C 0.51137(15) 0.82314(16) 0.62596(14)
C54_14 C 0.62596(14) 0.92686(16) 0.73863(15)
C56_13 C 0.32314(16) 0.73863(15) 0.62404(14)
H32_16 H 0.4997 0.8857 0.5730
H33_16 H 0.5003 0.8230 0.6357
H34_14 H 0.6357 0.9270 0.7497
H36_13 H 0.3230 0.7497 0.6143
C57_16 C 0.41627(15) 0.76535(15) 0.63923(16)
C58_16 C 0.58373(15) 0.88923(16) 0.51535(15)
C59_14 C 0.51535(15) 0.86077(16) 0.66627(15)
C61_13 C 0.38923(16) 0.66627(15) 0.73465(15)
H37_16 H 0.4154 0.7552 0.6499
H38_16 H 0.5846 0.8999 0.5052
H39_14 H 0.5052 0.8501 0.6654
H41_13 H 0.3999 0.6654 0.7448
C62_16 C 0.43277(17) 0.77810(16) 0.63865(17)
C63_16 C 0.56723(17) 0.88865(17) 0.52810(16)
C64_14 C 0.52810(16) 0.86135(17) 0.68277(17)
C66_13 C 0.38865(17) 0.68277(17) 0.72190(16)
H42_16 H 0.4430 0.7772 0.6492
H43_16 H 0.5570 0.8992 0.5272
H44_14 H 0.5272 0.8508 0.6930
H46_13 H 0.3992 0.6930 0.7228
C67_16 C 0.43504(16) 0.79220(15) 0.62326(15)
C68_16 C 0.56496(16) 0.87326(15) 0.54220(15)
C69_14 C 0.54220(15) 0.87674(15) 0.68504(16)
C71_13 C 0.37326(15) 0.68504(16) 0.70780(15)
H47_16 H 0.4469 0.8010 0.6229
H48_16 H 0.5531 0.8729 0.5510
H49_14 H 0.5510 0.8771 0.6969
H51_13 H 0.3729 0.6969 0.6990
C72_16 C 0.41995(13) 0.79374(12) 0.60801(13)
C73_16 C 0.58005(13) 0.85801(13) 0.54374(12)
C74_14 C 0.54374(12) 0.89199(13) 0.66995(13)
C76_13 C 0.35801(13) 0.66995(13) 0.70626(12)
C77_16 C 0.40296(12) 0.78082(11) 0.60960(12)
C78_16 C 0.59704(12) 0.85960(12) 0.53082(11)
C79_14 C 0.53082(11) 0.89040(12) 0.65296(12)
C81_13 C 0.35960(12) 0.65296(12) 0.71918(11)
H52_16 H 0.3923 0.7819 0.5995
H53_16 H 0.6077 0.8495 0.5319
H54_14 H 0.5319 0.9005 0.6423
H56_13 H 0.3495 0.6423 0.7181
C82_16 C 0.42125(12) 0.80959(11) 0.59145(12)
C83_16 C 0.57875(12) 0.84145(12) 0.55959(11)
C84_14 C 0.55959(11) 0.90855(12) 0.67125(12)
C86_13 C 0.34145(12) 0.67125(12) 0.69041(11)
C87_16 C 0.43837(11) 0.83455(12) 0.57471(12)
C88_16 C 0.56163(11) 0.82471(12) 0.58455(12)
C89_14 C 0.58455(12) 0.92529(12) 0.68837(11)
C91_13 C 0.32471(12) 0.68837(11) 0.66545(12)
C92_16 C 0.40670(12) 0.82615(12) 0.56435(12)
C93_16 C 0.59330(12) 0.81435(12) 0.57615(12)
C94_14 C 0.57615(12) 0.93565(12) 0.65670(12)
C96_13 C 0.31435(12) 0.65670(12) 0.67385(12)
C97_16 C 0.35594(14) 0.83809(15) 0.52549(14)
C98_16 C 0.64406(14) 0.77549(14) 0.58809(15)
C99_14 C 0.58809(15) 0.97451(14) 0.60594(14)
C101_13 C 0.27549(14) 0.60594(14) 0.66191(15)
H57_16 H 0.3447 0.8407 0.5163
H58_16 H 0.6553 0.7663 0.5907
H59_14 H 0.5907 0.9837 0.5947
H61_13 H 0.2663 0.5947 0.6593
C102_16 C 0.35426(15) 0.82164(15) 0.53890(15)
C103_16 C 0.64574(15) 0.78890(15) 0.57164(15)
C104_14 C 0.57164(15) 0.96110(15) 0.60426(15)
C106_13 C 0.28890(15) 0.60426(15) 0.67836(15)
H62_16 H 0.3421 0.8133 0.5392
H63_16 H 0.6579 0.7892 0.5633
H64_14 H 0.5633 0.9608 0.5921
H66_13 H 0.2892 0.5921 0.6867
C107_16 C 0.37096(14) 0.81749(13) 0.55202(14)
C108_16 C 0.62904(14) 0.80202(14) 0.56749(13)
C109_14 C 0.56749(13) 0.94798(14) 0.62096(14)
C111_13 C 0.30202(14) 0.62096(14) 0.68251(13)
H67_16 H 0.3703 0.8062 0.5615
H68_16 H 0.6297 0.8115 0.5562
H69_14 H 0.5562 0.9385 0.6203
H71_13 H 0.3115 0.6203 0.6938
C112_16 C 0.38804(13) 0.82949(12) 0.55119(12)
C113_16 C 0.61196(13) 0.80119(12) 0.57949(12)
C114_14 C 0.57949(12) 0.94881(12) 0.63804(13)
C116_13 C 0.30119(12) 0.63804(13) 0.67051(12)
C117_16 C 0.38826(11) 0.84679(12) 0.53735(11)
C118_16 C 0.61174(11) 0.78735(11) 0.59679(12)
C119_14 C 0.59679(12) 0.96265(11) 0.63826(11)
C121_13 C 0.28735(11) 0.63826(11) 0.65321(12)
H72_16 H 0.4000 0.8558 0.5373
H73_16 H 0.6000 0.7873 0.6058
H74_14 H 0.6058 0.9627 0.6500
H76_13 H 0.2873 0.6500 0.6442
C155_14 C 0.67456(19) 0.74851(14) 0.6282(2)
C156_14 C 0.57544(19) 0.74851(14) 0.6218(2)
Co1_14 Co 0.371072(19) 0.121072(19) 0.5000
N1_17 N 0.38708(10) 0.10606(10) 0.52320(9)
N2_15 N 0.34293(12) 0.24942(9) 0.37329(10)
N3_9 N 0.48474(10) 0.15899(10) 0.38435(9)
N4_12 N 0.40072(11) 0.12499(10) 0.48344(10)
N5_12 N 0.40473(10) 0.17053(10) 0.43848(10)
N6_12 N 0.43852(9) 0.16003(10) 0.42919(10)
N7_12 N 0.42314(10) 0.18881(9) 0.41224(10)
N8_12 N 0.37248(10) 0.22547(10) 0.39926(10)
S1_17 S 0.41216(5) 0.08020(5) 0.54698(5)
S2_15 S 0.30061(7) 0.25441(7) 0.36856(15)
C1_17 C 0.39741(13) 0.09544(12) 0.53381(12)
C2_12 C 0.46902(12) 0.15982(12) 0.39834(11)
H1_12 H 0.4663 0.1479 0.4065
C3_12 C 0.45698(12) 0.17686(12) 0.40126(11)
C4_12 C 0.46112(14) 0.19518(16) 0.39017(15)
H2_12 H 0.4529 0.2073 0.3919
C5_12 C 0.47757(15) 0.19460(17) 0.37677(16)
H3_12 H 0.4813 0.2067 0.3693
C6_12 C 0.48863(15) 0.17686(16) 0.37404(14)
H4_12 H 0.4997 0.1770 0.3643
C7_12 C 0.41627(15) 0.11077(16) 0.48465(15)
H5_12 H 0.4154 0.1001 0.4948
C8_12 C 0.43277(17) 0.11135(17) 0.47190(16)
H6_12 H 0.4430 0.1008 0.4728
C9_12 C 0.43504(16) 0.12674(15) 0.45780(15)
H7_12 H 0.4469 0.1271 0.4490
C10_12 C 0.41995(13) 0.14199(13) 0.45626(12)
C11_12 C 0.40296(12) 0.14040(12) 0.46918(11)
H8_12 H 0.3923 0.1505 0.4681
C12_12 C 0.42125(12) 0.15855(12) 0.44041(11)
C13_12 C 0.43837(11) 0.17529(12) 0.41545(12)
C14_12 C 0.40670(12) 0.18565(12) 0.42385(12)
C15_12 C 0.35594(14) 0.22451(14) 0.41191(15)
H9_12 H 0.3447 0.2337 0.4093
C16_12 C 0.35426(15) 0.21110(15) 0.42836(15)
H10_12 H 0.3421 0.2108 0.4367
C17_12 C 0.37096(14) 0.19798(14) 0.43251(13)
H11_12 H 0.3703 0.1885 0.4438
C18_12 C 0.38804(13) 0.19881(12) 0.42051(12)
C19_12 C 0.38826(11) 0.21265(11) 0.40321(12)
H12_12 H 0.4000 0.2127 0.3942
C26_15 C 0.32544(19) 0.25149(14) 0.3718(2)
Co5_10 Co 0.5000 0.128928(19) 0.378928(19)
Co9_13 Co 0.3750 0.00144(2) 0.3750
Co14_7 Co 0.3750 0.3750 0.50144(2)
N11_17 N 0.35606(10) 0.13708(10) 0.47680(9)
N16_15 N 0.40707(12) 0.24942(9) 0.37671(10)
N17_13 N 0.37671(10) 0.00058(9) 0.34293(12)
N18_13 N 0.37329(10) 0.00058(9) 0.40707(12)
N21_17 N 0.36565(9) 0.09101(10) 0.48474(10)
N22_17 N 0.34101(10) 0.11565(9) 0.51526(10)
N30_15 N 0.37499(10) 0.15072(11) 0.51656(10)
N35_17 N 0.31152(10) 0.07947(10) 0.40473(10)
N36_17 N 0.32947(10) 0.06152(10) 0.59527(10)
N37_15 N 0.42053(10) 0.15473(10) 0.56152(10)
N40_17 N 0.32081(10) 0.08997(10) 0.43852(9)
N41_17 N 0.33997(10) 0.07081(10) 0.56148(9)
N42_15 N 0.41003(10) 0.18852(9) 0.57081(10)
N45_17 N 0.33776(10) 0.06119(9) 0.42314(10)
N46_17 N 0.31119(9) 0.08776(10) 0.57686(10)
N47_15 N 0.43881(9) 0.17314(10) 0.58776(10)
N50_13 N 0.35074(10) 0.02453(10) 0.37248(10)
N52_15 N 0.47547(10) 0.12248(10) 0.60074(10)
N55_13 N 0.39926(10) 0.02453(10) 0.37752(10)
N59_10 N 0.37484(10) 0.27072(10) 0.40085(10)
N60_10 N 0.34915(10) 0.37484(10) 0.47928(10)
N61_10 N 0.27072(10) 0.34915(10) 0.37516(10)
N68_10 N 0.32814(11) 0.31390(11) 0.40591(12)
N69_10 N 0.31390(11) 0.34409(12) 0.42186(11)
N70_10 N 0.34409(12) 0.32814(11) 0.43610(11)
S3_17 S 0.33020(5) 0.16216(5) 0.45302(5)
S8_15 S 0.44939(7) 0.25441(7) 0.38144(15)
C27_17 C 0.34544(12) 0.14741(13) 0.46619(12)
C32_17 C 0.35166(11) 0.09018(12) 0.46902(12)
C33_17 C 0.34018(12) 0.10166(11) 0.53098(12)
C34_15 C 0.40982(12) 0.21902(12) 0.60166(11)
H17_17 H 0.3435 0.1021 0.4663
H18_17 H 0.3521 0.0935 0.5337
H19_15 H 0.3979 0.2163 0.5935
C37_17 C 0.34874(11) 0.07314(12) 0.45698(12)
C38_17 C 0.32314(12) 0.09874(11) 0.54302(12)
C39_15 C 0.42686(12) 0.20698(12) 0.59874(11)
C42_17 C 0.35983(15) 0.05482(16) 0.46112(14)
C43_17 C 0.30482(16) 0.10983(15) 0.53888(14)
C44_15 C 0.44518(16) 0.21112(14) 0.60983(15)
H22_17 H 0.3581 0.0427 0.4529
H23_17 H 0.2927 0.1081 0.5471
H24_15 H 0.4573 0.2029 0.6081
C47_17 C 0.37323(16) 0.05540(17) 0.47757(15)
C48_17 C 0.30540(17) 0.12323(16) 0.52243(15)
C49_15 C 0.44460(17) 0.22757(15) 0.62323(16)
H27_17 H 0.3807 0.0433 0.4813
H28_17 H 0.2933 0.1307 0.5187
H29_15 H 0.4567 0.2313 0.6307
C52_17 C 0.37596(14) 0.07314(16) 0.48863(15)
C53_17 C 0.32314(16) 0.12596(14) 0.51137(15)
C54_15 C 0.42686(16) 0.23863(15) 0.62596(14)
H32_17 H 0.3857 0.0730 0.4997
H33_17 H 0.3230 0.1357 0.5003
H34_15 H 0.4270 0.2497 0.6357
C57_17 C 0.26535(15) 0.13923(16) 0.41627(15)
C58_17 C 0.38923(16) 0.01535(15) 0.58373(15)
C59_15 C 0.36077(16) 0.16627(15) 0.51535(15)
H37_17 H 0.2552 0.1499 0.4154
H38_17 H 0.3999 0.0052 0.5846
H39_15 H 0.3501 0.1654 0.5052
C62_17 C 0.27810(16) 0.13865(17) 0.43277(17)
C63_17 C 0.38865(17) 0.02810(16) 0.56723(17)
C64_15 C 0.36135(17) 0.18277(17) 0.52810(16)
H42_17 H 0.2772 0.1492 0.4430
H43_17 H 0.3992 0.0272 0.5570
H44_15 H 0.3508 0.1930 0.5272
C67_17 C 0.29220(15) 0.12326(15) 0.43504(16)
C68_17 C 0.37326(15) 0.04220(15) 0.56496(16)
C69_15 C 0.37674(15) 0.18504(16) 0.54220(15)
H47_17 H 0.3010 0.1229 0.4469
H48_17 H 0.3729 0.0510 0.5531
H49_15 H 0.3771 0.1969 0.5510
C72_17 C 0.29374(12) 0.10801(13) 0.41995(13)
C73_17 C 0.35801(13) 0.04374(12) 0.58005(13)
C74_15 C 0.39199(13) 0.16995(13) 0.54374(12)
C77_17 C 0.28082(11) 0.10960(12) 0.40296(12)
C78_17 C 0.35960(12) 0.03082(11) 0.59704(12)
C79_15 C 0.39040(12) 0.15296(12) 0.53082(11)
H52_17 H 0.2819 0.0995 0.3923
H53_17 H 0.3495 0.0319 0.6077
H54_15 H 0.4005 0.1423 0.5319
C82_17 C 0.30959(11) 0.09145(12) 0.42125(12)
C83_17 C 0.34145(12) 0.05959(11) 0.57875(12)
C84_15 C 0.40855(12) 0.17125(12) 0.55959(11)
C87_17 C 0.33455(12) 0.07471(12) 0.43837(11)
C88_17 C 0.32471(12) 0.08455(12) 0.56163(11)
C89_15 C 0.42529(12) 0.18837(11) 0.58455(12)
C92_17 C 0.32615(12) 0.06435(12) 0.40670(12)
C93_17 C 0.31435(12) 0.07615(12) 0.59330(12)
C94_15 C 0.43565(12) 0.15670(12) 0.57615(12)
C97_17 C 0.33809(15) 0.02549(14) 0.35594(14)
C98_17 C 0.27549(14) 0.08809(15) 0.64406(14)
C99_15 C 0.47451(14) 0.10594(14) 0.58809(15)
H57_17 H 0.3407 0.0163 0.3447
H58_17 H 0.2663 0.0907 0.6553
H59_15 H 0.4837 0.0947 0.5907
C102_17 C 0.32164(15) 0.03890(15) 0.35426(15)
C103_17 C 0.28890(15) 0.07164(15) 0.64574(15)
C104_15 C 0.46110(15) 0.10426(15) 0.57164(15)
H62_17 H 0.3133 0.0392 0.3421
H63_17 H 0.2892 0.0633 0.6579
H64_15 H 0.4608 0.0921 0.5633
C107_17 C 0.31749(13) 0.05202(14) 0.37096(14)
C108_17 C 0.30202(14) 0.06749(13) 0.62904(14)
C109_15 C 0.44798(14) 0.12096(14) 0.56749(13)
H67_17 H 0.3062 0.0615 0.3703
H68_17 H 0.3115 0.0562 0.6297
H69_15 H 0.4385 0.1203 0.5562
C112_17 C 0.32949(12) 0.05119(12) 0.38804(13)
C113_17 C 0.30119(12) 0.07949(12) 0.61196(13)
C114_15 C 0.44881(12) 0.13804(13) 0.57949(12)
C117_17 C 0.34679(12) 0.03735(11) 0.38826(11)
C118_17 C 0.28735(11) 0.09679(12) 0.61174(11)
C119_15 C 0.46265(11) 0.13826(11) 0.59679(12)
H72_17 H 0.3558 0.0373 0.4000
H73_17 H 0.2873 0.1058 0.6000
H74_15 H 0.4627 0.1500 0.6058
C124_10 C 0.38835(16) 0.26834(14) 0.41623(15)
C125_10 C 0.33377(15) 0.38835(16) 0.48166(14)
C126_10 C 0.26834(14) 0.33377(15) 0.36165(16)
H79_10 H 0.3992 0.2584 0.4146
H80_10 H 0.3354 0.3992 0.4916
H81_10 H 0.2584 0.3354 0.3508
C129_10 C 0.3874(2) 0.27980(17) 0.43469(17)
C130_10 C 0.31531(17) 0.3874(2) 0.47020(17)
C131_10 C 0.27980(17) 0.31531(17) 0.3626(2)
H84_10 H 0.3967 0.2771 0.4458
H85_10 H 0.3042 0.3967 0.4729
H86_10 H 0.2771 0.3042 0.3533
C134_10 C 0.37250(16) 0.29515(16) 0.43620(15)
C135_10 C 0.31380(15) 0.37250(16) 0.45485(16)
C136_10 C 0.29515(16) 0.31380(15) 0.37750(16)
H89_10 H 0.3718 0.3036 0.4482
H90_10 H 0.3018 0.3718 0.4464
H91_10 H 0.3036 0.3018 0.3782
C139_10 C 0.35869(14) 0.29809(13) 0.42016(14)
C140_10 C 0.32984(14) 0.35869(14) 0.45191(13)
C141_10 C 0.29809(13) 0.32984(14) 0.39131(14)
C144_10 C 0.36069(13) 0.28528(12) 0.40262(12)
C145_10 C 0.34738(12) 0.36069(13) 0.46472(12)
C146_10 C 0.28528(12) 0.34738(12) 0.38931(13)
H94_10 H 0.3513 0.2873 0.3914
H95_10 H 0.3586 0.3513 0.4627
H96_10 H 0.2873 0.3586 0.3987
C149_10 C 0.34275(14) 0.31431(13) 0.42079(13)
C150_10 C 0.31431(13) 0.32921(13) 0.40725(14)
C151_10 C 0.32921(13) 0.34275(14) 0.43569(13)
C152_15 C 0.42456(19) 0.25149(14) 0.3782(2)
N62_13 N 0.40085(10) 0.97928(10) 0.37516(10)
N63_13 N 0.34915(10) 0.97928(10) 0.37484(10)
S9_13 S 0.38144(15) 0.99559(7) 0.30061(7)
S10_13 S 0.36856(15) 0.99559(7) 0.44939(7)
C153_13 C 0.3782(2) 0.99851(14) 0.32544(19)
C154_13 C 0.3718(2) 0.99851(14) 0.42456(19)
N1_18 N 0.60606(10) 0.02320(9) 0.38708(10)
S1_18 S 0.58020(5) 0.04698(5) 0.41216(5)
C1_18 C 0.59544(12) 0.03381(12) 0.39741(13)
Co6_17 Co 0.7500 0.121072(19) 0.378928(19)
Co10_15 Co 0.6250 0.1250 0.25144(2)
Co13_9 Co 0.6250 0.1250 0.49856(2)
N14_14 N 0.47680(9) 0.11292(10) 0.39394(10)
N15_14 N 0.52320(9) 0.14394(10) 0.36292(10)
N19_15 N 0.62671(10) 0.15707(12) 0.25058(9)
N20_15 N 0.62329(10) 0.09293(12) 0.25058(9)
N22_18 N 0.61565(9) 0.01526(10) 0.34101(10)
N23_13 N 0.73474(10) 0.11565(9) 0.40899(10)
N26_12 N 0.51526(10) 0.13435(9) 0.40899(10)
N29_14 N 0.51656(10) 0.09928(11) 0.37501(10)
N30_16 N 0.65072(11) 0.01656(10) 0.37499(10)
N34_14 N 0.48344(10) 0.12501(10) 0.34928(11)
N36_18 N 0.56152(10) 0.09527(10) 0.32947(10)
N37_16 N 0.65473(10) 0.06152(10) 0.42053(10)
N41_18 N 0.57081(10) 0.06148(9) 0.33997(10)
N42_16 N 0.68852(9) 0.07081(10) 0.41003(10)
N46_18 N 0.58776(10) 0.07686(10) 0.31119(9)
N47_16 N 0.67314(10) 0.08776(10) 0.43881(9)
N51_15 N 0.60074(10) 0.12752(10) 0.27453(10)
N52_16 N 0.62248(10) 0.10074(10) 0.47547(10)
N56_15 N 0.64926(10) 0.12248(10) 0.27453(10)
N64_15 N 0.65085(10) 0.12484(10) 0.22928(10)
N65_15 N 0.59915(10) 0.12516(10) 0.22928(10)
S6_14 S 0.45302(5) 0.08784(5) 0.41980(5)
S7_14 S 0.54698(5) 0.16980(5) 0.33784(5)
S11_15 S 0.63144(15) 0.19939(7) 0.24559(7)
S12_15 S 0.61856(15) 0.05061(7) 0.24559(7)
C30_14 C 0.46619(12) 0.10259(13) 0.40456(12)
C31_14 C 0.53381(12) 0.15456(12) 0.35259(13)
C33_18 C 0.60166(11) 0.03098(12) 0.34018(12)
C34_16 C 0.71902(12) 0.10166(11) 0.40982(12)
H18_18 H 0.5935 0.0337 0.3521
H19_16 H 0.7163 0.0935 0.3979
C38_18 C 0.59874(11) 0.04302(12) 0.32314(12)
C39_16 C 0.70698(12) 0.09874(11) 0.42686(12)
C43_18 C 0.60983(15) 0.03888(14) 0.30482(16)
C44_16 C 0.71112(14) 0.10983(15) 0.44518(16)
H23_18 H 0.6081 0.0471 0.2927
H24_16 H 0.7029 0.1081 0.4573
C48_18 C 0.62323(16) 0.02243(15) 0.30540(17)
C49_16 C 0.72757(15) 0.12323(16) 0.44460(17)
H28_18 H 0.6307 0.0187 0.2933
H29_16 H 0.7313 0.1307 0.4567
C53_18 C 0.62596(14) 0.01137(15) 0.32314(16)
C54_16 C 0.73863(15) 0.12596(14) 0.42686(16)
H33_18 H 0.6357 0.0003 0.3230
H34_16 H 0.7497 0.1357 0.4270
C58_18 C 0.51535(15) 0.08373(15) 0.38923(16)
C59_16 C 0.66627(15) 0.01535(15) 0.36077(16)
H38_18 H 0.5052 0.0846 0.3999
H39_16 H 0.6654 0.0052 0.3501
C63_18 C 0.52810(16) 0.06723(17) 0.38865(17)
C64_16 C 0.68277(17) 0.02810(16) 0.36135(17)
H43_18 H 0.5272 0.0570 0.3992
H44_16 H 0.6930 0.0272 0.3508
C68_18 C 0.54220(15) 0.06496(16) 0.37326(15)
C69_16 C 0.68504(16) 0.04220(15) 0.37674(15)
H48_18 H 0.5510 0.0531 0.3729
H49_16 H 0.6969 0.0510 0.3771
C73_18 C 0.54374(12) 0.08005(13) 0.35801(13)
C74_16 C 0.66995(13) 0.04374(12) 0.39199(13)
C78_18 C 0.53082(11) 0.09704(12) 0.35960(12)
C79_16 C 0.65296(12) 0.03082(11) 0.39040(12)
H53_18 H 0.5319 0.1077 0.3495
H54_16 H 0.6423 0.0319 0.4005
C83_18 C 0.55959(11) 0.07875(12) 0.34145(12)
C84_16 C 0.67125(12) 0.05959(11) 0.40855(12)
C88_18 C 0.58455(12) 0.06163(11) 0.32471(12)
C89_16 C 0.68837(11) 0.08455(12) 0.42529(12)
C93_18 C 0.57615(12) 0.09330(12) 0.31435(12)
C94_16 C 0.65670(12) 0.07615(12) 0.43565(12)
C98_18 C 0.58809(15) 0.14406(14) 0.27549(14)
C99_16 C 0.60594(14) 0.08809(15) 0.47451(14)
H58_18 H 0.5907 0.1553 0.2663
H59_16 H 0.5947 0.0907 0.4837
C103_18 C 0.57164(15) 0.14574(15) 0.28890(15)
C104_16 C 0.60426(15) 0.07164(15) 0.46110(15)
H63_18 H 0.5633 0.1579 0.2892
H64_16 H 0.5921 0.0633 0.4608
C108_18 C 0.56749(13) 0.12904(14) 0.30202(14)
C109_16 C 0.62096(14) 0.06749(13) 0.44798(14)
H68_18 H 0.5562 0.1297 0.3115
H69_16 H 0.6203 0.0562 0.4385
C113_18 C 0.57949(12) 0.11196(13) 0.30119(12)
C114_16 C 0.63804(13) 0.07949(12) 0.44881(12)
C118_18 C 0.59679(12) 0.11174(11) 0.28735(11)
C119_16 C 0.63826(11) 0.09679(12) 0.46265(11)
H73_18 H 0.6058 0.1000 0.2873
H74_16 H 0.6500 0.1058 0.4627
C155_15 C 0.6282(2) 0.17456(19) 0.24851(14)
C156_15 C 0.6218(2) 0.07544(19) 0.24851(14)
Co8_13 Co 0.7500 0.878928(19) 0.121072(19)
N11_18 N 0.63708(10) 0.97680(9) 0.35606(10)
N21_18 N 0.59101(10) 0.98474(10) 0.36565(9)
N32_14 N 0.73344(10) 0.87501(10) 0.15072(11)
N35_18 N 0.57947(10) 0.90473(10) 0.31152(10)
N39_14 N 0.68848(10) 0.82947(10) 0.15473(10)
N40_18 N 0.58997(10) 0.93852(9) 0.32081(10)
N44_14 N 0.67919(10) 0.83997(10) 0.18852(9)
N45_18 N 0.56119(9) 0.92314(10) 0.33776(10)
N49_14 N 0.66224(10) 0.81119(9) 0.17314(10)
N54_14 N 0.64926(10) 0.77453(10) 0.12248(10)
S3_18 S 0.66216(5) 0.95302(5) 0.33020(5)
C27_18 C 0.64741(13) 0.96619(12) 0.34544(12)
C32_18 C 0.59018(12) 0.96902(12) 0.35166(11)
C36_14 C 0.64834(11) 0.84018(12) 0.21902(12)
H17_18 H 0.6021 0.9663 0.3435
H21_14 H 0.6565 0.8521 0.2163
C37_18 C 0.57314(12) 0.95698(12) 0.34874(11)
C41_14 C 0.65126(11) 0.82314(12) 0.20698(12)
C42_18 C 0.55482(16) 0.96112(14) 0.35983(15)
C46_14 C 0.64017(15) 0.80482(16) 0.21112(14)
H22_18 H 0.5427 0.9529 0.3581
H26_14 H 0.6419 0.7927 0.2029
C47_18 C 0.55540(17) 0.97757(15) 0.37323(16)
C51_14 C 0.62677(16) 0.80540(17) 0.22757(15)
H27_18 H 0.5433 0.9813 0.3807
H31_14 H 0.6193 0.7933 0.2313
C52_18 C 0.57314(16) 0.98863(15) 0.37596(14)
C56_14 C 0.62404(14) 0.82314(16) 0.23863(15)
H32_18 H 0.5730 0.9997 0.3857
H36_14 H 0.6143 0.8230 0.2497
C57_18 C 0.63923(16) 0.91627(15) 0.26535(15)
C61_14 C 0.73465(15) 0.88923(16) 0.16627(15)
H37_18 H 0.6499 0.9154 0.2552
H41_14 H 0.7448 0.8999 0.1654
C62_18 C 0.63865(17) 0.93277(17) 0.27810(16)
C66_14 C 0.72190(16) 0.88865(17) 0.18277(17)
H42_18 H 0.6492 0.9430 0.2772
H46_14 H 0.7228 0.8992 0.1930
C67_18 C 0.62326(15) 0.93504(16) 0.29220(15)
C71_14 C 0.70780(15) 0.87326(15) 0.18504(16)
H47_18 H 0.6229 0.9469 0.3010
H51_14 H 0.6990 0.8729 0.1969
C72_18 C 0.60801(13) 0.91995(13) 0.29374(12)
C76_14 C 0.70626(12) 0.85801(13) 0.16995(13)
C77_18 C 0.60960(12) 0.90296(12) 0.28082(11)
C81_14 C 0.71918(11) 0.85960(12) 0.15296(12)
H52_18 H 0.5995 0.8923 0.2819
H56_14 H 0.7181 0.8495 0.1423
C82_18 C 0.59145(12) 0.92125(12) 0.30959(11)
C86_14 C 0.69041(11) 0.84145(12) 0.17125(12)
C87_18 C 0.57471(12) 0.93837(11) 0.33455(12)
C91_14 C 0.66545(12) 0.82471(12) 0.18837(11)
C92_18 C 0.56435(12) 0.90670(12) 0.32615(12)
C96_14 C 0.67385(12) 0.81435(12) 0.15670(12)
C97_18 C 0.52549(14) 0.85594(14) 0.33809(15)
C101_14 C 0.66191(15) 0.77549(14) 0.10594(14)
H57_18 H 0.5163 0.8447 0.3407
H61_14 H 0.6593 0.7663 0.0947
C102_18 C 0.53890(15) 0.85426(15) 0.32164(15)
C106_14 C 0.67836(15) 0.78890(15) 0.10426(15)
H62_18 H 0.5392 0.8421 0.3133
H66_14 H 0.6867 0.7892 0.0921
C107_18 C 0.55202(14) 0.87096(14) 0.31749(13)
C111_14 C 0.68251(13) 0.80202(14) 0.12096(14)
H67_18 H 0.5615 0.8703 0.3062
H71_14 H 0.6938 0.8115 0.1203
C112_18 C 0.55119(12) 0.88804(13) 0.32949(12)
C116_14 C 0.67051(12) 0.80119(12) 0.13804(13)
C117_18 C 0.53735(11) 0.88826(11) 0.34679(12)
C121_14 C 0.65321(12) 0.78735(11) 0.13826(11)
H72_18 H 0.5373 0.9000 0.3558
H76_14 H 0.6442 0.7873 0.1500
N2_16 N 0.00058(9) 0.87329(10) 0.40707(12)
Co7_12 Co 0.128928(19) 0.7500 0.371072(19)
Co8_14 Co 0.0000 0.878928(19) 0.628928(19)
N16_16 N 0.00058(9) 0.87671(10) 0.34293(12)
N31_12 N 0.12501(10) 0.76656(10) 0.40072(11)
N32_15 N 0.01656(10) 0.87501(10) 0.59928(11)
N38_12 N 0.07947(10) 0.81152(10) 0.40473(10)
N39_15 N 0.06152(10) 0.82947(10) 0.59527(10)
N43_12 N 0.08997(10) 0.82081(10) 0.43852(9)
N44_15 N 0.07081(10) 0.83997(10) 0.56148(9)
N48_12 N 0.06119(9) 0.83776(10) 0.42314(10)
N49_15 N 0.08776(10) 0.81119(9) 0.57686(10)
N53_12 N 0.02453(10) 0.85074(10) 0.37248(10)
N54_15 N 0.10074(10) 0.77453(10) 0.62752(10)
C35_12 C 0.09018(12) 0.85166(11) 0.46902(12)
C36_15 C 0.10166(11) 0.84018(12) 0.53098(12)
H20_12 H 0.1021 0.8435 0.4663
H21_15 H 0.0935 0.8521 0.5337
C40_12 C 0.07314(12) 0.84874(11) 0.45698(12)
C41_15 C 0.09874(11) 0.82314(12) 0.54302(12)
C45_12 C 0.05482(16) 0.85983(15) 0.46112(14)
C46_15 C 0.10983(15) 0.80482(16) 0.53888(14)
H25_12 H 0.0427 0.8581 0.4529
H26_15 H 0.1081 0.7927 0.5471
C50_12 C 0.05540(17) 0.87323(16) 0.47757(15)
C51_15 C 0.12323(16) 0.80540(17) 0.52243(15)
H30_12 H 0.0433 0.8807 0.4813
H31_15 H 0.1307 0.7933 0.5187
C55_12 C 0.07314(16) 0.87596(14) 0.48863(15)
C56_15 C 0.12596(14) 0.82314(16) 0.51137(15)
H35_12 H 0.0730 0.8857 0.4997
H36_15 H 0.1357 0.8230 0.5003
C60_12 C 0.13923(16) 0.76535(15) 0.41627(15)
C61_15 C 0.01535(15) 0.88923(16) 0.58373(15)
H40_12 H 0.1499 0.7552 0.4154
H41_15 H 0.0052 0.8999 0.5846
C65_12 C 0.13865(17) 0.77810(16) 0.43277(17)
C66_15 C 0.02810(16) 0.88865(17) 0.56723(17)
H45_12 H 0.1492 0.7772 0.4430
H46_15 H 0.0272 0.8992 0.5570
C70_12 C 0.12326(15) 0.79220(15) 0.43504(16)
C71_15 C 0.04220(15) 0.87326(15) 0.56496(16)
H50_12 H 0.1229 0.8010 0.4469
H51_15 H 0.0510 0.8729 0.5531
C75_12 C 0.10801(13) 0.79374(12) 0.41995(13)
C76_15 C 0.04374(12) 0.85801(13) 0.58005(13)
C80_12 C 0.10960(12) 0.78082(11) 0.40296(12)
C81_15 C 0.03082(11) 0.85960(12) 0.59704(12)
H55_12 H 0.0995 0.7819 0.3923
H56_15 H 0.0319 0.8495 0.6077
C85_12 C 0.09145(12) 0.80959(11) 0.42125(12)
C86_15 C 0.05959(11) 0.84145(12) 0.57875(12)
C90_12 C 0.07471(12) 0.83455(12) 0.43837(11)
C91_15 C 0.08455(12) 0.82471(12) 0.56163(11)
C95_12 C 0.06435(12) 0.82615(12) 0.40670(12)
C96_15 C 0.07615(12) 0.81435(12) 0.59330(12)
C100_12 C 0.02549(14) 0.83809(15) 0.35594(14)
C101_15 C 0.08809(15) 0.77549(14) 0.64406(14)
H60_12 H 0.0163 0.8407 0.3447
H61_15 H 0.0907 0.7663 0.6553
C105_12 C 0.03890(15) 0.82164(15) 0.35426(15)
C106_15 C 0.07164(15) 0.78890(15) 0.64574(15)
H65_12 H 0.0392 0.8133 0.3421
H66_15 H 0.0633 0.7892 0.6579
C110_12 C 0.05202(14) 0.81749(13) 0.37096(14)
C111_15 C 0.06749(13) 0.80202(14) 0.62904(14)
H70_12 H 0.0615 0.8062 0.3703
H71_15 H 0.0562 0.8115 0.6297
C115_12 C 0.05119(12) 0.82949(12) 0.38804(13)
C116_15 C 0.07949(12) 0.80119(12) 0.61196(13)
C120_12 C 0.03735(11) 0.84679(12) 0.38826(11)
C121_15 C 0.09679(12) 0.78735(11) 0.61174(11)
H75_12 H 0.0373 0.8558 0.4000
H76_15 H 0.1058 0.7873 0.6000
N9_10 N 0.97928(10) 0.84915(10) 0.37484(10)
N10_10 N 0.93610(11) 0.84409(12) 0.32814(11)
S2_16 S 0.99559(7) 0.86856(15) 0.44939(7)
C20_10 C 0.98166(14) 0.83377(15) 0.38835(16)
H13_10 H 0.9916 0.8354 0.3992
C21_10 C 0.97020(17) 0.81531(17) 0.3874(2)
H14_10 H 0.9729 0.8042 0.3967
C22_10 C 0.95485(16) 0.81380(15) 0.37250(16)
H15_10 H 0.9464 0.8018 0.3718
C23_10 C 0.95191(13) 0.82984(14) 0.35869(14)
C24_10 C 0.96472(12) 0.84738(12) 0.36069(13)
H16_10 H 0.9627 0.8586 0.3513
C25_10 C 0.93569(13) 0.82921(13) 0.34275(14)
C26_16 C 0.99851(14) 0.8718(2) 0.42456(19)
Co8_15 Co 1.0000 0.878928(19) 0.628928(19)
N57_10 N 0.87516(10) 0.77072(10) 0.34915(10)
N58_10 N 0.90085(10) 0.87484(10) 0.27072(10)
N59_11 N 0.97928(10) 0.90085(10) 0.37516(10)
N60_11 N 0.87516(10) 0.97928(10) 0.40085(10)
N61_11 N 0.90085(10) 0.87516(10) 0.47928(10)
N66_10 N 0.90591(12) 0.82814(11) 0.31390(11)
N67_10 N 0.92186(11) 0.81390(11) 0.34409(12)
N68_11 N 0.93610(11) 0.90591(12) 0.42186(11)
N69_11 N 0.90591(12) 0.92186(11) 0.43610(11)
N70_11 N 0.92186(11) 0.93610(11) 0.40591(12)
S8_16 S 0.99559(7) 0.88144(15) 0.30061(7)
C122_10 C 0.86165(16) 0.76834(14) 0.33377(15)
C123_10 C 0.91623(15) 0.88835(16) 0.26834(14)
C124_11 C 0.98166(14) 0.91623(15) 0.36165(16)
C125_11 C 0.86165(16) 0.98166(14) 0.41623(15)
C126_11 C 0.91623(15) 0.86165(16) 0.48166(14)
H77_10 H 0.8508 0.7584 0.3354
H78_10 H 0.9146 0.8992 0.2584
H79_11 H 0.9916 0.9146 0.3508
H80_11 H 0.8508 0.9916 0.4146
H81_11 H 0.9146 0.8508 0.4916
C127_10 C 0.8626(2) 0.77980(17) 0.31531(17)
C128_10 C 0.93469(17) 0.8874(2) 0.27980(17)
C129_11 C 0.97020(17) 0.93469(17) 0.3626(2)
C130_11 C 0.8626(2) 0.97020(17) 0.43469(17)
C131_11 C 0.93469(17) 0.8626(2) 0.47020(17)
H82_10 H 0.8533 0.7771 0.3042
H83_10 H 0.9458 0.8967 0.2771
H84_11 H 0.9729 0.9458 0.3533
H85_11 H 0.8533 0.9729 0.4458
H86_11 H 0.9458 0.8533 0.4729
C132_10 C 0.87750(16) 0.79515(16) 0.31380(15)
C133_10 C 0.93620(15) 0.87250(16) 0.29515(16)
C134_11 C 0.95485(16) 0.93620(15) 0.37750(16)
C135_11 C 0.87750(16) 0.95485(16) 0.43620(15)
C136_11 C 0.93620(15) 0.87750(16) 0.45485(16)
H87_10 H 0.8782 0.8036 0.3018
H88_10 H 0.9482 0.8718 0.3036
H89_11 H 0.9464 0.9482 0.3782
H90_11 H 0.8782 0.9464 0.4482
H91_11 H 0.9482 0.8782 0.4464
C137_10 C 0.89131(14) 0.79809(13) 0.32984(14)
C138_10 C 0.92016(14) 0.85869(14) 0.29809(13)
C139_11 C 0.95191(13) 0.92016(14) 0.39131(14)
C140_11 C 0.89131(14) 0.95191(13) 0.42016(14)
C141_11 C 0.92016(14) 0.89131(14) 0.45191(13)
C142_10 C 0.88931(13) 0.78528(12) 0.34738(12)
C143_10 C 0.90262(12) 0.86069(13) 0.28528(12)
C144_11 C 0.96472(12) 0.90262(12) 0.38931(13)
C145_11 C 0.88931(13) 0.96472(12) 0.40262(12)
C146_11 C 0.90262(12) 0.88931(13) 0.46472(12)
H92_10 H 0.8987 0.7873 0.3586
H93_10 H 0.8914 0.8513 0.2873
H94_11 H 0.9627 0.8914 0.3987
H95_11 H 0.8987 0.9627 0.3914
H96_11 H 0.8914 0.8987 0.4627
C147_10 C 0.92079(13) 0.84275(14) 0.31431(13)
C148_10 C 0.90725(14) 0.81431(13) 0.32921(13)
C149_11 C 0.93569(13) 0.92079(13) 0.40725(14)
C150_11 C 0.92079(13) 0.90725(14) 0.43569(13)
C151_11 C 0.90725(14) 0.93569(13) 0.42079(13)
C152_16 C 0.99851(14) 0.8782(2) 0.32544(19)
S2_17 S 0.00441(7) 0.55061(7) 0.63144(15)
C26_17 C 0.00149(14) 0.57544(19) 0.6282(2)
Co6_18 Co -0.0000 0.628928(19) 0.378928(19)
Co8_16 Co -0.0000 0.371072(19) 0.621072(19)
Co14_8 Co 0.1250 0.6250 0.49856(2)
N59_12 N 0.02072(10) 0.62484(10) 0.59915(10)
N60_12 N 0.12484(10) 0.59915(10) 0.52072(10)
N61_12 N 0.09915(10) 0.52072(10) 0.62484(10)
N68_12 N 0.06390(11) 0.57814(11) 0.59409(12)
N69_12 N 0.09409(12) 0.56390(11) 0.57814(11)
N70_12 N 0.07814(11) 0.59409(12) 0.56390(11)
S8_17 S 0.00441(7) 0.69939(7) 0.61856(15)
C124_12 C 0.01834(14) 0.63835(16) 0.58377(15)
C125_12 C 0.13835(16) 0.58377(15) 0.51834(14)
C126_12 C 0.08377(15) 0.51834(14) 0.63835(16)
H79_12 H 0.0084 0.6492 0.5854
H80_12 H 0.1492 0.5854 0.5084
H81_12 H 0.0854 0.5084 0.6492
C129_12 C 0.02980(17) 0.6374(2) 0.56531(17)
C130_12 C 0.1374(2) 0.56531(17) 0.52980(17)
C131_12 C 0.06531(17) 0.52980(17) 0.6374(2)
H84_12 H 0.0271 0.6467 0.5542
H85_12 H 0.1467 0.5542 0.5271
H86_12 H 0.0542 0.5271 0.6467
C134_12 C 0.04515(16) 0.62250(16) 0.56380(15)
C135_12 C 0.12250(16) 0.56380(15) 0.54515(16)
C136_12 C 0.06380(15) 0.54515(16) 0.62250(16)
H89_12 H 0.0536 0.6218 0.5518
H90_12 H 0.1218 0.5518 0.5536
H91_12 H 0.0518 0.5536 0.6218
C139_12 C 0.04809(13) 0.60869(14) 0.57984(14)
C140_12 C 0.10869(14) 0.57984(14) 0.54809(13)
C141_12 C 0.07984(14) 0.54809(13) 0.60869(14)
C144_12 C 0.03528(12) 0.61069(13) 0.59738(12)
C145_12 C 0.11069(13) 0.59738(12) 0.53528(12)
C146_12 C 0.09738(12) 0.53528(12) 0.61069(13)
H94_12 H 0.0373 0.6013 0.6086
H95_12 H 0.1013 0.6086 0.5373
H96_12 H 0.1086 0.5373 0.6013
C149_12 C 0.06431(13) 0.59275(14) 0.57921(13)
C150_12 C 0.07921(13) 0.56431(13) 0.59275(14)
C151_12 C 0.09275(14) 0.57921(13) 0.56431(13)
C152_17 C 0.00149(14) 0.67456(19) 0.6218(2)
Co1_15 Co 0.871072(19) 0.621072(19) 0.5000
N1_19 N 0.85606(10) 0.63708(10) 0.47680(9)
N2_17 N 0.99942(9) 0.59293(12) 0.62671(10)
N3_10 N 0.90899(10) 0.73474(10) 0.61565(9)
N4_13 N 0.87499(10) 0.65072(11) 0.51656(10)
N5_13 N 0.92053(10) 0.65473(10) 0.56152(10)
N6_13 N 0.91003(10) 0.68852(9) 0.57081(10)
N7_13 N 0.93881(9) 0.67314(10) 0.58776(10)
N8_13 N 0.97547(10) 0.62248(10) 0.60074(10)
S1_19 S 0.83020(5) 0.66216(5) 0.45302(5)
C1_19 C 0.84544(12) 0.64741(13) 0.46619(12)
C2_13 C 0.90982(12) 0.71902(12) 0.60166(11)
H1_13 H 0.8979 0.7163 0.5935
C3_13 C 0.92686(12) 0.70698(12) 0.59874(11)
C4_13 C 0.94518(16) 0.71112(14) 0.60983(15)
H2_13 H 0.9573 0.7029 0.6081
C5_13 C 0.94460(17) 0.72757(15) 0.62323(16)
H3_13 H 0.9567 0.7313 0.6307
C6_13 C 0.92686(16) 0.73863(15) 0.62596(14)
H4_13 H 0.9270 0.7497 0.6357
C7_13 C 0.86077(16) 0.66627(15) 0.51535(15)
H5_13 H 0.8501 0.6654 0.5052
C8_13 C 0.86135(17) 0.68277(17) 0.52810(16)
H6_13 H 0.8508 0.6930 0.5272
C9_13 C 0.87674(15) 0.68504(16) 0.54220(15)
H7_13 H 0.8771 0.6969 0.5510
C10_13 C 0.89199(13) 0.66995(13) 0.54374(12)
C11_13 C 0.89040(12) 0.65296(12) 0.53082(11)
H8_13 H 0.9005 0.6423 0.5319
C12_13 C 0.90855(12) 0.67125(12) 0.55959(11)
C13_13 C 0.92529(12) 0.68837(11) 0.58455(12)
C14_13 C 0.93565(12) 0.65670(12) 0.57615(12)
C15_13 C 0.97451(14) 0.60594(14) 0.58809(15)
H9_13 H 0.9837 0.5947 0.5907
C16_13 C 0.96110(15) 0.60426(15) 0.57164(15)
H10_13 H 0.9608 0.5921 0.5633
C17_13 C 0.94798(14) 0.62096(14) 0.56749(13)
H11_13 H 0.9385 0.6203 0.5562
C18_13 C 0.94881(12) 0.63804(13) 0.57949(12)
C19_13 C 0.96265(11) 0.63826(11) 0.59679(12)
H12_13 H 0.9627 0.6500 0.6058
Co3_13 Co 0.878928(19) 0.5000 0.628928(19)
Co5_11 Co 0.878928(19) 0.7500 0.621072(19)
Co6_19 Co 1.0000 0.628928(19) 0.378928(19)
Co8_17 Co 1.0000 0.371072(19) 0.621072(19)
Co9_14 Co 0.75144(2) 0.6250 0.6250
Co10_16 Co 0.8750 0.50144(2) 0.3750
N11_19 N 0.88708(10) 0.60606(10) 0.52320(9)
N12_16 N 0.89394(10) 0.47680(9) 0.61292(10)
N13_16 N 0.86292(10) 0.52320(9) 0.64394(10)
N14_15 N 0.72680(9) 0.64394(10) 0.38708(10)
N15_15 N 0.77320(9) 0.61292(10) 0.35606(10)
N16_17 N 0.99942(9) 0.65707(12) 0.62329(10)
N17_14 N 0.75058(9) 0.62671(10) 0.65707(12)
N18_14 N 0.75058(9) 0.62329(10) 0.59293(12)
N19_16 N 0.87671(10) 0.50058(9) 0.34293(12)
N20_16 N 0.87329(10) 0.50058(9) 0.40707(12)
N21_19 N 0.84101(10) 0.61565(9) 0.51526(10)
N22_19 N 0.86565(9) 0.59101(10) 0.48474(10)
N23_14 N 0.98474(10) 0.65899(10) 0.38435(9)
N24_12 N 0.90899(10) 0.51526(10) 0.63435(9)
N25_14 N 0.88435(9) 0.48474(10) 0.65899(10)
N26_13 N 0.76526(10) 0.65899(10) 0.36565(9)
N28_16 N 0.87501(10) 0.51656(10) 0.59928(11)
N29_15 N 0.76656(10) 0.62501(10) 0.40072(11)
N30_17 N 0.90072(11) 0.62499(10) 0.48344(10)
N31_13 N 0.87499(10) 0.59928(11) 0.73344(10)
N32_16 N 0.98344(10) 0.40072(11) 0.62499(10)
N33_16 N 0.84928(11) 0.48344(10) 0.62501(10)
N34_15 N 0.73344(10) 0.59928(11) 0.37499(10)
N35_19 N 0.82947(10) 0.56152(10) 0.59527(10)
N36_19 N 0.81152(10) 0.57947(10) 0.40473(10)
N37_17 N 0.90473(10) 0.67053(10) 0.43848(10)
N38_13 N 0.92053(10) 0.59527(10) 0.68848(10)
N39_16 N 0.93848(10) 0.40473(10) 0.67053(10)
N40_19 N 0.83997(10) 0.57081(10) 0.56148(9)
N41_19 N 0.82081(10) 0.58997(10) 0.43852(9)
N42_17 N 0.93852(9) 0.66003(10) 0.42919(10)
N43_13 N 0.91003(10) 0.56148(9) 0.67919(10)
N44_16 N 0.92919(10) 0.43852(9) 0.66003(10)
N45_19 N 0.81119(9) 0.58776(10) 0.57686(10)
N46_19 N 0.83776(10) 0.56119(9) 0.42314(10)
N47_17 N 0.92314(10) 0.68881(9) 0.41224(10)
N48_13 N 0.93881(9) 0.57686(10) 0.66224(10)
N49_16 N 0.91224(10) 0.42314(10) 0.68881(9)
N50_14 N 0.77453(10) 0.60074(10) 0.62752(10)
N51_16 N 0.85074(10) 0.52453(10) 0.37248(10)
N52_17 N 0.87248(10) 0.72547(10) 0.39926(10)
N53_13 N 0.97547(10) 0.62752(10) 0.64926(10)
N54_16 N 0.89926(10) 0.37248(10) 0.72547(10)
N55_14 N 0.77453(10) 0.64926(10) 0.62248(10)
N56_16 N 0.89926(10) 0.52453(10) 0.37752(10)
N62_14 N 0.72928(10) 0.65085(10) 0.62484(10)
N63_14 N 0.72928(10) 0.59915(10) 0.62516(10)
N64_16 N 0.90085(10) 0.47928(10) 0.37516(10)
N65_16 N 0.84915(10) 0.47928(10) 0.37484(10)
S3_19 S 0.91216(5) 0.58020(5) 0.54698(5)
S4_16 S 0.91980(5) 0.45302(5) 0.58784(5)
S5_16 S 0.83784(5) 0.54698(5) 0.66980(5)
S6_15 S 0.70302(5) 0.66980(5) 0.41216(5)
S7_15 S 0.79698(5) 0.58784(5) 0.33020(5)
S9_14 S 0.74559(7) 0.63144(15) 0.69939(7)
S10_14 S 0.74559(7) 0.61856(15) 0.55061(7)
S11_16 S 0.88144(15) 0.49559(7) 0.30061(7)
S12_16 S 0.86856(15) 0.49559(7) 0.44939(7)
C27_19 C 0.89741(13) 0.59544(12) 0.53381(12)
C28_16 C 0.90456(12) 0.46619(12) 0.60259(13)
C29_16 C 0.85259(13) 0.53381(12) 0.65456(12)
C30_15 C 0.71619(12) 0.65456(12) 0.39741(13)
C31_15 C 0.78381(12) 0.60259(13) 0.34544(12)
C32_19 C 0.84018(12) 0.60166(11) 0.53098(12)
C33_19 C 0.85166(11) 0.59018(12) 0.46902(12)
C34_17 C 0.96902(12) 0.65982(12) 0.39834(11)
C35_13 C 0.90982(12) 0.53098(12) 0.64834(11)
C36_16 C 0.89834(11) 0.46902(12) 0.65982(12)
H17_19 H 0.8521 0.5935 0.5337
H18_19 H 0.8435 0.6021 0.4663
H19_17 H 0.9663 0.6479 0.4065
H20_13 H 0.8979 0.5337 0.6565
H21_16 H 0.9065 0.4663 0.6479
C37_19 C 0.82314(12) 0.59874(11) 0.54302(12)
C38_19 C 0.84874(11) 0.57314(12) 0.45698(12)
C39_17 C 0.95698(12) 0.67686(12) 0.40126(11)
C40_13 C 0.92686(12) 0.54302(12) 0.65126(11)
C41_16 C 0.90126(11) 0.45698(12) 0.67686(12)
C42_19 C 0.80482(16) 0.60983(15) 0.53888(14)
C43_19 C 0.85983(15) 0.55482(16) 0.46112(14)
C44_17 C 0.96112(14) 0.69518(16) 0.39017(15)
C45_13 C 0.94518(16) 0.53888(14) 0.64017(15)
C46_16 C 0.89017(15) 0.46112(14) 0.69518(16)
H22_19 H 0.7927 0.6081 0.5471
H23_19 H 0.8581 0.5427 0.4529
H24_17 H 0.9529 0.7073 0.3919
H25_13 H 0.9573 0.5471 0.6419
H26_16 H 0.8919 0.4529 0.7073
C47_19 C 0.80540(17) 0.62323(16) 0.52243(15)
C48_19 C 0.87323(16) 0.55540(17) 0.47757(15)
C49_17 C 0.97757(15) 0.69460(17) 0.37677(16)
C50_13 C 0.94460(17) 0.52243(15) 0.62677(16)
C51_16 C 0.87677(16) 0.47757(15) 0.69460(17)
H27_19 H 0.7933 0.6307 0.5187
H28_19 H 0.8807 0.5433 0.4813
H29_17 H 0.9813 0.7067 0.3693
H30_13 H 0.9567 0.5187 0.6193
H31_16 H 0.8693 0.4813 0.7067
C52_19 C 0.82314(16) 0.62596(14) 0.51137(15)
C53_19 C 0.87596(14) 0.57314(16) 0.48863(15)
C54_17 C 0.98863(15) 0.67686(16) 0.37404(14)
C55_13 C 0.92686(16) 0.51137(15) 0.62404(14)
C56_16 C 0.87404(14) 0.48863(15) 0.67686(16)
H32_19 H 0.8230 0.6357 0.5003
H33_19 H 0.8857 0.5730 0.4997
H34_17 H 0.9997 0.6770 0.3643
H35_13 H 0.9270 0.5003 0.6143
H36_16 H 0.8643 0.4997 0.6770
C57_19 C 0.88923(16) 0.51535(15) 0.58373(15)
C58_19 C 0.76535(15) 0.63923(16) 0.41627(15)
C59_17 C 0.91627(15) 0.61077(16) 0.48465(15)
C60_13 C 0.86077(16) 0.58373(15) 0.73465(15)
C61_16 C 0.98465(15) 0.41627(15) 0.61077(16)
H37_19 H 0.8999 0.5052 0.5846
H38_19 H 0.7552 0.6499 0.4154
H39_17 H 0.9154 0.6001 0.4948
H40_13 H 0.8501 0.5846 0.7448
H41_16 H 0.9948 0.4154 0.6001
C62_19 C 0.88865(17) 0.52810(16) 0.56723(17)
C63_19 C 0.77810(16) 0.63865(17) 0.43277(17)
C64_17 C 0.93277(17) 0.61135(17) 0.47190(16)
C65_13 C 0.86135(17) 0.56723(17) 0.72190(16)
C66_16 C 0.97190(16) 0.43277(17) 0.61135(17)
H42_19 H 0.8992 0.5272 0.5570
H43_19 H 0.7772 0.6492 0.4430
H44_17 H 0.9430 0.6008 0.4728
H45_13 H 0.8508 0.5570 0.7228
H46_16 H 0.9728 0.4430 0.6008
C67_19 C 0.87326(15) 0.54220(15) 0.56496(16)
C68_19 C 0.79220(15) 0.62326(15) 0.43504(16)
C69_17 C 0.93504(16) 0.62674(15) 0.45780(15)
C70_13 C 0.87674(15) 0.56496(16) 0.70780(15)
C71_16 C 0.95780(15) 0.43504(16) 0.62674(15)
H47_19 H 0.8729 0.5510 0.5531
H48_19 H 0.8010 0.6229 0.4469
H49_17 H 0.9469 0.6271 0.4490
H50_13 H 0.8771 0.5531 0.6990
H51_16 H 0.9490 0.4469 0.6271
C72_19 C 0.85801(13) 0.54374(12) 0.58005(13)
C73_19 C 0.79374(12) 0.60801(13) 0.41995(13)
C74_17 C 0.91995(13) 0.64199(13) 0.45626(12)
C75_13 C 0.89199(13) 0.58005(13) 0.70626(12)
C76_16 C 0.95626(12) 0.41995(13) 0.64199(13)
C77_19 C 0.85960(12) 0.53082(11) 0.59704(12)
C78_19 C 0.78082(11) 0.60960(12) 0.40296(12)
C79_17 C 0.90296(12) 0.64040(12) 0.46918(11)
C80_13 C 0.89040(12) 0.59704(12) 0.71918(11)
C81_16 C 0.96918(11) 0.40296(12) 0.64040(12)
H52_19 H 0.8495 0.5319 0.6077
H53_19 H 0.7819 0.5995 0.3923
H54_17 H 0.8923 0.6505 0.4681
H55_13 H 0.9005 0.6077 0.7181
H56_16 H 0.9681 0.3923 0.6505
C82_19 C 0.84145(12) 0.55959(11) 0.57875(12)
C83_19 C 0.80959(11) 0.59145(12) 0.42125(12)
C84_17 C 0.92125(12) 0.65855(12) 0.44041(11)
C85_13 C 0.90855(12) 0.57875(12) 0.69041(11)
C86_16 C 0.94041(11) 0.42125(12) 0.65855(12)
C87_19 C 0.82471(12) 0.58455(12) 0.56163(11)
C88_19 C 0.83455(12) 0.57471(12) 0.43837(11)
C89_17 C 0.93837(11) 0.67529(12) 0.41545(12)
C90_13 C 0.92529(12) 0.56163(11) 0.66545(12)
C91_16 C 0.91545(12) 0.43837(11) 0.67529(12)
C92_19 C 0.81435(12) 0.57615(12) 0.59330(12)
C93_19 C 0.82615(12) 0.56435(12) 0.40670(12)
C94_17 C 0.90670(12) 0.68565(12) 0.42385(12)
C95_13 C 0.93565(12) 0.59330(12) 0.67385(12)
C96_16 C 0.92385(12) 0.40670(12) 0.68565(12)
C97_19 C 0.77549(14) 0.58809(15) 0.64406(14)
C98_19 C 0.83809(15) 0.52549(14) 0.35594(14)
C99_17 C 0.85594(14) 0.72451(14) 0.41191(15)
C100_13 C 0.97451(14) 0.64406(14) 0.66191(15)
C101_16 C 0.91191(15) 0.35594(14) 0.72451(14)
H57_19 H 0.7663 0.5907 0.6553
H58_19 H 0.8407 0.5163 0.3447
H59_17 H 0.8447 0.7337 0.4093
H60_13 H 0.9837 0.6553 0.6593
H61_16 H 0.9093 0.3447 0.7337
C102_19 C 0.78890(15) 0.57164(15) 0.64574(15)
C103_19 C 0.82164(15) 0.53890(15) 0.35426(15)
C104_17 C 0.85426(15) 0.71110(15) 0.42836(15)
C105_13 C 0.96110(15) 0.64574(15) 0.67836(15)
C106_16 C 0.92836(15) 0.35426(15) 0.71110(15)
H62_19 H 0.7892 0.5633 0.6579
H63_19 H 0.8133 0.5392 0.3421
H64_17 H 0.8421 0.7108 0.4367
H65_13 H 0.9608 0.6579 0.6867
H66_16 H 0.9367 0.3421 0.7108
C107_19 C 0.80202(14) 0.56749(13) 0.62904(14)
C108_19 C 0.81749(13) 0.55202(14) 0.37096(14)
C109_17 C 0.87096(14) 0.69798(14) 0.43251(13)
C110_13 C 0.94798(14) 0.62904(14) 0.68251(13)
C111_16 C 0.93251(13) 0.37096(14) 0.69798(14)
H67_19 H 0.8115 0.5562 0.6297
H68_19 H 0.8062 0.5615 0.3703
H69_17 H 0.8703 0.6885 0.4438
H70_13 H 0.9385 0.6297 0.6938
H71_16 H 0.9438 0.3703 0.6885
C112_19 C 0.80119(12) 0.57949(12) 0.61196(13)
C113_19 C 0.82949(12) 0.55119(12) 0.38804(13)
C114_17 C 0.88804(13) 0.69881(12) 0.42051(12)
C115_13 C 0.94881(12) 0.61196(13) 0.67051(12)
C116_16 C 0.92051(12) 0.38804(13) 0.69881(12)
C117_19 C 0.78735(11) 0.59679(12) 0.61174(11)
C118_19 C 0.84679(12) 0.53735(11) 0.38826(11)
C119_17 C 0.88826(11) 0.71265(11) 0.40321(12)
C120_13 C 0.96265(11) 0.61174(11) 0.65321(12)
C121_16 C 0.90321(12) 0.38826(11) 0.71265(11)
H72_19 H 0.7873 0.6058 0.6000
H73_19 H 0.8558 0.5373 0.4000
H74_17 H 0.9000 0.7127 0.3942
H75_13 H 0.9627 0.6000 0.6442
H76_16 H 0.8942 0.4000 0.7127
C153_14 C 0.74851(14) 0.6282(2) 0.67456(19)
C154_14 C 0.74851(14) 0.6218(2) 0.57544(19)
C155_16 C 0.8782(2) 0.49851(14) 0.32544(19)
C156_16 C 0.8718(2) 0.49851(14) 0.42456(19)
Co1_16 Co 0.371072(19) 0.628928(19) 0.2500
N1_20 N 0.38708(10) 0.64394(10) 0.22680(9)
N2_18 N 0.34293(12) 0.50058(9) 0.37671(10)
N4_14 N 0.40072(11) 0.62501(10) 0.26656(10)
N5_14 N 0.40473(10) 0.57947(10) 0.31152(10)
N6_14 N 0.43852(9) 0.58997(10) 0.32081(10)
N7_14 N 0.42314(10) 0.56119(9) 0.33776(10)
N8_14 N 0.37248(10) 0.52453(10) 0.35074(10)
N9_11 N 0.37516(10) 0.47928(10) 0.40085(10)
N10_11 N 0.42186(11) 0.43610(11) 0.40591(12)
S1_20 S 0.41216(5) 0.66980(5) 0.20302(5)
S2_18 S 0.30061(7) 0.49559(7) 0.38144(15)
C1_20 C 0.39741(13) 0.65456(12) 0.21619(12)
C2_14 C 0.46902(12) 0.59018(12) 0.35166(11)
H1_14 H 0.4663 0.6021 0.3435
C3_14 C 0.45698(12) 0.57314(12) 0.34874(11)
C4_14 C 0.46112(14) 0.55482(16) 0.35983(15)
H2_14 H 0.4529 0.5427 0.3581
C5_14 C 0.47757(15) 0.55540(17) 0.37323(16)
H3_14 H 0.4813 0.5433 0.3807
C6_14 C 0.48863(15) 0.57314(16) 0.37596(14)
H4_14 H 0.4997 0.5730 0.3857
C7_14 C 0.41627(15) 0.63923(16) 0.26535(15)
H5_14 H 0.4154 0.6499 0.2552
C8_14 C 0.43277(17) 0.63865(17) 0.27810(16)
H6_14 H 0.4430 0.6492 0.2772
C9_14 C 0.43504(16) 0.62326(15) 0.29220(15)
H7_14 H 0.4469 0.6229 0.3010
C10_14 C 0.41995(13) 0.60801(13) 0.29374(12)
C11_14 C 0.40296(12) 0.60960(12) 0.28082(11)
H8_14 H 0.3923 0.5995 0.2819
C12_14 C 0.42125(12) 0.59145(12) 0.30959(11)
C13_14 C 0.43837(11) 0.57471(12) 0.33455(12)
C14_14 C 0.40670(12) 0.56435(12) 0.32615(12)
C15_14 C 0.35594(14) 0.52549(14) 0.33809(15)
H9_14 H 0.3447 0.5163 0.3407
C16_14 C 0.35426(15) 0.53890(15) 0.32164(15)
H10_14 H 0.3421 0.5392 0.3133
C17_14 C 0.37096(14) 0.55202(14) 0.31749(13)
H11_14 H 0.3703 0.5615 0.3062
C18_14 C 0.38804(13) 0.55119(12) 0.32949(12)
C19_14 C 0.38826(11) 0.53735(11) 0.34679(12)
H12_14 H 0.4000 0.5373 0.3558
C20_11 C 0.36165(16) 0.48166(14) 0.41623(15)
H13_11 H 0.3508 0.4916 0.4146
C21_11 C 0.3626(2) 0.47020(17) 0.43469(17)
H14_11 H 0.3533 0.4729 0.4458
C22_11 C 0.37750(16) 0.45485(16) 0.43620(15)
H15_11 H 0.3782 0.4464 0.4482
C23_11 C 0.39131(14) 0.45191(13) 0.42016(14)
C24_11 C 0.38931(13) 0.46472(12) 0.40262(12)
H16_11 H 0.3987 0.4627 0.3914
C25_11 C 0.40725(14) 0.43569(13) 0.42079(13)
C26_18 C 0.32544(19) 0.49851(14) 0.3782(2)
Co3_14 Co 0.2500 0.621072(19) 0.378928(19)
Co7_13 Co 0.378928(19) 0.628928(19) 0.5000
Co8_18 Co 0.121072(19) 0.5000 0.371072(19)
Co9_15 Co 0.3750 0.74856(2) 0.3750
N11_20 N 0.35606(10) 0.61292(10) 0.27320(9)
N12_17 N 0.22680(9) 0.60606(10) 0.36292(10)
N13_17 N 0.27320(9) 0.63708(10) 0.39394(10)
N16_18 N 0.40707(12) 0.50058(9) 0.37329(10)
N17_15 N 0.37671(10) 0.74942(9) 0.40707(12)
N18_15 N 0.37329(10) 0.74942(9) 0.34293(12)
N21_20 N 0.36565(9) 0.65899(10) 0.26526(10)
N22_20 N 0.34101(10) 0.63435(9) 0.23474(10)
N24_13 N 0.26526(10) 0.59101(10) 0.38435(9)
N25_15 N 0.23474(10) 0.61565(9) 0.40899(10)
N28_17 N 0.26656(10) 0.62499(10) 0.34928(11)
N30_18 N 0.37499(10) 0.59928(11) 0.23344(10)
N31_14 N 0.34928(11) 0.62501(10) 0.48344(10)
N32_17 N 0.15072(11) 0.51656(10) 0.37499(10)
N33_17 N 0.23344(10) 0.65072(11) 0.37501(10)
N35_20 N 0.31152(10) 0.67053(10) 0.34527(10)
N36_20 N 0.32947(10) 0.68848(10) 0.15473(10)
N37_18 N 0.42053(10) 0.59527(10) 0.18848(10)
N38_14 N 0.34527(10) 0.57947(10) 0.43848(10)
N39_17 N 0.15473(10) 0.56152(10) 0.42053(10)
N40_20 N 0.32081(10) 0.66003(10) 0.31148(9)
N41_20 N 0.33997(10) 0.67919(10) 0.18852(9)
N42_18 N 0.41003(10) 0.56148(9) 0.17919(10)
N43_14 N 0.31148(9) 0.58997(10) 0.42919(10)
N44_17 N 0.18852(9) 0.57081(10) 0.41003(10)
N45_20 N 0.33776(10) 0.68881(9) 0.32686(10)
N46_20 N 0.31119(9) 0.66224(10) 0.17314(10)
N47_18 N 0.43881(9) 0.57686(10) 0.16224(10)
N48_14 N 0.32686(10) 0.56119(9) 0.41224(10)
N49_17 N 0.17314(10) 0.58776(10) 0.43881(9)
N50_15 N 0.35074(10) 0.72547(10) 0.37752(10)
N52_18 N 0.47547(10) 0.62752(10) 0.14926(10)
N53_14 N 0.37752(10) 0.52453(10) 0.39926(10)
N54_17 N 0.12248(10) 0.60074(10) 0.47547(10)
N55_15 N 0.39926(10) 0.72547(10) 0.37248(10)
N57_11 N 0.40085(10) 0.37516(10) 0.47928(10)
N58_11 N 0.47928(10) 0.40085(10) 0.37516(10)
N62_15 N 0.40085(10) 0.77072(10) 0.37484(10)
N63_15 N 0.34915(10) 0.77072(10) 0.37516(10)
N66_11 N 0.43610(11) 0.40591(12) 0.42186(11)
N67_11 N 0.40591(12) 0.42186(11) 0.43610(11)
S3_20 S 0.33020(5) 0.58784(5) 0.29698(5)
S4_17 S 0.20302(5) 0.58020(5) 0.33784(5)
S5_17 S 0.29698(5) 0.66216(5) 0.41980(5)
S8_18 S 0.44939(7) 0.49559(7) 0.36856(15)
S9_15 S 0.38144(15) 0.75441(7) 0.44939(7)
S10_15 S 0.36856(15) 0.75441(7) 0.30061(7)
C27_20 C 0.34544(12) 0.60259(13) 0.28381(12)
C28_17 C 0.21619(12) 0.59544(12) 0.35259(13)
C29_17 C 0.28381(12) 0.64741(13) 0.40456(12)
C32_20 C 0.35166(11) 0.65982(12) 0.28098(12)
C33_20 C 0.34018(12) 0.64834(11) 0.21902(12)
C34_18 C 0.40982(12) 0.53098(12) 0.14834(11)
C35_14 C 0.28098(12) 0.59018(12) 0.39834(11)
C36_17 C 0.21902(12) 0.60166(11) 0.40982(12)
H17_20 H 0.3435 0.6479 0.2837
H18_20 H 0.3521 0.6565 0.2163
H19_18 H 0.3979 0.5337 0.1565
H20_14 H 0.2837 0.6021 0.4065
H21_17 H 0.2163 0.5935 0.3979
C37_20 C 0.34874(11) 0.67686(12) 0.29302(12)
C38_20 C 0.32314(12) 0.65126(11) 0.20698(12)
C39_18 C 0.42686(12) 0.54302(12) 0.15126(11)
C40_14 C 0.29302(12) 0.57314(12) 0.40126(11)
C41_17 C 0.20698(12) 0.59874(11) 0.42686(12)
C42_20 C 0.35983(15) 0.69518(16) 0.28888(14)
C43_20 C 0.30482(16) 0.64017(15) 0.21112(14)
C44_18 C 0.44518(16) 0.53888(14) 0.14017(15)
C45_14 C 0.28888(14) 0.55482(16) 0.39017(15)
C46_17 C 0.21112(14) 0.60983(15) 0.44518(16)
H22_20 H 0.3581 0.7073 0.2971
H23_20 H 0.2927 0.6419 0.2029
H24_18 H 0.4573 0.5471 0.1419
H25_14 H 0.2971 0.5427 0.3919
H26_17 H 0.2029 0.6081 0.4573
C47_20 C 0.37323(16) 0.69460(17) 0.27243(15)
C48_20 C 0.30540(17) 0.62677(16) 0.22757(15)
C49_18 C 0.44460(17) 0.52243(15) 0.12677(16)
C50_14 C 0.27243(15) 0.55540(17) 0.37677(16)
C51_17 C 0.22757(15) 0.62323(16) 0.44460(17)
H27_20 H 0.3807 0.7067 0.2687
H28_20 H 0.2933 0.6193 0.2313
H29_18 H 0.4567 0.5187 0.1193
H30_14 H 0.2687 0.5433 0.3693
H31_17 H 0.2313 0.6307 0.4567
C52_20 C 0.37596(14) 0.67686(16) 0.26137(15)
C53_20 C 0.32314(16) 0.62404(14) 0.23863(15)
C54_18 C 0.42686(16) 0.51137(15) 0.12404(14)
C55_14 C 0.26137(15) 0.57314(16) 0.37404(14)
C56_17 C 0.23863(15) 0.62596(14) 0.42686(16)
H32_20 H 0.3857 0.6770 0.2503
H33_20 H 0.3230 0.6143 0.2497
H34_18 H 0.4270 0.5003 0.1143
H35_14 H 0.2503 0.5730 0.3643
H36_17 H 0.2497 0.6357 0.4270
C57_20 C 0.26535(15) 0.61077(16) 0.33373(15)
C58_20 C 0.38923(16) 0.73465(15) 0.16627(15)
C59_18 C 0.36077(16) 0.58373(15) 0.23465(15)
C60_14 C 0.33373(15) 0.63923(16) 0.48465(15)
C61_17 C 0.16627(15) 0.51535(15) 0.36077(16)
H37_20 H 0.2552 0.6001 0.3346
H38_20 H 0.3999 0.7448 0.1654
H39_18 H 0.3501 0.5846 0.2448
H40_14 H 0.3346 0.6499 0.4948
H41_17 H 0.1654 0.5052 0.3501
C62_20 C 0.27810(16) 0.61135(17) 0.31723(17)
C63_20 C 0.38865(17) 0.72190(16) 0.18277(17)
C64_18 C 0.36135(17) 0.56723(17) 0.22190(16)
C65_14 C 0.31723(17) 0.63865(17) 0.47190(16)
C66_17 C 0.18277(17) 0.52810(16) 0.36135(17)
H42_20 H 0.2772 0.6008 0.3070
H43_20 H 0.3992 0.7228 0.1930
H44_18 H 0.3508 0.5570 0.2228
H45_14 H 0.3070 0.6492 0.4728
H46_17 H 0.1930 0.5272 0.3508
C67_20 C 0.29220(15) 0.62674(15) 0.31496(16)
C68_20 C 0.37326(15) 0.70780(15) 0.18504(16)
C69_18 C 0.37674(15) 0.56496(16) 0.20780(15)
C70_14 C 0.31496(16) 0.62326(15) 0.45780(15)
C71_17 C 0.18504(16) 0.54220(15) 0.37674(15)
H47_20 H 0.3010 0.6271 0.3031
H48_20 H 0.3729 0.6990 0.1969
H49_18 H 0.3771 0.5531 0.1990
H50_14 H 0.3031 0.6229 0.4490
H51_17 H 0.1969 0.5510 0.3771
C72_20 C 0.29374(12) 0.64199(13) 0.33005(13)
C73_20 C 0.35801(13) 0.70626(12) 0.16995(13)
C74_18 C 0.39199(13) 0.58005(13) 0.20626(12)
C75_14 C 0.33005(13) 0.60801(13) 0.45626(12)
C76_17 C 0.16995(13) 0.54374(12) 0.39199(13)
C77_20 C 0.28082(11) 0.64040(12) 0.34704(12)
C78_20 C 0.35960(12) 0.71918(11) 0.15296(12)
C79_18 C 0.39040(12) 0.59704(12) 0.21918(11)
C80_14 C 0.34704(12) 0.60960(12) 0.46918(11)
C81_17 C 0.15296(12) 0.53082(11) 0.39040(12)
H52_20 H 0.2819 0.6505 0.3577
H53_20 H 0.3495 0.7181 0.1423
H54_18 H 0.4005 0.6077 0.2181
H55_14 H 0.3577 0.5995 0.4681
H56_17 H 0.1423 0.5319 0.4005
C82_20 C 0.30959(11) 0.65855(12) 0.32875(12)
C83_20 C 0.34145(12) 0.69041(11) 0.17125(12)
C84_18 C 0.40855(12) 0.57875(12) 0.19041(11)
C85_14 C 0.32875(12) 0.59145(12) 0.44041(11)
C86_17 C 0.17125(12) 0.55959(11) 0.40855(12)
C87_20 C 0.33455(12) 0.67529(12) 0.31163(11)
C88_20 C 0.32471(12) 0.66545(12) 0.18837(11)
C89_18 C 0.42529(12) 0.56163(11) 0.16545(12)
C90_14 C 0.31163(11) 0.57471(12) 0.41545(12)
C91_17 C 0.18837(11) 0.58455(12) 0.42529(12)
C92_20 C 0.32615(12) 0.68565(12) 0.34330(12)
C93_20 C 0.31435(12) 0.67385(12) 0.15670(12)
C94_18 C 0.43565(12) 0.59330(12) 0.17385(12)
C95_14 C 0.34330(12) 0.56435(12) 0.42385(12)
C96_17 C 0.15670(12) 0.57615(12) 0.43565(12)
C97_20 C 0.33809(15) 0.72451(14) 0.39406(14)
C98_20 C 0.27549(14) 0.66191(15) 0.10594(14)
C99_18 C 0.47451(14) 0.64406(14) 0.16191(15)
C100_14 C 0.39406(14) 0.52549(14) 0.41191(15)
C101_17 C 0.10594(14) 0.58809(15) 0.47451(14)
H57_20 H 0.3407 0.7337 0.4053
H58_20 H 0.2663 0.6593 0.0947
H59_18 H 0.4837 0.6553 0.1593
H60_14 H 0.4053 0.5163 0.4093
H61_17 H 0.0947 0.5907 0.4837
C102_20 C 0.32164(15) 0.71110(15) 0.39574(15)
C103_20 C 0.28890(15) 0.67836(15) 0.10426(15)
C104_18 C 0.46110(15) 0.64574(15) 0.17836(15)
C105_14 C 0.39574(15) 0.53890(15) 0.42836(15)
C106_17 C 0.10426(15) 0.57164(15) 0.46110(15)
H62_20 H 0.3133 0.7108 0.4079
H63_20 H 0.2892 0.6867 0.0921
H64_18 H 0.4608 0.6579 0.1867
H65_14 H 0.4079 0.5392 0.4367
H66_17 H 0.0921 0.5633 0.4608
C107_20 C 0.31749(13) 0.69798(14) 0.37904(14)
C108_20 C 0.30202(14) 0.68251(13) 0.12096(14)
C109_18 C 0.44798(14) 0.62904(14) 0.18251(13)
C110_14 C 0.37904(14) 0.55202(14) 0.43251(13)
C111_17 C 0.12096(14) 0.56749(13) 0.44798(14)
H67_20 H 0.3062 0.6885 0.3797
H68_20 H 0.3115 0.6938 0.1203
H69_18 H 0.4385 0.6297 0.1938
H70_14 H 0.3797 0.5615 0.4438
H71_17 H 0.1203 0.5562 0.4385
C112_20 C 0.32949(12) 0.69881(12) 0.36196(13)
C113_20 C 0.30119(12) 0.67051(12) 0.13804(13)
C114_18 C 0.44881(12) 0.61196(13) 0.17051(12)
C115_14 C 0.36196(13) 0.55119(12) 0.42051(12)
C116_17 C 0.13804(13) 0.57949(12) 0.44881(12)
C117_20 C 0.34679(12) 0.71265(11) 0.36174(11)
C118_20 C 0.28735(11) 0.65321(12) 0.13826(11)
C119_18 C 0.46265(11) 0.61174(11) 0.15321(12)
C120_14 C 0.36174(11) 0.53735(11) 0.40321(12)
C121_17 C 0.13826(11) 0.59679(12) 0.46265(11)
H72_20 H 0.3558 0.7127 0.3500
H73_20 H 0.2873 0.6442 0.1500
H74_18 H 0.4627 0.6000 0.1442
H75_14 H 0.3500 0.5373 0.3942
H76_17 H 0.1500 0.6058 0.4627
C122_11 C 0.41623(15) 0.36165(16) 0.48166(14)
C123_11 C 0.48166(14) 0.41623(15) 0.36165(16)
H77_11 H 0.4146 0.3508 0.4916
H78_11 H 0.4916 0.4146 0.3508
C127_11 C 0.43469(17) 0.3626(2) 0.47020(17)
C128_11 C 0.47020(17) 0.43469(17) 0.3626(2)
H82_11 H 0.4458 0.3533 0.4729
H83_11 H 0.4729 0.4458 0.3533
C132_11 C 0.43620(15) 0.37750(16) 0.45485(16)
C133_11 C 0.45485(16) 0.43620(15) 0.37750(16)
H87_11 H 0.4482 0.3782 0.4464
H88_11 H 0.4464 0.4482 0.3782
C137_11 C 0.42016(14) 0.39131(14) 0.45191(13)
C138_11 C 0.45191(13) 0.42016(14) 0.39131(14)
C142_11 C 0.40262(12) 0.38931(13) 0.46472(12)
C143_11 C 0.46472(12) 0.40262(12) 0.38931(13)
H92_11 H 0.3914 0.3987 0.4627
H93_11 H 0.4627 0.3914 0.3987
C147_11 C 0.43569(13) 0.42079(13) 0.40725(14)
C148_11 C 0.42079(13) 0.40725(14) 0.43569(13)
C152_18 C 0.42456(19) 0.49851(14) 0.3718(2)
C153_15 C 0.3782(2) 0.75149(14) 0.42456(19)
C154_15 C 0.3718(2) 0.75149(14) 0.32544(19)
Co1_17 Co 0.2500 0.371072(19) 0.628928(19)
N1_21 N 0.27320(9) 0.35606(10) 0.61292(10)
N2_19 N 0.12329(10) 0.49942(9) 0.65707(12)
N4_15 N 0.23344(10) 0.37499(10) 0.59928(11)
N5_15 N 0.18848(10) 0.42053(10) 0.59527(10)
N6_15 N 0.17919(10) 0.41003(10) 0.56148(9)
N7_15 N 0.16224(10) 0.43881(9) 0.57686(10)
N8_15 N 0.14926(10) 0.47547(10) 0.62752(10)
S1_21 S 0.29698(5) 0.33020(5) 0.58784(5)
S2_19 S 0.11856(15) 0.50441(7) 0.69939(7)
C1_21 C 0.28381(12) 0.34544(12) 0.60259(13)
C2_15 C 0.14834(11) 0.40982(12) 0.53098(12)
H1_15 H 0.1565 0.3979 0.5337
C3_15 C 0.15126(11) 0.42686(12) 0.54302(12)
C4_15 C 0.14017(15) 0.44518(16) 0.53888(14)
H2_15 H 0.1419 0.4573 0.5471
C5_15 C 0.12677(16) 0.44460(17) 0.52243(15)
H3_15 H 0.1193 0.4567 0.5187
C6_15 C 0.12404(14) 0.42686(16) 0.51137(15)
H4_15 H 0.1143 0.4270 0.5003
C7_15 C 0.23465(15) 0.36077(16) 0.58373(15)
H5_15 H 0.2448 0.3501 0.5846
C8_15 C 0.22190(16) 0.36135(17) 0.56723(17)
H6_15 H 0.2228 0.3508 0.5570
C9_15 C 0.20780(15) 0.37674(15) 0.56496(16)
H7_15 H 0.1990 0.3771 0.5531
C10_15 C 0.20626(12) 0.39199(13) 0.58005(13)
C11_15 C 0.21918(11) 0.39040(12) 0.59704(12)
H8_15 H 0.2181 0.4005 0.6077
C12_15 C 0.19041(11) 0.40855(12) 0.57875(12)
C13_15 C 0.16545(12) 0.42529(12) 0.56163(11)
C14_15 C 0.17385(12) 0.43565(12) 0.59330(12)
C15_15 C 0.16191(15) 0.47451(14) 0.64406(14)
H9_15 H 0.1593 0.4837 0.6553
C16_15 C 0.17836(15) 0.46110(15) 0.64574(15)
H10_15 H 0.1867 0.4608 0.6579
C17_15 C 0.18251(13) 0.44798(14) 0.62904(14)
H11_15 H 0.1938 0.4385 0.6297
C18_15 C 0.17051(12) 0.44881(12) 0.61196(13)
C19_15 C 0.15321(12) 0.46265(11) 0.61174(11)
H12_15 H 0.1442 0.4627 0.6000
C26_19 C 0.1218(2) 0.50149(14) 0.67456(19)
Co6_20 Co 0.371072(19) 0.5000 0.621072(19)
Co9_16 Co 0.1250 0.25144(2) 0.6250
Co10_17 Co 0.3750 0.3750 0.74856(2)
N11_21 N 0.22680(9) 0.38708(10) 0.64394(10)
N12_18 N 0.13708(10) 0.39394(10) 0.77320(9)
N13_18 N 0.10606(10) 0.36292(10) 0.72680(9)
N16_19 N 0.12671(10) 0.49942(9) 0.59293(12)
N17_16 N 0.09293(12) 0.25058(9) 0.62329(10)
N18_16 N 0.15707(12) 0.25058(9) 0.62671(10)
N19_17 N 0.40707(12) 0.37671(10) 0.74942(9)
N20_17 N 0.34293(12) 0.37329(10) 0.74942(9)
N21_21 N 0.23474(10) 0.34101(10) 0.63435(9)
N22_21 N 0.26526(10) 0.36565(9) 0.65899(10)
N23_15 N 0.36565(9) 0.48474(10) 0.59101(10)
N24_14 N 0.11565(9) 0.40899(10) 0.73474(10)
N28_18 N 0.15072(11) 0.37501(10) 0.73344(10)
N30_19 N 0.26656(10) 0.40072(11) 0.62501(10)
N31_15 N 0.01656(10) 0.37499(10) 0.65072(11)
N33_18 N 0.12499(10) 0.34928(11) 0.76656(10)
N35_21 N 0.15473(10) 0.32947(10) 0.68848(10)
N36_21 N 0.34527(10) 0.31152(10) 0.67053(10)
N37_19 N 0.31152(10) 0.40473(10) 0.57947(10)
N38_15 N 0.06152(10) 0.42053(10) 0.65473(10)
N40_21 N 0.18852(9) 0.33997(10) 0.67919(10)
N41_21 N 0.31148(9) 0.32081(10) 0.66003(10)
N42_19 N 0.32081(10) 0.43852(9) 0.58997(10)
N43_15 N 0.07081(10) 0.41003(10) 0.68852(9)
N45_21 N 0.17314(10) 0.31119(9) 0.66224(10)
N46_21 N 0.32686(10) 0.33776(10) 0.68881(9)
N47_19 N 0.33776(10) 0.42314(10) 0.56119(9)
N48_15 N 0.08776(10) 0.43881(9) 0.67314(10)
N50_16 N 0.12248(10) 0.27453(10) 0.64926(10)
N51_17 N 0.37752(10) 0.35074(10) 0.72547(10)
N52_19 N 0.35074(10) 0.37248(10) 0.52453(10)
N53_15 N 0.10074(10) 0.47547(10) 0.62248(10)
N55_16 N 0.12752(10) 0.27453(10) 0.60074(10)
N56_17 N 0.37248(10) 0.39926(10) 0.72547(10)
N62_16 N 0.12516(10) 0.22928(10) 0.59915(10)
N63_16 N 0.12484(10) 0.22928(10) 0.65085(10)
N64_17 N 0.37484(10) 0.40085(10) 0.77072(10)
N65_17 N 0.37516(10) 0.34915(10) 0.77072(10)
S3_21 S 0.20302(5) 0.41216(5) 0.66980(5)
S4_18 S 0.16216(5) 0.41980(5) 0.79698(5)
S5_18 S 0.08020(5) 0.33784(5) 0.70302(5)
S8_19 S 0.13144(15) 0.50441(7) 0.55061(7)
S9_16 S 0.05061(7) 0.24559(7) 0.61856(15)
S10_16 S 0.19939(7) 0.24559(7) 0.63144(15)
S11_17 S 0.44939(7) 0.38144(15) 0.75441(7)
S12_17 S 0.30061(7) 0.36856(15) 0.75441(7)
C27_21 C 0.21619(12) 0.39741(13) 0.65456(12)
C28_18 C 0.14741(13) 0.40456(12) 0.78381(12)
C29_18 C 0.09544(12) 0.35259(13) 0.71619(12)
C32_21 C 0.21902(12) 0.34018(12) 0.64834(11)
C33_21 C 0.28098(12) 0.35166(11) 0.65982(12)
C34_19 C 0.35166(11) 0.46902(12) 0.59018(12)
C35_15 C 0.10166(11) 0.40982(12) 0.71902(12)
H17_21 H 0.2163 0.3521 0.6565
H18_21 H 0.2837 0.3435 0.6479
H19_19 H 0.3435 0.4663 0.6021
H20_15 H 0.0935 0.3979 0.7163
C37_21 C 0.20698(12) 0.32314(12) 0.65126(11)
C38_21 C 0.29302(12) 0.34874(11) 0.67686(12)
C39_19 C 0.34874(11) 0.45698(12) 0.57314(12)
C40_15 C 0.09874(11) 0.42686(12) 0.70698(12)
C42_21 C 0.21112(14) 0.30482(16) 0.64017(15)
C43_21 C 0.28888(14) 0.35983(15) 0.69518(16)
C44_19 C 0.35983(15) 0.46112(14) 0.55482(16)
C45_15 C 0.10983(15) 0.44518(16) 0.71112(14)
H22_21 H 0.2029 0.2927 0.6419
H23_21 H 0.2971 0.3581 0.7073
H24_19 H 0.3581 0.4529 0.5427
H25_15 H 0.1081 0.4573 0.7029
C47_21 C 0.22757(15) 0.30540(17) 0.62677(16)
C48_21 C 0.27243(15) 0.37323(16) 0.69460(17)
C49_19 C 0.37323(16) 0.47757(15) 0.55540(17)
C50_15 C 0.12323(16) 0.44460(17) 0.72757(15)
H27_21 H 0.2313 0.2933 0.6193
H28_21 H 0.2687 0.3807 0.7067
H29_19 H 0.3807 0.4813 0.5433
H30_15 H 0.1307 0.4567 0.7313
C52_21 C 0.23863(15) 0.32314(16) 0.62404(14)
C53_21 C 0.26137(15) 0.37596(14) 0.67686(16)
C54_19 C 0.37596(14) 0.48863(15) 0.57314(16)
C55_15 C 0.12596(14) 0.42686(16) 0.73863(15)
H32_21 H 0.2497 0.3230 0.6143
H33_21 H 0.2503 0.3857 0.6770
H34_19 H 0.3857 0.4997 0.5730
H35_15 H 0.1357 0.4270 0.7497
C57_21 C 0.16627(15) 0.38923(16) 0.73465(15)
C58_21 C 0.33373(15) 0.26535(15) 0.61077(16)
C59_19 C 0.26535(15) 0.41627(15) 0.63923(16)
C60_15 C 0.01535(15) 0.36077(16) 0.66627(15)
H37_21 H 0.1654 0.3999 0.7448
H38_21 H 0.3346 0.2552 0.6001
H39_19 H 0.2552 0.4154 0.6499
H40_15 H 0.0052 0.3501 0.6654
C62_21 C 0.18277(17) 0.38865(17) 0.72190(16)
C63_21 C 0.31723(17) 0.27810(16) 0.61135(17)
C64_19 C 0.27810(16) 0.43277(17) 0.63865(17)
C65_15 C 0.02810(16) 0.36135(17) 0.68277(17)
H42_21 H 0.1930 0.3992 0.7228
H43_21 H 0.3070 0.2772 0.6008
H44_19 H 0.2772 0.4430 0.6492
H45_15 H 0.0272 0.3508 0.6930
C67_21 C 0.18504(16) 0.37326(15) 0.70780(15)
C68_21 C 0.31496(16) 0.29220(15) 0.62674(15)
C69_19 C 0.29220(15) 0.43504(16) 0.62326(15)
C70_15 C 0.04220(15) 0.37674(15) 0.68504(16)
H47_21 H 0.1969 0.3729 0.6990
H48_21 H 0.3031 0.3010 0.6271
H49_19 H 0.3010 0.4469 0.6229
H50_15 H 0.0510 0.3771 0.6969
C72_21 C 0.16995(13) 0.35801(13) 0.70626(12)
C73_21 C 0.33005(13) 0.29374(12) 0.64199(13)
C74_19 C 0.29374(12) 0.41995(13) 0.60801(13)
C75_15 C 0.04374(12) 0.39199(13) 0.66995(13)
C77_21 C 0.15296(12) 0.35960(12) 0.71918(11)
C78_21 C 0.34704(12) 0.28082(11) 0.64040(12)
C79_19 C 0.28082(11) 0.40296(12) 0.60960(12)
C80_15 C 0.03082(11) 0.39040(12) 0.65296(12)
H52_21 H 0.1423 0.3495 0.7181
H53_21 H 0.3577 0.2819 0.6505
H54_19 H 0.2819 0.3923 0.5995
H55_15 H 0.0319 0.4005 0.6423
C82_21 C 0.17125(12) 0.34145(12) 0.69041(11)
C83_21 C 0.32875(12) 0.30959(11) 0.65855(12)
C84_19 C 0.30959(11) 0.42125(12) 0.59145(12)
C85_15 C 0.05959(11) 0.40855(12) 0.67125(12)
C87_21 C 0.18837(11) 0.32471(12) 0.66545(12)
C88_21 C 0.31163(11) 0.33455(12) 0.67529(12)
C89_19 C 0.33455(12) 0.43837(11) 0.57471(12)
C90_15 C 0.08455(12) 0.42529(12) 0.68837(11)
C92_21 C 0.15670(12) 0.31435(12) 0.67385(12)
C93_21 C 0.34330(12) 0.32615(12) 0.68565(12)
C94_19 C 0.32615(12) 0.40670(12) 0.56435(12)
C95_15 C 0.07615(12) 0.43565(12) 0.65670(12)
C97_21 C 0.10594(14) 0.27549(14) 0.66191(15)
C98_21 C 0.39406(14) 0.33809(15) 0.72451(14)
C99_19 C 0.33809(15) 0.35594(14) 0.52549(14)
C100_15 C 0.08809(15) 0.47451(14) 0.60594(14)
H57_21 H 0.0947 0.2663 0.6593
H58_21 H 0.4053 0.3407 0.7337
H59_19 H 0.3407 0.3447 0.5163
H60_15 H 0.0907 0.4837 0.5947
C102_21 C 0.10426(15) 0.28890(15) 0.67836(15)
C103_21 C 0.39574(15) 0.32164(15) 0.71110(15)
C104_19 C 0.32164(15) 0.35426(15) 0.53890(15)
C105_15 C 0.07164(15) 0.46110(15) 0.60426(15)
H62_21 H 0.0921 0.2892 0.6867
H63_21 H 0.4079 0.3133 0.7108
H64_19 H 0.3133 0.3421 0.5392
H65_15 H 0.0633 0.4608 0.5921
C107_21 C 0.12096(14) 0.30202(14) 0.68251(13)
C108_21 C 0.37904(14) 0.31749(13) 0.69798(14)
C109_19 C 0.31749(13) 0.37096(14) 0.55202(14)
C110_15 C 0.06749(13) 0.44798(14) 0.62096(14)
H67_21 H 0.1203 0.3115 0.6938
H68_21 H 0.3797 0.3062 0.6885
H69_19 H 0.3062 0.3703 0.5615
H70_15 H 0.0562 0.4385 0.6203
C112_21 C 0.13804(13) 0.30119(12) 0.67051(12)
C113_21 C 0.36196(13) 0.32949(12) 0.69881(12)
C114_19 C 0.32949(12) 0.38804(13) 0.55119(12)
C115_15 C 0.07949(12) 0.44881(12) 0.63804(13)
C117_21 C 0.13826(11) 0.28735(11) 0.65321(12)
C118_21 C 0.36174(11) 0.34679(12) 0.71265(11)
C119_19 C 0.34679(12) 0.38826(11) 0.53735(11)
C120_15 C 0.09679(12) 0.46265(11) 0.63826(11)
H72_21 H 0.1500 0.2873 0.6442
H73_21 H 0.3500 0.3558 0.7127
H74_19 H 0.3558 0.4000 0.5373
H75_15 H 0.1058 0.4627 0.6500
C152_19 C 0.1282(2) 0.50149(14) 0.57544(19)
C153_16 C 0.07544(19) 0.24851(14) 0.6218(2)
C154_16 C 0.17456(19) 0.24851(14) 0.6282(2)
C155_17 C 0.42456(19) 0.3782(2) 0.75149(14)
C156_17 C 0.32544(19) 0.3718(2) 0.75149(14)
Co1_18 Co 0.5000 0.378928(19) 0.628928(19)
N1_22 N 0.52320(9) 0.36292(10) 0.64394(10)
N2_20 N 0.37329(10) 0.40707(12) 0.50058(9)
N4_16 N 0.48344(10) 0.34928(11) 0.62501(10)
N5_16 N 0.43848(10) 0.34527(10) 0.57947(10)
N6_16 N 0.42919(10) 0.31148(9) 0.58997(10)
N7_16 N 0.41224(10) 0.32686(10) 0.56119(9)
N8_16 N 0.39926(10) 0.37752(10) 0.52453(10)
S1_22 S 0.54698(5) 0.33784(5) 0.66980(5)
S2_20 S 0.36856(15) 0.44939(7) 0.49559(7)
C1_22 C 0.53381(12) 0.35259(13) 0.65456(12)
C2_16 C 0.39834(11) 0.28098(12) 0.59018(12)
H1_16 H 0.4065 0.2837 0.6021
C3_16 C 0.40126(11) 0.29302(12) 0.57314(12)
C4_16 C 0.39017(15) 0.28888(14) 0.55482(16)
H2_16 H 0.3919 0.2971 0.5427
C5_16 C 0.37677(16) 0.27243(15) 0.55540(17)
H3_16 H 0.3693 0.2687 0.5433
C6_16 C 0.37404(14) 0.26137(15) 0.57314(16)
H4_16 H 0.3643 0.2503 0.5730
C7_16 C 0.48465(15) 0.33373(15) 0.63923(16)
H5_16 H 0.4948 0.3346 0.6499
C8_16 C 0.47190(16) 0.31723(17) 0.63865(17)
H6_16 H 0.4728 0.3070 0.6492
C9_16 C 0.45780(15) 0.31496(16) 0.62326(15)
H7_16 H 0.4490 0.3031 0.6229
C10_16 C 0.45626(12) 0.33005(13) 0.60801(13)
C11_16 C 0.46918(11) 0.34704(12) 0.60960(12)
H8_16 H 0.4681 0.3577 0.5995
C12_16 C 0.44041(11) 0.32875(12) 0.59145(12)
C13_16 C 0.41545(12) 0.31163(11) 0.57471(12)
C14_16 C 0.42385(12) 0.34330(12) 0.56435(12)
C15_16 C 0.41191(15) 0.39406(14) 0.52549(14)
H9_16 H 0.4093 0.4053 0.5163
C16_16 C 0.42836(15) 0.39574(15) 0.53890(15)
H10_16 H 0.4367 0.4079 0.5392
C17_16 C 0.43251(13) 0.37904(14) 0.55202(14)
H11_16 H 0.4438 0.3797 0.5615
C18_16 C 0.42051(12) 0.36196(13) 0.55119(12)
C19_16 C 0.40321(12) 0.36174(11) 0.53735(11)
H12_16 H 0.3942 0.3500 0.5373
C26_20 C 0.3718(2) 0.42456(19) 0.49851(14)
Co6_21 Co 0.621072(19) 0.371072(19) 0.5000
Co10_18 Co 0.6250 0.49856(2) 0.6250
N11_22 N 0.47680(9) 0.39394(10) 0.61292(10)
N12_19 N 0.38708(10) 0.52320(9) 0.60606(10)
N13_19 N 0.35606(10) 0.47680(9) 0.63708(10)
N16_20 N 0.37671(10) 0.34293(12) 0.50058(9)
N19_18 N 0.65707(12) 0.49942(9) 0.62329(10)
N20_18 N 0.59293(12) 0.49942(9) 0.62671(10)
N21_22 N 0.48474(10) 0.38435(9) 0.65899(10)
N22_22 N 0.51526(10) 0.40899(10) 0.63435(9)
N23_16 N 0.61565(9) 0.34101(10) 0.51526(10)
N25_16 N 0.34101(10) 0.51526(10) 0.61565(9)
N28_19 N 0.40072(11) 0.48344(10) 0.62499(10)
N30_20 N 0.51656(10) 0.37501(10) 0.59928(11)
N32_18 N 0.37501(10) 0.59928(11) 0.51656(10)
N33_19 N 0.37499(10) 0.51656(10) 0.65072(11)
N35_22 N 0.40473(10) 0.43848(10) 0.67053(10)
N36_22 N 0.59527(10) 0.42053(10) 0.68848(10)
N37_20 N 0.56152(10) 0.32947(10) 0.59527(10)
N39_18 N 0.32947(10) 0.59527(10) 0.56152(10)
N40_22 N 0.43852(9) 0.42919(10) 0.66003(10)
N41_22 N 0.56148(9) 0.41003(10) 0.67919(10)
N42_20 N 0.57081(10) 0.33997(10) 0.56148(9)
N44_18 N 0.33997(10) 0.56148(9) 0.57081(10)
N45_22 N 0.42314(10) 0.41224(10) 0.68881(9)
N46_22 N 0.57686(10) 0.43881(9) 0.66224(10)
N47_20 N 0.58776(10) 0.31119(9) 0.57686(10)
N49_18 N 0.31119(9) 0.57686(10) 0.58776(10)
N51_18 N 0.62752(10) 0.47547(10) 0.64926(10)
N52_20 N 0.60074(10) 0.27453(10) 0.62752(10)
N54_18 N 0.27453(10) 0.62752(10) 0.60074(10)
N56_18 N 0.62248(10) 0.47547(10) 0.60074(10)
N64_18 N 0.62484(10) 0.52072(10) 0.59915(10)
N65_18 N 0.62516(10) 0.52072(10) 0.65085(10)
S3_22 S 0.45302(5) 0.41980(5) 0.58784(5)
S4_19 S 0.41216(5) 0.54698(5) 0.58020(5)
S5_19 S 0.33020(5) 0.45302(5) 0.66216(5)
S8_20 S 0.38144(15) 0.30061(7) 0.49559(7)
S11_18 S 0.69939(7) 0.50441(7) 0.61856(15)
S12_18 S 0.55061(7) 0.50441(7) 0.63144(15)
C27_22 C 0.46619(12) 0.40456(12) 0.60259(13)
C28_19 C 0.39741(13) 0.53381(12) 0.59544(12)
C29_19 C 0.34544(12) 0.46619(12) 0.64741(13)
C32_22 C 0.46902(12) 0.39834(11) 0.65982(12)
C33_22 C 0.53098(12) 0.40982(12) 0.64834(11)
C34_20 C 0.60166(11) 0.34018(12) 0.53098(12)
C36_18 C 0.34018(12) 0.53098(12) 0.60166(11)
H17_22 H 0.4663 0.4065 0.6479
H18_22 H 0.5337 0.3979 0.6565
H19_20 H 0.5935 0.3521 0.5337
H21_18 H 0.3521 0.5337 0.5935
C37_22 C 0.45698(12) 0.40126(11) 0.67686(12)
C38_22 C 0.54302(12) 0.42686(12) 0.65126(11)
C39_20 C 0.59874(11) 0.32314(12) 0.54302(12)
C41_18 C 0.32314(12) 0.54302(12) 0.59874(11)
C42_22 C 0.46112(14) 0.39017(15) 0.69518(16)
C43_22 C 0.53888(14) 0.44518(16) 0.64017(15)
C44_20 C 0.60983(15) 0.30482(16) 0.53888(14)
C46_18 C 0.30482(16) 0.53888(14) 0.60983(15)
H22_22 H 0.4529 0.3919 0.7073
H23_22 H 0.5471 0.4573 0.6419
H24_20 H 0.6081 0.2927 0.5471
H26_18 H 0.2927 0.5471 0.6081
C47_22 C 0.47757(15) 0.37677(16) 0.69460(17)
C48_22 C 0.52243(15) 0.44460(17) 0.62677(16)
C49_20 C 0.62323(16) 0.30540(17) 0.52243(15)
C51_18 C 0.30540(17) 0.52243(15) 0.62323(16)
H27_22 H 0.4813 0.3693 0.7067
H28_22 H 0.5187 0.4567 0.6193
H29_20 H 0.6307 0.2933 0.5187
H31_18 H 0.2933 0.5187 0.6307
C52_22 C 0.48863(15) 0.37404(14) 0.67686(16)
C53_22 C 0.51137(15) 0.42686(16) 0.62404(14)
C54_20 C 0.62596(14) 0.32314(16) 0.51137(15)
C56_18 C 0.32314(16) 0.51137(15) 0.62596(14)
H32_22 H 0.4997 0.3643 0.6770
H33_22 H 0.5003 0.4270 0.6143
H34_20 H 0.6357 0.3230 0.5003
H36_18 H 0.3230 0.5003 0.6357
C57_22 C 0.41627(15) 0.48465(15) 0.61077(16)
C58_22 C 0.58373(15) 0.36077(16) 0.73465(15)
C59_20 C 0.51535(15) 0.38923(16) 0.58373(15)
C61_18 C 0.38923(16) 0.58373(15) 0.51535(15)
H37_22 H 0.4154 0.4948 0.6001
H38_22 H 0.5846 0.3501 0.7448
H39_20 H 0.5052 0.3999 0.5846
H41_18 H 0.3999 0.5846 0.5052
C62_22 C 0.43277(17) 0.47190(16) 0.61135(17)
C63_22 C 0.56723(17) 0.36135(17) 0.72190(16)
C64_20 C 0.52810(16) 0.38865(17) 0.56723(17)
C66_18 C 0.38865(17) 0.56723(17) 0.52810(16)
H42_22 H 0.4430 0.4728 0.6008
H43_22 H 0.5570 0.3508 0.7228
H44_20 H 0.5272 0.3992 0.5570
H46_18 H 0.3992 0.5570 0.5272
C67_22 C 0.43504(16) 0.45780(15) 0.62674(15)
C68_22 C 0.56496(16) 0.37674(15) 0.70780(15)
C69_20 C 0.54220(15) 0.37326(15) 0.56496(16)
C71_18 C 0.37326(15) 0.56496(16) 0.54220(15)
H47_22 H 0.4469 0.4490 0.6271
H48_22 H 0.5531 0.3771 0.6990
H49_20 H 0.5510 0.3729 0.5531
H51_18 H 0.3729 0.5531 0.5510
C72_22 C 0.41995(13) 0.45626(12) 0.64199(13)
C73_22 C 0.58005(13) 0.39199(13) 0.70626(12)
C74_20 C 0.54374(12) 0.35801(13) 0.58005(13)
C76_18 C 0.35801(13) 0.58005(13) 0.54374(12)
C77_22 C 0.40296(12) 0.46918(11) 0.64040(12)
C78_22 C 0.59704(12) 0.39040(12) 0.71918(11)
C79_20 C 0.53082(11) 0.35960(12) 0.59704(12)
C81_18 C 0.35960(12) 0.59704(12) 0.53082(11)
H52_22 H 0.3923 0.4681 0.6505
H53_22 H 0.6077 0.4005 0.7181
H54_20 H 0.5319 0.3495 0.6077
H56_18 H 0.3495 0.6077 0.5319
C82_22 C 0.42125(12) 0.44041(11) 0.65855(12)
C83_22 C 0.57875(12) 0.40855(12) 0.69041(11)
C84_20 C 0.55959(11) 0.34145(12) 0.57875(12)
C86_18 C 0.34145(12) 0.57875(12) 0.55959(11)
C87_22 C 0.43837(11) 0.41545(12) 0.67529(12)
C88_22 C 0.56163(11) 0.42529(12) 0.66545(12)
C89_20 C 0.58455(12) 0.32471(12) 0.56163(11)
C91_18 C 0.32471(12) 0.56163(11) 0.58455(12)
C92_22 C 0.40670(12) 0.42385(12) 0.68565(12)
C93_22 C 0.59330(12) 0.43565(12) 0.67385(12)
C94_20 C 0.57615(12) 0.31435(12) 0.59330(12)
C96_18 C 0.31435(12) 0.59330(12) 0.57615(12)
C97_22 C 0.35594(14) 0.41191(15) 0.72451(14)
C98_22 C 0.64406(14) 0.47451(14) 0.66191(15)
C99_20 C 0.58809(15) 0.27549(14) 0.64406(14)
C101_18 C 0.27549(14) 0.64406(14) 0.58809(15)
H57_22 H 0.3447 0.4093 0.7337
H58_22 H 0.6553 0.4837 0.6593
H59_20 H 0.5907 0.2663 0.6553
H61_18 H 0.2663 0.6553 0.5907
C102_22 C 0.35426(15) 0.42836(15) 0.71110(15)
C103_22 C 0.64574(15) 0.46110(15) 0.67836(15)
C104_20 C 0.57164(15) 0.28890(15) 0.64574(15)
C106_18 C 0.28890(15) 0.64574(15) 0.57164(15)
H62_22 H 0.3421 0.4367 0.7108
H63_22 H 0.6579 0.4608 0.6867
H64_20 H 0.5633 0.2892 0.6579
H66_18 H 0.2892 0.6579 0.5633
C107_22 C 0.37096(14) 0.43251(13) 0.69798(14)
C108_22 C 0.62904(14) 0.44798(14) 0.68251(13)
C109_20 C 0.56749(13) 0.30202(14) 0.62904(14)
C111_18 C 0.30202(14) 0.62904(14) 0.56749(13)
H67_22 H 0.3703 0.4438 0.6885
H68_22 H 0.6297 0.4385 0.6938
H69_20 H 0.5562 0.3115 0.6297
H71_18 H 0.3115 0.6297 0.5562
C112_22 C 0.38804(13) 0.42051(12) 0.69881(12)
C113_22 C 0.61196(13) 0.44881(12) 0.67051(12)
C114_20 C 0.57949(12) 0.30119(12) 0.61196(13)
C116_18 C 0.30119(12) 0.61196(13) 0.57949(12)
C117_22 C 0.38826(11) 0.40321(12) 0.71265(11)
C118_22 C 0.61174(11) 0.46265(11) 0.65321(12)
C119_20 C 0.59679(12) 0.28735(11) 0.61174(11)
C121_18 C 0.28735(11) 0.61174(11) 0.59679(12)
H72_22 H 0.4000 0.3942 0.7127
H73_22 H 0.6000 0.4627 0.6442
H74_20 H 0.6058 0.2873 0.6000
H76_18 H 0.2873 0.6000 0.6058
C152_20 C 0.3782(2) 0.32544(19) 0.49851(14)
C155_18 C 0.67456(19) 0.50149(14) 0.6218(2)
C156_18 C 0.57544(19) 0.50149(14) 0.6282(2)
N1_23 N 0.13708(10) 0.47680(9) 0.35606(10)
N2_21 N 0.09293(12) 0.62671(10) 0.49942(9)
N9_12 N 0.12516(10) 0.65085(10) 0.52072(10)
N10_12 N 0.17186(11) 0.65591(12) 0.56390(11)
S1_23 S 0.16216(5) 0.45302(5) 0.33020(5)
S2_21 S 0.05061(7) 0.63144(15) 0.50441(7)
C1_23 C 0.14741(13) 0.46619(12) 0.34544(12)
C20_12 C 0.11165(16) 0.66623(15) 0.51834(14)
H13_12 H 0.1008 0.6646 0.5084
C21_12 C 0.1126(2) 0.68469(17) 0.52980(17)
H14_12 H 0.1033 0.6958 0.5271
C22_12 C 0.12750(16) 0.68620(15) 0.54515(16)
H15_12 H 0.1282 0.6982 0.5536
C23_12 C 0.14131(14) 0.67016(14) 0.54809(13)
C24_12 C 0.13931(13) 0.65262(12) 0.53528(12)
H16_12 H 0.1487 0.6414 0.5373
C25_12 C 0.15725(14) 0.67079(13) 0.56431(13)
C26_21 C 0.07544(19) 0.6282(2) 0.50149(14)
Co9_17 Co 0.1250 0.6250 0.25144(2)
N11_23 N 0.10606(10) 0.52320(9) 0.38708(10)
N13_20 N 0.02320(9) 0.64394(10) 0.36292(10)
N14_16 N 0.14394(10) 0.38708(10) 0.22680(9)
N15_16 N 0.11292(10) 0.35606(10) 0.27320(9)
N16_21 N 0.15707(12) 0.62329(10) 0.49942(9)
N17_17 N 0.12671(10) 0.65707(12) 0.25058(9)
N18_17 N 0.12329(10) 0.59293(12) 0.25058(9)
N21_23 N 0.11565(9) 0.51526(10) 0.34101(10)
N22_23 N 0.09101(10) 0.48474(10) 0.36565(9)
N24_15 N 0.01526(10) 0.63435(9) 0.40899(10)
N27_10 N 0.13435(9) 0.34101(10) 0.23474(10)
N28_20 N 0.01656(10) 0.59928(11) 0.37501(10)
N29_16 N 0.12501(10) 0.40072(11) 0.26656(10)
N30_21 N 0.12499(10) 0.48344(10) 0.40072(11)
N31_16 N 0.09928(11) 0.73344(10) 0.37499(10)
N34_16 N 0.09928(11) 0.37499(10) 0.23344(10)
N35_23 N 0.06152(10) 0.59527(10) 0.32947(10)
N36_23 N 0.07947(10) 0.40473(10) 0.31152(10)
N37_21 N 0.17053(10) 0.43848(10) 0.40473(10)
N38_16 N 0.09527(10) 0.68848(10) 0.42053(10)
N40_23 N 0.07081(10) 0.56148(9) 0.33997(10)
N41_23 N 0.08997(10) 0.43852(9) 0.32081(10)
N42_21 N 0.16003(10) 0.42919(10) 0.43852(9)
N43_16 N 0.06148(9) 0.67919(10) 0.41003(10)
N45_23 N 0.08776(10) 0.57686(10) 0.31119(9)
N46_23 N 0.06119(9) 0.42314(10) 0.33776(10)
N47_21 N 0.18881(9) 0.41224(10) 0.42314(10)
N48_16 N 0.07686(10) 0.66224(10) 0.43881(9)
N50_17 N 0.10074(10) 0.62752(10) 0.27453(10)
N52_21 N 0.22547(10) 0.39926(10) 0.37248(10)
N53_16 N 0.12752(10) 0.64926(10) 0.47547(10)
N55_17 N 0.14926(10) 0.62248(10) 0.27453(10)
N57_12 N 0.15085(10) 0.72928(10) 0.62484(10)
N58_12 N 0.22928(10) 0.62516(10) 0.59915(10)
N62_17 N 0.15085(10) 0.62484(10) 0.22928(10)
N63_17 N 0.09915(10) 0.62516(10) 0.22928(10)
N66_12 N 0.18610(11) 0.67186(11) 0.59409(12)
N67_12 N 0.15591(12) 0.68610(11) 0.57814(11)
S3_23 S 0.08020(5) 0.54698(5) 0.41216(5)
S5_20 S 0.04698(5) 0.66980(5) 0.33784(5)
S6_16 S 0.16980(5) 0.41216(5) 0.20302(5)
S7_16 S 0.08784(5) 0.33020(5) 0.29698(5)
S8_21 S 0.19939(7) 0.61856(15) 0.50441(7)
S9_17 S 0.13144(15) 0.69939(7) 0.24559(7)
S10_17 S 0.11856(15) 0.55061(7) 0.24559(7)
C27_23 C 0.09544(12) 0.53381(12) 0.39741(13)
C29_20 C 0.03381(12) 0.65456(12) 0.35259(13)
C30_16 C 0.15456(12) 0.39741(13) 0.21619(12)
C31_16 C 0.10259(13) 0.34544(12) 0.28381(12)
C32_23 C 0.10166(11) 0.53098(12) 0.34018(12)
C33_23 C 0.09018(12) 0.46902(12) 0.35166(11)
C34_21 C 0.15982(12) 0.39834(11) 0.46902(12)
C35_16 C 0.03098(12) 0.64834(11) 0.40982(12)
H17_23 H 0.0935 0.5337 0.3521
H18_23 H 0.1021 0.4663 0.3435
H19_21 H 0.1479 0.4065 0.4663
H20_16 H 0.0337 0.6565 0.3979
C37_23 C 0.09874(11) 0.54302(12) 0.32314(12)
C38_23 C 0.07314(12) 0.45698(12) 0.34874(11)
C39_21 C 0.17686(12) 0.40126(11) 0.45698(12)
C40_16 C 0.04302(12) 0.65126(11) 0.42686(12)
C42_23 C 0.10983(15) 0.53888(14) 0.30482(16)
C43_23 C 0.05482(16) 0.46112(14) 0.35983(15)
C44_21 C 0.19518(16) 0.39017(15) 0.46112(14)
C45_16 C 0.03888(14) 0.64017(15) 0.44518(16)
H22_23 H 0.1081 0.5471 0.2927
H23_23 H 0.0427 0.4529 0.3581
H24_21 H 0.2073 0.3919 0.4529
H25_16 H 0.0471 0.6419 0.4573
C47_23 C 0.12323(16) 0.52243(15) 0.30540(17)
C48_23 C 0.05540(17) 0.47757(15) 0.37323(16)
C49_21 C 0.19460(17) 0.37677(16) 0.47757(15)
C50_16 C 0.02243(15) 0.62677(16) 0.44460(17)
H27_23 H 0.1307 0.5187 0.2933
H28_23 H 0.0433 0.4813 0.3807
H29_21 H 0.2067 0.3693 0.4813
H30_16 H 0.0187 0.6193 0.4567
C52_23 C 0.12596(14) 0.51137(15) 0.32314(16)
C53_23 C 0.07314(16) 0.48863(15) 0.37596(14)
C54_21 C 0.17686(16) 0.37404(14) 0.48863(15)
C55_16 C 0.01137(15) 0.62404(14) 0.42686(16)
H32_23 H 0.1357 0.5003 0.3230
H33_23 H 0.0730 0.4997 0.3857
H34_21 H 0.1770 0.3643 0.4997
H35_16 H 0.0003 0.6143 0.4270
C57_23 C 0.01535(15) 0.58373(15) 0.38923(16)
C58_23 C 0.13923(16) 0.41627(15) 0.26535(15)
C59_21 C 0.11077(16) 0.48465(15) 0.41627(15)
C60_16 C 0.08373(15) 0.73465(15) 0.36077(16)
H37_23 H 0.0052 0.5846 0.3999
H38_23 H 0.1499 0.4154 0.2552
H39_21 H 0.1001 0.4948 0.4154
H40_16 H 0.0846 0.7448 0.3501
C62_23 C 0.02810(16) 0.56723(17) 0.38865(17)
C63_23 C 0.13865(17) 0.43277(17) 0.27810(16)
C64_21 C 0.11135(17) 0.47190(16) 0.43277(17)
C65_16 C 0.06723(17) 0.72190(16) 0.36135(17)
H42_23 H 0.0272 0.5570 0.3992
H43_23 H 0.1492 0.4430 0.2772
H44_21 H 0.1008 0.4728 0.4430
H45_16 H 0.0570 0.7228 0.3508
C67_23 C 0.04220(15) 0.56496(16) 0.37326(15)
C68_23 C 0.12326(15) 0.43504(16) 0.29220(15)
C69_21 C 0.12674(15) 0.45780(15) 0.43504(16)
C70_16 C 0.06496(16) 0.70780(15) 0.37674(15)
H47_23 H 0.0510 0.5531 0.3729
H48_23 H 0.1229 0.4469 0.3010
H49_21 H 0.1271 0.4490 0.4469
H50_16 H 0.0531 0.6990 0.3771
C72_23 C 0.04374(12) 0.58005(13) 0.35801(13)
C73_23 C 0.10801(13) 0.41995(13) 0.29374(12)
C74_21 C 0.14199(13) 0.45626(12) 0.41995(13)
C75_16 C 0.08005(13) 0.70626(12) 0.39199(13)
C77_23 C 0.03082(11) 0.59704(12) 0.35960(12)
C78_23 C 0.10960(12) 0.40296(12) 0.28082(11)
C79_21 C 0.14040(12) 0.46918(11) 0.40296(12)
C80_16 C 0.09704(12) 0.71918(11) 0.39040(12)
H52_23 H 0.0319 0.6077 0.3495
H53_23 H 0.0995 0.3923 0.2819
H54_21 H 0.1505 0.4681 0.3923
H55_16 H 0.1077 0.7181 0.4005
C82_23 C 0.05959(11) 0.57875(12) 0.34145(12)
C83_23 C 0.09145(12) 0.42125(12) 0.30959(11)
C84_21 C 0.15855(12) 0.44041(11) 0.42125(12)
C85_16 C 0.07875(12) 0.69041(11) 0.40855(12)
C87_23 C 0.08455(12) 0.56163(11) 0.32471(12)
C88_23 C 0.07471(12) 0.43837(11) 0.33455(12)
C89_21 C 0.17529(12) 0.41545(12) 0.43837(11)
C90_16 C 0.06163(11) 0.66545(12) 0.42529(12)
C92_23 C 0.07615(12) 0.59330(12) 0.31435(12)
C93_23 C 0.06435(12) 0.40670(12) 0.32615(12)
C94_21 C 0.18565(12) 0.42385(12) 0.40670(12)
C95_16 C 0.09330(12) 0.67385(12) 0.43565(12)
C97_23 C 0.08809(15) 0.64406(14) 0.27549(14)
C98_23 C 0.02549(14) 0.35594(14) 0.33809(15)
C99_21 C 0.22451(14) 0.41191(15) 0.35594(14)
C100_16 C 0.14406(14) 0.66191(15) 0.47451(14)
H57_23 H 0.0907 0.6553 0.2663
H58_23 H 0.0163 0.3447 0.3407
H59_21 H 0.2337 0.4093 0.3447
H60_16 H 0.1553 0.6593 0.4837
C102_23 C 0.07164(15) 0.64574(15) 0.28890(15)
C103_23 C 0.03890(15) 0.35426(15) 0.32164(15)
C104_21 C 0.21110(15) 0.42836(15) 0.35426(15)
C105_16 C 0.14574(15) 0.67836(15) 0.46110(15)
H62_23 H 0.0633 0.6579 0.2892
H63_23 H 0.0392 0.3421 0.3133
H64_21 H 0.2108 0.4367 0.3421
H65_16 H 0.1579 0.6867 0.4608
C107_23 C 0.06749(13) 0.62904(14) 0.30202(14)
C108_23 C 0.05202(14) 0.37096(14) 0.31749(13)
C109_21 C 0.19798(14) 0.43251(13) 0.37096(14)
C110_16 C 0.12904(14) 0.68251(13) 0.44798(14)
H67_23 H 0.0562 0.6297 0.3115
H68_23 H 0.0615 0.3703 0.3062
H69_21 H 0.1885 0.4438 0.3703
H70_16 H 0.1297 0.6938 0.4385
C112_23 C 0.07949(12) 0.61196(13) 0.30119(12)
C113_23 C 0.05119(12) 0.38804(13) 0.32949(12)
C114_21 C 0.19881(12) 0.42051(12) 0.38804(13)
C115_16 C 0.11196(13) 0.67051(12) 0.44881(12)
C117_23 C 0.09679(12) 0.61174(11) 0.28735(11)
C118_23 C 0.03735(11) 0.38826(11) 0.34679(12)
C119_21 C 0.21265(11) 0.40321(12) 0.38826(11)
C120_16 C 0.11174(11) 0.65321(12) 0.46265(11)
H72_23 H 0.1058 0.6000 0.2873
H73_23 H 0.0373 0.4000 0.3558
H74_21 H 0.2127 0.3942 0.4000
H75_16 H 0.1000 0.6442 0.4627
C122_12 C 0.16623(15) 0.73166(14) 0.63835(16)
C123_12 C 0.23166(14) 0.61165(16) 0.58377(15)
H77_12 H 0.1646 0.7416 0.6492
H78_12 H 0.2416 0.6008 0.5854
C127_12 C 0.18469(17) 0.72020(17) 0.6374(2)
C128_12 C 0.22020(17) 0.6126(2) 0.56531(17)
H82_12 H 0.1958 0.7229 0.6467
H83_12 H 0.2229 0.6033 0.5542
C132_12 C 0.18620(15) 0.70485(16) 0.62250(16)
C133_12 C 0.20485(16) 0.62750(16) 0.56380(15)
H87_12 H 0.1982 0.6964 0.6218
H88_12 H 0.1964 0.6282 0.5518
C137_12 C 0.17016(14) 0.70191(13) 0.60869(14)
C138_12 C 0.20191(13) 0.64131(14) 0.57984(14)
C142_12 C 0.15262(12) 0.71472(12) 0.61069(13)
C143_12 C 0.21472(12) 0.63931(13) 0.59738(12)
H92_12 H 0.1414 0.7127 0.6013
H93_12 H 0.2127 0.6487 0.6086
C147_12 C 0.18569(13) 0.65725(14) 0.57921(13)
C148_12 C 0.17079(13) 0.68569(13) 0.59275(14)
C152_21 C 0.17456(19) 0.6218(2) 0.50149(14)
C153_17 C 0.1282(2) 0.67456(19) 0.24851(14)
C154_17 C 0.1218(2) 0.57544(19) 0.24851(14)
N12_20 N 0.97680(9) 0.61292(10) 0.39394(10)
N33_20 N 0.98344(10) 0.62501(10) 0.34928(11)
S4_20 S 0.95302(5) 0.58784(5) 0.41980(5)
C28_20 C 0.96619(12) 0.60259(13) 0.40456(12)
N1_24 N 0.22680(9) 0.36292(10) 0.10606(10)
S1_24 S 0.20302(5) 0.33784(5) 0.08020(5)
C1_24 C 0.21619(12) 0.35259(13) 0.09544(12)
Co10_19 Co 0.1250 0.49856(2) 0.1250
N11_24 N 0.27320(9) 0.39394(10) 0.13708(10)
N19_19 N 0.09293(12) 0.49942(9) 0.12671(10)
N20_19 N 0.15707(12) 0.49942(9) 0.12329(10)
N21_24 N 0.26526(10) 0.38435(9) 0.09101(10)
N22_24 N 0.23474(10) 0.40899(10) 0.11565(9)
N30_22 N 0.23344(10) 0.37501(10) 0.15072(11)
N35_24 N 0.34527(10) 0.43848(10) 0.07947(10)
N36_24 N 0.15473(10) 0.42053(10) 0.06152(10)
N37_22 N 0.18848(10) 0.32947(10) 0.15473(10)
N40_24 N 0.31148(9) 0.42919(10) 0.08997(10)
N41_24 N 0.18852(9) 0.41003(10) 0.07081(10)
N42_22 N 0.17919(10) 0.33997(10) 0.18852(9)
N45_24 N 0.32686(10) 0.41224(10) 0.06119(9)
N46_24 N 0.17314(10) 0.43881(9) 0.08776(10)
N47_22 N 0.16224(10) 0.31119(9) 0.17314(10)
N51_19 N 0.12248(10) 0.47547(10) 0.10074(10)
N52_22 N 0.14926(10) 0.27453(10) 0.12248(10)
N56_19 N 0.12752(10) 0.47547(10) 0.14926(10)
N64_19 N 0.12516(10) 0.52072(10) 0.15085(10)
N65_19 N 0.12484(10) 0.52072(10) 0.09915(10)
S3_24 S 0.29698(5) 0.41980(5) 0.16216(5)
S11_19 S 0.05061(7) 0.50441(7) 0.13144(15)
S12_19 S 0.19939(7) 0.50441(7) 0.11856(15)
C27_24 C 0.28381(12) 0.40456(12) 0.14741(13)
C32_24 C 0.28098(12) 0.39834(11) 0.09018(12)
C33_24 C 0.21902(12) 0.40982(12) 0.10166(11)
C34_22 C 0.14834(11) 0.34018(12) 0.21902(12)
H17_24 H 0.2837 0.4065 0.1021
H18_24 H 0.2163 0.3979 0.0935
H19_22 H 0.1565 0.3521 0.2163
C37_24 C 0.29302(12) 0.40126(11) 0.07314(12)
C38_24 C 0.20698(12) 0.42686(12) 0.09874(11)
C39_22 C 0.15126(11) 0.32314(12) 0.20698(12)
C42_24 C 0.28888(14) 0.39017(15) 0.05482(16)
C43_24 C 0.21112(14) 0.44518(16) 0.10983(15)
C44_22 C 0.14017(15) 0.30482(16) 0.21112(14)
H22_24 H 0.2971 0.3919 0.0427
H23_24 H 0.2029 0.4573 0.1081
H24_22 H 0.1419 0.2927 0.2029
C47_24 C 0.27243(15) 0.37677(16) 0.05540(17)
C48_24 C 0.22757(15) 0.44460(17) 0.12323(16)
C49_22 C 0.12677(16) 0.30540(17) 0.22757(15)
H27_24 H 0.2687 0.3693 0.0433
H28_24 H 0.2313 0.4567 0.1307
H29_22 H 0.1193 0.2933 0.2313
C52_24 C 0.26137(15) 0.37404(14) 0.07314(16)
C53_24 C 0.23863(15) 0.42686(16) 0.12596(14)
C54_22 C 0.12404(14) 0.32314(16) 0.23863(15)
H32_24 H 0.2503 0.3643 0.0730
H33_24 H 0.2497 0.4270 0.1357
H34_22 H 0.1143 0.3230 0.2497
C57_24 C 0.33373(15) 0.48465(15) 0.13923(16)
C58_24 C 0.16627(15) 0.36077(16) 0.01535(15)
C59_22 C 0.23465(15) 0.38923(16) 0.16627(15)
H37_24 H 0.3346 0.4948 0.1499
H38_24 H 0.1654 0.3501 0.0052
H39_22 H 0.2448 0.3999 0.1654
C62_24 C 0.31723(17) 0.47190(16) 0.13865(17)
C63_24 C 0.18277(17) 0.36135(17) 0.02810(16)
C64_22 C 0.22190(16) 0.38865(17) 0.18277(17)
H42_24 H 0.3070 0.4728 0.1492
H43_24 H 0.1930 0.3508 0.0272
H44_22 H 0.2228 0.3992 0.1930
C67_24 C 0.31496(16) 0.45780(15) 0.12326(15)
C68_24 C 0.18504(16) 0.37674(15) 0.04220(15)
C69_22 C 0.20780(15) 0.37326(15) 0.18504(16)
H47_24 H 0.3031 0.4490 0.1229
H48_24 H 0.1969 0.3771 0.0510
H49_22 H 0.1990 0.3729 0.1969
C72_24 C 0.33005(13) 0.45626(12) 0.10801(13)
C73_24 C 0.16995(13) 0.39199(13) 0.04374(12)
C74_22 C 0.20626(12) 0.35801(13) 0.16995(13)
C77_24 C 0.34704(12) 0.46918(11) 0.10960(12)
C78_24 C 0.15296(12) 0.39040(12) 0.03082(11)
C79_22 C 0.21918(11) 0.35960(12) 0.15296(12)
H52_24 H 0.3577 0.4681 0.0995
H53_24 H 0.1423 0.4005 0.0319
H54_22 H 0.2181 0.3495 0.1423
C82_24 C 0.32875(12) 0.44041(11) 0.09145(12)
C83_24 C 0.17125(12) 0.40855(12) 0.05959(11)
C84_22 C 0.19041(11) 0.34145(12) 0.17125(12)
C87_24 C 0.31163(11) 0.41545(12) 0.07471(12)
C88_24 C 0.18837(11) 0.42529(12) 0.08455(12)
C89_22 C 0.16545(12) 0.32471(12) 0.18837(11)
C92_24 C 0.34330(12) 0.42385(12) 0.06435(12)
C93_24 C 0.15670(12) 0.43565(12) 0.07615(12)
C94_22 C 0.17385(12) 0.31435(12) 0.15670(12)
C97_24 C 0.39406(14) 0.41191(15) 0.02549(14)
C98_24 C 0.10594(14) 0.47451(14) 0.08809(15)
C99_22 C 0.16191(15) 0.27549(14) 0.10594(14)
H57_24 H 0.4053 0.4093 0.0163
H58_24 H 0.0947 0.4837 0.0907
H59_22 H 0.1593 0.2663 0.0947
C102_24 C 0.39574(15) 0.42836(15) 0.03890(15)
C103_24 C 0.10426(15) 0.46110(15) 0.07164(15)
C104_22 C 0.17836(15) 0.28890(15) 0.10426(15)
H62_24 H 0.4079 0.4367 0.0392
H63_24 H 0.0921 0.4608 0.0633
H64_22 H 0.1867 0.2892 0.0921
C107_24 C 0.37904(14) 0.43251(13) 0.05202(14)
C108_24 C 0.12096(14) 0.44798(14) 0.06749(13)
C109_22 C 0.18251(13) 0.30202(14) 0.12096(14)
H67_24 H 0.3797 0.4438 0.0615
H68_24 H 0.1203 0.4385 0.0562
H69_22 H 0.1938 0.3115 0.1203
C112_24 C 0.36196(13) 0.42051(12) 0.05119(12)
C113_24 C 0.13804(13) 0.44881(12) 0.07949(12)
C114_22 C 0.17051(12) 0.30119(12) 0.13804(13)
C117_24 C 0.36174(11) 0.40321(12) 0.03735(11)
C118_24 C 0.13826(11) 0.46265(11) 0.09679(12)
C119_22 C 0.15321(12) 0.28735(11) 0.13826(11)
H72_24 H 0.3500 0.3942 0.0373
H73_24 H 0.1500 0.4627 0.1058
H74_22 H 0.1442 0.2873 0.1500
C155_19 C 0.07544(19) 0.50149(14) 0.1282(2)
C156_19 C 0.17456(19) 0.50149(14) 0.1218(2)
Co8_19 Co 0.7500 0.371072(19) 0.128928(19)
N32_19 N 0.73344(10) 0.37499(10) 0.09928(11)
N39_19 N 0.68848(10) 0.42053(10) 0.09527(10)
N44_19 N 0.67919(10) 0.41003(10) 0.06148(9)
N49_19 N 0.66224(10) 0.43881(9) 0.07686(10)
N54_19 N 0.64926(10) 0.47547(10) 0.12752(10)
N64_20 N 0.65085(10) 0.12516(10) 0.02072(10)
N65_20 N 0.59915(10) 0.12484(10) 0.02072(10)
S11_20 S 0.63144(15) 0.05061(7) 0.00441(7)
S12_20 S 0.61856(15) 0.19939(7) 0.00441(7)
C36_19 C 0.64834(11) 0.40982(12) 0.03098(12)
H21_19 H 0.6565 0.3979 0.0337
C41_19 C 0.65126(11) 0.42686(12) 0.04302(12)
C46_19 C 0.64017(15) 0.44518(16) 0.03888(14)
H26_19 H 0.6419 0.4573 0.0471
C51_19 C 0.62677(16) 0.44460(17) 0.02243(15)
H31_19 H 0.6193 0.4567 0.0187
C56_19 C 0.62404(14) 0.42686(16) 0.01137(15)
H36_19 H 0.6143 0.4270 0.0003
C61_19 C 0.73465(15) 0.36077(16) 0.08373(15)
H41_19 H 0.7448 0.3501 0.0846
C66_19 C 0.72190(16) 0.36135(17) 0.06723(17)
H46_19 H 0.7228 0.3508 0.0570
C71_19 C 0.70780(15) 0.37674(15) 0.06496(16)
H51_19 H 0.6990 0.3771 0.0531
C76_19 C 0.70626(12) 0.39199(13) 0.08005(13)
C81_19 C 0.71918(11) 0.39040(12) 0.09704(12)
H56_19 H 0.7181 0.4005 0.1077
C86_19 C 0.69041(11) 0.40855(12) 0.07875(12)
C91_19 C 0.66545(12) 0.42529(12) 0.06163(11)
C96_19 C 0.67385(12) 0.43565(12) 0.09330(12)
C101_19 C 0.66191(15) 0.47451(14) 0.14406(14)
H61_19 H 0.6593 0.4837 0.1553
C106_19 C 0.67836(15) 0.46110(15) 0.14574(15)
H66_19 H 0.6867 0.4608 0.1579
C111_19 C 0.68251(13) 0.44798(14) 0.12904(14)
H71_19 H 0.6938 0.4385 0.1297
C116_19 C 0.67051(12) 0.44881(12) 0.11196(13)
C121_19 C 0.65321(12) 0.46265(11) 0.11174(11)
H76_19 H 0.6442 0.4627 0.1000
C155_20 C 0.6282(2) 0.07544(19) 0.00149(14)
C156_20 C 0.6218(2) 0.17456(19) 0.00149(14)
N1_25 N 0.60606(10) 0.22680(9) 0.86292(10)
S1_25 S 0.58020(5) 0.20302(5) 0.83784(5)
C1_25 C 0.59544(12) 0.21619(12) 0.85259(13)
Co10_20 Co 0.6250 0.1250 0.99856(2)
Co13_10 Co 0.6250 0.1250 0.75144(2)
N11_25 N 0.63708(10) 0.27320(9) 0.89394(10)
N19_20 N 0.62671(10) 0.09293(12) 0.99942(9)
N20_20 N 0.62329(10) 0.15707(12) 0.99942(9)
N21_25 N 0.59101(10) 0.26526(10) 0.88435(9)
N22_25 N 0.61565(9) 0.23474(10) 0.90899(10)
N30_23 N 0.65072(11) 0.23344(10) 0.87501(10)
N35_25 N 0.57947(10) 0.34527(10) 0.93848(10)
N36_25 N 0.56152(10) 0.15473(10) 0.92053(10)
N37_23 N 0.65473(10) 0.18848(10) 0.82947(10)
N40_25 N 0.58997(10) 0.31148(9) 0.92919(10)
N41_25 N 0.57081(10) 0.18852(9) 0.91003(10)
N42_23 N 0.68852(9) 0.17919(10) 0.83997(10)
N45_25 N 0.56119(9) 0.32686(10) 0.91224(10)
N46_25 N 0.58776(10) 0.17314(10) 0.93881(9)
N47_23 N 0.67314(10) 0.16224(10) 0.81119(9)
N51_20 N 0.60074(10) 0.12248(10) 0.97547(10)
N52_23 N 0.62248(10) 0.14926(10) 0.77453(10)
N56_20 N 0.64926(10) 0.12752(10) 0.97547(10)
S3_25 S 0.66216(5) 0.29698(5) 0.91980(5)
C27_25 C 0.64741(13) 0.28381(12) 0.90456(12)
C32_25 C 0.59018(12) 0.28098(12) 0.89834(11)
C33_25 C 0.60166(11) 0.21902(12) 0.90982(12)
C34_23 C 0.71902(12) 0.14834(11) 0.84018(12)
H17_25 H 0.6021 0.2837 0.9065
H18_25 H 0.5935 0.2163 0.8979
H19_23 H 0.7163 0.1565 0.8521
C37_25 C 0.57314(12) 0.29302(12) 0.90126(11)
C38_25 C 0.59874(11) 0.20698(12) 0.92686(12)
C39_23 C 0.70698(12) 0.15126(11) 0.82314(12)
C42_25 C 0.55482(16) 0.28888(14) 0.89017(15)
C43_25 C 0.60983(15) 0.21112(14) 0.94518(16)
C44_23 C 0.71112(14) 0.14017(15) 0.80482(16)
H22_25 H 0.5427 0.2971 0.8919
H23_25 H 0.6081 0.2029 0.9573
H24_23 H 0.7029 0.1419 0.7927
C47_25 C 0.55540(17) 0.27243(15) 0.87677(16)
C48_25 C 0.62323(16) 0.22757(15) 0.94460(17)
C49_23 C 0.72757(15) 0.12677(16) 0.80540(17)
H27_25 H 0.5433 0.2687 0.8693
H28_25 H 0.6307 0.2313 0.9567
H29_23 H 0.7313 0.1193 0.7933
C52_25 C 0.57314(16) 0.26137(15) 0.87404(14)
C53_25 C 0.62596(14) 0.23863(15) 0.92686(16)
C54_23 C 0.73863(15) 0.12404(14) 0.82314(16)
H32_25 H 0.5730 0.2503 0.8643
H33_25 H 0.6357 0.2497 0.9270
H34_23 H 0.7497 0.1143 0.8230
C57_25 C 0.63923(16) 0.33373(15) 0.98465(15)
C58_25 C 0.51535(15) 0.16627(15) 0.86077(16)
C59_23 C 0.66627(15) 0.23465(15) 0.88923(16)
H37_25 H 0.6499 0.3346 0.9948
H38_25 H 0.5052 0.1654 0.8501
H39_23 H 0.6654 0.2448 0.8999
C62_25 C 0.63865(17) 0.31723(17) 0.97190(16)
C63_25 C 0.52810(16) 0.18277(17) 0.86135(17)
C64_23 C 0.68277(17) 0.22190(16) 0.88865(17)
H42_25 H 0.6492 0.3070 0.9728
H43_25 H 0.5272 0.1930 0.8508
H44_23 H 0.6930 0.2228 0.8992
C67_25 C 0.62326(15) 0.31496(16) 0.95780(15)
C68_25 C 0.54220(15) 0.18504(16) 0.87674(15)
C69_23 C 0.68504(16) 0.20780(15) 0.87326(15)
H47_25 H 0.6229 0.3031 0.9490
H48_25 H 0.5510 0.1969 0.8771
H49_23 H 0.6969 0.1990 0.8729
C72_25 C 0.60801(13) 0.33005(13) 0.95626(12)
C73_25 C 0.54374(12) 0.16995(13) 0.89199(13)
C74_23 C 0.66995(13) 0.20626(12) 0.85801(13)
C77_25 C 0.60960(12) 0.34704(12) 0.96918(11)
C78_25 C 0.53082(11) 0.15296(12) 0.89040(12)
C79_23 C 0.65296(12) 0.21918(11) 0.85960(12)
H52_25 H 0.5995 0.3577 0.9681
H53_25 H 0.5319 0.1423 0.9005
H54_23 H 0.6423 0.2181 0.8495
C82_25 C 0.59145(12) 0.32875(12) 0.94041(11)
C83_25 C 0.55959(11) 0.17125(12) 0.90855(12)
C84_23 C 0.67125(12) 0.19041(11) 0.84145(12)
C87_25 C 0.57471(12) 0.31163(11) 0.91545(12)
C88_25 C 0.58455(12) 0.18837(11) 0.92529(12)
C89_23 C 0.68837(11) 0.16545(12) 0.82471(12)
C92_25 C 0.56435(12) 0.34330(12) 0.92385(12)
C93_25 C 0.57615(12) 0.15670(12) 0.93565(12)
C94_23 C 0.65670(12) 0.17385(12) 0.81435(12)
C97_25 C 0.52549(14) 0.39406(14) 0.91191(15)
C98_25 C 0.58809(15) 0.10594(14) 0.97451(14)
C99_23 C 0.60594(14) 0.16191(15) 0.77549(14)
H57_25 H 0.5163 0.4053 0.9093
H58_25 H 0.5907 0.0947 0.9837
H59_23 H 0.5947 0.1593 0.7663
C102_25 C 0.53890(15) 0.39574(15) 0.92836(15)
C103_25 C 0.57164(15) 0.10426(15) 0.96110(15)
C104_23 C 0.60426(15) 0.17836(15) 0.78890(15)
H62_25 H 0.5392 0.4079 0.9367
H63_25 H 0.5633 0.0921 0.9608
H64_23 H 0.5921 0.1867 0.7892
C107_25 C 0.55202(14) 0.37904(14) 0.93251(13)
C108_25 C 0.56749(13) 0.12096(14) 0.94798(14)
C109_23 C 0.62096(14) 0.18251(13) 0.80202(14)
H67_25 H 0.5615 0.3797 0.9438
H68_25 H 0.5562 0.1203 0.9385
H69_23 H 0.6203 0.1938 0.8115
C112_25 C 0.55119(12) 0.36196(13) 0.92051(12)
C113_25 C 0.57949(12) 0.13804(13) 0.94881(12)
C114_23 C 0.63804(13) 0.17051(12) 0.80119(12)
C117_25 C 0.53735(11) 0.36174(11) 0.90321(12)
C118_25 C 0.59679(12) 0.13826(11) 0.96265(11)
C119_23 C 0.63826(11) 0.15321(12) 0.78735(11)
H72_25 H 0.5373 0.3500 0.8942
H73_25 H 0.6058 0.1500 0.9627
H74_23 H 0.6500 0.1442 0.7873
N1_26 N 0.39394(10) 0.61292(10) 0.47680(9)
N2_22 N 0.25058(9) 0.65707(12) 0.62671(10)
S1_26 S 0.41980(5) 0.58784(5) 0.45302(5)
S2_22 S 0.24559(7) 0.69939(7) 0.63144(15)
C1_26 C 0.40456(12) 0.60259(13) 0.46619(12)
C26_22 C 0.24851(14) 0.67456(19) 0.6282(2)
Co9_18 Co 0.49856(2) 0.6250 0.6250
N11_26 N 0.36292(10) 0.64394(10) 0.52320(9)
N16_22 N 0.25058(9) 0.59293(12) 0.62329(10)
N17_18 N 0.49942(9) 0.62329(10) 0.65707(12)
N18_18 N 0.49942(9) 0.62671(10) 0.59293(12)
N21_26 N 0.40899(10) 0.63435(9) 0.51526(10)
N22_26 N 0.38435(9) 0.65899(10) 0.48474(10)
N35_26 N 0.42053(10) 0.68848(10) 0.59527(10)
N36_26 N 0.43848(10) 0.67053(10) 0.40473(10)
N40_26 N 0.41003(10) 0.67919(10) 0.56148(9)
N41_26 N 0.42919(10) 0.66003(10) 0.43852(9)
N45_26 N 0.43881(9) 0.66224(10) 0.57686(10)
N46_26 N 0.41224(10) 0.68881(9) 0.42314(10)
N50_18 N 0.47547(10) 0.64926(10) 0.62752(10)
N55_18 N 0.47547(10) 0.60074(10) 0.62248(10)
N62_18 N 0.52072(10) 0.59915(10) 0.62484(10)
N63_18 N 0.52072(10) 0.65085(10) 0.62516(10)
S3_26 S 0.33784(5) 0.66980(5) 0.54698(5)
S8_22 S 0.24559(7) 0.55061(7) 0.61856(15)
S9_18 S 0.50441(7) 0.61856(15) 0.69939(7)
S10_18 S 0.50441(7) 0.63144(15) 0.55061(7)
C27_26 C 0.35259(13) 0.65456(12) 0.53381(12)
C32_26 C 0.40982(12) 0.64834(11) 0.53098(12)
C33_26 C 0.39834(11) 0.65982(12) 0.46902(12)
H17_26 H 0.3979 0.6565 0.5337
H18_26 H 0.4065 0.6479 0.4663
C37_26 C 0.42686(12) 0.65126(11) 0.54302(12)
C38_26 C 0.40126(11) 0.67686(12) 0.45698(12)
C42_26 C 0.44518(16) 0.64017(15) 0.53888(14)
C43_26 C 0.39017(15) 0.69518(16) 0.46112(14)
H22_26 H 0.4573 0.6419 0.5471
H23_26 H 0.3919 0.7073 0.4529
C47_26 C 0.44460(17) 0.62677(16) 0.52243(15)
C48_26 C 0.37677(16) 0.69460(17) 0.47757(15)
H27_26 H 0.4567 0.6193 0.5187
H28_26 H 0.3693 0.7067 0.4813
C52_26 C 0.42686(16) 0.62404(14) 0.51137(15)
C53_26 C 0.37404(14) 0.67686(16) 0.48863(15)
H32_26 H 0.4270 0.6143 0.5003
H33_26 H 0.3643 0.6770 0.4997
C57_26 C 0.36077(16) 0.73465(15) 0.58373(15)
C58_26 C 0.48465(15) 0.61077(16) 0.41627(15)
H37_26 H 0.3501 0.7448 0.5846
H38_26 H 0.4948 0.6001 0.4154
C62_26 C 0.36135(17) 0.72190(16) 0.56723(17)
C63_26 C 0.47190(16) 0.61135(17) 0.43277(17)
H42_26 H 0.3508 0.7228 0.5570
H43_26 H 0.4728 0.6008 0.4430
C67_26 C 0.37674(15) 0.70780(15) 0.56496(16)
C68_26 C 0.45780(15) 0.62674(15) 0.43504(16)
H47_26 H 0.3771 0.6990 0.5531
H48_26 H 0.4490 0.6271 0.4469
C72_26 C 0.39199(13) 0.70626(12) 0.58005(13)
C73_26 C 0.45626(12) 0.64199(13) 0.41995(13)
C77_26 C 0.39040(12) 0.71918(11) 0.59704(12)
C78_26 C 0.46918(11) 0.64040(12) 0.40296(12)
H52_26 H 0.4005 0.7181 0.6077
H53_26 H 0.4681 0.6505 0.3923
C82_26 C 0.40855(12) 0.69041(11) 0.57875(12)
C83_26 C 0.44041(11) 0.65855(12) 0.42125(12)
C87_26 C 0.42529(12) 0.66545(12) 0.56163(11)
C88_26 C 0.41545(12) 0.67529(12) 0.43837(11)
C92_26 C 0.43565(12) 0.67385(12) 0.59330(12)
C93_26 C 0.42385(12) 0.68565(12) 0.40670(12)
C97_26 C 0.47451(14) 0.66191(15) 0.64406(14)
C98_26 C 0.41191(15) 0.72451(14) 0.35594(14)
H57_26 H 0.4837 0.6593 0.6553
H58_26 H 0.4093 0.7337 0.3447
C102_26 C 0.46110(15) 0.67836(15) 0.64574(15)
C103_26 C 0.42836(15) 0.71110(15) 0.35426(15)
H62_26 H 0.4608 0.6867 0.6579
H63_26 H 0.4367 0.7108 0.3421
C107_26 C 0.44798(14) 0.68251(13) 0.62904(14)
C108_26 C 0.43251(13) 0.69798(14) 0.37096(14)
H67_26 H 0.4385 0.6938 0.6297
H68_26 H 0.4438 0.6885 0.3703
C112_26 C 0.44881(12) 0.67051(12) 0.61196(13)
C113_26 C 0.42051(12) 0.69881(12) 0.38804(13)
C117_26 C 0.46265(11) 0.65321(12) 0.61174(11)
C118_26 C 0.40321(12) 0.71265(11) 0.38826(11)
H72_26 H 0.4627 0.6442 0.6000
H73_26 H 0.3942 0.7127 0.4000
C152_22 C 0.24851(14) 0.57544(19) 0.6218(2)
C153_18 C 0.50149(14) 0.6218(2) 0.67456(19)
C154_18 C 0.50149(14) 0.6282(2) 0.57544(19)
N2_23 N 0.59293(12) 0.12329(10) 0.75058(9)
N9_13 N 0.62516(10) 0.09915(10) 0.72928(10)
N10_13 N 0.67186(11) 0.09409(12) 0.68610(11)
S2_23 S 0.55061(7) 0.11856(15) 0.74559(7)
C20_13 C 0.61165(16) 0.08377(15) 0.73166(14)
H13_13 H 0.6008 0.0854 0.7416
C21_13 C 0.6126(2) 0.06531(17) 0.72020(17)
H14_13 H 0.6033 0.0542 0.7229
C22_13 C 0.62750(16) 0.06380(15) 0.70485(16)
H15_13 H 0.6282 0.0518 0.6964
C23_13 C 0.64131(14) 0.07984(14) 0.70191(13)
C24_13 C 0.63931(13) 0.09738(12) 0.71472(12)
H16_13 H 0.6487 0.1086 0.7127
C25_13 C 0.65725(14) 0.07921(13) 0.68569(13)
C26_23 C 0.57544(19) 0.1218(2) 0.74851(14)
Co7_14 Co 0.628928(19) -0.0000 0.878928(19)
Co12_6 Co 0.75144(2) 0.1250 0.6250
N16_23 N 0.65707(12) 0.12671(10) 0.75058(9)
N31_17 N 0.59928(11) 0.01656(10) 0.87501(10)
N38_17 N 0.59527(10) 0.06152(10) 0.82947(10)
N43_17 N 0.56148(9) 0.07081(10) 0.83997(10)
N48_17 N 0.57686(10) 0.08776(10) 0.81119(9)
N53_17 N 0.62752(10) 0.10074(10) 0.77453(10)
N57_13 N 0.65085(10) 0.02072(10) 0.62516(10)
N58_13 N 0.72928(10) 0.12484(10) 0.65085(10)
N59_13 N 0.62484(10) 0.15085(10) 0.72928(10)
N60_13 N 0.59915(10) 0.22928(10) 0.62516(10)
N61_13 N 0.52072(10) 0.12516(10) 0.65085(10)
N66_13 N 0.68610(11) 0.07814(11) 0.65591(12)
N67_13 N 0.65591(12) 0.06390(11) 0.67186(11)
N68_13 N 0.57814(11) 0.15591(12) 0.68610(11)
N69_13 N 0.56390(11) 0.17186(11) 0.65591(12)
N70_13 N 0.59409(12) 0.18610(11) 0.67186(11)
S8_23 S 0.69939(7) 0.13144(15) 0.74559(7)
C35_17 C 0.53098(12) 0.10166(11) 0.84018(12)
H20_17 H 0.5337 0.0935 0.8521
C40_17 C 0.54302(12) 0.09874(11) 0.82314(12)
C45_17 C 0.53888(14) 0.10983(15) 0.80482(16)
H25_17 H 0.5471 0.1081 0.7927
C50_17 C 0.52243(15) 0.12323(16) 0.80540(17)
H30_17 H 0.5187 0.1307 0.7933
C55_17 C 0.51137(15) 0.12596(14) 0.82314(16)
H35_17 H 0.5003 0.1357 0.8230
C60_17 C 0.58373(15) 0.01535(15) 0.88923(16)
H40_17 H 0.5846 0.0052 0.8999
C65_17 C 0.56723(17) 0.02810(16) 0.88865(17)
H45_17 H 0.5570 0.0272 0.8992
C70_17 C 0.56496(16) 0.04220(15) 0.87326(15)
H50_17 H 0.5531 0.0510 0.8729
C75_17 C 0.58005(13) 0.04374(12) 0.85801(13)
C80_17 C 0.59704(12) 0.03082(11) 0.85960(12)
H55_17 H 0.6077 0.0319 0.8495
C85_17 C 0.57875(12) 0.05959(11) 0.84145(12)
C90_17 C 0.56163(11) 0.08455(12) 0.82471(12)
C95_17 C 0.59330(12) 0.07615(12) 0.81435(12)
C100_17 C 0.64406(14) 0.08809(15) 0.77549(14)
H60_17 H 0.6553 0.0907 0.7663
C105_17 C 0.64574(15) 0.07164(15) 0.78890(15)
H65_17 H 0.6579 0.0633 0.7892
C110_17 C 0.62904(14) 0.06749(13) 0.80202(14)
H70_17 H 0.6297 0.0562 0.8115
C115_17 C 0.61196(13) 0.07949(12) 0.80119(12)
C120_17 C 0.61174(11) 0.09679(12) 0.78735(11)
H75_17 H 0.6000 0.1058 0.7873
C122_13 C 0.66623(15) 0.01834(14) 0.61165(16)
C123_13 C 0.73166(14) 0.13835(16) 0.66623(15)
C124_13 C 0.63835(16) 0.16623(15) 0.73166(14)
C125_13 C 0.58377(15) 0.23166(14) 0.61165(16)
C126_13 C 0.51834(14) 0.11165(16) 0.66623(15)
H77_13 H 0.6646 0.0084 0.6008
H78_13 H 0.7416 0.1492 0.6646
H79_13 H 0.6492 0.1646 0.7416
H80_13 H 0.5854 0.2416 0.6008
H81_13 H 0.5084 0.1008 0.6646
C127_13 C 0.68469(17) 0.02980(17) 0.6126(2)
C128_13 C 0.72020(17) 0.1374(2) 0.68469(17)
C129_13 C 0.6374(2) 0.18469(17) 0.72020(17)
C130_13 C 0.56531(17) 0.22020(17) 0.6126(2)
C131_13 C 0.52980(17) 0.1126(2) 0.68469(17)
H82_13 H 0.6958 0.0271 0.6033
H83_13 H 0.7229 0.1467 0.6958
H84_13 H 0.6467 0.1958 0.7229
H85_13 H 0.5542 0.2229 0.6033
H86_13 H 0.5271 0.1033 0.6958
C132_13 C 0.68620(15) 0.04515(16) 0.62750(16)
C133_13 C 0.70485(16) 0.12250(16) 0.68620(15)
C134_13 C 0.62250(16) 0.18620(15) 0.70485(16)
C135_13 C 0.56380(15) 0.20485(16) 0.62750(16)
C136_13 C 0.54515(16) 0.12750(16) 0.68620(15)
H87_13 H 0.6982 0.0536 0.6282
H88_13 H 0.6964 0.1218 0.6982
H89_13 H 0.6218 0.1982 0.6964
H90_13 H 0.5518 0.1964 0.6282
H91_13 H 0.5536 0.1282 0.6982
C137_13 C 0.67016(14) 0.04809(13) 0.64131(14)
C138_13 C 0.70191(13) 0.10869(14) 0.67016(14)
C139_13 C 0.60869(14) 0.17016(14) 0.70191(13)
C140_13 C 0.57984(14) 0.20191(13) 0.64131(14)
C141_13 C 0.54809(13) 0.14131(14) 0.67016(14)
C142_13 C 0.65262(12) 0.03528(12) 0.63931(13)
C143_13 C 0.71472(12) 0.11069(13) 0.65262(12)
C144_13 C 0.61069(13) 0.15262(12) 0.71472(12)
C145_13 C 0.59738(12) 0.21472(12) 0.63931(13)
C146_13 C 0.53528(12) 0.13931(13) 0.65262(12)
H92_13 H 0.6414 0.0373 0.6487
H93_13 H 0.7127 0.1013 0.6414
H94_13 H 0.6013 0.1414 0.7127
H95_13 H 0.6086 0.2127 0.6487
H96_13 H 0.5373 0.1487 0.6414
C147_13 C 0.68569(13) 0.09275(14) 0.67079(13)
C148_13 C 0.67079(13) 0.06431(13) 0.65725(14)
C149_13 C 0.59275(14) 0.17079(13) 0.68569(13)
C150_13 C 0.56431(13) 0.15725(14) 0.67079(13)
C151_13 C 0.57921(13) 0.18569(13) 0.65725(14)
C152_23 C 0.67456(19) 0.1282(2) 0.74851(14)
Co7_15 Co 0.628928(19) 1.0000 0.878928(19)
N1_27 N 0.02320(9) 0.38708(10) 0.60606(10)
S1_27 S 0.04698(5) 0.41216(5) 0.58020(5)
C1_27 C 0.03381(12) 0.39741(13) 0.59544(12)
N22_27 N 0.01526(10) 0.34101(10) 0.61565(9)
N36_27 N 0.09527(10) 0.32947(10) 0.56152(10)
N41_27 N 0.06148(9) 0.33997(10) 0.57081(10)
N46_27 N 0.07686(10) 0.31119(9) 0.58776(10)
C33_27 C 0.03098(12) 0.34018(12) 0.60166(11)
H18_27 H 0.0337 0.3521 0.5935
C38_27 C 0.04302(12) 0.32314(12) 0.59874(11)
C43_27 C 0.03888(14) 0.30482(16) 0.60983(15)
H23_27 H 0.0471 0.2927 0.6081
C48_27 C 0.02243(15) 0.30540(17) 0.62323(16)
H28_27 H 0.0187 0.2933 0.6307
C53_27 C 0.01137(15) 0.32314(16) 0.62596(14)
H33_27 H 0.0003 0.3230 0.6357
C58_27 C 0.08373(15) 0.38923(16) 0.51535(15)
H38_27 H 0.0846 0.3999 0.5052
C63_27 C 0.06723(17) 0.38865(17) 0.52810(16)
H43_27 H 0.0570 0.3992 0.5272
C68_27 C 0.06496(16) 0.37326(15) 0.54220(15)
H48_27 H 0.0531 0.3729 0.5510
C73_27 C 0.08005(13) 0.35801(13) 0.54374(12)
C78_27 C 0.09704(12) 0.35960(12) 0.53082(11)
H53_27 H 0.1077 0.3495 0.5319
C83_27 C 0.07875(12) 0.34145(12) 0.55959(11)
C88_27 C 0.06163(11) 0.32471(12) 0.58455(12)
C93_27 C 0.09330(12) 0.31435(12) 0.57615(12)
C98_27 C 0.14406(14) 0.27549(14) 0.58809(15)
H58_27 H 0.1553 0.2663 0.5907
C103_27 C 0.14574(15) 0.28890(15) 0.57164(15)
H63_27 H 0.1579 0.2892 0.5633
C108_27 C 0.12904(14) 0.30202(14) 0.56749(13)
H68_27 H 0.1297 0.3115 0.5562
C113_27 C 0.11196(13) 0.30119(12) 0.57949(12)
C118_27 C 0.11174(11) 0.28735(11) 0.59679(12)
H73_27 H 0.1000 0.2873 0.6058
N2_24 N 0.87329(10) 0.34293(12) 0.74942(9)
S2_24 S 0.86856(15) 0.30061(7) 0.75441(7)
C26_24 C 0.8718(2) 0.32544(19) 0.75149(14)
Co3_15 Co 0.871072(19) 0.2500 0.628928(19)
Co8_20 Co 0.878928(19) 0.121072(19) 0.7500
Co9_19 Co 0.8750 0.3750 0.50144(2)
N11_27 N 0.97680(9) 0.35606(10) 0.63708(10)
N12_21 N 0.88708(10) 0.22680(9) 0.64394(10)
N13_21 N 0.85606(10) 0.27320(9) 0.61292(10)
N16_24 N 0.87671(10) 0.40707(12) 0.74942(9)
N17_19 N 0.84293(12) 0.37671(10) 0.50058(9)
N18_19 N 0.90707(12) 0.37329(10) 0.50058(9)
N21_27 N 0.98474(10) 0.36565(9) 0.59101(10)
N24_16 N 0.86565(9) 0.26526(10) 0.65899(10)
N25_17 N 0.84101(10) 0.23474(10) 0.63435(9)
N28_21 N 0.90072(11) 0.26656(10) 0.62501(10)
N31_18 N 0.76656(10) 0.34928(11) 0.62499(10)
N32_20 N 0.87501(10) 0.15072(11) 0.73344(10)
N33_21 N 0.87499(10) 0.23344(10) 0.59928(11)
N35_27 N 0.90473(10) 0.31152(10) 0.57947(10)
N38_18 N 0.81152(10) 0.34527(10) 0.67053(10)
N39_20 N 0.82947(10) 0.15473(10) 0.68848(10)
N40_27 N 0.93852(9) 0.32081(10) 0.58997(10)
N43_18 N 0.82081(10) 0.31148(9) 0.66003(10)
N44_20 N 0.83997(10) 0.18852(9) 0.67919(10)
N45_27 N 0.92314(10) 0.33776(10) 0.56119(9)
N48_18 N 0.83776(10) 0.32686(10) 0.68881(9)
N49_20 N 0.81119(9) 0.17314(10) 0.66224(10)
N50_19 N 0.87248(10) 0.35074(10) 0.52453(10)
N53_18 N 0.85074(10) 0.37752(10) 0.72547(10)
N54_20 N 0.77453(10) 0.12248(10) 0.64926(10)
N55_19 N 0.87752(10) 0.39926(10) 0.52453(10)
N62_19 N 0.87516(10) 0.40085(10) 0.47928(10)
N63_19 N 0.87484(10) 0.34915(10) 0.47928(10)
S3_27 S 0.95302(5) 0.33020(5) 0.66216(5)
S4_21 S 0.91216(5) 0.20302(5) 0.66980(5)
S5_21 S 0.83020(5) 0.29698(5) 0.58784(5)
S8_24 S 0.88144(15) 0.44939(7) 0.75441(7)
S9_19 S 0.80061(7) 0.38144(15) 0.49559(7)
S10_19 S 0.94939(7) 0.36856(15) 0.49559(7)
C27_27 C 0.96619(12) 0.34544(12) 0.64741(13)
C28_21 C 0.89741(13) 0.21619(12) 0.65456(12)
C29_21 C 0.84544(12) 0.28381(12) 0.60259(13)
C32_27 C 0.96902(12) 0.35166(11) 0.59018(12)
C35_18 C 0.85166(11) 0.28098(12) 0.65982(12)
C36_20 C 0.84018(12) 0.21902(12) 0.64834(11)
H17_27 H 0.9663 0.3435 0.6021
H20_18 H 0.8435 0.2837 0.6479
H21_20 H 0.8521 0.2163 0.6565
C37_27 C 0.95698(12) 0.34874(11) 0.57314(12)
C40_18 C 0.84874(11) 0.29302(12) 0.67686(12)
C41_20 C 0.82314(12) 0.20698(12) 0.65126(11)
C42_27 C 0.96112(14) 0.35983(15) 0.55482(16)
C45_18 C 0.85983(15) 0.28888(14) 0.69518(16)
C46_20 C 0.80482(16) 0.21112(14) 0.64017(15)
H22_27 H 0.9529 0.3581 0.5427
H25_18 H 0.8581 0.2971 0.7073
H26_20 H 0.7927 0.2029 0.6419
C47_27 C 0.97757(15) 0.37323(16) 0.55540(17)
C50_18 C 0.87323(16) 0.27243(15) 0.69460(17)
C51_20 C 0.80540(17) 0.22757(15) 0.62677(16)
H27_27 H 0.9813 0.3807 0.5433
H30_18 H 0.8807 0.2687 0.7067
H31_20 H 0.7933 0.2313 0.6193
C52_27 C 0.98863(15) 0.37596(14) 0.57314(16)
C55_18 C 0.87596(14) 0.26137(15) 0.67686(16)
C56_20 C 0.82314(16) 0.23863(15) 0.62404(14)
H32_27 H 0.9997 0.3857 0.5730
H35_18 H 0.8857 0.2503 0.6770
H36_20 H 0.8230 0.2497 0.6143
C57_27 C 0.91627(15) 0.26535(15) 0.63923(16)
C60_18 C 0.76535(15) 0.33373(15) 0.61077(16)
C61_20 C 0.88923(16) 0.16627(15) 0.73465(15)
H37_27 H 0.9154 0.2552 0.6499
H40_18 H 0.7552 0.3346 0.6001
H41_20 H 0.8999 0.1654 0.7448
C62_27 C 0.93277(17) 0.27810(16) 0.63865(17)
C65_18 C 0.77810(16) 0.31723(17) 0.61135(17)
C66_20 C 0.88865(17) 0.18277(17) 0.72190(16)
H42_27 H 0.9430 0.2772 0.6492
H45_18 H 0.7772 0.3070 0.6008
H46_20 H 0.8992 0.1930 0.7228
C67_27 C 0.93504(16) 0.29220(15) 0.62326(15)
C70_18 C 0.79220(15) 0.31496(16) 0.62674(15)
C71_20 C 0.87326(15) 0.18504(16) 0.70780(15)
H47_27 H 0.9469 0.3010 0.6229
H50_18 H 0.8010 0.3031 0.6271
H51_20 H 0.8729 0.1969 0.6990
C72_27 C 0.91995(13) 0.29374(12) 0.60801(13)
C75_18 C 0.79374(12) 0.33005(13) 0.64199(13)
C76_20 C 0.85801(13) 0.16995(13) 0.70626(12)
C77_27 C 0.90296(12) 0.28082(11) 0.60960(12)
C80_18 C 0.78082(11) 0.34704(12) 0.64040(12)
C81_20 C 0.85960(12) 0.15296(12) 0.71918(11)
H52_27 H 0.8923 0.2819 0.5995
H55_18 H 0.7819 0.3577 0.6505
H56_20 H 0.8495 0.1423 0.7181
C82_27 C 0.92125(12) 0.30959(11) 0.59145(12)
C85_18 C 0.80959(11) 0.32875(12) 0.65855(12)
C86_20 C 0.84145(12) 0.17125(12) 0.69041(11)
C87_27 C 0.93837(11) 0.33455(12) 0.57471(12)
C90_18 C 0.83455(12) 0.31163(11) 0.67529(12)
C91_20 C 0.82471(12) 0.18837(11) 0.66545(12)
C92_27 C 0.90670(12) 0.32615(12) 0.56435(12)
C95_18 C 0.82615(12) 0.34330(12) 0.68565(12)
C96_20 C 0.81435(12) 0.15670(12) 0.67385(12)
C97_27 C 0.85594(14) 0.33809(15) 0.52549(14)
C100_18 C 0.83809(15) 0.39406(14) 0.72451(14)
C101_20 C 0.77549(14) 0.10594(14) 0.66191(15)
H57_27 H 0.8447 0.3407 0.5163
H60_18 H 0.8407 0.4053 0.7337
H61_20 H 0.7663 0.0947 0.6593
C102_27 C 0.85426(15) 0.32164(15) 0.53890(15)
C105_18 C 0.82164(15) 0.39574(15) 0.71110(15)
C106_20 C 0.78890(15) 0.10426(15) 0.67836(15)
H62_27 H 0.8421 0.3133 0.5392
H65_18 H 0.8133 0.4079 0.7108
H66_20 H 0.7892 0.0921 0.6867
C107_27 C 0.87096(14) 0.31749(13) 0.55202(14)
C110_18 C 0.81749(13) 0.37904(14) 0.69798(14)
C111_20 C 0.80202(14) 0.12096(14) 0.68251(13)
H67_27 H 0.8703 0.3062 0.5615
H70_18 H 0.8062 0.3797 0.6885
H71_20 H 0.8115 0.1203 0.6938
C112_27 C 0.88804(13) 0.32949(12) 0.55119(12)
C115_18 C 0.82949(12) 0.36196(13) 0.69881(12)
C116_20 C 0.80119(12) 0.13804(13) 0.67051(12)
C117_27 C 0.88826(11) 0.34679(12) 0.53735(11)
C120_18 C 0.84679(12) 0.36174(11) 0.71265(11)
C121_20 C 0.78735(11) 0.13826(11) 0.65321(12)
H72_27 H 0.9000 0.3558 0.5373
H75_18 H 0.8558 0.3500 0.7127
H76_20 H 0.7873 0.1500 0.6442
C152_24 C 0.8782(2) 0.42456(19) 0.75149(14)
C153_19 C 0.82544(19) 0.3782(2) 0.49851(14)
C154_19 C 0.92456(19) 0.3718(2) 0.49851(14)
N2_25 N 0.84293(12) 0.74942(9) 0.37329(10)
S2_25 S 0.80061(7) 0.75441(7) 0.36856(15)
C26_25 C 0.82544(19) 0.75149(14) 0.3718(2)
Co7_16 Co 0.878928(19) 0.621072(19) 0.2500
N16_25 N 0.90707(12) 0.74942(9) 0.37671(10)
N31_19 N 0.84928(11) 0.62499(10) 0.26656(10)
N38_19 N 0.84527(10) 0.67053(10) 0.31152(10)
N43_19 N 0.81148(9) 0.66003(10) 0.32081(10)
N48_19 N 0.82686(10) 0.68881(9) 0.33776(10)
N53_19 N 0.87752(10) 0.72547(10) 0.35074(10)
S8_25 S 0.94939(7) 0.75441(7) 0.38144(15)
C35_19 C 0.78098(12) 0.65982(12) 0.35166(11)
H20_19 H 0.7837 0.6479 0.3435
C40_19 C 0.79302(12) 0.67686(12) 0.34874(11)
C45_19 C 0.78888(14) 0.69518(16) 0.35983(15)
H25_19 H 0.7971 0.7073 0.3581
C50_19 C 0.77243(15) 0.69460(17) 0.37323(16)
H30_19 H 0.7687 0.7067 0.3807
C55_19 C 0.76137(15) 0.67686(16) 0.37596(14)
H35_19 H 0.7503 0.6770 0.3857
C60_19 C 0.83373(15) 0.61077(16) 0.26535(15)
H40_19 H 0.8346 0.6001 0.2552
C65_19 C 0.81723(17) 0.61135(17) 0.27810(16)
H45_19 H 0.8070 0.6008 0.2772
C70_19 C 0.81496(16) 0.62674(15) 0.29220(15)
H50_19 H 0.8031 0.6271 0.3010
C75_19 C 0.83005(13) 0.64199(13) 0.29374(12)
C80_19 C 0.84704(12) 0.64040(12) 0.28082(11)
H55_19 H 0.8577 0.6505 0.2819
C85_19 C 0.82875(12) 0.65855(12) 0.30959(11)
C90_19 C 0.81163(11) 0.67529(12) 0.33455(12)
C95_19 C 0.84330(12) 0.68565(12) 0.32615(12)
C100_19 C 0.89406(14) 0.72451(14) 0.33809(15)
H60_19 H 0.9053 0.7337 0.3407
C105_19 C 0.89574(15) 0.71110(15) 0.32164(15)
H65_19 H 0.9079 0.7108 0.3133
C110_19 C 0.87904(14) 0.69798(14) 0.31749(13)
H70_19 H 0.8797 0.6885 0.3062
C115_19 C 0.86196(13) 0.69881(12) 0.32949(12)
C120_19 C 0.86174(11) 0.71265(11) 0.34679(12)
H75_19 H 0.8500 0.7127 0.3558
C152_25 C 0.92456(19) 0.75149(14) 0.3782(2)
N2_26 N 0.24942(9) 0.37329(10) 0.34293(12)
S2_26 S 0.25441(7) 0.36856(15) 0.30061(7)
C26_26 C 0.25149(14) 0.3718(2) 0.32544(19)
N16_26 N 0.24942(9) 0.37671(10) 0.40707(12)
S8_26 S 0.25441(7) 0.38144(15) 0.44939(7)
C152_26 C 0.25149(14) 0.3782(2) 0.42456(19)
Co1_19 Co 0.628928(19) 0.5000 0.378928(19)
N1_28 N 0.64394(10) 0.52320(9) 0.36292(10)
N2_27 N 0.50058(9) 0.37329(10) 0.40707(12)
N3_11 N 0.59101(10) 0.38435(9) 0.26526(10)
N4_17 N 0.62501(10) 0.48344(10) 0.34928(11)
N5_17 N 0.57947(10) 0.43848(10) 0.34527(10)
N6_17 N 0.58997(10) 0.42919(10) 0.31148(9)
N7_17 N 0.56119(9) 0.41224(10) 0.32686(10)
N8_17 N 0.52453(10) 0.39926(10) 0.37752(10)
S1_28 S 0.66980(5) 0.54698(5) 0.33784(5)
S2_27 S 0.49559(7) 0.36856(15) 0.44939(7)
C1_28 C 0.65456(12) 0.53381(12) 0.35259(13)
C2_17 C 0.59018(12) 0.39834(11) 0.28098(12)
H1_17 H 0.6021 0.4065 0.2837
C3_17 C 0.57314(12) 0.40126(11) 0.29302(12)
C4_17 C 0.55482(16) 0.39017(15) 0.28888(14)
H2_17 H 0.5427 0.3919 0.2971
C5_17 C 0.55540(17) 0.37677(16) 0.27243(15)
H3_17 H 0.5433 0.3693 0.2687
C6_17 C 0.57314(16) 0.37404(14) 0.26137(15)
H4_17 H 0.5730 0.3643 0.2503
C7_17 C 0.63923(16) 0.48465(15) 0.33373(15)
H5_17 H 0.6499 0.4948 0.3346
C8_17 C 0.63865(17) 0.47190(16) 0.31723(17)
H6_17 H 0.6492 0.4728 0.3070
C9_17 C 0.62326(15) 0.45780(15) 0.31496(16)
H7_17 H 0.6229 0.4490 0.3031
C10_17 C 0.60801(13) 0.45626(12) 0.33005(13)
C11_17 C 0.60960(12) 0.46918(11) 0.34704(12)
H8_17 H 0.5995 0.4681 0.3577
C12_17 C 0.59145(12) 0.44041(11) 0.32875(12)
C13_17 C 0.57471(12) 0.41545(12) 0.31163(11)
C14_17 C 0.56435(12) 0.42385(12) 0.34330(12)
C15_17 C 0.52549(14) 0.41191(15) 0.39406(14)
H9_17 H 0.5163 0.4093 0.4053
C16_17 C 0.53890(15) 0.42836(15) 0.39574(15)
H10_17 H 0.5392 0.4367 0.4079
C17_17 C 0.55202(14) 0.43251(13) 0.37904(14)
H11_17 H 0.5615 0.4438 0.3797
C18_17 C 0.55119(12) 0.42051(12) 0.36196(13)
C19_17 C 0.53735(11) 0.40321(12) 0.36174(11)
H12_17 H 0.5373 0.3942 0.3500
C26_27 C 0.49851(14) 0.3718(2) 0.42456(19)
Co7_17 Co 0.628928(19) 0.2500 0.371072(19)
Co9_20 Co 0.74856(2) 0.3750 0.3750
N11_28 N 0.61292(10) 0.47680(9) 0.39394(10)
N12_22 N 0.60606(10) 0.38708(10) 0.52320(9)
N13_22 N 0.63708(10) 0.35606(10) 0.47680(9)
N16_27 N 0.50058(9) 0.37671(10) 0.34293(12)
N17_20 N 0.74942(9) 0.34293(12) 0.37329(10)
N18_20 N 0.74942(9) 0.40707(12) 0.37671(10)
N21_28 N 0.65899(10) 0.48474(10) 0.38435(9)
N22_28 N 0.63435(9) 0.51526(10) 0.40899(10)
N24_17 N 0.59101(10) 0.36565(9) 0.48474(10)
N28_22 N 0.62499(10) 0.40072(11) 0.48344(10)
N30_24 N 0.59928(11) 0.51656(10) 0.37501(10)
N31_20 N 0.62501(10) 0.26656(10) 0.40072(11)
N33_22 N 0.65072(11) 0.37499(10) 0.51656(10)
N35_28 N 0.67053(10) 0.40473(10) 0.43848(10)
N36_28 N 0.68848(10) 0.59527(10) 0.42053(10)
N37_24 N 0.59527(10) 0.56152(10) 0.32947(10)
N38_20 N 0.57947(10) 0.31152(10) 0.40473(10)
N40_28 N 0.66003(10) 0.43852(9) 0.42919(10)
N41_28 N 0.67919(10) 0.56148(9) 0.41003(10)
N42_24 N 0.56148(9) 0.57081(10) 0.33997(10)
N43_20 N 0.58997(10) 0.32081(10) 0.43852(9)
N45_28 N 0.68881(9) 0.42314(10) 0.41224(10)
N46_28 N 0.66224(10) 0.57686(10) 0.43881(9)
N47_24 N 0.57686(10) 0.58776(10) 0.31119(9)
N48_20 N 0.56119(9) 0.33776(10) 0.42314(10)
N50_20 N 0.72547(10) 0.37248(10) 0.39926(10)
N52_24 N 0.62752(10) 0.60074(10) 0.27453(10)
N53_20 N 0.52453(10) 0.35074(10) 0.37248(10)
N55_20 N 0.72547(10) 0.37752(10) 0.35074(10)
N62_20 N 0.77072(10) 0.37516(10) 0.34915(10)
N63_20 N 0.77072(10) 0.37484(10) 0.40085(10)
S3_28 S 0.58784(5) 0.45302(5) 0.41980(5)
S4_22 S 0.58020(5) 0.41216(5) 0.54698(5)
S5_22 S 0.66216(5) 0.33020(5) 0.45302(5)
S8_27 S 0.49559(7) 0.38144(15) 0.30061(7)
S9_20 S 0.75441(7) 0.30061(7) 0.36856(15)
S10_20 S 0.75441(7) 0.44939(7) 0.38144(15)
C27_28 C 0.60259(13) 0.46619(12) 0.40456(12)
C28_22 C 0.59544(12) 0.39741(13) 0.53381(12)
C29_22 C 0.64741(13) 0.34544(12) 0.46619(12)
C32_28 C 0.65982(12) 0.46902(12) 0.39834(11)
C33_28 C 0.64834(11) 0.53098(12) 0.40982(12)
C34_24 C 0.53098(12) 0.60166(11) 0.34018(12)
C35_20 C 0.59018(12) 0.35166(11) 0.46902(12)
H17_28 H 0.6479 0.4663 0.4065
H18_28 H 0.6565 0.5337 0.3979
H19_24 H 0.5337 0.5935 0.3521
H20_20 H 0.6021 0.3435 0.4663
C37_28 C 0.67686(12) 0.45698(12) 0.40126(11)
C38_28 C 0.65126(11) 0.54302(12) 0.42686(12)
C39_24 C 0.54302(12) 0.59874(11) 0.32314(12)
C40_20 C 0.57314(12) 0.34874(11) 0.45698(12)
C42_28 C 0.69518(16) 0.46112(14) 0.39017(15)
C43_28 C 0.64017(15) 0.53888(14) 0.44518(16)
C44_24 C 0.53888(14) 0.60983(15) 0.30482(16)
C45_20 C 0.55482(16) 0.35983(15) 0.46112(14)
H22_28 H 0.7073 0.4529 0.3919
H23_28 H 0.6419 0.5471 0.4573
H24_24 H 0.5471 0.6081 0.2927
H25_20 H 0.5427 0.3581 0.4529
C47_28 C 0.69460(17) 0.47757(15) 0.37677(16)
C48_28 C 0.62677(16) 0.52243(15) 0.44460(17)
C49_24 C 0.52243(15) 0.62323(16) 0.30540(17)
C50_20 C 0.55540(17) 0.37323(16) 0.47757(15)
H27_28 H 0.7067 0.4813 0.3693
H28_28 H 0.6193 0.5187 0.4567
H29_24 H 0.5187 0.6307 0.2933
H30_20 H 0.5433 0.3807 0.4813
C52_28 C 0.67686(16) 0.48863(15) 0.37404(14)
C53_28 C 0.62404(14) 0.51137(15) 0.42686(16)
C54_24 C 0.51137(15) 0.62596(14) 0.32314(16)
C55_20 C 0.57314(16) 0.37596(14) 0.48863(15)
H32_28 H 0.6770 0.4997 0.3643
H33_28 H 0.6143 0.5003 0.4270
H34_24 H 0.5003 0.6357 0.3230
H35_20 H 0.5730 0.3857 0.4997
C57_28 C 0.61077(16) 0.41627(15) 0.48465(15)
C58_28 C 0.73465(15) 0.58373(15) 0.36077(16)
C59_24 C 0.58373(15) 0.51535(15) 0.38923(16)
C60_20 C 0.63923(16) 0.26535(15) 0.41627(15)
H37_28 H 0.6001 0.4154 0.4948
H38_28 H 0.7448 0.5846 0.3501
H39_24 H 0.5846 0.5052 0.3999
H40_20 H 0.6499 0.2552 0.4154
C62_28 C 0.61135(17) 0.43277(17) 0.47190(16)
C63_28 C 0.72190(16) 0.56723(17) 0.36135(17)
C64_24 C 0.56723(17) 0.52810(16) 0.38865(17)
C65_20 C 0.63865(17) 0.27810(16) 0.43277(17)
H42_28 H 0.6008 0.4430 0.4728
H43_28 H 0.7228 0.5570 0.3508
H44_24 H 0.5570 0.5272 0.3992
H45_20 H 0.6492 0.2772 0.4430
C67_28 C 0.62674(15) 0.43504(16) 0.45780(15)
C68_28 C 0.70780(15) 0.56496(16) 0.37674(15)
C69_24 C 0.56496(16) 0.54220(15) 0.37326(15)
C70_20 C 0.62326(15) 0.29220(15) 0.43504(16)
H47_28 H 0.6271 0.4469 0.4490
H48_28 H 0.6990 0.5531 0.3771
H49_24 H 0.5531 0.5510 0.3729
H50_20 H 0.6229 0.3010 0.4469
C72_28 C 0.64199(13) 0.41995(13) 0.45626(12)
C73_28 C 0.70626(12) 0.58005(13) 0.39199(13)
C74_24 C 0.58005(13) 0.54374(12) 0.35801(13)
C75_20 C 0.60801(13) 0.29374(12) 0.41995(13)
C77_28 C 0.64040(12) 0.40296(12) 0.46918(11)
C78_28 C 0.71918(11) 0.59704(12) 0.39040(12)
C79_24 C 0.59704(12) 0.53082(11) 0.35960(12)
C80_20 C 0.60960(12) 0.28082(11) 0.40296(12)
H52_28 H 0.6505 0.3923 0.4681
H53_28 H 0.7181 0.6077 0.4005
H54_24 H 0.6077 0.5319 0.3495
H55_20 H 0.5995 0.2819 0.3923
C82_28 C 0.65855(12) 0.42125(12) 0.44041(11)
C83_28 C 0.69041(11) 0.57875(12) 0.40855(12)
C84_24 C 0.57875(12) 0.55959(11) 0.34145(12)
C85_20 C 0.59145(12) 0.30959(11) 0.42125(12)
C87_28 C 0.67529(12) 0.43837(11) 0.41545(12)
C88_28 C 0.66545(12) 0.56163(11) 0.42529(12)
C89_24 C 0.56163(11) 0.58455(12) 0.32471(12)
C90_20 C 0.57471(12) 0.33455(12) 0.43837(11)
C92_28 C 0.68565(12) 0.40670(12) 0.42385(12)
C93_28 C 0.67385(12) 0.59330(12) 0.43565(12)
C94_24 C 0.59330(12) 0.57615(12) 0.31435(12)
C95_20 C 0.56435(12) 0.32615(12) 0.40670(12)
C97_28 C 0.72451(14) 0.35594(14) 0.41191(15)
C98_28 C 0.66191(15) 0.64406(14) 0.47451(14)
C99_24 C 0.64406(14) 0.58809(15) 0.27549(14)
C100_20 C 0.52549(14) 0.33809(15) 0.35594(14)
H57_28 H 0.7337 0.3447 0.4093
H58_28 H 0.6593 0.6553 0.4837
H59_24 H 0.6553 0.5907 0.2663
H60_20 H 0.5163 0.3407 0.3447
C102_28 C 0.71110(15) 0.35426(15) 0.42836(15)
C103_28 C 0.67836(15) 0.64574(15) 0.46110(15)
C104_24 C 0.64574(15) 0.57164(15) 0.28890(15)
C105_20 C 0.53890(15) 0.32164(15) 0.35426(15)
H62_28 H 0.7108 0.3421 0.4367
H63_28 H 0.6867 0.6579 0.4608
H64_24 H 0.6579 0.5633 0.2892
H65_20 H 0.5392 0.3133 0.3421
C107_28 C 0.69798(14) 0.37096(14) 0.43251(13)
C108_28 C 0.68251(13) 0.62904(14) 0.44798(14)
C109_24 C 0.62904(14) 0.56749(13) 0.30202(14)
C110_20 C 0.55202(14) 0.31749(13) 0.37096(14)
H67_28 H 0.6885 0.3703 0.4438
H68_28 H 0.6938 0.6297 0.4385
H69_24 H 0.6297 0.5562 0.3115
H70_20 H 0.5615 0.3062 0.3703
C112_28 C 0.69881(12) 0.38804(13) 0.42051(12)
C113_28 C 0.67051(12) 0.61196(13) 0.44881(12)
C114_24 C 0.61196(13) 0.57949(12) 0.30119(12)
C115_20 C 0.55119(12) 0.32949(12) 0.38804(13)
C117_28 C 0.71265(11) 0.38826(11) 0.40321(12)
C118_28 C 0.65321(12) 0.61174(11) 0.46265(11)
C119_24 C 0.61174(11) 0.59679(12) 0.28735(11)
C120_20 C 0.53735(11) 0.34679(12) 0.38826(11)
H72_28 H 0.7127 0.4000 0.3942
H73_28 H 0.6442 0.6000 0.4627
H74_24 H 0.6000 0.6058 0.2873
H75_20 H 0.5373 0.3558 0.4000
C152_27 C 0.49851(14) 0.3782(2) 0.32544(19)
C153_20 C 0.75149(14) 0.32544(19) 0.3718(2)
C154_20 C 0.75149(14) 0.42456(19) 0.3782(2)
N2_28 N 0.49942(9) 0.09293(12) 0.62671(10)
S2_28 S 0.50441(7) 0.05061(7) 0.63144(15)
C26_28 C 0.50149(14) 0.07544(19) 0.6282(2)
N16_28 N 0.49942(9) 0.15707(12) 0.62329(10)
N59_14 N 0.52072(10) 0.12484(10) 0.59915(10)
N60_14 N 0.62484(10) 0.09915(10) 0.52072(10)
N61_14 N 0.59915(10) 0.02072(10) 0.62484(10)
N68_14 N 0.56390(11) 0.07814(11) 0.59409(12)
N69_14 N 0.59409(12) 0.06390(11) 0.57814(11)
N70_14 N 0.57814(11) 0.09409(12) 0.56390(11)
S8_28 S 0.50441(7) 0.19939(7) 0.61856(15)
C124_14 C 0.51834(14) 0.13835(16) 0.58377(15)
C125_14 C 0.63835(16) 0.08377(15) 0.51834(14)
C126_14 C 0.58377(15) 0.01834(14) 0.63835(16)
H79_14 H 0.5084 0.1492 0.5854
H80_14 H 0.6492 0.0854 0.5084
H81_14 H 0.5854 0.0084 0.6492
C129_14 C 0.52980(17) 0.1374(2) 0.56531(17)
C130_14 C 0.6374(2) 0.06531(17) 0.52980(17)
C131_14 C 0.56531(17) 0.02980(17) 0.6374(2)
H84_14 H 0.5271 0.1467 0.5542
H85_14 H 0.6467 0.0542 0.5271
H86_14 H 0.5542 0.0271 0.6467
C134_14 C 0.54515(16) 0.12250(16) 0.56380(15)
C135_14 C 0.62250(16) 0.06380(15) 0.54515(16)
C136_14 C 0.56380(15) 0.04515(16) 0.62250(16)
H89_14 H 0.5536 0.1218 0.5518
H90_14 H 0.6218 0.0518 0.5536
H91_14 H 0.5518 0.0536 0.6218
C139_14 C 0.54809(13) 0.10869(14) 0.57984(14)
C140_14 C 0.60869(14) 0.07984(14) 0.54809(13)
C141_14 C 0.57984(14) 0.04809(13) 0.60869(14)
C144_14 C 0.53528(12) 0.11069(13) 0.59738(12)
C145_14 C 0.61069(13) 0.09738(12) 0.53528(12)
C146_14 C 0.59738(12) 0.03528(12) 0.61069(13)
H94_14 H 0.5373 0.1013 0.6086
H95_14 H 0.6013 0.1086 0.5373
H96_14 H 0.6086 0.0373 0.6013
C149_14 C 0.56431(13) 0.09275(14) 0.57921(13)
C150_14 C 0.57921(13) 0.06431(13) 0.59275(14)
C151_14 C 0.59275(14) 0.07921(13) 0.56431(13)
C152_28 C 0.50149(14) 0.17456(19) 0.6218(2)
N1_29 N 0.88708(10) 0.14394(10) 0.22680(9)
N2_29 N 0.84293(12) 0.00058(9) 0.37671(10)
S1_29 S 0.91216(5) 0.16980(5) 0.20302(5)
C1_29 C 0.89741(13) 0.15456(12) 0.21619(12)
Co7_18 Co 0.878928(19) 0.128928(19) 0.5000
Co9_21 Co 0.8750 0.24856(2) 0.3750
N11_29 N 0.85606(10) 0.11292(10) 0.27320(9)
N12_23 N 0.72680(9) 0.10606(10) 0.36292(10)
N13_23 N 0.77320(9) 0.13708(10) 0.39394(10)
N14_17 N 0.89394(10) 0.27320(9) 0.13708(10)
N15_17 N 0.86292(10) 0.22680(9) 0.10606(10)
N16_29 N 0.90707(12) 0.00058(9) 0.37329(10)
N17_21 N 0.87671(10) 0.24942(9) 0.40707(12)
N18_21 N 0.87329(10) 0.24942(9) 0.34293(12)
N21_29 N 0.86565(9) 0.15899(10) 0.26526(10)
N22_29 N 0.84101(10) 0.13435(9) 0.23474(10)
N24_18 N 0.76526(10) 0.09101(10) 0.38435(9)
N27_11 N 0.88435(9) 0.26526(10) 0.09101(10)
N28_23 N 0.76656(10) 0.12499(10) 0.34928(11)
N29_17 N 0.87501(10) 0.23344(10) 0.15072(11)
N31_21 N 0.84928(11) 0.12501(10) 0.48344(10)
N33_23 N 0.73344(10) 0.15072(11) 0.37501(10)
N34_17 N 0.84928(11) 0.26656(10) 0.12499(10)
N35_29 N 0.81152(10) 0.17053(10) 0.34527(10)
N36_29 N 0.82947(10) 0.18848(10) 0.15473(10)
N38_21 N 0.84527(10) 0.07947(10) 0.43848(10)
N40_29 N 0.82081(10) 0.16003(10) 0.31148(9)
N41_29 N 0.83997(10) 0.17919(10) 0.18852(9)
N43_21 N 0.81148(9) 0.08997(10) 0.42919(10)
N45_29 N 0.83776(10) 0.18881(9) 0.32686(10)
N46_29 N 0.81119(9) 0.16224(10) 0.17314(10)
N48_21 N 0.82686(10) 0.06119(9) 0.41224(10)
N50_21 N 0.85074(10) 0.22547(10) 0.37752(10)
N53_21 N 0.87752(10) 0.02453(10) 0.39926(10)
N55_21 N 0.89926(10) 0.22547(10) 0.37248(10)
N62_21 N 0.90085(10) 0.27072(10) 0.37484(10)
N63_21 N 0.84915(10) 0.27072(10) 0.37516(10)
S3_29 S 0.83020(5) 0.08784(5) 0.29698(5)
S4_23 S 0.70302(5) 0.08020(5) 0.33784(5)
S5_23 S 0.79698(5) 0.16216(5) 0.41980(5)
S6_17 S 0.91980(5) 0.29698(5) 0.16216(5)
S7_17 S 0.83784(5) 0.20302(5) 0.08020(5)
S9_21 S 0.88144(15) 0.25441(7) 0.44939(7)
S10_21 S 0.86856(15) 0.25441(7) 0.30061(7)
C27_29 C 0.84544(12) 0.10259(13) 0.28381(12)
C28_23 C 0.71619(12) 0.09544(12) 0.35259(13)
C29_23 C 0.78381(12) 0.14741(13) 0.40456(12)
C30_17 C 0.90456(12) 0.28381(12) 0.14741(13)
C31_17 C 0.85259(13) 0.21619(12) 0.09544(12)
C32_29 C 0.85166(11) 0.15982(12) 0.28098(12)
C33_29 C 0.84018(12) 0.14834(11) 0.21902(12)
C35_21 C 0.78098(12) 0.09018(12) 0.39834(11)
H17_29 H 0.8435 0.1479 0.2837
H18_29 H 0.8521 0.1565 0.2163
H20_21 H 0.7837 0.1021 0.4065
C37_29 C 0.84874(11) 0.17686(12) 0.29302(12)
C38_29 C 0.82314(12) 0.15126(11) 0.20698(12)
C40_21 C 0.79302(12) 0.07314(12) 0.40126(11)
C42_29 C 0.85983(15) 0.19518(16) 0.28888(14)
C43_29 C 0.80482(16) 0.14017(15) 0.21112(14)
C45_21 C 0.78888(14) 0.05482(16) 0.39017(15)
H22_29 H 0.8581 0.2073 0.2971
H23_29 H 0.7927 0.1419 0.2029
H25_21 H 0.7971 0.0427 0.3919
C47_29 C 0.87323(16) 0.19460(17) 0.27243(15)
C48_29 C 0.80540(17) 0.12677(16) 0.22757(15)
C50_21 C 0.77243(15) 0.05540(17) 0.37677(16)
H27_29 H 0.8807 0.2067 0.2687
H28_29 H 0.7933 0.1193 0.2313
H30_21 H 0.7687 0.0433 0.3693
C52_29 C 0.87596(14) 0.17686(16) 0.26137(15)
C53_29 C 0.82314(16) 0.12404(14) 0.23863(15)
C55_21 C 0.76137(15) 0.07314(16) 0.37404(14)
H32_29 H 0.8857 0.1770 0.2503
H33_29 H 0.8230 0.1143 0.2497
H35_21 H 0.7503 0.0730 0.3643
C57_29 C 0.76535(15) 0.11077(16) 0.33373(15)
C58_29 C 0.88923(16) 0.23465(15) 0.16627(15)
C60_21 C 0.83373(15) 0.13923(16) 0.48465(15)
H37_29 H 0.7552 0.1001 0.3346
H38_29 H 0.8999 0.2448 0.1654
H40_21 H 0.8346 0.1499 0.4948
C62_29 C 0.77810(16) 0.11135(17) 0.31723(17)
C63_29 C 0.88865(17) 0.22190(16) 0.18277(17)
C65_21 C 0.81723(17) 0.13865(17) 0.47190(16)
H42_29 H 0.7772 0.1008 0.3070
H43_29 H 0.8992 0.2228 0.1930
H45_21 H 0.8070 0.1492 0.4728
C67_29 C 0.79220(15) 0.12674(15) 0.31496(16)
C68_29 C 0.87326(15) 0.20780(15) 0.18504(16)
C70_21 C 0.81496(16) 0.12326(15) 0.45780(15)
H47_29 H 0.8010 0.1271 0.3031
H48_29 H 0.8729 0.1990 0.1969
H50_21 H 0.8031 0.1229 0.4490
C72_29 C 0.79374(12) 0.14199(13) 0.33005(13)
C73_29 C 0.85801(13) 0.20626(12) 0.16995(13)
C75_21 C 0.83005(13) 0.10801(13) 0.45626(12)
C77_29 C 0.78082(11) 0.14040(12) 0.34704(12)
C78_29 C 0.85960(12) 0.21918(11) 0.15296(12)
C80_21 C 0.84704(12) 0.10960(12) 0.46918(11)
H52_29 H 0.7819 0.1505 0.3577
H53_29 H 0.8495 0.2181 0.1423
H55_21 H 0.8577 0.0995 0.4681
C82_29 C 0.80959(11) 0.15855(12) 0.32875(12)
C83_29 C 0.84145(12) 0.19041(11) 0.17125(12)
C85_21 C 0.82875(12) 0.09145(12) 0.44041(11)
C87_29 C 0.83455(12) 0.17529(12) 0.31163(11)
C88_29 C 0.82471(12) 0.16545(12) 0.18837(11)
C90_21 C 0.81163(11) 0.07471(12) 0.41545(12)
C92_29 C 0.82615(12) 0.18565(12) 0.34330(12)
C93_29 C 0.81435(12) 0.17385(12) 0.15670(12)
C95_21 C 0.84330(12) 0.06435(12) 0.42385(12)
C97_29 C 0.83809(15) 0.22451(14) 0.39406(14)
C98_29 C 0.77549(14) 0.16191(15) 0.10594(14)
C100_21 C 0.89406(14) 0.02549(14) 0.41191(15)
H57_29 H 0.8407 0.2337 0.4053
H58_29 H 0.7663 0.1593 0.0947
H60_21 H 0.9053 0.0163 0.4093
C102_29 C 0.82164(15) 0.21110(15) 0.39574(15)
C103_29 C 0.78890(15) 0.17836(15) 0.10426(15)
C105_21 C 0.89574(15) 0.03890(15) 0.42836(15)
H62_29 H 0.8133 0.2108 0.4079
H63_29 H 0.7892 0.1867 0.0921
H65_21 H 0.9079 0.0392 0.4367
C107_29 C 0.81749(13) 0.19798(14) 0.37904(14)
C108_29 C 0.80202(14) 0.18251(13) 0.12096(14)
C110_21 C 0.87904(14) 0.05202(14) 0.43251(13)
H67_29 H 0.8062 0.1885 0.3797
H68_29 H 0.8115 0.1938 0.1203
H70_21 H 0.8797 0.0615 0.4438
C112_29 C 0.82949(12) 0.19881(12) 0.36196(13)
C113_29 C 0.80119(12) 0.17051(12) 0.13804(13)
C115_21 C 0.86196(13) 0.05119(12) 0.42051(12)
C117_29 C 0.84679(12) 0.21265(11) 0.36174(11)
C118_29 C 0.78735(11) 0.15321(12) 0.13826(11)
C120_21 C 0.86174(11) 0.03735(11) 0.40321(12)
H72_29 H 0.8558 0.2127 0.3500
H73_29 H 0.7873 0.1442 0.1500
H75_21 H 0.8500 0.0373 0.3942
C153_21 C 0.8782(2) 0.25149(14) 0.42456(19)
C154_21 C 0.8718(2) 0.25149(14) 0.32544(19)
S2_29 S 0.80061(7) 0.99559(7) 0.38144(15)
C26_29 C 0.82544(19) 0.99851(14) 0.3782(2)
S8_29 S 0.94939(7) 0.99559(7) 0.36856(15)
C152_29 C 0.92456(19) 0.99851(14) 0.3718(2)
S2_30 S 0.61856(15) 0.00441(7) 0.69939(7)
C26_30 C 0.6218(2) 0.00149(14) 0.67456(19)
Co6_22 Co 0.871072(19) 0.0000 0.621072(19)
S8_30 S 0.63144(15) 0.00441(7) 0.55061(7)
C152_30 C 0.6282(2) 0.00149(14) 0.57544(19)
N1_30 N 0.77320(9) 0.85606(10) 0.61292(10)
N2_30 N 0.62329(10) 0.99942(9) 0.65707(12)
S1_30 S 0.79698(5) 0.83020(5) 0.58784(5)
C1_30 C 0.78381(12) 0.84544(12) 0.60259(13)
Co6_23 Co 0.871072(19) 1.0000 0.621072(19)
Co10_21 Co 0.8750 0.8750 0.74856(2)
N11_30 N 0.72680(9) 0.88708(10) 0.64394(10)
N12_24 N 0.63708(10) 0.89394(10) 0.77320(9)
N13_24 N 0.60606(10) 0.86292(10) 0.72680(9)
N14_18 N 0.86292(10) 0.72680(9) 0.60606(10)
N15_18 N 0.89394(10) 0.77320(9) 0.63708(10)
N16_30 N 0.62671(10) 0.99942(9) 0.59293(12)
N19_21 N 0.90707(12) 0.87671(10) 0.74942(9)
N20_21 N 0.84293(12) 0.87329(10) 0.74942(9)
N21_30 N 0.73474(10) 0.84101(10) 0.63435(9)
N22_30 N 0.76526(10) 0.86565(9) 0.65899(10)
N23_17 N 0.86565(9) 0.98474(10) 0.59101(10)
N25_18 N 0.59101(10) 0.88435(9) 0.76526(10)
N26_14 N 0.88435(9) 0.76526(10) 0.59101(10)
N28_24 N 0.65072(11) 0.87501(10) 0.73344(10)
N29_18 N 0.84928(11) 0.76656(10) 0.62499(10)
N30_25 N 0.76656(10) 0.90072(11) 0.62501(10)
N32_21 N 0.62501(10) 0.98344(10) 0.84928(11)
N33_24 N 0.62499(10) 0.84928(11) 0.76656(10)
N34_18 N 0.87501(10) 0.73344(10) 0.65072(11)
N35_30 N 0.65473(10) 0.82947(10) 0.68848(10)
N36_30 N 0.84527(10) 0.81152(10) 0.67053(10)
N37_25 N 0.81152(10) 0.90473(10) 0.57947(10)
N39_21 N 0.57947(10) 0.93848(10) 0.84527(10)
N40_30 N 0.68852(9) 0.83997(10) 0.67919(10)
N41_30 N 0.81148(9) 0.82081(10) 0.66003(10)
N42_25 N 0.82081(10) 0.93852(9) 0.58997(10)
N44_21 N 0.58997(10) 0.92919(10) 0.81148(9)
N45_30 N 0.67314(10) 0.81119(9) 0.66224(10)
N46_30 N 0.82686(10) 0.83776(10) 0.68881(9)
N47_25 N 0.83776(10) 0.92314(10) 0.56119(9)
N49_21 N 0.56119(9) 0.91224(10) 0.82686(10)
N51_21 N 0.87752(10) 0.85074(10) 0.72547(10)
N52_25 N 0.85074(10) 0.87248(10) 0.52453(10)
N54_21 N 0.52453(10) 0.89926(10) 0.87752(10)
N56_21 N 0.87248(10) 0.89926(10) 0.72547(10)
N64_21 N 0.87484(10) 0.90085(10) 0.77072(10)
N65_21 N 0.87516(10) 0.84915(10) 0.77072(10)
S3_30 S 0.70302(5) 0.91216(5) 0.66980(5)
S4_24 S 0.66216(5) 0.91980(5) 0.79698(5)
S5_24 S 0.58020(5) 0.83784(5) 0.70302(5)
S6_18 S 0.83784(5) 0.70302(5) 0.58020(5)
S7_18 S 0.91980(5) 0.79698(5) 0.66216(5)
S11_21 S 0.94939(7) 0.88144(15) 0.75441(7)
S12_21 S 0.80061(7) 0.86856(15) 0.75441(7)
C27_30 C 0.71619(12) 0.89741(13) 0.65456(12)
C28_24 C 0.64741(13) 0.90456(12) 0.78381(12)
C29_24 C 0.59544(12) 0.85259(13) 0.71619(12)
C30_18 C 0.85259(13) 0.71619(12) 0.59544(12)
C31_18 C 0.90456(12) 0.78381(12) 0.64741(13)
C32_30 C 0.71902(12) 0.84018(12) 0.64834(11)
C33_30 C 0.78098(12) 0.85166(11) 0.65982(12)
C34_25 C 0.85166(11) 0.96902(12) 0.59018(12)
C36_21 C 0.59018(12) 0.89834(11) 0.78098(12)
H17_30 H 0.7163 0.8521 0.6565
H18_30 H 0.7837 0.8435 0.6479
H19_25 H 0.8435 0.9663 0.6021
H21_21 H 0.6021 0.9065 0.7837
C37_30 C 0.70698(12) 0.82314(12) 0.65126(11)
C38_30 C 0.79302(12) 0.84874(11) 0.67686(12)
C39_25 C 0.84874(11) 0.95698(12) 0.57314(12)
C41_21 C 0.57314(12) 0.90126(11) 0.79302(12)
C42_30 C 0.71112(14) 0.80482(16) 0.64017(15)
C43_30 C 0.78888(14) 0.85983(15) 0.69518(16)
C44_25 C 0.85983(15) 0.96112(14) 0.55482(16)
C46_21 C 0.55482(16) 0.89017(15) 0.78888(14)
H22_30 H 0.7029 0.7927 0.6419
H23_30 H 0.7971 0.8581 0.7073
H24_25 H 0.8581 0.9529 0.5427
H26_21 H 0.5427 0.8919 0.7971
C47_30 C 0.72757(15) 0.80540(17) 0.62677(16)
C48_30 C 0.77243(15) 0.87323(16) 0.69460(17)
C49_25 C 0.87323(16) 0.97757(15) 0.55540(17)
C51_21 C 0.55540(17) 0.87677(16) 0.77243(15)
H27_30 H 0.7313 0.7933 0.6193
H28_30 H 0.7687 0.8807 0.7067
H29_25 H 0.8807 0.9813 0.5433
H31_21 H 0.5433 0.8693 0.7687
C52_30 C 0.73863(15) 0.82314(16) 0.62404(14)
C53_30 C 0.76137(15) 0.87596(14) 0.67686(16)
C54_25 C 0.87596(14) 0.98863(15) 0.57314(16)
C56_21 C 0.57314(16) 0.87404(14) 0.76137(15)
H32_30 H 0.7497 0.8230 0.6143
H33_30 H 0.7503 0.8857 0.6770
H34_25 H 0.8857 0.9997 0.5730
H36_21 H 0.5730 0.8643 0.7503
C57_30 C 0.66627(15) 0.88923(16) 0.73465(15)
C58_30 C 0.83373(15) 0.76535(15) 0.61077(16)
C59_25 C 0.76535(15) 0.91627(15) 0.63923(16)
C61_21 C 0.63923(16) 0.98465(15) 0.83373(15)
H37_30 H 0.6654 0.8999 0.7448
H38_30 H 0.8346 0.7552 0.6001
H39_25 H 0.7552 0.9154 0.6499
H41_21 H 0.6499 0.9948 0.8346
C62_30 C 0.68277(17) 0.88865(17) 0.72190(16)
C63_30 C 0.81723(17) 0.77810(16) 0.61135(17)
C64_25 C 0.77810(16) 0.93277(17) 0.63865(17)
C66_21 C 0.63865(17) 0.97190(16) 0.81723(17)
H42_30 H 0.6930 0.8992 0.7228
H43_30 H 0.8070 0.7772 0.6008
H44_25 H 0.7772 0.9430 0.6492
H46_21 H 0.6492 0.9728 0.8070
C67_30 C 0.68504(16) 0.87326(15) 0.70780(15)
C68_30 C 0.81496(16) 0.79220(15) 0.62674(15)
C69_25 C 0.79220(15) 0.93504(16) 0.62326(15)
C71_21 C 0.62326(15) 0.95780(15) 0.81496(16)
H47_30 H 0.6969 0.8729 0.6990
H48_30 H 0.8031 0.8010 0.6271
H49_25 H 0.8010 0.9469 0.6229
H51_21 H 0.6229 0.9490 0.8031
C72_30 C 0.66995(13) 0.85801(13) 0.70626(12)
C73_30 C 0.83005(13) 0.79374(12) 0.64199(13)
C74_25 C 0.79374(12) 0.91995(13) 0.60801(13)
C76_21 C 0.60801(13) 0.95626(12) 0.83005(13)
C77_30 C 0.65296(12) 0.85960(12) 0.71918(11)
C78_30 C 0.84704(12) 0.78082(11) 0.64040(12)
C79_25 C 0.78082(11) 0.90296(12) 0.60960(12)
C81_21 C 0.60960(12) 0.96918(11) 0.84704(12)
H52_30 H 0.6423 0.8495 0.7181
H53_30 H 0.8577 0.7819 0.6505
H54_25 H 0.7819 0.8923 0.5995
H56_21 H 0.5995 0.9681 0.8577
C82_30 C 0.67125(12) 0.84145(12) 0.69041(11)
C83_30 C 0.82875(12) 0.80959(11) 0.65855(12)
C84_25 C 0.80959(11) 0.92125(12) 0.59145(12)
C86_21 C 0.59145(12) 0.94041(11) 0.82875(12)
C87_30 C 0.68837(11) 0.82471(12) 0.66545(12)
C88_30 C 0.81163(11) 0.83455(12) 0.67529(12)
C89_25 C 0.83455(12) 0.93837(11) 0.57471(12)
C91_21 C 0.57471(12) 0.91545(12) 0.81163(11)
C92_30 C 0.65670(12) 0.81435(12) 0.67385(12)
C93_30 C 0.84330(12) 0.82615(12) 0.68565(12)
C94_25 C 0.82615(12) 0.90670(12) 0.56435(12)
C96_21 C 0.56435(12) 0.92385(12) 0.84330(12)
C97_30 C 0.60594(14) 0.77549(14) 0.66191(15)
C98_30 C 0.89406(14) 0.83809(15) 0.72451(14)
C99_25 C 0.83809(15) 0.85594(14) 0.52549(14)
C101_21 C 0.52549(14) 0.91191(15) 0.89406(14)
H57_30 H 0.5947 0.7663 0.6593
H58_30 H 0.9053 0.8407 0.7337
H59_25 H 0.8407 0.8447 0.5163
H61_21 H 0.5163 0.9093 0.9053
C102_30 C 0.60426(15) 0.78890(15) 0.67836(15)
C103_30 C 0.89574(15) 0.82164(15) 0.71110(15)
C104_25 C 0.82164(15) 0.85426(15) 0.53890(15)
C106_21 C 0.53890(15) 0.92836(15) 0.89574(15)
H62_30 H 0.5921 0.7892 0.6867
H63_30 H 0.9079 0.8133 0.7108
H64_25 H 0.8133 0.8421 0.5392
H66_21 H 0.5392 0.9367 0.9079
C107_30 C 0.62096(14) 0.80202(14) 0.68251(13)
C108_30 C 0.87904(14) 0.81749(13) 0.69798(14)
C109_25 C 0.81749(13) 0.87096(14) 0.55202(14)
C111_21 C 0.55202(14) 0.93251(13) 0.87904(14)
H67_30 H 0.6203 0.8115 0.6938
H68_30 H 0.8797 0.8062 0.6885
H69_25 H 0.8062 0.8703 0.5615
H71_21 H 0.5615 0.9438 0.8797
C112_30 C 0.63804(13) 0.80119(12) 0.67051(12)
C113_30 C 0.86196(13) 0.82949(12) 0.69881(12)
C114_25 C 0.82949(12) 0.88804(13) 0.55119(12)
C116_21 C 0.55119(12) 0.92051(12) 0.86196(13)
C117_30 C 0.63826(11) 0.78735(11) 0.65321(12)
C118_30 C 0.86174(11) 0.84679(12) 0.71265(11)
C119_25 C 0.84679(12) 0.88826(11) 0.53735(11)
C121_21 C 0.53735(11) 0.90321(12) 0.86174(11)
H72_30 H 0.6500 0.7873 0.6442
H73_30 H 0.8500 0.8558 0.7127
H74_25 H 0.8558 0.9000 0.5373
H76_21 H 0.5373 0.8942 0.8500
C155_21 C 0.92456(19) 0.8782(2) 0.75149(14)
C156_21 C 0.82544(19) 0.8718(2) 0.75149(14)
N1_31 N 0.02320(9) 0.86292(10) 0.64394(10)
S1_31 S 0.04698(5) 0.83784(5) 0.66980(5)
C1_31 C 0.03381(12) 0.85259(13) 0.65456(12)
N22_31 N 0.01526(10) 0.90899(10) 0.63435(9)
N36_31 N 0.09527(10) 0.92053(10) 0.68848(10)
N41_31 N 0.06148(9) 0.91003(10) 0.67919(10)
N46_31 N 0.07686(10) 0.93881(9) 0.66224(10)
C33_31 C 0.03098(12) 0.90982(12) 0.64834(11)
H18_31 H 0.0337 0.8979 0.6565
C38_31 C 0.04302(12) 0.92686(12) 0.65126(11)
C43_31 C 0.03888(14) 0.94518(16) 0.64017(15)
H23_31 H 0.0471 0.9573 0.6419
C48_31 C 0.02243(15) 0.94460(17) 0.62677(16)
H28_31 H 0.0187 0.9567 0.6193
C53_31 C 0.01137(15) 0.92686(16) 0.62404(14)
H33_31 H 0.0003 0.9270 0.6143
C58_31 C 0.08373(15) 0.86077(16) 0.73465(15)
H38_31 H 0.0846 0.8501 0.7448
C63_31 C 0.06723(17) 0.86135(17) 0.72190(16)
H43_31 H 0.0570 0.8508 0.7228
C68_31 C 0.06496(16) 0.87674(15) 0.70780(15)
H48_31 H 0.0531 0.8771 0.6990
C73_31 C 0.08005(13) 0.89199(13) 0.70626(12)
C78_31 C 0.09704(12) 0.89040(12) 0.71918(11)
H53_31 H 0.1077 0.9005 0.7181
C83_31 C 0.07875(12) 0.90855(12) 0.69041(11)
C88_31 C 0.06163(11) 0.92529(12) 0.66545(12)
C93_31 C 0.09330(12) 0.93565(12) 0.67385(12)
C98_31 C 0.14406(14) 0.97451(14) 0.66191(15)
H58_31 H 0.1553 0.9837 0.6593
C103_31 C 0.14574(15) 0.96110(15) 0.67836(15)
H63_31 H 0.1579 0.9608 0.6867
C108_31 C 0.12904(14) 0.94798(14) 0.68251(13)
H68_31 H 0.1297 0.9385 0.6938
C113_31 C 0.11196(13) 0.94881(12) 0.67051(12)
C118_31 C 0.11174(11) 0.96265(11) 0.65321(12)
H73_31 H 0.1000 0.9627 0.6442
N12_25 N 0.88708(10) 0.02320(9) 0.60606(10)
N25_19 N 0.84101(10) 0.01526(10) 0.61565(9)
N32_22 N 0.87501(10) 0.09928(11) 0.51656(10)
N33_25 N 0.87499(10) 0.01656(10) 0.65072(11)
N39_22 N 0.82947(10) 0.09527(10) 0.56152(10)
N44_22 N 0.83997(10) 0.06148(9) 0.57081(10)
N49_22 N 0.81119(9) 0.07686(10) 0.58776(10)
N54_22 N 0.77453(10) 0.12752(10) 0.60074(10)
S4_25 S 0.91216(5) 0.04698(5) 0.58020(5)
C28_25 C 0.89741(13) 0.03381(12) 0.59544(12)
C36_22 C 0.84018(12) 0.03098(12) 0.60166(11)
H21_22 H 0.8521 0.0337 0.5935
C41_22 C 0.82314(12) 0.04302(12) 0.59874(11)
C46_22 C 0.80482(16) 0.03888(14) 0.60983(15)
H26_22 H 0.7927 0.0471 0.6081
C51_22 C 0.80540(17) 0.02243(15) 0.62323(16)
H31_22 H 0.7933 0.0187 0.6307
C56_22 C 0.82314(16) 0.01137(15) 0.62596(14)
H36_22 H 0.8230 0.0003 0.6357
C61_22 C 0.88923(16) 0.08373(15) 0.51535(15)
H41_22 H 0.8999 0.0846 0.5052
C66_22 C 0.88865(17) 0.06723(17) 0.52810(16)
H46_22 H 0.8992 0.0570 0.5272
C71_22 C 0.87326(15) 0.06496(16) 0.54220(15)
H51_22 H 0.8729 0.0531 0.5510
C76_22 C 0.85801(13) 0.08005(13) 0.54374(12)
C81_22 C 0.85960(12) 0.09704(12) 0.53082(11)
H56_22 H 0.8495 0.1077 0.5319
C86_22 C 0.84145(12) 0.07875(12) 0.55959(11)
C91_22 C 0.82471(12) 0.06163(11) 0.58455(12)
C96_22 C 0.81435(12) 0.09330(12) 0.57615(12)
C101_22 C 0.77549(14) 0.14406(14) 0.58809(15)
H61_22 H 0.7663 0.1553 0.5907
C106_22 C 0.78890(15) 0.14574(15) 0.57164(15)
H66_22 H 0.7892 0.1579 0.5633
C111_22 C 0.80202(14) 0.12904(14) 0.56749(13)
H71_22 H 0.8115 0.1297 0.5562
C116_22 C 0.80119(12) 0.11196(13) 0.57949(12)
C121_22 C 0.78735(11) 0.11174(11) 0.59679(12)
H76_22 H 0.7873 0.1000 0.6058
N2_31 N 0.87329(10) 0.90707(12) 0.50058(9)
N4_18 N 0.98344(10) 0.84928(11) 0.62501(10)
N5_18 N 0.93848(10) 0.84527(10) 0.57947(10)
N6_18 N 0.92919(10) 0.81148(9) 0.58997(10)
N7_18 N 0.91224(10) 0.82686(10) 0.56119(9)
N8_18 N 0.89926(10) 0.87752(10) 0.52453(10)
S2_31 S 0.86856(15) 0.94939(7) 0.49559(7)
C2_18 C 0.89834(11) 0.78098(12) 0.59018(12)
H1_18 H 0.9065 0.7837 0.6021
C3_18 C 0.90126(11) 0.79302(12) 0.57314(12)
C4_18 C 0.89017(15) 0.78888(14) 0.55482(16)
H2_18 H 0.8919 0.7971 0.5427
C5_18 C 0.87677(16) 0.77243(15) 0.55540(17)
H3_18 H 0.8693 0.7687 0.5433
C6_18 C 0.87404(14) 0.76137(15) 0.57314(16)
H4_18 H 0.8643 0.7503 0.5730
C7_18 C 0.98465(15) 0.83373(15) 0.63923(16)
H5_18 H 0.9948 0.8346 0.6499
C8_18 C 0.97190(16) 0.81723(17) 0.63865(17)
H6_18 H 0.9728 0.8070 0.6492
C9_18 C 0.95780(15) 0.81496(16) 0.62326(15)
H7_18 H 0.9490 0.8031 0.6229
C10_18 C 0.95626(12) 0.83005(13) 0.60801(13)
C11_18 C 0.96918(11) 0.84704(12) 0.60960(12)
H8_18 H 0.9681 0.8577 0.5995
C12_18 C 0.94041(11) 0.82875(12) 0.59145(12)
C13_18 C 0.91545(12) 0.81163(11) 0.57471(12)
C14_18 C 0.92385(12) 0.84330(12) 0.56435(12)
C15_18 C 0.91191(15) 0.89406(14) 0.52549(14)
H9_18 H 0.9093 0.9053 0.5163
C16_18 C 0.92836(15) 0.89574(15) 0.53890(15)
H10_18 H 0.9367 0.9079 0.5392
C17_18 C 0.93251(13) 0.87904(14) 0.55202(14)
H11_18 H 0.9438 0.8797 0.5615
C18_18 C 0.92051(12) 0.86196(13) 0.55119(12)
C19_18 C 0.90321(12) 0.86174(11) 0.53735(11)
H12_18 H 0.8942 0.8500 0.5373
C26_31 C 0.8718(2) 0.92456(19) 0.49851(14)
N11_31 N 0.97680(9) 0.89394(10) 0.61292(10)
N13_25 N 0.85606(10) 0.97680(9) 0.63708(10)
N16_31 N 0.87671(10) 0.84293(12) 0.50058(9)
N21_31 N 0.98474(10) 0.88435(9) 0.65899(10)
N28_25 N 0.90072(11) 0.98344(10) 0.62499(10)
N35_31 N 0.90473(10) 0.93848(10) 0.67053(10)
N40_31 N 0.93852(9) 0.92919(10) 0.66003(10)
N45_31 N 0.92314(10) 0.91224(10) 0.68881(9)
S3_31 S 0.95302(5) 0.91980(5) 0.58784(5)
S5_25 S 0.83020(5) 0.95302(5) 0.66216(5)
S8_31 S 0.88144(15) 0.80061(7) 0.49559(7)
C27_31 C 0.96619(12) 0.90456(12) 0.60259(13)
C29_25 C 0.84544(12) 0.96619(12) 0.64741(13)
C32_31 C 0.96902(12) 0.89834(11) 0.65982(12)
H17_31 H 0.9663 0.9065 0.6479
C37_31 C 0.95698(12) 0.90126(11) 0.67686(12)
C42_31 C 0.96112(14) 0.89017(15) 0.69518(16)
H22_31 H 0.9529 0.8919 0.7073
C47_31 C 0.97757(15) 0.87677(16) 0.69460(17)
H27_31 H 0.9813 0.8693 0.7067
C52_31 C 0.98863(15) 0.87404(14) 0.67686(16)
H32_31 H 0.9997 0.8643 0.6770
C57_31 C 0.91627(15) 0.98465(15) 0.61077(16)
H37_31 H 0.9154 0.9948 0.6001
C62_31 C 0.93277(17) 0.97190(16) 0.61135(17)
H42_31 H 0.9430 0.9728 0.6008
C67_31 C 0.93504(16) 0.95780(15) 0.62674(15)
H47_31 H 0.9469 0.9490 0.6271
C72_31 C 0.91995(13) 0.95626(12) 0.64199(13)
C77_31 C 0.90296(12) 0.96918(11) 0.64040(12)
H52_31 H 0.8923 0.9681 0.6505
C82_31 C 0.92125(12) 0.94041(11) 0.65855(12)
C87_31 C 0.93837(11) 0.91545(12) 0.67529(12)
C92_31 C 0.90670(12) 0.92385(12) 0.68565(12)
C97_31 C 0.85594(14) 0.91191(15) 0.72451(14)
H57_31 H 0.8447 0.9093 0.7337
C102_31 C 0.85426(15) 0.92836(15) 0.71110(15)
H62_31 H 0.8421 0.9367 0.7108
C107_31 C 0.87096(14) 0.93251(13) 0.69798(14)
H67_31 H 0.8703 0.9438 0.6885
C112_31 C 0.88804(13) 0.92051(12) 0.69881(12)
C117_31 C 0.88826(11) 0.90321(12) 0.71265(11)
H72_31 H 0.9000 0.8942 0.7127
C152_31 C 0.8782(2) 0.82544(19) 0.49851(14)
N2_32 N 0.59293(12) 0.12671(10) 0.49942(9)
N9_14 N 0.62516(10) 0.15085(10) 0.52072(10)
N10_14 N 0.67186(11) 0.15591(12) 0.56390(11)
S2_32 S 0.55061(7) 0.13144(15) 0.50441(7)
C20_14 C 0.61165(16) 0.16623(15) 0.51834(14)
H13_14 H 0.6008 0.1646 0.5084
C21_14 C 0.6126(2) 0.18469(17) 0.52980(17)
H14_14 H 0.6033 0.1958 0.5271
C22_14 C 0.62750(16) 0.18620(15) 0.54515(16)
H15_14 H 0.6282 0.1982 0.5536
C23_14 C 0.64131(14) 0.17016(14) 0.54809(13)
C24_14 C 0.63931(13) 0.15262(12) 0.53528(12)
H16_14 H 0.6487 0.1414 0.5373
C25_14 C 0.65725(14) 0.17079(13) 0.56431(13)
C26_32 C 0.57544(19) 0.1282(2) 0.50149(14)
N16_32 N 0.65707(12) 0.12329(10) 0.49942(9)
N31_22 N 0.59928(11) 0.23344(10) 0.37499(10)
N38_22 N 0.59527(10) 0.18848(10) 0.42053(10)
N43_22 N 0.56148(9) 0.17919(10) 0.41003(10)
N48_22 N 0.57686(10) 0.16224(10) 0.43881(9)
N53_22 N 0.62752(10) 0.14926(10) 0.47547(10)
N57_14 N 0.65085(10) 0.22928(10) 0.62484(10)
N58_14 N 0.72928(10) 0.12516(10) 0.59915(10)
N66_14 N 0.68610(11) 0.17186(11) 0.59409(12)
N67_14 N 0.65591(12) 0.18610(11) 0.57814(11)
S8_32 S 0.69939(7) 0.11856(15) 0.50441(7)
C35_22 C 0.53098(12) 0.14834(11) 0.40982(12)
H20_22 H 0.5337 0.1565 0.3979
C40_22 C 0.54302(12) 0.15126(11) 0.42686(12)
C45_22 C 0.53888(14) 0.14017(15) 0.44518(16)
H25_22 H 0.5471 0.1419 0.4573
C50_22 C 0.52243(15) 0.12677(16) 0.44460(17)
H30_22 H 0.5187 0.1193 0.4567
C55_22 C 0.51137(15) 0.12404(14) 0.42686(16)
H35_22 H 0.5003 0.1143 0.4270
C60_22 C 0.58373(15) 0.23465(15) 0.36077(16)
H40_22 H 0.5846 0.2448 0.3501
C65_22 C 0.56723(17) 0.22190(16) 0.36135(17)
H45_22 H 0.5570 0.2228 0.3508
C70_22 C 0.56496(16) 0.20780(15) 0.37674(15)
H50_22 H 0.5531 0.1990 0.3771
C75_22 C 0.58005(13) 0.20626(12) 0.39199(13)
C80_22 C 0.59704(12) 0.21918(11) 0.39040(12)
H55_22 H 0.6077 0.2181 0.4005
C85_22 C 0.57875(12) 0.19041(11) 0.40855(12)
C90_22 C 0.56163(11) 0.16545(12) 0.42529(12)
C95_22 C 0.59330(12) 0.17385(12) 0.43565(12)
C100_22 C 0.64406(14) 0.16191(15) 0.47451(14)
H60_22 H 0.6553 0.1593 0.4837
C105_22 C 0.64574(15) 0.17836(15) 0.46110(15)
H65_22 H 0.6579 0.1867 0.4608
C110_22 C 0.62904(14) 0.18251(13) 0.44798(14)
H70_22 H 0.6297 0.1938 0.4385
C115_22 C 0.61196(13) 0.17051(12) 0.44881(12)
C120_22 C 0.61174(11) 0.15321(12) 0.46265(11)
H75_22 H 0.6000 0.1442 0.4627
C122_14 C 0.66623(15) 0.23166(14) 0.63835(16)
C123_14 C 0.73166(14) 0.11165(16) 0.58377(15)
H77_14 H 0.6646 0.2416 0.6492
H78_14 H 0.7416 0.1008 0.5854
C127_14 C 0.68469(17) 0.22020(17) 0.6374(2)
C128_14 C 0.72020(17) 0.1126(2) 0.56531(17)
H82_14 H 0.6958 0.2229 0.6467
H83_14 H 0.7229 0.1033 0.5542
C132_14 C 0.68620(15) 0.20485(16) 0.62250(16)
C133_14 C 0.70485(16) 0.12750(16) 0.56380(15)
H87_14 H 0.6982 0.1964 0.6218
H88_14 H 0.6964 0.1282 0.5518
C137_14 C 0.67016(14) 0.20191(13) 0.60869(14)
C138_14 C 0.70191(13) 0.14131(14) 0.57984(14)
C142_14 C 0.65262(12) 0.21472(12) 0.61069(13)
C143_14 C 0.71472(12) 0.13931(13) 0.59738(12)
H92_14 H 0.6414 0.2127 0.6013
H93_14 H 0.7127 0.1487 0.6086
C147_14 C 0.68569(13) 0.15725(14) 0.57921(13)
C148_14 C 0.67079(13) 0.18569(13) 0.59275(14)
C152_32 C 0.67456(19) 0.1218(2) 0.50149(14)
N11_32 N 0.64394(10) 0.02320(9) 0.86292(10)
N21_32 N 0.63435(9) 0.01526(10) 0.90899(10)
N32_23 N 0.84928(11) 0.12499(10) 0.76656(10)
N35_32 N 0.68848(10) 0.09527(10) 0.92053(10)
N39_23 N 0.84527(10) 0.17053(10) 0.81152(10)
N40_32 N 0.67919(10) 0.06148(9) 0.91003(10)
N44_23 N 0.81148(9) 0.16003(10) 0.82081(10)
N45_32 N 0.66224(10) 0.07686(10) 0.93881(9)
N49_23 N 0.82686(10) 0.18881(9) 0.83776(10)
N54_23 N 0.87752(10) 0.22547(10) 0.85074(10)
S3_32 S 0.66980(5) 0.04698(5) 0.83784(5)
C27_32 C 0.65456(12) 0.03381(12) 0.85259(13)
C32_32 C 0.64834(11) 0.03098(12) 0.90982(12)
C36_23 C 0.78098(12) 0.15982(12) 0.85166(11)
H17_32 H 0.6565 0.0337 0.8979
H21_23 H 0.7837 0.1479 0.8435
C37_32 C 0.65126(11) 0.04302(12) 0.92686(12)
C41_23 C 0.79302(12) 0.17686(12) 0.84874(11)
C42_32 C 0.64017(15) 0.03888(14) 0.94518(16)
C46_23 C 0.78888(14) 0.19518(16) 0.85983(15)
H22_32 H 0.6419 0.0471 0.9573
H26_23 H 0.7971 0.2073 0.8581
C47_32 C 0.62677(16) 0.02243(15) 0.94460(17)
C51_23 C 0.77243(15) 0.19460(17) 0.87323(16)
H27_32 H 0.6193 0.0187 0.9567
H31_23 H 0.7687 0.2067 0.8807
C52_32 C 0.62404(14) 0.01137(15) 0.92686(16)
C56_23 C 0.76137(15) 0.17686(16) 0.87596(14)
H32_32 H 0.6143 0.0003 0.9270
H36_23 H 0.7503 0.1770 0.8857
C57_32 C 0.73465(15) 0.08373(15) 0.86077(16)
C61_23 C 0.83373(15) 0.11077(16) 0.76535(15)
H37_32 H 0.7448 0.0846 0.8501
H41_23 H 0.8346 0.1001 0.7552
C62_32 C 0.72190(16) 0.06723(17) 0.86135(17)
C66_23 C 0.81723(17) 0.11135(17) 0.77810(16)
H42_32 H 0.7228 0.0570 0.8508
H46_23 H 0.8070 0.1008 0.7772
C67_32 C 0.70780(15) 0.06496(16) 0.87674(15)
C71_23 C 0.81496(16) 0.12674(15) 0.79220(15)
H47_32 H 0.6990 0.0531 0.8771
H51_23 H 0.8031 0.1271 0.8010
C72_32 C 0.70626(12) 0.08005(13) 0.89199(13)
C76_23 C 0.83005(13) 0.14199(13) 0.79374(12)
C77_32 C 0.71918(11) 0.09704(12) 0.89040(12)
C81_23 C 0.84704(12) 0.14040(12) 0.78082(11)
H52_32 H 0.7181 0.1077 0.9005
H56_23 H 0.8577 0.1505 0.7819
C82_32 C 0.69041(11) 0.07875(12) 0.90855(12)
C86_23 C 0.82875(12) 0.15855(12) 0.80959(11)
C87_32 C 0.66545(12) 0.06163(11) 0.92529(12)
C91_23 C 0.81163(11) 0.17529(12) 0.83455(12)
C92_32 C 0.67385(12) 0.09330(12) 0.93565(12)
C96_23 C 0.84330(12) 0.18565(12) 0.82615(12)
C97_32 C 0.66191(15) 0.14406(14) 0.97451(14)
C101_23 C 0.89406(14) 0.22451(14) 0.83809(15)
H57_32 H 0.6593 0.1553 0.9837
H61_23 H 0.9053 0.2337 0.8407
C102_32 C 0.67836(15) 0.14574(15) 0.96110(15)
C106_23 C 0.89574(15) 0.21110(15) 0.82164(15)
H62_32 H 0.6867 0.1579 0.9608
H66_23 H 0.9079 0.2108 0.8133
C107_32 C 0.68251(13) 0.12904(14) 0.94798(14)
C111_23 C 0.87904(14) 0.19798(14) 0.81749(13)
H67_32 H 0.6938 0.1297 0.9385
H71_23 H 0.8797 0.1885 0.8062
C112_32 C 0.67051(12) 0.11196(13) 0.94881(12)
C116_23 C 0.86196(13) 0.19881(12) 0.82949(12)
C117_32 C 0.65321(12) 0.11174(11) 0.96265(11)
C121_23 C 0.86174(11) 0.21265(11) 0.84679(12)
H72_32 H 0.6442 0.1000 0.9627
H76_23 H 0.8500 0.2127 0.8558
N14_19 N 0.60606(10) 0.88708(10) 0.02320(9)
N34_19 N 0.65072(11) 0.87499(10) 0.01656(10)
S6_19 S 0.58020(5) 0.91216(5) 0.04698(5)
C30_19 C 0.59544(12) 0.89741(13) 0.03381(12)
N1_32 N 0.61292(10) 0.97680(9) 0.89394(10)
S1_32 S 0.58784(5) 0.95302(5) 0.91980(5)
C1_32 C 0.60259(13) 0.96619(12) 0.90456(12)
Co10_22 Co 0.74856(2) 0.8750 0.8750
N15_19 N 0.63708(10) 0.85606(10) 0.97680(9)
N19_22 N 0.74942(9) 0.84293(12) 0.87329(10)
N20_22 N 0.74942(9) 0.90707(12) 0.87671(10)
N22_32 N 0.65899(10) 0.98474(10) 0.88435(9)
N26_15 N 0.59101(10) 0.86565(9) 0.98474(10)
N29_19 N 0.62499(10) 0.90072(11) 0.98344(10)
N36_32 N 0.67053(10) 0.90473(10) 0.93848(10)
N41_32 N 0.66003(10) 0.93852(9) 0.92919(10)
N46_32 N 0.68881(9) 0.92314(10) 0.91224(10)
N51_22 N 0.72547(10) 0.87248(10) 0.89926(10)
N56_22 N 0.72547(10) 0.87752(10) 0.85074(10)
N64_22 N 0.77072(10) 0.87516(10) 0.84915(10)
N65_22 N 0.77072(10) 0.87484(10) 0.90085(10)
S7_19 S 0.66216(5) 0.83020(5) 0.95302(5)
S11_22 S 0.75441(7) 0.80061(7) 0.86856(15)
S12_22 S 0.75441(7) 0.94939(7) 0.88144(15)
C31_19 C 0.64741(13) 0.84544(12) 0.96619(12)
C33_32 C 0.65982(12) 0.96902(12) 0.89834(11)
H18_32 H 0.6479 0.9663 0.9065
C38_32 C 0.67686(12) 0.95698(12) 0.90126(11)
C43_32 C 0.69518(16) 0.96112(14) 0.89017(15)
H23_32 H 0.7073 0.9529 0.8919
C48_32 C 0.69460(17) 0.97757(15) 0.87677(16)
H28_32 H 0.7067 0.9813 0.8693
C53_32 C 0.67686(16) 0.98863(15) 0.87404(14)
H33_32 H 0.6770 0.9997 0.8643
C58_32 C 0.61077(16) 0.91627(15) 0.98465(15)
H38_32 H 0.6001 0.9154 0.9948
C63_32 C 0.61135(17) 0.93277(17) 0.97190(16)
H43_32 H 0.6008 0.9430 0.9728
C68_32 C 0.62674(15) 0.93504(16) 0.95780(15)
H48_32 H 0.6271 0.9469 0.9490
C73_32 C 0.64199(13) 0.91995(13) 0.95626(12)
C78_32 C 0.64040(12) 0.90296(12) 0.96918(11)
H53_32 H 0.6505 0.8923 0.9681
C83_32 C 0.65855(12) 0.92125(12) 0.94041(11)
C88_32 C 0.67529(12) 0.93837(11) 0.91545(12)
C93_32 C 0.68565(12) 0.90670(12) 0.92385(12)
C98_32 C 0.72451(14) 0.85594(14) 0.91191(15)
H58_32 H 0.7337 0.8447 0.9093
C103_32 C 0.71110(15) 0.85426(15) 0.92836(15)
H63_32 H 0.7108 0.8421 0.9367
C108_32 C 0.69798(14) 0.87096(14) 0.93251(13)
H68_32 H 0.6885 0.8703 0.9438
C113_32 C 0.69881(12) 0.88804(13) 0.92051(12)
C118_32 C 0.71265(11) 0.88826(11) 0.90321(12)
H73_32 H 0.7127 0.9000 0.8942
C155_22 C 0.75149(14) 0.82544(19) 0.8718(2)
C156_22 C 0.75149(14) 0.92456(19) 0.8782(2)
N1_33 N 0.72680(9) 0.86292(10) 0.10606(10)
N2_33 N 0.87671(10) 0.90707(12) 0.24942(9)
N3_12 N 0.86565(9) 0.76526(10) 0.15899(10)
N4_19 N 0.76656(10) 0.84928(11) 0.12499(10)
N5_19 N 0.81152(10) 0.84527(10) 0.17053(10)
N6_19 N 0.82081(10) 0.81148(9) 0.16003(10)
N7_19 N 0.83776(10) 0.82686(10) 0.18881(9)
N8_19 N 0.85074(10) 0.87752(10) 0.22547(10)
S1_33 S 0.70302(5) 0.83784(5) 0.08020(5)
S2_33 S 0.88144(15) 0.94939(7) 0.25441(7)
C1_33 C 0.71619(12) 0.85259(13) 0.09544(12)
C2_19 C 0.85166(11) 0.78098(12) 0.15982(12)
H1_19 H 0.8435 0.7837 0.1479
C3_19 C 0.84874(11) 0.79302(12) 0.17686(12)
C4_19 C 0.85983(15) 0.78888(14) 0.19518(16)
H2_19 H 0.8581 0.7971 0.2073
C5_19 C 0.87323(16) 0.77243(15) 0.19460(17)
H3_19 H 0.8807 0.7687 0.2067
C6_19 C 0.87596(14) 0.76137(15) 0.17686(16)
H4_19 H 0.8857 0.7503 0.1770
C7_19 C 0.76535(15) 0.83373(15) 0.11077(16)
H5_19 H 0.7552 0.8346 0.1001
C8_19 C 0.77810(16) 0.81723(17) 0.11135(17)
H6_19 H 0.7772 0.8070 0.1008
C9_19 C 0.79220(15) 0.81496(16) 0.12674(15)
H7_19 H 0.8010 0.8031 0.1271
C10_19 C 0.79374(12) 0.83005(13) 0.14199(13)
C11_19 C 0.78082(11) 0.84704(12) 0.14040(12)
H8_19 H 0.7819 0.8577 0.1505
C12_19 C 0.80959(11) 0.82875(12) 0.15855(12)
C13_19 C 0.83455(12) 0.81163(11) 0.17529(12)
C14_19 C 0.82615(12) 0.84330(12) 0.18565(12)
C15_19 C 0.83809(15) 0.89406(14) 0.22451(14)
H9_19 H 0.8407 0.9053 0.2337
C16_19 C 0.82164(15) 0.89574(15) 0.21110(15)
H10_19 H 0.8133 0.9079 0.2108
C17_19 C 0.81749(13) 0.87904(14) 0.19798(14)
H11_19 H 0.8062 0.8797 0.1885
C18_19 C 0.82949(12) 0.86196(13) 0.19881(12)
C19_19 C 0.84679(12) 0.86174(11) 0.21265(11)
H12_19 H 0.8558 0.8500 0.2127
C26_33 C 0.8782(2) 0.92456(19) 0.25149(14)
Co5_12 Co 0.871072(19) 0.7500 0.128928(19)
Co9_22 Co 0.8750 0.8750 0.00144(2)
N11_33 N 0.77320(9) 0.89394(10) 0.13708(10)
N16_33 N 0.87329(10) 0.84293(12) 0.24942(9)
N17_22 N 0.90707(12) 0.87329(10) 0.00058(9)
N18_22 N 0.84293(12) 0.87671(10) 0.00058(9)
N21_33 N 0.76526(10) 0.88435(9) 0.09101(10)
N22_33 N 0.73474(10) 0.90899(10) 0.11565(9)
N35_33 N 0.84527(10) 0.93848(10) 0.07947(10)
N36_33 N 0.65473(10) 0.92053(10) 0.06152(10)
N40_33 N 0.81148(9) 0.92919(10) 0.08997(10)
N41_33 N 0.68852(9) 0.91003(10) 0.07081(10)
N45_33 N 0.82686(10) 0.91224(10) 0.06119(9)
N46_33 N 0.67314(10) 0.93881(9) 0.08776(10)
N50_22 N 0.87752(10) 0.89926(10) 0.02453(10)
N55_22 N 0.87248(10) 0.85074(10) 0.02453(10)
S3_33 S 0.79698(5) 0.91980(5) 0.16216(5)
S8_33 S 0.86856(15) 0.80061(7) 0.25441(7)
C27_33 C 0.78381(12) 0.90456(12) 0.14741(13)
C32_33 C 0.78098(12) 0.89834(11) 0.09018(12)
C33_33 C 0.71902(12) 0.90982(12) 0.10166(11)
H17_33 H 0.7837 0.9065 0.1021
H18_33 H 0.7163 0.8979 0.0935
C37_33 C 0.79302(12) 0.90126(11) 0.07314(12)
C38_33 C 0.70698(12) 0.92686(12) 0.09874(11)
C42_33 C 0.78888(14) 0.89017(15) 0.05482(16)
C43_33 C 0.71112(14) 0.94518(16) 0.10983(15)
H22_33 H 0.7971 0.8919 0.0427
H23_33 H 0.7029 0.9573 0.1081
C47_33 C 0.77243(15) 0.87677(16) 0.05540(17)
C48_33 C 0.72757(15) 0.94460(17) 0.12323(16)
H27_33 H 0.7687 0.8693 0.0433
H28_33 H 0.7313 0.9567 0.1307
C52_33 C 0.76137(15) 0.87404(14) 0.07314(16)
C53_33 C 0.73863(15) 0.92686(16) 0.12596(14)
H32_33 H 0.7503 0.8643 0.0730
H33_33 H 0.7497 0.9270 0.1357
C57_33 C 0.83373(15) 0.98465(15) 0.13923(16)
C58_33 C 0.66627(15) 0.86077(16) 0.01535(15)
H37_33 H 0.8346 0.9948 0.1499
H38_33 H 0.6654 0.8501 0.0052
C62_33 C 0.81723(17) 0.97190(16) 0.13865(17)
C63_33 C 0.68277(17) 0.86135(17) 0.02810(16)
H42_33 H 0.8070 0.9728 0.1492
H43_33 H 0.6930 0.8508 0.0272
C67_33 C 0.81496(16) 0.95780(15) 0.12326(15)
C68_33 C 0.68504(16) 0.87674(15) 0.04220(15)
H47_33 H 0.8031 0.9490 0.1229
H48_33 H 0.6969 0.8771 0.0510
C72_33 C 0.83005(13) 0.95626(12) 0.10801(13)
C73_33 C 0.66995(13) 0.89199(13) 0.04374(12)
C77_33 C 0.84704(12) 0.96918(11) 0.10960(12)
C78_33 C 0.65296(12) 0.89040(12) 0.03082(11)
H52_33 H 0.8577 0.9681 0.0995
H53_33 H 0.6423 0.9005 0.0319
C82_33 C 0.82875(12) 0.94041(11) 0.09145(12)
C83_33 C 0.67125(12) 0.90855(12) 0.05959(11)
C87_33 C 0.81163(11) 0.91545(12) 0.07471(12)
C88_33 C 0.68837(11) 0.92529(12) 0.08455(12)
C92_33 C 0.84330(12) 0.92385(12) 0.06435(12)
C93_33 C 0.65670(12) 0.93565(12) 0.07615(12)
C97_33 C 0.89406(14) 0.91191(15) 0.02549(14)
C98_33 C 0.60594(14) 0.97451(14) 0.08809(15)
H57_33 H 0.9053 0.9093 0.0163
H58_33 H 0.5947 0.9837 0.0907
C102_33 C 0.89574(15) 0.92836(15) 0.03890(15)
C103_33 C 0.60426(15) 0.96110(15) 0.07164(15)
H62_33 H 0.9079 0.9367 0.0392
H63_33 H 0.5921 0.9608 0.0633
C107_33 C 0.87904(14) 0.93251(13) 0.05202(14)
C108_33 C 0.62096(14) 0.94798(14) 0.06749(13)
H67_33 H 0.8797 0.9438 0.0615
H68_33 H 0.6203 0.9385 0.0562
C112_33 C 0.86196(13) 0.92051(12) 0.05119(12)
C113_33 C 0.63804(13) 0.94881(12) 0.07949(12)
C117_33 C 0.86174(11) 0.90321(12) 0.03735(11)
C118_33 C 0.63826(11) 0.96265(11) 0.09679(12)
H72_33 H 0.8500 0.8942 0.0373
H73_33 H 0.6500 0.9627 0.1058
C152_33 C 0.8718(2) 0.82544(19) 0.25149(14)
N62_22 N 0.87484(10) 0.84915(10) 0.97928(10)
N63_22 N 0.87516(10) 0.90085(10) 0.97928(10)
S9_22 S 0.94939(7) 0.86856(15) 0.99559(7)
S10_22 S 0.80061(7) 0.88144(15) 0.99559(7)
C153_22 C 0.92456(19) 0.8718(2) 0.99851(14)
C154_22 C 0.82544(19) 0.8782(2) 0.99851(14)
N2_34 N 0.24942(9) 0.87671(10) 0.90707(12)
S2_34 S 0.25441(7) 0.88144(15) 0.94939(7)
C26_34 C 0.25149(14) 0.8782(2) 0.92456(19)
N16_34 N 0.24942(9) 0.87329(10) 0.84293(12)
S8_34 S 0.25441(7) 0.86856(15) 0.80061(7)
C152_34 C 0.25149(14) 0.8718(2) 0.82544(19)
N62_23 N 0.02072(10) 0.09915(10) 0.62484(10)
N63_23 N 0.02072(10) 0.15085(10) 0.62516(10)
S9_23 S 0.00441(7) 0.11856(15) 0.69939(7)
S10_23 S 0.00441(7) 0.13144(15) 0.55061(7)
C153_23 C 0.00149(14) 0.1218(2) 0.67456(19)
C154_23 C 0.00149(14) 0.1282(2) 0.57544(19)
N1_34 N 0.89394(10) 0.11292(10) 0.47680(9)
N2_35 N 0.75058(9) 0.15707(12) 0.62671(10)
S1_34 S 0.91980(5) 0.08784(5) 0.45302(5)
S2_35 S 0.74559(7) 0.19939(7) 0.63144(15)
C1_34 C 0.90456(12) 0.10259(13) 0.46619(12)
C26_35 C 0.74851(14) 0.17456(19) 0.6282(2)
Co9_23 Co 0.99856(2) 0.1250 0.6250
N11_34 N 0.86292(10) 0.14394(10) 0.52320(9)
N16_35 N 0.75058(9) 0.09293(12) 0.62329(10)
N17_23 N 0.99942(9) 0.12329(10) 0.65707(12)
N18_23 N 0.99942(9) 0.12671(10) 0.59293(12)
N21_34 N 0.90899(10) 0.13435(9) 0.51526(10)
N22_34 N 0.88435(9) 0.15899(10) 0.48474(10)
N35_34 N 0.92053(10) 0.18848(10) 0.59527(10)
N36_34 N 0.93848(10) 0.17053(10) 0.40473(10)
N40_34 N 0.91003(10) 0.17919(10) 0.56148(9)
N41_34 N 0.92919(10) 0.16003(10) 0.43852(9)
N45_34 N 0.93881(9) 0.16224(10) 0.57686(10)
N46_34 N 0.91224(10) 0.18881(9) 0.42314(10)
N50_23 N 0.97547(10) 0.14926(10) 0.62752(10)
N55_23 N 0.97547(10) 0.10074(10) 0.62248(10)
S3_34 S 0.83784(5) 0.16980(5) 0.54698(5)
S8_35 S 0.74559(7) 0.05061(7) 0.61856(15)
C27_34 C 0.85259(13) 0.15456(12) 0.53381(12)
C32_34 C 0.90982(12) 0.14834(11) 0.53098(12)
C33_34 C 0.89834(11) 0.15982(12) 0.46902(12)
H17_34 H 0.8979 0.1565 0.5337
H18_34 H 0.9065 0.1479 0.4663
C37_34 C 0.92686(12) 0.15126(11) 0.54302(12)
C38_34 C 0.90126(11) 0.17686(12) 0.45698(12)
C42_34 C 0.94518(16) 0.14017(15) 0.53888(14)
C43_34 C 0.89017(15) 0.19518(16) 0.46112(14)
H22_34 H 0.9573 0.1419 0.5471
H23_34 H 0.8919 0.2073 0.4529
C47_34 C 0.94460(17) 0.12677(16) 0.52243(15)
C48_34 C 0.87677(16) 0.19460(17) 0.47757(15)
H27_34 H 0.9567 0.1193 0.5187
H28_34 H 0.8693 0.2067 0.4813
C52_34 C 0.92686(16) 0.12404(14) 0.51137(15)
C53_34 C 0.87404(14) 0.17686(16) 0.48863(15)
H32_34 H 0.9270 0.1143 0.5003
H33_34 H 0.8643 0.1770 0.4997
C57_34 C 0.86077(16) 0.23465(15) 0.58373(15)
C58_34 C 0.98465(15) 0.11077(16) 0.41627(15)
H37_34 H 0.8501 0.2448 0.5846
H38_34 H 0.9948 0.1001 0.4154
C62_34 C 0.86135(17) 0.22190(16) 0.56723(17)
C63_34 C 0.97190(16) 0.11135(17) 0.43277(17)
H42_34 H 0.8508 0.2228 0.5570
H43_34 H 0.9728 0.1008 0.4430
C67_34 C 0.87674(15) 0.20780(15) 0.56496(16)
C68_34 C 0.95780(15) 0.12674(15) 0.43504(16)
H47_34 H 0.8771 0.1990 0.5531
H48_34 H 0.9490 0.1271 0.4469
C72_34 C 0.89199(13) 0.20626(12) 0.58005(13)
C73_34 C 0.95626(12) 0.14199(13) 0.41995(13)
C77_34 C 0.89040(12) 0.21918(11) 0.59704(12)
C78_34 C 0.96918(11) 0.14040(12) 0.40296(12)
H52_34 H 0.9005 0.2181 0.6077
H53_34 H 0.9681 0.1505 0.3923
C82_34 C 0.90855(12) 0.19041(11) 0.57875(12)
C83_34 C 0.94041(11) 0.15855(12) 0.42125(12)
C87_34 C 0.92529(12) 0.16545(12) 0.56163(11)
C88_34 C 0.91545(12) 0.17529(12) 0.43837(11)
C92_34 C 0.93565(12) 0.17385(12) 0.59330(12)
C93_34 C 0.92385(12) 0.18565(12) 0.40670(12)
C97_34 C 0.97451(14) 0.16191(15) 0.64406(14)
C98_34 C 0.91191(15) 0.22451(14) 0.35594(14)
H57_34 H 0.9837 0.1593 0.6553
H58_34 H 0.9093 0.2337 0.3447
C102_34 C 0.96110(15) 0.17836(15) 0.64574(15)
C103_34 C 0.92836(15) 0.21110(15) 0.35426(15)
H62_34 H 0.9608 0.1867 0.6579
H63_34 H 0.9367 0.2108 0.3421
C107_34 C 0.94798(14) 0.18251(13) 0.62904(14)
C108_34 C 0.93251(13) 0.19798(14) 0.37096(14)
H67_34 H 0.9385 0.1938 0.6297
H68_34 H 0.9438 0.1885 0.3703
C112_34 C 0.94881(12) 0.17051(12) 0.61196(13)
C113_34 C 0.92051(12) 0.19881(12) 0.38804(13)
C117_34 C 0.96265(11) 0.15321(12) 0.61174(11)
C118_34 C 0.90321(12) 0.21265(11) 0.38826(11)
H72_34 H 0.9627 0.1442 0.6000
H73_34 H 0.8942 0.2127 0.4000
C152_35 C 0.74851(14) 0.07544(19) 0.6218(2)
N2_36 N 0.59293(12) 0.62329(10) 0.25058(9)
N9_15 N 0.62516(10) 0.59915(10) 0.22928(10)
N10_15 N 0.67186(11) 0.59409(12) 0.18610(11)
S2_36 S 0.55061(7) 0.61856(15) 0.24559(7)
C20_15 C 0.61165(16) 0.58377(15) 0.23166(14)
H13_15 H 0.6008 0.5854 0.2416
C21_15 C 0.6126(2) 0.56531(17) 0.22020(17)
H14_15 H 0.6033 0.5542 0.2229
C22_15 C 0.62750(16) 0.56380(15) 0.20485(16)
H15_15 H 0.6282 0.5518 0.1964
C23_15 C 0.64131(14) 0.57984(14) 0.20191(13)
C24_15 C 0.63931(13) 0.59738(12) 0.21472(12)
H16_15 H 0.6487 0.6086 0.2127
C25_15 C 0.65725(14) 0.57921(13) 0.18569(13)
C26_36 C 0.57544(19) 0.6218(2) 0.24851(14)
Co12_7 Co 0.75144(2) 0.6250 0.1250
N16_36 N 0.65707(12) 0.62671(10) 0.25058(9)
N57_15 N 0.65085(10) 0.52072(10) 0.12516(10)
N58_15 N 0.72928(10) 0.62484(10) 0.15085(10)
N59_15 N 0.62484(10) 0.65085(10) 0.22928(10)
N60_15 N 0.59915(10) 0.72928(10) 0.12516(10)
N61_15 N 0.52072(10) 0.62516(10) 0.15085(10)
N66_15 N 0.68610(11) 0.57814(11) 0.15591(12)
N67_15 N 0.65591(12) 0.56390(11) 0.17186(11)
N68_15 N 0.57814(11) 0.65591(12) 0.18610(11)
N69_15 N 0.56390(11) 0.67186(11) 0.15591(12)
N70_15 N 0.59409(12) 0.68610(11) 0.17186(11)
S8_36 S 0.69939(7) 0.63144(15) 0.24559(7)
C122_15 C 0.66623(15) 0.51834(14) 0.11165(16)
C123_15 C 0.73166(14) 0.63835(16) 0.16623(15)
C124_15 C 0.63835(16) 0.66623(15) 0.23166(14)
C125_15 C 0.58377(15) 0.73166(14) 0.11165(16)
C126_15 C 0.51834(14) 0.61165(16) 0.16623(15)
H77_15 H 0.6646 0.5084 0.1008
H78_15 H 0.7416 0.6492 0.1646
H79_15 H 0.6492 0.6646 0.2416
H80_15 H 0.5854 0.7416 0.1008
H81_15 H 0.5084 0.6008 0.1646
C127_15 C 0.68469(17) 0.52980(17) 0.1126(2)
C128_15 C 0.72020(17) 0.6374(2) 0.18469(17)
C129_15 C 0.6374(2) 0.68469(17) 0.22020(17)
C130_15 C 0.56531(17) 0.72020(17) 0.1126(2)
C131_15 C 0.52980(17) 0.6126(2) 0.18469(17)
H82_15 H 0.6958 0.5271 0.1033
H83_15 H 0.7229 0.6467 0.1958
H84_15 H 0.6467 0.6958 0.2229
H85_15 H 0.5542 0.7229 0.1033
H86_15 H 0.5271 0.6033 0.1958
C132_15 C 0.68620(15) 0.54515(16) 0.12750(16)
C133_15 C 0.70485(16) 0.62250(16) 0.18620(15)
C134_15 C 0.62250(16) 0.68620(15) 0.20485(16)
C135_15 C 0.56380(15) 0.70485(16) 0.12750(16)
C136_15 C 0.54515(16) 0.62750(16) 0.18620(15)
H87_15 H 0.6982 0.5536 0.1282
H88_15 H 0.6964 0.6218 0.1982
H89_15 H 0.6218 0.6982 0.1964
H90_15 H 0.5518 0.6964 0.1282
H91_15 H 0.5536 0.6282 0.1982
C137_15 C 0.67016(14) 0.54809(13) 0.14131(14)
C138_15 C 0.70191(13) 0.60869(14) 0.17016(14)
C139_15 C 0.60869(14) 0.67016(14) 0.20191(13)
C140_15 C 0.57984(14) 0.70191(13) 0.14131(14)
C141_15 C 0.54809(13) 0.64131(14) 0.17016(14)
C142_15 C 0.65262(12) 0.53528(12) 0.13931(13)
C143_15 C 0.71472(12) 0.61069(13) 0.15262(12)
C144_15 C 0.61069(13) 0.65262(12) 0.21472(12)
C145_15 C 0.59738(12) 0.71472(12) 0.13931(13)
C146_15 C 0.53528(12) 0.63931(13) 0.15262(12)
H92_15 H 0.6414 0.5373 0.1487
H93_15 H 0.7127 0.6013 0.1414
H94_15 H 0.6013 0.6414 0.2127
H95_15 H 0.6086 0.7127 0.1487
H96_15 H 0.5373 0.6487 0.1414
C147_15 C 0.68569(13) 0.59275(14) 0.17079(13)
C148_15 C 0.67079(13) 0.56431(13) 0.15725(14)
C149_15 C 0.59275(14) 0.67079(13) 0.18569(13)
C150_15 C 0.56431(13) 0.65725(14) 0.17079(13)
C151_15 C 0.57921(13) 0.68569(13) 0.15725(14)
C152_36 C 0.67456(19) 0.6282(2) 0.24851(14)
N1_35 N 0.02320(9) 0.88708(10) 0.10606(10)
S1_35 S 0.04698(5) 0.91216(5) 0.08020(5)
C1_35 C 0.03381(12) 0.89741(13) 0.09544(12)
N22_35 N 0.01526(10) 0.84101(10) 0.11565(9)
N36_35 N 0.09527(10) 0.82947(10) 0.06152(10)
N41_35 N 0.06148(9) 0.83997(10) 0.07081(10)
N46_35 N 0.07686(10) 0.81119(9) 0.08776(10)
C33_35 C 0.03098(12) 0.84018(12) 0.10166(11)
H18_35 H 0.0337 0.8521 0.0935
C38_35 C 0.04302(12) 0.82314(12) 0.09874(11)
C43_35 C 0.03888(14) 0.80482(16) 0.10983(15)
H23_35 H 0.0471 0.7927 0.1081
C48_35 C 0.02243(15) 0.80540(17) 0.12323(16)
H28_35 H 0.0187 0.7933 0.1307
C53_35 C 0.01137(15) 0.82314(16) 0.12596(14)
H33_35 H 0.0003 0.8230 0.1357
C58_35 C 0.08373(15) 0.88923(16) 0.01535(15)
H38_35 H 0.0846 0.8999 0.0052
C63_35 C 0.06723(17) 0.88865(17) 0.02810(16)
H43_35 H 0.0570 0.8992 0.0272
C68_35 C 0.06496(16) 0.87326(15) 0.04220(15)
H48_35 H 0.0531 0.8729 0.0510
C73_35 C 0.08005(13) 0.85801(13) 0.04374(12)
C78_35 C 0.09704(12) 0.85960(12) 0.03082(11)
H53_35 H 0.1077 0.8495 0.0319
C83_35 C 0.07875(12) 0.84145(12) 0.05959(11)
C88_35 C 0.06163(11) 0.82471(12) 0.08455(12)
C93_35 C 0.09330(12) 0.81435(12) 0.07615(12)
C98_35 C 0.14406(14) 0.77549(14) 0.08809(15)
H58_35 H 0.1553 0.7663 0.0907
C103_35 C 0.14574(15) 0.78890(15) 0.07164(15)
H63_35 H 0.1579 0.7892 0.0633
C108_35 C 0.12904(14) 0.80202(14) 0.06749(13)
H68_35 H 0.1297 0.8115 0.0562
C113_35 C 0.11196(13) 0.80119(12) 0.07949(12)
C118_35 C 0.11174(11) 0.78735(11) 0.09679(12)
H73_35 H 0.1000 0.7873 0.1058
N11_35 N 0.97680(9) 0.85606(10) 0.13708(10)
N12_26 N 0.88708(10) 0.72680(9) 0.14394(10)
N13_26 N 0.85606(10) 0.77320(9) 0.11292(10)
N21_35 N 0.98474(10) 0.86565(9) 0.09101(10)
N25_20 N 0.84101(10) 0.73474(10) 0.13435(9)
N28_26 N 0.90072(11) 0.76656(10) 0.12501(10)
N32_24 N 0.87501(10) 0.65072(11) 0.23344(10)
N33_26 N 0.87499(10) 0.73344(10) 0.09928(11)
N35_35 N 0.90473(10) 0.81152(10) 0.07947(10)
N39_24 N 0.82947(10) 0.65473(10) 0.18848(10)
N40_35 N 0.93852(9) 0.82081(10) 0.08997(10)
N44_24 N 0.83997(10) 0.68852(9) 0.17919(10)
N45_35 N 0.92314(10) 0.83776(10) 0.06119(9)
N49_24 N 0.81119(9) 0.67314(10) 0.16224(10)
N54_24 N 0.77453(10) 0.62248(10) 0.14926(10)
S3_35 S 0.95302(5) 0.83020(5) 0.16216(5)
S4_26 S 0.91216(5) 0.70302(5) 0.16980(5)
S5_26 S 0.83020(5) 0.79698(5) 0.08784(5)
C27_35 C 0.96619(12) 0.84544(12) 0.14741(13)
C28_26 C 0.89741(13) 0.71619(12) 0.15456(12)
C29_26 C 0.84544(12) 0.78381(12) 0.10259(13)
C32_35 C 0.96902(12) 0.85166(11) 0.09018(12)
C36_24 C 0.84018(12) 0.71902(12) 0.14834(11)
H17_35 H 0.9663 0.8435 0.1021
H21_24 H 0.8521 0.7163 0.1565
C37_35 C 0.95698(12) 0.84874(11) 0.07314(12)
C41_24 C 0.82314(12) 0.70698(12) 0.15126(11)
C42_35 C 0.96112(14) 0.85983(15) 0.05482(16)
C46_24 C 0.80482(16) 0.71112(14) 0.14017(15)
H22_35 H 0.9529 0.8581 0.0427
H26_24 H 0.7927 0.7029 0.1419
C47_35 C 0.97757(15) 0.87323(16) 0.05540(17)
C51_24 C 0.80540(17) 0.72757(15) 0.12677(16)
H27_35 H 0.9813 0.8807 0.0433
H31_24 H 0.7933 0.7313 0.1193
C52_35 C 0.98863(15) 0.87596(14) 0.07314(16)
C56_24 C 0.82314(16) 0.73863(15) 0.12404(14)
H32_35 H 0.9997 0.8857 0.0730
H36_24 H 0.8230 0.7497 0.1143
C57_35 C 0.91627(15) 0.76535(15) 0.13923(16)
C61_24 C 0.88923(16) 0.66627(15) 0.23465(15)
H37_35 H 0.9154 0.7552 0.1499
H41_24 H 0.8999 0.6654 0.2448
C62_35 C 0.93277(17) 0.77810(16) 0.13865(17)
C66_24 C 0.88865(17) 0.68277(17) 0.22190(16)
H42_35 H 0.9430 0.7772 0.1492
H46_24 H 0.8992 0.6930 0.2228
C67_35 C 0.93504(16) 0.79220(15) 0.12326(15)
C71_24 C 0.87326(15) 0.68504(16) 0.20780(15)
H47_35 H 0.9469 0.8010 0.1229
H51_24 H 0.8729 0.6969 0.1990
C72_35 C 0.91995(13) 0.79374(12) 0.10801(13)
C76_24 C 0.85801(13) 0.66995(13) 0.20626(12)
C77_35 C 0.90296(12) 0.78082(11) 0.10960(12)
C81_24 C 0.85960(12) 0.65296(12) 0.21918(11)
H52_35 H 0.8923 0.7819 0.0995
H56_24 H 0.8495 0.6423 0.2181
C82_35 C 0.92125(12) 0.80959(11) 0.09145(12)
C86_24 C 0.84145(12) 0.67125(12) 0.19041(11)
C87_35 C 0.93837(11) 0.83455(12) 0.07471(12)
C91_24 C 0.82471(12) 0.68837(11) 0.16545(12)
C92_35 C 0.90670(12) 0.82615(12) 0.06435(12)
C96_24 C 0.81435(12) 0.65670(12) 0.17385(12)
C97_35 C 0.85594(14) 0.83809(15) 0.02549(14)
C101_24 C 0.77549(14) 0.60594(14) 0.16191(15)
H57_35 H 0.8447 0.8407 0.0163
H61_24 H 0.7663 0.5947 0.1593
C102_35 C 0.85426(15) 0.82164(15) 0.03890(15)
C106_24 C 0.78890(15) 0.60426(15) 0.17836(15)
H62_35 H 0.8421 0.8133 0.0392
H66_24 H 0.7892 0.5921 0.1867
C107_35 C 0.87096(14) 0.81749(13) 0.05202(14)
C111_24 C 0.80202(14) 0.62096(14) 0.18251(13)
H67_35 H 0.8703 0.8062 0.0615
H71_24 H 0.8115 0.6203 0.1938
C112_35 C 0.88804(13) 0.82949(12) 0.05119(12)
C116_24 C 0.80119(12) 0.63804(13) 0.17051(12)
C117_35 C 0.88826(11) 0.84679(12) 0.03735(11)
C121_24 C 0.78735(11) 0.63826(11) 0.15321(12)
H72_35 H 0.9000 0.8558 0.0373
H76_24 H 0.7873 0.6500 0.1442
N2_37 N 0.84293(12) 0.24942(9) 0.87329(10)
S2_37 S 0.80061(7) 0.25441(7) 0.86856(15)
C26_37 C 0.82544(19) 0.25149(14) 0.8718(2)
N16_37 N 0.90707(12) 0.24942(9) 0.87671(10)
S8_37 S 0.94939(7) 0.25441(7) 0.88144(15)
C152_37 C 0.92456(19) 0.25149(14) 0.8782(2)
N2_38 N 0.50058(9) 0.87329(10) 0.90707(12)
S2_38 S 0.49559(7) 0.86856(15) 0.94939(7)
C26_38 C 0.49851(14) 0.8718(2) 0.92456(19)
Co7_19 Co 0.628928(19) 0.7500 0.871072(19)
N16_38 N 0.50058(9) 0.87671(10) 0.84293(12)
N31_23 N 0.62501(10) 0.76656(10) 0.90072(11)
N38_23 N 0.57947(10) 0.81152(10) 0.90473(10)
N43_23 N 0.58997(10) 0.82081(10) 0.93852(9)
N48_23 N 0.56119(9) 0.83776(10) 0.92314(10)
N53_23 N 0.52453(10) 0.85074(10) 0.87248(10)
S8_38 S 0.49559(7) 0.88144(15) 0.80061(7)
C35_23 C 0.59018(12) 0.85166(11) 0.96902(12)
H20_23 H 0.6021 0.8435 0.9663
C40_23 C 0.57314(12) 0.84874(11) 0.95698(12)
C45_23 C 0.55482(16) 0.85983(15) 0.96112(14)
H25_23 H 0.5427 0.8581 0.9529
C50_23 C 0.55540(17) 0.87323(16) 0.97757(15)
H30_23 H 0.5433 0.8807 0.9813
C55_23 C 0.57314(16) 0.87596(14) 0.98863(15)
H35_23 H 0.5730 0.8857 0.9997
C60_23 C 0.63923(16) 0.76535(15) 0.91627(15)
H40_23 H 0.6499 0.7552 0.9154
C65_23 C 0.63865(17) 0.77810(16) 0.93277(17)
H45_23 H 0.6492 0.7772 0.9430
C70_23 C 0.62326(15) 0.79220(15) 0.93504(16)
H50_23 H 0.6229 0.8010 0.9469
C75_23 C 0.60801(13) 0.79374(12) 0.91995(13)
C80_23 C 0.60960(12) 0.78082(11) 0.90296(12)
H55_23 H 0.5995 0.7819 0.8923
C85_23 C 0.59145(12) 0.80959(11) 0.92125(12)
C90_23 C 0.57471(12) 0.83455(12) 0.93837(11)
C95_23 C 0.56435(12) 0.82615(12) 0.90670(12)
C100_23 C 0.52549(14) 0.83809(15) 0.85594(14)
H60_23 H 0.5163 0.8407 0.8447
C105_23 C 0.53890(15) 0.82164(15) 0.85426(15)
H65_23 H 0.5392 0.8133 0.8421
C110_23 C 0.55202(14) 0.81749(13) 0.87096(14)
H70_23 H 0.5615 0.8062 0.8703
C115_23 C 0.55119(12) 0.82949(12) 0.88804(13)
C120_23 C 0.53735(11) 0.84679(12) 0.88826(11)
H75_23 H 0.5373 0.8558 0.9000
C152_38 C 0.49851(14) 0.8782(2) 0.82544(19)
N2_39 N 0.49942(9) 0.59293(12) 0.12671(10)
S2_39 S 0.50441(7) 0.55061(7) 0.13144(15)
C26_39 C 0.50149(14) 0.57544(19) 0.1282(2)
N16_39 N 0.49942(9) 0.65707(12) 0.12329(10)
N59_16 N 0.52072(10) 0.62484(10) 0.09915(10)
N60_16 N 0.62484(10) 0.59915(10) 0.02072(10)
N61_16 N 0.59915(10) 0.52072(10) 0.12484(10)
N68_16 N 0.56390(11) 0.57814(11) 0.09409(12)
N69_16 N 0.59409(12) 0.56390(11) 0.07814(11)
N70_16 N 0.57814(11) 0.59409(12) 0.06390(11)
S8_39 S 0.50441(7) 0.69939(7) 0.11856(15)
C124_16 C 0.51834(14) 0.63835(16) 0.08377(15)
C125_16 C 0.63835(16) 0.58377(15) 0.01834(14)
C126_16 C 0.58377(15) 0.51834(14) 0.13835(16)
H79_16 H 0.5084 0.6492 0.0854
H80_16 H 0.6492 0.5854 0.0084
H81_16 H 0.5854 0.5084 0.1492
C129_16 C 0.52980(17) 0.6374(2) 0.06531(17)
C130_16 C 0.6374(2) 0.56531(17) 0.02980(17)
C131_16 C 0.56531(17) 0.52980(17) 0.1374(2)
H84_16 H 0.5271 0.6467 0.0542
H85_16 H 0.6467 0.5542 0.0271
H86_16 H 0.5542 0.5271 0.1467
C134_16 C 0.54515(16) 0.62250(16) 0.06380(15)
C135_16 C 0.62250(16) 0.56380(15) 0.04515(16)
C136_16 C 0.56380(15) 0.54515(16) 0.12250(16)
H89_16 H 0.5536 0.6218 0.0518
H90_16 H 0.6218 0.5518 0.0536
H91_16 H 0.5518 0.5536 0.1218
C139_16 C 0.54809(13) 0.60869(14) 0.07984(14)
C140_16 C 0.60869(14) 0.57984(14) 0.04809(13)
C141_16 C 0.57984(14) 0.54809(13) 0.10869(14)
C144_16 C 0.53528(12) 0.61069(13) 0.09738(12)
C145_16 C 0.61069(13) 0.59738(12) 0.03528(12)
C146_16 C 0.59738(12) 0.53528(12) 0.11069(13)
H94_16 H 0.5373 0.6013 0.1086
H95_16 H 0.6013 0.6086 0.0373
H96_16 H 0.6086 0.5373 0.1013
C149_16 C 0.56431(13) 0.59275(14) 0.07921(13)
C150_16 C 0.57921(13) 0.56431(13) 0.09275(14)
C151_16 C 0.59275(14) 0.57921(13) 0.06431(13)
C152_39 C 0.50149(14) 0.67456(19) 0.1218(2)
Co7_20 Co 0.878928(19) 0.628928(19) 0.0000
N1_36 N 0.88708(10) 0.64394(10) 0.72680(9)
N2_40 N 0.84293(12) 0.50058(9) 0.87671(10)
S1_36 S 0.91216(5) 0.66980(5) 0.70302(5)
S2_40 S 0.80061(7) 0.49559(7) 0.88144(15)
C1_36 C 0.89741(13) 0.65456(12) 0.71619(12)
C26_40 C 0.82544(19) 0.49851(14) 0.8782(2)
Co7_21 Co 0.878928(19) 0.628928(19) 1.0000
Co9_24 Co 0.8750 0.74856(2) 0.8750
N11_36 N 0.85606(10) 0.61292(10) 0.77320(9)
N12_27 N 0.72680(9) 0.60606(10) 0.86292(10)
N13_27 N 0.77320(9) 0.63708(10) 0.89394(10)
N16_40 N 0.90707(12) 0.50058(9) 0.87329(10)
N17_24 N 0.87671(10) 0.74942(9) 0.90707(12)
N18_24 N 0.87329(10) 0.74942(9) 0.84293(12)
N21_36 N 0.86565(9) 0.65899(10) 0.76526(10)
N22_36 N 0.84101(10) 0.63435(9) 0.73474(10)
N24_19 N 0.76526(10) 0.59101(10) 0.88435(9)
N28_27 N 0.76656(10) 0.62499(10) 0.84928(11)
N31_24 N 0.84928(11) 0.62501(10) 0.98344(10)
N33_27 N 0.73344(10) 0.65072(11) 0.87501(10)
N35_36 N 0.81152(10) 0.67053(10) 0.84527(10)
N36_36 N 0.82947(10) 0.68848(10) 0.65473(10)
N38_24 N 0.84527(10) 0.57947(10) 0.93848(10)
N40_36 N 0.82081(10) 0.66003(10) 0.81148(9)
N41_36 N 0.83997(10) 0.67919(10) 0.68852(9)
N43_24 N 0.81148(9) 0.58997(10) 0.92919(10)
N45_36 N 0.83776(10) 0.68881(9) 0.82686(10)
N46_36 N 0.81119(9) 0.66224(10) 0.67314(10)
N48_24 N 0.82686(10) 0.56119(9) 0.91224(10)
N50_24 N 0.85074(10) 0.72547(10) 0.87752(10)
N53_24 N 0.87752(10) 0.52453(10) 0.89926(10)
N55_24 N 0.89926(10) 0.72547(10) 0.87248(10)
N62_24 N 0.90085(10) 0.77072(10) 0.87484(10)
N63_24 N 0.84915(10) 0.77072(10) 0.87516(10)
S3_36 S 0.83020(5) 0.58784(5) 0.79698(5)
S4_27 S 0.70302(5) 0.58020(5) 0.83784(5)
S5_27 S 0.79698(5) 0.66216(5) 0.91980(5)
S8_40 S 0.94939(7) 0.49559(7) 0.86856(15)
S9_24 S 0.88144(15) 0.75441(7) 0.94939(7)
S10_24 S 0.86856(15) 0.75441(7) 0.80061(7)
C27_36 C 0.84544(12) 0.60259(13) 0.78381(12)
C28_27 C 0.71619(12) 0.59544(12) 0.85259(13)
C29_27 C 0.78381(12) 0.64741(13) 0.90456(12)
C32_36 C 0.85166(11) 0.65982(12) 0.78098(12)
C33_36 C 0.84018(12) 0.64834(11) 0.71902(12)
C35_24 C 0.78098(12) 0.59018(12) 0.89834(11)
H17_36 H 0.8435 0.6479 0.7837
H18_36 H 0.8521 0.6565 0.7163
H20_24 H 0.7837 0.6021 0.9065
C37_36 C 0.84874(11) 0.67686(12) 0.79302(12)
C38_36 C 0.82314(12) 0.65126(11) 0.70698(12)
C40_24 C 0.79302(12) 0.57314(12) 0.90126(11)
C42_36 C 0.85983(15) 0.69518(16) 0.78888(14)
C43_36 C 0.80482(16) 0.64017(15) 0.71112(14)
C45_24 C 0.78888(14) 0.55482(16) 0.89017(15)
H22_36 H 0.8581 0.7073 0.7971
H23_36 H 0.7927 0.6419 0.7029
H25_24 H 0.7971 0.5427 0.8919
C47_36 C 0.87323(16) 0.69460(17) 0.77243(15)
C48_36 C 0.80540(17) 0.62677(16) 0.72757(15)
C50_24 C 0.77243(15) 0.55540(17) 0.87677(16)
H27_36 H 0.8807 0.7067 0.7687
H28_36 H 0.7933 0.6193 0.7313
H30_24 H 0.7687 0.5433 0.8693
C52_36 C 0.87596(14) 0.67686(16) 0.76137(15)
C53_36 C 0.82314(16) 0.62404(14) 0.73863(15)
C55_24 C 0.76137(15) 0.57314(16) 0.87404(14)
H32_36 H 0.8857 0.6770 0.7503
H33_36 H 0.8230 0.6143 0.7497
H35_24 H 0.7503 0.5730 0.8643
C57_36 C 0.76535(15) 0.61077(16) 0.83373(15)
C58_36 C 0.88923(16) 0.73465(15) 0.66627(15)
C60_24 C 0.83373(15) 0.63923(16) 0.98465(15)
H37_36 H 0.7552 0.6001 0.8346
H38_36 H 0.8999 0.7448 0.6654
H40_24 H 0.8346 0.6499 0.9948
C62_36 C 0.77810(16) 0.61135(17) 0.81723(17)
C63_36 C 0.88865(17) 0.72190(16) 0.68277(17)
C65_24 C 0.81723(17) 0.63865(17) 0.97190(16)
H42_36 H 0.7772 0.6008 0.8070
H43_36 H 0.8992 0.7228 0.6930
H45_24 H 0.8070 0.6492 0.9728
C67_36 C 0.79220(15) 0.62674(15) 0.81496(16)
C68_36 C 0.87326(15) 0.70780(15) 0.68504(16)
C70_24 C 0.81496(16) 0.62326(15) 0.95780(15)
H47_36 H 0.8010 0.6271 0.8031
H48_36 H 0.8729 0.6990 0.6969
H50_24 H 0.8031 0.6229 0.9490
C72_36 C 0.79374(12) 0.64199(13) 0.83005(13)
C73_36 C 0.85801(13) 0.70626(12) 0.66995(13)
C75_24 C 0.83005(13) 0.60801(13) 0.95626(12)
C77_36 C 0.78082(11) 0.64040(12) 0.84704(12)
C78_36 C 0.85960(12) 0.71918(11) 0.65296(12)
C80_24 C 0.84704(12) 0.60960(12) 0.96918(11)
H52_36 H 0.7819 0.6505 0.8577
H53_36 H 0.8495 0.7181 0.6423
H55_24 H 0.8577 0.5995 0.9681
C82_36 C 0.80959(11) 0.65855(12) 0.82875(12)
C83_36 C 0.84145(12) 0.69041(11) 0.67125(12)
C85_24 C 0.82875(12) 0.59145(12) 0.94041(11)
C87_36 C 0.83455(12) 0.67529(12) 0.81163(11)
C88_36 C 0.82471(12) 0.66545(12) 0.68837(11)
C90_24 C 0.81163(11) 0.57471(12) 0.91545(12)
C92_36 C 0.82615(12) 0.68565(12) 0.84330(12)
C93_36 C 0.81435(12) 0.67385(12) 0.65670(12)
C95_24 C 0.84330(12) 0.56435(12) 0.92385(12)
C97_36 C 0.83809(15) 0.72451(14) 0.89406(14)
C98_36 C 0.77549(14) 0.66191(15) 0.60594(14)
C100_24 C 0.89406(14) 0.52549(14) 0.91191(15)
H57_36 H 0.8407 0.7337 0.9053
H58_36 H 0.7663 0.6593 0.5947
H60_24 H 0.9053 0.5163 0.9093
C102_36 C 0.82164(15) 0.71110(15) 0.89574(15)
C103_36 C 0.78890(15) 0.67836(15) 0.60426(15)
C105_24 C 0.89574(15) 0.53890(15) 0.92836(15)
H62_36 H 0.8133 0.7108 0.9079
H63_36 H 0.7892 0.6867 0.5921
H65_24 H 0.9079 0.5392 0.9367
C107_36 C 0.81749(13) 0.69798(14) 0.87904(14)
C108_36 C 0.80202(14) 0.68251(13) 0.62096(14)
C110_24 C 0.87904(14) 0.55202(14) 0.93251(13)
H67_36 H 0.8062 0.6885 0.8797
H68_36 H 0.8115 0.6938 0.6203
H70_24 H 0.8797 0.5615 0.9438
C112_36 C 0.82949(12) 0.69881(12) 0.86196(13)
C113_36 C 0.80119(12) 0.67051(12) 0.63804(13)
C115_24 C 0.86196(13) 0.55119(12) 0.92051(12)
C117_36 C 0.84679(12) 0.71265(11) 0.86174(11)
C118_36 C 0.78735(11) 0.65321(12) 0.63826(11)
C120_24 C 0.86174(11) 0.53735(11) 0.90321(12)
H72_36 H 0.8558 0.7127 0.8500
H73_36 H 0.7873 0.6442 0.6500
H75_24 H 0.8500 0.5373 0.8942
C152_40 C 0.92456(19) 0.49851(14) 0.8718(2)
C153_24 C 0.8782(2) 0.75149(14) 0.92456(19)
C154_24 C 0.8718(2) 0.75149(14) 0.82544(19)
N1_37 N 0.77320(9) 0.35606(10) 0.11292(10)
N2_41 N 0.62329(10) 0.49942(9) 0.15707(12)
S1_37 S 0.79698(5) 0.33020(5) 0.08784(5)
S2_41 S 0.61856(15) 0.50441(7) 0.19939(7)
C1_37 C 0.78381(12) 0.34544(12) 0.10259(13)
C26_41 C 0.6218(2) 0.50149(14) 0.17456(19)
Co6_24 Co 0.871072(19) 0.5000 0.121072(19)
Co10_23 Co 0.8750 0.3750 0.24856(2)
N11_37 N 0.72680(9) 0.38708(10) 0.14394(10)
N12_28 N 0.63708(10) 0.39394(10) 0.27320(9)
N13_28 N 0.60606(10) 0.36292(10) 0.22680(9)
N16_41 N 0.62671(10) 0.49942(9) 0.09293(12)
N19_23 N 0.90707(12) 0.37671(10) 0.24942(9)
N20_23 N 0.84293(12) 0.37329(10) 0.24942(9)
N21_37 N 0.73474(10) 0.34101(10) 0.13435(9)
N22_37 N 0.76526(10) 0.36565(9) 0.15899(10)
N23_18 N 0.86565(9) 0.48474(10) 0.09101(10)
N28_28 N 0.65072(11) 0.37501(10) 0.23344(10)
N30_26 N 0.76656(10) 0.40072(11) 0.12501(10)
N33_28 N 0.62499(10) 0.34928(11) 0.26656(10)
N35_37 N 0.65473(10) 0.32947(10) 0.18848(10)
N36_37 N 0.84527(10) 0.31152(10) 0.17053(10)
N37_26 N 0.81152(10) 0.40473(10) 0.07947(10)
N40_37 N 0.68852(9) 0.33997(10) 0.17919(10)
N41_37 N 0.81148(9) 0.32081(10) 0.16003(10)
N42_26 N 0.82081(10) 0.43852(9) 0.08997(10)
N45_37 N 0.67314(10) 0.31119(9) 0.16224(10)
N46_37 N 0.82686(10) 0.33776(10) 0.18881(9)
N47_26 N 0.83776(10) 0.42314(10) 0.06119(9)
N51_23 N 0.87752(10) 0.35074(10) 0.22547(10)
N52_26 N 0.85074(10) 0.37248(10) 0.02453(10)
N56_23 N 0.87248(10) 0.39926(10) 0.22547(10)
N64_23 N 0.87484(10) 0.40085(10) 0.27072(10)
N65_23 N 0.87516(10) 0.34915(10) 0.27072(10)
S3_37 S 0.70302(5) 0.41216(5) 0.16980(5)
S4_28 S 0.66216(5) 0.41980(5) 0.29698(5)
S5_28 S 0.58020(5) 0.33784(5) 0.20302(5)
S8_41 S 0.63144(15) 0.50441(7) 0.05061(7)
S11_23 S 0.94939(7) 0.38144(15) 0.25441(7)
S12_23 S 0.80061(7) 0.36856(15) 0.25441(7)
C27_37 C 0.71619(12) 0.39741(13) 0.15456(12)
C28_28 C 0.64741(13) 0.40456(12) 0.28381(12)
C29_28 C 0.59544(12) 0.35259(13) 0.21619(12)
C32_37 C 0.71902(12) 0.34018(12) 0.14834(11)
C33_37 C 0.78098(12) 0.35166(11) 0.15982(12)
C34_26 C 0.85166(11) 0.46902(12) 0.09018(12)
H17_37 H 0.7163 0.3521 0.1565
H18_37 H 0.7837 0.3435 0.1479
H19_26 H 0.8435 0.4663 0.1021
C37_37 C 0.70698(12) 0.32314(12) 0.15126(11)
C38_37 C 0.79302(12) 0.34874(11) 0.17686(12)
C39_26 C 0.84874(11) 0.45698(12) 0.07314(12)
C42_37 C 0.71112(14) 0.30482(16) 0.14017(15)
C43_37 C 0.78888(14) 0.35983(15) 0.19518(16)
C44_26 C 0.85983(15) 0.46112(14) 0.05482(16)
H22_37 H 0.7029 0.2927 0.1419
H23_37 H 0.7971 0.3581 0.2073
H24_26 H 0.8581 0.4529 0.0427
C47_37 C 0.72757(15) 0.30540(17) 0.12677(16)
C48_37 C 0.77243(15) 0.37323(16) 0.19460(17)
C49_26 C 0.87323(16) 0.47757(15) 0.05540(17)
H27_37 H 0.7313 0.2933 0.1193
H28_37 H 0.7687 0.3807 0.2067
H29_26 H 0.8807 0.4813 0.0433
C52_37 C 0.73863(15) 0.32314(16) 0.12404(14)
C53_37 C 0.76137(15) 0.37596(14) 0.17686(16)
C54_26 C 0.87596(14) 0.48863(15) 0.07314(16)
H32_37 H 0.7497 0.3230 0.1143
H33_37 H 0.7503 0.3857 0.1770
H34_26 H 0.8857 0.4997 0.0730
C57_37 C 0.66627(15) 0.38923(16) 0.23465(15)
C58_37 C 0.83373(15) 0.26535(15) 0.11077(16)
C59_26 C 0.76535(15) 0.41627(15) 0.13923(16)
H37_37 H 0.6654 0.3999 0.2448
H38_37 H 0.8346 0.2552 0.1001
H39_26 H 0.7552 0.4154 0.1499
C62_37 C 0.68277(17) 0.38865(17) 0.22190(16)
C63_37 C 0.81723(17) 0.27810(16) 0.11135(17)
C64_26 C 0.77810(16) 0.43277(17) 0.13865(17)
H42_37 H 0.6930 0.3992 0.2228
H43_37 H 0.8070 0.2772 0.1008
H44_26 H 0.7772 0.4430 0.1492
C67_37 C 0.68504(16) 0.37326(15) 0.20780(15)
C68_37 C 0.81496(16) 0.29220(15) 0.12674(15)
C69_26 C 0.79220(15) 0.43504(16) 0.12326(15)
H47_37 H 0.6969 0.3729 0.1990
H48_37 H 0.8031 0.3010 0.1271
H49_26 H 0.8010 0.4469 0.1229
C72_37 C 0.66995(13) 0.35801(13) 0.20626(12)
C73_37 C 0.83005(13) 0.29374(12) 0.14199(13)
C74_26 C 0.79374(12) 0.41995(13) 0.10801(13)
C77_37 C 0.65296(12) 0.35960(12) 0.21918(11)
C78_37 C 0.84704(12) 0.28082(11) 0.14040(12)
C79_26 C 0.78082(11) 0.40296(12) 0.10960(12)
H52_37 H 0.6423 0.3495 0.2181
H53_37 H 0.8577 0.2819 0.1505
H54_26 H 0.7819 0.3923 0.0995
C82_37 C 0.67125(12) 0.34145(12) 0.19041(11)
C83_37 C 0.82875(12) 0.30959(11) 0.15855(12)
C84_26 C 0.80959(11) 0.42125(12) 0.09145(12)
C87_37 C 0.68837(11) 0.32471(12) 0.16545(12)
C88_37 C 0.81163(11) 0.33455(12) 0.17529(12)
C89_26 C 0.83455(12) 0.43837(11) 0.07471(12)
C92_37 C 0.65670(12) 0.31435(12) 0.17385(12)
C93_37 C 0.84330(12) 0.32615(12) 0.18565(12)
C94_26 C 0.82615(12) 0.40670(12) 0.06435(12)
C97_37 C 0.60594(14) 0.27549(14) 0.16191(15)
C98_37 C 0.89406(14) 0.33809(15) 0.22451(14)
C99_26 C 0.83809(15) 0.35594(14) 0.02549(14)
H57_37 H 0.5947 0.2663 0.1593
H58_37 H 0.9053 0.3407 0.2337
H59_26 H 0.8407 0.3447 0.0163
C102_37 C 0.60426(15) 0.28890(15) 0.17836(15)
C103_37 C 0.89574(15) 0.32164(15) 0.21110(15)
C104_26 C 0.82164(15) 0.35426(15) 0.03890(15)
H62_37 H 0.5921 0.2892 0.1867
H63_37 H 0.9079 0.3133 0.2108
H64_26 H 0.8133 0.3421 0.0392
C107_37 C 0.62096(14) 0.30202(14) 0.18251(13)
C108_37 C 0.87904(14) 0.31749(13) 0.19798(14)
C109_26 C 0.81749(13) 0.37096(14) 0.05202(14)
H67_37 H 0.6203 0.3115 0.1938
H68_37 H 0.8797 0.3062 0.1885
H69_26 H 0.8062 0.3703 0.0615
C112_37 C 0.63804(13) 0.30119(12) 0.17051(12)
C113_37 C 0.86196(13) 0.32949(12) 0.19881(12)
C114_26 C 0.82949(12) 0.38804(13) 0.05119(12)
C117_37 C 0.63826(11) 0.28735(11) 0.15321(12)
C118_37 C 0.86174(11) 0.34679(12) 0.21265(11)
C119_26 C 0.84679(12) 0.38826(11) 0.03735(11)
H72_37 H 0.6500 0.2873 0.1442
H73_37 H 0.8500 0.3558 0.2127
H74_26 H 0.8558 0.4000 0.0373
C152_41 C 0.6282(2) 0.50149(14) 0.07544(19)
C155_23 C 0.92456(19) 0.3782(2) 0.25149(14)
C156_23 C 0.82544(19) 0.3718(2) 0.25149(14)
N1_38 N 0.02320(9) 0.36292(10) 0.14394(10)
S1_38 S 0.04698(5) 0.33784(5) 0.16980(5)
C1_38 C 0.03381(12) 0.35259(13) 0.15456(12)
N22_38 N 0.01526(10) 0.40899(10) 0.13435(9)
N36_38 N 0.09527(10) 0.42053(10) 0.18848(10)
N41_38 N 0.06148(9) 0.41003(10) 0.17919(10)
N46_38 N 0.07686(10) 0.43881(9) 0.16224(10)
C33_38 C 0.03098(12) 0.40982(12) 0.14834(11)
H18_38 H 0.0337 0.3979 0.1565
C38_38 C 0.04302(12) 0.42686(12) 0.15126(11)
C43_38 C 0.03888(14) 0.44518(16) 0.14017(15)
H23_38 H 0.0471 0.4573 0.1419
C48_38 C 0.02243(15) 0.44460(17) 0.12677(16)
H28_38 H 0.0187 0.4567 0.1193
C53_38 C 0.01137(15) 0.42686(16) 0.12404(14)
H33_38 H 0.0003 0.4270 0.1143
C58_38 C 0.08373(15) 0.36077(16) 0.23465(15)
H38_38 H 0.0846 0.3501 0.2448
C63_38 C 0.06723(17) 0.36135(17) 0.22190(16)
H43_38 H 0.0570 0.3508 0.2228
C68_38 C 0.06496(16) 0.37674(15) 0.20780(15)
H48_38 H 0.0531 0.3771 0.1990
C73_38 C 0.08005(13) 0.39199(13) 0.20626(12)
C78_38 C 0.09704(12) 0.39040(12) 0.21918(11)
H53_38 H 0.1077 0.4005 0.2181
C83_38 C 0.07875(12) 0.40855(12) 0.19041(11)
C88_38 C 0.06163(11) 0.42529(12) 0.16545(12)
C93_38 C 0.09330(12) 0.43565(12) 0.17385(12)
C98_38 C 0.14406(14) 0.47451(14) 0.16191(15)
H58_38 H 0.1553 0.4837 0.1593
C103_38 C 0.14574(15) 0.46110(15) 0.17836(15)
H63_38 H 0.1579 0.4608 0.1867
C108_38 C 0.12904(14) 0.44798(14) 0.18251(13)
H68_38 H 0.1297 0.4385 0.1938
C113_38 C 0.11196(13) 0.44881(12) 0.17051(12)
C118_38 C 0.11174(11) 0.46265(11) 0.15321(12)
H73_38 H 0.1000 0.4627 0.1442
N2_42 N 0.87329(10) 0.40707(12) 0.00058(9)
N4_20 N 0.98344(10) 0.34928(11) 0.12501(10)
N5_20 N 0.93848(10) 0.34527(10) 0.07947(10)
N6_20 N 0.92919(10) 0.31148(9) 0.08997(10)
N7_20 N 0.91224(10) 0.32686(10) 0.06119(9)
N8_20 N 0.89926(10) 0.37752(10) 0.02453(10)
C2_20 C 0.89834(11) 0.28098(12) 0.09018(12)
H1_20 H 0.9065 0.2837 0.1021
C3_20 C 0.90126(11) 0.29302(12) 0.07314(12)
C4_20 C 0.89017(15) 0.28888(14) 0.05482(16)
H2_20 H 0.8919 0.2971 0.0427
C5_20 C 0.87677(16) 0.27243(15) 0.05540(17)
H3_20 H 0.8693 0.2687 0.0433
C6_20 C 0.87404(14) 0.26137(15) 0.07314(16)
H4_20 H 0.8643 0.2503 0.0730
C7_20 C 0.98465(15) 0.33373(15) 0.13923(16)
H5_20 H 0.9948 0.3346 0.1499
C8_20 C 0.97190(16) 0.31723(17) 0.13865(17)
H6_20 H 0.9728 0.3070 0.1492
C9_20 C 0.95780(15) 0.31496(16) 0.12326(15)
H7_20 H 0.9490 0.3031 0.1229
C10_20 C 0.95626(12) 0.33005(13) 0.10801(13)
C11_20 C 0.96918(11) 0.34704(12) 0.10960(12)
H8_20 H 0.9681 0.3577 0.0995
C12_20 C 0.94041(11) 0.32875(12) 0.09145(12)
C13_20 C 0.91545(12) 0.31163(11) 0.07471(12)
C14_20 C 0.92385(12) 0.34330(12) 0.06435(12)
C15_20 C 0.91191(15) 0.39406(14) 0.02549(14)
H9_20 H 0.9093 0.4053 0.0163
C16_20 C 0.92836(15) 0.39574(15) 0.03890(15)
H10_20 H 0.9367 0.4079 0.0392
C17_20 C 0.93251(13) 0.37904(14) 0.05202(14)
H11_20 H 0.9438 0.3797 0.0615
C18_20 C 0.92051(12) 0.36196(13) 0.05119(12)
C19_20 C 0.90321(12) 0.36174(11) 0.03735(11)
H12_20 H 0.8942 0.3500 0.0373
N11_38 N 0.97680(9) 0.39394(10) 0.11292(10)
N12_29 N 0.88708(10) 0.52320(9) 0.10606(10)
N13_29 N 0.85606(10) 0.47680(9) 0.13708(10)
N16_42 N 0.87671(10) 0.34293(12) 0.00058(9)
N21_38 N 0.98474(10) 0.38435(9) 0.15899(10)
N25_21 N 0.84101(10) 0.51526(10) 0.11565(9)
N28_29 N 0.90072(11) 0.48344(10) 0.12499(10)
N32_25 N 0.87501(10) 0.59928(11) 0.01656(10)
N33_29 N 0.87499(10) 0.51656(10) 0.15072(11)
N35_38 N 0.90473(10) 0.43848(10) 0.17053(10)
N39_25 N 0.82947(10) 0.59527(10) 0.06152(10)
N40_38 N 0.93852(9) 0.42919(10) 0.16003(10)
N44_25 N 0.83997(10) 0.56148(9) 0.07081(10)
N45_38 N 0.92314(10) 0.41224(10) 0.18881(9)
N49_25 N 0.81119(9) 0.57686(10) 0.08776(10)
N54_25 N 0.77453(10) 0.62752(10) 0.10074(10)
S3_38 S 0.95302(5) 0.41980(5) 0.08784(5)
S4_29 S 0.91216(5) 0.54698(5) 0.08020(5)
S5_29 S 0.83020(5) 0.45302(5) 0.16216(5)
C27_38 C 0.96619(12) 0.40456(12) 0.10259(13)
C28_29 C 0.89741(13) 0.53381(12) 0.09544(12)
C29_29 C 0.84544(12) 0.46619(12) 0.14741(13)
C32_38 C 0.96902(12) 0.39834(11) 0.15982(12)
C36_25 C 0.84018(12) 0.53098(12) 0.10166(11)
H17_38 H 0.9663 0.4065 0.1479
H21_25 H 0.8521 0.5337 0.0935
C37_38 C 0.95698(12) 0.40126(11) 0.17686(12)
C41_25 C 0.82314(12) 0.54302(12) 0.09874(11)
C42_38 C 0.96112(14) 0.39017(15) 0.19518(16)
C46_25 C 0.80482(16) 0.53888(14) 0.10983(15)
H22_38 H 0.9529 0.3919 0.2073
H26_25 H 0.7927 0.5471 0.1081
C47_38 C 0.97757(15) 0.37677(16) 0.19460(17)
C51_25 C 0.80540(17) 0.52243(15) 0.12323(16)
H27_38 H 0.9813 0.3693 0.2067
H31_25 H 0.7933 0.5187 0.1307
C52_38 C 0.98863(15) 0.37404(14) 0.17686(16)
C56_25 C 0.82314(16) 0.51137(15) 0.12596(14)
H32_38 H 0.9997 0.3643 0.1770
H36_25 H 0.8230 0.5003 0.1357
C57_38 C 0.91627(15) 0.48465(15) 0.11077(16)
C61_25 C 0.88923(16) 0.58373(15) 0.01535(15)
H37_38 H 0.9154 0.4948 0.1001
H41_25 H 0.8999 0.5846 0.0052
C62_38 C 0.93277(17) 0.47190(16) 0.11135(17)
C66_25 C 0.88865(17) 0.56723(17) 0.02810(16)
H42_38 H 0.9430 0.4728 0.1008
H46_25 H 0.8992 0.5570 0.0272
C67_38 C 0.93504(16) 0.45780(15) 0.12674(15)
C71_25 C 0.87326(15) 0.56496(16) 0.04220(15)
H47_38 H 0.9469 0.4490 0.1271
H51_25 H 0.8729 0.5531 0.0510
C72_38 C 0.91995(13) 0.45626(12) 0.14199(13)
C76_25 C 0.85801(13) 0.58005(13) 0.04374(12)
C77_38 C 0.90296(12) 0.46918(11) 0.14040(12)
C81_25 C 0.85960(12) 0.59704(12) 0.03082(11)
H52_38 H 0.8923 0.4681 0.1505
H56_25 H 0.8495 0.6077 0.0319
C82_38 C 0.92125(12) 0.44041(11) 0.15855(12)
C86_25 C 0.84145(12) 0.57875(12) 0.05959(11)
C87_38 C 0.93837(11) 0.41545(12) 0.17529(12)
C91_25 C 0.82471(12) 0.56163(11) 0.08455(12)
C92_38 C 0.90670(12) 0.42385(12) 0.18565(12)
C96_25 C 0.81435(12) 0.59330(12) 0.07615(12)
C97_38 C 0.85594(14) 0.41191(15) 0.22451(14)
C101_25 C 0.77549(14) 0.64406(14) 0.08809(15)
H57_38 H 0.8447 0.4093 0.2337
H61_25 H 0.7663 0.6553 0.0907
C102_38 C 0.85426(15) 0.42836(15) 0.21110(15)
C106_25 C 0.78890(15) 0.64574(15) 0.07164(15)
H62_38 H 0.8421 0.4367 0.2108
H66_25 H 0.7892 0.6579 0.0633
C107_38 C 0.87096(14) 0.43251(13) 0.19798(14)
C111_25 C 0.80202(14) 0.62904(14) 0.06749(13)
H67_38 H 0.8703 0.4438 0.1885
H71_25 H 0.8115 0.6297 0.0562
C112_38 C 0.88804(13) 0.42051(12) 0.19881(12)
C116_25 C 0.80119(12) 0.61196(13) 0.07949(12)
C117_38 C 0.88826(11) 0.40321(12) 0.21265(11)
C121_25 C 0.78735(11) 0.61174(11) 0.09679(12)
H72_38 H 0.9000 0.3942 0.2127
H76_25 H 0.7873 0.6000 0.1058
S2_42 S 0.86856(15) 0.44939(7) 0.99559(7)
C26_42 C 0.8718(2) 0.42456(19) 0.99851(14)
S8_42 S 0.88144(15) 0.30061(7) 0.99559(7)
C152_42 C 0.8782(2) 0.32544(19) 0.99851(14)
N9_16 N 0.62516(10) 0.65085(10) 0.02072(10)
N10_16 N 0.67186(11) 0.65591(12) 0.06390(11)
S2_43 S 0.55061(7) 0.63144(15) 0.00441(7)
C20_16 C 0.61165(16) 0.66623(15) 0.01834(14)
H13_16 H 0.6008 0.6646 0.0084
C21_16 C 0.6126(2) 0.68469(17) 0.02980(17)
H14_16 H 0.6033 0.6958 0.0271
C22_16 C 0.62750(16) 0.68620(15) 0.04515(16)
H15_16 H 0.6282 0.6982 0.0536
C23_16 C 0.64131(14) 0.67016(14) 0.04809(13)
C24_16 C 0.63931(13) 0.65262(12) 0.03528(12)
H16_16 H 0.6487 0.6414 0.0373
C25_16 C 0.65725(14) 0.67079(13) 0.06431(13)
C26_43 C 0.57544(19) 0.6282(2) 0.00149(14)
N57_16 N 0.65085(10) 0.72928(10) 0.12484(10)
N58_16 N 0.72928(10) 0.62516(10) 0.09915(10)
N66_16 N 0.68610(11) 0.67186(11) 0.09409(12)
N67_16 N 0.65591(12) 0.68610(11) 0.07814(11)
S8_43 S 0.69939(7) 0.61856(15) 0.00441(7)
C122_16 C 0.66623(15) 0.73166(14) 0.13835(16)
C123_16 C 0.73166(14) 0.61165(16) 0.08377(15)
H77_16 H 0.6646 0.7416 0.1492
H78_16 H 0.7416 0.6008 0.0854
C127_16 C 0.68469(17) 0.72020(17) 0.1374(2)
C128_16 C 0.72020(17) 0.6126(2) 0.06531(17)
H82_16 H 0.6958 0.7229 0.1467
H83_16 H 0.7229 0.6033 0.0542
C132_16 C 0.68620(15) 0.70485(16) 0.12250(16)
C133_16 C 0.70485(16) 0.62750(16) 0.06380(15)
H87_16 H 0.6982 0.6964 0.1218
H88_16 H 0.6964 0.6282 0.0518
C137_16 C 0.67016(14) 0.70191(13) 0.10869(14)
C138_16 C 0.70191(13) 0.64131(14) 0.07984(14)
C142_16 C 0.65262(12) 0.71472(12) 0.11069(13)
C143_16 C 0.71472(12) 0.63931(13) 0.09738(12)
H92_16 H 0.6414 0.7127 0.1013
H93_16 H 0.7127 0.6487 0.1086
C147_16 C 0.68569(13) 0.65725(14) 0.07921(13)
C148_16 C 0.67079(13) 0.68569(13) 0.09275(14)
C152_43 C 0.67456(19) 0.6218(2) 0.00149(14)
N2_43 N 0.59293(12) 0.62671(10) 0.99942(9)
N16_43 N 0.65707(12) 0.62329(10) 0.99942(9)
N31_25 N 0.59928(11) 0.73344(10) 0.87499(10)
N38_25 N 0.59527(10) 0.68848(10) 0.92053(10)
N43_25 N 0.56148(9) 0.67919(10) 0.91003(10)
N48_25 N 0.57686(10) 0.66224(10) 0.93881(9)
N53_25 N 0.62752(10) 0.64926(10) 0.97547(10)
C35_25 C 0.53098(12) 0.64834(11) 0.90982(12)
H20_25 H 0.5337 0.6565 0.8979
C40_25 C 0.54302(12) 0.65126(11) 0.92686(12)
C45_25 C 0.53888(14) 0.64017(15) 0.94518(16)
H25_25 H 0.5471 0.6419 0.9573
C50_25 C 0.52243(15) 0.62677(16) 0.94460(17)
H30_25 H 0.5187 0.6193 0.9567
C55_25 C 0.51137(15) 0.62404(14) 0.92686(16)
H35_25 H 0.5003 0.6143 0.9270
C60_25 C 0.58373(15) 0.73465(15) 0.86077(16)
H40_25 H 0.5846 0.7448 0.8501
C65_25 C 0.56723(17) 0.72190(16) 0.86135(17)
H45_25 H 0.5570 0.7228 0.8508
C70_25 C 0.56496(16) 0.70780(15) 0.87674(15)
H50_25 H 0.5531 0.6990 0.8771
C75_25 C 0.58005(13) 0.70626(12) 0.89199(13)
C80_25 C 0.59704(12) 0.71918(11) 0.89040(12)
H55_25 H 0.6077 0.7181 0.9005
C85_25 C 0.57875(12) 0.69041(11) 0.90855(12)
C90_25 C 0.56163(11) 0.66545(12) 0.92529(12)
C95_25 C 0.59330(12) 0.67385(12) 0.93565(12)
C100_25 C 0.64406(14) 0.66191(15) 0.97451(14)
H60_25 H 0.6553 0.6593 0.9837
C105_25 C 0.64574(15) 0.67836(15) 0.96110(15)
H65_25 H 0.6579 0.6867 0.9608
C110_25 C 0.62904(14) 0.68251(13) 0.94798(14)
H70_25 H 0.6297 0.6938 0.9385
C115_25 C 0.61196(13) 0.67051(12) 0.94881(12)
C120_25 C 0.61174(11) 0.65321(12) 0.96265(11)
H75_25 H 0.6000 0.6442 0.9627
N1_39 N 0.72680(9) 0.36292(10) 0.60606(10)
S1_39 S 0.70302(5) 0.33784(5) 0.58020(5)
C1_39 C 0.71619(12) 0.35259(13) 0.59544(12)
N11_39 N 0.77320(9) 0.39394(10) 0.63708(10)
N21_39 N 0.76526(10) 0.38435(9) 0.59101(10)
N22_39 N 0.73474(10) 0.40899(10) 0.61565(9)
N35_39 N 0.84527(10) 0.43848(10) 0.57947(10)
N36_39 N 0.65473(10) 0.42053(10) 0.56152(10)
N40_39 N 0.81148(9) 0.42919(10) 0.58997(10)
N41_39 N 0.68852(9) 0.41003(10) 0.57081(10)
N45_39 N 0.82686(10) 0.41224(10) 0.56119(9)
N46_39 N 0.67314(10) 0.43881(9) 0.58776(10)
S3_39 S 0.79698(5) 0.41980(5) 0.66216(5)
C27_39 C 0.78381(12) 0.40456(12) 0.64741(13)
C32_39 C 0.78098(12) 0.39834(11) 0.59018(12)
C33_39 C 0.71902(12) 0.40982(12) 0.60166(11)
H17_39 H 0.7837 0.4065 0.6021
H18_39 H 0.7163 0.3979 0.5935
C37_39 C 0.79302(12) 0.40126(11) 0.57314(12)
C38_39 C 0.70698(12) 0.42686(12) 0.59874(11)
C42_39 C 0.78888(14) 0.39017(15) 0.55482(16)
C43_39 C 0.71112(14) 0.44518(16) 0.60983(15)
H22_39 H 0.7971 0.3919 0.5427
H23_39 H 0.7029 0.4573 0.6081
C47_39 C 0.77243(15) 0.37677(16) 0.55540(17)
C48_39 C 0.72757(15) 0.44460(17) 0.62323(16)
H27_39 H 0.7687 0.3693 0.5433
H28_39 H 0.7313 0.4567 0.6307
C52_39 C 0.76137(15) 0.37404(14) 0.57314(16)
C53_39 C 0.73863(15) 0.42686(16) 0.62596(14)
H32_39 H 0.7503 0.3643 0.5730
H33_39 H 0.7497 0.4270 0.6357
C57_39 C 0.83373(15) 0.48465(15) 0.63923(16)
C58_39 C 0.66627(15) 0.36077(16) 0.51535(15)
H37_39 H 0.8346 0.4948 0.6499
H38_39 H 0.6654 0.3501 0.5052
C62_39 C 0.81723(17) 0.47190(16) 0.63865(17)
C63_39 C 0.68277(17) 0.36135(17) 0.52810(16)
H42_39 H 0.8070 0.4728 0.6492
H43_39 H 0.6930 0.3508 0.5272
C67_39 C 0.81496(16) 0.45780(15) 0.62326(15)
C68_39 C 0.68504(16) 0.37674(15) 0.54220(15)
H47_39 H 0.8031 0.4490 0.6229
H48_39 H 0.6969 0.3771 0.5510
C72_39 C 0.83005(13) 0.45626(12) 0.60801(13)
C73_39 C 0.66995(13) 0.39199(13) 0.54374(12)
C77_39 C 0.84704(12) 0.46918(11) 0.60960(12)
C78_39 C 0.65296(12) 0.39040(12) 0.53082(11)
H52_39 H 0.8577 0.4681 0.5995
H53_39 H 0.6423 0.4005 0.5319
C82_39 C 0.82875(12) 0.44041(11) 0.59145(12)
C83_39 C 0.67125(12) 0.40855(12) 0.55959(11)
C87_39 C 0.81163(11) 0.41545(12) 0.57471(12)
C88_39 C 0.68837(11) 0.42529(12) 0.58455(12)
C92_39 C 0.84330(12) 0.42385(12) 0.56435(12)
C93_39 C 0.65670(12) 0.43565(12) 0.57615(12)
C97_39 C 0.89406(14) 0.41191(15) 0.52549(14)
C98_39 C 0.60594(14) 0.47451(14) 0.58809(15)
H57_39 H 0.9053 0.4093 0.5163
H58_39 H 0.5947 0.4837 0.5907
C102_39 C 0.89574(15) 0.42836(15) 0.53890(15)
C103_39 C 0.60426(15) 0.46110(15) 0.57164(15)
H62_39 H 0.9079 0.4367 0.5392
H63_39 H 0.5921 0.4608 0.5633
C107_39 C 0.87904(14) 0.43251(13) 0.55202(14)
C108_39 C 0.62096(14) 0.44798(14) 0.56749(13)
H67_39 H 0.8797 0.4438 0.5615
H68_39 H 0.6203 0.4385 0.5562
C112_39 C 0.86196(13) 0.42051(12) 0.55119(12)
C113_39 C 0.63804(13) 0.44881(12) 0.57949(12)
C117_39 C 0.86174(11) 0.40321(12) 0.53735(11)
C118_39 C 0.63826(11) 0.46265(11) 0.59679(12)
H72_39 H 0.8500 0.3942 0.5373
H73_39 H 0.6500 0.4627 0.6058
N62_25 N 0.02072(10) 0.59915(10) 0.12484(10)
N63_25 N 0.02072(10) 0.65085(10) 0.12516(10)
S9_25 S 0.00441(7) 0.61856(15) 0.19939(7)
S10_25 S 0.00441(7) 0.63144(15) 0.05061(7)
C153_25 C 0.00149(14) 0.6218(2) 0.17456(19)
C154_25 C 0.00149(14) 0.6282(2) 0.07544(19)
N2_44 N 0.75058(9) 0.65707(12) 0.12671(10)
S2_44 S 0.74559(7) 0.69939(7) 0.13144(15)
C26_44 C 0.74851(14) 0.67456(19) 0.1282(2)
Co9_25 Co 0.99856(2) 0.6250 0.1250
N11_40 N 0.86292(10) 0.64394(10) 0.02320(9)
N16_44 N 0.75058(9) 0.59293(12) 0.12329(10)
N17_25 N 0.99942(9) 0.62329(10) 0.15707(12)
N18_25 N 0.99942(9) 0.62671(10) 0.09293(12)
N21_40 N 0.90899(10) 0.63435(9) 0.01526(10)
N35_40 N 0.92053(10) 0.68848(10) 0.09527(10)
N40_40 N 0.91003(10) 0.67919(10) 0.06148(9)
N45_40 N 0.93881(9) 0.66224(10) 0.07686(10)
N50_25 N 0.97547(10) 0.64926(10) 0.12752(10)
N55_25 N 0.97547(10) 0.60074(10) 0.12248(10)
S3_40 S 0.83784(5) 0.66980(5) 0.04698(5)
S8_44 S 0.74559(7) 0.55061(7) 0.11856(15)
C27_40 C 0.85259(13) 0.65456(12) 0.03381(12)
C32_40 C 0.90982(12) 0.64834(11) 0.03098(12)
H17_40 H 0.8979 0.6565 0.0337
C37_40 C 0.92686(12) 0.65126(11) 0.04302(12)
C42_40 C 0.94518(16) 0.64017(15) 0.03888(14)
H22_40 H 0.9573 0.6419 0.0471
C47_40 C 0.94460(17) 0.62677(16) 0.02243(15)
H27_40 H 0.9567 0.6193 0.0187
C52_40 C 0.92686(16) 0.62404(14) 0.01137(15)
H32_40 H 0.9270 0.6143 0.0003
C57_40 C 0.86077(16) 0.73465(15) 0.08373(15)
H37_40 H 0.8501 0.7448 0.0846
C62_40 C 0.86135(17) 0.72190(16) 0.06723(17)
H42_40 H 0.8508 0.7228 0.0570
C67_40 C 0.87674(15) 0.70780(15) 0.06496(16)
H47_40 H 0.8771 0.6990 0.0531
C72_40 C 0.89199(13) 0.70626(12) 0.08005(13)
C77_40 C 0.89040(12) 0.71918(11) 0.09704(12)
H52_40 H 0.9005 0.7181 0.1077
C82_40 C 0.90855(12) 0.69041(11) 0.07875(12)
C87_40 C 0.92529(12) 0.66545(12) 0.06163(11)
C92_40 C 0.93565(12) 0.67385(12) 0.09330(12)
C97_40 C 0.97451(14) 0.66191(15) 0.14406(14)
H57_40 H 0.9837 0.6593 0.1553
C102_40 C 0.96110(15) 0.67836(15) 0.14574(15)
H62_40 H 0.9608 0.6867 0.1579
C107_40 C 0.94798(14) 0.68251(13) 0.12904(14)
H67_40 H 0.9385 0.6938 0.1297
C112_40 C 0.94881(12) 0.67051(12) 0.11196(13)
C117_40 C 0.96265(11) 0.65321(12) 0.11174(11)
H72_40 H 0.9627 0.6442 0.1000
C152_44 C 0.74851(14) 0.57544(19) 0.1218(2)
N1_40 N 0.89394(10) 0.61292(10) 0.97680(9)
S1_40 S 0.91980(5) 0.58784(5) 0.95302(5)
C1_40 C 0.90456(12) 0.60259(13) 0.96619(12)
N22_40 N 0.88435(9) 0.65899(10) 0.98474(10)
N36_40 N 0.93848(10) 0.67053(10) 0.90473(10)
N41_40 N 0.92919(10) 0.66003(10) 0.93852(9)
N46_40 N 0.91224(10) 0.68881(9) 0.92314(10)
C33_40 C 0.89834(11) 0.65982(12) 0.96902(12)
H18_40 H 0.9065 0.6479 0.9663
C38_40 C 0.90126(11) 0.67686(12) 0.95698(12)
C43_40 C 0.89017(15) 0.69518(16) 0.96112(14)
H23_40 H 0.8919 0.7073 0.9529
C48_40 C 0.87677(16) 0.69460(17) 0.97757(15)
H28_40 H 0.8693 0.7067 0.9813
C53_40 C 0.87404(14) 0.67686(16) 0.98863(15)
H33_40 H 0.8643 0.6770 0.9997
C58_40 C 0.98465(15) 0.61077(16) 0.91627(15)
H38_40 H 0.9948 0.6001 0.9154
C63_40 C 0.97190(16) 0.61135(17) 0.93277(17)
H43_40 H 0.9728 0.6008 0.9430
C68_40 C 0.95780(15) 0.62674(15) 0.93504(16)
H48_40 H 0.9490 0.6271 0.9469
C73_40 C 0.95626(12) 0.64199(13) 0.91995(13)
C78_40 C 0.96918(11) 0.64040(12) 0.90296(12)
H53_40 H 0.9681 0.6505 0.8923
C83_40 C 0.94041(11) 0.65855(12) 0.92125(12)
C88_40 C 0.91545(12) 0.67529(12) 0.93837(11)
C93_40 C 0.92385(12) 0.68565(12) 0.90670(12)
C98_40 C 0.91191(15) 0.72451(14) 0.85594(14)
H58_40 H 0.9093 0.7337 0.8447
C103_40 C 0.92836(15) 0.71110(15) 0.85426(15)
H63_40 H 0.9367 0.7108 0.8421
C108_40 C 0.93251(13) 0.69798(14) 0.87096(14)
H68_40 H 0.9438 0.6885 0.8703
C113_40 C 0.92051(12) 0.69881(12) 0.88804(13)
C118_40 C 0.90321(12) 0.71265(11) 0.88826(11)
H73_40 H 0.8942 0.7127 0.9000
N1_41 N 0.86292(10) 0.10606(10) 0.72680(9)
S1_41 S 0.83784(5) 0.08020(5) 0.70302(5)
C1_41 C 0.85259(13) 0.09544(12) 0.71619(12)
N11_41 N 0.89394(10) 0.13708(10) 0.77320(9)
N21_41 N 0.88435(9) 0.09101(10) 0.76526(10)
N22_41 N 0.90899(10) 0.11565(9) 0.73474(10)
N35_41 N 0.93848(10) 0.07947(10) 0.84527(10)
N36_41 N 0.92053(10) 0.06152(10) 0.65473(10)
N40_41 N 0.92919(10) 0.08997(10) 0.81148(9)
N41_41 N 0.91003(10) 0.07081(10) 0.68852(9)
N45_41 N 0.91224(10) 0.06119(9) 0.82686(10)
N46_41 N 0.93881(9) 0.08776(10) 0.67314(10)
S3_41 S 0.91980(5) 0.16216(5) 0.79698(5)
C27_41 C 0.90456(12) 0.14741(13) 0.78381(12)
C32_41 C 0.89834(11) 0.09018(12) 0.78098(12)
C33_41 C 0.90982(12) 0.10166(11) 0.71902(12)
H17_41 H 0.9065 0.1021 0.7837
H18_41 H 0.8979 0.0935 0.7163
C37_41 C 0.90126(11) 0.07314(12) 0.79302(12)
C38_41 C 0.92686(12) 0.09874(11) 0.70698(12)
C42_41 C 0.89017(15) 0.05482(16) 0.78888(14)
C43_41 C 0.94518(16) 0.10983(15) 0.71112(14)
H22_41 H 0.8919 0.0427 0.7971
H23_41 H 0.9573 0.1081 0.7029
C47_41 C 0.87677(16) 0.05540(17) 0.77243(15)
C48_41 C 0.94460(17) 0.12323(16) 0.72757(15)
H27_41 H 0.8693 0.0433 0.7687
H28_41 H 0.9567 0.1307 0.7313
C52_41 C 0.87404(14) 0.07314(16) 0.76137(15)
C53_41 C 0.92686(16) 0.12596(14) 0.73863(15)
H32_41 H 0.8643 0.0730 0.7503
H33_41 H 0.9270 0.1357 0.7497
C57_41 C 0.98465(15) 0.13923(16) 0.83373(15)
C58_41 C 0.86077(16) 0.01535(15) 0.66627(15)
H37_41 H 0.9948 0.1499 0.8346
H38_41 H 0.8501 0.0052 0.6654
C62_41 C 0.97190(16) 0.13865(17) 0.81723(17)
C63_41 C 0.86135(17) 0.02810(16) 0.68277(17)
H42_41 H 0.9728 0.1492 0.8070
H43_41 H 0.8508 0.0272 0.6930
C67_41 C 0.95780(15) 0.12326(15) 0.81496(16)
C68_41 C 0.87674(15) 0.04220(15) 0.68504(16)
H47_41 H 0.9490 0.1229 0.8031
H48_41 H 0.8771 0.0510 0.6969
C72_41 C 0.95626(12) 0.10801(13) 0.83005(13)
C73_41 C 0.89199(13) 0.04374(12) 0.66995(13)
C77_41 C 0.96918(11) 0.10960(12) 0.84704(12)
C78_41 C 0.89040(12) 0.03082(11) 0.65296(12)
H52_41 H 0.9681 0.0995 0.8577
H53_41 H 0.9005 0.0319 0.6423
C82_41 C 0.94041(11) 0.09145(12) 0.82875(12)
C83_41 C 0.90855(12) 0.05959(11) 0.67125(12)
C87_41 C 0.91545(12) 0.07471(12) 0.81163(11)
C88_41 C 0.92529(12) 0.08455(12) 0.68837(11)
C92_41 C 0.92385(12) 0.06435(12) 0.84330(12)
C93_41 C 0.93565(12) 0.07615(12) 0.65670(12)
C97_41 C 0.91191(15) 0.02549(14) 0.89406(14)
C98_41 C 0.97451(14) 0.08809(15) 0.60594(14)
H57_41 H 0.9093 0.0163 0.9053
H58_41 H 0.9837 0.0907 0.5947
C102_41 C 0.92836(15) 0.03890(15) 0.89574(15)
C103_41 C 0.96110(15) 0.07164(15) 0.60426(15)
H62_41 H 0.9367 0.0392 0.9079
H63_41 H 0.9608 0.0633 0.5921
C107_41 C 0.93251(13) 0.05202(14) 0.87904(14)
C108_41 C 0.94798(14) 0.06749(13) 0.62096(14)
H67_41 H 0.9438 0.0615 0.8797
H68_41 H 0.9385 0.0562 0.6203
C112_41 C 0.92051(12) 0.05119(12) 0.86196(13)
C113_41 C 0.94881(12) 0.07949(12) 0.63804(13)
C117_41 C 0.90321(12) 0.03735(11) 0.86174(11)
C118_41 C 0.96265(11) 0.09679(12) 0.63826(11)
H72_41 H 0.8942 0.0373 0.8500
H73_41 H 0.9627 0.1058 0.6500
N2_45 N 0.62671(10) 0.25058(9) 0.65707(12)
S2_45 S 0.63144(15) 0.24559(7) 0.69939(7)
C26_45 C 0.6282(2) 0.24851(14) 0.67456(19)
N16_45 N 0.62329(10) 0.25058(9) 0.59293(12)
S8_45 S 0.61856(15) 0.24559(7) 0.55061(7)
C152_45 C 0.6218(2) 0.24851(14) 0.57544(19)
N1_42 N 0.14394(10) 0.22680(9) 0.88708(10)
S1_42 S 0.16980(5) 0.20302(5) 0.91216(5)
C1_42 C 0.15456(12) 0.21619(12) 0.89741(13)
N11_42 N 0.11292(10) 0.27320(9) 0.85606(10)
N21_42 N 0.15899(10) 0.26526(10) 0.86565(9)
N22_42 N 0.13435(9) 0.23474(10) 0.84101(10)
N35_42 N 0.17053(10) 0.34527(10) 0.81152(10)
N36_42 N 0.18848(10) 0.15473(10) 0.82947(10)
N40_42 N 0.16003(10) 0.31148(9) 0.82081(10)
N41_42 N 0.17919(10) 0.18852(9) 0.83997(10)
N45_42 N 0.18881(9) 0.32686(10) 0.83776(10)
N46_42 N 0.16224(10) 0.17314(10) 0.81119(9)
S3_42 S 0.08784(5) 0.29698(5) 0.83020(5)
C27_42 C 0.10259(13) 0.28381(12) 0.84544(12)
C32_42 C 0.15982(12) 0.28098(12) 0.85166(11)
C33_42 C 0.14834(11) 0.21902(12) 0.84018(12)
H17_42 H 0.1479 0.2837 0.8435
H18_42 H 0.1565 0.2163 0.8521
C37_42 C 0.17686(12) 0.29302(12) 0.84874(11)
C38_42 C 0.15126(11) 0.20698(12) 0.82314(12)
C42_42 C 0.19518(16) 0.28888(14) 0.85983(15)
C43_42 C 0.14017(15) 0.21112(14) 0.80482(16)
H22_42 H 0.2073 0.2971 0.8581
H23_42 H 0.1419 0.2029 0.7927
C47_42 C 0.19460(17) 0.27243(15) 0.87323(16)
C48_42 C 0.12677(16) 0.22757(15) 0.80540(17)
H27_42 H 0.2067 0.2687 0.8807
H28_42 H 0.1193 0.2313 0.7933
C52_42 C 0.17686(16) 0.26137(15) 0.87596(14)
C53_42 C 0.12404(14) 0.23863(15) 0.82314(16)
H32_42 H 0.1770 0.2503 0.8857
H33_42 H 0.1143 0.2497 0.8230
C57_42 C 0.11077(16) 0.33373(15) 0.76535(15)
C58_42 C 0.23465(15) 0.16627(15) 0.88923(16)
H37_42 H 0.1001 0.3346 0.7552
H38_42 H 0.2448 0.1654 0.8999
C62_42 C 0.11135(17) 0.31723(17) 0.77810(16)
C63_42 C 0.22190(16) 0.18277(17) 0.88865(17)
H42_42 H 0.1008 0.3070 0.7772
H43_42 H 0.2228 0.1930 0.8992
C67_42 C 0.12674(15) 0.31496(16) 0.79220(15)
C68_42 C 0.20780(15) 0.18504(16) 0.87326(15)
H47_42 H 0.1271 0.3031 0.8010
H48_42 H 0.1990 0.1969 0.8729
C72_42 C 0.14199(13) 0.33005(13) 0.79374(12)
C73_42 C 0.20626(12) 0.16995(13) 0.85801(13)
C77_42 C 0.14040(12) 0.34704(12) 0.78082(11)
C78_42 C 0.21918(11) 0.15296(12) 0.85960(12)
H52_42 H 0.1505 0.3577 0.7819
H53_42 H 0.2181 0.1423 0.8495
C82_42 C 0.15855(12) 0.32875(12) 0.80959(11)
C83_42 C 0.19041(11) 0.17125(12) 0.84145(12)
C87_42 C 0.17529(12) 0.31163(11) 0.83455(12)
C88_42 C 0.16545(12) 0.18837(11) 0.82471(12)
C92_42 C 0.18565(12) 0.34330(12) 0.82615(12)
C93_42 C 0.17385(12) 0.15670(12) 0.81435(12)
C97_42 C 0.22451(14) 0.39406(14) 0.83809(15)
C98_42 C 0.16191(15) 0.10594(14) 0.77549(14)
H57_42 H 0.2337 0.4053 0.8407
H58_42 H 0.1593 0.0947 0.7663
C102_42 C 0.21110(15) 0.39574(15) 0.82164(15)
C103_42 C 0.17836(15) 0.10426(15) 0.78890(15)
H62_42 H 0.2108 0.4079 0.8133
H63_42 H 0.1867 0.0921 0.7892
C107_42 C 0.19798(14) 0.37904(14) 0.81749(13)
C108_42 C 0.18251(13) 0.12096(14) 0.80202(14)
H67_42 H 0.1885 0.3797 0.8062
H68_42 H 0.1938 0.1203 0.8115
C112_42 C 0.19881(12) 0.36196(13) 0.82949(12)
C113_42 C 0.17051(12) 0.13804(13) 0.80119(12)
C117_42 C 0.21265(11) 0.36174(11) 0.84679(12)
C118_42 C 0.15321(12) 0.13826(11) 0.78735(11)
H72_42 H 0.2127 0.3500 0.8558
H73_42 H 0.1442 0.1500 0.7873
N1_43 N 0.61292(10) 0.27320(9) 0.35606(10)
S1_43 S 0.58784(5) 0.29698(5) 0.33020(5)
C1_43 C 0.60259(13) 0.28381(12) 0.34544(12)
N11_43 N 0.64394(10) 0.22680(9) 0.38708(10)
N21_43 N 0.63435(9) 0.23474(10) 0.34101(10)
N22_43 N 0.65899(10) 0.26526(10) 0.36565(9)
N35_43 N 0.68848(10) 0.15473(10) 0.32947(10)
N36_43 N 0.67053(10) 0.34527(10) 0.31152(10)
N40_43 N 0.67919(10) 0.18852(9) 0.33997(10)
N41_43 N 0.66003(10) 0.31148(9) 0.32081(10)
N45_43 N 0.66224(10) 0.17314(10) 0.31119(9)
N46_43 N 0.68881(9) 0.32686(10) 0.33776(10)
S3_43 S 0.66980(5) 0.20302(5) 0.41216(5)
C27_43 C 0.65456(12) 0.21619(12) 0.39741(13)
C32_43 C 0.64834(11) 0.21902(12) 0.34018(12)
C33_43 C 0.65982(12) 0.28098(12) 0.35166(11)
H17_43 H 0.6565 0.2163 0.3521
H18_43 H 0.6479 0.2837 0.3435
C37_43 C 0.65126(11) 0.20698(12) 0.32314(12)
C38_43 C 0.67686(12) 0.29302(12) 0.34874(11)
C42_43 C 0.64017(15) 0.21112(14) 0.30482(16)
C43_43 C 0.69518(16) 0.28888(14) 0.35983(15)
H22_43 H 0.6419 0.2029 0.2927
H23_43 H 0.7073 0.2971 0.3581
C47_43 C 0.62677(16) 0.22757(15) 0.30540(17)
C48_43 C 0.69460(17) 0.27243(15) 0.37323(16)
H27_43 H 0.6193 0.2313 0.2933
H28_43 H 0.7067 0.2687 0.3807
C52_43 C 0.62404(14) 0.23863(15) 0.32314(16)
C53_43 C 0.67686(16) 0.26137(15) 0.37596(14)
H32_43 H 0.6143 0.2497 0.3230
H33_43 H 0.6770 0.2503 0.3857
C57_43 C 0.73465(15) 0.16627(15) 0.38923(16)
C58_43 C 0.61077(16) 0.33373(15) 0.26535(15)
H37_43 H 0.7448 0.1654 0.3999
H38_43 H 0.6001 0.3346 0.2552
C62_43 C 0.72190(16) 0.18277(17) 0.38865(17)
C63_43 C 0.61135(17) 0.31723(17) 0.27810(16)
H42_43 H 0.7228 0.1930 0.3992
H43_43 H 0.6008 0.3070 0.2772
C67_43 C 0.70780(15) 0.18504(16) 0.37326(15)
C68_43 C 0.62674(15) 0.31496(16) 0.29220(15)
H47_43 H 0.6990 0.1969 0.3729
H48_43 H 0.6271 0.3031 0.3010
C72_43 C 0.70626(12) 0.16995(13) 0.35801(13)
C73_43 C 0.64199(13) 0.33005(13) 0.29374(12)
C77_43 C 0.71918(11) 0.15296(12) 0.35960(12)
C78_43 C 0.64040(12) 0.34704(12) 0.28082(11)
H52_43 H 0.7181 0.1423 0.3495
H53_43 H 0.6505 0.3577 0.2819
C82_43 C 0.69041(11) 0.17125(12) 0.34145(12)
C83_43 C 0.65855(12) 0.32875(12) 0.30959(11)
C87_43 C 0.66545(12) 0.18837(11) 0.32471(12)
C88_43 C 0.67529(12) 0.31163(11) 0.33455(12)
C92_43 C 0.67385(12) 0.15670(12) 0.31435(12)
C93_43 C 0.68565(12) 0.34330(12) 0.32615(12)
C97_43 C 0.66191(15) 0.10594(14) 0.27549(14)
C98_43 C 0.72451(14) 0.39406(14) 0.33809(15)
H57_43 H 0.6593 0.0947 0.2663
H58_43 H 0.7337 0.4053 0.3407
C102_43 C 0.67836(15) 0.10426(15) 0.28890(15)
C103_43 C 0.71110(15) 0.39574(15) 0.32164(15)
H62_43 H 0.6867 0.0921 0.2892
H63_43 H 0.7108 0.4079 0.3133
C107_43 C 0.68251(13) 0.12096(14) 0.30202(14)
C108_43 C 0.69798(14) 0.37904(14) 0.31749(13)
H67_43 H 0.6938 0.1203 0.3115
H68_43 H 0.6885 0.3797 0.3062
C112_43 C 0.67051(12) 0.13804(13) 0.30119(12)
C113_43 C 0.69881(12) 0.36196(13) 0.32949(12)
C117_43 C 0.65321(12) 0.13826(11) 0.28735(11)
C118_43 C 0.71265(11) 0.36174(11) 0.34679(12)
H72_43 H 0.6442 0.1500 0.2873
H73_43 H 0.7127 0.3500 0.3558
N2_46 N 0.12329(10) 0.25058(9) 0.09293(12)
S2_46 S 0.11856(15) 0.24559(7) 0.05061(7)
C26_46 C 0.1218(2) 0.24851(14) 0.07544(19)
N16_46 N 0.12671(10) 0.25058(9) 0.15707(12)
S8_46 S 0.13144(15) 0.24559(7) 0.19939(7)
C152_46 C 0.1282(2) 0.24851(14) 0.17456(19)
N1_44 N 0.39394(10) 0.13708(10) 0.27320(9)
S1_44 S 0.41980(5) 0.16216(5) 0.29698(5)
C1_44 C 0.40456(12) 0.14741(13) 0.28381(12)
N11_44 N 0.36292(10) 0.10606(10) 0.22680(9)
N21_44 N 0.40899(10) 0.11565(9) 0.23474(10)
N22_44 N 0.38435(9) 0.09101(10) 0.26526(10)
N35_44 N 0.42053(10) 0.06152(10) 0.15473(10)
N36_44 N 0.43848(10) 0.07947(10) 0.34527(10)
N40_44 N 0.41003(10) 0.07081(10) 0.18852(9)
N41_44 N 0.42919(10) 0.08997(10) 0.31148(9)
N45_44 N 0.43881(9) 0.08776(10) 0.17314(10)
N46_44 N 0.41224(10) 0.06119(9) 0.32686(10)
S3_44 S 0.33784(5) 0.08020(5) 0.20302(5)
C27_44 C 0.35259(13) 0.09544(12) 0.21619(12)
C32_44 C 0.40982(12) 0.10166(11) 0.21902(12)
C33_44 C 0.39834(11) 0.09018(12) 0.28098(12)
H17_44 H 0.3979 0.0935 0.2163
H18_44 H 0.4065 0.1021 0.2837
C37_44 C 0.42686(12) 0.09874(11) 0.20698(12)
C38_44 C 0.40126(11) 0.07314(12) 0.29302(12)
C42_44 C 0.44518(16) 0.10983(15) 0.21112(14)
C43_44 C 0.39017(15) 0.05482(16) 0.28888(14)
H22_44 H 0.4573 0.1081 0.2029
H23_44 H 0.3919 0.0427 0.2971
C47_44 C 0.44460(17) 0.12323(16) 0.22757(15)
C48_44 C 0.37677(16) 0.05540(17) 0.27243(15)
H27_44 H 0.4567 0.1307 0.2313
H28_44 H 0.3693 0.0433 0.2687
C52_44 C 0.42686(16) 0.12596(14) 0.23863(15)
C53_44 C 0.37404(14) 0.07314(16) 0.26137(15)
H32_44 H 0.4270 0.1357 0.2497
H33_44 H 0.3643 0.0730 0.2503
C57_44 C 0.36077(16) 0.01535(15) 0.16627(15)
C58_44 C 0.48465(15) 0.13923(16) 0.33373(15)
H37_44 H 0.3501 0.0052 0.1654
H38_44 H 0.4948 0.1499 0.3346
C62_44 C 0.36135(17) 0.02810(16) 0.18277(17)
C63_44 C 0.47190(16) 0.13865(17) 0.31723(17)
H42_44 H 0.3508 0.0272 0.1930
H43_44 H 0.4728 0.1492 0.3070
C67_44 C 0.37674(15) 0.04220(15) 0.18504(16)
C68_44 C 0.45780(15) 0.12326(15) 0.31496(16)
H47_44 H 0.3771 0.0510 0.1969
H48_44 H 0.4490 0.1229 0.3031
C72_44 C 0.39199(13) 0.04374(12) 0.16995(13)
C73_44 C 0.45626(12) 0.10801(13) 0.33005(13)
C77_44 C 0.39040(12) 0.03082(11) 0.15296(12)
C78_44 C 0.46918(11) 0.10960(12) 0.34704(12)
H52_44 H 0.4005 0.0319 0.1423
H53_44 H 0.4681 0.0995 0.3577
C82_44 C 0.40855(12) 0.05959(11) 0.17125(12)
C83_44 C 0.44041(11) 0.09145(12) 0.32875(12)
C87_44 C 0.42529(12) 0.08455(12) 0.18837(11)
C88_44 C 0.41545(12) 0.07471(12) 0.31163(11)
C92_44 C 0.43565(12) 0.07615(12) 0.15670(12)
C93_44 C 0.42385(12) 0.06435(12) 0.34330(12)
C97_44 C 0.47451(14) 0.08809(15) 0.10594(14)
C98_44 C 0.41191(15) 0.02549(14) 0.39406(14)
H57_44 H 0.4837 0.0907 0.0947
H58_44 H 0.4093 0.0163 0.4053
C102_44 C 0.46110(15) 0.07164(15) 0.10426(15)
C103_44 C 0.42836(15) 0.03890(15) 0.39574(15)
H62_44 H 0.4608 0.0633 0.0921
H63_44 H 0.4367 0.0392 0.4079
C107_44 C 0.44798(14) 0.06749(13) 0.12096(14)
C108_44 C 0.43251(13) 0.05202(14) 0.37904(14)
H67_44 H 0.4385 0.0562 0.1203
H68_44 H 0.4438 0.0615 0.3797
C112_44 C 0.44881(12) 0.07949(12) 0.13804(13)
C113_44 C 0.42051(12) 0.05119(12) 0.36196(13)
C117_44 C 0.46265(11) 0.09679(12) 0.13826(11)
C118_44 C 0.40321(12) 0.03735(11) 0.36174(11)
H72_44 H 0.4627 0.1058 0.1500
H73_44 H 0.3942 0.0373 0.3500
N1_45 N 0.86292(10) 0.60606(10) 0.22680(9)
S1_45 S 0.83784(5) 0.58020(5) 0.20302(5)
C1_45 C 0.85259(13) 0.59544(12) 0.21619(12)
N11_45 N 0.89394(10) 0.63708(10) 0.27320(9)
N21_45 N 0.88435(9) 0.59101(10) 0.26526(10)
N22_45 N 0.90899(10) 0.61565(9) 0.23474(10)
N35_45 N 0.93848(10) 0.57947(10) 0.34527(10)
N36_45 N 0.92053(10) 0.56152(10) 0.15473(10)
N40_45 N 0.92919(10) 0.58997(10) 0.31148(9)
N41_45 N 0.91003(10) 0.57081(10) 0.18852(9)
N45_45 N 0.91224(10) 0.56119(9) 0.32686(10)
N46_45 N 0.93881(9) 0.58776(10) 0.17314(10)
S3_45 S 0.91980(5) 0.66216(5) 0.29698(5)
C27_45 C 0.90456(12) 0.64741(13) 0.28381(12)
C32_45 C 0.89834(11) 0.59018(12) 0.28098(12)
C33_45 C 0.90982(12) 0.60166(11) 0.21902(12)
H17_45 H 0.9065 0.6021 0.2837
H18_45 H 0.8979 0.5935 0.2163
C37_45 C 0.90126(11) 0.57314(12) 0.29302(12)
C38_45 C 0.92686(12) 0.59874(11) 0.20698(12)
C42_45 C 0.89017(15) 0.55482(16) 0.28888(14)
C43_45 C 0.94518(16) 0.60983(15) 0.21112(14)
H22_45 H 0.8919 0.5427 0.2971
H23_45 H 0.9573 0.6081 0.2029
C47_45 C 0.87677(16) 0.55540(17) 0.27243(15)
C48_45 C 0.94460(17) 0.62323(16) 0.22757(15)
H27_45 H 0.8693 0.5433 0.2687
H28_45 H 0.9567 0.6307 0.2313
C52_45 C 0.87404(14) 0.57314(16) 0.26137(15)
C53_45 C 0.92686(16) 0.62596(14) 0.23863(15)
H32_45 H 0.8643 0.5730 0.2503
H33_45 H 0.9270 0.6357 0.2497
C57_45 C 0.98465(15) 0.63923(16) 0.33373(15)
C58_45 C 0.86077(16) 0.51535(15) 0.16627(15)
H37_45 H 0.9948 0.6499 0.3346
H38_45 H 0.8501 0.5052 0.1654
C62_45 C 0.97190(16) 0.63865(17) 0.31723(17)
C63_45 C 0.86135(17) 0.52810(16) 0.18277(17)
H42_45 H 0.9728 0.6492 0.3070
H43_45 H 0.8508 0.5272 0.1930
C67_45 C 0.95780(15) 0.62326(15) 0.31496(16)
C68_45 C 0.87674(15) 0.54220(15) 0.18504(16)
H47_45 H 0.9490 0.6229 0.3031
H48_45 H 0.8771 0.5510 0.1969
C72_45 C 0.95626(12) 0.60801(13) 0.33005(13)
C73_45 C 0.89199(13) 0.54374(12) 0.16995(13)
C77_45 C 0.96918(11) 0.60960(12) 0.34704(12)
C78_45 C 0.89040(12) 0.53082(11) 0.15296(12)
H52_45 H 0.9681 0.5995 0.3577
H53_45 H 0.9005 0.5319 0.1423
C82_45 C 0.94041(11) 0.59145(12) 0.32875(12)
C83_45 C 0.90855(12) 0.55959(11) 0.17125(12)
C87_45 C 0.91545(12) 0.57471(12) 0.31163(11)
C88_45 C 0.92529(12) 0.58455(12) 0.18837(11)
C92_45 C 0.92385(12) 0.56435(12) 0.34330(12)
C93_45 C 0.93565(12) 0.57615(12) 0.15670(12)
C97_45 C 0.91191(15) 0.52549(14) 0.39406(14)
C98_45 C 0.97451(14) 0.58809(15) 0.10594(14)
H57_45 H 0.9093 0.5163 0.4053
H58_45 H 0.9837 0.5907 0.0947
C102_45 C 0.92836(15) 0.53890(15) 0.39574(15)
C103_45 C 0.96110(15) 0.57164(15) 0.10426(15)
H62_45 H 0.9367 0.5392 0.4079
H63_45 H 0.9608 0.5633 0.0921
C107_45 C 0.93251(13) 0.55202(14) 0.37904(14)
C108_45 C 0.94798(14) 0.56749(13) 0.12096(14)
H67_45 H 0.9438 0.5615 0.3797
H68_45 H 0.9385 0.5562 0.1203
C112_45 C 0.92051(12) 0.55119(12) 0.36196(13)
C113_45 C 0.94881(12) 0.57949(12) 0.13804(13)
C117_45 C 0.90321(12) 0.53735(11) 0.36174(11)
C118_45 C 0.96265(11) 0.59679(12) 0.13826(11)
H72_45 H 0.8942 0.5373 0.3500
H73_45 H 0.9627 0.6058 0.1500
N2_47 N 0.62671(10) 0.75058(9) 0.15707(12)
S2_47 S 0.63144(15) 0.74559(7) 0.19939(7)
C26_47 C 0.6282(2) 0.74851(14) 0.17456(19)
N16_47 N 0.62329(10) 0.75058(9) 0.09293(12)
S8_47 S 0.61856(15) 0.74559(7) 0.05061(7)
C152_47 C 0.6218(2) 0.74851(14) 0.07544(19)
N1_46 N 0.14394(10) 0.72680(9) 0.38708(10)
S1_46 S 0.16980(5) 0.70302(5) 0.41216(5)
C1_46 C 0.15456(12) 0.71619(12) 0.39741(13)
N11_46 N 0.11292(10) 0.77320(9) 0.35606(10)
N21_46 N 0.15899(10) 0.76526(10) 0.36565(9)
N22_46 N 0.13435(9) 0.73474(10) 0.34101(10)
N35_46 N 0.17053(10) 0.84527(10) 0.31152(10)
N36_46 N 0.18848(10) 0.65473(10) 0.32947(10)
N40_46 N 0.16003(10) 0.81148(9) 0.32081(10)
N41_46 N 0.17919(10) 0.68852(9) 0.33997(10)
N45_46 N 0.18881(9) 0.82686(10) 0.33776(10)
N46_46 N 0.16224(10) 0.67314(10) 0.31119(9)
S3_46 S 0.08784(5) 0.79698(5) 0.33020(5)
C27_46 C 0.10259(13) 0.78381(12) 0.34544(12)
C32_46 C 0.15982(12) 0.78098(12) 0.35166(11)
C33_46 C 0.14834(11) 0.71902(12) 0.34018(12)
H17_46 H 0.1479 0.7837 0.3435
H18_46 H 0.1565 0.7163 0.3521
C37_46 C 0.17686(12) 0.79302(12) 0.34874(11)
C38_46 C 0.15126(11) 0.70698(12) 0.32314(12)
C42_46 C 0.19518(16) 0.78888(14) 0.35983(15)
C43_46 C 0.14017(15) 0.71112(14) 0.30482(16)
H22_46 H 0.2073 0.7971 0.3581
H23_46 H 0.1419 0.7029 0.2927
C47_46 C 0.19460(17) 0.77243(15) 0.37323(16)
C48_46 C 0.12677(16) 0.72757(15) 0.30540(17)
H27_46 H 0.2067 0.7687 0.3807
H28_46 H 0.1193 0.7313 0.2933
C52_46 C 0.17686(16) 0.76137(15) 0.37596(14)
C53_46 C 0.12404(14) 0.73863(15) 0.32314(16)
H32_46 H 0.1770 0.7503 0.3857
H33_46 H 0.1143 0.7497 0.3230
C57_46 C 0.11077(16) 0.83373(15) 0.26535(15)
C58_46 C 0.23465(15) 0.66627(15) 0.38923(16)
H37_46 H 0.1001 0.8346 0.2552
H38_46 H 0.2448 0.6654 0.3999
C62_46 C 0.11135(17) 0.81723(17) 0.27810(16)
C63_46 C 0.22190(16) 0.68277(17) 0.38865(17)
H42_46 H 0.1008 0.8070 0.2772
H43_46 H 0.2228 0.6930 0.3992
C67_46 C 0.12674(15) 0.81496(16) 0.29220(15)
C68_46 C 0.20780(15) 0.68504(16) 0.37326(15)
H47_46 H 0.1271 0.8031 0.3010
H48_46 H 0.1990 0.6969 0.3729
C72_46 C 0.14199(13) 0.83005(13) 0.29374(12)
C73_46 C 0.20626(12) 0.66995(13) 0.35801(13)
C77_46 C 0.14040(12) 0.84704(12) 0.28082(11)
C78_46 C 0.21918(11) 0.65296(12) 0.35960(12)
H52_46 H 0.1505 0.8577 0.2819
H53_46 H 0.2181 0.6423 0.3495
C82_46 C 0.15855(12) 0.82875(12) 0.30959(11)
C83_46 C 0.19041(11) 0.67125(12) 0.34145(12)
C87_46 C 0.17529(12) 0.81163(11) 0.33455(12)
C88_46 C 0.16545(12) 0.68837(11) 0.32471(12)
C92_46 C 0.18565(12) 0.84330(12) 0.32615(12)
C93_46 C 0.17385(12) 0.65670(12) 0.31435(12)
C97_46 C 0.22451(14) 0.89406(14) 0.33809(15)
C98_46 C 0.16191(15) 0.60594(14) 0.27549(14)
H57_46 H 0.2337 0.9053 0.3407
H58_46 H 0.1593 0.5947 0.2663
C102_46 C 0.21110(15) 0.89574(15) 0.32164(15)
C103_46 C 0.17836(15) 0.60426(15) 0.28890(15)
H62_46 H 0.2108 0.9079 0.3133
H63_46 H 0.1867 0.5921 0.2892
C107_46 C 0.19798(14) 0.87904(14) 0.31749(13)
C108_46 C 0.18251(13) 0.62096(14) 0.30202(14)
H67_46 H 0.1885 0.8797 0.3062
H68_46 H 0.1938 0.6203 0.3115
C112_46 C 0.19881(12) 0.86196(13) 0.32949(12)
C113_46 C 0.17051(12) 0.63804(13) 0.30119(12)
C117_46 C 0.21265(11) 0.86174(11) 0.34679(12)
C118_46 C 0.15321(12) 0.63826(11) 0.28735(11)
H72_46 H 0.2127 0.8500 0.3558
H73_46 H 0.1442 0.6500 0.2873
N1_47 N 0.61292(10) 0.77320(9) 0.85606(10)
S1_47 S 0.58784(5) 0.79698(5) 0.83020(5)
C1_47 C 0.60259(13) 0.78381(12) 0.84544(12)
N11_47 N 0.64394(10) 0.72680(9) 0.88708(10)
N21_47 N 0.63435(9) 0.73474(10) 0.84101(10)
N22_47 N 0.65899(10) 0.76526(10) 0.86565(9)
N35_47 N 0.68848(10) 0.65473(10) 0.82947(10)
N36_47 N 0.67053(10) 0.84527(10) 0.81152(10)
N40_47 N 0.67919(10) 0.68852(9) 0.83997(10)
N41_47 N 0.66003(10) 0.81148(9) 0.82081(10)
N45_47 N 0.66224(10) 0.67314(10) 0.81119(9)
N46_47 N 0.68881(9) 0.82686(10) 0.83776(10)
S3_47 S 0.66980(5) 0.70302(5) 0.91216(5)
C27_47 C 0.65456(12) 0.71619(12) 0.89741(13)
C32_47 C 0.64834(11) 0.71902(12) 0.84018(12)
C33_47 C 0.65982(12) 0.78098(12) 0.85166(11)
H17_47 H 0.6565 0.7163 0.8521
H18_47 H 0.6479 0.7837 0.8435
C37_47 C 0.65126(11) 0.70698(12) 0.82314(12)
C38_47 C 0.67686(12) 0.79302(12) 0.84874(11)
C42_47 C 0.64017(15) 0.71112(14) 0.80482(16)
C43_47 C 0.69518(16) 0.78888(14) 0.85983(15)
H22_47 H 0.6419 0.7029 0.7927
H23_47 H 0.7073 0.7971 0.8581
C47_47 C 0.62677(16) 0.72757(15) 0.80540(17)
C48_47 C 0.69460(17) 0.77243(15) 0.87323(16)
H27_47 H 0.6193 0.7313 0.7933
H28_47 H 0.7067 0.7687 0.8807
C52_47 C 0.62404(14) 0.73863(15) 0.82314(16)
C53_47 C 0.67686(16) 0.76137(15) 0.87596(14)
H32_47 H 0.6143 0.7497 0.8230
H33_47 H 0.6770 0.7503 0.8857
C57_47 C 0.73465(15) 0.66627(15) 0.88923(16)
C58_47 C 0.61077(16) 0.83373(15) 0.76535(15)
H37_47 H 0.7448 0.6654 0.8999
H38_47 H 0.6001 0.8346 0.7552
C62_47 C 0.72190(16) 0.68277(17) 0.88865(17)
C63_47 C 0.61135(17) 0.81723(17) 0.77810(16)
H42_47 H 0.7228 0.6930 0.8992
H43_47 H 0.6008 0.8070 0.7772
C67_47 C 0.70780(15) 0.68504(16) 0.87326(15)
C68_47 C 0.62674(15) 0.81496(16) 0.79220(15)
H47_47 H 0.6990 0.6969 0.8729
H48_47 H 0.6271 0.8031 0.8010
C72_47 C 0.70626(12) 0.66995(13) 0.85801(13)
C73_47 C 0.64199(13) 0.83005(13) 0.79374(12)
C77_47 C 0.71918(11) 0.65296(12) 0.85960(12)
C78_47 C 0.64040(12) 0.84704(12) 0.78082(11)
H52_47 H 0.7181 0.6423 0.8495
H53_47 H 0.6505 0.8577 0.7819
C82_47 C 0.69041(11) 0.67125(12) 0.84145(12)
C83_47 C 0.65855(12) 0.82875(12) 0.80959(11)
C87_47 C 0.66545(12) 0.68837(11) 0.82471(12)
C88_47 C 0.67529(12) 0.81163(11) 0.83455(12)
C92_47 C 0.67385(12) 0.65670(12) 0.81435(12)
C93_47 C 0.68565(12) 0.84330(12) 0.82615(12)
C97_47 C 0.66191(15) 0.60594(14) 0.77549(14)
C98_47 C 0.72451(14) 0.89406(14) 0.83809(15)
H57_47 H 0.6593 0.5947 0.7663
H58_47 H 0.7337 0.9053 0.8407
C102_47 C 0.67836(15) 0.60426(15) 0.78890(15)
C103_47 C 0.71110(15) 0.89574(15) 0.82164(15)
H62_47 H 0.6867 0.5921 0.7892
H63_47 H 0.7108 0.9079 0.8133
C107_47 C 0.68251(13) 0.62096(14) 0.80202(14)
C108_47 C 0.69798(14) 0.87904(14) 0.81749(13)
H67_47 H 0.6938 0.6203 0.8115
H68_47 H 0.6885 0.8797 0.8062
C112_47 C 0.67051(12) 0.63804(13) 0.80119(12)
C113_47 C 0.69881(12) 0.86196(13) 0.82949(12)
C117_47 C 0.65321(12) 0.63826(11) 0.78735(11)
C118_47 C 0.71265(11) 0.86174(11) 0.84679(12)
H72_47 H 0.6442 0.6500 0.7873
H73_47 H 0.7127 0.8500 0.8558
N2_48 N 0.12329(10) 0.75058(9) 0.59293(12)
S2_48 S 0.11856(15) 0.74559(7) 0.55061(7)
C26_48 C 0.1218(2) 0.74851(14) 0.57544(19)
N16_48 N 0.12671(10) 0.75058(9) 0.65707(12)
S8_48 S 0.13144(15) 0.74559(7) 0.69939(7)
C152_48 C 0.1282(2) 0.74851(14) 0.67456(19)
N1_48 N 0.39394(10) 0.63708(10) 0.77320(9)
S1_48 S 0.41980(5) 0.66216(5) 0.79698(5)
C1_48 C 0.40456(12) 0.64741(13) 0.78381(12)
N11_48 N 0.36292(10) 0.60606(10) 0.72680(9)
N21_48 N 0.40899(10) 0.61565(9) 0.73474(10)
N22_48 N 0.38435(9) 0.59101(10) 0.76526(10)
N35_48 N 0.42053(10) 0.56152(10) 0.65473(10)
N36_48 N 0.43848(10) 0.57947(10) 0.84527(10)
N40_48 N 0.41003(10) 0.57081(10) 0.68852(9)
N41_48 N 0.42919(10) 0.58997(10) 0.81148(9)
N45_48 N 0.43881(9) 0.58776(10) 0.67314(10)
N46_48 N 0.41224(10) 0.56119(9) 0.82686(10)
S3_48 S 0.33784(5) 0.58020(5) 0.70302(5)
C27_48 C 0.35259(13) 0.59544(12) 0.71619(12)
C32_48 C 0.40982(12) 0.60166(11) 0.71902(12)
C33_48 C 0.39834(11) 0.59018(12) 0.78098(12)
H17_48 H 0.3979 0.5935 0.7163
H18_48 H 0.4065 0.6021 0.7837
C37_48 C 0.42686(12) 0.59874(11) 0.70698(12)
C38_48 C 0.40126(11) 0.57314(12) 0.79302(12)
C42_48 C 0.44518(16) 0.60983(15) 0.71112(14)
C43_48 C 0.39017(15) 0.55482(16) 0.78888(14)
H22_48 H 0.4573 0.6081 0.7029
H23_48 H 0.3919 0.5427 0.7971
C47_48 C 0.44460(17) 0.62323(16) 0.72757(15)
C48_48 C 0.37677(16) 0.55540(17) 0.77243(15)
H27_48 H 0.4567 0.6307 0.7313
H28_48 H 0.3693 0.5433 0.7687
C52_48 C 0.42686(16) 0.62596(14) 0.73863(15)
C53_48 C 0.37404(14) 0.57314(16) 0.76137(15)
H32_48 H 0.4270 0.6357 0.7497
H33_48 H 0.3643 0.5730 0.7503
C57_48 C 0.36077(16) 0.51535(15) 0.66627(15)
C58_48 C 0.48465(15) 0.63923(16) 0.83373(15)
H37_48 H 0.3501 0.5052 0.6654
H38_48 H 0.4948 0.6499 0.8346
C62_48 C 0.36135(17) 0.52810(16) 0.68277(17)
C63_48 C 0.47190(16) 0.63865(17) 0.81723(17)
H42_48 H 0.3508 0.5272 0.6930
H43_48 H 0.4728 0.6492 0.8070
C67_48 C 0.37674(15) 0.54220(15) 0.68504(16)
C68_48 C 0.45780(15) 0.62326(15) 0.81496(16)
H47_48 H 0.3771 0.5510 0.6969
H48_48 H 0.4490 0.6229 0.8031
C72_48 C 0.39199(13) 0.54374(12) 0.66995(13)
C73_48 C 0.45626(12) 0.60801(13) 0.83005(13)
C77_48 C 0.39040(12) 0.53082(11) 0.65296(12)
C78_48 C 0.46918(11) 0.60960(12) 0.84704(12)
H52_48 H 0.4005 0.5319 0.6423
H53_48 H 0.4681 0.5995 0.8577
C82_48 C 0.40855(12) 0.55959(11) 0.67125(12)
C83_48 C 0.44041(11) 0.59145(12) 0.82875(12)
C87_48 C 0.42529(12) 0.58455(12) 0.68837(11)
C88_48 C 0.41545(12) 0.57471(12) 0.81163(11)
C92_48 C 0.43565(12) 0.57615(12) 0.65670(12)
C93_48 C 0.42385(12) 0.56435(12) 0.84330(12)
C97_48 C 0.47451(14) 0.58809(15) 0.60594(14)
C98_48 C 0.41191(15) 0.52549(14) 0.89406(14)
H57_48 H 0.4837 0.5907 0.5947
H58_48 H 0.4093 0.5163 0.9053
C102_48 C 0.46110(15) 0.57164(15) 0.60426(15)
C103_48 C 0.42836(15) 0.53890(15) 0.89574(15)
H62_48 H 0.4608 0.5633 0.5921
H63_48 H 0.4367 0.5392 0.9079
C107_48 C 0.44798(14) 0.56749(13) 0.62096(14)
C108_48 C 0.43251(13) 0.55202(14) 0.87904(14)
H67_48 H 0.4385 0.5562 0.6203
H68_48 H 0.4438 0.5615 0.8797
C112_48 C 0.44881(12) 0.57949(12) 0.63804(13)
C113_48 C 0.42051(12) 0.55119(12) 0.86196(13)
C117_48 C 0.46265(11) 0.59679(12) 0.63826(11)
C118_48 C 0.40321(12) 0.53735(11) 0.86174(11)
H72_48 H 0.4627 0.6058 0.6500
H73_48 H 0.3942 0.5373 0.8500
N10_17 N 0.82814(11) 0.90591(12) 0.81390(11)
C20_17 C 0.88835(16) 0.91623(15) 0.76834(14)
H13_17 H 0.8992 0.9146 0.7584
C21_17 C 0.8874(2) 0.93469(17) 0.77980(17)
H14_17 H 0.8967 0.9458 0.7771
C22_17 C 0.87250(16) 0.93620(15) 0.79515(16)
H15_17 H 0.8718 0.9482 0.8036
C23_17 C 0.85869(14) 0.92016(14) 0.79809(13)
C24_17 C 0.86069(13) 0.90262(12) 0.78528(12)
H16_17 H 0.8513 0.8914 0.7873
C25_17 C 0.84275(14) 0.92079(13) 0.81431(13)
N66_17 N 0.81390(11) 0.92186(11) 0.84409(12)
N67_17 N 0.84409(12) 0.93610(11) 0.82814(11)
N68_17 N 0.92186(11) 0.84409(12) 0.81390(11)
N69_17 N 0.93610(11) 0.82814(11) 0.84409(12)
N70_17 N 0.90591(12) 0.81390(11) 0.82814(11)
C122_17 C 0.83377(15) 0.98166(14) 0.88835(16)
C123_17 C 0.76834(14) 0.86165(16) 0.83377(15)
C124_17 C 0.86165(16) 0.83377(15) 0.76834(14)
C125_17 C 0.91623(15) 0.76834(14) 0.88835(16)
C126_17 C 0.98166(14) 0.88835(16) 0.83377(15)
H77_17 H 0.8354 0.9916 0.8992
H78_17 H 0.7584 0.8508 0.8354
H79_17 H 0.8508 0.8354 0.7584
H80_17 H 0.9146 0.7584 0.8992
H81_17 H 0.9916 0.8992 0.8354
C127_17 C 0.81531(17) 0.97020(17) 0.8874(2)
C128_17 C 0.77980(17) 0.8626(2) 0.81531(17)
C129_17 C 0.8626(2) 0.81531(17) 0.77980(17)
C130_17 C 0.93469(17) 0.77980(17) 0.8874(2)
C131_17 C 0.97020(17) 0.8874(2) 0.81531(17)
H82_17 H 0.8042 0.9729 0.8967
H83_17 H 0.7771 0.8533 0.8042
H84_17 H 0.8533 0.8042 0.7771
H85_17 H 0.9458 0.7771 0.8967
H86_17 H 0.9729 0.8967 0.8042
C132_17 C 0.81380(15) 0.95485(16) 0.87250(16)
C133_17 C 0.79515(16) 0.87750(16) 0.81380(15)
C134_17 C 0.87750(16) 0.81380(15) 0.79515(16)
C135_17 C 0.93620(15) 0.79515(16) 0.87250(16)
C136_17 C 0.95485(16) 0.87250(16) 0.81380(15)
H87_17 H 0.8018 0.9464 0.8718
H88_17 H 0.8036 0.8782 0.8018
H89_17 H 0.8782 0.8018 0.8036
H90_17 H 0.9482 0.8036 0.8718
H91_17 H 0.9464 0.8718 0.8018
C137_17 C 0.82984(14) 0.95191(13) 0.85869(14)
C138_17 C 0.79809(13) 0.89131(14) 0.82984(14)
C139_17 C 0.89131(14) 0.82984(14) 0.79809(13)
C140_17 C 0.92016(14) 0.79809(13) 0.85869(14)
C141_17 C 0.95191(13) 0.85869(14) 0.82984(14)
C142_17 C 0.84738(12) 0.96472(12) 0.86069(13)
C143_17 C 0.78528(12) 0.88931(13) 0.84738(12)
C144_17 C 0.88931(13) 0.84738(12) 0.78528(12)
C145_17 C 0.90262(12) 0.78528(12) 0.86069(13)
C146_17 C 0.96472(12) 0.86069(13) 0.84738(12)
H92_17 H 0.8586 0.9627 0.8513
H93_17 H 0.7873 0.8987 0.8586
H94_17 H 0.8987 0.8586 0.7873
H95_17 H 0.8914 0.7873 0.8513
H96_17 H 0.9627 0.8513 0.8586
C147_17 C 0.81431(13) 0.90725(14) 0.82921(13)
C148_17 C 0.82921(13) 0.93569(13) 0.84275(14)
C149_17 C 0.90725(14) 0.82921(13) 0.81431(13)
C150_17 C 0.93569(13) 0.84275(14) 0.82921(13)
C151_17 C 0.92079(13) 0.81431(13) 0.84275(14)
N10_18 N 0.65591(12) 0.57814(11) 0.68610(11)
C20_18 C 0.66623(15) 0.63835(16) 0.73166(14)
H13_18 H 0.6646 0.6492 0.7416
C21_18 C 0.68469(17) 0.6374(2) 0.72020(17)
H14_18 H 0.6958 0.6467 0.7229
C22_18 C 0.68620(15) 0.62250(16) 0.70485(16)
H15_18 H 0.6982 0.6218 0.6964
C23_18 C 0.67016(14) 0.60869(14) 0.70191(13)
C24_18 C 0.65262(12) 0.61069(13) 0.71472(12)
H16_18 H 0.6414 0.6013 0.7127
C25_18 C 0.67079(13) 0.59275(14) 0.68569(13)
N66_18 N 0.67186(11) 0.56390(11) 0.65591(12)
N67_18 N 0.68610(11) 0.59409(12) 0.67186(11)
N68_18 N 0.59409(12) 0.67186(11) 0.68610(11)
N69_18 N 0.57814(11) 0.68610(11) 0.65591(12)
N70_18 N 0.56390(11) 0.65591(12) 0.67186(11)
C122_18 C 0.73166(14) 0.58377(15) 0.61165(16)
C123_18 C 0.61165(16) 0.51834(14) 0.66623(15)
C124_18 C 0.58377(15) 0.61165(16) 0.73166(14)
C125_18 C 0.51834(14) 0.66623(15) 0.61165(16)
C126_18 C 0.63835(16) 0.73166(14) 0.66623(15)
H77_18 H 0.7416 0.5854 0.6008
H78_18 H 0.6008 0.5084 0.6646
H79_18 H 0.5854 0.6008 0.7416
H80_18 H 0.5084 0.6646 0.6008
H81_18 H 0.6492 0.7416 0.6646
C127_18 C 0.72020(17) 0.56531(17) 0.6126(2)
C128_18 C 0.6126(2) 0.52980(17) 0.68469(17)
C129_18 C 0.56531(17) 0.6126(2) 0.72020(17)
C130_18 C 0.52980(17) 0.68469(17) 0.6126(2)
C131_18 C 0.6374(2) 0.72020(17) 0.68469(17)
H82_18 H 0.7229 0.5542 0.6033
H83_18 H 0.6033 0.5271 0.6958
H84_18 H 0.5542 0.6033 0.7229
H85_18 H 0.5271 0.6958 0.6033
H86_18 H 0.6467 0.7229 0.6958
C132_18 C 0.70485(16) 0.56380(15) 0.62750(16)
C133_18 C 0.62750(16) 0.54515(16) 0.68620(15)
C134_18 C 0.56380(15) 0.62750(16) 0.70485(16)
C135_18 C 0.54515(16) 0.68620(15) 0.62750(16)
C136_18 C 0.62250(16) 0.70485(16) 0.68620(15)
H87_18 H 0.6964 0.5518 0.6282
H88_18 H 0.6282 0.5536 0.6982
H89_18 H 0.5518 0.6282 0.6964
H90_18 H 0.5536 0.6982 0.6282
H91_18 H 0.6218 0.6964 0.6982
C137_18 C 0.70191(13) 0.57984(14) 0.64131(14)
C138_18 C 0.64131(14) 0.54809(13) 0.67016(14)
C139_18 C 0.57984(14) 0.64131(14) 0.70191(13)
C140_18 C 0.54809(13) 0.67016(14) 0.64131(14)
C141_18 C 0.60869(14) 0.70191(13) 0.67016(14)
C142_18 C 0.71472(12) 0.59738(12) 0.63931(13)
C143_18 C 0.63931(13) 0.53528(12) 0.65262(12)
C144_18 C 0.59738(12) 0.63931(13) 0.71472(12)
C145_18 C 0.53528(12) 0.65262(12) 0.63931(13)
C146_18 C 0.61069(13) 0.71472(12) 0.65262(12)
H92_18 H 0.7127 0.6086 0.6487
H93_18 H 0.6487 0.5373 0.6414
H94_18 H 0.6086 0.6487 0.7127
H95_18 H 0.5373 0.6414 0.6487
H96_18 H 0.6013 0.7127 0.6414
C147_18 C 0.65725(14) 0.56431(13) 0.67079(13)
C148_18 C 0.68569(13) 0.57921(13) 0.65725(14)
C149_18 C 0.57921(13) 0.65725(14) 0.68569(13)
C150_18 C 0.59275(14) 0.68569(13) 0.67079(13)
C151_18 C 0.56431(13) 0.67079(13) 0.65725(14)
N10_19 N 0.57814(11) 0.18610(11) 0.15591(12)
C20_19 C 0.63835(16) 0.23166(14) 0.16623(15)
H13_19 H 0.6492 0.2416 0.1646
C21_19 C 0.6374(2) 0.22020(17) 0.18469(17)
H14_19 H 0.6467 0.2229 0.1958
C22_19 C 0.62250(16) 0.20485(16) 0.18620(15)
H15_19 H 0.6218 0.1964 0.1982
C23_19 C 0.60869(14) 0.20191(13) 0.17016(14)
C24_19 C 0.61069(13) 0.21472(12) 0.15262(12)
H16_19 H 0.6013 0.2127 0.1414
C25_19 C 0.59275(14) 0.18569(13) 0.17079(13)
N66_19 N 0.56390(11) 0.15591(12) 0.17186(11)
N67_19 N 0.59409(12) 0.17186(11) 0.18610(11)
N68_19 N 0.67186(11) 0.18610(11) 0.09409(12)
N69_19 N 0.68610(11) 0.15591(12) 0.07814(11)
N70_19 N 0.65591(12) 0.17186(11) 0.06390(11)
C122_19 C 0.58377(15) 0.11165(16) 0.23166(14)
C123_19 C 0.51834(14) 0.16623(15) 0.11165(16)
C124_19 C 0.61165(16) 0.23166(14) 0.08377(15)
C125_19 C 0.66623(15) 0.11165(16) 0.01834(14)
C126_19 C 0.73166(14) 0.16623(15) 0.13835(16)
H77_19 H 0.5854 0.1008 0.2416
H78_19 H 0.5084 0.1646 0.1008
H79_19 H 0.6008 0.2416 0.0854
H80_19 H 0.6646 0.1008 0.0084
H81_19 H 0.7416 0.1646 0.1492
C127_19 C 0.56531(17) 0.1126(2) 0.22020(17)
C128_19 C 0.52980(17) 0.18469(17) 0.1126(2)
C129_19 C 0.6126(2) 0.22020(17) 0.06531(17)
C130_19 C 0.68469(17) 0.1126(2) 0.02980(17)
C131_19 C 0.72020(17) 0.18469(17) 0.1374(2)
H82_19 H 0.5542 0.1033 0.2229
H83_19 H 0.5271 0.1958 0.1033
H84_19 H 0.6033 0.2229 0.0542
H85_19 H 0.6958 0.1033 0.0271
H86_19 H 0.7229 0.1958 0.1467
C132_19 C 0.56380(15) 0.12750(16) 0.20485(16)
C133_19 C 0.54515(16) 0.18620(15) 0.12750(16)
C134_19 C 0.62750(16) 0.20485(16) 0.06380(15)
C135_19 C 0.68620(15) 0.12750(16) 0.04515(16)
C136_19 C 0.70485(16) 0.18620(15) 0.12250(16)
H87_19 H 0.5518 0.1282 0.1964
H88_19 H 0.5536 0.1982 0.1282
H89_19 H 0.6282 0.1964 0.0518
H90_19 H 0.6982 0.1282 0.0536
H91_19 H 0.6964 0.1982 0.1218
C137_19 C 0.57984(14) 0.14131(14) 0.20191(13)
C138_19 C 0.54809(13) 0.17016(14) 0.14131(14)
C139_19 C 0.64131(14) 0.20191(13) 0.07984(14)
C140_19 C 0.67016(14) 0.14131(14) 0.04809(13)
C141_19 C 0.70191(13) 0.17016(14) 0.10869(14)
C142_19 C 0.59738(12) 0.13931(13) 0.21472(12)
C143_19 C 0.53528(12) 0.15262(12) 0.13931(13)
C144_19 C 0.63931(13) 0.21472(12) 0.09738(12)
C145_19 C 0.65262(12) 0.13931(13) 0.03528(12)
C146_19 C 0.71472(12) 0.15262(12) 0.11069(13)
H92_19 H 0.6086 0.1487 0.2127
H93_19 H 0.5373 0.1414 0.1487
H94_19 H 0.6487 0.2127 0.1086
H95_19 H 0.6414 0.1487 0.0373
H96_19 H 0.7127 0.1414 0.1013
C147_19 C 0.56431(13) 0.17079(13) 0.15725(14)
C148_19 C 0.57921(13) 0.15725(14) 0.18569(13)
C149_19 C 0.65725(14) 0.18569(13) 0.07921(13)
C150_19 C 0.68569(13) 0.17079(13) 0.09275(14)
C151_19 C 0.67079(13) 0.15725(14) 0.06431(13)
N10_20 N 0.18610(11) 0.65591(12) 0.07814(11)
C20_20 C 0.23166(14) 0.66623(15) 0.13835(16)
H13_20 H 0.2416 0.6646 0.1492
C21_20 C 0.22020(17) 0.68469(17) 0.1374(2)
H14_20 H 0.2229 0.6958 0.1467
C22_20 C 0.20485(16) 0.68620(15) 0.12250(16)
H15_20 H 0.1964 0.6982 0.1218
C23_20 C 0.20191(13) 0.67016(14) 0.10869(14)
C24_20 C 0.21472(12) 0.65262(12) 0.11069(13)
H16_20 H 0.2127 0.6414 0.1013
C25_20 C 0.18569(13) 0.67079(13) 0.09275(14)
N66_20 N 0.15591(12) 0.67186(11) 0.06390(11)
N67_20 N 0.17186(11) 0.68610(11) 0.09409(12)
N68_20 N 0.18610(11) 0.59409(12) 0.17186(11)
N69_20 N 0.15591(12) 0.57814(11) 0.18610(11)
N70_20 N 0.17186(11) 0.56390(11) 0.15591(12)
C122_20 C 0.11165(16) 0.73166(14) 0.08377(15)
C123_20 C 0.16623(15) 0.61165(16) 0.01834(14)
C124_20 C 0.23166(14) 0.58377(15) 0.11165(16)
C125_20 C 0.11165(16) 0.51834(14) 0.16623(15)
C126_20 C 0.16623(15) 0.63835(16) 0.23166(14)
H77_20 H 0.1008 0.7416 0.0854
H78_20 H 0.1646 0.6008 0.0084
H79_20 H 0.2416 0.5854 0.1008
H80_20 H 0.1008 0.5084 0.1646
H81_20 H 0.1646 0.6492 0.2416
C127_20 C 0.1126(2) 0.72020(17) 0.06531(17)
C128_20 C 0.18469(17) 0.6126(2) 0.02980(17)
C129_20 C 0.22020(17) 0.56531(17) 0.1126(2)
C130_20 C 0.1126(2) 0.52980(17) 0.18469(17)
C131_20 C 0.18469(17) 0.6374(2) 0.22020(17)
H82_20 H 0.1033 0.7229 0.0542
H83_20 H 0.1958 0.6033 0.0271
H84_20 H 0.2229 0.5542 0.1033
H85_20 H 0.1033 0.5271 0.1958
H86_20 H 0.1958 0.6467 0.2229
C132_20 C 0.12750(16) 0.70485(16) 0.06380(15)
C133_20 C 0.18620(15) 0.62750(16) 0.04515(16)
C134_20 C 0.20485(16) 0.56380(15) 0.12750(16)
C135_20 C 0.12750(16) 0.54515(16) 0.18620(15)
C136_20 C 0.18620(15) 0.62250(16) 0.20485(16)
H87_20 H 0.1282 0.6964 0.0518
H88_20 H 0.1982 0.6282 0.0536
H89_20 H 0.1964 0.5518 0.1282
H90_20 H 0.1282 0.5536 0.1982
H91_20 H 0.1982 0.6218 0.1964
C137_20 C 0.14131(14) 0.70191(13) 0.07984(14)
C138_20 C 0.17016(14) 0.64131(14) 0.04809(13)
C139_20 C 0.20191(13) 0.57984(14) 0.14131(14)
C140_20 C 0.14131(14) 0.54809(13) 0.17016(14)
C141_20 C 0.17016(14) 0.60869(14) 0.20191(13)
C142_20 C 0.13931(13) 0.71472(12) 0.09738(12)
C143_20 C 0.15262(12) 0.63931(13) 0.03528(12)
C144_20 C 0.21472(12) 0.59738(12) 0.13931(13)
C145_20 C 0.13931(13) 0.53528(12) 0.15262(12)
C146_20 C 0.15262(12) 0.61069(13) 0.21472(12)
H92_20 H 0.1487 0.7127 0.1086
H93_20 H 0.1414 0.6487 0.0373
H94_20 H 0.2127 0.6086 0.1487
H95_20 H 0.1487 0.5373 0.1414
H96_20 H 0.1414 0.6013 0.2127
C147_20 C 0.17079(13) 0.65725(14) 0.06431(13)
C148_20 C 0.15725(14) 0.68569(13) 0.07921(13)
C149_20 C 0.18569(13) 0.57921(13) 0.15725(14)
C150_20 C 0.17079(13) 0.59275(14) 0.18569(13)
C151_20 C 0.15725(14) 0.56431(13) 0.17079(13)
N10_21 N 0.06390(11) 0.65591(12) 0.17186(11)
C20_21 C 0.01834(14) 0.66623(15) 0.11165(16)
H13_21 H 0.0084 0.6646 0.1008
C21_21 C 0.02980(17) 0.68469(17) 0.1126(2)
H14_21 H 0.0271 0.6958 0.1033
C22_21 C 0.04515(16) 0.68620(15) 0.12750(16)
H15_21 H 0.0536 0.6982 0.1282
C23_21 C 0.04809(13) 0.67016(14) 0.14131(14)
C24_21 C 0.03528(12) 0.65262(12) 0.13931(13)
H16_21 H 0.0373 0.6414 0.1487
C25_21 C 0.06431(13) 0.67079(13) 0.15725(14)
N66_21 N 0.09409(12) 0.67186(11) 0.18610(11)
N67_21 N 0.07814(11) 0.68610(11) 0.15591(12)
N68_21 N 0.06390(11) 0.59409(12) 0.07814(11)
N69_21 N 0.09409(12) 0.57814(11) 0.06390(11)
N70_21 N 0.07814(11) 0.56390(11) 0.09409(12)
C122_21 C 0.13835(16) 0.73166(14) 0.16623(15)
C123_21 C 0.08377(15) 0.61165(16) 0.23166(14)
C124_21 C 0.01834(14) 0.58377(15) 0.13835(16)
C125_21 C 0.13835(16) 0.51834(14) 0.08377(15)
C126_21 C 0.08377(15) 0.63835(16) 0.01834(14)
H77_21 H 0.1492 0.7416 0.1646
H78_21 H 0.0854 0.6008 0.2416
H79_21 H 0.0084 0.5854 0.1492
H80_21 H 0.1492 0.5084 0.0854
H81_21 H 0.0854 0.6492 0.0084
C127_21 C 0.1374(2) 0.72020(17) 0.18469(17)
C128_21 C 0.06531(17) 0.6126(2) 0.22020(17)
C129_21 C 0.02980(17) 0.56531(17) 0.1374(2)
C130_21 C 0.1374(2) 0.52980(17) 0.06531(17)
C131_21 C 0.06531(17) 0.6374(2) 0.02980(17)
H82_21 H 0.1467 0.7229 0.1958
H83_21 H 0.0542 0.6033 0.2229
H84_21 H 0.0271 0.5542 0.1467
H85_21 H 0.1467 0.5271 0.0542
H86_21 H 0.0542 0.6467 0.0271
C132_21 C 0.12250(16) 0.70485(16) 0.18620(15)
C133_21 C 0.06380(15) 0.62750(16) 0.20485(16)
C134_21 C 0.04515(16) 0.56380(15) 0.12250(16)
C135_21 C 0.12250(16) 0.54515(16) 0.06380(15)
C136_21 C 0.06380(15) 0.62250(16) 0.04515(16)
H87_21 H 0.1218 0.6964 0.1982
H88_21 H 0.0518 0.6282 0.1964
H89_21 H 0.0536 0.5518 0.1218
H90_21 H 0.1218 0.5536 0.0518
H91_21 H 0.0518 0.6218 0.0536
C137_21 C 0.10869(14) 0.70191(13) 0.17016(14)
C138_21 C 0.07984(14) 0.64131(14) 0.20191(13)
C139_21 C 0.04809(13) 0.57984(14) 0.10869(14)
C140_21 C 0.10869(14) 0.54809(13) 0.07984(14)
C141_21 C 0.07984(14) 0.60869(14) 0.04809(13)
C142_21 C 0.11069(13) 0.71472(12) 0.15262(12)
C143_21 C 0.09738(12) 0.63931(13) 0.21472(12)
C144_21 C 0.03528(12) 0.59738(12) 0.11069(13)
C145_21 C 0.11069(13) 0.53528(12) 0.09738(12)
C146_21 C 0.09738(12) 0.61069(13) 0.03528(12)
H92_21 H 0.1013 0.7127 0.1414
H93_21 H 0.1086 0.6487 0.2127
H94_21 H 0.0373 0.6086 0.1013
H95_21 H 0.1013 0.5373 0.1086
H96_21 H 0.1086 0.6013 0.0373
C147_21 C 0.07921(13) 0.65725(14) 0.18569(13)
C148_21 C 0.09275(14) 0.68569(13) 0.17079(13)
C149_21 C 0.06431(13) 0.57921(13) 0.09275(14)
C150_21 C 0.07921(13) 0.59275(14) 0.06431(13)
C151_21 C 0.09275(14) 0.56431(13) 0.07921(13)
N68_22 N 0.93610(11) 0.92186(11) 0.90591(12)
N69_22 N 0.90591(12) 0.93610(11) 0.92186(11)
N70_22 N 0.92186(11) 0.90591(12) 0.93610(11)
C124_22 C 0.98166(14) 0.86165(16) 0.91623(15)
C125_22 C 0.86165(16) 0.91623(15) 0.98166(14)
C126_22 C 0.91623(15) 0.98166(14) 0.86165(16)
H79_22 H 0.9916 0.8508 0.9146
H80_22 H 0.8508 0.9146 0.9916
H81_22 H 0.9146 0.9916 0.8508
C129_22 C 0.97020(17) 0.8626(2) 0.93469(17)
C130_22 C 0.8626(2) 0.93469(17) 0.97020(17)
C131_22 C 0.93469(17) 0.97020(17) 0.8626(2)
H84_22 H 0.9729 0.8533 0.9458
H85_22 H 0.8533 0.9458 0.9729
H86_22 H 0.9458 0.9729 0.8533
C134_22 C 0.95485(16) 0.87750(16) 0.93620(15)
C135_22 C 0.87750(16) 0.93620(15) 0.95485(16)
C136_22 C 0.93620(15) 0.95485(16) 0.87750(16)
H89_22 H 0.9464 0.8782 0.9482
H90_22 H 0.8782 0.9482 0.9464
H91_22 H 0.9482 0.9464 0.8782
C139_22 C 0.95191(13) 0.89131(14) 0.92016(14)
C140_22 C 0.89131(14) 0.92016(14) 0.95191(13)
C141_22 C 0.92016(14) 0.95191(13) 0.89131(14)
C144_22 C 0.96472(12) 0.88931(13) 0.90262(12)
C145_22 C 0.88931(13) 0.90262(12) 0.96472(12)
C146_22 C 0.90262(12) 0.96472(12) 0.88931(13)
H94_22 H 0.9627 0.8987 0.8914
H95_22 H 0.8987 0.8914 0.9627
H96_22 H 0.8914 0.9627 0.8987
C149_22 C 0.93569(13) 0.90725(14) 0.92079(13)
C150_22 C 0.92079(13) 0.93569(13) 0.90725(14)
C151_22 C 0.90725(14) 0.92079(13) 0.93569(13)
N10_22 N 0.57814(11) 0.06390(11) 0.09409(12)
C20_22 C 0.63835(16) 0.01834(14) 0.08377(15)
H13_22 H 0.6492 0.0084 0.0854
C21_22 C 0.6374(2) 0.02980(17) 0.06531(17)
H14_22 H 0.6467 0.0271 0.0542
C22_22 C 0.62250(16) 0.04515(16) 0.06380(15)
H15_22 H 0.6218 0.0536 0.0518
C23_22 C 0.60869(14) 0.04809(13) 0.07984(14)
C24_22 C 0.61069(13) 0.03528(12) 0.09738(12)
H16_22 H 0.6013 0.0373 0.1086
C25_22 C 0.59275(14) 0.06431(13) 0.07921(13)
N66_22 N 0.56390(11) 0.09409(12) 0.07814(11)
N67_22 N 0.59409(12) 0.07814(11) 0.06390(11)
N68_23 N 0.67186(11) 0.06390(11) 0.15591(12)
N69_23 N 0.68610(11) 0.09409(12) 0.17186(11)
N70_23 N 0.65591(12) 0.07814(11) 0.18610(11)
C122_22 C 0.58377(15) 0.13835(16) 0.01834(14)
C123_22 C 0.51834(14) 0.08377(15) 0.13835(16)
C124_23 C 0.61165(16) 0.01834(14) 0.16623(15)
C125_23 C 0.66623(15) 0.13835(16) 0.23166(14)
C126_23 C 0.73166(14) 0.08377(15) 0.11165(16)
H77_22 H 0.5854 0.1492 0.0084
H78_22 H 0.5084 0.0854 0.1492
H79_23 H 0.6008 0.0084 0.1646
H80_23 H 0.6646 0.1492 0.2416
H81_23 H 0.7416 0.0854 0.1008
C127_22 C 0.56531(17) 0.1374(2) 0.02980(17)
C128_22 C 0.52980(17) 0.06531(17) 0.1374(2)
C129_23 C 0.6126(2) 0.02980(17) 0.18469(17)
C130_23 C 0.68469(17) 0.1374(2) 0.22020(17)
C131_23 C 0.72020(17) 0.06531(17) 0.1126(2)
H82_22 H 0.5542 0.1467 0.0271
H83_22 H 0.5271 0.0542 0.1467
H84_23 H 0.6033 0.0271 0.1958
H85_23 H 0.6958 0.1467 0.2229
H86_23 H 0.7229 0.0542 0.1033
C132_22 C 0.56380(15) 0.12250(16) 0.04515(16)
C133_22 C 0.54515(16) 0.06380(15) 0.12250(16)
C134_23 C 0.62750(16) 0.04515(16) 0.18620(15)
C135_23 C 0.68620(15) 0.12250(16) 0.20485(16)
C136_23 C 0.70485(16) 0.06380(15) 0.12750(16)
H87_22 H 0.5518 0.1218 0.0536
H88_22 H 0.5536 0.0518 0.1218
H89_23 H 0.6282 0.0536 0.1982
H90_23 H 0.6982 0.1218 0.1964
H91_23 H 0.6964 0.0518 0.1282
C137_22 C 0.57984(14) 0.10869(14) 0.04809(13)
C138_22 C 0.54809(13) 0.07984(14) 0.10869(14)
C139_23 C 0.64131(14) 0.04809(13) 0.17016(14)
C140_23 C 0.67016(14) 0.10869(14) 0.20191(13)
C141_23 C 0.70191(13) 0.07984(14) 0.14131(14)
C142_22 C 0.59738(12) 0.11069(13) 0.03528(12)
C143_22 C 0.53528(12) 0.09738(12) 0.11069(13)
C144_23 C 0.63931(13) 0.03528(12) 0.15262(12)
C145_23 C 0.65262(12) 0.11069(13) 0.21472(12)
C146_23 C 0.71472(12) 0.09738(12) 0.13931(13)
H92_22 H 0.6086 0.1013 0.0373
H93_22 H 0.5373 0.1086 0.1013
H94_23 H 0.6487 0.0373 0.1414
H95_23 H 0.6414 0.1013 0.2127
H96_23 H 0.7127 0.1086 0.1487
C147_22 C 0.56431(13) 0.07921(13) 0.09275(14)
C148_22 C 0.57921(13) 0.09275(14) 0.06431(13)
C149_23 C 0.65725(14) 0.06431(13) 0.17079(13)
C150_23 C 0.68569(13) 0.07921(13) 0.15725(14)
C151_23 C 0.67079(13) 0.09275(14) 0.18569(13)
N10_23 N 0.82814(11) 0.84409(12) 0.93610(11)
C20_23 C 0.88835(16) 0.83377(15) 0.98166(14)
H13_23 H 0.8992 0.8354 0.9916
C21_23 C 0.8874(2) 0.81531(17) 0.97020(17)
H14_23 H 0.8967 0.8042 0.9729
C22_23 C 0.87250(16) 0.81380(15) 0.95485(16)
H15_23 H 0.8718 0.8018 0.9464
C23_23 C 0.85869(14) 0.82984(14) 0.95191(13)
C24_23 C 0.86069(13) 0.84738(12) 0.96472(12)
H16_23 H 0.8513 0.8586 0.9627
C25_23 C 0.84275(14) 0.82921(13) 0.93569(13)
N66_23 N 0.81390(11) 0.82814(11) 0.90591(12)
N67_23 N 0.84409(12) 0.81390(11) 0.92186(11)
C122_23 C 0.83377(15) 0.76834(14) 0.86165(16)
C123_23 C 0.76834(14) 0.88835(16) 0.91623(15)
H77_23 H 0.8354 0.7584 0.8508
H78_23 H 0.7584 0.8992 0.9146
C127_23 C 0.81531(17) 0.77980(17) 0.8626(2)
C128_23 C 0.77980(17) 0.8874(2) 0.93469(17)
H82_23 H 0.8042 0.7771 0.8533
H83_23 H 0.7771 0.8967 0.9458
C132_23 C 0.81380(15) 0.79515(16) 0.87750(16)
C133_23 C 0.79515(16) 0.87250(16) 0.93620(15)
H87_23 H 0.8018 0.8036 0.8782
H88_23 H 0.8036 0.8718 0.9482
C137_23 C 0.82984(14) 0.79809(13) 0.89131(14)
C138_23 C 0.79809(13) 0.85869(14) 0.92016(14)
C142_23 C 0.84738(12) 0.78528(12) 0.88931(13)
C143_23 C 0.78528(12) 0.86069(13) 0.90262(12)
H92_23 H 0.8586 0.7873 0.8987
H93_23 H 0.7873 0.8513 0.8914
C147_23 C 0.81431(13) 0.84275(14) 0.92079(13)
C148_23 C 0.82921(13) 0.81431(13) 0.90725(14)
N10_24 N 0.18610(11) 0.09409(12) 0.67186(11)
C20_24 C 0.23166(14) 0.08377(15) 0.61165(16)
H13_24 H 0.2416 0.0854 0.6008
C21_24 C 0.22020(17) 0.06531(17) 0.6126(2)
H14_24 H 0.2229 0.0542 0.6033
C22_24 C 0.20485(16) 0.06380(15) 0.62750(16)
H15_24 H 0.1964 0.0518 0.6282
C23_24 C 0.20191(13) 0.07984(14) 0.64131(14)
C24_24 C 0.21472(12) 0.09738(12) 0.63931(13)
H16_24 H 0.2127 0.1086 0.6487
C25_24 C 0.18569(13) 0.07921(13) 0.65725(14)
N66_24 N 0.15591(12) 0.07814(11) 0.68610(11)
N67_24 N 0.17186(11) 0.06390(11) 0.65591(12)
N68_24 N 0.18610(11) 0.15591(12) 0.57814(11)
N69_24 N 0.15591(12) 0.17186(11) 0.56390(11)
N70_24 N 0.17186(11) 0.18610(11) 0.59409(12)
C122_24 C 0.11165(16) 0.01834(14) 0.66623(15)
C123_24 C 0.16623(15) 0.13835(16) 0.73166(14)
C124_24 C 0.23166(14) 0.16623(15) 0.63835(16)
C125_24 C 0.11165(16) 0.23166(14) 0.58377(15)
C126_24 C 0.16623(15) 0.11165(16) 0.51834(14)
H77_24 H 0.1008 0.0084 0.6646
H78_24 H 0.1646 0.1492 0.7416
H79_24 H 0.2416 0.1646 0.6492
H80_24 H 0.1008 0.2416 0.5854
H81_24 H 0.1646 0.1008 0.5084
C127_24 C 0.1126(2) 0.02980(17) 0.68469(17)
C128_24 C 0.18469(17) 0.1374(2) 0.72020(17)
C129_24 C 0.22020(17) 0.18469(17) 0.6374(2)
C130_24 C 0.1126(2) 0.22020(17) 0.56531(17)
C131_24 C 0.18469(17) 0.1126(2) 0.52980(17)
H82_24 H 0.1033 0.0271 0.6958
H83_24 H 0.1958 0.1467 0.7229
H84_24 H 0.2229 0.1958 0.6467
H85_24 H 0.1033 0.2229 0.5542
H86_24 H 0.1958 0.1033 0.5271
C132_24 C 0.12750(16) 0.04515(16) 0.68620(15)
C133_24 C 0.18620(15) 0.12250(16) 0.70485(16)
C134_24 C 0.20485(16) 0.18620(15) 0.62250(16)
C135_24 C 0.12750(16) 0.20485(16) 0.56380(15)
C136_24 C 0.18620(15) 0.12750(16) 0.54515(16)
H87_24 H 0.1282 0.0536 0.6982
H88_24 H 0.1982 0.1218 0.6964
H89_24 H 0.1964 0.1982 0.6218
H90_24 H 0.1282 0.1964 0.5518
H91_24 H 0.1982 0.1282 0.5536
C137_24 C 0.14131(14) 0.04809(13) 0.67016(14)
C138_24 C 0.17016(14) 0.10869(14) 0.70191(13)
C139_24 C 0.20191(13) 0.17016(14) 0.60869(14)
C140_24 C 0.14131(14) 0.20191(13) 0.57984(14)
C141_24 C 0.17016(14) 0.14131(14) 0.54809(13)
C142_24 C 0.13931(13) 0.03528(12) 0.65262(12)
C143_24 C 0.15262(12) 0.11069(13) 0.71472(12)
C144_24 C 0.21472(12) 0.15262(12) 0.61069(13)
C145_24 C 0.13931(13) 0.21472(12) 0.59738(12)
C146_24 C 0.15262(12) 0.13931(13) 0.53528(12)
H92_24 H 0.1487 0.0373 0.6414
H93_24 H 0.1414 0.1013 0.7127
H94_24 H 0.2127 0.1414 0.6013
H95_24 H 0.1487 0.2127 0.6086
H96_24 H 0.1414 0.1487 0.5373
C147_24 C 0.17079(13) 0.09275(14) 0.68569(13)
C148_24 C 0.15725(14) 0.06431(13) 0.67079(13)
C149_24 C 0.18569(13) 0.17079(13) 0.59275(14)
C150_24 C 0.17079(13) 0.15725(14) 0.56431(13)
C151_24 C 0.15725(14) 0.18569(13) 0.57921(13)
N10_25 N 0.82814(11) 0.40591(12) 0.31390(11)
C20_25 C 0.88835(16) 0.41623(15) 0.26834(14)
H13_25 H 0.8992 0.4146 0.2584
C21_25 C 0.8874(2) 0.43469(17) 0.27980(17)
H14_25 H 0.8967 0.4458 0.2771
C22_25 C 0.87250(16) 0.43620(15) 0.29515(16)
H15_25 H 0.8718 0.4482 0.3036
C23_25 C 0.85869(14) 0.42016(14) 0.29809(13)
C24_25 C 0.86069(13) 0.40262(12) 0.28528(12)
H16_25 H 0.8513 0.3914 0.2873
C25_25 C 0.84275(14) 0.42079(13) 0.31431(13)
N66_25 N 0.81390(11) 0.42186(11) 0.34409(12)
N67_25 N 0.84409(12) 0.43610(11) 0.32814(11)
N68_25 N 0.92186(11) 0.34409(12) 0.31390(11)
N69_25 N 0.93610(11) 0.32814(11) 0.34409(12)
N70_25 N 0.90591(12) 0.31390(11) 0.32814(11)
C122_25 C 0.83377(15) 0.48166(14) 0.38835(16)
C123_25 C 0.76834(14) 0.36165(16) 0.33377(15)
C124_25 C 0.86165(16) 0.33377(15) 0.26834(14)
C125_25 C 0.91623(15) 0.26834(14) 0.38835(16)
C126_25 C 0.98166(14) 0.38835(16) 0.33377(15)
H77_25 H 0.8354 0.4916 0.3992
H78_25 H 0.7584 0.3508 0.3354
H79_25 H 0.8508 0.3354 0.2584
H80_25 H 0.9146 0.2584 0.3992
H81_25 H 0.9916 0.3992 0.3354
C127_25 C 0.81531(17) 0.47020(17) 0.3874(2)
C128_25 C 0.77980(17) 0.3626(2) 0.31531(17)
C129_25 C 0.8626(2) 0.31531(17) 0.27980(17)
C130_25 C 0.93469(17) 0.27980(17) 0.3874(2)
C131_25 C 0.97020(17) 0.3874(2) 0.31531(17)
H82_25 H 0.8042 0.4729 0.3967
H83_25 H 0.7771 0.3533 0.3042
H84_25 H 0.8533 0.3042 0.2771
H85_25 H 0.9458 0.2771 0.3967
H86_25 H 0.9729 0.3967 0.3042
C132_25 C 0.81380(15) 0.45485(16) 0.37250(16)
C133_25 C 0.79515(16) 0.37750(16) 0.31380(15)
C134_25 C 0.87750(16) 0.31380(15) 0.29515(16)
C135_25 C 0.93620(15) 0.29515(16) 0.37250(16)
C136_25 C 0.95485(16) 0.37250(16) 0.31380(15)
H87_25 H 0.8018 0.4464 0.3718
H88_25 H 0.8036 0.3782 0.3018
H89_25 H 0.8782 0.3018 0.3036
H90_25 H 0.9482 0.3036 0.3718
H91_25 H 0.9464 0.3718 0.3018
C137_25 C 0.82984(14) 0.45191(13) 0.35869(14)
C138_25 C 0.79809(13) 0.39131(14) 0.32984(14)
C139_25 C 0.89131(14) 0.32984(14) 0.29809(13)
C140_25 C 0.92016(14) 0.29809(13) 0.35869(14)
C141_25 C 0.95191(13) 0.35869(14) 0.32984(14)
C142_25 C 0.84738(12) 0.46472(12) 0.36069(13)
C143_25 C 0.78528(12) 0.38931(13) 0.34738(12)
C144_25 C 0.88931(13) 0.34738(12) 0.28528(12)
C145_25 C 0.90262(12) 0.28528(12) 0.36069(13)
C146_25 C 0.96472(12) 0.36069(13) 0.34738(12)
H92_25 H 0.8586 0.4627 0.3513
H93_25 H 0.7873 0.3987 0.3586
H94_25 H 0.8987 0.3586 0.2873
H95_25 H 0.8914 0.2873 0.3513
H96_25 H 0.9627 0.3513 0.3586
C147_25 C 0.81431(13) 0.40725(14) 0.32921(13)
C148_25 C 0.82921(13) 0.43569(13) 0.34275(14)
C149_25 C 0.90725(14) 0.32921(13) 0.31431(13)
C150_25 C 0.93569(13) 0.34275(14) 0.32921(13)
C151_25 C 0.92079(13) 0.31431(13) 0.34275(14)
N68_26 N 0.67186(11) 0.68610(11) 0.59409(12)
N69_26 N 0.68610(11) 0.65591(12) 0.57814(11)
N70_26 N 0.65591(12) 0.67186(11) 0.56390(11)
C124_26 C 0.61165(16) 0.73166(14) 0.58377(15)
C125_26 C 0.66623(15) 0.61165(16) 0.51834(14)
C126_26 C 0.73166(14) 0.66623(15) 0.63835(16)
H79_26 H 0.6008 0.7416 0.5854
H80_26 H 0.6646 0.6008 0.5084
H81_26 H 0.7416 0.6646 0.6492
C129_26 C 0.6126(2) 0.72020(17) 0.56531(17)
C130_26 C 0.68469(17) 0.6126(2) 0.52980(17)
C131_26 C 0.72020(17) 0.68469(17) 0.6374(2)
H84_26 H 0.6033 0.7229 0.5542
H85_26 H 0.6958 0.6033 0.5271
H86_26 H 0.7229 0.6958 0.6467
C134_26 C 0.62750(16) 0.70485(16) 0.56380(15)
C135_26 C 0.68620(15) 0.62750(16) 0.54515(16)
C136_26 C 0.70485(16) 0.68620(15) 0.62250(16)
H89_26 H 0.6282 0.6964 0.5518
H90_26 H 0.6982 0.6282 0.5536
H91_26 H 0.6964 0.6982 0.6218
C139_26 C 0.64131(14) 0.70191(13) 0.57984(14)
C140_26 C 0.67016(14) 0.64131(14) 0.54809(13)
C141_26 C 0.70191(13) 0.67016(14) 0.60869(14)
C144_26 C 0.63931(13) 0.71472(12) 0.59738(12)
C145_26 C 0.65262(12) 0.63931(13) 0.53528(12)
C146_26 C 0.71472(12) 0.65262(12) 0.61069(13)
H94_26 H 0.6487 0.7127 0.6086
H95_26 H 0.6414 0.6487 0.5373
H96_26 H 0.7127 0.6414 0.6013
C149_26 C 0.65725(14) 0.68569(13) 0.57921(13)
C150_26 C 0.68569(13) 0.67079(13) 0.59275(14)
C151_26 C 0.67079(13) 0.65725(14) 0.56431(13)
N10_26 N 0.06390(11) 0.15591(12) 0.67186(11)
C20_26 C 0.01834(14) 0.16623(15) 0.61165(16)
H13_26 H 0.0084 0.1646 0.6008
C21_26 C 0.02980(17) 0.18469(17) 0.6126(2)
H14_26 H 0.0271 0.1958 0.6033
C22_26 C 0.04515(16) 0.18620(15) 0.62750(16)
H15_26 H 0.0536 0.1982 0.6282
C23_26 C 0.04809(13) 0.17016(14) 0.64131(14)
C24_26 C 0.03528(12) 0.15262(12) 0.63931(13)
H16_26 H 0.0373 0.1414 0.6487
C25_26 C 0.06431(13) 0.17079(13) 0.65725(14)
N66_26 N 0.09409(12) 0.17186(11) 0.68610(11)
N67_26 N 0.07814(11) 0.18610(11) 0.65591(12)
N68_27 N 0.06390(11) 0.09409(12) 0.57814(11)
N69_27 N 0.09409(12) 0.07814(11) 0.56390(11)
N70_27 N 0.07814(11) 0.06390(11) 0.59409(12)
C122_26 C 0.13835(16) 0.23166(14) 0.66623(15)
C123_26 C 0.08377(15) 0.11165(16) 0.73166(14)
C124_27 C 0.01834(14) 0.08377(15) 0.63835(16)
C125_27 C 0.13835(16) 0.01834(14) 0.58377(15)
C126_27 C 0.08377(15) 0.13835(16) 0.51834(14)
H77_26 H 0.1492 0.2416 0.6646
H78_26 H 0.0854 0.1008 0.7416
H79_27 H 0.0084 0.0854 0.6492
H80_27 H 0.1492 0.0084 0.5854
H81_27 H 0.0854 0.1492 0.5084
C127_26 C 0.1374(2) 0.22020(17) 0.68469(17)
C128_26 C 0.06531(17) 0.1126(2) 0.72020(17)
C129_27 C 0.02980(17) 0.06531(17) 0.6374(2)
C130_27 C 0.1374(2) 0.02980(17) 0.56531(17)
C131_27 C 0.06531(17) 0.1374(2) 0.52980(17)
H82_26 H 0.1467 0.2229 0.6958
H83_26 H 0.0542 0.1033 0.7229
H84_27 H 0.0271 0.0542 0.6467
H85_27 H 0.1467 0.0271 0.5542
H86_27 H 0.0542 0.1467 0.5271
C132_26 C 0.12250(16) 0.20485(16) 0.68620(15)
C133_26 C 0.06380(15) 0.12750(16) 0.70485(16)
C134_27 C 0.04515(16) 0.06380(15) 0.62250(16)
C135_27 C 0.12250(16) 0.04515(16) 0.56380(15)
C136_27 C 0.06380(15) 0.12250(16) 0.54515(16)
H87_26 H 0.1218 0.1964 0.6982
H88_26 H 0.0518 0.1282 0.6964
H89_27 H 0.0536 0.0518 0.6218
H90_27 H 0.1218 0.0536 0.5518
H91_27 H 0.0518 0.1218 0.5536
C137_26 C 0.10869(14) 0.20191(13) 0.67016(14)
C138_26 C 0.07984(14) 0.14131(14) 0.70191(13)
C139_27 C 0.04809(13) 0.07984(14) 0.60869(14)
C140_27 C 0.10869(14) 0.04809(13) 0.57984(14)
C141_27 C 0.07984(14) 0.10869(14) 0.54809(13)
C142_26 C 0.11069(13) 0.21472(12) 0.65262(12)
C143_26 C 0.09738(12) 0.13931(13) 0.71472(12)
C144_27 C 0.03528(12) 0.09738(12) 0.61069(13)
C145_27 C 0.11069(13) 0.03528(12) 0.59738(12)
C146_27 C 0.09738(12) 0.11069(13) 0.53528(12)
H92_26 H 0.1013 0.2127 0.6414
H93_26 H 0.1086 0.1487 0.7127
H94_27 H 0.0373 0.1086 0.6013
H95_27 H 0.1013 0.0373 0.6086
H96_27 H 0.1086 0.1013 0.5373
C147_26 C 0.07921(13) 0.15725(14) 0.68569(13)
C148_26 C 0.09275(14) 0.18569(13) 0.67079(13)
C149_27 C 0.06431(13) 0.07921(13) 0.59275(14)
C150_27 C 0.07921(13) 0.09275(14) 0.56431(13)
C151_27 C 0.09275(14) 0.06431(13) 0.57921(13)
N68_28 N 0.93610(11) 0.42186(11) 0.40591(12)
N69_28 N 0.90591(12) 0.43610(11) 0.42186(11)
N70_28 N 0.92186(11) 0.40591(12) 0.43610(11)
C124_28 C 0.98166(14) 0.36165(16) 0.41623(15)
C125_28 C 0.86165(16) 0.41623(15) 0.48166(14)
C126_28 C 0.91623(15) 0.48166(14) 0.36165(16)
H79_28 H 0.9916 0.3508 0.4146
H80_28 H 0.8508 0.4146 0.4916
H81_28 H 0.9146 0.4916 0.3508
C129_28 C 0.97020(17) 0.3626(2) 0.43469(17)
C130_28 C 0.8626(2) 0.43469(17) 0.47020(17)
C131_28 C 0.93469(17) 0.47020(17) 0.3626(2)
H84_28 H 0.9729 0.3533 0.4458
H85_28 H 0.8533 0.4458 0.4729
H86_28 H 0.9458 0.4729 0.3533
C134_28 C 0.95485(16) 0.37750(16) 0.43620(15)
C135_28 C 0.87750(16) 0.43620(15) 0.45485(16)
C136_28 C 0.93620(15) 0.45485(16) 0.37750(16)
H89_28 H 0.9464 0.3782 0.4482
H90_28 H 0.8782 0.4482 0.4464
H91_28 H 0.9482 0.4464 0.3782
C139_28 C 0.95191(13) 0.39131(14) 0.42016(14)
C140_28 C 0.89131(14) 0.42016(14) 0.45191(13)
C141_28 C 0.92016(14) 0.45191(13) 0.39131(14)
C144_28 C 0.96472(12) 0.38931(13) 0.40262(12)
C145_28 C 0.88931(13) 0.40262(12) 0.46472(12)
C146_28 C 0.90262(12) 0.46472(12) 0.38931(13)
H94_28 H 0.9627 0.3987 0.3914
H95_28 H 0.8987 0.3914 0.4627
H96_28 H 0.8914 0.4627 0.3987
C149_28 C 0.93569(13) 0.40725(14) 0.42079(13)
C150_28 C 0.92079(13) 0.43569(13) 0.40725(14)
C151_28 C 0.90725(14) 0.42079(13) 0.43569(13)
N10_27 N 0.57814(11) 0.56390(11) 0.59409(12)
C20_27 C 0.63835(16) 0.51834(14) 0.58377(15)
H13_27 H 0.6492 0.5084 0.5854
C21_27 C 0.6374(2) 0.52980(17) 0.56531(17)
H14_27 H 0.6467 0.5271 0.5542
C22_27 C 0.62250(16) 0.54515(16) 0.56380(15)
H15_27 H 0.6218 0.5536 0.5518
C23_27 C 0.60869(14) 0.54809(13) 0.57984(14)
C24_27 C 0.61069(13) 0.53528(12) 0.59738(12)
H16_27 H 0.6013 0.5373 0.6086
C25_27 C 0.59275(14) 0.56431(13) 0.57921(13)
N66_27 N 0.56390(11) 0.59409(12) 0.57814(11)
N67_27 N 0.59409(12) 0.57814(11) 0.56390(11)
C122_27 C 0.58377(15) 0.63835(16) 0.51834(14)
C123_27 C 0.51834(14) 0.58377(15) 0.63835(16)
H77_27 H 0.5854 0.6492 0.5084
H78_27 H 0.5084 0.5854 0.6492
C127_27 C 0.56531(17) 0.6374(2) 0.52980(17)
C128_27 C 0.52980(17) 0.56531(17) 0.6374(2)
H82_27 H 0.5542 0.6467 0.5271
H83_27 H 0.5271 0.5542 0.6467
C132_27 C 0.56380(15) 0.62250(16) 0.54515(16)
C133_27 C 0.54515(16) 0.56380(15) 0.62250(16)
H87_27 H 0.5518 0.6218 0.5536
H88_27 H 0.5536 0.5518 0.6218
C137_27 C 0.57984(14) 0.60869(14) 0.54809(13)
C138_27 C 0.54809(13) 0.57984(14) 0.60869(14)
C142_27 C 0.59738(12) 0.61069(13) 0.53528(12)
C143_27 C 0.53528(12) 0.59738(12) 0.61069(13)
H92_27 H 0.6086 0.6013 0.5373
H93_27 H 0.5373 0.6086 0.6013
C147_27 C 0.56431(13) 0.57921(13) 0.59275(14)
C148_27 C 0.57921(13) 0.59275(14) 0.56431(13)
N10_28 N 0.82814(11) 0.34409(12) 0.43610(11)
C20_28 C 0.88835(16) 0.33377(15) 0.48166(14)
H13_28 H 0.8992 0.3354 0.4916
C21_28 C 0.8874(2) 0.31531(17) 0.47020(17)
H14_28 H 0.8967 0.3042 0.4729
C22_28 C 0.87250(16) 0.31380(15) 0.45485(16)
H15_28 H 0.8718 0.3018 0.4464
C23_28 C 0.85869(14) 0.32984(14) 0.45191(13)
C24_28 C 0.86069(13) 0.34738(12) 0.46472(12)
H16_28 H 0.8513 0.3586 0.4627
C25_28 C 0.84275(14) 0.32921(13) 0.43569(13)
N66_28 N 0.81390(11) 0.32814(11) 0.40591(12)
N67_28 N 0.84409(12) 0.31390(11) 0.42186(11)
C122_28 C 0.83377(15) 0.26834(14) 0.36165(16)
C123_28 C 0.76834(14) 0.38835(16) 0.41623(15)
H77_28 H 0.8354 0.2584 0.3508
H78_28 H 0.7584 0.3992 0.4146
C127_28 C 0.81531(17) 0.27980(17) 0.3626(2)
C128_28 C 0.77980(17) 0.3874(2) 0.43469(17)
H82_28 H 0.8042 0.2771 0.3533
H83_28 H 0.7771 0.3967 0.4458
C132_28 C 0.81380(15) 0.29515(16) 0.37750(16)
C133_28 C 0.79515(16) 0.37250(16) 0.43620(15)
H87_28 H 0.8018 0.3036 0.3782
H88_28 H 0.8036 0.3718 0.4482
C137_28 C 0.82984(14) 0.29809(13) 0.39131(14)
C138_28 C 0.79809(13) 0.35869(14) 0.42016(14)
C142_28 C 0.84738(12) 0.28528(12) 0.38931(13)
C143_28 C 0.78528(12) 0.36069(13) 0.40262(12)
H92_28 H 0.8586 0.2873 0.3987
H93_28 H 0.7873 0.3513 0.3914
C147_28 C 0.81431(13) 0.34275(14) 0.42079(13)
C148_28 C 0.82921(13) 0.31431(13) 0.40725(14)
N10_29 N 0.32814(11) 0.90591(12) 0.31390(11)
C20_29 C 0.38835(16) 0.91623(15) 0.26834(14)
H13_29 H 0.3992 0.9146 0.2584
C21_29 C 0.3874(2) 0.93469(17) 0.27980(17)
H14_29 H 0.3967 0.9458 0.2771
C22_29 C 0.37250(16) 0.93620(15) 0.29515(16)
H15_29 H 0.3718 0.9482 0.3036
C23_29 C 0.35869(14) 0.92016(14) 0.29809(13)
C24_29 C 0.36069(13) 0.90262(12) 0.28528(12)
H16_29 H 0.3513 0.8914 0.2873
C25_29 C 0.34275(14) 0.92079(13) 0.31431(13)
N66_29 N 0.31390(11) 0.92186(11) 0.34409(12)
N67_29 N 0.34409(12) 0.93610(11) 0.32814(11)
N68_29 N 0.42186(11) 0.84409(12) 0.31390(11)
N69_29 N 0.43610(11) 0.82814(11) 0.34409(12)
N70_29 N 0.40591(12) 0.81390(11) 0.32814(11)
C122_29 C 0.33377(15) 0.98166(14) 0.38835(16)
C123_29 C 0.26834(14) 0.86165(16) 0.33377(15)
C124_29 C 0.36165(16) 0.83377(15) 0.26834(14)
C125_29 C 0.41623(15) 0.76834(14) 0.38835(16)
C126_29 C 0.48166(14) 0.88835(16) 0.33377(15)
H77_29 H 0.3354 0.9916 0.3992
H78_29 H 0.2584 0.8508 0.3354
H79_29 H 0.3508 0.8354 0.2584
H80_29 H 0.4146 0.7584 0.3992
H81_29 H 0.4916 0.8992 0.3354
C127_29 C 0.31531(17) 0.97020(17) 0.3874(2)
C128_29 C 0.27980(17) 0.8626(2) 0.31531(17)
C129_29 C 0.3626(2) 0.81531(17) 0.27980(17)
C130_29 C 0.43469(17) 0.77980(17) 0.3874(2)
C131_29 C 0.47020(17) 0.8874(2) 0.31531(17)
H82_29 H 0.3042 0.9729 0.3967
H83_29 H 0.2771 0.8533 0.3042
H84_29 H 0.3533 0.8042 0.2771
H85_29 H 0.4458 0.7771 0.3967
H86_29 H 0.4729 0.8967 0.3042
C132_29 C 0.31380(15) 0.95485(16) 0.37250(16)
C133_29 C 0.29515(16) 0.87750(16) 0.31380(15)
C134_29 C 0.37750(16) 0.81380(15) 0.29515(16)
C135_29 C 0.43620(15) 0.79515(16) 0.37250(16)
C136_29 C 0.45485(16) 0.87250(16) 0.31380(15)
H87_29 H 0.3018 0.9464 0.3718
H88_29 H 0.3036 0.8782 0.3018
H89_29 H 0.3782 0.8018 0.3036
H90_29 H 0.4482 0.8036 0.3718
H91_29 H 0.4464 0.8718 0.3018
C137_29 C 0.32984(14) 0.95191(13) 0.35869(14)
C138_29 C 0.29809(13) 0.89131(14) 0.32984(14)
C139_29 C 0.39131(14) 0.82984(14) 0.29809(13)
C140_29 C 0.42016(14) 0.79809(13) 0.35869(14)
C141_29 C 0.45191(13) 0.85869(14) 0.32984(14)
C142_29 C 0.34738(12) 0.96472(12) 0.36069(13)
C143_29 C 0.28528(12) 0.88931(13) 0.34738(12)
C144_29 C 0.38931(13) 0.84738(12) 0.28528(12)
C145_29 C 0.40262(12) 0.78528(12) 0.36069(13)
C146_29 C 0.46472(12) 0.86069(13) 0.34738(12)
H92_29 H 0.3586 0.9627 0.3513
H93_29 H 0.2873 0.8987 0.3586
H94_29 H 0.3987 0.8586 0.2873
H95_29 H 0.3914 0.7873 0.3513
H96_29 H 0.4627 0.8513 0.3586
C147_29 C 0.31431(13) 0.90725(14) 0.32921(13)
C148_29 C 0.32921(13) 0.93569(13) 0.34275(14)
C149_29 C 0.40725(14) 0.82921(13) 0.31431(13)
C150_29 C 0.43569(13) 0.84275(14) 0.32921(13)
C151_29 C 0.42079(13) 0.81431(13) 0.34275(14)
N68_30 N 0.43610(11) 0.92186(11) 0.40591(12)
N69_30 N 0.40591(12) 0.93610(11) 0.42186(11)
N70_30 N 0.42186(11) 0.90591(12) 0.43610(11)
C124_30 C 0.48166(14) 0.86165(16) 0.41623(15)
C125_30 C 0.36165(16) 0.91623(15) 0.48166(14)
C126_30 C 0.41623(15) 0.98166(14) 0.36165(16)
H79_30 H 0.4916 0.8508 0.4146
H80_30 H 0.3508 0.9146 0.4916
H81_30 H 0.4146 0.9916 0.3508
C129_30 C 0.47020(17) 0.8626(2) 0.43469(17)
C130_30 C 0.3626(2) 0.93469(17) 0.47020(17)
C131_30 C 0.43469(17) 0.97020(17) 0.3626(2)
H84_30 H 0.4729 0.8533 0.4458
H85_30 H 0.3533 0.9458 0.4729
H86_30 H 0.4458 0.9729 0.3533
C134_30 C 0.45485(16) 0.87750(16) 0.43620(15)
C135_30 C 0.37750(16) 0.93620(15) 0.45485(16)
C136_30 C 0.43620(15) 0.95485(16) 0.37750(16)
H89_30 H 0.4464 0.8782 0.4482
H90_30 H 0.3782 0.9482 0.4464
H91_30 H 0.4482 0.9464 0.3782
C139_30 C 0.45191(13) 0.89131(14) 0.42016(14)
C140_30 C 0.39131(14) 0.92016(14) 0.45191(13)
C141_30 C 0.42016(14) 0.95191(13) 0.39131(14)
C144_30 C 0.46472(12) 0.88931(13) 0.40262(12)
C145_30 C 0.38931(13) 0.90262(12) 0.46472(12)
C146_30 C 0.40262(12) 0.96472(12) 0.38931(13)
H94_30 H 0.4627 0.8987 0.3914
H95_30 H 0.3987 0.8914 0.4627
H96_30 H 0.3914 0.9627 0.3987
C149_30 C 0.43569(13) 0.90725(14) 0.42079(13)
C150_30 C 0.42079(13) 0.93569(13) 0.40725(14)
C151_30 C 0.40725(14) 0.92079(13) 0.43569(13)
N10_30 N 0.32814(11) 0.84409(12) 0.43610(11)
C20_30 C 0.38835(16) 0.83377(15) 0.48166(14)
H13_30 H 0.3992 0.8354 0.4916
C21_30 C 0.3874(2) 0.81531(17) 0.47020(17)
H14_30 H 0.3967 0.8042 0.4729
C22_30 C 0.37250(16) 0.81380(15) 0.45485(16)
H15_30 H 0.3718 0.8018 0.4464
C23_30 C 0.35869(14) 0.82984(14) 0.45191(13)
C24_30 C 0.36069(13) 0.84738(12) 0.46472(12)
H16_30 H 0.3513 0.8586 0.4627
C25_30 C 0.34275(14) 0.82921(13) 0.43569(13)
N66_30 N 0.31390(11) 0.82814(11) 0.40591(12)
N67_30 N 0.34409(12) 0.81390(11) 0.42186(11)
C122_30 C 0.33377(15) 0.76834(14) 0.36165(16)
C123_30 C 0.26834(14) 0.88835(16) 0.41623(15)
H77_30 H 0.3354 0.7584 0.3508
H78_30 H 0.2584 0.8992 0.4146
C127_30 C 0.31531(17) 0.77980(17) 0.3626(2)
C128_30 C 0.27980(17) 0.8874(2) 0.43469(17)
H82_30 H 0.3042 0.7771 0.3533
H83_30 H 0.2771 0.8967 0.4458
C132_30 C 0.31380(15) 0.79515(16) 0.37750(16)
C133_30 C 0.29515(16) 0.87250(16) 0.43620(15)
H87_30 H 0.3018 0.8036 0.3782
H88_30 H 0.3036 0.8718 0.4482
C137_30 C 0.32984(14) 0.79809(13) 0.39131(14)
C138_30 C 0.29809(13) 0.85869(14) 0.42016(14)
C142_30 C 0.34738(12) 0.78528(12) 0.38931(13)
C143_30 C 0.28528(12) 0.86069(13) 0.40262(12)
H92_30 H 0.3586 0.7873 0.3987
H93_30 H 0.2873 0.8513 0.3914
C147_30 C 0.31431(13) 0.84275(14) 0.42079(13)
C148_30 C 0.32921(13) 0.81431(13) 0.40725(14)
N10_31 N 0.32814(11) 0.40591(12) 0.81390(11)
C20_31 C 0.38835(16) 0.41623(15) 0.76834(14)
H13_31 H 0.3992 0.4146 0.7584
C21_31 C 0.3874(2) 0.43469(17) 0.77980(17)
H14_31 H 0.3967 0.4458 0.7771
C22_31 C 0.37250(16) 0.43620(15) 0.79515(16)
H15_31 H 0.3718 0.4482 0.8036
C23_31 C 0.35869(14) 0.42016(14) 0.79809(13)
C24_31 C 0.36069(13) 0.40262(12) 0.78528(12)
H16_31 H 0.3513 0.3914 0.7873
C25_31 C 0.34275(14) 0.42079(13) 0.81431(13)
N66_31 N 0.31390(11) 0.42186(11) 0.84409(12)
N67_31 N 0.34409(12) 0.43610(11) 0.82814(11)
N68_31 N 0.42186(11) 0.34409(12) 0.81390(11)
N69_31 N 0.43610(11) 0.32814(11) 0.84409(12)
N70_31 N 0.40591(12) 0.31390(11) 0.82814(11)
C122_31 C 0.33377(15) 0.48166(14) 0.88835(16)
C123_31 C 0.26834(14) 0.36165(16) 0.83377(15)
C124_31 C 0.36165(16) 0.33377(15) 0.76834(14)
C125_31 C 0.41623(15) 0.26834(14) 0.88835(16)
C126_31 C 0.48166(14) 0.38835(16) 0.83377(15)
H77_31 H 0.3354 0.4916 0.8992
H78_31 H 0.2584 0.3508 0.8354
H79_31 H 0.3508 0.3354 0.7584
H80_31 H 0.4146 0.2584 0.8992
H81_31 H 0.4916 0.3992 0.8354
C127_31 C 0.31531(17) 0.47020(17) 0.8874(2)
C128_31 C 0.27980(17) 0.3626(2) 0.81531(17)
C129_31 C 0.3626(2) 0.31531(17) 0.77980(17)
C130_31 C 0.43469(17) 0.27980(17) 0.8874(2)
C131_31 C 0.47020(17) 0.3874(2) 0.81531(17)
H82_31 H 0.3042 0.4729 0.8967
H83_31 H 0.2771 0.3533 0.8042
H84_31 H 0.3533 0.3042 0.7771
H85_31 H 0.4458 0.2771 0.8967
H86_31 H 0.4729 0.3967 0.8042
C132_31 C 0.31380(15) 0.45485(16) 0.87250(16)
C133_31 C 0.29515(16) 0.37750(16) 0.81380(15)
C134_31 C 0.37750(16) 0.31380(15) 0.79515(16)
C135_31 C 0.43620(15) 0.29515(16) 0.87250(16)
C136_31 C 0.45485(16) 0.37250(16) 0.81380(15)
H87_31 H 0.3018 0.4464 0.8718
H88_31 H 0.3036 0.3782 0.8018
H89_31 H 0.3782 0.3018 0.8036
H90_31 H 0.4482 0.3036 0.8718
H91_31 H 0.4464 0.3718 0.8018
C137_31 C 0.32984(14) 0.45191(13) 0.85869(14)
C138_31 C 0.29809(13) 0.39131(14) 0.82984(14)
C139_31 C 0.39131(14) 0.32984(14) 0.79809(13)
C140_31 C 0.42016(14) 0.29809(13) 0.85869(14)
C141_31 C 0.45191(13) 0.35869(14) 0.82984(14)
C142_31 C 0.34738(12) 0.46472(12) 0.86069(13)
C143_31 C 0.28528(12) 0.38931(13) 0.84738(12)
C144_31 C 0.38931(13) 0.34738(12) 0.78528(12)
C145_31 C 0.40262(12) 0.28528(12) 0.86069(13)
C146_31 C 0.46472(12) 0.36069(13) 0.84738(12)
H92_31 H 0.3586 0.4627 0.8513
H93_31 H 0.2873 0.3987 0.8586
H94_31 H 0.3987 0.3586 0.7873
H95_31 H 0.3914 0.2873 0.8513
H96_31 H 0.4627 0.3513 0.8586
C147_31 C 0.31431(13) 0.40725(14) 0.82921(13)
C148_31 C 0.32921(13) 0.43569(13) 0.84275(14)
C149_31 C 0.40725(14) 0.32921(13) 0.81431(13)
C150_31 C 0.43569(13) 0.34275(14) 0.82921(13)
C151_31 C 0.42079(13) 0.31431(13) 0.84275(14)
N68_32 N 0.43610(11) 0.42186(11) 0.90591(12)
N69_32 N 0.40591(12) 0.43610(11) 0.92186(11)
N70_32 N 0.42186(11) 0.40591(12) 0.93610(11)
C124_32 C 0.48166(14) 0.36165(16) 0.91623(15)
C125_32 C 0.36165(16) 0.41623(15) 0.98166(14)
C126_32 C 0.41623(15) 0.48166(14) 0.86165(16)
H79_32 H 0.4916 0.3508 0.9146
H80_32 H 0.3508 0.4146 0.9916
H81_32 H 0.4146 0.4916 0.8508
C129_32 C 0.47020(17) 0.3626(2) 0.93469(17)
C130_32 C 0.3626(2) 0.43469(17) 0.97020(17)
C131_32 C 0.43469(17) 0.47020(17) 0.8626(2)
H84_32 H 0.4729 0.3533 0.9458
H85_32 H 0.3533 0.4458 0.9729
H86_32 H 0.4458 0.4729 0.8533
C134_32 C 0.45485(16) 0.37750(16) 0.93620(15)
C135_32 C 0.37750(16) 0.43620(15) 0.95485(16)
C136_32 C 0.43620(15) 0.45485(16) 0.87750(16)
H89_32 H 0.4464 0.3782 0.9482
H90_32 H 0.3782 0.4482 0.9464
H91_32 H 0.4482 0.4464 0.8782
C139_32 C 0.45191(13) 0.39131(14) 0.92016(14)
C140_32 C 0.39131(14) 0.42016(14) 0.95191(13)
C141_32 C 0.42016(14) 0.45191(13) 0.89131(14)
C144_32 C 0.46472(12) 0.38931(13) 0.90262(12)
C145_32 C 0.38931(13) 0.40262(12) 0.96472(12)
C146_32 C 0.40262(12) 0.46472(12) 0.88931(13)
H94_32 H 0.4627 0.3987 0.8914
H95_32 H 0.3987 0.3914 0.9627
H96_32 H 0.3914 0.4627 0.8987
C149_32 C 0.43569(13) 0.40725(14) 0.92079(13)
C150_32 C 0.42079(13) 0.43569(13) 0.90725(14)
C151_32 C 0.40725(14) 0.42079(13) 0.93569(13)
N10_32 N 0.32814(11) 0.34409(12) 0.93610(11)
C20_32 C 0.38835(16) 0.33377(15) 0.98166(14)
H13_32 H 0.3992 0.3354 0.9916
C21_32 C 0.3874(2) 0.31531(17) 0.97020(17)
H14_32 H 0.3967 0.3042 0.9729
C22_32 C 0.37250(16) 0.31380(15) 0.95485(16)
H15_32 H 0.3718 0.3018 0.9464
C23_32 C 0.35869(14) 0.32984(14) 0.95191(13)
C24_32 C 0.36069(13) 0.34738(12) 0.96472(12)
H16_32 H 0.3513 0.3586 0.9627
C25_32 C 0.34275(14) 0.32921(13) 0.93569(13)
N66_32 N 0.31390(11) 0.32814(11) 0.90591(12)
N67_32 N 0.34409(12) 0.31390(11) 0.92186(11)
C122_32 C 0.33377(15) 0.26834(14) 0.86165(16)
C123_32 C 0.26834(14) 0.38835(16) 0.91623(15)
H77_32 H 0.3354 0.2584 0.8508
H78_32 H 0.2584 0.3992 0.9146
C127_32 C 0.31531(17) 0.27980(17) 0.8626(2)
C128_32 C 0.27980(17) 0.3874(2) 0.93469(17)
H82_32 H 0.3042 0.2771 0.8533
H83_32 H 0.2771 0.3967 0.9458
C132_32 C 0.31380(15) 0.29515(16) 0.87750(16)
C133_32 C 0.29515(16) 0.37250(16) 0.93620(15)
H87_32 H 0.3018 0.3036 0.8782
H88_32 H 0.3036 0.3718 0.9482
C137_32 C 0.32984(14) 0.29809(13) 0.89131(14)
C138_32 C 0.29809(13) 0.35869(14) 0.92016(14)
C142_32 C 0.34738(12) 0.28528(12) 0.88931(13)
C143_32 C 0.28528(12) 0.36069(13) 0.90262(12)
H92_32 H 0.3586 0.2873 0.8987
H93_32 H 0.2873 0.3513 0.8914
C147_32 C 0.31431(13) 0.34275(14) 0.92079(13)
C148_32 C 0.32921(13) 0.31431(13) 0.90725(14)
loop_
_geom_bond_atom_site_label_1
_geom_bond_atom_site_label_2
_geom_bond_site_symmetry_1
_geom_bond_site_symmetry_2
Co1 N1 1_555 1_555
Co2 N2 1_555 1_555
N1 C1 1_555 1_555
N2 C26 1_555 1_555
N3 C2 1_555 1_555
N4 Co1 1_555 1_555
N5 C12 1_555 1_555
N6 C12 1_555 1_555
N7 C13 1_555 1_555
N8 Co2 1_555 1_555
N9 Co2 1_555 1_555
N10 C25 1_555 1_555
S1 C1 1_555 1_555
S2 C26 1_555 1_555
C2 H1 1_555 1_555
C3 C2 1_555 1_555
C4 C3 1_555 1_555
H2 C4 1_555 1_555
C5 C4 1_555 1_555
H3 C5 1_555 1_555
C6 N3 1_555 1_555
H4 C6 1_555 1_555
C7 N4 1_555 1_555
H5 C7 1_555 1_555
C8 C7 1_555 1_555
H6 C8 1_555 1_555
C9 C8 1_555 1_555
H7 C9 1_555 1_555
C10 C9 1_555 1_555
C11 N4 1_555 1_555
H8 C11 1_555 1_555
C12 C10 1_555 1_555
C13 N6 1_555 1_555
C14 N5 1_555 1_555
C15 N8 1_555 1_555
H9 C15 1_555 1_555
C16 C15 1_555 1_555
H10 C16 1_555 1_555
C17 C16 1_555 1_555
H11 C17 1_555 1_555
C18 C14 1_555 1_555
C19 N8 1_555 1_555
H12 C19 1_555 1_555
C20 N9 1_555 1_555
H13 C20 1_555 1_555
C21 C20 1_555 1_555
H14 C21 1_555 1_555
C22 C21 1_555 1_555
H15 C22 1_555 1_555
C23 C22 1_555 1_555
C24 N9 1_555 1_555
H16 C24 1_555 1_555
C25 C23 1_555 1_555
Co4 N14 1_555 1_555
Co5 N3 1_555 1_555
Co6 N23 1_555 1_555
Co7 N31 1_555 1_555
Co9 N17 1_555 1_555
Co10 N19 1_555 1_555
Co12 N58 1_555 1_555
Co13 N52 1_555 1_555
Co14 N60 1_555 1_555
N11 Co1 1_555 1_555
N13 Co3 1_555 1_555
N14 C30 1_555 1_555
N15 Co4 1_555 1_555
N16 Co2 1_555 1_555
N17 C153 1_555 1_555
N18 Co9 1_555 1_555
N20 Co10 1_555 1_555
N21 Co1 1_555 1_555
N22 Co1 1_555 1_555
N23 C34 1_555 1_555
N24 Co3 1_555 1_555
N26 Co4 1_555 1_555
N27 Co4 1_555 1_555
N28 Co3 1_555 1_555
N29 Co4 1_555 1_555
N30 Co1 1_555 1_555
N31 C60 1_555 1_555
N34 Co4 1_555 1_555
N35 C82 1_555 1_555
N36 C83 1_555 1_555
N37 C84 1_555 1_555
N38 C85 1_555 1_555
N40 C82 1_555 1_555
N41 C83 1_555 1_555
N42 C84 1_555 1_555
N43 C85 1_555 1_555
N45 C87 1_555 1_555
N46 C88 1_555 1_555
N47 C89 1_555 1_555
N48 C90 1_555 1_555
N50 Co9 1_555 1_555
N51 Co10 1_555 1_555
N52 C99 1_555 1_555
N53 Co2 1_555 1_555
N55 Co9 1_555 1_555
N56 Co10 1_555 1_555
N57 C122 1_555 1_555
N58 C123 1_555 1_555
N59 Co2 1_555 1_555
N60 C125 1_555 1_555
N61 C126 1_555 1_555
N62 Co9 1_555 1_555
N63 Co9 1_555 1_555
N66 C147 1_555 1_555
N67 C25 1_555 1_555
N68 C149 1_555 1_555
N69 C150 1_555 1_555
N70 C149 1_555 1_555
S3 C27 1_555 1_555
S5 C29 1_555 1_555
S6 C30 1_555 1_555
S7 C31 1_555 1_555
S8 C152 1_555 1_555
S9 C153 1_555 1_555
S10 C154 1_555 1_555
C27 N11 1_555 1_555
C29 N13 1_555 1_555
C31 N15 1_555 1_555
C32 N21 1_555 1_555
C33 N22 1_555 1_555
C34 H19 1_555 1_555
C35 N24 1_555 1_555
H17 C32 1_555 1_555
H18 C33 1_555 1_555
H20 C35 1_555 1_555
C37 C32 1_555 1_555
C38 C33 1_555 1_555
C39 C34 1_555 1_555
C40 C35 1_555 1_555
C42 C37 1_555 1_555
C43 C38 1_555 1_555
C44 C39 1_555 1_555
C45 C40 1_555 1_555
H22 C42 1_555 1_555
H23 C43 1_555 1_555
H24 C44 1_555 1_555
H25 C45 1_555 1_555
C47 C42 1_555 1_555
C48 C43 1_555 1_555
C49 C44 1_555 1_555
C50 C45 1_555 1_555
H27 C47 1_555 1_555
H28 C48 1_555 1_555
H29 C49 1_555 1_555
H30 C50 1_555 1_555
C52 N21 1_555 1_555
C53 N22 1_555 1_555
C54 N23 1_555 1_555
C55 N24 1_555 1_555
H32 C52 1_555 1_555
H33 C53 1_555 1_555
H34 C54 1_555 1_555
H35 C55 1_555 1_555
C57 N28 1_555 1_555
C58 N29 1_555 1_555
C59 N30 1_555 1_555
C60 H40 1_555 1_555
H37 C57 1_555 1_555
H38 C58 1_555 1_555
H39 C59 1_555 1_555
C62 C57 1_555 1_555
C63 C58 1_555 1_555
C64 C59 1_555 1_555
C65 C60 1_555 1_555
H42 C62 1_555 1_555
H43 C63 1_555 1_555
H44 C64 1_555 1_555
H45 C65 1_555 1_555
C67 C62 1_555 1_555
C68 C63 1_555 1_555
C69 C64 1_555 1_555
C70 C65 1_555 1_555
H47 C67 1_555 1_555
H48 C68 1_555 1_555
H49 C69 1_555 1_555
H50 C70 1_555 1_555
C72 C67 1_555 1_555
C73 C68 1_555 1_555
C74 C69 1_555 1_555
C75 C70 1_555 1_555
C77 N28 1_555 1_555
C78 N29 1_555 1_555
C79 N30 1_555 1_555
C80 N31 1_555 1_555
H52 C77 1_555 1_555
H53 C78 1_555 1_555
H54 C79 1_555 1_555
H55 C80 1_555 1_555
C82 C72 1_555 1_555
C83 C73 1_555 1_555
C84 C74 1_555 1_555
C85 C75 1_555 1_555
C87 N40 1_555 1_555
C88 N41 1_555 1_555
C89 N42 1_555 1_555
C90 N43 1_555 1_555
C92 N35 1_555 1_555
C93 N36 1_555 1_555
C94 N37 1_555 1_555
C95 N38 1_555 1_555
C97 N50 1_555 1_555
C98 N51 1_555 1_555
C99 H59 1_555 1_555
C100 N53 1_555 1_555
H57 C97 1_555 1_555
H58 C98 1_555 1_555
H60 C100 1_555 1_555
C102 C97 1_555 1_555
C103 C98 1_555 1_555
C104 C99 1_555 1_555
C105 C100 1_555 1_555
H62 C102 1_555 1_555
H63 C103 1_555 1_555
H64 C104 1_555 1_555
H65 C105 1_555 1_555
C107 C102 1_555 1_555
C108 C103 1_555 1_555
C109 C104 1_555 1_555
C110 C105 1_555 1_555
H67 C107 1_555 1_555
H68 C108 1_555 1_555
H69 C109 1_555 1_555
H70 C110 1_555 1_555
C112 C92 1_555 1_555
C113 C93 1_555 1_555
C114 C94 1_555 1_555
C115 C95 1_555 1_555
C117 N50 1_555 1_555
C118 N51 1_555 1_555
C119 N52 1_555 1_555
C120 N53 1_555 1_555
H72 C117 1_555 1_555
H73 C118 1_555 1_555
H74 C119 1_555 1_555
H75 C120 1_555 1_555
C122 H77 1_555 1_555
C123 H78 1_555 1_555
C124 N59 1_555 1_555
C125 H80 1_555 1_555
C126 H81 1_555 1_555
H79 C124 1_555 1_555
C127 C122 1_555 1_555
C128 C123 1_555 1_555
C129 C124 1_555 1_555
C130 C125 1_555 1_555
C131 C126 1_555 1_555
H82 C127 1_555 1_555
H83 C128 1_555 1_555
H84 C129 1_555 1_555
H85 C130 1_555 1_555
H86 C131 1_555 1_555
C132 C127 1_555 1_555
C133 C128 1_555 1_555
C134 C129 1_555 1_555
C135 C130 1_555 1_555
C136 C131 1_555 1_555
H87 C132 1_555 1_555
H88 C133 1_555 1_555
H89 C134 1_555 1_555
H90 C135 1_555 1_555
H91 C136 1_555 1_555
C137 C132 1_555 1_555
C138 C133 1_555 1_555
C139 C134 1_555 1_555
C140 C135 1_555 1_555
C141 C136 1_555 1_555
C142 N57 1_555 1_555
C143 N58 1_555 1_555
C144 N59 1_555 1_555
C145 N60 1_555 1_555
C146 N61 1_555 1_555
H92 C142 1_555 1_555
H93 C143 1_555 1_555
H94 C144 1_555 1_555
H95 C145 1_555 1_555
H96 C146 1_555 1_555
C147 N10 1_555 1_555
C148 N66 1_555 1_555
C149 C139 1_555 1_555
C150 N68 1_555 1_555
C151 N69 1_555 1_555
C152 N16 1_555 1_555
C154 N18 1_555 1_555
N7 C14 1_555 1_555
C3 C13 1_555 1_555
C5 C6 1_555 1_555
C10 C11 1_555 1_555
C17 C18 1_555 1_555
C18 C19 1_555 1_555
C23 C24 1_555 1_555
N45 C92 1_555 1_555
N46 C93 1_555 1_555
N47 C94 1_555 1_555
N48 C95 1_555 1_555
N67 C148 1_555 1_555
N70 C151 1_555 1_555
C37 C87 1_555 1_555
C38 C88 1_555 1_555
C39 C89 1_555 1_555
C40 C90 1_555 1_555
C47 C52 1_555 1_555
C48 C53 1_555 1_555
C49 C54 1_555 1_555
C50 C55 1_555 1_555
C72 C77 1_555 1_555
C73 C78 1_555 1_555
C74 C79 1_555 1_555
C75 C80 1_555 1_555
C107 C112 1_555 1_555
C108 C113 1_555 1_555
C109 C114 1_555 1_555
C110 C115 1_555 1_555
C112 C117 1_555 1_555
C113 C118 1_555 1_555
C114 C119 1_555 1_555
C115 C120 1_555 1_555
C137 C142 1_555 1_555
C137 C148 1_555 1_555
C138 C143 1_555 1_555
C138 C147 1_555 1_555
C139 C144 1_555 1_555
C140 C145 1_555 1_555
C140 C151 1_555 1_555
C141 C146 1_555 1_555
C141 C150 1_555 1_555
Co3_2 N12 1_555 1_555
Co8 N32 1_555 1_555
Co16 N54 1_555 1_555
N12 C28 1_555 1_555
N25 Co3_2 1_555 1_555
N32 C61 1_555 1_555
N33 Co3_2 1_555 1_555
N39 C86 1_555 1_555
N44 C86 1_555 1_555
N49 C91 1_555 1_555
N54 C101 1_555 1_555
S4 C28 1_555 1_555
S11 C155 1_555 1_555
S12 C156 1_555 1_555
C36 N25 1_555 1_555
H21 C36 1_555 1_555
C41 C36 1_555 1_555
C46 C41 1_555 1_555
H26 C46 1_555 1_555
C51 C46 1_555 1_555
H31 C51 1_555 1_555
C56 N25 1_555 1_555
H36 C56 1_555 1_555
C61 H41 1_555 1_555
C66 C61 1_555 1_555
H46 C66 1_555 1_555
C71 C66 1_555 1_555
H51 C71 1_555 1_555
C76 C71 1_555 1_555
C81 N32 1_555 1_555
H56 C81 1_555 1_555
C86 C76 1_555 1_555
C91 N44 1_555 1_555
C96 N39 1_555 1_555
C101 H61 1_555 1_555
C106 C101 1_555 1_555
H66 C106 1_555 1_555
C111 C106 1_555 1_555
H71 C111 1_555 1_555
C116 C96 1_555 1_555
C121 N54 1_555 1_555
H76 C121 1_555 1_555
N49 C96 1_555 1_555
C41 C91 1_555 1_555
C51 C56 1_555 1_555
C76 C81 1_555 1_555
C111 C116 1_555 1_555
C116 C121 1_555 1_555
Co1_2 N1_2 1_555 1_555
Co2_2 N2_2 1_555 1_555
N1_2 C1_2 1_555 1_555
N2_2 C26_2 1_555 1_555
N3_2 C2_2 1_555 1_555
N4_2 Co1_2 1_555 1_555
N5_2 C12_2 1_555 1_555
N6_2 C12_2 1_555 1_555
N7_2 C13_2 1_555 1_555
N8_2 Co2_2 1_555 1_555
N9_2 Co2_2 1_555 1_555
N10_2 C25_2 1_555 1_555
S1_2 C1_2 1_555 1_555
S2_2 C26_2 1_555 1_555
C2_2 H1_2 1_555 1_555
C3_2 C2_2 1_555 1_555
C4_2 C3_2 1_555 1_555
H2_2 C4_2 1_555 1_555
C5_2 C4_2 1_555 1_555
H3_2 C5_2 1_555 1_555
C6_2 N3_2 1_555 1_555
H4_2 C6_2 1_555 1_555
C7_2 N4_2 1_555 1_555
H5_2 C7_2 1_555 1_555
C8_2 C7_2 1_555 1_555
H6_2 C8_2 1_555 1_555
C9_2 C8_2 1_555 1_555
H7_2 C9_2 1_555 1_555
C10_2 C9_2 1_555 1_555
C11_2 N4_2 1_555 1_555
H8_2 C11_2 1_555 1_555
C12_2 C10_2 1_555 1_555
C13_2 N6_2 1_555 1_555
C14_2 N5_2 1_555 1_555
C15_2 N8_2 1_555 1_555
H9_2 C15_2 1_555 1_555
C16_2 C15_2 1_555 1_555
H10_2 C16_2 1_555 1_555
C17_2 C16_2 1_555 1_555
H11_2 C17_2 1_555 1_555
C18_2 C14_2 1_555 1_555
C19_2 N8_2 1_555 1_555
H12_2 C19_2 1_555 1_555
C20_2 N9_2 1_555 1_555
H13_2 C20_2 1_555 1_555
C21_2 C20_2 1_555 1_555
H14_2 C21_2 1_555 1_555
C22_2 C21_2 1_555 1_555
H15_2 C22_2 1_555 1_555
C23_2 C22_2 1_555 1_555
C24_2 N9_2 1_555 1_555
H16_2 C24_2 1_555 1_555
C25_2 C23_2 1_555 1_555
Co3_3 N12_2 1_555 1_555
Co5_2 N3_2 1_555 1_555
Co6_2 N23_2 1_555 1_555
Co7_3 N31_2 1_555 1_555
Co8_2 N32_2 1_555 1_555
Co9_2 N17_2 1_555 1_555
Co10_2 N19_2 1_555 1_555
Co13 N57_2 1_555 1_555
Co12_2 N58_2 1_555 1_555
Co13_2 N52_2 1_555 1_555
Co14_2 N60_2 1_555 1_555
Co15_2 N61_2 1_555 1_555
Co12 N54_2 1_555 1_555
N11_2 Co1_2 1_555 1_555
N12_2 C28_2 1_555 1_555
N13_2 Co3_3 1_555 1_555
N15_2 Co4_2 1_555 1_555
N16_2 Co2_2 1_555 1_555
N18_2 Co9_2 1_555 1_555
N19_2 C155_2 1_555 1_555
N20_2 Co10_2 1_555 1_555
N21_2 Co1_2 1_555 1_555
N22_2 Co1_2 1_555 1_555
N23_2 C34_2 1_555 1_555
N24_2 Co3_3 1_555 1_555
N25_2 Co3_3 1_555 1_555
N26_2 Co4_2 1_555 1_555
N28_2 Co3_3 1_555 1_555
N29_2 Co4_2 1_555 1_555
N30_2 Co1_2 1_555 1_555
N31_2 C60_2 1_555 1_555
N32_2 C61_2 1_555 1_555
N33_2 Co3_3 1_555 1_555
N35_2 C82_2 1_555 1_555
N36_2 C83_2 1_555 1_555
N37_2 C84_2 1_555 1_555
N38_2 C85_2 1_555 1_555
N39_2 C86_2 1_555 1_555
N40_2 C82_2 1_555 1_555
N41_2 C83_2 1_555 1_555
N42_2 C84_2 1_555 1_555
N43_2 C85_2 1_555 1_555
N44_2 C86_2 1_555 1_555
N45_2 C87_2 1_555 1_555
N46_2 C88_2 1_555 1_555
N47_2 C89_2 1_555 1_555
N48_2 C90_2 1_555 1_555
N49_2 C91_2 1_555 1_555
N50_2 Co9_2 1_555 1_555
N51_2 Co10_2 1_555 1_555
N52_2 C99_2 1_555 1_555
N53_2 Co2_2 1_555 1_555
N54_2 C101_2 1_555 1_555
N55_2 Co9_2 1_555 1_555
N56_2 Co10_2 1_555 1_555
N57_2 C122_2 1_555 1_555
N58_2 C123_2 1_555 1_555
N59_2 Co2_2 1_555 1_555
N60_2 C125_2 1_555 1_555
N61_2 C126_2 1_555 1_555
N64_2 Co10_2 1_555 1_555
N65_2 Co10_2 1_555 1_555
N66_2 C147_2 1_555 1_555
N67_2 C25_2 1_555 1_555
N68_2 C149_2 1_555 1_555
N69_2 C150_2 1_555 1_555
N70_2 C149_2 1_555 1_555
S3_2 C27_2 1_555 1_555
S4_2 C28_2 1_555 1_555
S5_2 C29_2 1_555 1_555
S7_2 C31_2 1_555 1_555
S8_2 C152_2 1_555 1_555
S11_2 C155_2 1_555 1_555
S12_2 C156_2 1_555 1_555
C27_2 N11_2 1_555 1_555
C29_2 N13_2 1_555 1_555
C31_2 N15_2 1_555 1_555
C32_2 N21_2 1_555 1_555
C33_2 N22_2 1_555 1_555
C34_2 H19_2 1_555 1_555
C35_2 N24_2 1_555 1_555
C36_2 N25_2 1_555 1_555
H17_2 C32_2 1_555 1_555
H18_2 C33_2 1_555 1_555
H20_2 C35_2 1_555 1_555
H21_2 C36_2 1_555 1_555
C37_2 C32_2 1_555 1_555
C38_2 C33_2 1_555 1_555
C39_2 C34_2 1_555 1_555
C40_2 C35_2 1_555 1_555
C41_2 C36_2 1_555 1_555
C42_2 C37_2 1_555 1_555
C43_2 C38_2 1_555 1_555
C44_2 C39_2 1_555 1_555
C45_2 C40_2 1_555 1_555
C46_2 C41_2 1_555 1_555
H22_2 C42_2 1_555 1_555
H23_2 C43_2 1_555 1_555
H24_2 C44_2 1_555 1_555
H25_2 C45_2 1_555 1_555
H26_2 C46_2 1_555 1_555
C47_2 C42_2 1_555 1_555
C48_2 C43_2 1_555 1_555
C49_2 C44_2 1_555 1_555
C50_2 C45_2 1_555 1_555
C51_2 C46_2 1_555 1_555
H27_2 C47_2 1_555 1_555
H28_2 C48_2 1_555 1_555
H29_2 C49_2 1_555 1_555
H30_2 C50_2 1_555 1_555
H31_2 C51_2 1_555 1_555
C52_2 N21_2 1_555 1_555
C53_2 N22_2 1_555 1_555
C54_2 N23_2 1_555 1_555
C55_2 N24_2 1_555 1_555
C56_2 N25_2 1_555 1_555
H32_2 C52_2 1_555 1_555
H33_2 C53_2 1_555 1_555
H34_2 C54_2 1_555 1_555
H35_2 C55_2 1_555 1_555
H36_2 C56_2 1_555 1_555
C57_2 N28_2 1_555 1_555
C58_2 N29_2 1_555 1_555
C59_2 N30_2 1_555 1_555
C60_2 H40_2 1_555 1_555
C61_2 H41_2 1_555 1_555
H37_2 C57_2 1_555 1_555
H38_2 C58_2 1_555 1_555
H39_2 C59_2 1_555 1_555
C62_2 C57_2 1_555 1_555
C63_2 C58_2 1_555 1_555
C64_2 C59_2 1_555 1_555
C65_2 C60_2 1_555 1_555
C66_2 C61_2 1_555 1_555
H42_2 C62_2 1_555 1_555
H43_2 C63_2 1_555 1_555
H44_2 C64_2 1_555 1_555
H45_2 C65_2 1_555 1_555
H46_2 C66_2 1_555 1_555
C67_2 C62_2 1_555 1_555
C68_2 C63_2 1_555 1_555
C69_2 C64_2 1_555 1_555
C70_2 C65_2 1_555 1_555
C71_2 C66_2 1_555 1_555
H47_2 C67_2 1_555 1_555
H48_2 C68_2 1_555 1_555
H49_2 C69_2 1_555 1_555
H50_2 C70_2 1_555 1_555
H51_2 C71_2 1_555 1_555
C72_2 C67_2 1_555 1_555
C73_2 C68_2 1_555 1_555
C74_2 C69_2 1_555 1_555
C75_2 C70_2 1_555 1_555
C76_2 C71_2 1_555 1_555
C77_2 N28_2 1_555 1_555
C78_2 N29_2 1_555 1_555
C79_2 N30_2 1_555 1_555
C80_2 N31_2 1_555 1_555
C81_2 N32_2 1_555 1_555
H52_2 C77_2 1_555 1_555
H53_2 C78_2 1_555 1_555
H54_2 C79_2 1_555 1_555
H55_2 C80_2 1_555 1_555
H56_2 C81_2 1_555 1_555
C82_2 C72_2 1_555 1_555
C83_2 C73_2 1_555 1_555
C84_2 C74_2 1_555 1_555
C85_2 C75_2 1_555 1_555
C86_2 C76_2 1_555 1_555
C87_2 N40_2 1_555 1_555
C88_2 N41_2 1_555 1_555
C89_2 N42_2 1_555 1_555
C90_2 N43_2 1_555 1_555
C91_2 N44_2 1_555 1_555
C92_2 N35_2 1_555 1_555
C93_2 N36_2 1_555 1_555
C94_2 N37_2 1_555 1_555
C95_2 N38_2 1_555 1_555
C96_2 N39_2 1_555 1_555
C97_2 N50_2 1_555 1_555
C98_2 N51_2 1_555 1_555
C99_2 H59_2 1_555 1_555
C100_2 N53_2 1_555 1_555
C101_2 H61_2 1_555 1_555
H57_2 C97_2 1_555 1_555
H58_2 C98_2 1_555 1_555
H60_2 C100_2 1_555 1_555
C102_2 C97_2 1_555 1_555
C103_2 C98_2 1_555 1_555
C104_2 C99_2 1_555 1_555
C105_2 C100_2 1_555 1_555
C106_2 C101_2 1_555 1_555
H62_2 C102_2 1_555 1_555
H63_2 C103_2 1_555 1_555
H64_2 C104_2 1_555 1_555
H65_2 C105_2 1_555 1_555
H66_2 C106_2 1_555 1_555
C107_2 C102_2 1_555 1_555
C108_2 C103_2 1_555 1_555
C109_2 C104_2 1_555 1_555
C110_2 C105_2 1_555 1_555
C111_2 C106_2 1_555 1_555
H67_2 C107_2 1_555 1_555
H68_2 C108_2 1_555 1_555
H69_2 C109_2 1_555 1_555
H70_2 C110_2 1_555 1_555
H71_2 C111_2 1_555 1_555
C112_2 C92_2 1_555 1_555
C113_2 C93_2 1_555 1_555
C114_2 C94_2 1_555 1_555
C115_2 C95_2 1_555 1_555
C116_2 C96_2 1_555 1_555
C117_2 N50_2 1_555 1_555
C118_2 N51_2 1_555 1_555
C119_2 N52_2 1_555 1_555
C120_2 N53_2 1_555 1_555
C121_2 N54_2 1_555 1_555
H72_2 C117_2 1_555 1_555
H73_2 C118_2 1_555 1_555
H74_2 C119_2 1_555 1_555
H75_2 C120_2 1_555 1_555
H76_2 C121_2 1_555 1_555
C122_2 H77_2 1_555 1_555
C123_2 H78_2 1_555 1_555
C124_2 N59_2 1_555 1_555
C125_2 H80_2 1_555 1_555
C126_2 H81_2 1_555 1_555
H79_2 C124_2 1_555 1_555
C127_2 C122_2 1_555 1_555
C128_2 C123_2 1_555 1_555
C129_2 C124_2 1_555 1_555
C130_2 C125_2 1_555 1_555
C131_2 C126_2 1_555 1_555
H82_2 C127_2 1_555 1_555
H83_2 C128_2 1_555 1_555
H84_2 C129_2 1_555 1_555
H85_2 C130_2 1_555 1_555
H86_2 C131_2 1_555 1_555
C132_2 C127_2 1_555 1_555
C133_2 C128_2 1_555 1_555
C134_2 C129_2 1_555 1_555
C135_2 C130_2 1_555 1_555
C136_2 C131_2 1_555 1_555
H87_2 C132_2 1_555 1_555
H88_2 C133_2 1_555 1_555
H89_2 C134_2 1_555 1_555
H90_2 C135_2 1_555 1_555
H91_2 C136_2 1_555 1_555
C137_2 C132_2 1_555 1_555
C138_2 C133_2 1_555 1_555
C139_2 C134_2 1_555 1_555
C140_2 C135_2 1_555 1_555
C141_2 C136_2 1_555 1_555
C142_2 N57_2 1_555 1_555
C143_2 N58_2 1_555 1_555
C144_2 N59_2 1_555 1_555
C145_2 N60_2 1_555 1_555
C146_2 N61_2 1_555 1_555
H92_2 C142_2 1_555 1_555
H93_2 C143_2 1_555 1_555
H94_2 C144_2 1_555 1_555
H95_2 C145_2 1_555 1_555
H96_2 C146_2 1_555 1_555
C147_2 N10_2 1_555 1_555
C148_2 N66_2 1_555 1_555
C149_2 C139_2 1_555 1_555
C150_2 N68_2 1_555 1_555
C151_2 N69_2 1_555 1_555
C152_2 N16_2 1_555 1_555
C156_2 N20_2 1_555 1_555
N7_2 C14_2 1_555 1_555
C3_2 C13_2 1_555 1_555
C5_2 C6_2 1_555 1_555
C10_2 C11_2 1_555 1_555
C17_2 C18_2 1_555 1_555
C18_2 C19_2 1_555 1_555
C23_2 C24_2 1_555 1_555
N45_2 C92_2 1_555 1_555
N46_2 C93_2 1_555 1_555
N47_2 C94_2 1_555 1_555
N48_2 C95_2 1_555 1_555
N49_2 C96_2 1_555 1_555
N67_2 C148_2 1_555 1_555
N70_2 C151_2 1_555 1_555
C37_2 C87_2 1_555 1_555
C38_2 C88_2 1_555 1_555
C39_2 C89_2 1_555 1_555
C40_2 C90_2 1_555 1_555
C41_2 C91_2 1_555 1_555
C47_2 C52_2 1_555 1_555
C48_2 C53_2 1_555 1_555
C49_2 C54_2 1_555 1_555
C50_2 C55_2 1_555 1_555
C51_2 C56_2 1_555 1_555
C72_2 C77_2 1_555 1_555
C73_2 C78_2 1_555 1_555
C74_2 C79_2 1_555 1_555
C75_2 C80_2 1_555 1_555
C76_2 C81_2 1_555 1_555
C107_2 C112_2 1_555 1_555
C108_2 C113_2 1_555 1_555
C109_2 C114_2 1_555 1_555
C110_2 C115_2 1_555 1_555
C111_2 C116_2 1_555 1_555
C112_2 C117_2 1_555 1_555
C113_2 C118_2 1_555 1_555
C114_2 C119_2 1_555 1_555
C115_2 C120_2 1_555 1_555
C116_2 C121_2 1_555 1_555
C137_2 C142_2 1_555 1_555
C137_2 C148_2 1_555 1_555
C138_2 C143_2 1_555 1_555
C138_2 C147_2 1_555 1_555
C139_2 C144_2 1_555 1_555
C140_2 C145_2 1_555 1_555
C140_2 C151_2 1_555 1_555
C141_2 C146_2 1_555 1_555
C141_2 C150_2 1_555 1_555
Co4_3 N14_2 1_555 1_555
N14_2 C30_2 1_555 1_555
N27_2 Co4_3 1_555 1_555
N34_2 Co4_3 1_555 1_555
S6_2 C30_2 1_555 1_555
S9_2 C153_2 1_555 1_555
S10_2 C154_2 1_555 1_555
Co1_3 N1_3 1_555 1_555
N1_3 C1_3 1_555 1_555
S1_3 C1_3 1_555 1_555
Co5_2 N14_3 1_555 1_555
Co6_3 N23_3 1_555 1_555
Co10_3 N19_3 1_555 1_555
Co13_3 N52_3 1_555 1_555
N14_3 C30_3 1_555 1_555
N15_3 Co5_2 1_555 1_555
N19_3 C155_3 1_555 1_555
N20_3 Co10_3 1_555 1_555
N22_3 Co1_3 1_555 1_555
N23_3 C34_3 1_555 1_555
N26_3 Co5_2 1_555 1_555
N29_3 Co5_2 1_555 1_555
N30_3 Co1_3 1_555 1_555
N34_3 Co5_2 1_555 1_555
N36_3 C83_3 1_555 1_555
N37_3 C84_3 1_555 1_555
N41_3 C83_3 1_555 1_555
N42_3 C84_3 1_555 1_555
N46_3 C88_3 1_555 1_555
N47_3 C89_3 1_555 1_555
N51_3 Co10_3 1_555 1_555
N52_3 C99_3 1_555 1_555
N56_3 Co10_3 1_555 1_555
N64_3 Co10_3 1_555 1_555
N65_3 Co10_3 1_555 1_555
S6_3 C30_3 1_555 1_555
S7_3 C31_3 1_555 1_555
S11_3 C155_3 1_555 1_555
S12_3 C156_3 1_555 1_555
C31_3 N15_3 1_555 1_555
C33_3 N22_3 1_555 1_555
C34_3 H19_3 1_555 1_555
H18_3 C33_3 1_555 1_555
C38_3 C33_3 1_555 1_555
C39_3 C34_3 1_555 1_555
C43_3 C38_3 1_555 1_555
C44_3 C39_3 1_555 1_555
H23_3 C43_3 1_555 1_555
H24_3 C44_3 1_555 1_555
C48_3 C43_3 1_555 1_555
C49_3 C44_3 1_555 1_555
H28_3 C48_3 1_555 1_555
H29_3 C49_3 1_555 1_555
C53_3 N22_3 1_555 1_555
C54_3 N23_3 1_555 1_555
H33_3 C53_3 1_555 1_555
H34_3 C54_3 1_555 1_555
C58_3 N29_3 1_555 1_555
C59_3 N30_3 1_555 1_555
H38_3 C58_3 1_555 1_555
H39_3 C59_3 1_555 1_555
C63_3 C58_3 1_555 1_555
C64_3 C59_3 1_555 1_555
H43_3 C63_3 1_555 1_555
H44_3 C64_3 1_555 1_555
C68_3 C63_3 1_555 1_555
C69_3 C64_3 1_555 1_555
H48_3 C68_3 1_555 1_555
H49_3 C69_3 1_555 1_555
C73_3 C68_3 1_555 1_555
C74_3 C69_3 1_555 1_555
C78_3 N29_3 1_555 1_555
C79_3 N30_3 1_555 1_555
H53_3 C78_3 1_555 1_555
H54_3 C79_3 1_555 1_555
C83_3 C73_3 1_555 1_555
C84_3 C74_3 1_555 1_555
C88_3 N41_3 1_555 1_555
C89_3 N42_3 1_555 1_555
C93_3 N36_3 1_555 1_555
C94_3 N37_3 1_555 1_555
C98_3 N51_3 1_555 1_555
C99_3 H59_3 1_555 1_555
H58_3 C98_3 1_555 1_555
C103_3 C98_3 1_555 1_555
C104_3 C99_3 1_555 1_555
H63_3 C103_3 1_555 1_555
H64_3 C104_3 1_555 1_555
C108_3 C103_3 1_555 1_555
C109_3 C104_3 1_555 1_555
H68_3 C108_3 1_555 1_555
H69_3 C109_3 1_555 1_555
C113_3 C93_3 1_555 1_555
C114_3 C94_3 1_555 1_555
C118_3 N51_3 1_555 1_555
C119_3 N52_3 1_555 1_555
H73_3 C118_3 1_555 1_555
H74_3 C119_3 1_555 1_555
C156_3 N20_3 1_555 1_555
N46_3 C93_3 1_555 1_555
N47_3 C94_3 1_555 1_555
C38_3 C88_3 1_555 1_555
C39_3 C89_3 1_555 1_555
C48_3 C53_3 1_555 1_555
C49_3 C54_3 1_555 1_555
C73_3 C78_3 1_555 1_555
C74_3 C79_3 1_555 1_555
C108_3 C113_3 1_555 1_555
C109_3 C114_3 1_555 1_555
C113_3 C118_3 1_555 1_555
C114_3 C119_3 1_555 1_555
Co2_3 N2_3 1_555 1_555
N2_3 C26_3 1_555 1_555
N3_3 C2_3 1_555 1_555
N4_3 Co1_4 1_555 1_555
N5_3 C12_3 1_555 1_555
N6_3 C12_3 1_555 1_555
N7_3 C13_3 1_555 1_555
N8_3 Co2_3 1_555 1_555
N9_3 Co2_3 1_555 1_555
N10_3 C25_3 1_555 1_555
S2_3 C26_3 1_555 1_555
C2_3 H1_3 1_555 1_555
C3_3 C2_3 1_555 1_555
C4_3 C3_3 1_555 1_555
H2_3 C4_3 1_555 1_555
C5_3 C4_3 1_555 1_555
H3_3 C5_3 1_555 1_555
C6_3 N3_3 1_555 1_555
H4_3 C6_3 1_555 1_555
C7_3 N4_3 1_555 1_555
H5_3 C7_3 1_555 1_555
C8_3 C7_3 1_555 1_555
H6_3 C8_3 1_555 1_555
C9_3 C8_3 1_555 1_555
H7_3 C9_3 1_555 1_555
C10_3 C9_3 1_555 1_555
C11_3 N4_3 1_555 1_555
H8_3 C11_3 1_555 1_555
C12_3 C10_3 1_555 1_555
C13_3 N6_3 1_555 1_555
C14_3 N5_3 1_555 1_555
C15_3 N8_3 1_555 1_555
H9_3 C15_3 1_555 1_555
C16_3 C15_3 1_555 1_555
H10_3 C16_3 1_555 1_555
C17_3 C16_3 1_555 1_555
H11_3 C17_3 1_555 1_555
C18_3 C14_3 1_555 1_555
C19_3 N8_3 1_555 1_555
H12_3 C19_3 1_555 1_555
C20_3 N9_3 1_555 1_555
H13_3 C20_3 1_555 1_555
C21_3 C20_3 1_555 1_555
H14_3 C21_3 1_555 1_555
C22_3 C21_3 1_555 1_555
H15_3 C22_3 1_555 1_555
C23_3 C22_3 1_555 1_555
C24_3 N9_3 1_555 1_555
H16_3 C24_3 1_555 1_555
C25_3 C23_3 1_555 1_555
Co3_4 N12_3 1_555 1_555
Co5_3 N3_3 1_555 1_555
Co7_4 N31_3 1_555 1_555
Co8_3 N32_3 1_555 1_555
Co9_3 N17_3 1_555 1_555
Co11_2 N57_3 1_555 1_555
Co12_3 N58_3 1_555 1_555
Co15_3 N61_3 1_555 1_555
Co16_2 N54_3 1_555 1_555
N11_3 Co1_4 1_555 1_555
N12_3 C28_3 1_555 1_555
N13_3 Co3_4 1_555 1_555
N16_3 Co2_3 1_555 1_555
N17_3 C153_3 1_555 1_555
N18_3 Co9_3 1_555 1_555
N21_3 Co1_4 1_555 1_555
N24_3 Co3_4 1_555 1_555
N25_3 Co3_4 1_555 1_555
N28_3 Co3_4 1_555 1_555
N31_3 C60_3 1_555 1_555
N32_3 C61_3 1_555 1_555
N33_3 Co3_4 1_555 1_555
N35_3 C82_3 1_555 1_555
N38_3 C85_3 1_555 1_555
N39_3 C86_3 1_555 1_555
N40_3 C82_3 1_555 1_555
N43_3 C85_3 1_555 1_555
N44_3 C86_3 1_555 1_555
N45_3 C87_3 1_555 1_555
N48_3 C90_3 1_555 1_555
N49_3 C91_3 1_555 1_555
N50_3 Co9_3 1_555 1_555
N53_3 Co2_3 1_555 1_555
N54_3 C101_3 1_555 1_555
N55_3 Co9_3 1_555 1_555
N57_3 C122_3 1_555 1_555
N58_3 C123_3 1_555 1_555
N59_3 Co2_3 1_555 1_555
N60_3 C125_3 1_555 1_555
N61_3 C126_3 1_555 1_555
N62_3 Co9_3 1_555 1_555
N63_3 Co9_3 1_555 1_555
N66_3 C147_3 1_555 1_555
N67_3 C25_3 1_555 1_555
N68_3 C149_3 1_555 1_555
N69_3 C150_3 1_555 1_555
N70_3 C149_3 1_555 1_555
S3_3 C27_3 1_555 1_555
S4_3 C28_3 1_555 1_555
S5_3 C29_3 1_555 1_555
S8_3 C152_3 1_555 1_555
S9_3 C153_3 1_555 1_555
S10_3 C154_3 1_555 1_555
C27_3 N11_3 1_555 1_555
C29_3 N13_3 1_555 1_555
C32_3 N21_3 1_555 1_555
C35_3 N24_3 1_555 1_555
C36_3 N25_3 1_555 1_555
H17_3 C32_3 1_555 1_555
H20_3 C35_3 1_555 1_555
H21_3 C36_3 1_555 1_555
C37_3 C32_3 1_555 1_555
C40_3 C35_3 1_555 1_555
C41_3 C36_3 1_555 1_555
C42_3 C37_3 1_555 1_555
C45_3 C40_3 1_555 1_555
C46_3 C41_3 1_555 1_555
H22_3 C42_3 1_555 1_555
H25_3 C45_3 1_555 1_555
H26_3 C46_3 1_555 1_555
C47_3 C42_3 1_555 1_555
C50_3 C45_3 1_555 1_555
C51_3 C46_3 1_555 1_555
H27_3 C47_3 1_555 1_555
H30_3 C50_3 1_555 1_555
H31_3 C51_3 1_555 1_555
C52_3 N21_3 1_555 1_555
C55_3 N24_3 1_555 1_555
C56_3 N25_3 1_555 1_555
H32_3 C52_3 1_555 1_555
H35_3 C55_3 1_555 1_555
H36_3 C56_3 1_555 1_555
C57_3 N28_3 1_555 1_555
C60_3 H40_3 1_555 1_555
C61_3 H41_3 1_555 1_555
H37_3 C57_3 1_555 1_555
C62_3 C57_3 1_555 1_555
C65_3 C60_3 1_555 1_555
C66_3 C61_3 1_555 1_555
H42_3 C62_3 1_555 1_555
H45_3 C65_3 1_555 1_555
H46_3 C66_3 1_555 1_555
C67_3 C62_3 1_555 1_555
C70_3 C65_3 1_555 1_555
C71_3 C66_3 1_555 1_555
H47_3 C67_3 1_555 1_555
H50_3 C70_3 1_555 1_555
H51_3 C71_3 1_555 1_555
C72_3 C67_3 1_555 1_555
C75_3 C70_3 1_555 1_555
C76_3 C71_3 1_555 1_555
C77_3 N28_3 1_555 1_555
C80_3 N31_3 1_555 1_555
C81_3 N32_3 1_555 1_555
H52_3 C77_3 1_555 1_555
H55_3 C80_3 1_555 1_555
H56_3 C81_3 1_555 1_555
C82_3 C72_3 1_555 1_555
C85_3 C75_3 1_555 1_555
C86_3 C76_3 1_555 1_555
C87_3 N40_3 1_555 1_555
C90_3 N43_3 1_555 1_555
C91_3 N44_3 1_555 1_555
C92_3 N35_3 1_555 1_555
C95_3 N38_3 1_555 1_555
C96_3 N39_3 1_555 1_555
C97_3 N50_3 1_555 1_555
C100_3 N53_3 1_555 1_555
C101_3 H61_3 1_555 1_555
H57_3 C97_3 1_555 1_555
H60_3 C100_3 1_555 1_555
C102_3 C97_3 1_555 1_555
C105_3 C100_3 1_555 1_555
C106_3 C101_3 1_555 1_555
H62_3 C102_3 1_555 1_555
H65_3 C105_3 1_555 1_555
H66_3 C106_3 1_555 1_555
C107_3 C102_3 1_555 1_555
C110_3 C105_3 1_555 1_555
C111_3 C106_3 1_555 1_555
H67_3 C107_3 1_555 1_555
H70_3 C110_3 1_555 1_555
H71_3 C111_3 1_555 1_555
C112_3 C92_3 1_555 1_555
C115_3 C95_3 1_555 1_555
C116_3 C96_3 1_555 1_555
C117_3 N50_3 1_555 1_555
C120_3 N53_3 1_555 1_555
C121_3 N54_3 1_555 1_555
H72_3 C117_3 1_555 1_555
H75_3 C120_3 1_555 1_555
H76_3 C121_3 1_555 1_555
C122_3 H77_3 1_555 1_555
C123_3 H78_3 1_555 1_555
C124_3 N59_3 1_555 1_555
C125_3 H80_3 1_555 1_555
C126_3 H81_3 1_555 1_555
H79_3 C124_3 1_555 1_555
C127_3 C122_3 1_555 1_555
C128_3 C123_3 1_555 1_555
C129_3 C124_3 1_555 1_555
C130_3 C125_3 1_555 1_555
C131_3 C126_3 1_555 1_555
H82_3 C127_3 1_555 1_555
H83_3 C128_3 1_555 1_555
H84_3 C129_3 1_555 1_555
H85_3 C130_3 1_555 1_555
H86_3 C131_3 1_555 1_555
C132_3 C127_3 1_555 1_555
C133_3 C128_3 1_555 1_555
C134_3 C129_3 1_555 1_555
C135_3 C130_3 1_555 1_555
C136_3 C131_3 1_555 1_555
H87_3 C132_3 1_555 1_555
H88_3 C133_3 1_555 1_555
H89_3 C134_3 1_555 1_555
H90_3 C135_3 1_555 1_555
H91_3 C136_3 1_555 1_555
C137_3 C132_3 1_555 1_555
C138_3 C133_3 1_555 1_555
C139_3 C134_3 1_555 1_555
C140_3 C135_3 1_555 1_555
C141_3 C136_3 1_555 1_555
C142_3 N57_3 1_555 1_555
C143_3 N58_3 1_555 1_555
C144_3 N59_3 1_555 1_555
C145_3 N60_3 1_555 1_555
C146_3 N61_3 1_555 1_555
H92_3 C142_3 1_555 1_555
H93_3 C143_3 1_555 1_555
H94_3 C144_3 1_555 1_555
H95_3 C145_3 1_555 1_555
H96_3 C146_3 1_555 1_555
C147_3 N10_3 1_555 1_555
C148_3 N66_3 1_555 1_555
C149_3 C139_3 1_555 1_555
C150_3 N68_3 1_555 1_555
C151_3 N69_3 1_555 1_555
C152_3 N16_3 1_555 1_555
C154_3 N18_3 1_555 1_555
N7_3 C14_3 1_555 1_555
C3_3 C13_3 1_555 1_555
C5_3 C6_3 1_555 1_555
C10_3 C11_3 1_555 1_555
C17_3 C18_3 1_555 1_555
C18_3 C19_3 1_555 1_555
C23_3 C24_3 1_555 1_555
N45_3 C92_3 1_555 1_555
N48_3 C95_3 1_555 1_555
N49_3 C96_3 1_555 1_555
N67_3 C148_3 1_555 1_555
N70_3 C151_3 1_555 1_555
C37_3 C87_3 1_555 1_555
C40_3 C90_3 1_555 1_555
C41_3 C91_3 1_555 1_555
C47_3 C52_3 1_555 1_555
C50_3 C55_3 1_555 1_555
C51_3 C56_3 1_555 1_555
C72_3 C77_3 1_555 1_555
C75_3 C80_3 1_555 1_555
C76_3 C81_3 1_555 1_555
C107_3 C112_3 1_555 1_555
C110_3 C115_3 1_555 1_555
C111_3 C116_3 1_555 1_555
C112_3 C117_3 1_555 1_555
C115_3 C120_3 1_555 1_555
C116_3 C121_3 1_555 1_555
C137_3 C142_3 1_555 1_555
C137_3 C148_3 1_555 1_555
C138_3 C143_3 1_555 1_555
C138_3 C147_3 1_555 1_555
C139_3 C144_3 1_555 1_555
C140_3 C145_3 1_555 1_555
C140_3 C151_3 1_555 1_555
C141_3 C146_3 1_555 1_555
C141_3 C150_3 1_555 1_555
Co1_5 N1_4 1_555 1_555
Co2_4 N2_4 1_555 1_555
N1_4 C1_4 1_555 1_555
N2_4 C26_4 1_555 1_555
N27_2 C2_4 1_555 1_555
N4_4 Co1_5 1_555 1_555
N5_4 C12_4 1_555 1_555
N6_4 C12_4 1_555 1_555
N7_4 C13_4 1_555 1_555
N8_4 Co2_4 1_555 1_555
N9_4 Co2_4 1_555 1_555
N10_4 C25_4 1_555 1_555
S1_4 C1_4 1_555 1_555
S2_4 C26_4 1_555 1_555
C2_4 H1_4 1_555 1_555
C3_4 C2_4 1_555 1_555
C4_4 C3_4 1_555 1_555
H2_4 C4_4 1_555 1_555
C5_4 C4_4 1_555 1_555
H3_4 C5_4 1_555 1_555
C6_4 N27_2 1_555 1_555
H4_4 C6_4 1_555 1_555
C7_4 N4_4 1_555 1_555
H5_4 C7_4 1_555 1_555
C8_4 C7_4 1_555 1_555
H6_4 C8_4 1_555 1_555
C9_4 C8_4 1_555 1_555
H7_4 C9_4 1_555 1_555
C10_4 C9_4 1_555 1_555
C11_4 N4_4 1_555 1_555
H8_4 C11_4 1_555 1_555
C12_4 C10_4 1_555 1_555
C13_4 N6_4 1_555 1_555
C14_4 N5_4 1_555 1_555
C15_4 N8_4 1_555 1_555
H9_4 C15_4 1_555 1_555
C16_4 C15_4 1_555 1_555
H10_4 C16_4 1_555 1_555
C17_4 C16_4 1_555 1_555
H11_4 C17_4 1_555 1_555
C18_4 C14_4 1_555 1_555
C19_4 N8_4 1_555 1_555
H12_4 C19_4 1_555 1_555
C20_4 N9_4 1_555 1_555
H13_4 C20_4 1_555 1_555
C21_4 C20_4 1_555 1_555
H14_4 C21_4 1_555 1_555
C22_4 C21_4 1_555 1_555
H15_4 C22_4 1_555 1_555
C23_4 C22_4 1_555 1_555
C24_4 N9_4 1_555 1_555
H16_4 C24_4 1_555 1_555
C25_4 C23_4 1_555 1_555
Co3_5 N12_4 1_555 1_555
Co5_3 N14_4 1_555 1_555
Co6_4 N23_4 1_555 1_555
Co7_5 N31_4 1_555 1_555
Co8_4 N32_4 1_555 1_555
Co9_4 N17_4 1_555 1_555
Co10_4 N19_4 1_555 1_555
Co11_3 N57_4 1_555 1_555
Co13_4 N52_4 1_555 1_555
Co14_4 N60_4 1_555 1_555
Co15_4 N61_4 1_555 1_555
Co16_3 N54_4 1_555 1_555
N11_4 Co1_5 1_555 1_555
N12_4 C28_4 1_555 1_555
N13_4 Co3_5 1_555 1_555
N14_4 C30_4 1_555 1_555
N15_4 Co5_3 1_555 1_555
N16_4 Co2_4 1_555 1_555
N17_4 C153_4 1_555 1_555
N18_4 Co9_4 1_555 1_555
N19_4 C155_4 1_555 1_555
N20_4 Co10_4 1_555 1_555
N21_4 Co1_5 1_555 1_555
N22_4 Co1_5 1_555 1_555
N23_4 C34_4 1_555 1_555
N24_4 Co3_5 1_555 1_555
N25_4 Co3_5 1_555 1_555
N26_4 Co5_3 1_555 1_555
N28_4 Co3_5 1_555 1_555
N29_4 Co5_3 1_555 1_555
N30_4 Co1_5 1_555 1_555
N31_4 C60_4 1_555 1_555
N32_4 C61_4 1_555 1_555
N33_4 Co3_5 1_555 1_555
N34_4 Co5_3 1_555 1_555
N35_4 C82_4 1_555 1_555
N36_4 C83_4 1_555 1_555
N37_4 C84_4 1_555 1_555
N38_4 C85_4 1_555 1_555
N39_4 C86_4 1_555 1_555
N40_4 C82_4 1_555 1_555
N41_4 C83_4 1_555 1_555
N42_4 C84_4 1_555 1_555
N43_4 C85_4 1_555 1_555
N44_4 C86_4 1_555 1_555
N45_4 C87_4 1_555 1_555
N46_4 C88_4 1_555 1_555
N47_4 C89_4 1_555 1_555
N48_4 C90_4 1_555 1_555
N49_4 C91_4 1_555 1_555
N50_4 Co9_4 1_555 1_555
N51_4 Co10_4 1_555 1_555
N52_4 C99_4 1_555 1_555
N53_4 Co2_4 1_555 1_555
N54_4 C101_4 1_555 1_555
N55_4 Co9_4 1_555 1_555
N56_4 Co10_4 1_555 1_555
N57_4 C122_4 1_555 1_555
N58_4 C123_4 1_555 1_555
N59_4 Co2_4 1_555 1_555
N60_4 C125_4 1_555 1_555
N61_4 C126_4 1_555 1_555
N62_4 Co9_4 1_555 1_555
N63_4 Co9_4 1_555 1_555
N64_4 Co10_4 1_555 1_555
N65_4 Co10_4 1_555 1_555
N66_4 C147_4 1_555 1_555
N67_4 C25_4 1_555 1_555
N68_4 C149_4 1_555 1_555
N69_4 C150_4 1_555 1_555
N70_4 C149_4 1_555 1_555
S3_4 C27_4 1_555 1_555
S4_4 C28_4 1_555 1_555
S5_4 C29_4 1_555 1_555
S6_4 C30_4 1_555 1_555
S7_4 C31_4 1_555 1_555
S8_4 C152_4 1_555 1_555
S9_4 C153_4 1_555 1_555
S10_4 C154_4 1_555 1_555
S11_4 C155_4 1_555 1_555
S12_4 C156_4 1_555 1_555
C27_4 N11_4 1_555 1_555
C29_4 N13_4 1_555 1_555
C31_4 N15_4 1_555 1_555
C32_4 N21_4 1_555 1_555
C33_4 N22_4 1_555 1_555
C34_4 H19_4 1_555 1_555
C35_4 N24_4 1_555 1_555
C36_4 N25_4 1_555 1_555
H17_4 C32_4 1_555 1_555
H18_4 C33_4 1_555 1_555
H20_4 C35_4 1_555 1_555
H21_4 C36_4 1_555 1_555
C37_4 C32_4 1_555 1_555
C38_4 C33_4 1_555 1_555
C39_4 C34_4 1_555 1_555
C40_4 C35_4 1_555 1_555
C41_4 C36_4 1_555 1_555
C42_4 C37_4 1_555 1_555
C43_4 C38_4 1_555 1_555
C44_4 C39_4 1_555 1_555
C45_4 C40_4 1_555 1_555
C46_4 C41_4 1_555 1_555
H22_4 C42_4 1_555 1_555
H23_4 C43_4 1_555 1_555
H24_4 C44_4 1_555 1_555
H25_4 C45_4 1_555 1_555
H26_4 C46_4 1_555 1_555
C47_4 C42_4 1_555 1_555
C48_4 C43_4 1_555 1_555
C49_4 C44_4 1_555 1_555
C50_4 C45_4 1_555 1_555
C51_4 C46_4 1_555 1_555
H27_4 C47_4 1_555 1_555
H28_4 C48_4 1_555 1_555
H29_4 C49_4 1_555 1_555
H30_4 C50_4 1_555 1_555
H31_4 C51_4 1_555 1_555
C52_4 N21_4 1_555 1_555
C53_4 N22_4 1_555 1_555
C54_4 N23_4 1_555 1_555
C55_4 N24_4 1_555 1_555
C56_4 N25_4 1_555 1_555
H32_4 C52_4 1_555 1_555
H33_4 C53_4 1_555 1_555
H34_4 C54_4 1_555 1_555
H35_4 C55_4 1_555 1_555
H36_4 C56_4 1_555 1_555
C57_4 N28_4 1_555 1_555
C58_4 N29_4 1_555 1_555
C59_4 N30_4 1_555 1_555
C60_4 H40_4 1_555 1_555
C61_4 H41_4 1_555 1_555
H37_4 C57_4 1_555 1_555
H38_4 C58_4 1_555 1_555
H39_4 C59_4 1_555 1_555
C62_4 C57_4 1_555 1_555
C63_4 C58_4 1_555 1_555
C64_4 C59_4 1_555 1_555
C65_4 C60_4 1_555 1_555
C66_4 C61_4 1_555 1_555
H42_4 C62_4 1_555 1_555
H43_4 C63_4 1_555 1_555
H44_4 C64_4 1_555 1_555
H45_4 C65_4 1_555 1_555
H46_4 C66_4 1_555 1_555
C67_4 C62_4 1_555 1_555
C68_4 C63_4 1_555 1_555
C69_4 C64_4 1_555 1_555
C70_4 C65_4 1_555 1_555
C71_4 C66_4 1_555 1_555
H47_4 C67_4 1_555 1_555
H48_4 C68_4 1_555 1_555
H49_4 C69_4 1_555 1_555
H50_4 C70_4 1_555 1_555
H51_4 C71_4 1_555 1_555
C72_4 C67_4 1_555 1_555
C73_4 C68_4 1_555 1_555
C74_4 C69_4 1_555 1_555
C75_4 C70_4 1_555 1_555
C76_4 C71_4 1_555 1_555
C77_4 N28_4 1_555 1_555
C78_4 N29_4 1_555 1_555
C79_4 N30_4 1_555 1_555
C80_4 N31_4 1_555 1_555
C81_4 N32_4 1_555 1_555
H52_4 C77_4 1_555 1_555
H53_4 C78_4 1_555 1_555
H54_4 C79_4 1_555 1_555
H55_4 C80_4 1_555 1_555
H56_4 C81_4 1_555 1_555
C82_4 C72_4 1_555 1_555
C83_4 C73_4 1_555 1_555
C84_4 C74_4 1_555 1_555
C85_4 C75_4 1_555 1_555
C86_4 C76_4 1_555 1_555
C87_4 N40_4 1_555 1_555
C88_4 N41_4 1_555 1_555
C89_4 N42_4 1_555 1_555
C90_4 N43_4 1_555 1_555
C91_4 N44_4 1_555 1_555
C92_4 N35_4 1_555 1_555
C93_4 N36_4 1_555 1_555
C94_4 N37_4 1_555 1_555
C95_4 N38_4 1_555 1_555
C96_4 N39_4 1_555 1_555
C97_4 N50_4 1_555 1_555
C98_4 N51_4 1_555 1_555
C99_4 H59_4 1_555 1_555
C100_4 N53_4 1_555 1_555
C101_4 H61_4 1_555 1_555
H57_4 C97_4 1_555 1_555
H58_4 C98_4 1_555 1_555
H60_4 C100_4 1_555 1_555
C102_4 C97_4 1_555 1_555
C103_4 C98_4 1_555 1_555
C104_4 C99_4 1_555 1_555
C105_4 C100_4 1_555 1_555
C106_4 C101_4 1_555 1_555
H62_4 C102_4 1_555 1_555
H63_4 C103_4 1_555 1_555
H64_4 C104_4 1_555 1_555
H65_4 C105_4 1_555 1_555
H66_4 C106_4 1_555 1_555
C107_4 C102_4 1_555 1_555
C108_4 C103_4 1_555 1_555
C109_4 C104_4 1_555 1_555
C110_4 C105_4 1_555 1_555
C111_4 C106_4 1_555 1_555
H67_4 C107_4 1_555 1_555
H68_4 C108_4 1_555 1_555
H69_4 C109_4 1_555 1_555
H70_4 C110_4 1_555 1_555
H71_4 C111_4 1_555 1_555
C112_4 C92_4 1_555 1_555
C113_4 C93_4 1_555 1_555
C114_4 C94_4 1_555 1_555
C115_4 C95_4 1_555 1_555
C116_4 C96_4 1_555 1_555
C117_4 N50_4 1_555 1_555
C118_4 N51_4 1_555 1_555
C119_4 N52_4 1_555 1_555
C120_4 N53_4 1_555 1_555
C121_4 N54_4 1_555 1_555
H72_4 C117_4 1_555 1_555
H73_4 C118_4 1_555 1_555
H74_4 C119_4 1_555 1_555
H75_4 C120_4 1_555 1_555
H76_4 C121_4 1_555 1_555
C122_4 H77_4 1_555 1_555
C123_4 H78_4 1_555 1_555
C124_4 N59_4 1_555 1_555
C125_4 H80_4 1_555 1_555
C126_4 H81_4 1_555 1_555
H79_4 C124_4 1_555 1_555
C127_4 C122_4 1_555 1_555
C128_4 C123_4 1_555 1_555
C129_4 C124_4 1_555 1_555
C130_4 C125_4 1_555 1_555
C131_4 C126_4 1_555 1_555
H82_4 C127_4 1_555 1_555
H83_4 C128_4 1_555 1_555
H84_4 C129_4 1_555 1_555
H85_4 C130_4 1_555 1_555
H86_4 C131_4 1_555 1_555
C132_4 C127_4 1_555 1_555
C133_4 C128_4 1_555 1_555
C134_4 C129_4 1_555 1_555
C135_4 C130_4 1_555 1_555
C136_4 C131_4 1_555 1_555
H87_4 C132_4 1_555 1_555
H88_4 C133_4 1_555 1_555
H89_4 C134_4 1_555 1_555
H90_4 C135_4 1_555 1_555
H91_4 C136_4 1_555 1_555
C137_4 C132_4 1_555 1_555
C138_4 C133_4 1_555 1_555
C139_4 C134_4 1_555 1_555
C140_4 C135_4 1_555 1_555
C141_4 C136_4 1_555 1_555
C142_4 N57_4 1_555 1_555
C143_4 N58_4 1_555 1_555
C144_4 N59_4 1_555 1_555
C145_4 N60_4 1_555 1_555
C146_4 N61_4 1_555 1_555
H92_4 C142_4 1_555 1_555
H93_4 C143_4 1_555 1_555
H94_4 C144_4 1_555 1_555
H95_4 C145_4 1_555 1_555
H96_4 C146_4 1_555 1_555
C147_4 N10_4 1_555 1_555
C148_4 N66_4 1_555 1_555
C149_4 C139_4 1_555 1_555
C150_4 N68_4 1_555 1_555
C151_4 N69_4 1_555 1_555
C152_4 N16_4 1_555 1_555
C154_4 N18_4 1_555 1_555
C156_4 N20_4 1_555 1_555
N7_4 C14_4 1_555 1_555
C3_4 C13_4 1_555 1_555
C5_4 C6_4 1_555 1_555
C10_4 C11_4 1_555 1_555
C17_4 C18_4 1_555 1_555
C18_4 C19_4 1_555 1_555
C23_4 C24_4 1_555 1_555
N45_4 C92_4 1_555 1_555
N46_4 C93_4 1_555 1_555
N47_4 C94_4 1_555 1_555
N48_4 C95_4 1_555 1_555
N49_4 C96_4 1_555 1_555
N67_4 C148_4 1_555 1_555
N70_4 C151_4 1_555 1_555
C37_4 C87_4 1_555 1_555
C38_4 C88_4 1_555 1_555
C39_4 C89_4 1_555 1_555
C40_4 C90_4 1_555 1_555
C41_4 C91_4 1_555 1_555
C47_4 C52_4 1_555 1_555
C48_4 C53_4 1_555 1_555
C49_4 C54_4 1_555 1_555
C50_4 C55_4 1_555 1_555
C51_4 C56_4 1_555 1_555
C72_4 C77_4 1_555 1_555
C73_4 C78_4 1_555 1_555
C74_4 C79_4 1_555 1_555
C75_4 C80_4 1_555 1_555
C76_4 C81_4 1_555 1_555
C107_4 C112_4 1_555 1_555
C108_4 C113_4 1_555 1_555
C109_4 C114_4 1_555 1_555
C110_4 C115_4 1_555 1_555
C111_4 C116_4 1_555 1_555
C112_4 C117_4 1_555 1_555
C113_4 C118_4 1_555 1_555
C114_4 C119_4 1_555 1_555
C115_4 C120_4 1_555 1_555
C116_4 C121_4 1_555 1_555
C137_4 C142_4 1_555 1_555
C137_4 C148_4 1_555 1_555
C138_4 C143_4 1_555 1_555
C138_4 C147_4 1_555 1_555
C139_4 C144_4 1_555 1_555
C140_4 C145_4 1_555 1_555
C140_4 C151_4 1_555 1_555
C141_4 C146_4 1_555 1_555
C141_4 C150_4 1_555 1_555
Co3_6 N12_5 1_555 1_555
Co8_5 N32_5 1_555 1_555
Co14 N54_5 1_555 1_555
N12_5 C28_5 1_555 1_555
N25_5 Co3_6 1_555 1_555
N32_5 C61_5 1_555 1_555
N33_5 Co3_6 1_555 1_555
N39_5 C86_5 1_555 1_555
N44_5 C86_5 1_555 1_555
N49_5 C91_5 1_555 1_555
N54_5 C101_5 1_555 1_555
S4_5 C28_5 1_555 1_555
S11_5 C155_5 1_555 1_555
S12_5 C156_5 1_555 1_555
C36_5 N25_5 1_555 1_555
H21_5 C36_5 1_555 1_555
C41_5 C36_5 1_555 1_555
C46_5 C41_5 1_555 1_555
H26_5 C46_5 1_555 1_555
C51_5 C46_5 1_555 1_555
H31_5 C51_5 1_555 1_555
C56_5 N25_5 1_555 1_555
H36_5 C56_5 1_555 1_555
C61_5 H41_5 1_555 1_555
C66_5 C61_5 1_555 1_555
H46_5 C66_5 1_555 1_555
C71_5 C66_5 1_555 1_555
H51_5 C71_5 1_555 1_555
C76_5 C71_5 1_555 1_555
C81_5 N32_5 1_555 1_555
H56_5 C81_5 1_555 1_555
C86_5 C76_5 1_555 1_555
C91_5 N44_5 1_555 1_555
C96_5 N39_5 1_555 1_555
C101_5 H61_5 1_555 1_555
C106_5 C101_5 1_555 1_555
H66_5 C106_5 1_555 1_555
C111_5 C106_5 1_555 1_555
H71_5 C111_5 1_555 1_555
C116_5 C96_5 1_555 1_555
C121_5 N54_5 1_555 1_555
H76_5 C121_5 1_555 1_555
N49_5 C96_5 1_555 1_555
C41_5 C91_5 1_555 1_555
C51_5 C56_5 1_555 1_555
C76_5 C81_5 1_555 1_555
C111_5 C116_5 1_555 1_555
C116_5 C121_5 1_555 1_555
Co1_6 N1_5 1_555 1_555
Co2_5 N2_5 1_555 1_555
N1_5 C1_5 1_555 1_555
N3_4 C2_5 1_555 1_555
N4_5 Co1_6 1_555 1_555
N5_5 C12_5 1_555 1_555
N6_5 C12_5 1_555 1_555
N7_5 C13_5 1_555 1_555
N8_5 Co2_5 1_555 1_555
S1_5 C1_5 1_555 1_555
C2_5 H1_5 1_555 1_555
C3_5 C2_5 1_555 1_555
C4_5 C3_5 1_555 1_555
H2_5 C4_5 1_555 1_555
C5_5 C4_5 1_555 1_555
H3_5 C5_5 1_555 1_555
C6_5 N3_4 1_555 1_555
H4_5 C6_5 1_555 1_555
C7_5 N4_5 1_555 1_555
H5_5 C7_5 1_555 1_555
C8_5 C7_5 1_555 1_555
H6_5 C8_5 1_555 1_555
C9_5 C8_5 1_555 1_555
H7_5 C9_5 1_555 1_555
C10_5 C9_5 1_555 1_555
C11_5 N4_5 1_555 1_555
H8_5 C11_5 1_555 1_555
C12_5 C10_5 1_555 1_555
C13_5 N6_5 1_555 1_555
C14_5 N5_5 1_555 1_555
C15_5 N8_5 1_555 1_555
H9_5 C15_5 1_555 1_555
C16_5 C15_5 1_555 1_555
H10_5 C16_5 1_555 1_555
C17_5 C16_5 1_555 1_555
H11_5 C17_5 1_555 1_555
C18_5 C14_5 1_555 1_555
C19_5 N8_5 1_555 1_555
H12_5 C19_5 1_555 1_555
Co5_4 N3_4 1_555 1_555
Co6_5 N23_5 1_555 1_555
Co7_6 N31_5 1_555 1_555
Co9_5 N17_5 1_555 1_555
Co10_5 N19_5 1_555 1_555
Co16_2 N52_5 1_555 1_555
N11_5 Co1_6 1_555 1_555
N13_5 Co3_7 1_555 1_555
N16_5 Co2_5 1_555 1_555
N17_5 C153_5 1_555 1_555
N18_5 Co9_5 1_555 1_555
N20_5 Co10_5 1_555 1_555
N21_5 Co1_6 1_555 1_555
N22_5 Co1_6 1_555 1_555
N23_5 C34_5 1_555 1_555
N24_5 Co3_7 1_555 1_555
N28_5 Co3_7 1_555 1_555
N30_5 Co1_6 1_555 1_555
N31_5 C60_5 1_555 1_555
N35_5 C82_5 1_555 1_555
N36_5 C83_5 1_555 1_555
N37_5 C84_5 1_555 1_555
N38_5 C85_5 1_555 1_555
N40_5 C82_5 1_555 1_555
N41_5 C83_5 1_555 1_555
N42_5 C84_5 1_555 1_555
N43_5 C85_5 1_555 1_555
N45_5 C87_5 1_555 1_555
N46_5 C88_5 1_555 1_555
N47_5 C89_5 1_555 1_555
N48_5 C90_5 1_555 1_555
N50_5 Co9_5 1_555 1_555
N51_5 Co10_5 1_555 1_555
N52_5 C99_5 1_555 1_555
N53_5 Co2_5 1_555 1_555
N55_5 Co9_5 1_555 1_555
N56_5 Co10_5 1_555 1_555
N62_5 Co9_5 1_555 1_555
N63_5 Co9_5 1_555 1_555
S3_5 C27_5 1_555 1_555
S5_5 C29_5 1_555 1_555
S9_5 C153_5 1_555 1_555
S10_5 C154_5 1_555 1_555
C27_5 N11_5 1_555 1_555
C29_5 N13_5 1_555 1_555
C32_5 N21_5 1_555 1_555
C33_5 N22_5 1_555 1_555
C34_5 H19_5 1_555 1_555
C35_5 N24_5 1_555 1_555
H17_5 C32_5 1_555 1_555
H18_5 C33_5 1_555 1_555
H20_5 C35_5 1_555 1_555
C37_5 C32_5 1_555 1_555
C38_5 C33_5 1_555 1_555
C39_5 C34_5 1_555 1_555
C40_5 C35_5 1_555 1_555
C42_5 C37_5 1_555 1_555
C43_5 C38_5 1_555 1_555
C44_5 C39_5 1_555 1_555
C45_5 C40_5 1_555 1_555
H22_5 C42_5 1_555 1_555
H23_5 C43_5 1_555 1_555
H24_5 C44_5 1_555 1_555
H25_5 C45_5 1_555 1_555
C47_5 C42_5 1_555 1_555
C48_5 C43_5 1_555 1_555
C49_5 C44_5 1_555 1_555
C50_5 C45_5 1_555 1_555
H27_5 C47_5 1_555 1_555
H28_5 C48_5 1_555 1_555
H29_5 C49_5 1_555 1_555
H30_5 C50_5 1_555 1_555
C52_5 N21_5 1_555 1_555
C53_5 N22_5 1_555 1_555
C54_5 N23_5 1_555 1_555
C55_5 N24_5 1_555 1_555
H32_5 C52_5 1_555 1_555
H33_5 C53_5 1_555 1_555
H34_5 C54_5 1_555 1_555
H35_5 C55_5 1_555 1_555
C57_5 N28_5 1_555 1_555
C58_5 N33_3 1_555 1_555
C59_5 N30_5 1_555 1_555
C60_5 H40_5 1_555 1_555
H37_5 C57_5 1_555 1_555
H38_5 C58_5 1_555 1_555
H39_5 C59_5 1_555 1_555
C62_5 C57_5 1_555 1_555
C63_5 C58_5 1_555 1_555
C64_5 C59_5 1_555 1_555
C65_5 C60_5 1_555 1_555
H42_5 C62_5 1_555 1_555
H43_5 C63_5 1_555 1_555
H44_5 C64_5 1_555 1_555
H45_5 C65_5 1_555 1_555
C67_5 C62_5 1_555 1_555
C68_5 C63_5 1_555 1_555
C69_5 C64_5 1_555 1_555
C70_5 C65_5 1_555 1_555
H47_5 C67_5 1_555 1_555
H48_5 C68_5 1_555 1_555
H49_5 C69_5 1_555 1_555
H50_5 C70_5 1_555 1_555
C72_5 C67_5 1_555 1_555
C73_5 C68_5 1_555 1_555
C74_5 C69_5 1_555 1_555
C75_5 C70_5 1_555 1_555
C77_5 N28_5 1_555 1_555
C78_5 N33_3 1_555 1_555
C79_5 N30_5 1_555 1_555
C80_5 N31_5 1_555 1_555
H52_5 C77_5 1_555 1_555
H53_5 C78_5 1_555 1_555
H54_5 C79_5 1_555 1_555
H55_5 C80_5 1_555 1_555
C82_5 C72_5 1_555 1_555
C83_5 C73_5 1_555 1_555
C84_5 C74_5 1_555 1_555
C85_5 C75_5 1_555 1_555
C87_5 N40_5 1_555 1_555
C88_5 N41_5 1_555 1_555
C89_5 N42_5 1_555 1_555
C90_5 N43_5 1_555 1_555
C92_5 N35_5 1_555 1_555
C93_5 N36_5 1_555 1_555
C94_5 N37_5 1_555 1_555
C95_5 N38_5 1_555 1_555
C97_5 N50_5 1_555 1_555
C98_5 N51_5 1_555 1_555
C99_5 H59_5 1_555 1_555
C100_5 N53_5 1_555 1_555
H57_5 C97_5 1_555 1_555
H58_5 C98_5 1_555 1_555
H60_5 C100_5 1_555 1_555
C102_5 C97_5 1_555 1_555
C103_5 C98_5 1_555 1_555
C104_5 C99_5 1_555 1_555
C105_5 C100_5 1_555 1_555
H62_5 C102_5 1_555 1_555
H63_5 C103_5 1_555 1_555
H64_5 C104_5 1_555 1_555
H65_5 C105_5 1_555 1_555
C107_5 C102_5 1_555 1_555
C108_5 C103_5 1_555 1_555
C109_5 C104_5 1_555 1_555
C110_5 C105_5 1_555 1_555
H67_5 C107_5 1_555 1_555
H68_5 C108_5 1_555 1_555
H69_5 C109_5 1_555 1_555
H70_5 C110_5 1_555 1_555
C112_5 C92_5 1_555 1_555
C113_5 C93_5 1_555 1_555
C114_5 C94_5 1_555 1_555
C115_5 C95_5 1_555 1_555
C117_5 N50_5 1_555 1_555
C118_5 N51_5 1_555 1_555
C119_5 N52_5 1_555 1_555
C120_5 N53_5 1_555 1_555
H72_5 C117_5 1_555 1_555
H73_5 C118_5 1_555 1_555
H74_5 C119_5 1_555 1_555
H75_5 C120_5 1_555 1_555
C154_5 N18_5 1_555 1_555
N7_5 C14_5 1_555 1_555
C3_5 C13_5 1_555 1_555
C5_5 C6_5 1_555 1_555
C10_5 C11_5 1_555 1_555
C17_5 C18_5 1_555 1_555
C18_5 C19_5 1_555 1_555
N45_5 C92_5 1_555 1_555
N46_5 C93_5 1_555 1_555
N47_5 C94_5 1_555 1_555
N48_5 C95_5 1_555 1_555
C37_5 C87_5 1_555 1_555
C38_5 C88_5 1_555 1_555
C39_5 C89_5 1_555 1_555
C40_5 C90_5 1_555 1_555
C47_5 C52_5 1_555 1_555
C48_5 C53_5 1_555 1_555
C49_5 C54_5 1_555 1_555
C50_5 C55_5 1_555 1_555
C72_5 C77_5 1_555 1_555
C73_5 C78_5 1_555 1_555
C74_5 C79_5 1_555 1_555
C75_5 C80_5 1_555 1_555
C107_5 C112_5 1_555 1_555
C108_5 C113_5 1_555 1_555
C109_5 C114_5 1_555 1_555
C110_5 C115_5 1_555 1_555
C112_5 C117_5 1_555 1_555
C113_5 C118_5 1_555 1_555
C114_5 C119_5 1_555 1_555
C115_5 C120_5 1_555 1_555
N10_5 C25_5 1_555 1_555
S2_5 C26_5 1_555 1_555
C20_5 N9_5 1_555 1_555
H13_5 C20_5 1_555 1_555
C21_5 C20_5 1_555 1_555
H14_5 C21_5 1_555 1_555
C22_5 C21_5 1_555 1_555
H15_5 C22_5 1_555 1_555
C23_5 C22_5 1_555 1_555
C24_5 N9_5 1_555 1_555
H16_5 C24_5 1_555 1_555
C25_5 C23_5 1_555 1_555
Co11_3 N57_5 1_555 1_555
Co15_4 N58_5 1_555 1_555
Co14_4 N60_5 1_555 1_555
N57_5 C122_5 1_555 1_555
N58_5 C123_5 1_555 1_555
N60_5 C125_5 1_555 1_555
N61_5 C126_5 1_555 1_555
N66_5 C147_5 1_555 1_555
N67_5 C25_5 1_555 1_555
N68_5 C149_5 1_555 1_555
N69_5 C150_5 1_555 1_555
N70_5 C149_5 1_555 1_555
S8_5 C152_5 1_555 1_555
C122_5 H77_5 1_555 1_555
C123_5 H78_5 1_555 1_555
C124_5 N59_5 1_555 1_555
C125_5 H80_5 1_555 1_555
C126_5 H81_5 1_555 1_555
H79_5 C124_5 1_555 1_555
C127_5 C122_5 1_555 1_555
C128_5 C123_5 1_555 1_555
C129_5 C124_5 1_555 1_555
C130_5 C125_5 1_555 1_555
C131_5 C126_5 1_555 1_555
H82_5 C127_5 1_555 1_555
H83_5 C128_5 1_555 1_555
H84_5 C129_5 1_555 1_555
H85_5 C130_5 1_555 1_555
H86_5 C131_5 1_555 1_555
C132_5 C127_5 1_555 1_555
C133_5 C128_5 1_555 1_555
C134_5 C129_5 1_555 1_555
C135_5 C130_5 1_555 1_555
C136_5 C131_5 1_555 1_555
H87_5 C132_5 1_555 1_555
H88_5 C133_5 1_555 1_555
H89_5 C134_5 1_555 1_555
H90_5 C135_5 1_555 1_555
H91_5 C136_5 1_555 1_555
C137_5 C132_5 1_555 1_555
C138_5 C133_5 1_555 1_555
C139_5 C134_5 1_555 1_555
C140_5 C135_5 1_555 1_555
C141_5 C136_5 1_555 1_555
C142_5 N57_5 1_555 1_555
C143_5 N58_5 1_555 1_555
C144_5 N59_5 1_555 1_555
C145_5 N60_5 1_555 1_555
C146_5 N61_5 1_555 1_555
H92_5 C142_5 1_555 1_555
H93_5 C143_5 1_555 1_555
H94_5 C144_5 1_555 1_555
H95_5 C145_5 1_555 1_555
H96_5 C146_5 1_555 1_555
C147_5 N10_5 1_555 1_555
C148_5 N66_5 1_555 1_555
C149_5 C139_5 1_555 1_555
C150_5 N68_5 1_555 1_555
C151_5 N69_5 1_555 1_555
C23_5 C24_5 1_555 1_555
N67_5 C148_5 1_555 1_555
N70_5 C151_5 1_555 1_555
C137_5 C142_5 1_555 1_555
C137_5 C148_5 1_555 1_555
C138_5 C143_5 1_555 1_555
C138_5 C147_5 1_555 1_555
C139_5 C144_5 1_555 1_555
C140_5 C145_5 1_555 1_555
C140_5 C151_5 1_555 1_555
C141_5 C146_5 1_555 1_555
C141_5 C150_5 1_555 1_555
S2_6 C26_6 1_555 1_555
N60_6 C125_6 1_555 1_555
N61_6 C126_6 1_555 1_555
N68_6 C149_6 1_555 1_555
N69_6 C150_6 1_555 1_555
N70_6 C149_6 1_555 1_555
S8_6 C152_6 1_555 1_555
C124_6 N59_6 1_555 1_555
C125_6 H80_6 1_555 1_555
C126_6 H81_6 1_555 1_555
H79_6 C124_6 1_555 1_555
C129_6 C124_6 1_555 1_555
C130_6 C125_6 1_555 1_555
C131_6 C126_6 1_555 1_555
H84_6 C129_6 1_555 1_555
H85_6 C130_6 1_555 1_555
H86_6 C131_6 1_555 1_555
C134_6 C129_6 1_555 1_555
C135_6 C130_6 1_555 1_555
C136_6 C131_6 1_555 1_555
H89_6 C134_6 1_555 1_555
H90_6 C135_6 1_555 1_555
H91_6 C136_6 1_555 1_555
C139_6 C134_6 1_555 1_555
C140_6 C135_6 1_555 1_555
C141_6 C136_6 1_555 1_555
C144_6 N59_6 1_555 1_555
C145_6 N60_6 1_555 1_555
C146_6 N61_6 1_555 1_555
H94_6 C144_6 1_555 1_555
H95_6 C145_6 1_555 1_555
H96_6 C146_6 1_555 1_555
C149_6 C139_6 1_555 1_555
C150_6 N68_6 1_555 1_555
C151_6 N69_6 1_555 1_555
N70_6 C151_6 1_555 1_555
C139_6 C144_6 1_555 1_555
C140_6 C145_6 1_555 1_555
C140_6 C151_6 1_555 1_555
C141_6 C146_6 1_555 1_555
C141_6 C150_6 1_555 1_555
Co15 N2_6 1_555 1_555
N3_5 C2_6 1_555 1_555
N4_6 Co1_7 1_555 1_555
N5_6 C12_6 1_555 1_555
N6_6 C12_6 1_555 1_555
N7_6 C13_6 1_555 1_555
N8_6 Co15 1_555 1_555
C2_6 H1_6 1_555 1_555
C3_6 C2_6 1_555 1_555
C4_6 C3_6 1_555 1_555
H2_6 C4_6 1_555 1_555
C5_6 C4_6 1_555 1_555
H3_6 C5_6 1_555 1_555
C6_6 N3_5 1_555 1_555
H4_6 C6_6 1_555 1_555
C7_6 N4_6 1_555 1_555
H5_6 C7_6 1_555 1_555
C8_6 C7_6 1_555 1_555
H6_6 C8_6 1_555 1_555
C9_6 C8_6 1_555 1_555
H7_6 C9_6 1_555 1_555
C10_6 C9_6 1_555 1_555
C11_6 N4_6 1_555 1_555
H8_6 C11_6 1_555 1_555
C12_6 C10_6 1_555 1_555
C13_6 N6_6 1_555 1_555
C14_6 N5_6 1_555 1_555
C15_6 N8_6 1_555 1_555
H9_6 C15_6 1_555 1_555
C16_6 C15_6 1_555 1_555
H10_6 C16_6 1_555 1_555
C17_6 C16_6 1_555 1_555
H11_6 C17_6 1_555 1_555
C18_6 C14_6 1_555 1_555
C19_6 N8_6 1_555 1_555
H12_6 C19_6 1_555 1_555
Co5_5 N3_5 1_555 1_555
Co8 N31_6 1_555 1_555
Co9_6 N17_6 1_555 1_555
N11_6 Co1_7 1_555 1_555
N13_6 Co3_8 1_555 1_555
N16_6 Co15 1_555 1_555
N17_6 C153_6 1_555 1_555
N18_6 Co9_6 1_555 1_555
N21_6 Co1_7 1_555 1_555
N24_6 Co3_8 1_555 1_555
N28_6 Co3_8 1_555 1_555
N31_6 C60_6 1_555 1_555
N35_6 C82_6 1_555 1_555
N38_6 C85_6 1_555 1_555
N40_6 C82_6 1_555 1_555
N43_6 C85_6 1_555 1_555
N45_6 C87_6 1_555 1_555
N48_6 C90_6 1_555 1_555
N50_6 Co9_6 1_555 1_555
N53_6 Co15 1_555 1_555
N55_6 Co9_6 1_555 1_555
N62_6 Co9_6 1_555 1_555
N63_6 Co9_6 1_555 1_555
S3_6 C27_6 1_555 1_555
S5_6 C29_6 1_555 1_555
S9_6 C153_6 1_555 1_555
S10_6 C154_6 1_555 1_555
C27_6 N11_6 1_555 1_555
C29_6 N13_6 1_555 1_555
C32_6 N21_6 1_555 1_555
C35_6 N24_6 1_555 1_555
H17_6 C32_6 1_555 1_555
H20_6 C35_6 1_555 1_555
C37_6 C32_6 1_555 1_555
C40_6 C35_6 1_555 1_555
C42_6 C37_6 1_555 1_555
C45_6 C40_6 1_555 1_555
H22_6 C42_6 1_555 1_555
H25_6 C45_6 1_555 1_555
C47_6 C42_6 1_555 1_555
C50_6 C45_6 1_555 1_555
H27_6 C47_6 1_555 1_555
H30_6 C50_6 1_555 1_555
C52_6 N21_6 1_555 1_555
C55_6 N24_6 1_555 1_555
H32_6 C52_6 1_555 1_555
H35_6 C55_6 1_555 1_555
C57_6 N28_6 1_555 1_555
C60_6 H40_6 1_555 1_555
H37_6 C57_6 1_555 1_555
C62_6 C57_6 1_555 1_555
C65_6 C60_6 1_555 1_555
H42_6 C62_6 1_555 1_555
H45_6 C65_6 1_555 1_555
C67_6 C62_6 1_555 1_555
C70_6 C65_6 1_555 1_555
H47_6 C67_6 1_555 1_555
H50_6 C70_6 1_555 1_555
C72_6 C67_6 1_555 1_555
C75_6 C70_6 1_555 1_555
C77_6 N28_6 1_555 1_555
C80_6 N31_6 1_555 1_555
H52_6 C77_6 1_555 1_555
H55_6 C80_6 1_555 1_555
C82_6 C72_6 1_555 1_555
C85_6 C75_6 1_555 1_555
C87_6 N40_6 1_555 1_555
C90_6 N43_6 1_555 1_555
C92_6 N35_6 1_555 1_555
C95_6 N38_6 1_555 1_555
C97_6 N50_6 1_555 1_555
C100_6 N53_6 1_555 1_555
H57_6 C97_6 1_555 1_555
H60_6 C100_6 1_555 1_555
C102_6 C97_6 1_555 1_555
C105_6 C100_6 1_555 1_555
H62_6 C102_6 1_555 1_555
H65_6 C105_6 1_555 1_555
C107_6 C102_6 1_555 1_555
C110_6 C105_6 1_555 1_555
H67_6 C107_6 1_555 1_555
H70_6 C110_6 1_555 1_555
C112_6 C92_6 1_555 1_555
C115_6 C95_6 1_555 1_555
C117_6 N50_6 1_555 1_555
C120_6 N53_6 1_555 1_555
H72_6 C117_6 1_555 1_555
H75_6 C120_6 1_555 1_555
C154_6 N18_6 1_555 1_555
N7_6 C14_6 1_555 1_555
C3_6 C13_6 1_555 1_555
C5_6 C6_6 1_555 1_555
C10_6 C11_6 1_555 1_555
C17_6 C18_6 1_555 1_555
C18_6 C19_6 1_555 1_555
N45_6 C92_6 1_555 1_555
N48_6 C95_6 1_555 1_555
C37_6 C87_6 1_555 1_555
C40_6 C90_6 1_555 1_555
C47_6 C52_6 1_555 1_555
C50_6 C55_6 1_555 1_555
C72_6 C77_6 1_555 1_555
C75_6 C80_6 1_555 1_555
C107_6 C112_6 1_555 1_555
C110_6 C115_6 1_555 1_555
C112_6 C117_6 1_555 1_555
C115_6 C120_6 1_555 1_555
Co1_8 N1_6 1_555 1_555
N1_6 C1_6 1_555 1_555
S1_6 C1_6 1_555 1_555
Co4_4 N14_5 1_555 1_555
Co6_8 N23_6 1_555 1_555
Co10_6 N19_6 1_555 1_555
Co11_3 N52_6 1_555 1_555
N14_5 C30_5 1_555 1_555
N15_5 Co4_4 1_555 1_555
N20_6 Co10_6 1_555 1_555
N22_6 Co1_8 1_555 1_555
N23_6 C34_6 1_555 1_555
N26_5 Co4_4 1_555 1_555
N27_3 Co4_4 1_555 1_555
N29_5 Co4_4 1_555 1_555
N30_6 Co1_8 1_555 1_555
N34_5 Co4_4 1_555 1_555
N36_6 C83_6 1_555 1_555
N37_6 C84_6 1_555 1_555
N41_6 C83_6 1_555 1_555
N42_6 C84_6 1_555 1_555
N46_6 C88_6 1_555 1_555
N47_6 C89_6 1_555 1_555
N51_6 Co10_6 1_555 1_555
N52_6 C99_6 1_555 1_555
N56_6 Co10_6 1_555 1_555
S6_5 C30_5 1_555 1_555
S7_5 C31_5 1_555 1_555
C31_5 N15_5 1_555 1_555
C33_6 N22_6 1_555 1_555
C34_6 H19_6 1_555 1_555
H18_6 C33_6 1_555 1_555
C38_6 C33_6 1_555 1_555
C39_6 C34_6 1_555 1_555
C43_6 C38_6 1_555 1_555
C44_6 C39_6 1_555 1_555
H23_6 C43_6 1_555 1_555
H24_6 C44_6 1_555 1_555
C48_6 C43_6 1_555 1_555
C49_6 C44_6 1_555 1_555
H28_6 C48_6 1_555 1_555
H29_6 C49_6 1_555 1_555
C53_6 N22_6 1_555 1_555
C54_6 N23_6 1_555 1_555
H33_6 C53_6 1_555 1_555
H34_6 C54_6 1_555 1_555
C58_6 N29_5 1_555 1_555
C59_6 N30_6 1_555 1_555
H38_6 C58_6 1_555 1_555
H39_6 C59_6 1_555 1_555
C63_6 C58_6 1_555 1_555
C64_6 C59_6 1_555 1_555
H43_6 C63_6 1_555 1_555
H44_6 C64_6 1_555 1_555
C68_6 C63_6 1_555 1_555
C69_6 C64_6 1_555 1_555
H48_6 C68_6 1_555 1_555
H49_6 C69_6 1_555 1_555
C73_6 C68_6 1_555 1_555
C74_6 C69_6 1_555 1_555
C78_6 N29_5 1_555 1_555
C79_6 N30_6 1_555 1_555
H53_6 C78_6 1_555 1_555
H54_6 C79_6 1_555 1_555
C83_6 C73_6 1_555 1_555
C84_6 C74_6 1_555 1_555
C88_6 N41_6 1_555 1_555
C89_6 N42_6 1_555 1_555
C93_6 N36_6 1_555 1_555
C94_6 N37_6 1_555 1_555
C98_6 N51_6 1_555 1_555
C99_6 H59_6 1_555 1_555
H58_6 C98_6 1_555 1_555
C103_6 C98_6 1_555 1_555
C104_6 C99_6 1_555 1_555
H63_6 C103_6 1_555 1_555
H64_6 C104_6 1_555 1_555
C108_6 C103_6 1_555 1_555
C109_6 C104_6 1_555 1_555
H68_6 C108_6 1_555 1_555
H69_6 C109_6 1_555 1_555
C113_6 C93_6 1_555 1_555
C114_6 C94_6 1_555 1_555
C118_6 N51_6 1_555 1_555
C119_6 N52_6 1_555 1_555
H73_6 C118_6 1_555 1_555
H74_6 C119_6 1_555 1_555
N46_6 C93_6 1_555 1_555
N47_6 C94_6 1_555 1_555
C38_6 C88_6 1_555 1_555
C39_6 C89_6 1_555 1_555
C48_6 C53_6 1_555 1_555
C49_6 C54_6 1_555 1_555
C73_6 C78_6 1_555 1_555
C74_6 C79_6 1_555 1_555
C108_6 C113_6 1_555 1_555
C109_6 C114_6 1_555 1_555
C113_6 C118_6 1_555 1_555
C114_6 C119_6 1_555 1_555
Co3_9 N12_6 1_555 1_555
Co8_8 N32_6 1_555 1_555
Co16_4 N54_6 1_555 1_555
N12_6 C28_6 1_555 1_555
N25_6 Co3_9 1_555 1_555
N32_6 C61_6 1_555 1_555
N33_6 Co3_9 1_555 1_555
N39_6 C86_6 1_555 1_555
N44_6 C86_6 1_555 1_555
N49_6 C91_6 1_555 1_555
N54_6 C101_6 1_555 1_555
S4_6 C28_6 1_555 1_555
C36_6 N25_6 1_555 1_555
H21_6 C36_6 1_555 1_555
C41_6 C36_6 1_555 1_555
C46_6 C41_6 1_555 1_555
H26_6 C46_6 1_555 1_555
C51_6 C46_6 1_555 1_555
H31_6 C51_6 1_555 1_555
C56_6 N25_6 1_555 1_555
H36_6 C56_6 1_555 1_555
C61_6 H41_6 1_555 1_555
C66_6 C61_6 1_555 1_555
H46_6 C66_6 1_555 1_555
C71_6 C66_6 1_555 1_555
H51_6 C71_6 1_555 1_555
C76_6 C71_6 1_555 1_555
C81_6 N32_6 1_555 1_555
H56_6 C81_6 1_555 1_555
C86_6 C76_6 1_555 1_555
C91_6 N44_6 1_555 1_555
C96_6 N39_6 1_555 1_555
C101_6 H61_6 1_555 1_555
C106_6 C101_6 1_555 1_555
H66_6 C106_6 1_555 1_555
C111_6 C106_6 1_555 1_555
H71_6 C111_6 1_555 1_555
C116_6 C96_6 1_555 1_555
C121_6 N54_6 1_555 1_555
H76_6 C121_6 1_555 1_555
N49_6 C96_6 1_555 1_555
C41_6 C91_6 1_555 1_555
C51_6 C56_6 1_555 1_555
C76_6 C81_6 1_555 1_555
C111_6 C116_6 1_555 1_555
C116_6 C121_6 1_555 1_555
S11_6 C155_6 1_555 1_555
S12_6 C156_6 1_555 1_555
Co1_9 N1_7 1_555 1_555
Co2_6 N2_7 1_555 1_555
N1_7 C1_7 1_555 1_555
N3_6 C2_7 1_555 1_555
N4_7 Co1_9 1_555 1_555
N5_7 C12_7 1_555 1_555
N6_7 C12_7 1_555 1_555
N7_7 C13_7 1_555 1_555
N8_7 Co2_6 1_555 1_555
S1_7 C1_7 1_555 1_555
C2_7 H1_7 1_555 1_555
C3_7 C2_7 1_555 1_555
C4_7 C3_7 1_555 1_555
H2_7 C4_7 1_555 1_555
C5_7 C4_7 1_555 1_555
H3_7 C5_7 1_555 1_555
C6_7 N3_6 1_555 1_555
H4_7 C6_7 1_555 1_555
C7_7 N4_7 1_555 1_555
H5_7 C7_7 1_555 1_555
C8_7 C7_7 1_555 1_555
H6_7 C8_7 1_555 1_555
C9_7 C8_7 1_555 1_555
H7_7 C9_7 1_555 1_555
C10_7 C9_7 1_555 1_555
C11_7 N4_7 1_555 1_555
H8_7 C11_7 1_555 1_555
C12_7 C10_7 1_555 1_555
C13_7 N6_7 1_555 1_555
C14_7 N5_7 1_555 1_555
C15_7 N8_7 1_555 1_555
H9_7 C15_7 1_555 1_555
C16_7 C15_7 1_555 1_555
H10_7 C16_7 1_555 1_555
C17_7 C16_7 1_555 1_555
H11_7 C17_7 1_555 1_555
C18_7 C14_7 1_555 1_555
C19_7 N8_7 1_555 1_555
H12_7 C19_7 1_555 1_555
Co3_10 N12_7 1_555 1_555
Co4_5 N14_6 1_555 1_555
Co5_6 N3_6 1_555 1_555
Co6_9 N23_7 1_555 1_555
Co7_8 N31_7 1_555 1_555
Co8_9 N32_7 1_555 1_555
Co9_7 N17_7 1_555 1_555
Co10_7 N19_7 1_555 1_555
Co13_5 N52_7 1_555 1_555
Co14_5 N54_7 1_555 1_555
N11_7 Co1_9 1_555 1_555
N12_7 C28_7 1_555 1_555
N13_7 Co3_10 1_555 1_555
N14_6 C30_6 1_555 1_555
N15_6 Co4_5 1_555 1_555
N16_7 Co2_6 1_555 1_555
N17_7 C153_7 1_555 1_555
N18_7 Co9_7 1_555 1_555
N19_7 C155_7 1_555 1_555
N20_7 Co10_7 1_555 1_555
N21_7 Co1_9 1_555 1_555
N22_7 Co1_9 1_555 1_555
N23_7 C34_7 1_555 1_555
N24_7 Co3_10 1_555 1_555
N25_7 Co3_10 1_555 1_555
N26_6 Co4_5 1_555 1_555
N27_4 Co4_5 1_555 1_555
N28_7 Co3_10 1_555 1_555
N29_6 Co4_5 1_555 1_555
N30_7 Co1_9 1_555 1_555
N31_7 C60_7 1_555 1_555
N32_7 C61_7 1_555 1_555
N33_7 Co3_10 1_555 1_555
N34_6 Co4_5 1_555 1_555
N35_7 C82_7 1_555 1_555
N36_7 C83_7 1_555 1_555
N37_7 C84_7 1_555 1_555
N38_7 C85_7 1_555 1_555
N39_7 C86_7 1_555 1_555
N40_7 C82_7 1_555 1_555
N41_7 C83_7 1_555 1_555
N42_7 C84_7 1_555 1_555
N43_7 C85_7 1_555 1_555
N44_7 C86_7 1_555 1_555
N45_7 C87_7 1_555 1_555
N46_7 C88_7 1_555 1_555
N47_7 C89_7 1_555 1_555
N48_7 C90_7 1_555 1_555
N49_7 C91_7 1_555 1_555
N50_7 Co9_7 1_555 1_555
N51_7 Co10_7 1_555 1_555
N52_7 C99_7 1_555 1_555
N53_7 Co2_6 1_555 1_555
N54_7 C101_7 1_555 1_555
N55_7 Co9_7 1_555 1_555
N56_7 Co10_7 1_555 1_555
N62_7 Co9_7 1_555 1_555
N63_7 Co9_7 1_555 1_555
N64_7 Co10_7 1_555 1_555
N65_7 Co10_7 1_555 1_555
S3_7 C27_7 1_555 1_555
S4_7 C28_7 1_555 1_555
S5_7 C29_7 1_555 1_555
S6_6 C30_6 1_555 1_555
S7_6 C31_6 1_555 1_555
S9_7 C153_7 1_555 1_555
S10_7 C154_7 1_555 1_555
S11_7 C155_7 1_555 1_555
S12_7 C156_7 1_555 1_555
C27_7 N11_7 1_555 1_555
C29_7 N13_7 1_555 1_555
C31_6 N15_6 1_555 1_555
C32_7 N21_7 1_555 1_555
C33_7 N22_7 1_555 1_555
C34_7 H19_7 1_555 1_555
C35_7 N24_7 1_555 1_555
C36_7 N25_7 1_555 1_555
H17_7 C32_7 1_555 1_555
H18_7 C33_7 1_555 1_555
H20_7 C35_7 1_555 1_555
H21_7 C36_7 1_555 1_555
C37_7 C32_7 1_555 1_555
C38_7 C33_7 1_555 1_555
C39_7 C34_7 1_555 1_555
C40_7 C35_7 1_555 1_555
C41_7 C36_7 1_555 1_555
C42_7 C37_7 1_555 1_555
C43_7 C38_7 1_555 1_555
C44_7 C39_7 1_555 1_555
C45_7 C40_7 1_555 1_555
C46_7 C41_7 1_555 1_555
H22_7 C42_7 1_555 1_555
H23_7 C43_7 1_555 1_555
H24_7 C44_7 1_555 1_555
H25_7 C45_7 1_555 1_555
H26_7 C46_7 1_555 1_555
C47_7 C42_7 1_555 1_555
C48_7 C43_7 1_555 1_555
C49_7 C44_7 1_555 1_555
C50_7 C45_7 1_555 1_555
C51_7 C46_7 1_555 1_555
H27_7 C47_7 1_555 1_555
H28_7 C48_7 1_555 1_555
H29_7 C49_7 1_555 1_555
H30_7 C50_7 1_555 1_555
H31_7 C51_7 1_555 1_555
C52_7 N21_7 1_555 1_555
C53_7 N22_7 1_555 1_555
C54_7 N23_7 1_555 1_555
C55_7 N24_7 1_555 1_555
C56_7 N25_7 1_555 1_555
H32_7 C52_7 1_555 1_555
H33_7 C53_7 1_555 1_555
H34_7 C54_7 1_555 1_555
H35_7 C55_7 1_555 1_555
H36_7 C56_7 1_555 1_555
C57_7 N28_7 1_555 1_555
C58_7 N29_6 1_555 1_555
C59_7 N30_7 1_555 1_555
C60_7 H40_7 1_555 1_555
C61_7 H41_7 1_555 1_555
H37_7 C57_7 1_555 1_555
H38_7 C58_7 1_555 1_555
H39_7 C59_7 1_555 1_555
C62_7 C57_7 1_555 1_555
C63_7 C58_7 1_555 1_555
C64_7 C59_7 1_555 1_555
C65_7 C60_7 1_555 1_555
C66_7 C61_7 1_555 1_555
H42_7 C62_7 1_555 1_555
H43_7 C63_7 1_555 1_555
H44_7 C64_7 1_555 1_555
H45_7 C65_7 1_555 1_555
H46_7 C66_7 1_555 1_555
C67_7 C62_7 1_555 1_555
C68_7 C63_7 1_555 1_555
C69_7 C64_7 1_555 1_555
C70_7 C65_7 1_555 1_555
C71_7 C66_7 1_555 1_555
H47_7 C67_7 1_555 1_555
H48_7 C68_7 1_555 1_555
H49_7 C69_7 1_555 1_555
H50_7 C70_7 1_555 1_555
H51_7 C71_7 1_555 1_555
C72_7 C67_7 1_555 1_555
C73_7 C68_7 1_555 1_555
C74_7 C69_7 1_555 1_555
C75_7 C70_7 1_555 1_555
C76_7 C71_7 1_555 1_555
C77_7 N28_7 1_555 1_555
C78_7 N29_6 1_555 1_555
C79_7 N30_7 1_555 1_555
C80_7 N31_7 1_555 1_555
C81_7 N32_7 1_555 1_555
H52_7 C77_7 1_555 1_555
H53_7 C78_7 1_555 1_555
H54_7 C79_7 1_555 1_555
H55_7 C80_7 1_555 1_555
H56_7 C81_7 1_555 1_555
C82_7 C72_7 1_555 1_555
C83_7 C73_7 1_555 1_555
C84_7 C74_7 1_555 1_555
C85_7 C75_7 1_555 1_555
C86_7 C76_7 1_555 1_555
C87_7 N40_7 1_555 1_555
C88_7 N41_7 1_555 1_555
C89_7 N42_7 1_555 1_555
C90_7 N43_7 1_555 1_555
C91_7 N44_7 1_555 1_555
C92_7 N35_7 1_555 1_555
C93_7 N36_7 1_555 1_555
C94_7 N37_7 1_555 1_555
C95_7 N38_7 1_555 1_555
C96_7 N39_7 1_555 1_555
C97_7 N50_7 1_555 1_555
C98_7 N51_7 1_555 1_555
C99_7 H59_7 1_555 1_555
C100_7 N53_7 1_555 1_555
C101_7 H61_7 1_555 1_555
H57_7 C97_7 1_555 1_555
H58_7 C98_7 1_555 1_555
H60_7 C100_7 1_555 1_555
C102_7 C97_7 1_555 1_555
C103_7 C98_7 1_555 1_555
C104_7 C99_7 1_555 1_555
C105_7 C100_7 1_555 1_555
C106_7 C101_7 1_555 1_555
H62_7 C102_7 1_555 1_555
H63_7 C103_7 1_555 1_555
H64_7 C104_7 1_555 1_555
H65_7 C105_7 1_555 1_555
H66_7 C106_7 1_555 1_555
C107_7 C102_7 1_555 1_555
C108_7 C103_7 1_555 1_555
C109_7 C104_7 1_555 1_555
C110_7 C105_7 1_555 1_555
C111_7 C106_7 1_555 1_555
H67_7 C107_7 1_555 1_555
H68_7 C108_7 1_555 1_555
H69_7 C109_7 1_555 1_555
H70_7 C110_7 1_555 1_555
H71_7 C111_7 1_555 1_555
C112_7 C92_7 1_555 1_555
C113_7 C93_7 1_555 1_555
C114_7 C94_7 1_555 1_555
C115_7 C95_7 1_555 1_555
C116_7 C96_7 1_555 1_555
C117_7 N50_7 1_555 1_555
C118_7 N51_7 1_555 1_555
C119_7 N52_7 1_555 1_555
C120_7 N53_7 1_555 1_555
C121_7 N54_7 1_555 1_555
H72_7 C117_7 1_555 1_555
H73_7 C118_7 1_555 1_555
H74_7 C119_7 1_555 1_555
H75_7 C120_7 1_555 1_555
H76_7 C121_7 1_555 1_555
C154_7 N18_7 1_555 1_555
C156_7 N20_7 1_555 1_555
N7_7 C14_7 1_555 1_555
C3_7 C13_7 1_555 1_555
C5_7 C6_7 1_555 1_555
C10_7 C11_7 1_555 1_555
C17_7 C18_7 1_555 1_555
C18_7 C19_7 1_555 1_555
N45_7 C92_7 1_555 1_555
N46_7 C93_7 1_555 1_555
N47_7 C94_7 1_555 1_555
N48_7 C95_7 1_555 1_555
N49_7 C96_7 1_555 1_555
C37_7 C87_7 1_555 1_555
C38_7 C88_7 1_555 1_555
C39_7 C89_7 1_555 1_555
C40_7 C90_7 1_555 1_555
C41_7 C91_7 1_555 1_555
C47_7 C52_7 1_555 1_555
C48_7 C53_7 1_555 1_555
C49_7 C54_7 1_555 1_555
C50_7 C55_7 1_555 1_555
C51_7 C56_7 1_555 1_555
C72_7 C77_7 1_555 1_555
C73_7 C78_7 1_555 1_555
C74_7 C79_7 1_555 1_555
C75_7 C80_7 1_555 1_555
C76_7 C81_7 1_555 1_555
C107_7 C112_7 1_555 1_555
C108_7 C113_7 1_555 1_555
C109_7 C114_7 1_555 1_555
C110_7 C115_7 1_555 1_555
C111_7 C116_7 1_555 1_555
C112_7 C117_7 1_555 1_555
C113_7 C118_7 1_555 1_555
C114_7 C119_7 1_555 1_555
C115_7 C120_7 1_555 1_555
C116_7 C121_7 1_555 1_555
N10_6 C25_6 1_555 1_555
S2_7 C26_7 1_555 1_555
C20_6 N9_6 1_555 1_555
H13_6 C20_6 1_555 1_555
C21_6 C20_6 1_555 1_555
H14_6 C21_6 1_555 1_555
C22_6 C21_6 1_555 1_555
H15_6 C22_6 1_555 1_555
C23_6 C22_6 1_555 1_555
C24_6 N9_6 1_555 1_555
H16_6 C24_6 1_555 1_555
C25_6 C23_6 1_555 1_555
Co12_3 N58_6 1_555 1_555
Co11_2 N60_7 1_555 1_555
Co15_3 N61_7 1_555 1_555
N57_6 C122_6 1_555 1_555
N58_6 C123_6 1_555 1_555
N60_7 C125_7 1_555 1_555
N61_7 C126_7 1_555 1_555
N66_6 C147_6 1_555 1_555
N67_6 C25_6 1_555 1_555
N68_7 C149_7 1_555 1_555
N69_7 C150_7 1_555 1_555
N70_7 C149_7 1_555 1_555
S8_7 C152_7 1_555 1_555
C122_6 H77_6 1_555 1_555
C123_6 H78_6 1_555 1_555
C124_7 N59_7 1_555 1_555
C125_7 H80_7 1_555 1_555
C126_7 H81_7 1_555 1_555
H79_7 C124_7 1_555 1_555
C127_6 C122_6 1_555 1_555
C128_6 C123_6 1_555 1_555
C129_7 C124_7 1_555 1_555
C130_7 C125_7 1_555 1_555
C131_7 C126_7 1_555 1_555
H82_6 C127_6 1_555 1_555
H83_6 C128_6 1_555 1_555
H84_7 C129_7 1_555 1_555
H85_7 C130_7 1_555 1_555
H86_7 C131_7 1_555 1_555
C132_6 C127_6 1_555 1_555
C133_6 C128_6 1_555 1_555
C134_7 C129_7 1_555 1_555
C135_7 C130_7 1_555 1_555
C136_7 C131_7 1_555 1_555
H87_6 C132_6 1_555 1_555
H88_6 C133_6 1_555 1_555
H89_7 C134_7 1_555 1_555
H90_7 C135_7 1_555 1_555
H91_7 C136_7 1_555 1_555
C137_6 C132_6 1_555 1_555
C138_6 C133_6 1_555 1_555
C139_7 C134_7 1_555 1_555
C140_7 C135_7 1_555 1_555
C141_7 C136_7 1_555 1_555
C142_6 N57_6 1_555 1_555
C143_6 N58_6 1_555 1_555
C144_7 N59_7 1_555 1_555
C145_7 N60_7 1_555 1_555
C146_7 N61_7 1_555 1_555
H92_6 C142_6 1_555 1_555
H93_6 C143_6 1_555 1_555
H94_7 C144_7 1_555 1_555
H95_7 C145_7 1_555 1_555
H96_7 C146_7 1_555 1_555
C147_6 N10_6 1_555 1_555
C148_6 N66_6 1_555 1_555
C149_7 C139_7 1_555 1_555
C150_7 N68_7 1_555 1_555
C151_7 N69_7 1_555 1_555
C23_6 C24_6 1_555 1_555
N67_6 C148_6 1_555 1_555
N70_7 C151_7 1_555 1_555
C137_6 C142_6 1_555 1_555
C137_6 C148_6 1_555 1_555
C138_6 C143_6 1_555 1_555
C138_6 C147_6 1_555 1_555
C139_7 C144_7 1_555 1_555
C140_7 C145_7 1_555 1_555
C140_7 C151_7 1_555 1_555
C141_7 C146_7 1_555 1_555
C141_7 C150_7 1_555 1_555
S2_8 C26_8 1_555 1_555
S8_8 C152_8 1_555 1_555
Co1_10 N1_8 1_555 1_555
Co11 N2_8 1_555 1_555
N1_8 C1_8 1_555 1_555
N3_7 C2_8 1_555 1_555
N4_8 Co1_10 1_555 1_555
N5_8 C12_8 1_555 1_555
N6_8 C12_8 1_555 1_555
N7_8 C13_8 1_555 1_555
N8_8 Co11 1_555 1_555
S1_8 C1_8 1_555 1_555
C2_8 H1_8 1_555 1_555
C3_8 C2_8 1_555 1_555
C4_8 C3_8 1_555 1_555
H2_8 C4_8 1_555 1_555
C5_8 C4_8 1_555 1_555
H3_8 C5_8 1_555 1_555
C6_8 N3_7 1_555 1_555
H4_8 C6_8 1_555 1_555
C7_8 N4_8 1_555 1_555
H5_8 C7_8 1_555 1_555
C8_8 C7_8 1_555 1_555
H6_8 C8_8 1_555 1_555
C9_8 C8_8 1_555 1_555
H7_8 C9_8 1_555 1_555
C10_8 C9_8 1_555 1_555
C11_8 N4_8 1_555 1_555
H8_8 C11_8 1_555 1_555
C12_8 C10_8 1_555 1_555
C13_8 N6_8 1_555 1_555
C14_8 N5_8 1_555 1_555
C15_8 N8_8 1_555 1_555
H9_8 C15_8 1_555 1_555
C16_8 C15_8 1_555 1_555
H10_8 C16_8 1_555 1_555
C17_8 C16_8 1_555 1_555
H11_8 C17_8 1_555 1_555
C18_8 C14_8 1_555 1_555
C19_8 N8_8 1_555 1_555
H12_8 C19_8 1_555 1_555
Co3_11 N12_8 1_555 1_555
Co6_3 N14_7 1_555 1_555
Co5_7 N3_7 1_555 1_555
Co6_12 N23_8 1_555 1_555
Co8_7 N31_8 1_555 1_555
Co7_2 N32_8 1_555 1_555
Co9_8 N17_8 1_555 1_555
Co10_8 N19_8 1_555 1_555
Co14_3 N52_8 1_555 1_555
Co16_5 N54_8 1_555 1_555
N11_8 Co1_10 1_555 1_555
N12_8 C28_8 1_555 1_555
N13_8 Co3_11 1_555 1_555
N14_7 C30_7 1_555 1_555
N15_7 Co6_3 1_555 1_555
N16_8 Co11 1_555 1_555
N17_8 C153_8 1_555 1_555
N18_8 Co9_8 1_555 1_555
N19_8 C155_8 1_555 1_555
N20_8 Co10_8 1_555 1_555
N21_8 Co1_10 1_555 1_555
N22_8 Co1_10 1_555 1_555
N23_8 C34_8 1_555 1_555
N24_8 Co3_11 1_555 1_555
N25_8 Co3_11 1_555 1_555
N26_7 Co6_3 1_555 1_555
N28_8 Co3_11 1_555 1_555
N29_7 Co6_3 1_555 1_555
N30_8 Co1_10 1_555 1_555
N31_8 C60_8 1_555 1_555
N32_8 C61_8 1_555 1_555
N33_8 Co3_11 1_555 1_555
N34_7 Co6_3 1_555 1_555
N35_8 C82_8 1_555 1_555
N36_8 C83_8 1_555 1_555
N37_8 C84_8 1_555 1_555
N38_8 C85_8 1_555 1_555
N39_8 C86_8 1_555 1_555
N40_8 C82_8 1_555 1_555
N41_8 C83_8 1_555 1_555
N42_8 C84_8 1_555 1_555
N43_8 C85_8 1_555 1_555
N44_8 C86_8 1_555 1_555
N45_8 C87_8 1_555 1_555
N46_8 C88_8 1_555 1_555
N47_8 C89_8 1_555 1_555
N48_8 C90_8 1_555 1_555
N49_8 C91_8 1_555 1_555
N50_8 Co9_8 1_555 1_555
N51_8 Co10_8 1_555 1_555
N52_8 C99_8 1_555 1_555
N53_8 Co11 1_555 1_555
N54_8 C101_8 1_555 1_555
N55_8 Co9_8 1_555 1_555
N56_8 Co10_8 1_555 1_555
N62_8 Co9_8 1_555 1_555
N63_8 Co9_8 1_555 1_555
N64_8 Co10_8 1_555 1_555
N65_8 Co10_8 1_555 1_555
S3_8 C27_8 1_555 1_555
S4_8 C28_8 1_555 1_555
S5_8 C29_8 1_555 1_555
S6_7 C30_7 1_555 1_555
S7_7 C31_7 1_555 1_555
S9_8 C153_8 1_555 1_555
S10_8 C154_8 1_555 1_555
S11_8 C155_8 1_555 1_555
S12_8 C156_8 1_555 1_555
C27_8 N11_8 1_555 1_555
C29_8 N13_8 1_555 1_555
C31_7 N15_7 1_555 1_555
C32_8 N21_8 1_555 1_555
C33_8 N22_8 1_555 1_555
C34_8 H19_8 1_555 1_555
C35_8 N24_8 1_555 1_555
C36_8 N25_8 1_555 1_555
H17_8 C32_8 1_555 1_555
H18_8 C33_8 1_555 1_555
H20_8 C35_8 1_555 1_555
H21_8 C36_8 1_555 1_555
C37_8 C32_8 1_555 1_555
C38_8 C33_8 1_555 1_555
C39_8 C34_8 1_555 1_555
C40_8 C35_8 1_555 1_555
C41_8 C36_8 1_555 1_555
C42_8 C37_8 1_555 1_555
C43_8 C38_8 1_555 1_555
C44_8 C39_8 1_555 1_555
C45_8 C40_8 1_555 1_555
C46_8 C41_8 1_555 1_555
H22_8 C42_8 1_555 1_555
H23_8 C43_8 1_555 1_555
H24_8 C44_8 1_555 1_555
H25_8 C45_8 1_555 1_555
H26_8 C46_8 1_555 1_555
C47_8 C42_8 1_555 1_555
C48_8 C43_8 1_555 1_555
C49_8 C44_8 1_555 1_555
C50_8 C45_8 1_555 1_555
C51_8 C46_8 1_555 1_555
H27_8 C47_8 1_555 1_555
H28_8 C48_8 1_555 1_555
H29_8 C49_8 1_555 1_555
H30_8 C50_8 1_555 1_555
H31_8 C51_8 1_555 1_555
C52_8 N21_8 1_555 1_555
C53_8 N22_8 1_555 1_555
C54_8 N23_8 1_555 1_555
C55_8 N24_8 1_555 1_555
C56_8 N25_8 1_555 1_555
H32_8 C52_8 1_555 1_555
H33_8 C53_8 1_555 1_555
H34_8 C54_8 1_555 1_555
H35_8 C55_8 1_555 1_555
H36_8 C56_8 1_555 1_555
C57_8 N28_8 1_555 1_555
C58_8 N29_7 1_555 1_555
C59_8 N30_8 1_555 1_555
C60_8 H40_8 1_555 1_555
C61_8 H41_8 1_555 1_555
H37_8 C57_8 1_555 1_555
H38_8 C58_8 1_555 1_555
H39_8 C59_8 1_555 1_555
C62_8 C57_8 1_555 1_555
C63_8 C58_8 1_555 1_555
C64_8 C59_8 1_555 1_555
C65_8 C60_8 1_555 1_555
C66_8 C61_8 1_555 1_555
H42_8 C62_8 1_555 1_555
H43_8 C63_8 1_555 1_555
H44_8 C64_8 1_555 1_555
H45_8 C65_8 1_555 1_555
H46_8 C66_8 1_555 1_555
C67_8 C62_8 1_555 1_555
C68_8 C63_8 1_555 1_555
C69_8 C64_8 1_555 1_555
C70_8 C65_8 1_555 1_555
C71_8 C66_8 1_555 1_555
H47_8 C67_8 1_555 1_555
H48_8 C68_8 1_555 1_555
H49_8 C69_8 1_555 1_555
H50_8 C70_8 1_555 1_555
H51_8 C71_8 1_555 1_555
C72_8 C67_8 1_555 1_555
C73_8 C68_8 1_555 1_555
C74_8 C69_8 1_555 1_555
C75_8 C70_8 1_555 1_555
C76_8 C71_8 1_555 1_555
C77_8 N28_8 1_555 1_555
C78_8 N29_7 1_555 1_555
C79_8 N30_8 1_555 1_555
C80_8 N31_8 1_555 1_555
C81_8 N32_8 1_555 1_555
H52_8 C77_8 1_555 1_555
H53_8 C78_8 1_555 1_555
H54_8 C79_8 1_555 1_555
H55_8 C80_8 1_555 1_555
H56_8 C81_8 1_555 1_555
C82_8 C72_8 1_555 1_555
C83_8 C73_8 1_555 1_555
C84_8 C74_8 1_555 1_555
C85_8 C75_8 1_555 1_555
C86_8 C76_8 1_555 1_555
C87_8 N40_8 1_555 1_555
C88_8 N41_8 1_555 1_555
C89_8 N42_8 1_555 1_555
C90_8 N43_8 1_555 1_555
C91_8 N44_8 1_555 1_555
C92_8 N35_8 1_555 1_555
C93_8 N36_8 1_555 1_555
C94_8 N37_8 1_555 1_555
C95_8 N38_8 1_555 1_555
C96_8 N39_8 1_555 1_555
C97_8 N50_8 1_555 1_555
C98_8 N51_8 1_555 1_555
C99_8 H59_8 1_555 1_555
C100_8 N53_8 1_555 1_555
C101_8 H61_8 1_555 1_555
H57_8 C97_8 1_555 1_555
H58_8 C98_8 1_555 1_555
H60_8 C100_8 1_555 1_555
C102_8 C97_8 1_555 1_555
C103_8 C98_8 1_555 1_555
C104_8 C99_8 1_555 1_555
C105_8 C100_8 1_555 1_555
C106_8 C101_8 1_555 1_555
H62_8 C102_8 1_555 1_555
H63_8 C103_8 1_555 1_555
H64_8 C104_8 1_555 1_555
H65_8 C105_8 1_555 1_555
H66_8 C106_8 1_555 1_555
C107_8 C102_8 1_555 1_555
C108_8 C103_8 1_555 1_555
C109_8 C104_8 1_555 1_555
C110_8 C105_8 1_555 1_555
C111_8 C106_8 1_555 1_555
H67_8 C107_8 1_555 1_555
H68_8 C108_8 1_555 1_555
H69_8 C109_8 1_555 1_555
H70_8 C110_8 1_555 1_555
H71_8 C111_8 1_555 1_555
C112_8 C92_8 1_555 1_555
C113_8 C93_8 1_555 1_555
C114_8 C94_8 1_555 1_555
C115_8 C95_8 1_555 1_555
C116_8 C96_8 1_555 1_555
C117_8 N50_8 1_555 1_555
C118_8 N51_8 1_555 1_555
C119_8 N52_8 1_555 1_555
C120_8 N53_8 1_555 1_555
C121_8 N54_8 1_555 1_555
H72_8 C117_8 1_555 1_555
H73_8 C118_8 1_555 1_555
H74_8 C119_8 1_555 1_555
H75_8 C120_8 1_555 1_555
H76_8 C121_8 1_555 1_555
C154_8 N18_8 1_555 1_555
C156_8 N20_8 1_555 1_555
N7_8 C14_8 1_555 1_555
C3_8 C13_8 1_555 1_555
C5_8 C6_8 1_555 1_555
C10_8 C11_8 1_555 1_555
C17_8 C18_8 1_555 1_555
C18_8 C19_8 1_555 1_555
N45_8 C92_8 1_555 1_555
N46_8 C93_8 1_555 1_555
N47_8 C94_8 1_555 1_555
N48_8 C95_8 1_555 1_555
N49_8 C96_8 1_555 1_555
C37_8 C87_8 1_555 1_555
C38_8 C88_8 1_555 1_555
C39_8 C89_8 1_555 1_555
C40_8 C90_8 1_555 1_555
C41_8 C91_8 1_555 1_555
C47_8 C52_8 1_555 1_555
C48_8 C53_8 1_555 1_555
C49_8 C54_8 1_555 1_555
C50_8 C55_8 1_555 1_555
C51_8 C56_8 1_555 1_555
C72_8 C77_8 1_555 1_555
C73_8 C78_8 1_555 1_555
C74_8 C79_8 1_555 1_555
C75_8 C80_8 1_555 1_555
C76_8 C81_8 1_555 1_555
C107_8 C112_8 1_555 1_555
C108_8 C113_8 1_555 1_555
C109_8 C114_8 1_555 1_555
C110_8 C115_8 1_555 1_555
C111_8 C116_8 1_555 1_555
C112_8 C117_8 1_555 1_555
C113_8 C118_8 1_555 1_555
C114_8 C119_8 1_555 1_555
C115_8 C120_8 1_555 1_555
C116_8 C121_8 1_555 1_555
Co6_11 N12_9 1_555 1_555
Co7_7 N32_9 1_555 1_555
Co12 N54_9 1_555 1_555
N12_9 C28_9 1_555 1_555
N25_9 Co6_11 1_555 1_555
N32_9 C61_9 1_555 1_555
N33_9 Co6_11 1_555 1_555
N39_9 C86_9 1_555 1_555
N44_9 C86_9 1_555 1_555
N49_9 C91_9 1_555 1_555
N54_9 C101_9 1_555 1_555
S4_9 C28_9 1_555 1_555
S11_9 C155_9 1_555 1_555
S12_9 C156_9 1_555 1_555
C36_9 N25_9 1_555 1_555
H21_9 C36_9 1_555 1_555
C41_9 C36_9 1_555 1_555
C46_9 C41_9 1_555 1_555
H26_9 C46_9 1_555 1_555
C51_9 C46_9 1_555 1_555
H31_9 C51_9 1_555 1_555
C56_9 N25_9 1_555 1_555
H36_9 C56_9 1_555 1_555
C61_9 H41_9 1_555 1_555
C66_9 C61_9 1_555 1_555
H46_9 C66_9 1_555 1_555
C71_9 C66_9 1_555 1_555
H51_9 C71_9 1_555 1_555
C76_9 C71_9 1_555 1_555
C81_9 N32_9 1_555 1_555
H56_9 C81_9 1_555 1_555
C86_9 C76_9 1_555 1_555
C91_9 N44_9 1_555 1_555
C96_9 N39_9 1_555 1_555
C101_9 H61_9 1_555 1_555
C106_9 C101_9 1_555 1_555
H66_9 C106_9 1_555 1_555
C111_9 C106_9 1_555 1_555
H71_9 C111_9 1_555 1_555
C116_9 C96_9 1_555 1_555
C121_9 N54_9 1_555 1_555
H76_9 C121_9 1_555 1_555
N49_9 C96_9 1_555 1_555
C41_9 C91_9 1_555 1_555
C51_9 C56_9 1_555 1_555
C76_9 C81_9 1_555 1_555
C111_9 C116_9 1_555 1_555
C116_9 C121_9 1_555 1_555
Co1_11 N1_9 1_555 1_555
Co14_3 N2_9 1_555 1_555
N1_9 C1_9 1_555 1_555
N26_7 C2_9 1_555 1_555
N4_9 Co1_11 1_555 1_555
N5_9 C12_9 1_555 1_555
N6_9 C12_9 1_555 1_555
N7_9 C13_9 1_555 1_555
N8_9 Co14_3 1_555 1_555
S1_9 C1_9 1_555 1_555
C2_9 H1_9 1_555 1_555
C3_9 C2_9 1_555 1_555
C4_9 C3_9 1_555 1_555
H2_9 C4_9 1_555 1_555
C5_9 C4_9 1_555 1_555
H3_9 C5_9 1_555 1_555
C6_9 N26_7 1_555 1_555
H4_9 C6_9 1_555 1_555
C7_9 N4_9 1_555 1_555
H5_9 C7_9 1_555 1_555
C8_9 C7_9 1_555 1_555
H6_9 C8_9 1_555 1_555
C9_9 C8_9 1_555 1_555
H7_9 C9_9 1_555 1_555
C10_9 C9_9 1_555 1_555
C11_9 N4_9 1_555 1_555
H8_9 C11_9 1_555 1_555
C12_9 C10_9 1_555 1_555
C13_9 N6_9 1_555 1_555
C14_9 N5_9 1_555 1_555
C15_9 N8_9 1_555 1_555
H9_9 C15_9 1_555 1_555
C16_9 C15_9 1_555 1_555
H10_9 C16_9 1_555 1_555
C17_9 C16_9 1_555 1_555
H11_9 C17_9 1_555 1_555
C18_9 C14_9 1_555 1_555
C19_9 N8_9 1_555 1_555
H12_9 C19_9 1_555 1_555
Co4_6 N14_8 1_555 1_555
Co6_13 N23_9 1_555 1_555
Co10_9 N19_9 1_555 1_555
Co13_6 N52_9 1_555 1_555
N11_9 Co1_11 1_555 1_555
N13_9 Co6_12 1_555 1_555
N14_8 C30_8 1_555 1_555
N15_8 Co4_6 1_555 1_555
N16_9 Co14_3 1_555 1_555
N20_9 Co10_9 1_555 1_555
N21_9 Co1_11 1_555 1_555
N22_9 Co1_11 1_555 1_555
N23_9 C34_9 1_555 1_555
N26_8 Co4_6 1_555 1_555
N27_5 Co4_6 1_555 1_555
N28_9 Co6_12 1_555 1_555
N29_8 Co4_6 1_555 1_555
N30_9 Co1_11 1_555 1_555
N34_8 Co4_6 1_555 1_555
N35_9 C82_9 1_555 1_555
N36_9 C83_9 1_555 1_555
N37_9 C84_9 1_555 1_555
N40_9 C82_9 1_555 1_555
N41_9 C83_9 1_555 1_555
N42_9 C84_9 1_555 1_555
N45_9 C87_9 1_555 1_555
N46_9 C88_9 1_555 1_555
N47_9 C89_9 1_555 1_555
N51_9 Co10_9 1_555 1_555
N52_9 C99_9 1_555 1_555
N56_9 Co10_9 1_555 1_555
S3_9 C27_9 1_555 1_555
S5_9 C29_9 1_555 1_555
S6_8 C30_8 1_555 1_555
S7_8 C31_8 1_555 1_555
C27_9 N11_9 1_555 1_555
C29_9 N13_9 1_555 1_555
C31_8 N15_8 1_555 1_555
C32_9 N21_9 1_555 1_555
C33_9 N22_9 1_555 1_555
C34_9 H19_9 1_555 1_555
H17_9 C32_9 1_555 1_555
H18_9 C33_9 1_555 1_555
C37_9 C32_9 1_555 1_555
C38_9 C33_9 1_555 1_555
C39_9 C34_9 1_555 1_555
C42_9 C37_9 1_555 1_555
C43_9 C38_9 1_555 1_555
C44_9 C39_9 1_555 1_555
H22_9 C42_9 1_555 1_555
H23_9 C43_9 1_555 1_555
H24_9 C44_9 1_555 1_555
C47_9 C42_9 1_555 1_555
C48_9 C43_9 1_555 1_555
C49_9 C44_9 1_555 1_555
H27_9 C47_9 1_555 1_555
H28_9 C48_9 1_555 1_555
H29_9 C49_9 1_555 1_555
C52_9 N21_9 1_555 1_555
C53_9 N22_9 1_555 1_555
C54_9 N23_9 1_555 1_555
H32_9 C52_9 1_555 1_555
H33_9 C53_9 1_555 1_555
H34_9 C54_9 1_555 1_555
C57_9 N28_9 1_555 1_555
C58_9 N29_8 1_555 1_555
C59_9 N30_9 1_555 1_555
H37_9 C57_9 1_555 1_555
H38_9 C58_9 1_555 1_555
H39_9 C59_9 1_555 1_555
C62_9 C57_9 1_555 1_555
C63_9 C58_9 1_555 1_555
C64_9 C59_9 1_555 1_555
H42_9 C62_9 1_555 1_555
H43_9 C63_9 1_555 1_555
H44_9 C64_9 1_555 1_555
C67_9 C62_9 1_555 1_555
C68_9 C63_9 1_555 1_555
C69_9 C64_9 1_555 1_555
H47_9 C67_9 1_555 1_555
H48_9 C68_9 1_555 1_555
H49_9 C69_9 1_555 1_555
C72_9 C67_9 1_555 1_555
C73_9 C68_9 1_555 1_555
C74_9 C69_9 1_555 1_555
C77_9 N28_9 1_555 1_555
C78_9 N29_8 1_555 1_555
C79_9 N30_9 1_555 1_555
H52_9 C77_9 1_555 1_555
H53_9 C78_9 1_555 1_555
H54_9 C79_9 1_555 1_555
C82_9 C72_9 1_555 1_555
C83_9 C73_9 1_555 1_555
C84_9 C74_9 1_555 1_555
C87_9 N40_9 1_555 1_555
C88_9 N41_9 1_555 1_555
C89_9 N42_9 1_555 1_555
C92_9 N35_9 1_555 1_555
C93_9 N36_9 1_555 1_555
C94_9 N37_9 1_555 1_555
C97_9 N56_8 1_555 1_555
C98_9 N51_9 1_555 1_555
C99_9 H59_9 1_555 1_555
H57_9 C97_9 1_555 1_555
H58_9 C98_9 1_555 1_555
C102_9 C97_9 1_555 1_555
C103_9 C98_9 1_555 1_555
C104_9 C99_9 1_555 1_555
H62_9 C102_9 1_555 1_555
H63_9 C103_9 1_555 1_555
H64_9 C104_9 1_555 1_555
C107_9 C102_9 1_555 1_555
C108_9 C103_9 1_555 1_555
C109_9 C104_9 1_555 1_555
H67_9 C107_9 1_555 1_555
H68_9 C108_9 1_555 1_555
H69_9 C109_9 1_555 1_555
C112_9 C92_9 1_555 1_555
C113_9 C93_9 1_555 1_555
C114_9 C94_9 1_555 1_555
C117_9 N56_8 1_555 1_555
C118_9 N51_9 1_555 1_555
C119_9 N52_9 1_555 1_555
H72_9 C117_9 1_555 1_555
H73_9 C118_9 1_555 1_555
H74_9 C119_9 1_555 1_555
N7_9 C14_9 1_555 1_555
C3_9 C13_9 1_555 1_555
C5_9 C6_9 1_555 1_555
C10_9 C11_9 1_555 1_555
C17_9 C18_9 1_555 1_555
C18_9 C19_9 1_555 1_555
N45_9 C92_9 1_555 1_555
N46_9 C93_9 1_555 1_555
N47_9 C94_9 1_555 1_555
C37_9 C87_9 1_555 1_555
C38_9 C88_9 1_555 1_555
C39_9 C89_9 1_555 1_555
C47_9 C52_9 1_555 1_555
C48_9 C53_9 1_555 1_555
C49_9 C54_9 1_555 1_555
C72_9 C77_9 1_555 1_555
C73_9 C78_9 1_555 1_555
C74_9 C79_9 1_555 1_555
C107_9 C112_9 1_555 1_555
C108_9 C113_9 1_555 1_555
C109_9 C114_9 1_555 1_555
C112_9 C117_9 1_555 1_555
C113_9 C118_9 1_555 1_555
C114_9 C119_9 1_555 1_555
S2_9 C26_9 1_555 1_555
S8_9 C152_9 1_555 1_555
N10_7 C25_7 1_555 1_555
S2_10 C26_10 1_555 1_555
C20_7 N9_7 1_555 1_555
H13_7 C20_7 1_555 1_555
C21_7 C20_7 1_555 1_555
H14_7 C21_7 1_555 1_555
C22_7 C21_7 1_555 1_555
H15_7 C22_7 1_555 1_555
C23_7 C22_7 1_555 1_555
C24_7 N9_7 1_555 1_555
H16_7 C24_7 1_555 1_555
C25_7 C23_7 1_555 1_555
Co14 N57_7 1_555 1_555
Co12 N58_7 1_555 1_555
N57_7 C122_7 1_555 1_555
N58_7 C123_7 1_555 1_555
N66_7 C147_7 1_555 1_555
N67_7 C25_7 1_555 1_555
S8_10 C152_10 1_555 1_555
C122_7 H77_7 1_555 1_555
C123_7 H78_7 1_555 1_555
C127_7 C122_7 1_555 1_555
C128_7 C123_7 1_555 1_555
H82_7 C127_7 1_555 1_555
H83_7 C128_7 1_555 1_555
C132_7 C127_7 1_555 1_555
C133_7 C128_7 1_555 1_555
H87_7 C132_7 1_555 1_555
H88_7 C133_7 1_555 1_555
C137_7 C132_7 1_555 1_555
C138_7 C133_7 1_555 1_555
C142_7 N57_7 1_555 1_555
C143_7 N58_7 1_555 1_555
H92_7 C142_7 1_555 1_555
H93_7 C143_7 1_555 1_555
C147_7 N10_7 1_555 1_555
C148_7 N66_7 1_555 1_555
C23_7 C24_7 1_555 1_555
N67_7 C148_7 1_555 1_555
C137_7 C142_7 1_555 1_555
C137_7 C148_7 1_555 1_555
C138_7 C143_7 1_555 1_555
C138_7 C147_7 1_555 1_555
Co14_5 N2_10 1_555 1_555
Co7_6 N31_9 1_555 1_555
Co9_9 N17_9 1_555 1_555
N11_10 Co8_9 1_555 1_555
N13_10 Co6_7 1_555 1_555
N16_10 Co14_5 1_555 1_555
N17_9 C153_9 1_555 1_555
N18_9 Co9_9 1_555 1_555
N21_10 Co8_9 1_555 1_555
N24_9 Co6_7 1_555 1_555
N28_10 Co6_7 1_555 1_555
N31_9 C60_9 1_555 1_555
N35_10 C82_10 1_555 1_555
N38_9 C85_9 1_555 1_555
N40_10 C82_10 1_555 1_555
N43_9 C85_9 1_555 1_555
N45_10 C87_10 1_555 1_555
N48_9 C90_9 1_555 1_555
N50_9 Co9_9 1_555 1_555
N53_9 Co14_5 1_555 1_555
N55_9 Co9_9 1_555 1_555
N62_9 Co9_9 1_555 1_555
N63_9 Co9_9 1_555 1_555
S3_10 C27_10 1_555 1_555
S5_10 C29_10 1_555 1_555
S9_9 C153_9 1_555 1_555
S10_9 C154_9 1_555 1_555
C27_10 N11_10 1_555 1_555
C29_10 N13_10 1_555 1_555
C32_10 N21_10 1_555 1_555
C35_9 N24_9 1_555 1_555
H17_10 C32_10 1_555 1_555
H20_9 C35_9 1_555 1_555
C37_10 C32_10 1_555 1_555
C40_9 C35_9 1_555 1_555
C42_10 C37_10 1_555 1_555
C45_9 C40_9 1_555 1_555
H22_10 C42_10 1_555 1_555
H25_9 C45_9 1_555 1_555
C47_10 C42_10 1_555 1_555
C50_9 C45_9 1_555 1_555
H27_10 C47_10 1_555 1_555
H30_9 C50_9 1_555 1_555
C52_10 N21_10 1_555 1_555
C55_9 N24_9 1_555 1_555
H32_10 C52_10 1_555 1_555
H35_9 C55_9 1_555 1_555
C57_10 N28_10 1_555 1_555
C60_9 H40_9 1_555 1_555
H37_10 C57_10 1_555 1_555
C62_10 C57_10 1_555 1_555
C65_9 C60_9 1_555 1_555
H42_10 C62_10 1_555 1_555
H45_9 C65_9 1_555 1_555
C67_10 C62_10 1_555 1_555
C70_9 C65_9 1_555 1_555
H47_10 C67_10 1_555 1_555
H50_9 C70_9 1_555 1_555
C72_10 C67_10 1_555 1_555
C75_9 C70_9 1_555 1_555
C77_10 N28_10 1_555 1_555
C80_9 N31_9 1_555 1_555
H52_10 C77_10 1_555 1_555
H55_9 C80_9 1_555 1_555
C82_10 C72_10 1_555 1_555
C85_9 C75_9 1_555 1_555
C87_10 N40_10 1_555 1_555
C90_9 N43_9 1_555 1_555
C92_10 N35_10 1_555 1_555
C95_9 N38_9 1_555 1_555
C97_10 N50_9 1_555 1_555
C100_9 N53_9 1_555 1_555
H57_10 C97_10 1_555 1_555
H60_9 C100_9 1_555 1_555
C102_10 C97_10 1_555 1_555
C105_9 C100_9 1_555 1_555
H62_10 C102_10 1_555 1_555
H65_9 C105_9 1_555 1_555
C107_10 C102_10 1_555 1_555
C110_9 C105_9 1_555 1_555
H67_10 C107_10 1_555 1_555
H70_9 C110_9 1_555 1_555
C112_10 C92_10 1_555 1_555
C115_9 C95_9 1_555 1_555
C117_10 N50_9 1_555 1_555
C120_9 N53_9 1_555 1_555
H72_10 C117_10 1_555 1_555
H75_9 C120_9 1_555 1_555
C154_9 N18_9 1_555 1_555
N45_10 C92_10 1_555 1_555
N48_9 C95_9 1_555 1_555
C37_10 C87_10 1_555 1_555
C40_9 C90_9 1_555 1_555
C47_10 C52_10 1_555 1_555
C50_9 C55_9 1_555 1_555
C72_10 C77_10 1_555 1_555
C75_9 C80_9 1_555 1_555
C107_10 C112_10 1_555 1_555
C110_9 C115_9 1_555 1_555
C112_10 C117_10 1_555 1_555
C115_9 C120_9 1_555 1_555
Co8_10 N1_10 1_555 1_555
N1_10 C1_10 1_555 1_555
S1_10 C1_10 1_555 1_555
Co4_7 N14_9 1_555 1_555
Co5_8 N23_10 1_555 1_555
Co10_10 N19_10 1_555 1_555
Co15_3 N52_10 1_555 1_555
N14_9 C30_9 1_555 1_555
N15_9 Co4_7 1_555 1_555
N20_10 Co10_10 1_555 1_555
N22_10 Co8_10 1_555 1_555
N23_10 C34_10 1_555 1_555
N26_9 Co4_7 1_555 1_555
N27_6 Co4_7 1_555 1_555
N29_9 Co4_7 1_555 1_555
N30_10 Co8_10 1_555 1_555
N34_9 Co4_7 1_555 1_555
N36_10 C83_10 1_555 1_555
N37_10 C84_10 1_555 1_555
N41_10 C83_10 1_555 1_555
N42_10 C84_10 1_555 1_555
N46_10 C88_10 1_555 1_555
N47_10 C89_10 1_555 1_555
N51_10 Co10_10 1_555 1_555
N52_10 C99_10 1_555 1_555
N56_10 Co10_10 1_555 1_555
S6_9 C30_9 1_555 1_555
S7_9 C31_9 1_555 1_555
C31_9 N15_9 1_555 1_555
C33_10 N22_10 1_555 1_555
C34_10 H19_10 1_555 1_555
H18_10 C33_10 1_555 1_555
C38_10 C33_10 1_555 1_555
C39_10 C34_10 1_555 1_555
C43_10 C38_10 1_555 1_555
C44_10 C39_10 1_555 1_555
H23_10 C43_10 1_555 1_555
H24_10 C44_10 1_555 1_555
C48_10 C43_10 1_555 1_555
C49_10 C44_10 1_555 1_555
H28_10 C48_10 1_555 1_555
H29_10 C49_10 1_555 1_555
C53_10 N22_10 1_555 1_555
C54_10 N23_10 1_555 1_555
H33_10 C53_10 1_555 1_555
H34_10 C54_10 1_555 1_555
C58_10 N29_9 1_555 1_555
C59_10 N30_10 1_555 1_555
H38_10 C58_10 1_555 1_555
H39_10 C59_10 1_555 1_555
C63_10 C58_10 1_555 1_555
C64_10 C59_10 1_555 1_555
H43_10 C63_10 1_555 1_555
H44_10 C64_10 1_555 1_555
C68_10 C63_10 1_555 1_555
C69_10 C64_10 1_555 1_555
H48_10 C68_10 1_555 1_555
H49_10 C69_10 1_555 1_555
C73_10 C68_10 1_555 1_555
C74_10 C69_10 1_555 1_555
C78_10 N29_9 1_555 1_555
C79_10 N30_10 1_555 1_555
H53_10 C78_10 1_555 1_555
H54_10 C79_10 1_555 1_555
C83_10 C73_10 1_555 1_555
C84_10 C74_10 1_555 1_555
C88_10 N41_10 1_555 1_555
C89_10 N42_10 1_555 1_555
C93_10 N36_10 1_555 1_555
C94_10 N37_10 1_555 1_555
C98_10 N51_10 1_555 1_555
C99_10 H59_10 1_555 1_555
H58_10 C98_10 1_555 1_555
C103_10 C98_10 1_555 1_555
C104_10 C99_10 1_555 1_555
H63_10 C103_10 1_555 1_555
H64_10 C104_10 1_555 1_555
C108_10 C103_10 1_555 1_555
C109_10 C104_10 1_555 1_555
H68_10 C108_10 1_555 1_555
H69_10 C109_10 1_555 1_555
C113_10 C93_10 1_555 1_555
C114_10 C94_10 1_555 1_555
C118_10 N51_10 1_555 1_555
C119_10 N52_10 1_555 1_555
H73_10 C118_10 1_555 1_555
H74_10 C119_10 1_555 1_555
N46_10 C93_10 1_555 1_555
N47_10 C94_10 1_555 1_555
C38_10 C88_10 1_555 1_555
C39_10 C89_10 1_555 1_555
C48_10 C53_10 1_555 1_555
C49_10 C54_10 1_555 1_555
C73_10 C78_10 1_555 1_555
C74_10 C79_10 1_555 1_555
C108_10 C113_10 1_555 1_555
C109_10 C114_10 1_555 1_555
C113_10 C118_10 1_555 1_555
C114_10 C119_10 1_555 1_555
Co6_8 N12_10 1_555 1_555
N12_10 C28_10 1_555 1_555
N33_10 Co6_8 1_555 1_555
S4_10 C28_10 1_555 1_555
S11_10 C155_10 1_555 1_555
S12_10 C156_10 1_555 1_555
Co5 N12_11 1_555 1_555
Co8_2 N32_10 1_555 1_555
Co15_2 N54_10 1_555 1_555
N11_11 Co7 1_555 1_555
N12_11 C28_11 1_555 1_555
N13_11 Co5 1_555 1_555
N21_11 Co7 1_555 1_555
N25_10 Co5 1_555 1_555
N28_11 Co5 1_555 1_555
N32_10 C61_10 1_555 1_555
N33_11 Co5 1_555 1_555
N35_11 C82_11 1_555 1_555
N39_10 C86_10 1_555 1_555
N40_11 C82_11 1_555 1_555
N44_10 C86_10 1_555 1_555
N45_11 C87_11 1_555 1_555
N49_10 C91_10 1_555 1_555
N54_10 C101_10 1_555 1_555
S3_11 C27_11 1_555 1_555
S4_11 C28_11 1_555 1_555
S5_11 C29_11 1_555 1_555
C27_11 N11_11 1_555 1_555
C29_11 N13_11 1_555 1_555
C32_11 N21_11 1_555 1_555
C36_10 N25_10 1_555 1_555
H17_11 C32_11 1_555 1_555
H21_10 C36_10 1_555 1_555
C37_11 C32_11 1_555 1_555
C41_10 C36_10 1_555 1_555
C42_11 C37_11 1_555 1_555
C46_10 C41_10 1_555 1_555
H22_11 C42_11 1_555 1_555
H26_10 C46_10 1_555 1_555
C47_11 C42_11 1_555 1_555
C51_10 C46_10 1_555 1_555
H27_11 C47_11 1_555 1_555
H31_10 C51_10 1_555 1_555
C52_11 N21_11 1_555 1_555
C56_10 N25_10 1_555 1_555
H32_11 C52_11 1_555 1_555
H36_10 C56_10 1_555 1_555
C57_11 N28_11 1_555 1_555
C61_10 H41_10 1_555 1_555
H37_11 C57_11 1_555 1_555
C62_11 C57_11 1_555 1_555
C66_10 C61_10 1_555 1_555
H42_11 C62_11 1_555 1_555
H46_10 C66_10 1_555 1_555
C67_11 C62_11 1_555 1_555
C71_10 C66_10 1_555 1_555
H47_11 C67_11 1_555 1_555
H51_10 C71_10 1_555 1_555
C72_11 C67_11 1_555 1_555
C76_10 C71_10 1_555 1_555
C77_11 N28_11 1_555 1_555
C81_10 N32_10 1_555 1_555
H52_11 C77_11 1_555 1_555
H56_10 C81_10 1_555 1_555
C82_11 C72_11 1_555 1_555
C86_10 C76_10 1_555 1_555
C87_11 N40_11 1_555 1_555
C91_10 N44_10 1_555 1_555
C92_11 N35_11 1_555 1_555
C96_10 N39_10 1_555 1_555
C97_11 N55 1_555 1_555
C101_10 H61_10 1_555 1_555
H57_11 C97_11 1_555 1_555
C102_11 C97_11 1_555 1_555
C106_10 C101_10 1_555 1_555
H62_11 C102_11 1_555 1_555
H66_10 C106_10 1_555 1_555
C107_11 C102_11 1_555 1_555
C111_10 C106_10 1_555 1_555
H67_11 C107_11 1_555 1_555
H71_10 C111_10 1_555 1_555
C112_11 C92_11 1_555 1_555
C116_10 C96_10 1_555 1_555
C117_11 N55 1_555 1_555
C121_10 N54_10 1_555 1_555
H72_11 C117_11 1_555 1_555
H76_10 C121_10 1_555 1_555
N45_11 C92_11 1_555 1_555
N49_10 C96_10 1_555 1_555
C37_11 C87_11 1_555 1_555
C41_10 C91_10 1_555 1_555
C47_11 C52_11 1_555 1_555
C51_10 C56_10 1_555 1_555
C72_11 C77_11 1_555 1_555
C76_10 C81_10 1_555 1_555
C107_11 C112_11 1_555 1_555
C111_10 C116_10 1_555 1_555
C112_11 C117_11 1_555 1_555
C116_10 C121_10 1_555 1_555
Co7_2 N1_11 1_555 1_555
N1_11 C1_11 1_555 1_555
S1_11 C1_11 1_555 1_555
Co4_8 N14_10 1_555 1_555
Co10_11 N19_11 1_555 1_555
N14_10 C30_10 1_555 1_555
N15_10 Co4_8 1_555 1_555
N19_11 C155_11 1_555 1_555
N20_11 Co10_11 1_555 1_555
N22_11 Co7_2 1_555 1_555
N26_10 Co4_8 1_555 1_555
N27_7 Co4_8 1_555 1_555
N29_10 Co4_8 1_555 1_555
N34_10 Co4_8 1_555 1_555
N36_11 C83_11 1_555 1_555
N41_11 C83_11 1_555 1_555
N46_11 C88_11 1_555 1_555
N51_11 Co10_11 1_555 1_555
N56_11 Co10_11 1_555 1_555
N64_11 Co10_11 1_555 1_555
N65_11 Co10_11 1_555 1_555
S6_10 C30_10 1_555 1_555
S7_10 C31_10 1_555 1_555
S11_11 C155_11 1_555 1_555
S12_11 C156_11 1_555 1_555
C31_10 N15_10 1_555 1_555
C33_11 N22_11 1_555 1_555
H18_11 C33_11 1_555 1_555
C38_11 C33_11 1_555 1_555
C43_11 C38_11 1_555 1_555
H23_11 C43_11 1_555 1_555
C48_11 C43_11 1_555 1_555
H28_11 C48_11 1_555 1_555
C53_11 N22_11 1_555 1_555
H33_11 C53_11 1_555 1_555
C58_11 N29_10 1_555 1_555
H38_11 C58_11 1_555 1_555
C63_11 C58_11 1_555 1_555
H43_11 C63_11 1_555 1_555
C68_11 C63_11 1_555 1_555
H48_11 C68_11 1_555 1_555
C73_11 C68_11 1_555 1_555
C78_11 N29_10 1_555 1_555
H53_11 C78_11 1_555 1_555
C83_11 C73_11 1_555 1_555
C88_11 N41_11 1_555 1_555
C93_11 N36_11 1_555 1_555
C98_11 N51_11 1_555 1_555
H58_11 C98_11 1_555 1_555
C103_11 C98_11 1_555 1_555
H63_11 C103_11 1_555 1_555
C108_11 C103_11 1_555 1_555
H68_11 C108_11 1_555 1_555
C113_11 C93_11 1_555 1_555
C118_11 N51_11 1_555 1_555
H73_11 C118_11 1_555 1_555
C156_11 N20_11 1_555 1_555
N46_11 C93_11 1_555 1_555
C38_11 C88_11 1_555 1_555
C48_11 C53_11 1_555 1_555
C73_11 C78_11 1_555 1_555
C108_11 C113_11 1_555 1_555
C113_11 C118_11 1_555 1_555
Co6_9 N12_12 1_555 1_555
N12_12 C28_12 1_555 1_555
N33_12 Co6_9 1_555 1_555
S4_12 C28_12 1_555 1_555
S11_12 C155_12 1_555 1_555
S12_12 C156_12 1_555 1_555
Co1_12 N1_12 1_555 1_555
Co11_2 N2_11 1_555 1_555
N1_12 C1_12 1_555 1_555
N2_11 C26_11 1_555 1_555
N3_8 C2_10 1_555 1_555
N4_10 Co1_12 1_555 1_555
N5_10 C12_10 1_555 1_555
N6_10 C12_10 1_555 1_555
N7_10 C13_10 1_555 1_555
N8_10 Co11_2 1_555 1_555
S1_12 C1_12 1_555 1_555
S2_11 C26_11 1_555 1_555
C2_10 H1_10 1_555 1_555
C3_10 C2_10 1_555 1_555
C4_10 C3_10 1_555 1_555
H2_10 C4_10 1_555 1_555
C5_10 C4_10 1_555 1_555
H3_10 C5_10 1_555 1_555
C6_10 N3_8 1_555 1_555
H4_10 C6_10 1_555 1_555
C7_10 N4_10 1_555 1_555
H5_10 C7_10 1_555 1_555
C8_10 C7_10 1_555 1_555
H6_10 C8_10 1_555 1_555
C9_10 C8_10 1_555 1_555
H7_10 C9_10 1_555 1_555
C10_10 C9_10 1_555 1_555
C11_10 N4_10 1_555 1_555
H8_10 C11_10 1_555 1_555
C12_10 C10_10 1_555 1_555
C13_10 N6_10 1_555 1_555
C14_10 N5_10 1_555 1_555
C15_10 N8_10 1_555 1_555
H9_10 C15_10 1_555 1_555
C16_10 C15_10 1_555 1_555
H10_10 C16_10 1_555 1_555
C17_10 C16_10 1_555 1_555
H11_10 C17_10 1_555 1_555
C18_10 C14_10 1_555 1_555
C19_10 N8_10 1_555 1_555
H12_10 C19_10 1_555 1_555
Co5_9 N3_8 1_555 1_555
Co7_9 N31_10 1_555 1_555
Co9_10 N17_10 1_555 1_555
Co10_12 N19_12 1_555 1_555
Co13_7 N52_11 1_555 1_555
N11_12 Co1_12 1_555 1_555
N13_12 Co6_10 1_555 1_555
N16_11 Co11_2 1_555 1_555
N17_10 C153_10 1_555 1_555
N18_10 Co9_10 1_555 1_555
N20_12 Co10_12 1_555 1_555
N21_12 Co1_12 1_555 1_555
N22_12 Co1_12 1_555 1_555
N27_6 C34_11 1_555 1_555
N24_10 Co6_10 1_555 1_555
N28_12 Co6_10 1_555 1_555
N30_11 Co1_12 1_555 1_555
N31_10 C60_10 1_555 1_555
N35_12 C82_12 1_555 1_555
N36_12 C83_12 1_555 1_555
N37_11 C84_11 1_555 1_555
N38_10 C85_10 1_555 1_555
N40_12 C82_12 1_555 1_555
N41_12 C83_12 1_555 1_555
N42_11 C84_11 1_555 1_555
N43_10 C85_10 1_555 1_555
N45_12 C87_12 1_555 1_555
N46_12 C88_12 1_555 1_555
N47_11 C89_11 1_555 1_555
N48_10 C90_10 1_555 1_555
N50_10 Co9_10 1_555 1_555
N51_12 Co10_12 1_555 1_555
N52_11 C99_11 1_555 1_555
N53_10 Co11_2 1_555 1_555
N55_10 Co9_10 1_555 1_555
N56_12 Co10_12 1_555 1_555
N62_10 Co9_10 1_555 1_555
N63_10 Co9_10 1_555 1_555
S3_12 C27_12 1_555 1_555
S5_12 C29_12 1_555 1_555
S8_11 C152_11 1_555 1_555
S9_10 C153_10 1_555 1_555
S10_10 C154_10 1_555 1_555
C27_12 N11_12 1_555 1_555
C29_12 N13_12 1_555 1_555
C32_12 N21_12 1_555 1_555
C33_12 N22_12 1_555 1_555
C34_11 H19_11 1_555 1_555
C35_10 N24_10 1_555 1_555
H17_12 C32_12 1_555 1_555
H18_12 C33_12 1_555 1_555
H20_10 C35_10 1_555 1_555
C37_12 C32_12 1_555 1_555
C38_12 C33_12 1_555 1_555
C39_11 C34_11 1_555 1_555
C40_10 C35_10 1_555 1_555
C42_12 C37_12 1_555 1_555
C43_12 C38_12 1_555 1_555
C44_11 C39_11 1_555 1_555
C45_10 C40_10 1_555 1_555
H22_12 C42_12 1_555 1_555
H23_12 C43_12 1_555 1_555
H24_11 C44_11 1_555 1_555
H25_10 C45_10 1_555 1_555
C47_12 C42_12 1_555 1_555
C48_12 C43_12 1_555 1_555
C49_11 C44_11 1_555 1_555
C50_10 C45_10 1_555 1_555
H27_12 C47_12 1_555 1_555
H28_12 C48_12 1_555 1_555
H29_11 C49_11 1_555 1_555
H30_10 C50_10 1_555 1_555
C52_12 N21_12 1_555 1_555
C53_12 N22_12 1_555 1_555
C54_11 N27_6 1_555 1_555
C55_10 N24_10 1_555 1_555
H32_12 C52_12 1_555 1_555
H33_12 C53_12 1_555 1_555
H34_11 C54_11 1_555 1_555
H35_10 C55_10 1_555 1_555
C57_12 N28_12 1_555 1_555
C58_12 N34_10 1_555 1_555
C59_11 N30_11 1_555 1_555
C60_10 H40_10 1_555 1_555
H37_12 C57_12 1_555 1_555
H38_12 C58_12 1_555 1_555
H39_11 C59_11 1_555 1_555
C62_12 C57_12 1_555 1_555
C63_12 C58_12 1_555 1_555
C64_11 C59_11 1_555 1_555
C65_10 C60_10 1_555 1_555
H42_12 C62_12 1_555 1_555
H43_12 C63_12 1_555 1_555
H44_11 C64_11 1_555 1_555
H45_10 C65_10 1_555 1_555
C67_12 C62_12 1_555 1_555
C68_12 C63_12 1_555 1_555
C69_11 C64_11 1_555 1_555
C70_10 C65_10 1_555 1_555
H47_12 C67_12 1_555 1_555
H48_12 C68_12 1_555 1_555
H49_11 C69_11 1_555 1_555
H50_10 C70_10 1_555 1_555
C72_12 C67_12 1_555 1_555
C73_12 C68_12 1_555 1_555
C74_11 C69_11 1_555 1_555
C75_10 C70_10 1_555 1_555
C77_12 N28_12 1_555 1_555
C78_12 N34_10 1_555 1_555
C79_11 N30_11 1_555 1_555
C80_10 N31_10 1_555 1_555
H52_12 C77_12 1_555 1_555
H53_12 C78_12 1_555 1_555
H54_11 C79_11 1_555 1_555
H55_10 C80_10 1_555 1_555
C82_12 C72_12 1_555 1_555
C83_12 C73_12 1_555 1_555
C84_11 C74_11 1_555 1_555
C85_10 C75_10 1_555 1_555
C87_12 N40_12 1_555 1_555
C88_12 N41_12 1_555 1_555
C89_11 N42_11 1_555 1_555
C90_10 N43_10 1_555 1_555
C92_12 N35_12 1_555 1_555
C93_12 N36_12 1_555 1_555
C94_11 N37_11 1_555 1_555
C95_10 N38_10 1_555 1_555
C97_12 N50_10 1_555 1_555
C98_12 N51_12 1_555 1_555
C99_11 H59_11 1_555 1_555
C100_10 N53_10 1_555 1_555
H57_12 C97_12 1_555 1_555
H58_12 C98_12 1_555 1_555
H60_10 C100_10 1_555 1_555
C102_12 C97_12 1_555 1_555
C103_12 C98_12 1_555 1_555
C104_11 C99_11 1_555 1_555
C105_10 C100_10 1_555 1_555
H62_12 C102_12 1_555 1_555
H63_12 C103_12 1_555 1_555
H64_11 C104_11 1_555 1_555
H65_10 C105_10 1_555 1_555
C107_12 C102_12 1_555 1_555
C108_12 C103_12 1_555 1_555
C109_11 C104_11 1_555 1_555
C110_10 C105_10 1_555 1_555
H67_12 C107_12 1_555 1_555
H68_12 C108_12 1_555 1_555
H69_11 C109_11 1_555 1_555
H70_10 C110_10 1_555 1_555
C112_12 C92_12 1_555 1_555
C113_12 C93_12 1_555 1_555
C114_11 C94_11 1_555 1_555
C115_10 C95_10 1_555 1_555
C117_12 N50_10 1_555 1_555
C118_12 N51_12 1_555 1_555
C119_11 N52_11 1_555 1_555
C120_10 N53_10 1_555 1_555
H72_12 C117_12 1_555 1_555
H73_12 C118_12 1_555 1_555
H74_11 C119_11 1_555 1_555
H75_10 C120_10 1_555 1_555
C152_11 N16_11 1_555 1_555
C154_10 N18_10 1_555 1_555
N7_10 C14_10 1_555 1_555
C3_10 C13_10 1_555 1_555
C5_10 C6_10 1_555 1_555
C10_10 C11_10 1_555 1_555
C17_10 C18_10 1_555 1_555
C18_10 C19_10 1_555 1_555
N45_12 C92_12 1_555 1_555
N46_12 C93_12 1_555 1_555
N47_11 C94_11 1_555 1_555
N48_10 C95_10 1_555 1_555
C37_12 C87_12 1_555 1_555
C38_12 C88_12 1_555 1_555
C39_11 C89_11 1_555 1_555
C40_10 C90_10 1_555 1_555
C47_12 C52_12 1_555 1_555
C48_12 C53_12 1_555 1_555
C49_11 C54_11 1_555 1_555
C50_10 C55_10 1_555 1_555
C72_12 C77_12 1_555 1_555
C73_12 C78_12 1_555 1_555
C74_11 C79_11 1_555 1_555
C75_10 C80_10 1_555 1_555
C107_12 C112_12 1_555 1_555
C108_12 C113_12 1_555 1_555
C109_11 C114_11 1_555 1_555
C110_10 C115_10 1_555 1_555
C112_12 C117_12 1_555 1_555
C113_12 C118_12 1_555 1_555
C114_11 C119_11 1_555 1_555
C115_10 C120_10 1_555 1_555
Co1_13 N1_13 1_555 1_555
Co2_7 N2_12 1_555 1_555
N1_13 C1_13 1_555 1_555
N2_12 C26_12 1_555 1_555
N27_5 C2_11 1_555 1_555
N4_11 Co1_13 1_555 1_555
N5_11 C12_11 1_555 1_555
N6_11 C12_11 1_555 1_555
N7_11 C13_11 1_555 1_555
N8_11 Co2_7 1_555 1_555
N9_8 Co2_7 1_555 1_555
N10_8 C25_8 1_555 1_555
S1_13 C1_13 1_555 1_555
S2_12 C26_12 1_555 1_555
C2_11 H1_11 1_555 1_555
C3_11 C2_11 1_555 1_555
C4_11 C3_11 1_555 1_555
H2_11 C4_11 1_555 1_555
C5_11 C4_11 1_555 1_555
H3_11 C5_11 1_555 1_555
C6_11 N27_5 1_555 1_555
H4_11 C6_11 1_555 1_555
C7_11 N4_11 1_555 1_555
H5_11 C7_11 1_555 1_555
C8_11 C7_11 1_555 1_555
H6_11 C8_11 1_555 1_555
C9_11 C8_11 1_555 1_555
H7_11 C9_11 1_555 1_555
C10_11 C9_11 1_555 1_555
C11_11 N4_11 1_555 1_555
H8_11 C11_11 1_555 1_555
C12_11 C10_11 1_555 1_555
C13_11 N6_11 1_555 1_555
C14_11 N5_11 1_555 1_555
C15_11 N8_11 1_555 1_555
H9_11 C15_11 1_555 1_555
C16_11 C15_11 1_555 1_555
H10_11 C16_11 1_555 1_555
C17_11 C16_11 1_555 1_555
H11_11 C17_11 1_555 1_555
C18_11 C14_11 1_555 1_555
C19_11 N8_11 1_555 1_555
H12_11 C19_11 1_555 1_555
C20_8 N9_8 1_555 1_555
H13_8 C20_8 1_555 1_555
C21_8 C20_8 1_555 1_555
H14_8 C21_8 1_555 1_555
C22_8 C21_8 1_555 1_555
H15_8 C22_8 1_555 1_555
C23_8 C22_8 1_555 1_555
C24_8 N9_8 1_555 1_555
H16_8 C24_8 1_555 1_555
C25_8 C23_8 1_555 1_555
Co3_12 N12_13 1_555 1_555
Co4_9 N14_11 1_555 1_555
Co6_15 N23_11 1_555 1_555
Co7_11 N31_11 1_555 1_555
Co8_11 N32_11 1_555 1_555
Co9_11 N17_11 1_555 1_555
Co10_13 N19_13 1_555 1_555
Co16_4 N58_8 1_555 1_555
Co13_8 N52_12 1_555 1_555
Co14_6 N60_8 1_555 1_555
Co15_5 N61_8 1_555 1_555
Co16_6 N54_11 1_555 1_555
N11_13 Co1_13 1_555 1_555
N12_13 C28_13 1_555 1_555
N13_13 Co3_12 1_555 1_555
N14_11 C30_11 1_555 1_555
N15_11 Co4_9 1_555 1_555
N16_12 Co2_7 1_555 1_555
N17_11 C153_11 1_555 1_555
N18_11 Co9_11 1_555 1_555
N19_13 C155_13 1_555 1_555
N20_13 Co10_13 1_555 1_555
N21_13 Co1_13 1_555 1_555
N22_13 Co1_13 1_555 1_555
N23_11 C34_12 1_555 1_555
N24_11 Co3_12 1_555 1_555
N25_11 Co3_12 1_555 1_555
N26_11 Co4_9 1_555 1_555
N27_8 Co4_9 1_555 1_555
N28_13 Co3_12 1_555 1_555
N29_11 Co4_9 1_555 1_555
N30_12 Co1_13 1_555 1_555
N31_11 C60_11 1_555 1_555
N32_11 C61_11 1_555 1_555
N33_13 Co3_12 1_555 1_555
N34_11 Co4_9 1_555 1_555
N35_13 C82_13 1_555 1_555
N36_13 C83_13 1_555 1_555
N37_12 C84_12 1_555 1_555
N38_11 C85_11 1_555 1_555
N39_11 C86_11 1_555 1_555
N40_13 C82_13 1_555 1_555
N41_13 C83_13 1_555 1_555
N42_12 C84_12 1_555 1_555
N43_11 C85_11 1_555 1_555
N44_11 C86_11 1_555 1_555
N45_13 C87_13 1_555 1_555
N46_13 C88_13 1_555 1_555
N47_12 C89_12 1_555 1_555
N48_11 C90_11 1_555 1_555
N49_11 C91_11 1_555 1_555
N50_11 Co9_11 1_555 1_555
N51_13 Co10_13 1_555 1_555
N52_12 C99_12 1_555 1_555
N53_11 Co2_7 1_555 1_555
N54_11 C101_11 1_555 1_555
N55_11 Co9_11 1_555 1_555
N56_13 Co10_13 1_555 1_555
N57_8 C122_8 1_555 1_555
N58_8 C123_8 1_555 1_555
N59_8 Co2_7 1_555 1_555
N60_8 C125_8 1_555 1_555
N61_8 C126_8 1_555 1_555
N62_11 Co9_11 1_555 1_555
N63_11 Co9_11 1_555 1_555
N64_13 Co10_13 1_555 1_555
N65_13 Co10_13 1_555 1_555
N66_8 C147_8 1_555 1_555
N67_8 C25_8 1_555 1_555
N68_8 C149_8 1_555 1_555
N69_8 C150_8 1_555 1_555
N70_8 C149_8 1_555 1_555
S3_13 C27_13 1_555 1_555
S4_13 C28_13 1_555 1_555
S5_13 C29_13 1_555 1_555
S6_11 C30_11 1_555 1_555
S7_11 C31_11 1_555 1_555
S8_12 C152_12 1_555 1_555
S9_11 C153_11 1_555 1_555
S10_11 C154_11 1_555 1_555
S11_13 C155_13 1_555 1_555
S12_13 C156_13 1_555 1_555
C27_13 N11_13 1_555 1_555
C29_13 N13_13 1_555 1_555
C31_11 N15_11 1_555 1_555
C32_13 N21_13 1_555 1_555
C33_13 N22_13 1_555 1_555
C34_12 H19_12 1_555 1_555
C35_11 N24_11 1_555 1_555
C36_11 N25_11 1_555 1_555
H17_13 C32_13 1_555 1_555
H18_13 C33_13 1_555 1_555
H20_11 C35_11 1_555 1_555
H21_11 C36_11 1_555 1_555
C37_13 C32_13 1_555 1_555
C38_13 C33_13 1_555 1_555
C39_12 C34_12 1_555 1_555
C40_11 C35_11 1_555 1_555
C41_11 C36_11 1_555 1_555
C42_13 C37_13 1_555 1_555
C43_13 C38_13 1_555 1_555
C44_12 C39_12 1_555 1_555
C45_11 C40_11 1_555 1_555
C46_11 C41_11 1_555 1_555
H22_13 C42_13 1_555 1_555
H23_13 C43_13 1_555 1_555
H24_12 C44_12 1_555 1_555
H25_11 C45_11 1_555 1_555
H26_11 C46_11 1_555 1_555
C47_13 C42_13 1_555 1_555
C48_13 C43_13 1_555 1_555
C49_12 C44_12 1_555 1_555
C50_11 C45_11 1_555 1_555
C51_11 C46_11 1_555 1_555
H27_13 C47_13 1_555 1_555
H28_13 C48_13 1_555 1_555
H29_12 C49_12 1_555 1_555
H30_11 C50_11 1_555 1_555
H31_11 C51_11 1_555 1_555
C52_13 N21_13 1_555 1_555
C53_13 N22_13 1_555 1_555
C54_12 N23_11 1_555 1_555
C55_11 N24_11 1_555 1_555
C56_11 N25_11 1_555 1_555
H32_13 C52_13 1_555 1_555
H33_13 C53_13 1_555 1_555
H34_12 C54_12 1_555 1_555
H35_11 C55_11 1_555 1_555
H36_11 C56_11 1_555 1_555
C57_13 N28_13 1_555 1_555
C58_13 N29_11 1_555 1_555
C59_12 N30_12 1_555 1_555
C60_11 H40_11 1_555 1_555
C61_11 H41_11 1_555 1_555
H37_13 C57_13 1_555 1_555
H38_13 C58_13 1_555 1_555
H39_12 C59_12 1_555 1_555
C62_13 C57_13 1_555 1_555
C63_13 C58_13 1_555 1_555
C64_12 C59_12 1_555 1_555
C65_11 C60_11 1_555 1_555
C66_11 C61_11 1_555 1_555
H42_13 C62_13 1_555 1_555
H43_13 C63_13 1_555 1_555
H44_12 C64_12 1_555 1_555
H45_11 C65_11 1_555 1_555
H46_11 C66_11 1_555 1_555
C67_13 C62_13 1_555 1_555
C68_13 C63_13 1_555 1_555
C69_12 C64_12 1_555 1_555
C70_11 C65_11 1_555 1_555
C71_11 C66_11 1_555 1_555
H47_13 C67_13 1_555 1_555
H48_13 C68_13 1_555 1_555
H49_12 C69_12 1_555 1_555
H50_11 C70_11 1_555 1_555
H51_11 C71_11 1_555 1_555
C72_13 C67_13 1_555 1_555
C73_13 C68_13 1_555 1_555
C74_12 C69_12 1_555 1_555
C75_11 C70_11 1_555 1_555
C76_11 C71_11 1_555 1_555
C77_13 N28_13 1_555 1_555
C78_13 N29_11 1_555 1_555
C79_12 N30_12 1_555 1_555
C80_11 N31_11 1_555 1_555
C81_11 N32_11 1_555 1_555
H52_13 C77_13 1_555 1_555
H53_13 C78_13 1_555 1_555
H54_12 C79_12 1_555 1_555
H55_11 C80_11 1_555 1_555
H56_11 C81_11 1_555 1_555
C82_13 C72_13 1_555 1_555
C83_13 C73_13 1_555 1_555
C84_12 C74_12 1_555 1_555
C85_11 C75_11 1_555 1_555
C86_11 C76_11 1_555 1_555
C87_13 N40_13 1_555 1_555
C88_13 N41_13 1_555 1_555
C89_12 N42_12 1_555 1_555
C90_11 N43_11 1_555 1_555
C91_11 N44_11 1_555 1_555
C92_13 N35_13 1_555 1_555
C93_13 N36_13 1_555 1_555
C94_12 N37_12 1_555 1_555
C95_11 N38_11 1_555 1_555
C96_11 N39_11 1_555 1_555
C97_13 N50_11 1_555 1_555
C98_13 N51_13 1_555 1_555
C99_12 H59_12 1_555 1_555
C100_11 N53_11 1_555 1_555
C101_11 H61_11 1_555 1_555
H57_13 C97_13 1_555 1_555
H58_13 C98_13 1_555 1_555
H60_11 C100_11 1_555 1_555
C102_13 C97_13 1_555 1_555
C103_13 C98_13 1_555 1_555
C104_12 C99_12 1_555 1_555
C105_11 C100_11 1_555 1_555
C106_11 C101_11 1_555 1_555
H62_13 C102_13 1_555 1_555
H63_13 C103_13 1_555 1_555
H64_12 C104_12 1_555 1_555
H65_11 C105_11 1_555 1_555
H66_11 C106_11 1_555 1_555
C107_13 C102_13 1_555 1_555
C108_13 C103_13 1_555 1_555
C109_12 C104_12 1_555 1_555
C110_11 C105_11 1_555 1_555
C111_11 C106_11 1_555 1_555
H67_13 C107_13 1_555 1_555
H68_13 C108_13 1_555 1_555
H69_12 C109_12 1_555 1_555
H70_11 C110_11 1_555 1_555
H71_11 C111_11 1_555 1_555
C112_13 C92_13 1_555 1_555
C113_13 C93_13 1_555 1_555
C114_12 C94_12 1_555 1_555
C115_11 C95_11 1_555 1_555
C116_11 C96_11 1_555 1_555
C117_13 N50_11 1_555 1_555
C118_13 N51_13 1_555 1_555
C119_12 N52_12 1_555 1_555
C120_11 N53_11 1_555 1_555
C121_11 N54_11 1_555 1_555
H72_13 C117_13 1_555 1_555
H73_13 C118_13 1_555 1_555
H74_12 C119_12 1_555 1_555
H75_11 C120_11 1_555 1_555
H76_11 C121_11 1_555 1_555
C122_8 H77_8 1_555 1_555
C123_8 H78_8 1_555 1_555
C124_8 N59_8 1_555 1_555
C125_8 H80_8 1_555 1_555
C126_8 H81_8 1_555 1_555
H79_8 C124_8 1_555 1_555
C127_8 C122_8 1_555 1_555
C128_8 C123_8 1_555 1_555
C129_8 C124_8 1_555 1_555
C130_8 C125_8 1_555 1_555
C131_8 C126_8 1_555 1_555
H82_8 C127_8 1_555 1_555
H83_8 C128_8 1_555 1_555
H84_8 C129_8 1_555 1_555
H85_8 C130_8 1_555 1_555
H86_8 C131_8 1_555 1_555
C132_8 C127_8 1_555 1_555
C133_8 C128_8 1_555 1_555
C134_8 C129_8 1_555 1_555
C135_8 C130_8 1_555 1_555
C136_8 C131_8 1_555 1_555
H87_8 C132_8 1_555 1_555
H88_8 C133_8 1_555 1_555
H89_8 C134_8 1_555 1_555
H90_8 C135_8 1_555 1_555
H91_8 C136_8 1_555 1_555
C137_8 C132_8 1_555 1_555
C138_8 C133_8 1_555 1_555
C139_8 C134_8 1_555 1_555
C140_8 C135_8 1_555 1_555
C141_8 C136_8 1_555 1_555
C142_8 N57_8 1_555 1_555
C143_8 N58_8 1_555 1_555
C144_8 N59_8 1_555 1_555
C145_8 N60_8 1_555 1_555
C146_8 N61_8 1_555 1_555
H92_8 C142_8 1_555 1_555
H93_8 C143_8 1_555 1_555
H94_8 C144_8 1_555 1_555
H95_8 C145_8 1_555 1_555
H96_8 C146_8 1_555 1_555
C147_8 N10_8 1_555 1_555
C148_8 N66_8 1_555 1_555
C149_8 C139_8 1_555 1_555
C150_8 N68_8 1_555 1_555
C151_8 N69_8 1_555 1_555
C152_12 N16_12 1_555 1_555
C154_11 N18_11 1_555 1_555
C156_13 N20_13 1_555 1_555
N7_11 C14_11 1_555 1_555
C3_11 C13_11 1_555 1_555
C5_11 C6_11 1_555 1_555
C10_11 C11_11 1_555 1_555
C17_11 C18_11 1_555 1_555
C18_11 C19_11 1_555 1_555
C23_8 C24_8 1_555 1_555
N45_13 C92_13 1_555 1_555
N46_13 C93_13 1_555 1_555
N47_12 C94_12 1_555 1_555
N48_11 C95_11 1_555 1_555
N49_11 C96_11 1_555 1_555
N67_8 C148_8 1_555 1_555
N70_8 C151_8 1_555 1_555
C37_13 C87_13 1_555 1_555
C38_13 C88_13 1_555 1_555
C39_12 C89_12 1_555 1_555
C40_11 C90_11 1_555 1_555
C41_11 C91_11 1_555 1_555
C47_13 C52_13 1_555 1_555
C48_13 C53_13 1_555 1_555
C49_12 C54_12 1_555 1_555
C50_11 C55_11 1_555 1_555
C51_11 C56_11 1_555 1_555
C72_13 C77_13 1_555 1_555
C73_13 C78_13 1_555 1_555
C74_12 C79_12 1_555 1_555
C75_11 C80_11 1_555 1_555
C76_11 C81_11 1_555 1_555
C107_13 C112_13 1_555 1_555
C108_13 C113_13 1_555 1_555
C109_12 C114_12 1_555 1_555
C110_11 C115_11 1_555 1_555
C111_11 C116_11 1_555 1_555
C112_13 C117_13 1_555 1_555
C113_13 C118_13 1_555 1_555
C114_12 C119_12 1_555 1_555
C115_11 C120_11 1_555 1_555
C116_11 C121_11 1_555 1_555
C137_8 C142_8 1_555 1_555
C137_8 C148_8 1_555 1_555
C138_8 C143_8 1_555 1_555
C138_8 C147_8 1_555 1_555
C139_8 C144_8 1_555 1_555
C140_8 C145_8 1_555 1_555
C140_8 C151_8 1_555 1_555
C141_8 C146_8 1_555 1_555
C141_8 C150_8 1_555 1_555
Co12 N2_13 1_555 1_555
N2_13 C26_13 1_555 1_555
S2_13 C26_13 1_555 1_555
Co9_12 N17_12 1_555 1_555
N11_14 Co7_7 1_555 1_555
N16_13 Co12 1_555 1_555
N17_12 C153_12 1_555 1_555
N18_12 Co9_12 1_555 1_555
N21_14 Co7_7 1_555 1_555
N35_14 C82_14 1_555 1_555
N40_14 C82_14 1_555 1_555
N45_14 C87_14 1_555 1_555
N50_12 Co9_12 1_555 1_555
N55_12 Co9_12 1_555 1_555
N62_12 Co9_12 1_555 1_555
N63_12 Co9_12 1_555 1_555
S3_14 C27_14 1_555 1_555
S8_13 C152_13 1_555 1_555
S9_12 C153_12 1_555 1_555
S10_12 C154_12 1_555 1_555
C27_14 N11_14 1_555 1_555
C32_14 N21_14 1_555 1_555
H17_14 C32_14 1_555 1_555
C37_14 C32_14 1_555 1_555
C42_14 C37_14 1_555 1_555
H22_14 C42_14 1_555 1_555
C47_14 C42_14 1_555 1_555
H27_14 C47_14 1_555 1_555
C52_14 N21_14 1_555 1_555
H32_14 C52_14 1_555 1_555
C57_14 N33_2 1_555 1_555
H37_14 C57_14 1_555 1_555
C62_14 C57_14 1_555 1_555
H42_14 C62_14 1_555 1_555
C67_14 C62_14 1_555 1_555
H47_14 C67_14 1_555 1_555
C72_14 C67_14 1_555 1_555
C77_14 N33_2 1_555 1_555
H52_14 C77_14 1_555 1_555
C82_14 C72_14 1_555 1_555
C87_14 N40_14 1_555 1_555
C92_14 N35_14 1_555 1_555
C97_14 N50_12 1_555 1_555
H57_14 C97_14 1_555 1_555
C102_14 C97_14 1_555 1_555
H62_14 C102_14 1_555 1_555
C107_14 C102_14 1_555 1_555
H67_14 C107_14 1_555 1_555
C112_14 C92_14 1_555 1_555
C117_14 N50_12 1_555 1_555
H72_14 C117_14 1_555 1_555
C152_13 N16_13 1_555 1_555
C154_12 N18_12 1_555 1_555
N45_14 C92_14 1_555 1_555
C37_14 C87_14 1_555 1_555
C47_14 C52_14 1_555 1_555
C72_14 C77_14 1_555 1_555
C107_14 C112_14 1_555 1_555
C112_14 C117_14 1_555 1_555
Co7_8 N1_14 1_555 1_555
N1_14 C1_14 1_555 1_555
S1_14 C1_14 1_555 1_555
Co5_6 N14_12 1_555 1_555
N14_12 C30_12 1_555 1_555
N15_12 Co5_6 1_555 1_555
N22_14 Co7_8 1_555 1_555
N27_9 Co5_6 1_555 1_555
N29_12 Co5_6 1_555 1_555
N34_12 Co5_6 1_555 1_555
N36_14 C83_14 1_555 1_555
N41_14 C83_14 1_555 1_555
N46_14 C88_14 1_555 1_555
S6_12 C30_12 1_555 1_555
S7_12 C31_12 1_555 1_555
C31_12 N15_12 1_555 1_555
C33_14 N22_14 1_555 1_555
H18_14 C33_14 1_555 1_555
C38_14 C33_14 1_555 1_555
C43_14 C38_14 1_555 1_555
H23_14 C43_14 1_555 1_555
C48_14 C43_14 1_555 1_555
H28_14 C48_14 1_555 1_555
C53_14 N22_14 1_555 1_555
H33_14 C53_14 1_555 1_555
C58_14 N29_12 1_555 1_555
H38_14 C58_14 1_555 1_555
C63_14 C58_14 1_555 1_555
H43_14 C63_14 1_555 1_555
C68_14 C63_14 1_555 1_555
H48_14 C68_14 1_555 1_555
C73_14 C68_14 1_555 1_555
C78_14 N29_12 1_555 1_555
H53_14 C78_14 1_555 1_555
C83_14 C73_14 1_555 1_555
C88_14 N41_14 1_555 1_555
C93_14 N36_14 1_555 1_555
C98_14 N55_7 1_555 1_555
H58_14 C98_14 1_555 1_555
C103_14 C98_14 1_555 1_555
H63_14 C103_14 1_555 1_555
C108_14 C103_14 1_555 1_555
H68_14 C108_14 1_555 1_555
C113_14 C93_14 1_555 1_555
C118_14 N55_7 1_555 1_555
H73_14 C118_14 1_555 1_555
N46_14 C93_14 1_555 1_555
C38_14 C88_14 1_555 1_555
C48_14 C53_14 1_555 1_555
C73_14 C78_14 1_555 1_555
C108_14 C113_14 1_555 1_555
C113_14 C118_14 1_555 1_555
Co5_7 N14_13 1_555 1_555
N14_13 C30_13 1_555 1_555
N34_13 Co5_7 1_555 1_555
S6_13 C30_13 1_555 1_555
Co8_3 N1_15 1_555 1_555
Co16_2 N2_14 1_555 1_555
N1_15 C1_15 1_555 1_555
N2_14 C26_14 1_555 1_555
N9_9 Co16_2 1_555 1_555
N10_9 C25_9 1_555 1_555
S1_15 C1_15 1_555 1_555
S2_14 C26_14 1_555 1_555
C20_9 N9_9 1_555 1_555
H13_9 C20_9 1_555 1_555
C21_9 C20_9 1_555 1_555
H14_9 C21_9 1_555 1_555
C22_9 C21_9 1_555 1_555
H15_9 C22_9 1_555 1_555
C23_9 C22_9 1_555 1_555
C24_9 N9_9 1_555 1_555
H16_9 C24_9 1_555 1_555
C25_9 C23_9 1_555 1_555
Co11_4 N57_9 1_555 1_555
Co12_5 N58_9 1_555 1_555
Co15_3 N52_13 1_555 1_555
Co13_7 N60_9 1_555 1_555
N11_15 Co8_3 1_555 1_555
N13_14 Co6_5 1_555 1_555
N15_13 Co5_8 1_555 1_555
N16_14 Co16_2 1_555 1_555
N21_15 Co8_3 1_555 1_555
N22_15 Co8_3 1_555 1_555
N26_9 C34_13 1_555 1_555
N28_14 Co6_5 1_555 1_555
N29_13 Co5_8 1_555 1_555
N30_13 Co8_3 1_555 1_555
N35_15 C82_15 1_555 1_555
N36_15 C83_15 1_555 1_555
N37_13 C84_13 1_555 1_555
N40_15 C82_15 1_555 1_555
N41_15 C83_15 1_555 1_555
N42_13 C84_13 1_555 1_555
N45_15 C87_15 1_555 1_555
N46_15 C88_15 1_555 1_555
N47_13 C89_13 1_555 1_555
N52_13 C99_13 1_555 1_555
N57_9 C122_9 1_555 1_555
N58_9 C123_9 1_555 1_555
N59_9 Co16_2 1_555 1_555
N60_9 C125_9 1_555 1_555
N61_9 C126_9 1_555 1_555
N66_9 C147_9 1_555 1_555
N67_9 C25_9 1_555 1_555
N68_9 C149_9 1_555 1_555
N69_9 C150_9 1_555 1_555
N70_9 C149_9 1_555 1_555
S3_15 C27_15 1_555 1_555
S5_14 C29_14 1_555 1_555
S7_13 C31_13 1_555 1_555
S8_14 C152_14 1_555 1_555
C27_15 N11_15 1_555 1_555
C29_14 N13_14 1_555 1_555
C31_13 N15_13 1_555 1_555
C32_15 N21_15 1_555 1_555
C33_15 N22_15 1_555 1_555
C34_13 H19_13 1_555 1_555
H17_15 C32_15 1_555 1_555
H18_15 C33_15 1_555 1_555
C37_15 C32_15 1_555 1_555
C38_15 C33_15 1_555 1_555
C39_13 C34_13 1_555 1_555
C42_15 C37_15 1_555 1_555
C43_15 C38_15 1_555 1_555
C44_13 C39_13 1_555 1_555
H22_15 C42_15 1_555 1_555
H23_15 C43_15 1_555 1_555
H24_13 C44_13 1_555 1_555
C47_15 C42_15 1_555 1_555
C48_15 C43_15 1_555 1_555
C49_13 C44_13 1_555 1_555
H27_15 C47_15 1_555 1_555
H28_15 C48_15 1_555 1_555
H29_13 C49_13 1_555 1_555
C52_15 N21_15 1_555 1_555
C53_15 N22_15 1_555 1_555
C54_13 N26_9 1_555 1_555
H32_15 C52_15 1_555 1_555
H33_15 C53_15 1_555 1_555
H34_13 C54_13 1_555 1_555
C57_15 N28_14 1_555 1_555
C58_15 N29_13 1_555 1_555
C59_13 N30_13 1_555 1_555
H37_15 C57_15 1_555 1_555
H38_15 C58_15 1_555 1_555
H39_13 C59_13 1_555 1_555
C62_15 C57_15 1_555 1_555
C63_15 C58_15 1_555 1_555
C64_13 C59_13 1_555 1_555
H42_15 C62_15 1_555 1_555
H43_15 C63_15 1_555 1_555
H44_13 C64_13 1_555 1_555
C67_15 C62_15 1_555 1_555
C68_15 C63_15 1_555 1_555
C69_13 C64_13 1_555 1_555
H47_15 C67_15 1_555 1_555
H48_15 C68_15 1_555 1_555
H49_13 C69_13 1_555 1_555
C72_15 C67_15 1_555 1_555
C73_15 C68_15 1_555 1_555
C74_13 C69_13 1_555 1_555
C77_15 N28_14 1_555 1_555
C78_15 N29_13 1_555 1_555
C79_13 N30_13 1_555 1_555
H52_15 C77_15 1_555 1_555
H53_15 C78_15 1_555 1_555
H54_13 C79_13 1_555 1_555
C82_15 C72_15 1_555 1_555
C83_15 C73_15 1_555 1_555
C84_13 C74_13 1_555 1_555
C87_15 N40_15 1_555 1_555
C88_15 N41_15 1_555 1_555
C89_13 N42_13 1_555 1_555
C92_15 N35_15 1_555 1_555
C93_15 N36_15 1_555 1_555
C94_13 N37_13 1_555 1_555
C97_15 N56_5 1_555 1_555
C98_15 N56_10 1_555 1_555
C99_13 H59_13 1_555 1_555
H57_15 C97_15 1_555 1_555
H58_15 C98_15 1_555 1_555
C102_15 C97_15 1_555 1_555
C103_15 C98_15 1_555 1_555
C104_13 C99_13 1_555 1_555
H62_15 C102_15 1_555 1_555
H63_15 C103_15 1_555 1_555
H64_13 C104_13 1_555 1_555
C107_15 C102_15 1_555 1_555
C108_15 C103_15 1_555 1_555
C109_13 C104_13 1_555 1_555
H67_15 C107_15 1_555 1_555
H68_15 C108_15 1_555 1_555
H69_13 C109_13 1_555 1_555
C112_15 C92_15 1_555 1_555
C113_15 C93_15 1_555 1_555
C114_13 C94_13 1_555 1_555
C117_15 N56_5 1_555 1_555
C118_15 N56_10 1_555 1_555
C119_13 N52_13 1_555 1_555
H72_15 C117_15 1_555 1_555
H73_15 C118_15 1_555 1_555
H74_13 C119_13 1_555 1_555
C122_9 H77_9 1_555 1_555
C123_9 H78_9 1_555 1_555
C124_9 N59_9 1_555 1_555
C125_9 H80_9 1_555 1_555
C126_9 H81_9 1_555 1_555
H79_9 C124_9 1_555 1_555
C127_9 C122_9 1_555 1_555
C128_9 C123_9 1_555 1_555
C129_9 C124_9 1_555 1_555
C130_9 C125_9 1_555 1_555
C131_9 C126_9 1_555 1_555
H82_9 C127_9 1_555 1_555
H83_9 C128_9 1_555 1_555
H84_9 C129_9 1_555 1_555
H85_9 C130_9 1_555 1_555
H86_9 C131_9 1_555 1_555
C132_9 C127_9 1_555 1_555
C133_9 C128_9 1_555 1_555
C134_9 C129_9 1_555 1_555
C135_9 C130_9 1_555 1_555
C136_9 C131_9 1_555 1_555
H87_9 C132_9 1_555 1_555
H88_9 C133_9 1_555 1_555
H89_9 C134_9 1_555 1_555
H90_9 C135_9 1_555 1_555
H91_9 C136_9 1_555 1_555
C137_9 C132_9 1_555 1_555
C138_9 C133_9 1_555 1_555
C139_9 C134_9 1_555 1_555
C140_9 C135_9 1_555 1_555
C141_9 C136_9 1_555 1_555
C142_9 N57_9 1_555 1_555
C143_9 N58_9 1_555 1_555
C144_9 N59_9 1_555 1_555
C145_9 N60_9 1_555 1_555
C146_9 N61_9 1_555 1_555
H92_9 C142_9 1_555 1_555
H93_9 C143_9 1_555 1_555
H94_9 C144_9 1_555 1_555
H95_9 C145_9 1_555 1_555
H96_9 C146_9 1_555 1_555
C147_9 N10_9 1_555 1_555
C148_9 N66_9 1_555 1_555
C149_9 C139_9 1_555 1_555
C150_9 N68_9 1_555 1_555
C151_9 N69_9 1_555 1_555
C152_14 N16_14 1_555 1_555
C23_9 C24_9 1_555 1_555
N45_15 C92_15 1_555 1_555
N46_15 C93_15 1_555 1_555
N47_13 C94_13 1_555 1_555
N67_9 C148_9 1_555 1_555
N70_9 C151_9 1_555 1_555
C37_15 C87_15 1_555 1_555
C38_15 C88_15 1_555 1_555
C39_13 C89_13 1_555 1_555
C47_15 C52_15 1_555 1_555
C48_15 C53_15 1_555 1_555
C49_13 C54_13 1_555 1_555
C72_15 C77_15 1_555 1_555
C73_15 C78_15 1_555 1_555
C74_13 C79_13 1_555 1_555
C107_15 C112_15 1_555 1_555
C108_15 C113_15 1_555 1_555
C109_13 C114_13 1_555 1_555
C112_15 C117_15 1_555 1_555
C113_15 C118_15 1_555 1_555
C114_13 C119_13 1_555 1_555
C137_9 C142_9 1_555 1_555
C137_9 C148_9 1_555 1_555
C138_9 C143_9 1_555 1_555
C138_9 C147_9 1_555 1_555
C139_9 C144_9 1_555 1_555
C140_9 C145_9 1_555 1_555
C140_9 C151_9 1_555 1_555
C141_9 C146_9 1_555 1_555
C141_9 C150_9 1_555 1_555
Co6_6 N12_14 1_555 1_555
Co8_12 N32_12 1_555 1_555
Co14_4 N54_12 1_555 1_555
N12_14 C28_14 1_555 1_555
N25_12 Co6_6 1_555 1_555
N32_12 C61_12 1_555 1_555
N33_14 Co6_6 1_555 1_555
N39_12 C86_12 1_555 1_555
N44_12 C86_12 1_555 1_555
N49_12 C91_12 1_555 1_555
N54_12 C101_12 1_555 1_555
S4_14 C28_14 1_555 1_555
C36_12 N25_12 1_555 1_555
H21_12 C36_12 1_555 1_555
C41_12 C36_12 1_555 1_555
C46_12 C41_12 1_555 1_555
H26_12 C46_12 1_555 1_555
C51_12 C46_12 1_555 1_555
H31_12 C51_12 1_555 1_555
C56_12 N25_12 1_555 1_555
H36_12 C56_12 1_555 1_555
C61_12 H41_12 1_555 1_555
C66_12 C61_12 1_555 1_555
H46_12 C66_12 1_555 1_555
C71_12 C66_12 1_555 1_555
H51_12 C71_12 1_555 1_555
C76_12 C71_12 1_555 1_555
C81_12 N32_12 1_555 1_555
H56_12 C81_12 1_555 1_555
C86_12 C76_12 1_555 1_555
C91_12 N44_12 1_555 1_555
C96_12 N39_12 1_555 1_555
C101_12 H61_12 1_555 1_555
C106_12 C101_12 1_555 1_555
H66_12 C106_12 1_555 1_555
C111_12 C106_12 1_555 1_555
H71_12 C111_12 1_555 1_555
C116_12 C96_12 1_555 1_555
C121_12 N54_12 1_555 1_555
H76_12 C121_12 1_555 1_555
N49_12 C96_12 1_555 1_555
C41_12 C91_12 1_555 1_555
C51_12 C56_12 1_555 1_555
C76_12 C81_12 1_555 1_555
C111_12 C116_12 1_555 1_555
C116_12 C121_12 1_555 1_555
Co7_9 N1_16 1_555 1_555
N1_16 C1_16 1_555 1_555
S1_16 C1_16 1_555 1_555
Co5_9 N12_15 1_555 1_555
Co6_16 N23_12 1_555 1_555
Co7_4 N32_13 1_555 1_555
Co10_14 N19_14 1_555 1_555
Co16_6 N52_14 1_555 1_555
Co12_5 N54_13 1_555 1_555
N11_16 Co7_9 1_555 1_555
N12_15 C28_15 1_555 1_555
N13_15 Co5_9 1_555 1_555
N19_14 C155_14 1_555 1_555
N20_14 Co10_14 1_555 1_555
N21_16 Co7_9 1_555 1_555
N22_16 Co7_9 1_555 1_555
N23_12 C34_14 1_555 1_555
N25_13 Co5_9 1_555 1_555
N28_15 Co5_9 1_555 1_555
N30_14 Co7_9 1_555 1_555
N32_13 C61_13 1_555 1_555
N33_15 Co5_9 1_555 1_555
N35_16 C82_16 1_555 1_555
N36_16 C83_16 1_555 1_555
N37_14 C84_14 1_555 1_555
N39_13 C86_13 1_555 1_555
N40_16 C82_16 1_555 1_555
N41_16 C83_16 1_555 1_555
N42_14 C84_14 1_555 1_555
N44_13 C86_13 1_555 1_555
N45_16 C87_16 1_555 1_555
N46_16 C88_16 1_555 1_555
N47_14 C89_14 1_555 1_555
N49_13 C91_13 1_555 1_555
N51_14 Co10_14 1_555 1_555
N52_14 C99_14 1_555 1_555
N54_13 C101_13 1_555 1_555
N56_14 Co10_14 1_555 1_555
N64_14 Co10_14 1_555 1_555
N65_14 Co10_14 1_555 1_555
S3_16 C27_16 1_555 1_555
S4_15 C28_15 1_555 1_555
S5_15 C29_15 1_555 1_555
S11_14 C155_14 1_555 1_555
S12_14 C156_14 1_555 1_555
C27_16 N11_16 1_555 1_555
C29_15 N13_15 1_555 1_555
C32_16 N21_16 1_555 1_555
C33_16 N22_16 1_555 1_555
C34_14 H19_14 1_555 1_555
C36_13 N25_13 1_555 1_555
H17_16 C32_16 1_555 1_555
H18_16 C33_16 1_555 1_555
H21_13 C36_13 1_555 1_555
C37_16 C32_16 1_555 1_555
C38_16 C33_16 1_555 1_555
C39_14 C34_14 1_555 1_555
C41_13 C36_13 1_555 1_555
C42_16 C37_16 1_555 1_555
C43_16 C38_16 1_555 1_555
C44_14 C39_14 1_555 1_555
C46_13 C41_13 1_555 1_555
H22_16 C42_16 1_555 1_555
H23_16 C43_16 1_555 1_555
H24_14 C44_14 1_555 1_555
H26_13 C46_13 1_555 1_555
C47_16 C42_16 1_555 1_555
C48_16 C43_16 1_555 1_555
C49_14 C44_14 1_555 1_555
C51_13 C46_13 1_555 1_555
H27_16 C47_16 1_555 1_555
H28_16 C48_16 1_555 1_555
H29_14 C49_14 1_555 1_555
H31_13 C51_13 1_555 1_555
C52_16 N21_16 1_555 1_555
C53_16 N22_16 1_555 1_555
C54_14 N23_12 1_555 1_555
C56_13 N25_13 1_555 1_555
H32_16 C52_16 1_555 1_555
H33_16 C53_16 1_555 1_555
H34_14 C54_14 1_555 1_555
H36_13 C56_13 1_555 1_555
C57_16 N28_15 1_555 1_555
C58_16 N33_13 1_555 1_555
C59_14 N30_14 1_555 1_555
C61_13 H41_13 1_555 1_555
H37_16 C57_16 1_555 1_555
H38_16 C58_16 1_555 1_555
H39_14 C59_14 1_555 1_555
C62_16 C57_16 1_555 1_555
C63_16 C58_16 1_555 1_555
C64_14 C59_14 1_555 1_555
C66_13 C61_13 1_555 1_555
H42_16 C62_16 1_555 1_555
H43_16 C63_16 1_555 1_555
H44_14 C64_14 1_555 1_555
H46_13 C66_13 1_555 1_555
C67_16 C62_16 1_555 1_555
C68_16 C63_16 1_555 1_555
C69_14 C64_14 1_555 1_555
C71_13 C66_13 1_555 1_555
H47_16 C67_16 1_555 1_555
H48_16 C68_16 1_555 1_555
H49_14 C69_14 1_555 1_555
H51_13 C71_13 1_555 1_555
C72_16 C67_16 1_555 1_555
C73_16 C68_16 1_555 1_555
C74_14 C69_14 1_555 1_555
C76_13 C71_13 1_555 1_555
C77_16 N28_15 1_555 1_555
C78_16 N33_13 1_555 1_555
C79_14 N30_14 1_555 1_555
C81_13 N32_13 1_555 1_555
H52_16 C77_16 1_555 1_555
H53_16 C78_16 1_555 1_555
H54_14 C79_14 1_555 1_555
H56_13 C81_13 1_555 1_555
C82_16 C72_16 1_555 1_555
C83_16 C73_16 1_555 1_555
C84_14 C74_14 1_555 1_555
C86_13 C76_13 1_555 1_555
C87_16 N40_16 1_555 1_555
C88_16 N41_16 1_555 1_555
C89_14 N42_14 1_555 1_555
C91_13 N44_13 1_555 1_555
C92_16 N35_16 1_555 1_555
C93_16 N36_16 1_555 1_555
C94_14 N37_14 1_555 1_555
C96_13 N39_13 1_555 1_555
C97_16 N55_10 1_555 1_555
C98_16 N51_14 1_555 1_555
C99_14 H59_14 1_555 1_555
C101_13 H61_13 1_555 1_555
H57_16 C97_16 1_555 1_555
H58_16 C98_16 1_555 1_555
C102_16 C97_16 1_555 1_555
C103_16 C98_16 1_555 1_555
C104_14 C99_14 1_555 1_555
C106_13 C101_13 1_555 1_555
H62_16 C102_16 1_555 1_555
H63_16 C103_16 1_555 1_555
H64_14 C104_14 1_555 1_555
H66_13 C106_13 1_555 1_555
C107_16 C102_16 1_555 1_555
C108_16 C103_16 1_555 1_555
C109_14 C104_14 1_555 1_555
C111_13 C106_13 1_555 1_555
H67_16 C107_16 1_555 1_555
H68_16 C108_16 1_555 1_555
H69_14 C109_14 1_555 1_555
H71_13 C111_13 1_555 1_555
C112_16 C92_16 1_555 1_555
C113_16 C93_16 1_555 1_555
C114_14 C94_14 1_555 1_555
C116_13 C96_13 1_555 1_555
C117_16 N55_10 1_555 1_555
C118_16 N51_14 1_555 1_555
C119_14 N52_14 1_555 1_555
C121_13 N54_13 1_555 1_555
H72_16 C117_16 1_555 1_555
H73_16 C118_16 1_555 1_555
H74_14 C119_14 1_555 1_555
H76_13 C121_13 1_555 1_555
C156_14 N20_14 1_555 1_555
N45_16 C92_16 1_555 1_555
N46_16 C93_16 1_555 1_555
N47_14 C94_14 1_555 1_555
N49_13 C96_13 1_555 1_555
C37_16 C87_16 1_555 1_555
C38_16 C88_16 1_555 1_555
C39_14 C89_14 1_555 1_555
C41_13 C91_13 1_555 1_555
C47_16 C52_16 1_555 1_555
C48_16 C53_16 1_555 1_555
C49_14 C54_14 1_555 1_555
C51_13 C56_13 1_555 1_555
C72_16 C77_16 1_555 1_555
C73_16 C78_16 1_555 1_555
C74_14 C79_14 1_555 1_555
C76_13 C81_13 1_555 1_555
C107_16 C112_16 1_555 1_555
C108_16 C113_16 1_555 1_555
C109_14 C114_14 1_555 1_555
C111_13 C116_13 1_555 1_555
C112_16 C117_16 1_555 1_555
C113_16 C118_16 1_555 1_555
C114_14 C119_14 1_555 1_555
C116_13 C121_13 1_555 1_555
Co1_14 N1_17 1_555 1_555
Co15_2 N2_15 1_555 1_555
N1_17 C1_17 1_555 1_555
N2_15 C26_15 1_555 1_555
N3_9 C2_12 1_555 1_555
N4_12 Co1_14 1_555 1_555
N5_12 C12_12 1_555 1_555
N6_12 C12_12 1_555 1_555
N7_12 C13_12 1_555 1_555
N8_12 Co15_2 1_555 1_555
S1_17 C1_17 1_555 1_555
S2_15 C26_15 1_555 1_555
C2_12 H1_12 1_555 1_555
C3_12 C2_12 1_555 1_555
C4_12 C3_12 1_555 1_555
H2_12 C4_12 1_555 1_555
C5_12 C4_12 1_555 1_555
H3_12 C5_12 1_555 1_555
C6_12 N3_9 1_555 1_555
H4_12 C6_12 1_555 1_555
C7_12 N4_12 1_555 1_555
H5_12 C7_12 1_555 1_555
C8_12 C7_12 1_555 1_555
H6_12 C8_12 1_555 1_555
C9_12 C8_12 1_555 1_555
H7_12 C9_12 1_555 1_555
C10_12 C9_12 1_555 1_555
C11_12 N4_12 1_555 1_555
H8_12 C11_12 1_555 1_555
C12_12 C10_12 1_555 1_555
C13_12 N6_12 1_555 1_555
C14_12 N5_12 1_555 1_555
C15_12 N8_12 1_555 1_555
H9_12 C15_12 1_555 1_555
C16_12 C15_12 1_555 1_555
H10_12 C16_12 1_555 1_555
C17_12 C16_12 1_555 1_555
H11_12 C17_12 1_555 1_555
C18_12 C14_12 1_555 1_555
C19_12 N8_12 1_555 1_555
H12_12 C19_12 1_555 1_555
Co5_10 N3_9 1_555 1_555
Co9_13 N17_13 1_555 1_555
Co13_5 N52_15 1_555 1_555
Co14_7 N60_10 1_555 1_555
Co13 N61_10 1_555 1_555
N11_17 Co1_14 1_555 1_555
N16_15 Co15_2 1_555 1_555
N18_13 Co9_13 1_555 1_555
N21_17 Co1_14 1_555 1_555
N22_17 Co1_14 1_555 1_555
N26_6 C34_15 1_555 1_555
N30_15 Co1_14 1_555 1_555
N35_17 C82_17 1_555 1_555
N36_17 C83_17 1_555 1_555
N37_15 C84_15 1_555 1_555
N40_17 C82_17 1_555 1_555
N41_17 C83_17 1_555 1_555
N42_15 C84_15 1_555 1_555
N45_17 C87_17 1_555 1_555
N46_17 C88_17 1_555 1_555
N47_15 C89_15 1_555 1_555
N50_13 Co9_13 1_555 1_555
N52_15 C99_15 1_555 1_555
N55_13 Co9_13 1_555 1_555
N59_10 Co15_2 1_555 1_555
N60_10 C125_10 1_555 1_555
N61_10 C126_10 1_555 1_555
N68_10 C149_10 1_555 1_555
N69_10 C150_10 1_555 1_555
N70_10 C149_10 1_555 1_555
S3_17 C27_17 1_555 1_555
S8_15 C152_15 1_555 1_555
C27_17 N11_17 1_555 1_555
C32_17 N21_17 1_555 1_555
C33_17 N22_17 1_555 1_555
C34_15 H19_15 1_555 1_555
H17_17 C32_17 1_555 1_555
H18_17 C33_17 1_555 1_555
C37_17 C32_17 1_555 1_555
C38_17 C33_17 1_555 1_555
C39_15 C34_15 1_555 1_555
C42_17 C37_17 1_555 1_555
C43_17 C38_17 1_555 1_555
C44_15 C39_15 1_555 1_555
H22_17 C42_17 1_555 1_555
H23_17 C43_17 1_555 1_555
H24_15 C44_15 1_555 1_555
C47_17 C42_17 1_555 1_555
C48_17 C43_17 1_555 1_555
C49_15 C44_15 1_555 1_555
H27_17 C47_17 1_555 1_555
H28_17 C48_17 1_555 1_555
H29_15 C49_15 1_555 1_555
C52_17 N21_17 1_555 1_555
C53_17 N22_17 1_555 1_555
C54_15 N26_6 1_555 1_555
H32_17 C52_17 1_555 1_555
H33_17 C53_17 1_555 1_555
H34_15 C54_15 1_555 1_555
C57_17 N33_11 1_555 1_555
C58_17 N33_12 1_555 1_555
C59_15 N30_15 1_555 1_555
H37_17 C57_17 1_555 1_555
H38_17 C58_17 1_555 1_555
H39_15 C59_15 1_555 1_555
C62_17 C57_17 1_555 1_555
C63_17 C58_17 1_555 1_555
C64_15 C59_15 1_555 1_555
H42_17 C62_17 1_555 1_555
H43_17 C63_17 1_555 1_555
H44_15 C64_15 1_555 1_555
C67_17 C62_17 1_555 1_555
C68_17 C63_17 1_555 1_555
C69_15 C64_15 1_555 1_555
H47_17 C67_17 1_555 1_555
H48_17 C68_17 1_555 1_555
H49_15 C69_15 1_555 1_555
C72_17 C67_17 1_555 1_555
C73_17 C68_17 1_555 1_555
C74_15 C69_15 1_555 1_555
C77_17 N33_11 1_555 1_555
C78_17 N33_12 1_555 1_555
C79_15 N30_15 1_555 1_555
H52_17 C77_17 1_555 1_555
H53_17 C78_17 1_555 1_555
H54_15 C79_15 1_555 1_555
C82_17 C72_17 1_555 1_555
C83_17 C73_17 1_555 1_555
C84_15 C74_15 1_555 1_555
C87_17 N40_17 1_555 1_555
C88_17 N41_17 1_555 1_555
C89_15 N42_15 1_555 1_555
C92_17 N35_17 1_555 1_555
C93_17 N36_17 1_555 1_555
C94_15 N37_15 1_555 1_555
C97_17 N50_13 1_555 1_555
C98_17 N56_7 1_555 1_555
C99_15 H59_15 1_555 1_555
H57_17 C97_17 1_555 1_555
H58_17 C98_17 1_555 1_555
C102_17 C97_17 1_555 1_555
C103_17 C98_17 1_555 1_555
C104_15 C99_15 1_555 1_555
H62_17 C102_17 1_555 1_555
H63_17 C103_17 1_555 1_555
H64_15 C104_15 1_555 1_555
C107_17 C102_17 1_555 1_555
C108_17 C103_17 1_555 1_555
C109_15 C104_15 1_555 1_555
H67_17 C107_17 1_555 1_555
H68_17 C108_17 1_555 1_555
H69_15 C109_15 1_555 1_555
C112_17 C92_17 1_555 1_555
C113_17 C93_17 1_555 1_555
C114_15 C94_15 1_555 1_555
C117_17 N50_13 1_555 1_555
C118_17 N56_7 1_555 1_555
C119_15 N52_15 1_555 1_555
H72_17 C117_17 1_555 1_555
H73_17 C118_17 1_555 1_555
H74_15 C119_15 1_555 1_555
C124_10 N59_10 1_555 1_555
C125_10 H80_10 1_555 1_555
C126_10 H81_10 1_555 1_555
H79_10 C124_10 1_555 1_555
C129_10 C124_10 1_555 1_555
C130_10 C125_10 1_555 1_555
C131_10 C126_10 1_555 1_555
H84_10 C129_10 1_555 1_555
H85_10 C130_10 1_555 1_555
H86_10 C131_10 1_555 1_555
C134_10 C129_10 1_555 1_555
C135_10 C130_10 1_555 1_555
C136_10 C131_10 1_555 1_555
H89_10 C134_10 1_555 1_555
H90_10 C135_10 1_555 1_555
H91_10 C136_10 1_555 1_555
C139_10 C134_10 1_555 1_555
C140_10 C135_10 1_555 1_555
C141_10 C136_10 1_555 1_555
C144_10 N59_10 1_555 1_555
C145_10 N60_10 1_555 1_555
C146_10 N61_10 1_555 1_555
H94_10 C144_10 1_555 1_555
H95_10 C145_10 1_555 1_555
H96_10 C146_10 1_555 1_555
C149_10 C139_10 1_555 1_555
C150_10 N68_10 1_555 1_555
C151_10 N69_10 1_555 1_555
C152_15 N16_15 1_555 1_555
N7_12 C14_12 1_555 1_555
C3_12 C13_12 1_555 1_555
C5_12 C6_12 1_555 1_555
C10_12 C11_12 1_555 1_555
C17_12 C18_12 1_555 1_555
C18_12 C19_12 1_555 1_555
N45_17 C92_17 1_555 1_555
N46_17 C93_17 1_555 1_555
N47_15 C94_15 1_555 1_555
N70_10 C151_10 1_555 1_555
C37_17 C87_17 1_555 1_555
C38_17 C88_17 1_555 1_555
C39_15 C89_15 1_555 1_555
C47_17 C52_17 1_555 1_555
C48_17 C53_17 1_555 1_555
C49_15 C54_15 1_555 1_555
C72_17 C77_17 1_555 1_555
C73_17 C78_17 1_555 1_555
C74_15 C79_15 1_555 1_555
C107_17 C112_17 1_555 1_555
C108_17 C113_17 1_555 1_555
C109_15 C114_15 1_555 1_555
C112_17 C117_17 1_555 1_555
C113_17 C118_17 1_555 1_555
C114_15 C119_15 1_555 1_555
C139_10 C144_10 1_555 1_555
C140_10 C145_10 1_555 1_555
C140_10 C151_10 1_555 1_555
C141_10 C146_10 1_555 1_555
C141_10 C150_10 1_555 1_555
S9_13 C153_13 1_555 1_555
S10_13 C154_13 1_555 1_555
Co7_10 N1_18 1_555 1_555
N1_18 C1_18 1_555 1_555
S1_18 C1_18 1_555 1_555
Co5_10 N14_14 1_555 1_555
Co6_17 N23_13 1_555 1_555
Co10_15 N19_15 1_555 1_555
Co13_9 N52_16 1_555 1_555
N14_14 C30_14 1_555 1_555
N15_14 Co5_10 1_555 1_555
N19_15 C155_15 1_555 1_555
N20_15 Co10_15 1_555 1_555
N22_18 Co7_10 1_555 1_555
N23_13 C34_16 1_555 1_555
N26_12 Co5_10 1_555 1_555
N29_14 Co5_10 1_555 1_555
N30_16 Co7_10 1_555 1_555
N34_14 Co5_10 1_555 1_555
N36_18 C83_18 1_555 1_555
N37_16 C84_16 1_555 1_555
N41_18 C83_18 1_555 1_555
N42_16 C84_16 1_555 1_555
N46_18 C88_18 1_555 1_555
N47_16 C89_16 1_555 1_555
N51_15 Co10_15 1_555 1_555
N52_16 C99_16 1_555 1_555
N56_15 Co10_15 1_555 1_555
N64_15 Co10_15 1_555 1_555
N65_15 Co10_15 1_555 1_555
S6_14 C30_14 1_555 1_555
S7_14 C31_14 1_555 1_555
S11_15 C155_15 1_555 1_555
S12_15 C156_15 1_555 1_555
C31_14 N15_14 1_555 1_555
C33_18 N22_18 1_555 1_555
C34_16 H19_16 1_555 1_555
H18_18 C33_18 1_555 1_555
C38_18 C33_18 1_555 1_555
C39_16 C34_16 1_555 1_555
C43_18 C38_18 1_555 1_555
C44_16 C39_16 1_555 1_555
H23_18 C43_18 1_555 1_555
H24_16 C44_16 1_555 1_555
C48_18 C43_18 1_555 1_555
C49_16 C44_16 1_555 1_555
H28_18 C48_18 1_555 1_555
H29_16 C49_16 1_555 1_555
C53_18 N22_18 1_555 1_555
C54_16 N23_13 1_555 1_555
H33_18 C53_18 1_555 1_555
H34_16 C54_16 1_555 1_555
C58_18 N29_14 1_555 1_555
C59_16 N30_16 1_555 1_555
H38_18 C58_18 1_555 1_555
H39_16 C59_16 1_555 1_555
C63_18 C58_18 1_555 1_555
C64_16 C59_16 1_555 1_555
H43_18 C63_18 1_555 1_555
H44_16 C64_16 1_555 1_555
C68_18 C63_18 1_555 1_555
C69_16 C64_16 1_555 1_555
H48_18 C68_18 1_555 1_555
H49_16 C69_16 1_555 1_555
C73_18 C68_18 1_555 1_555
C74_16 C69_16 1_555 1_555
C78_18 N29_14 1_555 1_555
C79_16 N30_16 1_555 1_555
H53_18 C78_18 1_555 1_555
H54_16 C79_16 1_555 1_555
C83_18 C73_18 1_555 1_555
C84_16 C74_16 1_555 1_555
C88_18 N41_18 1_555 1_555
C89_16 N42_16 1_555 1_555
C93_18 N36_18 1_555 1_555
C94_16 N37_16 1_555 1_555
C98_18 N51_15 1_555 1_555
C99_16 H59_16 1_555 1_555
H58_18 C98_18 1_555 1_555
C103_18 C98_18 1_555 1_555
C104_16 C99_16 1_555 1_555
H63_18 C103_18 1_555 1_555
H64_16 C104_16 1_555 1_555
C108_18 C103_18 1_555 1_555
C109_16 C104_16 1_555 1_555
H68_18 C108_18 1_555 1_555
H69_16 C109_16 1_555 1_555
C113_18 C93_18 1_555 1_555
C114_16 C94_16 1_555 1_555
C118_18 N51_15 1_555 1_555
C119_16 N52_16 1_555 1_555
H73_18 C118_18 1_555 1_555
H74_16 C119_16 1_555 1_555
C156_15 N20_15 1_555 1_555
N46_18 C93_18 1_555 1_555
N47_16 C94_16 1_555 1_555
C38_18 C88_18 1_555 1_555
C39_16 C89_16 1_555 1_555
C48_18 C53_18 1_555 1_555
C49_16 C54_16 1_555 1_555
C73_18 C78_18 1_555 1_555
C74_16 C79_16 1_555 1_555
C108_18 C113_18 1_555 1_555
C109_16 C114_16 1_555 1_555
C113_18 C118_18 1_555 1_555
C114_16 C119_16 1_555 1_555
Co8_13 N32_14 1_555 1_555
Co13_6 N54_14 1_555 1_555
N11_18 Co7_11 1_555 1_555
N21_18 Co7_11 1_555 1_555
N32_14 C61_14 1_555 1_555
N35_18 C82_18 1_555 1_555
N39_14 C86_14 1_555 1_555
N40_18 C82_18 1_555 1_555
N44_14 C86_14 1_555 1_555
N45_18 C87_18 1_555 1_555
N49_14 C91_14 1_555 1_555
N54_14 C101_14 1_555 1_555
S3_18 C27_18 1_555 1_555
C27_18 N11_18 1_555 1_555
C32_18 N21_18 1_555 1_555
C36_14 N26_8 1_555 1_555
H17_18 C32_18 1_555 1_555
H21_14 C36_14 1_555 1_555
C37_18 C32_18 1_555 1_555
C41_14 C36_14 1_555 1_555
C42_18 C37_18 1_555 1_555
C46_14 C41_14 1_555 1_555
H22_18 C42_18 1_555 1_555
H26_14 C46_14 1_555 1_555
C47_18 C42_18 1_555 1_555
C51_14 C46_14 1_555 1_555
H27_18 C47_18 1_555 1_555
H31_14 C51_14 1_555 1_555
C52_18 N21_18 1_555 1_555
C56_14 N26_8 1_555 1_555
H32_18 C52_18 1_555 1_555
H36_14 C56_14 1_555 1_555
C57_18 N34_8 1_555 1_555
C61_14 H41_14 1_555 1_555
H37_18 C57_18 1_555 1_555
C62_18 C57_18 1_555 1_555
C66_14 C61_14 1_555 1_555
H42_18 C62_18 1_555 1_555
H46_14 C66_14 1_555 1_555
C67_18 C62_18 1_555 1_555
C71_14 C66_14 1_555 1_555
H47_18 C67_18 1_555 1_555
H51_14 C71_14 1_555 1_555
C72_18 C67_18 1_555 1_555
C76_14 C71_14 1_555 1_555
C77_18 N34_8 1_555 1_555
C81_14 N32_14 1_555 1_555
H52_18 C77_18 1_555 1_555
H56_14 C81_14 1_555 1_555
C82_18 C72_18 1_555 1_555
C86_14 C76_14 1_555 1_555
C87_18 N40_18 1_555 1_555
C91_14 N44_14 1_555 1_555
C92_18 N35_18 1_555 1_555
C96_14 N39_14 1_555 1_555
C97_18 N55_11 1_555 1_555
C101_14 H61_14 1_555 1_555
H57_18 C97_18 1_555 1_555
C102_18 C97_18 1_555 1_555
C106_14 C101_14 1_555 1_555
H62_18 C102_18 1_555 1_555
H66_14 C106_14 1_555 1_555
C107_18 C102_18 1_555 1_555
C111_14 C106_14 1_555 1_555
H67_18 C107_18 1_555 1_555
H71_14 C111_14 1_555 1_555
C112_18 C92_18 1_555 1_555
C116_14 C96_14 1_555 1_555
C117_18 N55_11 1_555 1_555
C121_14 N54_14 1_555 1_555
H72_18 C117_18 1_555 1_555
H76_14 C121_14 1_555 1_555
N45_18 C92_18 1_555 1_555
N49_14 C96_14 1_555 1_555
C37_18 C87_18 1_555 1_555
C41_14 C91_14 1_555 1_555
C47_18 C52_18 1_555 1_555
C51_14 C56_14 1_555 1_555
C72_18 C77_18 1_555 1_555
C76_14 C81_14 1_555 1_555
C107_18 C112_18 1_555 1_555
C111_14 C116_14 1_555 1_555
C112_18 C117_18 1_555 1_555
C116_14 C121_14 1_555 1_555
Co16_5 N2_16 1_555 1_555
Co7_12 N31_12 1_555 1_555
Co8_14 N32_15 1_555 1_555
Co13_7 N54_15 1_555 1_555
N16_16 Co16_5 1_555 1_555
N31_12 C60_12 1_555 1_555
N32_15 C61_15 1_555 1_555
N38_12 C85_12 1_555 1_555
N39_15 C86_15 1_555 1_555
N43_12 C85_12 1_555 1_555
N44_15 C86_15 1_555 1_555
N48_12 C90_12 1_555 1_555
N49_15 C91_15 1_555 1_555
N53_12 Co16_5 1_555 1_555
N54_15 C101_15 1_555 1_555
C35_12 N26_10 1_555 1_555
C36_15 N27_7 1_555 1_555
H20_12 C35_12 1_555 1_555
H21_15 C36_15 1_555 1_555
C40_12 C35_12 1_555 1_555
C41_15 C36_15 1_555 1_555
C45_12 C40_12 1_555 1_555
C46_15 C41_15 1_555 1_555
H25_12 C45_12 1_555 1_555
H26_15 C46_15 1_555 1_555
C50_12 C45_12 1_555 1_555
C51_15 C46_15 1_555 1_555
H30_12 C50_12 1_555 1_555
H31_15 C51_15 1_555 1_555
C55_12 N26_10 1_555 1_555
C56_15 N27_7 1_555 1_555
H35_12 C55_12 1_555 1_555
H36_15 C56_15 1_555 1_555
C60_12 H40_12 1_555 1_555
C61_15 H41_15 1_555 1_555
C65_12 C60_12 1_555 1_555
C66_15 C61_15 1_555 1_555
H45_12 C65_12 1_555 1_555
H46_15 C66_15 1_555 1_555
C70_12 C65_12 1_555 1_555
C71_15 C66_15 1_555 1_555
H50_12 C70_12 1_555 1_555
H51_15 C71_15 1_555 1_555
C75_12 C70_12 1_555 1_555
C76_15 C71_15 1_555 1_555
C80_12 N31_12 1_555 1_555
C81_15 N32_15 1_555 1_555
H55_12 C80_12 1_555 1_555
H56_15 C81_15 1_555 1_555
C85_12 C75_12 1_555 1_555
C86_15 C76_15 1_555 1_555
C90_12 N43_12 1_555 1_555
C91_15 N44_15 1_555 1_555
C95_12 N38_12 1_555 1_555
C96_15 N39_15 1_555 1_555
C100_12 N53_12 1_555 1_555
C101_15 H61_15 1_555 1_555
H60_12 C100_12 1_555 1_555
C105_12 C100_12 1_555 1_555
C106_15 C101_15 1_555 1_555
H65_12 C105_12 1_555 1_555
H66_15 C106_15 1_555 1_555
C110_12 C105_12 1_555 1_555
C111_15 C106_15 1_555 1_555
H70_12 C110_12 1_555 1_555
H71_15 C111_15 1_555 1_555
C115_12 C95_12 1_555 1_555
C116_15 C96_15 1_555 1_555
C120_12 N53_12 1_555 1_555
C121_15 N54_15 1_555 1_555
H75_12 C120_12 1_555 1_555
H76_15 C121_15 1_555 1_555
N48_12 C95_12 1_555 1_555
N49_15 C96_15 1_555 1_555
C40_12 C90_12 1_555 1_555
C41_15 C91_15 1_555 1_555
C50_12 C55_12 1_555 1_555
C51_15 C56_15 1_555 1_555
C75_12 C80_12 1_555 1_555
C76_15 C81_15 1_555 1_555
C110_12 C115_12 1_555 1_555
C111_15 C116_15 1_555 1_555
C115_12 C120_12 1_555 1_555
C116_15 C121_15 1_555 1_555
N10_10 C25_10 1_555 1_555
S2_16 C26_16 1_555 1_555
C20_10 N9_10 1_555 1_555
H13_10 C20_10 1_555 1_555
C21_10 C20_10 1_555 1_555
H14_10 C21_10 1_555 1_555
C22_10 C21_10 1_555 1_555
H15_10 C22_10 1_555 1_555
C23_10 C22_10 1_555 1_555
C24_10 N9_10 1_555 1_555
H16_10 C24_10 1_555 1_555
C25_10 C23_10 1_555 1_555
Co14_6 N57_10 1_555 1_555
Co16_4 N58_10 1_555 1_555
Co15_5 N61_11 1_555 1_555
N57_10 C122_10 1_555 1_555
N58_10 C123_10 1_555 1_555
N60_11 C125_11 1_555 1_555
N61_11 C126_11 1_555 1_555
N66_10 C147_10 1_555 1_555
N67_10 C25_10 1_555 1_555
N68_11 C149_11 1_555 1_555
N69_11 C150_11 1_555 1_555
N70_11 C149_11 1_555 1_555
S8_16 C152_16 1_555 1_555
C122_10 H77_10 1_555 1_555
C123_10 H78_10 1_555 1_555
C124_11 N59_11 1_555 1_555
C125_11 H80_11 1_555 1_555
C126_11 H81_11 1_555 1_555
H79_11 C124_11 1_555 1_555
C127_10 C122_10 1_555 1_555
C128_10 C123_10 1_555 1_555
C129_11 C124_11 1_555 1_555
C130_11 C125_11 1_555 1_555
C131_11 C126_11 1_555 1_555
H82_10 C127_10 1_555 1_555
H83_10 C128_10 1_555 1_555
H84_11 C129_11 1_555 1_555
H85_11 C130_11 1_555 1_555
H86_11 C131_11 1_555 1_555
C132_10 C127_10 1_555 1_555
C133_10 C128_10 1_555 1_555
C134_11 C129_11 1_555 1_555
C135_11 C130_11 1_555 1_555
C136_11 C131_11 1_555 1_555
H87_10 C132_10 1_555 1_555
H88_10 C133_10 1_555 1_555
H89_11 C134_11 1_555 1_555
H90_11 C135_11 1_555 1_555
H91_11 C136_11 1_555 1_555
C137_10 C132_10 1_555 1_555
C138_10 C133_10 1_555 1_555
C139_11 C134_11 1_555 1_555
C140_11 C135_11 1_555 1_555
C141_11 C136_11 1_555 1_555
C142_10 N57_10 1_555 1_555
C143_10 N58_10 1_555 1_555
C144_11 N59_11 1_555 1_555
C145_11 N60_11 1_555 1_555
C146_11 N61_11 1_555 1_555
H92_10 C142_10 1_555 1_555
H93_10 C143_10 1_555 1_555
H94_11 C144_11 1_555 1_555
H95_11 C145_11 1_555 1_555
H96_11 C146_11 1_555 1_555
C147_10 N10_10 1_555 1_555
C148_10 N66_10 1_555 1_555
C149_11 C139_11 1_555 1_555
C150_11 N68_11 1_555 1_555
C151_11 N69_11 1_555 1_555
C23_10 C24_10 1_555 1_555
N67_10 C148_10 1_555 1_555
N70_11 C151_11 1_555 1_555
C137_10 C142_10 1_555 1_555
C137_10 C148_10 1_555 1_555
C138_10 C143_10 1_555 1_555
C138_10 C147_10 1_555 1_555
C139_11 C144_11 1_555 1_555
C140_11 C145_11 1_555 1_555
C140_11 C151_11 1_555 1_555
C141_11 C146_11 1_555 1_555
C141_11 C150_11 1_555 1_555
S2_17 C26_17 1_555 1_555
Co14_8 N60_12 1_555 1_555
Co11_4 N61_12 1_555 1_555
N60_12 C125_12 1_555 1_555
N61_12 C126_12 1_555 1_555
N68_12 C149_12 1_555 1_555
N69_12 C150_12 1_555 1_555
N70_12 C149_12 1_555 1_555
S8_17 C152_17 1_555 1_555
C124_12 N59_12 1_555 1_555
C125_12 H80_12 1_555 1_555
C126_12 H81_12 1_555 1_555
H79_12 C124_12 1_555 1_555
C129_12 C124_12 1_555 1_555
C130_12 C125_12 1_555 1_555
C131_12 C126_12 1_555 1_555
H84_12 C129_12 1_555 1_555
H85_12 C130_12 1_555 1_555
H86_12 C131_12 1_555 1_555
C134_12 C129_12 1_555 1_555
C135_12 C130_12 1_555 1_555
C136_12 C131_12 1_555 1_555
H89_12 C134_12 1_555 1_555
H90_12 C135_12 1_555 1_555
H91_12 C136_12 1_555 1_555
C139_12 C134_12 1_555 1_555
C140_12 C135_12 1_555 1_555
C141_12 C136_12 1_555 1_555
C144_12 N59_12 1_555 1_555
C145_12 N60_12 1_555 1_555
C146_12 N61_12 1_555 1_555
H94_12 C144_12 1_555 1_555
H95_12 C145_12 1_555 1_555
H96_12 C146_12 1_555 1_555
C149_12 C139_12 1_555 1_555
C150_12 N68_12 1_555 1_555
C151_12 N69_12 1_555 1_555
N70_12 C151_12 1_555 1_555
C139_12 C144_12 1_555 1_555
C140_12 C145_12 1_555 1_555
C140_12 C151_12 1_555 1_555
C141_12 C146_12 1_555 1_555
C141_12 C150_12 1_555 1_555
Co1_15 N1_19 1_555 1_555
Co15_6 N2_17 1_555 1_555
N1_19 C1_19 1_555 1_555
N3_10 C2_13 1_555 1_555
N4_13 Co1_15 1_555 1_555
N5_13 C12_13 1_555 1_555
N6_13 C12_13 1_555 1_555
N7_13 C13_13 1_555 1_555
N8_13 Co15_6 1_555 1_555
S1_19 C1_19 1_555 1_555
C2_13 H1_13 1_555 1_555
C3_13 C2_13 1_555 1_555
C4_13 C3_13 1_555 1_555
H2_13 C4_13 1_555 1_555
C5_13 C4_13 1_555 1_555
H3_13 C5_13 1_555 1_555
C6_13 N3_10 1_555 1_555
H4_13 C6_13 1_555 1_555
C7_13 N4_13 1_555 1_555
H5_13 C7_13 1_555 1_555
C8_13 C7_13 1_555 1_555
H6_13 C8_13 1_555 1_555
C9_13 C8_13 1_555 1_555
H7_13 C9_13 1_555 1_555
C10_13 C9_13 1_555 1_555
C11_13 N4_13 1_555 1_555
H8_13 C11_13 1_555 1_555
C12_13 C10_13 1_555 1_555
C13_13 N6_13 1_555 1_555
C14_13 N5_13 1_555 1_555
C15_13 N8_13 1_555 1_555
H9_13 C15_13 1_555 1_555
C16_13 C15_13 1_555 1_555
H10_13 C16_13 1_555 1_555
C17_13 C16_13 1_555 1_555
H11_13 C17_13 1_555 1_555
C18_13 C14_13 1_555 1_555
C19_13 N8_13 1_555 1_555
H12_13 C19_13 1_555 1_555
Co3_13 N12_16 1_555 1_555
Co6_15 N14_15 1_555 1_555
Co5_11 N3_10 1_555 1_555
Co6_19 N23_14 1_555 1_555
Co8_12 N31_13 1_555 1_555
Co8_17 N32_16 1_555 1_555
Co9_14 N17_14 1_555 1_555
Co10_16 N19_16 1_555 1_555
Co14_6 N52_17 1_555 1_555
Co15_4 N54_16 1_555 1_555
N11_19 Co1_15 1_555 1_555
N12_16 C28_16 1_555 1_555
N13_16 Co3_13 1_555 1_555
N14_15 C30_15 1_555 1_555
N15_15 Co6_15 1_555 1_555
N16_17 Co15_6 1_555 1_555
N17_14 C153_14 1_555 1_555
N18_14 Co9_14 1_555 1_555
N19_16 C155_16 1_555 1_555
N20_16 Co10_16 1_555 1_555
N21_19 Co1_15 1_555 1_555
N22_19 Co1_15 1_555 1_555
N23_14 C34_17 1_555 1_555
N24_12 Co3_13 1_555 1_555
N25_14 Co3_13 1_555 1_555
N26_13 Co6_15 1_555 1_555
N28_16 Co3_13 1_555 1_555
N29_15 Co6_15 1_555 1_555
N30_17 Co1_15 1_555 1_555
N31_13 C60_13 1_555 1_555
N32_16 C61_16 1_555 1_555
N33_16 Co3_13 1_555 1_555
N34_15 Co6_15 1_555 1_555
N35_19 C82_19 1_555 1_555
N36_19 C83_19 1_555 1_555
N37_17 C84_17 1_555 1_555
N38_13 C85_13 1_555 1_555
N39_16 C86_16 1_555 1_555
N40_19 C82_19 1_555 1_555
N41_19 C83_19 1_555 1_555
N42_17 C84_17 1_555 1_555
N43_13 C85_13 1_555 1_555
N44_16 C86_16 1_555 1_555
N45_19 C87_19 1_555 1_555
N46_19 C88_19 1_555 1_555
N47_17 C89_17 1_555 1_555
N48_13 C90_13 1_555 1_555
N49_16 C91_16 1_555 1_555
N50_14 Co9_14 1_555 1_555
N51_16 Co10_16 1_555 1_555
N52_17 C99_17 1_555 1_555
N53_13 Co15_6 1_555 1_555
N54_16 C101_16 1_555 1_555
N55_14 Co9_14 1_555 1_555
N56_16 Co10_16 1_555 1_555
N62_14 Co9_14 1_555 1_555
N63_14 Co9_14 1_555 1_555
N64_16 Co10_16 1_555 1_555
N65_16 Co10_16 1_555 1_555
S3_19 C27_19 1_555 1_555
S4_16 C28_16 1_555 1_555
S5_16 C29_16 1_555 1_555
S6_15 C30_15 1_555 1_555
S7_15 C31_15 1_555 1_555
S9_14 C153_14 1_555 1_555
S10_14 C154_14 1_555 1_555
S11_16 C155_16 1_555 1_555
S12_16 C156_16 1_555 1_555
C27_19 N11_19 1_555 1_555
C29_16 N13_16 1_555 1_555
C31_15 N15_15 1_555 1_555
C32_19 N21_19 1_555 1_555
C33_19 N22_19 1_555 1_555
C34_17 H19_17 1_555 1_555
C35_13 N24_12 1_555 1_555
C36_16 N25_14 1_555 1_555
H17_19 C32_19 1_555 1_555
H18_19 C33_19 1_555 1_555
H20_13 C35_13 1_555 1_555
H21_16 C36_16 1_555 1_555
C37_19 C32_19 1_555 1_555
C38_19 C33_19 1_555 1_555
C39_17 C34_17 1_555 1_555
C40_13 C35_13 1_555 1_555
C41_16 C36_16 1_555 1_555
C42_19 C37_19 1_555 1_555
C43_19 C38_19 1_555 1_555
C44_17 C39_17 1_555 1_555
C45_13 C40_13 1_555 1_555
C46_16 C41_16 1_555 1_555
H22_19 C42_19 1_555 1_555
H23_19 C43_19 1_555 1_555
H24_17 C44_17 1_555 1_555
H25_13 C45_13 1_555 1_555
H26_16 C46_16 1_555 1_555
C47_19 C42_19 1_555 1_555
C48_19 C43_19 1_555 1_555
C49_17 C44_17 1_555 1_555
C50_13 C45_13 1_555 1_555
C51_16 C46_16 1_555 1_555
H27_19 C47_19 1_555 1_555
H28_19 C48_19 1_555 1_555
H29_17 C49_17 1_555 1_555
H30_13 C50_13 1_555 1_555
H31_16 C51_16 1_555 1_555
C52_19 N21_19 1_555 1_555
C53_19 N22_19 1_555 1_555
C54_17 N23_14 1_555 1_555
C55_13 N24_12 1_555 1_555
C56_16 N25_14 1_555 1_555
H32_19 C52_19 1_555 1_555
H33_19 C53_19 1_555 1_555
H34_17 C54_17 1_555 1_555
H35_13 C55_13 1_555 1_555
H36_16 C56_16 1_555 1_555
C57_19 N28_16 1_555 1_555
C58_19 N29_15 1_555 1_555
C59_17 N30_17 1_555 1_555
C60_13 H40_13 1_555 1_555
C61_16 H41_16 1_555 1_555
H37_19 C57_19 1_555 1_555
H38_19 C58_19 1_555 1_555
H39_17 C59_17 1_555 1_555
C62_19 C57_19 1_555 1_555
C63_19 C58_19 1_555 1_555
C64_17 C59_17 1_555 1_555
C65_13 C60_13 1_555 1_555
C66_16 C61_16 1_555 1_555
H42_19 C62_19 1_555 1_555
H43_19 C63_19 1_555 1_555
H44_17 C64_17 1_555 1_555
H45_13 C65_13 1_555 1_555
H46_16 C66_16 1_555 1_555
C67_19 C62_19 1_555 1_555
C68_19 C63_19 1_555 1_555
C69_17 C64_17 1_555 1_555
C70_13 C65_13 1_555 1_555
C71_16 C66_16 1_555 1_555
H47_19 C67_19 1_555 1_555
H48_19 C68_19 1_555 1_555
H49_17 C69_17 1_555 1_555
H50_13 C70_13 1_555 1_555
H51_16 C71_16 1_555 1_555
C72_19 C67_19 1_555 1_555
C73_19 C68_19 1_555 1_555
C74_17 C69_17 1_555 1_555
C75_13 C70_13 1_555 1_555
C76_16 C71_16 1_555 1_555
C77_19 N28_16 1_555 1_555
C78_19 N29_15 1_555 1_555
C79_17 N30_17 1_555 1_555
C80_13 N31_13 1_555 1_555
C81_16 N32_16 1_555 1_555
H52_19 C77_19 1_555 1_555
H53_19 C78_19 1_555 1_555
H54_17 C79_17 1_555 1_555
H55_13 C80_13 1_555 1_555
H56_16 C81_16 1_555 1_555
C82_19 C72_19 1_555 1_555
C83_19 C73_19 1_555 1_555
C84_17 C74_17 1_555 1_555
C85_13 C75_13 1_555 1_555
C86_16 C76_16 1_555 1_555
C87_19 N40_19 1_555 1_555
C88_19 N41_19 1_555 1_555
C89_17 N42_17 1_555 1_555
C90_13 N43_13 1_555 1_555
C91_16 N44_16 1_555 1_555
C92_19 N35_19 1_555 1_555
C93_19 N36_19 1_555 1_555
C94_17 N37_17 1_555 1_555
C95_13 N38_13 1_555 1_555
C96_16 N39_16 1_555 1_555
C97_19 N50_14 1_555 1_555
C98_19 N51_16 1_555 1_555
C99_17 H59_17 1_555 1_555
C100_13 N53_13 1_555 1_555
C101_16 H61_16 1_555 1_555
H57_19 C97_19 1_555 1_555
H58_19 C98_19 1_555 1_555
H60_13 C100_13 1_555 1_555
C102_19 C97_19 1_555 1_555
C103_19 C98_19 1_555 1_555
C104_17 C99_17 1_555 1_555
C105_13 C100_13 1_555 1_555
C106_16 C101_16 1_555 1_555
H62_19 C102_19 1_555 1_555
H63_19 C103_19 1_555 1_555
H64_17 C104_17 1_555 1_555
H65_13 C105_13 1_555 1_555
H66_16 C106_16 1_555 1_555
C107_19 C102_19 1_555 1_555
C108_19 C103_19 1_555 1_555
C109_17 C104_17 1_555 1_555
C110_13 C105_13 1_555 1_555
C111_16 C106_16 1_555 1_555
H67_19 C107_19 1_555 1_555
H68_19 C108_19 1_555 1_555
H69_17 C109_17 1_555 1_555
H70_13 C110_13 1_555 1_555
H71_16 C111_16 1_555 1_555
C112_19 C92_19 1_555 1_555
C113_19 C93_19 1_555 1_555
C114_17 C94_17 1_555 1_555
C115_13 C95_13 1_555 1_555
C116_16 C96_16 1_555 1_555
C117_19 N50_14 1_555 1_555
C118_19 N51_16 1_555 1_555
C119_17 N52_17 1_555 1_555
C120_13 N53_13 1_555 1_555
C121_16 N54_16 1_555 1_555
H72_19 C117_19 1_555 1_555
H73_19 C118_19 1_555 1_555
H74_17 C119_17 1_555 1_555
H75_13 C120_13 1_555 1_555
H76_16 C121_16 1_555 1_555
C154_14 N18_14 1_555 1_555
C156_16 N20_16 1_555 1_555
N7_13 C14_13 1_555 1_555
C3_13 C13_13 1_555 1_555
C5_13 C6_13 1_555 1_555
C10_13 C11_13 1_555 1_555
C17_13 C18_13 1_555 1_555
C18_13 C19_13 1_555 1_555
N45_19 C92_19 1_555 1_555
N46_19 C93_19 1_555 1_555
N47_17 C94_17 1_555 1_555
N48_13 C95_13 1_555 1_555
N49_16 C96_16 1_555 1_555
C37_19 C87_19 1_555 1_555
C38_19 C88_19 1_555 1_555
C39_17 C89_17 1_555 1_555
C40_13 C90_13 1_555 1_555
C41_16 C91_16 1_555 1_555
C47_19 C52_19 1_555 1_555
C48_19 C53_19 1_555 1_555
C49_17 C54_17 1_555 1_555
C50_13 C55_13 1_555 1_555
C51_16 C56_16 1_555 1_555
C72_19 C77_19 1_555 1_555
C73_19 C78_19 1_555 1_555
C74_17 C79_17 1_555 1_555
C75_13 C80_13 1_555 1_555
C76_16 C81_16 1_555 1_555
C107_19 C112_19 1_555 1_555
C108_19 C113_19 1_555 1_555
C109_17 C114_17 1_555 1_555
C110_13 C115_13 1_555 1_555
C111_16 C116_16 1_555 1_555
C112_19 C117_19 1_555 1_555
C113_19 C118_19 1_555 1_555
C114_17 C119_17 1_555 1_555
C115_13 C120_13 1_555 1_555
C116_16 C121_16 1_555 1_555
Co1_16 N1_20 1_555 1_555
Co12_2 N2_18 1_555 1_555
N1_20 C1_20 1_555 1_555
N2_18 C26_18 1_555 1_555
N27_8 C2_14 1_555 1_555
N4_14 Co1_16 1_555 1_555
N5_14 C12_14 1_555 1_555
N6_14 C12_14 1_555 1_555
N7_14 C13_14 1_555 1_555
N8_14 Co12_2 1_555 1_555
N9_11 Co12_2 1_555 1_555
N10_11 C25_11 1_555 1_555
S1_20 C1_20 1_555 1_555
S2_18 C26_18 1_555 1_555
C2_14 H1_14 1_555 1_555
C3_14 C2_14 1_555 1_555
C4_14 C3_14 1_555 1_555
H2_14 C4_14 1_555 1_555
C5_14 C4_14 1_555 1_555
H3_14 C5_14 1_555 1_555
C6_14 N27_8 1_555 1_555
H4_14 C6_14 1_555 1_555
C7_14 N4_14 1_555 1_555
H5_14 C7_14 1_555 1_555
C8_14 C7_14 1_555 1_555
H6_14 C8_14 1_555 1_555
C9_14 C8_14 1_555 1_555
H7_14 C9_14 1_555 1_555
C10_14 C9_14 1_555 1_555
C11_14 N4_14 1_555 1_555
H8_14 C11_14 1_555 1_555
C12_14 C10_14 1_555 1_555
C13_14 N6_14 1_555 1_555
C14_14 N5_14 1_555 1_555
C15_14 N8_14 1_555 1_555
H9_14 C15_14 1_555 1_555
C16_14 C15_14 1_555 1_555
H10_14 C16_14 1_555 1_555
C17_14 C16_14 1_555 1_555
H11_14 C17_14 1_555 1_555
C18_14 C14_14 1_555 1_555
C19_14 N8_14 1_555 1_555
H12_14 C19_14 1_555 1_555
C20_11 N9_11 1_555 1_555
H13_11 C20_11 1_555 1_555
C21_11 C20_11 1_555 1_555
H14_11 C21_11 1_555 1_555
C22_11 C21_11 1_555 1_555
H15_11 C22_11 1_555 1_555
C23_11 C22_11 1_555 1_555
C24_11 N9_11 1_555 1_555
H16_11 C24_11 1_555 1_555
C25_11 C23_11 1_555 1_555
Co3_14 N12_17 1_555 1_555
Co7_13 N31_14 1_555 1_555
Co8_18 N32_17 1_555 1_555
Co9_15 N17_15 1_555 1_555
Co14_7 N57_11 1_555 1_555
Co14_2 N58_11 1_555 1_555
Co13_3 N52_18 1_555 1_555
Co14_8 N54_17 1_555 1_555
N11_20 Co1_16 1_555 1_555
N12_17 C28_17 1_555 1_555
N13_17 Co3_14 1_555 1_555
N16_18 Co12_2 1_555 1_555
N17_15 C153_15 1_555 1_555
N18_15 Co9_15 1_555 1_555
N21_20 Co1_16 1_555 1_555
N22_20 Co1_16 1_555 1_555
N26_3 C34_18 1_555 1_555
N24_13 Co3_14 1_555 1_555
N25_15 Co3_14 1_555 1_555
N28_17 Co3_14 1_555 1_555
N30_18 Co1_16 1_555 1_555
N31_14 C60_14 1_555 1_555
N32_17 C61_17 1_555 1_555
N33_17 Co3_14 1_555 1_555
N35_20 C82_20 1_555 1_555
N36_20 C83_20 1_555 1_555
N37_18 C84_18 1_555 1_555
N38_14 C85_14 1_555 1_555
N39_17 C86_17 1_555 1_555
N40_20 C82_20 1_555 1_555
N41_20 C83_20 1_555 1_555
N42_18 C84_18 1_555 1_555
N43_14 C85_14 1_555 1_555
N44_17 C86_17 1_555 1_555
N45_20 C87_20 1_555 1_555
N46_20 C88_20 1_555 1_555
N47_18 C89_18 1_555 1_555
N48_14 C90_14 1_555 1_555
N49_17 C91_17 1_555 1_555
N50_15 Co9_15 1_555 1_555
N52_18 C99_18 1_555 1_555
N53_14 Co12_2 1_555 1_555
N54_17 C101_17 1_555 1_555
N55_15 Co9_15 1_555 1_555
N57_11 C122_11 1_555 1_555
N58_11 C123_11 1_555 1_555
N62_15 Co9_15 1_555 1_555
N63_15 Co9_15 1_555 1_555
N66_11 C147_11 1_555 1_555
N67_11 C25_11 1_555 1_555
S3_20 C27_20 1_555 1_555
S4_17 C28_17 1_555 1_555
S5_17 C29_17 1_555 1_555
S8_18 C152_18 1_555 1_555
S9_15 C153_15 1_555 1_555
S10_15 C154_15 1_555 1_555
C27_20 N11_20 1_555 1_555
C29_17 N13_17 1_555 1_555
C32_20 N21_20 1_555 1_555
C33_20 N22_20 1_555 1_555
C34_18 H19_18 1_555 1_555
C35_14 N24_13 1_555 1_555
C36_17 N25_15 1_555 1_555
H17_20 C32_20 1_555 1_555
H18_20 C33_20 1_555 1_555
H20_14 C35_14 1_555 1_555
H21_17 C36_17 1_555 1_555
C37_20 C32_20 1_555 1_555
C38_20 C33_20 1_555 1_555
C39_18 C34_18 1_555 1_555
C40_14 C35_14 1_555 1_555
C41_17 C36_17 1_555 1_555
C42_20 C37_20 1_555 1_555
C43_20 C38_20 1_555 1_555
C44_18 C39_18 1_555 1_555
C45_14 C40_14 1_555 1_555
C46_17 C41_17 1_555 1_555
H22_20 C42_20 1_555 1_555
H23_20 C43_20 1_555 1_555
H24_18 C44_18 1_555 1_555
H25_14 C45_14 1_555 1_555
H26_17 C46_17 1_555 1_555
C47_20 C42_20 1_555 1_555
C48_20 C43_20 1_555 1_555
C49_18 C44_18 1_555 1_555
C50_14 C45_14 1_555 1_555
C51_17 C46_17 1_555 1_555
H27_20 C47_20 1_555 1_555
H28_20 C48_20 1_555 1_555
H29_18 C49_18 1_555 1_555
H30_14 C50_14 1_555 1_555
H31_17 C51_17 1_555 1_555
C52_20 N21_20 1_555 1_555
C53_20 N22_20 1_555 1_555
C54_18 N26_3 1_555 1_555
C55_14 N24_13 1_555 1_555
C56_17 N25_15 1_555 1_555
H32_20 C52_20 1_555 1_555
H33_20 C53_20 1_555 1_555
H34_18 C54_18 1_555 1_555
H35_14 C55_14 1_555 1_555
H36_17 C56_17 1_555 1_555
C57_20 N28_17 1_555 1_555
C58_20 N34_7 1_555 1_555
C59_18 N30_18 1_555 1_555
C60_14 H40_14 1_555 1_555
C61_17 H41_17 1_555 1_555
H37_20 C57_20 1_555 1_555
H38_20 C58_20 1_555 1_555
H39_18 C59_18 1_555 1_555
C62_20 C57_20 1_555 1_555
C63_20 C58_20 1_555 1_555
C64_18 C59_18 1_555 1_555
C65_14 C60_14 1_555 1_555
C66_17 C61_17 1_555 1_555
H42_20 C62_20 1_555 1_555
H43_20 C63_20 1_555 1_555
H44_18 C64_18 1_555 1_555
H45_14 C65_14 1_555 1_555
H46_17 C66_17 1_555 1_555
C67_20 C62_20 1_555 1_555
C68_20 C63_20 1_555 1_555
C69_18 C64_18 1_555 1_555
C70_14 C65_14 1_555 1_555
C71_17 C66_17 1_555 1_555
H47_20 C67_20 1_555 1_555
H48_20 C68_20 1_555 1_555
H49_18 C69_18 1_555 1_555
H50_14 C70_14 1_555 1_555
H51_17 C71_17 1_555 1_555
C72_20 C67_20 1_555 1_555
C73_20 C68_20 1_555 1_555
C74_18 C69_18 1_555 1_555
C75_14 C70_14 1_555 1_555
C76_17 C71_17 1_555 1_555
C77_20 N28_17 1_555 1_555
C78_20 N34_7 1_555 1_555
C79_18 N30_18 1_555 1_555
C80_14 N31_14 1_555 1_555
C81_17 N32_17 1_555 1_555
H52_20 C77_20 1_555 1_555
H53_20 C78_20 1_555 1_555
H54_18 C79_18 1_555 1_555
H55_14 C80_14 1_555 1_555
H56_17 C81_17 1_555 1_555
C82_20 C72_20 1_555 1_555
C83_20 C73_20 1_555 1_555
C84_18 C74_18 1_555 1_555
C85_14 C75_14 1_555 1_555
C86_17 C76_17 1_555 1_555
C87_20 N40_20 1_555 1_555
C88_20 N41_20 1_555 1_555
C89_18 N42_18 1_555 1_555
C90_14 N43_14 1_555 1_555
C91_17 N44_17 1_555 1_555
C92_20 N35_20 1_555 1_555
C93_20 N36_20 1_555 1_555
C94_18 N37_18 1_555 1_555
C95_14 N38_14 1_555 1_555
C96_17 N39_17 1_555 1_555
C97_20 N50_15 1_555 1_555
C98_20 N56_3 1_555 1_555
C99_18 H59_18 1_555 1_555
C100_14 N53_14 1_555 1_555
C101_17 H61_17 1_555 1_555
H57_20 C97_20 1_555 1_555
H58_20 C98_20 1_555 1_555
H60_14 C100_14 1_555 1_555
C102_20 C97_20 1_555 1_555
C103_20 C98_20 1_555 1_555
C104_18 C99_18 1_555 1_555
C105_14 C100_14 1_555 1_555
C106_17 C101_17 1_555 1_555
H62_20 C102_20 1_555 1_555
H63_20 C103_20 1_555 1_555
H64_18 C104_18 1_555 1_555
H65_14 C105_14 1_555 1_555
H66_17 C106_17 1_555 1_555
C107_20 C102_20 1_555 1_555
C108_20 C103_20 1_555 1_555
C109_18 C104_18 1_555 1_555
C110_14 C105_14 1_555 1_555
C111_17 C106_17 1_555 1_555
H67_20 C107_20 1_555 1_555
H68_20 C108_20 1_555 1_555
H69_18 C109_18 1_555 1_555
H70_14 C110_14 1_555 1_555
H71_17 C111_17 1_555 1_555
C112_20 C92_20 1_555 1_555
C113_20 C93_20 1_555 1_555
C114_18 C94_18 1_555 1_555
C115_14 C95_14 1_555 1_555
C116_17 C96_17 1_555 1_555
C117_20 N50_15 1_555 1_555
C118_20 N56_3 1_555 1_555
C119_18 N52_18 1_555 1_555
C120_14 N53_14 1_555 1_555
C121_17 N54_17 1_555 1_555
H72_20 C117_20 1_555 1_555
H73_20 C118_20 1_555 1_555
H74_18 C119_18 1_555 1_555
H75_14 C120_14 1_555 1_555
H76_17 C121_17 1_555 1_555
C122_11 H77_11 1_555 1_555
C123_11 H78_11 1_555 1_555
C127_11 C122_11 1_555 1_555
C128_11 C123_11 1_555 1_555
H82_11 C127_11 1_555 1_555
H83_11 C128_11 1_555 1_555
C132_11 C127_11 1_555 1_555
C133_11 C128_11 1_555 1_555
H87_11 C132_11 1_555 1_555
H88_11 C133_11 1_555 1_555
C137_11 C132_11 1_555 1_555
C138_11 C133_11 1_555 1_555
C142_11 N57_11 1_555 1_555
C143_11 N58_11 1_555 1_555
H92_11 C142_11 1_555 1_555
H93_11 C143_11 1_555 1_555
C147_11 N10_11 1_555 1_555
C148_11 N66_11 1_555 1_555
C152_18 N16_18 1_555 1_555
C154_15 N18_15 1_555 1_555
N7_14 C14_14 1_555 1_555
C3_14 C13_14 1_555 1_555
C5_14 C6_14 1_555 1_555
C10_14 C11_14 1_555 1_555
C17_14 C18_14 1_555 1_555
C18_14 C19_14 1_555 1_555
C23_11 C24_11 1_555 1_555
N45_20 C92_20 1_555 1_555
N46_20 C93_20 1_555 1_555
N47_18 C94_18 1_555 1_555
N48_14 C95_14 1_555 1_555
N49_17 C96_17 1_555 1_555
N67_11 C148_11 1_555 1_555
C37_20 C87_20 1_555 1_555
C38_20 C88_20 1_555 1_555
C39_18 C89_18 1_555 1_555
C40_14 C90_14 1_555 1_555
C41_17 C91_17 1_555 1_555
C47_20 C52_20 1_555 1_555
C48_20 C53_20 1_555 1_555
C49_18 C54_18 1_555 1_555
C50_14 C55_14 1_555 1_555
C51_17 C56_17 1_555 1_555
C72_20 C77_20 1_555 1_555
C73_20 C78_20 1_555 1_555
C74_18 C79_18 1_555 1_555
C75_14 C80_14 1_555 1_555
C76_17 C81_17 1_555 1_555
C107_20 C112_20 1_555 1_555
C108_20 C113_20 1_555 1_555
C109_18 C114_18 1_555 1_555
C110_14 C115_14 1_555 1_555
C111_17 C116_17 1_555 1_555
C112_20 C117_20 1_555 1_555
C113_20 C118_20 1_555 1_555
C114_18 C119_18 1_555 1_555
C115_14 C120_14 1_555 1_555
C116_17 C121_17 1_555 1_555
C137_11 C142_11 1_555 1_555
C137_11 C148_11 1_555 1_555
C138_11 C143_11 1_555 1_555
C138_11 C147_11 1_555 1_555
Co1_17 N1_21 1_555 1_555
Co11_4 N2_19 1_555 1_555
N1_21 C1_21 1_555 1_555
N2_19 C26_19 1_555 1_555
N27 C2_15 1_555 1_555
N4_15 Co1_17 1_555 1_555
N5_15 C12_15 1_555 1_555
N6_15 C12_15 1_555 1_555
N7_15 C13_15 1_555 1_555
N8_15 Co11_4 1_555 1_555
S1_21 C1_21 1_555 1_555
S2_19 C26_19 1_555 1_555
C2_15 H1_15 1_555 1_555
C3_15 C2_15 1_555 1_555
C4_15 C3_15 1_555 1_555
H2_15 C4_15 1_555 1_555
C5_15 C4_15 1_555 1_555
H3_15 C5_15 1_555 1_555
C6_15 N27 1_555 1_555
H4_15 C6_15 1_555 1_555
C7_15 N4_15 1_555 1_555
H5_15 C7_15 1_555 1_555
C8_15 C7_15 1_555 1_555
H6_15 C8_15 1_555 1_555
C9_15 C8_15 1_555 1_555
H7_15 C9_15 1_555 1_555
C10_15 C9_15 1_555 1_555
C11_15 N4_15 1_555 1_555
H8_15 C11_15 1_555 1_555
C12_15 C10_15 1_555 1_555
C13_15 N6_15 1_555 1_555
C14_15 N5_15 1_555 1_555
C15_15 N8_15 1_555 1_555
H9_15 C15_15 1_555 1_555
C16_15 C15_15 1_555 1_555
H10_15 C16_15 1_555 1_555
C17_15 C16_15 1_555 1_555
H11_15 C17_15 1_555 1_555
C18_15 C14_15 1_555 1_555
C19_15 N8_15 1_555 1_555
H12_15 C19_15 1_555 1_555
Co5_4 N12_18 1_555 1_555
Co6_20 N23_15 1_555 1_555
Co8_16 N31_15 1_555 1_555
Co9_16 N17_16 1_555 1_555
Co10_17 N19_17 1_555 1_555
Co14_7 N52_19 1_555 1_555
N11_21 Co1_17 1_555 1_555
N12_18 C28_18 1_555 1_555
N13_18 Co5_4 1_555 1_555
N16_19 Co11_4 1_555 1_555
N17_16 C153_16 1_555 1_555
N18_16 Co9_16 1_555 1_555
N19_17 C155_17 1_555 1_555
N20_17 Co10_17 1_555 1_555
N21_21 Co1_17 1_555 1_555
N22_21 Co1_17 1_555 1_555
N23_15 C34_19 1_555 1_555
N24_14 Co5_4 1_555 1_555
N28_18 Co5_4 1_555 1_555
N30_19 Co1_17 1_555 1_555
N31_15 C60_15 1_555 1_555
N33_18 Co5_4 1_555 1_555
N35_21 C82_21 1_555 1_555
N36_21 C83_21 1_555 1_555
N37_19 C84_19 1_555 1_555
N38_15 C85_15 1_555 1_555
N40_21 C82_21 1_555 1_555
N41_21 C83_21 1_555 1_555
N42_19 C84_19 1_555 1_555
N43_15 C85_15 1_555 1_555
N45_21 C87_21 1_555 1_555
N46_21 C88_21 1_555 1_555
N47_19 C89_19 1_555 1_555
N48_15 C90_15 1_555 1_555
N50_16 Co9_16 1_555 1_555
N51_17 Co10_17 1_555 1_555
N52_19 C99_19 1_555 1_555
N53_15 Co11_4 1_555 1_555
N55_16 Co9_16 1_555 1_555
N56_17 Co10_17 1_555 1_555
N62_16 Co9_16 1_555 1_555
N63_16 Co9_16 1_555 1_555
N64_17 Co10_17 1_555 1_555
N65_17 Co10_17 1_555 1_555
S3_21 C27_21 1_555 1_555
S4_18 C28_18 1_555 1_555
S5_18 C29_18 1_555 1_555
S8_19 C152_19 1_555 1_555
S9_16 C153_16 1_555 1_555
S10_16 C154_16 1_555 1_555
S11_17 C155_17 1_555 1_555
S12_17 C156_17 1_555 1_555
C27_21 N11_21 1_555 1_555
C29_18 N13_18 1_555 1_555
C32_21 N21_21 1_555 1_555
C33_21 N22_21 1_555 1_555
C34_19 H19_19 1_555 1_555
C35_15 N24_14 1_555 1_555
H17_21 C32_21 1_555 1_555
H18_21 C33_21 1_555 1_555
H20_15 C35_15 1_555 1_555
C37_21 C32_21 1_555 1_555
C38_21 C33_21 1_555 1_555
C39_19 C34_19 1_555 1_555
C40_15 C35_15 1_555 1_555
C42_21 C37_21 1_555 1_555
C43_21 C38_21 1_555 1_555
C44_19 C39_19 1_555 1_555
C45_15 C40_15 1_555 1_555
H22_21 C42_21 1_555 1_555
H23_21 C43_21 1_555 1_555
H24_19 C44_19 1_555 1_555
H25_15 C45_15 1_555 1_555
C47_21 C42_21 1_555 1_555
C48_21 C43_21 1_555 1_555
C49_19 C44_19 1_555 1_555
C50_15 C45_15 1_555 1_555
H27_21 C47_21 1_555 1_555
H28_21 C48_21 1_555 1_555
H29_19 C49_19 1_555 1_555
H30_15 C50_15 1_555 1_555
C52_21 N21_21 1_555 1_555
C53_21 N22_21 1_555 1_555
C54_19 N23_15 1_555 1_555
C55_15 N24_14 1_555 1_555
H32_21 C52_21 1_555 1_555
H33_21 C53_21 1_555 1_555
H34_19 C54_19 1_555 1_555
H35_15 C55_15 1_555 1_555
C57_21 N28_18 1_555 1_555
C58_21 N34_6 1_555 1_555
C59_19 N30_19 1_555 1_555
C60_15 H40_15 1_555 1_555
H37_21 C57_21 1_555 1_555
H38_21 C58_21 1_555 1_555
H39_19 C59_19 1_555 1_555
C62_21 C57_21 1_555 1_555
C63_21 C58_21 1_555 1_555
C64_19 C59_19 1_555 1_555
C65_15 C60_15 1_555 1_555
H42_21 C62_21 1_555 1_555
H43_21 C63_21 1_555 1_555
H44_19 C64_19 1_555 1_555
H45_15 C65_15 1_555 1_555
C67_21 C62_21 1_555 1_555
C68_21 C63_21 1_555 1_555
C69_19 C64_19 1_555 1_555
C70_15 C65_15 1_555 1_555
H47_21 C67_21 1_555 1_555
H48_21 C68_21 1_555 1_555
H49_19 C69_19 1_555 1_555
H50_15 C70_15 1_555 1_555
C72_21 C67_21 1_555 1_555
C73_21 C68_21 1_555 1_555
C74_19 C69_19 1_555 1_555
C75_15 C70_15 1_555 1_555
C77_21 N28_18 1_555 1_555
C78_21 N34_6 1_555 1_555
C79_19 N30_19 1_555 1_555
C80_15 N31_15 1_555 1_555
H52_21 C77_21 1_555 1_555
H53_21 C78_21 1_555 1_555
H54_19 C79_19 1_555 1_555
H55_15 C80_15 1_555 1_555
C82_21 C72_21 1_555 1_555
C83_21 C73_21 1_555 1_555
C84_19 C74_19 1_555 1_555
C85_15 C75_15 1_555 1_555
C87_21 N40_21 1_555 1_555
C88_21 N41_21 1_555 1_555
C89_19 N42_19 1_555 1_555
C90_15 N43_15 1_555 1_555
C92_21 N35_21 1_555 1_555
C93_21 N36_21 1_555 1_555
C94_19 N37_19 1_555 1_555
C95_15 N38_15 1_555 1_555
C97_21 N50_16 1_555 1_555
C98_21 N51_17 1_555 1_555
C99_19 H59_19 1_555 1_555
C100_15 N53_15 1_555 1_555
H57_21 C97_21 1_555 1_555
H58_21 C98_21 1_555 1_555
H60_15 C100_15 1_555 1_555
C102_21 C97_21 1_555 1_555
C103_21 C98_21 1_555 1_555
C104_19 C99_19 1_555 1_555
C105_15 C100_15 1_555 1_555
H62_21 C102_21 1_555 1_555
H63_21 C103_21 1_555 1_555
H64_19 C104_19 1_555 1_555
H65_15 C105_15 1_555 1_555
C107_21 C102_21 1_555 1_555
C108_21 C103_21 1_555 1_555
C109_19 C104_19 1_555 1_555
C110_15 C105_15 1_555 1_555
H67_21 C107_21 1_555 1_555
H68_21 C108_21 1_555 1_555
H69_19 C109_19 1_555 1_555
H70_15 C110_15 1_555 1_555
C112_21 C92_21 1_555 1_555
C113_21 C93_21 1_555 1_555
C114_19 C94_19 1_555 1_555
C115_15 C95_15 1_555 1_555
C117_21 N50_16 1_555 1_555
C118_21 N51_17 1_555 1_555
C119_19 N52_19 1_555 1_555
C120_15 N53_15 1_555 1_555
H72_21 C117_21 1_555 1_555
H73_21 C118_21 1_555 1_555
H74_19 C119_19 1_555 1_555
H75_15 C120_15 1_555 1_555
C152_19 N16_19 1_555 1_555
C154_16 N18_16 1_555 1_555
C156_17 N20_17 1_555 1_555
N7_15 C14_15 1_555 1_555
C3_15 C13_15 1_555 1_555
C5_15 C6_15 1_555 1_555
C10_15 C11_15 1_555 1_555
C17_15 C18_15 1_555 1_555
C18_15 C19_15 1_555 1_555
N45_21 C92_21 1_555 1_555
N46_21 C93_21 1_555 1_555
N47_19 C94_19 1_555 1_555
N48_15 C95_15 1_555 1_555
C37_21 C87_21 1_555 1_555
C38_21 C88_21 1_555 1_555
C39_19 C89_19 1_555 1_555
C40_15 C90_15 1_555 1_555
C47_21 C52_21 1_555 1_555
C48_21 C53_21 1_555 1_555
C49_19 C54_19 1_555 1_555
C50_15 C55_15 1_555 1_555
C72_21 C77_21 1_555 1_555
C73_21 C78_21 1_555 1_555
C74_19 C79_19 1_555 1_555
C75_15 C80_15 1_555 1_555
C107_21 C112_21 1_555 1_555
C108_21 C113_21 1_555 1_555
C109_19 C114_19 1_555 1_555
C110_15 C115_15 1_555 1_555
C112_21 C117_21 1_555 1_555
C113_21 C118_21 1_555 1_555
C114_19 C119_19 1_555 1_555
C115_15 C120_15 1_555 1_555
Co1_18 N1_22 1_555 1_555
Co14_7 N2_20 1_555 1_555
N1_22 C1_22 1_555 1_555
N2_20 C26_20 1_555 1_555
N27_4 C2_16 1_555 1_555
N4_16 Co1_18 1_555 1_555
N5_16 C12_16 1_555 1_555
N6_16 C12_16 1_555 1_555
N7_16 C13_16 1_555 1_555
N8_16 Co14_7 1_555 1_555
S1_22 C1_22 1_555 1_555
S2_20 C26_20 1_555 1_555
C2_16 H1_16 1_555 1_555
C3_16 C2_16 1_555 1_555
C4_16 C3_16 1_555 1_555
H2_16 C4_16 1_555 1_555
C5_16 C4_16 1_555 1_555
H3_16 C5_16 1_555 1_555
C6_16 N27_4 1_555 1_555
H4_16 C6_16 1_555 1_555
C7_16 N4_16 1_555 1_555
H5_16 C7_16 1_555 1_555
C8_16 C7_16 1_555 1_555
H6_16 C8_16 1_555 1_555
C9_16 C8_16 1_555 1_555
H7_16 C9_16 1_555 1_555
C10_16 C9_16 1_555 1_555
C11_16 N4_16 1_555 1_555
H8_16 C11_16 1_555 1_555
C12_16 C10_16 1_555 1_555
C13_16 N6_16 1_555 1_555
C14_16 N5_16 1_555 1_555
C15_16 N8_16 1_555 1_555
H9_16 C15_16 1_555 1_555
C16_16 C15_16 1_555 1_555
H10_16 C16_16 1_555 1_555
C17_16 C16_16 1_555 1_555
H11_16 C17_16 1_555 1_555
C18_16 C14_16 1_555 1_555
C19_16 N8_16 1_555 1_555
H12_16 C19_16 1_555 1_555
Co6_20 N12_19 1_555 1_555
Co6_21 N23_16 1_555 1_555
Co7_13 N32_18 1_555 1_555
Co10_18 N19_18 1_555 1_555
Co16_3 N52_20 1_555 1_555
Co12_5 N54_18 1_555 1_555
N11_22 Co1_18 1_555 1_555
N12_19 C28_19 1_555 1_555
N13_19 Co6_20 1_555 1_555
N16_20 Co14_7 1_555 1_555
N19_18 C155_18 1_555 1_555
N20_18 Co10_18 1_555 1_555
N21_22 Co1_18 1_555 1_555
N22_22 Co1_18 1_555 1_555
N23_16 C34_20 1_555 1_555
N25_16 Co6_20 1_555 1_555
N28_19 Co6_20 1_555 1_555
N30_20 Co1_18 1_555 1_555
N32_18 C61_18 1_555 1_555
N33_19 Co6_20 1_555 1_555
N35_22 C82_22 1_555 1_555
N36_22 C83_22 1_555 1_555
N37_20 C84_20 1_555 1_555
N39_18 C86_18 1_555 1_555
N40_22 C82_22 1_555 1_555
N41_22 C83_22 1_555 1_555
N42_20 C84_20 1_555 1_555
N44_18 C86_18 1_555 1_555
N45_22 C87_22 1_555 1_555
N46_22 C88_22 1_555 1_555
N47_20 C89_20 1_555 1_555
N49_18 C91_18 1_555 1_555
N51_18 Co10_18 1_555 1_555
N52_20 C99_20 1_555 1_555
N54_18 C101_18 1_555 1_555
N56_18 Co10_18 1_555 1_555
N64_18 Co10_18 1_555 1_555
N65_18 Co10_18 1_555 1_555
S3_22 C27_22 1_555 1_555
S4_19 C28_19 1_555 1_555
S5_19 C29_19 1_555 1_555
S8_20 C152_20 1_555 1_555
S11_18 C155_18 1_555 1_555
S12_18 C156_18 1_555 1_555
C27_22 N11_22 1_555 1_555
C29_19 N13_19 1_555 1_555
C32_22 N21_22 1_555 1_555
C33_22 N22_22 1_555 1_555
C34_20 H19_20 1_555 1_555
C36_18 N25_16 1_555 1_555
H17_22 C32_22 1_555 1_555
H18_22 C33_22 1_555 1_555
H21_18 C36_18 1_555 1_555
C37_22 C32_22 1_555 1_555
C38_22 C33_22 1_555 1_555
C39_20 C34_20 1_555 1_555
C41_18 C36_18 1_555 1_555
C42_22 C37_22 1_555 1_555
C43_22 C38_22 1_555 1_555
C44_20 C39_20 1_555 1_555
C46_18 C41_18 1_555 1_555
H22_22 C42_22 1_555 1_555
H23_22 C43_22 1_555 1_555
H24_20 C44_20 1_555 1_555
H26_18 C46_18 1_555 1_555
C47_22 C42_22 1_555 1_555
C48_22 C43_22 1_555 1_555
C49_20 C44_20 1_555 1_555
C51_18 C46_18 1_555 1_555
H27_22 C47_22 1_555 1_555
H28_22 C48_22 1_555 1_555
H29_20 C49_20 1_555 1_555
H31_18 C51_18 1_555 1_555
C52_22 N21_22 1_555 1_555
C53_22 N22_22 1_555 1_555
C54_20 N23_16 1_555 1_555
C56_18 N25_16 1_555 1_555
H32_22 C52_22 1_555 1_555
H33_22 C53_22 1_555 1_555
H34_20 C54_20 1_555 1_555
H36_18 C56_18 1_555 1_555
C57_22 N28_19 1_555 1_555
C58_22 N33_4 1_555 1_555
C59_20 N30_20 1_555 1_555
C61_18 H41_18 1_555 1_555
H37_22 C57_22 1_555 1_555
H38_22 C58_22 1_555 1_555
H39_20 C59_20 1_555 1_555
C62_22 C57_22 1_555 1_555
C63_22 C58_22 1_555 1_555
C64_20 C59_20 1_555 1_555
C66_18 C61_18 1_555 1_555
H42_22 C62_22 1_555 1_555
H43_22 C63_22 1_555 1_555
H44_20 C64_20 1_555 1_555
H46_18 C66_18 1_555 1_555
C67_22 C62_22 1_555 1_555
C68_22 C63_22 1_555 1_555
C69_20 C64_20 1_555 1_555
C71_18 C66_18 1_555 1_555
H47_22 C67_22 1_555 1_555
H48_22 C68_22 1_555 1_555
H49_20 C69_20 1_555 1_555
H51_18 C71_18 1_555 1_555
C72_22 C67_22 1_555 1_555
C73_22 C68_22 1_555 1_555
C74_20 C69_20 1_555 1_555
C76_18 C71_18 1_555 1_555
C77_22 N28_19 1_555 1_555
C78_22 N33_4 1_555 1_555
C79_20 N30_20 1_555 1_555
C81_18 N32_18 1_555 1_555
H52_22 C77_22 1_555 1_555
H53_22 C78_22 1_555 1_555
H54_20 C79_20 1_555 1_555
H56_18 C81_18 1_555 1_555
C82_22 C72_22 1_555 1_555
C83_22 C73_22 1_555 1_555
C84_20 C74_20 1_555 1_555
C86_18 C76_18 1_555 1_555
C87_22 N40_22 1_555 1_555
C88_22 N41_22 1_555 1_555
C89_20 N42_20 1_555 1_555
C91_18 N44_18 1_555 1_555
C92_22 N35_22 1_555 1_555
C93_22 N36_22 1_555 1_555
C94_20 N37_20 1_555 1_555
C96_18 N39_18 1_555 1_555
C97_22 N56_17 1_555 1_555
C98_22 N51_18 1_555 1_555
C99_20 H59_20 1_555 1_555
C101_18 H61_18 1_555 1_555
H57_22 C97_22 1_555 1_555
H58_22 C98_22 1_555 1_555
C102_22 C97_22 1_555 1_555
C103_22 C98_22 1_555 1_555
C104_20 C99_20 1_555 1_555
C106_18 C101_18 1_555 1_555
H62_22 C102_22 1_555 1_555
H63_22 C103_22 1_555 1_555
H64_20 C104_20 1_555 1_555
H66_18 C106_18 1_555 1_555
C107_22 C102_22 1_555 1_555
C108_22 C103_22 1_555 1_555
C109_20 C104_20 1_555 1_555
C111_18 C106_18 1_555 1_555
H67_22 C107_22 1_555 1_555
H68_22 C108_22 1_555 1_555
H69_20 C109_20 1_555 1_555
H71_18 C111_18 1_555 1_555
C112_22 C92_22 1_555 1_555
C113_22 C93_22 1_555 1_555
C114_20 C94_20 1_555 1_555
C116_18 C96_18 1_555 1_555
C117_22 N56_17 1_555 1_555
C118_22 N51_18 1_555 1_555
C119_20 N52_20 1_555 1_555
C121_18 N54_18 1_555 1_555
H72_22 C117_22 1_555 1_555
H73_22 C118_22 1_555 1_555
H74_20 C119_20 1_555 1_555
H76_18 C121_18 1_555 1_555
C152_20 N16_20 1_555 1_555
C156_18 N20_18 1_555 1_555
N7_16 C14_16 1_555 1_555
C3_16 C13_16 1_555 1_555
C5_16 C6_16 1_555 1_555
C10_16 C11_16 1_555 1_555
C17_16 C18_16 1_555 1_555
C18_16 C19_16 1_555 1_555
N45_22 C92_22 1_555 1_555
N46_22 C93_22 1_555 1_555
N47_20 C94_20 1_555 1_555
N49_18 C96_18 1_555 1_555
C37_22 C87_22 1_555 1_555
C38_22 C88_22 1_555 1_555
C39_20 C89_20 1_555 1_555
C41_18 C91_18 1_555 1_555
C47_22 C52_22 1_555 1_555
C48_22 C53_22 1_555 1_555
C49_20 C54_20 1_555 1_555
C51_18 C56_18 1_555 1_555
C72_22 C77_22 1_555 1_555
C73_22 C78_22 1_555 1_555
C74_20 C79_20 1_555 1_555
C76_18 C81_18 1_555 1_555
C107_22 C112_22 1_555 1_555
C108_22 C113_22 1_555 1_555
C109_20 C114_20 1_555 1_555
C111_18 C116_18 1_555 1_555
C112_22 C117_22 1_555 1_555
C113_22 C118_22 1_555 1_555
C114_20 C119_20 1_555 1_555
C116_18 C121_18 1_555 1_555
Co8_18 N1_23 1_555 1_555
Co14_8 N2_21 1_555 1_555
N1_23 C1_23 1_555 1_555
N2_21 C26_21 1_555 1_555
N9_12 Co14_8 1_555 1_555
N10_12 C25_12 1_555 1_555
S1_23 C1_23 1_555 1_555
S2_21 C26_21 1_555 1_555
C20_12 N9_12 1_555 1_555
H13_12 C20_12 1_555 1_555
C21_12 C20_12 1_555 1_555
H14_12 C21_12 1_555 1_555
C22_12 C21_12 1_555 1_555
H15_12 C22_12 1_555 1_555
C23_12 C22_12 1_555 1_555
C24_12 N9_12 1_555 1_555
H16_12 C24_12 1_555 1_555
C25_12 C23_12 1_555 1_555
Co6 N14_16 1_555 1_555
Co7_12 N31_16 1_555 1_555
Co9_17 N17_17 1_555 1_555
Co13_7 N57_12 1_555 1_555
Co12_5 N58_12 1_555 1_555
Co13 N52_21 1_555 1_555
N11_23 Co8_18 1_555 1_555
N13_20 Co6_18 1_555 1_555
N14_16 C30_16 1_555 1_555
N15_16 Co6 1_555 1_555
N16_21 Co14_8 1_555 1_555
N17_17 C153_17 1_555 1_555
N18_17 Co9_17 1_555 1_555
N21_23 Co8_18 1_555 1_555
N22_23 Co8_18 1_555 1_555
N26 C34_21 1_555 1_555
N24_15 Co6_18 1_555 1_555
N27_10 Co6 1_555 1_555
N28_20 Co6_18 1_555 1_555
N29_16 Co6 1_555 1_555
N30_21 Co8_18 1_555 1_555
N31_16 C60_16 1_555 1_555
N34_16 Co6 1_555 1_555
N35_23 C82_23 1_555 1_555
N36_23 C83_23 1_555 1_555
N37_21 C84_21 1_555 1_555
N38_16 C85_16 1_555 1_555
N40_23 C82_23 1_555 1_555
N41_23 C83_23 1_555 1_555
N42_21 C84_21 1_555 1_555
N43_16 C85_16 1_555 1_555
N45_23 C87_23 1_555 1_555
N46_23 C88_23 1_555 1_555
N47_21 C89_21 1_555 1_555
N48_16 C90_16 1_555 1_555
N50_17 Co9_17 1_555 1_555
N52_21 C99_21 1_555 1_555
N53_16 Co14_8 1_555 1_555
N55_17 Co9_17 1_555 1_555
N57_12 C122_12 1_555 1_555
N58_12 C123_12 1_555 1_555
N62_17 Co9_17 1_555 1_555
N63_17 Co9_17 1_555 1_555
N66_12 C147_12 1_555 1_555
N67_12 C25_12 1_555 1_555
S3_23 C27_23 1_555 1_555
S5_20 C29_20 1_555 1_555
S6_16 C30_16 1_555 1_555
S7_16 C31_16 1_555 1_555
S8_21 C152_21 1_555 1_555
S9_17 C153_17 1_555 1_555
S10_17 C154_17 1_555 1_555
C27_23 N11_23 1_555 1_555
C29_20 N13_20 1_555 1_555
C31_16 N15_16 1_555 1_555
C32_23 N21_23 1_555 1_555
C33_23 N22_23 1_555 1_555
C34_21 H19_21 1_555 1_555
C35_16 N24_15 1_555 1_555
H17_23 C32_23 1_555 1_555
H18_23 C33_23 1_555 1_555
H20_16 C35_16 1_555 1_555
C37_23 C32_23 1_555 1_555
C38_23 C33_23 1_555 1_555
C39_21 C34_21 1_555 1_555
C40_16 C35_16 1_555 1_555
C42_23 C37_23 1_555 1_555
C43_23 C38_23 1_555 1_555
C44_21 C39_21 1_555 1_555
C45_16 C40_16 1_555 1_555
H22_23 C42_23 1_555 1_555
H23_23 C43_23 1_555 1_555
H24_21 C44_21 1_555 1_555
H25_16 C45_16 1_555 1_555
C47_23 C42_23 1_555 1_555
C48_23 C43_23 1_555 1_555
C49_21 C44_21 1_555 1_555
C50_16 C45_16 1_555 1_555
H27_23 C47_23 1_555 1_555
H28_23 C48_23 1_555 1_555
H29_21 C49_21 1_555 1_555
H30_16 C50_16 1_555 1_555
C52_23 N21_23 1_555 1_555
C53_23 N22_23 1_555 1_555
C54_21 N26 1_555 1_555
C55_16 N24_15 1_555 1_555
H32_23 C52_23 1_555 1_555
H33_23 C53_23 1_555 1_555
H34_21 C54_21 1_555 1_555
H35_16 C55_16 1_555 1_555
C57_23 N28_20 1_555 1_555
C58_23 N29_16 1_555 1_555
C59_21 N30_21 1_555 1_555
C60_16 H40_16 1_555 1_555
H37_23 C57_23 1_555 1_555
H38_23 C58_23 1_555 1_555
H39_21 C59_21 1_555 1_555
C62_23 C57_23 1_555 1_555
C63_23 C58_23 1_555 1_555
C64_21 C59_21 1_555 1_555
C65_16 C60_16 1_555 1_555
H42_23 C62_23 1_555 1_555
H43_23 C63_23 1_555 1_555
H44_21 C64_21 1_555 1_555
H45_16 C65_16 1_555 1_555
C67_23 C62_23 1_555 1_555
C68_23 C63_23 1_555 1_555
C69_21 C64_21 1_555 1_555
C70_16 C65_16 1_555 1_555
H47_23 C67_23 1_555 1_555
H48_23 C68_23 1_555 1_555
H49_21 C69_21 1_555 1_555
H50_16 C70_16 1_555 1_555
C72_23 C67_23 1_555 1_555
C73_23 C68_23 1_555 1_555
C74_21 C69_21 1_555 1_555
C75_16 C70_16 1_555 1_555
C77_23 N28_20 1_555 1_555
C78_23 N29_16 1_555 1_555
C79_21 N30_21 1_555 1_555
C80_16 N31_16 1_555 1_555
H52_23 C77_23 1_555 1_555
H53_23 C78_23 1_555 1_555
H54_21 C79_21 1_555 1_555
H55_16 C80_16 1_555 1_555
C82_23 C72_23 1_555 1_555
C83_23 C73_23 1_555 1_555
C84_21 C74_21 1_555 1_555
C85_16 C75_16 1_555 1_555
C87_23 N40_23 1_555 1_555
C88_23 N41_23 1_555 1_555
C89_21 N42_21 1_555 1_555
C90_16 N43_16 1_555 1_555
C92_23 N35_23 1_555 1_555
C93_23 N36_23 1_555 1_555
C94_21 N37_21 1_555 1_555
C95_16 N38_16 1_555 1_555
C97_23 N50_17 1_555 1_555
C98_23 N56 1_555 1_555
C99_21 H59_21 1_555 1_555
C100_16 N53_16 1_555 1_555
H57_23 C97_23 1_555 1_555
H58_23 C98_23 1_555 1_555
H60_16 C100_16 1_555 1_555
C102_23 C97_23 1_555 1_555
C103_23 C98_23 1_555 1_555
C104_21 C99_21 1_555 1_555
C105_16 C100_16 1_555 1_555
H62_23 C102_23 1_555 1_555
H63_23 C103_23 1_555 1_555
H64_21 C104_21 1_555 1_555
H65_16 C105_16 1_555 1_555
C107_23 C102_23 1_555 1_555
C108_23 C103_23 1_555 1_555
C109_21 C104_21 1_555 1_555
C110_16 C105_16 1_555 1_555
H67_23 C107_23 1_555 1_555
H68_23 C108_23 1_555 1_555
H69_21 C109_21 1_555 1_555
H70_16 C110_16 1_555 1_555
C112_23 C92_23 1_555 1_555
C113_23 C93_23 1_555 1_555
C114_21 C94_21 1_555 1_555
C115_16 C95_16 1_555 1_555
C117_23 N50_17 1_555 1_555
C118_23 N56 1_555 1_555
C119_21 N52_21 1_555 1_555
C120_16 N53_16 1_555 1_555
H72_23 C117_23 1_555 1_555
H73_23 C118_23 1_555 1_555
H74_21 C119_21 1_555 1_555
H75_16 C120_16 1_555 1_555
C122_12 H77_12 1_555 1_555
C123_12 H78_12 1_555 1_555
C127_12 C122_12 1_555 1_555
C128_12 C123_12 1_555 1_555
H82_12 C127_12 1_555 1_555
H83_12 C128_12 1_555 1_555
C132_12 C127_12 1_555 1_555
C133_12 C128_12 1_555 1_555
H87_12 C132_12 1_555 1_555
H88_12 C133_12 1_555 1_555
C137_12 C132_12 1_555 1_555
C138_12 C133_12 1_555 1_555
C142_12 N57_12 1_555 1_555
C143_12 N58_12 1_555 1_555
H92_12 C142_12 1_555 1_555
H93_12 C143_12 1_555 1_555
C147_12 N10_12 1_555 1_555
C148_12 N66_12 1_555 1_555
C152_21 N16_21 1_555 1_555
C154_17 N18_17 1_555 1_555
C23_12 C24_12 1_555 1_555
N45_23 C92_23 1_555 1_555
N46_23 C93_23 1_555 1_555
N47_21 C94_21 1_555 1_555
N48_16 C95_16 1_555 1_555
N67_12 C148_12 1_555 1_555
C37_23 C87_23 1_555 1_555
C38_23 C88_23 1_555 1_555
C39_21 C89_21 1_555 1_555
C40_16 C90_16 1_555 1_555
C47_23 C52_23 1_555 1_555
C48_23 C53_23 1_555 1_555
C49_21 C54_21 1_555 1_555
C50_16 C55_16 1_555 1_555
C72_23 C77_23 1_555 1_555
C73_23 C78_23 1_555 1_555
C74_21 C79_21 1_555 1_555
C75_16 C80_16 1_555 1_555
C107_23 C112_23 1_555 1_555
C108_23 C113_23 1_555 1_555
C109_21 C114_21 1_555 1_555
C110_16 C115_16 1_555 1_555
C112_23 C117_23 1_555 1_555
C113_23 C118_23 1_555 1_555
C114_21 C119_21 1_555 1_555
C115_16 C120_16 1_555 1_555
C137_12 C142_12 1_555 1_555
C137_12 C148_12 1_555 1_555
C138_12 C143_12 1_555 1_555
C138_12 C147_12 1_555 1_555
Co6_19 N12_20 1_555 1_555
N12_20 C28_20 1_555 1_555
N33_20 Co6_19 1_555 1_555
S4_20 C28_20 1_555 1_555
Co7_3 N1_24 1_555 1_555
N1_24 C1_24 1_555 1_555
S1_24 C1_24 1_555 1_555
Co10_19 N19_19 1_555 1_555
Co14 N52_22 1_555 1_555
N11_24 Co7_3 1_555 1_555
N19_19 C155_19 1_555 1_555
N20_19 Co10_19 1_555 1_555
N21_24 Co7_3 1_555 1_555
N22_24 Co7_3 1_555 1_555
N27_10 C34_22 1_555 1_555
N30_22 Co7_3 1_555 1_555
N35_24 C82_24 1_555 1_555
N36_24 C83_24 1_555 1_555
N37_22 C84_22 1_555 1_555
N40_24 C82_24 1_555 1_555
N41_24 C83_24 1_555 1_555
N42_22 C84_22 1_555 1_555
N45_24 C87_24 1_555 1_555
N46_24 C88_24 1_555 1_555
N47_22 C89_22 1_555 1_555
N51_19 Co10_19 1_555 1_555
N52_22 C99_22 1_555 1_555
N56_19 Co10_19 1_555 1_555
N64_19 Co10_19 1_555 1_555
N65_19 Co10_19 1_555 1_555
S3_24 C27_24 1_555 1_555
S11_19 C155_19 1_555 1_555
S12_19 C156_19 1_555 1_555
C27_24 N11_24 1_555 1_555
C32_24 N21_24 1_555 1_555
C33_24 N22_24 1_555 1_555
C34_22 H19_22 1_555 1_555
H17_24 C32_24 1_555 1_555
H18_24 C33_24 1_555 1_555
C37_24 C32_24 1_555 1_555
C38_24 C33_24 1_555 1_555
C39_22 C34_22 1_555 1_555
C42_24 C37_24 1_555 1_555
C43_24 C38_24 1_555 1_555
C44_22 C39_22 1_555 1_555
H22_24 C42_24 1_555 1_555
H23_24 C43_24 1_555 1_555
H24_22 C44_22 1_555 1_555
C47_24 C42_24 1_555 1_555
C48_24 C43_24 1_555 1_555
C49_22 C44_22 1_555 1_555
H27_24 C47_24 1_555 1_555
H28_24 C48_24 1_555 1_555
H29_22 C49_22 1_555 1_555
C52_24 N21_24 1_555 1_555
C53_24 N22_24 1_555 1_555
C54_22 N27_10 1_555 1_555
H32_24 C52_24 1_555 1_555
H33_24 C53_24 1_555 1_555
H34_22 C54_22 1_555 1_555
C57_24 N34_3 1_555 1_555
C58_24 N33_5 1_555 1_555
C59_22 N30_22 1_555 1_555
H37_24 C57_24 1_555 1_555
H38_24 C58_24 1_555 1_555
H39_22 C59_22 1_555 1_555
C62_24 C57_24 1_555 1_555
C63_24 C58_24 1_555 1_555
C64_22 C59_22 1_555 1_555
H42_24 C62_24 1_555 1_555
H43_24 C63_24 1_555 1_555
H44_22 C64_22 1_555 1_555
C67_24 C62_24 1_555 1_555
C68_24 C63_24 1_555 1_555
C69_22 C64_22 1_555 1_555
H47_24 C67_24 1_555 1_555
H48_24 C68_24 1_555 1_555
H49_22 C69_22 1_555 1_555
C72_24 C67_24 1_555 1_555
C73_24 C68_24 1_555 1_555
C74_22 C69_22 1_555 1_555
C77_24 N34_3 1_555 1_555
C78_24 N33_5 1_555 1_555
C79_22 N30_22 1_555 1_555
H52_24 C77_24 1_555 1_555
H53_24 C78_24 1_555 1_555
H54_22 C79_22 1_555 1_555
C82_24 C72_24 1_555 1_555
C83_24 C73_24 1_555 1_555
C84_22 C74_22 1_555 1_555
C87_24 N40_24 1_555 1_555
C88_24 N41_24 1_555 1_555
C89_22 N42_22 1_555 1_555
C92_24 N35_24 1_555 1_555
C93_24 N36_24 1_555 1_555
C94_22 N37_22 1_555 1_555
C97_24 N55_2 1_555 1_555
C98_24 N51_19 1_555 1_555
C99_22 H59_22 1_555 1_555
H57_24 C97_24 1_555 1_555
H58_24 C98_24 1_555 1_555
C102_24 C97_24 1_555 1_555
C103_24 C98_24 1_555 1_555
C104_22 C99_22 1_555 1_555
H62_24 C102_24 1_555 1_555
H63_24 C103_24 1_555 1_555
H64_22 C104_22 1_555 1_555
C107_24 C102_24 1_555 1_555
C108_24 C103_24 1_555 1_555
C109_22 C104_22 1_555 1_555
H67_24 C107_24 1_555 1_555
H68_24 C108_24 1_555 1_555
H69_22 C109_22 1_555 1_555
C112_24 C92_24 1_555 1_555
C113_24 C93_24 1_555 1_555
C114_22 C94_22 1_555 1_555
C117_24 N55_2 1_555 1_555
C118_24 N51_19 1_555 1_555
C119_22 N52_22 1_555 1_555
H72_24 C117_24 1_555 1_555
H73_24 C118_24 1_555 1_555
H74_22 C119_22 1_555 1_555
C156_19 N20_19 1_555 1_555
N45_24 C92_24 1_555 1_555
N46_24 C93_24 1_555 1_555
N47_22 C94_22 1_555 1_555
C37_24 C87_24 1_555 1_555
C38_24 C88_24 1_555 1_555
C39_22 C89_22 1_555 1_555
C47_24 C52_24 1_555 1_555
C48_24 C53_24 1_555 1_555
C49_22 C54_22 1_555 1_555
C72_24 C77_24 1_555 1_555
C73_24 C78_24 1_555 1_555
C74_22 C79_22 1_555 1_555
C107_24 C112_24 1_555 1_555
C108_24 C113_24 1_555 1_555
C109_22 C114_22 1_555 1_555
C112_24 C117_24 1_555 1_555
C113_24 C118_24 1_555 1_555
C114_22 C119_22 1_555 1_555
Co8_19 N32_19 1_555 1_555
Co13_2 N54_19 1_555 1_555
N32_19 C61_19 1_555 1_555
N39_19 C86_19 1_555 1_555
N44_19 C86_19 1_555 1_555
N49_19 C91_19 1_555 1_555
N54_19 C101_19 1_555 1_555
S11_20 C155_20 1_555 1_555
S12_20 C156_20 1_555 1_555
C36_19 N26_2 1_555 1_555
H21_19 C36_19 1_555 1_555
C41_19 C36_19 1_555 1_555
C46_19 C41_19 1_555 1_555
H26_19 C46_19 1_555 1_555
C51_19 C46_19 1_555 1_555
H31_19 C51_19 1_555 1_555
C56_19 N26_2 1_555 1_555
H36_19 C56_19 1_555 1_555
C61_19 H41_19 1_555 1_555
C66_19 C61_19 1_555 1_555
H46_19 C66_19 1_555 1_555
C71_19 C66_19 1_555 1_555
H51_19 C71_19 1_555 1_555
C76_19 C71_19 1_555 1_555
C81_19 N32_19 1_555 1_555
H56_19 C81_19 1_555 1_555
C86_19 C76_19 1_555 1_555
C91_19 N44_19 1_555 1_555
C96_19 N39_19 1_555 1_555
C101_19 H61_19 1_555 1_555
C106_19 C101_19 1_555 1_555
H66_19 C106_19 1_555 1_555
C111_19 C106_19 1_555 1_555
H71_19 C111_19 1_555 1_555
C116_19 C96_19 1_555 1_555
C121_19 N54_19 1_555 1_555
H76_19 C121_19 1_555 1_555
N49_19 C96_19 1_555 1_555
C41_19 C91_19 1_555 1_555
C51_19 C56_19 1_555 1_555
C76_19 C81_19 1_555 1_555
C111_19 C116_19 1_555 1_555
C116_19 C121_19 1_555 1_555
Co7_5 N1_25 1_555 1_555
N1_25 C1_25 1_555 1_555
S1_25 C1_25 1_555 1_555
Co10_20 N19_20 1_555 1_555
Co13_10 N52_23 1_555 1_555
N11_25 Co7_5 1_555 1_555
N20_20 Co10_20 1_555 1_555
N21_25 Co7_5 1_555 1_555
N22_25 Co7_5 1_555 1_555
N27_3 C34_23 1_555 1_555
N30_23 Co7_5 1_555 1_555
N35_25 C82_25 1_555 1_555
N36_25 C83_25 1_555 1_555
N37_23 C84_23 1_555 1_555
N40_25 C82_25 1_555 1_555
N41_25 C83_25 1_555 1_555
N42_23 C84_23 1_555 1_555
N45_25 C87_25 1_555 1_555
N46_25 C88_25 1_555 1_555
N47_23 C89_23 1_555 1_555
N51_20 Co10_20 1_555 1_555
N52_23 C99_23 1_555 1_555
N56_20 Co10_20 1_555 1_555
S3_25 C27_25 1_555 1_555
C27_25 N11_25 1_555 1_555
C32_25 N21_25 1_555 1_555
C33_25 N22_25 1_555 1_555
C34_23 H19_23 1_555 1_555
H17_25 C32_25 1_555 1_555
H18_25 C33_25 1_555 1_555
C37_25 C32_25 1_555 1_555
C38_25 C33_25 1_555 1_555
C39_23 C34_23 1_555 1_555
C42_25 C37_25 1_555 1_555
C43_25 C38_25 1_555 1_555
C44_23 C39_23 1_555 1_555
H22_25 C42_25 1_555 1_555
H23_25 C43_25 1_555 1_555
H24_23 C44_23 1_555 1_555
C47_25 C42_25 1_555 1_555
C48_25 C43_25 1_555 1_555
C49_23 C44_23 1_555 1_555
H27_25 C47_25 1_555 1_555
H28_25 C48_25 1_555 1_555
H29_23 C49_23 1_555 1_555
C52_25 N21_25 1_555 1_555
C53_25 N22_25 1_555 1_555
C54_23 N27_3 1_555 1_555
H32_25 C52_25 1_555 1_555
H33_25 C53_25 1_555 1_555
H34_23 C54_23 1_555 1_555
C57_25 N34_2 1_555 1_555
C58_25 N34_12 1_555 1_555
C59_23 N30_23 1_555 1_555
H37_25 C57_25 1_555 1_555
H38_25 C58_25 1_555 1_555
H39_23 C59_23 1_555 1_555
C62_25 C57_25 1_555 1_555
C63_25 C58_25 1_555 1_555
C64_23 C59_23 1_555 1_555
H42_25 C62_25 1_555 1_555
H43_25 C63_25 1_555 1_555
H44_23 C64_23 1_555 1_555
C67_25 C62_25 1_555 1_555
C68_25 C63_25 1_555 1_555
C69_23 C64_23 1_555 1_555
H47_25 C67_25 1_555 1_555
H48_25 C68_25 1_555 1_555
H49_23 C69_23 1_555 1_555
C72_25 C67_25 1_555 1_555
C73_25 C68_25 1_555 1_555
C74_23 C69_23 1_555 1_555
C77_25 N34_2 1_555 1_555
C78_25 N34_12 1_555 1_555
C79_23 N30_23 1_555 1_555
H52_25 C77_25 1_555 1_555
H53_25 C78_25 1_555 1_555
H54_23 C79_23 1_555 1_555
C82_25 C72_25 1_555 1_555
C83_25 C73_25 1_555 1_555
C84_23 C74_23 1_555 1_555
C87_25 N40_25 1_555 1_555
C88_25 N41_25 1_555 1_555
C89_23 N42_23 1_555 1_555
C92_25 N35_25 1_555 1_555
C93_25 N36_25 1_555 1_555
C94_23 N37_23 1_555 1_555
C97_25 N55_4 1_555 1_555
C98_25 N51_20 1_555 1_555
C99_23 H59_23 1_555 1_555
H57_25 C97_25 1_555 1_555
H58_25 C98_25 1_555 1_555
C102_25 C97_25 1_555 1_555
C103_25 C98_25 1_555 1_555
C104_23 C99_23 1_555 1_555
H62_25 C102_25 1_555 1_555
H63_25 C103_25 1_555 1_555
H64_23 C104_23 1_555 1_555
C107_25 C102_25 1_555 1_555
C108_25 C103_25 1_555 1_555
C109_23 C104_23 1_555 1_555
H67_25 C107_25 1_555 1_555
H68_25 C108_25 1_555 1_555
H69_23 C109_23 1_555 1_555
C112_25 C92_25 1_555 1_555
C113_25 C93_25 1_555 1_555
C114_23 C94_23 1_555 1_555
C117_25 N55_4 1_555 1_555
C118_25 N51_20 1_555 1_555
C119_23 N52_23 1_555 1_555
H72_25 C117_25 1_555 1_555
H73_25 C118_25 1_555 1_555
H74_23 C119_23 1_555 1_555
N45_25 C92_25 1_555 1_555
N46_25 C93_25 1_555 1_555
N47_23 C94_23 1_555 1_555
C37_25 C87_25 1_555 1_555
C38_25 C88_25 1_555 1_555
C39_23 C89_23 1_555 1_555
C47_25 C52_25 1_555 1_555
C48_25 C53_25 1_555 1_555
C49_23 C54_23 1_555 1_555
C72_25 C77_25 1_555 1_555
C73_25 C78_25 1_555 1_555
C74_23 C79_23 1_555 1_555
C107_25 C112_25 1_555 1_555
C108_25 C113_25 1_555 1_555
C109_23 C114_23 1_555 1_555
C112_25 C117_25 1_555 1_555
C113_25 C118_25 1_555 1_555
C114_23 C119_23 1_555 1_555
Co7_13 N1_26 1_555 1_555
Co12_5 N2_22 1_555 1_555
N1_26 C1_26 1_555 1_555
N2_22 C26_22 1_555 1_555
S1_26 C1_26 1_555 1_555
S2_22 C26_22 1_555 1_555
Co9_18 N17_18 1_555 1_555
N11_26 Co7_13 1_555 1_555
N16_22 Co12_5 1_555 1_555
N17_18 C153_18 1_555 1_555
N18_18 Co9_18 1_555 1_555
N21_26 Co7_13 1_555 1_555
N22_26 Co7_13 1_555 1_555
N35_26 C82_26 1_555 1_555
N36_26 C83_26 1_555 1_555
N40_26 C82_26 1_555 1_555
N41_26 C83_26 1_555 1_555
N45_26 C87_26 1_555 1_555
N46_26 C88_26 1_555 1_555
N50_18 Co9_18 1_555 1_555
N55_18 Co9_18 1_555 1_555
N62_18 Co9_18 1_555 1_555
N63_18 Co9_18 1_555 1_555
S3_26 C27_26 1_555 1_555
S8_22 C152_22 1_555 1_555
S9_18 C153_18 1_555 1_555
S10_18 C154_18 1_555 1_555
C27_26 N11_26 1_555 1_555
C32_26 N21_26 1_555 1_555
C33_26 N22_26 1_555 1_555
H17_26 C32_26 1_555 1_555
H18_26 C33_26 1_555 1_555
C37_26 C32_26 1_555 1_555
C38_26 C33_26 1_555 1_555
C42_26 C37_26 1_555 1_555
C43_26 C38_26 1_555 1_555
H22_26 C42_26 1_555 1_555
H23_26 C43_26 1_555 1_555
C47_26 C42_26 1_555 1_555
C48_26 C43_26 1_555 1_555
H27_26 C47_26 1_555 1_555
H28_26 C48_26 1_555 1_555
C52_26 N21_26 1_555 1_555
C53_26 N22_26 1_555 1_555
H32_26 C52_26 1_555 1_555
H33_26 C53_26 1_555 1_555
C57_26 N33_15 1_555 1_555
C58_26 N34_11 1_555 1_555
H37_26 C57_26 1_555 1_555
H38_26 C58_26 1_555 1_555
C62_26 C57_26 1_555 1_555
C63_26 C58_26 1_555 1_555
H42_26 C62_26 1_555 1_555
H43_26 C63_26 1_555 1_555
C67_26 C62_26 1_555 1_555
C68_26 C63_26 1_555 1_555
H47_26 C67_26 1_555 1_555
H48_26 C68_26 1_555 1_555
C72_26 C67_26 1_555 1_555
C73_26 C68_26 1_555 1_555
C77_26 N33_15 1_555 1_555
C78_26 N34_11 1_555 1_555
H52_26 C77_26 1_555 1_555
H53_26 C78_26 1_555 1_555
C82_26 C72_26 1_555 1_555
C83_26 C73_26 1_555 1_555
C87_26 N40_26 1_555 1_555
C88_26 N41_26 1_555 1_555
C92_26 N35_26 1_555 1_555
C93_26 N36_26 1_555 1_555
C97_26 N50_18 1_555 1_555
C98_26 N55_15 1_555 1_555
H57_26 C97_26 1_555 1_555
H58_26 C98_26 1_555 1_555
C102_26 C97_26 1_555 1_555
C103_26 C98_26 1_555 1_555
H62_26 C102_26 1_555 1_555
H63_26 C103_26 1_555 1_555
C107_26 C102_26 1_555 1_555
C108_26 C103_26 1_555 1_555
H67_26 C107_26 1_555 1_555
H68_26 C108_26 1_555 1_555
C112_26 C92_26 1_555 1_555
C113_26 C93_26 1_555 1_555
C117_26 N50_18 1_555 1_555
C118_26 N55_15 1_555 1_555
H72_26 C117_26 1_555 1_555
H73_26 C118_26 1_555 1_555
C152_22 N16_22 1_555 1_555
C154_18 N18_18 1_555 1_555
N45_26 C92_26 1_555 1_555
N46_26 C93_26 1_555 1_555
C37_26 C87_26 1_555 1_555
C38_26 C88_26 1_555 1_555
C47_26 C52_26 1_555 1_555
C48_26 C53_26 1_555 1_555
C72_26 C77_26 1_555 1_555
C73_26 C78_26 1_555 1_555
C107_26 C112_26 1_555 1_555
C108_26 C113_26 1_555 1_555
C112_26 C117_26 1_555 1_555
C113_26 C118_26 1_555 1_555
Co13_10 N2_23 1_555 1_555
N2_23 C26_23 1_555 1_555
N9_13 Co13_10 1_555 1_555
N10_13 C25_13 1_555 1_555
S2_23 C26_23 1_555 1_555
C20_13 N9_13 1_555 1_555
H13_13 C20_13 1_555 1_555
C21_13 C20_13 1_555 1_555
H14_13 C21_13 1_555 1_555
C22_13 C21_13 1_555 1_555
H15_13 C22_13 1_555 1_555
C23_13 C22_13 1_555 1_555
C24_13 N9_13 1_555 1_555
H16_13 C24_13 1_555 1_555
C25_13 C23_13 1_555 1_555
Co7_14 N31_17 1_555 1_555
Co12_6 N58_13 1_555 1_555
Co16_3 N60_13 1_555 1_555
Co13_5 N61_13 1_555 1_555
N16_23 Co13_10 1_555 1_555
N31_17 C60_17 1_555 1_555
N38_17 C85_17 1_555 1_555
N43_17 C85_17 1_555 1_555
N48_17 C90_17 1_555 1_555
N53_17 Co13_10 1_555 1_555
N57_13 C122_13 1_555 1_555
N58_13 C123_13 1_555 1_555
N59_13 Co13_10 1_555 1_555
N60_13 C125_13 1_555 1_555
N61_13 C126_13 1_555 1_555
N66_13 C147_13 1_555 1_555
N67_13 C25_13 1_555 1_555
N68_13 C149_13 1_555 1_555
N69_13 C150_13 1_555 1_555
N70_13 C149_13 1_555 1_555
S8_23 C152_23 1_555 1_555
C35_17 N27_9 1_555 1_555
H20_17 C35_17 1_555 1_555
C40_17 C35_17 1_555 1_555
C45_17 C40_17 1_555 1_555
H25_17 C45_17 1_555 1_555
C50_17 C45_17 1_555 1_555
H30_17 C50_17 1_555 1_555
C55_17 N27_9 1_555 1_555
H35_17 C55_17 1_555 1_555
C60_17 H40_17 1_555 1_555
C65_17 C60_17 1_555 1_555
H45_17 C65_17 1_555 1_555
C70_17 C65_17 1_555 1_555
H50_17 C70_17 1_555 1_555
C75_17 C70_17 1_555 1_555
C80_17 N31_17 1_555 1_555
H55_17 C80_17 1_555 1_555
C85_17 C75_17 1_555 1_555
C90_17 N43_17 1_555 1_555
C95_17 N38_17 1_555 1_555
C100_17 N53_17 1_555 1_555
H60_17 C100_17 1_555 1_555
C105_17 C100_17 1_555 1_555
H65_17 C105_17 1_555 1_555
C110_17 C105_17 1_555 1_555
H70_17 C110_17 1_555 1_555
C115_17 C95_17 1_555 1_555
C120_17 N53_17 1_555 1_555
H75_17 C120_17 1_555 1_555
C122_13 H77_13 1_555 1_555
C123_13 H78_13 1_555 1_555
C124_13 N59_13 1_555 1_555
C125_13 H80_13 1_555 1_555
C126_13 H81_13 1_555 1_555
H79_13 C124_13 1_555 1_555
C127_13 C122_13 1_555 1_555
C128_13 C123_13 1_555 1_555
C129_13 C124_13 1_555 1_555
C130_13 C125_13 1_555 1_555
C131_13 C126_13 1_555 1_555
H82_13 C127_13 1_555 1_555
H83_13 C128_13 1_555 1_555
H84_13 C129_13 1_555 1_555
H85_13 C130_13 1_555 1_555
H86_13 C131_13 1_555 1_555
C132_13 C127_13 1_555 1_555
C133_13 C128_13 1_555 1_555
C134_13 C129_13 1_555 1_555
C135_13 C130_13 1_555 1_555
C136_13 C131_13 1_555 1_555
H87_13 C132_13 1_555 1_555
H88_13 C133_13 1_555 1_555
H89_13 C134_13 1_555 1_555
H90_13 C135_13 1_555 1_555
H91_13 C136_13 1_555 1_555
C137_13 C132_13 1_555 1_555
C138_13 C133_13 1_555 1_555
C139_13 C134_13 1_555 1_555
C140_13 C135_13 1_555 1_555
C141_13 C136_13 1_555 1_555
C142_13 N57_13 1_555 1_555
C143_13 N58_13 1_555 1_555
C144_13 N59_13 1_555 1_555
C145_13 N60_13 1_555 1_555
C146_13 N61_13 1_555 1_555
H92_13 C142_13 1_555 1_555
H93_13 C143_13 1_555 1_555
H94_13 C144_13 1_555 1_555
H95_13 C145_13 1_555 1_555
H96_13 C146_13 1_555 1_555
C147_13 N10_13 1_555 1_555
C148_13 N66_13 1_555 1_555
C149_13 C139_13 1_555 1_555
C150_13 N68_13 1_555 1_555
C151_13 N69_13 1_555 1_555
C152_23 N16_23 1_555 1_555
C23_13 C24_13 1_555 1_555
N48_17 C95_17 1_555 1_555
N67_13 C148_13 1_555 1_555
N70_13 C151_13 1_555 1_555
C40_17 C90_17 1_555 1_555
C50_17 C55_17 1_555 1_555
C75_17 C80_17 1_555 1_555
C110_17 C115_17 1_555 1_555
C115_17 C120_17 1_555 1_555
C137_13 C142_13 1_555 1_555
C137_13 C148_13 1_555 1_555
C138_13 C143_13 1_555 1_555
C138_13 C147_13 1_555 1_555
C139_13 C144_13 1_555 1_555
C140_13 C145_13 1_555 1_555
C140_13 C151_13 1_555 1_555
C141_13 C146_13 1_555 1_555
C141_13 C150_13 1_555 1_555
Co8_16 N1_27 1_555 1_555
N1_27 C1_27 1_555 1_555
S1_27 C1_27 1_555 1_555
N22_27 Co8_16 1_555 1_555
N36_27 C83_27 1_555 1_555
N41_27 C83_27 1_555 1_555
N46_27 C88_27 1_555 1_555
C33_27 N22_27 1_555 1_555
H18_27 C33_27 1_555 1_555
C38_27 C33_27 1_555 1_555
C43_27 C38_27 1_555 1_555
H23_27 C43_27 1_555 1_555
C48_27 C43_27 1_555 1_555
H28_27 C48_27 1_555 1_555
C53_27 N22_27 1_555 1_555
H33_27 C53_27 1_555 1_555
C58_27 N34 1_555 1_555
H38_27 C58_27 1_555 1_555
C63_27 C58_27 1_555 1_555
H43_27 C63_27 1_555 1_555
C68_27 C63_27 1_555 1_555
H48_27 C68_27 1_555 1_555
C73_27 C68_27 1_555 1_555
C78_27 N34 1_555 1_555
H53_27 C78_27 1_555 1_555
C83_27 C73_27 1_555 1_555
C88_27 N41_27 1_555 1_555
C93_27 N36_27 1_555 1_555
C98_27 N55_16 1_555 1_555
H58_27 C98_27 1_555 1_555
C103_27 C98_27 1_555 1_555
H63_27 C103_27 1_555 1_555
C108_27 C103_27 1_555 1_555
H68_27 C108_27 1_555 1_555
C113_27 C93_27 1_555 1_555
C118_27 N55_16 1_555 1_555
H73_27 C118_27 1_555 1_555
N46_27 C93_27 1_555 1_555
C38_27 C88_27 1_555 1_555
C48_27 C53_27 1_555 1_555
C73_27 C78_27 1_555 1_555
C108_27 C113_27 1_555 1_555
C113_27 C118_27 1_555 1_555
Co15_4 N2_24 1_555 1_555
N2_24 C26_24 1_555 1_555
S2_24 C26_24 1_555 1_555
Co3_15 N12_21 1_555 1_555
Co8_4 N31_18 1_555 1_555
Co8_20 N32_20 1_555 1_555
Co9_19 N17_19 1_555 1_555
Co12_6 N54_20 1_555 1_555
N11_27 Co8_17 1_555 1_555
N12_21 C28_21 1_555 1_555
N13_21 Co3_15 1_555 1_555
N16_24 Co15_4 1_555 1_555
N17_19 C153_19 1_555 1_555
N18_19 Co9_19 1_555 1_555
N21_27 Co8_17 1_555 1_555
N24_16 Co3_15 1_555 1_555
N25_17 Co3_15 1_555 1_555
N28_21 Co3_15 1_555 1_555
N31_18 C60_18 1_555 1_555
N32_20 C61_20 1_555 1_555
N33_21 Co3_15 1_555 1_555
N35_27 C82_27 1_555 1_555
N38_18 C85_18 1_555 1_555
N39_20 C86_20 1_555 1_555
N40_27 C82_27 1_555 1_555
N43_18 C85_18 1_555 1_555
N44_20 C86_20 1_555 1_555
N45_27 C87_27 1_555 1_555
N48_18 C90_18 1_555 1_555
N49_20 C91_20 1_555 1_555
N50_19 Co9_19 1_555 1_555
N53_18 Co15_4 1_555 1_555
N54_20 C101_20 1_555 1_555
N55_19 Co9_19 1_555 1_555
N62_19 Co9_19 1_555 1_555
N63_19 Co9_19 1_555 1_555
S3_27 C27_27 1_555 1_555
S4_21 C28_21 1_555 1_555
S5_21 C29_21 1_555 1_555
S8_24 C152_24 1_555 1_555
S9_19 C153_19 1_555 1_555
S10_19 C154_19 1_555 1_555
C27_27 N11_27 1_555 1_555
C29_21 N13_21 1_555 1_555
C32_27 N21_27 1_555 1_555
C35_18 N24_16 1_555 1_555
C36_20 N25_17 1_555 1_555
H17_27 C32_27 1_555 1_555
H20_18 C35_18 1_555 1_555
H21_20 C36_20 1_555 1_555
C37_27 C32_27 1_555 1_555
C40_18 C35_18 1_555 1_555
C41_20 C36_20 1_555 1_555
C42_27 C37_27 1_555 1_555
C45_18 C40_18 1_555 1_555
C46_20 C41_20 1_555 1_555
H22_27 C42_27 1_555 1_555
H25_18 C45_18 1_555 1_555
H26_20 C46_20 1_555 1_555
C47_27 C42_27 1_555 1_555
C50_18 C45_18 1_555 1_555
C51_20 C46_20 1_555 1_555
H27_27 C47_27 1_555 1_555
H30_18 C50_18 1_555 1_555
H31_20 C51_20 1_555 1_555
C52_27 N21_27 1_555 1_555
C55_18 N24_16 1_555 1_555
C56_20 N25_17 1_555 1_555
H32_27 C52_27 1_555 1_555
H35_18 C55_18 1_555 1_555
H36_20 C56_20 1_555 1_555
C57_27 N28_21 1_555 1_555
C60_18 H40_18 1_555 1_555
C61_20 H41_20 1_555 1_555
H37_27 C57_27 1_555 1_555
C62_27 C57_27 1_555 1_555
C65_18 C60_18 1_555 1_555
C66_20 C61_20 1_555 1_555
H42_27 C62_27 1_555 1_555
H45_18 C65_18 1_555 1_555
H46_20 C66_20 1_555 1_555
C67_27 C62_27 1_555 1_555
C70_18 C65_18 1_555 1_555
C71_20 C66_20 1_555 1_555
H47_27 C67_27 1_555 1_555
H50_18 C70_18 1_555 1_555
H51_20 C71_20 1_555 1_555
C72_27 C67_27 1_555 1_555
C75_18 C70_18 1_555 1_555
C76_20 C71_20 1_555 1_555
C77_27 N28_21 1_555 1_555
C80_18 N31_18 1_555 1_555
C81_20 N32_20 1_555 1_555
H52_27 C77_27 1_555 1_555
H55_18 C80_18 1_555 1_555
H56_20 C81_20 1_555 1_555
C82_27 C72_27 1_555 1_555
C85_18 C75_18 1_555 1_555
C86_20 C76_20 1_555 1_555
C87_27 N40_27 1_555 1_555
C90_18 N43_18 1_555 1_555
C91_20 N44_20 1_555 1_555
C92_27 N35_27 1_555 1_555
C95_18 N38_18 1_555 1_555
C96_20 N39_20 1_555 1_555
C97_27 N50_19 1_555 1_555
C100_18 N53_18 1_555 1_555
C101_20 H61_20 1_555 1_555
H57_27 C97_27 1_555 1_555
H60_18 C100_18 1_555 1_555
C102_27 C97_27 1_555 1_555
C105_18 C100_18 1_555 1_555
C106_20 C101_20 1_555 1_555
H62_27 C102_27 1_555 1_555
H65_18 C105_18 1_555 1_555
H66_20 C106_20 1_555 1_555
C107_27 C102_27 1_555 1_555
C110_18 C105_18 1_555 1_555
C111_20 C106_20 1_555 1_555
H67_27 C107_27 1_555 1_555
H70_18 C110_18 1_555 1_555
H71_20 C111_20 1_555 1_555
C112_27 C92_27 1_555 1_555
C115_18 C95_18 1_555 1_555
C116_20 C96_20 1_555 1_555
C117_27 N50_19 1_555 1_555
C120_18 N53_18 1_555 1_555
C121_20 N54_20 1_555 1_555
H72_27 C117_27 1_555 1_555
H75_18 C120_18 1_555 1_555
H76_20 C121_20 1_555 1_555
C152_24 N16_24 1_555 1_555
C154_19 N18_19 1_555 1_555
N45_27 C92_27 1_555 1_555
N48_18 C95_18 1_555 1_555
N49_20 C96_20 1_555 1_555
C37_27 C87_27 1_555 1_555
C40_18 C90_18 1_555 1_555
C41_20 C91_20 1_555 1_555
C47_27 C52_27 1_555 1_555
C50_18 C55_18 1_555 1_555
C51_20 C56_20 1_555 1_555
C72_27 C77_27 1_555 1_555
C75_18 C80_18 1_555 1_555
C76_20 C81_20 1_555 1_555
C107_27 C112_27 1_555 1_555
C110_18 C115_18 1_555 1_555
C111_20 C116_20 1_555 1_555
C112_27 C117_27 1_555 1_555
C115_18 C120_18 1_555 1_555
C116_20 C121_20 1_555 1_555
Co14_6 N2_25 1_555 1_555
N2_25 C26_25 1_555 1_555
S2_25 C26_25 1_555 1_555
Co7_16 N31_19 1_555 1_555
N16_25 Co14_6 1_555 1_555
N31_19 C60_19 1_555 1_555
N38_19 C85_19 1_555 1_555
N43_19 C85_19 1_555 1_555
N48_19 C90_19 1_555 1_555
N53_19 Co14_6 1_555 1_555
S8_25 C152_25 1_555 1_555
C35_19 N26_13 1_555 1_555
H20_19 C35_19 1_555 1_555
C40_19 C35_19 1_555 1_555
C45_19 C40_19 1_555 1_555
H25_19 C45_19 1_555 1_555
C50_19 C45_19 1_555 1_555
H30_19 C50_19 1_555 1_555
C55_19 N26_13 1_555 1_555
H35_19 C55_19 1_555 1_555
C60_19 H40_19 1_555 1_555
C65_19 C60_19 1_555 1_555
H45_19 C65_19 1_555 1_555
C70_19 C65_19 1_555 1_555
H50_19 C70_19 1_555 1_555
C75_19 C70_19 1_555 1_555
C80_19 N31_19 1_555 1_555
H55_19 C80_19 1_555 1_555
C85_19 C75_19 1_555 1_555
C90_19 N43_19 1_555 1_555
C95_19 N38_19 1_555 1_555
C100_19 N53_19 1_555 1_555
H60_19 C100_19 1_555 1_555
C105_19 C100_19 1_555 1_555
H65_19 C105_19 1_555 1_555
C110_19 C105_19 1_555 1_555
H70_19 C110_19 1_555 1_555
C115_19 C95_19 1_555 1_555
C120_19 N53_19 1_555 1_555
H75_19 C120_19 1_555 1_555
C152_25 N16_25 1_555 1_555
N48_19 C95_19 1_555 1_555
C40_19 C90_19 1_555 1_555
C50_19 C55_19 1_555 1_555
C75_19 C80_19 1_555 1_555
C110_19 C115_19 1_555 1_555
C115_19 C120_19 1_555 1_555
Co13 N2_26 1_555 1_555
N2_26 C26_26 1_555 1_555
S2_26 C26_26 1_555 1_555
N16_26 Co13 1_555 1_555
S8_26 C152_26 1_555 1_555
C152_26 N16_26 1_555 1_555
Co1_19 N1_28 1_555 1_555
Co14_2 N2_27 1_555 1_555
N1_28 C1_28 1_555 1_555
N2_27 C26_27 1_555 1_555
N3_11 C2_17 1_555 1_555
N4_17 Co1_19 1_555 1_555
N5_17 C12_17 1_555 1_555
N6_17 C12_17 1_555 1_555
N7_17 C13_17 1_555 1_555
N8_17 Co14_2 1_555 1_555
S1_28 C1_28 1_555 1_555
S2_27 C26_27 1_555 1_555
C2_17 H1_17 1_555 1_555
C3_17 C2_17 1_555 1_555
C4_17 C3_17 1_555 1_555
H2_17 C4_17 1_555 1_555
C5_17 C4_17 1_555 1_555
H3_17 C5_17 1_555 1_555
C6_17 N3_11 1_555 1_555
H4_17 C6_17 1_555 1_555
C7_17 N4_17 1_555 1_555
H5_17 C7_17 1_555 1_555
C8_17 C7_17 1_555 1_555
H6_17 C8_17 1_555 1_555
C9_17 C8_17 1_555 1_555
H7_17 C9_17 1_555 1_555
C10_17 C9_17 1_555 1_555
C11_17 N4_17 1_555 1_555
H8_17 C11_17 1_555 1_555
C12_17 C10_17 1_555 1_555
C13_17 N6_17 1_555 1_555
C14_17 N5_17 1_555 1_555
C15_17 N8_17 1_555 1_555
H9_17 C15_17 1_555 1_555
C16_17 C15_17 1_555 1_555
H10_17 C16_17 1_555 1_555
C17_17 C16_17 1_555 1_555
H11_17 C17_17 1_555 1_555
C18_17 C14_17 1_555 1_555
C19_17 N8_17 1_555 1_555
H12_17 C19_17 1_555 1_555
Co6_21 N12_22 1_555 1_555
Co6_2 N3_11 1_555 1_555
Co7_17 N31_20 1_555 1_555
Co9_20 N17_20 1_555 1_555
Co13_8 N52_24 1_555 1_555
N11_28 Co1_19 1_555 1_555
N12_22 C28_22 1_555 1_555
N13_22 Co6_21 1_555 1_555
N16_27 Co14_2 1_555 1_555
N17_20 C153_20 1_555 1_555
N18_20 Co9_20 1_555 1_555
N21_28 Co1_19 1_555 1_555
N22_28 Co1_19 1_555 1_555
N26_11 C34_24 1_555 1_555
N24_17 Co6_21 1_555 1_555
N28_22 Co6_21 1_555 1_555
N30_24 Co1_19 1_555 1_555
N31_20 C60_20 1_555 1_555
N33_22 Co6_21 1_555 1_555
N35_28 C82_28 1_555 1_555
N36_28 C83_28 1_555 1_555
N37_24 C84_24 1_555 1_555
N38_20 C85_20 1_555 1_555
N40_28 C82_28 1_555 1_555
N41_28 C83_28 1_555 1_555
N42_24 C84_24 1_555 1_555
N43_20 C85_20 1_555 1_555
N45_28 C87_28 1_555 1_555
N46_28 C88_28 1_555 1_555
N47_24 C89_24 1_555 1_555
N48_20 C90_20 1_555 1_555
N50_20 Co9_20 1_555 1_555
N52_24 C99_24 1_555 1_555
N53_20 Co14_2 1_555 1_555
N55_20 Co9_20 1_555 1_555
N62_20 Co9_20 1_555 1_555
N63_20 Co9_20 1_555 1_555
S3_28 C27_28 1_555 1_555
S4_22 C28_22 1_555 1_555
S5_22 C29_22 1_555 1_555
S8_27 C152_27 1_555 1_555
S9_20 C153_20 1_555 1_555
S10_20 C154_20 1_555 1_555
C27_28 N11_28 1_555 1_555
C29_22 N13_22 1_555 1_555
C32_28 N21_28 1_555 1_555
C33_28 N22_28 1_555 1_555
C34_24 H19_24 1_555 1_555
C35_20 N24_17 1_555 1_555
H17_28 C32_28 1_555 1_555
H18_28 C33_28 1_555 1_555
H20_20 C35_20 1_555 1_555
C37_28 C32_28 1_555 1_555
C38_28 C33_28 1_555 1_555
C39_24 C34_24 1_555 1_555
C40_20 C35_20 1_555 1_555
C42_28 C37_28 1_555 1_555
C43_28 C38_28 1_555 1_555
C44_24 C39_24 1_555 1_555
C45_20 C40_20 1_555 1_555
H22_28 C42_28 1_555 1_555
H23_28 C43_28 1_555 1_555
H24_24 C44_24 1_555 1_555
H25_20 C45_20 1_555 1_555
C47_28 C42_28 1_555 1_555
C48_28 C43_28 1_555 1_555
C49_24 C44_24 1_555 1_555
C50_20 C45_20 1_555 1_555
H27_28 C47_28 1_555 1_555
H28_28 C48_28 1_555 1_555
H29_24 C49_24 1_555 1_555
H30_20 C50_20 1_555 1_555
C52_28 N21_28 1_555 1_555
C53_28 N22_28 1_555 1_555
C54_24 N26_11 1_555 1_555
C55_20 N24_17 1_555 1_555
H32_28 C52_28 1_555 1_555
H33_28 C53_28 1_555 1_555
H34_24 C54_24 1_555 1_555
H35_20 C55_20 1_555 1_555
C57_28 N28_22 1_555 1_555
C58_28 N34_15 1_555 1_555
C59_24 N30_24 1_555 1_555
C60_20 H40_20 1_555 1_555
H37_28 C57_28 1_555 1_555
H38_28 C58_28 1_555 1_555
H39_24 C59_24 1_555 1_555
C62_28 C57_28 1_555 1_555
C63_28 C58_28 1_555 1_555
C64_24 C59_24 1_555 1_555
C65_20 C60_20 1_555 1_555
H42_28 C62_28 1_555 1_555
H43_28 C63_28 1_555 1_555
H44_24 C64_24 1_555 1_555
H45_20 C65_20 1_555 1_555
C67_28 C62_28 1_555 1_555
C68_28 C63_28 1_555 1_555
C69_24 C64_24 1_555 1_555
C70_20 C65_20 1_555 1_555
H47_28 C67_28 1_555 1_555
H48_28 C68_28 1_555 1_555
H49_24 C69_24 1_555 1_555
H50_20 C70_20 1_555 1_555
C72_28 C67_28 1_555 1_555
C73_28 C68_28 1_555 1_555
C74_24 C69_24 1_555 1_555
C75_20 C70_20 1_555 1_555
C77_28 N28_22 1_555 1_555
C78_28 N34_15 1_555 1_555
C79_24 N30_24 1_555 1_555
C80_20 N31_20 1_555 1_555
H52_28 C77_28 1_555 1_555
H53_28 C78_28 1_555 1_555
H54_24 C79_24 1_555 1_555
H55_20 C80_20 1_555 1_555
C82_28 C72_28 1_555 1_555
C83_28 C73_28 1_555 1_555
C84_24 C74_24 1_555 1_555
C85_20 C75_20 1_555 1_555
C87_28 N40_28 1_555 1_555
C88_28 N41_28 1_555 1_555
C89_24 N42_24 1_555 1_555
C90_20 N43_20 1_555 1_555
C92_28 N35_28 1_555 1_555
C93_28 N36_28 1_555 1_555
C94_24 N37_24 1_555 1_555
C95_20 N38_20 1_555 1_555
C97_28 N50_20 1_555 1_555
C98_28 N56_13 1_555 1_555
C99_24 H59_24 1_555 1_555
C100_20 N53_20 1_555 1_555
H57_28 C97_28 1_555 1_555
H58_28 C98_28 1_555 1_555
H60_20 C100_20 1_555 1_555
C102_28 C97_28 1_555 1_555
C103_28 C98_28 1_555 1_555
C104_24 C99_24 1_555 1_555
C105_20 C100_20 1_555 1_555
H62_28 C102_28 1_555 1_555
H63_28 C103_28 1_555 1_555
H64_24 C104_24 1_555 1_555
H65_20 C105_20 1_555 1_555
C107_28 C102_28 1_555 1_555
C108_28 C103_28 1_555 1_555
C109_24 C104_24 1_555 1_555
C110_20 C105_20 1_555 1_555
H67_28 C107_28 1_555 1_555
H68_28 C108_28 1_555 1_555
H69_24 C109_24 1_555 1_555
H70_20 C110_20 1_555 1_555
C112_28 C92_28 1_555 1_555
C113_28 C93_28 1_555 1_555
C114_24 C94_24 1_555 1_555
C115_20 C95_20 1_555 1_555
C117_28 N50_20 1_555 1_555
C118_28 N56_13 1_555 1_555
C119_24 N52_24 1_555 1_555
C120_20 N53_20 1_555 1_555
H72_28 C117_28 1_555 1_555
H73_28 C118_28 1_555 1_555
H74_24 C119_24 1_555 1_555
H75_20 C120_20 1_555 1_555
C152_27 N16_27 1_555 1_555
C154_20 N18_20 1_555 1_555
N7_17 C14_17 1_555 1_555
C3_17 C13_17 1_555 1_555
C5_17 C6_17 1_555 1_555
C10_17 C11_17 1_555 1_555
C17_17 C18_17 1_555 1_555
C18_17 C19_17 1_555 1_555
N45_28 C92_28 1_555 1_555
N46_28 C93_28 1_555 1_555
N47_24 C94_24 1_555 1_555
N48_20 C95_20 1_555 1_555
C37_28 C87_28 1_555 1_555
C38_28 C88_28 1_555 1_555
C39_24 C89_24 1_555 1_555
C40_20 C90_20 1_555 1_555
C47_28 C52_28 1_555 1_555
C48_28 C53_28 1_555 1_555
C49_24 C54_24 1_555 1_555
C50_20 C55_20 1_555 1_555
C72_28 C77_28 1_555 1_555
C73_28 C78_28 1_555 1_555
C74_24 C79_24 1_555 1_555
C75_20 C80_20 1_555 1_555
C107_28 C112_28 1_555 1_555
C108_28 C113_28 1_555 1_555
C109_24 C114_24 1_555 1_555
C110_20 C115_20 1_555 1_555
C112_28 C117_28 1_555 1_555
C113_28 C118_28 1_555 1_555
C114_24 C119_24 1_555 1_555
C115_20 C120_20 1_555 1_555
Co13_5 N2_28 1_555 1_555
N2_28 C26_28 1_555 1_555
S2_28 C26_28 1_555 1_555
Co13_9 N60_14 1_555 1_555
N16_28 Co13_5 1_555 1_555
N59_14 Co13_5 1_555 1_555
N60_14 C125_14 1_555 1_555
N61_14 C126_14 1_555 1_555
N68_14 C149_14 1_555 1_555
N69_14 C150_14 1_555 1_555
N70_14 C149_14 1_555 1_555
S8_28 C152_28 1_555 1_555
C124_14 N59_14 1_555 1_555
C125_14 H80_14 1_555 1_555
C126_14 H81_14 1_555 1_555
H79_14 C124_14 1_555 1_555
C129_14 C124_14 1_555 1_555
C130_14 C125_14 1_555 1_555
C131_14 C126_14 1_555 1_555
H84_14 C129_14 1_555 1_555
H85_14 C130_14 1_555 1_555
H86_14 C131_14 1_555 1_555
C134_14 C129_14 1_555 1_555
C135_14 C130_14 1_555 1_555
C136_14 C131_14 1_555 1_555
H89_14 C134_14 1_555 1_555
H90_14 C135_14 1_555 1_555
H91_14 C136_14 1_555 1_555
C139_14 C134_14 1_555 1_555
C140_14 C135_14 1_555 1_555
C141_14 C136_14 1_555 1_555
C144_14 N59_14 1_555 1_555
C145_14 N60_14 1_555 1_555
C146_14 N61_14 1_555 1_555
H94_14 C144_14 1_555 1_555
H95_14 C145_14 1_555 1_555
H96_14 C146_14 1_555 1_555
C149_14 C139_14 1_555 1_555
C150_14 N68_14 1_555 1_555
C151_14 N69_14 1_555 1_555
C152_28 N16_28 1_555 1_555
N70_14 C151_14 1_555 1_555
C139_14 C144_14 1_555 1_555
C140_14 C145_14 1_555 1_555
C140_14 C151_14 1_555 1_555
C141_14 C146_14 1_555 1_555
C141_14 C150_14 1_555 1_555
Co8 N1_29 1_555 1_555
Co16 N2_29 1_555 1_555
N1_29 C1_29 1_555 1_555
S1_29 C1_29 1_555 1_555
Co6_17 N12_23 1_555 1_555
Co5_5 N14_17 1_555 1_555
Co7_18 N31_21 1_555 1_555
Co9_21 N17_21 1_555 1_555
N11_29 Co8 1_555 1_555
N12_23 C28_23 1_555 1_555
N13_23 Co6_17 1_555 1_555
N14_17 C30_17 1_555 1_555
N15_17 Co5_5 1_555 1_555
N16_29 Co16 1_555 1_555
N17_21 C153_21 1_555 1_555
N18_21 Co9_21 1_555 1_555
N21_29 Co8 1_555 1_555
N22_29 Co8 1_555 1_555
N24_18 Co6_17 1_555 1_555
N27_11 Co5_5 1_555 1_555
N28_23 Co6_17 1_555 1_555
N29_17 Co5_5 1_555 1_555
N31_21 C60_21 1_555 1_555
N33_23 Co6_17 1_555 1_555
N34_17 Co5_5 1_555 1_555
N35_29 C82_29 1_555 1_555
N36_29 C83_29 1_555 1_555
N38_21 C85_21 1_555 1_555
N40_29 C82_29 1_555 1_555
N41_29 C83_29 1_555 1_555
N43_21 C85_21 1_555 1_555
N45_29 C87_29 1_555 1_555
N46_29 C88_29 1_555 1_555
N48_21 C90_21 1_555 1_555
N50_21 Co9_21 1_555 1_555
N53_21 Co16 1_555 1_555
N55_21 Co9_21 1_555 1_555
N62_21 Co9_21 1_555 1_555
N63_21 Co9_21 1_555 1_555
S3_29 C27_29 1_555 1_555
S4_23 C28_23 1_555 1_555
S5_23 C29_23 1_555 1_555
S6_17 C30_17 1_555 1_555
S7_17 C31_17 1_555 1_555
S9_21 C153_21 1_555 1_555
S10_21 C154_21 1_555 1_555
C27_29 N11_29 1_555 1_555
C29_23 N13_23 1_555 1_555
C31_17 N15_17 1_555 1_555
C32_29 N21_29 1_555 1_555
C33_29 N22_29 1_555 1_555
C35_21 N24_18 1_555 1_555
H17_29 C32_29 1_555 1_555
H18_29 C33_29 1_555 1_555
H20_21 C35_21 1_555 1_555
C37_29 C32_29 1_555 1_555
C38_29 C33_29 1_555 1_555
C40_21 C35_21 1_555 1_555
C42_29 C37_29 1_555 1_555
C43_29 C38_29 1_555 1_555
C45_21 C40_21 1_555 1_555
H22_29 C42_29 1_555 1_555
H23_29 C43_29 1_555 1_555
H25_21 C45_21 1_555 1_555
C47_29 C42_29 1_555 1_555
C48_29 C43_29 1_555 1_555
C50_21 C45_21 1_555 1_555
H27_29 C47_29 1_555 1_555
H28_29 C48_29 1_555 1_555
H30_21 C50_21 1_555 1_555
C52_29 N21_29 1_555 1_555
C53_29 N22_29 1_555 1_555
C55_21 N24_18 1_555 1_555
H32_29 C52_29 1_555 1_555
H33_29 C53_29 1_555 1_555
H35_21 C55_21 1_555 1_555
C57_29 N28_23 1_555 1_555
C58_29 N29_17 1_555 1_555
C60_21 H40_21 1_555 1_555
H37_29 C57_29 1_555 1_555
H38_29 C58_29 1_555 1_555
C62_29 C57_29 1_555 1_555
C63_29 C58_29 1_555 1_555
C65_21 C60_21 1_555 1_555
H42_29 C62_29 1_555 1_555
H43_29 C63_29 1_555 1_555
H45_21 C65_21 1_555 1_555
C67_29 C62_29 1_555 1_555
C68_29 C63_29 1_555 1_555
C70_21 C65_21 1_555 1_555
H47_29 C67_29 1_555 1_555
H48_29 C68_29 1_555 1_555
H50_21 C70_21 1_555 1_555
C72_29 C67_29 1_555 1_555
C73_29 C68_29 1_555 1_555
C75_21 C70_21 1_555 1_555
C77_29 N28_23 1_555 1_555
C78_29 N29_17 1_555 1_555
C80_21 N31_21 1_555 1_555
H52_29 C77_29 1_555 1_555
H53_29 C78_29 1_555 1_555
H55_21 C80_21 1_555 1_555
C82_29 C72_29 1_555 1_555
C83_29 C73_29 1_555 1_555
C85_21 C75_21 1_555 1_555
C87_29 N40_29 1_555 1_555
C88_29 N41_29 1_555 1_555
C90_21 N43_21 1_555 1_555
C92_29 N35_29 1_555 1_555
C93_29 N36_29 1_555 1_555
C95_21 N38_21 1_555 1_555
C97_29 N50_21 1_555 1_555
C98_29 N55_6 1_555 1_555
C100_21 N53_21 1_555 1_555
H57_29 C97_29 1_555 1_555
H58_29 C98_29 1_555 1_555
H60_21 C100_21 1_555 1_555
C102_29 C97_29 1_555 1_555
C103_29 C98_29 1_555 1_555
C105_21 C100_21 1_555 1_555
H62_29 C102_29 1_555 1_555
H63_29 C103_29 1_555 1_555
H65_21 C105_21 1_555 1_555
C107_29 C102_29 1_555 1_555
C108_29 C103_29 1_555 1_555
C110_21 C105_21 1_555 1_555
H67_29 C107_29 1_555 1_555
H68_29 C108_29 1_555 1_555
H70_21 C110_21 1_555 1_555
C112_29 C92_29 1_555 1_555
C113_29 C93_29 1_555 1_555
C115_21 C95_21 1_555 1_555
C117_29 N50_21 1_555 1_555
C118_29 N55_6 1_555 1_555
C120_21 N53_21 1_555 1_555
H72_29 C117_29 1_555 1_555
H73_29 C118_29 1_555 1_555
H75_21 C120_21 1_555 1_555
C154_21 N18_21 1_555 1_555
N45_29 C92_29 1_555 1_555
N46_29 C93_29 1_555 1_555
N48_21 C95_21 1_555 1_555
C37_29 C87_29 1_555 1_555
C38_29 C88_29 1_555 1_555
C40_21 C90_21 1_555 1_555
C47_29 C52_29 1_555 1_555
C48_29 C53_29 1_555 1_555
C50_21 C55_21 1_555 1_555
C72_29 C77_29 1_555 1_555
C73_29 C78_29 1_555 1_555
C75_21 C80_21 1_555 1_555
C107_29 C112_29 1_555 1_555
C108_29 C113_29 1_555 1_555
C110_21 C115_21 1_555 1_555
C112_29 C117_29 1_555 1_555
C113_29 C118_29 1_555 1_555
C115_21 C120_21 1_555 1_555
S2_29 C26_29 1_555 1_555
S8_29 C152_29 1_555 1_555
S2_30 C26_30 1_555 1_555
S8_30 C152_30 1_555 1_555
Co8_11 N1_30 1_555 1_555
Co16_6 N2_30 1_555 1_555
N1_30 C1_30 1_555 1_555
S1_30 C1_30 1_555 1_555
Co6_16 N12_24 1_555 1_555
Co5_11 N14_18 1_555 1_555
Co6_23 N23_17 1_555 1_555
Co7_15 N32_21 1_555 1_555
Co10_21 N19_21 1_555 1_555
Co15_5 N52_25 1_555 1_555
Co12_3 N54_21 1_555 1_555
N11_30 Co8_11 1_555 1_555
N12_24 C28_24 1_555 1_555
N13_24 Co6_16 1_555 1_555
N14_18 C30_18 1_555 1_555
N15_18 Co5_11 1_555 1_555
N16_30 Co16_6 1_555 1_555
N19_21 C155_21 1_555 1_555
N20_21 Co10_21 1_555 1_555
N21_30 Co8_11 1_555 1_555
N22_30 Co8_11 1_555 1_555
N23_17 C34_25 1_555 1_555
N25_18 Co6_16 1_555 1_555
N26_14 Co5_11 1_555 1_555
N28_24 Co6_16 1_555 1_555
N29_18 Co5_11 1_555 1_555
N30_25 Co8_11 1_555 1_555
N32_21 C61_21 1_555 1_555
N33_24 Co6_16 1_555 1_555
N34_18 Co5_11 1_555 1_555
N35_30 C82_30 1_555 1_555
N36_30 C83_30 1_555 1_555
N37_25 C84_25 1_555 1_555
N39_21 C86_21 1_555 1_555
N40_30 C82_30 1_555 1_555
N41_30 C83_30 1_555 1_555
N42_25 C84_25 1_555 1_555
N44_21 C86_21 1_555 1_555
N45_30 C87_30 1_555 1_555
N46_30 C88_30 1_555 1_555
N47_25 C89_25 1_555 1_555
N49_21 C91_21 1_555 1_555
N51_21 Co10_21 1_555 1_555
N52_25 C99_25 1_555 1_555
N54_21 C101_21 1_555 1_555
N56_21 Co10_21 1_555 1_555
N64_21 Co10_21 1_555 1_555
N65_21 Co10_21 1_555 1_555
S3_30 C27_30 1_555 1_555
S4_24 C28_24 1_555 1_555
S5_24 C29_24 1_555 1_555
S6_18 C30_18 1_555 1_555
S7_18 C31_18 1_555 1_555
S11_21 C155_21 1_555 1_555
S12_21 C156_21 1_555 1_555
C27_30 N11_30 1_555 1_555
C29_24 N13_24 1_555 1_555
C31_18 N15_18 1_555 1_555
C32_30 N21_30 1_555 1_555
C33_30 N22_30 1_555 1_555
C34_25 H19_25 1_555 1_555
C36_21 N25_18 1_555 1_555
H17_30 C32_30 1_555 1_555
H18_30 C33_30 1_555 1_555
H21_21 C36_21 1_555 1_555
C37_30 C32_30 1_555 1_555
C38_30 C33_30 1_555 1_555
C39_25 C34_25 1_555 1_555
C41_21 C36_21 1_555 1_555
C42_30 C37_30 1_555 1_555
C43_30 C38_30 1_555 1_555
C44_25 C39_25 1_555 1_555
C46_21 C41_21 1_555 1_555
H22_30 C42_30 1_555 1_555
H23_30 C43_30 1_555 1_555
H24_25 C44_25 1_555 1_555
H26_21 C46_21 1_555 1_555
C47_30 C42_30 1_555 1_555
C48_30 C43_30 1_555 1_555
C49_25 C44_25 1_555 1_555
C51_21 C46_21 1_555 1_555
H27_30 C47_30 1_555 1_555
H28_30 C48_30 1_555 1_555
H29_25 C49_25 1_555 1_555
H31_21 C51_21 1_555 1_555
C52_30 N21_30 1_555 1_555
C53_30 N22_30 1_555 1_555
C54_25 N23_17 1_555 1_555
C56_21 N25_18 1_555 1_555
H32_30 C52_30 1_555 1_555
H33_30 C53_30 1_555 1_555
H34_25 C54_25 1_555 1_555
H36_21 C56_21 1_555 1_555
C57_30 N28_24 1_555 1_555
C58_30 N29_18 1_555 1_555
C59_25 N30_25 1_555 1_555
C61_21 H41_21 1_555 1_555
H37_30 C57_30 1_555 1_555
H38_30 C58_30 1_555 1_555
H39_25 C59_25 1_555 1_555
C62_30 C57_30 1_555 1_555
C63_30 C58_30 1_555 1_555
C64_25 C59_25 1_555 1_555
C66_21 C61_21 1_555 1_555
H42_30 C62_30 1_555 1_555
H43_30 C63_30 1_555 1_555
H44_25 C64_25 1_555 1_555
H46_21 C66_21 1_555 1_555
C67_30 C62_30 1_555 1_555
C68_30 C63_30 1_555 1_555
C69_25 C64_25 1_555 1_555
C71_21 C66_21 1_555 1_555
H47_30 C67_30 1_555 1_555
H48_30 C68_30 1_555 1_555
H49_25 C69_25 1_555 1_555
H51_21 C71_21 1_555 1_555
C72_30 C67_30 1_555 1_555
C73_30 C68_30 1_555 1_555
C74_25 C69_25 1_555 1_555
C76_21 C71_21 1_555 1_555
C77_30 N28_24 1_555 1_555
C78_30 N29_18 1_555 1_555
C79_25 N30_25 1_555 1_555
C81_21 N32_21 1_555 1_555
H52_30 C77_30 1_555 1_555
H53_30 C78_30 1_555 1_555
H54_25 C79_25 1_555 1_555
H56_21 C81_21 1_555 1_555
C82_30 C72_30 1_555 1_555
C83_30 C73_30 1_555 1_555
C84_25 C74_25 1_555 1_555
C86_21 C76_21 1_555 1_555
C87_30 N40_30 1_555 1_555
C88_30 N41_30 1_555 1_555
C89_25 N42_25 1_555 1_555
C91_21 N44_21 1_555 1_555
C92_30 N35_30 1_555 1_555
C93_30 N36_30 1_555 1_555
C94_25 N37_25 1_555 1_555
C96_21 N39_21 1_555 1_555
C97_30 N56_14 1_555 1_555
C98_30 N51_21 1_555 1_555
C99_25 H59_25 1_555 1_555
C101_21 H61_21 1_555 1_555
H57_30 C97_30 1_555 1_555
H58_30 C98_30 1_555 1_555
C102_30 C97_30 1_555 1_555
C103_30 C98_30 1_555 1_555
C104_25 C99_25 1_555 1_555
C106_21 C101_21 1_555 1_555
H62_30 C102_30 1_555 1_555
H63_30 C103_30 1_555 1_555
H64_25 C104_25 1_555 1_555
H66_21 C106_21 1_555 1_555
C107_30 C102_30 1_555 1_555
C108_30 C103_30 1_555 1_555
C109_25 C104_25 1_555 1_555
C111_21 C106_21 1_555 1_555
H67_30 C107_30 1_555 1_555
H68_30 C108_30 1_555 1_555
H69_25 C109_25 1_555 1_555
H71_21 C111_21 1_555 1_555
C112_30 C92_30 1_555 1_555
C113_30 C93_30 1_555 1_555
C114_25 C94_25 1_555 1_555
C116_21 C96_21 1_555 1_555
C117_30 N56_14 1_555 1_555
C118_30 N51_21 1_555 1_555
C119_25 N52_25 1_555 1_555
C121_21 N54_21 1_555 1_555
H72_30 C117_30 1_555 1_555
H73_30 C118_30 1_555 1_555
H74_25 C119_25 1_555 1_555
H76_21 C121_21 1_555 1_555
C156_21 N20_21 1_555 1_555
N45_30 C92_30 1_555 1_555
N46_30 C93_30 1_555 1_555
N47_25 C94_25 1_555 1_555
N49_21 C96_21 1_555 1_555
C37_30 C87_30 1_555 1_555
C38_30 C88_30 1_555 1_555
C39_25 C89_25 1_555 1_555
C41_21 C91_21 1_555 1_555
C47_30 C52_30 1_555 1_555
C48_30 C53_30 1_555 1_555
C49_25 C54_25 1_555 1_555
C51_21 C56_21 1_555 1_555
C72_30 C77_30 1_555 1_555
C73_30 C78_30 1_555 1_555
C74_25 C79_25 1_555 1_555
C76_21 C81_21 1_555 1_555
C107_30 C112_30 1_555 1_555
C108_30 C113_30 1_555 1_555
C109_25 C114_25 1_555 1_555
C111_21 C116_21 1_555 1_555
C112_30 C117_30 1_555 1_555
C113_30 C118_30 1_555 1_555
C114_25 C119_25 1_555 1_555
C116_21 C121_21 1_555 1_555
Co8_14 N1_31 1_555 1_555
N1_31 C1_31 1_555 1_555
S1_31 C1_31 1_555 1_555
N22_31 Co8_14 1_555 1_555
N36_31 C83_31 1_555 1_555
N41_31 C83_31 1_555 1_555
N46_31 C88_31 1_555 1_555
C33_31 N22_31 1_555 1_555
H18_31 C33_31 1_555 1_555
C38_31 C33_31 1_555 1_555
C43_31 C38_31 1_555 1_555
H23_31 C43_31 1_555 1_555
C48_31 C43_31 1_555 1_555
H28_31 C48_31 1_555 1_555
C53_31 N22_31 1_555 1_555
H33_31 C53_31 1_555 1_555
C58_31 N34_9 1_555 1_555
H38_31 C58_31 1_555 1_555
C63_31 C58_31 1_555 1_555
H43_31 C63_31 1_555 1_555
C68_31 C63_31 1_555 1_555
H48_31 C68_31 1_555 1_555
C73_31 C68_31 1_555 1_555
C78_31 N34_9 1_555 1_555
H53_31 C78_31 1_555 1_555
C83_31 C73_31 1_555 1_555
C88_31 N41_31 1_555 1_555
C93_31 N36_31 1_555 1_555
C98_31 N56_12 1_555 1_555
H58_31 C98_31 1_555 1_555
C103_31 C98_31 1_555 1_555
H63_31 C103_31 1_555 1_555
C108_31 C103_31 1_555 1_555
H68_31 C108_31 1_555 1_555
C113_31 C93_31 1_555 1_555
C118_31 N56_12 1_555 1_555
H73_31 C118_31 1_555 1_555
N46_31 C93_31 1_555 1_555
C38_31 C88_31 1_555 1_555
C48_31 C53_31 1_555 1_555
C73_31 C78_31 1_555 1_555
C108_31 C113_31 1_555 1_555
C113_31 C118_31 1_555 1_555
Co6_22 N12_25 1_555 1_555
Co7_18 N32_22 1_555 1_555
Co12_6 N54_22 1_555 1_555
N12_25 C28_25 1_555 1_555
N25_19 Co6_22 1_555 1_555
N32_22 C61_22 1_555 1_555
N33_25 Co6_22 1_555 1_555
N39_22 C86_22 1_555 1_555
N44_22 C86_22 1_555 1_555
N49_22 C91_22 1_555 1_555
N54_22 C101_22 1_555 1_555
S4_25 C28_25 1_555 1_555
C36_22 N25_19 1_555 1_555
H21_22 C36_22 1_555 1_555
C41_22 C36_22 1_555 1_555
C46_22 C41_22 1_555 1_555
H26_22 C46_22 1_555 1_555
C51_22 C46_22 1_555 1_555
H31_22 C51_22 1_555 1_555
C56_22 N25_19 1_555 1_555
H36_22 C56_22 1_555 1_555
C61_22 H41_22 1_555 1_555
C66_22 C61_22 1_555 1_555
H46_22 C66_22 1_555 1_555
C71_22 C66_22 1_555 1_555
H51_22 C71_22 1_555 1_555
C76_22 C71_22 1_555 1_555
C81_22 N32_22 1_555 1_555
H56_22 C81_22 1_555 1_555
C86_22 C76_22 1_555 1_555
C91_22 N44_22 1_555 1_555
C96_22 N39_22 1_555 1_555
C101_22 H61_22 1_555 1_555
C106_22 C101_22 1_555 1_555
H66_22 C106_22 1_555 1_555
C111_22 C106_22 1_555 1_555
H71_22 C111_22 1_555 1_555
C116_22 C96_22 1_555 1_555
C121_22 N54_22 1_555 1_555
H76_22 C121_22 1_555 1_555
N49_22 C96_22 1_555 1_555
C41_22 C91_22 1_555 1_555
C51_22 C56_22 1_555 1_555
C76_22 C81_22 1_555 1_555
C111_22 C116_22 1_555 1_555
C116_22 C121_22 1_555 1_555
Co15_5 N2_31 1_555 1_555
N2_31 C26_31 1_555 1_555
N26_14 C2_18 1_555 1_555
N4_18 Co8_15 1_555 1_555
N5_18 C12_18 1_555 1_555
N6_18 C12_18 1_555 1_555
N7_18 C13_18 1_555 1_555
N8_18 Co15_5 1_555 1_555
S2_31 C26_31 1_555 1_555
C2_18 H1_18 1_555 1_555
C3_18 C2_18 1_555 1_555
C4_18 C3_18 1_555 1_555
H2_18 C4_18 1_555 1_555
C5_18 C4_18 1_555 1_555
H3_18 C5_18 1_555 1_555
C6_18 N26_14 1_555 1_555
H4_18 C6_18 1_555 1_555
C7_18 N4_18 1_555 1_555
H5_18 C7_18 1_555 1_555
C8_18 C7_18 1_555 1_555
H6_18 C8_18 1_555 1_555
C9_18 C8_18 1_555 1_555
H7_18 C9_18 1_555 1_555
C10_18 C9_18 1_555 1_555
C11_18 N4_18 1_555 1_555
H8_18 C11_18 1_555 1_555
C12_18 C10_18 1_555 1_555
C13_18 N6_18 1_555 1_555
C14_18 N5_18 1_555 1_555
C15_18 N8_18 1_555 1_555
H9_18 C15_18 1_555 1_555
C16_18 C15_18 1_555 1_555
H10_18 C16_18 1_555 1_555
C17_18 C16_18 1_555 1_555
H11_18 C17_18 1_555 1_555
C18_18 C14_18 1_555 1_555
C19_18 N8_18 1_555 1_555
H12_18 C19_18 1_555 1_555
N11_31 Co8_15 1_555 1_555
N13_25 Co6_23 1_555 1_555
N16_31 Co15_5 1_555 1_555
N21_31 Co8_15 1_555 1_555
N28_25 Co6_23 1_555 1_555
N35_31 C82_31 1_555 1_555
N40_31 C82_31 1_555 1_555
N45_31 C87_31 1_555 1_555
S3_31 C27_31 1_555 1_555
S5_25 C29_25 1_555 1_555
S8_31 C152_31 1_555 1_555
C27_31 N11_31 1_555 1_555
C29_25 N13_25 1_555 1_555
C32_31 N21_31 1_555 1_555
H17_31 C32_31 1_555 1_555
C37_31 C32_31 1_555 1_555
C42_31 C37_31 1_555 1_555
H22_31 C42_31 1_555 1_555
C47_31 C42_31 1_555 1_555
H27_31 C47_31 1_555 1_555
C52_31 N21_31 1_555 1_555
H32_31 C52_31 1_555 1_555
C57_31 N28_25 1_555 1_555
H37_31 C57_31 1_555 1_555
C62_31 C57_31 1_555 1_555
H42_31 C62_31 1_555 1_555
C67_31 C62_31 1_555 1_555
H47_31 C67_31 1_555 1_555
C72_31 C67_31 1_555 1_555
C77_31 N28_25 1_555 1_555
H52_31 C77_31 1_555 1_555
C82_31 C72_31 1_555 1_555
C87_31 N40_31 1_555 1_555
C92_31 N35_31 1_555 1_555
C97_31 N56_21 1_555 1_555
H57_31 C97_31 1_555 1_555
C102_31 C97_31 1_555 1_555
H62_31 C102_31 1_555 1_555
C107_31 C102_31 1_555 1_555
H67_31 C107_31 1_555 1_555
C112_31 C92_31 1_555 1_555
C117_31 N56_21 1_555 1_555
H72_31 C117_31 1_555 1_555
C152_31 N16_31 1_555 1_555
N7_18 C14_18 1_555 1_555
C3_18 C13_18 1_555 1_555
C5_18 C6_18 1_555 1_555
C10_18 C11_18 1_555 1_555
C17_18 C18_18 1_555 1_555
C18_18 C19_18 1_555 1_555
N45_31 C92_31 1_555 1_555
C37_31 C87_31 1_555 1_555
C47_31 C52_31 1_555 1_555
C72_31 C77_31 1_555 1_555
C107_31 C112_31 1_555 1_555
C112_31 C117_31 1_555 1_555
Co13_9 N2_32 1_555 1_555
N2_32 C26_32 1_555 1_555
N9_14 Co13_9 1_555 1_555
N10_14 C25_14 1_555 1_555
S2_32 C26_32 1_555 1_555
C20_14 N9_14 1_555 1_555
H13_14 C20_14 1_555 1_555
C21_14 C20_14 1_555 1_555
H14_14 C21_14 1_555 1_555
C22_14 C21_14 1_555 1_555
H15_14 C22_14 1_555 1_555
C23_14 C22_14 1_555 1_555
C24_14 N9_14 1_555 1_555
H16_14 C24_14 1_555 1_555
C25_14 C23_14 1_555 1_555
Co7_17 N31_22 1_555 1_555
Co16_3 N57_14 1_555 1_555
Co12_6 N58_14 1_555 1_555
N16_32 Co13_9 1_555 1_555
N31_22 C60_22 1_555 1_555
N38_22 C85_22 1_555 1_555
N43_22 C85_22 1_555 1_555
N48_22 C90_22 1_555 1_555
N53_22 Co13_9 1_555 1_555
N57_14 C122_14 1_555 1_555
N58_14 C123_14 1_555 1_555
N66_14 C147_14 1_555 1_555
N67_14 C25_14 1_555 1_555
S8_32 C152_32 1_555 1_555
C35_22 N26_12 1_555 1_555
H20_22 C35_22 1_555 1_555
C40_22 C35_22 1_555 1_555
C45_22 C40_22 1_555 1_555
H25_22 C45_22 1_555 1_555
C50_22 C45_22 1_555 1_555
H30_22 C50_22 1_555 1_555
C55_22 N26_12 1_555 1_555
H35_22 C55_22 1_555 1_555
C60_22 H40_22 1_555 1_555
C65_22 C60_22 1_555 1_555
H45_22 C65_22 1_555 1_555
C70_22 C65_22 1_555 1_555
H50_22 C70_22 1_555 1_555
C75_22 C70_22 1_555 1_555
C80_22 N31_22 1_555 1_555
H55_22 C80_22 1_555 1_555
C85_22 C75_22 1_555 1_555
C90_22 N43_22 1_555 1_555
C95_22 N38_22 1_555 1_555
C100_22 N53_22 1_555 1_555
H60_22 C100_22 1_555 1_555
C105_22 C100_22 1_555 1_555
H65_22 C105_22 1_555 1_555
C110_22 C105_22 1_555 1_555
H70_22 C110_22 1_555 1_555
C115_22 C95_22 1_555 1_555
C120_22 N53_22 1_555 1_555
H75_22 C120_22 1_555 1_555
C122_14 H77_14 1_555 1_555
C123_14 H78_14 1_555 1_555
C127_14 C122_14 1_555 1_555
C128_14 C123_14 1_555 1_555
H82_14 C127_14 1_555 1_555
H83_14 C128_14 1_555 1_555
C132_14 C127_14 1_555 1_555
C133_14 C128_14 1_555 1_555
H87_14 C132_14 1_555 1_555
H88_14 C133_14 1_555 1_555
C137_14 C132_14 1_555 1_555
C138_14 C133_14 1_555 1_555
C142_14 N57_14 1_555 1_555
C143_14 N58_14 1_555 1_555
H92_14 C142_14 1_555 1_555
H93_14 C143_14 1_555 1_555
C147_14 N10_14 1_555 1_555
C148_14 N66_14 1_555 1_555
C152_32 N16_32 1_555 1_555
C23_14 C24_14 1_555 1_555
N48_22 C95_22 1_555 1_555
N67_14 C148_14 1_555 1_555
C40_22 C90_22 1_555 1_555
C50_22 C55_22 1_555 1_555
C75_22 C80_22 1_555 1_555
C110_22 C115_22 1_555 1_555
C115_22 C120_22 1_555 1_555
C137_14 C142_14 1_555 1_555
C137_14 C148_14 1_555 1_555
C138_14 C143_14 1_555 1_555
C138_14 C147_14 1_555 1_555
Co8_20 N32_23 1_555 1_555
Co11_3 N54_23 1_555 1_555
N11_32 Co7_14 1_555 1_555
N21_32 Co7_14 1_555 1_555
N32_23 C61_23 1_555 1_555
N35_32 C82_32 1_555 1_555
N39_23 C86_23 1_555 1_555
N40_32 C82_32 1_555 1_555
N44_23 C86_23 1_555 1_555
N45_32 C87_32 1_555 1_555
N49_23 C91_23 1_555 1_555
N54_23 C101_23 1_555 1_555
S3_32 C27_32 1_555 1_555
C27_32 N11_32 1_555 1_555
C32_32 N21_32 1_555 1_555
C36_23 N26_5 1_555 1_555
H17_32 C32_32 1_555 1_555
H21_23 C36_23 1_555 1_555
C37_32 C32_32 1_555 1_555
C41_23 C36_23 1_555 1_555
C42_32 C37_32 1_555 1_555
C46_23 C41_23 1_555 1_555
H22_32 C42_32 1_555 1_555
H26_23 C46_23 1_555 1_555
C47_32 C42_32 1_555 1_555
C51_23 C46_23 1_555 1_555
H27_32 C47_32 1_555 1_555
H31_23 C51_23 1_555 1_555
C52_32 N21_32 1_555 1_555
C56_23 N26_5 1_555 1_555
H32_32 C52_32 1_555 1_555
H36_23 C56_23 1_555 1_555
C57_32 N34_5 1_555 1_555
C61_23 H41_23 1_555 1_555
H37_32 C57_32 1_555 1_555
C62_32 C57_32 1_555 1_555
C66_23 C61_23 1_555 1_555
H42_32 C62_32 1_555 1_555
H46_23 C66_23 1_555 1_555
C67_32 C62_32 1_555 1_555
C71_23 C66_23 1_555 1_555
H47_32 C67_32 1_555 1_555
H51_23 C71_23 1_555 1_555
C72_32 C67_32 1_555 1_555
C76_23 C71_23 1_555 1_555
C77_32 N34_5 1_555 1_555
C81_23 N32_23 1_555 1_555
H52_32 C77_32 1_555 1_555
H56_23 C81_23 1_555 1_555
C82_32 C72_32 1_555 1_555
C86_23 C76_23 1_555 1_555
C87_32 N40_32 1_555 1_555
C91_23 N44_23 1_555 1_555
C92_32 N35_32 1_555 1_555
C96_23 N39_23 1_555 1_555
C97_32 N56_20 1_555 1_555
C101_23 H61_23 1_555 1_555
H57_32 C97_32 1_555 1_555
C102_32 C97_32 1_555 1_555
C106_23 C101_23 1_555 1_555
H62_32 C102_32 1_555 1_555
H66_23 C106_23 1_555 1_555
C107_32 C102_32 1_555 1_555
C111_23 C106_23 1_555 1_555
H67_32 C107_32 1_555 1_555
H71_23 C111_23 1_555 1_555
C112_32 C92_32 1_555 1_555
C116_23 C96_23 1_555 1_555
C117_32 N56_20 1_555 1_555
C121_23 N54_23 1_555 1_555
H72_32 C117_32 1_555 1_555
H76_23 C121_23 1_555 1_555
N45_32 C92_32 1_555 1_555
N49_23 C96_23 1_555 1_555
C37_32 C87_32 1_555 1_555
C41_23 C91_23 1_555 1_555
C47_32 C52_32 1_555 1_555
C51_23 C56_23 1_555 1_555
C72_32 C77_32 1_555 1_555
C76_23 C81_23 1_555 1_555
C107_32 C112_32 1_555 1_555
C111_23 C116_23 1_555 1_555
C112_32 C117_32 1_555 1_555
C116_23 C121_23 1_555 1_555
Co6_13 N14_19 1_555 1_555
N14_19 C30_19 1_555 1_555
N34_19 Co6_13 1_555 1_555
S6_19 C30_19 1_555 1_555
Co7_15 N1_32 1_555 1_555
N1_32 C1_32 1_555 1_555
S1_32 C1_32 1_555 1_555
Co10_22 N19_22 1_555 1_555
N15_19 Co6_14 1_555 1_555
N19_22 C155_22 1_555 1_555
N20_22 Co10_22 1_555 1_555
N22_32 Co7_15 1_555 1_555
N26_15 Co6_14 1_555 1_555
N29_19 Co6_14 1_555 1_555
N36_32 C83_32 1_555 1_555
N41_32 C83_32 1_555 1_555
N46_32 C88_32 1_555 1_555
N51_22 Co10_22 1_555 1_555
N56_22 Co10_22 1_555 1_555
N64_22 Co10_22 1_555 1_555
N65_22 Co10_22 1_555 1_555
S7_19 C31_19 1_555 1_555
S11_22 C155_22 1_555 1_555
S12_22 C156_22 1_555 1_555
C31_19 N15_19 1_555 1_555
C33_32 N22_32 1_555 1_555
H18_32 C33_32 1_555 1_555
C38_32 C33_32 1_555 1_555
C43_32 C38_32 1_555 1_555
H23_32 C43_32 1_555 1_555
C48_32 C43_32 1_555 1_555
H28_32 C48_32 1_555 1_555
C53_32 N22_32 1_555 1_555
H33_32 C53_32 1_555 1_555
C58_32 N29_19 1_555 1_555
H38_32 C58_32 1_555 1_555
C63_32 C58_32 1_555 1_555
H43_32 C63_32 1_555 1_555
C68_32 C63_32 1_555 1_555
H48_32 C68_32 1_555 1_555
C73_32 C68_32 1_555 1_555
C78_32 N29_19 1_555 1_555
H53_32 C78_32 1_555 1_555
C83_32 C73_32 1_555 1_555
C88_32 N41_32 1_555 1_555
C93_32 N36_32 1_555 1_555
C98_32 N51_22 1_555 1_555
H58_32 C98_32 1_555 1_555
C103_32 C98_32 1_555 1_555
H63_32 C103_32 1_555 1_555
C108_32 C103_32 1_555 1_555
H68_32 C108_32 1_555 1_555
C113_32 C93_32 1_555 1_555
C118_32 N51_22 1_555 1_555
H73_32 C118_32 1_555 1_555
C156_22 N20_22 1_555 1_555
N46_32 C93_32 1_555 1_555
C38_32 C88_32 1_555 1_555
C48_32 C53_32 1_555 1_555
C73_32 C78_32 1_555 1_555
C108_32 C113_32 1_555 1_555
C113_32 C118_32 1_555 1_555
Co8_13 N1_33 1_555 1_555
Co16_4 N2_33 1_555 1_555
N1_33 C1_33 1_555 1_555
N2_33 C26_33 1_555 1_555
N3_12 C2_19 1_555 1_555
N4_19 Co8_13 1_555 1_555
N5_19 C12_19 1_555 1_555
N6_19 C12_19 1_555 1_555
N7_19 C13_19 1_555 1_555
N8_19 Co16_4 1_555 1_555
S1_33 C1_33 1_555 1_555
S2_33 C26_33 1_555 1_555
C2_19 H1_19 1_555 1_555
C3_19 C2_19 1_555 1_555
C4_19 C3_19 1_555 1_555
H2_19 C4_19 1_555 1_555
C5_19 C4_19 1_555 1_555
H3_19 C5_19 1_555 1_555
C6_19 N3_12 1_555 1_555
H4_19 C6_19 1_555 1_555
C7_19 N4_19 1_555 1_555
H5_19 C7_19 1_555 1_555
C8_19 C7_19 1_555 1_555
H6_19 C8_19 1_555 1_555
C9_19 C8_19 1_555 1_555
H7_19 C9_19 1_555 1_555
C10_19 C9_19 1_555 1_555
C11_19 N4_19 1_555 1_555
H8_19 C11_19 1_555 1_555
C12_19 C10_19 1_555 1_555
C13_19 N6_19 1_555 1_555
C14_19 N5_19 1_555 1_555
C15_19 N8_19 1_555 1_555
H9_19 C15_19 1_555 1_555
C16_19 C15_19 1_555 1_555
H10_19 C16_19 1_555 1_555
C17_19 C16_19 1_555 1_555
H11_19 C17_19 1_555 1_555
C18_19 C14_19 1_555 1_555
C19_19 N8_19 1_555 1_555
H12_19 C19_19 1_555 1_555
Co5_12 N3_12 1_555 1_555
Co9_22 N17_22 1_555 1_555
N11_33 Co8_13 1_555 1_555
N16_33 Co16_4 1_555 1_555
N18_22 Co9_22 1_555 1_555
N21_33 Co8_13 1_555 1_555
N22_33 Co8_13 1_555 1_555
N35_33 C82_33 1_555 1_555
N36_33 C83_33 1_555 1_555
N40_33 C82_33 1_555 1_555
N41_33 C83_33 1_555 1_555
N45_33 C87_33 1_555 1_555
N46_33 C88_33 1_555 1_555
N50_22 Co9_22 1_555 1_555
N55_22 Co9_22 1_555 1_555
S3_33 C27_33 1_555 1_555
S8_33 C152_33 1_555 1_555
C27_33 N11_33 1_555 1_555
C32_33 N21_33 1_555 1_555
C33_33 N22_33 1_555 1_555
H17_33 C32_33 1_555 1_555
H18_33 C33_33 1_555 1_555
C37_33 C32_33 1_555 1_555
C38_33 C33_33 1_555 1_555
C42_33 C37_33 1_555 1_555
C43_33 C38_33 1_555 1_555
H22_33 C42_33 1_555 1_555
H23_33 C43_33 1_555 1_555
C47_33 C42_33 1_555 1_555
C48_33 C43_33 1_555 1_555
H27_33 C47_33 1_555 1_555
H28_33 C48_33 1_555 1_555
C52_33 N21_33 1_555 1_555
C53_33 N22_33 1_555 1_555
H32_33 C52_33 1_555 1_555
H33_33 C53_33 1_555 1_555
C57_33 N33_6 1_555 1_555
C58_33 N34_19 1_555 1_555
H37_33 C57_33 1_555 1_555
H38_33 C58_33 1_555 1_555
C62_33 C57_33 1_555 1_555
C63_33 C58_33 1_555 1_555
H42_33 C62_33 1_555 1_555
H43_33 C63_33 1_555 1_555
C67_33 C62_33 1_555 1_555
C68_33 C63_33 1_555 1_555
H47_33 C67_33 1_555 1_555
H48_33 C68_33 1_555 1_555
C72_33 C67_33 1_555 1_555
C73_33 C68_33 1_555 1_555
C77_33 N33_6 1_555 1_555
C78_33 N34_19 1_555 1_555
H52_33 C77_33 1_555 1_555
H53_33 C78_33 1_555 1_555
C82_33 C72_33 1_555 1_555
C83_33 C73_33 1_555 1_555
C87_33 N40_33 1_555 1_555
C88_33 N41_33 1_555 1_555
C92_33 N35_33 1_555 1_555
C93_33 N36_33 1_555 1_555
C97_33 N50_22 1_555 1_555
C98_33 N56_9 1_555 1_555
H57_33 C97_33 1_555 1_555
H58_33 C98_33 1_555 1_555
C102_33 C97_33 1_555 1_555
C103_33 C98_33 1_555 1_555
H62_33 C102_33 1_555 1_555
H63_33 C103_33 1_555 1_555
C107_33 C102_33 1_555 1_555
C108_33 C103_33 1_555 1_555
H67_33 C107_33 1_555 1_555
H68_33 C108_33 1_555 1_555
C112_33 C92_33 1_555 1_555
C113_33 C93_33 1_555 1_555
C117_33 N50_22 1_555 1_555
C118_33 N56_9 1_555 1_555
H72_33 C117_33 1_555 1_555
H73_33 C118_33 1_555 1_555
C152_33 N16_33 1_555 1_555
N7_19 C14_19 1_555 1_555
C3_19 C13_19 1_555 1_555
C5_19 C6_19 1_555 1_555
C10_19 C11_19 1_555 1_555
C17_19 C18_19 1_555 1_555
C18_19 C19_19 1_555 1_555
N45_33 C92_33 1_555 1_555
N46_33 C93_33 1_555 1_555
C37_33 C87_33 1_555 1_555
C38_33 C88_33 1_555 1_555
C47_33 C52_33 1_555 1_555
C48_33 C53_33 1_555 1_555
C72_33 C77_33 1_555 1_555
C73_33 C78_33 1_555 1_555
C107_33 C112_33 1_555 1_555
C108_33 C113_33 1_555 1_555
C112_33 C117_33 1_555 1_555
C113_33 C118_33 1_555 1_555
S9_22 C153_22 1_555 1_555
S10_22 C154_22 1_555 1_555
Co15_3 N2_34 1_555 1_555
N2_34 C26_34 1_555 1_555
S2_34 C26_34 1_555 1_555
N16_34 Co15_3 1_555 1_555
S8_34 C152_34 1_555 1_555
C152_34 N16_34 1_555 1_555
S9_23 C153_23 1_555 1_555
S10_23 C154_23 1_555 1_555
Co7_18 N1_34 1_555 1_555
Co12_6 N2_35 1_555 1_555
N1_34 C1_34 1_555 1_555
N2_35 C26_35 1_555 1_555
S1_34 C1_34 1_555 1_555
S2_35 C26_35 1_555 1_555
Co9_23 N17_23 1_555 1_555
N11_34 Co7_18 1_555 1_555
N16_35 Co12_6 1_555 1_555
N18_23 Co9_23 1_555 1_555
N21_34 Co7_18 1_555 1_555
N22_34 Co7_18 1_555 1_555
N35_34 C82_34 1_555 1_555
N36_34 C83_34 1_555 1_555
N40_34 C82_34 1_555 1_555
N41_34 C83_34 1_555 1_555
N45_34 C87_34 1_555 1_555
N46_34 C88_34 1_555 1_555
N50_23 Co9_23 1_555 1_555
N55_23 Co9_23 1_555 1_555
S3_34 C27_34 1_555 1_555
S8_35 C152_35 1_555 1_555
C27_34 N11_34 1_555 1_555
C32_34 N21_34 1_555 1_555
C33_34 N22_34 1_555 1_555
H17_34 C32_34 1_555 1_555
H18_34 C33_34 1_555 1_555
C37_34 C32_34 1_555 1_555
C38_34 C33_34 1_555 1_555
C42_34 C37_34 1_555 1_555
C43_34 C38_34 1_555 1_555
H22_34 C42_34 1_555 1_555
H23_34 C43_34 1_555 1_555
C47_34 C42_34 1_555 1_555
C48_34 C43_34 1_555 1_555
H27_34 C47_34 1_555 1_555
H28_34 C48_34 1_555 1_555
C52_34 N21_34 1_555 1_555
C53_34 N22_34 1_555 1_555
H32_34 C52_34 1_555 1_555
H33_34 C53_34 1_555 1_555
C57_34 N33_21 1_555 1_555
C58_34 N33 1_555 1_555
H37_34 C57_34 1_555 1_555
H38_34 C58_34 1_555 1_555
C62_34 C57_34 1_555 1_555
C63_34 C58_34 1_555 1_555
H42_34 C62_34 1_555 1_555
H43_34 C63_34 1_555 1_555
C67_34 C62_34 1_555 1_555
C68_34 C63_34 1_555 1_555
H47_34 C67_34 1_555 1_555
H48_34 C68_34 1_555 1_555
C72_34 C67_34 1_555 1_555
C73_34 C68_34 1_555 1_555
C77_34 N33_21 1_555 1_555
C78_34 N33 1_555 1_555
H52_34 C77_34 1_555 1_555
H53_34 C78_34 1_555 1_555
C82_34 C72_34 1_555 1_555
C83_34 C73_34 1_555 1_555
C87_34 N40_34 1_555 1_555
C88_34 N41_34 1_555 1_555
C92_34 N35_34 1_555 1_555
C93_34 N36_34 1_555 1_555
C97_34 N50_23 1_555 1_555
C98_34 N55_21 1_555 1_555
H57_34 C97_34 1_555 1_555
H58_34 C98_34 1_555 1_555
C102_34 C97_34 1_555 1_555
C103_34 C98_34 1_555 1_555
H62_34 C102_34 1_555 1_555
H63_34 C103_34 1_555 1_555
C107_34 C102_34 1_555 1_555
C108_34 C103_34 1_555 1_555
H67_34 C107_34 1_555 1_555
H68_34 C108_34 1_555 1_555
C112_34 C92_34 1_555 1_555
C113_34 C93_34 1_555 1_555
C117_34 N50_23 1_555 1_555
C118_34 N55_21 1_555 1_555
H72_34 C117_34 1_555 1_555
H73_34 C118_34 1_555 1_555
C152_35 N16_35 1_555 1_555
N45_34 C92_34 1_555 1_555
N46_34 C93_34 1_555 1_555
C37_34 C87_34 1_555 1_555
C38_34 C88_34 1_555 1_555
C47_34 C52_34 1_555 1_555
C48_34 C53_34 1_555 1_555
C72_34 C77_34 1_555 1_555
C73_34 C78_34 1_555 1_555
C107_34 C112_34 1_555 1_555
C108_34 C113_34 1_555 1_555
C112_34 C117_34 1_555 1_555
C113_34 C118_34 1_555 1_555
Co13_8 N2_36 1_555 1_555
N2_36 C26_36 1_555 1_555
N9_15 Co13_8 1_555 1_555
N10_15 C25_15 1_555 1_555
S2_36 C26_36 1_555 1_555
C20_15 N9_15 1_555 1_555
H13_15 C20_15 1_555 1_555
C21_15 C20_15 1_555 1_555
H14_15 C21_15 1_555 1_555
C22_15 C21_15 1_555 1_555
H15_15 C22_15 1_555 1_555
C23_15 C22_15 1_555 1_555
C24_15 N9_15 1_555 1_555
H16_15 C24_15 1_555 1_555
C25_15 C23_15 1_555 1_555
Co13_2 N57_15 1_555 1_555
Co12_7 N58_15 1_555 1_555
Co13_6 N60_15 1_555 1_555
Co13_3 N61_15 1_555 1_555
N16_36 Co13_8 1_555 1_555
N57_15 C122_15 1_555 1_555
N58_15 C123_15 1_555 1_555
N59_15 Co13_8 1_555 1_555
N60_15 C125_15 1_555 1_555
N61_15 C126_15 1_555 1_555
N66_15 C147_15 1_555 1_555
N67_15 C25_15 1_555 1_555
N68_15 C149_15 1_555 1_555
N69_15 C150_15 1_555 1_555
N70_15 C149_15 1_555 1_555
S8_36 C152_36 1_555 1_555
C122_15 H77_15 1_555 1_555
C123_15 H78_15 1_555 1_555
C124_15 N59_15 1_555 1_555
C125_15 H80_15 1_555 1_555
C126_15 H81_15 1_555 1_555
H79_15 C124_15 1_555 1_555
C127_15 C122_15 1_555 1_555
C128_15 C123_15 1_555 1_555
C129_15 C124_15 1_555 1_555
C130_15 C125_15 1_555 1_555
C131_15 C126_15 1_555 1_555
H82_15 C127_15 1_555 1_555
H83_15 C128_15 1_555 1_555
H84_15 C129_15 1_555 1_555
H85_15 C130_15 1_555 1_555
H86_15 C131_15 1_555 1_555
C132_15 C127_15 1_555 1_555
C133_15 C128_15 1_555 1_555
C134_15 C129_15 1_555 1_555
C135_15 C130_15 1_555 1_555
C136_15 C131_15 1_555 1_555
H87_15 C132_15 1_555 1_555
H88_15 C133_15 1_555 1_555
H89_15 C134_15 1_555 1_555
H90_15 C135_15 1_555 1_555
H91_15 C136_15 1_555 1_555
C137_15 C132_15 1_555 1_555
C138_15 C133_15 1_555 1_555
C139_15 C134_15 1_555 1_555
C140_15 C135_15 1_555 1_555
C141_15 C136_15 1_555 1_555
C142_15 N57_15 1_555 1_555
C143_15 N58_15 1_555 1_555
C144_15 N59_15 1_555 1_555
C145_15 N60_15 1_555 1_555
C146_15 N61_15 1_555 1_555
H92_15 C142_15 1_555 1_555
H93_15 C143_15 1_555 1_555
H94_15 C144_15 1_555 1_555
H95_15 C145_15 1_555 1_555
H96_15 C146_15 1_555 1_555
C147_15 N10_15 1_555 1_555
C148_15 N66_15 1_555 1_555
C149_15 C139_15 1_555 1_555
C150_15 N68_15 1_555 1_555
C151_15 N69_15 1_555 1_555
C152_36 N16_36 1_555 1_555
C23_15 C24_15 1_555 1_555
N67_15 C148_15 1_555 1_555
N70_15 C151_15 1_555 1_555
C137_15 C142_15 1_555 1_555
C137_15 C148_15 1_555 1_555
C138_15 C143_15 1_555 1_555
C138_15 C147_15 1_555 1_555
C139_15 C144_15 1_555 1_555
C140_15 C145_15 1_555 1_555
C140_15 C151_15 1_555 1_555
C141_15 C146_15 1_555 1_555
C141_15 C150_15 1_555 1_555
Co8_7 N1_35 1_555 1_555
N1_35 C1_35 1_555 1_555
S1_35 C1_35 1_555 1_555
N22_35 Co8_7 1_555 1_555
N36_35 C83_35 1_555 1_555
N41_35 C83_35 1_555 1_555
N46_35 C88_35 1_555 1_555
C33_35 N22_35 1_555 1_555
H18_35 C33_35 1_555 1_555
C38_35 C33_35 1_555 1_555
C43_35 C38_35 1_555 1_555
H23_35 C43_35 1_555 1_555
C48_35 C43_35 1_555 1_555
H28_35 C48_35 1_555 1_555
C53_35 N22_35 1_555 1_555
H33_35 C53_35 1_555 1_555
C58_35 N34_13 1_555 1_555
H38_35 C58_35 1_555 1_555
C63_35 C58_35 1_555 1_555
H43_35 C63_35 1_555 1_555
C68_35 C63_35 1_555 1_555
H48_35 C68_35 1_555 1_555
C73_35 C68_35 1_555 1_555
C78_35 N34_13 1_555 1_555
H53_35 C78_35 1_555 1_555
C83_35 C73_35 1_555 1_555
C88_35 N41_35 1_555 1_555
C93_35 N36_35 1_555 1_555
C98_35 N55_8 1_555 1_555
H58_35 C98_35 1_555 1_555
C103_35 C98_35 1_555 1_555
H63_35 C103_35 1_555 1_555
C108_35 C103_35 1_555 1_555
H68_35 C108_35 1_555 1_555
C113_35 C93_35 1_555 1_555
C118_35 N55_8 1_555 1_555
H73_35 C118_35 1_555 1_555
N46_35 C93_35 1_555 1_555
C38_35 C88_35 1_555 1_555
C48_35 C53_35 1_555 1_555
C73_35 C78_35 1_555 1_555
C108_35 C113_35 1_555 1_555
C113_35 C118_35 1_555 1_555
Co5_12 N12_26 1_555 1_555
Co7_16 N32_24 1_555 1_555
Co12_7 N54_24 1_555 1_555
N11_35 Co8_8 1_555 1_555
N12_26 C28_26 1_555 1_555
N13_26 Co5_12 1_555 1_555
N21_35 Co8_8 1_555 1_555
N25_20 Co5_12 1_555 1_555
N28_26 Co5_12 1_555 1_555
N32_24 C61_24 1_555 1_555
N33_26 Co5_12 1_555 1_555
N35_35 C82_35 1_555 1_555
N39_24 C86_24 1_555 1_555
N40_35 C82_35 1_555 1_555
N44_24 C86_24 1_555 1_555
N45_35 C87_35 1_555 1_555
N49_24 C91_24 1_555 1_555
N54_24 C101_24 1_555 1_555
S3_35 C27_35 1_555 1_555
S4_26 C28_26 1_555 1_555
S5_26 C29_26 1_555 1_555
C27_35 N11_35 1_555 1_555
C29_26 N13_26 1_555 1_555
C32_35 N21_35 1_555 1_555
C36_24 N25_20 1_555 1_555
H17_35 C32_35 1_555 1_555
H21_24 C36_24 1_555 1_555
C37_35 C32_35 1_555 1_555
C41_24 C36_24 1_555 1_555
C42_35 C37_35 1_555 1_555
C46_24 C41_24 1_555 1_555
H22_35 C42_35 1_555 1_555
H26_24 C46_24 1_555 1_555
C47_35 C42_35 1_555 1_555
C51_24 C46_24 1_555 1_555
H27_35 C47_35 1_555 1_555
H31_24 C51_24 1_555 1_555
C52_35 N21_35 1_555 1_555
C56_24 N25_20 1_555 1_555
H32_35 C52_35 1_555 1_555
H36_24 C56_24 1_555 1_555
C57_35 N28_26 1_555 1_555
C61_24 H41_24 1_555 1_555
H37_35 C57_35 1_555 1_555
C62_35 C57_35 1_555 1_555
C66_24 C61_24 1_555 1_555
H42_35 C62_35 1_555 1_555
H46_24 C66_24 1_555 1_555
C67_35 C62_35 1_555 1_555
C71_24 C66_24 1_555 1_555
H47_35 C67_35 1_555 1_555
H51_24 C71_24 1_555 1_555
C72_35 C67_35 1_555 1_555
C76_24 C71_24 1_555 1_555
C77_35 N28_26 1_555 1_555
C81_24 N32_24 1_555 1_555
H52_35 C77_35 1_555 1_555
H56_24 C81_24 1_555 1_555
C82_35 C72_35 1_555 1_555
C86_24 C76_24 1_555 1_555
C87_35 N40_35 1_555 1_555
C91_24 N44_24 1_555 1_555
C92_35 N35_35 1_555 1_555
C96_24 N39_24 1_555 1_555
C97_35 N55_22 1_555 1_555
C101_24 H61_24 1_555 1_555
H57_35 C97_35 1_555 1_555
C102_35 C97_35 1_555 1_555
C106_24 C101_24 1_555 1_555
H62_35 C102_35 1_555 1_555
H66_24 C106_24 1_555 1_555
C107_35 C102_35 1_555 1_555
C111_24 C106_24 1_555 1_555
H67_35 C107_35 1_555 1_555
H71_24 C111_24 1_555 1_555
C112_35 C92_35 1_555 1_555
C116_24 C96_24 1_555 1_555
C117_35 N55_22 1_555 1_555
C121_24 N54_24 1_555 1_555
H72_35 C117_35 1_555 1_555
H76_24 C121_24 1_555 1_555
N45_35 C92_35 1_555 1_555
N49_24 C96_24 1_555 1_555
C37_35 C87_35 1_555 1_555
C41_24 C91_24 1_555 1_555
C47_35 C52_35 1_555 1_555
C51_24 C56_24 1_555 1_555
C72_35 C77_35 1_555 1_555
C76_24 C81_24 1_555 1_555
C107_35 C112_35 1_555 1_555
C111_24 C116_24 1_555 1_555
C112_35 C117_35 1_555 1_555
C116_24 C121_24 1_555 1_555
Co11_3 N2_37 1_555 1_555
N2_37 C26_37 1_555 1_555
S2_37 C26_37 1_555 1_555
N16_37 Co11_3 1_555 1_555
S8_37 C152_37 1_555 1_555
C152_37 N16_37 1_555 1_555
Co12_3 N2_38 1_555 1_555
N2_38 C26_38 1_555 1_555
S2_38 C26_38 1_555 1_555
Co7_19 N31_23 1_555 1_555
N16_38 Co12_3 1_555 1_555
N31_23 C60_23 1_555 1_555
N38_23 C85_23 1_555 1_555
N43_23 C85_23 1_555 1_555
N48_23 C90_23 1_555 1_555
N53_23 Co12_3 1_555 1_555
S8_38 C152_38 1_555 1_555
C35_23 N26_15 1_555 1_555
H20_23 C35_23 1_555 1_555
C40_23 C35_23 1_555 1_555
C45_23 C40_23 1_555 1_555
H25_23 C45_23 1_555 1_555
C50_23 C45_23 1_555 1_555
H30_23 C50_23 1_555 1_555
C55_23 N26_15 1_555 1_555
H35_23 C55_23 1_555 1_555
C60_23 H40_23 1_555 1_555
C65_23 C60_23 1_555 1_555
H45_23 C65_23 1_555 1_555
C70_23 C65_23 1_555 1_555
H50_23 C70_23 1_555 1_555
C75_23 C70_23 1_555 1_555
C80_23 N31_23 1_555 1_555
H55_23 C80_23 1_555 1_555
C85_23 C75_23 1_555 1_555
C90_23 N43_23 1_555 1_555
C95_23 N38_23 1_555 1_555
C100_23 N53_23 1_555 1_555
H60_23 C100_23 1_555 1_555
C105_23 C100_23 1_555 1_555
H65_23 C105_23 1_555 1_555
C110_23 C105_23 1_555 1_555
H70_23 C110_23 1_555 1_555
C115_23 C95_23 1_555 1_555
C120_23 N53_23 1_555 1_555
H75_23 C120_23 1_555 1_555
C152_38 N16_38 1_555 1_555
N48_23 C95_23 1_555 1_555
C40_23 C90_23 1_555 1_555
C50_23 C55_23 1_555 1_555
C75_23 C80_23 1_555 1_555
C110_23 C115_23 1_555 1_555
C115_23 C120_23 1_555 1_555
Co13_3 N2_39 1_555 1_555
N2_39 C26_39 1_555 1_555
S2_39 C26_39 1_555 1_555
Co13_2 N61_16 1_555 1_555
N16_39 Co13_3 1_555 1_555
N59_16 Co13_3 1_555 1_555
N60_16 C125_16 1_555 1_555
N61_16 C126_16 1_555 1_555
N68_16 C149_16 1_555 1_555
N69_16 C150_16 1_555 1_555
N70_16 C149_16 1_555 1_555
S8_39 C152_39 1_555 1_555
C124_16 N59_16 1_555 1_555
C125_16 H80_16 1_555 1_555
C126_16 H81_16 1_555 1_555
H79_16 C124_16 1_555 1_555
C129_16 C124_16 1_555 1_555
C130_16 C125_16 1_555 1_555
C131_16 C126_16 1_555 1_555
H84_16 C129_16 1_555 1_555
H85_16 C130_16 1_555 1_555
H86_16 C131_16 1_555 1_555
C134_16 C129_16 1_555 1_555
C135_16 C130_16 1_555 1_555
C136_16 C131_16 1_555 1_555
H89_16 C134_16 1_555 1_555
H90_16 C135_16 1_555 1_555
H91_16 C136_16 1_555 1_555
C139_16 C134_16 1_555 1_555
C140_16 C135_16 1_555 1_555
C141_16 C136_16 1_555 1_555
C144_16 N59_16 1_555 1_555
C145_16 N60_16 1_555 1_555
C146_16 N61_16 1_555 1_555
H94_16 C144_16 1_555 1_555
H95_16 C145_16 1_555 1_555
H96_16 C146_16 1_555 1_555
C149_16 C139_16 1_555 1_555
C150_16 N68_16 1_555 1_555
C151_16 N69_16 1_555 1_555
C152_39 N16_39 1_555 1_555
N70_16 C151_16 1_555 1_555
C139_16 C144_16 1_555 1_555
C140_16 C145_16 1_555 1_555
C140_16 C151_16 1_555 1_555
C141_16 C146_16 1_555 1_555
C141_16 C150_16 1_555 1_555
Co8_12 N1_36 1_555 1_555
Co14_4 N2_40 1_555 1_555
N1_36 C1_36 1_555 1_555
N2_40 C26_40 1_555 1_555
S1_36 C1_36 1_555 1_555
S2_40 C26_40 1_555 1_555
Co6_4 N12_27 1_555 1_555
Co7_21 N31_24 1_555 1_555
Co9_24 N17_24 1_555 1_555
N11_36 Co8_12 1_555 1_555
N12_27 C28_27 1_555 1_555
N13_27 Co6_4 1_555 1_555
N16_40 Co14_4 1_555 1_555
N17_24 C153_24 1_555 1_555
N18_24 Co9_24 1_555 1_555
N21_36 Co8_12 1_555 1_555
N22_36 Co8_12 1_555 1_555
N24_19 Co6_4 1_555 1_555
N28_27 Co6_4 1_555 1_555
N31_24 C60_24 1_555 1_555
N33_27 Co6_4 1_555 1_555
N35_36 C82_36 1_555 1_555
N36_36 C83_36 1_555 1_555
N38_24 C85_24 1_555 1_555
N40_36 C82_36 1_555 1_555
N41_36 C83_36 1_555 1_555
N43_24 C85_24 1_555 1_555
N45_36 C87_36 1_555 1_555
N46_36 C88_36 1_555 1_555
N48_24 C90_24 1_555 1_555
N50_24 Co9_24 1_555 1_555
N53_24 Co14_4 1_555 1_555
N55_24 Co9_24 1_555 1_555
N62_24 Co9_24 1_555 1_555
N63_24 Co9_24 1_555 1_555
S3_36 C27_36 1_555 1_555
S4_27 C28_27 1_555 1_555
S5_27 C29_27 1_555 1_555
S8_40 C152_40 1_555 1_555
S9_24 C153_24 1_555 1_555
S10_24 C154_24 1_555 1_555
C27_36 N11_36 1_555 1_555
C29_27 N13_27 1_555 1_555
C32_36 N21_36 1_555 1_555
C33_36 N22_36 1_555 1_555
C35_24 N24_19 1_555 1_555
H17_36 C32_36 1_555 1_555
H18_36 C33_36 1_555 1_555
H20_24 C35_24 1_555 1_555
C37_36 C32_36 1_555 1_555
C38_36 C33_36 1_555 1_555
C40_24 C35_24 1_555 1_555
C42_36 C37_36 1_555 1_555
C43_36 C38_36 1_555 1_555
C45_24 C40_24 1_555 1_555
H22_36 C42_36 1_555 1_555
H23_36 C43_36 1_555 1_555
H25_24 C45_24 1_555 1_555
C47_36 C42_36 1_555 1_555
C48_36 C43_36 1_555 1_555
C50_24 C45_24 1_555 1_555
H27_36 C47_36 1_555 1_555
H28_36 C48_36 1_555 1_555
H30_24 C50_24 1_555 1_555
C52_36 N21_36 1_555 1_555
C53_36 N22_36 1_555 1_555
C55_24 N24_19 1_555 1_555
H32_36 C52_36 1_555 1_555
H33_36 C53_36 1_555 1_555
H35_24 C55_24 1_555 1_555
C57_36 N28_27 1_555 1_555
C58_36 N34_18 1_555 1_555
C60_24 H40_24 1_555 1_555
H37_36 C57_36 1_555 1_555
H38_36 C58_36 1_555 1_555
C62_36 C57_36 1_555 1_555
C63_36 C58_36 1_555 1_555
C65_24 C60_24 1_555 1_555
H42_36 C62_36 1_555 1_555
H43_36 C63_36 1_555 1_555
H45_24 C65_24 1_555 1_555
C67_36 C62_36 1_555 1_555
C68_36 C63_36 1_555 1_555
C70_24 C65_24 1_555 1_555
H47_36 C67_36 1_555 1_555
H48_36 C68_36 1_555 1_555
H50_24 C70_24 1_555 1_555
C72_36 C67_36 1_555 1_555
C73_36 C68_36 1_555 1_555
C75_24 C70_24 1_555 1_555
C77_36 N28_27 1_555 1_555
C78_36 N34_18 1_555 1_555
C80_24 N31_24 1_555 1_555
H52_36 C77_36 1_555 1_555
H53_36 C78_36 1_555 1_555
H55_24 C80_24 1_555 1_555
C82_36 C72_36 1_555 1_555
C83_36 C73_36 1_555 1_555
C85_24 C75_24 1_555 1_555
C87_36 N40_36 1_555 1_555
C88_36 N41_36 1_555 1_555
C90_24 N43_24 1_555 1_555
C92_36 N35_36 1_555 1_555
C93_36 N36_36 1_555 1_555
C95_24 N38_24 1_555 1_555
C97_36 N50_24 1_555 1_555
C98_36 N55_14 1_555 1_555
C100_24 N53_24 1_555 1_555
H57_36 C97_36 1_555 1_555
H58_36 C98_36 1_555 1_555
H60_24 C100_24 1_555 1_555
C102_36 C97_36 1_555 1_555
C103_36 C98_36 1_555 1_555
C105_24 C100_24 1_555 1_555
H62_36 C102_36 1_555 1_555
H63_36 C103_36 1_555 1_555
H65_24 C105_24 1_555 1_555
C107_36 C102_36 1_555 1_555
C108_36 C103_36 1_555 1_555
C110_24 C105_24 1_555 1_555
H67_36 C107_36 1_555 1_555
H68_36 C108_36 1_555 1_555
H70_24 C110_24 1_555 1_555
C112_36 C92_36 1_555 1_555
C113_36 C93_36 1_555 1_555
C115_24 C95_24 1_555 1_555
C117_36 N50_24 1_555 1_555
C118_36 N55_14 1_555 1_555
C120_24 N53_24 1_555 1_555
H72_36 C117_36 1_555 1_555
H73_36 C118_36 1_555 1_555
H75_24 C120_24 1_555 1_555
C152_40 N16_40 1_555 1_555
C154_24 N18_24 1_555 1_555
N45_36 C92_36 1_555 1_555
N46_36 C93_36 1_555 1_555
N48_24 C95_24 1_555 1_555
C37_36 C87_36 1_555 1_555
C38_36 C88_36 1_555 1_555
C40_24 C90_24 1_555 1_555
C47_36 C52_36 1_555 1_555
C48_36 C53_36 1_555 1_555
C50_24 C55_24 1_555 1_555
C72_36 C77_36 1_555 1_555
C73_36 C78_36 1_555 1_555
C75_24 C80_24 1_555 1_555
C107_36 C112_36 1_555 1_555
C108_36 C113_36 1_555 1_555
C110_24 C115_24 1_555 1_555
C112_36 C117_36 1_555 1_555
C113_36 C118_36 1_555 1_555
C115_24 C120_24 1_555 1_555
Co8_19 N1_37 1_555 1_555
Co13_2 N2_41 1_555 1_555
N1_37 C1_37 1_555 1_555
N2_41 C26_41 1_555 1_555
S1_37 C1_37 1_555 1_555
S2_41 C26_41 1_555 1_555
Co6_2 N12_28 1_555 1_555
Co6_24 N23_18 1_555 1_555
Co10_23 N19_23 1_555 1_555
Co12_4 N52_26 1_555 1_555
N11_37 Co8_19 1_555 1_555
N12_28 C28_28 1_555 1_555
N13_28 Co6_2 1_555 1_555
N16_41 Co13_2 1_555 1_555
N19_23 C155_23 1_555 1_555
N20_23 Co10_23 1_555 1_555
N21_37 Co8_19 1_555 1_555
N22_37 Co8_19 1_555 1_555
N23_18 C34_26 1_555 1_555
N28_28 Co6_2 1_555 1_555
N30_26 Co8_19 1_555 1_555
N33_28 Co6_2 1_555 1_555
N35_37 C82_37 1_555 1_555
N36_37 C83_37 1_555 1_555
N37_26 C84_26 1_555 1_555
N40_37 C82_37 1_555 1_555
N41_37 C83_37 1_555 1_555
N42_26 C84_26 1_555 1_555
N45_37 C87_37 1_555 1_555
N46_37 C88_37 1_555 1_555
N47_26 C89_26 1_555 1_555
N51_23 Co10_23 1_555 1_555
N52_26 C99_26 1_555 1_555
N56_23 Co10_23 1_555 1_555
N64_23 Co10_23 1_555 1_555
N65_23 Co10_23 1_555 1_555
S3_37 C27_37 1_555 1_555
S4_28 C28_28 1_555 1_555
S5_28 C29_28 1_555 1_555
S8_41 C152_41 1_555 1_555
S11_23 C155_23 1_555 1_555
S12_23 C156_23 1_555 1_555
C27_37 N11_37 1_555 1_555
C29_28 N13_28 1_555 1_555
C32_37 N21_37 1_555 1_555
C33_37 N22_37 1_555 1_555
C34_26 H19_26 1_555 1_555
H17_37 C32_37 1_555 1_555
H18_37 C33_37 1_555 1_555
C37_37 C32_37 1_555 1_555
C38_37 C33_37 1_555 1_555
C39_26 C34_26 1_555 1_555
C42_37 C37_37 1_555 1_555
C43_37 C38_37 1_555 1_555
C44_26 C39_26 1_555 1_555
H22_37 C42_37 1_555 1_555
H23_37 C43_37 1_555 1_555
H24_26 C44_26 1_555 1_555
C47_37 C42_37 1_555 1_555
C48_37 C43_37 1_555 1_555
C49_26 C44_26 1_555 1_555
H27_37 C47_37 1_555 1_555
H28_37 C48_37 1_555 1_555
H29_26 C49_26 1_555 1_555
C52_37 N21_37 1_555 1_555
C53_37 N22_37 1_555 1_555
C54_26 N23_18 1_555 1_555
H32_37 C52_37 1_555 1_555
H33_37 C53_37 1_555 1_555
H34_26 C54_26 1_555 1_555
C57_37 N28_28 1_555 1_555
C58_37 N34_17 1_555 1_555
C59_26 N30_26 1_555 1_555
H37_37 C57_37 1_555 1_555
H38_37 C58_37 1_555 1_555
H39_26 C59_26 1_555 1_555
C62_37 C57_37 1_555 1_555
C63_37 C58_37 1_555 1_555
C64_26 C59_26 1_555 1_555
H42_37 C62_37 1_555 1_555
H43_37 C63_37 1_555 1_555
H44_26 C64_26 1_555 1_555
C67_37 C62_37 1_555 1_555
C68_37 C63_37 1_555 1_555
C69_26 C64_26 1_555 1_555
H47_37 C67_37 1_555 1_555
H48_37 C68_37 1_555 1_555
H49_26 C69_26 1_555 1_555
C72_37 C67_37 1_555 1_555
C73_37 C68_37 1_555 1_555
C74_26 C69_26 1_555 1_555
C77_37 N28_28 1_555 1_555
C78_37 N34_17 1_555 1_555
C79_26 N30_26 1_555 1_555
H52_37 C77_37 1_555 1_555
H53_37 C78_37 1_555 1_555
H54_26 C79_26 1_555 1_555
C82_37 C72_37 1_555 1_555
C83_37 C73_37 1_555 1_555
C84_26 C74_26 1_555 1_555
C87_37 N40_37 1_555 1_555
C88_37 N41_37 1_555 1_555
C89_26 N42_26 1_555 1_555
C92_37 N35_37 1_555 1_555
C93_37 N36_37 1_555 1_555
C94_26 N37_26 1_555 1_555
C97_37 N56_2 1_555 1_555
C98_37 N51_23 1_555 1_555
C99_26 H59_26 1_555 1_555
H57_37 C97_37 1_555 1_555
H58_37 C98_37 1_555 1_555
C102_37 C97_37 1_555 1_555
C103_37 C98_37 1_555 1_555
C104_26 C99_26 1_555 1_555
H62_37 C102_37 1_555 1_555
H63_37 C103_37 1_555 1_555
H64_26 C104_26 1_555 1_555
C107_37 C102_37 1_555 1_555
C108_37 C103_37 1_555 1_555
C109_26 C104_26 1_555 1_555
H67_37 C107_37 1_555 1_555
H68_37 C108_37 1_555 1_555
H69_26 C109_26 1_555 1_555
C112_37 C92_37 1_555 1_555
C113_37 C93_37 1_555 1_555
C114_26 C94_26 1_555 1_555
C117_37 N56_2 1_555 1_555
C118_37 N51_23 1_555 1_555
C119_26 N52_26 1_555 1_555
H72_37 C117_37 1_555 1_555
H73_37 C118_37 1_555 1_555
H74_26 C119_26 1_555 1_555
C152_41 N16_41 1_555 1_555
C156_23 N20_23 1_555 1_555
N45_37 C92_37 1_555 1_555
N46_37 C93_37 1_555 1_555
N47_26 C94_26 1_555 1_555
C37_37 C87_37 1_555 1_555
C38_37 C88_37 1_555 1_555
C39_26 C89_26 1_555 1_555
C47_37 C52_37 1_555 1_555
C48_37 C53_37 1_555 1_555
C49_26 C54_26 1_555 1_555
C72_37 C77_37 1_555 1_555
C73_37 C78_37 1_555 1_555
C74_26 C79_26 1_555 1_555
C107_37 C112_37 1_555 1_555
C108_37 C113_37 1_555 1_555
C109_26 C114_26 1_555 1_555
C112_37 C117_37 1_555 1_555
C113_37 C118_37 1_555 1_555
C114_26 C119_26 1_555 1_555
Co8_5 N1_38 1_555 1_555
N1_38 C1_38 1_555 1_555
S1_38 C1_38 1_555 1_555
N22_38 Co8_5 1_555 1_555
N36_38 C83_38 1_555 1_555
N41_38 C83_38 1_555 1_555
N46_38 C88_38 1_555 1_555
C33_38 N22_38 1_555 1_555
H18_38 C33_38 1_555 1_555
C38_38 C33_38 1_555 1_555
C43_38 C38_38 1_555 1_555
H23_38 C43_38 1_555 1_555
C48_38 C43_38 1_555 1_555
H28_38 C48_38 1_555 1_555
C53_38 N22_38 1_555 1_555
H33_38 C53_38 1_555 1_555
C58_38 N34_16 1_555 1_555
H38_38 C58_38 1_555 1_555
C63_38 C58_38 1_555 1_555
H43_38 C63_38 1_555 1_555
C68_38 C63_38 1_555 1_555
H48_38 C68_38 1_555 1_555
C73_38 C68_38 1_555 1_555
C78_38 N34_16 1_555 1_555
H53_38 C78_38 1_555 1_555
C83_38 C73_38 1_555 1_555
C88_38 N41_38 1_555 1_555
C93_38 N36_38 1_555 1_555
C98_38 N56_19 1_555 1_555
H58_38 C98_38 1_555 1_555
C103_38 C98_38 1_555 1_555
H63_38 C103_38 1_555 1_555
C108_38 C103_38 1_555 1_555
H68_38 C108_38 1_555 1_555
C113_38 C93_38 1_555 1_555
C118_38 N56_19 1_555 1_555
H73_38 C118_38 1_555 1_555
N46_38 C93_38 1_555 1_555
C38_38 C88_38 1_555 1_555
C48_38 C53_38 1_555 1_555
C73_38 C78_38 1_555 1_555
C108_38 C113_38 1_555 1_555
C113_38 C118_38 1_555 1_555
Co12_4 N2_42 1_555 1_555
N27_11 C2_20 1_555 1_555
N4_20 Co8_6 1_555 1_555
N5_20 C12_20 1_555 1_555
N6_20 C12_20 1_555 1_555
N7_20 C13_20 1_555 1_555
N8_20 Co12_4 1_555 1_555
C2_20 H1_20 1_555 1_555
C3_20 C2_20 1_555 1_555
C4_20 C3_20 1_555 1_555
H2_20 C4_20 1_555 1_555
C5_20 C4_20 1_555 1_555
H3_20 C5_20 1_555 1_555
C6_20 N27_11 1_555 1_555
H4_20 C6_20 1_555 1_555
C7_20 N4_20 1_555 1_555
H5_20 C7_20 1_555 1_555
C8_20 C7_20 1_555 1_555
H6_20 C8_20 1_555 1_555
C9_20 C8_20 1_555 1_555
H7_20 C9_20 1_555 1_555
C10_20 C9_20 1_555 1_555
C11_20 N4_20 1_555 1_555
H8_20 C11_20 1_555 1_555
C12_20 C10_20 1_555 1_555
C13_20 N6_20 1_555 1_555
C14_20 N5_20 1_555 1_555
C15_20 N8_20 1_555 1_555
H9_20 C15_20 1_555 1_555
C16_20 C15_20 1_555 1_555
H10_20 C16_20 1_555 1_555
C17_20 C16_20 1_555 1_555
H11_20 C17_20 1_555 1_555
C18_20 C14_20 1_555 1_555
C19_20 N8_20 1_555 1_555
H12_20 C19_20 1_555 1_555
Co6_24 N12_29 1_555 1_555
Co7_20 N32_25 1_555 1_555
Co12_7 N54_25 1_555 1_555
N11_38 Co8_6 1_555 1_555
N12_29 C28_29 1_555 1_555
N13_29 Co6_24 1_555 1_555
N16_42 Co12_4 1_555 1_555
N21_38 Co8_6 1_555 1_555
N25_21 Co6_24 1_555 1_555
N28_29 Co6_24 1_555 1_555
N32_25 C61_25 1_555 1_555
N33_29 Co6_24 1_555 1_555
N35_38 C82_38 1_555 1_555
N39_25 C86_25 1_555 1_555
N40_38 C82_38 1_555 1_555
N44_25 C86_25 1_555 1_555
N45_38 C87_38 1_555 1_555
N49_25 C91_25 1_555 1_555
N54_25 C101_25 1_555 1_555
S3_38 C27_38 1_555 1_555
S4_29 C28_29 1_555 1_555
S5_29 C29_29 1_555 1_555
C27_38 N11_38 1_555 1_555
C29_29 N13_29 1_555 1_555
C32_38 N21_38 1_555 1_555
C36_25 N25_21 1_555 1_555
H17_38 C32_38 1_555 1_555
H21_25 C36_25 1_555 1_555
C37_38 C32_38 1_555 1_555
C41_25 C36_25 1_555 1_555
C42_38 C37_38 1_555 1_555
C46_25 C41_25 1_555 1_555
H22_38 C42_38 1_555 1_555
H26_25 C46_25 1_555 1_555
C47_38 C42_38 1_555 1_555
C51_25 C46_25 1_555 1_555
H27_38 C47_38 1_555 1_555
H31_25 C51_25 1_555 1_555
C52_38 N21_38 1_555 1_555
C56_25 N25_21 1_555 1_555
H32_38 C52_38 1_555 1_555
H36_25 C56_25 1_555 1_555
C57_38 N28_29 1_555 1_555
C61_25 H41_25 1_555 1_555
H37_38 C57_38 1_555 1_555
C62_38 C57_38 1_555 1_555
C66_25 C61_25 1_555 1_555
H42_38 C62_38 1_555 1_555
H46_25 C66_25 1_555 1_555
C67_38 C62_38 1_555 1_555
C71_25 C66_25 1_555 1_555
H47_38 C67_38 1_555 1_555
H51_25 C71_25 1_555 1_555
C72_38 C67_38 1_555 1_555
C76_25 C71_25 1_555 1_555
C77_38 N28_29 1_555 1_555
C81_25 N32_25 1_555 1_555
H52_38 C77_38 1_555 1_555
H56_25 C81_25 1_555 1_555
C82_38 C72_38 1_555 1_555
C86_25 C76_25 1_555 1_555
C87_38 N40_38 1_555 1_555
C91_25 N44_25 1_555 1_555
C92_38 N35_38 1_555 1_555
C96_25 N39_25 1_555 1_555
C97_38 N56_23 1_555 1_555
C101_25 H61_25 1_555 1_555
H57_38 C97_38 1_555 1_555
C102_38 C97_38 1_555 1_555
C106_25 C101_25 1_555 1_555
H62_38 C102_38 1_555 1_555
H66_25 C106_25 1_555 1_555
C107_38 C102_38 1_555 1_555
C111_25 C106_25 1_555 1_555
H67_38 C107_38 1_555 1_555
H71_25 C111_25 1_555 1_555
C112_38 C92_38 1_555 1_555
C116_25 C96_25 1_555 1_555
C117_38 N56_23 1_555 1_555
C121_25 N54_25 1_555 1_555
H72_38 C117_38 1_555 1_555
H76_25 C121_25 1_555 1_555
N7_20 C14_20 1_555 1_555
C3_20 C13_20 1_555 1_555
C5_20 C6_20 1_555 1_555
C10_20 C11_20 1_555 1_555
C17_20 C18_20 1_555 1_555
C18_20 C19_20 1_555 1_555
N45_38 C92_38 1_555 1_555
N49_25 C96_25 1_555 1_555
C37_38 C87_38 1_555 1_555
C41_25 C91_25 1_555 1_555
C47_38 C52_38 1_555 1_555
C51_25 C56_25 1_555 1_555
C72_38 C77_38 1_555 1_555
C76_25 C81_25 1_555 1_555
C107_38 C112_38 1_555 1_555
C111_25 C116_25 1_555 1_555
C112_38 C117_38 1_555 1_555
C116_25 C121_25 1_555 1_555
S2_42 C26_42 1_555 1_555
S8_42 C152_42 1_555 1_555
N10_16 C25_16 1_555 1_555
S2_43 C26_43 1_555 1_555
C20_16 N9_16 1_555 1_555
H13_16 C20_16 1_555 1_555
C21_16 C20_16 1_555 1_555
H14_16 C21_16 1_555 1_555
C22_16 C21_16 1_555 1_555
H15_16 C22_16 1_555 1_555
C23_16 C22_16 1_555 1_555
C24_16 N9_16 1_555 1_555
H16_16 C24_16 1_555 1_555
C25_16 C23_16 1_555 1_555
Co13_6 N57_16 1_555 1_555
Co12_7 N58_16 1_555 1_555
N57_16 C122_16 1_555 1_555
N58_16 C123_16 1_555 1_555
N66_16 C147_16 1_555 1_555
N67_16 C25_16 1_555 1_555
S8_43 C152_43 1_555 1_555
C122_16 H77_16 1_555 1_555
C123_16 H78_16 1_555 1_555
C127_16 C122_16 1_555 1_555
C128_16 C123_16 1_555 1_555
H82_16 C127_16 1_555 1_555
H83_16 C128_16 1_555 1_555
C132_16 C127_16 1_555 1_555
C133_16 C128_16 1_555 1_555
H87_16 C132_16 1_555 1_555
H88_16 C133_16 1_555 1_555
C137_16 C132_16 1_555 1_555
C138_16 C133_16 1_555 1_555
C142_16 N57_16 1_555 1_555
C143_16 N58_16 1_555 1_555
H92_16 C142_16 1_555 1_555
H93_16 C143_16 1_555 1_555
C147_16 N10_16 1_555 1_555
C148_16 N66_16 1_555 1_555
C23_16 C24_16 1_555 1_555
N67_16 C148_16 1_555 1_555
C137_16 C142_16 1_555 1_555
C137_16 C148_16 1_555 1_555
C138_16 C143_16 1_555 1_555
C138_16 C147_16 1_555 1_555
Co13_4 N2_43 1_555 1_555
Co7_19 N31_25 1_555 1_555
N16_43 Co13_4 1_555 1_555
N31_25 C60_25 1_555 1_555
N38_25 C85_25 1_555 1_555
N43_25 C85_25 1_555 1_555
N48_25 C90_25 1_555 1_555
N53_25 Co13_4 1_555 1_555
C35_25 N26_4 1_555 1_555
H20_25 C35_25 1_555 1_555
C40_25 C35_25 1_555 1_555
C45_25 C40_25 1_555 1_555
H25_25 C45_25 1_555 1_555
C50_25 C45_25 1_555 1_555
H30_25 C50_25 1_555 1_555
C55_25 N26_4 1_555 1_555
H35_25 C55_25 1_555 1_555
C60_25 H40_25 1_555 1_555
C65_25 C60_25 1_555 1_555
H45_25 C65_25 1_555 1_555
C70_25 C65_25 1_555 1_555
H50_25 C70_25 1_555 1_555
C75_25 C70_25 1_555 1_555
C80_25 N31_25 1_555 1_555
H55_25 C80_25 1_555 1_555
C85_25 C75_25 1_555 1_555
C90_25 N43_25 1_555 1_555
C95_25 N38_25 1_555 1_555
C100_25 N53_25 1_555 1_555
H60_25 C100_25 1_555 1_555
C105_25 C100_25 1_555 1_555
H65_25 C105_25 1_555 1_555
C110_25 C105_25 1_555 1_555
H70_25 C110_25 1_555 1_555
C115_25 C95_25 1_555 1_555
C120_25 N53_25 1_555 1_555
H75_25 C120_25 1_555 1_555
N48_25 C95_25 1_555 1_555
C40_25 C90_25 1_555 1_555
C50_25 C55_25 1_555 1_555
C75_25 C80_25 1_555 1_555
C110_25 C115_25 1_555 1_555
C115_25 C120_25 1_555 1_555
Co8_4 N1_39 1_555 1_555
N1_39 C1_39 1_555 1_555
S1_39 C1_39 1_555 1_555
N11_39 Co8_4 1_555 1_555
N21_39 Co8_4 1_555 1_555
N22_39 Co8_4 1_555 1_555
N35_39 C82_39 1_555 1_555
N36_39 C83_39 1_555 1_555
N40_39 C82_39 1_555 1_555
N41_39 C83_39 1_555 1_555
N45_39 C87_39 1_555 1_555
N46_39 C88_39 1_555 1_555
S3_39 C27_39 1_555 1_555
C27_39 N11_39 1_555 1_555
C32_39 N21_39 1_555 1_555
C33_39 N22_39 1_555 1_555
H17_39 C32_39 1_555 1_555
H18_39 C33_39 1_555 1_555
C37_39 C32_39 1_555 1_555
C38_39 C33_39 1_555 1_555
C42_39 C37_39 1_555 1_555
C43_39 C38_39 1_555 1_555
H22_39 C42_39 1_555 1_555
H23_39 C43_39 1_555 1_555
C47_39 C42_39 1_555 1_555
C48_39 C43_39 1_555 1_555
H27_39 C47_39 1_555 1_555
H28_39 C48_39 1_555 1_555
C52_39 N21_39 1_555 1_555
C53_39 N22_39 1_555 1_555
H32_39 C52_39 1_555 1_555
H33_39 C53_39 1_555 1_555
C57_39 N33_16 1_555 1_555
C58_39 N33_22 1_555 1_555
H37_39 C57_39 1_555 1_555
H38_39 C58_39 1_555 1_555
C62_39 C57_39 1_555 1_555
C63_39 C58_39 1_555 1_555
H42_39 C62_39 1_555 1_555
H43_39 C63_39 1_555 1_555
C67_39 C62_39 1_555 1_555
C68_39 C63_39 1_555 1_555
H47_39 C67_39 1_555 1_555
H48_39 C68_39 1_555 1_555
C72_39 C67_39 1_555 1_555
C73_39 C68_39 1_555 1_555
C77_39 N33_16 1_555 1_555
C78_39 N33_22 1_555 1_555
H52_39 C77_39 1_555 1_555
H53_39 C78_39 1_555 1_555
C82_39 C72_39 1_555 1_555
C83_39 C73_39 1_555 1_555
C87_39 N40_39 1_555 1_555
C88_39 N41_39 1_555 1_555
C92_39 N35_39 1_555 1_555
C93_39 N36_39 1_555 1_555
C97_39 N55_19 1_555 1_555
C98_39 N56_18 1_555 1_555
H57_39 C97_39 1_555 1_555
H58_39 C98_39 1_555 1_555
C102_39 C97_39 1_555 1_555
C103_39 C98_39 1_555 1_555
H62_39 C102_39 1_555 1_555
H63_39 C103_39 1_555 1_555
C107_39 C102_39 1_555 1_555
C108_39 C103_39 1_555 1_555
H67_39 C107_39 1_555 1_555
H68_39 C108_39 1_555 1_555
C112_39 C92_39 1_555 1_555
C113_39 C93_39 1_555 1_555
C117_39 N55_19 1_555 1_555
C118_39 N56_18 1_555 1_555
H72_39 C117_39 1_555 1_555
H73_39 C118_39 1_555 1_555
N45_39 C92_39 1_555 1_555
N46_39 C93_39 1_555 1_555
C37_39 C87_39 1_555 1_555
C38_39 C88_39 1_555 1_555
C47_39 C52_39 1_555 1_555
C48_39 C53_39 1_555 1_555
C72_39 C77_39 1_555 1_555
C73_39 C78_39 1_555 1_555
C107_39 C112_39 1_555 1_555
C108_39 C113_39 1_555 1_555
C112_39 C117_39 1_555 1_555
C113_39 C118_39 1_555 1_555
S9_25 C153_25 1_555 1_555
S10_25 C154_25 1_555 1_555
Co12_7 N2_44 1_555 1_555
N2_44 C26_44 1_555 1_555
S2_44 C26_44 1_555 1_555
Co9_25 N17_25 1_555 1_555
N11_40 Co7_20 1_555 1_555
N16_44 Co12_7 1_555 1_555
N18_25 Co9_25 1_555 1_555
N21_40 Co7_20 1_555 1_555
N35_40 C82_40 1_555 1_555
N40_40 C82_40 1_555 1_555
N45_40 C87_40 1_555 1_555
N50_25 Co9_25 1_555 1_555
N55_25 Co9_25 1_555 1_555
S3_40 C27_40 1_555 1_555
S8_44 C152_44 1_555 1_555
C27_40 N11_40 1_555 1_555
C32_40 N21_40 1_555 1_555
H17_40 C32_40 1_555 1_555
C37_40 C32_40 1_555 1_555
C42_40 C37_40 1_555 1_555
H22_40 C42_40 1_555 1_555
C47_40 C42_40 1_555 1_555
H27_40 C47_40 1_555 1_555
C52_40 N21_40 1_555 1_555
H32_40 C52_40 1_555 1_555
C57_40 N33_26 1_555 1_555
H37_40 C57_40 1_555 1_555
C62_40 C57_40 1_555 1_555
H42_40 C62_40 1_555 1_555
C67_40 C62_40 1_555 1_555
H47_40 C67_40 1_555 1_555
C72_40 C67_40 1_555 1_555
C77_40 N33_26 1_555 1_555
H52_40 C77_40 1_555 1_555
C82_40 C72_40 1_555 1_555
C87_40 N40_40 1_555 1_555
C92_40 N35_40 1_555 1_555
C97_40 N50_25 1_555 1_555
H57_40 C97_40 1_555 1_555
C102_40 C97_40 1_555 1_555
H62_40 C102_40 1_555 1_555
C107_40 C102_40 1_555 1_555
H67_40 C107_40 1_555 1_555
C112_40 C92_40 1_555 1_555
C117_40 N50_25 1_555 1_555
H72_40 C117_40 1_555 1_555
C152_44 N16_44 1_555 1_555
N45_40 C92_40 1_555 1_555
C37_40 C87_40 1_555 1_555
C47_40 C52_40 1_555 1_555
C72_40 C77_40 1_555 1_555
C107_40 C112_40 1_555 1_555
C112_40 C117_40 1_555 1_555
Co7_21 N1_40 1_555 1_555
N1_40 C1_40 1_555 1_555
S1_40 C1_40 1_555 1_555
N22_40 Co7_21 1_555 1_555
N36_40 C83_40 1_555 1_555
N41_40 C83_40 1_555 1_555
N46_40 C88_40 1_555 1_555
C33_40 N22_40 1_555 1_555
H18_40 C33_40 1_555 1_555
C38_40 C33_40 1_555 1_555
C43_40 C38_40 1_555 1_555
H23_40 C43_40 1_555 1_555
C48_40 C43_40 1_555 1_555
H28_40 C48_40 1_555 1_555
C53_40 N22_40 1_555 1_555
H33_40 C53_40 1_555 1_555
C58_40 N33_14 1_555 1_555
H38_40 C58_40 1_555 1_555
C63_40 C58_40 1_555 1_555
H43_40 C63_40 1_555 1_555
C68_40 C63_40 1_555 1_555
H48_40 C68_40 1_555 1_555
C73_40 C68_40 1_555 1_555
C78_40 N33_14 1_555 1_555
H53_40 C78_40 1_555 1_555
C83_40 C73_40 1_555 1_555
C88_40 N41_40 1_555 1_555
C93_40 N36_40 1_555 1_555
C98_40 N55_24 1_555 1_555
H58_40 C98_40 1_555 1_555
C103_40 C98_40 1_555 1_555
H63_40 C103_40 1_555 1_555
C108_40 C103_40 1_555 1_555
H68_40 C108_40 1_555 1_555
C113_40 C93_40 1_555 1_555
C118_40 N55_24 1_555 1_555
H73_40 C118_40 1_555 1_555
N46_40 C93_40 1_555 1_555
C38_40 C88_40 1_555 1_555
C48_40 C53_40 1_555 1_555
C73_40 C78_40 1_555 1_555
C108_40 C113_40 1_555 1_555
C113_40 C118_40 1_555 1_555
Co8_20 N1_41 1_555 1_555
N1_41 C1_41 1_555 1_555
S1_41 C1_41 1_555 1_555
N11_41 Co8_20 1_555 1_555
N21_41 Co8_20 1_555 1_555
N22_41 Co8_20 1_555 1_555
N35_41 C82_41 1_555 1_555
N36_41 C83_41 1_555 1_555
N40_41 C82_41 1_555 1_555
N41_41 C83_41 1_555 1_555
N45_41 C87_41 1_555 1_555
N46_41 C88_41 1_555 1_555
S3_41 C27_41 1_555 1_555
C27_41 N11_41 1_555 1_555
C32_41 N21_41 1_555 1_555
C33_41 N22_41 1_555 1_555
H17_41 C32_41 1_555 1_555
H18_41 C33_41 1_555 1_555
C37_41 C32_41 1_555 1_555
C38_41 C33_41 1_555 1_555
C42_41 C37_41 1_555 1_555
C43_41 C38_41 1_555 1_555
H22_41 C42_41 1_555 1_555
H23_41 C43_41 1_555 1_555
C47_41 C42_41 1_555 1_555
C48_41 C43_41 1_555 1_555
H27_41 C47_41 1_555 1_555
H28_41 C48_41 1_555 1_555
C52_41 N21_41 1_555 1_555
C53_41 N22_41 1_555 1_555
H32_41 C52_41 1_555 1_555
H33_41 C53_41 1_555 1_555
C57_41 N33_10 1_555 1_555
C58_41 N33_25 1_555 1_555
H37_41 C57_41 1_555 1_555
H38_41 C58_41 1_555 1_555
C62_41 C57_41 1_555 1_555
C63_41 C58_41 1_555 1_555
H42_41 C62_41 1_555 1_555
H43_41 C63_41 1_555 1_555
C67_41 C62_41 1_555 1_555
C68_41 C63_41 1_555 1_555
H47_41 C67_41 1_555 1_555
H48_41 C68_41 1_555 1_555
C72_41 C67_41 1_555 1_555
C73_41 C68_41 1_555 1_555
C77_41 N33_10 1_555 1_555
C78_41 N33_25 1_555 1_555
H52_41 C77_41 1_555 1_555
H53_41 C78_41 1_555 1_555
C82_41 C72_41 1_555 1_555
C83_41 C73_41 1_555 1_555
C87_41 N40_41 1_555 1_555
C88_41 N41_41 1_555 1_555
C92_41 N35_41 1_555 1_555
C93_41 N36_41 1_555 1_555
C97_41 N56_6 1_555 1_555
C98_41 N55_23 1_555 1_555
H57_41 C97_41 1_555 1_555
H58_41 C98_41 1_555 1_555
C102_41 C97_41 1_555 1_555
C103_41 C98_41 1_555 1_555
H62_41 C102_41 1_555 1_555
H63_41 C103_41 1_555 1_555
C107_41 C102_41 1_555 1_555
C108_41 C103_41 1_555 1_555
H67_41 C107_41 1_555 1_555
H68_41 C108_41 1_555 1_555
C112_41 C92_41 1_555 1_555
C113_41 C93_41 1_555 1_555
C117_41 N56_6 1_555 1_555
C118_41 N55_23 1_555 1_555
H72_41 C117_41 1_555 1_555
H73_41 C118_41 1_555 1_555
N45_41 C92_41 1_555 1_555
N46_41 C93_41 1_555 1_555
C37_41 C87_41 1_555 1_555
C38_41 C88_41 1_555 1_555
C47_41 C52_41 1_555 1_555
C48_41 C53_41 1_555 1_555
C72_41 C77_41 1_555 1_555
C73_41 C78_41 1_555 1_555
C107_41 C112_41 1_555 1_555
C108_41 C113_41 1_555 1_555
C112_41 C117_41 1_555 1_555
C113_41 C118_41 1_555 1_555
Co16_3 N2_45 1_555 1_555
N2_45 C26_45 1_555 1_555
S2_45 C26_45 1_555 1_555
N16_45 Co16_3 1_555 1_555
S8_45 C152_45 1_555 1_555
C152_45 N16_45 1_555 1_555
Co7_6 N1_42 1_555 1_555
N1_42 C1_42 1_555 1_555
S1_42 C1_42 1_555 1_555
N11_42 Co7_6 1_555 1_555
N21_42 Co7_6 1_555 1_555
N22_42 Co7_6 1_555 1_555
N35_42 C82_42 1_555 1_555
N36_42 C83_42 1_555 1_555
N40_42 C82_42 1_555 1_555
N41_42 C83_42 1_555 1_555
N45_42 C87_42 1_555 1_555
N46_42 C88_42 1_555 1_555
S3_42 C27_42 1_555 1_555
C27_42 N11_42 1_555 1_555
C32_42 N21_42 1_555 1_555
C33_42 N22_42 1_555 1_555
H17_42 C32_42 1_555 1_555
H18_42 C33_42 1_555 1_555
C37_42 C32_42 1_555 1_555
C38_42 C33_42 1_555 1_555
C42_42 C37_42 1_555 1_555
C43_42 C38_42 1_555 1_555
H22_42 C42_42 1_555 1_555
H23_42 C43_42 1_555 1_555
C47_42 C42_42 1_555 1_555
C48_42 C43_42 1_555 1_555
H27_42 C47_42 1_555 1_555
H28_42 C48_42 1_555 1_555
C52_42 N21_42 1_555 1_555
C53_42 N22_42 1_555 1_555
H32_42 C52_42 1_555 1_555
H33_42 C53_42 1_555 1_555
C57_42 N33_18 1_555 1_555
C58_42 N33_7 1_555 1_555
H37_42 C57_42 1_555 1_555
H38_42 C58_42 1_555 1_555
C62_42 C57_42 1_555 1_555
C63_42 C58_42 1_555 1_555
H42_42 C62_42 1_555 1_555
H43_42 C63_42 1_555 1_555
C67_42 C62_42 1_555 1_555
C68_42 C63_42 1_555 1_555
H47_42 C67_42 1_555 1_555
H48_42 C68_42 1_555 1_555
C72_42 C67_42 1_555 1_555
C73_42 C68_42 1_555 1_555
C77_42 N33_18 1_555 1_555
C78_42 N33_7 1_555 1_555
H52_42 C77_42 1_555 1_555
H53_42 C78_42 1_555 1_555
C82_42 C72_42 1_555 1_555
C83_42 C73_42 1_555 1_555
C87_42 N40_42 1_555 1_555
C88_42 N41_42 1_555 1_555
C92_42 N35_42 1_555 1_555
C93_42 N36_42 1_555 1_555
C97_42 N55_5 1_555 1_555
C98_42 N55_9 1_555 1_555
H57_42 C97_42 1_555 1_555
H58_42 C98_42 1_555 1_555
C102_42 C97_42 1_555 1_555
C103_42 C98_42 1_555 1_555
H62_42 C102_42 1_555 1_555
H63_42 C103_42 1_555 1_555
C107_42 C102_42 1_555 1_555
C108_42 C103_42 1_555 1_555
H67_42 C107_42 1_555 1_555
H68_42 C108_42 1_555 1_555
C112_42 C92_42 1_555 1_555
C113_42 C93_42 1_555 1_555
C117_42 N55_5 1_555 1_555
C118_42 N55_9 1_555 1_555
H72_42 C117_42 1_555 1_555
H73_42 C118_42 1_555 1_555
N45_42 C92_42 1_555 1_555
N46_42 C93_42 1_555 1_555
C37_42 C87_42 1_555 1_555
C38_42 C88_42 1_555 1_555
C47_42 C52_42 1_555 1_555
C48_42 C53_42 1_555 1_555
C72_42 C77_42 1_555 1_555
C73_42 C78_42 1_555 1_555
C107_42 C112_42 1_555 1_555
C108_42 C113_42 1_555 1_555
C112_42 C117_42 1_555 1_555
C113_42 C118_42 1_555 1_555
Co7_17 N1_43 1_555 1_555
N1_43 C1_43 1_555 1_555
S1_43 C1_43 1_555 1_555
N11_43 Co7_17 1_555 1_555
N21_43 Co7_17 1_555 1_555
N22_43 Co7_17 1_555 1_555
N35_43 C82_43 1_555 1_555
N36_43 C83_43 1_555 1_555
N40_43 C82_43 1_555 1_555
N41_43 C83_43 1_555 1_555
N45_43 C87_43 1_555 1_555
N46_43 C88_43 1_555 1_555
S3_43 C27_43 1_555 1_555
C27_43 N11_43 1_555 1_555
C32_43 N21_43 1_555 1_555
C33_43 N22_43 1_555 1_555
H17_43 C32_43 1_555 1_555
H18_43 C33_43 1_555 1_555
C37_43 C32_43 1_555 1_555
C38_43 C33_43 1_555 1_555
C42_43 C37_43 1_555 1_555
C43_43 C38_43 1_555 1_555
H22_43 C42_43 1_555 1_555
H23_43 C43_43 1_555 1_555
C47_43 C42_43 1_555 1_555
C48_43 C43_43 1_555 1_555
H27_43 C47_43 1_555 1_555
H28_43 C48_43 1_555 1_555
C52_43 N21_43 1_555 1_555
C53_43 N22_43 1_555 1_555
H32_43 C52_43 1_555 1_555
H33_43 C53_43 1_555 1_555
C57_43 N33_23 1_555 1_555
C58_43 N33_28 1_555 1_555
H37_43 C57_43 1_555 1_555
H38_43 C58_43 1_555 1_555
C62_43 C57_43 1_555 1_555
C63_43 C58_43 1_555 1_555
H42_43 C62_43 1_555 1_555
H43_43 C63_43 1_555 1_555
C67_43 C62_43 1_555 1_555
C68_43 C63_43 1_555 1_555
H47_43 C67_43 1_555 1_555
H48_43 C68_43 1_555 1_555
C72_43 C67_43 1_555 1_555
C73_43 C68_43 1_555 1_555
C77_43 N33_23 1_555 1_555
C78_43 N33_28 1_555 1_555
H52_43 C77_43 1_555 1_555
H53_43 C78_43 1_555 1_555
C82_43 C72_43 1_555 1_555
C83_43 C73_43 1_555 1_555
C87_43 N40_43 1_555 1_555
C88_43 N41_43 1_555 1_555
C92_43 N35_43 1_555 1_555
C93_43 N36_43 1_555 1_555
C97_43 N56_15 1_555 1_555
C98_43 N55_20 1_555 1_555
H57_43 C97_43 1_555 1_555
H58_43 C98_43 1_555 1_555
C102_43 C97_43 1_555 1_555
C103_43 C98_43 1_555 1_555
H62_43 C102_43 1_555 1_555
H63_43 C103_43 1_555 1_555
C107_43 C102_43 1_555 1_555
C108_43 C103_43 1_555 1_555
H67_43 C107_43 1_555 1_555
H68_43 C108_43 1_555 1_555
C112_43 C92_43 1_555 1_555
C113_43 C93_43 1_555 1_555
C117_43 N56_15 1_555 1_555
C118_43 N55_20 1_555 1_555
H72_43 C117_43 1_555 1_555
H73_43 C118_43 1_555 1_555
N45_43 C92_43 1_555 1_555
N46_43 C93_43 1_555 1_555
C37_43 C87_43 1_555 1_555
C38_43 C88_43 1_555 1_555
C47_43 C52_43 1_555 1_555
C48_43 C53_43 1_555 1_555
C72_43 C77_43 1_555 1_555
C73_43 C78_43 1_555 1_555
C107_43 C112_43 1_555 1_555
C108_43 C113_43 1_555 1_555
C112_43 C117_43 1_555 1_555
C113_43 C118_43 1_555 1_555
Co14 N2_46 1_555 1_555
N2_46 C26_46 1_555 1_555
S2_46 C26_46 1_555 1_555
N16_46 Co14 1_555 1_555
S8_46 C152_46 1_555 1_555
C152_46 N16_46 1_555 1_555
Co8_2 N1_44 1_555 1_555
N1_44 C1_44 1_555 1_555
S1_44 C1_44 1_555 1_555
N11_44 Co8_2 1_555 1_555
N21_44 Co8_2 1_555 1_555
N22_44 Co8_2 1_555 1_555
N35_44 C82_44 1_555 1_555
N36_44 C83_44 1_555 1_555
N40_44 C82_44 1_555 1_555
N41_44 C83_44 1_555 1_555
N45_44 C87_44 1_555 1_555
N46_44 C88_44 1_555 1_555
S3_44 C27_44 1_555 1_555
C27_44 N11_44 1_555 1_555
C32_44 N21_44 1_555 1_555
C33_44 N22_44 1_555 1_555
H17_44 C32_44 1_555 1_555
H18_44 C33_44 1_555 1_555
C37_44 C32_44 1_555 1_555
C38_44 C33_44 1_555 1_555
C42_44 C37_44 1_555 1_555
C43_44 C38_44 1_555 1_555
H22_44 C42_44 1_555 1_555
H23_44 C43_44 1_555 1_555
C47_44 C42_44 1_555 1_555
C48_44 C43_44 1_555 1_555
H27_44 C47_44 1_555 1_555
H28_44 C48_44 1_555 1_555
C52_44 N21_44 1_555 1_555
C53_44 N22_44 1_555 1_555
H32_44 C52_44 1_555 1_555
H33_44 C53_44 1_555 1_555
C57_44 N33_9 1_555 1_555
C58_44 N34_14 1_555 1_555
H37_44 C57_44 1_555 1_555
H38_44 C58_44 1_555 1_555
C62_44 C57_44 1_555 1_555
C63_44 C58_44 1_555 1_555
H42_44 C62_44 1_555 1_555
H43_44 C63_44 1_555 1_555
C67_44 C62_44 1_555 1_555
C68_44 C63_44 1_555 1_555
H47_44 C67_44 1_555 1_555
H48_44 C68_44 1_555 1_555
C72_44 C67_44 1_555 1_555
C73_44 C68_44 1_555 1_555
C77_44 N33_9 1_555 1_555
C78_44 N34_14 1_555 1_555
H52_44 C77_44 1_555 1_555
H53_44 C78_44 1_555 1_555
C82_44 C72_44 1_555 1_555
C83_44 C73_44 1_555 1_555
C87_44 N40_44 1_555 1_555
C88_44 N41_44 1_555 1_555
C92_44 N35_44 1_555 1_555
C93_44 N36_44 1_555 1_555
C97_44 N55_12 1_555 1_555
C98_44 N55_13 1_555 1_555
H57_44 C97_44 1_555 1_555
H58_44 C98_44 1_555 1_555
C102_44 C97_44 1_555 1_555
C103_44 C98_44 1_555 1_555
H62_44 C102_44 1_555 1_555
H63_44 C103_44 1_555 1_555
C107_44 C102_44 1_555 1_555
C108_44 C103_44 1_555 1_555
H67_44 C107_44 1_555 1_555
H68_44 C108_44 1_555 1_555
C112_44 C92_44 1_555 1_555
C113_44 C93_44 1_555 1_555
C117_44 N55_12 1_555 1_555
C118_44 N55_13 1_555 1_555
H72_44 C117_44 1_555 1_555
H73_44 C118_44 1_555 1_555
N45_44 C92_44 1_555 1_555
N46_44 C93_44 1_555 1_555
C37_44 C87_44 1_555 1_555
C38_44 C88_44 1_555 1_555
C47_44 C52_44 1_555 1_555
C48_44 C53_44 1_555 1_555
C72_44 C77_44 1_555 1_555
C73_44 C78_44 1_555 1_555
C107_44 C112_44 1_555 1_555
C108_44 C113_44 1_555 1_555
C112_44 C117_44 1_555 1_555
C113_44 C118_44 1_555 1_555
Co7_16 N1_45 1_555 1_555
N1_45 C1_45 1_555 1_555
S1_45 C1_45 1_555 1_555
N11_45 Co7_16 1_555 1_555
N21_45 Co7_16 1_555 1_555
N22_45 Co7_16 1_555 1_555
N35_45 C82_45 1_555 1_555
N36_45 C83_45 1_555 1_555
N40_45 C82_45 1_555 1_555
N41_45 C83_45 1_555 1_555
N45_45 C87_45 1_555 1_555
N46_45 C88_45 1_555 1_555
S3_45 C27_45 1_555 1_555
C27_45 N11_45 1_555 1_555
C32_45 N21_45 1_555 1_555
C33_45 N22_45 1_555 1_555
H17_45 C32_45 1_555 1_555
H18_45 C33_45 1_555 1_555
C37_45 C32_45 1_555 1_555
C38_45 C33_45 1_555 1_555
C42_45 C37_45 1_555 1_555
C43_45 C38_45 1_555 1_555
H22_45 C42_45 1_555 1_555
H23_45 C43_45 1_555 1_555
C47_45 C42_45 1_555 1_555
C48_45 C43_45 1_555 1_555
H27_45 C47_45 1_555 1_555
H28_45 C48_45 1_555 1_555
C52_45 N21_45 1_555 1_555
C53_45 N22_45 1_555 1_555
H32_45 C52_45 1_555 1_555
H33_45 C53_45 1_555 1_555
C57_45 N33_20 1_555 1_555
C58_45 N33_29 1_555 1_555
H37_45 C57_45 1_555 1_555
H38_45 C58_45 1_555 1_555
C62_45 C57_45 1_555 1_555
C63_45 C58_45 1_555 1_555
H42_45 C62_45 1_555 1_555
H43_45 C63_45 1_555 1_555
C67_45 C62_45 1_555 1_555
C68_45 C63_45 1_555 1_555
H47_45 C67_45 1_555 1_555
H48_45 C68_45 1_555 1_555
C72_45 C67_45 1_555 1_555
C73_45 C68_45 1_555 1_555
C77_45 N33_20 1_555 1_555
C78_45 N33_29 1_555 1_555
H52_45 C77_45 1_555 1_555
H53_45 C78_45 1_555 1_555
C82_45 C72_45 1_555 1_555
C83_45 C73_45 1_555 1_555
C87_45 N40_45 1_555 1_555
C88_45 N41_45 1_555 1_555
C92_45 N35_45 1_555 1_555
C93_45 N36_45 1_555 1_555
C97_45 N56_16 1_555 1_555
C98_45 N55_25 1_555 1_555
H57_45 C97_45 1_555 1_555
H58_45 C98_45 1_555 1_555
C102_45 C97_45 1_555 1_555
C103_45 C98_45 1_555 1_555
H62_45 C102_45 1_555 1_555
H63_45 C103_45 1_555 1_555
C107_45 C102_45 1_555 1_555
C108_45 C103_45 1_555 1_555
H67_45 C107_45 1_555 1_555
H68_45 C108_45 1_555 1_555
C112_45 C92_45 1_555 1_555
C113_45 C93_45 1_555 1_555
C117_45 N56_16 1_555 1_555
C118_45 N55_25 1_555 1_555
H72_45 C117_45 1_555 1_555
H73_45 C118_45 1_555 1_555
N45_45 C92_45 1_555 1_555
N46_45 C93_45 1_555 1_555
C37_45 C87_45 1_555 1_555
C38_45 C88_45 1_555 1_555
C47_45 C52_45 1_555 1_555
C48_45 C53_45 1_555 1_555
C72_45 C77_45 1_555 1_555
C73_45 C78_45 1_555 1_555
C107_45 C112_45 1_555 1_555
C108_45 C113_45 1_555 1_555
C112_45 C117_45 1_555 1_555
C113_45 C118_45 1_555 1_555
Co13_6 N2_47 1_555 1_555
N2_47 C26_47 1_555 1_555
S2_47 C26_47 1_555 1_555
N16_47 Co13_6 1_555 1_555
S8_47 C152_47 1_555 1_555
C152_47 N16_47 1_555 1_555
Co7_12 N1_46 1_555 1_555
N1_46 C1_46 1_555 1_555
S1_46 C1_46 1_555 1_555
N11_46 Co7_12 1_555 1_555
N21_46 Co7_12 1_555 1_555
N22_46 Co7_12 1_555 1_555
N35_46 C82_46 1_555 1_555
N36_46 C83_46 1_555 1_555
N40_46 C82_46 1_555 1_555
N41_46 C83_46 1_555 1_555
N45_46 C87_46 1_555 1_555
N46_46 C88_46 1_555 1_555
S3_46 C27_46 1_555 1_555
C27_46 N11_46 1_555 1_555
C32_46 N21_46 1_555 1_555
C33_46 N22_46 1_555 1_555
H17_46 C32_46 1_555 1_555
H18_46 C33_46 1_555 1_555
C37_46 C32_46 1_555 1_555
C38_46 C33_46 1_555 1_555
C42_46 C37_46 1_555 1_555
C43_46 C38_46 1_555 1_555
H22_46 C42_46 1_555 1_555
H23_46 C43_46 1_555 1_555
C47_46 C42_46 1_555 1_555
C48_46 C43_46 1_555 1_555
H27_46 C47_46 1_555 1_555
H28_46 C48_46 1_555 1_555
C52_46 N21_46 1_555 1_555
C53_46 N22_46 1_555 1_555
H32_46 C52_46 1_555 1_555
H33_46 C53_46 1_555 1_555
C57_46 N33_8 1_555 1_555
C58_46 N33_17 1_555 1_555
H37_46 C57_46 1_555 1_555
H38_46 C58_46 1_555 1_555
C62_46 C57_46 1_555 1_555
C63_46 C58_46 1_555 1_555
H42_46 C62_46 1_555 1_555
H43_46 C63_46 1_555 1_555
C67_46 C62_46 1_555 1_555
C68_46 C63_46 1_555 1_555
H47_46 C67_46 1_555 1_555
H48_46 C68_46 1_555 1_555
C72_46 C67_46 1_555 1_555
C73_46 C68_46 1_555 1_555
C77_46 N33_8 1_555 1_555
C78_46 N33_17 1_555 1_555
H52_46 C77_46 1_555 1_555
H53_46 C78_46 1_555 1_555
C82_46 C72_46 1_555 1_555
C83_46 C73_46 1_555 1_555
C87_46 N40_46 1_555 1_555
C88_46 N41_46 1_555 1_555
C92_46 N35_46 1_555 1_555
C93_46 N36_46 1_555 1_555
C97_46 N56_11 1_555 1_555
C98_46 N55_17 1_555 1_555
H57_46 C97_46 1_555 1_555
H58_46 C98_46 1_555 1_555
C102_46 C97_46 1_555 1_555
C103_46 C98_46 1_555 1_555
H62_46 C102_46 1_555 1_555
H63_46 C103_46 1_555 1_555
C107_46 C102_46 1_555 1_555
C108_46 C103_46 1_555 1_555
H67_46 C107_46 1_555 1_555
H68_46 C108_46 1_555 1_555
C112_46 C92_46 1_555 1_555
C113_46 C93_46 1_555 1_555
C117_46 N56_11 1_555 1_555
C118_46 N55_17 1_555 1_555
H72_46 C117_46 1_555 1_555
H73_46 C118_46 1_555 1_555
N45_46 C92_46 1_555 1_555
N46_46 C93_46 1_555 1_555
C37_46 C87_46 1_555 1_555
C38_46 C88_46 1_555 1_555
C47_46 C52_46 1_555 1_555
C48_46 C53_46 1_555 1_555
C72_46 C77_46 1_555 1_555
C73_46 C78_46 1_555 1_555
C107_46 C112_46 1_555 1_555
C108_46 C113_46 1_555 1_555
C112_46 C117_46 1_555 1_555
C113_46 C118_46 1_555 1_555
Co7_19 N1_47 1_555 1_555
N1_47 C1_47 1_555 1_555
S1_47 C1_47 1_555 1_555
N11_47 Co7_19 1_555 1_555
N21_47 Co7_19 1_555 1_555
N22_47 Co7_19 1_555 1_555
N35_47 C82_47 1_555 1_555
N36_47 C83_47 1_555 1_555
N40_47 C82_47 1_555 1_555
N41_47 C83_47 1_555 1_555
N45_47 C87_47 1_555 1_555
N46_47 C88_47 1_555 1_555
S3_47 C27_47 1_555 1_555
C27_47 N11_47 1_555 1_555
C32_47 N21_47 1_555 1_555
C33_47 N22_47 1_555 1_555
H17_47 C32_47 1_555 1_555
H18_47 C33_47 1_555 1_555
C37_47 C32_47 1_555 1_555
C38_47 C33_47 1_555 1_555
C42_47 C37_47 1_555 1_555
C43_47 C38_47 1_555 1_555
H22_47 C42_47 1_555 1_555
H23_47 C43_47 1_555 1_555
C47_47 C42_47 1_555 1_555
C48_47 C43_47 1_555 1_555
H27_47 C47_47 1_555 1_555
H28_47 C48_47 1_555 1_555
C52_47 N21_47 1_555 1_555
C53_47 N22_47 1_555 1_555
H32_47 C52_47 1_555 1_555
H33_47 C53_47 1_555 1_555
C57_47 N33_27 1_555 1_555
C58_47 N33_24 1_555 1_555
H37_47 C57_47 1_555 1_555
H38_47 C58_47 1_555 1_555
C62_47 C57_47 1_555 1_555
C63_47 C58_47 1_555 1_555
H42_47 C62_47 1_555 1_555
H43_47 C63_47 1_555 1_555
C67_47 C62_47 1_555 1_555
C68_47 C63_47 1_555 1_555
H47_47 C67_47 1_555 1_555
H48_47 C68_47 1_555 1_555
C72_47 C67_47 1_555 1_555
C73_47 C68_47 1_555 1_555
C77_47 N33_27 1_555 1_555
C78_47 N33_24 1_555 1_555
H52_47 C77_47 1_555 1_555
H53_47 C78_47 1_555 1_555
C82_47 C72_47 1_555 1_555
C83_47 C73_47 1_555 1_555
C87_47 N40_47 1_555 1_555
C88_47 N41_47 1_555 1_555
C92_47 N35_47 1_555 1_555
C93_47 N36_47 1_555 1_555
C97_47 N56_4 1_555 1_555
C98_47 N56_22 1_555 1_555
H57_47 C97_47 1_555 1_555
H58_47 C98_47 1_555 1_555
C102_47 C97_47 1_555 1_555
C103_47 C98_47 1_555 1_555
H62_47 C102_47 1_555 1_555
H63_47 C103_47 1_555 1_555
C107_47 C102_47 1_555 1_555
C108_47 C103_47 1_555 1_555
H67_47 C107_47 1_555 1_555
H68_47 C108_47 1_555 1_555
C112_47 C92_47 1_555 1_555
C113_47 C93_47 1_555 1_555
C117_47 N56_4 1_555 1_555
C118_47 N56_22 1_555 1_555
H72_47 C117_47 1_555 1_555
H73_47 C118_47 1_555 1_555
N45_47 C92_47 1_555 1_555
N46_47 C93_47 1_555 1_555
C37_47 C87_47 1_555 1_555
C38_47 C88_47 1_555 1_555
C47_47 C52_47 1_555 1_555
C48_47 C53_47 1_555 1_555
C72_47 C77_47 1_555 1_555
C73_47 C78_47 1_555 1_555
C107_47 C112_47 1_555 1_555
C108_47 C113_47 1_555 1_555
C112_47 C117_47 1_555 1_555
C113_47 C118_47 1_555 1_555
Co13_7 N2_48 1_555 1_555
N2_48 C26_48 1_555 1_555
S2_48 C26_48 1_555 1_555
N16_48 Co13_7 1_555 1_555
S8_48 C152_48 1_555 1_555
C152_48 N16_48 1_555 1_555
Co7_4 N1_48 1_555 1_555
N1_48 C1_48 1_555 1_555
S1_48 C1_48 1_555 1_555
N11_48 Co7_4 1_555 1_555
N21_48 Co7_4 1_555 1_555
N22_48 Co7_4 1_555 1_555
N35_48 C82_48 1_555 1_555
N36_48 C83_48 1_555 1_555
N40_48 C82_48 1_555 1_555
N41_48 C83_48 1_555 1_555
N45_48 C87_48 1_555 1_555
N46_48 C88_48 1_555 1_555
S3_48 C27_48 1_555 1_555
C27_48 N11_48 1_555 1_555
C32_48 N21_48 1_555 1_555
C33_48 N22_48 1_555 1_555
H17_48 C32_48 1_555 1_555
H18_48 C33_48 1_555 1_555
C37_48 C32_48 1_555 1_555
C38_48 C33_48 1_555 1_555
C42_48 C37_48 1_555 1_555
C43_48 C38_48 1_555 1_555
H22_48 C42_48 1_555 1_555
H23_48 C43_48 1_555 1_555
C47_48 C42_48 1_555 1_555
C48_48 C43_48 1_555 1_555
H27_48 C47_48 1_555 1_555
H28_48 C48_48 1_555 1_555
C52_48 N21_48 1_555 1_555
C53_48 N22_48 1_555 1_555
H32_48 C52_48 1_555 1_555
H33_48 C53_48 1_555 1_555
C57_48 N33_19 1_555 1_555
C58_48 N34_4 1_555 1_555
H37_48 C57_48 1_555 1_555
H38_48 C58_48 1_555 1_555
C62_48 C57_48 1_555 1_555
C63_48 C58_48 1_555 1_555
H42_48 C62_48 1_555 1_555
H43_48 C63_48 1_555 1_555
C67_48 C62_48 1_555 1_555
C68_48 C63_48 1_555 1_555
H47_48 C67_48 1_555 1_555
H48_48 C68_48 1_555 1_555
C72_48 C67_48 1_555 1_555
C73_48 C68_48 1_555 1_555
C77_48 N33_19 1_555 1_555
C78_48 N34_4 1_555 1_555
H52_48 C77_48 1_555 1_555
H53_48 C78_48 1_555 1_555
C82_48 C72_48 1_555 1_555
C83_48 C73_48 1_555 1_555
C87_48 N40_48 1_555 1_555
C88_48 N41_48 1_555 1_555
C92_48 N35_48 1_555 1_555
C93_48 N36_48 1_555 1_555
C97_48 N55_18 1_555 1_555
C98_48 N55_3 1_555 1_555
H57_48 C97_48 1_555 1_555
H58_48 C98_48 1_555 1_555
C102_48 C97_48 1_555 1_555
C103_48 C98_48 1_555 1_555
H62_48 C102_48 1_555 1_555
H63_48 C103_48 1_555 1_555
C107_48 C102_48 1_555 1_555
C108_48 C103_48 1_555 1_555
H67_48 C107_48 1_555 1_555
H68_48 C108_48 1_555 1_555
C112_48 C92_48 1_555 1_555
C113_48 C93_48 1_555 1_555
C117_48 N55_18 1_555 1_555
C118_48 N55_3 1_555 1_555
H72_48 C117_48 1_555 1_555
H73_48 C118_48 1_555 1_555
N45_48 C92_48 1_555 1_555
N46_48 C93_48 1_555 1_555
C37_48 C87_48 1_555 1_555
C38_48 C88_48 1_555 1_555
C47_48 C52_48 1_555 1_555
C48_48 C53_48 1_555 1_555
C72_48 C77_48 1_555 1_555
C73_48 C78_48 1_555 1_555
C107_48 C112_48 1_555 1_555
C108_48 C113_48 1_555 1_555
C112_48 C117_48 1_555 1_555
C113_48 C118_48 1_555 1_555
N10_17 C25_17 1_555 1_555
C20_17 N64_21 1_555 1_555
H13_17 C20_17 1_555 1_555
C21_17 C20_17 1_555 1_555
H14_17 C21_17 1_555 1_555
C22_17 C21_17 1_555 1_555
H15_17 C22_17 1_555 1_555
C23_17 C22_17 1_555 1_555
C24_17 N64_21 1_555 1_555
H16_17 C24_17 1_555 1_555
C25_17 C23_17 1_555 1_555
N65_6 C122_17 1_555 1_555
N64_22 C123_17 1_555 1_555
N62_24 C125_17 1_555 1_555
N65_10 C126_17 1_555 1_555
N66_17 C147_17 1_555 1_555
N67_17 C25_17 1_555 1_555
N68_17 C149_17 1_555 1_555
N69_17 C150_17 1_555 1_555
N70_17 C149_17 1_555 1_555
C122_17 H77_17 1_555 1_555
C123_17 H78_17 1_555 1_555
C124_17 N65_21 1_555 1_555
C125_17 H80_17 1_555 1_555
C126_17 H81_17 1_555 1_555
H79_17 C124_17 1_555 1_555
C127_17 C122_17 1_555 1_555
C128_17 C123_17 1_555 1_555
C129_17 C124_17 1_555 1_555
C130_17 C125_17 1_555 1_555
C131_17 C126_17 1_555 1_555
H82_17 C127_17 1_555 1_555
H83_17 C128_17 1_555 1_555
H84_17 C129_17 1_555 1_555
H85_17 C130_17 1_555 1_555
H86_17 C131_17 1_555 1_555
C132_17 C127_17 1_555 1_555
C133_17 C128_17 1_555 1_555
C134_17 C129_17 1_555 1_555
C135_17 C130_17 1_555 1_555
C136_17 C131_17 1_555 1_555
H87_17 C132_17 1_555 1_555
H88_17 C133_17 1_555 1_555
H89_17 C134_17 1_555 1_555
H90_17 C135_17 1_555 1_555
H91_17 C136_17 1_555 1_555
C137_17 C132_17 1_555 1_555
C138_17 C133_17 1_555 1_555
C139_17 C134_17 1_555 1_555
C140_17 C135_17 1_555 1_555
C141_17 C136_17 1_555 1_555
C142_17 N65_6 1_555 1_555
C143_17 N64_22 1_555 1_555
C144_17 N65_21 1_555 1_555
C145_17 N62_24 1_555 1_555
C146_17 N65_10 1_555 1_555
H92_17 C142_17 1_555 1_555
H93_17 C143_17 1_555 1_555
H94_17 C144_17 1_555 1_555
H95_17 C145_17 1_555 1_555
H96_17 C146_17 1_555 1_555
C147_17 N10_17 1_555 1_555
C148_17 N66_17 1_555 1_555
C149_17 C139_17 1_555 1_555
C150_17 N68_17 1_555 1_555
C151_17 N69_17 1_555 1_555
C23_17 C24_17 1_555 1_555
N67_17 C148_17 1_555 1_555
N70_17 C151_17 1_555 1_555
C137_17 C142_17 1_555 1_555
C137_17 C148_17 1_555 1_555
C138_17 C143_17 1_555 1_555
C138_17 C147_17 1_555 1_555
C139_17 C144_17 1_555 1_555
C140_17 C145_17 1_555 1_555
C140_17 C151_17 1_555 1_555
C141_17 C146_17 1_555 1_555
C141_17 C150_17 1_555 1_555
N10_18 C25_18 1_555 1_555
C20_18 N64_4 1_555 1_555
H13_18 C20_18 1_555 1_555
C21_18 C20_18 1_555 1_555
H14_18 C21_18 1_555 1_555
C22_18 C21_18 1_555 1_555
H15_18 C22_18 1_555 1_555
C23_18 C22_18 1_555 1_555
C24_18 N64_4 1_555 1_555
H16_18 C24_18 1_555 1_555
C25_18 C23_18 1_555 1_555
N63_14 C122_18 1_555 1_555
N65_18 C123_18 1_555 1_555
N63_18 C125_18 1_555 1_555
N64_14 C126_18 1_555 1_555
N66_18 C147_18 1_555 1_555
N67_18 C25_18 1_555 1_555
N68_18 C149_18 1_555 1_555
N69_18 C150_18 1_555 1_555
N70_18 C149_18 1_555 1_555
C122_18 H77_18 1_555 1_555
C123_18 H78_18 1_555 1_555
C124_18 N65_4 1_555 1_555
C125_18 H80_18 1_555 1_555
C126_18 H81_18 1_555 1_555
H79_18 C124_18 1_555 1_555
C127_18 C122_18 1_555 1_555
C128_18 C123_18 1_555 1_555
C129_18 C124_18 1_555 1_555
C130_18 C125_18 1_555 1_555
C131_18 C126_18 1_555 1_555
H82_18 C127_18 1_555 1_555
H83_18 C128_18 1_555 1_555
H84_18 C129_18 1_555 1_555
H85_18 C130_18 1_555 1_555
H86_18 C131_18 1_555 1_555
C132_18 C127_18 1_555 1_555
C133_18 C128_18 1_555 1_555
C134_18 C129_18 1_555 1_555
C135_18 C130_18 1_555 1_555
C136_18 C131_18 1_555 1_555
H87_18 C132_18 1_555 1_555
H88_18 C133_18 1_555 1_555
H89_18 C134_18 1_555 1_555
H90_18 C135_18 1_555 1_555
H91_18 C136_18 1_555 1_555
C137_18 C132_18 1_555 1_555
C138_18 C133_18 1_555 1_555
C139_18 C134_18 1_555 1_555
C140_18 C135_18 1_555 1_555
C141_18 C136_18 1_555 1_555
C142_18 N63_14 1_555 1_555
C143_18 N65_18 1_555 1_555
C144_18 N65_4 1_555 1_555
C145_18 N63_18 1_555 1_555
C146_18 N64_14 1_555 1_555
H92_18 C142_18 1_555 1_555
H93_18 C143_18 1_555 1_555
H94_18 C144_18 1_555 1_555
H95_18 C145_18 1_555 1_555
H96_18 C146_18 1_555 1_555
C147_18 N10_18 1_555 1_555
C148_18 N66_18 1_555 1_555
C149_18 C139_18 1_555 1_555
C150_18 N68_18 1_555 1_555
C151_18 N69_18 1_555 1_555
C23_18 C24_18 1_555 1_555
N67_18 C148_18 1_555 1_555
N70_18 C151_18 1_555 1_555
C137_18 C142_18 1_555 1_555
C137_18 C148_18 1_555 1_555
C138_18 C143_18 1_555 1_555
C138_18 C147_18 1_555 1_555
C139_18 C144_18 1_555 1_555
C140_18 C145_18 1_555 1_555
C140_18 C151_18 1_555 1_555
C141_18 C146_18 1_555 1_555
C141_18 C150_18 1_555 1_555
N10_19 C25_19 1_555 1_555
C20_19 N64_2 1_555 1_555
H13_19 C20_19 1_555 1_555
C21_19 C20_19 1_555 1_555
H14_19 C21_19 1_555 1_555
C22_19 C21_19 1_555 1_555
H15_19 C22_19 1_555 1_555
C23_19 C22_19 1_555 1_555
C24_19 N64_2 1_555 1_555
H16_19 C24_19 1_555 1_555
C25_19 C23_19 1_555 1_555
N65_15 C122_19 1_555 1_555
N63_12 C123_19 1_555 1_555
N64_20 C125_19 1_555 1_555
N62_6 C126_19 1_555 1_555
N66_19 C147_19 1_555 1_555
N67_19 C25_19 1_555 1_555
N68_19 C149_19 1_555 1_555
N69_19 C150_19 1_555 1_555
N70_19 C149_19 1_555 1_555
C122_19 H77_19 1_555 1_555
C123_19 H78_19 1_555 1_555
C124_19 N65_2 1_555 1_555
C125_19 H80_19 1_555 1_555
C126_19 H81_19 1_555 1_555
H79_19 C124_19 1_555 1_555
C127_19 C122_19 1_555 1_555
C128_19 C123_19 1_555 1_555
C129_19 C124_19 1_555 1_555
C130_19 C125_19 1_555 1_555
C131_19 C126_19 1_555 1_555
H82_19 C127_19 1_555 1_555
H83_19 C128_19 1_555 1_555
H84_19 C129_19 1_555 1_555
H85_19 C130_19 1_555 1_555
H86_19 C131_19 1_555 1_555
C132_19 C127_19 1_555 1_555
C133_19 C128_19 1_555 1_555
C134_19 C129_19 1_555 1_555
C135_19 C130_19 1_555 1_555
C136_19 C131_19 1_555 1_555
H87_19 C132_19 1_555 1_555
H88_19 C133_19 1_555 1_555
H89_19 C134_19 1_555 1_555
H90_19 C135_19 1_555 1_555
H91_19 C136_19 1_555 1_555
C137_19 C132_19 1_555 1_555
C138_19 C133_19 1_555 1_555
C139_19 C134_19 1_555 1_555
C140_19 C135_19 1_555 1_555
C141_19 C136_19 1_555 1_555
C142_19 N65_15 1_555 1_555
C143_19 N63_12 1_555 1_555
C144_19 N65_2 1_555 1_555
C145_19 N64_20 1_555 1_555
C146_19 N62_6 1_555 1_555
H92_19 C142_19 1_555 1_555
H93_19 C143_19 1_555 1_555
H94_19 C144_19 1_555 1_555
H95_19 C145_19 1_555 1_555
H96_19 C146_19 1_555 1_555
C147_19 N10_19 1_555 1_555
C148_19 N66_19 1_555 1_555
C149_19 C139_19 1_555 1_555
C150_19 N68_19 1_555 1_555
C151_19 N69_19 1_555 1_555
C23_19 C24_19 1_555 1_555
N67_19 C148_19 1_555 1_555
N70_19 C151_19 1_555 1_555
C137_19 C142_19 1_555 1_555
C137_19 C148_19 1_555 1_555
C138_19 C143_19 1_555 1_555
C138_19 C147_19 1_555 1_555
C139_19 C144_19 1_555 1_555
C140_19 C145_19 1_555 1_555
C140_19 C151_19 1_555 1_555
C141_19 C146_19 1_555 1_555
C141_19 C150_19 1_555 1_555
N10_20 C25_20 1_555 1_555
C20_20 N64_3 1_555 1_555
H13_20 C20_20 1_555 1_555
C21_20 C20_20 1_555 1_555
H14_20 C21_20 1_555 1_555
C22_20 C21_20 1_555 1_555
H15_20 C22_20 1_555 1_555
C23_20 C22_20 1_555 1_555
C24_20 N64_3 1_555 1_555
H16_20 C24_20 1_555 1_555
C25_20 C23_20 1_555 1_555
N62_8 C122_20 1_555 1_555
N65_5 C123_20 1_555 1_555
N64_19 C125_20 1_555 1_555
N62_17 C126_20 1_555 1_555
N66_20 C147_20 1_555 1_555
N67_20 C25_20 1_555 1_555
N68_20 C149_20 1_555 1_555
N69_20 C150_20 1_555 1_555
N70_20 C149_20 1_555 1_555
C122_20 H77_20 1_555 1_555
C123_20 H78_20 1_555 1_555
C124_20 N65_3 1_555 1_555
C125_20 H80_20 1_555 1_555
C126_20 H81_20 1_555 1_555
H79_20 C124_20 1_555 1_555
C127_20 C122_20 1_555 1_555
C128_20 C123_20 1_555 1_555
C129_20 C124_20 1_555 1_555
C130_20 C125_20 1_555 1_555
C131_20 C126_20 1_555 1_555
H82_20 C127_20 1_555 1_555
H83_20 C128_20 1_555 1_555
H84_20 C129_20 1_555 1_555
H85_20 C130_20 1_555 1_555
H86_20 C131_20 1_555 1_555
C132_20 C127_20 1_555 1_555
C133_20 C128_20 1_555 1_555
C134_20 C129_20 1_555 1_555
C135_20 C130_20 1_555 1_555
C136_20 C131_20 1_555 1_555
H87_20 C132_20 1_555 1_555
H88_20 C133_20 1_555 1_555
H89_20 C134_20 1_555 1_555
H90_20 C135_20 1_555 1_555
H91_20 C136_20 1_555 1_555
C137_20 C132_20 1_555 1_555
C138_20 C133_20 1_555 1_555
C139_20 C134_20 1_555 1_555
C140_20 C135_20 1_555 1_555
C141_20 C136_20 1_555 1_555
C142_20 N62_8 1_555 1_555
C143_20 N65_5 1_555 1_555
C144_20 N65_3 1_555 1_555
C145_20 N64_19 1_555 1_555
C146_20 N62_17 1_555 1_555
H92_20 C142_20 1_555 1_555
H93_20 C143_20 1_555 1_555
H94_20 C144_20 1_555 1_555
H95_20 C145_20 1_555 1_555
H96_20 C146_20 1_555 1_555
C147_20 N10_20 1_555 1_555
C148_20 N66_20 1_555 1_555
C149_20 C139_20 1_555 1_555
C150_20 N68_20 1_555 1_555
C151_20 N69_20 1_555 1_555
C23_20 C24_20 1_555 1_555
N67_20 C148_20 1_555 1_555
N70_20 C151_20 1_555 1_555
C137_20 C142_20 1_555 1_555
C137_20 C148_20 1_555 1_555
C138_20 C143_20 1_555 1_555
C138_20 C147_20 1_555 1_555
C139_20 C144_20 1_555 1_555
C140_20 C145_20 1_555 1_555
C140_20 C151_20 1_555 1_555
C141_20 C146_20 1_555 1_555
C141_20 C150_20 1_555 1_555
N10_21 C25_21 1_555 1_555
C20_21 N63_25 1_555 1_555
H13_21 C20_21 1_555 1_555
C21_21 C20_21 1_555 1_555
H14_21 C21_21 1_555 1_555
C22_21 C21_21 1_555 1_555
H15_21 C22_21 1_555 1_555
C23_21 C22_21 1_555 1_555
C24_21 N63_25 1_555 1_555
H16_21 C24_21 1_555 1_555
C25_21 C23_21 1_555 1_555
N63_8 C122_21 1_555 1_555
N63_17 C123_21 1_555 1_555
N65_19 C125_21 1_555 1_555
N64_5 C126_21 1_555 1_555
N66_21 C147_21 1_555 1_555
N67_21 C25_21 1_555 1_555
N68_21 C149_21 1_555 1_555
N69_21 C150_21 1_555 1_555
N70_21 C149_21 1_555 1_555
C122_21 H77_21 1_555 1_555
C123_21 H78_21 1_555 1_555
C124_21 N62_25 1_555 1_555
C125_21 H80_21 1_555 1_555
C126_21 H81_21 1_555 1_555
H79_21 C124_21 1_555 1_555
C127_21 C122_21 1_555 1_555
C128_21 C123_21 1_555 1_555
C129_21 C124_21 1_555 1_555
C130_21 C125_21 1_555 1_555
C131_21 C126_21 1_555 1_555
H82_21 C127_21 1_555 1_555
H83_21 C128_21 1_555 1_555
H84_21 C129_21 1_555 1_555
H85_21 C130_21 1_555 1_555
H86_21 C131_21 1_555 1_555
C132_21 C127_21 1_555 1_555
C133_21 C128_21 1_555 1_555
C134_21 C129_21 1_555 1_555
C135_21 C130_21 1_555 1_555
C136_21 C131_21 1_555 1_555
H87_21 C132_21 1_555 1_555
H88_21 C133_21 1_555 1_555
H89_21 C134_21 1_555 1_555
H90_21 C135_21 1_555 1_555
H91_21 C136_21 1_555 1_555
C137_21 C132_21 1_555 1_555
C138_21 C133_21 1_555 1_555
C139_21 C134_21 1_555 1_555
C140_21 C135_21 1_555 1_555
C141_21 C136_21 1_555 1_555
C142_21 N63_8 1_555 1_555
C143_21 N63_17 1_555 1_555
C144_21 N62_25 1_555 1_555
C145_21 N65_19 1_555 1_555
C146_21 N64_5 1_555 1_555
H92_21 C142_21 1_555 1_555
H93_21 C143_21 1_555 1_555
H94_21 C144_21 1_555 1_555
H95_21 C145_21 1_555 1_555
H96_21 C146_21 1_555 1_555
C147_21 N10_21 1_555 1_555
C148_21 N66_21 1_555 1_555
C149_21 C139_21 1_555 1_555
C150_21 N68_21 1_555 1_555
C151_21 N69_21 1_555 1_555
C23_21 C24_21 1_555 1_555
N67_21 C148_21 1_555 1_555
N70_21 C151_21 1_555 1_555
C137_21 C142_21 1_555 1_555
C137_21 C148_21 1_555 1_555
C138_21 C143_21 1_555 1_555
C138_21 C147_21 1_555 1_555
C139_21 C144_21 1_555 1_555
C140_21 C145_21 1_555 1_555
C140_21 C151_21 1_555 1_555
C141_21 C146_21 1_555 1_555
C141_21 C150_21 1_555 1_555
N63_22 C125_22 1_555 1_555
N64_6 C126_22 1_555 1_555
N68_22 C149_22 1_555 1_555
N69_22 C150_22 1_555 1_555
N70_22 C149_22 1_555 1_555
C124_22 N64_10 1_555 1_555
C125_22 H80_22 1_555 1_555
C126_22 H81_22 1_555 1_555
H79_22 C124_22 1_555 1_555
C129_22 C124_22 1_555 1_555
C130_22 C125_22 1_555 1_555
C131_22 C126_22 1_555 1_555
H84_22 C129_22 1_555 1_555
H85_22 C130_22 1_555 1_555
H86_22 C131_22 1_555 1_555
C134_22 C129_22 1_555 1_555
C135_22 C130_22 1_555 1_555
C136_22 C131_22 1_555 1_555
H89_22 C134_22 1_555 1_555
H90_22 C135_22 1_555 1_555
H91_22 C136_22 1_555 1_555
C139_22 C134_22 1_555 1_555
C140_22 C135_22 1_555 1_555
C141_22 C136_22 1_555 1_555
C144_22 N64_10 1_555 1_555
C145_22 N63_22 1_555 1_555
C146_22 N64_6 1_555 1_555
H94_22 C144_22 1_555 1_555
H95_22 C145_22 1_555 1_555
H96_22 C146_22 1_555 1_555
C149_22 C139_22 1_555 1_555
C150_22 N68_22 1_555 1_555
C151_22 N69_22 1_555 1_555
N70_22 C151_22 1_555 1_555
C139_22 C144_22 1_555 1_555
C140_22 C145_22 1_555 1_555
C140_22 C151_22 1_555 1_555
C141_22 C146_22 1_555 1_555
C141_22 C150_22 1_555 1_555
N10_22 C25_22 1_555 1_555
C20_22 N64_9 1_555 1_555
H13_22 C20_22 1_555 1_555
C21_22 C20_22 1_555 1_555
H14_22 C21_22 1_555 1_555
C22_22 C21_22 1_555 1_555
H15_22 C22_22 1_555 1_555
C23_22 C22_22 1_555 1_555
C24_22 N64_9 1_555 1_555
H16_22 C24_22 1_555 1_555
C25_22 C23_22 1_555 1_555
N65_20 C122_22 1_555 1_555
N62_12 C123_22 1_555 1_555
N64_15 C125_23 1_555 1_555
N63_6 C126_23 1_555 1_555
N66_22 C147_22 1_555 1_555
N67_22 C25_22 1_555 1_555
N68_23 C149_23 1_555 1_555
N69_23 C150_23 1_555 1_555
N70_23 C149_23 1_555 1_555
C122_22 H77_22 1_555 1_555
C123_22 H78_22 1_555 1_555
C124_23 N65_9 1_555 1_555
C125_23 H80_23 1_555 1_555
C126_23 H81_23 1_555 1_555
H79_23 C124_23 1_555 1_555
C127_22 C122_22 1_555 1_555
C128_22 C123_22 1_555 1_555
C129_23 C124_23 1_555 1_555
C130_23 C125_23 1_555 1_555
C131_23 C126_23 1_555 1_555
H82_22 C127_22 1_555 1_555
H83_22 C128_22 1_555 1_555
H84_23 C129_23 1_555 1_555
H85_23 C130_23 1_555 1_555
H86_23 C131_23 1_555 1_555
C132_22 C127_22 1_555 1_555
C133_22 C128_22 1_555 1_555
C134_23 C129_23 1_555 1_555
C135_23 C130_23 1_555 1_555
C136_23 C131_23 1_555 1_555
H87_22 C132_22 1_555 1_555
H88_22 C133_22 1_555 1_555
H89_23 C134_23 1_555 1_555
H90_23 C135_23 1_555 1_555
H91_23 C136_23 1_555 1_555
C137_22 C132_22 1_555 1_555
C138_22 C133_22 1_555 1_555
C139_23 C134_23 1_555 1_555
C140_23 C135_23 1_555 1_555
C141_23 C136_23 1_555 1_555
C142_22 N65_20 1_555 1_555
C143_22 N62_12 1_555 1_555
C144_23 N65_9 1_555 1_555
C145_23 N64_15 1_555 1_555
C146_23 N63_6 1_555 1_555
H92_22 C142_22 1_555 1_555
H93_22 C143_22 1_555 1_555
H94_23 C144_23 1_555 1_555
H95_23 C145_23 1_555 1_555
H96_23 C146_23 1_555 1_555
C147_22 N10_22 1_555 1_555
C148_22 N66_22 1_555 1_555
C149_23 C139_23 1_555 1_555
C150_23 N68_23 1_555 1_555
C151_23 N69_23 1_555 1_555
C23_22 C24_22 1_555 1_555
N67_22 C148_22 1_555 1_555
N70_23 C151_23 1_555 1_555
C137_22 C142_22 1_555 1_555
C137_22 C148_22 1_555 1_555
C138_22 C143_22 1_555 1_555
C138_22 C147_22 1_555 1_555
C139_23 C144_23 1_555 1_555
C140_23 C145_23 1_555 1_555
C140_23 C151_23 1_555 1_555
C141_23 C146_23 1_555 1_555
C141_23 C150_23 1_555 1_555
N10_23 C25_23 1_555 1_555
C20_23 N62_22 1_555 1_555
H13_23 C20_23 1_555 1_555
C21_23 C20_23 1_555 1_555
H14_23 C21_23 1_555 1_555
C22_23 C21_23 1_555 1_555
H15_23 C22_23 1_555 1_555
C23_23 C22_23 1_555 1_555
C24_23 N62_22 1_555 1_555
H16_23 C24_23 1_555 1_555
C25_23 C23_23 1_555 1_555
N63_24 C122_23 1_555 1_555
N65_22 C123_23 1_555 1_555
N66_23 C147_23 1_555 1_555
N67_23 C25_23 1_555 1_555
C122_23 H77_23 1_555 1_555
C123_23 H78_23 1_555 1_555
C127_23 C122_23 1_555 1_555
C128_23 C123_23 1_555 1_555
H82_23 C127_23 1_555 1_555
H83_23 C128_23 1_555 1_555
C132_23 C127_23 1_555 1_555
C133_23 C128_23 1_555 1_555
H87_23 C132_23 1_555 1_555
H88_23 C133_23 1_555 1_555
C137_23 C132_23 1_555 1_555
C138_23 C133_23 1_555 1_555
C142_23 N63_24 1_555 1_555
C143_23 N65_22 1_555 1_555
H92_23 C142_23 1_555 1_555
H93_23 C143_23 1_555 1_555
C147_23 N10_23 1_555 1_555
C148_23 N66_23 1_555 1_555
C23_23 C24_23 1_555 1_555
N67_23 C148_23 1_555 1_555
C137_23 C142_23 1_555 1_555
C137_23 C148_23 1_555 1_555
C138_23 C143_23 1_555 1_555
C138_23 C147_23 1_555 1_555
N10_24 C25_24 1_555 1_555
C20_24 N64_7 1_555 1_555
H13_24 C20_24 1_555 1_555
C21_24 C20_24 1_555 1_555
H14_24 C21_24 1_555 1_555
C22_24 C21_24 1_555 1_555
H15_24 C22_24 1_555 1_555
C23_24 C22_24 1_555 1_555
C24_24 N64_7 1_555 1_555
H16_24 C24_24 1_555 1_555
C25_24 C23_24 1_555 1_555
N64_12 C122_24 1_555 1_555
N62_9 C123_24 1_555 1_555
N62_16 C125_24 1_555 1_555
N62 C126_24 1_555 1_555
N66_24 C147_24 1_555 1_555
N67_24 C25_24 1_555 1_555
N68_24 C149_24 1_555 1_555
N69_24 C150_24 1_555 1_555
N70_24 C149_24 1_555 1_555
C122_24 H77_24 1_555 1_555
C123_24 H78_24 1_555 1_555
C124_24 N65_7 1_555 1_555
C125_24 H80_24 1_555 1_555
C126_24 H81_24 1_555 1_555
H79_24 C124_24 1_555 1_555
C127_24 C122_24 1_555 1_555
C128_24 C123_24 1_555 1_555
C129_24 C124_24 1_555 1_555
C130_24 C125_24 1_555 1_555
C131_24 C126_24 1_555 1_555
H82_24 C127_24 1_555 1_555
H83_24 C128_24 1_555 1_555
H84_24 C129_24 1_555 1_555
H85_24 C130_24 1_555 1_555
H86_24 C131_24 1_555 1_555
C132_24 C127_24 1_555 1_555
C133_24 C128_24 1_555 1_555
C134_24 C129_24 1_555 1_555
C135_24 C130_24 1_555 1_555
C136_24 C131_24 1_555 1_555
H87_24 C132_24 1_555 1_555
H88_24 C133_24 1_555 1_555
H89_24 C134_24 1_555 1_555
H90_24 C135_24 1_555 1_555
H91_24 C136_24 1_555 1_555
C137_24 C132_24 1_555 1_555
C138_24 C133_24 1_555 1_555
C139_24 C134_24 1_555 1_555
C140_24 C135_24 1_555 1_555
C141_24 C136_24 1_555 1_555
C142_24 N64_12 1_555 1_555
C143_24 N62_9 1_555 1_555
C144_24 N65_7 1_555 1_555
C145_24 N62_16 1_555 1_555
C146_24 N62 1_555 1_555
H92_24 C142_24 1_555 1_555
H93_24 C143_24 1_555 1_555
H94_24 C144_24 1_555 1_555
H95_24 C145_24 1_555 1_555
H96_24 C146_24 1_555 1_555
C147_24 N10_24 1_555 1_555
C148_24 N66_24 1_555 1_555
C149_24 C139_24 1_555 1_555
C150_24 N68_24 1_555 1_555
C151_24 N69_24 1_555 1_555
C23_24 C24_24 1_555 1_555
N67_24 C148_24 1_555 1_555
N70_24 C151_24 1_555 1_555
C137_24 C142_24 1_555 1_555
C137_24 C148_24 1_555 1_555
C138_24 C143_24 1_555 1_555
C138_24 C147_24 1_555 1_555
C139_24 C144_24 1_555 1_555
C140_24 C145_24 1_555 1_555
C140_24 C151_24 1_555 1_555
C141_24 C146_24 1_555 1_555
C141_24 C150_24 1_555 1_555
N10_25 C25_25 1_555 1_555
C20_25 N64_23 1_555 1_555
H13_25 C20_25 1_555 1_555
C21_25 C20_25 1_555 1_555
H14_25 C21_25 1_555 1_555
C22_25 C21_25 1_555 1_555
H15_25 C22_25 1_555 1_555
C23_25 C22_25 1_555 1_555
C24_25 N64_23 1_555 1_555
H16_25 C24_25 1_555 1_555
C25_25 C23_25 1_555 1_555
N65_16 C122_25 1_555 1_555
N62_20 C123_25 1_555 1_555
N62_21 C125_25 1_555 1_555
N64 C126_25 1_555 1_555
N66_25 C147_25 1_555 1_555
N67_25 C25_25 1_555 1_555
N68_25 C149_25 1_555 1_555
N69_25 C150_25 1_555 1_555
N70_25 C149_25 1_555 1_555
C122_25 H77_25 1_555 1_555
C123_25 H78_25 1_555 1_555
C124_25 N65_23 1_555 1_555
C125_25 H80_25 1_555 1_555
C126_25 H81_25 1_555 1_555
H79_25 C124_25 1_555 1_555
C127_25 C122_25 1_555 1_555
C128_25 C123_25 1_555 1_555
C129_25 C124_25 1_555 1_555
C130_25 C125_25 1_555 1_555
C131_25 C126_25 1_555 1_555
H82_25 C127_25 1_555 1_555
H83_25 C128_25 1_555 1_555
H84_25 C129_25 1_555 1_555
H85_25 C130_25 1_555 1_555
H86_25 C131_25 1_555 1_555
C132_25 C127_25 1_555 1_555
C133_25 C128_25 1_555 1_555
C134_25 C129_25 1_555 1_555
C135_25 C130_25 1_555 1_555
C136_25 C131_25 1_555 1_555
H87_25 C132_25 1_555 1_555
H88_25 C133_25 1_555 1_555
H89_25 C134_25 1_555 1_555
H90_25 C135_25 1_555 1_555
H91_25 C136_25 1_555 1_555
C137_25 C132_25 1_555 1_555
C138_25 C133_25 1_555 1_555
C139_25 C134_25 1_555 1_555
C140_25 C135_25 1_555 1_555
C141_25 C136_25 1_555 1_555
C142_25 N65_16 1_555 1_555
C143_25 N62_20 1_555 1_555
C144_25 N65_23 1_555 1_555
C145_25 N62_21 1_555 1_555
C146_25 N64 1_555 1_555
H92_25 C142_25 1_555 1_555
H93_25 C143_25 1_555 1_555
H94_25 C144_25 1_555 1_555
H95_25 C145_25 1_555 1_555
H96_25 C146_25 1_555 1_555
C147_25 N10_25 1_555 1_555
C148_25 N66_25 1_555 1_555
C149_25 C139_25 1_555 1_555
C150_25 N68_25 1_555 1_555
C151_25 N69_25 1_555 1_555
C23_25 C24_25 1_555 1_555
N67_25 C148_25 1_555 1_555
N70_25 C151_25 1_555 1_555
C137_25 C142_25 1_555 1_555
C137_25 C148_25 1_555 1_555
C138_25 C143_25 1_555 1_555
C138_25 C147_25 1_555 1_555
C139_25 C144_25 1_555 1_555
C140_25 C145_25 1_555 1_555
C140_25 C151_25 1_555 1_555
C141_25 C146_25 1_555 1_555
C141_25 C150_25 1_555 1_555
N64_13 C125_26 1_555 1_555
N62_14 C126_26 1_555 1_555
N68_26 C149_26 1_555 1_555
N69_26 C150_26 1_555 1_555
N70_26 C149_26 1_555 1_555
C124_26 N65_14 1_555 1_555
C125_26 H80_26 1_555 1_555
C126_26 H81_26 1_555 1_555
H79_26 C124_26 1_555 1_555
C129_26 C124_26 1_555 1_555
C130_26 C125_26 1_555 1_555
C131_26 C126_26 1_555 1_555
H84_26 C129_26 1_555 1_555
H85_26 C130_26 1_555 1_555
H86_26 C131_26 1_555 1_555
C134_26 C129_26 1_555 1_555
C135_26 C130_26 1_555 1_555
C136_26 C131_26 1_555 1_555
H89_26 C134_26 1_555 1_555
H90_26 C135_26 1_555 1_555
H91_26 C136_26 1_555 1_555
C139_26 C134_26 1_555 1_555
C140_26 C135_26 1_555 1_555
C141_26 C136_26 1_555 1_555
C144_26 N65_14 1_555 1_555
C145_26 N64_13 1_555 1_555
C146_26 N62_14 1_555 1_555
H94_26 C144_26 1_555 1_555
H95_26 C145_26 1_555 1_555
H96_26 C146_26 1_555 1_555
C149_26 C139_26 1_555 1_555
C150_26 N68_26 1_555 1_555
C151_26 N69_26 1_555 1_555
N70_26 C151_26 1_555 1_555
C139_26 C144_26 1_555 1_555
C140_26 C145_26 1_555 1_555
C140_26 C151_26 1_555 1_555
C141_26 C146_26 1_555 1_555
C141_26 C150_26 1_555 1_555
N10_26 C25_26 1_555 1_555
C20_26 N63_23 1_555 1_555
H13_26 C20_26 1_555 1_555
C21_26 C20_26 1_555 1_555
H14_26 C21_26 1_555 1_555
C22_26 C21_26 1_555 1_555
H15_26 C22_26 1_555 1_555
C23_26 C22_26 1_555 1_555
C24_26 N63_23 1_555 1_555
H16_26 C24_26 1_555 1_555
C25_26 C23_26 1_555 1_555
N63_16 C122_26 1_555 1_555
N63_9 C123_26 1_555 1_555
N65_12 C125_27 1_555 1_555
N63 C126_27 1_555 1_555
N66_26 C147_26 1_555 1_555
N67_26 C25_26 1_555 1_555
N68_27 C149_27 1_555 1_555
N69_27 C150_27 1_555 1_555
N70_27 C149_27 1_555 1_555
C122_26 H77_26 1_555 1_555
C123_26 H78_26 1_555 1_555
C124_27 N62_23 1_555 1_555
C125_27 H80_27 1_555 1_555
C126_27 H81_27 1_555 1_555
H79_27 C124_27 1_555 1_555
C127_26 C122_26 1_555 1_555
C128_26 C123_26 1_555 1_555
C129_27 C124_27 1_555 1_555
C130_27 C125_27 1_555 1_555
C131_27 C126_27 1_555 1_555
H82_26 C127_26 1_555 1_555
H83_26 C128_26 1_555 1_555
H84_27 C129_27 1_555 1_555
H85_27 C130_27 1_555 1_555
H86_27 C131_27 1_555 1_555
C132_26 C127_26 1_555 1_555
C133_26 C128_26 1_555 1_555
C134_27 C129_27 1_555 1_555
C135_27 C130_27 1_555 1_555
C136_27 C131_27 1_555 1_555
H87_26 C132_26 1_555 1_555
H88_26 C133_26 1_555 1_555
H89_27 C134_27 1_555 1_555
H90_27 C135_27 1_555 1_555
H91_27 C136_27 1_555 1_555
C137_26 C132_26 1_555 1_555
C138_26 C133_26 1_555 1_555
C139_27 C134_27 1_555 1_555
C140_27 C135_27 1_555 1_555
C141_27 C136_27 1_555 1_555
C142_26 N63_16 1_555 1_555
C143_26 N63_9 1_555 1_555
C144_27 N62_23 1_555 1_555
C145_27 N65_12 1_555 1_555
C146_27 N63 1_555 1_555
H92_26 C142_26 1_555 1_555
H93_26 C143_26 1_555 1_555
H94_27 C144_27 1_555 1_555
H95_27 C145_27 1_555 1_555
H96_27 C146_27 1_555 1_555
C147_26 N10_26 1_555 1_555
C148_26 N66_26 1_555 1_555
C149_27 C139_27 1_555 1_555
C150_27 N68_27 1_555 1_555
C151_27 N69_27 1_555 1_555
C23_26 C24_26 1_555 1_555
N67_26 C148_26 1_555 1_555
N70_27 C151_27 1_555 1_555
C137_26 C142_26 1_555 1_555
C137_26 C148_26 1_555 1_555
C138_26 C143_26 1_555 1_555
C138_26 C147_26 1_555 1_555
C139_27 C144_27 1_555 1_555
C140_27 C145_27 1_555 1_555
C140_27 C151_27 1_555 1_555
C141_27 C146_27 1_555 1_555
C141_27 C150_27 1_555 1_555
N62_19 C125_28 1_555 1_555
N64_16 C126_28 1_555 1_555
N68_28 C149_28 1_555 1_555
N69_28 C150_28 1_555 1_555
N70_28 C149_28 1_555 1_555
C124_28 N65 1_555 1_555
C125_28 H80_28 1_555 1_555
C126_28 H81_28 1_555 1_555
H79_28 C124_28 1_555 1_555
C129_28 C124_28 1_555 1_555
C130_28 C125_28 1_555 1_555
C131_28 C126_28 1_555 1_555
H84_28 C129_28 1_555 1_555
H85_28 C130_28 1_555 1_555
H86_28 C131_28 1_555 1_555
C134_28 C129_28 1_555 1_555
C135_28 C130_28 1_555 1_555
C136_28 C131_28 1_555 1_555
H89_28 C134_28 1_555 1_555
H90_28 C135_28 1_555 1_555
H91_28 C136_28 1_555 1_555
C139_28 C134_28 1_555 1_555
C140_28 C135_28 1_555 1_555
C141_28 C136_28 1_555 1_555
C144_28 N65 1_555 1_555
C145_28 N62_19 1_555 1_555
C146_28 N64_16 1_555 1_555
H94_28 C144_28 1_555 1_555
H95_28 C145_28 1_555 1_555
H96_28 C146_28 1_555 1_555
C149_28 C139_28 1_555 1_555
C150_28 N68_28 1_555 1_555
C151_28 N69_28 1_555 1_555
N70_28 C151_28 1_555 1_555
C139_28 C144_28 1_555 1_555
C140_28 C145_28 1_555 1_555
C140_28 C151_28 1_555 1_555
C141_28 C146_28 1_555 1_555
C141_28 C150_28 1_555 1_555
N10_27 C25_27 1_555 1_555
C20_27 N64_18 1_555 1_555
H13_27 C20_27 1_555 1_555
C21_27 C20_27 1_555 1_555
H14_27 C21_27 1_555 1_555
C22_27 C21_27 1_555 1_555
H15_27 C22_27 1_555 1_555
C23_27 C22_27 1_555 1_555
C24_27 N64_18 1_555 1_555
H16_27 C24_27 1_555 1_555
C25_27 C23_27 1_555 1_555
N65_13 C122_27 1_555 1_555
N62_18 C123_27 1_555 1_555
N66_27 C147_27 1_555 1_555
N67_27 C25_27 1_555 1_555
C122_27 H77_27 1_555 1_555
C123_27 H78_27 1_555 1_555
C127_27 C122_27 1_555 1_555
C128_27 C123_27 1_555 1_555
H82_27 C127_27 1_555 1_555
H83_27 C128_27 1_555 1_555
C132_27 C127_27 1_555 1_555
C133_27 C128_27 1_555 1_555
H87_27 C132_27 1_555 1_555
H88_27 C133_27 1_555 1_555
C137_27 C132_27 1_555 1_555
C138_27 C133_27 1_555 1_555
C142_27 N65_13 1_555 1_555
C143_27 N62_18 1_555 1_555
H92_27 C142_27 1_555 1_555
H93_27 C143_27 1_555 1_555
C147_27 N10_27 1_555 1_555
C148_27 N66_27 1_555 1_555
C23_27 C24_27 1_555 1_555
N67_27 C148_27 1_555 1_555
C137_27 C142_27 1_555 1_555
C137_27 C148_27 1_555 1_555
C138_27 C143_27 1_555 1_555
C138_27 C147_27 1_555 1_555
N10_28 C25_28 1_555 1_555
C20_28 N63_19 1_555 1_555
H13_28 C20_28 1_555 1_555
C21_28 C20_28 1_555 1_555
H14_28 C21_28 1_555 1_555
C22_28 C21_28 1_555 1_555
H15_28 C22_28 1_555 1_555
C23_28 C22_28 1_555 1_555
C24_28 N63_19 1_555 1_555
H16_28 C24_28 1_555 1_555
C25_28 C23_28 1_555 1_555
N63_21 C122_28 1_555 1_555
N63_20 C123_28 1_555 1_555
N66_28 C147_28 1_555 1_555
N67_28 C25_28 1_555 1_555
C122_28 H77_28 1_555 1_555
C123_28 H78_28 1_555 1_555
C127_28 C122_28 1_555 1_555
C128_28 C123_28 1_555 1_555
H82_28 C127_28 1_555 1_555
H83_28 C128_28 1_555 1_555
C132_28 C127_28 1_555 1_555
C133_28 C128_28 1_555 1_555
H87_28 C132_28 1_555 1_555
H88_28 C133_28 1_555 1_555
C137_28 C132_28 1_555 1_555
C138_28 C133_28 1_555 1_555
C142_28 N63_21 1_555 1_555
C143_28 N63_20 1_555 1_555
H92_28 C142_28 1_555 1_555
H93_28 C143_28 1_555 1_555
C147_28 N10_28 1_555 1_555
C148_28 N66_28 1_555 1_555
C23_28 C24_28 1_555 1_555
N67_28 C148_28 1_555 1_555
C137_28 C142_28 1_555 1_555
C137_28 C148_28 1_555 1_555
C138_28 C143_28 1_555 1_555
C138_28 C147_28 1_555 1_555
N10_29 C25_29 1_555 1_555
C20_29 N64_8 1_555 1_555
H13_29 C20_29 1_555 1_555
C21_29 C20_29 1_555 1_555
H14_29 C21_29 1_555 1_555
C22_29 C21_29 1_555 1_555
H15_29 C22_29 1_555 1_555
C23_29 C22_29 1_555 1_555
C24_29 N64_8 1_555 1_555
H16_29 C24_29 1_555 1_555
C25_29 C23_29 1_555 1_555
N63_13 C122_29 1_555 1_555
N64_11 C123_29 1_555 1_555
N62_15 C125_29 1_555 1_555
N62_11 C126_29 1_555 1_555
N66_29 C147_29 1_555 1_555
N67_29 C25_29 1_555 1_555
N68_29 C149_29 1_555 1_555
N69_29 C150_29 1_555 1_555
N70_29 C149_29 1_555 1_555
C122_29 H77_29 1_555 1_555
C123_29 H78_29 1_555 1_555
C124_29 N65_8 1_555 1_555
C125_29 H80_29 1_555 1_555
C126_29 H81_29 1_555 1_555
H79_29 C124_29 1_555 1_555
C127_29 C122_29 1_555 1_555
C128_29 C123_29 1_555 1_555
C129_29 C124_29 1_555 1_555
C130_29 C125_29 1_555 1_555
C131_29 C126_29 1_555 1_555
H82_29 C127_29 1_555 1_555
H83_29 C128_29 1_555 1_555
H84_29 C129_29 1_555 1_555
H85_29 C130_29 1_555 1_555
H86_29 C131_29 1_555 1_555
C132_29 C127_29 1_555 1_555
C133_29 C128_29 1_555 1_555
C134_29 C129_29 1_555 1_555
C135_29 C130_29 1_555 1_555
C136_29 C131_29 1_555 1_555
H87_29 C132_29 1_555 1_555
H88_29 C133_29 1_555 1_555
H89_29 C134_29 1_555 1_555
H90_29 C135_29 1_555 1_555
H91_29 C136_29 1_555 1_555
C137_29 C132_29 1_555 1_555
C138_29 C133_29 1_555 1_555
C139_29 C134_29 1_555 1_555
C140_29 C135_29 1_555 1_555
C141_29 C136_29 1_555 1_555
C142_29 N63_13 1_555 1_555
C143_29 N64_11 1_555 1_555
C144_29 N65_8 1_555 1_555
C145_29 N62_15 1_555 1_555
C146_29 N62_11 1_555 1_555
H92_29 C142_29 1_555 1_555
H93_29 C143_29 1_555 1_555
H94_29 C144_29 1_555 1_555
H95_29 C145_29 1_555 1_555
H96_29 C146_29 1_555 1_555
C147_29 N10_29 1_555 1_555
C148_29 N66_29 1_555 1_555
C149_29 C139_29 1_555 1_555
C150_29 N68_29 1_555 1_555
C151_29 N69_29 1_555 1_555
C23_29 C24_29 1_555 1_555
N67_29 C148_29 1_555 1_555
N70_29 C151_29 1_555 1_555
C137_29 C142_29 1_555 1_555
C137_29 C148_29 1_555 1_555
C138_29 C143_29 1_555 1_555
C138_29 C147_29 1_555 1_555
C139_29 C144_29 1_555 1_555
C140_29 C145_29 1_555 1_555
C140_29 C151_29 1_555 1_555
C141_29 C146_29 1_555 1_555
C141_29 C150_29 1_555 1_555
N63_10 C125_30 1_555 1_555
N62_13 C126_30 1_555 1_555
N68_30 C149_30 1_555 1_555
N69_30 C150_30 1_555 1_555
N70_30 C149_30 1_555 1_555
C124_30 N63_11 1_555 1_555
C125_30 H80_30 1_555 1_555
C126_30 H81_30 1_555 1_555
H79_30 C124_30 1_555 1_555
C129_30 C124_30 1_555 1_555
C130_30 C125_30 1_555 1_555
C131_30 C126_30 1_555 1_555
H84_30 C129_30 1_555 1_555
H85_30 C130_30 1_555 1_555
H86_30 C131_30 1_555 1_555
C134_30 C129_30 1_555 1_555
C135_30 C130_30 1_555 1_555
C136_30 C131_30 1_555 1_555
H89_30 C134_30 1_555 1_555
H90_30 C135_30 1_555 1_555
H91_30 C136_30 1_555 1_555
C139_30 C134_30 1_555 1_555
C140_30 C135_30 1_555 1_555
C141_30 C136_30 1_555 1_555
C144_30 N63_11 1_555 1_555
C145_30 N63_10 1_555 1_555
C146_30 N62_13 1_555 1_555
H94_30 C144_30 1_555 1_555
H95_30 C145_30 1_555 1_555
H96_30 C146_30 1_555 1_555
C149_30 C139_30 1_555 1_555
C150_30 N68_30 1_555 1_555
C151_30 N69_30 1_555 1_555
N70_30 C151_30 1_555 1_555
C139_30 C144_30 1_555 1_555
C140_30 C145_30 1_555 1_555
C140_30 C151_30 1_555 1_555
C141_30 C146_30 1_555 1_555
C141_30 C150_30 1_555 1_555
N10_30 C25_30 1_555 1_555
C20_30 N62_10 1_555 1_555
H13_30 C20_30 1_555 1_555
C21_30 C20_30 1_555 1_555
H14_30 C21_30 1_555 1_555
C22_30 C21_30 1_555 1_555
H15_30 C22_30 1_555 1_555
C23_30 C22_30 1_555 1_555
C24_30 N62_10 1_555 1_555
H16_30 C24_30 1_555 1_555
C25_30 C23_30 1_555 1_555
N63_15 C122_30 1_555 1_555
N65_11 C123_30 1_555 1_555
N66_30 C147_30 1_555 1_555
N67_30 C25_30 1_555 1_555
C122_30 H77_30 1_555 1_555
C123_30 H78_30 1_555 1_555
C127_30 C122_30 1_555 1_555
C128_30 C123_30 1_555 1_555
H82_30 C127_30 1_555 1_555
H83_30 C128_30 1_555 1_555
C132_30 C127_30 1_555 1_555
C133_30 C128_30 1_555 1_555
H87_30 C132_30 1_555 1_555
H88_30 C133_30 1_555 1_555
C137_30 C132_30 1_555 1_555
C138_30 C133_30 1_555 1_555
C142_30 N63_15 1_555 1_555
C143_30 N65_11 1_555 1_555
H92_30 C142_30 1_555 1_555
H93_30 C143_30 1_555 1_555
C147_30 N10_30 1_555 1_555
C148_30 N66_30 1_555 1_555
C23_30 C24_30 1_555 1_555
N67_30 C148_30 1_555 1_555
C137_30 C142_30 1_555 1_555
C137_30 C148_30 1_555 1_555
C138_30 C143_30 1_555 1_555
C138_30 C147_30 1_555 1_555
N10_31 C25_31 1_555 1_555
C20_31 N64_17 1_555 1_555
H13_31 C20_31 1_555 1_555
C21_31 C20_31 1_555 1_555
H14_31 C21_31 1_555 1_555
C22_31 C21_31 1_555 1_555
H15_31 C22_31 1_555 1_555
C23_31 C22_31 1_555 1_555
C24_31 N64_17 1_555 1_555
H16_31 C24_31 1_555 1_555
C25_31 C23_31 1_555 1_555
N63_3 C122_31 1_555 1_555
N62_5 C123_31 1_555 1_555
N62_7 C125_31 1_555 1_555
N63_4 C126_31 1_555 1_555
N66_31 C147_31 1_555 1_555
N67_31 C25_31 1_555 1_555
N68_31 C149_31 1_555 1_555
N69_31 C150_31 1_555 1_555
N70_31 C149_31 1_555 1_555
C122_31 H77_31 1_555 1_555
C123_31 H78_31 1_555 1_555
C124_31 N65_17 1_555 1_555
C125_31 H80_31 1_555 1_555
C126_31 H81_31 1_555 1_555
H79_31 C124_31 1_555 1_555
C127_31 C122_31 1_555 1_555
C128_31 C123_31 1_555 1_555
C129_31 C124_31 1_555 1_555
C130_31 C125_31 1_555 1_555
C131_31 C126_31 1_555 1_555
H82_31 C127_31 1_555 1_555
H83_31 C128_31 1_555 1_555
H84_31 C129_31 1_555 1_555
H85_31 C130_31 1_555 1_555
H86_31 C131_31 1_555 1_555
C132_31 C127_31 1_555 1_555
C133_31 C128_31 1_555 1_555
C134_31 C129_31 1_555 1_555
C135_31 C130_31 1_555 1_555
C136_31 C131_31 1_555 1_555
H87_31 C132_31 1_555 1_555
H88_31 C133_31 1_555 1_555
H89_31 C134_31 1_555 1_555
H90_31 C135_31 1_555 1_555
H91_31 C136_31 1_555 1_555
C137_31 C132_31 1_555 1_555
C138_31 C133_31 1_555 1_555
C139_31 C134_31 1_555 1_555
C140_31 C135_31 1_555 1_555
C141_31 C136_31 1_555 1_555
C142_31 N63_3 1_555 1_555
C143_31 N62_5 1_555 1_555
C144_31 N65_17 1_555 1_555
C145_31 N62_7 1_555 1_555
C146_31 N63_4 1_555 1_555
H92_31 C142_31 1_555 1_555
H93_31 C143_31 1_555 1_555
H94_31 C144_31 1_555 1_555
H95_31 C145_31 1_555 1_555
H96_31 C146_31 1_555 1_555
C147_31 N10_31 1_555 1_555
C148_31 N66_31 1_555 1_555
C149_31 C139_31 1_555 1_555
C150_31 N68_31 1_555 1_555
C151_31 N69_31 1_555 1_555
C23_31 C24_31 1_555 1_555
N67_31 C148_31 1_555 1_555
N70_31 C151_31 1_555 1_555
C137_31 C142_31 1_555 1_555
C137_31 C148_31 1_555 1_555
C138_31 C143_31 1_555 1_555
C138_31 C147_31 1_555 1_555
C139_31 C144_31 1_555 1_555
C140_31 C145_31 1_555 1_555
C140_31 C151_31 1_555 1_555
C141_31 C146_31 1_555 1_555
C141_31 C150_31 1_555 1_555
N62_2 C125_32 1_555 1_555
N62_3 C126_32 1_555 1_555
N68_32 C149_32 1_555 1_555
N69_32 C150_32 1_555 1_555
N70_32 C149_32 1_555 1_555
C124_32 N62_4 1_555 1_555
C125_32 H80_32 1_555 1_555
C126_32 H81_32 1_555 1_555
H79_32 C124_32 1_555 1_555
C129_32 C124_32 1_555 1_555
C130_32 C125_32 1_555 1_555
C131_32 C126_32 1_555 1_555
H84_32 C129_32 1_555 1_555
H85_32 C130_32 1_555 1_555
H86_32 C131_32 1_555 1_555
C134_32 C129_32 1_555 1_555
C135_32 C130_32 1_555 1_555
C136_32 C131_32 1_555 1_555
H89_32 C134_32 1_555 1_555
H90_32 C135_32 1_555 1_555
H91_32 C136_32 1_555 1_555
C139_32 C134_32 1_555 1_555
C140_32 C135_32 1_555 1_555
C141_32 C136_32 1_555 1_555
C144_32 N62_4 1_555 1_555
C145_32 N62_2 1_555 1_555
C146_32 N62_3 1_555 1_555
H94_32 C144_32 1_555 1_555
H95_32 C145_32 1_555 1_555
H96_32 C146_32 1_555 1_555
C149_32 C139_32 1_555 1_555
C150_32 N68_32 1_555 1_555
C151_32 N69_32 1_555 1_555
N70_32 C151_32 1_555 1_555
C139_32 C144_32 1_555 1_555
C140_32 C145_32 1_555 1_555
C140_32 C151_32 1_555 1_555
C141_32 C146_32 1_555 1_555
C141_32 C150_32 1_555 1_555
N10_32 C25_32 1_555 1_555
C20_32 N63_2 1_555 1_555
H13_32 C20_32 1_555 1_555
C21_32 C20_32 1_555 1_555
H14_32 C21_32 1_555 1_555
C22_32 C21_32 1_555 1_555
H15_32 C22_32 1_555 1_555
C23_32 C22_32 1_555 1_555
C24_32 N63_2 1_555 1_555
H16_32 C24_32 1_555 1_555
C25_32 C23_32 1_555 1_555
N63_7 C122_32 1_555 1_555
N63_5 C123_32 1_555 1_555
N66_32 C147_32 1_555 1_555
N67_32 C25_32 1_555 1_555
C122_32 H77_32 1_555 1_555
C123_32 H78_32 1_555 1_555
C127_32 C122_32 1_555 1_555
C128_32 C123_32 1_555 1_555
H82_32 C127_32 1_555 1_555
H83_32 C128_32 1_555 1_555
C132_32 C127_32 1_555 1_555
C133_32 C128_32 1_555 1_555
H87_32 C132_32 1_555 1_555
H88_32 C133_32 1_555 1_555
C137_32 C132_32 1_555 1_555
C138_32 C133_32 1_555 1_555
C142_32 N63_7 1_555 1_555
C143_32 N63_5 1_555 1_555
H92_32 C142_32 1_555 1_555
H93_32 C143_32 1_555 1_555
C147_32 N10_32 1_555 1_555
C148_32 N66_32 1_555 1_555
C23_32 C24_32 1_555 1_555
N67_32 C148_32 1_555 1_555
C137_32 C142_32 1_555 1_555
C137_32 C148_32 1_555 1_555
C138_32 C143_32 1_555 1_555
C138_32 C147_32 1_555 1_555

#END
