
###############################################################################
#
# This file contains modified crystal structure data generated from the
# MOF subset of the Cambridge Structural Database (CSD) v543 
# hosted by the Cambridge Crystallographic Data Centre (CCDC).
#
# This work is licensed under the Creative Commons
# Attribution-NonCommercial-ShareAlike 4.0 International License.
# To view a copy of this license, visit
# http://creativecommons.org/licenses/by-nc-sa/4.0/
# or send a letter to
# Creative Commons, PO Box 1866, Mountain View, CA 94042, USA.
#
# CIF created using the CSD Python API on 29 September 2022
# The structure has been converted into the P1 space group
# The structure has a 3D framework
# The original CSD entry LAGBUS is in the trigonal crystal system
# The framework has been calculated to contain at least 10.0% void space
# The void calculation uses a probe of radius 1.32A, grid spacing 0.4
#
###############################################################################

data_LAGBUS
_chemical_formula_moiety         '(C108 H54 Ag6 F18 Fe2 N12 O30 S6)n'
_symmetry_cell_setting           triclinic
_symmetry_space_group_name_H-M   'P 1'
_symmetry_Int_Tables_number      1
_space_group_name_Hall           'P 1'
loop_
_symmetry_equiv_pos_site_id
_symmetry_equiv_pos_as_xyz
1 x,y,z
_cell_length_a                   15.2169(10)
_cell_length_b                   15.2169(10)
_cell_length_c                   16.738(2)
_cell_angle_alpha                90
_cell_angle_beta                 90
_cell_angle_gamma                120
_cell_volume                     3356.5
loop_
_atom_site_label
_atom_site_type_symbol
_atom_site_fract_x
_atom_site_fract_y
_atom_site_fract_z
C18 C 0.2110(9) 0.1246(13) 0.1731(9)
O3 O 0.3920(14) 0.1578(14) 0.1397(8)
O4 O 0.3102(16) 0.0546(9) 0.2512(10)
O5 O 0.3740(15) 0.2291(9) 0.2586(9)
F1 F 0.1678(14) 0.0418(11) 0.1276(10)
F2 F 0.1477(14) 0.1098(12) 0.2330(8)
F3 F 0.2161(13) 0.2006(11) 0.1294(9)
S1 S 0.3318(4) 0.1432(2) 0.20748(19)
C10 C 0.0643(7) 0.3909(7) 0.0412(5)
N2 N 0.1024(6) 0.3870(7) 0.0984(4)
Ag5 Ag 0.12607(6) 0.36695(10) 0.22159(5)
C1 C 0.8723(4) 0.4904(4) 0.6300(3)
C2 C 0.9160(5) 0.4919(5) 0.7030(4)
H1 H 0.9801 0.5463 0.7144
C3 C 0.8671(5) 0.4140(5) 0.7614(3)
C4 C 0.9209(5) 0.4110(5) 0.8337(4)
C5 C 0.8636(6) 0.3497(6) 0.8958(5)
H2 H 0.7933 0.3127 0.8915
C7 C 0.9108(7) 0.3431(7) 0.9649(5)
C11 C 0.9328(5) 0.5588(5) 0.5637(4)
C12 C 0.8936(5) 0.5369(6) 0.4879(4)
H6 H 0.8301 0.4802 0.4795
C14 C 0.9470(6) 0.5976(6) 0.4233(4)
H8 H 0.9198 0.5821 0.3721
O1 O 0.7795(3) 0.4296(3) 0.6132(2)
O2 O 0.7756(3) 0.3426(3) 0.7547(2)
Fe1 Fe 0.6667 0.3333 0.68260(7)
C19 C 0.5096(4) 0.3819(6) 0.6300(3)
C20 C 0.6181(6) 0.1277(4) 0.6300(3)
C21 C 0.5081(5) 0.4241(7) 0.7030(4)
C22 C 0.5759(7) 0.0840(5) 0.7030(4)
H10 H 0.4537 0.4338 0.7144
H11 H 0.5662 0.0199 0.7144
C23 C 0.5860(5) 0.4531(7) 0.7614(3)
C24 C 0.5469(7) 0.1329(5) 0.7614(3)
C25 C 0.5890(5) 0.5099(7) 0.8337(4)
C26 C 0.4901(7) 0.0791(5) 0.8337(4)
C27 C 0.6503(6) 0.5139(8) 0.8958(5)
C28 C 0.4861(8) 0.1364(6) 0.8958(5)
H12 H 0.6873 0.4806 0.8915
H13 H 0.5194 0.2067 0.8915
C29 C 0.5358(8) 0.5631(10) 0.8394(5)
H14 H 0.4964 0.5625 0.7967
C31 C 0.6569(7) 0.5677(10) 0.9649(5)
C32 C 0.4323(10) 0.0892(7) 0.9649(5)
C33 C 0.5414(7) 0.6158(9) 0.9070(5)
H18 H 0.5054 0.6501 0.9112
C35 C 0.6016(6) 0.6170(8) 0.9686(4)
C39 C 0.4412(5) 0.3740(7) 0.5637(4)
C40 C 0.6260(7) 0.0672(5) 0.5637(4)
C41 C 0.4631(6) 0.3567(8) 0.4879(4)
C42 C 0.6433(8) 0.1064(5) 0.4879(4)
H20 H 0.5198 0.3499 0.4795
H21 H 0.6501 0.1699 0.4795
C43 C 0.3542(6) 0.3809(8) 0.5771(4)
H22 H 0.3367 0.3885 0.6289
C45 C 0.4024(6) 0.3494(8) 0.4233(4)
C46 C 0.6506(8) 0.0530(6) 0.4233(4)
H24 H 0.4179 0.3377 0.3721
H25 H 0.6623 0.0802 0.3721
C47 C 0.2941(8) 0.3765(11) 0.5136(5)
H26 H 0.2380 0.3845 0.5217
C49 C 0.3191(6) 0.3597(8) 0.4370(4)
C51 C 0.2544(6) 0.3513(8) 0.3709(4)
N3 N 0.2049(6) 0.3478(8) 0.3178(4)
O6 O 0.5704(3) 0.3499(4) 0.6132(2)
O7 O 0.6501(4) 0.2205(3) 0.6132(2)
O8 O 0.6574(3) 0.4330(4) 0.7547(2)
O9 O 0.5670(4) 0.2244(3) 0.7547(2)
C6 C 0.0273(6) 0.4642(8) 0.8394(5)
H3 H 0.0661 0.5036 0.7967
C8 C 0.0744(6) 0.4586(7) 0.9070(5)
H5 H 0.1447 0.4946 0.9112
C9 C 0.0154(6) 0.3984(6) 0.9686(4)
C13 C 0.0267(6) 0.6458(6) 0.5771(4)
H7 H 0.0518 0.6633 0.6289
C15 C 0.0824(7) 0.7059(8) 0.5136(5)
H9 H 0.1465 0.7620 0.5217
C16 C 0.0406(6) 0.6809(6) 0.4370(4)
C17 C 0.0969(6) 0.7456(6) 0.3709(4)
N1 N 0.1429(5) 0.7951(6) 0.3178(4)
Ag1 Ag 0.24088(8) 0.87393(6) 0.22159(5)
N9 N 0.2846(9) 0.8976(6) 0.0984(4)
C38 C 0.3266(10) 0.9357(7) 0.0412(5)
H4 H 0.8729 0.3024 0.0074
H16 H 0.6976 0.5705 0.0074
H17 H 0.4295 0.1271 0.0074
C37 C 0.6091(7) 0.6734(10) 0.0412(5)
N5 N 0.6130(7) 0.7154(9) 0.0984(4)
Ag6 Ag 0.63305(10) 0.75912(8) 0.22159(5)
C30 C 0.4369(10) 0.9727(6) 0.8394(5)
H15 H 0.4375 0.9339 0.7967
C34 C 0.3842(9) 0.9256(6) 0.9070(5)
H19 H 0.3499 0.8553 0.9112
C36 C 0.3830(8) 0.9846(6) 0.9686(4)
C44 C 0.6191(8) 0.9733(6) 0.5771(4)
H23 H 0.6115 0.9482 0.6289
C48 C 0.6235(11) 0.9176(7) 0.5136(5)
H27 H 0.6155 0.8535 0.5217
C50 C 0.6403(8) 0.9594(6) 0.4370(4)
C52 C 0.6487(8) 0.9031(6) 0.3709(4)
N4 N 0.6522(8) 0.8571(5) 0.3178(4)
C54 C 0.9136(16) 0.7890(9) 0.1731(9)
O11 O 0.7658(20) 0.6080(14) 0.1397(8)
O13 O 0.7444(18) 0.6898(16) 0.2512(10)
O15 O 0.8551(17) 0.6260(15) 0.2586(9)
F5 F 0.8740(18) 0.8322(14) 0.1276(10)
F7 F 0.9621(18) 0.8523(14) 0.2330(8)
F9 F 0.9845(17) 0.7839(13) 0.1294(9)
S3 S 0.8114(4) 0.6682(4) 0.20748(19)
C53 C 0.8754(13) 0.0864(16) 0.1731(9)
O10 O 0.8422(14) 0.2342(20) 0.1397(8)
O12 O 0.9454(9) 0.2556(18) 0.2512(10)
O14 O 0.7709(9) 0.1449(17) 0.2586(9)
F4 F 0.9582(11) 0.1260(18) 0.1276(10)
F6 F 0.8902(12) 0.0379(18) 0.2330(8)
F8 F 0.7994(11) 0.0155(17) 0.1294(9)
S2 S 0.8568(2) 0.1886(4) 0.20748(19)
C53_2 C 0.1246(13) 0.9136(16) 0.8269(9)
O10_2 O 0.1578(14) 0.7658(20) 0.8603(8)
O12_2 O 0.0546(9) 0.7444(18) 0.7488(10)
O14_2 O 0.2291(9) 0.8551(17) 0.7414(9)
F4_2 F 0.0418(11) 0.8740(18) 0.8724(10)
F6_2 F 0.1098(12) 0.9621(18) 0.7670(8)
F8_2 F 0.2006(11) 0.9845(17) 0.8706(9)
S2_2 S 0.1432(2) 0.8114(4) 0.79252(19)
C30_2 C 0.5631(10) 0.0273(6) 0.1606(5)
H15_2 H 0.5625 0.0661 0.2033
C34_2 C 0.6158(9) 0.0744(6) 0.0930(5)
H19_2 H 0.6501 0.1447 0.0888
C36_2 C 0.6170(8) 0.0154(6) 0.0314(4)
C44_2 C 0.3809(8) 0.0267(6) 0.4229(4)
H23_2 H 0.3885 0.0518 0.3711
C48_2 C 0.3765(11) 0.0824(7) 0.4864(5)
H27_2 H 0.3845 0.1465 0.4783
C50_2 C 0.3597(8) 0.0406(6) 0.5630(4)
C52_2 C 0.3513(8) 0.0969(6) 0.6291(4)
N4_2 N 0.3478(8) 0.1429(5) 0.6822(4)
N8 N 0.3870(7) 0.2846(9) 0.9016(4)
C54_2 C 0.0864(16) 0.2110(9) 0.8269(9)
O11_2 O 0.2342(20) 0.3920(14) 0.8603(8)
O13_2 O 0.2556(18) 0.3102(16) 0.7488(10)
O15_2 O 0.1449(17) 0.3740(15) 0.7414(9)
F5_2 F 0.1260(18) 0.1678(14) 0.8724(10)
F7_2 F 0.0379(18) 0.1477(14) 0.7670(8)
F9_2 F 0.0155(17) 0.2161(13) 0.8706(9)
S3_2 S 0.1886(4) 0.3318(4) 0.79252(19)
Ag3 Ag 0.36695(10) 0.24088(8) 0.77841(5)
H4_2 H 0.1271 0.6976 0.9926
H16_2 H 0.3024 0.4295 0.9926
H17_2 H 0.5705 0.8729 0.9926
C37_2 C 0.3909(7) 0.3266(10) 0.9588(5)
C38_2 C 0.6734(10) 0.0643(7) 0.9588(5)
N6 N 0.7154(9) 0.1024(6) 0.9016(4)
Ag4 Ag 0.75912(8) 0.12607(6) 0.77841(5)
C6_2 C 0.9727(6) 0.5358(8) 0.1606(5)
H3_2 H 0.9339 0.4964 0.2033
C8_2 C 0.9256(6) 0.5414(7) 0.0930(5)
H5_2 H 0.8553 0.5054 0.0888
C9_2 C 0.9846(6) 0.6016(6) 0.0314(4)
C13_2 C 0.9733(6) 0.3542(6) 0.4229(4)
H7_2 H 0.9482 0.3367 0.3711
C15_2 C 0.9176(7) 0.2941(8) 0.4864(5)
H9_2 H 0.8535 0.2380 0.4783
C16_2 C 0.9594(6) 0.3191(6) 0.5630(4)
C17_2 C 0.9031(6) 0.2544(6) 0.6291(4)
N1_2 N 0.8571(5) 0.2049(6) 0.6822(4)
C1_2 C 0.1277(4) 0.5096(4) 0.3700(3)
C2_2 C 0.0840(5) 0.5081(5) 0.2970(4)
H1_2 H 0.0199 0.4537 0.2856
C3_2 C 0.1329(5) 0.5860(5) 0.2386(3)
C4_2 C 0.0791(5) 0.5890(5) 0.1663(4)
C5_2 C 0.1364(6) 0.6503(6) 0.1042(5)
H2_2 H 0.2067 0.6873 0.1085
C7_2 C 0.0892(7) 0.6569(7) 0.0351(5)
C11_2 C 0.0672(5) 0.4412(5) 0.4363(4)
C12_2 C 0.1064(5) 0.4631(6) 0.5121(4)
H6_2 H 0.1699 0.5198 0.5205
C14_2 C 0.0530(6) 0.4024(6) 0.5767(4)
H8_2 H 0.0802 0.4179 0.6279
O1_2 O 0.2205(3) 0.5704(3) 0.3868(2)
O2_2 O 0.2244(3) 0.6574(3) 0.2453(2)
Fe1_2 Fe 0.3333 0.6667 0.31740(7)
C19_2 C 0.4904(4) 0.6181(6) 0.3700(3)
C20_2 C 0.3819(6) 0.8723(4) 0.3700(3)
C21_2 C 0.4919(5) 0.5759(7) 0.2970(4)
C22_2 C 0.4241(7) 0.9160(5) 0.2970(4)
H10_2 H 0.5463 0.5662 0.2856
H11_2 H 0.4338 0.9801 0.2856
C23_2 C 0.4140(5) 0.5469(7) 0.2386(3)
C24_2 C 0.4531(7) 0.8671(5) 0.2386(3)
C25_2 C 0.4110(5) 0.4901(7) 0.1663(4)
C26_2 C 0.5099(7) 0.9209(5) 0.1663(4)
C27_2 C 0.3497(6) 0.4861(8) 0.1042(5)
C28_2 C 0.5139(8) 0.8636(6) 0.1042(5)
H12_2 H 0.3127 0.5194 0.1085
H13_2 H 0.4806 0.7933 0.1085
C29_2 C 0.4642(8) 0.4369(10) 0.1606(5)
H14_2 H 0.5036 0.4375 0.2033
C31_2 C 0.3431(7) 0.4323(10) 0.0351(5)
C32_2 C 0.5677(10) 0.9108(7) 0.0351(5)
C33_2 C 0.4586(7) 0.3842(9) 0.0930(5)
H18_2 H 0.4946 0.3499 0.0888
C35_2 C 0.3984(6) 0.3830(8) 0.0314(4)
C39_2 C 0.5588(5) 0.6260(7) 0.4363(4)
C40_2 C 0.3740(7) 0.9328(5) 0.4363(4)
C41_2 C 0.5369(6) 0.6433(8) 0.5121(4)
C42_2 C 0.3567(8) 0.8936(5) 0.5121(4)
H20_2 H 0.4802 0.6501 0.5205
H21_2 H 0.3499 0.8301 0.5205
C43_2 C 0.6458(6) 0.6191(8) 0.4229(4)
H22_2 H 0.6633 0.6115 0.3711
C45_2 C 0.5976(6) 0.6506(8) 0.5767(4)
C46_2 C 0.3494(8) 0.9470(6) 0.5767(4)
H24_2 H 0.5821 0.6623 0.6279
H25_2 H 0.3377 0.9198 0.6279
C47_2 C 0.7059(8) 0.6235(11) 0.4864(5)
H26_2 H 0.7620 0.6155 0.4783
C49_2 C 0.6809(6) 0.6403(8) 0.5630(4)
C51_2 C 0.7456(6) 0.6487(8) 0.6291(4)
N3_2 N 0.7951(6) 0.6522(8) 0.6822(4)
N7 N 0.8976(6) 0.6130(7) 0.9016(4)
O6_2 O 0.4296(3) 0.6501(4) 0.3868(2)
O7_2 O 0.3499(4) 0.7795(3) 0.3868(2)
O8_2 O 0.3426(3) 0.5670(4) 0.2453(2)
O9_2 O 0.4330(4) 0.7756(3) 0.2453(2)
Ag2 Ag 0.87393(6) 0.63305(10) 0.77841(5)
C10_2 C 0.9357(7) 0.6091(7) 0.9588(5)
C18_2 C 0.7890(9) 0.8754(13) 0.8269(9)
O3_2 O 0.6080(14) 0.8422(14) 0.8603(8)
O4_2 O 0.6898(16) 0.9454(9) 0.7488(10)
O5_2 O 0.6260(15) 0.7709(9) 0.7414(9)
F1_2 F 0.8322(14) 0.9582(11) 0.8724(10)
F2_2 F 0.8523(14) 0.8902(12) 0.7670(8)
F3_2 F 0.7839(13) 0.7994(11) 0.8706(9)
S1_2 S 0.6682(4) 0.8568(2) 0.79252(19)
loop_
_geom_bond_atom_site_label_1
_geom_bond_atom_site_label_2
_geom_bond_site_symmetry_1
_geom_bond_site_symmetry_2
C18 F1 1_555 1_555
O3 S1 1_555 1_555
O4 S1 1_555 1_555
O5 S1 1_555 1_555
F2 C18 1_555 1_555
F3 C18 1_555 1_555
S1 C18 1_555 1_555
N2 C10 1_555 1_555
Ag5 N2 1_555 1_555
C1 C2 1_555 1_555
C2 H1 1_555 1_555
C3 C2 1_555 1_555
C4 C3 1_555 1_555
C5 C4 1_555 1_555
H2 C5 1_555 1_555
C7 C5 1_555 1_555
C11 C1 1_555 1_555
C12 C11 1_555 1_555
H6 C12 1_555 1_555
C14 C12 1_555 1_555
H8 C14 1_555 1_555
O1 C1 1_555 1_555
O2 C3 1_555 1_555
Fe1 O1 1_555 1_555
C19 C21 1_555 1_555
C20 C22 1_555 1_555
C21 H10 1_555 1_555
C22 H11 1_555 1_555
C23 C21 1_555 1_555
C24 C22 1_555 1_555
C25 C23 1_555 1_555
C26 C24 1_555 1_555
C27 C25 1_555 1_555
C28 C26 1_555 1_555
H12 C27 1_555 1_555
H13 C28 1_555 1_555
C29 C25 1_555 1_555
H14 C29 1_555 1_555
C31 C27 1_555 1_555
C32 C28 1_555 1_555
C33 C29 1_555 1_555
H18 C33 1_555 1_555
C35 C31 1_555 1_555
C39 C19 1_555 1_555
C40 C20 1_555 1_555
C41 C39 1_555 1_555
C42 C40 1_555 1_555
H20 C41 1_555 1_555
H21 C42 1_555 1_555
C43 C39 1_555 1_555
H22 C43 1_555 1_555
C45 C41 1_555 1_555
C46 C42 1_555 1_555
H24 C45 1_555 1_555
H25 C46 1_555 1_555
C47 C43 1_555 1_555
H26 C47 1_555 1_555
C49 C45 1_555 1_555
C51 C49 1_555 1_555
N3 C51 1_555 1_555
O6 Fe1 1_555 1_555
O7 Fe1 1_555 1_555
O8 Fe1 1_555 1_555
O9 Fe1 1_555 1_555
Ag5 N3 1_555 1_555
O2 Fe1 1_555 1_555
C19 O6 1_555 1_555
C20 O7 1_555 1_555
C23 O8 1_555 1_555
C24 O9 1_555 1_555
C33 C35 1_555 1_555
C47 C49 1_555 1_555
H3 C6 1_555 1_555
C8 C6 1_555 1_555
H5 C8 1_555 1_555
H7 C13 1_555 1_555
C15 C13 1_555 1_555
H9 C15 1_555 1_555
C17 C16 1_555 1_555
N1 C17 1_555 1_555
Ag1 N1 1_555 1_555
N9 Ag1 1_555 1_555
C8 C9 1_555 1_555
C15 C16 1_555 1_555
N9 C38 1_555 1_555
N5 C37 1_555 1_555
Ag6 N5 1_555 1_555
H15 C30 1_555 1_555
C34 C30 1_555 1_555
H19 C34 1_555 1_555
H23 C44 1_555 1_555
C48 C44 1_555 1_555
H27 C48 1_555 1_555
C52 C50 1_555 1_555
N4 C52 1_555 1_555
C54 F5 1_555 1_555
O11 S3 1_555 1_555
O13 S3 1_555 1_555
O15 S3 1_555 1_555
F7 C54 1_555 1_555
F9 C54 1_555 1_555
S3 C54 1_555 1_555
Ag6 N4 1_555 1_555
C34 C36 1_555 1_555
C48 C50 1_555 1_555
O13 Ag6 1_555 1_555
C53 F4 1_555 1_555
O10 S2 1_555 1_555
O12 S2 1_555 1_555
O14 S2 1_555 1_555
F6 C53 1_555 1_555
F8 C53 1_555 1_555
S2 C53 1_555 1_555
C53_2 F4_2 1_555 1_555
O10_2 S2_2 1_555 1_555
O12_2 S2_2 1_555 1_555
O14_2 S2_2 1_555 1_555
F6_2 C53_2 1_555 1_555
F8_2 C53_2 1_555 1_555
S2_2 C53_2 1_555 1_555
H15_2 C30_2 1_555 1_555
C34_2 C30_2 1_555 1_555
H19_2 C34_2 1_555 1_555
H23_2 C44_2 1_555 1_555
C48_2 C44_2 1_555 1_555
H27_2 C48_2 1_555 1_555
C52_2 C50_2 1_555 1_555
N4_2 C52_2 1_555 1_555
N8 Ag3 1_555 1_555
C54_2 F5_2 1_555 1_555
O11_2 S3_2 1_555 1_555
O13_2 S3_2 1_555 1_555
O15_2 S3_2 1_555 1_555
F7_2 C54_2 1_555 1_555
F9_2 C54_2 1_555 1_555
S3_2 C54_2 1_555 1_555
Ag3 N4_2 1_555 1_555
C34_2 C36_2 1_555 1_555
C48_2 C50_2 1_555 1_555
O13_2 Ag3 1_555 1_555
N8 C37_2 1_555 1_555
N6 C38_2 1_555 1_555
Ag4 N6 1_555 1_555
H3_2 C6_2 1_555 1_555
C8_2 C6_2 1_555 1_555
H5_2 C8_2 1_555 1_555
H7_2 C13_2 1_555 1_555
C15_2 C13_2 1_555 1_555
H9_2 C15_2 1_555 1_555
C17_2 C16_2 1_555 1_555
N1_2 C17_2 1_555 1_555
Ag4 N1_2 1_555 1_555
C8_2 C9_2 1_555 1_555
C15_2 C16_2 1_555 1_555
C1_2 C2_2 1_555 1_555
C2_2 H1_2 1_555 1_555
C3_2 C2_2 1_555 1_555
C4_2 C3_2 1_555 1_555
C5_2 C4_2 1_555 1_555
H2_2 C5_2 1_555 1_555
C7_2 C5_2 1_555 1_555
C11_2 C1_2 1_555 1_555
C12_2 C11_2 1_555 1_555
H6_2 C12_2 1_555 1_555
C14_2 C12_2 1_555 1_555
H8_2 C14_2 1_555 1_555
O1_2 C1_2 1_555 1_555
O2_2 C3_2 1_555 1_555
Fe1_2 O1_2 1_555 1_555
C19_2 C21_2 1_555 1_555
C20_2 C22_2 1_555 1_555
C21_2 H10_2 1_555 1_555
C22_2 H11_2 1_555 1_555
C23_2 C21_2 1_555 1_555
C24_2 C22_2 1_555 1_555
C25_2 C23_2 1_555 1_555
C26_2 C24_2 1_555 1_555
C27_2 C25_2 1_555 1_555
C28_2 C26_2 1_555 1_555
H12_2 C27_2 1_555 1_555
H13_2 C28_2 1_555 1_555
C29_2 C25_2 1_555 1_555
H14_2 C29_2 1_555 1_555
C31_2 C27_2 1_555 1_555
C32_2 C28_2 1_555 1_555
C33_2 C29_2 1_555 1_555
H18_2 C33_2 1_555 1_555
C35_2 C31_2 1_555 1_555
C39_2 C19_2 1_555 1_555
C40_2 C20_2 1_555 1_555
C41_2 C39_2 1_555 1_555
C42_2 C40_2 1_555 1_555
H20_2 C41_2 1_555 1_555
H21_2 C42_2 1_555 1_555
C43_2 C39_2 1_555 1_555
H22_2 C43_2 1_555 1_555
C45_2 C41_2 1_555 1_555
C46_2 C42_2 1_555 1_555
H24_2 C45_2 1_555 1_555
H25_2 C46_2 1_555 1_555
C47_2 C43_2 1_555 1_555
H26_2 C47_2 1_555 1_555
C49_2 C45_2 1_555 1_555
C51_2 C49_2 1_555 1_555
N3_2 C51_2 1_555 1_555
N7 Ag2 1_555 1_555
O6_2 Fe1_2 1_555 1_555
O7_2 Fe1_2 1_555 1_555
O8_2 Fe1_2 1_555 1_555
O9_2 Fe1_2 1_555 1_555
Ag2 N3_2 1_555 1_555
O2_2 Fe1_2 1_555 1_555
C19_2 O6_2 1_555 1_555
C20_2 O7_2 1_555 1_555
C23_2 O8_2 1_555 1_555
C24_2 O9_2 1_555 1_555
C33_2 C35_2 1_555 1_555
C47_2 C49_2 1_555 1_555
N7 C10_2 1_555 1_555
C18_2 F1_2 1_555 1_555
O3_2 S1_2 1_555 1_555
O4_2 S1_2 1_555 1_555
O5_2 S1_2 1_555 1_555
F2_2 C18_2 1_555 1_555
F3_2 C18_2 1_555 1_555
S1_2 C18_2 1_555 1_555

#END
