
###############################################################################
#
# This file contains modified crystal structure data generated from the
# MOF subset of the Cambridge Structural Database (CSD) v543 
# hosted by the Cambridge Crystallographic Data Centre (CCDC).
#
# This work is licensed under the Creative Commons
# Attribution-NonCommercial-ShareAlike 4.0 International License.
# To view a copy of this license, visit
# http://creativecommons.org/licenses/by-nc-sa/4.0/
# or send a letter to
# Creative Commons, PO Box 1866, Mountain View, CA 94042, USA.
#
# CIF created using the CSD Python API on 29 September 2022
# The structure has been converted into the P1 space group
# The structure has a 3D framework
# The original CSD entry LAGCED is in the trigonal crystal system
# The framework has been calculated to contain at least 10.0% void space
# The void calculation uses a probe of radius 1.32A, grid spacing 0.4
# The framework is charged, counterions have been retained in the structure
#
###############################################################################

data_LAGCED
_chemical_formula_moiety         '(C102 H54 Ag6 N12 O12 Zn2 2+)n'
_symmetry_cell_setting           triclinic
_symmetry_space_group_name_H-M   'P 1'
_symmetry_Int_Tables_number      1
_space_group_name_Hall           'P 1'
loop_
_symmetry_equiv_pos_site_id
_symmetry_equiv_pos_as_xyz
1 x,y,z
_cell_length_a                   15.733(3)
_cell_length_b                   15.733(3)
_cell_length_c                   16.486(6)
_cell_angle_alpha                90
_cell_angle_beta                 90
_cell_angle_gamma                120
_cell_volume                     3534.02
loop_
_atom_site_label
_atom_site_type_symbol
_atom_site_fract_x
_atom_site_fract_y
_atom_site_fract_z
C6 C 0.0316(5) 0.6248(5) 0.0749(3)
H3 H 0.0603 0.6297 0.1253
C8 C 0.0863(5) 0.6883(6) 0.0143(4)
H5 H 0.1511 0.7360 0.0242
C13 C 0.0155(3) 0.4413(4) 0.3344(3)
H7 H 0.0521 0.4725 0.2884
C15 C 0.0620(4) 0.4371(4) 0.4051(3)
H9 H 0.1299 0.4644 0.4060
C16 C 0.0090(3) 0.3935(3) 0.4724(2)
C17 C 0.0592(3) 0.3926(3) 0.5461(2)
N1 N 0.0986(3) 0.3933(3) 0.6037(2)
Ag4 Ag 0.14020(3) 0.40837(3) 0.73192(2)
C9 C 0.0470(3) 0.6820(3) 0.9408(3)
C10 C 0.1048(3) 0.7452(4) 0.8772(3)
N2 N 0.1525(3) 0.7989(3) 0.8245(2)
Ag5 Ag 0.26817(4) 0.85980(3) 0.73192(2)
C1 C 0.8590(3) 0.4017(3) 0.2585(2)
C2 C 0.9060(3) 0.4788(3) 0.2030(2)
H1 H 0.9658 0.5324 0.2181
C3 C 0.8683(3) 0.4806(3) 0.1251(2)
C4 C 0.9337(3) 0.5528(3) 0.0627(2)
C11 C 0.9136(3) 0.3982(3) 0.3335(2)
C12 C 0.8602(3) 0.3523(3) 0.4030(2)
H6 H 0.7921 0.3226 0.4022
C14 C 0.9071(3) 0.3505(3) 0.4728(2)
H8 H 0.8714 0.3211 0.5196
O1 O 0.7709(2) 0.3309(2) 0.25319(15)
O2 O 0.7826(2) 0.4238(2) 0.10330(14)
Zn1 Zn 0.6667 0.3333 0.17670(4)
Ag1 Ag 0.85980(3) 0.59163(3) 0.26808(2)
C18 C 0.5983(3) 0.4573(4) 0.2585(2)
C19 C 0.5427(4) 0.1410(3) 0.2585(2)
C20 C 0.5212(3) 0.4272(4) 0.2030(2)
C21 C 0.5728(4) 0.0940(3) 0.2030(2)
H10 H 0.4676 0.4334 0.2181
H11 H 0.5666 0.0342 0.2181
C22 C 0.5194(3) 0.3877(4) 0.1251(2)
C23 C 0.6123(4) 0.1317(3) 0.1251(2)
C24 C 0.4472(3) 0.3809(4) 0.0627(2)
C25 C 0.6191(4) 0.0663(3) 0.0627(2)
C28 C 0.3752(5) 0.4068(7) 0.0749(3)
H14 H 0.3703 0.4306 0.1253
C32 C 0.3117(6) 0.3980(8) 0.0143(4)
H18 H 0.2640 0.4151 0.0242
C38 C 0.6018(3) 0.5154(4) 0.3335(2)
C39 C 0.4846(4) 0.0864(3) 0.3335(2)
C40 C 0.6477(3) 0.5079(4) 0.4030(2)
C41 C 0.4921(4) 0.1398(3) 0.4030(2)
H20 H 0.6774 0.4695 0.4022
H21 H 0.5305 0.2079 0.4022
C42 C 0.5587(4) 0.5742(5) 0.3344(3)
H22 H 0.5275 0.5796 0.2884
C44 C 0.6495(3) 0.5566(4) 0.4728(2)
C45 C 0.4434(4) 0.0929(3) 0.4728(2)
H24 H 0.6789 0.5503 0.5196
H25 H 0.4497 0.1286 0.5196
C46 C 0.5629(4) 0.6249(6) 0.4051(3)
H26 H 0.5356 0.6655 0.4060
C48 C 0.6065(3) 0.6155(4) 0.4724(2)
C50 C 0.6074(3) 0.6666(4) 0.5461(2)
N3 N 0.6067(3) 0.7053(4) 0.6037(2)
N5 N 0.9014(3) 0.6067(3) 0.3963(2)
N6 N 0.3933(3) 0.2947(4) 0.3963(2)
N7 N 0.7053(4) 0.0986(3) 0.3963(2)
N10 N 0.7989(3) 0.6464(4) 0.1755(2)
N11 N 0.3536(4) 0.1525(3) 0.1755(2)
N12 N 0.8475(3) 0.2011(3) 0.1755(2)
O3 O 0.6691(2) 0.4400(3) 0.25319(15)
O4 O 0.5600(3) 0.2291(2) 0.25319(15)
O5 O 0.5762(2) 0.3588(3) 0.10330(14)
O6 O 0.6412(3) 0.2174(2) 0.10330(14)
Ag2 Ag 0.40837(3) 0.26817(4) 0.26808(2)
Ag3 Ag 0.73183(4) 0.14020(3) 0.26808(2)
Ag6 Ag 0.59163(3) 0.73183(4) 0.73192(2)
C5 C 0.8965(4) 0.5469(4) 0.9863(3)
H2 H 0.8316 0.4997 0.9760
C7 C 0.9517(4) 0.6080(5) 0.9249(3)
H4 H 0.9256 0.6000 0.8730
C26 C 0.4531(4) 0.3496(6) 0.9863(3)
C27 C 0.6504(6) 0.1035(4) 0.9863(3)
H12 H 0.5003 0.3319 0.9760
H13 H 0.6681 0.1684 0.9760
C30 C 0.3920(5) 0.3437(6) 0.9249(3)
C31 C 0.6563(6) 0.0483(4) 0.9249(3)
H16 H 0.4000 0.3256 0.8730
H17 H 0.6744 0.0744 0.8730
C34 C 0.3180(3) 0.3650(4) 0.9408(3)
C36 C 0.2548(4) 0.3596(5) 0.8772(3)
N8 N 0.2011(3) 0.3536(4) 0.8245(2)
C29 C 0.5932(7) 0.9684(5) 0.0749(3)
H15 H 0.5694 0.9397 0.1253
C33 C 0.6020(8) 0.9137(5) 0.0143(4)
H19 H 0.5849 0.8489 0.0242
C43 C 0.4258(5) 0.9845(3) 0.3344(3)
H23 H 0.4204 0.9479 0.2884
C47 C 0.3751(6) 0.9380(4) 0.4051(3)
H27 H 0.3345 0.8701 0.4060
C49 C 0.3845(4) 0.9910(3) 0.4724(2)
C51 C 0.3334(4) 0.9408(3) 0.5461(2)
N4 N 0.2947(4) 0.9014(3) 0.6037(2)
C35 C 0.6350(4) 0.9530(3) 0.9408(3)
C37 C 0.6404(5) 0.8952(3) 0.8772(3)
N9 N 0.6464(4) 0.8475(3) 0.8245(2)
C35_2 C 0.3650(4) 0.0470(3) 0.0592(3)
C37_2 C 0.3596(5) 0.1048(3) 0.1228(3)
C29_2 C 0.4068(7) 0.0316(5) 0.9251(3)
H15_2 H 0.4306 0.0603 0.8747
C33_2 C 0.3980(8) 0.0863(5) 0.9857(4)
H19_2 H 0.4151 0.1511 0.9758
C43_2 C 0.5742(5) 0.0155(3) 0.6656(3)
H23_2 H 0.5796 0.0521 0.7116
C47_2 C 0.6249(6) 0.0620(4) 0.5949(3)
H27_2 H 0.6655 0.1299 0.5940
C49_2 C 0.6155(4) 0.0090(3) 0.5276(2)
C51_2 C 0.6666(4) 0.0592(3) 0.4539(2)
C5_2 C 0.1035(4) 0.4531(4) 0.0137(3)
H2_2 H 0.1684 0.5003 0.0240
C7_2 C 0.0483(4) 0.3920(5) 0.0751(3)
H4_2 H 0.0744 0.4000 0.1270
C26_2 C 0.5469(4) 0.6504(6) 0.0137(3)
C27_2 C 0.3496(6) 0.8965(4) 0.0137(3)
H12_2 H 0.4997 0.6681 0.0240
H13_2 H 0.3319 0.8316 0.0240
C30_2 C 0.6080(5) 0.6563(6) 0.0751(3)
C31_2 C 0.3437(6) 0.9517(4) 0.0751(3)
H16_2 H 0.6000 0.6744 0.1270
H17_2 H 0.3256 0.9256 0.1270
C34_2 C 0.6820(3) 0.6350(4) 0.0592(3)
C36_2 C 0.7452(4) 0.6404(5) 0.1228(3)
C1_2 C 0.1410(3) 0.5983(3) 0.7415(2)
C2_2 C 0.0940(3) 0.5212(3) 0.7970(2)
H1_2 H 0.0342 0.4676 0.7819
C3_2 C 0.1317(3) 0.5194(3) 0.8749(2)
C4_2 C 0.0663(3) 0.4472(3) 0.9373(2)
C11_2 C 0.0864(3) 0.6018(3) 0.6665(2)
C12_2 C 0.1398(3) 0.6477(3) 0.5970(2)
H6_2 H 0.2079 0.6774 0.5978
C14_2 C 0.0929(3) 0.6495(3) 0.5272(2)
H8_2 H 0.1286 0.6789 0.4804
O1_2 O 0.2291(2) 0.6691(2) 0.74681(15)
O2_2 O 0.2174(2) 0.5762(2) 0.89670(14)
Zn1_2 Zn 0.3333 0.6667 0.82330(4)
C18_2 C 0.4017(3) 0.5427(4) 0.7415(2)
C19_2 C 0.4573(4) 0.8590(3) 0.7415(2)
C20_2 C 0.4788(3) 0.5728(4) 0.7970(2)
C21_2 C 0.4272(4) 0.9060(3) 0.7970(2)
H10_2 H 0.5324 0.5666 0.7819
H11_2 H 0.4334 0.9658 0.7819
C22_2 C 0.4806(3) 0.6123(4) 0.8749(2)
C23_2 C 0.3877(4) 0.8683(3) 0.8749(2)
C24_2 C 0.5528(3) 0.6191(4) 0.9373(2)
C25_2 C 0.3809(4) 0.9337(3) 0.9373(2)
C28_2 C 0.6248(5) 0.5932(7) 0.9251(3)
H14_2 H 0.6297 0.5694 0.8747
C32_2 C 0.6883(6) 0.6020(8) 0.9857(4)
H18_2 H 0.7360 0.5849 0.9758
C38_2 C 0.3982(3) 0.4846(4) 0.6665(2)
C39_2 C 0.5154(4) 0.9136(3) 0.6665(2)
C40_2 C 0.3523(3) 0.4921(4) 0.5970(2)
C41_2 C 0.5079(4) 0.8602(3) 0.5970(2)
H20_2 H 0.3226 0.5305 0.5978
H21_2 H 0.4695 0.7921 0.5978
C42_2 C 0.4413(4) 0.4258(5) 0.6656(3)
H22_2 H 0.4725 0.4204 0.7116
C44_2 C 0.3505(3) 0.4434(4) 0.5272(2)
C45_2 C 0.5566(4) 0.9071(3) 0.5272(2)
H24_2 H 0.3211 0.4497 0.4804
H25_2 H 0.5503 0.8714 0.4804
C46_2 C 0.4371(4) 0.3751(6) 0.5949(3)
H26_2 H 0.4644 0.3345 0.5940
C48_2 C 0.3935(3) 0.3845(4) 0.5276(2)
C50_2 C 0.3926(3) 0.3334(4) 0.4539(2)
O3_2 O 0.3309(2) 0.5600(3) 0.74681(15)
O4_2 O 0.4400(3) 0.7709(2) 0.74681(15)
O5_2 O 0.4238(2) 0.6412(3) 0.89670(14)
O6_2 O 0.3588(3) 0.7826(2) 0.89670(14)
C9_2 C 0.9530(3) 0.3180(3) 0.0592(3)
C10_2 C 0.8952(3) 0.2548(4) 0.1228(3)
C6_2 C 0.9684(5) 0.3752(5) 0.9251(3)
H3_2 H 0.9397 0.3703 0.8747
C8_2 C 0.9137(5) 0.3117(6) 0.9857(4)
H5_2 H 0.8489 0.2640 0.9758
C13_2 C 0.9845(3) 0.5587(4) 0.6656(3)
H7_2 H 0.9479 0.5275 0.7116
C15_2 C 0.9380(4) 0.5629(4) 0.5949(3)
H9_2 H 0.8701 0.5356 0.5940
C16_2 C 0.9910(3) 0.6065(3) 0.5276(2)
C17_2 C 0.9408(3) 0.6074(3) 0.4539(2)
loop_
_geom_bond_atom_site_label_1
_geom_bond_atom_site_label_2
_geom_bond_site_symmetry_1
_geom_bond_site_symmetry_2
H3 C6 1_555 1_555
C8 C6 1_555 1_555
H5 C8 1_555 1_555
H7 C13 1_555 1_555
C15 C13 1_555 1_555
H9 C15 1_555 1_555
C17 C16 1_555 1_555
N1 C17 1_555 1_555
Ag4 N1 1_555 1_555
C15 C16 1_555 1_555
C10 C9 1_555 1_555
N2 C10 1_555 1_555
Ag5 N2 1_555 1_555
C1 C2 1_555 1_555
C2 H1 1_555 1_555
C3 C2 1_555 1_555
C4 C3 1_555 1_555
C11 C1 1_555 1_555
C12 C11 1_555 1_555
H6 C12 1_555 1_555
C14 C12 1_555 1_555
H8 C14 1_555 1_555
O1 C1 1_555 1_555
O2 C3 1_555 1_555
Zn1 O1 1_555 1_555
Ag1 C2 1_555 1_555
C18 C20 1_555 1_555
C19 C21 1_555 1_555
C20 H10 1_555 1_555
C21 H11 1_555 1_555
C22 C20 1_555 1_555
C23 C21 1_555 1_555
C24 C22 1_555 1_555
C25 C23 1_555 1_555
C28 C24 1_555 1_555
H14 C28 1_555 1_555
C32 C28 1_555 1_555
H18 C32 1_555 1_555
C38 C18 1_555 1_555
C39 C19 1_555 1_555
C40 C38 1_555 1_555
C41 C39 1_555 1_555
H20 C40 1_555 1_555
H21 C41 1_555 1_555
C42 C38 1_555 1_555
H22 C42 1_555 1_555
C44 C40 1_555 1_555
C45 C41 1_555 1_555
H24 C44 1_555 1_555
H25 C45 1_555 1_555
C46 C42 1_555 1_555
H26 C46 1_555 1_555
C48 C44 1_555 1_555
C50 C48 1_555 1_555
N3 C50 1_555 1_555
N5 Ag1 1_555 1_555
N6 Ag2 1_555 1_555
N7 Ag3 1_555 1_555
N10 Ag1 1_555 1_555
N11 Ag2 1_555 1_555
N12 Ag3 1_555 1_555
O3 Zn1 1_555 1_555
O4 Zn1 1_555 1_555
O5 Zn1 1_555 1_555
O6 Zn1 1_555 1_555
Ag2 C20 1_555 1_555
Ag3 C21 1_555 1_555
Ag6 N3 1_555 1_555
O2 Zn1 1_555 1_555
C18 O3 1_555 1_555
C19 O4 1_555 1_555
C22 O5 1_555 1_555
C23 O6 1_555 1_555
C46 C48 1_555 1_555
H2 C5 1_555 1_555
C7 C5 1_555 1_555
H4 C7 1_555 1_555
H12 C26 1_555 1_555
H13 C27 1_555 1_555
C30 C26 1_555 1_555
C31 C27 1_555 1_555
H16 C30 1_555 1_555
H17 C31 1_555 1_555
C34 C30 1_555 1_555
C36 C34 1_555 1_555
N8 C36 1_555 1_555
Ag4 N8 1_555 1_555
H15 C29 1_555 1_555
C33 C29 1_555 1_555
H19 C33 1_555 1_555
H23 C43 1_555 1_555
C47 C43 1_555 1_555
H27 C47 1_555 1_555
C51 C49 1_555 1_555
N4 C51 1_555 1_555
Ag5 N4 1_555 1_555
C47 C49 1_555 1_555
C37 C35 1_555 1_555
N9 C37 1_555 1_555
Ag6 N9 1_555 1_555
C37_2 C35_2 1_555 1_555
N11 C37_2 1_555 1_555
H15_2 C29_2 1_555 1_555
C33_2 C29_2 1_555 1_555
H19_2 C33_2 1_555 1_555
H23_2 C43_2 1_555 1_555
C47_2 C43_2 1_555 1_555
H27_2 C47_2 1_555 1_555
C51_2 C49_2 1_555 1_555
N7 C51_2 1_555 1_555
C47_2 C49_2 1_555 1_555
H2_2 C5_2 1_555 1_555
C7_2 C5_2 1_555 1_555
H4_2 C7_2 1_555 1_555
H12_2 C26_2 1_555 1_555
H13_2 C27_2 1_555 1_555
C30_2 C26_2 1_555 1_555
C31_2 C27_2 1_555 1_555
H16_2 C30_2 1_555 1_555
H17_2 C31_2 1_555 1_555
C34_2 C30_2 1_555 1_555
C36_2 C34_2 1_555 1_555
N10 C36_2 1_555 1_555
C1_2 C2_2 1_555 1_555
C2_2 H1_2 1_555 1_555
C3_2 C2_2 1_555 1_555
C4_2 C3_2 1_555 1_555
C11_2 C1_2 1_555 1_555
C12_2 C11_2 1_555 1_555
H6_2 C12_2 1_555 1_555
C14_2 C12_2 1_555 1_555
H8_2 C14_2 1_555 1_555
O1_2 C1_2 1_555 1_555
O2_2 C3_2 1_555 1_555
Zn1_2 O1_2 1_555 1_555
Ag4 C2_2 1_555 1_555
C18_2 C20_2 1_555 1_555
C19_2 C21_2 1_555 1_555
C20_2 H10_2 1_555 1_555
C21_2 H11_2 1_555 1_555
C22_2 C20_2 1_555 1_555
C23_2 C21_2 1_555 1_555
C24_2 C22_2 1_555 1_555
C25_2 C23_2 1_555 1_555
C28_2 C24_2 1_555 1_555
H14_2 C28_2 1_555 1_555
C32_2 C28_2 1_555 1_555
H18_2 C32_2 1_555 1_555
C38_2 C18_2 1_555 1_555
C39_2 C19_2 1_555 1_555
C40_2 C38_2 1_555 1_555
C41_2 C39_2 1_555 1_555
H20_2 C40_2 1_555 1_555
H21_2 C41_2 1_555 1_555
C42_2 C38_2 1_555 1_555
H22_2 C42_2 1_555 1_555
C44_2 C40_2 1_555 1_555
C45_2 C41_2 1_555 1_555
H24_2 C44_2 1_555 1_555
H25_2 C45_2 1_555 1_555
C46_2 C42_2 1_555 1_555
H26_2 C46_2 1_555 1_555
C48_2 C44_2 1_555 1_555
C50_2 C48_2 1_555 1_555
N6 C50_2 1_555 1_555
O3_2 Zn1_2 1_555 1_555
O4_2 Zn1_2 1_555 1_555
O5_2 Zn1_2 1_555 1_555
O6_2 Zn1_2 1_555 1_555
Ag6 C20_2 1_555 1_555
Ag5 C21_2 1_555 1_555
O2_2 Zn1_2 1_555 1_555
C18_2 O3_2 1_555 1_555
C19_2 O4_2 1_555 1_555
C22_2 O5_2 1_555 1_555
C23_2 O6_2 1_555 1_555
C46_2 C48_2 1_555 1_555
C10_2 C9_2 1_555 1_555
N12 C10_2 1_555 1_555
H3_2 C6_2 1_555 1_555
C8_2 C6_2 1_555 1_555
H5_2 C8_2 1_555 1_555
H7_2 C13_2 1_555 1_555
C15_2 C13_2 1_555 1_555
H9_2 C15_2 1_555 1_555
C17_2 C16_2 1_555 1_555
N5 C17_2 1_555 1_555
C15_2 C16_2 1_555 1_555

#END
