
###############################################################################
#
# This file contains modified crystal structure data generated from the
# MOF subset of the Cambridge Structural Database (CSD) v543 
# hosted by the Cambridge Crystallographic Data Centre (CCDC).
#
# This work is licensed under the Creative Commons
# Attribution-NonCommercial-ShareAlike 4.0 International License.
# To view a copy of this license, visit
# http://creativecommons.org/licenses/by-nc-sa/4.0/
# or send a letter to
# Creative Commons, PO Box 1866, Mountain View, CA 94042, USA.
#
# CIF created using the CSD Python API on 29 September 2022
# The structure has been converted into the P1 space group
# The structure has a 3D framework
# The original CSD entry LAGCON is in the trigonal crystal system
# The framework has been calculated to contain at least 10.0% void space
# The void calculation uses a probe of radius 1.32A, grid spacing 0.4
# The framework is charged, counterions have been retained in the structure
#
###############################################################################

data_LAGCON
_chemical_formula_moiety         '(C102 H54 Ag6 N12 O12 Zn2 2+)n'
_symmetry_cell_setting           triclinic
_symmetry_space_group_name_H-M   'P 1'
_symmetry_Int_Tables_number      1
_space_group_name_Hall           'P 1'
loop_
_symmetry_equiv_pos_site_id
_symmetry_equiv_pos_as_xyz
1 x,y,z
_cell_length_a                   15.4582(12)
_cell_length_b                   15.4582(12)
_cell_length_c                   16.5235(18)
_cell_angle_alpha                90
_cell_angle_beta                 90
_cell_angle_gamma                120
_cell_volume                     3419.4
loop_
_atom_site_label
_atom_site_type_symbol
_atom_site_fract_x
_atom_site_fract_y
_atom_site_fract_z
C50 C 0.0537(6) 0.3868(4) 0.0503(3)
N3 N 0.0931(5) 0.3874(4) 0.1079(2)
Ag6 Ag 0.12757(4) 0.40088(3) 0.23721(2)
C28 C 0.0359(9) 0.6262(5) 0.5786(3)
H14 H 0.0636 0.6317 0.6296
C32 C 0.0928(8) 0.6925(5) 0.5190(3)
H18 H 0.1580 0.7425 0.5296
C34 C 0.0520(5) 0.6837(4) 0.4436(3)
C36 C 0.1112(5) 0.7525(4) 0.3813(3)
C42 C 0.0151(6) 0.4360(5) 0.8379(3)
H22 H 0.0531 0.4657 0.7919
C46 C 0.0618(6) 0.4323(5) 0.9086(3)
H26 H 0.1307 0.4588 0.9101
C48 C 0.0049(6) 0.3891(4) 0.9760(3)
N8 N 0.1561(4) 0.8059(3) 0.3294(2)
Ag7 Ag 0.27331(3) 0.87243(4) 0.23721(2)
H8 H 0.6795 0.5445 0.0224
C17 C 0.6132(4) 0.6669(4) 0.0503(3)
N1 N 0.6126(4) 0.7057(3) 0.1079(2)
H24 H 0.8650 0.3205 0.0224
H25 H 0.4555 0.1350 0.0224
Ag4 Ag 0.59912(3) 0.72669(3) 0.23721(2)
C1 C 0.6025(3) 0.4617(3) 0.7609(2)
C2 C 0.5247(3) 0.4371(3) 0.7049(2)
H1 H 0.4732 0.4489 0.7190
C3 C 0.5219(3) 0.3944(3) 0.6268(2)
C4 C 0.4481(3) 0.3871(3) 0.5645(2)
C5 C 0.4550(4) 0.3554(4) 0.4887(3)
H2 H 0.5051 0.3404 0.4776
C6 C 0.3738(5) 0.4097(7) 0.5786(3)
H3 H 0.3683 0.4319 0.6296
C7 C 0.3880(4) 0.3453(4) 0.4275(3)
H4 H 0.3928 0.3230 0.3764
C8 C 0.3075(5) 0.4003(6) 0.5190(3)
H5 H 0.2575 0.4155 0.5296
C9 C 0.3163(4) 0.3683(3) 0.4436(3)
C10 C 0.2475(4) 0.3587(3) 0.3813(3)
C11 C 0.6041(3) 0.5168(3) 0.8353(2)
C12 C 0.6492(3) 0.5060(3) 0.9041(2)
H6 H 0.6785 0.4660 0.9022
C13 C 0.5640(5) 0.5791(4) 0.8379(3)
H7 H 0.5343 0.5874 0.7919
C14 C 0.6515(4) 0.5539(4) 0.9758(3)
C15 C 0.5677(5) 0.6295(4) 0.9086(3)
H9 H 0.5412 0.6719 0.9101
C16 C 0.6109(4) 0.6158(4) 0.9760(3)
N2 N 0.1941(3) 0.3502(3) 0.3294(2)
O1 O 0.6725(2) 0.44236(19) 0.75412(14)
O2 O 0.5803(2) 0.3649(2) 0.60412(14)
Zn1 Zn 0.6667 0.3333 0.67826(4)
Ag1 Ag 0.40088(3) 0.27331(3) 0.76279(2)
C18 C 0.8592(4) 0.3975(3) 0.7609(2)
C19 C 0.5383(3) 0.1408(4) 0.7609(2)
C20 C 0.9124(4) 0.4753(3) 0.7049(2)
C21 C 0.5629(3) 0.0876(4) 0.7049(2)
H10 H 0.9757 0.5268 0.7190
H11 H 0.5511 0.0243 0.7190
C22 C 0.8725(4) 0.4781(3) 0.6268(2)
C23 C 0.6056(3) 0.1275(4) 0.6268(2)
C24 C 0.9390(4) 0.5519(3) 0.5645(2)
C25 C 0.6129(3) 0.0610(4) 0.5645(2)
C26 C 0.9004(6) 0.5450(4) 0.4887(3)
C27 C 0.6446(4) 0.0996(6) 0.4887(3)
H12 H 0.8353 0.4949 0.4776
H13 H 0.6596 0.1647 0.4776
C30 C 0.9573(6) 0.6120(4) 0.4275(3)
C31 C 0.6547(4) 0.0427(6) 0.4275(3)
H16 H 0.9302 0.6072 0.3764
H17 H 0.6770 0.0698 0.3764
C38 C 0.9127(4) 0.3959(3) 0.8353(2)
C39 C 0.4832(3) 0.0873(4) 0.8353(2)
C40 C 0.8568(4) 0.3508(3) 0.9041(2)
C41 C 0.4940(3) 0.1432(4) 0.9041(2)
H20 H 0.7875 0.3215 0.9022
H21 H 0.5340 0.2125 0.9022
C44 C 0.9024(6) 0.3485(4) 0.9758(3)
C45 C 0.4461(4) 0.0976(6) 0.9758(3)
N5 N 0.3874(4) 0.2943(3) 0.8921(2)
N6 N 0.9069(5) 0.6126(4) 0.8921(2)
N7 N 0.7057(3) 0.0931(5) 0.8921(2)
N10 N 0.3502(3) 0.1561(4) 0.6706(2)
N11 N 0.8059(3) 0.6498(3) 0.6706(2)
N12 N 0.8439(4) 0.1941(3) 0.6706(2)
O3 O 0.76986(28) 0.3275(2) 0.75412(14)
O4 O 0.55764(19) 0.23014(28) 0.75412(14)
O5 O 0.7846(3) 0.4197(2) 0.60412(14)
O6 O 0.6351(2) 0.2154(3) 0.60412(14)
Ag2 Ag 0.87243(4) 0.59912(3) 0.76279(2)
Ag3 Ag 0.72669(3) 0.12757(4) 0.76279(2)
C51 C 0.3331(4) 0.9463(6) 0.0503(3)
N4 N 0.2943(3) 0.9069(5) 0.1079(2)
C29 C 0.5903(7) 0.9641(9) 0.5786(3)
H15 H 0.5681 0.9364 0.6296
C33 C 0.5997(6) 0.9072(8) 0.5190(3)
H19 H 0.5845 0.8420 0.5296
C35 C 0.6317(3) 0.9480(5) 0.4436(3)
C37 C 0.6413(3) 0.8888(5) 0.3813(3)
C43 C 0.4209(4) 0.9849(6) 0.8379(3)
H23 H 0.4126 0.9469 0.7919
C47 C 0.3705(4) 0.9382(6) 0.9086(3)
H27 H 0.3281 0.8693 0.9101
C49 C 0.3842(4) 0.9951(6) 0.9760(3)
N9 N 0.6498(3) 0.8439(4) 0.3294(2)
C29_2 C 0.4097(7) 0.0359(9) 0.4214(3)
H15_2 H 0.4319 0.0636 0.3704
C33_2 C 0.4003(6) 0.0928(8) 0.4810(3)
H19_2 H 0.4155 0.1580 0.4704
C35_2 C 0.3683(3) 0.0520(5) 0.5564(3)
C37_2 C 0.3587(3) 0.1112(5) 0.6187(3)
C43_2 C 0.5791(4) 0.0151(6) 0.1621(3)
H23_2 H 0.5874 0.0531 0.2081
C47_2 C 0.6295(4) 0.0618(6) 0.0914(3)
H27_2 H 0.6719 0.1307 0.0899
C49_2 C 0.6158(4) 0.0049(6) 0.0240(3)
C51_2 C 0.6669(4) 0.0537(6) 0.9497(3)
C1_2 C 0.3975(3) 0.5383(3) 0.2391(2)
C2_2 C 0.4753(3) 0.5629(3) 0.2951(2)
H1_2 H 0.5268 0.5511 0.2810
C3_2 C 0.4781(3) 0.6056(3) 0.3732(2)
C4_2 C 0.5519(3) 0.6129(3) 0.4355(2)
C5_2 C 0.5450(4) 0.6446(4) 0.5113(3)
H2_2 H 0.4949 0.6596 0.5224
C6_2 C 0.6262(5) 0.5903(7) 0.4214(3)
H3_2 H 0.6317 0.5681 0.3704
C7_2 C 0.6120(4) 0.6547(4) 0.5725(3)
H4_2 H 0.6072 0.6770 0.6236
C8_2 C 0.6925(5) 0.5997(6) 0.4810(3)
H5_2 H 0.7425 0.5845 0.4704
C9_2 C 0.6837(4) 0.6317(3) 0.5564(3)
C10_2 C 0.7525(4) 0.6413(3) 0.6187(3)
C11_2 C 0.3959(3) 0.4832(3) 0.1647(2)
C12_2 C 0.3508(3) 0.4940(3) 0.0959(2)
H6_2 H 0.3215 0.5340 0.0978
C13_2 C 0.4360(5) 0.4209(4) 0.1621(3)
H7_2 H 0.4657 0.4126 0.2081
C14_2 C 0.3485(4) 0.4461(4) 0.0242(3)
C15_2 C 0.4323(5) 0.3705(4) 0.0914(3)
H9_2 H 0.4588 0.3281 0.0899
C16_2 C 0.3891(4) 0.3842(4) 0.0240(3)
O1_2 O 0.3275(2) 0.55764(19) 0.24588(14)
O2_2 O 0.4197(2) 0.6351(2) 0.39588(14)
Zn1_2 Zn 0.3333 0.6667 0.32174(4)
C18_2 C 0.1408(4) 0.6025(3) 0.2391(2)
C19_2 C 0.4617(3) 0.8592(4) 0.2391(2)
C20_2 C 0.0876(4) 0.5247(3) 0.2951(2)
C21_2 C 0.4371(3) 0.9124(4) 0.2951(2)
H10_2 H 0.0243 0.4732 0.2810
H11_2 H 0.4489 0.9757 0.2810
C22_2 C 0.1275(4) 0.5219(3) 0.3732(2)
C23_2 C 0.3944(3) 0.8725(4) 0.3732(2)
C24_2 C 0.0610(4) 0.4481(3) 0.4355(2)
C25_2 C 0.3871(3) 0.9390(4) 0.4355(2)
C26_2 C 0.0996(6) 0.4550(4) 0.5113(3)
C27_2 C 0.3554(4) 0.9004(6) 0.5113(3)
H12_2 H 0.1647 0.5051 0.5224
H13_2 H 0.3404 0.8353 0.5224
C30_2 C 0.0427(6) 0.3880(4) 0.5725(3)
C31_2 C 0.3453(4) 0.9573(6) 0.5725(3)
H16_2 H 0.0698 0.3928 0.6236
H17_2 H 0.3230 0.9302 0.6236
C38_2 C 0.0873(4) 0.6041(3) 0.1647(2)
C39_2 C 0.5168(3) 0.9127(4) 0.1647(2)
C40_2 C 0.1432(4) 0.6492(3) 0.0959(2)
C41_2 C 0.5060(3) 0.8568(4) 0.0959(2)
H20_2 H 0.2125 0.6785 0.0978
H21_2 H 0.4660 0.7875 0.0978
C44_2 C 0.0976(6) 0.6515(4) 0.0242(3)
C45_2 C 0.5539(4) 0.9024(6) 0.0242(3)
O3_2 O 0.23014(28) 0.6725(2) 0.24588(14)
O4_2 O 0.44236(19) 0.76986(28) 0.24588(14)
O5_2 O 0.2154(3) 0.5803(2) 0.39588(14)
O6_2 O 0.3649(2) 0.7846(3) 0.39588(14)
H8_2 H 0.3205 0.4555 0.9776
C17_2 C 0.3868(4) 0.3331(4) 0.9497(3)
H24_2 H 0.1350 0.6795 0.9776
H25_2 H 0.5445 0.8650 0.9776
C28_2 C 0.9641(9) 0.3738(5) 0.4214(3)
H14_2 H 0.9364 0.3683 0.3704
C32_2 C 0.9072(8) 0.3075(5) 0.4810(3)
H18_2 H 0.8420 0.2575 0.4704
C34_2 C 0.9480(5) 0.3163(4) 0.5564(3)
C36_2 C 0.8888(5) 0.2475(4) 0.6187(3)
C42_2 C 0.9849(6) 0.5640(5) 0.1621(3)
H22_2 H 0.9469 0.5343 0.2081
C46_2 C 0.9382(6) 0.5677(5) 0.0914(3)
H26_2 H 0.8693 0.5412 0.0899
C48_2 C 0.9951(6) 0.6109(4) 0.0240(3)
C50_2 C 0.9463(6) 0.6132(4) 0.9497(3)
loop_
_geom_bond_atom_site_label_1
_geom_bond_atom_site_label_2
_geom_bond_site_symmetry_1
_geom_bond_site_symmetry_2
N3 C50 1_555 1_555
Ag6 N3 1_555 1_555
H14 C28 1_555 1_555
C32 C28 1_555 1_555
H18 C32 1_555 1_555
C36 C34 1_555 1_555
H22 C42 1_555 1_555
C46 C42 1_555 1_555
H26 C46 1_555 1_555
N8 C36 1_555 1_555
Ag7 N8 1_555 1_555
C32 C34 1_555 1_555
C46 C48 1_555 1_555
N1 C17 1_555 1_555
Ag4 N1 1_555 1_555
C1 C2 1_555 1_555
C2 H1 1_555 1_555
C3 C2 1_555 1_555
C4 C3 1_555 1_555
C5 C4 1_555 1_555
H2 C5 1_555 1_555
C6 C4 1_555 1_555
H3 C6 1_555 1_555
C7 C5 1_555 1_555
H4 C7 1_555 1_555
C8 C6 1_555 1_555
H5 C8 1_555 1_555
C9 C7 1_555 1_555
C10 C9 1_555 1_555
C11 C1 1_555 1_555
C12 C11 1_555 1_555
H6 C12 1_555 1_555
C13 C11 1_555 1_555
H7 C13 1_555 1_555
C14 C12 1_555 1_555
C15 C13 1_555 1_555
H9 C15 1_555 1_555
C16 C14 1_555 1_555
N2 C10 1_555 1_555
O1 C1 1_555 1_555
O2 C3 1_555 1_555
Zn1 O1 1_555 1_555
Ag1 C2 1_555 1_555
C18 C20 1_555 1_555
C19 C21 1_555 1_555
C20 H10 1_555 1_555
C21 H11 1_555 1_555
C22 C20 1_555 1_555
C23 C21 1_555 1_555
C24 C22 1_555 1_555
C25 C23 1_555 1_555
C26 C24 1_555 1_555
C27 C25 1_555 1_555
H12 C26 1_555 1_555
H13 C27 1_555 1_555
C30 C26 1_555 1_555
C31 C27 1_555 1_555
H16 C30 1_555 1_555
H17 C31 1_555 1_555
C38 C18 1_555 1_555
C39 C19 1_555 1_555
C40 C38 1_555 1_555
C41 C39 1_555 1_555
H20 C40 1_555 1_555
H21 C41 1_555 1_555
C44 C40 1_555 1_555
C45 C41 1_555 1_555
N5 Ag1 1_555 1_555
N6 Ag2 1_555 1_555
N7 Ag3 1_555 1_555
N10 Ag1 1_555 1_555
N11 Ag2 1_555 1_555
N12 Ag3 1_555 1_555
O3 Zn1 1_555 1_555
O4 Zn1 1_555 1_555
O5 Zn1 1_555 1_555
O6 Zn1 1_555 1_555
Ag2 C20 1_555 1_555
Ag3 C21 1_555 1_555
Ag6 N2 1_555 1_555
C8 C9 1_555 1_555
C15 C16 1_555 1_555
O2 Zn1 1_555 1_555
C18 O3 1_555 1_555
C19 O4 1_555 1_555
C22 O5 1_555 1_555
C23 O6 1_555 1_555
N4 C51 1_555 1_555
Ag7 N4 1_555 1_555
H15 C29 1_555 1_555
C33 C29 1_555 1_555
H19 C33 1_555 1_555
C37 C35 1_555 1_555
H23 C43 1_555 1_555
C47 C43 1_555 1_555
H27 C47 1_555 1_555
N9 C37 1_555 1_555
Ag4 N9 1_555 1_555
C33 C35 1_555 1_555
C47 C49 1_555 1_555
H15_2 C29_2 1_555 1_555
C33_2 C29_2 1_555 1_555
H19_2 C33_2 1_555 1_555
C37_2 C35_2 1_555 1_555
H23_2 C43_2 1_555 1_555
C47_2 C43_2 1_555 1_555
H27_2 C47_2 1_555 1_555
N10 C37_2 1_555 1_555
C33_2 C35_2 1_555 1_555
C47_2 C49_2 1_555 1_555
N7 C51_2 1_555 1_555
C1_2 C2_2 1_555 1_555
C2_2 H1_2 1_555 1_555
C3_2 C2_2 1_555 1_555
C4_2 C3_2 1_555 1_555
C5_2 C4_2 1_555 1_555
H2_2 C5_2 1_555 1_555
C6_2 C4_2 1_555 1_555
H3_2 C6_2 1_555 1_555
C7_2 C5_2 1_555 1_555
H4_2 C7_2 1_555 1_555
C8_2 C6_2 1_555 1_555
H5_2 C8_2 1_555 1_555
C9_2 C7_2 1_555 1_555
C10_2 C9_2 1_555 1_555
C11_2 C1_2 1_555 1_555
C12_2 C11_2 1_555 1_555
H6_2 C12_2 1_555 1_555
C13_2 C11_2 1_555 1_555
H7_2 C13_2 1_555 1_555
C14_2 C12_2 1_555 1_555
C15_2 C13_2 1_555 1_555
H9_2 C15_2 1_555 1_555
C16_2 C14_2 1_555 1_555
N11 C10_2 1_555 1_555
O1_2 C1_2 1_555 1_555
O2_2 C3_2 1_555 1_555
Zn1_2 O1_2 1_555 1_555
Ag4 C2_2 1_555 1_555
C18_2 C20_2 1_555 1_555
C19_2 C21_2 1_555 1_555
C20_2 H10_2 1_555 1_555
C21_2 H11_2 1_555 1_555
C22_2 C20_2 1_555 1_555
C23_2 C21_2 1_555 1_555
C24_2 C22_2 1_555 1_555
C25_2 C23_2 1_555 1_555
C26_2 C24_2 1_555 1_555
C27_2 C25_2 1_555 1_555
H12_2 C26_2 1_555 1_555
H13_2 C27_2 1_555 1_555
C30_2 C26_2 1_555 1_555
C31_2 C27_2 1_555 1_555
H16_2 C30_2 1_555 1_555
H17_2 C31_2 1_555 1_555
C38_2 C18_2 1_555 1_555
C39_2 C19_2 1_555 1_555
C40_2 C38_2 1_555 1_555
C41_2 C39_2 1_555 1_555
H20_2 C40_2 1_555 1_555
H21_2 C41_2 1_555 1_555
C44_2 C40_2 1_555 1_555
C45_2 C41_2 1_555 1_555
O3_2 Zn1_2 1_555 1_555
O4_2 Zn1_2 1_555 1_555
O5_2 Zn1_2 1_555 1_555
O6_2 Zn1_2 1_555 1_555
Ag6 C20_2 1_555 1_555
Ag7 C21_2 1_555 1_555
C8_2 C9_2 1_555 1_555
C15_2 C16_2 1_555 1_555
O2_2 Zn1_2 1_555 1_555
C18_2 O3_2 1_555 1_555
C19_2 O4_2 1_555 1_555
C22_2 O5_2 1_555 1_555
C23_2 O6_2 1_555 1_555
N5 C17_2 1_555 1_555
H14_2 C28_2 1_555 1_555
C32_2 C28_2 1_555 1_555
H18_2 C32_2 1_555 1_555
C36_2 C34_2 1_555 1_555
H22_2 C42_2 1_555 1_555
C46_2 C42_2 1_555 1_555
H26_2 C46_2 1_555 1_555
N12 C36_2 1_555 1_555
C32_2 C34_2 1_555 1_555
C46_2 C48_2 1_555 1_555
N6 C50_2 1_555 1_555

#END
