
###############################################################################
#
# This file contains modified crystal structure data generated from the
# MOF subset of the Cambridge Structural Database (CSD) v543 
# hosted by the Cambridge Crystallographic Data Centre (CCDC).
#
# This work is licensed under the Creative Commons
# Attribution-NonCommercial-ShareAlike 4.0 International License.
# To view a copy of this license, visit
# http://creativecommons.org/licenses/by-nc-sa/4.0/
# or send a letter to
# Creative Commons, PO Box 1866, Mountain View, CA 94042, USA.
#
# CIF created using the CSD Python API on 29 September 2022
# The structure has been converted into the P1 space group
# The structure has a 3D framework
# The original CSD entry LAGDAA is in the trigonal crystal system
# The framework has been calculated to contain at least 10.0% void space
# The void calculation uses a probe of radius 1.32A, grid spacing 0.4
#
###############################################################################

data_LAGDAA
_chemical_formula_moiety         '(C102 H54 Ag6 Cd2 Cl8 N12 O44 6-)n'
_symmetry_cell_setting           triclinic
_symmetry_space_group_name_H-M   'P 1'
_symmetry_Int_Tables_number      1
_space_group_name_Hall           'P 1'
loop_
_symmetry_equiv_pos_site_id
_symmetry_equiv_pos_as_xyz
1 x,y,z
_cell_length_a                   15.824(3)
_cell_length_b                   15.824(3)
_cell_length_c                   16.563(6)
_cell_angle_alpha                90
_cell_angle_beta                 90
_cell_angle_gamma                120
_cell_volume                     3591.72
loop_
_atom_site_label
_atom_site_type_symbol
_atom_site_fract_x
_atom_site_fract_y
_atom_site_fract_z
C27 C 0.4102(8) 0.0403(11) 0.0840(5)
H13 H 0.4314 0.0654 0.1355
C29 C 0.4001(8) 0.0980(11) 0.0250(5)
H15 H 0.4144 0.1612 0.0370
C45 C 0.6214(6) 0.0186(8) 0.4740(4)
C47 C 0.6307(6) 0.0721(9) 0.4057(5)
H25 H 0.6696 0.1397 0.4062
C49 C 0.5810(6) 0.0238(8) 0.3359(4)
H27 H 0.5874 0.0590 0.2892
C51 C 0.6709(6) 0.0691(8) 0.5483(5)
N4 N 0.7082(5) 0.1060(8) 0.6058(4)
Ag8 Ag 0.72965(5) 0.13931(7) 0.73498(4)
C31 C 0.3686(6) 0.0596(8) 0.9485(4)
C37 C 0.3600(6) 0.1196(8) 0.8864(4)
N9 N 0.3553(5) 0.1659(7) 0.8356(4)
Ag9 Ag 0.40966(5) 0.27035(5) 0.73498(4)
C1 C 0.4028(5) 0.5348(5) 0.2615(3)
C2 C 0.4797(5) 0.5632(5) 0.2042(4)
H1 H 0.5334 0.5579 0.2194
C3 C 0.4798(5) 0.5988(5) 0.1257(4)
C4 C 0.5579(5) 0.6109(5) 0.0661(4)
C5 C 0.6301(7) 0.5898(8) 0.0840(5)
H2 H 0.6340 0.5686 0.1355
C6 C 0.6979(7) 0.5999(8) 0.0250(5)
H3 H 0.7468 0.5856 0.0370
C11 C 0.4018(5) 0.4773(5) 0.3359(4)
C12 C 0.3592(5) 0.4876(6) 0.4053(4)
H6 H 0.3322 0.5280 0.4052
C13 C 0.3567(6) 0.4378(6) 0.4752(4)
H7 H 0.3281 0.4444 0.5220
C14 C 0.3972(6) 0.3786(6) 0.4740(4)
C15 C 0.4414(7) 0.3693(6) 0.4057(5)
H8 H 0.4701 0.3304 0.4062
C16 C 0.4428(6) 0.4190(6) 0.3359(4)
H9 H 0.4716 0.4126 0.2892
C17 C 0.3982(6) 0.3291(6) 0.5483(5)
N1 N 0.3978(6) 0.2918(5) 0.6058(4)
O1 O 0.3328(3) 0.5504(3) 0.2566(3)
O2 O 0.4198(4) 0.6219(4) 0.1000(2)
Ag1 Ag 0.59034(5) 0.72965(5) 0.26502(4)
Cd1 Cd 0.3333 0.6667 0.17680(4)
C18 C 0.1320(7) 0.5972(5) 0.2615(3)
C19 C 0.4652(5) 0.8680(7) 0.2615(3)
C20 C 0.0835(7) 0.5203(5) 0.2042(4)
C21 C 0.4368(5) 0.9165(7) 0.2042(4)
H10 H 0.0245 0.4666 0.2194
H11 H 0.4421 0.9755 0.2194
C22 C 0.1190(7) 0.5202(5) 0.1257(4)
C23 C 0.4012(5) 0.8810(7) 0.1257(4)
C24 C 0.0530(7) 0.4421(5) 0.0661(4)
C25 C 0.3891(5) 0.9470(7) 0.0661(4)
C38 C 0.0755(7) 0.5982(5) 0.3359(4)
C39 C 0.5227(5) 0.9245(7) 0.3359(4)
C40 C 0.1284(8) 0.6408(5) 0.4053(4)
C41 C 0.5124(6) 0.8716(8) 0.4053(4)
H20 H 0.1958 0.6678 0.4052
H21 H 0.4720 0.8042 0.4052
C42 C 0.0811(8) 0.6433(6) 0.4752(4)
C43 C 0.5622(6) 0.9189(8) 0.4752(4)
H22 H 0.1163 0.6719 0.5220
H23 H 0.5556 0.8837 0.5220
N5 N 0.6022(6) 0.7082(5) 0.3942(4)
N6 N 0.1060(8) 0.3978(6) 0.3942(4)
N7 N 0.2918(5) 0.8940(8) 0.3942(4)
N10 N 0.6447(5) 0.8341(7) 0.1644(4)
N11 N 0.1894(5) 0.3553(5) 0.1644(4)
N12 N 0.1659(7) 0.8106(5) 0.1644(4)
O3 O 0.2176(4) 0.6672(3) 0.2566(3)
O4 O 0.4496(3) 0.7824(4) 0.2566(3)
O5 O 0.2021(6) 0.5802(4) 0.1000(2)
O6 O 0.3781(4) 0.7979(6) 0.1000(2)
Ag2 Ag 0.13931(7) 0.40966(5) 0.26502(4)
Ag3 Ag 0.27035(5) 0.86069(7) 0.26502(4)
C7 C 0.6910(6) 0.6314(6) 0.9485(4)
C8 C 0.6184(6) 0.6522(6) 0.9303(4)
H4 H 0.6143 0.6735 0.8789
C9 C 0.5523(6) 0.6414(6) 0.9885(4)
H5 H 0.5028 0.6545 0.9759
C10 C 0.7596(6) 0.6400(6) 0.8864(4)
N2 N 0.8106(5) 0.6447(5) 0.8356(4)
C32 C 0.0338(8) 0.3816(6) 0.9303(4)
C33 C 0.3478(6) 0.9662(8) 0.9303(4)
H16 H 0.0592 0.3857 0.8789
H17 H 0.3265 0.9408 0.8789
C34 C 0.0891(8) 0.4477(6) 0.9885(4)
C35 C 0.3586(6) 0.9109(8) 0.9885(4)
H18 H 0.1517 0.4972 0.9759
H19 H 0.3455 0.8483 0.9759
Ag5 Ag 0.86069(7) 0.59034(5) 0.73498(4)
C26 C 0.9597(11) 0.3699(7) 0.0840(5)
H12 H 0.9346 0.3660 0.1355
C28 C 0.9020(11) 0.3021(7) 0.0250(5)
H14 H 0.8388 0.2532 0.0370
C44 C 0.9814(8) 0.6028(6) 0.4740(4)
C46 C 0.9279(9) 0.5586(7) 0.4057(5)
H24 H 0.8603 0.5299 0.4062
C48 C 0.9762(8) 0.5572(6) 0.3359(4)
H26 H 0.9410 0.5284 0.2892
C50 C 0.9309(8) 0.6018(6) 0.5483(5)
N3 N 0.8940(8) 0.6022(6) 0.6058(4)
C30 C 0.9404(8) 0.3090(6) 0.9485(4)
C36 C 0.8804(8) 0.2404(6) 0.8864(4)
N8 N 0.8341(7) 0.1894(5) 0.8356(4)
C30_2 C 0.0596(8) 0.6910(6) 0.0515(4)
C36_2 C 0.1196(8) 0.7596(6) 0.1136(4)
C26_2 C 0.0403(11) 0.6301(7) 0.9160(5)
H12_2 H 0.0654 0.6340 0.8645
C28_2 C 0.0980(11) 0.6979(7) 0.9750(5)
H14_2 H 0.1612 0.7468 0.9630
C44_2 C 0.0186(8) 0.3972(6) 0.5260(4)
C46_2 C 0.0721(9) 0.4414(7) 0.5943(5)
H24_2 H 0.1397 0.4701 0.5938
C48_2 C 0.0238(8) 0.4428(6) 0.6641(4)
H26_2 H 0.0590 0.4716 0.7108
C50_2 C 0.0691(8) 0.3982(6) 0.4517(5)
C7_2 C 0.3090(6) 0.3686(6) 0.0515(4)
C8_2 C 0.3816(6) 0.3478(6) 0.0697(4)
H4_2 H 0.3857 0.3265 0.1211
C9_2 C 0.4477(6) 0.3586(6) 0.0115(4)
H5_2 H 0.4972 0.3455 0.0241
C10_2 C 0.2404(6) 0.3600(6) 0.1136(4)
C32_2 C 0.9662(8) 0.6184(6) 0.0697(4)
C33_2 C 0.6522(6) 0.0338(8) 0.0697(4)
H16_2 H 0.9408 0.6143 0.1211
H17_2 H 0.6735 0.0592 0.1211
C34_2 C 0.9109(8) 0.5523(6) 0.0115(4)
C35_2 C 0.6414(6) 0.0891(8) 0.0115(4)
H18_2 H 0.8483 0.5028 0.0241
H19_2 H 0.6545 0.1517 0.0241
C1_2 C 0.5972(5) 0.4652(5) 0.7385(3)
C2_2 C 0.5203(5) 0.4368(5) 0.7958(4)
H1_2 H 0.4666 0.4421 0.7806
C3_2 C 0.5202(5) 0.4012(5) 0.8743(4)
C4_2 C 0.4421(5) 0.3891(5) 0.9339(4)
C5_2 C 0.3699(7) 0.4102(8) 0.9160(5)
H2_2 H 0.3660 0.4314 0.8645
C6_2 C 0.3021(7) 0.4001(8) 0.9750(5)
H3_2 H 0.2532 0.4144 0.9630
C11_2 C 0.5982(5) 0.5227(5) 0.6641(4)
C12_2 C 0.6408(5) 0.5124(6) 0.5947(4)
H6_2 H 0.6678 0.4720 0.5948
C13_2 C 0.6433(6) 0.5622(6) 0.5248(4)
H7_2 H 0.6719 0.5556 0.4780
C14_2 C 0.6028(6) 0.6214(6) 0.5260(4)
C15_2 C 0.5586(7) 0.6307(6) 0.5943(5)
H8_2 H 0.5299 0.6696 0.5938
C16_2 C 0.5572(6) 0.5810(6) 0.6641(4)
H9_2 H 0.5284 0.5874 0.7108
C17_2 C 0.6018(6) 0.6709(6) 0.4517(5)
O1_2 O 0.6672(3) 0.4496(3) 0.7434(3)
O2_2 O 0.5802(4) 0.3781(4) 0.9000(2)
Cd1_2 Cd 0.6667 0.3333 0.82320(4)
C18_2 C 0.8680(7) 0.4028(5) 0.7385(3)
C19_2 C 0.5348(5) 0.1320(7) 0.7385(3)
C20_2 C 0.9165(7) 0.4797(5) 0.7958(4)
C21_2 C 0.5632(5) 0.0835(7) 0.7958(4)
H10_2 H 0.9755 0.5334 0.7806
H11_2 H 0.5579 0.0245 0.7806
C22_2 C 0.8810(7) 0.4798(5) 0.8743(4)
C23_2 C 0.5988(5) 0.1190(7) 0.8743(4)
C24_2 C 0.9470(7) 0.5579(5) 0.9339(4)
C25_2 C 0.6109(5) 0.0530(7) 0.9339(4)
C38_2 C 0.9245(7) 0.4018(5) 0.6641(4)
C39_2 C 0.4773(5) 0.0755(7) 0.6641(4)
C40_2 C 0.8716(8) 0.3592(5) 0.5947(4)
C41_2 C 0.4876(6) 0.1284(8) 0.5947(4)
H20_2 H 0.8042 0.3322 0.5948
H21_2 H 0.5280 0.1958 0.5948
C42_2 C 0.9189(8) 0.3567(6) 0.5248(4)
C43_2 C 0.4378(6) 0.0811(8) 0.5248(4)
H22_2 H 0.8837 0.3281 0.4780
H23_2 H 0.4444 0.1163 0.4780
O3_2 O 0.7824(4) 0.3328(3) 0.7434(3)
O4_2 O 0.5504(3) 0.2176(4) 0.7434(3)
O5_2 O 0.7979(6) 0.4198(4) 0.9000(2)
O6_2 O 0.6219(4) 0.2021(6) 0.9000(2)
C31_2 C 0.6314(6) 0.9404(8) 0.0515(4)
C37_2 C 0.6400(6) 0.8804(8) 0.1136(4)
C27_2 C 0.5898(8) 0.9597(11) 0.9160(5)
H13_2 H 0.5686 0.9346 0.8645
C29_2 C 0.5999(8) 0.9020(11) 0.9750(5)
H15_2 H 0.5856 0.8388 0.9630
C45_2 C 0.3786(6) 0.9814(8) 0.5260(4)
C47_2 C 0.3693(6) 0.9279(9) 0.5943(5)
H25_2 H 0.3304 0.8603 0.5938
C49_2 C 0.4190(6) 0.9762(8) 0.6641(4)
H27_2 H 0.4126 0.9410 0.7108
C51_2 C 0.3291(6) 0.9309(8) 0.4517(5)
O7 O 0.7535(8) 0.7138(9) 0.2490(7)
O8 O 0.8055(10) 0.6683(11) 0.3641(6)
O9 O 0.8346(11) 0.6255(13) 0.2366(7)
O10 O 0.6761(9) 0.5500(9) 0.2876(9)
Cl1 Cl 0.7674(4) 0.6394(5) 0.2844(3)
O7_2 O 0.2862(9) 0.0397(12) 0.2490(7)
O8_2 O 0.3317(11) 0.1372(15) 0.3641(6)
O9_2 O 0.3745(13) 0.2091(17) 0.2366(7)
O10_2 O 0.4500(9) 0.1261(13) 0.2876(9)
Cl1_2 Cl 0.3606(5) 0.1280(6) 0.2844(3)
O7_3 O 0.9603(12) 0.2465(8) 0.2490(7)
O8_3 O 0.8628(15) 0.1945(10) 0.3641(6)
O9_3 O 0.7909(17) 0.1654(11) 0.2366(7)
O10_3 O 0.8739(13) 0.3239(9) 0.2876(9)
Cl1_3 Cl 0.8720(6) 0.2326(4) 0.2844(3)
O7_4 O 0.2465(8) 0.2862(9) 0.7510(7)
O8_4 O 0.1945(10) 0.3317(11) 0.6359(6)
O9_4 O 0.1654(11) 0.3745(13) 0.7634(7)
O10_4 O 0.3239(9) 0.4500(9) 0.7124(9)
Cl1_4 Cl 0.2326(4) 0.3606(5) 0.7156(3)
O7_5 O 0.7138(9) 0.9603(12) 0.7510(7)
O8_5 O 0.6683(11) 0.8628(15) 0.6359(6)
O9_5 O 0.6255(13) 0.7909(17) 0.7634(7)
O10_5 O 0.5500(9) 0.8739(13) 0.7124(9)
Cl1_5 Cl 0.6394(5) 0.8720(6) 0.7156(3)
O7_6 O 0.0397(12) 0.7535(8) 0.7510(7)
O8_6 O 0.1372(15) 0.8055(10) 0.6359(6)
O9_6 O 0.2091(17) 0.8346(11) 0.7634(7)
O10_6 O 0.1261(13) 0.6761(9) 0.7124(9)
Cl1_6 Cl 0.1280(6) 0.7674(4) 0.7156(3)
Cl2 Cl 0.3333 0.6667 0.5847(12)
O11 O 0.2572(11) 0.6802(15) 0.6151(14)
O12 O 0.3333 0.6667 0.4989(13)
O13 O 0.3198(15) 0.5770(19) 0.6151(14)
O14 O 0.4230(19) 0.7428(11) 0.6151(14)
Cl2_2 Cl 0.6667 0.3333 0.4153(12)
O11_2 O 0.7428(11) 0.3198(15) 0.3849(14)
O12_2 O 0.6667 0.3333 0.5011(13)
O13_2 O 0.6802(15) 0.4230(19) 0.3849(14)
O14_2 O 0.5770(19) 0.2572(11) 0.3849(14)
loop_
_geom_bond_atom_site_label_1
_geom_bond_atom_site_label_2
_geom_bond_site_symmetry_1
_geom_bond_site_symmetry_2
H13 C27 1_555 1_555
C29 C27 1_555 1_555
H15 C29 1_555 1_555
C47 C45 1_555 1_555
H25 C47 1_555 1_555
H27 C49 1_555 1_555
C51 C45 1_555 1_555
N4 C51 1_555 1_555
Ag8 N4 1_555 1_555
C47 C49 1_555 1_555
C37 C31 1_555 1_555
N9 C37 1_555 1_555
Ag9 N9 1_555 1_555
C1 C2 1_555 1_555
C2 H1 1_555 1_555
C3 C2 1_555 1_555
C4 C3 1_555 1_555
C5 C4 1_555 1_555
H2 C5 1_555 1_555
C6 C5 1_555 1_555
H3 C6 1_555 1_555
C11 C1 1_555 1_555
C12 C11 1_555 1_555
H6 C12 1_555 1_555
C13 C12 1_555 1_555
H7 C13 1_555 1_555
C14 C13 1_555 1_555
C15 C14 1_555 1_555
H8 C15 1_555 1_555
C16 C11 1_555 1_555
H9 C16 1_555 1_555
C17 C14 1_555 1_555
N1 C17 1_555 1_555
O1 C1 1_555 1_555
O2 C3 1_555 1_555
Ag1 C2 1_555 1_555
Cd1 O1 1_555 1_555
C18 C20 1_555 1_555
C19 C21 1_555 1_555
C20 H10 1_555 1_555
C21 H11 1_555 1_555
C22 C20 1_555 1_555
C23 C21 1_555 1_555
C24 C22 1_555 1_555
C25 C23 1_555 1_555
C38 C18 1_555 1_555
C39 C19 1_555 1_555
C40 C38 1_555 1_555
C41 C39 1_555 1_555
H20 C40 1_555 1_555
H21 C41 1_555 1_555
C42 C40 1_555 1_555
C43 C41 1_555 1_555
H22 C42 1_555 1_555
H23 C43 1_555 1_555
N5 Ag1 1_555 1_555
N6 Ag2 1_555 1_555
N7 Ag3 1_555 1_555
N10 Ag1 1_555 1_555
N11 Ag2 1_555 1_555
N12 Ag3 1_555 1_555
O3 Cd1 1_555 1_555
O4 Cd1 1_555 1_555
O5 Cd1 1_555 1_555
O6 Cd1 1_555 1_555
Ag2 C20 1_555 1_555
Ag3 C21 1_555 1_555
Ag9 N1 1_555 1_555
C15 C16 1_555 1_555
O2 Cd1 1_555 1_555
C18 O3 1_555 1_555
C19 O4 1_555 1_555
C22 O5 1_555 1_555
C23 O6 1_555 1_555
C8 C7 1_555 1_555
H4 C8 1_555 1_555
H5 C9 1_555 1_555
C10 C7 1_555 1_555
N2 C10 1_555 1_555
H16 C32 1_555 1_555
H17 C33 1_555 1_555
H18 C34 1_555 1_555
H19 C35 1_555 1_555
Ag5 N2 1_555 1_555
C8 C9 1_555 1_555
C32 C34 1_555 1_555
C33 C35 1_555 1_555
H12 C26 1_555 1_555
C28 C26 1_555 1_555
H14 C28 1_555 1_555
C46 C44 1_555 1_555
H24 C46 1_555 1_555
H26 C48 1_555 1_555
C50 C44 1_555 1_555
N3 C50 1_555 1_555
Ag5 N3 1_555 1_555
C46 C48 1_555 1_555
C36 C30 1_555 1_555
N8 C36 1_555 1_555
Ag8 N8 1_555 1_555
C36_2 C30_2 1_555 1_555
N12 C36_2 1_555 1_555
H12_2 C26_2 1_555 1_555
C28_2 C26_2 1_555 1_555
H14_2 C28_2 1_555 1_555
C46_2 C44_2 1_555 1_555
H24_2 C46_2 1_555 1_555
H26_2 C48_2 1_555 1_555
C50_2 C44_2 1_555 1_555
N6 C50_2 1_555 1_555
C46_2 C48_2 1_555 1_555
C8_2 C7_2 1_555 1_555
H4_2 C8_2 1_555 1_555
H5_2 C9_2 1_555 1_555
C10_2 C7_2 1_555 1_555
N11 C10_2 1_555 1_555
H16_2 C32_2 1_555 1_555
H17_2 C33_2 1_555 1_555
H18_2 C34_2 1_555 1_555
H19_2 C35_2 1_555 1_555
C8_2 C9_2 1_555 1_555
C32_2 C34_2 1_555 1_555
C33_2 C35_2 1_555 1_555
C1_2 C2_2 1_555 1_555
C2_2 H1_2 1_555 1_555
C3_2 C2_2 1_555 1_555
C4_2 C3_2 1_555 1_555
C5_2 C4_2 1_555 1_555
H2_2 C5_2 1_555 1_555
C6_2 C5_2 1_555 1_555
H3_2 C6_2 1_555 1_555
C11_2 C1_2 1_555 1_555
C12_2 C11_2 1_555 1_555
H6_2 C12_2 1_555 1_555
C13_2 C12_2 1_555 1_555
H7_2 C13_2 1_555 1_555
C14_2 C13_2 1_555 1_555
C15_2 C14_2 1_555 1_555
H8_2 C15_2 1_555 1_555
C16_2 C11_2 1_555 1_555
H9_2 C16_2 1_555 1_555
C17_2 C14_2 1_555 1_555
N5 C17_2 1_555 1_555
O1_2 C1_2 1_555 1_555
O2_2 C3_2 1_555 1_555
Ag9 C2_2 1_555 1_555
Cd1_2 O1_2 1_555 1_555
C18_2 C20_2 1_555 1_555
C19_2 C21_2 1_555 1_555
C20_2 H10_2 1_555 1_555
C21_2 H11_2 1_555 1_555
C22_2 C20_2 1_555 1_555
C23_2 C21_2 1_555 1_555
C24_2 C22_2 1_555 1_555
C25_2 C23_2 1_555 1_555
C38_2 C18_2 1_555 1_555
C39_2 C19_2 1_555 1_555
C40_2 C38_2 1_555 1_555
C41_2 C39_2 1_555 1_555
H20_2 C40_2 1_555 1_555
H21_2 C41_2 1_555 1_555
C42_2 C40_2 1_555 1_555
C43_2 C41_2 1_555 1_555
H22_2 C42_2 1_555 1_555
H23_2 C43_2 1_555 1_555
O3_2 Cd1_2 1_555 1_555
O4_2 Cd1_2 1_555 1_555
O5_2 Cd1_2 1_555 1_555
O6_2 Cd1_2 1_555 1_555
Ag5 C20_2 1_555 1_555
Ag8 C21_2 1_555 1_555
C15_2 C16_2 1_555 1_555
O2_2 Cd1_2 1_555 1_555
C18_2 O3_2 1_555 1_555
C19_2 O4_2 1_555 1_555
C22_2 O5_2 1_555 1_555
C23_2 O6_2 1_555 1_555
C37_2 C31_2 1_555 1_555
N10 C37_2 1_555 1_555
H13_2 C27_2 1_555 1_555
C29_2 C27_2 1_555 1_555
H15_2 C29_2 1_555 1_555
C47_2 C45_2 1_555 1_555
H25_2 C47_2 1_555 1_555
H27_2 C49_2 1_555 1_555
C51_2 C45_2 1_555 1_555
N7 C51_2 1_555 1_555
C47_2 C49_2 1_555 1_555
O7 Cl1 1_555 1_555
O8 Cl1 1_555 1_555
O9 Cl1 1_555 1_555
O10 Cl1 1_555 1_555
O7_2 Cl1_2 1_555 1_555
O8_2 Cl1_2 1_555 1_555
O9_2 Cl1_2 1_555 1_555
O10_2 Cl1_2 1_555 1_555
O7_3 Cl1_3 1_555 1_555
O8_3 Cl1_3 1_555 1_555
O9_3 Cl1_3 1_555 1_555
O10_3 Cl1_3 1_555 1_555
O7_4 Cl1_4 1_555 1_555
O8_4 Cl1_4 1_555 1_555
O9_4 Cl1_4 1_555 1_555
O10_4 Cl1_4 1_555 1_555
O7_5 Cl1_5 1_555 1_555
O8_5 Cl1_5 1_555 1_555
O9_5 Cl1_5 1_555 1_555
O10_5 Cl1_5 1_555 1_555
O7_6 Cl1_6 1_555 1_555
O8_6 Cl1_6 1_555 1_555
O9_6 Cl1_6 1_555 1_555
O10_6 Cl1_6 1_555 1_555
Cl2 O11 1_555 1_555
O12 Cl2 1_555 1_555
O13 Cl2 1_555 1_555
O14 Cl2 1_555 1_555
Cl2_2 O11_2 1_555 1_555
O12_2 Cl2_2 1_555 1_555
O13_2 Cl2_2 1_555 1_555
O14_2 Cl2_2 1_555 1_555

#END
