
###############################################################################
#
# This file contains modified crystal structure data generated from the
# MOF subset of the Cambridge Structural Database (CSD) v543 
# hosted by the Cambridge Crystallographic Data Centre (CCDC).
#
# This work is licensed under the Creative Commons
# Attribution-NonCommercial-ShareAlike 4.0 International License.
# To view a copy of this license, visit
# http://creativecommons.org/licenses/by-nc-sa/4.0/
# or send a letter to
# Creative Commons, PO Box 1866, Mountain View, CA 94042, USA.
#
# CIF created using the CSD Python API on 29 September 2022
# The structure has been converted into the P1 space group
# The structure has a 3D framework
# The original CSD entry LAGDEE is in the trigonal crystal system
# The framework has been calculated to contain at least 10.0% void space
# The void calculation uses a probe of radius 1.32A, grid spacing 0.4
# The framework is charged, counterions have been retained in the structure
#
###############################################################################

data_LAGDEE
_chemical_formula_moiety         '(C102 H54 Ag6 B6 Cd2 F24 N12 O12 4-)n'
_symmetry_cell_setting           triclinic
_symmetry_space_group_name_H-M   'P 1'
_symmetry_Int_Tables_number      1
_space_group_name_Hall           'P 1'
loop_
_symmetry_equiv_pos_site_id
_symmetry_equiv_pos_as_xyz
1 x,y,z
_cell_length_a                   15.939(2)
_cell_length_b                   15.939(2)
_cell_length_c                   16.463(5)
_cell_angle_alpha                90
_cell_angle_beta                 90
_cell_angle_gamma                120
_cell_volume                     3622.11
loop_
_atom_site_label
_atom_site_type_symbol
_atom_site_fract_x
_atom_site_fract_y
_atom_site_fract_z
C16 C 0.0585(5) 0.3704(5) 0.0551(4)
C17 C 0.1168(5) 0.3639(5) 0.1165(4)
N1 N 0.1641(5) 0.3588(4) 0.1662(4)
Ag4 Ag 0.27235(4) 0.41060(6) 0.26440(3)
C6 C 0.0218(5) 0.5758(5) 0.6626(4)
H3 H 0.0577 0.5794 0.7083
C8 C 0.0684(6) 0.6256(6) 0.5924(4)
H5 H 0.1355 0.6635 0.5911
C9 C 0.0144(5) 0.6185(5) 0.5250(4)
C10 C 0.0637(5) 0.6668(5) 0.4518(4)
C13 C 0.0415(6) 0.4140(9) 0.9197(5)
H7 H 0.0683 0.4391 0.8691
C15 C 0.0968(6) 0.4019(9) 0.9787(5)
H9 H 0.1592 0.4151 0.9667
N2 N 0.1028(5) 0.7054(5) 0.3943(3)
Ag5 Ag 0.13825(5) 0.72765(4) 0.26440(3)
C12 C 0.9100(5) 0.3582(5) 0.0128(4)
H6 H 0.8474 0.3442 0.0250
C14 C 0.9660(5) 0.3485(6) 0.0710(4)
H8 H 0.9403 0.3265 0.1225
C40 C 0.6418(5) 0.5518(7) 0.0128(4)
C41 C 0.4482(7) 0.0900(5) 0.0128(4)
H20 H 0.6558 0.5032 0.0250
H21 H 0.4968 0.1526 0.0250
C44 C 0.6515(6) 0.6175(8) 0.0710(4)
C45 C 0.3825(8) 0.0340(5) 0.0710(4)
H24 H 0.6735 0.6138 0.1225
H25 H 0.3862 0.0597 0.1225
C48 C 0.6296(5) 0.6881(7) 0.0551(4)
C50 C 0.6361(5) 0.7529(7) 0.1165(4)
N3 N 0.6412(4) 0.8053(6) 0.1662(4)
Ag6 Ag 0.58940(6) 0.86175(5) 0.26440(3)
C1 C 0.8803(4) 0.3999(4) 0.8752(3)
C2 C 0.9152(4) 0.4363(4) 0.7962(3)
H1 H 0.9741 0.4425 0.7805
C3 C 0.8667(4) 0.4637(4) 0.7398(3)
C4 C 0.9220(4) 0.5210(4) 0.6642(3)
C5 C 0.8677(5) 0.5111(5) 0.5955(4)
H2 H 0.8007 0.4717 0.5965
C7 C 0.9139(5) 0.5605(5) 0.5255(4)
H4 H 0.8782 0.5550 0.4791
C11 C 0.9477(4) 0.3891(4) 0.9356(3)
O1 O 0.7979(3) 0.3761(3) 0.9013(2)
O2 O 0.7821(3) 0.4479(3) 0.7448(2)
Ag1 Ag 0.86175(5) 0.27235(4) 0.73560(3)
Cd1 Cd 0.6667 0.3333 0.82592(4)
C18 C 0.6001(4) 0.4804(6) 0.8752(3)
C19 C 0.5196(6) 0.1197(4) 0.8752(3)
C20 C 0.5637(4) 0.4789(6) 0.7962(3)
C21 C 0.5211(6) 0.0848(4) 0.7962(3)
H10 H 0.5575 0.5316 0.7805
H11 H 0.4684 0.0259 0.7805
C22 C 0.5363(4) 0.4030(6) 0.7398(3)
C23 C 0.5970(6) 0.1333(4) 0.7398(3)
C24 C 0.4790(4) 0.4010(6) 0.6642(3)
C25 C 0.5990(6) 0.0780(4) 0.6642(3)
C26 C 0.4889(5) 0.3566(7) 0.5955(4)
C27 C 0.6434(7) 0.1323(5) 0.5955(4)
H12 H 0.5283 0.3290 0.5965
H13 H 0.6710 0.1993 0.5965
C28 C 0.4242(5) 0.4460(7) 0.6626(4)
H14 H 0.4206 0.4783 0.7083
C30 C 0.4395(5) 0.3534(7) 0.5255(4)
C31 C 0.6466(7) 0.0861(5) 0.5255(4)
H16 H 0.4450 0.3232 0.4791
H17 H 0.6768 0.1218 0.4791
C32 C 0.3744(6) 0.4428(8) 0.5924(4)
H18 H 0.3365 0.4720 0.5911
C34 C 0.3815(5) 0.3959(7) 0.5250(4)
C36 C 0.3332(5) 0.3969(7) 0.4518(4)
C38 C 0.6109(4) 0.5586(6) 0.9356(3)
C39 C 0.4414(6) 0.0523(4) 0.9356(3)
C42 C 0.5860(9) 0.6275(11) 0.9197(5)
H22 H 0.5609 0.6292 0.8691
C46 C 0.5981(9) 0.6949(11) 0.9787(5)
H26 H 0.5849 0.7441 0.9667
N5 N 0.8053(6) 0.1641(5) 0.8338(4)
N6 N 0.8359(5) 0.6412(4) 0.8338(4)
N7 N 0.3588(4) 0.1947(6) 0.8338(4)
N8 N 0.2946(5) 0.3974(7) 0.3943(3)
N10 N 0.8972(5) 0.2946(5) 0.6057(3)
N11 N 0.7054(5) 0.6026(7) 0.6057(3)
N12 N 0.3974(7) 0.1028(5) 0.6057(3)
O3 O 0.6239(3) 0.4218(4) 0.9013(2)
O4 O 0.5782(4) 0.2021(3) 0.9013(2)
O5 O 0.5521(3) 0.3342(4) 0.7448(2)
O6 O 0.6658(4) 0.2179(3) 0.7448(2)
Ag2 Ag 0.72765(4) 0.58940(6) 0.73560(3)
Ag3 Ag 0.41060(6) 0.13825(5) 0.73560(3)
C49 C 0.3119(7) 0.9415(5) 0.0551(4)
C51 C 0.2471(7) 0.8832(5) 0.1165(4)
N4 N 0.1947(6) 0.8359(5) 0.1662(4)
C29 C 0.5540(7) 0.9782(5) 0.6626(4)
H15 H 0.5217 0.9423 0.7083
C33 C 0.5572(8) 0.9316(6) 0.5924(4)
H19 H 0.5280 0.8645 0.5911
C35 C 0.6041(7) 0.9856(5) 0.5250(4)
C37 C 0.6031(7) 0.9363(5) 0.4518(4)
C43 C 0.3725(11) 0.9585(6) 0.9197(5)
H23 H 0.3708 0.9317 0.8691
C47 C 0.3051(11) 0.9032(6) 0.9787(5)
H27 H 0.2559 0.8408 0.9667
N9 N 0.6026(7) 0.8972(5) 0.3943(3)
C29_2 C 0.4460(7) 0.0218(5) 0.3374(4)
H15_2 H 0.4783 0.0577 0.2917
C33_2 C 0.4428(8) 0.0684(6) 0.4076(4)
H19_2 H 0.4720 0.1355 0.4089
C35_2 C 0.3959(7) 0.0144(5) 0.4750(4)
C37_2 C 0.3969(7) 0.0637(5) 0.5482(4)
C43_2 C 0.6275(11) 0.0415(6) 0.0803(5)
H23_2 H 0.6292 0.0683 0.1309
C47_2 C 0.6949(11) 0.0968(6) 0.0213(5)
H27_2 H 0.7441 0.1592 0.0333
C49_2 C 0.6881(7) 0.0585(5) 0.9449(4)
C51_2 C 0.7529(7) 0.1168(5) 0.8835(4)
C1_2 C 0.1197(4) 0.6001(4) 0.1248(3)
C2_2 C 0.0848(4) 0.5637(4) 0.2038(3)
H1_2 H 0.0259 0.5575 0.2195
C3_2 C 0.1333(4) 0.5363(4) 0.2602(3)
C4_2 C 0.0780(4) 0.4790(4) 0.3358(3)
C5_2 C 0.1323(5) 0.4889(5) 0.4045(4)
H2_2 H 0.1993 0.5283 0.4035
C7_2 C 0.0861(5) 0.4395(5) 0.4745(4)
H4_2 H 0.1218 0.4450 0.5209
C11_2 C 0.0523(4) 0.6109(4) 0.0644(3)
O1_2 O 0.2021(3) 0.6239(3) 0.0987(2)
O2_2 O 0.2179(3) 0.5521(3) 0.2552(2)
Cd1_2 Cd 0.3333 0.6667 0.17408(4)
C18_2 C 0.3999(4) 0.5196(6) 0.1248(3)
C19_2 C 0.4804(6) 0.8803(4) 0.1248(3)
C20_2 C 0.4363(4) 0.5211(6) 0.2038(3)
C21_2 C 0.4789(6) 0.9152(4) 0.2038(3)
H10_2 H 0.4425 0.4684 0.2195
H11_2 H 0.5316 0.9741 0.2195
C22_2 C 0.4637(4) 0.5970(6) 0.2602(3)
C23_2 C 0.4030(6) 0.8667(4) 0.2602(3)
C24_2 C 0.5210(4) 0.5990(6) 0.3358(3)
C25_2 C 0.4010(6) 0.9220(4) 0.3358(3)
C26_2 C 0.5111(5) 0.6434(7) 0.4045(4)
C27_2 C 0.3566(7) 0.8677(5) 0.4045(4)
H12_2 H 0.4717 0.6710 0.4035
H13_2 H 0.3290 0.8007 0.4035
C28_2 C 0.5758(5) 0.5540(7) 0.3374(4)
H14_2 H 0.5794 0.5217 0.2917
C30_2 C 0.5605(5) 0.6466(7) 0.4745(4)
C31_2 C 0.3534(7) 0.9139(5) 0.4745(4)
H16_2 H 0.5550 0.6768 0.5209
H17_2 H 0.3232 0.8782 0.5209
C32_2 C 0.6256(6) 0.5572(8) 0.4076(4)
H18_2 H 0.6635 0.5280 0.4089
C34_2 C 0.6185(5) 0.6041(7) 0.4750(4)
C36_2 C 0.6668(5) 0.6031(7) 0.5482(4)
C38_2 C 0.3891(4) 0.4414(6) 0.0644(3)
C39_2 C 0.5586(6) 0.9477(4) 0.0644(3)
C42_2 C 0.4140(9) 0.3725(11) 0.0803(5)
H22_2 H 0.4391 0.3708 0.1309
C46_2 C 0.4019(9) 0.3051(11) 0.0213(5)
H26_2 H 0.4151 0.2559 0.0333
O3_2 O 0.3761(3) 0.5782(4) 0.0987(2)
O4_2 O 0.4218(4) 0.7979(3) 0.0987(2)
O5_2 O 0.4479(3) 0.6658(4) 0.2552(2)
O6_2 O 0.3342(4) 0.7821(3) 0.2552(2)
C12_2 C 0.0900(5) 0.6418(5) 0.9872(4)
H6_2 H 0.1526 0.6558 0.9750
C14_2 C 0.0340(5) 0.6515(6) 0.9290(4)
H8_2 H 0.0597 0.6735 0.8775
C40_2 C 0.3582(5) 0.4482(7) 0.9872(4)
C41_2 C 0.5518(7) 0.9100(5) 0.9872(4)
H20_2 H 0.3442 0.4968 0.9750
H21_2 H 0.5032 0.8474 0.9750
C44_2 C 0.3485(6) 0.3825(8) 0.9290(4)
C45_2 C 0.6175(8) 0.9660(5) 0.9290(4)
H24_2 H 0.3265 0.3862 0.8775
H25_2 H 0.6138 0.9403 0.8775
C48_2 C 0.3704(5) 0.3119(7) 0.9449(4)
C50_2 C 0.3639(5) 0.2471(7) 0.8835(4)
C6_2 C 0.9782(5) 0.4242(5) 0.3374(4)
H3_2 H 0.9423 0.4206 0.2917
C8_2 C 0.9316(6) 0.3744(6) 0.4076(4)
H5_2 H 0.8645 0.3365 0.4089
C9_2 C 0.9856(5) 0.3815(5) 0.4750(4)
C10_2 C 0.9363(5) 0.3332(5) 0.5482(4)
C13_2 C 0.9585(6) 0.5860(9) 0.0803(5)
H7_2 H 0.9317 0.5609 0.1309
C15_2 C 0.9032(6) 0.5981(9) 0.0213(5)
H9_2 H 0.8408 0.5849 0.0333
C16_2 C 0.9415(5) 0.6296(5) 0.9449(4)
C17_2 C 0.8832(5) 0.6361(5) 0.8835(4)
B1 B 0.1410(8) 0.3931(10) 0.7230(5)
F1 F 0.0575(8) 0.3127(11) 0.7487(7)
F2 F 0.1321(12) 0.4740(11) 0.7319(9)
F3 F 0.1557(10) 0.3822(14) 0.6428(6)
F4 F 0.2186(8) 0.4052(10) 0.7675(6)
B1_2 B 0.6069(10) 0.7479(13) 0.7230(5)
F1_2 F 0.6873(11) 0.7448(14) 0.7487(7)
F2_2 F 0.5260(11) 0.6581(16) 0.7319(9)
F3_2 F 0.6178(14) 0.7735(17) 0.6428(6)
F4_2 F 0.5948(10) 0.8134(13) 0.7675(6)
B1_3 B 0.2521(13) 0.8590(8) 0.7230(5)
F1_3 F 0.2552(14) 0.9425(8) 0.7487(7)
F2_3 F 0.3419(16) 0.8679(12) 0.7319(9)
F3_3 F 0.2265(17) 0.8443(10) 0.6428(6)
F4_3 F 0.1866(13) 0.7814(8) 0.7675(6)
B1_4 B 0.8590(8) 0.6069(10) 0.2770(5)
F1_4 F 0.9425(8) 0.6873(11) 0.2513(7)
F2_4 F 0.8679(12) 0.5260(11) 0.2681(9)
F3_4 F 0.8443(10) 0.6178(14) 0.3572(6)
F4_4 F 0.7814(8) 0.5948(10) 0.2325(6)
B1_5 B 0.3931(10) 0.2521(13) 0.2770(5)
F1_5 F 0.3127(11) 0.2552(14) 0.2513(7)
F2_5 F 0.4740(11) 0.3419(16) 0.2681(9)
F3_5 F 0.3822(14) 0.2265(17) 0.3572(6)
F4_5 F 0.4052(10) 0.1866(13) 0.2325(6)
B1_6 B 0.7479(13) 0.1410(8) 0.2770(5)
F1_6 F 0.7448(14) 0.0575(8) 0.2513(7)
F2_6 F 0.6581(16) 0.1321(12) 0.2681(9)
F3_6 F 0.7735(17) 0.1557(10) 0.3572(6)
F4_6 F 0.8134(13) 0.2186(8) 0.2325(6)
loop_
_geom_bond_atom_site_label_1
_geom_bond_atom_site_label_2
_geom_bond_site_symmetry_1
_geom_bond_site_symmetry_2
C17 C16 1_555 1_555
N1 C17 1_555 1_555
Ag4 N1 1_555 1_555
H3 C6 1_555 1_555
C8 C6 1_555 1_555
H5 C8 1_555 1_555
C10 C9 1_555 1_555
H7 C13 1_555 1_555
C15 C13 1_555 1_555
H9 C15 1_555 1_555
N2 C10 1_555 1_555
Ag5 N2 1_555 1_555
C8 C9 1_555 1_555
H6 C12 1_555 1_555
C14 C12 1_555 1_555
H8 C14 1_555 1_555
H20 C40 1_555 1_555
H21 C41 1_555 1_555
C44 C40 1_555 1_555
C45 C41 1_555 1_555
H24 C44 1_555 1_555
H25 C45 1_555 1_555
C48 C44 1_555 1_555
C50 C48 1_555 1_555
N3 C50 1_555 1_555
Ag6 N3 1_555 1_555
C1 C2 1_555 1_555
C2 H1 1_555 1_555
C3 C2 1_555 1_555
C4 C3 1_555 1_555
C5 C4 1_555 1_555
H2 C5 1_555 1_555
C7 C5 1_555 1_555
H4 C7 1_555 1_555
C11 C1 1_555 1_555
O1 C1 1_555 1_555
O2 C3 1_555 1_555
Ag1 C2 1_555 1_555
Cd1 O1 1_555 1_555
C18 C20 1_555 1_555
C19 C21 1_555 1_555
C20 H10 1_555 1_555
C21 H11 1_555 1_555
C22 C20 1_555 1_555
C23 C21 1_555 1_555
C24 C22 1_555 1_555
C25 C23 1_555 1_555
C26 C24 1_555 1_555
C27 C25 1_555 1_555
H12 C26 1_555 1_555
H13 C27 1_555 1_555
C28 C24 1_555 1_555
H14 C28 1_555 1_555
C30 C26 1_555 1_555
C31 C27 1_555 1_555
H16 C30 1_555 1_555
H17 C31 1_555 1_555
C32 C28 1_555 1_555
H18 C32 1_555 1_555
C34 C30 1_555 1_555
C36 C34 1_555 1_555
C38 C18 1_555 1_555
C39 C19 1_555 1_555
C42 C38 1_555 1_555
H22 C42 1_555 1_555
C46 C42 1_555 1_555
H26 C46 1_555 1_555
N5 Ag1 1_555 1_555
N6 Ag2 1_555 1_555
N7 Ag3 1_555 1_555
N8 C36 1_555 1_555
N10 Ag1 1_555 1_555
N11 Ag2 1_555 1_555
N12 Ag3 1_555 1_555
O3 Cd1 1_555 1_555
O4 Cd1 1_555 1_555
O5 Cd1 1_555 1_555
O6 Cd1 1_555 1_555
Ag2 C20 1_555 1_555
Ag3 C21 1_555 1_555
Ag4 N8 1_555 1_555
O2 Cd1 1_555 1_555
C18 O3 1_555 1_555
C19 O4 1_555 1_555
C22 O5 1_555 1_555
C23 O6 1_555 1_555
C32 C34 1_555 1_555
C51 C49 1_555 1_555
N4 C51 1_555 1_555
Ag5 N4 1_555 1_555
H15 C29 1_555 1_555
C33 C29 1_555 1_555
H19 C33 1_555 1_555
C37 C35 1_555 1_555
H23 C43 1_555 1_555
C47 C43 1_555 1_555
H27 C47 1_555 1_555
N9 C37 1_555 1_555
Ag6 N9 1_555 1_555
C33 C35 1_555 1_555
H15_2 C29_2 1_555 1_555
C33_2 C29_2 1_555 1_555
H19_2 C33_2 1_555 1_555
C37_2 C35_2 1_555 1_555
H23_2 C43_2 1_555 1_555
C47_2 C43_2 1_555 1_555
H27_2 C47_2 1_555 1_555
N12 C37_2 1_555 1_555
C33_2 C35_2 1_555 1_555
C51_2 C49_2 1_555 1_555
N5 C51_2 1_555 1_555
C1_2 C2_2 1_555 1_555
C2_2 H1_2 1_555 1_555
C3_2 C2_2 1_555 1_555
C4_2 C3_2 1_555 1_555
C5_2 C4_2 1_555 1_555
H2_2 C5_2 1_555 1_555
C7_2 C5_2 1_555 1_555
H4_2 C7_2 1_555 1_555
C11_2 C1_2 1_555 1_555
O1_2 C1_2 1_555 1_555
O2_2 C3_2 1_555 1_555
Ag5 C2_2 1_555 1_555
Cd1_2 O1_2 1_555 1_555
C18_2 C20_2 1_555 1_555
C19_2 C21_2 1_555 1_555
C20_2 H10_2 1_555 1_555
C21_2 H11_2 1_555 1_555
C22_2 C20_2 1_555 1_555
C23_2 C21_2 1_555 1_555
C24_2 C22_2 1_555 1_555
C25_2 C23_2 1_555 1_555
C26_2 C24_2 1_555 1_555
C27_2 C25_2 1_555 1_555
H12_2 C26_2 1_555 1_555
H13_2 C27_2 1_555 1_555
C28_2 C24_2 1_555 1_555
H14_2 C28_2 1_555 1_555
C30_2 C26_2 1_555 1_555
C31_2 C27_2 1_555 1_555
H16_2 C30_2 1_555 1_555
H17_2 C31_2 1_555 1_555
C32_2 C28_2 1_555 1_555
H18_2 C32_2 1_555 1_555
C34_2 C30_2 1_555 1_555
C36_2 C34_2 1_555 1_555
C38_2 C18_2 1_555 1_555
C39_2 C19_2 1_555 1_555
C42_2 C38_2 1_555 1_555
H22_2 C42_2 1_555 1_555
C46_2 C42_2 1_555 1_555
H26_2 C46_2 1_555 1_555
N11 C36_2 1_555 1_555
O3_2 Cd1_2 1_555 1_555
O4_2 Cd1_2 1_555 1_555
O5_2 Cd1_2 1_555 1_555
O6_2 Cd1_2 1_555 1_555
Ag4 C20_2 1_555 1_555
Ag6 C21_2 1_555 1_555
O2_2 Cd1_2 1_555 1_555
C18_2 O3_2 1_555 1_555
C19_2 O4_2 1_555 1_555
C22_2 O5_2 1_555 1_555
C23_2 O6_2 1_555 1_555
C32_2 C34_2 1_555 1_555
H6_2 C12_2 1_555 1_555
C14_2 C12_2 1_555 1_555
H8_2 C14_2 1_555 1_555
H20_2 C40_2 1_555 1_555
H21_2 C41_2 1_555 1_555
C44_2 C40_2 1_555 1_555
C45_2 C41_2 1_555 1_555
H24_2 C44_2 1_555 1_555
H25_2 C45_2 1_555 1_555
C48_2 C44_2 1_555 1_555
C50_2 C48_2 1_555 1_555
N7 C50_2 1_555 1_555
H3_2 C6_2 1_555 1_555
C8_2 C6_2 1_555 1_555
H5_2 C8_2 1_555 1_555
C10_2 C9_2 1_555 1_555
H7_2 C13_2 1_555 1_555
C15_2 C13_2 1_555 1_555
H9_2 C15_2 1_555 1_555
N10 C10_2 1_555 1_555
C8_2 C9_2 1_555 1_555
C17_2 C16_2 1_555 1_555
N6 C17_2 1_555 1_555
B1 F1 1_555 1_555
F2 B1 1_555 1_555
F3 B1 1_555 1_555
F4 B1 1_555 1_555
B1_2 F1_2 1_555 1_555
F2_2 B1_2 1_555 1_555
F3_2 B1_2 1_555 1_555
F4_2 B1_2 1_555 1_555
B1_3 F1_3 1_555 1_555
F2_3 B1_3 1_555 1_555
F3_3 B1_3 1_555 1_555
F4_3 B1_3 1_555 1_555
B1_4 F1_4 1_555 1_555
F2_4 B1_4 1_555 1_555
F3_4 B1_4 1_555 1_555
F4_4 B1_4 1_555 1_555
B1_5 F1_5 1_555 1_555
F2_5 B1_5 1_555 1_555
F3_5 B1_5 1_555 1_555
F4_5 B1_5 1_555 1_555
B1_6 F1_6 1_555 1_555
F2_6 B1_6 1_555 1_555
F3_6 B1_6 1_555 1_555
F4_6 B1_6 1_555 1_555

#END
