
###############################################################################
#
# This file contains modified crystal structure data generated from the
# MOF subset of the Cambridge Structural Database (CSD) v543 
# hosted by the Cambridge Crystallographic Data Centre (CCDC).
#
# This work is licensed under the Creative Commons
# Attribution-NonCommercial-ShareAlike 4.0 International License.
# To view a copy of this license, visit
# http://creativecommons.org/licenses/by-nc-sa/4.0/
# or send a letter to
# Creative Commons, PO Box 1866, Mountain View, CA 94042, USA.
#
# CIF created using the CSD Python API on 29 September 2022
# The structure has been converted into the P1 space group
# The structure has a 3D framework
# The original CSD entry LAGTIY is in the trigonal crystal system
# The framework has been calculated to contain at least 10.0% void space
# The void calculation uses a probe of radius 1.32A, grid spacing 0.4
# The framework is charged, counterions have been retained in the structure
# H atom positions have been added when not included in the experimental data
#
###############################################################################

data_LAGTIY
_chemical_formula_moiety         '(C72 H84 N20 O31 S6 Yb6 2+)n'
_symmetry_cell_setting           triclinic
_symmetry_space_group_name_H-M   'P 1'
_symmetry_Int_Tables_number      1
_space_group_name_Hall           'P 1'
loop_
_symmetry_equiv_pos_site_id
_symmetry_equiv_pos_as_xyz
1 x,y,z
_cell_length_a                   14.4155(3)
_cell_length_b                   14.4155(3)
_cell_length_c                   16.9725(9)
_cell_angle_alpha                90
_cell_angle_beta                 90
_cell_angle_gamma                120
_cell_volume                     3054.47
loop_
_atom_site_label
_atom_site_type_symbol
_atom_site_fract_x
_atom_site_fract_y
_atom_site_fract_z
H18 H 0.781493 0.0341626 0.885086
H19 H 0.897327 0.0202805 0.885444
C28 C 0.7538(25) 0.7494(17) 0.0281(12)
H20 H 0.682486 0.738078 0.0587278
H21 H 0.747239 0.671806 0.0176239
H22 H 0.824237 0.798526 0.0640582
H29 H 0.830839 0.961126 0.00231441
H32 H 0.0555924 0.317514 0.0587278
H41 H 0.130287 0.169161 0.00231441
Yb1 Yb 0.20254(4) 0.50594(4) 0.38372(5)
O1 O 0.1269(8) 0.5440(8) 0.2820(7)
O4 O 0.1731(8) 0.7162(8) 0.2948(6)
O5 O 0.0714(7) 0.3431(7) 0.3832(7)
O6 O 0.3333 0.6667 0.3841(10)
C2 C 0.1254(12) 0.6285(12) 0.2611(9)
C4 C 0.0599(11) 0.6193(11) 0.1909(9)
C5 C 0.0359(11) 0.6959(10) 0.1668(9)
C8 C 0.0044(18) 0.2506(17) 0.5281(12)
C9 C 0.006(2) 0.2536(16) 0.2392(11)
Yb3 Yb 0.69660(6) 0.49406(4) 0.88372(5)
Yb6 Yb 0.30340(6) 0.79746(4) 0.38372(5)
Yb7 Yb 0.49406(4) 0.69660(6) 0.38372(5)
Yb9 Yb 0.50594(4) 0.20254(4) 0.88372(5)
O8 O 0.5829(11) 0.4560(8) 0.7820(7)
O9 O 0.1265(9) 0.5432(13) 0.4848(6)
O10 O 0.4568(13) 0.5833(9) 0.4848(6)
O12 O 0.5833(9) 0.4568(13) 0.9848(6)
O13 O 0.1730(8) 0.7163(11) 0.4736(6)
O14 O 0.2837(11) 0.4567(7) 0.4736(6)
O16 O 0.8270(8) 0.5433(7) 0.9736(6)
O18 O 0.4569(11) 0.2838(8) 0.7948(6)
O19 O 0.2838(8) 0.4569(11) 0.2948(6)
O21 O 0.8269(8) 0.5431(11) 0.7948(6)
O23 O 0.7283(10) 0.6569(7) 0.8832(7)
O25 O 0.6666 0.3333 0.8841(10)
N3 N 0.0405(13) 0.2359(16) 0.8151(10)
N4 N 0.7641(16) 0.8046(10) 0.8151(10)
N5 N 0.0404(12) 0.2359(16) 0.9504(10)
N6 N 0.7641(16) 0.8045(10) 0.9504(10)
S2 S 0.0001(5) 0.5060(6) 0.6336(3)
S3 S 0.4940(6) 0.4941(3) 0.6336(3)
C13 C 0.1254(12) 0.6272(16) 0.5058(10)
C14 C 0.3728(16) 0.4982(11) 0.5058(10)
C16 C 0.4969(17) 0.3715(12) 0.7611(9)
C17 C 0.0600(11) 0.6196(16) 0.5762(9)
C18 C 0.3804(16) 0.4404(11) 0.5762(9)
C20 C 0.4406(16) 0.3807(11) 0.6909(9)
C22 C 0.3400(15) 0.3041(10) 0.6668(9)
C23 C 0.0347(10) 0.6943(14) 0.6000(9)
C24 C 0.3057(14) 0.3404(10) 0.6000(9)
C25 C 0.167(2) 0.1899(28) 0.885(3)
C26 C 0.8101(28) 0.9771(19) 0.885(3)
C30 C 0.7524(26) 0.7464(16) 0.7392(11)
C31 C 0.141(2) 0.2258(28) 0.811(2)
C32 C 0.7742(28) 0.9152(19) 0.811(2)
C33 C 0.142(2) 0.2258(27) 0.9556(17)
C34 C 0.7742(27) 0.9162(18) 0.9556(17)
C35 C 0.0014(11) 0.2464(16) 0.8835(9)
C36 C 0.7536(16) 0.7550(11) 0.8835(9)
H2 H 0.0257117 0.201474 0.564058
H3 H 0.0754324 0.328194 0.517624
H5 H 0.0663954 0.773853 0.19468
H9 H 0.0767941 0.33065 0.251597
H10 H 0.0281525 0.206049 0.202162
H15 H 0.292543 0.226147 0.69468
H16 H 0.252669 0.218507 0.885086
H17 H 0.122954 0.102673 0.885444
H25 H 0.05319 0.319542 0.708742
H26 H 0.208531 0.303859 0.795697
H27 H 0.12937 0.168301 0.764993
H28 H 0.0647339 0.771791 0.571483
H30 H 0.695869 0.905389 0.970337
H31 H 0.228209 0.292943 0.571483
H35 H 0.822104 0.793951 0.702162
H36 H 0.746144 0.66935 0.751597
H37 H 0.680458 0.733648 0.708742
H38 H 0.696141 0.904672 0.795697
H39 H 0.831699 0.961069 0.764993
H42 H 0.20952 0.304131 0.970337
C27 C 0.9956(18) 0.2462(25) 0.0281(12)
H33 H 0.924568 0.252761 0.0176239
H34 H 0.974288 0.175763 0.0640582
N1 N 0.9595(13) 0.1954(10) 0.3151(10)
N2 N 0.9596(12) 0.1955(10) 0.4504(10)
S1 S 0.9999(5) 0.5059(3) 0.1336(3)
C1 C 0.8746(12) 0.5018(11) 0.0058(10)
C3 C 0.9400(11) 0.5596(11) 0.0762(9)
C6 C 0.9653(10) 0.6596(10) 0.1000(9)
C7 C 0.833(2) 0.0229(19) 0.385(3)
C10 C 0.859(2) 0.0848(19) 0.311(2)
C11 C 0.858(2) 0.0838(18) 0.4556(17)
C12 C 0.9986(11) 0.2450(11) 0.3835(9)
Yb2 Yb 0.79746(4) 0.30340(6) 0.88372(5)
O7 O 0.8731(8) 0.4171(11) 0.7820(7)
O11 O 0.8735(9) 0.4167(9) 0.9848(6)
O15 O 0.7163(11) 0.1730(8) 0.9736(6)
O20 O 0.7162(8) 0.1731(8) 0.7948(6)
O22 O 0.9286(7) 0.2717(10) 0.8832(7)
C15 C 0.8746(12) 0.5031(17) 0.7611(9)
C19 C 0.9401(11) 0.5594(16) 0.6909(9)
C21 C 0.9641(11) 0.6600(15) 0.6668(9)
C29 C 0.994(2) 0.2476(26) 0.7392(11)
H1 H 0.935266 0.707057 0.0714827
H4 H 0.944408 0.261922 0.558728
H8 H 0.94681 0.266352 0.208742
H11 H 0.79048 0.0946114 0.470337
H12 H 0.869713 0.038874 0.502314
H13 H 0.87063 0.0389308 0.264993
H14 H 0.791469 0.0953277 0.295697
H23 H 0.971848 0.177896 0.702162
H24 H 0.923206 0.253856 0.751597
H40 H 0.933605 0.707457 0.69468
H6 H 0.877046 0.979719 0.385444
H7 H 0.747331 0.965837 0.385086
H6_2 H 0.0202805 0.897327 0.385444
H7_2 H 0.0341626 0.781493 0.385086
C28_2 C 0.2506(17) 0.0044(30) 0.0281(12)
H21_2 H 0.328194 0.0754324 0.0176239
H22_2 H 0.201474 0.0257117 0.0640582
O8_2 O 0.5440(8) 0.1269(14) 0.7820(7)
O12_2 O 0.5432(13) 0.1265(16) 0.9848(6)
O16_2 O 0.4567(7) 0.2837(11) 0.9736(6)
O23_2 O 0.3431(7) 0.0714(12) 0.8832(7)
C16_2 C 0.6285(12) 0.1254(21) 0.7611(9)
C20_2 C 0.6193(11) 0.0599(19) 0.6909(9)
C22_2 C 0.6959(10) 0.0359(18) 0.6668(9)
C30_2 C 0.2536(16) 0.0060(31) 0.7392(11)
H15_2 H 0.773853 0.0663954 0.69468
H35_2 H 0.206049 0.0281525 0.702162
H36_2 H 0.33065 0.0767941 0.751597
H20_2 H 0.261922 0.944408 0.0587278
H29_2 H 0.038874 0.869713 0.00231441
O1_2 O 0.4560(8) 0.5829(11) 0.2820(7)
O5_2 O 0.6569(7) 0.7283(10) 0.3832(7)
N1_2 N 0.8046(10) 0.7641(16) 0.3151(10)
N2_2 N 0.8045(10) 0.7641(16) 0.4504(10)
S1_2 S 0.4941(3) 0.4940(6) 0.1336(3)
C1_2 C 0.4982(11) 0.3728(16) 0.0058(10)
C2_2 C 0.3715(12) 0.4969(17) 0.2611(9)
C3_2 C 0.4404(11) 0.3804(16) 0.0762(9)
C4_2 C 0.3807(11) 0.4406(16) 0.1909(9)
C5_2 C 0.3041(10) 0.3400(15) 0.1668(9)
C6_2 C 0.3404(10) 0.3057(14) 0.1000(9)
C7_2 C 0.9771(19) 0.8101(28) 0.385(3)
C8_2 C 0.7494(17) 0.7538(25) 0.5281(12)
C9_2 C 0.7464(16) 0.7524(26) 0.2392(11)
C10_2 C 0.9152(19) 0.7742(28) 0.311(2)
C11_2 C 0.9162(18) 0.7742(27) 0.4556(17)
C12_2 C 0.7550(11) 0.7536(16) 0.3835(9)
O10_2 O 0.4167(9) 0.8735(16) 0.4848(6)
O14_2 O 0.5433(7) 0.8270(13) 0.4736(6)
O19_2 O 0.5431(11) 0.8269(14) 0.2948(6)
N4_2 N 0.1954(10) 0.9595(19) 0.8151(10)
N6_2 N 0.1955(10) 0.9596(19) 0.9504(10)
S3_2 S 0.5059(3) 0.9999(7) 0.6336(3)
C14_2 C 0.5018(11) 0.8746(19) 0.5058(10)
C18_2 C 0.5596(11) 0.9400(19) 0.5762(9)
C24_2 C 0.6596(10) 0.9653(17) 0.6000(9)
C26_2 C 0.0229(19) 0.8330(34) 0.885(3)
C32_2 C 0.0848(19) 0.8590(34) 0.811(2)
C34_2 C 0.0838(18) 0.8580(32) 0.9556(17)
C36_2 C 0.2450(11) 0.9986(19) 0.8835(9)
H1_2 H 0.292943 0.228209 0.0714827
H2_2 H 0.798526 0.824237 0.564058
H3_2 H 0.671806 0.747239 0.517624
H4_2 H 0.738078 0.682486 0.558728
H5_2 H 0.226147 0.292543 0.19468
H8_2 H 0.733648 0.680458 0.208742
H9_2 H 0.66935 0.746144 0.251597
H10_2 H 0.793951 0.822104 0.202162
H11_2 H 0.905389 0.695869 0.470337
H12_2 H 0.961126 0.830839 0.502314
H13_2 H 0.961069 0.831699 0.264993
H14_2 H 0.904672 0.696141 0.295697
H30_2 H 0.0946114 0.79048 0.970337
H31_2 H 0.707057 0.935266 0.571483
H37_2 H 0.266352 0.94681 0.708742
H38_2 H 0.0953277 0.791469 0.795697
H39_2 H 0.0389308 0.87063 0.764993
H18_2 H 0.965837 0.747331 0.885086
H19_2 H 0.979719 0.877046 0.885444
N1_3 N 0.2359(16) 0.0405(13) 0.3151(10)
N2_3 N 0.2359(16) 0.0404(12) 0.4504(10)
S1_3 S 0.5060(6) 0.0001(5) 0.1336(3)
C1_3 C 0.6272(16) 0.1254(12) 0.0058(10)
C3_3 C 0.6196(16) 0.0600(11) 0.0762(9)
C6_3 C 0.6943(14) 0.0347(10) 0.1000(9)
C7_3 C 0.1899(28) 0.167(2) 0.385(3)
C10_3 C 0.2258(28) 0.141(2) 0.311(2)
C11_3 C 0.2258(27) 0.142(2) 0.4556(17)
C12_3 C 0.2464(16) 0.0014(11) 0.3835(9)
H1_3 H 0.771791 0.0647339 0.0714827
H4_3 H 0.317514 0.0555924 0.558728
H6_3 H 0.102673 0.122954 0.385444
H7_3 H 0.218507 0.252669 0.385086
H8_3 H 0.319542 0.05319 0.208742
H11_3 H 0.304131 0.20952 0.470337
H12_3 H 0.169161 0.130287 0.502314
H13_3 H 0.168301 0.12937 0.264993
H14_3 H 0.303859 0.208531 0.295697
O1_3 O 0.4171(11) 0.8731(8) 0.2820(7)
O5_3 O 0.2717(10) 0.9286(7) 0.3832(7)
C2_3 C 0.5031(17) 0.8746(12) 0.2611(9)
C4_3 C 0.5594(16) 0.9401(11) 0.1909(9)
C5_3 C 0.6600(15) 0.9641(11) 0.1668(9)
C8_3 C 0.2462(25) 0.9956(18) 0.5281(12)
C9_3 C 0.2476(26) 0.994(2) 0.2392(11)
H2_3 H 0.175763 0.974288 0.564058
H3_3 H 0.252761 0.924568 0.517624
H5_3 H 0.707457 0.933605 0.19468
H9_3 H 0.253856 0.923206 0.251597
H10_3 H 0.177896 0.971848 0.202162
O26 O 0.0868(12) 0.0872(12) 0.1331(12)
N7 N -0.0000 -0.0000 0.1334(16)
N7_2 N -0.0000 1.0000 0.1334(16)
O27 O 0.0004(17) 0.9132(12) 0.1331(12)
N7_3 N 1.0000 -0.0000 0.1334(16)
N7_4 N 1.0000 1.0000 0.1334(16)
O28 O 0.9128(12) 0.9996(17) 0.1331(12)
O26_2 O 0.0872(12) 0.0868(12) 0.6331(12)
N7_5 N 0.0000 -0.0000 0.6334(16)
N7_6 N -0.0000 1.0000 0.6334(16)
N7_7 N 1.0000 -0.0000 0.6334(16)
O27_2 O 0.9132(12) 0.0004(17) 0.6331(12)
N7_8 N 1.0000 1.0000 0.6334(16)
O28_2 O 0.9996(17) 0.9128(12) 0.6331(12)
loop_
_geom_bond_atom_site_label_1
_geom_bond_atom_site_label_2
_geom_bond_site_symmetry_1
_geom_bond_site_symmetry_2
C28 H20 1_555 1_555
C28 H21 1_555 1_555
C28 H22 1_555 1_555
Yb1 O1 1_555 1_555
O1 C2 1_555 1_555
O4 C2 1_555 1_555
O5 Yb1 1_555 1_555
O6 Yb1 1_555 1_555
C2 C4 1_555 1_555
C5 C4 1_555 1_555
Yb3 O8 1_555 1_555
Yb6 O4 1_555 1_555
Yb7 O6 1_555 1_555
Yb9 O18 1_555 1_555
O8 C16 1_555 1_555
O9 Yb1 1_555 1_555
O10 Yb7 1_555 1_555
O12 Yb3 1_555 1_555
O13 Yb6 1_555 1_555
O14 Yb1 1_555 1_555
O16 Yb3 1_555 1_555
O18 C16 1_555 1_555
O19 Yb1 1_555 1_555
O21 Yb3 1_555 1_555
O23 Yb3 1_555 1_555
O25 Yb3 1_555 1_555
N4 C30 1_555 1_555
S2 C17 1_555 1_555
S3 C18 1_555 1_555
C13 O9 1_555 1_555
C14 O10 1_555 1_555
C16 C20 1_555 1_555
C17 C13 1_555 1_555
C18 C14 1_555 1_555
C20 S3 1_555 1_555
C22 C20 1_555 1_555
C23 C17 1_555 1_555
C24 C18 1_555 1_555
C25 C31 1_555 1_555
C26 C32 1_555 1_555
C31 N3 1_555 1_555
C32 N4 1_555 1_555
C33 N5 1_555 1_555
C34 N6 1_555 1_555
C36 O23 1_555 1_555
O6 Yb6 1_555 1_555
Yb9 O25 1_555 1_555
O13 C13 1_555 1_555
O14 C14 1_555 1_555
N3 C35 1_555 1_555
N4 C36 1_555 1_555
N5 C35 1_555 1_555
N6 C36 1_555 1_555
C22 C24 1_555 1_555
C25 C33 1_555 1_555
C26 C34 1_555 1_555
C8 H2 1_555 1_555
C8 H3 1_555 1_555
C5 H5 1_555 1_555
C9 H9 1_555 1_555
C9 H10 1_555 1_555
C22 H15 1_555 1_555
C25 H16 1_555 1_555
C25 H17 1_555 1_555
C31 H26 1_555 1_555
C31 H27 1_555 1_555
C23 H28 1_555 1_555
C34 H30 1_555 1_555
C24 H31 1_555 1_555
C30 H35 1_555 1_555
C30 H36 1_555 1_555
C30 H37 1_555 1_555
C32 H38 1_555 1_555
C32 H39 1_555 1_555
C33 H42 1_555 1_555
C27 H33 1_555 1_555
C27 H34 1_555 1_555
S1 C3 1_555 1_555
C1 C3 1_555 1_555
C3 C6 1_555 1_555
C7 C10 1_555 1_555
C10 N1 1_555 1_555
C11 N2 1_555 1_555
Yb2 O7 1_555 1_555
O7 C15 1_555 1_555
O11 Yb2 1_555 1_555
O15 Yb2 1_555 1_555
O21 C15 1_555 1_555
O20 Yb2 1_555 1_555
O22 Yb2 1_555 1_555
O25 Yb2 1_555 1_555
C15 C19 1_555 1_555
C21 C19 1_555 1_555
N1 C12 1_555 1_555
N2 C12 1_555 1_555
C7 C11 1_555 1_555
C6 H1 1_555 1_555
C11 H11 1_555 1_555
C11 H12 1_555 1_555
C10 H13 1_555 1_555
C10 H14 1_555 1_555
C29 H23 1_555 1_555
C29 H24 1_555 1_555
C21 H40 1_555 1_555
C28_2 H21_2 1_555 1_555
C28_2 H22_2 1_555 1_555
Yb9 O8_2 1_555 1_555
O8_2 C16_2 1_555 1_555
O12_2 Yb9 1_555 1_555
O16_2 Yb9 1_555 1_555
O20 C16_2 1_555 1_555
O23_2 Yb9 1_555 1_555
C16_2 C20_2 1_555 1_555
C22_2 C20_2 1_555 1_555
C22_2 H15_2 1_555 1_555
C30_2 H35_2 1_555 1_555
C30_2 H36_2 1_555 1_555
Yb7 O1_2 1_555 1_555
O1_2 C2_2 1_555 1_555
O19 C2_2 1_555 1_555
O5_2 Yb7 1_555 1_555
N1_2 C9_2 1_555 1_555
N2_2 C8_2 1_555 1_555
S1_2 C3_2 1_555 1_555
C1_2 C3_2 1_555 1_555
C2_2 C4_2 1_555 1_555
C3_2 C6_2 1_555 1_555
C4_2 S1_2 1_555 1_555
C5_2 C4_2 1_555 1_555
C6_2 C5_2 1_555 1_555
C7_2 C10_2 1_555 1_555
C10_2 N1_2 1_555 1_555
C11_2 N2_2 1_555 1_555
C12_2 O5_2 1_555 1_555
O10_2 Yb6 1_555 1_555
O14_2 Yb7 1_555 1_555
O19_2 Yb7 1_555 1_555
S3_2 C18_2 1_555 1_555
C14_2 O10_2 1_555 1_555
C18_2 C14_2 1_555 1_555
C24_2 C18_2 1_555 1_555
C26_2 C32_2 1_555 1_555
C32_2 N4_2 1_555 1_555
C34_2 N6_2 1_555 1_555
N1_2 C12_2 1_555 1_555
N2_2 C12_2 1_555 1_555
C7_2 C11_2 1_555 1_555
O14_2 C14_2 1_555 1_555
N4_2 C36_2 1_555 1_555
N6_2 C36_2 1_555 1_555
C26_2 C34_2 1_555 1_555
C6_2 H1_2 1_555 1_555
C8_2 H2_2 1_555 1_555
C8_2 H3_2 1_555 1_555
C8_2 H4_2 1_555 1_555
C5_2 H5_2 1_555 1_555
C9_2 H8_2 1_555 1_555
C9_2 H9_2 1_555 1_555
C9_2 H10_2 1_555 1_555
C11_2 H11_2 1_555 1_555
C11_2 H12_2 1_555 1_555
C10_2 H13_2 1_555 1_555
C10_2 H14_2 1_555 1_555
C34_2 H30_2 1_555 1_555
C24_2 H31_2 1_555 1_555
C32_2 H38_2 1_555 1_555
C32_2 H39_2 1_555 1_555
S1_3 C3_3 1_555 1_555
C1_3 C3_3 1_555 1_555
C3_3 C6_3 1_555 1_555
C7_3 C10_3 1_555 1_555
C10_3 N1_3 1_555 1_555
C11_3 N2_3 1_555 1_555
N1_3 C12_3 1_555 1_555
N2_3 C12_3 1_555 1_555
C7_3 C11_3 1_555 1_555
C6_3 H1_3 1_555 1_555
C7_3 H6_3 1_555 1_555
C7_3 H7_3 1_555 1_555
C11_3 H11_3 1_555 1_555
C11_3 H12_3 1_555 1_555
C10_3 H13_3 1_555 1_555
C10_3 H14_3 1_555 1_555
Yb6 O1_3 1_555 1_555
O1_3 C2_3 1_555 1_555
O19_2 C2_3 1_555 1_555
O5_3 Yb6 1_555 1_555
C2_3 C4_3 1_555 1_555
C5_3 C4_3 1_555 1_555
C8_3 H2_3 1_555 1_555
C8_3 H3_3 1_555 1_555
C5_3 H5_3 1_555 1_555
C9_3 H9_3 1_555 1_555
C9_3 H10_3 1_555 1_555
O26 N7 1_555 1_555
N7_2 O27 1_555 1_555
O28 N7_4 1_555 1_555
O26_2 N7_5 1_555 1_555
N7_7 O27_2 1_555 1_555
O28_2 N7_8 1_555 1_555

#END
