
###############################################################################
#
# This file contains modified crystal structure data generated from the
# MOF subset of the Cambridge Structural Database (CSD) v543 
# hosted by the Cambridge Crystallographic Data Centre (CCDC).
#
# This work is licensed under the Creative Commons
# Attribution-NonCommercial-ShareAlike 4.0 International License.
# To view a copy of this license, visit
# http://creativecommons.org/licenses/by-nc-sa/4.0/
# or send a letter to
# Creative Commons, PO Box 1866, Mountain View, CA 94042, USA.
#
# CIF created using the CSD Python API on 29 September 2022
# The structure has been converted into the P1 space group
# The structure has a 3D framework
# The original CSD entry LAGVEX is in the triclinic crystal system
# The framework has been calculated to contain at least 10.0% void space
# The void calculation uses a probe of radius 1.32A, grid spacing 0.4
#
###############################################################################

data_LAGVEX
_chemical_formula_moiety         '(C120 H84 N24 O28 Zn6)n'
_symmetry_cell_setting           triclinic
_symmetry_space_group_name_H-M   'P 1'
_symmetry_Int_Tables_number      1
_space_group_name_Hall           'P 1'
loop_
_symmetry_equiv_pos_site_id
_symmetry_equiv_pos_as_xyz
1 x,y,z
_cell_length_a                   14.366(2)
_cell_length_b                   15.189(2)
_cell_length_c                   18.833(3)
_cell_angle_alpha                67.910(3)
_cell_angle_beta                 82.666(3)
_cell_angle_gamma                81.065(3)
_cell_volume                     3750.81
loop_
_atom_site_label
_atom_site_type_symbol
_atom_site_fract_x
_atom_site_fract_y
_atom_site_fract_z
C33 C 0.2063(3) 0.6808(4) 0.0211(3)
H25 H 0.2595 0.6801 0.0448
C34 C 0.1209(3) 0.6660(5) 0.0648(3)
H26 H 0.1171 0.6541 0.1172
C35 C 0.0423(3) 0.6690(4) 0.0293(3)
O16 O 0.0555(5) 0.2094(8) 0.5516(5)
O17 O 0.1249(9) 0.1357(10) 0.6810(8)
C31 C 0.3060(3) 0.7097(4) 0.8964(3)
C32 C 0.2146(3) 0.6966(3) 0.9447(3)
C36 C 0.0465(3) 0.6877(4) 0.9510(3)
C37 C 0.1332(3) 0.7016(4) 0.9096(3)
H28 H 0.1373 0.7146 0.8570
O3 O 0.3793(2) 0.7032(3) 0.9305(2)
O4 O 0.3096(2) 0.7203(3) 0.82817(19)
Zn7 Zn 0.48812(3) 0.68308(4) 0.86036(3)
C1 C 0.6080(4) 0.0371(4) 0.2284(3)
H1 H 0.6241 0.0655 0.1761
C2 C 0.6526(4) 0.0436(4) 0.2832(2)
H2 H 0.7052 0.0753 0.2768
C9 C 0.7059(3) 0.0145(3) 0.4375(2)
H6 H 0.7379 0.0565 0.3955
C13 C 0.8331(3) 0.0358(4) 0.5856(3)
H10 H 0.7988 0.0119 0.6328
C14 C 0.9385(3) 0.1031(4) 0.4978(2)
H11 H 0.9911 0.1342 0.4733
C15 C 0.8782(3) 0.0742(4) 0.4639(2)
H12 H 0.8812 0.0822 0.4122
C16 C 0.5326(3) 0.0541(3) 0.0541(2)
H13 H 0.4837 0.1022 0.0536
C38 C 0.8782(3) 0.6638(4) 0.0381(3)
C39 C 0.8535(4) 0.5872(4) 0.0262(3)
H29 H 0.8905 0.5283 0.0433
C43 C 0.8233(3) 0.7510(4) 0.0148(3)
H32 H 0.8396 0.8022 0.0243
N5 N 0.8115(3) 0.0306(3) 0.52017(19)
N6 N 0.9096(3) 0.0793(3) 0.5739(2)
N8 N 0.6086(2) 0.0661(3) 0.00359(18)
C59 C 0.2861(3) 0.0565(3) 0.2015(2)
H41 H 0.2796 0.1217 0.1664
O1 O 0.9589(2) 0.6541(3) 0.07542(19)
O11 O 0.3024(3) 0.0604(3) 0.26131(19)
O12 O 0.3363(2) 0.0102(2) 0.16353(16)
Zn2 Zn 0.97802(4) 0.09642(4) 0.65379(3)
N14 N 0.8976(3) 0.1899(3) 0.6961(2)
C19 C 0.6251(3) 0.1528(3) 0.9408(2)
C20 C 0.5652(3) 0.2350(3) 0.9345(2)
H16 H 0.5137 0.2345 0.9699
C21 C 0.5835(3) 0.3179(3) 0.8743(2)
C22 C 0.6579(3) 0.3220(3) 0.8211(2)
H17 H 0.6683 0.3792 0.7810
C23 C 0.7170(3) 0.2397(3) 0.8280(2)
C24 C 0.7020(3) 0.1548(3) 0.8883(2)
H18 H 0.7433 0.0996 0.8934
C25 C 0.8391(4) 0.3173(4) 0.7248(3)
H19 H 0.8274 0.3795 0.7244
C26 C 0.9034(4) 0.2852(4) 0.6803(3)
H20 H 0.9461 0.3217 0.6439
C27 C 0.8292(3) 0.1665(4) 0.7510(3)
H21 H 0.8088 0.1061 0.7725
C28 C 0.5463(3) 0.4857(4) 0.8631(3)
H22 H 0.6088 0.4972 0.8598
C29 C 0.4242(3) 0.4142(4) 0.8706(3)
H23 H 0.3858 0.3685 0.8743
C30 C 0.3968(3) 0.5033(4) 0.8664(3)
H24 H 0.3344 0.5313 0.8659
H27 H 0.9927 0.6908 0.9271
C40 C 0.7735(3) 0.5972(4) 0.9886(3)
H30 H 0.7560 0.5451 0.9811
C41 C 0.7193(3) 0.6858(3) 0.9621(2)
C42 C 0.7437(3) 0.7612(4) 0.9771(2)
H31 H 0.7059 0.8197 0.9616
C44 C 0.6330(4) 0.6996(4) 0.9204(3)
N9 N 0.7930(3) 0.2401(3) 0.7718(2)
N11 N 0.4738(3) 0.5484(3) 0.8629(2)
N12 N 0.5206(3) 0.4034(3) 0.8686(2)
O5 O 0.5788(2) 0.7732(3) 0.90588(19)
O6 O 0.6158(3) 0.6311(3) 0.9036(2)
N13 N 0.5089(3) 0.7494(3) 0.74555(19)
C3 C 0.5352(3) 0.9587(3) 0.3336(2)
H3 H 0.4922 0.9219 0.3693
C4 C 0.6307(3) 0.9750(3) 0.4273(2)
C5 C 0.5816(3) 0.9139(3) 0.4893(2)
H4 H 0.5308 0.8876 0.4823
C6 C 0.6097(3) 0.8924(3) 0.5627(2)
C7 C 0.6853(3) 0.9299(3) 0.5741(2)
H5 H 0.7040 0.9146 0.6232
C8 C 0.7329(3) 0.9912(3) 0.5103(2)
C10 C 0.4956(3) 0.7728(4) 0.6232(3)
H7 H 0.4770 0.7689 0.5791
C11 C 0.4660(3) 0.7238(4) 0.6964(3)
H8 H 0.4228 0.6792 0.7114
C12 C 0.5639(3) 0.8125(3) 0.7020(2)
H9 H 0.6020 0.8423 0.7203
C17 C 0.6205(3) 0.9193(4) 0.0851(2)
H14 H 0.6432 0.8559 0.1114
C18 C 0.6643(3) 0.9790(3) 0.0231(2)
C45 C 0.4654(6) 0.7511(5) 0.2808(3)
C46 C 0.4534(5) 0.6525(4) 0.3336(3)
C47 C 0.5253(5) 0.5794(5) 0.3323(3)
H33 H 0.5772 0.5942 0.2968
C48 C 0.5216(4) 0.4860(4) 0.3822(4)
H34 H 0.5701 0.4383 0.3807
C49 C 0.4450(4) 0.4655(4) 0.4335(3)
C50 C 0.3736(4) 0.5357(4) 0.4361(3)
H35 H 0.3220 0.5203 0.4718
C51 C 0.3774(4) 0.6289(4) 0.3861(3)
H36 H 0.3284 0.6759 0.3881
C52 C 0.3659(3) 0.3292(4) 0.5111(3)
C53 C 0.3022(4) 0.3370(5) 0.4595(3)
H37 H 0.3128 0.3729 0.4075
C54 C 0.2226(4) 0.2904(5) 0.4865(4)
H38 H 0.1778 0.2968 0.4529
C55 C 0.2090(4) 0.2338(4) 0.5640(4)
C56 C 0.2780(5) 0.2263(4) 0.6130(4)
H39 H 0.2709 0.1878 0.6647
C57 C 0.3549(4) 0.2744(4) 0.5860(3)
H40 H 0.3998 0.2695 0.6192
C58 C 0.1213(6) 0.1825(7) 0.5936(8)
N1 N 0.5348(3) 0.9829(3) 0.25932(19)
N2 N 0.6052(2) 0.9934(3) 0.35203(18)
N3 N 0.5584(2) 0.8291(3) 0.62695(19)
N7 N 0.5358(2) 0.9661(3) 0.10447(18)
C60 C 0.9970(5) 0.9062(5) 0.7520(3)
O2 O 0.4483(3) 0.3726(3) 0.4859(3)
O7 O 0.5334(3) 0.7685(3) 0.2301(2)
O8 O 0.4054(4) 0.8168(4) 0.2880(3)
O13 O 0.9514(3) 0.9826(3) 0.74608(19)
Zn1 Zn 0.45302(4) 0.93428(4) 0.20537(3)
H42 H 0.979(5) 0.851(5) 0.798(4)
O14 O 0.0629(5) 0.8904(4) 0.7102(3)
H15 H 0.7213 0.9647 0.9979
Zn4 Zn 0.02198(4) 0.90358(4) 0.34621(3)
C3_2 C 0.4648(3) 0.0413(3) 0.6664(2)
H3_2 H 0.5078 0.0781 0.6307
C4_2 C 0.3693(3) 0.0250(3) 0.5727(2)
C5_2 C 0.4184(3) 0.0861(3) 0.5107(2)
H4_2 H 0.4692 0.1124 0.5177
C6_2 C 0.3903(3) 0.1076(3) 0.4373(2)
C7_2 C 0.3147(3) 0.0701(3) 0.4259(2)
H5_2 H 0.2960 0.0854 0.3768
C8_2 C 0.2671(3) 0.0088(3) 0.4897(2)
C10_2 C 0.5044(3) 0.2272(4) 0.3768(3)
H7_2 H 0.5230 0.2311 0.4209
C11_2 C 0.5340(3) 0.2762(4) 0.3036(3)
H8_2 H 0.5772 0.3208 0.2886
C12_2 C 0.4361(3) 0.1875(3) 0.2980(2)
H9_2 H 0.3980 0.1577 0.2797
C17_2 C 0.3795(3) 0.0807(4) 0.9149(2)
H14_2 H 0.3568 0.1441 0.8886
C18_2 C 0.3357(3) 0.0210(3) 0.9769(2)
C45_2 C 0.5346(6) 0.2489(5) 0.7192(3)
C46_2 C 0.5466(5) 0.3475(4) 0.6664(3)
C47_2 C 0.4747(5) 0.4206(5) 0.6677(3)
H33_2 H 0.4228 0.4058 0.7032
C48_2 C 0.4784(4) 0.5140(4) 0.6178(4)
H34_2 H 0.4299 0.5617 0.6193
C49_2 C 0.5550(4) 0.5345(4) 0.5665(3)
C50_2 C 0.6264(4) 0.4643(4) 0.5639(3)
H35_2 H 0.6780 0.4797 0.5282
C51_2 C 0.6226(4) 0.3711(4) 0.6139(3)
H36_2 H 0.6716 0.3241 0.6119
C52_2 C 0.6341(3) 0.6708(4) 0.4889(3)
C53_2 C 0.6978(4) 0.6630(5) 0.5405(3)
H37_2 H 0.6872 0.6271 0.5925
C54_2 C 0.7774(4) 0.7096(5) 0.5135(4)
H38_2 H 0.8222 0.7032 0.5471
C55_2 C 0.7910(4) 0.7662(4) 0.4360(4)
C56_2 C 0.7220(5) 0.7737(4) 0.3870(4)
H39_2 H 0.7291 0.8122 0.3353
C57_2 C 0.6451(4) 0.7256(4) 0.4140(3)
H40_2 H 0.6002 0.7305 0.3808
C58_2 C 0.8787(6) 0.8175(7) 0.4064(8)
N1_2 N 0.4652(3) 0.0171(3) 0.74068(19)
N2_2 N 0.3948(2) 0.0066(3) 0.64797(18)
N3_2 N 0.4416(2) 0.1709(3) 0.37305(19)
N4 N 0.4911(3) 0.2506(3) 0.25445(19)
N7_2 N 0.4642(2) 0.0339(3) 0.89553(18)
C60_2 C 0.0030(5) 0.0938(5) 0.2480(3)
O2_2 O 0.5517(3) 0.6274(3) 0.5141(3)
O7_2 O 0.4666(3) 0.2315(3) 0.7699(2)
O8_2 O 0.5946(4) 0.1832(4) 0.7120(3)
O9 O 0.9445(5) 0.7906(8) 0.4484(5)
O10 O 0.8751(9) 0.8643(10) 0.3190(8)
O13_2 O 0.0486(3) 0.0174(3) 0.25392(19)
Zn1_2 Zn 0.54698(4) 0.06572(4) 0.79463(3)
H42_2 H 0.021(5) 0.149(5) 0.202(4)
Zn6 Zn 0.51188(3) 0.31692(4) 0.13964(3)
C19_2 C 0.3749(3) 0.8472(3) 0.0592(2)
C20_2 C 0.4348(3) 0.7650(3) 0.0655(2)
H16_2 H 0.4863 0.7655 0.0301
C21_2 C 0.4165(3) 0.6821(3) 0.1257(2)
C22_2 C 0.3421(3) 0.6780(3) 0.1789(2)
H17_2 H 0.3317 0.6208 0.2190
C23_2 C 0.2830(3) 0.7603(3) 0.1720(2)
C24_2 C 0.2980(3) 0.8452(3) 0.1117(2)
H18_2 H 0.2567 0.9004 0.1066
C25_2 C 0.1609(4) 0.6827(4) 0.2752(3)
H19_2 H 0.1726 0.6205 0.2756
C26_2 C 0.0966(4) 0.7148(4) 0.3197(3)
H20_2 H 0.0539 0.6783 0.3561
C27_2 C 0.1708(3) 0.8335(4) 0.2490(3)
H21_2 H 0.1912 0.8939 0.2275
C28_2 C 0.4537(3) 0.5143(4) 0.1369(3)
H22_2 H 0.3912 0.5028 0.1402
C29_2 C 0.5758(3) 0.5858(4) 0.1294(3)
H23_2 H 0.6142 0.6315 0.1257
C30_2 C 0.6032(3) 0.4967(4) 0.1336(3)
H24_2 H 0.6656 0.4687 0.1341
H27_2 H 0.0073 0.3092 0.0729
C40_2 C 0.2265(3) 0.4028(4) 0.0114(3)
H30_2 H 0.2440 0.4549 0.0189
C41_2 C 0.2807(3) 0.3142(3) 0.0379(2)
C42_2 C 0.2563(3) 0.2388(4) 0.0229(2)
H31_2 H 0.2941 0.1803 0.0384
C44_2 C 0.3670(4) 0.3004(4) 0.0796(3)
N9_2 N 0.2070(3) 0.7599(3) 0.2282(2)
N10 N 0.1024(3) 0.8101(3) 0.3039(2)
N11_2 N 0.5262(3) 0.4516(3) 0.1371(2)
N12_2 N 0.4794(3) 0.5966(3) 0.1314(2)
O5_2 O 0.4212(2) 0.2268(3) 0.09412(19)
O6_2 O 0.3842(3) 0.3689(3) 0.0964(2)
O15 O 0.6207(2) 0.2968(3) 0.0695(2)
C1_2 C 0.3920(4) 0.9629(4) 0.7716(3)
H1_2 H 0.3759 0.9345 0.8239
C2_2 C 0.3474(4) 0.9564(4) 0.7168(2)
H2_2 H 0.2948 0.9247 0.7232
C9_2 C 0.2941(3) 0.9855(3) 0.5625(2)
H6_2 H 0.2621 0.9435 0.6045
C13_2 C 0.1669(3) 0.9642(4) 0.4144(3)
H10_2 H 0.2012 0.9881 0.3672
C14_2 C 0.0615(3) 0.8969(4) 0.5022(2)
H11_2 H 0.0089 0.8658 0.5267
C15_2 C 0.1218(3) 0.9258(4) 0.5361(2)
H12_2 H 0.1188 0.9178 0.5878
C16_2 C 0.4674(3) 0.9459(3) 0.9459(2)
H13_2 H 0.5163 0.8978 0.9464
C38_2 C 0.1218(3) 0.3362(4) 0.9619(3)
C39_2 C 0.1465(4) 0.4128(4) 0.9738(3)
H29_2 H 0.1095 0.4717 0.9567
C43_2 C 0.1767(3) 0.2490(4) 0.9852(3)
H32_2 H 0.1604 0.1978 0.9757
N5_2 N 0.1885(3) 0.9694(3) 0.47983(19)
N6_2 N 0.0904(3) 0.9207(3) 0.4261(2)
N8_2 N 0.3914(2) 0.9339(3) 0.99641(18)
C59_2 C 0.7139(3) 0.9435(3) 0.7985(2)
H41_2 H 0.7204 0.8783 0.8336
O1_2 O 0.0411(2) 0.3459(3) 0.92458(19)
O11_2 O 0.6976(3) 0.9396(3) 0.73869(19)
O12_2 O 0.6637(2) 0.9898(2) 0.83647(16)
C31_2 C 0.6940(3) 0.2903(4) 0.1036(3)
C32_2 C 0.7854(3) 0.3034(3) 0.0553(3)
C36_2 C 0.9535(3) 0.3123(4) 0.0490(3)
C37_2 C 0.8668(3) 0.2984(4) 0.0904(3)
H28_2 H 0.8627 0.2854 0.1430
O4_2 O 0.6904(2) 0.2797(3) 0.17183(19)
C33_2 C 0.7937(3) 0.3192(4) 0.9789(3)
H25_2 H 0.7405 0.3199 0.9552
C34_2 C 0.8791(3) 0.3340(5) 0.9352(3)
H26_2 H 0.8829 0.3459 0.8828
C35_2 C 0.9577(3) 0.3310(4) 0.9707(3)
H15_2 H 0.2787 0.0353 0.0021
O14_2 O 0.9371(5) 0.1096(4) 0.2898(3)
loop_
_geom_bond_atom_site_label_1
_geom_bond_atom_site_label_2
_geom_bond_site_symmetry_1
_geom_bond_site_symmetry_2
C33 H25 1_555 1_555
C34 C33 1_555 1_555
H26 C34 1_555 1_555
C35 C34 1_555 1_555
C31 C32 1_555 1_555
C37 C32 1_555 1_555
H28 C37 1_555 1_555
O3 C31 1_555 1_555
O4 C31 1_555 1_555
Zn7 O3 1_555 1_555
C36 C37 1_555 1_555
C1 H1 1_555 1_555
C2 C1 1_555 1_555
H2 C2 1_555 1_555
H6 C9 1_555 1_555
C13 H10 1_555 1_555
C14 H11 1_555 1_555
C15 C14 1_555 1_555
H12 C15 1_555 1_555
C16 H13 1_555 1_555
C38 C39 1_555 1_555
C39 H29 1_555 1_555
C43 C38 1_555 1_555
H32 C43 1_555 1_555
N6 C13 1_555 1_555
N8 C16 1_555 1_555
C59 H41 1_555 1_555
O11 C59 1_555 1_555
O12 C59 1_555 1_555
Zn2 N6 1_555 1_555
N14 Zn2 1_555 1_555
C13 N5 1_555 1_555
C14 N6 1_555 1_555
C15 N5 1_555 1_555
C38 O1 1_555 1_555
C19 C20 1_555 1_555
C20 H16 1_555 1_555
C21 C20 1_555 1_555
C22 C21 1_555 1_555
H17 C22 1_555 1_555
C23 C22 1_555 1_555
C24 C19 1_555 1_555
H18 C24 1_555 1_555
C25 H19 1_555 1_555
C26 C25 1_555 1_555
H20 C26 1_555 1_555
C27 H21 1_555 1_555
C28 H22 1_555 1_555
C29 H23 1_555 1_555
C30 C29 1_555 1_555
H24 C30 1_555 1_555
H30 C40 1_555 1_555
C41 C40 1_555 1_555
C42 C41 1_555 1_555
H31 C42 1_555 1_555
C44 C41 1_555 1_555
N9 C23 1_555 1_555
N14 C26 1_555 1_555
N11 C28 1_555 1_555
N12 C21 1_555 1_555
O5 C44 1_555 1_555
O6 C44 1_555 1_555
Zn7 N11 1_555 1_555
N13 Zn7 1_555 1_555
C23 C24 1_555 1_555
C25 N9 1_555 1_555
C27 N9 1_555 1_555
C27 N14 1_555 1_555
C28 N12 1_555 1_555
C29 N12 1_555 1_555
C30 N11 1_555 1_555
O5 Zn7 1_555 1_555
O6 Zn7 1_555 1_555
C3 H3 1_555 1_555
C4 C5 1_555 1_555
C5 H4 1_555 1_555
C6 C5 1_555 1_555
C7 C6 1_555 1_555
H5 C7 1_555 1_555
C8 C7 1_555 1_555
C10 H7 1_555 1_555
C11 C10 1_555 1_555
H8 C11 1_555 1_555
C12 H9 1_555 1_555
C17 H14 1_555 1_555
C18 C17 1_555 1_555
C45 C46 1_555 1_555
C46 C47 1_555 1_555
C47 H33 1_555 1_555
C48 C47 1_555 1_555
H34 C48 1_555 1_555
C49 C48 1_555 1_555
C50 C49 1_555 1_555
H35 C50 1_555 1_555
C51 C46 1_555 1_555
H36 C51 1_555 1_555
C52 C53 1_555 1_555
C53 H37 1_555 1_555
C54 C53 1_555 1_555
H38 C54 1_555 1_555
C55 C54 1_555 1_555
C56 C55 1_555 1_555
H39 C56 1_555 1_555
C57 C52 1_555 1_555
H40 C57 1_555 1_555
C58 C55 1_555 1_555
N3 C6 1_555 1_555
N13 C11 1_555 1_555
C60 O13 1_555 1_555
O2 C49 1_555 1_555
O7 C45 1_555 1_555
O8 C45 1_555 1_555
O16 C58 1_555 1_555
O17 C58 1_555 1_555
Zn1 N1 1_555 1_555
H42 C60 1_555 1_555
C3 N1 1_555 1_555
C3 N2 1_555 1_555
C4 N2 1_555 1_555
C10 N3 1_555 1_555
C12 N3 1_555 1_555
C12 N13 1_555 1_555
C17 N7 1_555 1_555
C50 C51 1_555 1_555
C52 O2 1_555 1_555
C56 C57 1_555 1_555
N7 Zn1 1_555 1_555
O7 Zn1 1_555 1_555
O8 Zn1 1_555 1_555
C3_2 H3_2 1_555 1_555
C4_2 C5_2 1_555 1_555
C5_2 H4_2 1_555 1_555
C6_2 C5_2 1_555 1_555
C7_2 C6_2 1_555 1_555
H5_2 C7_2 1_555 1_555
C8_2 C7_2 1_555 1_555
C10_2 H7_2 1_555 1_555
C11_2 C10_2 1_555 1_555
H8_2 C11_2 1_555 1_555
C12_2 H9_2 1_555 1_555
C17_2 H14_2 1_555 1_555
C18_2 C17_2 1_555 1_555
C45_2 C46_2 1_555 1_555
C46_2 C47_2 1_555 1_555
C47_2 H33_2 1_555 1_555
C48_2 C47_2 1_555 1_555
H34_2 C48_2 1_555 1_555
C49_2 C48_2 1_555 1_555
C50_2 C49_2 1_555 1_555
H35_2 C50_2 1_555 1_555
C51_2 C46_2 1_555 1_555
H36_2 C51_2 1_555 1_555
C52_2 C53_2 1_555 1_555
C53_2 H37_2 1_555 1_555
C54_2 C53_2 1_555 1_555
H38_2 C54_2 1_555 1_555
C55_2 C54_2 1_555 1_555
C56_2 C55_2 1_555 1_555
H39_2 C56_2 1_555 1_555
C57_2 C52_2 1_555 1_555
H40_2 C57_2 1_555 1_555
C58_2 C55_2 1_555 1_555
N3_2 C6_2 1_555 1_555
N4 C11_2 1_555 1_555
C60_2 O13_2 1_555 1_555
O2_2 C49_2 1_555 1_555
O7_2 C45_2 1_555 1_555
O8_2 C45_2 1_555 1_555
O9 C58_2 1_555 1_555
O10 C58_2 1_555 1_555
Zn1_2 N1_2 1_555 1_555
H42_2 C60_2 1_555 1_555
Zn6 N4 1_555 1_555
C3_2 N1_2 1_555 1_555
C3_2 N2_2 1_555 1_555
C4_2 N2_2 1_555 1_555
C10_2 N3_2 1_555 1_555
C12_2 N3_2 1_555 1_555
C12_2 N4 1_555 1_555
C17_2 N7_2 1_555 1_555
C50_2 C51_2 1_555 1_555
C52_2 O2_2 1_555 1_555
C56_2 C57_2 1_555 1_555
N7_2 Zn1_2 1_555 1_555
O7_2 Zn1_2 1_555 1_555
O8_2 Zn1_2 1_555 1_555
C19_2 C20_2 1_555 1_555
C20_2 H16_2 1_555 1_555
C21_2 C20_2 1_555 1_555
C22_2 C21_2 1_555 1_555
H17_2 C22_2 1_555 1_555
C23_2 C22_2 1_555 1_555
C24_2 C19_2 1_555 1_555
H18_2 C24_2 1_555 1_555
C25_2 H19_2 1_555 1_555
C26_2 C25_2 1_555 1_555
H20_2 C26_2 1_555 1_555
C27_2 H21_2 1_555 1_555
C28_2 H22_2 1_555 1_555
C29_2 H23_2 1_555 1_555
C30_2 C29_2 1_555 1_555
H24_2 C30_2 1_555 1_555
H30_2 C40_2 1_555 1_555
C41_2 C40_2 1_555 1_555
C42_2 C41_2 1_555 1_555
H31_2 C42_2 1_555 1_555
C44_2 C41_2 1_555 1_555
N9_2 C23_2 1_555 1_555
N10 C26_2 1_555 1_555
N11_2 C28_2 1_555 1_555
N12_2 C21_2 1_555 1_555
O5_2 C44_2 1_555 1_555
O6_2 C44_2 1_555 1_555
Zn6 N11_2 1_555 1_555
O15 Zn6 1_555 1_555
Zn4 N10 1_555 1_555
C23_2 C24_2 1_555 1_555
C25_2 N9_2 1_555 1_555
C27_2 N9_2 1_555 1_555
C27_2 N10 1_555 1_555
C28_2 N12_2 1_555 1_555
C29_2 N12_2 1_555 1_555
C30_2 N11_2 1_555 1_555
O5_2 Zn6 1_555 1_555
O6_2 Zn6 1_555 1_555
C1_2 H1_2 1_555 1_555
C2_2 C1_2 1_555 1_555
H2_2 C2_2 1_555 1_555
H6_2 C9_2 1_555 1_555
C13_2 H10_2 1_555 1_555
C14_2 H11_2 1_555 1_555
C15_2 C14_2 1_555 1_555
H12_2 C15_2 1_555 1_555
C16_2 H13_2 1_555 1_555
C38_2 C39_2 1_555 1_555
C39_2 H29_2 1_555 1_555
C43_2 C38_2 1_555 1_555
H32_2 C43_2 1_555 1_555
N6_2 C13_2 1_555 1_555
N8_2 C16_2 1_555 1_555
C59_2 H41_2 1_555 1_555
O11_2 C59_2 1_555 1_555
O12_2 C59_2 1_555 1_555
Zn4 N6_2 1_555 1_555
C13_2 N5_2 1_555 1_555
C14_2 N6_2 1_555 1_555
C15_2 N5_2 1_555 1_555
C38_2 O1_2 1_555 1_555
C31_2 C32_2 1_555 1_555
C37_2 C32_2 1_555 1_555
H28_2 C37_2 1_555 1_555
O15 C31_2 1_555 1_555
O4_2 C31_2 1_555 1_555
C36_2 C37_2 1_555 1_555
C33_2 H25_2 1_555 1_555
C34_2 C33_2 1_555 1_555
H26_2 C34_2 1_555 1_555
C35_2 C34_2 1_555 1_555

#END
