
###############################################################################
#
# This file contains modified crystal structure data generated from the
# MOF subset of the Cambridge Structural Database (CSD) v543 
# hosted by the Cambridge Crystallographic Data Centre (CCDC).
#
# This work is licensed under the Creative Commons
# Attribution-NonCommercial-ShareAlike 4.0 International License.
# To view a copy of this license, visit
# http://creativecommons.org/licenses/by-nc-sa/4.0/
# or send a letter to
# Creative Commons, PO Box 1866, Mountain View, CA 94042, USA.
#
# CIF created using the CSD Python API on 29 September 2022
# The structure has been converted into the P1 space group
# The structure has a 3D framework
# The original CSD entry LAHTUM is in the monoclinic crystal system
# The framework has been calculated to contain at least 10.0% void space
# The void calculation uses a probe of radius 1.32A, grid spacing 0.4
#
###############################################################################

data_LAHTUM
_chemical_formula_moiety         '(C140 H108 Cd10 N12 O38)n'
_symmetry_cell_setting           triclinic
_symmetry_space_group_name_H-M   'P 1'
_symmetry_Int_Tables_number      1
_space_group_name_Hall           'P 1'
loop_
_symmetry_equiv_pos_site_id
_symmetry_equiv_pos_as_xyz
1 x,y,z
_cell_length_a                   10.819(5)
_cell_length_b                   24.514(5)
_cell_length_c                   16.607(5)
_cell_angle_alpha                90
_cell_angle_beta                 91.681(5)
_cell_angle_gamma                90
_cell_volume                     4402.56
loop_
_atom_site_label
_atom_site_type_symbol
_atom_site_fract_x
_atom_site_fract_y
_atom_site_fract_z
C3 C 0.0920(5) 0.3511(2) 0.1606(3)
H1 H 0.1625 0.3295 0.1583
C4 C 0.0906(5) 0.39520(19) 0.2133(3)
H2 H 0.1588 0.4025 0.2469
C9 C 0.0284(4) 0.47659(18) 0.3482(3)
C10 C 0.0749(4) 0.42537(18) 0.3912(3)
C11 C 0.0288(4) 0.52495(18) 0.3917(3)
H5 H 0.0620 0.5251 0.4440
H7 H 0.0086 0.6784 0.2800
O2 O 0.0852(4) 0.27435(14) 0.0271(2)
O3 O 0.0098(3) 0.38364(12) 0.38756(18)
O4 O 0.1765(3) 0.43202(13) 0.43037(19)
O5 O 0.0837(3) 0.63459(13) 0.44808(19)
Cd3 Cd 0.00005(3) 0.697976(13) 0.535866(18)
Cd4 Cd 0.00005(3) 0.802024(13) 0.035866(18)
Cd5 Cd -0.00005(3) 0.302024(13) 0.464134(18)
Cd7 Cd 0.28485(3) 0.367843(13) 0.49260(2)
O14 O 0.1166(3) 0.14691(13) 0.07182(18)
Cd1 Cd -0.00005(3) 0.197976(13) 0.964134(18)
O11 O 0.0098(3) 0.11636(12) 0.88756(18)
O16 O 0.1980(3) 0.20040(12) 0.91112(17)
Cd2 Cd 0.71515(3) 0.867843(13) 0.00740(2)
C1 C 0.9880(5) 0.2894(2) 0.0579(3)
C2 C 0.9890(5) 0.33855(18) 0.1108(3)
C5 C 0.9861(4) 0.42828(17) 0.2153(3)
C6 C 0.8850(5) 0.41650(19) 0.1635(3)
H3 H 0.8160 0.4391 0.1632
C7 C 0.8863(5) 0.37196(18) 0.1132(3)
H4 H 0.8173 0.3643 0.0804
C8 C 0.9825(4) 0.47648(18) 0.2689(2)
C12 C 0.9808(4) 0.57346(18) 0.3594(2)
C13 C 0.9326(4) 0.57384(17) 0.2808(3)
C14 C 0.9363(4) 0.52565(18) 0.2367(3)
H6 H 0.9068 0.5260 0.1835
C15 C 0.8825(4) 0.62304(18) 0.2395(3)
C16 C 0.9388(4) 0.67403(18) 0.2465(3)
C17 C 0.8912(4) 0.71846(18) 0.2038(3)
H8 H 0.9302 0.7522 0.2084
C18 C 0.7858(4) 0.71305(18) 0.1541(3)
C19 C 0.7297(4) 0.66330(18) 0.1479(3)
H9 H 0.6583 0.6595 0.1158
C20 C 0.7772(4) 0.61853(19) 0.1884(3)
H10 H 0.7389 0.5848 0.1819
C21 C 0.9832(4) 0.62171(18) 0.4150(2)
C35 C 0.7308(4) 0.76178(19) 0.1111(2)
O1 O 0.8886(3) 0.26420(14) 0.0472(2)
O6 O 0.8834(3) 0.64691(13) 0.42818(18)
O7 O 0.6157(3) 0.76267(14) 0.1025(2)
O8 O 0.8020(3) 0.79960(12) 0.08888(17)
O10 O 0.5608(3) 0.87051(18) 0.1007(2)
H26 H 0.577(5) 0.883(2) 0.1532(17)
H27 H 0.558(9) 0.8326(10) 0.115(4)
Cd3_2 Cd 1.00005(3) 0.697976(13) 0.535866(18)
Cd4_2 Cd 1.00005(3) 0.802024(13) 0.035866(18)
Cd5_2 Cd 0.99995(3) 0.302024(13) 0.464134(18)
Cd8 Cd 0.71515(3) 0.632157(13) 0.50740(2)
O12 O 0.8235(3) 0.93202(13) 0.06963(19)
O13 O 0.9163(3) 0.13459(13) 0.05192(19)
Cd1_2 Cd 0.99995(3) 0.197976(13) 0.964134(18)
C22 C 0.6857(6) 0.9826(3) 0.9065(5)
H11 H 0.7444 0.9751 0.8683
C25 C 0.7495(5) 0.2512(2) 0.8903(3)
H18 H 0.7441 0.2621 0.9437
C26 C 0.6614(5) 0.2703(2) 0.8355(3)
H19 H 0.5964 0.2919 0.8525
C27 C 0.6709(4) 0.25708(19) 0.7553(3)
C28 C 0.7674(4) 0.2222(2) 0.7349(3)
H20 H 0.7773 0.2122 0.6814
C29 C 0.8481(4) 0.20246(19) 0.7941(3)
H21 H 0.9085 0.1775 0.7799
C30 C 0.5833(4) 0.27772(19) 0.6923(3)
C31 C 0.4583(4) 0.2840(2) 0.7081(3)
H22 H 0.4287 0.2738 0.7579
C32 C 0.3793(5) 0.3052(2) 0.6506(3)
H23 H 0.2966 0.3096 0.6629
C33 C 0.5354(4) 0.3134(2) 0.5613(3)
H24 H 0.5625 0.3233 0.5106
C34 C 0.6196(4) 0.2928(2) 0.6168(3)
H25 H 0.7020 0.2891 0.6032
N1 N 0.4153(3) 0.31988(16) 0.5774(2)
N2 N 0.8420(3) 0.21803(15) 0.8711(2)
O9 O 0.6450(4) 0.93954(15) 0.9274(2)
N4 N 0.5847(3) 0.81988(16) 0.9226(2)
O15 O 0.8834(3) 0.85309(13) 0.92818(18)
C12_2 C 0.0192(4) 0.07346(18) 0.1406(2)
C13_2 C 0.0674(4) 0.07384(17) 0.2192(3)
C14_2 C 0.0637(4) 0.02565(18) 0.2633(3)
H6_2 H 0.0932 0.0260 0.3165
C15_2 C 0.1175(4) 0.12304(18) 0.2605(3)
C16_2 C 0.0612(4) 0.17403(18) 0.2535(3)
C17_2 C 0.1088(4) 0.21846(18) 0.2962(3)
H8_2 H 0.0698 0.2522 0.2916
C18_2 C 0.2142(4) 0.21305(18) 0.3459(3)
C19_2 C 0.2703(4) 0.16330(18) 0.3521(3)
H9_2 H 0.3417 0.1595 0.3842
C20_2 C 0.2228(4) 0.11853(19) 0.3116(3)
H10_2 H 0.2611 0.0848 0.3181
C21_2 C 0.0168(4) 0.12171(18) 0.0850(2)
C22_2 C 0.3143(6) 0.4826(3) 0.5935(5)
H11_2 H 0.2556 0.4751 0.6317
C23 C 0.3545(11) 0.5387(5) 0.4978(10)
H12 H 0.3590 0.5773 0.4883
H13 H 0.2939 0.5228 0.4615
H14 H 0.4338 0.5225 0.4891
C24 C 0.2735(6) 0.5766(3) 0.6162(6)
H15 H 0.3048 0.6063 0.5851
H16 H 0.3008 0.5807 0.6714
H17 H 0.1848 0.5768 0.6129
C35_2 C 0.2692(4) 0.26178(19) 0.3889(2)
N3 N 0.3168(6) 0.5282(3) 0.5865(9)
O7_2 O 0.3843(3) 0.26267(14) 0.3975(2)
O8_2 O 0.1980(3) 0.29960(12) 0.41112(17)
O9_2 O 0.3550(4) 0.43954(15) 0.5726(2)
O10_2 O 0.4392(3) 0.37051(18) 0.3993(2)
H26_2 H 0.423(5) 0.383(2) 0.3468(17)
H27_2 H 0.442(9) 0.3326(10) 0.385(4)
O15_2 O 0.1166(3) 0.35309(13) 0.57182(18)
Cd8_2 Cd 0.28485(3) 0.132157(13) 0.99260(2)
C1_2 C 0.0120(5) 0.7894(2) 0.4421(3)
C2_2 C 0.0110(5) 0.83855(18) 0.3892(3)
C5_2 C 0.0139(4) 0.92828(17) 0.2847(3)
C6_2 C 0.1150(5) 0.91650(19) 0.3365(3)
H3_2 H 0.1840 0.9391 0.3368
C7_2 C 0.1137(5) 0.87196(18) 0.3868(3)
H4_2 H 0.1827 0.8643 0.4196
C8_2 C 0.0175(4) 0.97648(18) 0.2311(2)
C25_2 C 0.2505(5) 0.7512(2) 0.6097(3)
H18_2 H 0.2559 0.7621 0.5563
C26_2 C 0.3386(5) 0.7703(2) 0.6645(3)
H19_2 H 0.4036 0.7919 0.6475
C27_2 C 0.3291(4) 0.75708(19) 0.7447(3)
C28_2 C 0.2326(4) 0.7222(2) 0.7651(3)
H20_2 H 0.2227 0.7122 0.8186
C29_2 C 0.1519(4) 0.70246(19) 0.7059(3)
H21_2 H 0.0915 0.6775 0.7201
C30_2 C 0.4167(4) 0.77772(19) 0.8077(3)
C31_2 C 0.5417(4) 0.7840(2) 0.7919(3)
H22_2 H 0.5713 0.7738 0.7421
C32_2 C 0.6207(5) 0.8052(2) 0.8494(3)
H23_2 H 0.7034 0.8096 0.8371
C33_2 C 0.4646(4) 0.8134(2) 0.9387(3)
H24_2 H 0.4375 0.8233 0.9894
C34_2 C 0.3804(4) 0.7928(2) 0.8832(3)
H25_2 H 0.2980 0.7891 0.8968
N2_2 N 0.1580(3) 0.71803(15) 0.6289(2)
O1_2 O 0.1114(3) 0.76420(14) 0.4528(2)
C11_2 C 0.9712(4) 0.02495(18) 0.1083(3)
H5_2 H 0.9380 0.0251 0.0560
H7_2 H 0.9914 0.1784 0.2200
C3_2 C 0.9080(5) 0.8511(2) 0.3394(3)
H1_2 H 0.8375 0.8295 0.3417
C4_2 C 0.9094(5) 0.89520(19) 0.2867(3)
H2_2 H 0.8412 0.9025 0.2531
C9_2 C 0.9716(4) 0.97659(18) 0.1518(3)
C10_2 C 0.9251(4) 0.92537(18) 0.1088(3)
O2_2 O 0.9148(4) 0.77435(14) 0.4729(2)
O3_2 O 0.9902(3) 0.88364(12) 0.11244(18)
O11_2 O 0.9902(3) 0.61636(12) 0.61244(18)
O16_2 O 0.8020(3) 0.70040(12) 0.58888(17)
C22_3 C 0.3143(6) 0.0174(3) 0.0935(5)
H11_3 H 0.2556 0.0249 0.1317
C25_3 C 0.2505(5) 0.7488(2) 0.1097(3)
H18_3 H 0.2559 0.7379 0.0563
C26_3 C 0.3386(5) 0.7297(2) 0.1645(3)
H19_3 H 0.4036 0.7081 0.1475
C27_3 C 0.3291(4) 0.74292(19) 0.2447(3)
C28_3 C 0.2326(4) 0.7778(2) 0.2651(3)
H20_3 H 0.2227 0.7878 0.3186
C29_3 C 0.1519(4) 0.79754(19) 0.2059(3)
H21_3 H 0.0915 0.8225 0.2201
C30_3 C 0.4167(4) 0.72228(19) 0.3077(3)
C31_3 C 0.5417(4) 0.7160(2) 0.2919(3)
H22_3 H 0.5713 0.7262 0.2421
C32_3 C 0.6207(5) 0.6948(2) 0.3494(3)
H23_3 H 0.7034 0.6904 0.3371
C33_3 C 0.4646(4) 0.6866(2) 0.4387(3)
H24_3 H 0.4375 0.6767 0.4894
C34_3 C 0.3804(4) 0.7072(2) 0.3832(3)
H25_3 H 0.2980 0.7109 0.3968
N1_2 N 0.5847(3) 0.68012(16) 0.4226(2)
N2_3 N 0.1580(3) 0.78197(15) 0.1289(2)
O9_3 O 0.3550(4) 0.06046(15) 0.0726(2)
N4_2 N 0.4153(3) 0.18012(16) 0.0774(2)
C1_3 C 0.0120(5) 0.7106(2) 0.9421(3)
C2_3 C 0.0110(5) 0.66145(18) 0.8892(3)
C5_3 C 0.0139(4) 0.57172(17) 0.7847(3)
C6_3 C 0.1150(5) 0.58350(19) 0.8365(3)
H3_3 H 0.1840 0.5609 0.8368
C7_3 C 0.1137(5) 0.62804(18) 0.8868(3)
H4_3 H 0.1827 0.6357 0.9196
C8_3 C 0.0175(4) 0.52352(18) 0.7311(2)
C12_3 C 0.0192(4) 0.42654(18) 0.6406(2)
C13_3 C 0.0674(4) 0.42616(17) 0.7192(3)
C14_3 C 0.0637(4) 0.47435(18) 0.7633(3)
H6_3 H 0.0932 0.4740 0.8165
C15_3 C 0.1175(4) 0.37696(18) 0.7605(3)
C16_3 C 0.0612(4) 0.32597(18) 0.7535(3)
C17_3 C 0.1088(4) 0.28154(18) 0.7962(3)
H8_3 H 0.0698 0.2478 0.7916
C18_3 C 0.2142(4) 0.28695(18) 0.8459(3)
C19_3 C 0.2703(4) 0.33670(18) 0.8521(3)
H9_3 H 0.3417 0.3405 0.8842
C20_3 C 0.2228(4) 0.38147(19) 0.8116(3)
H10_3 H 0.2611 0.4152 0.8181
C21_3 C 0.0168(4) 0.37829(18) 0.5850(2)
C35_3 C 0.2692(4) 0.23822(19) 0.8889(2)
O1_3 O 0.1114(3) 0.73580(14) 0.9528(2)
O7_3 O 0.3843(3) 0.23733(14) 0.8975(2)
O10_3 O 0.4392(3) 0.12949(18) 0.8993(2)
H26_3 H 0.423(5) 0.117(2) 0.8468(17)
H27_3 H 0.442(9) 0.1674(10) 0.885(4)
O12_2 O 0.1765(3) 0.06798(13) 0.93037(19)
O13_2 O 0.0837(3) 0.86541(13) 0.94808(19)
C3_3 C 0.9080(5) 0.6489(2) 0.8394(3)
H1_3 H 0.8375 0.6705 0.8417
C4_3 C 0.9094(5) 0.60480(19) 0.7867(3)
H2_3 H 0.8412 0.5975 0.7531
C9_3 C 0.9716(4) 0.52341(18) 0.6518(3)
C10_3 C 0.9251(4) 0.57463(18) 0.6088(3)
C11_3 C 0.9712(4) 0.47505(18) 0.6083(3)
H5_3 H 0.9380 0.4749 0.5560
H7_3 H 0.9914 0.3216 0.7200
O2_3 O 0.9148(4) 0.72565(14) 0.9729(2)
O4_2 O 0.8235(3) 0.56798(13) 0.56963(19)
O5_2 O 0.9163(3) 0.36541(13) 0.55192(19)
C3_4 C 0.0920(5) 0.1489(2) 0.6606(3)
H1_4 H 0.1625 0.1705 0.6583
C4_4 C 0.0906(5) 0.10480(19) 0.7133(3)
H2_4 H 0.1588 0.0975 0.7469
C9_4 C 0.0284(4) 0.02341(18) 0.8482(3)
C10_4 C 0.0749(4) 0.07463(18) 0.8912(3)
O2_4 O 0.0852(4) 0.22565(14) 0.5271(2)
C11_4 C 0.0288(4) 0.97505(18) 0.8917(3)
H5_4 H 0.0620 0.9749 0.9440
H7_4 H 0.0086 0.8216 0.7800
C1_4 C 0.9880(5) 0.2106(2) 0.5579(3)
C2_4 C 0.9890(5) 0.16145(18) 0.6108(3)
C5_4 C 0.9861(4) 0.07172(17) 0.7153(3)
C6_4 C 0.8850(5) 0.08350(19) 0.6635(3)
H3_4 H 0.8160 0.0609 0.6632
C7_4 C 0.8863(5) 0.12804(18) 0.6132(3)
H4_4 H 0.8173 0.1357 0.5804
C8_4 C 0.9825(4) 0.02352(18) 0.7689(2)
C25_4 C 0.7495(5) 0.2488(2) 0.3903(3)
H18_4 H 0.7441 0.2379 0.4437
C26_4 C 0.6614(5) 0.2297(2) 0.3355(3)
H19_4 H 0.5964 0.2081 0.3525
C27_4 C 0.6709(4) 0.24292(19) 0.2553(3)
C28_4 C 0.7674(4) 0.2778(2) 0.2349(3)
H20_4 H 0.7773 0.2878 0.1814
C29_4 C 0.8481(4) 0.29754(19) 0.2941(3)
H21_4 H 0.9085 0.3225 0.2799
C30_4 C 0.5833(4) 0.22228(19) 0.1923(3)
C31_4 C 0.4583(4) 0.2160(2) 0.2081(3)
H22_4 H 0.4287 0.2262 0.2579
C32_4 C 0.3793(5) 0.1948(2) 0.1506(3)
H23_4 H 0.2966 0.1904 0.1629
C33_4 C 0.5354(4) 0.1866(2) 0.0613(3)
H24_4 H 0.5625 0.1767 0.0106
C34_4 C 0.6196(4) 0.2072(2) 0.1168(3)
H25_4 H 0.7020 0.2109 0.1032
N2_4 N 0.8420(3) 0.28197(15) 0.3711(2)
O1_4 O 0.8886(3) 0.23580(14) 0.5472(2)
C12_4 C 0.9808(4) 0.92654(18) 0.8594(2)
C13_4 C 0.9326(4) 0.92616(17) 0.7808(3)
C14_4 C 0.9363(4) 0.97435(18) 0.7367(3)
H6_4 H 0.9068 0.9740 0.6835
C15_4 C 0.8825(4) 0.87696(18) 0.7395(3)
C16_4 C 0.9388(4) 0.82597(18) 0.7465(3)
C17_4 C 0.8912(4) 0.78154(18) 0.7038(3)
H8_4 H 0.9302 0.7478 0.7084
C18_4 C 0.7858(4) 0.78695(18) 0.6541(3)
C19_4 C 0.7297(4) 0.83670(18) 0.6479(3)
H9_4 H 0.6583 0.8405 0.6158
C20_4 C 0.7772(4) 0.88147(19) 0.6884(3)
H10_4 H 0.7389 0.9152 0.6819
C21_4 C 0.9832(4) 0.87829(18) 0.9150(2)
C22_4 C 0.6857(6) 0.5174(3) 0.4065(5)
H11_4 H 0.7444 0.5249 0.3683
C23_2 C 0.6455(11) 0.4613(5) 0.5022(10)
H12_2 H 0.6410 0.4227 0.5117
H13_2 H 0.7061 0.4772 0.5385
H14_2 H 0.5662 0.4775 0.5109
C24_2 C 0.7265(6) 0.4234(3) 0.3838(6)
H15_2 H 0.6952 0.3937 0.4149
H16_2 H 0.6992 0.4193 0.3286
H17_2 H 0.8152 0.4232 0.3871
C35_4 C 0.7308(4) 0.73822(19) 0.6111(2)
N3_2 N 0.6832(6) 0.4718(3) 0.4135(9)
O7_4 O 0.6157(3) 0.73733(14) 0.6025(2)
O9_4 O 0.6450(4) 0.56046(15) 0.4274(2)
O10_4 O 0.5608(3) 0.62949(18) 0.6007(2)
H26_4 H 0.577(5) 0.617(2) 0.6532(17)
H27_4 H 0.558(9) 0.6674(10) 0.615(4)
C23_3 C 0.6455(11) 0.0387(5) 0.0022(10)
H12_3 H 0.6410 0.0773 0.0117
H13_3 H 0.7061 0.0228 0.0385
H14_3 H 0.5662 0.0225 0.0109
C24_3 C 0.7265(6) 0.0766(3) 0.8838(6)
H15_3 H 0.6952 0.1063 0.9149
H16_3 H 0.6992 0.0807 0.8286
H17_3 H 0.8152 0.0768 0.8871
N3_3 N 0.6832(6) 0.0282(3) 0.9135(9)
C24_4 C 0.2735(6) 0.9234(3) 0.1162(6)
H15_4 H 0.3048 0.8937 0.0851
H16_4 H 0.3008 0.9193 0.1714
H17_4 H 0.1848 0.9232 0.1129
N3_4 N 0.3168(6) 0.9718(3) 0.0865(9)
C23_4 C 0.3545(11) 0.9613(5) 0.9978(10)
H12_4 H 0.3590 0.9227 0.9883
H13_4 H 0.2939 0.9772 0.9615
H14_4 H 0.4338 0.9775 0.9891
loop_
_geom_bond_atom_site_label_1
_geom_bond_atom_site_label_2
_geom_bond_site_symmetry_1
_geom_bond_site_symmetry_2
C3 H1 1_555 1_555
C4 C3 1_555 1_555
H2 C4 1_555 1_555
C10 C9 1_555 1_555
C11 C9 1_555 1_555
H5 C11 1_555 1_555
O3 C10 1_555 1_555
O4 C10 1_555 1_555
Cd3 O5 1_555 1_555
Cd5 O3 1_555 1_555
Cd7 O4 1_555 1_555
O11 Cd1 1_555 1_555
O16 Cd1 1_555 1_555
Cd2 O8 1_555 1_555
C1 C2 1_555 1_555
C6 C5 1_555 1_555
H3 C6 1_555 1_555
C7 C2 1_555 1_555
H4 C7 1_555 1_555
C8 C5 1_555 1_555
C13 C12 1_555 1_555
C14 C8 1_555 1_555
H6 C14 1_555 1_555
C15 C13 1_555 1_555
C16 C15 1_555 1_555
C17 C16 1_555 1_555
H8 C17 1_555 1_555
C18 C17 1_555 1_555
C19 C18 1_555 1_555
H9 C19 1_555 1_555
C20 C15 1_555 1_555
H10 C20 1_555 1_555
C21 C12 1_555 1_555
C35 C18 1_555 1_555
O6 C21 1_555 1_555
O7 C35 1_555 1_555
O8 C35 1_555 1_555
O10 Cd2 1_555 1_555
H26 O10 1_555 1_555
H27 O10 1_555 1_555
Cd4_2 O8 1_555 1_555
Cd8 O6 1_555 1_555
O12 Cd2 1_555 1_555
C1 O1 1_555 1_555
C6 C7 1_555 1_555
C13 C14 1_555 1_555
C19 C20 1_555 1_555
O6 Cd3_2 1_555 1_555
Cd1_2 N2 1_555 1_555
C22 H11 1_555 1_555
C25 H18 1_555 1_555
C26 C25 1_555 1_555
H19 C26 1_555 1_555
C27 C26 1_555 1_555
C28 C27 1_555 1_555
H20 C28 1_555 1_555
C29 C28 1_555 1_555
H21 C29 1_555 1_555
C30 C27 1_555 1_555
C31 C30 1_555 1_555
H22 C31 1_555 1_555
C32 C31 1_555 1_555
H23 C32 1_555 1_555
C33 H24 1_555 1_555
C34 C30 1_555 1_555
H25 C34 1_555 1_555
N1 C32 1_555 1_555
N2 C25 1_555 1_555
Cd7 N1 1_555 1_555
C22 O9 1_555 1_555
C29 N2 1_555 1_555
C33 C34 1_555 1_555
C33 N1 1_555 1_555
Cd7 O8_2 1_555 1_555
C13_2 C12_2 1_555 1_555
H6_2 C14_2 1_555 1_555
C15_2 C13_2 1_555 1_555
C16_2 C15_2 1_555 1_555
C17_2 C16_2 1_555 1_555
H8_2 C17_2 1_555 1_555
C18_2 C17_2 1_555 1_555
C19_2 C18_2 1_555 1_555
H9_2 C19_2 1_555 1_555
C20_2 C15_2 1_555 1_555
H10_2 C20_2 1_555 1_555
C21_2 C12_2 1_555 1_555
C22_2 H11_2 1_555 1_555
C23 H12 1_555 1_555
H13 C23 1_555 1_555
H14 C23 1_555 1_555
C24 H15 1_555 1_555
H16 C24 1_555 1_555
H17 C24 1_555 1_555
C35_2 C18_2 1_555 1_555
N3 C22_2 1_555 1_555
O14 C21_2 1_555 1_555
O7_2 C35_2 1_555 1_555
O8_2 C35_2 1_555 1_555
O9_2 Cd7 1_555 1_555
O10_2 Cd7 1_555 1_555
H26_2 O10_2 1_555 1_555
H27_2 O10_2 1_555 1_555
Cd5 O8_2 1_555 1_555
O15_2 Cd7 1_555 1_555
C13_2 C14_2 1_555 1_555
C19_2 C20_2 1_555 1_555
C22_2 O9_2 1_555 1_555
C23 N3 1_555 1_555
C24 N3 1_555 1_555
Cd5 O15_2 1_555 1_555
Cd3 N2_2 1_555 1_555
C1_2 C2_2 1_555 1_555
C6_2 C5_2 1_555 1_555
H3_2 C6_2 1_555 1_555
C7_2 C2_2 1_555 1_555
H4_2 C7_2 1_555 1_555
C8_2 C5_2 1_555 1_555
C25_2 H18_2 1_555 1_555
C26_2 C25_2 1_555 1_555
H19_2 C26_2 1_555 1_555
C27_2 C26_2 1_555 1_555
C28_2 C27_2 1_555 1_555
H20_2 C28_2 1_555 1_555
C29_2 C28_2 1_555 1_555
H21_2 C29_2 1_555 1_555
C30_2 C27_2 1_555 1_555
C31_2 C30_2 1_555 1_555
H22_2 C31_2 1_555 1_555
C32_2 C31_2 1_555 1_555
H23_2 C32_2 1_555 1_555
C33_2 H24_2 1_555 1_555
C34_2 C30_2 1_555 1_555
H25_2 C34_2 1_555 1_555
N4 C32_2 1_555 1_555
N2_2 C25_2 1_555 1_555
O1_2 Cd3 1_555 1_555
C1_2 O1_2 1_555 1_555
C6_2 C7_2 1_555 1_555
C29_2 N2_2 1_555 1_555
C33_2 C34_2 1_555 1_555
C33_2 N4 1_555 1_555
H5_2 C11_2 1_555 1_555
C3_2 H1_2 1_555 1_555
C4_2 C3_2 1_555 1_555
H2_2 C4_2 1_555 1_555
C10_2 C9_2 1_555 1_555
O2_2 Cd3_2 1_555 1_555
O3_2 C10_2 1_555 1_555
O12 C10_2 1_555 1_555
Cd4_2 O3_2 1_555 1_555
O11_2 Cd3_2 1_555 1_555
O16_2 Cd3_2 1_555 1_555
Cd4 N2_3 1_555 1_555
C22_3 H11_3 1_555 1_555
C25_3 H18_3 1_555 1_555
C26_3 C25_3 1_555 1_555
H19_3 C26_3 1_555 1_555
C27_3 C26_3 1_555 1_555
C28_3 C27_3 1_555 1_555
H20_3 C28_3 1_555 1_555
C29_3 C28_3 1_555 1_555
H21_3 C29_3 1_555 1_555
C30_3 C27_3 1_555 1_555
C31_3 C30_3 1_555 1_555
H22_3 C31_3 1_555 1_555
C32_3 C31_3 1_555 1_555
H23_3 C32_3 1_555 1_555
C33_3 H24_3 1_555 1_555
C34_3 C30_3 1_555 1_555
H25_3 C34_3 1_555 1_555
N1_2 C32_3 1_555 1_555
N2_3 C25_3 1_555 1_555
Cd8 N1_2 1_555 1_555
C22_3 O9_3 1_555 1_555
C29_3 N2_3 1_555 1_555
C33_3 C34_3 1_555 1_555
C33_3 N1_2 1_555 1_555
Cd8_2 O16 1_555 1_555
C1_3 C2_3 1_555 1_555
C6_3 C5_3 1_555 1_555
H3_3 C6_3 1_555 1_555
C7_3 C2_3 1_555 1_555
H4_3 C7_3 1_555 1_555
C8_3 C5_3 1_555 1_555
C13_3 C12_3 1_555 1_555
C14_3 C8_3 1_555 1_555
H6_3 C14_3 1_555 1_555
C15_3 C13_3 1_555 1_555
C16_3 C15_3 1_555 1_555
C17_3 C16_3 1_555 1_555
H8_3 C17_3 1_555 1_555
C18_3 C17_3 1_555 1_555
C19_3 C18_3 1_555 1_555
H9_3 C19_3 1_555 1_555
C20_3 C15_3 1_555 1_555
H10_3 C20_3 1_555 1_555
C21_3 C12_3 1_555 1_555
C35_3 C18_3 1_555 1_555
O15_2 C21_3 1_555 1_555
O7_3 C35_3 1_555 1_555
O16 C35_3 1_555 1_555
O10_3 Cd8_2 1_555 1_555
H26_3 O10_3 1_555 1_555
H27_3 O10_3 1_555 1_555
O12_2 Cd8_2 1_555 1_555
C1_3 O1_3 1_555 1_555
C6_3 C7_3 1_555 1_555
C13_3 C14_3 1_555 1_555
C19_3 C20_3 1_555 1_555
C3_3 H1_3 1_555 1_555
C4_3 C3_3 1_555 1_555
H2_3 C4_3 1_555 1_555
C10_3 C9_3 1_555 1_555
C11_3 C9_3 1_555 1_555
H5_3 C11_3 1_555 1_555
O11_2 C10_3 1_555 1_555
O4_2 C10_3 1_555 1_555
Cd5_2 O5_2 1_555 1_555
Cd8 O4_2 1_555 1_555
C3_4 H1_4 1_555 1_555
C4_4 C3_4 1_555 1_555
H2_4 C4_4 1_555 1_555
C10_4 C9_4 1_555 1_555
O2_4 Cd5 1_555 1_555
O11 C10_4 1_555 1_555
O12_2 C10_4 1_555 1_555
H5_4 C11_4 1_555 1_555
Cd5_2 N2_4 1_555 1_555
C1_4 C2_4 1_555 1_555
C6_4 C5_4 1_555 1_555
H3_4 C6_4 1_555 1_555
C7_4 C2_4 1_555 1_555
H4_4 C7_4 1_555 1_555
C8_4 C5_4 1_555 1_555
C25_4 H18_4 1_555 1_555
C26_4 C25_4 1_555 1_555
H19_4 C26_4 1_555 1_555
C27_4 C26_4 1_555 1_555
C28_4 C27_4 1_555 1_555
H20_4 C28_4 1_555 1_555
C29_4 C28_4 1_555 1_555
H21_4 C29_4 1_555 1_555
C30_4 C27_4 1_555 1_555
C31_4 C30_4 1_555 1_555
H22_4 C31_4 1_555 1_555
C32_4 C31_4 1_555 1_555
H23_4 C32_4 1_555 1_555
C33_4 H24_4 1_555 1_555
C34_4 C30_4 1_555 1_555
H25_4 C34_4 1_555 1_555
N4_2 C32_4 1_555 1_555
N2_4 C25_4 1_555 1_555
O1_4 Cd5_2 1_555 1_555
C1_4 O1_4 1_555 1_555
C6_4 C7_4 1_555 1_555
C29_4 N2_4 1_555 1_555
C33_4 C34_4 1_555 1_555
C33_4 N4_2 1_555 1_555
Cd8 O16_2 1_555 1_555
C13_4 C12_4 1_555 1_555
H6_4 C14_4 1_555 1_555
C15_4 C13_4 1_555 1_555
C16_4 C15_4 1_555 1_555
C17_4 C16_4 1_555 1_555
H8_4 C17_4 1_555 1_555
C18_4 C17_4 1_555 1_555
C19_4 C18_4 1_555 1_555
H9_4 C19_4 1_555 1_555
C20_4 C15_4 1_555 1_555
H10_4 C20_4 1_555 1_555
C21_4 C12_4 1_555 1_555
C22_4 H11_4 1_555 1_555
C23_2 H12_2 1_555 1_555
H13_2 C23_2 1_555 1_555
H14_2 C23_2 1_555 1_555
C24_2 H15_2 1_555 1_555
H16_2 C24_2 1_555 1_555
H17_2 C24_2 1_555 1_555
C35_4 C18_4 1_555 1_555
N3_2 C22_4 1_555 1_555
O15 C21_4 1_555 1_555
O7_4 C35_4 1_555 1_555
O16_2 C35_4 1_555 1_555
O9_4 Cd8 1_555 1_555
O10_4 Cd8 1_555 1_555
H26_4 O10_4 1_555 1_555
H27_4 O10_4 1_555 1_555
C13_4 C14_4 1_555 1_555
C19_4 C20_4 1_555 1_555
C22_4 O9_4 1_555 1_555
C23_2 N3_2 1_555 1_555
C24_2 N3_2 1_555 1_555
C23_3 H12_3 1_555 1_555
H13_3 C23_3 1_555 1_555
H14_3 C23_3 1_555 1_555
C24_3 H15_3 1_555 1_555
H16_3 C24_3 1_555 1_555
H17_3 C24_3 1_555 1_555
C24_3 N3_3 1_555 1_555
C24_4 H15_4 1_555 1_555
H16_4 C24_4 1_555 1_555
H17_4 C24_4 1_555 1_555
C24_4 N3_4 1_555 1_555
C23_4 H12_4 1_555 1_555
H13_4 C23_4 1_555 1_555
H14_4 C23_4 1_555 1_555

#END
