
###############################################################################
#
# This file contains modified crystal structure data generated from the
# MOF subset of the Cambridge Structural Database (CSD) v543 
# hosted by the Cambridge Crystallographic Data Centre (CCDC).
#
# This work is licensed under the Creative Commons
# Attribution-NonCommercial-ShareAlike 4.0 International License.
# To view a copy of this license, visit
# http://creativecommons.org/licenses/by-nc-sa/4.0/
# or send a letter to
# Creative Commons, PO Box 1866, Mountain View, CA 94042, USA.
#
# CIF created using the CSD Python API on 29 September 2022
# The structure has been converted into the P1 space group
# The structure has a 3D framework
# The original CSD entry LAHYOL is in the triclinic crystal system
# The framework has been calculated to contain at least 10.0% void space
# The void calculation uses a probe of radius 1.32A, grid spacing 0.4
# H atom positions have been added when not included in the experimental data
#
###############################################################################

data_LAHYOL
_chemical_formula_moiety         '(C210 H156 Ba10 O50)n'
_symmetry_cell_setting           triclinic
_symmetry_space_group_name_H-M   'P 1'
_symmetry_Int_Tables_number      1
_space_group_name_Hall           'P 1'
loop_
_symmetry_equiv_pos_site_id
_symmetry_equiv_pos_as_xyz
1 x,y,z
_cell_length_a                   10.8177(3)
_cell_length_b                   19.8483(6)
_cell_length_c                   25.8687(5)
_cell_angle_alpha                101.117(2)
_cell_angle_beta                 101.1081(18)
_cell_angle_gamma                94.827(2)
_cell_volume                     5305.41
loop_
_atom_site_label
_atom_site_type_symbol
_atom_site_fract_x
_atom_site_fract_y
_atom_site_fract_z
Ba5 Ba 0.14841(10) 0.19282(6) 0.21056(4)
O24 O 0.0920(15) 0.1514(9) 0.0998(7)
H70 H 0.0995 0.1048 0.0792
H71 H 0.0610 0.1808 0.0742
O25 O 0.0021(15) 0.0625(8) 0.1778(7)
C103 C 0.046(2) -0.0000(12) 0.1543(10)
H73 H 0.0812 0.0081 0.1240
H77 H 0.1693 0.0052 0.2256
Ba8 Ba 0.17347(11) 0.81106(6) 0.71053(4)
Ba16 Ba 0.06985(12) 0.63601(6) 0.77183(5)
O28 O 0.4021(15) 0.1795(8) 0.2194(6)
O30 O 0.2880(16) 0.2892(8) 0.1609(7)
O31 O 0.0492(15) 0.1459(8) 0.2912(6)
O34 O 0.1019(16) 0.3170(8) 0.1752(7)
O37 O 0.2484(15) 0.1195(8) 0.3015(6)
O39 O 0.0640(15) 0.2941(8) 0.2942(7)
O44 O 0.2692(15) 0.2802(8) 0.3088(7)
O21 O 0.1501(17) 0.4565(9) 0.2707(7)
H3 H 0.2340 0.4448 0.2909
H4 H 0.1601 0.5077 0.2688
C10 C 0.025(2) 0.7722(13) 0.1652(10)
H6 H 0.0845 0.7924 0.1496
H7 H 0.0329 0.5192 0.1982
C62 C 0.021(2) 0.7000(13) 0.1680(10)
H36 H 0.0739 0.6723 0.1515
C103_2 C 0.046(2) 1.0000(12) 0.1543(10)
C104 C 0.144(2) 0.9725(13) 0.1918(10)
H75 H 0.2162 0.9653 0.1760
H76 H 0.1081 0.9293 0.1977
Ba1 Ba 0.82653(11) 0.18894(6) 0.28947(4)
Ba2 Ba 0.53567(11) 0.29864(6) 0.19253(5)
Ba3 Ba 0.46462(12) 0.20723(7) 0.34293(5)
O1 O 0.9233(15) 0.2158(8) 0.3974(6)
O2 O 0.8936(14) 0.2153(8) 0.1937(6)
O5 O 0.7915(15) 0.0626(8) 0.3174(6)
O6 O 0.6823(15) 0.2002(8) 0.1815(6)
O7 O 0.8082(15) 0.0455(8) 0.2299(7)
O9 O 0.7165(15) 0.2252(8) 0.3809(6)
C2 C 0.785(2) 0.1891(11) 0.1663(9)
O10 O 0.5706(15) 0.3085(8) 0.3009(6)
O11 O 0.7713(15) 0.3292(8) 0.2905(6)
O15 O 0.9360(15) 0.7059(8) 0.7058(7)
C4 C 0.889(2) 0.1889(13) 0.6767(10)
H1 H 0.9077 0.2100 0.7132
C5 C 0.880(2) 0.1376(12) 0.4767(9)
H2 H 0.9552 0.1368 0.4647
O19 O 0.7308(15) 0.7198(8) 0.6912(7)
C6 C 0.817(2) 0.2086(12) 0.4088(10)
C7 C 0.827(2) 0.6934(13) 0.6769(10)
C9 C 0.881(2) 0.6788(13) 0.4961(10)
H5 H 0.8944 0.7105 0.5288
C16 C 0.834(2) 0.0098(13) 0.5899(10)
C17 C 0.777(2) 0.1410(11) 0.1125(9)
H11 H 0.8499 0.1239 0.1047
C20 C 0.844(2) 0.0237(13) 0.4974(10)
H12 H 0.7215 0.0060 0.1031
C22 C 0.896(2) 0.2268(13) 0.6438(10)
H13 H 0.9059 0.2746 0.6560
C24 C 0.863(2) 0.0950(13) 0.5149(10)
C27 C 0.798(2) 0.0251(12) 0.2726(10)
C29 C 0.682(2) 0.3390(12) 0.3169(10)
C35 C 0.798(2) 0.1779(12) 0.4568(10)
H18 H 0.7291 0.1874 0.4725
C36 C 0.852(2) 0.6544(13) 0.3992(10)
H19 H 0.8464 0.6713 0.3678
C39 C 0.853(2) 0.4829(13) 0.5881(10)
H21 H 0.8655 0.5134 0.6213
C49 C 0.865(2) 0.6058(13) 0.4954(10)
C52 C 0.799(2) 0.6477(13) 0.6219(10)
H31 H 0.7150 0.6309 0.6057
C55 C 0.853(2) 0.0836(13) 0.6088(10)
C57 C 0.877(2) 0.7021(13) 0.4498(10)
H33 H 0.8905 0.7494 0.4512
C59 C 0.656(2) 0.0725(11) 0.0230(9)
H35 H 0.8416 0.0176 0.4158
C63 C 0.819(2) 0.3895(13) 0.4888(10)
H37 H 0.8127 0.3577 0.4566
C64 C 0.864(2) 0.1256(13) 0.5683(10)
C68 C 0.865(2) 0.5814(13) 0.5428(10)
C71 C 0.849(2) 0.5078(13) 0.5404(10)
C72 C 0.677(2) 0.0040(11) 0.0215(9)
C74 C 0.856(2) 0.1163(13) 0.6628(10)
H42 H 0.8376 0.0914 0.6878
C76 C 0.669(2) 0.1220(11) 0.0757(9)
H44 H 0.5964 0.1406 0.0833
C78 C 0.841(2) 0.5574(13) 0.4432(10)
H48 H 0.5902 0.1964 0.0100
C83 C 0.825(2) 0.4873(13) 0.4411(10)
C85 C 0.829(2) 0.4614(13) 0.4883(10)
C87 C 0.835(2) 0.5843(13) 0.3955(10)
H51 H 0.8209 0.5542 0.3620
C88 C 0.840(2) 0.4141(13) 0.5846(10)
H52 H 0.8434 0.3974 0.6160
C91 C 0.890(2) 0.6295(13) 0.5944(10)
H55 H 0.9738 0.6491 0.6097
C93 C 0.709(2) 0.3879(12) 0.3693(10)
H57 H 0.6524 0.3836 0.3915
C95 C 0.807(2) 0.4378(12) 0.3887(10)
H59 H 0.8676 0.4418 0.3680
C96 C 0.820(2) 0.3661(13) 0.5344(10)
H60 H 0.8072 0.3188 0.5330
C98 C 0.890(2) 0.2004(13) 0.5903(10)
H62 H 0.9017 0.2302 0.5676
O23 O 0.5694(15) 0.0746(8) 0.3597(7)
H65 H 0.6499(18) 0.076(2) 0.367(7)
C101 C 0.515(2) 0.0062(12) 0.3451(10)
H68 H 0.3697 0.0130 0.2793
H72 H 0.929(10) 0.053(3) 0.184(9)
Ba13 Ba 0.53538(12) 0.79277(7) 0.65707(5)
Ba14 Ba 0.93015(12) 0.36399(6) 0.22817(5)
O35 O 0.5886(16) 0.4403(8) 0.2227(7)
O40 O 0.5536(16) 0.3056(9) 0.0882(7)
O41 O 0.5709(16) 0.1397(8) 0.2624(7)
O42 O 0.7388(17) 0.3383(9) 0.1462(7)
Ba19 Ba 0.85159(10) 0.80718(6) 0.78944(4)
O8 O 0.9508(15) 0.8541(8) 0.7088(6)
O14 O 0.7516(15) 0.8805(8) 0.6985(6)
C3 C 0.856(2) 0.8820(12) 0.6867(9)
O20 O 0.8009(17) 0.4727(9) 0.2488(7)
O22 O 0.9693(17) 0.4848(9) 0.1846(7)
H8 H 0.9197 0.4937 0.1555
C15 C 0.666(2) 0.5279(13) 0.0193(10)
C18 C 0.663(2) 0.3401(13) 0.1032(11)
C21 C 0.708(2) 0.9769(11) 0.0693(9)
C25 C 0.787(2) 0.8795(13) 0.4605(10)
H15 H 0.7668 0.8320 0.4478
C28 C 0.672(2) 0.7933(13) 0.2547(10)
C30 C 0.693(3) 0.4843(14) 0.2347(11)
C31 C 0.943(2) 0.8092(13) 0.1849(10)
H16 H 0.9446 0.8551 0.1816
C37 C 0.850(2) 0.7111(13) 0.2146(10)
C38 C 0.799(2) 0.9496(12) 0.2726(10)
H20 H 0.8229 0.9373 0.3057
C40 C 0.704(2) 0.8644(12) 0.0148(9)
H22 H 0.7144 0.8180 0.0130
C41 C 0.718(2) 0.9086(11) 0.0647(9)
H23 H 0.7339 0.8908 0.0957
C42 C 0.767(2) 0.8985(12) 0.2284(10)
H24 H 0.7454 0.9097 0.1948
C43 C 0.632(2) 0.4031(13) 0.0273(10)
H25 H 0.5577 0.3727 0.0131
C45 C 0.763(2) 0.6820(13) 0.2405(10)
C46 C 0.487(2) 0.8001(13) 0.2958(10)
H27 H 0.4230 0.8248 0.3062
C48 C 0.651(2) 0.5525(13) 0.0750(10)
H29 H 0.6356 0.5204 0.0956
C50 C 0.824(2) 0.9807(13) 0.5345(10)
C54 C 0.705(2) 0.6509(13) 0.0146(10)
C58 C 0.765(2) 0.6083(13) 0.2456(10)
H34 H 0.8426 0.5971 0.2624
C60 C 0.851(2) 0.7829(13) 0.2109(10)
C61 C 0.832(2) 0.9906(13) 0.4408(10)
C65 C 0.765(2) 0.8235(13) 0.2316(10)
C67 C 0.883(2) 0.9225(12) 0.6446(9)
H39 H 0.9508 0.9131 0.6283
C69 C 0.807(2) 0.9221(13) 0.4249(10)
H40 H 0.8035 0.9019 0.3890
C70 C 0.941(2) 0.6737(13) 0.1950(10)
H41 H 0.9461 0.6291 0.2007
C73 C 0.671(2) 0.7218(13) 0.2597(10)
C75 C 0.661(2) 0.6201(13) 0.0964(11)
H43 H 0.6478 0.6344 0.1311
C77 C 0.816(2) 0.9683(12) 0.6311(9)
H45 H 0.7501 0.9770 0.6486
C79 C 0.671(3) 0.5576(13) 0.2292(10)
H46 H 0.5906 0.5666 0.2141
C80 C 0.691(2) 0.6708(13) 0.0665(10)
H47 H 0.7009 0.7177 0.0826
C84 C 0.576(2) 0.8303(13) 0.2724(10)
H49 H 0.5729 0.8757 0.2682
C89 C 0.796(2) 0.9078(13) 0.5143(10)
H53 H 0.7844 0.8790 0.5378
C92 C 0.492(2) 0.7324(13) 0.3038(10)
H56 H 0.4327 0.7121 0.3196
C94 C 0.587(2) 0.6962(13) 0.2880(10)
H58 H 0.5945 0.6532 0.2966
C97 C 0.703(2) 0.3944(13) 0.0733(10)
H61 H 0.7792 0.4227 0.0878
H66 H 0.5212 0.9754 0.3682
C102 C 0.440(2) 0.9870(13) 0.2837(10)
H67 H 0.4965 0.9979 0.2611
H69 H 0.4103 0.9384 0.2738
H74 H 0.9731 0.9646 0.1402
H78 H 0.601011 0.990941 0.332673
O3 O 0.5979(15) 0.8205(8) 0.7806(6)
O4 O 0.7120(16) 0.7108(8) 0.8391(7)
C1 C 0.514(2) 0.8651(13) 0.7785(10)
O12 O 0.8981(16) 0.6830(8) 0.8248(7)
O17 O 0.4291(16) 0.8603(8) 0.7376(7)
C8 C 0.659(2) 0.4550(13) 0.9972(10)
C11 C 0.675(2) 0.4595(13) 0.8551(10)
H9 H 0.6792 0.4909 0.8329
C12 C 0.616(2) 0.9309(11) 0.8698(9)
H10 H 0.6840 0.9057 0.8662
C13 C 0.628(2) 0.9823(11) 0.9209(9)
C14 C 0.802(2) 0.6734(12) 0.8439(10)
C19 C 0.688(2) 0.5779(13) 0.9884(10)
C23 C 0.704(2) 0.6101(13) 0.9037(10)
H14 H 0.6475 0.6426 0.9056
C32 C 0.521(2) 0.9188(11) 0.8307(9)
H17 H 0.4523 0.9434 0.8338
C34 C 0.678(2) 0.4841(13) 0.9109(10)
C44 C 0.676(2) 0.8876(11) 0.9694(9)
H26 H 0.6674 0.8566 0.9366
C47 C 0.792(2) 0.6168(13) 0.8725(10)
H28 H 0.8478 0.5838 0.8693
C53 C 0.669(2) 0.4357(13) 0.9433(10)
H32 H 0.7254 0.6843 0.9958
C56 C 0.660(2) 0.9570(11) 0.9694(9)
C66 C 0.666(2) 0.3887(13) 0.8334(11)
H38 H 0.6622 0.3732 0.7967
C82 C 0.694(2) 0.5562(13) 0.9338(10)
C99 C 0.667(2) 0.3625(13) 0.9195(10)
H63 H 0.6686 0.3302 0.9412
C100 C 0.664(2) 0.3412(13) 0.8666(10)
H64 H 0.6600 0.2943 0.8520
Ba10 Ba 0.46433(11) 0.70136(6) 0.80747(5)
C1_2 C 0.486(2) 0.1349(13) 0.2215(10)
C8_2 C 0.341(2) 0.5450(13) 0.0028(10)
C11_2 C 0.325(2) 0.5405(13) 0.1449(10)
H9_2 H 0.3208 0.5091 0.1671
C12_2 C 0.384(2) 0.0691(11) 0.1302(9)
H10_2 H 0.3160 0.0943 0.1338
C13_2 C 0.372(2) 0.0177(11) 0.0791(9)
C14_2 C 0.198(2) 0.3266(12) 0.1561(10)
C19_2 C 0.312(2) 0.4221(13) 0.0116(10)
C23_2 C 0.296(2) 0.3899(13) 0.0963(10)
H14_2 H 0.3525 0.3574 0.0944
C32_2 C 0.479(2) 0.0812(11) 0.1693(9)
H17_2 H 0.5477 0.0566 0.1662
C34_2 C 0.322(2) 0.5159(13) 0.0891(10)
C44_2 C 0.324(2) 0.1124(11) 0.0306(9)
H26_2 H 0.3326 0.1434 0.0634
C47_2 C 0.208(2) 0.3832(13) 0.1275(10)
H28_2 H 0.1522 0.4162 0.1307
C53_2 C 0.331(2) 0.5643(13) 0.0567(10)
H32_2 H 0.2746 0.3157 0.0042
C56_2 C 0.340(2) 0.0430(11) 0.0306(9)
C66_2 C 0.334(2) 0.6113(13) 0.1666(11)
H38_2 H 0.3378 0.6268 0.2033
C82_2 C 0.306(2) 0.4438(13) 0.0662(10)
C99_2 C 0.333(2) 0.6375(13) 0.0805(10)
H63_2 H 0.3314 0.6698 0.0588
C100_2 C 0.336(2) 0.6588(13) 0.1334(10)
H64_2 H 0.3400 0.7057 0.1480
O13 O 0.4114(16) 0.5597(8) 0.7773(7)
C3_2 C 0.144(2) 0.1180(12) 0.3133(9)
O16 O 0.4464(16) 0.6944(9) 0.9118(7)
O18 O 0.2612(17) 0.6617(9) 0.8538(7)
O20_2 O 0.1991(17) 0.5273(9) 0.7512(7)
O22_2 O 0.0307(17) 0.5152(9) 0.8154(7)
H8_2 H 0.0803 0.5063 0.8445
C15_2 C 0.334(2) 0.4721(13) 0.9807(10)
C18_2 C 0.337(2) 0.6599(13) 0.8968(11)
C21_2 C 0.292(2) 0.0231(11) 0.9307(9)
C25_2 C 0.213(2) 0.1205(13) 0.5395(10)
H15_2 H 0.2332 0.1680 0.5522
C28_2 C 0.328(2) 0.2067(13) 0.7453(10)
C30_2 C 0.307(3) 0.5157(14) 0.7653(11)
C31_2 C 0.057(2) 0.1908(13) 0.8151(10)
H16_2 H 0.0554 0.1449 0.8184
C37_2 C 0.150(2) 0.2889(13) 0.7854(10)
C38_2 C 0.201(2) 0.0504(12) 0.7274(10)
H20_2 H 0.1771 0.0627 0.6943
C40_2 C 0.296(2) 0.1356(12) 0.9852(9)
H22_2 H 0.2856 0.1820 0.9870
C41_2 C 0.282(2) 0.0914(11) 0.9353(9)
H23_2 H 0.2661 0.1092 0.9043
C42_2 C 0.233(2) 0.1015(12) 0.7716(10)
H24_2 H 0.2546 0.0903 0.8052
C43_2 C 0.368(2) 0.5969(13) 0.9727(10)
H25_2 H 0.4423 0.6273 0.9869
C45_2 C 0.237(2) 0.3180(13) 0.7595(10)
C46_2 C 0.513(2) 0.1999(13) 0.7042(10)
H27_2 H 0.5770 0.1752 0.6938
C48_2 C 0.349(2) 0.4475(13) 0.9250(10)
H29_2 H 0.3644 0.4796 0.9044
C50_2 C 0.176(2) 0.0193(13) 0.4655(10)
C54_2 C 0.295(2) 0.3491(13) 0.9854(10)
C58_2 C 0.235(2) 0.3917(13) 0.7544(10)
H34_2 H 0.1574 0.4029 0.7376
C60_2 C 0.149(2) 0.2171(13) 0.7891(10)
C61_2 C 0.168(2) 0.0094(13) 0.5592(10)
C65_2 C 0.235(2) 0.1765(13) 0.7684(10)
C67_2 C 0.117(2) 0.0775(12) 0.3554(9)
H39_2 H 0.0492 0.0869 0.3717
C69_2 C 0.193(2) 0.0779(13) 0.5751(10)
H40_2 H 0.1965 0.0981 0.6110
C70_2 C 0.059(2) 0.3263(13) 0.8050(10)
H41_2 H 0.0539 0.3709 0.7993
C73_2 C 0.329(2) 0.2782(13) 0.7403(10)
C75_2 C 0.339(2) 0.3799(13) 0.9036(11)
H43_2 H 0.3522 0.3656 0.8689
C77_2 C 0.184(2) 0.0317(12) 0.3689(9)
H45_2 H 0.2499 0.0230 0.3514
C79_2 C 0.329(3) 0.4424(13) 0.7708(10)
H46_2 H 0.4094 0.4334 0.7859
C80_2 C 0.309(2) 0.3292(13) 0.9335(10)
H47_2 H 0.2991 0.2823 0.9174
C84_2 C 0.424(2) 0.1697(13) 0.7276(10)
H49_2 H 0.4271 0.1243 0.7318
C89_2 C 0.204(2) 0.0922(13) 0.4857(10)
H53_2 H 0.2156 0.1210 0.4622
C92_2 C 0.508(2) 0.2676(13) 0.6962(10)
H56_2 H 0.5673 0.2879 0.6804
C94_2 C 0.413(2) 0.3038(13) 0.7120(10)
H58_2 H 0.4055 0.3468 0.7034
C97_2 C 0.297(2) 0.6056(13) 0.9267(10)
H61_2 H 0.2208 0.5773 0.9122
H66_2 H 0.4788 0.0246 0.6318
C102_2 C 0.560(2) 0.0130(13) 0.7163(10)
H67_2 H 0.5035 0.0021 0.7389
H69_2 H 0.5897 0.0616 0.7262
H74_2 H 0.0269 0.0354 0.8598
O26 O 0.1064(14) 0.7847(8) 0.8063(6)
O32 O 0.2287(15) 0.6708(8) 0.7095(6)
H78_2 H 0.398989 0.00905906 0.667327
O1_2 O 0.0767(15) 0.7842(8) 0.6026(6)
O5_2 O 0.2085(15) 0.9374(8) 0.6826(6)
O6_2 O 0.3177(15) 0.7998(8) 0.8185(6)
O7_2 O 0.1918(15) 0.9545(8) 0.7701(7)
O9_2 O 0.2835(15) 0.7748(8) 0.6191(6)
C2_2 C 0.215(2) 0.8109(11) 0.8337(9)
O10_2 O 0.4294(15) 0.6915(8) 0.6991(6)
C4_2 C 0.111(2) 0.8111(13) 0.3233(10)
H1_2 H 0.0923 0.7900 0.2868
C5_2 C 0.120(2) 0.8624(12) 0.5233(9)
H2_2 H 0.0448 0.8632 0.5353
C6_2 C 0.183(2) 0.7914(12) 0.5912(10)
C7_2 C 0.173(2) 0.3066(13) 0.3231(10)
C9_2 C 0.119(2) 0.3212(13) 0.5039(10)
H5_2 H 0.1056 0.2895 0.4712
C16_2 C 0.166(2) 0.9902(13) 0.4101(10)
C17_2 C 0.223(2) 0.8590(11) 0.8875(9)
H11_2 H 0.1501 0.8761 0.8953
C20_2 C 0.156(2) 0.9763(13) 0.5026(10)
H12_2 H 0.2785 0.9940 0.8969
C22_2 C 0.104(2) 0.7732(13) 0.3562(10)
H13_2 H 0.0941 0.7254 0.3440
C24_2 C 0.137(2) 0.9050(13) 0.4851(10)
C27_2 C 0.202(2) 0.9749(12) 0.7274(10)
C29_2 C 0.318(2) 0.6610(12) 0.6831(10)
C35_2 C 0.202(2) 0.8221(12) 0.5432(10)
H18_2 H 0.2709 0.8126 0.5275
C36_2 C 0.148(2) 0.3456(13) 0.6008(10)
H19_2 H 0.1536 0.3287 0.6322
C39_2 C 0.147(2) 0.5171(13) 0.4119(10)
H21_2 H 0.1345 0.4866 0.3787
C49_2 C 0.135(2) 0.3942(13) 0.5046(10)
C52_2 C 0.201(2) 0.3523(13) 0.3781(10)
H31_2 H 0.2850 0.3691 0.3943
C55_2 C 0.147(2) 0.9164(13) 0.3912(10)
C57_2 C 0.123(2) 0.2979(13) 0.5502(10)
H33_2 H 0.1095 0.2506 0.5488
C59_2 C 0.344(2) 0.9275(11) 0.9770(9)
H35_2 H 0.1584 0.9824 0.5842
C63_2 C 0.181(2) 0.6105(13) 0.5112(10)
H37_2 H 0.1873 0.6423 0.5434
C64_2 C 0.136(2) 0.8744(13) 0.4317(10)
C68_2 C 0.135(2) 0.4186(13) 0.4572(10)
C71_2 C 0.151(2) 0.4922(13) 0.4596(10)
C72_2 C 0.323(2) 0.9960(11) 0.9785(9)
C74_2 C 0.144(2) 0.8837(13) 0.3372(10)
H42_2 H 0.1624 0.9086 0.3122
C76_2 C 0.331(2) 0.8780(11) 0.9243(9)
H44_2 H 0.4036 0.8594 0.9167
C78_2 C 0.159(2) 0.4426(13) 0.5568(10)
H48_2 H 0.4098 0.8036 0.9900
C83_2 C 0.175(2) 0.5127(13) 0.5589(10)
C85_2 C 0.171(2) 0.5386(13) 0.5117(10)
C87_2 C 0.165(2) 0.4157(13) 0.6045(10)
H51_2 H 0.1791 0.4458 0.6380
C88_2 C 0.160(2) 0.5859(13) 0.4154(10)
H52_2 H 0.1566 0.6026 0.3840
C91_2 C 0.110(2) 0.3705(13) 0.4056(10)
H55_2 H 0.0262 0.3509 0.3903
C93_2 C 0.291(2) 0.6121(12) 0.6307(10)
H57_2 H 0.3476 0.6164 0.6085
C95_2 C 0.193(2) 0.5622(12) 0.6113(10)
H59_2 H 0.1324 0.5582 0.6320
C96_2 C 0.180(2) 0.6339(13) 0.4656(10)
H60_2 H 0.1928 0.6812 0.4670
C98_2 C 0.110(2) 0.7996(13) 0.4097(10)
H62_2 H 0.0983 0.7698 0.4324
O23_2 O 0.4306(15) 0.9254(8) 0.6403(7)
H65_2 H 0.3501(18) 0.924(2) 0.633(7)
C101_2 C 0.485(2) 0.9938(12) 0.6549(10)
H68_2 H 0.6303 0.9870 0.7207
H72_2 H 0.071(10) 0.947(3) 0.816(9)
O21_2 O 0.8499(17) 0.5435(9) 0.7293(7)
H3_2 H 0.7660 0.5552 0.7091
H4_2 H 0.8399 0.4923 0.7312
C10_2 C 0.975(2) 0.2278(13) 0.8348(10)
H6_2 H 0.9155 0.2076 0.8504
H7_2 H 0.9671 0.4808 0.8018
C62_2 C 0.979(2) 0.3000(13) 0.8320(10)
H36_2 H 0.9261 0.3277 0.8485
C103_3 C 0.954(2) 0.0000(12) 0.8457(10)
C104_2 C 0.856(2) 0.0275(13) 0.8082(10)
H75_2 H 0.7838 0.0347 0.8240
H76_2 H 0.8919 0.0707 0.8023
O24_2 O 0.9080(15) 0.8486(9) 0.9002(7)
H70_2 H 0.9005 0.8952 0.9208
H71_2 H 0.9390 0.8192 0.9258
O25_2 O 0.9979(15) 0.9375(8) 0.8222(7)
C103_4 C 0.954(2) 1.0000(12) 0.8457(10)
H73_2 H 0.9188 0.9919 0.8760
H77_2 H 0.8307 0.9948 0.7744
C26 C 0.618(2) 0.0968(11) 0.9765(9)
C33 C 0.608(2) 0.0507(11) 0.9239(9)
C51 C 0.577(2) 0.0802(11) 0.8765(9)
H30 H 0.5730 0.0523 0.8428
C81 C 0.588(2) 0.1668(11) 0.9771(9)
C86 C 0.554(2) 0.1458(11) 0.8795(9)
H50 H 0.5362 0.1628 0.8481
C90 C 0.557(2) 0.1901(12) 0.9304(9)
H54 H 0.5370 0.2351 0.9318
C26_2 C 0.382(2) 0.9032(11) 0.0235(9)
C33_2 C 0.392(2) 0.9493(11) 0.0761(9)
C51_2 C 0.423(2) 0.9198(11) 0.1235(9)
H30_2 H 0.4270 0.9477 0.1572
C81_2 C 0.412(2) 0.8332(11) 0.0229(9)
C86_2 C 0.446(2) 0.8542(11) 0.1205(9)
H50_2 H 0.4638 0.8372 0.1519
C90_2 C 0.443(2) 0.8099(12) 0.0696(9)
H54_2 H 0.4630 0.7649 0.0682
loop_
_geom_bond_atom_site_label_1
_geom_bond_atom_site_label_2
_geom_bond_site_symmetry_1
_geom_bond_site_symmetry_2
O24 Ba5 1_555 1_555
H70 O24 1_555 1_555
H71 O24 1_555 1_555
O25 Ba5 1_555 1_555
C103 O25 1_555 1_555
H73 C103 1_555 1_555
O28 Ba5 1_555 1_555
O30 Ba5 1_555 1_555
O34 Ba5 1_555 1_555
O37 Ba5 1_555 1_555
O44 Ba5 1_555 1_555
Ba5 O31 1_555 1_555
Ba5 O39 1_555 1_555
H3 O21 1_555 1_555
H4 O21 1_555 1_555
C10 H6 1_555 1_555
C62 C10 1_555 1_555
H36 C62 1_555 1_555
C104 C103_2 1_555 1_555
H75 C104 1_555 1_555
H76 C104 1_555 1_555
Ba1 O1 1_555 1_555
Ba2 O6 1_555 1_555
Ba3 O9 1_555 1_555
O1 C6 1_555 1_555
O2 Ba1 1_555 1_555
O5 Ba1 1_555 1_555
O6 Ba1 1_555 1_555
O7 Ba1 1_555 1_555
O9 Ba1 1_555 1_555
C2 O2 1_555 1_555
O10 Ba2 1_555 1_555
O11 Ba1 1_555 1_555
O15 C7 1_555 1_555
C4 H1 1_555 1_555
C5 H2 1_555 1_555
O19 C7 1_555 1_555
C6 O9 1_555 1_555
C7 C52 1_555 1_555
C9 H5 1_555 1_555
C17 C2 1_555 1_555
H11 C17 1_555 1_555
C20 C24 1_555 1_555
C22 C4 1_555 1_555
H13 C22 1_555 1_555
C24 C5 1_555 1_555
C27 O5 1_555 1_555
C29 O10 1_555 1_555
C35 C5 1_555 1_555
H18 C35 1_555 1_555
C36 H19 1_555 1_555
C39 H21 1_555 1_555
C49 C9 1_555 1_555
C52 H31 1_555 1_555
C55 C16 1_555 1_555
C57 C9 1_555 1_555
H33 C57 1_555 1_555
C63 H37 1_555 1_555
C64 C24 1_555 1_555
C68 C49 1_555 1_555
C71 C39 1_555 1_555
C74 C4 1_555 1_555
H42 C74 1_555 1_555
C76 C17 1_555 1_555
H44 C76 1_555 1_555
C78 C49 1_555 1_555
C83 C78 1_555 1_555
C85 C63 1_555 1_555
C87 C36 1_555 1_555
H51 C87 1_555 1_555
C88 C39 1_555 1_555
H52 C88 1_555 1_555
C91 C52 1_555 1_555
H55 C91 1_555 1_555
C93 C29 1_555 1_555
H57 C93 1_555 1_555
C95 C83 1_555 1_555
H59 C95 1_555 1_555
C96 C63 1_555 1_555
H60 C96 1_555 1_555
C98 C22 1_555 1_555
H62 C98 1_555 1_555
O23 Ba3 1_555 1_555
H65 O23 1_555 1_555
C101 O23 1_555 1_555
Ba13 O19 1_555 1_555
Ba14 O2 1_555 1_555
O28 Ba2 1_555 1_555
O30 Ba2 1_555 1_555
O35 Ba2 1_555 1_555
O37 Ba3 1_555 1_555
O40 Ba2 1_555 1_555
O41 Ba1 1_555 1_555
O42 Ba2 1_555 1_555
O44 Ba3 1_555 1_555
Ba19 O15 1_555 1_555
Ba2 O11 1_555 1_555
Ba3 O10 1_555 1_555
Ba3 O28 1_555 1_555
Ba3 O41 1_555 1_555
O6 C2 1_555 1_555
O7 C27 1_555 1_555
O11 C29 1_555 1_555
O11 Ba14 1_555 1_555
O19 Ba19 1_555 1_555
C6 C35 1_555 1_555
C36 C57 1_555 1_555
C55 C64 1_555 1_555
C55 C74 1_555 1_555
C59 C72 1_555 1_555
C59 C76 1_555 1_555
C64 C98 1_555 1_555
C68 C71 1_555 1_555
C68 C91 1_555 1_555
C71 C85 1_555 1_555
C78 C87 1_555 1_555
C83 C85 1_555 1_555
C88 C96 1_555 1_555
C93 C95 1_555 1_555
Ba14 O42 1_555 1_555
O8 C3 1_555 1_555
O35 C30 1_555 1_555
O14 C3 1_555 1_555
C3 C67 1_555 1_555
O40 C18 1_555 1_555
O42 C18 1_555 1_555
O20 Ba14 1_555 1_555
O22 Ba14 1_555 1_555
H8 O22 1_555 1_555
C18 C97 1_555 1_555
C25 H15 1_555 1_555
C28 C65 1_555 1_555
C30 O20 1_555 1_555
H16 C31 1_555 1_555
C37 C45 1_555 1_555
H20 C38 1_555 1_555
C40 H22 1_555 1_555
C41 C21 1_555 1_555
H23 C41 1_555 1_555
C42 C38 1_555 1_555
H24 C42 1_555 1_555
H25 C43 1_555 1_555
C45 C58 1_555 1_555
C46 H27 1_555 1_555
C48 C15 1_555 1_555
H29 C48 1_555 1_555
C58 H34 1_555 1_555
C60 C31 1_555 1_555
C65 C42 1_555 1_555
C67 H39 1_555 1_555
C69 C25 1_555 1_555
H40 C69 1_555 1_555
C70 C37 1_555 1_555
H41 C70 1_555 1_555
C73 C28 1_555 1_555
C75 C48 1_555 1_555
H43 C75 1_555 1_555
H45 C77 1_555 1_555
C79 C30 1_555 1_555
H46 C79 1_555 1_555
C80 C54 1_555 1_555
H47 C80 1_555 1_555
C84 C28 1_555 1_555
H49 C84 1_555 1_555
C89 C25 1_555 1_555
H53 C89 1_555 1_555
C92 C46 1_555 1_555
H56 C92 1_555 1_555
C94 C73 1_555 1_555
H58 C94 1_555 1_555
C97 C43 1_555 1_555
H61 C97 1_555 1_555
H67 C102 1_555 1_555
H69 C102 1_555 1_555
Ba13 O14 1_555 1_555
Ba19 O8 1_555 1_555
O14 Ba19 1_555 1_555
C37 C60 1_555 1_555
C40 C41 1_555 1_555
C45 C73 1_555 1_555
C46 C84 1_555 1_555
C50 C89 1_555 1_555
C58 C79 1_555 1_555
C60 C65 1_555 1_555
C61 C69 1_555 1_555
C67 C77 1_555 1_555
C75 C80 1_555 1_555
C92 C94 1_555 1_555
O3 C1 1_555 1_555
O4 C14 1_555 1_555
C1 O17 1_555 1_555
O12 C14 1_555 1_555
O17 Ba8 1_555 1_555
C11 H9 1_555 1_555
C12 H10 1_555 1_555
C13 C12 1_555 1_555
C14 C47 1_555 1_555
C23 H14 1_555 1_555
C32 C1 1_555 1_555
H17 C32 1_555 1_555
C34 C11 1_555 1_555
H26 C44 1_555 1_555
C47 C23 1_555 1_555
H28 C47 1_555 1_555
C53 C8 1_555 1_555
C56 C13 1_555 1_555
C66 C11 1_555 1_555
H38 C66 1_555 1_555
C82 C19 1_555 1_555
C99 C53 1_555 1_555
H63 C99 1_555 1_555
C100 C66 1_555 1_555
H64 C100 1_555 1_555
Ba10 O3 1_555 1_555
Ba13 O3 1_555 1_555
Ba19 O3 1_555 1_555
O4 Ba10 1_555 1_555
O4 Ba19 1_555 1_555
O12 Ba19 1_555 1_555
O17 Ba13 1_555 1_555
C12 C32 1_555 1_555
C23 C82 1_555 1_555
C34 C53 1_555 1_555
C34 C82 1_555 1_555
C44 C56 1_555 1_555
C99 C100 1_555 1_555
O28 C1_2 1_555 1_555
O30 C14_2 1_555 1_555
C1_2 O41 1_555 1_555
O34 C14_2 1_555 1_555
C11_2 H9_2 1_555 1_555
C12_2 H10_2 1_555 1_555
C13_2 C12_2 1_555 1_555
C14_2 C47_2 1_555 1_555
C23_2 H14_2 1_555 1_555
C32_2 C1_2 1_555 1_555
H17_2 C32_2 1_555 1_555
C34_2 C11_2 1_555 1_555
H26_2 C44_2 1_555 1_555
C47_2 C23_2 1_555 1_555
H28_2 C47_2 1_555 1_555
C53_2 C8_2 1_555 1_555
C56_2 C13_2 1_555 1_555
C66_2 C11_2 1_555 1_555
H38_2 C66_2 1_555 1_555
C82_2 C19_2 1_555 1_555
C99_2 C53_2 1_555 1_555
H63_2 C99_2 1_555 1_555
C100_2 C66_2 1_555 1_555
H64_2 C100_2 1_555 1_555
C12_2 C32_2 1_555 1_555
C23_2 C82_2 1_555 1_555
C34_2 C53_2 1_555 1_555
C34_2 C82_2 1_555 1_555
C44_2 C56_2 1_555 1_555
C99_2 C100_2 1_555 1_555
Ba16 O18 1_555 1_555
O31 C3_2 1_555 1_555
O13 C30_2 1_555 1_555
O37 C3_2 1_555 1_555
C3_2 C67_2 1_555 1_555
O16 C18_2 1_555 1_555
O18 C18_2 1_555 1_555
O20_2 Ba16 1_555 1_555
O22_2 Ba16 1_555 1_555
H8_2 O22_2 1_555 1_555
C18_2 C97_2 1_555 1_555
C25_2 H15_2 1_555 1_555
C28_2 C65_2 1_555 1_555
C30_2 O20_2 1_555 1_555
H16_2 C31_2 1_555 1_555
C37_2 C45_2 1_555 1_555
H20_2 C38_2 1_555 1_555
C40_2 H22_2 1_555 1_555
C41_2 C21_2 1_555 1_555
H23_2 C41_2 1_555 1_555
C42_2 C38_2 1_555 1_555
H24_2 C42_2 1_555 1_555
H25_2 C43_2 1_555 1_555
C45_2 C58_2 1_555 1_555
C46_2 H27_2 1_555 1_555
C48_2 C15_2 1_555 1_555
H29_2 C48_2 1_555 1_555
C58_2 H34_2 1_555 1_555
C60_2 C31_2 1_555 1_555
C65_2 C42_2 1_555 1_555
C67_2 H39_2 1_555 1_555
C69_2 C25_2 1_555 1_555
H40_2 C69_2 1_555 1_555
C70_2 C37_2 1_555 1_555
H41_2 C70_2 1_555 1_555
C73_2 C28_2 1_555 1_555
C75_2 C48_2 1_555 1_555
H43_2 C75_2 1_555 1_555
H45_2 C77_2 1_555 1_555
C79_2 C30_2 1_555 1_555
H46_2 C79_2 1_555 1_555
C80_2 C54_2 1_555 1_555
H47_2 C80_2 1_555 1_555
C84_2 C28_2 1_555 1_555
H49_2 C84_2 1_555 1_555
C89_2 C25_2 1_555 1_555
H53_2 C89_2 1_555 1_555
C92_2 C46_2 1_555 1_555
H56_2 C92_2 1_555 1_555
C94_2 C73_2 1_555 1_555
H58_2 C94_2 1_555 1_555
C97_2 C43_2 1_555 1_555
H61_2 C97_2 1_555 1_555
H67_2 C102_2 1_555 1_555
H69_2 C102_2 1_555 1_555
Ba10 O13 1_555 1_555
O26 Ba16 1_555 1_555
O32 Ba16 1_555 1_555
O16 Ba10 1_555 1_555
O18 Ba10 1_555 1_555
C37_2 C60_2 1_555 1_555
C40_2 C41_2 1_555 1_555
C45_2 C73_2 1_555 1_555
C46_2 C84_2 1_555 1_555
C50_2 C89_2 1_555 1_555
C58_2 C79_2 1_555 1_555
C60_2 C65_2 1_555 1_555
C61_2 C69_2 1_555 1_555
C67_2 C77_2 1_555 1_555
C75_2 C80_2 1_555 1_555
C92_2 C94_2 1_555 1_555
Ba10 O32 1_555 1_555
Ba8 O1_2 1_555 1_555
Ba10 O6_2 1_555 1_555
Ba13 O9_2 1_555 1_555
O1_2 C6_2 1_555 1_555
O26 Ba8 1_555 1_555
O5_2 Ba8 1_555 1_555
O6_2 Ba8 1_555 1_555
O7_2 Ba8 1_555 1_555
O9_2 Ba8 1_555 1_555
C2_2 O26 1_555 1_555
O10_2 Ba10 1_555 1_555
O32 Ba8 1_555 1_555
O39 C7_2 1_555 1_555
C4_2 H1_2 1_555 1_555
C5_2 H2_2 1_555 1_555
O44 C7_2 1_555 1_555
C6_2 O9_2 1_555 1_555
C7_2 C52_2 1_555 1_555
C9_2 H5_2 1_555 1_555
C17_2 C2_2 1_555 1_555
H11_2 C17_2 1_555 1_555
C20_2 C24_2 1_555 1_555
C22_2 C4_2 1_555 1_555
H13_2 C22_2 1_555 1_555
C24_2 C5_2 1_555 1_555
C27_2 O5_2 1_555 1_555
C29_2 O10_2 1_555 1_555
C35_2 C5_2 1_555 1_555
H18_2 C35_2 1_555 1_555
C36_2 H19_2 1_555 1_555
C39_2 H21_2 1_555 1_555
C49_2 C9_2 1_555 1_555
C52_2 H31_2 1_555 1_555
C55_2 C16_2 1_555 1_555
C57_2 C9_2 1_555 1_555
H33_2 C57_2 1_555 1_555
C63_2 H37_2 1_555 1_555
C64_2 C24_2 1_555 1_555
C68_2 C49_2 1_555 1_555
C71_2 C39_2 1_555 1_555
C74_2 C4_2 1_555 1_555
H42_2 C74_2 1_555 1_555
C76_2 C17_2 1_555 1_555
H44_2 C76_2 1_555 1_555
C78_2 C49_2 1_555 1_555
C83_2 C78_2 1_555 1_555
C85_2 C63_2 1_555 1_555
C87_2 C36_2 1_555 1_555
H51_2 C87_2 1_555 1_555
C88_2 C39_2 1_555 1_555
H52_2 C88_2 1_555 1_555
C91_2 C52_2 1_555 1_555
H55_2 C91_2 1_555 1_555
C93_2 C29_2 1_555 1_555
H57_2 C93_2 1_555 1_555
C95_2 C83_2 1_555 1_555
H59_2 C95_2 1_555 1_555
C96_2 C63_2 1_555 1_555
H60_2 C96_2 1_555 1_555
C98_2 C22_2 1_555 1_555
H62_2 C98_2 1_555 1_555
O23_2 Ba13 1_555 1_555
H65_2 O23_2 1_555 1_555
C101_2 O23_2 1_555 1_555
Ba13 O10_2 1_555 1_555
O6_2 C2_2 1_555 1_555
O7_2 C27_2 1_555 1_555
O32 C29_2 1_555 1_555
C6_2 C35_2 1_555 1_555
C36_2 C57_2 1_555 1_555
C55_2 C64_2 1_555 1_555
C55_2 C74_2 1_555 1_555
C59_2 C72_2 1_555 1_555
C59_2 C76_2 1_555 1_555
C64_2 C98_2 1_555 1_555
C68_2 C71_2 1_555 1_555
C68_2 C91_2 1_555 1_555
C71_2 C85_2 1_555 1_555
C78_2 C87_2 1_555 1_555
C83_2 C85_2 1_555 1_555
C88_2 C96_2 1_555 1_555
C93_2 C95_2 1_555 1_555
H3_2 O21_2 1_555 1_555
H4_2 O21_2 1_555 1_555
C10_2 H6_2 1_555 1_555
C62_2 C10_2 1_555 1_555
H36_2 C62_2 1_555 1_555
C104_2 C103_3 1_555 1_555
H75_2 C104_2 1_555 1_555
H76_2 C104_2 1_555 1_555
O24_2 Ba19 1_555 1_555
H70_2 O24_2 1_555 1_555
H71_2 O24_2 1_555 1_555
O25_2 Ba19 1_555 1_555
C103_4 O25_2 1_555 1_555
H73_2 C103_4 1_555 1_555
C26 C33 1_555 1_555
C51 C33 1_555 1_555
H30 C51 1_555 1_555
C81 C26 1_555 1_555
C86 C51 1_555 1_555
H50 C86 1_555 1_555
C90 C81 1_555 1_555
H54 C90 1_555 1_555
C86 C90 1_555 1_555
C26_2 C33_2 1_555 1_555
C51_2 C33_2 1_555 1_555
H30_2 C51_2 1_555 1_555
C81_2 C26_2 1_555 1_555
C86_2 C51_2 1_555 1_555
H50_2 C86_2 1_555 1_555
C90_2 C81_2 1_555 1_555
H54_2 C90_2 1_555 1_555
C86_2 C90_2 1_555 1_555

#END
