
###############################################################################
#
# This file contains modified crystal structure data generated from the
# MOF subset of the Cambridge Structural Database (CSD) v543 
# hosted by the Cambridge Crystallographic Data Centre (CCDC).
#
# This work is licensed under the Creative Commons
# Attribution-NonCommercial-ShareAlike 4.0 International License.
# To view a copy of this license, visit
# http://creativecommons.org/licenses/by-nc-sa/4.0/
# or send a letter to
# Creative Commons, PO Box 1866, Mountain View, CA 94042, USA.
#
# CIF created using the CSD Python API on 29 September 2022
# The structure has been converted into the P1 space group
# The structure has a 3D framework
# The original CSD entry LAJBUX is in the monoclinic crystal system
# The framework has been calculated to contain at least 10.0% void space
# The void calculation uses a probe of radius 1.32A, grid spacing 0.4
# The framework is charged, counterions have been retained in the structure
#
###############################################################################

data_LAJBUX
_chemical_formula_moiety         '(C132 H110 Cu3 N32 O13 P6 2+)n'
_symmetry_cell_setting           triclinic
_symmetry_space_group_name_H-M   'P 1'
_symmetry_Int_Tables_number      1
_space_group_name_Hall           'P 1'
loop_
_symmetry_equiv_pos_site_id
_symmetry_equiv_pos_as_xyz
1 x,y,z
_cell_length_a                   24.841(6)
_cell_length_b                   18.316(4)
_cell_length_c                   10.897(5)
_cell_angle_alpha                90
_cell_angle_beta                 105.586(4)
_cell_angle_gamma                90
_cell_volume                     4775.69
loop_
_atom_site_label
_atom_site_type_symbol
_atom_site_fract_x
_atom_site_fract_y
_atom_site_fract_z
Cu1 Cu 0.00403(4) 0.40698(6) 0.18629(11)
P1 P 0.07550(11) 0.500000 0.0450(3)
O1 O 0.0660(2) 0.4290(3) 0.1135(6)
N3 N 0.0527(3) 0.3298(4) 0.2949(7)
N4 N 0.1327(3) 0.2753(4) 0.3997(8)
C7 C 0.0405(4) 0.2711(5) 0.3683(9)
H6 H 0.004767 0.257505 0.370933
C8 C 0.0878(4) 0.2378(5) 0.4335(10)
H7 H 0.090865 0.198521 0.489068
C9 C 0.1084(4) 0.3291(5) 0.3185(9)
H8 H 0.128336 0.362152 0.282876
C10 C 0.1933(4) 0.2629(5) 0.4501(9)
C11 C 0.2305(4) 0.3191(6) 0.4557(11)
H9 H 0.217273 0.365080 0.426133
C12 C 0.2121(4) 0.1917(6) 0.4949(10)
H10 H 0.186891 0.153675 0.491254
C13 C 0.1500(4) 0.500000 0.0496(13)
C14 C 0.1898(5) 0.500000 0.1716(13)
H11 H 0.177775 0.500000 0.245441
C15 C 0.2475(6) 0.500000 0.1794(16)
H12 H 0.273948 0.500000 0.258165
C16 C 0.2645(5) 0.500000 0.0647(15)
H13 H 0.302434 0.500000 0.069371
O3 O 0.0259(2) 0.500000 0.3924(6)
O4 O 0.0660(2) 0.5710(3) 0.1135(6)
N7 N 0.4473(3) 0.1702(4) 0.7051(7)
N8 N 0.3673(3) 0.2247(4) 0.6003(8)
C25 C 0.4595(4) 0.2289(5) 0.6317(9)
H21 H 0.495233 0.242495 0.629067
C26 C 0.4122(4) 0.2622(5) 0.5665(10)
H22 H 0.409135 0.301479 0.510932
C27 C 0.3916(4) 0.1709(5) 0.6815(9)
H23 H 0.371664 0.137848 0.717124
C28 C 0.3067(4) 0.2371(5) 0.5499(9)
C29 C 0.2695(4) 0.1809(6) 0.5443(11)
H24 H 0.282727 0.134920 0.573867
C30 C 0.2879(4) 0.3083(6) 0.5051(10)
H25 H 0.313109 0.346325 0.508746
Cu4 Cu 0.00403(4) 0.59302(6) 0.18629(11)
Cu6 Cu 0.49597(4) 0.09302(6) 0.81371(11)
O2 O 0.0386(3) 0.500000 0.9010(8)
C17 C 0.2264(5) 0.500000 0.9474(17)
H14 H 0.238695 0.500000 0.873990
C18 C 0.1696(5) 0.500000 0.9378(14)
H15 H 0.144051 0.500000 0.857820
N9 N 0.0664(3) 0.3656(4) 0.7878(7)
N1 N 0.9336(3) 0.3656(4) 0.2122(7)
N2 N 0.8483(3) 0.3166(4) 0.1551(8)
C1 C 0.9111(4) 0.3724(6) 0.3140(10)
H1 H 0.928764 0.392531 0.392910
C2 C 0.8951(3) 0.3332(5) 0.1165(9)
H2 H 0.899659 0.323582 0.036071
C3 C 0.8566(4) 0.3435(6) 0.2774(10)
H3 H 0.831029 0.342744 0.326053
C4 C 0.7977(3) 0.2829(5) 0.0763(10)
C5 C 0.7723(4) 0.2256(6) 0.1273(11)
H4 H 0.787316 0.209482 0.210391
C24 C 0.7241(4) 0.1939(6) 0.0496(10)
H20 H 0.706250 0.156824 0.081868
O6 O 0.9614(3) 0.500000 0.0990(8)
C6 C 0.7759(4) 0.3061(6) 0.9504(10)
H5 H 0.793750 0.343176 0.918132
N5 N 0.5664(3) 0.1344(4) 0.7878(7)
N6 N 0.6517(3) 0.1834(4) 0.8449(8)
C19 C 0.5889(4) 0.1276(6) 0.6860(10)
H16 H 0.571236 0.107469 0.607090
C20 C 0.6049(3) 0.1668(5) 0.8835(9)
H17 H 0.600341 0.176418 0.963929
C21 C 0.6434(4) 0.1565(6) 0.7226(10)
H18 H 0.668971 0.157256 0.673947
C22 C 0.7023(3) 0.2171(5) 0.9237(10)
C23 C 0.7277(4) 0.2744(6) 0.8727(11)
H19 H 0.712684 0.290518 0.789609
Cu2 Cu 0.99597(4) 0.40698(6) 0.81371(11)
Cu3 Cu 0.99597(4) 0.59302(6) 0.81371(11)
O5 O 0.9340(2) 0.4290(3) 0.8865(6)
N10 N 0.9473(3) 0.3298(4) 0.7051(7)
O7 O 0.9741(2) 0.500000 0.6076(6)
C6_2 C 0.2241(4) 0.3061(6) 0.0496(10)
H5_2 H 0.206250 0.343176 0.081868
N5_2 N 0.4336(3) 0.1344(4) 0.2122(7)
N6_2 N 0.3483(3) 0.1834(4) 0.1551(8)
C19_2 C 0.4111(4) 0.1276(6) 0.3140(10)
H16_2 H 0.428764 0.107469 0.392910
C20_2 C 0.3951(3) 0.1668(5) 0.1165(9)
H17_2 H 0.399659 0.176418 0.036071
C21_2 C 0.3566(4) 0.1565(6) 0.2774(10)
H18_2 H 0.331029 0.157256 0.326053
C22_2 C 0.2977(3) 0.2171(5) 0.0763(10)
C23_2 C 0.2723(4) 0.2744(6) 0.1273(11)
H19_2 H 0.287316 0.290518 0.210391
Cu5 Cu 0.50403(4) 0.09302(6) 0.18629(11)
N2_2 N 0.1517(3) 0.3166(4) 0.8449(8)
C1_2 C 0.0889(4) 0.3724(6) 0.6860(10)
H1_2 H 0.071236 0.392531 0.607090
C2_2 C 0.1049(3) 0.3332(5) 0.8835(9)
H2_2 H 0.100341 0.323582 0.963929
C3_2 C 0.1434(4) 0.3435(6) 0.7226(10)
H3_2 H 0.168971 0.342744 0.673947
C4_2 C 0.2023(3) 0.2829(5) 0.9237(10)
C5_2 C 0.2277(4) 0.2256(6) 0.8727(11)
H4_2 H 0.212684 0.209482 0.789609
C24_2 C 0.2759(4) 0.1939(6) 0.9504(10)
H20_2 H 0.293750 0.156824 0.918132
C17_2 C 0.7736(5) 0.500000 0.0526(17)
H14_2 H 0.761305 0.500000 0.126010
C18_2 C 0.8304(5) 0.500000 0.0622(14)
H15_2 H 0.855949 0.500000 0.142180
P1_2 P 0.92450(11) 0.500000 0.9550(3)
N4_2 N 0.8673(3) 0.2753(4) 0.6003(8)
C7_2 C 0.9595(4) 0.2711(5) 0.6317(9)
H6_2 H 0.995233 0.257505 0.629067
C8_2 C 0.9122(4) 0.2378(5) 0.5665(10)
H7_2 H 0.909135 0.198521 0.510932
C9_2 C 0.8916(4) 0.3291(5) 0.6815(9)
H8_2 H 0.871664 0.362152 0.717124
C10_2 C 0.8067(4) 0.2629(5) 0.5499(9)
C11_2 C 0.7695(4) 0.3191(6) 0.5443(11)
H9_2 H 0.782727 0.365080 0.573867
C12_2 C 0.7879(4) 0.1917(6) 0.5051(10)
H10_2 H 0.813109 0.153675 0.508746
C13_2 C 0.8500(4) 0.500000 0.9504(13)
C14_2 C 0.8102(5) 0.500000 0.8284(13)
H11_2 H 0.822225 0.500000 0.754559
C15_2 C 0.7525(6) 0.500000 0.8206(16)
H12_2 H 0.726052 0.500000 0.741835
C16_2 C 0.7355(5) 0.500000 0.9353(15)
H13_2 H 0.697566 0.500000 0.930629
O4_2 O 0.9340(2) 0.5710(3) 0.8865(6)
N7_2 N 0.5527(3) 0.1702(4) 0.2949(7)
N8_2 N 0.6327(3) 0.2247(4) 0.3997(8)
C25_2 C 0.5405(4) 0.2289(5) 0.3683(9)
H21_2 H 0.504767 0.242495 0.370933
C26_2 C 0.5878(4) 0.2622(5) 0.4335(10)
H22_2 H 0.590865 0.301479 0.489068
C27_2 C 0.6084(4) 0.1709(5) 0.3185(9)
H23_2 H 0.628336 0.137848 0.282876
C28_2 C 0.6933(4) 0.2371(5) 0.4501(9)
C29_2 C 0.7305(4) 0.1809(6) 0.4557(11)
H24_2 H 0.717273 0.134920 0.426133
C30_2 C 0.7121(4) 0.3083(6) 0.4949(10)
H25_2 H 0.686891 0.346325 0.491254
P1_3 P 0.57550(11) 0.000000 0.0450(3)
C13_3 C 0.6500(4) -0.000000 0.0496(13)
C14_3 C 0.6898(5) -0.000000 0.1716(13)
H11_3 H 0.677775 0.000000 0.245441
C15_3 C 0.7475(6) 0.000000 0.1794(16)
H12_3 H 0.773948 0.000000 0.258165
C16_3 C 0.7645(5) 0.000000 0.0647(15)
H13_3 H 0.802434 0.000000 0.069371
O3_2 O 0.5259(2) 0.000000 0.3924(6)
O4_3 O 0.5660(2) 0.0710(3) 0.1135(6)
O6_2 O 0.4614(3) 0.000000 0.0990(8)
O2_2 O 0.5386(3) -0.000000 0.9010(8)
C17_3 C 0.7264(5) 0.000000 0.9474(17)
H14_3 H 0.738695 -0.000000 0.873990
C18_3 C 0.6696(5) 0.000000 0.9378(14)
H15_3 H 0.644051 0.000000 0.857820
O7_2 O 0.4741(2) 0.000000 0.6076(6)
Cu1_2 Cu 0.50403(4) 0.90698(6) 0.18629(11)
P1_4 P 0.57550(11) 1.000000 0.0450(3)
O1_2 O 0.5660(2) 0.9290(3) 0.1135(6)
N1_2 N 0.4336(3) 0.8656(4) 0.2122(7)
N2_3 N 0.3483(3) 0.8166(4) 0.1551(8)
N3_2 N 0.5527(3) 0.8298(4) 0.2949(7)
N4_3 N 0.6327(3) 0.7753(4) 0.3997(8)
C1_3 C 0.4111(4) 0.8724(6) 0.3140(10)
H1_3 H 0.428764 0.892531 0.392910
C2_3 C 0.3951(3) 0.8332(5) 0.1165(9)
H2_3 H 0.399659 0.823582 0.036071
C3_3 C 0.3566(4) 0.8435(6) 0.2774(10)
H3_3 H 0.331029 0.842744 0.326053
C4_3 C 0.2977(3) 0.7829(5) 0.0763(10)
C5_3 C 0.2723(4) 0.7256(6) 0.1273(11)
H4_3 H 0.287316 0.709482 0.210391
C7_3 C 0.5405(4) 0.7711(5) 0.3683(9)
H6_3 H 0.504767 0.757505 0.370933
C8_3 C 0.5878(4) 0.7378(5) 0.4335(10)
H7_3 H 0.590865 0.698521 0.489068
C9_3 C 0.6084(4) 0.8291(5) 0.3185(9)
H8_3 H 0.628336 0.862152 0.282876
C10_3 C 0.6933(4) 0.7629(5) 0.4501(9)
C11_3 C 0.7305(4) 0.8191(6) 0.4557(11)
H9_3 H 0.717273 0.865080 0.426133
C12_3 C 0.7121(4) 0.6917(6) 0.4949(10)
H10_3 H 0.686891 0.653675 0.491254
C13_4 C 0.6500(4) 1.000000 0.0496(13)
C14_4 C 0.6898(5) 1.000000 0.1716(13)
H11_4 H 0.677775 1.000000 0.245441
C15_4 C 0.7475(6) 1.000000 0.1794(16)
H12_4 H 0.773948 1.000000 0.258165
C16_4 C 0.7645(5) 1.000000 0.0647(15)
H13_4 H 0.802434 1.000000 0.069371
O3_3 O 0.5259(2) 1.000000 0.3924(6)
C24_3 C 0.2241(4) 0.6939(6) 0.0496(10)
H20_3 H 0.206250 0.656824 0.081868
N7_3 N 0.9473(3) 0.6702(4) 0.7051(7)
N8_3 N 0.8673(3) 0.7247(4) 0.6003(8)
C25_3 C 0.9595(4) 0.7289(5) 0.6317(9)
H21_3 H 0.995233 0.742495 0.629067
C26_3 C 0.9122(4) 0.7622(5) 0.5665(10)
H22_3 H 0.909135 0.801479 0.510932
C27_3 C 0.8916(4) 0.6709(5) 0.6815(9)
H23_3 H 0.871664 0.637848 0.717124
C28_3 C 0.8067(4) 0.7371(5) 0.5499(9)
C29_3 C 0.7695(4) 0.6809(6) 0.5443(11)
H24_3 H 0.782727 0.634920 0.573867
C30_3 C 0.7879(4) 0.8083(6) 0.5051(10)
H25_3 H 0.813109 0.846325 0.508746
O6_3 O 0.4614(3) 1.000000 0.0990(8)
O2_3 O 0.5386(3) 1.000000 0.9010(8)
C6_3 C 0.2759(4) 0.8061(6) 0.9504(10)
H5_3 H 0.293750 0.843176 0.918132
C17_4 C 0.7264(5) 1.000000 0.9474(17)
H14_4 H 0.738695 1.000000 0.873990
C18_4 C 0.6696(5) 1.000000 0.9378(14)
H15_4 H 0.644051 1.000000 0.857820
N5_3 N 0.0664(3) 0.6344(4) 0.7878(7)
N6_3 N 0.1517(3) 0.6834(4) 0.8449(8)
C19_3 C 0.0889(4) 0.6276(6) 0.6860(10)
H16_3 H 0.071236 0.607469 0.607090
C20_3 C 0.1049(3) 0.6668(5) 0.8835(9)
H17_3 H 0.100341 0.676418 0.963929
C21_3 C 0.1434(4) 0.6565(6) 0.7226(10)
H18_3 H 0.168971 0.657256 0.673947
C22_3 C 0.2023(3) 0.7171(5) 0.9237(10)
C23_3 C 0.2277(4) 0.7744(6) 0.8727(11)
H19_3 H 0.212684 0.790518 0.789609
Cu2_2 Cu 0.49597(4) 0.90698(6) 0.81371(11)
O5_2 O 0.4340(2) 0.9290(3) 0.8865(6)
N9_2 N 0.5664(3) 0.8656(4) 0.7878(7)
N10_2 N 0.4473(3) 0.8298(4) 0.7051(7)
O7_3 O 0.4741(2) 1.000000 0.6076(6)
C17_5 C 0.2736(5) -0.000000 0.0526(17)
H14_5 H 0.261305 0.000000 0.126010
C18_5 C 0.3304(5) 0.000000 0.0622(14)
H15_5 H 0.355949 0.000000 0.142180
P1_5 P 0.42450(11) 0.000000 0.9550(3)
C13_5 C 0.3500(4) 0.000000 0.9504(13)
C14_5 C 0.3102(5) 0.000000 0.8284(13)
H11_5 H 0.322225 0.000000 0.754559
C15_5 C 0.2525(6) 0.000000 0.8206(16)
H12_5 H 0.226052 0.000000 0.741835
C16_5 C 0.2355(5) -0.000000 0.9353(15)
H13_5 H 0.197566 0.000000 0.930629
O4_4 O 0.4340(2) 0.0710(3) 0.8865(6)
C6_4 C 0.7241(4) 0.8061(6) 0.0496(10)
H5_4 H 0.706250 0.843176 0.081868
C17_6 C 0.2736(5) 1.000000 0.0526(17)
H14_6 H 0.261305 1.000000 0.126010
C18_6 C 0.3304(5) 1.000000 0.0622(14)
H15_6 H 0.355949 1.000000 0.142180
N5_4 N 0.9336(3) 0.6344(4) 0.2122(7)
N6_4 N 0.8483(3) 0.6834(4) 0.1551(8)
C19_4 C 0.9111(4) 0.6276(6) 0.3140(10)
H16_4 H 0.928764 0.607469 0.392910
C20_4 C 0.8951(3) 0.6668(5) 0.1165(9)
H17_4 H 0.899659 0.676418 0.036071
C21_4 C 0.8566(4) 0.6565(6) 0.2774(10)
H18_4 H 0.831029 0.657256 0.326053
C22_4 C 0.7977(3) 0.7171(5) 0.0763(10)
C23_4 C 0.7723(4) 0.7744(6) 0.1273(11)
H19_4 H 0.787316 0.790518 0.210391
P1_6 P 0.42450(11) 1.000000 0.9550(3)
N2_4 N 0.6517(3) 0.8166(4) 0.8449(8)
N4_4 N 0.3673(3) 0.7753(4) 0.6003(8)
C1_4 C 0.5889(4) 0.8724(6) 0.6860(10)
H1_4 H 0.571236 0.892531 0.607090
C2_4 C 0.6049(3) 0.8332(5) 0.8835(9)
H2_4 H 0.600341 0.823582 0.963929
C3_4 C 0.6434(4) 0.8435(6) 0.7226(10)
H3_4 H 0.668971 0.842744 0.673947
C4_4 C 0.7023(3) 0.7829(5) 0.9237(10)
C5_4 C 0.7277(4) 0.7256(6) 0.8727(11)
H4_4 H 0.712684 0.709482 0.789609
C7_4 C 0.4595(4) 0.7711(5) 0.6317(9)
H6_4 H 0.495233 0.757505 0.629067
C8_4 C 0.4122(4) 0.7378(5) 0.5665(10)
H7_4 H 0.409135 0.698521 0.510932
C9_4 C 0.3916(4) 0.8291(5) 0.6815(9)
H8_4 H 0.371664 0.862152 0.717124
C10_4 C 0.3067(4) 0.7629(5) 0.5499(9)
C11_4 C 0.2695(4) 0.8191(6) 0.5443(11)
H9_4 H 0.282727 0.865080 0.573867
C12_4 C 0.2879(4) 0.6917(6) 0.5051(10)
H10_4 H 0.313109 0.653675 0.508746
C13_6 C 0.3500(4) 1.000000 0.9504(13)
C14_6 C 0.3102(5) 1.000000 0.8284(13)
H11_6 H 0.322225 1.000000 0.754559
C15_6 C 0.2525(6) 1.000000 0.8206(16)
H12_6 H 0.226052 1.000000 0.741835
C16_6 C 0.2355(5) 1.000000 0.9353(15)
H13_6 H 0.197566 1.000000 0.930629
C24_4 C 0.7759(4) 0.6939(6) 0.9504(10)
H20_4 H 0.793750 0.656824 0.918132
N7_4 N 0.0527(3) 0.6702(4) 0.2949(7)
N8_4 N 0.1327(3) 0.7247(4) 0.3997(8)
C25_4 C 0.0405(4) 0.7289(5) 0.3683(9)
H21_4 H 0.004767 0.742495 0.370933
C26_4 C 0.0878(4) 0.7622(5) 0.4335(10)
H22_4 H 0.090865 0.801479 0.489068
C27_4 C 0.1084(4) 0.6709(5) 0.3185(9)
H23_4 H 0.128336 0.637848 0.282876
C28_4 C 0.1933(4) 0.7371(5) 0.4501(9)
C29_4 C 0.2305(4) 0.6809(6) 0.4557(11)
H24_4 H 0.217273 0.634920 0.426133
C30_4 C 0.2121(4) 0.8083(6) 0.4949(10)
H25_4 H 0.186891 0.846325 0.491254
loop_
_geom_bond_atom_site_label_1
_geom_bond_atom_site_label_2
_geom_bond_site_symmetry_1
_geom_bond_site_symmetry_2
Cu1 O1 1_555 1_555
P1 O1 1_555 1_555
N3 Cu1 1_555 1_555
N4 C8 1_555 1_555
C7 N3 1_555 1_555
H6 C7 1_555 1_555
C8 C7 1_555 1_555
H7 C8 1_555 1_555
C9 N3 1_555 1_555
H8 C9 1_555 1_555
C10 N4 1_555 1_555
C11 C10 1_555 1_555
H9 C11 1_555 1_555
C12 C10 1_555 1_555
H10 C12 1_555 1_555
C13 P1 1_555 1_555
C14 C13 1_555 1_555
H11 C14 1_555 1_555
C15 C14 1_555 1_555
H12 C15 1_555 1_555
C16 C15 1_555 1_555
H13 C16 1_555 1_555
O3 Cu1 1_555 1_555
O4 P1 1_555 1_555
N7 C25 1_555 1_555
N8 C26 1_555 1_555
C25 H21 1_555 1_555
C26 C25 1_555 1_555
H22 C26 1_555 1_555
C27 N7 1_555 1_555
H23 C27 1_555 1_555
C28 N8 1_555 1_555
C29 C12 1_555 1_555
H24 C29 1_555 1_555
C30 C11 1_555 1_555
H25 C30 1_555 1_555
Cu4 O3 1_555 1_555
Cu6 N7 1_555 1_555
N4 C9 1_555 1_555
O4 Cu4 1_555 1_555
N8 C27 1_555 1_555
C28 C29 1_555 1_555
C28 C30 1_555 1_555
H14 C17 1_555 1_555
H15 C18 1_555 1_555
C17 C18 1_555 1_555
N2 C2 1_555 1_555
C1 N1 1_555 1_555
H1 C1 1_555 1_555
C2 N1 1_555 1_555
H2 C2 1_555 1_555
C3 N2 1_555 1_555
H3 C3 1_555 1_555
C4 N2 1_555 1_555
C5 C4 1_555 1_555
H4 C5 1_555 1_555
C24 C5 1_555 1_555
H20 C24 1_555 1_555
C1 C3 1_555 1_555
H5 C6 1_555 1_555
N5 C19 1_555 1_555
N6 C20 1_555 1_555
C19 H16 1_555 1_555
C20 N5 1_555 1_555
H17 C20 1_555 1_555
C21 N6 1_555 1_555
H18 C21 1_555 1_555
C22 N6 1_555 1_555
C23 C6 1_555 1_555
H19 C23 1_555 1_555
Cu6 N5 1_555 1_555
O5 Cu2 1_555 1_555
N10 Cu2 1_555 1_555
O7 Cu2 1_555 1_555
C19 C21 1_555 1_555
C22 C23 1_555 1_555
Cu3 O7 1_555 1_555
H5_2 C6_2 1_555 1_555
N5_2 C19_2 1_555 1_555
N6_2 C20_2 1_555 1_555
C19_2 H16_2 1_555 1_555
C20_2 N5_2 1_555 1_555
H17_2 C20_2 1_555 1_555
C21_2 N6_2 1_555 1_555
H18_2 C21_2 1_555 1_555
C22_2 N6_2 1_555 1_555
C23_2 C6_2 1_555 1_555
H19_2 C23_2 1_555 1_555
Cu5 N5_2 1_555 1_555
C19_2 C21_2 1_555 1_555
C22_2 C23_2 1_555 1_555
N2_2 C2_2 1_555 1_555
C1_2 N9 1_555 1_555
H1_2 C1_2 1_555 1_555
C2_2 N9 1_555 1_555
H2_2 C2_2 1_555 1_555
C3_2 N2_2 1_555 1_555
H3_2 C3_2 1_555 1_555
C4_2 N2_2 1_555 1_555
C5_2 C4_2 1_555 1_555
H4_2 C5_2 1_555 1_555
C24_2 C5_2 1_555 1_555
H20_2 C24_2 1_555 1_555
C1_2 C3_2 1_555 1_555
H14_2 C17_2 1_555 1_555
H15_2 C18_2 1_555 1_555
C17_2 C18_2 1_555 1_555
P1_2 O5 1_555 1_555
N4_2 C8_2 1_555 1_555
C7_2 N10 1_555 1_555
H6_2 C7_2 1_555 1_555
C8_2 C7_2 1_555 1_555
H7_2 C8_2 1_555 1_555
C9_2 N10 1_555 1_555
H8_2 C9_2 1_555 1_555
C10_2 N4_2 1_555 1_555
C11_2 C10_2 1_555 1_555
H9_2 C11_2 1_555 1_555
C12_2 C10_2 1_555 1_555
H10_2 C12_2 1_555 1_555
C13_2 P1_2 1_555 1_555
C14_2 C13_2 1_555 1_555
H11_2 C14_2 1_555 1_555
C15_2 C14_2 1_555 1_555
H12_2 C15_2 1_555 1_555
C16_2 C15_2 1_555 1_555
H13_2 C16_2 1_555 1_555
O4_2 P1_2 1_555 1_555
N7_2 C25_2 1_555 1_555
N8_2 C26_2 1_555 1_555
C25_2 H21_2 1_555 1_555
C26_2 C25_2 1_555 1_555
H22_2 C26_2 1_555 1_555
C27_2 N7_2 1_555 1_555
H23_2 C27_2 1_555 1_555
C28_2 N8_2 1_555 1_555
C29_2 C12_2 1_555 1_555
H24_2 C29_2 1_555 1_555
C30_2 C11_2 1_555 1_555
H25_2 C30_2 1_555 1_555
Cu5 N7_2 1_555 1_555
N4_2 C9_2 1_555 1_555
O4_2 Cu3 1_555 1_555
N8_2 C27_2 1_555 1_555
C28_2 C29_2 1_555 1_555
C28_2 C30_2 1_555 1_555
C13_3 P1_3 1_555 1_555
C14_3 C13_3 1_555 1_555
H11_3 C14_3 1_555 1_555
C15_3 C14_3 1_555 1_555
H12_3 C15_3 1_555 1_555
C16_3 C15_3 1_555 1_555
H13_3 C16_3 1_555 1_555
O4_3 P1_3 1_555 1_555
Cu5 O3_2 1_555 1_555
O4_3 Cu5 1_555 1_555
Cu5 O6_2 1_555 1_555
H14_3 C17_3 1_555 1_555
H15_3 C18_3 1_555 1_555
Cu6 O2_2 1_555 1_555
C17_3 C18_3 1_555 1_555
Cu6 O7_2 1_555 1_555
Cu1_2 O1_2 1_555 1_555
P1_4 O1_2 1_555 1_555
N1_2 Cu1_2 1_555 1_555
N2_3 C2_3 1_555 1_555
N3_2 Cu1_2 1_555 1_555
N4_3 C8_3 1_555 1_555
C1_3 N1_2 1_555 1_555
H1_3 C1_3 1_555 1_555
C2_3 N1_2 1_555 1_555
H2_3 C2_3 1_555 1_555
C3_3 N2_3 1_555 1_555
H3_3 C3_3 1_555 1_555
C4_3 N2_3 1_555 1_555
C5_3 C4_3 1_555 1_555
H4_3 C5_3 1_555 1_555
C7_3 N3_2 1_555 1_555
H6_3 C7_3 1_555 1_555
C8_3 C7_3 1_555 1_555
H7_3 C8_3 1_555 1_555
C9_3 N3_2 1_555 1_555
H8_3 C9_3 1_555 1_555
C10_3 N4_3 1_555 1_555
C11_3 C10_3 1_555 1_555
H9_3 C11_3 1_555 1_555
C12_3 C10_3 1_555 1_555
H10_3 C12_3 1_555 1_555
C13_4 P1_4 1_555 1_555
C14_4 C13_4 1_555 1_555
H11_4 C14_4 1_555 1_555
C15_4 C14_4 1_555 1_555
H12_4 C15_4 1_555 1_555
C16_4 C15_4 1_555 1_555
H13_4 C16_4 1_555 1_555
O3_3 Cu1_2 1_555 1_555
C24_3 C5_3 1_555 1_555
H20_3 C24_3 1_555 1_555
N7_3 C25_3 1_555 1_555
N8_3 C26_3 1_555 1_555
C25_3 H21_3 1_555 1_555
C26_3 C25_3 1_555 1_555
H22_3 C26_3 1_555 1_555
C27_3 N7_3 1_555 1_555
H23_3 C27_3 1_555 1_555
C28_3 N8_3 1_555 1_555
C29_3 C12_3 1_555 1_555
H24_3 C29_3 1_555 1_555
C30_3 C11_3 1_555 1_555
H25_3 C30_3 1_555 1_555
Cu3 N7_3 1_555 1_555
O6_3 Cu1_2 1_555 1_555
N4_3 C9_3 1_555 1_555
C1_3 C3_3 1_555 1_555
N8_3 C27_3 1_555 1_555
C28_3 C29_3 1_555 1_555
C28_3 C30_3 1_555 1_555
H5_3 C6_3 1_555 1_555
H14_4 C17_4 1_555 1_555
H15_4 C18_4 1_555 1_555
N5_3 C19_3 1_555 1_555
N6_3 C20_3 1_555 1_555
C19_3 H16_3 1_555 1_555
C20_3 N5_3 1_555 1_555
H17_3 C20_3 1_555 1_555
C21_3 N6_3 1_555 1_555
H18_3 C21_3 1_555 1_555
C22_3 N6_3 1_555 1_555
C23_3 C6_3 1_555 1_555
H19_3 C23_3 1_555 1_555
Cu2_2 O2_3 1_555 1_555
O5_2 Cu2_2 1_555 1_555
N9_2 Cu2_2 1_555 1_555
N10_2 Cu2_2 1_555 1_555
O7_3 Cu2_2 1_555 1_555
C17_4 C18_4 1_555 1_555
C19_3 C21_3 1_555 1_555
C22_3 C23_3 1_555 1_555
H14_5 C17_5 1_555 1_555
H15_5 C18_5 1_555 1_555
C17_5 C18_5 1_555 1_555
C13_5 P1_5 1_555 1_555
C14_5 C13_5 1_555 1_555
H11_5 C14_5 1_555 1_555
C15_5 C14_5 1_555 1_555
H12_5 C15_5 1_555 1_555
C16_5 C15_5 1_555 1_555
H13_5 C16_5 1_555 1_555
O4_4 P1_5 1_555 1_555
O4_4 Cu6 1_555 1_555
H5_4 C6_4 1_555 1_555
H14_6 C17_6 1_555 1_555
H15_6 C18_6 1_555 1_555
N5_4 C19_4 1_555 1_555
N6_4 C20_4 1_555 1_555
C19_4 H16_4 1_555 1_555
C20_4 N5_4 1_555 1_555
H17_4 C20_4 1_555 1_555
C21_4 N6_4 1_555 1_555
H18_4 C21_4 1_555 1_555
C22_4 N6_4 1_555 1_555
C23_4 C6_4 1_555 1_555
H19_4 C23_4 1_555 1_555
C17_6 C18_6 1_555 1_555
C19_4 C21_4 1_555 1_555
C22_4 C23_4 1_555 1_555
P1_6 O5_2 1_555 1_555
N2_4 C2_4 1_555 1_555
N4_4 C8_4 1_555 1_555
C1_4 N9_2 1_555 1_555
H1_4 C1_4 1_555 1_555
C2_4 N9_2 1_555 1_555
H2_4 C2_4 1_555 1_555
C3_4 N2_4 1_555 1_555
H3_4 C3_4 1_555 1_555
C4_4 N2_4 1_555 1_555
C5_4 C4_4 1_555 1_555
H4_4 C5_4 1_555 1_555
C7_4 N10_2 1_555 1_555
H6_4 C7_4 1_555 1_555
C8_4 C7_4 1_555 1_555
H7_4 C8_4 1_555 1_555
C9_4 N10_2 1_555 1_555
H8_4 C9_4 1_555 1_555
C10_4 N4_4 1_555 1_555
C11_4 C10_4 1_555 1_555
H9_4 C11_4 1_555 1_555
C12_4 C10_4 1_555 1_555
H10_4 C12_4 1_555 1_555
C13_6 P1_6 1_555 1_555
C14_6 C13_6 1_555 1_555
H11_6 C14_6 1_555 1_555
C15_6 C14_6 1_555 1_555
H12_6 C15_6 1_555 1_555
C16_6 C15_6 1_555 1_555
H13_6 C16_6 1_555 1_555
C24_4 C5_4 1_555 1_555
H20_4 C24_4 1_555 1_555
N7_4 C25_4 1_555 1_555
N8_4 C26_4 1_555 1_555
C25_4 H21_4 1_555 1_555
C26_4 C25_4 1_555 1_555
H22_4 C26_4 1_555 1_555
C27_4 N7_4 1_555 1_555
H23_4 C27_4 1_555 1_555
C28_4 N8_4 1_555 1_555
C29_4 C12_4 1_555 1_555
H24_4 C29_4 1_555 1_555
C30_4 C11_4 1_555 1_555
H25_4 C30_4 1_555 1_555
Cu4 N7_4 1_555 1_555
N4_4 C9_4 1_555 1_555
C1_4 C3_4 1_555 1_555
N8_4 C27_4 1_555 1_555
C28_4 C29_4 1_555 1_555
C28_4 C30_4 1_555 1_555

#END
