
###############################################################################
#
# This file contains modified crystal structure data generated from the
# MOF subset of the Cambridge Structural Database (CSD) v543 
# hosted by the Cambridge Crystallographic Data Centre (CCDC).
#
# This work is licensed under the Creative Commons
# Attribution-NonCommercial-ShareAlike 4.0 International License.
# To view a copy of this license, visit
# http://creativecommons.org/licenses/by-nc-sa/4.0/
# or send a letter to
# Creative Commons, PO Box 1866, Mountain View, CA 94042, USA.
#
# CIF created using the CSD Python API on 29 September 2022
# The structure has been converted into the P1 space group
# The structure has a 3D framework
# The original CSD entry LAJDUV is in the hexagonal crystal system
# The original CSD entry LAJDUV is in a Sohncke space group
# The framework has been calculated to contain at least 10.0% void space
# The void calculation uses a probe of radius 1.32A, grid spacing 0.4
#
###############################################################################

data_LAJDUV
_chemical_formula_moiety         '(C12 H12 N16 O24 Ti3 15+)n'
_symmetry_cell_setting           triclinic
_symmetry_space_group_name_H-M   'P 1'
_symmetry_Int_Tables_number      1
_space_group_name_Hall           'P 1'
loop_
_symmetry_equiv_pos_site_id
_symmetry_equiv_pos_as_xyz
1 x,y,z
_cell_length_a                   8.935(3)
_cell_length_b                   8.935(3)
_cell_length_c                   10.878(4)
_cell_angle_alpha                90
_cell_angle_beta                 90
_cell_angle_gamma                120
_cell_volume                     752.088
loop_
_atom_site_label
_atom_site_type_symbol
_atom_site_fract_x
_atom_site_fract_y
_atom_site_fract_z
Ti2 Ti -0.0000 0.5000 0.6666
Ti1 Ti 0.5000 0.5000 0.3333
O1 O 0.5511(3) 0.3140(3) 0.4430(3)
O2 O 0.9232(3) 0.6505(3) 0.5628(2)
C1 C 0.6920(3) 0.3840(6) 0.5000
C2 C 0.7895(3) 0.5791(7) 0.5000
O3 O 0.7629(4) 0.3140(3) 0.5570(3)
O4 O 0.7273(4) 0.6505(3) 0.4372(2)
O5 O 0.6860(3) 0.4489(3) 0.2237(3)
O6 O 0.3495(3) 0.0768(3) 0.1039(2)
C3 C 0.6160(6) 0.3080(3) 0.1667
C4 C 0.4209(7) 0.2105(3) 0.1667
O7 O 0.6860(3) 0.2371(4) 0.1097(3)
O8 O 0.3495(3) 0.2727(4) 0.2295(2)
O9 O 0.4489(3) 0.6860(3) 0.4430(3)
O10 O 0.3140(3) 0.5511(3) 0.2237(3)
O11 O 0.2727(4) 0.3495(3) 0.4372(2)
O12 O 0.6505(3) 0.7273(4) 0.2295(2)
Ti2_2 Ti 1.0000 0.5000 0.6666
Ti3 Ti 0.5000 0.0000 -0.0000
Ti3_2 Ti 0.5000 0.0000 1.0000
Ti3_3 Ti 0.5000 1.0000 -0.0000
Ti3_4 Ti 0.5000 1.0000 1.0000
O1_2 O 0.2371(4) 0.5511(3) 0.7763(3)
O2_2 O 0.2727(4) 0.9232(3) 0.8961(2)
C1_2 C 0.3080(7) 0.6920(3) 0.8333
C2_2 C 0.2104(8) 0.7895(3) 0.8333
O3_2 O 0.4489(5) 0.7629(4) 0.8903(3)
O4_2 O 0.0768(5) 0.7273(4) 0.7705(2)
O5_2 O 0.2371(4) 0.6860(3) 0.5570(3)
C3_2 C 0.3080(7) 0.6160(6) 0.5000
C4_2 C 0.2104(8) 0.4209(7) 0.5000
O8_2 O 0.0768(5) 0.3495(3) 0.5628(2)
O9_2 O 0.7629(4) 0.4489(3) 0.7763(3)
O11_2 O 0.9232(5) 0.2727(4) 0.7705(2)
O5_3 O 0.5511(3) 0.2371(4) 0.8903(3)
C3_3 C 0.6920(3) 0.3080(7) 0.8333
C4_3 C 0.7895(3) 0.2104(8) 0.8333
O8_3 O 0.7273(4) 0.0768(5) 0.8961(2)
O9_3 O 0.3140(3) 0.7629(4) 0.1097(3)
O11_3 O 0.6505(3) 0.9232(5) 0.1039(2)
C3_4 C 0.3840(6) 0.6920(3) 0.1667
C4_4 C 0.5791(7) 0.7895(3) 0.1667
N1 N 0.0000 0.0000 0.0000
N1_2 N 0.0000 0.0000 1.0000
H4 H 0.110(13) 0.0815(88) 0.9494(60)
N1_3 N 0.0000 1.0000 0.0000
H3 H 0.0282(99) 0.9185(88) 0.0506(60)
N1_4 N 0.0000 1.0000 1.0000
N1_5 N 1.0000 0.0000 0.0000
H1 H 0.9718(99) 0.0815(88) 0.0506(60)
N1_6 N 1.0000 0.0000 1.0000
N1_7 N 1.0000 1.0000 0.0000
N1_8 N 1.0000 1.0000 1.0000
H2 H 0.890(13) 0.9185(88) 0.9494(60)
N1_9 N 0.0000 0.0000 0.3333
H3_2 H 0.110(13) 0.0282(99) 0.3839(60)
H4_2 H 0.028(16) 0.110(13) 0.2827(60)
N1_10 N 0.0000 1.0000 0.3333
N1_11 N 1.0000 0.0000 0.3333
N1_12 N 1.0000 1.0000 0.3333
H1_2 H 0.890(13) 0.9718(99) 0.3839(60)
H2_2 H 0.972(16) 0.890(13) 0.2827(60)
N1_13 N 0.0000 0.0000 0.6667
H2_3 H 0.0815(88) 0.110(13) 0.7173(60)
N1_14 N 0.0000 1.0000 0.6667
H3_3 H 0.0815(88) 0.9718(99) 0.6161(60)
N1_15 N 1.0000 0.0000 0.6667
H1_3 H 0.9185(88) 0.0282(99) 0.6161(60)
N1_16 N 1.0000 1.0000 0.6667
H4_3 H 0.9185(88) 0.890(13) 0.7173(60)
loop_
_geom_bond_atom_site_label_1
_geom_bond_atom_site_label_2
_geom_bond_site_symmetry_1
_geom_bond_site_symmetry_2
Ti1 O1 1_555 1_555
O1 C1 1_555 1_555
O2 C2 1_555 1_555
C1 C2 1_555 1_555
C2 O4 1_555 1_555
O3 C1 1_555 1_555
O4 Ti1 1_555 1_555
O5 Ti1 1_555 1_555
O6 C4 1_555 1_555
C3 O5 1_555 1_555
C4 C3 1_555 1_555
O7 C3 1_555 1_555
O8 Ti1 1_555 1_555
O9 Ti1 1_555 1_555
O10 Ti1 1_555 1_555
O11 Ti1 1_555 1_555
O12 Ti1 1_555 1_555
Ti2_2 O2 1_555 1_555
Ti3 O6 1_555 1_555
O3 Ti2_2 1_555 1_555
C4 O8 1_555 1_555
O7 Ti3 1_555 1_555
Ti2 O1_2 1_555 1_555
O1_2 C1_2 1_555 1_555
O2_2 C2_2 1_555 1_555
C1_2 C2_2 1_555 1_555
C2_2 O4_2 1_555 1_555
O3_2 C1_2 1_555 1_555
O4_2 Ti2 1_555 1_555
O5_2 Ti2 1_555 1_555
O11 C4_2 1_555 1_555
C3_2 O5_2 1_555 1_555
C4_2 C3_2 1_555 1_555
O9 C3_2 1_555 1_555
O8_2 Ti2 1_555 1_555
Ti3_4 O2_2 1_555 1_555
O3_2 Ti3_4 1_555 1_555
C4_2 O8_2 1_555 1_555
O9_2 Ti2_2 1_555 1_555
O11_2 Ti2_2 1_555 1_555
O5_3 Ti3_2 1_555 1_555
O11_2 C4_3 1_555 1_555
C3_3 O5_3 1_555 1_555
C4_3 C3_3 1_555 1_555
O9_2 C3_3 1_555 1_555
O8_3 Ti3_2 1_555 1_555
C4_3 O8_3 1_555 1_555
O9_3 Ti3_3 1_555 1_555
O11_3 Ti3_3 1_555 1_555
O11_3 C4_4 1_555 1_555
C3_4 O10 1_555 1_555
C4_4 C3_4 1_555 1_555
O9_3 C3_4 1_555 1_555
C4_4 O12 1_555 1_555
H4 N1_2 1_555 1_555
H3 N1_3 1_555 1_555
N1_5 H1 1_555 1_555
H2 N1_8 1_555 1_555
H3_2 N1_9 1_555 1_555
H4_2 N1_9 1_555 1_555
N1_12 H1_2 1_555 1_555
H2_2 N1_12 1_555 1_555
H2_3 N1_13 1_555 1_555
H3_3 N1_14 1_555 1_555
N1_15 H1_3 1_555 1_555
H4_3 N1_16 1_555 1_555

#END
