
###############################################################################
#
# This file contains modified crystal structure data generated from the
# MOF subset of the Cambridge Structural Database (CSD) v543 
# hosted by the Cambridge Crystallographic Data Centre (CCDC).
#
# This work is licensed under the Creative Commons
# Attribution-NonCommercial-ShareAlike 4.0 International License.
# To view a copy of this license, visit
# http://creativecommons.org/licenses/by-nc-sa/4.0/
# or send a letter to
# Creative Commons, PO Box 1866, Mountain View, CA 94042, USA.
#
# CIF created using the CSD Python API on 29 September 2022
# The structure has been converted into the P1 space group
# The structure has a 3D framework
# The original CSD entry LAJJAK is in the orthorhombic crystal system
# The framework has been calculated to contain at least 10.0% void space
# The void calculation uses a probe of radius 1.32A, grid spacing 0.4
#
###############################################################################

data_LAJJAK
_chemical_formula_moiety         '(C48 H32 N24 O16 Zn8)n'
_symmetry_cell_setting           triclinic
_symmetry_space_group_name_H-M   'P 1'
_symmetry_Int_Tables_number      1
_space_group_name_Hall           'P 1'
loop_
_symmetry_equiv_pos_site_id
_symmetry_equiv_pos_as_xyz
1 x,y,z
_cell_length_a                   10.0327(6)
_cell_length_b                   25.6510(12)
_cell_length_c                   9.5121(8)
_cell_angle_alpha                90
_cell_angle_beta                 90
_cell_angle_gamma                90
_cell_volume                     2447.93
loop_
_atom_site_label
_atom_site_type_symbol
_atom_site_fract_x
_atom_site_fract_y
_atom_site_fract_z
Zn1 Zn 0.39245(7) 0.45186(3) 0.07823(7)
C1 C 0.1391(6) 0.4492(3) 0.2448(8)
H1 H 0.1040 0.4245 0.1836
C2 C 0.2678(6) 0.5023(2) 0.3398(7)
H2 H 0.3423 0.5225 0.3606
C3 C 0.3546(8) 0.3485(3) 0.1003(8)
C4 C 0.3456(10) 0.2500 0.1085(10)
H3 H 0.4261 0.2500 0.1571
C5 C 0.2854(7) 0.2972(2) 0.0721(7)
C6 C 0.1639(7) 0.2963(3) 0.0057(9)
N1 N 0.2615(5) 0.4691(2) 0.2307(6)
N2 N 0.0738(5) 0.4674(2) 0.3510(6)
N3 N 0.1568(5) 0.50316(19) 0.4140(5)
O1 O 0.3233(5) 0.38481(17) 0.0178(5)
O2 O 0.4330(5) 0.3532(2) 0.1985(6)
C8 C 0.3546(8) 0.1515(3) 0.1003(8)
C9 C 0.2854(7) 0.2028(2) 0.0721(7)
C10 C 0.1639(7) 0.2037(3) 0.0057(9)
O3 O 0.3233(5) 0.11519(17) 0.0178(5)
O4 O 0.4330(5) 0.1468(2) 0.1985(6)
Zn2 Zn 0.39245(7) 0.04814(3) 0.07823(7)
C11 C 0.1391(6) 0.0508(3) 0.2448(8)
H7 H 0.1040 0.0755 0.1836
N4 N 0.2615(5) 0.0309(2) 0.2307(6)
N5 N 0.0738(5) 0.0326(2) 0.3510(6)
Zn3 Zn 0.10755(7) 0.54814(3) 0.57823(7)
N7 N 0.5738(5) 0.0326(2) 0.1490(6)
N8 N 0.5738(5) 0.4674(2) 0.1490(6)
H4 H 0.1234 0.3276 0.9810
C7 C 0.1008(11) 0.2500 0.9750(16)
H5 H 0.0166 0.2500 0.9341
H6 H 0.1234 0.1724 0.9810
N9 N 0.3432(5) 0.49684(19) 0.9140(5)
N10 N 0.3432(5) 0.00316(19) 0.9140(5)
C12 C 0.2678(6) 0.9977(2) 0.3398(7)
H8 H 0.3423 0.9775 0.3606
N6 N 0.1568(5) 0.99684(19) 0.4140(5)
Zn6 Zn 0.10755(7) 0.95186(3) 0.57823(7)
Zn4 Zn 0.89245(7) 0.04814(3) 0.42177(7)
Zn5 Zn 0.89245(7) 0.45186(3) 0.42177(7)
C12_2 C 0.2322(6) 0.0023(2) 0.8398(7)
H8_2 H 0.1577 0.0225 0.8606
C1_2 C 0.3609(6) 0.5508(3) 0.7448(8)
H1_2 H 0.3960 0.5755 0.6836
C2_2 C 0.2322(6) 0.4977(2) 0.8398(7)
H2_2 H 0.1577 0.4775 0.8606
C3_2 C 0.1454(8) 0.6515(3) 0.6003(8)
C4_2 C 0.1544(10) 0.7500 0.6085(10)
H3_2 H 0.0739 0.7500 0.6571
C5_2 C 0.2146(7) 0.7028(2) 0.5721(7)
C6_2 C 0.3361(7) 0.7037(3) 0.5057(9)
H4_2 H 0.3766 0.6724 0.4810
C7_2 C 0.3992(11) 0.7500 0.4750(16)
H5_2 H 0.4834 0.7500 0.4341
N1_2 N 0.2385(5) 0.5309(2) 0.7307(6)
N2_2 N 0.4262(5) 0.5326(2) 0.8510(6)
O1_2 O 0.1767(5) 0.61519(17) 0.5178(5)
O2_2 O 0.0670(5) 0.6468(2) 0.6985(6)
C8_2 C 0.1454(8) 0.8485(3) 0.6003(8)
C9_2 C 0.2146(7) 0.7972(2) 0.5721(7)
C10_2 C 0.3361(7) 0.7963(3) 0.5057(9)
H6_2 H 0.3766 0.8276 0.4810
O3_2 O 0.1767(5) 0.88481(17) 0.5178(5)
O4_2 O 0.0670(5) 0.8532(2) 0.6985(6)
C11_2 C 0.3609(6) 0.9492(3) 0.7448(8)
H7_2 H 0.3960 0.9245 0.6836
N4_2 N 0.2385(5) 0.9691(2) 0.7307(6)
N5_2 N 0.4262(5) 0.9674(2) 0.8510(6)
Zn4_2 Zn 0.60755(7) 0.95186(3) 0.92177(7)
Zn5_2 Zn 0.60755(7) 0.54814(3) 0.92177(7)
N7_2 N 0.9262(5) 0.9674(2) 0.6490(6)
N8_2 N 0.9262(5) 0.5326(2) 0.6490(6)
C1_3 C 0.6391(6) 0.0508(3) 0.2552(8)
H1_3 H 0.6040 0.0755 0.3164
C3_3 C 0.8546(8) 0.1515(3) 0.3997(8)
C4_3 C 0.8456(10) 0.2500 0.3915(10)
H3_3 H 0.9261 0.2500 0.3429
C5_3 C 0.7854(7) 0.2028(2) 0.4279(7)
C6_3 C 0.6639(7) 0.2037(3) 0.4943(9)
H4_3 H 0.6234 0.1724 0.5190
C7_3 C 0.6008(11) 0.2500 0.5250(16)
H5_3 H 0.5166 0.2500 0.5659
N1_3 N 0.7615(5) 0.0309(2) 0.2693(6)
O1_3 O 0.8233(5) 0.11519(17) 0.4822(5)
O2_3 O 0.9330(5) 0.1468(2) 0.3015(6)
C8_3 C 0.8546(8) 0.3485(3) 0.3997(8)
C9_3 C 0.7854(7) 0.2972(2) 0.4279(7)
C10_3 C 0.6639(7) 0.2963(3) 0.4943(9)
H6_3 H 0.6234 0.3276 0.5190
O3_3 O 0.8233(5) 0.38481(17) 0.4822(5)
O4_3 O 0.9330(5) 0.3532(2) 0.3015(6)
C11_3 C 0.6391(6) 0.4492(3) 0.2552(8)
H7_3 H 0.6040 0.4245 0.3164
C12_3 C 0.7678(6) 0.5023(2) 0.1602(7)
H8_3 H 0.8423 0.5225 0.1394
N4_3 N 0.7615(5) 0.4691(2) 0.2693(6)
N6_2 N 0.6568(5) 0.50316(19) 0.0860(5)
N9_2 N 0.8432(5) 0.00316(19) 0.5860(5)
N10_2 N 0.8432(5) 0.49684(19) 0.5860(5)
C2_3 C 0.7678(6) 0.9977(2) 0.1602(7)
H2_3 H 0.8423 0.9775 0.1394
N3_2 N 0.6568(5) 0.99684(19) 0.0860(5)
C2_4 C 0.7322(6) 0.0023(2) 0.6602(7)
H2_4 H 0.6577 0.0225 0.6394
H4_4 H 0.8766 0.8276 0.0190
C7_4 C 0.8992(11) 0.7500 0.0250(16)
H5_4 H 0.9834 0.7500 0.0659
H6_4 H 0.8766 0.6724 0.0190
C1_4 C 0.8609(6) 0.9492(3) 0.7552(8)
H1_4 H 0.8960 0.9245 0.8164
C3_4 C 0.6454(8) 0.8485(3) 0.8997(8)
C4_4 C 0.6544(10) 0.7500 0.8915(10)
H3_4 H 0.5739 0.7500 0.8429
C5_4 C 0.7146(7) 0.7972(2) 0.9279(7)
C6_4 C 0.8361(7) 0.7963(3) 0.9943(9)
N1_4 N 0.7385(5) 0.9691(2) 0.7693(6)
O1_4 O 0.6767(5) 0.88481(17) 0.9822(5)
O2_4 O 0.5670(5) 0.8532(2) 0.8015(6)
C8_4 C 0.6454(8) 0.6515(3) 0.8997(8)
C9_4 C 0.7146(7) 0.7028(2) 0.9279(7)
C10_4 C 0.8361(7) 0.7037(3) 0.9943(9)
O3_4 O 0.6767(5) 0.61519(17) 0.9822(5)
O4_4 O 0.5670(5) 0.6468(2) 0.8015(6)
C11_4 C 0.8609(6) 0.5508(3) 0.7552(8)
H7_4 H 0.8960 0.5755 0.8164
C12_4 C 0.7322(6) 0.4977(2) 0.6602(7)
H8_4 H 0.6577 0.4775 0.6394
N4_4 N 0.7385(5) 0.5309(2) 0.7693(6)
loop_
_geom_bond_atom_site_label_1
_geom_bond_atom_site_label_2
_geom_bond_site_symmetry_1
_geom_bond_site_symmetry_2
Zn1 N1 1_555 1_555
C1 H1 1_555 1_555
C2 H2 1_555 1_555
C3 C5 1_555 1_555
C4 H3 1_555 1_555
C5 C4 1_555 1_555
C6 C5 1_555 1_555
N1 C1 1_555 1_555
N2 C1 1_555 1_555
N3 C2 1_555 1_555
O1 Zn1 1_555 1_555
O2 C3 1_555 1_555
C8 C9 1_555 1_555
C9 C4 1_555 1_555
O3 C8 1_555 1_555
O4 C8 1_555 1_555
Zn2 O3 1_555 1_555
C11 H7 1_555 1_555
N4 Zn2 1_555 1_555
N5 C11 1_555 1_555
Zn3 N3 1_555 1_555
N7 Zn2 1_555 1_555
N8 Zn1 1_555 1_555
C2 N1 1_555 1_555
C3 O1 1_555 1_555
N2 N3 1_555 1_555
C9 C10 1_555 1_555
C11 N4 1_555 1_555
H5 C7 1_555 1_555
C12 H8 1_555 1_555
N6 C12 1_555 1_555
Zn6 N6 1_555 1_555
C12_2 H8_2 1_555 1_555
N10 C12_2 1_555 1_555
Zn3 N1_2 1_555 1_555
C1_2 H1_2 1_555 1_555
C2_2 H2_2 1_555 1_555
C3_2 C5_2 1_555 1_555
C4_2 H3_2 1_555 1_555
C5_2 C4_2 1_555 1_555
C6_2 C5_2 1_555 1_555
H4_2 C6_2 1_555 1_555
C7_2 C6_2 1_555 1_555
H5_2 C7_2 1_555 1_555
N1_2 C1_2 1_555 1_555
N2_2 C1_2 1_555 1_555
N9 C2_2 1_555 1_555
O1_2 Zn3 1_555 1_555
O2_2 C3_2 1_555 1_555
C8_2 C9_2 1_555 1_555
C9_2 C4_2 1_555 1_555
C10_2 C7_2 1_555 1_555
H6_2 C10_2 1_555 1_555
O3_2 C8_2 1_555 1_555
O4_2 C8_2 1_555 1_555
Zn6 O3_2 1_555 1_555
C11_2 H7_2 1_555 1_555
N4_2 Zn6 1_555 1_555
N5_2 C11_2 1_555 1_555
Zn4_2 N5_2 1_555 1_555
Zn5_2 N2_2 1_555 1_555
C2_2 N1_2 1_555 1_555
C3_2 O1_2 1_555 1_555
N2_2 N9 1_555 1_555
C9_2 C10_2 1_555 1_555
C11_2 N4_2 1_555 1_555
Zn4 N1_3 1_555 1_555
C1_3 H1_3 1_555 1_555
C3_3 C5_3 1_555 1_555
C4_3 H3_3 1_555 1_555
C5_3 C4_3 1_555 1_555
C6_3 C5_3 1_555 1_555
H4_3 C6_3 1_555 1_555
C7_3 C6_3 1_555 1_555
H5_3 C7_3 1_555 1_555
N1_3 C1_3 1_555 1_555
N7 C1_3 1_555 1_555
O1_3 Zn4 1_555 1_555
O2_3 C3_3 1_555 1_555
C8_3 C9_3 1_555 1_555
C9_3 C4_3 1_555 1_555
C10_3 C7_3 1_555 1_555
H6_3 C10_3 1_555 1_555
O3_3 C8_3 1_555 1_555
O4_3 C8_3 1_555 1_555
Zn5 O3_3 1_555 1_555
C11_3 H7_3 1_555 1_555
C12_3 H8_3 1_555 1_555
N4_3 Zn5 1_555 1_555
N8 C11_3 1_555 1_555
N6_2 C12_3 1_555 1_555
N9_2 Zn4 1_555 1_555
N10_2 Zn5 1_555 1_555
C3_3 O1_3 1_555 1_555
C9_3 C10_3 1_555 1_555
C11_3 N4_3 1_555 1_555
C12_3 N4_3 1_555 1_555
N8 N6_2 1_555 1_555
C2_3 H2_3 1_555 1_555
N3_2 C2_3 1_555 1_555
C2_4 H2_4 1_555 1_555
N9_2 C2_4 1_555 1_555
H5_4 C7_4 1_555 1_555
Zn4_2 N1_4 1_555 1_555
C1_4 H1_4 1_555 1_555
C3_4 C5_4 1_555 1_555
C4_4 H3_4 1_555 1_555
C5_4 C4_4 1_555 1_555
C6_4 C5_4 1_555 1_555
N1_4 C1_4 1_555 1_555
N7_2 C1_4 1_555 1_555
O1_4 Zn4_2 1_555 1_555
O2_4 C3_4 1_555 1_555
C8_4 C9_4 1_555 1_555
C9_4 C4_4 1_555 1_555
O3_4 C8_4 1_555 1_555
O4_4 C8_4 1_555 1_555
Zn5_2 O3_4 1_555 1_555
C11_4 H7_4 1_555 1_555
C12_4 H8_4 1_555 1_555
N4_4 Zn5_2 1_555 1_555
N8_2 C11_4 1_555 1_555
N10_2 C12_4 1_555 1_555
C3_4 O1_4 1_555 1_555
C9_4 C10_4 1_555 1_555
C11_4 N4_4 1_555 1_555
C12_4 N4_4 1_555 1_555
N8_2 N10_2 1_555 1_555

#END
