
###############################################################################
#
# This file contains modified crystal structure data generated from the
# MOF subset of the Cambridge Structural Database (CSD) v543 
# hosted by the Cambridge Crystallographic Data Centre (CCDC).
#
# This work is licensed under the Creative Commons
# Attribution-NonCommercial-ShareAlike 4.0 International License.
# To view a copy of this license, visit
# http://creativecommons.org/licenses/by-nc-sa/4.0/
# or send a letter to
# Creative Commons, PO Box 1866, Mountain View, CA 94042, USA.
#
# CIF created using the CSD Python API on 29 September 2022
# The structure has been converted into the P1 space group
# The structure has a 3D framework
# The original CSD entry LAJLEP is in the cubic crystal system
# The original CSD entry LAJLEP is in a Sohncke space group
# The framework has been calculated to contain at least 10.0% void space
# The void calculation uses a probe of radius 1.32A, grid spacing 0.4
# The framework is charged, counterions have been retained in the structure
# H atom positions have been added when not included in the experimental data
#
###############################################################################

data_LAJLEP
_chemical_formula_moiety         '(C576 H1176 O528 Rb20 28-)n'
_symmetry_cell_setting           triclinic
_symmetry_space_group_name_H-M   'P 1'
_symmetry_Int_Tables_number      1
_space_group_name_Hall           'P 1'
loop_
_symmetry_equiv_pos_site_id
_symmetry_equiv_pos_as_xyz
1 x,y,z
_cell_length_a                   31.0790(12)
_cell_length_b                   31.0790(12)
_cell_length_c                   31.0790(12)
_cell_angle_alpha                90
_cell_angle_beta                 90
_cell_angle_gamma                90
_cell_volume                     30019.3
loop_
_atom_site_label
_atom_site_type_symbol
_atom_site_fract_x
_atom_site_fract_y
_atom_site_fract_z
Rb4 Rb 0.31338(3) 0.68662(3) 0.0000
Rb5 Rb 0.18662(3) 0.5000 0.18662(3)
Rb6 Rb -0.0000 0.68662(3) 0.31338(3)
O12 O 0.1615(3) 0.6914(2) 0.1416(2)
C14 C 0.1823(4) 0.6541(3) 0.1255(3)
H22 H 0.2139 0.6600 0.1240
O15 O 0.1970(3) 0.5792(2) 0.1378(2)
H25 H 0.1914 0.5766 0.1069
C17 C 0.1754(4) 0.6157(3) 0.1541(3)
H30 H 0.1874 0.6224 0.1832
O20 O 0.1210(3) 0.5728(2) 0.1883(2)
H33 H 0.1260 0.5452 0.1738
C20 C 0.1286(3) 0.6072(3) 0.1587(3)
H38 H 0.1167 0.5990 0.1300
O25 O 0.0599(2) 0.64160(17) 0.17499(16)
C23 C 0.1050(3) 0.6480(2) 0.1747(2)
H41 H 0.1150 0.6552 0.2044
C26 C 0.1151(3) 0.6857(3) 0.1444(3)
H44 H 0.1029 0.6800 0.1151
O28 O 0.1127(4) 0.7364(4) 0.2071(4)
H47 H 0.0877 0.7418 0.2256
C29 C 0.0979(5) 0.7280(5) 0.1618(5)
H50 H 0.1076 0.7518 0.1430
H53 H 0.0660 0.7274 0.1612
O31 O 0.01486(18) 0.67910(16) 0.22184(16)
C32 C 0.0403(3) 0.6405(2) 0.2154(2)
H56 H 0.0634 0.6397 0.2379
O38 O 0.0396(2) 0.5638(2) 0.2136(2)
H59 H 0.0667 0.5713 0.1993
C35 C 0.0142(3) 0.6021(3) 0.2197(3)
H62 H 0.0035 0.6014 0.2501
O40 O 0.2008(3) 0.5654(2) 0.0516(2)
H64 H 0.1940 0.5725 0.0816
C37 C 0.1916(3) 0.6027(3) 0.0242(3)
H67 H 0.1609 0.6016 0.0148
O44 O 0.1677(2) 0.64470(16) 0.08404(17)
C40 C 0.1990(2) 0.6441(2) 0.0499(3)
H72 H 0.2287 0.6439 0.0624
C43 C 0.1936(2) 0.6826(2) 0.0214(3)
H75 H 0.1633 0.6833 0.0108
O48 O 0.2444(3) 0.7231(2) 0.0593(2)
H78 H 0.2504 0.7499 0.0747
C48 C 0.2033(3) 0.7246(3) 0.0424(3)
H85 H 0.2012 0.7482 0.0210
H88 H 0.1822 0.7303 0.0656
O8 O 0.0516(2) 0.5654(2) 0.7992(3)
H14 H 0.0816 0.5725 0.8060
C9 C 0.0242(3) 0.6027(3) 0.8084(3)
H15 H 0.0148 0.6016 0.8391
C10 C 0.0499(3) 0.6441(2) 0.8010(2)
H16 H 0.0624 0.6439 0.7713
C11 C 0.0214(3) 0.6826(2) 0.8064(2)
H17 H 0.0108 0.6833 0.8367
O10 O 0.0593(2) 0.7231(2) 0.7556(3)
H18 H 0.0747 0.7499 0.7496
C12 C 0.0424(3) 0.7246(3) 0.7967(3)
H19 H 0.0210 0.7482 0.7988
H20 H 0.0656 0.7303 0.8178
Rb2 Rb 0.18662(3) 0.5000 0.81338(3)
Rb3 Rb 0.0000 0.68662(3) 0.68662(3)
Rb4_2 Rb 0.31338(3) 0.68662(3) 1.0000
O11 O 0.1416(2) 0.6914(2) 0.8385(3)
C13 C 0.1255(3) 0.6541(3) 0.8177(4)
H21 H 0.1240 0.6600 0.7861
O14 O 0.1378(2) 0.5792(2) 0.8030(3)
O18 O 0.1970(3) 0.4208(2) 0.8622(2)
H24 H 0.1069 0.5766 0.8086
H28 H 0.1914 0.4234 0.8931
C16 C 0.1541(3) 0.6157(3) 0.8246(4)
H29 H 0.1832 0.6224 0.8126
O19 O 0.1883(2) 0.5728(2) 0.8790(3)
O23 O 0.1210(3) 0.4272(2) 0.8117(2)
H32 H 0.1738 0.5452 0.8740
H36 H 0.1260 0.4548 0.8262
C19 C 0.1587(3) 0.6072(3) 0.8714(3)
H37 H 0.1300 0.5990 0.8833
O24 O 0.17499(16) 0.64160(17) 0.9401(2)
C22 C 0.1747(2) 0.6480(2) 0.8950(3)
H42 H 0.2044 0.6552 0.8850
C25 C 0.1444(3) 0.6857(3) 0.8849(3)
H45 H 0.1151 0.6800 0.8971
O29 O 0.2071(4) 0.7364(4) 0.8873(4)
H48 H 0.2256 0.7418 0.9123
C30 C 0.1618(5) 0.7280(5) 0.9021(5)
H51 H 0.1430 0.7518 0.8924
H54 H 0.1612 0.7274 0.9340
O30 O 0.22184(16) 0.67910(16) 0.98514(18)
O35 O 0.27816(16) 0.51486(18) 0.82090(16)
O36 O 0.17910(16) 0.48514(18) 0.72184(16)
C31 C 0.2154(2) 0.6405(2) 0.9597(3)
H55 H 0.2379 0.6397 0.9366
O37 O 0.2136(2) 0.5638(2) 0.9604(2)
H58 H 0.1993 0.5713 0.9333
C34 C 0.2197(3) 0.6021(3) 0.9858(3)
H61 H 0.2501 0.6014 0.9965
O43 O 0.08404(17) 0.64470(16) 0.8323(2)
O51 O 0.2556(3) 0.4407(2) 0.7769(2)
O52 O 0.2231(2) 0.5593(2) 0.7444(3)
H81 H 0.2496 0.4253 0.7501
H82 H 0.2499 0.5747 0.7504
H90 H 0.126029 0.399019 0.825891
H91 H 0.22706 0.410666 0.858387
H94 H 0.261864 0.418698 0.799206
H95 H 0.200794 0.581302 0.738136
Rb6_2 Rb 1.0000 0.68662(3) 0.31338(3)
Rb7 Rb 0.81338(3) 0.5000 0.18662(3)
Rb8 Rb 0.68662(3) 0.68662(3) 0.0000
O13 O 0.8584(2) 0.6914(2) 0.1615(3)
C15 C 0.8745(3) 0.6541(3) 0.1823(4)
H23 H 0.8760 0.6600 0.2139
O16 O 0.8622(2) 0.5792(2) 0.1970(3)
H26 H 0.8931 0.5766 0.1914
C18 C 0.8459(3) 0.6157(3) 0.1754(4)
H31 H 0.8168 0.6224 0.1874
O21 O 0.8117(2) 0.5728(2) 0.1210(3)
H34 H 0.8262 0.5452 0.1260
C21 C 0.8413(3) 0.6072(3) 0.1286(3)
H39 H 0.8700 0.5990 0.1167
O26 O 0.82501(16) 0.64160(17) 0.0599(2)
C24 C 0.8253(2) 0.6480(2) 0.1050(3)
H40 H 0.7956 0.6552 0.1150
C27 C 0.8556(3) 0.6857(3) 0.1151(3)
H43 H 0.8849 0.6800 0.1029
O27 O 0.7929(4) 0.7364(4) 0.1127(4)
H46 H 0.7744 0.7418 0.0877
C28 C 0.8382(5) 0.7280(5) 0.0979(5)
H49 H 0.8570 0.7518 0.1076
H52 H 0.8388 0.7274 0.0660
O32 O 0.77816(16) 0.67910(16) 0.01486(18)
C33 C 0.7846(2) 0.6405(2) 0.0403(3)
H57 H 0.7621 0.6397 0.0634
O39 O 0.7864(2) 0.5638(2) 0.0396(2)
H60 H 0.8007 0.5713 0.0667
C36 C 0.7803(3) 0.6021(3) 0.0142(3)
H63 H 0.7499 0.6014 0.0035
O41 O 0.9484(2) 0.5654(2) 0.2008(3)
H65 H 0.9184 0.5725 0.1940
C38 C 0.9758(3) 0.6027(3) 0.1916(3)
H68 H 0.9852 0.6016 0.1609
O45 O 0.91596(17) 0.64470(16) 0.1677(2)
C41 C 0.9501(3) 0.6441(2) 0.1990(2)
H71 H 0.9376 0.6439 0.2287
C44 C 0.9786(3) 0.6826(2) 0.1936(2)
H74 H 0.9892 0.6833 0.1633
O47 O 0.9407(2) 0.7231(2) 0.2444(3)
H77 H 0.9253 0.7499 0.2504
C47 C 0.9576(3) 0.7246(3) 0.2033(3)
H84 H 0.9790 0.7482 0.2012
H87 H 0.9344 0.7303 0.1822
Rb1 Rb 0.81338(3) 0.5000 0.81338(3)
O1 O 0.8385(3) 0.6914(2) 0.8584(2)
C1 C 0.8177(4) 0.6541(3) 0.8745(3)
H1 H 0.7861 0.6600 0.8760
O2 O 0.8030(3) 0.5792(2) 0.8622(2)
H2 H 0.8086 0.5766 0.8931
C2 C 0.8246(4) 0.6157(3) 0.8459(3)
H3 H 0.8126 0.6224 0.8168
O3 O 0.8790(3) 0.5728(2) 0.8117(2)
H4 H 0.8740 0.5452 0.8262
C3 C 0.8714(3) 0.6072(3) 0.8413(3)
H5 H 0.8833 0.5990 0.8700
O4 O 0.9401(2) 0.64160(17) 0.82501(16)
C4 C 0.8950(3) 0.6480(2) 0.8253(2)
H6 H 0.8850 0.6552 0.7956
C5 C 0.8849(3) 0.6857(3) 0.8556(3)
H7 H 0.8971 0.6800 0.8849
O5 O 0.8873(4) 0.7364(4) 0.7929(4)
H8 H 0.9123 0.7418 0.7744
C6 C 0.9021(5) 0.7280(5) 0.8382(5)
H9 H 0.8924 0.7518 0.8570
H10 H 0.9340 0.7274 0.8388
O6 O 0.98514(18) 0.67910(16) 0.77816(16)
C7 C 0.9597(3) 0.6405(2) 0.7846(2)
H11 H 0.9366 0.6397 0.7621
O7 O 0.9604(2) 0.5638(2) 0.7864(2)
H12 H 0.9333 0.5713 0.8007
C8 C 0.9858(3) 0.6021(3) 0.7803(3)
H13 H 0.9965 0.6014 0.7499
O9 O 0.8323(2) 0.64470(16) 0.91596(17)
Rb3_2 Rb 1.0000 0.68662(3) 0.68662(3)
Rb8_2 Rb 0.68662(3) 0.68662(3) 1.0000
O17 O 0.8622(2) 0.4208(2) 0.8030(3)
H27 H 0.8931 0.4234 0.8086
O22 O 0.8117(2) 0.4272(2) 0.8790(3)
H35 H 0.8262 0.4548 0.8740
O33 O 0.82090(16) 0.51486(18) 0.72184(16)
O34 O 0.72184(16) 0.48514(18) 0.82090(16)
O42 O 0.7992(3) 0.5654(2) 0.9484(2)
H66 H 0.8060 0.5725 0.9184
C39 C 0.8084(3) 0.6027(3) 0.9758(3)
H69 H 0.8391 0.6016 0.9852
C42 C 0.8010(2) 0.6441(2) 0.9501(3)
H70 H 0.7713 0.6439 0.9376
C45 C 0.8064(2) 0.6826(2) 0.9786(3)
H73 H 0.8367 0.6833 0.9892
O46 O 0.7556(3) 0.7231(2) 0.9407(2)
O49 O 0.7769(2) 0.4407(2) 0.7444(3)
O50 O 0.7444(3) 0.5593(2) 0.7769(2)
H76 H 0.7496 0.7499 0.9253
H79 H 0.7501 0.4253 0.7504
H80 H 0.7504 0.5747 0.7501
C46 C 0.7967(3) 0.7246(3) 0.9576(3)
H83 H 0.7988 0.7482 0.9790
H86 H 0.8178 0.7303 0.9344
H89 H 0.825891 0.399019 0.873971
H92 H 0.858387 0.410666 0.77294
H93 H 0.799206 0.418698 0.738136
H96 H 0.738136 0.581302 0.799206
Rb4_3 Rb 0.31338(3) 0.31338(3) 0.0000
Rb5_2 Rb 0.5000 0.18662(3) 0.18662(3)
Rb6_3 Rb 0.31338(3) -0.0000 0.31338(3)
O12_2 O 0.3086(2) 0.1615(3) 0.1416(2)
C14_2 C 0.3459(3) 0.1823(4) 0.1255(3)
H22_2 H 0.3400 0.2139 0.1240
O15_2 O 0.4208(2) 0.1970(3) 0.1378(2)
H25_2 H 0.4234 0.1914 0.1069
C17_2 C 0.3843(3) 0.1754(4) 0.1541(3)
H30_2 H 0.3776 0.1874 0.1832
O20_2 O 0.4272(2) 0.1210(3) 0.1883(2)
H33_2 H 0.4548 0.1260 0.1738
C20_2 C 0.3928(3) 0.1286(3) 0.1587(3)
H38_2 H 0.4010 0.1167 0.1300
O25_2 O 0.35840(17) 0.0599(2) 0.17499(16)
C23_2 C 0.3520(2) 0.1050(3) 0.1747(2)
H41_2 H 0.3448 0.1150 0.2044
C26_2 C 0.3143(3) 0.1151(3) 0.1444(3)
H44_2 H 0.3200 0.1029 0.1151
O28_2 O 0.2636(4) 0.1127(4) 0.2071(4)
H47_2 H 0.2582 0.0877 0.2256
C29_2 C 0.2720(5) 0.0979(5) 0.1618(5)
H50_2 H 0.2482 0.1076 0.1430
H53_2 H 0.2726 0.0660 0.1612
O31_2 O 0.32090(16) 0.01486(18) 0.22184(16)
C32_2 C 0.3595(2) 0.0403(3) 0.2154(2)
H56_2 H 0.3603 0.0634 0.2379
O38_2 O 0.4362(2) 0.0396(2) 0.2136(2)
H59_2 H 0.4287 0.0667 0.1993
C35_2 C 0.3979(3) 0.0142(3) 0.2197(3)
H62_2 H 0.3986 0.0035 0.2501
O40_2 O 0.4346(2) 0.2008(3) 0.0516(2)
H64_2 H 0.4275 0.1940 0.0816
C37_2 C 0.3973(3) 0.1916(3) 0.0242(3)
H67_2 H 0.3984 0.1609 0.0148
O44_2 O 0.35530(16) 0.1677(2) 0.08404(17)
C40_2 C 0.3559(2) 0.1990(2) 0.0499(3)
H72_2 H 0.3561 0.2287 0.0624
C43_2 C 0.3174(2) 0.1936(2) 0.0214(3)
H75_2 H 0.3167 0.1633 0.0108
O48_2 O 0.2769(2) 0.2444(3) 0.0593(2)
H78_2 H 0.2501 0.2504 0.0747
C48_2 C 0.2754(3) 0.2033(3) 0.0424(3)
H85_2 H 0.2518 0.2012 0.0210
H88_2 H 0.2697 0.1822 0.0656
O8_2 O 0.4346(2) 0.0516(2) 0.7992(3)
H14_2 H 0.4275 0.0816 0.8060
C9_2 C 0.3973(3) 0.0242(3) 0.8084(3)
H15_2 H 0.3984 0.0148 0.8391
C10_2 C 0.3559(2) 0.0499(3) 0.8010(2)
H16_2 H 0.3561 0.0624 0.7713
C11_2 C 0.3174(2) 0.0214(3) 0.8064(2)
H17_2 H 0.3167 0.0108 0.8367
O10_2 O 0.2769(2) 0.0593(2) 0.7556(3)
H18_2 H 0.2501 0.0747 0.7496
C12_2 C 0.2754(3) 0.0424(3) 0.7967(3)
H19_2 H 0.2518 0.0210 0.7988
H20_2 H 0.2697 0.0656 0.8178
Rb2_2 Rb 0.5000 0.18662(3) 0.81338(3)
Rb3_3 Rb 0.31338(3) 0.0000 0.68662(3)
Rb4_4 Rb 0.31338(3) 0.31338(3) 1.0000
O11_2 O 0.3086(2) 0.1416(2) 0.8385(3)
C13_2 C 0.3459(3) 0.1255(3) 0.8177(4)
H21_2 H 0.3400 0.1240 0.7861
O14_2 O 0.4208(2) 0.1378(2) 0.8030(3)
O18_2 O 0.5792(2) 0.1970(3) 0.8622(2)
H24_2 H 0.4234 0.1069 0.8086
H28_2 H 0.5766 0.1914 0.8931
C16_2 C 0.3843(3) 0.1541(3) 0.8246(4)
H29_2 H 0.3776 0.1832 0.8126
O19_2 O 0.4272(2) 0.1883(2) 0.8790(3)
O23_2 O 0.5728(2) 0.1210(3) 0.8117(2)
H32_2 H 0.4548 0.1738 0.8740
H36_2 H 0.5452 0.1260 0.8262
C19_2 C 0.3928(3) 0.1587(3) 0.8714(3)
H37_2 H 0.4010 0.1300 0.8833
O24_2 O 0.35840(17) 0.17499(16) 0.9401(2)
C22_2 C 0.3520(2) 0.1747(2) 0.8950(3)
H42_2 H 0.3448 0.2044 0.8850
C25_2 C 0.3143(3) 0.1444(3) 0.8849(3)
H45_2 H 0.3200 0.1151 0.8971
O29_2 O 0.2636(4) 0.2071(4) 0.8873(4)
H48_2 H 0.2582 0.2256 0.9123
C30_2 C 0.2720(5) 0.1618(5) 0.9021(5)
H51_2 H 0.2482 0.1430 0.8924
H54_2 H 0.2726 0.1612 0.9340
O30_2 O 0.32090(16) 0.22184(16) 0.98514(18)
O35_2 O 0.48514(18) 0.27816(16) 0.82090(16)
O36_2 O 0.51486(18) 0.17910(16) 0.72184(16)
C31_2 C 0.3595(2) 0.2154(2) 0.9597(3)
H55_2 H 0.3603 0.2379 0.9366
O37_2 O 0.4362(2) 0.2136(2) 0.9604(2)
H58_2 H 0.4287 0.1993 0.9333
C34_2 C 0.3979(3) 0.2197(3) 0.9858(3)
H61_2 H 0.3986 0.2501 0.9965
O43_2 O 0.35530(16) 0.08404(17) 0.8323(2)
O51_2 O 0.5593(2) 0.2556(3) 0.7769(2)
O52_2 O 0.4407(2) 0.2231(2) 0.7444(3)
H81_2 H 0.5747 0.2496 0.7501
H82_2 H 0.4253 0.2499 0.7504
H90_2 H 0.600981 0.126029 0.825891
H91_2 H 0.589334 0.22706 0.858387
H94_2 H 0.581302 0.261864 0.799206
H95_2 H 0.418698 0.200794 0.738136
Rb6_4 Rb 0.31338(3) 1.0000 0.31338(3)
Rb7_2 Rb 0.5000 0.81338(3) 0.18662(3)
O13_2 O 0.3086(2) 0.8584(2) 0.1615(3)
C15_2 C 0.3459(3) 0.8745(3) 0.1823(4)
H23_2 H 0.3400 0.8760 0.2139
O16_2 O 0.4208(2) 0.8622(2) 0.1970(3)
H26_2 H 0.4234 0.8931 0.1914
C18_2 C 0.3843(3) 0.8459(3) 0.1754(4)
H31_2 H 0.3776 0.8168 0.1874
O21_2 O 0.4272(2) 0.8117(2) 0.1210(3)
H34_2 H 0.4548 0.8262 0.1260
C21_2 C 0.3928(3) 0.8413(3) 0.1286(3)
H39_2 H 0.4010 0.8700 0.1167
O26_2 O 0.35840(17) 0.82501(16) 0.0599(2)
C24_2 C 0.3520(2) 0.8253(2) 0.1050(3)
H40_2 H 0.3448 0.7956 0.1150
C27_2 C 0.3143(3) 0.8556(3) 0.1151(3)
H43_2 H 0.3200 0.8849 0.1029
O27_2 O 0.2636(4) 0.7929(4) 0.1127(4)
H46_2 H 0.2582 0.7744 0.0877
C28_2 C 0.2720(5) 0.8382(5) 0.0979(5)
H49_2 H 0.2482 0.8570 0.1076
H52_2 H 0.2726 0.8388 0.0660
O32_2 O 0.32090(16) 0.77816(16) 0.01486(18)
C33_2 C 0.3595(2) 0.7846(2) 0.0403(3)
H57_2 H 0.3603 0.7621 0.0634
O39_2 O 0.4362(2) 0.7864(2) 0.0396(2)
H60_2 H 0.4287 0.8007 0.0667
C36_2 C 0.3979(3) 0.7803(3) 0.0142(3)
H63_2 H 0.3986 0.7499 0.0035
O41_2 O 0.4346(2) 0.9484(2) 0.2008(3)
H65_2 H 0.4275 0.9184 0.1940
C38_2 C 0.3973(3) 0.9758(3) 0.1916(3)
H68_2 H 0.3984 0.9852 0.1609
O45_2 O 0.35530(16) 0.91596(17) 0.1677(2)
C41_2 C 0.3559(2) 0.9501(3) 0.1990(2)
H71_2 H 0.3561 0.9376 0.2287
C44_2 C 0.3174(2) 0.9786(3) 0.1936(2)
H74_2 H 0.3167 0.9892 0.1633
O47_2 O 0.2769(2) 0.9407(2) 0.2444(3)
H77_2 H 0.2501 0.9253 0.2504
C47_2 C 0.2754(3) 0.9576(3) 0.2033(3)
H84_2 H 0.2518 0.9790 0.2012
H87_2 H 0.2697 0.9344 0.1822
Rb1_2 Rb 0.5000 0.81338(3) 0.81338(3)
O1_2 O 0.3086(2) 0.8385(3) 0.8584(2)
C1_2 C 0.3459(3) 0.8177(4) 0.8745(3)
H1_2 H 0.3400 0.7861 0.8760
O2_2 O 0.4208(2) 0.8030(3) 0.8622(2)
H2_2 H 0.4234 0.8086 0.8931
C2_2 C 0.3843(3) 0.8246(4) 0.8459(3)
H3_2 H 0.3776 0.8126 0.8168
O3_2 O 0.4272(2) 0.8790(3) 0.8117(2)
H4_2 H 0.4548 0.8740 0.8262
C3_2 C 0.3928(3) 0.8714(3) 0.8413(3)
H5_2 H 0.4010 0.8833 0.8700
O4_2 O 0.35840(17) 0.9401(2) 0.82501(16)
C4_2 C 0.3520(2) 0.8950(3) 0.8253(2)
H6_2 H 0.3448 0.8850 0.7956
C5_2 C 0.3143(3) 0.8849(3) 0.8556(3)
H7_2 H 0.3200 0.8971 0.8849
O5_2 O 0.2636(4) 0.8873(4) 0.7929(4)
H8_2 H 0.2582 0.9123 0.7744
C6_2 C 0.2720(5) 0.9021(5) 0.8382(5)
H9_2 H 0.2482 0.8924 0.8570
H10_2 H 0.2726 0.9340 0.8388
O6_2 O 0.32090(16) 0.98514(18) 0.77816(16)
C7_2 C 0.3595(2) 0.9597(3) 0.7846(2)
H11_2 H 0.3603 0.9366 0.7621
O7_2 O 0.4362(2) 0.9604(2) 0.7864(2)
H12_2 H 0.4287 0.9333 0.8007
C8_2 C 0.3979(3) 0.9858(3) 0.7803(3)
H13_2 H 0.3986 0.9965 0.7499
O9_2 O 0.35530(16) 0.8323(2) 0.91596(17)
Rb3_4 Rb 0.31338(3) 1.0000 0.68662(3)
O17_2 O 0.5792(2) 0.8622(2) 0.8030(3)
H27_2 H 0.5766 0.8931 0.8086
O22_2 O 0.5728(2) 0.8117(2) 0.8790(3)
H35_2 H 0.5452 0.8262 0.8740
O33_2 O 0.48514(18) 0.82090(16) 0.72184(16)
O34_2 O 0.51486(18) 0.72184(16) 0.82090(16)
O42_2 O 0.4346(2) 0.7992(3) 0.9484(2)
H66_2 H 0.4275 0.8060 0.9184
C39_2 C 0.3973(3) 0.8084(3) 0.9758(3)
H69_2 H 0.3984 0.8391 0.9852
C42_2 C 0.3559(2) 0.8010(2) 0.9501(3)
H70_2 H 0.3561 0.7713 0.9376
C45_2 C 0.3174(2) 0.8064(2) 0.9786(3)
H73_2 H 0.3167 0.8367 0.9892
O46_2 O 0.2769(2) 0.7556(3) 0.9407(2)
O49_2 O 0.5593(2) 0.7769(2) 0.7444(3)
O50_2 O 0.4407(2) 0.7444(3) 0.7769(2)
H76_2 H 0.2501 0.7496 0.9253
H79_2 H 0.5747 0.7501 0.7504
H80_2 H 0.4253 0.7504 0.7501
C46_2 C 0.2754(3) 0.7967(3) 0.9576(3)
H83_2 H 0.2518 0.7988 0.9790
H86_2 H 0.2697 0.8178 0.9344
H89_2 H 0.600981 0.825891 0.873971
H92_2 H 0.589334 0.858387 0.77294
H93_2 H 0.581302 0.799206 0.738136
H96_2 H 0.418698 0.738136 0.799206
O8_3 O 0.0516(2) 0.4346(2) 0.2008(3)
H14_3 H 0.0816 0.4275 0.1940
C9_3 C 0.0242(3) 0.3973(3) 0.1916(3)
H15_3 H 0.0148 0.3984 0.1609
C10_3 C 0.0499(3) 0.3559(2) 0.1990(2)
H16_3 H 0.0624 0.3561 0.2287
C11_3 C 0.0214(3) 0.3174(2) 0.1936(2)
H17_3 H 0.0108 0.3167 0.1633
O10_3 O 0.0593(2) 0.2769(2) 0.2444(3)
H18_3 H 0.0747 0.2501 0.2504
C12_3 C 0.0424(3) 0.2754(3) 0.2033(3)
H19_3 H 0.0210 0.2518 0.2012
H20_3 H 0.0656 0.2697 0.1822
Rb3_5 Rb 0.0000 0.31338(3) 0.31338(3)
O11_3 O 0.1416(2) 0.3086(2) 0.1615(3)
C13_3 C 0.1255(3) 0.3459(3) 0.1823(4)
H21_3 H 0.1240 0.3400 0.2139
O14_3 O 0.1378(2) 0.4208(2) 0.1970(3)
H24_3 H 0.1069 0.4234 0.1914
C16_3 C 0.1541(3) 0.3843(3) 0.1754(4)
H29_3 H 0.1832 0.3776 0.1874
O19_3 O 0.1883(2) 0.4272(2) 0.1210(3)
H32_3 H 0.1738 0.4548 0.1260
C19_3 C 0.1587(3) 0.3928(3) 0.1286(3)
H37_3 H 0.1300 0.4010 0.1167
O24_3 O 0.17499(16) 0.35840(17) 0.0599(2)
C22_3 C 0.1747(2) 0.3520(2) 0.1050(3)
H42_3 H 0.2044 0.3448 0.1150
C25_3 C 0.1444(3) 0.3143(3) 0.1151(3)
H45_3 H 0.1151 0.3200 0.1029
O29_3 O 0.2071(4) 0.2636(4) 0.1127(4)
H48_3 H 0.2256 0.2582 0.0877
C30_3 C 0.1618(5) 0.2720(5) 0.0979(5)
H51_3 H 0.1430 0.2482 0.1076
H54_3 H 0.1612 0.2726 0.0660
O30_3 O 0.22184(16) 0.32090(16) 0.01486(18)
O35_3 O 0.27816(16) 0.48514(18) 0.17910(16)
O36_3 O 0.17910(16) 0.51486(18) 0.27816(16)
C31_3 C 0.2154(2) 0.3595(2) 0.0403(3)
H55_3 H 0.2379 0.3603 0.0634
O37_3 O 0.2136(2) 0.4362(2) 0.0396(2)
H58_3 H 0.1993 0.4287 0.0667
C34_3 C 0.2197(3) 0.3979(3) 0.0142(3)
H61_3 H 0.2501 0.3986 0.0035
O43_3 O 0.08404(17) 0.35530(16) 0.1677(2)
O51_3 O 0.2556(3) 0.5593(2) 0.2231(2)
O52_3 O 0.2231(2) 0.4407(2) 0.2556(3)
H81_3 H 0.2496 0.5747 0.2499
H82_3 H 0.2499 0.4253 0.2496
H90_3 H 0.126029 0.600981 0.174109
H91_3 H 0.22706 0.589334 0.141613
H94_3 H 0.261864 0.581302 0.200794
H95_3 H 0.200794 0.418698 0.261864
Rb6_5 Rb -0.0000 0.31338(3) 0.68662(3)
O12_3 O 0.1615(3) 0.3086(2) 0.8584(2)
C14_3 C 0.1823(4) 0.3459(3) 0.8745(3)
H22_3 H 0.2139 0.3400 0.8760
C17_3 C 0.1754(4) 0.3843(3) 0.8459(3)
H30_3 H 0.1874 0.3776 0.8168
C20_3 C 0.1286(3) 0.3928(3) 0.8413(3)
H38_3 H 0.1167 0.4010 0.8700
O25_3 O 0.0599(2) 0.35840(17) 0.82501(16)
C23_3 C 0.1050(3) 0.3520(2) 0.8253(2)
H41_3 H 0.1150 0.3448 0.7956
C26_3 C 0.1151(3) 0.3143(3) 0.8556(3)
H44_3 H 0.1029 0.3200 0.8849
O28_3 O 0.1127(4) 0.2636(4) 0.7929(4)
H47_3 H 0.0877 0.2582 0.7744
C29_3 C 0.0979(5) 0.2720(5) 0.8382(5)
H50_3 H 0.1076 0.2482 0.8570
H53_3 H 0.0660 0.2726 0.8388
O31_3 O 0.01486(18) 0.32090(16) 0.77816(16)
C32_3 C 0.0403(3) 0.3595(2) 0.7846(2)
H56_3 H 0.0634 0.3603 0.7621
O38_3 O 0.0396(2) 0.4362(2) 0.7864(2)
H59_3 H 0.0667 0.4287 0.8007
C35_3 C 0.0142(3) 0.3979(3) 0.7803(3)
H62_3 H 0.0035 0.3986 0.7499
O40_3 O 0.2008(3) 0.4346(2) 0.9484(2)
H64_3 H 0.1940 0.4275 0.9184
C37_3 C 0.1916(3) 0.3973(3) 0.9758(3)
H67_3 H 0.1609 0.3984 0.9852
O44_3 O 0.1677(2) 0.35530(16) 0.91596(17)
C40_3 C 0.1990(2) 0.3559(2) 0.9501(3)
H72_3 H 0.2287 0.3561 0.9376
C43_3 C 0.1936(2) 0.3174(2) 0.9786(3)
H75_3 H 0.1633 0.3167 0.9892
O48_3 O 0.2444(3) 0.2769(2) 0.9407(2)
H78_3 H 0.2504 0.2501 0.9253
C48_3 C 0.2033(3) 0.2754(3) 0.9576(3)
H85_3 H 0.2012 0.2518 0.9790
H88_3 H 0.1822 0.2697 0.9344
O1_3 O 0.8385(3) 0.3086(2) 0.1416(2)
C1_3 C 0.8177(4) 0.3459(3) 0.1255(3)
H1_3 H 0.7861 0.3400 0.1240
O2_3 O 0.8030(3) 0.4208(2) 0.1378(2)
H2_3 H 0.8086 0.4234 0.1069
C2_3 C 0.8246(4) 0.3843(3) 0.1541(3)
H3_3 H 0.8126 0.3776 0.1832
O3_3 O 0.8790(3) 0.4272(2) 0.1883(2)
H4_3 H 0.8740 0.4548 0.1738
C3_3 C 0.8714(3) 0.3928(3) 0.1587(3)
H5_3 H 0.8833 0.4010 0.1300
O4_3 O 0.9401(2) 0.35840(17) 0.17499(16)
C4_3 C 0.8950(3) 0.3520(2) 0.1747(2)
H6_3 H 0.8850 0.3448 0.2044
C5_3 C 0.8849(3) 0.3143(3) 0.1444(3)
H7_3 H 0.8971 0.3200 0.1151
O5_3 O 0.8873(4) 0.2636(4) 0.2071(4)
H8_3 H 0.9123 0.2582 0.2256
C6_3 C 0.9021(5) 0.2720(5) 0.1618(5)
H9_3 H 0.8924 0.2482 0.1430
H10_3 H 0.9340 0.2726 0.1612
O6_3 O 0.98514(18) 0.32090(16) 0.22184(16)
C7_3 C 0.9597(3) 0.3595(2) 0.2154(2)
H11_3 H 0.9366 0.3603 0.2379
O7_3 O 0.9604(2) 0.4362(2) 0.2136(2)
H12_3 H 0.9333 0.4287 0.1993
C8_3 C 0.9858(3) 0.3979(3) 0.2197(3)
H13_3 H 0.9965 0.3986 0.2501
O9_3 O 0.8323(2) 0.35530(16) 0.08404(17)
Rb3_6 Rb 1.0000 0.31338(3) 0.31338(3)
Rb8_3 Rb 0.68662(3) 0.31338(3) 0.0000
O33_3 O 0.82090(16) 0.48514(18) 0.27816(16)
O34_3 O 0.72184(16) 0.51486(18) 0.17910(16)
O42_3 O 0.7992(3) 0.4346(2) 0.0516(2)
H66_3 H 0.8060 0.4275 0.0816
C39_3 C 0.8084(3) 0.3973(3) 0.0242(3)
H69_3 H 0.8391 0.3984 0.0148
C42_3 C 0.8010(2) 0.3559(2) 0.0499(3)
H70_3 H 0.7713 0.3561 0.0624
C45_3 C 0.8064(2) 0.3174(2) 0.0214(3)
H73_3 H 0.8367 0.3167 0.0108
O46_3 O 0.7556(3) 0.2769(2) 0.0593(2)
O49_3 O 0.7769(2) 0.5593(2) 0.2556(3)
O50_3 O 0.7444(3) 0.4407(2) 0.2231(2)
H76_3 H 0.7496 0.2501 0.0747
H79_3 H 0.7501 0.5747 0.2496
H80_3 H 0.7504 0.4253 0.2499
C46_3 C 0.7967(3) 0.2754(3) 0.0424(3)
H83_3 H 0.7988 0.2518 0.0210
H86_3 H 0.8178 0.2697 0.0656
H89_3 H 0.825891 0.600981 0.126029
H92_3 H 0.858387 0.589334 0.22706
H93_3 H 0.799206 0.581302 0.261864
H96_3 H 0.738136 0.418698 0.200794
Rb6_6 Rb 1.0000 0.31338(3) 0.68662(3)
Rb8_4 Rb 0.68662(3) 0.31338(3) 1.0000
O13_3 O 0.8584(2) 0.3086(2) 0.8385(3)
C15_3 C 0.8745(3) 0.3459(3) 0.8177(4)
H23_3 H 0.8760 0.3400 0.7861
C18_3 C 0.8459(3) 0.3843(3) 0.8246(4)
H31_3 H 0.8168 0.3776 0.8126
C21_3 C 0.8413(3) 0.3928(3) 0.8714(3)
H39_3 H 0.8700 0.4010 0.8833
O26_3 O 0.82501(16) 0.35840(17) 0.9401(2)
C24_3 C 0.8253(2) 0.3520(2) 0.8950(3)
H40_3 H 0.7956 0.3448 0.8850
C27_3 C 0.8556(3) 0.3143(3) 0.8849(3)
H43_3 H 0.8849 0.3200 0.8971
O27_3 O 0.7929(4) 0.2636(4) 0.8873(4)
H46_3 H 0.7744 0.2582 0.9123
C28_3 C 0.8382(5) 0.2720(5) 0.9021(5)
H49_3 H 0.8570 0.2482 0.8924
H52_3 H 0.8388 0.2726 0.9340
O32_3 O 0.77816(16) 0.32090(16) 0.98514(18)
C33_3 C 0.7846(2) 0.3595(2) 0.9597(3)
H57_3 H 0.7621 0.3603 0.9366
O39_3 O 0.7864(2) 0.4362(2) 0.9604(2)
H60_3 H 0.8007 0.4287 0.9333
C36_3 C 0.7803(3) 0.3979(3) 0.9858(3)
H63_3 H 0.7499 0.3986 0.9965
O41_3 O 0.9484(2) 0.4346(2) 0.7992(3)
H65_3 H 0.9184 0.4275 0.8060
C38_3 C 0.9758(3) 0.3973(3) 0.8084(3)
H68_3 H 0.9852 0.3984 0.8391
O45_3 O 0.91596(17) 0.35530(16) 0.8323(2)
C41_3 C 0.9501(3) 0.3559(2) 0.8010(2)
H71_3 H 0.9376 0.3561 0.7713
C44_3 C 0.9786(3) 0.3174(2) 0.8064(2)
H74_3 H 0.9892 0.3167 0.8367
O47_3 O 0.9407(2) 0.2769(2) 0.7556(3)
H77_3 H 0.9253 0.2501 0.7496
C47_3 C 0.9576(3) 0.2754(3) 0.7967(3)
H84_3 H 0.9790 0.2518 0.7988
H87_3 H 0.9344 0.2697 0.8178
Rb5_3 Rb 0.18662(3) 0.18662(3) 0.5000
O12_4 O 0.1416(2) 0.1615(3) 0.6914(2)
C14_4 C 0.1255(3) 0.1823(4) 0.6541(3)
H22_4 H 0.1240 0.2139 0.6600
O15_3 O 0.1378(2) 0.1970(3) 0.5792(2)
H25_3 H 0.1069 0.1914 0.5766
C17_4 C 0.1541(3) 0.1754(4) 0.6157(3)
H30_4 H 0.1832 0.1874 0.6224
O20_3 O 0.1883(2) 0.1210(3) 0.5728(2)
H33_3 H 0.1738 0.1260 0.5452
C20_4 C 0.1587(3) 0.1286(3) 0.6072(3)
H38_4 H 0.1300 0.1167 0.5990
O25_4 O 0.17499(16) 0.0599(2) 0.64160(17)
C23_4 C 0.1747(2) 0.1050(3) 0.6480(2)
H41_4 H 0.2044 0.1150 0.6552
C26_4 C 0.1444(3) 0.1151(3) 0.6857(3)
H44_4 H 0.1151 0.1029 0.6800
O28_4 O 0.2071(4) 0.1127(4) 0.7364(4)
H47_4 H 0.2256 0.0877 0.7418
C29_4 C 0.1618(5) 0.0979(5) 0.7280(5)
H50_4 H 0.1430 0.1076 0.7518
H53_4 H 0.1612 0.0660 0.7274
O31_4 O 0.22184(16) 0.01486(18) 0.67910(16)
C32_4 C 0.2154(2) 0.0403(3) 0.6405(2)
H56_4 H 0.2379 0.0634 0.6397
O38_4 O 0.2136(2) 0.0396(2) 0.5638(2)
H59_4 H 0.1993 0.0667 0.5713
C35_4 C 0.2197(3) 0.0142(3) 0.6021(3)
H62_4 H 0.2501 0.0035 0.6014
O40_4 O 0.0516(2) 0.2008(3) 0.5654(2)
H64_4 H 0.0816 0.1940 0.5725
C37_4 C 0.0242(3) 0.1916(3) 0.6027(3)
H67_4 H 0.0148 0.1609 0.6016
O44_4 O 0.08404(17) 0.1677(2) 0.64470(16)
C40_4 C 0.0499(3) 0.1990(2) 0.6441(2)
H72_4 H 0.0624 0.2287 0.6439
C43_4 C 0.0214(3) 0.1936(2) 0.6826(2)
H75_4 H 0.0108 0.1633 0.6833
O48_4 O 0.0593(2) 0.2444(3) 0.7231(2)
H78_4 H 0.0747 0.2504 0.7499
C48_4 C 0.0424(3) 0.2033(3) 0.7246(3)
H85_4 H 0.0210 0.2012 0.7482
H88_4 H 0.0656 0.1822 0.7303
Rb7_3 Rb 0.18662(3) 0.81338(3) 0.5000
O13_4 O 0.1615(3) 0.8584(2) 0.6914(2)
C15_4 C 0.1823(4) 0.8745(3) 0.6541(3)
H23_4 H 0.2139 0.8760 0.6600
O16_3 O 0.1970(3) 0.8622(2) 0.5792(2)
H26_3 H 0.1914 0.8931 0.5766
C18_4 C 0.1754(4) 0.8459(3) 0.6157(3)
H31_4 H 0.1874 0.8168 0.6224
O21_3 O 0.1210(3) 0.8117(2) 0.5728(2)
H34_3 H 0.1260 0.8262 0.5452
C21_4 C 0.1286(3) 0.8413(3) 0.6072(3)
H39_4 H 0.1167 0.8700 0.5990
O26_4 O 0.0599(2) 0.82501(16) 0.64160(17)
C24_4 C 0.1050(3) 0.8253(2) 0.6480(2)
H40_4 H 0.1150 0.7956 0.6552
C27_4 C 0.1151(3) 0.8556(3) 0.6857(3)
H43_4 H 0.1029 0.8849 0.6800
O27_4 O 0.1127(4) 0.7929(4) 0.7364(4)
H46_4 H 0.0877 0.7744 0.7418
C28_4 C 0.0979(5) 0.8382(5) 0.7280(5)
H49_4 H 0.1076 0.8570 0.7518
H52_4 H 0.0660 0.8388 0.7274
O32_4 O 0.01486(18) 0.77816(16) 0.67910(16)
C33_4 C 0.0403(3) 0.7846(2) 0.6405(2)
H57_4 H 0.0634 0.7621 0.6397
O39_4 O 0.0396(2) 0.7864(2) 0.5638(2)
H60_4 H 0.0667 0.8007 0.5713
C36_4 C 0.0142(3) 0.7803(3) 0.6021(3)
H63_4 H 0.0035 0.7499 0.6014
O41_4 O 0.2008(3) 0.9484(2) 0.5654(2)
H65_4 H 0.1940 0.9184 0.5725
C38_4 C 0.1916(3) 0.9758(3) 0.6027(3)
H68_4 H 0.1609 0.9852 0.6016
O45_4 O 0.1677(2) 0.91596(17) 0.64470(16)
C41_4 C 0.1990(2) 0.9501(3) 0.6441(2)
H71_4 H 0.2287 0.9376 0.6439
C44_4 C 0.1936(2) 0.9786(3) 0.6826(2)
H74_4 H 0.1633 0.9892 0.6833
O47_4 O 0.2444(3) 0.9407(2) 0.7231(2)
H77_4 H 0.2504 0.9253 0.7499
C47_4 C 0.2033(3) 0.9576(3) 0.7246(3)
H84_4 H 0.2012 0.9790 0.7482
H87_4 H 0.1822 0.9344 0.7303
O8_4 O 0.7992(3) 0.0516(2) 0.5654(2)
H14_4 H 0.8060 0.0816 0.5725
C9_4 C 0.8084(3) 0.0242(3) 0.6027(3)
H15_4 H 0.8391 0.0148 0.6016
C10_4 C 0.8010(2) 0.0499(3) 0.6441(2)
H16_4 H 0.7713 0.0624 0.6439
C11_4 C 0.8064(2) 0.0214(3) 0.6826(2)
H17_4 H 0.8367 0.0108 0.6833
O10_4 O 0.7556(3) 0.0593(2) 0.7231(2)
H18_4 H 0.7496 0.0747 0.7499
C12_4 C 0.7967(3) 0.0424(3) 0.7246(3)
H19_4 H 0.7988 0.0210 0.7482
H20_4 H 0.8178 0.0656 0.7303
Rb2_3 Rb 0.81338(3) 0.18662(3) 0.5000
Rb3_7 Rb 0.68662(3) 0.0000 0.68662(3)
O11_4 O 0.8385(3) 0.1416(2) 0.6914(2)
C13_4 C 0.8177(4) 0.1255(3) 0.6541(3)
H21_4 H 0.7861 0.1240 0.6600
O14_4 O 0.8030(3) 0.1378(2) 0.5792(2)
O18_3 O 0.8622(2) 0.1970(3) 0.4208(2)
H24_4 H 0.8086 0.1069 0.5766
H28_3 H 0.8931 0.1914 0.4234
C16_4 C 0.8246(4) 0.1541(3) 0.6157(3)
H29_4 H 0.8126 0.1832 0.6224
O19_4 O 0.8790(3) 0.1883(2) 0.5728(2)
O23_3 O 0.8117(2) 0.1210(3) 0.4272(2)
H32_4 H 0.8740 0.1738 0.5452
H36_3 H 0.8262 0.1260 0.4548
C19_4 C 0.8714(3) 0.1587(3) 0.6072(3)
H37_4 H 0.8833 0.1300 0.5990
O24_4 O 0.9401(2) 0.17499(16) 0.64160(17)
C22_4 C 0.8950(3) 0.1747(2) 0.6480(2)
H42_4 H 0.8850 0.2044 0.6552
C25_4 C 0.8849(3) 0.1444(3) 0.6857(3)
H45_4 H 0.8971 0.1151 0.6800
O29_4 O 0.8873(4) 0.2071(4) 0.7364(4)
H48_4 H 0.9123 0.2256 0.7418
C30_4 C 0.9021(5) 0.1618(5) 0.7280(5)
H51_4 H 0.8924 0.1430 0.7518
H54_4 H 0.9340 0.1612 0.7274
O30_4 O 0.98514(18) 0.22184(16) 0.67910(16)
O35_4 O 0.82090(16) 0.27816(16) 0.51486(18)
O36_4 O 0.72184(16) 0.17910(16) 0.48514(18)
C31_4 C 0.9597(3) 0.2154(2) 0.6405(2)
H55_4 H 0.9366 0.2379 0.6397
O37_4 O 0.9604(2) 0.2136(2) 0.5638(2)
H58_4 H 0.9333 0.1993 0.5713
C34_4 C 0.9858(3) 0.2197(3) 0.6021(3)
H61_4 H 0.9965 0.2501 0.6014
O43_4 O 0.8323(2) 0.08404(17) 0.64470(16)
O51_4 O 0.7769(2) 0.2556(3) 0.4407(2)
O52_4 O 0.7444(3) 0.2231(2) 0.5593(2)
H81_4 H 0.7501 0.2496 0.4253
H82_4 H 0.7504 0.2499 0.5747
H90_4 H 0.825891 0.126029 0.399019
H91_4 H 0.858387 0.22706 0.410666
H94_4 H 0.799206 0.261864 0.418698
H95_4 H 0.738136 0.200794 0.581302
Rb1_3 Rb 0.81338(3) 0.81338(3) 0.5000
O1_4 O 0.8584(2) 0.8385(3) 0.6914(2)
C1_4 C 0.8745(3) 0.8177(4) 0.6541(3)
H1_4 H 0.8760 0.7861 0.6600
O2_4 O 0.8622(2) 0.8030(3) 0.5792(2)
H2_4 H 0.8931 0.8086 0.5766
C2_4 C 0.8459(3) 0.8246(4) 0.6157(3)
H3_4 H 0.8168 0.8126 0.6224
O3_4 O 0.8117(2) 0.8790(3) 0.5728(2)
H4_4 H 0.8262 0.8740 0.5452
C3_4 C 0.8413(3) 0.8714(3) 0.6072(3)
H5_4 H 0.8700 0.8833 0.5990
O4_4 O 0.82501(16) 0.9401(2) 0.64160(17)
C4_4 C 0.8253(2) 0.8950(3) 0.6480(2)
H6_4 H 0.7956 0.8850 0.6552
C5_4 C 0.8556(3) 0.8849(3) 0.6857(3)
H7_4 H 0.8849 0.8971 0.6800
O5_4 O 0.7929(4) 0.8873(4) 0.7364(4)
H8_4 H 0.7744 0.9123 0.7418
C6_4 C 0.8382(5) 0.9021(5) 0.7280(5)
H9_4 H 0.8570 0.8924 0.7518
H10_4 H 0.8388 0.9340 0.7274
O6_4 O 0.77816(16) 0.98514(18) 0.67910(16)
C7_4 C 0.7846(2) 0.9597(3) 0.6405(2)
H11_4 H 0.7621 0.9366 0.6397
O7_4 O 0.7864(2) 0.9604(2) 0.5638(2)
H12_4 H 0.8007 0.9333 0.5713
C8_4 C 0.7803(3) 0.9858(3) 0.6021(3)
H13_4 H 0.7499 0.9965 0.6014
O9_4 O 0.91596(17) 0.8323(2) 0.64470(16)
Rb3_8 Rb 0.68662(3) 1.0000 0.68662(3)
O17_3 O 0.8030(3) 0.8622(2) 0.4208(2)
H27_3 H 0.8086 0.8931 0.4234
O22_3 O 0.8790(3) 0.8117(2) 0.4272(2)
H35_3 H 0.8740 0.8262 0.4548
O33_4 O 0.72184(16) 0.82090(16) 0.51486(18)
O34_4 O 0.82090(16) 0.72184(16) 0.48514(18)
O42_4 O 0.9484(2) 0.7992(3) 0.5654(2)
H66_4 H 0.9184 0.8060 0.5725
C39_4 C 0.9758(3) 0.8084(3) 0.6027(3)
H69_4 H 0.9852 0.8391 0.6016
C42_4 C 0.9501(3) 0.8010(2) 0.6441(2)
H70_4 H 0.9376 0.7713 0.6439
C45_4 C 0.9786(3) 0.8064(2) 0.6826(2)
H73_4 H 0.9892 0.8367 0.6833
O46_4 O 0.9407(2) 0.7556(3) 0.7231(2)
O49_4 O 0.7444(3) 0.7769(2) 0.4407(2)
O50_4 O 0.7769(2) 0.7444(3) 0.5593(2)
H76_4 H 0.9253 0.7496 0.7499
H79_4 H 0.7504 0.7501 0.4253
H80_4 H 0.7501 0.7504 0.5747
C46_4 C 0.9576(3) 0.7967(3) 0.7246(3)
H83_4 H 0.9790 0.7988 0.7482
H86_4 H 0.9344 0.8178 0.7303
H89_4 H 0.873971 0.825891 0.399019
H92_4 H 0.77294 0.858387 0.410666
H93_4 H 0.738136 0.799206 0.418698
H96_4 H 0.799206 0.738136 0.581302
H89_5 H 0.174109 0.600981 0.873971
H92_5 H 0.141613 0.589334 0.77294
H90_5 H 0.873971 0.600981 0.825891
H91_5 H 0.77294 0.589334 0.858387
O8_5 O 0.5654(2) 0.0516(2) 0.2008(3)
H14_5 H 0.5725 0.0816 0.1940
C9_5 C 0.6027(3) 0.0242(3) 0.1916(3)
H15_5 H 0.6016 0.0148 0.1609
C10_5 C 0.6441(2) 0.0499(3) 0.1990(2)
H16_5 H 0.6439 0.0624 0.2287
C11_5 C 0.6826(2) 0.0214(3) 0.1936(2)
H17_5 H 0.6833 0.0108 0.1633
O10_5 O 0.7231(2) 0.0593(2) 0.2444(3)
H18_5 H 0.7499 0.0747 0.2504
C12_5 C 0.7246(3) 0.0424(3) 0.2033(3)
H19_5 H 0.7482 0.0210 0.2012
H20_5 H 0.7303 0.0656 0.1822
Rb3_9 Rb 0.68662(3) 0.0000 0.31338(3)
O11_5 O 0.6914(2) 0.1416(2) 0.1615(3)
C13_5 C 0.6541(3) 0.1255(3) 0.1823(4)
H21_5 H 0.6600 0.1240 0.2139
O14_5 O 0.5792(2) 0.1378(2) 0.1970(3)
H24_5 H 0.5766 0.1069 0.1914
C16_5 C 0.6157(3) 0.1541(3) 0.1754(4)
H29_5 H 0.6224 0.1832 0.1874
O19_5 O 0.5728(2) 0.1883(2) 0.1210(3)
H32_5 H 0.5452 0.1738 0.1260
C19_5 C 0.6072(3) 0.1587(3) 0.1286(3)
H37_5 H 0.5990 0.1300 0.1167
O24_5 O 0.64160(17) 0.17499(16) 0.0599(2)
C22_5 C 0.6480(2) 0.1747(2) 0.1050(3)
H42_5 H 0.6552 0.2044 0.1150
C25_5 C 0.6857(3) 0.1444(3) 0.1151(3)
H45_5 H 0.6800 0.1151 0.1029
O29_5 O 0.7364(4) 0.2071(4) 0.1127(4)
H48_5 H 0.7418 0.2256 0.0877
C30_5 C 0.7280(5) 0.1618(5) 0.0979(5)
H51_5 H 0.7518 0.1430 0.1076
H54_5 H 0.7274 0.1612 0.0660
O30_5 O 0.67910(16) 0.22184(16) 0.01486(18)
O35_5 O 0.51486(18) 0.27816(16) 0.17910(16)
O36_5 O 0.48514(18) 0.17910(16) 0.27816(16)
C31_5 C 0.6405(2) 0.2154(2) 0.0403(3)
H55_5 H 0.6397 0.2379 0.0634
O37_5 O 0.5638(2) 0.2136(2) 0.0396(2)
H58_5 H 0.5713 0.1993 0.0667
C34_5 C 0.6021(3) 0.2197(3) 0.0142(3)
H61_5 H 0.6014 0.2501 0.0035
O43_5 O 0.64470(16) 0.08404(17) 0.1677(2)
O51_5 O 0.4407(2) 0.2556(3) 0.2231(2)
O52_5 O 0.5593(2) 0.2231(2) 0.2556(3)
H81_5 H 0.4253 0.2496 0.2499
H82_5 H 0.5747 0.2499 0.2496
H90_6 H 0.399019 0.126029 0.174109
H91_6 H 0.410666 0.22706 0.141613
H94_5 H 0.418698 0.261864 0.200794
H95_5 H 0.581302 0.200794 0.261864
O12_5 O 0.6914(2) 0.1615(3) 0.8584(2)
C14_5 C 0.6541(3) 0.1823(4) 0.8745(3)
H22_5 H 0.6600 0.2139 0.8760
C17_5 C 0.6157(3) 0.1754(4) 0.8459(3)
H30_5 H 0.6224 0.1874 0.8168
C20_5 C 0.6072(3) 0.1286(3) 0.8413(3)
H38_5 H 0.5990 0.1167 0.8700
O25_5 O 0.64160(17) 0.0599(2) 0.82501(16)
C23_5 C 0.6480(2) 0.1050(3) 0.8253(2)
H41_5 H 0.6552 0.1150 0.7956
C26_5 C 0.6857(3) 0.1151(3) 0.8556(3)
H44_5 H 0.6800 0.1029 0.8849
O28_5 O 0.7364(4) 0.1127(4) 0.7929(4)
H47_5 H 0.7418 0.0877 0.7744
C29_5 C 0.7280(5) 0.0979(5) 0.8382(5)
H50_5 H 0.7518 0.1076 0.8570
H53_5 H 0.7274 0.0660 0.8388
O31_5 O 0.67910(16) 0.01486(18) 0.77816(16)
C32_5 C 0.6405(2) 0.0403(3) 0.7846(2)
H56_5 H 0.6397 0.0634 0.7621
O38_5 O 0.5638(2) 0.0396(2) 0.7864(2)
H59_5 H 0.5713 0.0667 0.8007
C35_5 C 0.6021(3) 0.0142(3) 0.7803(3)
H62_5 H 0.6014 0.0035 0.7499
O40_5 O 0.5654(2) 0.2008(3) 0.9484(2)
H64_5 H 0.5725 0.1940 0.9184
C37_5 C 0.6027(3) 0.1916(3) 0.9758(3)
H67_5 H 0.6016 0.1609 0.9852
O44_5 O 0.64470(16) 0.1677(2) 0.91596(17)
C40_5 C 0.6441(2) 0.1990(2) 0.9501(3)
H72_5 H 0.6439 0.2287 0.9376
C43_5 C 0.6826(2) 0.1936(2) 0.9786(3)
H75_5 H 0.6833 0.1633 0.9892
O48_5 O 0.7231(2) 0.2444(3) 0.9407(2)
H78_5 H 0.7499 0.2504 0.9253
C48_5 C 0.7246(3) 0.2033(3) 0.9576(3)
H85_5 H 0.7482 0.2012 0.9790
H88_5 H 0.7303 0.1822 0.9344
O1_5 O 0.6914(2) 0.8385(3) 0.1416(2)
C1_5 C 0.6541(3) 0.8177(4) 0.1255(3)
H1_5 H 0.6600 0.7861 0.1240
O2_5 O 0.5792(2) 0.8030(3) 0.1378(2)
H2_5 H 0.5766 0.8086 0.1069
C2_5 C 0.6157(3) 0.8246(4) 0.1541(3)
H3_5 H 0.6224 0.8126 0.1832
O3_5 O 0.5728(2) 0.8790(3) 0.1883(2)
H4_5 H 0.5452 0.8740 0.1738
C3_5 C 0.6072(3) 0.8714(3) 0.1587(3)
H5_5 H 0.5990 0.8833 0.1300
O4_5 O 0.64160(17) 0.9401(2) 0.17499(16)
C4_5 C 0.6480(2) 0.8950(3) 0.1747(2)
H6_5 H 0.6552 0.8850 0.2044
C5_5 C 0.6857(3) 0.8849(3) 0.1444(3)
H7_5 H 0.6800 0.8971 0.1151
O5_5 O 0.7364(4) 0.8873(4) 0.2071(4)
H8_5 H 0.7418 0.9123 0.2256
C6_5 C 0.7280(5) 0.9021(5) 0.1618(5)
H9_5 H 0.7518 0.8924 0.1430
H10_5 H 0.7274 0.9340 0.1612
O6_5 O 0.67910(16) 0.98514(18) 0.22184(16)
C7_5 C 0.6405(2) 0.9597(3) 0.2154(2)
H11_5 H 0.6397 0.9366 0.2379
O7_5 O 0.5638(2) 0.9604(2) 0.2136(2)
H12_5 H 0.5713 0.9333 0.1993
C8_5 C 0.6021(3) 0.9858(3) 0.2197(3)
H13_5 H 0.6014 0.9965 0.2501
O9_5 O 0.64470(16) 0.8323(2) 0.08404(17)
Rb3_10 Rb 0.68662(3) 1.0000 0.31338(3)
O33_5 O 0.51486(18) 0.82090(16) 0.27816(16)
O34_5 O 0.48514(18) 0.72184(16) 0.17910(16)
O42_5 O 0.5654(2) 0.7992(3) 0.0516(2)
H66_5 H 0.5725 0.8060 0.0816
C39_5 C 0.6027(3) 0.8084(3) 0.0242(3)
H69_5 H 0.6016 0.8391 0.0148
C42_5 C 0.6441(2) 0.8010(2) 0.0499(3)
H70_5 H 0.6439 0.7713 0.0624
C45_5 C 0.6826(2) 0.8064(2) 0.0214(3)
H73_5 H 0.6833 0.8367 0.0108
O46_5 O 0.7231(2) 0.7556(3) 0.0593(2)
O49_5 O 0.4407(2) 0.7769(2) 0.2556(3)
O50_5 O 0.5593(2) 0.7444(3) 0.2231(2)
H76_5 H 0.7499 0.7496 0.0747
H79_5 H 0.4253 0.7501 0.2496
H80_5 H 0.5747 0.7504 0.2499
C46_5 C 0.7246(3) 0.7967(3) 0.0424(3)
H83_5 H 0.7482 0.7988 0.0210
H86_5 H 0.7303 0.8178 0.0656
H89_6 H 0.399019 0.825891 0.126029
H92_6 H 0.410666 0.858387 0.22706
H93_5 H 0.418698 0.799206 0.261864
H96_5 H 0.581302 0.738136 0.200794
O13_5 O 0.6914(2) 0.8584(2) 0.8385(3)
C15_5 C 0.6541(3) 0.8745(3) 0.8177(4)
H23_5 H 0.6600 0.8760 0.7861
C18_5 C 0.6157(3) 0.8459(3) 0.8246(4)
H31_5 H 0.6224 0.8168 0.8126
C21_5 C 0.6072(3) 0.8413(3) 0.8714(3)
H39_5 H 0.5990 0.8700 0.8833
O26_5 O 0.64160(17) 0.82501(16) 0.9401(2)
C24_5 C 0.6480(2) 0.8253(2) 0.8950(3)
H40_5 H 0.6552 0.7956 0.8850
C27_5 C 0.6857(3) 0.8556(3) 0.8849(3)
H43_5 H 0.6800 0.8849 0.8971
O27_5 O 0.7364(4) 0.7929(4) 0.8873(4)
H46_5 H 0.7418 0.7744 0.9123
C28_5 C 0.7280(5) 0.8382(5) 0.9021(5)
H49_5 H 0.7518 0.8570 0.8924
H52_5 H 0.7274 0.8388 0.9340
O32_5 O 0.67910(16) 0.77816(16) 0.98514(18)
C33_5 C 0.6405(2) 0.7846(2) 0.9597(3)
H57_5 H 0.6397 0.7621 0.9366
O39_5 O 0.5638(2) 0.7864(2) 0.9604(2)
H60_5 H 0.5713 0.8007 0.9333
C36_5 C 0.6021(3) 0.7803(3) 0.9858(3)
H63_5 H 0.6014 0.7499 0.9965
O41_5 O 0.5654(2) 0.9484(2) 0.7992(3)
H65_5 H 0.5725 0.9184 0.8060
C38_5 C 0.6027(3) 0.9758(3) 0.8084(3)
H68_5 H 0.6016 0.9852 0.8391
O45_5 O 0.64470(16) 0.91596(17) 0.8323(2)
C41_5 C 0.6441(2) 0.9501(3) 0.8010(2)
H71_5 H 0.6439 0.9376 0.7713
C44_5 C 0.6826(2) 0.9786(3) 0.8064(2)
H74_5 H 0.6833 0.9892 0.8367
O47_5 O 0.7231(2) 0.9407(2) 0.7556(3)
H77_5 H 0.7499 0.9253 0.7496
C47_5 C 0.7246(3) 0.9576(3) 0.7967(3)
H84_5 H 0.7482 0.9790 0.7988
H87_5 H 0.7303 0.9344 0.8178
O17_4 O 0.1378(2) 0.8030(3) 0.4208(2)
H27_4 H 0.1069 0.8086 0.4234
O22_4 O 0.1883(2) 0.8790(3) 0.4272(2)
H35_4 H 0.1738 0.8740 0.4548
O33_6 O 0.17910(16) 0.72184(16) 0.51486(18)
O34_6 O 0.27816(16) 0.82090(16) 0.48514(18)
O49_6 O 0.2231(2) 0.7444(3) 0.4407(2)
O50_6 O 0.2556(3) 0.7769(2) 0.5593(2)
H79_6 H 0.2499 0.7504 0.4253
H80_6 H 0.2496 0.7501 0.5747
H89_7 H 0.174109 0.873971 0.399019
H92_7 H 0.141613 0.77294 0.410666
H93_6 H 0.200794 0.738136 0.418698
H96_6 H 0.261864 0.799206 0.581302
H89_8 H 0.399019 0.174109 0.873971
H92_8 H 0.410666 0.141613 0.77294
H90_7 H 0.399019 0.873971 0.825891
H91_7 H 0.410666 0.77294 0.858387
H89_9 H 0.174109 0.399019 0.126029
H92_9 H 0.141613 0.410666 0.22706
H90_8 H 0.873971 0.399019 0.174109
H91_8 H 0.77294 0.410666 0.141613
O17_5 O 0.1970(3) 0.1378(2) 0.4208(2)
H27_5 H 0.1914 0.1069 0.4234
O22_5 O 0.1210(3) 0.1883(2) 0.4272(2)
H35_5 H 0.1260 0.1738 0.4548
O33_7 O 0.27816(16) 0.17910(16) 0.51486(18)
O34_7 O 0.17910(16) 0.27816(16) 0.48514(18)
O49_7 O 0.2556(3) 0.2231(2) 0.4407(2)
O50_7 O 0.2231(2) 0.2556(3) 0.5593(2)
H79_7 H 0.2496 0.2499 0.4253
H80_7 H 0.2499 0.2496 0.5747
H89_10 H 0.126029 0.174109 0.399019
H92_10 H 0.22706 0.141613 0.410666
H93_7 H 0.261864 0.200794 0.418698
H96_7 H 0.200794 0.261864 0.581302
H89_11 H 0.600981 0.174109 0.126029
H92_11 H 0.589334 0.141613 0.22706
H90_9 H 0.600981 0.873971 0.174109
H91_9 H 0.589334 0.77294 0.141613
O13_6 O 0.1615(3) 0.1416(2) 0.3086(2)
C15_6 C 0.1823(4) 0.1255(3) 0.3459(3)
H23_6 H 0.2139 0.1240 0.3400
C18_6 C 0.1754(4) 0.1541(3) 0.3843(3)
H31_6 H 0.1874 0.1832 0.3776
C21_6 C 0.1286(3) 0.1587(3) 0.3928(3)
H39_6 H 0.1167 0.1300 0.4010
O26_6 O 0.0599(2) 0.17499(16) 0.35840(17)
C24_6 C 0.1050(3) 0.1747(2) 0.3520(2)
H40_6 H 0.1150 0.2044 0.3448
C27_6 C 0.1151(3) 0.1444(3) 0.3143(3)
H43_6 H 0.1029 0.1151 0.3200
O27_6 O 0.1127(4) 0.2071(4) 0.2636(4)
H46_6 H 0.0877 0.2256 0.2582
C28_6 C 0.0979(5) 0.1618(5) 0.2720(5)
H49_6 H 0.1076 0.1430 0.2482
H52_6 H 0.0660 0.1612 0.2726
O32_6 O 0.01486(18) 0.22184(16) 0.32090(16)
C33_6 C 0.0403(3) 0.2154(2) 0.3595(2)
H57_6 H 0.0634 0.2379 0.3603
O39_6 O 0.0396(2) 0.2136(2) 0.4362(2)
H60_6 H 0.0667 0.1993 0.4287
C36_6 C 0.0142(3) 0.2197(3) 0.3979(3)
H63_6 H 0.0035 0.2501 0.3986
O41_6 O 0.2008(3) 0.0516(2) 0.4346(2)
H65_6 H 0.1940 0.0816 0.4275
C38_6 C 0.1916(3) 0.0242(3) 0.3973(3)
H68_6 H 0.1609 0.0148 0.3984
O45_6 O 0.1677(2) 0.08404(17) 0.35530(16)
C41_6 C 0.1990(2) 0.0499(3) 0.3559(2)
H71_6 H 0.2287 0.0624 0.3561
C44_6 C 0.1936(2) 0.0214(3) 0.3174(2)
H74_6 H 0.1633 0.0108 0.3167
O47_6 O 0.2444(3) 0.0593(2) 0.2769(2)
H77_6 H 0.2504 0.0747 0.2501
C47_6 C 0.2033(3) 0.0424(3) 0.2754(3)
H84_6 H 0.2012 0.0210 0.2518
H87_6 H 0.1822 0.0656 0.2697
O12_6 O 0.1416(2) 0.8385(3) 0.3086(2)
C14_6 C 0.1255(3) 0.8177(4) 0.3459(3)
H22_6 H 0.1240 0.7861 0.3400
C17_6 C 0.1541(3) 0.8246(4) 0.3843(3)
H30_6 H 0.1832 0.8126 0.3776
C20_6 C 0.1587(3) 0.8714(3) 0.3928(3)
H38_6 H 0.1300 0.8833 0.4010
O25_6 O 0.17499(16) 0.9401(2) 0.35840(17)
C23_6 C 0.1747(2) 0.8950(3) 0.3520(2)
H41_6 H 0.2044 0.8850 0.3448
C26_6 C 0.1444(3) 0.8849(3) 0.3143(3)
H44_6 H 0.1151 0.8971 0.3200
O28_6 O 0.2071(4) 0.8873(4) 0.2636(4)
H47_6 H 0.2256 0.9123 0.2582
C29_6 C 0.1618(5) 0.9021(5) 0.2720(5)
H50_6 H 0.1430 0.8924 0.2482
H53_6 H 0.1612 0.9340 0.2726
O31_6 O 0.22184(16) 0.98514(18) 0.32090(16)
C32_6 C 0.2154(2) 0.9597(3) 0.3595(2)
H56_6 H 0.2379 0.9366 0.3603
O38_6 O 0.2136(2) 0.9604(2) 0.4362(2)
H59_6 H 0.1993 0.9333 0.4287
C35_6 C 0.2197(3) 0.9858(3) 0.3979(3)
H62_6 H 0.2501 0.9965 0.3986
O40_6 O 0.0516(2) 0.7992(3) 0.4346(2)
H64_6 H 0.0816 0.8060 0.4275
C37_6 C 0.0242(3) 0.8084(3) 0.3973(3)
H67_6 H 0.0148 0.8391 0.3984
O44_6 O 0.08404(17) 0.8323(2) 0.35530(16)
C40_6 C 0.0499(3) 0.8010(2) 0.3559(2)
H72_6 H 0.0624 0.7713 0.3561
C43_6 C 0.0214(3) 0.8064(2) 0.3174(2)
H75_6 H 0.0108 0.8367 0.3167
O48_6 O 0.0593(2) 0.7556(3) 0.2769(2)
H78_6 H 0.0747 0.7496 0.2501
C48_6 C 0.0424(3) 0.7967(3) 0.2754(3)
H85_6 H 0.0210 0.7988 0.2518
H88_6 H 0.0656 0.8178 0.2697
O1_6 O 0.8584(2) 0.1615(3) 0.3086(2)
C1_6 C 0.8745(3) 0.1823(4) 0.3459(3)
H1_6 H 0.8760 0.2139 0.3400
C2_6 C 0.8459(3) 0.1754(4) 0.3843(3)
H3_6 H 0.8168 0.1874 0.3776
C3_6 C 0.8413(3) 0.1286(3) 0.3928(3)
H5_6 H 0.8700 0.1167 0.4010
O4_6 O 0.82501(16) 0.0599(2) 0.35840(17)
C4_6 C 0.8253(2) 0.1050(3) 0.3520(2)
H6_6 H 0.7956 0.1150 0.3448
C5_6 C 0.8556(3) 0.1151(3) 0.3143(3)
H7_6 H 0.8849 0.1029 0.3200
O5_6 O 0.7929(4) 0.1127(4) 0.2636(4)
H8_6 H 0.7744 0.0877 0.2582
C6_6 C 0.8382(5) 0.0979(5) 0.2720(5)
H9_6 H 0.8570 0.1076 0.2482
H10_6 H 0.8388 0.0660 0.2726
O6_6 O 0.77816(16) 0.01486(18) 0.32090(16)
C7_6 C 0.7846(2) 0.0403(3) 0.3595(2)
H11_6 H 0.7621 0.0634 0.3603
O7_6 O 0.7864(2) 0.0396(2) 0.4362(2)
H12_6 H 0.8007 0.0667 0.4287
C8_6 C 0.7803(3) 0.0142(3) 0.3979(3)
H13_6 H 0.7499 0.0035 0.3986
O9_6 O 0.91596(17) 0.1677(2) 0.35530(16)
O42_6 O 0.9484(2) 0.2008(3) 0.4346(2)
H66_6 H 0.9184 0.1940 0.4275
C39_6 C 0.9758(3) 0.1916(3) 0.3973(3)
H69_6 H 0.9852 0.1609 0.3984
C42_6 C 0.9501(3) 0.1990(2) 0.3559(2)
H70_6 H 0.9376 0.2287 0.3561
C45_6 C 0.9786(3) 0.1936(2) 0.3174(2)
H73_6 H 0.9892 0.1633 0.3167
O46_6 O 0.9407(2) 0.2444(3) 0.2769(2)
H76_6 H 0.9253 0.2504 0.2501
C46_6 C 0.9576(3) 0.2033(3) 0.2754(3)
H83_6 H 0.9790 0.2012 0.2518
H86_6 H 0.9344 0.1822 0.2697
H89_12 H 0.873971 0.174109 0.600981
H92_12 H 0.77294 0.141613 0.589334
O8_6 O 0.7992(3) 0.9484(2) 0.4346(2)
H14_6 H 0.8060 0.9184 0.4275
C9_6 C 0.8084(3) 0.9758(3) 0.3973(3)
H15_6 H 0.8391 0.9852 0.3984
C10_6 C 0.8010(2) 0.9501(3) 0.3559(2)
H16_6 H 0.7713 0.9376 0.3561
C11_6 C 0.8064(2) 0.9786(3) 0.3174(2)
H17_6 H 0.8367 0.9892 0.3167
O10_6 O 0.7556(3) 0.9407(2) 0.2769(2)
H18_6 H 0.7496 0.9253 0.2501
C12_6 C 0.7967(3) 0.9576(3) 0.2754(3)
H19_6 H 0.7988 0.9790 0.2518
H20_6 H 0.8178 0.9344 0.2697
O11_6 O 0.8385(3) 0.8584(2) 0.3086(2)
C13_6 C 0.8177(4) 0.8745(3) 0.3459(3)
H21_6 H 0.7861 0.8760 0.3400
C16_6 C 0.8246(4) 0.8459(3) 0.3843(3)
H29_6 H 0.8126 0.8168 0.3776
C19_6 C 0.8714(3) 0.8413(3) 0.3928(3)
H37_6 H 0.8833 0.8700 0.4010
O24_6 O 0.9401(2) 0.82501(16) 0.35840(17)
C22_6 C 0.8950(3) 0.8253(2) 0.3520(2)
H42_6 H 0.8850 0.7956 0.3448
C25_6 C 0.8849(3) 0.8556(3) 0.3143(3)
H45_6 H 0.8971 0.8849 0.3200
O29_6 O 0.8873(4) 0.7929(4) 0.2636(4)
H48_6 H 0.9123 0.7744 0.2582
C30_6 C 0.9021(5) 0.8382(5) 0.2720(5)
H51_6 H 0.8924 0.8570 0.2482
H54_6 H 0.9340 0.8388 0.2726
O30_6 O 0.98514(18) 0.77816(16) 0.32090(16)
C31_6 C 0.9597(3) 0.7846(2) 0.3595(2)
H55_6 H 0.9366 0.7621 0.3603
O37_6 O 0.9604(2) 0.7864(2) 0.4362(2)
H58_6 H 0.9333 0.8007 0.4287
C34_6 C 0.9858(3) 0.7803(3) 0.3979(3)
H61_6 H 0.9965 0.7499 0.3986
O43_6 O 0.8323(2) 0.91596(17) 0.35530(16)
H90_10 H 0.825891 0.873971 0.600981
H91_10 H 0.858387 0.77294 0.589334
H89_13 H 0.174109 0.126029 0.600981
H92_13 H 0.141613 0.22706 0.589334
H89_14 H 0.126029 0.825891 0.600981
H92_14 H 0.22706 0.858387 0.589334
O1_7 O 0.3385(3) 0.1914(2) 0.3584(2)
C1_7 C 0.3177(4) 0.1541(3) 0.3745(3)
H1_7 H 0.2861 0.1600 0.3760
O2_6 O 0.3030(3) 0.0792(2) 0.3622(2)
H2_6 H 0.3086 0.0766 0.3931
C2_7 C 0.3246(4) 0.1157(3) 0.3459(3)
H3_7 H 0.3126 0.1224 0.3168
O3_6 O 0.3790(3) 0.0728(2) 0.3117(2)
H4_6 H 0.3740 0.0452 0.3262
C3_7 C 0.3714(3) 0.1072(3) 0.3413(3)
H5_7 H 0.3833 0.0990 0.3700
O4_7 O 0.4401(2) 0.14160(17) 0.32501(16)
C4_7 C 0.3950(3) 0.1480(2) 0.3253(2)
H6_7 H 0.3850 0.1552 0.2956
C5_7 C 0.3849(3) 0.1857(3) 0.3556(3)
H7_7 H 0.3971 0.1800 0.3849
O5_7 O 0.3873(4) 0.2364(4) 0.2929(4)
H8_7 H 0.4123 0.2418 0.2744
C6_7 C 0.4021(5) 0.2280(5) 0.3382(5)
H9_7 H 0.3924 0.2518 0.3570
H10_7 H 0.4340 0.2274 0.3388
C7_7 C 0.4597(3) 0.1405(2) 0.2846(2)
H11_7 H 0.4366 0.1397 0.2621
O7_7 O 0.4604(2) 0.0638(2) 0.2864(2)
H12_7 H 0.4333 0.0713 0.3007
C8_7 C 0.4858(3) 0.1021(3) 0.2803(3)
H13_7 H 0.4965 0.1014 0.2499
O8_7 O 0.5516(2) 0.0654(2) 0.2992(3)
H14_7 H 0.5816 0.0725 0.3060
C9_7 C 0.5242(3) 0.1027(3) 0.3084(3)
H15_7 H 0.5148 0.1016 0.3391
O9_7 O 0.3323(2) 0.14470(16) 0.41596(17)
C10_7 C 0.5499(3) 0.1441(2) 0.3010(2)
H16_7 H 0.5624 0.1439 0.2713
C11_7 C 0.5214(3) 0.1826(2) 0.3064(2)
H17_7 H 0.5108 0.1833 0.3367
C12_7 C 0.5424(3) 0.2246(3) 0.2967(3)
H19_7 H 0.5210 0.2482 0.2988
H20_7 H 0.5656 0.2303 0.3178
O11_7 O 0.6416(2) 0.1914(2) 0.3385(3)
O12_7 O 0.6615(3) 0.1914(2) 0.6416(2)
O13_7 O 0.3584(2) 0.1914(2) 0.6615(3)
C13_7 C 0.6255(3) 0.1541(3) 0.3177(4)
C14_7 C 0.6823(4) 0.1541(3) 0.6255(3)
C15_7 C 0.3745(3) 0.1541(3) 0.6823(4)
H21_7 H 0.6240 0.1600 0.2861
H22_7 H 0.7139 0.1600 0.6240
H23_7 H 0.3760 0.1600 0.7139
O14_6 O 0.6378(2) 0.0792(2) 0.3030(3)
O15_4 O 0.6970(3) 0.0792(2) 0.6378(2)
O16_4 O 0.3622(2) 0.0792(2) 0.6970(3)
H24_6 H 0.6069 0.0766 0.3086
H25_4 H 0.6914 0.0766 0.6069
H26_4 H 0.3931 0.0766 0.6914
C16_7 C 0.6541(3) 0.1157(3) 0.3246(4)
C17_7 C 0.6754(4) 0.1157(3) 0.6541(3)
C18_7 C 0.3459(3) 0.1157(3) 0.6754(4)
H29_7 H 0.6832 0.1224 0.3126
H30_7 H 0.6874 0.1224 0.6832
H31_7 H 0.3168 0.1224 0.6874
O19_6 O 0.6883(2) 0.0728(2) 0.3790(3)
O20_4 O 0.6210(3) 0.0728(2) 0.6883(2)
O21_4 O 0.3117(2) 0.0728(2) 0.6210(3)
H32_6 H 0.6738 0.0452 0.3740
H33_4 H 0.6260 0.0452 0.6738
H34_4 H 0.3262 0.0452 0.6260
C19_7 C 0.6587(3) 0.1072(3) 0.3714(3)
C20_7 C 0.6286(3) 0.1072(3) 0.6587(3)
C21_7 C 0.3413(3) 0.1072(3) 0.6286(3)
H37_7 H 0.6300 0.0990 0.3833
H38_7 H 0.6167 0.0990 0.6300
H39_7 H 0.3700 0.0990 0.6167
O24_7 O 0.67499(16) 0.14160(17) 0.4401(2)
O25_7 O 0.5599(2) 0.14160(17) 0.67499(16)
O26_7 O 0.32501(16) 0.14160(17) 0.5599(2)
C22_7 C 0.6747(2) 0.1480(2) 0.3950(3)
C23_7 C 0.6050(3) 0.1480(2) 0.6747(2)
C24_7 C 0.3253(2) 0.1480(2) 0.6050(3)
H40_7 H 0.2956 0.1552 0.6150
H41_7 H 0.6150 0.1552 0.7044
H42_7 H 0.7044 0.1552 0.3850
C25_7 C 0.6444(3) 0.1857(3) 0.3849(3)
C26_7 C 0.6151(3) 0.1857(3) 0.6444(3)
C27_7 C 0.3556(3) 0.1857(3) 0.6151(3)
H43_7 H 0.3849 0.1800 0.6029
H44_7 H 0.6029 0.1800 0.6151
H45_7 H 0.6151 0.1800 0.3971
O27_7 O 0.2929(4) 0.2364(4) 0.6127(4)
O28_7 O 0.6127(4) 0.2364(4) 0.7071(4)
O29_7 O 0.7071(4) 0.2364(4) 0.3873(4)
H46_7 H 0.2744 0.2418 0.5877
H47_7 H 0.5877 0.2418 0.7256
H48_7 H 0.7256 0.2418 0.4123
C28_7 C 0.3382(5) 0.2280(5) 0.5979(5)
C29_7 C 0.5979(5) 0.2280(5) 0.6618(5)
C30_7 C 0.6618(5) 0.2280(5) 0.4021(5)
H49_7 H 0.3570 0.2518 0.6076
H50_7 H 0.6076 0.2518 0.6430
H51_7 H 0.6430 0.2518 0.3924
H52_7 H 0.3388 0.2274 0.5660
H53_7 H 0.5660 0.2274 0.6612
H54_7 H 0.6612 0.2274 0.4340
C31_7 C 0.7154(2) 0.1405(2) 0.4597(3)
C32_7 C 0.5403(3) 0.1405(2) 0.7154(2)
C33_7 C 0.2846(2) 0.1405(2) 0.5403(3)
H55_7 H 0.7379 0.1397 0.4366
H56_7 H 0.5634 0.1397 0.7379
H57_7 H 0.2621 0.1397 0.5634
O37_7 O 0.7136(2) 0.0638(2) 0.4604(2)
O38_7 O 0.5396(2) 0.0638(2) 0.7136(2)
O39_7 O 0.2864(2) 0.0638(2) 0.5396(2)
H58_7 H 0.6993 0.0713 0.4333
H59_7 H 0.5667 0.0713 0.6993
H60_7 H 0.3007 0.0713 0.5667
C34_7 C 0.7197(3) 0.1021(3) 0.4858(3)
C35_7 C 0.5142(3) 0.1021(3) 0.7197(3)
C36_7 C 0.2803(3) 0.1021(3) 0.5142(3)
H61_7 H 0.7501 0.1014 0.4965
H62_7 H 0.5035 0.1014 0.7501
H63_7 H 0.2499 0.1014 0.5035
O40_7 O 0.7008(3) 0.0654(2) 0.5516(2)
O41_7 O 0.4484(2) 0.0654(2) 0.7008(3)
O42_7 O 0.2992(3) 0.0654(2) 0.4484(2)
H64_7 H 0.6940 0.0725 0.5816
H65_7 H 0.4184 0.0725 0.6940
H66_7 H 0.3060 0.0725 0.4184
C37_7 C 0.6916(3) 0.1027(3) 0.5242(3)
C38_7 C 0.4758(3) 0.1027(3) 0.6916(3)
C39_7 C 0.3084(3) 0.1027(3) 0.4758(3)
H67_7 H 0.6609 0.1016 0.5148
H68_7 H 0.4852 0.1016 0.6609
H69_7 H 0.3391 0.1016 0.4852
O43_7 O 0.58404(17) 0.14470(16) 0.3323(2)
O44_7 O 0.6677(2) 0.14470(16) 0.58404(17)
O45_7 O 0.41596(17) 0.14470(16) 0.6677(2)
C40_7 C 0.6990(2) 0.1441(2) 0.5499(3)
C41_7 C 0.4501(3) 0.1441(2) 0.6990(2)
C42_7 C 0.3010(2) 0.1441(2) 0.4501(3)
H70_7 H 0.2713 0.1439 0.4376
H71_7 H 0.4376 0.1439 0.7287
H72_7 H 0.7287 0.1439 0.5624
C43_7 C 0.6936(2) 0.1826(2) 0.5214(3)
C44_7 C 0.4786(3) 0.1826(2) 0.6936(2)
C45_7 C 0.3064(2) 0.1826(2) 0.4786(3)
H73_7 H 0.3367 0.1833 0.4892
H74_7 H 0.4892 0.1833 0.6633
H75_7 H 0.6633 0.1833 0.5108
C46_7 C 0.2967(3) 0.2246(3) 0.4576(3)
C47_7 C 0.4576(3) 0.2246(3) 0.7033(3)
C48_7 C 0.7033(3) 0.2246(3) 0.5424(3)
H83_7 H 0.2988 0.2482 0.4790
H84_7 H 0.4790 0.2482 0.7012
H85_7 H 0.7012 0.2482 0.5210
H86_7 H 0.3178 0.2303 0.4344
H87_7 H 0.4344 0.2303 0.6822
H88_7 H 0.6822 0.2303 0.5656
H95_6 H 0.700794 0.0813016 0.238136
H96_8 H 0.238136 0.0813016 0.299206
O17_6 O 0.3622(2) 0.9208(2) 0.3030(3)
O18_4 O 0.6970(3) 0.9208(2) 0.3622(2)
H27_6 H 0.3931 0.9234 0.3086
H28_4 H 0.6914 0.9234 0.3931
O22_6 O 0.3117(2) 0.9272(2) 0.3790(3)
O23_4 O 0.6210(3) 0.9272(2) 0.3117(2)
H35_6 H 0.3262 0.9548 0.3740
H36_4 H 0.6260 0.9548 0.3262
H89_15 H 0.325891 0.899019 0.373971
H90_11 H 0.626029 0.899019 0.325891
H91_11 H 0.72706 0.910666 0.358387
H92_15 H 0.358387 0.910666 0.27294
H93_8 H 0.299206 0.918698 0.238136
H94_6 H 0.761864 0.918698 0.299206
O17_7 O 0.0792(2) 0.3622(2) 0.3030(3)
O18_5 O 0.0792(2) 0.6970(3) 0.3622(2)
H27_7 H 0.0766 0.3931 0.3086
H28_5 H 0.0766 0.6914 0.3931
O22_7 O 0.0728(2) 0.3117(2) 0.3790(3)
O23_5 O 0.0728(2) 0.6210(3) 0.3117(2)
H35_7 H 0.0452 0.3262 0.3740
H36_5 H 0.0452 0.6260 0.3262
H89_16 H 0.100981 0.325891 0.373971
H90_12 H 0.100981 0.626029 0.325891
H91_12 H 0.0893339 0.72706 0.358387
H92_16 H 0.0893339 0.358387 0.27294
H93_9 H 0.0813016 0.299206 0.238136
H94_7 H 0.0813016 0.761864 0.299206
O1_8 O 0.8086(2) 0.3385(3) 0.3584(2)
C1_8 C 0.8459(3) 0.3177(4) 0.3745(3)
H1_8 H 0.8400 0.2861 0.3760
O2_7 O 0.9208(2) 0.3030(3) 0.3622(2)
H2_7 H 0.9234 0.3086 0.3931
C2_8 C 0.8843(3) 0.3246(4) 0.3459(3)
H3_8 H 0.8776 0.3126 0.3168
O3_7 O 0.9272(2) 0.3790(3) 0.3117(2)
H4_7 H 0.9548 0.3740 0.3262
C3_8 C 0.8928(3) 0.3714(3) 0.3413(3)
H5_8 H 0.9010 0.3833 0.3700
O4_8 O 0.85840(17) 0.4401(2) 0.32501(16)
C4_8 C 0.8520(2) 0.3950(3) 0.3253(2)
H6_8 H 0.8448 0.3850 0.2956
C5_8 C 0.8143(3) 0.3849(3) 0.3556(3)
H7_8 H 0.8200 0.3971 0.3849
O5_8 O 0.7636(4) 0.3873(4) 0.2929(4)
H8_8 H 0.7582 0.4123 0.2744
C6_8 C 0.7720(5) 0.4021(5) 0.3382(5)
H9_8 H 0.7482 0.3924 0.3570
H10_8 H 0.7726 0.4340 0.3388
C7_8 C 0.8595(2) 0.4597(3) 0.2846(2)
H11_8 H 0.8603 0.4366 0.2621
O7_8 O 0.9362(2) 0.4604(2) 0.2864(2)
H12_8 H 0.9287 0.4333 0.3007
C8_8 C 0.8979(3) 0.4858(3) 0.2803(3)
H13_8 H 0.8986 0.4965 0.2499
O8_8 O 0.9346(2) 0.5516(2) 0.2992(3)
H14_8 H 0.9275 0.5816 0.3060
C9_8 C 0.8973(3) 0.5242(3) 0.3084(3)
H15_8 H 0.8984 0.5148 0.3391
O9_8 O 0.85530(16) 0.3323(2) 0.41596(17)
C10_8 C 0.8559(2) 0.5499(3) 0.3010(2)
H16_8 H 0.8561 0.5624 0.2713
C11_8 C 0.8174(2) 0.5214(3) 0.3064(2)
H17_8 H 0.8167 0.5108 0.3367
C12_8 C 0.7754(3) 0.5424(3) 0.2967(3)
H19_8 H 0.7518 0.5210 0.2988
H20_8 H 0.7697 0.5656 0.3178
O11_8 O 0.8086(2) 0.6416(2) 0.3385(3)
O12_8 O 0.8086(2) 0.6615(3) 0.6416(2)
O13_8 O 0.8086(2) 0.3584(2) 0.6615(3)
C13_8 C 0.8459(3) 0.6255(3) 0.3177(4)
C14_8 C 0.8459(3) 0.6823(4) 0.6255(3)
C15_8 C 0.8459(3) 0.3745(3) 0.6823(4)
H21_8 H 0.8400 0.6240 0.2861
H22_8 H 0.8400 0.7139 0.6240
H23_8 H 0.8400 0.3760 0.7139
O14_7 O 0.9208(2) 0.6378(2) 0.3030(3)
O15_5 O 0.9208(2) 0.6970(3) 0.6378(2)
O16_5 O 0.9208(2) 0.3622(2) 0.6970(3)
H24_7 H 0.9234 0.6069 0.3086
H25_5 H 0.9234 0.6914 0.6069
H26_5 H 0.9234 0.3931 0.6914
C16_8 C 0.8843(3) 0.6541(3) 0.3246(4)
C17_8 C 0.8843(3) 0.6754(4) 0.6541(3)
C18_8 C 0.8843(3) 0.3459(3) 0.6754(4)
H29_8 H 0.8776 0.6832 0.3126
H30_8 H 0.8776 0.6874 0.6832
H31_8 H 0.8776 0.3168 0.6874
O19_7 O 0.9272(2) 0.6883(2) 0.3790(3)
O20_5 O 0.9272(2) 0.6210(3) 0.6883(2)
O21_5 O 0.9272(2) 0.3117(2) 0.6210(3)
H32_7 H 0.9548 0.6738 0.3740
H33_5 H 0.9548 0.6260 0.6738
H34_5 H 0.9548 0.3262 0.6260
C19_8 C 0.8928(3) 0.6587(3) 0.3714(3)
C20_8 C 0.8928(3) 0.6286(3) 0.6587(3)
C21_8 C 0.8928(3) 0.3413(3) 0.6286(3)
H37_8 H 0.9010 0.6300 0.3833
H38_8 H 0.9010 0.6167 0.6300
H39_8 H 0.9010 0.3700 0.6167
O24_8 O 0.85840(17) 0.67499(16) 0.4401(2)
O25_8 O 0.85840(17) 0.5599(2) 0.67499(16)
O26_8 O 0.85840(17) 0.32501(16) 0.5599(2)
C22_8 C 0.8520(2) 0.6747(2) 0.3950(3)
C23_8 C 0.8520(2) 0.6050(3) 0.6747(2)
C24_8 C 0.8520(2) 0.3253(2) 0.6050(3)
H40_8 H 0.8448 0.2956 0.6150
H41_8 H 0.8448 0.6150 0.7044
H42_8 H 0.8448 0.7044 0.3850
C25_8 C 0.8143(3) 0.6444(3) 0.3849(3)
C26_8 C 0.8143(3) 0.6151(3) 0.6444(3)
C27_8 C 0.8143(3) 0.3556(3) 0.6151(3)
H43_8 H 0.8200 0.3849 0.6029
H44_8 H 0.8200 0.6029 0.6151
H45_8 H 0.8200 0.6151 0.3971
O27_8 O 0.7636(4) 0.2929(4) 0.6127(4)
O28_8 O 0.7636(4) 0.6127(4) 0.7071(4)
O29_8 O 0.7636(4) 0.7071(4) 0.3873(4)
H46_8 H 0.7582 0.2744 0.5877
H47_8 H 0.7582 0.5877 0.7256
H48_8 H 0.7582 0.7256 0.4123
C28_8 C 0.7720(5) 0.3382(5) 0.5979(5)
C29_8 C 0.7720(5) 0.5979(5) 0.6618(5)
C30_8 C 0.7720(5) 0.6618(5) 0.4021(5)
H49_8 H 0.7482 0.3570 0.6076
H50_8 H 0.7482 0.6076 0.6430
H51_8 H 0.7482 0.6430 0.3924
H52_8 H 0.7726 0.3388 0.5660
H53_8 H 0.7726 0.5660 0.6612
H54_8 H 0.7726 0.6612 0.4340
C31_8 C 0.8595(2) 0.7154(2) 0.4597(3)
C32_8 C 0.8595(2) 0.5403(3) 0.7154(2)
C33_8 C 0.8595(2) 0.2846(2) 0.5403(3)
H55_8 H 0.8603 0.7379 0.4366
H56_8 H 0.8603 0.5634 0.7379
H57_8 H 0.8603 0.2621 0.5634
O37_8 O 0.9362(2) 0.7136(2) 0.4604(2)
O38_8 O 0.9362(2) 0.5396(2) 0.7136(2)
O39_8 O 0.9362(2) 0.2864(2) 0.5396(2)
H58_8 H 0.9287 0.6993 0.4333
H59_8 H 0.9287 0.5667 0.6993
H60_8 H 0.9287 0.3007 0.5667
C34_8 C 0.8979(3) 0.7197(3) 0.4858(3)
C35_8 C 0.8979(3) 0.5142(3) 0.7197(3)
C36_8 C 0.8979(3) 0.2803(3) 0.5142(3)
H61_8 H 0.8986 0.7501 0.4965
H62_8 H 0.8986 0.5035 0.7501
H63_8 H 0.8986 0.2499 0.5035
O40_8 O 0.9346(2) 0.7008(3) 0.5516(2)
O41_8 O 0.9346(2) 0.4484(2) 0.7008(3)
O42_8 O 0.9346(2) 0.2992(3) 0.4484(2)
H64_8 H 0.9275 0.6940 0.5816
H65_8 H 0.9275 0.4184 0.6940
H66_8 H 0.9275 0.3060 0.4184
C37_8 C 0.8973(3) 0.6916(3) 0.5242(3)
C38_8 C 0.8973(3) 0.4758(3) 0.6916(3)
C39_8 C 0.8973(3) 0.3084(3) 0.4758(3)
H67_8 H 0.8984 0.6609 0.5148
H68_8 H 0.8984 0.4852 0.6609
H69_8 H 0.8984 0.3391 0.4852
O43_8 O 0.85530(16) 0.58404(17) 0.3323(2)
O44_8 O 0.85530(16) 0.6677(2) 0.58404(17)
O45_8 O 0.85530(16) 0.41596(17) 0.6677(2)
C40_8 C 0.8559(2) 0.6990(2) 0.5499(3)
C41_8 C 0.8559(2) 0.4501(3) 0.6990(2)
C42_8 C 0.8559(2) 0.3010(2) 0.4501(3)
H70_8 H 0.8561 0.2713 0.4376
H71_8 H 0.8561 0.4376 0.7287
H72_8 H 0.8561 0.7287 0.5624
C43_8 C 0.8174(2) 0.6936(2) 0.5214(3)
C44_8 C 0.8174(2) 0.4786(3) 0.6936(2)
C45_8 C 0.8174(2) 0.3064(2) 0.4786(3)
H73_8 H 0.8167 0.3367 0.4892
H74_8 H 0.8167 0.4892 0.6633
H75_8 H 0.8167 0.6633 0.5108
C46_8 C 0.7754(3) 0.2967(3) 0.4576(3)
C47_8 C 0.7754(3) 0.4576(3) 0.7033(3)
C48_8 C 0.7754(3) 0.7033(3) 0.5424(3)
H83_8 H 0.7518 0.2988 0.4790
H84_8 H 0.7518 0.4790 0.7012
H85_8 H 0.7518 0.7012 0.5210
H86_8 H 0.7697 0.3178 0.4344
H87_8 H 0.7697 0.4344 0.6822
H88_8 H 0.7697 0.6822 0.5656
H95_7 H 0.918698 0.700794 0.238136
H96_9 H 0.918698 0.238136 0.299206
H89_17 H 0.325891 0.100981 0.626029
H90_13 H 0.626029 0.100981 0.674109
H91_13 H 0.72706 0.0893339 0.641613
H92_17 H 0.358387 0.0893339 0.72706
H93_10 H 0.299206 0.0813016 0.761864
H94_8 H 0.761864 0.0813016 0.700794
O1_9 O 0.3385(3) 0.8086(2) 0.6416(2)
C1_9 C 0.3177(4) 0.8459(3) 0.6255(3)
H1_9 H 0.2861 0.8400 0.6240
O2_8 O 0.3030(3) 0.9208(2) 0.6378(2)
H2_8 H 0.3086 0.9234 0.6069
C2_9 C 0.3246(4) 0.8843(3) 0.6541(3)
H3_9 H 0.3126 0.8776 0.6832
O3_8 O 0.3790(3) 0.9272(2) 0.6883(2)
H4_8 H 0.3740 0.9548 0.6738
C3_9 C 0.3714(3) 0.8928(3) 0.6587(3)
H5_9 H 0.3833 0.9010 0.6300
O4_9 O 0.4401(2) 0.85840(17) 0.67499(16)
C4_9 C 0.3950(3) 0.8520(2) 0.6747(2)
H6_9 H 0.3850 0.8448 0.7044
C5_9 C 0.3849(3) 0.8143(3) 0.6444(3)
H7_9 H 0.3971 0.8200 0.6151
O5_9 O 0.3873(4) 0.7636(4) 0.7071(4)
H8_9 H 0.4123 0.7582 0.7256
C6_9 C 0.4021(5) 0.7720(5) 0.6618(5)
H9_9 H 0.3924 0.7482 0.6430
H10_9 H 0.4340 0.7726 0.6612
C7_9 C 0.4597(3) 0.8595(2) 0.7154(2)
H11_9 H 0.4366 0.8603 0.7379
O7_9 O 0.4604(2) 0.9362(2) 0.7136(2)
H12_9 H 0.4333 0.9287 0.6993
C8_9 C 0.4858(3) 0.8979(3) 0.7197(3)
H13_9 H 0.4965 0.8986 0.7501
O8_9 O 0.5516(2) 0.9346(2) 0.7008(3)
H14_9 H 0.5816 0.9275 0.6940
C9_9 C 0.5242(3) 0.8973(3) 0.6916(3)
H15_9 H 0.5148 0.8984 0.6609
O9_9 O 0.3323(2) 0.85530(16) 0.58404(17)
C10_9 C 0.5499(3) 0.8559(2) 0.6990(2)
H16_9 H 0.5624 0.8561 0.7287
C11_9 C 0.5214(3) 0.8174(2) 0.6936(2)
H17_9 H 0.5108 0.8167 0.6633
C12_9 C 0.5424(3) 0.7754(3) 0.7033(3)
H19_9 H 0.5210 0.7518 0.7012
H20_9 H 0.5656 0.7697 0.6822
O11_9 O 0.6416(2) 0.8086(2) 0.6615(3)
O12_9 O 0.6615(3) 0.8086(2) 0.3584(2)
O13_9 O 0.3584(2) 0.8086(2) 0.3385(3)
C13_9 C 0.6255(3) 0.8459(3) 0.6823(4)
C14_9 C 0.6823(4) 0.8459(3) 0.3745(3)
C15_9 C 0.3745(3) 0.8459(3) 0.3177(4)
H21_9 H 0.6240 0.8400 0.7139
H22_9 H 0.7139 0.8400 0.3760
H23_9 H 0.3760 0.8400 0.2861
O14_8 O 0.6378(2) 0.9208(2) 0.6970(3)
H24_8 H 0.6069 0.9234 0.6914
C16_9 C 0.6541(3) 0.8843(3) 0.6754(4)
C17_9 C 0.6754(4) 0.8843(3) 0.3459(3)
C18_9 C 0.3459(3) 0.8843(3) 0.3246(4)
H29_9 H 0.6832 0.8776 0.6874
H30_9 H 0.6874 0.8776 0.3168
H31_9 H 0.3168 0.8776 0.3126
O19_8 O 0.6883(2) 0.9272(2) 0.6210(3)
H32_8 H 0.6738 0.9548 0.6260
C19_9 C 0.6587(3) 0.8928(3) 0.6286(3)
C20_9 C 0.6286(3) 0.8928(3) 0.3413(3)
C21_9 C 0.3413(3) 0.8928(3) 0.3714(3)
H37_9 H 0.6300 0.9010 0.6167
H38_9 H 0.6167 0.9010 0.3700
H39_9 H 0.3700 0.9010 0.3833
O24_9 O 0.67499(16) 0.85840(17) 0.5599(2)
O25_9 O 0.5599(2) 0.85840(17) 0.32501(16)
O26_9 O 0.32501(16) 0.85840(17) 0.4401(2)
C22_9 C 0.6747(2) 0.8520(2) 0.6050(3)
C23_9 C 0.6050(3) 0.8520(2) 0.3253(2)
C24_9 C 0.3253(2) 0.8520(2) 0.3950(3)
H40_9 H 0.2956 0.8448 0.3850
H41_9 H 0.6150 0.8448 0.2956
H42_9 H 0.7044 0.8448 0.6150
C25_9 C 0.6444(3) 0.8143(3) 0.6151(3)
C26_9 C 0.6151(3) 0.8143(3) 0.3556(3)
C27_9 C 0.3556(3) 0.8143(3) 0.3849(3)
H43_9 H 0.3849 0.8200 0.3971
H44_9 H 0.6029 0.8200 0.3849
H45_9 H 0.6151 0.8200 0.6029
O27_9 O 0.2929(4) 0.7636(4) 0.3873(4)
O28_9 O 0.6127(4) 0.7636(4) 0.2929(4)
O29_9 O 0.7071(4) 0.7636(4) 0.6127(4)
H46_9 H 0.2744 0.7582 0.4123
H47_9 H 0.5877 0.7582 0.2744
H48_9 H 0.7256 0.7582 0.5877
C28_9 C 0.3382(5) 0.7720(5) 0.4021(5)
C29_9 C 0.5979(5) 0.7720(5) 0.3382(5)
C30_9 C 0.6618(5) 0.7720(5) 0.5979(5)
H49_9 H 0.3570 0.7482 0.3924
H50_9 H 0.6076 0.7482 0.3570
H51_9 H 0.6430 0.7482 0.6076
H52_9 H 0.3388 0.7726 0.4340
H53_9 H 0.5660 0.7726 0.3388
H54_9 H 0.6612 0.7726 0.5660
C31_9 C 0.7154(2) 0.8595(2) 0.5403(3)
C32_9 C 0.5403(3) 0.8595(2) 0.2846(2)
C33_9 C 0.2846(2) 0.8595(2) 0.4597(3)
H55_9 H 0.7379 0.8603 0.5634
H56_9 H 0.5634 0.8603 0.2621
H57_9 H 0.2621 0.8603 0.4366
O37_9 O 0.7136(2) 0.9362(2) 0.5396(2)
O38_9 O 0.5396(2) 0.9362(2) 0.2864(2)
O39_9 O 0.2864(2) 0.9362(2) 0.4604(2)
H58_9 H 0.6993 0.9287 0.5667
H59_9 H 0.5667 0.9287 0.3007
H60_9 H 0.3007 0.9287 0.4333
C34_9 C 0.7197(3) 0.8979(3) 0.5142(3)
C35_9 C 0.5142(3) 0.8979(3) 0.2803(3)
C36_9 C 0.2803(3) 0.8979(3) 0.4858(3)
H61_9 H 0.7501 0.8986 0.5035
H62_9 H 0.5035 0.8986 0.2499
H63_9 H 0.2499 0.8986 0.4965
O40_9 O 0.7008(3) 0.9346(2) 0.4484(2)
O41_9 O 0.4484(2) 0.9346(2) 0.2992(3)
O42_9 O 0.2992(3) 0.9346(2) 0.5516(2)
H64_9 H 0.6940 0.9275 0.4184
H65_9 H 0.4184 0.9275 0.3060
H66_9 H 0.3060 0.9275 0.5816
C37_9 C 0.6916(3) 0.8973(3) 0.4758(3)
C38_9 C 0.4758(3) 0.8973(3) 0.3084(3)
C39_9 C 0.3084(3) 0.8973(3) 0.5242(3)
H67_9 H 0.6609 0.8984 0.4852
H68_9 H 0.4852 0.8984 0.3391
H69_9 H 0.3391 0.8984 0.5148
O43_9 O 0.58404(17) 0.85530(16) 0.6677(2)
O44_9 O 0.6677(2) 0.85530(16) 0.41596(17)
O45_9 O 0.41596(17) 0.85530(16) 0.3323(2)
C40_9 C 0.6990(2) 0.8559(2) 0.4501(3)
C41_9 C 0.4501(3) 0.8559(2) 0.3010(2)
C42_9 C 0.3010(2) 0.8559(2) 0.5499(3)
H70_9 H 0.2713 0.8561 0.5624
H71_9 H 0.4376 0.8561 0.2713
H72_9 H 0.7287 0.8561 0.4376
C43_9 C 0.6936(2) 0.8174(2) 0.4786(3)
C44_9 C 0.4786(3) 0.8174(2) 0.3064(2)
C45_9 C 0.3064(2) 0.8174(2) 0.5214(3)
H73_9 H 0.3367 0.8167 0.5108
H74_9 H 0.4892 0.8167 0.3367
H75_9 H 0.6633 0.8167 0.4892
C46_9 C 0.2967(3) 0.7754(3) 0.5424(3)
C47_9 C 0.4576(3) 0.7754(3) 0.2967(3)
C48_9 C 0.7033(3) 0.7754(3) 0.4576(3)
H83_9 H 0.2988 0.7518 0.5210
H84_9 H 0.4790 0.7518 0.2988
H85_9 H 0.7012 0.7518 0.4790
H86_9 H 0.3178 0.7697 0.5656
H87_9 H 0.4344 0.7697 0.3178
H88_9 H 0.6822 0.7697 0.4344
H95_8 H 0.700794 0.918698 0.761864
H96_10 H 0.238136 0.918698 0.700794
O1_10 O 0.3584(2) 0.3385(3) 0.1914(2)
C1_10 C 0.3745(3) 0.3177(4) 0.1541(3)
H1_10 H 0.3760 0.2861 0.1600
O2_9 O 0.3622(2) 0.3030(3) 0.0792(2)
H2_9 H 0.3931 0.3086 0.0766
C2_10 C 0.3459(3) 0.3246(4) 0.1157(3)
H3_10 H 0.3168 0.3126 0.1224
O3_9 O 0.3117(2) 0.3790(3) 0.0728(2)
H4_9 H 0.3262 0.3740 0.0452
C3_10 C 0.3413(3) 0.3714(3) 0.1072(3)
H5_10 H 0.3700 0.3833 0.0990
O4_10 O 0.32501(16) 0.4401(2) 0.14160(17)
C4_10 C 0.3253(2) 0.3950(3) 0.1480(2)
H6_10 H 0.2956 0.3850 0.1552
C5_10 C 0.3556(3) 0.3849(3) 0.1857(3)
H7_10 H 0.3849 0.3971 0.1800
O5_10 O 0.2929(4) 0.3873(4) 0.2364(4)
H8_10 H 0.2744 0.4123 0.2418
C6_10 C 0.3382(5) 0.4021(5) 0.2280(5)
H9_10 H 0.3570 0.3924 0.2518
H10_10 H 0.3388 0.4340 0.2274
C7_10 C 0.2846(2) 0.4597(3) 0.1405(2)
H11_10 H 0.2621 0.4366 0.1397
O7_10 O 0.2864(2) 0.4604(2) 0.0638(2)
H12_10 H 0.3007 0.4333 0.0713
C8_10 C 0.2803(3) 0.4858(3) 0.1021(3)
H13_10 H 0.2499 0.4965 0.1014
O8_10 O 0.2992(3) 0.5516(2) 0.0654(2)
H14_10 H 0.3060 0.5816 0.0725
C9_10 C 0.3084(3) 0.5242(3) 0.1027(3)
H15_10 H 0.3391 0.5148 0.1016
O9_10 O 0.41596(17) 0.3323(2) 0.14470(16)
C10_10 C 0.3010(2) 0.5499(3) 0.1441(2)
H16_10 H 0.2713 0.5624 0.1439
C11_10 C 0.3064(2) 0.5214(3) 0.1826(2)
H17_10 H 0.3367 0.5108 0.1833
C12_10 C 0.2967(3) 0.5424(3) 0.2246(3)
H19_10 H 0.2988 0.5210 0.2482
H20_10 H 0.3178 0.5656 0.2303
O11_10 O 0.3385(3) 0.6416(2) 0.1914(2)
O12_10 O 0.6416(2) 0.6615(3) 0.1914(2)
O13_10 O 0.6615(3) 0.3584(2) 0.1914(2)
C13_10 C 0.3177(4) 0.6255(3) 0.1541(3)
C14_10 C 0.6255(3) 0.6823(4) 0.1541(3)
C15_10 C 0.6823(4) 0.3745(3) 0.1541(3)
H21_10 H 0.2861 0.6240 0.1600
H22_10 H 0.6240 0.7139 0.1600
H23_10 H 0.7139 0.3760 0.1600
O14_9 O 0.3030(3) 0.6378(2) 0.0792(2)
O15_6 O 0.6378(2) 0.6970(3) 0.0792(2)
O16_6 O 0.6970(3) 0.3622(2) 0.0792(2)
H24_9 H 0.3086 0.6069 0.0766
H25_6 H 0.6069 0.6914 0.0766
H26_6 H 0.6914 0.3931 0.0766
C16_10 C 0.3246(4) 0.6541(3) 0.1157(3)
C17_10 C 0.6541(3) 0.6754(4) 0.1157(3)
C18_10 C 0.6754(4) 0.3459(3) 0.1157(3)
H29_10 H 0.3126 0.6832 0.1224
H30_10 H 0.6832 0.6874 0.1224
H31_10 H 0.6874 0.3168 0.1224
O19_9 O 0.3790(3) 0.6883(2) 0.0728(2)
O20_6 O 0.6883(2) 0.6210(3) 0.0728(2)
O21_6 O 0.6210(3) 0.3117(2) 0.0728(2)
H32_9 H 0.3740 0.6738 0.0452
H33_6 H 0.6738 0.6260 0.0452
H34_6 H 0.6260 0.3262 0.0452
C19_10 C 0.3714(3) 0.6587(3) 0.1072(3)
C20_10 C 0.6587(3) 0.6286(3) 0.1072(3)
C21_10 C 0.6286(3) 0.3413(3) 0.1072(3)
H37_10 H 0.3833 0.6300 0.0990
H38_10 H 0.6300 0.6167 0.0990
H39_10 H 0.6167 0.3700 0.0990
O24_10 O 0.4401(2) 0.67499(16) 0.14160(17)
O25_10 O 0.67499(16) 0.5599(2) 0.14160(17)
O26_10 O 0.5599(2) 0.32501(16) 0.14160(17)
C22_10 C 0.3950(3) 0.6747(2) 0.1480(2)
C23_10 C 0.6747(2) 0.6050(3) 0.1480(2)
C24_10 C 0.6050(3) 0.3253(2) 0.1480(2)
H40_10 H 0.6150 0.2956 0.1552
H41_10 H 0.7044 0.6150 0.1552
H42_10 H 0.3850 0.7044 0.1552
C25_10 C 0.3849(3) 0.6444(3) 0.1857(3)
C26_10 C 0.6444(3) 0.6151(3) 0.1857(3)
C27_10 C 0.6151(3) 0.3556(3) 0.1857(3)
H43_10 H 0.6029 0.3849 0.1800
H44_10 H 0.6151 0.6029 0.1800
H45_10 H 0.3971 0.6151 0.1800
O27_10 O 0.6127(4) 0.2929(4) 0.2364(4)
O28_10 O 0.7071(4) 0.6127(4) 0.2364(4)
O29_10 O 0.3873(4) 0.7071(4) 0.2364(4)
H46_10 H 0.5877 0.2744 0.2418
H47_10 H 0.7256 0.5877 0.2418
H48_10 H 0.4123 0.7256 0.2418
C28_10 C 0.5979(5) 0.3382(5) 0.2280(5)
C29_10 C 0.6618(5) 0.5979(5) 0.2280(5)
C30_10 C 0.4021(5) 0.6618(5) 0.2280(5)
H49_10 H 0.6076 0.3570 0.2518
H50_10 H 0.6430 0.6076 0.2518
H51_10 H 0.3924 0.6430 0.2518
H52_10 H 0.5660 0.3388 0.2274
H53_10 H 0.6612 0.5660 0.2274
H54_10 H 0.4340 0.6612 0.2274
C31_10 C 0.4597(3) 0.7154(2) 0.1405(2)
C32_10 C 0.7154(2) 0.5403(3) 0.1405(2)
C33_10 C 0.5403(3) 0.2846(2) 0.1405(2)
H55_10 H 0.4366 0.7379 0.1397
H56_10 H 0.7379 0.5634 0.1397
H57_10 H 0.5634 0.2621 0.1397
O37_10 O 0.4604(2) 0.7136(2) 0.0638(2)
O38_10 O 0.7136(2) 0.5396(2) 0.0638(2)
O39_10 O 0.5396(2) 0.2864(2) 0.0638(2)
H58_10 H 0.4333 0.6993 0.0713
H59_10 H 0.6993 0.5667 0.0713
H60_10 H 0.5667 0.3007 0.0713
C34_10 C 0.4858(3) 0.7197(3) 0.1021(3)
C35_10 C 0.7197(3) 0.5142(3) 0.1021(3)
C36_10 C 0.5142(3) 0.2803(3) 0.1021(3)
H61_10 H 0.4965 0.7501 0.1014
H62_10 H 0.7501 0.5035 0.1014
H63_10 H 0.5035 0.2499 0.1014
O40_10 O 0.5516(2) 0.7008(3) 0.0654(2)
O41_10 O 0.7008(3) 0.4484(2) 0.0654(2)
O42_10 O 0.4484(2) 0.2992(3) 0.0654(2)
H64_10 H 0.5816 0.6940 0.0725
H65_10 H 0.6940 0.4184 0.0725
H66_10 H 0.4184 0.3060 0.0725
C37_10 C 0.5242(3) 0.6916(3) 0.1027(3)
C38_10 C 0.6916(3) 0.4758(3) 0.1027(3)
C39_10 C 0.4758(3) 0.3084(3) 0.1027(3)
H67_10 H 0.5148 0.6609 0.1016
H68_10 H 0.6609 0.4852 0.1016
H69_10 H 0.4852 0.3391 0.1016
O43_10 O 0.3323(2) 0.58404(17) 0.14470(16)
O44_10 O 0.58404(17) 0.6677(2) 0.14470(16)
O45_10 O 0.6677(2) 0.41596(17) 0.14470(16)
C40_10 C 0.5499(3) 0.6990(2) 0.1441(2)
C41_10 C 0.6990(2) 0.4501(3) 0.1441(2)
C42_10 C 0.4501(3) 0.3010(2) 0.1441(2)
H70_10 H 0.4376 0.2713 0.1439
H71_10 H 0.7287 0.4376 0.1439
H72_10 H 0.5624 0.7287 0.1439
C43_10 C 0.5214(3) 0.6936(2) 0.1826(2)
C44_10 C 0.6936(2) 0.4786(3) 0.1826(2)
C45_10 C 0.4786(3) 0.3064(2) 0.1826(2)
H73_10 H 0.4892 0.3367 0.1833
H74_10 H 0.6633 0.4892 0.1833
H75_10 H 0.5108 0.6633 0.1833
C46_10 C 0.4576(3) 0.2967(3) 0.2246(3)
C47_10 C 0.7033(3) 0.4576(3) 0.2246(3)
C48_10 C 0.5424(3) 0.7033(3) 0.2246(3)
H83_10 H 0.4790 0.2988 0.2482
H84_10 H 0.7012 0.4790 0.2482
H85_10 H 0.5210 0.7012 0.2482
H86_10 H 0.4344 0.3178 0.2303
H87_10 H 0.6822 0.4344 0.2303
H88_10 H 0.5656 0.6822 0.2303
H95_9 H 0.238136 0.700794 0.0813016
H96_11 H 0.299206 0.238136 0.0813016
O17_8 O 0.3030(3) 0.3622(2) 0.9208(2)
O18_6 O 0.3622(2) 0.6970(3) 0.9208(2)
H27_8 H 0.3086 0.3931 0.9234
H28_6 H 0.3931 0.6914 0.9234
O22_8 O 0.3790(3) 0.3117(2) 0.9272(2)
O23_6 O 0.3117(2) 0.6210(3) 0.9272(2)
H35_8 H 0.3740 0.3262 0.9548
H36_6 H 0.3262 0.6260 0.9548
H89_18 H 0.373971 0.325891 0.899019
H90_14 H 0.325891 0.626029 0.899019
H91_14 H 0.358387 0.72706 0.910666
H92_18 H 0.27294 0.358387 0.910666
H93_11 H 0.238136 0.299206 0.918698
H94_9 H 0.299206 0.761864 0.918698
H89_19 H 0.674109 0.100981 0.373971
H90_15 H 0.373971 0.100981 0.325891
H91_15 H 0.27294 0.0893339 0.358387
H92_19 H 0.641613 0.0893339 0.27294
O1_11 O 0.1914(2) 0.3385(3) 0.6416(2)
C1_11 C 0.1541(3) 0.3177(4) 0.6255(3)
H1_11 H 0.1600 0.2861 0.6240
O2_10 O 0.0792(2) 0.3030(3) 0.6378(2)
H2_10 H 0.0766 0.3086 0.6069
C2_11 C 0.1157(3) 0.3246(4) 0.6541(3)
H3_11 H 0.1224 0.3126 0.6832
O3_10 O 0.0728(2) 0.3790(3) 0.6883(2)
H4_10 H 0.0452 0.3740 0.6738
C3_11 C 0.1072(3) 0.3714(3) 0.6587(3)
H5_11 H 0.0990 0.3833 0.6300
O4_11 O 0.14160(17) 0.4401(2) 0.67499(16)
C4_11 C 0.1480(2) 0.3950(3) 0.6747(2)
H6_11 H 0.1552 0.3850 0.7044
C5_11 C 0.1857(3) 0.3849(3) 0.6444(3)
H7_11 H 0.1800 0.3971 0.6151
O5_11 O 0.2364(4) 0.3873(4) 0.7071(4)
H8_11 H 0.2418 0.4123 0.7256
C6_11 C 0.2280(5) 0.4021(5) 0.6618(5)
H9_11 H 0.2518 0.3924 0.6430
H10_11 H 0.2274 0.4340 0.6612
C7_11 C 0.1405(2) 0.4597(3) 0.7154(2)
H11_11 H 0.1397 0.4366 0.7379
O7_11 O 0.0638(2) 0.4604(2) 0.7136(2)
H12_11 H 0.0713 0.4333 0.6993
C8_11 C 0.1021(3) 0.4858(3) 0.7197(3)
H13_11 H 0.1014 0.4965 0.7501
O8_11 O 0.0654(2) 0.5516(2) 0.7008(3)
H14_11 H 0.0725 0.5816 0.6940
C9_11 C 0.1027(3) 0.5242(3) 0.6916(3)
H15_11 H 0.1016 0.5148 0.6609
O9_11 O 0.14470(16) 0.3323(2) 0.58404(17)
C10_11 C 0.1441(2) 0.5499(3) 0.6990(2)
H16_11 H 0.1439 0.5624 0.7287
C11_11 C 0.1826(2) 0.5214(3) 0.6936(2)
H17_11 H 0.1833 0.5108 0.6633
C12_11 C 0.2246(3) 0.5424(3) 0.7033(3)
H19_11 H 0.2482 0.5210 0.7012
H20_11 H 0.2303 0.5656 0.6822
O11_11 O 0.1914(2) 0.6416(2) 0.6615(3)
O12_11 O 0.1914(2) 0.6615(3) 0.3584(2)
O13_11 O 0.1914(2) 0.3584(2) 0.3385(3)
C13_11 C 0.1541(3) 0.6255(3) 0.6823(4)
C14_11 C 0.1541(3) 0.6823(4) 0.3745(3)
C15_11 C 0.1541(3) 0.3745(3) 0.3177(4)
H21_11 H 0.1600 0.6240 0.7139
H22_11 H 0.1600 0.7139 0.3760
H23_11 H 0.1600 0.3760 0.2861
O14_10 O 0.0792(2) 0.6378(2) 0.6970(3)
H24_10 H 0.0766 0.6069 0.6914
C16_11 C 0.1157(3) 0.6541(3) 0.6754(4)
C17_11 C 0.1157(3) 0.6754(4) 0.3459(3)
C18_11 C 0.1157(3) 0.3459(3) 0.3246(4)
H29_11 H 0.1224 0.6832 0.6874
H30_11 H 0.1224 0.6874 0.3168
H31_11 H 0.1224 0.3168 0.3126
O19_10 O 0.0728(2) 0.6883(2) 0.6210(3)
H32_10 H 0.0452 0.6738 0.6260
C19_11 C 0.1072(3) 0.6587(3) 0.6286(3)
C20_11 C 0.1072(3) 0.6286(3) 0.3413(3)
C21_11 C 0.1072(3) 0.3413(3) 0.3714(3)
H37_11 H 0.0990 0.6300 0.6167
H38_11 H 0.0990 0.6167 0.3700
H39_11 H 0.0990 0.3700 0.3833
O24_11 O 0.14160(17) 0.67499(16) 0.5599(2)
O25_11 O 0.14160(17) 0.5599(2) 0.32501(16)
O26_11 O 0.14160(17) 0.32501(16) 0.4401(2)
C22_11 C 0.1480(2) 0.6747(2) 0.6050(3)
C23_11 C 0.1480(2) 0.6050(3) 0.3253(2)
C24_11 C 0.1480(2) 0.3253(2) 0.3950(3)
H40_11 H 0.1552 0.2956 0.3850
H41_11 H 0.1552 0.6150 0.2956
H42_11 H 0.1552 0.7044 0.6150
C25_11 C 0.1857(3) 0.6444(3) 0.6151(3)
C26_11 C 0.1857(3) 0.6151(3) 0.3556(3)
C27_11 C 0.1857(3) 0.3556(3) 0.3849(3)
H43_11 H 0.1800 0.3849 0.3971
H44_11 H 0.1800 0.6029 0.3849
H45_11 H 0.1800 0.6151 0.6029
O27_11 O 0.2364(4) 0.2929(4) 0.3873(4)
O28_11 O 0.2364(4) 0.6127(4) 0.2929(4)
O29_11 O 0.2364(4) 0.7071(4) 0.6127(4)
H46_11 H 0.2418 0.2744 0.4123
H47_11 H 0.2418 0.5877 0.2744
H48_11 H 0.2418 0.7256 0.5877
C28_11 C 0.2280(5) 0.3382(5) 0.4021(5)
C29_11 C 0.2280(5) 0.5979(5) 0.3382(5)
C30_11 C 0.2280(5) 0.6618(5) 0.5979(5)
H49_11 H 0.2518 0.3570 0.3924
H50_11 H 0.2518 0.6076 0.3570
H51_11 H 0.2518 0.6430 0.6076
H52_11 H 0.2274 0.3388 0.4340
H53_11 H 0.2274 0.5660 0.3388
H54_11 H 0.2274 0.6612 0.5660
C31_11 C 0.1405(2) 0.7154(2) 0.5403(3)
C32_11 C 0.1405(2) 0.5403(3) 0.2846(2)
C33_11 C 0.1405(2) 0.2846(2) 0.4597(3)
H55_11 H 0.1397 0.7379 0.5634
H56_11 H 0.1397 0.5634 0.2621
H57_11 H 0.1397 0.2621 0.4366
O37_11 O 0.0638(2) 0.7136(2) 0.5396(2)
O38_11 O 0.0638(2) 0.5396(2) 0.2864(2)
O39_11 O 0.0638(2) 0.2864(2) 0.4604(2)
H58_11 H 0.0713 0.6993 0.5667
H59_11 H 0.0713 0.5667 0.3007
H60_11 H 0.0713 0.3007 0.4333
C34_11 C 0.1021(3) 0.7197(3) 0.5142(3)
C35_11 C 0.1021(3) 0.5142(3) 0.2803(3)
C36_11 C 0.1021(3) 0.2803(3) 0.4858(3)
H61_11 H 0.1014 0.7501 0.5035
H62_11 H 0.1014 0.5035 0.2499
H63_11 H 0.1014 0.2499 0.4965
O40_11 O 0.0654(2) 0.7008(3) 0.4484(2)
O41_11 O 0.0654(2) 0.4484(2) 0.2992(3)
O42_11 O 0.0654(2) 0.2992(3) 0.5516(2)
H64_11 H 0.0725 0.6940 0.4184
H65_11 H 0.0725 0.4184 0.3060
H66_11 H 0.0725 0.3060 0.5816
C37_11 C 0.1027(3) 0.6916(3) 0.4758(3)
C38_11 C 0.1027(3) 0.4758(3) 0.3084(3)
C39_11 C 0.1027(3) 0.3084(3) 0.5242(3)
H67_11 H 0.1016 0.6609 0.4852
H68_11 H 0.1016 0.4852 0.3391
H69_11 H 0.1016 0.3391 0.5148
O43_11 O 0.14470(16) 0.58404(17) 0.6677(2)
O44_11 O 0.14470(16) 0.6677(2) 0.41596(17)
O45_11 O 0.14470(16) 0.41596(17) 0.3323(2)
C40_11 C 0.1441(2) 0.6990(2) 0.4501(3)
C41_11 C 0.1441(2) 0.4501(3) 0.3010(2)
C42_11 C 0.1441(2) 0.3010(2) 0.5499(3)
H70_11 H 0.1439 0.2713 0.5624
H71_11 H 0.1439 0.4376 0.2713
H72_11 H 0.1439 0.7287 0.4376
C43_11 C 0.1826(2) 0.6936(2) 0.4786(3)
C44_11 C 0.1826(2) 0.4786(3) 0.3064(2)
C45_11 C 0.1826(2) 0.3064(2) 0.5214(3)
H73_11 H 0.1833 0.3367 0.5108
H74_11 H 0.1833 0.4892 0.3367
H75_11 H 0.1833 0.6633 0.4892
C46_11 C 0.2246(3) 0.2967(3) 0.5424(3)
C47_11 C 0.2246(3) 0.4576(3) 0.2967(3)
C48_11 C 0.2246(3) 0.7033(3) 0.4576(3)
H83_11 H 0.2482 0.2988 0.5210
H84_11 H 0.2482 0.4790 0.2988
H85_11 H 0.2482 0.7012 0.4790
H86_11 H 0.2303 0.3178 0.5656
H87_11 H 0.2303 0.4344 0.3178
H88_11 H 0.2303 0.6822 0.4344
H95_10 H 0.0813016 0.700794 0.761864
H96_12 H 0.0813016 0.238136 0.700794
H89_20 H 0.899019 0.325891 0.626029
H90_16 H 0.899019 0.626029 0.674109
H91_16 H 0.910666 0.72706 0.641613
H92_20 H 0.910666 0.358387 0.72706
H93_12 H 0.918698 0.299206 0.761864
H94_10 H 0.918698 0.761864 0.700794
H96_13 H 0.761864 0.299206 0.0813016
O17_9 O 0.6378(2) 0.3030(3) 0.9208(2)
H27_9 H 0.6069 0.3086 0.9234
O22_9 O 0.6883(2) 0.3790(3) 0.9272(2)
H35_9 H 0.6738 0.3740 0.9548
H89_21 H 0.674109 0.373971 0.899019
H92_21 H 0.641613 0.27294 0.910666
H93_13 H 0.700794 0.238136 0.918698
H89_22 H 0.899019 0.674109 0.373971
H90_17 H 0.899019 0.373971 0.325891
H91_17 H 0.910666 0.27294 0.358387
H92_22 H 0.910666 0.641613 0.27294
H89_23 H 0.674109 0.899019 0.626029
H90_18 H 0.373971 0.899019 0.674109
H91_18 H 0.27294 0.910666 0.641613
H92_23 H 0.641613 0.910666 0.72706
H96_14 H 0.700794 0.761864 0.0813016
O17_10 O 0.6970(3) 0.6378(2) 0.9208(2)
H27_10 H 0.6914 0.6069 0.9234
O22_10 O 0.6210(3) 0.6883(2) 0.9272(2)
H35_10 H 0.6260 0.6738 0.9548
H89_24 H 0.626029 0.674109 0.899019
H92_24 H 0.72706 0.641613 0.910666
H93_14 H 0.761864 0.700794 0.918698
H89_25 H 0.100981 0.674109 0.626029
H90_19 H 0.100981 0.373971 0.674109
H91_19 H 0.0893339 0.27294 0.641613
H92_25 H 0.0893339 0.641613 0.72706
H89_26 H 0.373971 0.674109 0.100981
H90_20 H 0.325891 0.373971 0.100981
H91_20 H 0.358387 0.27294 0.0893339
H92_26 H 0.27294 0.641613 0.0893339
O1_12 O 0.3584(2) 0.6615(3) 0.8086(2)
C1_12 C 0.3745(3) 0.6823(4) 0.8459(3)
H1_12 H 0.3760 0.7139 0.8400
C2_12 C 0.3459(3) 0.6754(4) 0.8843(3)
H3_12 H 0.3168 0.6874 0.8776
C3_12 C 0.3413(3) 0.6286(3) 0.8928(3)
H5_12 H 0.3700 0.6167 0.9010
O4_12 O 0.32501(16) 0.5599(2) 0.85840(17)
C4_12 C 0.3253(2) 0.6050(3) 0.8520(2)
H6_12 H 0.2956 0.6150 0.8448
C5_12 C 0.3556(3) 0.6151(3) 0.8143(3)
H7_12 H 0.3849 0.6029 0.8200
O5_12 O 0.2929(4) 0.6127(4) 0.7636(4)
H8_12 H 0.2744 0.5877 0.7582
C6_12 C 0.3382(5) 0.5979(5) 0.7720(5)
H9_12 H 0.3570 0.6076 0.7482
H10_12 H 0.3388 0.5660 0.7726
C7_12 C 0.2846(2) 0.5403(3) 0.8595(2)
H11_12 H 0.2621 0.5634 0.8603
O7_12 O 0.2864(2) 0.5396(2) 0.9362(2)
H12_12 H 0.3007 0.5667 0.9287
C8_12 C 0.2803(3) 0.5142(3) 0.8979(3)
H13_12 H 0.2499 0.5035 0.8986
O8_12 O 0.2992(3) 0.4484(2) 0.9346(2)
H14_12 H 0.3060 0.4184 0.9275
C9_12 C 0.3084(3) 0.4758(3) 0.8973(3)
H15_12 H 0.3391 0.4852 0.8984
O9_12 O 0.41596(17) 0.6677(2) 0.85530(16)
C10_12 C 0.3010(2) 0.4501(3) 0.8559(2)
H16_12 H 0.2713 0.4376 0.8561
C11_12 C 0.3064(2) 0.4786(3) 0.8174(2)
H17_12 H 0.3367 0.4892 0.8167
C12_12 C 0.2967(3) 0.4576(3) 0.7754(3)
H19_12 H 0.2988 0.4790 0.7518
H20_12 H 0.3178 0.4344 0.7697
O11_12 O 0.3385(3) 0.3584(2) 0.8086(2)
O12_12 O 0.6416(2) 0.3385(3) 0.8086(2)
O13_12 O 0.6615(3) 0.6416(2) 0.8086(2)
C13_12 C 0.3177(4) 0.3745(3) 0.8459(3)
C14_12 C 0.6255(3) 0.3177(4) 0.8459(3)
C15_12 C 0.6823(4) 0.6255(3) 0.8459(3)
H21_12 H 0.2861 0.3760 0.8400
H22_12 H 0.6240 0.2861 0.8400
H23_12 H 0.7139 0.6240 0.8400
C16_12 C 0.3246(4) 0.3459(3) 0.8843(3)
C17_12 C 0.6541(3) 0.3246(4) 0.8843(3)
C18_12 C 0.6754(4) 0.6541(3) 0.8843(3)
H29_12 H 0.3126 0.3168 0.8776
H30_12 H 0.6832 0.3126 0.8776
H31_12 H 0.6874 0.6832 0.8776
C19_12 C 0.3714(3) 0.3413(3) 0.8928(3)
C20_12 C 0.6587(3) 0.3714(3) 0.8928(3)
C21_12 C 0.6286(3) 0.6587(3) 0.8928(3)
H37_12 H 0.3833 0.3700 0.9010
H38_12 H 0.6300 0.3833 0.9010
H39_12 H 0.6167 0.6300 0.9010
O24_12 O 0.4401(2) 0.32501(16) 0.85840(17)
O25_12 O 0.67499(16) 0.4401(2) 0.85840(17)
O26_12 O 0.5599(2) 0.67499(16) 0.85840(17)
C22_12 C 0.3950(3) 0.3253(2) 0.8520(2)
C23_12 C 0.6747(2) 0.3950(3) 0.8520(2)
C24_12 C 0.6050(3) 0.6747(2) 0.8520(2)
H40_12 H 0.6150 0.7044 0.8448
H41_12 H 0.7044 0.3850 0.8448
H42_12 H 0.3850 0.2956 0.8448
C25_12 C 0.3849(3) 0.3556(3) 0.8143(3)
C26_12 C 0.6444(3) 0.3849(3) 0.8143(3)
C27_12 C 0.6151(3) 0.6444(3) 0.8143(3)
H43_12 H 0.6029 0.6151 0.8200
H44_12 H 0.6151 0.3971 0.8200
H45_12 H 0.3971 0.3849 0.8200
O27_12 O 0.6127(4) 0.7071(4) 0.7636(4)
O28_12 O 0.7071(4) 0.3873(4) 0.7636(4)
O29_12 O 0.3873(4) 0.2929(4) 0.7636(4)
H46_12 H 0.5877 0.7256 0.7582
H47_12 H 0.7256 0.4123 0.7582
H48_12 H 0.4123 0.2744 0.7582
C28_12 C 0.5979(5) 0.6618(5) 0.7720(5)
C29_12 C 0.6618(5) 0.4021(5) 0.7720(5)
C30_12 C 0.4021(5) 0.3382(5) 0.7720(5)
H49_12 H 0.6076 0.6430 0.7482
H50_12 H 0.6430 0.3924 0.7482
H51_12 H 0.3924 0.3570 0.7482
H52_12 H 0.5660 0.6612 0.7726
H53_12 H 0.6612 0.4340 0.7726
H54_12 H 0.4340 0.3388 0.7726
C31_12 C 0.4597(3) 0.2846(2) 0.8595(2)
C32_12 C 0.7154(2) 0.4597(3) 0.8595(2)
C33_12 C 0.5403(3) 0.7154(2) 0.8595(2)
H55_12 H 0.4366 0.2621 0.8603
H56_12 H 0.7379 0.4366 0.8603
H57_12 H 0.5634 0.7379 0.8603
O37_12 O 0.4604(2) 0.2864(2) 0.9362(2)
O38_12 O 0.7136(2) 0.4604(2) 0.9362(2)
O39_12 O 0.5396(2) 0.7136(2) 0.9362(2)
H58_12 H 0.4333 0.3007 0.9287
H59_12 H 0.6993 0.4333 0.9287
H60_12 H 0.5667 0.6993 0.9287
C34_12 C 0.4858(3) 0.2803(3) 0.8979(3)
C35_12 C 0.7197(3) 0.4858(3) 0.8979(3)
C36_12 C 0.5142(3) 0.7197(3) 0.8979(3)
H61_12 H 0.4965 0.2499 0.8986
H62_12 H 0.7501 0.4965 0.8986
H63_12 H 0.5035 0.7501 0.8986
O40_12 O 0.5516(2) 0.2992(3) 0.9346(2)
O41_12 O 0.7008(3) 0.5516(2) 0.9346(2)
O42_12 O 0.4484(2) 0.7008(3) 0.9346(2)
H64_12 H 0.5816 0.3060 0.9275
H65_12 H 0.6940 0.5816 0.9275
H66_12 H 0.4184 0.6940 0.9275
C37_12 C 0.5242(3) 0.3084(3) 0.8973(3)
C38_12 C 0.6916(3) 0.5242(3) 0.8973(3)
C39_12 C 0.4758(3) 0.6916(3) 0.8973(3)
H67_12 H 0.5148 0.3391 0.8984
H68_12 H 0.6609 0.5148 0.8984
H69_12 H 0.4852 0.6609 0.8984
O43_12 O 0.3323(2) 0.41596(17) 0.85530(16)
O44_12 O 0.58404(17) 0.3323(2) 0.85530(16)
O45_12 O 0.6677(2) 0.58404(17) 0.85530(16)
C40_12 C 0.5499(3) 0.3010(2) 0.8559(2)
C41_12 C 0.6990(2) 0.5499(3) 0.8559(2)
C42_12 C 0.4501(3) 0.6990(2) 0.8559(2)
H70_12 H 0.4376 0.7287 0.8561
H71_12 H 0.7287 0.5624 0.8561
H72_12 H 0.5624 0.2713 0.8561
C43_12 C 0.5214(3) 0.3064(2) 0.8174(2)
C44_12 C 0.6936(2) 0.5214(3) 0.8174(2)
C45_12 C 0.4786(3) 0.6936(2) 0.8174(2)
H73_12 H 0.4892 0.6633 0.8167
H74_12 H 0.6633 0.5108 0.8167
H75_12 H 0.5108 0.3367 0.8167
C46_12 C 0.4576(3) 0.7033(3) 0.7754(3)
C47_12 C 0.7033(3) 0.5424(3) 0.7754(3)
C48_12 C 0.5424(3) 0.2967(3) 0.7754(3)
H83_12 H 0.4790 0.7012 0.7518
H84_12 H 0.7012 0.5210 0.7518
H85_12 H 0.5210 0.2988 0.7518
H86_12 H 0.4344 0.6822 0.7697
H87_12 H 0.6822 0.5656 0.7697
H88_12 H 0.5656 0.3178 0.7697
H89_27 H 0.674109 0.626029 0.100981
H92_27 H 0.641613 0.72706 0.0893339
H89_28 H 0.626029 0.325891 0.100981
H92_28 H 0.72706 0.358387 0.0893339
O53 O -0.0000 0.5000 0.6634(9)
H97 H 0.0319508 0.5 0.6634
O53_2 O 1.0000 0.5000 0.6634(9)
H97_2 H 0.968049 0.5 0.6634
O53_3 O 0.5000 0.0000 0.6634(9)
H97_3 H 0.5 0.0319508 0.6634
O53_4 O 0.5000 1.0000 0.6634(9)
H97_4 H 0.5 0.968049 0.6634
O53_5 O 0.0000 0.5000 0.3366(9)
H97_5 H 0.0319508 0.5 0.3366
O53_6 O 1.0000 0.5000 0.3366(9)
H97_6 H 0.968049 0.5 0.3366
O53_7 O 0.6634(9) 0.0000 0.5000
H97_7 H 0.6634 0.0319508 0.5
O53_8 O 0.6634(9) 1.0000 0.5000
H97_8 H 0.6634 0.968049 0.5
O53_9 O 0.5000 0.0000 0.3366(9)
H97_9 H 0.5 0.0319508 0.3366
O53_10 O 0.5000 1.0000 0.3366(9)
H97_10 H 0.5 0.968049 0.3366
O53_11 O 0.0000 0.6634(9) 0.5000
H97_11 H 0.0319508 0.6634 0.5
O53_12 O 1.0000 0.6634(9) 0.5000
H97_12 H 0.968049 0.6634 0.5
O53_13 O 0.3366(9) 0.0000 0.5000
H97_13 H 0.3366 0.0319508 0.5
O53_14 O 0.3366(9) 1.0000 0.5000
H97_14 H 0.3366 0.968049 0.5
O53_15 O 0.0000 0.3366(9) 0.5000
H97_15 H 0.0319508 0.3366 0.5
O53_16 O 1.0000 0.3366(9) 0.5000
H97_16 H 0.968049 0.3366 0.5
O53_17 O 0.5000 0.6634(9) 0.0000
H97_17 H 0.5 0.6634 0.0319508
O53_18 O 0.5000 0.6634(9) 1.0000
H97_18 H 0.5 0.6634 0.968049
O53_19 O 0.3366(9) 0.5000 0.0000
H97_19 H 0.3366 0.5 0.0319508
O53_20 O 0.3366(9) 0.5000 1.0000
H97_20 H 0.3366 0.5 0.968049
O53_21 O 0.6634(9) 0.5000 0.0000
H97_21 H 0.6634 0.5 0.0319508
O53_22 O 0.6634(9) 0.5000 1.0000
H97_22 H 0.6634 0.5 0.968049
O53_23 O 0.5000 0.3366(9) 0.0000
H97_23 H 0.5 0.3366 0.0319508
O53_24 O 0.5000 0.3366(9) 1.0000
H97_24 H 0.5 0.3366 0.968049
O53_25 O 0.5000 -0.0000 0.1634(9)
H97_25 H 0.531951 -5.55112e-17 0.1634
H97_26 H 0.468049 5.55112e-17 0.1634
O53_26 O 0.5000 1.0000 0.1634(9)
H97_27 H 0.531951 1 0.1634
H97_28 H 0.468049 1 0.1634
O53_27 O 0.0000 0.5000 0.1634(9)
H97_29 H 5.55112e-17 0.531951 0.1634
H97_30 H -5.55112e-17 0.468049 0.1634
O53_28 O 1.0000 0.5000 0.1634(9)
H97_31 H 1 0.531951 0.1634
H97_32 H 1 0.468049 0.1634
O53_29 O 0.5000 0.0000 0.8366(9)
H97_33 H 0.531951 5.55112e-17 0.8366
H97_34 H 0.468049 -5.55112e-17 0.8366
O53_30 O 0.5000 1.0000 0.8366(9)
H97_35 H 0.531951 1 0.8366
H97_36 H 0.468049 1 0.8366
O53_31 O 0.1634(9) 0.5000 -0.0000
H97_37 H 0.1634 0.531951 -5.55112e-17
H97_38 H 0.1634 0.468049 5.55112e-17
O53_32 O 0.1634(9) 0.5000 1.0000
H97_39 H 0.1634 0.531951 1
H97_40 H 0.1634 0.468049 1
O53_33 O -0.0000 0.5000 0.8366(9)
H97_41 H -5.55112e-17 0.531951 0.8366
H97_42 H 5.55112e-17 0.468049 0.8366
O53_34 O 1.0000 0.5000 0.8366(9)
H97_43 H 1 0.531951 0.8366
H97_44 H 1 0.468049 0.8366
O53_35 O 0.5000 0.1634(9) -0.0000
H97_45 H 0.468049 0.1634 -5.55112e-17
H97_46 H 0.531951 0.1634 5.55112e-17
O53_36 O 0.5000 0.1634(9) 1.0000
H97_47 H 0.468049 0.1634 1
H97_48 H 0.531951 0.1634 1
O53_37 O 0.8366(9) 0.5000 -0.0000
H97_49 H 0.8366 0.468049 -5.55112e-17
H97_50 H 0.8366 0.531951 5.55112e-17
O53_38 O 0.8366(9) 0.5000 1.0000
H97_51 H 0.8366 0.468049 1
H97_52 H 0.8366 0.531951 1
O53_39 O 0.5000 0.8366(9) -0.0000
H97_53 H 0.531951 0.8366 -5.55112e-17
H97_54 H 0.468049 0.8366 5.55112e-17
O53_40 O 0.5000 0.8366(9) 1.0000
H97_55 H 0.531951 0.8366 1
H97_56 H 0.468049 0.8366 1
O53_41 O -0.0000 0.1634(9) 0.5000
H97_57 H -5.55112e-17 0.1634 0.531951
H97_58 H 5.55112e-17 0.1634 0.468049
O53_42 O 1.0000 0.1634(9) 0.5000
H97_59 H 1 0.1634 0.531951
H97_60 H 1 0.1634 0.468049
O53_43 O 0.8366(9) -0.0000 0.5000
H97_61 H 0.8366 -5.55112e-17 0.531951
H97_62 H 0.8366 5.55112e-17 0.468049
O53_44 O 0.8366(9) 1.0000 0.5000
H97_63 H 0.8366 1 0.531951
H97_64 H 0.8366 1 0.468049
O53_45 O 0.1634(9) -0.0000 0.5000
H97_65 H 0.1634 -5.55112e-17 0.468049
H97_66 H 0.1634 5.55112e-17 0.531951
O53_46 O 0.1634(9) 1.0000 0.5000
H97_67 H 0.1634 1 0.468049
H97_68 H 0.1634 1 0.531951
O53_47 O -0.0000 0.8366(9) 0.5000
H97_69 H -5.55112e-17 0.8366 0.468049
H97_70 H 5.55112e-17 0.8366 0.531951
O53_48 O 1.0000 0.8366(9) 0.5000
H97_71 H 1 0.8366 0.468049
H97_72 H 1 0.8366 0.531951
loop_
_geom_bond_atom_site_label_1
_geom_bond_atom_site_label_2
_geom_bond_site_symmetry_1
_geom_bond_site_symmetry_2
Rb5 O15 1_555 1_555
Rb6 O31 1_555 1_555
O12 C14 1_555 1_555
C14 H22 1_555 1_555
O15 H25 1_555 1_555
C17 C14 1_555 1_555
H30 C17 1_555 1_555
O20 Rb5 1_555 1_555
H33 O20 1_555 1_555
C20 C17 1_555 1_555
H38 C20 1_555 1_555
O25 C23 1_555 1_555
C23 C20 1_555 1_555
H41 C23 1_555 1_555
C26 O12 1_555 1_555
H44 C26 1_555 1_555
O28 H47 1_555 1_555
C29 C26 1_555 1_555
H50 C29 1_555 1_555
H53 C29 1_555 1_555
O31 C32 1_555 1_555
C32 O25 1_555 1_555
H56 C32 1_555 1_555
O38 H59 1_555 1_555
C35 C32 1_555 1_555
H62 C35 1_555 1_555
O40 H64 1_555 1_555
H67 C37 1_555 1_555
O44 C14 1_555 1_555
C40 C37 1_555 1_555
H72 C40 1_555 1_555
H75 C43 1_555 1_555
O48 Rb4 1_555 1_555
H78 O48 1_555 1_555
C48 C43 1_555 1_555
H85 C48 1_555 1_555
H88 C48 1_555 1_555
O15 C17 1_555 1_555
O20 C20 1_555 1_555
C23 C26 1_555 1_555
O28 C29 1_555 1_555
O38 C35 1_555 1_555
O40 C37 1_555 1_555
O44 C40 1_555 1_555
C40 C43 1_555 1_555
O48 C48 1_555 1_555
O8 H14 1_555 1_555
H15 C9 1_555 1_555
C10 C9 1_555 1_555
H16 C10 1_555 1_555
H17 C11 1_555 1_555
O10 H18 1_555 1_555
C12 C11 1_555 1_555
H19 C12 1_555 1_555
H20 C12 1_555 1_555
Rb2 O14 1_555 1_555
Rb4_2 O30 1_555 1_555
O11 C13 1_555 1_555
C13 H21 1_555 1_555
O14 H24 1_555 1_555
O18 Rb2 1_555 1_555
H28 O18 1_555 1_555
C16 C13 1_555 1_555
H29 C16 1_555 1_555
O19 Rb2 1_555 1_555
O23 Rb2 1_555 1_555
H32 O19 1_555 1_555
H36 O23 1_555 1_555
C19 C16 1_555 1_555
H37 C19 1_555 1_555
O24 C22 1_555 1_555
C22 C19 1_555 1_555
H42 C22 1_555 1_555
C25 O11 1_555 1_555
H45 C25 1_555 1_555
O29 H48 1_555 1_555
C30 C25 1_555 1_555
H51 C30 1_555 1_555
H54 C30 1_555 1_555
O30 C31 1_555 1_555
O35 Rb2 1_555 1_555
O36 Rb2 1_555 1_555
C31 O24 1_555 1_555
H55 C31 1_555 1_555
O37 H58 1_555 1_555
C34 C31 1_555 1_555
H61 C34 1_555 1_555
O43 C10 1_555 1_555
O51 Rb2 1_555 1_555
O52 Rb2 1_555 1_555
H81 O51 1_555 1_555
H82 O52 1_555 1_555
O8 C9 1_555 1_555
C10 C11 1_555 1_555
O10 C12 1_555 1_555
O10 Rb3 1_555 1_555
C13 O43 1_555 1_555
O14 C16 1_555 1_555
O19 C19 1_555 1_555
C22 C25 1_555 1_555
O29 C30 1_555 1_555
O37 C34 1_555 1_555
O23 H90 1_555 1_555
O18 H91 1_555 1_555
O51 H94 1_555 1_555
O52 H95 1_555 1_555
Rb7 O16 1_555 1_555
Rb8 O32 1_555 1_555
O13 C15 1_555 1_555
C15 H23 1_555 1_555
O16 H26 1_555 1_555
C18 C15 1_555 1_555
H31 C18 1_555 1_555
O21 Rb7 1_555 1_555
H34 O21 1_555 1_555
C21 C18 1_555 1_555
H39 C21 1_555 1_555
O26 C24 1_555 1_555
C24 C21 1_555 1_555
H40 C24 1_555 1_555
C27 O13 1_555 1_555
H43 C27 1_555 1_555
O27 H46 1_555 1_555
C28 C27 1_555 1_555
H49 C28 1_555 1_555
H52 C28 1_555 1_555
O32 C33 1_555 1_555
C33 O26 1_555 1_555
H57 C33 1_555 1_555
O39 H60 1_555 1_555
C36 C33 1_555 1_555
H63 C36 1_555 1_555
O41 H65 1_555 1_555
H68 C38 1_555 1_555
O45 C15 1_555 1_555
C41 C38 1_555 1_555
H71 C41 1_555 1_555
H74 C44 1_555 1_555
O47 Rb6_2 1_555 1_555
H77 O47 1_555 1_555
C47 C44 1_555 1_555
H84 C47 1_555 1_555
H87 C47 1_555 1_555
O16 C18 1_555 1_555
O21 C21 1_555 1_555
C24 C27 1_555 1_555
O27 C28 1_555 1_555
O39 C36 1_555 1_555
O41 C38 1_555 1_555
O45 C41 1_555 1_555
C41 C44 1_555 1_555
O47 C47 1_555 1_555
Rb1 O2 1_555 1_555
O1 C1 1_555 1_555
C1 H1 1_555 1_555
O2 H2 1_555 1_555
C2 C1 1_555 1_555
H3 C2 1_555 1_555
O3 Rb1 1_555 1_555
H4 O3 1_555 1_555
C3 C2 1_555 1_555
H5 C3 1_555 1_555
O4 C4 1_555 1_555
C4 C3 1_555 1_555
H6 C4 1_555 1_555
C5 O1 1_555 1_555
H7 C5 1_555 1_555
O5 H8 1_555 1_555
C6 C5 1_555 1_555
H9 C6 1_555 1_555
H10 C6 1_555 1_555
O6 C7 1_555 1_555
C7 O4 1_555 1_555
H11 C7 1_555 1_555
O7 H12 1_555 1_555
C8 C7 1_555 1_555
H13 C8 1_555 1_555
O9 C1 1_555 1_555
Rb3_2 O6 1_555 1_555
O17 Rb1 1_555 1_555
H27 O17 1_555 1_555
O22 Rb1 1_555 1_555
H35 O22 1_555 1_555
O33 Rb1 1_555 1_555
O34 Rb1 1_555 1_555
O42 H66 1_555 1_555
H69 C39 1_555 1_555
C42 O9 1_555 1_555
H70 C42 1_555 1_555
H73 C45 1_555 1_555
O46 Rb8_2 1_555 1_555
O49 Rb1 1_555 1_555
O50 Rb1 1_555 1_555
H76 O46 1_555 1_555
H79 O49 1_555 1_555
H80 O50 1_555 1_555
C46 C45 1_555 1_555
H83 C46 1_555 1_555
H86 C46 1_555 1_555
O2 C2 1_555 1_555
O3 C3 1_555 1_555
C4 C5 1_555 1_555
O5 C6 1_555 1_555
O7 C8 1_555 1_555
O42 C39 1_555 1_555
C39 C42 1_555 1_555
C42 C45 1_555 1_555
O46 C46 1_555 1_555
O22 H89 1_555 1_555
O17 H92 1_555 1_555
O49 H93 1_555 1_555
O50 H96 1_555 1_555
Rb5_2 O15_2 1_555 1_555
Rb6_3 O31_2 1_555 1_555
O12_2 C14_2 1_555 1_555
C14_2 H22_2 1_555 1_555
O15_2 H25_2 1_555 1_555
C17_2 C14_2 1_555 1_555
H30_2 C17_2 1_555 1_555
O20_2 Rb5_2 1_555 1_555
H33_2 O20_2 1_555 1_555
C20_2 C17_2 1_555 1_555
H38_2 C20_2 1_555 1_555
O25_2 C23_2 1_555 1_555
C23_2 C20_2 1_555 1_555
H41_2 C23_2 1_555 1_555
C26_2 O12_2 1_555 1_555
H44_2 C26_2 1_555 1_555
O28_2 H47_2 1_555 1_555
C29_2 C26_2 1_555 1_555
H50_2 C29_2 1_555 1_555
H53_2 C29_2 1_555 1_555
O31_2 C32_2 1_555 1_555
C32_2 O25_2 1_555 1_555
H56_2 C32_2 1_555 1_555
O38_2 H59_2 1_555 1_555
C35_2 C32_2 1_555 1_555
H62_2 C35_2 1_555 1_555
O40_2 H64_2 1_555 1_555
H67_2 C37_2 1_555 1_555
O44_2 C14_2 1_555 1_555
C40_2 C37_2 1_555 1_555
H72_2 C40_2 1_555 1_555
H75_2 C43_2 1_555 1_555
O48_2 Rb4_3 1_555 1_555
H78_2 O48_2 1_555 1_555
C48_2 C43_2 1_555 1_555
H85_2 C48_2 1_555 1_555
H88_2 C48_2 1_555 1_555
O15_2 C17_2 1_555 1_555
O20_2 C20_2 1_555 1_555
C23_2 C26_2 1_555 1_555
O28_2 C29_2 1_555 1_555
O38_2 C35_2 1_555 1_555
O40_2 C37_2 1_555 1_555
O44_2 C40_2 1_555 1_555
C40_2 C43_2 1_555 1_555
O48_2 C48_2 1_555 1_555
O8_2 H14_2 1_555 1_555
H15_2 C9_2 1_555 1_555
C10_2 C9_2 1_555 1_555
H16_2 C10_2 1_555 1_555
H17_2 C11_2 1_555 1_555
O10_2 H18_2 1_555 1_555
C12_2 C11_2 1_555 1_555
H19_2 C12_2 1_555 1_555
H20_2 C12_2 1_555 1_555
Rb2_2 O14_2 1_555 1_555
Rb4_4 O30_2 1_555 1_555
O11_2 C13_2 1_555 1_555
C13_2 H21_2 1_555 1_555
O14_2 H24_2 1_555 1_555
O18_2 Rb2_2 1_555 1_555
H28_2 O18_2 1_555 1_555
C16_2 C13_2 1_555 1_555
H29_2 C16_2 1_555 1_555
O19_2 Rb2_2 1_555 1_555
O23_2 Rb2_2 1_555 1_555
H32_2 O19_2 1_555 1_555
H36_2 O23_2 1_555 1_555
C19_2 C16_2 1_555 1_555
H37_2 C19_2 1_555 1_555
O24_2 C22_2 1_555 1_555
C22_2 C19_2 1_555 1_555
H42_2 C22_2 1_555 1_555
C25_2 O11_2 1_555 1_555
H45_2 C25_2 1_555 1_555
O29_2 H48_2 1_555 1_555
C30_2 C25_2 1_555 1_555
H51_2 C30_2 1_555 1_555
H54_2 C30_2 1_555 1_555
O30_2 C31_2 1_555 1_555
O35_2 Rb2_2 1_555 1_555
O36_2 Rb2_2 1_555 1_555
C31_2 O24_2 1_555 1_555
H55_2 C31_2 1_555 1_555
O37_2 H58_2 1_555 1_555
C34_2 C31_2 1_555 1_555
H61_2 C34_2 1_555 1_555
O43_2 C10_2 1_555 1_555
O51_2 Rb2_2 1_555 1_555
O52_2 Rb2_2 1_555 1_555
H81_2 O51_2 1_555 1_555
H82_2 O52_2 1_555 1_555
O8_2 C9_2 1_555 1_555
C10_2 C11_2 1_555 1_555
O10_2 C12_2 1_555 1_555
O10_2 Rb3_3 1_555 1_555
C13_2 O43_2 1_555 1_555
O14_2 C16_2 1_555 1_555
O19_2 C19_2 1_555 1_555
C22_2 C25_2 1_555 1_555
O29_2 C30_2 1_555 1_555
O37_2 C34_2 1_555 1_555
O23_2 H90_2 1_555 1_555
O18_2 H91_2 1_555 1_555
O51_2 H94_2 1_555 1_555
O52_2 H95_2 1_555 1_555
Rb7_2 O16_2 1_555 1_555
Rb4 O32_2 1_555 1_555
O13_2 C15_2 1_555 1_555
C15_2 H23_2 1_555 1_555
O16_2 H26_2 1_555 1_555
C18_2 C15_2 1_555 1_555
H31_2 C18_2 1_555 1_555
O21_2 Rb7_2 1_555 1_555
H34_2 O21_2 1_555 1_555
C21_2 C18_2 1_555 1_555
H39_2 C21_2 1_555 1_555
O26_2 C24_2 1_555 1_555
C24_2 C21_2 1_555 1_555
H40_2 C24_2 1_555 1_555
C27_2 O13_2 1_555 1_555
H43_2 C27_2 1_555 1_555
O27_2 H46_2 1_555 1_555
C28_2 C27_2 1_555 1_555
H49_2 C28_2 1_555 1_555
H52_2 C28_2 1_555 1_555
O32_2 C33_2 1_555 1_555
C33_2 O26_2 1_555 1_555
H57_2 C33_2 1_555 1_555
O39_2 H60_2 1_555 1_555
C36_2 C33_2 1_555 1_555
H63_2 C36_2 1_555 1_555
O41_2 H65_2 1_555 1_555
H68_2 C38_2 1_555 1_555
O45_2 C15_2 1_555 1_555
C41_2 C38_2 1_555 1_555
H71_2 C41_2 1_555 1_555
H74_2 C44_2 1_555 1_555
O47_2 Rb6_4 1_555 1_555
H77_2 O47_2 1_555 1_555
C47_2 C44_2 1_555 1_555
H84_2 C47_2 1_555 1_555
H87_2 C47_2 1_555 1_555
O16_2 C18_2 1_555 1_555
O21_2 C21_2 1_555 1_555
C24_2 C27_2 1_555 1_555
O27_2 C28_2 1_555 1_555
O39_2 C36_2 1_555 1_555
O41_2 C38_2 1_555 1_555
O45_2 C41_2 1_555 1_555
C41_2 C44_2 1_555 1_555
O47_2 C47_2 1_555 1_555
Rb1_2 O2_2 1_555 1_555
O1_2 C1_2 1_555 1_555
C1_2 H1_2 1_555 1_555
O2_2 H2_2 1_555 1_555
C2_2 C1_2 1_555 1_555
H3_2 C2_2 1_555 1_555
O3_2 Rb1_2 1_555 1_555
H4_2 O3_2 1_555 1_555
C3_2 C2_2 1_555 1_555
H5_2 C3_2 1_555 1_555
O4_2 C4_2 1_555 1_555
C4_2 C3_2 1_555 1_555
H6_2 C4_2 1_555 1_555
C5_2 O1_2 1_555 1_555
H7_2 C5_2 1_555 1_555
O5_2 H8_2 1_555 1_555
C6_2 C5_2 1_555 1_555
H9_2 C6_2 1_555 1_555
H10_2 C6_2 1_555 1_555
O6_2 C7_2 1_555 1_555
C7_2 O4_2 1_555 1_555
H11_2 C7_2 1_555 1_555
O7_2 H12_2 1_555 1_555
C8_2 C7_2 1_555 1_555
H13_2 C8_2 1_555 1_555
O9_2 C1_2 1_555 1_555
Rb3_4 O6_2 1_555 1_555
O17_2 Rb1_2 1_555 1_555
H27_2 O17_2 1_555 1_555
O22_2 Rb1_2 1_555 1_555
H35_2 O22_2 1_555 1_555
O33_2 Rb1_2 1_555 1_555
O34_2 Rb1_2 1_555 1_555
O42_2 H66_2 1_555 1_555
H69_2 C39_2 1_555 1_555
C42_2 O9_2 1_555 1_555
H70_2 C42_2 1_555 1_555
H73_2 C45_2 1_555 1_555
O46_2 Rb4_2 1_555 1_555
O49_2 Rb1_2 1_555 1_555
O50_2 Rb1_2 1_555 1_555
H76_2 O46_2 1_555 1_555
H79_2 O49_2 1_555 1_555
H80_2 O50_2 1_555 1_555
C46_2 C45_2 1_555 1_555
H83_2 C46_2 1_555 1_555
H86_2 C46_2 1_555 1_555
O2_2 C2_2 1_555 1_555
O3_2 C3_2 1_555 1_555
C4_2 C5_2 1_555 1_555
O5_2 C6_2 1_555 1_555
O7_2 C8_2 1_555 1_555
O42_2 C39_2 1_555 1_555
C39_2 C42_2 1_555 1_555
C42_2 C45_2 1_555 1_555
O46_2 C46_2 1_555 1_555
O22_2 H89_2 1_555 1_555
O17_2 H92_2 1_555 1_555
O49_2 H93_2 1_555 1_555
O50_2 H96_2 1_555 1_555
O8_3 H14_3 1_555 1_555
H15_3 C9_3 1_555 1_555
C10_3 C9_3 1_555 1_555
H16_3 C10_3 1_555 1_555
H17_3 C11_3 1_555 1_555
O10_3 H18_3 1_555 1_555
C12_3 C11_3 1_555 1_555
H19_3 C12_3 1_555 1_555
H20_3 C12_3 1_555 1_555
Rb5 O14_3 1_555 1_555
Rb4_3 O30_3 1_555 1_555
O11_3 C13_3 1_555 1_555
C13_3 H21_3 1_555 1_555
O14_3 H24_3 1_555 1_555
C16_3 C13_3 1_555 1_555
H29_3 C16_3 1_555 1_555
O19_3 Rb5 1_555 1_555
H32_3 O19_3 1_555 1_555
C19_3 C16_3 1_555 1_555
H37_3 C19_3 1_555 1_555
O24_3 C22_3 1_555 1_555
C22_3 C19_3 1_555 1_555
H42_3 C22_3 1_555 1_555
C25_3 O11_3 1_555 1_555
H45_3 C25_3 1_555 1_555
O29_3 H48_3 1_555 1_555
C30_3 C25_3 1_555 1_555
H51_3 C30_3 1_555 1_555
H54_3 C30_3 1_555 1_555
O30_3 C31_3 1_555 1_555
O35_3 Rb5 1_555 1_555
O36_3 Rb5 1_555 1_555
C31_3 O24_3 1_555 1_555
H55_3 C31_3 1_555 1_555
O37_3 H58_3 1_555 1_555
C34_3 C31_3 1_555 1_555
H61_3 C34_3 1_555 1_555
O43_3 C10_3 1_555 1_555
O51_3 Rb5 1_555 1_555
O52_3 Rb5 1_555 1_555
H81_3 O51_3 1_555 1_555
H82_3 O52_3 1_555 1_555
O8_3 C9_3 1_555 1_555
C10_3 C11_3 1_555 1_555
O10_3 C12_3 1_555 1_555
O10_3 Rb3_5 1_555 1_555
C13_3 O43_3 1_555 1_555
O14_3 C16_3 1_555 1_555
O19_3 C19_3 1_555 1_555
C22_3 C25_3 1_555 1_555
O29_3 C30_3 1_555 1_555
O37_3 C34_3 1_555 1_555
O20 H90_3 1_555 1_555
O15 H91_3 1_555 1_555
O51_3 H94_3 1_555 1_555
O52_3 H95_3 1_555 1_555
Rb6_5 O31_3 1_555 1_555
O12_3 C14_3 1_555 1_555
C14_3 H22_3 1_555 1_555
C17_3 C14_3 1_555 1_555
H30_3 C17_3 1_555 1_555
C20_3 C17_3 1_555 1_555
H38_3 C20_3 1_555 1_555
O25_3 C23_3 1_555 1_555
C23_3 C20_3 1_555 1_555
H41_3 C23_3 1_555 1_555
C26_3 O12_3 1_555 1_555
H44_3 C26_3 1_555 1_555
O28_3 H47_3 1_555 1_555
C29_3 C26_3 1_555 1_555
H50_3 C29_3 1_555 1_555
H53_3 C29_3 1_555 1_555
O31_3 C32_3 1_555 1_555
C32_3 O25_3 1_555 1_555
H56_3 C32_3 1_555 1_555
O38_3 H59_3 1_555 1_555
C35_3 C32_3 1_555 1_555
H62_3 C35_3 1_555 1_555
O40_3 H64_3 1_555 1_555
H67_3 C37_3 1_555 1_555
O44_3 C14_3 1_555 1_555
C40_3 C37_3 1_555 1_555
H72_3 C40_3 1_555 1_555
H75_3 C43_3 1_555 1_555
O48_3 Rb4_4 1_555 1_555
H78_3 O48_3 1_555 1_555
C48_3 C43_3 1_555 1_555
H85_3 C48_3 1_555 1_555
H88_3 C48_3 1_555 1_555
O18 C17_3 1_555 1_555
O23 C20_3 1_555 1_555
C23_3 C26_3 1_555 1_555
O28_3 C29_3 1_555 1_555
O38_3 C35_3 1_555 1_555
O40_3 C37_3 1_555 1_555
O44_3 C40_3 1_555 1_555
C40_3 C43_3 1_555 1_555
O48_3 C48_3 1_555 1_555
Rb7 O2_3 1_555 1_555
O1_3 C1_3 1_555 1_555
C1_3 H1_3 1_555 1_555
O2_3 H2_3 1_555 1_555
C2_3 C1_3 1_555 1_555
H3_3 C2_3 1_555 1_555
O3_3 Rb7 1_555 1_555
H4_3 O3_3 1_555 1_555
C3_3 C2_3 1_555 1_555
H5_3 C3_3 1_555 1_555
O4_3 C4_3 1_555 1_555
C4_3 C3_3 1_555 1_555
H6_3 C4_3 1_555 1_555
C5_3 O1_3 1_555 1_555
H7_3 C5_3 1_555 1_555
O5_3 H8_3 1_555 1_555
C6_3 C5_3 1_555 1_555
H9_3 C6_3 1_555 1_555
H10_3 C6_3 1_555 1_555
O6_3 C7_3 1_555 1_555
C7_3 O4_3 1_555 1_555
H11_3 C7_3 1_555 1_555
O7_3 H12_3 1_555 1_555
C8_3 C7_3 1_555 1_555
H13_3 C8_3 1_555 1_555
O9_3 C1_3 1_555 1_555
Rb3_6 O6_3 1_555 1_555
O33_3 Rb7 1_555 1_555
O34_3 Rb7 1_555 1_555
O42_3 H66_3 1_555 1_555
H69_3 C39_3 1_555 1_555
C42_3 O9_3 1_555 1_555
H70_3 C42_3 1_555 1_555
H73_3 C45_3 1_555 1_555
O46_3 Rb8_3 1_555 1_555
O49_3 Rb7 1_555 1_555
O50_3 Rb7 1_555 1_555
H76_3 O46_3 1_555 1_555
H79_3 O49_3 1_555 1_555
H80_3 O50_3 1_555 1_555
C46_3 C45_3 1_555 1_555
H83_3 C46_3 1_555 1_555
H86_3 C46_3 1_555 1_555
O2_3 C2_3 1_555 1_555
O3_3 C3_3 1_555 1_555
C4_3 C5_3 1_555 1_555
O5_3 C6_3 1_555 1_555
O7_3 C8_3 1_555 1_555
O42_3 C39_3 1_555 1_555
C39_3 C42_3 1_555 1_555
C42_3 C45_3 1_555 1_555
O46_3 C46_3 1_555 1_555
O21 H89_3 1_555 1_555
O16 H92_3 1_555 1_555
O49_3 H93_3 1_555 1_555
O50_3 H96_3 1_555 1_555
Rb8_4 O32_3 1_555 1_555
O13_3 C15_3 1_555 1_555
C15_3 H23_3 1_555 1_555
C18_3 C15_3 1_555 1_555
H31_3 C18_3 1_555 1_555
C21_3 C18_3 1_555 1_555
H39_3 C21_3 1_555 1_555
O26_3 C24_3 1_555 1_555
C24_3 C21_3 1_555 1_555
H40_3 C24_3 1_555 1_555
C27_3 O13_3 1_555 1_555
H43_3 C27_3 1_555 1_555
O27_3 H46_3 1_555 1_555
C28_3 C27_3 1_555 1_555
H49_3 C28_3 1_555 1_555
H52_3 C28_3 1_555 1_555
O32_3 C33_3 1_555 1_555
C33_3 O26_3 1_555 1_555
H57_3 C33_3 1_555 1_555
O39_3 H60_3 1_555 1_555
C36_3 C33_3 1_555 1_555
H63_3 C36_3 1_555 1_555
O41_3 H65_3 1_555 1_555
H68_3 C38_3 1_555 1_555
O45_3 C15_3 1_555 1_555
C41_3 C38_3 1_555 1_555
H71_3 C41_3 1_555 1_555
H74_3 C44_3 1_555 1_555
O47_3 Rb6_6 1_555 1_555
H77_3 O47_3 1_555 1_555
C47_3 C44_3 1_555 1_555
H84_3 C47_3 1_555 1_555
H87_3 C47_3 1_555 1_555
O17 C18_3 1_555 1_555
O22 C21_3 1_555 1_555
C24_3 C27_3 1_555 1_555
O27_3 C28_3 1_555 1_555
O39_3 C36_3 1_555 1_555
O41_3 C38_3 1_555 1_555
O45_3 C41_3 1_555 1_555
C41_3 C44_3 1_555 1_555
O47_3 C47_3 1_555 1_555
Rb5_3 O15_3 1_555 1_555
Rb3_3 O31_4 1_555 1_555
O12_4 C14_4 1_555 1_555
C14_4 H22_4 1_555 1_555
O15_3 H25_3 1_555 1_555
C17_4 C14_4 1_555 1_555
H30_4 C17_4 1_555 1_555
O20_3 Rb5_3 1_555 1_555
H33_3 O20_3 1_555 1_555
C20_4 C17_4 1_555 1_555
H38_4 C20_4 1_555 1_555
O25_4 C23_4 1_555 1_555
C23_4 C20_4 1_555 1_555
H41_4 C23_4 1_555 1_555
C26_4 O12_4 1_555 1_555
H44_4 C26_4 1_555 1_555
O28_4 H47_4 1_555 1_555
C29_4 C26_4 1_555 1_555
H50_4 C29_4 1_555 1_555
H53_4 C29_4 1_555 1_555
O31_4 C32_4 1_555 1_555
C32_4 O25_4 1_555 1_555
H56_4 C32_4 1_555 1_555
O38_4 H59_4 1_555 1_555
C35_4 C32_4 1_555 1_555
H62_4 C35_4 1_555 1_555
O40_4 H64_4 1_555 1_555
H67_4 C37_4 1_555 1_555
O44_4 C14_4 1_555 1_555
C40_4 C37_4 1_555 1_555
H72_4 C40_4 1_555 1_555
H75_4 C43_4 1_555 1_555
O48_4 Rb6_5 1_555 1_555
H78_4 O48_4 1_555 1_555
C48_4 C43_4 1_555 1_555
H85_4 C48_4 1_555 1_555
H88_4 C48_4 1_555 1_555
O15_3 C17_4 1_555 1_555
O20_3 C20_4 1_555 1_555
C23_4 C26_4 1_555 1_555
O28_4 C29_4 1_555 1_555
O38_4 C35_4 1_555 1_555
O40_4 C37_4 1_555 1_555
O44_4 C40_4 1_555 1_555
C40_4 C43_4 1_555 1_555
O48_4 C48_4 1_555 1_555
Rb7_3 O16_3 1_555 1_555
Rb3 O32_4 1_555 1_555
O13_4 C15_4 1_555 1_555
C15_4 H23_4 1_555 1_555
O16_3 H26_3 1_555 1_555
C18_4 C15_4 1_555 1_555
H31_4 C18_4 1_555 1_555
O21_3 Rb7_3 1_555 1_555
H34_3 O21_3 1_555 1_555
C21_4 C18_4 1_555 1_555
H39_4 C21_4 1_555 1_555
O26_4 C24_4 1_555 1_555
C24_4 C21_4 1_555 1_555
H40_4 C24_4 1_555 1_555
C27_4 O13_4 1_555 1_555
H43_4 C27_4 1_555 1_555
O27_4 H46_4 1_555 1_555
C28_4 C27_4 1_555 1_555
H49_4 C28_4 1_555 1_555
H52_4 C28_4 1_555 1_555
O32_4 C33_4 1_555 1_555
C33_4 O26_4 1_555 1_555
H57_4 C33_4 1_555 1_555
O39_4 H60_4 1_555 1_555
C36_4 C33_4 1_555 1_555
H63_4 C36_4 1_555 1_555
O41_4 H65_4 1_555 1_555
H68_4 C38_4 1_555 1_555
O45_4 C15_4 1_555 1_555
C41_4 C38_4 1_555 1_555
H71_4 C41_4 1_555 1_555
H74_4 C44_4 1_555 1_555
O47_4 Rb3_4 1_555 1_555
H77_4 O47_4 1_555 1_555
C47_4 C44_4 1_555 1_555
H84_4 C47_4 1_555 1_555
H87_4 C47_4 1_555 1_555
O16_3 C18_4 1_555 1_555
O21_3 C21_4 1_555 1_555
C24_4 C27_4 1_555 1_555
O27_4 C28_4 1_555 1_555
O39_4 C36_4 1_555 1_555
O41_4 C38_4 1_555 1_555
O45_4 C41_4 1_555 1_555
C41_4 C44_4 1_555 1_555
O47_4 C47_4 1_555 1_555
O8_4 H14_4 1_555 1_555
H15_4 C9_4 1_555 1_555
C10_4 C9_4 1_555 1_555
H16_4 C10_4 1_555 1_555
H17_4 C11_4 1_555 1_555
O10_4 H18_4 1_555 1_555
C12_4 C11_4 1_555 1_555
H19_4 C12_4 1_555 1_555
H20_4 C12_4 1_555 1_555
Rb2_3 O14_4 1_555 1_555
Rb6_6 O30_4 1_555 1_555
O11_4 C13_4 1_555 1_555
C13_4 H21_4 1_555 1_555
O14_4 H24_4 1_555 1_555
O18_3 Rb2_3 1_555 1_555
H28_3 O18_3 1_555 1_555
C16_4 C13_4 1_555 1_555
H29_4 C16_4 1_555 1_555
O19_4 Rb2_3 1_555 1_555
O23_3 Rb2_3 1_555 1_555
H32_4 O19_4 1_555 1_555
H36_3 O23_3 1_555 1_555
C19_4 C16_4 1_555 1_555
H37_4 C19_4 1_555 1_555
O24_4 C22_4 1_555 1_555
C22_4 C19_4 1_555 1_555
H42_4 C22_4 1_555 1_555
C25_4 O11_4 1_555 1_555
H45_4 C25_4 1_555 1_555
O29_4 H48_4 1_555 1_555
C30_4 C25_4 1_555 1_555
H51_4 C30_4 1_555 1_555
H54_4 C30_4 1_555 1_555
O30_4 C31_4 1_555 1_555
O35_4 Rb2_3 1_555 1_555
O36_4 Rb2_3 1_555 1_555
C31_4 O24_4 1_555 1_555
H55_4 C31_4 1_555 1_555
O37_4 H58_4 1_555 1_555
C34_4 C31_4 1_555 1_555
H61_4 C34_4 1_555 1_555
O43_4 C10_4 1_555 1_555
O51_4 Rb2_3 1_555 1_555
O52_4 Rb2_3 1_555 1_555
H81_4 O51_4 1_555 1_555
H82_4 O52_4 1_555 1_555
O8_4 C9_4 1_555 1_555
C10_4 C11_4 1_555 1_555
O10_4 C12_4 1_555 1_555
O10_4 Rb3_7 1_555 1_555
C13_4 O43_4 1_555 1_555
O14_4 C16_4 1_555 1_555
O19_4 C19_4 1_555 1_555
C22_4 C25_4 1_555 1_555
O29_4 C30_4 1_555 1_555
O37_4 C34_4 1_555 1_555
O23_3 H90_4 1_555 1_555
O18_3 H91_4 1_555 1_555
O51_4 H94_4 1_555 1_555
O52_4 H95_4 1_555 1_555
Rb1_3 O2_4 1_555 1_555
O1_4 C1_4 1_555 1_555
C1_4 H1_4 1_555 1_555
O2_4 H2_4 1_555 1_555
C2_4 C1_4 1_555 1_555
H3_4 C2_4 1_555 1_555
O3_4 Rb1_3 1_555 1_555
H4_4 O3_4 1_555 1_555
C3_4 C2_4 1_555 1_555
H5_4 C3_4 1_555 1_555
O4_4 C4_4 1_555 1_555
C4_4 C3_4 1_555 1_555
H6_4 C4_4 1_555 1_555
C5_4 O1_4 1_555 1_555
H7_4 C5_4 1_555 1_555
O5_4 H8_4 1_555 1_555
C6_4 C5_4 1_555 1_555
H9_4 C6_4 1_555 1_555
H10_4 C6_4 1_555 1_555
O6_4 C7_4 1_555 1_555
C7_4 O4_4 1_555 1_555
H11_4 C7_4 1_555 1_555
O7_4 H12_4 1_555 1_555
C8_4 C7_4 1_555 1_555
H13_4 C8_4 1_555 1_555
O9_4 C1_4 1_555 1_555
Rb3_8 O6_4 1_555 1_555
O17_3 Rb1_3 1_555 1_555
H27_3 O17_3 1_555 1_555
O22_3 Rb1_3 1_555 1_555
H35_3 O22_3 1_555 1_555
O33_4 Rb1_3 1_555 1_555
O34_4 Rb1_3 1_555 1_555
O42_4 H66_4 1_555 1_555
H69_4 C39_4 1_555 1_555
C42_4 O9_4 1_555 1_555
H70_4 C42_4 1_555 1_555
H73_4 C45_4 1_555 1_555
O46_4 Rb3_2 1_555 1_555
O49_4 Rb1_3 1_555 1_555
O50_4 Rb1_3 1_555 1_555
H76_4 O46_4 1_555 1_555
H79_4 O49_4 1_555 1_555
H80_4 O50_4 1_555 1_555
C46_4 C45_4 1_555 1_555
H83_4 C46_4 1_555 1_555
H86_4 C46_4 1_555 1_555
O2_4 C2_4 1_555 1_555
O3_4 C3_4 1_555 1_555
C4_4 C5_4 1_555 1_555
O5_4 C6_4 1_555 1_555
O7_4 C8_4 1_555 1_555
O42_4 C39_4 1_555 1_555
C39_4 C42_4 1_555 1_555
C42_4 C45_4 1_555 1_555
O46_4 C46_4 1_555 1_555
O22_3 H89_4 1_555 1_555
O17_3 H92_4 1_555 1_555
O49_4 H93_4 1_555 1_555
O50_4 H96_4 1_555 1_555
O19 H89_5 1_555 1_555
O14 H92_5 1_555 1_555
O3 H90_5 1_555 1_555
O2 H91_5 1_555 1_555
O8_5 H14_5 1_555 1_555
H15_5 C9_5 1_555 1_555
C10_5 C9_5 1_555 1_555
H16_5 C10_5 1_555 1_555
H17_5 C11_5 1_555 1_555
O10_5 H18_5 1_555 1_555
C12_5 C11_5 1_555 1_555
H19_5 C12_5 1_555 1_555
H20_5 C12_5 1_555 1_555
Rb5_2 O14_5 1_555 1_555
Rb8_3 O30_5 1_555 1_555
O11_5 C13_5 1_555 1_555
C13_5 H21_5 1_555 1_555
O14_5 H24_5 1_555 1_555
C16_5 C13_5 1_555 1_555
H29_5 C16_5 1_555 1_555
O19_5 Rb5_2 1_555 1_555
H32_5 O19_5 1_555 1_555
C19_5 C16_5 1_555 1_555
H37_5 C19_5 1_555 1_555
O24_5 C22_5 1_555 1_555
C22_5 C19_5 1_555 1_555
H42_5 C22_5 1_555 1_555
C25_5 O11_5 1_555 1_555
H45_5 C25_5 1_555 1_555
O29_5 H48_5 1_555 1_555
C30_5 C25_5 1_555 1_555
H51_5 C30_5 1_555 1_555
H54_5 C30_5 1_555 1_555
O30_5 C31_5 1_555 1_555
O35_5 Rb5_2 1_555 1_555
O36_5 Rb5_2 1_555 1_555
C31_5 O24_5 1_555 1_555
H55_5 C31_5 1_555 1_555
O37_5 H58_5 1_555 1_555
C34_5 C31_5 1_555 1_555
H61_5 C34_5 1_555 1_555
O43_5 C10_5 1_555 1_555
O51_5 Rb5_2 1_555 1_555
O52_5 Rb5_2 1_555 1_555
H81_5 O51_5 1_555 1_555
H82_5 O52_5 1_555 1_555
O8_5 C9_5 1_555 1_555
C10_5 C11_5 1_555 1_555
O10_5 C12_5 1_555 1_555
O10_5 Rb3_9 1_555 1_555
C13_5 O43_5 1_555 1_555
O14_5 C16_5 1_555 1_555
O19_5 C19_5 1_555 1_555
C22_5 C25_5 1_555 1_555
O29_5 C30_5 1_555 1_555
O37_5 C34_5 1_555 1_555
O20_2 H90_6 1_555 1_555
O15_2 H91_6 1_555 1_555
O51_5 H94_5 1_555 1_555
O52_5 H95_5 1_555 1_555
Rb3_7 O31_5 1_555 1_555
O12_5 C14_5 1_555 1_555
C14_5 H22_5 1_555 1_555
C17_5 C14_5 1_555 1_555
H30_5 C17_5 1_555 1_555
C20_5 C17_5 1_555 1_555
H38_5 C20_5 1_555 1_555
O25_5 C23_5 1_555 1_555
C23_5 C20_5 1_555 1_555
H41_5 C23_5 1_555 1_555
C26_5 O12_5 1_555 1_555
H44_5 C26_5 1_555 1_555
O28_5 H47_5 1_555 1_555
C29_5 C26_5 1_555 1_555
H50_5 C29_5 1_555 1_555
H53_5 C29_5 1_555 1_555
O31_5 C32_5 1_555 1_555
C32_5 O25_5 1_555 1_555
H56_5 C32_5 1_555 1_555
O38_5 H59_5 1_555 1_555
C35_5 C32_5 1_555 1_555
H62_5 C35_5 1_555 1_555
O40_5 H64_5 1_555 1_555
H67_5 C37_5 1_555 1_555
O44_5 C14_5 1_555 1_555
C40_5 C37_5 1_555 1_555
H72_5 C40_5 1_555 1_555
H75_5 C43_5 1_555 1_555
O48_5 Rb8_4 1_555 1_555
H78_5 O48_5 1_555 1_555
C48_5 C43_5 1_555 1_555
H85_5 C48_5 1_555 1_555
H88_5 C48_5 1_555 1_555
O18_2 C17_5 1_555 1_555
O23_2 C20_5 1_555 1_555
C23_5 C26_5 1_555 1_555
O28_5 C29_5 1_555 1_555
O38_5 C35_5 1_555 1_555
O40_5 C37_5 1_555 1_555
O44_5 C40_5 1_555 1_555
C40_5 C43_5 1_555 1_555
O48_5 C48_5 1_555 1_555
Rb7_2 O2_5 1_555 1_555
O1_5 C1_5 1_555 1_555
C1_5 H1_5 1_555 1_555
O2_5 H2_5 1_555 1_555
C2_5 C1_5 1_555 1_555
H3_5 C2_5 1_555 1_555
O3_5 Rb7_2 1_555 1_555
H4_5 O3_5 1_555 1_555
C3_5 C2_5 1_555 1_555
H5_5 C3_5 1_555 1_555
O4_5 C4_5 1_555 1_555
C4_5 C3_5 1_555 1_555
H6_5 C4_5 1_555 1_555
C5_5 O1_5 1_555 1_555
H7_5 C5_5 1_555 1_555
O5_5 H8_5 1_555 1_555
C6_5 C5_5 1_555 1_555
H9_5 C6_5 1_555 1_555
H10_5 C6_5 1_555 1_555
O6_5 C7_5 1_555 1_555
C7_5 O4_5 1_555 1_555
H11_5 C7_5 1_555 1_555
O7_5 H12_5 1_555 1_555
C8_5 C7_5 1_555 1_555
H13_5 C8_5 1_555 1_555
O9_5 C1_5 1_555 1_555
Rb3_10 O6_5 1_555 1_555
O33_5 Rb7_2 1_555 1_555
O34_5 Rb7_2 1_555 1_555
O42_5 H66_5 1_555 1_555
H69_5 C39_5 1_555 1_555
C42_5 O9_5 1_555 1_555
H70_5 C42_5 1_555 1_555
H73_5 C45_5 1_555 1_555
O46_5 Rb8 1_555 1_555
O49_5 Rb7_2 1_555 1_555
O50_5 Rb7_2 1_555 1_555
H76_5 O46_5 1_555 1_555
H79_5 O49_5 1_555 1_555
H80_5 O50_5 1_555 1_555
C46_5 C45_5 1_555 1_555
H83_5 C46_5 1_555 1_555
H86_5 C46_5 1_555 1_555
O2_5 C2_5 1_555 1_555
O3_5 C3_5 1_555 1_555
C4_5 C5_5 1_555 1_555
O5_5 C6_5 1_555 1_555
O7_5 C8_5 1_555 1_555
O42_5 C39_5 1_555 1_555
C39_5 C42_5 1_555 1_555
C42_5 C45_5 1_555 1_555
O46_5 C46_5 1_555 1_555
O21_2 H89_6 1_555 1_555
O16_2 H92_6 1_555 1_555
O49_5 H93_5 1_555 1_555
O50_5 H96_5 1_555 1_555
Rb8_2 O32_5 1_555 1_555
O13_5 C15_5 1_555 1_555
C15_5 H23_5 1_555 1_555
C18_5 C15_5 1_555 1_555
H31_5 C18_5 1_555 1_555
C21_5 C18_5 1_555 1_555
H39_5 C21_5 1_555 1_555
O26_5 C24_5 1_555 1_555
C24_5 C21_5 1_555 1_555
H40_5 C24_5 1_555 1_555
C27_5 O13_5 1_555 1_555
H43_5 C27_5 1_555 1_555
O27_5 H46_5 1_555 1_555
C28_5 C27_5 1_555 1_555
H49_5 C28_5 1_555 1_555
H52_5 C28_5 1_555 1_555
O32_5 C33_5 1_555 1_555
C33_5 O26_5 1_555 1_555
H57_5 C33_5 1_555 1_555
O39_5 H60_5 1_555 1_555
C36_5 C33_5 1_555 1_555
H63_5 C36_5 1_555 1_555
O41_5 H65_5 1_555 1_555
H68_5 C38_5 1_555 1_555
O45_5 C15_5 1_555 1_555
C41_5 C38_5 1_555 1_555
H71_5 C41_5 1_555 1_555
H74_5 C44_5 1_555 1_555
O47_5 Rb3_8 1_555 1_555
H77_5 O47_5 1_555 1_555
C47_5 C44_5 1_555 1_555
H84_5 C47_5 1_555 1_555
H87_5 C47_5 1_555 1_555
O17_2 C18_5 1_555 1_555
O22_2 C21_5 1_555 1_555
C24_5 C27_5 1_555 1_555
O27_5 C28_5 1_555 1_555
O39_5 C36_5 1_555 1_555
O41_5 C38_5 1_555 1_555
O45_5 C41_5 1_555 1_555
C41_5 C44_5 1_555 1_555
O47_5 C47_5 1_555 1_555
O17_4 Rb7_3 1_555 1_555
H27_4 O17_4 1_555 1_555
O22_4 Rb7_3 1_555 1_555
H35_4 O22_4 1_555 1_555
O33_6 Rb7_3 1_555 1_555
O34_6 Rb7_3 1_555 1_555
O49_6 Rb7_3 1_555 1_555
O50_6 Rb7_3 1_555 1_555
H79_6 O49_6 1_555 1_555
H80_6 O50_6 1_555 1_555
O22_4 H89_7 1_555 1_555
O17_4 H92_7 1_555 1_555
O49_6 H93_6 1_555 1_555
O50_6 H96_6 1_555 1_555
O19_2 H89_8 1_555 1_555
O14_2 H92_8 1_555 1_555
O3_2 H90_7 1_555 1_555
O2_2 H91_7 1_555 1_555
O19_3 H89_9 1_555 1_555
O14_3 H92_9 1_555 1_555
O3_3 H90_8 1_555 1_555
O2_3 H91_8 1_555 1_555
O17_5 Rb5_3 1_555 1_555
H27_5 O17_5 1_555 1_555
O22_5 Rb5_3 1_555 1_555
H35_5 O22_5 1_555 1_555
O33_7 Rb5_3 1_555 1_555
O34_7 Rb5_3 1_555 1_555
O49_7 Rb5_3 1_555 1_555
O50_7 Rb5_3 1_555 1_555
H79_7 O49_7 1_555 1_555
H80_7 O50_7 1_555 1_555
O22_5 H89_10 1_555 1_555
O17_5 H92_10 1_555 1_555
O49_7 H93_7 1_555 1_555
O50_7 H96_7 1_555 1_555
O19_5 H89_11 1_555 1_555
O14_5 H92_11 1_555 1_555
O3_5 H90_9 1_555 1_555
O2_5 H91_9 1_555 1_555
Rb3_5 O32_6 1_555 1_555
O13_6 C15_6 1_555 1_555
C15_6 H23_6 1_555 1_555
C18_6 C15_6 1_555 1_555
H31_6 C18_6 1_555 1_555
C21_6 C18_6 1_555 1_555
H39_6 C21_6 1_555 1_555
O26_6 C24_6 1_555 1_555
C24_6 C21_6 1_555 1_555
H40_6 C24_6 1_555 1_555
C27_6 O13_6 1_555 1_555
H43_6 C27_6 1_555 1_555
O27_6 H46_6 1_555 1_555
C28_6 C27_6 1_555 1_555
H49_6 C28_6 1_555 1_555
H52_6 C28_6 1_555 1_555
O32_6 C33_6 1_555 1_555
C33_6 O26_6 1_555 1_555
H57_6 C33_6 1_555 1_555
O39_6 H60_6 1_555 1_555
C36_6 C33_6 1_555 1_555
H63_6 C36_6 1_555 1_555
O41_6 H65_6 1_555 1_555
H68_6 C38_6 1_555 1_555
O45_6 C15_6 1_555 1_555
C41_6 C38_6 1_555 1_555
H71_6 C41_6 1_555 1_555
H74_6 C44_6 1_555 1_555
O47_6 Rb6_3 1_555 1_555
H77_6 O47_6 1_555 1_555
C47_6 C44_6 1_555 1_555
H84_6 C47_6 1_555 1_555
H87_6 C47_6 1_555 1_555
O17_5 C18_6 1_555 1_555
O22_5 C21_6 1_555 1_555
C24_6 C27_6 1_555 1_555
O27_6 C28_6 1_555 1_555
O39_6 C36_6 1_555 1_555
O41_6 C38_6 1_555 1_555
O45_6 C41_6 1_555 1_555
C41_6 C44_6 1_555 1_555
O47_6 C47_6 1_555 1_555
Rb6_4 O31_6 1_555 1_555
O12_6 C14_6 1_555 1_555
C14_6 H22_6 1_555 1_555
C17_6 C14_6 1_555 1_555
H30_6 C17_6 1_555 1_555
C20_6 C17_6 1_555 1_555
H38_6 C20_6 1_555 1_555
O25_6 C23_6 1_555 1_555
C23_6 C20_6 1_555 1_555
H41_6 C23_6 1_555 1_555
C26_6 O12_6 1_555 1_555
H44_6 C26_6 1_555 1_555
O28_6 H47_6 1_555 1_555
C29_6 C26_6 1_555 1_555
H50_6 C29_6 1_555 1_555
H53_6 C29_6 1_555 1_555
O31_6 C32_6 1_555 1_555
C32_6 O25_6 1_555 1_555
H56_6 C32_6 1_555 1_555
O38_6 H59_6 1_555 1_555
C35_6 C32_6 1_555 1_555
H62_6 C35_6 1_555 1_555
O40_6 H64_6 1_555 1_555
H67_6 C37_6 1_555 1_555
O44_6 C14_6 1_555 1_555
C40_6 C37_6 1_555 1_555
H72_6 C40_6 1_555 1_555
H75_6 C43_6 1_555 1_555
O48_6 Rb6 1_555 1_555
H78_6 O48_6 1_555 1_555
C48_6 C43_6 1_555 1_555
H85_6 C48_6 1_555 1_555
H88_6 C48_6 1_555 1_555
O17_4 C17_6 1_555 1_555
O22_4 C20_6 1_555 1_555
C23_6 C26_6 1_555 1_555
O28_6 C29_6 1_555 1_555
O38_6 C35_6 1_555 1_555
O40_6 C37_6 1_555 1_555
O44_6 C40_6 1_555 1_555
C40_6 C43_6 1_555 1_555
O48_6 C48_6 1_555 1_555
O1_6 C1_6 1_555 1_555
C1_6 H1_6 1_555 1_555
C2_6 C1_6 1_555 1_555
H3_6 C2_6 1_555 1_555
C3_6 C2_6 1_555 1_555
H5_6 C3_6 1_555 1_555
O4_6 C4_6 1_555 1_555
C4_6 C3_6 1_555 1_555
H6_6 C4_6 1_555 1_555
C5_6 O1_6 1_555 1_555
H7_6 C5_6 1_555 1_555
O5_6 H8_6 1_555 1_555
C6_6 C5_6 1_555 1_555
H9_6 C6_6 1_555 1_555
H10_6 C6_6 1_555 1_555
O6_6 C7_6 1_555 1_555
C7_6 O4_6 1_555 1_555
H11_6 C7_6 1_555 1_555
O7_6 H12_6 1_555 1_555
C8_6 C7_6 1_555 1_555
H13_6 C8_6 1_555 1_555
O9_6 C1_6 1_555 1_555
Rb3_9 O6_6 1_555 1_555
O42_6 H66_6 1_555 1_555
H69_6 C39_6 1_555 1_555
C42_6 O9_6 1_555 1_555
H70_6 C42_6 1_555 1_555
H73_6 C45_6 1_555 1_555
O46_6 Rb3_6 1_555 1_555
H76_6 O46_6 1_555 1_555
C46_6 C45_6 1_555 1_555
H83_6 C46_6 1_555 1_555
H86_6 C46_6 1_555 1_555
O18_3 C2_6 1_555 1_555
O23_3 C3_6 1_555 1_555
C4_6 C5_6 1_555 1_555
O5_6 C6_6 1_555 1_555
O7_6 C8_6 1_555 1_555
O42_6 C39_6 1_555 1_555
C39_6 C42_6 1_555 1_555
C42_6 C45_6 1_555 1_555
O46_6 C46_6 1_555 1_555
O19_4 H89_12 1_555 1_555
O14_4 H92_12 1_555 1_555
O8_6 H14_6 1_555 1_555
H15_6 C9_6 1_555 1_555
C10_6 C9_6 1_555 1_555
H16_6 C10_6 1_555 1_555
H17_6 C11_6 1_555 1_555
O10_6 H18_6 1_555 1_555
C12_6 C11_6 1_555 1_555
H19_6 C12_6 1_555 1_555
H20_6 C12_6 1_555 1_555
Rb6_2 O30_6 1_555 1_555
O11_6 C13_6 1_555 1_555
C13_6 H21_6 1_555 1_555
C16_6 C13_6 1_555 1_555
H29_6 C16_6 1_555 1_555
C19_6 C16_6 1_555 1_555
H37_6 C19_6 1_555 1_555
O24_6 C22_6 1_555 1_555
C22_6 C19_6 1_555 1_555
H42_6 C22_6 1_555 1_555
C25_6 O11_6 1_555 1_555
H45_6 C25_6 1_555 1_555
O29_6 H48_6 1_555 1_555
C30_6 C25_6 1_555 1_555
H51_6 C30_6 1_555 1_555
H54_6 C30_6 1_555 1_555
O30_6 C31_6 1_555 1_555
C31_6 O24_6 1_555 1_555
H55_6 C31_6 1_555 1_555
O37_6 H58_6 1_555 1_555
C34_6 C31_6 1_555 1_555
H61_6 C34_6 1_555 1_555
O43_6 C10_6 1_555 1_555
O8_6 C9_6 1_555 1_555
C10_6 C11_6 1_555 1_555
O10_6 C12_6 1_555 1_555
O10_6 Rb3_10 1_555 1_555
C13_6 O43_6 1_555 1_555
O17_3 C16_6 1_555 1_555
O22_3 C19_6 1_555 1_555
C22_6 C25_6 1_555 1_555
O29_6 C30_6 1_555 1_555
O37_6 C34_6 1_555 1_555
O3_4 H90_10 1_555 1_555
O2_4 H91_10 1_555 1_555
O20_3 H89_13 1_555 1_555
O15_3 H92_13 1_555 1_555
O21_3 H89_14 1_555 1_555
O16_3 H92_14 1_555 1_555
Rb6_3 O2_6 1_555 1_555
O1_7 C1_7 1_555 1_555
C1_7 H1_7 1_555 1_555
O2_6 H2_6 1_555 1_555
C2_7 C1_7 1_555 1_555
H3_7 C2_7 1_555 1_555
O3_6 Rb6_3 1_555 1_555
H4_6 O3_6 1_555 1_555
C3_7 C2_7 1_555 1_555
H5_7 C3_7 1_555 1_555
O4_7 C4_7 1_555 1_555
C4_7 C3_7 1_555 1_555
H6_7 C4_7 1_555 1_555
C5_7 O1_7 1_555 1_555
H7_7 C5_7 1_555 1_555
O5_7 H8_7 1_555 1_555
C6_7 C5_7 1_555 1_555
H9_7 C6_7 1_555 1_555
H10_7 C6_7 1_555 1_555
O36_5 C7_7 1_555 1_555
C7_7 O4_7 1_555 1_555
H11_7 C7_7 1_555 1_555
O7_7 H12_7 1_555 1_555
C8_7 C7_7 1_555 1_555
H13_7 C8_7 1_555 1_555
O8_7 H14_7 1_555 1_555
C9_7 C8_7 1_555 1_555
H15_7 C9_7 1_555 1_555
O9_7 C1_7 1_555 1_555
C10_7 C9_7 1_555 1_555
H16_7 C10_7 1_555 1_555
C11_7 O36_5 1_555 1_555
H17_7 C11_7 1_555 1_555
C12_7 C11_7 1_555 1_555
H19_7 C12_7 1_555 1_555
H20_7 C12_7 1_555 1_555
Rb3_9 O14_6 1_555 1_555
Rb3_7 O15_4 1_555 1_555
Rb3_3 O16_4 1_555 1_555
O11_7 C13_7 1_555 1_555
O12_7 C14_7 1_555 1_555
O13_7 C15_7 1_555 1_555
C13_7 H21_7 1_555 1_555
C14_7 H22_7 1_555 1_555
C15_7 H23_7 1_555 1_555
O14_6 H24_6 1_555 1_555
O15_4 H25_4 1_555 1_555
O16_4 H26_4 1_555 1_555
C16_7 C13_7 1_555 1_555
C17_7 C14_7 1_555 1_555
C18_7 C15_7 1_555 1_555
H29_7 C16_7 1_555 1_555
H30_7 C17_7 1_555 1_555
H31_7 C18_7 1_555 1_555
O19_6 Rb3_9 1_555 1_555
O20_4 Rb3_7 1_555 1_555
O21_4 Rb3_3 1_555 1_555
H32_6 O19_6 1_555 1_555
H33_4 O20_4 1_555 1_555
H34_4 O21_4 1_555 1_555
C19_7 C16_7 1_555 1_555
C20_7 C17_7 1_555 1_555
C21_7 C18_7 1_555 1_555
H37_7 C19_7 1_555 1_555
H38_7 C20_7 1_555 1_555
H39_7 C21_7 1_555 1_555
O24_7 C22_7 1_555 1_555
O25_7 C23_7 1_555 1_555
O26_7 C24_7 1_555 1_555
C22_7 C19_7 1_555 1_555
C23_7 C20_7 1_555 1_555
C24_7 C21_7 1_555 1_555
H40_7 C24_7 1_555 1_555
H41_7 C23_7 1_555 1_555
H42_7 C22_7 1_555 1_555
C25_7 O11_7 1_555 1_555
C26_7 O12_7 1_555 1_555
C27_7 O13_7 1_555 1_555
H43_7 C27_7 1_555 1_555
H44_7 C26_7 1_555 1_555
H45_7 C25_7 1_555 1_555
O27_7 H46_7 1_555 1_555
O28_7 H47_7 1_555 1_555
O29_7 H48_7 1_555 1_555
C28_7 C27_7 1_555 1_555
C29_7 C26_7 1_555 1_555
C30_7 C25_7 1_555 1_555
H49_7 C28_7 1_555 1_555
H50_7 C29_7 1_555 1_555
H51_7 C30_7 1_555 1_555
H52_7 C28_7 1_555 1_555
H53_7 C29_7 1_555 1_555
H54_7 C30_7 1_555 1_555
O36_4 C31_7 1_555 1_555
O36_2 C32_7 1_555 1_555
O33_7 C33_7 1_555 1_555
C31_7 O24_7 1_555 1_555
C32_7 O25_7 1_555 1_555
C33_7 O26_7 1_555 1_555
H55_7 C31_7 1_555 1_555
H56_7 C32_7 1_555 1_555
H57_7 C33_7 1_555 1_555
O37_7 H58_7 1_555 1_555
O38_7 H59_7 1_555 1_555
O39_7 H60_7 1_555 1_555
C34_7 C31_7 1_555 1_555
C35_7 C32_7 1_555 1_555
C36_7 C33_7 1_555 1_555
H61_7 C34_7 1_555 1_555
H62_7 C35_7 1_555 1_555
H63_7 C36_7 1_555 1_555
O40_7 H64_7 1_555 1_555
O41_7 H65_7 1_555 1_555
O42_7 H66_7 1_555 1_555
C37_7 C34_7 1_555 1_555
C38_7 C35_7 1_555 1_555
C39_7 C36_7 1_555 1_555
H67_7 C37_7 1_555 1_555
H68_7 C38_7 1_555 1_555
H69_7 C39_7 1_555 1_555
O43_7 C10_7 1_555 1_555
O44_7 C14_7 1_555 1_555
O45_7 C15_7 1_555 1_555
C40_7 C37_7 1_555 1_555
C41_7 C38_7 1_555 1_555
C42_7 O9_7 1_555 1_555
H70_7 C42_7 1_555 1_555
H71_7 C41_7 1_555 1_555
H72_7 C40_7 1_555 1_555
C43_7 O36_4 1_555 1_555
C44_7 O36_2 1_555 1_555
C45_7 O33_7 1_555 1_555
H73_7 C45_7 1_555 1_555
H74_7 C44_7 1_555 1_555
H75_7 C43_7 1_555 1_555
C46_7 C45_7 1_555 1_555
C47_7 C44_7 1_555 1_555
C48_7 C43_7 1_555 1_555
H83_7 C46_7 1_555 1_555
H84_7 C47_7 1_555 1_555
H85_7 C48_7 1_555 1_555
H86_7 C46_7 1_555 1_555
H87_7 C47_7 1_555 1_555
H88_7 C48_7 1_555 1_555
O2_6 C2_7 1_555 1_555
O3_6 C3_7 1_555 1_555
C4_7 C5_7 1_555 1_555
O5_7 C6_7 1_555 1_555
O7_7 C8_7 1_555 1_555
O8_7 C9_7 1_555 1_555
C10_7 C11_7 1_555 1_555
O52_5 C12_7 1_555 1_555
C13_7 O43_7 1_555 1_555
O14_6 C16_7 1_555 1_555
O15_4 C17_7 1_555 1_555
O16_4 C18_7 1_555 1_555
O19_6 C19_7 1_555 1_555
O20_4 C20_7 1_555 1_555
O21_4 C21_7 1_555 1_555
C22_7 C25_7 1_555 1_555
C23_7 C26_7 1_555 1_555
C24_7 C27_7 1_555 1_555
O27_7 C28_7 1_555 1_555
O28_7 C29_7 1_555 1_555
O29_7 C30_7 1_555 1_555
O37_7 C34_7 1_555 1_555
O38_7 C35_7 1_555 1_555
O39_7 C36_7 1_555 1_555
O40_7 C37_7 1_555 1_555
O41_7 C38_7 1_555 1_555
O42_7 C39_7 1_555 1_555
C39_7 C42_7 1_555 1_555
O44_7 C40_7 1_555 1_555
O45_7 C41_7 1_555 1_555
C40_7 C43_7 1_555 1_555
C41_7 C44_7 1_555 1_555
C42_7 C45_7 1_555 1_555
O49_7 C46_7 1_555 1_555
O52_2 C47_7 1_555 1_555
O52_4 C48_7 1_555 1_555
O10_5 H95_6 1_555 1_555
O47_6 H96_8 1_555 1_555
O17_6 Rb6_4 1_555 1_555
O18_4 Rb3_10 1_555 1_555
H27_6 O17_6 1_555 1_555
H28_4 O18_4 1_555 1_555
O22_6 Rb6_4 1_555 1_555
O23_4 Rb3_10 1_555 1_555
H35_6 O22_6 1_555 1_555
H36_4 O23_4 1_555 1_555
O22_6 H89_15 1_555 1_555
O23_4 H90_11 1_555 1_555
O18_4 H91_11 1_555 1_555
O17_6 H92_15 1_555 1_555
O47_2 H93_8 1_555 1_555
O10_6 H94_6 1_555 1_555
O17_7 Rb3_5 1_555 1_555
O18_5 Rb6 1_555 1_555
H27_7 O17_7 1_555 1_555
H28_5 O18_5 1_555 1_555
O22_7 Rb3_5 1_555 1_555
O23_5 Rb6 1_555 1_555
H35_7 O22_7 1_555 1_555
H36_5 O23_5 1_555 1_555
O22_7 H89_16 1_555 1_555
O23_5 H90_12 1_555 1_555
O18_5 H91_12 1_555 1_555
O17_7 H92_16 1_555 1_555
O10_3 H93_9 1_555 1_555
O48_6 H94_7 1_555 1_555
Rb3_6 O2_7 1_555 1_555
O1_8 C1_8 1_555 1_555
C1_8 H1_8 1_555 1_555
O2_7 H2_7 1_555 1_555
C2_8 C1_8 1_555 1_555
H3_8 C2_8 1_555 1_555
O3_7 Rb3_6 1_555 1_555
H4_7 O3_7 1_555 1_555
C3_8 C2_8 1_555 1_555
H5_8 C3_8 1_555 1_555
O4_8 C4_8 1_555 1_555
C4_8 C3_8 1_555 1_555
H6_8 C4_8 1_555 1_555
C5_8 O1_8 1_555 1_555
H7_8 C5_8 1_555 1_555
O5_8 H8_8 1_555 1_555
C6_8 C5_8 1_555 1_555
H9_8 C6_8 1_555 1_555
H10_8 C6_8 1_555 1_555
O33_3 C7_8 1_555 1_555
C7_8 O4_8 1_555 1_555
H11_8 C7_8 1_555 1_555
O7_8 H12_8 1_555 1_555
C8_8 C7_8 1_555 1_555
H13_8 C8_8 1_555 1_555
O8_8 H14_8 1_555 1_555
C9_8 C8_8 1_555 1_555
H15_8 C9_8 1_555 1_555
O9_8 C1_8 1_555 1_555
C10_8 C9_8 1_555 1_555
H16_8 C10_8 1_555 1_555
C11_8 O33_3 1_555 1_555
H17_8 C11_8 1_555 1_555
C12_8 C11_8 1_555 1_555
H19_8 C12_8 1_555 1_555
H20_8 C12_8 1_555 1_555
Rb6_2 O14_7 1_555 1_555
Rb3_2 O15_5 1_555 1_555
Rb6_6 O16_5 1_555 1_555
O11_8 C13_8 1_555 1_555
O12_8 C14_8 1_555 1_555
O13_8 C15_8 1_555 1_555
C13_8 H21_8 1_555 1_555
C14_8 H22_8 1_555 1_555
C15_8 H23_8 1_555 1_555
O14_7 H24_7 1_555 1_555
O15_5 H25_5 1_555 1_555
O16_5 H26_5 1_555 1_555
C16_8 C13_8 1_555 1_555
C17_8 C14_8 1_555 1_555
C18_8 C15_8 1_555 1_555
H29_8 C16_8 1_555 1_555
H30_8 C17_8 1_555 1_555
H31_8 C18_8 1_555 1_555
O19_7 Rb6_2 1_555 1_555
O20_5 Rb3_2 1_555 1_555
O21_5 Rb6_6 1_555 1_555
H32_7 O19_7 1_555 1_555
H33_5 O20_5 1_555 1_555
H34_5 O21_5 1_555 1_555
C19_8 C16_8 1_555 1_555
C20_8 C17_8 1_555 1_555
C21_8 C18_8 1_555 1_555
H37_8 C19_8 1_555 1_555
H38_8 C20_8 1_555 1_555
H39_8 C21_8 1_555 1_555
O24_8 C22_8 1_555 1_555
O25_8 C23_8 1_555 1_555
O26_8 C24_8 1_555 1_555
C22_8 C19_8 1_555 1_555
C23_8 C20_8 1_555 1_555
C24_8 C21_8 1_555 1_555
H40_8 C24_8 1_555 1_555
H41_8 C23_8 1_555 1_555
H42_8 C22_8 1_555 1_555
C25_8 O11_8 1_555 1_555
C26_8 O12_8 1_555 1_555
C27_8 O13_8 1_555 1_555
H43_8 C27_8 1_555 1_555
H44_8 C26_8 1_555 1_555
H45_8 C25_8 1_555 1_555
O27_8 H46_8 1_555 1_555
O28_8 H47_8 1_555 1_555
O29_8 H48_8 1_555 1_555
C28_8 C27_8 1_555 1_555
C29_8 C26_8 1_555 1_555
C30_8 C25_8 1_555 1_555
H49_8 C28_8 1_555 1_555
H50_8 C29_8 1_555 1_555
H51_8 C30_8 1_555 1_555
H52_8 C28_8 1_555 1_555
H53_8 C29_8 1_555 1_555
H54_8 C30_8 1_555 1_555
O34_4 C31_8 1_555 1_555
O33 C32_8 1_555 1_555
O35_4 C33_8 1_555 1_555
C31_8 O24_8 1_555 1_555
C32_8 O25_8 1_555 1_555
C33_8 O26_8 1_555 1_555
H55_8 C31_8 1_555 1_555
H56_8 C32_8 1_555 1_555
H57_8 C33_8 1_555 1_555
O37_8 H58_8 1_555 1_555
O38_8 H59_8 1_555 1_555
O39_8 H60_8 1_555 1_555
C34_8 C31_8 1_555 1_555
C35_8 C32_8 1_555 1_555
C36_8 C33_8 1_555 1_555
H61_8 C34_8 1_555 1_555
H62_8 C35_8 1_555 1_555
H63_8 C36_8 1_555 1_555
O40_8 H64_8 1_555 1_555
O41_8 H65_8 1_555 1_555
O42_8 H66_8 1_555 1_555
C37_8 C34_8 1_555 1_555
C38_8 C35_8 1_555 1_555
C39_8 C36_8 1_555 1_555
H67_8 C37_8 1_555 1_555
H68_8 C38_8 1_555 1_555
H69_8 C39_8 1_555 1_555
O43_8 C10_8 1_555 1_555
O44_8 C14_8 1_555 1_555
O45_8 C15_8 1_555 1_555
C40_8 C37_8 1_555 1_555
C41_8 C38_8 1_555 1_555
C42_8 O9_8 1_555 1_555
H70_8 C42_8 1_555 1_555
H71_8 C41_8 1_555 1_555
H72_8 C40_8 1_555 1_555
C43_8 O34_4 1_555 1_555
C44_8 O33 1_555 1_555
C45_8 O35_4 1_555 1_555
H73_8 C45_8 1_555 1_555
H74_8 C44_8 1_555 1_555
H75_8 C43_8 1_555 1_555
C46_8 C45_8 1_555 1_555
C47_8 C44_8 1_555 1_555
C48_8 C43_8 1_555 1_555
H83_8 C46_8 1_555 1_555
H84_8 C47_8 1_555 1_555
H85_8 C48_8 1_555 1_555
H86_8 C46_8 1_555 1_555
H87_8 C47_8 1_555 1_555
H88_8 C48_8 1_555 1_555
O2_7 C2_8 1_555 1_555
O3_7 C3_8 1_555 1_555
C4_8 C5_8 1_555 1_555
O5_8 C6_8 1_555 1_555
O7_8 C8_8 1_555 1_555
O8_8 C9_8 1_555 1_555
C10_8 C11_8 1_555 1_555
O49_3 C12_8 1_555 1_555
C13_8 O43_8 1_555 1_555
O14_7 C16_8 1_555 1_555
O15_5 C17_8 1_555 1_555
O16_5 C18_8 1_555 1_555
O19_7 C19_8 1_555 1_555
O20_5 C20_8 1_555 1_555
O21_5 C21_8 1_555 1_555
C22_8 C25_8 1_555 1_555
C23_8 C26_8 1_555 1_555
C24_8 C27_8 1_555 1_555
O27_8 C28_8 1_555 1_555
O28_8 C29_8 1_555 1_555
O29_8 C30_8 1_555 1_555
O37_8 C34_8 1_555 1_555
O38_8 C35_8 1_555 1_555
O39_8 C36_8 1_555 1_555
O40_8 C37_8 1_555 1_555
O41_8 C38_8 1_555 1_555
O42_8 C39_8 1_555 1_555
C39_8 C42_8 1_555 1_555
O44_8 C40_8 1_555 1_555
O45_8 C41_8 1_555 1_555
C40_8 C43_8 1_555 1_555
C41_8 C44_8 1_555 1_555
C42_8 C45_8 1_555 1_555
O51_4 C46_8 1_555 1_555
O49 C47_8 1_555 1_555
O50_4 C48_8 1_555 1_555
O47 H95_7 1_555 1_555
O46_6 H96_9 1_555 1_555
O21_4 H89_17 1_555 1_555
O20_4 H90_13 1_555 1_555
O15_4 H91_13 1_555 1_555
O16_4 H92_17 1_555 1_555
O10_2 H93_10 1_555 1_555
O10_4 H94_8 1_555 1_555
Rb3_4 O2_8 1_555 1_555
O1_9 C1_9 1_555 1_555
C1_9 H1_9 1_555 1_555
O2_8 H2_8 1_555 1_555
C2_9 C1_9 1_555 1_555
H3_9 C2_9 1_555 1_555
O3_8 Rb3_4 1_555 1_555
H4_8 O3_8 1_555 1_555
C3_9 C2_9 1_555 1_555
H5_9 C3_9 1_555 1_555
O4_9 C4_9 1_555 1_555
C4_9 C3_9 1_555 1_555
H6_9 C4_9 1_555 1_555
C5_9 O1_9 1_555 1_555
H7_9 C5_9 1_555 1_555
O5_9 H8_9 1_555 1_555
C6_9 C5_9 1_555 1_555
H9_9 C6_9 1_555 1_555
H10_9 C6_9 1_555 1_555
O33_2 C7_9 1_555 1_555
C7_9 O4_9 1_555 1_555
H11_9 C7_9 1_555 1_555
O7_9 H12_9 1_555 1_555
C8_9 C7_9 1_555 1_555
H13_9 C8_9 1_555 1_555
O8_9 H14_9 1_555 1_555
C9_9 C8_9 1_555 1_555
H15_9 C9_9 1_555 1_555
O9_9 C1_9 1_555 1_555
C10_9 C9_9 1_555 1_555
H16_9 C10_9 1_555 1_555
C11_9 O33_2 1_555 1_555
H17_9 C11_9 1_555 1_555
C12_9 C11_9 1_555 1_555
H19_9 C12_9 1_555 1_555
H20_9 C12_9 1_555 1_555
Rb3_8 O14_8 1_555 1_555
O11_9 C13_9 1_555 1_555
O12_9 C14_9 1_555 1_555
O13_9 C15_9 1_555 1_555
C13_9 H21_9 1_555 1_555
C14_9 H22_9 1_555 1_555
C15_9 H23_9 1_555 1_555
O14_8 H24_8 1_555 1_555
C16_9 C13_9 1_555 1_555
C17_9 C14_9 1_555 1_555
C18_9 C15_9 1_555 1_555
H29_9 C16_9 1_555 1_555
H30_9 C17_9 1_555 1_555
H31_9 C18_9 1_555 1_555
O19_8 Rb3_8 1_555 1_555
H32_8 O19_8 1_555 1_555
C19_9 C16_9 1_555 1_555
C20_9 C17_9 1_555 1_555
C21_9 C18_9 1_555 1_555
H37_9 C19_9 1_555 1_555
H38_9 C20_9 1_555 1_555
H39_9 C21_9 1_555 1_555
O24_9 C22_9 1_555 1_555
O25_9 C23_9 1_555 1_555
O26_9 C24_9 1_555 1_555
C22_9 C19_9 1_555 1_555
C23_9 C20_9 1_555 1_555
C24_9 C21_9 1_555 1_555
H40_9 C24_9 1_555 1_555
H41_9 C23_9 1_555 1_555
H42_9 C22_9 1_555 1_555
C25_9 O11_9 1_555 1_555
C26_9 O12_9 1_555 1_555
C27_9 O13_9 1_555 1_555
H43_9 C27_9 1_555 1_555
H44_9 C26_9 1_555 1_555
H45_9 C25_9 1_555 1_555
O27_9 H46_9 1_555 1_555
O28_9 H47_9 1_555 1_555
O29_9 H48_9 1_555 1_555
C28_9 C27_9 1_555 1_555
C29_9 C26_9 1_555 1_555
C30_9 C25_9 1_555 1_555
H49_9 C28_9 1_555 1_555
H50_9 C29_9 1_555 1_555
H51_9 C30_9 1_555 1_555
H52_9 C28_9 1_555 1_555
H53_9 C29_9 1_555 1_555
H54_9 C30_9 1_555 1_555
O33_4 C31_9 1_555 1_555
O33_5 C32_9 1_555 1_555
O34_6 C33_9 1_555 1_555
C31_9 O24_9 1_555 1_555
C32_9 O25_9 1_555 1_555
C33_9 O26_9 1_555 1_555
H55_9 C31_9 1_555 1_555
H56_9 C32_9 1_555 1_555
H57_9 C33_9 1_555 1_555
O37_9 H58_9 1_555 1_555
O38_9 H59_9 1_555 1_555
O39_9 H60_9 1_555 1_555
C34_9 C31_9 1_555 1_555
C35_9 C32_9 1_555 1_555
C36_9 C33_9 1_555 1_555
H61_9 C34_9 1_555 1_555
H62_9 C35_9 1_555 1_555
H63_9 C36_9 1_555 1_555
O40_9 H64_9 1_555 1_555
O41_9 H65_9 1_555 1_555
O42_9 H66_9 1_555 1_555
C37_9 C34_9 1_555 1_555
C38_9 C35_9 1_555 1_555
C39_9 C36_9 1_555 1_555
H67_9 C37_9 1_555 1_555
H68_9 C38_9 1_555 1_555
H69_9 C39_9 1_555 1_555
O43_9 C10_9 1_555 1_555
O44_9 C14_9 1_555 1_555
O45_9 C15_9 1_555 1_555
C40_9 C37_9 1_555 1_555
C41_9 C38_9 1_555 1_555
C42_9 O9_9 1_555 1_555
H70_9 C42_9 1_555 1_555
H71_9 C41_9 1_555 1_555
H72_9 C40_9 1_555 1_555
C43_9 O33_4 1_555 1_555
C44_9 O33_5 1_555 1_555
C45_9 O34_6 1_555 1_555
H73_9 C45_9 1_555 1_555
H74_9 C44_9 1_555 1_555
H75_9 C43_9 1_555 1_555
C46_9 C45_9 1_555 1_555
C47_9 C44_9 1_555 1_555
C48_9 C43_9 1_555 1_555
H83_9 C46_9 1_555 1_555
H84_9 C47_9 1_555 1_555
H85_9 C48_9 1_555 1_555
H86_9 C46_9 1_555 1_555
H87_9 C47_9 1_555 1_555
H88_9 C48_9 1_555 1_555
O2_8 C2_9 1_555 1_555
O3_8 C3_9 1_555 1_555
C4_9 C5_9 1_555 1_555
O5_9 C6_9 1_555 1_555
O7_9 C8_9 1_555 1_555
O8_9 C9_9 1_555 1_555
C10_9 C11_9 1_555 1_555
O49_2 C12_9 1_555 1_555
C13_9 O43_9 1_555 1_555
O14_8 C16_9 1_555 1_555
O18_4 C17_9 1_555 1_555
O17_6 C18_9 1_555 1_555
O19_8 C19_9 1_555 1_555
O23_4 C20_9 1_555 1_555
O22_6 C21_9 1_555 1_555
C22_9 C25_9 1_555 1_555
C23_9 C26_9 1_555 1_555
C24_9 C27_9 1_555 1_555
O27_9 C28_9 1_555 1_555
O28_9 C29_9 1_555 1_555
O29_9 C30_9 1_555 1_555
O37_9 C34_9 1_555 1_555
O38_9 C35_9 1_555 1_555
O39_9 C36_9 1_555 1_555
O40_9 C37_9 1_555 1_555
O41_9 C38_9 1_555 1_555
O42_9 C39_9 1_555 1_555
C39_9 C42_9 1_555 1_555
O44_9 C40_9 1_555 1_555
O45_9 C41_9 1_555 1_555
C40_9 C43_9 1_555 1_555
C41_9 C44_9 1_555 1_555
C42_9 C45_9 1_555 1_555
O50_6 C46_9 1_555 1_555
O49_5 C47_9 1_555 1_555
O49_4 C48_9 1_555 1_555
O47_5 H95_8 1_555 1_555
O47_4 H96_10 1_555 1_555
Rb4_3 O2_9 1_555 1_555
O1_10 C1_10 1_555 1_555
C1_10 H1_10 1_555 1_555
O2_9 H2_9 1_555 1_555
C2_10 C1_10 1_555 1_555
H3_10 C2_10 1_555 1_555
O3_9 Rb4_3 1_555 1_555
H4_9 O3_9 1_555 1_555
C3_10 C2_10 1_555 1_555
H5_10 C3_10 1_555 1_555
O4_10 C4_10 1_555 1_555
C4_10 C3_10 1_555 1_555
H6_10 C4_10 1_555 1_555
C5_10 O1_10 1_555 1_555
H7_10 C5_10 1_555 1_555
O5_10 H8_10 1_555 1_555
C6_10 C5_10 1_555 1_555
H9_10 C6_10 1_555 1_555
H10_10 C6_10 1_555 1_555
O35_3 C7_10 1_555 1_555
C7_10 O4_10 1_555 1_555
H11_10 C7_10 1_555 1_555
O7_10 H12_10 1_555 1_555
C8_10 C7_10 1_555 1_555
H13_10 C8_10 1_555 1_555
O8_10 H14_10 1_555 1_555
C9_10 C8_10 1_555 1_555
H15_10 C9_10 1_555 1_555
O9_10 C1_10 1_555 1_555
C10_10 C9_10 1_555 1_555
H16_10 C10_10 1_555 1_555
C11_10 O35_3 1_555 1_555
H17_10 C11_10 1_555 1_555
C12_10 C11_10 1_555 1_555
H19_10 C12_10 1_555 1_555
H20_10 C12_10 1_555 1_555
Rb4 O14_9 1_555 1_555
Rb8 O15_6 1_555 1_555
Rb8_3 O16_6 1_555 1_555
O11_10 C13_10 1_555 1_555
O12_10 C14_10 1_555 1_555
O13_10 C15_10 1_555 1_555
C13_10 H21_10 1_555 1_555
C14_10 H22_10 1_555 1_555
C15_10 H23_10 1_555 1_555
O14_9 H24_9 1_555 1_555
O15_6 H25_6 1_555 1_555
O16_6 H26_6 1_555 1_555
C16_10 C13_10 1_555 1_555
C17_10 C14_10 1_555 1_555
C18_10 C15_10 1_555 1_555
H29_10 C16_10 1_555 1_555
H30_10 C17_10 1_555 1_555
H31_10 C18_10 1_555 1_555
O19_9 Rb4 1_555 1_555
O20_6 Rb8 1_555 1_555
O21_6 Rb8_3 1_555 1_555
H32_9 O19_9 1_555 1_555
H33_6 O20_6 1_555 1_555
H34_6 O21_6 1_555 1_555
C19_10 C16_10 1_555 1_555
C20_10 C17_10 1_555 1_555
C21_10 C18_10 1_555 1_555
H37_10 C19_10 1_555 1_555
H38_10 C20_10 1_555 1_555
H39_10 C21_10 1_555 1_555
O24_10 C22_10 1_555 1_555
O25_10 C23_10 1_555 1_555
O26_10 C24_10 1_555 1_555
C22_10 C19_10 1_555 1_555
C23_10 C20_10 1_555 1_555
C24_10 C21_10 1_555 1_555
H40_10 C24_10 1_555 1_555
H41_10 C23_10 1_555 1_555
H42_10 C22_10 1_555 1_555
C25_10 O11_10 1_555 1_555
C26_10 O12_10 1_555 1_555
C27_10 O13_10 1_555 1_555
H43_10 C27_10 1_555 1_555
H44_10 C26_10 1_555 1_555
H45_10 C25_10 1_555 1_555
O27_10 H46_10 1_555 1_555
O28_10 H47_10 1_555 1_555
O29_10 H48_10 1_555 1_555
C28_10 C27_10 1_555 1_555
C29_10 C26_10 1_555 1_555
C30_10 C25_10 1_555 1_555
H49_10 C28_10 1_555 1_555
H50_10 C29_10 1_555 1_555
H51_10 C30_10 1_555 1_555
H52_10 C28_10 1_555 1_555
H53_10 C29_10 1_555 1_555
H54_10 C30_10 1_555 1_555
O34_5 C31_10 1_555 1_555
O34_3 C32_10 1_555 1_555
O35_5 C33_10 1_555 1_555
C31_10 O24_10 1_555 1_555
C32_10 O25_10 1_555 1_555
C33_10 O26_10 1_555 1_555
H55_10 C31_10 1_555 1_555
H56_10 C32_10 1_555 1_555
H57_10 C33_10 1_555 1_555
O37_10 H58_10 1_555 1_555
O38_10 H59_10 1_555 1_555
O39_10 H60_10 1_555 1_555
C34_10 C31_10 1_555 1_555
C35_10 C32_10 1_555 1_555
C36_10 C33_10 1_555 1_555
H61_10 C34_10 1_555 1_555
H62_10 C35_10 1_555 1_555
H63_10 C36_10 1_555 1_555
O40_10 H64_10 1_555 1_555
O41_10 H65_10 1_555 1_555
O42_10 H66_10 1_555 1_555
C37_10 C34_10 1_555 1_555
C38_10 C35_10 1_555 1_555
C39_10 C36_10 1_555 1_555
H67_10 C37_10 1_555 1_555
H68_10 C38_10 1_555 1_555
H69_10 C39_10 1_555 1_555
O43_10 C10_10 1_555 1_555
O44_10 C14_10 1_555 1_555
O45_10 C15_10 1_555 1_555
C40_10 C37_10 1_555 1_555
C41_10 C38_10 1_555 1_555
C42_10 O9_10 1_555 1_555
H70_10 C42_10 1_555 1_555
H71_10 C41_10 1_555 1_555
H72_10 C40_10 1_555 1_555
C43_10 O34_5 1_555 1_555
C44_10 O34_3 1_555 1_555
C45_10 O35_5 1_555 1_555
H73_10 C45_10 1_555 1_555
H74_10 C44_10 1_555 1_555
H75_10 C43_10 1_555 1_555
C46_10 C45_10 1_555 1_555
C47_10 C44_10 1_555 1_555
C48_10 C43_10 1_555 1_555
H83_10 C46_10 1_555 1_555
H84_10 C47_10 1_555 1_555
H85_10 C48_10 1_555 1_555
H86_10 C46_10 1_555 1_555
H87_10 C47_10 1_555 1_555
H88_10 C48_10 1_555 1_555
O2_9 C2_10 1_555 1_555
O3_9 C3_10 1_555 1_555
C4_10 C5_10 1_555 1_555
O5_10 C6_10 1_555 1_555
O7_10 C8_10 1_555 1_555
O8_10 C9_10 1_555 1_555
C10_10 C11_10 1_555 1_555
O51_3 C12_10 1_555 1_555
C13_10 O43_10 1_555 1_555
O14_9 C16_10 1_555 1_555
O15_6 C17_10 1_555 1_555
O16_6 C18_10 1_555 1_555
O19_9 C19_10 1_555 1_555
O20_6 C20_10 1_555 1_555
O21_6 C21_10 1_555 1_555
C22_10 C25_10 1_555 1_555
C23_10 C26_10 1_555 1_555
C24_10 C27_10 1_555 1_555
O27_10 C28_10 1_555 1_555
O28_10 C29_10 1_555 1_555
O29_10 C30_10 1_555 1_555
O37_10 C34_10 1_555 1_555
O38_10 C35_10 1_555 1_555
O39_10 C36_10 1_555 1_555
O40_10 C37_10 1_555 1_555
O41_10 C38_10 1_555 1_555
O42_10 C39_10 1_555 1_555
C39_10 C42_10 1_555 1_555
O44_10 C40_10 1_555 1_555
O45_10 C41_10 1_555 1_555
C40_10 C43_10 1_555 1_555
C41_10 C44_10 1_555 1_555
C42_10 C45_10 1_555 1_555
O51_5 C46_10 1_555 1_555
O50_3 C47_10 1_555 1_555
O50_5 C48_10 1_555 1_555
O48 H95_9 1_555 1_555
O48_2 H96_11 1_555 1_555
O17_8 Rb4_4 1_555 1_555
O18_6 Rb4_2 1_555 1_555
H27_8 O17_8 1_555 1_555
H28_6 O18_6 1_555 1_555
O22_8 Rb4_4 1_555 1_555
O23_6 Rb4_2 1_555 1_555
H35_8 O22_8 1_555 1_555
H36_6 O23_6 1_555 1_555
O22_8 H89_18 1_555 1_555
O23_6 H90_14 1_555 1_555
O18_6 H91_14 1_555 1_555
O17_8 H92_18 1_555 1_555
O48_3 H93_11 1_555 1_555
O46_2 H94_9 1_555 1_555
O19_6 H89_19 1_555 1_555
O3_6 H90_15 1_555 1_555
O2_6 H91_15 1_555 1_555
O14_6 H92_19 1_555 1_555
Rb6_5 O2_10 1_555 1_555
O1_11 C1_11 1_555 1_555
C1_11 H1_11 1_555 1_555
O2_10 H2_10 1_555 1_555
C2_11 C1_11 1_555 1_555
H3_11 C2_11 1_555 1_555
O3_10 Rb6_5 1_555 1_555
H4_10 O3_10 1_555 1_555
C3_11 C2_11 1_555 1_555
H5_11 C3_11 1_555 1_555
O4_11 C4_11 1_555 1_555
C4_11 C3_11 1_555 1_555
H6_11 C4_11 1_555 1_555
C5_11 O1_11 1_555 1_555
H7_11 C5_11 1_555 1_555
O5_11 H8_11 1_555 1_555
C6_11 C5_11 1_555 1_555
H9_11 C6_11 1_555 1_555
H10_11 C6_11 1_555 1_555
O36 C7_11 1_555 1_555
C7_11 O4_11 1_555 1_555
H11_11 C7_11 1_555 1_555
O7_11 H12_11 1_555 1_555
C8_11 C7_11 1_555 1_555
H13_11 C8_11 1_555 1_555
O8_11 H14_11 1_555 1_555
C9_11 C8_11 1_555 1_555
H15_11 C9_11 1_555 1_555
O9_11 C1_11 1_555 1_555
C10_11 C9_11 1_555 1_555
H16_11 C10_11 1_555 1_555
C11_11 O36 1_555 1_555
H17_11 C11_11 1_555 1_555
C12_11 C11_11 1_555 1_555
H19_11 C12_11 1_555 1_555
H20_11 C12_11 1_555 1_555
Rb3 O14_10 1_555 1_555
O11_11 C13_11 1_555 1_555
O12_11 C14_11 1_555 1_555
O13_11 C15_11 1_555 1_555
C13_11 H21_11 1_555 1_555
C14_11 H22_11 1_555 1_555
C15_11 H23_11 1_555 1_555
O14_10 H24_10 1_555 1_555
C16_11 C13_11 1_555 1_555
C17_11 C14_11 1_555 1_555
C18_11 C15_11 1_555 1_555
H29_11 C16_11 1_555 1_555
H30_11 C17_11 1_555 1_555
H31_11 C18_11 1_555 1_555
O19_10 Rb3 1_555 1_555
H32_10 O19_10 1_555 1_555
C19_11 C16_11 1_555 1_555
C20_11 C17_11 1_555 1_555
C21_11 C18_11 1_555 1_555
H37_11 C19_11 1_555 1_555
H38_11 C20_11 1_555 1_555
H39_11 C21_11 1_555 1_555
O24_11 C22_11 1_555 1_555
O25_11 C23_11 1_555 1_555
O26_11 C24_11 1_555 1_555
C22_11 C19_11 1_555 1_555
C23_11 C20_11 1_555 1_555
C24_11 C21_11 1_555 1_555
H40_11 C24_11 1_555 1_555
H41_11 C23_11 1_555 1_555
H42_11 C22_11 1_555 1_555
C25_11 O11_11 1_555 1_555
C26_11 O12_11 1_555 1_555
C27_11 O13_11 1_555 1_555
H43_11 C27_11 1_555 1_555
H44_11 C26_11 1_555 1_555
H45_11 C25_11 1_555 1_555
O27_11 H46_11 1_555 1_555
O28_11 H47_11 1_555 1_555
O29_11 H48_11 1_555 1_555
C28_11 C27_11 1_555 1_555
C29_11 C26_11 1_555 1_555
C30_11 C25_11 1_555 1_555
H49_11 C28_11 1_555 1_555
H50_11 C29_11 1_555 1_555
H51_11 C30_11 1_555 1_555
H52_11 C28_11 1_555 1_555
H53_11 C29_11 1_555 1_555
H54_11 C30_11 1_555 1_555
O33_6 C31_11 1_555 1_555
O36_3 C32_11 1_555 1_555
O34_7 C33_11 1_555 1_555
C31_11 O24_11 1_555 1_555
C32_11 O25_11 1_555 1_555
C33_11 O26_11 1_555 1_555
H55_11 C31_11 1_555 1_555
H56_11 C32_11 1_555 1_555
H57_11 C33_11 1_555 1_555
O37_11 H58_11 1_555 1_555
O38_11 H59_11 1_555 1_555
O39_11 H60_11 1_555 1_555
C34_11 C31_11 1_555 1_555
C35_11 C32_11 1_555 1_555
C36_11 C33_11 1_555 1_555
H61_11 C34_11 1_555 1_555
H62_11 C35_11 1_555 1_555
H63_11 C36_11 1_555 1_555
O40_11 H64_11 1_555 1_555
O41_11 H65_11 1_555 1_555
O42_11 H66_11 1_555 1_555
C37_11 C34_11 1_555 1_555
C38_11 C35_11 1_555 1_555
C39_11 C36_11 1_555 1_555
H67_11 C37_11 1_555 1_555
H68_11 C38_11 1_555 1_555
H69_11 C39_11 1_555 1_555
O43_11 C10_11 1_555 1_555
O44_11 C14_11 1_555 1_555
O45_11 C15_11 1_555 1_555
C40_11 C37_11 1_555 1_555
C41_11 C38_11 1_555 1_555
C42_11 O9_11 1_555 1_555
H70_11 C42_11 1_555 1_555
H71_11 C41_11 1_555 1_555
H72_11 C40_11 1_555 1_555
C43_11 O33_6 1_555 1_555
C44_11 O36_3 1_555 1_555
C45_11 O34_7 1_555 1_555
H73_11 C45_11 1_555 1_555
H74_11 C44_11 1_555 1_555
H75_11 C43_11 1_555 1_555
C46_11 C45_11 1_555 1_555
C47_11 C44_11 1_555 1_555
C48_11 C43_11 1_555 1_555
H83_11 C46_11 1_555 1_555
H84_11 C47_11 1_555 1_555
H85_11 C48_11 1_555 1_555
H86_11 C46_11 1_555 1_555
H87_11 C47_11 1_555 1_555
H88_11 C48_11 1_555 1_555
O2_10 C2_11 1_555 1_555
O3_10 C3_11 1_555 1_555
C4_11 C5_11 1_555 1_555
O5_11 C6_11 1_555 1_555
O7_11 C8_11 1_555 1_555
O8_11 C9_11 1_555 1_555
C10_11 C11_11 1_555 1_555
O52 C12_11 1_555 1_555
C13_11 O43_11 1_555 1_555
O14_10 C16_11 1_555 1_555
O18_5 C17_11 1_555 1_555
O17_7 C18_11 1_555 1_555
O19_10 C19_11 1_555 1_555
O23_5 C20_11 1_555 1_555
O22_7 C21_11 1_555 1_555
C22_11 C25_11 1_555 1_555
C23_11 C26_11 1_555 1_555
C24_11 C27_11 1_555 1_555
O27_11 C28_11 1_555 1_555
O28_11 C29_11 1_555 1_555
O29_11 C30_11 1_555 1_555
O37_11 C34_11 1_555 1_555
O38_11 C35_11 1_555 1_555
O39_11 C36_11 1_555 1_555
O40_11 C37_11 1_555 1_555
O41_11 C38_11 1_555 1_555
O42_11 C39_11 1_555 1_555
C39_11 C42_11 1_555 1_555
O44_11 C40_11 1_555 1_555
O45_11 C41_11 1_555 1_555
C40_11 C43_11 1_555 1_555
C41_11 C44_11 1_555 1_555
C42_11 C45_11 1_555 1_555
O50_7 C46_11 1_555 1_555
O52_3 C47_11 1_555 1_555
O49_6 C48_11 1_555 1_555
O10 H95_10 1_555 1_555
O48_4 H96_12 1_555 1_555
O21_5 H89_20 1_555 1_555
O20_5 H90_16 1_555 1_555
O15_5 H91_16 1_555 1_555
O16_5 H92_20 1_555 1_555
O47_3 H93_12 1_555 1_555
O46_4 H94_10 1_555 1_555
O46_3 H96_13 1_555 1_555
O17_9 Rb8_4 1_555 1_555
H27_9 O17_9 1_555 1_555
O22_9 Rb8_4 1_555 1_555
H35_9 O22_9 1_555 1_555
O22_9 H89_21 1_555 1_555
O17_9 H92_21 1_555 1_555
O48_5 H93_13 1_555 1_555
O19_7 H89_22 1_555 1_555
O3_7 H90_17 1_555 1_555
O2_7 H91_17 1_555 1_555
O14_7 H92_22 1_555 1_555
O19_8 H89_23 1_555 1_555
O3_8 H90_18 1_555 1_555
O2_8 H91_18 1_555 1_555
O14_8 H92_23 1_555 1_555
O46_5 H96_14 1_555 1_555
O17_10 Rb8_2 1_555 1_555
H27_10 O17_10 1_555 1_555
O22_10 Rb8_2 1_555 1_555
H35_10 O22_10 1_555 1_555
O22_10 H89_24 1_555 1_555
O17_10 H92_24 1_555 1_555
O46 H93_14 1_555 1_555
O19_10 H89_25 1_555 1_555
O3_10 H90_19 1_555 1_555
O2_10 H91_19 1_555 1_555
O14_10 H92_25 1_555 1_555
O19_9 H89_26 1_555 1_555
O3_9 H90_20 1_555 1_555
O2_9 H91_20 1_555 1_555
O14_9 H92_26 1_555 1_555
O1_12 C1_12 1_555 1_555
C1_12 H1_12 1_555 1_555
C2_12 C1_12 1_555 1_555
H3_12 C2_12 1_555 1_555
C3_12 C2_12 1_555 1_555
H5_12 C3_12 1_555 1_555
O4_12 C4_12 1_555 1_555
C4_12 C3_12 1_555 1_555
H6_12 C4_12 1_555 1_555
C5_12 O1_12 1_555 1_555
H7_12 C5_12 1_555 1_555
O5_12 H8_12 1_555 1_555
C6_12 C5_12 1_555 1_555
H9_12 C6_12 1_555 1_555
H10_12 C6_12 1_555 1_555
O35 C7_12 1_555 1_555
C7_12 O4_12 1_555 1_555
H11_12 C7_12 1_555 1_555
O7_12 H12_12 1_555 1_555
C8_12 C7_12 1_555 1_555
H13_12 C8_12 1_555 1_555
O8_12 H14_12 1_555 1_555
C9_12 C8_12 1_555 1_555
H15_12 C9_12 1_555 1_555
O9_12 C1_12 1_555 1_555
C10_12 C9_12 1_555 1_555
H16_12 C10_12 1_555 1_555
C11_12 O35 1_555 1_555
H17_12 C11_12 1_555 1_555
C12_12 C11_12 1_555 1_555
H19_12 C12_12 1_555 1_555
H20_12 C12_12 1_555 1_555
O11_12 C13_12 1_555 1_555
O12_12 C14_12 1_555 1_555
O13_12 C15_12 1_555 1_555
C13_12 H21_12 1_555 1_555
C14_12 H22_12 1_555 1_555
C15_12 H23_12 1_555 1_555
C16_12 C13_12 1_555 1_555
C17_12 C14_12 1_555 1_555
C18_12 C15_12 1_555 1_555
H29_12 C16_12 1_555 1_555
H30_12 C17_12 1_555 1_555
H31_12 C18_12 1_555 1_555
C19_12 C16_12 1_555 1_555
C20_12 C17_12 1_555 1_555
C21_12 C18_12 1_555 1_555
H37_12 C19_12 1_555 1_555
H38_12 C20_12 1_555 1_555
H39_12 C21_12 1_555 1_555
O24_12 C22_12 1_555 1_555
O25_12 C23_12 1_555 1_555
O26_12 C24_12 1_555 1_555
C22_12 C19_12 1_555 1_555
C23_12 C20_12 1_555 1_555
C24_12 C21_12 1_555 1_555
H40_12 C24_12 1_555 1_555
H41_12 C23_12 1_555 1_555
H42_12 C22_12 1_555 1_555
C25_12 O11_12 1_555 1_555
C26_12 O12_12 1_555 1_555
C27_12 O13_12 1_555 1_555
H43_12 C27_12 1_555 1_555
H44_12 C26_12 1_555 1_555
H45_12 C25_12 1_555 1_555
O27_12 H46_12 1_555 1_555
O28_12 H47_12 1_555 1_555
O29_12 H48_12 1_555 1_555
C28_12 C27_12 1_555 1_555
C29_12 C26_12 1_555 1_555
C30_12 C25_12 1_555 1_555
H49_12 C28_12 1_555 1_555
H50_12 C29_12 1_555 1_555
H51_12 C30_12 1_555 1_555
H52_12 C28_12 1_555 1_555
H53_12 C29_12 1_555 1_555
H54_12 C30_12 1_555 1_555
O35_2 C31_12 1_555 1_555
O34 C32_12 1_555 1_555
O34_2 C33_12 1_555 1_555
C31_12 O24_12 1_555 1_555
C32_12 O25_12 1_555 1_555
C33_12 O26_12 1_555 1_555
H55_12 C31_12 1_555 1_555
H56_12 C32_12 1_555 1_555
H57_12 C33_12 1_555 1_555
O37_12 H58_12 1_555 1_555
O38_12 H59_12 1_555 1_555
O39_12 H60_12 1_555 1_555
C34_12 C31_12 1_555 1_555
C35_12 C32_12 1_555 1_555
C36_12 C33_12 1_555 1_555
H61_12 C34_12 1_555 1_555
H62_12 C35_12 1_555 1_555
H63_12 C36_12 1_555 1_555
O40_12 H64_12 1_555 1_555
O41_12 H65_12 1_555 1_555
O42_12 H66_12 1_555 1_555
C37_12 C34_12 1_555 1_555
C38_12 C35_12 1_555 1_555
C39_12 C36_12 1_555 1_555
H67_12 C37_12 1_555 1_555
H68_12 C38_12 1_555 1_555
H69_12 C39_12 1_555 1_555
O43_12 C10_12 1_555 1_555
O44_12 C14_12 1_555 1_555
O45_12 C15_12 1_555 1_555
C40_12 C37_12 1_555 1_555
C41_12 C38_12 1_555 1_555
C42_12 O9_12 1_555 1_555
H70_12 C42_12 1_555 1_555
H71_12 C41_12 1_555 1_555
H72_12 C40_12 1_555 1_555
C43_12 O35_2 1_555 1_555
C44_12 O34 1_555 1_555
C45_12 O34_2 1_555 1_555
H73_12 C45_12 1_555 1_555
H74_12 C44_12 1_555 1_555
H75_12 C43_12 1_555 1_555
C46_12 C45_12 1_555 1_555
C47_12 C44_12 1_555 1_555
C48_12 C43_12 1_555 1_555
H83_12 C46_12 1_555 1_555
H84_12 C47_12 1_555 1_555
H85_12 C48_12 1_555 1_555
H86_12 C46_12 1_555 1_555
H87_12 C47_12 1_555 1_555
H88_12 C48_12 1_555 1_555
O18_6 C2_12 1_555 1_555
O23_6 C3_12 1_555 1_555
C4_12 C5_12 1_555 1_555
O5_12 C6_12 1_555 1_555
O7_12 C8_12 1_555 1_555
O8_12 C9_12 1_555 1_555
C10_12 C11_12 1_555 1_555
O51 C12_12 1_555 1_555
C13_12 O43_12 1_555 1_555
O17_8 C16_12 1_555 1_555
O17_9 C17_12 1_555 1_555
O17_10 C18_12 1_555 1_555
O22_8 C19_12 1_555 1_555
O22_9 C20_12 1_555 1_555
O22_10 C21_12 1_555 1_555
C22_12 C25_12 1_555 1_555
C23_12 C26_12 1_555 1_555
C24_12 C27_12 1_555 1_555
O27_12 C28_12 1_555 1_555
O28_12 C29_12 1_555 1_555
O29_12 C30_12 1_555 1_555
O37_12 C34_12 1_555 1_555
O38_12 C35_12 1_555 1_555
O39_12 C36_12 1_555 1_555
O40_12 C37_12 1_555 1_555
O41_12 C38_12 1_555 1_555
O42_12 C39_12 1_555 1_555
C39_12 C42_12 1_555 1_555
O44_12 C40_12 1_555 1_555
O45_12 C41_12 1_555 1_555
C40_12 C43_12 1_555 1_555
C41_12 C44_12 1_555 1_555
C42_12 C45_12 1_555 1_555
O50_2 C46_12 1_555 1_555
O50 C47_12 1_555 1_555
O51_2 C48_12 1_555 1_555
O20_6 H89_27 1_555 1_555
O15_6 H92_27 1_555 1_555
O21_6 H89_28 1_555 1_555
O16_6 H92_28 1_555 1_555
O53 H97 1_555 1_555
O53_2 H97_2 1_555 1_555
O53_3 H97_3 1_555 1_555
O53_4 H97_4 1_555 1_555
O53_5 H97_5 1_555 1_555
O53_6 H97_6 1_555 1_555
O53_7 H97_7 1_555 1_555
O53_8 H97_8 1_555 1_555
O53_9 H97_9 1_555 1_555
O53_10 H97_10 1_555 1_555
O53_11 H97_11 1_555 1_555
O53_12 H97_12 1_555 1_555
O53_13 H97_13 1_555 1_555
O53_14 H97_14 1_555 1_555
O53_15 H97_15 1_555 1_555
O53_16 H97_16 1_555 1_555
O53_17 H97_17 1_555 1_555
O53_18 H97_18 1_555 1_555
O53_19 H97_19 1_555 1_555
O53_20 H97_20 1_555 1_555
O53_21 H97_21 1_555 1_555
O53_22 H97_22 1_555 1_555
O53_23 H97_23 1_555 1_555
O53_24 H97_24 1_555 1_555
O53_25 H97_25 1_555 1_555
O53_25 H97_26 1_555 1_555
O53_26 H97_27 1_555 1_555
O53_26 H97_28 1_555 1_555
O53_27 H97_29 1_555 1_555
O53_27 H97_30 1_555 1_555
O53_28 H97_31 1_555 1_555
O53_28 H97_32 1_555 1_555
O53_29 H97_33 1_555 1_555
O53_29 H97_34 1_555 1_555
O53_30 H97_35 1_555 1_555
O53_30 H97_36 1_555 1_555
O53_31 H97_37 1_555 1_555
O53_31 H97_38 1_555 1_555
O53_32 H97_39 1_555 1_555
O53_32 H97_40 1_555 1_555
O53_33 H97_41 1_555 1_555
O53_33 H97_42 1_555 1_555
O53_34 H97_43 1_555 1_555
O53_34 H97_44 1_555 1_555
O53_35 H97_45 1_555 1_555
O53_35 H97_46 1_555 1_555
O53_36 H97_47 1_555 1_555
O53_36 H97_48 1_555 1_555
O53_37 H97_49 1_555 1_555
O53_37 H97_50 1_555 1_555
O53_38 H97_51 1_555 1_555
O53_38 H97_52 1_555 1_555
O53_39 H97_53 1_555 1_555
O53_39 H97_54 1_555 1_555
O53_40 H97_55 1_555 1_555
O53_40 H97_56 1_555 1_555
O53_41 H97_57 1_555 1_555
O53_41 H97_58 1_555 1_555
O53_42 H97_59 1_555 1_555
O53_42 H97_60 1_555 1_555
O53_43 H97_61 1_555 1_555
O53_43 H97_62 1_555 1_555
O53_44 H97_63 1_555 1_555
O53_44 H97_64 1_555 1_555
O53_45 H97_65 1_555 1_555
O53_45 H97_66 1_555 1_555
O53_46 H97_67 1_555 1_555
O53_46 H97_68 1_555 1_555
O53_47 H97_69 1_555 1_555
O53_47 H97_70 1_555 1_555
O53_48 H97_71 1_555 1_555
O53_48 H97_72 1_555 1_555

#END
