
###############################################################################
#
# This file contains modified crystal structure data generated from the
# MOF subset of the Cambridge Structural Database (CSD) v543 
# hosted by the Cambridge Crystallographic Data Centre (CCDC).
#
# This work is licensed under the Creative Commons
# Attribution-NonCommercial-ShareAlike 4.0 International License.
# To view a copy of this license, visit
# http://creativecommons.org/licenses/by-nc-sa/4.0/
# or send a letter to
# Creative Commons, PO Box 1866, Mountain View, CA 94042, USA.
#
# CIF created using the CSD Python API on 29 September 2022
# The structure has been converted into the P1 space group
# The structure has a 3D framework
# The original CSD entry LAJLAL is in the cubic crystal system
# The original CSD entry LAJLAL is in a Sohncke space group
# The framework has been calculated to contain at least 10.0% void space
# The void calculation uses a probe of radius 1.32A, grid spacing 0.4
# The framework is charged, counterions have been retained in the structure
# H atom positions have been added when not included in the experimental data
#
###############################################################################

data_LAJLAL
_chemical_formula_moiety         '(C576 H1152 K20 O528 28-)n'
_symmetry_cell_setting           triclinic
_symmetry_space_group_name_H-M   'P 1'
_symmetry_Int_Tables_number      1
_space_group_name_Hall           'P 1'
loop_
_symmetry_equiv_pos_site_id
_symmetry_equiv_pos_as_xyz
1 x,y,z
_cell_length_a                   31.006(8)
_cell_length_b                   31.006(8)
_cell_length_c                   31.006(8)
_cell_angle_alpha                90
_cell_angle_beta                 90
_cell_angle_gamma                90
_cell_volume                     29808.3
loop_
_atom_site_label
_atom_site_type_symbol
_atom_site_fract_x
_atom_site_fract_y
_atom_site_fract_z
K4 K 0.31116(10) 0.68884(10) 0.0000
K5 K 0.18884(10) 0.5000 0.18884(10)
K6 K 0.0000 0.68884(10) 0.31116(10)
O12 O 0.1612(5) 0.6864(3) 0.1413(3)
C14 C 0.1807(9) 0.6532(4) 0.1251(3)
H22 H 0.2123 0.6591 0.1234
O15 O 0.1963(6) 0.5738(3) 0.1380(3)
H25 H 0.1939 0.5729 0.1065
C17 C 0.1720(4) 0.6047(3) 0.1532(3)
H30 H 0.1837 0.6104 0.1827
O20 O 0.1200(4) 0.5658(3) 0.1855(3)
H33 H 0.1275 0.5392 0.1702
C20 C 0.1280(6) 0.6008(3) 0.1593(2)
H38 H 0.1154 0.5937 0.1304
O25 O 0.0583(3) 0.63970(18) 0.17388(18)
C23 C 0.1044(6) 0.6474(2) 0.1756(3)
H41 H 0.1137 0.6552 0.2055
C26 C 0.1120(7) 0.6870(3) 0.1428(3)
H44 H 0.0989 0.6815 0.1138
O28 O 0.1083(9) 0.7315(6) 0.2085(9)
H47 H 0.1397 0.7293 0.2111
C29 C 0.0958(8) 0.7278(8) 0.1625(5)
H50 H 0.0640 0.7287 0.1602
H53 H 0.1076 0.7527 0.1464
O31 O 0.0145(2) 0.67720(19) 0.22199(19)
C32 C 0.0382(4) 0.6359(2) 0.2148(2)
H56 H 0.0616 0.6343 0.2369
O38 O 0.0367(5) 0.5594(5) 0.2091(4)
H59 H 0.0665 0.5653 0.2002
C35 C 0.0143(3) 0.6009(5) 0.2190(4)
H62 H 0.0041 0.5995 0.2495
O40 O 0.1960(6) 0.5650(4) 0.0539(4)
H64 H 0.1929 0.5742 0.0840
C37 C 0.1890(3) 0.6005(4) 0.0265(3)
H67 H 0.1583 0.5999 0.0166
O44 O 0.1654(4) 0.64230(17) 0.08445(18)
C40 C 0.1979(3) 0.6444(3) 0.0471(3)
H72 H 0.2277 0.6437 0.0596
C43 C 0.1940(3) 0.6826(3) 0.0213(3)
H75 H 0.1635 0.6859 0.0111
O48 O 0.2470(4) 0.7209(3) 0.0571(3)
H78 H 0.2515 0.7473 0.0740
C48 C 0.2079(5) 0.7208(11) 0.0413(7)
H85 H 0.2058 0.7445 0.0199
H88 H 0.1876 0.7276 0.0650
O8 O 0.0539(4) 0.5650(4) 0.8040(6)
H14 H 0.0840 0.5742 0.8071
C9 C 0.0265(3) 0.6005(4) 0.8110(3)
H15 H 0.0166 0.5999 0.8417
C10 C 0.0471(3) 0.6444(3) 0.8021(3)
H16 H 0.0596 0.6437 0.7723
C11 C 0.0213(3) 0.6826(3) 0.8060(3)
H17 H 0.0111 0.6859 0.8365
O10 O 0.0571(3) 0.7209(3) 0.7530(4)
H18 H 0.0740 0.7473 0.7485
C12 C 0.0413(7) 0.7208(11) 0.7921(5)
H19 H 0.0199 0.7445 0.7942
H20 H 0.0650 0.7276 0.8124
K2 K 0.18884(10) 0.5000 0.81116(10)
K3 K 0.0000 0.68884(10) 0.68884(10)
K4_2 K 0.31116(10) 0.68884(10) 1.0000
O11 O 0.1413(3) 0.6864(3) 0.8388(5)
C13 C 0.1251(3) 0.6532(4) 0.8193(9)
H21 H 0.1234 0.6591 0.7877
O14 O 0.1380(3) 0.5738(3) 0.8037(6)
O18 O 0.1963(6) 0.4262(3) 0.8620(3)
H24 H 0.1065 0.5729 0.8061
H28 H 0.1939 0.4271 0.8935
C16 C 0.1532(3) 0.6047(3) 0.8280(4)
H29 H 0.1827 0.6104 0.8163
O19 O 0.1855(3) 0.5658(3) 0.8800(4)
O23 O 0.1200(4) 0.4342(3) 0.8145(3)
H32 H 0.1702 0.5392 0.8725
H36 H 0.1275 0.4608 0.8298
C19 C 0.1593(2) 0.6008(3) 0.8720(6)
H37 H 0.1304 0.5937 0.8846
O24 O 0.17388(18) 0.63970(18) 0.9417(3)
C22 C 0.1756(3) 0.6474(2) 0.8956(6)
H42 H 0.2055 0.6552 0.8863
C25 C 0.1428(3) 0.6870(3) 0.8880(7)
H45 H 0.1138 0.6815 0.9011
O29 O 0.2085(9) 0.7315(6) 0.8917(9)
H48 H 0.2111 0.7293 0.8603
C30 C 0.1625(5) 0.7278(8) 0.9042(8)
H51 H 0.1602 0.7287 0.9360
H54 H 0.1464 0.7527 0.8924
O30 O 0.22199(19) 0.67720(19) 0.9855(2)
O35 O 0.27801(19) 0.5145(2) 0.82280(19)
O36 O 0.17720(19) 0.4855(2) 0.72199(19)
C31 C 0.2148(2) 0.6359(2) 0.9618(4)
H55 H 0.2369 0.6343 0.9384
O37 O 0.2091(4) 0.5594(5) 0.9633(5)
H58 H 0.2002 0.5653 0.9335
C34 C 0.2190(4) 0.6009(5) 0.9857(3)
H61 H 0.2495 0.5995 0.9959
O43 O 0.08445(18) 0.64230(17) 0.8346(4)
O51 O 0.2530(4) 0.4429(3) 0.7791(3)
O52 O 0.2209(3) 0.5571(3) 0.7470(4)
H81 H 0.2485 0.4260 0.7527
H82 H 0.2473 0.5740 0.7515
H89 H 0.225135 0.413824 0.855594
H91 H 0.124534 0.405154 0.827207
H94 H 0.197535 0.578235 0.741252
H95 H 0.258748 0.421765 0.802465
K6_2 K 1.0000 0.68884(10) 0.31116(10)
K7 K 0.81116(10) 0.5000 0.18884(10)
K8 K 0.68884(10) 0.68884(10) 0.0000
O13 O 0.8587(3) 0.6864(3) 0.1612(5)
C15 C 0.8749(3) 0.6532(4) 0.1807(9)
H23 H 0.8766 0.6591 0.2123
O16 O 0.8620(3) 0.5738(3) 0.1963(6)
H26 H 0.8935 0.5729 0.1939
C18 C 0.8468(3) 0.6047(3) 0.1720(4)
H31 H 0.8173 0.6104 0.1837
O21 O 0.8145(3) 0.5658(3) 0.1200(4)
H34 H 0.8298 0.5392 0.1275
C21 C 0.8407(2) 0.6008(3) 0.1280(6)
H39 H 0.8696 0.5937 0.1154
O26 O 0.82612(18) 0.63970(18) 0.0583(3)
C24 C 0.8244(3) 0.6474(2) 0.1044(6)
H40 H 0.7945 0.6552 0.1137
C27 C 0.8572(3) 0.6870(3) 0.1120(7)
H43 H 0.8862 0.6815 0.0989
O27 O 0.7915(9) 0.7315(6) 0.1083(9)
H46 H 0.7889 0.7293 0.1397
C28 C 0.8375(5) 0.7278(8) 0.0958(8)
H49 H 0.8398 0.7287 0.0640
H52 H 0.8536 0.7527 0.1076
O32 O 0.77801(19) 0.67720(19) 0.0145(2)
C33 C 0.7852(2) 0.6359(2) 0.0382(4)
H57 H 0.7631 0.6343 0.0616
O39 O 0.7909(4) 0.5594(5) 0.0367(5)
H60 H 0.7998 0.5653 0.0665
C36 C 0.7810(4) 0.6009(5) 0.0143(3)
H63 H 0.7505 0.5995 0.0041
O41 O 0.9461(4) 0.5650(4) 0.1960(6)
H65 H 0.9160 0.5742 0.1929
C38 C 0.9735(3) 0.6005(4) 0.1890(3)
H68 H 0.9834 0.5999 0.1583
O45 O 0.91555(18) 0.64230(17) 0.1654(4)
C41 C 0.9529(3) 0.6444(3) 0.1979(3)
H71 H 0.9404 0.6437 0.2277
C44 C 0.9787(3) 0.6826(3) 0.1940(3)
H74 H 0.9889 0.6859 0.1635
O47 O 0.9429(3) 0.7209(3) 0.2470(4)
H77 H 0.9260 0.7473 0.2515
C47 C 0.9587(7) 0.7208(11) 0.2079(5)
H84 H 0.9801 0.7445 0.2058
H87 H 0.9350 0.7276 0.1876
K1 K 0.81116(10) 0.5000 0.81116(10)
O1 O 0.8388(5) 0.6864(3) 0.8587(3)
C1 C 0.8193(9) 0.6532(4) 0.8749(3)
H1 H 0.7877 0.6591 0.8766
O2 O 0.8037(6) 0.5738(3) 0.8620(3)
H2 H 0.8061 0.5729 0.8935
C2 C 0.8280(4) 0.6047(3) 0.8468(3)
H3 H 0.8163 0.6104 0.8173
O3 O 0.8800(4) 0.5658(3) 0.8145(3)
H4 H 0.8725 0.5392 0.8298
C3 C 0.8720(6) 0.6008(3) 0.8407(2)
H5 H 0.8846 0.5937 0.8696
O4 O 0.9417(3) 0.63970(18) 0.82612(18)
C4 C 0.8956(6) 0.6474(2) 0.8244(3)
H6 H 0.8863 0.6552 0.7945
C5 C 0.8880(7) 0.6870(3) 0.8572(3)
H7 H 0.9011 0.6815 0.8862
O5 O 0.8917(9) 0.7315(6) 0.7915(9)
H8 H 0.8603 0.7293 0.7889
C6 C 0.9042(8) 0.7278(8) 0.8375(5)
H9 H 0.9360 0.7287 0.8398
H10 H 0.8924 0.7527 0.8536
O6 O 0.9855(2) 0.67720(19) 0.77801(19)
C7 C 0.9618(4) 0.6359(2) 0.7852(2)
H11 H 0.9384 0.6343 0.7631
O7 O 0.9633(5) 0.5594(5) 0.7909(4)
H12 H 0.9335 0.5653 0.7998
C8 C 0.9857(3) 0.6009(5) 0.7810(4)
H13 H 0.9959 0.5995 0.7505
O9 O 0.8346(4) 0.64230(17) 0.91555(18)
K3_2 K 1.0000 0.68884(10) 0.68884(10)
K8_2 K 0.68884(10) 0.68884(10) 1.0000
O17 O 0.8620(3) 0.4262(3) 0.8037(6)
H27 H 0.8935 0.4271 0.8061
O22 O 0.8145(3) 0.4342(3) 0.8800(4)
H35 H 0.8298 0.4608 0.8725
O33 O 0.82280(19) 0.5145(2) 0.72199(19)
O34 O 0.72199(19) 0.4855(2) 0.82280(19)
O42 O 0.8040(6) 0.5650(4) 0.9461(4)
H66 H 0.8071 0.5742 0.9160
C39 C 0.8110(3) 0.6005(4) 0.9735(3)
H69 H 0.8417 0.5999 0.9834
C42 C 0.8021(3) 0.6444(3) 0.9529(3)
H70 H 0.7723 0.6437 0.9404
C45 C 0.8060(3) 0.6826(3) 0.9787(3)
H73 H 0.8365 0.6859 0.9889
O46 O 0.7530(4) 0.7209(3) 0.9429(3)
O49 O 0.7791(3) 0.4429(3) 0.7470(4)
O50 O 0.7470(4) 0.5571(3) 0.7791(3)
H76 H 0.7485 0.7473 0.9260
H79 H 0.7527 0.4260 0.7515
H80 H 0.7515 0.5740 0.7527
C46 C 0.7921(5) 0.7208(11) 0.9587(7)
H83 H 0.7942 0.7445 0.9801
H86 H 0.8124 0.7276 0.9350
H90 H 0.855594 0.413824 0.774865
H92 H 0.827207 0.405154 0.875466
H96 H 0.802465 0.421765 0.741252
H97 H 0.741252 0.578235 0.802465
K4_3 K 0.31116(10) 0.31116(10) 0.0000
K5_2 K 0.5000 0.18884(10) 0.18884(10)
K6_3 K 0.31116(10) 0.0000 0.31116(10)
O12_2 O 0.3136(3) 0.1612(5) 0.1413(3)
C14_2 C 0.3468(4) 0.1807(9) 0.1251(3)
H22_2 H 0.3409 0.2123 0.1234
O15_2 O 0.4262(3) 0.1963(6) 0.1380(3)
H25_2 H 0.4271 0.1939 0.1065
C17_2 C 0.3953(3) 0.1720(4) 0.1532(3)
H30_2 H 0.3896 0.1837 0.1827
O20_2 O 0.4342(3) 0.1200(4) 0.1855(3)
H33_2 H 0.4608 0.1275 0.1702
C20_2 C 0.3992(3) 0.1280(6) 0.1593(2)
H38_2 H 0.4063 0.1154 0.1304
O25_2 O 0.36030(18) 0.0583(3) 0.17388(18)
C23_2 C 0.3526(2) 0.1044(6) 0.1756(3)
H41_2 H 0.3448 0.1137 0.2055
C26_2 C 0.3130(3) 0.1120(7) 0.1428(3)
H44_2 H 0.3185 0.0989 0.1138
O28_2 O 0.2685(6) 0.1083(9) 0.2085(9)
H47_2 H 0.2707 0.1397 0.2111
C29_2 C 0.2722(8) 0.0958(8) 0.1625(5)
H50_2 H 0.2713 0.0640 0.1602
H53_2 H 0.2473 0.1076 0.1464
O31_2 O 0.32280(19) 0.0145(2) 0.22199(19)
C32_2 C 0.3641(2) 0.0382(4) 0.2148(2)
H56_2 H 0.3657 0.0616 0.2369
O38_2 O 0.4406(5) 0.0367(5) 0.2091(4)
H59_2 H 0.4347 0.0665 0.2002
C35_2 C 0.3991(5) 0.0143(3) 0.2190(4)
H62_2 H 0.4005 0.0041 0.2495
O40_2 O 0.4350(4) 0.1960(6) 0.0539(4)
H64_2 H 0.4258 0.1929 0.0840
C37_2 C 0.3995(4) 0.1890(3) 0.0265(3)
H67_2 H 0.4001 0.1583 0.0166
O44_2 O 0.35770(17) 0.1654(4) 0.08445(18)
C40_2 C 0.3556(3) 0.1979(3) 0.0471(3)
H72_2 H 0.3563 0.2277 0.0596
C43_2 C 0.3174(3) 0.1940(3) 0.0213(3)
H75_2 H 0.3141 0.1635 0.0111
O48_2 O 0.2791(3) 0.2470(4) 0.0571(3)
H78_2 H 0.2527 0.2515 0.0740
C48_2 C 0.2792(11) 0.2079(5) 0.0413(7)
H85_2 H 0.2555 0.2058 0.0199
H88_2 H 0.2724 0.1876 0.0650
O8_2 O 0.4350(4) 0.0539(4) 0.8040(6)
H14_2 H 0.4258 0.0840 0.8071
C9_2 C 0.3995(4) 0.0265(3) 0.8110(3)
H15_2 H 0.4001 0.0166 0.8417
C10_2 C 0.3556(3) 0.0471(3) 0.8021(3)
H16_2 H 0.3563 0.0596 0.7723
C11_2 C 0.3174(3) 0.0213(3) 0.8060(3)
H17_2 H 0.3141 0.0111 0.8365
O10_2 O 0.2791(3) 0.0571(3) 0.7530(4)
H18_2 H 0.2527 0.0740 0.7485
C12_2 C 0.2792(11) 0.0413(7) 0.7921(5)
H19_2 H 0.2555 0.0199 0.7942
H20_2 H 0.2724 0.0650 0.8124
K2_2 K 0.5000 0.18884(10) 0.81116(10)
K3_3 K 0.31116(10) 0.0000 0.68884(10)
K4_4 K 0.31116(10) 0.31116(10) 1.0000
O11_2 O 0.3136(3) 0.1413(3) 0.8388(5)
C13_2 C 0.3468(4) 0.1251(3) 0.8193(9)
H21_2 H 0.3409 0.1234 0.7877
O14_2 O 0.4262(3) 0.1380(3) 0.8037(6)
O18_2 O 0.5738(3) 0.1963(6) 0.8620(3)
H24_2 H 0.4271 0.1065 0.8061
H28_2 H 0.5729 0.1939 0.8935
C16_2 C 0.3953(3) 0.1532(3) 0.8280(4)
H29_2 H 0.3896 0.1827 0.8163
O19_2 O 0.4342(3) 0.1855(3) 0.8800(4)
O23_2 O 0.5658(3) 0.1200(4) 0.8145(3)
H32_2 H 0.4608 0.1702 0.8725
H36_2 H 0.5392 0.1275 0.8298
C19_2 C 0.3992(3) 0.1593(2) 0.8720(6)
H37_2 H 0.4063 0.1304 0.8846
O24_2 O 0.36030(18) 0.17388(18) 0.9417(3)
C22_2 C 0.3526(2) 0.1756(3) 0.8956(6)
H42_2 H 0.3448 0.2055 0.8863
C25_2 C 0.3130(3) 0.1428(3) 0.8880(7)
H45_2 H 0.3185 0.1138 0.9011
O29_2 O 0.2685(6) 0.2085(9) 0.8917(9)
H48_2 H 0.2707 0.2111 0.8603
C30_2 C 0.2722(8) 0.1625(5) 0.9042(8)
H51_2 H 0.2713 0.1602 0.9360
H54_2 H 0.2473 0.1464 0.8924
O30_2 O 0.32280(19) 0.22199(19) 0.9855(2)
O35_2 O 0.4855(2) 0.27801(19) 0.82280(19)
O36_2 O 0.5145(2) 0.17720(19) 0.72199(19)
C31_2 C 0.3641(2) 0.2148(2) 0.9618(4)
H55_2 H 0.3657 0.2369 0.9384
O37_2 O 0.4406(5) 0.2091(4) 0.9633(5)
H58_2 H 0.4347 0.2002 0.9335
C34_2 C 0.3991(5) 0.2190(4) 0.9857(3)
H61_2 H 0.4005 0.2495 0.9959
O43_2 O 0.35770(17) 0.08445(18) 0.8346(4)
O51_2 O 0.5571(3) 0.2530(4) 0.7791(3)
O52_2 O 0.4429(3) 0.2209(3) 0.7470(4)
H81_2 H 0.5740 0.2485 0.7527
H82_2 H 0.4260 0.2473 0.7515
H89_2 H 0.586176 0.225135 0.855594
H91_2 H 0.594846 0.124534 0.827207
H94_2 H 0.421765 0.197535 0.741252
H95_2 H 0.578235 0.258748 0.802465
K6_4 K 0.31116(10) 1.0000 0.31116(10)
K7_2 K 0.5000 0.81116(10) 0.18884(10)
O13_2 O 0.3136(3) 0.8587(3) 0.1612(5)
C15_2 C 0.3468(4) 0.8749(3) 0.1807(9)
H23_2 H 0.3409 0.8766 0.2123
O16_2 O 0.4262(3) 0.8620(3) 0.1963(6)
H26_2 H 0.4271 0.8935 0.1939
C18_2 C 0.3953(3) 0.8468(3) 0.1720(4)
H31_2 H 0.3896 0.8173 0.1837
O21_2 O 0.4342(3) 0.8145(3) 0.1200(4)
H34_2 H 0.4608 0.8298 0.1275
C21_2 C 0.3992(3) 0.8407(2) 0.1280(6)
H39_2 H 0.4063 0.8696 0.1154
O26_2 O 0.36030(18) 0.82612(18) 0.0583(3)
C24_2 C 0.3526(2) 0.8244(3) 0.1044(6)
H40_2 H 0.3448 0.7945 0.1137
C27_2 C 0.3130(3) 0.8572(3) 0.1120(7)
H43_2 H 0.3185 0.8862 0.0989
O27_2 O 0.2685(6) 0.7915(9) 0.1083(9)
H46_2 H 0.2707 0.7889 0.1397
C28_2 C 0.2722(8) 0.8375(5) 0.0958(8)
H49_2 H 0.2713 0.8398 0.0640
H52_2 H 0.2473 0.8536 0.1076
O32_2 O 0.32280(19) 0.77801(19) 0.0145(2)
C33_2 C 0.3641(2) 0.7852(2) 0.0382(4)
H57_2 H 0.3657 0.7631 0.0616
O39_2 O 0.4406(5) 0.7909(4) 0.0367(5)
H60_2 H 0.4347 0.7998 0.0665
C36_2 C 0.3991(5) 0.7810(4) 0.0143(3)
H63_2 H 0.4005 0.7505 0.0041
O41_2 O 0.4350(4) 0.9461(4) 0.1960(6)
H65_2 H 0.4258 0.9160 0.1929
C38_2 C 0.3995(4) 0.9735(3) 0.1890(3)
H68_2 H 0.4001 0.9834 0.1583
O45_2 O 0.35770(17) 0.91555(18) 0.1654(4)
C41_2 C 0.3556(3) 0.9529(3) 0.1979(3)
H71_2 H 0.3563 0.9404 0.2277
C44_2 C 0.3174(3) 0.9787(3) 0.1940(3)
H74_2 H 0.3141 0.9889 0.1635
O47_2 O 0.2791(3) 0.9429(3) 0.2470(4)
H77_2 H 0.2527 0.9260 0.2515
C47_2 C 0.2792(11) 0.9587(7) 0.2079(5)
H84_2 H 0.2555 0.9801 0.2058
H87_2 H 0.2724 0.9350 0.1876
K1_2 K 0.5000 0.81116(10) 0.81116(10)
O1_2 O 0.3136(3) 0.8388(5) 0.8587(3)
C1_2 C 0.3468(4) 0.8193(9) 0.8749(3)
H1_2 H 0.3409 0.7877 0.8766
O2_2 O 0.4262(3) 0.8037(6) 0.8620(3)
H2_2 H 0.4271 0.8061 0.8935
C2_2 C 0.3953(3) 0.8280(4) 0.8468(3)
H3_2 H 0.3896 0.8163 0.8173
O3_2 O 0.4342(3) 0.8800(4) 0.8145(3)
H4_2 H 0.4608 0.8725 0.8298
C3_2 C 0.3992(3) 0.8720(6) 0.8407(2)
H5_2 H 0.4063 0.8846 0.8696
O4_2 O 0.36030(18) 0.9417(3) 0.82612(18)
C4_2 C 0.3526(2) 0.8956(6) 0.8244(3)
H6_2 H 0.3448 0.8863 0.7945
C5_2 C 0.3130(3) 0.8880(7) 0.8572(3)
H7_2 H 0.3185 0.9011 0.8862
O5_2 O 0.2685(6) 0.8917(9) 0.7915(9)
H8_2 H 0.2707 0.8603 0.7889
C6_2 C 0.2722(8) 0.9042(8) 0.8375(5)
H9_2 H 0.2713 0.9360 0.8398
H10_2 H 0.2473 0.8924 0.8536
O6_2 O 0.32280(19) 0.9855(2) 0.77801(19)
C7_2 C 0.3641(2) 0.9618(4) 0.7852(2)
H11_2 H 0.3657 0.9384 0.7631
O7_2 O 0.4406(5) 0.9633(5) 0.7909(4)
H12_2 H 0.4347 0.9335 0.7998
C8_2 C 0.3991(5) 0.9857(3) 0.7810(4)
H13_2 H 0.4005 0.9959 0.7505
O9_2 O 0.35770(17) 0.8346(4) 0.91555(18)
K3_4 K 0.31116(10) 1.0000 0.68884(10)
O17_2 O 0.5738(3) 0.8620(3) 0.8037(6)
H27_2 H 0.5729 0.8935 0.8061
O22_2 O 0.5658(3) 0.8145(3) 0.8800(4)
H35_2 H 0.5392 0.8298 0.8725
O33_2 O 0.4855(2) 0.82280(19) 0.72199(19)
O34_2 O 0.5145(2) 0.72199(19) 0.82280(19)
O42_2 O 0.4350(4) 0.8040(6) 0.9461(4)
H66_2 H 0.4258 0.8071 0.9160
C39_2 C 0.3995(4) 0.8110(3) 0.9735(3)
H69_2 H 0.4001 0.8417 0.9834
C42_2 C 0.3556(3) 0.8021(3) 0.9529(3)
H70_2 H 0.3563 0.7723 0.9404
C45_2 C 0.3174(3) 0.8060(3) 0.9787(3)
H73_2 H 0.3141 0.8365 0.9889
O46_2 O 0.2791(3) 0.7530(4) 0.9429(3)
O49_2 O 0.5571(3) 0.7791(3) 0.7470(4)
O50_2 O 0.4429(3) 0.7470(4) 0.7791(3)
H76_2 H 0.2527 0.7485 0.9260
H79_2 H 0.5740 0.7527 0.7515
H80_2 H 0.4260 0.7515 0.7527
C46_2 C 0.2792(11) 0.7921(5) 0.9587(7)
H83_2 H 0.2555 0.7942 0.9801
H86_2 H 0.2724 0.8124 0.9350
H90_2 H 0.586176 0.855594 0.774865
H92_2 H 0.594846 0.827207 0.875466
H96_2 H 0.578235 0.802465 0.741252
H97_2 H 0.421765 0.741252 0.802465
O8_3 O 0.0539(4) 0.4350(4) 0.1960(6)
H14_3 H 0.0840 0.4258 0.1929
C9_3 C 0.0265(3) 0.3995(4) 0.1890(3)
H15_3 H 0.0166 0.4001 0.1583
C10_3 C 0.0471(3) 0.3556(3) 0.1979(3)
H16_3 H 0.0596 0.3563 0.2277
C11_3 C 0.0213(3) 0.3174(3) 0.1940(3)
H17_3 H 0.0111 0.3141 0.1635
O10_3 O 0.0571(3) 0.2791(3) 0.2470(4)
H18_3 H 0.0740 0.2527 0.2515
C12_3 C 0.0413(7) 0.2792(11) 0.2079(5)
H19_3 H 0.0199 0.2555 0.2058
H20_3 H 0.0650 0.2724 0.1876
K3_5 K 0.0000 0.31116(10) 0.31116(10)
O11_3 O 0.1413(3) 0.3136(3) 0.1612(5)
C13_3 C 0.1251(3) 0.3468(4) 0.1807(9)
H21_3 H 0.1234 0.3409 0.2123
O14_3 O 0.1380(3) 0.4262(3) 0.1963(6)
H24_3 H 0.1065 0.4271 0.1939
C16_3 C 0.1532(3) 0.3953(3) 0.1720(4)
H29_3 H 0.1827 0.3896 0.1837
O19_3 O 0.1855(3) 0.4342(3) 0.1200(4)
H32_3 H 0.1702 0.4608 0.1275
C19_3 C 0.1593(2) 0.3992(3) 0.1280(6)
H37_3 H 0.1304 0.4063 0.1154
O24_3 O 0.17388(18) 0.36030(18) 0.0583(3)
C22_3 C 0.1756(3) 0.3526(2) 0.1044(6)
H42_3 H 0.2055 0.3448 0.1137
C25_3 C 0.1428(3) 0.3130(3) 0.1120(7)
H45_3 H 0.1138 0.3185 0.0989
O29_3 O 0.2085(9) 0.2685(6) 0.1083(9)
H48_3 H 0.2111 0.2707 0.1397
C30_3 C 0.1625(5) 0.2722(8) 0.0958(8)
H51_3 H 0.1602 0.2713 0.0640
H54_3 H 0.1464 0.2473 0.1076
O30_3 O 0.22199(19) 0.32280(19) 0.0145(2)
O35_3 O 0.27801(19) 0.4855(2) 0.17720(19)
O36_3 O 0.17720(19) 0.5145(2) 0.27801(19)
C31_3 C 0.2148(2) 0.3641(2) 0.0382(4)
H55_3 H 0.2369 0.3657 0.0616
O37_3 O 0.2091(4) 0.4406(5) 0.0367(5)
H58_3 H 0.2002 0.4347 0.0665
C34_3 C 0.2190(4) 0.3991(5) 0.0143(3)
H61_3 H 0.2495 0.4005 0.0041
O43_3 O 0.08445(18) 0.35770(17) 0.1654(4)
O51_3 O 0.2530(4) 0.5571(3) 0.2209(3)
O52_3 O 0.2209(3) 0.4429(3) 0.2530(4)
H81_3 H 0.2485 0.5740 0.2473
H82_3 H 0.2473 0.4260 0.2485
H89_3 H 0.225135 0.586176 0.144406
H91_3 H 0.124534 0.594846 0.172793
H94_3 H 0.197535 0.421765 0.258748
H95_3 H 0.258748 0.578235 0.197535
K6_5 K 0.0000 0.31116(10) 0.68884(10)
O12_3 O 0.1612(5) 0.3136(3) 0.8587(3)
C14_3 C 0.1807(9) 0.3468(4) 0.8749(3)
H22_3 H 0.2123 0.3409 0.8766
C17_3 C 0.1720(4) 0.3953(3) 0.8468(3)
H30_3 H 0.1837 0.3896 0.8173
C20_3 C 0.1280(6) 0.3992(3) 0.8407(2)
H38_3 H 0.1154 0.4063 0.8696
O25_3 O 0.0583(3) 0.36030(18) 0.82612(18)
C23_3 C 0.1044(6) 0.3526(2) 0.8244(3)
H41_3 H 0.1137 0.3448 0.7945
C26_3 C 0.1120(7) 0.3130(3) 0.8572(3)
H44_3 H 0.0989 0.3185 0.8862
O28_3 O 0.1083(9) 0.2685(6) 0.7915(9)
H47_3 H 0.1397 0.2707 0.7889
C29_3 C 0.0958(8) 0.2722(8) 0.8375(5)
H50_3 H 0.0640 0.2713 0.8398
H53_3 H 0.1076 0.2473 0.8536
O31_3 O 0.0145(2) 0.32280(19) 0.77801(19)
C32_3 C 0.0382(4) 0.3641(2) 0.7852(2)
H56_3 H 0.0616 0.3657 0.7631
O38_3 O 0.0367(5) 0.4406(5) 0.7909(4)
H59_3 H 0.0665 0.4347 0.7998
C35_3 C 0.0143(3) 0.3991(5) 0.7810(4)
H62_3 H 0.0041 0.4005 0.7505
O40_3 O 0.1960(6) 0.4350(4) 0.9461(4)
H64_3 H 0.1929 0.4258 0.9160
C37_3 C 0.1890(3) 0.3995(4) 0.9735(3)
H67_3 H 0.1583 0.4001 0.9834
O44_3 O 0.1654(4) 0.35770(17) 0.91555(18)
C40_3 C 0.1979(3) 0.3556(3) 0.9529(3)
H72_3 H 0.2277 0.3563 0.9404
C43_3 C 0.1940(3) 0.3174(3) 0.9787(3)
H75_3 H 0.1635 0.3141 0.9889
O48_3 O 0.2470(4) 0.2791(3) 0.9429(3)
H78_3 H 0.2515 0.2527 0.9260
C48_3 C 0.2079(5) 0.2792(11) 0.9587(7)
H85_3 H 0.2058 0.2555 0.9801
H88_3 H 0.1876 0.2724 0.9350
O1_3 O 0.8388(5) 0.3136(3) 0.1413(3)
C1_3 C 0.8193(9) 0.3468(4) 0.1251(3)
H1_3 H 0.7877 0.3409 0.1234
O2_3 O 0.8037(6) 0.4262(3) 0.1380(3)
H2_3 H 0.8061 0.4271 0.1065
C2_3 C 0.8280(4) 0.3953(3) 0.1532(3)
H3_3 H 0.8163 0.3896 0.1827
O3_3 O 0.8800(4) 0.4342(3) 0.1855(3)
H4_3 H 0.8725 0.4608 0.1702
C3_3 C 0.8720(6) 0.3992(3) 0.1593(2)
H5_3 H 0.8846 0.4063 0.1304
O4_3 O 0.9417(3) 0.36030(18) 0.17388(18)
C4_3 C 0.8956(6) 0.3526(2) 0.1756(3)
H6_3 H 0.8863 0.3448 0.2055
C5_3 C 0.8880(7) 0.3130(3) 0.1428(3)
H7_3 H 0.9011 0.3185 0.1138
O5_3 O 0.8917(9) 0.2685(6) 0.2085(9)
H8_3 H 0.8603 0.2707 0.2111
C6_3 C 0.9042(8) 0.2722(8) 0.1625(5)
H9_3 H 0.9360 0.2713 0.1602
H10_3 H 0.8924 0.2473 0.1464
O6_3 O 0.9855(2) 0.32280(19) 0.22199(19)
C7_3 C 0.9618(4) 0.3641(2) 0.2148(2)
H11_3 H 0.9384 0.3657 0.2369
O7_3 O 0.9633(5) 0.4406(5) 0.2091(4)
H12_3 H 0.9335 0.4347 0.2002
C8_3 C 0.9857(3) 0.3991(5) 0.2190(4)
H13_3 H 0.9959 0.4005 0.2495
O9_3 O 0.8346(4) 0.35770(17) 0.08445(18)
K3_6 K 1.0000 0.31116(10) 0.31116(10)
K8_3 K 0.68884(10) 0.31116(10) 0.0000
O33_3 O 0.82280(19) 0.4855(2) 0.27801(19)
O34_3 O 0.72199(19) 0.5145(2) 0.17720(19)
O42_3 O 0.8040(6) 0.4350(4) 0.0539(4)
H66_3 H 0.8071 0.4258 0.0840
C39_3 C 0.8110(3) 0.3995(4) 0.0265(3)
H69_3 H 0.8417 0.4001 0.0166
C42_3 C 0.8021(3) 0.3556(3) 0.0471(3)
H70_3 H 0.7723 0.3563 0.0596
C45_3 C 0.8060(3) 0.3174(3) 0.0213(3)
H73_3 H 0.8365 0.3141 0.0111
O46_3 O 0.7530(4) 0.2791(3) 0.0571(3)
O49_3 O 0.7791(3) 0.5571(3) 0.2530(4)
O50_3 O 0.7470(4) 0.4429(3) 0.2209(3)
H76_3 H 0.7485 0.2527 0.0740
H79_3 H 0.7527 0.5740 0.2485
H80_3 H 0.7515 0.4260 0.2473
C46_3 C 0.7921(5) 0.2792(11) 0.0413(7)
H83_3 H 0.7942 0.2555 0.0199
H86_3 H 0.8124 0.2724 0.0650
H90_3 H 0.855594 0.586176 0.225135
H92_3 H 0.827207 0.594846 0.124534
H96_3 H 0.802465 0.578235 0.258748
H97_3 H 0.741252 0.421765 0.197535
K6_6 K 1.0000 0.31116(10) 0.68884(10)
K8_4 K 0.68884(10) 0.31116(10) 1.0000
O13_3 O 0.8587(3) 0.3136(3) 0.8388(5)
C15_3 C 0.8749(3) 0.3468(4) 0.8193(9)
H23_3 H 0.8766 0.3409 0.7877
C18_3 C 0.8468(3) 0.3953(3) 0.8280(4)
H31_3 H 0.8173 0.3896 0.8163
C21_3 C 0.8407(2) 0.3992(3) 0.8720(6)
H39_3 H 0.8696 0.4063 0.8846
O26_3 O 0.82612(18) 0.36030(18) 0.9417(3)
C24_3 C 0.8244(3) 0.3526(2) 0.8956(6)
H40_3 H 0.7945 0.3448 0.8863
C27_3 C 0.8572(3) 0.3130(3) 0.8880(7)
H43_3 H 0.8862 0.3185 0.9011
O27_3 O 0.7915(9) 0.2685(6) 0.8917(9)
H46_3 H 0.7889 0.2707 0.8603
C28_3 C 0.8375(5) 0.2722(8) 0.9042(8)
H49_3 H 0.8398 0.2713 0.9360
H52_3 H 0.8536 0.2473 0.8924
O32_3 O 0.77801(19) 0.32280(19) 0.9855(2)
C33_3 C 0.7852(2) 0.3641(2) 0.9618(4)
H57_3 H 0.7631 0.3657 0.9384
O39_3 O 0.7909(4) 0.4406(5) 0.9633(5)
H60_3 H 0.7998 0.4347 0.9335
C36_3 C 0.7810(4) 0.3991(5) 0.9857(3)
H63_3 H 0.7505 0.4005 0.9959
O41_3 O 0.9461(4) 0.4350(4) 0.8040(6)
H65_3 H 0.9160 0.4258 0.8071
C38_3 C 0.9735(3) 0.3995(4) 0.8110(3)
H68_3 H 0.9834 0.4001 0.8417
O45_3 O 0.91555(18) 0.35770(17) 0.8346(4)
C41_3 C 0.9529(3) 0.3556(3) 0.8021(3)
H71_3 H 0.9404 0.3563 0.7723
C44_3 C 0.9787(3) 0.3174(3) 0.8060(3)
H74_3 H 0.9889 0.3141 0.8365
O47_3 O 0.9429(3) 0.2791(3) 0.7530(4)
H77_3 H 0.9260 0.2527 0.7485
C47_3 C 0.9587(7) 0.2792(11) 0.7921(5)
H84_3 H 0.9801 0.2555 0.7942
H87_3 H 0.9350 0.2724 0.8124
K5_3 K 0.18884(10) 0.18884(10) 0.5000
O12_4 O 0.1413(3) 0.1612(5) 0.6864(3)
C14_4 C 0.1251(3) 0.1807(9) 0.6532(4)
H22_4 H 0.1234 0.2123 0.6591
O15_3 O 0.1380(3) 0.1963(6) 0.5738(3)
H25_3 H 0.1065 0.1939 0.5729
C17_4 C 0.1532(3) 0.1720(4) 0.6047(3)
H30_4 H 0.1827 0.1837 0.6104
O20_3 O 0.1855(3) 0.1200(4) 0.5658(3)
H33_3 H 0.1702 0.1275 0.5392
C20_4 C 0.1593(2) 0.1280(6) 0.6008(3)
H38_4 H 0.1304 0.1154 0.5937
O25_4 O 0.17388(18) 0.0583(3) 0.63970(18)
C23_4 C 0.1756(3) 0.1044(6) 0.6474(2)
H41_4 H 0.2055 0.1137 0.6552
C26_4 C 0.1428(3) 0.1120(7) 0.6870(3)
H44_4 H 0.1138 0.0989 0.6815
O28_4 O 0.2085(9) 0.1083(9) 0.7315(6)
H47_4 H 0.2111 0.1397 0.7293
C29_4 C 0.1625(5) 0.0958(8) 0.7278(8)
H50_4 H 0.1602 0.0640 0.7287
H53_4 H 0.1464 0.1076 0.7527
O31_4 O 0.22199(19) 0.0145(2) 0.67720(19)
C32_4 C 0.2148(2) 0.0382(4) 0.6359(2)
H56_4 H 0.2369 0.0616 0.6343
O38_4 O 0.2091(4) 0.0367(5) 0.5594(5)
H59_4 H 0.2002 0.0665 0.5653
C35_4 C 0.2190(4) 0.0143(3) 0.6009(5)
H62_4 H 0.2495 0.0041 0.5995
O40_4 O 0.0539(4) 0.1960(6) 0.5650(4)
H64_4 H 0.0840 0.1929 0.5742
C37_4 C 0.0265(3) 0.1890(3) 0.6005(4)
H67_4 H 0.0166 0.1583 0.5999
O44_4 O 0.08445(18) 0.1654(4) 0.64230(17)
C40_4 C 0.0471(3) 0.1979(3) 0.6444(3)
H72_4 H 0.0596 0.2277 0.6437
C43_4 C 0.0213(3) 0.1940(3) 0.6826(3)
H75_4 H 0.0111 0.1635 0.6859
O48_4 O 0.0571(3) 0.2470(4) 0.7209(3)
H78_4 H 0.0740 0.2515 0.7473
C48_4 C 0.0413(7) 0.2079(5) 0.7208(11)
H85_4 H 0.0199 0.2058 0.7445
H88_4 H 0.0650 0.1876 0.7276
K7_3 K 0.18884(10) 0.81116(10) 0.5000
O13_4 O 0.1612(5) 0.8587(3) 0.6864(3)
C15_4 C 0.1807(9) 0.8749(3) 0.6532(4)
H23_4 H 0.2123 0.8766 0.6591
O16_3 O 0.1963(6) 0.8620(3) 0.5738(3)
H26_3 H 0.1939 0.8935 0.5729
C18_4 C 0.1720(4) 0.8468(3) 0.6047(3)
H31_4 H 0.1837 0.8173 0.6104
O21_3 O 0.1200(4) 0.8145(3) 0.5658(3)
H34_3 H 0.1275 0.8298 0.5392
C21_4 C 0.1280(6) 0.8407(2) 0.6008(3)
H39_4 H 0.1154 0.8696 0.5937
O26_4 O 0.0583(3) 0.82612(18) 0.63970(18)
C24_4 C 0.1044(6) 0.8244(3) 0.6474(2)
H40_4 H 0.1137 0.7945 0.6552
C27_4 C 0.1120(7) 0.8572(3) 0.6870(3)
H43_4 H 0.0989 0.8862 0.6815
O27_4 O 0.1083(9) 0.7915(9) 0.7315(6)
H46_4 H 0.1397 0.7889 0.7293
C28_4 C 0.0958(8) 0.8375(5) 0.7278(8)
H49_4 H 0.0640 0.8398 0.7287
H52_4 H 0.1076 0.8536 0.7527
O32_4 O 0.0145(2) 0.77801(19) 0.67720(19)
C33_4 C 0.0382(4) 0.7852(2) 0.6359(2)
H57_4 H 0.0616 0.7631 0.6343
O39_4 O 0.0367(5) 0.7909(4) 0.5594(5)
H60_4 H 0.0665 0.7998 0.5653
C36_4 C 0.0143(3) 0.7810(4) 0.6009(5)
H63_4 H 0.0041 0.7505 0.5995
O41_4 O 0.1960(6) 0.9461(4) 0.5650(4)
H65_4 H 0.1929 0.9160 0.5742
C38_4 C 0.1890(3) 0.9735(3) 0.6005(4)
H68_4 H 0.1583 0.9834 0.5999
O45_4 O 0.1654(4) 0.91555(18) 0.64230(17)
C41_4 C 0.1979(3) 0.9529(3) 0.6444(3)
H71_4 H 0.2277 0.9404 0.6437
C44_4 C 0.1940(3) 0.9787(3) 0.6826(3)
H74_4 H 0.1635 0.9889 0.6859
O47_4 O 0.2470(4) 0.9429(3) 0.7209(3)
H77_4 H 0.2515 0.9260 0.7473
C47_4 C 0.2079(5) 0.9587(7) 0.7208(11)
H84_4 H 0.2058 0.9801 0.7445
H87_4 H 0.1876 0.9350 0.7276
O8_4 O 0.8040(6) 0.0539(4) 0.5650(4)
H14_4 H 0.8071 0.0840 0.5742
C9_4 C 0.8110(3) 0.0265(3) 0.6005(4)
H15_4 H 0.8417 0.0166 0.5999
C10_4 C 0.8021(3) 0.0471(3) 0.6444(3)
H16_4 H 0.7723 0.0596 0.6437
C11_4 C 0.8060(3) 0.0213(3) 0.6826(3)
H17_4 H 0.8365 0.0111 0.6859
O10_4 O 0.7530(4) 0.0571(3) 0.7209(3)
H18_4 H 0.7485 0.0740 0.7473
C12_4 C 0.7921(5) 0.0413(7) 0.7208(11)
H19_4 H 0.7942 0.0199 0.7445
H20_4 H 0.8124 0.0650 0.7276
K2_3 K 0.81116(10) 0.18884(10) 0.5000
K3_7 K 0.68884(10) 0.0000 0.68884(10)
O11_4 O 0.8388(5) 0.1413(3) 0.6864(3)
C13_4 C 0.8193(9) 0.1251(3) 0.6532(4)
H21_4 H 0.7877 0.1234 0.6591
O14_4 O 0.8037(6) 0.1380(3) 0.5738(3)
O18_3 O 0.8620(3) 0.1963(6) 0.4262(3)
H24_4 H 0.8061 0.1065 0.5729
H28_3 H 0.8935 0.1939 0.4271
C16_4 C 0.8280(4) 0.1532(3) 0.6047(3)
H29_4 H 0.8163 0.1827 0.6104
O19_4 O 0.8800(4) 0.1855(3) 0.5658(3)
O23_3 O 0.8145(3) 0.1200(4) 0.4342(3)
H32_4 H 0.8725 0.1702 0.5392
H36_3 H 0.8298 0.1275 0.4608
C19_4 C 0.8720(6) 0.1593(2) 0.6008(3)
H37_4 H 0.8846 0.1304 0.5937
O24_4 O 0.9417(3) 0.17388(18) 0.63970(18)
C22_4 C 0.8956(6) 0.1756(3) 0.6474(2)
H42_4 H 0.8863 0.2055 0.6552
C25_4 C 0.8880(7) 0.1428(3) 0.6870(3)
H45_4 H 0.9011 0.1138 0.6815
O29_4 O 0.8917(9) 0.2085(9) 0.7315(6)
H48_4 H 0.8603 0.2111 0.7293
C30_4 C 0.9042(8) 0.1625(5) 0.7278(8)
H51_4 H 0.9360 0.1602 0.7287
H54_4 H 0.8924 0.1464 0.7527
O30_4 O 0.9855(2) 0.22199(19) 0.67720(19)
O35_4 O 0.82280(19) 0.27801(19) 0.5145(2)
O36_4 O 0.72199(19) 0.17720(19) 0.4855(2)
C31_4 C 0.9618(4) 0.2148(2) 0.6359(2)
H55_4 H 0.9384 0.2369 0.6343
O37_4 O 0.9633(5) 0.2091(4) 0.5594(5)
H58_4 H 0.9335 0.2002 0.5653
C34_4 C 0.9857(3) 0.2190(4) 0.6009(5)
H61_4 H 0.9959 0.2495 0.5995
O43_4 O 0.8346(4) 0.08445(18) 0.64230(17)
O51_4 O 0.7791(3) 0.2530(4) 0.4429(3)
O52_4 O 0.7470(4) 0.2209(3) 0.5571(3)
H81_4 H 0.7527 0.2485 0.4260
H82_4 H 0.7515 0.2473 0.5740
H89_4 H 0.855594 0.225135 0.413824
H91_4 H 0.827207 0.124534 0.405154
H94_4 H 0.741252 0.197535 0.578235
H95_4 H 0.802465 0.258748 0.421765
K1_3 K 0.81116(10) 0.81116(10) 0.5000
O1_4 O 0.8587(3) 0.8388(5) 0.6864(3)
C1_4 C 0.8749(3) 0.8193(9) 0.6532(4)
H1_4 H 0.8766 0.7877 0.6591
O2_4 O 0.8620(3) 0.8037(6) 0.5738(3)
H2_4 H 0.8935 0.8061 0.5729
C2_4 C 0.8468(3) 0.8280(4) 0.6047(3)
H3_4 H 0.8173 0.8163 0.6104
O3_4 O 0.8145(3) 0.8800(4) 0.5658(3)
H4_4 H 0.8298 0.8725 0.5392
C3_4 C 0.8407(2) 0.8720(6) 0.6008(3)
H5_4 H 0.8696 0.8846 0.5937
O4_4 O 0.82612(18) 0.9417(3) 0.63970(18)
C4_4 C 0.8244(3) 0.8956(6) 0.6474(2)
H6_4 H 0.7945 0.8863 0.6552
C5_4 C 0.8572(3) 0.8880(7) 0.6870(3)
H7_4 H 0.8862 0.9011 0.6815
O5_4 O 0.7915(9) 0.8917(9) 0.7315(6)
H8_4 H 0.7889 0.8603 0.7293
C6_4 C 0.8375(5) 0.9042(8) 0.7278(8)
H9_4 H 0.8398 0.9360 0.7287
H10_4 H 0.8536 0.8924 0.7527
O6_4 O 0.77801(19) 0.9855(2) 0.67720(19)
C7_4 C 0.7852(2) 0.9618(4) 0.6359(2)
H11_4 H 0.7631 0.9384 0.6343
O7_4 O 0.7909(4) 0.9633(5) 0.5594(5)
H12_4 H 0.7998 0.9335 0.5653
C8_4 C 0.7810(4) 0.9857(3) 0.6009(5)
H13_4 H 0.7505 0.9959 0.5995
O9_4 O 0.91555(18) 0.8346(4) 0.64230(17)
K3_8 K 0.68884(10) 1.0000 0.68884(10)
O17_3 O 0.8037(6) 0.8620(3) 0.4262(3)
H27_3 H 0.8061 0.8935 0.4271
O22_3 O 0.8800(4) 0.8145(3) 0.4342(3)
H35_3 H 0.8725 0.8298 0.4608
O33_4 O 0.72199(19) 0.82280(19) 0.5145(2)
O34_4 O 0.82280(19) 0.72199(19) 0.4855(2)
O42_4 O 0.9461(4) 0.8040(6) 0.5650(4)
H66_4 H 0.9160 0.8071 0.5742
C39_4 C 0.9735(3) 0.8110(3) 0.6005(4)
H69_4 H 0.9834 0.8417 0.5999
C42_4 C 0.9529(3) 0.8021(3) 0.6444(3)
H70_4 H 0.9404 0.7723 0.6437
C45_4 C 0.9787(3) 0.8060(3) 0.6826(3)
H73_4 H 0.9889 0.8365 0.6859
O46_4 O 0.9429(3) 0.7530(4) 0.7209(3)
O49_4 O 0.7470(4) 0.7791(3) 0.4429(3)
O50_4 O 0.7791(3) 0.7470(4) 0.5571(3)
H76_4 H 0.9260 0.7485 0.7473
H79_4 H 0.7515 0.7527 0.4260
H80_4 H 0.7527 0.7515 0.5740
C46_4 C 0.9587(7) 0.7921(5) 0.7208(11)
H83_4 H 0.9801 0.7942 0.7445
H86_4 H 0.9350 0.8124 0.7276
H90_4 H 0.774865 0.855594 0.413824
H92_4 H 0.875466 0.827207 0.405154
H96_4 H 0.741252 0.802465 0.421765
H97_4 H 0.802465 0.741252 0.578235
H90_5 H 0.144406 0.586176 0.774865
H92_5 H 0.172793 0.594846 0.875466
H89_5 H 0.774865 0.586176 0.855594
H91_5 H 0.875466 0.594846 0.827207
O8_5 O 0.5650(4) 0.0539(4) 0.1960(6)
H14_5 H 0.5742 0.0840 0.1929
C9_5 C 0.6005(4) 0.0265(3) 0.1890(3)
H15_5 H 0.5999 0.0166 0.1583
C10_5 C 0.6444(3) 0.0471(3) 0.1979(3)
H16_5 H 0.6437 0.0596 0.2277
C11_5 C 0.6826(3) 0.0213(3) 0.1940(3)
H17_5 H 0.6859 0.0111 0.1635
O10_5 O 0.7209(3) 0.0571(3) 0.2470(4)
H18_5 H 0.7473 0.0740 0.2515
C12_5 C 0.7208(11) 0.0413(7) 0.2079(5)
H19_5 H 0.7445 0.0199 0.2058
H20_5 H 0.7276 0.0650 0.1876
K3_9 K 0.68884(10) 0.0000 0.31116(10)
O11_5 O 0.6864(3) 0.1413(3) 0.1612(5)
C13_5 C 0.6532(4) 0.1251(3) 0.1807(9)
H21_5 H 0.6591 0.1234 0.2123
O14_5 O 0.5738(3) 0.1380(3) 0.1963(6)
H24_5 H 0.5729 0.1065 0.1939
C16_5 C 0.6047(3) 0.1532(3) 0.1720(4)
H29_5 H 0.6104 0.1827 0.1837
O19_5 O 0.5658(3) 0.1855(3) 0.1200(4)
H32_5 H 0.5392 0.1702 0.1275
C19_5 C 0.6008(3) 0.1593(2) 0.1280(6)
H37_5 H 0.5937 0.1304 0.1154
O24_5 O 0.63970(18) 0.17388(18) 0.0583(3)
C22_5 C 0.6474(2) 0.1756(3) 0.1044(6)
H42_5 H 0.6552 0.2055 0.1137
C25_5 C 0.6870(3) 0.1428(3) 0.1120(7)
H45_5 H 0.6815 0.1138 0.0989
O29_5 O 0.7315(6) 0.2085(9) 0.1083(9)
H48_5 H 0.7293 0.2111 0.1397
C30_5 C 0.7278(8) 0.1625(5) 0.0958(8)
H51_5 H 0.7287 0.1602 0.0640
H54_5 H 0.7527 0.1464 0.1076
O30_5 O 0.67720(19) 0.22199(19) 0.0145(2)
O35_5 O 0.5145(2) 0.27801(19) 0.17720(19)
O36_5 O 0.4855(2) 0.17720(19) 0.27801(19)
C31_5 C 0.6359(2) 0.2148(2) 0.0382(4)
H55_5 H 0.6343 0.2369 0.0616
O37_5 O 0.5594(5) 0.2091(4) 0.0367(5)
H58_5 H 0.5653 0.2002 0.0665
C34_5 C 0.6009(5) 0.2190(4) 0.0143(3)
H61_5 H 0.5995 0.2495 0.0041
O43_5 O 0.64230(17) 0.08445(18) 0.1654(4)
O51_5 O 0.4429(3) 0.2530(4) 0.2209(3)
O52_5 O 0.5571(3) 0.2209(3) 0.2530(4)
H81_5 H 0.4260 0.2485 0.2473
H82_5 H 0.5740 0.2473 0.2485
H89_6 H 0.413824 0.225135 0.144406
H91_6 H 0.405154 0.124534 0.172793
H94_5 H 0.578235 0.197535 0.258748
H95_5 H 0.421765 0.258748 0.197535
O12_5 O 0.6864(3) 0.1612(5) 0.8587(3)
C14_5 C 0.6532(4) 0.1807(9) 0.8749(3)
H22_5 H 0.6591 0.2123 0.8766
C17_5 C 0.6047(3) 0.1720(4) 0.8468(3)
H30_5 H 0.6104 0.1837 0.8173
C20_5 C 0.6008(3) 0.1280(6) 0.8407(2)
H38_5 H 0.5937 0.1154 0.8696
O25_5 O 0.63970(18) 0.0583(3) 0.82612(18)
C23_5 C 0.6474(2) 0.1044(6) 0.8244(3)
H41_5 H 0.6552 0.1137 0.7945
C26_5 C 0.6870(3) 0.1120(7) 0.8572(3)
H44_5 H 0.6815 0.0989 0.8862
O28_5 O 0.7315(6) 0.1083(9) 0.7915(9)
H47_5 H 0.7293 0.1397 0.7889
C29_5 C 0.7278(8) 0.0958(8) 0.8375(5)
H50_5 H 0.7287 0.0640 0.8398
H53_5 H 0.7527 0.1076 0.8536
O31_5 O 0.67720(19) 0.0145(2) 0.77801(19)
C32_5 C 0.6359(2) 0.0382(4) 0.7852(2)
H56_5 H 0.6343 0.0616 0.7631
O38_5 O 0.5594(5) 0.0367(5) 0.7909(4)
H59_5 H 0.5653 0.0665 0.7998
C35_5 C 0.6009(5) 0.0143(3) 0.7810(4)
H62_5 H 0.5995 0.0041 0.7505
O40_5 O 0.5650(4) 0.1960(6) 0.9461(4)
H64_5 H 0.5742 0.1929 0.9160
C37_5 C 0.6005(4) 0.1890(3) 0.9735(3)
H67_5 H 0.5999 0.1583 0.9834
O44_5 O 0.64230(17) 0.1654(4) 0.91555(18)
C40_5 C 0.6444(3) 0.1979(3) 0.9529(3)
H72_5 H 0.6437 0.2277 0.9404
C43_5 C 0.6826(3) 0.1940(3) 0.9787(3)
H75_5 H 0.6859 0.1635 0.9889
O48_5 O 0.7209(3) 0.2470(4) 0.9429(3)
H78_5 H 0.7473 0.2515 0.9260
C48_5 C 0.7208(11) 0.2079(5) 0.9587(7)
H85_5 H 0.7445 0.2058 0.9801
H88_5 H 0.7276 0.1876 0.9350
O1_5 O 0.6864(3) 0.8388(5) 0.1413(3)
C1_5 C 0.6532(4) 0.8193(9) 0.1251(3)
H1_5 H 0.6591 0.7877 0.1234
O2_5 O 0.5738(3) 0.8037(6) 0.1380(3)
H2_5 H 0.5729 0.8061 0.1065
C2_5 C 0.6047(3) 0.8280(4) 0.1532(3)
H3_5 H 0.6104 0.8163 0.1827
O3_5 O 0.5658(3) 0.8800(4) 0.1855(3)
H4_5 H 0.5392 0.8725 0.1702
C3_5 C 0.6008(3) 0.8720(6) 0.1593(2)
H5_5 H 0.5937 0.8846 0.1304
O4_5 O 0.63970(18) 0.9417(3) 0.17388(18)
C4_5 C 0.6474(2) 0.8956(6) 0.1756(3)
H6_5 H 0.6552 0.8863 0.2055
C5_5 C 0.6870(3) 0.8880(7) 0.1428(3)
H7_5 H 0.6815 0.9011 0.1138
O5_5 O 0.7315(6) 0.8917(9) 0.2085(9)
H8_5 H 0.7293 0.8603 0.2111
C6_5 C 0.7278(8) 0.9042(8) 0.1625(5)
H9_5 H 0.7287 0.9360 0.1602
H10_5 H 0.7527 0.8924 0.1464
O6_5 O 0.67720(19) 0.9855(2) 0.22199(19)
C7_5 C 0.6359(2) 0.9618(4) 0.2148(2)
H11_5 H 0.6343 0.9384 0.2369
O7_5 O 0.5594(5) 0.9633(5) 0.2091(4)
H12_5 H 0.5653 0.9335 0.2002
C8_5 C 0.6009(5) 0.9857(3) 0.2190(4)
H13_5 H 0.5995 0.9959 0.2495
O9_5 O 0.64230(17) 0.8346(4) 0.08445(18)
K3_10 K 0.68884(10) 1.0000 0.31116(10)
O33_5 O 0.5145(2) 0.82280(19) 0.27801(19)
O34_5 O 0.4855(2) 0.72199(19) 0.17720(19)
O42_5 O 0.5650(4) 0.8040(6) 0.0539(4)
H66_5 H 0.5742 0.8071 0.0840
C39_5 C 0.6005(4) 0.8110(3) 0.0265(3)
H69_5 H 0.5999 0.8417 0.0166
C42_5 C 0.6444(3) 0.8021(3) 0.0471(3)
H70_5 H 0.6437 0.7723 0.0596
C45_5 C 0.6826(3) 0.8060(3) 0.0213(3)
H73_5 H 0.6859 0.8365 0.0111
O46_5 O 0.7209(3) 0.7530(4) 0.0571(3)
O49_5 O 0.4429(3) 0.7791(3) 0.2530(4)
O50_5 O 0.5571(3) 0.7470(4) 0.2209(3)
H76_5 H 0.7473 0.7485 0.0740
H79_5 H 0.4260 0.7527 0.2485
H80_5 H 0.5740 0.7515 0.2473
C46_5 C 0.7208(11) 0.7921(5) 0.0413(7)
H83_5 H 0.7445 0.7942 0.0199
H86_5 H 0.7276 0.8124 0.0650
H90_6 H 0.413824 0.855594 0.225135
H92_6 H 0.405154 0.827207 0.124534
H96_5 H 0.421765 0.802465 0.258748
H97_5 H 0.578235 0.741252 0.197535
O13_5 O 0.6864(3) 0.8587(3) 0.8388(5)
C15_5 C 0.6532(4) 0.8749(3) 0.8193(9)
H23_5 H 0.6591 0.8766 0.7877
C18_5 C 0.6047(3) 0.8468(3) 0.8280(4)
H31_5 H 0.6104 0.8173 0.8163
C21_5 C 0.6008(3) 0.8407(2) 0.8720(6)
H39_5 H 0.5937 0.8696 0.8846
O26_5 O 0.63970(18) 0.82612(18) 0.9417(3)
C24_5 C 0.6474(2) 0.8244(3) 0.8956(6)
H40_5 H 0.6552 0.7945 0.8863
C27_5 C 0.6870(3) 0.8572(3) 0.8880(7)
H43_5 H 0.6815 0.8862 0.9011
O27_5 O 0.7315(6) 0.7915(9) 0.8917(9)
H46_5 H 0.7293 0.7889 0.8603
C28_5 C 0.7278(8) 0.8375(5) 0.9042(8)
H49_5 H 0.7287 0.8398 0.9360
H52_5 H 0.7527 0.8536 0.8924
O32_5 O 0.67720(19) 0.77801(19) 0.9855(2)
C33_5 C 0.6359(2) 0.7852(2) 0.9618(4)
H57_5 H 0.6343 0.7631 0.9384
O39_5 O 0.5594(5) 0.7909(4) 0.9633(5)
H60_5 H 0.5653 0.7998 0.9335
C36_5 C 0.6009(5) 0.7810(4) 0.9857(3)
H63_5 H 0.5995 0.7505 0.9959
O41_5 O 0.5650(4) 0.9461(4) 0.8040(6)
H65_5 H 0.5742 0.9160 0.8071
C38_5 C 0.6005(4) 0.9735(3) 0.8110(3)
H68_5 H 0.5999 0.9834 0.8417
O45_5 O 0.64230(17) 0.91555(18) 0.8346(4)
C41_5 C 0.6444(3) 0.9529(3) 0.8021(3)
H71_5 H 0.6437 0.9404 0.7723
C44_5 C 0.6826(3) 0.9787(3) 0.8060(3)
H74_5 H 0.6859 0.9889 0.8365
O47_5 O 0.7209(3) 0.9429(3) 0.7530(4)
H77_5 H 0.7473 0.9260 0.7485
C47_5 C 0.7208(11) 0.9587(7) 0.7921(5)
H84_5 H 0.7445 0.9801 0.7942
H87_5 H 0.7276 0.9350 0.8124
O17_4 O 0.1380(3) 0.8037(6) 0.4262(3)
H27_4 H 0.1065 0.8061 0.4271
O22_4 O 0.1855(3) 0.8800(4) 0.4342(3)
H35_4 H 0.1702 0.8725 0.4608
O33_6 O 0.17720(19) 0.72199(19) 0.5145(2)
O34_6 O 0.27801(19) 0.82280(19) 0.4855(2)
O49_6 O 0.2209(3) 0.7470(4) 0.4429(3)
O50_6 O 0.2530(4) 0.7791(3) 0.5571(3)
H79_6 H 0.2473 0.7515 0.4260
H80_6 H 0.2485 0.7527 0.5740
H90_7 H 0.144406 0.774865 0.413824
H92_7 H 0.172793 0.875466 0.405154
H96_6 H 0.197535 0.741252 0.421765
H97_6 H 0.258748 0.802465 0.578235
H90_8 H 0.413824 0.144406 0.774865
H92_8 H 0.405154 0.172793 0.875466
H89_7 H 0.413824 0.774865 0.855594
H91_7 H 0.405154 0.875466 0.827207
H90_9 H 0.144406 0.413824 0.225135
H92_9 H 0.172793 0.405154 0.124534
H89_8 H 0.774865 0.413824 0.144406
H91_8 H 0.875466 0.405154 0.172793
O17_5 O 0.1963(6) 0.1380(3) 0.4262(3)
H27_5 H 0.1939 0.1065 0.4271
O22_5 O 0.1200(4) 0.1855(3) 0.4342(3)
H35_5 H 0.1275 0.1702 0.4608
O33_7 O 0.27801(19) 0.17720(19) 0.5145(2)
O34_7 O 0.17720(19) 0.27801(19) 0.4855(2)
O49_7 O 0.2530(4) 0.2209(3) 0.4429(3)
O50_7 O 0.2209(3) 0.2530(4) 0.5571(3)
H79_7 H 0.2485 0.2473 0.4260
H80_7 H 0.2473 0.2485 0.5740
H90_10 H 0.225135 0.144406 0.413824
H92_10 H 0.124534 0.172793 0.405154
H96_7 H 0.258748 0.197535 0.421765
H97_7 H 0.197535 0.258748 0.578235
H90_11 H 0.586176 0.144406 0.225135
H92_11 H 0.594846 0.172793 0.124534
H89_9 H 0.586176 0.774865 0.144406
H91_9 H 0.594846 0.875466 0.172793
O13_6 O 0.1612(5) 0.1413(3) 0.3136(3)
C15_6 C 0.1807(9) 0.1251(3) 0.3468(4)
H23_6 H 0.2123 0.1234 0.3409
C18_6 C 0.1720(4) 0.1532(3) 0.3953(3)
H31_6 H 0.1837 0.1827 0.3896
C21_6 C 0.1280(6) 0.1593(2) 0.3992(3)
H39_6 H 0.1154 0.1304 0.4063
O26_6 O 0.0583(3) 0.17388(18) 0.36030(18)
C24_6 C 0.1044(6) 0.1756(3) 0.3526(2)
H40_6 H 0.1137 0.2055 0.3448
C27_6 C 0.1120(7) 0.1428(3) 0.3130(3)
H43_6 H 0.0989 0.1138 0.3185
O27_6 O 0.1083(9) 0.2085(9) 0.2685(6)
H46_6 H 0.1397 0.2111 0.2707
C28_6 C 0.0958(8) 0.1625(5) 0.2722(8)
H49_6 H 0.0640 0.1602 0.2713
H52_6 H 0.1076 0.1464 0.2473
O32_6 O 0.0145(2) 0.22199(19) 0.32280(19)
C33_6 C 0.0382(4) 0.2148(2) 0.3641(2)
H57_6 H 0.0616 0.2369 0.3657
O39_6 O 0.0367(5) 0.2091(4) 0.4406(5)
H60_6 H 0.0665 0.2002 0.4347
C36_6 C 0.0143(3) 0.2190(4) 0.3991(5)
H63_6 H 0.0041 0.2495 0.4005
O41_6 O 0.1960(6) 0.0539(4) 0.4350(4)
H65_6 H 0.1929 0.0840 0.4258
C38_6 C 0.1890(3) 0.0265(3) 0.3995(4)
H68_6 H 0.1583 0.0166 0.4001
O45_6 O 0.1654(4) 0.08445(18) 0.35770(17)
C41_6 C 0.1979(3) 0.0471(3) 0.3556(3)
H71_6 H 0.2277 0.0596 0.3563
C44_6 C 0.1940(3) 0.0213(3) 0.3174(3)
H74_6 H 0.1635 0.0111 0.3141
O47_6 O 0.2470(4) 0.0571(3) 0.2791(3)
H77_6 H 0.2515 0.0740 0.2527
C47_6 C 0.2079(5) 0.0413(7) 0.2792(11)
H84_6 H 0.2058 0.0199 0.2555
H87_6 H 0.1876 0.0650 0.2724
O12_6 O 0.1413(3) 0.8388(5) 0.3136(3)
C14_6 C 0.1251(3) 0.8193(9) 0.3468(4)
H22_6 H 0.1234 0.7877 0.3409
C17_6 C 0.1532(3) 0.8280(4) 0.3953(3)
H30_6 H 0.1827 0.8163 0.3896
C20_6 C 0.1593(2) 0.8720(6) 0.3992(3)
H38_6 H 0.1304 0.8846 0.4063
O25_6 O 0.17388(18) 0.9417(3) 0.36030(18)
C23_6 C 0.1756(3) 0.8956(6) 0.3526(2)
H41_6 H 0.2055 0.8863 0.3448
C26_6 C 0.1428(3) 0.8880(7) 0.3130(3)
H44_6 H 0.1138 0.9011 0.3185
O28_6 O 0.2085(9) 0.8917(9) 0.2685(6)
H47_6 H 0.2111 0.8603 0.2707
C29_6 C 0.1625(5) 0.9042(8) 0.2722(8)
H50_6 H 0.1602 0.9360 0.2713
H53_6 H 0.1464 0.8924 0.2473
O31_6 O 0.22199(19) 0.9855(2) 0.32280(19)
C32_6 C 0.2148(2) 0.9618(4) 0.3641(2)
H56_6 H 0.2369 0.9384 0.3657
O38_6 O 0.2091(4) 0.9633(5) 0.4406(5)
H59_6 H 0.2002 0.9335 0.4347
C35_6 C 0.2190(4) 0.9857(3) 0.3991(5)
H62_6 H 0.2495 0.9959 0.4005
O40_6 O 0.0539(4) 0.8040(6) 0.4350(4)
H64_6 H 0.0840 0.8071 0.4258
C37_6 C 0.0265(3) 0.8110(3) 0.3995(4)
H67_6 H 0.0166 0.8417 0.4001
O44_6 O 0.08445(18) 0.8346(4) 0.35770(17)
C40_6 C 0.0471(3) 0.8021(3) 0.3556(3)
H72_6 H 0.0596 0.7723 0.3563
C43_6 C 0.0213(3) 0.8060(3) 0.3174(3)
H75_6 H 0.0111 0.8365 0.3141
O48_6 O 0.0571(3) 0.7530(4) 0.2791(3)
H78_6 H 0.0740 0.7485 0.2527
C48_6 C 0.0413(7) 0.7921(5) 0.2792(11)
H85_6 H 0.0199 0.7942 0.2555
H88_6 H 0.0650 0.8124 0.2724
O1_6 O 0.8587(3) 0.1612(5) 0.3136(3)
C1_6 C 0.8749(3) 0.1807(9) 0.3468(4)
H1_6 H 0.8766 0.2123 0.3409
C2_6 C 0.8468(3) 0.1720(4) 0.3953(3)
H3_6 H 0.8173 0.1837 0.3896
C3_6 C 0.8407(2) 0.1280(6) 0.3992(3)
H5_6 H 0.8696 0.1154 0.4063
O4_6 O 0.82612(18) 0.0583(3) 0.36030(18)
C4_6 C 0.8244(3) 0.1044(6) 0.3526(2)
H6_6 H 0.7945 0.1137 0.3448
C5_6 C 0.8572(3) 0.1120(7) 0.3130(3)
H7_6 H 0.8862 0.0989 0.3185
O5_6 O 0.7915(9) 0.1083(9) 0.2685(6)
H8_6 H 0.7889 0.1397 0.2707
C6_6 C 0.8375(5) 0.0958(8) 0.2722(8)
H9_6 H 0.8398 0.0640 0.2713
H10_6 H 0.8536 0.1076 0.2473
O6_6 O 0.77801(19) 0.0145(2) 0.32280(19)
C7_6 C 0.7852(2) 0.0382(4) 0.3641(2)
H11_6 H 0.7631 0.0616 0.3657
O7_6 O 0.7909(4) 0.0367(5) 0.4406(5)
H12_6 H 0.7998 0.0665 0.4347
C8_6 C 0.7810(4) 0.0143(3) 0.3991(5)
H13_6 H 0.7505 0.0041 0.4005
O9_6 O 0.91555(18) 0.1654(4) 0.35770(17)
O42_6 O 0.9461(4) 0.1960(6) 0.4350(4)
H66_6 H 0.9160 0.1929 0.4258
C39_6 C 0.9735(3) 0.1890(3) 0.3995(4)
H69_6 H 0.9834 0.1583 0.4001
C42_6 C 0.9529(3) 0.1979(3) 0.3556(3)
H70_6 H 0.9404 0.2277 0.3563
C45_6 C 0.9787(3) 0.1940(3) 0.3174(3)
H73_6 H 0.9889 0.1635 0.3141
O46_6 O 0.9429(3) 0.2470(4) 0.2791(3)
H76_6 H 0.9260 0.2515 0.2527
C46_6 C 0.9587(7) 0.2079(5) 0.2792(11)
H83_6 H 0.9801 0.2058 0.2555
H86_6 H 0.9350 0.1876 0.2724
H90_12 H 0.774865 0.144406 0.586176
H92_12 H 0.875466 0.172793 0.594846
O8_6 O 0.8040(6) 0.9461(4) 0.4350(4)
H14_6 H 0.8071 0.9160 0.4258
C9_6 C 0.8110(3) 0.9735(3) 0.3995(4)
H15_6 H 0.8417 0.9834 0.4001
C10_6 C 0.8021(3) 0.9529(3) 0.3556(3)
H16_6 H 0.7723 0.9404 0.3563
C11_6 C 0.8060(3) 0.9787(3) 0.3174(3)
H17_6 H 0.8365 0.9889 0.3141
O10_6 O 0.7530(4) 0.9429(3) 0.2791(3)
H18_6 H 0.7485 0.9260 0.2527
C12_6 C 0.7921(5) 0.9587(7) 0.2792(11)
H19_6 H 0.7942 0.9801 0.2555
H20_6 H 0.8124 0.9350 0.2724
O11_6 O 0.8388(5) 0.8587(3) 0.3136(3)
C13_6 C 0.8193(9) 0.8749(3) 0.3468(4)
H21_6 H 0.7877 0.8766 0.3409
C16_6 C 0.8280(4) 0.8468(3) 0.3953(3)
H29_6 H 0.8163 0.8173 0.3896
C19_6 C 0.8720(6) 0.8407(2) 0.3992(3)
H37_6 H 0.8846 0.8696 0.4063
O24_6 O 0.9417(3) 0.82612(18) 0.36030(18)
C22_6 C 0.8956(6) 0.8244(3) 0.3526(2)
H42_6 H 0.8863 0.7945 0.3448
C25_6 C 0.8880(7) 0.8572(3) 0.3130(3)
H45_6 H 0.9011 0.8862 0.3185
O29_6 O 0.8917(9) 0.7915(9) 0.2685(6)
H48_6 H 0.8603 0.7889 0.2707
C30_6 C 0.9042(8) 0.8375(5) 0.2722(8)
H51_6 H 0.9360 0.8398 0.2713
H54_6 H 0.8924 0.8536 0.2473
O30_6 O 0.9855(2) 0.77801(19) 0.32280(19)
C31_6 C 0.9618(4) 0.7852(2) 0.3641(2)
H55_6 H 0.9384 0.7631 0.3657
O37_6 O 0.9633(5) 0.7909(4) 0.4406(5)
H58_6 H 0.9335 0.7998 0.4347
C34_6 C 0.9857(3) 0.7810(4) 0.3991(5)
H61_6 H 0.9959 0.7505 0.4005
O43_6 O 0.8346(4) 0.91555(18) 0.35770(17)
H89_10 H 0.855594 0.774865 0.586176
H91_10 H 0.827207 0.875466 0.594846
H90_13 H 0.144406 0.225135 0.586176
H92_13 H 0.172793 0.124534 0.594846
H90_14 H 0.225135 0.855594 0.586176
H92_14 H 0.124534 0.827207 0.594846
O1_7 O 0.3388(5) 0.1864(3) 0.3587(3)
C1_7 C 0.3193(9) 0.1532(4) 0.3749(3)
H1_7 H 0.2877 0.1591 0.3766
O2_6 O 0.3037(6) 0.0738(3) 0.3620(3)
H2_6 H 0.3061 0.0729 0.3935
C2_7 C 0.3280(4) 0.1047(3) 0.3468(3)
H3_7 H 0.3163 0.1104 0.3173
O3_6 O 0.3800(4) 0.0658(3) 0.3145(3)
H4_6 H 0.3725 0.0392 0.3298
C3_7 C 0.3720(6) 0.1008(3) 0.3407(2)
H5_7 H 0.3846 0.0937 0.3696
O4_7 O 0.4417(3) 0.13970(18) 0.32612(18)
C4_7 C 0.3956(6) 0.1474(2) 0.3244(3)
H6_7 H 0.3863 0.1552 0.2945
C5_7 C 0.3880(7) 0.1870(3) 0.3572(3)
H7_7 H 0.4011 0.1815 0.3862
O5_7 O 0.3917(9) 0.2315(6) 0.2915(9)
H8_7 H 0.3603 0.2293 0.2889
C6_7 C 0.4042(8) 0.2278(8) 0.3375(5)
H9_7 H 0.4360 0.2287 0.3398
H10_7 H 0.3924 0.2527 0.3536
C7_7 C 0.4618(4) 0.1359(2) 0.2852(2)
H11_7 H 0.4384 0.1343 0.2631
O7_7 O 0.4633(5) 0.0594(5) 0.2909(4)
H12_7 H 0.4335 0.0653 0.2998
C8_7 C 0.4857(3) 0.1009(5) 0.2810(4)
H13_7 H 0.4959 0.0995 0.2505
O8_7 O 0.5539(4) 0.0650(4) 0.3040(6)
H14_7 H 0.5840 0.0742 0.3071
C9_7 C 0.5265(3) 0.1005(4) 0.3110(3)
H15_7 H 0.5166 0.0999 0.3417
O9_7 O 0.3346(4) 0.14230(17) 0.41555(18)
C10_7 C 0.5471(3) 0.1444(3) 0.3021(3)
H16_7 H 0.5596 0.1437 0.2723
C11_7 C 0.5213(3) 0.1826(3) 0.3060(3)
H17_7 H 0.5111 0.1859 0.3365
C12_7 C 0.5413(7) 0.2208(11) 0.2921(5)
H19_7 H 0.5199 0.2445 0.2942
H20_7 H 0.5650 0.2276 0.3124
O11_7 O 0.6413(3) 0.1864(3) 0.3388(5)
O12_7 O 0.6612(5) 0.1864(3) 0.6413(3)
O13_7 O 0.3587(3) 0.1864(3) 0.6612(5)
C13_7 C 0.6251(3) 0.1532(4) 0.3193(9)
C14_7 C 0.6807(9) 0.1532(4) 0.6251(3)
C15_7 C 0.3749(3) 0.1532(4) 0.6807(9)
H21_7 H 0.6234 0.1591 0.2877
H22_7 H 0.7123 0.1591 0.6234
H23_7 H 0.3766 0.1591 0.7123
O14_6 O 0.6380(3) 0.0738(3) 0.3037(6)
O15_4 O 0.6963(6) 0.0738(3) 0.6380(3)
O16_4 O 0.3620(3) 0.0738(3) 0.6963(6)
H24_6 H 0.6065 0.0729 0.3061
H25_4 H 0.6939 0.0729 0.6065
H26_4 H 0.3935 0.0729 0.6939
C16_7 C 0.6532(3) 0.1047(3) 0.3280(4)
C17_7 C 0.6720(4) 0.1047(3) 0.6532(3)
C18_7 C 0.3468(3) 0.1047(3) 0.6720(4)
H29_7 H 0.6827 0.1104 0.3163
H30_7 H 0.6837 0.1104 0.6827
H31_7 H 0.3173 0.1104 0.6837
O19_6 O 0.6855(3) 0.0658(3) 0.3800(4)
O20_4 O 0.6200(4) 0.0658(3) 0.6855(3)
O21_4 O 0.3145(3) 0.0658(3) 0.6200(4)
H32_6 H 0.6702 0.0392 0.3725
H33_4 H 0.6275 0.0392 0.6702
H34_4 H 0.3298 0.0392 0.6275
C19_7 C 0.6593(2) 0.1008(3) 0.3720(6)
C20_7 C 0.6280(6) 0.1008(3) 0.6593(2)
C21_7 C 0.3407(2) 0.1008(3) 0.6280(6)
H37_7 H 0.6304 0.0937 0.3846
H38_7 H 0.6154 0.0937 0.6304
H39_7 H 0.3696 0.0937 0.6154
O24_7 O 0.67388(18) 0.13970(18) 0.4417(3)
O25_7 O 0.5583(3) 0.13970(18) 0.67388(18)
O26_7 O 0.32612(18) 0.13970(18) 0.5583(3)
C22_7 C 0.6756(3) 0.1474(2) 0.3956(6)
C23_7 C 0.6044(6) 0.1474(2) 0.6756(3)
C24_7 C 0.3244(3) 0.1474(2) 0.6044(6)
H40_7 H 0.2945 0.1552 0.6137
H41_7 H 0.6137 0.1552 0.7055
H42_7 H 0.7055 0.1552 0.3863
C25_7 C 0.6428(3) 0.1870(3) 0.3880(7)
C26_7 C 0.6120(7) 0.1870(3) 0.6428(3)
C27_7 C 0.3572(3) 0.1870(3) 0.6120(7)
H43_7 H 0.3862 0.1815 0.5989
H44_7 H 0.5989 0.1815 0.6138
H45_7 H 0.6138 0.1815 0.4011
O27_7 O 0.2915(9) 0.2315(6) 0.6083(9)
O28_7 O 0.6083(9) 0.2315(6) 0.7085(9)
O29_7 O 0.7085(9) 0.2315(6) 0.3917(9)
H46_7 H 0.2889 0.2293 0.6397
H47_7 H 0.6397 0.2293 0.7111
H48_7 H 0.7111 0.2293 0.3603
C28_7 C 0.3375(5) 0.2278(8) 0.5958(8)
C29_7 C 0.5958(8) 0.2278(8) 0.6625(5)
C30_7 C 0.6625(5) 0.2278(8) 0.4042(8)
H49_7 H 0.3398 0.2287 0.5640
H50_7 H 0.5640 0.2287 0.6602
H51_7 H 0.6602 0.2287 0.4360
H52_7 H 0.3536 0.2527 0.6076
H53_7 H 0.6076 0.2527 0.6464
H54_7 H 0.6464 0.2527 0.3924
C31_7 C 0.7148(2) 0.1359(2) 0.4618(4)
C32_7 C 0.5382(4) 0.1359(2) 0.7148(2)
C33_7 C 0.2852(2) 0.1359(2) 0.5382(4)
H55_7 H 0.7369 0.1343 0.4384
H56_7 H 0.5616 0.1343 0.7369
H57_7 H 0.2631 0.1343 0.5616
O37_7 O 0.7091(4) 0.0594(5) 0.4633(5)
O38_7 O 0.5367(5) 0.0594(5) 0.7091(4)
O39_7 O 0.2909(4) 0.0594(5) 0.5367(5)
H58_7 H 0.7002 0.0653 0.4335
H59_7 H 0.5665 0.0653 0.7002
H60_7 H 0.2998 0.0653 0.5665
C34_7 C 0.7190(4) 0.1009(5) 0.4857(3)
C35_7 C 0.5143(3) 0.1009(5) 0.7190(4)
C36_7 C 0.2810(4) 0.1009(5) 0.5143(3)
H61_7 H 0.7495 0.0995 0.4959
H62_7 H 0.5041 0.0995 0.7495
H63_7 H 0.2505 0.0995 0.5041
O40_7 O 0.6960(6) 0.0650(4) 0.5539(4)
O41_7 O 0.4461(4) 0.0650(4) 0.6960(6)
O42_7 O 0.3040(6) 0.0650(4) 0.4461(4)
H64_7 H 0.6929 0.0742 0.5840
H65_7 H 0.4160 0.0742 0.6929
H66_7 H 0.3071 0.0742 0.4160
C37_7 C 0.6890(3) 0.1005(4) 0.5265(3)
C38_7 C 0.4735(3) 0.1005(4) 0.6890(3)
C39_7 C 0.3110(3) 0.1005(4) 0.4735(3)
H67_7 H 0.6583 0.0999 0.5166
H68_7 H 0.4834 0.0999 0.6583
H69_7 H 0.3417 0.0999 0.4834
O43_7 O 0.58445(18) 0.14230(17) 0.3346(4)
O44_7 O 0.6654(4) 0.14230(17) 0.58445(18)
O45_7 O 0.41555(18) 0.14230(17) 0.6654(4)
C40_7 C 0.6979(3) 0.1444(3) 0.5471(3)
C41_7 C 0.4529(3) 0.1444(3) 0.6979(3)
C42_7 C 0.3021(3) 0.1444(3) 0.4529(3)
H70_7 H 0.2723 0.1437 0.4404
H71_7 H 0.4404 0.1437 0.7277
H72_7 H 0.7277 0.1437 0.5596
C43_7 C 0.6940(3) 0.1826(3) 0.5213(3)
C44_7 C 0.4787(3) 0.1826(3) 0.6940(3)
C45_7 C 0.3060(3) 0.1826(3) 0.4787(3)
H73_7 H 0.3365 0.1859 0.4889
H74_7 H 0.4889 0.1859 0.6635
H75_7 H 0.6635 0.1859 0.5111
C46_7 C 0.2921(5) 0.2208(11) 0.4587(7)
C47_7 C 0.4587(7) 0.2208(11) 0.7079(5)
C48_7 C 0.7079(5) 0.2208(11) 0.5413(7)
H83_7 H 0.2942 0.2445 0.4801
H84_7 H 0.4801 0.2445 0.7058
H85_7 H 0.7058 0.2445 0.5199
H86_7 H 0.3124 0.2276 0.4350
H87_7 H 0.4350 0.2276 0.6876
H88_7 H 0.6876 0.2276 0.5650
H94_6 H 0.697535 0.0782354 0.241252
H97_8 H 0.241252 0.0782354 0.302465
O17_6 O 0.3620(3) 0.9262(3) 0.3037(6)
O18_4 O 0.6963(6) 0.9262(3) 0.3620(3)
H27_6 H 0.3935 0.9271 0.3061
H28_4 H 0.6939 0.9271 0.3935
O22_6 O 0.3145(3) 0.9342(3) 0.3800(4)
O23_4 O 0.6200(4) 0.9342(3) 0.3145(3)
H35_6 H 0.3298 0.9608 0.3725
H36_4 H 0.6275 0.9608 0.3298
H89_11 H 0.725135 0.913824 0.355594
H90_15 H 0.355594 0.913824 0.274865
H91_11 H 0.624534 0.905154 0.327207
H92_15 H 0.327207 0.905154 0.375466
H95_6 H 0.758748 0.921765 0.302465
H96_8 H 0.302465 0.921765 0.241252
O17_7 O 0.0738(3) 0.3620(3) 0.3037(6)
O18_5 O 0.0738(3) 0.6963(6) 0.3620(3)
H27_7 H 0.0729 0.3935 0.3061
H28_5 H 0.0729 0.6939 0.3935
O22_7 O 0.0658(3) 0.3145(3) 0.3800(4)
O23_5 O 0.0658(3) 0.6200(4) 0.3145(3)
H35_7 H 0.0392 0.3298 0.3725
H36_5 H 0.0392 0.6275 0.3298
H89_12 H 0.0861759 0.725135 0.355594
H90_16 H 0.0861759 0.355594 0.274865
H91_12 H 0.0948455 0.624534 0.327207
H92_16 H 0.0948455 0.327207 0.375466
H95_7 H 0.0782354 0.758748 0.302465
H96_9 H 0.0782354 0.302465 0.241252
O1_8 O 0.8136(3) 0.3388(5) 0.3587(3)
C1_8 C 0.8468(4) 0.3193(9) 0.3749(3)
H1_8 H 0.8409 0.2877 0.3766
O2_7 O 0.9262(3) 0.3037(6) 0.3620(3)
H2_7 H 0.9271 0.3061 0.3935
C2_8 C 0.8953(3) 0.3280(4) 0.3468(3)
H3_8 H 0.8896 0.3163 0.3173
O3_7 O 0.9342(3) 0.3800(4) 0.3145(3)
H4_7 H 0.9608 0.3725 0.3298
C3_8 C 0.8992(3) 0.3720(6) 0.3407(2)
H5_8 H 0.9063 0.3846 0.3696
O4_8 O 0.86030(18) 0.4417(3) 0.32612(18)
C4_8 C 0.8526(2) 0.3956(6) 0.3244(3)
H6_8 H 0.8448 0.3863 0.2945
C5_8 C 0.8130(3) 0.3880(7) 0.3572(3)
H7_8 H 0.8185 0.4011 0.3862
O5_8 O 0.7685(6) 0.3917(9) 0.2915(9)
H8_8 H 0.7707 0.3603 0.2889
C6_8 C 0.7722(8) 0.4042(8) 0.3375(5)
H9_8 H 0.7713 0.4360 0.3398
H10_8 H 0.7473 0.3924 0.3536
C7_8 C 0.8641(2) 0.4618(4) 0.2852(2)
H11_8 H 0.8657 0.4384 0.2631
O7_8 O 0.9406(5) 0.4633(5) 0.2909(4)
H12_8 H 0.9347 0.4335 0.2998
C8_8 C 0.8991(5) 0.4857(3) 0.2810(4)
H13_8 H 0.9005 0.4959 0.2505
O8_8 O 0.9350(4) 0.5539(4) 0.3040(6)
H14_8 H 0.9258 0.5840 0.3071
C9_8 C 0.8995(4) 0.5265(3) 0.3110(3)
H15_8 H 0.9001 0.5166 0.3417
O9_8 O 0.85770(17) 0.3346(4) 0.41555(18)
C10_8 C 0.8556(3) 0.5471(3) 0.3021(3)
H16_8 H 0.8563 0.5596 0.2723
C11_8 C 0.8174(3) 0.5213(3) 0.3060(3)
H17_8 H 0.8141 0.5111 0.3365
C12_8 C 0.7792(11) 0.5413(7) 0.2921(5)
H19_8 H 0.7555 0.5199 0.2942
H20_8 H 0.7724 0.5650 0.3124
O11_8 O 0.8136(3) 0.6413(3) 0.3388(5)
O12_8 O 0.8136(3) 0.6612(5) 0.6413(3)
O13_8 O 0.8136(3) 0.3587(3) 0.6612(5)
C13_8 C 0.8468(4) 0.6251(3) 0.3193(9)
C14_8 C 0.8468(4) 0.6807(9) 0.6251(3)
C15_8 C 0.8468(4) 0.3749(3) 0.6807(9)
H21_8 H 0.8409 0.6234 0.2877
H22_8 H 0.8409 0.7123 0.6234
H23_8 H 0.8409 0.3766 0.7123
O14_7 O 0.9262(3) 0.6380(3) 0.3037(6)
O15_5 O 0.9262(3) 0.6963(6) 0.6380(3)
O16_5 O 0.9262(3) 0.3620(3) 0.6963(6)
H24_7 H 0.9271 0.6065 0.3061
H25_5 H 0.9271 0.6939 0.6065
H26_5 H 0.9271 0.3935 0.6939
C16_8 C 0.8953(3) 0.6532(3) 0.3280(4)
C17_8 C 0.8953(3) 0.6720(4) 0.6532(3)
C18_8 C 0.8953(3) 0.3468(3) 0.6720(4)
H29_8 H 0.8896 0.6827 0.3163
H30_8 H 0.8896 0.6837 0.6827
H31_8 H 0.8896 0.3173 0.6837
O19_7 O 0.9342(3) 0.6855(3) 0.3800(4)
O20_5 O 0.9342(3) 0.6200(4) 0.6855(3)
O21_5 O 0.9342(3) 0.3145(3) 0.6200(4)
H32_7 H 0.9608 0.6702 0.3725
H33_5 H 0.9608 0.6275 0.6702
H34_5 H 0.9608 0.3298 0.6275
C19_8 C 0.8992(3) 0.6593(2) 0.3720(6)
C20_8 C 0.8992(3) 0.6280(6) 0.6593(2)
C21_8 C 0.8992(3) 0.3407(2) 0.6280(6)
H37_8 H 0.9063 0.6304 0.3846
H38_8 H 0.9063 0.6154 0.6304
H39_8 H 0.9063 0.3696 0.6154
O24_8 O 0.86030(18) 0.67388(18) 0.4417(3)
O25_8 O 0.86030(18) 0.5583(3) 0.67388(18)
O26_8 O 0.86030(18) 0.32612(18) 0.5583(3)
C22_8 C 0.8526(2) 0.6756(3) 0.3956(6)
C23_8 C 0.8526(2) 0.6044(6) 0.6756(3)
C24_8 C 0.8526(2) 0.3244(3) 0.6044(6)
H40_8 H 0.8448 0.2945 0.6137
H41_8 H 0.8448 0.6137 0.7055
H42_8 H 0.8448 0.7055 0.3863
C25_8 C 0.8130(3) 0.6428(3) 0.3880(7)
C26_8 C 0.8130(3) 0.6120(7) 0.6428(3)
C27_8 C 0.8130(3) 0.3572(3) 0.6120(7)
H43_8 H 0.8185 0.3862 0.5989
H44_8 H 0.8185 0.5989 0.6138
H45_8 H 0.8185 0.6138 0.4011
O27_8 O 0.7685(6) 0.2915(9) 0.6083(9)
O28_8 O 0.7685(6) 0.6083(9) 0.7085(9)
O29_8 O 0.7685(6) 0.7085(9) 0.3917(9)
H46_8 H 0.7707 0.2889 0.6397
H47_8 H 0.7707 0.6397 0.7111
H48_8 H 0.7707 0.7111 0.3603
C28_8 C 0.7722(8) 0.3375(5) 0.5958(8)
C29_8 C 0.7722(8) 0.5958(8) 0.6625(5)
C30_8 C 0.7722(8) 0.6625(5) 0.4042(8)
H49_8 H 0.7713 0.3398 0.5640
H50_8 H 0.7713 0.5640 0.6602
H51_8 H 0.7713 0.6602 0.4360
H52_8 H 0.7473 0.3536 0.6076
H53_8 H 0.7473 0.6076 0.6464
H54_8 H 0.7473 0.6464 0.3924
C31_8 C 0.8641(2) 0.7148(2) 0.4618(4)
C32_8 C 0.8641(2) 0.5382(4) 0.7148(2)
C33_8 C 0.8641(2) 0.2852(2) 0.5382(4)
H55_8 H 0.8657 0.7369 0.4384
H56_8 H 0.8657 0.5616 0.7369
H57_8 H 0.8657 0.2631 0.5616
O37_8 O 0.9406(5) 0.7091(4) 0.4633(5)
O38_8 O 0.9406(5) 0.5367(5) 0.7091(4)
O39_8 O 0.9406(5) 0.2909(4) 0.5367(5)
H58_8 H 0.9347 0.7002 0.4335
H59_8 H 0.9347 0.5665 0.7002
H60_8 H 0.9347 0.2998 0.5665
C34_8 C 0.8991(5) 0.7190(4) 0.4857(3)
C35_8 C 0.8991(5) 0.5143(3) 0.7190(4)
C36_8 C 0.8991(5) 0.2810(4) 0.5143(3)
H61_8 H 0.9005 0.7495 0.4959
H62_8 H 0.9005 0.5041 0.7495
H63_8 H 0.9005 0.2505 0.5041
O40_8 O 0.9350(4) 0.6960(6) 0.5539(4)
O41_8 O 0.9350(4) 0.4461(4) 0.6960(6)
O42_8 O 0.9350(4) 0.3040(6) 0.4461(4)
H64_8 H 0.9258 0.6929 0.5840
H65_8 H 0.9258 0.4160 0.6929
H66_8 H 0.9258 0.3071 0.4160
C37_8 C 0.8995(4) 0.6890(3) 0.5265(3)
C38_8 C 0.8995(4) 0.4735(3) 0.6890(3)
C39_8 C 0.8995(4) 0.3110(3) 0.4735(3)
H67_8 H 0.9001 0.6583 0.5166
H68_8 H 0.9001 0.4834 0.6583
H69_8 H 0.9001 0.3417 0.4834
O43_8 O 0.85770(17) 0.58445(18) 0.3346(4)
O44_8 O 0.85770(17) 0.6654(4) 0.58445(18)
O45_8 O 0.85770(17) 0.41555(18) 0.6654(4)
C40_8 C 0.8556(3) 0.6979(3) 0.5471(3)
C41_8 C 0.8556(3) 0.4529(3) 0.6979(3)
C42_8 C 0.8556(3) 0.3021(3) 0.4529(3)
H70_8 H 0.8563 0.2723 0.4404
H71_8 H 0.8563 0.4404 0.7277
H72_8 H 0.8563 0.7277 0.5596
C43_8 C 0.8174(3) 0.6940(3) 0.5213(3)
C44_8 C 0.8174(3) 0.4787(3) 0.6940(3)
C45_8 C 0.8174(3) 0.3060(3) 0.4787(3)
H73_8 H 0.8141 0.3365 0.4889
H74_8 H 0.8141 0.4889 0.6635
H75_8 H 0.8141 0.6635 0.5111
C46_8 C 0.7792(11) 0.2921(5) 0.4587(7)
C47_8 C 0.7792(11) 0.4587(7) 0.7079(5)
C48_8 C 0.7792(11) 0.7079(5) 0.5413(7)
H83_8 H 0.7555 0.2942 0.4801
H84_8 H 0.7555 0.4801 0.7058
H85_8 H 0.7555 0.7058 0.5199
H86_8 H 0.7724 0.3124 0.4350
H87_8 H 0.7724 0.4350 0.6876
H88_8 H 0.7724 0.6876 0.5650
H94_7 H 0.921765 0.697535 0.241252
H97_9 H 0.921765 0.241252 0.302465
H89_13 H 0.725135 0.0861759 0.644406
H90_17 H 0.355594 0.0861759 0.725135
H91_13 H 0.624534 0.0948455 0.672793
H92_17 H 0.327207 0.0948455 0.624534
H95_8 H 0.758748 0.0782354 0.697535
H96_10 H 0.302465 0.0782354 0.758748
O1_9 O 0.3388(5) 0.8136(3) 0.6413(3)
C1_9 C 0.3193(9) 0.8468(4) 0.6251(3)
H1_9 H 0.2877 0.8409 0.6234
O2_8 O 0.3037(6) 0.9262(3) 0.6380(3)
H2_8 H 0.3061 0.9271 0.6065
C2_9 C 0.3280(4) 0.8953(3) 0.6532(3)
H3_9 H 0.3163 0.8896 0.6827
O3_8 O 0.3800(4) 0.9342(3) 0.6855(3)
H4_8 H 0.3725 0.9608 0.6702
C3_9 C 0.3720(6) 0.8992(3) 0.6593(2)
H5_9 H 0.3846 0.9063 0.6304
O4_9 O 0.4417(3) 0.86030(18) 0.67388(18)
C4_9 C 0.3956(6) 0.8526(2) 0.6756(3)
H6_9 H 0.3863 0.8448 0.7055
C5_9 C 0.3880(7) 0.8130(3) 0.6428(3)
H7_9 H 0.4011 0.8185 0.6138
O5_9 O 0.3917(9) 0.7685(6) 0.7085(9)
H8_9 H 0.3603 0.7707 0.7111
C6_9 C 0.4042(8) 0.7722(8) 0.6625(5)
H9_9 H 0.4360 0.7713 0.6602
H10_9 H 0.3924 0.7473 0.6464
C7_9 C 0.4618(4) 0.8641(2) 0.7148(2)
H11_9 H 0.4384 0.8657 0.7369
O7_9 O 0.4633(5) 0.9406(5) 0.7091(4)
H12_9 H 0.4335 0.9347 0.7002
C8_9 C 0.4857(3) 0.8991(5) 0.7190(4)
H13_9 H 0.4959 0.9005 0.7495
O8_9 O 0.5539(4) 0.9350(4) 0.6960(6)
H14_9 H 0.5840 0.9258 0.6929
C9_9 C 0.5265(3) 0.8995(4) 0.6890(3)
H15_9 H 0.5166 0.9001 0.6583
O9_9 O 0.3346(4) 0.85770(17) 0.58445(18)
C10_9 C 0.5471(3) 0.8556(3) 0.6979(3)
H16_9 H 0.5596 0.8563 0.7277
C11_9 C 0.5213(3) 0.8174(3) 0.6940(3)
H17_9 H 0.5111 0.8141 0.6635
C12_9 C 0.5413(7) 0.7792(11) 0.7079(5)
H19_9 H 0.5199 0.7555 0.7058
H20_9 H 0.5650 0.7724 0.6876
O11_9 O 0.6413(3) 0.8136(3) 0.6612(5)
O12_9 O 0.6612(5) 0.8136(3) 0.3587(3)
O13_9 O 0.3587(3) 0.8136(3) 0.3388(5)
C13_9 C 0.6251(3) 0.8468(4) 0.6807(9)
C14_9 C 0.6807(9) 0.8468(4) 0.3749(3)
C15_9 C 0.3749(3) 0.8468(4) 0.3193(9)
H21_9 H 0.6234 0.8409 0.7123
H22_9 H 0.7123 0.8409 0.3766
H23_9 H 0.3766 0.8409 0.2877
O14_8 O 0.6380(3) 0.9262(3) 0.6963(6)
H24_8 H 0.6065 0.9271 0.6939
C16_9 C 0.6532(3) 0.8953(3) 0.6720(4)
C17_9 C 0.6720(4) 0.8953(3) 0.3468(3)
C18_9 C 0.3468(3) 0.8953(3) 0.3280(4)
H29_9 H 0.6827 0.8896 0.6837
H30_9 H 0.6837 0.8896 0.3173
H31_9 H 0.3173 0.8896 0.3163
O19_8 O 0.6855(3) 0.9342(3) 0.6200(4)
H32_8 H 0.6702 0.9608 0.6275
C19_9 C 0.6593(2) 0.8992(3) 0.6280(6)
C20_9 C 0.6280(6) 0.8992(3) 0.3407(2)
C21_9 C 0.3407(2) 0.8992(3) 0.3720(6)
H37_9 H 0.6304 0.9063 0.6154
H38_9 H 0.6154 0.9063 0.3696
H39_9 H 0.3696 0.9063 0.3846
O24_9 O 0.67388(18) 0.86030(18) 0.5583(3)
O25_9 O 0.5583(3) 0.86030(18) 0.32612(18)
O26_9 O 0.32612(18) 0.86030(18) 0.4417(3)
C22_9 C 0.6756(3) 0.8526(2) 0.6044(6)
C23_9 C 0.6044(6) 0.8526(2) 0.3244(3)
C24_9 C 0.3244(3) 0.8526(2) 0.3956(6)
H40_9 H 0.2945 0.8448 0.3863
H41_9 H 0.6137 0.8448 0.2945
H42_9 H 0.7055 0.8448 0.6137
C25_9 C 0.6428(3) 0.8130(3) 0.6120(7)
C26_9 C 0.6120(7) 0.8130(3) 0.3572(3)
C27_9 C 0.3572(3) 0.8130(3) 0.3880(7)
H43_9 H 0.3862 0.8185 0.4011
H44_9 H 0.5989 0.8185 0.3862
H45_9 H 0.6138 0.8185 0.5989
O27_9 O 0.2915(9) 0.7685(6) 0.3917(9)
O28_9 O 0.6083(9) 0.7685(6) 0.2915(9)
O29_9 O 0.7085(9) 0.7685(6) 0.6083(9)
H46_9 H 0.2889 0.7707 0.3603
H47_9 H 0.6397 0.7707 0.2889
H48_9 H 0.7111 0.7707 0.6397
C28_9 C 0.3375(5) 0.7722(8) 0.4042(8)
C29_9 C 0.5958(8) 0.7722(8) 0.3375(5)
C30_9 C 0.6625(5) 0.7722(8) 0.5958(8)
H49_9 H 0.3398 0.7713 0.4360
H50_9 H 0.5640 0.7713 0.3398
H51_9 H 0.6602 0.7713 0.5640
H52_9 H 0.3536 0.7473 0.3924
H53_9 H 0.6076 0.7473 0.3536
H54_9 H 0.6464 0.7473 0.6076
C31_9 C 0.7148(2) 0.8641(2) 0.5382(4)
C32_9 C 0.5382(4) 0.8641(2) 0.2852(2)
C33_9 C 0.2852(2) 0.8641(2) 0.4618(4)
H55_9 H 0.7369 0.8657 0.5616
H56_9 H 0.5616 0.8657 0.2631
H57_9 H 0.2631 0.8657 0.4384
O37_9 O 0.7091(4) 0.9406(5) 0.5367(5)
O38_9 O 0.5367(5) 0.9406(5) 0.2909(4)
O39_9 O 0.2909(4) 0.9406(5) 0.4633(5)
H58_9 H 0.7002 0.9347 0.5665
H59_9 H 0.5665 0.9347 0.2998
H60_9 H 0.2998 0.9347 0.4335
C34_9 C 0.7190(4) 0.8991(5) 0.5143(3)
C35_9 C 0.5143(3) 0.8991(5) 0.2810(4)
C36_9 C 0.2810(4) 0.8991(5) 0.4857(3)
H61_9 H 0.7495 0.9005 0.5041
H62_9 H 0.5041 0.9005 0.2505
H63_9 H 0.2505 0.9005 0.4959
O40_9 O 0.6960(6) 0.9350(4) 0.4461(4)
O41_9 O 0.4461(4) 0.9350(4) 0.3040(6)
O42_9 O 0.3040(6) 0.9350(4) 0.5539(4)
H64_9 H 0.6929 0.9258 0.4160
H65_9 H 0.4160 0.9258 0.3071
H66_9 H 0.3071 0.9258 0.5840
C37_9 C 0.6890(3) 0.8995(4) 0.4735(3)
C38_9 C 0.4735(3) 0.8995(4) 0.3110(3)
C39_9 C 0.3110(3) 0.8995(4) 0.5265(3)
H67_9 H 0.6583 0.9001 0.4834
H68_9 H 0.4834 0.9001 0.3417
H69_9 H 0.3417 0.9001 0.5166
O43_9 O 0.58445(18) 0.85770(17) 0.6654(4)
O44_9 O 0.6654(4) 0.85770(17) 0.41555(18)
O45_9 O 0.41555(18) 0.85770(17) 0.3346(4)
C40_9 C 0.6979(3) 0.8556(3) 0.4529(3)
C41_9 C 0.4529(3) 0.8556(3) 0.3021(3)
C42_9 C 0.3021(3) 0.8556(3) 0.5471(3)
H70_9 H 0.2723 0.8563 0.5596
H71_9 H 0.4404 0.8563 0.2723
H72_9 H 0.7277 0.8563 0.4404
C43_9 C 0.6940(3) 0.8174(3) 0.4787(3)
C44_9 C 0.4787(3) 0.8174(3) 0.3060(3)
C45_9 C 0.3060(3) 0.8174(3) 0.5213(3)
H73_9 H 0.3365 0.8141 0.5111
H74_9 H 0.4889 0.8141 0.3365
H75_9 H 0.6635 0.8141 0.4889
C46_9 C 0.2921(5) 0.7792(11) 0.5413(7)
C47_9 C 0.4587(7) 0.7792(11) 0.2921(5)
C48_9 C 0.7079(5) 0.7792(11) 0.4587(7)
H83_9 H 0.2942 0.7555 0.5199
H84_9 H 0.4801 0.7555 0.2942
H85_9 H 0.7058 0.7555 0.4801
H86_9 H 0.3124 0.7724 0.5650
H87_9 H 0.4350 0.7724 0.3124
H88_9 H 0.6876 0.7724 0.4350
H94_8 H 0.697535 0.921765 0.758748
H97_10 H 0.241252 0.921765 0.697535
O1_10 O 0.3587(3) 0.3388(5) 0.1864(3)
C1_10 C 0.3749(3) 0.3193(9) 0.1532(4)
H1_10 H 0.3766 0.2877 0.1591
O2_9 O 0.3620(3) 0.3037(6) 0.0738(3)
H2_9 H 0.3935 0.3061 0.0729
C2_10 C 0.3468(3) 0.3280(4) 0.1047(3)
H3_10 H 0.3173 0.3163 0.1104
O3_9 O 0.3145(3) 0.3800(4) 0.0658(3)
H4_9 H 0.3298 0.3725 0.0392
C3_10 C 0.3407(2) 0.3720(6) 0.1008(3)
H5_10 H 0.3696 0.3846 0.0937
O4_10 O 0.32612(18) 0.4417(3) 0.13970(18)
C4_10 C 0.3244(3) 0.3956(6) 0.1474(2)
H6_10 H 0.2945 0.3863 0.1552
C5_10 C 0.3572(3) 0.3880(7) 0.1870(3)
H7_10 H 0.3862 0.4011 0.1815
O5_10 O 0.2915(9) 0.3917(9) 0.2315(6)
H8_10 H 0.2889 0.3603 0.2293
C6_10 C 0.3375(5) 0.4042(8) 0.2278(8)
H9_10 H 0.3398 0.4360 0.2287
H10_10 H 0.3536 0.3924 0.2527
C7_10 C 0.2852(2) 0.4618(4) 0.1359(2)
H11_10 H 0.2631 0.4384 0.1343
O7_10 O 0.2909(4) 0.4633(5) 0.0594(5)
H12_10 H 0.2998 0.4335 0.0653
C8_10 C 0.2810(4) 0.4857(3) 0.1009(5)
H13_10 H 0.2505 0.4959 0.0995
O8_10 O 0.3040(6) 0.5539(4) 0.0650(4)
H14_10 H 0.3071 0.5840 0.0742
C9_10 C 0.3110(3) 0.5265(3) 0.1005(4)
H15_10 H 0.3417 0.5166 0.0999
O9_10 O 0.41555(18) 0.3346(4) 0.14230(17)
C10_10 C 0.3021(3) 0.5471(3) 0.1444(3)
H16_10 H 0.2723 0.5596 0.1437
C11_10 C 0.3060(3) 0.5213(3) 0.1826(3)
H17_10 H 0.3365 0.5111 0.1859
C12_10 C 0.2921(5) 0.5413(7) 0.2208(11)
H19_10 H 0.2942 0.5199 0.2445
H20_10 H 0.3124 0.5650 0.2276
O11_10 O 0.3388(5) 0.6413(3) 0.1864(3)
O12_10 O 0.6413(3) 0.6612(5) 0.1864(3)
O13_10 O 0.6612(5) 0.3587(3) 0.1864(3)
C13_10 C 0.3193(9) 0.6251(3) 0.1532(4)
C14_10 C 0.6251(3) 0.6807(9) 0.1532(4)
C15_10 C 0.6807(9) 0.3749(3) 0.1532(4)
H21_10 H 0.2877 0.6234 0.1591
H22_10 H 0.6234 0.7123 0.1591
H23_10 H 0.7123 0.3766 0.1591
O14_9 O 0.3037(6) 0.6380(3) 0.0738(3)
O15_6 O 0.6380(3) 0.6963(6) 0.0738(3)
O16_6 O 0.6963(6) 0.3620(3) 0.0738(3)
H24_9 H 0.3061 0.6065 0.0729
H25_6 H 0.6065 0.6939 0.0729
H26_6 H 0.6939 0.3935 0.0729
C16_10 C 0.3280(4) 0.6532(3) 0.1047(3)
C17_10 C 0.6532(3) 0.6720(4) 0.1047(3)
C18_10 C 0.6720(4) 0.3468(3) 0.1047(3)
H29_10 H 0.3163 0.6827 0.1104
H30_10 H 0.6827 0.6837 0.1104
H31_10 H 0.6837 0.3173 0.1104
O19_9 O 0.3800(4) 0.6855(3) 0.0658(3)
O20_6 O 0.6855(3) 0.6200(4) 0.0658(3)
O21_6 O 0.6200(4) 0.3145(3) 0.0658(3)
H32_9 H 0.3725 0.6702 0.0392
H33_6 H 0.6702 0.6275 0.0392
H34_6 H 0.6275 0.3298 0.0392
C19_10 C 0.3720(6) 0.6593(2) 0.1008(3)
C20_10 C 0.6593(2) 0.6280(6) 0.1008(3)
C21_10 C 0.6280(6) 0.3407(2) 0.1008(3)
H37_10 H 0.3846 0.6304 0.0937
H38_10 H 0.6304 0.6154 0.0937
H39_10 H 0.6154 0.3696 0.0937
O24_10 O 0.4417(3) 0.67388(18) 0.13970(18)
O25_10 O 0.67388(18) 0.5583(3) 0.13970(18)
O26_10 O 0.5583(3) 0.32612(18) 0.13970(18)
C22_10 C 0.3956(6) 0.6756(3) 0.1474(2)
C23_10 C 0.6756(3) 0.6044(6) 0.1474(2)
C24_10 C 0.6044(6) 0.3244(3) 0.1474(2)
H40_10 H 0.6137 0.2945 0.1552
H41_10 H 0.7055 0.6137 0.1552
H42_10 H 0.3863 0.7055 0.1552
C25_10 C 0.3880(7) 0.6428(3) 0.1870(3)
C26_10 C 0.6428(3) 0.6120(7) 0.1870(3)
C27_10 C 0.6120(7) 0.3572(3) 0.1870(3)
H43_10 H 0.5989 0.3862 0.1815
H44_10 H 0.6138 0.5989 0.1815
H45_10 H 0.4011 0.6138 0.1815
O27_10 O 0.6083(9) 0.2915(9) 0.2315(6)
O28_10 O 0.7085(9) 0.6083(9) 0.2315(6)
O29_10 O 0.3917(9) 0.7085(9) 0.2315(6)
H46_10 H 0.6397 0.2889 0.2293
H47_10 H 0.7111 0.6397 0.2293
H48_10 H 0.3603 0.7111 0.2293
C28_10 C 0.5958(8) 0.3375(5) 0.2278(8)
C29_10 C 0.6625(5) 0.5958(8) 0.2278(8)
C30_10 C 0.4042(8) 0.6625(5) 0.2278(8)
H49_10 H 0.5640 0.3398 0.2287
H50_10 H 0.6602 0.5640 0.2287
H51_10 H 0.4360 0.6602 0.2287
H52_10 H 0.6076 0.3536 0.2527
H53_10 H 0.6464 0.6076 0.2527
H54_10 H 0.3924 0.6464 0.2527
C31_10 C 0.4618(4) 0.7148(2) 0.1359(2)
C32_10 C 0.7148(2) 0.5382(4) 0.1359(2)
C33_10 C 0.5382(4) 0.2852(2) 0.1359(2)
H55_10 H 0.4384 0.7369 0.1343
H56_10 H 0.7369 0.5616 0.1343
H57_10 H 0.5616 0.2631 0.1343
O37_10 O 0.4633(5) 0.7091(4) 0.0594(5)
O38_10 O 0.7091(4) 0.5367(5) 0.0594(5)
O39_10 O 0.5367(5) 0.2909(4) 0.0594(5)
H58_10 H 0.4335 0.7002 0.0653
H59_10 H 0.7002 0.5665 0.0653
H60_10 H 0.5665 0.2998 0.0653
C34_10 C 0.4857(3) 0.7190(4) 0.1009(5)
C35_10 C 0.7190(4) 0.5143(3) 0.1009(5)
C36_10 C 0.5143(3) 0.2810(4) 0.1009(5)
H61_10 H 0.4959 0.7495 0.0995
H62_10 H 0.7495 0.5041 0.0995
H63_10 H 0.5041 0.2505 0.0995
O40_10 O 0.5539(4) 0.6960(6) 0.0650(4)
O41_10 O 0.6960(6) 0.4461(4) 0.0650(4)
O42_10 O 0.4461(4) 0.3040(6) 0.0650(4)
H64_10 H 0.5840 0.6929 0.0742
H65_10 H 0.6929 0.4160 0.0742
H66_10 H 0.4160 0.3071 0.0742
C37_10 C 0.5265(3) 0.6890(3) 0.1005(4)
C38_10 C 0.6890(3) 0.4735(3) 0.1005(4)
C39_10 C 0.4735(3) 0.3110(3) 0.1005(4)
H67_10 H 0.5166 0.6583 0.0999
H68_10 H 0.6583 0.4834 0.0999
H69_10 H 0.4834 0.3417 0.0999
O43_10 O 0.3346(4) 0.58445(18) 0.14230(17)
O44_10 O 0.58445(18) 0.6654(4) 0.14230(17)
O45_10 O 0.6654(4) 0.41555(18) 0.14230(17)
C40_10 C 0.5471(3) 0.6979(3) 0.1444(3)
C41_10 C 0.6979(3) 0.4529(3) 0.1444(3)
C42_10 C 0.4529(3) 0.3021(3) 0.1444(3)
H70_10 H 0.4404 0.2723 0.1437
H71_10 H 0.7277 0.4404 0.1437
H72_10 H 0.5596 0.7277 0.1437
C43_10 C 0.5213(3) 0.6940(3) 0.1826(3)
C44_10 C 0.6940(3) 0.4787(3) 0.1826(3)
C45_10 C 0.4787(3) 0.3060(3) 0.1826(3)
H73_10 H 0.4889 0.3365 0.1859
H74_10 H 0.6635 0.4889 0.1859
H75_10 H 0.5111 0.6635 0.1859
C46_10 C 0.4587(7) 0.2921(5) 0.2208(11)
C47_10 C 0.7079(5) 0.4587(7) 0.2208(11)
C48_10 C 0.5413(7) 0.7079(5) 0.2208(11)
H83_10 H 0.4801 0.2942 0.2445
H84_10 H 0.7058 0.4801 0.2445
H85_10 H 0.5199 0.7058 0.2445
H86_10 H 0.4350 0.3124 0.2276
H87_10 H 0.6876 0.4350 0.2276
H88_10 H 0.5650 0.6876 0.2276
H94_9 H 0.241252 0.697535 0.0782354
H97_11 H 0.302465 0.241252 0.0782354
O17_8 O 0.3037(6) 0.3620(3) 0.9262(3)
O18_6 O 0.3620(3) 0.6963(6) 0.9262(3)
H27_8 H 0.3061 0.3935 0.9271
H28_6 H 0.3935 0.6939 0.9271
O22_8 O 0.3800(4) 0.3145(3) 0.9342(3)
O23_6 O 0.3145(3) 0.6200(4) 0.9342(3)
H35_8 H 0.3725 0.3298 0.9608
H36_6 H 0.3298 0.6275 0.9608
H89_14 H 0.355594 0.725135 0.913824
H90_18 H 0.274865 0.355594 0.913824
H91_14 H 0.327207 0.624534 0.905154
H92_18 H 0.375466 0.327207 0.905154
H95_9 H 0.302465 0.758748 0.921765
H96_11 H 0.241252 0.302465 0.921765
H89_15 H 0.274865 0.0861759 0.355594
H90_19 H 0.644406 0.0861759 0.274865
H91_15 H 0.375466 0.0948455 0.327207
H92_19 H 0.672793 0.0948455 0.375466
O1_11 O 0.1864(3) 0.3388(5) 0.6413(3)
C1_11 C 0.1532(4) 0.3193(9) 0.6251(3)
H1_11 H 0.1591 0.2877 0.6234
O2_10 O 0.0738(3) 0.3037(6) 0.6380(3)
H2_10 H 0.0729 0.3061 0.6065
C2_11 C 0.1047(3) 0.3280(4) 0.6532(3)
H3_11 H 0.1104 0.3163 0.6827
O3_10 O 0.0658(3) 0.3800(4) 0.6855(3)
H4_10 H 0.0392 0.3725 0.6702
C3_11 C 0.1008(3) 0.3720(6) 0.6593(2)
H5_11 H 0.0937 0.3846 0.6304
O4_11 O 0.13970(18) 0.4417(3) 0.67388(18)
C4_11 C 0.1474(2) 0.3956(6) 0.6756(3)
H6_11 H 0.1552 0.3863 0.7055
C5_11 C 0.1870(3) 0.3880(7) 0.6428(3)
H7_11 H 0.1815 0.4011 0.6138
O5_11 O 0.2315(6) 0.3917(9) 0.7085(9)
H8_11 H 0.2293 0.3603 0.7111
C6_11 C 0.2278(8) 0.4042(8) 0.6625(5)
H9_11 H 0.2287 0.4360 0.6602
H10_11 H 0.2527 0.3924 0.6464
C7_11 C 0.1359(2) 0.4618(4) 0.7148(2)
H11_11 H 0.1343 0.4384 0.7369
O7_11 O 0.0594(5) 0.4633(5) 0.7091(4)
H12_11 H 0.0653 0.4335 0.7002
C8_11 C 0.1009(5) 0.4857(3) 0.7190(4)
H13_11 H 0.0995 0.4959 0.7495
O8_11 O 0.0650(4) 0.5539(4) 0.6960(6)
H14_11 H 0.0742 0.5840 0.6929
C9_11 C 0.1005(4) 0.5265(3) 0.6890(3)
H15_11 H 0.0999 0.5166 0.6583
O9_11 O 0.14230(17) 0.3346(4) 0.58445(18)
C10_11 C 0.1444(3) 0.5471(3) 0.6979(3)
H16_11 H 0.1437 0.5596 0.7277
C11_11 C 0.1826(3) 0.5213(3) 0.6940(3)
H17_11 H 0.1859 0.5111 0.6635
C12_11 C 0.2208(11) 0.5413(7) 0.7079(5)
H19_11 H 0.2445 0.5199 0.7058
H20_11 H 0.2276 0.5650 0.6876
O11_11 O 0.1864(3) 0.6413(3) 0.6612(5)
O12_11 O 0.1864(3) 0.6612(5) 0.3587(3)
O13_11 O 0.1864(3) 0.3587(3) 0.3388(5)
C13_11 C 0.1532(4) 0.6251(3) 0.6807(9)
C14_11 C 0.1532(4) 0.6807(9) 0.3749(3)
C15_11 C 0.1532(4) 0.3749(3) 0.3193(9)
H21_11 H 0.1591 0.6234 0.7123
H22_11 H 0.1591 0.7123 0.3766
H23_11 H 0.1591 0.3766 0.2877
O14_10 O 0.0738(3) 0.6380(3) 0.6963(6)
H24_10 H 0.0729 0.6065 0.6939
C16_11 C 0.1047(3) 0.6532(3) 0.6720(4)
C17_11 C 0.1047(3) 0.6720(4) 0.3468(3)
C18_11 C 0.1047(3) 0.3468(3) 0.3280(4)
H29_11 H 0.1104 0.6827 0.6837
H30_11 H 0.1104 0.6837 0.3173
H31_11 H 0.1104 0.3173 0.3163
O19_10 O 0.0658(3) 0.6855(3) 0.6200(4)
H32_10 H 0.0392 0.6702 0.6275
C19_11 C 0.1008(3) 0.6593(2) 0.6280(6)
C20_11 C 0.1008(3) 0.6280(6) 0.3407(2)
C21_11 C 0.1008(3) 0.3407(2) 0.3720(6)
H37_11 H 0.0937 0.6304 0.6154
H38_11 H 0.0937 0.6154 0.3696
H39_11 H 0.0937 0.3696 0.3846
O24_11 O 0.13970(18) 0.67388(18) 0.5583(3)
O25_11 O 0.13970(18) 0.5583(3) 0.32612(18)
O26_11 O 0.13970(18) 0.32612(18) 0.4417(3)
C22_11 C 0.1474(2) 0.6756(3) 0.6044(6)
C23_11 C 0.1474(2) 0.6044(6) 0.3244(3)
C24_11 C 0.1474(2) 0.3244(3) 0.3956(6)
H40_11 H 0.1552 0.2945 0.3863
H41_11 H 0.1552 0.6137 0.2945
H42_11 H 0.1552 0.7055 0.6137
C25_11 C 0.1870(3) 0.6428(3) 0.6120(7)
C26_11 C 0.1870(3) 0.6120(7) 0.3572(3)
C27_11 C 0.1870(3) 0.3572(3) 0.3880(7)
H43_11 H 0.1815 0.3862 0.4011
H44_11 H 0.1815 0.5989 0.3862
H45_11 H 0.1815 0.6138 0.5989
O27_11 O 0.2315(6) 0.2915(9) 0.3917(9)
O28_11 O 0.2315(6) 0.6083(9) 0.2915(9)
O29_11 O 0.2315(6) 0.7085(9) 0.6083(9)
H46_11 H 0.2293 0.2889 0.3603
H47_11 H 0.2293 0.6397 0.2889
H48_11 H 0.2293 0.7111 0.6397
C28_11 C 0.2278(8) 0.3375(5) 0.4042(8)
C29_11 C 0.2278(8) 0.5958(8) 0.3375(5)
C30_11 C 0.2278(8) 0.6625(5) 0.5958(8)
H49_11 H 0.2287 0.3398 0.4360
H50_11 H 0.2287 0.5640 0.3398
H51_11 H 0.2287 0.6602 0.5640
H52_11 H 0.2527 0.3536 0.3924
H53_11 H 0.2527 0.6076 0.3536
H54_11 H 0.2527 0.6464 0.6076
C31_11 C 0.1359(2) 0.7148(2) 0.5382(4)
C32_11 C 0.1359(2) 0.5382(4) 0.2852(2)
C33_11 C 0.1359(2) 0.2852(2) 0.4618(4)
H55_11 H 0.1343 0.7369 0.5616
H56_11 H 0.1343 0.5616 0.2631
H57_11 H 0.1343 0.2631 0.4384
O37_11 O 0.0594(5) 0.7091(4) 0.5367(5)
O38_11 O 0.0594(5) 0.5367(5) 0.2909(4)
O39_11 O 0.0594(5) 0.2909(4) 0.4633(5)
H58_11 H 0.0653 0.7002 0.5665
H59_11 H 0.0653 0.5665 0.2998
H60_11 H 0.0653 0.2998 0.4335
C34_11 C 0.1009(5) 0.7190(4) 0.5143(3)
C35_11 C 0.1009(5) 0.5143(3) 0.2810(4)
C36_11 C 0.1009(5) 0.2810(4) 0.4857(3)
H61_11 H 0.0995 0.7495 0.5041
H62_11 H 0.0995 0.5041 0.2505
H63_11 H 0.0995 0.2505 0.4959
O40_11 O 0.0650(4) 0.6960(6) 0.4461(4)
O41_11 O 0.0650(4) 0.4461(4) 0.3040(6)
O42_11 O 0.0650(4) 0.3040(6) 0.5539(4)
H64_11 H 0.0742 0.6929 0.4160
H65_11 H 0.0742 0.4160 0.3071
H66_11 H 0.0742 0.3071 0.5840
C37_11 C 0.1005(4) 0.6890(3) 0.4735(3)
C38_11 C 0.1005(4) 0.4735(3) 0.3110(3)
C39_11 C 0.1005(4) 0.3110(3) 0.5265(3)
H67_11 H 0.0999 0.6583 0.4834
H68_11 H 0.0999 0.4834 0.3417
H69_11 H 0.0999 0.3417 0.5166
O43_11 O 0.14230(17) 0.58445(18) 0.6654(4)
O44_11 O 0.14230(17) 0.6654(4) 0.41555(18)
O45_11 O 0.14230(17) 0.41555(18) 0.3346(4)
C40_11 C 0.1444(3) 0.6979(3) 0.4529(3)
C41_11 C 0.1444(3) 0.4529(3) 0.3021(3)
C42_11 C 0.1444(3) 0.3021(3) 0.5471(3)
H70_11 H 0.1437 0.2723 0.5596
H71_11 H 0.1437 0.4404 0.2723
H72_11 H 0.1437 0.7277 0.4404
C43_11 C 0.1826(3) 0.6940(3) 0.4787(3)
C44_11 C 0.1826(3) 0.4787(3) 0.3060(3)
C45_11 C 0.1826(3) 0.3060(3) 0.5213(3)
H73_11 H 0.1859 0.3365 0.5111
H74_11 H 0.1859 0.4889 0.3365
H75_11 H 0.1859 0.6635 0.4889
C46_11 C 0.2208(11) 0.2921(5) 0.5413(7)
C47_11 C 0.2208(11) 0.4587(7) 0.2921(5)
C48_11 C 0.2208(11) 0.7079(5) 0.4587(7)
H83_11 H 0.2445 0.2942 0.5199
H84_11 H 0.2445 0.4801 0.2942
H85_11 H 0.2445 0.7058 0.4801
H86_11 H 0.2276 0.3124 0.5650
H87_11 H 0.2276 0.4350 0.3124
H88_11 H 0.2276 0.6876 0.4350
H94_10 H 0.0782354 0.697535 0.758748
H97_12 H 0.0782354 0.241252 0.697535
H89_16 H 0.913824 0.725135 0.644406
H90_20 H 0.913824 0.355594 0.725135
H91_16 H 0.905154 0.624534 0.672793
H92_20 H 0.905154 0.327207 0.624534
H95_10 H 0.921765 0.758748 0.697535
H96_12 H 0.921765 0.302465 0.758748
H97_13 H 0.758748 0.302465 0.0782354
O17_9 O 0.6380(3) 0.3037(6) 0.9262(3)
H27_9 H 0.6065 0.3061 0.9271
O22_9 O 0.6855(3) 0.3800(4) 0.9342(3)
H35_9 H 0.6702 0.3725 0.9608
H90_21 H 0.644406 0.274865 0.913824
H92_21 H 0.672793 0.375466 0.905154
H96_13 H 0.697535 0.241252 0.921765
H89_17 H 0.913824 0.274865 0.355594
H90_22 H 0.913824 0.644406 0.274865
H91_17 H 0.905154 0.375466 0.327207
H92_22 H 0.905154 0.672793 0.375466
H89_18 H 0.274865 0.913824 0.644406
H90_23 H 0.644406 0.913824 0.725135
H91_18 H 0.375466 0.905154 0.672793
H92_23 H 0.672793 0.905154 0.624534
H97_14 H 0.697535 0.758748 0.0782354
O17_10 O 0.6963(6) 0.6380(3) 0.9262(3)
H27_10 H 0.6939 0.6065 0.9271
O22_10 O 0.6200(4) 0.6855(3) 0.9342(3)
H35_10 H 0.6275 0.6702 0.9608
H90_24 H 0.725135 0.644406 0.913824
H92_24 H 0.624534 0.672793 0.905154
H96_14 H 0.758748 0.697535 0.921765
H89_19 H 0.0861759 0.274865 0.644406
H90_25 H 0.0861759 0.644406 0.725135
H91_19 H 0.0948455 0.375466 0.672793
H92_25 H 0.0948455 0.672793 0.624534
H89_20 H 0.355594 0.274865 0.0861759
H90_26 H 0.274865 0.644406 0.0861759
H91_20 H 0.327207 0.375466 0.0948455
H92_26 H 0.375466 0.672793 0.0948455
O1_12 O 0.3587(3) 0.6612(5) 0.8136(3)
C1_12 C 0.3749(3) 0.6807(9) 0.8468(4)
H1_12 H 0.3766 0.7123 0.8409
C2_12 C 0.3468(3) 0.6720(4) 0.8953(3)
H3_12 H 0.3173 0.6837 0.8896
C3_12 C 0.3407(2) 0.6280(6) 0.8992(3)
H5_12 H 0.3696 0.6154 0.9063
O4_12 O 0.32612(18) 0.5583(3) 0.86030(18)
C4_12 C 0.3244(3) 0.6044(6) 0.8526(2)
H6_12 H 0.2945 0.6137 0.8448
C5_12 C 0.3572(3) 0.6120(7) 0.8130(3)
H7_12 H 0.3862 0.5989 0.8185
O5_12 O 0.2915(9) 0.6083(9) 0.7685(6)
H8_12 H 0.2889 0.6397 0.7707
C6_12 C 0.3375(5) 0.5958(8) 0.7722(8)
H9_12 H 0.3398 0.5640 0.7713
H10_12 H 0.3536 0.6076 0.7473
C7_12 C 0.2852(2) 0.5382(4) 0.8641(2)
H11_12 H 0.2631 0.5616 0.8657
O7_12 O 0.2909(4) 0.5367(5) 0.9406(5)
H12_12 H 0.2998 0.5665 0.9347
C8_12 C 0.2810(4) 0.5143(3) 0.8991(5)
H13_12 H 0.2505 0.5041 0.9005
O8_12 O 0.3040(6) 0.4461(4) 0.9350(4)
H14_12 H 0.3071 0.4160 0.9258
C9_12 C 0.3110(3) 0.4735(3) 0.8995(4)
H15_12 H 0.3417 0.4834 0.9001
O9_12 O 0.41555(18) 0.6654(4) 0.85770(17)
C10_12 C 0.3021(3) 0.4529(3) 0.8556(3)
H16_12 H 0.2723 0.4404 0.8563
C11_12 C 0.3060(3) 0.4787(3) 0.8174(3)
H17_12 H 0.3365 0.4889 0.8141
C12_12 C 0.2921(5) 0.4587(7) 0.7792(11)
H19_12 H 0.2942 0.4801 0.7555
H20_12 H 0.3124 0.4350 0.7724
O11_12 O 0.3388(5) 0.3587(3) 0.8136(3)
O12_12 O 0.6413(3) 0.3388(5) 0.8136(3)
O13_12 O 0.6612(5) 0.6413(3) 0.8136(3)
C13_12 C 0.3193(9) 0.3749(3) 0.8468(4)
C14_12 C 0.6251(3) 0.3193(9) 0.8468(4)
C15_12 C 0.6807(9) 0.6251(3) 0.8468(4)
H21_12 H 0.2877 0.3766 0.8409
H22_12 H 0.6234 0.2877 0.8409
H23_12 H 0.7123 0.6234 0.8409
C16_12 C 0.3280(4) 0.3468(3) 0.8953(3)
C17_12 C 0.6532(3) 0.3280(4) 0.8953(3)
C18_12 C 0.6720(4) 0.6532(3) 0.8953(3)
H29_12 H 0.3163 0.3173 0.8896
H30_12 H 0.6827 0.3163 0.8896
H31_12 H 0.6837 0.6827 0.8896
C19_12 C 0.3720(6) 0.3407(2) 0.8992(3)
C20_12 C 0.6593(2) 0.3720(6) 0.8992(3)
C21_12 C 0.6280(6) 0.6593(2) 0.8992(3)
H37_12 H 0.3846 0.3696 0.9063
H38_12 H 0.6304 0.3846 0.9063
H39_12 H 0.6154 0.6304 0.9063
O24_12 O 0.4417(3) 0.32612(18) 0.86030(18)
O25_12 O 0.67388(18) 0.4417(3) 0.86030(18)
O26_12 O 0.5583(3) 0.67388(18) 0.86030(18)
C22_12 C 0.3956(6) 0.3244(3) 0.8526(2)
C23_12 C 0.6756(3) 0.3956(6) 0.8526(2)
C24_12 C 0.6044(6) 0.6756(3) 0.8526(2)
H40_12 H 0.6137 0.7055 0.8448
H41_12 H 0.7055 0.3863 0.8448
H42_12 H 0.3863 0.2945 0.8448
C25_12 C 0.3880(7) 0.3572(3) 0.8130(3)
C26_12 C 0.6428(3) 0.3880(7) 0.8130(3)
C27_12 C 0.6120(7) 0.6428(3) 0.8130(3)
H43_12 H 0.5989 0.6138 0.8185
H44_12 H 0.6138 0.4011 0.8185
H45_12 H 0.4011 0.3862 0.8185
O27_12 O 0.6083(9) 0.7085(9) 0.7685(6)
O28_12 O 0.7085(9) 0.3917(9) 0.7685(6)
O29_12 O 0.3917(9) 0.2915(9) 0.7685(6)
H46_12 H 0.6397 0.7111 0.7707
H47_12 H 0.7111 0.3603 0.7707
H48_12 H 0.3603 0.2889 0.7707
C28_12 C 0.5958(8) 0.6625(5) 0.7722(8)
C29_12 C 0.6625(5) 0.4042(8) 0.7722(8)
C30_12 C 0.4042(8) 0.3375(5) 0.7722(8)
H49_12 H 0.5640 0.6602 0.7713
H50_12 H 0.6602 0.4360 0.7713
H51_12 H 0.4360 0.3398 0.7713
H52_12 H 0.6076 0.6464 0.7473
H53_12 H 0.6464 0.3924 0.7473
H54_12 H 0.3924 0.3536 0.7473
C31_12 C 0.4618(4) 0.2852(2) 0.8641(2)
C32_12 C 0.7148(2) 0.4618(4) 0.8641(2)
C33_12 C 0.5382(4) 0.7148(2) 0.8641(2)
H55_12 H 0.4384 0.2631 0.8657
H56_12 H 0.7369 0.4384 0.8657
H57_12 H 0.5616 0.7369 0.8657
O37_12 O 0.4633(5) 0.2909(4) 0.9406(5)
O38_12 O 0.7091(4) 0.4633(5) 0.9406(5)
O39_12 O 0.5367(5) 0.7091(4) 0.9406(5)
H58_12 H 0.4335 0.2998 0.9347
H59_12 H 0.7002 0.4335 0.9347
H60_12 H 0.5665 0.7002 0.9347
C34_12 C 0.4857(3) 0.2810(4) 0.8991(5)
C35_12 C 0.7190(4) 0.4857(3) 0.8991(5)
C36_12 C 0.5143(3) 0.7190(4) 0.8991(5)
H61_12 H 0.4959 0.2505 0.9005
H62_12 H 0.7495 0.4959 0.9005
H63_12 H 0.5041 0.7495 0.9005
O40_12 O 0.5539(4) 0.3040(6) 0.9350(4)
O41_12 O 0.6960(6) 0.5539(4) 0.9350(4)
O42_12 O 0.4461(4) 0.6960(6) 0.9350(4)
H64_12 H 0.5840 0.3071 0.9258
H65_12 H 0.6929 0.5840 0.9258
H66_12 H 0.4160 0.6929 0.9258
C37_12 C 0.5265(3) 0.3110(3) 0.8995(4)
C38_12 C 0.6890(3) 0.5265(3) 0.8995(4)
C39_12 C 0.4735(3) 0.6890(3) 0.8995(4)
H67_12 H 0.5166 0.3417 0.9001
H68_12 H 0.6583 0.5166 0.9001
H69_12 H 0.4834 0.6583 0.9001
O43_12 O 0.3346(4) 0.41555(18) 0.85770(17)
O44_12 O 0.58445(18) 0.3346(4) 0.85770(17)
O45_12 O 0.6654(4) 0.58445(18) 0.85770(17)
C40_12 C 0.5471(3) 0.3021(3) 0.8556(3)
C41_12 C 0.6979(3) 0.5471(3) 0.8556(3)
C42_12 C 0.4529(3) 0.6979(3) 0.8556(3)
H70_12 H 0.4404 0.7277 0.8563
H71_12 H 0.7277 0.5596 0.8563
H72_12 H 0.5596 0.2723 0.8563
C43_12 C 0.5213(3) 0.3060(3) 0.8174(3)
C44_12 C 0.6940(3) 0.5213(3) 0.8174(3)
C45_12 C 0.4787(3) 0.6940(3) 0.8174(3)
H73_12 H 0.4889 0.6635 0.8141
H74_12 H 0.6635 0.5111 0.8141
H75_12 H 0.5111 0.3365 0.8141
C46_12 C 0.4587(7) 0.7079(5) 0.7792(11)
C47_12 C 0.7079(5) 0.5413(7) 0.7792(11)
C48_12 C 0.5413(7) 0.2921(5) 0.7792(11)
H83_12 H 0.4801 0.7058 0.7555
H84_12 H 0.7058 0.5199 0.7555
H85_12 H 0.5199 0.2942 0.7555
H86_12 H 0.4350 0.6876 0.7724
H87_12 H 0.6876 0.5650 0.7724
H88_12 H 0.5650 0.3124 0.7724
H90_27 H 0.644406 0.725135 0.0861759
H92_27 H 0.672793 0.624534 0.0948455
H90_28 H 0.725135 0.355594 0.0861759
H92_28 H 0.624534 0.327207 0.0948455
O53 O 0.7741(14) 0.6973(11) 0.7204(8)
H93 H 0.806126 0.6973 0.7204
O53_2 O 0.3027(11) 0.7741(14) 0.7204(8)
H93_2 H 0.3027 0.806126 0.7204
O53_3 O 0.7741(14) 0.3027(11) 0.2796(8)
H93_3 H 0.806126 0.3027 0.2796
O53_4 O 0.7204(8) 0.7741(14) 0.6973(11)
H93_4 H 0.7204 0.806126 0.6973
O53_5 O 0.2259(14) 0.3027(11) 0.7204(8)
H93_5 H 0.193874 0.3027 0.7204
O53_6 O 0.6973(11) 0.7741(14) 0.2796(8)
H93_6 H 0.6973 0.806126 0.2796
O53_7 O 0.2259(14) 0.7204(8) 0.6973(11)
H93_7 H 0.193874 0.7204 0.6973
O53_8 O 0.6973(11) 0.2259(14) 0.7204(8)
H93_8 H 0.6973 0.193874 0.7204
O53_9 O 0.2259(14) 0.6973(11) 0.2796(8)
H93_9 H 0.193874 0.6973 0.2796
O53_10 O 0.2796(8) 0.2259(14) 0.6973(11)
H93_10 H 0.2796 0.193874 0.6973
O53_11 O 0.3027(11) 0.2259(14) 0.2796(8)
H93_11 H 0.3027 0.193874 0.2796
O53_12 O 0.7741(14) 0.2796(8) 0.6973(11)
H93_12 H 0.806126 0.2796 0.6973
O53_13 O 0.7204(8) 0.2259(14) 0.3027(11)
H93_13 H 0.7204 0.193874 0.3027
O53_14 O 0.2259(14) 0.2796(8) 0.3027(11)
H93_14 H 0.193874 0.2796 0.3027
O53_15 O 0.2796(8) 0.7741(14) 0.3027(11)
H93_15 H 0.2796 0.806126 0.3027
O53_16 O 0.7741(14) 0.7204(8) 0.3027(11)
H93_16 H 0.806126 0.7204 0.3027
O53_17 O 0.6973(11) 0.7204(8) 0.7741(14)
H93_17 H 0.6973 0.7204 0.806126
O53_18 O 0.2796(8) 0.6973(11) 0.7741(14)
H93_18 H 0.2796 0.6973 0.806126
O53_19 O 0.7204(8) 0.6973(11) 0.2259(14)
H93_19 H 0.7204 0.6973 0.193874
O53_20 O 0.6973(11) 0.2796(8) 0.2259(14)
H93_20 H 0.6973 0.2796 0.193874
O53_21 O 0.2796(8) 0.3027(11) 0.2259(14)
H93_21 H 0.2796 0.3027 0.193874
O53_22 O 0.3027(11) 0.7204(8) 0.2259(14)
H93_22 H 0.3027 0.7204 0.193874
O53_23 O 0.3027(11) 0.2796(8) 0.7741(14)
H93_23 H 0.3027 0.2796 0.806126
O53_24 O 0.7204(8) 0.3027(11) 0.7741(14)
H93_24 H 0.7204 0.3027 0.806126
O53_25 O 0.2741(14) 0.1973(11) 0.2204(8)
H93_25 H 0.306126 0.1973 0.2204
O53_26 O 0.8027(11) 0.2741(14) 0.2204(8)
H93_26 H 0.8027 0.306126 0.2204
O53_27 O 0.2741(14) 0.8027(11) 0.7796(8)
H93_27 H 0.306126 0.8027 0.7796
O53_28 O 0.2204(8) 0.2741(14) 0.1973(11)
H93_28 H 0.2204 0.306126 0.1973
O53_29 O 0.7259(14) 0.8027(11) 0.2204(8)
H93_29 H 0.693874 0.8027 0.2204
O53_30 O 0.1973(11) 0.2741(14) 0.7796(8)
H93_30 H 0.1973 0.306126 0.7796
O53_31 O 0.7259(14) 0.2204(8) 0.1973(11)
H93_31 H 0.693874 0.2204 0.1973
O53_32 O 0.1973(11) 0.7259(14) 0.2204(8)
H93_32 H 0.1973 0.693874 0.2204
O53_33 O 0.7259(14) 0.1973(11) 0.7796(8)
H93_33 H 0.693874 0.1973 0.7796
O53_34 O 0.7796(8) 0.7259(14) 0.1973(11)
H93_34 H 0.7796 0.693874 0.1973
O53_35 O 0.8027(11) 0.7259(14) 0.7796(8)
H93_35 H 0.8027 0.693874 0.7796
O53_36 O 0.2741(14) 0.7796(8) 0.1973(11)
H93_36 H 0.306126 0.7796 0.1973
O53_37 O 0.2204(8) 0.7259(14) 0.8027(11)
H93_37 H 0.2204 0.693874 0.8027
O53_38 O 0.7259(14) 0.7796(8) 0.8027(11)
H93_38 H 0.693874 0.7796 0.8027
O53_39 O 0.7796(8) 0.2741(14) 0.8027(11)
H93_39 H 0.7796 0.306126 0.8027
O53_40 O 0.2741(14) 0.2204(8) 0.8027(11)
H93_40 H 0.306126 0.2204 0.8027
O53_41 O 0.1973(11) 0.2204(8) 0.2741(14)
H93_41 H 0.1973 0.2204 0.306126
O53_42 O 0.7796(8) 0.1973(11) 0.2741(14)
H93_42 H 0.7796 0.1973 0.306126
O53_43 O 0.2204(8) 0.1973(11) 0.7259(14)
H93_43 H 0.2204 0.1973 0.693874
O53_44 O 0.1973(11) 0.7796(8) 0.7259(14)
H93_44 H 0.1973 0.7796 0.693874
O53_45 O 0.7796(8) 0.8027(11) 0.7259(14)
H93_45 H 0.7796 0.8027 0.693874
O53_46 O 0.8027(11) 0.2204(8) 0.7259(14)
H93_46 H 0.8027 0.2204 0.693874
O53_47 O 0.8027(11) 0.7796(8) 0.2741(14)
H93_47 H 0.8027 0.7796 0.306126
O53_48 O 0.2204(8) 0.8027(11) 0.2741(14)
H93_48 H 0.2204 0.8027 0.306126
loop_
_geom_bond_atom_site_label_1
_geom_bond_atom_site_label_2
_geom_bond_site_symmetry_1
_geom_bond_site_symmetry_2
K5 O15 1_555 1_555
K6 O31 1_555 1_555
O12 C14 1_555 1_555
C14 H22 1_555 1_555
O15 H25 1_555 1_555
C17 C14 1_555 1_555
H30 C17 1_555 1_555
O20 K5 1_555 1_555
H33 O20 1_555 1_555
C20 C17 1_555 1_555
H38 C20 1_555 1_555
O25 C23 1_555 1_555
C23 C20 1_555 1_555
H41 C23 1_555 1_555
C26 O12 1_555 1_555
H44 C26 1_555 1_555
O28 H47 1_555 1_555
C29 C26 1_555 1_555
H50 C29 1_555 1_555
H53 C29 1_555 1_555
O31 C32 1_555 1_555
C32 O25 1_555 1_555
H56 C32 1_555 1_555
O38 H59 1_555 1_555
C35 C32 1_555 1_555
H62 C35 1_555 1_555
O40 H64 1_555 1_555
H67 C37 1_555 1_555
O44 C14 1_555 1_555
C40 C37 1_555 1_555
H72 C40 1_555 1_555
H75 C43 1_555 1_555
O48 K4 1_555 1_555
H78 O48 1_555 1_555
C48 C43 1_555 1_555
H85 C48 1_555 1_555
H88 C48 1_555 1_555
O15 C17 1_555 1_555
O20 C20 1_555 1_555
C23 C26 1_555 1_555
O28 C29 1_555 1_555
O38 C35 1_555 1_555
O40 C37 1_555 1_555
O44 C40 1_555 1_555
C40 C43 1_555 1_555
O48 C48 1_555 1_555
O8 H14 1_555 1_555
H15 C9 1_555 1_555
C10 C9 1_555 1_555
H16 C10 1_555 1_555
H17 C11 1_555 1_555
O10 H18 1_555 1_555
C12 C11 1_555 1_555
H19 C12 1_555 1_555
H20 C12 1_555 1_555
K2 O14 1_555 1_555
K4_2 O30 1_555 1_555
O11 C13 1_555 1_555
C13 H21 1_555 1_555
O14 H24 1_555 1_555
O18 K2 1_555 1_555
H28 O18 1_555 1_555
C16 C13 1_555 1_555
H29 C16 1_555 1_555
O19 K2 1_555 1_555
O23 K2 1_555 1_555
H32 O19 1_555 1_555
H36 O23 1_555 1_555
C19 C16 1_555 1_555
H37 C19 1_555 1_555
O24 C22 1_555 1_555
C22 C19 1_555 1_555
H42 C22 1_555 1_555
C25 O11 1_555 1_555
H45 C25 1_555 1_555
O29 H48 1_555 1_555
C30 C25 1_555 1_555
H51 C30 1_555 1_555
H54 C30 1_555 1_555
O30 C31 1_555 1_555
O35 K2 1_555 1_555
O36 K2 1_555 1_555
C31 O24 1_555 1_555
H55 C31 1_555 1_555
O37 H58 1_555 1_555
C34 C31 1_555 1_555
H61 C34 1_555 1_555
O43 C10 1_555 1_555
O51 K2 1_555 1_555
O52 K2 1_555 1_555
H81 O51 1_555 1_555
H82 O52 1_555 1_555
O8 C9 1_555 1_555
C10 C11 1_555 1_555
O10 C12 1_555 1_555
O10 K3 1_555 1_555
C13 O43 1_555 1_555
O14 C16 1_555 1_555
O19 C19 1_555 1_555
C22 C25 1_555 1_555
O29 C30 1_555 1_555
O37 C34 1_555 1_555
O18 H89 1_555 1_555
O23 H91 1_555 1_555
O52 H94 1_555 1_555
O51 H95 1_555 1_555
K7 O16 1_555 1_555
K8 O32 1_555 1_555
O13 C15 1_555 1_555
C15 H23 1_555 1_555
O16 H26 1_555 1_555
C18 C15 1_555 1_555
H31 C18 1_555 1_555
O21 K7 1_555 1_555
H34 O21 1_555 1_555
C21 C18 1_555 1_555
H39 C21 1_555 1_555
O26 C24 1_555 1_555
C24 C21 1_555 1_555
H40 C24 1_555 1_555
C27 O13 1_555 1_555
H43 C27 1_555 1_555
O27 H46 1_555 1_555
C28 C27 1_555 1_555
H49 C28 1_555 1_555
H52 C28 1_555 1_555
O32 C33 1_555 1_555
C33 O26 1_555 1_555
H57 C33 1_555 1_555
O39 H60 1_555 1_555
C36 C33 1_555 1_555
H63 C36 1_555 1_555
O41 H65 1_555 1_555
H68 C38 1_555 1_555
O45 C15 1_555 1_555
C41 C38 1_555 1_555
H71 C41 1_555 1_555
H74 C44 1_555 1_555
O47 K6_2 1_555 1_555
H77 O47 1_555 1_555
C47 C44 1_555 1_555
H84 C47 1_555 1_555
H87 C47 1_555 1_555
O16 C18 1_555 1_555
O21 C21 1_555 1_555
C24 C27 1_555 1_555
O27 C28 1_555 1_555
O39 C36 1_555 1_555
O41 C38 1_555 1_555
O45 C41 1_555 1_555
C41 C44 1_555 1_555
O47 C47 1_555 1_555
K1 O2 1_555 1_555
O1 C1 1_555 1_555
C1 H1 1_555 1_555
O2 H2 1_555 1_555
C2 C1 1_555 1_555
H3 C2 1_555 1_555
O3 K1 1_555 1_555
H4 O3 1_555 1_555
C3 C2 1_555 1_555
H5 C3 1_555 1_555
O4 C4 1_555 1_555
C4 C3 1_555 1_555
H6 C4 1_555 1_555
C5 O1 1_555 1_555
H7 C5 1_555 1_555
O5 H8 1_555 1_555
C6 C5 1_555 1_555
H9 C6 1_555 1_555
H10 C6 1_555 1_555
O6 C7 1_555 1_555
C7 O4 1_555 1_555
H11 C7 1_555 1_555
O7 H12 1_555 1_555
C8 C7 1_555 1_555
H13 C8 1_555 1_555
O9 C1 1_555 1_555
K3_2 O6 1_555 1_555
O17 K1 1_555 1_555
H27 O17 1_555 1_555
O22 K1 1_555 1_555
H35 O22 1_555 1_555
O33 K1 1_555 1_555
O34 K1 1_555 1_555
O42 H66 1_555 1_555
H69 C39 1_555 1_555
C42 O9 1_555 1_555
H70 C42 1_555 1_555
H73 C45 1_555 1_555
O46 K8_2 1_555 1_555
O49 K1 1_555 1_555
O50 K1 1_555 1_555
H76 O46 1_555 1_555
H79 O49 1_555 1_555
H80 O50 1_555 1_555
C46 C45 1_555 1_555
H83 C46 1_555 1_555
H86 C46 1_555 1_555
O2 C2 1_555 1_555
O3 C3 1_555 1_555
C4 C5 1_555 1_555
O5 C6 1_555 1_555
O7 C8 1_555 1_555
O42 C39 1_555 1_555
C39 C42 1_555 1_555
C42 C45 1_555 1_555
O46 C46 1_555 1_555
O17 H90 1_555 1_555
O22 H92 1_555 1_555
O49 H96 1_555 1_555
O50 H97 1_555 1_555
K5_2 O15_2 1_555 1_555
K6_3 O31_2 1_555 1_555
O12_2 C14_2 1_555 1_555
C14_2 H22_2 1_555 1_555
O15_2 H25_2 1_555 1_555
C17_2 C14_2 1_555 1_555
H30_2 C17_2 1_555 1_555
O20_2 K5_2 1_555 1_555
H33_2 O20_2 1_555 1_555
C20_2 C17_2 1_555 1_555
H38_2 C20_2 1_555 1_555
O25_2 C23_2 1_555 1_555
C23_2 C20_2 1_555 1_555
H41_2 C23_2 1_555 1_555
C26_2 O12_2 1_555 1_555
H44_2 C26_2 1_555 1_555
O28_2 H47_2 1_555 1_555
C29_2 C26_2 1_555 1_555
H50_2 C29_2 1_555 1_555
H53_2 C29_2 1_555 1_555
O31_2 C32_2 1_555 1_555
C32_2 O25_2 1_555 1_555
H56_2 C32_2 1_555 1_555
O38_2 H59_2 1_555 1_555
C35_2 C32_2 1_555 1_555
H62_2 C35_2 1_555 1_555
O40_2 H64_2 1_555 1_555
H67_2 C37_2 1_555 1_555
O44_2 C14_2 1_555 1_555
C40_2 C37_2 1_555 1_555
H72_2 C40_2 1_555 1_555
H75_2 C43_2 1_555 1_555
O48_2 K4_3 1_555 1_555
H78_2 O48_2 1_555 1_555
C48_2 C43_2 1_555 1_555
H85_2 C48_2 1_555 1_555
H88_2 C48_2 1_555 1_555
O15_2 C17_2 1_555 1_555
O20_2 C20_2 1_555 1_555
C23_2 C26_2 1_555 1_555
O28_2 C29_2 1_555 1_555
O38_2 C35_2 1_555 1_555
O40_2 C37_2 1_555 1_555
O44_2 C40_2 1_555 1_555
C40_2 C43_2 1_555 1_555
O48_2 C48_2 1_555 1_555
O8_2 H14_2 1_555 1_555
H15_2 C9_2 1_555 1_555
C10_2 C9_2 1_555 1_555
H16_2 C10_2 1_555 1_555
H17_2 C11_2 1_555 1_555
O10_2 H18_2 1_555 1_555
C12_2 C11_2 1_555 1_555
H19_2 C12_2 1_555 1_555
H20_2 C12_2 1_555 1_555
K2_2 O14_2 1_555 1_555
K4_4 O30_2 1_555 1_555
O11_2 C13_2 1_555 1_555
C13_2 H21_2 1_555 1_555
O14_2 H24_2 1_555 1_555
O18_2 K2_2 1_555 1_555
H28_2 O18_2 1_555 1_555
C16_2 C13_2 1_555 1_555
H29_2 C16_2 1_555 1_555
O19_2 K2_2 1_555 1_555
O23_2 K2_2 1_555 1_555
H32_2 O19_2 1_555 1_555
H36_2 O23_2 1_555 1_555
C19_2 C16_2 1_555 1_555
H37_2 C19_2 1_555 1_555
O24_2 C22_2 1_555 1_555
C22_2 C19_2 1_555 1_555
H42_2 C22_2 1_555 1_555
C25_2 O11_2 1_555 1_555
H45_2 C25_2 1_555 1_555
O29_2 H48_2 1_555 1_555
C30_2 C25_2 1_555 1_555
H51_2 C30_2 1_555 1_555
H54_2 C30_2 1_555 1_555
O30_2 C31_2 1_555 1_555
O35_2 K2_2 1_555 1_555
O36_2 K2_2 1_555 1_555
C31_2 O24_2 1_555 1_555
H55_2 C31_2 1_555 1_555
O37_2 H58_2 1_555 1_555
C34_2 C31_2 1_555 1_555
H61_2 C34_2 1_555 1_555
O43_2 C10_2 1_555 1_555
O51_2 K2_2 1_555 1_555
O52_2 K2_2 1_555 1_555
H81_2 O51_2 1_555 1_555
H82_2 O52_2 1_555 1_555
O8_2 C9_2 1_555 1_555
C10_2 C11_2 1_555 1_555
O10_2 C12_2 1_555 1_555
O10_2 K3_3 1_555 1_555
C13_2 O43_2 1_555 1_555
O14_2 C16_2 1_555 1_555
O19_2 C19_2 1_555 1_555
C22_2 C25_2 1_555 1_555
O29_2 C30_2 1_555 1_555
O37_2 C34_2 1_555 1_555
O18_2 H89_2 1_555 1_555
O23_2 H91_2 1_555 1_555
O52_2 H94_2 1_555 1_555
O51_2 H95_2 1_555 1_555
K7_2 O16_2 1_555 1_555
K4 O32_2 1_555 1_555
O13_2 C15_2 1_555 1_555
C15_2 H23_2 1_555 1_555
O16_2 H26_2 1_555 1_555
C18_2 C15_2 1_555 1_555
H31_2 C18_2 1_555 1_555
O21_2 K7_2 1_555 1_555
H34_2 O21_2 1_555 1_555
C21_2 C18_2 1_555 1_555
H39_2 C21_2 1_555 1_555
O26_2 C24_2 1_555 1_555
C24_2 C21_2 1_555 1_555
H40_2 C24_2 1_555 1_555
C27_2 O13_2 1_555 1_555
H43_2 C27_2 1_555 1_555
O27_2 H46_2 1_555 1_555
C28_2 C27_2 1_555 1_555
H49_2 C28_2 1_555 1_555
H52_2 C28_2 1_555 1_555
O32_2 C33_2 1_555 1_555
C33_2 O26_2 1_555 1_555
H57_2 C33_2 1_555 1_555
O39_2 H60_2 1_555 1_555
C36_2 C33_2 1_555 1_555
H63_2 C36_2 1_555 1_555
O41_2 H65_2 1_555 1_555
H68_2 C38_2 1_555 1_555
O45_2 C15_2 1_555 1_555
C41_2 C38_2 1_555 1_555
H71_2 C41_2 1_555 1_555
H74_2 C44_2 1_555 1_555
O47_2 K6_4 1_555 1_555
H77_2 O47_2 1_555 1_555
C47_2 C44_2 1_555 1_555
H84_2 C47_2 1_555 1_555
H87_2 C47_2 1_555 1_555
O16_2 C18_2 1_555 1_555
O21_2 C21_2 1_555 1_555
C24_2 C27_2 1_555 1_555
O27_2 C28_2 1_555 1_555
O39_2 C36_2 1_555 1_555
O41_2 C38_2 1_555 1_555
O45_2 C41_2 1_555 1_555
C41_2 C44_2 1_555 1_555
O47_2 C47_2 1_555 1_555
K1_2 O2_2 1_555 1_555
O1_2 C1_2 1_555 1_555
C1_2 H1_2 1_555 1_555
O2_2 H2_2 1_555 1_555
C2_2 C1_2 1_555 1_555
H3_2 C2_2 1_555 1_555
O3_2 K1_2 1_555 1_555
H4_2 O3_2 1_555 1_555
C3_2 C2_2 1_555 1_555
H5_2 C3_2 1_555 1_555
O4_2 C4_2 1_555 1_555
C4_2 C3_2 1_555 1_555
H6_2 C4_2 1_555 1_555
C5_2 O1_2 1_555 1_555
H7_2 C5_2 1_555 1_555
O5_2 H8_2 1_555 1_555
C6_2 C5_2 1_555 1_555
H9_2 C6_2 1_555 1_555
H10_2 C6_2 1_555 1_555
O6_2 C7_2 1_555 1_555
C7_2 O4_2 1_555 1_555
H11_2 C7_2 1_555 1_555
O7_2 H12_2 1_555 1_555
C8_2 C7_2 1_555 1_555
H13_2 C8_2 1_555 1_555
O9_2 C1_2 1_555 1_555
K3_4 O6_2 1_555 1_555
O17_2 K1_2 1_555 1_555
H27_2 O17_2 1_555 1_555
O22_2 K1_2 1_555 1_555
H35_2 O22_2 1_555 1_555
O33_2 K1_2 1_555 1_555
O34_2 K1_2 1_555 1_555
O42_2 H66_2 1_555 1_555
H69_2 C39_2 1_555 1_555
C42_2 O9_2 1_555 1_555
H70_2 C42_2 1_555 1_555
H73_2 C45_2 1_555 1_555
O46_2 K4_2 1_555 1_555
O49_2 K1_2 1_555 1_555
O50_2 K1_2 1_555 1_555
H76_2 O46_2 1_555 1_555
H79_2 O49_2 1_555 1_555
H80_2 O50_2 1_555 1_555
C46_2 C45_2 1_555 1_555
H83_2 C46_2 1_555 1_555
H86_2 C46_2 1_555 1_555
O2_2 C2_2 1_555 1_555
O3_2 C3_2 1_555 1_555
C4_2 C5_2 1_555 1_555
O5_2 C6_2 1_555 1_555
O7_2 C8_2 1_555 1_555
O42_2 C39_2 1_555 1_555
C39_2 C42_2 1_555 1_555
C42_2 C45_2 1_555 1_555
O46_2 C46_2 1_555 1_555
O17_2 H90_2 1_555 1_555
O22_2 H92_2 1_555 1_555
O49_2 H96_2 1_555 1_555
O50_2 H97_2 1_555 1_555
O8_3 H14_3 1_555 1_555
H15_3 C9_3 1_555 1_555
C10_3 C9_3 1_555 1_555
H16_3 C10_3 1_555 1_555
H17_3 C11_3 1_555 1_555
O10_3 H18_3 1_555 1_555
C12_3 C11_3 1_555 1_555
H19_3 C12_3 1_555 1_555
H20_3 C12_3 1_555 1_555
K5 O14_3 1_555 1_555
K4_3 O30_3 1_555 1_555
O11_3 C13_3 1_555 1_555
C13_3 H21_3 1_555 1_555
O14_3 H24_3 1_555 1_555
C16_3 C13_3 1_555 1_555
H29_3 C16_3 1_555 1_555
O19_3 K5 1_555 1_555
H32_3 O19_3 1_555 1_555
C19_3 C16_3 1_555 1_555
H37_3 C19_3 1_555 1_555
O24_3 C22_3 1_555 1_555
C22_3 C19_3 1_555 1_555
H42_3 C22_3 1_555 1_555
C25_3 O11_3 1_555 1_555
H45_3 C25_3 1_555 1_555
O29_3 H48_3 1_555 1_555
C30_3 C25_3 1_555 1_555
H51_3 C30_3 1_555 1_555
H54_3 C30_3 1_555 1_555
O30_3 C31_3 1_555 1_555
O35_3 K5 1_555 1_555
O36_3 K5 1_555 1_555
C31_3 O24_3 1_555 1_555
H55_3 C31_3 1_555 1_555
O37_3 H58_3 1_555 1_555
C34_3 C31_3 1_555 1_555
H61_3 C34_3 1_555 1_555
O43_3 C10_3 1_555 1_555
O51_3 K5 1_555 1_555
O52_3 K5 1_555 1_555
H81_3 O51_3 1_555 1_555
H82_3 O52_3 1_555 1_555
O8_3 C9_3 1_555 1_555
C10_3 C11_3 1_555 1_555
O10_3 C12_3 1_555 1_555
O10_3 K3_5 1_555 1_555
C13_3 O43_3 1_555 1_555
O14_3 C16_3 1_555 1_555
O19_3 C19_3 1_555 1_555
C22_3 C25_3 1_555 1_555
O29_3 C30_3 1_555 1_555
O37_3 C34_3 1_555 1_555
O15 H89_3 1_555 1_555
O20 H91_3 1_555 1_555
O52_3 H94_3 1_555 1_555
O51_3 H95_3 1_555 1_555
K6_5 O31_3 1_555 1_555
O12_3 C14_3 1_555 1_555
C14_3 H22_3 1_555 1_555
C17_3 C14_3 1_555 1_555
H30_3 C17_3 1_555 1_555
C20_3 C17_3 1_555 1_555
H38_3 C20_3 1_555 1_555
O25_3 C23_3 1_555 1_555
C23_3 C20_3 1_555 1_555
H41_3 C23_3 1_555 1_555
C26_3 O12_3 1_555 1_555
H44_3 C26_3 1_555 1_555
O28_3 H47_3 1_555 1_555
C29_3 C26_3 1_555 1_555
H50_3 C29_3 1_555 1_555
H53_3 C29_3 1_555 1_555
O31_3 C32_3 1_555 1_555
C32_3 O25_3 1_555 1_555
H56_3 C32_3 1_555 1_555
O38_3 H59_3 1_555 1_555
C35_3 C32_3 1_555 1_555
H62_3 C35_3 1_555 1_555
O40_3 H64_3 1_555 1_555
H67_3 C37_3 1_555 1_555
O44_3 C14_3 1_555 1_555
C40_3 C37_3 1_555 1_555
H72_3 C40_3 1_555 1_555
H75_3 C43_3 1_555 1_555
O48_3 K4_4 1_555 1_555
H78_3 O48_3 1_555 1_555
C48_3 C43_3 1_555 1_555
H85_3 C48_3 1_555 1_555
H88_3 C48_3 1_555 1_555
O18 C17_3 1_555 1_555
O23 C20_3 1_555 1_555
C23_3 C26_3 1_555 1_555
O28_3 C29_3 1_555 1_555
O38_3 C35_3 1_555 1_555
O40_3 C37_3 1_555 1_555
O44_3 C40_3 1_555 1_555
C40_3 C43_3 1_555 1_555
O48_3 C48_3 1_555 1_555
K7 O2_3 1_555 1_555
O1_3 C1_3 1_555 1_555
C1_3 H1_3 1_555 1_555
O2_3 H2_3 1_555 1_555
C2_3 C1_3 1_555 1_555
H3_3 C2_3 1_555 1_555
O3_3 K7 1_555 1_555
H4_3 O3_3 1_555 1_555
C3_3 C2_3 1_555 1_555
H5_3 C3_3 1_555 1_555
O4_3 C4_3 1_555 1_555
C4_3 C3_3 1_555 1_555
H6_3 C4_3 1_555 1_555
C5_3 O1_3 1_555 1_555
H7_3 C5_3 1_555 1_555
O5_3 H8_3 1_555 1_555
C6_3 C5_3 1_555 1_555
H9_3 C6_3 1_555 1_555
H10_3 C6_3 1_555 1_555
O6_3 C7_3 1_555 1_555
C7_3 O4_3 1_555 1_555
H11_3 C7_3 1_555 1_555
O7_3 H12_3 1_555 1_555
C8_3 C7_3 1_555 1_555
H13_3 C8_3 1_555 1_555
O9_3 C1_3 1_555 1_555
K3_6 O6_3 1_555 1_555
O33_3 K7 1_555 1_555
O34_3 K7 1_555 1_555
O42_3 H66_3 1_555 1_555
H69_3 C39_3 1_555 1_555
C42_3 O9_3 1_555 1_555
H70_3 C42_3 1_555 1_555
H73_3 C45_3 1_555 1_555
O46_3 K8_3 1_555 1_555
O49_3 K7 1_555 1_555
O50_3 K7 1_555 1_555
H76_3 O46_3 1_555 1_555
H79_3 O49_3 1_555 1_555
H80_3 O50_3 1_555 1_555
C46_3 C45_3 1_555 1_555
H83_3 C46_3 1_555 1_555
H86_3 C46_3 1_555 1_555
O2_3 C2_3 1_555 1_555
O3_3 C3_3 1_555 1_555
C4_3 C5_3 1_555 1_555
O5_3 C6_3 1_555 1_555
O7_3 C8_3 1_555 1_555
O42_3 C39_3 1_555 1_555
C39_3 C42_3 1_555 1_555
C42_3 C45_3 1_555 1_555
O46_3 C46_3 1_555 1_555
O16 H90_3 1_555 1_555
O21 H92_3 1_555 1_555
O49_3 H96_3 1_555 1_555
O50_3 H97_3 1_555 1_555
K8_4 O32_3 1_555 1_555
O13_3 C15_3 1_555 1_555
C15_3 H23_3 1_555 1_555
C18_3 C15_3 1_555 1_555
H31_3 C18_3 1_555 1_555
C21_3 C18_3 1_555 1_555
H39_3 C21_3 1_555 1_555
O26_3 C24_3 1_555 1_555
C24_3 C21_3 1_555 1_555
H40_3 C24_3 1_555 1_555
C27_3 O13_3 1_555 1_555
H43_3 C27_3 1_555 1_555
O27_3 H46_3 1_555 1_555
C28_3 C27_3 1_555 1_555
H49_3 C28_3 1_555 1_555
H52_3 C28_3 1_555 1_555
O32_3 C33_3 1_555 1_555
C33_3 O26_3 1_555 1_555
H57_3 C33_3 1_555 1_555
O39_3 H60_3 1_555 1_555
C36_3 C33_3 1_555 1_555
H63_3 C36_3 1_555 1_555
O41_3 H65_3 1_555 1_555
H68_3 C38_3 1_555 1_555
O45_3 C15_3 1_555 1_555
C41_3 C38_3 1_555 1_555
H71_3 C41_3 1_555 1_555
H74_3 C44_3 1_555 1_555
O47_3 K6_6 1_555 1_555
H77_3 O47_3 1_555 1_555
C47_3 C44_3 1_555 1_555
H84_3 C47_3 1_555 1_555
H87_3 C47_3 1_555 1_555
O17 C18_3 1_555 1_555
O22 C21_3 1_555 1_555
C24_3 C27_3 1_555 1_555
O27_3 C28_3 1_555 1_555
O39_3 C36_3 1_555 1_555
O41_3 C38_3 1_555 1_555
O45_3 C41_3 1_555 1_555
C41_3 C44_3 1_555 1_555
O47_3 C47_3 1_555 1_555
K5_3 O15_3 1_555 1_555
K3_3 O31_4 1_555 1_555
O12_4 C14_4 1_555 1_555
C14_4 H22_4 1_555 1_555
O15_3 H25_3 1_555 1_555
C17_4 C14_4 1_555 1_555
H30_4 C17_4 1_555 1_555
O20_3 K5_3 1_555 1_555
H33_3 O20_3 1_555 1_555
C20_4 C17_4 1_555 1_555
H38_4 C20_4 1_555 1_555
O25_4 C23_4 1_555 1_555
C23_4 C20_4 1_555 1_555
H41_4 C23_4 1_555 1_555
C26_4 O12_4 1_555 1_555
H44_4 C26_4 1_555 1_555
O28_4 H47_4 1_555 1_555
C29_4 C26_4 1_555 1_555
H50_4 C29_4 1_555 1_555
H53_4 C29_4 1_555 1_555
O31_4 C32_4 1_555 1_555
C32_4 O25_4 1_555 1_555
H56_4 C32_4 1_555 1_555
O38_4 H59_4 1_555 1_555
C35_4 C32_4 1_555 1_555
H62_4 C35_4 1_555 1_555
O40_4 H64_4 1_555 1_555
H67_4 C37_4 1_555 1_555
O44_4 C14_4 1_555 1_555
C40_4 C37_4 1_555 1_555
H72_4 C40_4 1_555 1_555
H75_4 C43_4 1_555 1_555
O48_4 K6_5 1_555 1_555
H78_4 O48_4 1_555 1_555
C48_4 C43_4 1_555 1_555
H85_4 C48_4 1_555 1_555
H88_4 C48_4 1_555 1_555
O15_3 C17_4 1_555 1_555
O20_3 C20_4 1_555 1_555
C23_4 C26_4 1_555 1_555
O28_4 C29_4 1_555 1_555
O38_4 C35_4 1_555 1_555
O40_4 C37_4 1_555 1_555
O44_4 C40_4 1_555 1_555
C40_4 C43_4 1_555 1_555
O48_4 C48_4 1_555 1_555
K7_3 O16_3 1_555 1_555
K3 O32_4 1_555 1_555
O13_4 C15_4 1_555 1_555
C15_4 H23_4 1_555 1_555
O16_3 H26_3 1_555 1_555
C18_4 C15_4 1_555 1_555
H31_4 C18_4 1_555 1_555
O21_3 K7_3 1_555 1_555
H34_3 O21_3 1_555 1_555
C21_4 C18_4 1_555 1_555
H39_4 C21_4 1_555 1_555
O26_4 C24_4 1_555 1_555
C24_4 C21_4 1_555 1_555
H40_4 C24_4 1_555 1_555
C27_4 O13_4 1_555 1_555
H43_4 C27_4 1_555 1_555
O27_4 H46_4 1_555 1_555
C28_4 C27_4 1_555 1_555
H49_4 C28_4 1_555 1_555
H52_4 C28_4 1_555 1_555
O32_4 C33_4 1_555 1_555
C33_4 O26_4 1_555 1_555
H57_4 C33_4 1_555 1_555
O39_4 H60_4 1_555 1_555
C36_4 C33_4 1_555 1_555
H63_4 C36_4 1_555 1_555
O41_4 H65_4 1_555 1_555
H68_4 C38_4 1_555 1_555
O45_4 C15_4 1_555 1_555
C41_4 C38_4 1_555 1_555
H71_4 C41_4 1_555 1_555
H74_4 C44_4 1_555 1_555
O47_4 K3_4 1_555 1_555
H77_4 O47_4 1_555 1_555
C47_4 C44_4 1_555 1_555
H84_4 C47_4 1_555 1_555
H87_4 C47_4 1_555 1_555
O16_3 C18_4 1_555 1_555
O21_3 C21_4 1_555 1_555
C24_4 C27_4 1_555 1_555
O27_4 C28_4 1_555 1_555
O39_4 C36_4 1_555 1_555
O41_4 C38_4 1_555 1_555
O45_4 C41_4 1_555 1_555
C41_4 C44_4 1_555 1_555
O47_4 C47_4 1_555 1_555
O8_4 H14_4 1_555 1_555
H15_4 C9_4 1_555 1_555
C10_4 C9_4 1_555 1_555
H16_4 C10_4 1_555 1_555
H17_4 C11_4 1_555 1_555
O10_4 H18_4 1_555 1_555
C12_4 C11_4 1_555 1_555
H19_4 C12_4 1_555 1_555
H20_4 C12_4 1_555 1_555
K2_3 O14_4 1_555 1_555
K6_6 O30_4 1_555 1_555
O11_4 C13_4 1_555 1_555
C13_4 H21_4 1_555 1_555
O14_4 H24_4 1_555 1_555
O18_3 K2_3 1_555 1_555
H28_3 O18_3 1_555 1_555
C16_4 C13_4 1_555 1_555
H29_4 C16_4 1_555 1_555
O19_4 K2_3 1_555 1_555
O23_3 K2_3 1_555 1_555
H32_4 O19_4 1_555 1_555
H36_3 O23_3 1_555 1_555
C19_4 C16_4 1_555 1_555
H37_4 C19_4 1_555 1_555
O24_4 C22_4 1_555 1_555
C22_4 C19_4 1_555 1_555
H42_4 C22_4 1_555 1_555
C25_4 O11_4 1_555 1_555
H45_4 C25_4 1_555 1_555
O29_4 H48_4 1_555 1_555
C30_4 C25_4 1_555 1_555
H51_4 C30_4 1_555 1_555
H54_4 C30_4 1_555 1_555
O30_4 C31_4 1_555 1_555
O35_4 K2_3 1_555 1_555
O36_4 K2_3 1_555 1_555
C31_4 O24_4 1_555 1_555
H55_4 C31_4 1_555 1_555
O37_4 H58_4 1_555 1_555
C34_4 C31_4 1_555 1_555
H61_4 C34_4 1_555 1_555
O43_4 C10_4 1_555 1_555
O51_4 K2_3 1_555 1_555
O52_4 K2_3 1_555 1_555
H81_4 O51_4 1_555 1_555
H82_4 O52_4 1_555 1_555
O8_4 C9_4 1_555 1_555
C10_4 C11_4 1_555 1_555
O10_4 C12_4 1_555 1_555
O10_4 K3_7 1_555 1_555
C13_4 O43_4 1_555 1_555
O14_4 C16_4 1_555 1_555
O19_4 C19_4 1_555 1_555
C22_4 C25_4 1_555 1_555
O29_4 C30_4 1_555 1_555
O37_4 C34_4 1_555 1_555
O18_3 H89_4 1_555 1_555
O23_3 H91_4 1_555 1_555
O52_4 H94_4 1_555 1_555
O51_4 H95_4 1_555 1_555
K1_3 O2_4 1_555 1_555
O1_4 C1_4 1_555 1_555
C1_4 H1_4 1_555 1_555
O2_4 H2_4 1_555 1_555
C2_4 C1_4 1_555 1_555
H3_4 C2_4 1_555 1_555
O3_4 K1_3 1_555 1_555
H4_4 O3_4 1_555 1_555
C3_4 C2_4 1_555 1_555
H5_4 C3_4 1_555 1_555
O4_4 C4_4 1_555 1_555
C4_4 C3_4 1_555 1_555
H6_4 C4_4 1_555 1_555
C5_4 O1_4 1_555 1_555
H7_4 C5_4 1_555 1_555
O5_4 H8_4 1_555 1_555
C6_4 C5_4 1_555 1_555
H9_4 C6_4 1_555 1_555
H10_4 C6_4 1_555 1_555
O6_4 C7_4 1_555 1_555
C7_4 O4_4 1_555 1_555
H11_4 C7_4 1_555 1_555
O7_4 H12_4 1_555 1_555
C8_4 C7_4 1_555 1_555
H13_4 C8_4 1_555 1_555
O9_4 C1_4 1_555 1_555
K3_8 O6_4 1_555 1_555
O17_3 K1_3 1_555 1_555
H27_3 O17_3 1_555 1_555
O22_3 K1_3 1_555 1_555
H35_3 O22_3 1_555 1_555
O33_4 K1_3 1_555 1_555
O34_4 K1_3 1_555 1_555
O42_4 H66_4 1_555 1_555
H69_4 C39_4 1_555 1_555
C42_4 O9_4 1_555 1_555
H70_4 C42_4 1_555 1_555
H73_4 C45_4 1_555 1_555
O46_4 K3_2 1_555 1_555
O49_4 K1_3 1_555 1_555
O50_4 K1_3 1_555 1_555
H76_4 O46_4 1_555 1_555
H79_4 O49_4 1_555 1_555
H80_4 O50_4 1_555 1_555
C46_4 C45_4 1_555 1_555
H83_4 C46_4 1_555 1_555
H86_4 C46_4 1_555 1_555
O2_4 C2_4 1_555 1_555
O3_4 C3_4 1_555 1_555
C4_4 C5_4 1_555 1_555
O5_4 C6_4 1_555 1_555
O7_4 C8_4 1_555 1_555
O42_4 C39_4 1_555 1_555
C39_4 C42_4 1_555 1_555
C42_4 C45_4 1_555 1_555
O46_4 C46_4 1_555 1_555
O17_3 H90_4 1_555 1_555
O22_3 H92_4 1_555 1_555
O49_4 H96_4 1_555 1_555
O50_4 H97_4 1_555 1_555
O14 H90_5 1_555 1_555
O19 H92_5 1_555 1_555
O2 H89_5 1_555 1_555
O3 H91_5 1_555 1_555
O8_5 H14_5 1_555 1_555
H15_5 C9_5 1_555 1_555
C10_5 C9_5 1_555 1_555
H16_5 C10_5 1_555 1_555
H17_5 C11_5 1_555 1_555
O10_5 H18_5 1_555 1_555
C12_5 C11_5 1_555 1_555
H19_5 C12_5 1_555 1_555
H20_5 C12_5 1_555 1_555
K5_2 O14_5 1_555 1_555
K8_3 O30_5 1_555 1_555
O11_5 C13_5 1_555 1_555
C13_5 H21_5 1_555 1_555
O14_5 H24_5 1_555 1_555
C16_5 C13_5 1_555 1_555
H29_5 C16_5 1_555 1_555
O19_5 K5_2 1_555 1_555
H32_5 O19_5 1_555 1_555
C19_5 C16_5 1_555 1_555
H37_5 C19_5 1_555 1_555
O24_5 C22_5 1_555 1_555
C22_5 C19_5 1_555 1_555
H42_5 C22_5 1_555 1_555
C25_5 O11_5 1_555 1_555
H45_5 C25_5 1_555 1_555
O29_5 H48_5 1_555 1_555
C30_5 C25_5 1_555 1_555
H51_5 C30_5 1_555 1_555
H54_5 C30_5 1_555 1_555
O30_5 C31_5 1_555 1_555
O35_5 K5_2 1_555 1_555
O36_5 K5_2 1_555 1_555
C31_5 O24_5 1_555 1_555
H55_5 C31_5 1_555 1_555
O37_5 H58_5 1_555 1_555
C34_5 C31_5 1_555 1_555
H61_5 C34_5 1_555 1_555
O43_5 C10_5 1_555 1_555
O51_5 K5_2 1_555 1_555
O52_5 K5_2 1_555 1_555
H81_5 O51_5 1_555 1_555
H82_5 O52_5 1_555 1_555
O8_5 C9_5 1_555 1_555
C10_5 C11_5 1_555 1_555
O10_5 C12_5 1_555 1_555
O10_5 K3_9 1_555 1_555
C13_5 O43_5 1_555 1_555
O14_5 C16_5 1_555 1_555
O19_5 C19_5 1_555 1_555
C22_5 C25_5 1_555 1_555
O29_5 C30_5 1_555 1_555
O37_5 C34_5 1_555 1_555
O15_2 H89_6 1_555 1_555
O20_2 H91_6 1_555 1_555
O52_5 H94_5 1_555 1_555
O51_5 H95_5 1_555 1_555
K3_7 O31_5 1_555 1_555
O12_5 C14_5 1_555 1_555
C14_5 H22_5 1_555 1_555
C17_5 C14_5 1_555 1_555
H30_5 C17_5 1_555 1_555
C20_5 C17_5 1_555 1_555
H38_5 C20_5 1_555 1_555
O25_5 C23_5 1_555 1_555
C23_5 C20_5 1_555 1_555
H41_5 C23_5 1_555 1_555
C26_5 O12_5 1_555 1_555
H44_5 C26_5 1_555 1_555
O28_5 H47_5 1_555 1_555
C29_5 C26_5 1_555 1_555
H50_5 C29_5 1_555 1_555
H53_5 C29_5 1_555 1_555
O31_5 C32_5 1_555 1_555
C32_5 O25_5 1_555 1_555
H56_5 C32_5 1_555 1_555
O38_5 H59_5 1_555 1_555
C35_5 C32_5 1_555 1_555
H62_5 C35_5 1_555 1_555
O40_5 H64_5 1_555 1_555
H67_5 C37_5 1_555 1_555
O44_5 C14_5 1_555 1_555
C40_5 C37_5 1_555 1_555
H72_5 C40_5 1_555 1_555
H75_5 C43_5 1_555 1_555
O48_5 K8_4 1_555 1_555
H78_5 O48_5 1_555 1_555
C48_5 C43_5 1_555 1_555
H85_5 C48_5 1_555 1_555
H88_5 C48_5 1_555 1_555
O18_2 C17_5 1_555 1_555
O23_2 C20_5 1_555 1_555
C23_5 C26_5 1_555 1_555
O28_5 C29_5 1_555 1_555
O38_5 C35_5 1_555 1_555
O40_5 C37_5 1_555 1_555
O44_5 C40_5 1_555 1_555
C40_5 C43_5 1_555 1_555
O48_5 C48_5 1_555 1_555
K7_2 O2_5 1_555 1_555
O1_5 C1_5 1_555 1_555
C1_5 H1_5 1_555 1_555
O2_5 H2_5 1_555 1_555
C2_5 C1_5 1_555 1_555
H3_5 C2_5 1_555 1_555
O3_5 K7_2 1_555 1_555
H4_5 O3_5 1_555 1_555
C3_5 C2_5 1_555 1_555
H5_5 C3_5 1_555 1_555
O4_5 C4_5 1_555 1_555
C4_5 C3_5 1_555 1_555
H6_5 C4_5 1_555 1_555
C5_5 O1_5 1_555 1_555
H7_5 C5_5 1_555 1_555
O5_5 H8_5 1_555 1_555
C6_5 C5_5 1_555 1_555
H9_5 C6_5 1_555 1_555
H10_5 C6_5 1_555 1_555
O6_5 C7_5 1_555 1_555
C7_5 O4_5 1_555 1_555
H11_5 C7_5 1_555 1_555
O7_5 H12_5 1_555 1_555
C8_5 C7_5 1_555 1_555
H13_5 C8_5 1_555 1_555
O9_5 C1_5 1_555 1_555
K3_10 O6_5 1_555 1_555
O33_5 K7_2 1_555 1_555
O34_5 K7_2 1_555 1_555
O42_5 H66_5 1_555 1_555
H69_5 C39_5 1_555 1_555
C42_5 O9_5 1_555 1_555
H70_5 C42_5 1_555 1_555
H73_5 C45_5 1_555 1_555
O46_5 K8 1_555 1_555
O49_5 K7_2 1_555 1_555
O50_5 K7_2 1_555 1_555
H76_5 O46_5 1_555 1_555
H79_5 O49_5 1_555 1_555
H80_5 O50_5 1_555 1_555
C46_5 C45_5 1_555 1_555
H83_5 C46_5 1_555 1_555
H86_5 C46_5 1_555 1_555
O2_5 C2_5 1_555 1_555
O3_5 C3_5 1_555 1_555
C4_5 C5_5 1_555 1_555
O5_5 C6_5 1_555 1_555
O7_5 C8_5 1_555 1_555
O42_5 C39_5 1_555 1_555
C39_5 C42_5 1_555 1_555
C42_5 C45_5 1_555 1_555
O46_5 C46_5 1_555 1_555
O16_2 H90_6 1_555 1_555
O21_2 H92_6 1_555 1_555
O49_5 H96_5 1_555 1_555
O50_5 H97_5 1_555 1_555
K8_2 O32_5 1_555 1_555
O13_5 C15_5 1_555 1_555
C15_5 H23_5 1_555 1_555
C18_5 C15_5 1_555 1_555
H31_5 C18_5 1_555 1_555
C21_5 C18_5 1_555 1_555
H39_5 C21_5 1_555 1_555
O26_5 C24_5 1_555 1_555
C24_5 C21_5 1_555 1_555
H40_5 C24_5 1_555 1_555
C27_5 O13_5 1_555 1_555
H43_5 C27_5 1_555 1_555
O27_5 H46_5 1_555 1_555
C28_5 C27_5 1_555 1_555
H49_5 C28_5 1_555 1_555
H52_5 C28_5 1_555 1_555
O32_5 C33_5 1_555 1_555
C33_5 O26_5 1_555 1_555
H57_5 C33_5 1_555 1_555
O39_5 H60_5 1_555 1_555
C36_5 C33_5 1_555 1_555
H63_5 C36_5 1_555 1_555
O41_5 H65_5 1_555 1_555
H68_5 C38_5 1_555 1_555
O45_5 C15_5 1_555 1_555
C41_5 C38_5 1_555 1_555
H71_5 C41_5 1_555 1_555
H74_5 C44_5 1_555 1_555
O47_5 K3_8 1_555 1_555
H77_5 O47_5 1_555 1_555
C47_5 C44_5 1_555 1_555
H84_5 C47_5 1_555 1_555
H87_5 C47_5 1_555 1_555
O17_2 C18_5 1_555 1_555
O22_2 C21_5 1_555 1_555
C24_5 C27_5 1_555 1_555
O27_5 C28_5 1_555 1_555
O39_5 C36_5 1_555 1_555
O41_5 C38_5 1_555 1_555
O45_5 C41_5 1_555 1_555
C41_5 C44_5 1_555 1_555
O47_5 C47_5 1_555 1_555
O17_4 K7_3 1_555 1_555
H27_4 O17_4 1_555 1_555
O22_4 K7_3 1_555 1_555
H35_4 O22_4 1_555 1_555
O33_6 K7_3 1_555 1_555
O34_6 K7_3 1_555 1_555
O49_6 K7_3 1_555 1_555
O50_6 K7_3 1_555 1_555
H79_6 O49_6 1_555 1_555
H80_6 O50_6 1_555 1_555
O17_4 H90_7 1_555 1_555
O22_4 H92_7 1_555 1_555
O49_6 H96_6 1_555 1_555
O50_6 H97_6 1_555 1_555
O14_2 H90_8 1_555 1_555
O19_2 H92_8 1_555 1_555
O2_2 H89_7 1_555 1_555
O3_2 H91_7 1_555 1_555
O14_3 H90_9 1_555 1_555
O19_3 H92_9 1_555 1_555
O2_3 H89_8 1_555 1_555
O3_3 H91_8 1_555 1_555
O17_5 K5_3 1_555 1_555
H27_5 O17_5 1_555 1_555
O22_5 K5_3 1_555 1_555
H35_5 O22_5 1_555 1_555
O33_7 K5_3 1_555 1_555
O34_7 K5_3 1_555 1_555
O49_7 K5_3 1_555 1_555
O50_7 K5_3 1_555 1_555
H79_7 O49_7 1_555 1_555
H80_7 O50_7 1_555 1_555
O17_5 H90_10 1_555 1_555
O22_5 H92_10 1_555 1_555
O49_7 H96_7 1_555 1_555
O50_7 H97_7 1_555 1_555
O14_5 H90_11 1_555 1_555
O19_5 H92_11 1_555 1_555
O2_5 H89_9 1_555 1_555
O3_5 H91_9 1_555 1_555
K3_5 O32_6 1_555 1_555
O13_6 C15_6 1_555 1_555
C15_6 H23_6 1_555 1_555
C18_6 C15_6 1_555 1_555
H31_6 C18_6 1_555 1_555
C21_6 C18_6 1_555 1_555
H39_6 C21_6 1_555 1_555
O26_6 C24_6 1_555 1_555
C24_6 C21_6 1_555 1_555
H40_6 C24_6 1_555 1_555
C27_6 O13_6 1_555 1_555
H43_6 C27_6 1_555 1_555
O27_6 H46_6 1_555 1_555
C28_6 C27_6 1_555 1_555
H49_6 C28_6 1_555 1_555
H52_6 C28_6 1_555 1_555
O32_6 C33_6 1_555 1_555
C33_6 O26_6 1_555 1_555
H57_6 C33_6 1_555 1_555
O39_6 H60_6 1_555 1_555
C36_6 C33_6 1_555 1_555
H63_6 C36_6 1_555 1_555
O41_6 H65_6 1_555 1_555
H68_6 C38_6 1_555 1_555
O45_6 C15_6 1_555 1_555
C41_6 C38_6 1_555 1_555
H71_6 C41_6 1_555 1_555
H74_6 C44_6 1_555 1_555
O47_6 K6_3 1_555 1_555
H77_6 O47_6 1_555 1_555
C47_6 C44_6 1_555 1_555
H84_6 C47_6 1_555 1_555
H87_6 C47_6 1_555 1_555
O17_5 C18_6 1_555 1_555
O22_5 C21_6 1_555 1_555
C24_6 C27_6 1_555 1_555
O27_6 C28_6 1_555 1_555
O39_6 C36_6 1_555 1_555
O41_6 C38_6 1_555 1_555
O45_6 C41_6 1_555 1_555
C41_6 C44_6 1_555 1_555
O47_6 C47_6 1_555 1_555
K6_4 O31_6 1_555 1_555
O12_6 C14_6 1_555 1_555
C14_6 H22_6 1_555 1_555
C17_6 C14_6 1_555 1_555
H30_6 C17_6 1_555 1_555
C20_6 C17_6 1_555 1_555
H38_6 C20_6 1_555 1_555
O25_6 C23_6 1_555 1_555
C23_6 C20_6 1_555 1_555
H41_6 C23_6 1_555 1_555
C26_6 O12_6 1_555 1_555
H44_6 C26_6 1_555 1_555
O28_6 H47_6 1_555 1_555
C29_6 C26_6 1_555 1_555
H50_6 C29_6 1_555 1_555
H53_6 C29_6 1_555 1_555
O31_6 C32_6 1_555 1_555
C32_6 O25_6 1_555 1_555
H56_6 C32_6 1_555 1_555
O38_6 H59_6 1_555 1_555
C35_6 C32_6 1_555 1_555
H62_6 C35_6 1_555 1_555
O40_6 H64_6 1_555 1_555
H67_6 C37_6 1_555 1_555
O44_6 C14_6 1_555 1_555
C40_6 C37_6 1_555 1_555
H72_6 C40_6 1_555 1_555
H75_6 C43_6 1_555 1_555
O48_6 K6 1_555 1_555
H78_6 O48_6 1_555 1_555
C48_6 C43_6 1_555 1_555
H85_6 C48_6 1_555 1_555
H88_6 C48_6 1_555 1_555
O17_4 C17_6 1_555 1_555
O22_4 C20_6 1_555 1_555
C23_6 C26_6 1_555 1_555
O28_6 C29_6 1_555 1_555
O38_6 C35_6 1_555 1_555
O40_6 C37_6 1_555 1_555
O44_6 C40_6 1_555 1_555
C40_6 C43_6 1_555 1_555
O48_6 C48_6 1_555 1_555
O1_6 C1_6 1_555 1_555
C1_6 H1_6 1_555 1_555
C2_6 C1_6 1_555 1_555
H3_6 C2_6 1_555 1_555
C3_6 C2_6 1_555 1_555
H5_6 C3_6 1_555 1_555
O4_6 C4_6 1_555 1_555
C4_6 C3_6 1_555 1_555
H6_6 C4_6 1_555 1_555
C5_6 O1_6 1_555 1_555
H7_6 C5_6 1_555 1_555
O5_6 H8_6 1_555 1_555
C6_6 C5_6 1_555 1_555
H9_6 C6_6 1_555 1_555
H10_6 C6_6 1_555 1_555
O6_6 C7_6 1_555 1_555
C7_6 O4_6 1_555 1_555
H11_6 C7_6 1_555 1_555
O7_6 H12_6 1_555 1_555
C8_6 C7_6 1_555 1_555
H13_6 C8_6 1_555 1_555
O9_6 C1_6 1_555 1_555
K3_9 O6_6 1_555 1_555
O42_6 H66_6 1_555 1_555
H69_6 C39_6 1_555 1_555
C42_6 O9_6 1_555 1_555
H70_6 C42_6 1_555 1_555
H73_6 C45_6 1_555 1_555
O46_6 K3_6 1_555 1_555
H76_6 O46_6 1_555 1_555
C46_6 C45_6 1_555 1_555
H83_6 C46_6 1_555 1_555
H86_6 C46_6 1_555 1_555
O18_3 C2_6 1_555 1_555
O23_3 C3_6 1_555 1_555
C4_6 C5_6 1_555 1_555
O5_6 C6_6 1_555 1_555
O7_6 C8_6 1_555 1_555
O42_6 C39_6 1_555 1_555
C39_6 C42_6 1_555 1_555
C42_6 C45_6 1_555 1_555
O46_6 C46_6 1_555 1_555
O14_4 H90_12 1_555 1_555
O19_4 H92_12 1_555 1_555
O8_6 H14_6 1_555 1_555
H15_6 C9_6 1_555 1_555
C10_6 C9_6 1_555 1_555
H16_6 C10_6 1_555 1_555
H17_6 C11_6 1_555 1_555
O10_6 H18_6 1_555 1_555
C12_6 C11_6 1_555 1_555
H19_6 C12_6 1_555 1_555
H20_6 C12_6 1_555 1_555
K6_2 O30_6 1_555 1_555
O11_6 C13_6 1_555 1_555
C13_6 H21_6 1_555 1_555
C16_6 C13_6 1_555 1_555
H29_6 C16_6 1_555 1_555
C19_6 C16_6 1_555 1_555
H37_6 C19_6 1_555 1_555
O24_6 C22_6 1_555 1_555
C22_6 C19_6 1_555 1_555
H42_6 C22_6 1_555 1_555
C25_6 O11_6 1_555 1_555
H45_6 C25_6 1_555 1_555
O29_6 H48_6 1_555 1_555
C30_6 C25_6 1_555 1_555
H51_6 C30_6 1_555 1_555
H54_6 C30_6 1_555 1_555
O30_6 C31_6 1_555 1_555
C31_6 O24_6 1_555 1_555
H55_6 C31_6 1_555 1_555
O37_6 H58_6 1_555 1_555
C34_6 C31_6 1_555 1_555
H61_6 C34_6 1_555 1_555
O43_6 C10_6 1_555 1_555
O8_6 C9_6 1_555 1_555
C10_6 C11_6 1_555 1_555
O10_6 C12_6 1_555 1_555
O10_6 K3_10 1_555 1_555
C13_6 O43_6 1_555 1_555
O17_3 C16_6 1_555 1_555
O22_3 C19_6 1_555 1_555
C22_6 C25_6 1_555 1_555
O29_6 C30_6 1_555 1_555
O37_6 C34_6 1_555 1_555
O2_4 H89_10 1_555 1_555
O3_4 H91_10 1_555 1_555
O15_3 H90_13 1_555 1_555
O20_3 H92_13 1_555 1_555
O16_3 H90_14 1_555 1_555
O21_3 H92_14 1_555 1_555
K6_3 O2_6 1_555 1_555
O1_7 C1_7 1_555 1_555
C1_7 H1_7 1_555 1_555
O2_6 H2_6 1_555 1_555
C2_7 C1_7 1_555 1_555
H3_7 C2_7 1_555 1_555
O3_6 K6_3 1_555 1_555
H4_6 O3_6 1_555 1_555
C3_7 C2_7 1_555 1_555
H5_7 C3_7 1_555 1_555
O4_7 C4_7 1_555 1_555
C4_7 C3_7 1_555 1_555
H6_7 C4_7 1_555 1_555
C5_7 O1_7 1_555 1_555
H7_7 C5_7 1_555 1_555
O5_7 H8_7 1_555 1_555
C6_7 C5_7 1_555 1_555
H9_7 C6_7 1_555 1_555
H10_7 C6_7 1_555 1_555
O36_5 C7_7 1_555 1_555
C7_7 O4_7 1_555 1_555
H11_7 C7_7 1_555 1_555
O7_7 H12_7 1_555 1_555
C8_7 C7_7 1_555 1_555
H13_7 C8_7 1_555 1_555
O8_7 H14_7 1_555 1_555
C9_7 C8_7 1_555 1_555
H15_7 C9_7 1_555 1_555
O9_7 C1_7 1_555 1_555
C10_7 C9_7 1_555 1_555
H16_7 C10_7 1_555 1_555
C11_7 O36_5 1_555 1_555
H17_7 C11_7 1_555 1_555
C12_7 C11_7 1_555 1_555
H19_7 C12_7 1_555 1_555
H20_7 C12_7 1_555 1_555
K3_9 O14_6 1_555 1_555
K3_7 O15_4 1_555 1_555
K3_3 O16_4 1_555 1_555
O11_7 C13_7 1_555 1_555
O12_7 C14_7 1_555 1_555
O13_7 C15_7 1_555 1_555
C13_7 H21_7 1_555 1_555
C14_7 H22_7 1_555 1_555
C15_7 H23_7 1_555 1_555
O14_6 H24_6 1_555 1_555
O15_4 H25_4 1_555 1_555
O16_4 H26_4 1_555 1_555
C16_7 C13_7 1_555 1_555
C17_7 C14_7 1_555 1_555
C18_7 C15_7 1_555 1_555
H29_7 C16_7 1_555 1_555
H30_7 C17_7 1_555 1_555
H31_7 C18_7 1_555 1_555
O19_6 K3_9 1_555 1_555
O20_4 K3_7 1_555 1_555
O21_4 K3_3 1_555 1_555
H32_6 O19_6 1_555 1_555
H33_4 O20_4 1_555 1_555
H34_4 O21_4 1_555 1_555
C19_7 C16_7 1_555 1_555
C20_7 C17_7 1_555 1_555
C21_7 C18_7 1_555 1_555
H37_7 C19_7 1_555 1_555
H38_7 C20_7 1_555 1_555
H39_7 C21_7 1_555 1_555
O24_7 C22_7 1_555 1_555
O25_7 C23_7 1_555 1_555
O26_7 C24_7 1_555 1_555
C22_7 C19_7 1_555 1_555
C23_7 C20_7 1_555 1_555
C24_7 C21_7 1_555 1_555
H40_7 C24_7 1_555 1_555
H41_7 C23_7 1_555 1_555
H42_7 C22_7 1_555 1_555
C25_7 O11_7 1_555 1_555
C26_7 O12_7 1_555 1_555
C27_7 O13_7 1_555 1_555
H43_7 C27_7 1_555 1_555
H44_7 C26_7 1_555 1_555
H45_7 C25_7 1_555 1_555
O27_7 H46_7 1_555 1_555
O28_7 H47_7 1_555 1_555
O29_7 H48_7 1_555 1_555
C28_7 C27_7 1_555 1_555
C29_7 C26_7 1_555 1_555
C30_7 C25_7 1_555 1_555
H49_7 C28_7 1_555 1_555
H50_7 C29_7 1_555 1_555
H51_7 C30_7 1_555 1_555
H52_7 C28_7 1_555 1_555
H53_7 C29_7 1_555 1_555
H54_7 C30_7 1_555 1_555
O36_4 C31_7 1_555 1_555
O36_2 C32_7 1_555 1_555
O33_7 C33_7 1_555 1_555
C31_7 O24_7 1_555 1_555
C32_7 O25_7 1_555 1_555
C33_7 O26_7 1_555 1_555
H55_7 C31_7 1_555 1_555
H56_7 C32_7 1_555 1_555
H57_7 C33_7 1_555 1_555
O37_7 H58_7 1_555 1_555
O38_7 H59_7 1_555 1_555
O39_7 H60_7 1_555 1_555
C34_7 C31_7 1_555 1_555
C35_7 C32_7 1_555 1_555
C36_7 C33_7 1_555 1_555
H61_7 C34_7 1_555 1_555
H62_7 C35_7 1_555 1_555
H63_7 C36_7 1_555 1_555
O40_7 H64_7 1_555 1_555
O41_7 H65_7 1_555 1_555
O42_7 H66_7 1_555 1_555
C37_7 C34_7 1_555 1_555
C38_7 C35_7 1_555 1_555
C39_7 C36_7 1_555 1_555
H67_7 C37_7 1_555 1_555
H68_7 C38_7 1_555 1_555
H69_7 C39_7 1_555 1_555
O43_7 C10_7 1_555 1_555
O44_7 C14_7 1_555 1_555
O45_7 C15_7 1_555 1_555
C40_7 C37_7 1_555 1_555
C41_7 C38_7 1_555 1_555
C42_7 O9_7 1_555 1_555
H70_7 C42_7 1_555 1_555
H71_7 C41_7 1_555 1_555
H72_7 C40_7 1_555 1_555
C43_7 O36_4 1_555 1_555
C44_7 O36_2 1_555 1_555
C45_7 O33_7 1_555 1_555
H73_7 C45_7 1_555 1_555
H74_7 C44_7 1_555 1_555
H75_7 C43_7 1_555 1_555
C46_7 C45_7 1_555 1_555
C47_7 C44_7 1_555 1_555
C48_7 C43_7 1_555 1_555
H83_7 C46_7 1_555 1_555
H84_7 C47_7 1_555 1_555
H85_7 C48_7 1_555 1_555
H86_7 C46_7 1_555 1_555
H87_7 C47_7 1_555 1_555
H88_7 C48_7 1_555 1_555
O2_6 C2_7 1_555 1_555
O3_6 C3_7 1_555 1_555
C4_7 C5_7 1_555 1_555
O5_7 C6_7 1_555 1_555
O7_7 C8_7 1_555 1_555
O8_7 C9_7 1_555 1_555
C10_7 C11_7 1_555 1_555
O52_5 C12_7 1_555 1_555
C13_7 O43_7 1_555 1_555
O14_6 C16_7 1_555 1_555
O15_4 C17_7 1_555 1_555
O16_4 C18_7 1_555 1_555
O19_6 C19_7 1_555 1_555
O20_4 C20_7 1_555 1_555
O21_4 C21_7 1_555 1_555
C22_7 C25_7 1_555 1_555
C23_7 C26_7 1_555 1_555
C24_7 C27_7 1_555 1_555
O27_7 C28_7 1_555 1_555
O28_7 C29_7 1_555 1_555
O29_7 C30_7 1_555 1_555
O37_7 C34_7 1_555 1_555
O38_7 C35_7 1_555 1_555
O39_7 C36_7 1_555 1_555
O40_7 C37_7 1_555 1_555
O41_7 C38_7 1_555 1_555
O42_7 C39_7 1_555 1_555
C39_7 C42_7 1_555 1_555
O44_7 C40_7 1_555 1_555
O45_7 C41_7 1_555 1_555
C40_7 C43_7 1_555 1_555
C41_7 C44_7 1_555 1_555
C42_7 C45_7 1_555 1_555
O49_7 C46_7 1_555 1_555
O52_2 C47_7 1_555 1_555
O52_4 C48_7 1_555 1_555
O10_5 H94_6 1_555 1_555
O47_6 H97_8 1_555 1_555
O17_6 K6_4 1_555 1_555
O18_4 K3_10 1_555 1_555
H27_6 O17_6 1_555 1_555
H28_4 O18_4 1_555 1_555
O22_6 K6_4 1_555 1_555
O23_4 K3_10 1_555 1_555
H35_6 O22_6 1_555 1_555
H36_4 O23_4 1_555 1_555
O18_4 H89_11 1_555 1_555
O17_6 H90_15 1_555 1_555
O23_4 H91_11 1_555 1_555
O22_6 H92_15 1_555 1_555
O10_6 H95_6 1_555 1_555
O47_2 H96_8 1_555 1_555
O17_7 K3_5 1_555 1_555
O18_5 K6 1_555 1_555
H27_7 O17_7 1_555 1_555
H28_5 O18_5 1_555 1_555
O22_7 K3_5 1_555 1_555
O23_5 K6 1_555 1_555
H35_7 O22_7 1_555 1_555
H36_5 O23_5 1_555 1_555
O18_5 H89_12 1_555 1_555
O17_7 H90_16 1_555 1_555
O23_5 H91_12 1_555 1_555
O22_7 H92_16 1_555 1_555
O48_6 H95_7 1_555 1_555
O10_3 H96_9 1_555 1_555
K3_6 O2_7 1_555 1_555
O1_8 C1_8 1_555 1_555
C1_8 H1_8 1_555 1_555
O2_7 H2_7 1_555 1_555
C2_8 C1_8 1_555 1_555
H3_8 C2_8 1_555 1_555
O3_7 K3_6 1_555 1_555
H4_7 O3_7 1_555 1_555
C3_8 C2_8 1_555 1_555
H5_8 C3_8 1_555 1_555
O4_8 C4_8 1_555 1_555
C4_8 C3_8 1_555 1_555
H6_8 C4_8 1_555 1_555
C5_8 O1_8 1_555 1_555
H7_8 C5_8 1_555 1_555
O5_8 H8_8 1_555 1_555
C6_8 C5_8 1_555 1_555
H9_8 C6_8 1_555 1_555
H10_8 C6_8 1_555 1_555
O33_3 C7_8 1_555 1_555
C7_8 O4_8 1_555 1_555
H11_8 C7_8 1_555 1_555
O7_8 H12_8 1_555 1_555
C8_8 C7_8 1_555 1_555
H13_8 C8_8 1_555 1_555
O8_8 H14_8 1_555 1_555
C9_8 C8_8 1_555 1_555
H15_8 C9_8 1_555 1_555
O9_8 C1_8 1_555 1_555
C10_8 C9_8 1_555 1_555
H16_8 C10_8 1_555 1_555
C11_8 O33_3 1_555 1_555
H17_8 C11_8 1_555 1_555
C12_8 C11_8 1_555 1_555
H19_8 C12_8 1_555 1_555
H20_8 C12_8 1_555 1_555
K6_2 O14_7 1_555 1_555
K3_2 O15_5 1_555 1_555
K6_6 O16_5 1_555 1_555
O11_8 C13_8 1_555 1_555
O12_8 C14_8 1_555 1_555
O13_8 C15_8 1_555 1_555
C13_8 H21_8 1_555 1_555
C14_8 H22_8 1_555 1_555
C15_8 H23_8 1_555 1_555
O14_7 H24_7 1_555 1_555
O15_5 H25_5 1_555 1_555
O16_5 H26_5 1_555 1_555
C16_8 C13_8 1_555 1_555
C17_8 C14_8 1_555 1_555
C18_8 C15_8 1_555 1_555
H29_8 C16_8 1_555 1_555
H30_8 C17_8 1_555 1_555
H31_8 C18_8 1_555 1_555
O19_7 K6_2 1_555 1_555
O20_5 K3_2 1_555 1_555
O21_5 K6_6 1_555 1_555
H32_7 O19_7 1_555 1_555
H33_5 O20_5 1_555 1_555
H34_5 O21_5 1_555 1_555
C19_8 C16_8 1_555 1_555
C20_8 C17_8 1_555 1_555
C21_8 C18_8 1_555 1_555
H37_8 C19_8 1_555 1_555
H38_8 C20_8 1_555 1_555
H39_8 C21_8 1_555 1_555
O24_8 C22_8 1_555 1_555
O25_8 C23_8 1_555 1_555
O26_8 C24_8 1_555 1_555
C22_8 C19_8 1_555 1_555
C23_8 C20_8 1_555 1_555
C24_8 C21_8 1_555 1_555
H40_8 C24_8 1_555 1_555
H41_8 C23_8 1_555 1_555
H42_8 C22_8 1_555 1_555
C25_8 O11_8 1_555 1_555
C26_8 O12_8 1_555 1_555
C27_8 O13_8 1_555 1_555
H43_8 C27_8 1_555 1_555
H44_8 C26_8 1_555 1_555
H45_8 C25_8 1_555 1_555
O27_8 H46_8 1_555 1_555
O28_8 H47_8 1_555 1_555
O29_8 H48_8 1_555 1_555
C28_8 C27_8 1_555 1_555
C29_8 C26_8 1_555 1_555
C30_8 C25_8 1_555 1_555
H49_8 C28_8 1_555 1_555
H50_8 C29_8 1_555 1_555
H51_8 C30_8 1_555 1_555
H52_8 C28_8 1_555 1_555
H53_8 C29_8 1_555 1_555
H54_8 C30_8 1_555 1_555
O34_4 C31_8 1_555 1_555
O33 C32_8 1_555 1_555
O35_4 C33_8 1_555 1_555
C31_8 O24_8 1_555 1_555
C32_8 O25_8 1_555 1_555
C33_8 O26_8 1_555 1_555
H55_8 C31_8 1_555 1_555
H56_8 C32_8 1_555 1_555
H57_8 C33_8 1_555 1_555
O37_8 H58_8 1_555 1_555
O38_8 H59_8 1_555 1_555
O39_8 H60_8 1_555 1_555
C34_8 C31_8 1_555 1_555
C35_8 C32_8 1_555 1_555
C36_8 C33_8 1_555 1_555
H61_8 C34_8 1_555 1_555
H62_8 C35_8 1_555 1_555
H63_8 C36_8 1_555 1_555
O40_8 H64_8 1_555 1_555
O41_8 H65_8 1_555 1_555
O42_8 H66_8 1_555 1_555
C37_8 C34_8 1_555 1_555
C38_8 C35_8 1_555 1_555
C39_8 C36_8 1_555 1_555
H67_8 C37_8 1_555 1_555
H68_8 C38_8 1_555 1_555
H69_8 C39_8 1_555 1_555
O43_8 C10_8 1_555 1_555
O44_8 C14_8 1_555 1_555
O45_8 C15_8 1_555 1_555
C40_8 C37_8 1_555 1_555
C41_8 C38_8 1_555 1_555
C42_8 O9_8 1_555 1_555
H70_8 C42_8 1_555 1_555
H71_8 C41_8 1_555 1_555
H72_8 C40_8 1_555 1_555
C43_8 O34_4 1_555 1_555
C44_8 O33 1_555 1_555
C45_8 O35_4 1_555 1_555
H73_8 C45_8 1_555 1_555
H74_8 C44_8 1_555 1_555
H75_8 C43_8 1_555 1_555
C46_8 C45_8 1_555 1_555
C47_8 C44_8 1_555 1_555
C48_8 C43_8 1_555 1_555
H83_8 C46_8 1_555 1_555
H84_8 C47_8 1_555 1_555
H85_8 C48_8 1_555 1_555
H86_8 C46_8 1_555 1_555
H87_8 C47_8 1_555 1_555
H88_8 C48_8 1_555 1_555
O2_7 C2_8 1_555 1_555
O3_7 C3_8 1_555 1_555
C4_8 C5_8 1_555 1_555
O5_8 C6_8 1_555 1_555
O7_8 C8_8 1_555 1_555
O8_8 C9_8 1_555 1_555
C10_8 C11_8 1_555 1_555
O49_3 C12_8 1_555 1_555
C13_8 O43_8 1_555 1_555
O14_7 C16_8 1_555 1_555
O15_5 C17_8 1_555 1_555
O16_5 C18_8 1_555 1_555
O19_7 C19_8 1_555 1_555
O20_5 C20_8 1_555 1_555
O21_5 C21_8 1_555 1_555
C22_8 C25_8 1_555 1_555
C23_8 C26_8 1_555 1_555
C24_8 C27_8 1_555 1_555
O27_8 C28_8 1_555 1_555
O28_8 C29_8 1_555 1_555
O29_8 C30_8 1_555 1_555
O37_8 C34_8 1_555 1_555
O38_8 C35_8 1_555 1_555
O39_8 C36_8 1_555 1_555
O40_8 C37_8 1_555 1_555
O41_8 C38_8 1_555 1_555
O42_8 C39_8 1_555 1_555
C39_8 C42_8 1_555 1_555
O44_8 C40_8 1_555 1_555
O45_8 C41_8 1_555 1_555
C40_8 C43_8 1_555 1_555
C41_8 C44_8 1_555 1_555
C42_8 C45_8 1_555 1_555
O51_4 C46_8 1_555 1_555
O49 C47_8 1_555 1_555
O50_4 C48_8 1_555 1_555
O47 H94_7 1_555 1_555
O46_6 H97_9 1_555 1_555
O15_4 H89_13 1_555 1_555
O16_4 H90_17 1_555 1_555
O20_4 H91_13 1_555 1_555
O21_4 H92_17 1_555 1_555
O10_4 H95_8 1_555 1_555
O10_2 H96_10 1_555 1_555
K3_4 O2_8 1_555 1_555
O1_9 C1_9 1_555 1_555
C1_9 H1_9 1_555 1_555
O2_8 H2_8 1_555 1_555
C2_9 C1_9 1_555 1_555
H3_9 C2_9 1_555 1_555
O3_8 K3_4 1_555 1_555
H4_8 O3_8 1_555 1_555
C3_9 C2_9 1_555 1_555
H5_9 C3_9 1_555 1_555
O4_9 C4_9 1_555 1_555
C4_9 C3_9 1_555 1_555
H6_9 C4_9 1_555 1_555
C5_9 O1_9 1_555 1_555
H7_9 C5_9 1_555 1_555
O5_9 H8_9 1_555 1_555
C6_9 C5_9 1_555 1_555
H9_9 C6_9 1_555 1_555
H10_9 C6_9 1_555 1_555
O33_2 C7_9 1_555 1_555
C7_9 O4_9 1_555 1_555
H11_9 C7_9 1_555 1_555
O7_9 H12_9 1_555 1_555
C8_9 C7_9 1_555 1_555
H13_9 C8_9 1_555 1_555
O8_9 H14_9 1_555 1_555
C9_9 C8_9 1_555 1_555
H15_9 C9_9 1_555 1_555
O9_9 C1_9 1_555 1_555
C10_9 C9_9 1_555 1_555
H16_9 C10_9 1_555 1_555
C11_9 O33_2 1_555 1_555
H17_9 C11_9 1_555 1_555
C12_9 C11_9 1_555 1_555
H19_9 C12_9 1_555 1_555
H20_9 C12_9 1_555 1_555
K3_8 O14_8 1_555 1_555
O11_9 C13_9 1_555 1_555
O12_9 C14_9 1_555 1_555
O13_9 C15_9 1_555 1_555
C13_9 H21_9 1_555 1_555
C14_9 H22_9 1_555 1_555
C15_9 H23_9 1_555 1_555
O14_8 H24_8 1_555 1_555
C16_9 C13_9 1_555 1_555
C17_9 C14_9 1_555 1_555
C18_9 C15_9 1_555 1_555
H29_9 C16_9 1_555 1_555
H30_9 C17_9 1_555 1_555
H31_9 C18_9 1_555 1_555
O19_8 K3_8 1_555 1_555
H32_8 O19_8 1_555 1_555
C19_9 C16_9 1_555 1_555
C20_9 C17_9 1_555 1_555
C21_9 C18_9 1_555 1_555
H37_9 C19_9 1_555 1_555
H38_9 C20_9 1_555 1_555
H39_9 C21_9 1_555 1_555
O24_9 C22_9 1_555 1_555
O25_9 C23_9 1_555 1_555
O26_9 C24_9 1_555 1_555
C22_9 C19_9 1_555 1_555
C23_9 C20_9 1_555 1_555
C24_9 C21_9 1_555 1_555
H40_9 C24_9 1_555 1_555
H41_9 C23_9 1_555 1_555
H42_9 C22_9 1_555 1_555
C25_9 O11_9 1_555 1_555
C26_9 O12_9 1_555 1_555
C27_9 O13_9 1_555 1_555
H43_9 C27_9 1_555 1_555
H44_9 C26_9 1_555 1_555
H45_9 C25_9 1_555 1_555
O27_9 H46_9 1_555 1_555
O28_9 H47_9 1_555 1_555
O29_9 H48_9 1_555 1_555
C28_9 C27_9 1_555 1_555
C29_9 C26_9 1_555 1_555
C30_9 C25_9 1_555 1_555
H49_9 C28_9 1_555 1_555
H50_9 C29_9 1_555 1_555
H51_9 C30_9 1_555 1_555
H52_9 C28_9 1_555 1_555
H53_9 C29_9 1_555 1_555
H54_9 C30_9 1_555 1_555
O33_4 C31_9 1_555 1_555
O33_5 C32_9 1_555 1_555
O34_6 C33_9 1_555 1_555
C31_9 O24_9 1_555 1_555
C32_9 O25_9 1_555 1_555
C33_9 O26_9 1_555 1_555
H55_9 C31_9 1_555 1_555
H56_9 C32_9 1_555 1_555
H57_9 C33_9 1_555 1_555
O37_9 H58_9 1_555 1_555
O38_9 H59_9 1_555 1_555
O39_9 H60_9 1_555 1_555
C34_9 C31_9 1_555 1_555
C35_9 C32_9 1_555 1_555
C36_9 C33_9 1_555 1_555
H61_9 C34_9 1_555 1_555
H62_9 C35_9 1_555 1_555
H63_9 C36_9 1_555 1_555
O40_9 H64_9 1_555 1_555
O41_9 H65_9 1_555 1_555
O42_9 H66_9 1_555 1_555
C37_9 C34_9 1_555 1_555
C38_9 C35_9 1_555 1_555
C39_9 C36_9 1_555 1_555
H67_9 C37_9 1_555 1_555
H68_9 C38_9 1_555 1_555
H69_9 C39_9 1_555 1_555
O43_9 C10_9 1_555 1_555
O44_9 C14_9 1_555 1_555
O45_9 C15_9 1_555 1_555
C40_9 C37_9 1_555 1_555
C41_9 C38_9 1_555 1_555
C42_9 O9_9 1_555 1_555
H70_9 C42_9 1_555 1_555
H71_9 C41_9 1_555 1_555
H72_9 C40_9 1_555 1_555
C43_9 O33_4 1_555 1_555
C44_9 O33_5 1_555 1_555
C45_9 O34_6 1_555 1_555
H73_9 C45_9 1_555 1_555
H74_9 C44_9 1_555 1_555
H75_9 C43_9 1_555 1_555
C46_9 C45_9 1_555 1_555
C47_9 C44_9 1_555 1_555
C48_9 C43_9 1_555 1_555
H83_9 C46_9 1_555 1_555
H84_9 C47_9 1_555 1_555
H85_9 C48_9 1_555 1_555
H86_9 C46_9 1_555 1_555
H87_9 C47_9 1_555 1_555
H88_9 C48_9 1_555 1_555
O2_8 C2_9 1_555 1_555
O3_8 C3_9 1_555 1_555
C4_9 C5_9 1_555 1_555
O5_9 C6_9 1_555 1_555
O7_9 C8_9 1_555 1_555
O8_9 C9_9 1_555 1_555
C10_9 C11_9 1_555 1_555
O49_2 C12_9 1_555 1_555
C13_9 O43_9 1_555 1_555
O14_8 C16_9 1_555 1_555
O18_4 C17_9 1_555 1_555
O17_6 C18_9 1_555 1_555
O19_8 C19_9 1_555 1_555
O23_4 C20_9 1_555 1_555
O22_6 C21_9 1_555 1_555
C22_9 C25_9 1_555 1_555
C23_9 C26_9 1_555 1_555
C24_9 C27_9 1_555 1_555
O27_9 C28_9 1_555 1_555
O28_9 C29_9 1_555 1_555
O29_9 C30_9 1_555 1_555
O37_9 C34_9 1_555 1_555
O38_9 C35_9 1_555 1_555
O39_9 C36_9 1_555 1_555
O40_9 C37_9 1_555 1_555
O41_9 C38_9 1_555 1_555
O42_9 C39_9 1_555 1_555
C39_9 C42_9 1_555 1_555
O44_9 C40_9 1_555 1_555
O45_9 C41_9 1_555 1_555
C40_9 C43_9 1_555 1_555
C41_9 C44_9 1_555 1_555
C42_9 C45_9 1_555 1_555
O50_6 C46_9 1_555 1_555
O49_5 C47_9 1_555 1_555
O49_4 C48_9 1_555 1_555
O47_5 H94_8 1_555 1_555
O47_4 H97_10 1_555 1_555
K4_3 O2_9 1_555 1_555
O1_10 C1_10 1_555 1_555
C1_10 H1_10 1_555 1_555
O2_9 H2_9 1_555 1_555
C2_10 C1_10 1_555 1_555
H3_10 C2_10 1_555 1_555
O3_9 K4_3 1_555 1_555
H4_9 O3_9 1_555 1_555
C3_10 C2_10 1_555 1_555
H5_10 C3_10 1_555 1_555
O4_10 C4_10 1_555 1_555
C4_10 C3_10 1_555 1_555
H6_10 C4_10 1_555 1_555
C5_10 O1_10 1_555 1_555
H7_10 C5_10 1_555 1_555
O5_10 H8_10 1_555 1_555
C6_10 C5_10 1_555 1_555
H9_10 C6_10 1_555 1_555
H10_10 C6_10 1_555 1_555
O35_3 C7_10 1_555 1_555
C7_10 O4_10 1_555 1_555
H11_10 C7_10 1_555 1_555
O7_10 H12_10 1_555 1_555
C8_10 C7_10 1_555 1_555
H13_10 C8_10 1_555 1_555
O8_10 H14_10 1_555 1_555
C9_10 C8_10 1_555 1_555
H15_10 C9_10 1_555 1_555
O9_10 C1_10 1_555 1_555
C10_10 C9_10 1_555 1_555
H16_10 C10_10 1_555 1_555
C11_10 O35_3 1_555 1_555
H17_10 C11_10 1_555 1_555
C12_10 C11_10 1_555 1_555
H19_10 C12_10 1_555 1_555
H20_10 C12_10 1_555 1_555
K4 O14_9 1_555 1_555
K8 O15_6 1_555 1_555
K8_3 O16_6 1_555 1_555
O11_10 C13_10 1_555 1_555
O12_10 C14_10 1_555 1_555
O13_10 C15_10 1_555 1_555
C13_10 H21_10 1_555 1_555
C14_10 H22_10 1_555 1_555
C15_10 H23_10 1_555 1_555
O14_9 H24_9 1_555 1_555
O15_6 H25_6 1_555 1_555
O16_6 H26_6 1_555 1_555
C16_10 C13_10 1_555 1_555
C17_10 C14_10 1_555 1_555
C18_10 C15_10 1_555 1_555
H29_10 C16_10 1_555 1_555
H30_10 C17_10 1_555 1_555
H31_10 C18_10 1_555 1_555
O19_9 K4 1_555 1_555
O20_6 K8 1_555 1_555
O21_6 K8_3 1_555 1_555
H32_9 O19_9 1_555 1_555
H33_6 O20_6 1_555 1_555
H34_6 O21_6 1_555 1_555
C19_10 C16_10 1_555 1_555
C20_10 C17_10 1_555 1_555
C21_10 C18_10 1_555 1_555
H37_10 C19_10 1_555 1_555
H38_10 C20_10 1_555 1_555
H39_10 C21_10 1_555 1_555
O24_10 C22_10 1_555 1_555
O25_10 C23_10 1_555 1_555
O26_10 C24_10 1_555 1_555
C22_10 C19_10 1_555 1_555
C23_10 C20_10 1_555 1_555
C24_10 C21_10 1_555 1_555
H40_10 C24_10 1_555 1_555
H41_10 C23_10 1_555 1_555
H42_10 C22_10 1_555 1_555
C25_10 O11_10 1_555 1_555
C26_10 O12_10 1_555 1_555
C27_10 O13_10 1_555 1_555
H43_10 C27_10 1_555 1_555
H44_10 C26_10 1_555 1_555
H45_10 C25_10 1_555 1_555
O27_10 H46_10 1_555 1_555
O28_10 H47_10 1_555 1_555
O29_10 H48_10 1_555 1_555
C28_10 C27_10 1_555 1_555
C29_10 C26_10 1_555 1_555
C30_10 C25_10 1_555 1_555
H49_10 C28_10 1_555 1_555
H50_10 C29_10 1_555 1_555
H51_10 C30_10 1_555 1_555
H52_10 C28_10 1_555 1_555
H53_10 C29_10 1_555 1_555
H54_10 C30_10 1_555 1_555
O34_5 C31_10 1_555 1_555
O34_3 C32_10 1_555 1_555
O35_5 C33_10 1_555 1_555
C31_10 O24_10 1_555 1_555
C32_10 O25_10 1_555 1_555
C33_10 O26_10 1_555 1_555
H55_10 C31_10 1_555 1_555
H56_10 C32_10 1_555 1_555
H57_10 C33_10 1_555 1_555
O37_10 H58_10 1_555 1_555
O38_10 H59_10 1_555 1_555
O39_10 H60_10 1_555 1_555
C34_10 C31_10 1_555 1_555
C35_10 C32_10 1_555 1_555
C36_10 C33_10 1_555 1_555
H61_10 C34_10 1_555 1_555
H62_10 C35_10 1_555 1_555
H63_10 C36_10 1_555 1_555
O40_10 H64_10 1_555 1_555
O41_10 H65_10 1_555 1_555
O42_10 H66_10 1_555 1_555
C37_10 C34_10 1_555 1_555
C38_10 C35_10 1_555 1_555
C39_10 C36_10 1_555 1_555
H67_10 C37_10 1_555 1_555
H68_10 C38_10 1_555 1_555
H69_10 C39_10 1_555 1_555
O43_10 C10_10 1_555 1_555
O44_10 C14_10 1_555 1_555
O45_10 C15_10 1_555 1_555
C40_10 C37_10 1_555 1_555
C41_10 C38_10 1_555 1_555
C42_10 O9_10 1_555 1_555
H70_10 C42_10 1_555 1_555
H71_10 C41_10 1_555 1_555
H72_10 C40_10 1_555 1_555
C43_10 O34_5 1_555 1_555
C44_10 O34_3 1_555 1_555
C45_10 O35_5 1_555 1_555
H73_10 C45_10 1_555 1_555
H74_10 C44_10 1_555 1_555
H75_10 C43_10 1_555 1_555
C46_10 C45_10 1_555 1_555
C47_10 C44_10 1_555 1_555
C48_10 C43_10 1_555 1_555
H83_10 C46_10 1_555 1_555
H84_10 C47_10 1_555 1_555
H85_10 C48_10 1_555 1_555
H86_10 C46_10 1_555 1_555
H87_10 C47_10 1_555 1_555
H88_10 C48_10 1_555 1_555
O2_9 C2_10 1_555 1_555
O3_9 C3_10 1_555 1_555
C4_10 C5_10 1_555 1_555
O5_10 C6_10 1_555 1_555
O7_10 C8_10 1_555 1_555
O8_10 C9_10 1_555 1_555
C10_10 C11_10 1_555 1_555
O51_3 C12_10 1_555 1_555
C13_10 O43_10 1_555 1_555
O14_9 C16_10 1_555 1_555
O15_6 C17_10 1_555 1_555
O16_6 C18_10 1_555 1_555
O19_9 C19_10 1_555 1_555
O20_6 C20_10 1_555 1_555
O21_6 C21_10 1_555 1_555
C22_10 C25_10 1_555 1_555
C23_10 C26_10 1_555 1_555
C24_10 C27_10 1_555 1_555
O27_10 C28_10 1_555 1_555
O28_10 C29_10 1_555 1_555
O29_10 C30_10 1_555 1_555
O37_10 C34_10 1_555 1_555
O38_10 C35_10 1_555 1_555
O39_10 C36_10 1_555 1_555
O40_10 C37_10 1_555 1_555
O41_10 C38_10 1_555 1_555
O42_10 C39_10 1_555 1_555
C39_10 C42_10 1_555 1_555
O44_10 C40_10 1_555 1_555
O45_10 C41_10 1_555 1_555
C40_10 C43_10 1_555 1_555
C41_10 C44_10 1_555 1_555
C42_10 C45_10 1_555 1_555
O51_5 C46_10 1_555 1_555
O50_3 C47_10 1_555 1_555
O50_5 C48_10 1_555 1_555
O48 H94_9 1_555 1_555
O48_2 H97_11 1_555 1_555
O17_8 K4_4 1_555 1_555
O18_6 K4_2 1_555 1_555
H27_8 O17_8 1_555 1_555
H28_6 O18_6 1_555 1_555
O22_8 K4_4 1_555 1_555
O23_6 K4_2 1_555 1_555
H35_8 O22_8 1_555 1_555
H36_6 O23_6 1_555 1_555
O18_6 H89_14 1_555 1_555
O17_8 H90_18 1_555 1_555
O23_6 H91_14 1_555 1_555
O22_8 H92_18 1_555 1_555
O46_2 H95_9 1_555 1_555
O48_3 H96_11 1_555 1_555
O2_6 H89_15 1_555 1_555
O14_6 H90_19 1_555 1_555
O3_6 H91_15 1_555 1_555
O19_6 H92_19 1_555 1_555
K6_5 O2_10 1_555 1_555
O1_11 C1_11 1_555 1_555
C1_11 H1_11 1_555 1_555
O2_10 H2_10 1_555 1_555
C2_11 C1_11 1_555 1_555
H3_11 C2_11 1_555 1_555
O3_10 K6_5 1_555 1_555
H4_10 O3_10 1_555 1_555
C3_11 C2_11 1_555 1_555
H5_11 C3_11 1_555 1_555
O4_11 C4_11 1_555 1_555
C4_11 C3_11 1_555 1_555
H6_11 C4_11 1_555 1_555
C5_11 O1_11 1_555 1_555
H7_11 C5_11 1_555 1_555
O5_11 H8_11 1_555 1_555
C6_11 C5_11 1_555 1_555
H9_11 C6_11 1_555 1_555
H10_11 C6_11 1_555 1_555
O36 C7_11 1_555 1_555
C7_11 O4_11 1_555 1_555
H11_11 C7_11 1_555 1_555
O7_11 H12_11 1_555 1_555
C8_11 C7_11 1_555 1_555
H13_11 C8_11 1_555 1_555
O8_11 H14_11 1_555 1_555
C9_11 C8_11 1_555 1_555
H15_11 C9_11 1_555 1_555
O9_11 C1_11 1_555 1_555
C10_11 C9_11 1_555 1_555
H16_11 C10_11 1_555 1_555
C11_11 O36 1_555 1_555
H17_11 C11_11 1_555 1_555
C12_11 C11_11 1_555 1_555
H19_11 C12_11 1_555 1_555
H20_11 C12_11 1_555 1_555
K3 O14_10 1_555 1_555
O11_11 C13_11 1_555 1_555
O12_11 C14_11 1_555 1_555
O13_11 C15_11 1_555 1_555
C13_11 H21_11 1_555 1_555
C14_11 H22_11 1_555 1_555
C15_11 H23_11 1_555 1_555
O14_10 H24_10 1_555 1_555
C16_11 C13_11 1_555 1_555
C17_11 C14_11 1_555 1_555
C18_11 C15_11 1_555 1_555
H29_11 C16_11 1_555 1_555
H30_11 C17_11 1_555 1_555
H31_11 C18_11 1_555 1_555
O19_10 K3 1_555 1_555
H32_10 O19_10 1_555 1_555
C19_11 C16_11 1_555 1_555
C20_11 C17_11 1_555 1_555
C21_11 C18_11 1_555 1_555
H37_11 C19_11 1_555 1_555
H38_11 C20_11 1_555 1_555
H39_11 C21_11 1_555 1_555
O24_11 C22_11 1_555 1_555
O25_11 C23_11 1_555 1_555
O26_11 C24_11 1_555 1_555
C22_11 C19_11 1_555 1_555
C23_11 C20_11 1_555 1_555
C24_11 C21_11 1_555 1_555
H40_11 C24_11 1_555 1_555
H41_11 C23_11 1_555 1_555
H42_11 C22_11 1_555 1_555
C25_11 O11_11 1_555 1_555
C26_11 O12_11 1_555 1_555
C27_11 O13_11 1_555 1_555
H43_11 C27_11 1_555 1_555
H44_11 C26_11 1_555 1_555
H45_11 C25_11 1_555 1_555
O27_11 H46_11 1_555 1_555
O28_11 H47_11 1_555 1_555
O29_11 H48_11 1_555 1_555
C28_11 C27_11 1_555 1_555
C29_11 C26_11 1_555 1_555
C30_11 C25_11 1_555 1_555
H49_11 C28_11 1_555 1_555
H50_11 C29_11 1_555 1_555
H51_11 C30_11 1_555 1_555
H52_11 C28_11 1_555 1_555
H53_11 C29_11 1_555 1_555
H54_11 C30_11 1_555 1_555
O33_6 C31_11 1_555 1_555
O36_3 C32_11 1_555 1_555
O34_7 C33_11 1_555 1_555
C31_11 O24_11 1_555 1_555
C32_11 O25_11 1_555 1_555
C33_11 O26_11 1_555 1_555
H55_11 C31_11 1_555 1_555
H56_11 C32_11 1_555 1_555
H57_11 C33_11 1_555 1_555
O37_11 H58_11 1_555 1_555
O38_11 H59_11 1_555 1_555
O39_11 H60_11 1_555 1_555
C34_11 C31_11 1_555 1_555
C35_11 C32_11 1_555 1_555
C36_11 C33_11 1_555 1_555
H61_11 C34_11 1_555 1_555
H62_11 C35_11 1_555 1_555
H63_11 C36_11 1_555 1_555
O40_11 H64_11 1_555 1_555
O41_11 H65_11 1_555 1_555
O42_11 H66_11 1_555 1_555
C37_11 C34_11 1_555 1_555
C38_11 C35_11 1_555 1_555
C39_11 C36_11 1_555 1_555
H67_11 C37_11 1_555 1_555
H68_11 C38_11 1_555 1_555
H69_11 C39_11 1_555 1_555
O43_11 C10_11 1_555 1_555
O44_11 C14_11 1_555 1_555
O45_11 C15_11 1_555 1_555
C40_11 C37_11 1_555 1_555
C41_11 C38_11 1_555 1_555
C42_11 O9_11 1_555 1_555
H70_11 C42_11 1_555 1_555
H71_11 C41_11 1_555 1_555
H72_11 C40_11 1_555 1_555
C43_11 O33_6 1_555 1_555
C44_11 O36_3 1_555 1_555
C45_11 O34_7 1_555 1_555
H73_11 C45_11 1_555 1_555
H74_11 C44_11 1_555 1_555
H75_11 C43_11 1_555 1_555
C46_11 C45_11 1_555 1_555
C47_11 C44_11 1_555 1_555
C48_11 C43_11 1_555 1_555
H83_11 C46_11 1_555 1_555
H84_11 C47_11 1_555 1_555
H85_11 C48_11 1_555 1_555
H86_11 C46_11 1_555 1_555
H87_11 C47_11 1_555 1_555
H88_11 C48_11 1_555 1_555
O2_10 C2_11 1_555 1_555
O3_10 C3_11 1_555 1_555
C4_11 C5_11 1_555 1_555
O5_11 C6_11 1_555 1_555
O7_11 C8_11 1_555 1_555
O8_11 C9_11 1_555 1_555
C10_11 C11_11 1_555 1_555
O52 C12_11 1_555 1_555
C13_11 O43_11 1_555 1_555
O14_10 C16_11 1_555 1_555
O18_5 C17_11 1_555 1_555
O17_7 C18_11 1_555 1_555
O19_10 C19_11 1_555 1_555
O23_5 C20_11 1_555 1_555
O22_7 C21_11 1_555 1_555
C22_11 C25_11 1_555 1_555
C23_11 C26_11 1_555 1_555
C24_11 C27_11 1_555 1_555
O27_11 C28_11 1_555 1_555
O28_11 C29_11 1_555 1_555
O29_11 C30_11 1_555 1_555
O37_11 C34_11 1_555 1_555
O38_11 C35_11 1_555 1_555
O39_11 C36_11 1_555 1_555
O40_11 C37_11 1_555 1_555
O41_11 C38_11 1_555 1_555
O42_11 C39_11 1_555 1_555
C39_11 C42_11 1_555 1_555
O44_11 C40_11 1_555 1_555
O45_11 C41_11 1_555 1_555
C40_11 C43_11 1_555 1_555
C41_11 C44_11 1_555 1_555
C42_11 C45_11 1_555 1_555
O50_7 C46_11 1_555 1_555
O52_3 C47_11 1_555 1_555
O49_6 C48_11 1_555 1_555
O10 H94_10 1_555 1_555
O48_4 H97_12 1_555 1_555
O15_5 H89_16 1_555 1_555
O16_5 H90_20 1_555 1_555
O20_5 H91_16 1_555 1_555
O21_5 H92_20 1_555 1_555
O46_4 H95_10 1_555 1_555
O47_3 H96_12 1_555 1_555
O46_3 H97_13 1_555 1_555
O17_9 K8_4 1_555 1_555
H27_9 O17_9 1_555 1_555
O22_9 K8_4 1_555 1_555
H35_9 O22_9 1_555 1_555
O17_9 H90_21 1_555 1_555
O22_9 H92_21 1_555 1_555
O48_5 H96_13 1_555 1_555
O2_7 H89_17 1_555 1_555
O14_7 H90_22 1_555 1_555
O3_7 H91_17 1_555 1_555
O19_7 H92_22 1_555 1_555
O2_8 H89_18 1_555 1_555
O14_8 H90_23 1_555 1_555
O3_8 H91_18 1_555 1_555
O19_8 H92_23 1_555 1_555
O46_5 H97_14 1_555 1_555
O17_10 K8_2 1_555 1_555
H27_10 O17_10 1_555 1_555
O22_10 K8_2 1_555 1_555
H35_10 O22_10 1_555 1_555
O17_10 H90_24 1_555 1_555
O22_10 H92_24 1_555 1_555
O46 H96_14 1_555 1_555
O2_10 H89_19 1_555 1_555
O14_10 H90_25 1_555 1_555
O3_10 H91_19 1_555 1_555
O19_10 H92_25 1_555 1_555
O2_9 H89_20 1_555 1_555
O14_9 H90_26 1_555 1_555
O3_9 H91_20 1_555 1_555
O19_9 H92_26 1_555 1_555
O1_12 C1_12 1_555 1_555
C1_12 H1_12 1_555 1_555
C2_12 C1_12 1_555 1_555
H3_12 C2_12 1_555 1_555
C3_12 C2_12 1_555 1_555
H5_12 C3_12 1_555 1_555
O4_12 C4_12 1_555 1_555
C4_12 C3_12 1_555 1_555
H6_12 C4_12 1_555 1_555
C5_12 O1_12 1_555 1_555
H7_12 C5_12 1_555 1_555
O5_12 H8_12 1_555 1_555
C6_12 C5_12 1_555 1_555
H9_12 C6_12 1_555 1_555
H10_12 C6_12 1_555 1_555
O35 C7_12 1_555 1_555
C7_12 O4_12 1_555 1_555
H11_12 C7_12 1_555 1_555
O7_12 H12_12 1_555 1_555
C8_12 C7_12 1_555 1_555
H13_12 C8_12 1_555 1_555
O8_12 H14_12 1_555 1_555
C9_12 C8_12 1_555 1_555
H15_12 C9_12 1_555 1_555
O9_12 C1_12 1_555 1_555
C10_12 C9_12 1_555 1_555
H16_12 C10_12 1_555 1_555
C11_12 O35 1_555 1_555
H17_12 C11_12 1_555 1_555
C12_12 C11_12 1_555 1_555
H19_12 C12_12 1_555 1_555
H20_12 C12_12 1_555 1_555
O11_12 C13_12 1_555 1_555
O12_12 C14_12 1_555 1_555
O13_12 C15_12 1_555 1_555
C13_12 H21_12 1_555 1_555
C14_12 H22_12 1_555 1_555
C15_12 H23_12 1_555 1_555
C16_12 C13_12 1_555 1_555
C17_12 C14_12 1_555 1_555
C18_12 C15_12 1_555 1_555
H29_12 C16_12 1_555 1_555
H30_12 C17_12 1_555 1_555
H31_12 C18_12 1_555 1_555
C19_12 C16_12 1_555 1_555
C20_12 C17_12 1_555 1_555
C21_12 C18_12 1_555 1_555
H37_12 C19_12 1_555 1_555
H38_12 C20_12 1_555 1_555
H39_12 C21_12 1_555 1_555
O24_12 C22_12 1_555 1_555
O25_12 C23_12 1_555 1_555
O26_12 C24_12 1_555 1_555
C22_12 C19_12 1_555 1_555
C23_12 C20_12 1_555 1_555
C24_12 C21_12 1_555 1_555
H40_12 C24_12 1_555 1_555
H41_12 C23_12 1_555 1_555
H42_12 C22_12 1_555 1_555
C25_12 O11_12 1_555 1_555
C26_12 O12_12 1_555 1_555
C27_12 O13_12 1_555 1_555
H43_12 C27_12 1_555 1_555
H44_12 C26_12 1_555 1_555
H45_12 C25_12 1_555 1_555
O27_12 H46_12 1_555 1_555
O28_12 H47_12 1_555 1_555
O29_12 H48_12 1_555 1_555
C28_12 C27_12 1_555 1_555
C29_12 C26_12 1_555 1_555
C30_12 C25_12 1_555 1_555
H49_12 C28_12 1_555 1_555
H50_12 C29_12 1_555 1_555
H51_12 C30_12 1_555 1_555
H52_12 C28_12 1_555 1_555
H53_12 C29_12 1_555 1_555
H54_12 C30_12 1_555 1_555
O35_2 C31_12 1_555 1_555
O34 C32_12 1_555 1_555
O34_2 C33_12 1_555 1_555
C31_12 O24_12 1_555 1_555
C32_12 O25_12 1_555 1_555
C33_12 O26_12 1_555 1_555
H55_12 C31_12 1_555 1_555
H56_12 C32_12 1_555 1_555
H57_12 C33_12 1_555 1_555
O37_12 H58_12 1_555 1_555
O38_12 H59_12 1_555 1_555
O39_12 H60_12 1_555 1_555
C34_12 C31_12 1_555 1_555
C35_12 C32_12 1_555 1_555
C36_12 C33_12 1_555 1_555
H61_12 C34_12 1_555 1_555
H62_12 C35_12 1_555 1_555
H63_12 C36_12 1_555 1_555
O40_12 H64_12 1_555 1_555
O41_12 H65_12 1_555 1_555
O42_12 H66_12 1_555 1_555
C37_12 C34_12 1_555 1_555
C38_12 C35_12 1_555 1_555
C39_12 C36_12 1_555 1_555
H67_12 C37_12 1_555 1_555
H68_12 C38_12 1_555 1_555
H69_12 C39_12 1_555 1_555
O43_12 C10_12 1_555 1_555
O44_12 C14_12 1_555 1_555
O45_12 C15_12 1_555 1_555
C40_12 C37_12 1_555 1_555
C41_12 C38_12 1_555 1_555
C42_12 O9_12 1_555 1_555
H70_12 C42_12 1_555 1_555
H71_12 C41_12 1_555 1_555
H72_12 C40_12 1_555 1_555
C43_12 O35_2 1_555 1_555
C44_12 O34 1_555 1_555
C45_12 O34_2 1_555 1_555
H73_12 C45_12 1_555 1_555
H74_12 C44_12 1_555 1_555
H75_12 C43_12 1_555 1_555
C46_12 C45_12 1_555 1_555
C47_12 C44_12 1_555 1_555
C48_12 C43_12 1_555 1_555
H83_12 C46_12 1_555 1_555
H84_12 C47_12 1_555 1_555
H85_12 C48_12 1_555 1_555
H86_12 C46_12 1_555 1_555
H87_12 C47_12 1_555 1_555
H88_12 C48_12 1_555 1_555
O18_6 C2_12 1_555 1_555
O23_6 C3_12 1_555 1_555
C4_12 C5_12 1_555 1_555
O5_12 C6_12 1_555 1_555
O7_12 C8_12 1_555 1_555
O8_12 C9_12 1_555 1_555
C10_12 C11_12 1_555 1_555
O51 C12_12 1_555 1_555
C13_12 O43_12 1_555 1_555
O17_8 C16_12 1_555 1_555
O17_9 C17_12 1_555 1_555
O17_10 C18_12 1_555 1_555
O22_8 C19_12 1_555 1_555
O22_9 C20_12 1_555 1_555
O22_10 C21_12 1_555 1_555
C22_12 C25_12 1_555 1_555
C23_12 C26_12 1_555 1_555
C24_12 C27_12 1_555 1_555
O27_12 C28_12 1_555 1_555
O28_12 C29_12 1_555 1_555
O29_12 C30_12 1_555 1_555
O37_12 C34_12 1_555 1_555
O38_12 C35_12 1_555 1_555
O39_12 C36_12 1_555 1_555
O40_12 C37_12 1_555 1_555
O41_12 C38_12 1_555 1_555
O42_12 C39_12 1_555 1_555
C39_12 C42_12 1_555 1_555
O44_12 C40_12 1_555 1_555
O45_12 C41_12 1_555 1_555
C40_12 C43_12 1_555 1_555
C41_12 C44_12 1_555 1_555
C42_12 C45_12 1_555 1_555
O50_2 C46_12 1_555 1_555
O50 C47_12 1_555 1_555
O51_2 C48_12 1_555 1_555
O15_6 H90_27 1_555 1_555
O20_6 H92_27 1_555 1_555
O16_6 H90_28 1_555 1_555
O21_6 H92_28 1_555 1_555
O53 H93 1_555 1_555
O53_2 H93_2 1_555 1_555
O53_3 H93_3 1_555 1_555
O53_4 H93_4 1_555 1_555
O53_5 H93_5 1_555 1_555
O53_6 H93_6 1_555 1_555
O53_7 H93_7 1_555 1_555
O53_8 H93_8 1_555 1_555
O53_9 H93_9 1_555 1_555
O53_10 H93_10 1_555 1_555
O53_11 H93_11 1_555 1_555
O53_12 H93_12 1_555 1_555
O53_13 H93_13 1_555 1_555
O53_14 H93_14 1_555 1_555
O53_15 H93_15 1_555 1_555
O53_16 H93_16 1_555 1_555
O53_17 H93_17 1_555 1_555
O53_18 H93_18 1_555 1_555
O53_19 H93_19 1_555 1_555
O53_20 H93_20 1_555 1_555
O53_21 H93_21 1_555 1_555
O53_22 H93_22 1_555 1_555
O53_23 H93_23 1_555 1_555
O53_24 H93_24 1_555 1_555
O53_25 H93_25 1_555 1_555
O53_26 H93_26 1_555 1_555
O53_27 H93_27 1_555 1_555
O53_28 H93_28 1_555 1_555
O53_29 H93_29 1_555 1_555
O53_30 H93_30 1_555 1_555
O53_31 H93_31 1_555 1_555
O53_32 H93_32 1_555 1_555
O53_33 H93_33 1_555 1_555
O53_34 H93_34 1_555 1_555
O53_35 H93_35 1_555 1_555
O53_36 H93_36 1_555 1_555
O53_37 H93_37 1_555 1_555
O53_38 H93_38 1_555 1_555
O53_39 H93_39 1_555 1_555
O53_40 H93_40 1_555 1_555
O53_41 H93_41 1_555 1_555
O53_42 H93_42 1_555 1_555
O53_43 H93_43 1_555 1_555
O53_44 H93_44 1_555 1_555
O53_45 H93_45 1_555 1_555
O53_46 H93_46 1_555 1_555
O53_47 H93_47 1_555 1_555
O53_48 H93_48 1_555 1_555

#END
