
###############################################################################
#
# This file contains modified crystal structure data generated from the
# MOF subset of the Cambridge Structural Database (CSD) v543 
# hosted by the Cambridge Crystallographic Data Centre (CCDC).
#
# This work is licensed under the Creative Commons
# Attribution-NonCommercial-ShareAlike 4.0 International License.
# To view a copy of this license, visit
# http://creativecommons.org/licenses/by-nc-sa/4.0/
# or send a letter to
# Creative Commons, PO Box 1866, Mountain View, CA 94042, USA.
#
# CIF created using the CSD Python API on 29 September 2022
# The structure has been converted into the P1 space group
# The structure has a 3D framework
# The original CSD entry LAJLIT is in the rhombohedral crystal system
# The original CSD entry LAJLIT is in a Sohncke space group
# The framework has been calculated to contain at least 10.0% void space
# The void calculation uses a probe of radius 1.32A, grid spacing 0.4
# The framework is charged, counterions have been retained in the structure
# H atom positions have been added when not included in the experimental data
# Generated hydrogen atom positions removed from atoms on special positions
#
###############################################################################

data_LAJLIT
_chemical_formula_moiety         '(C990 H1425 K37 O784 10-)n'
_symmetry_cell_setting           triclinic
_symmetry_space_group_name_H-M   'P 1'
_symmetry_Int_Tables_number      1
_space_group_name_Hall           'P 1'
loop_
_symmetry_equiv_pos_site_id
_symmetry_equiv_pos_as_xyz
1 x,y,z
_cell_length_a                   42.6517(3)
_cell_length_b                   42.6517(3)
_cell_length_c                   28.4636(5)
_cell_angle_alpha                90
_cell_angle_beta                 90
_cell_angle_gamma                120
_cell_volume                     44842.8
loop_
_atom_site_label
_atom_site_type_symbol
_atom_site_fract_x
_atom_site_fract_y
_atom_site_fract_z
C13 C 0.2681(2) 0.0271(2) 0.2712(3)
H16 H 0.2562 0.0002 0.2674
O10 O 0.2907(2) 0.03869(26) 0.3130(2)
H18 H 0.2935 0.0057 0.1346
O12 O 0.25174(15) 0.00014(17) 0.17432(19)
C19 C 0.1948(4) 0.0467(5) 0.2281(4)
H23 H 0.1828 0.0432 0.1972
H24 H 0.1755 0.0327 0.2513
O15 O 0.2093(5) 0.0813(4) 0.2392(4)
H25 H 0.2187 0.0848 0.2660
C20 C 0.2185(3) 0.0301(4) 0.2254(3)
H26 H 0.2040 0.0034 0.2196
C21 C 0.2485(6) 0.0109(4) 0.0714(4)
H27 H 0.2311 0.0027 0.0449
H28 H 0.2409 0.0233 0.0942
O16 O 0.2814(4) 0.0347(2) 0.0551(3)
C22 C 0.2933(3) 0.0463(4) 0.2301(3)
H29 H 0.3058 0.0729 0.2354
O17 O 0.31990(18) 0.0355(2) 0.2229(2)
C23 C 0.2685(3) 0.0364(2) 0.1838(3)
H30 H 0.2848 0.0496 0.1567
O18 O 0.2452(3) 0.0483(2) 0.1886(2)
C24 C 0.1304(3) 0.0286(2) 0.3642(3)
H31 H 0.1328 0.0433 0.3360
H32 H 0.1052 0.0080 0.3653
O19 O 0.13771(14) 0.05015(22) 0.4052(2)
C25 C 0.1564(2) 0.0146(2) 0.3609(2)
H34 H 0.1600 0.0067 0.4343
C28 C 0.2186(2) 0.01143(19) 0.3917(2)
H37 H 0.2242 0.0261 0.4211
O21 O 0.24646(14) 0.00260(13) 0.3864(2)
C29 C 0.2197(2) 0.03523(18) 0.3522(2)
H39 H 0.2440 0.0578 0.3520
O22 O 0.19197(13) 0.04504(20) 0.35789(18)
C48 C 0.2401(2) 0.0387(2) 0.2724(3)
H64 H 0.2516 0.0650 0.2799
O39 O 0.21431(15) 0.01732(14) 0.30816(18)
K1 K 0.31029(9) 0.0000 0.0000
K6 K 0.20975(7) 0.10158(6) 0.41875(6)
H142 H 0.309692 0.0318175 0.310169
H145 H 0.307538 0.00909132 0.216497
K1_2 K 0.31029(9) 0.0000 1.0000
O54 O 0.29680(21) 0.03866(14) 0.93719(18)
H151 H 0.387489 0.015719 0.974314
C1 C 0.0500(4) 0.7720(5) 0.0588(7)
H1 H 0.0656 0.7979 0.0665
H2 H 0.0250 0.7668 0.0651
C2 C 0.0557(4) 0.7568(7) 0.0924(8)
H3 H 0.0584 0.7754 0.1158
C3 C 0.0895(4) 0.7645(4) 0.0963(7)
H4 H 0.0919 0.7472 0.0749
C4 C 0.0908(7) 0.7540(5) 0.1379(9)
H5 H 0.0957 0.7752 0.1579
O2 O 0.1206(6) 0.7495(4) 0.1459(5)
H6 H 0.1200 0.7339 0.1273
C5 C 0.0696(4) 0.7233(4) 0.1676(5)
H7 H 0.0715 0.7039 0.1505
C6 C 0.0328(4) 0.7101(6) 0.1662(8)
H8 H 0.0155 0.6844 0.1752
O3 O 0.0260(4) 0.7278(3) 0.1162(4)
C7 C 0.1685(3) 0.8991(3) 0.0140(5)
H9 H 0.1436 0.8943 0.0081
H10 H 0.1811 0.9220 0.0320
C8 C 0.1658(2) 0.8696(2) 0.0448(3)
H11 H 0.1527 0.8689 0.0742
O5 O 0.14366(17) 0.83586(17) 0.01818(19)
C9 C 0.20161(19) 0.8729(2) 0.0577(2)
H12 H 0.2166 0.8780 0.0286
O6 O 0.21953(12) 0.90297(14) 0.08915(16)
C10 C 0.19745(19) 0.83926(19) 0.0808(3)
H13 H 0.1863 0.8363 0.1126
O7 O 0.23207(14) 0.84122(13) 0.0852(2)
C11 C 0.1729(2) 0.8054(2) 0.0497(3)
H14 H 0.1853 0.8080 0.0189
O8 O 0.16813(16) 0.77347(15) 0.0727(2)
C12 C 0.1371(2) 0.8040(3) 0.0406(3)
H15 H 0.1215 0.7828 0.0202
O9 O 0.11955(15) 0.80026(14) 0.08422(19)
C14 C 0.2460(2) 0.9774(2) 0.0953(2)
H17 H 0.2200 0.9600 0.1027
O11 O 0.25814(15) 0.96134(14) 0.06281(18)
C15 C 0.2678(2) 0.9867(2) 0.1408(3)
C16 C 0.2666(2) 0.9539(3) 0.1605(3)
H19 H 0.2413 0.9368 0.1711
O13 O 0.29020(14) 0.96375(18) 0.20001(19)
H20 H 0.3002 0.9862 0.2044
C17 C 0.27706(19) 0.9355(2) 0.1230(3)
H21 H 0.3032 0.9519 0.1154
O14 O 0.27324(17) 0.90203(17) 0.1408(2)
H22 H 0.2598 0.8849 0.1229
C18 C 0.25626(18) 0.9293(2) 0.0791(3)
H33 H 0.1509 0.9993 0.3321
C26 C 0.1547(2) 0.9921(2) 0.4049(3)
C27 C 0.1818(2) 0.97963(19) 0.3975(2)
H35 H 0.1750 0.9633 0.3695
O20 O 0.18088(13) 0.96016(14) 0.43995(16)
H36 H 0.2013 0.9707 0.4528
H38 H 0.2374 0.9800 0.3873
C30 C 0.0103(3) 0.9134(3) 0.3815(4)
H41 H 0.0159 0.9350 0.3625
C31 C 0.0430(2) 0.9173(2) 0.4008(3)
H42 H 0.0581 0.9174 0.3737
O24 O 0.06247(16) 0.95164(14) 0.4227(2)
C32 C 0.0390(2) 0.8878(2) 0.4344(4)
H43 H 0.0217 0.8854 0.4598
O25 O 0.02450(18) 0.85445(16) 0.4107(3)
C33 C 0.0741(2) 0.8958(2) 0.4572(4)
H44 H 0.0908 0.8955 0.4327
O26 O 0.06774(28) 0.86937(19) 0.4921(3)
C34 C 0.0915(2) 0.9332(2) 0.4803(3)
H45 H 0.0747 0.9328 0.5051
O27 O 0.12529(21) 0.94186(13) 0.50210(19)
C35 C 0.0962(2) 0.9609(2) 0.4432(3)
H46 H 0.1076 0.9857 0.4574
O28 O 0.11838(15) 0.96005(13) 0.40647(18)
H51 H 0.0197 0.7934 0.3719
O31 O 0.0160(3) 0.7943(3) 0.4558(6)
H54 H 0.0289 0.7878 0.4412
H59 H 0.0054 0.7786 0.2329
O35 O 0.0292(3) 0.7447(3) 0.1911(4)
H61 H 0.0177 0.7386 0.2812
O36 O 0.0024(3) 0.6875(4) 0.2615(4)
O40 O 0.3718(2) 0.9999 0.0000
K1_3 K 0.31029(9) 1.0000 0.0000
K2 K 0.23175(6) 0.77483(4) 0.08542(6)
K3 K -0.00000(12) 0.70073(12) 0.0000
C72 C 0.2315(4) 0.5363(3) 0.0309(3)
H95 H 0.2438 0.5339 0.0027
H96 H 0.2361 0.5615 0.0320
O65 O 0.24577(26) 0.52896(14) 0.0719(2)
O66 O 0.28318(22) 0.75423(26) 0.0719(2)
C73 C 0.1915(3) 0.5103(2) 0.0276(2)
C74 C 0.1707(3) 0.5120(2) 0.0716(3)
H98 H 0.1800 0.5067 0.1010
C75 C 0.13116(28) 0.4849(2) 0.0642(2)
H99 H 0.1216 0.4917 0.0362
O68 O 0.11261(19) 0.48579(13) 0.10662(16)
H100 H 0.1027 0.4654 0.1195
C76 C 0.12616(28) 0.4481(2) 0.0584(2)
H101 H 0.1352 0.4425 0.0878
O69 O 0.08947(19) 0.42021(14) 0.0531(2)
H102 H 0.0759 0.4293 0.0540
C77 C 0.14886(27) 0.4470(2) 0.0189(2)
H103 H 0.1471 0.4227 0.0187
O70 O 0.18640(24) 0.47470(13) 0.02456(18)
O71 O 0.28829(20) 0.81360(24) 0.02456(18)
C78 C 0.2364(4) 0.6564(3) 0.0482(4)
H104 H 0.2262 0.6676 0.0271
H105 H 0.2524 0.6508 0.0292
O73 O 0.2577(3) 0.6822(2) 0.0842(4)
C79 C 0.2076(3) 0.6237(2) 0.0675(3)
H106 H 0.1926 0.6086 0.0404
O74 O 0.22250(21) 0.60420(16) 0.0894(2)
C80 C 0.1821(3) 0.6277(2) 0.1011(4)
H107 H 0.1970 0.6450 0.1265
O75 O 0.16328(24) 0.64217(18) 0.0774(3)
C81 C 0.1550(3) 0.5926(2) 0.1239(4)
H108 H 0.1380 0.5759 0.0994
O76 O 0.13496(34) 0.59893(28) 0.1588(3)
O77 O 0.20270(19) 0.73441(28) 0.1746(3)
C82 C 0.1750(3) 0.5752(2) 0.1470(3)
H109 H 0.1914 0.5920 0.1718
O79 O 0.14990(25) 0.54138(21) 0.16877(19)
O80 O 0.27519(13) 0.79196(21) 0.16457(19)
C83 C 0.1980(3) 0.5705(2) 0.1099(3)
H110 H 0.2114 0.5591 0.1241
O82 O 0.17500(20) 0.54829(15) 0.07314(18)
C85 C 0.1779(6) 0.6970(4) 0.0043(5)
C86 C 0.1429(4) 0.6987(3) 0.0129(6)
H114 H 0.1494 0.7240 0.0214
C87 C 0.1170(6) 0.6725(4) 0.0494(8)
H115 H 0.1070 0.6470 0.0386
O85 O 0.0910(5) 0.6826(4) 0.0466(11)
H116 H 0.0749 0.6711 0.0667
C88 C 0.1362(4) 0.6783(3) 0.0931(6)
H117 H 0.1417 0.7023 0.1064
O86 O 0.1116(4) 0.6507(3) 0.1225(6)
H118 H 0.0922 0.6378 0.1079
C89 C 0.1716(4) 0.6775(3) 0.0879(5)
H119 H 0.1843 0.6842 0.1189
O87 O 0.19427(26) 0.70337(13) 0.0547(2)
O94 O 0.0651(5) 0.7048(3) 0.0006(5)
K7 K 0.10816(4) 0.89842(6) 0.58125(6)
K9 K 0.22517(4) 0.45692(7) 0.08542(6)
K10 K 0.12359(7) 0.55850(4) 0.24791(6)
H138 H 0.242094 0.68882 0.102466
H140 H 0.0800816 0.727238 0.203307
H143 H 0.26678 0.918808 0.0522616
O1 O 0.0514(5) 0.7721(5) 0.9989(9)
O4 O 0.1844(3) 0.9048(2) 0.9738(3)
O40_2 O 0.3718(2) 0.9999 1.0000
O41 O 0.0441(2) 0.7509(2) 0.9289(3)
K1_4 K 0.31029(9) 1.0000 1.0000
K3_2 K -0.00000(12) 0.70073(12) 1.0000
C49 C 0.0553(6) 0.6167(4) 0.7255(7)
H65 H 0.0656 0.6011 0.7332
H66 H 0.0751 0.6417 0.7318
O42 O 0.0540(7) 0.6153(5) 0.6656(9)
C50 C 0.0344(8) 0.6110(4) 0.7591(8)
H67 H 0.0503 0.6083 0.7825
C51 C 0.0083(6) 0.5772(4) 0.7630(7)
H69 H 0.0128 0.5710 0.8246
C54 C 0.0106(7) 0.6339(4) 0.8329(8)
H72 H 0.0022 0.6512 0.8419
O45 O 0.0351(5) 0.6407(4) 0.7829(4)
C55 C 0.0639(4) 0.4982(3) 0.6807(5)
H73 H 0.0840 0.5231 0.6748
H74 H 0.0742 0.4856 0.6987
O46 O 0.0537(4) 0.4823(3) 0.6405(3)
C56 C 0.0371(3) 0.5009(2) 0.7115(3)
H75 H 0.0495 0.5140 0.7409
O47 O 0.02553(24) 0.52301(17) 0.68485(19)
C57 C 0.00462(28) 0.46506(19) 0.7244(2)
O48 O 0.01677(18) 0.44714(12) 0.75582(16)
C60 C 0.0002(4) 0.5296(2) 0.7073(3)
O51 O 0.01404(21) 0.54712(15) 0.75089(19)
C61 C 0.0923(3) 0.3986(2) 0.9379(3)
H80 H 0.0773 0.4105 0.9341
O52 O 0.08132(33) 0.3760(2) 0.9797(2)
C62 C 0.0647(3) 0.4207(2) 0.7620(2)
H81 H 0.0733 0.4467 0.7694
O53 O 0.03653(21) 0.40853(15) 0.72948(18)
O55 O 0.07519(15) 0.36987(21) 0.60386(18)
C63 C 0.0522(3) 0.3989(2) 0.8075(3)
H82 H 0.0455 0.3732 0.8013
O56 O 0.08173(23) 0.41493(15) 0.84099(19)
C64 C 0.0206(4) 0.4001(2) 0.8272(3)
H83 H 0.0288 0.4254 0.8378
O57 O 0.00688(23) 0.37647(14) 0.86668(19)
H84 H 0.0193 0.3665 0.8711
C66 C 0.00637(27) 0.41041(18) 0.7458(3)
C67 C 0.1852(6) 0.4719(4) 0.8948(4)
H87 H 0.1937 0.4839 0.8639
H88 H 0.1905 0.4912 0.9180
O59 O 0.2053(6) 0.4574(5) 0.9059(4)
H89 H 0.1994 0.4480 0.9327
C68 C 0.1449(5) 0.4482(3) 0.8921(3)
H90 H 0.1327 0.4627 0.8863
C69 C 0.0957(7) 0.4182(6) 0.7381(4)
H91 H 0.1049 0.4356 0.7116
H92 H 0.1157 0.4258 0.7609
O60 O 0.0866(4) 0.3853(4) 0.7218(3)
O61 O 0.2467(4) 0.9653(2) 0.9449(3)
O62 O 0.0519(4) 0.4200(4) 0.6116(3)
C70 C 0.0863(5) 0.3734(3) 0.8968(3)
H93 H 0.1004 0.3609 0.9021
O63 O 0.04893(27) 0.34677(18) 0.8896(2)
C71 C 0.1012(4) 0.3982(3) 0.8505(3)
H94 H 0.0981 0.3819 0.8234
O64 O 0.1364(4) 0.4215(3) 0.8553(2)
H97 H 0.1817 0.5158 0.9988
C84 C 0.2049(5) 0.7232(4) 0.9738(5)
H111 H 0.2271 0.7214 0.9755
H112 H 0.1960 0.7185 0.9410
O83 O 0.21289(41) 0.75853(19) 0.9876(3)
H113 H 0.1713 0.6721 0.9935
C90 C 0.1293(5) 0.6867(3) 0.8434(5)
H120 H 0.1110 0.6787 0.8180
H121 H 0.1420 0.7135 0.8415
O89 O 0.1532(14) 0.6812(9) 0.8225(12)
H122 H 0.1588 0.6921 0.7966
C91 C 0.1067(6) 0.6817(4) 0.8821(6)
H123 H 0.1065 0.6613 0.8996
O90 O 0.1326(7) 0.7151(5) 0.9110(5)
C92 C 0.0687(6) 0.6725(4) 0.8828(6)
H124 H 0.0661 0.6913 0.8649
O91 O 0.0488(4) 0.6375(3) 0.8578(4)
C93 C 0.0542(6) 0.6695(4) 0.9306(6)
H125 H 0.0542 0.6490 0.9479
O92 O 0.0184(5) 0.6643(3) 0.9282(4)
C94 C 0.0801(7) 0.7075(4) 0.9567(6)
H126 H 0.0781 0.7267 0.9390
C95 C 0.1186(8) 0.7162(6) 0.9534(8)
H127 H 0.1349 0.7395 0.9699
O96 O 0.1227(4) 0.6886(3) 0.9711(4)
C96 C 0.1319(3) 0.4266(2) 0.9391(3)
H128 H 0.1467 0.4151 0.9466
O97 O 0.13634(21) 0.45236(15) 0.97483(18)
K4 K 0.02304(9) 0.35638(9) 0.6667
K12 K 0.03406(17) 0.66667(12) 0.6667
H135 H 0.0554586 0.356974 0.976835
H137 H 0.0348865 0.359129 0.883164
H141 H 0.184959 0.925977 0.958438
H147 H 0.0743514 0.481708 0.625105
H148 H 0.0700382 0.760565 0.936617
H149 H 0.0386051 0.738386 0.898045
H150 H 0.366995 0.97483 0.995051
H40 H 0.9991 0.8920 0.3604
O23 O 0.9845(2) 0.9089(2) 0.4175(4)
C36 C 0.9435(4) 0.8151(3) 0.3071(5)
H47 H 0.9453 0.8391 0.3088
H48 H 0.9482 0.8109 0.2743
O29 O 0.90814(19) 0.78770(36) 0.3209(3)
C37 C 0.9697(4) 0.8143(4) 0.3376(5)
H49 H 0.9946 0.8326 0.3268
C38 C 0.9680(3) 0.7776(3) 0.3462(6)
H50 H 0.9427 0.7588 0.3547
C39 C 0.9942(4) 0.7779(4) 0.3827(8)
O30 O 0.9841(4) 0.7418(3) 0.3799(11)
H52 H 0.9956 0.7372 0.4000
C40 C 0.9884(3) 0.7913(3) 0.4264(6)
H53 H 0.9644 0.7728 0.4397
C41 C 0.9892(3) 0.8275(2) 0.4212(5)
H55 H 0.9825 0.8335 0.4522
O32 O 0.96330(13) 0.82424(22) 0.3880(2)
C42 C 0.9800(3) 0.7760(4) 0.1767(5)
H56 H 0.9880 0.7657 0.1513
H57 H 0.9532 0.7619 0.1748
O33 O 0.9855(9) 0.8054(11) 0.1558(12)
H58 H 0.9746 0.8001 0.1299
C43 C 0.9850(4) 0.7584(5) 0.2154(6)
O34 O 0.9516(5) 0.7509(5) 0.2443(5)
C44 C 0.9942(4) 0.7296(5) 0.2161(6)
H60 H 0.9754 0.7082 0.1982
C45 C 0.9972(4) 0.7181(5) 0.2639(6)
C46 C 0.9592(4) 0.7060(6) 0.2900(6)
H62 H 0.9400 0.6848 0.2723
O37 O 0.9619(3) 0.6937(4) 0.3339(5)
C47 C 0.9505(6) 0.7358(6) 0.2867(8)
H63 H 0.9272 0.7288 0.3032
O38 O 0.9781(3) 0.7675(3) 0.3044(4)
K3_3 K 1.00000(12) 0.70073(12) 0.0000
O43 O 0.9486(5) 0.7207(7) 0.0011(9)
O93 O 0.9816(5) 0.6458(4) 0.0718(4)
O99 O 0.9559(2) 0.7068(3) 0.0711(3)
K8 K 0.89184(4) 0.79025(7) 0.41875(6)
K11 K 0.96594(12) 0.63260(17) 0.3333
H144 H 0.977847 0.886608 0.4358
K3_4 K 1.00000(12) 0.70073(12) 1.0000
H68 H 0.9886 0.5748 0.7416
C52 C 0.9965(9) 0.5759(7) 0.8046(9)
O44 O 0.9622(7) 0.5461(6) 0.8126(5)
H70 H 0.9472 0.5467 0.7940
C53 C 0.9870(6) 0.5971(4) 0.8343(5)
H71 H 0.9657 0.5952 0.8172
H76 H 0.9947 0.4501 0.6953
C58 C 0.97514(27) 0.46922(19) 0.7475(3)
H77 H 0.9833 0.4804 0.7793
O49 O 0.94248(19) 0.43460(14) 0.7519(2)
C59 C 0.9658(3) 0.4938(2) 0.7164(3)
H78 H 0.9560 0.4814 0.6856
O50 O 0.93867(22) 0.49854(16) 0.7394(2)
H79 H 0.9946 0.5452 0.6869
C65 C 0.99177(28) 0.38961(19) 0.7897(3)
H85 H 0.9820 0.3635 0.7821
O58 O 0.96212(24) 0.39343(17) 0.8075(2)
H86 H 0.9584 0.4069 0.7896
O67 O 0.80438(14) 0.38348(22) 0.7385(2)
O72 O 0.85864(13) 0.37837(20) 0.69122(18)
O78 O 0.86504(34) 0.46396(19) 0.8412(3)
O81 O 0.85010(25) 0.39147(13) 0.83123(19)
O84 O 0.87897(36) 0.45377(41) 0.6542(3)
O88 O 0.84243(22) 0.47239(26) 0.7213(2)
O95 O 0.9349(5) 0.6396(4) 0.9994(5)
O98 O 0.9614(2) 0.2949(2) 0.6667
K5 K 0.87641(7) 0.43492(6) 0.75209(6)
H136 H 0.985362 0.399887 0.718928
H146 H 0.98049 0.586585 0.869973
C1_2 C 0.2280(5) 0.2780(6) 0.0588(7)
H1_2 H 0.2021 0.2677 0.0665
H2_2 H 0.2332 0.2582 0.0651
C2_2 C 0.2432(7) 0.2989(8) 0.0924(8)
H3_2 H 0.2246 0.2830 0.1158
C3_2 C 0.2355(4) 0.3250(6) 0.0963(7)
H4_2 H 0.2528 0.3447 0.0749
C4_2 C 0.2460(5) 0.3368(9) 0.1379(9)
H5_2 H 0.2248 0.3205 0.1579
O2_2 O 0.2505(4) 0.3711(7) 0.1459(5)
H6_2 H 0.2661 0.3861 0.1273
C5_2 C 0.2767(4) 0.3463(6) 0.1676(5)
H7_2 H 0.2961 0.3676 0.1505
C6_2 C 0.2899(6) 0.3227(7) 0.1662(8)
H8_2 H 0.3156 0.3311 0.1752
O3_2 O 0.2722(3) 0.2982(5) 0.1162(4)
C7_2 C 0.1009(3) 0.2694(4) 0.0140(5)
H9_2 H 0.1057 0.2493 0.0081
H10_2 H 0.0780 0.2591 0.0320
C8_2 C 0.1304(2) 0.2962(3) 0.0448(3)
H11_2 H 0.1311 0.2838 0.0742
O5_2 O 0.16414(17) 0.30780(24) 0.01818(19)
C9_2 C 0.1271(2) 0.32871(28) 0.0577(2)
H12_2 H 0.1220 0.3386 0.0286
O6_2 O 0.09703(14) 0.31656(18) 0.08915(16)
C10_2 C 0.16074(19) 0.35819(27) 0.0808(3)
H13_2 H 0.1637 0.3500 0.1126
O7_2 O 0.15878(13) 0.39085(19) 0.0852(2)
C11_2 C 0.1946(2) 0.3675(3) 0.0497(3)
H14_2 H 0.1920 0.3773 0.0189
O8_2 O 0.22653(15) 0.39466(22) 0.0727(2)
C12_2 C 0.1960(3) 0.3331(4) 0.0406(3)
H15_2 H 0.2172 0.3387 0.0202
O9_2 O 0.19974(14) 0.31929(21) 0.08422(19)
C14_2 C 0.0226(2) 0.2686(3) 0.0953(2)
H17_2 H 0.0400 0.2600 0.1027
O11_2 O 0.03866(14) 0.29680(21) 0.06281(18)
C15_2 C 0.0133(2) 0.2811(3) 0.1408(3)
C16_2 C 0.0461(3) 0.3127(4) 0.1605(3)
H19_2 H 0.0632 0.3045 0.1711
O13_2 O 0.03625(18) 0.32645(23) 0.20001(19)
H20_2 H 0.0138 0.3140 0.2044
C17_2 C 0.0645(2) 0.34156(28) 0.1230(3)
H21_2 H 0.0481 0.3513 0.1154
O14_2 O 0.09797(17) 0.37121(24) 0.1408(2)
H22_2 H 0.1151 0.3749 0.1229
C18_2 C 0.0707(2) 0.32696(27) 0.0791(3)
H33_2 H 0.0007 0.1516 0.3321
C26_2 C 0.0079(2) 0.1626(3) 0.4049(3)
C27_2 C 0.02037(19) 0.20217(28) 0.3975(2)
H35_2 H 0.0367 0.2117 0.3695
O20_2 O 0.03984(14) 0.22072(19) 0.43995(16)
H36_2 H 0.0293 0.2306 0.4528
H38_2 H 0.0200 0.2574 0.3873
C30_2 C 0.0866(3) 0.0969(4) 0.3815(4)
H40_2 H 0.1080 0.1071 0.3604
H41_2 H 0.0650 0.0809 0.3625
O23_2 O 0.0911(2) 0.0756(3) 0.4175(4)
C31_2 C 0.0827(2) 0.1257(3) 0.4008(3)
H42_2 H 0.0826 0.1407 0.3737
O24_2 O 0.04836(14) 0.11083(21) 0.4227(2)
C32_2 C 0.1122(2) 0.1512(3) 0.4344(4)
H43_2 H 0.1146 0.1363 0.4598
O25_2 O 0.14555(16) 0.17005(24) 0.4107(3)
C33_2 C 0.1042(2) 0.1783(3) 0.4572(4)
H44_2 H 0.1045 0.1953 0.4327
O26_2 O 0.13063(19) 0.19837(34) 0.4921(3)
C34_2 C 0.0668(2) 0.1583(3) 0.4803(3)
H45_2 H 0.0672 0.1419 0.5051
O27_2 O 0.05814(13) 0.18343(25) 0.50210(19)
C35_2 C 0.0391(2) 0.1353(3) 0.4432(3)
H46_2 H 0.0143 0.1219 0.4574
O28_2 O 0.03995(13) 0.15833(20) 0.40647(18)
C36_2 C 0.1849(3) 0.1284(5) 0.3071(5)
H47_2 H 0.1609 0.1062 0.3088
H48_2 H 0.1891 0.1373 0.2743
O29_2 O 0.21230(36) 0.12044(41) 0.3209(3)
C37_2 C 0.1857(4) 0.1554(6) 0.3376(5)
H49_2 H 0.1674 0.1620 0.3268
C38_2 C 0.2224(3) 0.1904(4) 0.3462(6)
H50_2 H 0.2412 0.1839 0.3547
C39_2 C 0.2221(4) 0.2163(6) 0.3827(8)
H51_2 H 0.2066 0.2263 0.3719
O30_2 O 0.2582(3) 0.2423(5) 0.3799(11)
H52_2 H 0.2628 0.2584 0.4000
C40_2 C 0.2087(3) 0.1971(4) 0.4264(6)
H53_2 H 0.2272 0.1916 0.4397
O31_2 O 0.2057(3) 0.2217(4) 0.4558(6)
H54_2 H 0.2122 0.2411 0.4412
C41_2 C 0.1725(2) 0.1617(4) 0.4212(5)
H55_2 H 0.1665 0.1490 0.4522
O32_2 O 0.17576(22) 0.13906(26) 0.3880(2)
C42_2 C 0.2240(4) 0.2040(5) 0.1767(5)
H56_2 H 0.2343 0.2223 0.1513
H57_2 H 0.2381 0.1913 0.1748
O33_2 O 0.1946(11) 0.1801(14) 0.1558(12)
H58_2 H 0.1999 0.1745 0.1299
C43_2 C 0.2416(5) 0.2266(6) 0.2154(6)
H59_2 H 0.2214 0.2268 0.2329
O34_2 O 0.2491(5) 0.2007(7) 0.2443(5)
C44_2 C 0.2704(5) 0.2646(6) 0.2161(6)
H60_2 H 0.2918 0.2672 0.1982
O35_2 O 0.2553(3) 0.2845(4) 0.1911(4)
C45_2 C 0.2819(5) 0.2791(6) 0.2639(6)
H61_2 H 0.2614 0.2791 0.2812
O36_2 O 0.3125(4) 0.3149(5) 0.2615(4)
C46_2 C 0.2940(6) 0.2532(7) 0.2900(6)
H62_2 H 0.3152 0.2552 0.2723
O37_2 O 0.3063(4) 0.2682(5) 0.3339(5)
C47_2 C 0.2642(6) 0.2147(8) 0.2867(8)
H63_2 H 0.2712 0.1984 0.3032
O38_2 O 0.2325(3) 0.2106(4) 0.3044(4)
O40_3 O 0.0001 0.3719(2) 0.0000
K1_5 K -0.0000 0.31029(9) 0.0000
K3_5 K 0.29927(12) 0.29927(17) 0.0000
O43_2 O 0.2793(7) 0.2279(9) 0.0011(9)
C72_2 C 0.4637(3) 0.6953(5) 0.0309(3)
H95_2 H 0.4661 0.7100 0.0027
H96_2 H 0.4385 0.6747 0.0320
O65_2 O 0.47104(14) 0.71682(30) 0.0719(2)
C73_2 C 0.4897(2) 0.6813(4) 0.0276(2)
C74_2 C 0.4880(2) 0.6588(4) 0.0716(3)
H98_2 H 0.4933 0.6734 0.1010
C75_2 C 0.5151(2) 0.64630(34) 0.0642(2)
H99_2 H 0.5083 0.6300 0.0362
O68_2 O 0.51421(13) 0.62683(23) 0.10662(16)
H100_2 H 0.5346 0.6374 0.1195
C76_2 C 0.5519(2) 0.67810(34) 0.0584(2)
H101_2 H 0.5575 0.6928 0.0878
O69_2 O 0.57979(14) 0.66927(24) 0.0531(2)
H102_2 H 0.5707 0.6467 0.0540
C77_2 C 0.5530(2) 0.70190(34) 0.0189(2)
H103_2 H 0.5773 0.7245 0.0187
O70_2 O 0.52530(13) 0.71171(27) 0.02456(18)
C78_2 C 0.3436(3) 0.5801(5) 0.0482(4)
H104_2 H 0.3324 0.5587 0.0271
H105_2 H 0.3492 0.6017 0.0292
O73_2 O 0.3178(2) 0.5756(4) 0.0842(4)
C79_2 C 0.3763(2) 0.5840(4) 0.0675(3)
H106_2 H 0.3914 0.5841 0.0404
O74_2 O 0.39580(16) 0.61831(26) 0.0894(2)
C80_2 C 0.3723(2) 0.5545(4) 0.1011(4)
H107_2 H 0.3550 0.5521 0.1265
O75_2 O 0.35783(18) 0.52112(30) 0.0774(3)
C81_2 C 0.4074(2) 0.5625(4) 0.1239(4)
H108_2 H 0.4241 0.5622 0.0994
O76_2 O 0.40107(28) 0.53604(44) 0.1588(3)
O77_2 O 0.26559(28) 0.46830(34) 0.1746(3)
C82_2 C 0.4248(2) 0.5999(4) 0.1470(3)
H109_2 H 0.4080 0.5995 0.1718
O79_2 O 0.45862(21) 0.60853(33) 0.16877(19)
O80_2 O 0.20804(21) 0.48324(25) 0.16457(19)
C83_2 C 0.4295(2) 0.6276(4) 0.1099(3)
H110_2 H 0.4409 0.6524 0.1241
O82_2 O 0.45171(15) 0.62672(25) 0.07314(18)
C85_2 C 0.3030(4) 0.4810(7) 0.0043(5)
C86_2 C 0.3013(3) 0.4443(5) 0.0129(6)
H114_2 H 0.2760 0.4255 0.0214
C87_2 C 0.3275(4) 0.4446(7) 0.0494(8)
H115_2 H 0.3530 0.4601 0.0386
O85_2 O 0.3174(4) 0.4085(6) 0.0466(11)
H116_2 H 0.3289 0.4039 0.0667
C88_2 C 0.3217(3) 0.4580(5) 0.0931(6)
H117_2 H 0.2977 0.4395 0.1064
O86_2 O 0.3493(3) 0.4610(5) 0.1225(6)
H118_2 H 0.3622 0.4545 0.1079
C89_2 C 0.3225(3) 0.4942(5) 0.0879(5)
H119_2 H 0.3158 0.5002 0.1189
O87_2 O 0.29663(13) 0.49091(29) 0.0547(2)
O93_2 O 0.3542(4) 0.3357(6) 0.0718(4)
O94_2 O 0.2952(3) 0.3604(6) 0.0006(5)
O99_2 O 0.2932(3) 0.2491(4) 0.0711(3)
K7_2 K 0.10158(6) 0.20975(7) 0.58125(6)
K9_2 K 0.54308(7) 0.76825(8) 0.08542(6)
K10_2 K 0.44150(4) 0.56508(8) 0.24791(6)
K11_2 K 0.36740(17) 0.33333(21) 0.3333
H138_2 H 0.31118 0.553274 0.102466
H140_2 H 0.272762 0.352844 0.203307
H143_2 H 0.0811918 0.347972 0.0522616
H144_2 H 0.113392 0.0912389 0.4358
O1_2 O 0.2279(5) 0.2793(7) 0.9989(9)
O4_2 O 0.0952(2) 0.2796(4) 0.9738(3)
O40_4 O 0.0001 0.3719(2) 1.0000
O41_2 O 0.2491(2) 0.2932(3) 0.9289(3)
K1_6 K 0.0000 0.31029(9) 1.0000
K3_6 K 0.29927(12) 0.29927(17) 1.0000
C49_2 C 0.3833(4) 0.4387(7) 0.7255(7)
H65_2 H 0.3989 0.4646 0.7332
H66_2 H 0.3583 0.4335 0.7318
O42_2 O 0.3847(5) 0.4388(9) 0.6656(9)
C50_2 C 0.3890(4) 0.4235(9) 0.7591(8)
H67_2 H 0.3917 0.4421 0.7825
C51_2 C 0.4228(4) 0.4312(7) 0.7630(7)
H68_2 H 0.4252 0.4139 0.7416
C52_2 C 0.4241(7) 0.4207(11) 0.8046(9)
H69_2 H 0.4290 0.4419 0.8246
O44_2 O 0.4539(6) 0.4162(9) 0.8126(5)
H70_2 H 0.4533 0.4006 0.7940
C53_2 C 0.4029(4) 0.3900(7) 0.8343(5)
H71_2 H 0.4048 0.3706 0.8172
C54_2 C 0.3661(4) 0.3768(8) 0.8329(8)
H72_2 H 0.3488 0.3511 0.8419
O45_2 O 0.3593(4) 0.3945(6) 0.7829(4)
C55_2 C 0.5018(3) 0.5658(5) 0.6807(5)
H73_2 H 0.4769 0.5610 0.6748
H74_2 H 0.5144 0.5887 0.6987
O46_2 O 0.5177(3) 0.5715(5) 0.6405(3)
C56_2 C 0.4991(2) 0.5363(4) 0.7115(3)
H75_2 H 0.4860 0.5356 0.7409
O47_2 O 0.47699(17) 0.50253(29) 0.68485(19)
C57_2 C 0.53494(19) 0.53957(34) 0.7244(2)
H76_2 H 0.5499 0.5447 0.6953
O48_2 O 0.55286(12) 0.56964(22) 0.75582(16)
C58_2 C 0.53078(19) 0.50593(33) 0.7475(3)
H77_2 H 0.5196 0.5030 0.7793
O49_2 O 0.56540(14) 0.50789(24) 0.7519(2)
C59_2 C 0.5062(2) 0.4721(4) 0.7164(3)
H78_2 H 0.5186 0.4747 0.6856
O50_2 O 0.50146(16) 0.44014(27) 0.7394(2)
C60_2 C 0.4704(2) 0.4707(4) 0.7073(3)
H79_2 H 0.4548 0.4495 0.6869
O51_2 O 0.45288(15) 0.46693(26) 0.75089(19)
C61_2 C 0.6014(2) 0.6938(4) 0.9379(3)
H80_2 H 0.5895 0.6669 0.9341
O52_2 O 0.6240(2) 0.70536(39) 0.9797(2)
C62_2 C 0.5793(2) 0.6441(4) 0.7620(2)
H81_2 H 0.5533 0.6267 0.7694
O53_2 O 0.59147(15) 0.62801(26) 0.72948(18)
O55_2 O 0.63013(21) 0.70533(26) 0.60386(18)
C63_2 C 0.6011(2) 0.6534(4) 0.8075(3)
H82_2 H 0.6268 0.6724 0.8013
O56_2 O 0.58507(15) 0.66681(27) 0.84099(19)
C64_2 C 0.5999(2) 0.6206(4) 0.8272(3)
H83_2 H 0.5746 0.6035 0.8378
O57_2 O 0.62353(14) 0.63042(27) 0.86668(19)
H84_2 H 0.6335 0.6529 0.8711
C65_2 C 0.61039(19) 0.60217(34) 0.7897(3)
H85_2 H 0.6365 0.6186 0.7821
O58_2 O 0.60657(17) 0.56870(29) 0.8075(2)
H86_2 H 0.5931 0.5516 0.7896
C66_2 C 0.58959(18) 0.59597(32) 0.7458(3)
C67_2 C 0.5281(4) 0.7134(7) 0.8948(4)
H87_2 H 0.5161 0.7099 0.8639
H88_2 H 0.5088 0.6994 0.9180
O59_2 O 0.5426(5) 0.7480(8) 0.9059(4)
H89_2 H 0.5520 0.7515 0.9327
C68_2 C 0.5518(3) 0.6968(6) 0.8921(3)
H90_2 H 0.5373 0.6701 0.8863
C69_2 C 0.5818(6) 0.6776(9) 0.7381(4)
H91_2 H 0.5644 0.6694 0.7116
H92_2 H 0.5742 0.6900 0.7609
O60_2 O 0.6147(4) 0.7014(6) 0.7218(3)
O61_2 O 0.0347(2) 0.2814(4) 0.9449(3)
O62_2 O 0.5800(4) 0.6320(6) 0.6116(3)
C70_2 C 0.6266(3) 0.7130(6) 0.8968(3)
H93_2 H 0.6391 0.7396 0.9021
O63_2 O 0.65323(18) 0.70217(32) 0.8896(2)
C71_2 C 0.6018(3) 0.7031(5) 0.8505(3)
H94_2 H 0.6181 0.7163 0.8234
O64_2 O 0.5785(3) 0.7150(5) 0.8553(2)
O67_2 O 0.61652(22) 0.42089(26) 0.7385(2)
H97_2 H 0.4842 0.6660 0.9988
O72_2 O 0.62163(20) 0.48026(24) 0.69122(18)
O78_2 O 0.53604(19) 0.40107(39) 0.8412(3)
O81_2 O 0.60853(13) 0.45862(28) 0.83123(19)
C84_2 C 0.2768(4) 0.4818(6) 0.9738(5)
H111_2 H 0.2786 0.5058 0.9755
H112_2 H 0.2815 0.4776 0.9410
O83_2 O 0.24147(19) 0.45437(45) 0.9876(3)
O84_2 O 0.54623(41) 0.42519(55) 0.6542(3)
H113_2 H 0.3279 0.4993 0.9935
O88_2 O 0.52761(26) 0.37003(34) 0.7213(2)
C90_2 C 0.3133(3) 0.4427(6) 0.8434(5)
H120_2 H 0.3213 0.4324 0.8180
H121_2 H 0.2865 0.4286 0.8415
O89_2 O 0.3188(9) 0.4721(17) 0.8225(12)
H122_2 H 0.3079 0.4668 0.7966
C91_2 C 0.3183(4) 0.4251(7) 0.8821(6)
H123_2 H 0.3387 0.4453 0.8996
O90_2 O 0.2849(5) 0.4176(9) 0.9110(5)
C92_2 C 0.3275(4) 0.3963(7) 0.8828(6)
H124_2 H 0.3087 0.3749 0.8649
O91_2 O 0.3625(3) 0.4114(5) 0.8578(4)
C93_2 C 0.3305(4) 0.3848(7) 0.9306(6)
H125_2 H 0.3510 0.4053 0.9479
O92_2 O 0.3357(3) 0.3542(6) 0.9282(4)
C94_2 C 0.2925(4) 0.3727(8) 0.9567(6)
H126_2 H 0.2733 0.3515 0.9390
O95_2 O 0.3604(4) 0.2952(6) 0.9994(5)
C95_2 C 0.2838(6) 0.4025(10) 0.9534(8)
H127_2 H 0.2605 0.3955 0.9699
O96_2 O 0.3114(3) 0.4342(5) 0.9711(4)
C96_2 C 0.5734(2) 0.7054(4) 0.9391(3)
H128_2 H 0.5849 0.7317 0.9466
O97_2 O 0.54764(15) 0.68399(26) 0.97483(18)
O98_2 O 0.7051(2) 0.6666(3) 0.6667
K4_2 K 0.64362(9) 0.66667(13) 0.6667
K5_2 K 0.56508(6) 0.44150(9) 0.75209(6)
K12_2 K 0.33333(12) 0.36740(21) 0.6667
H135_2 H 0.643026 0.698484 0.976835
H136_2 H 0.600113 0.585475 0.718928
H137_2 H 0.640871 0.675758 0.883164
H141_2 H 0.0740232 0.258982 0.958438
H146_2 H 0.413415 0.393905 0.869973
H147_2 H 0.518292 0.592643 0.625105
H148_2 H 0.239435 0.309473 0.936617
H149_2 H 0.261614 0.300219 0.898045
H150_2 H 0.0251698 0.392165 0.995051
C13_2 C 0.9729(2) 0.2410(3) 0.2712(3)
H16_2 H 0.9998 0.2560 0.2674
O10_2 O 0.96131(26) 0.25201(33) 0.3130(2)
H18_2 H 0.9943 0.2878 0.1346
O12_2 O 0.99986(17) 0.25160(23) 0.17432(19)
C19_2 C 0.9533(5) 0.1481(6) 0.2281(4)
H23_2 H 0.9568 0.1396 0.1972
H24_2 H 0.9673 0.1428 0.2513
O15_2 O 0.9187(4) 0.1280(6) 0.2392(4)
H25_2 H 0.9152 0.1339 0.2660
C20_2 C 0.9699(4) 0.1884(5) 0.2254(3)
H26_2 H 0.9966 0.2006 0.2196
C21_2 C 0.9891(4) 0.2376(7) 0.0714(4)
H27_2 H 0.9973 0.2284 0.0449
H28_2 H 0.9767 0.2176 0.0942
O16_2 O 0.9653(2) 0.2467(4) 0.0551(3)
C22_2 C 0.9537(4) 0.2470(5) 0.2301(3)
H29_2 H 0.9271 0.2329 0.2354
O17_2 O 0.9645(2) 0.28440(27) 0.2229(2)
C23_2 C 0.9636(2) 0.2321(4) 0.1838(3)
H30_2 H 0.9504 0.2352 0.1567
O18_2 O 0.9517(2) 0.1969(4) 0.1886(2)
C24_2 C 0.9714(2) 0.1018(4) 0.3642(3)
H31_2 H 0.9567 0.0895 0.3360
H32_2 H 0.9920 0.0972 0.3653
O19_2 O 0.94985(22) 0.08756(26) 0.4052(2)
C25_2 C 0.9854(2) 0.1418(3) 0.3609(2)
H34_2 H 0.9933 0.1533 0.4343
C28_2 C 0.98857(19) 0.20717(28) 0.3917(2)
H37_2 H 0.9739 0.1981 0.4211
O21_2 O 0.99740(13) 0.24386(19) 0.3864(2)
C29_2 C 0.96477(18) 0.18447(27) 0.3522(2)
H39_2 H 0.9422 0.1862 0.3520
O22_2 O 0.95496(20) 0.14693(24) 0.35789(18)
C48_2 C 0.9613(2) 0.2014(3) 0.2724(3)
H64_2 H 0.9350 0.1866 0.2799
O39_2 O 0.98268(14) 0.19699(21) 0.30816(18)
K1_7 K 1.0000 0.31029(9) 0.0000
K6_2 K 0.89842(6) 0.10816(9) 0.41875(6)
H142_2 H 0.968182 0.277875 0.310169
H145_2 H 0.990909 0.298447 0.216497
K1_8 K 1.0000 0.31029(9) 1.0000
O54_2 O 0.96134(14) 0.25814(25) 0.93719(18)
H151_2 H 0.984281 0.37177 0.974314
H40_3 H 0.8929 0.0009 0.3604
O23_3 O 0.9244(3) 0.0155(2) 0.4175(4)
C36_3 C 0.8716(5) 0.0565(4) 0.3071(5)
H47_3 H 0.8938 0.0547 0.3088
H48_3 H 0.8627 0.0518 0.2743
O29_3 O 0.87956(41) 0.09186(19) 0.3209(3)
C37_3 C 0.8446(6) 0.0303(4) 0.3376(5)
H49_3 H 0.8380 0.0054 0.3268
C38_3 C 0.8096(4) 0.0320(3) 0.3462(6)
H50_3 H 0.8161 0.0573 0.3547
C39_3 C 0.7837(6) 0.0058(4) 0.3827(8)
O30_3 O 0.7577(5) 0.0159(4) 0.3799(11)
H52_3 H 0.7416 0.0044 0.4000
C40_3 C 0.8029(4) 0.0116(3) 0.4264(6)
H53_3 H 0.8084 0.0356 0.4397
C41_3 C 0.8383(4) 0.0108(3) 0.4212(5)
H55_3 H 0.8510 0.0175 0.4522
O32_3 O 0.86094(26) 0.03670(13) 0.3880(2)
C42_3 C 0.7960(5) 0.0200(3) 0.1767(5)
H56_3 H 0.7777 0.0120 0.1513
H57_3 H 0.8087 0.0468 0.1748
O33_3 O 0.8199(14) 0.0145(9) 0.1558(12)
H58_3 H 0.8255 0.0254 0.1299
C43_3 C 0.7734(6) 0.0150(4) 0.2154(6)
O34_3 O 0.7993(7) 0.0484(5) 0.2443(5)
C44_3 C 0.7354(6) 0.0058(4) 0.2161(6)
H60_3 H 0.7328 0.0246 0.1982
C45_3 C 0.7209(6) 0.0028(4) 0.2639(6)
C46_3 C 0.7468(7) 0.0408(4) 0.2900(6)
H62_3 H 0.7448 0.0600 0.2723
O37_3 O 0.7318(5) 0.0381(3) 0.3339(5)
C47_3 C 0.7853(8) 0.0495(6) 0.2867(8)
H63_3 H 0.8016 0.0728 0.3032
O38_3 O 0.7894(4) 0.0219(3) 0.3044(4)
K3_7 K 0.70073(17) 0.00000(12) 0.0000
O43_3 O 0.7721(9) 0.0514(5) 0.0011(9)
O93_3 O 0.6643(6) 0.0184(5) 0.0718(4)
O99_3 O 0.7509(4) 0.0441(2) 0.0711(3)
K11_3 K 0.66667(21) 0.03406(12) 0.3333
H144_3 H 0.908761 0.0221534 0.4358
K3_8 K 0.70073(17) 0.00000(12) 1.0000
H68_3 H 0.5861 0.0114 0.7416
C52_3 C 0.5793(11) 0.0035(9) 0.8046(9)
O44_3 O 0.5838(9) 0.0378(7) 0.8126(5)
H70_3 H 0.5994 0.0528 0.7940
C53_3 C 0.6100(7) 0.0130(6) 0.8343(5)
H71_3 H 0.6294 0.0343 0.8172
H76_3 H 0.4553 0.0053 0.6953
C58_3 C 0.49407(33) 0.02486(27) 0.7475(3)
H77_3 H 0.4970 0.0167 0.7793
O49_3 O 0.49211(24) 0.05752(19) 0.7519(2)
C59_3 C 0.5279(4) 0.0342(3) 0.7164(3)
H78_3 H 0.5253 0.0440 0.6856
O50_3 O 0.55986(27) 0.06133(22) 0.7394(2)
H79_3 H 0.5505 0.0054 0.6869
C65_3 C 0.39783(34) 0.00823(28) 0.7897(3)
H85_3 H 0.3814 0.0180 0.7821
O58_3 O 0.43130(29) 0.03788(24) 0.8075(2)
H86_3 H 0.4484 0.0416 0.7896
O67_3 O 0.57911(26) 0.19562(14) 0.7385(2)
O72_3 O 0.51974(24) 0.14136(13) 0.69122(18)
O78_3 O 0.59893(39) 0.13496(34) 0.8412(3)
O81_3 O 0.54138(28) 0.14990(25) 0.83123(19)
O84_3 O 0.57481(55) 0.12103(36) 0.6542(3)
O88_3 O 0.62997(34) 0.15757(22) 0.7213(2)
O95_3 O 0.7048(6) 0.0651(5) 0.9994(5)
O98_3 O 0.3334(3) 0.0386(2) 0.6667
K5_3 K 0.55850(9) 0.12359(7) 0.75209(6)
H136_3 H 0.414525 0.0146382 0.718928
H146_3 H 0.606095 0.0195103 0.869973
C1_3 C 0.7220(6) 0.9500(4) 0.0588(7)
H1_3 H 0.7323 0.9344 0.0665
H2_3 H 0.7418 0.9750 0.0651
C2_3 C 0.7011(8) 0.9443(4) 0.0924(8)
H3_3 H 0.7170 0.9416 0.1158
C3_3 C 0.6750(6) 0.9105(4) 0.0963(7)
H4_3 H 0.6553 0.9081 0.0749
C4_3 C 0.6632(9) 0.9092(7) 0.1379(9)
H5_3 H 0.6795 0.9043 0.1579
O2_3 O 0.6289(7) 0.8794(6) 0.1459(5)
H6_3 H 0.6139 0.8800 0.1273
C5_3 C 0.6537(6) 0.9304(4) 0.1676(5)
H7_3 H 0.6324 0.9285 0.1505
C6_3 C 0.6773(7) 0.9672(4) 0.1662(8)
H8_3 H 0.6689 0.9845 0.1752
O3_3 O 0.7018(5) 0.9740(4) 0.1162(4)
C7_3 C 0.7306(4) 0.8315(3) 0.0140(5)
H9_3 H 0.7507 0.8564 0.0081
H10_3 H 0.7409 0.8189 0.0320
C8_3 C 0.7038(3) 0.8342(2) 0.0448(3)
H11_3 H 0.7162 0.8473 0.0742
O5_3 O 0.69220(24) 0.85634(17) 0.01818(19)
C9_3 C 0.67129(28) 0.79839(19) 0.0577(2)
H12_3 H 0.6614 0.7834 0.0286
O6_3 O 0.68344(18) 0.78047(12) 0.08915(16)
C10_3 C 0.64181(27) 0.80255(19) 0.0808(3)
H13_3 H 0.6500 0.8137 0.1126
O7_3 O 0.60915(19) 0.76793(14) 0.0852(2)
C11_3 C 0.6325(3) 0.8271(2) 0.0497(3)
H14_3 H 0.6227 0.8147 0.0189
O8_3 O 0.60534(22) 0.83187(16) 0.0727(2)
C12_3 C 0.6669(4) 0.8629(2) 0.0406(3)
H15_3 H 0.6613 0.8785 0.0202
O9_3 O 0.68071(21) 0.88045(15) 0.08422(19)
C13_3 C 0.7590(3) 0.7319(2) 0.2712(3)
H16_3 H 0.7440 0.7438 0.2674
O10_3 O 0.74799(33) 0.7093(2) 0.3130(2)
C14_3 C 0.7314(3) 0.7540(2) 0.0953(2)
H17_3 H 0.7400 0.7800 0.1027
O11_3 O 0.70320(21) 0.74186(15) 0.06281(18)
C15_3 C 0.7189(3) 0.7322(2) 0.1408(3)
H18_3 H 0.7122 0.7065 0.1346
O12_3 O 0.74840(23) 0.74826(15) 0.17432(19)
C16_3 C 0.6873(4) 0.7334(2) 0.1605(3)
H19_3 H 0.6955 0.7587 0.1711
O13_3 O 0.67355(23) 0.70980(14) 0.20001(19)
H20_3 H 0.6860 0.6998 0.2044
C17_3 C 0.65844(28) 0.72294(19) 0.1230(3)
H21_3 H 0.6487 0.6968 0.1154
O14_3 O 0.62879(24) 0.72676(17) 0.1408(2)
H22_3 H 0.6251 0.7402 0.1229
C18_3 C 0.67304(27) 0.74374(18) 0.0791(3)
C19_3 C 0.8519(6) 0.8052(4) 0.2281(4)
H23_3 H 0.8604 0.8172 0.1972
H24_3 H 0.8572 0.8245 0.2513
O15_3 O 0.8720(6) 0.7907(5) 0.2392(4)
H25_3 H 0.8661 0.7813 0.2660
C20_3 C 0.8116(5) 0.7815(3) 0.2254(3)
H26_3 H 0.7994 0.7960 0.2196
C21_3 C 0.7624(7) 0.7515(6) 0.0714(4)
H27_3 H 0.7716 0.7689 0.0449
H28_3 H 0.7824 0.7591 0.0942
O16_3 O 0.7533(4) 0.7186(4) 0.0551(3)
C22_3 C 0.7530(5) 0.7067(3) 0.2301(3)
H29_3 H 0.7671 0.6942 0.2354
O17_3 O 0.71560(27) 0.68010(18) 0.2229(2)
C23_3 C 0.7679(4) 0.7315(3) 0.1838(3)
H30_3 H 0.7648 0.7152 0.1567
O18_3 O 0.8031(4) 0.7548(3) 0.1886(2)
C24_3 C 0.8982(4) 0.8696(3) 0.3642(3)
H31_3 H 0.9105 0.8672 0.3360
H32_3 H 0.9028 0.8948 0.3653
O19_3 O 0.91244(26) 0.86229(14) 0.4052(2)
C25_3 C 0.8582(3) 0.8436(2) 0.3609(2)
H33_3 H 0.8484 0.8491 0.3321
C26_3 C 0.8374(3) 0.8453(2) 0.4049(3)
H34_3 H 0.8467 0.8400 0.4343
C27_3 C 0.79783(28) 0.8182(2) 0.3975(2)
H35_3 H 0.7883 0.8250 0.3695
O20_3 O 0.77928(19) 0.81912(13) 0.43995(16)
H36_3 H 0.7694 0.7987 0.4528
C28_3 C 0.79283(28) 0.7814(2) 0.3917(2)
H37_3 H 0.8019 0.7758 0.4211
O21_3 O 0.75614(19) 0.75354(14) 0.3864(2)
H38_3 H 0.7426 0.7626 0.3873
C29_3 C 0.81553(27) 0.7803(2) 0.3522(2)
H39_3 H 0.8138 0.7560 0.3520
O22_3 O 0.85307(24) 0.80803(13) 0.35789(18)
C30_3 C 0.9031(4) 0.9897(3) 0.3815(4)
H41_3 H 0.9191 0.9841 0.3625
C31_3 C 0.8743(3) 0.9570(2) 0.4008(3)
H42_3 H 0.8593 0.9419 0.3737
O24_3 O 0.88917(21) 0.93753(16) 0.4227(2)
C32_3 C 0.8488(3) 0.9610(2) 0.4344(4)
H43_3 H 0.8637 0.9783 0.4598
O25_3 O 0.82995(24) 0.97550(18) 0.4107(3)
C33_3 C 0.8217(3) 0.9259(2) 0.4572(4)
H44_3 H 0.8047 0.9092 0.4327
O26_3 O 0.80163(34) 0.93226(28) 0.4921(3)
C34_3 C 0.8417(3) 0.9085(2) 0.4803(3)
H45_3 H 0.8581 0.9253 0.5051
O27_3 O 0.81657(25) 0.87471(21) 0.50210(19)
C35_3 C 0.8647(3) 0.9038(2) 0.4432(3)
H46_3 H 0.8781 0.8924 0.4574
O28_3 O 0.84167(20) 0.88162(15) 0.40647(18)
H51_3 H 0.7737 0.9803 0.3719
O31_3 O 0.7783(4) 0.9840(3) 0.4558(6)
H54_3 H 0.7589 0.9711 0.4412
H59_3 H 0.7732 0.9946 0.2329
O35_3 O 0.7155(4) 0.9708(3) 0.1911(4)
H61_3 H 0.7209 0.9823 0.2812
O36_3 O 0.6851(5) 0.9976(3) 0.2615(4)
C48_3 C 0.7986(3) 0.7599(2) 0.2724(3)
H64_3 H 0.8134 0.7484 0.2799
O39_3 O 0.80301(21) 0.78569(15) 0.30816(18)
O40_5 O 0.6281(2) 0.6282(2) 0.0000
K1_9 K 0.68971(9) 0.68971(9) 0.0000
K3_9 K 0.70073(17) 1.00000(12) 0.0000
C72_3 C 0.3047(5) 0.7685(4) 0.0309(3)
H95_3 H 0.2900 0.7562 0.0027
H96_3 H 0.3253 0.7639 0.0320
C73_3 C 0.3187(4) 0.8085(3) 0.0276(2)
C74_3 C 0.3412(4) 0.8293(3) 0.0716(3)
H98_3 H 0.3266 0.8200 0.1010
C75_3 C 0.35370(34) 0.86884(28) 0.0642(2)
H99_3 H 0.3700 0.8784 0.0362
O68_3 O 0.37317(23) 0.88739(19) 0.10662(16)
H100_3 H 0.3626 0.8973 0.1195
C76_3 C 0.32190(34) 0.87384(28) 0.0584(2)
H101_3 H 0.3072 0.8648 0.0878
O69_3 O 0.33073(24) 0.91053(19) 0.0531(2)
H102_3 H 0.3533 0.9241 0.0540
C77_3 C 0.29810(34) 0.85114(27) 0.0189(2)
H103_3 H 0.2755 0.8529 0.0187
C78_3 C 0.4199(5) 0.7636(4) 0.0482(4)
H104_3 H 0.4413 0.7738 0.0271
H105_3 H 0.3983 0.7476 0.0292
O73_3 O 0.4244(4) 0.7423(3) 0.0842(4)
C79_3 C 0.4160(4) 0.7924(3) 0.0675(3)
H106_3 H 0.4159 0.8074 0.0404
O74_3 O 0.38169(26) 0.77750(21) 0.0894(2)
C80_3 C 0.4455(4) 0.8179(3) 0.1011(4)
H107_3 H 0.4479 0.8030 0.1265
O75_3 O 0.47888(30) 0.83672(24) 0.0774(3)
C81_3 C 0.4375(4) 0.8450(3) 0.1239(4)
H108_3 H 0.4378 0.8620 0.0994
O76_3 O 0.46396(44) 0.86504(34) 0.1588(3)
O77_3 O 0.53170(34) 0.79730(19) 0.1746(3)
C82_3 C 0.4001(4) 0.8250(3) 0.1470(3)
H109_3 H 0.4005 0.8086 0.1718
O79_3 O 0.39147(33) 0.85010(25) 0.16877(19)
O80_3 O 0.51676(25) 0.72481(13) 0.16457(19)
C83_3 C 0.3724(4) 0.8020(3) 0.1099(3)
H110_3 H 0.3476 0.7886 0.1241
O82_3 O 0.37328(25) 0.82500(20) 0.07314(18)
C85_3 C 0.5190(7) 0.8221(6) 0.0043(5)
C86_3 C 0.5557(5) 0.8571(4) 0.0129(6)
H114_3 H 0.5745 0.8506 0.0214
C87_3 C 0.5554(7) 0.8830(6) 0.0494(8)
H115_3 H 0.5399 0.8930 0.0386
O85_3 O 0.5915(6) 0.9090(5) 0.0466(11)
H116_3 H 0.5961 0.9251 0.0667
C88_3 C 0.5420(5) 0.8638(4) 0.0931(6)
H117_3 H 0.5605 0.8583 0.1064
O86_3 O 0.5390(5) 0.8884(4) 0.1225(6)
H118_3 H 0.5455 0.9078 0.1079
C89_3 C 0.5058(5) 0.8284(4) 0.0879(5)
H119_3 H 0.4998 0.8157 0.1189
O87_3 O 0.50909(29) 0.80573(26) 0.0547(2)
O94_3 O 0.6396(6) 0.9349(5) 0.0006(5)
K7_3 K 0.79025(7) 0.89184(4) 0.58125(6)
K10_3 K 0.43492(8) 0.87641(7) 0.24791(6)
H138_3 H 0.446726 0.757906 0.102466
H140_3 H 0.647156 0.919918 0.203307
H142_3 H 0.722125 0.690308 0.310169
H143_3 H 0.652028 0.73322 0.0522616
H145_3 H 0.701553 0.692462 0.216497
O1_3 O 0.7207(7) 0.9486(5) 0.9989(9)
O4_3 O 0.7204(4) 0.8156(3) 0.9738(3)
O40_6 O 0.6281(2) 0.6282(2) 1.0000
O41_3 O 0.7068(3) 0.9559(2) 0.9289(3)
K1_10 K 0.68971(9) 0.68971(9) 1.0000
K3_10 K 0.70073(17) 1.00000(12) 1.0000
C49_3 C 0.5613(7) 0.9447(6) 0.7255(7)
H65_3 H 0.5354 0.9344 0.7332
H66_3 H 0.5665 0.9249 0.7318
O42_3 O 0.5612(9) 0.9460(7) 0.6656(9)
C50_3 C 0.5765(9) 0.9656(8) 0.7591(8)
H67_3 H 0.5579 0.9497 0.7825
C51_3 C 0.5688(7) 0.9917(6) 0.7630(7)
H69_3 H 0.5581 0.9872 0.8246
C54_3 C 0.6232(8) 0.9894(7) 0.8329(8)
H72_3 H 0.6489 0.9978 0.8419
O45_3 O 0.6055(6) 0.9649(5) 0.7829(4)
C55_3 C 0.4342(5) 0.9361(4) 0.6807(5)
H73_3 H 0.4390 0.9160 0.6748
H74_3 H 0.4113 0.9258 0.6987
O46_3 O 0.4285(5) 0.9463(4) 0.6405(3)
C56_3 C 0.4637(4) 0.9629(3) 0.7115(3)
H75_3 H 0.4644 0.9505 0.7409
O47_3 O 0.49747(29) 0.97447(24) 0.68485(19)
C57_3 C 0.46043(34) 0.99538(28) 0.7244(2)
O48_3 O 0.43036(22) 0.98323(18) 0.75582(16)
C60_3 C 0.5293(4) 0.9998(4) 0.7073(3)
O51_3 O 0.53307(26) 0.98596(21) 0.75089(19)
C61_3 C 0.3062(4) 0.9077(3) 0.9379(3)
H80_3 H 0.3331 0.9227 0.9341
O52_3 O 0.29464(39) 0.91868(33) 0.9797(2)
C62_3 C 0.3559(4) 0.9353(3) 0.7620(2)
H81_3 H 0.3733 0.9267 0.7694
O53_3 O 0.37199(26) 0.96347(21) 0.72948(18)
O54_3 O 0.74186(25) 0.70320(21) 0.93719(18)
O55_3 O 0.29467(26) 0.92481(15) 0.60386(18)
C63_3 C 0.3466(4) 0.9478(3) 0.8075(3)
H82_3 H 0.3276 0.9545 0.8013
O56_3 O 0.33319(27) 0.91827(23) 0.84099(19)
C64_3 C 0.3794(4) 0.9794(4) 0.8272(3)
H83_3 H 0.3965 0.9712 0.8378
O57_3 O 0.36958(27) 0.99312(23) 0.86668(19)
H84_3 H 0.3471 0.9807 0.8711
C66_3 C 0.40403(32) 0.99363(27) 0.7458(3)
C67_3 C 0.2866(7) 0.8148(6) 0.8948(4)
H87_3 H 0.2901 0.8063 0.8639
H88_3 H 0.3006 0.8095 0.9180
O59_3 O 0.2520(8) 0.7947(6) 0.9059(4)
H89_3 H 0.2485 0.8006 0.9327
C68_3 C 0.3032(6) 0.8551(5) 0.8921(3)
H90_3 H 0.3299 0.8673 0.8863
C69_3 C 0.3224(9) 0.9043(7) 0.7381(4)
H91_3 H 0.3306 0.8951 0.7116
H92_3 H 0.3100 0.8843 0.7609
O60_3 O 0.2986(6) 0.9134(4) 0.7218(3)
O61_3 O 0.7186(4) 0.7533(4) 0.9449(3)
O62_3 O 0.3680(6) 0.9481(4) 0.6116(3)
C70_3 C 0.2870(6) 0.9137(5) 0.8968(3)
H93_3 H 0.2604 0.8996 0.9021
O63_3 O 0.29783(32) 0.95107(27) 0.8896(2)
C71_3 C 0.2969(5) 0.8988(4) 0.8505(3)
H94_3 H 0.2837 0.9019 0.8234
O64_3 O 0.2850(5) 0.8636(4) 0.8553(2)
H97_3 H 0.3340 0.8183 0.9988
C84_3 C 0.5182(6) 0.7951(5) 0.9738(5)
H111_3 H 0.4942 0.7729 0.9755
H112_3 H 0.5224 0.8040 0.9410
O83_3 O 0.54563(45) 0.78711(41) 0.9876(3)
H113_3 H 0.5007 0.8287 0.9935
C90_3 C 0.5573(6) 0.8707(5) 0.8434(5)
H120_3 H 0.5676 0.8890 0.8180
H121_3 H 0.5714 0.8580 0.8415
O89_3 O 0.5279(17) 0.8468(14) 0.8225(12)
H122_3 H 0.5332 0.8412 0.7966
C91_3 C 0.5749(7) 0.8933(6) 0.8821(6)
H123_3 H 0.5547 0.8935 0.8996
O90_3 O 0.5824(9) 0.8674(7) 0.9110(5)
C92_3 C 0.6037(7) 0.9313(6) 0.8828(6)
H124_3 H 0.6251 0.9339 0.8649
O91_3 O 0.5886(5) 0.9512(4) 0.8578(4)
C93_3 C 0.6152(7) 0.9458(6) 0.9306(6)
H125_3 H 0.5947 0.9458 0.9479
O92_3 O 0.6458(6) 0.9816(5) 0.9282(4)
C94_3 C 0.6273(8) 0.9199(7) 0.9567(6)
H126_3 H 0.6485 0.9219 0.9390
C95_3 C 0.5975(10) 0.8814(8) 0.9534(8)
H127_3 H 0.6045 0.8651 0.9699
O96_3 O 0.5658(5) 0.8773(4) 0.9711(4)
C96_3 C 0.2946(4) 0.8681(3) 0.9391(3)
H128_3 H 0.2683 0.8533 0.9466
O97_3 O 0.31601(26) 0.86366(21) 0.97483(18)
K4_3 K 0.33333(13) 0.97696(9) 0.6667
K12_3 K 0.63260(21) 0.96594(17) 0.6667
H135_3 H 0.301516 0.944541 0.976835
H137_3 H 0.324242 0.965113 0.883164
H141_3 H 0.741018 0.815041 0.958438
H147_3 H 0.407357 0.925649 0.625105
H148_3 H 0.690527 0.929962 0.936617
H149_3 H 0.699781 0.961395 0.898045
H150_3 H 0.607835 0.633005 0.995051
H151_3 H 0.62823 0.612511 0.974314
H151_4 H 0.015719 0.387489 0.0256858
C13_4 C 0.0271(2) 0.2681(2) 0.7288(3)
H16_4 H 0.0002 0.2562 0.7326
O10_4 O 0.03869(26) 0.2907(2) 0.6870(2)
H18_4 H 0.0057 0.2935 0.8654
O12_4 O 0.00014(17) 0.25174(15) 0.82568(19)
C19_4 C 0.0467(5) 0.1948(4) 0.7719(4)
H23_4 H 0.0432 0.1828 0.8028
H24_4 H 0.0327 0.1755 0.7487
O15_4 O 0.0813(4) 0.2093(5) 0.7608(4)
H25_4 H 0.0848 0.2187 0.7340
C20_4 C 0.0301(4) 0.2185(3) 0.7746(3)
H26_4 H 0.0034 0.2040 0.7804
C21_4 C 0.0109(4) 0.2485(6) 0.9286(4)
H27_4 H 0.0027 0.2311 0.9551
H28_4 H 0.0233 0.2409 0.9058
C22_4 C 0.0463(4) 0.2933(3) 0.7699(3)
H29_4 H 0.0729 0.3058 0.7646
O17_4 O 0.0355(2) 0.31990(18) 0.7771(2)
C23_4 C 0.0364(2) 0.2685(3) 0.8162(3)
H30_4 H 0.0496 0.2848 0.8433
O18_4 O 0.0483(2) 0.2452(3) 0.8114(2)
C24_4 C 0.0286(2) 0.1304(3) 0.6358(3)
H31_4 H 0.0433 0.1328 0.6640
H32_4 H 0.0080 0.1052 0.6347
O19_4 O 0.05015(22) 0.13771(14) 0.5948(2)
C25_4 C 0.0146(2) 0.1564(2) 0.6391(2)
H34_4 H 0.0067 0.1600 0.5657
C28_4 C 0.01143(19) 0.2186(2) 0.6083(2)
H37_4 H 0.0261 0.2242 0.5789
O21_4 O 0.00260(13) 0.24646(14) 0.6136(2)
C29_4 C 0.03523(18) 0.2197(2) 0.6478(2)
H39_4 H 0.0578 0.2440 0.6480
O22_4 O 0.04504(20) 0.19197(13) 0.64211(18)
C48_4 C 0.0387(2) 0.2401(2) 0.7276(3)
H64_4 H 0.0650 0.2516 0.7201
O39_4 O 0.01732(14) 0.21431(15) 0.69184(18)
H142_4 H 0.0318175 0.309692 0.689831
H145_4 H 0.00909132 0.307538 0.783503
O4_4 O 0.9048(2) 0.1844(3) 0.0262(3)
O40_7 O 0.9999 0.3718(2) 0.0000
C49_4 C 0.6167(4) 0.0553(6) 0.2745(7)
H65_4 H 0.6011 0.0656 0.2668
H66_4 H 0.6417 0.0751 0.2682
O42_4 O 0.6153(5) 0.0540(7) 0.3344(9)
C50_4 C 0.6110(4) 0.0344(8) 0.2409(8)
H67_4 H 0.6083 0.0503 0.2175
C51_4 C 0.5772(4) 0.0083(6) 0.2370(7)
H69_4 H 0.5710 0.0128 0.1754
C54_4 C 0.6339(4) 0.0106(7) 0.1671(8)
H72_4 H 0.6512 0.0022 0.1581
O45_4 O 0.6407(4) 0.0351(5) 0.2171(4)
C55_4 C 0.4982(3) 0.0639(4) 0.3193(5)
H73_4 H 0.5231 0.0840 0.3252
H74_4 H 0.4856 0.0742 0.3013
O46_4 O 0.4823(3) 0.0537(4) 0.3595(3)
C56_4 C 0.5009(2) 0.0371(3) 0.2885(3)
H75_4 H 0.5140 0.0495 0.2591
O47_4 O 0.52301(17) 0.02553(24) 0.31515(19)
C57_4 C 0.46506(19) 0.00462(28) 0.2756(2)
O48_4 O 0.44714(12) 0.01677(18) 0.24418(16)
C60_4 C 0.5296(2) 0.0002(4) 0.2927(3)
O51_4 O 0.54712(15) 0.01404(21) 0.24911(19)
C61_4 C 0.3986(2) 0.0923(3) 0.0621(3)
H80_4 H 0.4105 0.0773 0.0659
O52_4 O 0.3760(2) 0.08132(33) 0.0203(2)
C62_4 C 0.4207(2) 0.0647(3) 0.2380(2)
H81_4 H 0.4467 0.0733 0.2306
O53_4 O 0.40853(15) 0.03653(21) 0.27052(18)
O55_4 O 0.36987(21) 0.07519(15) 0.39614(18)
C63_4 C 0.3989(2) 0.0522(3) 0.1925(3)
H82_4 H 0.3732 0.0455 0.1987
O56_4 O 0.41493(15) 0.08173(23) 0.15901(19)
C64_4 C 0.4001(2) 0.0206(4) 0.1728(3)
H83_4 H 0.4254 0.0288 0.1622
O57_4 O 0.37647(14) 0.00688(23) 0.13332(19)
H84_4 H 0.3665 0.0193 0.1289
C66_4 C 0.41041(18) 0.00637(27) 0.2542(3)
C67_4 C 0.4719(4) 0.1852(6) 0.1052(4)
H87_4 H 0.4839 0.1937 0.1361
H88_4 H 0.4912 0.1905 0.0820
O59_4 O 0.4574(5) 0.2053(6) 0.0941(4)
H89_4 H 0.4480 0.1994 0.0673
C68_4 C 0.4482(3) 0.1449(5) 0.1079(3)
H90_4 H 0.4627 0.1327 0.1137
C69_4 C 0.4182(6) 0.0957(7) 0.2619(4)
H91_4 H 0.4356 0.1049 0.2884
H92_4 H 0.4258 0.1157 0.2391
O60_4 O 0.3853(4) 0.0866(4) 0.2782(3)
O62_4 O 0.4200(4) 0.0519(4) 0.3884(3)
C70_4 C 0.3734(3) 0.0863(5) 0.1032(3)
H93_4 H 0.3609 0.1004 0.0979
O63_4 O 0.34677(18) 0.04893(27) 0.1104(2)
C71_4 C 0.3982(3) 0.1012(4) 0.1495(3)
H94_4 H 0.3819 0.0981 0.1766
O64_4 O 0.4215(3) 0.1364(4) 0.1447(2)
H97_4 H 0.5158 0.1817 0.0012
C84_4 C 0.7232(4) 0.2049(5) 0.0262(5)
H111_4 H 0.7214 0.2271 0.0245
H112_4 H 0.7185 0.1960 0.0590
O83_4 O 0.75853(19) 0.21289(41) 0.0124(3)
H113_4 H 0.6721 0.1713 0.0065
C90_4 C 0.6867(3) 0.1293(5) 0.1566(5)
H120_4 H 0.6787 0.1110 0.1820
H121_4 H 0.7135 0.1420 0.1585
O89_4 O 0.6812(9) 0.1532(14) 0.1775(12)
H122_4 H 0.6921 0.1588 0.2034
C91_4 C 0.6817(4) 0.1067(6) 0.1179(6)
H123_4 H 0.6613 0.1065 0.1004
O90_4 O 0.7151(5) 0.1326(7) 0.0890(5)
C92_4 C 0.6725(4) 0.0687(6) 0.1172(6)
H124_4 H 0.6913 0.0661 0.1351
O91_4 O 0.6375(3) 0.0488(4) 0.1422(4)
C93_4 C 0.6695(4) 0.0542(6) 0.0694(6)
H125_4 H 0.6490 0.0542 0.0521
C94_4 C 0.7075(4) 0.0801(7) 0.0433(6)
H126_4 H 0.7267 0.0781 0.0610
C95_4 C 0.7162(6) 0.1186(8) 0.0466(8)
H127_4 H 0.7395 0.1349 0.0301
O96_4 O 0.6886(3) 0.1227(4) 0.0289(4)
C96_4 C 0.4266(2) 0.1319(3) 0.0609(3)
H128_4 H 0.4151 0.1467 0.0534
O97_4 O 0.45236(15) 0.13634(21) 0.02517(18)
K4_4 K 0.35638(9) 0.02304(9) 0.3333
H135_4 H 0.356974 0.0554586 0.0231648
H137_4 H 0.359129 0.0348865 0.116836
H141_4 H 0.925977 0.184959 0.0415618
H147_4 H 0.481708 0.0743514 0.374895
H148_4 H 0.760565 0.0700382 0.0633826
H149_4 H 0.738386 0.0386051 0.101955
H150_4 H 0.97483 0.366995 0.0049494
C1_4 C 0.7720(5) 0.0500(4) 0.9412(7)
H1_4 H 0.7979 0.0656 0.9335
H2_4 H 0.7668 0.0250 0.9349
C2_4 C 0.7568(7) 0.0557(4) 0.9076(8)
H3_4 H 0.7754 0.0584 0.8842
C3_4 C 0.7645(4) 0.0895(4) 0.9037(7)
H4_4 H 0.7472 0.0919 0.9251
C4_4 C 0.7540(5) 0.0908(7) 0.8621(9)
H5_4 H 0.7752 0.0957 0.8421
O2_4 O 0.7495(4) 0.1206(6) 0.8541(5)
H6_4 H 0.7339 0.1200 0.8727
C5_4 C 0.7233(4) 0.0696(4) 0.8324(5)
H7_4 H 0.7039 0.0715 0.8495
C6_4 C 0.7101(6) 0.0328(4) 0.8338(8)
H8_4 H 0.6844 0.0155 0.8248
O3_4 O 0.7278(3) 0.0260(4) 0.8838(4)
C7_4 C 0.8991(3) 0.1685(3) 0.9860(5)
H9_4 H 0.8943 0.1436 0.9919
H10_4 H 0.9220 0.1811 0.9680
C8_4 C 0.8696(2) 0.1658(2) 0.9552(3)
H11_4 H 0.8689 0.1527 0.9258
O5_4 O 0.83586(17) 0.14366(17) 0.98182(19)
C9_4 C 0.8729(2) 0.20161(19) 0.9423(2)
H12_4 H 0.8780 0.2166 0.9714
O6_4 O 0.90297(14) 0.21953(12) 0.91085(16)
C10_4 C 0.83926(19) 0.19745(19) 0.9192(3)
H13_4 H 0.8363 0.1863 0.8874
O7_4 O 0.84122(13) 0.23207(14) 0.9148(2)
C11_4 C 0.8054(2) 0.1729(2) 0.9503(3)
H14_4 H 0.8080 0.1853 0.9811
O8_4 O 0.77347(15) 0.16813(16) 0.9273(2)
C12_4 C 0.8040(3) 0.1371(2) 0.9594(3)
H15_4 H 0.7828 0.1215 0.9798
O9_4 O 0.80026(14) 0.11955(15) 0.91578(19)
C14_4 C 0.9774(2) 0.2460(2) 0.9047(2)
H17_4 H 0.9600 0.2200 0.8973
C15_4 C 0.9867(2) 0.2678(2) 0.8592(3)
C16_4 C 0.9539(3) 0.2666(2) 0.8395(3)
H19_4 H 0.9368 0.2413 0.8289
O13_4 O 0.96375(18) 0.29020(14) 0.79999(19)
H20_4 H 0.9862 0.3002 0.7956
C17_4 C 0.9355(2) 0.27706(19) 0.8770(3)
H21_4 H 0.9519 0.3032 0.8846
O14_4 O 0.90203(17) 0.27324(17) 0.8592(2)
H22_4 H 0.8849 0.2598 0.8771
C18_4 C 0.9293(2) 0.25626(18) 0.9209(3)
H33_4 H 0.9993 0.1509 0.6679
C26_4 C 0.9921(2) 0.1547(2) 0.5951(3)
C27_4 C 0.97963(19) 0.1818(2) 0.6025(2)
H35_4 H 0.9633 0.1750 0.6305
O20_4 O 0.96016(14) 0.18088(13) 0.56005(16)
H36_4 H 0.9707 0.2013 0.5472
H38_4 H 0.9800 0.2374 0.6127
C30_4 C 0.9134(3) 0.0103(3) 0.6185(4)
H41_4 H 0.9350 0.0159 0.6375
C31_4 C 0.9173(2) 0.0430(2) 0.5992(3)
H42_4 H 0.9174 0.0581 0.6263
O24_4 O 0.95164(14) 0.06247(16) 0.5773(2)
C32_4 C 0.8878(2) 0.0390(2) 0.5656(4)
H43_4 H 0.8854 0.0217 0.5402
O25_4 O 0.85445(16) 0.02450(18) 0.5893(3)
C33_4 C 0.8958(2) 0.0741(2) 0.5428(4)
H44_4 H 0.8955 0.0908 0.5673
O26_4 O 0.86937(19) 0.06774(28) 0.5079(3)
C34_4 C 0.9332(2) 0.0915(2) 0.5197(3)
H45_4 H 0.9328 0.0747 0.4949
O27_4 O 0.94186(13) 0.12529(21) 0.49790(19)
C35_4 C 0.9609(2) 0.0962(2) 0.5568(3)
H46_4 H 0.9857 0.1076 0.5426
O28_4 O 0.96005(13) 0.11838(15) 0.59353(18)
H51_4 H 0.7934 0.0197 0.6281
O31_4 O 0.7943(3) 0.0160(3) 0.5442(6)
H54_4 H 0.7878 0.0289 0.5588
H59_4 H 0.7786 0.0054 0.7671
O35_4 O 0.7447(3) 0.0292(3) 0.8089(4)
H61_4 H 0.7386 0.0177 0.7188
O36_4 O 0.6875(4) 0.0024(3) 0.7385(4)
O40_8 O 0.9999 0.3718(2) 1.0000
K2_2 K 0.77483(4) 0.23175(6) 0.91458(6)
C72_4 C 0.5363(3) 0.2315(4) 0.9691(3)
H95_4 H 0.5339 0.2438 0.9973
H96_4 H 0.5615 0.2361 0.9680
O65_3 O 0.52896(14) 0.24577(26) 0.9281(2)
O66_2 O 0.75423(26) 0.28318(22) 0.9281(2)
C73_4 C 0.5103(2) 0.1915(3) 0.9724(2)
C74_4 C 0.5120(2) 0.1707(3) 0.9284(3)
H98_4 H 0.5067 0.1800 0.8990
C75_4 C 0.4849(2) 0.13116(28) 0.9358(2)
H99_4 H 0.4917 0.1216 0.9638
O68_4 O 0.48579(13) 0.11261(19) 0.89338(16)
H100_4 H 0.4654 0.1027 0.8805
C76_4 C 0.4481(2) 0.12616(28) 0.9416(2)
H101_4 H 0.4425 0.1352 0.9122
O69_4 O 0.42021(14) 0.08947(19) 0.9469(2)
H102_4 H 0.4293 0.0759 0.9460
C77_4 C 0.4470(2) 0.14886(27) 0.9811(2)
H103_4 H 0.4227 0.1471 0.9813
O70_3 O 0.47470(13) 0.18640(24) 0.97544(18)
O71_2 O 0.81360(24) 0.28829(20) 0.97544(18)
C78_4 C 0.6564(3) 0.2364(4) 0.9518(4)
H104_4 H 0.6676 0.2262 0.9729
H105_4 H 0.6508 0.2524 0.9708
O73_4 O 0.6822(2) 0.2577(3) 0.9158(4)
C79_4 C 0.6237(2) 0.2076(3) 0.9325(3)
H106_4 H 0.6086 0.1926 0.9596
O74_4 O 0.60420(16) 0.22250(21) 0.9106(2)
C80_4 C 0.6277(2) 0.1821(3) 0.8989(4)
H107_4 H 0.6450 0.1970 0.8735
O75_4 O 0.64217(18) 0.16328(24) 0.9226(3)
C81_4 C 0.5926(2) 0.1550(3) 0.8761(4)
H108_4 H 0.5759 0.1380 0.9006
O77_4 O 0.73441(28) 0.20270(19) 0.8254(3)
C82_4 C 0.5752(2) 0.1750(3) 0.8530(3)
H109_4 H 0.5920 0.1914 0.8282
O80_4 O 0.79196(21) 0.27519(13) 0.83543(19)
C83_4 C 0.5705(2) 0.1980(3) 0.8901(3)
H110_4 H 0.5591 0.2114 0.8759
O82_4 O 0.54829(15) 0.17500(20) 0.92686(18)
C85_4 C 0.6970(4) 0.1779(6) 0.9957(5)
C86_4 C 0.6987(3) 0.1429(4) 0.9871(6)
H114_4 H 0.7240 0.1494 0.9786
C87_4 C 0.6725(4) 0.1170(6) 0.9506(8)
H115_4 H 0.6470 0.1070 0.9614
O85_4 O 0.6826(4) 0.0910(5) 0.9534(11)
H116_4 H 0.6711 0.0749 0.9333
C88_4 C 0.6783(3) 0.1362(4) 0.9069(6)
H117_4 H 0.7023 0.1417 0.8936
O86_4 O 0.6507(3) 0.1116(4) 0.8775(6)
H118_4 H 0.6378 0.0922 0.8921
C89_4 C 0.6775(3) 0.1716(4) 0.9121(5)
H119_4 H 0.6842 0.1843 0.8811
O87_4 O 0.70337(13) 0.19427(26) 0.9453(2)
K9_3 K 0.45692(7) 0.22517(4) 0.91458(6)
H138_4 H 0.68882 0.242094 0.897534
H140_4 H 0.727238 0.0800816 0.796693
H143_4 H 0.918808 0.26678 0.947738
H68_4 H 0.5748 0.9886 0.2584
C52_4 C 0.5759(7) 0.9965(9) 0.1954(9)
O44_4 O 0.5461(6) 0.9622(7) 0.1874(5)
H70_4 H 0.5467 0.9472 0.2060
C53_4 C 0.5971(4) 0.9870(6) 0.1657(5)
H71_4 H 0.5952 0.9657 0.1828
H76_4 H 0.4501 0.9947 0.3047
C58_4 C 0.46922(19) 0.97514(27) 0.2525(3)
H77_4 H 0.4804 0.9833 0.2207
O49_4 O 0.43460(14) 0.94248(19) 0.2481(2)
C59_4 C 0.4938(2) 0.9658(3) 0.2836(3)
H78_4 H 0.4814 0.9560 0.3144
O50_4 O 0.49854(16) 0.93867(22) 0.2606(2)
H79_4 H 0.5452 0.9946 0.3131
C65_4 C 0.38961(19) 0.99177(28) 0.2103(3)
H85_4 H 0.3635 0.9820 0.2179
O58_4 O 0.39343(17) 0.96212(24) 0.1925(2)
H86_4 H 0.4069 0.9584 0.2104
O67_4 O 0.38348(22) 0.80438(14) 0.2615(2)
O72_4 O 0.37837(20) 0.85864(13) 0.30878(18)
O84_4 O 0.45377(41) 0.87897(36) 0.3458(3)
O88_4 O 0.47239(26) 0.84243(22) 0.2787(2)
O98_4 O 0.2949(2) 0.9614(2) 0.3333
H136_4 H 0.399887 0.985362 0.281072
H146_4 H 0.586585 0.98049 0.130027
H40_4 H 0.8920 0.9991 0.6396
O23_4 O 0.9089(2) 0.9845(2) 0.5825(4)
C36_4 C 0.8151(3) 0.9435(4) 0.6929(5)
H47_4 H 0.8391 0.9453 0.6912
H48_4 H 0.8109 0.9482 0.7257
O29_4 O 0.78770(36) 0.90814(19) 0.6791(3)
C37_4 C 0.8143(4) 0.9697(4) 0.6624(5)
H49_4 H 0.8326 0.9946 0.6732
C38_4 C 0.7776(3) 0.9680(3) 0.6538(6)
H50_4 H 0.7588 0.9427 0.6453
C39_4 C 0.7779(4) 0.9942(4) 0.6173(8)
O30_4 O 0.7418(3) 0.9841(4) 0.6201(11)
H52_4 H 0.7372 0.9956 0.6000
C40_4 C 0.7913(3) 0.9884(3) 0.5736(6)
H53_4 H 0.7728 0.9644 0.5603
C41_4 C 0.8275(2) 0.9892(3) 0.5788(5)
H55_4 H 0.8335 0.9825 0.5478
O32_4 O 0.82424(22) 0.96330(13) 0.6120(2)
C42_4 C 0.7760(4) 0.9800(3) 0.8233(5)
H56_4 H 0.7657 0.9880 0.8487
H57_4 H 0.7619 0.9532 0.8252
O33_4 O 0.8054(11) 0.9855(9) 0.8442(12)
H58_4 H 0.8001 0.9746 0.8701
C43_4 C 0.7584(5) 0.9850(4) 0.7846(6)
O34_4 O 0.7509(5) 0.9516(5) 0.7557(5)
C44_4 C 0.7296(5) 0.9942(4) 0.7839(6)
H60_4 H 0.7082 0.9754 0.8018
C45_4 C 0.7181(5) 0.9972(4) 0.7361(6)
C46_4 C 0.7060(6) 0.9592(4) 0.7100(6)
H62_4 H 0.6848 0.9400 0.7277
O37_4 O 0.6937(4) 0.9619(3) 0.6661(5)
C47_4 C 0.7358(6) 0.9505(6) 0.7133(8)
H63_4 H 0.7288 0.9272 0.6968
O38_4 O 0.7675(3) 0.9781(3) 0.6956(4)
H144_4 H 0.886608 0.977847 0.5642
O4_5 O 0.2796(4) 0.0952(2) 0.0262(3)
O40_9 O 0.3719(2) 0.0001 0.0000
C49_5 C 0.4387(7) 0.3833(4) 0.2745(7)
H65_5 H 0.4646 0.3989 0.2668
H66_5 H 0.4335 0.3583 0.2682
O42_5 O 0.4388(9) 0.3847(5) 0.3344(9)
C50_5 C 0.4235(9) 0.3890(4) 0.2409(8)
H67_5 H 0.4421 0.3917 0.2175
C51_5 C 0.4312(7) 0.4228(4) 0.2370(7)
H68_5 H 0.4139 0.4252 0.2584
C52_5 C 0.4207(11) 0.4241(7) 0.1954(9)
H69_5 H 0.4419 0.4290 0.1754
O44_5 O 0.4162(9) 0.4539(6) 0.1874(5)
H70_5 H 0.4006 0.4533 0.2060
C53_5 C 0.3900(7) 0.4029(4) 0.1657(5)
H71_5 H 0.3706 0.4048 0.1828
C54_5 C 0.3768(8) 0.3661(4) 0.1671(8)
H72_5 H 0.3511 0.3488 0.1581
O45_5 O 0.3945(6) 0.3593(4) 0.2171(4)
C55_5 C 0.5658(5) 0.5018(3) 0.3193(5)
H73_5 H 0.5610 0.4769 0.3252
H74_5 H 0.5887 0.5144 0.3013
O46_5 O 0.5715(5) 0.5177(3) 0.3595(3)
C56_5 C 0.5363(4) 0.4991(2) 0.2885(3)
H75_5 H 0.5356 0.4860 0.2591
O47_5 O 0.50253(29) 0.47699(17) 0.31515(19)
C57_5 C 0.53957(34) 0.53494(19) 0.2756(2)
H76_5 H 0.5447 0.5499 0.3047
O48_5 O 0.56964(22) 0.55286(12) 0.24418(16)
C58_5 C 0.50593(33) 0.53078(19) 0.2525(3)
H77_5 H 0.5030 0.5196 0.2207
O49_5 O 0.50789(24) 0.56540(14) 0.2481(2)
C59_5 C 0.4721(4) 0.5062(2) 0.2836(3)
H78_5 H 0.4747 0.5186 0.3144
O50_5 O 0.44014(27) 0.50146(16) 0.2606(2)
C60_5 C 0.4707(4) 0.4704(2) 0.2927(3)
H79_5 H 0.4495 0.4548 0.3131
O51_5 O 0.46693(26) 0.45288(15) 0.24911(19)
C61_5 C 0.6938(4) 0.6014(2) 0.0621(3)
H80_5 H 0.6669 0.5895 0.0659
O52_5 O 0.70536(39) 0.6240(2) 0.0203(2)
C62_5 C 0.6441(4) 0.5793(2) 0.2380(2)
H81_5 H 0.6267 0.5533 0.2306
O53_5 O 0.62801(26) 0.59147(15) 0.27052(18)
O55_5 O 0.70533(26) 0.63013(21) 0.39614(18)
C63_5 C 0.6534(4) 0.6011(2) 0.1925(3)
H82_5 H 0.6724 0.6268 0.1987
O56_5 O 0.66681(27) 0.58507(15) 0.15901(19)
C64_5 C 0.6206(4) 0.5999(2) 0.1728(3)
H83_5 H 0.6035 0.5746 0.1622
O57_5 O 0.63042(27) 0.62353(14) 0.13332(19)
H84_5 H 0.6529 0.6335 0.1289
C65_5 C 0.60217(34) 0.61039(19) 0.2103(3)
H85_5 H 0.6186 0.6365 0.2179
O58_5 O 0.56870(29) 0.60657(17) 0.1925(2)
H86_5 H 0.5516 0.5931 0.2104
C66_5 C 0.59597(32) 0.58959(18) 0.2542(3)
C67_5 C 0.7134(7) 0.5281(4) 0.1052(4)
H87_5 H 0.7099 0.5161 0.1361
H88_5 H 0.6994 0.5088 0.0820
O59_5 O 0.7480(8) 0.5426(5) 0.0941(4)
H89_5 H 0.7515 0.5520 0.0673
C68_5 C 0.6968(6) 0.5518(3) 0.1079(3)
H90_5 H 0.6701 0.5373 0.1137
C69_5 C 0.6776(9) 0.5818(6) 0.2619(4)
H91_5 H 0.6694 0.5644 0.2884
H92_5 H 0.6900 0.5742 0.2391
O60_5 O 0.7014(6) 0.6147(4) 0.2782(3)
O62_5 O 0.6320(6) 0.5800(4) 0.3884(3)
C70_5 C 0.7130(6) 0.6266(3) 0.1032(3)
H93_5 H 0.7396 0.6391 0.0979
O63_5 O 0.70217(32) 0.65323(18) 0.1104(2)
C71_5 C 0.7031(5) 0.6018(3) 0.1495(3)
H94_5 H 0.7163 0.6181 0.1766
O64_5 O 0.7150(5) 0.5785(3) 0.1447(2)
O67_5 O 0.42089(26) 0.61652(22) 0.2615(2)
H97_5 H 0.6660 0.4842 0.0012
O72_5 O 0.48026(24) 0.62163(20) 0.30878(18)
C84_5 C 0.4818(6) 0.2768(4) 0.0262(5)
H111_5 H 0.5058 0.2786 0.0245
H112_5 H 0.4776 0.2815 0.0590
O83_5 O 0.45437(45) 0.24147(19) 0.0124(3)
O84_5 O 0.42519(55) 0.54623(41) 0.3458(3)
H113_5 H 0.4993 0.3279 0.0065
O88_5 O 0.37003(34) 0.52761(26) 0.2787(2)
C90_5 C 0.4427(6) 0.3133(3) 0.1566(5)
H120_5 H 0.4324 0.3213 0.1820
H121_5 H 0.4286 0.2865 0.1585
O89_5 O 0.4721(17) 0.3188(9) 0.1775(12)
H122_5 H 0.4668 0.3079 0.2034
C91_5 C 0.4251(7) 0.3183(4) 0.1179(6)
H123_5 H 0.4453 0.3387 0.1004
O90_5 O 0.4176(9) 0.2849(5) 0.0890(5)
C92_5 C 0.3963(7) 0.3275(4) 0.1172(6)
H124_5 H 0.3749 0.3087 0.1351
O91_5 O 0.4114(5) 0.3625(3) 0.1422(4)
C93_5 C 0.3848(7) 0.3305(4) 0.0694(6)
H125_5 H 0.4053 0.3510 0.0521
C94_5 C 0.3727(8) 0.2925(4) 0.0433(6)
H126_5 H 0.3515 0.2733 0.0610
C95_5 C 0.4025(10) 0.2838(6) 0.0466(8)
H127_5 H 0.3955 0.2605 0.0301
O96_5 O 0.4342(5) 0.3114(3) 0.0289(4)
C96_5 C 0.7054(4) 0.5734(2) 0.0609(3)
H128_5 H 0.7317 0.5849 0.0534
O97_5 O 0.68399(26) 0.54764(15) 0.02517(18)
O98_5 O 0.6666(3) 0.7051(2) 0.3333
K4_5 K 0.66667(13) 0.64362(9) 0.3333
H135_5 H 0.698484 0.643026 0.0231648
H136_5 H 0.585475 0.600113 0.281072
H137_5 H 0.675758 0.640871 0.116836
H141_5 H 0.258982 0.0740232 0.0415618
H146_5 H 0.393905 0.413415 0.130027
H147_5 H 0.592643 0.518292 0.374895
H148_5 H 0.309473 0.239435 0.0633826
H149_5 H 0.300219 0.261614 0.101955
H150_5 H 0.392165 0.0251698 0.0049494
C1_5 C 0.2780(6) 0.2280(5) 0.9412(7)
H1_5 H 0.2677 0.2021 0.9335
H2_5 H 0.2582 0.2332 0.9349
C2_5 C 0.2989(8) 0.2432(7) 0.9076(8)
H3_5 H 0.2830 0.2246 0.8842
C3_5 C 0.3250(6) 0.2355(4) 0.9037(7)
H4_5 H 0.3447 0.2528 0.9251
C4_5 C 0.3368(9) 0.2460(5) 0.8621(9)
H5_5 H 0.3205 0.2248 0.8421
O2_5 O 0.3711(7) 0.2505(4) 0.8541(5)
H6_5 H 0.3861 0.2661 0.8727
C5_5 C 0.3463(6) 0.2767(4) 0.8324(5)
H7_5 H 0.3676 0.2961 0.8495
C6_5 C 0.3227(7) 0.2899(6) 0.8338(8)
H8_5 H 0.3311 0.3156 0.8248
O3_5 O 0.2982(5) 0.2722(3) 0.8838(4)
C7_5 C 0.2694(4) 0.1009(3) 0.9860(5)
H9_5 H 0.2493 0.1057 0.9919
H10_5 H 0.2591 0.0780 0.9680
C8_5 C 0.2962(3) 0.1304(2) 0.9552(3)
H11_5 H 0.2838 0.1311 0.9258
O5_5 O 0.30780(24) 0.16414(17) 0.98182(19)
C9_5 C 0.32871(28) 0.1271(2) 0.9423(2)
H12_5 H 0.3386 0.1220 0.9714
O6_5 O 0.31656(18) 0.09703(14) 0.91085(16)
C10_5 C 0.35819(27) 0.16074(19) 0.9192(3)
H13_5 H 0.3500 0.1637 0.8874
O7_5 O 0.39085(19) 0.15878(13) 0.9148(2)
C11_5 C 0.3675(3) 0.1946(2) 0.9503(3)
H14_5 H 0.3773 0.1920 0.9811
O8_5 O 0.39466(22) 0.22653(15) 0.9273(2)
C12_5 C 0.3331(4) 0.1960(3) 0.9594(3)
H15_5 H 0.3387 0.2172 0.9798
O9_5 O 0.31929(21) 0.19974(14) 0.91578(19)
C14_5 C 0.2686(3) 0.0226(2) 0.9047(2)
H17_5 H 0.2600 0.0400 0.8973
C15_5 C 0.2811(3) 0.0133(2) 0.8592(3)
C16_5 C 0.3127(4) 0.0461(3) 0.8395(3)
H19_5 H 0.3045 0.0632 0.8289
O13_5 O 0.32645(23) 0.03625(18) 0.79999(19)
H20_5 H 0.3140 0.0138 0.7956
C17_5 C 0.34156(28) 0.0645(2) 0.8770(3)
H21_5 H 0.3513 0.0481 0.8846
O14_5 O 0.37121(24) 0.09797(17) 0.8592(2)
H22_5 H 0.3749 0.1151 0.8771
C18_5 C 0.32696(27) 0.0707(2) 0.9209(3)
H33_5 H 0.1516 0.0007 0.6679
C26_5 C 0.1626(3) 0.0079(2) 0.5951(3)
C27_5 C 0.20217(28) 0.02037(19) 0.6025(2)
H35_5 H 0.2117 0.0367 0.6305
O20_5 O 0.22072(19) 0.03984(14) 0.56005(16)
H36_5 H 0.2306 0.0293 0.5472
H38_5 H 0.2574 0.0200 0.6127
C30_5 C 0.0969(4) 0.0866(3) 0.6185(4)
H40_5 H 0.1071 0.1080 0.6396
H41_5 H 0.0809 0.0650 0.6375
O23_5 O 0.0756(3) 0.0911(2) 0.5825(4)
C31_5 C 0.1257(3) 0.0827(2) 0.5992(3)
H42_5 H 0.1407 0.0826 0.6263
O24_5 O 0.11083(21) 0.04836(14) 0.5773(2)
C32_5 C 0.1512(3) 0.1122(2) 0.5656(4)
H43_5 H 0.1363 0.1146 0.5402
O25_5 O 0.17005(24) 0.14555(16) 0.5893(3)
C33_5 C 0.1783(3) 0.1042(2) 0.5428(4)
H44_5 H 0.1953 0.1045 0.5673
O26_5 O 0.19837(34) 0.13063(19) 0.5079(3)
C34_5 C 0.1583(3) 0.0668(2) 0.5197(3)
H45_5 H 0.1419 0.0672 0.4949
O27_5 O 0.18343(25) 0.05814(13) 0.49790(19)
C35_5 C 0.1353(3) 0.0391(2) 0.5568(3)
H46_5 H 0.1219 0.0143 0.5426
O28_5 O 0.15833(20) 0.03995(13) 0.59353(18)
C36_5 C 0.1284(5) 0.1849(3) 0.6929(5)
H47_5 H 0.1062 0.1609 0.6912
H48_5 H 0.1373 0.1891 0.7257
O29_5 O 0.12044(41) 0.21230(36) 0.6791(3)
C37_5 C 0.1554(6) 0.1857(4) 0.6624(5)
H49_5 H 0.1620 0.1674 0.6732
C38_5 C 0.1904(4) 0.2224(3) 0.6538(6)
H50_5 H 0.1839 0.2412 0.6453
C39_5 C 0.2163(6) 0.2221(4) 0.6173(8)
H51_5 H 0.2263 0.2066 0.6281
O30_5 O 0.2423(5) 0.2582(3) 0.6201(11)
H52_5 H 0.2584 0.2628 0.6000
C40_5 C 0.1971(4) 0.2087(3) 0.5736(6)
H53_5 H 0.1916 0.2272 0.5603
O31_5 O 0.2217(4) 0.2057(3) 0.5442(6)
H54_5 H 0.2411 0.2122 0.5588
C41_5 C 0.1617(4) 0.1725(2) 0.5788(5)
H55_5 H 0.1490 0.1665 0.5478
O32_5 O 0.13906(26) 0.17576(22) 0.6120(2)
C42_5 C 0.2040(5) 0.2240(4) 0.8233(5)
H56_5 H 0.2223 0.2343 0.8487
H57_5 H 0.1913 0.2381 0.8252
O33_5 O 0.1801(14) 0.1946(11) 0.8442(12)
H58_5 H 0.1745 0.1999 0.8701
C43_5 C 0.2266(6) 0.2416(5) 0.7846(6)
H59_5 H 0.2268 0.2214 0.7671
O34_5 O 0.2007(7) 0.2491(5) 0.7557(5)
C44_5 C 0.2646(6) 0.2704(5) 0.7839(6)
H60_5 H 0.2672 0.2918 0.8018
O35_5 O 0.2845(4) 0.2553(3) 0.8089(4)
C45_5 C 0.2791(6) 0.2819(5) 0.7361(6)
H61_5 H 0.2791 0.2614 0.7188
O36_5 O 0.3149(5) 0.3125(4) 0.7385(4)
C46_5 C 0.2532(7) 0.2940(6) 0.7100(6)
H62_5 H 0.2552 0.3152 0.7277
O37_5 O 0.2682(5) 0.3063(4) 0.6661(5)
C47_5 C 0.2147(8) 0.2642(6) 0.7133(8)
H63_5 H 0.1984 0.2712 0.6968
O38_5 O 0.2106(4) 0.2325(3) 0.6956(4)
O40_10 O 0.3719(2) 0.0001 1.0000
C72_5 C 0.6953(5) 0.4637(3) 0.9691(3)
H95_5 H 0.7100 0.4661 0.9973
H96_5 H 0.6747 0.4385 0.9680
O65_4 O 0.71682(30) 0.47104(14) 0.9281(2)
C73_5 C 0.6813(4) 0.4897(2) 0.9724(2)
C74_5 C 0.6588(4) 0.4880(2) 0.9284(3)
H98_5 H 0.6734 0.4933 0.8990
C75_5 C 0.64630(34) 0.5151(2) 0.9358(2)
H99_5 H 0.6300 0.5083 0.9638
O68_5 O 0.62683(23) 0.51421(13) 0.89338(16)
H100_5 H 0.6374 0.5346 0.8805
C76_5 C 0.67810(34) 0.5519(2) 0.9416(2)
H101_5 H 0.6928 0.5575 0.9122
O69_5 O 0.66927(24) 0.57979(14) 0.9469(2)
H102_5 H 0.6467 0.5707 0.9460
C77_5 C 0.70190(34) 0.5530(2) 0.9811(2)
H103_5 H 0.7245 0.5773 0.9813
O70_4 O 0.71171(27) 0.52530(13) 0.97544(18)
C78_5 C 0.5801(5) 0.3436(3) 0.9518(4)
H104_5 H 0.5587 0.3324 0.9729
H105_5 H 0.6017 0.3492 0.9708
O73_5 O 0.5756(4) 0.3178(2) 0.9158(4)
C79_5 C 0.5840(4) 0.3763(2) 0.9325(3)
H106_5 H 0.5841 0.3914 0.9596
O74_5 O 0.61831(26) 0.39580(16) 0.9106(2)
C80_5 C 0.5545(4) 0.3723(2) 0.8989(4)
H107_5 H 0.5521 0.3550 0.8735
O75_5 O 0.52112(30) 0.35783(18) 0.9226(3)
C81_5 C 0.5625(4) 0.4074(2) 0.8761(4)
H108_5 H 0.5622 0.4241 0.9006
O77_5 O 0.46830(34) 0.26559(28) 0.8254(3)
C82_5 C 0.5999(4) 0.4248(2) 0.8530(3)
H109_5 H 0.5995 0.4080 0.8282
O80_5 O 0.48324(25) 0.20804(21) 0.83543(19)
C83_5 C 0.6276(4) 0.4295(2) 0.8901(3)
H110_5 H 0.6524 0.4409 0.8759
O82_5 O 0.62672(25) 0.45171(15) 0.92686(18)
C85_5 C 0.4810(7) 0.3030(4) 0.9957(5)
C86_5 C 0.4443(5) 0.3013(3) 0.9871(6)
H114_5 H 0.4255 0.2760 0.9786
C87_5 C 0.4446(7) 0.3275(4) 0.9506(8)
H115_5 H 0.4601 0.3530 0.9614
O85_5 O 0.4085(6) 0.3174(4) 0.9534(11)
H116_5 H 0.4039 0.3289 0.9333
C88_5 C 0.4580(5) 0.3217(3) 0.9069(6)
H117_5 H 0.4395 0.2977 0.8936
O86_5 O 0.4610(5) 0.3493(3) 0.8775(6)
H118_5 H 0.4545 0.3622 0.8921
C89_5 C 0.4942(5) 0.3225(3) 0.9121(5)
H119_5 H 0.5002 0.3158 0.8811
O87_5 O 0.49091(29) 0.29663(13) 0.9453(2)
K9_4 K 0.76825(8) 0.54308(7) 0.91458(6)
H138_5 H 0.553274 0.31118 0.897534
H140_5 H 0.352844 0.272762 0.796693
H143_5 H 0.347972 0.0811918 0.947738
H144_5 H 0.0912389 0.113392 0.5642
H151_5 H 0.37177 0.984281 0.0256858
C13_5 C 0.2410(3) 0.9729(2) 0.7288(3)
H16_5 H 0.2560 0.9998 0.7326
O10_5 O 0.25201(33) 0.96131(26) 0.6870(2)
H18_5 H 0.2878 0.9943 0.8654
O12_5 O 0.25160(23) 0.99986(17) 0.82568(19)
C19_5 C 0.1481(6) 0.9533(5) 0.7719(4)
H23_5 H 0.1396 0.9568 0.8028
H24_5 H 0.1428 0.9673 0.7487
O15_5 O 0.1280(6) 0.9187(4) 0.7608(4)
H25_5 H 0.1339 0.9152 0.7340
C20_5 C 0.1884(5) 0.9699(4) 0.7746(3)
H26_5 H 0.2006 0.9966 0.7804
C21_5 C 0.2376(7) 0.9891(4) 0.9286(4)
H27_5 H 0.2284 0.9973 0.9551
H28_5 H 0.2176 0.9767 0.9058
C22_5 C 0.2470(5) 0.9537(4) 0.7699(3)
H29_5 H 0.2329 0.9271 0.7646
O17_5 O 0.28440(27) 0.9645(2) 0.7771(2)
C23_5 C 0.2321(4) 0.9636(2) 0.8162(3)
H30_5 H 0.2352 0.9504 0.8433
O18_5 O 0.1969(4) 0.9517(2) 0.8114(2)
C24_5 C 0.1018(4) 0.9714(2) 0.6358(3)
H31_5 H 0.0895 0.9567 0.6640
H32_5 H 0.0972 0.9920 0.6347
O19_5 O 0.08756(26) 0.94985(22) 0.5948(2)
C25_5 C 0.1418(3) 0.9854(2) 0.6391(2)
H34_5 H 0.1533 0.9933 0.5657
C28_5 C 0.20717(28) 0.98857(19) 0.6083(2)
H37_5 H 0.1981 0.9739 0.5789
O21_5 O 0.24386(19) 0.99740(13) 0.6136(2)
C29_5 C 0.18447(27) 0.96477(18) 0.6478(2)
H39_5 H 0.1862 0.9422 0.6480
O22_5 O 0.14693(24) 0.95496(20) 0.64211(18)
C48_5 C 0.2014(3) 0.9613(2) 0.7276(3)
H64_5 H 0.1866 0.9350 0.7201
O39_5 O 0.19699(21) 0.98268(14) 0.69184(18)
H142_5 H 0.277875 0.968182 0.689831
H145_5 H 0.298447 0.990909 0.783503
H68_6 H 0.0114 0.5861 0.2584
C52_6 C 0.0035(9) 0.5793(11) 0.1954(9)
O44_6 O 0.0378(7) 0.5838(9) 0.1874(5)
H70_6 H 0.0528 0.5994 0.2060
C53_6 C 0.0130(6) 0.6100(7) 0.1657(5)
H71_6 H 0.0343 0.6294 0.1828
H76_6 H 0.0053 0.4553 0.3047
C58_6 C 0.02486(27) 0.49407(33) 0.2525(3)
H77_6 H 0.0167 0.4970 0.2207
O49_6 O 0.05752(19) 0.49211(24) 0.2481(2)
C59_6 C 0.0342(3) 0.5279(4) 0.2836(3)
H78_6 H 0.0440 0.5253 0.3144
O50_6 O 0.06133(22) 0.55986(27) 0.2606(2)
H79_6 H 0.0054 0.5505 0.3131
C65_6 C 0.00823(28) 0.39783(34) 0.2103(3)
H85_6 H 0.0180 0.3814 0.2179
O58_6 O 0.03788(24) 0.43130(29) 0.1925(2)
H86_6 H 0.0416 0.4484 0.2104
O67_6 O 0.19562(14) 0.57911(26) 0.2615(2)
O72_6 O 0.14136(13) 0.51974(24) 0.30878(18)
O84_6 O 0.12103(36) 0.57481(55) 0.3458(3)
O88_6 O 0.15757(22) 0.62997(34) 0.2787(2)
O98_6 O 0.0386(2) 0.3334(3) 0.3333
H136_6 H 0.0146382 0.414525 0.281072
H146_6 H 0.0195103 0.606095 0.130027
H40_6 H 0.0009 0.8929 0.6396
O23_6 O 0.0155(2) 0.9244(3) 0.5825(4)
C36_6 C 0.0565(4) 0.8716(5) 0.6929(5)
H47_6 H 0.0547 0.8938 0.6912
H48_6 H 0.0518 0.8627 0.7257
O29_6 O 0.09186(19) 0.87956(41) 0.6791(3)
C37_6 C 0.0303(4) 0.8446(6) 0.6624(5)
H49_6 H 0.0054 0.8380 0.6732
C38_6 C 0.0320(3) 0.8096(4) 0.6538(6)
H50_6 H 0.0573 0.8161 0.6453
C39_6 C 0.0058(4) 0.7837(6) 0.6173(8)
O30_6 O 0.0159(4) 0.7577(5) 0.6201(11)
H52_6 H 0.0044 0.7416 0.6000
C40_6 C 0.0116(3) 0.8029(4) 0.5736(6)
H53_6 H 0.0356 0.8084 0.5603
C41_6 C 0.0108(3) 0.8383(4) 0.5788(5)
H55_6 H 0.0175 0.8510 0.5478
O32_6 O 0.03670(13) 0.86094(26) 0.6120(2)
C42_6 C 0.0200(3) 0.7960(5) 0.8233(5)
H56_6 H 0.0120 0.7777 0.8487
H57_6 H 0.0468 0.8087 0.8252
O33_6 O 0.0145(9) 0.8199(14) 0.8442(12)
H58_6 H 0.0254 0.8255 0.8701
C43_6 C 0.0150(4) 0.7734(6) 0.7846(6)
O34_6 O 0.0484(5) 0.7993(7) 0.7557(5)
C44_6 C 0.0058(4) 0.7354(6) 0.7839(6)
H60_6 H 0.0246 0.7328 0.8018
C45_6 C 0.0028(4) 0.7209(6) 0.7361(6)
C46_6 C 0.0408(4) 0.7468(7) 0.7100(6)
H62_6 H 0.0600 0.7448 0.7277
O37_6 O 0.0381(3) 0.7318(5) 0.6661(5)
C47_6 C 0.0495(6) 0.7853(8) 0.7133(8)
H63_6 H 0.0728 0.8016 0.6968
O38_6 O 0.0219(3) 0.7894(4) 0.6956(4)
H144_6 H 0.0221534 0.908761 0.5642
O4_6 O 0.8156(3) 0.7204(4) 0.0262(3)
C49_6 C 0.9447(6) 0.5613(7) 0.2745(7)
H65_6 H 0.9344 0.5354 0.2668
H66_6 H 0.9249 0.5665 0.2682
O42_6 O 0.9460(7) 0.5612(9) 0.3344(9)
C50_6 C 0.9656(8) 0.5765(9) 0.2409(8)
H67_6 H 0.9497 0.5579 0.2175
C51_6 C 0.9917(6) 0.5688(7) 0.2370(7)
H69_6 H 0.9872 0.5581 0.1754
C54_6 C 0.9894(7) 0.6232(8) 0.1671(8)
H72_6 H 0.9978 0.6489 0.1581
O45_6 O 0.9649(5) 0.6055(6) 0.2171(4)
C55_6 C 0.9361(4) 0.4342(5) 0.3193(5)
H73_6 H 0.9160 0.4390 0.3252
H74_6 H 0.9258 0.4113 0.3013
O46_6 O 0.9463(4) 0.4285(5) 0.3595(3)
C56_6 C 0.9629(3) 0.4637(4) 0.2885(3)
H75_6 H 0.9505 0.4644 0.2591
O47_6 O 0.97447(24) 0.49747(29) 0.31515(19)
C57_6 C 0.99538(28) 0.46043(34) 0.2756(2)
O48_6 O 0.98323(18) 0.43036(22) 0.24418(16)
C60_6 C 0.9998(4) 0.5293(4) 0.2927(3)
O51_6 O 0.98596(21) 0.53307(26) 0.24911(19)
C61_6 C 0.9077(3) 0.3062(4) 0.0621(3)
H80_6 H 0.9227 0.3331 0.0659
O52_6 O 0.91868(33) 0.29464(39) 0.0203(2)
C62_6 C 0.9353(3) 0.3559(4) 0.2380(2)
H81_6 H 0.9267 0.3733 0.2306
O53_6 O 0.96347(21) 0.37199(26) 0.27052(18)
O55_6 O 0.92481(15) 0.29467(26) 0.39614(18)
C63_6 C 0.9478(3) 0.3466(4) 0.1925(3)
H82_6 H 0.9545 0.3276 0.1987
O56_6 O 0.91827(23) 0.33319(27) 0.15901(19)
C64_6 C 0.9794(4) 0.3794(4) 0.1728(3)
H83_6 H 0.9712 0.3965 0.1622
O57_6 O 0.99312(23) 0.36958(27) 0.13332(19)
H84_6 H 0.9807 0.3471 0.1289
C66_6 C 0.99363(27) 0.40403(32) 0.2542(3)
C67_6 C 0.8148(6) 0.2866(7) 0.1052(4)
H87_6 H 0.8063 0.2901 0.1361
H88_6 H 0.8095 0.3006 0.0820
O59_6 O 0.7947(6) 0.2520(8) 0.0941(4)
H89_6 H 0.8006 0.2485 0.0673
C68_6 C 0.8551(5) 0.3032(6) 0.1079(3)
H90_6 H 0.8673 0.3299 0.1137
C69_6 C 0.9043(7) 0.3224(9) 0.2619(4)
H91_6 H 0.8951 0.3306 0.2884
H92_6 H 0.8843 0.3100 0.2391
O60_6 O 0.9134(4) 0.2986(6) 0.2782(3)
O62_6 O 0.9481(4) 0.3680(6) 0.3884(3)
C70_6 C 0.9137(5) 0.2870(6) 0.1032(3)
H93_6 H 0.8996 0.2604 0.0979
O63_6 O 0.95107(27) 0.29783(32) 0.1104(2)
C71_6 C 0.8988(4) 0.2969(5) 0.1495(3)
H94_6 H 0.9019 0.2837 0.1766
O64_6 O 0.8636(4) 0.2850(5) 0.1447(2)
H97_6 H 0.8183 0.3340 0.0012
C84_6 C 0.7951(5) 0.5182(6) 0.0262(5)
H111_6 H 0.7729 0.4942 0.0245
H112_6 H 0.8040 0.5224 0.0590
O83_6 O 0.78711(41) 0.54563(45) 0.0124(3)
H113_6 H 0.8287 0.5007 0.0065
C90_6 C 0.8707(5) 0.5573(6) 0.1566(5)
H120_6 H 0.8890 0.5676 0.1820
H121_6 H 0.8580 0.5714 0.1585
O89_6 O 0.8468(14) 0.5279(17) 0.1775(12)
H122_6 H 0.8412 0.5332 0.2034
C91_6 C 0.8933(6) 0.5749(7) 0.1179(6)
H123_6 H 0.8935 0.5547 0.1004
O90_6 O 0.8674(7) 0.5824(9) 0.0890(5)
C92_6 C 0.9313(6) 0.6037(7) 0.1172(6)
H124_6 H 0.9339 0.6251 0.1351
O91_6 O 0.9512(4) 0.5886(5) 0.1422(4)
C93_6 C 0.9458(6) 0.6152(7) 0.0694(6)
H125_6 H 0.9458 0.5947 0.0521
C94_6 C 0.9199(7) 0.6273(8) 0.0433(6)
H126_6 H 0.9219 0.6485 0.0610
C95_6 C 0.8814(8) 0.5975(10) 0.0466(8)
H127_6 H 0.8651 0.6045 0.0301
O96_6 O 0.8773(4) 0.5658(5) 0.0289(4)
C96_6 C 0.8681(3) 0.2946(4) 0.0609(3)
H128_6 H 0.8533 0.2683 0.0534
O97_6 O 0.86366(21) 0.31601(26) 0.02517(18)
K4_6 K 0.97696(9) 0.33333(13) 0.3333
H135_6 H 0.944541 0.301516 0.0231648
H137_6 H 0.965113 0.324242 0.116836
H141_6 H 0.815041 0.741018 0.0415618
H147_6 H 0.925649 0.407357 0.374895
H148_6 H 0.929962 0.690527 0.0633826
H149_6 H 0.961395 0.699781 0.101955
H150_6 H 0.633005 0.607835 0.0049494
H151_6 H 0.612511 0.62823 0.0256858
C1_6 C 0.9500(4) 0.7220(6) 0.9412(7)
H1_6 H 0.9344 0.7323 0.9335
H2_6 H 0.9750 0.7418 0.9349
C2_6 C 0.9443(4) 0.7011(8) 0.9076(8)
H3_6 H 0.9416 0.7170 0.8842
C3_6 C 0.9105(4) 0.6750(6) 0.9037(7)
H4_6 H 0.9081 0.6553 0.9251
C4_6 C 0.9092(7) 0.6632(9) 0.8621(9)
H5_6 H 0.9043 0.6795 0.8421
O2_6 O 0.8794(6) 0.6289(7) 0.8541(5)
H6_6 H 0.8800 0.6139 0.8727
C5_6 C 0.9304(4) 0.6537(6) 0.8324(5)
H7_6 H 0.9285 0.6324 0.8495
C6_6 C 0.9672(4) 0.6773(7) 0.8338(8)
H8_6 H 0.9845 0.6689 0.8248
O3_6 O 0.9740(4) 0.7018(5) 0.8838(4)
C7_6 C 0.8315(3) 0.7306(4) 0.9860(5)
H9_6 H 0.8564 0.7507 0.9919
H10_6 H 0.8189 0.7409 0.9680
C8_6 C 0.8342(2) 0.7038(3) 0.9552(3)
H11_6 H 0.8473 0.7162 0.9258
O5_6 O 0.85634(17) 0.69220(24) 0.98182(19)
C9_6 C 0.79839(19) 0.67129(28) 0.9423(2)
H12_6 H 0.7834 0.6614 0.9714
O6_6 O 0.78047(12) 0.68344(18) 0.91085(16)
C10_6 C 0.80255(19) 0.64181(27) 0.9192(3)
H13_6 H 0.8137 0.6500 0.8874
O7_6 O 0.76793(14) 0.60915(19) 0.9148(2)
C11_6 C 0.8271(2) 0.6325(3) 0.9503(3)
H14_6 H 0.8147 0.6227 0.9811
O8_6 O 0.83187(16) 0.60534(22) 0.9273(2)
C12_6 C 0.8629(2) 0.6669(4) 0.9594(3)
H15_6 H 0.8785 0.6613 0.9798
O9_6 O 0.88045(15) 0.68071(21) 0.91578(19)
C13_6 C 0.7319(2) 0.7590(3) 0.7288(3)
H16_6 H 0.7438 0.7440 0.7326
O10_6 O 0.7093(2) 0.74799(33) 0.6870(2)
C14_6 C 0.7540(2) 0.7314(3) 0.9047(2)
H17_6 H 0.7800 0.7400 0.8973
C15_6 C 0.7322(2) 0.7189(3) 0.8592(3)
H18_6 H 0.7065 0.7122 0.8654
O12_6 O 0.74826(15) 0.74840(23) 0.82568(19)
C16_6 C 0.7334(2) 0.6873(4) 0.8395(3)
H19_6 H 0.7587 0.6955 0.8289
O13_6 O 0.70980(14) 0.67355(23) 0.79999(19)
H20_6 H 0.6998 0.6860 0.7956
C17_6 C 0.72294(19) 0.65844(28) 0.8770(3)
H21_6 H 0.6968 0.6487 0.8846
O14_6 O 0.72676(17) 0.62879(24) 0.8592(2)
H22_6 H 0.7402 0.6251 0.8771
C18_6 C 0.74374(18) 0.67304(27) 0.9209(3)
C19_6 C 0.8052(4) 0.8519(6) 0.7719(4)
H23_6 H 0.8172 0.8604 0.8028
H24_6 H 0.8245 0.8572 0.7487
O15_6 O 0.7907(5) 0.8720(6) 0.7608(4)
H25_6 H 0.7813 0.8661 0.7340
C20_6 C 0.7815(3) 0.8116(5) 0.7746(3)
H26_6 H 0.7960 0.7994 0.7804
C21_6 C 0.7515(6) 0.7624(7) 0.9286(4)
H27_6 H 0.7689 0.7716 0.9551
H28_6 H 0.7591 0.7824 0.9058
C22_6 C 0.7067(3) 0.7530(5) 0.7699(3)
H29_6 H 0.6942 0.7671 0.7646
O17_6 O 0.68010(18) 0.71560(27) 0.7771(2)
C23_6 C 0.7315(3) 0.7679(4) 0.8162(3)
H30_6 H 0.7152 0.7648 0.8433
O18_6 O 0.7548(3) 0.8031(4) 0.8114(2)
C24_6 C 0.8696(3) 0.8982(4) 0.6358(3)
H31_6 H 0.8672 0.9105 0.6640
H32_6 H 0.8948 0.9028 0.6347
O19_6 O 0.86229(14) 0.91244(26) 0.5948(2)
C25_6 C 0.8436(2) 0.8582(3) 0.6391(2)
H33_6 H 0.8491 0.8484 0.6679
C26_6 C 0.8453(2) 0.8374(3) 0.5951(3)
H34_6 H 0.8400 0.8467 0.5657
C27_6 C 0.8182(2) 0.79783(28) 0.6025(2)
H35_6 H 0.8250 0.7883 0.6305
O20_6 O 0.81912(13) 0.77928(19) 0.56005(16)
H36_6 H 0.7987 0.7694 0.5472
C28_6 C 0.7814(2) 0.79283(28) 0.6083(2)
H37_6 H 0.7758 0.8019 0.5789
O21_6 O 0.75354(14) 0.75614(19) 0.6136(2)
H38_6 H 0.7626 0.7426 0.6127
C29_6 C 0.7803(2) 0.81553(27) 0.6478(2)
H39_6 H 0.7560 0.8138 0.6480
O22_6 O 0.80803(13) 0.85307(24) 0.64211(18)
C30_6 C 0.9897(3) 0.9031(4) 0.6185(4)
H41_6 H 0.9841 0.9191 0.6375
C31_6 C 0.9570(2) 0.8743(3) 0.5992(3)
H42_6 H 0.9419 0.8593 0.6263
O24_6 O 0.93753(16) 0.88917(21) 0.5773(2)
C32_6 C 0.9610(2) 0.8488(3) 0.5656(4)
H43_6 H 0.9783 0.8637 0.5402
O25_6 O 0.97550(18) 0.82995(24) 0.5893(3)
C33_6 C 0.9259(2) 0.8217(3) 0.5428(4)
H44_6 H 0.9092 0.8047 0.5673
O26_6 O 0.93226(28) 0.80163(34) 0.5079(3)
C34_6 C 0.9085(2) 0.8417(3) 0.5197(3)
H45_6 H 0.9253 0.8581 0.4949
O27_6 O 0.87471(21) 0.81657(25) 0.49790(19)
C35_6 C 0.9038(2) 0.8647(3) 0.5568(3)
H46_6 H 0.8924 0.8781 0.5426
O28_6 O 0.88162(15) 0.84167(20) 0.59353(18)
H51_6 H 0.9803 0.7737 0.6281
O31_6 O 0.9840(3) 0.7783(4) 0.5442(6)
H54_6 H 0.9711 0.7589 0.5588
H59_6 H 0.9946 0.7732 0.7671
O35_6 O 0.9708(3) 0.7155(4) 0.8089(4)
H61_6 H 0.9823 0.7209 0.7188
O36_6 O 0.9976(3) 0.6851(5) 0.7385(4)
C48_6 C 0.7599(2) 0.7986(3) 0.7276(3)
H64_6 H 0.7484 0.8134 0.7201
O39_6 O 0.78569(15) 0.80301(21) 0.69184(18)
C72_6 C 0.7685(4) 0.3047(5) 0.9691(3)
H95_6 H 0.7562 0.2900 0.9973
H96_6 H 0.7639 0.3253 0.9680
C73_6 C 0.8085(3) 0.3187(4) 0.9724(2)
C74_6 C 0.8293(3) 0.3412(4) 0.9284(3)
H98_6 H 0.8200 0.3266 0.8990
C75_6 C 0.86884(28) 0.35370(34) 0.9358(2)
H99_6 H 0.8784 0.3700 0.9638
O68_6 O 0.88739(19) 0.37317(23) 0.89338(16)
H100_6 H 0.8973 0.3626 0.8805
C76_6 C 0.87384(28) 0.32190(34) 0.9416(2)
H101_6 H 0.8648 0.3072 0.9122
O69_6 O 0.91053(19) 0.33073(24) 0.9469(2)
H102_6 H 0.9241 0.3533 0.9460
C77_6 C 0.85114(27) 0.29810(34) 0.9811(2)
H103_6 H 0.8529 0.2755 0.9813
C78_6 C 0.7636(4) 0.4199(5) 0.9518(4)
H104_6 H 0.7738 0.4413 0.9729
H105_6 H 0.7476 0.3983 0.9708
O73_6 O 0.7423(3) 0.4244(4) 0.9158(4)
C79_6 C 0.7924(3) 0.4160(4) 0.9325(3)
H106_6 H 0.8074 0.4159 0.9596
O74_6 O 0.77750(21) 0.38169(26) 0.9106(2)
C80_6 C 0.8179(3) 0.4455(4) 0.8989(4)
H107_6 H 0.8030 0.4479 0.8735
O75_6 O 0.83672(24) 0.47888(30) 0.9226(3)
C81_6 C 0.8450(3) 0.4375(4) 0.8761(4)
H108_6 H 0.8620 0.4378 0.9006
O77_6 O 0.79730(19) 0.53170(34) 0.8254(3)
C82_6 C 0.8250(3) 0.4001(4) 0.8530(3)
H109_6 H 0.8086 0.4005 0.8282
O80_6 O 0.72481(13) 0.51676(25) 0.83543(19)
C83_6 C 0.8020(3) 0.3724(4) 0.8901(3)
H110_6 H 0.7886 0.3476 0.8759
O82_6 O 0.82500(20) 0.37328(25) 0.92686(18)
C85_6 C 0.8221(6) 0.5190(7) 0.9957(5)
C86_6 C 0.8571(4) 0.5557(5) 0.9871(6)
H114_6 H 0.8506 0.5745 0.9786
C87_6 C 0.8830(6) 0.5554(7) 0.9506(8)
H115_6 H 0.8930 0.5399 0.9614
O85_6 O 0.9090(5) 0.5915(6) 0.9534(11)
H116_6 H 0.9251 0.5961 0.9333
C88_6 C 0.8638(4) 0.5420(5) 0.9069(6)
H117_6 H 0.8583 0.5605 0.8936
O86_6 O 0.8884(4) 0.5390(5) 0.8775(6)
H118_6 H 0.9078 0.5455 0.8921
C89_6 C 0.8284(4) 0.5058(5) 0.9121(5)
H119_6 H 0.8157 0.4998 0.8811
O87_6 O 0.80573(26) 0.50909(29) 0.9453(2)
H138_6 H 0.757906 0.446726 0.897534
H140_6 H 0.919918 0.647156 0.796693
H142_6 H 0.690308 0.722125 0.689831
H143_6 H 0.73322 0.652028 0.947738
H145_6 H 0.692462 0.701553 0.783503
C1_7 C 0.7167(4) 0.1053(5) 0.3921(7)
H1_7 H 0.7323 0.1312 0.3998
H2_7 H 0.6917 0.1001 0.3984
O1_4 O 0.7181(5) 0.1054(5) 0.3322(9)
C2_7 C 0.7224(4) 0.0901(7) 0.4257(8)
H3_7 H 0.7251 0.1087 0.4491
C3_7 C 0.7562(4) 0.0978(4) 0.4296(7)
H4_7 H 0.7586 0.0805 0.4082
C4_7 C 0.7575(7) 0.0873(5) 0.4712(9)
H5_7 H 0.7624 0.1085 0.4912
O2_7 O 0.7873(6) 0.0828(4) 0.4792(5)
H6_7 H 0.7867 0.0672 0.4606
C5_7 C 0.7363(4) 0.0566(4) 0.5009(5)
H7_7 H 0.7382 0.0372 0.4838
C6_7 C 0.6995(4) 0.0434(6) 0.4995(8)
H8_7 H 0.6822 0.0177 0.5085
O3_7 O 0.6927(4) 0.0611(3) 0.4495(4)
C7_7 C 0.8352(3) 0.2324(3) 0.3473(5)
H9_7 H 0.8103 0.2276 0.3414
H10_7 H 0.8478 0.2553 0.3653
O4_7 O 0.8511(3) 0.2381(2) 0.3071(3)
C8_7 C 0.8325(2) 0.2029(2) 0.3781(3)
H11_7 H 0.8194 0.2022 0.4075
O5_7 O 0.81033(17) 0.16919(17) 0.35151(19)
C9_7 C 0.86828(19) 0.2062(2) 0.3910(2)
H12_7 H 0.8833 0.2113 0.3619
O6_7 O 0.88620(12) 0.23630(14) 0.42248(16)
C10_7 C 0.86412(19) 0.17259(19) 0.4141(3)
H13_7 H 0.8530 0.1696 0.4459
O7_7 O 0.89874(14) 0.17455(13) 0.4185(2)
C11_7 C 0.8396(2) 0.1387(2) 0.3830(3)
H14_7 H 0.8520 0.1413 0.3522
O8_7 O 0.83480(16) 0.10680(15) 0.4060(2)
C12_7 C 0.8038(2) 0.1373(3) 0.3739(3)
H15_7 H 0.7882 0.1161 0.3535
O9_7 O 0.78622(15) 0.13359(14) 0.41755(19)
C13_7 C 0.9348(2) 0.3604(2) 0.6045(3)
H16_7 H 0.9229 0.3335 0.6007
O10_7 O 0.9574(2) 0.37202(26) 0.6463(2)
C14_7 C 0.9127(2) 0.3107(2) 0.4286(2)
H17_7 H 0.8867 0.2933 0.4360
C15_7 C 0.9345(2) 0.3200(2) 0.4741(3)
H18_7 H 0.9602 0.3390 0.4679
O12_7 O 0.91841(15) 0.33347(17) 0.50765(19)
C16_7 C 0.9333(2) 0.2872(3) 0.4938(3)
H19_7 H 0.9080 0.2701 0.5044
O13_7 O 0.95687(14) 0.29708(18) 0.53334(19)
H20_7 H 0.9669 0.3195 0.5377
C17_7 C 0.94373(19) 0.2688(2) 0.4563(3)
H21_7 H 0.9699 0.2852 0.4487
O14_7 O 0.93991(17) 0.23536(17) 0.4741(2)
H22_7 H 0.9265 0.2182 0.4562
C18_7 C 0.92293(18) 0.2626(2) 0.4124(3)
C19_7 C 0.8615(4) 0.3800(5) 0.5614(4)
H23_7 H 0.8495 0.3765 0.5305
H24_7 H 0.8422 0.3660 0.5846
O15_7 O 0.8760(5) 0.4146(4) 0.5725(4)
H25_7 H 0.8854 0.4181 0.5993
C20_7 C 0.8852(3) 0.3634(4) 0.5587(3)
H26_7 H 0.8707 0.3367 0.5529
C21_7 C 0.9152(6) 0.3442(4) 0.4047(4)
H27_7 H 0.8978 0.3360 0.3782
H28_7 H 0.9076 0.3566 0.4275
C22_7 C 0.9600(3) 0.3796(4) 0.5634(3)
H29_7 H 0.9725 0.4062 0.5687
O17_7 O 0.98657(18) 0.3688(2) 0.5562(2)
C23_7 C 0.9352(3) 0.3697(2) 0.5171(3)
H30_7 H 0.9515 0.3829 0.4900
O18_7 O 0.9119(3) 0.3816(2) 0.5219(2)
C24_7 C 0.7971(3) 0.3619(2) 0.6975(3)
H31_7 H 0.7995 0.3766 0.6693
H32_7 H 0.7719 0.3413 0.6986
C25_7 C 0.8231(2) 0.3479(2) 0.6942(2)
H33_7 H 0.8176 0.3326 0.6654
C26_7 C 0.8214(2) 0.3254(2) 0.7382(3)
H34_7 H 0.8267 0.3400 0.7676
C27_7 C 0.8485(2) 0.31296(19) 0.7308(2)
H35_7 H 0.8417 0.2966 0.7028
O20_7 O 0.84755(13) 0.29349(14) 0.77328(16)
H36_7 H 0.8680 0.3040 0.7861
C28_7 C 0.8853(2) 0.34476(19) 0.7250(2)
H37_7 H 0.8909 0.3594 0.7544
O21_7 O 0.91313(14) 0.33593(13) 0.7197(2)
H38_7 H 0.9041 0.3133 0.7206
C29_7 C 0.8864(2) 0.36856(18) 0.6855(2)
H39_7 H 0.9107 0.3911 0.6853
C30_7 C 0.6770(3) 0.2467(3) 0.7148(4)
H40_7 H 0.6658 0.2253 0.6937
H41_7 H 0.6826 0.2683 0.6958
O23_7 O 0.6512(2) 0.2422(2) 0.7508(4)
C31_7 C 0.7097(2) 0.2506(2) 0.7341(3)
H42_7 H 0.7248 0.2507 0.7070
O24_7 O 0.72914(16) 0.28497(14) 0.7560(2)
C32_7 C 0.7057(2) 0.2211(2) 0.7677(4)
H43_7 H 0.6884 0.2187 0.7931
O25_7 O 0.69117(18) 0.18778(16) 0.7440(3)
C33_7 C 0.7408(2) 0.2291(2) 0.7905(4)
H44_7 H 0.7575 0.2288 0.7660
C34_7 C 0.7582(2) 0.2665(2) 0.8136(3)
H45_7 H 0.7414 0.2661 0.8384
C35_7 C 0.7629(2) 0.2942(2) 0.7765(3)
H46_7 H 0.7743 0.3190 0.7907
O28_7 O 0.78505(15) 0.29338(13) 0.73980(18)
C36_7 C 0.6102(4) 0.1484(3) 0.6404(5)
H47_7 H 0.6120 0.1724 0.6421
H48_7 H 0.6149 0.1442 0.6076
C37_7 C 0.6364(4) 0.1476(4) 0.6709(5)
H49_7 H 0.6613 0.1659 0.6601
C38_7 C 0.6347(3) 0.1109(3) 0.6795(6)
H50_7 H 0.6094 0.0921 0.6880
C39_7 C 0.6609(4) 0.1112(4) 0.7160(8)
H51_7 H 0.6864 0.1267 0.7052
O30_7 O 0.6508(4) 0.0751(3) 0.7132(11)
H52_7 H 0.6623 0.0705 0.7333
C40_7 C 0.6551(3) 0.1246(3) 0.7597(6)
H53_7 H 0.6311 0.1061 0.7730
O31_7 O 0.6827(3) 0.1276(3) 0.7891(6)
H54_7 H 0.6956 0.1211 0.7745
C41_7 C 0.6559(3) 0.1608(2) 0.7545(5)
H55_7 H 0.6492 0.1668 0.7855
C42_7 C 0.6467(3) 0.1093(4) 0.5100(5)
H56_7 H 0.6547 0.0990 0.4846
H57_7 H 0.6199 0.0952 0.5081
O33_7 O 0.6522(9) 0.1387(11) 0.4891(12)
H58_7 H 0.6413 0.1334 0.4632
C43_7 C 0.6517(4) 0.0917(5) 0.5487(6)
H59_7 H 0.6721 0.1119 0.5662
O34_7 O 0.6183(5) 0.0842(5) 0.5776(5)
C44_7 C 0.6609(4) 0.0629(5) 0.5494(6)
H60_7 H 0.6421 0.0415 0.5315
O35_7 O 0.6959(3) 0.0780(3) 0.5244(4)
C45_7 C 0.6639(4) 0.0514(5) 0.5972(6)
H61_7 H 0.6844 0.0719 0.6145
O36_7 O 0.6691(3) 0.0208(4) 0.5948(4)
C46_7 C 0.6259(4) 0.0393(6) 0.6233(6)
H62_7 H 0.6067 0.0181 0.6056
O37_7 O 0.6286(3) 0.0270(4) 0.6672(5)
C47_7 C 0.6172(6) 0.0691(6) 0.6200(8)
H63_7 H 0.5939 0.0621 0.6365
O38_7 O 0.6448(3) 0.1008(3) 0.6377(4)
C48_7 C 0.9068(2) 0.3720(2) 0.6057(3)
H64_7 H 0.9183 0.3983 0.6132
O39_7 O 0.88098(15) 0.35065(14) 0.64149(18)
O41_4 O 0.7108(2) 0.0842(2) 0.2622(3)
O99_4 O 0.6226(2) 0.0401(3) 0.4044(3)
H140_7 H 0.746748 0.0605713 0.53664
H141_7 H 0.851625 0.25931 0.291772
H142_7 H 0.976359 0.365151 0.643502
H143_7 H 0.933446 0.252142 0.385595
H144_7 H 0.644513 0.219941 0.769133
H145_7 H 0.974205 0.342425 0.54983
H148_7 H 0.736705 0.0938986 0.269951
H149_7 H 0.705272 0.071719 0.231378
O93_4 O 0.6482(5) 0.9792(4) 0.4052(4)
O95_4 O 0.6015(5) 0.9730(4) 0.3328(5)
O93_5 O 0.0208(4) 0.6691(6) 0.4052(4)
O95_5 O 0.0270(4) 0.6286(6) 0.3328(5)
C1_8 C 0.8947(5) 0.6113(6) 0.3921(7)
H1_8 H 0.8688 0.6010 0.3998
H2_8 H 0.8999 0.5915 0.3984
O1_5 O 0.8946(5) 0.6126(7) 0.3322(9)
C2_8 C 0.9099(7) 0.6322(8) 0.4257(8)
H3_8 H 0.8913 0.6163 0.4491
C3_8 C 0.9022(4) 0.6583(6) 0.4296(7)
H4_8 H 0.9195 0.6780 0.4082
C4_8 C 0.9127(5) 0.6701(9) 0.4712(9)
H5_8 H 0.8915 0.6538 0.4912
O2_8 O 0.9172(4) 0.7044(7) 0.4792(5)
H6_8 H 0.9328 0.7194 0.4606
C5_8 C 0.9434(4) 0.6796(6) 0.5009(5)
H7_8 H 0.9628 0.7009 0.4838
C6_8 C 0.9566(6) 0.6560(7) 0.4995(8)
H8_8 H 0.9823 0.6644 0.5085
O3_8 O 0.9389(3) 0.6315(5) 0.4495(4)
C7_8 C 0.7676(3) 0.6027(4) 0.3473(5)
H9_8 H 0.7724 0.5826 0.3414
H10_8 H 0.7447 0.5924 0.3653
O4_8 O 0.7619(2) 0.6129(4) 0.3071(3)
C8_8 C 0.7971(2) 0.6295(3) 0.3781(3)
H11_8 H 0.7978 0.6171 0.4075
O5_8 O 0.83081(17) 0.64113(24) 0.35151(19)
C9_8 C 0.7938(2) 0.66204(28) 0.3910(2)
H12_8 H 0.7887 0.6719 0.3619
O6_8 O 0.76370(14) 0.64989(18) 0.42248(16)
C10_8 C 0.82741(19) 0.69152(27) 0.4141(3)
H13_8 H 0.8304 0.6833 0.4459
O7_8 O 0.82545(13) 0.72418(19) 0.4185(2)
C11_8 C 0.8613(2) 0.7008(3) 0.3830(3)
H14_8 H 0.8587 0.7106 0.3522
O8_8 O 0.89320(15) 0.72799(22) 0.4060(2)
C12_8 C 0.8627(3) 0.6664(4) 0.3739(3)
H15_8 H 0.8839 0.6720 0.3535
O9_8 O 0.86641(14) 0.65262(21) 0.41755(19)
C13_8 C 0.6396(2) 0.5743(3) 0.6045(3)
H16_8 H 0.6665 0.5893 0.6007
O10_8 O 0.62798(26) 0.58534(33) 0.6463(2)
C14_8 C 0.6893(2) 0.6019(3) 0.4286(2)
H17_8 H 0.7067 0.5933 0.4360
C15_8 C 0.6800(2) 0.6144(3) 0.4741(3)
H18_8 H 0.6610 0.6211 0.4679
O12_8 O 0.66653(17) 0.58493(23) 0.50765(19)
C16_8 C 0.7128(3) 0.6460(4) 0.4938(3)
H19_8 H 0.7299 0.6378 0.5044
O13_8 O 0.70292(18) 0.65978(23) 0.53334(19)
H20_8 H 0.6805 0.6473 0.5377
C17_8 C 0.7312(2) 0.67489(28) 0.4563(3)
H21_8 H 0.7148 0.6846 0.4487
O14_8 O 0.76464(17) 0.70454(24) 0.4741(2)
H22_8 H 0.7818 0.7082 0.4562
C18_8 C 0.7374(2) 0.66029(27) 0.4124(3)
C19_8 C 0.6200(5) 0.4814(6) 0.5614(4)
H23_8 H 0.6235 0.4729 0.5305
H24_8 H 0.6340 0.4761 0.5846
O15_8 O 0.5854(4) 0.4613(6) 0.5725(4)
H25_8 H 0.5819 0.4672 0.5993
C20_8 C 0.6366(4) 0.5217(5) 0.5587(3)
H26_8 H 0.6633 0.5339 0.5529
C21_8 C 0.6558(4) 0.5709(7) 0.4047(4)
H27_8 H 0.6640 0.5617 0.3782
H28_8 H 0.6434 0.5509 0.4275
C22_8 C 0.6204(4) 0.5803(5) 0.5634(3)
H29_8 H 0.5938 0.5662 0.5687
O17_8 O 0.6312(2) 0.61773(27) 0.5562(2)
C23_8 C 0.6303(2) 0.5654(4) 0.5171(3)
H30_8 H 0.6171 0.5685 0.4900
O18_8 O 0.6184(2) 0.5302(4) 0.5219(2)
C24_8 C 0.6381(2) 0.4351(4) 0.6975(3)
H31_8 H 0.6234 0.4228 0.6693
H32_8 H 0.6587 0.4305 0.6986
C25_8 C 0.6521(2) 0.4751(3) 0.6942(2)
H33_8 H 0.6674 0.4849 0.6654
C26_8 C 0.6746(2) 0.4959(3) 0.7382(3)
H34_8 H 0.6600 0.4866 0.7676
C27_8 C 0.68704(19) 0.53550(28) 0.7308(2)
H35_8 H 0.7034 0.5450 0.7028
O20_8 O 0.70651(14) 0.55405(19) 0.77328(16)
H36_8 H 0.6960 0.5639 0.7861
C28_8 C 0.65524(19) 0.54050(28) 0.7250(2)
H37_8 H 0.6406 0.5314 0.7544
O21_8 O 0.66407(13) 0.57719(19) 0.7197(2)
H38_8 H 0.6867 0.5907 0.7206
C29_8 C 0.63144(18) 0.51780(27) 0.6855(2)
H39_8 H 0.6089 0.5195 0.6853
C30_8 C 0.7533(3) 0.4302(4) 0.7148(4)
H40_8 H 0.7747 0.4404 0.6937
H41_8 H 0.7317 0.4142 0.6958
O23_8 O 0.7578(2) 0.4089(3) 0.7508(4)
C31_8 C 0.7494(2) 0.4590(3) 0.7341(3)
H42_8 H 0.7493 0.4740 0.7070
O24_8 O 0.71503(14) 0.44416(21) 0.7560(2)
C32_8 C 0.7789(2) 0.4845(3) 0.7677(4)
H43_8 H 0.7813 0.4696 0.7931
O25_8 O 0.81222(16) 0.50338(24) 0.7440(3)
C33_8 C 0.7709(2) 0.5116(3) 0.7905(4)
H44_8 H 0.7712 0.5286 0.7660
C34_8 C 0.7335(2) 0.4916(3) 0.8136(3)
H45_8 H 0.7339 0.4752 0.8384
C35_8 C 0.7058(2) 0.4686(3) 0.7765(3)
H46_8 H 0.6810 0.4552 0.7907
O28_8 O 0.70662(13) 0.49166(20) 0.73980(18)
C36_8 C 0.8516(3) 0.4617(5) 0.6404(5)
H47_8 H 0.8276 0.4395 0.6421
H48_8 H 0.8558 0.4706 0.6076
C37_8 C 0.8524(4) 0.4887(6) 0.6709(5)
H49_8 H 0.8341 0.4953 0.6601
C38_8 C 0.8891(3) 0.5237(4) 0.6795(6)
H50_8 H 0.9079 0.5172 0.6880
C39_8 C 0.8888(4) 0.5496(6) 0.7160(8)
H51_8 H 0.8733 0.5596 0.7052
O30_8 O 0.9249(3) 0.5756(5) 0.7132(11)
H52_8 H 0.9295 0.5917 0.7333
C40_8 C 0.8754(3) 0.5304(4) 0.7597(6)
H53_8 H 0.8939 0.5249 0.7730
O31_8 O 0.8724(3) 0.5550(4) 0.7891(6)
H54_8 H 0.8789 0.5744 0.7745
C41_8 C 0.8392(2) 0.4950(4) 0.7545(5)
H55_8 H 0.8332 0.4823 0.7855
C42_8 C 0.8907(4) 0.5373(5) 0.5100(5)
H56_8 H 0.9010 0.5556 0.4846
H57_8 H 0.9048 0.5246 0.5081
O33_8 O 0.8613(11) 0.5134(14) 0.4891(12)
H58_8 H 0.8666 0.5078 0.4632
C43_8 C 0.9083(5) 0.5599(6) 0.5487(6)
H59_8 H 0.8881 0.5601 0.5662
O34_8 O 0.9158(5) 0.5340(7) 0.5776(5)
C44_8 C 0.9371(5) 0.5979(6) 0.5494(6)
H60_8 H 0.9585 0.6005 0.5315
O35_8 O 0.9220(3) 0.6178(4) 0.5244(4)
C45_8 C 0.9486(5) 0.6124(6) 0.5972(6)
H61_8 H 0.9281 0.6124 0.6145
O36_8 O 0.9792(4) 0.6482(5) 0.5948(4)
C46_8 C 0.9607(6) 0.5865(7) 0.6233(6)
H62_8 H 0.9819 0.5885 0.6056
O37_8 O 0.9730(4) 0.6015(5) 0.6672(5)
C47_8 C 0.9309(6) 0.5480(8) 0.6200(8)
H63_8 H 0.9379 0.5317 0.6365
O38_8 O 0.8992(3) 0.5439(4) 0.6377(4)
C48_8 C 0.6280(2) 0.5347(3) 0.6057(3)
H64_8 H 0.6017 0.5199 0.6132
O39_8 O 0.64935(14) 0.53032(21) 0.64149(18)
O41_5 O 0.9158(2) 0.6265(3) 0.2622(3)
O99_5 O 0.9599(3) 0.5824(4) 0.4044(3)
H140_8 H 0.939429 0.686177 0.53664
H141_8 H 0.74069 0.592315 0.291772
H142_8 H 0.634849 0.611208 0.643502
H143_8 H 0.747858 0.681305 0.385595
H144_8 H 0.780059 0.424572 0.769133
H145_8 H 0.657575 0.63178 0.54983
H148_8 H 0.906101 0.642806 0.269951
H149_8 H 0.928281 0.633553 0.231378
C1_9 C 0.3887(6) 0.2833(4) 0.3921(7)
H1_9 H 0.3990 0.2677 0.3998
H2_9 H 0.4085 0.3083 0.3984
O1_6 O 0.3874(7) 0.2819(5) 0.3322(9)
C2_9 C 0.3678(8) 0.2776(4) 0.4257(8)
H3_9 H 0.3837 0.2749 0.4491
C3_9 C 0.3417(6) 0.2438(4) 0.4296(7)
H4_9 H 0.3220 0.2414 0.4082
C4_9 C 0.3299(9) 0.2425(7) 0.4712(9)
H5_9 H 0.3462 0.2376 0.4912
O2_9 O 0.2956(7) 0.2127(6) 0.4792(5)
H6_9 H 0.2806 0.2133 0.4606
C5_9 C 0.3204(6) 0.2637(4) 0.5009(5)
H7_9 H 0.2991 0.2618 0.4838
C6_9 C 0.3440(7) 0.3005(4) 0.4995(8)
H8_9 H 0.3356 0.3178 0.5085
O3_9 O 0.3685(5) 0.3073(4) 0.4495(4)
C7_9 C 0.3973(4) 0.1648(3) 0.3473(5)
H9_9 H 0.4174 0.1897 0.3414
H10_9 H 0.4076 0.1522 0.3653
O4_9 O 0.3871(4) 0.1489(3) 0.3071(3)
C8_9 C 0.3705(3) 0.1675(2) 0.3781(3)
H11_9 H 0.3829 0.1806 0.4075
O5_9 O 0.35887(24) 0.18967(17) 0.35151(19)
C9_9 C 0.33796(28) 0.13172(19) 0.3910(2)
H12_9 H 0.3281 0.1167 0.3619
O6_9 O 0.35011(18) 0.11380(12) 0.42248(16)
C10_9 C 0.30848(27) 0.13588(19) 0.4141(3)
H13_9 H 0.3167 0.1470 0.4459
O7_9 O 0.27582(19) 0.10126(14) 0.4185(2)
C11_9 C 0.2992(3) 0.1604(2) 0.3830(3)
H14_9 H 0.2894 0.1480 0.3522
O8_9 O 0.27201(22) 0.16520(16) 0.4060(2)
C12_9 C 0.3336(4) 0.1962(2) 0.3739(3)
H15_9 H 0.3280 0.2118 0.3535
O9_9 O 0.34738(21) 0.21378(15) 0.41755(19)
C13_9 C 0.4257(3) 0.0652(2) 0.6045(3)
H16_9 H 0.4107 0.0771 0.6007
O10_9 O 0.41466(33) 0.0426(2) 0.6463(2)
C14_9 C 0.3981(3) 0.0873(2) 0.4286(2)
H17_9 H 0.4067 0.1133 0.4360
C15_9 C 0.3856(3) 0.0655(2) 0.4741(3)
H18_9 H 0.3789 0.0398 0.4679
O12_9 O 0.41507(23) 0.08159(15) 0.50765(19)
C16_9 C 0.3540(4) 0.0667(2) 0.4938(3)
H19_9 H 0.3622 0.0920 0.5044
O13_9 O 0.34022(23) 0.04313(14) 0.53334(19)
H20_9 H 0.3527 0.0331 0.5377
C17_9 C 0.32511(28) 0.05627(19) 0.4563(3)
H21_9 H 0.3154 0.0301 0.4487
O14_9 O 0.29546(24) 0.06009(17) 0.4741(2)
H22_9 H 0.2918 0.0735 0.4562
C18_9 C 0.33971(27) 0.07707(18) 0.4124(3)
C19_9 C 0.5186(6) 0.1385(4) 0.5614(4)
H23_9 H 0.5271 0.1505 0.5305
H24_9 H 0.5239 0.1578 0.5846
O15_9 O 0.5387(6) 0.1240(5) 0.5725(4)
H25_9 H 0.5328 0.1146 0.5993
C20_9 C 0.4783(5) 0.1148(3) 0.5587(3)
H26_9 H 0.4661 0.1293 0.5529
C21_9 C 0.4291(7) 0.0848(6) 0.4047(4)
H27_9 H 0.4383 0.1022 0.3782
H28_9 H 0.4491 0.0924 0.4275
C22_9 C 0.4197(5) 0.0400(3) 0.5634(3)
H29_9 H 0.4338 0.0275 0.5687
O17_9 O 0.38227(27) 0.01343(18) 0.5562(2)
C23_9 C 0.4346(4) 0.0648(3) 0.5171(3)
H30_9 H 0.4315 0.0485 0.4900
O18_9 O 0.4698(4) 0.0881(3) 0.5219(2)
C24_9 C 0.5649(4) 0.2029(3) 0.6975(3)
H31_9 H 0.5772 0.2005 0.6693
H32_9 H 0.5695 0.2281 0.6986
C25_9 C 0.5249(3) 0.1769(2) 0.6942(2)
H33_9 H 0.5151 0.1824 0.6654
C26_9 C 0.5041(3) 0.1786(2) 0.7382(3)
H34_9 H 0.5134 0.1733 0.7676
C27_9 C 0.46450(28) 0.1515(2) 0.7308(2)
H35_9 H 0.4550 0.1583 0.7028
O20_9 O 0.44595(19) 0.15245(13) 0.77328(16)
H36_9 H 0.4361 0.1320 0.7861
C28_9 C 0.45950(28) 0.1147(2) 0.7250(2)
H37_9 H 0.4686 0.1091 0.7544
O21_9 O 0.42281(19) 0.08687(14) 0.7197(2)
H38_9 H 0.4093 0.0959 0.7206
C29_9 C 0.48220(27) 0.1136(2) 0.6855(2)
H39_9 H 0.4805 0.0893 0.6853
C30_9 C 0.5698(4) 0.3230(3) 0.7148(4)
H40_9 H 0.5596 0.3342 0.6937
H41_9 H 0.5858 0.3174 0.6958
O23_9 O 0.5911(3) 0.3488(2) 0.7508(4)
C31_9 C 0.5410(3) 0.2903(2) 0.7341(3)
H42_9 H 0.5260 0.2752 0.7070
O24_9 O 0.55584(21) 0.27086(16) 0.7560(2)
C32_9 C 0.5155(3) 0.2943(2) 0.7677(4)
H43_9 H 0.5304 0.3116 0.7931
O25_9 O 0.49662(24) 0.30883(18) 0.7440(3)
C33_9 C 0.4884(3) 0.2592(2) 0.7905(4)
H44_9 H 0.4714 0.2425 0.7660
C34_9 C 0.5084(3) 0.2418(2) 0.8136(3)
H45_9 H 0.5248 0.2586 0.8384
C35_9 C 0.5314(3) 0.2371(2) 0.7765(3)
H46_9 H 0.5448 0.2257 0.7907
O28_9 O 0.50834(20) 0.21495(15) 0.73980(18)
C36_9 C 0.5383(5) 0.3898(4) 0.6404(5)
H47_9 H 0.5605 0.3880 0.6421
H48_9 H 0.5294 0.3851 0.6076
C37_9 C 0.5113(6) 0.3636(4) 0.6709(5)
H49_9 H 0.5047 0.3387 0.6601
C38_9 C 0.4763(4) 0.3653(3) 0.6795(6)
H50_9 H 0.4828 0.3906 0.6880
C39_9 C 0.4504(6) 0.3391(4) 0.7160(8)
H51_9 H 0.4404 0.3136 0.7052
O30_9 O 0.4244(5) 0.3492(4) 0.7132(11)
H52_9 H 0.4083 0.3377 0.7333
C40_9 C 0.4696(4) 0.3449(3) 0.7597(6)
H53_9 H 0.4751 0.3689 0.7730
O31_9 O 0.4450(4) 0.3173(3) 0.7891(6)
H54_9 H 0.4256 0.3044 0.7745
C41_9 C 0.5050(4) 0.3441(3) 0.7545(5)
H55_9 H 0.5177 0.3508 0.7855
C42_9 C 0.4627(5) 0.3533(3) 0.5100(5)
H56_9 H 0.4444 0.3453 0.4846
H57_9 H 0.4754 0.3801 0.5081
O33_9 O 0.4866(14) 0.3478(9) 0.4891(12)
H58_9 H 0.4922 0.3587 0.4632
C43_9 C 0.4401(6) 0.3483(4) 0.5487(6)
H59_9 H 0.4399 0.3279 0.5662
O34_9 O 0.4660(7) 0.3817(5) 0.5776(5)
C44_9 C 0.4021(6) 0.3391(4) 0.5494(6)
H60_9 H 0.3995 0.3579 0.5315
O35_9 O 0.3822(4) 0.3041(3) 0.5244(4)
C45_9 C 0.3876(6) 0.3361(4) 0.5972(6)
H61_9 H 0.3876 0.3156 0.6145
O36_9 O 0.3518(5) 0.3309(3) 0.5948(4)
C46_9 C 0.4135(7) 0.3741(4) 0.6233(6)
H62_9 H 0.4115 0.3933 0.6056
O37_9 O 0.3985(5) 0.3714(3) 0.6672(5)
C47_9 C 0.4520(8) 0.3828(6) 0.6200(8)
H63_9 H 0.4683 0.4061 0.6365
O38_9 O 0.4561(4) 0.3552(3) 0.6377(4)
C48_9 C 0.4653(3) 0.0932(2) 0.6057(3)
H64_9 H 0.4801 0.0817 0.6132
O39_9 O 0.46968(21) 0.11902(15) 0.64149(18)
O41_6 O 0.3735(3) 0.2892(2) 0.2622(3)
O93_6 O 0.3309(6) 0.3518(5) 0.4052(4)
O95_6 O 0.3714(6) 0.3985(5) 0.3328(5)
O99_6 O 0.4176(4) 0.3774(2) 0.4044(3)
H140_9 H 0.313823 0.253252 0.53664
H141_9 H 0.407685 0.148375 0.291772
H142_9 H 0.388792 0.023641 0.643502
H143_9 H 0.318695 0.0665536 0.385595
H144_9 H 0.575428 0.355487 0.769133
H145_9 H 0.36822 0.0257952 0.54983
H148_9 H 0.357194 0.263295 0.269951
H149_9 H 0.366447 0.294728 0.231378
C49_7 C 0.2833(4) 0.3887(6) 0.6079(7)
H65_7 H 0.2677 0.3990 0.6002
H66_7 H 0.3083 0.4085 0.6016
O42_7 O 0.2819(5) 0.3874(7) 0.6678(9)
C50_7 C 0.2776(4) 0.3678(8) 0.5743(8)
H67_7 H 0.2749 0.3837 0.5509
C51_7 C 0.2438(4) 0.3417(6) 0.5704(7)
H68_7 H 0.2414 0.3220 0.5918
C52_7 C 0.2425(7) 0.3299(9) 0.5288(9)
H69_7 H 0.2376 0.3462 0.5088
O44_7 O 0.2127(6) 0.2956(7) 0.5208(5)
H70_7 H 0.2133 0.2806 0.5394
C53_7 C 0.2637(4) 0.3204(6) 0.4991(5)
H71_7 H 0.2618 0.2991 0.5162
C54_7 C 0.3005(4) 0.3440(7) 0.5005(8)
H72_7 H 0.3178 0.3356 0.4915
O45_7 O 0.3073(4) 0.3685(5) 0.5505(4)
C55_7 C 0.1648(3) 0.3973(4) 0.6527(5)
H73_7 H 0.1897 0.4174 0.6586
H74_7 H 0.1522 0.4076 0.6347
O46_7 O 0.1489(3) 0.3871(4) 0.6929(3)
C56_7 C 0.1675(2) 0.3705(3) 0.6219(3)
H75_7 H 0.1806 0.3829 0.5925
O47_7 O 0.18967(17) 0.35887(24) 0.64849(19)
C57_7 C 0.13172(19) 0.33796(28) 0.6090(2)
H76_7 H 0.1167 0.3281 0.6381
O48_7 O 0.11380(12) 0.35011(18) 0.57752(16)
C58_7 C 0.13588(19) 0.30848(27) 0.5859(3)
H77_7 H 0.1470 0.3167 0.5541
O49_7 O 0.10126(14) 0.27582(19) 0.5815(2)
C59_7 C 0.1604(2) 0.2992(3) 0.6170(3)
H78_7 H 0.1480 0.2894 0.6478
O50_7 O 0.16520(16) 0.27201(22) 0.5940(2)
C60_7 C 0.1962(2) 0.3336(4) 0.6261(3)
H79_7 H 0.2118 0.3280 0.6465
O51_7 O 0.21378(15) 0.34738(21) 0.58245(19)
C61_7 C 0.0652(2) 0.4257(3) 0.3955(3)
H80_7 H 0.0771 0.4107 0.3993
O52_7 O 0.0426(2) 0.41466(33) 0.3537(2)
C62_7 C 0.0873(2) 0.3981(3) 0.5714(2)
H81_7 H 0.1133 0.4067 0.5640
C63_7 C 0.0655(2) 0.3856(3) 0.5259(3)
H82_7 H 0.0398 0.3789 0.5321
O56_7 O 0.08159(15) 0.41507(23) 0.49235(19)
C64_7 C 0.0667(2) 0.3540(4) 0.5062(3)
H83_7 H 0.0920 0.3622 0.4956
O57_7 O 0.04313(14) 0.34022(23) 0.46666(19)
H84_7 H 0.0331 0.3527 0.4623
C65_7 C 0.05627(19) 0.32511(28) 0.5437(3)
H85_7 H 0.0301 0.3154 0.5513
O58_7 O 0.06009(17) 0.29546(24) 0.5259(2)
H86_7 H 0.0735 0.2918 0.5438
C66_7 C 0.07707(18) 0.33971(27) 0.5876(3)
C67_7 C 0.1385(4) 0.5186(6) 0.4386(4)
H87_7 H 0.1505 0.5271 0.4695
H88_7 H 0.1578 0.5239 0.4154
O59_7 O 0.1240(5) 0.5387(6) 0.4275(4)
H89_7 H 0.1146 0.5328 0.4007
C68_7 C 0.1148(3) 0.4783(5) 0.4413(3)
H90_7 H 0.1293 0.4661 0.4471
C69_7 C 0.0848(6) 0.4291(7) 0.5953(4)
H91_7 H 0.1022 0.4383 0.6218
H92_7 H 0.0924 0.4491 0.5725
C70_7 C 0.0400(3) 0.4197(5) 0.4366(3)
H93_7 H 0.0275 0.4338 0.4313
O63_7 O 0.01343(18) 0.38227(27) 0.4438(2)
C71_7 C 0.0648(3) 0.4346(4) 0.4829(3)
H94_7 H 0.0485 0.4315 0.5100
O64_7 O 0.0881(3) 0.4698(4) 0.4781(2)
C72_7 C 0.2029(3) 0.5649(4) 0.3025(3)
H95_7 H 0.2005 0.5772 0.3307
H96_7 H 0.2281 0.5695 0.3014
C73_7 C 0.1769(2) 0.5249(3) 0.3058(2)
H97_7 H 0.1824 0.5151 0.3346
C74_7 C 0.1786(2) 0.5041(3) 0.2618(3)
H98_7 H 0.1733 0.5134 0.2324
C75_7 C 0.1515(2) 0.46450(28) 0.2692(2)
H99_7 H 0.1583 0.4550 0.2972
O68_7 O 0.15245(13) 0.44595(19) 0.22672(16)
H100_7 H 0.1320 0.4361 0.2139
C76_7 C 0.1147(2) 0.45950(28) 0.2750(2)
H101_7 H 0.1091 0.4686 0.2456
O69_7 O 0.08687(14) 0.42281(19) 0.2803(2)
H102_7 H 0.0959 0.4093 0.2794
C77_7 C 0.1136(2) 0.48220(27) 0.3145(2)
H103_7 H 0.0893 0.4805 0.3147
C78_7 C 0.3230(3) 0.5698(4) 0.2852(4)
H104_7 H 0.3342 0.5596 0.3063
H105_7 H 0.3174 0.5858 0.3042
O73_7 O 0.3488(2) 0.5911(3) 0.2492(4)
C79_7 C 0.2903(2) 0.5410(3) 0.2659(3)
H106_7 H 0.2752 0.5260 0.2930
O74_7 O 0.27086(16) 0.55584(21) 0.2440(2)
C80_7 C 0.2943(2) 0.5155(3) 0.2323(4)
H107_7 H 0.3116 0.5304 0.2069
O75_7 O 0.30883(18) 0.49662(24) 0.2560(3)
C81_7 C 0.2592(2) 0.4884(3) 0.2095(4)
H108_7 H 0.2425 0.4714 0.2340
C82_7 C 0.2418(2) 0.5084(3) 0.1864(3)
H109_7 H 0.2586 0.5248 0.1616
C83_7 C 0.2371(2) 0.5314(3) 0.2235(3)
H110_7 H 0.2257 0.5448 0.2093
O82_7 O 0.21495(15) 0.50834(20) 0.26020(18)
C84_7 C 0.3898(4) 0.5383(5) 0.3596(5)
H111_7 H 0.3880 0.5605 0.3579
H112_7 H 0.3851 0.5294 0.3924
C85_7 C 0.3636(4) 0.5113(6) 0.3291(5)
H113_7 H 0.3387 0.5047 0.3399
C86_7 C 0.3653(3) 0.4763(4) 0.3205(6)
H114_7 H 0.3906 0.4828 0.3120
C87_7 C 0.3391(4) 0.4504(6) 0.2840(8)
H115_7 H 0.3136 0.4404 0.2948
O85_7 O 0.3492(4) 0.4244(5) 0.2868(11)
H116_7 H 0.3377 0.4083 0.2667
C88_7 C 0.3449(3) 0.4696(4) 0.2403(6)
H117_7 H 0.3689 0.4751 0.2270
O86_7 O 0.3173(3) 0.4450(4) 0.2109(6)
H118_7 H 0.3044 0.4256 0.2255
C89_7 C 0.3441(3) 0.5050(4) 0.2455(5)
H119_7 H 0.3508 0.5177 0.2145
C90_7 C 0.3533(3) 0.4627(5) 0.4900(5)
H120_7 H 0.3453 0.4444 0.5154
H121_7 H 0.3801 0.4754 0.4919
O89_7 O 0.3478(9) 0.4866(14) 0.5109(12)
H122_7 H 0.3587 0.4922 0.5368
C91_7 C 0.3483(4) 0.4401(6) 0.4513(6)
H123_7 H 0.3279 0.4399 0.4338
O90_7 O 0.3817(5) 0.4660(7) 0.4224(5)
C92_7 C 0.3391(4) 0.4021(6) 0.4506(6)
H124_7 H 0.3579 0.3995 0.4685
O91_7 O 0.3041(3) 0.3822(4) 0.4756(4)
C93_7 C 0.3361(4) 0.3876(6) 0.4028(6)
H125_7 H 0.3156 0.3876 0.3855
C94_7 C 0.3741(4) 0.4135(7) 0.3767(6)
H126_7 H 0.3933 0.4115 0.3944
C95_7 C 0.3828(6) 0.4520(8) 0.3800(8)
H127_7 H 0.4061 0.4683 0.3635
O96_7 O 0.3552(3) 0.4561(4) 0.3623(4)
C96_7 C 0.0932(2) 0.4653(3) 0.3943(3)
H128_7 H 0.0817 0.4801 0.3868
O97_7 O 0.11902(15) 0.46968(21) 0.35851(18)
H135_7 H 0.023641 0.388792 0.356498
H136_7 H 0.0665536 0.318695 0.614405
H137_7 H 0.0257952 0.36822 0.45017
H138_7 H 0.355487 0.575428 0.230867
H146_7 H 0.253252 0.313823 0.46336
H147_7 H 0.148375 0.407685 0.708228
H148_10 H 0.427232 0.403372 0.396716
H149_10 H 0.405052 0.371938 0.435288
C49_8 C 0.1053(7) 0.7167(4) 0.6079(7)
H65_8 H 0.1312 0.7323 0.6002
H66_8 H 0.1001 0.6917 0.6016
O42_8 O 0.1054(9) 0.7181(5) 0.6678(9)
C50_8 C 0.0901(9) 0.7224(4) 0.5743(8)
H67_8 H 0.1087 0.7251 0.5509
C51_8 C 0.0978(7) 0.7562(4) 0.5704(7)
H68_8 H 0.0805 0.7586 0.5918
C52_8 C 0.0873(11) 0.7575(7) 0.5288(9)
H69_8 H 0.1085 0.7624 0.5088
O44_8 O 0.0828(9) 0.7873(6) 0.5208(5)
H70_8 H 0.0672 0.7867 0.5394
C53_8 C 0.0566(7) 0.7363(4) 0.4991(5)
H71_8 H 0.0372 0.7382 0.5162
C54_8 C 0.0434(8) 0.6995(4) 0.5005(8)
H72_8 H 0.0177 0.6822 0.4915
O45_8 O 0.0611(6) 0.6927(4) 0.5505(4)
C55_8 C 0.2324(5) 0.8352(3) 0.6527(5)
H73_8 H 0.2276 0.8103 0.6586
H74_8 H 0.2553 0.8478 0.6347
O46_8 O 0.2381(5) 0.8511(3) 0.6929(3)
C56_8 C 0.2029(4) 0.8325(2) 0.6219(3)
H75_8 H 0.2022 0.8194 0.5925
O47_8 O 0.16919(29) 0.81033(17) 0.64849(19)
C57_8 C 0.20623(34) 0.86828(19) 0.6090(2)
H76_8 H 0.2113 0.8833 0.6381
O48_8 O 0.23630(22) 0.88620(12) 0.57752(16)
C58_8 C 0.17259(33) 0.86412(19) 0.5859(3)
H77_8 H 0.1696 0.8530 0.5541
O49_8 O 0.17455(24) 0.89874(14) 0.5815(2)
C59_8 C 0.1387(4) 0.8396(2) 0.6170(3)
H78_8 H 0.1413 0.8520 0.6478
O50_8 O 0.10680(27) 0.83480(16) 0.5940(2)
C60_8 C 0.1373(4) 0.8038(2) 0.6261(3)
H79_8 H 0.1161 0.7882 0.6465
O51_8 O 0.13359(26) 0.78622(15) 0.58245(19)
C61_8 C 0.3604(4) 0.9348(2) 0.3955(3)
H80_8 H 0.3335 0.9229 0.3993
O52_8 O 0.37202(39) 0.9574(2) 0.3537(2)
C62_8 C 0.3107(4) 0.9127(2) 0.5714(2)
H81_8 H 0.2933 0.8867 0.5640
C63_8 C 0.3200(4) 0.9345(2) 0.5259(3)
H82_8 H 0.3390 0.9602 0.5321
O56_8 O 0.33347(27) 0.91841(15) 0.49235(19)
C64_8 C 0.2872(4) 0.9333(2) 0.5062(3)
H83_8 H 0.2701 0.9080 0.4956
O57_8 O 0.29708(27) 0.95687(14) 0.46666(19)
H84_8 H 0.3195 0.9669 0.4623
C65_8 C 0.26883(34) 0.94373(19) 0.5437(3)
H85_8 H 0.2852 0.9699 0.5513
O58_8 O 0.23536(29) 0.93991(17) 0.5259(2)
H86_8 H 0.2182 0.9265 0.5438
C66_8 C 0.26263(32) 0.92293(18) 0.5876(3)
C67_8 C 0.3800(7) 0.8615(4) 0.4386(4)
H87_8 H 0.3765 0.8495 0.4695
H88_8 H 0.3660 0.8422 0.4154
O59_8 O 0.4146(8) 0.8760(5) 0.4275(4)
H89_8 H 0.4181 0.8854 0.4007
C68_8 C 0.3634(6) 0.8852(3) 0.4413(3)
H90_8 H 0.3367 0.8707 0.4471
C69_8 C 0.3442(9) 0.9152(6) 0.5953(4)
H91_8 H 0.3360 0.8978 0.6218
H92_8 H 0.3566 0.9076 0.5725
C70_8 C 0.3796(6) 0.9600(3) 0.4366(3)
H93_8 H 0.4062 0.9725 0.4313
O63_8 O 0.36883(32) 0.98657(18) 0.4438(2)
C71_8 C 0.3697(5) 0.9352(3) 0.4829(3)
H94_8 H 0.3829 0.9515 0.5100
O64_8 O 0.3816(5) 0.9119(3) 0.4781(2)
C72_8 C 0.3619(5) 0.7971(3) 0.3025(3)
H95_8 H 0.3766 0.7995 0.3307
H96_8 H 0.3413 0.7719 0.3014
C73_8 C 0.3479(4) 0.8231(2) 0.3058(2)
H97_8 H 0.3326 0.8176 0.3346
C74_8 C 0.3254(4) 0.8214(2) 0.2618(3)
H98_8 H 0.3400 0.8267 0.2324
C75_8 C 0.31296(34) 0.8485(2) 0.2692(2)
H99_8 H 0.2966 0.8417 0.2972
O68_8 O 0.29349(23) 0.84755(13) 0.22672(16)
H100_8 H 0.3040 0.8680 0.2139
C76_8 C 0.34476(34) 0.8853(2) 0.2750(2)
H101_8 H 0.3594 0.8909 0.2456
O69_8 O 0.33593(24) 0.91313(14) 0.2803(2)
H102_8 H 0.3133 0.9041 0.2794
C77_8 C 0.36856(34) 0.8864(2) 0.3145(2)
H103_8 H 0.3911 0.9107 0.3147
C78_8 C 0.2467(5) 0.6770(3) 0.2852(4)
H104_8 H 0.2253 0.6658 0.3063
H105_8 H 0.2683 0.6826 0.3042
O73_8 O 0.2422(4) 0.6512(2) 0.2492(4)
C79_8 C 0.2506(4) 0.7097(2) 0.2659(3)
H106_8 H 0.2507 0.7248 0.2930
O74_8 O 0.28497(26) 0.72914(16) 0.2440(2)
C80_8 C 0.2211(4) 0.7057(2) 0.2323(4)
H107_8 H 0.2187 0.6884 0.2069
O75_8 O 0.18778(30) 0.69117(18) 0.2560(3)
C81_8 C 0.2291(4) 0.7408(2) 0.2095(4)
H108_8 H 0.2288 0.7575 0.2340
C82_8 C 0.2665(4) 0.7582(2) 0.1864(3)
H109_8 H 0.2661 0.7414 0.1616
C83_8 C 0.2942(4) 0.7629(2) 0.2235(3)
H110_8 H 0.3190 0.7743 0.2093
O82_8 O 0.29338(25) 0.78505(15) 0.26020(18)
C84_8 C 0.1484(6) 0.6102(4) 0.3596(5)
H111_8 H 0.1724 0.6120 0.3579
H112_8 H 0.1442 0.6149 0.3924
C85_8 C 0.1476(7) 0.6364(4) 0.3291(5)
H113_8 H 0.1659 0.6613 0.3399
C86_8 C 0.1109(5) 0.6347(3) 0.3205(6)
H114_8 H 0.0921 0.6094 0.3120
C87_8 C 0.1112(7) 0.6609(4) 0.2840(8)
H115_8 H 0.1267 0.6864 0.2948
O85_8 O 0.0751(6) 0.6508(4) 0.2868(11)
H116_8 H 0.0705 0.6623 0.2667
C88_8 C 0.1246(5) 0.6551(3) 0.2403(6)
H117_8 H 0.1061 0.6311 0.2270
O86_8 O 0.1276(5) 0.6827(3) 0.2109(6)
H118_8 H 0.1211 0.6956 0.2255
C89_8 C 0.1608(5) 0.6559(3) 0.2455(5)
H119_8 H 0.1668 0.6492 0.2145
C90_8 C 0.1093(6) 0.6467(3) 0.4900(5)
H120_8 H 0.0990 0.6547 0.5154
H121_8 H 0.0952 0.6199 0.4919
O89_8 O 0.1387(17) 0.6522(9) 0.5109(12)
H122_8 H 0.1334 0.6413 0.5368
C91_8 C 0.0917(7) 0.6517(4) 0.4513(6)
H123_8 H 0.1119 0.6721 0.4338
O90_8 O 0.0842(9) 0.6183(5) 0.4224(5)
C92_8 C 0.0629(7) 0.6609(4) 0.4506(6)
H124_8 H 0.0415 0.6421 0.4685
O91_8 O 0.0780(5) 0.6959(3) 0.4756(4)
C93_8 C 0.0514(7) 0.6639(4) 0.4028(6)
H125_8 H 0.0719 0.6844 0.3855
C94_8 C 0.0393(8) 0.6259(4) 0.3767(6)
H126_8 H 0.0181 0.6067 0.3944
C95_8 C 0.0691(10) 0.6172(6) 0.3800(8)
H127_8 H 0.0621 0.5939 0.3635
O96_8 O 0.1008(5) 0.6448(3) 0.3623(4)
C96_8 C 0.3720(4) 0.9068(2) 0.3943(3)
H128_8 H 0.3983 0.9183 0.3868
O97_8 O 0.35065(26) 0.88098(15) 0.35851(18)
H135_8 H 0.365151 0.976359 0.356498
H136_8 H 0.252142 0.933446 0.614405
H137_8 H 0.342425 0.974205 0.45017
H138_8 H 0.219941 0.644513 0.230867
H146_8 H 0.0605713 0.746748 0.46336
H147_8 H 0.25931 0.851625 0.708228
H148_11 H 0.97614 0.572768 0.396716
H149_11 H 0.966886 0.594948 0.435288
H148_12 H 0.596628 0.0238604 0.396716
H149_12 H 0.628062 0.033114 0.435288
C49_9 C 0.6113(6) 0.8947(7) 0.6079(7)
H65_9 H 0.6010 0.8688 0.6002
H66_9 H 0.5915 0.8999 0.6016
O42_9 O 0.6126(7) 0.8946(9) 0.6678(9)
C50_9 C 0.6322(8) 0.9099(9) 0.5743(8)
H67_9 H 0.6163 0.8913 0.5509
C51_9 C 0.6583(6) 0.9022(7) 0.5704(7)
H68_9 H 0.6780 0.9195 0.5918
C52_9 C 0.6701(9) 0.9127(11) 0.5288(9)
H69_9 H 0.6538 0.8915 0.5088
O44_9 O 0.7044(7) 0.9172(9) 0.5208(5)
H70_9 H 0.7194 0.9328 0.5394
C53_9 C 0.6796(6) 0.9434(7) 0.4991(5)
H71_9 H 0.7009 0.9628 0.5162
C54_9 C 0.6560(7) 0.9566(8) 0.5005(8)
H72_9 H 0.6644 0.9823 0.4915
O45_9 O 0.6315(5) 0.9389(6) 0.5505(4)
C55_9 C 0.6027(4) 0.7676(5) 0.6527(5)
H73_9 H 0.5826 0.7724 0.6586
H74_9 H 0.5924 0.7447 0.6347
O46_9 O 0.6129(4) 0.7619(5) 0.6929(3)
C56_9 C 0.6295(3) 0.7971(4) 0.6219(3)
H75_9 H 0.6171 0.7978 0.5925
O47_9 O 0.64113(24) 0.83081(29) 0.64849(19)
C57_9 C 0.66204(28) 0.79377(34) 0.6090(2)
H76_9 H 0.6719 0.7887 0.6381
O48_9 O 0.64989(18) 0.76370(22) 0.57752(16)
C58_9 C 0.69152(27) 0.82741(33) 0.5859(3)
H77_9 H 0.6833 0.8304 0.5541
O49_9 O 0.72418(19) 0.82545(24) 0.5815(2)
C59_9 C 0.7008(3) 0.8613(4) 0.6170(3)
H78_9 H 0.7106 0.8587 0.6478
O50_9 O 0.72799(22) 0.89320(27) 0.5940(2)
C60_9 C 0.6664(4) 0.8627(4) 0.6261(3)
H79_9 H 0.6720 0.8839 0.6465
O51_9 O 0.65262(21) 0.86641(26) 0.58245(19)
C61_9 C 0.5743(3) 0.6396(4) 0.3955(3)
H80_9 H 0.5893 0.6665 0.3993
O52_9 O 0.58534(33) 0.62798(39) 0.3537(2)
C62_9 C 0.6019(3) 0.6893(4) 0.5714(2)
H81_9 H 0.5933 0.7067 0.5640
C63_9 C 0.6144(3) 0.6800(4) 0.5259(3)
H82_9 H 0.6211 0.6610 0.5321
O56_9 O 0.58493(23) 0.66653(27) 0.49235(19)
C64_9 C 0.6460(4) 0.7128(4) 0.5062(3)
H83_9 H 0.6378 0.7299 0.4956
O57_9 O 0.65978(23) 0.70292(27) 0.46666(19)
H84_9 H 0.6473 0.6805 0.4623
C65_9 C 0.67489(28) 0.73117(34) 0.5437(3)
H85_9 H 0.6846 0.7148 0.5513
O58_9 O 0.70454(24) 0.76464(29) 0.5259(2)
H86_9 H 0.7082 0.7818 0.5438
C66_9 C 0.66029(27) 0.73737(32) 0.5876(3)
C67_9 C 0.4814(6) 0.6200(7) 0.4386(4)
H87_9 H 0.4729 0.6235 0.4695
H88_9 H 0.4761 0.6340 0.4154
O59_9 O 0.4613(6) 0.5854(8) 0.4275(4)
H89_9 H 0.4672 0.5819 0.4007
C68_9 C 0.5217(5) 0.6366(6) 0.4413(3)
H90_9 H 0.5339 0.6633 0.4471
C69_9 C 0.5709(7) 0.6558(9) 0.5953(4)
H91_9 H 0.5617 0.6640 0.6218
H92_9 H 0.5509 0.6434 0.5725
C70_9 C 0.5803(5) 0.6204(6) 0.4366(3)
H93_9 H 0.5662 0.5938 0.4313
O63_9 O 0.61773(27) 0.63117(32) 0.4438(2)
C71_9 C 0.5654(4) 0.6303(5) 0.4829(3)
H94_9 H 0.5685 0.6171 0.5100
O64_9 O 0.5302(4) 0.6184(5) 0.4781(2)
C72_9 C 0.4351(4) 0.6381(5) 0.3025(3)
H95_9 H 0.4228 0.6234 0.3307
H96_9 H 0.4305 0.6587 0.3014
C73_9 C 0.4751(3) 0.6521(4) 0.3058(2)
H97_9 H 0.4849 0.6674 0.3346
C74_9 C 0.4959(3) 0.6746(4) 0.2618(3)
H98_9 H 0.4866 0.6600 0.2324
C75_9 C 0.53550(28) 0.68704(34) 0.2692(2)
H99_9 H 0.5450 0.7034 0.2972
O68_9 O 0.55405(19) 0.70651(23) 0.22672(16)
H100_9 H 0.5639 0.6960 0.2139
C76_9 C 0.54050(28) 0.65524(34) 0.2750(2)
H101_9 H 0.5314 0.6406 0.2456
O69_9 O 0.57719(19) 0.66407(24) 0.2803(2)
H102_9 H 0.5907 0.6867 0.2794
C77_9 C 0.51780(27) 0.63144(34) 0.3145(2)
H103_9 H 0.5195 0.6089 0.3147
C78_9 C 0.4302(4) 0.7533(5) 0.2852(4)
H104_9 H 0.4404 0.7747 0.3063
H105_9 H 0.4142 0.7317 0.3042
O73_9 O 0.4089(3) 0.7578(4) 0.2492(4)
C79_9 C 0.4590(3) 0.7494(4) 0.2659(3)
H106_9 H 0.4740 0.7493 0.2930
O74_9 O 0.44416(21) 0.71503(26) 0.2440(2)
C80_9 C 0.4845(3) 0.7789(4) 0.2323(4)
H107_9 H 0.4696 0.7813 0.2069
O75_9 O 0.50338(24) 0.81222(30) 0.2560(3)
C81_9 C 0.5116(3) 0.7709(4) 0.2095(4)
H108_9 H 0.5286 0.7712 0.2340
C82_9 C 0.4916(3) 0.7335(4) 0.1864(3)
H109_9 H 0.4752 0.7339 0.1616
C83_9 C 0.4686(3) 0.7058(4) 0.2235(3)
H110_9 H 0.4552 0.6810 0.2093
O82_9 O 0.49166(20) 0.70662(25) 0.26020(18)
C84_9 C 0.4617(5) 0.8516(6) 0.3596(5)
H111_9 H 0.4395 0.8276 0.3579
H112_9 H 0.4706 0.8558 0.3924
C85_9 C 0.4887(6) 0.8524(7) 0.3291(5)
H113_9 H 0.4953 0.8341 0.3399
C86_9 C 0.5237(4) 0.8891(5) 0.3205(6)
H114_9 H 0.5172 0.9079 0.3120
C87_9 C 0.5496(6) 0.8888(7) 0.2840(8)
H115_9 H 0.5596 0.8733 0.2948
O85_9 O 0.5756(5) 0.9249(6) 0.2868(11)
H116_9 H 0.5917 0.9295 0.2667
C88_9 C 0.5304(4) 0.8754(5) 0.2403(6)
H117_9 H 0.5249 0.8939 0.2270
O86_9 O 0.5550(4) 0.8724(5) 0.2109(6)
H118_9 H 0.5744 0.8789 0.2255
C89_9 C 0.4950(4) 0.8392(5) 0.2455(5)
H119_9 H 0.4823 0.8332 0.2145
C90_9 C 0.5373(5) 0.8907(6) 0.4900(5)
H120_9 H 0.5556 0.9010 0.5154
H121_9 H 0.5246 0.9048 0.4919
O89_9 O 0.5134(14) 0.8613(17) 0.5109(12)
H122_9 H 0.5078 0.8666 0.5368
C91_9 C 0.5599(6) 0.9083(7) 0.4513(6)
H123_9 H 0.5601 0.8881 0.4338
O90_9 O 0.5340(7) 0.9158(9) 0.4224(5)
C92_9 C 0.5979(6) 0.9371(7) 0.4506(6)
H124_9 H 0.6005 0.9585 0.4685
O91_9 O 0.6178(4) 0.9220(5) 0.4756(4)
C93_9 C 0.6124(6) 0.9486(7) 0.4028(6)
H125_9 H 0.6124 0.9281 0.3855
C94_9 C 0.5865(7) 0.9607(8) 0.3767(6)
H126_9 H 0.5885 0.9819 0.3944
C95_9 C 0.5480(8) 0.9309(10) 0.3800(8)
H127_9 H 0.5317 0.9379 0.3635
O96_9 O 0.5439(4) 0.8992(5) 0.3623(4)
C96_9 C 0.5347(3) 0.6280(4) 0.3943(3)
H128_9 H 0.5199 0.6017 0.3868
O97_9 O 0.53032(21) 0.64935(26) 0.35851(18)
H135_9 H 0.611208 0.634849 0.356498
H136_9 H 0.681305 0.747858 0.614405
H137_9 H 0.63178 0.657575 0.45017
H138_9 H 0.424572 0.780059 0.230867
H146_9 H 0.686177 0.939429 0.46336
H147_9 H 0.592315 0.74069 0.708228
O41_7 O 0.3774(2) 0.4176(2) 0.5956(3)
O99_7 O 0.2892(2) 0.3735(3) 0.7378(3)
H148_13 H 0.403372 0.427232 0.603284
H149_13 H 0.371938 0.405052 0.564712
O41_8 O 0.5824(2) 0.9599(3) 0.5956(3)
O99_8 O 0.6265(3) 0.9158(4) 0.7378(3)
H148_14 H 0.572768 0.97614 0.603284
H149_14 H 0.594948 0.966886 0.564712
O41_9 O 0.0401(3) 0.6226(2) 0.5956(3)
O99_9 O 0.0842(4) 0.7108(2) 0.7378(3)
H148_15 H 0.0238604 0.596628 0.603284
H149_15 H 0.033114 0.628062 0.564712
H148_16 H 0.0938986 0.736705 0.730049
H149_16 H 0.071719 0.705272 0.768622
H148_17 H 0.642806 0.906101 0.730049
H149_17 H 0.633553 0.928281 0.768622
H148_18 H 0.263295 0.357194 0.730049
H149_18 H 0.294728 0.366447 0.768622
C97 C 0.8792(3) 0.2399(3) 0.7478(3)
O100 O 0.84824(18) 0.23455(16) 0.7548(2)
C98 C 0.8875(4) 0.2094(3) 0.7550(4)
O101 O 0.90659(17) 0.27096(16) 0.73677(19)
C99 C 0.8683(3) 0.1851(3) 0.7904(4)
H129 H 0.8499 0.1867 0.8073
C100 C 0.8772(5) 0.1566(4) 0.8011(5)
H130 H 0.8647 0.1387 0.8244
C101 C 0.9058(5) 0.1579(4) 0.7740(5)
H131 H 0.9119 0.1395 0.7790
C102 C 0.9241(4) 0.1826(4) 0.7428(5)
H132 H 0.9438 0.1822 0.7279
C103 C 0.9165(2) 0.2101(3) 0.7297(4)
H133 H 0.9297 0.2275 0.7060
C97_2 C 0.7601(3) 0.6393(4) 0.7478(3)
O100_2 O 0.76545(16) 0.61369(24) 0.7548(2)
C98_2 C 0.7906(3) 0.6781(5) 0.7550(4)
O101_2 O 0.72904(16) 0.63563(23) 0.73677(19)
C99_2 C 0.8149(3) 0.6832(4) 0.7904(4)
H129_2 H 0.8133 0.6632 0.8073
C100_2 C 0.8434(4) 0.7206(6) 0.8011(5)
H130_2 H 0.8613 0.7260 0.8244
C101_2 C 0.8421(4) 0.7479(6) 0.7740(5)
H131_2 H 0.8605 0.7724 0.7790
C102_2 C 0.8174(4) 0.7415(6) 0.7428(5)
H132_2 H 0.8178 0.7616 0.7279
C103_2 C 0.7899(3) 0.7064(4) 0.7297(4)
H133_2 H 0.7725 0.7022 0.7060
C97_3 C 0.3607(4) 0.1208(3) 0.7478(3)
O100_3 O 0.38631(24) 0.15176(18) 0.7548(2)
C98_3 C 0.3219(5) 0.1125(4) 0.7550(4)
O101_3 O 0.36437(23) 0.09341(17) 0.73677(19)
C99_3 C 0.3168(4) 0.1317(3) 0.7904(4)
H129_3 H 0.3368 0.1501 0.8073
C100_3 C 0.2794(6) 0.1228(5) 0.8011(5)
H130_3 H 0.2740 0.1353 0.8244
C101_3 C 0.2521(6) 0.0942(5) 0.7740(5)
H131_3 H 0.2276 0.0881 0.7790
C102_3 C 0.2585(6) 0.0759(4) 0.7428(5)
H132_3 H 0.2384 0.0562 0.7279
C103_3 C 0.2936(4) 0.0835(2) 0.7297(4)
H133_3 H 0.2978 0.0703 0.7060
C97_4 C 0.2399(3) 0.8792(3) 0.2522(3)
O100_4 O 0.23455(16) 0.84824(18) 0.2452(2)
C98_4 C 0.2094(3) 0.8875(4) 0.2450(4)
O101_4 O 0.27096(16) 0.90659(17) 0.26323(19)
C99_4 C 0.1851(3) 0.8683(3) 0.2096(4)
H129_4 H 0.1867 0.8499 0.1927
C100_4 C 0.1566(4) 0.8772(5) 0.1989(5)
H130_4 H 0.1387 0.8647 0.1756
C101_4 C 0.1579(4) 0.9058(5) 0.2260(5)
H131_4 H 0.1395 0.9119 0.2210
C102_4 C 0.1826(4) 0.9241(4) 0.2572(5)
H132_4 H 0.1822 0.9438 0.2721
C103_4 C 0.2101(3) 0.9165(2) 0.2703(4)
H133_4 H 0.2275 0.9297 0.2940
C97_5 C 0.6393(4) 0.7601(3) 0.2522(3)
O100_5 O 0.61369(24) 0.76545(16) 0.2452(2)
C98_5 C 0.6781(5) 0.7906(3) 0.2450(4)
O101_5 O 0.63563(23) 0.72904(16) 0.26323(19)
C99_5 C 0.6832(4) 0.8149(3) 0.2096(4)
H129_5 H 0.6632 0.8133 0.1927
C100_5 C 0.7206(6) 0.8434(4) 0.1989(5)
H130_5 H 0.7260 0.8613 0.1756
C101_5 C 0.7479(6) 0.8421(4) 0.2260(5)
H131_5 H 0.7724 0.8605 0.2210
C102_5 C 0.7415(6) 0.8174(4) 0.2572(5)
H132_5 H 0.7616 0.8178 0.2721
C103_5 C 0.7064(4) 0.7899(3) 0.2703(4)
H133_5 H 0.7022 0.7725 0.2940
C97_6 C 0.1208(3) 0.3607(4) 0.2522(3)
O100_6 O 0.15176(18) 0.38631(24) 0.2452(2)
C98_6 C 0.1125(4) 0.3219(5) 0.2450(4)
O101_6 O 0.09341(17) 0.36437(23) 0.26323(19)
C99_6 C 0.1317(3) 0.3168(4) 0.2096(4)
H129_6 H 0.1501 0.3368 0.1927
C100_6 C 0.1228(5) 0.2794(6) 0.1989(5)
H130_6 H 0.1353 0.2740 0.1756
C101_6 C 0.0942(5) 0.2521(6) 0.2260(5)
H131_6 H 0.0881 0.2276 0.2210
C102_6 C 0.0759(4) 0.2585(6) 0.2572(5)
H132_6 H 0.0562 0.2384 0.2721
C103_6 C 0.0835(2) 0.2936(4) 0.2703(4)
H133_6 H 0.0703 0.2978 0.2940
C97_7 C 0.5459(3) 0.5732(3) 0.0811(3)
O100_7 O 0.51491(18) 0.56788(16) 0.0881(2)
C98_7 C 0.5542(4) 0.5427(3) 0.0883(4)
O101_7 O 0.57326(17) 0.60429(16) 0.07010(19)
C99_7 C 0.5350(3) 0.5184(3) 0.1237(4)
H129_7 H 0.5166 0.5200 0.1406
C100_7 C 0.5439(5) 0.4899(4) 0.1344(5)
H130_7 H 0.5314 0.4720 0.1577
C101_7 C 0.5725(5) 0.4912(4) 0.1073(5)
H131_7 H 0.5786 0.4728 0.1123
C102_7 C 0.5908(4) 0.5159(4) 0.0761(5)
H132_7 H 0.6105 0.5155 0.0612
C103_7 C 0.5832(2) 0.5434(3) 0.0630(4)
H133_7 H 0.5964 0.5608 0.0393
C98_8 C 0.4573(3) 0.0114(5) 0.0883(4)
C99_8 C 0.4816(3) 0.0165(4) 0.1237(4)
C100_8 C 0.5101(4) 0.0539(6) 0.1344(5)
H130_8 H 0.5280 0.0593 0.1577
C101_8 C 0.5088(4) 0.0812(6) 0.1073(5)
H131_8 H 0.5272 0.1057 0.1123
C102_8 C 0.4841(4) 0.0748(6) 0.0761(5)
H132_8 H 0.4845 0.0949 0.0612
C103_8 C 0.4566(3) 0.0397(4) 0.0630(4)
H133_8 H 0.4392 0.0355 0.0393
C97_8 C 0.4268(3) 0.9726(4) 0.0811(3)
O100_8 O 0.43212(16) 0.94702(24) 0.0881(2)
O101_8 O 0.39571(16) 0.96896(23) 0.07010(19)
H129_8 H 0.4800 0.9965 0.1406
C97_9 C 0.0274(4) 0.4541(3) 0.0811(3)
O100_9 O 0.05298(24) 0.48509(18) 0.0881(2)
O101_9 O 0.03104(23) 0.42674(17) 0.07010(19)
H129_9 H 0.0035 0.4834 0.1406
C98_9 C 0.9886(5) 0.4458(4) 0.0883(4)
C99_9 C 0.9835(4) 0.4650(3) 0.1237(4)
C100_9 C 0.9461(6) 0.4561(5) 0.1344(5)
H130_9 H 0.9407 0.4686 0.1577
C101_9 C 0.9188(6) 0.4275(5) 0.1073(5)
H131_9 H 0.8943 0.4214 0.1123
C102_9 C 0.9252(6) 0.4092(4) 0.0761(5)
H132_9 H 0.9051 0.3895 0.0612
C103_9 C 0.9603(4) 0.4168(2) 0.0630(4)
H133_9 H 0.9645 0.4036 0.0393
C97_10 C 0.9066(3) 0.2125(3) 0.5855(3)
O100_10 O 0.90122(16) 0.18157(18) 0.5785(2)
C98_10 C 0.8761(3) 0.2208(4) 0.5783(4)
O101_10 O 0.93763(16) 0.23992(17) 0.59656(19)
C99_10 C 0.8518(3) 0.2016(3) 0.5429(4)
H129_10 H 0.8534 0.1832 0.5260
C100_10 C 0.8233(4) 0.2105(5) 0.5322(5)
H130_10 H 0.8054 0.1980 0.5089
C101_10 C 0.8246(4) 0.2391(5) 0.5593(5)
H131_10 H 0.8062 0.2452 0.5543
C102_10 C 0.8493(4) 0.2574(4) 0.5905(5)
H132_10 H 0.8489 0.2771 0.6054
C103_10 C 0.8768(3) 0.2498(2) 0.6036(4)
H133_10 H 0.8942 0.2630 0.6273
C97_11 C 0.3060(4) 0.0934(3) 0.5855(3)
O100_11 O 0.28036(24) 0.09878(16) 0.5785(2)
C98_11 C 0.3448(5) 0.1239(3) 0.5783(4)
O101_11 O 0.30230(23) 0.06237(16) 0.59656(19)
C99_11 C 0.3499(4) 0.1482(3) 0.5429(4)
H129_11 H 0.3299 0.1466 0.5260
C100_11 C 0.3873(6) 0.1767(4) 0.5322(5)
H130_11 H 0.3927 0.1946 0.5089
C101_11 C 0.4146(6) 0.1754(4) 0.5593(5)
H131_11 H 0.4391 0.1938 0.5543
C102_11 C 0.4082(6) 0.1507(4) 0.5905(5)
H132_11 H 0.4283 0.1511 0.6054
C103_11 C 0.3731(4) 0.1232(3) 0.6036(4)
H133_11 H 0.3689 0.1058 0.6273
C97_12 C 0.7875(3) 0.6940(4) 0.5855(3)
O100_12 O 0.81843(18) 0.71964(24) 0.5785(2)
C98_12 C 0.7792(4) 0.6552(5) 0.5783(4)
O101_12 O 0.76008(17) 0.69770(23) 0.59656(19)
C99_12 C 0.7984(3) 0.6501(4) 0.5429(4)
H129_12 H 0.8168 0.6701 0.5260
C100_12 C 0.7895(5) 0.6127(6) 0.5322(5)
H130_12 H 0.8020 0.6073 0.5089
C101_12 C 0.7609(5) 0.5854(6) 0.5593(5)
H131_12 H 0.7548 0.5609 0.5543
C102_12 C 0.7426(4) 0.5918(6) 0.5905(5)
H132_12 H 0.7229 0.5717 0.6054
C103_12 C 0.7502(2) 0.6269(4) 0.6036(4)
H133_12 H 0.7370 0.6311 0.6273
C97_13 C 0.2125(3) 0.9066(3) 0.4145(3)
O100_13 O 0.18157(18) 0.90122(16) 0.4215(2)
C98_13 C 0.2208(4) 0.8761(3) 0.4217(4)
O101_13 O 0.23992(17) 0.93763(16) 0.40344(19)
C99_13 C 0.2016(3) 0.8518(3) 0.4571(4)
H129_13 H 0.1832 0.8534 0.4740
C100_13 C 0.2105(5) 0.8233(4) 0.4678(5)
H130_13 H 0.1980 0.8054 0.4911
C101_13 C 0.2391(5) 0.8246(4) 0.4407(5)
H131_13 H 0.2452 0.8062 0.4457
C102_13 C 0.2574(4) 0.8493(4) 0.4095(5)
H132_13 H 0.2771 0.8489 0.3946
C103_13 C 0.2498(2) 0.8768(3) 0.3964(4)
H133_13 H 0.2630 0.8942 0.3727
C97_14 C 0.0934(3) 0.3060(4) 0.4145(3)
O100_14 O 0.09878(16) 0.28036(24) 0.4215(2)
C98_14 C 0.1239(3) 0.3448(5) 0.4217(4)
O101_14 O 0.06237(16) 0.30230(23) 0.40344(19)
C99_14 C 0.1482(3) 0.3499(4) 0.4571(4)
H129_14 H 0.1466 0.3299 0.4740
C100_14 C 0.1767(4) 0.3873(6) 0.4678(5)
H130_14 H 0.1946 0.3927 0.4911
C101_14 C 0.1754(4) 0.4146(6) 0.4407(5)
H131_14 H 0.1938 0.4391 0.4457
C102_14 C 0.1507(4) 0.4082(6) 0.4095(5)
H132_14 H 0.1511 0.4283 0.3946
C103_14 C 0.1232(3) 0.3731(4) 0.3964(4)
H133_14 H 0.1058 0.3689 0.3727
C97_15 C 0.6940(4) 0.7875(3) 0.4145(3)
O100_15 O 0.71964(24) 0.81843(18) 0.4215(2)
C98_15 C 0.6552(5) 0.7792(4) 0.4217(4)
O101_15 O 0.69770(23) 0.76008(17) 0.40344(19)
C99_15 C 0.6501(4) 0.7984(3) 0.4571(4)
H129_15 H 0.6701 0.8168 0.4740
C100_15 C 0.6127(6) 0.7895(5) 0.4678(5)
H130_15 H 0.6073 0.8020 0.4911
C101_15 C 0.5854(6) 0.7609(5) 0.4407(5)
H131_15 H 0.5609 0.7548 0.4457
C102_15 C 0.5918(6) 0.7426(4) 0.4095(5)
H132_15 H 0.5717 0.7229 0.3946
C103_15 C 0.6269(4) 0.7502(2) 0.3964(4)
H133_15 H 0.6311 0.7370 0.3727
C97_16 C 0.5732(3) 0.5459(3) 0.9189(3)
O100_16 O 0.56788(16) 0.51491(18) 0.9119(2)
C98_16 C 0.5427(3) 0.5542(4) 0.9117(4)
O101_16 O 0.60429(16) 0.57326(17) 0.92990(19)
C99_16 C 0.5184(3) 0.5350(3) 0.8763(4)
H129_16 H 0.5200 0.5166 0.8594
C100_16 C 0.4899(4) 0.5439(5) 0.8656(5)
H130_16 H 0.4720 0.5314 0.8423
C101_16 C 0.4912(4) 0.5725(5) 0.8927(5)
H131_16 H 0.4728 0.5786 0.8877
C102_16 C 0.5159(4) 0.5908(4) 0.9239(5)
H132_16 H 0.5155 0.6105 0.9388
C103_16 C 0.5434(3) 0.5832(2) 0.9370(4)
H133_16 H 0.5608 0.5964 0.9607
C98_17 C 0.0114(5) 0.4573(3) 0.9117(4)
C99_17 C 0.0165(4) 0.4816(3) 0.8763(4)
C100_17 C 0.0539(6) 0.5101(4) 0.8656(5)
H130_17 H 0.0593 0.5280 0.8423
C101_17 C 0.0812(6) 0.5088(4) 0.8927(5)
H131_17 H 0.1057 0.5272 0.8877
C102_17 C 0.0748(6) 0.4841(4) 0.9239(5)
H132_17 H 0.0949 0.4845 0.9388
C103_17 C 0.0397(4) 0.4566(3) 0.9370(4)
H133_17 H 0.0355 0.4392 0.9607
C97_17 C 0.9726(4) 0.4268(3) 0.9189(3)
O100_17 O 0.94702(24) 0.43212(16) 0.9119(2)
O101_17 O 0.96896(23) 0.39571(16) 0.92990(19)
H129_17 H 0.9965 0.4800 0.8594
C97_18 C 0.4541(3) 0.0274(4) 0.9189(3)
O100_18 O 0.48509(18) 0.05298(24) 0.9119(2)
O101_18 O 0.42674(17) 0.03104(23) 0.92990(19)
H129_18 H 0.4834 0.0035 0.8594
C98_18 C 0.4458(4) 0.9886(5) 0.9117(4)
C99_18 C 0.4650(3) 0.9835(4) 0.8763(4)
C100_18 C 0.4561(5) 0.9461(6) 0.8656(5)
H130_18 H 0.4686 0.9407 0.8423
C101_18 C 0.4275(5) 0.9188(6) 0.8927(5)
H131_18 H 0.4214 0.8943 0.8877
C102_18 C 0.4092(4) 0.9252(6) 0.9239(5)
H132_18 H 0.3895 0.9051 0.9388
C103_18 C 0.4168(2) 0.9603(4) 0.9370(4)
H133_18 H 0.4036 0.9645 0.9607
O102 O 0.90267(16) 0.3333 0.8333
H139 H 0.925952 0.3333 0.8333
O102_2 O 0.6667 0.56937(16) 0.8333
H139_2 H 0.6667 0.592652 0.8333
O102_3 O 0.43063(16) 0.09733(16) 0.8333
H139_3 H 0.407348 0.0740484 0.8333
O102_4 O 0.3333 0.90267(16) 0.1667
H139_4 H 0.3333 0.925952 0.1667
O102_5 O 0.56937(16) 0.6667 0.1667
H139_5 H 0.592652 0.6667 0.1667
O102_6 O 0.09733(16) 0.43063(16) 0.1667
H139_6 H 0.0740484 0.407348 0.1667
O102_7 O 1.0000 0.23600(16) 0.5000
H139_7 H 0.999967 0.259285 0.500033
O102_8 O 0.23604(16) 0.0000 0.5000
H139_8 H 0.259318 3.33333e-05 0.500033
O102_9 O 0.76400(16) 0.76396(16) 0.5000
H139_9 H 0.740715 0.740682 0.500033
O102_10 O 0.23600(16) 1.0000 0.5000
H139_10 H 0.259285 0.999967 0.499967
O102_11 O 0.0000 0.23604(16) 0.5000
H139_11 H 3.33333e-05 0.259318 0.499967
O103 O 0.0734(3) 0.7125(3) 0.2269(8)
H134 H 0.0920 0.7297 0.2391
O103_2 O 0.2875(3) 0.3609(4) 0.2269(8)
H134_2 H 0.2703 0.3623 0.2391
O103_3 O 0.6391(4) 0.9266(3) 0.2269(8)
H134_3 H 0.6377 0.9080 0.2391
O103_4 O 0.7125(3) 0.0734(3) 0.7731(8)
H134_4 H 0.7297 0.0920 0.7609
O103_5 O 0.3609(4) 0.2875(3) 0.7731(8)
H134_5 H 0.3623 0.2703 0.7609
O103_6 O 0.9266(3) 0.6391(4) 0.7731(8)
H134_6 H 0.9080 0.6377 0.7609
O103_7 O 0.7401(3) 0.0458(3) 0.5602(8)
H134_7 H 0.7587 0.0630 0.5724
O103_8 O 0.9542(3) 0.6942(4) 0.5602(8)
H134_8 H 0.9370 0.6956 0.5724
O103_9 O 0.3058(4) 0.2599(3) 0.5602(8)
H134_9 H 0.3044 0.2413 0.5724
O103_10 O 0.3792(3) 0.4067(3) 0.1064(8)
H134_10 H 0.3964 0.4253 0.0942
O103_11 O 0.0276(4) 0.6208(3) 0.1064(8)
H134_11 H 0.0290 0.6036 0.0942
O103_12 O 0.5933(3) 0.9724(4) 0.1064(8)
H134_12 H 0.5747 0.9710 0.0942
O103_13 O 0.4067(3) 0.3792(3) 0.8936(8)
H134_13 H 0.4253 0.3964 0.9058
O103_14 O 0.6208(3) 0.0276(4) 0.8936(8)
H134_14 H 0.6036 0.0290 0.9058
O103_15 O 0.9724(4) 0.5933(3) 0.8936(8)
H134_15 H 0.9710 0.5747 0.9058
O103_16 O 0.0458(3) 0.7401(3) 0.4398(8)
H134_16 H 0.0630 0.7587 0.4276
O103_17 O 0.6942(4) 0.9542(3) 0.4398(8)
H134_17 H 0.6956 0.9370 0.4276
O103_18 O 0.2599(3) 0.3058(4) 0.4398(8)
H134_18 H 0.2413 0.3044 0.4276
loop_
_geom_bond_atom_site_label_1
_geom_bond_atom_site_label_2
_geom_bond_site_symmetry_1
_geom_bond_site_symmetry_2
C13 H16 1_555 1_555
O10 C13 1_555 1_555
C19 H23 1_555 1_555
H24 C19 1_555 1_555
O15 C19 1_555 1_555
H25 O15 1_555 1_555
C20 C19 1_555 1_555
H26 C20 1_555 1_555
H27 C21 1_555 1_555
H28 C21 1_555 1_555
O16 C21 1_555 1_555
C22 C13 1_555 1_555
H29 C22 1_555 1_555
O17 C22 1_555 1_555
C23 O12 1_555 1_555
H30 C23 1_555 1_555
O18 C20 1_555 1_555
C24 H31 1_555 1_555
H32 C24 1_555 1_555
O19 C24 1_555 1_555
C25 C24 1_555 1_555
H37 C28 1_555 1_555
O21 C28 1_555 1_555
C29 C28 1_555 1_555
H39 C29 1_555 1_555
O22 C25 1_555 1_555
C48 C13 1_555 1_555
H64 C48 1_555 1_555
O39 C29 1_555 1_555
K6 O19 1_555 1_555
C20 C48 1_555 1_555
O16 K1 1_555 1_555
C22 C23 1_555 1_555
C23 O18 1_555 1_555
C29 O22 1_555 1_555
O22 K6 1_555 1_555
C48 O39 1_555 1_555
O10 H142 1_555 1_555
O17 H145 1_555 1_555
O54 K1_2 1_555 1_555
C1 H1 1_555 1_555
H2 C1 1_555 1_555
C2 C1 1_555 1_555
H3 C2 1_555 1_555
C3 C2 1_555 1_555
H4 C3 1_555 1_555
C4 C3 1_555 1_555
H5 C4 1_555 1_555
O2 C4 1_555 1_555
H6 O2 1_555 1_555
C5 C4 1_555 1_555
H7 C5 1_555 1_555
C6 C5 1_555 1_555
H8 C6 1_555 1_555
O3 C2 1_555 1_555
C7 H9 1_555 1_555
H10 C7 1_555 1_555
C8 C7 1_555 1_555
H11 C8 1_555 1_555
O5 C8 1_555 1_555
C9 C8 1_555 1_555
H12 C9 1_555 1_555
O6 C9 1_555 1_555
C10 C9 1_555 1_555
H13 C10 1_555 1_555
O7 C10 1_555 1_555
C11 C10 1_555 1_555
H14 C11 1_555 1_555
O8 C11 1_555 1_555
C12 O5 1_555 1_555
H15 C12 1_555 1_555
O9 C3 1_555 1_555
C14 H17 1_555 1_555
O11 C14 1_555 1_555
C15 C14 1_555 1_555
C16 C15 1_555 1_555
H19 C16 1_555 1_555
O13 C16 1_555 1_555
H20 O13 1_555 1_555
C17 C16 1_555 1_555
H21 C17 1_555 1_555
O14 C17 1_555 1_555
H22 O14 1_555 1_555
C18 O6 1_555 1_555
C27 C26 1_555 1_555
H35 C27 1_555 1_555
O20 C27 1_555 1_555
H36 O20 1_555 1_555
H41 C30 1_555 1_555
C31 C30 1_555 1_555
H42 C31 1_555 1_555
O24 C31 1_555 1_555
C32 C31 1_555 1_555
H43 C32 1_555 1_555
O25 C32 1_555 1_555
C33 C32 1_555 1_555
H44 C33 1_555 1_555
O26 C33 1_555 1_555
C34 C33 1_555 1_555
H45 C34 1_555 1_555
O27 C34 1_555 1_555
C35 O24 1_555 1_555
H46 C35 1_555 1_555
O28 C26 1_555 1_555
H54 O31 1_555 1_555
O35 C6 1_555 1_555
O40 K1_3 1_555 1_555
K1_3 O11 1_555 1_555
K2 O7 1_555 1_555
C72 H95 1_555 1_555
H96 C72 1_555 1_555
O65 C72 1_555 1_555
O66 K2 1_555 1_555
C73 C72 1_555 1_555
C74 C73 1_555 1_555
H98 C74 1_555 1_555
C75 C74 1_555 1_555
H99 C75 1_555 1_555
O68 C75 1_555 1_555
H100 O68 1_555 1_555
C76 C75 1_555 1_555
H101 C76 1_555 1_555
O69 C76 1_555 1_555
H102 O69 1_555 1_555
C77 C76 1_555 1_555
H103 C77 1_555 1_555
O70 C73 1_555 1_555
O71 K2 1_555 1_555
C78 H104 1_555 1_555
H105 C78 1_555 1_555
O73 C78 1_555 1_555
C79 C78 1_555 1_555
H106 C79 1_555 1_555
O74 C79 1_555 1_555
C80 C79 1_555 1_555
H107 C80 1_555 1_555
O75 C80 1_555 1_555
C81 C80 1_555 1_555
H108 C81 1_555 1_555
O76 C81 1_555 1_555
O77 K2 1_555 1_555
C82 C81 1_555 1_555
H109 C82 1_555 1_555
O79 C82 1_555 1_555
O80 K2 1_555 1_555
C83 O74 1_555 1_555
H110 C83 1_555 1_555
O82 C74 1_555 1_555
C86 C85 1_555 1_555
H114 C86 1_555 1_555
C87 C86 1_555 1_555
H115 C87 1_555 1_555
O85 C87 1_555 1_555
H116 O85 1_555 1_555
C88 C87 1_555 1_555
H117 C88 1_555 1_555
O86 C88 1_555 1_555
H118 O86 1_555 1_555
C89 O75 1_555 1_555
H119 C89 1_555 1_555
O87 K2 1_555 1_555
O94 K3 1_555 1_555
K7 O26 1_555 1_555
K9 O65 1_555 1_555
K10 O76 1_555 1_555
C6 O3 1_555 1_555
C11 C12 1_555 1_555
O8 K2 1_555 1_555
C12 O9 1_555 1_555
O11 C18 1_555 1_555
C17 C18 1_555 1_555
C34 C35 1_555 1_555
O27 K7 1_555 1_555
C35 O28 1_555 1_555
C77 O70 1_555 1_555
O70 K9 1_555 1_555
C82 C83 1_555 1_555
O79 K10 1_555 1_555
C83 O82 1_555 1_555
C85 O87 1_555 1_555
C88 C89 1_555 1_555
C89 O87 1_555 1_555
O73 H138 1_555 1_555
C5 H140 1_555 1_555
C18 H143 1_555 1_555
O40_2 K1_4 1_555 1_555
O41 K3_2 1_555 1_555
K3_2 O1 1_555 1_555
C49 H65 1_555 1_555
H66 C49 1_555 1_555
O42 C49 1_555 1_555
C50 C49 1_555 1_555
H67 C50 1_555 1_555
C51 C50 1_555 1_555
H72 C54 1_555 1_555
O45 C50 1_555 1_555
C55 H73 1_555 1_555
H74 C55 1_555 1_555
O46 C55 1_555 1_555
C56 C55 1_555 1_555
H75 C56 1_555 1_555
O47 C56 1_555 1_555
C57 C56 1_555 1_555
O48 C57 1_555 1_555
C60 O47 1_555 1_555
O51 C51 1_555 1_555
C61 H80 1_555 1_555
O52 C61 1_555 1_555
C62 H81 1_555 1_555
O53 C62 1_555 1_555
O55 K4 1_555 1_555
C63 C62 1_555 1_555
H82 C63 1_555 1_555
O56 C63 1_555 1_555
C64 C63 1_555 1_555
H83 C64 1_555 1_555
O57 C64 1_555 1_555
H84 O57 1_555 1_555
C66 O48 1_555 1_555
C67 H87 1_555 1_555
H88 C67 1_555 1_555
O59 C67 1_555 1_555
H89 O59 1_555 1_555
C68 C67 1_555 1_555
H90 C68 1_555 1_555
C69 C62 1_555 1_555
H91 C69 1_555 1_555
H92 C69 1_555 1_555
O60 C69 1_555 1_555
O61 K1_4 1_555 1_555
O62 K4 1_555 1_555
C70 C61 1_555 1_555
H93 C70 1_555 1_555
O63 C70 1_555 1_555
C71 O56 1_555 1_555
H94 C71 1_555 1_555
O64 C68 1_555 1_555
C84 H111 1_555 1_555
H112 C84 1_555 1_555
C90 H120 1_555 1_555
H121 C90 1_555 1_555
O89 C90 1_555 1_555
H122 O89 1_555 1_555
C91 C90 1_555 1_555
H123 C91 1_555 1_555
O90 C91 1_555 1_555
C92 C91 1_555 1_555
H124 C92 1_555 1_555
O91 C54 1_555 1_555
C93 C92 1_555 1_555
H125 C93 1_555 1_555
O92 K3_2 1_555 1_555
C94 C93 1_555 1_555
H126 C94 1_555 1_555
C95 O90 1_555 1_555
H127 C95 1_555 1_555
C96 C61 1_555 1_555
H128 C96 1_555 1_555
K4 O53 1_555 1_555
K12 O42 1_555 1_555
C54 O45 1_555 1_555
C60 O51 1_555 1_555
O53 C66 1_555 1_555
C68 C96 1_555 1_555
O60 K4 1_555 1_555
C70 C71 1_555 1_555
C71 O64 1_555 1_555
C84 O83 1_555 1_555
C92 O91 1_555 1_555
C93 O92 1_555 1_555
C94 C95 1_555 1_555
C95 O96 1_555 1_555
C96 O97 1_555 1_555
O52 H135 1_555 1_555
O63 H137 1_555 1_555
O4 H141 1_555 1_555
O46 H147 1_555 1_555
O41 H148 1_555 1_555
O41 H149 1_555 1_555
O40_2 H150 1_555 1_555
C36 H47 1_555 1_555
H48 C36 1_555 1_555
O29 C36 1_555 1_555
C37 C36 1_555 1_555
H49 C37 1_555 1_555
C38 C37 1_555 1_555
H50 C38 1_555 1_555
C39 C38 1_555 1_555
O30 C39 1_555 1_555
H52 O30 1_555 1_555
C40 C39 1_555 1_555
H53 C40 1_555 1_555
H55 C41 1_555 1_555
O32 C37 1_555 1_555
C42 H56 1_555 1_555
H57 C42 1_555 1_555
O33 C42 1_555 1_555
H58 O33 1_555 1_555
C43 C42 1_555 1_555
O34 C43 1_555 1_555
C44 C43 1_555 1_555
H60 C44 1_555 1_555
C45 C44 1_555 1_555
C46 C45 1_555 1_555
H62 C46 1_555 1_555
O37 C46 1_555 1_555
C47 O34 1_555 1_555
H63 C47 1_555 1_555
O38 C38 1_555 1_555
O43 K3_3 1_555 1_555
O93 K3_3 1_555 1_555
O99 K3_3 1_555 1_555
K8 O29 1_555 1_555
C40 C41 1_555 1_555
C41 O32 1_555 1_555
O32 K8 1_555 1_555
C46 C47 1_555 1_555
O37 K11 1_555 1_555
C47 O38 1_555 1_555
O23 H144 1_555 1_555
O44 C52 1_555 1_555
H70 O44 1_555 1_555
C53 C52 1_555 1_555
H71 C53 1_555 1_555
H77 C58 1_555 1_555
O49 C58 1_555 1_555
C59 C58 1_555 1_555
H78 C59 1_555 1_555
O50 C59 1_555 1_555
H85 C65 1_555 1_555
O58 C65 1_555 1_555
H86 O58 1_555 1_555
O67 K5 1_555 1_555
O72 K5 1_555 1_555
O78 K5 1_555 1_555
O81 K5 1_555 1_555
O84 K5 1_555 1_555
O88 K5 1_555 1_555
O95 K3_4 1_555 1_555
K5 O49 1_555 1_555
O50 K5 1_555 1_555
C53 H146 1_555 1_555
C1_2 H1_2 1_555 1_555
H2_2 C1_2 1_555 1_555
C2_2 C1_2 1_555 1_555
H3_2 C2_2 1_555 1_555
C3_2 C2_2 1_555 1_555
H4_2 C3_2 1_555 1_555
C4_2 C3_2 1_555 1_555
H5_2 C4_2 1_555 1_555
O2_2 C4_2 1_555 1_555
H6_2 O2_2 1_555 1_555
C5_2 C4_2 1_555 1_555
H7_2 C5_2 1_555 1_555
C6_2 C5_2 1_555 1_555
H8_2 C6_2 1_555 1_555
O3_2 C2_2 1_555 1_555
C7_2 H9_2 1_555 1_555
H10_2 C7_2 1_555 1_555
C8_2 C7_2 1_555 1_555
H11_2 C8_2 1_555 1_555
O5_2 C8_2 1_555 1_555
C9_2 C8_2 1_555 1_555
H12_2 C9_2 1_555 1_555
O6_2 C9_2 1_555 1_555
C10_2 C9_2 1_555 1_555
H13_2 C10_2 1_555 1_555
O7_2 C10_2 1_555 1_555
C11_2 C10_2 1_555 1_555
H14_2 C11_2 1_555 1_555
O8_2 C11_2 1_555 1_555
C12_2 O5_2 1_555 1_555
H15_2 C12_2 1_555 1_555
O9_2 C3_2 1_555 1_555
C14_2 H17_2 1_555 1_555
O11_2 C14_2 1_555 1_555
C15_2 C14_2 1_555 1_555
C16_2 C15_2 1_555 1_555
H19_2 C16_2 1_555 1_555
O13_2 C16_2 1_555 1_555
H20_2 O13_2 1_555 1_555
C17_2 C16_2 1_555 1_555
H21_2 C17_2 1_555 1_555
O14_2 C17_2 1_555 1_555
H22_2 O14_2 1_555 1_555
C18_2 O6_2 1_555 1_555
C27_2 C26_2 1_555 1_555
H35_2 C27_2 1_555 1_555
O20_2 C27_2 1_555 1_555
H36_2 O20_2 1_555 1_555
C30_2 H40_2 1_555 1_555
H41_2 C30_2 1_555 1_555
O23_2 C30_2 1_555 1_555
C31_2 C30_2 1_555 1_555
H42_2 C31_2 1_555 1_555
O24_2 C31_2 1_555 1_555
C32_2 C31_2 1_555 1_555
H43_2 C32_2 1_555 1_555
O25_2 C32_2 1_555 1_555
C33_2 C32_2 1_555 1_555
H44_2 C33_2 1_555 1_555
O26_2 C33_2 1_555 1_555
C34_2 C33_2 1_555 1_555
H45_2 C34_2 1_555 1_555
O27_2 C34_2 1_555 1_555
C35_2 O24_2 1_555 1_555
H46_2 C35_2 1_555 1_555
O28_2 C26_2 1_555 1_555
C36_2 H47_2 1_555 1_555
H48_2 C36_2 1_555 1_555
O29_2 C36_2 1_555 1_555
C37_2 C36_2 1_555 1_555
H49_2 C37_2 1_555 1_555
C38_2 C37_2 1_555 1_555
H50_2 C38_2 1_555 1_555
C39_2 C38_2 1_555 1_555
H51_2 C39_2 1_555 1_555
O30_2 C39_2 1_555 1_555
H52_2 O30_2 1_555 1_555
C40_2 C39_2 1_555 1_555
H53_2 C40_2 1_555 1_555
O31_2 C40_2 1_555 1_555
H54_2 O31_2 1_555 1_555
C41_2 O25_2 1_555 1_555
H55_2 C41_2 1_555 1_555
O32_2 C37_2 1_555 1_555
C42_2 H56_2 1_555 1_555
H57_2 C42_2 1_555 1_555
O33_2 C42_2 1_555 1_555
H58_2 O33_2 1_555 1_555
C43_2 C42_2 1_555 1_555
H59_2 C43_2 1_555 1_555
O34_2 C43_2 1_555 1_555
C44_2 C43_2 1_555 1_555
H60_2 C44_2 1_555 1_555
O35_2 C6_2 1_555 1_555
C45_2 C44_2 1_555 1_555
H61_2 C45_2 1_555 1_555
O36_2 C45_2 1_555 1_555
C46_2 C45_2 1_555 1_555
H62_2 C46_2 1_555 1_555
O37_2 C46_2 1_555 1_555
C47_2 O34_2 1_555 1_555
H63_2 C47_2 1_555 1_555
O38_2 C38_2 1_555 1_555
O40_3 K1_5 1_555 1_555
K1_5 O11_2 1_555 1_555
K9 O7_2 1_555 1_555
O43_2 K3_5 1_555 1_555
C72_2 H95_2 1_555 1_555
H96_2 C72_2 1_555 1_555
O65_2 C72_2 1_555 1_555
C73_2 C72_2 1_555 1_555
C74_2 C73_2 1_555 1_555
H98_2 C74_2 1_555 1_555
C75_2 C74_2 1_555 1_555
H99_2 C75_2 1_555 1_555
O68_2 C75_2 1_555 1_555
H100_2 O68_2 1_555 1_555
C76_2 C75_2 1_555 1_555
H101_2 C76_2 1_555 1_555
O69_2 C76_2 1_555 1_555
H102_2 O69_2 1_555 1_555
C77_2 C76_2 1_555 1_555
H103_2 C77_2 1_555 1_555
O70_2 C73_2 1_555 1_555
C78_2 H104_2 1_555 1_555
H105_2 C78_2 1_555 1_555
O73_2 C78_2 1_555 1_555
C79_2 C78_2 1_555 1_555
H106_2 C79_2 1_555 1_555
O74_2 C79_2 1_555 1_555
C80_2 C79_2 1_555 1_555
H107_2 C80_2 1_555 1_555
O75_2 C80_2 1_555 1_555
C81_2 C80_2 1_555 1_555
H108_2 C81_2 1_555 1_555
O76_2 C81_2 1_555 1_555
O77_2 K9 1_555 1_555
C82_2 C81_2 1_555 1_555
H109_2 C82_2 1_555 1_555
O79_2 C82_2 1_555 1_555
O80_2 K9 1_555 1_555
C83_2 O74_2 1_555 1_555
H110_2 C83_2 1_555 1_555
O82_2 C74_2 1_555 1_555
C86_2 C85_2 1_555 1_555
H114_2 C86_2 1_555 1_555
C87_2 C86_2 1_555 1_555
H115_2 C87_2 1_555 1_555
O85_2 C87_2 1_555 1_555
H116_2 O85_2 1_555 1_555
C88_2 C87_2 1_555 1_555
H117_2 C88_2 1_555 1_555
O86_2 C88_2 1_555 1_555
H118_2 O86_2 1_555 1_555
C89_2 O75_2 1_555 1_555
H119_2 C89_2 1_555 1_555
O87_2 K9 1_555 1_555
O93_2 K3_5 1_555 1_555
O94_2 K3_5 1_555 1_555
O99_2 K3_5 1_555 1_555
K7_2 O26_2 1_555 1_555
K6 O29_2 1_555 1_555
K9_2 O65_2 1_555 1_555
K10_2 O76_2 1_555 1_555
K11_2 O36_2 1_555 1_555
C6_2 O3_2 1_555 1_555
C11_2 C12_2 1_555 1_555
O8_2 K9 1_555 1_555
C12_2 O9_2 1_555 1_555
O11_2 C18_2 1_555 1_555
C17_2 C18_2 1_555 1_555
C34_2 C35_2 1_555 1_555
O27_2 K7_2 1_555 1_555
C35_2 O28_2 1_555 1_555
C40_2 C41_2 1_555 1_555
C41_2 O32_2 1_555 1_555
O32_2 K6 1_555 1_555
C44_2 O35_2 1_555 1_555
C46_2 C47_2 1_555 1_555
O37_2 K11_2 1_555 1_555
C47_2 O38_2 1_555 1_555
C77_2 O70_2 1_555 1_555
O70_2 K9_2 1_555 1_555
C82_2 C83_2 1_555 1_555
O79_2 K10_2 1_555 1_555
C83_2 O82_2 1_555 1_555
C85_2 O87_2 1_555 1_555
C88_2 C89_2 1_555 1_555
C89_2 O87_2 1_555 1_555
O73_2 H138_2 1_555 1_555
C5_2 H140_2 1_555 1_555
C18_2 H143_2 1_555 1_555
O23_2 H144_2 1_555 1_555
O40_4 K1_6 1_555 1_555
O41_2 K3_6 1_555 1_555
K3_6 O1_2 1_555 1_555
C49_2 H65_2 1_555 1_555
H66_2 C49_2 1_555 1_555
O42_2 C49_2 1_555 1_555
C50_2 C49_2 1_555 1_555
H67_2 C50_2 1_555 1_555
C51_2 C50_2 1_555 1_555
H68_2 C51_2 1_555 1_555
C52_2 C51_2 1_555 1_555
H69_2 C52_2 1_555 1_555
O44_2 C52_2 1_555 1_555
H70_2 O44_2 1_555 1_555
C53_2 C52_2 1_555 1_555
H71_2 C53_2 1_555 1_555
C54_2 C53_2 1_555 1_555
H72_2 C54_2 1_555 1_555
O45_2 C50_2 1_555 1_555
C55_2 H73_2 1_555 1_555
H74_2 C55_2 1_555 1_555
O46_2 C55_2 1_555 1_555
C56_2 C55_2 1_555 1_555
H75_2 C56_2 1_555 1_555
O47_2 C56_2 1_555 1_555
C57_2 C56_2 1_555 1_555
H76_2 C57_2 1_555 1_555
O48_2 C57_2 1_555 1_555
C58_2 C57_2 1_555 1_555
H77_2 C58_2 1_555 1_555
O49_2 C58_2 1_555 1_555
C59_2 C58_2 1_555 1_555
H78_2 C59_2 1_555 1_555
O50_2 C59_2 1_555 1_555
C60_2 O47_2 1_555 1_555
H79_2 C60_2 1_555 1_555
O51_2 C51_2 1_555 1_555
C61_2 H80_2 1_555 1_555
O52_2 C61_2 1_555 1_555
C62_2 H81_2 1_555 1_555
O53_2 C62_2 1_555 1_555
O55_2 K4_2 1_555 1_555
C63_2 C62_2 1_555 1_555
H82_2 C63_2 1_555 1_555
O56_2 C63_2 1_555 1_555
C64_2 C63_2 1_555 1_555
H83_2 C64_2 1_555 1_555
O57_2 C64_2 1_555 1_555
H84_2 O57_2 1_555 1_555
C65_2 C64_2 1_555 1_555
H85_2 C65_2 1_555 1_555
O58_2 C65_2 1_555 1_555
H86_2 O58_2 1_555 1_555
C66_2 O48_2 1_555 1_555
C67_2 H87_2 1_555 1_555
H88_2 C67_2 1_555 1_555
O59_2 C67_2 1_555 1_555
H89_2 O59_2 1_555 1_555
C68_2 C67_2 1_555 1_555
H90_2 C68_2 1_555 1_555
C69_2 C62_2 1_555 1_555
H91_2 C69_2 1_555 1_555
H92_2 C69_2 1_555 1_555
O60_2 C69_2 1_555 1_555
O61_2 K1_6 1_555 1_555
O62_2 K4_2 1_555 1_555
C70_2 C61_2 1_555 1_555
H93_2 C70_2 1_555 1_555
O63_2 C70_2 1_555 1_555
C71_2 O56_2 1_555 1_555
H94_2 C71_2 1_555 1_555
O64_2 C68_2 1_555 1_555
O67_2 K5_2 1_555 1_555
O72_2 K5_2 1_555 1_555
O78_2 K5_2 1_555 1_555
O81_2 K5_2 1_555 1_555
C84_2 H111_2 1_555 1_555
H112_2 C84_2 1_555 1_555
O84_2 K5_2 1_555 1_555
O88_2 K5_2 1_555 1_555
C90_2 H120_2 1_555 1_555
H121_2 C90_2 1_555 1_555
O89_2 C90_2 1_555 1_555
H122_2 O89_2 1_555 1_555
C91_2 C90_2 1_555 1_555
H123_2 C91_2 1_555 1_555
O90_2 C91_2 1_555 1_555
C92_2 C91_2 1_555 1_555
H124_2 C92_2 1_555 1_555
O91_2 C54_2 1_555 1_555
C93_2 C92_2 1_555 1_555
H125_2 C93_2 1_555 1_555
O92_2 K3_6 1_555 1_555
C94_2 C93_2 1_555 1_555
H126_2 C94_2 1_555 1_555
O95_2 K3_6 1_555 1_555
C95_2 O90_2 1_555 1_555
H127_2 C95_2 1_555 1_555
C96_2 C61_2 1_555 1_555
H128_2 C96_2 1_555 1_555
O98_2 K4_2 1_555 1_555
K4_2 O53_2 1_555 1_555
K5_2 O49_2 1_555 1_555
K12_2 O42_2 1_555 1_555
C54_2 O45_2 1_555 1_555
C59_2 C60_2 1_555 1_555
O50_2 K5_2 1_555 1_555
C60_2 O51_2 1_555 1_555
O53_2 C66_2 1_555 1_555
C65_2 C66_2 1_555 1_555
C68_2 C96_2 1_555 1_555
O60_2 K4_2 1_555 1_555
C70_2 C71_2 1_555 1_555
C71_2 O64_2 1_555 1_555
C84_2 O83_2 1_555 1_555
C92_2 O91_2 1_555 1_555
C93_2 O92_2 1_555 1_555
C94_2 C95_2 1_555 1_555
C95_2 O96_2 1_555 1_555
C96_2 O97_2 1_555 1_555
O52_2 H135_2 1_555 1_555
C66_2 H136_2 1_555 1_555
O63_2 H137_2 1_555 1_555
O4_2 H141_2 1_555 1_555
C53_2 H146_2 1_555 1_555
O46_2 H147_2 1_555 1_555
O41_2 H148_2 1_555 1_555
O41_2 H149_2 1_555 1_555
O40_4 H150_2 1_555 1_555
C13_2 H16_2 1_555 1_555
O10_2 C13_2 1_555 1_555
C19_2 H23_2 1_555 1_555
H24_2 C19_2 1_555 1_555
O15_2 C19_2 1_555 1_555
H25_2 O15_2 1_555 1_555
C20_2 C19_2 1_555 1_555
H26_2 C20_2 1_555 1_555
H27_2 C21_2 1_555 1_555
H28_2 C21_2 1_555 1_555
O16_2 C21_2 1_555 1_555
C22_2 C13_2 1_555 1_555
H29_2 C22_2 1_555 1_555
O17_2 C22_2 1_555 1_555
C23_2 O12_2 1_555 1_555
H30_2 C23_2 1_555 1_555
O18_2 C20_2 1_555 1_555
C24_2 H31_2 1_555 1_555
H32_2 C24_2 1_555 1_555
O19_2 C24_2 1_555 1_555
C25_2 C24_2 1_555 1_555
H37_2 C28_2 1_555 1_555
O21_2 C28_2 1_555 1_555
C29_2 C28_2 1_555 1_555
H39_2 C29_2 1_555 1_555
O22_2 C25_2 1_555 1_555
C48_2 C13_2 1_555 1_555
H64_2 C48_2 1_555 1_555
O39_2 C29_2 1_555 1_555
K6_2 O19_2 1_555 1_555
C20_2 C48_2 1_555 1_555
O16_2 K1_7 1_555 1_555
C22_2 C23_2 1_555 1_555
C23_2 O18_2 1_555 1_555
C29_2 O22_2 1_555 1_555
O22_2 K6_2 1_555 1_555
C48_2 O39_2 1_555 1_555
O10_2 H142_2 1_555 1_555
O17_2 H145_2 1_555 1_555
O54_2 K1_8 1_555 1_555
C36_3 H47_3 1_555 1_555
H48_3 C36_3 1_555 1_555
O29_3 C36_3 1_555 1_555
C37_3 C36_3 1_555 1_555
H49_3 C37_3 1_555 1_555
C38_3 C37_3 1_555 1_555
H50_3 C38_3 1_555 1_555
C39_3 C38_3 1_555 1_555
O30_3 C39_3 1_555 1_555
H52_3 O30_3 1_555 1_555
C40_3 C39_3 1_555 1_555
H53_3 C40_3 1_555 1_555
H55_3 C41_3 1_555 1_555
O32_3 C37_3 1_555 1_555
C42_3 H56_3 1_555 1_555
H57_3 C42_3 1_555 1_555
O33_3 C42_3 1_555 1_555
H58_3 O33_3 1_555 1_555
C43_3 C42_3 1_555 1_555
O34_3 C43_3 1_555 1_555
C44_3 C43_3 1_555 1_555
H60_3 C44_3 1_555 1_555
C45_3 C44_3 1_555 1_555
C46_3 C45_3 1_555 1_555
H62_3 C46_3 1_555 1_555
O37_3 C46_3 1_555 1_555
C47_3 O34_3 1_555 1_555
H63_3 C47_3 1_555 1_555
O38_3 C38_3 1_555 1_555
O43_3 K3_7 1_555 1_555
O93_3 K3_7 1_555 1_555
O99_3 K3_7 1_555 1_555
K6_2 O29_3 1_555 1_555
C40_3 C41_3 1_555 1_555
C41_3 O32_3 1_555 1_555
O32_3 K6_2 1_555 1_555
C46_3 C47_3 1_555 1_555
O37_3 K11_3 1_555 1_555
C47_3 O38_3 1_555 1_555
O23_3 H144_3 1_555 1_555
O44_3 C52_3 1_555 1_555
H70_3 O44_3 1_555 1_555
C53_3 C52_3 1_555 1_555
H71_3 C53_3 1_555 1_555
H77_3 C58_3 1_555 1_555
O49_3 C58_3 1_555 1_555
C59_3 C58_3 1_555 1_555
H78_3 C59_3 1_555 1_555
O50_3 C59_3 1_555 1_555
H85_3 C65_3 1_555 1_555
O58_3 C65_3 1_555 1_555
H86_3 O58_3 1_555 1_555
O67_3 K5_3 1_555 1_555
O72_3 K5_3 1_555 1_555
O78_3 K5_3 1_555 1_555
O81_3 K5_3 1_555 1_555
O84_3 K5_3 1_555 1_555
O88_3 K5_3 1_555 1_555
O95_3 K3_8 1_555 1_555
K5_3 O49_3 1_555 1_555
O50_3 K5_3 1_555 1_555
C53_3 H146_3 1_555 1_555
C1_3 H1_3 1_555 1_555
H2_3 C1_3 1_555 1_555
C2_3 C1_3 1_555 1_555
H3_3 C2_3 1_555 1_555
C3_3 C2_3 1_555 1_555
H4_3 C3_3 1_555 1_555
C4_3 C3_3 1_555 1_555
H5_3 C4_3 1_555 1_555
O2_3 C4_3 1_555 1_555
H6_3 O2_3 1_555 1_555
C5_3 C4_3 1_555 1_555
H7_3 C5_3 1_555 1_555
C6_3 C5_3 1_555 1_555
H8_3 C6_3 1_555 1_555
O3_3 C2_3 1_555 1_555
C7_3 H9_3 1_555 1_555
H10_3 C7_3 1_555 1_555
C8_3 C7_3 1_555 1_555
H11_3 C8_3 1_555 1_555
O5_3 C8_3 1_555 1_555
C9_3 C8_3 1_555 1_555
H12_3 C9_3 1_555 1_555
O6_3 C9_3 1_555 1_555
C10_3 C9_3 1_555 1_555
H13_3 C10_3 1_555 1_555
O7_3 C10_3 1_555 1_555
C11_3 C10_3 1_555 1_555
H14_3 C11_3 1_555 1_555
O8_3 C11_3 1_555 1_555
C12_3 O5_3 1_555 1_555
H15_3 C12_3 1_555 1_555
O9_3 C3_3 1_555 1_555
C13_3 H16_3 1_555 1_555
O10_3 C13_3 1_555 1_555
C14_3 H17_3 1_555 1_555
O11_3 C14_3 1_555 1_555
C15_3 C14_3 1_555 1_555
H18_3 C15_3 1_555 1_555
O12_3 C15_3 1_555 1_555
C16_3 C15_3 1_555 1_555
H19_3 C16_3 1_555 1_555
O13_3 C16_3 1_555 1_555
H20_3 O13_3 1_555 1_555
C17_3 C16_3 1_555 1_555
H21_3 C17_3 1_555 1_555
O14_3 C17_3 1_555 1_555
H22_3 O14_3 1_555 1_555
C18_3 O6_3 1_555 1_555
C19_3 H23_3 1_555 1_555
H24_3 C19_3 1_555 1_555
O15_3 C19_3 1_555 1_555
H25_3 O15_3 1_555 1_555
C20_3 C19_3 1_555 1_555
H26_3 C20_3 1_555 1_555
C21_3 C14_3 1_555 1_555
H27_3 C21_3 1_555 1_555
H28_3 C21_3 1_555 1_555
O16_3 C21_3 1_555 1_555
C22_3 C13_3 1_555 1_555
H29_3 C22_3 1_555 1_555
O17_3 C22_3 1_555 1_555
C23_3 O12_3 1_555 1_555
H30_3 C23_3 1_555 1_555
O18_3 C20_3 1_555 1_555
C24_3 H31_3 1_555 1_555
H32_3 C24_3 1_555 1_555
O19_3 C24_3 1_555 1_555
C25_3 C24_3 1_555 1_555
H33_3 C25_3 1_555 1_555
C26_3 C25_3 1_555 1_555
H34_3 C26_3 1_555 1_555
C27_3 C26_3 1_555 1_555
H35_3 C27_3 1_555 1_555
O20_3 C27_3 1_555 1_555
H36_3 O20_3 1_555 1_555
C28_3 C27_3 1_555 1_555
H37_3 C28_3 1_555 1_555
O21_3 C28_3 1_555 1_555
H38_3 O21_3 1_555 1_555
C29_3 C28_3 1_555 1_555
H39_3 C29_3 1_555 1_555
O22_3 C25_3 1_555 1_555
H41_3 C30_3 1_555 1_555
C31_3 C30_3 1_555 1_555
H42_3 C31_3 1_555 1_555
O24_3 C31_3 1_555 1_555
C32_3 C31_3 1_555 1_555
H43_3 C32_3 1_555 1_555
O25_3 C32_3 1_555 1_555
C33_3 C32_3 1_555 1_555
H44_3 C33_3 1_555 1_555
O26_3 C33_3 1_555 1_555
C34_3 C33_3 1_555 1_555
H45_3 C34_3 1_555 1_555
O27_3 C34_3 1_555 1_555
C35_3 O24_3 1_555 1_555
H46_3 C35_3 1_555 1_555
O28_3 C26_3 1_555 1_555
H54_3 O31_3 1_555 1_555
O35_3 C6_3 1_555 1_555
C48_3 C13_3 1_555 1_555
H64_3 C48_3 1_555 1_555
O39_3 C29_3 1_555 1_555
O40_5 K1_9 1_555 1_555
K1_9 O11_3 1_555 1_555
K9_2 O7_3 1_555 1_555
C72_3 H95_3 1_555 1_555
H96_3 C72_3 1_555 1_555
O66 C72_3 1_555 1_555
C73_3 C72_3 1_555 1_555
C74_3 C73_3 1_555 1_555
H98_3 C74_3 1_555 1_555
C75_3 C74_3 1_555 1_555
H99_3 C75_3 1_555 1_555
O68_3 C75_3 1_555 1_555
H100_3 O68_3 1_555 1_555
C76_3 C75_3 1_555 1_555
H101_3 C76_3 1_555 1_555
O69_3 C76_3 1_555 1_555
H102_3 O69_3 1_555 1_555
C77_3 C76_3 1_555 1_555
H103_3 C77_3 1_555 1_555
O71 C73_3 1_555 1_555
C78_3 H104_3 1_555 1_555
H105_3 C78_3 1_555 1_555
O73_3 C78_3 1_555 1_555
C79_3 C78_3 1_555 1_555
H106_3 C79_3 1_555 1_555
O74_3 C79_3 1_555 1_555
C80_3 C79_3 1_555 1_555
H107_3 C80_3 1_555 1_555
O75_3 C80_3 1_555 1_555
C81_3 C80_3 1_555 1_555
H108_3 C81_3 1_555 1_555
O76_3 C81_3 1_555 1_555
O77_3 K9_2 1_555 1_555
C82_3 C81_3 1_555 1_555
H109_3 C82_3 1_555 1_555
O79_3 C82_3 1_555 1_555
O80_3 K9_2 1_555 1_555
C83_3 O74_3 1_555 1_555
H110_3 C83_3 1_555 1_555
O82_3 C74_3 1_555 1_555
C86_3 C85_3 1_555 1_555
H114_3 C86_3 1_555 1_555
C87_3 C86_3 1_555 1_555
H115_3 C87_3 1_555 1_555
O85_3 C87_3 1_555 1_555
H116_3 O85_3 1_555 1_555
C88_3 C87_3 1_555 1_555
H117_3 C88_3 1_555 1_555
O86_3 C88_3 1_555 1_555
H118_3 O86_3 1_555 1_555
C89_3 O75_3 1_555 1_555
H119_3 C89_3 1_555 1_555
O87_3 K9_2 1_555 1_555
O94_3 K3_9 1_555 1_555
K8 O19_3 1_555 1_555
K7_3 O26_3 1_555 1_555
K10_3 O76_3 1_555 1_555
C6_3 O3_3 1_555 1_555
C11_3 C12_3 1_555 1_555
O8_3 K9_2 1_555 1_555
C12_3 O9_3 1_555 1_555
O11_3 C18_3 1_555 1_555
C17_3 C18_3 1_555 1_555
C20_3 C48_3 1_555 1_555
O16_3 K1_9 1_555 1_555
C22_3 C23_3 1_555 1_555
C23_3 O18_3 1_555 1_555
C29_3 O22_3 1_555 1_555
O22_3 K8 1_555 1_555
C34_3 C35_3 1_555 1_555
O27_3 K7_3 1_555 1_555
C35_3 O28_3 1_555 1_555
C48_3 O39_3 1_555 1_555
C77_3 O71 1_555 1_555
C82_3 C83_3 1_555 1_555
O79_3 K10_3 1_555 1_555
C83_3 O82_3 1_555 1_555
C85_3 O87_3 1_555 1_555
C88_3 C89_3 1_555 1_555
C89_3 O87_3 1_555 1_555
O73_3 H138_3 1_555 1_555
C5_3 H140_3 1_555 1_555
O10_3 H142_3 1_555 1_555
C18_3 H143_3 1_555 1_555
O17_3 H145_3 1_555 1_555
O40_6 K1_10 1_555 1_555
O41_3 K3_10 1_555 1_555
K3_10 O1_3 1_555 1_555
C49_3 H65_3 1_555 1_555
H66_3 C49_3 1_555 1_555
O42_3 C49_3 1_555 1_555
C50_3 C49_3 1_555 1_555
H67_3 C50_3 1_555 1_555
C51_3 C50_3 1_555 1_555
H72_3 C54_3 1_555 1_555
O45_3 C50_3 1_555 1_555
C55_3 H73_3 1_555 1_555
H74_3 C55_3 1_555 1_555
O46_3 C55_3 1_555 1_555
C56_3 C55_3 1_555 1_555
H75_3 C56_3 1_555 1_555
O47_3 C56_3 1_555 1_555
C57_3 C56_3 1_555 1_555
O48_3 C57_3 1_555 1_555
C60_3 O47_3 1_555 1_555
O51_3 C51_3 1_555 1_555
C61_3 H80_3 1_555 1_555
O52_3 C61_3 1_555 1_555
C62_3 H81_3 1_555 1_555
O53_3 C62_3 1_555 1_555
O54_3 K1_10 1_555 1_555
O55_3 K4_3 1_555 1_555
C63_3 C62_3 1_555 1_555
H82_3 C63_3 1_555 1_555
O56_3 C63_3 1_555 1_555
C64_3 C63_3 1_555 1_555
H83_3 C64_3 1_555 1_555
O57_3 C64_3 1_555 1_555
H84_3 O57_3 1_555 1_555
C66_3 O48_3 1_555 1_555
C67_3 H87_3 1_555 1_555
H88_3 C67_3 1_555 1_555
O59_3 C67_3 1_555 1_555
H89_3 O59_3 1_555 1_555
C68_3 C67_3 1_555 1_555
H90_3 C68_3 1_555 1_555
C69_3 C62_3 1_555 1_555
H91_3 C69_3 1_555 1_555
H92_3 C69_3 1_555 1_555
O60_3 C69_3 1_555 1_555
O61_3 K1_10 1_555 1_555
O62_3 K4_3 1_555 1_555
C70_3 C61_3 1_555 1_555
H93_3 C70_3 1_555 1_555
O63_3 C70_3 1_555 1_555
C71_3 O56_3 1_555 1_555
H94_3 C71_3 1_555 1_555
O64_3 C68_3 1_555 1_555
C84_3 H111_3 1_555 1_555
H112_3 C84_3 1_555 1_555
C90_3 H120_3 1_555 1_555
H121_3 C90_3 1_555 1_555
O89_3 C90_3 1_555 1_555
H122_3 O89_3 1_555 1_555
C91_3 C90_3 1_555 1_555
H123_3 C91_3 1_555 1_555
O90_3 C91_3 1_555 1_555
C92_3 C91_3 1_555 1_555
H124_3 C92_3 1_555 1_555
O91_3 C54_3 1_555 1_555
C93_3 C92_3 1_555 1_555
H125_3 C93_3 1_555 1_555
O92_3 K3_10 1_555 1_555
C94_3 C93_3 1_555 1_555
H126_3 C94_3 1_555 1_555
C95_3 O90_3 1_555 1_555
H127_3 C95_3 1_555 1_555
C96_3 C61_3 1_555 1_555
H128_3 C96_3 1_555 1_555
K4_3 O53_3 1_555 1_555
K12_3 O42_3 1_555 1_555
C54_3 O45_3 1_555 1_555
C60_3 O51_3 1_555 1_555
O53_3 C66_3 1_555 1_555
C68_3 C96_3 1_555 1_555
O60_3 K4_3 1_555 1_555
C70_3 C71_3 1_555 1_555
C71_3 O64_3 1_555 1_555
C84_3 O83_3 1_555 1_555
C92_3 O91_3 1_555 1_555
C93_3 O92_3 1_555 1_555
C94_3 C95_3 1_555 1_555
C95_3 O96_3 1_555 1_555
C96_3 O97_3 1_555 1_555
O52_3 H135_3 1_555 1_555
O63_3 H137_3 1_555 1_555
O4_3 H141_3 1_555 1_555
O46_3 H147_3 1_555 1_555
O41_3 H148_3 1_555 1_555
O41_3 H149_3 1_555 1_555
O40_6 H150_3 1_555 1_555
O40_6 H151_3 1_555 1_555
C13_4 H16_4 1_555 1_555
O10_4 C13_4 1_555 1_555
C19_4 H23_4 1_555 1_555
H24_4 C19_4 1_555 1_555
O15_4 C19_4 1_555 1_555
H25_4 O15_4 1_555 1_555
C20_4 C19_4 1_555 1_555
H26_4 C20_4 1_555 1_555
H27_4 C21_4 1_555 1_555
H28_4 C21_4 1_555 1_555
O61_2 C21_4 1_555 1_555
C22_4 C13_4 1_555 1_555
H29_4 C22_4 1_555 1_555
O17_4 C22_4 1_555 1_555
C23_4 O12_4 1_555 1_555
H30_4 C23_4 1_555 1_555
O18_4 C20_4 1_555 1_555
C24_4 H31_4 1_555 1_555
H32_4 C24_4 1_555 1_555
O19_4 C24_4 1_555 1_555
C25_4 C24_4 1_555 1_555
H37_4 C28_4 1_555 1_555
O21_4 C28_4 1_555 1_555
C29_4 C28_4 1_555 1_555
H39_4 C29_4 1_555 1_555
O22_4 C25_4 1_555 1_555
C48_4 C13_4 1_555 1_555
H64_4 C48_4 1_555 1_555
O39_4 C29_4 1_555 1_555
K7_2 O19_4 1_555 1_555
C20_4 C48_4 1_555 1_555
C22_4 C23_4 1_555 1_555
C23_4 O18_4 1_555 1_555
C29_4 O22_4 1_555 1_555
O22_4 K7_2 1_555 1_555
C48_4 O39_4 1_555 1_555
O10_4 H142_4 1_555 1_555
O17_4 H145_4 1_555 1_555
O40_7 K1_7 1_555 1_555
C49_4 H65_4 1_555 1_555
H66_4 C49_4 1_555 1_555
O42_4 C49_4 1_555 1_555
C50_4 C49_4 1_555 1_555
H67_4 C50_4 1_555 1_555
C51_4 C50_4 1_555 1_555
H72_4 C54_4 1_555 1_555
O45_4 C50_4 1_555 1_555
C55_4 H73_4 1_555 1_555
H74_4 C55_4 1_555 1_555
O46_4 C55_4 1_555 1_555
C56_4 C55_4 1_555 1_555
H75_4 C56_4 1_555 1_555
O47_4 C56_4 1_555 1_555
C57_4 C56_4 1_555 1_555
O48_4 C57_4 1_555 1_555
C60_4 O47_4 1_555 1_555
O51_4 C51_4 1_555 1_555
C61_4 H80_4 1_555 1_555
O52_4 C61_4 1_555 1_555
C62_4 H81_4 1_555 1_555
O53_4 C62_4 1_555 1_555
O55_4 K4_4 1_555 1_555
C63_4 C62_4 1_555 1_555
H82_4 C63_4 1_555 1_555
O56_4 C63_4 1_555 1_555
C64_4 C63_4 1_555 1_555
H83_4 C64_4 1_555 1_555
O57_4 C64_4 1_555 1_555
H84_4 O57_4 1_555 1_555
C66_4 O48_4 1_555 1_555
C67_4 H87_4 1_555 1_555
H88_4 C67_4 1_555 1_555
O59_4 C67_4 1_555 1_555
H89_4 O59_4 1_555 1_555
C68_4 C67_4 1_555 1_555
H90_4 C68_4 1_555 1_555
C69_4 C62_4 1_555 1_555
H91_4 C69_4 1_555 1_555
H92_4 C69_4 1_555 1_555
O60_4 C69_4 1_555 1_555
O62_4 K4_4 1_555 1_555
C70_4 C61_4 1_555 1_555
H93_4 C70_4 1_555 1_555
O63_4 C70_4 1_555 1_555
C71_4 O56_4 1_555 1_555
H94_4 C71_4 1_555 1_555
O64_4 C68_4 1_555 1_555
C84_4 H111_4 1_555 1_555
H112_4 C84_4 1_555 1_555
C90_4 H120_4 1_555 1_555
H121_4 C90_4 1_555 1_555
O89_4 C90_4 1_555 1_555
H122_4 O89_4 1_555 1_555
C91_4 C90_4 1_555 1_555
H123_4 C91_4 1_555 1_555
O90_4 C91_4 1_555 1_555
C92_4 C91_4 1_555 1_555
H124_4 C92_4 1_555 1_555
O91_4 C54_4 1_555 1_555
C93_4 C92_4 1_555 1_555
H125_4 C93_4 1_555 1_555
C94_4 C93_4 1_555 1_555
H126_4 C94_4 1_555 1_555
C95_4 O90_4 1_555 1_555
H127_4 C95_4 1_555 1_555
C96_4 C61_4 1_555 1_555
H128_4 C96_4 1_555 1_555
K4_4 O53_4 1_555 1_555
K11_3 O42_4 1_555 1_555
C54_4 O45_4 1_555 1_555
C60_4 O51_4 1_555 1_555
O53_4 C66_4 1_555 1_555
C68_4 C96_4 1_555 1_555
O60_4 K4_4 1_555 1_555
C70_4 C71_4 1_555 1_555
C71_4 O64_4 1_555 1_555
C84_4 O83_4 1_555 1_555
C92_4 O91_4 1_555 1_555
C93_4 O93_3 1_555 1_555
C94_4 C95_4 1_555 1_555
C95_4 O96_4 1_555 1_555
C96_4 O97_4 1_555 1_555
O52_4 H135_4 1_555 1_555
O63_4 H137_4 1_555 1_555
O4_4 H141_4 1_555 1_555
O46_4 H147_4 1_555 1_555
O99_3 H148_4 1_555 1_555
O99_3 H149_4 1_555 1_555
O40_7 H150_4 1_555 1_555
C1_4 H1_4 1_555 1_555
H2_4 C1_4 1_555 1_555
C2_4 C1_4 1_555 1_555
H3_4 C2_4 1_555 1_555
C3_4 C2_4 1_555 1_555
H4_4 C3_4 1_555 1_555
C4_4 C3_4 1_555 1_555
H5_4 C4_4 1_555 1_555
O2_4 C4_4 1_555 1_555
H6_4 O2_4 1_555 1_555
C5_4 C4_4 1_555 1_555
H7_4 C5_4 1_555 1_555
C6_4 C5_4 1_555 1_555
H8_4 C6_4 1_555 1_555
O3_4 C2_4 1_555 1_555
C7_4 H9_4 1_555 1_555
H10_4 C7_4 1_555 1_555
C8_4 C7_4 1_555 1_555
H11_4 C8_4 1_555 1_555
O5_4 C8_4 1_555 1_555
C9_4 C8_4 1_555 1_555
H12_4 C9_4 1_555 1_555
O6_4 C9_4 1_555 1_555
C10_4 C9_4 1_555 1_555
H13_4 C10_4 1_555 1_555
O7_4 C10_4 1_555 1_555
C11_4 C10_4 1_555 1_555
H14_4 C11_4 1_555 1_555
O8_4 C11_4 1_555 1_555
C12_4 O5_4 1_555 1_555
H15_4 C12_4 1_555 1_555
O9_4 C3_4 1_555 1_555
C14_4 H17_4 1_555 1_555
O54_2 C14_4 1_555 1_555
C15_4 C14_4 1_555 1_555
C16_4 C15_4 1_555 1_555
H19_4 C16_4 1_555 1_555
O13_4 C16_4 1_555 1_555
H20_4 O13_4 1_555 1_555
C17_4 C16_4 1_555 1_555
H21_4 C17_4 1_555 1_555
O14_4 C17_4 1_555 1_555
H22_4 O14_4 1_555 1_555
C18_4 O6_4 1_555 1_555
C27_4 C26_4 1_555 1_555
H35_4 C27_4 1_555 1_555
O20_4 C27_4 1_555 1_555
H36_4 O20_4 1_555 1_555
H41_4 C30_4 1_555 1_555
C31_4 C30_4 1_555 1_555
H42_4 C31_4 1_555 1_555
O24_4 C31_4 1_555 1_555
C32_4 C31_4 1_555 1_555
H43_4 C32_4 1_555 1_555
O25_4 C32_4 1_555 1_555
C33_4 C32_4 1_555 1_555
H44_4 C33_4 1_555 1_555
O26_4 C33_4 1_555 1_555
C34_4 C33_4 1_555 1_555
H45_4 C34_4 1_555 1_555
O27_4 C34_4 1_555 1_555
C35_4 O24_4 1_555 1_555
H46_4 C35_4 1_555 1_555
O28_4 C26_4 1_555 1_555
H54_4 O31_4 1_555 1_555
O35_4 C6_4 1_555 1_555
O40_8 K1_8 1_555 1_555
K2_2 O7_4 1_555 1_555
C72_4 H95_4 1_555 1_555
H96_4 C72_4 1_555 1_555
O65_3 C72_4 1_555 1_555
O66_2 K2_2 1_555 1_555
C73_4 C72_4 1_555 1_555
C74_4 C73_4 1_555 1_555
H98_4 C74_4 1_555 1_555
C75_4 C74_4 1_555 1_555
H99_4 C75_4 1_555 1_555
O68_4 C75_4 1_555 1_555
H100_4 O68_4 1_555 1_555
C76_4 C75_4 1_555 1_555
H101_4 C76_4 1_555 1_555
O69_4 C76_4 1_555 1_555
H102_4 O69_4 1_555 1_555
C77_4 C76_4 1_555 1_555
H103_4 C77_4 1_555 1_555
O70_3 C73_4 1_555 1_555
O71_2 K2_2 1_555 1_555
C78_4 H104_4 1_555 1_555
H105_4 C78_4 1_555 1_555
O73_4 C78_4 1_555 1_555
C79_4 C78_4 1_555 1_555
H106_4 C79_4 1_555 1_555
O74_4 C79_4 1_555 1_555
C80_4 C79_4 1_555 1_555
H107_4 C80_4 1_555 1_555
O75_4 C80_4 1_555 1_555
C81_4 C80_4 1_555 1_555
H108_4 C81_4 1_555 1_555
O78_3 C81_4 1_555 1_555
O77_4 K2_2 1_555 1_555
C82_4 C81_4 1_555 1_555
H109_4 C82_4 1_555 1_555
O81_3 C82_4 1_555 1_555
O80_4 K2_2 1_555 1_555
C83_4 O74_4 1_555 1_555
H110_4 C83_4 1_555 1_555
O82_4 C74_4 1_555 1_555
C86_4 C85_4 1_555 1_555
H114_4 C86_4 1_555 1_555
C87_4 C86_4 1_555 1_555
H115_4 C87_4 1_555 1_555
O85_4 C87_4 1_555 1_555
H116_4 O85_4 1_555 1_555
C88_4 C87_4 1_555 1_555
H117_4 C88_4 1_555 1_555
O86_4 C88_4 1_555 1_555
H118_4 O86_4 1_555 1_555
C89_4 O75_4 1_555 1_555
H119_4 C89_4 1_555 1_555
O87_4 K2_2 1_555 1_555
K6_2 O26_4 1_555 1_555
K9_3 O65_3 1_555 1_555
C6_4 O3_4 1_555 1_555
C11_4 C12_4 1_555 1_555
O8_4 K2_2 1_555 1_555
C12_4 O9_4 1_555 1_555
O54_2 C18_4 1_555 1_555
C17_4 C18_4 1_555 1_555
C34_4 C35_4 1_555 1_555
O27_4 K6_2 1_555 1_555
C35_4 O28_4 1_555 1_555
C77_4 O70_3 1_555 1_555
O70_3 K9_3 1_555 1_555
C82_4 C83_4 1_555 1_555
C83_4 O82_4 1_555 1_555
C85_4 O87_4 1_555 1_555
C88_4 C89_4 1_555 1_555
C89_4 O87_4 1_555 1_555
O73_4 H138_4 1_555 1_555
C5_4 H140_4 1_555 1_555
C18_4 H143_4 1_555 1_555
O44_4 C52_4 1_555 1_555
H70_4 O44_4 1_555 1_555
C53_4 C52_4 1_555 1_555
H71_4 C53_4 1_555 1_555
H77_4 C58_4 1_555 1_555
O49_4 C58_4 1_555 1_555
C59_4 C58_4 1_555 1_555
H78_4 C59_4 1_555 1_555
O50_4 C59_4 1_555 1_555
H85_4 C65_4 1_555 1_555
O58_4 C65_4 1_555 1_555
H86_4 O58_4 1_555 1_555
O67_4 K10_3 1_555 1_555
O72_4 K10_3 1_555 1_555
O84_4 K10_3 1_555 1_555
O88_4 K10_3 1_555 1_555
K10_3 O49_4 1_555 1_555
O50_4 K10_3 1_555 1_555
C53_4 H146_4 1_555 1_555
C36_4 H47_4 1_555 1_555
H48_4 C36_4 1_555 1_555
O29_4 C36_4 1_555 1_555
C37_4 C36_4 1_555 1_555
H49_4 C37_4 1_555 1_555
C38_4 C37_4 1_555 1_555
H50_4 C38_4 1_555 1_555
C39_4 C38_4 1_555 1_555
O30_4 C39_4 1_555 1_555
H52_4 O30_4 1_555 1_555
C40_4 C39_4 1_555 1_555
H53_4 C40_4 1_555 1_555
H55_4 C41_4 1_555 1_555
O32_4 C37_4 1_555 1_555
C42_4 H56_4 1_555 1_555
H57_4 C42_4 1_555 1_555
O33_4 C42_4 1_555 1_555
H58_4 O33_4 1_555 1_555
C43_4 C42_4 1_555 1_555
O34_4 C43_4 1_555 1_555
C44_4 C43_4 1_555 1_555
H60_4 C44_4 1_555 1_555
C45_4 C44_4 1_555 1_555
C46_4 C45_4 1_555 1_555
H62_4 C46_4 1_555 1_555
O37_4 C46_4 1_555 1_555
C47_4 O34_4 1_555 1_555
H63_4 C47_4 1_555 1_555
O38_4 C38_4 1_555 1_555
K7_3 O29_4 1_555 1_555
C40_4 C41_4 1_555 1_555
C41_4 O32_4 1_555 1_555
O32_4 K7_3 1_555 1_555
C46_4 C47_4 1_555 1_555
O37_4 K12_3 1_555 1_555
C47_4 O38_4 1_555 1_555
O23_4 H144_4 1_555 1_555
O40_9 K1 1_555 1_555
C49_5 H65_5 1_555 1_555
H66_5 C49_5 1_555 1_555
O42_5 C49_5 1_555 1_555
C50_5 C49_5 1_555 1_555
H67_5 C50_5 1_555 1_555
C51_5 C50_5 1_555 1_555
H68_5 C51_5 1_555 1_555
C52_5 C51_5 1_555 1_555
H69_5 C52_5 1_555 1_555
O44_5 C52_5 1_555 1_555
H70_5 O44_5 1_555 1_555
C53_5 C52_5 1_555 1_555
H71_5 C53_5 1_555 1_555
C54_5 C53_5 1_555 1_555
H72_5 C54_5 1_555 1_555
O45_5 C50_5 1_555 1_555
C55_5 H73_5 1_555 1_555
H74_5 C55_5 1_555 1_555
O46_5 C55_5 1_555 1_555
C56_5 C55_5 1_555 1_555
H75_5 C56_5 1_555 1_555
O47_5 C56_5 1_555 1_555
C57_5 C56_5 1_555 1_555
H76_5 C57_5 1_555 1_555
O48_5 C57_5 1_555 1_555
C58_5 C57_5 1_555 1_555
H77_5 C58_5 1_555 1_555
O49_5 C58_5 1_555 1_555
C59_5 C58_5 1_555 1_555
H78_5 C59_5 1_555 1_555
O50_5 C59_5 1_555 1_555
C60_5 O47_5 1_555 1_555
H79_5 C60_5 1_555 1_555
O51_5 C51_5 1_555 1_555
C61_5 H80_5 1_555 1_555
O52_5 C61_5 1_555 1_555
C62_5 H81_5 1_555 1_555
O53_5 C62_5 1_555 1_555
O55_5 K4_5 1_555 1_555
C63_5 C62_5 1_555 1_555
H82_5 C63_5 1_555 1_555
O56_5 C63_5 1_555 1_555
C64_5 C63_5 1_555 1_555
H83_5 C64_5 1_555 1_555
O57_5 C64_5 1_555 1_555
H84_5 O57_5 1_555 1_555
C65_5 C64_5 1_555 1_555
H85_5 C65_5 1_555 1_555
O58_5 C65_5 1_555 1_555
H86_5 O58_5 1_555 1_555
C66_5 O48_5 1_555 1_555
C67_5 H87_5 1_555 1_555
H88_5 C67_5 1_555 1_555
O59_5 C67_5 1_555 1_555
H89_5 O59_5 1_555 1_555
C68_5 C67_5 1_555 1_555
H90_5 C68_5 1_555 1_555
C69_5 C62_5 1_555 1_555
H91_5 C69_5 1_555 1_555
H92_5 C69_5 1_555 1_555
O60_5 C69_5 1_555 1_555
O62_5 K4_5 1_555 1_555
C70_5 C61_5 1_555 1_555
H93_5 C70_5 1_555 1_555
O63_5 C70_5 1_555 1_555
C71_5 O56_5 1_555 1_555
H94_5 C71_5 1_555 1_555
O64_5 C68_5 1_555 1_555
O67_5 K10_2 1_555 1_555
O72_5 K10_2 1_555 1_555
C84_5 H111_5 1_555 1_555
H112_5 C84_5 1_555 1_555
O84_5 K10_2 1_555 1_555
O88_5 K10_2 1_555 1_555
C90_5 H120_5 1_555 1_555
H121_5 C90_5 1_555 1_555
O89_5 C90_5 1_555 1_555
H122_5 O89_5 1_555 1_555
C91_5 C90_5 1_555 1_555
H123_5 C91_5 1_555 1_555
O90_5 C91_5 1_555 1_555
C92_5 C91_5 1_555 1_555
H124_5 C92_5 1_555 1_555
O91_5 C54_5 1_555 1_555
C93_5 C92_5 1_555 1_555
H125_5 C93_5 1_555 1_555
C94_5 C93_5 1_555 1_555
H126_5 C94_5 1_555 1_555
C95_5 O90_5 1_555 1_555
H127_5 C95_5 1_555 1_555
C96_5 C61_5 1_555 1_555
H128_5 C96_5 1_555 1_555
O98_5 K4_5 1_555 1_555
K4_5 O53_5 1_555 1_555
K10_2 O49_5 1_555 1_555
K11_2 O42_5 1_555 1_555
C54_5 O45_5 1_555 1_555
C59_5 C60_5 1_555 1_555
O50_5 K10_2 1_555 1_555
C60_5 O51_5 1_555 1_555
O53_5 C66_5 1_555 1_555
C65_5 C66_5 1_555 1_555
C68_5 C96_5 1_555 1_555
O60_5 K4_5 1_555 1_555
C70_5 C71_5 1_555 1_555
C71_5 O64_5 1_555 1_555
C84_5 O83_5 1_555 1_555
C92_5 O91_5 1_555 1_555
C93_5 O93_2 1_555 1_555
C94_5 C95_5 1_555 1_555
C95_5 O96_5 1_555 1_555
C96_5 O97_5 1_555 1_555
O52_5 H135_5 1_555 1_555
C66_5 H136_5 1_555 1_555
O63_5 H137_5 1_555 1_555
O4_5 H141_5 1_555 1_555
C53_5 H146_5 1_555 1_555
O46_5 H147_5 1_555 1_555
O99_2 H148_5 1_555 1_555
O99_2 H149_5 1_555 1_555
O40_9 H150_5 1_555 1_555
C1_5 H1_5 1_555 1_555
H2_5 C1_5 1_555 1_555
C2_5 C1_5 1_555 1_555
H3_5 C2_5 1_555 1_555
C3_5 C2_5 1_555 1_555
H4_5 C3_5 1_555 1_555
C4_5 C3_5 1_555 1_555
H5_5 C4_5 1_555 1_555
O2_5 C4_5 1_555 1_555
H6_5 O2_5 1_555 1_555
C5_5 C4_5 1_555 1_555
H7_5 C5_5 1_555 1_555
C6_5 C5_5 1_555 1_555
H8_5 C6_5 1_555 1_555
O3_5 C2_5 1_555 1_555
C7_5 H9_5 1_555 1_555
H10_5 C7_5 1_555 1_555
C8_5 C7_5 1_555 1_555
H11_5 C8_5 1_555 1_555
O5_5 C8_5 1_555 1_555
C9_5 C8_5 1_555 1_555
H12_5 C9_5 1_555 1_555
O6_5 C9_5 1_555 1_555
C10_5 C9_5 1_555 1_555
H13_5 C10_5 1_555 1_555
O7_5 C10_5 1_555 1_555
C11_5 C10_5 1_555 1_555
H14_5 C11_5 1_555 1_555
O8_5 C11_5 1_555 1_555
C12_5 O5_5 1_555 1_555
H15_5 C12_5 1_555 1_555
O9_5 C3_5 1_555 1_555
C14_5 H17_5 1_555 1_555
O54 C14_5 1_555 1_555
C15_5 C14_5 1_555 1_555
C16_5 C15_5 1_555 1_555
H19_5 C16_5 1_555 1_555
O13_5 C16_5 1_555 1_555
H20_5 O13_5 1_555 1_555
C17_5 C16_5 1_555 1_555
H21_5 C17_5 1_555 1_555
O14_5 C17_5 1_555 1_555
H22_5 O14_5 1_555 1_555
C18_5 O6_5 1_555 1_555
C27_5 C26_5 1_555 1_555
H35_5 C27_5 1_555 1_555
O20_5 C27_5 1_555 1_555
H36_5 O20_5 1_555 1_555
C30_5 H40_5 1_555 1_555
H41_5 C30_5 1_555 1_555
O23_5 C30_5 1_555 1_555
C31_5 C30_5 1_555 1_555
H42_5 C31_5 1_555 1_555
O24_5 C31_5 1_555 1_555
C32_5 C31_5 1_555 1_555
H43_5 C32_5 1_555 1_555
O25_5 C32_5 1_555 1_555
C33_5 C32_5 1_555 1_555
H44_5 C33_5 1_555 1_555
O26_5 C33_5 1_555 1_555
C34_5 C33_5 1_555 1_555
H45_5 C34_5 1_555 1_555
O27_5 C34_5 1_555 1_555
C35_5 O24_5 1_555 1_555
H46_5 C35_5 1_555 1_555
O28_5 C26_5 1_555 1_555
C36_5 H47_5 1_555 1_555
H48_5 C36_5 1_555 1_555
O29_5 C36_5 1_555 1_555
C37_5 C36_5 1_555 1_555
H49_5 C37_5 1_555 1_555
C38_5 C37_5 1_555 1_555
H50_5 C38_5 1_555 1_555
C39_5 C38_5 1_555 1_555
H51_5 C39_5 1_555 1_555
O30_5 C39_5 1_555 1_555
H52_5 O30_5 1_555 1_555
C40_5 C39_5 1_555 1_555
H53_5 C40_5 1_555 1_555
O31_5 C40_5 1_555 1_555
H54_5 O31_5 1_555 1_555
C41_5 O25_5 1_555 1_555
H55_5 C41_5 1_555 1_555
O32_5 C37_5 1_555 1_555
C42_5 H56_5 1_555 1_555
H57_5 C42_5 1_555 1_555
O33_5 C42_5 1_555 1_555
H58_5 O33_5 1_555 1_555
C43_5 C42_5 1_555 1_555
H59_5 C43_5 1_555 1_555
O34_5 C43_5 1_555 1_555
C44_5 C43_5 1_555 1_555
H60_5 C44_5 1_555 1_555
O35_5 C6_5 1_555 1_555
C45_5 C44_5 1_555 1_555
H61_5 C45_5 1_555 1_555
O36_5 C45_5 1_555 1_555
C46_5 C45_5 1_555 1_555
H62_5 C46_5 1_555 1_555
O37_5 C46_5 1_555 1_555
C47_5 O34_5 1_555 1_555
H63_5 C47_5 1_555 1_555
O38_5 C38_5 1_555 1_555
O40_10 K1_2 1_555 1_555
K9_3 O7_5 1_555 1_555
C72_5 H95_5 1_555 1_555
H96_5 C72_5 1_555 1_555
O65_4 C72_5 1_555 1_555
C73_5 C72_5 1_555 1_555
C74_5 C73_5 1_555 1_555
H98_5 C74_5 1_555 1_555
C75_5 C74_5 1_555 1_555
H99_5 C75_5 1_555 1_555
O68_5 C75_5 1_555 1_555
H100_5 O68_5 1_555 1_555
C76_5 C75_5 1_555 1_555
H101_5 C76_5 1_555 1_555
O69_5 C76_5 1_555 1_555
H102_5 O69_5 1_555 1_555
C77_5 C76_5 1_555 1_555
H103_5 C77_5 1_555 1_555
O70_4 C73_5 1_555 1_555
C78_5 H104_5 1_555 1_555
H105_5 C78_5 1_555 1_555
O73_5 C78_5 1_555 1_555
C79_5 C78_5 1_555 1_555
H106_5 C79_5 1_555 1_555
O74_5 C79_5 1_555 1_555
C80_5 C79_5 1_555 1_555
H107_5 C80_5 1_555 1_555
O75_5 C80_5 1_555 1_555
C81_5 C80_5 1_555 1_555
H108_5 C81_5 1_555 1_555
O78_2 C81_5 1_555 1_555
O77_5 K9_3 1_555 1_555
C82_5 C81_5 1_555 1_555
H109_5 C82_5 1_555 1_555
O81_2 C82_5 1_555 1_555
O80_5 K9_3 1_555 1_555
C83_5 O74_5 1_555 1_555
H110_5 C83_5 1_555 1_555
O82_5 C74_5 1_555 1_555
C86_5 C85_5 1_555 1_555
H114_5 C86_5 1_555 1_555
C87_5 C86_5 1_555 1_555
H115_5 C87_5 1_555 1_555
O85_5 C87_5 1_555 1_555
H116_5 O85_5 1_555 1_555
C88_5 C87_5 1_555 1_555
H117_5 C88_5 1_555 1_555
O86_5 C88_5 1_555 1_555
H118_5 O86_5 1_555 1_555
C89_5 O75_5 1_555 1_555
H119_5 C89_5 1_555 1_555
O87_5 K9_3 1_555 1_555
K6 O26_5 1_555 1_555
K7_2 O29_5 1_555 1_555
K9_4 O65_4 1_555 1_555
K12_2 O36_5 1_555 1_555
C6_5 O3_5 1_555 1_555
C11_5 C12_5 1_555 1_555
O8_5 K9_3 1_555 1_555
C12_5 O9_5 1_555 1_555
O54 C18_5 1_555 1_555
C17_5 C18_5 1_555 1_555
C34_5 C35_5 1_555 1_555
O27_5 K6 1_555 1_555
C35_5 O28_5 1_555 1_555
C40_5 C41_5 1_555 1_555
C41_5 O32_5 1_555 1_555
O32_5 K7_2 1_555 1_555
C44_5 O35_5 1_555 1_555
C46_5 C47_5 1_555 1_555
O37_5 K12_2 1_555 1_555
C47_5 O38_5 1_555 1_555
C77_5 O70_4 1_555 1_555
O70_4 K9_4 1_555 1_555
C82_5 C83_5 1_555 1_555
C83_5 O82_5 1_555 1_555
C85_5 O87_5 1_555 1_555
C88_5 C89_5 1_555 1_555
C89_5 O87_5 1_555 1_555
O73_5 H138_5 1_555 1_555
C5_5 H140_5 1_555 1_555
C18_5 H143_5 1_555 1_555
O23_5 H144_5 1_555 1_555
C13_5 H16_5 1_555 1_555
O10_5 C13_5 1_555 1_555
C19_5 H23_5 1_555 1_555
H24_5 C19_5 1_555 1_555
O15_5 C19_5 1_555 1_555
H25_5 O15_5 1_555 1_555
C20_5 C19_5 1_555 1_555
H26_5 C20_5 1_555 1_555
H27_5 C21_5 1_555 1_555
H28_5 C21_5 1_555 1_555
O61 C21_5 1_555 1_555
C22_5 C13_5 1_555 1_555
H29_5 C22_5 1_555 1_555
O17_5 C22_5 1_555 1_555
C23_5 O12_5 1_555 1_555
H30_5 C23_5 1_555 1_555
O18_5 C20_5 1_555 1_555
C24_5 H31_5 1_555 1_555
H32_5 C24_5 1_555 1_555
O19_5 C24_5 1_555 1_555
C25_5 C24_5 1_555 1_555
H37_5 C28_5 1_555 1_555
O21_5 C28_5 1_555 1_555
C29_5 C28_5 1_555 1_555
H39_5 C29_5 1_555 1_555
O22_5 C25_5 1_555 1_555
C48_5 C13_5 1_555 1_555
H64_5 C48_5 1_555 1_555
O39_5 C29_5 1_555 1_555
K7 O19_5 1_555 1_555
C20_5 C48_5 1_555 1_555
C22_5 C23_5 1_555 1_555
C23_5 O18_5 1_555 1_555
C29_5 O22_5 1_555 1_555
O22_5 K7 1_555 1_555
C48_5 O39_5 1_555 1_555
O10_5 H142_5 1_555 1_555
O17_5 H145_5 1_555 1_555
O44_6 C52_6 1_555 1_555
H70_6 O44_6 1_555 1_555
C53_6 C52_6 1_555 1_555
H71_6 C53_6 1_555 1_555
H77_6 C58_6 1_555 1_555
O49_6 C58_6 1_555 1_555
C59_6 C58_6 1_555 1_555
H78_6 C59_6 1_555 1_555
O50_6 C59_6 1_555 1_555
H85_6 C65_6 1_555 1_555
O58_6 C65_6 1_555 1_555
H86_6 O58_6 1_555 1_555
O67_6 K10 1_555 1_555
O72_6 K10 1_555 1_555
O84_6 K10 1_555 1_555
O88_6 K10 1_555 1_555
K10 O49_6 1_555 1_555
O50_6 K10 1_555 1_555
C53_6 H146_6 1_555 1_555
C36_6 H47_6 1_555 1_555
H48_6 C36_6 1_555 1_555
O29_6 C36_6 1_555 1_555
C37_6 C36_6 1_555 1_555
H49_6 C37_6 1_555 1_555
C38_6 C37_6 1_555 1_555
H50_6 C38_6 1_555 1_555
C39_6 C38_6 1_555 1_555
O30_6 C39_6 1_555 1_555
H52_6 O30_6 1_555 1_555
C40_6 C39_6 1_555 1_555
H53_6 C40_6 1_555 1_555
H55_6 C41_6 1_555 1_555
O32_6 C37_6 1_555 1_555
C42_6 H56_6 1_555 1_555
H57_6 C42_6 1_555 1_555
O33_6 C42_6 1_555 1_555
H58_6 O33_6 1_555 1_555
C43_6 C42_6 1_555 1_555
O34_6 C43_6 1_555 1_555
C44_6 C43_6 1_555 1_555
H60_6 C44_6 1_555 1_555
C45_6 C44_6 1_555 1_555
C46_6 C45_6 1_555 1_555
H62_6 C46_6 1_555 1_555
O37_6 C46_6 1_555 1_555
C47_6 O34_6 1_555 1_555
H63_6 C47_6 1_555 1_555
O38_6 C38_6 1_555 1_555
K7 O29_6 1_555 1_555
C40_6 C41_6 1_555 1_555
C41_6 O32_6 1_555 1_555
O32_6 K7 1_555 1_555
C46_6 C47_6 1_555 1_555
O37_6 K12 1_555 1_555
C47_6 O38_6 1_555 1_555
O23_6 H144_6 1_555 1_555
C49_6 H65_6 1_555 1_555
H66_6 C49_6 1_555 1_555
O42_6 C49_6 1_555 1_555
C50_6 C49_6 1_555 1_555
H67_6 C50_6 1_555 1_555
C51_6 C50_6 1_555 1_555
H72_6 C54_6 1_555 1_555
O45_6 C50_6 1_555 1_555
C55_6 H73_6 1_555 1_555
H74_6 C55_6 1_555 1_555
O46_6 C55_6 1_555 1_555
C56_6 C55_6 1_555 1_555
H75_6 C56_6 1_555 1_555
O47_6 C56_6 1_555 1_555
C57_6 C56_6 1_555 1_555
O48_6 C57_6 1_555 1_555
C60_6 O47_6 1_555 1_555
O51_6 C51_6 1_555 1_555
C61_6 H80_6 1_555 1_555
O52_6 C61_6 1_555 1_555
C62_6 H81_6 1_555 1_555
O53_6 C62_6 1_555 1_555
O55_6 K4_6 1_555 1_555
C63_6 C62_6 1_555 1_555
H82_6 C63_6 1_555 1_555
O56_6 C63_6 1_555 1_555
C64_6 C63_6 1_555 1_555
H83_6 C64_6 1_555 1_555
O57_6 C64_6 1_555 1_555
H84_6 O57_6 1_555 1_555
C66_6 O48_6 1_555 1_555
C67_6 H87_6 1_555 1_555
H88_6 C67_6 1_555 1_555
O59_6 C67_6 1_555 1_555
H89_6 O59_6 1_555 1_555
C68_6 C67_6 1_555 1_555
H90_6 C68_6 1_555 1_555
C69_6 C62_6 1_555 1_555
H91_6 C69_6 1_555 1_555
H92_6 C69_6 1_555 1_555
O60_6 C69_6 1_555 1_555
O62_6 K4_6 1_555 1_555
C70_6 C61_6 1_555 1_555
H93_6 C70_6 1_555 1_555
O63_6 C70_6 1_555 1_555
C71_6 O56_6 1_555 1_555
H94_6 C71_6 1_555 1_555
O64_6 C68_6 1_555 1_555
C84_6 H111_6 1_555 1_555
H112_6 C84_6 1_555 1_555
C90_6 H120_6 1_555 1_555
H121_6 C90_6 1_555 1_555
O89_6 C90_6 1_555 1_555
H122_6 O89_6 1_555 1_555
C91_6 C90_6 1_555 1_555
H123_6 C91_6 1_555 1_555
O90_6 C91_6 1_555 1_555
C92_6 C91_6 1_555 1_555
H124_6 C92_6 1_555 1_555
O91_6 C54_6 1_555 1_555
C93_6 C92_6 1_555 1_555
H125_6 C93_6 1_555 1_555
C94_6 C93_6 1_555 1_555
H126_6 C94_6 1_555 1_555
C95_6 O90_6 1_555 1_555
H127_6 C95_6 1_555 1_555
C96_6 C61_6 1_555 1_555
H128_6 C96_6 1_555 1_555
K4_6 O53_6 1_555 1_555
K11 O42_6 1_555 1_555
C54_6 O45_6 1_555 1_555
C60_6 O51_6 1_555 1_555
O53_6 C66_6 1_555 1_555
C68_6 C96_6 1_555 1_555
O60_6 K4_6 1_555 1_555
C70_6 C71_6 1_555 1_555
C71_6 O64_6 1_555 1_555
C84_6 O83_6 1_555 1_555
C92_6 O91_6 1_555 1_555
C93_6 O93 1_555 1_555
C94_6 C95_6 1_555 1_555
C95_6 O96_6 1_555 1_555
C96_6 O97_6 1_555 1_555
O52_6 H135_6 1_555 1_555
O63_6 H137_6 1_555 1_555
O4_6 H141_6 1_555 1_555
O46_6 H147_6 1_555 1_555
O99 H148_6 1_555 1_555
O99 H149_6 1_555 1_555
O40_5 H150_6 1_555 1_555
O40_5 H151_6 1_555 1_555
C1_6 H1_6 1_555 1_555
H2_6 C1_6 1_555 1_555
C2_6 C1_6 1_555 1_555
H3_6 C2_6 1_555 1_555
C3_6 C2_6 1_555 1_555
H4_6 C3_6 1_555 1_555
C4_6 C3_6 1_555 1_555
H5_6 C4_6 1_555 1_555
O2_6 C4_6 1_555 1_555
H6_6 O2_6 1_555 1_555
C5_6 C4_6 1_555 1_555
H7_6 C5_6 1_555 1_555
C6_6 C5_6 1_555 1_555
H8_6 C6_6 1_555 1_555
O3_6 C2_6 1_555 1_555
C7_6 H9_6 1_555 1_555
H10_6 C7_6 1_555 1_555
C8_6 C7_6 1_555 1_555
H11_6 C8_6 1_555 1_555
O5_6 C8_6 1_555 1_555
C9_6 C8_6 1_555 1_555
H12_6 C9_6 1_555 1_555
O6_6 C9_6 1_555 1_555
C10_6 C9_6 1_555 1_555
H13_6 C10_6 1_555 1_555
O7_6 C10_6 1_555 1_555
C11_6 C10_6 1_555 1_555
H14_6 C11_6 1_555 1_555
O8_6 C11_6 1_555 1_555
C12_6 O5_6 1_555 1_555
H15_6 C12_6 1_555 1_555
O9_6 C3_6 1_555 1_555
C13_6 H16_6 1_555 1_555
O10_6 C13_6 1_555 1_555
C14_6 H17_6 1_555 1_555
O54_3 C14_6 1_555 1_555
C15_6 C14_6 1_555 1_555
H18_6 C15_6 1_555 1_555
O12_6 C15_6 1_555 1_555
C16_6 C15_6 1_555 1_555
H19_6 C16_6 1_555 1_555
O13_6 C16_6 1_555 1_555
H20_6 O13_6 1_555 1_555
C17_6 C16_6 1_555 1_555
H21_6 C17_6 1_555 1_555
O14_6 C17_6 1_555 1_555
H22_6 O14_6 1_555 1_555
C18_6 O6_6 1_555 1_555
C19_6 H23_6 1_555 1_555
H24_6 C19_6 1_555 1_555
O15_6 C19_6 1_555 1_555
H25_6 O15_6 1_555 1_555
C20_6 C19_6 1_555 1_555
H26_6 C20_6 1_555 1_555
C21_6 C14_6 1_555 1_555
H27_6 C21_6 1_555 1_555
H28_6 C21_6 1_555 1_555
O61_3 C21_6 1_555 1_555
C22_6 C13_6 1_555 1_555
H29_6 C22_6 1_555 1_555
O17_6 C22_6 1_555 1_555
C23_6 O12_6 1_555 1_555
H30_6 C23_6 1_555 1_555
O18_6 C20_6 1_555 1_555
C24_6 H31_6 1_555 1_555
H32_6 C24_6 1_555 1_555
O19_6 C24_6 1_555 1_555
C25_6 C24_6 1_555 1_555
H33_6 C25_6 1_555 1_555
C26_6 C25_6 1_555 1_555
H34_6 C26_6 1_555 1_555
C27_6 C26_6 1_555 1_555
H35_6 C27_6 1_555 1_555
O20_6 C27_6 1_555 1_555
H36_6 O20_6 1_555 1_555
C28_6 C27_6 1_555 1_555
H37_6 C28_6 1_555 1_555
O21_6 C28_6 1_555 1_555
H38_6 O21_6 1_555 1_555
C29_6 C28_6 1_555 1_555
H39_6 C29_6 1_555 1_555
O22_6 C25_6 1_555 1_555
H41_6 C30_6 1_555 1_555
C31_6 C30_6 1_555 1_555
H42_6 C31_6 1_555 1_555
O24_6 C31_6 1_555 1_555
C32_6 C31_6 1_555 1_555
H43_6 C32_6 1_555 1_555
O25_6 C32_6 1_555 1_555
C33_6 C32_6 1_555 1_555
H44_6 C33_6 1_555 1_555
O26_6 C33_6 1_555 1_555
C34_6 C33_6 1_555 1_555
H45_6 C34_6 1_555 1_555
O27_6 C34_6 1_555 1_555
C35_6 O24_6 1_555 1_555
H46_6 C35_6 1_555 1_555
O28_6 C26_6 1_555 1_555
H54_6 O31_6 1_555 1_555
O35_6 C6_6 1_555 1_555
C48_6 C13_6 1_555 1_555
H64_6 C48_6 1_555 1_555
O39_6 C29_6 1_555 1_555
K9_4 O7_6 1_555 1_555
C72_6 H95_6 1_555 1_555
H96_6 C72_6 1_555 1_555
O66_2 C72_6 1_555 1_555
C73_6 C72_6 1_555 1_555
C74_6 C73_6 1_555 1_555
H98_6 C74_6 1_555 1_555
C75_6 C74_6 1_555 1_555
H99_6 C75_6 1_555 1_555
O68_6 C75_6 1_555 1_555
H100_6 O68_6 1_555 1_555
C76_6 C75_6 1_555 1_555
H101_6 C76_6 1_555 1_555
O69_6 C76_6 1_555 1_555
H102_6 O69_6 1_555 1_555
C77_6 C76_6 1_555 1_555
H103_6 C77_6 1_555 1_555
O71_2 C73_6 1_555 1_555
C78_6 H104_6 1_555 1_555
H105_6 C78_6 1_555 1_555
O73_6 C78_6 1_555 1_555
C79_6 C78_6 1_555 1_555
H106_6 C79_6 1_555 1_555
O74_6 C79_6 1_555 1_555
C80_6 C79_6 1_555 1_555
H107_6 C80_6 1_555 1_555
O75_6 C80_6 1_555 1_555
C81_6 C80_6 1_555 1_555
H108_6 C81_6 1_555 1_555
O78 C81_6 1_555 1_555
O77_6 K9_4 1_555 1_555
C82_6 C81_6 1_555 1_555
H109_6 C82_6 1_555 1_555
O81 C82_6 1_555 1_555
O80_6 K9_4 1_555 1_555
C83_6 O74_6 1_555 1_555
H110_6 C83_6 1_555 1_555
O82_6 C74_6 1_555 1_555
C86_6 C85_6 1_555 1_555
H114_6 C86_6 1_555 1_555
C87_6 C86_6 1_555 1_555
H115_6 C87_6 1_555 1_555
O85_6 C87_6 1_555 1_555
H116_6 O85_6 1_555 1_555
C88_6 C87_6 1_555 1_555
H117_6 C88_6 1_555 1_555
O86_6 C88_6 1_555 1_555
H118_6 O86_6 1_555 1_555
C89_6 O75_6 1_555 1_555
H119_6 C89_6 1_555 1_555
O87_6 K9_4 1_555 1_555
K7_3 O19_6 1_555 1_555
K8 O26_6 1_555 1_555
C6_6 O3_6 1_555 1_555
C11_6 C12_6 1_555 1_555
O8_6 K9_4 1_555 1_555
C12_6 O9_6 1_555 1_555
O54_3 C18_6 1_555 1_555
C17_6 C18_6 1_555 1_555
C20_6 C48_6 1_555 1_555
C22_6 C23_6 1_555 1_555
C23_6 O18_6 1_555 1_555
C29_6 O22_6 1_555 1_555
O22_6 K7_3 1_555 1_555
C34_6 C35_6 1_555 1_555
O27_6 K8 1_555 1_555
C35_6 O28_6 1_555 1_555
C48_6 O39_6 1_555 1_555
C77_6 O71_2 1_555 1_555
C82_6 C83_6 1_555 1_555
C83_6 O82_6 1_555 1_555
C85_6 O87_6 1_555 1_555
C88_6 C89_6 1_555 1_555
C89_6 O87_6 1_555 1_555
O73_6 H138_6 1_555 1_555
C5_6 H140_6 1_555 1_555
O10_6 H142_6 1_555 1_555
C18_6 H143_6 1_555 1_555
O17_6 H145_6 1_555 1_555
C1_7 H1_7 1_555 1_555
H2_7 C1_7 1_555 1_555
O1_4 C1_7 1_555 1_555
C2_7 C1_7 1_555 1_555
H3_7 C2_7 1_555 1_555
C3_7 C2_7 1_555 1_555
H4_7 C3_7 1_555 1_555
C4_7 C3_7 1_555 1_555
H5_7 C4_7 1_555 1_555
O2_7 C4_7 1_555 1_555
H6_7 O2_7 1_555 1_555
C5_7 C4_7 1_555 1_555
H7_7 C5_7 1_555 1_555
C6_7 C5_7 1_555 1_555
H8_7 C6_7 1_555 1_555
O3_7 C2_7 1_555 1_555
C7_7 H9_7 1_555 1_555
H10_7 C7_7 1_555 1_555
O4_7 C7_7 1_555 1_555
C8_7 C7_7 1_555 1_555
H11_7 C8_7 1_555 1_555
O5_7 C8_7 1_555 1_555
C9_7 C8_7 1_555 1_555
H12_7 C9_7 1_555 1_555
O6_7 C9_7 1_555 1_555
C10_7 C9_7 1_555 1_555
H13_7 C10_7 1_555 1_555
O7_7 C10_7 1_555 1_555
C11_7 C10_7 1_555 1_555
H14_7 C11_7 1_555 1_555
O8_7 C11_7 1_555 1_555
C12_7 O5_7 1_555 1_555
H15_7 C12_7 1_555 1_555
O9_7 C3_7 1_555 1_555
C13_7 H16_7 1_555 1_555
O10_7 C13_7 1_555 1_555
C14_7 H17_7 1_555 1_555
O55_6 C14_7 1_555 1_555
C15_7 C14_7 1_555 1_555
H18_7 C15_7 1_555 1_555
O12_7 C15_7 1_555 1_555
C16_7 C15_7 1_555 1_555
H19_7 C16_7 1_555 1_555
O13_7 C16_7 1_555 1_555
H20_7 O13_7 1_555 1_555
C17_7 C16_7 1_555 1_555
H21_7 C17_7 1_555 1_555
O14_7 C17_7 1_555 1_555
H22_7 O14_7 1_555 1_555
C18_7 O6_7 1_555 1_555
C19_7 H23_7 1_555 1_555
H24_7 C19_7 1_555 1_555
O15_7 C19_7 1_555 1_555
H25_7 O15_7 1_555 1_555
C20_7 C19_7 1_555 1_555
H26_7 C20_7 1_555 1_555
C21_7 C14_7 1_555 1_555
H27_7 C21_7 1_555 1_555
H28_7 C21_7 1_555 1_555
O62_6 C21_7 1_555 1_555
C22_7 C13_7 1_555 1_555
H29_7 C22_7 1_555 1_555
O17_7 C22_7 1_555 1_555
C23_7 O12_7 1_555 1_555
H30_7 C23_7 1_555 1_555
O18_7 C20_7 1_555 1_555
C24_7 H31_7 1_555 1_555
H32_7 C24_7 1_555 1_555
O67 C24_7 1_555 1_555
C25_7 C24_7 1_555 1_555
H33_7 C25_7 1_555 1_555
C26_7 C25_7 1_555 1_555
H34_7 C26_7 1_555 1_555
C27_7 C26_7 1_555 1_555
H35_7 C27_7 1_555 1_555
O20_7 C27_7 1_555 1_555
H36_7 O20_7 1_555 1_555
C28_7 C27_7 1_555 1_555
H37_7 C28_7 1_555 1_555
O21_7 C28_7 1_555 1_555
H38_7 O21_7 1_555 1_555
C29_7 C28_7 1_555 1_555
H39_7 C29_7 1_555 1_555
O72 C25_7 1_555 1_555
C30_7 H40_7 1_555 1_555
H41_7 C30_7 1_555 1_555
O23_7 C30_7 1_555 1_555
C31_7 C30_7 1_555 1_555
H42_7 C31_7 1_555 1_555
O24_7 C31_7 1_555 1_555
C32_7 C31_7 1_555 1_555
H43_7 C32_7 1_555 1_555
O25_7 C32_7 1_555 1_555
C33_7 C32_7 1_555 1_555
H44_7 C33_7 1_555 1_555
O77_4 C33_7 1_555 1_555
C34_7 C33_7 1_555 1_555
H45_7 C34_7 1_555 1_555
O80_4 C34_7 1_555 1_555
C35_7 O24_7 1_555 1_555
H46_7 C35_7 1_555 1_555
O28_7 C26_7 1_555 1_555
C36_7 H47_7 1_555 1_555
H48_7 C36_7 1_555 1_555
O84_3 C36_7 1_555 1_555
C37_7 C36_7 1_555 1_555
H49_7 C37_7 1_555 1_555
C38_7 C37_7 1_555 1_555
H50_7 C38_7 1_555 1_555
C39_7 C38_7 1_555 1_555
H51_7 C39_7 1_555 1_555
O30_7 C39_7 1_555 1_555
H52_7 O30_7 1_555 1_555
C40_7 C39_7 1_555 1_555
H53_7 C40_7 1_555 1_555
O31_7 C40_7 1_555 1_555
H54_7 O31_7 1_555 1_555
C41_7 O25_7 1_555 1_555
H55_7 C41_7 1_555 1_555
O88_3 C37_7 1_555 1_555
C42_7 H56_7 1_555 1_555
H57_7 C42_7 1_555 1_555
O33_7 C42_7 1_555 1_555
H58_7 O33_7 1_555 1_555
C43_7 C42_7 1_555 1_555
H59_7 C43_7 1_555 1_555
O34_7 C43_7 1_555 1_555
C44_7 C43_7 1_555 1_555
H60_7 C44_7 1_555 1_555
O35_7 C6_7 1_555 1_555
C45_7 C44_7 1_555 1_555
H61_7 C45_7 1_555 1_555
O36_7 C45_7 1_555 1_555
C46_7 C45_7 1_555 1_555
H62_7 C46_7 1_555 1_555
O37_7 C46_7 1_555 1_555
C47_7 O34_7 1_555 1_555
H63_7 C47_7 1_555 1_555
O38_7 C38_7 1_555 1_555
C48_7 C13_7 1_555 1_555
H64_7 C48_7 1_555 1_555
O39_7 C29_7 1_555 1_555
O41_4 K11_3 1_555 1_555
K6_2 O7_7 1_555 1_555
K11_3 O1_4 1_555 1_555
O99_4 K11_3 1_555 1_555
C6_7 O3_7 1_555 1_555
C11_7 C12_7 1_555 1_555
O8_7 K6_2 1_555 1_555
C12_7 O9_7 1_555 1_555
O55_6 C18_7 1_555 1_555
C17_7 C18_7 1_555 1_555
C20_7 C48_7 1_555 1_555
C22_7 C23_7 1_555 1_555
C23_7 O18_7 1_555 1_555
C29_7 O72 1_555 1_555
C34_7 C35_7 1_555 1_555
C35_7 O28_7 1_555 1_555
C40_7 C41_7 1_555 1_555
C41_7 O88_3 1_555 1_555
C44_7 O35_7 1_555 1_555
C46_7 C47_7 1_555 1_555
C47_7 O38_7 1_555 1_555
C48_7 O39_7 1_555 1_555
C5_7 H140_7 1_555 1_555
O4_7 H141_7 1_555 1_555
O10_7 H142_7 1_555 1_555
C18_7 H143_7 1_555 1_555
O23_7 H144_7 1_555 1_555
O17_7 H145_7 1_555 1_555
O41_4 H148_7 1_555 1_555
O41_4 H149_7 1_555 1_555
C1_8 H1_8 1_555 1_555
H2_8 C1_8 1_555 1_555
O1_5 C1_8 1_555 1_555
C2_8 C1_8 1_555 1_555
H3_8 C2_8 1_555 1_555
C3_8 C2_8 1_555 1_555
H4_8 C3_8 1_555 1_555
C4_8 C3_8 1_555 1_555
H5_8 C4_8 1_555 1_555
O2_8 C4_8 1_555 1_555
H6_8 O2_8 1_555 1_555
C5_8 C4_8 1_555 1_555
H7_8 C5_8 1_555 1_555
C6_8 C5_8 1_555 1_555
H8_8 C6_8 1_555 1_555
O3_8 C2_8 1_555 1_555
C7_8 H9_8 1_555 1_555
H10_8 C7_8 1_555 1_555
O4_8 C7_8 1_555 1_555
C8_8 C7_8 1_555 1_555
H11_8 C8_8 1_555 1_555
O5_8 C8_8 1_555 1_555
C9_8 C8_8 1_555 1_555
H12_8 C9_8 1_555 1_555
O6_8 C9_8 1_555 1_555
C10_8 C9_8 1_555 1_555
H13_8 C10_8 1_555 1_555
O7_8 C10_8 1_555 1_555
C11_8 C10_8 1_555 1_555
H14_8 C11_8 1_555 1_555
O8_8 C11_8 1_555 1_555
C12_8 O5_8 1_555 1_555
H15_8 C12_8 1_555 1_555
O9_8 C3_8 1_555 1_555
C13_8 H16_8 1_555 1_555
O10_8 C13_8 1_555 1_555
C14_8 H17_8 1_555 1_555
O55_5 C14_8 1_555 1_555
C15_8 C14_8 1_555 1_555
H18_8 C15_8 1_555 1_555
O12_8 C15_8 1_555 1_555
C16_8 C15_8 1_555 1_555
H19_8 C16_8 1_555 1_555
O13_8 C16_8 1_555 1_555
H20_8 O13_8 1_555 1_555
C17_8 C16_8 1_555 1_555
H21_8 C17_8 1_555 1_555
O14_8 C17_8 1_555 1_555
H22_8 O14_8 1_555 1_555
C18_8 O6_8 1_555 1_555
C19_8 H23_8 1_555 1_555
H24_8 C19_8 1_555 1_555
O15_8 C19_8 1_555 1_555
H25_8 O15_8 1_555 1_555
C20_8 C19_8 1_555 1_555
H26_8 C20_8 1_555 1_555
C21_8 C14_8 1_555 1_555
H27_8 C21_8 1_555 1_555
H28_8 C21_8 1_555 1_555
O62_5 C21_8 1_555 1_555
C22_8 C13_8 1_555 1_555
H29_8 C22_8 1_555 1_555
O17_8 C22_8 1_555 1_555
C23_8 O12_8 1_555 1_555
H30_8 C23_8 1_555 1_555
O18_8 C20_8 1_555 1_555
C24_8 H31_8 1_555 1_555
H32_8 C24_8 1_555 1_555
O67_2 C24_8 1_555 1_555
C25_8 C24_8 1_555 1_555
H33_8 C25_8 1_555 1_555
C26_8 C25_8 1_555 1_555
H34_8 C26_8 1_555 1_555
C27_8 C26_8 1_555 1_555
H35_8 C27_8 1_555 1_555
O20_8 C27_8 1_555 1_555
H36_8 O20_8 1_555 1_555
C28_8 C27_8 1_555 1_555
H37_8 C28_8 1_555 1_555
O21_8 C28_8 1_555 1_555
H38_8 O21_8 1_555 1_555
C29_8 C28_8 1_555 1_555
H39_8 C29_8 1_555 1_555
O72_2 C25_8 1_555 1_555
C30_8 H40_8 1_555 1_555
H41_8 C30_8 1_555 1_555
O23_8 C30_8 1_555 1_555
C31_8 C30_8 1_555 1_555
H42_8 C31_8 1_555 1_555
O24_8 C31_8 1_555 1_555
C32_8 C31_8 1_555 1_555
H43_8 C32_8 1_555 1_555
O25_8 C32_8 1_555 1_555
C33_8 C32_8 1_555 1_555
H44_8 C33_8 1_555 1_555
O77_6 C33_8 1_555 1_555
C34_8 C33_8 1_555 1_555
H45_8 C34_8 1_555 1_555
O80_6 C34_8 1_555 1_555
C35_8 O24_8 1_555 1_555
H46_8 C35_8 1_555 1_555
O28_8 C26_8 1_555 1_555
C36_8 H47_8 1_555 1_555
H48_8 C36_8 1_555 1_555
O84 C36_8 1_555 1_555
C37_8 C36_8 1_555 1_555
H49_8 C37_8 1_555 1_555
C38_8 C37_8 1_555 1_555
H50_8 C38_8 1_555 1_555
C39_8 C38_8 1_555 1_555
H51_8 C39_8 1_555 1_555
O30_8 C39_8 1_555 1_555
H52_8 O30_8 1_555 1_555
C40_8 C39_8 1_555 1_555
H53_8 C40_8 1_555 1_555
O31_8 C40_8 1_555 1_555
H54_8 O31_8 1_555 1_555
C41_8 O25_8 1_555 1_555
H55_8 C41_8 1_555 1_555
O88 C37_8 1_555 1_555
C42_8 H56_8 1_555 1_555
H57_8 C42_8 1_555 1_555
O33_8 C42_8 1_555 1_555
H58_8 O33_8 1_555 1_555
C43_8 C42_8 1_555 1_555
H59_8 C43_8 1_555 1_555
O34_8 C43_8 1_555 1_555
C44_8 C43_8 1_555 1_555
H60_8 C44_8 1_555 1_555
O35_8 C6_8 1_555 1_555
C45_8 C44_8 1_555 1_555
H61_8 C45_8 1_555 1_555
O36_8 C45_8 1_555 1_555
C46_8 C45_8 1_555 1_555
H62_8 C46_8 1_555 1_555
O37_8 C46_8 1_555 1_555
C47_8 O34_8 1_555 1_555
H63_8 C47_8 1_555 1_555
O38_8 C38_8 1_555 1_555
C48_8 C13_8 1_555 1_555
H64_8 C48_8 1_555 1_555
O39_8 C29_8 1_555 1_555
O41_5 K11 1_555 1_555
K8 O7_8 1_555 1_555
K11 O1_5 1_555 1_555
O99_5 K11 1_555 1_555
C6_8 O3_8 1_555 1_555
C11_8 C12_8 1_555 1_555
O8_8 K8 1_555 1_555
C12_8 O9_8 1_555 1_555
O55_5 C18_8 1_555 1_555
C17_8 C18_8 1_555 1_555
C20_8 C48_8 1_555 1_555
C22_8 C23_8 1_555 1_555
C23_8 O18_8 1_555 1_555
C29_8 O72_2 1_555 1_555
C34_8 C35_8 1_555 1_555
C35_8 O28_8 1_555 1_555
C40_8 C41_8 1_555 1_555
C41_8 O88 1_555 1_555
C44_8 O35_8 1_555 1_555
C46_8 C47_8 1_555 1_555
C47_8 O38_8 1_555 1_555
C48_8 O39_8 1_555 1_555
C5_8 H140_8 1_555 1_555
O4_8 H141_8 1_555 1_555
O10_8 H142_8 1_555 1_555
C18_8 H143_8 1_555 1_555
O23_8 H144_8 1_555 1_555
O17_8 H145_8 1_555 1_555
O41_5 H148_8 1_555 1_555
O41_5 H149_8 1_555 1_555
C1_9 H1_9 1_555 1_555
H2_9 C1_9 1_555 1_555
O1_6 C1_9 1_555 1_555
C2_9 C1_9 1_555 1_555
H3_9 C2_9 1_555 1_555
C3_9 C2_9 1_555 1_555
H4_9 C3_9 1_555 1_555
C4_9 C3_9 1_555 1_555
H5_9 C4_9 1_555 1_555
O2_9 C4_9 1_555 1_555
H6_9 O2_9 1_555 1_555
C5_9 C4_9 1_555 1_555
H7_9 C5_9 1_555 1_555
C6_9 C5_9 1_555 1_555
H8_9 C6_9 1_555 1_555
O3_9 C2_9 1_555 1_555
C7_9 H9_9 1_555 1_555
H10_9 C7_9 1_555 1_555
O4_9 C7_9 1_555 1_555
C8_9 C7_9 1_555 1_555
H11_9 C8_9 1_555 1_555
O5_9 C8_9 1_555 1_555
C9_9 C8_9 1_555 1_555
H12_9 C9_9 1_555 1_555
O6_9 C9_9 1_555 1_555
C10_9 C9_9 1_555 1_555
H13_9 C10_9 1_555 1_555
O7_9 C10_9 1_555 1_555
C11_9 C10_9 1_555 1_555
H14_9 C11_9 1_555 1_555
O8_9 C11_9 1_555 1_555
C12_9 O5_9 1_555 1_555
H15_9 C12_9 1_555 1_555
O9_9 C3_9 1_555 1_555
C13_9 H16_9 1_555 1_555
O10_9 C13_9 1_555 1_555
C14_9 H17_9 1_555 1_555
O55_4 C14_9 1_555 1_555
C15_9 C14_9 1_555 1_555
H18_9 C15_9 1_555 1_555
O12_9 C15_9 1_555 1_555
C16_9 C15_9 1_555 1_555
H19_9 C16_9 1_555 1_555
O13_9 C16_9 1_555 1_555
H20_9 O13_9 1_555 1_555
C17_9 C16_9 1_555 1_555
H21_9 C17_9 1_555 1_555
O14_9 C17_9 1_555 1_555
H22_9 O14_9 1_555 1_555
C18_9 O6_9 1_555 1_555
C19_9 H23_9 1_555 1_555
H24_9 C19_9 1_555 1_555
O15_9 C19_9 1_555 1_555
H25_9 O15_9 1_555 1_555
C20_9 C19_9 1_555 1_555
H26_9 C20_9 1_555 1_555
C21_9 C14_9 1_555 1_555
H27_9 C21_9 1_555 1_555
H28_9 C21_9 1_555 1_555
O62_4 C21_9 1_555 1_555
C22_9 C13_9 1_555 1_555
H29_9 C22_9 1_555 1_555
O17_9 C22_9 1_555 1_555
C23_9 O12_9 1_555 1_555
H30_9 C23_9 1_555 1_555
O18_9 C20_9 1_555 1_555
C24_9 H31_9 1_555 1_555
H32_9 C24_9 1_555 1_555
O67_3 C24_9 1_555 1_555
C25_9 C24_9 1_555 1_555
H33_9 C25_9 1_555 1_555
C26_9 C25_9 1_555 1_555
H34_9 C26_9 1_555 1_555
C27_9 C26_9 1_555 1_555
H35_9 C27_9 1_555 1_555
O20_9 C27_9 1_555 1_555
H36_9 O20_9 1_555 1_555
C28_9 C27_9 1_555 1_555
H37_9 C28_9 1_555 1_555
O21_9 C28_9 1_555 1_555
H38_9 O21_9 1_555 1_555
C29_9 C28_9 1_555 1_555
H39_9 C29_9 1_555 1_555
O72_3 C25_9 1_555 1_555
C30_9 H40_9 1_555 1_555
H41_9 C30_9 1_555 1_555
O23_9 C30_9 1_555 1_555
C31_9 C30_9 1_555 1_555
H42_9 C31_9 1_555 1_555
O24_9 C31_9 1_555 1_555
C32_9 C31_9 1_555 1_555
H43_9 C32_9 1_555 1_555
O25_9 C32_9 1_555 1_555
C33_9 C32_9 1_555 1_555
H44_9 C33_9 1_555 1_555
O77_5 C33_9 1_555 1_555
C34_9 C33_9 1_555 1_555
H45_9 C34_9 1_555 1_555
O80_5 C34_9 1_555 1_555
C35_9 O24_9 1_555 1_555
H46_9 C35_9 1_555 1_555
O28_9 C26_9 1_555 1_555
C36_9 H47_9 1_555 1_555
H48_9 C36_9 1_555 1_555
O84_2 C36_9 1_555 1_555
C37_9 C36_9 1_555 1_555
H49_9 C37_9 1_555 1_555
C38_9 C37_9 1_555 1_555
H50_9 C38_9 1_555 1_555
C39_9 C38_9 1_555 1_555
H51_9 C39_9 1_555 1_555
O30_9 C39_9 1_555 1_555
H52_9 O30_9 1_555 1_555
C40_9 C39_9 1_555 1_555
H53_9 C40_9 1_555 1_555
O31_9 C40_9 1_555 1_555
H54_9 O31_9 1_555 1_555
C41_9 O25_9 1_555 1_555
H55_9 C41_9 1_555 1_555
O88_2 C37_9 1_555 1_555
C42_9 H56_9 1_555 1_555
H57_9 C42_9 1_555 1_555
O33_9 C42_9 1_555 1_555
H58_9 O33_9 1_555 1_555
C43_9 C42_9 1_555 1_555
H59_9 C43_9 1_555 1_555
O34_9 C43_9 1_555 1_555
C44_9 C43_9 1_555 1_555
H60_9 C44_9 1_555 1_555
O35_9 C6_9 1_555 1_555
C45_9 C44_9 1_555 1_555
H61_9 C45_9 1_555 1_555
O36_9 C45_9 1_555 1_555
C46_9 C45_9 1_555 1_555
H62_9 C46_9 1_555 1_555
O37_9 C46_9 1_555 1_555
C47_9 O34_9 1_555 1_555
H63_9 C47_9 1_555 1_555
O38_9 C38_9 1_555 1_555
C48_9 C13_9 1_555 1_555
H64_9 C48_9 1_555 1_555
O39_9 C29_9 1_555 1_555
O41_6 K11_2 1_555 1_555
K6 O7_9 1_555 1_555
K11_2 O1_6 1_555 1_555
O93_6 K11_2 1_555 1_555
O95_6 K11_2 1_555 1_555
O99_6 K11_2 1_555 1_555
K12_2 O36_9 1_555 1_555
C6_9 O3_9 1_555 1_555
C11_9 C12_9 1_555 1_555
O8_9 K6 1_555 1_555
C12_9 O9_9 1_555 1_555
O55_4 C18_9 1_555 1_555
C17_9 C18_9 1_555 1_555
C20_9 C48_9 1_555 1_555
C22_9 C23_9 1_555 1_555
C23_9 O18_9 1_555 1_555
C29_9 O72_3 1_555 1_555
C34_9 C35_9 1_555 1_555
C35_9 O28_9 1_555 1_555
C40_9 C41_9 1_555 1_555
C41_9 O88_2 1_555 1_555
C44_9 O35_9 1_555 1_555
C46_9 C47_9 1_555 1_555
O37_9 K12_2 1_555 1_555
C47_9 O38_9 1_555 1_555
C48_9 O39_9 1_555 1_555
C5_9 H140_9 1_555 1_555
O4_9 H141_9 1_555 1_555
O10_9 H142_9 1_555 1_555
C18_9 H143_9 1_555 1_555
O23_9 H144_9 1_555 1_555
O17_9 H145_9 1_555 1_555
O41_6 H148_9 1_555 1_555
O41_6 H149_9 1_555 1_555
C49_7 H65_7 1_555 1_555
H66_7 C49_7 1_555 1_555
O42_7 C49_7 1_555 1_555
C50_7 C49_7 1_555 1_555
H67_7 C50_7 1_555 1_555
C51_7 C50_7 1_555 1_555
H68_7 C51_7 1_555 1_555
C52_7 C51_7 1_555 1_555
H69_7 C52_7 1_555 1_555
O44_7 C52_7 1_555 1_555
H70_7 O44_7 1_555 1_555
C53_7 C52_7 1_555 1_555
H71_7 C53_7 1_555 1_555
C54_7 C53_7 1_555 1_555
H72_7 C54_7 1_555 1_555
O45_7 C50_7 1_555 1_555
C55_7 H73_7 1_555 1_555
H74_7 C55_7 1_555 1_555
O46_7 C55_7 1_555 1_555
C56_7 C55_7 1_555 1_555
H75_7 C56_7 1_555 1_555
O47_7 C56_7 1_555 1_555
C57_7 C56_7 1_555 1_555
H76_7 C57_7 1_555 1_555
O48_7 C57_7 1_555 1_555
C58_7 C57_7 1_555 1_555
H77_7 C58_7 1_555 1_555
O49_7 C58_7 1_555 1_555
C59_7 C58_7 1_555 1_555
H78_7 C59_7 1_555 1_555
O50_7 C59_7 1_555 1_555
C60_7 O47_7 1_555 1_555
H79_7 C60_7 1_555 1_555
O51_7 C51_7 1_555 1_555
C61_7 H80_7 1_555 1_555
O52_7 C61_7 1_555 1_555
C62_7 H81_7 1_555 1_555
O55 C62_7 1_555 1_555
C63_7 C62_7 1_555 1_555
H82_7 C63_7 1_555 1_555
O56_7 C63_7 1_555 1_555
C64_7 C63_7 1_555 1_555
H83_7 C64_7 1_555 1_555
O57_7 C64_7 1_555 1_555
H84_7 O57_7 1_555 1_555
C65_7 C64_7 1_555 1_555
H85_7 C65_7 1_555 1_555
O58_7 C65_7 1_555 1_555
H86_7 O58_7 1_555 1_555
C66_7 O48_7 1_555 1_555
C67_7 H87_7 1_555 1_555
H88_7 C67_7 1_555 1_555
O59_7 C67_7 1_555 1_555
H89_7 O59_7 1_555 1_555
C68_7 C67_7 1_555 1_555
H90_7 C68_7 1_555 1_555
C69_7 C62_7 1_555 1_555
H91_7 C69_7 1_555 1_555
H92_7 C69_7 1_555 1_555
O62 C69_7 1_555 1_555
C70_7 C61_7 1_555 1_555
H93_7 C70_7 1_555 1_555
O63_7 C70_7 1_555 1_555
C71_7 O56_7 1_555 1_555
H94_7 C71_7 1_555 1_555
O64_7 C68_7 1_555 1_555
C72_7 H95_7 1_555 1_555
H96_7 C72_7 1_555 1_555
O67_6 C72_7 1_555 1_555
C73_7 C72_7 1_555 1_555
H97_7 C73_7 1_555 1_555
C74_7 C73_7 1_555 1_555
H98_7 C74_7 1_555 1_555
C75_7 C74_7 1_555 1_555
H99_7 C75_7 1_555 1_555
O68_7 C75_7 1_555 1_555
H100_7 O68_7 1_555 1_555
C76_7 C75_7 1_555 1_555
H101_7 C76_7 1_555 1_555
O69_7 C76_7 1_555 1_555
H102_7 O69_7 1_555 1_555
C77_7 C76_7 1_555 1_555
H103_7 C77_7 1_555 1_555
O72_6 C73_7 1_555 1_555
C78_7 H104_7 1_555 1_555
H105_7 C78_7 1_555 1_555
O73_7 C78_7 1_555 1_555
C79_7 C78_7 1_555 1_555
H106_7 C79_7 1_555 1_555
O74_7 C79_7 1_555 1_555
C80_7 C79_7 1_555 1_555
H107_7 C80_7 1_555 1_555
O75_7 C80_7 1_555 1_555
C81_7 C80_7 1_555 1_555
H108_7 C81_7 1_555 1_555
O77_2 C81_7 1_555 1_555
C82_7 C81_7 1_555 1_555
H109_7 C82_7 1_555 1_555
O80_2 C82_7 1_555 1_555
C83_7 O74_7 1_555 1_555
H110_7 C83_7 1_555 1_555
O82_7 C74_7 1_555 1_555
C84_7 H111_7 1_555 1_555
H112_7 C84_7 1_555 1_555
C85_7 C84_7 1_555 1_555
H113_7 C85_7 1_555 1_555
C86_7 C85_7 1_555 1_555
H114_7 C86_7 1_555 1_555
C87_7 C86_7 1_555 1_555
H115_7 C87_7 1_555 1_555
O85_7 C87_7 1_555 1_555
H116_7 O85_7 1_555 1_555
C88_7 C87_7 1_555 1_555
H117_7 C88_7 1_555 1_555
O86_7 C88_7 1_555 1_555
H118_7 O86_7 1_555 1_555
C89_7 O75_7 1_555 1_555
H119_7 C89_7 1_555 1_555
C90_7 H120_7 1_555 1_555
H121_7 C90_7 1_555 1_555
O89_7 C90_7 1_555 1_555
H122_7 O89_7 1_555 1_555
C91_7 C90_7 1_555 1_555
H123_7 C91_7 1_555 1_555
O90_7 C91_7 1_555 1_555
C92_7 C91_7 1_555 1_555
H124_7 C92_7 1_555 1_555
O91_7 C54_7 1_555 1_555
C93_7 C92_7 1_555 1_555
H125_7 C93_7 1_555 1_555
C94_7 C93_7 1_555 1_555
H126_7 C94_7 1_555 1_555
C95_7 O90_7 1_555 1_555
H127_7 C95_7 1_555 1_555
O96_7 C86_7 1_555 1_555
C96_7 C61_7 1_555 1_555
H128_7 C96_7 1_555 1_555
O97_7 C77_7 1_555 1_555
K7_2 O49_7 1_555 1_555
K12_2 O42_7 1_555 1_555
C54_7 O45_7 1_555 1_555
C59_7 C60_7 1_555 1_555
O50_7 K7_2 1_555 1_555
C60_7 O51_7 1_555 1_555
O55 C66_7 1_555 1_555
C65_7 C66_7 1_555 1_555
C68_7 C96_7 1_555 1_555
C70_7 C71_7 1_555 1_555
C71_7 O64_7 1_555 1_555
C77_7 O72_6 1_555 1_555
C82_7 C83_7 1_555 1_555
C83_7 O82_7 1_555 1_555
C84_7 O84_5 1_555 1_555
C85_7 O88_5 1_555 1_555
C88_7 C89_7 1_555 1_555
C89_7 O88_5 1_555 1_555
C92_7 O91_7 1_555 1_555
C93_7 O93_6 1_555 1_555
C94_7 O95_6 1_555 1_555
C94_7 C95_7 1_555 1_555
C95_7 O96_7 1_555 1_555
C96_7 O97_7 1_555 1_555
O52_7 H135_7 1_555 1_555
C66_7 H136_7 1_555 1_555
O63_7 H137_7 1_555 1_555
O73_7 H138_7 1_555 1_555
C53_7 H146_7 1_555 1_555
O46_7 H147_7 1_555 1_555
O99_6 H148_10 1_555 1_555
O99_6 H149_10 1_555 1_555
C49_8 H65_8 1_555 1_555
H66_8 C49_8 1_555 1_555
O42_8 C49_8 1_555 1_555
C50_8 C49_8 1_555 1_555
H67_8 C50_8 1_555 1_555
C51_8 C50_8 1_555 1_555
H68_8 C51_8 1_555 1_555
C52_8 C51_8 1_555 1_555
H69_8 C52_8 1_555 1_555
O44_8 C52_8 1_555 1_555
H70_8 O44_8 1_555 1_555
C53_8 C52_8 1_555 1_555
H71_8 C53_8 1_555 1_555
C54_8 C53_8 1_555 1_555
H72_8 C54_8 1_555 1_555
O45_8 C50_8 1_555 1_555
C55_8 H73_8 1_555 1_555
H74_8 C55_8 1_555 1_555
O46_8 C55_8 1_555 1_555
C56_8 C55_8 1_555 1_555
H75_8 C56_8 1_555 1_555
O47_8 C56_8 1_555 1_555
C57_8 C56_8 1_555 1_555
H76_8 C57_8 1_555 1_555
O48_8 C57_8 1_555 1_555
C58_8 C57_8 1_555 1_555
H77_8 C58_8 1_555 1_555
O49_8 C58_8 1_555 1_555
C59_8 C58_8 1_555 1_555
H78_8 C59_8 1_555 1_555
O50_8 C59_8 1_555 1_555
C60_8 O47_8 1_555 1_555
H79_8 C60_8 1_555 1_555
O51_8 C51_8 1_555 1_555
C61_8 H80_8 1_555 1_555
O52_8 C61_8 1_555 1_555
C62_8 H81_8 1_555 1_555
O55_3 C62_8 1_555 1_555
C63_8 C62_8 1_555 1_555
H82_8 C63_8 1_555 1_555
O56_8 C63_8 1_555 1_555
C64_8 C63_8 1_555 1_555
H83_8 C64_8 1_555 1_555
O57_8 C64_8 1_555 1_555
H84_8 O57_8 1_555 1_555
C65_8 C64_8 1_555 1_555
H85_8 C65_8 1_555 1_555
O58_8 C65_8 1_555 1_555
H86_8 O58_8 1_555 1_555
C66_8 O48_8 1_555 1_555
C67_8 H87_8 1_555 1_555
H88_8 C67_8 1_555 1_555
O59_8 C67_8 1_555 1_555
H89_8 O59_8 1_555 1_555
C68_8 C67_8 1_555 1_555
H90_8 C68_8 1_555 1_555
C69_8 C62_8 1_555 1_555
H91_8 C69_8 1_555 1_555
H92_8 C69_8 1_555 1_555
O62_3 C69_8 1_555 1_555
C70_8 C61_8 1_555 1_555
H93_8 C70_8 1_555 1_555
O63_8 C70_8 1_555 1_555
C71_8 O56_8 1_555 1_555
H94_8 C71_8 1_555 1_555
O64_8 C68_8 1_555 1_555
C72_8 H95_8 1_555 1_555
H96_8 C72_8 1_555 1_555
O67_4 C72_8 1_555 1_555
C73_8 C72_8 1_555 1_555
H97_8 C73_8 1_555 1_555
C74_8 C73_8 1_555 1_555
H98_8 C74_8 1_555 1_555
C75_8 C74_8 1_555 1_555
H99_8 C75_8 1_555 1_555
O68_8 C75_8 1_555 1_555
H100_8 O68_8 1_555 1_555
C76_8 C75_8 1_555 1_555
H101_8 C76_8 1_555 1_555
O69_8 C76_8 1_555 1_555
H102_8 O69_8 1_555 1_555
C77_8 C76_8 1_555 1_555
H103_8 C77_8 1_555 1_555
O72_4 C73_8 1_555 1_555
C78_8 H104_8 1_555 1_555
H105_8 C78_8 1_555 1_555
O73_8 C78_8 1_555 1_555
C79_8 C78_8 1_555 1_555
H106_8 C79_8 1_555 1_555
O74_8 C79_8 1_555 1_555
C80_8 C79_8 1_555 1_555
H107_8 C80_8 1_555 1_555
O75_8 C80_8 1_555 1_555
C81_8 C80_8 1_555 1_555
H108_8 C81_8 1_555 1_555
O77 C81_8 1_555 1_555
C82_8 C81_8 1_555 1_555
H109_8 C82_8 1_555 1_555
O80 C82_8 1_555 1_555
C83_8 O74_8 1_555 1_555
H110_8 C83_8 1_555 1_555
O82_8 C74_8 1_555 1_555
C84_8 H111_8 1_555 1_555
H112_8 C84_8 1_555 1_555
C85_8 C84_8 1_555 1_555
H113_8 C85_8 1_555 1_555
C86_8 C85_8 1_555 1_555
H114_8 C86_8 1_555 1_555
C87_8 C86_8 1_555 1_555
H115_8 C87_8 1_555 1_555
O85_8 C87_8 1_555 1_555
H116_8 O85_8 1_555 1_555
C88_8 C87_8 1_555 1_555
H117_8 C88_8 1_555 1_555
O86_8 C88_8 1_555 1_555
H118_8 O86_8 1_555 1_555
C89_8 O75_8 1_555 1_555
H119_8 C89_8 1_555 1_555
C90_8 H120_8 1_555 1_555
H121_8 C90_8 1_555 1_555
O89_8 C90_8 1_555 1_555
H122_8 O89_8 1_555 1_555
C91_8 C90_8 1_555 1_555
H123_8 C91_8 1_555 1_555
O90_8 C91_8 1_555 1_555
C92_8 C91_8 1_555 1_555
H124_8 C92_8 1_555 1_555
O91_8 C54_8 1_555 1_555
C93_8 C92_8 1_555 1_555
H125_8 C93_8 1_555 1_555
C94_8 C93_8 1_555 1_555
H126_8 C94_8 1_555 1_555
C95_8 O90_8 1_555 1_555
H127_8 C95_8 1_555 1_555
O96_8 C86_8 1_555 1_555
C96_8 C61_8 1_555 1_555
H128_8 C96_8 1_555 1_555
O97_8 C77_8 1_555 1_555
K7 O49_8 1_555 1_555
K12 O42_8 1_555 1_555
C54_8 O45_8 1_555 1_555
C59_8 C60_8 1_555 1_555
O50_8 K7 1_555 1_555
C60_8 O51_8 1_555 1_555
O55_3 C66_8 1_555 1_555
C65_8 C66_8 1_555 1_555
C68_8 C96_8 1_555 1_555
C70_8 C71_8 1_555 1_555
C71_8 O64_8 1_555 1_555
C77_8 O72_4 1_555 1_555
C82_8 C83_8 1_555 1_555
C83_8 O82_8 1_555 1_555
C84_8 O84_6 1_555 1_555
C85_8 O88_6 1_555 1_555
C88_8 C89_8 1_555 1_555
C89_8 O88_6 1_555 1_555
C92_8 O91_8 1_555 1_555
C93_8 O93_5 1_555 1_555
C94_8 O95_5 1_555 1_555
C94_8 C95_8 1_555 1_555
C95_8 O96_8 1_555 1_555
C96_8 O97_8 1_555 1_555
O52_8 H135_8 1_555 1_555
C66_8 H136_8 1_555 1_555
O63_8 H137_8 1_555 1_555
O73_8 H138_8 1_555 1_555
C53_8 H146_8 1_555 1_555
O46_8 H147_8 1_555 1_555
O99_5 H148_11 1_555 1_555
O99_5 H149_11 1_555 1_555
O99_4 H148_12 1_555 1_555
O99_4 H149_12 1_555 1_555
C49_9 H65_9 1_555 1_555
H66_9 C49_9 1_555 1_555
O42_9 C49_9 1_555 1_555
C50_9 C49_9 1_555 1_555
H67_9 C50_9 1_555 1_555
C51_9 C50_9 1_555 1_555
H68_9 C51_9 1_555 1_555
C52_9 C51_9 1_555 1_555
H69_9 C52_9 1_555 1_555
O44_9 C52_9 1_555 1_555
H70_9 O44_9 1_555 1_555
C53_9 C52_9 1_555 1_555
H71_9 C53_9 1_555 1_555
C54_9 C53_9 1_555 1_555
H72_9 C54_9 1_555 1_555
O45_9 C50_9 1_555 1_555
C55_9 H73_9 1_555 1_555
H74_9 C55_9 1_555 1_555
O46_9 C55_9 1_555 1_555
C56_9 C55_9 1_555 1_555
H75_9 C56_9 1_555 1_555
O47_9 C56_9 1_555 1_555
C57_9 C56_9 1_555 1_555
H76_9 C57_9 1_555 1_555
O48_9 C57_9 1_555 1_555
C58_9 C57_9 1_555 1_555
H77_9 C58_9 1_555 1_555
O49_9 C58_9 1_555 1_555
C59_9 C58_9 1_555 1_555
H78_9 C59_9 1_555 1_555
O50_9 C59_9 1_555 1_555
C60_9 O47_9 1_555 1_555
H79_9 C60_9 1_555 1_555
O51_9 C51_9 1_555 1_555
C61_9 H80_9 1_555 1_555
O52_9 C61_9 1_555 1_555
C62_9 H81_9 1_555 1_555
O55_2 C62_9 1_555 1_555
C63_9 C62_9 1_555 1_555
H82_9 C63_9 1_555 1_555
O56_9 C63_9 1_555 1_555
C64_9 C63_9 1_555 1_555
H83_9 C64_9 1_555 1_555
O57_9 C64_9 1_555 1_555
H84_9 O57_9 1_555 1_555
C65_9 C64_9 1_555 1_555
H85_9 C65_9 1_555 1_555
O58_9 C65_9 1_555 1_555
H86_9 O58_9 1_555 1_555
C66_9 O48_9 1_555 1_555
C67_9 H87_9 1_555 1_555
H88_9 C67_9 1_555 1_555
O59_9 C67_9 1_555 1_555
H89_9 O59_9 1_555 1_555
C68_9 C67_9 1_555 1_555
H90_9 C68_9 1_555 1_555
C69_9 C62_9 1_555 1_555
H91_9 C69_9 1_555 1_555
H92_9 C69_9 1_555 1_555
O62_2 C69_9 1_555 1_555
C70_9 C61_9 1_555 1_555
H93_9 C70_9 1_555 1_555
O63_9 C70_9 1_555 1_555
C71_9 O56_9 1_555 1_555
H94_9 C71_9 1_555 1_555
O64_9 C68_9 1_555 1_555
C72_9 H95_9 1_555 1_555
H96_9 C72_9 1_555 1_555
O67_5 C72_9 1_555 1_555
C73_9 C72_9 1_555 1_555
H97_9 C73_9 1_555 1_555
C74_9 C73_9 1_555 1_555
H98_9 C74_9 1_555 1_555
C75_9 C74_9 1_555 1_555
H99_9 C75_9 1_555 1_555
O68_9 C75_9 1_555 1_555
H100_9 O68_9 1_555 1_555
C76_9 C75_9 1_555 1_555
H101_9 C76_9 1_555 1_555
O69_9 C76_9 1_555 1_555
H102_9 O69_9 1_555 1_555
C77_9 C76_9 1_555 1_555
H103_9 C77_9 1_555 1_555
O72_5 C73_9 1_555 1_555
C78_9 H104_9 1_555 1_555
H105_9 C78_9 1_555 1_555
O73_9 C78_9 1_555 1_555
C79_9 C78_9 1_555 1_555
H106_9 C79_9 1_555 1_555
O74_9 C79_9 1_555 1_555
C80_9 C79_9 1_555 1_555
H107_9 C80_9 1_555 1_555
O75_9 C80_9 1_555 1_555
C81_9 C80_9 1_555 1_555
H108_9 C81_9 1_555 1_555
O77_3 C81_9 1_555 1_555
C82_9 C81_9 1_555 1_555
H109_9 C82_9 1_555 1_555
O80_3 C82_9 1_555 1_555
C83_9 O74_9 1_555 1_555
H110_9 C83_9 1_555 1_555
O82_9 C74_9 1_555 1_555
C84_9 H111_9 1_555 1_555
H112_9 C84_9 1_555 1_555
C85_9 C84_9 1_555 1_555
H113_9 C85_9 1_555 1_555
C86_9 C85_9 1_555 1_555
H114_9 C86_9 1_555 1_555
C87_9 C86_9 1_555 1_555
H115_9 C87_9 1_555 1_555
O85_9 C87_9 1_555 1_555
H116_9 O85_9 1_555 1_555
C88_9 C87_9 1_555 1_555
H117_9 C88_9 1_555 1_555
O86_9 C88_9 1_555 1_555
H118_9 O86_9 1_555 1_555
C89_9 O75_9 1_555 1_555
H119_9 C89_9 1_555 1_555
C90_9 H120_9 1_555 1_555
H121_9 C90_9 1_555 1_555
O89_9 C90_9 1_555 1_555
H122_9 O89_9 1_555 1_555
C91_9 C90_9 1_555 1_555
H123_9 C91_9 1_555 1_555
O90_9 C91_9 1_555 1_555
C92_9 C91_9 1_555 1_555
H124_9 C92_9 1_555 1_555
O91_9 C54_9 1_555 1_555
C93_9 C92_9 1_555 1_555
H125_9 C93_9 1_555 1_555
C94_9 C93_9 1_555 1_555
H126_9 C94_9 1_555 1_555
C95_9 O90_9 1_555 1_555
H127_9 C95_9 1_555 1_555
O96_9 C86_9 1_555 1_555
C96_9 C61_9 1_555 1_555
H128_9 C96_9 1_555 1_555
O97_9 C77_9 1_555 1_555
K7_3 O49_9 1_555 1_555
K12_3 O42_9 1_555 1_555
C54_9 O45_9 1_555 1_555
C59_9 C60_9 1_555 1_555
O50_9 K7_3 1_555 1_555
C60_9 O51_9 1_555 1_555
O55_2 C66_9 1_555 1_555
C65_9 C66_9 1_555 1_555
C68_9 C96_9 1_555 1_555
C70_9 C71_9 1_555 1_555
C71_9 O64_9 1_555 1_555
C77_9 O72_5 1_555 1_555
C82_9 C83_9 1_555 1_555
C83_9 O82_9 1_555 1_555
C84_9 O84_4 1_555 1_555
C85_9 O88_4 1_555 1_555
C88_9 C89_9 1_555 1_555
C89_9 O88_4 1_555 1_555
C92_9 O91_9 1_555 1_555
C93_9 O93_4 1_555 1_555
C94_9 O95_4 1_555 1_555
C94_9 C95_9 1_555 1_555
C95_9 O96_9 1_555 1_555
C96_9 O97_9 1_555 1_555
O52_9 H135_9 1_555 1_555
C66_9 H136_9 1_555 1_555
O63_9 H137_9 1_555 1_555
O73_9 H138_9 1_555 1_555
C53_9 H146_9 1_555 1_555
O46_9 H147_9 1_555 1_555
O41_7 K12_2 1_555 1_555
O99_7 K12_2 1_555 1_555
O41_7 H148_13 1_555 1_555
O41_7 H149_13 1_555 1_555
O41_8 K12_3 1_555 1_555
O99_8 K12_3 1_555 1_555
O41_8 H148_14 1_555 1_555
O41_8 H149_14 1_555 1_555
O41_9 K12 1_555 1_555
O99_9 K12 1_555 1_555
O41_9 H148_15 1_555 1_555
O41_9 H149_15 1_555 1_555
O99_9 H148_16 1_555 1_555
O99_9 H149_16 1_555 1_555
O99_8 H148_17 1_555 1_555
O99_8 H149_17 1_555 1_555
O99_7 H148_18 1_555 1_555
O99_7 H149_18 1_555 1_555
C97 O100 1_555 1_555
C98 C97 1_555 1_555
O101 C97 1_555 1_555
C99 C98 1_555 1_555
H129 C99 1_555 1_555
C100 C99 1_555 1_555
H130 C100 1_555 1_555
C101 C100 1_555 1_555
H131 C101 1_555 1_555
C102 C101 1_555 1_555
H132 C102 1_555 1_555
C103 C98 1_555 1_555
H133 C103 1_555 1_555
C102 C103 1_555 1_555
C97_2 O100_2 1_555 1_555
C98_2 C97_2 1_555 1_555
O101_2 C97_2 1_555 1_555
C99_2 C98_2 1_555 1_555
H129_2 C99_2 1_555 1_555
C100_2 C99_2 1_555 1_555
H130_2 C100_2 1_555 1_555
C101_2 C100_2 1_555 1_555
H131_2 C101_2 1_555 1_555
C102_2 C101_2 1_555 1_555
H132_2 C102_2 1_555 1_555
C103_2 C98_2 1_555 1_555
H133_2 C103_2 1_555 1_555
C102_2 C103_2 1_555 1_555
C97_3 O100_3 1_555 1_555
C98_3 C97_3 1_555 1_555
O101_3 C97_3 1_555 1_555
C99_3 C98_3 1_555 1_555
H129_3 C99_3 1_555 1_555
C100_3 C99_3 1_555 1_555
H130_3 C100_3 1_555 1_555
C101_3 C100_3 1_555 1_555
H131_3 C101_3 1_555 1_555
C102_3 C101_3 1_555 1_555
H132_3 C102_3 1_555 1_555
C103_3 C98_3 1_555 1_555
H133_3 C103_3 1_555 1_555
C102_3 C103_3 1_555 1_555
C97_4 O100_4 1_555 1_555
C98_4 C97_4 1_555 1_555
O101_4 C97_4 1_555 1_555
C99_4 C98_4 1_555 1_555
H129_4 C99_4 1_555 1_555
C100_4 C99_4 1_555 1_555
H130_4 C100_4 1_555 1_555
C101_4 C100_4 1_555 1_555
H131_4 C101_4 1_555 1_555
C102_4 C101_4 1_555 1_555
H132_4 C102_4 1_555 1_555
C103_4 C98_4 1_555 1_555
H133_4 C103_4 1_555 1_555
C102_4 C103_4 1_555 1_555
C97_5 O100_5 1_555 1_555
C98_5 C97_5 1_555 1_555
O101_5 C97_5 1_555 1_555
C99_5 C98_5 1_555 1_555
H129_5 C99_5 1_555 1_555
C100_5 C99_5 1_555 1_555
H130_5 C100_5 1_555 1_555
C101_5 C100_5 1_555 1_555
H131_5 C101_5 1_555 1_555
C102_5 C101_5 1_555 1_555
H132_5 C102_5 1_555 1_555
C103_5 C98_5 1_555 1_555
H133_5 C103_5 1_555 1_555
C102_5 C103_5 1_555 1_555
C97_6 O100_6 1_555 1_555
C98_6 C97_6 1_555 1_555
O101_6 C97_6 1_555 1_555
C99_6 C98_6 1_555 1_555
H129_6 C99_6 1_555 1_555
C100_6 C99_6 1_555 1_555
H130_6 C100_6 1_555 1_555
C101_6 C100_6 1_555 1_555
H131_6 C101_6 1_555 1_555
C102_6 C101_6 1_555 1_555
H132_6 C102_6 1_555 1_555
C103_6 C98_6 1_555 1_555
H133_6 C103_6 1_555 1_555
C102_6 C103_6 1_555 1_555
C97_7 O100_7 1_555 1_555
C98_7 C97_7 1_555 1_555
O101_7 C97_7 1_555 1_555
C99_7 C98_7 1_555 1_555
H129_7 C99_7 1_555 1_555
C100_7 C99_7 1_555 1_555
H130_7 C100_7 1_555 1_555
C101_7 C100_7 1_555 1_555
H131_7 C101_7 1_555 1_555
C102_7 C101_7 1_555 1_555
H132_7 C102_7 1_555 1_555
C103_7 C98_7 1_555 1_555
H133_7 C103_7 1_555 1_555
C102_7 C103_7 1_555 1_555
C99_8 C98_8 1_555 1_555
C100_8 C99_8 1_555 1_555
H130_8 C100_8 1_555 1_555
C101_8 C100_8 1_555 1_555
H131_8 C101_8 1_555 1_555
C102_8 C101_8 1_555 1_555
H132_8 C102_8 1_555 1_555
C103_8 C98_8 1_555 1_555
H133_8 C103_8 1_555 1_555
C102_8 C103_8 1_555 1_555
C97_8 O100_8 1_555 1_555
O101_8 C97_8 1_555 1_555
C97_9 O100_9 1_555 1_555
O101_9 C97_9 1_555 1_555
C99_9 C98_9 1_555 1_555
C100_9 C99_9 1_555 1_555
H130_9 C100_9 1_555 1_555
C101_9 C100_9 1_555 1_555
H131_9 C101_9 1_555 1_555
C102_9 C101_9 1_555 1_555
H132_9 C102_9 1_555 1_555
C103_9 C98_9 1_555 1_555
H133_9 C103_9 1_555 1_555
C102_9 C103_9 1_555 1_555
C97_10 O100_10 1_555 1_555
C98_10 C97_10 1_555 1_555
O101_10 C97_10 1_555 1_555
C99_10 C98_10 1_555 1_555
H129_10 C99_10 1_555 1_555
C100_10 C99_10 1_555 1_555
H130_10 C100_10 1_555 1_555
C101_10 C100_10 1_555 1_555
H131_10 C101_10 1_555 1_555
C102_10 C101_10 1_555 1_555
H132_10 C102_10 1_555 1_555
C103_10 C98_10 1_555 1_555
H133_10 C103_10 1_555 1_555
C102_10 C103_10 1_555 1_555
C97_11 O100_11 1_555 1_555
C98_11 C97_11 1_555 1_555
O101_11 C97_11 1_555 1_555
C99_11 C98_11 1_555 1_555
H129_11 C99_11 1_555 1_555
C100_11 C99_11 1_555 1_555
H130_11 C100_11 1_555 1_555
C101_11 C100_11 1_555 1_555
H131_11 C101_11 1_555 1_555
C102_11 C101_11 1_555 1_555
H132_11 C102_11 1_555 1_555
C103_11 C98_11 1_555 1_555
H133_11 C103_11 1_555 1_555
C102_11 C103_11 1_555 1_555
C97_12 O100_12 1_555 1_555
C98_12 C97_12 1_555 1_555
O101_12 C97_12 1_555 1_555
C99_12 C98_12 1_555 1_555
H129_12 C99_12 1_555 1_555
C100_12 C99_12 1_555 1_555
H130_12 C100_12 1_555 1_555
C101_12 C100_12 1_555 1_555
H131_12 C101_12 1_555 1_555
C102_12 C101_12 1_555 1_555
H132_12 C102_12 1_555 1_555
C103_12 C98_12 1_555 1_555
H133_12 C103_12 1_555 1_555
C102_12 C103_12 1_555 1_555
C97_13 O100_13 1_555 1_555
C98_13 C97_13 1_555 1_555
O101_13 C97_13 1_555 1_555
C99_13 C98_13 1_555 1_555
H129_13 C99_13 1_555 1_555
C100_13 C99_13 1_555 1_555
H130_13 C100_13 1_555 1_555
C101_13 C100_13 1_555 1_555
H131_13 C101_13 1_555 1_555
C102_13 C101_13 1_555 1_555
H132_13 C102_13 1_555 1_555
C103_13 C98_13 1_555 1_555
H133_13 C103_13 1_555 1_555
C102_13 C103_13 1_555 1_555
C97_14 O100_14 1_555 1_555
C98_14 C97_14 1_555 1_555
O101_14 C97_14 1_555 1_555
C99_14 C98_14 1_555 1_555
H129_14 C99_14 1_555 1_555
C100_14 C99_14 1_555 1_555
H130_14 C100_14 1_555 1_555
C101_14 C100_14 1_555 1_555
H131_14 C101_14 1_555 1_555
C102_14 C101_14 1_555 1_555
H132_14 C102_14 1_555 1_555
C103_14 C98_14 1_555 1_555
H133_14 C103_14 1_555 1_555
C102_14 C103_14 1_555 1_555
C97_15 O100_15 1_555 1_555
C98_15 C97_15 1_555 1_555
O101_15 C97_15 1_555 1_555
C99_15 C98_15 1_555 1_555
H129_15 C99_15 1_555 1_555
C100_15 C99_15 1_555 1_555
H130_15 C100_15 1_555 1_555
C101_15 C100_15 1_555 1_555
H131_15 C101_15 1_555 1_555
C102_15 C101_15 1_555 1_555
H132_15 C102_15 1_555 1_555
C103_15 C98_15 1_555 1_555
H133_15 C103_15 1_555 1_555
C102_15 C103_15 1_555 1_555
C97_16 O100_16 1_555 1_555
C98_16 C97_16 1_555 1_555
O101_16 C97_16 1_555 1_555
C99_16 C98_16 1_555 1_555
H129_16 C99_16 1_555 1_555
C100_16 C99_16 1_555 1_555
H130_16 C100_16 1_555 1_555
C101_16 C100_16 1_555 1_555
H131_16 C101_16 1_555 1_555
C102_16 C101_16 1_555 1_555
H132_16 C102_16 1_555 1_555
C103_16 C98_16 1_555 1_555
H133_16 C103_16 1_555 1_555
C102_16 C103_16 1_555 1_555
C99_17 C98_17 1_555 1_555
C100_17 C99_17 1_555 1_555
H130_17 C100_17 1_555 1_555
C101_17 C100_17 1_555 1_555
H131_17 C101_17 1_555 1_555
C102_17 C101_17 1_555 1_555
H132_17 C102_17 1_555 1_555
C103_17 C98_17 1_555 1_555
H133_17 C103_17 1_555 1_555
C102_17 C103_17 1_555 1_555
C97_17 O100_17 1_555 1_555
O101_17 C97_17 1_555 1_555
C97_18 O100_18 1_555 1_555
O101_18 C97_18 1_555 1_555
C99_18 C98_18 1_555 1_555
C100_18 C99_18 1_555 1_555
H130_18 C100_18 1_555 1_555
C101_18 C100_18 1_555 1_555
H131_18 C101_18 1_555 1_555
C102_18 C101_18 1_555 1_555
H132_18 C102_18 1_555 1_555
C103_18 C98_18 1_555 1_555
H133_18 C103_18 1_555 1_555
C102_18 C103_18 1_555 1_555
O102 H139 1_555 1_555
O102_2 H139_2 1_555 1_555
O102_3 H139_3 1_555 1_555
O102_4 H139_4 1_555 1_555
O102_5 H139_5 1_555 1_555
O102_6 H139_6 1_555 1_555
O102_7 H139_7 1_555 1_555
O102_8 H139_8 1_555 1_555
O102_9 H139_9 1_555 1_555
O102_10 H139_10 1_555 1_555
O102_11 H139_11 1_555 1_555
O103 H134 1_555 1_555
O103_2 H134_2 1_555 1_555
O103_3 H134_3 1_555 1_555
O103_4 H134_4 1_555 1_555
O103_5 H134_5 1_555 1_555
O103_6 H134_6 1_555 1_555
O103_7 H134_7 1_555 1_555
O103_8 H134_8 1_555 1_555
O103_9 H134_9 1_555 1_555
O103_10 H134_10 1_555 1_555
O103_11 H134_11 1_555 1_555
O103_12 H134_12 1_555 1_555
O103_13 H134_13 1_555 1_555
O103_14 H134_14 1_555 1_555
O103_15 H134_15 1_555 1_555
O103_16 H134_16 1_555 1_555
O103_17 H134_17 1_555 1_555
O103_18 H134_18 1_555 1_555

#END
