
###############################################################################
#
# This file contains modified crystal structure data generated from the
# MOF subset of the Cambridge Structural Database (CSD) v543 
# hosted by the Cambridge Crystallographic Data Centre (CCDC).
#
# This work is licensed under the Creative Commons
# Attribution-NonCommercial-ShareAlike 4.0 International License.
# To view a copy of this license, visit
# http://creativecommons.org/licenses/by-nc-sa/4.0/
# or send a letter to
# Creative Commons, PO Box 1866, Mountain View, CA 94042, USA.
#
# CIF created using the CSD Python API on 29 September 2022
# The structure has been converted into the P1 space group
# The structure has a 3D framework
# The original CSD entry LAJNIW is in the monoclinic crystal system
# The framework has been calculated to contain at least 10.0% void space
# The void calculation uses a probe of radius 1.32A, grid spacing 0.4
# H atom positions have been added when not included in the experimental data
#
###############################################################################

data_LAJNIW
_chemical_formula_moiety         '(C540 H432 Co12 N48 O46)n'
_symmetry_cell_setting           triclinic
_symmetry_space_group_name_H-M   'P 1'
_symmetry_Int_Tables_number      1
_space_group_name_Hall           'P 1'
loop_
_symmetry_equiv_pos_site_id
_symmetry_equiv_pos_as_xyz
1 x,y,z
_cell_length_a                   18.381(4)
_cell_length_b                   30.305(6)
_cell_length_c                   27.812(6)
_cell_angle_alpha                90
_cell_angle_beta                 95.44(3)
_cell_angle_gamma                90
_cell_volume                     15422.5
loop_
_atom_site_label
_atom_site_type_symbol
_atom_site_fract_x
_atom_site_fract_y
_atom_site_fract_z
C103 C 0.01509(15) 0.00630(8) 0.21833(10)
H49 H 0.0018 0.0337 0.2034
H73 H 0.00045627 0.00586242 0.36236
Co2 Co 0.057253(15) 0.723430(9) 0.561741(12)
O2 O 0.15869(10) 0.69540(6) 0.57120(8)
O3 O 0.53034(13) 0.64687(8) 0.65832(10)
O4 O 0.19924(11) 0.74356(8) 0.62835(8)
O7 O 0.50759(13) 0.59251(8) 0.60746(10)
O8 O 0.02875(11) 0.78076(6) 0.61118(8)
N2 N 0.02645(10) 0.67470(6) 0.50856(7)
C1 C 0.45553(14) 0.68445(11) 0.54346(11)
N4 N 0.07450(12) 0.93606(7) 0.21314(8)
N6 N 0.02763(11) 0.31700(6) 0.11995(8)
C5 C 0.05605(16) 0.92734(9) 0.25777(10)
H3 H 0.0700 0.8997 0.2719
C14 C 0.39867(12) 0.67487(8) 0.57813(9)
C20 C 0.33106(12) 0.69602(8) 0.57319(9)
H10 H 0.0466 0.5423 0.4019
C29 C 0.41372(12) 0.64514(8) 0.61649(9)
C35 C 0.03527(13) 0.32621(9) 0.20553(9)
H14 H 0.0563 0.3168 0.2363
C43 C 0.01767(16) 0.95654(9) 0.28442(10)
H18 H 0.0060 0.9487 0.3159
C48 C 0.36156(14) 0.63473(10) 0.64855(11)
C53 C 0.31304(14) 0.72971(9) 0.53275(10)
C66 C 0.05162(13) 0.60552(8) 0.47136(10)
H30 H 0.0865 0.5836 0.4651
C69 C 0.07371(12) 0.64352(8) 0.49719(10)
H32 H 0.1242 0.6474 0.5071
C81 C 0.05335(15) 0.97509(8) 0.19364(10)
H38 H 0.0648 0.9817 0.1618
C86 C 0.05398(12) 0.30546(8) 0.16411(9)
H40 H 0.0876 0.2816 0.1676
C90 C 0.28025(13) 0.68690(9) 0.60561(10)
C97 C 0.48855(12) 0.62595(9) 0.62719(11)
H53 H 0.0048 0.4773 0.3633
C116 C 0.20802(13) 0.71036(9) 0.60132(10)
C119 C 0.29316(15) 0.65577(11) 0.64254(12)
C124 C 0.38065(19) 0.60212(13) 0.68873(13)
C133 C 0.2368(2) 0.64477(15) 0.67775(16)
Co5 Co 0.057253(15) 0.276570(9) 0.061741(12)
Co8 Co 0.126650(19) 0.889250(10) 0.169998(12)
Co9 Co 0.626650(19) 0.610750(10) 0.669998(12)
N15 N 0.02763(11) 0.68300(6) 0.61995(8)
N17 N 0.10471(13) 0.76934(7) 0.51676(8)
H78 H 0.427371 0.614273 0.711978
H79 H 0.334122 0.598093 0.709832
H80 H 0.394242 0.570445 0.673396
H81 H 0.258837 0.653138 0.714342
H82 H 0.18713 0.663676 0.668245
H83 H 0.224273 0.609658 0.675752
H90 H 0.469719 0.719339 0.545258
H91 H 0.504195 0.664747 0.553371
H92 H 0.433528 0.676148 0.506842
H102 H 0.316133 0.713826 0.49788
H103 H 0.258065 0.742475 0.534916
H104 H 0.352111 0.756781 0.536704
Co3 Co 0.126650(19) 0.110750(10) 0.669998(12)
N1 N 0.66588(10) 0.34527(6) 0.22635(7)
O10 O 0.22392(17) 0.07755(7) 0.67645(11)
N3 N 0.83040(14) 0.11482(7) 0.37308(8)
C2 C 0.62295(12) 0.31389(9) 0.24327(10)
H1 H 0.5718 0.3156 0.2345
C7 C 0.85148(14) 0.18514(9) 0.33357(11)
H5 H 0.9015 0.1777 0.3326
C9 C 0.33843(13) 0.03255(9) 0.60641(9)
C13 C 0.72300(12) 0.27518(7) 0.28627(8)
C19 C 0.95561(13) 0.02925(8) 0.29250(9)
C24 C 0.86730(13) 0.08902(7) 0.29486(9)
C25 C 0.80524(14) 0.15636(8) 0.35514(9)
C28 C 0.90860(12) 0.06029(7) 0.26876(9)
C31 C 0.29374(12) 0.02254(8) 0.64313(9)
C33 C 0.70744(15) 0.20889(9) 0.33814(10)
C37 C 0.87377(14) 0.08807(8) 0.34523(9)
O12 O 0.16980(13) 0.04007(11) 0.61732(10)
C41 C 0.71998(15) 0.03636(8) 0.53780(9)
C44 C 0.45435(16) 0.01968(14) 0.56530(11)
C45 C 0.79888(15) 0.09617(8) 0.41268(9)
C52 C 0.73287(16) 0.16924(9) 0.35859(10)
H21 H 0.7011 0.1509 0.3749
C56 C 0.77252(19) 0.10074(9) 0.49644(11)
H23 H 0.7733 0.1173 0.5255
C57 C 0.73765(13) 0.34352(8) 0.24244(10)
H24 H 0.7692 0.3662 0.2333
C59 C 0.75243(13) 0.23648(8) 0.31417(9)
C60 C 0.92142(17) 0.05751(10) 0.36950(10)
H26 H 0.9259 0.0562 0.4038
C65 C 0.74036(17) 0.03543(8) 0.45022(10)
H29 H 0.7187 0.0070 0.4475
C74 C 0.75355(18) 0.04560(9) 0.58406(10)
H34 H 0.7910 0.0672 0.5884
C75 C 0.79983(19) 0.11906(8) 0.45669(11)
H35 H 0.8199 0.1480 0.4590
C76 C 0.82549(14) 0.22427(8) 0.31363(11)
C77 C 0.40399(13) 0.00971(9) 0.60450(9)
C80 C 0.64905(13) 0.27916(8) 0.27283(10)
H37 H 0.6159 0.2582 0.2838
C83 C 0.31586(15) 0.06818(11) 0.56947(10)
C94 C 0.66582(15) 0.00355(9) 0.53448(9)
C96 C 0.74356(15) 0.05794(8) 0.49459(9)
C99 C 0.76822(17) 0.05403(9) 0.41062(10)
H47 H 0.7665 0.0378 0.3813
C101 C 0.96252(16) 0.02884(10) 0.34315(10)
C111 C 0.73142(16) 0.02267(9) 0.62351(10)
H55 H 0.7536 0.0301 0.6547
C125 C 0.76676(13) 0.30924(8) 0.27208(11)
H56 H 0.8174 0.3093 0.2827
C132 C 0.22360(16) 0.04804(9) 0.64568(11)
Co10 Co 0.626650(19) 0.389250(10) 0.169998(12)
O13 O 0.03034(13) 0.14687(8) 0.65832(10)
N13 N 0.16588(10) 0.15473(6) 0.72635(7)
N14 N 0.07450(12) 0.06394(7) 0.71314(8)
N18 N 0.1693(2) 0.14759(9) 0.61252(9)
H63 H 0.310484 0.0995575 0.587887
H64 H 0.357234 0.0711228 0.5441
H65 H 0.2637 0.0593741 0.549971
H72 H 0.256136 0.0111788 0.737439
H93 H 0.829857 0.112271 0.275649
H97 H 0.650939 0.218541 0.34098
H98 H 0.904043 0.0621492 0.229486
H99 H 0.471398 0.054082 0.567851
H101 H 0.425317 0.0136309 0.529942
H108 H 0.862819 0.246215 0.297043
N12 N 0.1693(2) 0.85241(9) 0.11252(9)
C82 C 0.14959(15) 0.86360(10) 0.06794(9)
C84 C 0.2255(2) 0.80984(11) 0.03416(10)
C118 C 0.17622(16) 0.84227(10) 0.02856(9)
C134 C 0.2646(3) 0.80593(15) 0.08084(15)
C135 C 0.2364(3) 0.82735(18) 0.11848(16)
H62 H 0.110897 0.890596 0.0610633
H69 H 0.289679 0.728866 0.0336625
H84 H 0.265858 0.825348 0.154278
H86 H 0.314778 0.786735 0.086394
Co1 Co 0.650980(16) 0.948713(10) 0.677831(11)
O1 O 0.95074(11) 0.75112(6) 0.55610(8)
O5 O 0.54834(10) 0.97331(7) 0.66594(7)
O6 O 0.76100(10) 0.92216(6) 0.68526(7)
O9 O 0.68097(10) 0.89432(6) 0.62963(7)
O11 O 0.50442(12) 0.92261(8) 0.61404(9)
N5 N 0.68041(12) 0.99065(7) 0.62009(8)
C3 C 0.93064(12) 0.63372(8) 0.46549(8)
H2 H 0.8802 0.6318 0.4545
N7 N 0.17591(11) 0.49775(6) 0.73152(7)
C4 C 0.87883(19) 0.75205(12) 0.66827(18)
N8 N 0.8776(2) 0.43814(11) 0.36710(12)
C6 C 0.95625(12) 0.66990(7) 0.49183(8)
H4 H 0.9226 0.6924 0.4984
N9 N 0.60471(13) 0.26934(7) 0.51676(8)
C8 C 0.93729(15) 0.42641(9) 0.24405(9)
H6 H 0.9393 0.4435 0.2156
N10 N 0.61058(12) 0.90026(7) 0.72579(8)
C10 C 0.31319(14) 0.99079(8) 0.67824(9)
C11 C 0.80207(14) 0.86519(8) 0.63465(9)
C12 C 0.88038(15) 0.54467(9) 0.43281(9)
H7 H 0.8479 0.5624 0.4491
C15 C 0.22812(13) 0.56969(8) 0.78859(9)
C16 C 0.80992(12) 0.82324(8) 0.65593(9)
C17 C 0.98022(17) 0.35087(9) 0.11599(9)
H8 H 0.9603 0.3594 0.0846
C18 C 0.15798(13) 0.56942(8) 0.76453(10)
H9 H 0.1264 0.5939 0.7676
C21 C 0.99771(16) 0.53301(9) 0.40440(11)
C22 C 0.97818(12) 0.59974(7) 0.45473(8)
C23 C 0.55988(15) 0.87912(9) 0.79876(10)
H11 H 0.5510 0.8864 0.8309
C26 C 0.96092(13) 0.38239(8) 0.24512(9)
C27 C 0.55139(15) 0.83036(9) 0.73186(10)
H12 H 0.5380 0.8029 0.7171
C30 C 0.28744(17) 0.78821(11) 0.91050(11)
H13 H 0.2878 0.8030 0.8804
C32 C 0.42385(13) 0.97818(9) 0.64021(9)
C34 C 0.53562(13) 0.83856(9) 0.77858(9)
N11 N 0.35072(16) 0.72565(9) 0.87730(10)
C36 C 0.8350(3) 0.92461(11) 0.5763(2)
C38 C 0.85576(19) 0.50504(12) 0.41204(11)
H15 H 0.8069 0.4957 0.4143
C39 C 0.63454(18) 0.30602(9) 0.53697(10)
H16 H 0.6250 0.3128 0.5691
C40 C 0.49715(14) 0.80519(9) 0.85474(10)
H17 H 0.5318 0.8233 0.8730
C42 C 0.9040(2) 0.47882(11) 0.38753(11)
C46 C 0.8441(2) 0.87859(9) 0.59880(13)
C47 C 0.98562(13) 0.36082(8) 0.20186(9)
C49 C 0.74476(14) 0.89555(8) 0.65095(9)
C50 C 0.7746(3) 0.38784(17) 0.36720(14)
H19 H 0.7654 0.3920 0.3333
C51 C 0.36318(16) 0.65660(11) 0.83532(12)
H20 H 0.4137 0.6627 0.8344
C54 C 0.40056(15) 0.75067(10) 0.85249(11)
C55 C 0.21564(15) 0.63878(9) 0.83711(11)
H22 H 0.1651 0.6328 0.8380
C58 C 0.64834(14) 0.98210(9) 0.57502(10)
H25 H 0.6117 0.9599 0.5715
C61 C 0.8970(2) 0.84948(9) 0.58300(14)
C62 C 0.13417(13) 0.53375(8) 0.73627(9)
H27 H 0.0866 0.5347 0.7196
C63 C 0.25910(14) 0.60902(8) 0.81429(9)
C64 C 0.6613(2) 0.28758(12) 0.44553(12)
H28 H 0.6690 0.2801 0.4132
C67 C 0.37946(14) 0.96776(9) 0.67668(9)
C68 C 0.39649(17) 0.75146(11) 0.80271(11)
H31 H 0.3624 0.7331 0.7844
C70 C 0.90554(15) 0.80844(8) 0.60479(10)
C71 C 0.40320(17) 0.93320(11) 0.71469(11)
C72 C 0.8311(2) 0.41068(12) 0.39245(13)
C73 C 0.7314(3) 0.35914(17) 0.39056(13)
H33 H 0.6951 0.3421 0.3725
C78 C 0.58691(14) 0.86208(8) 0.70619(10)
H36 H 0.5945 0.8562 0.6735
C79 C 0.99625(13) 0.99742(8) 0.26492(9)
C85 C 0.95946(17) 0.35749(10) 0.28801(10)
H39 H 0.9761 0.3278 0.2893
C87 C 0.26971(14) 0.53154(9) 0.78528(9)
H41 H 0.3169 0.5294 0.8023
C88 C 0.45275(16) 0.77731(11) 0.87905(11)
H42 H 0.4577 0.7763 0.9133
C89 C 0.59709(15) 0.90872(8) 0.77134(10)
H43 H 0.6134 0.9359 0.7856
C91 C 0.95896(17) 0.37394(9) 0.15539(9)
H44 H 0.9267 0.3984 0.1508
C92 C 0.49729(14) 0.95534(9) 0.63960(10)
C93 C 0.31988(16) 0.68606(10) 0.85749(11)
H45 H 0.6412 0.9962 0.5039
C95 C 0.95251(14) 0.55895(8) 0.43010(9)
C98 C 0.91069(19) 0.44529(10) 0.28498(11)
H46 H 0.8944 0.4750 0.2845
C100 C 0.86332(13) 0.79517(8) 0.64145(10)
C102 C 0.6788(2) 0.33480(10) 0.51362(11)
H48 H 0.6988 0.3604 0.5295
C104 C 0.61882(17) 0.26104(10) 0.47137(11)
H50 H 0.5982 0.2353 0.4561
C105 C 0.26361(17) 0.98128(11) 0.71675(11)
C106 C 0.24194(15) 0.49687(8) 0.75716(10)
H51 H 0.2708 0.4710 0.7558
C107 C 0.96519(15) 0.77834(8) 0.59005(11)
C108 C 0.33396(16) 0.61826(10) 0.81431(11)
H52 H 0.3648 0.5981 0.7998
C109 C 0.9736(2) 0.49366(10) 0.38207(12)
C110 C 0.8427(2) 0.40579(13) 0.44198(13)
H54 H 0.8811 0.4214 0.4598
C112 C 0.9447(3) 0.86350(13) 0.5439(2)
C113 C 0.2884(2) 0.74551(11) 0.99889(12)
C114 C 0.7636(2) 0.81093(13) 0.69499(16)
C115 C 0.25686(16) 0.78663(11) 0.99321(9)
C117 C 0.31830(15) 0.74609(9) 0.91626(10)
C120 C 0.25622(16) 0.80876(11) 0.94836(10)
C121 C 0.69309(19) 0.32508(11) 0.46644(11)
C122 C 0.9086(2) 0.41956(11) 0.32642(11)
C123 C 0.49232(14) 0.80724(9) 0.80525(10)
C126 C 0.3188(2) 0.72489(11) 0.96051(13)
H57 H 0.3398 0.6963 0.9647
C127 C 0.9336(2) 0.37676(12) 0.32802(11)
H58 H 0.9331 0.3602 0.3570
C128 C 0.7410(2) 0.35526(12) 0.44018(12)
C129 C 0.7976(2) 0.37772(13) 0.46573(13)
H59 H 0.8058 0.3740 0.4997
C130 C 0.24522(16) 0.67725(10) 0.85858(12)
H60 H 0.2150 0.6973 0.8738
C131 C 0.44245(19) 0.77922(11) 0.77917(12)
H61 H 0.4398 0.7791 0.7449
Co4 Co 0.150980(16) 0.448713(10) 0.677831(11)
Co6 Co 0.557253(15) 0.223430(9) 0.561741(12)
N16 N 0.67591(11) 0.99775(6) 0.73152(7)
H66 H 0.976315 0.89252 0.555912
H67 H 0.9817 0.836709 0.536818
H68 H 0.910243 0.871311 0.510971
H70 H 0.210856 0.970036 0.700088
H71 H 0.287809 0.955714 0.740708
H74 H 0.706203 0.812557 0.681197
H75 H 0.776902 0.777495 0.707195
H76 H 0.773837 0.833739 0.725129
H77 H 0.156101 0.852448 0.992157
H85 H 0.231692 0.84136 0.943521
H87 H 0.829473 0.73198 0.665808
H88 H 0.921987 0.734306 0.652183
H89 H 0.896155 0.758935 0.706057
H94 H 0.846189 0.949508 0.604258
H95 H 0.873071 0.928551 0.548897
H96 H 0.779268 0.9285 0.559743
H100 H 0.502278 0.998443 0.570129
H105 H 0.362419 0.907074 0.713817
H106 H 0.455563 0.919291 0.707171
H107 H 0.408601 0.948512 0.750273
O2_2 O 0.15869(10) 0.30460(6) 0.07120(8)
O3_2 O 0.53034(13) 0.35313(8) 0.15832(10)
O4_2 O 0.19924(11) 0.25644(8) 0.12835(8)
O7_2 O 0.50759(13) 0.40749(8) 0.10746(10)
O8_2 O 0.02875(11) 0.21924(6) 0.11118(8)
N2_2 N 0.02645(10) 0.32530(6) 0.00856(7)
C1_2 C 0.45553(14) 0.31555(11) 0.04346(11)
C14_2 C 0.39867(12) 0.32513(8) 0.07813(9)
C20_2 C 0.33106(12) 0.30398(8) 0.07319(9)
C29_2 C 0.41372(12) 0.35486(8) 0.11649(9)
C48_2 C 0.36156(14) 0.36527(10) 0.14855(11)
C53_2 C 0.31304(14) 0.27029(9) 0.03275(10)
H32_2 H 0.1242 0.3526 0.0071
C90_2 C 0.28025(13) 0.31310(9) 0.10561(10)
C97_2 C 0.48855(12) 0.37405(9) 0.12719(11)
C116_2 C 0.20802(13) 0.28964(9) 0.10132(10)
C119_2 C 0.29316(15) 0.34423(11) 0.14254(12)
C124_2 C 0.38065(19) 0.39788(13) 0.18873(13)
C133_2 C 0.2368(2) 0.35523(15) 0.17775(16)
N17_2 N 0.10471(13) 0.23066(7) 0.01676(8)
H78_2 H 0.427371 0.385727 0.211978
H79_2 H 0.334122 0.401907 0.209832
H80_2 H 0.394242 0.429555 0.173396
H81_2 H 0.258837 0.346862 0.214342
H82_2 H 0.18713 0.336324 0.168245
H83_2 H 0.224273 0.390342 0.175752
H90_2 H 0.469719 0.280661 0.0452575
H91_2 H 0.504195 0.335253 0.053371
H92_2 H 0.433528 0.323852 0.0068424
H103_2 H 0.258065 0.257525 0.0349157
H104_2 H 0.352111 0.243219 0.0367044
C5_2 C 0.05605(16) 0.07266(9) 0.75777(10)
H3_2 H 0.0700 0.1003 0.7719
H10_2 H 0.0466 0.4577 0.9019
C35_2 C 0.03527(13) 0.67379(9) 0.70553(9)
H14_2 H 0.0563 0.6832 0.7363
C43_2 C 0.01767(16) 0.04346(9) 0.78442(10)
H18_2 H 0.0060 0.0513 0.8159
C66_2 C 0.05162(13) 0.39448(8) 0.97136(10)
H30_2 H 0.0865 0.4164 0.9651
C69_2 C 0.07371(12) 0.35648(8) 0.99719(10)
C81_2 C 0.05335(15) 0.02491(8) 0.69364(10)
H38_2 H 0.0648 0.0183 0.6618
C86_2 C 0.05398(12) 0.69454(8) 0.66411(9)
H40_2 H 0.0876 0.7184 0.6676
H53_2 H 0.0048 0.5227 0.8633
H102_2 H 0.316133 0.286174 0.99788
Co1_2 Co 0.650980(16) 0.051287(10) 0.177831(11)
O1_2 O 0.95074(11) 0.24888(6) 0.05610(8)
O5_2 O 0.54834(10) 0.02669(7) 0.16594(7)
O6_2 O 0.76100(10) 0.07784(6) 0.18526(7)
O9_2 O 0.68097(10) 0.10568(6) 0.12963(7)
O11_2 O 0.50442(12) 0.07739(8) 0.11404(9)
N5_2 N 0.68041(12) 0.00935(7) 0.12009(8)
N7_2 N 0.17591(11) 0.50225(6) 0.23152(7)
C4_2 C 0.87883(19) 0.24795(12) 0.16827(18)
N9_2 N 0.60471(13) 0.73066(7) 0.01676(8)
N10_2 N 0.61058(12) 0.09974(7) 0.22579(8)
C10_2 C 0.31319(14) 0.00921(8) 0.17824(9)
C11_2 C 0.80207(14) 0.13481(8) 0.13465(9)
C15_2 C 0.22812(13) 0.43031(8) 0.28859(9)
C16_2 C 0.80992(12) 0.17676(8) 0.15593(9)
C18_2 C 0.15798(13) 0.43058(8) 0.26453(10)
H9_2 H 0.1264 0.4061 0.2676
C23_2 C 0.55988(15) 0.12088(9) 0.29876(10)
H11_2 H 0.5510 0.1136 0.3309
C27_2 C 0.55139(15) 0.16964(9) 0.23186(10)
H12_2 H 0.5380 0.1971 0.2171
C30_2 C 0.28744(17) 0.21179(11) 0.41050(11)
H13_2 H 0.2878 0.1970 0.3804
C32_2 C 0.42385(13) 0.02182(9) 0.14021(9)
C34_2 C 0.53562(13) 0.16144(9) 0.27858(9)
N11_2 N 0.35072(16) 0.27435(9) 0.37730(10)
C36_2 C 0.8350(3) 0.07539(11) 0.0763(2)
C39_2 C 0.63454(18) 0.69398(9) 0.03697(10)
H16_2 H 0.6250 0.6872 0.0691
C40_2 C 0.49715(14) 0.19481(9) 0.35474(10)
H17_2 H 0.5318 0.1767 0.3730
C46_2 C 0.8441(2) 0.12141(9) 0.09880(13)
C49_2 C 0.74476(14) 0.10445(8) 0.15095(9)
C51_2 C 0.36318(16) 0.34340(11) 0.33532(12)
H20_2 H 0.4137 0.3373 0.3344
C54_2 C 0.40056(15) 0.24933(10) 0.35249(11)
C55_2 C 0.21564(15) 0.36122(9) 0.33711(11)
H22_2 H 0.1651 0.3672 0.3380
C58_2 C 0.64834(14) 0.01790(9) 0.07502(10)
H25_2 H 0.6117 0.0401 0.0715
C61_2 C 0.8970(2) 0.15052(9) 0.08300(14)
C62_2 C 0.13417(13) 0.46625(8) 0.23627(9)
H27_2 H 0.0866 0.4653 0.2196
C63_2 C 0.25910(14) 0.39098(8) 0.31429(9)
C67_2 C 0.37946(14) 0.03224(9) 0.17668(9)
C68_2 C 0.39649(17) 0.24854(11) 0.30271(11)
H31_2 H 0.3624 0.2669 0.2844
C70_2 C 0.90554(15) 0.19156(8) 0.10479(10)
C71_2 C 0.40320(17) 0.06680(11) 0.21469(11)
C78_2 C 0.58691(14) 0.13792(8) 0.20619(10)
H36_2 H 0.5945 0.1438 0.1735
C82_2 C 0.14959(15) 0.13640(10) 0.56794(9)
C84_2 C 0.2255(2) 0.19016(11) 0.53416(10)
C87_2 C 0.26971(14) 0.46846(9) 0.28528(9)
H41_2 H 0.3169 0.4706 0.3023
C88_2 C 0.45275(16) 0.22269(11) 0.37905(11)
H42_2 H 0.4577 0.2237 0.4133
C89_2 C 0.59709(15) 0.09128(8) 0.27134(10)
H43_2 H 0.6134 0.0641 0.2856
C92_2 C 0.49729(14) 0.04466(9) 0.13960(10)
C93_2 C 0.31988(16) 0.31394(10) 0.35749(11)
H45_2 H 0.6412 0.0038 0.0039
C100_2 C 0.86332(13) 0.20483(8) 0.14145(10)
C102_2 C 0.6788(2) 0.66520(10) 0.01362(11)
H48_2 H 0.6988 0.6396 0.0295
C105_2 C 0.26361(17) 0.01872(11) 0.21675(11)
C106_2 C 0.24194(15) 0.50313(8) 0.25716(10)
H51_2 H 0.2708 0.5290 0.2558
C107_2 C 0.96519(15) 0.22166(8) 0.09005(11)
C108_2 C 0.33396(16) 0.38174(10) 0.31431(11)
H52_2 H 0.3648 0.4019 0.2998
C112_2 C 0.9447(3) 0.13650(13) 0.0439(2)
C113_2 C 0.2884(2) 0.25449(11) 0.49889(12)
C114_2 C 0.7636(2) 0.18907(13) 0.19499(16)
C115_2 C 0.25686(16) 0.21337(11) 0.49321(9)
C117_2 C 0.31830(15) 0.25391(9) 0.41626(10)
C118_2 C 0.17622(16) 0.15773(10) 0.52856(9)
C120_2 C 0.25622(16) 0.19124(11) 0.44836(10)
C123_2 C 0.49232(14) 0.19276(9) 0.30525(10)
C126_2 C 0.3188(2) 0.27511(11) 0.46051(13)
H57_2 H 0.3398 0.3037 0.4647
C130_2 C 0.24522(16) 0.32275(10) 0.35858(12)
H60_2 H 0.2150 0.3027 0.3738
C131_2 C 0.44245(19) 0.22078(11) 0.27917(12)
H61_2 H 0.4398 0.2209 0.2449
C134_2 C 0.2646(3) 0.19407(15) 0.58084(15)
C135_2 C 0.2364(3) 0.17265(18) 0.61848(16)
Co4_2 Co 0.150980(16) 0.551287(10) 0.177831(11)
Co6_2 Co 0.557253(15) 0.776570(9) 0.061741(12)
N16_2 N 0.67591(11) 0.00225(6) 0.23152(7)
H62_2 H 0.110897 0.109404 0.561063
H66_2 H 0.976315 0.10748 0.0559117
H67_2 H 0.9817 0.163291 0.0368177
H68_2 H 0.910243 0.128689 0.0109707
H69_2 H 0.289679 0.271134 0.533662
H70_2 H 0.210856 0.0299635 0.200088
H71_2 H 0.287809 0.044286 0.240708
H74_2 H 0.706203 0.187443 0.181197
H75_2 H 0.776902 0.222505 0.207195
H76_2 H 0.773837 0.166261 0.225129
H77_2 H 0.156101 0.147552 0.492157
H84_2 H 0.265858 0.174652 0.654278
H85_2 H 0.231692 0.15864 0.443521
H86_2 H 0.314778 0.213265 0.586394
H87_2 H 0.829473 0.26802 0.165808
H88_2 H 0.921987 0.265694 0.152183
H89_2 H 0.896155 0.241065 0.206057
H94_2 H 0.846189 0.0504921 0.104258
H95_2 H 0.873071 0.0714493 0.0488973
H96_2 H 0.779268 0.0715 0.0597428
H100_2 H 0.502278 0.00155707 0.0701292
H105_2 H 0.362419 0.0929263 0.213817
H106_2 H 0.455563 0.080709 0.207171
H107_2 H 0.408601 0.0514877 0.250273
O10_2 O 0.22392(17) 0.92245(7) 0.17645(11)
C9_2 C 0.33843(13) 0.96745(9) 0.10641(9)
C31_2 C 0.29374(12) 0.97746(8) 0.14313(9)
O12_2 O 0.16980(13) 0.95993(11) 0.11732(10)
C41_2 C 0.71998(15) 0.96364(8) 0.03780(9)
C44_2 C 0.45435(16) 0.98032(14) 0.06530(11)
H23_2 H 0.7733 0.8827 0.0255
C74_2 C 0.75355(18) 0.95440(9) 0.08406(10)
H34_2 H 0.7910 0.9328 0.0884
C77_2 C 0.40399(13) 0.99029(9) 0.10450(9)
C83_2 C 0.31586(15) 0.93182(11) 0.06947(10)
C94_2 C 0.66582(15) 0.99645(9) 0.03448(9)
C111_2 C 0.73142(16) 0.97733(9) 0.12351(10)
H55_2 H 0.7536 0.9699 0.1547
C132_2 C 0.22360(16) 0.95196(9) 0.14568(11)
O13_2 O 0.03034(13) 0.85313(8) 0.15832(10)
N13_2 N 0.16588(10) 0.84527(6) 0.22635(7)
H63_2 H 0.310484 0.900443 0.0878868
H64_2 H 0.357234 0.928877 0.0440996
H65_2 H 0.2637 0.940626 0.0499711
H72_2 H 0.256136 0.988821 0.237439
H99_2 H 0.471398 0.945918 0.067851
H101_2 H 0.425317 0.986369 0.029942
N1_2 N 0.66588(10) 0.65473(6) 0.72635(7)
N3_2 N 0.83040(14) 0.88518(7) 0.87308(8)
C2_2 C 0.62295(12) 0.68611(9) 0.74327(10)
H1_2 H 0.5718 0.6844 0.7345
C7_2 C 0.85148(14) 0.81486(9) 0.83357(11)
H5_2 H 0.9015 0.8223 0.8326
C13_2 C 0.72300(12) 0.72482(7) 0.78627(8)
C19_2 C 0.95561(13) 0.97075(8) 0.79250(9)
C24_2 C 0.86730(13) 0.91098(7) 0.79486(9)
C25_2 C 0.80524(14) 0.84364(8) 0.85514(9)
C28_2 C 0.90860(12) 0.93971(7) 0.76876(9)
C33_2 C 0.70744(15) 0.79111(9) 0.83814(10)
C37_2 C 0.87377(14) 0.91193(8) 0.84523(9)
C45_2 C 0.79888(15) 0.90383(8) 0.91268(9)
C52_2 C 0.73287(16) 0.83076(9) 0.85859(10)
H21_2 H 0.7011 0.8491 0.8749
C56_2 C 0.77252(19) 0.89926(9) 0.99644(11)
C57_2 C 0.73765(13) 0.65648(8) 0.74244(10)
H24_2 H 0.7692 0.6338 0.7333
C59_2 C 0.75243(13) 0.76352(8) 0.81417(9)
C60_2 C 0.92142(17) 0.94249(10) 0.86950(10)
H26_2 H 0.9259 0.9438 0.9038
C65_2 C 0.74036(17) 0.96457(8) 0.95022(10)
H29_2 H 0.7187 0.9930 0.9475
C75_2 C 0.79983(19) 0.88094(8) 0.95669(11)
H35_2 H 0.8199 0.8520 0.9590
C76_2 C 0.82549(14) 0.77573(8) 0.81363(11)
C80_2 C 0.64905(13) 0.72084(8) 0.77283(10)
H37_2 H 0.6159 0.7418 0.7838
C96_2 C 0.74356(15) 0.94206(8) 0.99459(9)
C99_2 C 0.76822(17) 0.94597(9) 0.91062(10)
H47_2 H 0.7665 0.9622 0.8813
C101_2 C 0.96252(16) 0.97116(10) 0.84315(10)
C125_2 C 0.76676(13) 0.69076(8) 0.77208(11)
H56_2 H 0.8174 0.6907 0.7827
H93_2 H 0.829857 0.887729 0.775649
H97_2 H 0.650939 0.781459 0.84098
H98_2 H 0.904043 0.937851 0.729486
H108_2 H 0.862819 0.753785 0.797043
O7_3 O 0.00759(13) 0.09251(8) 0.60746(10)
H91_3 H 0.00419508 0.164747 0.553371
O1_3 O 0.45074(11) 0.25112(6) 0.55610(8)
O2_3 O 0.65869(10) 0.19540(6) 0.57120(8)
O4_3 O 0.69924(11) 0.24356(8) 0.62835(8)
O5_3 O 0.04834(10) 0.47331(7) 0.66594(7)
O6_3 O 0.26100(10) 0.42216(6) 0.68526(7)
O8_3 O 0.52875(11) 0.28076(6) 0.61118(8)
O9_3 O 0.18097(10) 0.39432(6) 0.62963(7)
N2_3 N 0.52645(10) 0.17470(6) 0.50856(7)
O11_3 O 0.00442(12) 0.42261(8) 0.61404(9)
C1_3 C 0.95553(14) 0.18445(11) 0.54346(11)
N3_3 N 0.33040(14) 0.61482(7) 0.37308(8)
N4_2 N 0.57450(12) 0.43606(7) 0.21314(8)
N5_3 N 0.18041(12) 0.49065(7) 0.62009(8)
C2_3 C 0.12295(12) 0.81389(9) 0.24327(10)
H1_3 H 0.0718 0.8156 0.2345
C3_2 C 0.43064(12) 0.13372(8) 0.46549(8)
H2_2 H 0.3802 0.1318 0.4545
C4_3 C 0.37883(19) 0.25205(12) 0.66827(18)
C5_3 C 0.55605(16) 0.42734(9) 0.25777(10)
H3_3 H 0.5700 0.3997 0.2719
C6_2 C 0.45625(12) 0.16990(7) 0.49183(8)
H4_2 H 0.4226 0.1924 0.4984
C7_3 C 0.35148(14) 0.68514(9) 0.33357(11)
H5_3 H 0.4015 0.6777 0.3326
N10_3 N 0.11058(12) 0.40026(7) 0.72579(8)
C11_3 C 0.30207(14) 0.36519(8) 0.63465(9)
C12_2 C 0.38038(15) 0.04467(9) 0.43281(9)
H7_2 H 0.3479 0.0624 0.4491
C13_3 C 0.22300(12) 0.77518(7) 0.28627(8)
C14_3 C 0.89867(12) 0.17487(8) 0.57813(9)
C16_3 C 0.30992(12) 0.32324(8) 0.65593(9)
C19_3 C 0.45561(13) 0.52925(8) 0.29250(9)
C20_3 C 0.83106(12) 0.19602(8) 0.57319(9)
C21_2 C 0.49771(16) 0.03301(9) 0.40440(11)
H10_3 H 0.5466 0.0423 0.4019
C22_2 C 0.47818(12) 0.09974(7) 0.45473(8)
C23_3 C 0.05988(15) 0.37912(9) 0.79876(10)
H11_3 H 0.0510 0.3864 0.8309
C24_3 C 0.36730(13) 0.58902(7) 0.29486(9)
C25_3 C 0.30524(14) 0.65636(8) 0.35514(9)
C27_3 C 0.05139(15) 0.33036(9) 0.73186(10)
H12_3 H 0.0380 0.3029 0.7171
C28_3 C 0.40860(12) 0.56029(7) 0.26876(9)
C29_3 C 0.91372(12) 0.14514(8) 0.61649(9)
C33_3 C 0.20744(15) 0.70889(9) 0.33814(10)
C34_3 C 0.03562(13) 0.33856(9) 0.77858(9)
C36_3 C 0.3350(3) 0.42461(11) 0.5763(2)
C37_3 C 0.37377(14) 0.58807(8) 0.34523(9)
C38_2 C 0.35576(19) 0.00504(12) 0.41204(11)
H17_3 H 0.0318 0.3233 0.8730
C41_3 C 0.21998(15) 0.53636(8) 0.53780(9)
C43_3 C 0.51767(16) 0.45654(9) 0.28442(10)
H18_3 H 0.5060 0.4487 0.3159
C45_3 C 0.29888(15) 0.59617(8) 0.41268(9)
C46_3 C 0.3441(2) 0.37859(9) 0.59880(13)
C48_3 C 0.86156(14) 0.13473(10) 0.64855(11)
C49_3 C 0.24476(14) 0.39555(8) 0.65095(9)
C52_3 C 0.23287(16) 0.66924(9) 0.35859(10)
H21_3 H 0.2011 0.6509 0.3749
C53_3 C 0.81304(14) 0.22971(9) 0.53275(10)
C56_3 C 0.27252(19) 0.60074(9) 0.49644(11)
H23_3 H 0.2733 0.6173 0.5255
C57_3 C 0.23765(13) 0.84352(8) 0.24244(10)
H24_3 H 0.2692 0.8662 0.2333
C58_3 C 0.14834(14) 0.48210(9) 0.57502(10)
H25_3 H 0.1117 0.4599 0.5715
C59_3 C 0.25243(13) 0.73648(8) 0.31417(9)
C60_3 C 0.42142(17) 0.55751(10) 0.36950(10)
H26_3 H 0.4259 0.5562 0.4038
C61_3 C 0.3970(2) 0.34948(9) 0.58300(14)
C65_3 C 0.24036(17) 0.53543(8) 0.45022(10)
H29_3 H 0.2187 0.5070 0.4475
C66_3 C 0.55162(13) 0.10552(8) 0.47136(10)
H30_3 H 0.5865 0.0836 0.4651
C69_3 C 0.57371(12) 0.14352(8) 0.49719(10)
H32_3 H 0.6242 0.1474 0.5071
C70_3 C 0.40554(15) 0.30844(8) 0.60479(10)
C74_3 C 0.25355(18) 0.54560(9) 0.58406(10)
H34_3 H 0.2910 0.5672 0.5884
C75_3 C 0.29983(19) 0.61906(8) 0.45669(11)
H35_3 H 0.3199 0.6480 0.4590
C76_3 C 0.32549(14) 0.72427(8) 0.31363(11)
C78_3 C 0.08691(14) 0.36208(8) 0.70619(10)
H36_3 H 0.0945 0.3562 0.6735
C79_2 C 0.49625(13) 0.49742(8) 0.26492(9)
C80_3 C 0.14905(13) 0.77916(8) 0.27283(10)
H37_3 H 0.1159 0.7582 0.2838
C81_3 C 0.55335(15) 0.47509(8) 0.19364(10)
H38_3 H 0.5648 0.4817 0.1618
C89_3 C 0.09709(15) 0.40872(8) 0.77134(10)
H43_3 H 0.1134 0.4359 0.7856
C90_3 C 0.78025(13) 0.18690(9) 0.60561(10)
C94_3 C 0.16582(15) 0.50355(9) 0.53448(9)
H45_3 H 0.1412 0.4962 0.5039
C95_2 C 0.45251(14) 0.05895(8) 0.43010(9)
C96_3 C 0.24356(15) 0.55794(8) 0.49459(9)
C97_3 C 0.98855(12) 0.12595(9) 0.62719(11)
C99_3 C 0.26822(17) 0.55403(9) 0.41062(10)
H47_3 H 0.2665 0.5378 0.3813
C100_3 C 0.36332(13) 0.29517(8) 0.64145(10)
C101_3 C 0.46252(16) 0.52884(10) 0.34315(10)
C103_2 C 0.51509(15) 0.50630(8) 0.21833(10)
H49_2 H 0.5018 0.5337 0.2034
C107_3 C 0.46519(15) 0.27834(8) 0.59005(11)
C111_3 C 0.23142(16) 0.52267(9) 0.62351(10)
H55_3 H 0.2536 0.5301 0.6547
C112_3 C 0.4447(3) 0.36350(13) 0.5439(2)
C114_3 C 0.2636(2) 0.31093(13) 0.69499(16)
C116_3 C 0.70802(13) 0.21036(9) 0.60132(10)
C119_3 C 0.79316(15) 0.15577(11) 0.64254(12)
C124_3 C 0.88065(19) 0.10212(13) 0.68873(13)
C125_3 C 0.26676(13) 0.80924(8) 0.27208(11)
H56_3 H 0.3174 0.8093 0.2827
C133_3 C 0.7368(2) 0.14477(15) 0.67775(16)
N15_2 N 0.52763(11) 0.18300(6) 0.61995(8)
H66_3 H 0.476315 0.39252 0.555912
H67_3 H 0.4817 0.336709 0.536818
H68_3 H 0.410243 0.371311 0.510971
H73_2 H 0.500456 0.505862 0.36236
H74_3 H 0.206203 0.312557 0.681197
H75_3 H 0.276902 0.277495 0.707195
H76_3 H 0.273837 0.333739 0.725129
H78_3 H 0.927371 0.114273 0.711978
H79_3 H 0.834122 0.0980932 0.709832
H80_3 H 0.894242 0.0704453 0.673396
H81_3 H 0.758837 0.153138 0.714342
H82_3 H 0.68713 0.163676 0.668245
H83_3 H 0.724273 0.109658 0.675752
H87_3 H 0.329473 0.23198 0.665808
H88_3 H 0.421987 0.234306 0.652183
H89_3 H 0.396155 0.258935 0.706057
H90_3 H 0.969719 0.219339 0.545258
H92_3 H 0.933528 0.176148 0.506842
H93_3 H 0.329857 0.612271 0.275649
H94_3 H 0.346189 0.449508 0.604258
H95_3 H 0.373071 0.428551 0.548897
H96_3 H 0.279268 0.4285 0.559743
H97_3 H 0.150939 0.718541 0.34098
H98_3 H 0.404043 0.562149 0.229486
H100_3 H 0.00227833 0.498443 0.570129
H102_3 H 0.816133 0.213826 0.49788
H103_3 H 0.758065 0.242475 0.534916
H104_3 H 0.852111 0.256781 0.536704
H108_3 H 0.362819 0.746215 0.297043
N6_2 N 0.52763(11) 0.81700(6) 0.11995(8)
N8_2 N 0.3776(2) 0.93814(11) 0.36710(12)
C8_2 C 0.43729(15) 0.92641(9) 0.24405(9)
H6_2 H 0.4393 0.9435 0.2156
C17_2 C 0.48022(17) 0.85087(9) 0.11599(9)
H8_2 H 0.4603 0.8594 0.0846
C26_2 C 0.46092(13) 0.88239(8) 0.24512(9)
C35_3 C 0.53527(13) 0.82621(9) 0.20553(9)
H14_3 H 0.5563 0.8168 0.2363
H15_2 H 0.3069 0.9957 0.4143
C39_3 C 0.13454(18) 0.80602(9) 0.53697(10)
H16_3 H 0.1250 0.8128 0.5691
C42_2 C 0.4040(2) 0.97882(11) 0.38753(11)
C47_2 C 0.48562(13) 0.86082(8) 0.20186(9)
C50_2 C 0.2746(3) 0.88784(17) 0.36720(14)
H19_2 H 0.2654 0.8920 0.3333
C64_2 C 0.1613(2) 0.78758(12) 0.44553(12)
H28_2 H 0.1690 0.7801 0.4132
C72_2 C 0.3311(2) 0.91068(12) 0.39245(13)
C73_2 C 0.2314(3) 0.85914(17) 0.39056(13)
H33_2 H 0.1951 0.8421 0.3725
C85_2 C 0.45946(17) 0.85749(10) 0.28801(10)
H39_2 H 0.4761 0.8278 0.2893
C86_3 C 0.55398(12) 0.80546(8) 0.16411(9)
H40_3 H 0.5876 0.7816 0.1676
C91_2 C 0.45896(17) 0.87394(9) 0.15539(9)
H44_2 H 0.4267 0.8984 0.1508
C98_2 C 0.41069(19) 0.94529(10) 0.28498(11)
H46_2 H 0.3944 0.9750 0.2845
C102_3 C 0.1788(2) 0.83480(10) 0.51362(11)
H48_3 H 0.1988 0.8604 0.5295
C104_2 C 0.11882(17) 0.76104(10) 0.47137(11)
H50_2 H 0.0982 0.7353 0.4561
C109_2 C 0.4736(2) 0.99366(10) 0.38207(12)
H53_3 H 0.5048 0.9773 0.3633
C110_2 C 0.3427(2) 0.90579(13) 0.44198(13)
H54_2 H 0.3811 0.9214 0.4598
C121_2 C 0.19309(19) 0.82508(11) 0.46644(11)
C122_2 C 0.4086(2) 0.91956(11) 0.32642(11)
C127_2 C 0.4336(2) 0.87676(12) 0.32802(11)
H58_2 H 0.4331 0.8602 0.3570
C128_2 C 0.2410(2) 0.85526(12) 0.44018(12)
C129_2 C 0.2976(2) 0.87772(13) 0.46573(13)
H59_2 H 0.3058 0.8740 0.4997
N12_2 N 0.6693(2) 0.35241(9) 0.11252(9)
C82_3 C 0.64959(15) 0.36360(10) 0.06794(9)
C84_3 C 0.7255(2) 0.30984(11) 0.03416(10)
C118_3 C 0.67622(16) 0.34227(10) 0.02856(9)
C134_3 C 0.7646(3) 0.30593(15) 0.08084(15)
C135_3 C 0.7364(3) 0.32735(18) 0.11848(16)
H62_3 H 0.610897 0.390596 0.0610633
H69_3 H 0.789679 0.228866 0.0336625
H84_3 H 0.765858 0.325348 0.154278
H86_3 H 0.814778 0.286735 0.086394
O10_3 O 0.72392(17) 0.57755(7) 0.67645(11)
C9_3 C 0.83843(13) 0.53255(9) 0.60641(9)
C10_3 C 0.81319(14) 0.49079(8) 0.67824(9)
C15_3 C 0.72812(13) 0.06969(8) 0.78859(9)
C18_3 C 0.65798(13) 0.06942(8) 0.76453(10)
H9_3 H 0.6264 0.0939 0.7676
C30_3 C 0.78744(17) 0.28821(11) 0.91050(11)
H13_3 H 0.7878 0.3030 0.8804
C31_3 C 0.79374(12) 0.52254(8) 0.64313(9)
C32_3 C 0.92385(13) 0.47818(9) 0.64021(9)
N11_3 N 0.85072(16) 0.22565(9) 0.87730(10)
C40_3 C 0.99715(14) 0.30519(9) 0.85474(10)
O12_3 O 0.66980(13) 0.54007(11) 0.61732(10)
C44_3 C 0.95435(16) 0.51968(14) 0.56530(11)
C51_3 C 0.86318(16) 0.15660(11) 0.83532(12)
H20_3 H 0.9137 0.1627 0.8344
C54_3 C 0.90056(15) 0.25067(10) 0.85249(11)
C55_3 C 0.71564(15) 0.13878(9) 0.83711(11)
H22_3 H 0.6651 0.1328 0.8380
C62_3 C 0.63417(13) 0.03375(8) 0.73627(9)
H27_3 H 0.5866 0.0347 0.7196
C63_3 C 0.75910(14) 0.10902(8) 0.81429(9)
C67_3 C 0.87946(14) 0.46776(9) 0.67668(9)
C68_3 C 0.89649(17) 0.25146(11) 0.80271(11)
H31_3 H 0.8624 0.2331 0.7844
C71_3 C 0.90320(17) 0.43320(11) 0.71469(11)
C77_3 C 0.90399(13) 0.50971(9) 0.60450(9)
C83_3 C 0.81586(15) 0.56818(11) 0.56947(10)
C87_3 C 0.76971(14) 0.03154(9) 0.78528(9)
H41_3 H 0.8169 0.0294 0.8023
C88_3 C 0.95275(16) 0.27731(11) 0.87905(11)
H42_3 H 0.9577 0.2763 0.9133
C92_3 C 0.99729(14) 0.45534(9) 0.63960(10)
C93_3 C 0.81988(16) 0.18606(10) 0.85749(11)
C105_3 C 0.76361(17) 0.48128(11) 0.71675(11)
C108_3 C 0.83396(16) 0.11826(10) 0.81431(11)
H52_3 H 0.8648 0.0981 0.7998
C113_3 C 0.7884(2) 0.24551(11) 0.99889(12)
C115_3 C 0.75686(16) 0.28663(11) 0.99321(9)
C117_3 C 0.81830(15) 0.24609(9) 0.91626(10)
C120_3 C 0.75622(16) 0.30876(11) 0.94836(10)
C123_3 C 0.99232(14) 0.30724(9) 0.80525(10)
C126_3 C 0.8188(2) 0.22489(11) 0.96051(13)
H57_3 H 0.8398 0.1963 0.9647
C130_3 C 0.74522(16) 0.17725(10) 0.85858(12)
H60_3 H 0.7150 0.1973 0.8738
C131_3 C 0.94245(19) 0.27922(11) 0.77917(12)
H61_3 H 0.9398 0.2791 0.7449
C132_3 C 0.72360(16) 0.54804(9) 0.64568(11)
N14_2 N 0.57450(12) 0.56394(7) 0.71314(8)
N18_2 N 0.6693(2) 0.64759(9) 0.61252(9)
H63_3 H 0.810484 0.599557 0.587887
H64_3 H 0.857234 0.571123 0.5441
H65_3 H 0.7637 0.559374 0.549971
H70_3 H 0.710856 0.470036 0.700088
H71_3 H 0.787809 0.455714 0.740708
H72_3 H 0.756136 0.511179 0.737439
H77_3 H 0.656101 0.352448 0.992157
H85_3 H 0.731692 0.34136 0.943521
H99_3 H 0.971398 0.554082 0.567851
H101_3 H 0.925317 0.513631 0.529942
H105_3 H 0.862419 0.407074 0.713817
H106_3 H 0.955563 0.419291 0.707171
H107_3 H 0.908601 0.448512 0.750273
C106_3 C 0.74194(15) 0.99687(8) 0.75716(10)
H51_3 H 0.7708 0.9710 0.7558
O7_4 O 0.00759(13) 0.90749(8) 0.10746(10)
H91_4 H 0.00419508 0.835253 0.053371
C39_4 C 0.13454(18) 0.19398(9) 0.03697(10)
H16_4 H 0.1250 0.1872 0.0691
C102_4 C 0.1788(2) 0.16520(10) 0.01362(11)
H48_4 H 0.1988 0.1396 0.0295
N8_3 N 0.3776(2) 0.06186(11) 0.86710(12)
C8_3 C 0.43729(15) 0.07359(9) 0.74405(9)
H6_3 H 0.4393 0.0565 0.7156
C17_3 C 0.48022(17) 0.14913(9) 0.61599(9)
H8_3 H 0.4603 0.1406 0.5846
C26_3 C 0.46092(13) 0.11761(8) 0.74512(9)
C35_4 C 0.53527(13) 0.17379(9) 0.70553(9)
H14_4 H 0.5563 0.1832 0.7363
H15_3 H 0.3069 0.0043 0.9143
C42_3 C 0.4040(2) 0.02118(11) 0.88753(11)
C47_3 C 0.48562(13) 0.13918(8) 0.70186(9)
C50_3 C 0.2746(3) 0.11216(17) 0.86720(14)
H19_3 H 0.2654 0.1080 0.8333
C64_3 C 0.1613(2) 0.21242(12) 0.94553(12)
H28_3 H 0.1690 0.2199 0.9132
C72_3 C 0.3311(2) 0.08932(12) 0.89245(13)
C73_3 C 0.2314(3) 0.14086(17) 0.89056(13)
H33_3 H 0.1951 0.1579 0.8725
C85_3 C 0.45946(17) 0.14251(10) 0.78801(10)
H39_3 H 0.4761 0.1722 0.7893
C86_4 C 0.55398(12) 0.19454(8) 0.66411(9)
H40_4 H 0.5876 0.2184 0.6676
C91_3 C 0.45896(17) 0.12606(9) 0.65539(9)
H44_3 H 0.4267 0.1016 0.6508
C98_3 C 0.41069(19) 0.05471(10) 0.78498(11)
H46_3 H 0.3944 0.0250 0.7845
C104_3 C 0.11882(17) 0.23896(10) 0.97137(11)
H50_3 H 0.0982 0.2647 0.9561
C109_3 C 0.4736(2) 0.00634(10) 0.88207(12)
H53_4 H 0.5048 0.0227 0.8633
C110_3 C 0.3427(2) 0.09421(13) 0.94198(13)
H54_3 H 0.3811 0.0786 0.9598
C121_3 C 0.19309(19) 0.17492(11) 0.96644(11)
C122_3 C 0.4086(2) 0.08044(11) 0.82642(11)
C127_3 C 0.4336(2) 0.12324(12) 0.82802(11)
H58_3 H 0.4331 0.1398 0.8570
C128_3 C 0.2410(2) 0.14474(12) 0.94018(12)
C129_3 C 0.2976(2) 0.12228(13) 0.96573(13)
H59_3 H 0.3058 0.1260 0.9997
O1_4 O 0.45074(11) 0.74888(6) 0.05610(8)
O2_4 O 0.65869(10) 0.80460(6) 0.07120(8)
O4_4 O 0.69924(11) 0.75644(8) 0.12835(8)
O5_4 O 0.04834(10) 0.52669(7) 0.16594(7)
O6_4 O 0.26100(10) 0.57784(6) 0.18526(7)
O8_4 O 0.52875(11) 0.71924(6) 0.11118(8)
O9_4 O 0.18097(10) 0.60568(6) 0.12963(7)
N2_4 N 0.52645(10) 0.82530(6) 0.00856(7)
O11_4 O 0.00442(12) 0.57739(8) 0.11404(9)
C1_4 C 0.95553(14) 0.81555(11) 0.04346(11)
N5_4 N 0.18041(12) 0.50935(7) 0.12009(8)
C4_4 C 0.37883(19) 0.74795(12) 0.16827(18)
N10_4 N 0.11058(12) 0.59974(7) 0.22579(8)
C11_4 C 0.30207(14) 0.63481(8) 0.13465(9)
C14_4 C 0.89867(12) 0.82513(8) 0.07813(9)
C16_4 C 0.30992(12) 0.67676(8) 0.15593(9)
C20_4 C 0.83106(12) 0.80398(8) 0.07319(9)
C23_4 C 0.05988(15) 0.62088(9) 0.29876(10)
H11_4 H 0.0510 0.6136 0.3309
C27_4 C 0.05139(15) 0.66964(9) 0.23186(10)
H12_4 H 0.0380 0.6971 0.2171
C29_4 C 0.91372(12) 0.85486(8) 0.11649(9)
C34_4 C 0.03562(13) 0.66144(9) 0.27858(9)
C36_4 C 0.3350(3) 0.57539(11) 0.0763(2)
H17_4 H 0.0318 0.6767 0.3730
C41_4 C 0.21998(15) 0.46364(8) 0.03780(9)
C46_4 C 0.3441(2) 0.62141(9) 0.09880(13)
C48_4 C 0.86156(14) 0.86527(10) 0.14855(11)
C49_4 C 0.24476(14) 0.60445(8) 0.15095(9)
C53_4 C 0.81304(14) 0.77029(9) 0.03275(10)
H23_4 H 0.2733 0.3827 0.0255
C58_4 C 0.14834(14) 0.51790(9) 0.07502(10)
H25_4 H 0.1117 0.5401 0.0715
C61_4 C 0.3970(2) 0.65052(9) 0.08300(14)
H32_4 H 0.6242 0.8526 0.0071
C70_4 C 0.40554(15) 0.69156(8) 0.10479(10)
C74_4 C 0.25355(18) 0.45440(9) 0.08406(10)
H34_4 H 0.2910 0.4328 0.0884
C78_4 C 0.08691(14) 0.63792(8) 0.20619(10)
H36_4 H 0.0945 0.6438 0.1735
C89_4 C 0.09709(15) 0.59128(8) 0.27134(10)
H43_4 H 0.1134 0.5641 0.2856
C90_4 C 0.78025(13) 0.81310(9) 0.10561(10)
C94_4 C 0.16582(15) 0.49645(9) 0.03448(9)
H45_4 H 0.1412 0.5038 0.0039
C97_4 C 0.98855(12) 0.87405(9) 0.12719(11)
C100_4 C 0.36332(13) 0.70483(8) 0.14145(10)
C107_4 C 0.46519(15) 0.72166(8) 0.09005(11)
C111_4 C 0.23142(16) 0.47733(9) 0.12351(10)
H55_4 H 0.2536 0.4699 0.1547
C112_4 C 0.4447(3) 0.63650(13) 0.0439(2)
C114_4 C 0.2636(2) 0.68907(13) 0.19499(16)
C116_4 C 0.70802(13) 0.78964(9) 0.10132(10)
C119_4 C 0.79316(15) 0.84423(11) 0.14254(12)
C124_4 C 0.88065(19) 0.89788(13) 0.18873(13)
C133_4 C 0.7368(2) 0.85523(15) 0.17775(16)
H66_4 H 0.476315 0.60748 0.0559117
H67_4 H 0.4817 0.663291 0.0368177
H68_4 H 0.410243 0.628689 0.0109707
H74_4 H 0.206203 0.687443 0.181197
H75_4 H 0.276902 0.722505 0.207195
H76_4 H 0.273837 0.666261 0.225129
H78_4 H 0.927371 0.885727 0.211978
H79_4 H 0.834122 0.901907 0.209832
H80_4 H 0.894242 0.929555 0.173396
H81_4 H 0.758837 0.846862 0.214342
H82_4 H 0.68713 0.836324 0.168245
H83_4 H 0.724273 0.890342 0.175752
H87_4 H 0.329473 0.76802 0.165808
H88_4 H 0.421987 0.765694 0.152183
H89_4 H 0.396155 0.741065 0.206057
H90_4 H 0.969719 0.780661 0.0452575
H92_4 H 0.933528 0.823852 0.0068424
H94_4 H 0.346189 0.550492 0.104258
H95_4 H 0.373071 0.571449 0.0488973
H96_4 H 0.279268 0.5715 0.0597428
H100_4 H 0.00227833 0.501557 0.0701292
H103_4 H 0.758065 0.757525 0.0349157
H104_4 H 0.852111 0.743219 0.0367044
N3_4 N 0.33040(14) 0.38518(7) 0.87308(8)
C2_4 C 0.12295(12) 0.18611(9) 0.74327(10)
H1_4 H 0.0718 0.1844 0.7345
C3_3 C 0.43064(12) 0.86628(8) 0.96549(8)
H2_3 H 0.3802 0.8682 0.9545
C5_4 C 0.55605(16) 0.57266(9) 0.75777(10)
H3_4 H 0.5700 0.6003 0.7719
C6_3 C 0.45625(12) 0.83010(7) 0.99183(8)
H4_3 H 0.4226 0.8076 0.9984
C7_4 C 0.35148(14) 0.31486(9) 0.83357(11)
H5_4 H 0.4015 0.3223 0.8326
C12_3 C 0.38038(15) 0.95533(9) 0.93281(9)
H7_3 H 0.3479 0.9376 0.9491
C13_4 C 0.22300(12) 0.22482(7) 0.78627(8)
C19_4 C 0.45561(13) 0.47075(8) 0.79250(9)
C21_3 C 0.49771(16) 0.96699(9) 0.90440(11)
H10_4 H 0.5466 0.9577 0.9019
C22_3 C 0.47818(12) 0.90026(7) 0.95473(8)
C24_4 C 0.36730(13) 0.41098(7) 0.79486(9)
C25_4 C 0.30524(14) 0.34364(8) 0.85514(9)
C28_4 C 0.40860(12) 0.43971(7) 0.76876(9)
C33_4 C 0.20744(15) 0.29111(9) 0.83814(10)
C37_4 C 0.37377(14) 0.41193(8) 0.84523(9)
C38_3 C 0.35576(19) 0.99496(12) 0.91204(11)
C43_4 C 0.51767(16) 0.54346(9) 0.78442(10)
H18_4 H 0.5060 0.5513 0.8159
C45_4 C 0.29888(15) 0.40383(8) 0.91268(9)
C52_4 C 0.23287(16) 0.33076(9) 0.85859(10)
H21_4 H 0.2011 0.3491 0.8749
C56_4 C 0.27252(19) 0.39926(9) 0.99644(11)
C57_4 C 0.23765(13) 0.15648(8) 0.74244(10)
H24_4 H 0.2692 0.1338 0.7333
C59_4 C 0.25243(13) 0.26352(8) 0.81417(9)
C60_4 C 0.42142(17) 0.44249(10) 0.86950(10)
H26_4 H 0.4259 0.4438 0.9038
C65_4 C 0.24036(17) 0.46457(8) 0.95022(10)
H29_4 H 0.2187 0.4930 0.9475
C66_4 C 0.55162(13) 0.89448(8) 0.97136(10)
H30_4 H 0.5865 0.9164 0.9651
C69_4 C 0.57371(12) 0.85648(8) 0.99719(10)
C75_4 C 0.29983(19) 0.38094(8) 0.95669(11)
H35_4 H 0.3199 0.3520 0.9590
C76_4 C 0.32549(14) 0.27573(8) 0.81363(11)
C79_3 C 0.49625(13) 0.50258(8) 0.76492(9)
C80_4 C 0.14905(13) 0.22084(8) 0.77283(10)
H37_4 H 0.1159 0.2418 0.7838
C81_4 C 0.55335(15) 0.52491(8) 0.69364(10)
H38_4 H 0.5648 0.5183 0.6618
C95_3 C 0.45251(14) 0.94105(8) 0.93010(9)
C96_4 C 0.24356(15) 0.44206(8) 0.99459(9)
C99_4 C 0.26822(17) 0.44597(9) 0.91062(10)
H47_4 H 0.2665 0.4622 0.8813
C101_4 C 0.46252(16) 0.47116(10) 0.84315(10)
C103_3 C 0.51509(15) 0.49370(8) 0.71833(10)
H49_3 H 0.5018 0.4663 0.7034
C125_4 C 0.26676(13) 0.19076(8) 0.77208(11)
H56_4 H 0.3174 0.1907 0.7827
H73_3 H 0.500456 0.494138 0.86236
H93_4 H 0.329857 0.387729 0.775649
H97_4 H 0.150939 0.281459 0.84098
H98_4 H 0.404043 0.437851 0.729486
H102_4 H 0.816133 0.786174 0.99788
H108_4 H 0.362819 0.253785 0.797043
C106_4 C 0.74194(15) 0.00313(8) 0.25716(10)
H51_4 H 0.7708 0.0290 0.2558
O10_4 O 0.72392(17) 0.42245(7) 0.17645(11)
C9_4 C 0.83843(13) 0.46745(9) 0.10641(9)
C10_4 C 0.81319(14) 0.50921(8) 0.17824(9)
C15_4 C 0.72812(13) 0.93031(8) 0.28859(9)
C18_4 C 0.65798(13) 0.93058(8) 0.26453(10)
H9_4 H 0.6264 0.9061 0.2676
C30_4 C 0.78744(17) 0.71179(11) 0.41050(11)
H13_4 H 0.7878 0.6970 0.3804
C31_4 C 0.79374(12) 0.47746(8) 0.14313(9)
C32_4 C 0.92385(13) 0.52182(9) 0.14021(9)
N11_4 N 0.85072(16) 0.77435(9) 0.37730(10)
C40_4 C 0.99715(14) 0.69481(9) 0.35474(10)
O12_4 O 0.66980(13) 0.45993(11) 0.11732(10)
C44_4 C 0.95435(16) 0.48032(14) 0.06530(11)
C51_4 C 0.86318(16) 0.84340(11) 0.33532(12)
H20_4 H 0.9137 0.8373 0.3344
C54_4 C 0.90056(15) 0.74933(10) 0.35249(11)
C55_4 C 0.71564(15) 0.86122(9) 0.33711(11)
H22_4 H 0.6651 0.8672 0.3380
C62_4 C 0.63417(13) 0.96625(8) 0.23627(9)
H27_4 H 0.5866 0.9653 0.2196
C63_4 C 0.75910(14) 0.89098(8) 0.31429(9)
C67_4 C 0.87946(14) 0.53224(9) 0.17668(9)
C68_4 C 0.89649(17) 0.74854(11) 0.30271(11)
H31_4 H 0.8624 0.7669 0.2844
C71_4 C 0.90320(17) 0.56680(11) 0.21469(11)
C77_4 C 0.90399(13) 0.49029(9) 0.10450(9)
C82_4 C 0.64959(15) 0.63640(10) 0.56794(9)
C83_4 C 0.81586(15) 0.43182(11) 0.06947(10)
C84_4 C 0.7255(2) 0.69016(11) 0.53416(10)
C87_4 C 0.76971(14) 0.96846(9) 0.28528(9)
H41_4 H 0.8169 0.9706 0.3023
C88_4 C 0.95275(16) 0.72269(11) 0.37905(11)
H42_4 H 0.9577 0.7237 0.4133
C92_4 C 0.99729(14) 0.54466(9) 0.13960(10)
C93_4 C 0.81988(16) 0.81394(10) 0.35749(11)
C105_4 C 0.76361(17) 0.51872(11) 0.21675(11)
C108_4 C 0.83396(16) 0.88174(10) 0.31431(11)
H52_4 H 0.8648 0.9019 0.2998
C113_4 C 0.7884(2) 0.75449(11) 0.49889(12)
C115_4 C 0.75686(16) 0.71337(11) 0.49321(9)
C117_4 C 0.81830(15) 0.75391(9) 0.41626(10)
C118_4 C 0.67622(16) 0.65773(10) 0.52856(9)
C120_4 C 0.75622(16) 0.69124(11) 0.44836(10)
C123_4 C 0.99232(14) 0.69276(9) 0.30525(10)
C126_4 C 0.8188(2) 0.77511(11) 0.46051(13)
H57_4 H 0.8398 0.8037 0.4647
C130_4 C 0.74522(16) 0.82275(10) 0.35858(12)
H60_4 H 0.7150 0.8027 0.3738
C131_4 C 0.94245(19) 0.72078(11) 0.27917(12)
H61_4 H 0.9398 0.7209 0.2449
C132_4 C 0.72360(16) 0.45196(9) 0.14568(11)
C134_4 C 0.7646(3) 0.69407(15) 0.58084(15)
C135_4 C 0.7364(3) 0.67265(18) 0.61848(16)
H62_4 H 0.610897 0.609404 0.561063
H63_4 H 0.810484 0.400443 0.0878868
H64_4 H 0.857234 0.428877 0.0440996
H65_4 H 0.7637 0.440626 0.0499711
H69_4 H 0.789679 0.771134 0.533662
H70_4 H 0.710856 0.529964 0.200088
H71_4 H 0.787809 0.544286 0.240708
H72_4 H 0.756136 0.488821 0.237439
H77_4 H 0.656101 0.647552 0.492157
H84_4 H 0.765858 0.674652 0.654278
H85_4 H 0.731692 0.65864 0.443521
H86_4 H 0.814778 0.713265 0.586394
H99_4 H 0.971398 0.445918 0.067851
H101_4 H 0.925317 0.486369 0.029942
H105_4 H 0.862419 0.592926 0.213817
H106_4 H 0.955563 0.580709 0.207171
H107_4 H 0.908601 0.551488 0.250273
C103_4 C 0.01509(15) 0.99370(8) 0.71833(10)
H49_4 H 0.0018 0.9663 0.7034
H73_4 H 0.00045627 0.994138 0.86236
C3_4 C 0.93064(12) 0.36628(8) 0.96549(8)
H2_4 H 0.8802 0.3682 0.9545
N8_4 N 0.8776(2) 0.56186(11) 0.86710(12)
C6_4 C 0.95625(12) 0.33010(7) 0.99183(8)
H4_4 H 0.9226 0.3076 0.9984
C8_4 C 0.93729(15) 0.57359(9) 0.74405(9)
H6_4 H 0.9393 0.5565 0.7156
C12_4 C 0.88038(15) 0.45533(9) 0.93281(9)
H7_4 H 0.8479 0.4376 0.9491
C17_4 C 0.98022(17) 0.64913(9) 0.61599(9)
H8_4 H 0.9603 0.6406 0.5846
C21_4 C 0.99771(16) 0.46699(9) 0.90440(11)
C22_4 C 0.97818(12) 0.40026(7) 0.95473(8)
C26_4 C 0.96092(13) 0.61761(8) 0.74512(9)
C38_4 C 0.85576(19) 0.49496(12) 0.91204(11)
H15_4 H 0.8069 0.5043 0.9143
C42_4 C 0.9040(2) 0.52118(11) 0.88753(11)
C47_4 C 0.98562(13) 0.63918(8) 0.70186(9)
C50_4 C 0.7746(3) 0.61216(17) 0.86720(14)
H19_4 H 0.7654 0.6080 0.8333
C64_4 C 0.6613(2) 0.71242(12) 0.94553(12)
H28_4 H 0.6690 0.7199 0.9132
C72_4 C 0.8311(2) 0.58932(12) 0.89245(13)
C73_4 C 0.7314(3) 0.64086(17) 0.89056(13)
H33_4 H 0.6951 0.6579 0.8725
C79_4 C 0.99625(13) 0.00258(8) 0.76492(9)
C85_4 C 0.95946(17) 0.64251(10) 0.78801(10)
H39_4 H 0.9761 0.6722 0.7893
C91_4 C 0.95896(17) 0.62606(9) 0.65539(9)
H44_4 H 0.9267 0.6016 0.6508
C95_4 C 0.95251(14) 0.44105(8) 0.93010(9)
C98_4 C 0.91069(19) 0.55471(10) 0.78498(11)
H46_4 H 0.8944 0.5250 0.7845
C104_4 C 0.61882(17) 0.73896(10) 0.97137(11)
H50_4 H 0.5982 0.7647 0.9561
C109_4 C 0.9736(2) 0.50634(10) 0.88207(12)
C110_4 C 0.8427(2) 0.59421(13) 0.94198(13)
H54_4 H 0.8811 0.5786 0.9598
C121_4 C 0.69309(19) 0.67492(11) 0.96644(11)
C122_4 C 0.9086(2) 0.58044(11) 0.82642(11)
C127_4 C 0.9336(2) 0.62324(12) 0.82802(11)
H58_4 H 0.9331 0.6398 0.8570
C128_4 C 0.7410(2) 0.64474(12) 0.94018(12)
C129_4 C 0.7976(2) 0.62228(13) 0.96573(13)
H59_4 H 0.8058 0.6260 0.9997
loop_
_geom_bond_atom_site_label_1
_geom_bond_atom_site_label_2
_geom_bond_site_symmetry_1
_geom_bond_site_symmetry_2
H49 C103 1_555 1_555
O2 Co2 1_555 1_555
O3 C97 1_555 1_555
O4 C116 1_555 1_555
O7 C97 1_555 1_555
O8 Co2 1_555 1_555
N2 Co2 1_555 1_555
C1 C14 1_555 1_555
N4 C5 1_555 1_555
C5 H3 1_555 1_555
C14 C20 1_555 1_555
C20 C53 1_555 1_555
C29 C14 1_555 1_555
C35 H14 1_555 1_555
C43 C5 1_555 1_555
H18 C43 1_555 1_555
C48 C29 1_555 1_555
H30 C66 1_555 1_555
C69 N2 1_555 1_555
H32 C69 1_555 1_555
C81 N4 1_555 1_555
H38 C81 1_555 1_555
C86 N6 1_555 1_555
H40 C86 1_555 1_555
C90 C20 1_555 1_555
C97 C29 1_555 1_555
C116 O2 1_555 1_555
C119 C48 1_555 1_555
C124 C48 1_555 1_555
C133 C119 1_555 1_555
Co5 N6 1_555 1_555
Co8 N4 1_555 1_555
Co9 O3 1_555 1_555
N15 Co2 1_555 1_555
N17 Co2 1_555 1_555
C35 C86 1_555 1_555
C66 C69 1_555 1_555
C90 C116 1_555 1_555
C90 C119 1_555 1_555
C124 H78 1_555 1_555
C124 H79 1_555 1_555
C124 H80 1_555 1_555
C133 H81 1_555 1_555
C133 H82 1_555 1_555
C133 H83 1_555 1_555
C1 H90 1_555 1_555
C1 H91 1_555 1_555
C1 H92 1_555 1_555
C53 H102 1_555 1_555
C53 H103 1_555 1_555
C53 H104 1_555 1_555
Co3 O10 1_555 1_555
N1 C2 1_555 1_555
O10 C132 1_555 1_555
N3 C25 1_555 1_555
C2 H1 1_555 1_555
C7 H5 1_555 1_555
C9 C31 1_555 1_555
C13 C59 1_555 1_555
C19 C28 1_555 1_555
C24 C28 1_555 1_555
C25 C7 1_555 1_555
C31 C132 1_555 1_555
C33 C52 1_555 1_555
C37 N3 1_555 1_555
O12 C132 1_555 1_555
C41 C74 1_555 1_555
C44 C77 1_555 1_555
C45 N3 1_555 1_555
C52 C25 1_555 1_555
H21 C52 1_555 1_555
C56 H23 1_555 1_555
C57 N1 1_555 1_555
H24 C57 1_555 1_555
C59 C33 1_555 1_555
C60 C37 1_555 1_555
H26 C60 1_555 1_555
C65 H29 1_555 1_555
C74 H34 1_555 1_555
C75 C45 1_555 1_555
H35 C75 1_555 1_555
C76 C7 1_555 1_555
C77 C9 1_555 1_555
C80 C2 1_555 1_555
H37 C80 1_555 1_555
C83 C9 1_555 1_555
C94 C41 1_555 1_555
C96 C41 1_555 1_555
C99 C45 1_555 1_555
H47 C99 1_555 1_555
C101 C19 1_555 1_555
H55 C111 1_555 1_555
C125 C13 1_555 1_555
H56 C125 1_555 1_555
Co10 N1 1_555 1_555
O13 Co3 1_555 1_555
N13 Co3 1_555 1_555
N14 Co3 1_555 1_555
N18 Co3 1_555 1_555
C13 C80 1_555 1_555
C24 C37 1_555 1_555
C56 C75 1_555 1_555
C56 C96 1_555 1_555
C57 C125 1_555 1_555
C59 C76 1_555 1_555
C60 C101 1_555 1_555
C65 C96 1_555 1_555
C65 C99 1_555 1_555
C74 C111 1_555 1_555
C83 H63 1_555 1_555
C83 H64 1_555 1_555
C83 H65 1_555 1_555
C24 H93 1_555 1_555
C33 H97 1_555 1_555
C28 H98 1_555 1_555
C44 H99 1_555 1_555
C44 H101 1_555 1_555
C76 H108 1_555 1_555
N12 C82 1_555 1_555
C82 C118 1_555 1_555
C118 C84 1_555 1_555
C134 C84 1_555 1_555
C135 N12 1_555 1_555
Co8 N12 1_555 1_555
C134 C135 1_555 1_555
C82 H62 1_555 1_555
C135 H84 1_555 1_555
C134 H86 1_555 1_555
Co1 O5 1_555 1_555
O1 C107 1_555 1_555
O5 C92 1_555 1_555
O6 Co1 1_555 1_555
O9 Co1 1_555 1_555
O11 C92 1_555 1_555
N5 Co1 1_555 1_555
C3 H2 1_555 1_555
N7 C62 1_555 1_555
C4 C100 1_555 1_555
N8 C42 1_555 1_555
H4 C6 1_555 1_555
N9 C39 1_555 1_555
C8 H6 1_555 1_555
N10 Co1 1_555 1_555
C11 C16 1_555 1_555
C12 H7 1_555 1_555
C15 C18 1_555 1_555
C16 C100 1_555 1_555
C17 H8 1_555 1_555
C18 H9 1_555 1_555
C22 C3 1_555 1_555
C23 H11 1_555 1_555
C26 C8 1_555 1_555
C27 H12 1_555 1_555
C30 H13 1_555 1_555
C32 C67 1_555 1_555
C34 C23 1_555 1_555
N11 C54 1_555 1_555
C36 C46 1_555 1_555
C38 C12 1_555 1_555
H15 C38 1_555 1_555
C39 H16 1_555 1_555
C40 H17 1_555 1_555
C42 C38 1_555 1_555
C46 C11 1_555 1_555
C47 C26 1_555 1_555
C49 O6 1_555 1_555
C50 H19 1_555 1_555
C51 H20 1_555 1_555
C54 C68 1_555 1_555
C55 H22 1_555 1_555
C58 N5 1_555 1_555
H25 C58 1_555 1_555
C61 C46 1_555 1_555
C62 C18 1_555 1_555
H27 C62 1_555 1_555
C63 C15 1_555 1_555
C64 H28 1_555 1_555
C67 C10 1_555 1_555
C68 H31 1_555 1_555
C70 C61 1_555 1_555
C71 C67 1_555 1_555
C72 N8 1_555 1_555
C73 C50 1_555 1_555
H33 C73 1_555 1_555
C78 N10 1_555 1_555
H36 C78 1_555 1_555
C85 C26 1_555 1_555
H39 C85 1_555 1_555
C87 C15 1_555 1_555
H41 C87 1_555 1_555
C88 C40 1_555 1_555
H42 C88 1_555 1_555
C89 N10 1_555 1_555
H43 C89 1_555 1_555
C91 C17 1_555 1_555
H44 C91 1_555 1_555
C92 C32 1_555 1_555
C93 N11 1_555 1_555
C95 C12 1_555 1_555
C98 C8 1_555 1_555
H46 C98 1_555 1_555
C100 C70 1_555 1_555
C102 C39 1_555 1_555
H48 C102 1_555 1_555
C104 N9 1_555 1_555
H50 C104 1_555 1_555
C105 C10 1_555 1_555
C106 N7 1_555 1_555
H51 C106 1_555 1_555
C108 C51 1_555 1_555
H52 C108 1_555 1_555
C109 C21 1_555 1_555
C110 C72 1_555 1_555
H54 C110 1_555 1_555
C112 C61 1_555 1_555
C113 C115 1_555 1_555
C114 C16 1_555 1_555
C115 C120 1_555 1_555
C117 C30 1_555 1_555
C120 C30 1_555 1_555
C121 C64 1_555 1_555
C122 N8 1_555 1_555
C123 C34 1_555 1_555
C126 C113 1_555 1_555
H57 C126 1_555 1_555
C127 C85 1_555 1_555
H58 C127 1_555 1_555
C128 C73 1_555 1_555
C129 C110 1_555 1_555
H59 C129 1_555 1_555
C130 C55 1_555 1_555
H60 C130 1_555 1_555
C131 C68 1_555 1_555
H61 C131 1_555 1_555
Co4 N7 1_555 1_555
Co6 N9 1_555 1_555
N16 Co1 1_555 1_555
O9 C49 1_555 1_555
C3 C6 1_555 1_555
C11 C49 1_555 1_555
C21 C95 1_555 1_555
C22 C95 1_555 1_555
C23 C89 1_555 1_555
C27 C34 1_555 1_555
C27 C78 1_555 1_555
N11 C117 1_555 1_555
C40 C123 1_555 1_555
C42 C109 1_555 1_555
C47 C91 1_555 1_555
C50 C72 1_555 1_555
C51 C93 1_555 1_555
C54 C88 1_555 1_555
C55 C63 1_555 1_555
C63 C108 1_555 1_555
C64 C104 1_555 1_555
C70 C107 1_555 1_555
C87 C106 1_555 1_555
C93 C130 1_555 1_555
C98 C122 1_555 1_555
C102 C121 1_555 1_555
C117 C126 1_555 1_555
C121 C128 1_555 1_555
C122 C127 1_555 1_555
C123 C131 1_555 1_555
C128 C129 1_555 1_555
C112 H66 1_555 1_555
C112 H67 1_555 1_555
C112 H68 1_555 1_555
C105 H70 1_555 1_555
C105 H71 1_555 1_555
C114 H74 1_555 1_555
C114 H75 1_555 1_555
C114 H76 1_555 1_555
C120 H85 1_555 1_555
C4 H87 1_555 1_555
C4 H88 1_555 1_555
C4 H89 1_555 1_555
C36 H94 1_555 1_555
C36 H95 1_555 1_555
C36 H96 1_555 1_555
C71 H105 1_555 1_555
C71 H106 1_555 1_555
C71 H107 1_555 1_555
O2_2 Co5 1_555 1_555
O3_2 C97_2 1_555 1_555
O4_2 C116_2 1_555 1_555
O7_2 C97_2 1_555 1_555
O8_2 Co5 1_555 1_555
N2_2 Co5 1_555 1_555
C1_2 C14_2 1_555 1_555
C14_2 C20_2 1_555 1_555
C20_2 C53_2 1_555 1_555
C29_2 C14_2 1_555 1_555
C48_2 C29_2 1_555 1_555
C90_2 C20_2 1_555 1_555
C97_2 C29_2 1_555 1_555
C116_2 O2_2 1_555 1_555
C119_2 C48_2 1_555 1_555
C124_2 C48_2 1_555 1_555
C133_2 C119_2 1_555 1_555
Co10 O3_2 1_555 1_555
N17_2 Co5 1_555 1_555
C90_2 C116_2 1_555 1_555
C90_2 C119_2 1_555 1_555
C124_2 H78_2 1_555 1_555
C124_2 H79_2 1_555 1_555
C124_2 H80_2 1_555 1_555
C133_2 H81_2 1_555 1_555
C133_2 H82_2 1_555 1_555
C133_2 H83_2 1_555 1_555
C1_2 H90_2 1_555 1_555
C1_2 H91_2 1_555 1_555
C1_2 H92_2 1_555 1_555
C53_2 H103_2 1_555 1_555
C53_2 H104_2 1_555 1_555
N14 C5_2 1_555 1_555
C5_2 H3_2 1_555 1_555
C35_2 H14_2 1_555 1_555
C43_2 C5_2 1_555 1_555
H18_2 C43_2 1_555 1_555
H30_2 C66_2 1_555 1_555
C81_2 N14 1_555 1_555
H38_2 C81_2 1_555 1_555
C86_2 N15 1_555 1_555
H40_2 C86_2 1_555 1_555
C35_2 C86_2 1_555 1_555
C66_2 C69_2 1_555 1_555
Co1_2 O5_2 1_555 1_555
O1_2 C107_2 1_555 1_555
O5_2 C92_2 1_555 1_555
O6_2 Co1_2 1_555 1_555
O9_2 Co1_2 1_555 1_555
O11_2 C92_2 1_555 1_555
N5_2 Co1_2 1_555 1_555
N7_2 C62_2 1_555 1_555
C4_2 C100_2 1_555 1_555
N9_2 C39_2 1_555 1_555
N10_2 Co1_2 1_555 1_555
C11_2 C16_2 1_555 1_555
C15_2 C18_2 1_555 1_555
C16_2 C100_2 1_555 1_555
C18_2 H9_2 1_555 1_555
C23_2 H11_2 1_555 1_555
C27_2 H12_2 1_555 1_555
C30_2 H13_2 1_555 1_555
C32_2 C67_2 1_555 1_555
C34_2 C23_2 1_555 1_555
N11_2 C54_2 1_555 1_555
C36_2 C46_2 1_555 1_555
C39_2 H16_2 1_555 1_555
C40_2 H17_2 1_555 1_555
C46_2 C11_2 1_555 1_555
C49_2 O6_2 1_555 1_555
C51_2 H20_2 1_555 1_555
C54_2 C68_2 1_555 1_555
C55_2 H22_2 1_555 1_555
C58_2 N5_2 1_555 1_555
H25_2 C58_2 1_555 1_555
N18 C82_2 1_555 1_555
C61_2 C46_2 1_555 1_555
C62_2 C18_2 1_555 1_555
H27_2 C62_2 1_555 1_555
C63_2 C15_2 1_555 1_555
C67_2 C10_2 1_555 1_555
C68_2 H31_2 1_555 1_555
C70_2 C61_2 1_555 1_555
C71_2 C67_2 1_555 1_555
C78_2 N10_2 1_555 1_555
H36_2 C78_2 1_555 1_555
C82_2 C118_2 1_555 1_555
C84_2 C115_2 1_555 1_555
C87_2 C15_2 1_555 1_555
H41_2 C87_2 1_555 1_555
C88_2 C40_2 1_555 1_555
H42_2 C88_2 1_555 1_555
C89_2 N10_2 1_555 1_555
H43_2 C89_2 1_555 1_555
C92_2 C32_2 1_555 1_555
C93_2 N11_2 1_555 1_555
C100_2 C70_2 1_555 1_555
C102_2 C39_2 1_555 1_555
H48_2 C102_2 1_555 1_555
C105_2 C10_2 1_555 1_555
C106_2 N7_2 1_555 1_555
H51_2 C106_2 1_555 1_555
C108_2 C51_2 1_555 1_555
H52_2 C108_2 1_555 1_555
C112_2 C61_2 1_555 1_555
C113_2 C115_2 1_555 1_555
C114_2 C16_2 1_555 1_555
C115_2 C120_2 1_555 1_555
C117_2 C30_2 1_555 1_555
C118_2 C84_2 1_555 1_555
C120_2 C30_2 1_555 1_555
C123_2 C34_2 1_555 1_555
C126_2 C113_2 1_555 1_555
H57_2 C126_2 1_555 1_555
C130_2 C55_2 1_555 1_555
H60_2 C130_2 1_555 1_555
C131_2 C68_2 1_555 1_555
H61_2 C131_2 1_555 1_555
C134_2 C84_2 1_555 1_555
C135_2 N18 1_555 1_555
Co4_2 N7_2 1_555 1_555
Co6_2 N9_2 1_555 1_555
N16_2 Co1_2 1_555 1_555
O9_2 C49_2 1_555 1_555
C11_2 C49_2 1_555 1_555
C23_2 C89_2 1_555 1_555
C27_2 C34_2 1_555 1_555
C27_2 C78_2 1_555 1_555
N11_2 C117_2 1_555 1_555
C40_2 C123_2 1_555 1_555
C51_2 C93_2 1_555 1_555
C54_2 C88_2 1_555 1_555
C55_2 C63_2 1_555 1_555
C63_2 C108_2 1_555 1_555
C70_2 C107_2 1_555 1_555
C87_2 C106_2 1_555 1_555
C93_2 C130_2 1_555 1_555
C117_2 C126_2 1_555 1_555
C123_2 C131_2 1_555 1_555
C134_2 C135_2 1_555 1_555
C82_2 H62_2 1_555 1_555
C112_2 H66_2 1_555 1_555
C112_2 H67_2 1_555 1_555
C112_2 H68_2 1_555 1_555
C113_2 H69_2 1_555 1_555
C105_2 H70_2 1_555 1_555
C105_2 H71_2 1_555 1_555
C114_2 H74_2 1_555 1_555
C114_2 H75_2 1_555 1_555
C114_2 H76_2 1_555 1_555
C118_2 H77_2 1_555 1_555
C135_2 H84_2 1_555 1_555
C120_2 H85_2 1_555 1_555
C134_2 H86_2 1_555 1_555
C4_2 H87_2 1_555 1_555
C4_2 H88_2 1_555 1_555
C4_2 H89_2 1_555 1_555
C36_2 H94_2 1_555 1_555
C36_2 H95_2 1_555 1_555
C36_2 H96_2 1_555 1_555
C71_2 H105_2 1_555 1_555
C71_2 H106_2 1_555 1_555
C71_2 H107_2 1_555 1_555
Co8 O10_2 1_555 1_555
O10_2 C132_2 1_555 1_555
C9_2 C31_2 1_555 1_555
C31_2 C132_2 1_555 1_555
O12_2 C132_2 1_555 1_555
C41_2 C74_2 1_555 1_555
C44_2 C77_2 1_555 1_555
C74_2 H34_2 1_555 1_555
C77_2 C9_2 1_555 1_555
C83_2 C9_2 1_555 1_555
C94_2 C41_2 1_555 1_555
H55_2 C111_2 1_555 1_555
O13_2 Co8 1_555 1_555
N13_2 Co8 1_555 1_555
C74_2 C111_2 1_555 1_555
C83_2 H63_2 1_555 1_555
C83_2 H64_2 1_555 1_555
C83_2 H65_2 1_555 1_555
C44_2 H99_2 1_555 1_555
C44_2 H101_2 1_555 1_555
N1_2 C2_2 1_555 1_555
N3_2 C25_2 1_555 1_555
C2_2 H1_2 1_555 1_555
C7_2 H5_2 1_555 1_555
C13_2 C59_2 1_555 1_555
C19_2 C28_2 1_555 1_555
C24_2 C28_2 1_555 1_555
C25_2 C7_2 1_555 1_555
C33_2 C52_2 1_555 1_555
C37_2 N3_2 1_555 1_555
C45_2 N3_2 1_555 1_555
C52_2 C25_2 1_555 1_555
H21_2 C52_2 1_555 1_555
C57_2 N1_2 1_555 1_555
H24_2 C57_2 1_555 1_555
C59_2 C33_2 1_555 1_555
C60_2 C37_2 1_555 1_555
H26_2 C60_2 1_555 1_555
C65_2 H29_2 1_555 1_555
C75_2 C45_2 1_555 1_555
H35_2 C75_2 1_555 1_555
C76_2 C7_2 1_555 1_555
C80_2 C2_2 1_555 1_555
H37_2 C80_2 1_555 1_555
C99_2 C45_2 1_555 1_555
H47_2 C99_2 1_555 1_555
C101_2 C19_2 1_555 1_555
C125_2 C13_2 1_555 1_555
H56_2 C125_2 1_555 1_555
Co9 N1_2 1_555 1_555
C13_2 C80_2 1_555 1_555
C24_2 C37_2 1_555 1_555
C56_2 C75_2 1_555 1_555
C56_2 C96_2 1_555 1_555
C57_2 C125_2 1_555 1_555
C59_2 C76_2 1_555 1_555
C60_2 C101_2 1_555 1_555
C65_2 C96_2 1_555 1_555
C65_2 C99_2 1_555 1_555
C24_2 H93_2 1_555 1_555
C33_2 H97_2 1_555 1_555
C28_2 H98_2 1_555 1_555
C76_2 H108_2 1_555 1_555
Co4 O5_3 1_555 1_555
Co6 O1_3 1_555 1_555
O1_3 C107_3 1_555 1_555
O2_3 Co6 1_555 1_555
O4_3 C116_3 1_555 1_555
O6_3 Co4 1_555 1_555
O8_3 Co6 1_555 1_555
O9_3 Co4 1_555 1_555
N13_2 C2_3 1_555 1_555
N2_3 Co6 1_555 1_555
C1_3 C14_3 1_555 1_555
N3_3 C25_3 1_555 1_555
N4_2 C5_3 1_555 1_555
N5_3 Co4 1_555 1_555
C2_3 H1_3 1_555 1_555
C3_2 H2_2 1_555 1_555
C4_3 C100_3 1_555 1_555
C5_3 H3_3 1_555 1_555
C6_2 N2_3 1_555 1_555
H4_2 C6_2 1_555 1_555
C7_3 H5_3 1_555 1_555
N10_3 Co4 1_555 1_555
C11_3 C16_3 1_555 1_555
C12_2 H7_2 1_555 1_555
C13_3 C59_3 1_555 1_555
C14_3 C20_3 1_555 1_555
C16_3 C100_3 1_555 1_555
C19_3 C28_3 1_555 1_555
C20_3 C53_3 1_555 1_555
C21_2 H10_3 1_555 1_555
C22_2 C3_2 1_555 1_555
C23_3 H11_3 1_555 1_555
C24_3 C28_3 1_555 1_555
C25_3 C7_3 1_555 1_555
C27_3 H12_3 1_555 1_555
C29_3 C14_3 1_555 1_555
C33_3 C52_3 1_555 1_555
C34_3 C23_3 1_555 1_555
C36_3 C46_3 1_555 1_555
C37_3 N3_3 1_555 1_555
C38_2 C12_2 1_555 1_555
C41_3 C74_3 1_555 1_555
C43_3 C5_3 1_555 1_555
H18_3 C43_3 1_555 1_555
C45_3 N3_3 1_555 1_555
C46_3 C11_3 1_555 1_555
C48_3 C29_3 1_555 1_555
C49_3 O6_3 1_555 1_555
C52_3 C25_3 1_555 1_555
H21_3 C52_3 1_555 1_555
C56_3 H23_3 1_555 1_555
C57_3 N13_2 1_555 1_555
H24_3 C57_3 1_555 1_555
C58_3 N5_3 1_555 1_555
H25_3 C58_3 1_555 1_555
C59_3 C33_3 1_555 1_555
C60_3 C37_3 1_555 1_555
H26_3 C60_3 1_555 1_555
C61_3 C46_3 1_555 1_555
C65_3 H29_3 1_555 1_555
C66_3 C22_2 1_555 1_555
H30_3 C66_3 1_555 1_555
C69_3 N2_3 1_555 1_555
H32_3 C69_3 1_555 1_555
C70_3 C61_3 1_555 1_555
C74_3 H34_3 1_555 1_555
C75_3 C45_3 1_555 1_555
H35_3 C75_3 1_555 1_555
C76_3 C7_3 1_555 1_555
C78_3 N10_3 1_555 1_555
H36_3 C78_3 1_555 1_555
C79_2 C19_3 1_555 1_555
C80_3 C2_3 1_555 1_555
H37_3 C80_3 1_555 1_555
C81_3 N4_2 1_555 1_555
H38_3 C81_3 1_555 1_555
C89_3 N10_3 1_555 1_555
H43_3 C89_3 1_555 1_555
C90_3 C20_3 1_555 1_555
C94_3 C41_3 1_555 1_555
H45_3 C94_3 1_555 1_555
C95_2 C12_2 1_555 1_555
C96_3 C41_3 1_555 1_555
C97_3 C29_3 1_555 1_555
C99_3 C45_3 1_555 1_555
H47_3 C99_3 1_555 1_555
C100_3 C70_3 1_555 1_555
C101_3 C19_3 1_555 1_555
C103_2 C79_2 1_555 1_555
H49_2 C103_2 1_555 1_555
C107_3 O8_3 1_555 1_555
C111_3 N5_3 1_555 1_555
H55_3 C111_3 1_555 1_555
C112_3 C61_3 1_555 1_555
C114_3 C16_3 1_555 1_555
C116_3 O2_3 1_555 1_555
C119_3 C48_3 1_555 1_555
C124_3 C48_3 1_555 1_555
C125_3 C13_3 1_555 1_555
H56_3 C125_3 1_555 1_555
C133_3 C119_3 1_555 1_555
Co10 N4_2 1_555 1_555
N15_2 Co6 1_555 1_555
O9_3 C49_3 1_555 1_555
C3_2 C6_2 1_555 1_555
C11_3 C49_3 1_555 1_555
C13_3 C80_3 1_555 1_555
C21_2 C95_2 1_555 1_555
C22_2 C95_2 1_555 1_555
C23_3 C89_3 1_555 1_555
C24_3 C37_3 1_555 1_555
C27_3 C34_3 1_555 1_555
C27_3 C78_3 1_555 1_555
C43_3 C79_2 1_555 1_555
C56_3 C75_3 1_555 1_555
C56_3 C96_3 1_555 1_555
C57_3 C125_3 1_555 1_555
C58_3 C94_3 1_555 1_555
C59_3 C76_3 1_555 1_555
C60_3 C101_3 1_555 1_555
C65_3 C96_3 1_555 1_555
C65_3 C99_3 1_555 1_555
C66_3 C69_3 1_555 1_555
C70_3 C107_3 1_555 1_555
C74_3 C111_3 1_555 1_555
C81_3 C103_2 1_555 1_555
C90_3 C116_3 1_555 1_555
C90_3 C119_3 1_555 1_555
C112_3 H66_3 1_555 1_555
C112_3 H67_3 1_555 1_555
C112_3 H68_3 1_555 1_555
C101_3 H73_2 1_555 1_555
C114_3 H74_3 1_555 1_555
C114_3 H75_3 1_555 1_555
C114_3 H76_3 1_555 1_555
C124_3 H78_3 1_555 1_555
C124_3 H79_3 1_555 1_555
C124_3 H80_3 1_555 1_555
C133_3 H81_3 1_555 1_555
C133_3 H82_3 1_555 1_555
C133_3 H83_3 1_555 1_555
C4_3 H87_3 1_555 1_555
C4_3 H88_3 1_555 1_555
C4_3 H89_3 1_555 1_555
C1_3 H90_3 1_555 1_555
C1_3 H92_3 1_555 1_555
C24_3 H93_3 1_555 1_555
C36_3 H94_3 1_555 1_555
C36_3 H95_3 1_555 1_555
C36_3 H96_3 1_555 1_555
C33_3 H97_3 1_555 1_555
C28_3 H98_3 1_555 1_555
C53_3 H102_3 1_555 1_555
C53_3 H103_3 1_555 1_555
C53_3 H104_3 1_555 1_555
C76_3 H108_3 1_555 1_555
N6_2 C17_2 1_555 1_555
N8_2 C42_2 1_555 1_555
N17 C39_3 1_555 1_555
C8_2 H6_2 1_555 1_555
C17_2 H8_2 1_555 1_555
C26_2 C8_2 1_555 1_555
C35_3 H14_3 1_555 1_555
C39_3 H16_3 1_555 1_555
C47_2 C26_2 1_555 1_555
C50_2 H19_2 1_555 1_555
C64_2 H28_2 1_555 1_555
C72_2 N8_2 1_555 1_555
C73_2 C50_2 1_555 1_555
H33_2 C73_2 1_555 1_555
C85_2 C26_2 1_555 1_555
H39_2 C85_2 1_555 1_555
C86_3 N6_2 1_555 1_555
H40_3 C86_3 1_555 1_555
C91_2 C17_2 1_555 1_555
H44_2 C91_2 1_555 1_555
C98_2 C8_2 1_555 1_555
H46_2 C98_2 1_555 1_555
C102_3 C39_3 1_555 1_555
H48_3 C102_3 1_555 1_555
C104_2 N17 1_555 1_555
H50_2 C104_2 1_555 1_555
H53_3 C109_2 1_555 1_555
C110_2 C72_2 1_555 1_555
H54_2 C110_2 1_555 1_555
C121_2 C64_2 1_555 1_555
C122_2 N8_2 1_555 1_555
C127_2 C85_2 1_555 1_555
H58_2 C127_2 1_555 1_555
C128_2 C73_2 1_555 1_555
C129_2 C110_2 1_555 1_555
H59_2 C129_2 1_555 1_555
Co6_2 N6_2 1_555 1_555
C35_3 C47_2 1_555 1_555
C35_3 C86_3 1_555 1_555
C42_2 C109_2 1_555 1_555
C47_2 C91_2 1_555 1_555
C50_2 C72_2 1_555 1_555
C64_2 C104_2 1_555 1_555
C98_2 C122_2 1_555 1_555
C102_3 C121_2 1_555 1_555
C121_2 C128_2 1_555 1_555
C122_2 C127_2 1_555 1_555
C128_2 C129_2 1_555 1_555
N12_2 C82_3 1_555 1_555
C82_3 C118_3 1_555 1_555
C118_3 C84_3 1_555 1_555
C134_3 C84_3 1_555 1_555
C135_3 N12_2 1_555 1_555
Co10 N12_2 1_555 1_555
C134_3 C135_3 1_555 1_555
C82_3 H62_3 1_555 1_555
C135_3 H84_3 1_555 1_555
C134_3 H86_3 1_555 1_555
Co9 O10_3 1_555 1_555
O10_3 C132_3 1_555 1_555
C9_3 C31_3 1_555 1_555
C10_3 C31_3 1_555 1_555
C15_3 C18_3 1_555 1_555
C18_3 H9_3 1_555 1_555
C30_3 H13_3 1_555 1_555
C31_3 C132_3 1_555 1_555
C32_3 C67_3 1_555 1_555
N11_3 C54_3 1_555 1_555
O12_3 C132_3 1_555 1_555
C44_3 C77_3 1_555 1_555
C51_3 H20_3 1_555 1_555
C54_3 C68_3 1_555 1_555
C55_3 H22_3 1_555 1_555
C62_3 C18_3 1_555 1_555
H27_3 C62_3 1_555 1_555
C63_3 C15_3 1_555 1_555
C67_3 C10_3 1_555 1_555
C68_3 H31_3 1_555 1_555
C71_3 C67_3 1_555 1_555
C77_3 C9_3 1_555 1_555
C83_3 C9_3 1_555 1_555
C87_3 C15_3 1_555 1_555
H41_3 C87_3 1_555 1_555
C88_3 C40_3 1_555 1_555
H42_3 C88_3 1_555 1_555
C92_3 C32_3 1_555 1_555
C93_3 N11_3 1_555 1_555
C105_3 C10_3 1_555 1_555
C108_3 C51_3 1_555 1_555
H52_3 C108_3 1_555 1_555
C113_3 C115_3 1_555 1_555
C115_3 C120_3 1_555 1_555
C117_3 C30_3 1_555 1_555
C120_3 C30_3 1_555 1_555
C126_3 C113_3 1_555 1_555
H57_3 C126_3 1_555 1_555
C130_3 C55_3 1_555 1_555
H60_3 C130_3 1_555 1_555
C131_3 C68_3 1_555 1_555
H61_3 C131_3 1_555 1_555
N14_2 Co9 1_555 1_555
N18_2 Co9 1_555 1_555
C32_3 C77_3 1_555 1_555
N11_3 C117_3 1_555 1_555
C40_3 C123_3 1_555 1_555
C51_3 C93_3 1_555 1_555
C54_3 C88_3 1_555 1_555
C55_3 C63_3 1_555 1_555
C63_3 C108_3 1_555 1_555
C93_3 C130_3 1_555 1_555
C117_3 C126_3 1_555 1_555
C123_3 C131_3 1_555 1_555
C83_3 H63_3 1_555 1_555
C83_3 H64_3 1_555 1_555
C83_3 H65_3 1_555 1_555
C105_3 H70_3 1_555 1_555
C105_3 H71_3 1_555 1_555
C105_3 H72_3 1_555 1_555
C120_3 H85_3 1_555 1_555
C44_3 H99_3 1_555 1_555
C44_3 H101_3 1_555 1_555
C71_3 H105_3 1_555 1_555
C71_3 H106_3 1_555 1_555
C71_3 H107_3 1_555 1_555
C106_3 N16 1_555 1_555
H51_3 C106_3 1_555 1_555
N17_2 C39_4 1_555 1_555
C39_4 H16_4 1_555 1_555
C102_4 C39_4 1_555 1_555
H48_4 C102_4 1_555 1_555
N15_2 C17_3 1_555 1_555
N8_3 C42_3 1_555 1_555
C8_3 H6_3 1_555 1_555
C17_3 H8_3 1_555 1_555
C26_3 C8_3 1_555 1_555
C35_4 H14_4 1_555 1_555
C47_3 C26_3 1_555 1_555
C50_3 H19_3 1_555 1_555
C64_3 H28_3 1_555 1_555
C72_3 N8_3 1_555 1_555
C73_3 C50_3 1_555 1_555
H33_3 C73_3 1_555 1_555
C85_3 C26_3 1_555 1_555
H39_3 C85_3 1_555 1_555
C86_4 N15_2 1_555 1_555
H40_4 C86_4 1_555 1_555
C91_3 C17_3 1_555 1_555
H44_3 C91_3 1_555 1_555
C98_3 C8_3 1_555 1_555
H46_3 C98_3 1_555 1_555
H50_3 C104_3 1_555 1_555
H53_4 C109_3 1_555 1_555
C110_3 C72_3 1_555 1_555
H54_3 C110_3 1_555 1_555
C121_3 C64_3 1_555 1_555
C122_3 N8_3 1_555 1_555
C127_3 C85_3 1_555 1_555
H58_3 C127_3 1_555 1_555
C128_3 C73_3 1_555 1_555
C129_3 C110_3 1_555 1_555
H59_3 C129_3 1_555 1_555
C35_4 C47_3 1_555 1_555
C35_4 C86_4 1_555 1_555
C42_3 C109_3 1_555 1_555
C47_3 C91_3 1_555 1_555
C50_3 C72_3 1_555 1_555
C64_3 C104_3 1_555 1_555
C98_3 C122_3 1_555 1_555
C121_3 C128_3 1_555 1_555
C122_3 C127_3 1_555 1_555
C128_3 C129_3 1_555 1_555
Co4_2 O5_4 1_555 1_555
Co6_2 O1_4 1_555 1_555
O1_4 C107_4 1_555 1_555
O2_4 Co6_2 1_555 1_555
O4_4 C116_4 1_555 1_555
O6_4 Co4_2 1_555 1_555
O8_4 Co6_2 1_555 1_555
O9_4 Co4_2 1_555 1_555
N2_4 Co6_2 1_555 1_555
C1_4 C14_4 1_555 1_555
N5_4 Co4_2 1_555 1_555
C4_4 C100_4 1_555 1_555
N10_4 Co4_2 1_555 1_555
C11_4 C16_4 1_555 1_555
C14_4 C20_4 1_555 1_555
C16_4 C100_4 1_555 1_555
C20_4 C53_4 1_555 1_555
C23_4 H11_4 1_555 1_555
C27_4 H12_4 1_555 1_555
C29_4 C14_4 1_555 1_555
C34_4 C23_4 1_555 1_555
C36_4 C46_4 1_555 1_555
C41_4 C74_4 1_555 1_555
C46_4 C11_4 1_555 1_555
C48_4 C29_4 1_555 1_555
C49_4 O6_4 1_555 1_555
C58_4 N5_4 1_555 1_555
H25_4 C58_4 1_555 1_555
C61_4 C46_4 1_555 1_555
C70_4 C61_4 1_555 1_555
C74_4 H34_4 1_555 1_555
C78_4 N10_4 1_555 1_555
H36_4 C78_4 1_555 1_555
C89_4 N10_4 1_555 1_555
H43_4 C89_4 1_555 1_555
C90_4 C20_4 1_555 1_555
C94_4 C41_4 1_555 1_555
H45_4 C94_4 1_555 1_555
C97_4 C29_4 1_555 1_555
C100_4 C70_4 1_555 1_555
C107_4 O8_4 1_555 1_555
C111_4 N5_4 1_555 1_555
H55_4 C111_4 1_555 1_555
C112_4 C61_4 1_555 1_555
C114_4 C16_4 1_555 1_555
C116_4 O2_4 1_555 1_555
C119_4 C48_4 1_555 1_555
C124_4 C48_4 1_555 1_555
C133_4 C119_4 1_555 1_555
O9_4 C49_4 1_555 1_555
C11_4 C49_4 1_555 1_555
C23_4 C89_4 1_555 1_555
C27_4 C34_4 1_555 1_555
C27_4 C78_4 1_555 1_555
C58_4 C94_4 1_555 1_555
C70_4 C107_4 1_555 1_555
C74_4 C111_4 1_555 1_555
C90_4 C116_4 1_555 1_555
C90_4 C119_4 1_555 1_555
C112_4 H66_4 1_555 1_555
C112_4 H67_4 1_555 1_555
C112_4 H68_4 1_555 1_555
C114_4 H74_4 1_555 1_555
C114_4 H75_4 1_555 1_555
C114_4 H76_4 1_555 1_555
C124_4 H78_4 1_555 1_555
C124_4 H79_4 1_555 1_555
C124_4 H80_4 1_555 1_555
C133_4 H81_4 1_555 1_555
C133_4 H82_4 1_555 1_555
C133_4 H83_4 1_555 1_555
C4_4 H87_4 1_555 1_555
C4_4 H88_4 1_555 1_555
C4_4 H89_4 1_555 1_555
C1_4 H90_4 1_555 1_555
C1_4 H92_4 1_555 1_555
C36_4 H94_4 1_555 1_555
C36_4 H95_4 1_555 1_555
C36_4 H96_4 1_555 1_555
C53_4 H103_4 1_555 1_555
C53_4 H104_4 1_555 1_555
N13 C2_4 1_555 1_555
N3_4 C25_4 1_555 1_555
N14_2 C5_4 1_555 1_555
C2_4 H1_4 1_555 1_555
C3_3 H2_3 1_555 1_555
C5_4 H3_4 1_555 1_555
H4_3 C6_3 1_555 1_555
C7_4 H5_4 1_555 1_555
C12_3 H7_3 1_555 1_555
C13_4 C59_4 1_555 1_555
C19_4 C28_4 1_555 1_555
C21_3 H10_4 1_555 1_555
C22_3 C3_3 1_555 1_555
C24_4 C28_4 1_555 1_555
C25_4 C7_4 1_555 1_555
C33_4 C52_4 1_555 1_555
C37_4 N3_4 1_555 1_555
C38_3 C12_3 1_555 1_555
C43_4 C5_4 1_555 1_555
H18_4 C43_4 1_555 1_555
C45_4 N3_4 1_555 1_555
C52_4 C25_4 1_555 1_555
H21_4 C52_4 1_555 1_555
C57_4 N13 1_555 1_555
H24_4 C57_4 1_555 1_555
C59_4 C33_4 1_555 1_555
C60_4 C37_4 1_555 1_555
H26_4 C60_4 1_555 1_555
C65_4 H29_4 1_555 1_555
C66_4 C22_3 1_555 1_555
H30_4 C66_4 1_555 1_555
C75_4 C45_4 1_555 1_555
H35_4 C75_4 1_555 1_555
C76_4 C7_4 1_555 1_555
C79_3 C19_4 1_555 1_555
C80_4 C2_4 1_555 1_555
H37_4 C80_4 1_555 1_555
C81_4 N14_2 1_555 1_555
H38_4 C81_4 1_555 1_555
C95_3 C12_3 1_555 1_555
C99_4 C45_4 1_555 1_555
H47_4 C99_4 1_555 1_555
C101_4 C19_4 1_555 1_555
C103_3 C79_3 1_555 1_555
H49_3 C103_3 1_555 1_555
C125_4 C13_4 1_555 1_555
H56_4 C125_4 1_555 1_555
C3_3 C6_3 1_555 1_555
C13_4 C80_4 1_555 1_555
C21_3 C95_3 1_555 1_555
C22_3 C95_3 1_555 1_555
C24_4 C37_4 1_555 1_555
C43_4 C79_3 1_555 1_555
C56_4 C75_4 1_555 1_555
C56_4 C96_4 1_555 1_555
C57_4 C125_4 1_555 1_555
C59_4 C76_4 1_555 1_555
C60_4 C101_4 1_555 1_555
C65_4 C96_4 1_555 1_555
C65_4 C99_4 1_555 1_555
C66_4 C69_4 1_555 1_555
C81_4 C103_3 1_555 1_555
C101_4 H73_3 1_555 1_555
C24_4 H93_4 1_555 1_555
C33_4 H97_4 1_555 1_555
C28_4 H98_4 1_555 1_555
C76_4 H108_4 1_555 1_555
C106_4 N16_2 1_555 1_555
H51_4 C106_4 1_555 1_555
Co10 O10_4 1_555 1_555
O10_4 C132_4 1_555 1_555
C9_4 C31_4 1_555 1_555
C10_4 C31_4 1_555 1_555
C15_4 C18_4 1_555 1_555
C18_4 H9_4 1_555 1_555
C30_4 H13_4 1_555 1_555
C31_4 C132_4 1_555 1_555
C32_4 C67_4 1_555 1_555
N11_4 C54_4 1_555 1_555
O12_4 C132_4 1_555 1_555
C44_4 C77_4 1_555 1_555
C51_4 H20_4 1_555 1_555
C54_4 C68_4 1_555 1_555
C55_4 H22_4 1_555 1_555
N18_2 C82_4 1_555 1_555
C62_4 C18_4 1_555 1_555
H27_4 C62_4 1_555 1_555
C63_4 C15_4 1_555 1_555
C67_4 C10_4 1_555 1_555
C68_4 H31_4 1_555 1_555
C71_4 C67_4 1_555 1_555
C77_4 C9_4 1_555 1_555
C82_4 C118_4 1_555 1_555
C83_4 C9_4 1_555 1_555
C84_4 C115_4 1_555 1_555
C87_4 C15_4 1_555 1_555
H41_4 C87_4 1_555 1_555
C88_4 C40_4 1_555 1_555
H42_4 C88_4 1_555 1_555
C92_4 C32_4 1_555 1_555
C93_4 N11_4 1_555 1_555
C105_4 C10_4 1_555 1_555
C108_4 C51_4 1_555 1_555
H52_4 C108_4 1_555 1_555
C113_4 C115_4 1_555 1_555
C115_4 C120_4 1_555 1_555
C117_4 C30_4 1_555 1_555
C118_4 C84_4 1_555 1_555
C120_4 C30_4 1_555 1_555
C126_4 C113_4 1_555 1_555
H57_4 C126_4 1_555 1_555
C130_4 C55_4 1_555 1_555
H60_4 C130_4 1_555 1_555
C131_4 C68_4 1_555 1_555
H61_4 C131_4 1_555 1_555
C134_4 C84_4 1_555 1_555
C135_4 N18_2 1_555 1_555
C32_4 C77_4 1_555 1_555
N11_4 C117_4 1_555 1_555
C40_4 C123_4 1_555 1_555
C51_4 C93_4 1_555 1_555
C54_4 C88_4 1_555 1_555
C55_4 C63_4 1_555 1_555
C63_4 C108_4 1_555 1_555
C93_4 C130_4 1_555 1_555
C117_4 C126_4 1_555 1_555
C123_4 C131_4 1_555 1_555
C134_4 C135_4 1_555 1_555
C82_4 H62_4 1_555 1_555
C83_4 H63_4 1_555 1_555
C83_4 H64_4 1_555 1_555
C83_4 H65_4 1_555 1_555
C113_4 H69_4 1_555 1_555
C105_4 H70_4 1_555 1_555
C105_4 H71_4 1_555 1_555
C105_4 H72_4 1_555 1_555
C118_4 H77_4 1_555 1_555
C135_4 H84_4 1_555 1_555
C120_4 H85_4 1_555 1_555
C134_4 H86_4 1_555 1_555
C44_4 H99_4 1_555 1_555
C44_4 H101_4 1_555 1_555
C71_4 H105_4 1_555 1_555
C71_4 H106_4 1_555 1_555
C71_4 H107_4 1_555 1_555
H49_4 C103_4 1_555 1_555
C3_4 H2_4 1_555 1_555
N8_4 C42_4 1_555 1_555
H4_4 C6_4 1_555 1_555
C8_4 H6_4 1_555 1_555
C12_4 H7_4 1_555 1_555
C17_4 H8_4 1_555 1_555
C22_4 C3_4 1_555 1_555
C26_4 C8_4 1_555 1_555
C38_4 C12_4 1_555 1_555
H15_4 C38_4 1_555 1_555
C42_4 C38_4 1_555 1_555
C47_4 C26_4 1_555 1_555
C50_4 H19_4 1_555 1_555
C64_4 H28_4 1_555 1_555
C72_4 N8_4 1_555 1_555
C73_4 C50_4 1_555 1_555
H33_4 C73_4 1_555 1_555
C85_4 C26_4 1_555 1_555
H39_4 C85_4 1_555 1_555
C91_4 C17_4 1_555 1_555
H44_4 C91_4 1_555 1_555
C95_4 C12_4 1_555 1_555
C98_4 C8_4 1_555 1_555
H46_4 C98_4 1_555 1_555
H50_4 C104_4 1_555 1_555
C109_4 C21_4 1_555 1_555
C110_4 C72_4 1_555 1_555
H54_4 C110_4 1_555 1_555
C121_4 C64_4 1_555 1_555
C122_4 N8_4 1_555 1_555
C127_4 C85_4 1_555 1_555
H58_4 C127_4 1_555 1_555
C128_4 C73_4 1_555 1_555
C129_4 C110_4 1_555 1_555
H59_4 C129_4 1_555 1_555
C3_4 C6_4 1_555 1_555
C21_4 C95_4 1_555 1_555
C22_4 C95_4 1_555 1_555
C42_4 C109_4 1_555 1_555
C47_4 C91_4 1_555 1_555
C50_4 C72_4 1_555 1_555
C64_4 C104_4 1_555 1_555
C98_4 C122_4 1_555 1_555
C121_4 C128_4 1_555 1_555
C122_4 C127_4 1_555 1_555
C128_4 C129_4 1_555 1_555

#END
