
###############################################################################
#
# This file contains modified crystal structure data generated from the
# MOF subset of the Cambridge Structural Database (CSD) v543 
# hosted by the Cambridge Crystallographic Data Centre (CCDC).
#
# This work is licensed under the Creative Commons
# Attribution-NonCommercial-ShareAlike 4.0 International License.
# To view a copy of this license, visit
# http://creativecommons.org/licenses/by-nc-sa/4.0/
# or send a letter to
# Creative Commons, PO Box 1866, Mountain View, CA 94042, USA.
#
# CIF created using the CSD Python API on 29 September 2022
# The structure has been converted into the P1 space group
# The structure has a 3D framework
# The original CSD entry LAKFIN is in the orthorhombic crystal system
# The framework has been calculated to contain at least 10.0% void space
# The void calculation uses a probe of radius 1.32A, grid spacing 0.4
#
###############################################################################

data_LAKFIN
_chemical_formula_moiety         '(C288 H192 I48 N92 Zn24)n'
_symmetry_cell_setting           triclinic
_symmetry_space_group_name_H-M   'P 1'
_symmetry_Int_Tables_number      1
_space_group_name_Hall           'P 1'
loop_
_symmetry_equiv_pos_site_id
_symmetry_equiv_pos_as_xyz
1 x,y,z
_cell_length_a                   27.787(3)
_cell_length_b                   13.7247(12)
_cell_length_c                   45.881(4)
_cell_angle_alpha                90
_cell_angle_beta                 90
_cell_angle_gamma                90
_cell_volume                     17497.6
loop_
_atom_site_label
_atom_site_type_symbol
_atom_site_fract_x
_atom_site_fract_y
_atom_site_fract_z
C1 C 0.2251(3) 0.0446(6) 0.23995(17)
H1 H 0.1940 0.0497 0.2315
C2 C 0.2289(3) 0.0098(5) 0.26832(16)
C3 C 0.2741(3) 0.0014(5) 0.28025(16)
C4 C 0.3144(3) 0.0240(6) 0.26339(18)
H3 H 0.3460 0.0155 0.2709
C5 C 0.3074(3) 0.0590(6) 0.23553(18)
H4 H 0.3348 0.0751 0.2241
C19 C 0.3118(3) 0.1214(6) 0.13334(19)
H13 H 0.3114 0.1906 0.1334
C20 C 0.3340(4) 0.0732(6) 0.11024(19)
H14 H 0.3478 0.1089 0.0946
C28 C 0.3987(4) 0.0743(6) 0.01234(19)
H17 H 0.3824 0.1085 0.0274
I1 I 0.16456(2) 0.16050(5) 0.175201(15)
I2 I 0.30265(3) 0.30904(4) 0.193339(14)
N1 N 0.2634(3) 0.0712(5) 0.22402(14)
N7 N 0.2910(3) 0.0734(5) 0.15545(15)
Zn1 Zn 0.25446(4) 0.15171(7) 0.18651(2)
C34 C 0.4128(4) 0.1210(6) 0.98696(18)
H22 H 0.4053 0.1881 0.9848
N11 N 0.4364(3) 0.0766(5) 0.96522(15)
Zn4 Zn 0.44750(4) 0.14432(7) 0.92526(2)
H2 H 0.2990 0.0077 0.7792
C6 C 0.2199(3) 0.0270(5) 0.81145(16)
C7 C 0.2561(3) 0.0612(5) 0.85448(16)
C8 C 0.1742(3) 0.0599(5) 0.85120(16)
C9 C 0.3000(3) 0.0758(5) 0.87193(17)
C10 C 0.3451(3) 0.0644(5) 0.85903(16)
H5 H 0.3479 0.0460 0.8391
C11 C 0.3853(3) 0.0803(6) 0.87568(17)
H6 H 0.4159 0.0719 0.8668
C12 C 0.3404(3) 0.1172(6) 0.91603(18)
H7 H 0.3387 0.1362 0.9359
C13 C 0.2980(3) 0.1014(5) 0.90122(17)
H8 H 0.2680 0.1079 0.9109
C14 C 0.1273(3) 0.0707(5) 0.86494(17)
C15 C 0.1233(3) 0.0867(6) 0.89468(18)
H9 H 0.1512 0.0879 0.9066
C16 C 0.0781(3) 0.1010(6) 0.9067(2)
H10 H 0.0758 0.1107 0.9272
C17 C 0.0414(3) 0.0846(7) 0.8622(2)
H11 H 0.0130 0.0836 0.8508
C18 C 0.0850(3) 0.0683(6) 0.8486(2)
H12 H 0.0862 0.0556 0.8282
C21 C 0.1642(3) 0.0275(6) 0.61050(18)
C22 C 0.1847(4) 0.0773(6) 0.6335(2)
H15 H 0.1836 0.1464 0.6344
C23 C 0.2071(4) 0.0238(6) 0.6551(2)
H16 H 0.2219 0.0582 0.6707
C24 C 0.1406(3) 0.0795(6) 0.58614(17)
C25 C 0.1059(3) 0.0781(6) 0.54181(17)
C26 C 0.1068(3) 0.2166(6) 0.56822(18)
C27 C 0.0908(3) 0.0244(6) 0.51508(17)
C29 C 0.0648(4) 0.0690(7) 0.4932(2)
H18 H 0.0557 0.1354 0.4950
C30 C 0.0911(3) 0.3199(6) 0.5729(2)
C31 C 0.0723(3) 0.3731(7) 0.5499(2)
H19 H 0.0709 0.3459 0.5309
C32 C 0.0936(4) 0.3614(7) 0.6000(2)
H20 H 0.1068 0.3263 0.6160
C33 C 0.0523(3) 0.0175(6) 0.46902(19)
H21 H 0.0348 0.0499 0.4541
C35 C 0.0556(3) 0.4668(7) 0.5551(2)
H23 H 0.0426 0.5035 0.5394
C36 C 0.0764(4) 0.4553(7) 0.6038(2)
H24 H 0.0782 0.4840 0.6226
I3 I 0.51406(2) 0.05080(5) 0.898935(14)
I4 I 0.44213(3) 0.32775(5) 0.933247(18)
N2 N 0.2613(2) 0.0394(4) 0.82647(13)
N3 N 0.2134(2) 0.0725(4) 0.86810(14)
N4 N 0.1760(2) 0.0357(4) 0.82247(13)
N5 N 0.3840(2) 0.1070(4) 0.90373(14)
N6 N 0.0375(2) 0.1017(5) 0.89087(17)
N8 N 0.1292(2) 0.0281(5) 0.56221(14)
N9 N 0.0938(3) 0.1723(5) 0.54316(15)
N10 N 0.1309(2) 0.1750(5) 0.59026(14)
N12 N 0.0575(3) 0.5069(5) 0.58183(17)
Zn5 Zn 0.02748(4) 0.64154(7) 0.59039(3)
I5 I 0.07398(3) 0.72459(6) 0.63142(3)
I6 I 0.01079(3) 0.72266(5) 0.54132(2)
H2_2 H 0.2010 0.9923 0.2792
C6_2 C 0.2801(3) 0.9730(5) 0.31145(16)
C7_2 C 0.2439(3) 0.9388(5) 0.35448(16)
C8_2 C 0.3258(3) 0.9401(5) 0.35120(16)
C9_2 C 0.2000(3) 0.9242(5) 0.37193(17)
C10_2 C 0.1549(3) 0.9356(5) 0.35903(16)
H5_2 H 0.1521 0.9540 0.3391
C11_2 C 0.1147(3) 0.9197(6) 0.37568(17)
H6_2 H 0.0841 0.9281 0.3668
C12_2 C 0.1596(3) 0.8828(6) 0.41603(18)
H7_2 H 0.1613 0.8638 0.4359
C13_2 C 0.2020(3) 0.8986(5) 0.40122(17)
H8_2 H 0.2320 0.8921 0.4109
C14_2 C 0.3727(3) 0.9293(5) 0.36494(17)
C15_2 C 0.3767(3) 0.9133(6) 0.39468(18)
H9_2 H 0.3488 0.9121 0.4066
C16_2 C 0.4219(3) 0.8990(6) 0.4067(2)
H10_2 H 0.4242 0.8893 0.4272
C17_2 C 0.4586(3) 0.9154(7) 0.3622(2)
H11_2 H 0.4870 0.9164 0.3508
C18_2 C 0.4150(3) 0.9317(6) 0.3486(2)
H12_2 H 0.4138 0.9444 0.3282
C21_2 C 0.3358(3) 0.9725(6) 0.11050(18)
C22_2 C 0.3153(4) 0.9227(6) 0.1335(2)
H15_2 H 0.3164 0.8536 0.1344
C23_2 C 0.2929(4) 0.9762(6) 0.1551(2)
H16_2 H 0.2781 0.9418 0.1707
C24_2 C 0.3594(3) 0.9205(6) 0.08614(17)
C25_2 C 0.3941(3) 0.9219(6) 0.04181(17)
C26_2 C 0.3932(3) 0.7834(6) 0.06822(18)
C27_2 C 0.4092(3) 0.9756(6) 0.01508(17)
C30_2 C 0.4089(3) 0.6801(6) 0.0729(2)
C31_2 C 0.4277(3) 0.6269(7) 0.0499(2)
H19_2 H 0.4291 0.6541 0.0309
C32_2 C 0.4064(4) 0.6386(7) 0.1000(2)
H20_2 H 0.3932 0.6737 0.1160
C35_2 C 0.4444(3) 0.5332(7) 0.0551(2)
H23_2 H 0.4574 0.4965 0.0394
C36_2 C 0.4236(4) 0.5447(7) 0.1038(2)
H24_2 H 0.4218 0.5160 0.1226
I4_2 I 0.05787(3) 0.67225(5) 0.433247(18)
I5_2 I 0.57398(3) 0.77541(6) 0.36858(3)
I6_2 I 0.51079(3) 0.77734(5) 0.45868(2)
N2_2 N 0.2387(2) 0.9606(4) 0.32647(13)
N3_2 N 0.2866(2) 0.9275(4) 0.36810(14)
N4_2 N 0.3240(2) 0.9643(4) 0.32247(13)
N5_2 N 0.1160(2) 0.8930(4) 0.40373(14)
N6_2 N 0.4625(2) 0.8983(5) 0.39087(17)
N8_2 N 0.3708(2) 0.9719(5) 0.06221(14)
N9_2 N 0.4062(3) 0.8277(5) 0.04316(15)
N10_2 N 0.3691(2) 0.8250(5) 0.09026(14)
N12_2 N 0.4425(3) 0.4931(5) 0.08183(17)
Zn2 Zn 0.05250(4) 0.85568(7) 0.42526(2)
Zn3 Zn 0.52748(4) 0.85846(7) 0.40961(3)
N13 N 0.0636(3) 0.9234(5) 0.46522(15)
N14 N 0.5575(3) 0.9931(5) 0.41817(17)
Zn5_2 Zn 0.47252(4) 0.35846(7) 0.09039(3)
C1_2 C 0.2749(3) 0.9554(6) 0.73995(17)
H1_2 H 0.3060 0.9503 0.7315
C2_2 C 0.2711(3) 0.9902(5) 0.76832(16)
C3_2 C 0.2259(3) 0.9986(5) 0.78025(16)
C4_2 C 0.1856(3) 0.9760(6) 0.76339(18)
H3_2 H 0.1540 0.9845 0.7709
C5_2 C 0.1926(3) 0.9410(6) 0.73553(18)
H4_2 H 0.1652 0.9249 0.7241
C19_2 C 0.1882(3) 0.8786(6) 0.63334(19)
H13_2 H 0.1886 0.8094 0.6334
C20_2 C 0.1660(4) 0.9268(6) 0.61024(19)
H14_2 H 0.1522 0.8911 0.5946
C28_2 C 0.1013(4) 0.9257(6) 0.51234(19)
H17_2 H 0.1176 0.8915 0.5274
C34_2 C 0.0872(4) 0.8790(6) 0.48696(18)
H22_2 H 0.0947 0.8119 0.4848
I1_2 I 0.33544(2) 0.83950(5) 0.675201(15)
I2_2 I 0.19735(3) 0.69096(4) 0.693339(14)
N1_2 N 0.2366(3) 0.9288(5) 0.72402(14)
N7_2 N 0.2090(3) 0.9266(5) 0.65545(15)
Zn1_2 Zn 0.24554(4) 0.84829(7) 0.68651(2)
C1_3 C 0.7749(3) 0.5446(6) 0.26005(17)
H1_3 H 0.8060 0.5497 0.2685
C2_3 C 0.7711(3) 0.5098(5) 0.23168(16)
H2_3 H 0.7990 0.4923 0.2208
C3_3 C 0.7259(3) 0.5014(5) 0.21975(16)
C4_3 C 0.6856(3) 0.5240(6) 0.23661(18)
H3_3 H 0.6540 0.5155 0.2291
C5_3 C 0.6926(3) 0.5590(6) 0.26447(18)
H4_3 H 0.6652 0.5751 0.2759
C6_3 C 0.7199(3) 0.4730(5) 0.18855(16)
C7_3 C 0.7561(3) 0.4388(5) 0.14552(16)
C8_3 C 0.6742(3) 0.4401(5) 0.14880(16)
C9_3 C 0.8000(3) 0.4242(5) 0.12807(17)
C10_3 C 0.8451(3) 0.4356(5) 0.14097(16)
H5_3 H 0.8479 0.4540 0.1609
C11_3 C 0.8853(3) 0.4197(6) 0.12432(17)
H6_3 H 0.9159 0.4281 0.1332
C12_3 C 0.8404(3) 0.3828(6) 0.08397(18)
H7_3 H 0.8387 0.3638 0.0641
C13_3 C 0.7980(3) 0.3986(5) 0.09878(17)
H8_3 H 0.7680 0.3921 0.0891
C14_3 C 0.6273(3) 0.4293(5) 0.13506(17)
C15_3 C 0.6233(3) 0.4133(6) 0.10532(18)
H9_3 H 0.6512 0.4121 0.0934
C16_3 C 0.5781(3) 0.3990(6) 0.0933(2)
H10_3 H 0.5758 0.3893 0.0728
C17_3 C 0.5414(3) 0.4154(7) 0.1378(2)
H11_3 H 0.5130 0.4164 0.1492
C18_3 C 0.5850(3) 0.4317(6) 0.1514(2)
H12_3 H 0.5862 0.4444 0.1718
C19_3 C 0.6882(3) 0.6214(6) 0.36666(19)
H13_3 H 0.6886 0.6906 0.3666
C20_3 C 0.6660(4) 0.5732(6) 0.38976(19)
H14_3 H 0.6522 0.6089 0.4054
C21_3 C 0.6642(3) 0.4725(6) 0.38950(18)
C22_3 C 0.6847(4) 0.4227(6) 0.3665(2)
H15_3 H 0.6836 0.3536 0.3656
C23_3 C 0.7071(4) 0.4762(6) 0.3449(2)
H16_3 H 0.7219 0.4418 0.3293
C24_3 C 0.6406(3) 0.4205(6) 0.41386(17)
C25_3 C 0.6059(3) 0.4219(6) 0.45819(17)
C26_3 C 0.6068(3) 0.2834(6) 0.43178(18)
C27_3 C 0.5908(3) 0.4756(6) 0.48492(17)
C28_3 C 0.6013(4) 0.5743(6) 0.48766(19)
H17_3 H 0.6176 0.6085 0.4726
C29_2 C 0.5648(4) 0.4310(7) 0.5068(2)
H18_2 H 0.5557 0.3646 0.5050
C30_3 C 0.5911(3) 0.1801(6) 0.4271(2)
C31_3 C 0.5723(3) 0.1269(7) 0.4501(2)
H19_3 H 0.5709 0.1541 0.4691
C32_3 C 0.5936(4) 0.1386(7) 0.4000(2)
H20_3 H 0.6068 0.1737 0.3840
C33_2 C 0.5523(3) 0.4825(6) 0.53098(19)
H21_2 H 0.5348 0.4501 0.5459
C34_3 C 0.5872(4) 0.6210(6) 0.51304(18)
H22_3 H 0.5947 0.6881 0.5152
C35_3 C 0.5556(3) 0.0332(7) 0.4449(2)
C36_3 C 0.5764(4) 0.0447(7) 0.3962(2)
H24_3 H 0.5782 0.0160 0.3774
I1_3 I 0.83544(2) 0.66050(5) 0.324799(15)
I2_3 I 0.69735(3) 0.80904(4) 0.306661(14)
I4_3 I 0.94213(3) 0.17225(5) 0.066753(18)
I5_3 I 0.42602(3) 0.27541(6) 0.13142(3)
I6_3 I 0.48921(3) 0.27734(5) 0.04132(2)
N1_3 N 0.7366(3) 0.5712(5) 0.27598(14)
N2_3 N 0.7613(2) 0.4606(4) 0.17353(13)
N3_3 N 0.7134(2) 0.4275(4) 0.13190(14)
N4_3 N 0.6760(2) 0.4643(4) 0.17753(13)
N5_3 N 0.8840(2) 0.3930(4) 0.09627(14)
N6_3 N 0.5375(2) 0.3983(5) 0.10913(17)
N7_3 N 0.7090(3) 0.5734(5) 0.34455(15)
N8_3 N 0.6292(2) 0.4719(5) 0.43779(14)
N9_3 N 0.5938(3) 0.3277(5) 0.45684(15)
N10_3 N 0.6309(2) 0.3250(5) 0.40974(14)
N11_2 N 0.5636(3) 0.5766(5) 0.53478(15)
Zn1_3 Zn 0.74554(4) 0.65171(7) 0.31349(2)
Zn2_2 Zn 0.94750(4) 0.35568(7) 0.07474(2)
N13_2 N 0.9364(3) 0.4234(5) 0.03478(15)
Zn4_2 Zn 0.55250(4) 0.64432(7) 0.57474(2)
H23_3 H 0.5426 0.9965 0.4606
C29_3 C 0.9352(4) 0.5690(7) 0.0068(2)
H18_3 H 0.9443 0.6354 0.0050
C33_3 C 0.9477(3) 0.5175(6) 0.03098(19)
H21_3 H 0.9652 0.5499 0.0459
C34_4 C 0.9128(4) 0.3790(6) 0.01304(18)
H22_4 H 0.9053 0.3119 0.0152
C1_4 C 0.7251(3) 0.4554(6) 0.76005(17)
H1_4 H 0.6940 0.4503 0.7685
C2_4 C 0.7289(3) 0.4902(5) 0.73168(16)
H2_4 H 0.7010 0.5077 0.7208
C3_4 C 0.7741(3) 0.4986(5) 0.71975(16)
C4_4 C 0.8144(3) 0.4760(6) 0.73661(18)
H3_4 H 0.8460 0.4845 0.7291
C5_4 C 0.8074(3) 0.4410(6) 0.76447(18)
H4_4 H 0.8348 0.4249 0.7759
C6_4 C 0.7801(3) 0.5270(5) 0.68855(16)
C7_4 C 0.7439(3) 0.5612(5) 0.64552(16)
C8_4 C 0.8258(3) 0.5599(5) 0.64880(16)
C9_4 C 0.7000(3) 0.5758(5) 0.62807(17)
C10_4 C 0.6549(3) 0.5644(5) 0.64097(16)
H5_4 H 0.6521 0.5460 0.6609
C11_4 C 0.6147(3) 0.5803(6) 0.62432(17)
H6_4 H 0.5841 0.5719 0.6332
C12_4 C 0.6596(3) 0.6172(6) 0.58397(18)
H7_4 H 0.6613 0.6362 0.5641
C13_4 C 0.7020(3) 0.6014(5) 0.59878(17)
H8_4 H 0.7320 0.6079 0.5891
C14_4 C 0.8727(3) 0.5707(5) 0.63506(17)
C15_4 C 0.8767(3) 0.5867(6) 0.60532(18)
H9_4 H 0.8488 0.5879 0.5934
C16_4 C 0.9219(3) 0.6010(6) 0.5933(2)
H10_4 H 0.9242 0.6107 0.5728
C17_4 C 0.9586(3) 0.5846(7) 0.6378(2)
H11_4 H 0.9870 0.5836 0.6492
C18_4 C 0.9150(3) 0.5683(6) 0.6514(2)
H12_4 H 0.9138 0.5556 0.6718
C19_4 C 0.8118(3) 0.3786(6) 0.86666(19)
H13_4 H 0.8114 0.3094 0.8666
C20_4 C 0.8340(4) 0.4268(6) 0.88976(19)
H14_4 H 0.8478 0.3911 0.9054
C21_4 C 0.8358(3) 0.5275(6) 0.88950(18)
C22_4 C 0.8153(4) 0.5773(6) 0.8665(2)
H15_4 H 0.8164 0.6464 0.8656
C23_4 C 0.7929(4) 0.5238(6) 0.8449(2)
H16_4 H 0.7781 0.5582 0.8293
C24_4 C 0.8594(3) 0.5795(6) 0.91386(17)
C25_4 C 0.8941(3) 0.5781(6) 0.95819(17)
C26_4 C 0.8932(3) 0.7166(6) 0.93178(18)
C27_4 C 0.9092(3) 0.5244(6) 0.98492(17)
C28_4 C 0.8987(4) 0.4257(6) 0.98766(19)
H17_4 H 0.8824 0.3915 0.9726
C30_4 C 0.9089(3) 0.8199(6) 0.9271(2)
C31_4 C 0.9277(3) 0.8731(7) 0.9501(2)
H19_4 H 0.9291 0.8459 0.9691
C32_4 C 0.9064(4) 0.8614(7) 0.9000(2)
H20_4 H 0.8932 0.8263 0.8840
C35_4 C 0.9444(3) 0.9668(7) 0.9449(2)
C36_4 C 0.9236(4) 0.9553(7) 0.8962(2)
H24_4 H 0.9218 0.9840 0.8774
I1_4 I 0.66456(2) 0.33950(5) 0.824799(15)
I2_4 I 0.80265(3) 0.19096(4) 0.806661(14)
I3_2 I 0.48594(2) 0.55080(5) 0.601065(14)
I4_4 I 0.55787(3) 0.82775(5) 0.566753(18)
N1_4 N 0.7634(3) 0.4288(5) 0.77598(14)
N2_4 N 0.7387(2) 0.5394(4) 0.67353(13)
N3_4 N 0.7866(2) 0.5725(4) 0.63190(14)
N4_4 N 0.8240(2) 0.5357(4) 0.67753(13)
N5_4 N 0.6160(2) 0.6070(4) 0.59627(14)
N6_4 N 0.9625(2) 0.6017(5) 0.60913(17)
N7_4 N 0.7910(3) 0.4266(5) 0.84455(15)
N8_4 N 0.8708(2) 0.5281(5) 0.93779(14)
N9_4 N 0.9062(3) 0.6723(5) 0.95684(15)
N10_4 N 0.8691(2) 0.6750(5) 0.90974(14)
Zn1_4 Zn 0.75446(4) 0.34829(7) 0.81349(2)
C29_4 C 0.4352(4) 0.9310(7) 0.9932(2)
H18_4 H 0.4443 0.8646 0.9950
C33_4 C 0.4477(3) 0.9825(6) 0.96902(19)
H21_4 H 0.4652 0.9501 0.9541
I3_3 I 0.98594(2) 0.94920(5) 0.398935(14)
I5_4 I 0.92602(3) 0.22459(6) 0.86858(3)
I6_4 I 0.98921(3) 0.22266(5) 0.95868(2)
Zn3_2 Zn 0.97252(4) 0.14154(7) 0.90961(3)
N14_2 N 0.9425(3) 0.0069(5) 0.91817(17)
H23_4 H 0.9574 0.0035 0.9606
I3_4 I 0.01406(2) 0.44920(5) 0.101065(14)
I3_5 I 0.01406(2) 0.05080(5) 0.601065(14)
C29_5 C 0.5648(4) 0.0690(7) 0.0068(2)
H18_5 H 0.5557 0.1354 0.0050
C33_5 C 0.5523(3) 0.0175(6) 0.03098(19)
H21_5 H 0.5348 0.0499 0.0459
H2_5 H 0.7990 0.0077 0.7208
C6_5 C 0.7199(3) 0.0270(5) 0.68855(16)
C7_5 C 0.7561(3) 0.0612(5) 0.64552(16)
C8_5 C 0.6742(3) 0.0599(5) 0.64880(16)
C9_5 C 0.8000(3) 0.0758(5) 0.62807(17)
C10_5 C 0.8451(3) 0.0644(5) 0.64097(16)
H5_5 H 0.8479 0.0460 0.6609
C11_5 C 0.8853(3) 0.0803(6) 0.62432(17)
H6_5 H 0.9159 0.0719 0.6332
C12_5 C 0.8404(3) 0.1172(6) 0.58397(18)
H7_5 H 0.8387 0.1362 0.5641
C13_5 C 0.7980(3) 0.1014(5) 0.59878(17)
H8_5 H 0.7680 0.1079 0.5891
C14_5 C 0.6273(3) 0.0707(5) 0.63506(17)
C15_5 C 0.6233(3) 0.0867(6) 0.60532(18)
H9_5 H 0.6512 0.0879 0.5934
C16_5 C 0.5781(3) 0.1010(6) 0.5933(2)
H10_5 H 0.5758 0.1107 0.5728
C17_5 C 0.5414(3) 0.0846(7) 0.6378(2)
H11_5 H 0.5130 0.0836 0.6492
C18_5 C 0.5850(3) 0.0683(6) 0.6514(2)
H12_5 H 0.5862 0.0556 0.6718
C21_5 C 0.6642(3) 0.0275(6) 0.88950(18)
C22_5 C 0.6847(4) 0.0773(6) 0.8665(2)
H15_5 H 0.6836 0.1464 0.8656
C23_5 C 0.7071(4) 0.0238(6) 0.8449(2)
H16_5 H 0.7219 0.0582 0.8293
C24_5 C 0.6406(3) 0.0795(6) 0.91386(17)
C25_5 C 0.6059(3) 0.0781(6) 0.95819(17)
C26_5 C 0.6068(3) 0.2166(6) 0.93178(18)
C27_5 C 0.5908(3) 0.0244(6) 0.98492(17)
C30_5 C 0.5911(3) 0.3199(6) 0.9271(2)
C31_5 C 0.5723(3) 0.3731(7) 0.9501(2)
H19_5 H 0.5709 0.3459 0.9691
C32_5 C 0.5936(4) 0.3614(7) 0.9000(2)
H20_5 H 0.6068 0.3263 0.8840
C35_5 C 0.5556(3) 0.4668(7) 0.9449(2)
H23_5 H 0.5426 0.5035 0.9606
C36_5 C 0.5764(4) 0.4553(7) 0.8962(2)
H24_5 H 0.5782 0.4840 0.8774
I4_5 I 0.94213(3) 0.32775(5) 0.566753(18)
I5_5 I 0.42602(3) 0.22459(6) 0.63142(3)
I6_5 I 0.48921(3) 0.22266(5) 0.54132(2)
N2_5 N 0.7613(2) 0.0394(4) 0.67353(13)
N3_5 N 0.7134(2) 0.0725(4) 0.63190(14)
N4_5 N 0.6760(2) 0.0357(4) 0.67753(13)
N5_5 N 0.8840(2) 0.1070(4) 0.59627(14)
N6_5 N 0.5375(2) 0.1017(5) 0.60913(17)
N8_5 N 0.6292(2) 0.0281(5) 0.93779(14)
N9_5 N 0.5938(3) 0.1723(5) 0.95684(15)
N10_5 N 0.6309(2) 0.1750(5) 0.90974(14)
N12_3 N 0.5575(3) 0.5069(5) 0.91817(17)
Zn2_3 Zn 0.94750(4) 0.14432(7) 0.57474(2)
Zn3_3 Zn 0.47252(4) 0.14154(7) 0.59039(3)
N13_3 N 0.9364(3) 0.0766(5) 0.53478(15)
N14_3 N 0.4425(3) 0.0069(5) 0.58183(17)
Zn5_3 Zn 0.52748(4) 0.64154(7) 0.90961(3)
C1_5 C 0.7251(3) 0.0446(6) 0.26005(17)
H1_5 H 0.6940 0.0497 0.2685
C2_5 C 0.7289(3) 0.0098(5) 0.23168(16)
C3_5 C 0.7741(3) 0.0014(5) 0.21975(16)
C4_5 C 0.8144(3) 0.0240(6) 0.23661(18)
H3_5 H 0.8460 0.0155 0.2291
C5_5 C 0.8074(3) 0.0590(6) 0.26447(18)
H4_5 H 0.8348 0.0751 0.2759
C19_5 C 0.8118(3) 0.1214(6) 0.36666(19)
H13_5 H 0.8114 0.1906 0.3666
C20_5 C 0.8340(4) 0.0732(6) 0.38976(19)
H14_5 H 0.8478 0.1089 0.4054
C28_5 C 0.8987(4) 0.0743(6) 0.48766(19)
H17_5 H 0.8824 0.1085 0.4726
C34_5 C 0.9128(4) 0.1210(6) 0.51304(18)
H22_5 H 0.9053 0.1881 0.5152
I1_5 I 0.66456(2) 0.16050(5) 0.324799(15)
I2_5 I 0.80265(3) 0.30904(4) 0.306661(14)
N1_5 N 0.7634(3) 0.0712(5) 0.27598(14)
N7_5 N 0.7910(3) 0.0734(5) 0.34455(15)
Zn1_5 Zn 0.75446(4) 0.15171(7) 0.31349(2)
H23_6 H 0.4574 0.0035 0.5394
C1_6 C 0.2251(3) 0.4554(6) 0.73995(17)
H1_6 H 0.1940 0.4503 0.7315
C2_6 C 0.2289(3) 0.4902(5) 0.76832(16)
H2_6 H 0.2010 0.5077 0.7792
C3_6 C 0.2741(3) 0.4986(5) 0.78025(16)
C4_6 C 0.3144(3) 0.4760(6) 0.76339(18)
H3_6 H 0.3460 0.4845 0.7709
C5_6 C 0.3074(3) 0.4410(6) 0.73553(18)
H4_6 H 0.3348 0.4249 0.7241
C6_6 C 0.2801(3) 0.5270(5) 0.81145(16)
C7_6 C 0.2439(3) 0.5612(5) 0.85448(16)
C8_6 C 0.3258(3) 0.5599(5) 0.85120(16)
C9_6 C 0.2000(3) 0.5758(5) 0.87193(17)
C10_6 C 0.1549(3) 0.5644(5) 0.85903(16)
H5_6 H 0.1521 0.5460 0.8391
C11_6 C 0.1147(3) 0.5803(6) 0.87568(17)
H6_6 H 0.0841 0.5719 0.8668
C12_6 C 0.1596(3) 0.6172(6) 0.91603(18)
H7_6 H 0.1613 0.6362 0.9359
C13_6 C 0.2020(3) 0.6014(5) 0.90122(17)
H8_6 H 0.2320 0.6079 0.9109
C14_6 C 0.3727(3) 0.5707(5) 0.86494(17)
C15_6 C 0.3767(3) 0.5867(6) 0.89468(18)
H9_6 H 0.3488 0.5879 0.9066
C16_6 C 0.4219(3) 0.6010(6) 0.9067(2)
H10_6 H 0.4242 0.6107 0.9272
C17_6 C 0.4586(3) 0.5846(7) 0.8622(2)
H11_6 H 0.4870 0.5836 0.8508
C18_6 C 0.4150(3) 0.5683(6) 0.8486(2)
H12_6 H 0.4138 0.5556 0.8282
C19_6 C 0.3118(3) 0.3786(6) 0.63334(19)
H13_6 H 0.3114 0.3094 0.6334
C20_6 C 0.3340(4) 0.4268(6) 0.61024(19)
H14_6 H 0.3478 0.3911 0.5946
C21_6 C 0.3358(3) 0.5275(6) 0.61050(18)
C22_6 C 0.3153(4) 0.5773(6) 0.6335(2)
H15_6 H 0.3164 0.6464 0.6344
C23_6 C 0.2929(4) 0.5238(6) 0.6551(2)
H16_6 H 0.2781 0.5582 0.6707
C24_6 C 0.3594(3) 0.5795(6) 0.58614(17)
C25_6 C 0.3941(3) 0.5781(6) 0.54181(17)
C26_6 C 0.3932(3) 0.7166(6) 0.56822(18)
C27_6 C 0.4092(3) 0.5244(6) 0.51508(17)
C28_6 C 0.3987(4) 0.4257(6) 0.51234(19)
H17_6 H 0.3824 0.3915 0.5274
C29_6 C 0.4352(4) 0.5690(7) 0.4932(2)
H18_6 H 0.4443 0.6354 0.4950
C30_6 C 0.4089(3) 0.8199(6) 0.5729(2)
C31_6 C 0.4277(3) 0.8731(7) 0.5499(2)
H19_6 H 0.4291 0.8459 0.5309
C32_6 C 0.4064(4) 0.8614(7) 0.6000(2)
H20_6 H 0.3932 0.8263 0.6160
C33_6 C 0.4477(3) 0.5175(6) 0.46902(19)
H21_6 H 0.4652 0.5499 0.4541
C34_6 C 0.4128(4) 0.3790(6) 0.48696(18)
H22_6 H 0.4053 0.3119 0.4848
C35_6 C 0.4444(3) 0.9668(7) 0.5551(2)
C36_6 C 0.4236(4) 0.9553(7) 0.6038(2)
H24_6 H 0.4218 0.9840 0.6226
I1_6 I 0.16456(2) 0.33950(5) 0.675201(15)
I2_6 I 0.30265(3) 0.19096(4) 0.693339(14)
I4_6 I 0.05787(3) 0.82775(5) 0.933247(18)
I5_6 I 0.57398(3) 0.72459(6) 0.86858(3)
I6_6 I 0.51079(3) 0.72266(5) 0.95868(2)
N1_6 N 0.2634(3) 0.4288(5) 0.72402(14)
N2_6 N 0.2387(2) 0.5394(4) 0.82647(13)
N3_6 N 0.2866(2) 0.5725(4) 0.86810(14)
N4_6 N 0.3240(2) 0.5357(4) 0.82247(13)
N5_6 N 0.1160(2) 0.6070(4) 0.90373(14)
N6_6 N 0.4625(2) 0.6017(5) 0.89087(17)
N7_6 N 0.2910(3) 0.4266(5) 0.65545(15)
N8_6 N 0.3708(2) 0.5281(5) 0.56221(14)
N9_6 N 0.4062(3) 0.6723(5) 0.54316(15)
N10_6 N 0.3691(2) 0.6750(5) 0.59026(14)
N11_3 N 0.4364(3) 0.4234(5) 0.46522(15)
Zn1_6 Zn 0.25446(4) 0.34829(7) 0.68651(2)
Zn2_4 Zn 0.05250(4) 0.64432(7) 0.92526(2)
N13_4 N 0.0636(3) 0.5766(5) 0.96522(15)
Zn4_3 Zn 0.44750(4) 0.35568(7) 0.42526(2)
C1_7 C 0.2749(3) 0.5446(6) 0.23995(17)
H1_7 H 0.3060 0.5497 0.2315
C2_7 C 0.2711(3) 0.5098(5) 0.26832(16)
H2_7 H 0.2990 0.4923 0.2792
C3_7 C 0.2259(3) 0.5014(5) 0.28025(16)
C4_7 C 0.1856(3) 0.5240(6) 0.26339(18)
H3_7 H 0.1540 0.5155 0.2709
C5_7 C 0.1926(3) 0.5590(6) 0.23553(18)
H4_7 H 0.1652 0.5751 0.2241
C6_7 C 0.2199(3) 0.4730(5) 0.31145(16)
C7_7 C 0.2561(3) 0.4388(5) 0.35448(16)
C8_7 C 0.1742(3) 0.4401(5) 0.35120(16)
C9_7 C 0.3000(3) 0.4242(5) 0.37193(17)
C10_7 C 0.3451(3) 0.4356(5) 0.35903(16)
H5_7 H 0.3479 0.4540 0.3391
C11_7 C 0.3853(3) 0.4197(6) 0.37568(17)
H6_7 H 0.4159 0.4281 0.3668
C12_7 C 0.3404(3) 0.3828(6) 0.41603(18)
H7_7 H 0.3387 0.3638 0.4359
C13_7 C 0.2980(3) 0.3986(5) 0.40122(17)
H8_7 H 0.2680 0.3921 0.4109
C14_7 C 0.1273(3) 0.4293(5) 0.36494(17)
C15_7 C 0.1233(3) 0.4133(6) 0.39468(18)
H9_7 H 0.1512 0.4121 0.4066
C16_7 C 0.0781(3) 0.3990(6) 0.4067(2)
H10_7 H 0.0758 0.3893 0.4272
C17_7 C 0.0414(3) 0.4154(7) 0.3622(2)
H11_7 H 0.0130 0.4164 0.3508
C18_7 C 0.0850(3) 0.4317(6) 0.3486(2)
H12_7 H 0.0862 0.4444 0.3282
C19_7 C 0.1882(3) 0.6214(6) 0.13334(19)
H13_7 H 0.1886 0.6906 0.1334
C20_7 C 0.1660(4) 0.5732(6) 0.11024(19)
H14_7 H 0.1522 0.6089 0.0946
C21_7 C 0.1642(3) 0.4725(6) 0.11050(18)
C22_7 C 0.1847(4) 0.4227(6) 0.1335(2)
H15_7 H 0.1836 0.3536 0.1344
C23_7 C 0.2071(4) 0.4762(6) 0.1551(2)
H16_7 H 0.2219 0.4418 0.1707
C24_7 C 0.1406(3) 0.4205(6) 0.08614(17)
C25_7 C 0.1059(3) 0.4219(6) 0.04181(17)
C26_7 C 0.1068(3) 0.2834(6) 0.06822(18)
C27_7 C 0.0908(3) 0.4756(6) 0.01508(17)
C28_7 C 0.1013(4) 0.5743(6) 0.01234(19)
H17_7 H 0.1176 0.6085 0.0274
C30_7 C 0.0911(3) 0.1801(6) 0.0729(2)
C31_7 C 0.0723(3) 0.1269(7) 0.0499(2)
H19_7 H 0.0709 0.1541 0.0309
C32_7 C 0.0936(4) 0.1386(7) 0.1000(2)
H20_7 H 0.1068 0.1737 0.1160
C35_7 C 0.0556(3) 0.0332(7) 0.0551(2)
C36_7 C 0.0764(4) 0.0447(7) 0.1038(2)
H24_7 H 0.0782 0.0160 0.1226
I1_7 I 0.33544(2) 0.66050(5) 0.175201(15)
I2_7 I 0.19735(3) 0.80904(4) 0.193339(14)
I3_6 I 0.51406(2) 0.44920(5) 0.398935(14)
I4_7 I 0.44213(3) 0.17225(5) 0.433247(18)
N1_7 N 0.2366(3) 0.5712(5) 0.22402(14)
N2_7 N 0.2613(2) 0.4606(4) 0.32647(13)
N3_7 N 0.2134(2) 0.4275(4) 0.36810(14)
N4_7 N 0.1760(2) 0.4643(4) 0.32247(13)
N5_7 N 0.3840(2) 0.3930(4) 0.40373(14)
N6_7 N 0.0375(2) 0.3983(5) 0.39087(17)
N7_7 N 0.2090(3) 0.5734(5) 0.15545(15)
N8_7 N 0.1292(2) 0.4719(5) 0.06221(14)
N9_7 N 0.0938(3) 0.3277(5) 0.04316(15)
N10_7 N 0.1309(2) 0.3250(5) 0.09026(14)
Zn1_7 Zn 0.24554(4) 0.65171(7) 0.18651(2)
C29_7 C 0.0648(4) 0.4310(7) 0.9932(2)
H18_7 H 0.0557 0.3646 0.9950
C33_7 C 0.0523(3) 0.4825(6) 0.96902(19)
H21_7 H 0.0348 0.4501 0.9541
C34_7 C 0.0872(4) 0.6210(6) 0.98696(18)
H22_7 H 0.0947 0.6881 0.9848
C34_8 C 0.5872(4) 0.8790(6) 0.01304(18)
H22_8 H 0.5947 0.8119 0.0152
N11_4 N 0.5636(3) 0.9234(5) 0.03478(15)
Zn4_4 Zn 0.55250(4) 0.85568(7) 0.07474(2)
H2_8 H 0.7010 0.9923 0.2208
C6_8 C 0.7801(3) 0.9730(5) 0.18855(16)
C7_8 C 0.7439(3) 0.9388(5) 0.14552(16)
C8_8 C 0.8258(3) 0.9401(5) 0.14880(16)
C9_8 C 0.7000(3) 0.9242(5) 0.12807(17)
C10_8 C 0.6549(3) 0.9356(5) 0.14097(16)
H5_8 H 0.6521 0.9540 0.1609
C11_8 C 0.6147(3) 0.9197(6) 0.12432(17)
H6_8 H 0.5841 0.9281 0.1332
C12_8 C 0.6596(3) 0.8828(6) 0.08397(18)
H7_8 H 0.6613 0.8638 0.0641
C13_8 C 0.7020(3) 0.8986(5) 0.09878(17)
H8_8 H 0.7320 0.8921 0.0891
C14_8 C 0.8727(3) 0.9293(5) 0.13506(17)
C15_8 C 0.8767(3) 0.9133(6) 0.10532(18)
H9_8 H 0.8488 0.9121 0.0934
C16_8 C 0.9219(3) 0.8990(6) 0.0933(2)
H10_8 H 0.9242 0.8893 0.0728
C17_8 C 0.9586(3) 0.9154(7) 0.1378(2)
H11_8 H 0.9870 0.9164 0.1492
C18_8 C 0.9150(3) 0.9317(6) 0.1514(2)
H12_8 H 0.9138 0.9444 0.1718
C21_8 C 0.8358(3) 0.9725(6) 0.38950(18)
C22_8 C 0.8153(4) 0.9227(6) 0.3665(2)
H15_8 H 0.8164 0.8536 0.3656
C23_8 C 0.7929(4) 0.9762(6) 0.3449(2)
H16_8 H 0.7781 0.9418 0.3293
C24_8 C 0.8594(3) 0.9205(6) 0.41386(17)
C25_8 C 0.8941(3) 0.9219(6) 0.45819(17)
C26_8 C 0.8932(3) 0.7834(6) 0.43178(18)
C27_8 C 0.9092(3) 0.9756(6) 0.48492(17)
C29_8 C 0.9352(4) 0.9310(7) 0.5068(2)
H18_8 H 0.9443 0.8646 0.5050
C30_8 C 0.9089(3) 0.6801(6) 0.4271(2)
C31_8 C 0.9277(3) 0.6269(7) 0.4501(2)
H19_8 H 0.9291 0.6541 0.4691
C32_8 C 0.9064(4) 0.6386(7) 0.4000(2)
H20_8 H 0.8932 0.6737 0.3840
C33_8 C 0.9477(3) 0.9825(6) 0.53098(19)
H21_8 H 0.9652 0.9501 0.5459
C35_8 C 0.9444(3) 0.5332(7) 0.4449(2)
H23_7 H 0.9574 0.4965 0.4606
C36_8 C 0.9236(4) 0.5447(7) 0.3962(2)
H24_8 H 0.9218 0.5160 0.3774
I3_7 I 0.48594(2) 0.94920(5) 0.101065(14)
I4_8 I 0.55787(3) 0.67225(5) 0.066753(18)
N2_8 N 0.7387(2) 0.9606(4) 0.17353(13)
N3_8 N 0.7866(2) 0.9275(4) 0.13190(14)
N4_8 N 0.8240(2) 0.9643(4) 0.17753(13)
N5_8 N 0.6160(2) 0.8930(4) 0.09627(14)
N6_8 N 0.9625(2) 0.8983(5) 0.10913(17)
N8_8 N 0.8708(2) 0.9719(5) 0.43779(14)
N9_8 N 0.9062(3) 0.8277(5) 0.45684(15)
N10_8 N 0.8691(2) 0.8250(5) 0.40974(14)
N12_4 N 0.9425(3) 0.4931(5) 0.41817(17)
Zn5_4 Zn 0.97252(4) 0.35846(7) 0.40961(3)
I5_7 I 0.92602(3) 0.27541(6) 0.36858(3)
I6_7 I 0.98921(3) 0.27734(5) 0.45868(2)
C1_8 C 0.7749(3) 0.9554(6) 0.76005(17)
H1_8 H 0.8060 0.9503 0.7685
C2_8 C 0.7711(3) 0.9902(5) 0.73168(16)
C3_8 C 0.7259(3) 0.9986(5) 0.71975(16)
C4_8 C 0.6856(3) 0.9760(6) 0.73661(18)
H3_8 H 0.6540 0.9845 0.7291
C5_8 C 0.6926(3) 0.9410(6) 0.76447(18)
H4_8 H 0.6652 0.9249 0.7759
C19_8 C 0.6882(3) 0.8786(6) 0.86666(19)
H13_8 H 0.6886 0.8094 0.8666
C20_8 C 0.6660(4) 0.9268(6) 0.88976(19)
H14_8 H 0.6522 0.8911 0.9054
C28_8 C 0.6013(4) 0.9257(6) 0.98766(19)
H17_8 H 0.6176 0.8915 0.9726
I1_8 I 0.83544(2) 0.83950(5) 0.824799(15)
I2_8 I 0.69735(3) 0.69096(4) 0.806661(14)
N1_8 N 0.7366(3) 0.9288(5) 0.77598(14)
N7_8 N 0.7090(3) 0.9266(5) 0.84455(15)
Zn1_8 Zn 0.74554(4) 0.84829(7) 0.81349(2)
I5_8 I 0.07398(3) 0.77541(6) 0.13142(3)
I6_8 I 0.01079(3) 0.77734(5) 0.04132(2)
Zn3_4 Zn 0.02748(4) 0.85846(7) 0.09039(3)
N14_4 N 0.0575(3) 0.9931(5) 0.08183(17)
H23_8 H 0.0426 0.9965 0.0394
I3_8 I 0.98594(2) 0.55080(5) 0.898935(14)
loop_
_geom_bond_atom_site_label_1
_geom_bond_atom_site_label_2
_geom_bond_site_symmetry_1
_geom_bond_site_symmetry_2
C1 H1 1_555 1_555
C2 C1 1_555 1_555
C3 C2 1_555 1_555
C4 C3 1_555 1_555
H3 C4 1_555 1_555
C5 C4 1_555 1_555
H4 C5 1_555 1_555
C19 H13 1_555 1_555
C20 C19 1_555 1_555
H14 C20 1_555 1_555
C28 H17 1_555 1_555
I1 Zn1 1_555 1_555
I2 Zn1 1_555 1_555
N1 C1 1_555 1_555
N7 C19 1_555 1_555
Zn1 N1 1_555 1_555
C5 N1 1_555 1_555
N7 Zn1 1_555 1_555
H22 C34 1_555 1_555
Zn4 N11 1_555 1_555
C34 N11 1_555 1_555
C7 C9 1_555 1_555
C8 C14 1_555 1_555
C9 C10 1_555 1_555
C10 H5 1_555 1_555
C11 C10 1_555 1_555
H6 C11 1_555 1_555
C12 H7 1_555 1_555
C13 C9 1_555 1_555
H8 C13 1_555 1_555
C14 C15 1_555 1_555
C15 H9 1_555 1_555
C16 C15 1_555 1_555
H10 C16 1_555 1_555
C17 H11 1_555 1_555
C18 C14 1_555 1_555
H12 C18 1_555 1_555
C22 C21 1_555 1_555
H15 C22 1_555 1_555
C23 C22 1_555 1_555
H16 C23 1_555 1_555
C24 C21 1_555 1_555
C25 C27 1_555 1_555
C26 C30 1_555 1_555
C29 C27 1_555 1_555
H18 C29 1_555 1_555
C30 C31 1_555 1_555
C31 H19 1_555 1_555
C32 C30 1_555 1_555
H20 C32 1_555 1_555
C33 C29 1_555 1_555
H21 C33 1_555 1_555
C35 C31 1_555 1_555
H23 C35 1_555 1_555
C36 C32 1_555 1_555
H24 C36 1_555 1_555
I3 Zn4 1_555 1_555
I4 Zn4 1_555 1_555
N2 C6 1_555 1_555
N3 C7 1_555 1_555
N4 C6 1_555 1_555
N5 C11 1_555 1_555
N6 C16 1_555 1_555
N8 C24 1_555 1_555
N9 C25 1_555 1_555
N10 C24 1_555 1_555
N12 C35 1_555 1_555
Zn4 N5 1_555 1_555
Zn5 N12 1_555 1_555
C7 N2 1_555 1_555
C8 N3 1_555 1_555
C8 N4 1_555 1_555
C12 C13 1_555 1_555
C12 N5 1_555 1_555
C17 C18 1_555 1_555
C17 N6 1_555 1_555
C25 N8 1_555 1_555
C26 N9 1_555 1_555
C26 N10 1_555 1_555
C36 N12 1_555 1_555
I5 Zn5 1_555 1_555
I6 Zn5 1_555 1_555
C7_2 C9_2 1_555 1_555
C8_2 C14_2 1_555 1_555
C9_2 C10_2 1_555 1_555
C10_2 H5_2 1_555 1_555
C11_2 C10_2 1_555 1_555
H6_2 C11_2 1_555 1_555
C12_2 H7_2 1_555 1_555
C13_2 C9_2 1_555 1_555
H8_2 C13_2 1_555 1_555
C14_2 C15_2 1_555 1_555
C15_2 H9_2 1_555 1_555
C16_2 C15_2 1_555 1_555
H10_2 C16_2 1_555 1_555
C17_2 H11_2 1_555 1_555
C18_2 C14_2 1_555 1_555
H12_2 C18_2 1_555 1_555
C22_2 C21_2 1_555 1_555
H15_2 C22_2 1_555 1_555
C23_2 C22_2 1_555 1_555
H16_2 C23_2 1_555 1_555
C24_2 C21_2 1_555 1_555
C25_2 C27_2 1_555 1_555
C26_2 C30_2 1_555 1_555
C30_2 C31_2 1_555 1_555
C31_2 H19_2 1_555 1_555
C32_2 C30_2 1_555 1_555
H20_2 C32_2 1_555 1_555
C35_2 C31_2 1_555 1_555
H23_2 C35_2 1_555 1_555
C36_2 C32_2 1_555 1_555
H24_2 C36_2 1_555 1_555
I4_2 Zn2 1_555 1_555
I5_2 Zn3 1_555 1_555
I6_2 Zn3 1_555 1_555
N2_2 C6_2 1_555 1_555
N3_2 C7_2 1_555 1_555
N4_2 C6_2 1_555 1_555
N5_2 C11_2 1_555 1_555
N6_2 C16_2 1_555 1_555
N8_2 C24_2 1_555 1_555
N9_2 C25_2 1_555 1_555
N10_2 C24_2 1_555 1_555
N12_2 C35_2 1_555 1_555
Zn2 N5_2 1_555 1_555
Zn3 N6_2 1_555 1_555
N13 Zn2 1_555 1_555
N14 Zn3 1_555 1_555
Zn5_2 N12_2 1_555 1_555
C7_2 N2_2 1_555 1_555
C8_2 N3_2 1_555 1_555
C8_2 N4_2 1_555 1_555
C12_2 C13_2 1_555 1_555
C12_2 N5_2 1_555 1_555
C17_2 C18_2 1_555 1_555
C17_2 N6_2 1_555 1_555
C25_2 N8_2 1_555 1_555
C26_2 N9_2 1_555 1_555
C26_2 N10_2 1_555 1_555
C36_2 N12_2 1_555 1_555
C1_2 H1_2 1_555 1_555
C2_2 C1_2 1_555 1_555
C3_2 C2_2 1_555 1_555
C4_2 C3_2 1_555 1_555
H3_2 C4_2 1_555 1_555
C5_2 C4_2 1_555 1_555
H4_2 C5_2 1_555 1_555
C19_2 H13_2 1_555 1_555
C20_2 C19_2 1_555 1_555
H14_2 C20_2 1_555 1_555
C28_2 H17_2 1_555 1_555
C34_2 C28_2 1_555 1_555
H22_2 C34_2 1_555 1_555
I1_2 Zn1_2 1_555 1_555
I2_2 Zn1_2 1_555 1_555
N1_2 C1_2 1_555 1_555
N7_2 C19_2 1_555 1_555
Zn1_2 N1_2 1_555 1_555
C5_2 N1_2 1_555 1_555
C34_2 N13 1_555 1_555
N7_2 Zn1_2 1_555 1_555
C1_3 H1_3 1_555 1_555
C2_3 C1_3 1_555 1_555
H2_3 C2_3 1_555 1_555
C3_3 C2_3 1_555 1_555
C4_3 C3_3 1_555 1_555
H3_3 C4_3 1_555 1_555
C5_3 C4_3 1_555 1_555
H4_3 C5_3 1_555 1_555
C6_3 C3_3 1_555 1_555
C7_3 C9_3 1_555 1_555
C8_3 C14_3 1_555 1_555
C9_3 C10_3 1_555 1_555
C10_3 H5_3 1_555 1_555
C11_3 C10_3 1_555 1_555
H6_3 C11_3 1_555 1_555
C12_3 H7_3 1_555 1_555
C13_3 C9_3 1_555 1_555
H8_3 C13_3 1_555 1_555
C14_3 C15_3 1_555 1_555
C15_3 H9_3 1_555 1_555
C16_3 C15_3 1_555 1_555
H10_3 C16_3 1_555 1_555
C17_3 H11_3 1_555 1_555
C18_3 C14_3 1_555 1_555
H12_3 C18_3 1_555 1_555
C19_3 H13_3 1_555 1_555
C20_3 C19_3 1_555 1_555
H14_3 C20_3 1_555 1_555
C21_3 C20_3 1_555 1_555
C22_3 C21_3 1_555 1_555
H15_3 C22_3 1_555 1_555
C23_3 C22_3 1_555 1_555
H16_3 C23_3 1_555 1_555
C24_3 C21_3 1_555 1_555
C25_3 C27_3 1_555 1_555
C26_3 C30_3 1_555 1_555
C27_3 C28_3 1_555 1_555
C28_3 H17_3 1_555 1_555
C29_2 C27_3 1_555 1_555
H18_2 C29_2 1_555 1_555
C30_3 C31_3 1_555 1_555
C31_3 H19_3 1_555 1_555
C32_3 C30_3 1_555 1_555
H20_3 C32_3 1_555 1_555
C33_2 C29_2 1_555 1_555
H21_2 C33_2 1_555 1_555
C34_3 C28_3 1_555 1_555
H22_3 C34_3 1_555 1_555
C35_3 C31_3 1_555 1_555
C36_3 C32_3 1_555 1_555
H24_3 C36_3 1_555 1_555
I1_3 Zn1_3 1_555 1_555
I2_3 Zn1_3 1_555 1_555
I4_3 Zn2_2 1_555 1_555
I5_3 Zn5_2 1_555 1_555
I6_3 Zn5_2 1_555 1_555
N1_3 C1_3 1_555 1_555
N2_3 C6_3 1_555 1_555
N3_3 C7_3 1_555 1_555
N4_3 C6_3 1_555 1_555
N5_3 C11_3 1_555 1_555
N6_3 C16_3 1_555 1_555
N7_3 C19_3 1_555 1_555
N8_3 C24_3 1_555 1_555
N9_3 C25_3 1_555 1_555
N10_3 C24_3 1_555 1_555
N11_2 C33_2 1_555 1_555
Zn1_3 N1_3 1_555 1_555
Zn2_2 N5_3 1_555 1_555
Zn5_2 N6_3 1_555 1_555
N13_2 Zn2_2 1_555 1_555
Zn4_2 N11_2 1_555 1_555
C5_3 N1_3 1_555 1_555
C7_3 N2_3 1_555 1_555
C8_3 N3_3 1_555 1_555
C8_3 N4_3 1_555 1_555
C12_3 C13_3 1_555 1_555
C12_3 N5_3 1_555 1_555
C17_3 C18_3 1_555 1_555
C17_3 N6_3 1_555 1_555
C23_3 N7_3 1_555 1_555
C25_3 N8_3 1_555 1_555
C26_3 N9_3 1_555 1_555
C26_3 N10_3 1_555 1_555
C34_3 N11_2 1_555 1_555
N7_3 Zn1_3 1_555 1_555
H18_3 C29_3 1_555 1_555
C33_3 C29_3 1_555 1_555
H21_3 C33_3 1_555 1_555
H22_4 C34_4 1_555 1_555
N13_2 C33_3 1_555 1_555
C34_4 N13_2 1_555 1_555
C1_4 H1_4 1_555 1_555
C2_4 C1_4 1_555 1_555
H2_4 C2_4 1_555 1_555
C3_4 C2_4 1_555 1_555
C4_4 C3_4 1_555 1_555
H3_4 C4_4 1_555 1_555
C5_4 C4_4 1_555 1_555
H4_4 C5_4 1_555 1_555
C6_4 C3_4 1_555 1_555
C7_4 C9_4 1_555 1_555
C8_4 C14_4 1_555 1_555
C9_4 C10_4 1_555 1_555
C10_4 H5_4 1_555 1_555
C11_4 C10_4 1_555 1_555
H6_4 C11_4 1_555 1_555
C12_4 H7_4 1_555 1_555
C13_4 C9_4 1_555 1_555
H8_4 C13_4 1_555 1_555
C14_4 C15_4 1_555 1_555
C15_4 H9_4 1_555 1_555
C16_4 C15_4 1_555 1_555
H10_4 C16_4 1_555 1_555
C17_4 H11_4 1_555 1_555
C18_4 C14_4 1_555 1_555
H12_4 C18_4 1_555 1_555
C19_4 H13_4 1_555 1_555
C20_4 C19_4 1_555 1_555
H14_4 C20_4 1_555 1_555
C21_4 C20_4 1_555 1_555
C22_4 C21_4 1_555 1_555
H15_4 C22_4 1_555 1_555
C23_4 C22_4 1_555 1_555
H16_4 C23_4 1_555 1_555
C24_4 C21_4 1_555 1_555
C25_4 C27_4 1_555 1_555
C26_4 C30_4 1_555 1_555
C27_4 C28_4 1_555 1_555
C28_4 H17_4 1_555 1_555
C30_4 C31_4 1_555 1_555
C31_4 H19_4 1_555 1_555
C32_4 C30_4 1_555 1_555
H20_4 C32_4 1_555 1_555
C35_4 C31_4 1_555 1_555
C36_4 C32_4 1_555 1_555
H24_4 C36_4 1_555 1_555
I1_4 Zn1_4 1_555 1_555
I2_4 Zn1_4 1_555 1_555
I3_2 Zn4_2 1_555 1_555
I4_4 Zn4_2 1_555 1_555
N1_4 C1_4 1_555 1_555
N2_4 C6_4 1_555 1_555
N3_4 C7_4 1_555 1_555
N4_4 C6_4 1_555 1_555
N5_4 C11_4 1_555 1_555
N6_4 C16_4 1_555 1_555
N7_4 C19_4 1_555 1_555
N8_4 C24_4 1_555 1_555
N9_4 C25_4 1_555 1_555
N10_4 C24_4 1_555 1_555
Zn1_4 N1_4 1_555 1_555
Zn4_2 N5_4 1_555 1_555
C5_4 N1_4 1_555 1_555
C7_4 N2_4 1_555 1_555
C8_4 N3_4 1_555 1_555
C8_4 N4_4 1_555 1_555
C12_4 C13_4 1_555 1_555
C12_4 N5_4 1_555 1_555
C17_4 C18_4 1_555 1_555
C17_4 N6_4 1_555 1_555
C23_4 N7_4 1_555 1_555
C25_4 N8_4 1_555 1_555
C26_4 N9_4 1_555 1_555
C26_4 N10_4 1_555 1_555
N7_4 Zn1_4 1_555 1_555
H18_4 C29_4 1_555 1_555
C33_4 C29_4 1_555 1_555
H21_4 C33_4 1_555 1_555
I5_4 Zn3_2 1_555 1_555
I6_4 Zn3_2 1_555 1_555
N14_2 Zn3_2 1_555 1_555
H18_5 C29_5 1_555 1_555
C33_5 C29_5 1_555 1_555
H21_5 C33_5 1_555 1_555
C7_5 C9_5 1_555 1_555
C8_5 C14_5 1_555 1_555
C9_5 C10_5 1_555 1_555
C10_5 H5_5 1_555 1_555
C11_5 C10_5 1_555 1_555
H6_5 C11_5 1_555 1_555
C12_5 H7_5 1_555 1_555
C13_5 C9_5 1_555 1_555
H8_5 C13_5 1_555 1_555
C14_5 C15_5 1_555 1_555
C15_5 H9_5 1_555 1_555
C16_5 C15_5 1_555 1_555
H10_5 C16_5 1_555 1_555
C17_5 H11_5 1_555 1_555
C18_5 C14_5 1_555 1_555
H12_5 C18_5 1_555 1_555
C22_5 C21_5 1_555 1_555
H15_5 C22_5 1_555 1_555
C23_5 C22_5 1_555 1_555
H16_5 C23_5 1_555 1_555
C24_5 C21_5 1_555 1_555
C25_5 C27_5 1_555 1_555
C26_5 C30_5 1_555 1_555
C30_5 C31_5 1_555 1_555
C31_5 H19_5 1_555 1_555
C32_5 C30_5 1_555 1_555
H20_5 C32_5 1_555 1_555
C35_5 C31_5 1_555 1_555
H23_5 C35_5 1_555 1_555
C36_5 C32_5 1_555 1_555
H24_5 C36_5 1_555 1_555
I4_5 Zn2_3 1_555 1_555
I5_5 Zn3_3 1_555 1_555
I6_5 Zn3_3 1_555 1_555
N2_5 C6_5 1_555 1_555
N3_5 C7_5 1_555 1_555
N4_5 C6_5 1_555 1_555
N5_5 C11_5 1_555 1_555
N6_5 C16_5 1_555 1_555
N8_5 C24_5 1_555 1_555
N9_5 C25_5 1_555 1_555
N10_5 C24_5 1_555 1_555
N12_3 C35_5 1_555 1_555
Zn2_3 N5_5 1_555 1_555
Zn3_3 N6_5 1_555 1_555
N13_3 Zn2_3 1_555 1_555
N14_3 Zn3_3 1_555 1_555
Zn5_3 N12_3 1_555 1_555
C7_5 N2_5 1_555 1_555
C8_5 N3_5 1_555 1_555
C8_5 N4_5 1_555 1_555
C12_5 C13_5 1_555 1_555
C12_5 N5_5 1_555 1_555
C17_5 C18_5 1_555 1_555
C17_5 N6_5 1_555 1_555
C25_5 N8_5 1_555 1_555
C26_5 N9_5 1_555 1_555
C26_5 N10_5 1_555 1_555
C36_5 N12_3 1_555 1_555
C1_5 H1_5 1_555 1_555
C2_5 C1_5 1_555 1_555
C3_5 C2_5 1_555 1_555
C4_5 C3_5 1_555 1_555
H3_5 C4_5 1_555 1_555
C5_5 C4_5 1_555 1_555
H4_5 C5_5 1_555 1_555
C19_5 H13_5 1_555 1_555
C20_5 C19_5 1_555 1_555
H14_5 C20_5 1_555 1_555
C28_5 H17_5 1_555 1_555
C34_5 C28_5 1_555 1_555
H22_5 C34_5 1_555 1_555
I1_5 Zn1_5 1_555 1_555
I2_5 Zn1_5 1_555 1_555
N1_5 C1_5 1_555 1_555
N7_5 C19_5 1_555 1_555
Zn1_5 N1_5 1_555 1_555
C5_5 N1_5 1_555 1_555
C34_5 N13_3 1_555 1_555
N7_5 Zn1_5 1_555 1_555
C1_6 H1_6 1_555 1_555
C2_6 C1_6 1_555 1_555
H2_6 C2_6 1_555 1_555
C3_6 C2_6 1_555 1_555
C4_6 C3_6 1_555 1_555
H3_6 C4_6 1_555 1_555
C5_6 C4_6 1_555 1_555
H4_6 C5_6 1_555 1_555
C6_6 C3_6 1_555 1_555
C7_6 C9_6 1_555 1_555
C8_6 C14_6 1_555 1_555
C9_6 C10_6 1_555 1_555
C10_6 H5_6 1_555 1_555
C11_6 C10_6 1_555 1_555
H6_6 C11_6 1_555 1_555
C12_6 H7_6 1_555 1_555
C13_6 C9_6 1_555 1_555
H8_6 C13_6 1_555 1_555
C14_6 C15_6 1_555 1_555
C15_6 H9_6 1_555 1_555
C16_6 C15_6 1_555 1_555
H10_6 C16_6 1_555 1_555
C17_6 H11_6 1_555 1_555
C18_6 C14_6 1_555 1_555
H12_6 C18_6 1_555 1_555
C19_6 H13_6 1_555 1_555
C20_6 C19_6 1_555 1_555
H14_6 C20_6 1_555 1_555
C21_6 C20_6 1_555 1_555
C22_6 C21_6 1_555 1_555
H15_6 C22_6 1_555 1_555
C23_6 C22_6 1_555 1_555
H16_6 C23_6 1_555 1_555
C24_6 C21_6 1_555 1_555
C25_6 C27_6 1_555 1_555
C26_6 C30_6 1_555 1_555
C27_6 C28_6 1_555 1_555
C28_6 H17_6 1_555 1_555
C29_6 C27_6 1_555 1_555
H18_6 C29_6 1_555 1_555
C30_6 C31_6 1_555 1_555
C31_6 H19_6 1_555 1_555
C32_6 C30_6 1_555 1_555
H20_6 C32_6 1_555 1_555
C33_6 C29_6 1_555 1_555
H21_6 C33_6 1_555 1_555
C34_6 C28_6 1_555 1_555
H22_6 C34_6 1_555 1_555
C35_6 C31_6 1_555 1_555
C36_6 C32_6 1_555 1_555
H24_6 C36_6 1_555 1_555
I1_6 Zn1_6 1_555 1_555
I2_6 Zn1_6 1_555 1_555
I4_6 Zn2_4 1_555 1_555
I5_6 Zn5_3 1_555 1_555
I6_6 Zn5_3 1_555 1_555
N1_6 C1_6 1_555 1_555
N2_6 C6_6 1_555 1_555
N3_6 C7_6 1_555 1_555
N4_6 C6_6 1_555 1_555
N5_6 C11_6 1_555 1_555
N6_6 C16_6 1_555 1_555
N7_6 C19_6 1_555 1_555
N8_6 C24_6 1_555 1_555
N9_6 C25_6 1_555 1_555
N10_6 C24_6 1_555 1_555
N11_3 C33_6 1_555 1_555
Zn1_6 N1_6 1_555 1_555
Zn2_4 N5_6 1_555 1_555
Zn5_3 N6_6 1_555 1_555
N13_4 Zn2_4 1_555 1_555
Zn4_3 N11_3 1_555 1_555
C5_6 N1_6 1_555 1_555
C7_6 N2_6 1_555 1_555
C8_6 N3_6 1_555 1_555
C8_6 N4_6 1_555 1_555
C12_6 C13_6 1_555 1_555
C12_6 N5_6 1_555 1_555
C17_6 C18_6 1_555 1_555
C17_6 N6_6 1_555 1_555
C23_6 N7_6 1_555 1_555
C25_6 N8_6 1_555 1_555
C26_6 N9_6 1_555 1_555
C26_6 N10_6 1_555 1_555
C34_6 N11_3 1_555 1_555
N7_6 Zn1_6 1_555 1_555
C1_7 H1_7 1_555 1_555
C2_7 C1_7 1_555 1_555
H2_7 C2_7 1_555 1_555
C3_7 C2_7 1_555 1_555
C4_7 C3_7 1_555 1_555
H3_7 C4_7 1_555 1_555
C5_7 C4_7 1_555 1_555
H4_7 C5_7 1_555 1_555
C6_7 C3_7 1_555 1_555
C7_7 C9_7 1_555 1_555
C8_7 C14_7 1_555 1_555
C9_7 C10_7 1_555 1_555
C10_7 H5_7 1_555 1_555
C11_7 C10_7 1_555 1_555
H6_7 C11_7 1_555 1_555
C12_7 H7_7 1_555 1_555
C13_7 C9_7 1_555 1_555
H8_7 C13_7 1_555 1_555
C14_7 C15_7 1_555 1_555
C15_7 H9_7 1_555 1_555
C16_7 C15_7 1_555 1_555
H10_7 C16_7 1_555 1_555
C17_7 H11_7 1_555 1_555
C18_7 C14_7 1_555 1_555
H12_7 C18_7 1_555 1_555
C19_7 H13_7 1_555 1_555
C20_7 C19_7 1_555 1_555
H14_7 C20_7 1_555 1_555
C21_7 C20_7 1_555 1_555
C22_7 C21_7 1_555 1_555
H15_7 C22_7 1_555 1_555
C23_7 C22_7 1_555 1_555
H16_7 C23_7 1_555 1_555
C24_7 C21_7 1_555 1_555
C25_7 C27_7 1_555 1_555
C26_7 C30_7 1_555 1_555
C27_7 C28_7 1_555 1_555
C28_7 H17_7 1_555 1_555
C30_7 C31_7 1_555 1_555
C31_7 H19_7 1_555 1_555
C32_7 C30_7 1_555 1_555
H20_7 C32_7 1_555 1_555
C35_7 C31_7 1_555 1_555
C36_7 C32_7 1_555 1_555
H24_7 C36_7 1_555 1_555
I1_7 Zn1_7 1_555 1_555
I2_7 Zn1_7 1_555 1_555
I3_6 Zn4_3 1_555 1_555
I4_7 Zn4_3 1_555 1_555
N1_7 C1_7 1_555 1_555
N2_7 C6_7 1_555 1_555
N3_7 C7_7 1_555 1_555
N4_7 C6_7 1_555 1_555
N5_7 C11_7 1_555 1_555
N6_7 C16_7 1_555 1_555
N7_7 C19_7 1_555 1_555
N8_7 C24_7 1_555 1_555
N9_7 C25_7 1_555 1_555
N10_7 C24_7 1_555 1_555
Zn1_7 N1_7 1_555 1_555
Zn4_3 N5_7 1_555 1_555
C5_7 N1_7 1_555 1_555
C7_7 N2_7 1_555 1_555
C8_7 N3_7 1_555 1_555
C8_7 N4_7 1_555 1_555
C12_7 C13_7 1_555 1_555
C12_7 N5_7 1_555 1_555
C17_7 C18_7 1_555 1_555
C17_7 N6_7 1_555 1_555
C23_7 N7_7 1_555 1_555
C25_7 N8_7 1_555 1_555
C26_7 N9_7 1_555 1_555
C26_7 N10_7 1_555 1_555
N7_7 Zn1_7 1_555 1_555
H18_7 C29_7 1_555 1_555
C33_7 C29_7 1_555 1_555
H21_7 C33_7 1_555 1_555
H22_7 C34_7 1_555 1_555
N13_4 C33_7 1_555 1_555
C34_7 N13_4 1_555 1_555
H22_8 C34_8 1_555 1_555
Zn4_4 N11_4 1_555 1_555
C34_8 N11_4 1_555 1_555
C7_8 C9_8 1_555 1_555
C8_8 C14_8 1_555 1_555
C9_8 C10_8 1_555 1_555
C10_8 H5_8 1_555 1_555
C11_8 C10_8 1_555 1_555
H6_8 C11_8 1_555 1_555
C12_8 H7_8 1_555 1_555
C13_8 C9_8 1_555 1_555
H8_8 C13_8 1_555 1_555
C14_8 C15_8 1_555 1_555
C15_8 H9_8 1_555 1_555
C16_8 C15_8 1_555 1_555
H10_8 C16_8 1_555 1_555
C17_8 H11_8 1_555 1_555
C18_8 C14_8 1_555 1_555
H12_8 C18_8 1_555 1_555
C22_8 C21_8 1_555 1_555
H15_8 C22_8 1_555 1_555
C23_8 C22_8 1_555 1_555
H16_8 C23_8 1_555 1_555
C24_8 C21_8 1_555 1_555
C25_8 C27_8 1_555 1_555
C26_8 C30_8 1_555 1_555
C29_8 C27_8 1_555 1_555
H18_8 C29_8 1_555 1_555
C30_8 C31_8 1_555 1_555
C31_8 H19_8 1_555 1_555
C32_8 C30_8 1_555 1_555
H20_8 C32_8 1_555 1_555
C33_8 C29_8 1_555 1_555
H21_8 C33_8 1_555 1_555
C35_8 C31_8 1_555 1_555
H23_7 C35_8 1_555 1_555
C36_8 C32_8 1_555 1_555
H24_8 C36_8 1_555 1_555
I3_7 Zn4_4 1_555 1_555
I4_8 Zn4_4 1_555 1_555
N2_8 C6_8 1_555 1_555
N3_8 C7_8 1_555 1_555
N4_8 C6_8 1_555 1_555
N5_8 C11_8 1_555 1_555
N6_8 C16_8 1_555 1_555
N8_8 C24_8 1_555 1_555
N9_8 C25_8 1_555 1_555
N10_8 C24_8 1_555 1_555
N12_4 C35_8 1_555 1_555
Zn4_4 N5_8 1_555 1_555
Zn5_4 N12_4 1_555 1_555
C7_8 N2_8 1_555 1_555
C8_8 N3_8 1_555 1_555
C8_8 N4_8 1_555 1_555
C12_8 C13_8 1_555 1_555
C12_8 N5_8 1_555 1_555
C17_8 C18_8 1_555 1_555
C17_8 N6_8 1_555 1_555
C25_8 N8_8 1_555 1_555
C26_8 N9_8 1_555 1_555
C26_8 N10_8 1_555 1_555
C36_8 N12_4 1_555 1_555
I5_7 Zn5_4 1_555 1_555
I6_7 Zn5_4 1_555 1_555
C1_8 H1_8 1_555 1_555
C2_8 C1_8 1_555 1_555
C3_8 C2_8 1_555 1_555
C4_8 C3_8 1_555 1_555
H3_8 C4_8 1_555 1_555
C5_8 C4_8 1_555 1_555
H4_8 C5_8 1_555 1_555
C19_8 H13_8 1_555 1_555
C20_8 C19_8 1_555 1_555
H14_8 C20_8 1_555 1_555
C28_8 H17_8 1_555 1_555
I1_8 Zn1_8 1_555 1_555
I2_8 Zn1_8 1_555 1_555
N1_8 C1_8 1_555 1_555
N7_8 C19_8 1_555 1_555
Zn1_8 N1_8 1_555 1_555
C5_8 N1_8 1_555 1_555
N7_8 Zn1_8 1_555 1_555
I5_8 Zn3_4 1_555 1_555
I6_8 Zn3_4 1_555 1_555
N14_4 Zn3_4 1_555 1_555

#END
