
###############################################################################
#
# This file contains modified crystal structure data generated from the
# MOF subset of the Cambridge Structural Database (CSD) v543 
# hosted by the Cambridge Crystallographic Data Centre (CCDC).
#
# This work is licensed under the Creative Commons
# Attribution-NonCommercial-ShareAlike 4.0 International License.
# To view a copy of this license, visit
# http://creativecommons.org/licenses/by-nc-sa/4.0/
# or send a letter to
# Creative Commons, PO Box 1866, Mountain View, CA 94042, USA.
#
# CIF created using the CSD Python API on 29 September 2022
# The structure has been converted into the P1 space group
# The structure has a 3D framework
# The original CSD entry LALFEL is in the monoclinic crystal system
# The framework has been calculated to contain at least 10.0% void space
# The void calculation uses a probe of radius 1.32A, grid spacing 0.4
# The framework is charged, counterions have been retained in the structure
# H atom positions have been added when not included in the experimental data
#
###############################################################################

data_LALFEL
_chemical_formula_moiety         '(C60 H112 Cd8 Co4 N24 O56 1+)n'
_symmetry_cell_setting           triclinic
_symmetry_space_group_name_H-M   'P 1'
_symmetry_Int_Tables_number      1
_space_group_name_Hall           'P 1'
loop_
_symmetry_equiv_pos_site_id
_symmetry_equiv_pos_as_xyz
1 x,y,z
_cell_length_a                   16.955(3)
_cell_length_b                   9.5430(19)
_cell_length_c                   18.549(4)
_cell_angle_alpha                90
_cell_angle_beta                 90.01(3)
_cell_angle_gamma                90
_cell_volume                     3001.26
loop_
_atom_site_label
_atom_site_type_symbol
_atom_site_fract_x
_atom_site_fract_y
_atom_site_fract_z
O32 O 0.0130(4) 0.4314(8) 0.9132(4)
O34 O 0.0402(4) 0.1395(8) 0.9508(4)
O30 O 0.9327(4) 0.3803(8) 0.0367(4)
O5 O 0.4112(4) 0.0666(7) 0.5349(4)
O6 O 0.4901(4) 0.1585(7) 0.4533(4)
O12 O 0.0130(4) 0.0686(8) 0.4132(4)
C3 C 0.4720(6) 0.0666(10) 0.4958(5)
Cd3 Cd 0.58585(4) 0.41346(8) 0.86861(4)
Cd5 Cd 0.58585(4) 0.08654(8) 0.36861(4)
Cd6 Cd 0.91935(4) 0.25183(8) 0.93168(5)
O16 O 0.5079(4) 0.2578(8) 0.8069(4)
O17 O 0.6196(4) 0.2662(7) 0.7428(4)
O18 O 0.4449(4) 0.0790(7) 0.7137(4)
O19 O 0.5551(4) 0.5790(7) 0.7863(4)
O20 O 0.5557(4) 0.0822(8) 0.6482(4)
O22 O 0.5888(4) 0.5666(7) 0.9651(4)
O24 O 0.4901(4) 0.3415(7) 0.9533(4)
O25 O 0.7181(4) 0.4777(7) 0.8431(4)
O26 O 0.8418(4) 0.4227(8) 0.8700(4)
O27 O 0.6663(4) 0.2667(7) 0.9295(4)
O28 O 0.7890(4) 0.2187(9) 0.9579(5)
O36 O 0.9003(4) 0.0348(8) 0.9900(5)
O37 O 0.9221(5) 0.1628(11) 0.8155(5)
C8 C 0.5503(6) 0.2228(11) 0.7547(6)
C9 C 0.5141(6) 0.1193(10) 0.6998(6)
C11 C 0.7696(6) 0.4056(11) 0.8748(6)
C12 C 0.7398(6) 0.2861(10) 0.9246(5)
H29 H 0.946381 0.232675 0.782626
H30 H 0.953651 0.0751477 0.814722
Cd1 Cd 0.41415(4) 0.91346(8) 0.63139(4)
Cd2 Cd 0.08065(4) 0.75183(8) 0.56832(5)
O1 O 0.4921(4) 0.7578(8) 0.6931(4)
O2 O 0.3804(4) 0.7662(7) 0.7572(4)
O4 O 0.4443(4) 0.5822(8) 0.8518(4)
O7 O 0.2819(4) 0.9777(7) 0.6569(4)
O8 O 0.1582(4) 0.9227(8) 0.6300(4)
O9 O 0.3337(4) 0.7667(7) 0.5705(4)
O10 O 0.2110(4) 0.7187(9) 0.5421(5)
O11 O 0.0673(4) 0.8803(8) 0.4633(4)
O15 O 0.0779(5) 0.6628(11) 0.6845(5)
C1 C 0.4497(6) 0.7228(11) 0.7453(6)
C2 C 0.4859(6) 0.6193(10) 0.8002(6)
C4 C 0.2304(6) 0.9056(11) 0.6252(6)
C5 C 0.2602(6) 0.7861(10) 0.5754(5)
C6 C 0.0228(6) 0.9876(12) 0.4642(6)
O21 O 0.5888(4) 0.9334(7) 0.4651(4)
O23 O 0.5099(4) 0.8415(7) 0.5467(4)
O33 O 0.0402(4) 0.3605(8) 0.4508(4)
O35 O 0.0997(4) 0.5348(8) 0.5100(5)
C10 C 0.5280(6) 0.9334(10) 0.5042(5)
C14 C 0.0412(6) 0.4682(13) 0.4882(6)
H27 H 0.0536186 0.732675 0.717374
H28 H 0.0463493 0.575148 0.685278
Cd7 Cd 0.91935(4) 0.24817(8) 0.43168(5)
O29 O 0.9327(4) 0.1197(8) 0.5367(4)
C13 C 0.9772(6) 0.0124(12) 0.5358(6)
O13 O 0.9598(4) 0.6395(8) 0.5492(4)
O14 O 0.9003(4) 0.4652(8) 0.4900(5)
C7 C 0.9588(6) 0.5318(13) 0.5118(6)
O31 O 0.9870(4) 0.9314(8) 0.5868(4)
Cd7_2 Cd 0.08065(4) 0.74817(8) 0.06832(5)
C7_2 C 0.0412(6) 0.0318(13) 0.9882(6)
O29_2 O 0.0673(4) 0.6197(8) 0.9633(4)
C13_2 C 0.0228(6) 0.5124(12) 0.9642(6)
O14_2 O 0.0997(4) 0.9652(8) 0.0100(5)
O6_2 O 0.5099(4) 0.6585(7) 0.0467(4)
O12_2 O 0.9870(4) 0.5686(8) 0.0868(4)
C3_2 C 0.5280(6) 0.5666(10) 0.0042(5)
C6_2 C 0.9772(6) 0.4876(12) 0.0358(6)
Cd5_2 Cd 0.41415(4) 0.58654(8) 0.13139(4)
O21_2 O 0.4112(4) 0.4334(7) 0.0349(4)
C10_2 C 0.4720(6) 0.4334(10) 0.9958(5)
O33_2 O 0.9598(4) 0.8605(8) 0.0492(4)
C14_2 C 0.9588(6) 0.9682(13) 0.0118(6)
O1_2 O 0.5079(4) 0.2422(8) 0.3069(4)
O2_2 O 0.6196(4) 0.2338(7) 0.2428(4)
O3 O 0.4449(4) 0.4210(7) 0.2137(4)
O4_2 O 0.5557(4) 0.4178(8) 0.1482(4)
O7_2 O 0.7181(4) 0.0223(7) 0.3431(4)
O8_2 O 0.8418(4) 0.0773(8) 0.3700(4)
O9_2 O 0.6663(4) 0.2333(7) 0.4295(4)
O10_2 O 0.7890(4) 0.2813(9) 0.4579(5)
O15_2 O 0.9221(5) 0.3372(11) 0.3155(5)
C1_2 C 0.5503(6) 0.2772(11) 0.2547(6)
C2_2 C 0.5141(6) 0.3807(10) 0.1998(6)
C4_2 C 0.7696(6) 0.0944(11) 0.3748(6)
C5_2 C 0.7398(6) 0.2139(10) 0.4246(5)
H27_2 H 0.946381 0.267325 0.282626
H28_2 H 0.953651 0.424852 0.314722
O16_2 O 0.4921(4) 0.7422(8) 0.1931(4)
O17_2 O 0.3804(4) 0.7338(7) 0.2572(4)
O18_2 O 0.5551(4) 0.9210(7) 0.2863(4)
O20_2 O 0.4443(4) 0.9178(8) 0.3518(4)
O25_2 O 0.2819(4) 0.5223(7) 0.1569(4)
O26_2 O 0.1582(4) 0.5773(8) 0.1300(4)
O27_2 O 0.3337(4) 0.7333(7) 0.0705(4)
O28_2 O 0.2110(4) 0.7813(9) 0.0421(5)
O37_2 O 0.0779(5) 0.8372(11) 0.1845(5)
C8_2 C 0.4497(6) 0.7772(11) 0.2453(6)
C9_2 C 0.4859(6) 0.8807(10) 0.3002(6)
C11_2 C 0.2304(6) 0.5944(11) 0.1252(6)
C12_2 C 0.2602(6) 0.7139(10) 0.0754(5)
H29_2 H 0.0536186 0.767325 0.217374
H30_2 H 0.0463493 0.924852 0.185278
C19 C 0.2259(7) 0.3020(13) 0.0037(6)
H19 H 0.2543 0.3902 0.0037
H20 H 0.1797 0.3122 0.0342
C20 C 0.2776(7) 0.1881(14) 0.0321(6)
H21 H 0.3030 0.2174 0.0765
H22 H 0.2469 0.1043 0.0417
H24 H 0.4243 0.0472 0.0231
Co1 Co 0.28391(7) 0.14867(13) 0.88255(7)
N1 N 0.3368(5) 0.3186(9) 0.8449(5)
H1 H 0.3213 0.3942 0.8703
H2 H 0.3894 0.3099 0.8494
N2 N 0.2341(5) 0.1408(9) 0.7882(5)
H3 H 0.2653 0.0855 0.7603
N4 N 0.2012(4) 0.2656(8) 0.9286(4)
H6 H 0.1940 0.3445 0.9028
H7 H 0.1553 0.2183 0.9296
N5 N 0.3367(5) 0.1610(9) 0.9757(5)
H8 H 0.3694 0.2366 0.9741
N6 N 0.3727(5) 0.0291(8) 0.8533(5)
H10 H 0.3968 0.0667 0.8146
C15 C 0.3156(7) 0.3365(13) 0.7680(7)
H11 H 0.3178 0.4350 0.7553
H12 H 0.3531 0.2865 0.7380
C16 C 0.2353(8) 0.2819(13) 0.7550(7)
H13 H 0.2246 0.2761 0.7037
H14 H 0.1962 0.3422 0.7772
C17 C 0.1577(8) 0.0661(14) 0.7958(6)
H15 H 0.1377 0.0389 0.7488
H16 H 0.1190 0.1261 0.8189
C21 C 0.3869(6) 0.0345(11) 0.9840(6)
C22 C 0.4296(6) 0.0163(11) 0.9133(6)
H25 H 0.4703 0.0871 0.9086
N3 N 0.2233(5) 0.9782(8) 0.9052(5)
H4 H 0.2565 0.9076 0.9158
H5 H 0.1923 0.9936 0.9438
H9 H 0.3548 0.9437 0.8410
C18 C 0.1730(7) 0.9388(12) 0.8411(7)
H17 H 0.1999 0.8683 0.8126
H18 H 0.1234 0.8997 0.8576
H23 H 0.3547 0.9529 0.9943
H26 H 0.4547 0.9249 0.9118
Co1_2 Co 0.71609(7) 0.64867(13) 0.61745(7)
N1_2 N 0.6632(5) 0.8186(9) 0.6551(5)
H1_2 H 0.6787 0.8942 0.6297
H2_2 H 0.6106 0.8099 0.6506
N2_2 N 0.7659(5) 0.6408(9) 0.7118(5)
H3_2 H 0.7347 0.5855 0.7397
N3_2 N 0.7767(5) 0.4782(8) 0.5948(5)
H4_2 H 0.7435 0.4076 0.5842
H5_2 H 0.8077 0.4936 0.5562
N4_2 N 0.7988(4) 0.7656(8) 0.5714(4)
H6_2 H 0.8060 0.8445 0.5972
H7_2 H 0.8447 0.7183 0.5704
N5_2 N 0.6633(5) 0.6610(9) 0.5243(5)
H8_2 H 0.6306 0.7366 0.5259
N6_2 N 0.6273(5) 0.5291(8) 0.6467(5)
H9_2 H 0.6452 0.4437 0.6590
H10_2 H 0.6032 0.5667 0.6854
C15_2 C 0.6844(7) 0.8365(13) 0.7320(7)
H11_2 H 0.6822 0.9350 0.7447
H12_2 H 0.6469 0.7865 0.7620
C16_2 C 0.7647(8) 0.7819(13) 0.7450(7)
H13_2 H 0.7754 0.7761 0.7963
H14_2 H 0.8038 0.8422 0.7228
C17_2 C 0.8423(8) 0.5661(14) 0.7042(6)
H15_2 H 0.8623 0.5389 0.7512
H16_2 H 0.8810 0.6261 0.6811
C18_2 C 0.8270(7) 0.4388(12) 0.6589(7)
H17_2 H 0.8001 0.3683 0.6874
H18_2 H 0.8766 0.3997 0.6424
C19_2 C 0.7741(7) 0.8020(13) 0.4963(6)
H19_2 H 0.7457 0.8902 0.4963
H20_2 H 0.8203 0.8122 0.4658
C20_2 C 0.7224(7) 0.6881(14) 0.4679(6)
H21_2 H 0.6970 0.7174 0.4235
H22_2 H 0.7531 0.6043 0.4583
C21_2 C 0.6131(6) 0.5345(11) 0.5160(6)
H23_2 H 0.6453 0.4529 0.5057
H24_2 H 0.5757 0.5472 0.4769
C22_2 C 0.5704(6) 0.5163(11) 0.5867(6)
H25_2 H 0.5297 0.5871 0.5914
H26_2 H 0.5453 0.4249 0.5882
N3_3 N 0.7767(5) 0.0218(8) 0.0948(5)
H4_3 H 0.7435 0.0924 0.0842
H5_3 H 0.8077 0.0064 0.0562
H9_3 H 0.6452 0.0563 0.1590
C18_3 C 0.8270(7) 0.0612(12) 0.1589(7)
H17_3 H 0.8001 0.1317 0.1874
H18_3 H 0.8766 0.1003 0.1424
H23_3 H 0.6453 0.0471 0.0057
H26_3 H 0.5453 0.0751 0.0882
Co1_3 Co 0.71609(7) 0.85133(13) 0.11745(7)
N1_3 N 0.6632(5) 0.6814(9) 0.1551(5)
H1_3 H 0.6787 0.6058 0.1297
H2_3 H 0.6106 0.6901 0.1506
N2_3 N 0.7659(5) 0.8592(9) 0.2118(5)
H3_3 H 0.7347 0.9145 0.2397
N4_3 N 0.7988(4) 0.7344(8) 0.0714(4)
H6_3 H 0.8060 0.6555 0.0972
H7_3 H 0.8447 0.7817 0.0704
N5_3 N 0.6633(5) 0.8390(9) 0.0243(5)
H8_3 H 0.6306 0.7634 0.0259
N6_3 N 0.6273(5) 0.9709(8) 0.1467(5)
H10_3 H 0.6032 0.9333 0.1854
C15_3 C 0.6844(7) 0.6635(13) 0.2320(7)
H11_3 H 0.6822 0.5650 0.2447
H12_3 H 0.6469 0.7135 0.2620
C16_3 C 0.7647(8) 0.7181(13) 0.2450(7)
H13_3 H 0.7754 0.7239 0.2963
H14_3 H 0.8038 0.6578 0.2228
C17_3 C 0.8423(8) 0.9339(14) 0.2042(6)
H15_3 H 0.8623 0.9611 0.2512
H16_3 H 0.8810 0.8739 0.1811
C21_3 C 0.6131(6) 0.9655(11) 0.0160(6)
C22_3 C 0.5704(6) 0.9837(11) 0.0867(6)
H25_3 H 0.5297 0.9129 0.0914
C19_3 C 0.7741(7) 0.6980(13) 0.9963(6)
H19_3 H 0.7457 0.6098 0.9963
H20_3 H 0.8203 0.6878 0.9658
C20_3 C 0.7224(7) 0.8119(14) 0.9679(6)
H21_3 H 0.6970 0.7826 0.9235
H22_3 H 0.7531 0.8957 0.9583
H24_3 H 0.5757 0.9528 0.9769
Co1_4 Co 0.28391(7) 0.35133(13) 0.38255(7)
N1_4 N 0.3368(5) 0.1814(9) 0.3449(5)
H1_4 H 0.3213 0.1058 0.3703
H2_4 H 0.3894 0.1901 0.3494
N2_4 N 0.2341(5) 0.3592(9) 0.2882(5)
H3_4 H 0.2653 0.4145 0.2603
N3_4 N 0.2233(5) 0.5218(8) 0.4052(5)
H4_4 H 0.2565 0.5924 0.4158
H5_4 H 0.1923 0.5064 0.4438
N4_4 N 0.2012(4) 0.2344(8) 0.4286(4)
H6_4 H 0.1940 0.1555 0.4028
H7_4 H 0.1553 0.2817 0.4296
N5_4 N 0.3367(5) 0.3390(9) 0.4757(5)
H8_4 H 0.3694 0.2634 0.4741
N6_4 N 0.3727(5) 0.4709(8) 0.3533(5)
H9_4 H 0.3548 0.5563 0.3410
H10_4 H 0.3968 0.4333 0.3146
C15_4 C 0.3156(7) 0.1635(13) 0.2680(7)
H11_4 H 0.3178 0.0650 0.2553
H12_4 H 0.3531 0.2135 0.2380
C16_4 C 0.2353(8) 0.2181(13) 0.2550(7)
H13_4 H 0.2246 0.2239 0.2037
H14_4 H 0.1962 0.1578 0.2772
C17_4 C 0.1577(8) 0.4339(14) 0.2958(6)
H15_4 H 0.1377 0.4611 0.2488
H16_4 H 0.1190 0.3739 0.3189
C18_4 C 0.1730(7) 0.5612(12) 0.3411(7)
H17_4 H 0.1999 0.6317 0.3126
H18_4 H 0.1234 0.6003 0.3576
C19_4 C 0.2259(7) 0.1980(13) 0.5037(6)
H19_4 H 0.2543 0.1098 0.5037
H20_4 H 0.1797 0.1878 0.5342
C20_4 C 0.2776(7) 0.3119(14) 0.5321(6)
H21_4 H 0.3030 0.2826 0.5765
H22_4 H 0.2469 0.3957 0.5417
C21_4 C 0.3869(6) 0.4655(11) 0.4840(6)
H23_4 H 0.3547 0.5471 0.4943
H24_4 H 0.4243 0.4528 0.5231
C22_4 C 0.4296(6) 0.4837(11) 0.4133(6)
H25_4 H 0.4703 0.4129 0.4086
H26_4 H 0.4547 0.5751 0.4118
loop_
_geom_bond_atom_site_label_1
_geom_bond_atom_site_label_2
_geom_bond_site_symmetry_1
_geom_bond_site_symmetry_2
O6 C3 1_555 1_555
C3 O5 1_555 1_555
Cd3 O16 1_555 1_555
Cd5 O6 1_555 1_555
Cd6 O26 1_555 1_555
O16 C8 1_555 1_555
O17 C8 1_555 1_555
O19 Cd3 1_555 1_555
O20 C9 1_555 1_555
O22 Cd3 1_555 1_555
O24 Cd3 1_555 1_555
O25 Cd3 1_555 1_555
O26 C11 1_555 1_555
O27 Cd3 1_555 1_555
O28 Cd6 1_555 1_555
O36 Cd6 1_555 1_555
O37 Cd6 1_555 1_555
C8 C9 1_555 1_555
C9 O18 1_555 1_555
C11 O25 1_555 1_555
C12 O27 1_555 1_555
O28 C12 1_555 1_555
C11 C12 1_555 1_555
O37 H29 1_555 1_555
O37 H30 1_555 1_555
Cd1 O1 1_555 1_555
Cd2 O8 1_555 1_555
O1 C1 1_555 1_555
O2 C1 1_555 1_555
O19 C2 1_555 1_555
O4 C2 1_555 1_555
O7 Cd1 1_555 1_555
O8 C4 1_555 1_555
O9 Cd1 1_555 1_555
O10 Cd2 1_555 1_555
O11 Cd2 1_555 1_555
O15 Cd2 1_555 1_555
C1 C2 1_555 1_555
C4 O7 1_555 1_555
C5 O9 1_555 1_555
C6 O11 1_555 1_555
O23 Cd1 1_555 1_555
O35 Cd2 1_555 1_555
O10 C5 1_555 1_555
C4 C5 1_555 1_555
O21 C10 1_555 1_555
O23 C10 1_555 1_555
O33 C14 1_555 1_555
O35 C14 1_555 1_555
O15 H27 1_555 1_555
O15 H28 1_555 1_555
O29 Cd7 1_555 1_555
O29 C13 1_555 1_555
O14 C7 1_555 1_555
C7 O13 1_555 1_555
Cd7 O14 1_555 1_555
C7_2 O34 1_555 1_555
O29_2 C13_2 1_555 1_555
O32 C13_2 1_555 1_555
Cd7_2 O14_2 1_555 1_555
O6_2 C3_2 1_555 1_555
O12_2 C6_2 1_555 1_555
C6_2 O30 1_555 1_555
Cd5_2 O6_2 1_555 1_555
O21_2 Cd5_2 1_555 1_555
O24 C10_2 1_555 1_555
O33_2 C14_2 1_555 1_555
Cd5 O1_2 1_555 1_555
Cd7 O8_2 1_555 1_555
O1_2 C1_2 1_555 1_555
O2_2 C1_2 1_555 1_555
O3 C2_2 1_555 1_555
O4_2 C2_2 1_555 1_555
O7_2 Cd5 1_555 1_555
O8_2 C4_2 1_555 1_555
O9_2 Cd5 1_555 1_555
O10_2 Cd7 1_555 1_555
O15_2 Cd7 1_555 1_555
C1_2 C2_2 1_555 1_555
C4_2 O7_2 1_555 1_555
C5_2 O9_2 1_555 1_555
Cd5_2 O3 1_555 1_555
O10_2 C5_2 1_555 1_555
C4_2 C5_2 1_555 1_555
O15_2 H27_2 1_555 1_555
O15_2 H28_2 1_555 1_555
Cd5_2 O16_2 1_555 1_555
Cd7_2 O26_2 1_555 1_555
O16_2 C8_2 1_555 1_555
O17_2 C8_2 1_555 1_555
O20_2 C9_2 1_555 1_555
O25_2 Cd5_2 1_555 1_555
O26_2 C11_2 1_555 1_555
O27_2 Cd5_2 1_555 1_555
O28_2 Cd7_2 1_555 1_555
O37_2 Cd7_2 1_555 1_555
C8_2 C9_2 1_555 1_555
C9_2 O18_2 1_555 1_555
C11_2 O25_2 1_555 1_555
C12_2 O27_2 1_555 1_555
O28_2 C12_2 1_555 1_555
C11_2 C12_2 1_555 1_555
O37_2 H29_2 1_555 1_555
O37_2 H30_2 1_555 1_555
H19 C19 1_555 1_555
H20 C19 1_555 1_555
H21 C20 1_555 1_555
H22 C20 1_555 1_555
C19 C20 1_555 1_555
Co1 N1 1_555 1_555
N1 H1 1_555 1_555
H2 N1 1_555 1_555
N2 Co1 1_555 1_555
H3 N2 1_555 1_555
N4 Co1 1_555 1_555
H6 N4 1_555 1_555
H7 N4 1_555 1_555
N5 Co1 1_555 1_555
H8 N5 1_555 1_555
N6 Co1 1_555 1_555
H10 N6 1_555 1_555
C15 N1 1_555 1_555
H11 C15 1_555 1_555
H12 C15 1_555 1_555
C16 N2 1_555 1_555
H13 C16 1_555 1_555
H14 C16 1_555 1_555
C17 N2 1_555 1_555
H15 C17 1_555 1_555
H16 C17 1_555 1_555
C21 N5 1_555 1_555
C22 N6 1_555 1_555
H25 C22 1_555 1_555
C15 C16 1_555 1_555
C21 C22 1_555 1_555
H4 N3 1_555 1_555
H5 N3 1_555 1_555
C18 N3 1_555 1_555
H17 C18 1_555 1_555
H18 C18 1_555 1_555
Co1_2 N1_2 1_555 1_555
N1_2 H1_2 1_555 1_555
H2_2 N1_2 1_555 1_555
N2_2 Co1_2 1_555 1_555
H3_2 N2_2 1_555 1_555
N3_2 Co1_2 1_555 1_555
H4_2 N3_2 1_555 1_555
H5_2 N3_2 1_555 1_555
N4_2 Co1_2 1_555 1_555
H6_2 N4_2 1_555 1_555
H7_2 N4_2 1_555 1_555
N5_2 Co1_2 1_555 1_555
H8_2 N5_2 1_555 1_555
N6_2 Co1_2 1_555 1_555
H9_2 N6_2 1_555 1_555
H10_2 N6_2 1_555 1_555
C15_2 N1_2 1_555 1_555
H11_2 C15_2 1_555 1_555
H12_2 C15_2 1_555 1_555
C16_2 N2_2 1_555 1_555
H13_2 C16_2 1_555 1_555
H14_2 C16_2 1_555 1_555
C17_2 N2_2 1_555 1_555
H15_2 C17_2 1_555 1_555
H16_2 C17_2 1_555 1_555
C18_2 N3_2 1_555 1_555
H17_2 C18_2 1_555 1_555
H18_2 C18_2 1_555 1_555
C19_2 N4_2 1_555 1_555
H19_2 C19_2 1_555 1_555
H20_2 C19_2 1_555 1_555
C20_2 N5_2 1_555 1_555
H21_2 C20_2 1_555 1_555
H22_2 C20_2 1_555 1_555
C21_2 N5_2 1_555 1_555
H23_2 C21_2 1_555 1_555
H24_2 C21_2 1_555 1_555
C22_2 N6_2 1_555 1_555
H25_2 C22_2 1_555 1_555
H26_2 C22_2 1_555 1_555
C15_2 C16_2 1_555 1_555
C17_2 C18_2 1_555 1_555
C19_2 C20_2 1_555 1_555
C21_2 C22_2 1_555 1_555
H4_3 N3_3 1_555 1_555
H5_3 N3_3 1_555 1_555
C18_3 N3_3 1_555 1_555
H17_3 C18_3 1_555 1_555
H18_3 C18_3 1_555 1_555
Co1_3 N1_3 1_555 1_555
N1_3 H1_3 1_555 1_555
H2_3 N1_3 1_555 1_555
N2_3 Co1_3 1_555 1_555
H3_3 N2_3 1_555 1_555
N4_3 Co1_3 1_555 1_555
H6_3 N4_3 1_555 1_555
H7_3 N4_3 1_555 1_555
N5_3 Co1_3 1_555 1_555
H8_3 N5_3 1_555 1_555
N6_3 Co1_3 1_555 1_555
H10_3 N6_3 1_555 1_555
C15_3 N1_3 1_555 1_555
H11_3 C15_3 1_555 1_555
H12_3 C15_3 1_555 1_555
C16_3 N2_3 1_555 1_555
H13_3 C16_3 1_555 1_555
H14_3 C16_3 1_555 1_555
C17_3 N2_3 1_555 1_555
H15_3 C17_3 1_555 1_555
H16_3 C17_3 1_555 1_555
C21_3 N5_3 1_555 1_555
C22_3 N6_3 1_555 1_555
H25_3 C22_3 1_555 1_555
C15_3 C16_3 1_555 1_555
C21_3 C22_3 1_555 1_555
H19_3 C19_3 1_555 1_555
H20_3 C19_3 1_555 1_555
H21_3 C20_3 1_555 1_555
H22_3 C20_3 1_555 1_555
C19_3 C20_3 1_555 1_555
Co1_4 N1_4 1_555 1_555
N1_4 H1_4 1_555 1_555
H2_4 N1_4 1_555 1_555
N2_4 Co1_4 1_555 1_555
H3_4 N2_4 1_555 1_555
N3_4 Co1_4 1_555 1_555
H4_4 N3_4 1_555 1_555
H5_4 N3_4 1_555 1_555
N4_4 Co1_4 1_555 1_555
H6_4 N4_4 1_555 1_555
H7_4 N4_4 1_555 1_555
N5_4 Co1_4 1_555 1_555
H8_4 N5_4 1_555 1_555
N6_4 Co1_4 1_555 1_555
H9_4 N6_4 1_555 1_555
H10_4 N6_4 1_555 1_555
C15_4 N1_4 1_555 1_555
H11_4 C15_4 1_555 1_555
H12_4 C15_4 1_555 1_555
C16_4 N2_4 1_555 1_555
H13_4 C16_4 1_555 1_555
H14_4 C16_4 1_555 1_555
C17_4 N2_4 1_555 1_555
H15_4 C17_4 1_555 1_555
H16_4 C17_4 1_555 1_555
C18_4 N3_4 1_555 1_555
H17_4 C18_4 1_555 1_555
H18_4 C18_4 1_555 1_555
C19_4 N4_4 1_555 1_555
H19_4 C19_4 1_555 1_555
H20_4 C19_4 1_555 1_555
C20_4 N5_4 1_555 1_555
H21_4 C20_4 1_555 1_555
H22_4 C20_4 1_555 1_555
C21_4 N5_4 1_555 1_555
H23_4 C21_4 1_555 1_555
H24_4 C21_4 1_555 1_555
C22_4 N6_4 1_555 1_555
H25_4 C22_4 1_555 1_555
H26_4 C22_4 1_555 1_555
C15_4 C16_4 1_555 1_555
C17_4 C18_4 1_555 1_555
C19_4 C20_4 1_555 1_555
C21_4 C22_4 1_555 1_555

#END
