
###############################################################################
#
# This file contains modified crystal structure data generated from the
# MOF subset of the Cambridge Structural Database (CSD) v543 
# hosted by the Cambridge Crystallographic Data Centre (CCDC).
#
# This work is licensed under the Creative Commons
# Attribution-NonCommercial-ShareAlike 4.0 International License.
# To view a copy of this license, visit
# http://creativecommons.org/licenses/by-nc-sa/4.0/
# or send a letter to
# Creative Commons, PO Box 1866, Mountain View, CA 94042, USA.
#
# CIF created using the CSD Python API on 29 September 2022
# The structure has been converted into the P1 space group
# The structure has a 3D framework
# The original CSD entry LALFUB is in the triclinic crystal system
# The framework has been calculated to contain at least 10.0% void space
# The void calculation uses a probe of radius 1.32A, grid spacing 0.4
#
###############################################################################

data_LALFUB
_chemical_formula_moiety         '(C14 H12 Eu2 N4 O15)n'
_symmetry_cell_setting           triclinic
_symmetry_space_group_name_H-M   'P 1'
_symmetry_Int_Tables_number      1
_space_group_name_Hall           'P 1'
loop_
_symmetry_equiv_pos_site_id
_symmetry_equiv_pos_as_xyz
1 x,y,z
_cell_length_a                   6.0915(12)
_cell_length_b                   9.961(2)
_cell_length_c                   13.361(3)
_cell_angle_alpha                68.87(3)
_cell_angle_beta                 81.01(3)
_cell_angle_gamma                76.72(3)
_cell_volume                     733.568
loop_
_atom_site_label
_atom_site_type_symbol
_atom_site_fract_x
_atom_site_fract_y
_atom_site_fract_z
_atom_site_U_iso_or_equiv
_atom_site_thermal_displace_type
Eu3 Eu 0.33172(9) 0.61438(6) 0.19609(4) 0.0206 Uani
C10 C 0.6912(17) 0.0289(11) 0.0149(8) 0.0241 Uani
H7 H 0.8277 0.0452 0.0268 0.0290 Uiso
C8 C 0.2107(16) 0.2328(12) 0.8582(8) 0.0211 Uani
C9 C 0.3669(15) 0.1045(11) 0.9314(8) 0.0185 Uani
Eu6 Eu 0.66828(9) 0.38562(6) 0.80391(4) 0.0206 Uani
N3 N 0.5609(14) 0.1352(9) 0.9468(7) 0.0217 Uani
O9 O 0.2852(12) 0.3516(8) 0.8151(6) 0.0326 Uani
O11 O 0.0205(12) 0.2156(8) 0.8477(6) 0.0297 Uani
C1 C 0.7893(16) 0.7672(12) 0.1418(8) 0.0211 Uani
C2 C 0.6331(15) 0.8955(11) 0.0686(8) 0.0185 Uani
C4 C 0.4498(18) 0.3827(12) 0.4396(9) 0.0276 Uani
C5 C 0.2114(18) 0.4448(12) 0.4726(8) 0.0262 Uani
N1 N 0.4391(14) 0.8648(9) 0.0532(7) 0.0217 Uani
N2 N 0.0938(15) 0.5467(9) 0.3935(7) 0.0260 Uani
O1 O 0.7148(12) 0.6484(8) 0.1849(6) 0.0326 Uani
O2 O 0.9795(12) 0.7844(8) 0.1523(6) 0.0297 Uani
O3 O 0.5136(13) 0.4310(9) 0.3427(6) 0.0346 Uani
O4 O 0.5679(14) 0.2901(10) 0.5102(6) 0.0441 Uani
O6 O 0.5849(13) 0.4307(8) 0.1293(6) 0.0312 Uani
C7 C 0.5911(18) 0.4395(11) 0.0335(8) 0.0245 Uani
O7 O 0.3322(13) 0.7860(8) 0.2849(6) 0.0360 Uani
H3 H 0.2287 0.8609 0.2698 0.0540 Uiso
H4 H 0.3886 0.7732 0.3421 0.0540 Uiso
O8 O 0.0929(13) 0.4341(8) 0.2209(6) 0.0320 Uani
H6 H 0.0820 0.4209 0.1632 0.0480 Uiso
C13 C 0.115(2) 0.3986(12) 0.5783(9) 0.0307 Uani
H8 H 0.2019 0.3265 0.6308 0.0360 Uiso
O16 O 0.2755(12) 0.6373(8) 0.0135(6) 0.0292 Uani
H11 H 0.0102 0.4989 0.7688 0.0480 Uiso
C3 C 0.3088(17) 0.9711(11) 0.9851(8) 0.0241 Uani
H1 H 0.1723 0.9548 0.9732 0.0290 Uiso
O5 O 0.7245(12) 0.3627(8) 0.9865(6) 0.0292 Uani
O18 O 0.4151(13) 0.5693(8) 0.8707(6) 0.0312 Uani
C14 C 0.4089(18) 0.5605(11) 0.9665(8) 0.0245 Uani
C6 C 0.885(2) 0.6014(12) 0.4217(9) 0.0307 Uani
H2 H 0.7981 0.6735 0.3692 0.0360 Uiso
H5 H 0.9898 0.5011 0.2312 0.0480 Uiso
C11 C 0.5502(18) 0.6173(12) 0.5604(9) 0.0276 Uani
C12 C 0.7886(18) 0.5552(12) 0.5274(8) 0.0262 Uani
N5 N 0.9062(15) 0.4533(9) 0.6065(7) 0.0260 Uani
O14 O 0.4864(13) 0.5690(9) 0.6573(6) 0.0346 Uani
O15 O 0.4321(14) 0.7099(10) 0.4898(6) 0.0441 Uani
O20 O 0.6678(13) 0.2140(8) 0.7151(6) 0.0360 Uani
H9 H 0.7713 0.1391 0.7302 0.0540 Uiso
H10 H 0.6114 0.2268 0.6579 0.0540 Uiso
O21 O 0.9071(13) 0.5659(8) 0.7791(6) 0.0320 Uani
H12 H 0.9180 0.5791 0.8368 0.0480 Uiso
loop_
_atom_site_aniso_label
_atom_site_aniso_U_11
_atom_site_aniso_U_22
_atom_site_aniso_U_33
_atom_site_aniso_U_23
_atom_site_aniso_U_13
_atom_site_aniso_U_12
Eu3 0.0191 0.0245 0.0161 -0.002 -0.00308 -0.0066
C10 0.015 0.029 0.022 0.002 -0.008 -0.005
C8 0.009 0.034 0.019 -0.01 -0.002 0.001
C9 0.012 0.023 0.019 -0.009 0 0.002
Eu6 0.0191 0.0245 0.0161 -0.002 -0.00308 -0.0066
N3 0.018 0.016 0.029 -0.002 -0.005 -0.006
O9 0.022 0.03 0.036 0.007 -0.005 -0.014
O11 0.023 0.034 0.031 -0.004 -0.012 -0.008
C1 0.009 0.034 0.019 -0.01 -0.002 0.001
C2 0.012 0.023 0.019 -0.009 0 0.002
C4 0.022 0.032 0.026 -0.008 -0.003 -0.002
C5 0.031 0.03 0.019 -0.004 -0.007 -0.012
N1 0.018 0.016 0.029 -0.002 -0.005 -0.006
N2 0.031 0.021 0.018 0.004 -0.005 -0.005
O1 0.022 0.03 0.036 0.007 -0.005 -0.014
O2 0.023 0.034 0.031 -0.004 -0.012 -0.008
O3 0.035 0.045 0.016 -0.003 0 -0.006
O4 0.042 0.051 0.023 -0.001 -0.012 0.01
O6 0.036 0.037 0.02 -0.011 -0.01 0.002
C7 0.028 0.026 0.021 -0.005 0.003 -0.016
O7 0.047 0.038 0.023 -0.006 -0.01 -0.01
O8 0.035 0.031 0.035 -0.014 -0.003 -0.011
C13 0.038 0.032 0.018 0 -0.006 -0.01
O16 0.028 0.036 0.022 -0.011 -0.006 0.002
C3 0.015 0.029 0.022 0.002 -0.008 -0.005
O5 0.028 0.036 0.022 -0.011 -0.006 0.002
O18 0.036 0.037 0.02 -0.011 -0.01 0.002
C14 0.028 0.026 0.021 -0.005 0.003 -0.016
C6 0.038 0.032 0.018 0 -0.006 -0.01
C11 0.022 0.032 0.026 -0.008 -0.003 -0.002
C12 0.031 0.03 0.019 -0.004 -0.007 -0.012
N5 0.031 0.021 0.018 0.004 -0.005 -0.005
O14 0.035 0.045 0.016 -0.003 0 -0.006
O15 0.042 0.051 0.023 -0.001 -0.012 0.01
O20 0.047 0.038 0.023 -0.006 -0.01 -0.01
O21 0.035 0.031 0.035 -0.014 -0.003 -0.011
loop_
_geom_bond_atom_site_label_1
_geom_bond_atom_site_label_2
_geom_bond_site_symmetry_1
_geom_bond_site_symmetry_2
H7 C10 1_555 1_555
C8 C9 1_555 1_555
Eu6 N3 1_555 1_555
N3 C9 1_555 1_555
O9 C8 1_555 1_555
O11 C8 1_555 1_555
Eu6 O9 1_555 1_555
C1 C2 1_555 1_555
C2 N1 1_555 1_555
C4 C5 1_555 1_555
C5 N2 1_555 1_555
Eu3 N1 1_555 1_555
O1 C1 1_555 1_555
O2 C1 1_555 1_555
O3 C4 1_555 1_555
O4 C4 1_555 1_555
O6 Eu3 1_555 1_555
C7 O6 1_555 1_555
O7 Eu3 1_555 1_555
H3 O7 1_555 1_555
H4 O7 1_555 1_555
O8 Eu3 1_555 1_555
H6 O8 1_555 1_555
C13 C5 1_555 1_555
H8 C13 1_555 1_555
O16 Eu3 1_555 1_555
Eu3 N2 1_555 1_555
Eu3 O1 1_555 1_555
Eu3 O3 1_555 1_555
C3 H1 1_555 1_555
Eu6 O5 1_555 1_555
O18 Eu6 1_555 1_555
O18 C14 1_555 1_555
C6 H2 1_555 1_555
C11 C12 1_555 1_555
C12 C6 1_555 1_555
N5 C12 1_555 1_555
O14 C11 1_555 1_555
O15 C11 1_555 1_555
O20 Eu6 1_555 1_555
H9 O20 1_555 1_555
H10 O20 1_555 1_555
O21 Eu6 1_555 1_555
H12 O21 1_555 1_555
Eu6 N5 1_555 1_555
Eu6 O14 1_555 1_555

#END
