
###############################################################################
#
# This file contains modified crystal structure data generated from the
# MOF subset of the Cambridge Structural Database (CSD) v543 
# hosted by the Cambridge Crystallographic Data Centre (CCDC).
#
# This work is licensed under the Creative Commons
# Attribution-NonCommercial-ShareAlike 4.0 International License.
# To view a copy of this license, visit
# http://creativecommons.org/licenses/by-nc-sa/4.0/
# or send a letter to
# Creative Commons, PO Box 1866, Mountain View, CA 94042, USA.
#
# CIF created using the CSD Python API on 29 September 2022
# The structure has been converted into the P1 space group
# The structure has a 3D framework
# The original CSD entry LALPOF is in the triclinic crystal system
# The framework has been calculated to contain at least 10.0% void space
# The void calculation uses a probe of radius 1.32A, grid spacing 0.4
# H atom positions have been added when not included in the experimental data
# Generated hydrogen atom positions removed from atoms on special positions
#
###############################################################################

data_LALPOF
_chemical_formula_moiety         '(C30 H46 Ce2 N24 O16 S6)n'
_symmetry_cell_setting           triclinic
_symmetry_space_group_name_H-M   'P 1'
_symmetry_Int_Tables_number      1
_space_group_name_Hall           'P 1'
loop_
_symmetry_equiv_pos_site_id
_symmetry_equiv_pos_as_xyz
1 x,y,z
_cell_length_a                   9.5879(19)
_cell_length_b                   11.570(2)
_cell_length_c                   14.583(3)
_cell_angle_alpha                69.16(3)
_cell_angle_beta                 85.20(3)
_cell_angle_gamma                86.30(3)
_cell_volume                     1505.53
loop_
_atom_site_label
_atom_site_type_symbol
_atom_site_fract_x
_atom_site_fract_y
_atom_site_fract_z
_atom_site_U_iso_or_equiv
_atom_site_thermal_displace_type
Ce5 Ce 0.793912(16) 0.956845(15) 0.001207(12) 0.0201 Uani
H38 H 0.0786 0.3883 0.0097 0.0360 Uiso
S5 S 0.56390(9) 0.63193(8) 0.85124(7) 0.0340 Uani
N13 N 0.3066(3) 0.5326(2) 0.9051(2) 0.0255 Uani
N14 N 0.2061(3) 0.6288(3) 0.9996(2) 0.0327 Uani
N17 N 0.3417(3) 0.6706(3) 0.9696(2) 0.0340 Uani
N19 N 0.3337(4) 0.4545(3) 0.8500(3) 0.0372 Uani
H23 H 0.329(5) 0.384(4) 0.894(3) 0.0450 Uiso
H24 H 0.258(5) 0.480(4) 0.802(3) 0.0450 Uiso
O20 O 0.6828(3) 0.7762(2) 0.96695(18) 0.0314 Uani
O22 O 0.6383(2) 0.9629(2) 0.86146(18) 0.0289 Uani
C26 C 0.5752(4) 0.7973(3) 0.8171(3) 0.0311 Uani
H35 H 0.4816 0.8341 0.8049 0.0370 Uiso
H36 H 0.6312 0.8275 0.7553 0.0370 Uiso
C27 C 0.6355(3) 0.8448(3) 0.8888(2) 0.0236 Uani
C28 C 0.3988(3) 0.6126(3) 0.9127(2) 0.0257 Uani
C29 C 0.1886(3) 0.5451(3) 0.9610(2) 0.0257 Uani
C30 C 0.0595(3) 0.4752(3) 0.9730(3) 0.0303 Uani
H37 H 0.0312 0.4824 0.9088 0.0360 Uiso
O3 O 0.8685(2) 0.7509(2) 0.13083(19) 0.0328 Uani
N4 N 0.9768(3) 0.7986(3) 0.3382(2) 0.0357 Uani
C3 C 0.9922(3) 0.7764(3) 0.1315(2) 0.0242 Uani
N9 N 0.9414(3) 0.8647(3) 0.4027(2) 0.0387 Uani
H25 H 0.8787 0.9444 0.5559 0.0500 Uiso
S1 S 0.95154(9) 0.77316(9) 0.76132(7) 0.0351 Uani
O4 O 0.9511(2) 0.9006(3) 0.8826(2) 0.0390 Uani
N3 N 0.9243(3) 0.6513(3) 0.6374(2) 0.0305 Uani
N8 N 0.7789(4) 0.6755(4) 0.6410(3) 0.0689 Uani
H7 H 0.7273 0.6519 0.6060 0.0830 Uiso
H8 H 0.7416 0.7140 0.6782 0.0830 Uiso
C10 C 0.9434(4) 0.5296(3) 0.5243(3) 0.0339 Uani
H11 H 0.8809 0.4667 0.5662 0.0410 Uiso
H12 H 0.8891 0.5896 0.4743 0.0410 Uiso
O9 O 0.8254(2) 0.0476(2) 0.12938(18) 0.0313 Uani
C16 C 0.9231(3) 0.0976(3) 0.1499(2) 0.0267 Uani
C21 C 0.9853(4) 0.3056(3) 0.3164(3) 0.0322 Uani
C22 C 0.8880(3) 0.1643(3) 0.2230(2) 0.0279 Uani
H29 H 0.8512 0.1069 0.2855 0.0330 Uiso
H30 H 0.8182 0.2303 0.1980 0.0330 Uiso
N22 N 0.8663(4) 0.4015(4) 0.4029(3) 0.0522 Uani
N23 N 0.8574(4) 0.3352(4) 0.3385(3) 0.0555 Uani
C24 C 0.9956(4) 0.4072(3) 0.4154(3) 0.0321 Uani
O25 O 0.5926(2) 0.8796(2) 0.13525(18) 0.0312 Uani
S2 S 0.43610(9) 0.36807(8) 0.14876(7) 0.0340 Uani
N1 N 0.6934(3) 0.4674(2) 0.0949(2) 0.0255 Uani
N2 N 0.7939(3) 0.3712(3) 0.0004(2) 0.0327 Uani
N5 N 0.6583(3) 0.3294(3) 0.0304(2) 0.0340 Uani
N7 N 0.6663(4) 0.5455(3) 0.1500(3) 0.0372 Uani
H3 H 0.671(5) 0.616(4) 0.106(3) 0.0450 Uiso
H4 H 0.742(5) 0.520(4) 0.198(3) 0.0450 Uiso
H5 H 0.1213 0.0556 0.4441 0.0500 Uiso
O5 O 0.3172(3) 0.2238(2) 0.03305(18) 0.0314 Uani
O6 O 0.3617(2) 0.0371(2) 0.13854(18) 0.0289 Uani
C11 C 0.4248(4) 0.2027(3) 0.1829(3) 0.0311 Uani
H15 H 0.5184 0.1659 0.1951 0.0370 Uiso
H16 H 0.3688 0.1725 0.2447 0.0370 Uiso
C12 C 0.3645(3) 0.1552(3) 0.1112(2) 0.0236 Uani
C13 C 0.6012(3) 0.3874(3) 0.0873(2) 0.0257 Uani
C14 C 0.8114(3) 0.4549(3) 0.0390(2) 0.0257 Uani
C15 C 0.9405(3) 0.5248(3) 0.0270(3) 0.0303 Uani
H17 H 0.9688 0.5176 0.0912 0.0360 Uiso
Ce7 Ce 0.206088(16) 0.043155(15) 0.998793(12) 0.0201 Uani
O14 O 0.1315(2) 0.2491(2) 0.86917(19) 0.0328 Uani
O18 O 0.0489(2) 0.0994(3) 0.1174(2) 0.0390 Uani
N16 N 0.0232(3) 0.2014(3) 0.6618(2) 0.0357 Uani
C18 C 0.0078(3) 0.2236(3) 0.8685(2) 0.0242 Uani
N21 N 0.0586(3) 0.1353(3) 0.5973(2) 0.0387 Uani
H18 H 0.9214 0.6117 0.9903 0.0360 Uiso
O8 O 0.4074(2) 0.1204(2) 0.86475(18) 0.0312 Uani
O1 O 0.1746(2) 0.9524(2) 0.87062(18) 0.0313 Uani
C1 C 0.0769(3) 0.9024(3) 0.8501(2) 0.0267 Uani
C6 C 0.0147(4) 0.6944(3) 0.6836(3) 0.0322 Uani
C7 C 0.1120(3) 0.8357(3) 0.7770(2) 0.0279 Uani
H9 H 0.1488 0.8931 0.7145 0.0330 Uiso
H10 H 0.1818 0.7697 0.8020 0.0330 Uiso
N10 N 0.1337(4) 0.5985(4) 0.5971(3) 0.0522 Uani
N11 N 0.1426(4) 0.6648(4) 0.6615(3) 0.0555 Uani
C9 C 0.0044(4) 0.5928(3) 0.5846(3) 0.0321 Uani
S4 S 0.04846(9) 0.22684(9) 0.23868(7) 0.0351 Uani
N15 N 0.0757(3) 0.3487(3) 0.3626(2) 0.0305 Uani
N20 N 0.2211(4) 0.3245(4) 0.3590(3) 0.0689 Uani
H27 H 0.2727 0.3481 0.3940 0.0830 Uiso
H28 H 0.2584 0.2860 0.3218 0.0830 Uiso
C25 C 0.0566(4) 0.4704(3) 0.4757(3) 0.0339 Uani
H31 H 0.1191 0.5333 0.4338 0.0410 Uiso
H32 H 0.1109 0.4104 0.5257 0.0410 Uiso
S3 S 0.21969(10) 0.74342(10) 0.24582(7) 0.0374 Uani
O2 O 0.0405(2) 0.8783(2) 0.07493(17) 0.0286 Uani
C2 C 0.1116(4) 0.8066(3) 0.3193(2) 0.0307 Uani
C4 C 0.0871(4) 0.6808(3) 0.1989(3) 0.0291 Uani
H1 H 0.1324 0.6302 0.1636 0.0350 Uiso
H2 H 0.0304 0.6272 0.2539 0.0350 Uiso
N6 N 0.1665(3) 0.8733(3) 0.3667(2) 0.0336 Uani
C5 C 0.0706(5) 0.9817(4) 0.4814(3) 0.0415 Uani
H6 H 0.1244 0.9337 0.5368 0.0500 Uiso
C8 C 0.0560(4) 0.9070(3) 0.4176(3) 0.0357 Uani
N12 N 0.3055(4) 0.9057(4) 0.3629(3) 0.0493 Uani
H13 H 0.3272 0.9511 0.3948 0.0590 Uiso
H14 H 0.3693 0.8803 0.3287 0.0590 Uiso
O7 O 0.3754(2) 0.8668(2) 0.02205(18) 0.0280 Uani
H19 H 0.3786 0.7986 0.0084 0.0340 Uiso
H20 H 0.4348 0.8318 0.0739 0.0340 Uiso
S6 S 0.78031(10) 0.25658(10) 0.75418(7) 0.0374 Uani
O10 O 0.9595(2) 0.1217(2) 0.92507(17) 0.0286 Uani
C17 C 0.8884(4) 0.1934(3) 0.6807(2) 0.0307 Uani
C19 C 0.9129(4) 0.3192(3) 0.8011(3) 0.0291 Uani
H21 H 0.8676 0.3698 0.8364 0.0350 Uiso
H22 H 0.9696 0.3728 0.7461 0.0350 Uiso
N18 N 0.8335(3) 0.1267(3) 0.6333(2) 0.0336 Uani
C20 C 0.9294(5) 0.0183(4) 0.5186(3) 0.0415 Uani
H26 H 0.8756 0.0663 0.4632 0.0500 Uiso
C23 C 0.9440(4) 0.0930(3) 0.5824(3) 0.0357 Uani
N24 N 0.6945(4) 0.0943(4) 0.6371(3) 0.0493 Uani
H33 H 0.6728 0.0489 0.6052 0.0590 Uiso
H34 H 0.6307 0.1197 0.6713 0.0590 Uiso
O24 O 0.6246(2) 0.1332(2) 0.97795(18) 0.0280 Uani
H39 H 0.6214 0.2014 0.9916 0.0340 Uiso
H40 H 0.5652 0.1682 0.9261 0.0340 Uiso
loop_
_atom_site_aniso_label
_atom_site_aniso_U_11
_atom_site_aniso_U_22
_atom_site_aniso_U_33
_atom_site_aniso_U_23
_atom_site_aniso_U_13
_atom_site_aniso_U_12
Ce5 0.01855 0.02211 0.02487 -0.01438 -0.0004 -0.00407
S5 0.0258 0.0333 0.0521 -0.027 0.0069 -0.0102
N13 0.0258 0.0236 0.0332 -0.0175 0.0018 -0.0064
N14 0.0268 0.0345 0.0459 -0.0256 0.0047 -0.0079
N17 0.0317 0.0343 0.0468 -0.0273 0.0036 -0.0101
N19 0.0407 0.0331 0.05 -0.0304 0.0115 -0.0143
O20 0.0353 0.0295 0.0322 -0.0121 -0.0067 -0.0084
O22 0.0298 0.0244 0.0376 -0.016 -0.0044 -0.0048
C26 0.0343 0.0327 0.0314 -0.0157 -0.0007 -0.0139
C27 0.0166 0.0298 0.0304 -0.018 0.0017 -0.0054
C28 0.0249 0.0245 0.0327 -0.0157 -0.0005 -0.0054
C29 0.0248 0.0243 0.0308 -0.013 0.0008 -0.0041
C30 0.0267 0.03 0.0398 -0.0196 0.0063 -0.0102
O3 0.0279 0.0281 0.0423 -0.0105 -0.0041 -0.0081
N4 0.0397 0.041 0.0324 -0.0207 -0.0029 0.0008
C3 0.0293 0.0205 0.0267 -0.013 -0.0007 -0.003
N9 0.0438 0.0422 0.0368 -0.0231 0.0005 0.0003
S1 0.0311 0.0492 0.0416 -0.036 0.0009 -0.0067
O4 0.026 0.061 0.0499 -0.0445 0.007 -0.01
N3 0.0336 0.0343 0.0321 -0.0219 0.002 -0.0087
N8 0.036 0.113 0.102 -0.092 -0.004 -0.004
C10 0.051 0.0315 0.0272 -0.0186 -0.0024 -0.0106
O9 0.0257 0.043 0.037 -0.0277 -0.0008 -0.0073
C16 0.0263 0.0318 0.0291 -0.0193 -0.0019 -0.0016
C21 0.04 0.0335 0.0328 -0.0224 -0.0049 -0.0041
C22 0.0263 0.0361 0.0298 -0.0225 0.0014 -0.0028
N22 0.045 0.075 0.065 -0.06 -0.0054 0.0033
N23 0.042 0.082 0.074 -0.066 -0.0097 0.0045
C24 0.048 0.0287 0.0281 -0.0199 0.0004 -0.0071
O25 0.0255 0.0365 0.0348 -0.0167 0.0015 -0.0046
S2 0.0258 0.0333 0.0521 -0.027 0.0069 -0.0102
N1 0.0258 0.0236 0.0332 -0.0175 0.0018 -0.0064
N2 0.0268 0.0345 0.0459 -0.0256 0.0047 -0.0079
N5 0.0317 0.0343 0.0468 -0.0273 0.0036 -0.0101
N7 0.0407 0.0331 0.05 -0.0304 0.0115 -0.0143
O5 0.0353 0.0295 0.0322 -0.0121 -0.0067 -0.0084
O6 0.0298 0.0244 0.0376 -0.016 -0.0044 -0.0048
C11 0.0343 0.0327 0.0314 -0.0157 -0.0007 -0.0139
C12 0.0166 0.0298 0.0304 -0.018 0.0017 -0.0054
C13 0.0249 0.0245 0.0327 -0.0157 -0.0005 -0.0054
C14 0.0248 0.0243 0.0308 -0.013 0.0008 -0.0041
C15 0.0267 0.03 0.0398 -0.0196 0.0063 -0.0102
Ce7 0.01855 0.02211 0.02487 -0.01438 -0.0004 -0.00407
O14 0.0279 0.0281 0.0423 -0.0105 -0.0041 -0.0081
O18 0.026 0.061 0.0499 -0.0445 0.007 -0.01
N16 0.0397 0.041 0.0324 -0.0207 -0.0029 0.0008
C18 0.0293 0.0205 0.0267 -0.013 -0.0007 -0.003
N21 0.0438 0.0422 0.0368 -0.0231 0.0005 0.0003
O8 0.0255 0.0365 0.0348 -0.0167 0.0015 -0.0046
O1 0.0257 0.043 0.037 -0.0277 -0.0008 -0.0073
C1 0.0263 0.0318 0.0291 -0.0193 -0.0019 -0.0016
C6 0.04 0.0335 0.0328 -0.0224 -0.0049 -0.0041
C7 0.0263 0.0361 0.0298 -0.0225 0.0014 -0.0028
N10 0.045 0.075 0.065 -0.06 -0.0054 0.0033
N11 0.042 0.082 0.074 -0.066 -0.0097 0.0045
C9 0.048 0.0287 0.0281 -0.0199 0.0004 -0.0071
S4 0.0311 0.0492 0.0416 -0.036 0.0009 -0.0067
N15 0.0336 0.0343 0.0321 -0.0219 0.002 -0.0087
N20 0.036 0.113 0.102 -0.092 -0.004 -0.004
C25 0.051 0.0315 0.0272 -0.0186 -0.0024 -0.0106
S3 0.0321 0.0526 0.0353 -0.0251 -0.0055 0.0027
O2 0.0286 0.0228 0.0323 -0.0067 -0.0007 -0.0044
C2 0.039 0.0317 0.0229 -0.0112 -0.0041 -0.0001
C4 0.0369 0.0245 0.0297 -0.0139 -0.0056 0.0019
N6 0.0423 0.0343 0.0263 -0.0127 -0.0034 -0.0041
C5 0.057 0.041 0.0327 -0.0203 -0.0045 -0.0022
C8 0.05 0.0314 0.0275 -0.0126 -0.0034 -0.0011
N12 0.0405 0.071 0.052 -0.0395 0.0025 -0.0169
O7 0.0239 0.026 0.0435 -0.0228 -0.0097 0.0041
S6 0.0321 0.0526 0.0353 -0.0251 -0.0055 0.0027
O10 0.0286 0.0228 0.0323 -0.0067 -0.0007 -0.0044
C17 0.039 0.0317 0.0229 -0.0112 -0.0041 -0.0001
C19 0.0369 0.0245 0.0297 -0.0139 -0.0056 0.0019
N18 0.0423 0.0343 0.0263 -0.0127 -0.0034 -0.0041
C20 0.057 0.041 0.0327 -0.0203 -0.0045 -0.0022
C23 0.05 0.0314 0.0275 -0.0126 -0.0034 -0.0011
N24 0.0405 0.071 0.052 -0.0395 0.0025 -0.0169
O24 0.0239 0.026 0.0435 -0.0228 -0.0097 0.0041
loop_
_geom_bond_atom_site_label_1
_geom_bond_atom_site_label_2
_geom_bond_site_symmetry_1
_geom_bond_site_symmetry_2
S5 C26 1_555 1_555
N13 N19 1_555 1_555
N14 N17 1_555 1_555
N17 C28 1_555 1_555
N19 H23 1_555 1_555
H24 N19 1_555 1_555
O20 C27 1_555 1_555
C26 H35 1_555 1_555
H36 C26 1_555 1_555
C27 O22 1_555 1_555
C28 S5 1_555 1_555
C29 N13 1_555 1_555
H37 C30 1_555 1_555
N13 C28 1_555 1_555
N14 C29 1_555 1_555
C26 C27 1_555 1_555
C29 C30 1_555 1_555
O3 C3 1_555 1_555
N4 N9 1_555 1_555
O3 Ce5 1_555 1_555
N8 N3 1_555 1_555
H7 N8 1_555 1_555
H8 N8 1_555 1_555
H11 C10 1_555 1_555
H12 C10 1_555 1_555
O9 C16 1_555 1_555
C21 N23 1_555 1_555
H29 C22 1_555 1_555
H30 C22 1_555 1_555
N22 N23 1_555 1_555
C16 C22 1_555 1_555
N22 C24 1_555 1_555
O25 Ce5 1_555 1_555
S2 C11 1_555 1_555
N1 N7 1_555 1_555
N2 N5 1_555 1_555
N5 C13 1_555 1_555
N7 H3 1_555 1_555
H4 N7 1_555 1_555
C11 H15 1_555 1_555
H16 C11 1_555 1_555
C12 O5 1_555 1_555
C13 S2 1_555 1_555
C14 N1 1_555 1_555
C15 C14 1_555 1_555
H17 C15 1_555 1_555
O14 Ce7 1_555 1_555
N16 N21 1_555 1_555
C18 O14 1_555 1_555
N1 C13 1_555 1_555
N2 C14 1_555 1_555
O6 C12 1_555 1_555
C11 C12 1_555 1_555
O8 Ce7 1_555 1_555
O1 C1 1_555 1_555
C1 C7 1_555 1_555
C6 N11 1_555 1_555
H9 C7 1_555 1_555
H10 C7 1_555 1_555
N10 N11 1_555 1_555
N20 N15 1_555 1_555
H27 N20 1_555 1_555
H28 N20 1_555 1_555
H31 C25 1_555 1_555
H32 C25 1_555 1_555
N10 C9 1_555 1_555
S3 C2 1_555 1_555
C4 S3 1_555 1_555
H1 C4 1_555 1_555
H2 C4 1_555 1_555
N6 C2 1_555 1_555
H6 C5 1_555 1_555
C8 N6 1_555 1_555
N12 N6 1_555 1_555
H13 N12 1_555 1_555
H14 N12 1_555 1_555
H19 O7 1_555 1_555
H20 O7 1_555 1_555
C5 C8 1_555 1_555
S6 C17 1_555 1_555
C19 S6 1_555 1_555
H21 C19 1_555 1_555
H22 C19 1_555 1_555
N18 C17 1_555 1_555
H26 C20 1_555 1_555
C23 N18 1_555 1_555
N24 N18 1_555 1_555
H33 N24 1_555 1_555
H34 N24 1_555 1_555
C20 C23 1_555 1_555
H39 O24 1_555 1_555
H40 O24 1_555 1_555

#END
