
###############################################################################
#
# This file contains modified crystal structure data generated from the
# MOF subset of the Cambridge Structural Database (CSD) v543 
# hosted by the Cambridge Crystallographic Data Centre (CCDC).
#
# This work is licensed under the Creative Commons
# Attribution-NonCommercial-ShareAlike 4.0 International License.
# To view a copy of this license, visit
# http://creativecommons.org/licenses/by-nc-sa/4.0/
# or send a letter to
# Creative Commons, PO Box 1866, Mountain View, CA 94042, USA.
#
# CIF created using the CSD Python API on 29 September 2022
# The structure has been converted into the P1 space group
# The structure has a 3D framework
# The original CSD entry LAPBUD is in the monoclinic crystal system
# The framework has been calculated to contain at least 10.0% void space
# The void calculation uses a probe of radius 1.32A, grid spacing 0.4
# H atom positions have been added when not included in the experimental data
#
###############################################################################

data_LAPBUD
_chemical_formula_moiety         '(C72 H80 Cd24 N92 O64)n'
_symmetry_cell_setting           triclinic
_symmetry_space_group_name_H-M   'P 1'
_symmetry_Int_Tables_number      1
_space_group_name_Hall           'P 1'
loop_
_symmetry_equiv_pos_site_id
_symmetry_equiv_pos_as_xyz
1 x,y,z
_cell_length_a                   26.9821(6)
_cell_length_b                   8.5251(2)
_cell_length_c                   19.0057(4)
_cell_angle_alpha                90
_cell_angle_beta                 105.171(2)
_cell_angle_gamma                90
_cell_volume                     4219.43
loop_
_atom_site_label
_atom_site_type_symbol
_atom_site_fract_x
_atom_site_fract_y
_atom_site_fract_z
C4 C 0.01115(17) 0.2638(6) 0.0679(2)
H1 H 0.00816(17) 0.1708(6) 0.0959(2)
H2 H 0.04677(17) 0.2969(6) 0.0825(2)
N9 N 0.00585(14) 0.1665(5) 0.8824(2)
N10 N 0.03205(14) 0.2197(4) 0.9488(2)
Cd6 Cd 0.107860(10) 0.35047(3) 0.949950(14)
O4 O 0.86973(14) 0.0011(4) 0.0336(2)
O5 O 0.93351(11) 0.4147(4) 0.04691(16)
O8 O 0.99743(12) 0.4685(5) 0.14447(19)
N1 N 0.82774(13) 0.2994(4) 0.04667(18)
N2 N 0.82922(13) 0.4458(4) 0.07411(19)
N3 N 0.78955(12) 0.3001(4) 0.13529(18)
N4 N 0.80629(13) 0.4477(4) 0.12686(18)
C1 C 0.80314(15) 0.2115(5) 0.0850(2)
C5 C 0.97848(15) 0.3925(6) 0.0881(2)
C7 C 0.79158(15) 0.0412(5) 0.0733(2)
H4 H 0.76009(15) 0.0304(5) 0.0347(2)
Cd5 Cd 0.892140(10) 0.64953(3) 0.050050(14)
Cd9 Cd 0.744570(9) 0.26224(3) 0.220410(14)
Cd1 Cd 0.876790(10) 0.22820(3) 0.972110(14)
Cd3 Cd 0.755430(9) 0.23776(3) 0.779590(14)
O1 O 0.82626(11) 0.1184(3) 0.86775(15)
O3 O 0.80830(13) 0.2545(4) 0.70569(19)
N8 N 0.95841(13) 0.1395(4) 0.8827(2)
C2 C 0.99815(16) 0.2202(5) 0.9892(2)
N12 N 0.95234(13) 0.1719(4) 0.94995(19)
O9 O 0.71722(10) 0.4569(3) 0.71537(15)
N14 N 0.71045(12) 0.1999(4) 0.86471(18)
N15 N 0.83996(13) 0.4549(4) 0.90409(18)
N16 N 0.80630(12) 0.4683(4) 0.84043(17)
N17 N 0.69385(12) 0.1191(4) 0.68232(17)
H7 H 0.8198 0.147735 0.696249
H8 H 0.789768 0.303746 0.658841
O6 O 0.82708(12) 0.7969(4) 0.05787(19)
O7 O 0.92025(12) 0.6325(5) 0.17534(17)
C6 C 0.83310(16) 0.9420(5) 0.0533(2)
H3 H 0.78522(15) 0.9985(5) 0.1174(2)
N18 N 0.96795(14) 0.7803(4) 0.0512(2)
H9 H 0.893109 0.583592 0.194675
H10 H 0.951821 0.567324 0.189023
O2 O 0.78278(10) 0.9569(3) 0.78463(15)
N7 N 0.80615(12) 0.6191(4) 0.81768(17)
C3 C 0.84046(14) 0.6937(5) 0.8701(2)
N11 N 0.86183(12) 0.5966(4) 0.92467(18)
C8 C 0.81994(15) 0.9822(5) 0.8392(2)
C9 C 0.85964(15) 0.8583(5) 0.8688(2)
H5 H 0.87768(15) 0.8872(5) 0.9183(2)
H6 H 0.88449(15) 0.8594(5) 0.8401(2)
Cd8 Cd 0.744570(9) 0.73776(3) 0.720410(14)
Cd1_2 Cd 0.123210(10) 0.22820(3) 0.527890(14)
Cd3_2 Cd 0.244570(9) 0.23776(3) 0.720410(14)
O1_2 O 0.17374(11) 0.1184(3) 0.63225(15)
O3_2 O 0.19170(13) 0.2545(4) 0.79431(19)
O4_2 O 0.13027(14) 0.0011(4) 0.4664(2)
O5_2 O 0.06649(11) 0.4147(4) 0.45309(16)
O8_2 O 0.00257(12) 0.4685(5) 0.35553(19)
N1_2 N 0.17226(13) 0.2994(4) 0.45333(18)
N2_2 N 0.17078(13) 0.4458(4) 0.42589(19)
N3_2 N 0.21045(12) 0.3001(4) 0.36471(18)
N4_2 N 0.19371(13) 0.4477(4) 0.37314(18)
C1_2 C 0.19686(15) 0.2115(5) 0.4150(2)
N8_2 N 0.04159(13) 0.1395(4) 0.6173(2)
C2_2 C 0.00185(16) 0.2202(5) 0.5108(2)
N12_2 N 0.04766(13) 0.1719(4) 0.55005(19)
C5_2 C 0.02152(15) 0.3925(6) 0.4119(2)
C7_2 C 0.20842(15) 0.0412(5) 0.4267(2)
H4_2 H 0.23991(15) 0.0304(5) 0.4653(2)
Cd5_2 Cd 0.107860(10) 0.64953(3) 0.449950(14)
Cd9_2 Cd 0.255430(9) 0.26224(3) 0.279590(14)
O9_2 O 0.28278(10) 0.4569(3) 0.78463(15)
N14_2 N 0.28955(12) 0.1999(4) 0.63529(18)
N15_2 N 0.16004(13) 0.4549(4) 0.59591(18)
N16_2 N 0.19370(12) 0.4683(4) 0.65957(17)
N17_2 N 0.30615(12) 0.1191(4) 0.81768(17)
H7_2 H 0.1802 0.147735 0.803751
H8_2 H 0.210232 0.303746 0.841159
O2_2 O 0.21722(10) 0.9569(3) 0.71537(15)
O6_2 O 0.17292(12) 0.7969(4) 0.44213(19)
O7_2 O 0.07975(12) 0.6325(5) 0.32466(17)
N7_2 N 0.19385(12) 0.6191(4) 0.68232(17)
C3_2 C 0.15954(14) 0.6937(5) 0.6299(2)
N11_2 N 0.13817(12) 0.5966(4) 0.57533(18)
C6_2 C 0.16690(16) 0.9420(5) 0.4467(2)
H3_2 H 0.21478(15) 0.9985(5) 0.3826(2)
C8_2 C 0.18006(15) 0.9822(5) 0.6608(2)
C9_2 C 0.14036(15) 0.8583(5) 0.6312(2)
H5_2 H 0.12232(15) 0.8872(5) 0.5817(2)
H6_2 H 0.11551(15) 0.8594(5) 0.6599(2)
Cd8_2 Cd 0.255430(9) 0.73776(3) 0.779590(14)
N18_2 N 0.03205(14) 0.7803(4) 0.4488(2)
H9_2 H 0.106891 0.583592 0.305325
H10_2 H 0.0481793 0.567324 0.310977
N9_2 N 0.99415(14) 0.1665(5) 0.6176(2)
N10_2 N 0.96795(14) 0.2197(4) 0.5512(2)
C4_2 C 0.98885(17) 0.2638(6) 0.4321(2)
H1_2 H 0.99184(17) 0.1708(6) 0.4041(2)
H2_2 H 0.95323(17) 0.2969(6) 0.4175(2)
Cd6_2 Cd 0.892140(10) 0.35047(3) 0.550050(14)
Cd5_3 Cd 0.392140(10) 0.14953(3) 0.050050(14)
O4_3 O 0.36973(14) 0.5011(4) 0.0336(2)
O5_3 O 0.43351(11) 0.9147(4) 0.04691(16)
O6_3 O 0.32708(12) 0.2969(4) 0.05787(19)
O7_3 O 0.42025(12) 0.1325(5) 0.17534(17)
O8_3 O 0.49743(12) 0.9685(5) 0.14447(19)
N1_3 N 0.32774(13) 0.7994(4) 0.04667(18)
N2_3 N 0.32922(13) 0.9458(4) 0.07411(19)
N3_3 N 0.28955(12) 0.8001(4) 0.13529(18)
N4_3 N 0.30629(13) 0.9477(4) 0.12686(18)
C1_3 C 0.30314(15) 0.7115(5) 0.0850(2)
C4_3 C 0.51115(17) 0.7638(6) 0.0679(2)
H1_3 H 0.50816(17) 0.6708(6) 0.0959(2)
H2_3 H 0.54677(17) 0.7969(6) 0.0825(2)
C5_3 C 0.47848(15) 0.8925(6) 0.0881(2)
C6_3 C 0.33310(16) 0.4420(5) 0.0533(2)
C7_3 C 0.29158(15) 0.5412(5) 0.0733(2)
H3_3 H 0.28522(15) 0.4985(5) 0.1174(2)
H4_3 H 0.26009(15) 0.5304(5) 0.0347(2)
Cd9_3 Cd 0.244570(9) 0.76224(3) 0.220410(14)
N18_3 N 0.46795(14) 0.2803(4) 0.0512(2)
H9_3 H 0.393109 0.083592 0.194675
H10_3 H 0.451821 0.0673237 0.189023
Cd1_3 Cd 0.376790(10) 0.72820(3) 0.972110(14)
O1_3 O 0.32626(11) 0.6184(3) 0.86775(15)
O3_3 O 0.30830(13) 0.7545(4) 0.70569(19)
N8_3 N 0.45841(13) 0.6395(4) 0.8827(2)
N9_3 N 0.50585(14) 0.6665(5) 0.8824(2)
C2_3 C 0.49815(16) 0.7202(5) 0.9892(2)
N10_3 N 0.53205(14) 0.7197(4) 0.9488(2)
C3_3 C 0.34046(14) 0.1937(5) 0.8701(2)
N11_3 N 0.36183(12) 0.0966(4) 0.92467(18)
N12_3 N 0.45234(13) 0.6719(4) 0.94995(19)
C8_3 C 0.31994(15) 0.4822(5) 0.8392(2)
C9_3 C 0.35964(15) 0.3583(5) 0.8688(2)
H5_3 H 0.37768(15) 0.3872(5) 0.9183(2)
H6_3 H 0.38449(15) 0.3594(5) 0.8401(2)
Cd6_3 Cd 0.607860(10) 0.85047(3) 0.949950(14)
N14_3 N 0.21045(12) 0.6999(4) 0.86471(18)
N15_3 N 0.33996(13) 0.9549(4) 0.90409(18)
N16_3 N 0.30630(12) 0.9683(4) 0.84043(17)
H7_3 H 0.3198 0.647735 0.696249
H8_3 H 0.289768 0.803746 0.658841
Cd5_4 Cd 0.607860(10) 0.14953(3) 0.449950(14)
Cd1_4 Cd 0.623210(10) 0.72820(3) 0.527890(14)
O1_4 O 0.67374(11) 0.6184(3) 0.63225(15)
O3_4 O 0.69170(13) 0.7545(4) 0.79431(19)
O4_4 O 0.63027(14) 0.5011(4) 0.4664(2)
O5_4 O 0.56649(11) 0.9147(4) 0.45309(16)
O6_4 O 0.67292(12) 0.2969(4) 0.44213(19)
O7_4 O 0.57975(12) 0.1325(5) 0.32466(17)
O8_4 O 0.50257(12) 0.9685(5) 0.35553(19)
N1_4 N 0.67226(13) 0.7994(4) 0.45333(18)
N2_4 N 0.67078(13) 0.9458(4) 0.42589(19)
N3_4 N 0.71045(12) 0.8001(4) 0.36471(18)
N4_4 N 0.69371(13) 0.9477(4) 0.37314(18)
C1_4 C 0.69686(15) 0.7115(5) 0.4150(2)
N8_4 N 0.54159(13) 0.6395(4) 0.6173(2)
N9_4 N 0.49415(14) 0.6665(5) 0.6176(2)
C2_4 C 0.50185(16) 0.7202(5) 0.5108(2)
N10_4 N 0.46795(14) 0.7197(4) 0.5512(2)
C3_4 C 0.65954(14) 0.1937(5) 0.6299(2)
N11_4 N 0.63817(12) 0.0966(4) 0.57533(18)
N12_4 N 0.54766(13) 0.6719(4) 0.55005(19)
C4_4 C 0.48885(17) 0.7638(6) 0.4321(2)
H1_4 H 0.49184(17) 0.6708(6) 0.4041(2)
H2_4 H 0.45323(17) 0.7969(6) 0.4175(2)
C5_4 C 0.52152(15) 0.8925(6) 0.4119(2)
C6_4 C 0.66690(16) 0.4420(5) 0.4467(2)
C7_4 C 0.70842(15) 0.5412(5) 0.4267(2)
H3_4 H 0.71478(15) 0.4985(5) 0.3826(2)
H4_4 H 0.73991(15) 0.5304(5) 0.4653(2)
C8_4 C 0.68006(15) 0.4822(5) 0.6608(2)
C9_4 C 0.64036(15) 0.3583(5) 0.6312(2)
H5_4 H 0.62232(15) 0.3872(5) 0.5817(2)
H6_4 H 0.61551(15) 0.3594(5) 0.6599(2)
Cd6_4 Cd 0.392140(10) 0.85047(3) 0.550050(14)
Cd9_4 Cd 0.755430(9) 0.76224(3) 0.279590(14)
N14_4 N 0.78955(12) 0.6999(4) 0.63529(18)
N15_4 N 0.66004(13) 0.9549(4) 0.59591(18)
N16_4 N 0.69370(12) 0.9683(4) 0.65957(17)
N18_4 N 0.53205(14) 0.2803(4) 0.4488(2)
H7_4 H 0.6802 0.647735 0.803751
H8_4 H 0.710232 0.803746 0.841159
H9_4 H 0.606891 0.083592 0.305325
H10_4 H 0.548179 0.0673237 0.310977
O2_3 O 0.21722(10) 0.0431(3) 0.21537(15)
N5 N 0.16004(13) 0.5451(4) 0.09591(18)
N6 N 0.19370(12) 0.5317(4) 0.15957(17)
N7_3 N 0.19385(12) 0.3809(4) 0.18232(17)
C3_5 C 0.15954(14) 0.3063(5) 0.1299(2)
N11_5 N 0.13817(12) 0.4034(4) 0.07533(18)
C8_5 C 0.18006(15) 0.0178(5) 0.1608(2)
C9_5 C 0.14036(15) 0.1417(5) 0.1312(2)
H5_5 H 0.12232(15) 0.1128(5) 0.0817(2)
H6_5 H 0.11551(15) 0.1406(5) 0.1599(2)
Cd4 Cd 0.123210(10) 0.77180(3) 0.027890(14)
O6_5 O 0.17292(12) 0.2031(4) 0.94213(19)
O7_5 O 0.07975(12) 0.3675(5) 0.82466(17)
C6_5 C 0.16690(16) 0.0580(5) 0.9467(2)
H3_5 H 0.21478(15) 0.0015(5) 0.8826(2)
O10 O 0.06649(11) 0.5853(4) 0.95309(16)
N13 N 0.17078(13) 0.5542(4) 0.92589(19)
H9_5 H 0.106891 0.416408 0.805325
H10_5 H 0.0481793 0.432676 0.810977
O1_5 O 0.17374(11) 0.8816(3) 0.13225(15)
O3_5 O 0.19170(13) 0.7455(4) 0.29431(19)
N8_5 N 0.04159(13) 0.8605(4) 0.1173(2)
C2_5 C 0.00185(16) 0.7798(5) 0.0108(2)
N12_5 N 0.04766(13) 0.8281(4) 0.05005(19)
O9_3 O 0.28278(10) 0.5431(3) 0.28463(15)
N17_3 N 0.30615(12) 0.8809(4) 0.31768(17)
H7_5 H 0.1802 0.852265 0.303751
H8_5 H 0.210232 0.696254 0.341159
O4_5 O 0.13027(14) 0.9989(4) 0.9664(2)
O8_5 O 0.00257(12) 0.5315(5) 0.85553(19)
N1_5 N 0.17226(13) 0.7006(4) 0.95333(18)
N4_5 N 0.19371(13) 0.5523(4) 0.87314(18)
C1_5 C 0.19686(15) 0.7885(5) 0.9150(2)
C5_5 C 0.02152(15) 0.6075(6) 0.9119(2)
C7_5 C 0.20842(15) 0.9588(5) 0.9267(2)
H4_5 H 0.23991(15) 0.9696(5) 0.9653(2)
N9_5 N 0.99415(14) 0.8335(5) 0.1176(2)
N9_6 N 0.00585(14) 0.8335(5) 0.3824(2)
C4_5 C 0.01115(17) 0.7362(6) 0.5679(2)
H1_5 H 0.00816(17) 0.8292(6) 0.5959(2)
H2_5 H 0.04677(17) 0.7031(6) 0.5825(2)
O2_4 O 0.78278(10) 0.0431(3) 0.28463(15)
O6_6 O 0.82708(12) 0.2031(4) 0.55787(19)
O7_6 O 0.92025(12) 0.3675(5) 0.67534(17)
N5_2 N 0.83996(13) 0.5451(4) 0.40409(18)
N6_2 N 0.80630(12) 0.5317(4) 0.34043(17)
N7_4 N 0.80615(12) 0.3809(4) 0.31768(17)
C3_6 C 0.84046(14) 0.3063(5) 0.3701(2)
N11_6 N 0.86183(12) 0.4034(4) 0.42467(18)
C6_6 C 0.83310(16) 0.0580(5) 0.5533(2)
H3_6 H 0.78522(15) 0.0015(5) 0.6174(2)
C8_6 C 0.81994(15) 0.0178(5) 0.3392(2)
C9_6 C 0.85964(15) 0.1417(5) 0.3688(2)
H5_6 H 0.87768(15) 0.1128(5) 0.4183(2)
H6_6 H 0.88449(15) 0.1406(5) 0.3401(2)
Cd4_2 Cd 0.876790(10) 0.77180(3) 0.472110(14)
O10_2 O 0.93351(11) 0.5853(4) 0.54691(16)
N13_2 N 0.82922(13) 0.5542(4) 0.57411(19)
H9_6 H 0.893109 0.416408 0.694675
H10_6 H 0.951821 0.432676 0.689023
O1_6 O 0.82626(11) 0.8816(3) 0.36775(15)
O3_6 O 0.80830(13) 0.7455(4) 0.20569(19)
O4_6 O 0.86973(14) 0.9989(4) 0.5336(2)
O8_6 O 0.99743(12) 0.5315(5) 0.64447(19)
N1_6 N 0.82774(13) 0.7006(4) 0.54667(18)
N4_6 N 0.80629(13) 0.5523(4) 0.62686(18)
C1_6 C 0.80314(15) 0.7885(5) 0.5850(2)
N8_6 N 0.95841(13) 0.8605(4) 0.3827(2)
C2_6 C 0.99815(16) 0.7798(5) 0.4892(2)
N12_6 N 0.95234(13) 0.8281(4) 0.44995(19)
C5_6 C 0.97848(15) 0.6075(6) 0.5881(2)
C7_6 C 0.79158(15) 0.9588(5) 0.5733(2)
H4_6 H 0.76009(15) 0.9696(5) 0.5347(2)
O9_4 O 0.71722(10) 0.5431(3) 0.21537(15)
N17_4 N 0.69385(12) 0.8809(4) 0.18232(17)
H7_6 H 0.8198 0.852265 0.196249
H8_6 H 0.789768 0.696254 0.158841
N5_3 N 0.66004(13) 0.0451(4) 0.09591(18)
N6_3 N 0.69370(12) 0.0317(4) 0.15957(17)
Cd4_3 Cd 0.623210(10) 0.27180(3) 0.027890(14)
O10_3 O 0.56649(11) 0.0853(4) 0.95309(16)
N13_3 N 0.67078(13) 0.0542(4) 0.92589(19)
O1_7 O 0.67374(11) 0.3816(3) 0.13225(15)
O3_7 O 0.69170(13) 0.2455(4) 0.29431(19)
N8_7 N 0.54159(13) 0.3605(4) 0.1173(2)
N9_7 N 0.49415(14) 0.3335(5) 0.1176(2)
C2_7 C 0.50185(16) 0.2798(5) 0.0108(2)
C3_7 C 0.65954(14) 0.8063(5) 0.1299(2)
N11_7 N 0.63817(12) 0.9034(4) 0.07533(18)
N12_7 N 0.54766(13) 0.3281(4) 0.05005(19)
C8_7 C 0.68006(15) 0.5178(5) 0.1608(2)
C9_7 C 0.64036(15) 0.6417(5) 0.1312(2)
H5_7 H 0.62232(15) 0.6128(5) 0.0817(2)
H6_7 H 0.61551(15) 0.6406(5) 0.1599(2)
H7_7 H 0.6802 0.352265 0.303751
H8_7 H 0.710232 0.196254 0.341159
O4_7 O 0.63027(14) 0.4989(4) 0.9664(2)
O6_7 O 0.67292(12) 0.7031(4) 0.94213(19)
O7_7 O 0.57975(12) 0.8675(5) 0.82466(17)
O8_7 O 0.50257(12) 0.0315(5) 0.85553(19)
N1_7 N 0.67226(13) 0.2006(4) 0.95333(18)
N4_7 N 0.69371(13) 0.0523(4) 0.87314(18)
C1_7 C 0.69686(15) 0.2885(5) 0.9150(2)
C4_6 C 0.48885(17) 0.2362(6) 0.9321(2)
H1_6 H 0.49184(17) 0.3292(6) 0.9041(2)
H2_6 H 0.45323(17) 0.2031(6) 0.9175(2)
C5_7 C 0.52152(15) 0.1075(6) 0.9119(2)
C6_7 C 0.66690(16) 0.5580(5) 0.9467(2)
C7_7 C 0.70842(15) 0.4588(5) 0.9267(2)
H3_7 H 0.71478(15) 0.5015(5) 0.8826(2)
H4_7 H 0.73991(15) 0.4696(5) 0.9653(2)
H9_7 H 0.606891 0.916408 0.805325
H10_7 H 0.548179 0.932676 0.810977
N5_4 N 0.33996(13) 0.0451(4) 0.40409(18)
N6_4 N 0.30630(12) 0.0317(4) 0.34043(17)
Cd4_4 Cd 0.376790(10) 0.27180(3) 0.472110(14)
O10_4 O 0.43351(11) 0.0853(4) 0.54691(16)
N13_4 N 0.32922(13) 0.0542(4) 0.57411(19)
O1_8 O 0.32626(11) 0.3816(3) 0.36775(15)
O3_8 O 0.30830(13) 0.2455(4) 0.20569(19)
O4_8 O 0.36973(14) 0.4989(4) 0.5336(2)
O6_8 O 0.32708(12) 0.7031(4) 0.55787(19)
O7_8 O 0.42025(12) 0.8675(5) 0.67534(17)
O8_8 O 0.49743(12) 0.0315(5) 0.64447(19)
N1_8 N 0.32774(13) 0.2006(4) 0.54667(18)
N4_8 N 0.30629(13) 0.0523(4) 0.62686(18)
C1_8 C 0.30314(15) 0.2885(5) 0.5850(2)
N8_8 N 0.45841(13) 0.3605(4) 0.3827(2)
N9_8 N 0.50585(14) 0.3335(5) 0.3824(2)
C2_8 C 0.49815(16) 0.2798(5) 0.4892(2)
C3_8 C 0.34046(14) 0.8063(5) 0.3701(2)
N11_8 N 0.36183(12) 0.9034(4) 0.42467(18)
N12_8 N 0.45234(13) 0.3281(4) 0.44995(19)
C4_7 C 0.51115(17) 0.2362(6) 0.5679(2)
H1_7 H 0.50816(17) 0.3292(6) 0.5959(2)
H2_7 H 0.54677(17) 0.2031(6) 0.5825(2)
C5_8 C 0.47848(15) 0.1075(6) 0.5881(2)
C6_8 C 0.33310(16) 0.5580(5) 0.5533(2)
C7_8 C 0.29158(15) 0.4588(5) 0.5733(2)
H3_8 H 0.28522(15) 0.5015(5) 0.6174(2)
H4_8 H 0.26009(15) 0.4696(5) 0.5347(2)
C8_8 C 0.31994(15) 0.5178(5) 0.3392(2)
C9_8 C 0.35964(15) 0.6417(5) 0.3688(2)
H5_8 H 0.37768(15) 0.6128(5) 0.4183(2)
H6_8 H 0.38449(15) 0.6406(5) 0.3401(2)
H7_8 H 0.3198 0.352265 0.196249
H8_8 H 0.289768 0.196254 0.158841
H9_8 H 0.393109 0.916408 0.694675
H10_8 H 0.451821 0.932676 0.689023
C4_8 C 0.98885(17) 0.7362(6) 0.9321(2)
H1_8 H 0.99184(17) 0.8292(6) 0.9041(2)
H2_8 H 0.95323(17) 0.7031(6) 0.9175(2)
loop_
_geom_bond_atom_site_label_1
_geom_bond_atom_site_label_2
_geom_bond_site_symmetry_1
_geom_bond_site_symmetry_2
H1 C4 1_555 1_555
H2 C4 1_555 1_555
N9 N10 1_555 1_555
N10 Cd6 1_555 1_555
O8 C5 1_555 1_555
N2 N1 1_555 1_555
N3 N4 1_555 1_555
N4 N2 1_555 1_555
C1 N1 1_555 1_555
C5 O5 1_555 1_555
C7 C1 1_555 1_555
H4 C7 1_555 1_555
Cd5 O5 1_555 1_555
Cd9 N3 1_555 1_555
N2 Cd5 1_555 1_555
N3 C1 1_555 1_555
Cd1 O1 1_555 1_555
Cd3 O1 1_555 1_555
O3 Cd3 1_555 1_555
N12 Cd1 1_555 1_555
O9 Cd3 1_555 1_555
N14 Cd3 1_555 1_555
N15 Cd1 1_555 1_555
N16 Cd3 1_555 1_555
N17 Cd3 1_555 1_555
N8 N12 1_555 1_555
C2 N12 1_555 1_555
N15 N16 1_555 1_555
O3 H7 1_555 1_555
O3 H8 1_555 1_555
Cd5 O6 1_555 1_555
O6 C6 1_555 1_555
O7 Cd5 1_555 1_555
N18 Cd5 1_555 1_555
O7 H9 1_555 1_555
O7 H10 1_555 1_555
N16 N7 1_555 1_555
N7 C3 1_555 1_555
C3 N11 1_555 1_555
C8 O2 1_555 1_555
C9 C3 1_555 1_555
H5 C9 1_555 1_555
H6 C9 1_555 1_555
Cd8 O2 1_555 1_555
N15 N11 1_555 1_555
N7 Cd8 1_555 1_555
C8 C9 1_555 1_555
Cd1_2 O1_2 1_555 1_555
Cd3_2 O1_2 1_555 1_555
O3_2 Cd3_2 1_555 1_555
O4_2 Cd1_2 1_555 1_555
O5_2 Cd1_2 1_555 1_555
O8_2 C5_2 1_555 1_555
N1_2 Cd1_2 1_555 1_555
N2_2 N1_2 1_555 1_555
N3_2 N4_2 1_555 1_555
N4_2 N2_2 1_555 1_555
C1_2 N1_2 1_555 1_555
N12_2 Cd1_2 1_555 1_555
C5_2 O5_2 1_555 1_555
C7_2 C1_2 1_555 1_555
H4_2 C7_2 1_555 1_555
Cd5_2 O5_2 1_555 1_555
Cd9_2 N3_2 1_555 1_555
O9_2 Cd3_2 1_555 1_555
N14_2 Cd3_2 1_555 1_555
N15_2 Cd1_2 1_555 1_555
N16_2 Cd3_2 1_555 1_555
N17_2 Cd3_2 1_555 1_555
N2_2 Cd5_2 1_555 1_555
N3_2 C1_2 1_555 1_555
N8_2 N12_2 1_555 1_555
C2_2 N12_2 1_555 1_555
N15_2 N16_2 1_555 1_555
O3_2 H7_2 1_555 1_555
O3_2 H8_2 1_555 1_555
Cd5_2 O6_2 1_555 1_555
O6_2 C6_2 1_555 1_555
O7_2 Cd5_2 1_555 1_555
N16_2 N7_2 1_555 1_555
N7_2 C3_2 1_555 1_555
C3_2 N11_2 1_555 1_555
N11_2 Cd5_2 1_555 1_555
C8_2 O2_2 1_555 1_555
C9_2 C3_2 1_555 1_555
H5_2 C9_2 1_555 1_555
H6_2 C9_2 1_555 1_555
Cd8_2 O2_2 1_555 1_555
N18_2 Cd5_2 1_555 1_555
N15_2 N11_2 1_555 1_555
N7_2 Cd8_2 1_555 1_555
C8_2 C9_2 1_555 1_555
O7_2 H9_2 1_555 1_555
O7_2 H10_2 1_555 1_555
N9_2 N10_2 1_555 1_555
N10_2 Cd6_2 1_555 1_555
H1_2 C4_2 1_555 1_555
H2_2 C4_2 1_555 1_555
Cd5_3 O6_3 1_555 1_555
O6_3 C6_3 1_555 1_555
O7_3 Cd5_3 1_555 1_555
O8_3 C5_3 1_555 1_555
N2_3 N1_3 1_555 1_555
N3_3 N4_3 1_555 1_555
N4_3 N2_3 1_555 1_555
C1_3 N1_3 1_555 1_555
H1_3 C4_3 1_555 1_555
H2_3 C4_3 1_555 1_555
C5_3 O5_3 1_555 1_555
C6_3 O4_3 1_555 1_555
C7_3 C1_3 1_555 1_555
H3_3 C7_3 1_555 1_555
H4_3 C7_3 1_555 1_555
Cd9_3 N3_3 1_555 1_555
N18_3 Cd5_3 1_555 1_555
N3_3 C1_3 1_555 1_555
C4_3 C5_3 1_555 1_555
C6_3 C7_3 1_555 1_555
O7_3 H9_3 1_555 1_555
O7_3 H10_3 1_555 1_555
Cd1_3 O1_3 1_555 1_555
Cd8_2 O1_3 1_555 1_555
O1_3 C8_3 1_555 1_555
O9_2 Cd8_2 1_555 1_555
O3_3 Cd8_2 1_555 1_555
N17_2 C3_3 1_555 1_555
N8_3 N9_3 1_555 1_555
N9_3 N10_3 1_555 1_555
C2_3 N10_3 1_555 1_555
N10_3 Cd6_3 1_555 1_555
C3_3 N11_3 1_555 1_555
N12_3 Cd1_3 1_555 1_555
C8_3 O9_2 1_555 1_555
C9_3 C3_3 1_555 1_555
H5_3 C9_3 1_555 1_555
H6_3 C9_3 1_555 1_555
N14_3 Cd8_2 1_555 1_555
N15_3 Cd1_3 1_555 1_555
N16_3 Cd8_2 1_555 1_555
N8_3 N12_3 1_555 1_555
C2_3 N12_3 1_555 1_555
C8_3 C9_3 1_555 1_555
N15_3 N16_3 1_555 1_555
O3_3 H7_3 1_555 1_555
O3_3 H8_3 1_555 1_555
Cd1_4 O1_4 1_555 1_555
Cd5_4 O6_4 1_555 1_555
Cd8 O1_4 1_555 1_555
O1_4 C8_4 1_555 1_555
O9 Cd8 1_555 1_555
O3_4 Cd8 1_555 1_555
O4_4 Cd1_4 1_555 1_555
O5_4 Cd1_4 1_555 1_555
O6_4 C6_4 1_555 1_555
O7_4 Cd5_4 1_555 1_555
O8_4 C5_4 1_555 1_555
N1_4 Cd1_4 1_555 1_555
N2_4 N1_4 1_555 1_555
N3_4 N4_4 1_555 1_555
N4_4 N2_4 1_555 1_555
N17 C3_4 1_555 1_555
C1_4 N1_4 1_555 1_555
N8_4 N9_4 1_555 1_555
N9_4 N10_4 1_555 1_555
C2_4 N10_4 1_555 1_555
N10_4 Cd6_4 1_555 1_555
C3_4 N11_4 1_555 1_555
N11_4 Cd5_4 1_555 1_555
N12_4 Cd1_4 1_555 1_555
C4_4 C2_4 1_555 1_555
H1_4 C4_4 1_555 1_555
H2_4 C4_4 1_555 1_555
C5_4 O5_4 1_555 1_555
C6_4 O4_4 1_555 1_555
C7_4 C1_4 1_555 1_555
H3_4 C7_4 1_555 1_555
H4_4 C7_4 1_555 1_555
C8_4 O9 1_555 1_555
C9_4 C3_4 1_555 1_555
H5_4 C9_4 1_555 1_555
H6_4 C9_4 1_555 1_555
Cd9_4 N3_4 1_555 1_555
N14_4 Cd8 1_555 1_555
N15_4 Cd1_4 1_555 1_555
N16_4 Cd8 1_555 1_555
N18_4 Cd5_4 1_555 1_555
N3_4 C1_4 1_555 1_555
N8_4 N12_4 1_555 1_555
C2_4 N12_4 1_555 1_555
C4_4 C5_4 1_555 1_555
C6_4 C7_4 1_555 1_555
C8_4 C9_4 1_555 1_555
N15_4 N16_4 1_555 1_555
O3_4 H7_4 1_555 1_555
O3_4 H8_4 1_555 1_555
O7_4 H9_4 1_555 1_555
O7_4 H10_4 1_555 1_555
N5 N6 1_555 1_555
N6 N7_3 1_555 1_555
N7_3 C3_5 1_555 1_555
C3_5 N11_5 1_555 1_555
C8_5 O2_3 1_555 1_555
C9_5 C3_5 1_555 1_555
H5_5 C9_5 1_555 1_555
H6_5 C9_5 1_555 1_555
Cd4 N5 1_555 1_555
Cd9_3 N6 1_555 1_555
Cd9_2 O2_3 1_555 1_555
N5 N11_5 1_555 1_555
N7_3 Cd9_2 1_555 1_555
C8_5 C9_5 1_555 1_555
Cd6 O6_5 1_555 1_555
O6_5 C6_5 1_555 1_555
O7_5 Cd6 1_555 1_555
O10 Cd6 1_555 1_555
N13 Cd6 1_555 1_555
O7_5 H9_5 1_555 1_555
O7_5 H10_5 1_555 1_555
Cd4 O1_5 1_555 1_555
Cd9_3 O1_5 1_555 1_555
O3_5 Cd9_3 1_555 1_555
N12_5 Cd4 1_555 1_555
O9_3 Cd9_3 1_555 1_555
N17_3 Cd9_3 1_555 1_555
N8_5 N12_5 1_555 1_555
C2_5 N12_5 1_555 1_555
O3_5 H7_5 1_555 1_555
O3_5 H8_5 1_555 1_555
O8_5 C5_5 1_555 1_555
N13 N1_5 1_555 1_555
N14_3 N4_5 1_555 1_555
N4_5 N13 1_555 1_555
C1_5 N1_5 1_555 1_555
C5_5 O10 1_555 1_555
C7_5 C1_5 1_555 1_555
H4_5 C7_5 1_555 1_555
N14_3 C1_5 1_555 1_555
N9_5 N18 1_555 1_555
N9_6 N18_2 1_555 1_555
H1_5 C4_5 1_555 1_555
H2_5 C4_5 1_555 1_555
Cd6_2 O6_6 1_555 1_555
O6_6 C6_6 1_555 1_555
O7_6 Cd6_2 1_555 1_555
N5_2 N6_2 1_555 1_555
N6_2 N7_4 1_555 1_555
N7_4 C3_6 1_555 1_555
C3_6 N11_6 1_555 1_555
N11_6 Cd6_2 1_555 1_555
C8_6 O2_4 1_555 1_555
C9_6 C3_6 1_555 1_555
H5_6 C9_6 1_555 1_555
H6_6 C9_6 1_555 1_555
Cd4_2 N5_2 1_555 1_555
Cd9_4 N6_2 1_555 1_555
Cd9 O2_4 1_555 1_555
O10_2 Cd6_2 1_555 1_555
N13_2 Cd6_2 1_555 1_555
N5_2 N11_6 1_555 1_555
N7_4 Cd9 1_555 1_555
C8_6 C9_6 1_555 1_555
Cd4_2 O10_2 1_555 1_555
O7_6 H9_6 1_555 1_555
O7_6 H10_6 1_555 1_555
Cd4_2 O1_6 1_555 1_555
Cd9_4 O1_6 1_555 1_555
O3_6 Cd9_4 1_555 1_555
O4_6 Cd4_2 1_555 1_555
O8_6 C5_6 1_555 1_555
N1_6 Cd4_2 1_555 1_555
N13_2 N1_6 1_555 1_555
N14_4 N4_6 1_555 1_555
N4_6 N13_2 1_555 1_555
C1_6 N1_6 1_555 1_555
N12_6 Cd4_2 1_555 1_555
C5_6 O10_2 1_555 1_555
C7_6 C1_6 1_555 1_555
H4_6 C7_6 1_555 1_555
O9_4 Cd9_4 1_555 1_555
N17_4 Cd9_4 1_555 1_555
N14_4 C1_6 1_555 1_555
N8_6 N12_6 1_555 1_555
C2_6 N12_6 1_555 1_555
O3_6 H7_6 1_555 1_555
O3_6 H8_6 1_555 1_555
N5_3 N6_3 1_555 1_555
Cd4_3 N5_3 1_555 1_555
Cd9 N6_3 1_555 1_555
Cd4_3 O1_7 1_555 1_555
Cd9 O1_7 1_555 1_555
O1_7 C8_7 1_555 1_555
O9_4 Cd9 1_555 1_555
O3_7 Cd9 1_555 1_555
N17_4 C3_7 1_555 1_555
N8_7 N9_7 1_555 1_555
N9_7 N18_3 1_555 1_555
C2_7 N18_3 1_555 1_555
C3_7 N11_7 1_555 1_555
N12_7 Cd4_3 1_555 1_555
C8_7 O9_4 1_555 1_555
C9_7 C3_7 1_555 1_555
H5_7 C9_7 1_555 1_555
H6_7 C9_7 1_555 1_555
N8_7 N12_7 1_555 1_555
C2_7 N12_7 1_555 1_555
C8_7 C9_7 1_555 1_555
O3_7 H7_7 1_555 1_555
O3_7 H8_7 1_555 1_555
Cd6_3 O6_7 1_555 1_555
O6_7 C6_7 1_555 1_555
O7_7 Cd6_3 1_555 1_555
O8_7 C5_7 1_555 1_555
N13_3 N1_7 1_555 1_555
N14 N4_7 1_555 1_555
N4_7 N13_3 1_555 1_555
C1_7 N1_7 1_555 1_555
H1_6 C4_6 1_555 1_555
H2_6 C4_6 1_555 1_555
C5_7 O10_3 1_555 1_555
C6_7 O4_7 1_555 1_555
C7_7 C1_7 1_555 1_555
H3_7 C7_7 1_555 1_555
H4_7 C7_7 1_555 1_555
N14 C1_7 1_555 1_555
C4_6 C5_7 1_555 1_555
C6_7 C7_7 1_555 1_555
O7_7 H9_7 1_555 1_555
O7_7 H10_7 1_555 1_555
N5_4 N6_4 1_555 1_555
Cd4_4 N5_4 1_555 1_555
Cd9_2 N6_4 1_555 1_555
Cd4_4 O10_4 1_555 1_555
Cd4_4 O1_8 1_555 1_555
Cd6_4 O6_8 1_555 1_555
Cd9_2 O1_8 1_555 1_555
O1_8 C8_8 1_555 1_555
O9_3 Cd9_2 1_555 1_555
O3_8 Cd9_2 1_555 1_555
O4_8 Cd4_4 1_555 1_555
O6_8 C6_8 1_555 1_555
O7_8 Cd6_4 1_555 1_555
O8_8 C5_8 1_555 1_555
N1_8 Cd4_4 1_555 1_555
N13_4 N1_8 1_555 1_555
N14_2 N4_8 1_555 1_555
N4_8 N13_4 1_555 1_555
N17_3 C3_8 1_555 1_555
C1_8 N1_8 1_555 1_555
N8_8 N9_8 1_555 1_555
N9_8 N18_4 1_555 1_555
C2_8 N18_4 1_555 1_555
C3_8 N11_8 1_555 1_555
N11_8 Cd6_4 1_555 1_555
N12_8 Cd4_4 1_555 1_555
C4_7 C2_8 1_555 1_555
H1_7 C4_7 1_555 1_555
H2_7 C4_7 1_555 1_555
C5_8 O10_4 1_555 1_555
C6_8 O4_8 1_555 1_555
C7_8 C1_8 1_555 1_555
H3_8 C7_8 1_555 1_555
H4_8 C7_8 1_555 1_555
C8_8 O9_3 1_555 1_555
C9_8 C3_8 1_555 1_555
H5_8 C9_8 1_555 1_555
H6_8 C9_8 1_555 1_555
N14_2 C1_8 1_555 1_555
N8_8 N12_8 1_555 1_555
C2_8 N12_8 1_555 1_555
C4_7 C5_8 1_555 1_555
C6_8 C7_8 1_555 1_555
C8_8 C9_8 1_555 1_555
O3_8 H7_8 1_555 1_555
O3_8 H8_8 1_555 1_555
O7_8 H9_8 1_555 1_555
O7_8 H10_8 1_555 1_555
H1_8 C4_8 1_555 1_555
H2_8 C4_8 1_555 1_555

#END
