
###############################################################################
#
# This file contains modified crystal structure data generated from the
# MOF subset of the Cambridge Structural Database (CSD) v543 
# hosted by the Cambridge Crystallographic Data Centre (CCDC).
#
# This work is licensed under the Creative Commons
# Attribution-NonCommercial-ShareAlike 4.0 International License.
# To view a copy of this license, visit
# http://creativecommons.org/licenses/by-nc-sa/4.0/
# or send a letter to
# Creative Commons, PO Box 1866, Mountain View, CA 94042, USA.
#
# CIF created using the CSD Python API on 29 September 2022
# The structure has been converted into the P1 space group
# The structure has a 3D framework
# The original CSD entry LAPLOG01 is in the orthorhombic crystal system
# The framework has been calculated to contain at least 10.0% void space
# The void calculation uses a probe of radius 1.32A, grid spacing 0.4
# The framework is charged, counterions have been retained in the structure
#
###############################################################################

data_LAPLOG01
_chemical_formula_moiety         '(C352 H544 In16 N80 O128 32+)n'
_symmetry_cell_setting           triclinic
_symmetry_space_group_name_H-M   'P 1'
_symmetry_Int_Tables_number      1
_space_group_name_Hall           'P 1'
loop_
_symmetry_equiv_pos_site_id
_symmetry_equiv_pos_as_xyz
1 x,y,z
_cell_length_a                   15.3069(5)
_cell_length_b                   26.9467(8)
_cell_length_c                   31.2840(10)
_cell_angle_alpha                90
_cell_angle_beta                 90
_cell_angle_gamma                90
_cell_volume                     12903.7
loop_
_atom_site_label
_atom_site_type_symbol
_atom_site_fract_x
_atom_site_fract_y
_atom_site_fract_z
N1 N 0.3158(18) 0.5392(11) 0.0796(10)
H1 H 0.3411 0.5101 0.0715
H2 H 0.3401 0.5481 0.1050
C1 C 0.339(4) 0.577(2) 0.048(2)
H3 H 0.4024 0.5801 0.0458
H4 H 0.3151 0.5677 0.0198
H5 H 0.3139 0.6092 0.0564
C2 C 0.225(2) 0.5300(15) 0.0867(13)
H6 H 0.2179 0.5041 0.1084
H7 H 0.1964 0.5606 0.0965
H8 H 0.1976 0.5190 0.0599
C2_2 C 0.025(2) 0.7200(15) 0.0867(13)
H6_2 H 0.0321 0.7459 0.1084
H7_2 H 0.0536 0.6894 0.0965
H8_2 H 0.0524 0.7310 0.0599
N1_2 N 0.9342(18) 0.7108(11) 0.0796(10)
H1_2 H 0.9089 0.7399 0.0715
H2_2 H 0.9099 0.7019 0.1050
C1_2 C 0.911(4) 0.673(2) 0.048(2)
H3_2 H 0.8476 0.6699 0.0458
H4_2 H 0.9349 0.6823 0.0198
H5_2 H 0.9361 0.6408 0.0564
N1_3 N 0.3158(18) 0.7108(11) 0.1704(10)
H1_3 H 0.3411 0.7399 0.1785
H2_3 H 0.3401 0.7019 0.1450
C1_3 C 0.339(4) 0.673(2) 0.202(2)
H3_3 H 0.4024 0.6699 0.2042
H4_3 H 0.3151 0.6823 0.2302
H5_3 H 0.3139 0.6408 0.1936
C2_3 C 0.225(2) 0.7200(15) 0.1633(13)
H6_3 H 0.2179 0.7459 0.1416
H7_3 H 0.1964 0.6894 0.1535
H8_3 H 0.1976 0.7310 0.1901
C2_4 C 0.025(2) 0.5300(15) 0.1633(13)
H6_4 H 0.0321 0.5041 0.1416
H7_4 H 0.0536 0.5606 0.1535
H8_4 H 0.0524 0.5190 0.1901
N1_4 N 0.9342(18) 0.5392(11) 0.1704(10)
H1_4 H 0.9089 0.5101 0.1785
H2_4 H 0.9099 0.5481 0.1450
C1_4 C 0.911(4) 0.577(2) 0.202(2)
H3_4 H 0.8476 0.5801 0.2042
H4_4 H 0.9349 0.5677 0.2302
H5_4 H 0.9361 0.6092 0.1936
N1_5 N 0.3158(18) 0.0392(11) 0.5796(10)
H1_5 H 0.3411 0.0101 0.5715
H2_5 H 0.3401 0.0481 0.6050
C1_5 C 0.339(4) 0.077(2) 0.548(2)
H3_5 H 0.4024 0.0801 0.5458
H4_5 H 0.3151 0.0677 0.5198
H5_5 H 0.3139 0.1092 0.5564
C2_5 C 0.225(2) 0.0300(15) 0.5867(13)
H6_5 H 0.2179 0.0041 0.6084
H7_5 H 0.1964 0.0606 0.5965
H8_5 H 0.1976 0.0190 0.5599
C2_6 C 0.025(2) 0.2200(15) 0.5867(13)
H6_6 H 0.0321 0.2459 0.6084
H7_6 H 0.0536 0.1894 0.5965
H8_6 H 0.0524 0.2310 0.5599
N1_6 N 0.9342(18) 0.2108(11) 0.5796(10)
H1_6 H 0.9089 0.2399 0.5715
H2_6 H 0.9099 0.2019 0.6050
C1_6 C 0.911(4) 0.173(2) 0.548(2)
H3_6 H 0.8476 0.1699 0.5458
H4_6 H 0.9349 0.1823 0.5198
H5_6 H 0.9361 0.1408 0.5564
N1_7 N 0.3158(18) 0.2108(11) 0.6704(10)
H1_7 H 0.3411 0.2399 0.6785
H2_7 H 0.3401 0.2019 0.6450
C1_7 C 0.339(4) 0.173(2) 0.702(2)
H3_7 H 0.4024 0.1699 0.7042
H4_7 H 0.3151 0.1823 0.7302
H5_7 H 0.3139 0.1408 0.6936
C2_7 C 0.225(2) 0.2200(15) 0.6633(13)
H6_7 H 0.2179 0.2459 0.6416
H7_7 H 0.1964 0.1894 0.6535
H8_7 H 0.1976 0.2310 0.6901
C2_8 C 0.025(2) 0.0300(15) 0.6633(13)
H6_8 H 0.0321 0.0041 0.6416
H7_8 H 0.0536 0.0606 0.6535
H8_8 H 0.0524 0.0190 0.6901
N1_8 N 0.9342(18) 0.0392(11) 0.6704(10)
H1_8 H 0.9089 0.0101 0.6785
H2_8 H 0.9099 0.0481 0.6450
C1_8 C 0.911(4) 0.077(2) 0.702(2)
H3_8 H 0.8476 0.0801 0.7042
H4_8 H 0.9349 0.0677 0.7302
H5_8 H 0.9361 0.1092 0.6936
N1_9 N 0.8158(18) 0.5392(11) 0.5796(10)
H1_9 H 0.8411 0.5101 0.5715
H2_9 H 0.8401 0.5481 0.6050
C1_9 C 0.839(4) 0.577(2) 0.548(2)
H3_9 H 0.9024 0.5801 0.5458
H4_9 H 0.8151 0.5677 0.5198
H5_9 H 0.8139 0.6092 0.5564
C2_9 C 0.725(2) 0.5300(15) 0.5867(13)
H6_9 H 0.7179 0.5041 0.6084
H7_9 H 0.6964 0.5606 0.5965
H8_9 H 0.6976 0.5190 0.5599
N1_10 N 0.4342(18) 0.7108(11) 0.5796(10)
H1_10 H 0.4089 0.7399 0.5715
H2_10 H 0.4099 0.7019 0.6050
C1_10 C 0.411(4) 0.673(2) 0.548(2)
H3_10 H 0.3476 0.6699 0.5458
H4_10 H 0.4349 0.6823 0.5198
H5_10 H 0.4361 0.6408 0.5564
C2_10 C 0.525(2) 0.7200(15) 0.5867(13)
H6_10 H 0.5321 0.7459 0.6084
H7_10 H 0.5536 0.6894 0.5965
H8_10 H 0.5524 0.7310 0.5599
N1_11 N 0.8158(18) 0.7108(11) 0.6704(10)
H1_11 H 0.8411 0.7399 0.6785
H2_11 H 0.8401 0.7019 0.6450
C1_11 C 0.839(4) 0.673(2) 0.702(2)
H3_11 H 0.9024 0.6699 0.7042
H4_11 H 0.8151 0.6823 0.7302
H5_11 H 0.8139 0.6408 0.6936
C2_11 C 0.725(2) 0.7200(15) 0.6633(13)
H6_11 H 0.7179 0.7459 0.6416
H7_11 H 0.6964 0.6894 0.6535
H8_11 H 0.6976 0.7310 0.6901
N1_12 N 0.4342(18) 0.5392(11) 0.6704(10)
H1_12 H 0.4089 0.5101 0.6785
H2_12 H 0.4099 0.5481 0.6450
C1_12 C 0.411(4) 0.577(2) 0.702(2)
H3_12 H 0.3476 0.5801 0.7042
H4_12 H 0.4349 0.5677 0.7302
H5_12 H 0.4361 0.6092 0.6936
C2_12 C 0.525(2) 0.5300(15) 0.6633(13)
H6_12 H 0.5321 0.5041 0.6416
H7_12 H 0.5536 0.5606 0.6535
H8_12 H 0.5524 0.5190 0.6901
N1_13 N 0.8158(18) 0.0392(11) 0.0796(10)
H1_13 H 0.8411 0.0101 0.0715
H2_13 H 0.8401 0.0481 0.1050
C1_13 C 0.839(4) 0.077(2) 0.048(2)
H3_13 H 0.9024 0.0801 0.0458
H4_13 H 0.8151 0.0677 0.0198
H5_13 H 0.8139 0.1092 0.0564
C2_13 C 0.725(2) 0.0300(15) 0.0867(13)
H6_13 H 0.7179 0.0041 0.1084
H7_13 H 0.6964 0.0606 0.0965
H8_13 H 0.6976 0.0190 0.0599
N1_14 N 0.4342(18) 0.2108(11) 0.0796(10)
H1_14 H 0.4089 0.2399 0.0715
H2_14 H 0.4099 0.2019 0.1050
C1_14 C 0.411(4) 0.173(2) 0.048(2)
H3_14 H 0.3476 0.1699 0.0458
H4_14 H 0.4349 0.1823 0.0198
H5_14 H 0.4361 0.1408 0.0564
C2_14 C 0.525(2) 0.2200(15) 0.0867(13)
H6_14 H 0.5321 0.2459 0.1084
H7_14 H 0.5536 0.1894 0.0965
H8_14 H 0.5524 0.2310 0.0599
N1_15 N 0.8158(18) 0.2108(11) 0.1704(10)
H1_15 H 0.8411 0.2399 0.1785
H2_15 H 0.8401 0.2019 0.1450
C1_15 C 0.839(4) 0.173(2) 0.202(2)
H3_15 H 0.9024 0.1699 0.2042
H4_15 H 0.8151 0.1823 0.2302
H5_15 H 0.8139 0.1408 0.1936
C2_15 C 0.725(2) 0.2200(15) 0.1633(13)
H6_15 H 0.7179 0.2459 0.1416
H7_15 H 0.6964 0.1894 0.1535
H8_15 H 0.6976 0.2310 0.1901
N1_16 N 0.4342(18) 0.0392(11) 0.1704(10)
H1_16 H 0.4089 0.0101 0.1785
H2_16 H 0.4099 0.0481 0.1450
C1_16 C 0.411(4) 0.077(2) 0.202(2)
H3_16 H 0.3476 0.0801 0.2042
H4_16 H 0.4349 0.0677 0.2302
H5_16 H 0.4361 0.1092 0.1936
C2_16 C 0.525(2) 0.0300(15) 0.1633(13)
H6_16 H 0.5321 0.0041 0.1416
H7_16 H 0.5536 0.0606 0.1535
H8_16 H 0.5524 0.0190 0.1901
N1_17 N 0.6842(18) 0.4608(11) 0.9204(10)
H1_17 H 0.6589 0.4899 0.9285
H2_17 H 0.6599 0.4519 0.8950
C1_17 C 0.661(4) 0.423(2) 0.952(2)
H3_17 H 0.5976 0.4199 0.9542
H4_17 H 0.6849 0.4323 0.9802
H5_17 H 0.6861 0.3908 0.9436
C2_17 C 0.775(2) 0.4700(15) 0.9133(13)
H6_17 H 0.7821 0.4959 0.8916
H7_17 H 0.8036 0.4394 0.9035
H8_17 H 0.8024 0.4810 0.9401
N1_18 N 0.0658(18) 0.2892(11) 0.9204(10)
H1_18 H 0.0911 0.2601 0.9285
H2_18 H 0.0901 0.2981 0.8950
C1_18 C 0.089(4) 0.327(2) 0.952(2)
H3_18 H 0.1524 0.3301 0.9542
H4_18 H 0.0651 0.3177 0.9802
H5_18 H 0.0639 0.3592 0.9436
C2_18 C 0.975(2) 0.2800(15) 0.9133(13)
H6_18 H 0.9679 0.2541 0.8916
H7_18 H 0.9464 0.3106 0.9035
H8_18 H 0.9476 0.2690 0.9401
N1_19 N 0.6842(18) 0.2892(11) 0.8296(10)
H1_19 H 0.6589 0.2601 0.8215
H2_19 H 0.6599 0.2981 0.8550
C1_19 C 0.661(4) 0.327(2) 0.798(2)
H3_19 H 0.5976 0.3301 0.7958
H4_19 H 0.6849 0.3177 0.7698
H5_19 H 0.6861 0.3592 0.8064
C2_19 C 0.775(2) 0.2800(15) 0.8367(13)
H6_19 H 0.7821 0.2541 0.8584
H7_19 H 0.8036 0.3106 0.8465
H8_19 H 0.8024 0.2690 0.8099
N1_20 N 0.0658(18) 0.4608(11) 0.8296(10)
H1_20 H 0.0911 0.4899 0.8215
H2_20 H 0.0901 0.4519 0.8550
C1_20 C 0.089(4) 0.423(2) 0.798(2)
H3_20 H 0.1524 0.4199 0.7958
H4_20 H 0.0651 0.4323 0.7698
H5_20 H 0.0639 0.3908 0.8064
C2_20 C 0.975(2) 0.4700(15) 0.8367(13)
H6_20 H 0.9679 0.4959 0.8584
H7_20 H 0.9464 0.4394 0.8465
H8_20 H 0.9476 0.4810 0.8099
N1_21 N 0.6842(18) 0.9608(11) 0.4204(10)
H1_21 H 0.6589 0.9899 0.4285
H2_21 H 0.6599 0.9519 0.3950
C1_21 C 0.661(4) 0.923(2) 0.452(2)
H3_21 H 0.5976 0.9199 0.4542
H4_21 H 0.6849 0.9323 0.4802
H5_21 H 0.6861 0.8908 0.4436
C2_21 C 0.775(2) 0.9700(15) 0.4133(13)
H6_21 H 0.7821 0.9959 0.3916
H7_21 H 0.8036 0.9394 0.4035
H8_21 H 0.8024 0.9810 0.4401
N1_22 N 0.0658(18) 0.7892(11) 0.4204(10)
H1_22 H 0.0911 0.7601 0.4285
H2_22 H 0.0901 0.7981 0.3950
C1_22 C 0.089(4) 0.827(2) 0.452(2)
H3_22 H 0.1524 0.8301 0.4542
H4_22 H 0.0651 0.8177 0.4802
H5_22 H 0.0639 0.8592 0.4436
C2_22 C 0.975(2) 0.7800(15) 0.4133(13)
H6_22 H 0.9679 0.7541 0.3916
H7_22 H 0.9464 0.8106 0.4035
H8_22 H 0.9476 0.7690 0.4401
N1_23 N 0.6842(18) 0.7892(11) 0.3296(10)
H1_23 H 0.6589 0.7601 0.3215
H2_23 H 0.6599 0.7981 0.3550
C1_23 C 0.661(4) 0.827(2) 0.298(2)
H3_23 H 0.5976 0.8301 0.2958
H4_23 H 0.6849 0.8177 0.2698
H5_23 H 0.6861 0.8592 0.3064
C2_23 C 0.775(2) 0.7800(15) 0.3367(13)
H6_23 H 0.7821 0.7541 0.3584
H7_23 H 0.8036 0.8106 0.3465
H8_23 H 0.8024 0.7690 0.3099
N1_24 N 0.0658(18) 0.9608(11) 0.3296(10)
H1_24 H 0.0911 0.9899 0.3215
H2_24 H 0.0901 0.9519 0.3550
C1_24 C 0.089(4) 0.923(2) 0.298(2)
H3_24 H 0.1524 0.9199 0.2958
H4_24 H 0.0651 0.9323 0.2698
H5_24 H 0.0639 0.8908 0.3064
C2_24 C 0.975(2) 0.9700(15) 0.3367(13)
H6_24 H 0.9679 0.9959 0.3584
H7_24 H 0.9464 0.9394 0.3465
H8_24 H 0.9476 0.9810 0.3099
N1_25 N 0.1842(18) 0.4608(11) 0.4204(10)
H1_25 H 0.1589 0.4899 0.4285
H2_25 H 0.1599 0.4519 0.3950
C1_25 C 0.161(4) 0.423(2) 0.452(2)
H3_25 H 0.0976 0.4199 0.4542
H4_25 H 0.1849 0.4323 0.4802
H5_25 H 0.1861 0.3908 0.4436
C2_25 C 0.275(2) 0.4700(15) 0.4133(13)
H6_25 H 0.2821 0.4959 0.3916
H7_25 H 0.3036 0.4394 0.4035
H8_25 H 0.3024 0.4810 0.4401
N1_26 N 0.5658(18) 0.2892(11) 0.4204(10)
H1_26 H 0.5911 0.2601 0.4285
H2_26 H 0.5901 0.2981 0.3950
C1_26 C 0.589(4) 0.327(2) 0.452(2)
H3_26 H 0.6524 0.3301 0.4542
H4_26 H 0.5651 0.3177 0.4802
H5_26 H 0.5639 0.3592 0.4436
C2_26 C 0.475(2) 0.2800(15) 0.4133(13)
H6_26 H 0.4679 0.2541 0.3916
H7_26 H 0.4464 0.3106 0.4035
H8_26 H 0.4476 0.2690 0.4401
N1_27 N 0.1842(18) 0.2892(11) 0.3296(10)
H1_27 H 0.1589 0.2601 0.3215
H2_27 H 0.1599 0.2981 0.3550
C1_27 C 0.161(4) 0.327(2) 0.298(2)
H3_27 H 0.0976 0.3301 0.2958
H4_27 H 0.1849 0.3177 0.2698
H5_27 H 0.1861 0.3592 0.3064
C2_27 C 0.275(2) 0.2800(15) 0.3367(13)
H6_27 H 0.2821 0.2541 0.3584
H7_27 H 0.3036 0.3106 0.3465
H8_27 H 0.3024 0.2690 0.3099
N1_28 N 0.5658(18) 0.4608(11) 0.3296(10)
H1_28 H 0.5911 0.4899 0.3215
H2_28 H 0.5901 0.4519 0.3550
C1_28 C 0.589(4) 0.423(2) 0.298(2)
H3_28 H 0.6524 0.4199 0.2958
H4_28 H 0.5651 0.4323 0.2698
H5_28 H 0.5639 0.3908 0.3064
C2_28 C 0.475(2) 0.4700(15) 0.3367(13)
H6_28 H 0.4679 0.4959 0.3584
H7_28 H 0.4464 0.4394 0.3465
H8_28 H 0.4476 0.4810 0.3099
N1_29 N 0.1842(18) 0.9608(11) 0.9204(10)
H1_29 H 0.1589 0.9899 0.9285
H2_29 H 0.1599 0.9519 0.8950
C1_29 C 0.161(4) 0.923(2) 0.952(2)
H3_29 H 0.0976 0.9199 0.9542
H4_29 H 0.1849 0.9323 0.9802
H5_29 H 0.1861 0.8908 0.9436
C2_29 C 0.275(2) 0.9700(15) 0.9133(13)
H6_29 H 0.2821 0.9959 0.8916
H7_29 H 0.3036 0.9394 0.9035
H8_29 H 0.3024 0.9810 0.9401
N1_30 N 0.5658(18) 0.7892(11) 0.9204(10)
H1_30 H 0.5911 0.7601 0.9285
H2_30 H 0.5901 0.7981 0.8950
C1_30 C 0.589(4) 0.827(2) 0.952(2)
H3_30 H 0.6524 0.8301 0.9542
H4_30 H 0.5651 0.8177 0.9802
H5_30 H 0.5639 0.8592 0.9436
C2_30 C 0.475(2) 0.7800(15) 0.9133(13)
H6_30 H 0.4679 0.7541 0.8916
H7_30 H 0.4464 0.8106 0.9035
H8_30 H 0.4476 0.7690 0.9401
N1_31 N 0.1842(18) 0.7892(11) 0.8296(10)
H1_31 H 0.1589 0.7601 0.8215
H2_31 H 0.1599 0.7981 0.8550
C1_31 C 0.161(4) 0.827(2) 0.798(2)
H3_31 H 0.0976 0.8301 0.7958
H4_31 H 0.1849 0.8177 0.7698
H5_31 H 0.1861 0.8592 0.8064
C2_31 C 0.275(2) 0.7800(15) 0.8367(13)
H6_31 H 0.2821 0.7541 0.8584
H7_31 H 0.3036 0.8106 0.8465
H8_31 H 0.3024 0.7690 0.8099
N1_32 N 0.5658(18) 0.9608(11) 0.8296(10)
H1_32 H 0.5911 0.9899 0.8215
H2_32 H 0.5901 0.9519 0.8550
C1_32 C 0.589(4) 0.923(2) 0.798(2)
H3_32 H 0.6524 0.9199 0.7958
H4_32 H 0.5651 0.9323 0.7698
H5_32 H 0.5639 0.8908 0.8064
C2_32 C 0.475(2) 0.9700(15) 0.8367(13)
H6_32 H 0.4679 0.9959 0.8584
H7_32 H 0.4464 0.9394 0.8465
H8_32 H 0.4476 0.9810 0.8099
N2 N 0.1250 0.4623(13) 0.1250
H9 H 0.0816 0.4824 0.1346
C3 C 0.0918(14) 0.4371(7) 0.0890(6)
H10 H 0.0722 0.4614 0.0677
H11 H 0.1377 0.4163 0.0766
H12 H 0.0424 0.4163 0.0977
H13 H 0.1684 0.4824 0.1154
C4 C 0.1582(14) 0.4371(7) 0.1610(6)
H14 H 0.1778 0.4614 0.1823
H15 H 0.1123 0.4163 0.1734
H16 H 0.2076 0.4163 0.1523
N2_2 N 0.1250 0.7877(13) 0.1250
H9_2 H 0.1684 0.7676 0.1346
C3_2 C 0.1582(14) 0.8129(7) 0.0890(6)
H10_2 H 0.1778 0.7886 0.0677
H11_2 H 0.1123 0.8337 0.0766
H12_2 H 0.2076 0.8337 0.0977
H13_2 H 0.0816 0.7676 0.1154
C4_2 C 0.0918(14) 0.8129(7) 0.1610(6)
H14_2 H 0.0722 0.7886 0.1823
H15_2 H 0.1377 0.8337 0.1734
H16_2 H 0.0424 0.8337 0.1523
N2_3 N 0.1250 0.9623(13) 0.6250
H9_3 H 0.0816 0.9824 0.6346
C3_3 C 0.0918(14) 0.9371(7) 0.5890(6)
H10_3 H 0.0722 0.9614 0.5677
H11_3 H 0.1377 0.9163 0.5766
H12_3 H 0.0424 0.9163 0.5977
H13_3 H 0.1684 0.9824 0.6154
C4_3 C 0.1582(14) 0.9371(7) 0.6610(6)
H14_3 H 0.1778 0.9614 0.6823
H15_3 H 0.1123 0.9163 0.6734
H16_3 H 0.2076 0.9163 0.6523
N2_4 N 0.1250 0.2877(13) 0.6250
H9_4 H 0.1684 0.2676 0.6346
C3_4 C 0.1582(14) 0.3129(7) 0.5890(6)
H10_4 H 0.1778 0.2886 0.5677
H11_4 H 0.1123 0.3337 0.5766
H12_4 H 0.2076 0.3337 0.5977
H13_4 H 0.0816 0.2676 0.6154
C4_4 C 0.0918(14) 0.3129(7) 0.6610(6)
H14_4 H 0.0722 0.2886 0.6823
H15_4 H 0.1377 0.3337 0.6734
H16_4 H 0.0424 0.3337 0.6523
N2_5 N 0.6250 0.4623(13) 0.6250
H9_5 H 0.5816 0.4824 0.6346
C3_5 C 0.5918(14) 0.4371(7) 0.5890(6)
H10_5 H 0.5722 0.4614 0.5677
H11_5 H 0.6377 0.4163 0.5766
H12_5 H 0.5424 0.4163 0.5977
H13_5 H 0.6684 0.4824 0.6154
C4_5 C 0.6582(14) 0.4371(7) 0.6610(6)
H14_5 H 0.6778 0.4614 0.6823
H15_5 H 0.6123 0.4163 0.6734
H16_5 H 0.7076 0.4163 0.6523
N2_6 N 0.6250 0.7877(13) 0.6250
H9_6 H 0.6684 0.7676 0.6346
C3_6 C 0.6582(14) 0.8129(7) 0.5890(6)
H10_6 H 0.6778 0.7886 0.5677
H11_6 H 0.6123 0.8337 0.5766
H12_6 H 0.7076 0.8337 0.5977
H13_6 H 0.5816 0.7676 0.6154
C4_6 C 0.5918(14) 0.8129(7) 0.6610(6)
H14_6 H 0.5722 0.7886 0.6823
H15_6 H 0.6377 0.8337 0.6734
H16_6 H 0.5424 0.8337 0.6523
N2_7 N 0.6250 0.9623(13) 0.1250
H9_7 H 0.5816 0.9824 0.1346
C3_7 C 0.5918(14) 0.9371(7) 0.0890(6)
H10_7 H 0.5722 0.9614 0.0677
H11_7 H 0.6377 0.9163 0.0766
H12_7 H 0.5424 0.9163 0.0977
H13_7 H 0.6684 0.9824 0.1154
C4_7 C 0.6582(14) 0.9371(7) 0.1610(6)
H14_7 H 0.6778 0.9614 0.1823
H15_7 H 0.6123 0.9163 0.1734
H16_7 H 0.7076 0.9163 0.1523
N2_8 N 0.6250 0.2877(13) 0.1250
H9_8 H 0.6684 0.2676 0.1346
C3_8 C 0.6582(14) 0.3129(7) 0.0890(6)
H10_8 H 0.6778 0.2886 0.0677
H11_8 H 0.6123 0.3337 0.0766
H12_8 H 0.7076 0.3337 0.0977
H13_8 H 0.5816 0.2676 0.1154
C4_8 C 0.5918(14) 0.3129(7) 0.1610(6)
H14_8 H 0.5722 0.2886 0.1823
H15_8 H 0.6377 0.3337 0.1734
H16_8 H 0.5424 0.3337 0.1523
N2_9 N 0.8750 0.5377(13) 0.8750
H9_9 H 0.9184 0.5176 0.8654
C3_9 C 0.9082(14) 0.5629(7) 0.9110(6)
H10_9 H 0.9278 0.5386 0.9323
H11_9 H 0.8623 0.5837 0.9234
H12_9 H 0.9576 0.5837 0.9023
H13_9 H 0.8316 0.5176 0.8846
C4_9 C 0.8418(14) 0.5629(7) 0.8390(6)
H14_9 H 0.8222 0.5386 0.8177
H15_9 H 0.8877 0.5837 0.8266
H16_9 H 0.7924 0.5837 0.8477
N2_10 N 0.8750 0.2123(13) 0.8750
H9_10 H 0.8316 0.2324 0.8654
C3_10 C 0.8418(14) 0.1871(7) 0.9110(6)
H10_10 H 0.8222 0.2114 0.9323
H11_10 H 0.8877 0.1663 0.9234
H12_10 H 0.7924 0.1663 0.9023
H13_10 H 0.9184 0.2324 0.8846
C4_10 C 0.9082(14) 0.1871(7) 0.8390(6)
H14_10 H 0.9278 0.2114 0.8177
H15_10 H 0.8623 0.1663 0.8266
H16_10 H 0.9576 0.1663 0.8477
N2_11 N 0.8750 0.0377(13) 0.3750
H9_11 H 0.9184 0.0176 0.3654
C3_11 C 0.9082(14) 0.0629(7) 0.4110(6)
H10_11 H 0.9278 0.0386 0.4323
H11_11 H 0.8623 0.0837 0.4234
H12_11 H 0.9576 0.0837 0.4023
H13_11 H 0.8316 0.0176 0.3846
C4_11 C 0.8418(14) 0.0629(7) 0.3390(6)
H14_11 H 0.8222 0.0386 0.3177
H15_11 H 0.8877 0.0837 0.3266
H16_11 H 0.7924 0.0837 0.3477
N2_12 N 0.8750 0.7123(13) 0.3750
H9_12 H 0.8316 0.7324 0.3654
C3_12 C 0.8418(14) 0.6871(7) 0.4110(6)
H10_12 H 0.8222 0.7114 0.4323
H11_12 H 0.8877 0.6663 0.4234
H12_12 H 0.7924 0.6663 0.4023
H13_12 H 0.9184 0.7324 0.3846
C4_12 C 0.9082(14) 0.6871(7) 0.3390(6)
H14_12 H 0.9278 0.7114 0.3177
H15_12 H 0.8623 0.6663 0.3266
H16_12 H 0.9576 0.6663 0.3477
N2_13 N 0.3750 0.5377(13) 0.3750
H9_13 H 0.4184 0.5176 0.3654
C3_13 C 0.4082(14) 0.5629(7) 0.4110(6)
H10_13 H 0.4278 0.5386 0.4323
H11_13 H 0.3623 0.5837 0.4234
H12_13 H 0.4576 0.5837 0.4023
H13_13 H 0.3316 0.5176 0.3846
C4_13 C 0.3418(14) 0.5629(7) 0.3390(6)
H14_13 H 0.3222 0.5386 0.3177
H15_13 H 0.3877 0.5837 0.3266
H16_13 H 0.2924 0.5837 0.3477
N2_14 N 0.3750 0.2123(13) 0.3750
H9_14 H 0.3316 0.2324 0.3654
C3_14 C 0.3418(14) 0.1871(7) 0.4110(6)
H10_14 H 0.3222 0.2114 0.4323
H11_14 H 0.3877 0.1663 0.4234
H12_14 H 0.2924 0.1663 0.4023
H13_14 H 0.4184 0.2324 0.3846
C4_14 C 0.4082(14) 0.1871(7) 0.3390(6)
H14_14 H 0.4278 0.2114 0.3177
H15_14 H 0.3623 0.1663 0.3266
H16_14 H 0.4576 0.1663 0.3477
N2_15 N 0.3750 0.0377(13) 0.8750
H9_15 H 0.4184 0.0176 0.8654
C3_15 C 0.4082(14) 0.0629(7) 0.9110(6)
H10_15 H 0.4278 0.0386 0.9323
H11_15 H 0.3623 0.0837 0.9234
H12_15 H 0.4576 0.0837 0.9023
H13_15 H 0.3316 0.0176 0.8846
C4_15 C 0.3418(14) 0.0629(7) 0.8390(6)
H14_15 H 0.3222 0.0386 0.8177
H15_15 H 0.3877 0.0837 0.8266
H16_15 H 0.2924 0.0837 0.8477
N2_16 N 0.3750 0.7123(13) 0.8750
H9_16 H 0.3316 0.7324 0.8654
C3_16 C 0.3418(14) 0.6871(7) 0.9110(6)
H10_16 H 0.3222 0.7114 0.9323
H11_16 H 0.3877 0.6663 0.9234
H12_16 H 0.2924 0.6663 0.9023
H13_16 H 0.4184 0.7324 0.8846
C4_16 C 0.4082(14) 0.6871(7) 0.8390(6)
H14_16 H 0.4278 0.7114 0.8177
H15_16 H 0.3623 0.6663 0.8266
H16_16 H 0.4576 0.6663 0.8477
In1 In 0.3750 0.3750 0.06570(2)
O1 O 0.3963(2) 0.43611(16) 0.01764(12)
O2 O 0.2628(2) 0.41161(13) 0.02976(11)
C5 C 0.3151(3) 0.43843(19) 0.00915(15)
O5 O 0.3537(2) 0.31389(16) 0.01764(12)
O6 O 0.4872(2) 0.33839(13) 0.02976(11)
C13 C 0.4349(3) 0.31157(19) 0.00915(15)
O9 O 0.3960(2) 0.31777(14) 0.11779(12)
O10 O 0.3540(2) 0.43223(14) 0.11779(12)
O11 O 0.2617(2) 0.33756(12) 0.10149(10)
O12 O 0.4883(2) 0.41244(12) 0.10149(10)
O3 O 0.1040(2) 0.56777(14) 0.86779(12)
O4 O 0.2383(2) 0.58756(12) 0.85149(10)
C6 C 0.2832(3) 0.4720(2) 0.97485(16)
C7 C 0.2179(3) 0.5320(2) 0.90974(16)
C8 C 0.1851(3) 0.56419(18) 0.87438(13)
N3 N 0.4211(9) 0.5206(6) 0.9705(5)
H17 H 0.4425 0.4942 0.9838
H18 H 0.4545 0.5272 0.9481
C9 C 0.3369(7) 0.5111(5) 0.9575(4)
C10 C 0.1976(8) 0.4634(5) 0.9588(4)
H19 H 0.1639 0.4370 0.9703
C11 C 0.3017(7) 0.5410(5) 0.9249(4)
H20 H 0.3353 0.5674 0.9132
C12 C 0.1619(8) 0.4929(5) 0.9264(4)
H21 H 0.1044 0.4876 0.9160
O7 O 0.6460(2) 0.18223(14) 0.86779(12)
O8 O 0.5117(2) 0.16244(12) 0.85149(10)
C14 C 0.4668(3) 0.2780(2) 0.97485(16)
C15 C 0.5321(3) 0.2180(2) 0.90974(16)
C16 C 0.5649(3) 0.18581(18) 0.87438(13)
N4 N 0.3289(9) 0.2294(6) 0.9705(5)
H22 H 0.3075 0.2558 0.9838
H23 H 0.2955 0.2228 0.9481
C17 C 0.4131(7) 0.2389(5) 0.9575(4)
C18 C 0.5524(8) 0.2866(5) 0.9588(4)
H24 H 0.5861 0.3130 0.9703
C19 C 0.4483(7) 0.2090(5) 0.9249(4)
H25 H 0.4147 0.1826 0.9132
C20 C 0.5881(8) 0.2571(5) 0.9264(4)
H26 H 0.6456 0.2624 0.9160
In2 In 0.6250 0.1250 0.81570(2)
In3 In 0.1250 0.6250 0.81570(2)
O3_2 O 0.1460(2) 0.68223(14) 0.86779(12)
O4_2 O 0.0117(2) 0.66244(12) 0.85149(10)
C7_2 C 0.0321(3) 0.7180(2) 0.90974(16)
C8_2 C 0.0649(3) 0.68581(18) 0.87438(13)
C10_2 C 0.0524(8) 0.7866(5) 0.9588(4)
H19_2 H 0.0861 0.8130 0.9703
C12_2 C 0.0881(8) 0.7571(5) 0.9264(4)
H21_2 H 0.1456 0.7624 0.9160
O7_2 O 0.6040(2) 0.06777(14) 0.86779(12)
O8_2 O 0.7383(2) 0.08756(12) 0.85149(10)
C15_2 C 0.7179(3) 0.0320(2) 0.90974(16)
C16_2 C 0.6851(3) 0.06419(18) 0.87438(13)
N4_2 N 0.9211(9) 0.0206(6) 0.9705(5)
H23_2 H 0.9545 0.0272 0.9481
C17_2 C 0.8369(7) 0.0111(5) 0.9575(4)
C19_2 C 0.8017(7) 0.0410(5) 0.9249(4)
H25_2 H 0.8353 0.0674 0.9132
In1_2 In 0.8750 0.8750 0.06570(2)
O1_2 O 0.8537(2) 0.81389(16) 0.01764(12)
O2_2 O 0.9872(2) 0.83839(13) 0.02976(11)
C5_2 C 0.9349(3) 0.81157(19) 0.00915(15)
O5_2 O 0.8963(2) 0.93611(16) 0.01764(12)
O6_2 O 0.7628(2) 0.91161(13) 0.02976(11)
C13_2 C 0.8151(3) 0.93843(19) 0.00915(15)
O9_2 O 0.8540(2) 0.93223(14) 0.11779(12)
O10_2 O 0.8960(2) 0.81777(14) 0.11779(12)
O11_2 O 0.9883(2) 0.91244(12) 0.10149(10)
O12_2 O 0.7617(2) 0.83756(12) 0.10149(10)
O3_3 O 0.1040(2) 0.06777(14) 0.36779(12)
O4_3 O 0.2383(2) 0.08756(12) 0.35149(10)
C7_3 C 0.2179(3) 0.0320(2) 0.40974(16)
C8_3 C 0.1851(3) 0.06419(18) 0.37438(13)
N3_2 N 0.4211(9) 0.0206(6) 0.4705(5)
H18_2 H 0.4545 0.0272 0.4481
C9_2 C 0.3369(7) 0.0111(5) 0.4575(4)
C11_2 C 0.3017(7) 0.0410(5) 0.4249(4)
H20_2 H 0.3353 0.0674 0.4132
In3_2 In 0.1250 0.1250 0.31570(2)
In1_3 In 0.3750 0.8750 0.56570(2)
O1_3 O 0.3963(2) 0.93611(16) 0.51764(12)
O2_3 O 0.2628(2) 0.91161(13) 0.52976(11)
C5_3 C 0.3151(3) 0.93843(19) 0.50915(15)
C6_2 C 0.2832(3) 0.9720(2) 0.47485(16)
H17_2 H 0.4425 0.9942 0.4838
C10_3 C 0.1976(8) 0.9634(5) 0.4588(4)
H19_3 H 0.1639 0.9370 0.4703
C12_3 C 0.1619(8) 0.9929(5) 0.4264(4)
H21_3 H 0.1044 0.9876 0.4160
O5_3 O 0.3537(2) 0.81389(16) 0.51764(12)
O6_3 O 0.4872(2) 0.83839(13) 0.52976(11)
O7_3 O 0.6460(2) 0.68223(14) 0.36779(12)
O8_3 O 0.5117(2) 0.66244(12) 0.35149(10)
C13_3 C 0.4349(3) 0.81157(19) 0.50915(15)
C14_2 C 0.4668(3) 0.7780(2) 0.47485(16)
C15_3 C 0.5321(3) 0.7180(2) 0.40974(16)
C16_3 C 0.5649(3) 0.68581(18) 0.37438(13)
N4_3 N 0.3289(9) 0.7294(6) 0.4705(5)
H22_2 H 0.3075 0.7558 0.4838
H23_3 H 0.2955 0.7228 0.4481
C17_3 C 0.4131(7) 0.7389(5) 0.4575(4)
C18_2 C 0.5524(8) 0.7866(5) 0.4588(4)
H24_2 H 0.5861 0.8130 0.4703
C19_3 C 0.4483(7) 0.7090(5) 0.4249(4)
H25_3 H 0.4147 0.6826 0.4132
C20_2 C 0.5881(8) 0.7571(5) 0.4264(4)
H26_2 H 0.6456 0.7624 0.4160
In2_2 In 0.6250 0.6250 0.31570(2)
O9_3 O 0.3960(2) 0.81777(14) 0.61779(12)
O10_3 O 0.3540(2) 0.93223(14) 0.61779(12)
O11_3 O 0.2617(2) 0.83756(12) 0.60149(10)
O12_3 O 0.4883(2) 0.91244(12) 0.60149(10)
O3_4 O 0.1460(2) 0.18223(14) 0.36779(12)
O4_4 O 0.0117(2) 0.16244(12) 0.35149(10)
C7_4 C 0.0321(3) 0.2180(2) 0.40974(16)
C8_4 C 0.0649(3) 0.18581(18) 0.37438(13)
C10_4 C 0.0524(8) 0.2866(5) 0.4588(4)
H19_4 H 0.0861 0.3130 0.4703
C12_4 C 0.0881(8) 0.2571(5) 0.4264(4)
H21_4 H 0.1456 0.2624 0.4160
In1_4 In 0.8750 0.3750 0.56570(2)
O1_4 O 0.8537(2) 0.31389(16) 0.51764(12)
O2_4 O 0.9872(2) 0.33839(13) 0.52976(11)
C5_4 C 0.9349(3) 0.31157(19) 0.50915(15)
C6_3 C 0.9668(3) 0.2780(2) 0.47485(16)
N3_3 N 0.8289(9) 0.2294(6) 0.4705(5)
H17_3 H 0.8075 0.2558 0.4838
H18_3 H 0.7955 0.2228 0.4481
C9_3 C 0.9131(7) 0.2389(5) 0.4575(4)
C11_3 C 0.9483(7) 0.2090(5) 0.4249(4)
H20_3 H 0.9147 0.1826 0.4132
O5_4 O 0.8963(2) 0.43611(16) 0.51764(12)
O6_4 O 0.7628(2) 0.41161(13) 0.52976(11)
O7_4 O 0.6040(2) 0.56777(14) 0.36779(12)
O8_4 O 0.7383(2) 0.58756(12) 0.35149(10)
C13_4 C 0.8151(3) 0.43843(19) 0.50915(15)
C14_3 C 0.7832(3) 0.4720(2) 0.47485(16)
C15_4 C 0.7179(3) 0.5320(2) 0.40974(16)
C16_4 C 0.6851(3) 0.56419(18) 0.37438(13)
N4_4 N 0.9211(9) 0.5206(6) 0.4705(5)
H22_3 H 0.9425 0.4942 0.4838
H23_4 H 0.9545 0.5272 0.4481
C17_4 C 0.8369(7) 0.5111(5) 0.4575(4)
C18_3 C 0.6976(8) 0.4634(5) 0.4588(4)
H24_3 H 0.6639 0.4370 0.4703
C19_4 C 0.8017(7) 0.5410(5) 0.4249(4)
H25_4 H 0.8353 0.5674 0.4132
C20_3 C 0.6619(8) 0.4929(5) 0.4264(4)
H26_3 H 0.6044 0.4876 0.4160
O9_4 O 0.8540(2) 0.43223(14) 0.61779(12)
O10_4 O 0.8960(2) 0.31777(14) 0.61779(12)
O11_4 O 0.9883(2) 0.41244(12) 0.60149(10)
O12_4 O 0.7617(2) 0.33756(12) 0.60149(10)
O1_5 O 0.6037(2) 0.18611(16) 0.76764(12)
O2_5 O 0.7372(2) 0.16161(13) 0.77976(11)
C5_5 C 0.6849(3) 0.18843(19) 0.75915(15)
C6_4 C 0.7168(3) 0.2220(2) 0.72485(16)
C7_5 C 0.7821(3) 0.2820(2) 0.65974(16)
C8_5 C 0.8149(3) 0.31419(18) 0.62438(13)
N3_4 N 0.5789(9) 0.2706(6) 0.7205(5)
H17_4 H 0.5575 0.2442 0.7338
H18_4 H 0.5455 0.2772 0.6981
C9_4 C 0.6631(7) 0.2611(5) 0.7075(4)
C10_5 C 0.8024(8) 0.2134(5) 0.7088(4)
H19_5 H 0.8361 0.1870 0.7203
C11_4 C 0.6983(7) 0.2910(5) 0.6749(4)
H20_4 H 0.6647 0.3174 0.6632
C12_5 C 0.8381(8) 0.2429(5) 0.6764(4)
H21_5 H 0.8956 0.2376 0.6660
O5_5 O 0.6463(2) 0.06389(16) 0.76764(12)
O6_5 O 0.5128(2) 0.08839(13) 0.77976(11)
C13_5 C 0.5651(3) 0.06157(19) 0.75915(15)
C14_4 C 0.5332(3) 0.0280(2) 0.72485(16)
H22_4 H 0.6925 0.0058 0.7338
C18_4 C 0.4476(8) 0.0366(5) 0.7088(4)
H24_4 H 0.4139 0.0630 0.7203
C20_4 C 0.4119(8) 0.0071(5) 0.6764(4)
H26_4 H 0.3544 0.0124 0.6660
C15_5 C 0.4679(3) 0.9680(2) 0.65974(16)
C16_5 C 0.4351(3) 0.93581(18) 0.62438(13)
N4_5 N 0.6711(9) 0.9794(6) 0.7205(5)
H23_5 H 0.7045 0.9728 0.6981
C17_5 C 0.5869(7) 0.9889(5) 0.7075(4)
C19_5 C 0.5517(7) 0.9590(5) 0.6749(4)
H25_5 H 0.5853 0.9326 0.6632
O1_6 O 0.1463(2) 0.56389(16) 0.76764(12)
O2_6 O 0.0128(2) 0.58839(13) 0.77976(11)
C5_6 C 0.0651(3) 0.56157(19) 0.75915(15)
C6_5 C 0.0332(3) 0.5280(2) 0.72485(16)
N3_5 N 0.1711(9) 0.4794(6) 0.7205(5)
H17_5 H 0.1925 0.5058 0.7338
H18_5 H 0.2045 0.4728 0.6981
C9_5 C 0.0869(7) 0.4889(5) 0.7075(4)
C11_5 C 0.0517(7) 0.4590(5) 0.6749(4)
H20_5 H 0.0853 0.4326 0.6632
O5_6 O 0.1037(2) 0.68611(16) 0.76764(12)
O6_6 O 0.2372(2) 0.66161(13) 0.77976(11)
C13_6 C 0.1849(3) 0.68843(19) 0.75915(15)
C14_5 C 0.2168(3) 0.7220(2) 0.72485(16)
C15_6 C 0.2821(3) 0.7820(2) 0.65974(16)
C16_6 C 0.3149(3) 0.81419(18) 0.62438(13)
N4_6 N 0.0789(9) 0.7706(6) 0.7205(5)
H22_5 H 0.0575 0.7442 0.7338
H23_6 H 0.0455 0.7772 0.6981
C17_6 C 0.1631(7) 0.7611(5) 0.7075(4)
C18_5 C 0.3024(8) 0.7134(5) 0.7088(4)
H24_5 H 0.3361 0.6870 0.7203
C19_6 C 0.1983(7) 0.7910(5) 0.6749(4)
H25_6 H 0.1647 0.8174 0.6632
C20_5 C 0.3381(8) 0.7429(5) 0.6764(4)
H26_5 H 0.3956 0.7376 0.6660
C7_6 C 0.9679(3) 0.4680(2) 0.65974(16)
C8_6 C 0.9351(3) 0.43581(18) 0.62438(13)
C10_6 C 0.9476(8) 0.5366(5) 0.7088(4)
H19_6 H 0.9139 0.5630 0.7203
C12_6 C 0.9119(8) 0.5071(5) 0.6764(4)
H21_6 H 0.8544 0.5124 0.6660
O1_7 O 0.6037(2) 0.68611(16) 0.26764(12)
O2_7 O 0.7372(2) 0.66161(13) 0.27976(11)
C5_7 C 0.6849(3) 0.68843(19) 0.25915(15)
C6_6 C 0.7168(3) 0.7220(2) 0.22485(16)
C7_7 C 0.7821(3) 0.7820(2) 0.15974(16)
C8_7 C 0.8149(3) 0.81419(18) 0.12438(13)
N3_6 N 0.5789(9) 0.7706(6) 0.2205(5)
H17_6 H 0.5575 0.7442 0.2338
H18_6 H 0.5455 0.7772 0.1981
C9_6 C 0.6631(7) 0.7611(5) 0.2075(4)
C10_7 C 0.8024(8) 0.7134(5) 0.2088(4)
H19_7 H 0.8361 0.6870 0.2203
C11_6 C 0.6983(7) 0.7910(5) 0.1749(4)
H20_6 H 0.6647 0.8174 0.1632
C12_7 C 0.8381(8) 0.7429(5) 0.1764(4)
H21_7 H 0.8956 0.7376 0.1660
O5_7 O 0.6463(2) 0.56389(16) 0.26764(12)
O6_7 O 0.5128(2) 0.58839(13) 0.27976(11)
C13_7 C 0.5651(3) 0.56157(19) 0.25915(15)
C14_6 C 0.5332(3) 0.5280(2) 0.22485(16)
C15_7 C 0.4679(3) 0.4680(2) 0.15974(16)
C16_7 C 0.4351(3) 0.43581(18) 0.12438(13)
N4_7 N 0.6711(9) 0.4794(6) 0.2205(5)
H22_6 H 0.6925 0.5058 0.2338
H23_7 H 0.7045 0.4728 0.1981
C17_7 C 0.5869(7) 0.4889(5) 0.2075(4)
C18_6 C 0.4476(8) 0.5366(5) 0.2088(4)
H24_6 H 0.4139 0.5630 0.2203
C19_7 C 0.5517(7) 0.4590(5) 0.1749(4)
H25_7 H 0.5853 0.4326 0.1632
C20_6 C 0.4119(8) 0.5071(5) 0.1764(4)
H26_6 H 0.3544 0.5124 0.1660
O1_8 O 0.1463(2) 0.06389(16) 0.26764(12)
O2_8 O 0.0128(2) 0.08839(13) 0.27976(11)
C5_8 C 0.0651(3) 0.06157(19) 0.25915(15)
C6_7 C 0.0332(3) 0.0280(2) 0.22485(16)
H17_7 H 0.1925 0.0058 0.2338
O5_8 O 0.1037(2) 0.18611(16) 0.26764(12)
O6_8 O 0.2372(2) 0.16161(13) 0.27976(11)
C13_8 C 0.1849(3) 0.18843(19) 0.25915(15)
C14_7 C 0.2168(3) 0.2220(2) 0.22485(16)
C15_8 C 0.2821(3) 0.2820(2) 0.15974(16)
C16_8 C 0.3149(3) 0.31419(18) 0.12438(13)
N4_8 N 0.0789(9) 0.2706(6) 0.2205(5)
H22_7 H 0.0575 0.2442 0.2338
H23_8 H 0.0455 0.2772 0.1981
C17_8 C 0.1631(7) 0.2611(5) 0.2075(4)
C18_7 C 0.3024(8) 0.2134(5) 0.2088(4)
H24_7 H 0.3361 0.1870 0.2203
C19_8 C 0.1983(7) 0.2910(5) 0.1749(4)
H25_8 H 0.1647 0.3174 0.1632
C20_7 C 0.3381(8) 0.2429(5) 0.1764(4)
H26_7 H 0.3956 0.2376 0.1660
C7_8 C 0.9679(3) 0.9680(2) 0.15974(16)
C8_8 C 0.9351(3) 0.93581(18) 0.12438(13)
C6_8 C 0.9668(3) 0.7780(2) 0.97485(16)
N3_7 N 0.8289(9) 0.7294(6) 0.9705(5)
H17_8 H 0.8075 0.7558 0.9838
H18_7 H 0.7955 0.7228 0.9481
C9_7 C 0.9131(7) 0.7389(5) 0.9575(4)
C11_7 C 0.9483(7) 0.7090(5) 0.9249(4)
H20_7 H 0.9147 0.6826 0.9132
C14_8 C 0.7832(3) 0.9720(2) 0.97485(16)
H22_8 H 0.9425 0.9942 0.9838
C18_8 C 0.6976(8) 0.9634(5) 0.9588(4)
H24_8 H 0.6639 0.9370 0.9703
C20_8 C 0.6619(8) 0.9929(5) 0.9264(4)
H26_8 H 0.6044 0.9876 0.9160
O7_5 O 0.6460(2) 0.06777(14) 0.38221(12)
O8_5 O 0.5117(2) 0.08756(12) 0.39851(10)
C15_9 C 0.5321(3) 0.0320(2) 0.34026(16)
C16_9 C 0.5649(3) 0.06419(18) 0.37562(13)
N4_9 N 0.3289(9) 0.0206(6) 0.2795(5)
H23_9 H 0.2955 0.0272 0.3019
C17_9 C 0.4131(7) 0.0111(5) 0.2925(4)
C19_9 C 0.4483(7) 0.0410(5) 0.3251(4)
H25_9 H 0.4147 0.0674 0.3368
In2_3 In 0.6250 0.1250 0.43430(2)
In1_5 In 0.3750 0.8750 0.18430(2)
O1_9 O 0.3963(2) 0.81389(16) 0.23236(12)
O2_9 O 0.2628(2) 0.83839(13) 0.22024(11)
O3_5 O 0.1040(2) 0.68223(14) 0.38221(12)
O4_5 O 0.2383(2) 0.66244(12) 0.39851(10)
C5_9 C 0.3151(3) 0.81157(19) 0.24085(15)
C6_9 C 0.2832(3) 0.7780(2) 0.27515(16)
C7_9 C 0.2179(3) 0.7180(2) 0.34026(16)
C8_9 C 0.1851(3) 0.68581(18) 0.37562(13)
N3_8 N 0.4211(9) 0.7294(6) 0.2795(5)
H17_9 H 0.4425 0.7558 0.2662
H18_8 H 0.4545 0.7228 0.3019
C9_8 C 0.3369(7) 0.7389(5) 0.2925(4)
C10_8 C 0.1976(8) 0.7866(5) 0.2912(4)
H19_8 H 0.1639 0.8130 0.2797
C11_8 C 0.3017(7) 0.7090(5) 0.3251(4)
H20_8 H 0.3353 0.6826 0.3368
C12_8 C 0.1619(8) 0.7571(5) 0.3236(4)
H21_8 H 0.1044 0.7624 0.3340
O5_9 O 0.3537(2) 0.93611(16) 0.23236(12)
O6_9 O 0.4872(2) 0.91161(13) 0.22024(11)
C13_9 C 0.4349(3) 0.93843(19) 0.24085(15)
C14_9 C 0.4668(3) 0.9720(2) 0.27515(16)
H22_9 H 0.3075 0.9942 0.2662
C18_9 C 0.5524(8) 0.9634(5) 0.2912(4)
H24_9 H 0.5861 0.9370 0.2797
C20_9 C 0.5881(8) 0.9929(5) 0.3236(4)
H26_9 H 0.6456 0.9876 0.3340
In3_3 In 0.1250 0.6250 0.43430(2)
O9_5 O 0.3960(2) 0.93223(14) 0.13221(12)
O10_5 O 0.3540(2) 0.81777(14) 0.13221(12)
O11_5 O 0.2617(2) 0.91244(12) 0.14851(10)
O12_5 O 0.4883(2) 0.83756(12) 0.14851(10)
O3_6 O 0.1460(2) 0.56777(14) 0.38221(12)
O4_6 O 0.0117(2) 0.58756(12) 0.39851(10)
C7_10 C 0.0321(3) 0.5320(2) 0.34026(16)
C8_10 C 0.0649(3) 0.56419(18) 0.37562(13)
C10_9 C 0.0524(8) 0.4634(5) 0.2912(4)
H19_9 H 0.0861 0.4370 0.2797
C12_9 C 0.0881(8) 0.4929(5) 0.3236(4)
H21_9 H 0.1456 0.4876 0.3340
In1_6 In 0.8750 0.3750 0.18430(2)
O1_10 O 0.8537(2) 0.43611(16) 0.23236(12)
O2_10 O 0.9872(2) 0.41161(13) 0.22024(11)
C5_10 C 0.9349(3) 0.43843(19) 0.24085(15)
C6_10 C 0.9668(3) 0.4720(2) 0.27515(16)
N3_9 N 0.8289(9) 0.5206(6) 0.2795(5)
H17_10 H 0.8075 0.4942 0.2662
H18_9 H 0.7955 0.5272 0.3019
C9_9 C 0.9131(7) 0.5111(5) 0.2925(4)
C11_9 C 0.9483(7) 0.5410(5) 0.3251(4)
H20_9 H 0.9147 0.5674 0.3368
O5_10 O 0.8963(2) 0.31389(16) 0.23236(12)
O6_10 O 0.7628(2) 0.33839(13) 0.22024(11)
O7_6 O 0.6040(2) 0.18223(14) 0.38221(12)
O8_6 O 0.7383(2) 0.16244(12) 0.39851(10)
C13_10 C 0.8151(3) 0.31157(19) 0.24085(15)
C14_10 C 0.7832(3) 0.2780(2) 0.27515(16)
C15_10 C 0.7179(3) 0.2180(2) 0.34026(16)
C16_10 C 0.6851(3) 0.18581(18) 0.37562(13)
N4_10 N 0.9211(9) 0.2294(6) 0.2795(5)
H22_10 H 0.9425 0.2558 0.2662
H23_10 H 0.9545 0.2228 0.3019
C17_10 C 0.8369(7) 0.2389(5) 0.2925(4)
C18_10 C 0.6976(8) 0.2866(5) 0.2912(4)
H24_10 H 0.6639 0.3130 0.2797
C19_10 C 0.8017(7) 0.2090(5) 0.3251(4)
H25_10 H 0.8353 0.1826 0.3368
C20_10 C 0.6619(8) 0.2571(5) 0.3236(4)
H26_10 H 0.6044 0.2624 0.3340
O9_6 O 0.8540(2) 0.31777(14) 0.13221(12)
O10_6 O 0.8960(2) 0.43223(14) 0.13221(12)
O11_6 O 0.9883(2) 0.33756(12) 0.14851(10)
O12_6 O 0.7617(2) 0.41244(12) 0.14851(10)
In1_7 In 0.3750 0.3750 0.68430(2)
O1_11 O 0.3963(2) 0.31389(16) 0.73236(12)
O2_11 O 0.2628(2) 0.33839(13) 0.72024(11)
O3_7 O 0.1040(2) 0.18223(14) 0.88221(12)
O4_7 O 0.2383(2) 0.16244(12) 0.89851(10)
C5_11 C 0.3151(3) 0.31157(19) 0.74085(15)
C6_11 C 0.2832(3) 0.2780(2) 0.77515(16)
C7_11 C 0.2179(3) 0.2180(2) 0.84026(16)
C8_11 C 0.1851(3) 0.18581(18) 0.87562(13)
N3_10 N 0.4211(9) 0.2294(6) 0.7795(5)
H17_11 H 0.4425 0.2558 0.7662
H18_10 H 0.4545 0.2228 0.8019
C9_10 C 0.3369(7) 0.2389(5) 0.7925(4)
C10_10 C 0.1976(8) 0.2866(5) 0.7912(4)
H19_10 H 0.1639 0.3130 0.7797
C11_10 C 0.3017(7) 0.2090(5) 0.8251(4)
H20_10 H 0.3353 0.1826 0.8368
C12_10 C 0.1619(8) 0.2571(5) 0.8236(4)
H21_10 H 0.1044 0.2624 0.8340
O5_11 O 0.3537(2) 0.43611(16) 0.73236(12)
O6_11 O 0.4872(2) 0.41161(13) 0.72024(11)
O7_7 O 0.6460(2) 0.56777(14) 0.88221(12)
O8_7 O 0.5117(2) 0.58756(12) 0.89851(10)
C13_11 C 0.4349(3) 0.43843(19) 0.74085(15)
C14_11 C 0.4668(3) 0.4720(2) 0.77515(16)
C15_11 C 0.5321(3) 0.5320(2) 0.84026(16)
C16_11 C 0.5649(3) 0.56419(18) 0.87562(13)
N4_11 N 0.3289(9) 0.5206(6) 0.7795(5)
H22_11 H 0.3075 0.4942 0.7662
H23_11 H 0.2955 0.5272 0.8019
C17_11 C 0.4131(7) 0.5111(5) 0.7925(4)
C18_11 C 0.5524(8) 0.4634(5) 0.7912(4)
H24_11 H 0.5861 0.4370 0.7797
C19_11 C 0.4483(7) 0.5410(5) 0.8251(4)
H25_11 H 0.4147 0.5674 0.8368
C20_11 C 0.5881(8) 0.4929(5) 0.8236(4)
H26_11 H 0.6456 0.4876 0.8340
In2_4 In 0.6250 0.6250 0.93430(2)
In3_4 In 0.1250 0.1250 0.93430(2)
O9_7 O 0.3960(2) 0.43223(14) 0.63221(12)
O10_7 O 0.3540(2) 0.31777(14) 0.63221(12)
O11_7 O 0.2617(2) 0.41244(12) 0.64851(10)
O12_7 O 0.4883(2) 0.33756(12) 0.64851(10)
O3_8 O 0.1460(2) 0.06777(14) 0.88221(12)
O4_8 O 0.0117(2) 0.08756(12) 0.89851(10)
C7_12 C 0.0321(3) 0.0320(2) 0.84026(16)
C8_12 C 0.0649(3) 0.06419(18) 0.87562(13)
In1_8 In 0.8750 0.8750 0.68430(2)
O1_12 O 0.8537(2) 0.93611(16) 0.73236(12)
O2_12 O 0.9872(2) 0.91161(13) 0.72024(11)
C5_12 C 0.9349(3) 0.93843(19) 0.74085(15)
C6_12 C 0.9668(3) 0.9720(2) 0.77515(16)
H17_12 H 0.8075 0.9942 0.7662
O5_12 O 0.8963(2) 0.81389(16) 0.73236(12)
O6_12 O 0.7628(2) 0.83839(13) 0.72024(11)
O7_8 O 0.6040(2) 0.68223(14) 0.88221(12)
O8_8 O 0.7383(2) 0.66244(12) 0.89851(10)
C13_12 C 0.8151(3) 0.81157(19) 0.74085(15)
C14_12 C 0.7832(3) 0.7780(2) 0.77515(16)
C15_12 C 0.7179(3) 0.7180(2) 0.84026(16)
C16_12 C 0.6851(3) 0.68581(18) 0.87562(13)
N4_12 N 0.9211(9) 0.7294(6) 0.7795(5)
H22_12 H 0.9425 0.7558 0.7662
H23_12 H 0.9545 0.7228 0.8019
C17_12 C 0.8369(7) 0.7389(5) 0.7925(4)
C18_12 C 0.6976(8) 0.7866(5) 0.7912(4)
H24_12 H 0.6639 0.8130 0.7797
C19_12 C 0.8017(7) 0.7090(5) 0.8251(4)
H25_12 H 0.8353 0.6826 0.8368
C20_12 C 0.6619(8) 0.7571(5) 0.8236(4)
H26_12 H 0.6044 0.7624 0.8340
O9_8 O 0.8540(2) 0.81777(14) 0.63221(12)
O10_8 O 0.8960(2) 0.93223(14) 0.63221(12)
O11_8 O 0.9883(2) 0.83756(12) 0.64851(10)
O12_8 O 0.7617(2) 0.91244(12) 0.64851(10)
C6_13 C 0.7168(3) 0.5280(2) 0.02515(16)
C7_13 C 0.7821(3) 0.4680(2) 0.09026(16)
C8_13 C 0.8149(3) 0.43581(18) 0.12562(13)
N3_11 N 0.5789(9) 0.4794(6) 0.0295(5)
H17_13 H 0.5575 0.5058 0.0162
H18_11 H 0.5455 0.4728 0.0519
C9_11 C 0.6631(7) 0.4889(5) 0.0425(4)
C10_11 C 0.8024(8) 0.5366(5) 0.0412(4)
H19_11 H 0.8361 0.5630 0.0297
C11_11 C 0.6983(7) 0.4590(5) 0.0751(4)
H20_11 H 0.6647 0.4326 0.0868
C12_11 C 0.8381(8) 0.5071(5) 0.0736(4)
H21_11 H 0.8956 0.5124 0.0840
C14_13 C 0.5332(3) 0.7220(2) 0.02515(16)
C15_13 C 0.4679(3) 0.7820(2) 0.09026(16)
C16_13 C 0.4351(3) 0.81419(18) 0.12562(13)
N4_13 N 0.6711(9) 0.7706(6) 0.0295(5)
H22_13 H 0.6925 0.7442 0.0162
H23_13 H 0.7045 0.7772 0.0519
C17_13 C 0.5869(7) 0.7611(5) 0.0425(4)
C18_13 C 0.4476(8) 0.7134(5) 0.0412(4)
H24_13 H 0.4139 0.6870 0.0297
C19_13 C 0.5517(7) 0.7910(5) 0.0751(4)
H25_13 H 0.5853 0.8174 0.0868
C20_13 C 0.4119(8) 0.7429(5) 0.0736(4)
H26_13 H 0.3544 0.7376 0.0840
O1_13 O 0.6037(2) 0.56389(16) 0.98236(12)
O2_13 O 0.7372(2) 0.58839(13) 0.97024(11)
C5_13 C 0.6849(3) 0.56157(19) 0.99085(15)
O5_13 O 0.6463(2) 0.68611(16) 0.98236(12)
O6_13 O 0.5128(2) 0.66161(13) 0.97024(11)
C13_13 C 0.5651(3) 0.68843(19) 0.99085(15)
O1_14 O 0.1463(2) 0.18611(16) 0.98236(12)
O2_14 O 0.0128(2) 0.16161(13) 0.97024(11)
C5_14 C 0.0651(3) 0.18843(19) 0.99085(15)
O5_14 O 0.1037(2) 0.06389(16) 0.98236(12)
O6_14 O 0.2372(2) 0.08839(13) 0.97024(11)
C13_14 C 0.1849(3) 0.06157(19) 0.99085(15)
C15_14 C 0.2821(3) 0.9680(2) 0.09026(16)
C16_14 C 0.3149(3) 0.93581(18) 0.12562(13)
N4_14 N 0.0789(9) 0.9794(6) 0.0295(5)
H23_14 H 0.0455 0.9728 0.0519
C17_14 C 0.1631(7) 0.9889(5) 0.0425(4)
C19_14 C 0.1983(7) 0.9590(5) 0.0751(4)
H25_14 H 0.1647 0.9326 0.0868
C7_14 C 0.9679(3) 0.2820(2) 0.09026(16)
C8_14 C 0.9351(3) 0.31419(18) 0.12562(13)
C10_12 C 0.9476(8) 0.2134(5) 0.0412(4)
H19_12 H 0.9139 0.1870 0.0297
C12_12 C 0.9119(8) 0.2429(5) 0.0736(4)
H21_12 H 0.8544 0.2376 0.0840
O1_15 O 0.6037(2) 0.06389(16) 0.48236(12)
O2_15 O 0.7372(2) 0.08839(13) 0.47024(11)
C5_15 C 0.6849(3) 0.06157(19) 0.49085(15)
C6_14 C 0.7168(3) 0.0280(2) 0.52515(16)
H17_14 H 0.5575 0.0058 0.5162
C10_13 C 0.8024(8) 0.0366(5) 0.5412(4)
H19_13 H 0.8361 0.0630 0.5297
C12_13 C 0.8381(8) 0.0071(5) 0.5736(4)
H21_13 H 0.8956 0.0124 0.5840
O5_15 O 0.6463(2) 0.18611(16) 0.48236(12)
O6_15 O 0.5128(2) 0.16161(13) 0.47024(11)
C13_15 C 0.5651(3) 0.18843(19) 0.49085(15)
C14_14 C 0.5332(3) 0.2220(2) 0.52515(16)
C15_15 C 0.4679(3) 0.2820(2) 0.59026(16)
C16_15 C 0.4351(3) 0.31419(18) 0.62562(13)
N4_15 N 0.6711(9) 0.2706(6) 0.5295(5)
H22_14 H 0.6925 0.2442 0.5162
H23_15 H 0.7045 0.2772 0.5519
C17_15 C 0.5869(7) 0.2611(5) 0.5425(4)
C18_14 C 0.4476(8) 0.2134(5) 0.5412(4)
H24_14 H 0.4139 0.1870 0.5297
C19_15 C 0.5517(7) 0.2910(5) 0.5751(4)
H25_15 H 0.5853 0.3174 0.5868
C20_14 C 0.4119(8) 0.2429(5) 0.5736(4)
H26_14 H 0.3544 0.2376 0.5840
C7_15 C 0.7821(3) 0.9680(2) 0.59026(16)
C8_15 C 0.8149(3) 0.93581(18) 0.62562(13)
N3_12 N 0.5789(9) 0.9794(6) 0.5295(5)
H18_12 H 0.5455 0.9728 0.5519
C9_12 C 0.6631(7) 0.9889(5) 0.5425(4)
C11_12 C 0.6983(7) 0.9590(5) 0.5751(4)
H20_12 H 0.6647 0.9326 0.5868
O1_16 O 0.1463(2) 0.68611(16) 0.48236(12)
O2_16 O 0.0128(2) 0.66161(13) 0.47024(11)
C5_16 C 0.0651(3) 0.68843(19) 0.49085(15)
C6_15 C 0.0332(3) 0.7220(2) 0.52515(16)
N3_13 N 0.1711(9) 0.7706(6) 0.5295(5)
H17_15 H 0.1925 0.7442 0.5162
H18_13 H 0.2045 0.7772 0.5519
C9_13 C 0.0869(7) 0.7611(5) 0.5425(4)
C11_13 C 0.0517(7) 0.7910(5) 0.5751(4)
H20_13 H 0.0853 0.8174 0.5868
O5_16 O 0.1037(2) 0.56389(16) 0.48236(12)
O6_16 O 0.2372(2) 0.58839(13) 0.47024(11)
C13_16 C 0.1849(3) 0.56157(19) 0.49085(15)
C14_15 C 0.2168(3) 0.5280(2) 0.52515(16)
C15_16 C 0.2821(3) 0.4680(2) 0.59026(16)
C16_16 C 0.3149(3) 0.43581(18) 0.62562(13)
N4_16 N 0.0789(9) 0.4794(6) 0.5295(5)
H22_15 H 0.0575 0.5058 0.5162
H23_16 H 0.0455 0.4728 0.5519
C17_16 C 0.1631(7) 0.4889(5) 0.5425(4)
C18_15 C 0.3024(8) 0.5366(5) 0.5412(4)
H24_15 H 0.3361 0.5630 0.5297
C19_16 C 0.1983(7) 0.4590(5) 0.5751(4)
H25_16 H 0.1647 0.4326 0.5868
C20_15 C 0.3381(8) 0.5071(5) 0.5736(4)
H26_15 H 0.3956 0.5124 0.5840
C7_16 C 0.9679(3) 0.7820(2) 0.59026(16)
C8_16 C 0.9351(3) 0.81419(18) 0.62562(13)
C10_14 C 0.9476(8) 0.7134(5) 0.5412(4)
H19_14 H 0.9139 0.6870 0.5297
C12_14 C 0.9119(8) 0.7429(5) 0.5736(4)
H21_14 H 0.8544 0.7376 0.5840
C10_15 C 0.0524(8) 0.9634(5) 0.7912(4)
H19_15 H 0.0861 0.9370 0.7797
C12_15 C 0.0881(8) 0.9929(5) 0.8236(4)
H21_15 H 0.1456 0.9876 0.8340
N3_14 N 0.8289(9) 0.0206(6) 0.7795(5)
H18_14 H 0.7955 0.0272 0.8019
C9_14 C 0.9131(7) 0.0111(5) 0.7925(4)
C11_14 C 0.9483(7) 0.0410(5) 0.8251(4)
H20_14 H 0.9147 0.0674 0.8368
C6_16 C 0.0332(3) 0.2220(2) 0.02515(16)
N3_15 N 0.1711(9) 0.2706(6) 0.0295(5)
H17_16 H 0.1925 0.2442 0.0162
H18_15 H 0.2045 0.2772 0.0519
C9_15 C 0.0869(7) 0.2611(5) 0.0425(4)
C11_15 C 0.0517(7) 0.2910(5) 0.0751(4)
H20_15 H 0.0853 0.3174 0.0868
C14_16 C 0.2168(3) 0.0280(2) 0.02515(16)
H22_16 H 0.0575 0.0058 0.0162
C18_16 C 0.3024(8) 0.0366(5) 0.0412(4)
H24_16 H 0.3361 0.0630 0.0297
C20_16 C 0.3381(8) 0.0071(5) 0.0736(4)
H26_16 H 0.3956 0.0124 0.0840
N3_16 N 0.1711(9) 0.9794(6) 0.2205(5)
H18_16 H 0.2045 0.9728 0.1981
C9_16 C 0.0869(7) 0.9889(5) 0.2075(4)
C11_16 C 0.0517(7) 0.9590(5) 0.1749(4)
H20_16 H 0.0853 0.9326 0.1632
C10_16 C 0.9476(8) 0.0366(5) 0.2088(4)
H19_16 H 0.9139 0.0630 0.2203
C12_16 C 0.9119(8) 0.0071(5) 0.1764(4)
H21_16 H 0.8544 0.0124 0.1660
loop_
_geom_bond_atom_site_label_1
_geom_bond_atom_site_label_2
_geom_bond_site_symmetry_1
_geom_bond_site_symmetry_2
N1 H1 1_555 1_555
H2 N1 1_555 1_555
C1 N1 1_555 1_555
H3 C1 1_555 1_555
H4 C1 1_555 1_555
H5 C1 1_555 1_555
C2 N1 1_555 1_555
H6 C2 1_555 1_555
H7 C2 1_555 1_555
H8 C2 1_555 1_555
H6_2 C2_2 1_555 1_555
H7_2 C2_2 1_555 1_555
H8_2 C2_2 1_555 1_555
N1_2 H1_2 1_555 1_555
H2_2 N1_2 1_555 1_555
C1_2 N1_2 1_555 1_555
H3_2 C1_2 1_555 1_555
H4_2 C1_2 1_555 1_555
H5_2 C1_2 1_555 1_555
N1_3 H1_3 1_555 1_555
H2_3 N1_3 1_555 1_555
C1_3 N1_3 1_555 1_555
H3_3 C1_3 1_555 1_555
H4_3 C1_3 1_555 1_555
H5_3 C1_3 1_555 1_555
C2_3 N1_3 1_555 1_555
H6_3 C2_3 1_555 1_555
H7_3 C2_3 1_555 1_555
H8_3 C2_3 1_555 1_555
H6_4 C2_4 1_555 1_555
H7_4 C2_4 1_555 1_555
H8_4 C2_4 1_555 1_555
N1_4 H1_4 1_555 1_555
H2_4 N1_4 1_555 1_555
C1_4 N1_4 1_555 1_555
H3_4 C1_4 1_555 1_555
H4_4 C1_4 1_555 1_555
H5_4 C1_4 1_555 1_555
N1_5 H1_5 1_555 1_555
H2_5 N1_5 1_555 1_555
C1_5 N1_5 1_555 1_555
H3_5 C1_5 1_555 1_555
H4_5 C1_5 1_555 1_555
H5_5 C1_5 1_555 1_555
C2_5 N1_5 1_555 1_555
H6_5 C2_5 1_555 1_555
H7_5 C2_5 1_555 1_555
H8_5 C2_5 1_555 1_555
H6_6 C2_6 1_555 1_555
H7_6 C2_6 1_555 1_555
H8_6 C2_6 1_555 1_555
N1_6 H1_6 1_555 1_555
H2_6 N1_6 1_555 1_555
C1_6 N1_6 1_555 1_555
H3_6 C1_6 1_555 1_555
H4_6 C1_6 1_555 1_555
H5_6 C1_6 1_555 1_555
N1_7 H1_7 1_555 1_555
H2_7 N1_7 1_555 1_555
C1_7 N1_7 1_555 1_555
H3_7 C1_7 1_555 1_555
H4_7 C1_7 1_555 1_555
H5_7 C1_7 1_555 1_555
C2_7 N1_7 1_555 1_555
H6_7 C2_7 1_555 1_555
H7_7 C2_7 1_555 1_555
H8_7 C2_7 1_555 1_555
H6_8 C2_8 1_555 1_555
H7_8 C2_8 1_555 1_555
H8_8 C2_8 1_555 1_555
N1_8 H1_8 1_555 1_555
H2_8 N1_8 1_555 1_555
C1_8 N1_8 1_555 1_555
H3_8 C1_8 1_555 1_555
H4_8 C1_8 1_555 1_555
H5_8 C1_8 1_555 1_555
N1_9 H1_9 1_555 1_555
H2_9 N1_9 1_555 1_555
C1_9 N1_9 1_555 1_555
H3_9 C1_9 1_555 1_555
H4_9 C1_9 1_555 1_555
H5_9 C1_9 1_555 1_555
C2_9 N1_9 1_555 1_555
H6_9 C2_9 1_555 1_555
H7_9 C2_9 1_555 1_555
H8_9 C2_9 1_555 1_555
N1_10 H1_10 1_555 1_555
H2_10 N1_10 1_555 1_555
C1_10 N1_10 1_555 1_555
H3_10 C1_10 1_555 1_555
H4_10 C1_10 1_555 1_555
H5_10 C1_10 1_555 1_555
C2_10 N1_10 1_555 1_555
H6_10 C2_10 1_555 1_555
H7_10 C2_10 1_555 1_555
H8_10 C2_10 1_555 1_555
N1_11 H1_11 1_555 1_555
H2_11 N1_11 1_555 1_555
C1_11 N1_11 1_555 1_555
H3_11 C1_11 1_555 1_555
H4_11 C1_11 1_555 1_555
H5_11 C1_11 1_555 1_555
C2_11 N1_11 1_555 1_555
H6_11 C2_11 1_555 1_555
H7_11 C2_11 1_555 1_555
H8_11 C2_11 1_555 1_555
N1_12 H1_12 1_555 1_555
H2_12 N1_12 1_555 1_555
C1_12 N1_12 1_555 1_555
H3_12 C1_12 1_555 1_555
H4_12 C1_12 1_555 1_555
H5_12 C1_12 1_555 1_555
C2_12 N1_12 1_555 1_555
H6_12 C2_12 1_555 1_555
H7_12 C2_12 1_555 1_555
H8_12 C2_12 1_555 1_555
N1_13 H1_13 1_555 1_555
H2_13 N1_13 1_555 1_555
C1_13 N1_13 1_555 1_555
H3_13 C1_13 1_555 1_555
H4_13 C1_13 1_555 1_555
H5_13 C1_13 1_555 1_555
C2_13 N1_13 1_555 1_555
H6_13 C2_13 1_555 1_555
H7_13 C2_13 1_555 1_555
H8_13 C2_13 1_555 1_555
N1_14 H1_14 1_555 1_555
H2_14 N1_14 1_555 1_555
C1_14 N1_14 1_555 1_555
H3_14 C1_14 1_555 1_555
H4_14 C1_14 1_555 1_555
H5_14 C1_14 1_555 1_555
C2_14 N1_14 1_555 1_555
H6_14 C2_14 1_555 1_555
H7_14 C2_14 1_555 1_555
H8_14 C2_14 1_555 1_555
N1_15 H1_15 1_555 1_555
H2_15 N1_15 1_555 1_555
C1_15 N1_15 1_555 1_555
H3_15 C1_15 1_555 1_555
H4_15 C1_15 1_555 1_555
H5_15 C1_15 1_555 1_555
C2_15 N1_15 1_555 1_555
H6_15 C2_15 1_555 1_555
H7_15 C2_15 1_555 1_555
H8_15 C2_15 1_555 1_555
N1_16 H1_16 1_555 1_555
H2_16 N1_16 1_555 1_555
C1_16 N1_16 1_555 1_555
H3_16 C1_16 1_555 1_555
H4_16 C1_16 1_555 1_555
H5_16 C1_16 1_555 1_555
C2_16 N1_16 1_555 1_555
H6_16 C2_16 1_555 1_555
H7_16 C2_16 1_555 1_555
H8_16 C2_16 1_555 1_555
N1_17 H1_17 1_555 1_555
H2_17 N1_17 1_555 1_555
C1_17 N1_17 1_555 1_555
H3_17 C1_17 1_555 1_555
H4_17 C1_17 1_555 1_555
H5_17 C1_17 1_555 1_555
C2_17 N1_17 1_555 1_555
H6_17 C2_17 1_555 1_555
H7_17 C2_17 1_555 1_555
H8_17 C2_17 1_555 1_555
N1_18 H1_18 1_555 1_555
H2_18 N1_18 1_555 1_555
C1_18 N1_18 1_555 1_555
H3_18 C1_18 1_555 1_555
H4_18 C1_18 1_555 1_555
H5_18 C1_18 1_555 1_555
H6_18 C2_18 1_555 1_555
H7_18 C2_18 1_555 1_555
H8_18 C2_18 1_555 1_555
N1_19 H1_19 1_555 1_555
H2_19 N1_19 1_555 1_555
C1_19 N1_19 1_555 1_555
H3_19 C1_19 1_555 1_555
H4_19 C1_19 1_555 1_555
H5_19 C1_19 1_555 1_555
C2_19 N1_19 1_555 1_555
H6_19 C2_19 1_555 1_555
H7_19 C2_19 1_555 1_555
H8_19 C2_19 1_555 1_555
N1_20 H1_20 1_555 1_555
H2_20 N1_20 1_555 1_555
C1_20 N1_20 1_555 1_555
H3_20 C1_20 1_555 1_555
H4_20 C1_20 1_555 1_555
H5_20 C1_20 1_555 1_555
H6_20 C2_20 1_555 1_555
H7_20 C2_20 1_555 1_555
H8_20 C2_20 1_555 1_555
N1_21 H1_21 1_555 1_555
H2_21 N1_21 1_555 1_555
C1_21 N1_21 1_555 1_555
H3_21 C1_21 1_555 1_555
H4_21 C1_21 1_555 1_555
H5_21 C1_21 1_555 1_555
C2_21 N1_21 1_555 1_555
H6_21 C2_21 1_555 1_555
H7_21 C2_21 1_555 1_555
H8_21 C2_21 1_555 1_555
N1_22 H1_22 1_555 1_555
H2_22 N1_22 1_555 1_555
C1_22 N1_22 1_555 1_555
H3_22 C1_22 1_555 1_555
H4_22 C1_22 1_555 1_555
H5_22 C1_22 1_555 1_555
H6_22 C2_22 1_555 1_555
H7_22 C2_22 1_555 1_555
H8_22 C2_22 1_555 1_555
N1_23 H1_23 1_555 1_555
H2_23 N1_23 1_555 1_555
C1_23 N1_23 1_555 1_555
H3_23 C1_23 1_555 1_555
H4_23 C1_23 1_555 1_555
H5_23 C1_23 1_555 1_555
C2_23 N1_23 1_555 1_555
H6_23 C2_23 1_555 1_555
H7_23 C2_23 1_555 1_555
H8_23 C2_23 1_555 1_555
N1_24 H1_24 1_555 1_555
H2_24 N1_24 1_555 1_555
C1_24 N1_24 1_555 1_555
H3_24 C1_24 1_555 1_555
H4_24 C1_24 1_555 1_555
H5_24 C1_24 1_555 1_555
H6_24 C2_24 1_555 1_555
H7_24 C2_24 1_555 1_555
H8_24 C2_24 1_555 1_555
N1_25 H1_25 1_555 1_555
H2_25 N1_25 1_555 1_555
C1_25 N1_25 1_555 1_555
H3_25 C1_25 1_555 1_555
H4_25 C1_25 1_555 1_555
H5_25 C1_25 1_555 1_555
C2_25 N1_25 1_555 1_555
H6_25 C2_25 1_555 1_555
H7_25 C2_25 1_555 1_555
H8_25 C2_25 1_555 1_555
N1_26 H1_26 1_555 1_555
H2_26 N1_26 1_555 1_555
C1_26 N1_26 1_555 1_555
H3_26 C1_26 1_555 1_555
H4_26 C1_26 1_555 1_555
H5_26 C1_26 1_555 1_555
C2_26 N1_26 1_555 1_555
H6_26 C2_26 1_555 1_555
H7_26 C2_26 1_555 1_555
H8_26 C2_26 1_555 1_555
N1_27 H1_27 1_555 1_555
H2_27 N1_27 1_555 1_555
C1_27 N1_27 1_555 1_555
H3_27 C1_27 1_555 1_555
H4_27 C1_27 1_555 1_555
H5_27 C1_27 1_555 1_555
C2_27 N1_27 1_555 1_555
H6_27 C2_27 1_555 1_555
H7_27 C2_27 1_555 1_555
H8_27 C2_27 1_555 1_555
N1_28 H1_28 1_555 1_555
H2_28 N1_28 1_555 1_555
C1_28 N1_28 1_555 1_555
H3_28 C1_28 1_555 1_555
H4_28 C1_28 1_555 1_555
H5_28 C1_28 1_555 1_555
C2_28 N1_28 1_555 1_555
H6_28 C2_28 1_555 1_555
H7_28 C2_28 1_555 1_555
H8_28 C2_28 1_555 1_555
N1_29 H1_29 1_555 1_555
H2_29 N1_29 1_555 1_555
C1_29 N1_29 1_555 1_555
H3_29 C1_29 1_555 1_555
H4_29 C1_29 1_555 1_555
H5_29 C1_29 1_555 1_555
C2_29 N1_29 1_555 1_555
H6_29 C2_29 1_555 1_555
H7_29 C2_29 1_555 1_555
H8_29 C2_29 1_555 1_555
N1_30 H1_30 1_555 1_555
H2_30 N1_30 1_555 1_555
C1_30 N1_30 1_555 1_555
H3_30 C1_30 1_555 1_555
H4_30 C1_30 1_555 1_555
H5_30 C1_30 1_555 1_555
C2_30 N1_30 1_555 1_555
H6_30 C2_30 1_555 1_555
H7_30 C2_30 1_555 1_555
H8_30 C2_30 1_555 1_555
N1_31 H1_31 1_555 1_555
H2_31 N1_31 1_555 1_555
C1_31 N1_31 1_555 1_555
H3_31 C1_31 1_555 1_555
H4_31 C1_31 1_555 1_555
H5_31 C1_31 1_555 1_555
C2_31 N1_31 1_555 1_555
H6_31 C2_31 1_555 1_555
H7_31 C2_31 1_555 1_555
H8_31 C2_31 1_555 1_555
N1_32 H1_32 1_555 1_555
H2_32 N1_32 1_555 1_555
C1_32 N1_32 1_555 1_555
H3_32 C1_32 1_555 1_555
H4_32 C1_32 1_555 1_555
H5_32 C1_32 1_555 1_555
C2_32 N1_32 1_555 1_555
H6_32 C2_32 1_555 1_555
H7_32 C2_32 1_555 1_555
H8_32 C2_32 1_555 1_555
N2 H9 1_555 1_555
C3 N2 1_555 1_555
H10 C3 1_555 1_555
H11 C3 1_555 1_555
H12 C3 1_555 1_555
H13 N2 1_555 1_555
C4 N2 1_555 1_555
H14 C4 1_555 1_555
H15 C4 1_555 1_555
H16 C4 1_555 1_555
N2_2 H9_2 1_555 1_555
C3_2 N2_2 1_555 1_555
H10_2 C3_2 1_555 1_555
H11_2 C3_2 1_555 1_555
H12_2 C3_2 1_555 1_555
H13_2 N2_2 1_555 1_555
C4_2 N2_2 1_555 1_555
H14_2 C4_2 1_555 1_555
H15_2 C4_2 1_555 1_555
H16_2 C4_2 1_555 1_555
N2_3 H9_3 1_555 1_555
C3_3 N2_3 1_555 1_555
H10_3 C3_3 1_555 1_555
H11_3 C3_3 1_555 1_555
H12_3 C3_3 1_555 1_555
H13_3 N2_3 1_555 1_555
C4_3 N2_3 1_555 1_555
H14_3 C4_3 1_555 1_555
H15_3 C4_3 1_555 1_555
H16_3 C4_3 1_555 1_555
N2_4 H9_4 1_555 1_555
C3_4 N2_4 1_555 1_555
H10_4 C3_4 1_555 1_555
H11_4 C3_4 1_555 1_555
H12_4 C3_4 1_555 1_555
H13_4 N2_4 1_555 1_555
C4_4 N2_4 1_555 1_555
H14_4 C4_4 1_555 1_555
H15_4 C4_4 1_555 1_555
H16_4 C4_4 1_555 1_555
N2_5 H9_5 1_555 1_555
C3_5 N2_5 1_555 1_555
H10_5 C3_5 1_555 1_555
H11_5 C3_5 1_555 1_555
H12_5 C3_5 1_555 1_555
H13_5 N2_5 1_555 1_555
C4_5 N2_5 1_555 1_555
H14_5 C4_5 1_555 1_555
H15_5 C4_5 1_555 1_555
H16_5 C4_5 1_555 1_555
N2_6 H9_6 1_555 1_555
C3_6 N2_6 1_555 1_555
H10_6 C3_6 1_555 1_555
H11_6 C3_6 1_555 1_555
H12_6 C3_6 1_555 1_555
H13_6 N2_6 1_555 1_555
C4_6 N2_6 1_555 1_555
H14_6 C4_6 1_555 1_555
H15_6 C4_6 1_555 1_555
H16_6 C4_6 1_555 1_555
N2_7 H9_7 1_555 1_555
C3_7 N2_7 1_555 1_555
H10_7 C3_7 1_555 1_555
H11_7 C3_7 1_555 1_555
H12_7 C3_7 1_555 1_555
H13_7 N2_7 1_555 1_555
C4_7 N2_7 1_555 1_555
H14_7 C4_7 1_555 1_555
H15_7 C4_7 1_555 1_555
H16_7 C4_7 1_555 1_555
N2_8 H9_8 1_555 1_555
C3_8 N2_8 1_555 1_555
H10_8 C3_8 1_555 1_555
H11_8 C3_8 1_555 1_555
H12_8 C3_8 1_555 1_555
H13_8 N2_8 1_555 1_555
C4_8 N2_8 1_555 1_555
H14_8 C4_8 1_555 1_555
H15_8 C4_8 1_555 1_555
H16_8 C4_8 1_555 1_555
N2_9 H9_9 1_555 1_555
C3_9 N2_9 1_555 1_555
H10_9 C3_9 1_555 1_555
H11_9 C3_9 1_555 1_555
H12_9 C3_9 1_555 1_555
H13_9 N2_9 1_555 1_555
C4_9 N2_9 1_555 1_555
H14_9 C4_9 1_555 1_555
H15_9 C4_9 1_555 1_555
H16_9 C4_9 1_555 1_555
N2_10 H9_10 1_555 1_555
C3_10 N2_10 1_555 1_555
H10_10 C3_10 1_555 1_555
H11_10 C3_10 1_555 1_555
H12_10 C3_10 1_555 1_555
H13_10 N2_10 1_555 1_555
C4_10 N2_10 1_555 1_555
H14_10 C4_10 1_555 1_555
H15_10 C4_10 1_555 1_555
H16_10 C4_10 1_555 1_555
N2_11 H9_11 1_555 1_555
C3_11 N2_11 1_555 1_555
H10_11 C3_11 1_555 1_555
H11_11 C3_11 1_555 1_555
H12_11 C3_11 1_555 1_555
H13_11 N2_11 1_555 1_555
C4_11 N2_11 1_555 1_555
H14_11 C4_11 1_555 1_555
H15_11 C4_11 1_555 1_555
H16_11 C4_11 1_555 1_555
N2_12 H9_12 1_555 1_555
C3_12 N2_12 1_555 1_555
H10_12 C3_12 1_555 1_555
H11_12 C3_12 1_555 1_555
H12_12 C3_12 1_555 1_555
H13_12 N2_12 1_555 1_555
C4_12 N2_12 1_555 1_555
H14_12 C4_12 1_555 1_555
H15_12 C4_12 1_555 1_555
H16_12 C4_12 1_555 1_555
N2_13 H9_13 1_555 1_555
C3_13 N2_13 1_555 1_555
H10_13 C3_13 1_555 1_555
H11_13 C3_13 1_555 1_555
H12_13 C3_13 1_555 1_555
H13_13 N2_13 1_555 1_555
C4_13 N2_13 1_555 1_555
H14_13 C4_13 1_555 1_555
H15_13 C4_13 1_555 1_555
H16_13 C4_13 1_555 1_555
N2_14 H9_14 1_555 1_555
C3_14 N2_14 1_555 1_555
H10_14 C3_14 1_555 1_555
H11_14 C3_14 1_555 1_555
H12_14 C3_14 1_555 1_555
H13_14 N2_14 1_555 1_555
C4_14 N2_14 1_555 1_555
H14_14 C4_14 1_555 1_555
H15_14 C4_14 1_555 1_555
H16_14 C4_14 1_555 1_555
N2_15 H9_15 1_555 1_555
C3_15 N2_15 1_555 1_555
H10_15 C3_15 1_555 1_555
H11_15 C3_15 1_555 1_555
H12_15 C3_15 1_555 1_555
H13_15 N2_15 1_555 1_555
C4_15 N2_15 1_555 1_555
H14_15 C4_15 1_555 1_555
H15_15 C4_15 1_555 1_555
H16_15 C4_15 1_555 1_555
N2_16 H9_16 1_555 1_555
C3_16 N2_16 1_555 1_555
H10_16 C3_16 1_555 1_555
H11_16 C3_16 1_555 1_555
H12_16 C3_16 1_555 1_555
H13_16 N2_16 1_555 1_555
C4_16 N2_16 1_555 1_555
H14_16 C4_16 1_555 1_555
H15_16 C4_16 1_555 1_555
H16_16 C4_16 1_555 1_555
In1 O1 1_555 1_555
O1 C5 1_555 1_555
O2 In1 1_555 1_555
C5 O2 1_555 1_555
O5 In1 1_555 1_555
O6 In1 1_555 1_555
C13 O5 1_555 1_555
O9 In1 1_555 1_555
O10 In1 1_555 1_555
O11 In1 1_555 1_555
O12 In1 1_555 1_555
O6 C13 1_555 1_555
O3 C8 1_555 1_555
O4 C8 1_555 1_555
C7 C8 1_555 1_555
N3 H17 1_555 1_555
H18 N3 1_555 1_555
C9 C6 1_555 1_555
C10 C6 1_555 1_555
H19 C10 1_555 1_555
C11 C7 1_555 1_555
H20 C11 1_555 1_555
C12 C7 1_555 1_555
H21 C12 1_555 1_555
O7 C16 1_555 1_555
O8 C16 1_555 1_555
C15 C16 1_555 1_555
N4 H22 1_555 1_555
H23 N4 1_555 1_555
C17 C14 1_555 1_555
C18 C14 1_555 1_555
H24 C18 1_555 1_555
C19 C15 1_555 1_555
H25 C19 1_555 1_555
C20 C15 1_555 1_555
H26 C20 1_555 1_555
In2 O7 1_555 1_555
In3 O3 1_555 1_555
O4 In3 1_555 1_555
N3 C9 1_555 1_555
C9 C11 1_555 1_555
C10 C12 1_555 1_555
O8 In2 1_555 1_555
N4 C17 1_555 1_555
C17 C19 1_555 1_555
C18 C20 1_555 1_555
O3_2 C8_2 1_555 1_555
O4_2 C8_2 1_555 1_555
C7_2 C8_2 1_555 1_555
H19_2 C10_2 1_555 1_555
C12_2 C7_2 1_555 1_555
H21_2 C12_2 1_555 1_555
In3 O3_2 1_555 1_555
O4_2 In3 1_555 1_555
C10_2 C12_2 1_555 1_555
O7_2 C16_2 1_555 1_555
O8_2 C16_2 1_555 1_555
C15_2 C16_2 1_555 1_555
H23_2 N4_2 1_555 1_555
C19_2 C15_2 1_555 1_555
H25_2 C19_2 1_555 1_555
In2 O7_2 1_555 1_555
O8_2 In2 1_555 1_555
N4_2 C17_2 1_555 1_555
C17_2 C19_2 1_555 1_555
In1_2 O1_2 1_555 1_555
O1_2 C5_2 1_555 1_555
O2_2 In1_2 1_555 1_555
C5_2 O2_2 1_555 1_555
O5_2 In1_2 1_555 1_555
O6_2 In1_2 1_555 1_555
C13_2 O5_2 1_555 1_555
O9_2 In1_2 1_555 1_555
O10_2 In1_2 1_555 1_555
O11_2 In1_2 1_555 1_555
O12_2 In1_2 1_555 1_555
O6_2 C13_2 1_555 1_555
O3_3 C8_3 1_555 1_555
O4_3 C8_3 1_555 1_555
C7_3 C8_3 1_555 1_555
H18_2 N3_2 1_555 1_555
C11_2 C7_3 1_555 1_555
H20_2 C11_2 1_555 1_555
In3_2 O3_3 1_555 1_555
O4_3 In3_2 1_555 1_555
N3_2 C9_2 1_555 1_555
C9_2 C11_2 1_555 1_555
In1_3 O1_3 1_555 1_555
O1_3 C5_3 1_555 1_555
O2_3 In1_3 1_555 1_555
C5_3 O2_3 1_555 1_555
C6_2 C5_3 1_555 1_555
C10_3 C6_2 1_555 1_555
H19_3 C10_3 1_555 1_555
H21_3 C12_3 1_555 1_555
O5_3 In1_3 1_555 1_555
O6_3 In1_3 1_555 1_555
O7_3 C16_3 1_555 1_555
O8_3 C16_3 1_555 1_555
C13_3 O5_3 1_555 1_555
C14_2 C13_3 1_555 1_555
C15_3 C16_3 1_555 1_555
N4_3 H22_2 1_555 1_555
H23_3 N4_3 1_555 1_555
C17_3 C14_2 1_555 1_555
C18_2 C14_2 1_555 1_555
H24_2 C18_2 1_555 1_555
C19_3 C15_3 1_555 1_555
H25_3 C19_3 1_555 1_555
C20_2 C15_3 1_555 1_555
H26_2 C20_2 1_555 1_555
In2_2 O7_3 1_555 1_555
O9_3 In1_3 1_555 1_555
O10_3 In1_3 1_555 1_555
O11_3 In1_3 1_555 1_555
O12_3 In1_3 1_555 1_555
C10_3 C12_3 1_555 1_555
O6_3 C13_3 1_555 1_555
O8_3 In2_2 1_555 1_555
N4_3 C17_3 1_555 1_555
C17_3 C19_3 1_555 1_555
C18_2 C20_2 1_555 1_555
O3_4 C8_4 1_555 1_555
O4_4 C8_4 1_555 1_555
C7_4 C8_4 1_555 1_555
H19_4 C10_4 1_555 1_555
C12_4 C7_4 1_555 1_555
H21_4 C12_4 1_555 1_555
In3_2 O3_4 1_555 1_555
O4_4 In3_2 1_555 1_555
C10_4 C12_4 1_555 1_555
In1_4 O1_4 1_555 1_555
O1_4 C5_4 1_555 1_555
O2_4 In1_4 1_555 1_555
C5_4 O2_4 1_555 1_555
C6_3 C5_4 1_555 1_555
N3_3 H17_3 1_555 1_555
H18_3 N3_3 1_555 1_555
C9_3 C6_3 1_555 1_555
H20_3 C11_3 1_555 1_555
O5_4 In1_4 1_555 1_555
O6_4 In1_4 1_555 1_555
O7_4 C16_4 1_555 1_555
O8_4 C16_4 1_555 1_555
C13_4 O5_4 1_555 1_555
C14_3 C13_4 1_555 1_555
C15_4 C16_4 1_555 1_555
N4_4 H22_3 1_555 1_555
H23_4 N4_4 1_555 1_555
C17_4 C14_3 1_555 1_555
C18_3 C14_3 1_555 1_555
H24_3 C18_3 1_555 1_555
C19_4 C15_4 1_555 1_555
H25_4 C19_4 1_555 1_555
C20_3 C15_4 1_555 1_555
H26_3 C20_3 1_555 1_555
In2_2 O7_4 1_555 1_555
O9_4 In1_4 1_555 1_555
O10_4 In1_4 1_555 1_555
O11_4 In1_4 1_555 1_555
O12_4 In1_4 1_555 1_555
N3_3 C9_3 1_555 1_555
C9_3 C11_3 1_555 1_555
O6_4 C13_4 1_555 1_555
O8_4 In2_2 1_555 1_555
N4_4 C17_4 1_555 1_555
C17_4 C19_4 1_555 1_555
C18_3 C20_3 1_555 1_555
In2 O1_5 1_555 1_555
O1_5 C5_5 1_555 1_555
O2_5 In2 1_555 1_555
O10_4 C8_5 1_555 1_555
O12_4 C8_5 1_555 1_555
C5_5 O2_5 1_555 1_555
C6_4 C5_5 1_555 1_555
C7_5 C8_5 1_555 1_555
N3_4 H17_4 1_555 1_555
H18_4 N3_4 1_555 1_555
C9_4 C6_4 1_555 1_555
C10_5 C6_4 1_555 1_555
H19_5 C10_5 1_555 1_555
C11_4 C7_5 1_555 1_555
H20_4 C11_4 1_555 1_555
C12_5 C7_5 1_555 1_555
H21_5 C12_5 1_555 1_555
O5_5 In2 1_555 1_555
O6_5 In2 1_555 1_555
C13_5 O5_5 1_555 1_555
C14_4 C13_5 1_555 1_555
C18_4 C14_4 1_555 1_555
H24_4 C18_4 1_555 1_555
H26_4 C20_4 1_555 1_555
N3_4 C9_4 1_555 1_555
C9_4 C11_4 1_555 1_555
C10_5 C12_5 1_555 1_555
O6_5 C13_5 1_555 1_555
C18_4 C20_4 1_555 1_555
O10_3 C16_5 1_555 1_555
O12_3 C16_5 1_555 1_555
C15_5 C16_5 1_555 1_555
H23_5 N4_5 1_555 1_555
C19_5 C15_5 1_555 1_555
H25_5 C19_5 1_555 1_555
N4_5 C17_5 1_555 1_555
C17_5 C19_5 1_555 1_555
In3 O1_6 1_555 1_555
O1_6 C5_6 1_555 1_555
O2_6 In3 1_555 1_555
C5_6 O2_6 1_555 1_555
C6_5 C5_6 1_555 1_555
N3_5 H17_5 1_555 1_555
H18_5 N3_5 1_555 1_555
C9_5 C6_5 1_555 1_555
H20_5 C11_5 1_555 1_555
O5_6 In3 1_555 1_555
O6_6 In3 1_555 1_555
O9_3 C16_6 1_555 1_555
O11_3 C16_6 1_555 1_555
C13_6 O5_6 1_555 1_555
C14_5 C13_6 1_555 1_555
C15_6 C16_6 1_555 1_555
N4_6 H22_5 1_555 1_555
H23_6 N4_6 1_555 1_555
C17_6 C14_5 1_555 1_555
C18_5 C14_5 1_555 1_555
H24_5 C18_5 1_555 1_555
C19_6 C15_6 1_555 1_555
H25_6 C19_6 1_555 1_555
C20_5 C15_6 1_555 1_555
H26_5 C20_5 1_555 1_555
N3_5 C9_5 1_555 1_555
C9_5 C11_5 1_555 1_555
O6_6 C13_6 1_555 1_555
N4_6 C17_6 1_555 1_555
C17_6 C19_6 1_555 1_555
C18_5 C20_5 1_555 1_555
O9_4 C8_6 1_555 1_555
O11_4 C8_6 1_555 1_555
C7_6 C8_6 1_555 1_555
H19_6 C10_6 1_555 1_555
C12_6 C7_6 1_555 1_555
H21_6 C12_6 1_555 1_555
C10_6 C12_6 1_555 1_555
In2_2 O1_7 1_555 1_555
O1_7 C5_7 1_555 1_555
O2_7 In2_2 1_555 1_555
O10_2 C8_7 1_555 1_555
O12_2 C8_7 1_555 1_555
C5_7 O2_7 1_555 1_555
C6_6 C5_7 1_555 1_555
C7_7 C8_7 1_555 1_555
N3_6 H17_6 1_555 1_555
H18_6 N3_6 1_555 1_555
C9_6 C6_6 1_555 1_555
C10_7 C6_6 1_555 1_555
H19_7 C10_7 1_555 1_555
C11_6 C7_7 1_555 1_555
H20_6 C11_6 1_555 1_555
C12_7 C7_7 1_555 1_555
H21_7 C12_7 1_555 1_555
O5_7 In2_2 1_555 1_555
O6_7 In2_2 1_555 1_555
O10 C16_7 1_555 1_555
O12 C16_7 1_555 1_555
C13_7 O5_7 1_555 1_555
C14_6 C13_7 1_555 1_555
C15_7 C16_7 1_555 1_555
N4_7 H22_6 1_555 1_555
H23_7 N4_7 1_555 1_555
C17_7 C14_6 1_555 1_555
C18_6 C14_6 1_555 1_555
H24_6 C18_6 1_555 1_555
C19_7 C15_7 1_555 1_555
H25_7 C19_7 1_555 1_555
C20_6 C15_7 1_555 1_555
H26_6 C20_6 1_555 1_555
N3_6 C9_6 1_555 1_555
C9_6 C11_6 1_555 1_555
C10_7 C12_7 1_555 1_555
O6_7 C13_7 1_555 1_555
N4_7 C17_7 1_555 1_555
C17_7 C19_7 1_555 1_555
C18_6 C20_6 1_555 1_555
In3_2 O1_8 1_555 1_555
O1_8 C5_8 1_555 1_555
O2_8 In3_2 1_555 1_555
C5_8 O2_8 1_555 1_555
C6_7 C5_8 1_555 1_555
O5_8 In3_2 1_555 1_555
O6_8 In3_2 1_555 1_555
O9 C16_8 1_555 1_555
O11 C16_8 1_555 1_555
C13_8 O5_8 1_555 1_555
C14_7 C13_8 1_555 1_555
C15_8 C16_8 1_555 1_555
N4_8 H22_7 1_555 1_555
H23_8 N4_8 1_555 1_555
C17_8 C14_7 1_555 1_555
C18_7 C14_7 1_555 1_555
H24_7 C18_7 1_555 1_555
C19_8 C15_8 1_555 1_555
H25_8 C19_8 1_555 1_555
C20_7 C15_8 1_555 1_555
H26_7 C20_7 1_555 1_555
O6_8 C13_8 1_555 1_555
N4_8 C17_8 1_555 1_555
C17_8 C19_8 1_555 1_555
C18_7 C20_7 1_555 1_555
O9_2 C8_8 1_555 1_555
O11_2 C8_8 1_555 1_555
C7_8 C8_8 1_555 1_555
N3_7 H17_8 1_555 1_555
H18_7 N3_7 1_555 1_555
C9_7 C6_8 1_555 1_555
H20_7 C11_7 1_555 1_555
C18_8 C14_8 1_555 1_555
H24_8 C18_8 1_555 1_555
H26_8 C20_8 1_555 1_555
N3_7 C9_7 1_555 1_555
C9_7 C11_7 1_555 1_555
C18_8 C20_8 1_555 1_555
O7_5 C16_9 1_555 1_555
O8_5 C16_9 1_555 1_555
C15_9 C16_9 1_555 1_555
H23_9 N4_9 1_555 1_555
C19_9 C15_9 1_555 1_555
H25_9 C19_9 1_555 1_555
In2_3 O7_5 1_555 1_555
O8_5 In2_3 1_555 1_555
N4_9 C17_9 1_555 1_555
C17_9 C19_9 1_555 1_555
In1_5 O1_9 1_555 1_555
O1_9 C5_9 1_555 1_555
O2_9 In1_5 1_555 1_555
O3_5 C8_9 1_555 1_555
O4_5 C8_9 1_555 1_555
C5_9 O2_9 1_555 1_555
C6_9 C5_9 1_555 1_555
C7_9 C8_9 1_555 1_555
N3_8 H17_9 1_555 1_555
H18_8 N3_8 1_555 1_555
C9_8 C6_9 1_555 1_555
C10_8 C6_9 1_555 1_555
H19_8 C10_8 1_555 1_555
C11_8 C7_9 1_555 1_555
H20_8 C11_8 1_555 1_555
C12_8 C7_9 1_555 1_555
H21_8 C12_8 1_555 1_555
O5_9 In1_5 1_555 1_555
O6_9 In1_5 1_555 1_555
C13_9 O5_9 1_555 1_555
C14_9 C13_9 1_555 1_555
C18_9 C14_9 1_555 1_555
H24_9 C18_9 1_555 1_555
H26_9 C20_9 1_555 1_555
In3_3 O3_5 1_555 1_555
O9_5 In1_5 1_555 1_555
O10_5 In1_5 1_555 1_555
O11_5 In1_5 1_555 1_555
O12_5 In1_5 1_555 1_555
O4_5 In3_3 1_555 1_555
N3_8 C9_8 1_555 1_555
C9_8 C11_8 1_555 1_555
C10_8 C12_8 1_555 1_555
O6_9 C13_9 1_555 1_555
C18_9 C20_9 1_555 1_555
O3_6 C8_10 1_555 1_555
O4_6 C8_10 1_555 1_555
C7_10 C8_10 1_555 1_555
H19_9 C10_9 1_555 1_555
C12_9 C7_10 1_555 1_555
H21_9 C12_9 1_555 1_555
In3_3 O3_6 1_555 1_555
O4_6 In3_3 1_555 1_555
C10_9 C12_9 1_555 1_555
In1_6 O1_10 1_555 1_555
O1_10 C5_10 1_555 1_555
O2_10 In1_6 1_555 1_555
C5_10 O2_10 1_555 1_555
C6_10 C5_10 1_555 1_555
N3_9 H17_10 1_555 1_555
H18_9 N3_9 1_555 1_555
C9_9 C6_10 1_555 1_555
H20_9 C11_9 1_555 1_555
O5_10 In1_6 1_555 1_555
O6_10 In1_6 1_555 1_555
O7_6 C16_10 1_555 1_555
O8_6 C16_10 1_555 1_555
C13_10 O5_10 1_555 1_555
C14_10 C13_10 1_555 1_555
C15_10 C16_10 1_555 1_555
N4_10 H22_10 1_555 1_555
H23_10 N4_10 1_555 1_555
C17_10 C14_10 1_555 1_555
C18_10 C14_10 1_555 1_555
H24_10 C18_10 1_555 1_555
C19_10 C15_10 1_555 1_555
H25_10 C19_10 1_555 1_555
C20_10 C15_10 1_555 1_555
H26_10 C20_10 1_555 1_555
In2_3 O7_6 1_555 1_555
O9_6 In1_6 1_555 1_555
O10_6 In1_6 1_555 1_555
O11_6 In1_6 1_555 1_555
O12_6 In1_6 1_555 1_555
N3_9 C9_9 1_555 1_555
C9_9 C11_9 1_555 1_555
O6_10 C13_10 1_555 1_555
O8_6 In2_3 1_555 1_555
N4_10 C17_10 1_555 1_555
C17_10 C19_10 1_555 1_555
C18_10 C20_10 1_555 1_555
In1_7 O1_11 1_555 1_555
O1_11 C5_11 1_555 1_555
O2_11 In1_7 1_555 1_555
O3_7 C8_11 1_555 1_555
O4_7 C8_11 1_555 1_555
C5_11 O2_11 1_555 1_555
C6_11 C5_11 1_555 1_555
C7_11 C8_11 1_555 1_555
N3_10 H17_11 1_555 1_555
H18_10 N3_10 1_555 1_555
C9_10 C6_11 1_555 1_555
C10_10 C6_11 1_555 1_555
H19_10 C10_10 1_555 1_555
C11_10 C7_11 1_555 1_555
H20_10 C11_10 1_555 1_555
C12_10 C7_11 1_555 1_555
H21_10 C12_10 1_555 1_555
O5_11 In1_7 1_555 1_555
O6_11 In1_7 1_555 1_555
O7_7 C16_11 1_555 1_555
O8_7 C16_11 1_555 1_555
C13_11 O5_11 1_555 1_555
C14_11 C13_11 1_555 1_555
C15_11 C16_11 1_555 1_555
N4_11 H22_11 1_555 1_555
H23_11 N4_11 1_555 1_555
C17_11 C14_11 1_555 1_555
C18_11 C14_11 1_555 1_555
H24_11 C18_11 1_555 1_555
C19_11 C15_11 1_555 1_555
H25_11 C19_11 1_555 1_555
C20_11 C15_11 1_555 1_555
H26_11 C20_11 1_555 1_555
In2_4 O7_7 1_555 1_555
In3_4 O3_7 1_555 1_555
O9_7 In1_7 1_555 1_555
O10_7 In1_7 1_555 1_555
O11_7 In1_7 1_555 1_555
O12_7 In1_7 1_555 1_555
O4_7 In3_4 1_555 1_555
N3_10 C9_10 1_555 1_555
C9_10 C11_10 1_555 1_555
C10_10 C12_10 1_555 1_555
O6_11 C13_11 1_555 1_555
O8_7 In2_4 1_555 1_555
N4_11 C17_11 1_555 1_555
C17_11 C19_11 1_555 1_555
C18_11 C20_11 1_555 1_555
O3_8 C8_12 1_555 1_555
O4_8 C8_12 1_555 1_555
C7_12 C8_12 1_555 1_555
In3_4 O3_8 1_555 1_555
O4_8 In3_4 1_555 1_555
In1_8 O1_12 1_555 1_555
O1_12 C5_12 1_555 1_555
O2_12 In1_8 1_555 1_555
C5_12 O2_12 1_555 1_555
C6_12 C5_12 1_555 1_555
O5_12 In1_8 1_555 1_555
O6_12 In1_8 1_555 1_555
O7_8 C16_12 1_555 1_555
O8_8 C16_12 1_555 1_555
C13_12 O5_12 1_555 1_555
C14_12 C13_12 1_555 1_555
C15_12 C16_12 1_555 1_555
N4_12 H22_12 1_555 1_555
H23_12 N4_12 1_555 1_555
C17_12 C14_12 1_555 1_555
C18_12 C14_12 1_555 1_555
H24_12 C18_12 1_555 1_555
C19_12 C15_12 1_555 1_555
H25_12 C19_12 1_555 1_555
C20_12 C15_12 1_555 1_555
H26_12 C20_12 1_555 1_555
In2_4 O7_8 1_555 1_555
O9_8 In1_8 1_555 1_555
O10_8 In1_8 1_555 1_555
O11_8 In1_8 1_555 1_555
O12_8 In1_8 1_555 1_555
O6_12 C13_12 1_555 1_555
O8_8 In2_4 1_555 1_555
N4_12 C17_12 1_555 1_555
C17_12 C19_12 1_555 1_555
C18_12 C20_12 1_555 1_555
O10_6 C8_13 1_555 1_555
O12_6 C8_13 1_555 1_555
C7_13 C8_13 1_555 1_555
N3_11 H17_13 1_555 1_555
H18_11 N3_11 1_555 1_555
C9_11 C6_13 1_555 1_555
C10_11 C6_13 1_555 1_555
H19_11 C10_11 1_555 1_555
C11_11 C7_13 1_555 1_555
H20_11 C11_11 1_555 1_555
C12_11 C7_13 1_555 1_555
H21_11 C12_11 1_555 1_555
O10_5 C16_13 1_555 1_555
O12_5 C16_13 1_555 1_555
C15_13 C16_13 1_555 1_555
N4_13 H22_13 1_555 1_555
H23_13 N4_13 1_555 1_555
C17_13 C14_13 1_555 1_555
C18_13 C14_13 1_555 1_555
H24_13 C18_13 1_555 1_555
C19_13 C15_13 1_555 1_555
H25_13 C19_13 1_555 1_555
C20_13 C15_13 1_555 1_555
H26_13 C20_13 1_555 1_555
N3_11 C9_11 1_555 1_555
C9_11 C11_11 1_555 1_555
C10_11 C12_11 1_555 1_555
N4_13 C17_13 1_555 1_555
C17_13 C19_13 1_555 1_555
C18_13 C20_13 1_555 1_555
In2_4 O1_13 1_555 1_555
O1_13 C5_13 1_555 1_555
O2_13 In2_4 1_555 1_555
C5_13 O2_13 1_555 1_555
O5_13 In2_4 1_555 1_555
O6_13 In2_4 1_555 1_555
C13_13 O5_13 1_555 1_555
O6_13 C13_13 1_555 1_555
In3_4 O1_14 1_555 1_555
O1_14 C5_14 1_555 1_555
O2_14 In3_4 1_555 1_555
C5_14 O2_14 1_555 1_555
O5_14 In3_4 1_555 1_555
O6_14 In3_4 1_555 1_555
C13_14 O5_14 1_555 1_555
O6_14 C13_14 1_555 1_555
O9_5 C16_14 1_555 1_555
O11_5 C16_14 1_555 1_555
C15_14 C16_14 1_555 1_555
H23_14 N4_14 1_555 1_555
C19_14 C15_14 1_555 1_555
H25_14 C19_14 1_555 1_555
N4_14 C17_14 1_555 1_555
C17_14 C19_14 1_555 1_555
O9_6 C8_14 1_555 1_555
O11_6 C8_14 1_555 1_555
C7_14 C8_14 1_555 1_555
H19_12 C10_12 1_555 1_555
C12_12 C7_14 1_555 1_555
H21_12 C12_12 1_555 1_555
C10_12 C12_12 1_555 1_555
In2_3 O1_15 1_555 1_555
O1_15 C5_15 1_555 1_555
O2_15 In2_3 1_555 1_555
C5_15 O2_15 1_555 1_555
C6_14 C5_15 1_555 1_555
C10_13 C6_14 1_555 1_555
H19_13 C10_13 1_555 1_555
H21_13 C12_13 1_555 1_555
O5_15 In2_3 1_555 1_555
O6_15 In2_3 1_555 1_555
O10_7 C16_15 1_555 1_555
O12_7 C16_15 1_555 1_555
C13_15 O5_15 1_555 1_555
C14_14 C13_15 1_555 1_555
C15_15 C16_15 1_555 1_555
N4_15 H22_14 1_555 1_555
H23_15 N4_15 1_555 1_555
C17_15 C14_14 1_555 1_555
C18_14 C14_14 1_555 1_555
H24_14 C18_14 1_555 1_555
C19_15 C15_15 1_555 1_555
H25_15 C19_15 1_555 1_555
C20_14 C15_15 1_555 1_555
H26_14 C20_14 1_555 1_555
C10_13 C12_13 1_555 1_555
O6_15 C13_15 1_555 1_555
N4_15 C17_15 1_555 1_555
C17_15 C19_15 1_555 1_555
C18_14 C20_14 1_555 1_555
O10_8 C8_15 1_555 1_555
O12_8 C8_15 1_555 1_555
C7_15 C8_15 1_555 1_555
H18_12 N3_12 1_555 1_555
C11_12 C7_15 1_555 1_555
H20_12 C11_12 1_555 1_555
N3_12 C9_12 1_555 1_555
C9_12 C11_12 1_555 1_555
In3_3 O1_16 1_555 1_555
O1_16 C5_16 1_555 1_555
O2_16 In3_3 1_555 1_555
C5_16 O2_16 1_555 1_555
C6_15 C5_16 1_555 1_555
N3_13 H17_15 1_555 1_555
H18_13 N3_13 1_555 1_555
C9_13 C6_15 1_555 1_555
H20_13 C11_13 1_555 1_555
O5_16 In3_3 1_555 1_555
O6_16 In3_3 1_555 1_555
O9_7 C16_16 1_555 1_555
O11_7 C16_16 1_555 1_555
C13_16 O5_16 1_555 1_555
C14_15 C13_16 1_555 1_555
C15_16 C16_16 1_555 1_555
N4_16 H22_15 1_555 1_555
H23_16 N4_16 1_555 1_555
C17_16 C14_15 1_555 1_555
C18_15 C14_15 1_555 1_555
H24_15 C18_15 1_555 1_555
C19_16 C15_16 1_555 1_555
H25_16 C19_16 1_555 1_555
C20_15 C15_16 1_555 1_555
H26_15 C20_15 1_555 1_555
N3_13 C9_13 1_555 1_555
C9_13 C11_13 1_555 1_555
O6_16 C13_16 1_555 1_555
N4_16 C17_16 1_555 1_555
C17_16 C19_16 1_555 1_555
C18_15 C20_15 1_555 1_555
O9_8 C8_16 1_555 1_555
O11_8 C8_16 1_555 1_555
C7_16 C8_16 1_555 1_555
H19_14 C10_14 1_555 1_555
C12_14 C7_16 1_555 1_555
H21_14 C12_14 1_555 1_555
C10_14 C12_14 1_555 1_555
H19_15 C10_15 1_555 1_555
H21_15 C12_15 1_555 1_555
C10_15 C12_15 1_555 1_555
H18_14 N3_14 1_555 1_555
H20_14 C11_14 1_555 1_555
N3_14 C9_14 1_555 1_555
C9_14 C11_14 1_555 1_555
N3_15 H17_16 1_555 1_555
H18_15 N3_15 1_555 1_555
C9_15 C6_16 1_555 1_555
H20_15 C11_15 1_555 1_555
C18_16 C14_16 1_555 1_555
H24_16 C18_16 1_555 1_555
H26_16 C20_16 1_555 1_555
N3_15 C9_15 1_555 1_555
C9_15 C11_15 1_555 1_555
C18_16 C20_16 1_555 1_555
H18_16 N3_16 1_555 1_555
H20_16 C11_16 1_555 1_555
N3_16 C9_16 1_555 1_555
C9_16 C11_16 1_555 1_555
H19_16 C10_16 1_555 1_555
H21_16 C12_16 1_555 1_555
C10_16 C12_16 1_555 1_555

#END
