
###############################################################################
#
# This file contains modified crystal structure data generated from the
# MOF subset of the Cambridge Structural Database (CSD) v543 
# hosted by the Cambridge Crystallographic Data Centre (CCDC).
#
# This work is licensed under the Creative Commons
# Attribution-NonCommercial-ShareAlike 4.0 International License.
# To view a copy of this license, visit
# http://creativecommons.org/licenses/by-nc-sa/4.0/
# or send a letter to
# Creative Commons, PO Box 1866, Mountain View, CA 94042, USA.
#
# CIF created using the CSD Python API on 29 September 2022
# The structure has been converted into the P1 space group
# The structure has a 3D framework
# The original CSD entry LAPNIC is in the orthorhombic crystal system
# The framework has been calculated to contain at least 10.0% void space
# The void calculation uses a probe of radius 1.32A, grid spacing 0.4
#
###############################################################################

data_LAPNIC
_chemical_formula_moiety         '(C288 H288 In16 N48 O128)n'
_symmetry_cell_setting           triclinic
_symmetry_space_group_name_H-M   'P 1'
_symmetry_Int_Tables_number      1
_space_group_name_Hall           'P 1'
loop_
_symmetry_equiv_pos_site_id
_symmetry_equiv_pos_as_xyz
1 x,y,z
_cell_length_a                   15.4336(7)
_cell_length_b                   27.6137(12)
_cell_length_c                   30.6740(14)
_cell_angle_alpha                90
_cell_angle_beta                 90
_cell_angle_gamma                90
_cell_volume                     13072.6
loop_
_atom_site_label
_atom_site_type_symbol
_atom_site_fract_x
_atom_site_fract_y
_atom_site_fract_z
N1 N 0.6250 0.4202(18) 0.1250
H1 H 0.6661 0.4005 0.1150
C1 C 0.586(2) 0.4387(13) 0.0844(9)
H2 H 0.5686 0.4119 0.0664
H3 H 0.5361 0.4580 0.0913
H4 H 0.6275 0.4580 0.0690
H5 H 0.5839 0.4005 0.1350
C2 C 0.664(2) 0.4387(13) 0.1656(9)
H6 H 0.6814 0.4119 0.1836
H7 H 0.7139 0.4580 0.1587
H8 H 0.6225 0.4580 0.1810
N1_2 N 0.6250 0.8298(18) 0.1250
H1_2 H 0.5839 0.8495 0.1150
C1_2 C 0.664(2) 0.8113(13) 0.0844(9)
H2_2 H 0.6814 0.8381 0.0664
H3_2 H 0.7139 0.7920 0.0913
H4_2 H 0.6225 0.7920 0.0690
H5_2 H 0.6661 0.8495 0.1350
C2_2 C 0.586(2) 0.8113(13) 0.1656(9)
H6_2 H 0.5686 0.8381 0.1836
H7_2 H 0.5361 0.7920 0.1587
H8_2 H 0.6275 0.7920 0.1810
N1_3 N 0.6250 0.9202(18) 0.6250
H1_3 H 0.6661 0.9005 0.6150
C1_3 C 0.586(2) 0.9387(13) 0.5844(9)
H2_3 H 0.5686 0.9119 0.5664
H3_3 H 0.5361 0.9580 0.5913
H4_3 H 0.6275 0.9580 0.5690
H5_3 H 0.5839 0.9005 0.6350
C2_3 C 0.664(2) 0.9387(13) 0.6656(9)
H6_3 H 0.6814 0.9119 0.6836
H7_3 H 0.7139 0.9580 0.6587
H8_3 H 0.6225 0.9580 0.6810
N1_4 N 0.6250 0.3298(18) 0.6250
H1_4 H 0.5839 0.3495 0.6150
C1_4 C 0.664(2) 0.3113(13) 0.5844(9)
H2_4 H 0.6814 0.3381 0.5664
H3_4 H 0.7139 0.2920 0.5913
H4_4 H 0.6225 0.2920 0.5690
H5_4 H 0.6661 0.3495 0.6350
C2_4 C 0.586(2) 0.3113(13) 0.6656(9)
H6_4 H 0.5686 0.3381 0.6836
H7_4 H 0.5361 0.2920 0.6587
H8_4 H 0.6275 0.2920 0.6810
N1_5 N 0.1250 0.4202(18) 0.6250
H1_5 H 0.1661 0.4005 0.6150
C1_5 C 0.086(2) 0.4387(13) 0.5844(9)
H2_5 H 0.0686 0.4119 0.5664
H3_5 H 0.0361 0.4580 0.5913
H4_5 H 0.1275 0.4580 0.5690
H5_5 H 0.0839 0.4005 0.6350
C2_5 C 0.164(2) 0.4387(13) 0.6656(9)
H6_5 H 0.1814 0.4119 0.6836
H7_5 H 0.2139 0.4580 0.6587
H8_5 H 0.1225 0.4580 0.6810
N1_6 N 0.1250 0.8298(18) 0.6250
H1_6 H 0.0839 0.8495 0.6150
C1_6 C 0.164(2) 0.8113(13) 0.5844(9)
H2_6 H 0.1814 0.8381 0.5664
H3_6 H 0.2139 0.7920 0.5913
H4_6 H 0.1225 0.7920 0.5690
H5_6 H 0.1661 0.8495 0.6350
C2_6 C 0.086(2) 0.8113(13) 0.6656(9)
H6_6 H 0.0686 0.8381 0.6836
H7_6 H 0.0361 0.7920 0.6587
H8_6 H 0.1275 0.7920 0.6810
N1_7 N 0.1250 0.9202(18) 0.1250
H1_7 H 0.1661 0.9005 0.1150
C1_7 C 0.086(2) 0.9387(13) 0.0844(9)
H2_7 H 0.0686 0.9119 0.0664
H3_7 H 0.0361 0.9580 0.0913
H4_7 H 0.1275 0.9580 0.0690
H5_7 H 0.0839 0.9005 0.1350
C2_7 C 0.164(2) 0.9387(13) 0.1656(9)
H6_7 H 0.1814 0.9119 0.1836
H7_7 H 0.2139 0.9580 0.1587
H8_7 H 0.1225 0.9580 0.1810
N1_8 N 0.1250 0.3298(18) 0.1250
H1_8 H 0.0839 0.3495 0.1150
C1_8 C 0.164(2) 0.3113(13) 0.0844(9)
H2_8 H 0.1814 0.3381 0.0664
H3_8 H 0.2139 0.2920 0.0913
H4_8 H 0.1225 0.2920 0.0690
H5_8 H 0.1661 0.3495 0.1350
C2_8 C 0.086(2) 0.3113(13) 0.1656(9)
H6_8 H 0.0686 0.3381 0.1836
H7_8 H 0.0361 0.2920 0.1587
H8_8 H 0.1275 0.2920 0.1810
N1_9 N 0.3750 0.5798(18) 0.8750
H1_9 H 0.3339 0.5995 0.8850
C1_9 C 0.414(2) 0.5613(13) 0.9156(9)
H2_9 H 0.4314 0.5881 0.9336
H3_9 H 0.4639 0.5420 0.9087
H4_9 H 0.3725 0.5420 0.9310
H5_9 H 0.4161 0.5995 0.8650
C2_9 C 0.336(2) 0.5613(13) 0.8344(9)
H6_9 H 0.3186 0.5881 0.8164
H7_9 H 0.2861 0.5420 0.8413
H8_9 H 0.3775 0.5420 0.8190
N1_10 N 0.3750 0.1702(18) 0.8750
H1_10 H 0.4161 0.1505 0.8850
C1_10 C 0.336(2) 0.1887(13) 0.9156(9)
H2_10 H 0.3186 0.1619 0.9336
H3_10 H 0.2861 0.2080 0.9087
H4_10 H 0.3775 0.2080 0.9310
H5_10 H 0.3339 0.1505 0.8650
C2_10 C 0.414(2) 0.1887(13) 0.8344(9)
H6_10 H 0.4314 0.1619 0.8164
H7_10 H 0.4639 0.2080 0.8413
H8_10 H 0.3725 0.2080 0.8190
N1_11 N 0.3750 0.0798(18) 0.3750
H1_11 H 0.3339 0.0995 0.3850
C1_11 C 0.414(2) 0.0613(13) 0.4156(9)
H2_11 H 0.4314 0.0881 0.4336
H3_11 H 0.4639 0.0420 0.4087
H4_11 H 0.3725 0.0420 0.4310
H5_11 H 0.4161 0.0995 0.3650
C2_11 C 0.336(2) 0.0613(13) 0.3344(9)
H6_11 H 0.3186 0.0881 0.3164
H7_11 H 0.2861 0.0420 0.3413
H8_11 H 0.3775 0.0420 0.3190
N1_12 N 0.3750 0.6702(18) 0.3750
H1_12 H 0.4161 0.6505 0.3850
C1_12 C 0.336(2) 0.6887(13) 0.4156(9)
H2_12 H 0.3186 0.6619 0.4336
H3_12 H 0.2861 0.7080 0.4087
H4_12 H 0.3775 0.7080 0.4310
H5_12 H 0.3339 0.6505 0.3650
C2_12 C 0.414(2) 0.6887(13) 0.3344(9)
H6_12 H 0.4314 0.6619 0.3164
H7_12 H 0.4639 0.7080 0.3413
H8_12 H 0.3725 0.7080 0.3190
N1_13 N 0.8750 0.5798(18) 0.3750
H1_13 H 0.8339 0.5995 0.3850
C1_13 C 0.914(2) 0.5613(13) 0.4156(9)
H2_13 H 0.9314 0.5881 0.4336
H3_13 H 0.9639 0.5420 0.4087
H4_13 H 0.8725 0.5420 0.4310
H5_13 H 0.9161 0.5995 0.3650
C2_13 C 0.836(2) 0.5613(13) 0.3344(9)
H6_13 H 0.8186 0.5881 0.3164
H7_13 H 0.7861 0.5420 0.3413
H8_13 H 0.8775 0.5420 0.3190
N1_14 N 0.8750 0.1702(18) 0.3750
H1_14 H 0.9161 0.1505 0.3850
C1_14 C 0.836(2) 0.1887(13) 0.4156(9)
H2_14 H 0.8186 0.1619 0.4336
H3_14 H 0.7861 0.2080 0.4087
H4_14 H 0.8775 0.2080 0.4310
H5_14 H 0.8339 0.1505 0.3650
C2_14 C 0.914(2) 0.1887(13) 0.3344(9)
H6_14 H 0.9314 0.1619 0.3164
H7_14 H 0.9639 0.2080 0.3413
H8_14 H 0.8725 0.2080 0.3190
N1_15 N 0.8750 0.0798(18) 0.8750
H1_15 H 0.8339 0.0995 0.8850
C1_15 C 0.914(2) 0.0613(13) 0.9156(9)
H2_15 H 0.9314 0.0881 0.9336
H3_15 H 0.9639 0.0420 0.9087
H4_15 H 0.8725 0.0420 0.9310
H5_15 H 0.9161 0.0995 0.8650
C2_15 C 0.836(2) 0.0613(13) 0.8344(9)
H6_15 H 0.8186 0.0881 0.8164
H7_15 H 0.7861 0.0420 0.8413
H8_15 H 0.8775 0.0420 0.8190
N1_16 N 0.8750 0.6702(18) 0.8750
H1_16 H 0.9161 0.6505 0.8850
C1_16 C 0.836(2) 0.6887(13) 0.9156(9)
H2_16 H 0.8186 0.6619 0.9336
H3_16 H 0.7861 0.7080 0.9087
H4_16 H 0.8775 0.7080 0.9310
H5_16 H 0.8339 0.6505 0.8650
C2_16 C 0.914(2) 0.6887(13) 0.8344(9)
H6_16 H 0.9314 0.6619 0.8164
H7_16 H 0.9639 0.7080 0.8413
H8_16 H 0.8725 0.7080 0.8190
O3 O 0.0149(4) 0.5854(3) 0.2901(2)
O4 O 0.1486(4) 0.5677(3) 0.2740(2)
C5 C 0.0576(6) 0.4616(5) 0.1828(5)
H9 H 0.0928 0.4377 0.1708
C6 C 0.0902(5) 0.4923(5) 0.2148(5)
C7 C 0.0377(5) 0.5280(3) 0.2327(2)
C10 C 0.0685(6) 0.5616(4) 0.2675(3)
N2 N 0.179(2) 0.4864(13) 0.2280(12)
H12 H 0.2109 0.4643 0.2161
H13 H 0.2011 0.5049 0.2477
In2 In 0.1250 0.6250 0.32418(2)
In1 In 0.8750 0.3750 0.07418(2)
O1 O 0.8592(5) 0.4313(3) 0.1266(2)
O2 O 0.9917(5) 0.4102(3) 0.1105(2)
C3 C 0.9389(7) 0.4346(4) 0.1334(3)
C4 C 0.9725(6) 0.4666(3) 0.1688(2)
C8 C 0.9525(6) 0.5330(5) 0.2187(5)
H10 H 0.9173 0.5569 0.2306
C9 C 0.9199(5) 0.5023(5) 0.1867(5)
H11 H 0.8629 0.5056 0.1773
O5 O 0.8908(5) 0.3187(3) 0.1266(2)
O6 O 0.7583(5) 0.3398(3) 0.1105(2)
O7 O 0.7351(4) 0.1646(3) 0.2901(2)
O8 O 0.6014(4) 0.1823(3) 0.2740(2)
C11 C 0.8111(7) 0.3154(4) 0.1334(3)
C12 C 0.7775(6) 0.2834(3) 0.1688(2)
C13 C 0.6924(6) 0.2884(5) 0.1828(5)
H14 H 0.6572 0.3123 0.1708
C14 C 0.6598(5) 0.2577(5) 0.2148(5)
C15 C 0.7123(5) 0.2220(3) 0.2327(2)
C16 C 0.7975(6) 0.2170(5) 0.2187(5)
H15 H 0.8327 0.1931 0.2306
C17 C 0.8301(5) 0.2477(5) 0.1867(5)
H16 H 0.8871 0.2444 0.1773
C18 C 0.6815(6) 0.1884(4) 0.2675(3)
N3 N 0.571(2) 0.2636(13) 0.2280(12)
H17 H 0.5391 0.2857 0.2161
H18 H 0.5489 0.2451 0.2477
In3 In 0.6250 0.1250 0.32418(2)
O9 O 0.9851(4) 0.3354(3) 0.0401(2)
O10 O 0.7649(4) 0.4146(3) 0.0401(2)
O11 O 0.8514(4) 0.3177(3) 0.0240(2)
O12 O 0.8986(4) 0.4323(3) 0.0240(2)
O7_2 O 0.5149(4) 0.0854(3) 0.2901(2)
O8_2 O 0.6486(4) 0.0677(3) 0.2740(2)
C15_2 C 0.5377(5) 0.0280(3) 0.2327(2)
C16_2 C 0.4525(6) 0.0330(5) 0.2187(5)
H15_2 H 0.4173 0.0569 0.2306
C17_2 C 0.4199(5) 0.0023(5) 0.1867(5)
H16_2 H 0.3629 0.0056 0.1773
C18_2 C 0.5685(6) 0.0616(4) 0.2675(3)
H18_2 H 0.7011 0.0049 0.2477
In1_2 In 0.3750 0.8750 0.07418(2)
O1_2 O 0.3908(5) 0.8187(3) 0.1266(2)
O2_2 O 0.2583(5) 0.8398(3) 0.1105(2)
O3_2 O 0.2351(4) 0.6646(3) 0.2901(2)
O4_2 O 0.1014(4) 0.6823(3) 0.2740(2)
C3_2 C 0.3111(7) 0.8154(4) 0.1334(3)
C4_2 C 0.2775(6) 0.7834(3) 0.1688(2)
C5_2 C 0.1924(6) 0.7884(5) 0.1828(5)
H9_2 H 0.1572 0.8123 0.1708
C6_2 C 0.1598(5) 0.7577(5) 0.2148(5)
C7_2 C 0.2123(5) 0.7220(3) 0.2327(2)
C8_2 C 0.2975(6) 0.7170(5) 0.2187(5)
H10_2 H 0.3327 0.6931 0.2306
C9_2 C 0.3301(5) 0.7477(5) 0.1867(5)
H11_2 H 0.3871 0.7444 0.1773
C10_2 C 0.1815(6) 0.6884(4) 0.2675(3)
N2_2 N 0.071(2) 0.7636(13) 0.2280(12)
H12_2 H 0.0391 0.7857 0.2161
H13_2 H 0.0489 0.7451 0.2477
O5_2 O 0.3592(5) 0.9313(3) 0.1266(2)
O6_2 O 0.4917(5) 0.9102(3) 0.1105(2)
C11_2 C 0.4389(7) 0.9346(4) 0.1334(3)
C12_2 C 0.4725(6) 0.9666(3) 0.1688(2)
C13_2 C 0.5576(6) 0.9616(5) 0.1828(5)
H14_2 H 0.5928 0.9377 0.1708
C14_2 C 0.5902(5) 0.9923(5) 0.2148(5)
N3_2 N 0.679(2) 0.9864(13) 0.2280(12)
H17_2 H 0.7109 0.9643 0.2161
O9_2 O 0.2649(4) 0.9146(3) 0.0401(2)
O10_2 O 0.4851(4) 0.8354(3) 0.0401(2)
O11_2 O 0.3986(4) 0.9323(3) 0.0240(2)
O12_2 O 0.3514(4) 0.8177(3) 0.0240(2)
O3_3 O 0.0149(4) 0.0854(3) 0.7901(2)
O4_3 O 0.1486(4) 0.0677(3) 0.7740(2)
C7_3 C 0.0377(5) 0.0280(3) 0.7327(2)
C10_3 C 0.0685(6) 0.0616(4) 0.7675(3)
H13_3 H 0.2011 0.0049 0.7477
In2_2 In 0.1250 0.1250 0.82418(2)
In1_3 In 0.8750 0.8750 0.57418(2)
O1_3 O 0.8592(5) 0.9313(3) 0.6266(2)
O2_3 O 0.9917(5) 0.9102(3) 0.6105(2)
C3_3 C 0.9389(7) 0.9346(4) 0.6334(3)
C4_3 C 0.9725(6) 0.9666(3) 0.6688(2)
O5_3 O 0.8908(5) 0.8187(3) 0.6266(2)
O6_3 O 0.7583(5) 0.8398(3) 0.6105(2)
O7_3 O 0.7351(4) 0.6646(3) 0.7901(2)
O8_3 O 0.6014(4) 0.6823(3) 0.7740(2)
C11_3 C 0.8111(7) 0.8154(4) 0.6334(3)
C12_3 C 0.7775(6) 0.7834(3) 0.6688(2)
C13_3 C 0.6924(6) 0.7884(5) 0.6828(5)
H14_3 H 0.6572 0.8123 0.6708
C14_3 C 0.6598(5) 0.7577(5) 0.7148(5)
C15_3 C 0.7123(5) 0.7220(3) 0.7327(2)
C16_3 C 0.7975(6) 0.7170(5) 0.7187(5)
H15_3 H 0.8327 0.6931 0.7306
C17_3 C 0.8301(5) 0.7477(5) 0.6867(5)
H16_3 H 0.8871 0.7444 0.6773
C18_3 C 0.6815(6) 0.6884(4) 0.7675(3)
N3_3 N 0.571(2) 0.7636(13) 0.7280(12)
H17_3 H 0.5391 0.7857 0.7161
H18_3 H 0.5489 0.7451 0.7477
In3_2 In 0.6250 0.6250 0.82418(2)
O9_3 O 0.9851(4) 0.8354(3) 0.5401(2)
O10_3 O 0.7649(4) 0.9146(3) 0.5401(2)
O11_3 O 0.8514(4) 0.8177(3) 0.5240(2)
O12_3 O 0.8986(4) 0.9323(3) 0.5240(2)
In1_4 In 0.3750 0.3750 0.57418(2)
O1_4 O 0.3908(5) 0.3187(3) 0.6266(2)
O2_4 O 0.2583(5) 0.3398(3) 0.6105(2)
O3_4 O 0.2351(4) 0.1646(3) 0.7901(2)
O4_4 O 0.1014(4) 0.1823(3) 0.7740(2)
C3_4 C 0.3111(7) 0.3154(4) 0.6334(3)
C4_4 C 0.2775(6) 0.2834(3) 0.6688(2)
C5_3 C 0.1924(6) 0.2884(5) 0.6828(5)
H9_3 H 0.1572 0.3123 0.6708
C6_3 C 0.1598(5) 0.2577(5) 0.7148(5)
C7_4 C 0.2123(5) 0.2220(3) 0.7327(2)
C8_3 C 0.2975(6) 0.2170(5) 0.7187(5)
H10_3 H 0.3327 0.1931 0.7306
C9_3 C 0.3301(5) 0.2477(5) 0.6867(5)
H11_3 H 0.3871 0.2444 0.6773
C10_4 C 0.1815(6) 0.1884(4) 0.7675(3)
N2_3 N 0.071(2) 0.2636(13) 0.7280(12)
H12_3 H 0.0391 0.2857 0.7161
H13_4 H 0.0489 0.2451 0.7477
O5_4 O 0.3592(5) 0.4313(3) 0.6266(2)
O6_4 O 0.4917(5) 0.4102(3) 0.6105(2)
O7_4 O 0.5149(4) 0.5854(3) 0.7901(2)
O8_4 O 0.6486(4) 0.5677(3) 0.7740(2)
C11_4 C 0.4389(7) 0.4346(4) 0.6334(3)
C12_4 C 0.4725(6) 0.4666(3) 0.6688(2)
C13_4 C 0.5576(6) 0.4616(5) 0.6828(5)
H14_4 H 0.5928 0.4377 0.6708
C14_4 C 0.5902(5) 0.4923(5) 0.7148(5)
C15_4 C 0.5377(5) 0.5280(3) 0.7327(2)
C16_4 C 0.4525(6) 0.5330(5) 0.7187(5)
H15_4 H 0.4173 0.5569 0.7306
C17_4 C 0.4199(5) 0.5023(5) 0.6867(5)
H16_4 H 0.3629 0.5056 0.6773
C18_4 C 0.5685(6) 0.5616(4) 0.7675(3)
N3_4 N 0.679(2) 0.4864(13) 0.7280(12)
H17_4 H 0.7109 0.4643 0.7161
H18_4 H 0.7011 0.5049 0.7477
O9_4 O 0.2649(4) 0.4146(3) 0.5401(2)
O10_4 O 0.4851(4) 0.3354(3) 0.5401(2)
O11_4 O 0.3986(4) 0.4323(3) 0.5240(2)
O12_4 O 0.3514(4) 0.3177(3) 0.5240(2)
O1_5 O 0.1408(5) 0.1813(3) 0.8766(2)
O2_5 O 0.0083(5) 0.1602(3) 0.8605(2)
C3_5 C 0.0611(7) 0.1846(4) 0.8834(3)
C4_5 C 0.0275(6) 0.2166(3) 0.9188(2)
C8_4 C 0.0475(6) 0.2830(5) 0.9687(5)
H10_4 H 0.0827 0.3069 0.9806
C9_4 C 0.0801(5) 0.2523(5) 0.9367(5)
H11_4 H 0.1371 0.2556 0.9273
O5_5 O 0.1092(5) 0.0687(3) 0.8766(2)
O6_5 O 0.2417(5) 0.0898(3) 0.8605(2)
C11_5 C 0.1889(7) 0.0654(4) 0.8834(3)
C12_5 C 0.2225(6) 0.0334(3) 0.9188(2)
C13_5 C 0.3076(6) 0.0384(5) 0.9328(5)
H14_5 H 0.3428 0.0623 0.9208
C14_5 C 0.3402(5) 0.0077(5) 0.9648(5)
N3_5 N 0.429(2) 0.0136(13) 0.9780(12)
H17_5 H 0.4609 0.0357 0.9661
C18_5 C 0.3185(6) 0.9384(4) 0.0175(3)
C10_5 C 0.9315(6) 0.3116(4) 0.0175(3)
C10_6 C 0.8185(6) 0.4384(4) 0.0175(3)
C18_6 C 0.4315(6) 0.8116(4) 0.0175(3)
O1_6 O 0.6092(5) 0.5687(3) 0.8766(2)
O2_6 O 0.7417(5) 0.5898(3) 0.8605(2)
C3_6 C 0.6889(7) 0.5654(4) 0.8834(3)
C4_6 C 0.7225(6) 0.5334(3) 0.9188(2)
C5_4 C 0.8076(6) 0.5384(5) 0.9328(5)
H9_4 H 0.8428 0.5623 0.9208
C6_4 C 0.8402(5) 0.5077(5) 0.9648(5)
C7_5 C 0.7877(5) 0.4720(3) 0.9827(2)
C8_5 C 0.7025(6) 0.4670(5) 0.9687(5)
H10_5 H 0.6673 0.4431 0.9806
C9_5 C 0.6699(5) 0.4977(5) 0.9367(5)
H11_5 H 0.6129 0.4944 0.9273
N2_4 N 0.929(2) 0.5136(13) 0.9780(12)
H12_4 H 0.9609 0.5357 0.9661
H13_5 H 0.9511 0.4951 0.9977
O5_6 O 0.6408(5) 0.6813(3) 0.8766(2)
O6_6 O 0.5083(5) 0.6602(3) 0.8605(2)
C11_6 C 0.5611(7) 0.6846(4) 0.8834(3)
C12_6 C 0.5275(6) 0.7166(3) 0.9188(2)
C13_6 C 0.4424(6) 0.7116(5) 0.9328(5)
H14_6 H 0.4072 0.6877 0.9208
C14_6 C 0.4098(5) 0.7423(5) 0.9648(5)
C15_5 C 0.4623(5) 0.7780(3) 0.9827(2)
C16_5 C 0.5475(6) 0.7830(5) 0.9687(5)
H15_5 H 0.5827 0.8069 0.9806
C17_5 C 0.5801(5) 0.7523(5) 0.9367(5)
H16_5 H 0.6371 0.7556 0.9273
N3_6 N 0.321(2) 0.7364(13) 0.9780(12)
H17_6 H 0.2891 0.7143 0.9661
H18_5 H 0.2989 0.7549 0.9977
O1_7 O 0.1408(5) 0.6813(3) 0.3766(2)
O2_7 O 0.0083(5) 0.6602(3) 0.3605(2)
C3_7 C 0.0611(7) 0.6846(4) 0.3834(3)
C4_7 C 0.0275(6) 0.7166(3) 0.4188(2)
C8_6 C 0.0475(6) 0.7830(5) 0.4687(5)
H10_6 H 0.0827 0.8069 0.4806
C9_6 C 0.0801(5) 0.7523(5) 0.4367(5)
H11_6 H 0.1371 0.7556 0.4273
O5_7 O 0.1092(5) 0.5687(3) 0.3766(2)
O6_7 O 0.2417(5) 0.5898(3) 0.3605(2)
C11_7 C 0.1889(7) 0.5654(4) 0.3834(3)
C12_7 C 0.2225(6) 0.5334(3) 0.4188(2)
C13_7 C 0.3076(6) 0.5384(5) 0.4328(5)
H14_7 H 0.3428 0.5623 0.4208
C14_7 C 0.3402(5) 0.5077(5) 0.4648(5)
C15_6 C 0.2877(5) 0.4720(3) 0.4827(2)
C16_6 C 0.2025(6) 0.4670(5) 0.4687(5)
H15_6 H 0.1673 0.4431 0.4806
C17_6 C 0.1699(5) 0.4977(5) 0.4367(5)
H16_6 H 0.1129 0.4944 0.4273
C18_7 C 0.3185(6) 0.4384(4) 0.5175(3)
N3_7 N 0.429(2) 0.5136(13) 0.4780(12)
H17_7 H 0.4609 0.5357 0.4661
H18_6 H 0.4511 0.4951 0.4977
C5_5 C 0.9424(6) 0.7116(5) 0.4328(5)
H9_5 H 0.9072 0.6877 0.4208
C6_5 C 0.9098(5) 0.7423(5) 0.4648(5)
C7_6 C 0.9623(5) 0.7780(3) 0.4827(2)
C10_7 C 0.9315(6) 0.8116(4) 0.5175(3)
N2_5 N 0.821(2) 0.7364(13) 0.4780(12)
H12_5 H 0.7891 0.7143 0.4661
H13_6 H 0.7989 0.7549 0.4977
O1_8 O 0.6092(5) 0.0687(3) 0.3766(2)
O2_8 O 0.7417(5) 0.0898(3) 0.3605(2)
C3_8 C 0.6889(7) 0.0654(4) 0.3834(3)
C4_8 C 0.7225(6) 0.0334(3) 0.4188(2)
C5_6 C 0.8076(6) 0.0384(5) 0.4328(5)
H9_6 H 0.8428 0.0623 0.4208
C6_6 C 0.8402(5) 0.0077(5) 0.4648(5)
N2_6 N 0.929(2) 0.0136(13) 0.4780(12)
H12_6 H 0.9609 0.0357 0.4661
O5_8 O 0.6408(5) 0.1813(3) 0.3766(2)
O6_8 O 0.5083(5) 0.1602(3) 0.3605(2)
C11_8 C 0.5611(7) 0.1846(4) 0.3834(3)
C12_8 C 0.5275(6) 0.2166(3) 0.4188(2)
C13_8 C 0.4424(6) 0.2116(5) 0.4328(5)
H14_8 H 0.4072 0.1877 0.4208
C14_8 C 0.4098(5) 0.2423(5) 0.4648(5)
C15_7 C 0.4623(5) 0.2780(3) 0.4827(2)
C16_7 C 0.5475(6) 0.2830(5) 0.4687(5)
H15_7 H 0.5827 0.3069 0.4806
C17_7 C 0.5801(5) 0.2523(5) 0.4367(5)
H16_7 H 0.6371 0.2556 0.4273
C18_8 C 0.4315(6) 0.3116(4) 0.5175(3)
N3_8 N 0.321(2) 0.2364(13) 0.4780(12)
H17_8 H 0.2891 0.2143 0.4661
H18_7 H 0.2989 0.2549 0.4977
C7_7 C 0.7877(5) 0.9720(3) 0.4827(2)
C8_7 C 0.7025(6) 0.9670(5) 0.4687(5)
H10_7 H 0.6673 0.9431 0.4806
C9_7 C 0.6699(5) 0.9977(5) 0.4367(5)
H11_7 H 0.6129 0.9944 0.4273
C10_8 C 0.8185(6) 0.9384(4) 0.5175(3)
H13_7 H 0.9511 0.9951 0.4977
C5_7 C 0.0576(6) 0.7884(5) 0.0672(5)
H9_7 H 0.0928 0.8123 0.0792
C6_7 C 0.0902(5) 0.7577(5) 0.0352(5)
C7_8 C 0.0377(5) 0.7220(3) 0.0173(2)
N2_7 N 0.179(2) 0.7636(13) 0.0220(12)
H12_7 H 0.2109 0.7857 0.0339
H13_8 H 0.2011 0.7451 0.0023
O3_5 O 0.0149(4) 0.6646(3) 0.9599(2)
O4_5 O 0.1486(4) 0.6823(3) 0.9760(2)
C10_9 C 0.0685(6) 0.6884(4) 0.9825(3)
In2_3 In 0.1250 0.6250 0.92582(2)
O7_5 O 0.7351(4) 0.0854(3) 0.9599(2)
O8_5 O 0.6014(4) 0.0677(3) 0.9760(2)
C18_9 C 0.6815(6) 0.0616(4) 0.9825(3)
In3_3 In 0.6250 0.1250 0.92582(2)
In1_5 In 0.8750 0.8750 0.17582(2)
O1_9 O 0.8592(5) 0.8187(3) 0.1234(2)
O2_9 O 0.9917(5) 0.8398(3) 0.1395(2)
C3_9 C 0.9389(7) 0.8154(4) 0.1166(3)
C4_9 C 0.9725(6) 0.7834(3) 0.0812(2)
C8_8 C 0.9525(6) 0.7170(5) 0.0313(5)
H10_8 H 0.9173 0.6931 0.0194
C9_8 C 0.9199(5) 0.7477(5) 0.0633(5)
H11_8 H 0.8629 0.7444 0.0727
O5_9 O 0.8908(5) 0.9313(3) 0.1234(2)
O6_9 O 0.7583(5) 0.9102(3) 0.1395(2)
C11_9 C 0.8111(7) 0.9346(4) 0.1166(3)
C12_9 C 0.7775(6) 0.9666(3) 0.0812(2)
C13_9 C 0.6924(6) 0.9616(5) 0.0672(5)
H14_9 H 0.6572 0.9377 0.0792
C14_9 C 0.6598(5) 0.9923(5) 0.0352(5)
N3_9 N 0.571(2) 0.9864(13) 0.0220(12)
H17_9 H 0.5391 0.9643 0.0339
O9_5 O 0.9851(4) 0.9146(3) 0.2099(2)
O10_5 O 0.7649(4) 0.8354(3) 0.2099(2)
O11_5 O 0.8514(4) 0.9323(3) 0.2260(2)
O12_5 O 0.8986(4) 0.8177(3) 0.2260(2)
In1_6 In 0.3750 0.3750 0.17582(2)
O1_10 O 0.3908(5) 0.4313(3) 0.1234(2)
O2_10 O 0.2583(5) 0.4102(3) 0.1395(2)
C3_10 C 0.3111(7) 0.4346(4) 0.1166(3)
C4_10 C 0.2775(6) 0.4666(3) 0.0812(2)
C5_8 C 0.1924(6) 0.4616(5) 0.0672(5)
H9_8 H 0.1572 0.4377 0.0792
C6_8 C 0.1598(5) 0.4923(5) 0.0352(5)
C7_9 C 0.2123(5) 0.5280(3) 0.0173(2)
C8_9 C 0.2975(6) 0.5330(5) 0.0313(5)
H10_9 H 0.3327 0.5569 0.0194
C9_9 C 0.3301(5) 0.5023(5) 0.0633(5)
H11_9 H 0.3871 0.5056 0.0727
N2_8 N 0.071(2) 0.4864(13) 0.0220(12)
H12_8 H 0.0391 0.4643 0.0339
H13_9 H 0.0489 0.5049 0.0023
O5_10 O 0.3592(5) 0.3187(3) 0.1234(2)
O6_10 O 0.4917(5) 0.3398(3) 0.1395(2)
C11_10 C 0.4389(7) 0.3154(4) 0.1166(3)
C12_10 C 0.4725(6) 0.2834(3) 0.0812(2)
C13_10 C 0.5576(6) 0.2884(5) 0.0672(5)
H14_10 H 0.5928 0.3123 0.0792
C14_10 C 0.5902(5) 0.2577(5) 0.0352(5)
C15_8 C 0.5377(5) 0.2220(3) 0.0173(2)
C16_8 C 0.4525(6) 0.2170(5) 0.0313(5)
H15_8 H 0.4173 0.1931 0.0194
C17_8 C 0.4199(5) 0.2477(5) 0.0633(5)
H16_8 H 0.3629 0.2444 0.0727
N3_10 N 0.679(2) 0.2636(13) 0.0220(12)
H17_10 H 0.7109 0.2857 0.0339
H18_8 H 0.7011 0.2451 0.0023
O9_6 O 0.2649(4) 0.3354(3) 0.2099(2)
O10_6 O 0.4851(4) 0.4146(3) 0.2099(2)
O11_6 O 0.3986(4) 0.3177(3) 0.2260(2)
O12_6 O 0.3514(4) 0.4323(3) 0.2260(2)
O3_6 O 0.2351(4) 0.5854(3) 0.9599(2)
O4_6 O 0.1014(4) 0.5677(3) 0.9760(2)
C10_10 C 0.1815(6) 0.5616(4) 0.9825(3)
O7_6 O 0.5149(4) 0.1646(3) 0.9599(2)
O8_6 O 0.6486(4) 0.1823(3) 0.9760(2)
C18_10 C 0.5685(6) 0.1884(4) 0.9825(3)
O3_7 O 0.0149(4) 0.1646(3) 0.4599(2)
O4_7 O 0.1486(4) 0.1823(3) 0.4760(2)
C5_9 C 0.0576(6) 0.2884(5) 0.5672(5)
H9_9 H 0.0928 0.3123 0.5792
C6_9 C 0.0902(5) 0.2577(5) 0.5352(5)
C7_10 C 0.0377(5) 0.2220(3) 0.5173(2)
C10_11 C 0.0685(6) 0.1884(4) 0.4825(3)
N2_9 N 0.179(2) 0.2636(13) 0.5220(12)
H12_9 H 0.2109 0.2857 0.5339
H13_10 H 0.2011 0.2451 0.5023
In2_4 In 0.1250 0.1250 0.42582(2)
In1_7 In 0.8750 0.3750 0.67582(2)
O1_11 O 0.8592(5) 0.3187(3) 0.6234(2)
O2_11 O 0.9917(5) 0.3398(3) 0.6395(2)
C3_11 C 0.9389(7) 0.3154(4) 0.6166(3)
C4_11 C 0.9725(6) 0.2834(3) 0.5812(2)
C8_10 C 0.9525(6) 0.2170(5) 0.5313(5)
H10_10 H 0.9173 0.1931 0.5194
C9_10 C 0.9199(5) 0.2477(5) 0.5633(5)
H11_10 H 0.8629 0.2444 0.5727
O5_11 O 0.8908(5) 0.4313(3) 0.6234(2)
O6_11 O 0.7583(5) 0.4102(3) 0.6395(2)
O7_7 O 0.7351(4) 0.5854(3) 0.4599(2)
O8_7 O 0.6014(4) 0.5677(3) 0.4760(2)
C11_11 C 0.8111(7) 0.4346(4) 0.6166(3)
C12_11 C 0.7775(6) 0.4666(3) 0.5812(2)
C13_11 C 0.6924(6) 0.4616(5) 0.5672(5)
H14_11 H 0.6572 0.4377 0.5792
C14_11 C 0.6598(5) 0.4923(5) 0.5352(5)
C15_9 C 0.7123(5) 0.5280(3) 0.5173(2)
C16_9 C 0.7975(6) 0.5330(5) 0.5313(5)
H15_9 H 0.8327 0.5569 0.5194
C17_9 C 0.8301(5) 0.5023(5) 0.5633(5)
H16_9 H 0.8871 0.5056 0.5727
C18_11 C 0.6815(6) 0.5616(4) 0.4825(3)
N3_11 N 0.571(2) 0.4864(13) 0.5220(12)
H17_11 H 0.5391 0.4643 0.5339
H18_9 H 0.5489 0.5049 0.5023
In3_4 In 0.6250 0.6250 0.42582(2)
O9_7 O 0.9851(4) 0.4146(3) 0.7099(2)
O10_7 O 0.7649(4) 0.3354(3) 0.7099(2)
O11_7 O 0.8514(4) 0.4323(3) 0.7260(2)
O12_7 O 0.8986(4) 0.3177(3) 0.7260(2)
O3_8 O 0.2351(4) 0.0854(3) 0.4599(2)
O4_8 O 0.1014(4) 0.0677(3) 0.4760(2)
C7_11 C 0.2123(5) 0.0280(3) 0.5173(2)
C8_11 C 0.2975(6) 0.0330(5) 0.5313(5)
H10_11 H 0.3327 0.0569 0.5194
C9_11 C 0.3301(5) 0.0023(5) 0.5633(5)
H11_11 H 0.3871 0.0056 0.5727
C10_12 C 0.1815(6) 0.0616(4) 0.4825(3)
H13_11 H 0.0489 0.0049 0.5023
In1_8 In 0.3750 0.8750 0.67582(2)
O1_12 O 0.3908(5) 0.9313(3) 0.6234(2)
O2_12 O 0.2583(5) 0.9102(3) 0.6395(2)
C3_12 C 0.3111(7) 0.9346(4) 0.6166(3)
C4_12 C 0.2775(6) 0.9666(3) 0.5812(2)
C5_10 C 0.1924(6) 0.9616(5) 0.5672(5)
H9_10 H 0.1572 0.9377 0.5792
C6_10 C 0.1598(5) 0.9923(5) 0.5352(5)
N2_10 N 0.071(2) 0.9864(13) 0.5220(12)
H12_10 H 0.0391 0.9643 0.5339
O5_12 O 0.3592(5) 0.8187(3) 0.6234(2)
O6_12 O 0.4917(5) 0.8398(3) 0.6395(2)
O7_8 O 0.5149(4) 0.6646(3) 0.4599(2)
O8_8 O 0.6486(4) 0.6823(3) 0.4760(2)
C11_12 C 0.4389(7) 0.8154(4) 0.6166(3)
C12_12 C 0.4725(6) 0.7834(3) 0.5812(2)
C13_12 C 0.5576(6) 0.7884(5) 0.5672(5)
H14_12 H 0.5928 0.8123 0.5792
C14_12 C 0.5902(5) 0.7577(5) 0.5352(5)
C15_10 C 0.5377(5) 0.7220(3) 0.5173(2)
C16_10 C 0.4525(6) 0.7170(5) 0.5313(5)
H15_10 H 0.4173 0.6931 0.5194
C17_10 C 0.4199(5) 0.7477(5) 0.5633(5)
H16_10 H 0.3629 0.7444 0.5727
C18_12 C 0.5685(6) 0.6884(4) 0.4825(3)
N3_12 N 0.679(2) 0.7636(13) 0.5220(12)
H17_12 H 0.7109 0.7857 0.5339
H18_10 H 0.7011 0.7451 0.5023
O9_8 O 0.2649(4) 0.8354(3) 0.7099(2)
O10_8 O 0.4851(4) 0.9146(3) 0.7099(2)
O11_8 O 0.3986(4) 0.8177(3) 0.7260(2)
O12_8 O 0.3514(4) 0.9323(3) 0.7260(2)
O1_13 O 0.1408(5) 0.5687(3) 0.8734(2)
O2_13 O 0.0083(5) 0.5898(3) 0.8895(2)
C3_13 C 0.0611(7) 0.5654(4) 0.8666(3)
C4_13 C 0.0275(6) 0.5334(3) 0.8312(2)
C8_12 C 0.0475(6) 0.4670(5) 0.7813(5)
H10_12 H 0.0827 0.4431 0.7694
C9_12 C 0.0801(5) 0.4977(5) 0.8133(5)
H11_12 H 0.1371 0.4944 0.8227
O5_13 O 0.1092(5) 0.6813(3) 0.8734(2)
O6_13 O 0.2417(5) 0.6602(3) 0.8895(2)
C11_13 C 0.1889(7) 0.6846(4) 0.8666(3)
C12_13 C 0.2225(6) 0.7166(3) 0.8312(2)
C13_13 C 0.3076(6) 0.7116(5) 0.8172(5)
H14_13 H 0.3428 0.6877 0.8292
C14_13 C 0.3402(5) 0.7423(5) 0.7852(5)
C15_11 C 0.2877(5) 0.7780(3) 0.7673(2)
C16_11 C 0.2025(6) 0.7830(5) 0.7813(5)
H15_11 H 0.1673 0.8069 0.7694
C17_11 C 0.1699(5) 0.7523(5) 0.8133(5)
H16_11 H 0.1129 0.7556 0.8227
C18_13 C 0.3185(6) 0.8116(4) 0.7325(3)
N3_13 N 0.429(2) 0.7364(13) 0.7720(12)
H17_13 H 0.4609 0.7143 0.7839
H18_11 H 0.4511 0.7549 0.7523
C5_11 C 0.9424(6) 0.5384(5) 0.8172(5)
H9_11 H 0.9072 0.5623 0.8292
C6_11 C 0.9098(5) 0.5077(5) 0.7852(5)
C7_12 C 0.9623(5) 0.4720(3) 0.7673(2)
C10_13 C 0.9315(6) 0.4384(4) 0.7325(3)
N2_11 N 0.821(2) 0.5136(13) 0.7720(12)
H12_11 H 0.7891 0.5357 0.7839
H13_12 H 0.7989 0.4951 0.7523
O1_14 O 0.6092(5) 0.1813(3) 0.8734(2)
O2_14 O 0.7417(5) 0.1602(3) 0.8895(2)
C3_14 C 0.6889(7) 0.1846(4) 0.8666(3)
C4_14 C 0.7225(6) 0.2166(3) 0.8312(2)
C5_12 C 0.8076(6) 0.2116(5) 0.8172(5)
H9_12 H 0.8428 0.1877 0.8292
C6_12 C 0.8402(5) 0.2423(5) 0.7852(5)
C7_13 C 0.7877(5) 0.2780(3) 0.7673(2)
C8_13 C 0.7025(6) 0.2830(5) 0.7813(5)
H10_13 H 0.6673 0.3069 0.7694
C9_13 C 0.6699(5) 0.2523(5) 0.8133(5)
H11_13 H 0.6129 0.2556 0.8227
C10_14 C 0.8185(6) 0.3116(4) 0.7325(3)
N2_12 N 0.929(2) 0.2364(13) 0.7720(12)
H12_12 H 0.9609 0.2143 0.7839
H13_13 H 0.9511 0.2549 0.7523
O5_14 O 0.6408(5) 0.0687(3) 0.8734(2)
O6_14 O 0.5083(5) 0.0898(3) 0.8895(2)
C11_14 C 0.5611(7) 0.0654(4) 0.8666(3)
C12_14 C 0.5275(6) 0.0334(3) 0.8312(2)
C13_14 C 0.4424(6) 0.0384(5) 0.8172(5)
H14_14 H 0.4072 0.0623 0.8292
C14_14 C 0.4098(5) 0.0077(5) 0.7852(5)
N3_14 N 0.321(2) 0.0136(13) 0.7720(12)
H17_14 H 0.2891 0.0357 0.7839
C15_12 C 0.4623(5) 0.9720(3) 0.7673(2)
C16_12 C 0.5475(6) 0.9670(5) 0.7813(5)
H15_12 H 0.5827 0.9431 0.7694
C17_12 C 0.5801(5) 0.9977(5) 0.8133(5)
H16_12 H 0.6371 0.9944 0.8227
C18_14 C 0.4315(6) 0.9384(4) 0.7325(3)
H18_12 H 0.2989 0.9951 0.7523
O1_15 O 0.1408(5) 0.0687(3) 0.3734(2)
O2_15 O 0.0083(5) 0.0898(3) 0.3895(2)
C3_15 C 0.0611(7) 0.0654(4) 0.3666(3)
C4_15 C 0.0275(6) 0.0334(3) 0.3312(2)
O5_15 O 0.1092(5) 0.1813(3) 0.3734(2)
O6_15 O 0.2417(5) 0.1602(3) 0.3895(2)
C11_15 C 0.1889(7) 0.1846(4) 0.3666(3)
C12_15 C 0.2225(6) 0.2166(3) 0.3312(2)
C13_15 C 0.3076(6) 0.2116(5) 0.3172(5)
H14_15 H 0.3428 0.1877 0.3292
C14_15 C 0.3402(5) 0.2423(5) 0.2852(5)
C15_13 C 0.2877(5) 0.2780(3) 0.2673(2)
C16_13 C 0.2025(6) 0.2830(5) 0.2813(5)
H15_13 H 0.1673 0.3069 0.2694
C17_13 C 0.1699(5) 0.2523(5) 0.3133(5)
H16_13 H 0.1129 0.2556 0.3227
C18_15 C 0.3185(6) 0.3116(4) 0.2325(3)
N3_15 N 0.429(2) 0.2364(13) 0.2720(12)
H17_15 H 0.4609 0.2143 0.2839
H18_13 H 0.4511 0.2549 0.2523
C7_14 C 0.9623(5) 0.9720(3) 0.2673(2)
C10_15 C 0.9315(6) 0.9384(4) 0.2325(3)
H13_14 H 0.7989 0.9951 0.2523
O1_16 O 0.6092(5) 0.6813(3) 0.3734(2)
O2_16 O 0.7417(5) 0.6602(3) 0.3895(2)
C3_16 C 0.6889(7) 0.6846(4) 0.3666(3)
C4_16 C 0.7225(6) 0.7166(3) 0.3312(2)
C5_13 C 0.8076(6) 0.7116(5) 0.3172(5)
H9_13 H 0.8428 0.6877 0.3292
C6_13 C 0.8402(5) 0.7423(5) 0.2852(5)
C7_15 C 0.7877(5) 0.7780(3) 0.2673(2)
C8_14 C 0.7025(6) 0.7830(5) 0.2813(5)
H10_14 H 0.6673 0.8069 0.2694
C9_14 C 0.6699(5) 0.7523(5) 0.3133(5)
H11_14 H 0.6129 0.7556 0.3227
C10_16 C 0.8185(6) 0.8116(4) 0.2325(3)
N2_13 N 0.929(2) 0.7364(13) 0.2720(12)
H12_13 H 0.9609 0.7143 0.2839
H13_15 H 0.9511 0.7549 0.2523
O5_16 O 0.6408(5) 0.5687(3) 0.3734(2)
O6_16 O 0.5083(5) 0.5898(3) 0.3895(2)
C11_16 C 0.5611(7) 0.5654(4) 0.3666(3)
C12_16 C 0.5275(6) 0.5334(3) 0.3312(2)
C13_16 C 0.4424(6) 0.5384(5) 0.3172(5)
H14_16 H 0.4072 0.5623 0.3292
C14_16 C 0.4098(5) 0.5077(5) 0.2852(5)
C15_14 C 0.4623(5) 0.4720(3) 0.2673(2)
C16_14 C 0.5475(6) 0.4670(5) 0.2813(5)
H15_14 H 0.5827 0.4431 0.2694
C17_14 C 0.5801(5) 0.4977(5) 0.3133(5)
H16_14 H 0.6371 0.4944 0.3227
C18_16 C 0.4315(6) 0.4384(4) 0.2325(3)
N3_16 N 0.321(2) 0.5136(13) 0.2720(12)
H17_16 H 0.2891 0.5357 0.2839
H18_14 H 0.2989 0.4951 0.2523
C15_15 C 0.7123(5) 0.0280(3) 0.0173(2)
C16_15 C 0.7975(6) 0.0330(5) 0.0313(5)
H15_15 H 0.8327 0.0569 0.0194
C17_15 C 0.8301(5) 0.0023(5) 0.0633(5)
H16_15 H 0.8871 0.0056 0.0727
H18_15 H 0.5489 0.0049 0.0023
C5_14 C 0.0576(6) 0.9616(5) 0.6828(5)
H9_14 H 0.0928 0.9377 0.6708
C6_14 C 0.0902(5) 0.9923(5) 0.7148(5)
N2_14 N 0.179(2) 0.9864(13) 0.7280(12)
H12_14 H 0.2109 0.9643 0.7161
C8_15 C 0.9525(6) 0.0330(5) 0.7187(5)
H10_15 H 0.9173 0.0569 0.7306
C9_15 C 0.9199(5) 0.0023(5) 0.6867(5)
H11_15 H 0.8629 0.0056 0.6773
C15_16 C 0.2877(5) 0.9720(3) 0.9827(2)
C16_16 C 0.2025(6) 0.9670(5) 0.9687(5)
H15_16 H 0.1673 0.9431 0.9806
C17_16 C 0.1699(5) 0.9977(5) 0.9367(5)
H16_16 H 0.1129 0.9944 0.9273
H18_16 H 0.4511 0.9951 0.9977
C5_15 C 0.9424(6) 0.2116(5) 0.9328(5)
H9_15 H 0.9072 0.1877 0.9208
C6_15 C 0.9098(5) 0.2423(5) 0.9648(5)
C7_16 C 0.9623(5) 0.2780(3) 0.9827(2)
N2_15 N 0.821(2) 0.2364(13) 0.9780(12)
H12_15 H 0.7891 0.2143 0.9661
H13_16 H 0.7989 0.2549 0.9977
C8_16 C 0.0475(6) 0.9670(5) 0.2813(5)
H10_16 H 0.0827 0.9431 0.2694
C9_16 C 0.0801(5) 0.9977(5) 0.3133(5)
H11_16 H 0.1371 0.9944 0.3227
C5_16 C 0.9424(6) 0.0384(5) 0.3172(5)
H9_16 H 0.9072 0.0623 0.3292
C6_16 C 0.9098(5) 0.0077(5) 0.2852(5)
N2_16 N 0.821(2) 0.0136(13) 0.2720(12)
H12_16 H 0.7891 0.0357 0.2839
loop_
_geom_bond_atom_site_label_1
_geom_bond_atom_site_label_2
_geom_bond_site_symmetry_1
_geom_bond_site_symmetry_2
N1 H1 1_555 1_555
C1 N1 1_555 1_555
H2 C1 1_555 1_555
H3 C1 1_555 1_555
H4 C1 1_555 1_555
H5 N1 1_555 1_555
C2 N1 1_555 1_555
H6 C2 1_555 1_555
H7 C2 1_555 1_555
H8 C2 1_555 1_555
N1_2 H1_2 1_555 1_555
C1_2 N1_2 1_555 1_555
H2_2 C1_2 1_555 1_555
H3_2 C1_2 1_555 1_555
H4_2 C1_2 1_555 1_555
H5_2 N1_2 1_555 1_555
C2_2 N1_2 1_555 1_555
H6_2 C2_2 1_555 1_555
H7_2 C2_2 1_555 1_555
H8_2 C2_2 1_555 1_555
N1_3 H1_3 1_555 1_555
C1_3 N1_3 1_555 1_555
H2_3 C1_3 1_555 1_555
H3_3 C1_3 1_555 1_555
H4_3 C1_3 1_555 1_555
H5_3 N1_3 1_555 1_555
C2_3 N1_3 1_555 1_555
H6_3 C2_3 1_555 1_555
H7_3 C2_3 1_555 1_555
H8_3 C2_3 1_555 1_555
N1_4 H1_4 1_555 1_555
C1_4 N1_4 1_555 1_555
H2_4 C1_4 1_555 1_555
H3_4 C1_4 1_555 1_555
H4_4 C1_4 1_555 1_555
H5_4 N1_4 1_555 1_555
C2_4 N1_4 1_555 1_555
H6_4 C2_4 1_555 1_555
H7_4 C2_4 1_555 1_555
H8_4 C2_4 1_555 1_555
N1_5 H1_5 1_555 1_555
C1_5 N1_5 1_555 1_555
H2_5 C1_5 1_555 1_555
H3_5 C1_5 1_555 1_555
H4_5 C1_5 1_555 1_555
H5_5 N1_5 1_555 1_555
C2_5 N1_5 1_555 1_555
H6_5 C2_5 1_555 1_555
H7_5 C2_5 1_555 1_555
H8_5 C2_5 1_555 1_555
N1_6 H1_6 1_555 1_555
C1_6 N1_6 1_555 1_555
H2_6 C1_6 1_555 1_555
H3_6 C1_6 1_555 1_555
H4_6 C1_6 1_555 1_555
H5_6 N1_6 1_555 1_555
C2_6 N1_6 1_555 1_555
H6_6 C2_6 1_555 1_555
H7_6 C2_6 1_555 1_555
H8_6 C2_6 1_555 1_555
N1_7 H1_7 1_555 1_555
C1_7 N1_7 1_555 1_555
H2_7 C1_7 1_555 1_555
H3_7 C1_7 1_555 1_555
H4_7 C1_7 1_555 1_555
H5_7 N1_7 1_555 1_555
C2_7 N1_7 1_555 1_555
H6_7 C2_7 1_555 1_555
H7_7 C2_7 1_555 1_555
H8_7 C2_7 1_555 1_555
N1_8 H1_8 1_555 1_555
C1_8 N1_8 1_555 1_555
H2_8 C1_8 1_555 1_555
H3_8 C1_8 1_555 1_555
H4_8 C1_8 1_555 1_555
H5_8 N1_8 1_555 1_555
C2_8 N1_8 1_555 1_555
H6_8 C2_8 1_555 1_555
H7_8 C2_8 1_555 1_555
H8_8 C2_8 1_555 1_555
N1_9 H1_9 1_555 1_555
C1_9 N1_9 1_555 1_555
H2_9 C1_9 1_555 1_555
H3_9 C1_9 1_555 1_555
H4_9 C1_9 1_555 1_555
H5_9 N1_9 1_555 1_555
C2_9 N1_9 1_555 1_555
H6_9 C2_9 1_555 1_555
H7_9 C2_9 1_555 1_555
H8_9 C2_9 1_555 1_555
N1_10 H1_10 1_555 1_555
C1_10 N1_10 1_555 1_555
H2_10 C1_10 1_555 1_555
H3_10 C1_10 1_555 1_555
H4_10 C1_10 1_555 1_555
H5_10 N1_10 1_555 1_555
C2_10 N1_10 1_555 1_555
H6_10 C2_10 1_555 1_555
H7_10 C2_10 1_555 1_555
H8_10 C2_10 1_555 1_555
N1_11 H1_11 1_555 1_555
C1_11 N1_11 1_555 1_555
H2_11 C1_11 1_555 1_555
H3_11 C1_11 1_555 1_555
H4_11 C1_11 1_555 1_555
H5_11 N1_11 1_555 1_555
C2_11 N1_11 1_555 1_555
H6_11 C2_11 1_555 1_555
H7_11 C2_11 1_555 1_555
H8_11 C2_11 1_555 1_555
N1_12 H1_12 1_555 1_555
C1_12 N1_12 1_555 1_555
H2_12 C1_12 1_555 1_555
H3_12 C1_12 1_555 1_555
H4_12 C1_12 1_555 1_555
H5_12 N1_12 1_555 1_555
C2_12 N1_12 1_555 1_555
H6_12 C2_12 1_555 1_555
H7_12 C2_12 1_555 1_555
H8_12 C2_12 1_555 1_555
N1_13 H1_13 1_555 1_555
C1_13 N1_13 1_555 1_555
H2_13 C1_13 1_555 1_555
H3_13 C1_13 1_555 1_555
H4_13 C1_13 1_555 1_555
H5_13 N1_13 1_555 1_555
C2_13 N1_13 1_555 1_555
H6_13 C2_13 1_555 1_555
H7_13 C2_13 1_555 1_555
H8_13 C2_13 1_555 1_555
N1_14 H1_14 1_555 1_555
C1_14 N1_14 1_555 1_555
H2_14 C1_14 1_555 1_555
H3_14 C1_14 1_555 1_555
H4_14 C1_14 1_555 1_555
H5_14 N1_14 1_555 1_555
C2_14 N1_14 1_555 1_555
H6_14 C2_14 1_555 1_555
H7_14 C2_14 1_555 1_555
H8_14 C2_14 1_555 1_555
N1_15 H1_15 1_555 1_555
C1_15 N1_15 1_555 1_555
H2_15 C1_15 1_555 1_555
H3_15 C1_15 1_555 1_555
H4_15 C1_15 1_555 1_555
H5_15 N1_15 1_555 1_555
C2_15 N1_15 1_555 1_555
H6_15 C2_15 1_555 1_555
H7_15 C2_15 1_555 1_555
H8_15 C2_15 1_555 1_555
N1_16 H1_16 1_555 1_555
C1_16 N1_16 1_555 1_555
H2_16 C1_16 1_555 1_555
H3_16 C1_16 1_555 1_555
H4_16 C1_16 1_555 1_555
H5_16 N1_16 1_555 1_555
C2_16 N1_16 1_555 1_555
H6_16 C2_16 1_555 1_555
H7_16 C2_16 1_555 1_555
H8_16 C2_16 1_555 1_555
O3 C10 1_555 1_555
O4 C10 1_555 1_555
H9 C5 1_555 1_555
C6 C5 1_555 1_555
C7 C6 1_555 1_555
C10 C7 1_555 1_555
N2 C6 1_555 1_555
H12 N2 1_555 1_555
H13 N2 1_555 1_555
In2 O3 1_555 1_555
O4 In2 1_555 1_555
In1 O1 1_555 1_555
O1 C3 1_555 1_555
O2 In1 1_555 1_555
C3 O2 1_555 1_555
C4 C3 1_555 1_555
H10 C8 1_555 1_555
C9 C4 1_555 1_555
H11 C9 1_555 1_555
O5 In1 1_555 1_555
O6 In1 1_555 1_555
O7 C18 1_555 1_555
O8 C18 1_555 1_555
C11 O5 1_555 1_555
C12 C11 1_555 1_555
C13 C12 1_555 1_555
H14 C13 1_555 1_555
C14 C13 1_555 1_555
C15 C14 1_555 1_555
C16 C15 1_555 1_555
H15 C16 1_555 1_555
C17 C12 1_555 1_555
H16 C17 1_555 1_555
C18 C15 1_555 1_555
N3 C14 1_555 1_555
H17 N3 1_555 1_555
H18 N3 1_555 1_555
In3 O7 1_555 1_555
O9 In1 1_555 1_555
O10 In1 1_555 1_555
O11 In1 1_555 1_555
O12 In1 1_555 1_555
C8 C9 1_555 1_555
O6 C11 1_555 1_555
O8 In3 1_555 1_555
C16 C17 1_555 1_555
O7_2 C18_2 1_555 1_555
O8_2 C18_2 1_555 1_555
C16_2 C15_2 1_555 1_555
H15_2 C16_2 1_555 1_555
H16_2 C17_2 1_555 1_555
C18_2 C15_2 1_555 1_555
In3 O7_2 1_555 1_555
O8_2 In3 1_555 1_555
C16_2 C17_2 1_555 1_555
In1_2 O1_2 1_555 1_555
O1_2 C3_2 1_555 1_555
O2_2 In1_2 1_555 1_555
O3_2 C10_2 1_555 1_555
O4_2 C10_2 1_555 1_555
C3_2 O2_2 1_555 1_555
C4_2 C3_2 1_555 1_555
C5_2 C4_2 1_555 1_555
H9_2 C5_2 1_555 1_555
C6_2 C5_2 1_555 1_555
C7_2 C6_2 1_555 1_555
C8_2 C7_2 1_555 1_555
H10_2 C8_2 1_555 1_555
C9_2 C4_2 1_555 1_555
H11_2 C9_2 1_555 1_555
C10_2 C7_2 1_555 1_555
N2_2 C6_2 1_555 1_555
H12_2 N2_2 1_555 1_555
H13_2 N2_2 1_555 1_555
O5_2 In1_2 1_555 1_555
O6_2 In1_2 1_555 1_555
C11_2 O5_2 1_555 1_555
C12_2 C11_2 1_555 1_555
C13_2 C12_2 1_555 1_555
H14_2 C13_2 1_555 1_555
C14_2 C13_2 1_555 1_555
N3_2 C14_2 1_555 1_555
H17_2 N3_2 1_555 1_555
In2 O3_2 1_555 1_555
O9_2 In1_2 1_555 1_555
O10_2 In1_2 1_555 1_555
O11_2 In1_2 1_555 1_555
O12_2 In1_2 1_555 1_555
O4_2 In2 1_555 1_555
C8_2 C9_2 1_555 1_555
O6_2 C11_2 1_555 1_555
O3_3 C10_3 1_555 1_555
O4_3 C10_3 1_555 1_555
C10_3 C7_3 1_555 1_555
In2_2 O3_3 1_555 1_555
O4_3 In2_2 1_555 1_555
In1_3 O1_3 1_555 1_555
O1_3 C3_3 1_555 1_555
O2_3 In1_3 1_555 1_555
C3_3 O2_3 1_555 1_555
C4_3 C3_3 1_555 1_555
O5_3 In1_3 1_555 1_555
O6_3 In1_3 1_555 1_555
O7_3 C18_3 1_555 1_555
O8_3 C18_3 1_555 1_555
C11_3 O5_3 1_555 1_555
C12_3 C11_3 1_555 1_555
C13_3 C12_3 1_555 1_555
H14_3 C13_3 1_555 1_555
C14_3 C13_3 1_555 1_555
C15_3 C14_3 1_555 1_555
C16_3 C15_3 1_555 1_555
H15_3 C16_3 1_555 1_555
C17_3 C12_3 1_555 1_555
H16_3 C17_3 1_555 1_555
C18_3 C15_3 1_555 1_555
N3_3 C14_3 1_555 1_555
H17_3 N3_3 1_555 1_555
H18_3 N3_3 1_555 1_555
In3_2 O7_3 1_555 1_555
O9_3 In1_3 1_555 1_555
O10_3 In1_3 1_555 1_555
O11_3 In1_3 1_555 1_555
O12_3 In1_3 1_555 1_555
O6_3 C11_3 1_555 1_555
O8_3 In3_2 1_555 1_555
C16_3 C17_3 1_555 1_555
In1_4 O1_4 1_555 1_555
O1_4 C3_4 1_555 1_555
O2_4 In1_4 1_555 1_555
O3_4 C10_4 1_555 1_555
O4_4 C10_4 1_555 1_555
C3_4 O2_4 1_555 1_555
C4_4 C3_4 1_555 1_555
C5_3 C4_4 1_555 1_555
H9_3 C5_3 1_555 1_555
C6_3 C5_3 1_555 1_555
C7_4 C6_3 1_555 1_555
C8_3 C7_4 1_555 1_555
H10_3 C8_3 1_555 1_555
C9_3 C4_4 1_555 1_555
H11_3 C9_3 1_555 1_555
C10_4 C7_4 1_555 1_555
N2_3 C6_3 1_555 1_555
H12_3 N2_3 1_555 1_555
H13_4 N2_3 1_555 1_555
O5_4 In1_4 1_555 1_555
O6_4 In1_4 1_555 1_555
O7_4 C18_4 1_555 1_555
O8_4 C18_4 1_555 1_555
C11_4 O5_4 1_555 1_555
C12_4 C11_4 1_555 1_555
C13_4 C12_4 1_555 1_555
H14_4 C13_4 1_555 1_555
C14_4 C13_4 1_555 1_555
C15_4 C14_4 1_555 1_555
C16_4 C15_4 1_555 1_555
H15_4 C16_4 1_555 1_555
C17_4 C12_4 1_555 1_555
H16_4 C17_4 1_555 1_555
C18_4 C15_4 1_555 1_555
N3_4 C14_4 1_555 1_555
H17_4 N3_4 1_555 1_555
H18_4 N3_4 1_555 1_555
In2_2 O3_4 1_555 1_555
In3_2 O7_4 1_555 1_555
O9_4 In1_4 1_555 1_555
O10_4 In1_4 1_555 1_555
O11_4 In1_4 1_555 1_555
O12_4 In1_4 1_555 1_555
O4_4 In2_2 1_555 1_555
C8_3 C9_3 1_555 1_555
O6_4 C11_4 1_555 1_555
O8_4 In3_2 1_555 1_555
C16_4 C17_4 1_555 1_555
In2_2 O1_5 1_555 1_555
O1_5 C3_5 1_555 1_555
O2_5 In2_2 1_555 1_555
C3_5 O2_5 1_555 1_555
C4_5 C3_5 1_555 1_555
H10_4 C8_4 1_555 1_555
C9_4 C4_5 1_555 1_555
H11_4 C9_4 1_555 1_555
O5_5 In2_2 1_555 1_555
O6_5 In2_2 1_555 1_555
C11_5 O5_5 1_555 1_555
C12_5 C11_5 1_555 1_555
C13_5 C12_5 1_555 1_555
H14_5 C13_5 1_555 1_555
C14_5 C13_5 1_555 1_555
N3_5 C14_5 1_555 1_555
H17_5 N3_5 1_555 1_555
C8_4 C9_4 1_555 1_555
O6_5 C11_5 1_555 1_555
O9_2 C18_5 1_555 1_555
O11_2 C18_5 1_555 1_555
O9 C10_5 1_555 1_555
O11 C10_5 1_555 1_555
O10 C10_6 1_555 1_555
O12 C10_6 1_555 1_555
O10_2 C18_6 1_555 1_555
O12_2 C18_6 1_555 1_555
In3_2 O1_6 1_555 1_555
O1_6 C3_6 1_555 1_555
O2_6 In3_2 1_555 1_555
C3_6 O2_6 1_555 1_555
C4_6 C3_6 1_555 1_555
C5_4 C4_6 1_555 1_555
H9_4 C5_4 1_555 1_555
C6_4 C5_4 1_555 1_555
C7_5 C6_4 1_555 1_555
C8_5 C7_5 1_555 1_555
H10_5 C8_5 1_555 1_555
C9_5 C4_6 1_555 1_555
H11_5 C9_5 1_555 1_555
N2_4 C6_4 1_555 1_555
H12_4 N2_4 1_555 1_555
H13_5 N2_4 1_555 1_555
O5_6 In3_2 1_555 1_555
O6_6 In3_2 1_555 1_555
C11_6 O5_6 1_555 1_555
C12_6 C11_6 1_555 1_555
C13_6 C12_6 1_555 1_555
H14_6 C13_6 1_555 1_555
C14_6 C13_6 1_555 1_555
C15_5 C14_6 1_555 1_555
C16_5 C15_5 1_555 1_555
H15_5 C16_5 1_555 1_555
C17_5 C12_6 1_555 1_555
H16_5 C17_5 1_555 1_555
N3_6 C14_6 1_555 1_555
H17_6 N3_6 1_555 1_555
H18_5 N3_6 1_555 1_555
C8_5 C9_5 1_555 1_555
O6_6 C11_6 1_555 1_555
C16_5 C17_5 1_555 1_555
In2 O1_7 1_555 1_555
O1_7 C3_7 1_555 1_555
O2_7 In2 1_555 1_555
C3_7 O2_7 1_555 1_555
C4_7 C3_7 1_555 1_555
H10_6 C8_6 1_555 1_555
C9_6 C4_7 1_555 1_555
H11_6 C9_6 1_555 1_555
O5_7 In2 1_555 1_555
O6_7 In2 1_555 1_555
O9_4 C18_7 1_555 1_555
O11_4 C18_7 1_555 1_555
C11_7 O5_7 1_555 1_555
C12_7 C11_7 1_555 1_555
C13_7 C12_7 1_555 1_555
H14_7 C13_7 1_555 1_555
C14_7 C13_7 1_555 1_555
C15_6 C14_7 1_555 1_555
C16_6 C15_6 1_555 1_555
H15_6 C16_6 1_555 1_555
C17_6 C12_7 1_555 1_555
H16_6 C17_6 1_555 1_555
C18_7 C15_6 1_555 1_555
N3_7 C14_7 1_555 1_555
H17_7 N3_7 1_555 1_555
H18_6 N3_7 1_555 1_555
C8_6 C9_6 1_555 1_555
O6_7 C11_7 1_555 1_555
C16_6 C17_6 1_555 1_555
O9_3 C10_7 1_555 1_555
O11_3 C10_7 1_555 1_555
H9_5 C5_5 1_555 1_555
C6_5 C5_5 1_555 1_555
C7_6 C6_5 1_555 1_555
C10_7 C7_6 1_555 1_555
N2_5 C6_5 1_555 1_555
H12_5 N2_5 1_555 1_555
H13_6 N2_5 1_555 1_555
In3 O1_8 1_555 1_555
O1_8 C3_8 1_555 1_555
O2_8 In3 1_555 1_555
C3_8 O2_8 1_555 1_555
C4_8 C3_8 1_555 1_555
C5_6 C4_8 1_555 1_555
H9_6 C5_6 1_555 1_555
C6_6 C5_6 1_555 1_555
N2_6 C6_6 1_555 1_555
H12_6 N2_6 1_555 1_555
O5_8 In3 1_555 1_555
O6_8 In3 1_555 1_555
O10_4 C18_8 1_555 1_555
O12_4 C18_8 1_555 1_555
C11_8 O5_8 1_555 1_555
C12_8 C11_8 1_555 1_555
C13_8 C12_8 1_555 1_555
H14_8 C13_8 1_555 1_555
C14_8 C13_8 1_555 1_555
C15_7 C14_8 1_555 1_555
C16_7 C15_7 1_555 1_555
H15_7 C16_7 1_555 1_555
C17_7 C12_8 1_555 1_555
H16_7 C17_7 1_555 1_555
C18_8 C15_7 1_555 1_555
N3_8 C14_8 1_555 1_555
H17_8 N3_8 1_555 1_555
H18_7 N3_8 1_555 1_555
O6_8 C11_8 1_555 1_555
C16_7 C17_7 1_555 1_555
O10_3 C10_8 1_555 1_555
O12_3 C10_8 1_555 1_555
C8_7 C7_7 1_555 1_555
H10_7 C8_7 1_555 1_555
H11_7 C9_7 1_555 1_555
C10_8 C7_7 1_555 1_555
C8_7 C9_7 1_555 1_555
H9_7 C5_7 1_555 1_555
C6_7 C5_7 1_555 1_555
C7_8 C6_7 1_555 1_555
N2_7 C6_7 1_555 1_555
H12_7 N2_7 1_555 1_555
H13_8 N2_7 1_555 1_555
O3_5 C10_9 1_555 1_555
O4_5 C10_9 1_555 1_555
In2_3 O3_5 1_555 1_555
O4_5 In2_3 1_555 1_555
O7_5 C18_9 1_555 1_555
O8_5 C18_9 1_555 1_555
In3_3 O7_5 1_555 1_555
O8_5 In3_3 1_555 1_555
In1_5 O1_9 1_555 1_555
O1_9 C3_9 1_555 1_555
O2_9 In1_5 1_555 1_555
C3_9 O2_9 1_555 1_555
C4_9 C3_9 1_555 1_555
H10_8 C8_8 1_555 1_555
C9_8 C4_9 1_555 1_555
H11_8 C9_8 1_555 1_555
O5_9 In1_5 1_555 1_555
O6_9 In1_5 1_555 1_555
C11_9 O5_9 1_555 1_555
C12_9 C11_9 1_555 1_555
C13_9 C12_9 1_555 1_555
H14_9 C13_9 1_555 1_555
C14_9 C13_9 1_555 1_555
N3_9 C14_9 1_555 1_555
H17_9 N3_9 1_555 1_555
O9_5 In1_5 1_555 1_555
O10_5 In1_5 1_555 1_555
O11_5 In1_5 1_555 1_555
O12_5 In1_5 1_555 1_555
C8_8 C9_8 1_555 1_555
O6_9 C11_9 1_555 1_555
In1_6 O1_10 1_555 1_555
O1_10 C3_10 1_555 1_555
O2_10 In1_6 1_555 1_555
C3_10 O2_10 1_555 1_555
C4_10 C3_10 1_555 1_555
C5_8 C4_10 1_555 1_555
H9_8 C5_8 1_555 1_555
C6_8 C5_8 1_555 1_555
C7_9 C6_8 1_555 1_555
C8_9 C7_9 1_555 1_555
H10_9 C8_9 1_555 1_555
C9_9 C4_10 1_555 1_555
H11_9 C9_9 1_555 1_555
N2_8 C6_8 1_555 1_555
H12_8 N2_8 1_555 1_555
H13_9 N2_8 1_555 1_555
O5_10 In1_6 1_555 1_555
O6_10 In1_6 1_555 1_555
C11_10 O5_10 1_555 1_555
C12_10 C11_10 1_555 1_555
C13_10 C12_10 1_555 1_555
H14_10 C13_10 1_555 1_555
C14_10 C13_10 1_555 1_555
C15_8 C14_10 1_555 1_555
C16_8 C15_8 1_555 1_555
H15_8 C16_8 1_555 1_555
C17_8 C12_10 1_555 1_555
H16_8 C17_8 1_555 1_555
N3_10 C14_10 1_555 1_555
H17_10 N3_10 1_555 1_555
H18_8 N3_10 1_555 1_555
O9_6 In1_6 1_555 1_555
O10_6 In1_6 1_555 1_555
O11_6 In1_6 1_555 1_555
O12_6 In1_6 1_555 1_555
C8_9 C9_9 1_555 1_555
O6_10 C11_10 1_555 1_555
C16_8 C17_8 1_555 1_555
O3_6 C10_10 1_555 1_555
O4_6 C10_10 1_555 1_555
O7_6 C18_10 1_555 1_555
O8_6 C18_10 1_555 1_555
In2_3 O3_6 1_555 1_555
In3_3 O7_6 1_555 1_555
O4_6 In2_3 1_555 1_555
O8_6 In3_3 1_555 1_555
O3_7 C10_11 1_555 1_555
O4_7 C10_11 1_555 1_555
H9_9 C5_9 1_555 1_555
C6_9 C5_9 1_555 1_555
C7_10 C6_9 1_555 1_555
C10_11 C7_10 1_555 1_555
N2_9 C6_9 1_555 1_555
H12_9 N2_9 1_555 1_555
H13_10 N2_9 1_555 1_555
In2_4 O3_7 1_555 1_555
O4_7 In2_4 1_555 1_555
In1_7 O1_11 1_555 1_555
O1_11 C3_11 1_555 1_555
O2_11 In1_7 1_555 1_555
C3_11 O2_11 1_555 1_555
C4_11 C3_11 1_555 1_555
H10_10 C8_10 1_555 1_555
C9_10 C4_11 1_555 1_555
H11_10 C9_10 1_555 1_555
O5_11 In1_7 1_555 1_555
O6_11 In1_7 1_555 1_555
O7_7 C18_11 1_555 1_555
O8_7 C18_11 1_555 1_555
C11_11 O5_11 1_555 1_555
C12_11 C11_11 1_555 1_555
C13_11 C12_11 1_555 1_555
H14_11 C13_11 1_555 1_555
C14_11 C13_11 1_555 1_555
C15_9 C14_11 1_555 1_555
C16_9 C15_9 1_555 1_555
H15_9 C16_9 1_555 1_555
C17_9 C12_11 1_555 1_555
H16_9 C17_9 1_555 1_555
C18_11 C15_9 1_555 1_555
N3_11 C14_11 1_555 1_555
H17_11 N3_11 1_555 1_555
H18_9 N3_11 1_555 1_555
In3_4 O7_7 1_555 1_555
O9_7 In1_7 1_555 1_555
O10_7 In1_7 1_555 1_555
O11_7 In1_7 1_555 1_555
O12_7 In1_7 1_555 1_555
C8_10 C9_10 1_555 1_555
O6_11 C11_11 1_555 1_555
O8_7 In3_4 1_555 1_555
C16_9 C17_9 1_555 1_555
O3_8 C10_12 1_555 1_555
O4_8 C10_12 1_555 1_555
C8_11 C7_11 1_555 1_555
H10_11 C8_11 1_555 1_555
H11_11 C9_11 1_555 1_555
C10_12 C7_11 1_555 1_555
In2_4 O3_8 1_555 1_555
O4_8 In2_4 1_555 1_555
C8_11 C9_11 1_555 1_555
In1_8 O1_12 1_555 1_555
O1_12 C3_12 1_555 1_555
O2_12 In1_8 1_555 1_555
C3_12 O2_12 1_555 1_555
C4_12 C3_12 1_555 1_555
C5_10 C4_12 1_555 1_555
H9_10 C5_10 1_555 1_555
C6_10 C5_10 1_555 1_555
N2_10 C6_10 1_555 1_555
H12_10 N2_10 1_555 1_555
O5_12 In1_8 1_555 1_555
O6_12 In1_8 1_555 1_555
O7_8 C18_12 1_555 1_555
O8_8 C18_12 1_555 1_555
C11_12 O5_12 1_555 1_555
C12_12 C11_12 1_555 1_555
C13_12 C12_12 1_555 1_555
H14_12 C13_12 1_555 1_555
C14_12 C13_12 1_555 1_555
C15_10 C14_12 1_555 1_555
C16_10 C15_10 1_555 1_555
H15_10 C16_10 1_555 1_555
C17_10 C12_12 1_555 1_555
H16_10 C17_10 1_555 1_555
C18_12 C15_10 1_555 1_555
N3_12 C14_12 1_555 1_555
H17_12 N3_12 1_555 1_555
H18_10 N3_12 1_555 1_555
In3_4 O7_8 1_555 1_555
O9_8 In1_8 1_555 1_555
O10_8 In1_8 1_555 1_555
O11_8 In1_8 1_555 1_555
O12_8 In1_8 1_555 1_555
O6_12 C11_12 1_555 1_555
O8_8 In3_4 1_555 1_555
C16_10 C17_10 1_555 1_555
In2_3 O1_13 1_555 1_555
O1_13 C3_13 1_555 1_555
O2_13 In2_3 1_555 1_555
C3_13 O2_13 1_555 1_555
C4_13 C3_13 1_555 1_555
H10_12 C8_12 1_555 1_555
C9_12 C4_13 1_555 1_555
H11_12 C9_12 1_555 1_555
O5_13 In2_3 1_555 1_555
O6_13 In2_3 1_555 1_555
O9_8 C18_13 1_555 1_555
O11_8 C18_13 1_555 1_555
C11_13 O5_13 1_555 1_555
C12_13 C11_13 1_555 1_555
C13_13 C12_13 1_555 1_555
H14_13 C13_13 1_555 1_555
C14_13 C13_13 1_555 1_555
C15_11 C14_13 1_555 1_555
C16_11 C15_11 1_555 1_555
H15_11 C16_11 1_555 1_555
C17_11 C12_13 1_555 1_555
H16_11 C17_11 1_555 1_555
C18_13 C15_11 1_555 1_555
N3_13 C14_13 1_555 1_555
H17_13 N3_13 1_555 1_555
H18_11 N3_13 1_555 1_555
C8_12 C9_12 1_555 1_555
O6_13 C11_13 1_555 1_555
C16_11 C17_11 1_555 1_555
O9_7 C10_13 1_555 1_555
O11_7 C10_13 1_555 1_555
H9_11 C5_11 1_555 1_555
C6_11 C5_11 1_555 1_555
C7_12 C6_11 1_555 1_555
C10_13 C7_12 1_555 1_555
N2_11 C6_11 1_555 1_555
H12_11 N2_11 1_555 1_555
H13_12 N2_11 1_555 1_555
In3_3 O1_14 1_555 1_555
O1_14 C3_14 1_555 1_555
O2_14 In3_3 1_555 1_555
O10_7 C10_14 1_555 1_555
O12_7 C10_14 1_555 1_555
C3_14 O2_14 1_555 1_555
C4_14 C3_14 1_555 1_555
C5_12 C4_14 1_555 1_555
H9_12 C5_12 1_555 1_555
C6_12 C5_12 1_555 1_555
C7_13 C6_12 1_555 1_555
C8_13 C7_13 1_555 1_555
H10_13 C8_13 1_555 1_555
C9_13 C4_14 1_555 1_555
H11_13 C9_13 1_555 1_555
C10_14 C7_13 1_555 1_555
N2_12 C6_12 1_555 1_555
H12_12 N2_12 1_555 1_555
H13_13 N2_12 1_555 1_555
O5_14 In3_3 1_555 1_555
O6_14 In3_3 1_555 1_555
C11_14 O5_14 1_555 1_555
C12_14 C11_14 1_555 1_555
C13_14 C12_14 1_555 1_555
H14_14 C13_14 1_555 1_555
C14_14 C13_14 1_555 1_555
N3_14 C14_14 1_555 1_555
H17_14 N3_14 1_555 1_555
C8_13 C9_13 1_555 1_555
O6_14 C11_14 1_555 1_555
O10_8 C18_14 1_555 1_555
O12_8 C18_14 1_555 1_555
C16_12 C15_12 1_555 1_555
H15_12 C16_12 1_555 1_555
H16_12 C17_12 1_555 1_555
C18_14 C15_12 1_555 1_555
C16_12 C17_12 1_555 1_555
In2_4 O1_15 1_555 1_555
O1_15 C3_15 1_555 1_555
O2_15 In2_4 1_555 1_555
C3_15 O2_15 1_555 1_555
C4_15 C3_15 1_555 1_555
O5_15 In2_4 1_555 1_555
O6_15 In2_4 1_555 1_555
O9_6 C18_15 1_555 1_555
O11_6 C18_15 1_555 1_555
C11_15 O5_15 1_555 1_555
C12_15 C11_15 1_555 1_555
C13_15 C12_15 1_555 1_555
H14_15 C13_15 1_555 1_555
C14_15 C13_15 1_555 1_555
C15_13 C14_15 1_555 1_555
C16_13 C15_13 1_555 1_555
H15_13 C16_13 1_555 1_555
C17_13 C12_15 1_555 1_555
H16_13 C17_13 1_555 1_555
C18_15 C15_13 1_555 1_555
N3_15 C14_15 1_555 1_555
H17_15 N3_15 1_555 1_555
H18_13 N3_15 1_555 1_555
O6_15 C11_15 1_555 1_555
C16_13 C17_13 1_555 1_555
O9_5 C10_15 1_555 1_555
O11_5 C10_15 1_555 1_555
C10_15 C7_14 1_555 1_555
In3_4 O1_16 1_555 1_555
O1_16 C3_16 1_555 1_555
O2_16 In3_4 1_555 1_555
O10_5 C10_16 1_555 1_555
O12_5 C10_16 1_555 1_555
C3_16 O2_16 1_555 1_555
C4_16 C3_16 1_555 1_555
C5_13 C4_16 1_555 1_555
H9_13 C5_13 1_555 1_555
C6_13 C5_13 1_555 1_555
C7_15 C6_13 1_555 1_555
C8_14 C7_15 1_555 1_555
H10_14 C8_14 1_555 1_555
C9_14 C4_16 1_555 1_555
H11_14 C9_14 1_555 1_555
C10_16 C7_15 1_555 1_555
N2_13 C6_13 1_555 1_555
H12_13 N2_13 1_555 1_555
H13_15 N2_13 1_555 1_555
O5_16 In3_4 1_555 1_555
O6_16 In3_4 1_555 1_555
O10_6 C18_16 1_555 1_555
O12_6 C18_16 1_555 1_555
C11_16 O5_16 1_555 1_555
C12_16 C11_16 1_555 1_555
C13_16 C12_16 1_555 1_555
H14_16 C13_16 1_555 1_555
C14_16 C13_16 1_555 1_555
C15_14 C14_16 1_555 1_555
C16_14 C15_14 1_555 1_555
H15_14 C16_14 1_555 1_555
C17_14 C12_16 1_555 1_555
H16_14 C17_14 1_555 1_555
C18_16 C15_14 1_555 1_555
N3_16 C14_16 1_555 1_555
H17_16 N3_16 1_555 1_555
H18_14 N3_16 1_555 1_555
C8_14 C9_14 1_555 1_555
O6_16 C11_16 1_555 1_555
C16_14 C17_14 1_555 1_555
C16_15 C15_15 1_555 1_555
H15_15 C16_15 1_555 1_555
H16_15 C17_15 1_555 1_555
C16_15 C17_15 1_555 1_555
H9_14 C5_14 1_555 1_555
C6_14 C5_14 1_555 1_555
N2_14 C6_14 1_555 1_555
H12_14 N2_14 1_555 1_555
H10_15 C8_15 1_555 1_555
H11_15 C9_15 1_555 1_555
C8_15 C9_15 1_555 1_555
C16_16 C15_16 1_555 1_555
H15_16 C16_16 1_555 1_555
H16_16 C17_16 1_555 1_555
C16_16 C17_16 1_555 1_555
H9_15 C5_15 1_555 1_555
C6_15 C5_15 1_555 1_555
C7_16 C6_15 1_555 1_555
N2_15 C6_15 1_555 1_555
H12_15 N2_15 1_555 1_555
H13_16 N2_15 1_555 1_555
H10_16 C8_16 1_555 1_555
H11_16 C9_16 1_555 1_555
C8_16 C9_16 1_555 1_555
H9_16 C5_16 1_555 1_555
C6_16 C5_16 1_555 1_555
N2_16 C6_16 1_555 1_555
H12_16 N2_16 1_555 1_555

#END
