
###############################################################################
#
# This file contains modified crystal structure data generated from the
# MOF subset of the Cambridge Structural Database (CSD) v543 
# hosted by the Cambridge Crystallographic Data Centre (CCDC).
#
# This work is licensed under the Creative Commons
# Attribution-NonCommercial-ShareAlike 4.0 International License.
# To view a copy of this license, visit
# http://creativecommons.org/licenses/by-nc-sa/4.0/
# or send a letter to
# Creative Commons, PO Box 1866, Mountain View, CA 94042, USA.
#
# CIF created using the CSD Python API on 29 September 2022
# The structure has been converted into the P1 space group
# The structure has a 3D framework
# The original CSD entry LAQXOU is in the monoclinic crystal system
# The framework has been calculated to contain at least 10.0% void space
# The void calculation uses a probe of radius 1.32A, grid spacing 0.4
# H atom positions have been added when not included in the experimental data
# Generated hydrogen atom positions removed from atoms on special positions
#
###############################################################################

data_LAQXOU
_chemical_formula_moiety         '(C180 H182 Co6 N14 O48)n'
_symmetry_cell_setting           triclinic
_symmetry_space_group_name_H-M   'P 1'
_symmetry_Int_Tables_number      1
_space_group_name_Hall           'P 1'
loop_
_symmetry_equiv_pos_site_id
_symmetry_equiv_pos_as_xyz
1 x,y,z
_cell_length_a                   15.4838(5)
_cell_length_b                   27.0372(8)
_cell_length_c                   13.3971(4)
_cell_angle_alpha                90
_cell_angle_beta                 118.1770(10)
_cell_angle_gamma                90
_cell_volume                     4943.89
loop_
_atom_site_label
_atom_site_type_symbol
_atom_site_fract_x
_atom_site_fract_y
_atom_site_fract_z
O7 O 0.71815(10) 0.23465(5) 0.33379(11)
O8 O 0.84784(15) 0.19249(10) 0.35589(15)
C24 C 0.76517(16) 0.21163(8) 0.29529(17)
C25 C 0.71958(16) 0.20530(7) 0.16927(17)
C26 C 0.62371(17) 0.21904(10) 0.10065(19)
H21 H 0.586750 0.231526 0.133077
C29 C 0.73140(18) 0.18367(9) 0.00205(17)
C30 C 0.77346(18) 0.18710(9) 0.11872(19)
H24 H 0.838036 0.177180 0.163471
Co2 Co 0.750000 0.250000 0.500000
O5 O 0.89360(11) 0.21749(5) 0.56527(13)
O6 O 0.70127(10) 0.00128(5) 0.58713(14)
N1 N 0.68565(12) 0.18210(5) 0.50852(13)
C14 C 0.60399(15) 0.16640(7) 0.41890(16)
H10 H 0.576316 0.186348 0.354763
C15 C 0.55887(15) 0.12244(7) 0.41652(16)
H11 H 0.501345 0.113505 0.352580
C16 C 0.59955(14) 0.09128(6) 0.51017(15)
C17 C 0.68464(15) 0.10733(7) 0.60324(16)
H12 H 0.714834 0.087704 0.667719
C18 C 0.72405(15) 0.15257(7) 0.59936(16)
H13 H 0.780183 0.163085 0.663143
C19 C 0.55055(14) 0.04395(6) 0.50798(15)
C21 C 0.44902(14) 0.04363(6) 0.46300(16)
H14 H 0.414748 0.073215 0.438404
C41 C 0.39783(13) 0.00052(6) 0.45393(15)
C43 C 0.24385(17) 0.04323(8) 0.3749(2)
H33 H 0.262656 0.066230 0.437352
H34 H 0.255192 0.058757 0.316878
C44 C 0.1386(2) 0.02915(13) 0.3282(3)
H35 H 0.128615 0.013670 0.386408
H36 H 0.098527 0.058227 0.301670
H37 H 0.121056 0.006480 0.266426
O12 O 0.60640(11) 0.28251(5) 0.43473(13)
O13 O 0.78185(10) 0.26535(5) 0.66621(11)
N4 N 0.81435(12) 0.31790(5) 0.49148(13)
C21_2 C 0.94902(14) 0.54363(6) 0.46300(16)
H14_2 H 0.914748 0.573215 0.438404
O11 O 0.79873(10) 0.49872(5) 0.41287(14)
C35 C 0.89601(15) 0.33360(7) 0.58110(16)
H28 H 0.923684 0.313652 0.645237
C36 C 0.94113(15) 0.37756(7) 0.58348(16)
H29 H 0.998655 0.386495 0.647420
C37 C 0.90045(14) 0.40872(6) 0.48983(15)
C38 C 0.81536(15) 0.39267(7) 0.39676(16)
H30 H 0.785166 0.412296 0.332281
C39 C 0.77595(15) 0.34743(7) 0.40064(16)
H31 H 0.719817 0.336915 0.336857
C40 C 0.94945(14) 0.45605(6) 0.49202(15)
C41_2 C 0.89783(13) 0.50052(6) 0.45393(15)
C43_2 C 0.74385(17) 0.54323(8) 0.3749(2)
H33_2 H 0.762656 0.566230 0.437352
H34_2 H 0.755192 0.558757 0.316878
C44_2 C 0.6386(2) 0.52915(13) 0.3282(3)
H35_2 H 0.628615 0.513670 0.386408
H36_2 H 0.598527 0.558227 0.301670
H37_2 H 0.621056 0.506480 0.266426
O8_2 O 0.65216(15) 0.30751(10) 0.64411(15)
C24_2 C 0.73483(16) 0.28837(8) 0.70471(17)
C25_2 C 0.78042(16) 0.29470(7) 0.83073(17)
C26_2 C 0.87629(17) 0.28096(10) 0.89935(19)
H21_2 H 0.913250 0.268474 0.866923
C29_2 C 0.76860(18) 0.31633(9) 0.99795(17)
C30_2 C 0.72654(18) 0.31290(9) 0.88128(19)
H24_2 H 0.661964 0.322820 0.836529
Co1 Co 0.250000 0.250000 0.000000
O1 O 0.28185(10) 0.23465(5) 0.16621(11)
O2 O 0.15216(15) 0.19249(10) 0.14411(15)
O4 O 0.23913(15) 0.03366(7) 0.62874(18)
N2 N 0.500000 0.16805(9) 0.750000
C1 C 0.23483(16) 0.21163(8) 0.20471(17)
C2 C 0.28042(16) 0.20530(7) 0.33073(17)
C3 C 0.37629(17) 0.21904(10) 0.39935(19)
H2 H 0.413250 0.231526 0.366923
C4 C 0.41830(18) 0.21452(10) 0.51566(19)
H3 H 0.483519 0.223383 0.560470
C5 C 0.36440(16) 0.19696(7) 0.56619(16)
C6 C 0.26860(18) 0.18367(9) 0.49795(17)
H4 H 0.231252 0.172144 0.530765
C7 C 0.22654(18) 0.18710(9) 0.38128(19)
H5 H 0.161964 0.177180 0.336529
C8 C 0.40887(18) 0.19534(8) 0.69473(16)
H6 H 0.420382 0.228950 0.723483
H7 H 0.361976 0.180381 0.714389
C9 C 0.500000 0.11687(10) 0.750000
C10 C 0.41270(17) 0.08986(8) 0.70614(16)
H8 H 0.353314 0.106700 0.675432
C11 C 0.41256(18) 0.03822(8) 0.70732(17)
C12 C 0.500000 0.01224(11) 0.750000
C13 C 0.3174(2) 0.01254(9) 0.66237(19)
C14_2 C 0.39601(15) 0.16640(7) 0.08110(16)
H10_2 H 0.423684 0.186348 0.145237
C15_2 C 0.44113(15) 0.12244(7) 0.08348(16)
H11_2 H 0.498655 0.113505 0.147420
C21_3 C 0.55098(14) 0.04363(6) 0.03700(16)
H14_3 H 0.585252 0.073215 0.061596
O10 O 0.76087(15) 0.03366(7) 0.87126(18)
C27 C 0.58170(18) 0.21452(10) 0.98434(19)
H22 H 0.516481 0.223383 0.939530
C28 C 0.63560(16) 0.19696(7) 0.93381(16)
H23 H 0.768748 0.172144 0.969235
C31 C 0.59113(18) 0.19534(8) 0.80527(16)
H25 H 0.579618 0.228950 0.776517
H26 H 0.638024 0.180381 0.785611
C32 C 0.58730(17) 0.08986(8) 0.79386(16)
H27 H 0.646686 0.106700 0.824568
C33 C 0.58744(18) 0.03822(8) 0.79268(17)
C34 C 0.6826(2) 0.01254(9) 0.83763(19)
C41_3 C 0.60217(13) 0.00052(6) 0.04607(15)
C43_3 C 0.75615(17) 0.04323(8) 0.1251(2)
H33_3 H 0.737344 0.066230 0.062648
H34_3 H 0.744808 0.058757 0.183122
C44_3 C 0.8614(2) 0.02915(13) 0.1718(3)
H35_3 H 0.871385 0.013670 0.113592
H36_3 H 0.901473 0.058227 0.198330
H37_3 H 0.878944 0.006480 0.233574
O12_2 O 0.39360(11) 0.28251(5) 0.06527(13)
N4_2 N 0.18565(12) 0.31790(5) 0.00852(13)
N2_2 N 0.000000 0.66805(9) 0.750000
C9_2 C 0.000000 0.61687(10) 0.750000
C12_2 C 0.000000 0.51224(11) 0.750000
H9 H 0.000001 0.477845 0.750002
C21_4 C 0.05098(14) 0.54363(6) 0.03700(16)
H14_4 H 0.085252 0.573215 0.061596
O9 O 0.17659(16) 0.46375(6) 0.83827(18)
H20 H 0.138017 0.455686 0.861227
O10_2 O 0.26087(15) 0.53366(7) 0.87126(18)
C27_2 C 0.08170(18) 0.71452(10) 0.98434(19)
H22_2 H 0.016481 0.723383 0.939530
C28_2 C 0.13560(16) 0.69696(7) 0.93381(16)
H23_2 H 0.268748 0.672144 0.969235
C31_2 C 0.09113(18) 0.69534(8) 0.80527(16)
H25_2 H 0.079618 0.728950 0.776517
H26_2 H 0.138024 0.680381 0.785611
C32_2 C 0.08730(17) 0.58986(8) 0.79386(16)
H27_2 H 0.146686 0.606700 0.824568
C33_2 C 0.08744(18) 0.53822(8) 0.79268(17)
C34_2 C 0.1826(2) 0.51254(9) 0.83763(19)
O11_2 O 0.20127(10) 0.49872(5) 0.08713(14)
C37_2 C 0.09955(14) 0.40872(6) 0.01017(15)
C38_2 C 0.18464(15) 0.39267(7) 0.10324(16)
H30_2 H 0.214834 0.412296 0.167719
C39_2 C 0.22405(15) 0.34743(7) 0.09936(16)
H31_2 H 0.280183 0.336915 0.163143
C40_2 C 0.05055(14) 0.45605(6) 0.00798(15)
C41_4 C 0.10217(13) 0.50052(6) 0.04607(15)
C43_4 C 0.25615(17) 0.54323(8) 0.1251(2)
H33_4 H 0.237344 0.566230 0.062648
H34_4 H 0.244808 0.558757 0.183122
C44_4 C 0.3614(2) 0.52915(13) 0.1718(3)
H35_4 H 0.371385 0.513670 0.113592
H36_4 H 0.401473 0.558227 0.198330
H37_4 H 0.378944 0.506480 0.233574
Co1_2 Co 0.250000 0.250000 1.000000
O5_2 O 0.10640(11) 0.21749(5) 0.93473(13)
O6_2 O 0.29873(10) 0.00128(5) 0.91287(14)
N1_2 N 0.31435(12) 0.18210(5) 0.99148(13)
C16_2 C 0.40045(14) 0.09128(6) 0.98983(15)
C17_2 C 0.31536(15) 0.10733(7) 0.89676(16)
H12_2 H 0.285166 0.087704 0.832281
C18_2 C 0.27595(15) 0.15257(7) 0.90064(16)
H13_2 H 0.219817 0.163085 0.836857
C19_2 C 0.44945(14) 0.04395(6) 0.99202(15)
O13_2 O 0.21815(10) 0.26535(5) 0.83379(11)
C35_2 C 0.10399(15) 0.33360(7) 0.91890(16)
H28_2 H 0.076316 0.313652 0.854763
C36_2 C 0.05887(15) 0.37756(7) 0.91652(16)
H29_2 H 0.001345 0.386495 0.852580
O3 O 0.67659(16) 0.03625(6) 0.33827(18)
H1 H 0.638017 0.044314 0.361227
H9_2 H 0.499999 0.022155 0.249998
O9_2 O 0.32341(16) 0.03625(6) 0.16173(18)
H20_2 H 0.361983 0.044314 0.138773
O2_2 O 0.34784(15) 0.30751(10) 0.85589(15)
O3_2 O 0.17659(16) 0.53625(6) 0.33827(18)
H1_2 H 0.138017 0.544314 0.361227
O4_2 O 0.26087(15) 0.46634(7) 0.37126(18)
N2_3 N -0.000000 0.33195(9) 0.250000
C1_2 C 0.26517(16) 0.28837(8) 0.79529(17)
C2_2 C 0.21958(16) 0.29470(7) 0.66927(17)
C3_2 C 0.12371(17) 0.28096(10) 0.60065(19)
H2_2 H 0.086750 0.268474 0.633077
C4_2 C 0.08170(18) 0.28548(10) 0.48434(19)
H3_2 H 0.016481 0.276617 0.439530
C5_2 C 0.13560(16) 0.30304(7) 0.43381(16)
C6_2 C 0.23140(18) 0.31633(9) 0.50205(17)
H4_2 H 0.268748 0.327856 0.469235
C7_2 C 0.27346(18) 0.31290(9) 0.61872(19)
H5_2 H 0.338036 0.322820 0.663471
C8_2 C 0.09113(18) 0.30466(8) 0.30527(16)
H6_2 H 0.079618 0.271050 0.276517
H7_2 H 0.138024 0.319619 0.285611
C9_3 C -0.000000 0.38313(10) 0.250000
C10_2 C 0.08730(17) 0.41014(8) 0.29386(16)
H8_2 H 0.146686 0.393300 0.324568
C11_2 C 0.08744(18) 0.46178(8) 0.29268(17)
C12_3 C -0.000000 0.48776(11) 0.250000
H9_3 H -0.000001 0.522155 0.249998
C13_2 C 0.1826(2) 0.48746(9) 0.33763(19)
O3_3 O 0.32341(16) 0.96375(6) 0.66173(18)
H1_3 H 0.361983 0.955686 0.638773
H9_4 H 0.500001 0.977845 0.750002
O9_3 O 0.67659(16) 0.96375(6) 0.83827(18)
H20_3 H 0.638017 0.955686 0.861227
O11_3 O 0.70127(10) 0.99872(5) 0.08713(14)
N3 N 0.68565(12) 0.81790(5) 0.00852(13)
C37_3 C 0.59955(14) 0.90872(6) 0.01017(15)
C38_3 C 0.68464(15) 0.89267(7) 0.10324(16)
H30_3 H 0.714834 0.912296 0.167719
C39_3 C 0.72405(15) 0.84743(7) 0.09936(16)
H31_3 H 0.780183 0.836915 0.163143
C40_3 C 0.55055(14) 0.95605(6) 0.00798(15)
Co3 Co 0.750000 0.750000 0.000000
O1_2 O 0.78185(10) 0.73465(5) 0.16621(11)
O2_3 O 0.65216(15) 0.69249(10) 0.14411(15)
O3_4 O 0.82341(16) 0.46375(6) 0.66173(18)
H1_4 H 0.861983 0.455686 0.638773
O4_3 O 0.73913(15) 0.53366(7) 0.62874(18)
N2_4 N 1.000000 0.66805(9) 0.750000
C1_3 C 0.73483(16) 0.71163(8) 0.20471(17)
C2_3 C 0.78042(16) 0.70530(7) 0.33073(17)
C3_3 C 0.87629(17) 0.71904(10) 0.39935(19)
H2_3 H 0.913250 0.731526 0.366923
C4_3 C 0.91830(18) 0.71452(10) 0.51566(19)
H3_3 H 0.983519 0.723383 0.560470
C5_3 C 0.86440(16) 0.69696(7) 0.56619(16)
C6_3 C 0.76860(18) 0.68367(9) 0.49795(17)
H4_3 H 0.731252 0.672144 0.530765
C7_3 C 0.72654(18) 0.68710(9) 0.38128(19)
H5_3 H 0.661964 0.677180 0.336529
C8_3 C 0.90887(18) 0.69534(8) 0.69473(16)
H6_3 H 0.920382 0.728950 0.723483
H7_3 H 0.861976 0.680381 0.714389
C9_4 C 1.000000 0.61687(10) 0.750000
C10_3 C 0.91270(17) 0.58986(8) 0.70614(16)
H8_3 H 0.853314 0.606700 0.675432
C11_3 C 0.91256(18) 0.53822(8) 0.70732(17)
C12_4 C 1.000000 0.51224(11) 0.750000
H9_5 H 1.000001 0.477845 0.750002
C13_3 C 0.8174(2) 0.51254(9) 0.66237(19)
C14_3 C 0.89601(15) 0.66640(7) 0.08110(16)
H10_3 H 0.923684 0.686348 0.145237
C15_3 C 0.94113(15) 0.62244(7) 0.08348(16)
H11_3 H 0.998655 0.613505 0.147420
O12_3 O 0.89360(11) 0.78251(5) 0.06527(13)
C20 C 0.39783(13) 0.99948(6) 0.95393(15)
C22 C 0.24385(17) 0.95677(8) 0.8749(2)
H15 H 0.262656 0.933770 0.937352
H16 H 0.255192 0.941243 0.816878
C23 C 0.1386(2) 0.97085(13) 0.8282(3)
H17 H 0.128615 0.986330 0.886408
H18 H 0.098527 0.941773 0.801670
H19 H 0.121056 0.993520 0.766426
C35_3 C 0.60399(15) 0.83360(7) 0.91890(16)
H28_3 H 0.576316 0.813652 0.854763
C36_3 C 0.55887(15) 0.87756(7) 0.91652(16)
H29_3 H 0.501345 0.886495 0.852580
C42 C 0.44902(14) 0.95637(6) 0.96300(16)
H32 H 0.414748 0.926785 0.938404
Co3_2 Co 0.750000 0.750000 1.000000
O5_3 O 0.60640(11) 0.71749(5) 0.93473(13)
O6_3 O 0.79873(10) 0.50128(5) 0.91287(14)
N1_3 N 0.81435(12) 0.68210(5) 0.99148(13)
C16_3 C 0.90045(14) 0.59128(6) 0.98983(15)
C17_3 C 0.81536(15) 0.60733(7) 0.89676(16)
H12_3 H 0.785166 0.587704 0.832281
C18_3 C 0.77595(15) 0.65257(7) 0.90064(16)
H13_3 H 0.719817 0.663085 0.836857
C19_3 C 0.94945(14) 0.54395(6) 0.99202(15)
C20_2 C 0.89783(13) 0.49948(6) 0.95393(15)
C22_2 C 0.74385(17) 0.45677(8) 0.8749(2)
H15_2 H 0.762656 0.433770 0.937352
H16_2 H 0.755192 0.441243 0.816878
C23_2 C 0.6386(2) 0.47085(13) 0.8282(3)
H17_2 H 0.628615 0.486330 0.886408
H18_2 H 0.598527 0.441773 0.801670
H19_2 H 0.621056 0.493520 0.766426
C42_2 C 0.94902(14) 0.45637(6) 0.96300(16)
H32_2 H 0.914748 0.426785 0.938404
O13_3 O 0.71815(10) 0.76535(5) 0.83379(11)
O2_4 O 0.84784(15) 0.80751(10) 0.85589(15)
O4_4 O 0.76087(15) 0.96634(7) 0.37126(18)
N2_5 N 0.500000 0.83195(9) 0.250000
C1_4 C 0.76517(16) 0.78837(8) 0.79529(17)
C2_4 C 0.71958(16) 0.79470(7) 0.66927(17)
C3_4 C 0.62371(17) 0.78096(10) 0.60065(19)
H2_4 H 0.586750 0.768474 0.633077
C4_4 C 0.58170(18) 0.78548(10) 0.48434(19)
H3_4 H 0.516481 0.776617 0.439530
C5_4 C 0.63560(16) 0.80304(7) 0.43381(16)
C6_4 C 0.73140(18) 0.81633(9) 0.50205(17)
H4_4 H 0.768748 0.827856 0.469235
C7_4 C 0.77346(18) 0.81290(9) 0.61872(19)
H5_4 H 0.838036 0.822820 0.663471
C8_4 C 0.59113(18) 0.80466(8) 0.30527(16)
H6_4 H 0.579618 0.771050 0.276517
H7_4 H 0.638024 0.819619 0.285611
C9_5 C 0.500000 0.88313(10) 0.250000
C10_4 C 0.58730(17) 0.91014(8) 0.29386(16)
H8_4 H 0.646686 0.893300 0.324568
C11_4 C 0.58744(18) 0.96178(8) 0.29268(17)
C12_5 C 0.500000 0.98776(11) 0.250000
C13_4 C 0.6826(2) 0.98746(9) 0.33763(19)
O10_3 O 0.23913(15) 0.96634(7) 0.12874(18)
C27_3 C 0.41830(18) 0.78548(10) 0.01566(19)
H22_3 H 0.483519 0.776617 0.060470
C28_3 C 0.36440(16) 0.80304(7) 0.06619(16)
H23_3 H 0.231252 0.827856 0.030765
C31_3 C 0.40887(18) 0.80466(8) 0.19473(16)
H25_3 H 0.420382 0.771050 0.223483
H26_3 H 0.361976 0.819619 0.214389
C32_3 C 0.41270(17) 0.91014(8) 0.20614(16)
H27_3 H 0.353314 0.893300 0.175432
C33_3 C 0.41256(18) 0.96178(8) 0.20732(17)
C34_3 C 0.3174(2) 0.98746(9) 0.16237(19)
N2_6 N 1.000000 0.33195(9) 0.250000
C9_6 C 1.000000 0.38313(10) 0.250000
C12_6 C 1.000000 0.48776(11) 0.250000
H9_6 H 0.999999 0.522155 0.249998
O9_4 O 0.82341(16) 0.53625(6) 0.16173(18)
H20_4 H 0.861983 0.544314 0.138773
O10_4 O 0.73913(15) 0.46634(7) 0.12874(18)
C27_4 C 0.91830(18) 0.28548(10) 0.01566(19)
H22_4 H 0.983519 0.276617 0.060470
C28_4 C 0.86440(16) 0.30304(7) 0.06619(16)
H23_4 H 0.731252 0.327856 0.030765
C31_4 C 0.90887(18) 0.30466(8) 0.19473(16)
H25_4 H 0.920382 0.271050 0.223483
H26_4 H 0.861976 0.319619 0.214389
C32_4 C 0.91270(17) 0.41014(8) 0.20614(16)
H27_4 H 0.853314 0.393300 0.175432
C33_4 C 0.91256(18) 0.46178(8) 0.20732(17)
C34_4 C 0.8174(2) 0.48746(9) 0.16237(19)
C20_3 C 0.60217(13) 0.99948(6) 0.54607(15)
C22_3 C 0.75615(17) 0.95677(8) 0.6251(2)
H15_3 H 0.737344 0.933770 0.562648
H16_3 H 0.744808 0.941243 0.683122
C23_3 C 0.8614(2) 0.97085(13) 0.6718(3)
H17_3 H 0.871385 0.986330 0.613592
H18_3 H 0.901473 0.941773 0.698330
H19_3 H 0.878944 0.993520 0.733574
O11_4 O 0.29873(10) 0.99872(5) 0.41287(14)
N3_2 N 0.31435(12) 0.81790(5) 0.49148(13)
C35_4 C 0.39601(15) 0.83360(7) 0.58110(16)
H28_4 H 0.423684 0.813652 0.645237
C36_4 C 0.44113(15) 0.87756(7) 0.58348(16)
H29_4 H 0.498655 0.886495 0.647420
C37_4 C 0.40045(14) 0.90872(6) 0.48983(15)
C38_4 C 0.31536(15) 0.89267(7) 0.39676(16)
H30_4 H 0.285166 0.912296 0.332281
C39_4 C 0.27595(15) 0.84743(7) 0.40064(16)
H31_4 H 0.219817 0.836915 0.336857
C40_4 C 0.44945(14) 0.95605(6) 0.49202(15)
C42_3 C 0.55098(14) 0.95637(6) 0.53700(16)
H32_3 H 0.585252 0.926785 0.561596
Co3_3 Co 0.250000 0.750000 0.500000
O7_2 O 0.21815(10) 0.73465(5) 0.33379(11)
O8_3 O 0.34784(15) 0.69249(10) 0.35589(15)
C24_3 C 0.26517(16) 0.71163(8) 0.29529(17)
C25_3 C 0.21958(16) 0.70530(7) 0.16927(17)
C26_3 C 0.12371(17) 0.71904(10) 0.10065(19)
H21_3 H 0.086750 0.731526 0.133077
C29_3 C 0.23140(18) 0.68367(9) 0.00205(17)
C30_3 C 0.27346(18) 0.68710(9) 0.11872(19)
H24_3 H 0.338036 0.677180 0.163471
O5_4 O 0.39360(11) 0.71749(5) 0.56527(13)
O6_4 O 0.20127(10) 0.50128(5) 0.58713(14)
N1_4 N 0.18565(12) 0.68210(5) 0.50852(13)
C14_4 C 0.10399(15) 0.66640(7) 0.41890(16)
H10_4 H 0.076316 0.686348 0.354763
C15_4 C 0.05887(15) 0.62244(7) 0.41652(16)
H11_4 H 0.001345 0.613505 0.352580
C16_4 C 0.09955(14) 0.59128(6) 0.51017(15)
C17_4 C 0.18464(15) 0.60733(7) 0.60324(16)
H12_4 H 0.214834 0.587704 0.667719
C18_4 C 0.22405(15) 0.65257(7) 0.59936(16)
H13_4 H 0.280183 0.663085 0.663143
C19_4 C 0.05055(14) 0.54395(6) 0.50798(15)
C20_4 C 0.10217(13) 0.49948(6) 0.54607(15)
C22_4 C 0.25615(17) 0.45677(8) 0.6251(2)
H15_4 H 0.237344 0.433770 0.562648
H16_4 H 0.244808 0.441243 0.683122
C23_4 C 0.3614(2) 0.47085(13) 0.6718(3)
H17_4 H 0.371385 0.486330 0.613592
H18_4 H 0.401473 0.441773 0.698330
H19_4 H 0.378944 0.493520 0.733574
C42_4 C 0.05098(14) 0.45637(6) 0.53700(16)
H32_4 H 0.085252 0.426785 0.561596
O12_4 O 0.10640(11) 0.78251(5) 0.43473(13)
O13_4 O 0.28185(10) 0.76535(5) 0.66621(11)
O8_4 O 0.15216(15) 0.80751(10) 0.64411(15)
C24_4 C 0.23483(16) 0.78837(8) 0.70471(17)
C25_4 C 0.28042(16) 0.79470(7) 0.83073(17)
C26_4 C 0.37629(17) 0.78096(10) 0.89935(19)
H21_4 H 0.413250 0.768474 0.866923
C29_4 C 0.26860(18) 0.81633(9) 0.99795(17)
C30_4 C 0.22654(18) 0.81290(9) 0.88128(19)
H24_4 H 0.161964 0.822820 0.836529
loop_
_geom_bond_atom_site_label_1
_geom_bond_atom_site_label_2
_geom_bond_site_symmetry_1
_geom_bond_site_symmetry_2
O7 C24 1_555 1_555
O8 C24 1_555 1_555
C24 C25 1_555 1_555
C25 C26 1_555 1_555
C26 H21 1_555 1_555
C30 C25 1_555 1_555
H24 C30 1_555 1_555
Co2 O7 1_555 1_555
C29 C30 1_555 1_555
O5 Co2 1_555 1_555
N1 Co2 1_555 1_555
C14 N1 1_555 1_555
H10 C14 1_555 1_555
C15 C14 1_555 1_555
H11 C15 1_555 1_555
C16 C15 1_555 1_555
C17 C16 1_555 1_555
H12 C17 1_555 1_555
C18 N1 1_555 1_555
H13 C18 1_555 1_555
C19 C16 1_555 1_555
C21 C19 1_555 1_555
H14 C21 1_555 1_555
C41 C21 1_555 1_555
H33 C43 1_555 1_555
H34 C43 1_555 1_555
C44 C43 1_555 1_555
H35 C44 1_555 1_555
H36 C44 1_555 1_555
H37 C44 1_555 1_555
O12 Co2 1_555 1_555
O13 Co2 1_555 1_555
N4 Co2 1_555 1_555
C17 C18 1_555 1_555
H14_2 C21_2 1_555 1_555
O11 C41_2 1_555 1_555
N4 C35 1_555 1_555
C35 H28 1_555 1_555
C36 C35 1_555 1_555
H29 C36 1_555 1_555
C37 C36 1_555 1_555
C38 C37 1_555 1_555
H30 C38 1_555 1_555
C39 N4 1_555 1_555
H31 C39 1_555 1_555
C40 C37 1_555 1_555
C41_2 C21_2 1_555 1_555
C43_2 O11 1_555 1_555
H33_2 C43_2 1_555 1_555
H34_2 C43_2 1_555 1_555
C44_2 C43_2 1_555 1_555
H35_2 C44_2 1_555 1_555
H36_2 C44_2 1_555 1_555
H37_2 C44_2 1_555 1_555
C38 C39 1_555 1_555
C40 C41_2 1_555 1_555
O13 C24_2 1_555 1_555
O8_2 C24_2 1_555 1_555
C24_2 C25_2 1_555 1_555
C25_2 C26_2 1_555 1_555
C26_2 H21_2 1_555 1_555
C30_2 C25_2 1_555 1_555
H24_2 C30_2 1_555 1_555
C29_2 C30_2 1_555 1_555
Co1 O1 1_555 1_555
O1 C1 1_555 1_555
O2 C1 1_555 1_555
O4 C13 1_555 1_555
N2 C8 1_555 1_555
C1 C2 1_555 1_555
C2 C3 1_555 1_555
C3 H2 1_555 1_555
C4 C3 1_555 1_555
H3 C4 1_555 1_555
C5 C4 1_555 1_555
C6 C5 1_555 1_555
H4 C6 1_555 1_555
C7 C2 1_555 1_555
H5 C7 1_555 1_555
C8 C5 1_555 1_555
H6 C8 1_555 1_555
H7 C8 1_555 1_555
C9 N2 1_555 1_555
C10 C9 1_555 1_555
H8 C10 1_555 1_555
C11 C10 1_555 1_555
C12 C11 1_555 1_555
H10_2 C14_2 1_555 1_555
C15_2 C14_2 1_555 1_555
H11_2 C15_2 1_555 1_555
H14_3 C21_3 1_555 1_555
O10 C34 1_555 1_555
H22 C27 1_555 1_555
C28 C27 1_555 1_555
C31 N2 1_555 1_555
H25 C31 1_555 1_555
H26 C31 1_555 1_555
C32 C9 1_555 1_555
H27 C32 1_555 1_555
C33 C12 1_555 1_555
C41_3 C21_3 1_555 1_555
H33_3 C43_3 1_555 1_555
H34_3 C43_3 1_555 1_555
C44_3 C43_3 1_555 1_555
H35_3 C44_3 1_555 1_555
H36_3 C44_3 1_555 1_555
H37_3 C44_3 1_555 1_555
O12_2 Co1 1_555 1_555
N4_2 Co1 1_555 1_555
C6 C7 1_555 1_555
C11 C13 1_555 1_555
C28 C31 1_555 1_555
C32 C33 1_555 1_555
C33 C34 1_555 1_555
C9_2 N2_2 1_555 1_555
H9 C12_2 1_555 1_555
H14_4 C21_4 1_555 1_555
O9 H20 1_555 1_555
O10_2 C34_2 1_555 1_555
H22_2 C27_2 1_555 1_555
C28_2 C27_2 1_555 1_555
C31_2 N2_2 1_555 1_555
H25_2 C31_2 1_555 1_555
H26_2 C31_2 1_555 1_555
C32_2 C9_2 1_555 1_555
H27_2 C32_2 1_555 1_555
C33_2 C12_2 1_555 1_555
C34_2 O9 1_555 1_555
O11_2 C41_4 1_555 1_555
C38_2 C37_2 1_555 1_555
H30_2 C38_2 1_555 1_555
C39_2 N4_2 1_555 1_555
H31_2 C39_2 1_555 1_555
C40_2 C37_2 1_555 1_555
C41_4 C21_4 1_555 1_555
C43_4 O11_2 1_555 1_555
H33_4 C43_4 1_555 1_555
H34_4 C43_4 1_555 1_555
C44_4 C43_4 1_555 1_555
H35_4 C44_4 1_555 1_555
H36_4 C44_4 1_555 1_555
H37_4 C44_4 1_555 1_555
C28_2 C31_2 1_555 1_555
C32_2 C33_2 1_555 1_555
C33_2 C34_2 1_555 1_555
C38_2 C39_2 1_555 1_555
C40_2 C41_4 1_555 1_555
O5_2 Co1_2 1_555 1_555
N1_2 Co1_2 1_555 1_555
C17_2 C16_2 1_555 1_555
H12_2 C17_2 1_555 1_555
C18_2 N1_2 1_555 1_555
H13_2 C18_2 1_555 1_555
C19_2 C16_2 1_555 1_555
O13_2 Co1_2 1_555 1_555
C17_2 C18_2 1_555 1_555
C35_2 H28_2 1_555 1_555
C36_2 C35_2 1_555 1_555
H29_2 C36_2 1_555 1_555
O3 H1 1_555 1_555
O9_2 H20_2 1_555 1_555
O13_2 C1_2 1_555 1_555
O2_2 C1_2 1_555 1_555
O3_2 H1_2 1_555 1_555
O4_2 C13_2 1_555 1_555
N2_3 C8_2 1_555 1_555
C1_2 C2_2 1_555 1_555
C2_2 C3_2 1_555 1_555
C3_2 H2_2 1_555 1_555
C4_2 C3_2 1_555 1_555
H3_2 C4_2 1_555 1_555
C5_2 C4_2 1_555 1_555
C6_2 C5_2 1_555 1_555
H4_2 C6_2 1_555 1_555
C7_2 C2_2 1_555 1_555
H5_2 C7_2 1_555 1_555
C8_2 C5_2 1_555 1_555
H6_2 C8_2 1_555 1_555
H7_2 C8_2 1_555 1_555
C9_3 N2_3 1_555 1_555
C10_2 C9_3 1_555 1_555
H8_2 C10_2 1_555 1_555
C11_2 C10_2 1_555 1_555
C12_3 C11_2 1_555 1_555
H9_3 C12_3 1_555 1_555
C13_2 O3_2 1_555 1_555
C6_2 C7_2 1_555 1_555
C11_2 C13_2 1_555 1_555
O3_3 H1_3 1_555 1_555
O9_3 H20_3 1_555 1_555
C38_3 C37_3 1_555 1_555
H30_3 C38_3 1_555 1_555
C39_3 N3 1_555 1_555
H31_3 C39_3 1_555 1_555
C40_3 C37_3 1_555 1_555
Co3 N3 1_555 1_555
C38_3 C39_3 1_555 1_555
Co3 O1_2 1_555 1_555
O1_2 C1_3 1_555 1_555
O2_3 C1_3 1_555 1_555
O3_4 H1_4 1_555 1_555
O4_3 C13_3 1_555 1_555
N2_4 C8_3 1_555 1_555
C1_3 C2_3 1_555 1_555
C2_3 C3_3 1_555 1_555
C3_3 H2_3 1_555 1_555
C4_3 C3_3 1_555 1_555
H3_3 C4_3 1_555 1_555
C5_3 C4_3 1_555 1_555
C6_3 C5_3 1_555 1_555
H4_3 C6_3 1_555 1_555
C7_3 C2_3 1_555 1_555
H5_3 C7_3 1_555 1_555
C8_3 C5_3 1_555 1_555
H6_3 C8_3 1_555 1_555
H7_3 C8_3 1_555 1_555
C9_4 N2_4 1_555 1_555
C10_3 C9_4 1_555 1_555
H8_3 C10_3 1_555 1_555
C11_3 C10_3 1_555 1_555
C12_4 C11_3 1_555 1_555
H9_5 C12_4 1_555 1_555
C13_3 O3_4 1_555 1_555
H10_3 C14_3 1_555 1_555
C15_3 C14_3 1_555 1_555
H11_3 C15_3 1_555 1_555
O12_3 Co3 1_555 1_555
C6_3 C7_3 1_555 1_555
C11_3 C13_3 1_555 1_555
H15 C22 1_555 1_555
H16 C22 1_555 1_555
C23 C22 1_555 1_555
H17 C23 1_555 1_555
H18 C23 1_555 1_555
H19 C23 1_555 1_555
C35_3 H28_3 1_555 1_555
C36_3 C35_3 1_555 1_555
H29_3 C36_3 1_555 1_555
C42 C20 1_555 1_555
H32 C42 1_555 1_555
O5_3 Co3_2 1_555 1_555
O6_3 C20_2 1_555 1_555
N1_3 Co3_2 1_555 1_555
C17_3 C16_3 1_555 1_555
H12_3 C17_3 1_555 1_555
C18_3 N1_3 1_555 1_555
H13_3 C18_3 1_555 1_555
C19_3 C16_3 1_555 1_555
C20_2 C19_3 1_555 1_555
C22_2 O6_3 1_555 1_555
H15_2 C22_2 1_555 1_555
H16_2 C22_2 1_555 1_555
C23_2 C22_2 1_555 1_555
H17_2 C23_2 1_555 1_555
H18_2 C23_2 1_555 1_555
H19_2 C23_2 1_555 1_555
C42_2 C20_2 1_555 1_555
H32_2 C42_2 1_555 1_555
O13_3 Co3_2 1_555 1_555
C17_3 C18_3 1_555 1_555
O13_3 C1_4 1_555 1_555
O2_4 C1_4 1_555 1_555
O4_4 C13_4 1_555 1_555
N2_5 C8_4 1_555 1_555
C1_4 C2_4 1_555 1_555
C2_4 C3_4 1_555 1_555
C3_4 H2_4 1_555 1_555
C4_4 C3_4 1_555 1_555
H3_4 C4_4 1_555 1_555
C5_4 C4_4 1_555 1_555
C6_4 C5_4 1_555 1_555
H4_4 C6_4 1_555 1_555
C7_4 C2_4 1_555 1_555
H5_4 C7_4 1_555 1_555
C8_4 C5_4 1_555 1_555
H6_4 C8_4 1_555 1_555
H7_4 C8_4 1_555 1_555
C9_5 N2_5 1_555 1_555
C10_4 C9_5 1_555 1_555
H8_4 C10_4 1_555 1_555
C11_4 C10_4 1_555 1_555
C12_5 C11_4 1_555 1_555
O10_3 C34_3 1_555 1_555
H22_3 C27_3 1_555 1_555
C28_3 C27_3 1_555 1_555
C31_3 N2_5 1_555 1_555
H25_3 C31_3 1_555 1_555
H26_3 C31_3 1_555 1_555
C32_3 C9_5 1_555 1_555
H27_3 C32_3 1_555 1_555
C33_3 C12_5 1_555 1_555
C6_4 C7_4 1_555 1_555
C11_4 C13_4 1_555 1_555
C28_3 C31_3 1_555 1_555
C32_3 C33_3 1_555 1_555
C33_3 C34_3 1_555 1_555
C9_6 N2_6 1_555 1_555
H9_6 C12_6 1_555 1_555
O9_4 H20_4 1_555 1_555
O10_4 C34_4 1_555 1_555
H22_4 C27_4 1_555 1_555
C28_4 C27_4 1_555 1_555
C31_4 N2_6 1_555 1_555
H25_4 C31_4 1_555 1_555
H26_4 C31_4 1_555 1_555
C32_4 C9_6 1_555 1_555
H27_4 C32_4 1_555 1_555
C33_4 C12_6 1_555 1_555
C34_4 O9_4 1_555 1_555
C28_4 C31_4 1_555 1_555
C32_4 C33_4 1_555 1_555
C33_4 C34_4 1_555 1_555
H15_3 C22_3 1_555 1_555
H16_3 C22_3 1_555 1_555
C23_3 C22_3 1_555 1_555
H17_3 C23_3 1_555 1_555
H18_3 C23_3 1_555 1_555
H19_3 C23_3 1_555 1_555
N3_2 C35_4 1_555 1_555
C35_4 H28_4 1_555 1_555
C36_4 C35_4 1_555 1_555
H29_4 C36_4 1_555 1_555
C37_4 C36_4 1_555 1_555
C38_4 C37_4 1_555 1_555
H30_4 C38_4 1_555 1_555
C39_4 N3_2 1_555 1_555
H31_4 C39_4 1_555 1_555
C40_4 C37_4 1_555 1_555
C42_3 C20_3 1_555 1_555
H32_3 C42_3 1_555 1_555
Co3_3 N3_2 1_555 1_555
C38_4 C39_4 1_555 1_555
C40_4 C42_3 1_555 1_555
O7_2 C24_3 1_555 1_555
O8_3 C24_3 1_555 1_555
C24_3 C25_3 1_555 1_555
C25_3 C26_3 1_555 1_555
C26_3 H21_3 1_555 1_555
C30_3 C25_3 1_555 1_555
H24_3 C30_3 1_555 1_555
Co3_3 O7_2 1_555 1_555
C29_3 C30_3 1_555 1_555
O5_4 Co3_3 1_555 1_555
O6_4 C20_4 1_555 1_555
N1_4 Co3_3 1_555 1_555
C14_4 N1_4 1_555 1_555
H10_4 C14_4 1_555 1_555
C15_4 C14_4 1_555 1_555
H11_4 C15_4 1_555 1_555
C16_4 C15_4 1_555 1_555
C17_4 C16_4 1_555 1_555
H12_4 C17_4 1_555 1_555
C18_4 N1_4 1_555 1_555
H13_4 C18_4 1_555 1_555
C19_4 C16_4 1_555 1_555
C20_4 C19_4 1_555 1_555
C22_4 O6_4 1_555 1_555
H15_4 C22_4 1_555 1_555
H16_4 C22_4 1_555 1_555
C23_4 C22_4 1_555 1_555
H17_4 C23_4 1_555 1_555
H18_4 C23_4 1_555 1_555
H19_4 C23_4 1_555 1_555
C42_4 C20_4 1_555 1_555
H32_4 C42_4 1_555 1_555
O12_4 Co3_3 1_555 1_555
O13_4 Co3_3 1_555 1_555
C17_4 C18_4 1_555 1_555
O13_4 C24_4 1_555 1_555
O8_4 C24_4 1_555 1_555
C24_4 C25_4 1_555 1_555
C25_4 C26_4 1_555 1_555
C26_4 H21_4 1_555 1_555
C30_4 C25_4 1_555 1_555
H24_4 C30_4 1_555 1_555
C29_4 C30_4 1_555 1_555

#END
