
###############################################################################
#
# This file contains modified crystal structure data generated from the
# MOF subset of the Cambridge Structural Database (CSD) v543 
# hosted by the Cambridge Crystallographic Data Centre (CCDC).
#
# This work is licensed under the Creative Commons
# Attribution-NonCommercial-ShareAlike 4.0 International License.
# To view a copy of this license, visit
# http://creativecommons.org/licenses/by-nc-sa/4.0/
# or send a letter to
# Creative Commons, PO Box 1866, Mountain View, CA 94042, USA.
#
# CIF created using the CSD Python API on 29 September 2022
# The structure has been converted into the P1 space group
# The structure has a 3D framework
# The original CSD entry LARKOI is in the orthorhombic crystal system
# The framework has been calculated to contain at least 10.0% void space
# The void calculation uses a probe of radius 1.32A, grid spacing 0.4
# H atom positions have been added when not included in the experimental data
# Generated hydrogen atom positions removed from atoms on special positions
#
###############################################################################

data_LARKOI
_chemical_formula_moiety         '(C272 H192 N104 O112 Zn28)n'
_symmetry_cell_setting           triclinic
_symmetry_space_group_name_H-M   'P 1'
_symmetry_Int_Tables_number      1
_space_group_name_Hall           'P 1'
loop_
_symmetry_equiv_pos_site_id
_symmetry_equiv_pos_as_xyz
1 x,y,z
_cell_length_a                   15.4657(12)
_cell_length_b                   21.3598(16)
_cell_length_c                   42.277(3)
_cell_angle_alpha                90
_cell_angle_beta                 90
_cell_angle_gamma                90
_cell_volume                     13966
loop_
_atom_site_label
_atom_site_type_symbol
_atom_site_fract_x
_atom_site_fract_y
_atom_site_fract_z
Zn2 Zn 0.14062(7) 0.05474(5) 0.000000
O3 O 0.2852(3) 0.2903(2) 0.06700(10)
O4 O 0.3616(3) 0.3435(3) 0.10254(12)
O5 O 0.1125(5) 0.3274(3) 0.20355(13)
O6 O 0.1157(4) 0.5121(3) 0.15098(11)
N2 N 0.0304(4) 0.1053(3) 0.000000
N5 N 0.0132(4) 0.1214(3) 0.05530(13)
H2 H 0.050524 0.092800 0.059641
N7 N 0.1184(3) 0.4201(3) 0.17738(12)
C2 C 0.0506(4) 0.3318(3) 0.10589(13)
C3 C 0.0461(4) 0.3677(3) 0.13400(15)
C4 C 0.1224(5) 0.3864(3) 0.14715(14)
C5 C 0.1150(5) 0.3851(4) 0.2050(2)
C6 C 0.1169(4) 0.4843(4) 0.17618(16)
C7 C 0.1169(4) 0.5199(4) 0.20734(14)
C8 C 0.1155(4) 0.4828(3) 0.23546(13)
C9 C 0.1160(5) 0.4184(4) 0.23562(14)
C10 C 0.1160(5) 0.3873(4) 0.26289(17)
H6 H 0.114903 0.343811 0.262048
C11 C 0.1168(5) 0.5823(4) 0.20750(17)
H7 H 0.117165 0.605655 0.188921
C12 C 0.2906(4) 0.3233(3) 0.09140(16)
C13 C 0.2067(4) 0.3395(3) 0.10695(13)
C14 C 0.2022(4) 0.3738(3) 0.13437(14)
H8 H 0.252312 0.388247 0.144116
C15 C 0.1299(4) 0.3174(3) 0.09366(14)
H9 H 0.132915 0.291948 0.075847
O10 O 0.2852(3) 0.7097(2) 0.43300(10)
O11 O 0.3616(3) 0.6565(3) 0.39746(12)
O12 O 0.1125(5) 0.6726(3) 0.29645(13)
O13 O 0.1157(4) 0.4879(3) 0.34902(11)
N8 N 0.1184(3) 0.5799(3) 0.32262(12)
C19 C 0.0506(4) 0.6682(3) 0.39411(13)
C20 C 0.0461(4) 0.6323(3) 0.36600(15)
C21 C 0.1224(5) 0.6136(3) 0.35285(14)
C22 C 0.1150(5) 0.6149(4) 0.2950(2)
C23 C 0.1169(4) 0.5157(4) 0.32382(16)
C24 C 0.1169(4) 0.4801(4) 0.29266(14)
C25 C 0.1155(4) 0.5172(3) 0.26454(13)
C26 C 0.1160(5) 0.5816(4) 0.26438(14)
C27 C 0.1160(5) 0.6127(4) 0.23711(17)
H11 H 0.114903 0.656189 0.237952
C28 C 0.1168(5) 0.4177(4) 0.29250(17)
H12 H 0.117165 0.394345 0.311079
C29 C 0.2906(4) 0.6767(3) 0.40860(16)
C30 C 0.2067(4) 0.6605(3) 0.39305(13)
C31 C 0.2022(4) 0.6262(3) 0.36563(14)
H13 H 0.252312 0.611753 0.355884
C32 C 0.1299(4) 0.6826(3) 0.40634(14)
H14 H 0.132915 0.708052 0.424153
Zn5 Zn 0.38260(4) 0.74214(3) 0.45664(2)
Zn6 Zn 0.38260(4) 0.25786(3) 0.04336(2)
N15 N 0.2365(4) 0.1196(3) 0.000000
Zn2_2 Zn 0.14062(7) 0.05474(5) 1.000000
N2_2 N 0.0304(4) 0.1053(3) 1.000000
N10 N 0.0132(4) 0.1214(3) 0.94470(13)
H16 H 0.050524 0.092800 0.940359
N15_2 N 0.2365(4) 0.1196(3) 1.000000
H22 H 0.145432 0.0205228 0.946785
Zn1 Zn 0.88260(4) 0.24214(3) 0.04336(2)
O1 O 0.9805(3) 0.2750(2) 0.06688(9)
O2 O 0.8975(3) 0.3291(3) 0.09907(12)
N1 N 0.9373(3) 0.1777(2) 0.01676(9)
N3 N 0.8280(3) 0.3067(2) 0.01623(9)
N4 N 0.7365(4) 0.3804(3) 0.000000
H1 H 0.988354 0.141660 0.070331
N6 N 0.7555(4) 0.3658(3) 0.05523(14)
H3 H 0.780721 0.347129 0.070695
H4 H 0.718171 0.394749 0.058915
C1 C 0.9681(5) 0.3117(4) 0.09029(16)
H5 H 0.993326 0.378108 0.143121
C16 C 0.9936(4) 0.1344(3) 0.02450(13)
C17 C 0.7717(4) 0.3498(3) 0.02459(14)
O8 O 0.9805(3) 0.7250(2) 0.43312(9)
O9 O 0.8975(3) 0.6709(3) 0.40093(12)
C18 C 0.9681(5) 0.6883(4) 0.40971(16)
H10 H 0.993326 0.621892 0.356879
Zn3 Zn 0.88260(4) 0.75786(3) 0.45664(2)
Zn7 Zn 0.64062(7) 0.44526(5) 0.000000
O15 O 0.7852(3) 0.7903(2) 0.43300(10)
O16 O 0.7852(3) 0.2097(2) 0.06700(10)
N13 N 0.9373(3) 0.8223(2) 0.48324(9)
N14 N 0.8280(3) 0.6933(2) 0.48377(9)
N4_2 N 0.7365(4) 0.3804(3) 1.000000
N9 N 0.9373(3) 0.1777(2) 0.98324(9)
H15 H 0.988354 0.141660 0.929669
C33 C 0.9936(4) 0.1344(3) 0.97550(13)
N11 N 0.8280(3) 0.3067(2) 0.98377(9)
N12 N 0.7555(4) 0.3658(3) 0.94477(14)
H17 H 0.780721 0.347129 0.929305
H18 H 0.718171 0.394749 0.941085
C34 C 0.7717(4) 0.3498(3) 0.97541(14)
Zn4 Zn 0.88260(4) 0.24214(3) 0.95664(2)
Zn7_2 Zn 0.64062(7) 0.44526(5) 1.000000
Zn2_3 Zn 0.14062(7) 0.94526(5) 0.500000
N2_3 N 0.0304(4) 0.8947(3) 0.500000
N5_2 N 0.0132(4) 0.8786(3) 0.44470(13)
H2_2 H 0.050524 0.907200 0.440359
N10_2 N 0.0132(4) 0.8786(3) 0.55530(13)
H16_2 H 0.050524 0.907200 0.559641
N15_3 N 0.2365(4) 0.8804(3) 0.500000
H22_2 H 0.145432 0.979477 0.553215
N4_3 N 0.7365(4) 0.6196(3) 0.500000
H1_2 H 0.988354 0.858340 0.429669
N6_2 N 0.7555(4) 0.6342(3) 0.44477(14)
H3_2 H 0.780721 0.652871 0.429305
H4_2 H 0.718171 0.605251 0.441085
C16_2 C 0.9936(4) 0.8656(3) 0.47550(13)
C17_2 C 0.7717(4) 0.6502(3) 0.47541(14)
N9_2 N 0.9373(3) 0.8223(2) 0.51676(9)
H15_2 H 0.988354 0.858340 0.570331
C33_2 C 0.9936(4) 0.8656(3) 0.52450(13)
N11_2 N 0.8280(3) 0.6933(2) 0.51623(9)
N12_2 N 0.7555(4) 0.6342(3) 0.55523(14)
H17_2 H 0.780721 0.652871 0.570695
H18_2 H 0.718171 0.605251 0.558915
C34_2 C 0.7717(4) 0.6502(3) 0.52459(14)
Zn4_2 Zn 0.88260(4) 0.75786(3) 0.54336(2)
Zn7_3 Zn 0.64062(7) 0.55474(5) 0.500000
O6_2 O 0.6157(4) 0.0121(3) 0.65098(11)
C7_2 C 0.6169(4) 0.0199(4) 0.70734(14)
C11_2 C 0.6168(5) 0.0823(4) 0.70750(17)
H7_2 H 0.617165 0.105655 0.688921
O8_2 O 0.4805(3) 0.2250(2) 0.93312(9)
O9_2 O 0.3975(3) 0.1709(3) 0.90093(12)
O10_2 O 0.7852(3) 0.2097(2) 0.93300(10)
O11_2 O 0.8616(3) 0.1565(3) 0.89746(12)
O12_2 O 0.6125(5) 0.1726(3) 0.79645(13)
N8_2 N 0.6184(3) 0.0799(3) 0.82262(12)
C18_2 C 0.4681(5) 0.1883(4) 0.90971(16)
C19_2 C 0.5506(4) 0.1682(3) 0.89411(13)
C20_2 C 0.5461(4) 0.1323(3) 0.86600(15)
H10_2 H 0.493326 0.121892 0.856879
C21_2 C 0.6224(5) 0.1136(3) 0.85285(14)
C22_2 C 0.6150(5) 0.1149(4) 0.7950(2)
C23_2 C 0.6169(4) 0.0157(4) 0.82382(16)
C25_2 C 0.6155(4) 0.0172(3) 0.76454(13)
C26_2 C 0.6160(5) 0.0816(4) 0.76438(14)
C27_2 C 0.6160(5) 0.1127(4) 0.73711(17)
H11_2 H 0.614903 0.156189 0.737952
C29_2 C 0.7906(4) 0.1767(3) 0.90860(16)
C30_2 C 0.7067(4) 0.1605(3) 0.89305(13)
C31_2 C 0.7022(4) 0.1262(3) 0.86563(14)
H13_2 H 0.752312 0.111753 0.855884
C32_2 C 0.6299(4) 0.1826(3) 0.90634(14)
H14_2 H 0.632915 0.208052 0.924153
Zn3_2 Zn 0.38260(4) 0.25786(3) 0.95664(2)
O15_2 O 0.2852(3) 0.2903(2) 0.93300(10)
N13_2 N 0.4373(3) 0.3223(2) 0.98324(9)
N14_2 N 0.3280(3) 0.1933(2) 0.98377(9)
Zn1_2 Zn 0.38260(4) 0.74214(3) 0.54336(2)
O1_2 O 0.4805(3) 0.7750(2) 0.56688(9)
O2_2 O 0.3975(3) 0.8291(3) 0.59907(12)
O3_2 O 0.7852(3) 0.7903(2) 0.56700(10)
O4_2 O 0.8616(3) 0.8435(3) 0.60254(12)
O5_2 O 0.6125(5) 0.8274(3) 0.70355(13)
O7 O 0.6486(6) 0.4980(5) 0.5327(3)
N1_2 N 0.4373(3) 0.6777(2) 0.51676(9)
N2_4 N 0.5304(4) 0.6053(3) 0.500000
N3_2 N 0.3280(3) 0.8067(2) 0.51623(9)
N5_3 N 0.5132(4) 0.6214(3) 0.55530(13)
H1_3 H 0.488354 0.641660 0.570331
H2_3 H 0.550524 0.592800 0.559641
N6_3 N 0.2555(4) 0.8658(3) 0.55523(14)
H3_3 H 0.280721 0.847129 0.570695
H4_3 H 0.218171 0.894749 0.558915
N7_2 N 0.6184(3) 0.9201(3) 0.67738(12)
C1_2 C 0.4681(5) 0.8117(4) 0.59029(16)
C2_2 C 0.5506(4) 0.8318(3) 0.60589(13)
C3_2 C 0.5461(4) 0.8677(3) 0.63400(15)
H5_2 H 0.493326 0.878108 0.643121
C4_2 C 0.6224(5) 0.8864(3) 0.64715(14)
C5_2 C 0.6150(5) 0.8851(4) 0.7050(2)
C6_2 C 0.6169(4) 0.9843(4) 0.67618(16)
C8_2 C 0.6155(4) 0.9828(3) 0.73546(13)
C9_2 C 0.6160(5) 0.9184(4) 0.73562(14)
C10_2 C 0.6160(5) 0.8873(4) 0.76289(17)
H6_2 H 0.614903 0.843811 0.762048
C12_2 C 0.7906(4) 0.8233(3) 0.59140(16)
C13_2 C 0.7067(4) 0.8395(3) 0.60695(13)
C14_2 C 0.7022(4) 0.8738(3) 0.63437(14)
H8_2 H 0.752312 0.888247 0.644116
C15_2 C 0.6299(4) 0.8174(3) 0.59366(14)
H9_2 H 0.632915 0.791948 0.575847
C16_3 C 0.4936(4) 0.6344(3) 0.52450(13)
C17_3 C 0.2717(4) 0.8498(3) 0.52459(14)
O13_2 O 0.6157(4) 0.9879(3) 0.84902(11)
C24_2 C 0.6169(4) 0.9801(4) 0.79266(14)
C28_2 C 0.6168(5) 0.9177(4) 0.79250(17)
H12_2 H 0.617165 0.894345 0.811079
N9_3 N 0.4373(3) 0.6777(2) 0.48324(9)
N10_3 N 0.5132(4) 0.6214(3) 0.44470(13)
H15_3 H 0.488354 0.641660 0.429669
H16_3 H 0.550524 0.592800 0.440359
C33_3 C 0.4936(4) 0.6344(3) 0.47550(13)
N11_3 N 0.3280(3) 0.8067(2) 0.48377(9)
N12_3 N 0.2555(4) 0.8658(3) 0.44477(14)
H17_3 H 0.280721 0.847129 0.429305
H18_3 H 0.218171 0.894749 0.441085
C34_3 C 0.2717(4) 0.8498(3) 0.47541(14)
O14 O 0.6486(6) 0.4980(5) 0.4673(3)
O16_2 O 0.2852(3) 0.7097(2) 0.56700(10)
N2_5 N 0.5304(4) 0.3947(3) 0.000000
N9_4 N 0.4373(3) 0.3223(2) 0.01676(9)
N10_4 N 0.5132(4) 0.3786(3) 0.05530(13)
H15_4 H 0.488354 0.358340 0.070331
H16_4 H 0.550524 0.407200 0.059641
C33_4 C 0.4936(4) 0.3656(3) 0.02450(13)
N11_4 N 0.3280(3) 0.1933(2) 0.01623(9)
N12_4 N 0.2555(4) 0.1342(3) 0.05523(14)
H17_4 H 0.280721 0.152871 0.070695
H18_4 H 0.218171 0.105251 0.058915
C34_4 C 0.2717(4) 0.1502(3) 0.02459(14)
O14_2 O 0.6486(6) 0.5020(5) 0.0327(3)
O7_2 O 0.6486(6) 0.5020(5) 0.9673(3)
N2_6 N 0.5304(4) 0.3947(3) 1.000000
N5_4 N 0.5132(4) 0.3786(3) 0.94470(13)
H1_4 H 0.488354 0.358340 0.929669
H2_4 H 0.550524 0.407200 0.940359
N6_4 N 0.2555(4) 0.1342(3) 0.94477(14)
H3_4 H 0.280721 0.152871 0.929305
H4_4 H 0.218171 0.105251 0.941085
C16_4 C 0.4936(4) 0.3656(3) 0.97550(13)
C17_4 C 0.2717(4) 0.1502(3) 0.97541(14)
H22_3 H 0.145432 0.0205228 0.0532147
O4_3 O 0.3616(3) 0.3435(3) 0.89746(12)
O5_3 O 0.1125(5) 0.3274(3) 0.79645(13)
O6_3 O 0.1157(4) 0.5121(3) 0.84902(11)
N7_3 N 0.1184(3) 0.4201(3) 0.82262(12)
C2_3 C 0.0506(4) 0.3318(3) 0.89411(13)
C3_3 C 0.0461(4) 0.3677(3) 0.86600(15)
C4_3 C 0.1224(5) 0.3864(3) 0.85285(14)
C5_3 C 0.1150(5) 0.3851(4) 0.7950(2)
C6_3 C 0.1169(4) 0.4843(4) 0.82382(16)
C7_3 C 0.1169(4) 0.5199(4) 0.79266(14)
C8_3 C 0.1155(4) 0.4828(3) 0.76454(13)
C9_3 C 0.1160(5) 0.4184(4) 0.76438(14)
C10_3 C 0.1160(5) 0.3873(4) 0.73711(17)
H6_3 H 0.114903 0.343811 0.737952
C11_3 C 0.1168(5) 0.5823(4) 0.79250(17)
H7_3 H 0.117165 0.605655 0.811079
C12_3 C 0.2906(4) 0.3233(3) 0.90860(16)
C13_3 C 0.2067(4) 0.3395(3) 0.89305(13)
C14_3 C 0.2022(4) 0.3738(3) 0.86563(14)
H8_3 H 0.252312 0.388247 0.855884
C15_3 C 0.1299(4) 0.3174(3) 0.90634(14)
H9_3 H 0.132915 0.291948 0.924153
O11_3 O 0.3616(3) 0.6565(3) 0.60254(12)
O12_3 O 0.1125(5) 0.6726(3) 0.70355(13)
O13_3 O 0.1157(4) 0.4879(3) 0.65098(11)
N8_3 N 0.1184(3) 0.5799(3) 0.67738(12)
C19_3 C 0.0506(4) 0.6682(3) 0.60589(13)
C20_3 C 0.0461(4) 0.6323(3) 0.63400(15)
C21_3 C 0.1224(5) 0.6136(3) 0.64715(14)
C22_3 C 0.1150(5) 0.6149(4) 0.7050(2)
C23_3 C 0.1169(4) 0.5157(4) 0.67618(16)
C24_3 C 0.1169(4) 0.4801(4) 0.70734(14)
C25_3 C 0.1155(4) 0.5172(3) 0.73546(13)
C26_3 C 0.1160(5) 0.5816(4) 0.73562(14)
C27_3 C 0.1160(5) 0.6127(4) 0.76289(17)
H11_3 H 0.114903 0.656189 0.762048
C28_3 C 0.1168(5) 0.4177(4) 0.70750(17)
H12_3 H 0.117165 0.394345 0.688921
C29_3 C 0.2906(4) 0.6767(3) 0.59140(16)
C30_3 C 0.2067(4) 0.6605(3) 0.60695(13)
C31_3 C 0.2022(4) 0.6262(3) 0.63437(14)
H13_3 H 0.252312 0.611753 0.644116
C32_3 C 0.1299(4) 0.6826(3) 0.59366(14)
H14_3 H 0.132915 0.708052 0.575847
O1_3 O 0.9805(3) 0.2750(2) 0.93312(9)
O2_3 O 0.8975(3) 0.3291(3) 0.90093(12)
C1_3 C 0.9681(5) 0.3117(4) 0.90971(16)
H5_3 H 0.993326 0.378108 0.856879
O8_3 O 0.9805(3) 0.7250(2) 0.56688(9)
O9_3 O 0.8975(3) 0.6709(3) 0.59907(12)
C18_3 C 0.9681(5) 0.6883(4) 0.59029(16)
H10_3 H 0.993326 0.621892 0.643121
H22_4 H 0.145432 0.979477 0.446785
O6_4 O 0.6157(4) 0.0121(3) 0.34902(11)
C7_4 C 0.6169(4) 0.0199(4) 0.29266(14)
C11_4 C 0.6168(5) 0.0823(4) 0.29250(17)
H7_4 H 0.617165 0.105655 0.311079
O8_4 O 0.4805(3) 0.2250(2) 0.06688(9)
O9_4 O 0.3975(3) 0.1709(3) 0.09907(12)
O11_4 O 0.8616(3) 0.1565(3) 0.10254(12)
O12_4 O 0.6125(5) 0.1726(3) 0.20355(13)
N8_4 N 0.6184(3) 0.0799(3) 0.17738(12)
C18_4 C 0.4681(5) 0.1883(4) 0.09029(16)
C19_4 C 0.5506(4) 0.1682(3) 0.10589(13)
C20_4 C 0.5461(4) 0.1323(3) 0.13400(15)
H10_4 H 0.493326 0.121892 0.143121
C21_4 C 0.6224(5) 0.1136(3) 0.14715(14)
C22_4 C 0.6150(5) 0.1149(4) 0.2050(2)
C23_4 C 0.6169(4) 0.0157(4) 0.17618(16)
C25_4 C 0.6155(4) 0.0172(3) 0.23546(13)
C26_4 C 0.6160(5) 0.0816(4) 0.23562(14)
C27_4 C 0.6160(5) 0.1127(4) 0.26289(17)
H11_4 H 0.614903 0.156189 0.262048
C29_4 C 0.7906(4) 0.1767(3) 0.09140(16)
C30_4 C 0.7067(4) 0.1605(3) 0.10695(13)
C31_4 C 0.7022(4) 0.1262(3) 0.13437(14)
H13_4 H 0.752312 0.111753 0.144116
C32_4 C 0.6299(4) 0.1826(3) 0.09366(14)
H14_4 H 0.632915 0.208052 0.075847
O1_4 O 0.4805(3) 0.7750(2) 0.43312(9)
O2_4 O 0.3975(3) 0.8291(3) 0.40093(12)
O4_4 O 0.8616(3) 0.8435(3) 0.39746(12)
O5_4 O 0.6125(5) 0.8274(3) 0.29645(13)
N7_4 N 0.6184(3) 0.9201(3) 0.32262(12)
C1_4 C 0.4681(5) 0.8117(4) 0.40971(16)
C2_4 C 0.5506(4) 0.8318(3) 0.39411(13)
C3_4 C 0.5461(4) 0.8677(3) 0.36600(15)
H5_4 H 0.493326 0.878108 0.356879
C4_4 C 0.6224(5) 0.8864(3) 0.35285(14)
C5_4 C 0.6150(5) 0.8851(4) 0.2950(2)
C6_4 C 0.6169(4) 0.9843(4) 0.32382(16)
C8_4 C 0.6155(4) 0.9828(3) 0.26454(13)
C9_4 C 0.6160(5) 0.9184(4) 0.26438(14)
C10_4 C 0.6160(5) 0.8873(4) 0.23711(17)
H6_4 H 0.614903 0.843811 0.237952
C12_4 C 0.7906(4) 0.8233(3) 0.40860(16)
C13_4 C 0.7067(4) 0.8395(3) 0.39305(13)
C14_4 C 0.7022(4) 0.8738(3) 0.36563(14)
H8_4 H 0.752312 0.888247 0.355884
C15_4 C 0.6299(4) 0.8174(3) 0.40634(14)
H9_4 H 0.632915 0.791948 0.424153
O13_4 O 0.6157(4) 0.9879(3) 0.15098(11)
C24_4 C 0.6169(4) 0.9801(4) 0.20734(14)
C28_4 C 0.6168(5) 0.9177(4) 0.20750(17)
H12_4 H 0.617165 0.894345 0.188921
O7_3 O 0.1486(6) 0.9980(5) 0.0327(3)
H19 H 0.0998654 0.967847 0.0313716
H20 H 0.204244 0.975013 0.0311366
O14_3 O 0.1486(6) 0.9980(5) 0.9673(3)
H21 H 0.100179 0.967604 0.968746
H20_2 H 0.204244 0.975013 0.968863
Zn1_3 Zn 0.11740(4) 0.75786(3) 0.04336(2)
O1_5 O 0.0195(3) 0.7250(2) 0.06688(9)
O2_5 O 0.1025(3) 0.6709(3) 0.09907(12)
N1_3 N 0.0627(3) 0.8223(2) 0.01676(9)
N3_3 N 0.1720(3) 0.6933(2) 0.01623(9)
N4_4 N 0.2635(4) 0.6196(3) 0.000000
H1_5 H 0.011646 0.858340 0.070331
N6_5 N 0.2445(4) 0.6342(3) 0.05523(14)
H3_5 H 0.219279 0.652871 0.070695
H4_5 H 0.281829 0.605251 0.058915
C1_5 C 0.0319(5) 0.6883(4) 0.09029(16)
H5_5 H 0.006674 0.621892 0.143121
C16_5 C 0.0064(4) 0.8656(3) 0.02450(13)
C17_5 C 0.2283(4) 0.6502(3) 0.02459(14)
O8_5 O 0.0195(3) 0.2750(2) 0.43312(9)
O9_5 O 0.1025(3) 0.3291(3) 0.40093(12)
C18_5 C 0.0319(5) 0.3117(4) 0.40971(16)
H10_5 H 0.006674 0.378108 0.356879
Zn3_3 Zn 0.11740(4) 0.24214(3) 0.45664(2)
Zn7_4 Zn 0.35938(7) 0.55474(5) 0.000000
O15_3 O 0.2148(3) 0.2097(2) 0.43300(10)
O16_3 O 0.2148(3) 0.7903(2) 0.06700(10)
N13_3 N 0.0627(3) 0.1777(2) 0.48324(9)
N14_3 N 0.1720(3) 0.3067(2) 0.48377(9)
N4_5 N 0.2635(4) 0.6196(3) 1.000000
N9_5 N 0.0627(3) 0.8223(2) 0.98324(9)
H15_5 H 0.011646 0.858340 0.929669
C33_5 C 0.0064(4) 0.8656(3) 0.97550(13)
N11_5 N 0.1720(3) 0.6933(2) 0.98377(9)
N12_5 N 0.2445(4) 0.6342(3) 0.94477(14)
H17_5 H 0.219279 0.652871 0.929305
H18_5 H 0.281829 0.605251 0.941085
C34_5 C 0.2283(4) 0.6502(3) 0.97541(14)
Zn4_3 Zn 0.11740(4) 0.75786(3) 0.95664(2)
Zn7_5 Zn 0.35938(7) 0.55474(5) 1.000000
Zn2_4 Zn 0.85938(7) 0.94526(5) 0.000000
O3_3 O 0.7148(3) 0.7097(2) 0.06700(10)
O4_5 O 0.6384(3) 0.6565(3) 0.10254(12)
O5_5 O 0.8875(5) 0.6726(3) 0.20355(13)
O6_5 O 0.8843(4) 0.4879(3) 0.15098(11)
N2_7 N 0.9696(4) 0.8947(3) 0.000000
N5_5 N 0.9868(4) 0.8786(3) 0.05530(13)
H2_5 H 0.949476 0.907200 0.059641
N7_5 N 0.8816(3) 0.5799(3) 0.17738(12)
C2_5 C 0.9494(4) 0.6682(3) 0.10589(13)
C3_5 C 0.9539(4) 0.6323(3) 0.13400(15)
C4_5 C 0.8776(5) 0.6136(3) 0.14715(14)
C5_5 C 0.8850(5) 0.6149(4) 0.2050(2)
C6_5 C 0.8831(4) 0.5157(4) 0.17618(16)
C7_5 C 0.8831(4) 0.4801(4) 0.20734(14)
C8_5 C 0.8845(4) 0.5172(3) 0.23546(13)
C9_5 C 0.8840(5) 0.5816(4) 0.23562(14)
C10_5 C 0.8840(5) 0.6127(4) 0.26289(17)
H6_5 H 0.885097 0.656189 0.262048
C11_5 C 0.8832(5) 0.4177(4) 0.20750(17)
H7_5 H 0.882835 0.394345 0.188921
C12_5 C 0.7094(4) 0.6767(3) 0.09140(16)
C13_5 C 0.7933(4) 0.6605(3) 0.10695(13)
C14_5 C 0.7978(4) 0.6262(3) 0.13437(14)
H8_5 H 0.747688 0.611753 0.144116
C15_5 C 0.8701(4) 0.6826(3) 0.09366(14)
H9_5 H 0.867085 0.708052 0.075847
O10_3 O 0.7148(3) 0.2903(2) 0.43300(10)
O11_5 O 0.6384(3) 0.3435(3) 0.39746(12)
O12_5 O 0.8875(5) 0.3274(3) 0.29645(13)
O13_5 O 0.8843(4) 0.5121(3) 0.34902(11)
N8_5 N 0.8816(3) 0.4201(3) 0.32262(12)
C19_5 C 0.9494(4) 0.3318(3) 0.39411(13)
C20_5 C 0.9539(4) 0.3677(3) 0.36600(15)
C21_5 C 0.8776(5) 0.3864(3) 0.35285(14)
C22_5 C 0.8850(5) 0.3851(4) 0.2950(2)
C23_5 C 0.8831(4) 0.4843(4) 0.32382(16)
C24_5 C 0.8831(4) 0.5199(4) 0.29266(14)
C25_5 C 0.8845(4) 0.4828(3) 0.26454(13)
C26_5 C 0.8840(5) 0.4184(4) 0.26438(14)
C27_5 C 0.8840(5) 0.3873(4) 0.23711(17)
H11_5 H 0.885097 0.343811 0.237952
C28_5 C 0.8832(5) 0.5823(4) 0.29250(17)
H12_5 H 0.882835 0.605655 0.311079
C29_5 C 0.7094(4) 0.3233(3) 0.40860(16)
C30_5 C 0.7933(4) 0.3395(3) 0.39305(13)
C31_5 C 0.7978(4) 0.3738(3) 0.36563(14)
H13_5 H 0.747688 0.388247 0.355884
C32_5 C 0.8701(4) 0.3174(3) 0.40634(14)
H14_5 H 0.867085 0.291948 0.424153
Zn5_2 Zn 0.61740(4) 0.25786(3) 0.45664(2)
Zn6_2 Zn 0.61740(4) 0.74214(3) 0.04336(2)
N15_4 N 0.7635(4) 0.8804(3) 0.000000
Zn2_5 Zn 0.85938(7) 0.94526(5) 1.000000
N2_8 N 0.9696(4) 0.8947(3) 1.000000
N10_5 N 0.9868(4) 0.8786(3) 0.94470(13)
H16_5 H 0.949476 0.907200 0.940359
N15_5 N 0.7635(4) 0.8804(3) 1.000000
H22_5 H 0.854568 0.979477 0.946785
N4_6 N 0.2635(4) 0.3804(3) 0.500000
H1_6 H 0.011646 0.141660 0.429669
N6_6 N 0.2445(4) 0.3658(3) 0.44477(14)
H3_6 H 0.219279 0.347129 0.429305
H4_6 H 0.281829 0.394749 0.441085
C16_6 C 0.0064(4) 0.1344(3) 0.47550(13)
C17_6 C 0.2283(4) 0.3498(3) 0.47541(14)
N9_6 N 0.0627(3) 0.1777(2) 0.51676(9)
H15_6 H 0.011646 0.141660 0.570331
C33_6 C 0.0064(4) 0.1344(3) 0.52450(13)
N11_6 N 0.1720(3) 0.3067(2) 0.51623(9)
N12_6 N 0.2445(4) 0.3658(3) 0.55523(14)
H17_6 H 0.219279 0.347129 0.570695
H18_6 H 0.281829 0.394749 0.558915
C34_6 C 0.2283(4) 0.3498(3) 0.52459(14)
Zn4_4 Zn 0.11740(4) 0.24214(3) 0.54336(2)
Zn7_6 Zn 0.35938(7) 0.44526(5) 0.500000
Zn2_6 Zn 0.85938(7) 0.05474(5) 0.500000
N2_9 N 0.9696(4) 0.1053(3) 0.500000
N5_6 N 0.9868(4) 0.1214(3) 0.44470(13)
H2_6 H 0.949476 0.092800 0.440359
N10_6 N 0.9868(4) 0.1214(3) 0.55530(13)
H16_6 H 0.949476 0.092800 0.559641
N15_6 N 0.7635(4) 0.1196(3) 0.500000
H22_6 H 0.854568 0.0205228 0.553215
Zn1_4 Zn 0.61740(4) 0.25786(3) 0.54336(2)
O1_6 O 0.5195(3) 0.2250(2) 0.56688(9)
O2_6 O 0.6025(3) 0.1709(3) 0.59907(12)
O3_4 O 0.2148(3) 0.2097(2) 0.56700(10)
O4_6 O 0.1384(3) 0.1565(3) 0.60254(12)
O5_6 O 0.3875(5) 0.1726(3) 0.70355(13)
O7_4 O 0.3514(6) 0.5020(5) 0.5327(3)
N1_4 N 0.5627(3) 0.3223(2) 0.51676(9)
N2_10 N 0.4696(4) 0.3947(3) 0.500000
N3_4 N 0.6720(3) 0.1933(2) 0.51623(9)
N5_7 N 0.4868(4) 0.3786(3) 0.55530(13)
H1_7 H 0.511646 0.358340 0.570331
H2_7 H 0.449476 0.407200 0.559641
N6_7 N 0.7445(4) 0.1342(3) 0.55523(14)
H3_7 H 0.719279 0.152871 0.570695
H4_7 H 0.781829 0.105251 0.558915
N7_6 N 0.3816(3) 0.0799(3) 0.67738(12)
C1_6 C 0.5319(5) 0.1883(4) 0.59029(16)
C2_6 C 0.4494(4) 0.1682(3) 0.60589(13)
C3_6 C 0.4539(4) 0.1323(3) 0.63400(15)
H5_6 H 0.506674 0.121892 0.643121
C4_6 C 0.3776(5) 0.1136(3) 0.64715(14)
C5_6 C 0.3850(5) 0.1149(4) 0.7050(2)
C6_6 C 0.3831(4) 0.0157(4) 0.67618(16)
C8_6 C 0.3845(4) 0.0172(3) 0.73546(13)
C9_6 C 0.3840(5) 0.0816(4) 0.73562(14)
C10_6 C 0.3840(5) 0.1127(4) 0.76289(17)
H6_6 H 0.385097 0.156189 0.762048
C12_6 C 0.2094(4) 0.1767(3) 0.59140(16)
C13_6 C 0.2933(4) 0.1605(3) 0.60695(13)
C14_6 C 0.2978(4) 0.1262(3) 0.63437(14)
H8_6 H 0.247688 0.111753 0.644116
C15_6 C 0.3701(4) 0.1826(3) 0.59366(14)
H9_6 H 0.367085 0.208052 0.575847
C16_7 C 0.5064(4) 0.3656(3) 0.52450(13)
C17_7 C 0.7283(4) 0.1502(3) 0.52459(14)
O13_6 O 0.3843(4) 0.0121(3) 0.84902(11)
C24_6 C 0.3831(4) 0.0199(4) 0.79266(14)
C28_6 C 0.3832(5) 0.0823(4) 0.79250(17)
H12_6 H 0.382835 0.105655 0.811079
N9_7 N 0.5627(3) 0.3223(2) 0.48324(9)
N10_7 N 0.4868(4) 0.3786(3) 0.44470(13)
H15_7 H 0.511646 0.358340 0.429669
H16_7 H 0.449476 0.407200 0.440359
C33_7 C 0.5064(4) 0.3656(3) 0.47550(13)
N11_7 N 0.6720(3) 0.1933(2) 0.48377(9)
N12_7 N 0.7445(4) 0.1342(3) 0.44477(14)
H17_7 H 0.719279 0.152871 0.429305
H18_7 H 0.781829 0.105251 0.441085
C34_7 C 0.7283(4) 0.1502(3) 0.47541(14)
O14_4 O 0.3514(6) 0.5020(5) 0.4673(3)
O16_4 O 0.7148(3) 0.2903(2) 0.56700(10)
O6_6 O 0.3843(4) 0.9879(3) 0.65098(11)
C7_6 C 0.3831(4) 0.9801(4) 0.70734(14)
C11_6 C 0.3832(5) 0.9177(4) 0.70750(17)
H7_6 H 0.382835 0.894345 0.688921
O8_6 O 0.5195(3) 0.7750(2) 0.93312(9)
O9_6 O 0.6025(3) 0.8291(3) 0.90093(12)
O10_4 O 0.2148(3) 0.7903(2) 0.93300(10)
O11_6 O 0.1384(3) 0.8435(3) 0.89746(12)
O12_6 O 0.3875(5) 0.8274(3) 0.79645(13)
N8_6 N 0.3816(3) 0.9201(3) 0.82262(12)
C18_6 C 0.5319(5) 0.8117(4) 0.90971(16)
C19_6 C 0.4494(4) 0.8318(3) 0.89411(13)
C20_6 C 0.4539(4) 0.8677(3) 0.86600(15)
H10_6 H 0.506674 0.878108 0.856879
C21_6 C 0.3776(5) 0.8864(3) 0.85285(14)
C22_6 C 0.3850(5) 0.8851(4) 0.7950(2)
C23_6 C 0.3831(4) 0.9843(4) 0.82382(16)
C25_6 C 0.3845(4) 0.9828(3) 0.76454(13)
C26_6 C 0.3840(5) 0.9184(4) 0.76438(14)
C27_6 C 0.3840(5) 0.8873(4) 0.73711(17)
H11_6 H 0.385097 0.843811 0.737952
C29_6 C 0.2094(4) 0.8233(3) 0.90860(16)
C30_6 C 0.2933(4) 0.8395(3) 0.89305(13)
C31_6 C 0.2978(4) 0.8738(3) 0.86563(14)
H13_6 H 0.247688 0.888247 0.855884
C32_6 C 0.3701(4) 0.8174(3) 0.90634(14)
H14_6 H 0.367085 0.791948 0.924153
Zn3_4 Zn 0.61740(4) 0.74214(3) 0.95664(2)
O15_4 O 0.7148(3) 0.7097(2) 0.93300(10)
N13_4 N 0.5627(3) 0.6777(2) 0.98324(9)
N14_4 N 0.6720(3) 0.8067(2) 0.98377(9)
N2_11 N 0.4696(4) 0.6053(3) 0.000000
N9_8 N 0.5627(3) 0.6777(2) 0.01676(9)
N10_8 N 0.4868(4) 0.6214(3) 0.05530(13)
H15_8 H 0.511646 0.641660 0.070331
H16_8 H 0.449476 0.592800 0.059641
C33_8 C 0.5064(4) 0.6344(3) 0.02450(13)
N11_8 N 0.6720(3) 0.8067(2) 0.01623(9)
N12_8 N 0.7445(4) 0.8658(3) 0.05523(14)
H17_8 H 0.719279 0.847129 0.070695
H18_8 H 0.781829 0.894749 0.058915
C34_8 C 0.7283(4) 0.8498(3) 0.02459(14)
O14_5 O 0.3514(6) 0.4980(5) 0.0327(3)
O7_5 O 0.3514(6) 0.4980(5) 0.9673(3)
N2_12 N 0.4696(4) 0.6053(3) 1.000000
N5_8 N 0.4868(4) 0.6214(3) 0.94470(13)
H1_8 H 0.511646 0.641660 0.929669
H2_8 H 0.449476 0.592800 0.940359
N6_8 N 0.7445(4) 0.8658(3) 0.94477(14)
H3_8 H 0.719279 0.847129 0.929305
H4_8 H 0.781829 0.894749 0.941085
C16_8 C 0.5064(4) 0.6344(3) 0.97550(13)
C17_8 C 0.7283(4) 0.8498(3) 0.97541(14)
O1_7 O 0.0195(3) 0.7250(2) 0.93312(9)
O2_7 O 0.1025(3) 0.6709(3) 0.90093(12)
C1_7 C 0.0319(5) 0.6883(4) 0.90971(16)
H5_7 H 0.006674 0.621892 0.856879
O8_7 O 0.0195(3) 0.2750(2) 0.56688(9)
O9_7 O 0.1025(3) 0.3291(3) 0.59907(12)
C18_7 C 0.0319(5) 0.3117(4) 0.59029(16)
H10_7 H 0.006674 0.378108 0.643121
H22_7 H 0.854568 0.979477 0.0532147
O4_7 O 0.6384(3) 0.6565(3) 0.89746(12)
O5_7 O 0.8875(5) 0.6726(3) 0.79645(13)
O6_7 O 0.8843(4) 0.4879(3) 0.84902(11)
N7_7 N 0.8816(3) 0.5799(3) 0.82262(12)
C2_7 C 0.9494(4) 0.6682(3) 0.89411(13)
C3_7 C 0.9539(4) 0.6323(3) 0.86600(15)
C4_7 C 0.8776(5) 0.6136(3) 0.85285(14)
C5_7 C 0.8850(5) 0.6149(4) 0.7950(2)
C6_7 C 0.8831(4) 0.5157(4) 0.82382(16)
C7_7 C 0.8831(4) 0.4801(4) 0.79266(14)
C8_7 C 0.8845(4) 0.5172(3) 0.76454(13)
C9_7 C 0.8840(5) 0.5816(4) 0.76438(14)
C10_7 C 0.8840(5) 0.6127(4) 0.73711(17)
H6_7 H 0.885097 0.656189 0.737952
C11_7 C 0.8832(5) 0.4177(4) 0.79250(17)
H7_7 H 0.882835 0.394345 0.811079
C12_7 C 0.7094(4) 0.6767(3) 0.90860(16)
C13_7 C 0.7933(4) 0.6605(3) 0.89305(13)
C14_7 C 0.7978(4) 0.6262(3) 0.86563(14)
H8_7 H 0.747688 0.611753 0.855884
C15_7 C 0.8701(4) 0.6826(3) 0.90634(14)
H9_7 H 0.867085 0.708052 0.924153
O11_7 O 0.6384(3) 0.3435(3) 0.60254(12)
O12_7 O 0.8875(5) 0.3274(3) 0.70355(13)
O13_7 O 0.8843(4) 0.5121(3) 0.65098(11)
N8_7 N 0.8816(3) 0.4201(3) 0.67738(12)
C19_7 C 0.9494(4) 0.3318(3) 0.60589(13)
C20_7 C 0.9539(4) 0.3677(3) 0.63400(15)
C21_7 C 0.8776(5) 0.3864(3) 0.64715(14)
C22_7 C 0.8850(5) 0.3851(4) 0.7050(2)
C23_7 C 0.8831(4) 0.4843(4) 0.67618(16)
C24_7 C 0.8831(4) 0.5199(4) 0.70734(14)
C25_7 C 0.8845(4) 0.4828(3) 0.73546(13)
C26_7 C 0.8840(5) 0.4184(4) 0.73562(14)
C27_7 C 0.8840(5) 0.3873(4) 0.76289(17)
H11_7 H 0.885097 0.343811 0.762048
C28_7 C 0.8832(5) 0.5823(4) 0.70750(17)
H12_7 H 0.882835 0.605655 0.688921
C29_7 C 0.7094(4) 0.3233(3) 0.59140(16)
C30_7 C 0.7933(4) 0.3395(3) 0.60695(13)
C31_7 C 0.7978(4) 0.3738(3) 0.63437(14)
H13_7 H 0.747688 0.388247 0.644116
C32_7 C 0.8701(4) 0.3174(3) 0.59366(14)
H14_7 H 0.867085 0.291948 0.575847
H22_8 H 0.854568 0.0205228 0.446785
O1_8 O 0.5195(3) 0.2250(2) 0.43312(9)
O2_8 O 0.6025(3) 0.1709(3) 0.40093(12)
O4_8 O 0.1384(3) 0.1565(3) 0.39746(12)
O5_8 O 0.3875(5) 0.1726(3) 0.29645(13)
N7_8 N 0.3816(3) 0.0799(3) 0.32262(12)
C1_8 C 0.5319(5) 0.1883(4) 0.40971(16)
C2_8 C 0.4494(4) 0.1682(3) 0.39411(13)
C3_8 C 0.4539(4) 0.1323(3) 0.36600(15)
H5_8 H 0.506674 0.121892 0.356879
C4_8 C 0.3776(5) 0.1136(3) 0.35285(14)
C5_8 C 0.3850(5) 0.1149(4) 0.2950(2)
C6_8 C 0.3831(4) 0.0157(4) 0.32382(16)
C8_8 C 0.3845(4) 0.0172(3) 0.26454(13)
C9_8 C 0.3840(5) 0.0816(4) 0.26438(14)
C10_8 C 0.3840(5) 0.1127(4) 0.23711(17)
H6_8 H 0.385097 0.156189 0.237952
C12_8 C 0.2094(4) 0.1767(3) 0.40860(16)
C13_8 C 0.2933(4) 0.1605(3) 0.39305(13)
C14_8 C 0.2978(4) 0.1262(3) 0.36563(14)
H8_8 H 0.247688 0.111753 0.355884
C15_8 C 0.3701(4) 0.1826(3) 0.40634(14)
H9_8 H 0.367085 0.208052 0.424153
O13_8 O 0.3843(4) 0.0121(3) 0.15098(11)
C24_8 C 0.3831(4) 0.0199(4) 0.20734(14)
C28_8 C 0.3832(5) 0.0823(4) 0.20750(17)
H12_8 H 0.382835 0.105655 0.188921
O6_8 O 0.3843(4) 0.9879(3) 0.34902(11)
C7_8 C 0.3831(4) 0.9801(4) 0.29266(14)
C11_8 C 0.3832(5) 0.9177(4) 0.29250(17)
H7_8 H 0.382835 0.894345 0.311079
O8_8 O 0.5195(3) 0.7750(2) 0.06688(9)
O9_8 O 0.6025(3) 0.8291(3) 0.09907(12)
O11_8 O 0.1384(3) 0.8435(3) 0.10254(12)
O12_8 O 0.3875(5) 0.8274(3) 0.20355(13)
N8_8 N 0.3816(3) 0.9201(3) 0.17738(12)
C18_8 C 0.5319(5) 0.8117(4) 0.09029(16)
C19_8 C 0.4494(4) 0.8318(3) 0.10589(13)
C20_8 C 0.4539(4) 0.8677(3) 0.13400(15)
H10_8 H 0.506674 0.878108 0.143121
C21_8 C 0.3776(5) 0.8864(3) 0.14715(14)
C22_8 C 0.3850(5) 0.8851(4) 0.2050(2)
C23_8 C 0.3831(4) 0.9843(4) 0.17618(16)
C25_8 C 0.3845(4) 0.9828(3) 0.23546(13)
C26_8 C 0.3840(5) 0.9184(4) 0.23562(14)
C27_8 C 0.3840(5) 0.8873(4) 0.26289(17)
H11_8 H 0.385097 0.843811 0.262048
C29_8 C 0.2094(4) 0.8233(3) 0.09140(16)
C30_8 C 0.2933(4) 0.8395(3) 0.10695(13)
C31_8 C 0.2978(4) 0.8738(3) 0.13437(14)
H13_8 H 0.247688 0.888247 0.144116
C32_8 C 0.3701(4) 0.8174(3) 0.09366(14)
H14_8 H 0.367085 0.791948 0.075847
O7_6 O 0.8514(6) 0.0020(5) 0.0327(3)
H19_2 H 0.900135 0.0321528 0.0313716
H20_3 H 0.795756 0.0249873 0.0311366
O14_6 O 0.8514(6) 0.0020(5) 0.9673(3)
H21_2 H 0.899821 0.0323957 0.968746
H20_4 H 0.795756 0.0249873 0.968863
O7_7 O 0.1486(6) 0.0020(5) 0.4673(3)
O14_7 O 0.1486(6) 0.0020(5) 0.5327(3)
H19_3 H 0.0998654 0.0321528 0.468628
H20_5 H 0.204244 0.0249873 0.468863
H21_3 H 0.100179 0.0323957 0.531254
H20_6 H 0.204244 0.0249873 0.531137
O7_8 O 0.8514(6) 0.9980(5) 0.4673(3)
O14_8 O 0.8514(6) 0.9980(5) 0.5327(3)
H19_4 H 0.900135 0.967847 0.468628
H20_7 H 0.795756 0.975013 0.468863
H21_4 H 0.899821 0.967604 0.531254
H20_8 H 0.795756 0.975013 0.531137
loop_
_geom_bond_atom_site_label_1
_geom_bond_atom_site_label_2
_geom_bond_site_symmetry_1
_geom_bond_site_symmetry_2
O3 C12 1_555 1_555
O4 C12 1_555 1_555
O5 C5 1_555 1_555
O6 C6 1_555 1_555
N2 Zn2 1_555 1_555
H2 N5 1_555 1_555
N7 C4 1_555 1_555
C2 C3 1_555 1_555
C4 C3 1_555 1_555
C5 N7 1_555 1_555
C6 N7 1_555 1_555
C7 C6 1_555 1_555
C8 C7 1_555 1_555
C9 C5 1_555 1_555
C10 C9 1_555 1_555
H6 C10 1_555 1_555
C11 C7 1_555 1_555
H7 C11 1_555 1_555
C12 C13 1_555 1_555
C13 C14 1_555 1_555
C14 C4 1_555 1_555
H8 C14 1_555 1_555
C15 C2 1_555 1_555
H9 C15 1_555 1_555
O10 C29 1_555 1_555
O11 C29 1_555 1_555
O12 C22 1_555 1_555
O13 C23 1_555 1_555
N8 C21 1_555 1_555
C19 C20 1_555 1_555
C21 C20 1_555 1_555
C22 N8 1_555 1_555
C23 N8 1_555 1_555
C24 C23 1_555 1_555
C25 C8 1_555 1_555
C26 C22 1_555 1_555
C27 C11 1_555 1_555
H11 C27 1_555 1_555
C28 C10 1_555 1_555
H12 C28 1_555 1_555
C29 C30 1_555 1_555
C30 C31 1_555 1_555
C31 C21 1_555 1_555
H13 C31 1_555 1_555
C32 C19 1_555 1_555
H14 C32 1_555 1_555
Zn5 O10 1_555 1_555
Zn6 O3 1_555 1_555
N15 Zn2 1_555 1_555
C8 C9 1_555 1_555
C13 C15 1_555 1_555
C24 C25 1_555 1_555
C24 C28 1_555 1_555
C25 C26 1_555 1_555
C26 C27 1_555 1_555
C30 C32 1_555 1_555
N2_2 Zn2_2 1_555 1_555
H16 N10 1_555 1_555
N15_2 Zn2_2 1_555 1_555
Zn1 O1 1_555 1_555
O1 C1 1_555 1_555
O2 C1 1_555 1_555
N1 Zn1 1_555 1_555
N3 Zn1 1_555 1_555
N4 C17 1_555 1_555
N6 H3 1_555 1_555
H4 N6 1_555 1_555
C16 N1 1_555 1_555
C17 N3 1_555 1_555
O8 C18 1_555 1_555
O9 C18 1_555 1_555
Zn3 O8 1_555 1_555
Zn7 N4 1_555 1_555
O15 Zn3 1_555 1_555
O16 Zn1 1_555 1_555
N13 Zn3 1_555 1_555
N14 Zn3 1_555 1_555
N6 C17 1_555 1_555
N12 H17 1_555 1_555
H18 N12 1_555 1_555
C34 N4_2 1_555 1_555
Zn4 N9 1_555 1_555
Zn7_2 N4_2 1_555 1_555
N9 C33 1_555 1_555
N11 C34 1_555 1_555
N11 Zn4 1_555 1_555
N12 C34 1_555 1_555
N2_3 Zn2_3 1_555 1_555
H2_2 N5_2 1_555 1_555
H16_2 N10_2 1_555 1_555
N15_3 Zn2_3 1_555 1_555
N4_3 C17_2 1_555 1_555
N6_2 H3_2 1_555 1_555
H4_2 N6_2 1_555 1_555
C16_2 N13 1_555 1_555
C17_2 N14 1_555 1_555
N9_2 N13 1_555 1_555
N11_2 N14 1_555 1_555
N12_2 H17_2 1_555 1_555
H18_2 N12_2 1_555 1_555
C34_2 N4_3 1_555 1_555
Zn4_2 N9_2 1_555 1_555
Zn7_3 N4_3 1_555 1_555
N6_2 C17_2 1_555 1_555
N9_2 C33_2 1_555 1_555
N11_2 C34_2 1_555 1_555
N11_2 Zn4_2 1_555 1_555
N12_2 C34_2 1_555 1_555
C11_2 C7_2 1_555 1_555
H7_2 C11_2 1_555 1_555
O8_2 C18_2 1_555 1_555
O9_2 C18_2 1_555 1_555
O10_2 C29_2 1_555 1_555
O11_2 C29_2 1_555 1_555
O12_2 C22_2 1_555 1_555
N8_2 C21_2 1_555 1_555
C18_2 C19_2 1_555 1_555
C19_2 C20_2 1_555 1_555
C20_2 H10_2 1_555 1_555
C21_2 C20_2 1_555 1_555
C22_2 N8_2 1_555 1_555
C23_2 N8_2 1_555 1_555
C26_2 C22_2 1_555 1_555
C27_2 C11_2 1_555 1_555
H11_2 C27_2 1_555 1_555
C29_2 C30_2 1_555 1_555
C30_2 C31_2 1_555 1_555
C31_2 C21_2 1_555 1_555
H13_2 C31_2 1_555 1_555
C32_2 C19_2 1_555 1_555
H14_2 C32_2 1_555 1_555
Zn3_2 O8_2 1_555 1_555
Zn4 O10_2 1_555 1_555
O15_2 Zn3_2 1_555 1_555
N13_2 Zn3_2 1_555 1_555
N14_2 Zn3_2 1_555 1_555
C25_2 C26_2 1_555 1_555
C26_2 C27_2 1_555 1_555
C30_2 C32_2 1_555 1_555
Zn1_2 O1_2 1_555 1_555
Zn7_3 O7 1_555 1_555
O1_2 C1_2 1_555 1_555
O2_2 C1_2 1_555 1_555
O3_2 C12_2 1_555 1_555
O4_2 C12_2 1_555 1_555
O5_2 C5_2 1_555 1_555
N1_2 Zn1_2 1_555 1_555
N2_4 Zn7_3 1_555 1_555
N3_2 Zn1_2 1_555 1_555
N15_3 C17_3 1_555 1_555
N5_3 H1_3 1_555 1_555
H2_3 N5_3 1_555 1_555
N6_3 H3_3 1_555 1_555
H4_3 N6_3 1_555 1_555
N7_2 C4_2 1_555 1_555
C1_2 C2_2 1_555 1_555
C2_2 C3_2 1_555 1_555
C3_2 H5_2 1_555 1_555
C4_2 C3_2 1_555 1_555
C5_2 N7_2 1_555 1_555
C6_2 N7_2 1_555 1_555
C9_2 C5_2 1_555 1_555
C10_2 C9_2 1_555 1_555
H6_2 C10_2 1_555 1_555
C12_2 C13_2 1_555 1_555
C13_2 C14_2 1_555 1_555
C14_2 C4_2 1_555 1_555
H8_2 C14_2 1_555 1_555
C15_2 C2_2 1_555 1_555
H9_2 C15_2 1_555 1_555
C16_3 N1_2 1_555 1_555
C17_3 N3_2 1_555 1_555
C28_2 C10_2 1_555 1_555
H12_2 C28_2 1_555 1_555
N9_3 N1_2 1_555 1_555
N10_3 H15_3 1_555 1_555
H16_3 N10_3 1_555 1_555
C33_3 N2_4 1_555 1_555
N11_3 N3_2 1_555 1_555
N12_3 H17_3 1_555 1_555
H18_3 N12_3 1_555 1_555
C34_3 N15_3 1_555 1_555
O14 Zn7_3 1_555 1_555
Zn5 N9_3 1_555 1_555
Zn4_2 O3_2 1_555 1_555
O16_2 Zn1_2 1_555 1_555
N2_4 C16_3 1_555 1_555
N5_3 C16_3 1_555 1_555
N6_3 C17_3 1_555 1_555
C8_2 C9_2 1_555 1_555
C13_2 C15_2 1_555 1_555
C24_2 C28_2 1_555 1_555
N9_3 C33_3 1_555 1_555
N10_3 C33_3 1_555 1_555
N11_3 C34_3 1_555 1_555
N11_3 Zn5 1_555 1_555
N12_3 C34_3 1_555 1_555
N2_5 Zn7 1_555 1_555
N10_4 H15_4 1_555 1_555
H16_4 N10_4 1_555 1_555
C33_4 N2_5 1_555 1_555
N12_4 H17_4 1_555 1_555
H18_4 N12_4 1_555 1_555
C34_4 N15 1_555 1_555
O14_2 Zn7 1_555 1_555
Zn6 N9_4 1_555 1_555
N9_4 C33_4 1_555 1_555
N10_4 C33_4 1_555 1_555
N11_4 C34_4 1_555 1_555
N11_4 Zn6 1_555 1_555
N12_4 C34_4 1_555 1_555
Zn7_2 O7_2 1_555 1_555
N2_6 Zn7_2 1_555 1_555
N15_2 C17_4 1_555 1_555
N5_4 H1_4 1_555 1_555
H2_4 N5_4 1_555 1_555
N6_4 H3_4 1_555 1_555
H4_4 N6_4 1_555 1_555
C16_4 N13_2 1_555 1_555
C17_4 N14_2 1_555 1_555
N2_6 C16_4 1_555 1_555
N5_4 C16_4 1_555 1_555
N6_4 C17_4 1_555 1_555
O15_2 C12_3 1_555 1_555
O4_3 C12_3 1_555 1_555
O5_3 C5_3 1_555 1_555
O6_3 C6_3 1_555 1_555
N7_3 C4_3 1_555 1_555
C2_3 C3_3 1_555 1_555
C4_3 C3_3 1_555 1_555
C5_3 N7_3 1_555 1_555
C6_3 N7_3 1_555 1_555
C7_3 C6_3 1_555 1_555
C8_3 C7_3 1_555 1_555
C9_3 C5_3 1_555 1_555
C10_3 C9_3 1_555 1_555
H6_3 C10_3 1_555 1_555
C11_3 C7_3 1_555 1_555
H7_3 C11_3 1_555 1_555
C12_3 C13_3 1_555 1_555
C13_3 C14_3 1_555 1_555
C14_3 C4_3 1_555 1_555
H8_3 C14_3 1_555 1_555
C15_3 C2_3 1_555 1_555
H9_3 C15_3 1_555 1_555
O16_2 C29_3 1_555 1_555
O11_3 C29_3 1_555 1_555
O12_3 C22_3 1_555 1_555
O13_3 C23_3 1_555 1_555
N8_3 C21_3 1_555 1_555
C19_3 C20_3 1_555 1_555
C21_3 C20_3 1_555 1_555
C22_3 N8_3 1_555 1_555
C23_3 N8_3 1_555 1_555
C24_3 C23_3 1_555 1_555
C25_3 C8_3 1_555 1_555
C26_3 C22_3 1_555 1_555
C27_3 C11_3 1_555 1_555
H11_3 C27_3 1_555 1_555
C28_3 C10_3 1_555 1_555
H12_3 C28_3 1_555 1_555
C29_3 C30_3 1_555 1_555
C30_3 C31_3 1_555 1_555
C31_3 C21_3 1_555 1_555
H13_3 C31_3 1_555 1_555
C32_3 C19_3 1_555 1_555
H14_3 C32_3 1_555 1_555
C8_3 C9_3 1_555 1_555
C13_3 C15_3 1_555 1_555
C24_3 C25_3 1_555 1_555
C24_3 C28_3 1_555 1_555
C25_3 C26_3 1_555 1_555
C26_3 C27_3 1_555 1_555
C30_3 C32_3 1_555 1_555
Zn4 O1_3 1_555 1_555
O1_3 C1_3 1_555 1_555
O2_3 C1_3 1_555 1_555
O8_3 C18_3 1_555 1_555
O9_3 C18_3 1_555 1_555
Zn4_2 O8_3 1_555 1_555
C11_4 C7_4 1_555 1_555
H7_4 C11_4 1_555 1_555
O8_4 C18_4 1_555 1_555
O9_4 C18_4 1_555 1_555
O16 C29_4 1_555 1_555
O11_4 C29_4 1_555 1_555
O12_4 C22_4 1_555 1_555
N8_4 C21_4 1_555 1_555
C18_4 C19_4 1_555 1_555
C19_4 C20_4 1_555 1_555
C20_4 H10_4 1_555 1_555
C21_4 C20_4 1_555 1_555
C22_4 N8_4 1_555 1_555
C23_4 N8_4 1_555 1_555
C26_4 C22_4 1_555 1_555
C27_4 C11_4 1_555 1_555
H11_4 C27_4 1_555 1_555
C29_4 C30_4 1_555 1_555
C30_4 C31_4 1_555 1_555
C31_4 C21_4 1_555 1_555
H13_4 C31_4 1_555 1_555
C32_4 C19_4 1_555 1_555
H14_4 C32_4 1_555 1_555
Zn6 O8_4 1_555 1_555
C25_4 C26_4 1_555 1_555
C26_4 C27_4 1_555 1_555
C30_4 C32_4 1_555 1_555
Zn5 O1_4 1_555 1_555
O1_4 C1_4 1_555 1_555
O2_4 C1_4 1_555 1_555
O15 C12_4 1_555 1_555
O4_4 C12_4 1_555 1_555
O5_4 C5_4 1_555 1_555
N7_4 C4_4 1_555 1_555
C1_4 C2_4 1_555 1_555
C2_4 C3_4 1_555 1_555
C3_4 H5_4 1_555 1_555
C4_4 C3_4 1_555 1_555
C5_4 N7_4 1_555 1_555
C6_4 N7_4 1_555 1_555
C9_4 C5_4 1_555 1_555
C10_4 C9_4 1_555 1_555
H6_4 C10_4 1_555 1_555
C12_4 C13_4 1_555 1_555
C13_4 C14_4 1_555 1_555
C14_4 C4_4 1_555 1_555
H8_4 C14_4 1_555 1_555
C15_4 C2_4 1_555 1_555
H9_4 C15_4 1_555 1_555
C28_4 C10_4 1_555 1_555
H12_4 C28_4 1_555 1_555
C8_4 C9_4 1_555 1_555
C13_4 C15_4 1_555 1_555
C24_4 C28_4 1_555 1_555
O7_3 H19 1_555 1_555
O7_3 H20 1_555 1_555
O14_3 H21 1_555 1_555
O14_3 H20_2 1_555 1_555
Zn1_3 O1_5 1_555 1_555
O1_5 C1_5 1_555 1_555
O2_5 C1_5 1_555 1_555
N1_3 Zn1_3 1_555 1_555
N3_3 Zn1_3 1_555 1_555
N4_4 C17_5 1_555 1_555
N6_5 H3_5 1_555 1_555
H4_5 N6_5 1_555 1_555
C16_5 N1_3 1_555 1_555
C17_5 N3_3 1_555 1_555
O8_5 C18_5 1_555 1_555
O9_5 C18_5 1_555 1_555
Zn3_3 O8_5 1_555 1_555
Zn7_4 N4_4 1_555 1_555
O15_3 Zn3_3 1_555 1_555
O16_3 Zn1_3 1_555 1_555
N13_3 Zn3_3 1_555 1_555
N14_3 Zn3_3 1_555 1_555
N6_5 C17_5 1_555 1_555
N12_5 H17_5 1_555 1_555
H18_5 N12_5 1_555 1_555
C34_5 N4_5 1_555 1_555
Zn4_3 N9_5 1_555 1_555
Zn7_5 N4_5 1_555 1_555
N9_5 C33_5 1_555 1_555
N11_5 C34_5 1_555 1_555
N11_5 Zn4_3 1_555 1_555
N12_5 C34_5 1_555 1_555
O3_3 C12_5 1_555 1_555
O4_5 C12_5 1_555 1_555
O5_5 C5_5 1_555 1_555
O6_5 C6_5 1_555 1_555
N2_7 Zn2_4 1_555 1_555
H2_5 N5_5 1_555 1_555
N7_5 C4_5 1_555 1_555
C2_5 C3_5 1_555 1_555
C4_5 C3_5 1_555 1_555
C5_5 N7_5 1_555 1_555
C6_5 N7_5 1_555 1_555
C7_5 C6_5 1_555 1_555
C8_5 C7_5 1_555 1_555
C9_5 C5_5 1_555 1_555
C10_5 C9_5 1_555 1_555
H6_5 C10_5 1_555 1_555
C11_5 C7_5 1_555 1_555
H7_5 C11_5 1_555 1_555
C12_5 C13_5 1_555 1_555
C13_5 C14_5 1_555 1_555
C14_5 C4_5 1_555 1_555
H8_5 C14_5 1_555 1_555
C15_5 C2_5 1_555 1_555
H9_5 C15_5 1_555 1_555
O10_3 C29_5 1_555 1_555
O11_5 C29_5 1_555 1_555
O12_5 C22_5 1_555 1_555
O13_5 C23_5 1_555 1_555
N8_5 C21_5 1_555 1_555
C19_5 C20_5 1_555 1_555
C21_5 C20_5 1_555 1_555
C22_5 N8_5 1_555 1_555
C23_5 N8_5 1_555 1_555
C24_5 C23_5 1_555 1_555
C25_5 C8_5 1_555 1_555
C26_5 C22_5 1_555 1_555
C27_5 C11_5 1_555 1_555
H11_5 C27_5 1_555 1_555
C28_5 C10_5 1_555 1_555
H12_5 C28_5 1_555 1_555
C29_5 C30_5 1_555 1_555
C30_5 C31_5 1_555 1_555
C31_5 C21_5 1_555 1_555
H13_5 C31_5 1_555 1_555
C32_5 C19_5 1_555 1_555
H14_5 C32_5 1_555 1_555
Zn5_2 O10_3 1_555 1_555
Zn6_2 O3_3 1_555 1_555
N15_4 Zn2_4 1_555 1_555
C8_5 C9_5 1_555 1_555
C13_5 C15_5 1_555 1_555
C24_5 C25_5 1_555 1_555
C24_5 C28_5 1_555 1_555
C25_5 C26_5 1_555 1_555
C26_5 C27_5 1_555 1_555
C30_5 C32_5 1_555 1_555
N2_8 Zn2_5 1_555 1_555
H16_5 N10_5 1_555 1_555
N15_5 Zn2_5 1_555 1_555
N4_6 C17_6 1_555 1_555
N6_6 H3_6 1_555 1_555
H4_6 N6_6 1_555 1_555
C16_6 N13_3 1_555 1_555
C17_6 N14_3 1_555 1_555
N9_6 N13_3 1_555 1_555
N11_6 N14_3 1_555 1_555
N12_6 H17_6 1_555 1_555
H18_6 N12_6 1_555 1_555
C34_6 N4_6 1_555 1_555
Zn4_4 N9_6 1_555 1_555
Zn7_6 N4_6 1_555 1_555
N6_6 C17_6 1_555 1_555
N9_6 C33_6 1_555 1_555
N11_6 C34_6 1_555 1_555
N11_6 Zn4_4 1_555 1_555
N12_6 C34_6 1_555 1_555
N2_9 Zn2_6 1_555 1_555
H2_6 N5_6 1_555 1_555
H16_6 N10_6 1_555 1_555
N15_6 Zn2_6 1_555 1_555
Zn1_4 O1_6 1_555 1_555
Zn7_6 O7_4 1_555 1_555
O1_6 C1_6 1_555 1_555
O2_6 C1_6 1_555 1_555
O3_4 C12_6 1_555 1_555
O4_6 C12_6 1_555 1_555
O5_6 C5_6 1_555 1_555
N1_4 Zn1_4 1_555 1_555
N2_10 Zn7_6 1_555 1_555
N3_4 Zn1_4 1_555 1_555
N15_6 C17_7 1_555 1_555
N5_7 H1_7 1_555 1_555
H2_7 N5_7 1_555 1_555
N6_7 H3_7 1_555 1_555
H4_7 N6_7 1_555 1_555
N7_6 C4_6 1_555 1_555
C1_6 C2_6 1_555 1_555
C2_6 C3_6 1_555 1_555
C3_6 H5_6 1_555 1_555
C4_6 C3_6 1_555 1_555
C5_6 N7_6 1_555 1_555
C6_6 N7_6 1_555 1_555
C9_6 C5_6 1_555 1_555
C10_6 C9_6 1_555 1_555
H6_6 C10_6 1_555 1_555
C12_6 C13_6 1_555 1_555
C13_6 C14_6 1_555 1_555
C14_6 C4_6 1_555 1_555
H8_6 C14_6 1_555 1_555
C15_6 C2_6 1_555 1_555
H9_6 C15_6 1_555 1_555
C16_7 N1_4 1_555 1_555
C17_7 N3_4 1_555 1_555
C28_6 C10_6 1_555 1_555
H12_6 C28_6 1_555 1_555
N9_7 N1_4 1_555 1_555
N10_7 H15_7 1_555 1_555
H16_7 N10_7 1_555 1_555
C33_7 N2_10 1_555 1_555
N11_7 N3_4 1_555 1_555
N12_7 H17_7 1_555 1_555
H18_7 N12_7 1_555 1_555
C34_7 N15_6 1_555 1_555
O14_4 Zn7_6 1_555 1_555
Zn5_2 N9_7 1_555 1_555
Zn4_4 O3_4 1_555 1_555
O16_4 Zn1_4 1_555 1_555
N2_10 C16_7 1_555 1_555
N5_7 C16_7 1_555 1_555
N6_7 C17_7 1_555 1_555
C8_6 C9_6 1_555 1_555
C13_6 C15_6 1_555 1_555
C24_6 C28_6 1_555 1_555
N9_7 C33_7 1_555 1_555
N10_7 C33_7 1_555 1_555
N11_7 C34_7 1_555 1_555
N11_7 Zn5_2 1_555 1_555
N12_7 C34_7 1_555 1_555
C11_6 C7_6 1_555 1_555
H7_6 C11_6 1_555 1_555
O8_6 C18_6 1_555 1_555
O9_6 C18_6 1_555 1_555
O10_4 C29_6 1_555 1_555
O11_6 C29_6 1_555 1_555
O12_6 C22_6 1_555 1_555
N8_6 C21_6 1_555 1_555
C18_6 C19_6 1_555 1_555
C19_6 C20_6 1_555 1_555
C20_6 H10_6 1_555 1_555
C21_6 C20_6 1_555 1_555
C22_6 N8_6 1_555 1_555
C23_6 N8_6 1_555 1_555
C26_6 C22_6 1_555 1_555
C27_6 C11_6 1_555 1_555
H11_6 C27_6 1_555 1_555
C29_6 C30_6 1_555 1_555
C30_6 C31_6 1_555 1_555
C31_6 C21_6 1_555 1_555
H13_6 C31_6 1_555 1_555
C32_6 C19_6 1_555 1_555
H14_6 C32_6 1_555 1_555
Zn3_4 O8_6 1_555 1_555
Zn4_3 O10_4 1_555 1_555
O15_4 Zn3_4 1_555 1_555
N13_4 Zn3_4 1_555 1_555
N14_4 Zn3_4 1_555 1_555
C25_6 C26_6 1_555 1_555
C26_6 C27_6 1_555 1_555
C30_6 C32_6 1_555 1_555
N2_11 Zn7_4 1_555 1_555
N10_8 H15_8 1_555 1_555
H16_8 N10_8 1_555 1_555
C33_8 N2_11 1_555 1_555
N12_8 H17_8 1_555 1_555
H18_8 N12_8 1_555 1_555
C34_8 N15_4 1_555 1_555
O14_5 Zn7_4 1_555 1_555
Zn6_2 N9_8 1_555 1_555
N9_8 C33_8 1_555 1_555
N10_8 C33_8 1_555 1_555
N11_8 C34_8 1_555 1_555
N11_8 Zn6_2 1_555 1_555
N12_8 C34_8 1_555 1_555
Zn7_5 O7_5 1_555 1_555
N2_12 Zn7_5 1_555 1_555
N15_5 C17_8 1_555 1_555
N5_8 H1_8 1_555 1_555
H2_8 N5_8 1_555 1_555
N6_8 H3_8 1_555 1_555
H4_8 N6_8 1_555 1_555
C16_8 N13_4 1_555 1_555
C17_8 N14_4 1_555 1_555
N2_12 C16_8 1_555 1_555
N5_8 C16_8 1_555 1_555
N6_8 C17_8 1_555 1_555
Zn4_3 O1_7 1_555 1_555
O1_7 C1_7 1_555 1_555
O2_7 C1_7 1_555 1_555
O8_7 C18_7 1_555 1_555
O9_7 C18_7 1_555 1_555
Zn4_4 O8_7 1_555 1_555
O15_4 C12_7 1_555 1_555
O4_7 C12_7 1_555 1_555
O5_7 C5_7 1_555 1_555
O6_7 C6_7 1_555 1_555
N7_7 C4_7 1_555 1_555
C2_7 C3_7 1_555 1_555
C4_7 C3_7 1_555 1_555
C5_7 N7_7 1_555 1_555
C6_7 N7_7 1_555 1_555
C7_7 C6_7 1_555 1_555
C8_7 C7_7 1_555 1_555
C9_7 C5_7 1_555 1_555
C10_7 C9_7 1_555 1_555
H6_7 C10_7 1_555 1_555
C11_7 C7_7 1_555 1_555
H7_7 C11_7 1_555 1_555
C12_7 C13_7 1_555 1_555
C13_7 C14_7 1_555 1_555
C14_7 C4_7 1_555 1_555
H8_7 C14_7 1_555 1_555
C15_7 C2_7 1_555 1_555
H9_7 C15_7 1_555 1_555
O16_4 C29_7 1_555 1_555
O11_7 C29_7 1_555 1_555
O12_7 C22_7 1_555 1_555
O13_7 C23_7 1_555 1_555
N8_7 C21_7 1_555 1_555
C19_7 C20_7 1_555 1_555
C21_7 C20_7 1_555 1_555
C22_7 N8_7 1_555 1_555
C23_7 N8_7 1_555 1_555
C24_7 C23_7 1_555 1_555
C25_7 C8_7 1_555 1_555
C26_7 C22_7 1_555 1_555
C27_7 C11_7 1_555 1_555
H11_7 C27_7 1_555 1_555
C28_7 C10_7 1_555 1_555
H12_7 C28_7 1_555 1_555
C29_7 C30_7 1_555 1_555
C30_7 C31_7 1_555 1_555
C31_7 C21_7 1_555 1_555
H13_7 C31_7 1_555 1_555
C32_7 C19_7 1_555 1_555
H14_7 C32_7 1_555 1_555
C8_7 C9_7 1_555 1_555
C13_7 C15_7 1_555 1_555
C24_7 C25_7 1_555 1_555
C24_7 C28_7 1_555 1_555
C25_7 C26_7 1_555 1_555
C26_7 C27_7 1_555 1_555
C30_7 C32_7 1_555 1_555
Zn5_2 O1_8 1_555 1_555
O1_8 C1_8 1_555 1_555
O2_8 C1_8 1_555 1_555
O15_3 C12_8 1_555 1_555
O4_8 C12_8 1_555 1_555
O5_8 C5_8 1_555 1_555
N7_8 C4_8 1_555 1_555
C1_8 C2_8 1_555 1_555
C2_8 C3_8 1_555 1_555
C3_8 H5_8 1_555 1_555
C4_8 C3_8 1_555 1_555
C5_8 N7_8 1_555 1_555
C6_8 N7_8 1_555 1_555
C9_8 C5_8 1_555 1_555
C10_8 C9_8 1_555 1_555
H6_8 C10_8 1_555 1_555
C12_8 C13_8 1_555 1_555
C13_8 C14_8 1_555 1_555
C14_8 C4_8 1_555 1_555
H8_8 C14_8 1_555 1_555
C15_8 C2_8 1_555 1_555
H9_8 C15_8 1_555 1_555
C28_8 C10_8 1_555 1_555
H12_8 C28_8 1_555 1_555
C8_8 C9_8 1_555 1_555
C13_8 C15_8 1_555 1_555
C24_8 C28_8 1_555 1_555
C11_8 C7_8 1_555 1_555
H7_8 C11_8 1_555 1_555
O8_8 C18_8 1_555 1_555
O9_8 C18_8 1_555 1_555
O16_3 C29_8 1_555 1_555
O11_8 C29_8 1_555 1_555
O12_8 C22_8 1_555 1_555
N8_8 C21_8 1_555 1_555
C18_8 C19_8 1_555 1_555
C19_8 C20_8 1_555 1_555
C20_8 H10_8 1_555 1_555
C21_8 C20_8 1_555 1_555
C22_8 N8_8 1_555 1_555
C23_8 N8_8 1_555 1_555
C26_8 C22_8 1_555 1_555
C27_8 C11_8 1_555 1_555
H11_8 C27_8 1_555 1_555
C29_8 C30_8 1_555 1_555
C30_8 C31_8 1_555 1_555
C31_8 C21_8 1_555 1_555
H13_8 C31_8 1_555 1_555
C32_8 C19_8 1_555 1_555
H14_8 C32_8 1_555 1_555
Zn6_2 O8_8 1_555 1_555
C25_8 C26_8 1_555 1_555
C26_8 C27_8 1_555 1_555
C30_8 C32_8 1_555 1_555
O7_6 H19_2 1_555 1_555
O7_6 H20_3 1_555 1_555
O14_6 H21_2 1_555 1_555
O14_6 H20_4 1_555 1_555
O7_7 H19_3 1_555 1_555
O7_7 H20_5 1_555 1_555
O14_7 H21_3 1_555 1_555
O14_7 H20_6 1_555 1_555
O7_8 H19_4 1_555 1_555
O7_8 H20_7 1_555 1_555
O14_8 H21_4 1_555 1_555
O14_8 H20_8 1_555 1_555

#END
