
###############################################################################
#
# This file contains modified crystal structure data generated from the
# MOF subset of the Cambridge Structural Database (CSD) v543 
# hosted by the Cambridge Crystallographic Data Centre (CCDC).
#
# This work is licensed under the Creative Commons
# Attribution-NonCommercial-ShareAlike 4.0 International License.
# To view a copy of this license, visit
# http://creativecommons.org/licenses/by-nc-sa/4.0/
# or send a letter to
# Creative Commons, PO Box 1866, Mountain View, CA 94042, USA.
#
# CIF created using the CSD Python API on 29 September 2022
# The structure has been converted into the P1 space group
# The structure has a 3D framework
# The original CSD entry LARNEA is in the triclinic crystal system
# The original CSD entry LARNEA is in a Sohncke space group
# The framework has been calculated to contain at least 10.0% void space
# The void calculation uses a probe of radius 1.32A, grid spacing 0.4
#
###############################################################################

data_LARNEA
_chemical_formula_moiety         '(C28 H24 Cd3 N2 O16)n'
_symmetry_cell_setting           triclinic
_symmetry_space_group_name_H-M   'P 1'
_symmetry_Int_Tables_number      1
_space_group_name_Hall           'P 1'
loop_
_symmetry_equiv_pos_site_id
_symmetry_equiv_pos_as_xyz
1 x,y,z
_cell_length_a                   9.4378(19)
_cell_length_b                   10.192(2)
_cell_length_c                   11.234(2)
_cell_angle_alpha                64.11(3)
_cell_angle_beta                 73.10(3)
_cell_angle_gamma                83.18(3)
_cell_volume                     930.118
loop_
_atom_site_label
_atom_site_type_symbol
_atom_site_fract_x
_atom_site_fract_y
_atom_site_fract_z
Cd7 Cd 0.05325(11) 0.16732(11) 0.29976(11)
Cd9 Cd 0.04773(6) 0.82151(5) 0.60892(5)
Cd11 Cd 0.07674(6) 0.50318(5) 0.98253(5)
O20 O 0.0779(10) 0.1619(12) 0.0879(10)
O2 O 0.2799(9) 0.0732(11) 0.2674(10)
C3 C 0.6077(13) 0.0651(13) 0.2043(15)
H1 H 0.5908 0.1211 0.1187
C4 C 0.7458(12) 0.0357(11) 0.2338(12)
H2 H 0.8380 0.0655 0.1711
O12 O 0.0439(10) 0.1691(8) 0.5064(9)
O15 O 0.0689(10) 0.6033(9) 0.5882(9)
C21 C 0.2856(15) 0.0376(15) 0.7342(14)
H7 H 0.3336 0.0273 0.6538
C22 C 0.2901(13) 0.1606(11) 0.7589(12)
H8 H 0.3414 0.2470 0.6968
C23 C 0.2057(12) 0.1320(11) 0.8904(11)
C24 C 0.1582(14) 0.2110(13) 0.9758(14)
O19 O 0.2017(10) 0.3455(9) 0.9071(10)
C7 C 0.2954(12) 0.4443(11) 0.1315(11)
C8 C 0.3967(12) 0.3940(14) 0.2231(13)
C9 C 0.3758(13) 0.3297(14) 0.3578(13)
H3 H 0.2849 0.3066 0.4235
C10 C 0.5135(13) 0.3028(12) 0.3834(12)
H4 H 0.5320 0.2585 0.4693
C11 C 0.6145(14) 0.3519(13) 0.2628(13)
C12 C 0.7770(14) 0.3564(14) 0.2223(14)
O6 O 0.1569(9) 0.4028(9) 0.1929(9)
O7 O 0.3423(10) 0.5232(11) 0.0090(9)
O8 O 0.5442(9) 0.4193(10) 0.1589(9)
O9 O 0.8425(9) 0.2867(10) 0.3143(9)
O10 O 0.8423(10) 0.4272(9) 0.0981(9)
O1 O 0.2760(10) 0.9111(14) 0.4853(12)
O3 O 0.5669(9) 0.9301(9) 0.4316(8)
O4 O 0.7578(11) 0.7967(11) 0.5885(11)
O5 O 0.9422(9) 0.9369(8) 0.4229(10)
C1 C 0.3336(11) 0.9878(13) 0.3669(13)
C2 C 0.5004(14) 0.9949(16) 0.3275(15)
C5 C 0.7178(13) 0.9523(13) 0.3767(12)
C6 C 0.8143(14) 0.8972(13) 0.4665(16)
C19 C 0.1510(13) 0.7929(14) 0.8761(14)
C20 C 0.1974(13) 0.9360(13) 0.8507(13)
O16 O 0.0658(10) 0.7214(9) 0.9954(10)
O17 O 0.2044(9) 0.7483(8) 0.7862(9)
O18 O 0.1483(10) 0.9886(8) 0.9484(9)
C13 C 0.9776(12) 0.0992(12) 0.6362(11)
C14 C 0.9389(13) 0.1912(12) 0.7150(12)
C15 C 0.8608(13) 0.1549(15) 0.8471(15)
H5 H 0.8152 0.0658 0.9099
C16 C 0.8629(14) 0.2808(11) 0.8700(12)
H6 H 0.8161 0.2929 0.9496
C17 C 0.9475(14) 0.3794(11) 0.7512(12)
C18 C 0.9989(14) 0.5349(11) 0.7048(12)
O13 O 0.9971(10) 0.3260(9) 0.6563(9)
O14 O 0.9630(10) 0.5870(9) 0.7940(9)
O11 O 0.9407(11) 0.9675(9) 0.7039(10)
N1 N 0.4923(13) 0.6171(12) 0.7040(14)
H9 H 0.4159 0.6346 0.7650
H10 H 0.5488 0.6985 0.6561
C25 C 0.4329(19) 0.5938(15) 0.610(2)
H11 H 0.3552 0.5218 0.6604
H12 H 0.5101 0.5604 0.5522
H13 H 0.3941 0.6837 0.5534
C26 C 0.583(2) 0.498(2) 0.7825(17)
H14 H 0.5338 0.4056 0.8178
H15 H 0.5933 0.5141 0.8574
H16 H 0.6786 0.4968 0.7228
C27 C 0.072(3) 0.710(2) 0.2636(18)
H19 H 0.0253 0.7957 0.2720
H20 H 0.1320 0.7358 0.1714
H21 H 0.1324 0.6671 0.3263
N2 N 0.946(2) 0.5940(19) 0.2994(17)
H17 H 0.8973 0.6334 0.2337
H18 H 0.9925 0.5146 0.2918
C28 C 0.848(2) 0.550(2) 0.416(2)
H22 H 0.8940 0.4880 0.4872
H23 H 0.7718 0.4966 0.4148
H24 H 0.8058 0.6327 0.4329
loop_
_geom_bond_atom_site_label_1
_geom_bond_atom_site_label_2
_geom_bond_site_symmetry_1
_geom_bond_site_symmetry_2
Cd7 O20 1_555 1_555
C3 H1 1_555 1_555
C4 C3 1_555 1_555
H2 C4 1_555 1_555
C21 H7 1_555 1_555
C22 C21 1_555 1_555
H8 C22 1_555 1_555
C23 C22 1_555 1_555
C24 C23 1_555 1_555
O19 C24 1_555 1_555
Cd7 O2 1_555 1_555
O12 Cd7 1_555 1_555
O15 Cd9 1_555 1_555
O19 Cd11 1_555 1_555
Cd7 O6 1_555 1_555
C7 C8 1_555 1_555
C8 C9 1_555 1_555
C9 H3 1_555 1_555
C10 C9 1_555 1_555
H4 C10 1_555 1_555
C11 C10 1_555 1_555
C12 C11 1_555 1_555
O6 C7 1_555 1_555
O8 C8 1_555 1_555
O9 C12 1_555 1_555
O10 C12 1_555 1_555
C7 O7 1_555 1_555
C11 O8 1_555 1_555
Cd9 O1 1_555 1_555
O1 C1 1_555 1_555
O3 C2 1_555 1_555
O4 C6 1_555 1_555
O5 C6 1_555 1_555
C1 C2 1_555 1_555
C5 O3 1_555 1_555
C6 C5 1_555 1_555
C19 C20 1_555 1_555
O16 Cd11 1_555 1_555
O17 Cd9 1_555 1_555
O18 C20 1_555 1_555
Cd11 O17 1_555 1_555
C19 O16 1_555 1_555
C19 O17 1_555 1_555
C13 C14 1_555 1_555
C14 C15 1_555 1_555
C15 H5 1_555 1_555
C16 C15 1_555 1_555
H6 C16 1_555 1_555
C17 C16 1_555 1_555
C18 C17 1_555 1_555
O13 C14 1_555 1_555
O14 C18 1_555 1_555
C17 O13 1_555 1_555
N1 H9 1_555 1_555
H10 N1 1_555 1_555
C25 N1 1_555 1_555
H11 C25 1_555 1_555
H12 C25 1_555 1_555
H13 C25 1_555 1_555
C26 N1 1_555 1_555
H14 C26 1_555 1_555
H15 C26 1_555 1_555
H16 C26 1_555 1_555
H19 C27 1_555 1_555
H20 C27 1_555 1_555
H21 C27 1_555 1_555
N2 H17 1_555 1_555
H18 N2 1_555 1_555
C28 N2 1_555 1_555
H22 C28 1_555 1_555
H23 C28 1_555 1_555
H24 C28 1_555 1_555

#END
