
###############################################################################
#
# This file contains modified crystal structure data generated from the
# MOF subset of the Cambridge Structural Database (CSD) v543 
# hosted by the Cambridge Crystallographic Data Centre (CCDC).
#
# This work is licensed under the Creative Commons
# Attribution-NonCommercial-ShareAlike 4.0 International License.
# To view a copy of this license, visit
# http://creativecommons.org/licenses/by-nc-sa/4.0/
# or send a letter to
# Creative Commons, PO Box 1866, Mountain View, CA 94042, USA.
#
# CIF created using the CSD Python API on 29 September 2022
# The structure has been converted into the P1 space group
# The structure has a 3D framework
# The original CSD entry LARPOL is in the monoclinic crystal system
# The framework has been calculated to contain at least 10.0% void space
# The void calculation uses a probe of radius 1.32A, grid spacing 0.4
# The framework is charged, counterions have been retained in the structure
# H atom positions have been added when not included in the experimental data
#
###############################################################################

data_LARPOL
_chemical_formula_moiety         '(C140 H144 Fe12 N8 O72)n'
_symmetry_cell_setting           triclinic
_symmetry_space_group_name_H-M   'P 1'
_symmetry_Int_Tables_number      1
_space_group_name_Hall           'P 1'
loop_
_symmetry_equiv_pos_site_id
_symmetry_equiv_pos_as_xyz
1 x,y,z
_cell_length_a                   18.1258(15)
_cell_length_b                   14.3712(12)
_cell_length_c                   26.6897(16)
_cell_angle_alpha                90
_cell_angle_beta                 131.776(3)
_cell_angle_gamma                90
_cell_volume                     5184.78
loop_
_atom_site_label
_atom_site_type_symbol
_atom_site_fract_x
_atom_site_fract_y
_atom_site_fract_z
O17 O 0.2021(5) 0.0874(5) 0.4688(4)
O18 O 0.0740(6) 0.1752(5) 0.3906(4)
C26 C 0.0424(7) 0.0390(7) 0.4251(5)
C27 C 0.1087(8) 0.1059(7) 0.4279(6)
Fe9 Fe 0.32519(11) 0.05234(10) 0.57478(8)
Fe12 Fe 0.24078(13) 0.19936(11) 0.43760(9)
O8 O 0.1323(6) 0.7633(5) 0.4789(4)
C23 C 0.0119(7) 0.8807(7) 0.4365(5)
C24 C 0.0687(7) 0.9449(7) 0.4376(5)
H9 H 0.1268 0.9252 0.4470
C25 C 0.0418(9) 0.7812(8) 0.4519(6)
Fe4 Fe 0.29179(11) 0.81523(10) 0.59072(8)
H34 H 0.013537 0.68839 0.481912
Fe1 Fe 0.70821(11) 0.18477(10) 0.40928(8)
Fe3 Fe 0.75922(13) 0.80064(11) 0.56240(9)
O1 O 0.6978(5) 0.3177(5) 0.3820(4)
O2 O 0.6984(5) 0.0920(5) 0.4638(4)
O3 O 0.6639(6) 0.8078(5) 0.3972(4)
O4 O 0.4408(6) 0.4930(5) 0.1730(4)
O5 O 0.6315(6) 0.2254(5) 0.4536(4)
O6 O 0.8001(6) 0.1227(5) 0.4008(4)
O7 O 0.7367(6) 0.7204(5) 0.4886(4)
O9 O 0.4220(6) 0.6458(5) 0.1813(4)
O11 O 0.3891(7) 0.1827(6) 0.4911(5)
O12 O 0.4286(6) 0.0762(6) 0.5666(4)
O16 O 0.8015(6) 0.3946(5) 0.4787(4)
O19 O 0.7851(11) 0.6745(9) 0.6139(7)
C2 C 0.9009(7) 0.0039(7) 0.4121(5)
C3 C 0.5396(8) 0.0988(7) 0.5501(6)
C5 C 0.5584(8) 0.1391(7) 0.5124(6)
H2 H 0.5163 0.1868 0.4810
C6 C 0.9582(8) 0.0672(7) 0.4113(5)
H3 H 0.9388 0.1307 0.4010
C7 C 0.4643(8) 0.5678(7) 0.2052(6)
C8 C 0.6025(9) 0.0312(8) 0.5969(6)
H4 H 0.5899 0.0047 0.6231
C9 C 0.6896(8) 0.7322(7) 0.4271(6)
C10 C 0.6391(8) 0.1096(7) 0.5204(6)
C11 C 0.5517(8) 0.5663(7) 0.2800(5)
C12 C 0.7013(9) 0.0395(8) 0.5669(6)
H5 H 0.7552 0.0182 0.5715
C13 C 0.7063(8) 0.5618(7) 0.4181(6)
H6 H 0.7583 0.5605 0.4655
C14 C 0.6595(8) 0.6451(7) 0.3867(6)
C15 C 0.6792(8) 0.4800(6) 0.3821(5)
C16 C 0.5831(8) 0.6461(7) 0.3185(6)
H7 H 0.5507 0.7033 0.2969
C17 C 0.6018(8) 0.4826(7) 0.3134(6)
H8 H 0.5819 0.4269 0.2881
C18 C 0.8168(8) 0.0363(8) 0.4063(5)
C19 C 0.6558(8) 0.1456(8) 0.4768(6)
C20 C 0.4448(9) 0.1224(8) 0.5353(7)
C21 C 0.6842(9) 0.0011(8) 0.6063(6)
C22 C 0.7300(9) 0.3915(7) 0.4170(6)
Fe5 Fe 0.29179(11) 0.68477(10) 0.09072(8)
Fe6 Fe 0.67481(11) 0.94766(10) 0.42522(8)
Fe7 Fe 0.32519(11) 0.44766(10) 0.07478(8)
O22 O 0.8677(6) 0.2367(5) 0.5211(4)
O23 O 0.5780(6) 0.1458(5) 0.3187(4)
O24 O 0.6109(7) 0.8173(6) 0.5089(5)
O26 O 0.7978(7) 0.8760(6) 0.6436(4)
O28 O 0.7979(5) 0.9126(5) 0.5312(4)
O29 O 0.9260(6) 0.8248(5) 0.6094(4)
H35 H 0.842248 0.641372 0.624647
H36 H 0.799758 0.688862 0.65616
O10 O 0.7717(6) 0.9750(5) 0.4102(4)
O14 O 0.9857(7) 0.7210(6) 0.4397(6)
O15 O 0.7596(9) 0.9127(9) 0.7043(6)
C1 C 0.9285(8) 0.9107(7) 0.4240(5)
H1 H 0.8891 0.8665 0.4236
C4 C 0.7523(10) 0.9236(10) 0.6548(7)
O21 O 0.5592(6) 0.9930(5) 0.3270(4)
O25 O 0.5714(6) 0.9238(6) 0.4334(4)
O3_2 O 0.3361(6) 0.3078(5) 0.1028(4)
O7_2 O 0.2633(6) 0.2204(5) 0.0114(4)
C7_2 C 0.5357(8) 0.0678(7) 0.2948(6)
C9_2 C 0.3104(8) 0.2322(7) 0.0729(6)
C11_2 C 0.4483(8) 0.0663(7) 0.2200(5)
C13_2 C 0.2937(8) 0.0618(7) 0.0819(6)
H6_2 H 0.2417 0.0605 0.0345
C14_2 C 0.3405(8) 0.1451(7) 0.1133(6)
C16_2 C 0.4169(8) 0.1461(7) 0.1815(6)
H7_2 H 0.4493 0.2033 0.2031
Fe3_2 Fe 0.24078(13) 0.30064(11) 0.93760(9)
O19_2 O 0.2149(11) 0.1745(9) 0.8861(7)
O24_2 O 0.3891(7) 0.3173(6) 0.9911(5)
O26_2 O 0.2022(7) 0.3760(6) 0.8564(4)
O28_2 O 0.2021(5) 0.4126(5) 0.9688(4)
O29_2 O 0.0740(6) 0.3248(5) 0.8906(4)
H35_2 H 0.157752 0.141372 0.875353
H36_2 H 0.200242 0.188862 0.84384
O1_2 O 0.3022(5) 0.8177(5) 0.1180(4)
O2_2 O 0.3016(5) 0.5920(5) 0.0362(4)
O5_2 O 0.3685(6) 0.7254(5) 0.0464(4)
O6_2 O 0.1999(6) 0.6227(5) 0.0992(4)
O10_2 O 0.2283(6) 0.4750(5) 0.0898(4)
O11_2 O 0.6109(7) 0.6827(6) 0.0089(5)
O14_2 O 0.0143(7) 0.2210(6) 0.0603(6)
O16_2 O 0.1985(6) 0.8946(5) 0.0213(4)
C1_2 C 0.0715(8) 0.4107(7) 0.0760(5)
H1_2 H 0.1109 0.3665 0.0764
C2_2 C 0.0991(7) 0.5039(7) 0.0879(5)
H2_2 H 0.4837 0.6868 0.0190
C6_2 C 0.0418(8) 0.5672(7) 0.0887(5)
H3_2 H 0.0612 0.6307 0.0990
C15_2 C 0.3208(8) 0.9800(6) 0.1179(5)
C17_2 C 0.3982(8) 0.9826(7) 0.1866(6)
H8_2 H 0.4181 0.9269 0.2119
C18_2 C 0.1832(8) 0.5363(8) 0.0937(5)
C19_2 C 0.3442(8) 0.6456(8) 0.0232(6)
C22_2 C 0.2700(9) 0.8915(7) 0.0830(6)
Fe10 Fe 0.75922(13) 0.69936(11) 0.06240(9)
O25_2 O 0.4286(6) 0.4238(6) 0.0666(4)
O12_2 O 0.5714(6) 0.5762(6) 0.9334(4)
O15_2 O 0.2404(9) 0.4127(9) 0.7957(6)
C3_2 C 0.4604(8) 0.5988(7) 0.9499(6)
C4_2 C 0.2477(10) 0.4236(10) 0.8452(7)
C5_2 C 0.4416(8) 0.6391(7) 0.9876(6)
C8_2 C 0.3975(9) 0.5312(8) 0.9031(6)
H4_2 H 0.4101 0.5047 0.8769
C10_2 C 0.3609(8) 0.6096(7) 0.9796(6)
C12_2 C 0.2987(9) 0.5395(8) 0.9331(6)
H5_2 H 0.2448 0.5182 0.9285
C20_2 C 0.5552(9) 0.6224(8) 0.9647(7)
C21_2 C 0.3158(9) 0.5011(8) 0.8937(6)
Fe8 Fe 0.67481(11) 0.55234(10) 0.92522(8)
O22_2 O 0.1323(6) 0.7367(5) 0.9789(4)
O8_2 O 0.8677(6) 0.2633(5) 0.0211(4)
O17_2 O 0.7979(5) 0.5874(5) 0.0312(4)
O18_2 O 0.9260(6) 0.6752(5) 0.1094(4)
C23_2 C 0.9881(7) 0.3807(7) 0.0635(5)
C24_2 C 0.9313(7) 0.4449(7) 0.0624(5)
H9_2 H 0.8732 0.4252 0.0530
C25_2 C 0.9582(9) 0.2812(8) 0.0481(6)
C26_2 C 0.9576(7) 0.5390(7) 0.0749(5)
C27_2 C 0.8913(8) 0.6059(7) 0.0721(6)
H34_2 H 0.986463 0.18839 0.0180882
Fe4_2 Fe 0.70821(11) 0.31523(10) 0.90928(8)
O10_3 O 0.2283(6) 0.0250(5) 0.5898(4)
O13 O 0.2022(7) 0.1240(6) 0.3564(4)
O14_3 O 0.0143(7) 0.2790(6) 0.5603(6)
O15_3 O 0.2404(9) 0.0873(9) 0.2957(6)
C1_3 C 0.0715(8) 0.0893(7) 0.5760(5)
H1_3 H 0.1109 0.1335 0.5764
C4_3 C 0.2477(10) 0.0764(10) 0.3452(7)
O20 O 0.3361(6) 0.1922(5) 0.6028(4)
O21_2 O 0.4408(6) 0.0070(5) 0.6730(4)
O1_3 O 0.3022(5) 0.6823(5) 0.6180(4)
O2_3 O 0.3016(5) 0.9080(5) 0.5362(4)
O4_2 O 0.5592(6) 0.5070(5) 0.8270(4)
O5_3 O 0.3685(6) 0.7746(5) 0.5464(4)
O6_3 O 0.1999(6) 0.8773(5) 0.5992(4)
O7_3 O 0.2633(6) 0.2796(5) 0.5114(4)
O9_2 O 0.5780(6) 0.3542(5) 0.8187(4)
O16_3 O 0.1985(6) 0.6054(5) 0.5213(4)
O19_3 O 0.2149(11) 0.3255(9) 0.3861(7)
C2_3 C 0.0991(7) 0.9961(7) 0.5879(5)
C3_3 C 0.4604(8) 0.9012(7) 0.4499(6)
C5_3 C 0.4416(8) 0.8609(7) 0.4876(6)
H2_3 H 0.4837 0.8132 0.5190
C6_3 C 0.0418(8) 0.9328(7) 0.5887(5)
H3_3 H 0.0612 0.8693 0.5990
C7_3 C 0.5357(8) 0.4322(7) 0.7948(6)
C8_3 C 0.3975(9) 0.9688(8) 0.4031(6)
H4_3 H 0.4101 0.9953 0.3769
C9_3 C 0.3104(8) 0.2678(7) 0.5729(6)
C10_3 C 0.3609(8) 0.8904(7) 0.4796(6)
C11_3 C 0.4483(8) 0.4337(7) 0.7200(5)
C12_3 C 0.2987(9) 0.9605(8) 0.4331(6)
H5_3 H 0.2448 0.9818 0.4285
C13_3 C 0.2937(8) 0.4382(7) 0.5819(6)
H6_3 H 0.2417 0.4395 0.5345
C14_3 C 0.3405(8) 0.3549(7) 0.6133(6)
C15_3 C 0.3208(8) 0.5200(6) 0.6179(5)
C16_3 C 0.4169(8) 0.3539(7) 0.6815(6)
H7_3 H 0.4493 0.2967 0.7031
C17_3 C 0.3982(8) 0.5174(7) 0.6866(6)
H8_3 H 0.4181 0.5731 0.7119
C18_3 C 0.1832(8) 0.9637(8) 0.5937(5)
C19_3 C 0.3442(8) 0.8544(8) 0.5232(6)
C20_3 C 0.5552(9) 0.8776(8) 0.4647(7)
C21_3 C 0.3158(9) 0.9989(8) 0.3937(6)
C22_3 C 0.2700(9) 0.6085(7) 0.5830(6)
O23_2 O 0.4220(6) 0.8542(5) 0.6813(4)
H35_3 H 0.157752 0.358628 0.375353
H36_3 H 0.200242 0.311138 0.34384
C23_3 C 0.9881(7) 0.1193(7) 0.5635(5)
C24_3 C 0.9313(7) 0.0551(7) 0.5624(5)
H9_3 H 0.8732 0.0748 0.5530
C25_3 C 0.9582(9) 0.2188(8) 0.5481(6)
H34_3 H 0.986463 0.31161 0.518088
C26_3 C 0.9576(7) 0.9610(7) 0.5749(5)
C27_3 C 0.8913(8) 0.8941(7) 0.5721(6)
C23_4 C 0.0119(7) 0.6193(7) 0.9365(5)
C24_4 C 0.0687(7) 0.5551(7) 0.9376(5)
H9_4 H 0.1268 0.5748 0.9470
C25_4 C 0.0418(9) 0.7188(8) 0.9519(6)
C26_4 C 0.0424(7) 0.4610(7) 0.9251(5)
C27_4 C 0.1087(8) 0.3941(7) 0.9279(6)
H34_4 H 0.013537 0.81161 0.981912
O13_2 O 0.7978(7) 0.6240(6) 0.1436(4)
O15_4 O 0.7596(9) 0.5873(9) 0.2043(6)
C3_4 C 0.5396(8) 0.4012(7) 0.0501(6)
C4_4 C 0.7523(10) 0.5764(10) 0.1548(7)
C5_4 C 0.5584(8) 0.3609(7) 0.0124(6)
C8_4 C 0.6025(9) 0.4688(8) 0.0969(6)
H4_4 H 0.5899 0.4953 0.1231
C10_4 C 0.6391(8) 0.3904(7) 0.0204(6)
C12_4 C 0.7013(9) 0.4605(8) 0.0669(6)
H5_4 H 0.7552 0.4818 0.0715
C20_4 C 0.4448(9) 0.3776(8) 0.0353(7)
C21_4 C 0.6842(9) 0.4989(8) 0.1063(6)
O1_4 O 0.6978(5) 0.1823(5) 0.8820(4)
O2_4 O 0.6984(5) 0.4080(5) 0.9638(4)
O5_4 O 0.6315(6) 0.2746(5) 0.9536(4)
O6_4 O 0.8001(6) 0.3773(5) 0.9008(4)
O10_4 O 0.7717(6) 0.5250(5) 0.9102(4)
O14_4 O 0.9857(7) 0.7790(6) 0.9397(6)
O16_4 O 0.8015(6) 0.1054(5) 0.9787(4)
C1_4 C 0.9285(8) 0.5893(7) 0.9240(5)
H1_4 H 0.8891 0.6335 0.9236
C2_4 C 0.9009(7) 0.4961(7) 0.9121(5)
H2_4 H 0.5163 0.3132 0.9810
C6_4 C 0.9582(8) 0.4328(7) 0.9113(5)
H3_4 H 0.9388 0.3693 0.9010
C15_4 C 0.6792(8) 0.0200(6) 0.8821(5)
C17_4 C 0.6018(8) 0.0174(7) 0.8134(6)
H8_4 H 0.5819 0.0731 0.7881
C18_4 C 0.8168(8) 0.4637(8) 0.9063(5)
C19_4 C 0.6558(8) 0.3544(8) 0.9768(6)
C22_4 C 0.7300(9) 0.1085(7) 0.9170(6)
O20_2 O 0.6639(6) 0.6922(5) 0.8972(4)
O19_4 O 0.7851(11) 0.8255(9) 0.1139(7)
H35_4 H 0.842248 0.858628 0.124647
H36_4 H 0.799758 0.811138 0.15616
O7_4 O 0.7367(6) 0.7796(5) 0.9886(4)
C7_4 C 0.4643(8) 0.9322(7) 0.7052(6)
C9_4 C 0.6896(8) 0.7678(7) 0.9271(6)
C11_4 C 0.5517(8) 0.9337(7) 0.7800(5)
C13_4 C 0.7063(8) 0.9382(7) 0.9181(6)
H6_4 H 0.7583 0.9395 0.9655
C14_4 C 0.6595(8) 0.8549(7) 0.8867(6)
C16_4 C 0.5831(8) 0.8539(7) 0.8185(6)
H7_4 H 0.5507 0.7967 0.7969
N1 N 0.3292(12) 0.3075(12) 0.2670(8)
C28 C 0.4106(15) 0.2514(16) 0.3243(10)
H10 H 0.4592 0.2924 0.3623
H11 H 0.4426 0.2167 0.3116
H12 H 0.3845 0.2077 0.3373
C29 C 0.3648(18) 0.3712(15) 0.2433(12)
H13 H 0.4115 0.4160 0.2788
H14 H 0.3085 0.4047 0.2033
H15 H 0.3980 0.3352 0.2320
C30 C 0.2768(17) 0.3597(16) 0.2832(12)
H16 H 0.3225 0.4038 0.3196
H17 H 0.2521 0.3160 0.2973
H18 H 0.2210 0.3938 0.2433
C31 C 0.2572(16) 0.2414(15) 0.2100(10)
H19 H 0.2913 0.2055 0.1994
H20 H 0.2030 0.2769 0.1703
H21 H 0.2303 0.1990 0.2231
N1_2 N 0.6708(12) 0.8075(12) 0.2330(8)
C28_2 C 0.5894(15) 0.7514(16) 0.1757(10)
H10_2 H 0.5408 0.7924 0.1377
H11_2 H 0.5574 0.7167 0.1884
H12_2 H 0.6155 0.7077 0.1627
C29_2 C 0.6352(18) 0.8712(15) 0.2567(12)
H13_2 H 0.5885 0.9160 0.2212
H14_2 H 0.6915 0.9047 0.2967
H15_2 H 0.6020 0.8352 0.2680
C30_2 C 0.7232(17) 0.8597(16) 0.2168(12)
H16_2 H 0.6775 0.9038 0.1804
H17_2 H 0.7479 0.8160 0.2027
H18_2 H 0.7790 0.8938 0.2567
C31_2 C 0.7428(16) 0.7414(15) 0.2900(10)
H19_2 H 0.7087 0.7055 0.3006
H20_2 H 0.7970 0.7769 0.3297
H21_2 H 0.7697 0.6990 0.2769
N1_3 N 0.6708(12) 0.6925(12) 0.7330(8)
C28_3 C 0.5894(15) 0.7486(16) 0.6757(10)
H10_3 H 0.5408 0.7076 0.6377
H11_3 H 0.5574 0.7833 0.6884
H12_3 H 0.6155 0.7923 0.6627
C29_3 C 0.6352(18) 0.6288(15) 0.7567(12)
H13_3 H 0.5885 0.5840 0.7212
H14_3 H 0.6915 0.5953 0.7967
H15_3 H 0.6020 0.6648 0.7680
C30_3 C 0.7232(17) 0.6403(16) 0.7168(12)
H16_3 H 0.6775 0.5962 0.6804
H17_3 H 0.7479 0.6840 0.7027
H18_3 H 0.7790 0.6062 0.7567
C31_3 C 0.7428(16) 0.7586(15) 0.7900(10)
H19_3 H 0.7087 0.7945 0.8006
H20_3 H 0.7970 0.7231 0.8297
H21_3 H 0.7697 0.8010 0.7769
N1_4 N 0.3292(12) 0.1925(12) 0.7670(8)
C28_4 C 0.4106(15) 0.2486(16) 0.8243(10)
H10_4 H 0.4592 0.2076 0.8623
H11_4 H 0.4426 0.2833 0.8116
H12_4 H 0.3845 0.2923 0.8373
C29_4 C 0.3648(18) 0.1288(15) 0.7433(12)
H13_4 H 0.4115 0.0840 0.7788
H14_4 H 0.3085 0.0953 0.7033
H15_4 H 0.3980 0.1648 0.7320
C30_4 C 0.2768(17) 0.1403(16) 0.7832(12)
H16_4 H 0.3225 0.0962 0.8196
H17_4 H 0.2521 0.1840 0.7973
H18_4 H 0.2210 0.1062 0.7433
C31_4 C 0.2572(16) 0.2586(15) 0.7100(10)
H19_4 H 0.2913 0.2945 0.6994
H20_4 H 0.2030 0.2231 0.6703
H21_4 H 0.2303 0.3010 0.7231
N2 N 0.3338(11) 0.7024(11) 0.2926(8)
C32 C 0.3725(17) 0.7814(14) 0.2793(12)
H22 H 0.4271 0.7594 0.2829
H23 H 0.3964 0.8309 0.3123
H24 H 0.3195 0.8058 0.2340
C33 C 0.2974(17) 0.6233(14) 0.2439(10)
H25 H 0.3516 0.6010 0.2471
H26 H 0.2428 0.6450 0.1980
H27 H 0.2743 0.5724 0.2548
C34 C 0.4146(14) 0.6640(17) 0.3631(8)
H28 H 0.4699 0.6418 0.3676
H29 H 0.3881 0.6123 0.3709
H30 H 0.4378 0.7132 0.3961
C35 C 0.2478(14) 0.7367(16) 0.2857(12)
H31 H 0.1959 0.7620 0.2405
H32 H 0.2712 0.7854 0.3191
H33 H 0.2211 0.6847 0.2931
N2_2 N 0.6662(11) 0.2024(11) 0.2074(8)
C32_2 C 0.6275(17) 0.2814(14) 0.2207(12)
H22_2 H 0.5729 0.2594 0.2171
H23_2 H 0.6036 0.3309 0.1877
H24_2 H 0.6805 0.3058 0.2660
C33_2 C 0.7026(17) 0.1233(14) 0.2561(10)
H25_2 H 0.6484 0.1010 0.2529
H26_2 H 0.7572 0.1450 0.3020
H27_2 H 0.7257 0.0724 0.2452
C34_2 C 0.5854(14) 0.1640(17) 0.1369(8)
H28_2 H 0.5301 0.1418 0.1324
H29_2 H 0.6119 0.1123 0.1291
H30_2 H 0.5622 0.2132 0.1039
C35_2 C 0.7522(14) 0.2367(16) 0.2143(12)
H31_2 H 0.8041 0.2620 0.2595
H32_2 H 0.7288 0.2854 0.1809
H33_2 H 0.7789 0.1847 0.2069
N2_3 N 0.6662(11) 0.2976(11) 0.7074(8)
C32_3 C 0.6275(17) 0.2186(14) 0.7207(12)
H22_3 H 0.5729 0.2406 0.7171
H23_3 H 0.6036 0.1691 0.6877
H24_3 H 0.6805 0.1942 0.7660
C33_3 C 0.7026(17) 0.3767(14) 0.7561(10)
H25_3 H 0.6484 0.3990 0.7529
H26_3 H 0.7572 0.3550 0.8020
H27_3 H 0.7257 0.4276 0.7452
C34_3 C 0.5854(14) 0.3360(17) 0.6369(8)
H28_3 H 0.5301 0.3582 0.6324
H29_3 H 0.6119 0.3877 0.6291
H30_3 H 0.5622 0.2868 0.6039
C35_3 C 0.7522(14) 0.2633(16) 0.7143(12)
H31_3 H 0.8041 0.2380 0.7595
H32_3 H 0.7288 0.2146 0.6809
H33_3 H 0.7789 0.3153 0.7069
N2_4 N 0.3338(11) 0.7976(11) 0.7926(8)
C32_4 C 0.3725(17) 0.7186(14) 0.7793(12)
H22_4 H 0.4271 0.7406 0.7829
H23_4 H 0.3964 0.6691 0.8123
H24_4 H 0.3195 0.6942 0.7340
C33_4 C 0.2974(17) 0.8767(14) 0.7439(10)
H25_4 H 0.3516 0.8990 0.7471
H26_4 H 0.2428 0.8550 0.6980
H27_4 H 0.2743 0.9276 0.7548
C34_4 C 0.4146(14) 0.8360(17) 0.8631(8)
H28_4 H 0.4699 0.8582 0.8676
H29_4 H 0.3881 0.8877 0.8709
H30_4 H 0.4378 0.7868 0.8961
C35_4 C 0.2478(14) 0.7633(16) 0.7857(12)
H31_4 H 0.1959 0.7380 0.7405
H32_4 H 0.2712 0.7146 0.8191
H33_4 H 0.2211 0.8153 0.7931
loop_
_geom_bond_atom_site_label_1
_geom_bond_atom_site_label_2
_geom_bond_site_symmetry_1
_geom_bond_site_symmetry_2
O17 C27 1_555 1_555
O18 C27 1_555 1_555
C27 C26 1_555 1_555
Fe9 O17 1_555 1_555
Fe12 O17 1_555 1_555
O18 Fe12 1_555 1_555
O8 C25 1_555 1_555
C24 C23 1_555 1_555
H9 C24 1_555 1_555
C25 C23 1_555 1_555
Fe4 O8 1_555 1_555
Fe1 O1 1_555 1_555
Fe3 O7 1_555 1_555
O1 C22 1_555 1_555
O2 Fe1 1_555 1_555
O3 C9 1_555 1_555
O4 C7 1_555 1_555
O5 Fe1 1_555 1_555
O6 Fe1 1_555 1_555
O7 C9 1_555 1_555
O9 C7 1_555 1_555
O11 C20 1_555 1_555
O12 C20 1_555 1_555
O16 C22 1_555 1_555
O19 Fe3 1_555 1_555
C3 C5 1_555 1_555
C5 H2 1_555 1_555
C6 C2 1_555 1_555
H3 C6 1_555 1_555
C7 C11 1_555 1_555
C8 C3 1_555 1_555
H4 C8 1_555 1_555
C9 C14 1_555 1_555
C10 C5 1_555 1_555
C11 C16 1_555 1_555
C12 C10 1_555 1_555
H5 C12 1_555 1_555
C13 H6 1_555 1_555
C14 C13 1_555 1_555
C15 C13 1_555 1_555
C16 C14 1_555 1_555
H7 C16 1_555 1_555
C17 C11 1_555 1_555
H8 C17 1_555 1_555
C18 O6 1_555 1_555
C19 O2 1_555 1_555
C20 C3 1_555 1_555
C21 C8 1_555 1_555
C22 C15 1_555 1_555
Fe5 O9 1_555 1_555
Fe6 O3 1_555 1_555
Fe7 O4 1_555 1_555
Fe9 O12 1_555 1_555
Fe12 O11 1_555 1_555
O22 Fe1 1_555 1_555
O23 Fe1 1_555 1_555
O24 Fe3 1_555 1_555
O26 Fe3 1_555 1_555
O28 Fe3 1_555 1_555
O29 Fe3 1_555 1_555
O5 C19 1_555 1_555
C2 C18 1_555 1_555
C10 C19 1_555 1_555
C12 C21 1_555 1_555
C15 C17 1_555 1_555
Fe6 O28 1_555 1_555
O19 H35 1_555 1_555
O19 H36 1_555 1_555
O10 Fe6 1_555 1_555
O26 C4 1_555 1_555
O15 C4 1_555 1_555
C1 H1 1_555 1_555
O21 Fe6 1_555 1_555
O25 Fe6 1_555 1_555
O3_2 C9_2 1_555 1_555
O7_2 C9_2 1_555 1_555
O23 C7_2 1_555 1_555
C7_2 C11_2 1_555 1_555
C9_2 C14_2 1_555 1_555
C11_2 C16_2 1_555 1_555
C13_2 H6_2 1_555 1_555
C14_2 C13_2 1_555 1_555
C16_2 C14_2 1_555 1_555
H7_2 C16_2 1_555 1_555
Fe7 O3_2 1_555 1_555
O19_2 Fe3_2 1_555 1_555
O24_2 Fe3_2 1_555 1_555
O26_2 Fe3_2 1_555 1_555
O28_2 Fe3_2 1_555 1_555
O29_2 Fe3_2 1_555 1_555
O19_2 H35_2 1_555 1_555
O19_2 H36_2 1_555 1_555
Fe5 O1_2 1_555 1_555
Fe7 O2_2 1_555 1_555
O1_2 C22_2 1_555 1_555
O2_2 Fe5 1_555 1_555
O5_2 Fe5 1_555 1_555
O6_2 Fe5 1_555 1_555
O10_2 Fe7 1_555 1_555
O16_2 C22_2 1_555 1_555
C1_2 H1_2 1_555 1_555
C2_2 C1_2 1_555 1_555
C6_2 C2_2 1_555 1_555
H3_2 C6_2 1_555 1_555
H8_2 C17_2 1_555 1_555
C18_2 O6_2 1_555 1_555
C19_2 O2_2 1_555 1_555
C22_2 C15_2 1_555 1_555
Fe10 O11_2 1_555 1_555
O25_2 Fe7 1_555 1_555
O5_2 C19_2 1_555 1_555
O10_2 C18_2 1_555 1_555
C2_2 C18_2 1_555 1_555
C15_2 C17_2 1_555 1_555
O12_2 C20_2 1_555 1_555
O26_2 C4_2 1_555 1_555
O15_2 C4_2 1_555 1_555
C3_2 C5_2 1_555 1_555
C4_2 C21_2 1_555 1_555
C8_2 C3_2 1_555 1_555
H4_2 C8_2 1_555 1_555
C10_2 C5_2 1_555 1_555
C12_2 C10_2 1_555 1_555
H5_2 C12_2 1_555 1_555
C20_2 C3_2 1_555 1_555
C21_2 C8_2 1_555 1_555
Fe8 O12_2 1_555 1_555
C12_2 C21_2 1_555 1_555
O8_2 C25_2 1_555 1_555
O17_2 C27_2 1_555 1_555
O18_2 C27_2 1_555 1_555
C24_2 C23_2 1_555 1_555
H9_2 C24_2 1_555 1_555
C25_2 C23_2 1_555 1_555
C27_2 C26_2 1_555 1_555
Fe10 O17_2 1_555 1_555
O18_2 Fe10 1_555 1_555
C24_2 C26_2 1_555 1_555
O10_3 Fe9 1_555 1_555
O13 C4_3 1_555 1_555
O15_3 C4_3 1_555 1_555
C1_3 H1_3 1_555 1_555
Fe12 O13 1_555 1_555
O20 Fe9 1_555 1_555
O21_2 Fe9 1_555 1_555
Fe4 O1_3 1_555 1_555
Fe12 O7_3 1_555 1_555
O1_3 C22_3 1_555 1_555
O2_3 Fe4 1_555 1_555
O20 C9_3 1_555 1_555
O4_2 C7_3 1_555 1_555
O5_3 Fe4 1_555 1_555
O6_3 Fe4 1_555 1_555
O7_3 C9_3 1_555 1_555
O9_2 C7_3 1_555 1_555
O24 C20_3 1_555 1_555
O25 C20_3 1_555 1_555
O16_3 C22_3 1_555 1_555
O19_3 Fe12 1_555 1_555
C3_3 C5_3 1_555 1_555
C5_3 H2_3 1_555 1_555
C6_3 C2_3 1_555 1_555
H3_3 C6_3 1_555 1_555
C7_3 C11_3 1_555 1_555
C8_3 C3_3 1_555 1_555
H4_3 C8_3 1_555 1_555
C9_3 C14_3 1_555 1_555
C10_3 C5_3 1_555 1_555
C11_3 C16_3 1_555 1_555
C12_3 C10_3 1_555 1_555
H5_3 C12_3 1_555 1_555
C13_3 H6_3 1_555 1_555
C14_3 C13_3 1_555 1_555
C15_3 C13_3 1_555 1_555
C16_3 C14_3 1_555 1_555
H7_3 C16_3 1_555 1_555
C17_3 C11_3 1_555 1_555
H8_3 C17_3 1_555 1_555
C18_3 O6_3 1_555 1_555
C19_3 O2_3 1_555 1_555
C20_3 C3_3 1_555 1_555
C21_3 C8_3 1_555 1_555
C22_3 C15_3 1_555 1_555
Fe4_2 O9_2 1_555 1_555
Fe8 O4_2 1_555 1_555
O23_2 Fe4 1_555 1_555
O5_3 C19_3 1_555 1_555
C2_3 C18_3 1_555 1_555
C10_3 C19_3 1_555 1_555
C12_3 C21_3 1_555 1_555
C15_3 C17_3 1_555 1_555
O19_3 H35_3 1_555 1_555
O19_3 H36_3 1_555 1_555
O22 C25_3 1_555 1_555
C24_3 C23_3 1_555 1_555
H9_3 C24_3 1_555 1_555
C25_3 C23_3 1_555 1_555
O28 C27_3 1_555 1_555
O29 C27_3 1_555 1_555
C27_3 C26_3 1_555 1_555
O22_2 C25_4 1_555 1_555
O28_2 C27_4 1_555 1_555
O29_2 C27_4 1_555 1_555
C24_4 C23_4 1_555 1_555
H9_4 C24_4 1_555 1_555
C25_4 C23_4 1_555 1_555
C27_4 C26_4 1_555 1_555
C24_4 C26_4 1_555 1_555
O25_2 C20_4 1_555 1_555
O13_2 C4_4 1_555 1_555
O15_4 C4_4 1_555 1_555
C3_4 C5_4 1_555 1_555
C4_4 C21_4 1_555 1_555
C8_4 C3_4 1_555 1_555
H4_4 C8_4 1_555 1_555
C10_4 C5_4 1_555 1_555
C12_4 C10_4 1_555 1_555
H5_4 C12_4 1_555 1_555
C20_4 C3_4 1_555 1_555
C21_4 C8_4 1_555 1_555
Fe10 O13_2 1_555 1_555
C12_4 C21_4 1_555 1_555
Fe4_2 O1_4 1_555 1_555
Fe8 O2_4 1_555 1_555
O1_4 C22_4 1_555 1_555
O2_4 Fe4_2 1_555 1_555
O5_4 Fe4_2 1_555 1_555
O6_4 Fe4_2 1_555 1_555
O10_4 Fe8 1_555 1_555
O16_4 C22_4 1_555 1_555
C1_4 H1_4 1_555 1_555
C2_4 C1_4 1_555 1_555
C6_4 C2_4 1_555 1_555
H3_4 C6_4 1_555 1_555
H8_4 C17_4 1_555 1_555
C18_4 O6_4 1_555 1_555
C19_4 O2_4 1_555 1_555
C22_4 C15_4 1_555 1_555
O20_2 Fe8 1_555 1_555
O5_4 C19_4 1_555 1_555
O10_4 C18_4 1_555 1_555
C2_4 C18_4 1_555 1_555
C15_4 C17_4 1_555 1_555
O19_4 Fe10 1_555 1_555
O19_4 H35_4 1_555 1_555
O19_4 H36_4 1_555 1_555
O20_2 C9_4 1_555 1_555
O7_4 C9_4 1_555 1_555
O23_2 C7_4 1_555 1_555
C7_4 C11_4 1_555 1_555
C9_4 C14_4 1_555 1_555
C11_4 C16_4 1_555 1_555
C13_4 H6_4 1_555 1_555
C14_4 C13_4 1_555 1_555
C16_4 C14_4 1_555 1_555
H7_4 C16_4 1_555 1_555
N1 C28 1_555 1_555
C28 H10 1_555 1_555
H11 C28 1_555 1_555
H12 C28 1_555 1_555
C29 N1 1_555 1_555
H13 C29 1_555 1_555
H14 C29 1_555 1_555
H15 C29 1_555 1_555
C30 N1 1_555 1_555
H16 C30 1_555 1_555
H17 C30 1_555 1_555
H18 C30 1_555 1_555
C31 N1 1_555 1_555
H19 C31 1_555 1_555
H20 C31 1_555 1_555
H21 C31 1_555 1_555
N1_2 C28_2 1_555 1_555
C28_2 H10_2 1_555 1_555
H11_2 C28_2 1_555 1_555
H12_2 C28_2 1_555 1_555
C29_2 N1_2 1_555 1_555
H13_2 C29_2 1_555 1_555
H14_2 C29_2 1_555 1_555
H15_2 C29_2 1_555 1_555
C30_2 N1_2 1_555 1_555
H16_2 C30_2 1_555 1_555
H17_2 C30_2 1_555 1_555
H18_2 C30_2 1_555 1_555
C31_2 N1_2 1_555 1_555
H19_2 C31_2 1_555 1_555
H20_2 C31_2 1_555 1_555
H21_2 C31_2 1_555 1_555
N1_3 C28_3 1_555 1_555
C28_3 H10_3 1_555 1_555
H11_3 C28_3 1_555 1_555
H12_3 C28_3 1_555 1_555
C29_3 N1_3 1_555 1_555
H13_3 C29_3 1_555 1_555
H14_3 C29_3 1_555 1_555
H15_3 C29_3 1_555 1_555
C30_3 N1_3 1_555 1_555
H16_3 C30_3 1_555 1_555
H17_3 C30_3 1_555 1_555
H18_3 C30_3 1_555 1_555
C31_3 N1_3 1_555 1_555
H19_3 C31_3 1_555 1_555
H20_3 C31_3 1_555 1_555
H21_3 C31_3 1_555 1_555
N1_4 C28_4 1_555 1_555
C28_4 H10_4 1_555 1_555
H11_4 C28_4 1_555 1_555
H12_4 C28_4 1_555 1_555
C29_4 N1_4 1_555 1_555
H13_4 C29_4 1_555 1_555
H14_4 C29_4 1_555 1_555
H15_4 C29_4 1_555 1_555
C30_4 N1_4 1_555 1_555
H16_4 C30_4 1_555 1_555
H17_4 C30_4 1_555 1_555
H18_4 C30_4 1_555 1_555
C31_4 N1_4 1_555 1_555
H19_4 C31_4 1_555 1_555
H20_4 C31_4 1_555 1_555
H21_4 C31_4 1_555 1_555
N2 C32 1_555 1_555
C32 H22 1_555 1_555
H23 C32 1_555 1_555
H24 C32 1_555 1_555
C33 N2 1_555 1_555
H25 C33 1_555 1_555
H26 C33 1_555 1_555
H27 C33 1_555 1_555
C34 N2 1_555 1_555
H28 C34 1_555 1_555
H29 C34 1_555 1_555
H30 C34 1_555 1_555
C35 N2 1_555 1_555
H31 C35 1_555 1_555
H32 C35 1_555 1_555
H33 C35 1_555 1_555
N2_2 C32_2 1_555 1_555
C32_2 H22_2 1_555 1_555
H23_2 C32_2 1_555 1_555
H24_2 C32_2 1_555 1_555
C33_2 N2_2 1_555 1_555
H25_2 C33_2 1_555 1_555
H26_2 C33_2 1_555 1_555
H27_2 C33_2 1_555 1_555
C34_2 N2_2 1_555 1_555
H28_2 C34_2 1_555 1_555
H29_2 C34_2 1_555 1_555
H30_2 C34_2 1_555 1_555
C35_2 N2_2 1_555 1_555
H31_2 C35_2 1_555 1_555
H32_2 C35_2 1_555 1_555
H33_2 C35_2 1_555 1_555
N2_3 C32_3 1_555 1_555
C32_3 H22_3 1_555 1_555
H23_3 C32_3 1_555 1_555
H24_3 C32_3 1_555 1_555
C33_3 N2_3 1_555 1_555
H25_3 C33_3 1_555 1_555
H26_3 C33_3 1_555 1_555
H27_3 C33_3 1_555 1_555
C34_3 N2_3 1_555 1_555
H28_3 C34_3 1_555 1_555
H29_3 C34_3 1_555 1_555
H30_3 C34_3 1_555 1_555
C35_3 N2_3 1_555 1_555
H31_3 C35_3 1_555 1_555
H32_3 C35_3 1_555 1_555
H33_3 C35_3 1_555 1_555
N2_4 C32_4 1_555 1_555
C32_4 H22_4 1_555 1_555
H23_4 C32_4 1_555 1_555
H24_4 C32_4 1_555 1_555
C33_4 N2_4 1_555 1_555
H25_4 C33_4 1_555 1_555
H26_4 C33_4 1_555 1_555
H27_4 C33_4 1_555 1_555
C34_4 N2_4 1_555 1_555
H28_4 C34_4 1_555 1_555
H29_4 C34_4 1_555 1_555
H30_4 C34_4 1_555 1_555
C35_4 N2_4 1_555 1_555
H31_4 C35_4 1_555 1_555
H32_4 C35_4 1_555 1_555
H33_4 C35_4 1_555 1_555

#END
