
###############################################################################
#
# This file contains modified crystal structure data generated from the
# MOF subset of the Cambridge Structural Database (CSD) v543 
# hosted by the Cambridge Crystallographic Data Centre (CCDC).
#
# This work is licensed under the Creative Commons
# Attribution-NonCommercial-ShareAlike 4.0 International License.
# To view a copy of this license, visit
# http://creativecommons.org/licenses/by-nc-sa/4.0/
# or send a letter to
# Creative Commons, PO Box 1866, Mountain View, CA 94042, USA.
#
# CIF created using the CSD Python API on 29 September 2022
# The structure has been converted into the P1 space group
# The structure has a 3D framework
# The original CSD entry LARPEC is in the orthorhombic crystal system
# The framework has been calculated to contain at least 10.0% void space
# The void calculation uses a probe of radius 1.32A, grid spacing 0.4
#
###############################################################################

data_LARPEC
_chemical_formula_moiety         '(C256 H248 N24 O152 Zn32)n'
_symmetry_cell_setting           triclinic
_symmetry_space_group_name_H-M   'P 1'
_symmetry_Int_Tables_number      1
_space_group_name_Hall           'P 1'
loop_
_symmetry_equiv_pos_site_id
_symmetry_equiv_pos_as_xyz
1 x,y,z
_cell_length_a                   19.053(2)
_cell_length_b                   18.8010(6)
_cell_length_c                   22.9434(8)
_cell_angle_alpha                90
_cell_angle_beta                 90
_cell_angle_gamma                90
_cell_volume                     8218.68
loop_
_atom_site_label
_atom_site_type_symbol
_atom_site_fract_x
_atom_site_fract_y
_atom_site_fract_z
Zn4 Zn 0.25461(7) 0.10766(5) 0.46896(4)
C3 C 0.2541(5) 0.0377(3) 0.2907(3)
C4 C 0.2509(5) 0.0526(3) 0.2315(3)
H2 H 0.2517 0.0064 0.1526
C8 C 0.2576(5) 0.0930(3) 0.3386(3)
C9 C 0.2396(5) 0.1270(3) 0.2067(3)
C24 C 0.1149(14) 0.0367(10) 0.5528(11)
H11 H 0.1546 0.0679 0.5494
H12 H 0.1045 0.0288 0.5932
H13 H 0.0751 0.0580 0.5340
O5 O 0.2778(4) 0.1538(2) 0.3245(2)
O6 O 0.2410(4) 0.0736(3) 0.3884(2)
O7 O 0.2817(4) 0.1451(2) 0.1667(2)
O8 O 0.1884(4) 0.1614(2) 0.2246(2)
O17 O 0.2371(6) 0.0203(4) 0.5092(4)
Zn5 Zn 0.14557(6) 0.26280(4) 0.21658(3)
Zn8 Zn 0.27163(6) 0.23772(4) 0.37421(3)
Zn10 Zn 0.27136(6) 0.23381(4) 0.12111(3)
O24 O 0.3481(4) 0.1411(3) 0.4847(2)
O26 O 0.1746(4) 0.1689(3) 0.4831(3)
Zn1 Zn 0.35443(6) 0.76280(4) 0.21658(3)
Zn2 Zn 0.22837(6) 0.73772(4) 0.37421(3)
Zn3 Zn 0.22864(6) 0.73381(4) 0.12111(3)
C1 C 0.2561(5) 0.9102(3) 0.2693(3)
C2 C 0.2567(5) 0.9669(3) 0.3087(3)
H1 H 0.2589 0.9570 0.3484
C5 C 0.2521(5) 0.9962(3) 0.1922(3)
C6 C 0.2538(5) 0.9256(3) 0.2095(3)
C7 C 0.2557(6) 0.8381(3) 0.2979(3)
C10 C 0.2495(5) 0.8694(3) 0.1628(3)
C11 C 0.4280(6) 0.7285(4) 0.0386(3)
C12 C 0.4961(6) 0.7135(4) 0.0539(3)
H3 H 0.5064 0.7042 0.0928
C13 C 0.5498(5) 0.7116(4) 0.0136(3)
C17 C 0.3713(6) 0.7300(4) 0.0837(3)
C18 C 0.6219(6) 0.6953(4) 0.0356(3)
C21 C 0.2009(16) 0.9617(11) 0.5069(7)
C22 C 0.2147(16) 0.8930(6) 0.4781(8)
H5 H 0.2631 0.8909 0.4663
H6 H 0.1852 0.8886 0.4444
H7 H 0.2050 0.8549 0.5047
C23 C 0.0778(19) 0.9104(13) 0.5189(15)
H8 H 0.0964 0.8706 0.4976
H9 H 0.0377 0.9290 0.4987
H10 H 0.0641 0.8952 0.5572
C25 C 0.4536(11) 0.8820(6) 0.2351(7)
C26 C 0.4515(9) 0.8929(7) 0.3008(5)
H14 H 0.4052 0.8826 0.3151
H15 H 0.4633 0.9413 0.3098
H16 H 0.4847 0.8617 0.3191
C27 C 0.5774(11) 0.9155(9) 0.2464(9)
H17 H 0.5627 0.9231 0.2859
H18 H 0.5970 0.9586 0.2310
H19 H 0.6122 0.8785 0.2454
C28 C 0.5219(10) 0.8809(9) 0.1483(6)
H20 H 0.4760 0.8706 0.1332
H21 H 0.5522 0.8410 0.1414
H22 H 0.5405 0.9221 0.1291
C29 C 0.4903(9) 0.6854(7) 0.2658(5)
C30 C 0.5626(10) 0.7037(7) 0.2313(6)
H23 H 0.5561 0.7459 0.2084
H24 H 0.5747 0.6647 0.2063
H25 H 0.5996 0.7114 0.2590
C31 C 0.4187(9) 0.6240(10) 0.3224(7)
H26 H 0.3929 0.6658 0.3113
H27 H 0.4208 0.6209 0.3641
H28 H 0.3957 0.5826 0.3071
C32 C 0.5581(8) 0.5862(7) 0.2962(8)
H29 H 0.5933 0.6114 0.2745
H30 H 0.5489 0.5413 0.2778
H31 H 0.5745 0.5783 0.3353
O1 O 0.3053(4) 0.7943(2) 0.2922(2)
O2 O 0.2062(4) 0.8268(2) 0.3325(2)
O3 O 0.2567(3) 0.8043(2) 0.1802(2)
O4 O 0.2371(4) 0.8856(3) 0.1127(2)
O9 O 0.3093(4) 0.7196(3) 0.0684(2)
O10 O 0.3926(5) 0.7410(3) 0.1350(2)
O11 O 0.6453(4) 0.7354(3) 0.0749(2)
O12 O 0.6519(4) 0.6411(3) 0.0153(2)
O18 O 0.4033(5) 0.8617(3) 0.2045(3)
O19 O 0.4408(5) 0.7281(3) 0.2593(3)
N1 N 0.1317(12) 0.9659(11) 0.5236(10)
N2 N 0.5171(9) 0.8943(6) 0.2112(6)
N3 N 0.4932(9) 0.6285(7) 0.2978(8)
Zn6 Zn 0.72837(6) 0.73772(4) 0.12579(3)
Zn12 Zn 0.74539(7) 0.60766(5) 0.03104(4)
O20 O 0.2222(4) 0.6538(2) 0.3245(2)
O21 O 0.2183(4) 0.6451(2) 0.1667(2)
O22 O 0.3116(4) 0.6614(2) 0.2246(2)
O23 O 0.1453(4) 0.7354(3) 0.4251(2)
O25 O 0.1500(4) 0.7410(3) 0.0691(2)
O27 O 0.3123(4) 0.7578(3) 0.4207(2)
C14 C 0.5356(6) 0.7253(4) 0.9552(3)
C15 C 0.4679(6) 0.7391(4) 0.9391(3)
H4 H 0.4579 0.7456 0.8998
C16 C 0.4137(6) 0.7438(4) 0.9789(3)
C19 C 0.5943(6) 0.7331(4) 0.9105(3)
C20 C 0.3437(6) 0.7736(4) 0.9597(4)
O13 O 0.6500(4) 0.7590(3) 0.9309(2)
O14 O 0.5847(5) 0.7164(5) 0.8602(3)
O15 O 0.3254(4) 0.8311(3) 0.9831(3)
O16 O 0.3123(4) 0.7422(3) 0.9207(2)
Zn7 Zn 0.22837(6) 0.76228(4) 0.87421(3)
Zn9 Zn 0.72864(6) 0.76619(4) 0.87889(3)
Zn11 Zn 0.24539(7) 0.89234(5) 0.96896(4)
Zn1_2 Zn 0.14557(6) 0.23720(4) 0.71658(3)
Zn2_2 Zn 0.27163(6) 0.26228(4) 0.87421(3)
Zn3_2 Zn 0.27136(6) 0.26619(4) 0.62111(3)
C1_2 C 0.2439(5) 0.0898(3) 0.7693(3)
C2_2 C 0.2433(5) 0.0331(3) 0.8087(3)
H1_2 H 0.2411 0.0430 0.8484
C5_2 C 0.2479(5) 0.0038(3) 0.6922(3)
C6_2 C 0.2462(5) 0.0744(3) 0.7095(3)
C7_2 C 0.2443(6) 0.1619(3) 0.7979(3)
C10_2 C 0.2505(5) 0.1306(3) 0.6628(3)
C11_2 C 0.0720(6) 0.2715(4) 0.5386(3)
C12_2 C 0.0039(6) 0.2865(4) 0.5539(3)
C15_2 C 0.0321(6) 0.2609(4) 0.4391(3)
H4_2 H 0.0421 0.2544 0.3998
C16_2 C 0.0863(6) 0.2562(4) 0.4789(3)
C17_2 C 0.1287(6) 0.2700(4) 0.5837(3)
C20_2 C 0.1563(6) 0.2264(4) 0.4597(4)
C22_2 C 0.2853(16) 0.1070(6) 0.9781(8)
H5_2 H 0.2369 0.1091 0.9663
H6_2 H 0.3148 0.1114 0.9444
H8_2 H 0.4036 0.1294 0.9976
H9_2 H 0.4623 0.0710 0.9987
C25_2 C 0.0464(11) 0.1180(6) 0.7351(7)
C26_2 C 0.0485(9) 0.1071(7) 0.8008(5)
H14_2 H 0.0948 0.1174 0.8151
H15_2 H 0.0367 0.0587 0.8098
H16_2 H 0.0153 0.1383 0.8191
H20_2 H 0.0240 0.1294 0.6332
C29_2 C 0.0097(9) 0.3146(7) 0.7658(5)
C31_2 C 0.0813(9) 0.3760(10) 0.8224(7)
H26_2 H 0.1071 0.3342 0.8113
H27_2 H 0.0792 0.3791 0.8641
H28_2 H 0.1043 0.4174 0.8071
O1_2 O 0.1947(4) 0.2057(2) 0.7922(2)
O2_2 O 0.2938(4) 0.1732(2) 0.8325(2)
O3_2 O 0.2433(3) 0.1957(2) 0.6802(2)
O4_2 O 0.2629(4) 0.1144(3) 0.6127(2)
O9_2 O 0.1907(4) 0.2804(3) 0.5684(2)
O10_2 O 0.1074(5) 0.2590(3) 0.6350(2)
O16_2 O 0.1877(4) 0.2578(3) 0.4207(2)
O18_2 O 0.0967(5) 0.1383(3) 0.7045(3)
O19_2 O 0.0592(5) 0.2719(3) 0.7593(3)
N3_2 N 0.0068(9) 0.3715(7) 0.7978(8)
O20_2 O 0.2778(4) 0.3462(2) 0.8245(2)
O21_2 O 0.2817(4) 0.3549(2) 0.6667(2)
O22_2 O 0.1884(4) 0.3386(2) 0.7246(2)
O23_2 O 0.3547(4) 0.2646(3) 0.9251(2)
O25_2 O 0.3500(4) 0.2590(3) 0.5691(2)
O27_2 O 0.1877(4) 0.2422(3) 0.9207(2)
C3_2 C 0.2459(5) 0.9623(3) 0.7907(3)
C4_2 C 0.2491(5) 0.9474(3) 0.7315(3)
H2_2 H 0.2483 0.9936 0.6526
C8_2 C 0.2424(5) 0.9070(3) 0.8386(3)
C9_2 C 0.2604(5) 0.8730(3) 0.7067(3)
O5_2 O 0.2222(4) 0.8462(2) 0.8245(2)
O6_2 O 0.2590(4) 0.9264(3) 0.8884(2)
O7_2 O 0.2183(4) 0.8549(2) 0.6667(2)
O8_2 O 0.3116(4) 0.8386(2) 0.7246(2)
Zn5_2 Zn 0.35443(6) 0.73720(4) 0.71658(3)
Zn10_2 Zn 0.22864(6) 0.76619(4) 0.62111(3)
O24_2 O 0.1519(4) 0.8589(3) 0.9847(2)
H3_2 H 0.9936 0.2958 0.5928
C13_2 C 0.9502(5) 0.2884(4) 0.5136(3)
C14_2 C 0.9644(6) 0.2747(4) 0.4552(3)
C18_2 C 0.8781(6) 0.3047(4) 0.5356(3)
C19_2 C 0.9057(6) 0.2669(4) 0.4105(3)
C27_2 C 0.9226(11) 0.0845(9) 0.7464(9)
H17_2 H 0.9373 0.0769 0.7859
H18_2 H 0.9030 0.0414 0.7310
H19_2 H 0.8878 0.1215 0.7454
C28_2 C 0.9781(10) 0.1191(9) 0.6483(6)
H21_2 H 0.9478 0.1590 0.6414
H22_2 H 0.9595 0.0779 0.6291
C30_2 C 0.9374(10) 0.2963(7) 0.7313(6)
H23_2 H 0.9439 0.2541 0.7084
H24_2 H 0.9253 0.3353 0.7063
H25_2 H 0.9004 0.2886 0.7590
C32_2 C 0.9419(8) 0.4138(7) 0.7962(8)
H29_2 H 0.9067 0.3886 0.7745
H30_2 H 0.9511 0.4587 0.7778
H31_2 H 0.9255 0.4217 0.8353
O11_2 O 0.8547(4) 0.2646(3) 0.5749(2)
O12_2 O 0.8481(4) 0.3589(3) 0.5153(2)
O13_2 O 0.8500(4) 0.2410(3) 0.4309(2)
O14_2 O 0.9153(5) 0.2836(5) 0.3602(3)
N2_2 N 0.9829(9) 0.1057(6) 0.7112(6)
Zn6_2 Zn 0.77163(6) 0.26228(4) 0.62579(3)
Zn9_2 Zn 0.77136(6) 0.23381(4) 0.37889(3)
Zn12_2 Zn 0.75461(7) 0.39234(5) 0.53104(4)
Zn1_3 Zn 0.64557(6) 0.26280(4) 0.28342(3)
Zn2_3 Zn 0.77163(6) 0.23772(4) 0.12579(3)
C1_3 C 0.7439(5) 0.4102(3) 0.2307(3)
C2_3 C 0.7433(5) 0.4669(3) 0.1913(3)
H1_3 H 0.7411 0.4570 0.1516
C3_3 C 0.7459(5) 0.5377(3) 0.2093(3)
C4_3 C 0.7491(5) 0.5526(3) 0.2685(3)
C5_3 C 0.7479(5) 0.4962(3) 0.3078(3)
H2_3 H 0.7483 0.5064 0.3474
C6_3 C 0.7462(5) 0.4256(3) 0.2905(3)
C7_3 C 0.7443(6) 0.3381(3) 0.2021(3)
C8_3 C 0.7424(5) 0.5930(3) 0.1614(3)
C9_3 C 0.7604(5) 0.6270(3) 0.2933(3)
C10_3 C 0.7505(5) 0.3694(3) 0.3372(3)
C11_3 C 0.5720(6) 0.2285(4) 0.4614(3)
C12_3 C 0.5039(6) 0.2135(4) 0.4461(3)
H3_3 H 0.4936 0.2042 0.4072
C13_3 C 0.4502(5) 0.2116(4) 0.4864(3)
C14_3 C 0.4644(6) 0.2253(4) 0.5448(3)
C15_3 C 0.5321(6) 0.2391(4) 0.5609(3)
H4_3 H 0.5421 0.2456 0.6002
C16_3 C 0.5863(6) 0.2438(4) 0.5211(3)
C17_3 C 0.6287(6) 0.2300(4) 0.4163(3)
C18_3 C 0.3781(6) 0.1953(4) 0.4644(3)
C19_3 C 0.4057(6) 0.2331(4) 0.5895(3)
C20_3 C 0.6563(6) 0.2736(4) 0.5403(4)
C22_3 C 0.7853(16) 0.3930(6) 0.0219(8)
H5_3 H 0.7369 0.3909 0.0337
H6_3 H 0.8148 0.3886 0.0556
H8_3 H 0.9036 0.3706 0.0024
H9_3 H 0.9623 0.4290 0.0013
C25_3 C 0.5464(11) 0.3820(6) 0.2649(7)
C26_3 C 0.5485(9) 0.3929(7) 0.1992(5)
H14_3 H 0.5948 0.3826 0.1849
H15_3 H 0.5367 0.4413 0.1902
H16_3 H 0.5153 0.3617 0.1809
C27_3 C 0.4226(11) 0.4155(9) 0.2536(9)
H17_3 H 0.4373 0.4231 0.2141
H18_3 H 0.4030 0.4586 0.2690
H19_3 H 0.3878 0.3785 0.2546
C28_3 C 0.4781(10) 0.3809(9) 0.3517(6)
H20_3 H 0.5240 0.3706 0.3668
H21_3 H 0.4478 0.3410 0.3586
H22_3 H 0.4595 0.4221 0.3709
C29_3 C 0.5097(9) 0.1854(7) 0.2342(5)
C30_3 C 0.4374(10) 0.2037(7) 0.2687(6)
H23_3 H 0.4439 0.2459 0.2916
H24_3 H 0.4253 0.1647 0.2937
H25_3 H 0.4004 0.2114 0.2410
C31_3 C 0.5813(9) 0.1240(10) 0.1776(7)
H26_3 H 0.6071 0.1658 0.1887
H27_3 H 0.5792 0.1209 0.1359
H28_3 H 0.6043 0.0826 0.1929
C32_3 C 0.4419(8) 0.0862(7) 0.2038(8)
H29_3 H 0.4067 0.1114 0.2255
H30_3 H 0.4511 0.0413 0.2222
H31_3 H 0.4255 0.0783 0.1647
O1_3 O 0.6947(4) 0.2943(2) 0.2078(2)
O2_3 O 0.7938(4) 0.3268(2) 0.1675(2)
O3_3 O 0.7433(3) 0.3043(2) 0.3198(2)
O4_3 O 0.7629(4) 0.3856(3) 0.3873(2)
O5_3 O 0.7222(4) 0.6538(2) 0.1755(2)
O6_3 O 0.7590(4) 0.5736(3) 0.1116(2)
O7_3 O 0.7183(4) 0.6451(2) 0.3333(2)
O8_3 O 0.8116(4) 0.6614(2) 0.2754(2)
O9_3 O 0.6907(4) 0.2196(3) 0.4316(2)
O10_3 O 0.6074(5) 0.2410(3) 0.3650(2)
O11_3 O 0.3547(4) 0.2354(3) 0.4251(2)
O14_3 O 0.4153(5) 0.2164(5) 0.6398(3)
O15_2 O 0.6746(4) 0.3311(3) 0.5169(3)
O16_3 O 0.6877(4) 0.2422(3) 0.5793(2)
O18_3 O 0.5967(5) 0.3617(3) 0.2955(3)
O19_3 O 0.5592(5) 0.2281(3) 0.2407(3)
N2_3 N 0.4829(9) 0.3943(6) 0.2888(6)
N3_3 N 0.5068(9) 0.1285(7) 0.2022(8)
Zn5_3 Zn 0.85443(6) 0.76280(4) 0.28342(3)
Zn10_3 Zn 0.72864(6) 0.73381(4) 0.37889(3)
O20_3 O 0.7778(4) 0.1538(2) 0.1755(2)
O21_3 O 0.7817(4) 0.1451(2) 0.3333(2)
O22_3 O 0.6884(4) 0.1614(2) 0.2754(2)
O23_3 O 0.8547(4) 0.2354(3) 0.0749(2)
O26_2 O 0.8254(4) 0.6689(3) 0.0169(3)
O27_3 O 0.6877(4) 0.2578(3) 0.0793(2)
C14_4 C 0.0356(6) 0.7747(4) 0.0448(3)
C19_4 C 0.0943(6) 0.7669(4) 0.0895(3)
O14_4 O 0.0847(5) 0.7836(5) 0.1398(3)
H3_4 H 0.0064 0.7958 0.9072
C13_4 C 0.0498(5) 0.7884(4) 0.9864(3)
C18_4 C 0.1219(6) 0.8047(4) 0.9644(3)
C27_4 C 0.0774(11) 0.5845(9) 0.7536(9)
H17_4 H 0.0627 0.5769 0.7141
H18_4 H 0.0970 0.5414 0.7690
H19_4 H 0.1122 0.6215 0.7546
C28_4 C 0.0219(10) 0.6191(9) 0.8517(6)
H21_4 H 0.0522 0.6590 0.8586
H22_4 H 0.0405 0.5779 0.8709
C30_4 C 0.0626(10) 0.7963(7) 0.7687(6)
H23_4 H 0.0561 0.7541 0.7916
H24_4 H 0.0747 0.8353 0.7937
H25_4 H 0.0996 0.7886 0.7410
C32_4 C 0.0581(8) 0.9138(7) 0.7038(8)
H29_4 H 0.0933 0.8886 0.7255
H30_4 H 0.0489 0.9587 0.7222
H31_4 H 0.0745 0.9217 0.6647
O11_4 O 0.1453(4) 0.7646(3) 0.9251(2)
N2_4 N 0.0171(9) 0.6057(6) 0.7888(6)
C15_4 C 0.9679(6) 0.7609(4) 0.0609(3)
H4_4 H 0.9579 0.7544 0.1002
C16_4 C 0.9137(6) 0.7562(4) 0.0211(3)
C20_4 C 0.8437(6) 0.7264(4) 0.0403(4)
O16_4 O 0.8123(4) 0.7578(3) 0.0793(2)
Zn1_4 Zn 0.85443(6) 0.73720(4) 0.78342(3)
Zn2_4 Zn 0.72837(6) 0.76228(4) 0.62579(3)
C1_4 C 0.7561(5) 0.5898(3) 0.7307(3)
C2_4 C 0.7567(5) 0.5331(3) 0.6913(3)
H1_4 H 0.7589 0.5430 0.6516
C3_4 C 0.7541(5) 0.4623(3) 0.7093(3)
C4_4 C 0.7509(5) 0.4474(3) 0.7685(3)
C5_4 C 0.7521(5) 0.5038(3) 0.8078(3)
H2_4 H 0.7517 0.4936 0.8474
C6_4 C 0.7538(5) 0.5744(3) 0.7905(3)
C7_4 C 0.7557(6) 0.6619(3) 0.7021(3)
C8_4 C 0.7576(5) 0.4070(3) 0.6614(3)
C9_4 C 0.7396(5) 0.3730(3) 0.7933(3)
C10_4 C 0.7495(5) 0.6306(3) 0.8372(3)
C11_4 C 0.9280(6) 0.7715(4) 0.9614(3)
C12_4 C 0.9961(6) 0.7865(4) 0.9461(3)
C17_4 C 0.8713(6) 0.7700(4) 0.9163(3)
C21_2 C 0.7009(16) 0.5383(11) 0.4931(7)
C22_4 C 0.7147(16) 0.6070(6) 0.5219(8)
H5_4 H 0.7631 0.6091 0.5337
H6_4 H 0.6852 0.6114 0.5556
H7_2 H 0.7050 0.6451 0.4953
C23_2 C 0.5778(19) 0.5896(13) 0.4811(15)
H8_4 H 0.5964 0.6294 0.5024
H9_4 H 0.5377 0.5710 0.5013
H10_2 H 0.5641 0.6048 0.4428
C24_2 C 0.6149(14) 0.4633(10) 0.4472(11)
H11_2 H 0.6546 0.4321 0.4506
H12_2 H 0.6045 0.4712 0.4068
H13_2 H 0.5751 0.4420 0.4660
C25_4 C 0.9536(11) 0.6180(6) 0.7649(7)
C26_4 C 0.9515(9) 0.6071(7) 0.6992(5)
H14_4 H 0.9052 0.6174 0.6849
H15_4 H 0.9633 0.5587 0.6902
H16_4 H 0.9847 0.6383 0.6809
H20_4 H 0.9760 0.6294 0.8668
C29_4 C 0.9903(9) 0.8146(7) 0.7342(5)
C31_4 C 0.9187(9) 0.8760(10) 0.6776(7)
H26_4 H 0.8929 0.8342 0.6887
H27_4 H 0.9208 0.8791 0.6359
H28_4 H 0.8957 0.9174 0.6929
O1_4 O 0.8053(4) 0.7057(2) 0.7078(2)
O2_4 O 0.7062(4) 0.6732(2) 0.6675(2)
O3_4 O 0.7567(3) 0.6957(2) 0.8198(2)
O4_4 O 0.7371(4) 0.6144(3) 0.8873(2)
O5_4 O 0.7778(4) 0.3462(2) 0.6755(2)
O6_4 O 0.7410(4) 0.4264(3) 0.6116(2)
O7_4 O 0.7817(4) 0.3549(2) 0.8333(2)
O8_4 O 0.6884(4) 0.3386(2) 0.7754(2)
O9_4 O 0.8093(4) 0.7804(3) 0.9316(2)
O10_4 O 0.8926(5) 0.7590(3) 0.8650(2)
O17_2 O 0.7371(6) 0.4797(4) 0.4908(4)
O18_4 O 0.9033(5) 0.6383(3) 0.7955(3)
O19_4 O 0.9408(5) 0.7719(3) 0.7407(3)
N1_2 N 0.6317(12) 0.5341(11) 0.4764(10)
N3_4 N 0.9932(9) 0.8715(7) 0.7022(8)
Zn5_4 Zn 0.64557(6) 0.23720(4) 0.78342(3)
Zn10_4 Zn 0.77136(6) 0.26619(4) 0.87889(3)
O20_4 O 0.7222(4) 0.8462(2) 0.6755(2)
O21_4 O 0.7183(4) 0.8549(2) 0.8333(2)
O22_4 O 0.8116(4) 0.8386(2) 0.7754(2)
O23_4 O 0.6453(4) 0.7646(3) 0.5749(2)
O27_4 O 0.8123(4) 0.7422(3) 0.5793(2)
C14_5 C 0.4644(6) 0.2747(4) 0.0448(3)
C15_5 C 0.5321(6) 0.2609(4) 0.0609(3)
H4_5 H 0.5421 0.2544 0.1002
C16_5 C 0.5863(6) 0.2562(4) 0.0211(3)
C19_5 C 0.4057(6) 0.2669(4) 0.0895(3)
C20_5 C 0.6563(6) 0.2264(4) 0.0403(4)
O13_3 O 0.3500(4) 0.2410(3) 0.0691(2)
O14_5 O 0.4153(5) 0.2836(5) 0.1398(3)
O15_3 O 0.6746(4) 0.1689(3) 0.0169(3)
Zn11_2 Zn 0.75461(7) 0.10766(5) 0.03104(4)
C1_5 C 0.7439(5) 0.0898(3) 0.7307(3)
C2_5 C 0.7433(5) 0.0331(3) 0.6913(3)
H1_5 H 0.7411 0.0430 0.6516
C5_5 C 0.7479(5) 0.0038(3) 0.8078(3)
C6_5 C 0.7462(5) 0.0744(3) 0.7905(3)
C7_5 C 0.7443(6) 0.1619(3) 0.7021(3)
C10_5 C 0.7505(5) 0.1306(3) 0.8372(3)
C11_5 C 0.5720(6) 0.2715(4) 0.9614(3)
C12_5 C 0.5039(6) 0.2865(4) 0.9461(3)
H3_5 H 0.4936 0.2958 0.9072
C13_5 C 0.4502(5) 0.2884(4) 0.9864(3)
C17_5 C 0.6287(6) 0.2700(4) 0.9163(3)
C18_5 C 0.3781(6) 0.3047(4) 0.9644(3)
C21_3 C 0.7991(16) 0.0383(11) 0.4931(7)
C22_5 C 0.7853(16) 0.1070(6) 0.5219(8)
H5_5 H 0.7369 0.1091 0.5337
H6_5 H 0.8148 0.1114 0.5556
H7_3 H 0.7950 0.1451 0.4953
C23_3 C 0.9222(19) 0.0896(13) 0.4811(15)
H8_5 H 0.9036 0.1294 0.5024
H9_5 H 0.9623 0.0710 0.5013
H10_3 H 0.9359 0.1048 0.4428
C25_5 C 0.5464(11) 0.1180(6) 0.7649(7)
C26_5 C 0.5485(9) 0.1071(7) 0.6992(5)
H14_5 H 0.5948 0.1174 0.6849
H15_5 H 0.5367 0.0587 0.6902
H16_5 H 0.5153 0.1383 0.6809
C27_5 C 0.4226(11) 0.0845(9) 0.7536(9)
H17_5 H 0.4373 0.0769 0.7141
H18_5 H 0.4030 0.0414 0.7690
H19_5 H 0.3878 0.1215 0.7546
C28_5 C 0.4781(10) 0.1191(9) 0.8517(6)
H20_5 H 0.5240 0.1294 0.8668
H21_5 H 0.4478 0.1590 0.8586
H22_5 H 0.4595 0.0779 0.8709
C29_5 C 0.5097(9) 0.3146(7) 0.7342(5)
C30_5 C 0.4374(10) 0.2963(7) 0.7687(6)
H23_5 H 0.4439 0.2541 0.7916
H24_5 H 0.4253 0.3353 0.7937
H25_5 H 0.4004 0.2886 0.7410
C31_5 C 0.5813(9) 0.3760(10) 0.6776(7)
H26_5 H 0.6071 0.3342 0.6887
H27_5 H 0.5792 0.3791 0.6359
H28_5 H 0.6043 0.4174 0.6929
C32_5 C 0.4419(8) 0.4138(7) 0.7038(8)
H29_5 H 0.4067 0.3886 0.7255
H30_5 H 0.4511 0.4587 0.7222
H31_5 H 0.4255 0.4217 0.6647
O1_5 O 0.6947(4) 0.2057(2) 0.7078(2)
O2_5 O 0.7938(4) 0.1732(2) 0.6675(2)
O3_5 O 0.7433(3) 0.1957(2) 0.8198(2)
O4_5 O 0.7629(4) 0.1144(3) 0.8873(2)
O9_5 O 0.6907(4) 0.2804(3) 0.9316(2)
O10_5 O 0.6074(5) 0.2590(3) 0.8650(2)
O12_3 O 0.3481(4) 0.3589(3) 0.9847(2)
O18_5 O 0.5967(5) 0.1383(3) 0.7955(3)
O19_5 O 0.5592(5) 0.2719(3) 0.7407(3)
N1_3 N 0.8683(12) 0.0341(11) 0.4764(10)
N2_5 N 0.4829(9) 0.1057(6) 0.7888(6)
N3_5 N 0.5068(9) 0.3715(7) 0.7022(8)
Zn12_3 Zn 0.25461(7) 0.39234(5) 0.96896(4)
O25_3 O 0.8500(4) 0.2590(3) 0.9309(2)
Zn4_2 Zn 0.74539(7) 0.89234(5) 0.53104(4)
C3_5 C 0.7459(5) 0.9623(3) 0.7093(3)
C4_5 C 0.7491(5) 0.9474(3) 0.7685(3)
H2_5 H 0.7483 0.9936 0.8474
C8_5 C 0.7424(5) 0.9070(3) 0.6614(3)
C9_5 C 0.7604(5) 0.8730(3) 0.7933(3)
C24_3 C 0.8851(14) 0.9633(10) 0.4472(11)
H11_3 H 0.8454 0.9321 0.4506
H12_3 H 0.8955 0.9712 0.4068
H13_3 H 0.9249 0.9420 0.4660
O6_5 O 0.7590(4) 0.9264(3) 0.6116(2)
O17_3 O 0.7629(6) 0.9797(4) 0.4908(4)
O24_3 O 0.6519(4) 0.8589(3) 0.5153(2)
O26_3 O 0.8254(4) 0.8311(3) 0.5169(3)
H3_6 H 0.0064 0.7042 0.4072
C13_6 C 0.0498(5) 0.7116(4) 0.4864(3)
C14_6 C 0.0356(6) 0.7253(4) 0.5448(3)
C18_6 C 0.1219(6) 0.6953(4) 0.4644(3)
C19_6 C 0.0943(6) 0.7331(4) 0.5895(3)
C27_6 C 0.0774(11) 0.9155(9) 0.2536(9)
H17_6 H 0.0627 0.9231 0.2141
H18_6 H 0.0970 0.9586 0.2690
H19_6 H 0.1122 0.8785 0.2546
C28_6 C 0.0219(10) 0.8809(9) 0.3517(6)
H21_6 H 0.0522 0.8410 0.3586
H22_6 H 0.0405 0.9221 0.3709
C30_6 C 0.0626(10) 0.7037(7) 0.2687(6)
H23_6 H 0.0561 0.7459 0.2916
H24_6 H 0.0747 0.6647 0.2937
H25_6 H 0.0996 0.7114 0.2410
C32_6 C 0.0581(8) 0.5862(7) 0.2038(8)
H29_6 H 0.0933 0.6114 0.2255
H30_6 H 0.0489 0.5413 0.2222
H31_6 H 0.0745 0.5783 0.1647
O12_4 O 0.1519(4) 0.6411(3) 0.4847(2)
O13_4 O 0.1500(4) 0.7590(3) 0.5691(2)
O14_6 O 0.0847(5) 0.7164(5) 0.6398(3)
N2_6 N 0.0171(9) 0.8943(6) 0.2888(6)
Zn12_4 Zn 0.24539(7) 0.60766(5) 0.46896(4)
C3_6 C 0.7541(5) 0.0377(3) 0.2093(3)
C4_6 C 0.7509(5) 0.0526(3) 0.2685(3)
H2_6 H 0.7517 0.0064 0.3474
C8_6 C 0.7576(5) 0.0930(3) 0.1614(3)
C9_6 C 0.7396(5) 0.1270(3) 0.2933(3)
O6_6 O 0.7410(4) 0.0736(3) 0.1116(2)
O24_4 O 0.8481(4) 0.1411(3) 0.0153(2)
C1_6 C 0.7561(5) 0.9102(3) 0.2307(3)
C2_6 C 0.7567(5) 0.9669(3) 0.1913(3)
H1_6 H 0.7589 0.9570 0.1516
C5_6 C 0.7521(5) 0.9962(3) 0.3078(3)
C6_6 C 0.7538(5) 0.9256(3) 0.2905(3)
C7_6 C 0.7557(6) 0.8381(3) 0.2021(3)
C10_6 C 0.7495(5) 0.8694(3) 0.3372(3)
C11_6 C 0.9280(6) 0.7285(4) 0.4614(3)
C12_6 C 0.9961(6) 0.7135(4) 0.4461(3)
C15_6 C 0.9679(6) 0.7391(4) 0.5609(3)
H4_6 H 0.9579 0.7456 0.6002
C16_6 C 0.9137(6) 0.7438(4) 0.5211(3)
C17_6 C 0.8713(6) 0.7300(4) 0.4163(3)
C20_6 C 0.8437(6) 0.7736(4) 0.5403(4)
C22_6 C 0.7147(16) 0.8930(6) 0.0219(8)
H5_6 H 0.7631 0.8909 0.0337
H6_6 H 0.6852 0.8886 0.0556
H8_6 H 0.5964 0.8706 0.0024
H9_6 H 0.5377 0.9290 0.0013
C25_6 C 0.9536(11) 0.8820(6) 0.2649(7)
C26_6 C 0.9515(9) 0.8929(7) 0.1992(5)
H14_6 H 0.9052 0.8826 0.1849
H15_6 H 0.9633 0.9413 0.1902
H16_6 H 0.9847 0.8617 0.1809
H20_6 H 0.9760 0.8706 0.3668
C29_6 C 0.9903(9) 0.6854(7) 0.2342(5)
C31_6 C 0.9187(9) 0.6240(10) 0.1776(7)
H26_6 H 0.8929 0.6658 0.1887
H27_6 H 0.9208 0.6209 0.1359
H28_6 H 0.8957 0.5826 0.1929
O1_6 O 0.8053(4) 0.7943(2) 0.2078(2)
O2_6 O 0.7062(4) 0.8268(2) 0.1675(2)
O3_6 O 0.7567(3) 0.8043(2) 0.3198(2)
O4_6 O 0.7371(4) 0.8856(3) 0.3873(2)
O9_6 O 0.8093(4) 0.7196(3) 0.4316(2)
O10_6 O 0.8926(5) 0.7410(3) 0.3650(2)
O18_6 O 0.9033(5) 0.8617(3) 0.2955(3)
O19_6 O 0.9408(5) 0.7281(3) 0.2407(3)
N3_6 N 0.9932(9) 0.6285(7) 0.2022(8)
O25_4 O 0.6500(4) 0.7410(3) 0.4309(2)
C1_7 C 0.2561(5) 0.5898(3) 0.7693(3)
C2_7 C 0.2567(5) 0.5331(3) 0.8087(3)
H1_7 H 0.2589 0.5430 0.8484
C3_7 C 0.2541(5) 0.4623(3) 0.7907(3)
C4_7 C 0.2509(5) 0.4474(3) 0.7315(3)
C5_7 C 0.2521(5) 0.5038(3) 0.6922(3)
H2_7 H 0.2517 0.4936 0.6526
C6_7 C 0.2538(5) 0.5744(3) 0.7095(3)
C7_7 C 0.2557(6) 0.6619(3) 0.7979(3)
C8_7 C 0.2576(5) 0.4070(3) 0.8386(3)
C9_7 C 0.2396(5) 0.3730(3) 0.7067(3)
C10_7 C 0.2495(5) 0.6306(3) 0.6628(3)
C11_7 C 0.4280(6) 0.7715(4) 0.5386(3)
C12_7 C 0.4961(6) 0.7865(4) 0.5539(3)
H3_7 H 0.5064 0.7958 0.5928
C13_7 C 0.5498(5) 0.7884(4) 0.5136(3)
C14_7 C 0.5356(6) 0.7747(4) 0.4552(3)
C15_7 C 0.4679(6) 0.7609(4) 0.4391(3)
H4_7 H 0.4579 0.7544 0.3998
C16_7 C 0.4137(6) 0.7562(4) 0.4789(3)
C17_7 C 0.3713(6) 0.7700(4) 0.5837(3)
C18_7 C 0.6219(6) 0.8047(4) 0.5356(3)
C19_7 C 0.5943(6) 0.7669(4) 0.4105(3)
C20_7 C 0.3437(6) 0.7264(4) 0.4597(4)
C22_7 C 0.2147(16) 0.6070(6) 0.9781(8)
H5_7 H 0.2631 0.6091 0.9663
H6_7 H 0.1852 0.6114 0.9444
H8_7 H 0.0964 0.6294 0.9976
H9_7 H 0.0377 0.5710 0.9987
C25_7 C 0.4536(11) 0.6180(6) 0.7351(7)
C26_7 C 0.4515(9) 0.6071(7) 0.8008(5)
H14_7 H 0.4052 0.6174 0.8151
H15_7 H 0.4633 0.5587 0.8098
H16_7 H 0.4847 0.6383 0.8191
C27_7 C 0.5774(11) 0.5845(9) 0.7464(9)
H17_7 H 0.5627 0.5769 0.7859
H18_7 H 0.5970 0.5414 0.7310
H19_7 H 0.6122 0.6215 0.7454
C28_7 C 0.5219(10) 0.6191(9) 0.6483(6)
H20_7 H 0.4760 0.6294 0.6332
H21_7 H 0.5522 0.6590 0.6414
H22_7 H 0.5405 0.5779 0.6291
C29_7 C 0.4903(9) 0.8146(7) 0.7658(5)
C30_7 C 0.5626(10) 0.7963(7) 0.7313(6)
H23_7 H 0.5561 0.7541 0.7084
H24_7 H 0.5747 0.8353 0.7063
H25_7 H 0.5996 0.7886 0.7590
C31_7 C 0.4187(9) 0.8760(10) 0.8224(7)
H26_7 H 0.3929 0.8342 0.8113
H27_7 H 0.4208 0.8791 0.8641
H28_7 H 0.3957 0.9174 0.8071
C32_7 C 0.5581(8) 0.9138(7) 0.7962(8)
H29_7 H 0.5933 0.8886 0.7745
H30_7 H 0.5489 0.9587 0.7778
H31_7 H 0.5745 0.9217 0.8353
O1_7 O 0.3053(4) 0.7057(2) 0.7922(2)
O2_7 O 0.2062(4) 0.6732(2) 0.8325(2)
O3_7 O 0.2567(3) 0.6957(2) 0.6802(2)
O4_7 O 0.2371(4) 0.6144(3) 0.6127(2)
O6_7 O 0.2410(4) 0.4264(3) 0.8884(2)
O9_7 O 0.3093(4) 0.7804(3) 0.5684(2)
O10_7 O 0.3926(5) 0.7590(3) 0.6350(2)
O14_7 O 0.5847(5) 0.7836(5) 0.3602(3)
O15_4 O 0.3254(4) 0.6689(3) 0.4831(3)
O18_7 O 0.4033(5) 0.6383(3) 0.7045(3)
O19_7 O 0.4408(5) 0.7719(3) 0.7593(3)
N2_7 N 0.5171(9) 0.6057(6) 0.7112(6)
N3_7 N 0.4932(9) 0.8715(7) 0.7978(8)
O26_4 O 0.1746(4) 0.3311(3) 0.9831(3)
C1_8 C 0.2439(5) 0.4102(3) 0.2693(3)
C2_8 C 0.2433(5) 0.4669(3) 0.3087(3)
H1_8 H 0.2411 0.4570 0.3484
C3_8 C 0.2459(5) 0.5377(3) 0.2907(3)
C4_8 C 0.2491(5) 0.5526(3) 0.2315(3)
C5_8 C 0.2479(5) 0.4962(3) 0.1922(3)
H2_8 H 0.2483 0.5064 0.1526
C6_8 C 0.2462(5) 0.4256(3) 0.2095(3)
C7_8 C 0.2443(6) 0.3381(3) 0.2979(3)
C8_8 C 0.2424(5) 0.5930(3) 0.3386(3)
C9_8 C 0.2604(5) 0.6270(3) 0.2067(3)
C10_8 C 0.2505(5) 0.3694(3) 0.1628(3)
C11_8 C 0.0720(6) 0.2285(4) 0.0386(3)
C12_8 C 0.0039(6) 0.2135(4) 0.0539(3)
C17_8 C 0.1287(6) 0.2300(4) 0.0837(3)
C21_4 C 0.2991(16) 0.4617(11) 0.5069(7)
C22_8 C 0.2853(16) 0.3930(6) 0.4781(8)
H5_8 H 0.2369 0.3909 0.4663
H6_8 H 0.3148 0.3886 0.4444
H7_4 H 0.2950 0.3549 0.5047
C23_4 C 0.4222(19) 0.4104(13) 0.5189(15)
H8_8 H 0.4036 0.3706 0.4976
H9_8 H 0.4623 0.4290 0.4987
H10_4 H 0.4359 0.3952 0.5572
C24_4 C 0.3851(14) 0.5367(10) 0.5528(11)
H11_4 H 0.3454 0.5679 0.5494
H12_4 H 0.3955 0.5288 0.5932
H13_4 H 0.4249 0.5580 0.5340
C25_8 C 0.0464(11) 0.3820(6) 0.2351(7)
C26_8 C 0.0485(9) 0.3929(7) 0.3008(5)
H14_8 H 0.0948 0.3826 0.3151
H15_8 H 0.0367 0.4413 0.3098
H16_8 H 0.0153 0.3617 0.3191
H20_8 H 0.0240 0.3706 0.1332
C29_8 C 0.0097(9) 0.1854(7) 0.2658(5)
C31_8 C 0.0813(9) 0.1240(10) 0.3224(7)
H26_8 H 0.1071 0.1658 0.3113
H27_8 H 0.0792 0.1209 0.3641
H28_8 H 0.1043 0.0826 0.3071
O1_8 O 0.1947(4) 0.2943(2) 0.2922(2)
O2_8 O 0.2938(4) 0.3268(2) 0.3325(2)
O3_8 O 0.2433(3) 0.3043(2) 0.1802(2)
O4_8 O 0.2629(4) 0.3856(3) 0.1127(2)
O6_8 O 0.2590(4) 0.5736(3) 0.3884(2)
O9_8 O 0.1907(4) 0.2196(3) 0.0684(2)
O10_8 O 0.1074(5) 0.2410(3) 0.1350(2)
O17_4 O 0.2629(6) 0.5203(4) 0.5092(4)
O18_8 O 0.0967(5) 0.3617(3) 0.2045(3)
O19_8 O 0.0592(5) 0.2281(3) 0.2593(3)
N1_4 N 0.3683(12) 0.4659(11) 0.5236(10)
N3_8 N 0.0068(9) 0.1285(7) 0.2978(8)
C15_8 C 0.0321(6) 0.2391(4) 0.9391(3)
H4_8 H 0.0421 0.2456 0.8998
C16_8 C 0.0863(6) 0.2438(4) 0.9789(3)
C20_8 C 0.1563(6) 0.2736(4) 0.9597(4)
H3_8 H 0.9936 0.2042 0.0928
C13_8 C 0.9502(5) 0.2116(4) 0.0136(3)
C18_8 C 0.8781(6) 0.1953(4) 0.0356(3)
C27_8 C 0.9226(11) 0.4155(9) 0.2464(9)
H17_8 H 0.9373 0.4231 0.2859
H18_8 H 0.9030 0.4586 0.2310
H19_8 H 0.8878 0.3785 0.2454
C28_8 C 0.9781(10) 0.3809(9) 0.1483(6)
H21_8 H 0.9478 0.3410 0.1414
H22_8 H 0.9595 0.4221 0.1291
C30_8 C 0.9374(10) 0.2037(7) 0.2313(6)
H23_8 H 0.9439 0.2459 0.2084
H24_8 H 0.9253 0.1647 0.2063
H25_8 H 0.9004 0.2114 0.2590
C32_8 C 0.9419(8) 0.0862(7) 0.2962(8)
H29_8 H 0.9067 0.1114 0.2745
H30_8 H 0.9511 0.0413 0.2778
H31_8 H 0.9255 0.0783 0.3353
N2_8 N 0.9829(9) 0.3943(6) 0.2112(6)
C14_8 C 0.9644(6) 0.2253(4) 0.9552(3)
C19_8 C 0.9057(6) 0.2331(4) 0.9105(3)
O14_8 O 0.9153(5) 0.2164(5) 0.8602(3)
C21_5 C 0.2991(16) 0.0383(11) 0.0069(7)
H7_5 H 0.2950 0.1451 0.0047
C23_5 C 0.4222(19) 0.0896(13) 0.0189(15)
H10_5 H 0.4359 0.1048 0.0572
N1_5 N 0.3683(12) 0.0341(11) 0.0236(10)
C24_5 C 0.3851(14) 0.9633(10) 0.0528(11)
H11_5 H 0.3454 0.9321 0.0494
H12_5 H 0.3955 0.9712 0.0932
H13_5 H 0.4249 0.9420 0.0340
O17_5 O 0.2629(6) 0.9797(4) 0.0092(4)
C21_6 C 0.7991(16) 0.4617(11) 0.9931(7)
H7_6 H 0.7950 0.3549 0.9953
C23_6 C 0.9222(19) 0.4104(13) 0.9811(15)
H10_6 H 0.9359 0.3952 0.9428
C24_6 C 0.8851(14) 0.5367(10) 0.9472(11)
H11_6 H 0.8454 0.5679 0.9506
H12_6 H 0.8955 0.5288 0.9068
H13_6 H 0.9249 0.5580 0.9660
O17_6 O 0.7629(6) 0.5203(4) 0.9908(4)
N1_6 N 0.8683(12) 0.4659(11) 0.9764(10)
C24_7 C 0.6149(14) 0.0367(10) 0.9472(11)
H11_7 H 0.6546 0.0679 0.9506
H12_7 H 0.6045 0.0288 0.9068
H13_7 H 0.5751 0.0580 0.9660
O17_7 O 0.7371(6) 0.0203(4) 0.9908(4)
C21_7 C 0.7009(16) 0.9617(11) 0.9931(7)
H7_7 H 0.7050 0.8549 0.9953
C23_7 C 0.5778(19) 0.9104(13) 0.9811(15)
H10_7 H 0.5641 0.8952 0.9428
N1_7 N 0.6317(12) 0.9659(11) 0.9764(10)
C21_8 C 0.2009(16) 0.5383(11) 0.0069(7)
H7_8 H 0.2050 0.6451 0.0047
C23_8 C 0.0778(19) 0.5896(13) 0.0189(15)
H10_8 H 0.0641 0.6048 0.0572
C24_8 C 0.1149(14) 0.4633(10) 0.0528(11)
H11_8 H 0.1546 0.4321 0.0494
H12_8 H 0.1045 0.4712 0.0932
H13_8 H 0.0751 0.4420 0.0340
O17_8 O 0.2371(6) 0.4797(4) 0.0092(4)
N1_8 N 0.1317(12) 0.5341(11) 0.0236(10)
loop_
_geom_bond_atom_site_label_1
_geom_bond_atom_site_label_2
_geom_bond_site_symmetry_1
_geom_bond_site_symmetry_2
Zn4 O6 1_555 1_555
C4 C3 1_555 1_555
C8 C3 1_555 1_555
C9 C4 1_555 1_555
C24 H11 1_555 1_555
H12 C24 1_555 1_555
H13 C24 1_555 1_555
O5 C8 1_555 1_555
O6 C8 1_555 1_555
O7 C9 1_555 1_555
O8 C9 1_555 1_555
O17 Zn4 1_555 1_555
Zn5 O8 1_555 1_555
Zn8 O5 1_555 1_555
Zn10 O7 1_555 1_555
O24 Zn4 1_555 1_555
O26 Zn4 1_555 1_555
Zn1 O1 1_555 1_555
Zn2 O2 1_555 1_555
Zn3 O3 1_555 1_555
C1 C2 1_555 1_555
C2 H1 1_555 1_555
C6 C1 1_555 1_555
C7 C1 1_555 1_555
C10 C6 1_555 1_555
C11 C12 1_555 1_555
C12 H3 1_555 1_555
C13 C12 1_555 1_555
C17 C11 1_555 1_555
C18 C13 1_555 1_555
C21 C22 1_555 1_555
C22 H5 1_555 1_555
H6 C22 1_555 1_555
H7 C22 1_555 1_555
C23 H8 1_555 1_555
H9 C23 1_555 1_555
H10 C23 1_555 1_555
C25 C26 1_555 1_555
C26 H14 1_555 1_555
H15 C26 1_555 1_555
H16 C26 1_555 1_555
C27 H17 1_555 1_555
H18 C27 1_555 1_555
H19 C27 1_555 1_555
C28 H20 1_555 1_555
H21 C28 1_555 1_555
H22 C28 1_555 1_555
C29 C30 1_555 1_555
C30 H23 1_555 1_555
H24 C30 1_555 1_555
H25 C30 1_555 1_555
C31 H26 1_555 1_555
H27 C31 1_555 1_555
H28 C31 1_555 1_555
C32 H29 1_555 1_555
H30 C32 1_555 1_555
H31 C32 1_555 1_555
O1 C7 1_555 1_555
O2 C7 1_555 1_555
O3 Zn1 1_555 1_555
O4 C10 1_555 1_555
O9 Zn3 1_555 1_555
O10 Zn1 1_555 1_555
O11 C18 1_555 1_555
O12 C18 1_555 1_555
O18 Zn1 1_555 1_555
O19 Zn1 1_555 1_555
N1 C21 1_555 1_555
N2 C25 1_555 1_555
N3 C29 1_555 1_555
Zn6 O11 1_555 1_555
Zn12 O12 1_555 1_555
O20 Zn2 1_555 1_555
O21 Zn3 1_555 1_555
O22 Zn1 1_555 1_555
O23 Zn2 1_555 1_555
O25 Zn3 1_555 1_555
O27 Zn2 1_555 1_555
C5 C6 1_555 1_555
C10 O3 1_555 1_555
C17 O9 1_555 1_555
C17 O10 1_555 1_555
C23 N1 1_555 1_555
C25 O18 1_555 1_555
C27 N2 1_555 1_555
C28 N2 1_555 1_555
C29 O19 1_555 1_555
C31 N3 1_555 1_555
C32 N3 1_555 1_555
C15 C14 1_555 1_555
H4 C15 1_555 1_555
C19 C14 1_555 1_555
C20 C16 1_555 1_555
O13 C19 1_555 1_555
O14 C19 1_555 1_555
O15 C20 1_555 1_555
O16 C20 1_555 1_555
Zn7 O16 1_555 1_555
Zn9 O13 1_555 1_555
Zn11 O15 1_555 1_555
C15 C16 1_555 1_555
Zn1_2 O1_2 1_555 1_555
Zn2_2 O2_2 1_555 1_555
Zn3_2 O3_2 1_555 1_555
C1_2 C2_2 1_555 1_555
C2_2 H1_2 1_555 1_555
C6_2 C1_2 1_555 1_555
C7_2 C1_2 1_555 1_555
C10_2 C6_2 1_555 1_555
C11_2 C12_2 1_555 1_555
H4_2 C15_2 1_555 1_555
C16_2 C11_2 1_555 1_555
C17_2 C11_2 1_555 1_555
C20_2 C16_2 1_555 1_555
C22_2 H5_2 1_555 1_555
H6_2 C22_2 1_555 1_555
C25_2 C26_2 1_555 1_555
C26_2 H14_2 1_555 1_555
H15_2 C26_2 1_555 1_555
H16_2 C26_2 1_555 1_555
C31_2 H26_2 1_555 1_555
H27_2 C31_2 1_555 1_555
H28_2 C31_2 1_555 1_555
O1_2 C7_2 1_555 1_555
O2_2 C7_2 1_555 1_555
O3_2 Zn1_2 1_555 1_555
O4_2 C10_2 1_555 1_555
O9_2 Zn3_2 1_555 1_555
O10_2 Zn1_2 1_555 1_555
O26 C20_2 1_555 1_555
O16_2 C20_2 1_555 1_555
O18_2 Zn1_2 1_555 1_555
O19_2 Zn1_2 1_555 1_555
N3_2 C29_2 1_555 1_555
Zn8 O16_2 1_555 1_555
O20_2 Zn2_2 1_555 1_555
O21_2 Zn3_2 1_555 1_555
O22_2 Zn1_2 1_555 1_555
O23_2 Zn2_2 1_555 1_555
O25_2 Zn3_2 1_555 1_555
O27_2 Zn2_2 1_555 1_555
C5_2 C6_2 1_555 1_555
C10_2 O3_2 1_555 1_555
C15_2 C16_2 1_555 1_555
C17_2 O9_2 1_555 1_555
C17_2 O10_2 1_555 1_555
C25_2 O18_2 1_555 1_555
C29_2 O19_2 1_555 1_555
C31_2 N3_2 1_555 1_555
Zn11 O6_2 1_555 1_555
C4_2 C3_2 1_555 1_555
C8_2 C3_2 1_555 1_555
C9_2 C4_2 1_555 1_555
O5_2 C8_2 1_555 1_555
O6_2 C8_2 1_555 1_555
O7_2 C9_2 1_555 1_555
O8_2 C9_2 1_555 1_555
Zn5_2 O8_2 1_555 1_555
Zn7 O5_2 1_555 1_555
Zn10_2 O7_2 1_555 1_555
O24_2 Zn11 1_555 1_555
C14_2 C13_2 1_555 1_555
C18_2 C13_2 1_555 1_555
C19_2 C14_2 1_555 1_555
C27_2 H17_2 1_555 1_555
H18_2 C27_2 1_555 1_555
H19_2 C27_2 1_555 1_555
H21_2 C28_2 1_555 1_555
H22_2 C28_2 1_555 1_555
C30_2 H23_2 1_555 1_555
H24_2 C30_2 1_555 1_555
H25_2 C30_2 1_555 1_555
C32_2 H29_2 1_555 1_555
H30_2 C32_2 1_555 1_555
H31_2 C32_2 1_555 1_555
O11_2 C18_2 1_555 1_555
O12_2 C18_2 1_555 1_555
O13_2 C19_2 1_555 1_555
O14_2 C19_2 1_555 1_555
Zn6_2 O11_2 1_555 1_555
Zn9_2 O13_2 1_555 1_555
Zn12_2 O12_2 1_555 1_555
C27_2 N2_2 1_555 1_555
C28_2 N2_2 1_555 1_555
Zn1_3 O1_3 1_555 1_555
Zn2_3 O2_3 1_555 1_555
Zn9_2 O3_3 1_555 1_555
Zn12 O6_3 1_555 1_555
C1_3 C2_3 1_555 1_555
C2_3 H1_3 1_555 1_555
C3_3 C2_3 1_555 1_555
C4_3 C3_3 1_555 1_555
C5_3 C4_3 1_555 1_555
H2_3 C5_3 1_555 1_555
C6_3 C1_3 1_555 1_555
C7_3 C1_3 1_555 1_555
C8_3 C3_3 1_555 1_555
C9_3 C4_3 1_555 1_555
C10_3 C6_3 1_555 1_555
C11_3 C12_3 1_555 1_555
C12_3 H3_3 1_555 1_555
C13_3 C12_3 1_555 1_555
C14_3 C13_3 1_555 1_555
C15_3 C14_3 1_555 1_555
H4_3 C15_3 1_555 1_555
C16_3 C11_3 1_555 1_555
C17_3 C11_3 1_555 1_555
C18_3 C13_3 1_555 1_555
C19_3 C14_3 1_555 1_555
C20_3 C16_3 1_555 1_555
C22_3 H5_3 1_555 1_555
H6_3 C22_3 1_555 1_555
C25_3 C26_3 1_555 1_555
C26_3 H14_3 1_555 1_555
H15_3 C26_3 1_555 1_555
H16_3 C26_3 1_555 1_555
C27_3 H17_3 1_555 1_555
H18_3 C27_3 1_555 1_555
H19_3 C27_3 1_555 1_555
C28_3 H20_3 1_555 1_555
H21_3 C28_3 1_555 1_555
H22_3 C28_3 1_555 1_555
C29_3 C30_3 1_555 1_555
C30_3 H23_3 1_555 1_555
H24_3 C30_3 1_555 1_555
H25_3 C30_3 1_555 1_555
C31_3 H26_3 1_555 1_555
H27_3 C31_3 1_555 1_555
H28_3 C31_3 1_555 1_555
C32_3 H29_3 1_555 1_555
H30_3 C32_3 1_555 1_555
H31_3 C32_3 1_555 1_555
O1_3 C7_3 1_555 1_555
O2_3 C7_3 1_555 1_555
O3_3 Zn1_3 1_555 1_555
O4_3 C10_3 1_555 1_555
O5_3 C8_3 1_555 1_555
O6_3 C8_3 1_555 1_555
O7_3 C9_3 1_555 1_555
O8_3 C9_3 1_555 1_555
O9_3 Zn9_2 1_555 1_555
O10_3 Zn1_3 1_555 1_555
O11_3 C18_3 1_555 1_555
O24 C18_3 1_555 1_555
O25_2 C19_3 1_555 1_555
O14_3 C19_3 1_555 1_555
O15_2 C20_3 1_555 1_555
O16_3 C20_3 1_555 1_555
O18_3 Zn1_3 1_555 1_555
O19_3 Zn1_3 1_555 1_555
N2_3 C25_3 1_555 1_555
N3_3 C29_3 1_555 1_555
Zn5_3 O8_3 1_555 1_555
Zn8 O11_3 1_555 1_555
Zn6_2 O16_3 1_555 1_555
Zn6 O5_3 1_555 1_555
Zn10_3 O7_3 1_555 1_555
Zn12_2 O15_2 1_555 1_555
O20_3 Zn2_3 1_555 1_555
O21_3 Zn9_2 1_555 1_555
O22_3 Zn1_3 1_555 1_555
O23_3 Zn2_3 1_555 1_555
O26_2 Zn12 1_555 1_555
O27_3 Zn2_3 1_555 1_555
C5_3 C6_3 1_555 1_555
C10_3 O3_3 1_555 1_555
C15_3 C16_3 1_555 1_555
C17_3 O9_3 1_555 1_555
C17_3 O10_3 1_555 1_555
C25_3 O18_3 1_555 1_555
C27_3 N2_3 1_555 1_555
C28_3 N2_3 1_555 1_555
C29_3 O19_3 1_555 1_555
C31_3 N3_3 1_555 1_555
C32_3 N3_3 1_555 1_555
C19_4 C14_4 1_555 1_555
O25 C19_4 1_555 1_555
O14_4 C19_4 1_555 1_555
C18_4 C13_4 1_555 1_555
C27_4 H17_4 1_555 1_555
H18_4 C27_4 1_555 1_555
H19_4 C27_4 1_555 1_555
H21_4 C28_4 1_555 1_555
H22_4 C28_4 1_555 1_555
C30_4 H23_4 1_555 1_555
H24_4 C30_4 1_555 1_555
H25_4 C30_4 1_555 1_555
C32_4 H29_4 1_555 1_555
H30_4 C32_4 1_555 1_555
H31_4 C32_4 1_555 1_555
O11_4 C18_4 1_555 1_555
O24_2 C18_4 1_555 1_555
Zn7 O11_4 1_555 1_555
C27_4 N2_4 1_555 1_555
C28_4 N2_4 1_555 1_555
H4_4 C15_4 1_555 1_555
C20_4 C16_4 1_555 1_555
O26_2 C20_4 1_555 1_555
O16_4 C20_4 1_555 1_555
Zn6 O16_4 1_555 1_555
C15_4 C16_4 1_555 1_555
Zn1_4 O1_4 1_555 1_555
Zn2_4 O2_4 1_555 1_555
Zn9 O3_4 1_555 1_555
Zn12_2 O6_4 1_555 1_555
C1_4 C2_4 1_555 1_555
C2_4 H1_4 1_555 1_555
C3_4 C2_4 1_555 1_555
C4_4 C3_4 1_555 1_555
C5_4 C4_4 1_555 1_555
H2_4 C5_4 1_555 1_555
C6_4 C1_4 1_555 1_555
C7_4 C1_4 1_555 1_555
C8_4 C3_4 1_555 1_555
C9_4 C4_4 1_555 1_555
C10_4 C6_4 1_555 1_555
C11_4 C12_4 1_555 1_555
C17_4 C11_4 1_555 1_555
C21_2 C22_4 1_555 1_555
C22_4 H5_4 1_555 1_555
H6_4 C22_4 1_555 1_555
H7_2 C22_4 1_555 1_555
C23_2 H8_4 1_555 1_555
H9_4 C23_2 1_555 1_555
H10_2 C23_2 1_555 1_555
C24_2 H11_2 1_555 1_555
H12_2 C24_2 1_555 1_555
H13_2 C24_2 1_555 1_555
C25_4 C26_4 1_555 1_555
C26_4 H14_4 1_555 1_555
H15_4 C26_4 1_555 1_555
H16_4 C26_4 1_555 1_555
C31_4 H26_4 1_555 1_555
H27_4 C31_4 1_555 1_555
H28_4 C31_4 1_555 1_555
O1_4 C7_4 1_555 1_555
O2_4 C7_4 1_555 1_555
O3_4 Zn1_4 1_555 1_555
O4_4 C10_4 1_555 1_555
O5_4 C8_4 1_555 1_555
O6_4 C8_4 1_555 1_555
O7_4 C9_4 1_555 1_555
O8_4 C9_4 1_555 1_555
O9_4 Zn9 1_555 1_555
O10_4 Zn1_4 1_555 1_555
O17_2 Zn12_2 1_555 1_555
O18_4 Zn1_4 1_555 1_555
O19_4 Zn1_4 1_555 1_555
N1_2 C21_2 1_555 1_555
N3_4 C29_4 1_555 1_555
Zn5_4 O8_4 1_555 1_555
Zn6_2 O5_4 1_555 1_555
Zn10_4 O7_4 1_555 1_555
O20_4 Zn2_4 1_555 1_555
O21_4 Zn9 1_555 1_555
O22_4 Zn1_4 1_555 1_555
O23_4 Zn2_4 1_555 1_555
O27_4 Zn2_4 1_555 1_555
C5_4 C6_4 1_555 1_555
C10_4 O3_4 1_555 1_555
C17_4 O9_4 1_555 1_555
C17_4 O10_4 1_555 1_555
C21_2 O17_2 1_555 1_555
C23_2 N1_2 1_555 1_555
C24_2 N1_2 1_555 1_555
C25_4 O18_4 1_555 1_555
C29_4 O19_4 1_555 1_555
C31_4 N3_4 1_555 1_555
C15_5 C14_5 1_555 1_555
H4_5 C15_5 1_555 1_555
C19_5 C14_5 1_555 1_555
C20_5 C16_5 1_555 1_555
O13_3 C19_5 1_555 1_555
O14_5 C19_5 1_555 1_555
O15_3 C20_5 1_555 1_555
O27_3 C20_5 1_555 1_555
Zn10 O13_3 1_555 1_555
Zn11_2 O15_3 1_555 1_555
C15_5 C16_5 1_555 1_555
Zn5_4 O1_5 1_555 1_555
Zn6_2 O2_5 1_555 1_555
Zn10_4 O3_5 1_555 1_555
C1_5 C2_5 1_555 1_555
C2_5 H1_5 1_555 1_555
C6_5 C1_5 1_555 1_555
C7_5 C1_5 1_555 1_555
C10_5 C6_5 1_555 1_555
C11_5 C12_5 1_555 1_555
C12_5 H3_5 1_555 1_555
C13_5 C12_5 1_555 1_555
C17_5 C11_5 1_555 1_555
C18_5 C13_5 1_555 1_555
C21_3 C22_5 1_555 1_555
C22_5 H5_5 1_555 1_555
H6_5 C22_5 1_555 1_555
H7_3 C22_5 1_555 1_555
C23_3 H8_5 1_555 1_555
H9_5 C23_3 1_555 1_555
H10_3 C23_3 1_555 1_555
C25_5 C26_5 1_555 1_555
C26_5 H14_5 1_555 1_555
H15_5 C26_5 1_555 1_555
H16_5 C26_5 1_555 1_555
C27_5 H17_5 1_555 1_555
H18_5 C27_5 1_555 1_555
H19_5 C27_5 1_555 1_555
C28_5 H20_5 1_555 1_555
H21_5 C28_5 1_555 1_555
H22_5 C28_5 1_555 1_555
C29_5 C30_5 1_555 1_555
C30_5 H23_5 1_555 1_555
H24_5 C30_5 1_555 1_555
H25_5 C30_5 1_555 1_555
C31_5 H26_5 1_555 1_555
H27_5 C31_5 1_555 1_555
H28_5 C31_5 1_555 1_555
C32_5 H29_5 1_555 1_555
H30_5 C32_5 1_555 1_555
H31_5 C32_5 1_555 1_555
O1_5 C7_5 1_555 1_555
O2_5 C7_5 1_555 1_555
O3_5 Zn5_4 1_555 1_555
O4_5 C10_5 1_555 1_555
O9_5 Zn10_4 1_555 1_555
O10_5 Zn5_4 1_555 1_555
O23_2 C18_5 1_555 1_555
O12_3 C18_5 1_555 1_555
O18_5 Zn5_4 1_555 1_555
O19_5 Zn5_4 1_555 1_555
N1_3 C21_3 1_555 1_555
N2_5 C25_5 1_555 1_555
N3_5 C29_5 1_555 1_555
Zn12_3 O12_3 1_555 1_555
O25_3 Zn10_4 1_555 1_555
C5_5 C6_5 1_555 1_555
C10_5 O3_5 1_555 1_555
C17_5 O9_5 1_555 1_555
C17_5 O10_5 1_555 1_555
C23_3 N1_3 1_555 1_555
C25_5 O18_5 1_555 1_555
C27_5 N2_5 1_555 1_555
C28_5 N2_5 1_555 1_555
C29_5 O19_5 1_555 1_555
C31_5 N3_5 1_555 1_555
C32_5 N3_5 1_555 1_555
Zn4_2 O6_5 1_555 1_555
C4_5 C3_5 1_555 1_555
C8_5 C3_5 1_555 1_555
C9_5 C4_5 1_555 1_555
C24_3 H11_3 1_555 1_555
H12_3 C24_3 1_555 1_555
H13_3 C24_3 1_555 1_555
O20_4 C8_5 1_555 1_555
O6_5 C8_5 1_555 1_555
O21_4 C9_5 1_555 1_555
O22_4 C9_5 1_555 1_555
O17_3 Zn4_2 1_555 1_555
O24_3 Zn4_2 1_555 1_555
O26_3 Zn4_2 1_555 1_555
C14_6 C13_6 1_555 1_555
C18_6 C13_6 1_555 1_555
C19_6 C14_6 1_555 1_555
C27_6 H17_6 1_555 1_555
H18_6 C27_6 1_555 1_555
H19_6 C27_6 1_555 1_555
H21_6 C28_6 1_555 1_555
H22_6 C28_6 1_555 1_555
C30_6 H23_6 1_555 1_555
H24_6 C30_6 1_555 1_555
H25_6 C30_6 1_555 1_555
C32_6 H29_6 1_555 1_555
H30_6 C32_6 1_555 1_555
H31_6 C32_6 1_555 1_555
O23 C18_6 1_555 1_555
O12_4 C18_6 1_555 1_555
O13_4 C19_6 1_555 1_555
O14_6 C19_6 1_555 1_555
Zn10_2 O13_4 1_555 1_555
Zn12_4 O12_4 1_555 1_555
C27_6 N2_6 1_555 1_555
C28_6 N2_6 1_555 1_555
Zn11_2 O6_6 1_555 1_555
C4_6 C3_6 1_555 1_555
C8_6 C3_6 1_555 1_555
C9_6 C4_6 1_555 1_555
O20_3 C8_6 1_555 1_555
O6_6 C8_6 1_555 1_555
O21_3 C9_6 1_555 1_555
O22_3 C9_6 1_555 1_555
O24_4 Zn11_2 1_555 1_555
Zn5_3 O1_6 1_555 1_555
Zn6 O2_6 1_555 1_555
Zn10_3 O3_6 1_555 1_555
C1_6 C2_6 1_555 1_555
C2_6 H1_6 1_555 1_555
C6_6 C1_6 1_555 1_555
C7_6 C1_6 1_555 1_555
C10_6 C6_6 1_555 1_555
C11_6 C12_6 1_555 1_555
H4_6 C15_6 1_555 1_555
C16_6 C11_6 1_555 1_555
C17_6 C11_6 1_555 1_555
C20_6 C16_6 1_555 1_555
C22_6 H5_6 1_555 1_555
H6_6 C22_6 1_555 1_555
C25_6 C26_6 1_555 1_555
C26_6 H14_6 1_555 1_555
H15_6 C26_6 1_555 1_555
H16_6 C26_6 1_555 1_555
C31_6 H26_6 1_555 1_555
H27_6 C31_6 1_555 1_555
H28_6 C31_6 1_555 1_555
O1_6 C7_6 1_555 1_555
O2_6 C7_6 1_555 1_555
O3_6 Zn5_3 1_555 1_555
O4_6 C10_6 1_555 1_555
O9_6 Zn10_3 1_555 1_555
O10_6 Zn5_3 1_555 1_555
O26_3 C20_6 1_555 1_555
O27_4 C20_6 1_555 1_555
O18_6 Zn5_3 1_555 1_555
O19_6 Zn5_3 1_555 1_555
N3_6 C29_6 1_555 1_555
O25_4 Zn10_3 1_555 1_555
C5_6 C6_6 1_555 1_555
C10_6 O3_6 1_555 1_555
C15_6 C16_6 1_555 1_555
C17_6 O9_6 1_555 1_555
C17_6 O10_6 1_555 1_555
C25_6 O18_6 1_555 1_555
C29_6 O19_6 1_555 1_555
C31_6 N3_6 1_555 1_555
Zn5_2 O1_7 1_555 1_555
Zn7 O2_7 1_555 1_555
Zn10_2 O3_7 1_555 1_555
Zn12_3 O6_7 1_555 1_555
C1_7 C2_7 1_555 1_555
C2_7 H1_7 1_555 1_555
C3_7 C2_7 1_555 1_555
C4_7 C3_7 1_555 1_555
C5_7 C4_7 1_555 1_555
H2_7 C5_7 1_555 1_555
C6_7 C1_7 1_555 1_555
C7_7 C1_7 1_555 1_555
C8_7 C3_7 1_555 1_555
C9_7 C4_7 1_555 1_555
C10_7 C6_7 1_555 1_555
C11_7 C12_7 1_555 1_555
C12_7 H3_7 1_555 1_555
C13_7 C12_7 1_555 1_555
C14_7 C13_7 1_555 1_555
C15_7 C14_7 1_555 1_555
H4_7 C15_7 1_555 1_555
C16_7 C11_7 1_555 1_555
C17_7 C11_7 1_555 1_555
C18_7 C13_7 1_555 1_555
C19_7 C14_7 1_555 1_555
C20_7 C16_7 1_555 1_555
C22_7 H5_7 1_555 1_555
H6_7 C22_7 1_555 1_555
C25_7 C26_7 1_555 1_555
C26_7 H14_7 1_555 1_555
H15_7 C26_7 1_555 1_555
H16_7 C26_7 1_555 1_555
C27_7 H17_7 1_555 1_555
H18_7 C27_7 1_555 1_555
H19_7 C27_7 1_555 1_555
C28_7 H20_7 1_555 1_555
H21_7 C28_7 1_555 1_555
H22_7 C28_7 1_555 1_555
C29_7 C30_7 1_555 1_555
C30_7 H23_7 1_555 1_555
H24_7 C30_7 1_555 1_555
H25_7 C30_7 1_555 1_555
C31_7 H26_7 1_555 1_555
H27_7 C31_7 1_555 1_555
H28_7 C31_7 1_555 1_555
C32_7 H29_7 1_555 1_555
H30_7 C32_7 1_555 1_555
H31_7 C32_7 1_555 1_555
O1_7 C7_7 1_555 1_555
O2_7 C7_7 1_555 1_555
O3_7 Zn5_2 1_555 1_555
O4_7 C10_7 1_555 1_555
O20_2 C8_7 1_555 1_555
O6_7 C8_7 1_555 1_555
O21_2 C9_7 1_555 1_555
O22_2 C9_7 1_555 1_555
O9_7 Zn10_2 1_555 1_555
O10_7 Zn5_2 1_555 1_555
O23_4 C18_7 1_555 1_555
O24_3 C18_7 1_555 1_555
O25_4 C19_7 1_555 1_555
O14_7 C19_7 1_555 1_555
O15_4 C20_7 1_555 1_555
O27 C20_7 1_555 1_555
O18_7 Zn5_2 1_555 1_555
O19_7 Zn5_2 1_555 1_555
N2_7 C25_7 1_555 1_555
N3_7 C29_7 1_555 1_555
Zn12_4 O15_4 1_555 1_555
O26_4 Zn12_3 1_555 1_555
C5_7 C6_7 1_555 1_555
C10_7 O3_7 1_555 1_555
C15_7 C16_7 1_555 1_555
C17_7 O9_7 1_555 1_555
C17_7 O10_7 1_555 1_555
C25_7 O18_7 1_555 1_555
C27_7 N2_7 1_555 1_555
C28_7 N2_7 1_555 1_555
C29_7 O19_7 1_555 1_555
C31_7 N3_7 1_555 1_555
C32_7 N3_7 1_555 1_555
Zn5 O1_8 1_555 1_555
Zn8 O2_8 1_555 1_555
Zn10 O3_8 1_555 1_555
Zn12_4 O6_8 1_555 1_555
C1_8 C2_8 1_555 1_555
C2_8 H1_8 1_555 1_555
C3_8 C2_8 1_555 1_555
C4_8 C3_8 1_555 1_555
C5_8 C4_8 1_555 1_555
H2_8 C5_8 1_555 1_555
C6_8 C1_8 1_555 1_555
C7_8 C1_8 1_555 1_555
C8_8 C3_8 1_555 1_555
C9_8 C4_8 1_555 1_555
C10_8 C6_8 1_555 1_555
C11_8 C12_8 1_555 1_555
C17_8 C11_8 1_555 1_555
C21_4 C22_8 1_555 1_555
C22_8 H5_8 1_555 1_555
H6_8 C22_8 1_555 1_555
H7_4 C22_8 1_555 1_555
C23_4 H8_8 1_555 1_555
H9_8 C23_4 1_555 1_555
H10_4 C23_4 1_555 1_555
C24_4 H11_4 1_555 1_555
H12_4 C24_4 1_555 1_555
H13_4 C24_4 1_555 1_555
C25_8 C26_8 1_555 1_555
C26_8 H14_8 1_555 1_555
H15_8 C26_8 1_555 1_555
H16_8 C26_8 1_555 1_555
C31_8 H26_8 1_555 1_555
H27_8 C31_8 1_555 1_555
H28_8 C31_8 1_555 1_555
O1_8 C7_8 1_555 1_555
O2_8 C7_8 1_555 1_555
O3_8 Zn5 1_555 1_555
O4_8 C10_8 1_555 1_555
O20 C8_8 1_555 1_555
O6_8 C8_8 1_555 1_555
O21 C9_8 1_555 1_555
O22 C9_8 1_555 1_555
O9_8 Zn10 1_555 1_555
O10_8 Zn5 1_555 1_555
O17_4 Zn12_4 1_555 1_555
O18_8 Zn5 1_555 1_555
O19_8 Zn5 1_555 1_555
N1_4 C21_4 1_555 1_555
N3_8 C29_8 1_555 1_555
C5_8 C6_8 1_555 1_555
C10_8 O3_8 1_555 1_555
C17_8 O9_8 1_555 1_555
C17_8 O10_8 1_555 1_555
C21_4 O17_4 1_555 1_555
C23_4 N1_4 1_555 1_555
C24_4 N1_4 1_555 1_555
C25_8 O18_8 1_555 1_555
C29_8 O19_8 1_555 1_555
C31_8 N3_8 1_555 1_555
H4_8 C15_8 1_555 1_555
C20_8 C16_8 1_555 1_555
O26_4 C20_8 1_555 1_555
O27_2 C20_8 1_555 1_555
C15_8 C16_8 1_555 1_555
C18_8 C13_8 1_555 1_555
C27_8 H17_8 1_555 1_555
H18_8 C27_8 1_555 1_555
H19_8 C27_8 1_555 1_555
H21_8 C28_8 1_555 1_555
H22_8 C28_8 1_555 1_555
C30_8 H23_8 1_555 1_555
H24_8 C30_8 1_555 1_555
H25_8 C30_8 1_555 1_555
C32_8 H29_8 1_555 1_555
H30_8 C32_8 1_555 1_555
H31_8 C32_8 1_555 1_555
O23_3 C18_8 1_555 1_555
O24_4 C18_8 1_555 1_555
C27_8 N2_8 1_555 1_555
C28_8 N2_8 1_555 1_555
C19_8 C14_8 1_555 1_555
O25_3 C19_8 1_555 1_555
O14_8 C19_8 1_555 1_555
H10_5 C23_5 1_555 1_555
N1_5 C21_5 1_555 1_555
C23_5 N1_5 1_555 1_555
C24_5 H11_5 1_555 1_555
H12_5 C24_5 1_555 1_555
H13_5 C24_5 1_555 1_555
H10_6 C23_6 1_555 1_555
C24_6 H11_6 1_555 1_555
H12_6 C24_6 1_555 1_555
H13_6 C24_6 1_555 1_555
N1_6 C21_6 1_555 1_555
C21_6 O17_6 1_555 1_555
C23_6 N1_6 1_555 1_555
C24_6 N1_6 1_555 1_555
C24_7 H11_7 1_555 1_555
H12_7 C24_7 1_555 1_555
H13_7 C24_7 1_555 1_555
H10_7 C23_7 1_555 1_555
N1_7 C21_7 1_555 1_555
C23_7 N1_7 1_555 1_555
H10_8 C23_8 1_555 1_555
C24_8 H11_8 1_555 1_555
H12_8 C24_8 1_555 1_555
H13_8 C24_8 1_555 1_555
N1_8 C21_8 1_555 1_555
C21_8 O17_8 1_555 1_555
C23_8 N1_8 1_555 1_555
C24_8 N1_8 1_555 1_555

#END
