
###############################################################################
#
# This file contains modified crystal structure data generated from the
# MOF subset of the Cambridge Structural Database (CSD) v543 
# hosted by the Cambridge Crystallographic Data Centre (CCDC).
#
# This work is licensed under the Creative Commons
# Attribution-NonCommercial-ShareAlike 4.0 International License.
# To view a copy of this license, visit
# http://creativecommons.org/licenses/by-nc-sa/4.0/
# or send a letter to
# Creative Commons, PO Box 1866, Mountain View, CA 94042, USA.
#
# CIF created using the CSD Python API on 29 September 2022
# The structure has been converted into the P1 space group
# The structure has a 3D framework
# The original CSD entry LARRIJ is in the hexagonal crystal system
# The original CSD entry LARRIJ is in a Sohncke space group
# The framework has been calculated to contain at least 10.0% void space
# The void calculation uses a probe of radius 1.32A, grid spacing 0.4
#
###############################################################################

data_LARRIJ
_chemical_formula_moiety         '(C508 H339 In30 N24 O169)n'
_symmetry_cell_setting           triclinic
_symmetry_space_group_name_H-M   'P 1'
_symmetry_Int_Tables_number      1
_space_group_name_Hall           'P 1'
loop_
_symmetry_equiv_pos_site_id
_symmetry_equiv_pos_as_xyz
1 x,y,z
_cell_length_a                   37.5060(8)
_cell_length_b                   37.5060(8)
_cell_length_c                   16.9308(7)
_cell_angle_alpha                90
_cell_angle_beta                 90
_cell_angle_gamma                120
_cell_volume                     20625.7
loop_
_atom_site_label
_atom_site_type_symbol
_atom_site_fract_x
_atom_site_fract_y
_atom_site_fract_z
In4 In 0.08421(2) 0.47015(2) 0.24672(3)
C64 C 0.0393(3) 0.3750(3) 0.2667(5)
C66 C 0.0764(4) 0.2677(4) 0.7726(6)
C67 C 0.0370(3) 0.3395(3) 0.3132(6)
C68 C 0.0029(3) 0.3007(3) 0.3089(6)
C69 C -0.0000(4) 0.2689(3) 0.3587(6)
C70 C 0.0303(3) 0.2743(3) 0.4050(6)
C71 C 0.0650(4) 0.3111(3) 0.4087(7)
H39 H 0.086982 0.314638 0.439835
C72 C 0.0676(3) 0.3452(3) 0.3633(6)
H40 H 0.090588 0.371265 0.368715
C74 C 0.0173(4) 0.1666(3) 0.2994(6)
H41 H 0.028967 0.167166 0.250578
C75 C 0.0289(4) 0.2030(3) 0.3398(6)
H42 H 0.047591 0.227742 0.316116
C76 C 0.0139(4) 0.2040(3) 0.4130(6)
C79 C 0.0629(2) 0.2602(2) 0.6894(3)
C80 C 0.0652(3) 0.2298(2) 0.6462(4)
H45 H 0.075226 0.214199 0.669756
C81 C 0.0525(3) 0.2229(2) 0.5678(4)
H46 H 0.054052 0.202649 0.538905
C82 C 0.0376(2) 0.2463(2) 0.5326(3)
C83 C 0.0353(3) 0.2766(2) 0.5758(4)
H47 H 0.025262 0.292276 0.552293
C84 C 0.0480(3) 0.2835(2) 0.6542(4)
H48 H 0.046436 0.303827 0.683144
N4 N 0.0271(3) 0.2418(2) 0.4518(5)
O19 O 0.0625(2) 0.40937(16) 0.2935(4)
O20 O 0.0194(2) 0.36596(19) 0.2029(4)
O23 O 0.0926(5) 0.2486(5) 0.7993(7)
H50 H 0.098264 0.255582 0.847456
O24 O 0.0763(5) 0.2972(5) 0.8097(7)
O27 O 0.02691(17) 0.45145(19) 0.1982(3)
H53 H 0.013087 0.465816 0.207768
O28 O 0.07469(16) 0.49716(16) 0.3473(3)
H54 H 0.051035 0.482953 0.377789
H55 H 0.000046 0.000022 0.215692
In9 In 0.12071(2) 0.55826(2) 0.37626(4)
O32 O 0.05456(19) 0.42326(28) 0.0554(4)
O33 O 0.10527(19) 0.45113(27) 0.1442(3)
O34 O 0.14203(19) 0.48395(26) 0.2966(4)
O36 O 0.1139(3) 0.52767(18) 0.1816(4)
O39 O 0.05691(19) 0.09991(28) 0.1626(3)
O41 O 0.0131(2) 0.0285(3) 0.0488(5)
C44 C 0.0009(3) 0.1045(3) 0.9698(6)
H25 H 0.003769 0.300871 0.988086
H29 H 0.017080 0.137176 0.825624
O16 O 0.0218(2) 0.0926(2) 0.9306(4)
In14 In 0.05737(2) 0.06359(3) 0.96345(4)
In2 In 0.91734(2) 0.39216(2) 0.00648(2)
In3 In 0.99989(2) 0.39861(2) 0.12525(4)
In5 In 0.99378(2) 0.05737(2) 0.13012(4)
C3 C 0.6476(3) 0.0914(3) 0.2400(5)
C8 C 0.7522(3) 0.2432(3) 0.0041(7)
H3 H 0.752847 0.221756 0.030561
H4 H 0.813092 0.285150 0.011894
C16 C 0.6590(3) 0.1218(3) 0.1744(5)
C17 C 0.6721(4) 0.1622(3) 0.1868(6)
H9 H 0.675573 0.172434 0.238045
C18 C 0.6802(4) 0.1883(3) 0.1227(6)
H10 H 0.691519 0.216343 0.131970
C19 C 0.6725(4) 0.1751(3) 0.0507(6)
C20 C 0.6585(5) 0.1345(4) 0.0370(7)
C21 C 0.6519(4) 0.1081(4) 0.0973(6)
H12 H 0.642419 0.080460 0.086573
C22 C 0.9076(3) 0.3575(3) 0.1769(6)
C23 C 0.6549(2) 0.1721(3) 0.4833(5)
C24 C 0.8731(3) 0.4357(3) 0.6942(6)
C25 C 0.8791(2) 0.3465(3) 0.2433(5)
C26 C 0.8382(3) 0.3323(3) 0.2311(6)
H13 H 0.828144 0.326480 0.179727
C27 C 0.8107(3) 0.3259(3) 0.2927(6)
H14 H 0.783372 0.318308 0.282677
C28 C 0.8258(3) 0.3316(3) 0.3700(6)
C29 C 0.8674(3) 0.3451(4) 0.3834(6)
H15 H 0.877390 0.348751 0.434770
C30 C 0.8931(3) 0.3529(4) 0.3214(6)
H16 H 0.920905 0.362877 0.331105
C31 C 0.6910(3) 0.2135(2) 0.4682(6)
C32 C 0.7237(3) 0.2150(3) 0.4249(7)
H17 H 0.721539 0.191114 0.403856
C33 C 0.7594(3) 0.2528(3) 0.4137(7)
H18 H 0.781363 0.253983 0.386018
C34 C 0.7624(3) 0.2882(3) 0.4432(6)
C35 C 0.7309(3) 0.2861(3) 0.4850(8)
H19 H 0.733275 0.309971 0.506699
C36 C 0.6945(3) 0.2484(3) 0.4964(7)
H20 H 0.672651 0.247719 0.523755
C37 C 0.8535(3) 0.4066(3) 0.6268(6)
C38 C 0.8533(4) 0.4222(3) 0.5525(6)
H21 H 0.864541 0.450371 0.544921
C39 C 0.8362(4) 0.3951(3) 0.4902(5)
H22 H 0.837546 0.405558 0.439807
C40 C 0.8167(3) 0.3518(3) 0.5006(6)
C41 C 0.8163(4) 0.3379(3) 0.5751(7)
H23 H 0.804687 0.309765 0.583242
C42 C 0.8324(4) 0.3638(3) 0.6385(6)
H24 H 0.829396 0.353026 0.689139
H32 H 0.945076 0.125529 0.009364
C65 C 0.9750(3) 0.0902(3) 0.2899(5)
H37 H 0.981864 0.295351 0.273555
C69_2 C 1.0000(4) 0.2689(3) 0.3587(6)
H38 H 0.975920 0.243460 0.358509
C73 C 0.9881(3) 0.1292(3) 0.3321(5)
C77 C 0.9849(4) 0.1676(3) 0.4443(6)
H43 H 0.972709 0.167409 0.492280
C78 C 0.9729(4) 0.1300(3) 0.4053(5)
H44 H 0.954391 0.105341 0.429626
N2 N 0.7994(3) 0.3260(3) 0.4340(5)
O5 O 0.6313(2) 0.05456(19) 0.2221(4)
O6 O 0.65414(19) 0.10527(19) 0.3109(3)
O7 O 0.89513(18) 0.3514(2) 0.1101(4)
O8 O 0.9464(2) 0.3719(3) 0.1964(4)
O9 O 0.65808(18) 0.14203(19) 0.4633(4)
O10 O 0.6238(2) 0.17074(18) 0.5134(5)
O11 O 0.8861(3) 0.47233(18) 0.6816(4)
O12 O 0.8746(2) 0.4192(2) 0.7590(4)
O13 O 0.9769(2) 0.34622(19) 0.0470(4)
O15 O 0.9933(2) 0.0988(2) 0.0431(4)
O21 O 0.9570(2) 0.05691(19) 0.3293(3)
O22 O 0.9820(2) 0.0928(2) 0.2148(4)
O26 O 0.97544(17) 0.42810(18) 0.0544(4)
H52 H 0.990122 0.456336 0.045399
O29 O 0.9846(2) 0.0131(2) 0.2155(5)
In6 In 0.87929(2) 0.44174(2) 0.87626(4)
In8 In 0.56245(3) 0.12071(2) 0.54293(4)
In12 In 0.91579(2) 0.52985(2) 0.74672(3)
In13 In 0.61406(3) 0.08421(2) 0.41339(3)
O31 O 0.8908(3) 0.4220(4) 0.0731(4)
O38 O 0.9292(3) 0.0218(2) 0.0973(4)
C1 C 0.8282(2) 0.3509(2) 0.9394(5)
C2 C 0.5697(2) 0.1256(3) 0.7251(5)
C4 C 0.7886(2) 0.3121(3) 0.9503(5)
C5 C 0.7520(3) 0.3073(3) 0.9220(7)
H1 H 0.751959 0.328641 0.894088
C6 C 0.7158(3) 0.2715(4) 0.9344(7)
H2 H 0.691308 0.268824 0.915560
C7 C 0.7153(3) 0.2390(3) 0.9751(6)
C9 C 0.7884(3) 0.2812(3) 0.9913(7)
C10 C 0.5978(3) 0.1458(3) 0.7930(5)
C11 C 0.5830(3) 0.1435(4) 0.8665(7)
H5 H 0.554706 0.129125 0.875019
C12 C 0.6102(3) 0.1628(5) 0.9311(7)
H6 H 0.599740 0.160285 0.981878
C13 C 0.6507(3) 0.1844(3) 0.9186(6)
C14 C 0.6680(3) 0.1843(4) 0.8420(7)
H7 H 0.696232 0.196454 0.834033
C15 C 0.6399(3) 0.1649(4) 0.7812(6)
H8 H 0.649734 0.164695 0.730919
H11 H 0.653465 0.124676 0.985375
C43 C 0.9569(3) 0.3360(3) 0.9839(6)
C45 C 0.8928(5) 0.1705(4) 0.4904(7)
C46 C 0.9540(3) 0.3007(3) 0.9385(6)
C47 C 0.9826(4) 0.2874(3) 0.9517(7)
C48 C 0.9785(4) 0.2544(3) 0.9102(6)
H26 H 0.996198 0.244467 0.922000
C49 C 0.9502(4) 0.2355(3) 0.8531(7)
C50 C 0.9218(4) 0.2477(3) 0.8413(7)
H27 H 0.900681 0.233899 0.804899
C51 C 0.9244(4) 0.2804(4) 0.8834(6)
H28 H 0.905254 0.288758 0.873708
C52 C 0.9858(3) 0.1285(3) 0.9280(6)
C53 C 0.9989(4) 0.1433(3) 0.8513(6)
C54 C 0.9853(4) 0.1668(4) 0.8132(6)
H30 H 0.994585 0.176476 0.762468
C55 C 0.9584(4) 0.1760(3) 0.8496(6)
C56 C 0.9431(4) 0.1596(3) 0.9221(6)
H31 H 0.923476 0.164303 0.945623
C57 C 0.9562(3) 0.1365(3) 0.9602(7)
C58 C 0.9058(3) 0.1783(2) 0.5748(3)
C59 C 0.9285(3) 0.21848(18) 0.6022(4)
H33 H 0.935135 0.240410 0.568253
C60 C 0.9414(2) 0.22593(17) 0.6805(4)
H34 H 0.956581 0.252829 0.698904
C61 C 0.9315(3) 0.1932(2) 0.7313(3)
C62 C 0.9087(3) 0.15294(18) 0.7038(4)
H35 H 0.902116 0.131019 0.737836
C63 C 0.8959(3) 0.14550(17) 0.6256(4)
H36 H 0.880670 0.118599 0.607184
N1 N 0.6784(3) 0.2012(3) 0.9852(5)
N3 N 0.9479(3) 0.2027(3) 0.8096(5)
O1 O 0.8284(2) 0.3803(2) 0.9050(5)
O2 O 0.86009(19) 0.34958(19) 0.9607(5)
O3 O 0.5848(2) 0.1257(2) 0.6614(4)
O4 O 0.5312(2) 0.1092(3) 0.7398(4)
O14 O 0.9376(2) 0.35288(19) 0.9552(4)
O17 O 0.8674(5) 0.1342(5) 0.4745(8)
H49 H 0.861487 0.135326 0.426423
O18 O 0.9009(5) 0.1965(4) 0.4472(6)
O25 O 0.92575(17) 0.42776(18) 0.9060(3)
H51 H 0.949311 0.437051 0.875326
In10 In 0.47482(3) 0.08266(2) 0.67315(2)
O30 O 0.8743(2) 0.4591(3) 0.9947(4)
O35 O 0.82926(18) 0.45306(27) 0.8467(5)
O40 O 0.92531(16) 0.50284(16) 0.8473(3)
In11 In 0.60128(3) 0.99989(2) 0.29192(4)
In15 In 0.93641(3) 0.99378(2) 0.29679(4)
H55_2 H -0.000022 1.000024 0.549025
In11_2 In 0.00011(2) 0.60139(4) 0.62525(4)
In15_2 In 0.00622(2) 0.94263(4) 0.63012(4)
C24_2 C 0.5643(3) 0.4374(4) 0.0275(6)
H24_2 H 0.646974 0.476370 0.022472
C66_2 C 0.7323(4) 0.8087(6) 0.1059(6)
C79_2 C 0.7398(2) 0.8027(3) 0.0227(3)
H45_2 H 0.785801 0.861027 0.003089
H48_2 H 0.696173 0.742609 0.016477
O11_2 O 0.52767(18) 0.41377(35) 0.0149(4)
O12_2 O 0.5808(2) 0.4554(3) 0.0923(4)
O23_2 O 0.7514(5) 0.8440(7) 0.1326(7)
H50_2 H 0.744418 0.842682 0.180789
O24_2 O 0.7028(5) 0.7791(7) 0.1430(7)
In6_2 In 0.55826(2) 0.43755(3) 0.20959(4)
In12_2 In 0.47015(2) 0.38594(3) 0.08005(3)
In2_2 In 0.60784(2) 0.52518(3) 0.33981(2)
In3_2 In 0.60139(2) 0.60128(3) 0.45858(4)
In4_2 In 0.52985(2) 0.61406(3) 0.58005(3)
In5_2 In 0.94263(2) 0.93641(3) 0.46345(4)
C1_2 C 0.6491(2) 0.4773(3) 0.2727(5)
C2_2 C 0.8744(3) 0.4441(4) 0.0584(5)
C3_2 C 0.9086(3) 0.5562(4) 0.5733(5)
C4_2 C 0.6879(3) 0.4765(4) 0.2836(5)
C5_2 C 0.6927(3) 0.4447(4) 0.2553(7)
H1_2 H 0.671359 0.423318 0.227421
C6_2 C 0.7285(4) 0.4443(5) 0.2677(7)
H2_2 H 0.731176 0.422484 0.248893
C7_2 C 0.7610(3) 0.4763(4) 0.3084(6)
C8_2 C 0.7568(3) 0.5090(4) 0.3374(7)
H3_2 H 0.778244 0.531091 0.363894
C9_2 C 0.7188(3) 0.5072(4) 0.3246(7)
H4_2 H 0.714850 0.527942 0.345227
C10_2 C 0.8542(3) 0.4520(4) 0.1263(5)
C11_2 C 0.8565(4) 0.4395(5) 0.1998(7)
H5_2 H 0.870875 0.425581 0.208352
C12_2 C 0.8372(5) 0.4474(6) 0.2644(7)
H6_2 H 0.839715 0.439455 0.315211
C13_2 C 0.8156(3) 0.4663(4) 0.2519(6)
C14_2 C 0.8157(4) 0.4837(5) 0.1753(7)
H7_2 H 0.803546 0.499778 0.167366
C15_2 C 0.8351(4) 0.4750(5) 0.1145(6)
H8_2 H 0.835305 0.485039 0.064252
C16_2 C 0.8782(3) 0.5372(4) 0.5077(5)
C17_2 C 0.8378(3) 0.5099(5) 0.5201(6)
H9_2 H 0.827566 0.503139 0.571378
C18_2 C 0.8117(3) 0.4919(5) 0.4560(6)
H10_2 H 0.783657 0.475176 0.465303
C19_2 C 0.8249(3) 0.4974(5) 0.3840(6)
C20_2 C 0.8655(4) 0.5240(6) 0.3703(7)
H11_2 H 0.875324 0.528789 0.318708
C21_2 C 0.8919(4) 0.5438(6) 0.4306(6)
H12_2 H 0.919540 0.561959 0.419906
C22_2 C 0.6425(3) 0.5501(4) 0.5102(6)
C23_2 C 0.8279(3) 0.4828(4) 0.8166(5)
C25_2 C 0.6535(3) 0.5326(4) 0.5766(5)
C26_2 C 0.6677(3) 0.5059(4) 0.5644(6)
H13_2 H 0.673520 0.501664 0.513060
C27_2 C 0.6741(3) 0.4848(4) 0.6260(6)
H14_2 H 0.681692 0.465064 0.616010
C28_2 C 0.6684(3) 0.4942(4) 0.7033(6)
C29_2 C 0.6549(4) 0.5223(5) 0.7167(6)
H15_2 H 0.651249 0.528639 0.768103
C30_2 C 0.6471(4) 0.5402(5) 0.6547(6)
H16_2 H 0.637123 0.558028 0.664438
C31_2 C 0.7865(2) 0.4775(4) 0.8015(6)
C32_2 C 0.7850(3) 0.5087(4) 0.7582(7)
H17_2 H 0.808886 0.530425 0.737189
C33_2 C 0.7472(3) 0.5066(4) 0.7470(7)
H18_2 H 0.746017 0.527380 0.719351
C34_2 C 0.7118(3) 0.4742(4) 0.7765(6)
C35_2 C 0.7139(3) 0.4448(4) 0.8183(8)
H19_2 H 0.690029 0.423304 0.840032
C36_2 C 0.7516(3) 0.4461(4) 0.8297(7)
H20_2 H 0.752281 0.424932 0.857088
C37_2 C 0.5934(3) 0.4469(4) 0.9601(6)
C38_2 C 0.5778(3) 0.4311(5) 0.8858(6)
H21_2 H 0.549629 0.414170 0.878254
C39_2 C 0.6049(3) 0.4411(5) 0.8235(5)
H22_2 H 0.594442 0.431988 0.773140
C40_2 C 0.6482(3) 0.4649(4) 0.8339(6)
C41_2 C 0.6621(3) 0.4784(5) 0.9084(7)
H23_2 H 0.690235 0.494922 0.916575
C42_2 C 0.6362(3) 0.4686(5) 0.9718(6)
C43_2 C 0.6640(3) 0.6209(4) 0.3172(6)
C44_2 C 0.8955(3) 0.8964(4) 0.3031(6)
C46_2 C 0.6993(3) 0.6533(4) 0.2718(6)
C47_2 C 0.7126(3) 0.6952(5) 0.2850(7)
H25_2 H 0.699129 0.702898 0.321419
C48_2 C 0.7456(3) 0.7241(5) 0.2435(6)
H26_2 H 0.755533 0.751731 0.255333
C49_2 C 0.7645(3) 0.7147(5) 0.1864(7)
C50_2 C 0.7523(3) 0.6741(5) 0.1746(7)
H27_2 H 0.766101 0.666782 0.138232
C51_2 C 0.7196(4) 0.6440(6) 0.2167(6)
H28_2 H 0.711242 0.616496 0.207041
C52_2 C 0.8715(3) 0.8573(4) 0.2613(6)
C53_2 C 0.8567(3) 0.8556(5) 0.1846(6)
H29_2 H 0.862824 0.879904 0.158957
C54_2 C 0.8332(4) 0.8185(6) 0.1465(6)
H30_2 H 0.823524 0.818109 0.095801
C55_2 C 0.8240(3) 0.7824(5) 0.1829(6)
C56_2 C 0.8404(3) 0.7835(5) 0.2554(6)
H31_2 H 0.835697 0.759173 0.278956
C57_2 C 0.8635(3) 0.8197(4) 0.2935(7)
H32_2 H 0.874471 0.819547 0.342697
C60_2 C 0.77407(17) 0.71547(26) 0.0138(4)
H34_2 H 0.747171 0.703752 0.032237
C61_2 C 0.8068(2) 0.7383(4) 0.0646(3)
C62_2 C 0.84706(18) 0.75576(35) 0.0371(4)
H35_2 H 0.868981 0.771097 0.071169
C64_2 C 0.6250(3) 0.6643(4) 0.6000(5)
C65_2 C 0.9098(3) 0.8848(4) 0.6232(5)
C67_2 C 0.6605(3) 0.6975(4) 0.6465(6)
C68_2 C 0.6993(3) 0.7022(4) 0.6422(6)
H37_2 H 0.704649 0.686513 0.606888
C69_3 C 0.7311(3) 0.7311(5) 0.6920(6)
H38_2 H 0.756540 0.732460 0.691842
C70_2 C 0.7257(3) 0.7560(4) 0.7383(6)
C71_2 C 0.6889(3) 0.7539(5) 0.7420(7)
H39_2 H 0.685362 0.772344 0.773168
C72_2 C 0.6548(3) 0.7224(4) 0.6966(6)
H40_2 H 0.628735 0.719323 0.702048
C73_2 C 0.8708(3) 0.8589(4) 0.6654(5)
C74_2 C 0.8334(3) 0.8507(5) 0.6327(6)
H41_2 H 0.832834 0.861801 0.583911
C75_2 C 0.7970(3) 0.8259(5) 0.6731(6)
H42_2 H 0.772258 0.819849 0.649449
C76_2 C 0.7960(3) 0.8099(5) 0.7463(6)
C77_2 C 0.8324(3) 0.8173(5) 0.7776(6)
H43_2 H 0.832591 0.805300 0.825613
C78_2 C 0.8700(3) 0.8429(5) 0.7386(5)
H44_2 H 0.894659 0.849050 0.762959
C80_2 C 0.7702(2) 0.8354(4) 0.9795(4)
C81_2 C 0.7771(2) 0.8296(4) 0.9011(4)
H46_2 H 0.797351 0.851403 0.872238
C82_2 C 0.7537(2) 0.7913(3) 0.8659(3)
C83_2 C 0.7234(2) 0.7587(4) 0.9091(4)
H47_2 H 0.707724 0.732986 0.885626
C84_2 C 0.7165(2) 0.7645(4) 0.9875(4)
N1_2 N 0.7988(3) 0.4772(4) 0.3185(5)
N2_2 N 0.6740(3) 0.4734(4) 0.7673(5)
N3_2 N 0.7973(3) 0.7452(4) 0.1429(5)
N4_2 N 0.7582(2) 0.7853(4) 0.7851(5)
O1_2 O 0.6197(2) 0.4481(3) 0.2383(5)
O2_2 O 0.65042(19) 0.51051(27) 0.2940(5)
O5_2 O 0.94544(19) 0.57674(28) 0.5554(4)
O6_2 O 0.89473(19) 0.54887(27) 0.6442(3)
O7_2 O 0.6486(2) 0.54373(27) 0.4434(4)
O8_2 O 0.6281(3) 0.5745(4) 0.5297(4)
O9_2 O 0.85797(19) 0.51605(26) 0.7966(4)
O13_2 O 0.65378(19) 0.63068(28) 0.3803(4)
O14_2 O 0.64712(19) 0.58472(28) 0.2885(4)
O15_2 O 0.9012(2) 0.8945(3) 0.3764(4)
O16_2 O 0.9074(2) 0.9292(3) 0.2639(4)
O19_2 O 0.59063(16) 0.65313(26) 0.6268(4)
O20_2 O 0.63404(19) 0.65344(28) 0.5362(4)
O21_2 O 0.94309(19) 0.90009(28) 0.6626(3)
O22_2 O 0.9072(2) 0.8892(3) 0.5481(4)
O25_2 O 0.57224(18) 0.49799(25) 0.2393(3)
H51_2 H 0.562949 0.512260 0.208659
O26_2 O 0.57190(18) 0.54734(25) 0.3877(4)
H52_2 H 0.543664 0.533786 0.378732
O27_2 O 0.54855(19) 0.57546(25) 0.5315(3)
H53_2 H 0.534184 0.547271 0.541101
O28_2 O 0.50284(16) 0.57753(23) 0.6806(3)
H54_2 H 0.517047 0.568082 0.711122
O29_2 O 0.9869(2) 0.9715(3) 0.5488(5)
H55_3 H 0.999978 1.000024 0.549025
In9_2 In 0.44174(2) 0.56245(3) 0.70959(4)
O30_2 O 0.5409(3) 0.4152(4) 0.3281(4)
O31_2 O 0.5780(4) 0.4688(5) 0.4065(4)
O32_2 O 0.57674(28) 0.63130(34) 0.3888(4)
O33_2 O 0.54887(27) 0.65414(33) 0.4776(3)
O34_2 O 0.51605(26) 0.65808(32) 0.6300(4)
O35_2 O 0.54694(27) 0.37620(32) 0.1801(5)
O36_2 O 0.47233(18) 0.58623(35) 0.5149(4)
O38_2 O 0.9782(2) 0.9074(4) 0.4306(4)
O39_2 O 0.90009(28) 0.95700(34) 0.4960(3)
O40_2 O 0.49716(16) 0.42247(23) 0.1806(3)
O41_2 O 0.9715(3) 0.9846(4) 0.3822(5)
C45_2 C 0.8295(4) 0.7223(6) 0.8237(7)
C58_2 C 0.8217(2) 0.7275(4) 0.9081(3)
C59_2 C 0.78152(18) 0.71002(35) 0.9355(4)
H33_2 H 0.759590 0.694725 0.901586
C63_2 C 0.85450(17) 0.75040(34) 0.9589(4)
H36_2 H 0.881401 0.762071 0.940517
O17_2 O 0.8658(5) 0.7332(7) 0.8078(8)
H49_2 H 0.864674 0.726161 0.759756
O18_2 O 0.8035(4) 0.7044(6) 0.7805(6)
C23_3 C 0.5172(4) 0.3451(2) 0.1500(5)
C24_3 C 0.5626(4) 0.1269(3) 0.3609(6)
C28_3 C 0.5058(4) 0.1742(3) 0.0367(6)
C29_3 C 0.4777(5) 0.1326(3) 0.0501(6)
H15_3 H 0.471361 0.122610 0.101437
C31_3 C 0.5225(4) 0.3090(3) 0.1349(6)
C32_3 C 0.4913(4) 0.2763(3) 0.0916(7)
H17_3 H 0.469575 0.278461 0.070523
C33_3 C 0.4934(4) 0.2406(3) 0.0804(7)
H18_3 H 0.472620 0.218637 0.052685
C34_3 C 0.5258(4) 0.2376(3) 0.1099(6)
C35_3 C 0.5552(4) 0.2691(3) 0.1517(8)
H19_3 H 0.576696 0.266725 0.173366
C36_3 C 0.5539(4) 0.3055(3) 0.1631(7)
H20_3 H 0.575068 0.327349 0.190422
C37_3 C 0.5531(4) 0.1465(3) 0.2935(6)
C38_3 C 0.5689(5) 0.1467(4) 0.2192(6)
H21_3 H 0.585830 0.135459 0.211588
C39_3 C 0.5589(5) 0.1638(4) 0.1569(5)
H22_3 H 0.568012 0.162454 0.106474
C40_3 C 0.5351(4) 0.1833(3) 0.1673(6)
C41_3 C 0.5216(5) 0.1837(4) 0.2418(7)
H23_3 H 0.505078 0.195313 0.249909
C42_3 C 0.5314(5) 0.1676(4) 0.3052(6)
H24_3 H 0.523630 0.170604 0.355806
C69_4 C 0.2689(5) 0.0000(4) 0.0254(6)
H38_3 H 0.267540 0.024080 0.025176
C77_3 C 0.1827(5) 0.0151(4) 0.1110(6)
H43_3 H 0.194700 0.027291 0.158947
C78_3 C 0.1571(5) 0.0271(4) 0.0720(5)
H44_3 H 0.150950 0.045609 0.096293
N2_3 N 0.5266(4) 0.2006(3) 0.1007(5)
O9_3 O 0.48395(26) 0.34192(18) 0.1300(4)
O11_3 O 0.58623(35) 0.1139(3) 0.3483(4)
O12_3 O 0.5446(3) 0.1254(2) 0.4257(4)
In3_3 In 0.39872(3) 0.00011(2) 0.79192(4)
In5_3 In 0.06359(3) 0.00622(2) 0.79679(4)
C1_3 C 0.5227(3) 0.1718(2) 0.6061(5)
C2_3 C 0.5559(4) 0.4303(2) 0.3918(5)
C3_3 C 0.4438(4) 0.3524(3) 0.9067(5)
C4_3 C 0.5235(4) 0.2114(2) 0.6170(5)
C5_3 C 0.5553(4) 0.2480(3) 0.5887(7)
H1_3 H 0.576682 0.248041 0.560755
C6_3 C 0.5557(5) 0.2842(3) 0.6011(7)
H2_3 H 0.577516 0.308692 0.582227
C7_3 C 0.5237(4) 0.2847(3) 0.6418(6)
C8_3 C 0.4910(4) 0.2478(3) 0.6708(7)
H3_3 H 0.468909 0.247153 0.697228
C9_3 C 0.4928(4) 0.2116(3) 0.6580(7)
H4_3 H 0.472058 0.186908 0.678561
C10_3 C 0.5480(4) 0.4022(3) 0.4597(5)
C11_3 C 0.5605(5) 0.4170(3) 0.5332(7)
H5_3 H 0.574419 0.445294 0.541686
C12_3 C 0.5526(6) 0.3898(3) 0.5978(7)
H6_3 H 0.560545 0.400260 0.648545
C13_3 C 0.5337(4) 0.3493(3) 0.5853(6)
C14_3 C 0.5163(5) 0.3320(3) 0.5087(7)
H7_3 H 0.500222 0.303768 0.500700
C15_3 C 0.5250(5) 0.3601(3) 0.4479(6)
H8_3 H 0.514961 0.350266 0.397586
C16_3 C 0.4628(4) 0.3410(3) 0.8411(5)
C17_3 C 0.4901(5) 0.3279(4) 0.8535(6)
H9_3 H 0.496861 0.324427 0.904712
C18_3 C 0.5081(5) 0.3198(4) 0.7894(6)
H10_3 H 0.524824 0.308481 0.798637
C19_3 C 0.5026(5) 0.3275(4) 0.7174(6)
C20_3 C 0.4760(6) 0.3415(5) 0.7037(7)
H11_3 H 0.471211 0.346535 0.652042
C21_3 C 0.4562(6) 0.3481(4) 0.7640(6)
H12_3 H 0.438041 0.357581 0.753240
C22_3 C 0.4499(4) 0.0924(3) 0.8436(6)
C25_3 C 0.4674(4) 0.1209(2) 0.9100(5)
C26_3 C 0.4941(4) 0.1618(3) 0.8978(6)
H13_3 H 0.498336 0.171856 0.846394
C27_3 C 0.5152(4) 0.1893(3) 0.9594(6)
H14_3 H 0.534936 0.216628 0.949344
C30_3 C 0.4598(5) 0.1069(3) 0.9881(6)
H16_3 H 0.441972 0.079095 0.997772
C43_3 C 0.3791(4) 0.0431(3) 0.6506(6)
C45_3 C 0.2777(6) 0.1072(5) 0.1571(7)
C46_3 C 0.3467(4) 0.0460(3) 0.6052(6)
C47_3 C 0.3048(5) 0.0174(4) 0.6184(7)
C48_3 C 0.2759(5) 0.0215(4) 0.5769(6)
H26_3 H 0.248269 0.003802 0.588667
C49_3 C 0.2853(5) 0.0498(4) 0.5198(7)
C50_3 C 0.3259(5) 0.0782(4) 0.5080(7)
H27_3 H 0.333218 0.099319 0.471566
C51_3 C 0.3560(6) 0.0756(4) 0.5501(6)
H28_3 H 0.383504 0.094746 0.540375
C52_3 C 0.1427(4) 0.0142(3) 0.5947(6)
C53_3 C 0.1444(5) 0.0011(4) 0.5180(6)
C54_3 C 0.1815(6) 0.0147(4) 0.4799(6)
H30_3 H 0.181891 0.005415 0.429135
C55_3 C 0.2176(5) 0.0416(4) 0.5163(6)
C56_3 C 0.2165(5) 0.0569(4) 0.5888(6)
H31_3 H 0.240827 0.076524 0.612290
C57_3 C 0.1803(4) 0.0438(3) 0.6269(7)
H32_3 H 0.180453 0.054924 0.676031
C58_3 C 0.2725(4) 0.0942(3) 0.2415(3)
C59_3 C 0.28998(35) 0.0715(3) 0.2689(4)
H33_3 H 0.305275 0.064865 0.234920
C60_3 C 0.28453(26) 0.0586(2) 0.3472(4)
H34_3 H 0.296248 0.043419 0.365571
C61_3 C 0.2617(4) 0.0685(3) 0.3980(3)
C62_3 C 0.24424(35) 0.0913(3) 0.3705(4)
H35_3 H 0.228903 0.097884 0.404503
C63_3 C 0.24960(34) 0.1041(3) 0.2923(4)
H36_3 H 0.237929 0.119330 0.273851
C65_3 C 0.1152(4) 0.0250(3) 0.9566(5)
H37_3 H 0.313487 0.018136 0.940222
C73_3 C 0.1411(4) 0.0119(3) 0.9988(5)
N1_3 N 0.5228(4) 0.3216(3) 0.6519(5)
N3_3 N 0.2548(4) 0.0521(3) 0.4763(5)
O1_3 O 0.5519(3) 0.1716(2) 0.5717(5)
O2_3 O 0.48949(27) 0.13991(19) 0.6274(5)
O5_3 O 0.42326(28) 0.3687(2) 0.8888(4)
O6_3 O 0.45113(27) 0.34586(19) 0.9776(3)
O7_3 O 0.45627(27) 0.10487(18) 0.7768(4)
O8_3 O 0.4255(4) 0.0536(2) 0.8631(4)
O13_3 O 0.36932(28) 0.0231(2) 0.7137(4)
O14_3 O 0.41528(28) 0.0624(2) 0.6219(4)
O15_3 O 0.1055(3) 0.0067(2) 0.7098(4)
O17_3 O 0.2668(7) 0.1326(5) 0.1412(8)
H49_3 H 0.273839 0.138513 0.093090
O18_3 O 0.2956(6) 0.0991(5) 0.1139(6)
O21_3 O 0.09991(28) 0.0430(2) 0.9960(3)
O22_3 O 0.1108(3) 0.0180(2) 0.8815(4)
O25_3 O 0.50201(25) 0.07425(17) 0.5727(3)
H51_3 H 0.487740 0.050689 0.541993
O26_3 O 0.45266(25) 0.02456(17) 0.7211(4)
H52_3 H 0.466214 0.009878 0.712066
O29_3 O 0.0285(3) 0.0154(2) 0.8822(5)
In11_3 In 0.39861(4) 0.39872(3) 0.95858(4)
O38_3 O 0.0926(4) 0.0708(3) 0.7639(4)
O40_3 O 0.57753(23) 0.07469(16) 0.5140(3)
C66_3 C 0.1913(6) 0.9236(4) 0.4393(6)
C69_5 C 0.2689(5) 1.0000(4) 0.0254(6)
C70_3 C 0.2440(4) 0.9697(3) 0.0717(6)
C71_3 C 0.2461(5) 0.9350(4) 0.0754(7)
H39_3 H 0.227656 0.913018 0.106502
C72_3 C 0.2776(4) 0.9324(3) 0.0300(6)
H40_3 H 0.280677 0.909412 0.035382
C75_3 C 0.1741(5) 0.9711(4) 0.0065(6)
C76_3 C 0.1901(5) 0.9861(4) 0.0797(6)
C79_3 C 0.1973(3) 0.9371(2) 0.3561(3)
C80_3 C 0.1646(4) 0.9348(3) 0.3129(4)
H45_3 H 0.138973 0.924774 0.336423
C81_3 C 0.1704(4) 0.9475(3) 0.2345(4)
H46_3 H 0.148597 0.945948 0.205572
C82_3 C 0.2087(3) 0.9624(2) 0.1993(3)
C83_3 C 0.2413(4) 0.9647(3) 0.2425(4)
H47_3 H 0.267014 0.974738 0.218960
C84_3 C 0.2355(4) 0.9520(3) 0.3209(4)
H48_3 H 0.257391 0.953564 0.349811
N4_3 N 0.2147(4) 0.9729(3) 0.1185(5)
O23_3 O 0.1560(7) 0.9074(5) 0.4660(7)
H50_3 H 0.157318 0.901736 0.514123
O24_3 O 0.2209(7) 0.9237(5) 0.4764(7)
O28_3 O 0.42247(23) 0.92531(16) 0.0140(3)
H54_3 H 0.431918 0.948965 0.044456
In9_3 In 0.43755(3) 0.87929(2) 0.04293(4)
In4_3 In 0.38594(3) 0.91579(2) 0.91339(3)
C44_3 C 0.1036(4) 0.9991(3) 0.6365(6)
H25_3 H 0.297102 0.996231 0.654753
H29_3 H 0.120096 0.982920 0.492291
C64_3 C 0.3357(4) 0.9607(3) 0.9334(5)
C67_3 C 0.3025(4) 0.9630(3) 0.9799(6)
C68_3 C 0.2978(4) 0.9971(3) 0.9756(6)
C74_3 C 0.1493(5) 0.9827(4) 0.9661(6)
H41_3 H 0.138199 0.971033 0.917245
H42_3 H 0.180151 0.952409 0.982783
O16_3 O 0.0708(3) 0.9782(2) 0.5973(4)
O19_3 O 0.34687(26) 0.9375(2) 0.9602(4)
O20_3 O 0.34656(28) 0.9806(2) 0.8696(4)
O27_3 O 0.42454(25) 0.97309(17) 0.8649(3)
H53_3 H 0.452729 0.986913 0.874435
H55_4 H -0.000024 0.999954 0.882359
O32_3 O 0.36870(34) 0.94544(19) 0.7221(4)
O33_3 O 0.34586(33) 0.89473(19) 0.8109(3)
O34_3 O 0.34192(32) 0.85797(19) 0.9633(4)
O36_3 O 0.41377(35) 0.8861(3) 0.8483(4)
O39_3 O 0.04300(34) 0.94309(19) 0.8293(3)
O41_3 O 0.0154(4) 0.9869(2) 0.7155(5)
C24_4 C 0.1269(3) 0.5643(3) 0.1942(6)
H19_4 H 0.266725 0.690029 0.006699
H20_4 H 0.327349 0.752281 0.023755
C37_4 C 0.1465(3) 0.5934(3) 0.1268(6)
C38_4 C 0.1467(4) 0.5778(3) 0.0525(6)
H21_4 H 0.135459 0.549629 0.044921
C40_4 C 0.1833(3) 0.6482(3) 0.0006(6)
C41_4 C 0.1837(4) 0.6621(3) 0.0751(7)
H23_4 H 0.195313 0.690235 0.083242
C42_4 C 0.1676(4) 0.6362(3) 0.1385(6)
H24_4 H 0.170604 0.646974 0.189139
O10_2 O 0.3762(2) 0.82926(18) 0.0134(5)
O12_4 O 0.1254(2) 0.5808(2) 0.2590(4)
In2_3 In 0.08266(2) 0.60784(2) 0.50648(2)
C1_4 C 0.1718(2) 0.6491(2) 0.4394(5)
C2_4 C 0.4303(2) 0.8744(3) 0.2251(5)
C3_4 C 0.3524(3) 0.9086(3) 0.7400(5)
C4_4 C 0.2114(2) 0.6879(3) 0.4503(5)
C5_4 C 0.2480(3) 0.6927(3) 0.4220(7)
H1_4 H 0.248041 0.671359 0.394088
C6_4 C 0.2842(3) 0.7285(4) 0.4344(7)
H2_4 H 0.308692 0.731176 0.415560
C7_4 C 0.2847(3) 0.7610(3) 0.4751(6)
C8_4 C 0.2478(3) 0.7568(3) 0.5041(7)
H3_4 H 0.247153 0.778244 0.530561
C9_4 C 0.2116(3) 0.7188(3) 0.4913(7)
H4_4 H 0.186908 0.714850 0.511894
C10_4 C 0.4022(3) 0.8542(3) 0.2930(5)
C11_4 C 0.4170(3) 0.8565(4) 0.3665(7)
H5_4 H 0.445294 0.870875 0.375019
C12_4 C 0.3898(3) 0.8372(5) 0.4311(7)
H6_4 H 0.400260 0.839715 0.481878
C13_4 C 0.3493(3) 0.8156(3) 0.4186(6)
C14_4 C 0.3320(3) 0.8157(4) 0.3420(7)
H7_4 H 0.303768 0.803546 0.334033
C15_4 C 0.3601(3) 0.8351(4) 0.2812(6)
H8_4 H 0.350266 0.835305 0.230919
C16_4 C 0.3410(3) 0.8782(3) 0.6744(5)
C17_4 C 0.3279(4) 0.8378(3) 0.6868(6)
H9_4 H 0.324427 0.827566 0.738045
C18_4 C 0.3198(4) 0.8117(3) 0.6227(6)
H10_4 H 0.308481 0.783657 0.631970
C19_4 C 0.3275(4) 0.8249(3) 0.5507(6)
C20_4 C 0.3415(5) 0.8655(4) 0.5370(7)
H11_4 H 0.346535 0.875324 0.485375
C21_4 C 0.3481(4) 0.8919(4) 0.5973(6)
H12_4 H 0.357581 0.919540 0.586573
C22_4 C 0.0924(3) 0.6425(3) 0.6769(6)
C23_4 C 0.3451(2) 0.8279(3) 0.9833(5)
C25_4 C 0.1209(2) 0.6535(3) 0.7433(5)
C26_4 C 0.1618(3) 0.6677(3) 0.7311(6)
H13_4 H 0.171856 0.673520 0.679727
C27_4 C 0.1893(3) 0.6741(3) 0.7927(6)
H14_4 H 0.216628 0.681692 0.782677
C28_4 C 0.1742(3) 0.6684(3) 0.8700(6)
C29_4 C 0.1326(3) 0.6549(4) 0.8834(6)
H15_4 H 0.122610 0.651249 0.934770
C30_4 C 0.1069(3) 0.6471(4) 0.8214(6)
H16_4 H 0.079095 0.637123 0.831105
C31_4 C 0.3090(3) 0.7865(2) 0.9682(6)
C32_4 C 0.2763(3) 0.7850(3) 0.9249(7)
H17_4 H 0.278461 0.808886 0.903856
C33_4 C 0.2406(3) 0.7472(3) 0.9137(7)
H18_4 H 0.218637 0.746017 0.886018
C34_4 C 0.2376(3) 0.7118(3) 0.9432(6)
C35_4 C 0.2691(3) 0.7139(3) 0.9850(8)
C36_4 C 0.3055(3) 0.7516(3) 0.9964(7)
C39_4 C 0.1638(4) 0.6049(3) 0.9902(5)
H22_4 H 0.162454 0.594442 0.939807
C43_4 C 0.0431(3) 0.6640(3) 0.4839(6)
C46_4 C 0.0460(3) 0.6993(3) 0.4385(6)
C47_4 C 0.0174(4) 0.7126(3) 0.4517(7)
C48_4 C 0.0215(4) 0.7456(3) 0.4102(6)
H26_4 H 0.003802 0.755533 0.422000
C49_4 C 0.0498(4) 0.7645(3) 0.3531(7)
C50_4 C 0.0782(4) 0.7523(3) 0.3413(7)
H27_4 H 0.099319 0.766101 0.304899
C51_4 C 0.0756(4) 0.7196(4) 0.3834(6)
H28_4 H 0.094746 0.711242 0.373708
C52_4 C 0.0142(3) 0.8715(3) 0.4280(6)
C53_4 C 0.0011(4) 0.8567(3) 0.3513(6)
C54_4 C 0.0147(4) 0.8332(4) 0.3132(6)
H30_4 H 0.005415 0.823524 0.262468
C55_4 C 0.0416(4) 0.8240(3) 0.3496(6)
C56_4 C 0.0569(4) 0.8404(3) 0.4221(6)
H31_4 H 0.076524 0.835697 0.445623
C57_4 C 0.0438(3) 0.8635(3) 0.4602(7)
H32_4 H 0.054924 0.874471 0.509364
C58_4 C 0.0942(3) 0.8217(2) 0.0748(3)
C59_4 C 0.0715(3) 0.78152(18) 0.1022(4)
H33_4 H 0.064865 0.759590 0.068253
C60_4 C 0.0586(2) 0.77407(17) 0.1805(4)
H34_4 H 0.043419 0.747171 0.198904
C61_4 C 0.0685(3) 0.8068(2) 0.2313(3)
C62_4 C 0.0913(3) 0.84706(18) 0.2038(4)
H35_4 H 0.097884 0.868981 0.237836
C63_4 C 0.1041(3) 0.85450(17) 0.1256(4)
H36_4 H 0.119330 0.881401 0.107184
C65_4 C 0.0250(3) 0.9098(3) 0.7899(5)
H37_4 H 0.018136 0.704649 0.773555
C69_6 C 0.0000(4) 0.7311(3) 0.8587(6)
H38_4 H 0.024080 0.756540 0.858509
C73_4 C 0.0119(3) 0.8708(3) 0.8321(5)
C77_4 C 0.0151(4) 0.8324(3) 0.9443(6)
H43_4 H 0.027291 0.832591 0.992280
C78_4 C 0.0271(4) 0.8700(3) 0.9053(5)
H44_4 H 0.045609 0.894659 0.929626
N1_4 N 0.3216(3) 0.7988(3) 0.4852(5)
N2_4 N 0.2006(3) 0.6740(3) 0.9340(5)
N3_4 N 0.0521(3) 0.7973(3) 0.3096(5)
O1_4 O 0.1716(2) 0.6197(2) 0.4050(5)
O2_4 O 0.13991(19) 0.65042(19) 0.4607(5)
O3_2 O 0.4152(2) 0.8743(2) 0.1614(4)
O4_2 O 0.4688(2) 0.8908(3) 0.2398(4)
O7_4 O 0.10487(18) 0.6486(2) 0.6101(4)
O8_4 O 0.0536(2) 0.6281(3) 0.6964(4)
O13_4 O 0.0231(2) 0.65378(19) 0.5470(4)
O14_4 O 0.0624(2) 0.64712(19) 0.4552(4)
O15_4 O 0.0067(2) 0.9012(2) 0.5431(4)
O22_4 O 0.0180(2) 0.9072(2) 0.7148(4)
O25_4 O 0.07425(17) 0.57224(18) 0.4060(3)
H51_4 H 0.050689 0.562949 0.375326
O26_4 O 0.02456(17) 0.57190(18) 0.5544(4)
H52_4 H 0.009878 0.543664 0.545399
In10_2 In 0.52518(3) 0.91734(2) 0.17315(2)
O30_3 O 0.1257(2) 0.5409(3) 0.4947(4)
O31_3 O 0.1092(3) 0.5780(4) 0.5731(4)
O35_3 O 0.17074(18) 0.54694(27) 0.3467(5)
C44_4 C 0.9991(3) 0.8955(3) 0.4698(6)
H25_4 H 0.996231 0.699129 0.488086
H29_4 H 0.982920 0.862824 0.325624
C64_4 C 0.9607(3) 0.6250(3) 0.7667(5)
C67_4 C 0.9630(3) 0.6605(3) 0.8132(6)
C68_4 C 0.9971(3) 0.6993(3) 0.8089(6)
C69_7 C 1.0000(4) 0.7311(3) 0.8587(6)
C70_4 C 0.9697(3) 0.7257(3) 0.9050(6)
C71_4 C 0.9350(4) 0.6889(3) 0.9087(7)
H39_4 H 0.913018 0.685362 0.939835
C72_4 C 0.9324(3) 0.6548(3) 0.8633(6)
H40_4 H 0.909412 0.628735 0.868715
C74_4 C 0.9827(4) 0.8334(3) 0.7994(6)
H41_4 H 0.971033 0.832834 0.750578
C75_4 C 0.9711(4) 0.7970(3) 0.8398(6)
H42_4 H 0.952409 0.772258 0.816116
C76_4 C 0.9861(4) 0.7960(3) 0.9130(6)
N4_4 N 0.9729(3) 0.7582(2) 0.9518(5)
O19_4 O 0.9375(2) 0.59063(16) 0.7935(4)
O20_4 O 0.9806(2) 0.63404(19) 0.7029(4)
O27_4 O 0.97309(17) 0.54855(19) 0.6982(3)
H53_4 H 0.986913 0.534184 0.707768
H54_4 H 0.948965 0.517047 0.877789
H55_5 H 0.999954 0.999978 0.715692
C3_5 C 0.0914(3) 0.4438(4) 0.0733(5)
C16_5 C 0.1218(3) 0.4628(4) 0.0077(5)
C17_5 C 0.1622(3) 0.4901(5) 0.0201(6)
H9_5 H 0.172434 0.496861 0.071378
C22_5 C 0.3575(3) 0.4499(4) 0.0102(6)
C23_5 C 0.1721(3) 0.5172(4) 0.3166(5)
C24_5 C 0.4357(3) 0.5626(4) 0.5275(6)
C25_5 C 0.3465(3) 0.4674(4) 0.0766(5)
C26_5 C 0.3323(3) 0.4941(4) 0.0644(6)
H13_5 H 0.326480 0.498336 0.013060
C27_5 C 0.3259(3) 0.5152(4) 0.1260(6)
H14_5 H 0.318308 0.534936 0.116010
C28_5 C 0.3316(3) 0.5058(4) 0.2033(6)
C29_5 C 0.3451(4) 0.4777(5) 0.2167(6)
H15_5 H 0.348751 0.471361 0.268103
C30_5 C 0.3529(4) 0.4598(5) 0.1547(6)
H16_5 H 0.362877 0.441972 0.164438
C31_5 C 0.2135(2) 0.5225(4) 0.3015(6)
C32_5 C 0.2150(3) 0.4913(4) 0.2582(7)
H17_5 H 0.191114 0.469575 0.237189
C33_5 C 0.2528(3) 0.4934(4) 0.2470(7)
H18_5 H 0.253983 0.472620 0.219351
C34_5 C 0.2882(3) 0.5258(4) 0.2765(6)
C35_5 C 0.2861(3) 0.5552(4) 0.3183(8)
H19_5 H 0.309971 0.576696 0.340032
C36_5 C 0.2484(3) 0.5539(4) 0.3297(7)
H20_5 H 0.247719 0.575068 0.357088
C37_5 C 0.4066(3) 0.5531(4) 0.4601(6)
C38_5 C 0.4222(3) 0.5689(5) 0.3858(6)
H21_5 H 0.450371 0.585830 0.378254
C39_5 C 0.3951(3) 0.5589(5) 0.3235(5)
H22_5 H 0.405558 0.568012 0.273140
C40_5 C 0.3518(3) 0.5351(4) 0.3339(6)
C41_5 C 0.3379(3) 0.5216(5) 0.4084(7)
H23_5 H 0.309765 0.505078 0.416575
C42_5 C 0.3638(3) 0.5314(5) 0.4718(6)
H24_5 H 0.353026 0.523630 0.522472
C64_5 C 0.3750(3) 0.3357(4) 0.1000(5)
C65_5 C 0.0902(3) 0.1152(4) 0.1232(5)
C66_4 C 0.2677(4) 0.1913(6) 0.6059(6)
C67_5 C 0.3395(3) 0.3025(4) 0.1465(6)
C68_5 C 0.3007(3) 0.2978(4) 0.1422(6)
H37_5 H 0.295351 0.313487 0.106888
C69_8 C 0.2689(3) 0.2689(5) 0.1920(6)
H38_5 H 0.243460 0.267540 0.191842
C70_5 C 0.2743(3) 0.2440(4) 0.2383(6)
C71_5 C 0.3111(3) 0.2461(5) 0.2420(7)
H39_5 H 0.314638 0.227656 0.273168
C72_5 C 0.3452(3) 0.2776(4) 0.1966(6)
H40_5 H 0.371265 0.280677 0.202048
C73_5 C 0.1292(3) 0.1411(4) 0.1654(5)
C74_5 C 0.1666(3) 0.1493(5) 0.1327(6)
H41_5 H 0.167166 0.138199 0.083911
C75_5 C 0.2030(3) 0.1741(5) 0.1731(6)
H42_5 H 0.227742 0.180151 0.149449
C76_5 C 0.2040(3) 0.1901(5) 0.2463(6)
C77_5 C 0.1676(3) 0.1827(5) 0.2776(6)
H43_5 H 0.167409 0.194700 0.325613
C78_5 C 0.1300(3) 0.1571(5) 0.2386(5)
H44_5 H 0.105341 0.150950 0.262959
C79_4 C 0.2602(2) 0.1973(3) 0.5227(3)
C80_4 C 0.2298(2) 0.1646(4) 0.4795(4)
H45_4 H 0.214199 0.138973 0.503089
C81_4 C 0.2229(2) 0.1704(4) 0.4011(4)
H46_4 H 0.202649 0.148597 0.372238
C82_4 C 0.2463(2) 0.2087(3) 0.3659(3)
C83_4 C 0.2766(2) 0.2413(4) 0.4091(4)
H47_4 H 0.292276 0.267014 0.385626
C84_4 C 0.2835(2) 0.2355(4) 0.4875(4)
H48_4 H 0.303827 0.257391 0.516477
N2_5 N 0.3260(3) 0.5266(4) 0.2673(5)
N4_5 N 0.2418(2) 0.2147(4) 0.2851(5)
O8_5 O 0.3719(3) 0.4255(4) 0.0297(4)
O12_5 O 0.4192(2) 0.5446(3) 0.5923(4)
O19_5 O 0.40937(16) 0.34687(26) 0.1268(4)
O20_5 O 0.36596(19) 0.34656(28) 0.0362(4)
O22_5 O 0.0928(2) 0.1108(3) 0.0481(4)
O23_4 O 0.2486(5) 0.1560(7) 0.6326(7)
H50_4 H 0.255582 0.157318 0.680789
O24_4 O 0.2972(5) 0.2209(7) 0.6430(7)
O27_5 O 0.45145(19) 0.42454(25) 0.0315(3)
H53_5 H 0.465816 0.452729 0.041101
H54_5 H 0.482953 0.431918 0.211122
H55_6 H 0.000022 -0.000024 0.049025
In2_4 In 0.39216(2) 0.47482(3) 0.83981(2)
C1_5 C 0.3509(2) 0.5227(3) 0.7727(5)
C2_5 C 0.1256(3) 0.5559(4) 0.5584(5)
C4_5 C 0.3121(3) 0.5235(4) 0.7836(5)
C5_5 C 0.3073(3) 0.5553(4) 0.7553(7)
H1_5 H 0.328641 0.576682 0.727421
C6_5 C 0.2715(4) 0.5557(5) 0.7677(7)
H2_5 H 0.268824 0.577516 0.748893
C7_5 C 0.2390(3) 0.5237(4) 0.8084(6)
C8_5 C 0.2432(3) 0.4910(4) 0.8374(7)
H3_5 H 0.221756 0.468909 0.863894
C9_5 C 0.2812(3) 0.4928(4) 0.8246(7)
H4_5 H 0.285150 0.472058 0.845227
C10_5 C 0.1458(3) 0.5480(4) 0.6263(5)
C11_5 C 0.1435(4) 0.5605(5) 0.6998(7)
H5_5 H 0.129125 0.574419 0.708352
C12_5 C 0.1628(5) 0.5526(6) 0.7644(7)
H6_5 H 0.160285 0.560545 0.815211
C13_5 C 0.1844(3) 0.5337(4) 0.7519(6)
C14_5 C 0.1843(4) 0.5163(5) 0.6753(7)
H7_5 H 0.196454 0.500222 0.667366
C15_5 C 0.1649(4) 0.5250(5) 0.6145(6)
H8_5 H 0.164695 0.514961 0.564252
C18_5 C 0.1883(3) 0.5081(5) 0.9560(6)
H10_5 H 0.216343 0.524824 0.965303
C19_5 C 0.1751(3) 0.5026(5) 0.8840(6)
C20_5 C 0.1345(4) 0.4760(6) 0.8703(7)
H11_5 H 0.124676 0.471211 0.818708
C21_5 C 0.1081(4) 0.4562(6) 0.9306(6)
H12_5 H 0.080460 0.438041 0.919906
C43_5 C 0.3360(3) 0.3791(4) 0.8172(6)
C44_5 C 0.1045(3) 0.1036(4) 0.8031(6)
C45_4 C 0.1705(4) 0.2777(6) 0.3237(7)
C46_5 C 0.3007(3) 0.3467(4) 0.7718(6)
C47_5 C 0.2874(3) 0.3048(5) 0.7850(7)
H25_5 H 0.300871 0.297102 0.821419
C48_5 C 0.2544(3) 0.2759(5) 0.7435(6)
H26_5 H 0.244467 0.248269 0.755333
C49_5 C 0.2355(3) 0.2853(5) 0.6864(7)
C50_5 C 0.2477(3) 0.3259(5) 0.6746(7)
H27_5 H 0.233899 0.333218 0.638232
C51_5 C 0.2804(4) 0.3560(6) 0.7167(6)
H28_5 H 0.288758 0.383504 0.707041
C52_5 C 0.1285(3) 0.1427(4) 0.7613(6)
C53_5 C 0.1433(3) 0.1444(5) 0.6846(6)
H29_5 H 0.137176 0.120096 0.658957
C54_5 C 0.1668(4) 0.1815(6) 0.6465(6)
H30_5 H 0.176476 0.181891 0.595801
C55_5 C 0.1760(3) 0.2176(5) 0.6829(6)
C56_5 C 0.1596(3) 0.2165(5) 0.7554(6)
H31_5 H 0.164303 0.240827 0.778956
C57_5 C 0.1365(3) 0.1803(4) 0.7935(7)
H32_5 H 0.125529 0.180453 0.842697
C58_5 C 0.1783(2) 0.2725(4) 0.4081(3)
C59_5 C 0.21848(18) 0.28998(35) 0.4355(4)
H33_5 H 0.240410 0.305275 0.401586
C60_5 C 0.22593(17) 0.28453(26) 0.5138(4)
H34_5 H 0.252829 0.296248 0.532237
C61_5 C 0.1932(2) 0.2617(4) 0.5646(3)
C62_5 C 0.15294(18) 0.24424(35) 0.5371(4)
H35_5 H 0.131019 0.228903 0.571169
C63_5 C 0.14550(17) 0.24960(34) 0.4589(4)
H36_5 H 0.118599 0.237929 0.440517
N1_5 N 0.2012(3) 0.5228(4) 0.8185(5)
N3_5 N 0.2027(3) 0.2548(4) 0.6429(5)
O1_5 O 0.3803(2) 0.5519(3) 0.7383(5)
O2_5 O 0.34958(19) 0.48949(27) 0.7940(5)
O7_5 O 0.3514(2) 0.45627(27) 0.9434(4)
O13_5 O 0.34622(19) 0.36932(28) 0.8803(4)
O14_5 O 0.35288(19) 0.41528(28) 0.7885(4)
O15_5 O 0.0988(2) 0.1055(3) 0.8764(4)
O17_4 O 0.1342(5) 0.2668(7) 0.3078(8)
H49_4 H 0.135326 0.273839 0.259756
O18_4 O 0.1965(4) 0.2956(6) 0.2805(6)
O25_5 O 0.42776(18) 0.50201(25) 0.7393(3)
H51_5 H 0.437051 0.487740 0.708659
O26_5 O 0.42810(18) 0.45266(25) 0.8877(4)
H52_5 H 0.456336 0.466214 0.878732
O30_4 O 0.4591(3) 0.5848(4) 0.8281(4)
O31_4 O 0.4220(4) 0.5312(5) 0.9065(4)
O35_4 O 0.45306(27) 0.62380(32) 0.6801(5)
H55_7 H 1.000022 -0.000024 0.049025
C44_6 C 0.8964(4) 0.0009(3) 0.1365(6)
H25_6 H 0.702898 0.003769 0.154753
C64_6 C 0.6643(4) 0.0393(3) 0.4334(5)
C66_5 C 0.8087(6) 0.0764(4) 0.9393(6)
C67_6 C 0.6975(4) 0.0370(3) 0.4799(6)
C68_6 C 0.7022(4) 0.0029(3) 0.4756(6)
C69_9 C 0.7311(5) 0.0000(4) 0.5254(6)
C70_6 C 0.7560(4) 0.0303(3) 0.5717(6)
C71_6 C 0.7539(5) 0.0650(4) 0.5754(7)
H39_6 H 0.772344 0.086982 0.606502
C72_6 C 0.7224(4) 0.0676(3) 0.5300(6)
H40_6 H 0.719323 0.090588 0.535382
C74_6 C 0.8507(5) 0.0173(4) 0.4661(6)
H41_6 H 0.861801 0.028967 0.417245
C75_6 C 0.8259(5) 0.0289(4) 0.5065(6)
H42_6 H 0.819849 0.047591 0.482783
C76_6 C 0.8099(5) 0.0139(4) 0.5797(6)
C79_5 C 0.8027(3) 0.0629(2) 0.8561(3)
C80_5 C 0.8354(4) 0.0652(3) 0.8129(4)
H45_5 H 0.861027 0.075226 0.836423
C81_5 C 0.8296(4) 0.0525(3) 0.7345(4)
H46_5 H 0.851403 0.054052 0.705572
C82_5 C 0.7913(3) 0.0376(2) 0.6993(3)
C83_5 C 0.7587(4) 0.0353(3) 0.7425(4)
H47_5 H 0.732986 0.025262 0.718960
C84_5 C 0.7645(4) 0.0480(3) 0.8209(4)
H48_5 H 0.742609 0.046436 0.849811
N4_6 N 0.7853(4) 0.0271(3) 0.6185(5)
O19_6 O 0.65313(26) 0.0625(2) 0.4602(4)
O20_6 O 0.65344(28) 0.0194(2) 0.3696(4)
O23_5 O 0.8440(7) 0.0926(5) 0.9660(7)
O24_5 O 0.7791(7) 0.0763(5) 0.9764(7)
O27_6 O 0.57546(25) 0.02691(17) 0.3649(3)
H53_6 H 0.547271 0.013087 0.374435
H54_6 H 0.568082 0.051035 0.544456
H55_8 H 1.000024 0.000046 0.382359
C1_6 C 0.4773(3) 0.8282(2) 0.1061(5)
C3_6 C 0.5562(4) 0.6476(3) 0.4067(5)
C4_6 C 0.4765(4) 0.7886(2) 0.1170(5)
C5_6 C 0.4447(4) 0.7520(3) 0.0887(7)
H1_6 H 0.423318 0.751959 0.060755
C6_6 C 0.4443(5) 0.7158(3) 0.1011(7)
H2_6 H 0.422484 0.691308 0.082227
C7_6 C 0.4763(4) 0.7153(3) 0.1418(6)
C8_6 C 0.5090(4) 0.7522(3) 0.1708(7)
H3_6 H 0.531091 0.752847 0.197228
C9_6 C 0.5072(4) 0.7884(3) 0.1580(7)
H4_6 H 0.527942 0.813092 0.178561
C11_6 C 0.4395(5) 0.5830(3) 0.0332(7)
H5_6 H 0.425581 0.554706 0.041686
C12_6 C 0.4474(6) 0.6102(3) 0.0978(7)
H6_6 H 0.439455 0.599740 0.148545
C13_6 C 0.4663(4) 0.6507(3) 0.0853(6)
C14_6 C 0.4837(5) 0.6680(3) 0.0087(7)
H7_6 H 0.499778 0.696232 0.000700
C16_6 C 0.5372(4) 0.6590(3) 0.3411(5)
C17_6 C 0.5099(5) 0.6721(4) 0.3535(6)
H9_6 H 0.503139 0.675573 0.404712
C18_6 C 0.4919(5) 0.6802(4) 0.2894(6)
H10_6 H 0.475176 0.691519 0.298637
C19_6 C 0.4974(5) 0.6725(4) 0.2174(6)
C20_6 C 0.5240(6) 0.6585(5) 0.2037(7)
H11_6 H 0.528789 0.653465 0.152042
C21_6 C 0.5438(6) 0.6519(4) 0.2640(6)
H12_6 H 0.561959 0.642419 0.253240
C22_6 C 0.5501(4) 0.9076(3) 0.3436(6)
C23_6 C 0.4828(4) 0.6549(2) 0.6500(5)
C24_6 C 0.4374(4) 0.8731(3) 0.8609(6)
C25_6 C 0.5326(4) 0.8791(2) 0.4100(5)
C26_6 C 0.5059(4) 0.8382(3) 0.3978(6)
H13_6 H 0.501664 0.828144 0.346394
C27_6 C 0.4848(4) 0.8107(3) 0.4594(6)
H14_6 H 0.465064 0.783372 0.449344
C28_6 C 0.4942(4) 0.8258(3) 0.5367(6)
C29_6 C 0.5223(5) 0.8674(3) 0.5501(6)
H15_6 H 0.528639 0.877390 0.601437
C30_6 C 0.5402(5) 0.8931(3) 0.4881(6)
H16_6 H 0.558028 0.920905 0.497772
C31_6 C 0.4775(4) 0.6910(3) 0.6349(6)
C32_6 C 0.5087(4) 0.7237(3) 0.5916(7)
H17_6 H 0.530425 0.721539 0.570523
C33_6 C 0.5066(4) 0.7594(3) 0.5804(7)
H18_6 H 0.527380 0.781363 0.552685
C34_6 C 0.4742(4) 0.7624(3) 0.6099(6)
C35_6 C 0.4448(4) 0.7309(3) 0.6517(8)
H19_6 H 0.423304 0.733275 0.673366
C36_6 C 0.4461(4) 0.6945(3) 0.6631(7)
H20_6 H 0.424932 0.672651 0.690422
C37_6 C 0.4469(4) 0.8535(3) 0.7935(6)
C38_6 C 0.4311(5) 0.8533(4) 0.7192(6)
H21_6 H 0.414170 0.864541 0.711588
C39_6 C 0.4411(5) 0.8362(4) 0.6569(5)
H22_6 H 0.431988 0.837546 0.606474
C40_6 C 0.4649(4) 0.8167(3) 0.6673(6)
C41_6 C 0.4784(5) 0.8163(4) 0.7418(7)
H23_6 H 0.494922 0.804687 0.749909
C42_6 C 0.4686(5) 0.8324(4) 0.8052(6)
H24_6 H 0.476370 0.829396 0.855806
C43_6 C 0.6209(4) 0.9569(3) 0.1506(6)
C46_6 C 0.6533(4) 0.9540(3) 0.1052(6)
C47_6 C 0.6952(5) 0.9826(4) 0.1184(7)
C48_6 C 0.7241(5) 0.9785(4) 0.0769(6)
H26_6 H 0.751731 0.996198 0.088667
C49_6 C 0.7147(5) 0.9502(4) 0.0198(7)
C50_6 C 0.6741(5) 0.9218(4) 0.0080(7)
C51_6 C 0.6440(6) 0.9244(4) 0.0501(6)
H28_6 H 0.616496 0.905254 0.040375
C52_6 C 0.8573(4) 0.9858(3) 0.0947(6)
C53_6 C 0.8556(5) 0.9989(4) 0.0180(6)
C55_6 C 0.7824(5) 0.9584(4) 0.0163(6)
C56_6 C 0.7835(5) 0.9431(4) 0.0888(6)
H31_6 H 0.759173 0.923476 0.112290
C57_6 C 0.8197(4) 0.9562(3) 0.1269(7)
H32_6 H 0.819547 0.945076 0.176031
C65_6 C 0.8848(4) 0.9750(3) 0.4566(5)
H37_6 H 0.686513 0.981864 0.440222
C69_10 C 0.7311(5) 1.0000(4) 0.5254(6)
H38_6 H 0.732460 0.975920 0.525176
C73_6 C 0.8589(4) 0.9881(3) 0.4988(5)
C77_6 C 0.8173(5) 0.9849(4) 0.6110(6)
H43_6 H 0.805300 0.972709 0.658947
C78_6 C 0.8429(5) 0.9729(4) 0.5720(5)
H44_6 H 0.849050 0.954391 0.596293
N1_6 N 0.4772(4) 0.6784(3) 0.1519(5)
N2_6 N 0.4734(4) 0.7994(3) 0.6007(5)
O1_6 O 0.4481(3) 0.8284(2) 0.0717(5)
O2_6 O 0.51051(27) 0.86009(19) 0.1274(5)
O7_6 O 0.54373(27) 0.89513(18) 0.2768(4)
O8_6 O 0.5745(4) 0.9464(2) 0.3631(4)
O12_6 O 0.4554(3) 0.8746(2) 0.9257(4)
O13_6 O 0.63068(28) 0.9769(2) 0.2137(4)
O14_6 O 0.58472(28) 0.9376(2) 0.1219(4)
O15_6 O 0.8945(3) 0.9933(2) 0.2098(4)
O22_6 O 0.8892(3) 0.9820(2) 0.3815(4)
O25_6 O 0.49799(25) 0.92575(17) 0.0727(3)
H51_6 H 0.512260 0.949311 0.041993
O26_6 O 0.54734(25) 0.97544(17) 0.2211(4)
H52_6 H 0.533786 0.990122 0.212066
C2_6 C 0.4441(4) 0.5697(2) 0.8918(5)
C10_6 C 0.4520(4) 0.5978(3) 0.9597(5)
C15_6 C 0.4750(5) 0.6399(3) 0.9479(6)
H8_6 H 0.485039 0.649734 0.897586
C45_5 C 0.7223(6) 0.8928(5) 0.6571(7)
H27_6 H 0.666782 0.900681 0.971566
C54_6 C 0.8185(6) 0.9853(4) 0.9799(6)
H30_6 H 0.818109 0.994585 0.929135
C58_6 C 0.7275(4) 0.9058(3) 0.7415(3)
C59_6 C 0.71002(35) 0.9285(3) 0.7689(4)
H33_6 H 0.694725 0.935135 0.734920
C60_6 C 0.71547(26) 0.9414(2) 0.8472(4)
H34_6 H 0.703752 0.956581 0.865571
C61_6 C 0.7383(4) 0.9315(3) 0.8980(3)
C62_6 C 0.75576(35) 0.9087(3) 0.8705(4)
H35_6 H 0.771097 0.902116 0.904503
C63_6 C 0.75040(34) 0.8959(3) 0.7923(4)
H36_6 H 0.762071 0.880670 0.773851
N3_6 N 0.7452(4) 0.9479(3) 0.9763(5)
O17_5 O 0.7332(7) 0.8674(5) 0.6412(8)
H49_5 H 0.726161 0.861487 0.593090
O18_5 O 0.7044(6) 0.9009(5) 0.6139(6)
H55_9 H 0.000046 1.000022 0.215692
H55_10 H -0.000022 0.000024 0.549025
H55_11 H 0.999978 0.000024 0.549025
H55_12 H 0.999976 0.999954 0.882359
C45_6 C 0.1072(5) 0.8295(4) 0.9904(7)
O17_6 O 0.1326(5) 0.8658(5) 0.9745(8)
H49_6 H 0.138513 0.864674 0.926423
O18_6 O 0.0991(5) 0.8035(4) 0.9472(6)
H55_13 H 0.999954 -0.000022 0.715692
C66_6 C 0.9236(4) 0.7323(4) 0.2726(6)
C79_6 C 0.9371(2) 0.7398(2) 0.1894(3)
C80_6 C 0.9348(3) 0.7702(2) 0.1462(4)
H45_6 H 0.924774 0.785801 0.169756
C81_6 C 0.9475(3) 0.7771(2) 0.0678(4)
H46_6 H 0.945948 0.797351 0.038905
C82_6 C 0.9624(2) 0.7537(2) 0.0326(3)
C83_6 C 0.9647(3) 0.7234(2) 0.0758(4)
H47_6 H 0.974738 0.707724 0.052293
C84_6 C 0.9520(3) 0.7165(2) 0.1542(4)
H48_6 H 0.953564 0.696173 0.183144
O23_6 O 0.9074(5) 0.7514(5) 0.2993(7)
H50_5 H 0.901736 0.744418 0.347456
O24_6 O 0.9237(5) 0.7028(5) 0.3097(7)
H55_14 H 0.000022 0.999976 0.049025
H55_15 H 1.000022 0.999976 0.049025
H55_16 H 0.000024 0.000046 0.382359
H50_6 H 0.842682 0.098264 0.014123
H29_6 H 0.879904 0.017080 0.992291
loop_
_geom_bond_atom_site_label_1
_geom_bond_atom_site_label_2
_geom_bond_site_symmetry_1
_geom_bond_site_symmetry_2
In4 O19 1_555 1_555
C64 C67 1_555 1_555
C66 C79 1_555 1_555
C67 C68 1_555 1_555
C69 C68 1_555 1_555
C70 C69 1_555 1_555
C71 C70 1_555 1_555
H39 C71 1_555 1_555
C72 C67 1_555 1_555
H40 C72 1_555 1_555
C74 H41 1_555 1_555
C75 C74 1_555 1_555
H42 C75 1_555 1_555
C76 C75 1_555 1_555
C79 C80 1_555 1_555
C80 H45 1_555 1_555
C81 C80 1_555 1_555
H46 C81 1_555 1_555
C82 C81 1_555 1_555
C83 C82 1_555 1_555
H47 C83 1_555 1_555
C84 C79 1_555 1_555
H48 C84 1_555 1_555
N4 C70 1_555 1_555
O19 C64 1_555 1_555
O23 C66 1_555 1_555
H50 O23 1_555 1_555
O24 C66 1_555 1_555
H53 O27 1_555 1_555
O28 In4 1_555 1_555
H54 O28 1_555 1_555
In9 O28 1_555 1_555
O33 In4 1_555 1_555
O34 In4 1_555 1_555
O36 In4 1_555 1_555
In4 O27 1_555 1_555
C64 O20 1_555 1_555
C71 C72 1_555 1_555
C76 N4 1_555 1_555
C82 N4 1_555 1_555
C83 C84 1_555 1_555
O16 C44 1_555 1_555
In14 O16 1_555 1_555
In3 O8 1_555 1_555
In5 O15 1_555 1_555
C3 C16 1_555 1_555
H3 C8 1_555 1_555
C16 C17 1_555 1_555
C17 H9 1_555 1_555
C18 C17 1_555 1_555
H10 C18 1_555 1_555
C19 C18 1_555 1_555
C20 C19 1_555 1_555
C21 C16 1_555 1_555
H12 C21 1_555 1_555
C22 C25 1_555 1_555
C23 C31 1_555 1_555
C24 C37 1_555 1_555
C25 C26 1_555 1_555
C26 H13 1_555 1_555
C27 C26 1_555 1_555
H14 C27 1_555 1_555
C28 C27 1_555 1_555
C29 C28 1_555 1_555
H15 C29 1_555 1_555
C30 C25 1_555 1_555
H16 C30 1_555 1_555
C31 C32 1_555 1_555
C32 H17 1_555 1_555
C33 C32 1_555 1_555
H18 C33 1_555 1_555
C34 C33 1_555 1_555
C35 C34 1_555 1_555
H19 C35 1_555 1_555
C36 C31 1_555 1_555
H20 C36 1_555 1_555
C37 C38 1_555 1_555
C38 H21 1_555 1_555
C39 C38 1_555 1_555
H22 C39 1_555 1_555
C40 C39 1_555 1_555
C41 C40 1_555 1_555
H23 C41 1_555 1_555
C42 C37 1_555 1_555
H24 C42 1_555 1_555
C65 C73 1_555 1_555
H38 C69_2 1_555 1_555
H43 C77 1_555 1_555
C78 C73 1_555 1_555
H44 C78 1_555 1_555
N2 C28 1_555 1_555
O5 C3 1_555 1_555
O6 C3 1_555 1_555
O7 In2 1_555 1_555
O8 C22 1_555 1_555
O9 C23 1_555 1_555
O10 C23 1_555 1_555
O11 C24 1_555 1_555
O12 C24 1_555 1_555
O13 In3 1_555 1_555
O21 C65 1_555 1_555
O22 In5 1_555 1_555
O26 In2 1_555 1_555
H52 O26 1_555 1_555
O29 In5 1_555 1_555
In6 O12 1_555 1_555
In8 O10 1_555 1_555
In12 O11 1_555 1_555
In13 O6 1_555 1_555
O31 In2 1_555 1_555
O38 In5 1_555 1_555
In3 O26 1_555 1_555
C20 C21 1_555 1_555
C22 O7 1_555 1_555
C29 C30 1_555 1_555
C34 N2 1_555 1_555
C35 C36 1_555 1_555
C40 N2 1_555 1_555
C41 C42 1_555 1_555
C65 O22 1_555 1_555
C77 C78 1_555 1_555
O9 In13 1_555 1_555
In6 O1 1_555 1_555
C1 C4 1_555 1_555
C2 C10 1_555 1_555
C4 C5 1_555 1_555
C5 H1 1_555 1_555
C6 C5 1_555 1_555
H2 C6 1_555 1_555
C7 C6 1_555 1_555
C9 C4 1_555 1_555
C10 C11 1_555 1_555
C11 H5 1_555 1_555
C12 C11 1_555 1_555
H6 C12 1_555 1_555
C13 C12 1_555 1_555
C14 C13 1_555 1_555
H7 C14 1_555 1_555
C15 C10 1_555 1_555
H8 C15 1_555 1_555
C43 C46 1_555 1_555
C45 C58 1_555 1_555
C46 C47 1_555 1_555
C48 C47 1_555 1_555
H26 C48 1_555 1_555
C49 C48 1_555 1_555
C50 C49 1_555 1_555
H27 C50 1_555 1_555
C51 C46 1_555 1_555
H28 C51 1_555 1_555
C52 C53 1_555 1_555
C54 C53 1_555 1_555
H30 C54 1_555 1_555
C55 C54 1_555 1_555
C56 C55 1_555 1_555
H31 C56 1_555 1_555
C57 C52 1_555 1_555
C58 C59 1_555 1_555
C59 H33 1_555 1_555
C60 C59 1_555 1_555
H34 C60 1_555 1_555
C61 C60 1_555 1_555
C62 C61 1_555 1_555
H35 C62 1_555 1_555
C63 C58 1_555 1_555
H36 C63 1_555 1_555
N1 C7 1_555 1_555
N3 C49 1_555 1_555
O1 C1 1_555 1_555
O2 C1 1_555 1_555
O3 C2 1_555 1_555
O4 C2 1_555 1_555
O17 C45 1_555 1_555
H49 O17 1_555 1_555
O18 C45 1_555 1_555
O25 In6 1_555 1_555
H51 O25 1_555 1_555
In8 O3 1_555 1_555
In10 O4 1_555 1_555
O30 In6 1_555 1_555
O35 In6 1_555 1_555
O40 In6 1_555 1_555
C13 N1 1_555 1_555
C14 C15 1_555 1_555
C43 O14 1_555 1_555
C50 C51 1_555 1_555
C55 N3 1_555 1_555
C56 C57 1_555 1_555
C61 N3 1_555 1_555
C62 C63 1_555 1_555
C66_2 C79_2 1_555 1_555
O11_2 C24_2 1_555 1_555
O12_2 C24_2 1_555 1_555
O23_2 C66_2 1_555 1_555
H50_2 O23_2 1_555 1_555
O24_2 C66_2 1_555 1_555
In6_2 O12_2 1_555 1_555
In12_2 O11_2 1_555 1_555
In6_2 O1_2 1_555 1_555
In2_2 O2_2 1_555 1_555
In3_2 O8_2 1_555 1_555
In4_2 O19_2 1_555 1_555
In5_2 O15_2 1_555 1_555
C1_2 C4_2 1_555 1_555
C2_2 C10_2 1_555 1_555
C3_2 C16_2 1_555 1_555
C4_2 C5_2 1_555 1_555
C5_2 H1_2 1_555 1_555
C6_2 C5_2 1_555 1_555
H2_2 C6_2 1_555 1_555
C7_2 C6_2 1_555 1_555
C8_2 C7_2 1_555 1_555
H3_2 C8_2 1_555 1_555
C9_2 C4_2 1_555 1_555
H4_2 C9_2 1_555 1_555
C10_2 C11_2 1_555 1_555
C11_2 H5_2 1_555 1_555
C12_2 C11_2 1_555 1_555
H6_2 C12_2 1_555 1_555
C13_2 C12_2 1_555 1_555
C14_2 C13_2 1_555 1_555
H7_2 C14_2 1_555 1_555
C15_2 C10_2 1_555 1_555
H8_2 C15_2 1_555 1_555
C16_2 C17_2 1_555 1_555
C17_2 H9_2 1_555 1_555
C18_2 C17_2 1_555 1_555
H10_2 C18_2 1_555 1_555
C19_2 C18_2 1_555 1_555
C20_2 C19_2 1_555 1_555
H11_2 C20_2 1_555 1_555
C21_2 C16_2 1_555 1_555
H12_2 C21_2 1_555 1_555
C22_2 C25_2 1_555 1_555
C23_2 C31_2 1_555 1_555
C25_2 C26_2 1_555 1_555
C26_2 H13_2 1_555 1_555
C27_2 C26_2 1_555 1_555
H14_2 C27_2 1_555 1_555
C28_2 C27_2 1_555 1_555
C29_2 C28_2 1_555 1_555
H15_2 C29_2 1_555 1_555
C30_2 C25_2 1_555 1_555
H16_2 C30_2 1_555 1_555
C31_2 C32_2 1_555 1_555
C32_2 H17_2 1_555 1_555
C33_2 C32_2 1_555 1_555
H18_2 C33_2 1_555 1_555
C34_2 C33_2 1_555 1_555
C35_2 C34_2 1_555 1_555
H19_2 C35_2 1_555 1_555
C36_2 C31_2 1_555 1_555
H20_2 C36_2 1_555 1_555
C37_2 C38_2 1_555 1_555
C38_2 H21_2 1_555 1_555
C39_2 C38_2 1_555 1_555
H22_2 C39_2 1_555 1_555
C40_2 C39_2 1_555 1_555
C41_2 C40_2 1_555 1_555
H23_2 C41_2 1_555 1_555
C42_2 C37_2 1_555 1_555
C43_2 C46_2 1_555 1_555
C44_2 C52_2 1_555 1_555
C46_2 C47_2 1_555 1_555
C47_2 H25_2 1_555 1_555
C48_2 C47_2 1_555 1_555
H26_2 C48_2 1_555 1_555
C49_2 C48_2 1_555 1_555
C50_2 C49_2 1_555 1_555
H27_2 C50_2 1_555 1_555
C51_2 C46_2 1_555 1_555
H28_2 C51_2 1_555 1_555
C52_2 C53_2 1_555 1_555
C53_2 H29_2 1_555 1_555
C54_2 C53_2 1_555 1_555
H30_2 C54_2 1_555 1_555
C55_2 C54_2 1_555 1_555
C56_2 C55_2 1_555 1_555
H31_2 C56_2 1_555 1_555
C57_2 C52_2 1_555 1_555
H32_2 C57_2 1_555 1_555
H34_2 C60_2 1_555 1_555
C61_2 C60_2 1_555 1_555
C62_2 C61_2 1_555 1_555
H35_2 C62_2 1_555 1_555
C64_2 C67_2 1_555 1_555
C65_2 C73_2 1_555 1_555
C67_2 C68_2 1_555 1_555
C68_2 H37_2 1_555 1_555
C69_3 C68_2 1_555 1_555
H38_2 C69_3 1_555 1_555
C70_2 C69_3 1_555 1_555
C71_2 C70_2 1_555 1_555
H39_2 C71_2 1_555 1_555
C72_2 C67_2 1_555 1_555
H40_2 C72_2 1_555 1_555
C73_2 C74_2 1_555 1_555
C74_2 H41_2 1_555 1_555
C75_2 C74_2 1_555 1_555
H42_2 C75_2 1_555 1_555
C76_2 C75_2 1_555 1_555
C77_2 C76_2 1_555 1_555
H43_2 C77_2 1_555 1_555
C78_2 C73_2 1_555 1_555
H44_2 C78_2 1_555 1_555
C81_2 C80_2 1_555 1_555
H46_2 C81_2 1_555 1_555
C82_2 C81_2 1_555 1_555
C83_2 C82_2 1_555 1_555
H47_2 C83_2 1_555 1_555
N1_2 C7_2 1_555 1_555
N2_2 C28_2 1_555 1_555
N3_2 C49_2 1_555 1_555
N4_2 C70_2 1_555 1_555
O1_2 C1_2 1_555 1_555
O2_2 C1_2 1_555 1_555
O31 C2_2 1_555 1_555
O5_2 C3_2 1_555 1_555
O6_2 C3_2 1_555 1_555
O7_2 In2_2 1_555 1_555
O8_2 C22_2 1_555 1_555
O9_2 C23_2 1_555 1_555
O35 C23_2 1_555 1_555
O13_2 In3_2 1_555 1_555
O14_2 In2_2 1_555 1_555
O15_2 C44_2 1_555 1_555
O16_2 C44_2 1_555 1_555
O19_2 C64_2 1_555 1_555
O20_2 In3_2 1_555 1_555
O21_2 C65_2 1_555 1_555
O22_2 In5_2 1_555 1_555
O25_2 In6_2 1_555 1_555
H51_2 O25_2 1_555 1_555
O26_2 In2_2 1_555 1_555
H52_2 O26_2 1_555 1_555
O27_2 In3_2 1_555 1_555
H53_2 O27_2 1_555 1_555
O28_2 In4_2 1_555 1_555
H54_2 O28_2 1_555 1_555
O29_2 In5_2 1_555 1_555
H55_3 O29_2 1_555 1_555
In9_2 O28_2 1_555 1_555
In12 O6_2 1_555 1_555
In15 O16_2 1_555 1_555
O30_2 In6_2 1_555 1_555
O31_2 In2_2 1_555 1_555
O32_2 In3_2 1_555 1_555
O33_2 In4_2 1_555 1_555
O34_2 In4_2 1_555 1_555
O35_2 In6_2 1_555 1_555
O36_2 In4_2 1_555 1_555
O38_2 In5_2 1_555 1_555
O39_2 In5_2 1_555 1_555
O40_2 In6_2 1_555 1_555
O41_2 In5_2 1_555 1_555
In2_2 O25_2 1_555 1_555
In3_2 O26_2 1_555 1_555
In4_2 O27_2 1_555 1_555
C8_2 C9_2 1_555 1_555
C13_2 N1_2 1_555 1_555
C14_2 C15_2 1_555 1_555
C19_2 N1_2 1_555 1_555
C20_2 C21_2 1_555 1_555
C22_2 O7_2 1_555 1_555
C29_2 C30_2 1_555 1_555
C34_2 N2_2 1_555 1_555
C35_2 C36_2 1_555 1_555
C40_2 N2_2 1_555 1_555
C41_2 C42_2 1_555 1_555
C43_2 O13_2 1_555 1_555
C43_2 O14_2 1_555 1_555
C50_2 C51_2 1_555 1_555
C55_2 N3_2 1_555 1_555
C56_2 C57_2 1_555 1_555
C61_2 N3_2 1_555 1_555
C64_2 O20_2 1_555 1_555
C65_2 O22_2 1_555 1_555
C71_2 C72_2 1_555 1_555
C76_2 N4_2 1_555 1_555
C77_2 C78_2 1_555 1_555
C82_2 N4_2 1_555 1_555
C83_2 C84_2 1_555 1_555
O9_2 In12 1_555 1_555
In15 O41_2 1_555 1_555
C45_2 C58_2 1_555 1_555
C58_2 C59_2 1_555 1_555
C59_2 H33_2 1_555 1_555
C63_2 C58_2 1_555 1_555
H36_2 C63_2 1_555 1_555
O17_2 C45_2 1_555 1_555
H49_2 O17_2 1_555 1_555
O18_2 C45_2 1_555 1_555
C23_3 C31_3 1_555 1_555
C24_3 C37_3 1_555 1_555
C29_3 C28_3 1_555 1_555
H15_3 C29_3 1_555 1_555
C31_3 C32_3 1_555 1_555
C32_3 H17_3 1_555 1_555
C33_3 C32_3 1_555 1_555
H18_3 C33_3 1_555 1_555
C34_3 C33_3 1_555 1_555
C35_3 C34_3 1_555 1_555
H19_3 C35_3 1_555 1_555
C36_3 C31_3 1_555 1_555
H20_3 C36_3 1_555 1_555
C37_3 C38_3 1_555 1_555
C38_3 H21_3 1_555 1_555
C39_3 C38_3 1_555 1_555
H22_3 C39_3 1_555 1_555
C40_3 C39_3 1_555 1_555
C41_3 C40_3 1_555 1_555
H23_3 C41_3 1_555 1_555
C42_3 C37_3 1_555 1_555
H24_3 C42_3 1_555 1_555
H38_3 C69_4 1_555 1_555
H43_3 C77_3 1_555 1_555
H44_3 C78_3 1_555 1_555
N2_3 C28_3 1_555 1_555
O9_3 C23_3 1_555 1_555
O35_2 C23_3 1_555 1_555
O11_3 C24_3 1_555 1_555
O12_3 C24_3 1_555 1_555
In8 O12_3 1_555 1_555
In13 O11_3 1_555 1_555
C34_3 N2_3 1_555 1_555
C35_3 C36_3 1_555 1_555
C40_3 N2_3 1_555 1_555
C41_3 C42_3 1_555 1_555
C77_3 C78_3 1_555 1_555
O9_3 In12_2 1_555 1_555
In8 O1_3 1_555 1_555
In10 O2_3 1_555 1_555
In3_3 O8_3 1_555 1_555
In5_3 O15_3 1_555 1_555
C1_3 C4_3 1_555 1_555
C2_3 C10_3 1_555 1_555
C3_3 C16_3 1_555 1_555
C4_3 C5_3 1_555 1_555
C5_3 H1_3 1_555 1_555
C6_3 C5_3 1_555 1_555
H2_3 C6_3 1_555 1_555
C7_3 C6_3 1_555 1_555
C8_3 C7_3 1_555 1_555
H3_3 C8_3 1_555 1_555
C9_3 C4_3 1_555 1_555
H4_3 C9_3 1_555 1_555
C10_3 C11_3 1_555 1_555
C11_3 H5_3 1_555 1_555
C12_3 C11_3 1_555 1_555
H6_3 C12_3 1_555 1_555
C13_3 C12_3 1_555 1_555
C14_3 C13_3 1_555 1_555
H7_3 C14_3 1_555 1_555
C15_3 C10_3 1_555 1_555
H8_3 C15_3 1_555 1_555
C16_3 C17_3 1_555 1_555
C17_3 H9_3 1_555 1_555
C18_3 C17_3 1_555 1_555
H10_3 C18_3 1_555 1_555
C19_3 C18_3 1_555 1_555
C20_3 C19_3 1_555 1_555
H11_3 C20_3 1_555 1_555
C21_3 C16_3 1_555 1_555
H12_3 C21_3 1_555 1_555
C22_3 C25_3 1_555 1_555
C25_3 C26_3 1_555 1_555
C26_3 H13_3 1_555 1_555
C27_3 C26_3 1_555 1_555
H14_3 C27_3 1_555 1_555
C30_3 C25_3 1_555 1_555
H16_3 C30_3 1_555 1_555
C43_3 C46_3 1_555 1_555
C45_3 C58_3 1_555 1_555
C46_3 C47_3 1_555 1_555
C48_3 C47_3 1_555 1_555
H26_3 C48_3 1_555 1_555
C49_3 C48_3 1_555 1_555
C50_3 C49_3 1_555 1_555
H27_3 C50_3 1_555 1_555
C51_3 C46_3 1_555 1_555
H28_3 C51_3 1_555 1_555
C52_3 C53_3 1_555 1_555
C54_3 C53_3 1_555 1_555
H30_3 C54_3 1_555 1_555
C55_3 C54_3 1_555 1_555
C56_3 C55_3 1_555 1_555
H31_3 C56_3 1_555 1_555
C57_3 C52_3 1_555 1_555
H32_3 C57_3 1_555 1_555
C58_3 C59_3 1_555 1_555
C59_3 H33_3 1_555 1_555
C60_3 C59_3 1_555 1_555
H34_3 C60_3 1_555 1_555
C61_3 C60_3 1_555 1_555
C62_3 C61_3 1_555 1_555
H35_3 C62_3 1_555 1_555
C63_3 C58_3 1_555 1_555
H36_3 C63_3 1_555 1_555
C65_3 C73_3 1_555 1_555
N1_3 C7_3 1_555 1_555
N3_3 C49_3 1_555 1_555
O1_3 C1_3 1_555 1_555
O2_3 C1_3 1_555 1_555
O30_2 C2_3 1_555 1_555
O31_2 C2_3 1_555 1_555
O5_3 C3_3 1_555 1_555
O6_3 C3_3 1_555 1_555
O7_3 In10 1_555 1_555
O8_3 C22_3 1_555 1_555
O13_3 In3_3 1_555 1_555
O14_3 In10 1_555 1_555
O17_3 C45_3 1_555 1_555
H49_3 O17_3 1_555 1_555
O18_3 C45_3 1_555 1_555
O21_3 C65_3 1_555 1_555
O22_3 In5_3 1_555 1_555
O25_3 In8 1_555 1_555
H51_3 O25_3 1_555 1_555
O26_3 In10 1_555 1_555
H52_3 O26_3 1_555 1_555
O29_3 In5_3 1_555 1_555
In11_3 O5_3 1_555 1_555
In14 O21_3 1_555 1_555
O38_3 In5_3 1_555 1_555
O40_3 In8 1_555 1_555
In10 O25_3 1_555 1_555
In3_3 O26_3 1_555 1_555
C8_3 C9_3 1_555 1_555
C13_3 N1_3 1_555 1_555
C14_3 C15_3 1_555 1_555
C19_3 N1_3 1_555 1_555
C20_3 C21_3 1_555 1_555
C22_3 O7_3 1_555 1_555
C43_3 O13_3 1_555 1_555
C43_3 O14_3 1_555 1_555
C50_3 C51_3 1_555 1_555
C55_3 N3_3 1_555 1_555
C56_3 C57_3 1_555 1_555
C61_3 N3_3 1_555 1_555
C62_3 C63_3 1_555 1_555
C65_3 O22_3 1_555 1_555
O29_3 In14 1_555 1_555
C66_3 C79_3 1_555 1_555
C70_3 C69_5 1_555 1_555
C71_3 C70_3 1_555 1_555
H39_3 C71_3 1_555 1_555
H40_3 C72_3 1_555 1_555
C76_3 C75_3 1_555 1_555
C79_3 C80_3 1_555 1_555
C80_3 H45_3 1_555 1_555
C81_3 C80_3 1_555 1_555
H46_3 C81_3 1_555 1_555
C82_3 C81_3 1_555 1_555
C83_3 C82_3 1_555 1_555
H47_3 C83_3 1_555 1_555
C84_3 C79_3 1_555 1_555
H48_3 C84_3 1_555 1_555
N4_3 C70_3 1_555 1_555
O23_3 C66_3 1_555 1_555
H50_3 O23_3 1_555 1_555
O24_3 C66_3 1_555 1_555
H54_3 O28_3 1_555 1_555
In9_3 O28_3 1_555 1_555
C71_3 C72_3 1_555 1_555
C76_3 N4_3 1_555 1_555
C82_3 N4_3 1_555 1_555
C83_3 C84_3 1_555 1_555
In4_3 O19_3 1_555 1_555
C64_3 C67_3 1_555 1_555
C67_3 C68_3 1_555 1_555
C74_3 H41_3 1_555 1_555
O16_3 C44_3 1_555 1_555
O19_3 C64_3 1_555 1_555
H53_3 O27_3 1_555 1_555
In15_2 O16_3 1_555 1_555
O33_3 In4_3 1_555 1_555
O34_3 In4_3 1_555 1_555
O36_3 In4_3 1_555 1_555
In4_3 O27_3 1_555 1_555
C64_3 O20_3 1_555 1_555
In15_2 O41_3 1_555 1_555
C24_4 C37_4 1_555 1_555
C37_4 C38_4 1_555 1_555
C38_4 H21_4 1_555 1_555
C41_4 C40_4 1_555 1_555
H23_4 C41_4 1_555 1_555
C42_4 C37_4 1_555 1_555
H24_4 C42_4 1_555 1_555
O36 C24_4 1_555 1_555
O12_4 C24_4 1_555 1_555
In9 O12_4 1_555 1_555
In9_3 O10_2 1_555 1_555
C41_4 C42_4 1_555 1_555
In9 O1_4 1_555 1_555
In2_3 O2_4 1_555 1_555
In11_2 O8_4 1_555 1_555
In15_2 O15_4 1_555 1_555
C1_4 C4_4 1_555 1_555
C2_4 C10_4 1_555 1_555
C3_4 C16_4 1_555 1_555
C4_4 C5_4 1_555 1_555
C5_4 H1_4 1_555 1_555
C6_4 C5_4 1_555 1_555
H2_4 C6_4 1_555 1_555
C7_4 C6_4 1_555 1_555
C8_4 C7_4 1_555 1_555
H3_4 C8_4 1_555 1_555
C9_4 C4_4 1_555 1_555
H4_4 C9_4 1_555 1_555
C10_4 C11_4 1_555 1_555
C11_4 H5_4 1_555 1_555
C12_4 C11_4 1_555 1_555
H6_4 C12_4 1_555 1_555
C13_4 C12_4 1_555 1_555
C14_4 C13_4 1_555 1_555
H7_4 C14_4 1_555 1_555
C15_4 C10_4 1_555 1_555
H8_4 C15_4 1_555 1_555
C16_4 C17_4 1_555 1_555
C17_4 H9_4 1_555 1_555
C18_4 C17_4 1_555 1_555
H10_4 C18_4 1_555 1_555
C19_4 C18_4 1_555 1_555
C20_4 C19_4 1_555 1_555
H11_4 C20_4 1_555 1_555
C21_4 C16_4 1_555 1_555
H12_4 C21_4 1_555 1_555
C22_4 C25_4 1_555 1_555
C23_4 C31_4 1_555 1_555
C25_4 C26_4 1_555 1_555
C26_4 H13_4 1_555 1_555
C27_4 C26_4 1_555 1_555
H14_4 C27_4 1_555 1_555
C28_4 C27_4 1_555 1_555
C29_4 C28_4 1_555 1_555
H15_4 C29_4 1_555 1_555
C30_4 C25_4 1_555 1_555
H16_4 C30_4 1_555 1_555
C31_4 C32_4 1_555 1_555
C32_4 H17_4 1_555 1_555
C33_4 C32_4 1_555 1_555
H18_4 C33_4 1_555 1_555
C34_4 C33_4 1_555 1_555
C35_4 C34_4 1_555 1_555
C36_4 C31_4 1_555 1_555
H22_4 C39_4 1_555 1_555
C43_4 C46_4 1_555 1_555
C46_4 C47_4 1_555 1_555
C48_4 C47_4 1_555 1_555
H26_4 C48_4 1_555 1_555
C49_4 C48_4 1_555 1_555
C50_4 C49_4 1_555 1_555
H27_4 C50_4 1_555 1_555
C51_4 C46_4 1_555 1_555
H28_4 C51_4 1_555 1_555
C52_4 C53_4 1_555 1_555
C54_4 C53_4 1_555 1_555
H30_4 C54_4 1_555 1_555
C55_4 C54_4 1_555 1_555
C56_4 C55_4 1_555 1_555
H31_4 C56_4 1_555 1_555
C57_4 C52_4 1_555 1_555
H32_4 C57_4 1_555 1_555
C58_4 C59_4 1_555 1_555
C59_4 H33_4 1_555 1_555
C60_4 C59_4 1_555 1_555
H34_4 C60_4 1_555 1_555
C61_4 C60_4 1_555 1_555
C62_4 C61_4 1_555 1_555
H35_4 C62_4 1_555 1_555
C63_4 C58_4 1_555 1_555
H36_4 C63_4 1_555 1_555
C65_4 C73_4 1_555 1_555
H38_4 C69_6 1_555 1_555
H43_4 C77_4 1_555 1_555
C78_4 C73_4 1_555 1_555
H44_4 C78_4 1_555 1_555
N1_4 C7_4 1_555 1_555
N2_4 C28_4 1_555 1_555
N3_4 C49_4 1_555 1_555
O1_4 C1_4 1_555 1_555
O2_4 C1_4 1_555 1_555
O3_2 C2_4 1_555 1_555
O4_2 C2_4 1_555 1_555
O32_3 C3_4 1_555 1_555
O33_3 C3_4 1_555 1_555
O7_4 In2_3 1_555 1_555
O8_4 C22_4 1_555 1_555
O34_3 C23_4 1_555 1_555
O13_4 In11_2 1_555 1_555
O14_4 In2_3 1_555 1_555
O39_3 C65_4 1_555 1_555
O22_4 In15_2 1_555 1_555
O25_4 In9 1_555 1_555
H51_4 O25_4 1_555 1_555
O26_4 In2_3 1_555 1_555
H52_4 O26_4 1_555 1_555
In9_3 O3_2 1_555 1_555
In10_2 O4_2 1_555 1_555
O30_3 In9 1_555 1_555
O31_3 In2_3 1_555 1_555
O35_3 In9 1_555 1_555
In2_3 O25_4 1_555 1_555
In11_2 O26_4 1_555 1_555
C8_4 C9_4 1_555 1_555
C13_4 N1_4 1_555 1_555
C14_4 C15_4 1_555 1_555
C19_4 N1_4 1_555 1_555
C20_4 C21_4 1_555 1_555
C22_4 O7_4 1_555 1_555
C29_4 C30_4 1_555 1_555
C34_4 N2_4 1_555 1_555
C35_4 C36_4 1_555 1_555
C43_4 O13_4 1_555 1_555
C43_4 O14_4 1_555 1_555
C50_4 C51_4 1_555 1_555
C55_4 N3_4 1_555 1_555
C56_4 C57_4 1_555 1_555
C61_4 N3_4 1_555 1_555
C62_4 C63_4 1_555 1_555
C65_4 O22_4 1_555 1_555
C77_4 C78_4 1_555 1_555
In12 O19_4 1_555 1_555
C64_4 C67_4 1_555 1_555
C67_4 C68_4 1_555 1_555
C69_7 C68_4 1_555 1_555
C70_4 C69_7 1_555 1_555
C71_4 C70_4 1_555 1_555
H39_4 C71_4 1_555 1_555
C72_4 C67_4 1_555 1_555
H40_4 C72_4 1_555 1_555
C74_4 H41_4 1_555 1_555
C75_4 C74_4 1_555 1_555
H42_4 C75_4 1_555 1_555
C76_4 C75_4 1_555 1_555
N4_4 C70_4 1_555 1_555
O38_2 C44_4 1_555 1_555
O19_4 C64_4 1_555 1_555
H53_4 O27_4 1_555 1_555
O40 In12 1_555 1_555
H54_4 O40 1_555 1_555
In12 O27_4 1_555 1_555
C64_4 O20_4 1_555 1_555
C71_4 C72_4 1_555 1_555
C76_4 N4_4 1_555 1_555
In12_2 O19_5 1_555 1_555
C3_5 C16_5 1_555 1_555
C16_5 C17_5 1_555 1_555
C17_5 H9_5 1_555 1_555
C22_5 C25_5 1_555 1_555
C23_5 C31_5 1_555 1_555
C24_5 C37_5 1_555 1_555
C25_5 C26_5 1_555 1_555
C26_5 H13_5 1_555 1_555
C27_5 C26_5 1_555 1_555
H14_5 C27_5 1_555 1_555
C28_5 C27_5 1_555 1_555
C29_5 C28_5 1_555 1_555
H15_5 C29_5 1_555 1_555
C30_5 C25_5 1_555 1_555
H16_5 C30_5 1_555 1_555
C31_5 C32_5 1_555 1_555
C32_5 H17_5 1_555 1_555
C33_5 C32_5 1_555 1_555
H18_5 C33_5 1_555 1_555
C34_5 C33_5 1_555 1_555
C35_5 C34_5 1_555 1_555
H19_5 C35_5 1_555 1_555
C36_5 C31_5 1_555 1_555
H20_5 C36_5 1_555 1_555
C37_5 C38_5 1_555 1_555
C38_5 H21_5 1_555 1_555
C39_5 C38_5 1_555 1_555
H22_5 C39_5 1_555 1_555
C40_5 C39_5 1_555 1_555
C41_5 C40_5 1_555 1_555
H23_5 C41_5 1_555 1_555
C42_5 C37_5 1_555 1_555
H24_5 C42_5 1_555 1_555
C64_5 C67_5 1_555 1_555
C65_5 C73_5 1_555 1_555
C66_4 C79_4 1_555 1_555
C67_5 C68_5 1_555 1_555
C68_5 H37_5 1_555 1_555
C69_8 C68_5 1_555 1_555
H38_5 C69_8 1_555 1_555
C70_5 C69_8 1_555 1_555
C71_5 C70_5 1_555 1_555
H39_5 C71_5 1_555 1_555
C72_5 C67_5 1_555 1_555
H40_5 C72_5 1_555 1_555
C73_5 C74_5 1_555 1_555
C74_5 H41_5 1_555 1_555
C75_5 C74_5 1_555 1_555
H42_5 C75_5 1_555 1_555
C76_5 C75_5 1_555 1_555
C77_5 C76_5 1_555 1_555
H43_5 C77_5 1_555 1_555
C78_5 C73_5 1_555 1_555
H44_5 C78_5 1_555 1_555
C79_4 C80_4 1_555 1_555
C80_4 H45_4 1_555 1_555
C81_4 C80_4 1_555 1_555
H46_4 C81_4 1_555 1_555
C82_4 C81_4 1_555 1_555
C83_4 C82_4 1_555 1_555
H47_4 C83_4 1_555 1_555
C84_4 C79_4 1_555 1_555
H48_4 C84_4 1_555 1_555
N2_5 C28_5 1_555 1_555
N4_5 C70_5 1_555 1_555
O32 C3_5 1_555 1_555
O33 C3_5 1_555 1_555
O8_5 C22_5 1_555 1_555
O34 C23_5 1_555 1_555
O35_3 C23_5 1_555 1_555
O36_2 C24_5 1_555 1_555
O12_5 C24_5 1_555 1_555
O19_5 C64_5 1_555 1_555
O39 C65_5 1_555 1_555
O23_4 C66_4 1_555 1_555
H50_4 O23_4 1_555 1_555
O24_4 C66_4 1_555 1_555
H53_5 O27_5 1_555 1_555
O40_2 In12_2 1_555 1_555
H54_5 O40_2 1_555 1_555
H55_6 O41 1_555 1_555
In9_2 O12_5 1_555 1_555
In12_2 O27_5 1_555 1_555
C29_5 C30_5 1_555 1_555
C34_5 N2_5 1_555 1_555
C35_5 C36_5 1_555 1_555
C40_5 N2_5 1_555 1_555
C41_5 C42_5 1_555 1_555
C64_5 O20_5 1_555 1_555
C65_5 O22_5 1_555 1_555
C71_5 C72_5 1_555 1_555
C76_5 N4_5 1_555 1_555
C77_5 C78_5 1_555 1_555
C82_4 N4_5 1_555 1_555
C83_4 C84_4 1_555 1_555
In9_2 O1_5 1_555 1_555
In2_4 O2_5 1_555 1_555
In14 O15_5 1_555 1_555
C1_5 C4_5 1_555 1_555
C2_5 C10_5 1_555 1_555
C4_5 C5_5 1_555 1_555
C5_5 H1_5 1_555 1_555
C6_5 C5_5 1_555 1_555
H2_5 C6_5 1_555 1_555
C7_5 C6_5 1_555 1_555
C8_5 C7_5 1_555 1_555
H3_5 C8_5 1_555 1_555
C9_5 C4_5 1_555 1_555
H4_5 C9_5 1_555 1_555
C10_5 C11_5 1_555 1_555
C11_5 H5_5 1_555 1_555
C12_5 C11_5 1_555 1_555
H6_5 C12_5 1_555 1_555
C13_5 C12_5 1_555 1_555
C14_5 C13_5 1_555 1_555
H7_5 C14_5 1_555 1_555
C15_5 C10_5 1_555 1_555
H8_5 C15_5 1_555 1_555
H10_5 C18_5 1_555 1_555
C19_5 C18_5 1_555 1_555
C20_5 C19_5 1_555 1_555
H11_5 C20_5 1_555 1_555
H12_5 C21_5 1_555 1_555
C43_5 C46_5 1_555 1_555
C44_5 C52_5 1_555 1_555
C45_4 C58_5 1_555 1_555
C46_5 C47_5 1_555 1_555
C47_5 H25_5 1_555 1_555
C48_5 C47_5 1_555 1_555
H26_5 C48_5 1_555 1_555
C49_5 C48_5 1_555 1_555
C50_5 C49_5 1_555 1_555
H27_5 C50_5 1_555 1_555
C51_5 C46_5 1_555 1_555
H28_5 C51_5 1_555 1_555
C52_5 C53_5 1_555 1_555
C53_5 H29_5 1_555 1_555
C54_5 C53_5 1_555 1_555
H30_5 C54_5 1_555 1_555
C55_5 C54_5 1_555 1_555
C56_5 C55_5 1_555 1_555
H31_5 C56_5 1_555 1_555
C57_5 C52_5 1_555 1_555
H32_5 C57_5 1_555 1_555
C58_5 C59_5 1_555 1_555
C59_5 H33_5 1_555 1_555
C60_5 C59_5 1_555 1_555
H34_5 C60_5 1_555 1_555
C61_5 C60_5 1_555 1_555
C62_5 C61_5 1_555 1_555
H35_5 C62_5 1_555 1_555
C63_5 C58_5 1_555 1_555
H36_5 C63_5 1_555 1_555
N1_5 C7_5 1_555 1_555
N3_5 C49_5 1_555 1_555
O1_5 C1_5 1_555 1_555
O2_5 C1_5 1_555 1_555
O30_3 C2_5 1_555 1_555
O31_3 C2_5 1_555 1_555
O7_5 In2_4 1_555 1_555
O13_5 In11_3 1_555 1_555
O14_5 In2_4 1_555 1_555
O15_5 C44_5 1_555 1_555
O38_3 C44_5 1_555 1_555
O17_4 C45_4 1_555 1_555
H49_4 O17_4 1_555 1_555
O18_4 C45_4 1_555 1_555
O25_5 In9_2 1_555 1_555
H51_5 O25_5 1_555 1_555
O26_5 In2_4 1_555 1_555
H52_5 O26_5 1_555 1_555
O30_4 In9_2 1_555 1_555
O31_4 In2_4 1_555 1_555
O35_4 In9_2 1_555 1_555
In2_4 O25_5 1_555 1_555
In11_3 O26_5 1_555 1_555
C8_5 C9_5 1_555 1_555
C13_5 N1_5 1_555 1_555
C14_5 C15_5 1_555 1_555
C19_5 N1_5 1_555 1_555
C20_5 C21_5 1_555 1_555
C43_5 O13_5 1_555 1_555
C43_5 O14_5 1_555 1_555
C50_5 C51_5 1_555 1_555
C55_5 N3_5 1_555 1_555
C56_5 C57_5 1_555 1_555
C61_5 N3_5 1_555 1_555
C62_5 C63_5 1_555 1_555
In13 O19_6 1_555 1_555
C64_6 C67_6 1_555 1_555
C66_5 C79_5 1_555 1_555
C67_6 C68_6 1_555 1_555
C69_9 C68_6 1_555 1_555
C70_6 C69_9 1_555 1_555
C71_6 C70_6 1_555 1_555
H39_6 C71_6 1_555 1_555
C72_6 C67_6 1_555 1_555
H40_6 C72_6 1_555 1_555
C74_6 H41_6 1_555 1_555
C75_6 C74_6 1_555 1_555
H42_6 C75_6 1_555 1_555
C76_6 C75_6 1_555 1_555
C79_5 C80_5 1_555 1_555
C80_5 H45_5 1_555 1_555
C81_5 C80_5 1_555 1_555
H46_5 C81_5 1_555 1_555
C82_5 C81_5 1_555 1_555
C83_5 C82_5 1_555 1_555
H47_5 C83_5 1_555 1_555
C84_5 C79_5 1_555 1_555
H48_5 C84_5 1_555 1_555
N4_6 C70_6 1_555 1_555
O38 C44_6 1_555 1_555
O19_6 C64_6 1_555 1_555
O23_5 C66_5 1_555 1_555
O24_5 C66_5 1_555 1_555
H53_6 O27_6 1_555 1_555
O40_3 In13 1_555 1_555
H54_6 O40_3 1_555 1_555
In13 O27_6 1_555 1_555
C64_6 O20_6 1_555 1_555
C71_6 C72_6 1_555 1_555
C76_6 N4_6 1_555 1_555
C82_5 N4_6 1_555 1_555
C83_5 C84_5 1_555 1_555
In9_3 O1_6 1_555 1_555
In10_2 O2_6 1_555 1_555
In11 O8_6 1_555 1_555
In15 O15_6 1_555 1_555
C1_6 C4_6 1_555 1_555
C3_6 C16_6 1_555 1_555
C4_6 C5_6 1_555 1_555
C5_6 H1_6 1_555 1_555
C6_6 C5_6 1_555 1_555
H2_6 C6_6 1_555 1_555
C7_6 C6_6 1_555 1_555
C8_6 C7_6 1_555 1_555
H3_6 C8_6 1_555 1_555
C9_6 C4_6 1_555 1_555
H4_6 C9_6 1_555 1_555
C11_6 H5_6 1_555 1_555
C12_6 C11_6 1_555 1_555
H6_6 C12_6 1_555 1_555
C13_6 C12_6 1_555 1_555
C14_6 C13_6 1_555 1_555
H7_6 C14_6 1_555 1_555
C16_6 C17_6 1_555 1_555
C17_6 H9_6 1_555 1_555
C18_6 C17_6 1_555 1_555
H10_6 C18_6 1_555 1_555
C19_6 C18_6 1_555 1_555
C20_6 C19_6 1_555 1_555
H11_6 C20_6 1_555 1_555
C21_6 C16_6 1_555 1_555
H12_6 C21_6 1_555 1_555
C22_6 C25_6 1_555 1_555
C23_6 C31_6 1_555 1_555
C24_6 C37_6 1_555 1_555
C25_6 C26_6 1_555 1_555
C26_6 H13_6 1_555 1_555
C27_6 C26_6 1_555 1_555
H14_6 C27_6 1_555 1_555
C28_6 C27_6 1_555 1_555
C29_6 C28_6 1_555 1_555
H15_6 C29_6 1_555 1_555
C30_6 C25_6 1_555 1_555
H16_6 C30_6 1_555 1_555
C31_6 C32_6 1_555 1_555
C32_6 H17_6 1_555 1_555
C33_6 C32_6 1_555 1_555
H18_6 C33_6 1_555 1_555
C34_6 C33_6 1_555 1_555
C35_6 C34_6 1_555 1_555
H19_6 C35_6 1_555 1_555
C36_6 C31_6 1_555 1_555
H20_6 C36_6 1_555 1_555
C37_6 C38_6 1_555 1_555
C38_6 H21_6 1_555 1_555
C39_6 C38_6 1_555 1_555
H22_6 C39_6 1_555 1_555
C40_6 C39_6 1_555 1_555
C41_6 C40_6 1_555 1_555
H23_6 C41_6 1_555 1_555
C42_6 C37_6 1_555 1_555
H24_6 C42_6 1_555 1_555
C43_6 C46_6 1_555 1_555
C46_6 C47_6 1_555 1_555
C48_6 C47_6 1_555 1_555
H26_6 C48_6 1_555 1_555
C49_6 C48_6 1_555 1_555
C50_6 C49_6 1_555 1_555
C51_6 C46_6 1_555 1_555
H28_6 C51_6 1_555 1_555
C52_6 C53_6 1_555 1_555
C56_6 C55_6 1_555 1_555
H31_6 C56_6 1_555 1_555
C57_6 C52_6 1_555 1_555
H32_6 C57_6 1_555 1_555
C65_6 C73_6 1_555 1_555
H38_6 C69_10 1_555 1_555
H43_6 C77_6 1_555 1_555
C78_6 C73_6 1_555 1_555
H44_6 C78_6 1_555 1_555
N1_6 C7_6 1_555 1_555
N2_6 C28_6 1_555 1_555
O1_6 C1_6 1_555 1_555
O2_6 C1_6 1_555 1_555
O32_2 C3_6 1_555 1_555
O33_2 C3_6 1_555 1_555
O7_6 In10_2 1_555 1_555
O8_6 C22_6 1_555 1_555
O34_2 C23_6 1_555 1_555
O35_4 C23_6 1_555 1_555
O36_3 C24_6 1_555 1_555
O12_6 C24_6 1_555 1_555
O13_6 In11 1_555 1_555
O14_6 In10_2 1_555 1_555
O39_2 C65_6 1_555 1_555
O22_6 In15 1_555 1_555
O25_6 In9_3 1_555 1_555
H51_6 O25_6 1_555 1_555
O26_6 In10_2 1_555 1_555
H52_6 O26_6 1_555 1_555
In10_2 O25_6 1_555 1_555
In11 O26_6 1_555 1_555
C8_6 C9_6 1_555 1_555
C13_6 N1_6 1_555 1_555
C19_6 N1_6 1_555 1_555
C20_6 C21_6 1_555 1_555
C22_6 O7_6 1_555 1_555
C29_6 C30_6 1_555 1_555
C34_6 N2_6 1_555 1_555
C35_6 C36_6 1_555 1_555
C40_6 N2_6 1_555 1_555
C41_6 C42_6 1_555 1_555
C43_6 O13_6 1_555 1_555
C43_6 O14_6 1_555 1_555
C50_6 C51_6 1_555 1_555
C56_6 C57_6 1_555 1_555
C65_6 O22_6 1_555 1_555
C77_6 C78_6 1_555 1_555
C2_6 C10_6 1_555 1_555
C15_6 C10_6 1_555 1_555
H8_6 C15_6 1_555 1_555
C45_5 C58_6 1_555 1_555
H30_6 C54_6 1_555 1_555
C58_6 C59_6 1_555 1_555
C59_6 H33_6 1_555 1_555
C60_6 C59_6 1_555 1_555
H34_6 C60_6 1_555 1_555
C61_6 C60_6 1_555 1_555
C62_6 C61_6 1_555 1_555
H35_6 C62_6 1_555 1_555
C63_6 C58_6 1_555 1_555
H36_6 C63_6 1_555 1_555
O30_4 C2_6 1_555 1_555
O31_4 C2_6 1_555 1_555
O17_5 C45_5 1_555 1_555
H49_5 O17_5 1_555 1_555
O18_5 C45_5 1_555 1_555
C61_6 N3_6 1_555 1_555
C62_6 C63_6 1_555 1_555
O17_6 C45_6 1_555 1_555
H49_6 O17_6 1_555 1_555
O18_6 C45_6 1_555 1_555
C66_6 C79_6 1_555 1_555
C79_6 C80_6 1_555 1_555
C80_6 H45_6 1_555 1_555
C81_6 C80_6 1_555 1_555
H46_6 C81_6 1_555 1_555
C82_6 C81_6 1_555 1_555
C83_6 C82_6 1_555 1_555
H47_6 C83_6 1_555 1_555
C84_6 C79_6 1_555 1_555
H48_6 C84_6 1_555 1_555
O23_6 C66_6 1_555 1_555
H50_5 O23_6 1_555 1_555
O24_6 C66_6 1_555 1_555
C83_6 C84_6 1_555 1_555

#END
