
###############################################################################
#
# This file contains modified crystal structure data generated from the
# MOF subset of the Cambridge Structural Database (CSD) v543 
# hosted by the Cambridge Crystallographic Data Centre (CCDC).
#
# This work is licensed under the Creative Commons
# Attribution-NonCommercial-ShareAlike 4.0 International License.
# To view a copy of this license, visit
# http://creativecommons.org/licenses/by-nc-sa/4.0/
# or send a letter to
# Creative Commons, PO Box 1866, Mountain View, CA 94042, USA.
#
# CIF created using the CSD Python API on 29 September 2022
# The structure has been converted into the P1 space group
# The structure has a 3D framework
# The original CSD entry LARROP is in the hexagonal crystal system
# The original CSD entry LARROP is in a Sohncke space group
# The framework has been calculated to contain at least 10.0% void space
# The void calculation uses a probe of radius 1.32A, grid spacing 0.4
#
###############################################################################

data_LARROP
_chemical_formula_moiety         '(C504 H328 In29 N24 O161)n'
_symmetry_cell_setting           triclinic
_symmetry_space_group_name_H-M   'P 1'
_symmetry_Int_Tables_number      1
_space_group_name_Hall           'P 1'
loop_
_symmetry_equiv_pos_site_id
_symmetry_equiv_pos_as_xyz
1 x,y,z
_cell_length_a                   37.662(5)
_cell_length_b                   37.662(5)
_cell_length_c                   17.189(2)
_cell_angle_alpha                90
_cell_angle_beta                 90
_cell_angle_gamma                120
_cell_volume                     21114.9
loop_
_atom_site_label
_atom_site_type_symbol
_atom_site_fract_x
_atom_site_fract_y
_atom_site_fract_z
In14 In 0.06323(7) 0.01031(5) 0.93194(12)
In2 In 0.00043(5) 0.59827(5) 0.09883(13)
In3 In 0.08338(5) 0.60388(5) 0.21378(9)
In5 In 0.01031(5) 0.94708(5) 0.09861(12)
C22 C 0.0461(10) 0.6615(10) 0.2379(18)
C23 C 0.0028(10) 0.8972(10) 0.2538(18)
C24 C 0.1086(13) 0.8369(12) 0.718(2)
C25 C 0.0495(11) 0.6972(10) 0.2803(18)
C26 C 0.0269(11) 0.7173(11) 0.2551(19)
H13 H 0.006331 0.705141 0.217831
C27 C 0.0358(11) 0.7526(10) 0.2857(18)
H14 H 0.025853 0.767836 0.260975
C28 C 0.0604(12) 0.7698(11) 0.3565(19)
C29 C 0.0870(12) 0.7519(11) 0.3741(19)
H15 H 0.106097 0.762612 0.414119
C30 C 0.0830(11) 0.7182(10) 0.3290(17)
H16 H 0.102721 0.710313 0.332437
C31 C 0.0961(8) 0.8267(7) 0.6340(8)
C32 C 0.0721(8) 0.7866(6) 0.6077(10)
H17 H 0.061777 0.764972 0.642951
C33 C 0.0637(8) 0.7789(5) 0.5288(11)
H18 H 0.047622 0.752100 0.511294
C34 C 0.0792(8) 0.8112(7) 0.4762(8)
C35 C 0.1031(8) 0.8513(6) 0.5024(10)
H19 H 0.113501 0.872927 0.467221
C36 C 0.1116(8) 0.8590(5) 0.5813(12)
H20 H 0.127655 0.885800 0.598879
C37 C 0.0235(11) 0.8750(10) 0.2912(18)
C38 C 0.0500(11) 0.8677(10) 0.2559(19)
H21 H 0.057773 0.876555 0.205058
C39 C 0.0667(12) 0.8467(11) 0.2940(19)
H22 H 0.089064 0.846521 0.271488
C40 C 0.0521(12) 0.8266(11) 0.3616(19)
C41 C 0.0209(12) 0.8324(11) 0.394(2)
H23 H 0.007863 0.817665 0.438314
C42 C 0.0085(11) 0.8575(10) 0.3645(18)
N2 N 0.0656(10) 0.8036(9) 0.3929(17)
O5 O 0.0226(6) 0.9116(6) 0.0119(11)
O7 O 0.0647(6) 0.6440(6) 0.2625(12)
O8 O 0.0253(7) 0.6516(7) 0.1747(12)
O9 O 0.0131(7) 0.9037(7) 0.1790(12)
O11 O 0.1310(9) 0.8741(9) 0.7324(14)
O12 O 0.0918(10) 0.8055(9) 0.7638(15)
H50 H 0.099310 0.814905 0.809539
O27 O 0.0245(6) 0.5682(6) 0.1692(11)
H53 H 0.009089 0.540267 0.179733
H55 H 0.009046 0.994905 0.209664
O31 O 0.0734(10) 0.9813(7) 0.1247(11)
O32 O 0.1033(9) 0.6416(6) 0.1078(12)
O33 O 0.0537(10) 0.6232(7) 0.0230(12)
O36 O 0.1066(6) 0.5699(7) 0.1514(12)
O39 O 0.1425(8) 0.6454(6) 0.2467(11)
O40 O 0.0771(5) 0.5701(6) 0.3141(11)
O41 O 0.0175(9) 0.9912(7) 0.0200(13)
C7 C 0.0025(5) 0.7329(5) 0.8872(12)
H3 H 0.026384 0.758139 0.891117
H4 H 0.019572 0.702488 0.961444
C9 C 0.0277(10) 0.9165(9) 0.9409(18)
C16 C 0.0153(12) 0.8756(10) 0.8984(19)
C20 C 0.0199(12) 0.8369(11) 0.790(2)
H11 H 0.032819 0.837734 0.742953
C21 C 0.0273(11) 0.8720(11) 0.8253(19)
H12 H 0.041932 0.896101 0.797055
O6 O 0.0428(7) 0.9476(6) 0.9040(12)
H24 H 0.990659 0.863111 0.392089
C44 C 0.6362(10) 0.5456(11) 0.2051(18)
H26 H 0.741389 0.522621 0.016740
C52 C 0.6463(10) 0.5267(11) 0.1445(18)
C53 C 0.6385(10) 0.5344(11) 0.0734(17)
H29 H 0.626444 0.550607 0.066595
C54 C 0.6483(10) 0.5183(11) 0.0076(17)
C55 C 0.6647(10) 0.4924(11) 0.0201(18)
C56 C 0.6711(10) 0.4827(11) 0.0949(18)
H31 H 0.680261 0.464316 0.104571
C57 C 0.6625(10) 0.5031(11) 0.1557(19)
H32 H 0.668722 0.499519 0.206447
C64 C 0.9091(9) 0.5533(10) 0.1546(17)
C65 C 0.8737(10) 0.4482(11) 0.6613(19)
C66 C 0.6476(8) 0.4732(11) 0.4455(19)
C67 C 0.8773(9) 0.5349(10) 0.2198(17)
C68 C 0.8935(10) 0.5465(10) 0.2963(17)
H37 H 0.921259 0.564275 0.304795
C69 C 0.8656(10) 0.5299(11) 0.3586(17)
H38 H 0.873030 0.540067 0.408919
C70 C 0.8292(10) 0.4998(11) 0.3428(18)
C71 C 0.8124(10) 0.4938(10) 0.2719(18)
H39 H 0.784137 0.478231 0.265024
C72 C 0.8389(9) 0.5118(10) 0.2080(19)
H40 H 0.828508 0.506858 0.157654
C73 C 0.6871(8) 0.4734(10) 0.4359(18)
C74 C 0.7183(9) 0.5049(10) 0.3970(17)
H41 H 0.713631 0.525356 0.378464
C75 C 0.7548(9) 0.5091(10) 0.3828(18)
H42 H 0.774964 0.530566 0.353715
C76 C 0.7602(9) 0.4765(11) 0.4179(18)
C77 C 0.7306(9) 0.4449(11) 0.4507(17)
H43 H 0.733558 0.422686 0.465159
C78 C 0.6930(10) 0.4445(11) 0.4646(18)
H44 H 0.672532 0.423615 0.494153
C79 C 0.8529(10) 0.4547(11) 0.6032(19)
C80 C 0.8339(9) 0.4742(11) 0.6095(19)
H45 H 0.831780 0.482271 0.659588
C81 C 0.8153(10) 0.4852(11) 0.5503(18)
H46 H 0.801198 0.499200 0.559277
C82 C 0.8205(10) 0.4727(11) 0.4759(18)
C83 C 0.8401(9) 0.4548(10) 0.4666(18)
H47 H 0.842753 0.448574 0.415253
C84 C 0.8593(10) 0.4422(11) 0.5230(18)
H48 H 0.873488 0.428405 0.512370
N4 N 0.8005(10) 0.4803(11) 0.409(2)
O1 O 0.9801(7) 0.6322(7) 0.0294(12)
O10 O 0.9813(7) 0.9079(7) 0.2914(11)
O15 O 0.6416(6) 0.5383(7) 0.2745(12)
O16 O 0.6232(7) 0.5695(7) 0.1897(12)
O19 O 0.9471(6) 0.5745(7) 0.1675(12)
O20 O 0.8943(6) 0.5477(7) 0.0805(11)
O21 O 0.8934(6) 0.4301(7) 0.6514(12)
O22 O 0.8705(6) 0.4594(7) 0.7282(13)
O23 O 0.6165(6) 0.4442(7) 0.4919(12)
O24 O 0.6454(6) 0.5029(6) 0.4134(11)
O26 O 0.9714(6) 0.5472(6) 0.0215(10)
H52 H 0.984268 0.532491 0.008054
O29 O 0.9912(7) 0.9737(6) 0.1867(13)
In7 In 0.59827(5) 0.59784(7) 0.26550(13)
In9 In 0.91662(5) 0.39612(5) 0.71378(9)
In10 In 0.60388(5) 0.52050(7) 0.38045(9)
In11 In 0.87591(5) 0.44200(5) 0.84715(13)
In13 In 0.55800(5) 0.43391(7) 0.51382(13)
In15 In 0.94708(5) 0.93677(7) 0.26528(12)
O30 O 0.9476(6) 0.9048(9) 0.0707(12)
O34 O 0.8862(9) 0.4726(6) 0.0345(12)
In1 In 0.91365(5) 0.52984(5) 0.97925(10)
C1 C 0.9595(10) 0.6249(10) 0.9618(18)
C2 C 0.9453(14) 0.7306(11) 0.4636(15)
C3 C 0.9626(6) 0.6617(5) 0.9235(11)
C4 C 0.9309(5) 0.6573(5) 0.8756(12)
H1 H 0.906990 0.632043 0.871702
C5 C 0.9350(6) 0.6907(6) 0.8335(11)
H2 H 0.913803 0.687695 0.801376
C6 C 0.9708(6) 0.7284(5) 0.8393(12)
C8 C 0.9984(5) 0.6995(6) 0.9294(11)
C10 C 0.9517(9) 0.7381(7) 0.5476(9)
C11 C 0.9489(9) 0.7702(7) 0.5815(10)
H5 H 0.941115 0.785728 0.551629
C12 C 0.9578(9) 0.7790(7) 0.6600(11)
H6 H 0.955964 0.800421 0.682658
C13 C 0.9695(8) 0.7557(7) 0.7046(8)
C14 C 0.9723(8) 0.7237(7) 0.6707(11)
H7 H 0.980056 0.708153 0.700611
C15 C 0.9634(9) 0.7149(6) 0.5922(11)
H8 H 0.965208 0.693459 0.569582
C17 C 0.9867(11) 0.8388(10) 0.935(2)
H9 H 0.976325 0.839375 0.983650
C18 C 0.9736(12) 0.7998(11) 0.8962(19)
H10 H 0.953126 0.775487 0.917762
C19 C 0.9926(12) 0.7996(11) 0.824(2)
C43 C 0.8250(8) 0.4822(10) 0.9109(18)
C45 C 0.5647(10) 0.4375(11) 0.6949(18)
C46 C 0.7851(4) 0.4793(6) 0.9251(12)
C47 C 0.7816(5) 0.5070(6) 0.9736(12)
H25 H 0.804671 0.527344 0.998861
C48 C 0.7437(6) 0.5041(6) 0.9843(11)
C49 C 0.7093(4) 0.4736(7) 0.9466(12)
C50 C 0.7128(5) 0.4460(6) 0.8981(12)
H27 H 0.689719 0.425595 0.872843
C51 C 0.7507(6) 0.4488(6) 0.8874(11)
H28 H 0.753000 0.430317 0.854963
H30 H 0.644009 0.524703 0.957452
C58 C 0.5939(10) 0.4467(11) 0.7629(18)
C59 C 0.6357(10) 0.4682(11) 0.7524(19)
H33 H 0.646849 0.475056 0.702645
C60 C 0.6609(11) 0.4793(11) 0.8170(18)
H34 H 0.688576 0.498755 0.812206
C61 C 0.6456(10) 0.4619(11) 0.8882(18)
C62 C 0.6020(10) 0.4349(11) 0.8961(17)
H35 H 0.590670 0.422427 0.943466
C63 C 0.5777(11) 0.4281(11) 0.8321(17)
H36 H 0.549553 0.410404 0.836106
N1 N 0.9785(8) 0.7618(8) 0.7884(11)
N3 N 0.6728(8) 0.4726(10) 0.9553(16)
O2 O 0.9355(6) 0.5900(6) 0.9370(12)
O3 O 0.9456(11) 0.7024(10) 0.4325(18)
O4 O 0.9304(10) 0.7500(9) 0.4320(17)
H49 H 0.928785 0.743539 0.384298
O13 O 0.8563(6) 0.5145(6) 0.9318(12)
O14 O 0.8287(6) 0.4549(6) 0.8796(12)
O17 O 0.5274(6) 0.4136(7) 0.7012(12)
O18 O 0.5813(7) 0.4523(8) 0.6257(12)
O25 O 0.9220(6) 0.5031(6) 0.8720(11)
H51 H 0.944418 0.517934 0.839480
O28 O 0.9229(5) 0.4299(6) 0.8141(11)
H54 H 0.940543 0.437100 0.850255
In6 In 0.47016(5) 0.38381(7) 0.64592(10)
O35 O 0.8710(11) 0.4187(7) 0.9590(12)
O38 O 0.8277(9) 0.3835(6) 0.8252(12)
In3_2 In 0.47950(7) 0.08338(5) 0.04711(9)
C22_2 C 0.3846(14) 0.0461(10) 0.0712(18)
C23_2 C 0.1056(14) 0.0028(10) 0.0871(18)
C24_2 C 0.2717(18) 0.1086(13) 0.551(2)
C25_2 C 0.3523(15) 0.0495(11) 0.1136(18)
C26_2 C 0.3096(16) 0.0269(11) 0.0884(19)
H13_2 H 0.301190 0.006331 0.051164
C27_2 C 0.2832(15) 0.0358(11) 0.1190(18)
H14_2 H 0.258017 0.025853 0.094308
C28_2 C 0.2906(16) 0.0604(12) 0.1898(19)
C29_2 C 0.3351(16) 0.0870(12) 0.2074(19)
H15_2 H 0.343485 0.106097 0.247452
C30_2 C 0.3648(15) 0.0830(11) 0.1623(17)
H16_2 H 0.392408 0.102721 0.165770
C31_2 C 0.2694(11) 0.0961(8) 0.4673(8)
C32_2 C 0.2855(10) 0.0721(8) 0.4410(10)
H17_2 H 0.296805 0.061777 0.476284
C33_2 C 0.2848(9) 0.0637(8) 0.3621(11)
H18_2 H 0.295522 0.047622 0.344627
C34_2 C 0.2680(11) 0.0792(8) 0.3095(8)
C35_2 C 0.2518(10) 0.1031(8) 0.3357(10)
H19_2 H 0.240574 0.113501 0.300554
C36_2 C 0.2526(9) 0.1116(8) 0.4146(12)
H20_2 H 0.241855 0.127655 0.432212
C37_2 C 0.1485(15) 0.0235(11) 0.1245(18)
C38_2 C 0.1823(15) 0.0500(11) 0.0892(19)
H21_2 H 0.181218 0.057773 0.038391
C39_2 C 0.2200(16) 0.0667(12) 0.1273(19)
H22_2 H 0.242543 0.089064 0.104821
C40_2 C 0.2255(16) 0.0521(12) 0.1949(19)
C41_2 C 0.1885(16) 0.0209(12) 0.227(2)
H23_2 H 0.190198 0.007863 0.271647
C42_2 C 0.1510(15) 0.0085(11) 0.1978(18)
N2_2 N 0.2620(13) 0.0656(10) 0.2262(17)
O7_2 O 0.4207(8) 0.0647(6) 0.0958(12)
O8_2 O 0.3737(10) 0.0253(7) 0.0080(12)
O9_2 O 0.1094(10) 0.0131(7) 0.0123(12)
O11_2 O 0.2569(13) 0.1310(9) 0.5657(14)
O12_2 O 0.2863(13) 0.0918(10) 0.5971(15)
H50_2 H 0.284405 0.099310 0.642872
O27_2 O 0.4563(8) 0.0245(6) 0.0025(11)
H53_2 H 0.468822 0.009089 0.013066
H55_2 H 0.014141 0.009046 0.042997
O39_2 O 0.4971(10) 0.1425(8) 0.0801(11)
O40_2 O 0.5070(8) 0.0771(5) 0.1474(11)
In2_2 In 0.40216(7) 0.00043(5) 0.93216(13)
C7_2 C 0.2696(7) 0.0025(5) 0.7205(12)
H3_2 H 0.268245 0.026384 0.724450
H4_2 H 0.317084 0.019572 0.794777
C9_2 C 0.1112(13) 0.0277(10) 0.7742(18)
C16_2 C 0.1397(16) 0.0153(12) 0.7317(19)
C20_2 C 0.1830(16) 0.0199(12) 0.623(2)
H11_2 H 0.195085 0.032819 0.576286
C21_2 C 0.1553(16) 0.0273(11) 0.6586(19)
H12_2 H 0.145831 0.041932 0.630388
O5_2 O 0.1110(8) 0.0226(6) 0.8452(11)
O6_2 O 0.0952(9) 0.0428(7) 0.7373(12)
In14_2 In 0.05292(9) 0.06323(7) 0.76528(12)
O31_2 O 0.0921(12) 0.0734(10) 0.9581(11)
O32_2 O 0.4617(11) 0.1033(9) 0.9412(12)
O33_2 O 0.4305(12) 0.0537(10) 0.8564(12)
O36_2 O 0.5367(9) 0.1066(6) 0.9847(12)
O41_2 O 0.0263(11) 0.0175(9) 0.8534(13)
H24_2 H 0.127548 0.990659 0.225422
C44_2 C 0.0906(15) 0.6362(10) 0.0384(18)
H32_2 H 0.169203 0.668722 0.039780
C65_2 C 0.4255(15) 0.8737(10) 0.4946(19)
C66_2 C 0.1744(14) 0.6476(8) 0.2788(19)
C67_2 C 0.3424(13) 0.8773(9) 0.0531(17)
C68_2 C 0.3470(14) 0.8935(10) 0.1296(17)
H37_2 H 0.356984 0.921259 0.138128
C69_2 C 0.3357(15) 0.8656(10) 0.1919(17)
H38_2 H 0.332963 0.873030 0.242252
C70_2 C 0.3294(15) 0.8292(10) 0.1761(18)
C71_2 C 0.3186(14) 0.8124(10) 0.1052(18)
H39_2 H 0.305906 0.784137 0.098357
C72_2 C 0.3271(13) 0.8389(9) 0.0413(19)
C73_2 C 0.2137(13) 0.6871(8) 0.2692(18)
C74_2 C 0.2134(13) 0.7183(9) 0.2303(17)
H41_2 H 0.188275 0.713631 0.211797
C75_2 C 0.2457(13) 0.7548(9) 0.2161(18)
H42_2 H 0.244398 0.774964 0.187048
C76_2 C 0.2837(14) 0.7602(9) 0.2512(18)
C77_2 C 0.2857(14) 0.7306(9) 0.2840(17)
H43_2 H 0.310872 0.733558 0.298492
C78_2 C 0.2485(15) 0.6930(10) 0.2979(18)
H44_2 H 0.248917 0.672532 0.327486
C79_2 C 0.3982(15) 0.8529(10) 0.4365(19)
C80_2 C 0.3597(14) 0.8339(9) 0.4428(19)
H45_2 H 0.349509 0.831780 0.492921
C81_2 C 0.3301(15) 0.8153(10) 0.3836(18)
H46_2 H 0.301998 0.801198 0.392610
C82_2 C 0.3478(15) 0.8205(10) 0.3092(18)
C83_2 C 0.3853(13) 0.8401(9) 0.2999(18)
H47_2 H 0.394179 0.842753 0.248586
C84_2 C 0.4171(15) 0.8593(10) 0.3563(18)
H48_2 H 0.445083 0.873488 0.345703
N4_2 N 0.3202(15) 0.8005(10) 0.242(2)
O19_2 O 0.3726(9) 0.9471(6) 0.0008(12)
O21_2 O 0.4633(9) 0.8934(6) 0.4847(12)
O22_2 O 0.4111(9) 0.8705(6) 0.5615(13)
O23_2 O 0.1723(9) 0.6165(6) 0.3252(12)
In9_2 In 0.52050(7) 0.91662(5) 0.54711(9)
In11_2 In 0.43391(7) 0.87591(5) 0.68048(13)
In13_2 In 0.12409(9) 0.55800(5) 0.34715(13)
In1_2 In 0.38381(7) 0.91365(5) 0.81258(10)
C1_2 C 0.3346(14) 0.9595(10) 0.7951(18)
C2_2 C 0.2147(18) 0.9453(14) 0.2969(15)
C3_2 C 0.3009(8) 0.9626(6) 0.7568(11)
C4_2 C 0.2736(7) 0.9309(5) 0.7089(12)
H1_2 H 0.274947 0.906990 0.705035
C5_2 C 0.2443(8) 0.9350(6) 0.6668(11)
H2_2 H 0.226108 0.913803 0.634709
C6_2 C 0.2424(8) 0.9708(6) 0.6726(12)
C8_2 C 0.2989(8) 0.9984(5) 0.7627(11)
C10_2 C 0.2136(11) 0.9517(9) 0.3809(9)
C11_2 C 0.1787(11) 0.9489(9) 0.4148(10)
H5_2 H 0.155387 0.941115 0.384962
C12_2 C 0.1788(11) 0.9578(9) 0.4933(11)
H6_2 H 0.155543 0.955964 0.515991
C13_2 C 0.2138(11) 0.9695(8) 0.5379(8)
C14_2 C 0.2486(11) 0.9723(8) 0.5040(11)
H7_2 H 0.271903 0.980056 0.533944
C15_2 C 0.2485(11) 0.9634(9) 0.4255(11)
H8_2 H 0.271749 0.965208 0.402915
C17_2 C 0.1479(15) 0.9867(11) 0.768(2)
H9_2 H 0.136950 0.976325 0.816983
C18_2 C 0.1738(16) 0.9736(12) 0.7295(19)
H10_2 H 0.177639 0.953126 0.751095
C19_2 C 0.1930(16) 0.9926(12) 0.657(2)
C43_2 C 0.3428(13) 0.8250(8) 0.7442(18)
C45_2 C 0.1272(15) 0.5647(10) 0.5282(18)
C46_2 C 0.3058(7) 0.7851(4) 0.7584(12)
C47_2 C 0.2746(8) 0.7816(5) 0.8069(12)
H25_2 H 0.277327 0.804671 0.832194
C48_2 C 0.2396(8) 0.7437(6) 0.8176(11)
H26_2 H 0.218768 0.741389 0.850073
C49_2 C 0.2357(8) 0.7093(4) 0.7799(12)
C50_2 C 0.2668(8) 0.7128(5) 0.7314(12)
H27_2 H 0.264124 0.689719 0.706176
C51_2 C 0.3019(8) 0.7507(6) 0.7207(11)
H28_2 H 0.322683 0.753000 0.688296
C52_2 C 0.1196(15) 0.6463(10) 0.9778(18)
C53_2 C 0.1041(15) 0.6385(10) 0.9067(17)
H29_2 H 0.075837 0.626444 0.899928
C54_2 C 0.1300(15) 0.6483(10) 0.8409(17)
H30_2 H 0.119306 0.644009 0.790785
C55_2 C 0.1723(15) 0.6647(10) 0.8534(18)
C56_2 C 0.1884(15) 0.6711(10) 0.9282(18)
H31_2 H 0.215945 0.680261 0.937904
C57_2 C 0.1594(15) 0.6625(10) 0.9890(19)
C58_2 C 0.1472(15) 0.5939(10) 0.5962(18)
C59_2 C 0.1675(15) 0.6357(10) 0.5857(19)
H33_2 H 0.171793 0.646849 0.535978
C60_2 C 0.1816(16) 0.6609(11) 0.6503(18)
H34_2 H 0.189821 0.688576 0.645539
C61_2 C 0.1837(15) 0.6456(10) 0.7215(18)
C62_2 C 0.1671(15) 0.6020(10) 0.7294(17)
H35_2 H 0.168243 0.590670 0.776799
C63_2 C 0.1496(16) 0.5777(11) 0.6654(17)
H36_2 H 0.139149 0.549553 0.669439
C64_2 C 0.3558(13) 0.9091(9) 0.9879(17)
H40_2 H 0.321650 0.828508 0.990987
N1_2 N 0.2167(11) 0.9785(8) 0.6217(11)
N3_2 N 0.2002(13) 0.6728(8) 0.7886(16)
O1_2 O 0.3479(10) 0.9801(7) 0.8627(12)
O2_2 O 0.3455(8) 0.9355(6) 0.7703(12)
O3_2 O 0.2432(15) 0.9456(11) 0.2658(18)
O4_2 O 0.1804(13) 0.9304(10) 0.2653(17)
H49_2 H 0.185246 0.928785 0.217631
O13_2 O 0.3418(8) 0.8563(6) 0.7651(12)
O14_2 O 0.3738(8) 0.8287(6) 0.7129(12)
O17_2 O 0.1138(9) 0.5274(6) 0.5345(12)
O18_2 O 0.1290(11) 0.5813(7) 0.4590(12)
O20_2 O 0.3466(9) 0.8943(6) 0.9138(11)
O25_2 O 0.4189(8) 0.9220(6) 0.7053(11)
H51_2 H 0.426484 0.944418 0.672813
O26_2 O 0.4242(8) 0.9714(6) 0.8548(10)
H52_2 H 0.451777 0.984268 0.841387
O28_2 O 0.4930(8) 0.9229(5) 0.6474(11)
H54_2 H 0.503443 0.940543 0.683588
In6_2 In 0.08635(9) 0.47016(5) 0.47925(10)
O34_2 O 0.4136(11) 0.8862(9) 0.8679(12)
O35_2 O 0.4523(13) 0.8710(11) 0.7924(12)
O38_2 O 0.4442(11) 0.8277(9) 0.6586(12)
C24_3 C 0.1631(12) 0.2717(18) 0.385(2)
C28_3 C 0.2302(11) 0.2906(16) 0.0232(19)
C29_3 C 0.2481(11) 0.3351(16) 0.0408(19)
H15_3 H 0.237388 0.343485 0.080786
C31_3 C 0.1733(7) 0.2694(11) 0.3007(8)
C32_3 C 0.2134(6) 0.2855(10) 0.2744(10)
H17_3 H 0.235028 0.296805 0.309618
C33_3 C 0.2211(5) 0.2848(9) 0.1955(11)
H18_3 H 0.247900 0.295522 0.177961
C34_3 C 0.1888(7) 0.2680(11) 0.1429(8)
C35_3 C 0.1487(6) 0.2518(10) 0.1691(10)
H19_3 H 0.127073 0.240574 0.133888
C36_3 C 0.1410(5) 0.2526(9) 0.2480(12)
H20_3 H 0.114200 0.241855 0.265546
C40_3 C 0.1734(11) 0.2255(16) 0.0283(19)
C41_3 C 0.1676(11) 0.1885(16) 0.061(2)
H23_3 H 0.182335 0.190198 0.104981
C42_3 C 0.1425(10) 0.1510(15) 0.0312(18)
H24_3 H 0.136889 0.127548 0.058756
C65_3 C 0.5518(11) 0.4255(15) 0.3280(19)
C66_3 C 0.5268(11) 0.1744(14) 0.1122(19)
C69_3 C 0.4701(11) 0.3357(15) 0.0253(17)
H38_3 H 0.459933 0.332963 0.075586
C70_3 C 0.5002(11) 0.3294(15) 0.0095(18)
C73_3 C 0.5266(10) 0.2137(13) 0.1026(18)
C74_3 C 0.4951(10) 0.2134(13) 0.0637(17)
H41_3 H 0.474644 0.188275 0.045131
C75_3 C 0.4909(10) 0.2457(13) 0.0495(18)
H42_3 H 0.469434 0.244398 0.020382
C76_3 C 0.5235(11) 0.2837(14) 0.0846(18)
C77_3 C 0.5551(11) 0.2857(14) 0.1174(17)
H43_3 H 0.577314 0.310872 0.131826
C78_3 C 0.5555(11) 0.2485(15) 0.1313(18)
H44_3 H 0.576385 0.248917 0.160820
C79_3 C 0.5453(11) 0.3982(15) 0.2699(19)
C80_3 C 0.5258(11) 0.3597(14) 0.2762(19)
H45_3 H 0.517729 0.349509 0.326255
C81_3 C 0.5148(11) 0.3301(15) 0.2170(18)
H46_3 H 0.500800 0.301998 0.225944
C82_3 C 0.5273(11) 0.3478(15) 0.1426(18)
C83_3 C 0.5452(10) 0.3853(13) 0.1333(18)
H47_3 H 0.551426 0.394179 0.081920
C84_3 C 0.5578(11) 0.4171(15) 0.1897(18)
H48_3 H 0.571595 0.445083 0.179037
N2_3 N 0.1964(9) 0.2620(13) 0.0596(17)
N4_3 N 0.5197(11) 0.3202(15) 0.076(2)
O11_3 O 0.1259(9) 0.2569(13) 0.3991(14)
O12_3 O 0.1945(9) 0.2863(13) 0.4305(15)
H50_3 H 0.185095 0.284405 0.476206
O21_3 O 0.5699(7) 0.4633(9) 0.3181(12)
O22_3 O 0.5406(7) 0.4111(9) 0.3949(13)
O23_3 O 0.5558(7) 0.1723(9) 0.1586(12)
In13_3 In 0.56609(7) 0.12409(9) 0.18048(13)
In2_3 In 0.40173(5) 0.40216(7) 0.76550(13)
In3_3 In 0.39612(5) 0.47950(7) 0.88045(9)
C1_3 C 0.3751(10) 0.3346(14) 0.6285(18)
C2_3 C 0.2694(11) 0.2147(18) 0.1303(15)
C3_3 C 0.3383(5) 0.3009(8) 0.5902(11)
C4_3 C 0.3427(5) 0.2736(7) 0.5423(12)
H1_3 H 0.367957 0.274947 0.538369
C5_3 C 0.3093(6) 0.2443(8) 0.5002(11)
H2_3 H 0.312305 0.226108 0.468043
C6_3 C 0.2716(5) 0.2424(8) 0.5060(12)
C7_3 C 0.2671(5) 0.2696(7) 0.5539(12)
H3_3 H 0.241861 0.268245 0.557784
C8_3 C 0.3005(6) 0.2989(8) 0.5961(11)
H4_3 H 0.297512 0.317084 0.628111
C9_3 C 0.0835(9) 0.1112(13) 0.6076(18)
C10_3 C 0.2619(7) 0.2136(11) 0.2143(9)
C11_3 C 0.2298(7) 0.1787(11) 0.2482(10)
H5_3 H 0.214272 0.155387 0.218296
C12_3 C 0.2210(7) 0.1788(11) 0.3267(11)
H6_3 H 0.199579 0.155543 0.349325
C13_3 C 0.2443(7) 0.2138(11) 0.3713(8)
C14_3 C 0.2763(7) 0.2486(11) 0.3374(11)
H7_3 H 0.291847 0.271903 0.367278
C15_3 C 0.2851(6) 0.2485(11) 0.2589(11)
H8_3 H 0.306541 0.271749 0.236249
C16_3 C 0.1244(10) 0.1397(16) 0.5651(19)
C17_3 C 0.1612(10) 0.1479(15) 0.602(2)
H9_3 H 0.160625 0.136950 0.650317
C18_3 C 0.2002(11) 0.1738(16) 0.5629(19)
H10_3 H 0.224513 0.177639 0.584429
C19_3 C 0.2004(11) 0.1930(16) 0.491(2)
C20_3 C 0.1631(11) 0.1830(16) 0.457(2)
H11_3 H 0.162266 0.195085 0.409620
C21_3 C 0.1280(11) 0.1553(16) 0.4920(19)
H12_3 H 0.103899 0.145831 0.463722
C22_3 C 0.3385(10) 0.3846(14) 0.9046(18)
C23_3 C 0.1028(10) 0.1056(14) 0.9205(18)
C25_3 C 0.3028(10) 0.3523(15) 0.9470(18)
C26_3 C 0.2827(11) 0.3096(16) 0.9218(19)
H13_3 H 0.294859 0.301190 0.884498
C27_3 C 0.2474(10) 0.2832(15) 0.9524(18)
H14_3 H 0.232164 0.258017 0.927642
C30_3 C 0.2818(10) 0.3648(15) 0.9957(17)
H16_3 H 0.289687 0.392408 0.999104
C37_3 C 0.1250(10) 0.1485(15) 0.9579(18)
C38_3 C 0.1323(10) 0.1823(15) 0.9226(19)
H21_3 H 0.123445 0.181218 0.871725
C39_3 C 0.1533(11) 0.2200(16) 0.9607(19)
H22_3 H 0.153479 0.242543 0.938155
C43_3 C 0.5178(10) 0.3428(13) 0.5776(18)
C44_3 C 0.4544(11) 0.0906(15) 0.8718(18)
C45_3 C 0.5625(11) 0.1272(15) 0.3616(18)
C46_3 C 0.5207(6) 0.3058(7) 0.5918(12)
C47_3 C 0.4930(6) 0.2746(8) 0.6403(12)
H25_3 H 0.472656 0.277327 0.665528
C48_3 C 0.4959(6) 0.2396(8) 0.6510(11)
H26_3 H 0.477379 0.218768 0.683407
C49_3 C 0.5264(7) 0.2357(8) 0.6133(12)
C50_3 C 0.5540(6) 0.2668(8) 0.5648(12)
H27_3 H 0.574405 0.264124 0.539510
C51_3 C 0.5512(6) 0.3019(8) 0.5541(11)
H28_3 H 0.569683 0.322683 0.521630
C52_3 C 0.4733(11) 0.1196(15) 0.8112(18)
C53_3 C 0.4656(11) 0.1041(15) 0.7401(17)
H29_3 H 0.449393 0.075837 0.733262
C54_3 C 0.4817(11) 0.1300(15) 0.6743(17)
H30_3 H 0.475297 0.119306 0.624119
C55_3 C 0.5076(11) 0.1723(15) 0.6868(18)
C56_3 C 0.5173(11) 0.1884(15) 0.7616(18)
H31_3 H 0.535684 0.215945 0.771238
C57_3 C 0.4969(11) 0.1594(15) 0.8224(19)
H32_3 H 0.500481 0.169203 0.873114
C58_3 C 0.5533(11) 0.1472(15) 0.4296(18)
C59_3 C 0.5318(11) 0.1675(15) 0.4191(19)
H33_3 H 0.524944 0.171793 0.369312
C60_3 C 0.5207(11) 0.1816(16) 0.4837(18)
H34_3 H 0.501245 0.189821 0.478873
C61_3 C 0.5381(11) 0.1837(15) 0.5549(18)
C62_3 C 0.5651(11) 0.1671(15) 0.5628(17)
H35_3 H 0.577573 0.168243 0.610133
C63_3 C 0.5719(11) 0.1496(16) 0.4988(17)
H36_3 H 0.589596 0.139149 0.502773
C64_3 C 0.4467(10) 0.3558(13) 0.8213(17)
C67_3 C 0.4651(10) 0.3424(13) 0.8865(17)
C68_3 C 0.4535(10) 0.3470(14) 0.9630(17)
H37_3 H 0.435725 0.356984 0.971462
C71_3 C 0.5062(10) 0.3186(14) 0.9386(18)
H39_3 H 0.521769 0.305906 0.931691
C72_3 C 0.4882(10) 0.3271(13) 0.8747(19)
H40_3 H 0.493142 0.321650 0.824321
N1_3 N 0.2382(8) 0.2167(11) 0.4551(11)
N3_3 N 0.5274(10) 0.2002(13) 0.6220(16)
O1_3 O 0.3678(7) 0.3479(10) 0.6961(12)
O2_3 O 0.4100(6) 0.3455(8) 0.6037(12)
O3_3 O 0.2976(10) 0.2432(15) 0.0992(18)
O4_3 O 0.2500(9) 0.1804(13) 0.0987(17)
H49_3 H 0.256461 0.185246 0.050965
O5_3 O 0.0884(6) 0.1110(8) 0.6786(11)
O6_3 O 0.0524(6) 0.0952(9) 0.5707(12)
O7_3 O 0.3560(6) 0.4207(8) 0.9292(12)
O8_3 O 0.3484(7) 0.3737(10) 0.8414(12)
O9_3 O 0.0963(7) 0.1094(10) 0.8457(12)
O13_3 O 0.4855(6) 0.3418(8) 0.5985(12)
O14_3 O 0.5451(6) 0.3738(8) 0.5463(12)
O17_3 O 0.5864(7) 0.1138(9) 0.3679(12)
O18_3 O 0.5477(8) 0.1290(11) 0.2924(12)
O19_3 O 0.4255(7) 0.3726(9) 0.8342(12)
O20_3 O 0.4523(7) 0.3466(9) 0.7472(11)
O25_3 O 0.4969(6) 0.4189(8) 0.5387(11)
H51_3 H 0.482066 0.426484 0.506147
O26_3 O 0.4528(6) 0.4242(8) 0.6882(10)
H52_3 H 0.467509 0.451777 0.674721
O27_3 O 0.4318(6) 0.4563(8) 0.8359(11)
H53_3 H 0.459733 0.468822 0.846400
O28_3 O 0.5701(6) 0.4930(8) 0.4808(11)
H54_3 H 0.562900 0.503443 0.516922
H55_3 H 0.005095 0.014141 0.876331
In6_3 In 0.61619(7) 0.08635(9) 0.31258(10)
O31_3 O 0.0187(7) 0.0921(12) 0.7914(11)
O32_3 O 0.3584(6) 0.4617(11) 0.7745(12)
O33_3 O 0.3768(7) 0.4305(12) 0.6897(12)
O36_3 O 0.4301(7) 0.5367(9) 0.8181(12)
O39_3 O 0.3546(6) 0.4971(10) 0.9134(11)
O40_3 O 0.4299(6) 0.5070(8) 0.9808(11)
O41_3 O 0.0088(7) 0.0263(11) 0.6867(13)
In14_3 In 0.98969(5) 0.05292(9) 0.59861(12)
C65_4 C 0.1263(10) 0.5518(11) 0.1613(19)
C79_4 C 0.1471(10) 0.5453(11) 0.1032(19)
C80_4 C 0.1661(9) 0.5258(11) 0.1095(19)
H45_4 H 0.168220 0.517729 0.159588
C81_4 C 0.1847(10) 0.5148(11) 0.0503(18)
H46_4 H 0.198802 0.500800 0.059277
C84_4 C 0.1407(10) 0.5578(11) 0.0230(18)
H48_4 H 0.126512 0.571595 0.012370
O22_4 O 0.1295(6) 0.5406(7) 0.2282(13)
In13_4 In 0.44200(5) 0.56609(7) 0.01382(13)
C1_4 C 0.0405(10) 0.3751(10) 0.4618(18)
C3_4 C 0.0374(6) 0.3383(5) 0.4235(11)
C4_4 C 0.0691(5) 0.3427(5) 0.3756(12)
H1_4 H 0.093010 0.367957 0.371702
C5_4 C 0.0650(6) 0.3093(6) 0.3335(11)
H2_4 H 0.086197 0.312305 0.301376
C6_4 C 0.0292(6) 0.2716(5) 0.3393(12)
C8_4 C 0.0016(5) 0.3005(6) 0.4294(11)
C10_4 C 0.0483(9) 0.2619(7) 0.0476(9)
C11_4 C 0.0511(9) 0.2298(7) 0.0815(10)
H5_4 H 0.058885 0.214272 0.051629
C12_4 C 0.0422(9) 0.2210(7) 0.1600(11)
H6_4 H 0.044036 0.199579 0.182658
C13_4 C 0.0305(8) 0.2443(7) 0.2046(8)
C14_4 C 0.0277(8) 0.2763(7) 0.1707(11)
H7_4 H 0.019944 0.291847 0.200611
C15_4 C 0.0366(9) 0.2851(6) 0.0922(11)
H8_4 H 0.034792 0.306541 0.069582
C17_4 C 0.0133(11) 0.1612(10) 0.435(2)
H9_4 H 0.023675 0.160625 0.483650
C18_4 C 0.0264(12) 0.2002(11) 0.3962(19)
H10_4 H 0.046874 0.224513 0.417762
C19_4 C 0.0074(12) 0.2004(11) 0.324(2)
H24_4 H 0.009341 0.136889 0.892089
C43_4 C 0.1750(8) 0.5178(10) 0.4109(18)
C44_4 C 0.3638(10) 0.4544(11) 0.7051(18)
C45_4 C 0.4353(10) 0.5625(11) 0.1949(18)
C46_4 C 0.2149(4) 0.5207(6) 0.4251(12)
C47_4 C 0.2184(5) 0.4930(6) 0.4736(12)
H25_4 H 0.195329 0.472656 0.498861
C48_4 C 0.2563(6) 0.4959(6) 0.4843(11)
H26_4 H 0.258611 0.477379 0.516740
C49_4 C 0.2907(4) 0.5264(7) 0.4466(12)
C50_4 C 0.2872(5) 0.5540(6) 0.3981(12)
H27_4 H 0.310281 0.574405 0.372843
C51_4 C 0.2493(6) 0.5512(6) 0.3874(11)
H28_4 H 0.247000 0.569683 0.354963
C52_4 C 0.3537(10) 0.4733(11) 0.6445(18)
C53_4 C 0.3615(10) 0.4656(11) 0.5734(17)
H29_4 H 0.373556 0.449393 0.566595
C54_4 C 0.3517(10) 0.4817(11) 0.5076(17)
H30_4 H 0.355991 0.475297 0.457452
C55_4 C 0.3353(10) 0.5076(11) 0.5201(18)
C56_4 C 0.3289(10) 0.5173(11) 0.5949(18)
H31_4 H 0.319739 0.535684 0.604571
C57_4 C 0.3375(10) 0.4969(11) 0.6557(19)
H32_4 H 0.331278 0.500481 0.706447
C58_4 C 0.4061(10) 0.5533(11) 0.2629(18)
C59_4 C 0.3643(10) 0.5318(11) 0.2524(19)
H33_4 H 0.353151 0.524944 0.202645
C60_4 C 0.3391(11) 0.5207(11) 0.3170(18)
H34_4 H 0.311424 0.501245 0.312206
C61_4 C 0.3544(10) 0.5381(11) 0.3882(18)
C62_4 C 0.3980(10) 0.5651(11) 0.3961(17)
H35_4 H 0.409330 0.577573 0.443466
C63_4 C 0.4223(11) 0.5719(11) 0.3321(17)
H36_4 H 0.450447 0.589596 0.336106
C64_4 C 0.0909(9) 0.4467(10) 0.6546(17)
C66_4 C 0.3524(8) 0.5268(11) 0.9455(19)
C67_4 C 0.1227(9) 0.4651(10) 0.7198(17)
C68_4 C 0.1065(10) 0.4535(10) 0.7963(17)
H37_4 H 0.078741 0.435725 0.804795
C69_4 C 0.1344(10) 0.4701(11) 0.8586(17)
H38_4 H 0.126970 0.459933 0.908919
C70_4 C 0.1708(10) 0.5002(11) 0.8428(18)
C71_4 C 0.1876(10) 0.5062(10) 0.7719(18)
H39_4 H 0.215863 0.521769 0.765024
C72_4 C 0.1611(9) 0.4882(10) 0.7080(19)
H40_4 H 0.171492 0.493142 0.657654
C73_4 C 0.3129(8) 0.5266(10) 0.9359(18)
C74_4 C 0.2817(9) 0.4951(10) 0.8970(17)
H41_4 H 0.286369 0.474644 0.878464
C75_4 C 0.2452(9) 0.4909(10) 0.8828(18)
H42_4 H 0.225036 0.469434 0.853715
C76_4 C 0.2398(9) 0.5235(11) 0.9179(18)
C77_4 C 0.2694(9) 0.5551(11) 0.9507(17)
H43_4 H 0.266442 0.577314 0.965159
C78_4 C 0.3070(10) 0.5555(11) 0.9646(18)
H44_4 H 0.327468 0.576385 0.994153
C82_4 C 0.1795(10) 0.5273(11) 0.9759(18)
C83_4 C 0.1599(9) 0.5452(10) 0.9666(18)
H47_4 H 0.157247 0.551426 0.915253
N1_4 N 0.0215(8) 0.2382(8) 0.2884(11)
N3_4 N 0.3272(8) 0.5274(10) 0.4553(16)
N4_4 N 0.1995(10) 0.5197(11) 0.909(2)
O1_4 O 0.0199(7) 0.3678(7) 0.5294(12)
O2_4 O 0.0645(6) 0.4100(6) 0.4370(12)
O13_4 O 0.1437(6) 0.4855(6) 0.4318(12)
O14_4 O 0.1713(6) 0.5451(6) 0.3796(12)
O17_4 O 0.4726(6) 0.5864(7) 0.2012(12)
O18_4 O 0.4187(7) 0.5477(8) 0.1257(12)
O19_4 O 0.0529(6) 0.4255(7) 0.6675(12)
O20_4 O 0.1057(6) 0.4523(7) 0.5805(11)
O23_4 O 0.3835(6) 0.5558(7) 0.9919(12)
O25_4 O 0.0780(6) 0.4969(6) 0.3720(11)
H51_4 H 0.055582 0.482066 0.339480
O26_4 O 0.0286(6) 0.4528(6) 0.5215(10)
H52_4 H 0.015732 0.467509 0.508054
H54_4 H 0.059457 0.562900 0.350255
In6_4 In 0.52984(5) 0.61619(7) 0.14592(10)
In2_4 In 0.99957(5) 0.40173(5) 0.59883(13)
C7_4 C 0.9975(5) 0.2671(5) 0.3872(12)
H3_4 H 0.973616 0.241861 0.391117
H4_4 H 0.980428 0.297512 0.461444
C9_4 C 0.9723(10) 0.0835(9) 0.4409(18)
C16_4 C 0.9847(12) 0.1244(10) 0.3984(19)
C20_4 C 0.9801(12) 0.1631(11) 0.290(2)
H11_4 H 0.967181 0.162266 0.242953
C21_4 C 0.9727(11) 0.1280(11) 0.3253(19)
H12_4 H 0.958068 0.103899 0.297055
C22_4 C 0.9539(10) 0.3385(10) 0.7379(18)
C23_4 C 0.9972(10) 0.1028(10) 0.7538(18)
C25_4 C 0.9505(11) 0.3028(10) 0.7803(18)
C26_4 C 0.9731(11) 0.2827(11) 0.7551(19)
H13_4 H 0.993669 0.294859 0.717831
C27_4 C 0.9642(11) 0.2474(10) 0.7857(18)
H14_4 H 0.974147 0.232164 0.760975
C28_4 C 0.9396(12) 0.2302(11) 0.8565(19)
C29_4 C 0.9130(12) 0.2481(11) 0.8741(19)
H15_4 H 0.893903 0.237388 0.914119
C30_4 C 0.9170(11) 0.2818(10) 0.8290(17)
H16_4 H 0.897279 0.289687 0.832437
C34_4 C 0.9208(8) 0.1888(7) 0.9762(8)
H19_4 H 0.886499 0.127073 0.967221
C37_4 C 0.9765(11) 0.1250(10) 0.7912(18)
C38_4 C 0.9500(11) 0.1323(10) 0.7559(19)
H21_4 H 0.942227 0.123445 0.705058
C39_4 C 0.9333(12) 0.1533(11) 0.7940(19)
H22_4 H 0.910936 0.153479 0.771488
C40_4 C 0.9479(12) 0.1734(11) 0.8616(19)
C41_4 C 0.9791(12) 0.1676(11) 0.894(2)
H23_4 H 0.992137 0.182335 0.938314
C42_4 C 0.9915(11) 0.1425(10) 0.8645(18)
N2_4 N 0.9344(10) 0.1964(9) 0.8929(17)
O5_4 O 0.9774(6) 0.0884(6) 0.5119(11)
O6_4 O 0.9572(7) 0.0524(6) 0.4040(12)
O7_4 O 0.9353(6) 0.3560(6) 0.7625(12)
O8_4 O 0.9747(7) 0.3484(7) 0.6747(12)
O9_4 O 0.9869(7) 0.0963(7) 0.6790(12)
O27_4 O 0.9755(6) 0.4318(6) 0.6692(11)
H53_4 H 0.990911 0.459733 0.679733
H55_4 H 0.990954 0.005095 0.709664
O31_4 O 0.9266(10) 0.0187(7) 0.6247(11)
O32_4 O 0.8967(9) 0.3584(6) 0.6078(12)
O33_4 O 0.9463(10) 0.3768(7) 0.5230(12)
O39_4 O 0.8575(8) 0.3546(6) 0.7467(11)
O41_4 O 0.9825(9) 0.0088(7) 0.5200(13)
In14_4 In 0.93677(7) 0.98969(5) 0.43194(12)
O22_5 O 0.5889(9) 0.1295(6) 0.0615(13)
C1_5 C 0.6654(14) 0.0405(10) 0.2951(18)
C3_5 C 0.6991(8) 0.0374(6) 0.2568(11)
C4_5 C 0.7264(7) 0.0691(5) 0.2089(12)
H1_5 H 0.725053 0.093010 0.205035
C5_5 C 0.7557(8) 0.0650(6) 0.1668(11)
H2_5 H 0.773892 0.086197 0.134709
C6_5 C 0.7576(8) 0.0292(6) 0.1726(12)
C8_5 C 0.7011(8) 0.0016(5) 0.2627(11)
H6_5 H 0.844457 0.044036 0.015991
C13_5 C 0.7862(11) 0.0305(8) 0.0379(8)
C14_5 C 0.7514(11) 0.0277(8) 0.0040(11)
H7_5 H 0.728097 0.019944 0.033944
C17_5 C 0.8521(15) 0.0133(11) 0.268(2)
H9_5 H 0.863050 0.023675 0.316983
C18_5 C 0.8262(16) 0.0264(12) 0.2295(19)
H10_5 H 0.822361 0.046874 0.251095
C19_5 C 0.8070(16) 0.0074(12) 0.157(2)
H24_5 H 0.872452 0.009341 0.725422
C43_5 C 0.6572(13) 0.1750(8) 0.2442(18)
C44_5 C 0.9094(15) 0.3638(10) 0.5384(18)
C45_5 C 0.8728(15) 0.4353(10) 0.0282(18)
C46_5 C 0.6942(7) 0.2149(4) 0.2584(12)
C47_5 C 0.7254(8) 0.2184(5) 0.3069(12)
H25_5 H 0.722673 0.195329 0.332194
C48_5 C 0.7604(8) 0.2563(6) 0.3176(11)
H26_5 H 0.781232 0.258611 0.350073
C49_5 C 0.7643(8) 0.2907(4) 0.2799(12)
C50_5 C 0.7332(8) 0.2872(5) 0.2314(12)
H27_5 H 0.735876 0.310281 0.206176
C51_5 C 0.6981(8) 0.2493(6) 0.2207(11)
H28_5 H 0.677317 0.247000 0.188296
C52_5 C 0.8804(15) 0.3537(10) 0.4778(18)
C53_5 C 0.8959(15) 0.3615(10) 0.4067(17)
H29_5 H 0.924163 0.373556 0.399928
C54_5 C 0.8700(15) 0.3517(10) 0.3409(17)
H30_5 H 0.880694 0.355991 0.290785
C55_5 C 0.8277(15) 0.3353(10) 0.3534(18)
C56_5 C 0.8116(15) 0.3289(10) 0.4282(18)
H31_5 H 0.784055 0.319739 0.437904
C57_5 C 0.8406(15) 0.3375(10) 0.4890(19)
H32_5 H 0.830797 0.331278 0.539780
C58_5 C 0.8528(15) 0.4061(10) 0.0962(18)
C59_5 C 0.8325(15) 0.3643(10) 0.0857(19)
H33_5 H 0.828207 0.353151 0.035978
C60_5 C 0.8184(16) 0.3391(11) 0.1503(18)
H34_5 H 0.810179 0.311424 0.145539
C61_5 C 0.8163(15) 0.3544(10) 0.2215(18)
C62_5 C 0.8329(15) 0.3980(10) 0.2294(17)
H35_5 H 0.831757 0.409330 0.276799
C63_5 C 0.8504(16) 0.4223(11) 0.1654(17)
H36_5 H 0.860851 0.450447 0.169439
C64_5 C 0.6442(13) 0.0909(9) 0.4879(17)
C65_5 C 0.5745(15) 0.1263(10) 0.9946(19)
C66_5 C 0.8256(14) 0.3524(8) 0.7788(19)
C67_5 C 0.6576(13) 0.1227(9) 0.5531(17)
C68_5 C 0.6530(14) 0.1065(10) 0.6296(17)
H37_5 H 0.643016 0.078741 0.638128
C69_5 C 0.6643(15) 0.1344(10) 0.6919(17)
H38_5 H 0.667037 0.126970 0.742252
C70_5 C 0.6706(15) 0.1708(10) 0.6761(18)
C71_5 C 0.6814(14) 0.1876(10) 0.6052(18)
H39_5 H 0.694094 0.215863 0.598357
C72_5 C 0.6729(13) 0.1611(9) 0.5413(19)
H40_5 H 0.678350 0.171492 0.490987
C73_5 C 0.7863(13) 0.3129(8) 0.7692(18)
C74_5 C 0.7866(13) 0.2817(9) 0.7303(17)
H41_5 H 0.811725 0.286369 0.711797
C75_5 C 0.7543(13) 0.2452(9) 0.7161(18)
H42_5 H 0.755602 0.225036 0.687048
C76_5 C 0.7163(14) 0.2398(9) 0.7512(18)
C77_5 C 0.7143(14) 0.2694(9) 0.7840(17)
H43_5 H 0.689128 0.266442 0.798492
C78_5 C 0.7515(15) 0.3070(10) 0.7979(18)
H44_5 H 0.751083 0.327468 0.827486
C79_5 C 0.6018(15) 0.1471(10) 0.9365(19)
C80_5 C 0.6403(14) 0.1661(9) 0.9428(19)
H45_5 H 0.650491 0.168220 0.992921
C81_5 C 0.6699(15) 0.1847(10) 0.8836(18)
H46_5 H 0.698002 0.198802 0.892610
C82_5 C 0.6522(15) 0.1795(10) 0.8092(18)
C83_5 C 0.6147(13) 0.1599(9) 0.7999(18)
H47_5 H 0.605821 0.157247 0.748586
C84_5 C 0.5829(15) 0.1407(10) 0.8563(18)
H48_5 H 0.554917 0.126512 0.845703
N1_5 N 0.7833(11) 0.0215(8) 0.1217(11)
N3_5 N 0.7998(13) 0.3272(8) 0.2886(16)
N4_5 N 0.6798(15) 0.1995(10) 0.742(2)
O1_5 O 0.6521(10) 0.0199(7) 0.3627(12)
O2_5 O 0.6545(8) 0.0645(6) 0.2703(12)
O13_5 O 0.6582(8) 0.1437(6) 0.2651(12)
O14_5 O 0.6262(8) 0.1713(6) 0.2129(12)
O19_5 O 0.6274(9) 0.0529(6) 0.5008(12)
O20_5 O 0.6534(9) 0.1057(6) 0.4138(11)
O25_5 O 0.5811(8) 0.0780(6) 0.2053(11)
H51_5 H 0.573516 0.055582 0.172813
O26_5 O 0.5758(8) 0.0286(6) 0.3548(10)
H52_5 H 0.548223 0.015732 0.341387
H54_5 H 0.496557 0.059457 0.183588
C2_4 C 0.7853(18) 0.0547(14) 0.7969(15)
C10_5 C 0.7864(11) 0.0483(9) 0.8809(9)
C11_5 C 0.8213(11) 0.0511(9) 0.9148(10)
H5_5 H 0.844613 0.058885 0.884962
C12_5 C 0.8212(11) 0.0422(9) 0.9933(11)
C15_5 C 0.7515(11) 0.0366(9) 0.9255(11)
H8_5 H 0.728251 0.034792 0.902915
O3_4 O 0.7568(15) 0.0544(11) 0.7658(18)
O4_4 O 0.8196(13) 0.0696(10) 0.7653(17)
H49_4 H 0.814754 0.071215 0.717631
In2_5 In 0.59784(7) 0.99957(5) 0.43216(13)
C7_5 C 0.7304(7) 0.9975(5) 0.2205(12)
H3_5 H 0.731755 0.973616 0.224450
H4_5 H 0.682916 0.980428 0.294777
C9_5 C 0.8888(13) 0.9723(10) 0.2742(18)
C16_5 C 0.8603(16) 0.9847(12) 0.2317(19)
C20_5 C 0.8170(16) 0.9801(12) 0.123(2)
H11_5 H 0.804915 0.967181 0.076286
C21_5 C 0.8447(16) 0.9727(11) 0.1586(19)
H12_5 H 0.854169 0.958068 0.130388
C22_5 C 0.6154(14) 0.9539(10) 0.5712(18)
C23_5 C 0.8944(14) 0.9972(10) 0.5871(18)
C25_5 C 0.6477(15) 0.9505(11) 0.6136(18)
C26_5 C 0.6904(16) 0.9731(11) 0.5884(19)
H13_5 H 0.698810 0.993669 0.551164
C27_5 C 0.7168(15) 0.9642(11) 0.6190(18)
H14_5 H 0.741983 0.974147 0.594308
C28_5 C 0.7094(16) 0.9396(12) 0.6898(19)
C29_5 C 0.6649(16) 0.9130(12) 0.7074(19)
H15_5 H 0.656515 0.893903 0.747452
C30_5 C 0.6352(15) 0.9170(11) 0.6623(17)
H16_5 H 0.607592 0.897279 0.665770
C31_4 C 0.7306(11) 0.9039(8) 0.9673(8)
C32_4 C 0.7145(10) 0.9279(8) 0.9410(10)
H17_4 H 0.703195 0.938223 0.976284
C33_4 C 0.7152(9) 0.9363(8) 0.8621(11)
H18_4 H 0.704478 0.952378 0.844627
C34_5 C 0.7320(11) 0.9208(8) 0.8095(8)
C35_4 C 0.7482(10) 0.8969(8) 0.8357(10)
H19_5 H 0.759426 0.886499 0.800554
C36_4 C 0.7474(9) 0.8884(8) 0.9146(12)
H20_4 H 0.758145 0.872345 0.932212
C37_5 C 0.8515(15) 0.9765(11) 0.6245(18)
C38_5 C 0.8177(15) 0.9500(11) 0.5892(19)
H21_5 H 0.818782 0.942227 0.538391
C39_5 C 0.7800(16) 0.9333(12) 0.6273(19)
H22_5 H 0.757457 0.910936 0.604821
C40_5 C 0.7745(16) 0.9479(12) 0.6949(19)
C41_5 C 0.8115(16) 0.9791(12) 0.727(2)
H23_5 H 0.809802 0.992137 0.771647
C42_5 C 0.8490(15) 0.9915(11) 0.6978(18)
N2_5 N 0.7380(13) 0.9344(10) 0.7262(17)
O5_5 O 0.8890(8) 0.9774(6) 0.3452(11)
O6_5 O 0.9048(9) 0.9572(7) 0.2373(12)
O7_5 O 0.5793(8) 0.9353(6) 0.5958(12)
O8_5 O 0.6263(10) 0.9747(7) 0.5080(12)
O9_5 O 0.8906(10) 0.9869(7) 0.5123(12)
O27_5 O 0.5437(8) 0.9755(6) 0.5025(11)
H53_5 H 0.531178 0.990911 0.513066
H55_5 H 0.985859 0.990954 0.542997
O31_5 O 0.9079(12) 0.9266(10) 0.4581(11)
O32_5 O 0.5383(11) 0.8967(9) 0.4412(12)
O33_5 O 0.5695(12) 0.9463(10) 0.3564(12)
O39_5 O 0.5029(10) 0.8575(8) 0.5801(11)
O41_5 O 0.9737(11) 0.9825(9) 0.3534(13)
C1_6 C 0.6249(10) 0.6654(14) 0.1285(18)
C3_6 C 0.6617(5) 0.6991(8) 0.0902(11)
C4_6 C 0.6573(5) 0.7264(7) 0.0423(12)
H1_6 H 0.632043 0.725053 0.038369
C5_6 C 0.6907(6) 0.7557(8) 0.0002(11)
C6_6 C 0.7284(5) 0.7576(8) 0.0060(12)
C7_6 C 0.7329(5) 0.7304(7) 0.0539(12)
H3_6 H 0.758139 0.731755 0.057784
C8_6 C 0.6995(6) 0.7011(8) 0.0961(11)
H4_6 H 0.702488 0.682916 0.128111
C9_6 C 0.9165(9) 0.8888(13) 0.1076(18)
C16_6 C 0.8756(10) 0.8603(16) 0.0651(19)
C17_6 C 0.8388(10) 0.8521(15) 0.102(2)
H9_6 H 0.839375 0.863050 0.150317
C18_6 C 0.7998(11) 0.8262(16) 0.0629(19)
H10_6 H 0.775487 0.822361 0.084429
C22_6 C 0.6615(10) 0.6154(14) 0.4046(18)
C23_6 C 0.8972(10) 0.8944(14) 0.4205(18)
C24_4 C 0.8369(12) 0.7283(18) 0.885(2)
C25_6 C 0.6972(10) 0.6477(15) 0.4470(18)
C26_6 C 0.7173(11) 0.6904(16) 0.4218(19)
H13_6 H 0.705141 0.698810 0.384498
C27_6 C 0.7526(10) 0.7168(15) 0.4524(18)
H14_6 H 0.767836 0.741983 0.427642
C28_6 C 0.7698(11) 0.7094(16) 0.5232(19)
C29_6 C 0.7519(11) 0.6649(16) 0.5408(19)
H15_6 H 0.762612 0.656515 0.580786
C30_6 C 0.7182(10) 0.6352(15) 0.4957(17)
H16_6 H 0.710313 0.607592 0.499104
C31_5 C 0.8267(7) 0.7306(11) 0.8007(8)
C32_5 C 0.7866(6) 0.7145(10) 0.7744(10)
H17_5 H 0.764972 0.703195 0.809618
C33_5 C 0.7789(5) 0.7152(9) 0.6955(11)
H18_5 H 0.752100 0.704478 0.677961
C34_6 C 0.8112(7) 0.7320(11) 0.6429(8)
C35_5 C 0.8513(6) 0.7482(10) 0.6691(10)
H19_6 H 0.872927 0.759426 0.633888
C36_5 C 0.8590(5) 0.7474(9) 0.7480(12)
H20_5 H 0.885800 0.758145 0.765546
C37_6 C 0.8750(10) 0.8515(15) 0.4579(18)
C38_6 C 0.8677(10) 0.8177(15) 0.4226(19)
H21_6 H 0.876555 0.818782 0.371725
C39_6 C 0.8467(11) 0.7800(16) 0.4607(19)
H22_6 H 0.846521 0.757457 0.438155
C40_6 C 0.8266(11) 0.7745(16) 0.5283(19)
C41_6 C 0.8324(11) 0.8115(16) 0.561(2)
H23_6 H 0.817665 0.809802 0.604981
C42_6 C 0.8575(10) 0.8490(15) 0.5312(18)
H24_6 H 0.863111 0.872452 0.558756
C43_6 C 0.4822(10) 0.6572(13) 0.0776(18)
C44_6 C 0.5456(11) 0.9094(15) 0.3718(18)
C46_6 C 0.4793(6) 0.6942(7) 0.0918(12)
C47_6 C 0.5070(6) 0.7254(8) 0.1403(12)
H25_6 H 0.527344 0.722673 0.165528
C48_6 C 0.5041(6) 0.7604(8) 0.1510(11)
H26_6 H 0.522621 0.781232 0.183407
C49_6 C 0.4736(7) 0.7643(8) 0.1133(12)
C50_6 C 0.4460(6) 0.7332(8) 0.0648(12)
H27_6 H 0.425595 0.735876 0.039510
C51_6 C 0.4488(6) 0.6981(8) 0.0541(11)
H28_6 H 0.430317 0.677317 0.021630
C52_6 C 0.5267(11) 0.8804(15) 0.3112(18)
C53_6 C 0.5344(11) 0.8959(15) 0.2401(17)
H29_6 H 0.550607 0.924163 0.233262
C54_6 C 0.5183(11) 0.8700(15) 0.1743(17)
H30_6 H 0.524703 0.880694 0.124119
C55_6 C 0.4924(11) 0.8277(15) 0.1868(18)
C56_6 C 0.4827(11) 0.8116(15) 0.2616(18)
H31_6 H 0.464316 0.784055 0.271238
C57_6 C 0.5031(11) 0.8406(15) 0.3224(19)
H32_6 H 0.499519 0.830797 0.373114
C61_6 C 0.4619(11) 0.8163(15) 0.0549(18)
C62_6 C 0.4349(11) 0.8329(15) 0.0628(17)
H35_6 H 0.422427 0.831757 0.110133
H36_6 H 0.410404 0.860851 0.002773
C64_6 C 0.5533(10) 0.6442(13) 0.3213(17)
C65_6 C 0.4482(11) 0.5745(15) 0.8280(19)
C66_6 C 0.4732(11) 0.8256(14) 0.6122(19)
C67_6 C 0.5349(10) 0.6576(13) 0.3865(17)
C68_6 C 0.5465(10) 0.6530(14) 0.4630(17)
H37_6 H 0.564275 0.643016 0.471462
C69_6 C 0.5299(11) 0.6643(15) 0.5253(17)
H38_6 H 0.540067 0.667037 0.575586
C70_6 C 0.4998(11) 0.6706(15) 0.5095(18)
C71_6 C 0.4938(10) 0.6814(14) 0.4386(18)
H39_6 H 0.478231 0.694094 0.431691
C72_6 C 0.5118(10) 0.6729(13) 0.3747(19)
H40_6 H 0.506858 0.678350 0.324321
C73_6 C 0.4734(10) 0.7863(13) 0.6026(18)
C74_6 C 0.5049(10) 0.7866(13) 0.5637(17)
H41_6 H 0.525356 0.811725 0.545131
C75_6 C 0.5091(10) 0.7543(13) 0.5495(18)
H42_6 H 0.530566 0.755602 0.520382
C76_6 C 0.4765(11) 0.7163(14) 0.5846(18)
C77_6 C 0.4449(11) 0.7143(14) 0.6174(17)
H43_6 H 0.422686 0.689128 0.631826
C78_6 C 0.4445(11) 0.7515(15) 0.6313(18)
H44_6 H 0.423615 0.751083 0.660820
C79_6 C 0.4547(11) 0.6018(15) 0.7699(19)
C80_6 C 0.4742(11) 0.6403(14) 0.7762(19)
H45_6 H 0.482271 0.650491 0.826255
C81_6 C 0.4852(11) 0.6699(15) 0.7170(18)
H46_6 H 0.499200 0.698002 0.725944
C82_6 C 0.4727(11) 0.6522(15) 0.6426(18)
C83_6 C 0.4548(10) 0.6147(13) 0.6333(18)
H47_6 H 0.448574 0.605821 0.581920
C84_6 C 0.4422(11) 0.5829(15) 0.6897(18)
H48_6 H 0.428405 0.554917 0.679037
N2_6 N 0.8036(9) 0.7380(13) 0.5596(17)
N3_6 N 0.4726(10) 0.7998(13) 0.1220(16)
N4_6 N 0.4803(11) 0.6798(15) 0.576(2)
O1_6 O 0.6322(7) 0.6521(10) 0.1961(12)
O2_6 O 0.5900(6) 0.6545(8) 0.1037(12)
O5_6 O 0.9116(6) 0.8890(8) 0.1786(11)
O7_6 O 0.6440(6) 0.5793(8) 0.4292(12)
O8_6 O 0.6516(7) 0.6263(10) 0.3414(12)
O9_6 O 0.9037(7) 0.8906(10) 0.3457(12)
O11_4 O 0.8741(9) 0.7431(13) 0.8991(14)
O12_4 O 0.8055(9) 0.7137(13) 0.9305(15)
H50_4 H 0.814905 0.715595 0.976206
O13_6 O 0.5145(6) 0.6582(8) 0.0985(12)
O14_6 O 0.4549(6) 0.6262(8) 0.0463(12)
O19_6 O 0.5745(7) 0.6274(9) 0.3342(12)
O20_6 O 0.5477(7) 0.6534(9) 0.2472(11)
O22_6 O 0.4594(7) 0.5889(9) 0.8949(13)
O25_6 O 0.5031(6) 0.5811(8) 0.0387(11)
H51_6 H 0.517934 0.573516 0.006147
O26_6 O 0.5472(6) 0.5758(8) 0.1882(10)
H52_6 H 0.532491 0.548223 0.174721
O27_6 O 0.5682(6) 0.5437(8) 0.3359(11)
H53_6 H 0.540267 0.531178 0.346400
H54_6 H 0.437100 0.496557 0.016922
H55_6 H 0.994905 0.985859 0.376331
C2_5 C 0.7306(11) 0.7853(18) 0.6303(15)
H2_6 H 0.687695 0.773892 0.968043
C10_6 C 0.7381(7) 0.7864(11) 0.7143(9)
C11_6 C 0.7702(7) 0.8213(11) 0.7482(10)
H5_6 H 0.785728 0.844613 0.718296
C12_6 C 0.7790(7) 0.8212(11) 0.8267(11)
H6_6 H 0.800421 0.844457 0.849325
C13_6 C 0.7557(7) 0.7862(11) 0.8713(8)
C14_6 C 0.7237(7) 0.7514(11) 0.8374(11)
H7_6 H 0.708153 0.728097 0.867278
C15_6 C 0.7149(6) 0.7515(11) 0.7589(11)
H8_6 H 0.693459 0.728251 0.736249
C19_6 C 0.7996(11) 0.8070(16) 0.991(2)
C20_6 C 0.8369(11) 0.8170(16) 0.957(2)
H11_6 H 0.837734 0.804915 0.909620
C21_6 C 0.8720(11) 0.8447(16) 0.9920(19)
H12_6 H 0.896101 0.854169 0.963722
C45_6 C 0.4375(11) 0.8728(15) 0.8616(18)
C58_6 C 0.4467(11) 0.8528(15) 0.9296(18)
C59_6 C 0.4682(11) 0.8325(15) 0.9191(19)
H33_6 H 0.475056 0.828207 0.869312
C60_6 C 0.4793(11) 0.8184(16) 0.9837(18)
H34_6 H 0.498755 0.810179 0.978873
C63_6 C 0.4281(11) 0.8504(16) 0.9988(17)
N1_6 N 0.7618(8) 0.7833(11) 0.9551(11)
O3_5 O 0.7024(10) 0.7568(15) 0.5992(18)
O4_5 O 0.7500(9) 0.8196(13) 0.5987(17)
H49_5 H 0.743539 0.814754 0.550965
C2_6 C 0.0547(14) 0.2694(11) 0.9636(15)
O3_6 O 0.0544(11) 0.2976(10) 0.9325(18)
O4_6 O 0.0696(10) 0.2500(9) 0.9320(17)
H49_6 H 0.071215 0.256461 0.884298
C24_5 C 0.8914(13) 0.1631(12) 0.218(2)
C31_6 C 0.9039(8) 0.1733(7) 0.1340(8)
C32_6 C 0.9279(8) 0.2134(6) 0.1077(10)
H17_6 H 0.938223 0.235028 0.142951
C33_6 C 0.9363(8) 0.2211(5) 0.0288(11)
H18_6 H 0.952378 0.247900 0.011294
C35_6 C 0.8969(8) 0.1487(6) 0.0024(10)
C36_6 C 0.8884(8) 0.1410(5) 0.0813(12)
H20_6 H 0.872345 0.114200 0.098879
O11_5 O 0.8690(9) 0.1259(9) 0.2324(14)
O12_5 O 0.9082(10) 0.1945(9) 0.2638(15)
H50_5 H 0.900690 0.185095 0.309539
C24_6 C 0.7283(18) 0.8914(13) 0.051(2)
O11_6 O 0.7431(13) 0.8690(9) 0.0657(14)
O12_6 O 0.7137(13) 0.9082(10) 0.0971(15)
H50_6 H 0.715595 0.900690 0.142872
loop_
_geom_bond_atom_site_label_1
_geom_bond_atom_site_label_2
_geom_bond_site_symmetry_1
_geom_bond_site_symmetry_2
In3 O7 1_555 1_555
In5 O5 1_555 1_555
C22 C25 1_555 1_555
C23 C37 1_555 1_555
C24 C31 1_555 1_555
C25 C26 1_555 1_555
C26 H13 1_555 1_555
C27 C26 1_555 1_555
H14 C27 1_555 1_555
C28 C27 1_555 1_555
C29 C28 1_555 1_555
H15 C29 1_555 1_555
C30 C25 1_555 1_555
H16 C30 1_555 1_555
C31 C32 1_555 1_555
C32 H17 1_555 1_555
C33 C32 1_555 1_555
H18 C33 1_555 1_555
C34 C33 1_555 1_555
C35 C34 1_555 1_555
H19 C35 1_555 1_555
C36 C31 1_555 1_555
H20 C36 1_555 1_555
C37 C38 1_555 1_555
C38 H21 1_555 1_555
C39 C38 1_555 1_555
H22 C39 1_555 1_555
C40 C39 1_555 1_555
C41 C40 1_555 1_555
H23 C41 1_555 1_555
C42 C37 1_555 1_555
N2 C28 1_555 1_555
O7 C22 1_555 1_555
O8 In2 1_555 1_555
O9 In5 1_555 1_555
O11 C24 1_555 1_555
O12 C24 1_555 1_555
H50 O12 1_555 1_555
O27 In2 1_555 1_555
H53 O27 1_555 1_555
O31 In5 1_555 1_555
O32 In3 1_555 1_555
O33 In2 1_555 1_555
O36 In3 1_555 1_555
O39 In3 1_555 1_555
O40 In3 1_555 1_555
O41 In5 1_555 1_555
In3 O27 1_555 1_555
C22 O8 1_555 1_555
C23 O9 1_555 1_555
C29 C30 1_555 1_555
C34 N2 1_555 1_555
C35 C36 1_555 1_555
C40 N2 1_555 1_555
C41 C42 1_555 1_555
H3 C7 1_555 1_555
C9 C16 1_555 1_555
H11 C20 1_555 1_555
C21 C16 1_555 1_555
H12 C21 1_555 1_555
O6 C9 1_555 1_555
C20 C21 1_555 1_555
C44 C52 1_555 1_555
C52 C53 1_555 1_555
C53 H29 1_555 1_555
C54 C53 1_555 1_555
C55 C54 1_555 1_555
C56 C55 1_555 1_555
H31 C56 1_555 1_555
C57 C52 1_555 1_555
H32 C57 1_555 1_555
C64 C67 1_555 1_555
C65 C79 1_555 1_555
C66 C73 1_555 1_555
C67 C68 1_555 1_555
C68 H37 1_555 1_555
C69 C68 1_555 1_555
H38 C69 1_555 1_555
C70 C69 1_555 1_555
C71 C70 1_555 1_555
H39 C71 1_555 1_555
C72 C67 1_555 1_555
H40 C72 1_555 1_555
C73 C74 1_555 1_555
C74 H41 1_555 1_555
C75 C74 1_555 1_555
H42 C75 1_555 1_555
C76 C75 1_555 1_555
C77 C76 1_555 1_555
H43 C77 1_555 1_555
C78 C73 1_555 1_555
H44 C78 1_555 1_555
C79 C80 1_555 1_555
C80 H45 1_555 1_555
C81 C80 1_555 1_555
H46 C81 1_555 1_555
C82 C81 1_555 1_555
C83 C82 1_555 1_555
H47 C83 1_555 1_555
C84 C79 1_555 1_555
H48 C84 1_555 1_555
N4 C70 1_555 1_555
O15 C44 1_555 1_555
O16 C44 1_555 1_555
O21 C65 1_555 1_555
O22 C65 1_555 1_555
O23 C66 1_555 1_555
O24 C66 1_555 1_555
H52 O26 1_555 1_555
In7 O16 1_555 1_555
In9 O21 1_555 1_555
In10 O15 1_555 1_555
In11 O22 1_555 1_555
In13 O23 1_555 1_555
In15 O10 1_555 1_555
C56 C57 1_555 1_555
C64 O19 1_555 1_555
C64 O20 1_555 1_555
C71 C72 1_555 1_555
C76 N4 1_555 1_555
C77 C78 1_555 1_555
C82 N4 1_555 1_555
C83 C84 1_555 1_555
O24 In10 1_555 1_555
O29 In15 1_555 1_555
In1 O2 1_555 1_555
In11 O14 1_555 1_555
C1 C3 1_555 1_555
C2 C10 1_555 1_555
C3 C4 1_555 1_555
C4 H1 1_555 1_555
C5 C4 1_555 1_555
H2 C5 1_555 1_555
C6 C5 1_555 1_555
C8 C3 1_555 1_555
C10 C11 1_555 1_555
C11 H5 1_555 1_555
C12 C11 1_555 1_555
H6 C12 1_555 1_555
C13 C12 1_555 1_555
C14 C13 1_555 1_555
H7 C14 1_555 1_555
C15 C10 1_555 1_555
H8 C15 1_555 1_555
C17 H9 1_555 1_555
C18 C17 1_555 1_555
H10 C18 1_555 1_555
C19 C18 1_555 1_555
C43 C46 1_555 1_555
C45 C58 1_555 1_555
C46 C47 1_555 1_555
C47 H25 1_555 1_555
C48 C47 1_555 1_555
C49 C48 1_555 1_555
C50 C49 1_555 1_555
H27 C50 1_555 1_555
C51 C46 1_555 1_555
H28 C51 1_555 1_555
C58 C59 1_555 1_555
C59 H33 1_555 1_555
C60 C59 1_555 1_555
H34 C60 1_555 1_555
C61 C60 1_555 1_555
C62 C61 1_555 1_555
H35 C62 1_555 1_555
C63 C58 1_555 1_555
H36 C63 1_555 1_555
N1 C6 1_555 1_555
N3 C49 1_555 1_555
O2 C1 1_555 1_555
O3 C2 1_555 1_555
O4 C2 1_555 1_555
H49 O4 1_555 1_555
O13 In1 1_555 1_555
O14 C43 1_555 1_555
O17 C45 1_555 1_555
O18 C45 1_555 1_555
O25 In1 1_555 1_555
H51 O25 1_555 1_555
O28 In11 1_555 1_555
H54 O28 1_555 1_555
In6 O17 1_555 1_555
In9 O28 1_555 1_555
In13 O18 1_555 1_555
O35 In11 1_555 1_555
O38 In11 1_555 1_555
In11 O25 1_555 1_555
C13 N1 1_555 1_555
C14 C15 1_555 1_555
C19 N1 1_555 1_555
C43 O13 1_555 1_555
C50 C51 1_555 1_555
C61 N3 1_555 1_555
C62 C63 1_555 1_555
In3_2 O7_2 1_555 1_555
C22_2 C25_2 1_555 1_555
C23_2 C37_2 1_555 1_555
C24_2 C31_2 1_555 1_555
C25_2 C26_2 1_555 1_555
C26_2 H13_2 1_555 1_555
C27_2 C26_2 1_555 1_555
H14_2 C27_2 1_555 1_555
C28_2 C27_2 1_555 1_555
C29_2 C28_2 1_555 1_555
H15_2 C29_2 1_555 1_555
C30_2 C25_2 1_555 1_555
H16_2 C30_2 1_555 1_555
C31_2 C32_2 1_555 1_555
C32_2 H17_2 1_555 1_555
C33_2 C32_2 1_555 1_555
H18_2 C33_2 1_555 1_555
C34_2 C33_2 1_555 1_555
C35_2 C34_2 1_555 1_555
H19_2 C35_2 1_555 1_555
C36_2 C31_2 1_555 1_555
H20_2 C36_2 1_555 1_555
C37_2 C38_2 1_555 1_555
C38_2 H21_2 1_555 1_555
C39_2 C38_2 1_555 1_555
H22_2 C39_2 1_555 1_555
C40_2 C39_2 1_555 1_555
C41_2 C40_2 1_555 1_555
H23_2 C41_2 1_555 1_555
C42_2 C37_2 1_555 1_555
N2_2 C28_2 1_555 1_555
O7_2 C22_2 1_555 1_555
O11_2 C24_2 1_555 1_555
O12_2 C24_2 1_555 1_555
H50_2 O12_2 1_555 1_555
H53_2 O27_2 1_555 1_555
O39_2 In3_2 1_555 1_555
O40_2 In3_2 1_555 1_555
In3_2 O27_2 1_555 1_555
C22_2 O8_2 1_555 1_555
C23_2 O9_2 1_555 1_555
C29_2 C30_2 1_555 1_555
C34_2 N2_2 1_555 1_555
C35_2 C36_2 1_555 1_555
C40_2 N2_2 1_555 1_555
C41_2 C42_2 1_555 1_555
In14 O5_2 1_555 1_555
H3_2 C7_2 1_555 1_555
C9_2 C16_2 1_555 1_555
H11_2 C20_2 1_555 1_555
C21_2 C16_2 1_555 1_555
H12_2 C21_2 1_555 1_555
O5_2 C9_2 1_555 1_555
O6_2 C9_2 1_555 1_555
In14_2 O6_2 1_555 1_555
O31_2 In14 1_555 1_555
O33_2 In2_2 1_555 1_555
O41_2 In14 1_555 1_555
C20_2 C21_2 1_555 1_555
In14_2 O41_2 1_555 1_555
C65_2 C79_2 1_555 1_555
C66_2 C73_2 1_555 1_555
C67_2 C68_2 1_555 1_555
C68_2 H37_2 1_555 1_555
C69_2 C68_2 1_555 1_555
H38_2 C69_2 1_555 1_555
C70_2 C69_2 1_555 1_555
C71_2 C70_2 1_555 1_555
H39_2 C71_2 1_555 1_555
C72_2 C67_2 1_555 1_555
C73_2 C74_2 1_555 1_555
C74_2 H41_2 1_555 1_555
C75_2 C74_2 1_555 1_555
H42_2 C75_2 1_555 1_555
C76_2 C75_2 1_555 1_555
C77_2 C76_2 1_555 1_555
H43_2 C77_2 1_555 1_555
C78_2 C73_2 1_555 1_555
H44_2 C78_2 1_555 1_555
C79_2 C80_2 1_555 1_555
C80_2 H45_2 1_555 1_555
C81_2 C80_2 1_555 1_555
H46_2 C81_2 1_555 1_555
C82_2 C81_2 1_555 1_555
C83_2 C82_2 1_555 1_555
H47_2 C83_2 1_555 1_555
C84_2 C79_2 1_555 1_555
H48_2 C84_2 1_555 1_555
N4_2 C70_2 1_555 1_555
O32 C44_2 1_555 1_555
O33 C44_2 1_555 1_555
O21_2 C65_2 1_555 1_555
O22_2 C65_2 1_555 1_555
O23_2 C66_2 1_555 1_555
O39 C66_2 1_555 1_555
In9_2 O21_2 1_555 1_555
In11_2 O22_2 1_555 1_555
In13_2 O23_2 1_555 1_555
C71_2 C72_2 1_555 1_555
C76_2 N4_2 1_555 1_555
C77_2 C78_2 1_555 1_555
C82_2 N4_2 1_555 1_555
C83_2 C84_2 1_555 1_555
In1_2 O2_2 1_555 1_555
In11_2 O14_2 1_555 1_555
C1_2 C3_2 1_555 1_555
C2_2 C10_2 1_555 1_555
C3_2 C4_2 1_555 1_555
C4_2 H1_2 1_555 1_555
C5_2 C4_2 1_555 1_555
H2_2 C5_2 1_555 1_555
C6_2 C5_2 1_555 1_555
C8_2 C3_2 1_555 1_555
C10_2 C11_2 1_555 1_555
C11_2 H5_2 1_555 1_555
C12_2 C11_2 1_555 1_555
H6_2 C12_2 1_555 1_555
C13_2 C12_2 1_555 1_555
C14_2 C13_2 1_555 1_555
H7_2 C14_2 1_555 1_555
C15_2 C10_2 1_555 1_555
H8_2 C15_2 1_555 1_555
C17_2 H9_2 1_555 1_555
C18_2 C17_2 1_555 1_555
H10_2 C18_2 1_555 1_555
C19_2 C18_2 1_555 1_555
C43_2 C46_2 1_555 1_555
C45_2 C58_2 1_555 1_555
C46_2 C47_2 1_555 1_555
C47_2 H25_2 1_555 1_555
C48_2 C47_2 1_555 1_555
H26_2 C48_2 1_555 1_555
C49_2 C48_2 1_555 1_555
C50_2 C49_2 1_555 1_555
H27_2 C50_2 1_555 1_555
C51_2 C46_2 1_555 1_555
H28_2 C51_2 1_555 1_555
C52_2 C53_2 1_555 1_555
C53_2 H29_2 1_555 1_555
C54_2 C53_2 1_555 1_555
H30_2 C54_2 1_555 1_555
C55_2 C54_2 1_555 1_555
C56_2 C55_2 1_555 1_555
H31_2 C56_2 1_555 1_555
C57_2 C52_2 1_555 1_555
C58_2 C59_2 1_555 1_555
C59_2 H33_2 1_555 1_555
C60_2 C59_2 1_555 1_555
H34_2 C60_2 1_555 1_555
C61_2 C60_2 1_555 1_555
C62_2 C61_2 1_555 1_555
H35_2 C62_2 1_555 1_555
C63_2 C58_2 1_555 1_555
H36_2 C63_2 1_555 1_555
N1_2 C6_2 1_555 1_555
N3_2 C49_2 1_555 1_555
O1_2 C1_2 1_555 1_555
O2_2 C1_2 1_555 1_555
O3_2 C2_2 1_555 1_555
O4_2 C2_2 1_555 1_555
H49_2 O4_2 1_555 1_555
O13_2 In1_2 1_555 1_555
O14_2 C43_2 1_555 1_555
O17_2 C45_2 1_555 1_555
O18_2 C45_2 1_555 1_555
O20_2 In1_2 1_555 1_555
O25_2 In1_2 1_555 1_555
H51_2 O25_2 1_555 1_555
O26_2 In1_2 1_555 1_555
H52_2 O26_2 1_555 1_555
O28_2 In11_2 1_555 1_555
H54_2 O28_2 1_555 1_555
In6_2 O17_2 1_555 1_555
In9_2 O28_2 1_555 1_555
In13_2 O18_2 1_555 1_555
O34_2 In1_2 1_555 1_555
O35_2 In11_2 1_555 1_555
O38_2 In11_2 1_555 1_555
In11_2 O25_2 1_555 1_555
C13_2 N1_2 1_555 1_555
C14_2 C15_2 1_555 1_555
C19_2 N1_2 1_555 1_555
C43_2 O13_2 1_555 1_555
C50_2 C51_2 1_555 1_555
C55_2 N3_2 1_555 1_555
C56_2 C57_2 1_555 1_555
C61_2 N3_2 1_555 1_555
C62_2 C63_2 1_555 1_555
C64_2 O20_2 1_555 1_555
C24_3 C31_3 1_555 1_555
C29_3 C28_3 1_555 1_555
H15_3 C29_3 1_555 1_555
C31_3 C32_3 1_555 1_555
C32_3 H17_3 1_555 1_555
C33_3 C32_3 1_555 1_555
H18_3 C33_3 1_555 1_555
C34_3 C33_3 1_555 1_555
C35_3 C34_3 1_555 1_555
H19_3 C35_3 1_555 1_555
C36_3 C31_3 1_555 1_555
H20_3 C36_3 1_555 1_555
C41_3 C40_3 1_555 1_555
H23_3 C41_3 1_555 1_555
H24_3 C42_3 1_555 1_555
C65_3 C79_3 1_555 1_555
C66_3 C73_3 1_555 1_555
H38_3 C69_3 1_555 1_555
C70_3 C69_3 1_555 1_555
C73_3 C74_3 1_555 1_555
C74_3 H41_3 1_555 1_555
C75_3 C74_3 1_555 1_555
H42_3 C75_3 1_555 1_555
C76_3 C75_3 1_555 1_555
C77_3 C76_3 1_555 1_555
H43_3 C77_3 1_555 1_555
C78_3 C73_3 1_555 1_555
H44_3 C78_3 1_555 1_555
C79_3 C80_3 1_555 1_555
C80_3 H45_3 1_555 1_555
C81_3 C80_3 1_555 1_555
H46_3 C81_3 1_555 1_555
C82_3 C81_3 1_555 1_555
C83_3 C82_3 1_555 1_555
H47_3 C83_3 1_555 1_555
C84_3 C79_3 1_555 1_555
H48_3 C84_3 1_555 1_555
N2_3 C28_3 1_555 1_555
N4_3 C70_3 1_555 1_555
O11_3 C24_3 1_555 1_555
O12_3 C24_3 1_555 1_555
H50_3 O12_3 1_555 1_555
O21_3 C65_3 1_555 1_555
O22_3 C65_3 1_555 1_555
O23_3 C66_3 1_555 1_555
O39_2 C66_3 1_555 1_555
In10 O21_3 1_555 1_555
In13 O22_3 1_555 1_555
In13_3 O23_3 1_555 1_555
C34_3 N2_3 1_555 1_555
C35_3 C36_3 1_555 1_555
C40_3 N2_3 1_555 1_555
C41_3 C42_3 1_555 1_555
C76_3 N4_3 1_555 1_555
C77_3 C78_3 1_555 1_555
C82_3 N4_3 1_555 1_555
C83_3 C84_3 1_555 1_555
In6 O2_3 1_555 1_555
In2_3 O1_3 1_555 1_555
In3_3 O7_3 1_555 1_555
In13 O14_3 1_555 1_555
In14_2 O5_3 1_555 1_555
C1_3 C3_3 1_555 1_555
C2_3 C10_3 1_555 1_555
C3_3 C4_3 1_555 1_555
C4_3 H1_3 1_555 1_555
C5_3 C4_3 1_555 1_555
H2_3 C5_3 1_555 1_555
C6_3 C5_3 1_555 1_555
C7_3 C6_3 1_555 1_555
H3_3 C7_3 1_555 1_555
C8_3 C3_3 1_555 1_555
H4_3 C8_3 1_555 1_555
C9_3 C16_3 1_555 1_555
C10_3 C11_3 1_555 1_555
C11_3 H5_3 1_555 1_555
C12_3 C11_3 1_555 1_555
H6_3 C12_3 1_555 1_555
C13_3 C12_3 1_555 1_555
C14_3 C13_3 1_555 1_555
H7_3 C14_3 1_555 1_555
C15_3 C10_3 1_555 1_555
H8_3 C15_3 1_555 1_555
C16_3 C17_3 1_555 1_555
C17_3 H9_3 1_555 1_555
C18_3 C17_3 1_555 1_555
H10_3 C18_3 1_555 1_555
C19_3 C18_3 1_555 1_555
C20_3 C19_3 1_555 1_555
H11_3 C20_3 1_555 1_555
C21_3 C16_3 1_555 1_555
H12_3 C21_3 1_555 1_555
C22_3 C25_3 1_555 1_555
C23_3 C37_3 1_555 1_555
C25_3 C26_3 1_555 1_555
C26_3 H13_3 1_555 1_555
C27_3 C26_3 1_555 1_555
H14_3 C27_3 1_555 1_555
C30_3 C25_3 1_555 1_555
H16_3 C30_3 1_555 1_555
C37_3 C38_3 1_555 1_555
C38_3 H21_3 1_555 1_555
C39_3 C38_3 1_555 1_555
H22_3 C39_3 1_555 1_555
C43_3 C46_3 1_555 1_555
C44_3 C52_3 1_555 1_555
C45_3 C58_3 1_555 1_555
C46_3 C47_3 1_555 1_555
C47_3 H25_3 1_555 1_555
C48_3 C47_3 1_555 1_555
H26_3 C48_3 1_555 1_555
C49_3 C48_3 1_555 1_555
C50_3 C49_3 1_555 1_555
H27_3 C50_3 1_555 1_555
C51_3 C46_3 1_555 1_555
H28_3 C51_3 1_555 1_555
C52_3 C53_3 1_555 1_555
C53_3 H29_3 1_555 1_555
C54_3 C53_3 1_555 1_555
H30_3 C54_3 1_555 1_555
C55_3 C54_3 1_555 1_555
C56_3 C55_3 1_555 1_555
H31_3 C56_3 1_555 1_555
C57_3 C52_3 1_555 1_555
H32_3 C57_3 1_555 1_555
C58_3 C59_3 1_555 1_555
C59_3 H33_3 1_555 1_555
C60_3 C59_3 1_555 1_555
H34_3 C60_3 1_555 1_555
C61_3 C60_3 1_555 1_555
C62_3 C61_3 1_555 1_555
H35_3 C62_3 1_555 1_555
C63_3 C58_3 1_555 1_555
H36_3 C63_3 1_555 1_555
C64_3 C67_3 1_555 1_555
C67_3 C68_3 1_555 1_555
C68_3 H37_3 1_555 1_555
H39_3 C71_3 1_555 1_555
C72_3 C67_3 1_555 1_555
H40_3 C72_3 1_555 1_555
N1_3 C6_3 1_555 1_555
N3_3 C49_3 1_555 1_555
O1_3 C1_3 1_555 1_555
O2_3 C1_3 1_555 1_555
O3_3 C2_3 1_555 1_555
O4_3 C2_3 1_555 1_555
H49_3 O4_3 1_555 1_555
O5_3 C9_3 1_555 1_555
O6_3 C9_3 1_555 1_555
O7_3 C22_3 1_555 1_555
O8_3 In2_3 1_555 1_555
O9_3 In14_2 1_555 1_555
O31_2 C23_3 1_555 1_555
O13_3 In6 1_555 1_555
O14_3 C43_3 1_555 1_555
O32_2 C44_3 1_555 1_555
O33_2 C44_3 1_555 1_555
O17_3 C45_3 1_555 1_555
O18_3 C45_3 1_555 1_555
O19_3 In2_3 1_555 1_555
O20_3 In6 1_555 1_555
O25_3 In6 1_555 1_555
H51_3 O25_3 1_555 1_555
O26_3 In6 1_555 1_555
H52_3 O26_3 1_555 1_555
O27_3 In2_3 1_555 1_555
H53_3 O27_3 1_555 1_555
O28_3 In13 1_555 1_555
H54_3 O28_3 1_555 1_555
H55_3 O41_2 1_555 1_555
In6_3 O17_3 1_555 1_555
In10 O28_3 1_555 1_555
In13_3 O18_3 1_555 1_555
O31_3 In14_2 1_555 1_555
O32_3 In3_3 1_555 1_555
O33_3 In2_3 1_555 1_555
O36_3 In3_3 1_555 1_555
O39_3 In3_3 1_555 1_555
O40_3 In3_3 1_555 1_555
O41_3 In14_2 1_555 1_555
In2_3 O26_3 1_555 1_555
In3_3 O27_3 1_555 1_555
In13 O25_3 1_555 1_555
C7_3 C8_3 1_555 1_555
C13_3 N1_3 1_555 1_555
C14_3 C15_3 1_555 1_555
C19_3 N1_3 1_555 1_555
C20_3 C21_3 1_555 1_555
C22_3 O8_3 1_555 1_555
C23_3 O9_3 1_555 1_555
C43_3 O13_3 1_555 1_555
C50_3 C51_3 1_555 1_555
C55_3 N3_3 1_555 1_555
C56_3 C57_3 1_555 1_555
C61_3 N3_3 1_555 1_555
C62_3 C63_3 1_555 1_555
C64_3 O19_3 1_555 1_555
C64_3 O20_3 1_555 1_555
C71_3 C72_3 1_555 1_555
C65_4 C79_4 1_555 1_555
C79_4 C80_4 1_555 1_555
C80_4 H45_4 1_555 1_555
C81_4 C80_4 1_555 1_555
H46_4 C81_4 1_555 1_555
C84_4 C79_4 1_555 1_555
H48_4 C84_4 1_555 1_555
O36 C65_4 1_555 1_555
O22_4 C65_4 1_555 1_555
In13_2 O22_4 1_555 1_555
In6_2 O2_4 1_555 1_555
In13_2 O14_4 1_555 1_555
C1_4 C3_4 1_555 1_555
C3_4 C4_4 1_555 1_555
C4_4 H1_4 1_555 1_555
C5_4 C4_4 1_555 1_555
H2_4 C5_4 1_555 1_555
C6_4 C5_4 1_555 1_555
C8_4 C3_4 1_555 1_555
C10_4 C11_4 1_555 1_555
C11_4 H5_4 1_555 1_555
C12_4 C11_4 1_555 1_555
H6_4 C12_4 1_555 1_555
C13_4 C12_4 1_555 1_555
C14_4 C13_4 1_555 1_555
H7_4 C14_4 1_555 1_555
C15_4 C10_4 1_555 1_555
H8_4 C15_4 1_555 1_555
C17_4 H9_4 1_555 1_555
C18_4 C17_4 1_555 1_555
H10_4 C18_4 1_555 1_555
C19_4 C18_4 1_555 1_555
C43_4 C46_4 1_555 1_555
C44_4 C52_4 1_555 1_555
C45_4 C58_4 1_555 1_555
C46_4 C47_4 1_555 1_555
C47_4 H25_4 1_555 1_555
C48_4 C47_4 1_555 1_555
H26_4 C48_4 1_555 1_555
C49_4 C48_4 1_555 1_555
C50_4 C49_4 1_555 1_555
H27_4 C50_4 1_555 1_555
C51_4 C46_4 1_555 1_555
H28_4 C51_4 1_555 1_555
C52_4 C53_4 1_555 1_555
C53_4 H29_4 1_555 1_555
C54_4 C53_4 1_555 1_555
H30_4 C54_4 1_555 1_555
C55_4 C54_4 1_555 1_555
C56_4 C55_4 1_555 1_555
H31_4 C56_4 1_555 1_555
C57_4 C52_4 1_555 1_555
H32_4 C57_4 1_555 1_555
C58_4 C59_4 1_555 1_555
C59_4 H33_4 1_555 1_555
C60_4 C59_4 1_555 1_555
H34_4 C60_4 1_555 1_555
C61_4 C60_4 1_555 1_555
C62_4 C61_4 1_555 1_555
H35_4 C62_4 1_555 1_555
C63_4 C58_4 1_555 1_555
H36_4 C63_4 1_555 1_555
C64_4 C67_4 1_555 1_555
C66_4 C73_4 1_555 1_555
C67_4 C68_4 1_555 1_555
C68_4 H37_4 1_555 1_555
C69_4 C68_4 1_555 1_555
H38_4 C69_4 1_555 1_555
C70_4 C69_4 1_555 1_555
C71_4 C70_4 1_555 1_555
H39_4 C71_4 1_555 1_555
C72_4 C67_4 1_555 1_555
H40_4 C72_4 1_555 1_555
C73_4 C74_4 1_555 1_555
C74_4 H41_4 1_555 1_555
C75_4 C74_4 1_555 1_555
H42_4 C75_4 1_555 1_555
C76_4 C75_4 1_555 1_555
C77_4 C76_4 1_555 1_555
H43_4 C77_4 1_555 1_555
C78_4 C73_4 1_555 1_555
H44_4 C78_4 1_555 1_555
C83_4 C82_4 1_555 1_555
H47_4 C83_4 1_555 1_555
N1_4 C6_4 1_555 1_555
N3_4 C49_4 1_555 1_555
N4_4 C70_4 1_555 1_555
O1_4 C1_4 1_555 1_555
O2_4 C1_4 1_555 1_555
O13_4 In6_2 1_555 1_555
O14_4 C43_4 1_555 1_555
O32_3 C44_4 1_555 1_555
O33_3 C44_4 1_555 1_555
O17_4 C45_4 1_555 1_555
O18_4 C45_4 1_555 1_555
O20_4 In6_2 1_555 1_555
O23_4 C66_4 1_555 1_555
O39_3 C66_4 1_555 1_555
O25_4 In6_2 1_555 1_555
H51_4 O25_4 1_555 1_555
O26_4 In6_2 1_555 1_555
H52_4 O26_4 1_555 1_555
O40 In13_2 1_555 1_555
H54_4 O40 1_555 1_555
In6_4 O17_4 1_555 1_555
In13_4 O18_4 1_555 1_555
In13_2 O25_4 1_555 1_555
C13_4 N1_4 1_555 1_555
C14_4 C15_4 1_555 1_555
C19_4 N1_4 1_555 1_555
C43_4 O13_4 1_555 1_555
C50_4 C51_4 1_555 1_555
C55_4 N3_4 1_555 1_555
C56_4 C57_4 1_555 1_555
C61_4 N3_4 1_555 1_555
C62_4 C63_4 1_555 1_555
C64_4 O19_4 1_555 1_555
C64_4 O20_4 1_555 1_555
C71_4 C72_4 1_555 1_555
C76_4 N4_4 1_555 1_555
C77_4 C78_4 1_555 1_555
C82_4 N4_4 1_555 1_555
In9 O7_4 1_555 1_555
In14_3 O5_4 1_555 1_555
H3_4 C7_4 1_555 1_555
C9_4 C16_4 1_555 1_555
H11_4 C20_4 1_555 1_555
C21_4 C16_4 1_555 1_555
H12_4 C21_4 1_555 1_555
C22_4 C25_4 1_555 1_555
C23_4 C37_4 1_555 1_555
C25_4 C26_4 1_555 1_555
C26_4 H13_4 1_555 1_555
C27_4 C26_4 1_555 1_555
H14_4 C27_4 1_555 1_555
C28_4 C27_4 1_555 1_555
C29_4 C28_4 1_555 1_555
H15_4 C29_4 1_555 1_555
C30_4 C25_4 1_555 1_555
H16_4 C30_4 1_555 1_555
C37_4 C38_4 1_555 1_555
C38_4 H21_4 1_555 1_555
C39_4 C38_4 1_555 1_555
H22_4 C39_4 1_555 1_555
C40_4 C39_4 1_555 1_555
C41_4 C40_4 1_555 1_555
H23_4 C41_4 1_555 1_555
C42_4 C37_4 1_555 1_555
N2_4 C28_4 1_555 1_555
O5_4 C9_4 1_555 1_555
O6_4 C9_4 1_555 1_555
O7_4 C22_4 1_555 1_555
O8_4 In2_4 1_555 1_555
O9_4 In14_3 1_555 1_555
O27_4 In2_4 1_555 1_555
H53_4 O27_4 1_555 1_555
O31_4 In14_3 1_555 1_555
O32_4 In9 1_555 1_555
O33_4 In2_4 1_555 1_555
O39_4 In9 1_555 1_555
O41_4 In14_3 1_555 1_555
In9 O27_4 1_555 1_555
C20_4 C21_4 1_555 1_555
C22_4 O8_4 1_555 1_555
C23_4 O9_4 1_555 1_555
C29_4 C30_4 1_555 1_555
C34_4 N2_4 1_555 1_555
C40_4 N2_4 1_555 1_555
C41_4 C42_4 1_555 1_555
In13_3 O22_5 1_555 1_555
In6_3 O2_5 1_555 1_555
In13_3 O14_5 1_555 1_555
C1_5 C3_5 1_555 1_555
C3_5 C4_5 1_555 1_555
C4_5 H1_5 1_555 1_555
C5_5 C4_5 1_555 1_555
H2_5 C5_5 1_555 1_555
C6_5 C5_5 1_555 1_555
C8_5 C3_5 1_555 1_555
C14_5 C13_5 1_555 1_555
H7_5 C14_5 1_555 1_555
C17_5 H9_5 1_555 1_555
C18_5 C17_5 1_555 1_555
H10_5 C18_5 1_555 1_555
C19_5 C18_5 1_555 1_555
C43_5 C46_5 1_555 1_555
C44_5 C52_5 1_555 1_555
C45_5 C58_5 1_555 1_555
C46_5 C47_5 1_555 1_555
C47_5 H25_5 1_555 1_555
C48_5 C47_5 1_555 1_555
H26_5 C48_5 1_555 1_555
C49_5 C48_5 1_555 1_555
C50_5 C49_5 1_555 1_555
H27_5 C50_5 1_555 1_555
C51_5 C46_5 1_555 1_555
H28_5 C51_5 1_555 1_555
C52_5 C53_5 1_555 1_555
C53_5 H29_5 1_555 1_555
C54_5 C53_5 1_555 1_555
H30_5 C54_5 1_555 1_555
C55_5 C54_5 1_555 1_555
C56_5 C55_5 1_555 1_555
H31_5 C56_5 1_555 1_555
C57_5 C52_5 1_555 1_555
H32_5 C57_5 1_555 1_555
C58_5 C59_5 1_555 1_555
C59_5 H33_5 1_555 1_555
C60_5 C59_5 1_555 1_555
H34_5 C60_5 1_555 1_555
C61_5 C60_5 1_555 1_555
C62_5 C61_5 1_555 1_555
H35_5 C62_5 1_555 1_555
C63_5 C58_5 1_555 1_555
H36_5 C63_5 1_555 1_555
C64_5 C67_5 1_555 1_555
C65_5 C79_5 1_555 1_555
C66_5 C73_5 1_555 1_555
C67_5 C68_5 1_555 1_555
C68_5 H37_5 1_555 1_555
C69_5 C68_5 1_555 1_555
H38_5 C69_5 1_555 1_555
C70_5 C69_5 1_555 1_555
C71_5 C70_5 1_555 1_555
H39_5 C71_5 1_555 1_555
C72_5 C67_5 1_555 1_555
H40_5 C72_5 1_555 1_555
C73_5 C74_5 1_555 1_555
C74_5 H41_5 1_555 1_555
C75_5 C74_5 1_555 1_555
H42_5 C75_5 1_555 1_555
C76_5 C75_5 1_555 1_555
C77_5 C76_5 1_555 1_555
H43_5 C77_5 1_555 1_555
C78_5 C73_5 1_555 1_555
H44_5 C78_5 1_555 1_555
C79_5 C80_5 1_555 1_555
C80_5 H45_5 1_555 1_555
C81_5 C80_5 1_555 1_555
H46_5 C81_5 1_555 1_555
C82_5 C81_5 1_555 1_555
C83_5 C82_5 1_555 1_555
H47_5 C83_5 1_555 1_555
C84_5 C79_5 1_555 1_555
H48_5 C84_5 1_555 1_555
N1_5 C6_5 1_555 1_555
N3_5 C49_5 1_555 1_555
N4_5 C70_5 1_555 1_555
O1_5 C1_5 1_555 1_555
O2_5 C1_5 1_555 1_555
O13_5 In6_3 1_555 1_555
O14_5 C43_5 1_555 1_555
O32_4 C44_5 1_555 1_555
O33_4 C44_5 1_555 1_555
O34 C45_5 1_555 1_555
O20_5 In6_3 1_555 1_555
O36_2 C65_5 1_555 1_555
O38 C66_5 1_555 1_555
O39_4 C66_5 1_555 1_555
O25_5 In6_3 1_555 1_555
H51_5 O25_5 1_555 1_555
O26_5 In6_3 1_555 1_555
H52_5 O26_5 1_555 1_555
O40_2 In13_3 1_555 1_555
H54_5 O40_2 1_555 1_555
In13_3 O25_5 1_555 1_555
C13_5 N1_5 1_555 1_555
C19_5 N1_5 1_555 1_555
C43_5 O13_5 1_555 1_555
C50_5 C51_5 1_555 1_555
C55_5 N3_5 1_555 1_555
C56_5 C57_5 1_555 1_555
C61_5 N3_5 1_555 1_555
C62_5 C63_5 1_555 1_555
C64_5 O19_5 1_555 1_555
C64_5 O20_5 1_555 1_555
C71_5 C72_5 1_555 1_555
C76_5 N4_5 1_555 1_555
C77_5 C78_5 1_555 1_555
C82_5 N4_5 1_555 1_555
C83_5 C84_5 1_555 1_555
C2_4 C10_5 1_555 1_555
C10_5 C11_5 1_555 1_555
C11_5 H5_5 1_555 1_555
C12_5 C11_5 1_555 1_555
C15_5 C10_5 1_555 1_555
H8_5 C15_5 1_555 1_555
O3_4 C2_4 1_555 1_555
O4_4 C2_4 1_555 1_555
H49_4 O4_4 1_555 1_555
In9_2 O7_5 1_555 1_555
In14_4 O5_5 1_555 1_555
H3_5 C7_5 1_555 1_555
C9_5 C16_5 1_555 1_555
H11_5 C20_5 1_555 1_555
C21_5 C16_5 1_555 1_555
H12_5 C21_5 1_555 1_555
C22_5 C25_5 1_555 1_555
C23_5 C37_5 1_555 1_555
C25_5 C26_5 1_555 1_555
C26_5 H13_5 1_555 1_555
C27_5 C26_5 1_555 1_555
H14_5 C27_5 1_555 1_555
C28_5 C27_5 1_555 1_555
C29_5 C28_5 1_555 1_555
H15_5 C29_5 1_555 1_555
C30_5 C25_5 1_555 1_555
H16_5 C30_5 1_555 1_555
C31_4 C32_4 1_555 1_555
C32_4 H17_4 1_555 1_555
C33_4 C32_4 1_555 1_555
H18_4 C33_4 1_555 1_555
C34_5 C33_4 1_555 1_555
C35_4 C34_5 1_555 1_555
H19_5 C35_4 1_555 1_555
C36_4 C31_4 1_555 1_555
H20_4 C36_4 1_555 1_555
C37_5 C38_5 1_555 1_555
C38_5 H21_5 1_555 1_555
C39_5 C38_5 1_555 1_555
H22_5 C39_5 1_555 1_555
C40_5 C39_5 1_555 1_555
C41_5 C40_5 1_555 1_555
H23_5 C41_5 1_555 1_555
C42_5 C37_5 1_555 1_555
N2_5 C28_5 1_555 1_555
O5_5 C9_5 1_555 1_555
O6_5 C9_5 1_555 1_555
O7_5 C22_5 1_555 1_555
O8_5 In2_5 1_555 1_555
O9_5 In14_4 1_555 1_555
O27_5 In2_5 1_555 1_555
H53_5 O27_5 1_555 1_555
In15 O6_5 1_555 1_555
O31_5 In14_4 1_555 1_555
O32_5 In9_2 1_555 1_555
O33_5 In2_5 1_555 1_555
O39_5 In9_2 1_555 1_555
O41_5 In14_4 1_555 1_555
In9_2 O27_5 1_555 1_555
C20_5 C21_5 1_555 1_555
C22_5 O8_5 1_555 1_555
C23_5 O9_5 1_555 1_555
C29_5 C30_5 1_555 1_555
C34_5 N2_5 1_555 1_555
C35_4 C36_4 1_555 1_555
C40_5 N2_5 1_555 1_555
C41_5 C42_5 1_555 1_555
In15 O41_5 1_555 1_555
In6_4 O2_6 1_555 1_555
In7 O1_6 1_555 1_555
In10 O7_6 1_555 1_555
In13_4 O14_6 1_555 1_555
In15 O5_6 1_555 1_555
C1_6 C3_6 1_555 1_555
C3_6 C4_6 1_555 1_555
C4_6 H1_6 1_555 1_555
C5_6 C4_6 1_555 1_555
C6_6 C5_6 1_555 1_555
C7_6 C6_6 1_555 1_555
H3_6 C7_6 1_555 1_555
C8_6 C3_6 1_555 1_555
H4_6 C8_6 1_555 1_555
C9_6 C16_6 1_555 1_555
C16_6 C17_6 1_555 1_555
C17_6 H9_6 1_555 1_555
C18_6 C17_6 1_555 1_555
H10_6 C18_6 1_555 1_555
C22_6 C25_6 1_555 1_555
C23_6 C37_6 1_555 1_555
C24_4 C31_5 1_555 1_555
C25_6 C26_6 1_555 1_555
C26_6 H13_6 1_555 1_555
C27_6 C26_6 1_555 1_555
H14_6 C27_6 1_555 1_555
C28_6 C27_6 1_555 1_555
C29_6 C28_6 1_555 1_555
H15_6 C29_6 1_555 1_555
C30_6 C25_6 1_555 1_555
H16_6 C30_6 1_555 1_555
C31_5 C32_5 1_555 1_555
C32_5 H17_5 1_555 1_555
C33_5 C32_5 1_555 1_555
H18_5 C33_5 1_555 1_555
C34_6 C33_5 1_555 1_555
C35_5 C34_6 1_555 1_555
H19_6 C35_5 1_555 1_555
C36_5 C31_5 1_555 1_555
H20_5 C36_5 1_555 1_555
C37_6 C38_6 1_555 1_555
C38_6 H21_6 1_555 1_555
C39_6 C38_6 1_555 1_555
H22_6 C39_6 1_555 1_555
C40_6 C39_6 1_555 1_555
C41_6 C40_6 1_555 1_555
H23_6 C41_6 1_555 1_555
C42_6 C37_6 1_555 1_555
H24_6 C42_6 1_555 1_555
C43_6 C46_6 1_555 1_555
C44_6 C52_6 1_555 1_555
C46_6 C47_6 1_555 1_555
C47_6 H25_6 1_555 1_555
C48_6 C47_6 1_555 1_555
H26_6 C48_6 1_555 1_555
C49_6 C48_6 1_555 1_555
C50_6 C49_6 1_555 1_555
H27_6 C50_6 1_555 1_555
C51_6 C46_6 1_555 1_555
H28_6 C51_6 1_555 1_555
C52_6 C53_6 1_555 1_555
C53_6 H29_6 1_555 1_555
C54_6 C53_6 1_555 1_555
H30_6 C54_6 1_555 1_555
C55_6 C54_6 1_555 1_555
C56_6 C55_6 1_555 1_555
H31_6 C56_6 1_555 1_555
C57_6 C52_6 1_555 1_555
H32_6 C57_6 1_555 1_555
C62_6 C61_6 1_555 1_555
H35_6 C62_6 1_555 1_555
C64_6 C67_6 1_555 1_555
C65_6 C79_6 1_555 1_555
C66_6 C73_6 1_555 1_555
C67_6 C68_6 1_555 1_555
C68_6 H37_6 1_555 1_555
C69_6 C68_6 1_555 1_555
H38_6 C69_6 1_555 1_555
C70_6 C69_6 1_555 1_555
C71_6 C70_6 1_555 1_555
H39_6 C71_6 1_555 1_555
C72_6 C67_6 1_555 1_555
H40_6 C72_6 1_555 1_555
C73_6 C74_6 1_555 1_555
C74_6 H41_6 1_555 1_555
C75_6 C74_6 1_555 1_555
H42_6 C75_6 1_555 1_555
C76_6 C75_6 1_555 1_555
C77_6 C76_6 1_555 1_555
H43_6 C77_6 1_555 1_555
C78_6 C73_6 1_555 1_555
H44_6 C78_6 1_555 1_555
C79_6 C80_6 1_555 1_555
C80_6 H45_6 1_555 1_555
C81_6 C80_6 1_555 1_555
H46_6 C81_6 1_555 1_555
C82_6 C81_6 1_555 1_555
C83_6 C82_6 1_555 1_555
H47_6 C83_6 1_555 1_555
C84_6 C79_6 1_555 1_555
H48_6 C84_6 1_555 1_555
N2_6 C28_6 1_555 1_555
N3_6 C49_6 1_555 1_555
N4_6 C70_6 1_555 1_555
O1_6 C1_6 1_555 1_555
O2_6 C1_6 1_555 1_555
O5_6 C9_6 1_555 1_555
O30 C9_6 1_555 1_555
O7_6 C22_6 1_555 1_555
O8_6 In7 1_555 1_555
O9_6 In15 1_555 1_555
O31_5 C23_6 1_555 1_555
O11_4 C24_4 1_555 1_555
O12_4 C24_4 1_555 1_555
H50_4 O12_4 1_555 1_555
O13_6 In6_4 1_555 1_555
O14_6 C43_6 1_555 1_555
O32_5 C44_6 1_555 1_555
O33_5 C44_6 1_555 1_555
O19_6 In7 1_555 1_555
O20_6 In6_4 1_555 1_555
O36_3 C65_6 1_555 1_555
O22_6 C65_6 1_555 1_555
O38_2 C66_6 1_555 1_555
O39_5 C66_6 1_555 1_555
O25_6 In6_4 1_555 1_555
H51_6 O25_6 1_555 1_555
O26_6 In6_4 1_555 1_555
H52_6 O26_6 1_555 1_555
O27_6 In7 1_555 1_555
H53_6 O27_6 1_555 1_555
H55_6 O41_5 1_555 1_555
In7 O26_6 1_555 1_555
In10 O27_6 1_555 1_555
In13_4 O25_6 1_555 1_555
C7_6 C8_6 1_555 1_555
C22_6 O8_6 1_555 1_555
C23_6 O9_6 1_555 1_555
C29_6 C30_6 1_555 1_555
C34_6 N2_6 1_555 1_555
C35_5 C36_5 1_555 1_555
C40_6 N2_6 1_555 1_555
C41_6 C42_6 1_555 1_555
C43_6 O13_6 1_555 1_555
C50_6 C51_6 1_555 1_555
C55_6 N3_6 1_555 1_555
C56_6 C57_6 1_555 1_555
C61_6 N3_6 1_555 1_555
C64_6 O19_6 1_555 1_555
C64_6 O20_6 1_555 1_555
C71_6 C72_6 1_555 1_555
C76_6 N4_6 1_555 1_555
C77_6 C78_6 1_555 1_555
C82_6 N4_6 1_555 1_555
C83_6 C84_6 1_555 1_555
C2_5 C10_6 1_555 1_555
C10_6 C11_6 1_555 1_555
C11_6 H5_6 1_555 1_555
C12_6 C11_6 1_555 1_555
H6_6 C12_6 1_555 1_555
C13_6 C12_6 1_555 1_555
C14_6 C13_6 1_555 1_555
H7_6 C14_6 1_555 1_555
C15_6 C10_6 1_555 1_555
H8_6 C15_6 1_555 1_555
C20_6 C19_6 1_555 1_555
H11_6 C20_6 1_555 1_555
H12_6 C21_6 1_555 1_555
C45_6 C58_6 1_555 1_555
C58_6 C59_6 1_555 1_555
C59_6 H33_6 1_555 1_555
C60_6 C59_6 1_555 1_555
H34_6 C60_6 1_555 1_555
C63_6 C58_6 1_555 1_555
O3_5 C2_5 1_555 1_555
O4_5 C2_5 1_555 1_555
H49_5 O4_5 1_555 1_555
O34_2 C45_6 1_555 1_555
O35_2 C45_6 1_555 1_555
C13_6 N1_6 1_555 1_555
C14_6 C15_6 1_555 1_555
C19_6 N1_6 1_555 1_555
C20_6 C21_6 1_555 1_555
O3_6 C2_6 1_555 1_555
O4_6 C2_6 1_555 1_555
H49_6 O4_6 1_555 1_555
C24_5 C31_6 1_555 1_555
C31_6 C32_6 1_555 1_555
C32_6 H17_6 1_555 1_555
C33_6 C32_6 1_555 1_555
H18_6 C33_6 1_555 1_555
C36_6 C31_6 1_555 1_555
H20_6 C36_6 1_555 1_555
O11_5 C24_5 1_555 1_555
O12_5 C24_5 1_555 1_555
H50_5 O12_5 1_555 1_555
C35_6 C36_6 1_555 1_555
O11_6 C24_6 1_555 1_555
O12_6 C24_6 1_555 1_555
H50_6 O12_6 1_555 1_555

#END
