
###############################################################################
#
# This file contains modified crystal structure data generated from the
# MOF subset of the Cambridge Structural Database (CSD) v543 
# hosted by the Cambridge Crystallographic Data Centre (CCDC).
#
# This work is licensed under the Creative Commons
# Attribution-NonCommercial-ShareAlike 4.0 International License.
# To view a copy of this license, visit
# http://creativecommons.org/licenses/by-nc-sa/4.0/
# or send a letter to
# Creative Commons, PO Box 1866, Mountain View, CA 94042, USA.
#
# CIF created using the CSD Python API on 29 September 2022
# The structure has been converted into the P1 space group
# The structure has a 3D framework
# The original CSD entry LARVIM is in the trigonal crystal system
# The framework has been calculated to contain at least 10.0% void space
# The void calculation uses a probe of radius 1.32A, grid spacing 0.4
# H atom positions have been added when not included in the experimental data
#
###############################################################################

data_LARVIM
_chemical_formula_moiety         '(C192 H48 Cl96 Fe24 O128)n'
_symmetry_cell_setting           triclinic
_symmetry_space_group_name_H-M   'P 1'
_symmetry_Int_Tables_number      1
_space_group_name_Hall           'P 1'
loop_
_symmetry_equiv_pos_site_id
_symmetry_equiv_pos_as_xyz
1 x,y,z
_cell_length_a                   30.8099(13)
_cell_length_b                   30.8099(13)
_cell_length_c                   16.4605(5)
_cell_angle_alpha                90
_cell_angle_beta                 90
_cell_angle_gamma                120
_cell_volume                     13531.8
loop_
_atom_site_label
_atom_site_type_symbol
_atom_site_fract_x
_atom_site_fract_y
_atom_site_fract_z
O38 O 0.0542(3) 0.8051(5) 0.1556(4)
O39 O 0.0357(3) 0.7275(5) 0.1719(4)
C57 C 0.0320(5) 0.7588(8) 0.1371(7)
Fe14 Fe 0.09189(7) 0.72567(7) 0.24751(8)
Fe20 Fe 0.10145(7) 0.83898(7) 0.25327(8)
Cl23 Cl 0.07815(13) 0.80863(21) 0.52300(18)
Cl24 Cl 0.00334(14) 0.78711(23) 0.66707(17)
Cl26 Cl 0.06323(13) 0.73281(19) 0.98455(19)
O34 O 0.0506(3) 0.7243(4) 0.3515(4)
O35 O 0.0468(3) 0.7952(4) 0.3327(4)
C47 C 0.0165(2) 0.7664(4) 0.5106(4)
C49 C 0.0358(4) 0.7552(6) 0.3676(6)
C53 C 0.0084(2) 0.7345(3) 0.9948(5)
Cl11 Cl 0.82769(17) 0.06332(15) 0.16877(17)
Cl12 Cl 0.87361(14) 0.13545(12) 0.01972(17)
Cl13 Cl 0.81389(14) 0.20114(14) 0.02776(18)
Cl14 Cl 0.76136(16) 0.22396(16) 0.17125(16)
O21 O 0.6854(3) 0.2667(3) 0.1516(5)
O22 O 0.7561(4) 0.3376(4) 0.1740(5)
C1 C 0.7287(6) 0.2966(5) 0.1383(7)
C22 C 0.7514(3) 0.0041(3) 0.0689(4)
C23 C 0.7969(3) 0.0486(3) 0.0764(4)
C24 C 0.8171(2) 0.0805(2) 0.0096(5)
C28 C 0.79405(18) 0.24347(19) 0.0160(4)
C29 C 0.77067(19) 0.2536(2) 0.0794(3)
C30 C 0.7545(3) 0.2881(3) 0.0688(4)
Cl27 Cl 0.93668(15) 0.76437(23) 0.16877(17)
Cl28 Cl 0.86455(12) 0.73816(18) 0.01972(17)
Cl29 Cl 0.79886(14) 0.61275(20) 0.02776(18)
Cl30 Cl 0.77604(16) 0.53740(23) 0.17125(16)
O42 O 0.7333(3) 0.4187(4) 0.1516(5)
O43 O 0.6624(4) 0.4185(6) 0.1740(5)
C33 C 0.7034(5) 0.4321(8) 0.1383(7)
C54 C 0.9959(3) 0.7473(4) 0.0689(4)
C55 C 0.9514(3) 0.7483(4) 0.0764(4)
C56 C 0.9195(2) 0.7366(3) 0.0096(5)
C60 C 0.75653(19) 0.55058(26) 0.0160(4)
C61 C 0.7464(2) 0.51707(28) 0.0794(3)
C62 C 0.7119(3) 0.4664(4) 0.0688(4)
Cl43 Cl 0.23563(23) 0.17231(17) 0.16877(17)
Cl44 Cl 0.26184(18) 0.12639(14) 0.01972(17)
Cl45 Cl 0.38725(20) 0.18611(14) 0.02776(18)
Cl46 Cl 0.46260(23) 0.23864(16) 0.17125(16)
O59 O 0.1949(5) 0.2491(4) 0.1556(4)
O60 O 0.2725(5) 0.3082(4) 0.1719(4)
O63 O 0.5813(4) 0.3146(3) 0.1516(5)
O64 O 0.5815(6) 0.2439(4) 0.1740(5)
C65 C 0.5679(8) 0.2713(6) 0.1383(7)
C86 C 0.2527(4) 0.2486(3) 0.0689(4)
C87 C 0.2517(4) 0.2031(3) 0.0764(4)
C88 C 0.2634(3) 0.1829(2) 0.0096(5)
C89 C 0.2412(8) 0.2732(6) 0.1371(7)
C92 C 0.44942(26) 0.20595(18) 0.0160(4)
C93 C 0.48293(28) 0.22933(19) 0.0794(3)
C94 C 0.5336(4) 0.2455(3) 0.0688(4)
Fe16 Fe 0.27433(7) 0.36622(10) 0.24751(8)
Fe22 Fe 0.16102(7) 0.26247(10) 0.25327(8)
Fe25 Fe 0.64325(7) 0.26275(7) 0.25354(9)
Fe26 Fe 0.73725(7) 0.38050(10) 0.25354(9)
Fe27 Fe 0.61950(10) 0.35675(7) 0.25354(9)
Fe1 Fe 0.79768(6) 0.16959(7) 0.75417(8)
Fe2 Fe 0.90811(7) 0.27433(7) 0.75249(8)
Fe3 Fe 0.89855(7) 0.16102(7) 0.74673(8)
Cl1 Cl 0.72042(18) 0.24929(17) 0.67053(16)
Cl2 Cl 0.67424(15) 0.27493(15) 0.52104(19)
Cl3 Cl 0.83099(17) 0.30674(19) 0.33886(18)
Cl4 Cl 0.87750(15) 0.27922(17) 0.48653(19)
Cl5 Cl 0.80016(14) 0.14667(11) 0.48153(18)
Cl6 Cl 0.74783(17) 0.07106(14) 0.33552(17)
Cl9 Cl 0.71591(19) 0.00882(14) 0.83684(19)
Cl15 Cl 0.74173(16) 0.35507(15) 0.98277(19)
Cl16 Cl 0.79500(16) 0.33178(16) 0.83902(17)
O1 O 0.7203(4) 0.1320(6) 0.7607(5)
O2 O 0.9478(4) 0.3510(4) 0.7548(6)
O3 O 0.9264(4) 0.1123(4) 0.7407(5)
O4 O 0.8639(3) 0.1982(3) 0.7530(3)
O5 O 0.6200(4) 0.1848(4) 0.2532(5)
O6 O 0.6667 0.3333 0.2530(8)
O7 O 0.7925(3) 0.2050(3) 0.6586(4)
O8 O 0.8564(3) 0.2830(3) 0.6752(4)
O9 O 0.6971(3) 0.2668(4) 0.3301(4)
O10 O 0.7515(3) 0.3491(4) 0.3532(4)
O11 O 0.7841(3) 0.1132(3) 0.6766(5)
O12 O 0.8570(3) 0.1175(3) 0.6502(4)
O15 O 0.7907(3) 0.1272(3) 0.8517(5)
O16 O 0.8498(4) 0.1055(3) 0.8249(5)
O19 O 0.7925(3) 0.2169(3) 0.8310(4)
O20 O 0.8705(3) 0.2814(3) 0.8539(4)
C2 C 0.8179(7) 0.2528(6) 0.6423(6)
C3 C 0.7960(3) 0.26565(18) 0.5707(4)
C4 C 0.7505(3) 0.26473(16) 0.5782(3)
C5 C 0.7306(2) 0.27662(17) 0.5118(4)
C6 C 0.7558(3) 0.2894(3) 0.4380(4)
C7 C 0.8012(3) 0.2902(3) 0.4308(4)
C8 C 0.8215(2) 0.2785(3) 0.4971(5)
C9 C 0.7317(6) 0.3015(6) 0.3654(7)
C10 C 0.8144(6) 0.1042(5) 0.6354(6)
C11 C 0.78875(19) 0.0672(3) 0.5651(4)
C12 C 0.78102(18) 0.0843(2) 0.4915(5)
C13 C 0.75790(19) 0.0513(3) 0.4277(3)
C14 C 0.7424(3) 0.0008(3) 0.4368(4)
C16 C 0.7730(2) 0.0165(3) 0.5750(3)
C18 C 0.8141(6) 0.1048(6) 0.8655(8)
C19 C 0.7919(3) 0.0679(3) 0.9361(4)
C20 C 0.7464(3) 0.0235(3) 0.9285(3)
C26 C 0.8248(6) 0.2555(6) 0.8685(6)
C27 C 0.80150(19) 0.2677(2) 0.9418(4)
C31 C 0.7619(3) 0.3125(2) 0.9946(4)
C32 C 0.7856(3) 0.3024(3) 0.9313(3)
Fe5 Fe 0.83041(7) 0.62809(9) 0.75417(8)
Fe6 Fe 0.72567(7) 0.63378(10) 0.75249(8)
Fe7 Fe 0.83898(7) 0.73753(10) 0.74673(8)
Cl17 Cl 0.75071(17) 0.47113(25) 0.67053(16)
Cl18 Cl 0.72507(15) 0.39931(21) 0.52104(19)
Cl19 Cl 0.69326(19) 0.52425(25) 0.33886(18)
Cl20 Cl 0.72078(17) 0.59828(23) 0.48653(19)
Cl21 Cl 0.85333(11) 0.65349(18) 0.48153(18)
Cl22 Cl 0.92894(14) 0.67677(22) 0.33552(17)
Cl25 Cl 0.99118(14) 0.70709(24) 0.83684(19)
Cl31 Cl 0.64493(15) 0.38666(22) 0.98277(19)
Cl32 Cl 0.66822(16) 0.46322(23) 0.83902(17)
O23 O 0.8680(6) 0.5883(7) 0.7607(5)
O24 O 0.6490(4) 0.5968(6) 0.7548(6)
O25 O 0.8877(4) 0.8141(6) 0.7407(5)
O26 O 0.8018(3) 0.6657(4) 0.7530(3)
O27 O 0.8152(4) 0.4352(6) 0.2532(5)
O28 O 0.7950(3) 0.5875(4) 0.6586(4)
O29 O 0.7170(3) 0.5734(4) 0.6752(4)
O30 O 0.7332(4) 0.4303(5) 0.3301(4)
O31 O 0.6509(4) 0.4024(5) 0.3532(4)
O32 O 0.8868(3) 0.6709(4) 0.6766(5)
O33 O 0.8825(3) 0.7395(4) 0.6502(4)
O36 O 0.8728(3) 0.6635(4) 0.8517(5)
O37 O 0.8945(3) 0.7443(5) 0.8249(5)
O40 O 0.7831(3) 0.5756(4) 0.8310(4)
O41 O 0.7186(3) 0.5891(4) 0.8539(4)
C34 C 0.7472(6) 0.5651(9) 0.6423(6)
C35 C 0.73435(18) 0.53035(35) 0.5707(4)
C36 C 0.73527(16) 0.48577(34) 0.5782(3)
C37 C 0.72338(17) 0.45398(26) 0.5118(4)
C38 C 0.7106(3) 0.4664(4) 0.4380(4)
C39 C 0.7098(3) 0.5110(4) 0.4308(4)
C40 C 0.7215(3) 0.5430(4) 0.4971(5)
C41 C 0.6985(6) 0.4302(8) 0.3654(7)
C42 C 0.8958(5) 0.7102(8) 0.6354(6)
C43 C 0.9328(3) 0.72155(36) 0.5651(4)
C44 C 0.9157(2) 0.69672(27) 0.4915(5)
C45 C 0.9487(3) 0.70660(36) 0.4277(3)
C46 C 0.9992(3) 0.7416(4) 0.4368(4)
C48 C 0.9835(3) 0.7565(4) 0.5750(3)
C50 C 0.8952(6) 0.7093(8) 0.8655(8)
C51 C 0.9321(3) 0.7240(4) 0.9361(4)
C52 C 0.9765(3) 0.7229(4) 0.9285(3)
C58 C 0.7445(6) 0.5693(8) 0.8685(6)
C59 C 0.7323(2) 0.53380(28) 0.9418(4)
C63 C 0.6875(2) 0.4494(4) 0.9946(4)
C64 C 0.6976(3) 0.4832(4) 0.9313(3)
Fe9 Fe 0.37191(9) 0.20232(6) 0.75417(8)
Fe10 Fe 0.36622(10) 0.09189(7) 0.75249(8)
Fe11 Fe 0.26247(10) 0.10145(7) 0.74673(8)
Cl33 Cl 0.52887(25) 0.27958(18) 0.67053(16)
Cl34 Cl 0.60069(21) 0.32576(15) 0.52104(19)
Cl35 Cl 0.47575(25) 0.16901(17) 0.33886(18)
Cl36 Cl 0.40172(23) 0.12250(15) 0.48653(19)
Cl37 Cl 0.34651(18) 0.19984(14) 0.48153(18)
Cl38 Cl 0.32323(22) 0.25217(17) 0.33552(17)
Cl39 Cl 0.19137(21) 0.26952(16) 0.52300(18)
Cl40 Cl 0.21289(23) 0.21623(18) 0.66707(17)
Cl41 Cl 0.29291(24) 0.28409(19) 0.83684(19)
Cl42 Cl 0.26719(19) 0.33042(14) 0.98455(19)
Cl47 Cl 0.61334(22) 0.25827(16) 0.98277(19)
Cl48 Cl 0.53678(23) 0.20500(16) 0.83902(17)
O44 O 0.4117(7) 0.2797(4) 0.7607(5)
O45 O 0.4032(6) 0.0522(4) 0.7548(6)
O46 O 0.1859(6) 0.0736(4) 0.7407(5)
O47 O 0.3343(4) 0.1361(3) 0.7530(3)
O48 O 0.5648(6) 0.3800(4) 0.2532(5)
O49 O 0.4125(4) 0.2075(3) 0.6586(4)
O50 O 0.4266(4) 0.1436(3) 0.6752(4)
O51 O 0.5697(5) 0.3029(3) 0.3301(4)
O52 O 0.5976(5) 0.2485(3) 0.3532(4)
O53 O 0.3291(4) 0.2159(3) 0.6766(5)
O54 O 0.2605(4) 0.1430(3) 0.6502(4)
O55 O 0.2757(4) 0.3263(3) 0.3515(4)
O56 O 0.2048(4) 0.2516(3) 0.3327(4)
O57 O 0.3365(4) 0.2093(3) 0.8517(5)
O58 O 0.2557(5) 0.1502(4) 0.8249(5)
O61 O 0.4244(4) 0.2075(3) 0.8310(4)
O62 O 0.4109(4) 0.1295(3) 0.8539(4)
C66 C 0.4349(9) 0.1821(7) 0.6423(6)
C67 C 0.46965(35) 0.2040(3) 0.5707(4)
C68 C 0.51423(34) 0.2495(3) 0.5782(3)
C69 C 0.54602(26) 0.2694(2) 0.5118(4)
C70 C 0.5336(4) 0.2442(3) 0.4380(4)
C71 C 0.4890(4) 0.1988(3) 0.4308(4)
C72 C 0.4570(4) 0.1785(2) 0.4971(5)
C73 C 0.5698(8) 0.2683(6) 0.3654(7)
C74 C 0.2898(8) 0.1856(6) 0.6354(6)
C75 C 0.27845(36) 0.21125(19) 0.5651(4)
C76 C 0.30328(27) 0.21898(18) 0.4915(5)
C77 C 0.29340(36) 0.24210(19) 0.4277(3)
C78 C 0.2584(4) 0.2576(3) 0.4368(4)
C79 C 0.2336(4) 0.2501(3) 0.5106(4)
C80 C 0.2435(4) 0.2270(2) 0.5750(3)
C81 C 0.2448(6) 0.2806(5) 0.3676(6)
C82 C 0.2907(8) 0.1859(6) 0.8655(8)
C83 C 0.2760(4) 0.2081(3) 0.9361(4)
C84 C 0.2771(4) 0.2536(3) 0.9285(3)
C85 C 0.2655(3) 0.2739(2) 0.9948(5)
C90 C 0.4307(8) 0.1752(6) 0.8685(6)
C91 C 0.46620(28) 0.19850(19) 0.9418(4)
C95 C 0.5506(4) 0.2381(3) 0.9946(4)
C96 C 0.5168(4) 0.2144(3) 0.9313(3)
O65 O 0.3263(3) 0.0506(3) 0.6485(4)
O66 O 0.9494(3) 0.2757(4) 0.6485(4)
O67 O 0.7243(4) 0.6737(3) 0.6485(4)
O68 O 0.2516(3) 0.0468(3) 0.6673(4)
O69 O 0.9532(3) 0.2048(4) 0.6673(4)
O70 O 0.7952(4) 0.7484(3) 0.6673(4)
O71 O 0.2491(4) 0.0542(3) 0.8444(4)
O72 O 0.9458(3) 0.1949(5) 0.8444(4)
O73 O 0.8051(5) 0.7509(4) 0.8444(4)
O74 O 0.3082(4) 0.0357(3) 0.8281(4)
O75 O 0.9643(3) 0.2725(5) 0.8281(4)
O76 O 0.7275(5) 0.6918(4) 0.8281(4)
H1 H 0.709769 0.128771 0.818435
H2 H 0.707385 0.151051 0.730347
H3 H 0.947317 0.362921 0.81066
H4 H 0.982976 0.362912 0.738212
H5 H 0.912674 0.0906757 0.691906
H6 H 0.963533 0.131821 0.737102
H7 H 0.638359 0.177862 0.296137
H8 H 0.583423 0.164885 0.263902
H9 H 0.637079 0.584396 0.81066
H10 H 0.637088 0.620064 0.738212
H11 H 0.909324 0.821998 0.691906
H12 H 0.868179 0.831712 0.737102
H13 H 0.822089 0.460652 0.295835
H14 H 0.835104 0.418578 0.264352
H15 H 0.871229 0.580999 0.818435
H16 H 0.848949 0.556334 0.730347
H17 H 0.419001 0.290231 0.818435
H18 H 0.443666 0.292615 0.730347
H19 H 0.415604 0.0526828 0.81066
H20 H 0.379936 0.0170241 0.738212
H21 H 0.178002 0.087326 0.691906
H22 H 0.168288 0.0364667 0.737102
H23 H 0.539457 0.361579 0.296046
H24 H 0.58145 0.416562 0.264038
O17 O 0.7509(4) 0.9458(3) 0.1556(4)
O18 O 0.6918(4) 0.9643(3) 0.1719(4)
C25 C 0.7268(6) 0.9680(5) 0.1371(7)
Fe18 Fe 0.63378(10) 0.90811(7) 0.24751(8)
Fe24 Fe 0.73753(10) 0.89855(7) 0.25327(8)
Cl7 Cl 0.73048(16) 0.92185(13) 0.52300(18)
Cl8 Cl 0.78377(18) 0.99666(14) 0.66707(17)
Cl10 Cl 0.66958(14) 0.93677(13) 0.98455(19)
O13 O 0.6737(3) 0.9494(3) 0.3515(4)
O14 O 0.7484(3) 0.9532(3) 0.3327(4)
C15 C 0.7499(3) 0.9835(2) 0.5106(4)
C17 C 0.7194(5) 0.9642(4) 0.3676(6)
C21 C 0.7261(2) 0.9916(2) 0.9948(5)
Cl7_2 Cl 0.26952(16) 0.07815(13) 0.47700(18)
Cl8_2 Cl 0.21623(18) 0.00334(14) 0.33293(17)
Cl10_2 Cl 0.33042(14) 0.06323(13) 0.01545(19)
C15_2 C 0.2501(3) 0.0165(2) 0.4894(4)
C17_2 C 0.2806(5) 0.0358(4) 0.6324(6)
C21_2 C 0.2739(2) 0.0084(2) 0.0052(5)
C25_2 C 0.2732(6) 0.0320(5) 0.8629(7)
Fe1_2 Fe 0.20232(6) 0.83041(7) 0.24583(8)
Fe4 Fe 0.35675(7) 0.73725(7) 0.74646(9)
Cl1_2 Cl 0.27958(18) 0.75071(17) 0.32947(16)
Cl2_2 Cl 0.32576(15) 0.72507(15) 0.47896(19)
Cl3_2 Cl 0.16901(17) 0.69326(19) 0.66114(18)
Cl4_2 Cl 0.12250(15) 0.72078(17) 0.51347(19)
Cl5_2 Cl 0.19984(14) 0.85333(11) 0.51847(18)
Cl6_2 Cl 0.25217(17) 0.92894(14) 0.66448(17)
Cl9_2 Cl 0.28409(19) 0.99118(14) 0.16316(19)
Cl15_2 Cl 0.25827(16) 0.64493(15) 0.01723(19)
Cl16_2 Cl 0.20500(16) 0.66822(16) 0.16098(17)
O1_2 O 0.2797(4) 0.8680(6) 0.2393(5)
O2_2 O 0.0522(4) 0.6490(4) 0.2452(6)
O3_2 O 0.0736(4) 0.8877(4) 0.2593(5)
O4_2 O 0.1361(3) 0.8018(3) 0.2470(3)
O5_2 O 0.3800(4) 0.8152(4) 0.7468(5)
O6_2 O 0.3333 0.6667 0.7470(8)
O7_2 O 0.2075(3) 0.7950(3) 0.3414(4)
O8_2 O 0.1436(3) 0.7170(3) 0.3248(4)
O9_2 O 0.3029(3) 0.7332(4) 0.6699(4)
O10_2 O 0.2485(3) 0.6509(4) 0.6468(4)
O11_2 O 0.2159(3) 0.8868(3) 0.3234(5)
O12_2 O 0.1430(3) 0.8825(3) 0.3498(4)
O15_2 O 0.2093(3) 0.8728(3) 0.1483(5)
O16_2 O 0.1502(4) 0.8945(3) 0.1751(5)
O19_2 O 0.2075(3) 0.7831(3) 0.1690(4)
O20_2 O 0.1295(3) 0.7186(3) 0.1461(4)
C2_2 C 0.1821(7) 0.7472(6) 0.3577(6)
C3_2 C 0.2040(3) 0.73435(18) 0.4293(4)
C4_2 C 0.2495(3) 0.73527(16) 0.4218(3)
C5_2 C 0.2694(2) 0.72338(17) 0.4882(4)
C6_2 C 0.2442(3) 0.7106(3) 0.5620(4)
C7_2 C 0.1988(3) 0.7098(3) 0.5692(4)
C8_2 C 0.1785(2) 0.7215(3) 0.5029(5)
C9_2 C 0.2683(6) 0.6985(6) 0.6346(7)
C10_2 C 0.1856(6) 0.8958(5) 0.3646(6)
C11_2 C 0.21125(19) 0.9328(3) 0.4349(4)
C12_2 C 0.21898(18) 0.9157(2) 0.5085(5)
C13_2 C 0.24210(19) 0.9487(3) 0.5723(3)
C14_2 C 0.2576(3) 0.9992(3) 0.5632(4)
C16_2 C 0.2270(2) 0.9835(3) 0.4250(3)
C18_2 C 0.1859(6) 0.8952(6) 0.1345(8)
C19_2 C 0.2081(3) 0.9321(3) 0.0639(4)
C20_2 C 0.2536(3) 0.9765(3) 0.0715(3)
C26_2 C 0.1752(6) 0.7445(6) 0.1315(6)
C27_2 C 0.19850(19) 0.7323(2) 0.0582(4)
C31_2 C 0.2381(3) 0.6875(2) 0.0054(4)
C32_2 C 0.2144(3) 0.6976(3) 0.0687(3)
Fe5_2 Fe 0.16959(7) 0.37191(9) 0.24583(8)
Fe8 Fe 0.26275(7) 0.61950(10) 0.74646(9)
Cl17_2 Cl 0.24929(17) 0.52887(25) 0.32947(16)
Cl18_2 Cl 0.27493(15) 0.60069(21) 0.47896(19)
Cl19_2 Cl 0.30674(19) 0.47575(25) 0.66114(18)
Cl20_2 Cl 0.27922(17) 0.40172(23) 0.51347(19)
Cl21_2 Cl 0.14667(11) 0.34651(18) 0.51847(18)
Cl22_2 Cl 0.07106(14) 0.32323(22) 0.66448(17)
Cl25_2 Cl 0.00882(14) 0.29291(24) 0.16316(19)
Cl31_2 Cl 0.35507(15) 0.61334(22) 0.01723(19)
Cl32_2 Cl 0.33178(16) 0.53678(23) 0.16098(17)
O23_2 O 0.1320(6) 0.4117(7) 0.2393(5)
O24_2 O 0.3510(4) 0.4032(6) 0.2452(6)
O25_2 O 0.1123(4) 0.1859(6) 0.2593(5)
O26_2 O 0.1982(3) 0.3343(4) 0.2470(3)
O27_2 O 0.1848(4) 0.5648(6) 0.7468(5)
O28_2 O 0.2050(3) 0.4125(4) 0.3414(4)
O29_2 O 0.2830(3) 0.4266(4) 0.3248(4)
O30_2 O 0.2668(4) 0.5697(5) 0.6699(4)
O31_2 O 0.3491(4) 0.5976(5) 0.6468(4)
O32_2 O 0.1132(3) 0.3291(4) 0.3234(5)
O33_2 O 0.1175(3) 0.2605(4) 0.3498(4)
O36_2 O 0.1272(3) 0.3365(4) 0.1483(5)
O37_2 O 0.1055(3) 0.2557(5) 0.1751(5)
O40_2 O 0.2169(3) 0.4244(4) 0.1690(4)
O41_2 O 0.2814(3) 0.4109(4) 0.1461(4)
C34_2 C 0.2528(6) 0.4349(9) 0.3577(6)
C35_2 C 0.26565(18) 0.46965(35) 0.4293(4)
C36_2 C 0.26473(16) 0.51423(34) 0.4218(3)
C37_2 C 0.27662(17) 0.54602(26) 0.4882(4)
C38_2 C 0.2894(3) 0.5336(4) 0.5620(4)
C39_2 C 0.2902(3) 0.4890(4) 0.5692(4)
C40_2 C 0.2785(3) 0.4570(4) 0.5029(5)
C41_2 C 0.3015(6) 0.5698(8) 0.6346(7)
C42_2 C 0.1042(5) 0.2898(8) 0.3646(6)
C43_2 C 0.0672(3) 0.27845(36) 0.4349(4)
C44_2 C 0.0843(2) 0.30328(27) 0.5085(5)
C45_2 C 0.0513(3) 0.29340(36) 0.5723(3)
C46_2 C 0.0008(3) 0.2584(4) 0.5632(4)
C48_2 C 0.0165(3) 0.2435(4) 0.4250(3)
C50_2 C 0.1048(6) 0.2907(8) 0.1345(8)
C51_2 C 0.0679(3) 0.2760(4) 0.0639(4)
C52_2 C 0.0235(3) 0.2771(4) 0.0715(3)
C58_2 C 0.2555(6) 0.4307(8) 0.1315(6)
C59_2 C 0.2677(2) 0.46620(28) 0.0582(4)
C63_2 C 0.3125(2) 0.5506(4) 0.0054(4)
C64_2 C 0.3024(3) 0.5168(4) 0.0687(3)
Fe9_2 Fe 0.62809(9) 0.79768(6) 0.24583(8)
Fe12 Fe 0.38050(10) 0.64325(7) 0.74646(9)
Cl33_2 Cl 0.47113(25) 0.72042(18) 0.32947(16)
Cl34_2 Cl 0.39931(21) 0.67424(15) 0.47896(19)
Cl35_2 Cl 0.52425(25) 0.83099(17) 0.66114(18)
Cl36_2 Cl 0.59828(23) 0.87750(15) 0.51347(19)
Cl37_2 Cl 0.65349(18) 0.80016(14) 0.51847(18)
Cl38_2 Cl 0.67677(22) 0.74783(17) 0.66448(17)
Cl39_2 Cl 0.80863(21) 0.73048(16) 0.47700(18)
Cl40_2 Cl 0.78711(23) 0.78377(18) 0.33293(17)
Cl41_2 Cl 0.70709(24) 0.71591(19) 0.16316(19)
Cl42_2 Cl 0.73281(19) 0.66958(14) 0.01545(19)
Cl47_2 Cl 0.38666(22) 0.74173(16) 0.01723(19)
Cl48_2 Cl 0.46322(23) 0.79500(16) 0.16098(17)
O44_2 O 0.5883(7) 0.7203(4) 0.2393(5)
O45_2 O 0.5968(6) 0.9478(4) 0.2452(6)
O46_2 O 0.8141(6) 0.9264(4) 0.2593(5)
O47_2 O 0.6657(4) 0.8639(3) 0.2470(3)
O48_2 O 0.4352(6) 0.6200(4) 0.7468(5)
O49_2 O 0.5875(4) 0.7925(3) 0.3414(4)
O50_2 O 0.5734(4) 0.8564(3) 0.3248(4)
O51_2 O 0.4303(5) 0.6971(3) 0.6699(4)
O52_2 O 0.4024(5) 0.7515(3) 0.6468(4)
O53_2 O 0.6709(4) 0.7841(3) 0.3234(5)
O54_2 O 0.7395(4) 0.8570(3) 0.3498(4)
O57_2 O 0.6635(4) 0.7907(3) 0.1483(5)
O58_2 O 0.7443(5) 0.8498(4) 0.1751(5)
O61_2 O 0.5756(4) 0.7925(3) 0.1690(4)
O62_2 O 0.5891(4) 0.8705(3) 0.1461(4)
C66_2 C 0.5651(9) 0.8179(7) 0.3577(6)
C67_2 C 0.53035(35) 0.7960(3) 0.4293(4)
C68_2 C 0.48577(34) 0.7505(3) 0.4218(3)
C69_2 C 0.45398(26) 0.7306(2) 0.4882(4)
C70_2 C 0.4664(4) 0.7558(3) 0.5620(4)
C71_2 C 0.5110(4) 0.8012(3) 0.5692(4)
C72_2 C 0.5430(4) 0.8215(2) 0.5029(5)
C73_2 C 0.4302(8) 0.7317(6) 0.6346(7)
C74_2 C 0.7102(8) 0.8144(6) 0.3646(6)
C75_2 C 0.72155(36) 0.78875(19) 0.4349(4)
C76_2 C 0.69672(27) 0.78102(18) 0.5085(5)
C77_2 C 0.70660(36) 0.75790(19) 0.5723(3)
C78_2 C 0.7416(4) 0.7424(3) 0.5632(4)
C79_2 C 0.7664(4) 0.7499(3) 0.4894(4)
C80_2 C 0.7565(4) 0.7730(2) 0.4250(3)
C81_2 C 0.7552(6) 0.7194(5) 0.6324(6)
C82_2 C 0.7093(8) 0.8141(6) 0.1345(8)
C83_2 C 0.7240(4) 0.7919(3) 0.0639(4)
C84_2 C 0.7229(4) 0.7464(3) 0.0715(3)
C85_2 C 0.7345(3) 0.7261(2) 0.0052(5)
C90_2 C 0.5693(8) 0.8248(6) 0.1315(6)
C91_2 C 0.53380(28) 0.80150(19) 0.0582(4)
C95_2 C 0.4494(4) 0.7619(3) 0.0054(4)
C96_2 C 0.4832(4) 0.7856(3) 0.0687(3)
O77 O 0.3146(3) 0.7333(3) 0.8484(5)
O78 O 0.2667(3) 0.5813(4) 0.8484(5)
O79 O 0.4187(4) 0.6854(3) 0.8484(5)
O80 O 0.2439(4) 0.6624(4) 0.8260(5)
O81 O 0.3376(4) 0.5815(6) 0.8260(5)
O82 O 0.4185(6) 0.7561(4) 0.8260(5)
H1_2 H 0.290231 0.871229 0.181565
H2_2 H 0.292615 0.848949 0.269653
H3_2 H 0.0526828 0.637079 0.18934
H4_2 H 0.0170241 0.637088 0.261788
H5_2 H 0.087326 0.909324 0.308094
H6_2 H 0.0364667 0.868179 0.262898
H7_2 H 0.361641 0.822138 0.703863
H8_2 H 0.416577 0.835115 0.736098
H9_2 H 0.362921 0.415604 0.18934
H10_2 H 0.362912 0.379936 0.261788
H11_2 H 0.0906757 0.178002 0.308094
H12_2 H 0.131821 0.168288 0.262898
H13_2 H 0.177911 0.539348 0.704165
H14_2 H 0.164896 0.581422 0.735648
H15_2 H 0.128771 0.419001 0.181565
H16_2 H 0.151051 0.443666 0.269653
H17_2 H 0.580999 0.709769 0.181565
H18_2 H 0.556334 0.707385 0.269653
H19_2 H 0.584396 0.947317 0.18934
H20_2 H 0.620064 0.982976 0.261788
H21_2 H 0.821998 0.912674 0.308094
H22_2 H 0.831712 0.963533 0.262898
H23_2 H 0.460543 0.638421 0.703954
H24_2 H 0.41855 0.583438 0.735962
Cl11_2 Cl 0.17231(17) 0.93668(15) 0.83123(17)
Cl12_2 Cl 0.12639(14) 0.86455(12) 0.98028(17)
Cl13_2 Cl 0.18611(14) 0.79886(14) 0.97224(18)
Cl14_2 Cl 0.23864(16) 0.77604(16) 0.82875(16)
C1_2 C 0.2713(6) 0.7034(5) 0.8617(7)
C22_2 C 0.2486(3) 0.9959(3) 0.9311(4)
C23_2 C 0.2031(3) 0.9514(3) 0.9236(4)
C24_2 C 0.1829(2) 0.9195(2) 0.9904(5)
C28_2 C 0.20595(18) 0.75653(19) 0.9840(4)
C29_2 C 0.22933(19) 0.7464(2) 0.9206(3)
C30_2 C 0.2455(3) 0.7119(3) 0.9312(4)
Cl27_2 Cl 0.06332(15) 0.23563(23) 0.83123(17)
Cl28_2 Cl 0.13545(12) 0.26184(18) 0.98028(17)
Cl29_2 Cl 0.20114(14) 0.38725(20) 0.97224(18)
Cl30_2 Cl 0.22396(16) 0.46260(23) 0.82875(16)
C33_2 C 0.2966(5) 0.5679(8) 0.8617(7)
C54_2 C 0.0041(3) 0.2527(4) 0.9311(4)
C55_2 C 0.0486(3) 0.2517(4) 0.9236(4)
C56_2 C 0.0805(2) 0.2634(3) 0.9904(5)
C60_2 C 0.24347(19) 0.44942(26) 0.9840(4)
C61_2 C 0.2536(2) 0.48293(28) 0.9206(3)
C62_2 C 0.2881(3) 0.5336(4) 0.9312(4)
Cl43_2 Cl 0.76437(23) 0.82769(17) 0.83123(17)
Cl44_2 Cl 0.73816(18) 0.87361(14) 0.98028(17)
Cl45_2 Cl 0.61275(20) 0.81389(14) 0.97224(18)
Cl46_2 Cl 0.53740(23) 0.76136(16) 0.82875(16)
C65_2 C 0.4321(8) 0.7287(6) 0.8617(7)
C86_2 C 0.7473(4) 0.7514(3) 0.9311(4)
C87_2 C 0.7483(4) 0.7969(3) 0.9236(4)
C88_2 C 0.7366(3) 0.8171(2) 0.9904(5)
C89_2 C 0.7588(8) 0.7268(6) 0.8629(7)
C92_2 C 0.55058(26) 0.79405(18) 0.9840(4)
C93_2 C 0.51707(28) 0.77067(19) 0.9206(3)
C94_2 C 0.4664(4) 0.7545(3) 0.9312(4)
Cl23_2 Cl 0.92185(13) 0.19137(21) 0.47700(18)
Cl24_2 Cl 0.99666(14) 0.21289(23) 0.33293(17)
Cl26_2 Cl 0.93677(13) 0.26719(19) 0.01545(19)
C47_2 C 0.9835(2) 0.2336(4) 0.4894(4)
C49_2 C 0.9642(4) 0.2448(6) 0.6324(6)
C53_2 C 0.9916(2) 0.2655(3) 0.0052(5)
C57_2 C 0.9680(5) 0.2412(8) 0.8629(7)
loop_
_geom_bond_atom_site_label_1
_geom_bond_atom_site_label_2
_geom_bond_site_symmetry_1
_geom_bond_site_symmetry_2
O38 C57 1_555 1_555
O39 C57 1_555 1_555
Fe14 O39 1_555 1_555
Fe20 O38 1_555 1_555
Cl23 C47 1_555 1_555
Cl26 C53 1_555 1_555
O34 C49 1_555 1_555
O35 C49 1_555 1_555
Fe14 O34 1_555 1_555
Fe20 O35 1_555 1_555
Cl11 C23 1_555 1_555
Cl12 C24 1_555 1_555
Cl13 C28 1_555 1_555
Cl14 C29 1_555 1_555
O21 C1 1_555 1_555
O22 C1 1_555 1_555
C1 C30 1_555 1_555
C23 C22 1_555 1_555
C29 C28 1_555 1_555
C30 C29 1_555 1_555
Cl27 C55 1_555 1_555
Cl28 C56 1_555 1_555
Cl29 C60 1_555 1_555
Cl30 C61 1_555 1_555
O42 C33 1_555 1_555
O43 C33 1_555 1_555
C33 C62 1_555 1_555
C55 C54 1_555 1_555
C61 C60 1_555 1_555
C62 C61 1_555 1_555
Cl43 C87 1_555 1_555
Cl44 C88 1_555 1_555
Cl45 C92 1_555 1_555
Cl46 C93 1_555 1_555
O59 C89 1_555 1_555
O60 C89 1_555 1_555
O63 C65 1_555 1_555
O64 C65 1_555 1_555
C65 C94 1_555 1_555
C87 C86 1_555 1_555
C89 C86 1_555 1_555
C93 C92 1_555 1_555
C94 C93 1_555 1_555
Fe16 O60 1_555 1_555
Fe22 O59 1_555 1_555
Fe25 O21 1_555 1_555
Fe26 O22 1_555 1_555
Fe27 O43 1_555 1_555
C23 C24 1_555 1_555
O42 Fe26 1_555 1_555
C55 C56 1_555 1_555
O63 Fe27 1_555 1_555
O64 Fe25 1_555 1_555
C87 C88 1_555 1_555
Fe1 O1 1_555 1_555
Fe2 O2 1_555 1_555
Fe3 O3 1_555 1_555
Fe25 O5 1_555 1_555
Cl1 C4 1_555 1_555
Cl2 C5 1_555 1_555
Cl3 C7 1_555 1_555
Cl4 C8 1_555 1_555
Cl5 C12 1_555 1_555
Cl6 C13 1_555 1_555
Cl9 C20 1_555 1_555
Cl15 C31 1_555 1_555
Cl16 C32 1_555 1_555
O4 Fe1 1_555 1_555
O6 Fe25 1_555 1_555
O7 Fe1 1_555 1_555
O8 Fe2 1_555 1_555
O9 Fe25 1_555 1_555
O10 C9 1_555 1_555
O11 Fe1 1_555 1_555
O12 Fe3 1_555 1_555
O15 Fe1 1_555 1_555
O16 Fe3 1_555 1_555
O19 Fe1 1_555 1_555
O20 Fe2 1_555 1_555
C2 O7 1_555 1_555
C3 C2 1_555 1_555
C4 C3 1_555 1_555
C5 C4 1_555 1_555
C6 C5 1_555 1_555
C7 C6 1_555 1_555
C8 C3 1_555 1_555
C9 O9 1_555 1_555
C10 O11 1_555 1_555
C11 C10 1_555 1_555
C12 C11 1_555 1_555
C13 C12 1_555 1_555
C14 C13 1_555 1_555
C16 C11 1_555 1_555
C18 O15 1_555 1_555
C19 C18 1_555 1_555
C20 C19 1_555 1_555
C26 O19 1_555 1_555
C27 C26 1_555 1_555
C32 C27 1_555 1_555
Fe5 O23 1_555 1_555
Fe6 O24 1_555 1_555
Fe7 O25 1_555 1_555
Fe26 O6 1_555 1_555
Cl17 C36 1_555 1_555
Cl18 C37 1_555 1_555
Cl19 C39 1_555 1_555
Cl20 C40 1_555 1_555
Cl21 C44 1_555 1_555
Cl22 C45 1_555 1_555
Cl25 C52 1_555 1_555
Cl31 C63 1_555 1_555
Cl32 C64 1_555 1_555
O26 Fe5 1_555 1_555
O27 Fe26 1_555 1_555
O28 Fe5 1_555 1_555
O29 Fe6 1_555 1_555
O30 Fe26 1_555 1_555
O31 C41 1_555 1_555
O32 Fe5 1_555 1_555
O33 Fe7 1_555 1_555
O36 Fe5 1_555 1_555
O37 Fe7 1_555 1_555
O40 Fe5 1_555 1_555
O41 Fe6 1_555 1_555
C34 O28 1_555 1_555
C35 C34 1_555 1_555
C36 C35 1_555 1_555
C37 C36 1_555 1_555
C38 C37 1_555 1_555
C39 C38 1_555 1_555
C40 C35 1_555 1_555
C41 O30 1_555 1_555
C42 O32 1_555 1_555
C43 C42 1_555 1_555
C44 C43 1_555 1_555
C45 C44 1_555 1_555
C46 C45 1_555 1_555
C48 C43 1_555 1_555
C50 O36 1_555 1_555
C51 C50 1_555 1_555
C52 C51 1_555 1_555
C58 O40 1_555 1_555
C59 C58 1_555 1_555
C64 C59 1_555 1_555
Fe9 O44 1_555 1_555
Fe10 O45 1_555 1_555
Fe11 O46 1_555 1_555
Fe27 O6 1_555 1_555
Cl33 C68 1_555 1_555
Cl34 C69 1_555 1_555
Cl35 C71 1_555 1_555
Cl36 C72 1_555 1_555
Cl37 C76 1_555 1_555
Cl38 C77 1_555 1_555
Cl39 C79 1_555 1_555
Cl40 C80 1_555 1_555
Cl41 C84 1_555 1_555
Cl42 C85 1_555 1_555
Cl47 C95 1_555 1_555
Cl48 C96 1_555 1_555
O47 Fe9 1_555 1_555
O48 Fe27 1_555 1_555
O49 Fe9 1_555 1_555
O50 Fe10 1_555 1_555
O51 Fe27 1_555 1_555
O52 Fe25 1_555 1_555
O53 Fe9 1_555 1_555
O54 Fe11 1_555 1_555
O55 C81 1_555 1_555
O56 C81 1_555 1_555
O57 Fe9 1_555 1_555
O58 Fe11 1_555 1_555
O61 Fe9 1_555 1_555
O62 Fe10 1_555 1_555
C66 O49 1_555 1_555
C67 C66 1_555 1_555
C68 C67 1_555 1_555
C69 C68 1_555 1_555
C70 C69 1_555 1_555
C71 C70 1_555 1_555
C72 C67 1_555 1_555
C73 O51 1_555 1_555
C74 O53 1_555 1_555
C75 C74 1_555 1_555
C76 C75 1_555 1_555
C77 C76 1_555 1_555
C78 C77 1_555 1_555
C79 C78 1_555 1_555
C80 C75 1_555 1_555
C81 C78 1_555 1_555
C82 O57 1_555 1_555
C83 C82 1_555 1_555
C84 C83 1_555 1_555
C85 C84 1_555 1_555
C90 O61 1_555 1_555
C91 C90 1_555 1_555
C96 C91 1_555 1_555
Fe16 O55 1_555 1_555
Fe22 O56 1_555 1_555
O65 Fe10 1_555 1_555
O66 Fe2 1_555 1_555
O67 Fe6 1_555 1_555
O68 Fe11 1_555 1_555
O69 Fe3 1_555 1_555
O70 Fe7 1_555 1_555
O71 Fe11 1_555 1_555
O72 Fe3 1_555 1_555
O73 Fe7 1_555 1_555
O74 Fe10 1_555 1_555
O75 Fe2 1_555 1_555
O76 Fe6 1_555 1_555
Fe2 O4 1_555 1_555
Fe3 O4 1_555 1_555
O8 C2 1_555 1_555
O10 Fe26 1_555 1_555
O12 C10 1_555 1_555
O16 C18 1_555 1_555
O20 C26 1_555 1_555
C6 C9 1_555 1_555
C7 C8 1_555 1_555
C31 C32 1_555 1_555
Fe6 O26 1_555 1_555
Fe7 O26 1_555 1_555
O29 C34 1_555 1_555
O31 Fe27 1_555 1_555
O33 C42 1_555 1_555
O37 C50 1_555 1_555
O41 C58 1_555 1_555
C38 C41 1_555 1_555
C39 C40 1_555 1_555
C63 C64 1_555 1_555
Fe10 O47 1_555 1_555
Fe11 O47 1_555 1_555
O50 C66 1_555 1_555
O52 C73 1_555 1_555
O54 C74 1_555 1_555
O58 C82 1_555 1_555
O62 C90 1_555 1_555
C70 C73 1_555 1_555
C71 C72 1_555 1_555
C79 C80 1_555 1_555
C95 C96 1_555 1_555
O1 H1 1_555 1_555
O1 H2 1_555 1_555
O2 H3 1_555 1_555
O2 H4 1_555 1_555
O3 H5 1_555 1_555
O3 H6 1_555 1_555
O5 H7 1_555 1_555
O5 H8 1_555 1_555
O24 H9 1_555 1_555
O24 H10 1_555 1_555
O25 H11 1_555 1_555
O25 H12 1_555 1_555
O27 H13 1_555 1_555
O27 H14 1_555 1_555
O23 H15 1_555 1_555
O23 H16 1_555 1_555
O44 H17 1_555 1_555
O44 H18 1_555 1_555
O45 H19 1_555 1_555
O45 H20 1_555 1_555
O46 H21 1_555 1_555
O46 H22 1_555 1_555
O48 H23 1_555 1_555
O48 H24 1_555 1_555
O17 C25 1_555 1_555
O18 C25 1_555 1_555
Fe18 O18 1_555 1_555
Fe24 O17 1_555 1_555
Cl7 C15 1_555 1_555
Cl10 C21 1_555 1_555
O13 C17 1_555 1_555
O14 C17 1_555 1_555
Fe18 O13 1_555 1_555
Fe24 O14 1_555 1_555
Cl7_2 C15_2 1_555 1_555
Cl10_2 C21_2 1_555 1_555
O65 C17_2 1_555 1_555
O68 C17_2 1_555 1_555
O71 C25_2 1_555 1_555
O74 C25_2 1_555 1_555
Fe1_2 O1_2 1_555 1_555
Fe14 O2_2 1_555 1_555
Fe20 O3_2 1_555 1_555
Fe4 O5_2 1_555 1_555
Cl1_2 C4_2 1_555 1_555
Cl2_2 C5_2 1_555 1_555
Cl3_2 C7_2 1_555 1_555
Cl4_2 C8_2 1_555 1_555
Cl5_2 C12_2 1_555 1_555
Cl6_2 C13_2 1_555 1_555
Cl9_2 C20_2 1_555 1_555
Cl15_2 C31_2 1_555 1_555
Cl16_2 C32_2 1_555 1_555
O4_2 Fe1_2 1_555 1_555
O6_2 Fe4 1_555 1_555
O7_2 Fe1_2 1_555 1_555
O8_2 Fe14 1_555 1_555
O9_2 Fe4 1_555 1_555
O10_2 C9_2 1_555 1_555
O11_2 Fe1_2 1_555 1_555
O12_2 Fe20 1_555 1_555
O15_2 Fe1_2 1_555 1_555
O16_2 Fe20 1_555 1_555
O19_2 Fe1_2 1_555 1_555
O20_2 Fe14 1_555 1_555
C2_2 O7_2 1_555 1_555
C3_2 C2_2 1_555 1_555
C4_2 C3_2 1_555 1_555
C5_2 C4_2 1_555 1_555
C6_2 C5_2 1_555 1_555
C7_2 C6_2 1_555 1_555
C8_2 C3_2 1_555 1_555
C9_2 O9_2 1_555 1_555
C10_2 O11_2 1_555 1_555
C11_2 C10_2 1_555 1_555
C12_2 C11_2 1_555 1_555
C13_2 C12_2 1_555 1_555
C14_2 C13_2 1_555 1_555
C16_2 C11_2 1_555 1_555
C18_2 O15_2 1_555 1_555
C19_2 C18_2 1_555 1_555
C20_2 C19_2 1_555 1_555
C26_2 O19_2 1_555 1_555
C27_2 C26_2 1_555 1_555
C32_2 C27_2 1_555 1_555
Fe5_2 O23_2 1_555 1_555
Fe16 O24_2 1_555 1_555
Fe22 O25_2 1_555 1_555
Fe8 O6_2 1_555 1_555
Cl17_2 C36_2 1_555 1_555
Cl18_2 C37_2 1_555 1_555
Cl19_2 C39_2 1_555 1_555
Cl20_2 C40_2 1_555 1_555
Cl21_2 C44_2 1_555 1_555
Cl22_2 C45_2 1_555 1_555
Cl25_2 C52_2 1_555 1_555
Cl31_2 C63_2 1_555 1_555
Cl32_2 C64_2 1_555 1_555
O26_2 Fe5_2 1_555 1_555
O27_2 Fe8 1_555 1_555
O28_2 Fe5_2 1_555 1_555
O29_2 Fe16 1_555 1_555
O30_2 Fe8 1_555 1_555
O31_2 C41_2 1_555 1_555
O32_2 Fe5_2 1_555 1_555
O33_2 Fe22 1_555 1_555
O36_2 Fe5_2 1_555 1_555
O37_2 Fe22 1_555 1_555
O40_2 Fe5_2 1_555 1_555
O41_2 Fe16 1_555 1_555
C34_2 O28_2 1_555 1_555
C35_2 C34_2 1_555 1_555
C36_2 C35_2 1_555 1_555
C37_2 C36_2 1_555 1_555
C38_2 C37_2 1_555 1_555
C39_2 C38_2 1_555 1_555
C40_2 C35_2 1_555 1_555
C41_2 O30_2 1_555 1_555
C42_2 O32_2 1_555 1_555
C43_2 C42_2 1_555 1_555
C44_2 C43_2 1_555 1_555
C45_2 C44_2 1_555 1_555
C46_2 C45_2 1_555 1_555
C48_2 C43_2 1_555 1_555
C50_2 O36_2 1_555 1_555
C51_2 C50_2 1_555 1_555
C52_2 C51_2 1_555 1_555
C58_2 O40_2 1_555 1_555
C59_2 C58_2 1_555 1_555
C64_2 C59_2 1_555 1_555
Fe9_2 O44_2 1_555 1_555
Fe18 O45_2 1_555 1_555
Fe24 O46_2 1_555 1_555
Fe12 O6_2 1_555 1_555
Cl33_2 C68_2 1_555 1_555
Cl34_2 C69_2 1_555 1_555
Cl35_2 C71_2 1_555 1_555
Cl36_2 C72_2 1_555 1_555
Cl37_2 C76_2 1_555 1_555
Cl38_2 C77_2 1_555 1_555
Cl39_2 C79_2 1_555 1_555
Cl40_2 C80_2 1_555 1_555
Cl41_2 C84_2 1_555 1_555
Cl42_2 C85_2 1_555 1_555
Cl47_2 C95_2 1_555 1_555
Cl48_2 C96_2 1_555 1_555
O47_2 Fe9_2 1_555 1_555
O48_2 Fe12 1_555 1_555
O49_2 Fe9_2 1_555 1_555
O50_2 Fe18 1_555 1_555
O51_2 Fe12 1_555 1_555
O52_2 Fe4 1_555 1_555
O53_2 Fe9_2 1_555 1_555
O54_2 Fe24 1_555 1_555
O67 C81_2 1_555 1_555
O70 C81_2 1_555 1_555
O57_2 Fe9_2 1_555 1_555
O58_2 Fe24 1_555 1_555
O61_2 Fe9_2 1_555 1_555
O62_2 Fe18 1_555 1_555
C66_2 O49_2 1_555 1_555
C67_2 C66_2 1_555 1_555
C68_2 C67_2 1_555 1_555
C69_2 C68_2 1_555 1_555
C70_2 C69_2 1_555 1_555
C71_2 C70_2 1_555 1_555
C72_2 C67_2 1_555 1_555
C73_2 O51_2 1_555 1_555
C74_2 O53_2 1_555 1_555
C75_2 C74_2 1_555 1_555
C76_2 C75_2 1_555 1_555
C77_2 C76_2 1_555 1_555
C78_2 C77_2 1_555 1_555
C79_2 C78_2 1_555 1_555
C80_2 C75_2 1_555 1_555
C81_2 C78_2 1_555 1_555
C82_2 O57_2 1_555 1_555
C83_2 C82_2 1_555 1_555
C84_2 C83_2 1_555 1_555
C85_2 C84_2 1_555 1_555
C90_2 O61_2 1_555 1_555
C91_2 C90_2 1_555 1_555
C96_2 C91_2 1_555 1_555
O77 Fe4 1_555 1_555
O78 Fe8 1_555 1_555
O79 Fe12 1_555 1_555
O80 Fe8 1_555 1_555
O81 Fe12 1_555 1_555
O82 Fe4 1_555 1_555
Fe14 O4_2 1_555 1_555
Fe20 O4_2 1_555 1_555
O8_2 C2_2 1_555 1_555
O10_2 Fe8 1_555 1_555
O12_2 C10_2 1_555 1_555
O16_2 C18_2 1_555 1_555
O20_2 C26_2 1_555 1_555
C6_2 C9_2 1_555 1_555
C7_2 C8_2 1_555 1_555
C31_2 C32_2 1_555 1_555
Fe16 O26_2 1_555 1_555
Fe22 O26_2 1_555 1_555
O29_2 C34_2 1_555 1_555
O31_2 Fe12 1_555 1_555
O33_2 C42_2 1_555 1_555
O37_2 C50_2 1_555 1_555
O41_2 C58_2 1_555 1_555
C38_2 C41_2 1_555 1_555
C39_2 C40_2 1_555 1_555
C63_2 C64_2 1_555 1_555
Fe18 O47_2 1_555 1_555
Fe24 O47_2 1_555 1_555
O50_2 C66_2 1_555 1_555
O52_2 C73_2 1_555 1_555
O54_2 C74_2 1_555 1_555
O58_2 C82_2 1_555 1_555
O62_2 C90_2 1_555 1_555
C70_2 C73_2 1_555 1_555
C71_2 C72_2 1_555 1_555
C79_2 C80_2 1_555 1_555
C95_2 C96_2 1_555 1_555
O1_2 H1_2 1_555 1_555
O1_2 H2_2 1_555 1_555
O2_2 H3_2 1_555 1_555
O2_2 H4_2 1_555 1_555
O3_2 H5_2 1_555 1_555
O3_2 H6_2 1_555 1_555
O5_2 H7_2 1_555 1_555
O5_2 H8_2 1_555 1_555
O24_2 H9_2 1_555 1_555
O24_2 H10_2 1_555 1_555
O25_2 H11_2 1_555 1_555
O25_2 H12_2 1_555 1_555
O27_2 H13_2 1_555 1_555
O27_2 H14_2 1_555 1_555
O23_2 H15_2 1_555 1_555
O23_2 H16_2 1_555 1_555
O44_2 H17_2 1_555 1_555
O44_2 H18_2 1_555 1_555
O45_2 H19_2 1_555 1_555
O45_2 H20_2 1_555 1_555
O46_2 H21_2 1_555 1_555
O46_2 H22_2 1_555 1_555
O48_2 H23_2 1_555 1_555
O48_2 H24_2 1_555 1_555
Cl11_2 C23_2 1_555 1_555
Cl12_2 C24_2 1_555 1_555
Cl13_2 C28_2 1_555 1_555
Cl14_2 C29_2 1_555 1_555
O77 C1_2 1_555 1_555
O80 C1_2 1_555 1_555
C1_2 C30_2 1_555 1_555
C23_2 C22_2 1_555 1_555
C29_2 C28_2 1_555 1_555
C30_2 C29_2 1_555 1_555
Cl27_2 C55_2 1_555 1_555
Cl28_2 C56_2 1_555 1_555
Cl29_2 C60_2 1_555 1_555
Cl30_2 C61_2 1_555 1_555
O78 C33_2 1_555 1_555
O81 C33_2 1_555 1_555
C33_2 C62_2 1_555 1_555
C55_2 C54_2 1_555 1_555
C61_2 C60_2 1_555 1_555
C62_2 C61_2 1_555 1_555
Cl43_2 C87_2 1_555 1_555
Cl44_2 C88_2 1_555 1_555
Cl45_2 C92_2 1_555 1_555
Cl46_2 C93_2 1_555 1_555
O73 C89_2 1_555 1_555
O76 C89_2 1_555 1_555
O79 C65_2 1_555 1_555
O82 C65_2 1_555 1_555
C65_2 C94_2 1_555 1_555
C87_2 C86_2 1_555 1_555
C89_2 C86_2 1_555 1_555
C93_2 C92_2 1_555 1_555
C94_2 C93_2 1_555 1_555
C23_2 C24_2 1_555 1_555
C55_2 C56_2 1_555 1_555
C87_2 C88_2 1_555 1_555
Cl23_2 C47_2 1_555 1_555
Cl26_2 C53_2 1_555 1_555
O66 C49_2 1_555 1_555
O69 C49_2 1_555 1_555
O72 C57_2 1_555 1_555
O75 C57_2 1_555 1_555

#END
