
###############################################################################
#
# This file contains modified crystal structure data generated from the
# MOF subset of the Cambridge Structural Database (CSD) v543 
# hosted by the Cambridge Crystallographic Data Centre (CCDC).
#
# This work is licensed under the Creative Commons
# Attribution-NonCommercial-ShareAlike 4.0 International License.
# To view a copy of this license, visit
# http://creativecommons.org/licenses/by-nc-sa/4.0/
# or send a letter to
# Creative Commons, PO Box 1866, Mountain View, CA 94042, USA.
#
# CIF created using the CSD Python API on 29 September 2022
# The structure has been converted into the P1 space group
# The structure has a 3D framework
# The original CSD entry LARXUA is in the cubic crystal system
# The framework has been calculated to contain at least 10.0% void space
# The void calculation uses a probe of radius 1.32A, grid spacing 0.4
# H atom positions have been added when not included in the experimental data
# Generated hydrogen atom positions removed from atoms on special positions
#
###############################################################################

data_LARXUA
_chemical_formula_moiety         '(C528 H528 Cu24 O100)n'
_symmetry_cell_setting           triclinic
_symmetry_space_group_name_H-M   'P 1'
_symmetry_Int_Tables_number      1
_space_group_name_Hall           'P 1'
loop_
_symmetry_equiv_pos_site_id
_symmetry_equiv_pos_as_xyz
1 x,y,z
_cell_length_a                   33.3261(5)
_cell_length_b                   33.3261(5)
_cell_length_c                   33.3261(5)
_cell_angle_alpha                90
_cell_angle_beta                 90
_cell_angle_gamma                90
_cell_volume                     37012.9
loop_
_atom_site_label
_atom_site_type_symbol
_atom_site_fract_x
_atom_site_fract_y
_atom_site_fract_z
O4 O 0.20210(14) 0.0386(2) 0.78227(16)
C18 C 0.0767(2) 0.01225(14) 0.87057(16)
H11 H 0.0861 0.0374 0.8628
C19 C 0.04363(19) 0.00921(16) 0.89577(16)
H12 H 0.0308 0.0323 0.9048
C21 C 0.15134(19) 0.0066(2) 0.8178(2)
H14 H 0.1417 0.0321 0.8239
C22 C 0.1901(2) 0.0039(2) 0.7910(2)
Cu3 Cu 0.2500 0.04002(7) 0.7500
O15 O 0.2500 0.1125(3) 0.7500
O16 O 0.29790(14) 0.0386(2) 0.71773(16)
O19 O 0.21646(13) 0.03112(17) 0.69999(12)
O20 O 0.28354(13) 0.03112(17) 0.80001(12)
Cu1 Cu 0.04002(7) 0.7500 0.2500
O1 O 0.0386(2) 0.78227(16) 0.20210(14)
O3 O 0.1125(3) 0.7500 0.2500
C7 C 0.01225(14) 0.87057(16) 0.0767(2)
H4 H 0.0374 0.8628 0.0861
C8 C 0.00921(16) 0.89577(16) 0.04363(19)
H5 H 0.0323 0.9048 0.0308
C10 C 0.0066(2) 0.8178(2) 0.15134(19)
H7 H 0.0321 0.8239 0.1417
C11 C 0.0039(2) 0.7910(2) 0.1901(2)
O8 O 0.0386(2) 0.71773(16) 0.29790(14)
C40 C 0.01225(14) 0.62943(16) 0.4233(2)
H25 H 0.0374 0.6372 0.4139
C41 C 0.00921(16) 0.60423(16) 0.45637(19)
H26 H 0.0323 0.5952 0.4692
C43 C 0.0066(2) 0.6822(2) 0.34866(19)
H28 H 0.0321 0.6761 0.3583
C44 C 0.0039(2) 0.7090(2) 0.3099(2)
O10 O 0.20210(14) 0.4614(2) 0.71773(16)
O11 O 0.19999(12) 0.53112(17) 0.71646(13)
H29 H 0.0179 0.5809 0.5372
C47 C 0.02966(11) 0.5283(2) 0.59258(12)
C48 C 0.0488(2) 0.56282(14) 0.60613(16)
H30 H 0.0395 0.5879 0.5983
C49 C 0.08189(19) 0.55978(17) 0.63133(15)
H31 H 0.0947 0.5829 0.6404
C50 C 0.09585(12) 0.5222(3) 0.64298(11)
C51 C 0.0767(2) 0.48775(14) 0.62943(16)
H32 H 0.0861 0.4626 0.6372
C52 C 0.04363(19) 0.49079(16) 0.60423(16)
H33 H 0.0308 0.4677 0.5952
C53 C 0.1327(2) 0.5222(2) 0.6687(2)
H34 H 0.1428 0.5474 0.6753
C54 C 0.15134(19) 0.4934(2) 0.6822(2)
H35 H 0.1417 0.4679 0.6761
C55 C 0.1901(2) 0.4961(2) 0.7090(2)
Cu4 Cu 0.2500 0.45998(7) 0.7500
Cu8 Cu 0.2500 0.54002(7) 0.7500
O21 O 0.03112(17) 0.80001(12) 0.28354(13)
O22 O 0.03112(17) 0.69999(12) 0.21646(13)
O5 O 0.19999(12) 0.96888(17) 0.78354(13)
H8 H 0.0179 0.9191 0.9628
C14 C 0.02966(11) 0.9717(2) 0.90742(12)
C15 C 0.0488(2) 0.93718(14) 0.89387(16)
H9 H 0.0395 0.9121 0.9017
C16 C 0.08189(19) 0.94022(17) 0.86867(15)
H10 H 0.0947 0.9171 0.8596
C17 C 0.09585(12) 0.9778(3) 0.85702(11)
C20 C 0.1327(2) 0.9778(2) 0.8313(2)
H13 H 0.1428 0.9526 0.8247
Cu7 Cu 0.2500 0.95998(7) 0.7500
O6 O 0.78227(16) 0.20210(14) 0.0386(2)
C29 C 0.87057(16) 0.0767(2) 0.01225(14)
H18 H 0.8628 0.0861 0.0374
C30 C 0.89577(16) 0.04363(19) 0.00921(16)
H19 H 0.9048 0.0308 0.0323
C32 C 0.8178(2) 0.15134(19) 0.0066(2)
H21 H 0.8239 0.1417 0.0321
C33 C 0.7910(2) 0.1901(2) 0.0039(2)
Cu5 Cu 0.7500 0.2500 0.04002(7)
O7 O 0.78354(13) 0.19999(12) 0.96888(17)
H15 H 0.9628 0.0179 0.9191
C25 C 0.90742(12) 0.02966(11) 0.9717(2)
C26 C 0.89387(16) 0.0488(2) 0.93718(14)
H16 H 0.9017 0.0395 0.9121
C27 C 0.86867(15) 0.08189(19) 0.94022(17)
H17 H 0.8596 0.0947 0.9171
C28 C 0.85702(11) 0.09585(12) 0.9778(3)
C31 C 0.8313(2) 0.1327(2) 0.9778(2)
H20 H 0.8247 0.1428 0.9526
Cu10 Cu 0.7500 0.2500 0.95998(7)
O2 O 0.96888(17) 0.78354(13) 0.19999(12)
H1 H 0.9191 0.9628 0.0179
C3 C 0.9717(2) 0.90742(12) 0.02966(11)
C4 C 0.93718(14) 0.89387(16) 0.0488(2)
H2 H 0.9121 0.9017 0.0395
C5 C 0.94022(17) 0.86867(15) 0.08189(19)
H3 H 0.9171 0.8596 0.0947
C6 C 0.9778(3) 0.85702(11) 0.09585(12)
C9 C 0.9778(2) 0.8313(2) 0.1327(2)
H6 H 0.9526 0.8247 0.1428
O9 O 0.96888(17) 0.71646(13) 0.30001(12)
C34 C 0.93861(19) 0.5351(2) 0.50188(19)
H22 H 0.9191 0.5372 0.4821
C35 C 0.9700(3) 0.56264(18) 0.5043(2)
C36 C 0.9717(2) 0.59258(12) 0.47034(11)
C37 C 0.93718(14) 0.60613(16) 0.4512(2)
H23 H 0.9121 0.5983 0.4605
C38 C 0.94022(17) 0.63133(15) 0.41811(19)
H24 H 0.9171 0.6404 0.4053
C39 C 0.9778(3) 0.64298(11) 0.40415(12)
C42 C 0.9778(2) 0.6687(2) 0.3673(2)
H27 H 0.9526 0.6753 0.3572
C45 C 0.99812(19) 0.56139(19) 0.5351(2)
C46 C 0.9957(2) 0.5300(3) 0.56264(18)
O12 O 0.78227(16) 0.29790(14) 0.4614(2)
O13 O 0.78354(13) 0.30001(12) 0.53112(17)
C56 C 0.9649(2) 0.50188(19) 0.56139(19)
H36 H 0.9628 0.4821 0.5809
C57 C 0.93736(18) 0.5043(2) 0.5300(3)
C58 C 0.90742(12) 0.47034(11) 0.5283(2)
C59 C 0.89387(16) 0.4512(2) 0.56282(14)
H37 H 0.9017 0.4605 0.5879
C60 C 0.86867(15) 0.41811(19) 0.55978(17)
H38 H 0.8596 0.4053 0.5829
C61 C 0.85702(11) 0.40415(12) 0.5222(3)
C62 C 0.87057(16) 0.4233(2) 0.48775(14)
H39 H 0.8628 0.4139 0.4626
C63 C 0.89577(16) 0.45637(19) 0.49079(16)
H40 H 0.9048 0.4692 0.4677
C64 C 0.8313(2) 0.3673(2) 0.5222(2)
H41 H 0.8247 0.3572 0.5474
C65 C 0.8178(2) 0.34866(19) 0.4934(2)
H42 H 0.8239 0.3583 0.4679
C66 C 0.7910(2) 0.3099(2) 0.4961(2)
Cu2 Cu 0.95998(7) 0.7500 0.2500
O14 O 0.8875(3) 0.7500 0.2500
Cu6 Cu 0.7500 0.2500 0.45998(7)
Cu9 Cu 0.7500 0.2500 0.54002(7)
O17 O 0.9614(2) 0.79790(14) 0.28227(16)
O18 O 0.9614(2) 0.70210(14) 0.21773(16)
C51_2 C 0.4233(2) 0.01225(14) 0.62943(16)
H32_2 H 0.4139 0.0374 0.6372
C52_2 C 0.45637(19) 0.00921(16) 0.60423(16)
H33_2 H 0.4692 0.0323 0.5952
C54_2 C 0.34866(19) 0.0066(2) 0.6822(2)
H35_2 H 0.3583 0.0321 0.6761
C55_2 C 0.3099(2) 0.0039(2) 0.7090(2)
O12_2 O 0.71773(16) 0.20210(14) 0.4614(2)
O13_2 O 0.71646(13) 0.19999(12) 0.53112(17)
H36_2 H 0.5372 0.0179 0.5809
C58_2 C 0.59258(12) 0.02966(11) 0.5283(2)
C59_2 C 0.60613(16) 0.0488(2) 0.56282(14)
H37_2 H 0.5983 0.0395 0.5879
C60_2 C 0.63133(15) 0.08189(19) 0.55978(17)
H38_2 H 0.6404 0.0947 0.5829
C61_2 C 0.64298(11) 0.09585(12) 0.5222(3)
C62_2 C 0.62943(16) 0.0767(2) 0.48775(14)
H39_2 H 0.6372 0.0861 0.4626
C63_2 C 0.60423(16) 0.04363(19) 0.49079(16)
H40_2 H 0.5952 0.0308 0.4677
C64_2 C 0.6687(2) 0.1327(2) 0.5222(2)
H41_2 H 0.6753 0.1428 0.5474
C65_2 C 0.6822(2) 0.15134(19) 0.4934(2)
H42_2 H 0.6761 0.1417 0.4679
C66_2 C 0.7090(2) 0.1901(2) 0.4961(2)
Cu1_2 Cu 0.45998(7) 0.7500 0.2500
O1_2 O 0.4614(2) 0.71773(16) 0.20210(14)
O2_2 O 0.53112(17) 0.71646(13) 0.19999(12)
O3_2 O 0.3875(3) 0.7500 0.2500
H1_2 H 0.5809 0.5372 0.0179
C3_2 C 0.5283(2) 0.59258(12) 0.02966(11)
C4_2 C 0.56282(14) 0.60613(16) 0.0488(2)
H2_2 H 0.5879 0.5983 0.0395
C5_2 C 0.55978(17) 0.63133(15) 0.08189(19)
H3_2 H 0.5829 0.6404 0.0947
C6_2 C 0.5222(3) 0.64298(11) 0.09585(12)
C7_2 C 0.48775(14) 0.62943(16) 0.0767(2)
H4_2 H 0.4626 0.6372 0.0861
C8_2 C 0.49079(16) 0.60423(16) 0.04363(19)
H5_2 H 0.4677 0.5952 0.0308
C9_2 C 0.5222(2) 0.6687(2) 0.1327(2)
H6_2 H 0.5474 0.6753 0.1428
C10_2 C 0.4934(2) 0.6822(2) 0.15134(19)
H7_2 H 0.4679 0.6761 0.1417
C11_2 C 0.4961(2) 0.7090(2) 0.1901(2)
O6_2 O 0.71773(16) 0.29790(14) 0.0386(2)
C29_2 C 0.62943(16) 0.4233(2) 0.01225(14)
H18_2 H 0.6372 0.4139 0.0374
C30_2 C 0.60423(16) 0.45637(19) 0.00921(16)
H19_2 H 0.5952 0.4692 0.0323
C32_2 C 0.6822(2) 0.34866(19) 0.0066(2)
H21_2 H 0.6761 0.3583 0.0321
C33_2 C 0.7090(2) 0.3099(2) 0.0039(2)
O8_2 O 0.4614(2) 0.78227(16) 0.29790(14)
O9_2 O 0.53112(17) 0.78354(13) 0.30001(12)
C34_2 C 0.56139(19) 0.9649(2) 0.50188(19)
H22_2 H 0.5809 0.9628 0.4821
C35_2 C 0.5300(3) 0.93736(18) 0.5043(2)
C36_2 C 0.5283(2) 0.90742(12) 0.47034(11)
C37_2 C 0.56282(14) 0.89387(16) 0.4512(2)
H23_2 H 0.5879 0.9017 0.4605
C38_2 C 0.55978(17) 0.86867(15) 0.41811(19)
H24_2 H 0.5829 0.8596 0.4053
C39_2 C 0.5222(3) 0.85702(11) 0.40415(12)
C40_2 C 0.48775(14) 0.87057(16) 0.4233(2)
H25_2 H 0.4626 0.8628 0.4139
C41_2 C 0.49079(16) 0.89577(16) 0.45637(19)
H26_2 H 0.4677 0.9048 0.4692
C42_2 C 0.5222(2) 0.8313(2) 0.3673(2)
H27_2 H 0.5474 0.8247 0.3572
C43_2 C 0.4934(2) 0.8178(2) 0.34866(19)
H28_2 H 0.4679 0.8239 0.3583
C44_2 C 0.4961(2) 0.7910(2) 0.3099(2)
O11_2 O 0.30001(12) 0.96888(17) 0.71646(13)
C45_2 C 0.50188(19) 0.93861(19) 0.5351(2)
H29_2 H 0.4821 0.9191 0.5372
C46_2 C 0.5043(2) 0.9700(3) 0.56264(18)
C47_2 C 0.47034(11) 0.9717(2) 0.59258(12)
C48_2 C 0.4512(2) 0.93718(14) 0.60613(16)
H30_2 H 0.4605 0.9121 0.5983
C49_2 C 0.41811(19) 0.94022(17) 0.63133(15)
H31_2 H 0.4053 0.9171 0.6404
C50_2 C 0.40415(12) 0.9778(3) 0.64298(11)
C53_2 C 0.3673(2) 0.9778(2) 0.6687(2)
H34_2 H 0.3572 0.9526 0.6753
C56_2 C 0.5351(2) 0.99812(19) 0.56139(19)
C57_2 C 0.56264(18) 0.9957(2) 0.5300(3)
Cu2_2 Cu 0.54002(7) 0.7500 0.2500
O14_2 O 0.6125(3) 0.7500 0.2500
O17_2 O 0.5386(2) 0.70210(14) 0.28227(16)
O18_2 O 0.5386(2) 0.79790(14) 0.21773(16)
O21_2 O 0.46888(17) 0.69999(12) 0.28354(13)
O22_2 O 0.46888(17) 0.80001(12) 0.21646(13)
C1 C 0.56139(19) 0.5351(2) 0.99812(19)
C2 C 0.5300(3) 0.56264(18) 0.9957(2)
O4_2 O 0.29790(14) 0.4614(2) 0.78227(16)
O5_2 O 0.30001(12) 0.53112(17) 0.78354(13)
C12 C 0.50188(19) 0.56139(19) 0.9649(2)
H8_2 H 0.4821 0.5809 0.9628
C13 C 0.5043(2) 0.5300(3) 0.93736(18)
C14_2 C 0.47034(11) 0.5283(2) 0.90742(12)
C15_2 C 0.4512(2) 0.56282(14) 0.89387(16)
H9_2 H 0.4605 0.5879 0.9017
C16_2 C 0.41811(19) 0.55978(17) 0.86867(15)
H10_2 H 0.4053 0.5829 0.8596
C17_2 C 0.40415(12) 0.5222(3) 0.85702(11)
C18_2 C 0.4233(2) 0.48775(14) 0.87057(16)
H11_2 H 0.4139 0.4626 0.8628
C19_2 C 0.45637(19) 0.49079(16) 0.89577(16)
H12_2 H 0.4692 0.4677 0.9048
C20_2 C 0.3673(2) 0.5222(2) 0.8313(2)
H13_2 H 0.3572 0.5474 0.8247
C21_2 C 0.34866(19) 0.4934(2) 0.8178(2)
H14_2 H 0.3583 0.4679 0.8239
C22_2 C 0.3099(2) 0.4961(2) 0.7910(2)
O7_2 O 0.71646(13) 0.30001(12) 0.96888(17)
C23 C 0.5351(2) 0.50188(19) 0.93861(19)
H15_2 H 0.5372 0.4821 0.9191
C24 C 0.56264(18) 0.5043(2) 0.9700(3)
C25_2 C 0.59258(12) 0.47034(11) 0.9717(2)
C26_2 C 0.60613(16) 0.4512(2) 0.93718(14)
H16_2 H 0.5983 0.4605 0.9121
C27_2 C 0.63133(15) 0.41811(19) 0.94022(17)
H17_2 H 0.6404 0.4053 0.9171
C28_2 C 0.64298(11) 0.40415(12) 0.9778(3)
C31_2 C 0.6687(2) 0.3673(2) 0.9778(2)
H20_2 H 0.6753 0.3572 0.9526
O15_2 O 0.2500 0.3875(3) 0.7500
O19_2 O 0.28354(13) 0.46888(17) 0.69999(12)
O20_2 O 0.21646(13) 0.46888(17) 0.80001(12)
O14_3 O 0.2500 0.8875(3) 0.7500
O17_3 O 0.28227(16) 0.9614(2) 0.79790(14)
O18_3 O 0.21773(16) 0.9614(2) 0.70210(14)
O15_3 O 0.7500 0.2500 0.1125(3)
O19_3 O 0.69999(12) 0.21646(13) 0.03112(17)
O20_3 O 0.80001(12) 0.28354(13) 0.03112(17)
O14_4 O 0.2500 0.6125(3) 0.7500
O17_4 O 0.28227(16) 0.5386(2) 0.70210(14)
O18_4 O 0.21773(16) 0.5386(2) 0.79790(14)
O15_4 O 0.7500 0.2500 0.3875(3)
O19_4 O 0.69999(12) 0.28354(13) 0.46888(17)
O20_4 O 0.80001(12) 0.21646(13) 0.46888(17)
O14_5 O 0.7500 0.2500 0.8875(3)
O17_5 O 0.79790(14) 0.28227(16) 0.9614(2)
O18_5 O 0.70210(14) 0.21773(16) 0.9614(2)
O14_6 O 0.7500 0.2500 0.6125(3)
O17_6 O 0.70210(14) 0.28227(16) 0.5386(2)
O18_6 O 0.79790(14) 0.21773(16) 0.5386(2)
C34_3 C 0.4649(2) 0.06139(19) 0.00188(19)
C35_3 C 0.43736(18) 0.0300(3) 0.0043(2)
C45_3 C 0.43861(19) 0.00188(19) 0.0351(2)
C46_3 C 0.4700(3) 0.0043(2) 0.06264(18)
C56_3 C 0.49812(19) 0.0351(2) 0.06139(19)
H36_3 H 0.5179 0.0372 0.0809
C57_3 C 0.4957(2) 0.06264(18) 0.0300(3)
C58_3 C 0.52966(11) 0.09258(12) 0.0283(2)
C59_3 C 0.5488(2) 0.10613(16) 0.06282(14)
H37_3 H 0.5395 0.0983 0.0879
C60_3 C 0.58189(19) 0.13133(15) 0.05978(17)
H38_3 H 0.5947 0.1404 0.0829
C61_3 C 0.59585(12) 0.14298(11) 0.0222(3)
C64_3 C 0.6327(2) 0.1687(2) 0.0222(2)
H41_3 H 0.6428 0.1753 0.0474
C1_2 C 0.0351(2) 0.06139(19) 0.49812(19)
H1_3 H 0.0372 0.0809 0.5179
C2_2 C 0.06264(18) 0.0300(3) 0.4957(2)
C3_3 C 0.09258(12) 0.0283(2) 0.52966(11)
C4_3 C 0.10613(16) 0.06282(14) 0.5488(2)
H2_3 H 0.0983 0.0879 0.5395
C5_3 C 0.13133(15) 0.05978(17) 0.58189(19)
H3_3 H 0.1404 0.0829 0.5947
C6_3 C 0.14298(11) 0.0222(3) 0.59585(12)
C9_3 C 0.1687(2) 0.0222(2) 0.6327(2)
H6_3 H 0.1753 0.0474 0.6428
C12_2 C 0.06139(19) 0.00188(19) 0.4649(2)
C13_2 C 0.0300(3) 0.0043(2) 0.43736(18)
C23_2 C 0.00188(19) 0.0351(2) 0.43861(19)
C24_2 C 0.0043(2) 0.06264(18) 0.4700(3)
H22_3 H 0.4628 0.0809 0.9821
C36_3 C 0.40742(12) 0.0283(2) 0.97034(11)
C37_3 C 0.39387(16) 0.06282(14) 0.9512(2)
H23_3 H 0.4017 0.0879 0.9605
C38_3 C 0.36867(15) 0.05978(17) 0.91811(19)
H24_3 H 0.3596 0.0829 0.9053
C39_3 C 0.35702(11) 0.0222(3) 0.90415(12)
C42_3 C 0.3313(2) 0.0222(2) 0.8673(2)
H27_3 H 0.3247 0.0474 0.8572
C62_3 C 0.5767(2) 0.12943(16) 0.98775(14)
H39_3 H 0.5861 0.1372 0.9626
C63_3 C 0.54363(19) 0.10423(16) 0.99079(16)
H40_3 H 0.5308 0.0952 0.9677
C65_3 C 0.65134(19) 0.1822(2) 0.9934(2)
H42_3 H 0.6417 0.1761 0.9679
C66_3 C 0.6901(2) 0.2090(2) 0.9961(2)
H29_3 H 0.4191 0.9821 0.0372
C47_3 C 0.4717(2) 0.97034(11) 0.09258(12)
C48_3 C 0.43718(14) 0.9512(2) 0.10613(16)
H30_3 H 0.4121 0.9605 0.0983
C49_3 C 0.44022(17) 0.91811(19) 0.13133(15)
H31_3 H 0.4171 0.9053 0.1404
C50_3 C 0.4778(3) 0.90415(12) 0.14298(11)
C51_3 C 0.51225(14) 0.9233(2) 0.12943(16)
H32_3 H 0.5374 0.9139 0.1372
C52_3 C 0.50921(16) 0.95637(19) 0.10423(16)
H33_3 H 0.5323 0.9692 0.0952
C53_3 C 0.4778(2) 0.8673(2) 0.1687(2)
H34_3 H 0.4526 0.8572 0.1753
C54_3 C 0.5066(2) 0.84866(19) 0.1822(2)
H35_3 H 0.5321 0.8583 0.1761
C55_3 C 0.5039(2) 0.8099(2) 0.2090(2)
C7_3 C 0.12943(16) 0.98775(14) 0.5767(2)
H4_3 H 0.1372 0.9626 0.5861
C8_3 C 0.10423(16) 0.99079(16) 0.54363(19)
H5_3 H 0.0952 0.9677 0.5308
C10_3 C 0.1822(2) 0.9934(2) 0.65134(19)
H7_3 H 0.1761 0.9679 0.6417
C11_3 C 0.2090(2) 0.9961(2) 0.6901(2)
H8_3 H 0.0809 0.9821 0.4628
C14_3 C 0.0283(2) 0.97034(11) 0.40742(12)
C15_3 C 0.06282(14) 0.9512(2) 0.39387(16)
H9_3 H 0.0879 0.9605 0.4017
C16_3 C 0.05978(17) 0.91811(19) 0.36867(15)
H10_3 H 0.0829 0.9053 0.3596
C17_3 C 0.0222(3) 0.90415(12) 0.35702(11)
C20_3 C 0.0222(2) 0.8673(2) 0.3313(2)
H13_3 H 0.0474 0.8572 0.3247
C40_3 C 0.37057(16) 0.98775(14) 0.9233(2)
H25_3 H 0.3628 0.9626 0.9139
C41_3 C 0.39577(16) 0.99079(16) 0.95637(19)
H26_3 H 0.4048 0.9677 0.9692
C43_3 C 0.3178(2) 0.9934(2) 0.84866(19)
H28_3 H 0.3239 0.9679 0.8583
C44_3 C 0.2910(2) 0.9961(2) 0.8099(2)
H15_3 H 0.9821 0.0372 0.4191
C25_3 C 0.97034(11) 0.09258(12) 0.4717(2)
C26_3 C 0.9512(2) 0.10613(16) 0.43718(14)
H16_3 H 0.9605 0.0983 0.4121
C27_3 C 0.91811(19) 0.13133(15) 0.44022(17)
H17_3 H 0.9053 0.1404 0.4171
C28_3 C 0.90415(12) 0.14298(11) 0.4778(3)
C29_3 C 0.9233(2) 0.12943(16) 0.51225(14)
H18_3 H 0.9139 0.1372 0.5374
C30_3 C 0.95637(19) 0.10423(16) 0.50921(16)
H19_3 H 0.9692 0.0952 0.5323
C31_3 C 0.8673(2) 0.1687(2) 0.4778(2)
H20_3 H 0.8572 0.1753 0.4526
C32_3 C 0.84866(19) 0.1822(2) 0.5066(2)
H21_3 H 0.8583 0.1761 0.5321
C33_3 C 0.8099(2) 0.2090(2) 0.5039(2)
C18_3 C 0.98775(14) 0.9233(2) 0.37057(16)
H11_3 H 0.9626 0.9139 0.3628
C19_3 C 0.99079(16) 0.95637(19) 0.39577(16)
H12_3 H 0.9677 0.9692 0.4048
C21_3 C 0.9934(2) 0.84866(19) 0.3178(2)
H14_3 H 0.9679 0.8583 0.3239
C22_3 C 0.9961(2) 0.8099(2) 0.2910(2)
C34_4 C 0.0351(2) 0.43861(19) 0.00188(19)
C35_4 C 0.06264(18) 0.4700(3) 0.0043(2)
C45_4 C 0.06139(19) 0.49812(19) 0.0351(2)
H29_4 H 0.0809 0.5179 0.0372
C46_4 C 0.0300(3) 0.4957(2) 0.06264(18)
C47_4 C 0.0283(2) 0.52966(11) 0.09258(12)
C48_4 C 0.06282(14) 0.5488(2) 0.10613(16)
H30_4 H 0.0879 0.5395 0.0983
C49_4 C 0.05978(17) 0.58189(19) 0.13133(15)
H31_4 H 0.0829 0.5947 0.1404
C50_4 C 0.0222(3) 0.59585(12) 0.14298(11)
C53_4 C 0.0222(2) 0.6327(2) 0.1687(2)
H34_4 H 0.0474 0.6428 0.1753
C56_4 C 0.00188(19) 0.4649(2) 0.06139(19)
C57_4 C 0.0043(2) 0.43736(18) 0.0300(3)
C1_3 C 0.4649(2) 0.43861(19) 0.49812(19)
H1_4 H 0.4628 0.4191 0.5179
C2_3 C 0.43736(18) 0.4700(3) 0.4957(2)
C3_4 C 0.40742(12) 0.4717(2) 0.52966(11)
C4_4 C 0.39387(16) 0.43718(14) 0.5488(2)
H2_4 H 0.4017 0.4121 0.5395
C5_4 C 0.36867(15) 0.44022(17) 0.58189(19)
H3_4 H 0.3596 0.4171 0.5947
C6_4 C 0.35702(11) 0.4778(3) 0.59585(12)
C7_4 C 0.37057(16) 0.51225(14) 0.5767(2)
H4_4 H 0.3628 0.5374 0.5861
C8_4 C 0.39577(16) 0.50921(16) 0.54363(19)
H5_4 H 0.4048 0.5323 0.5308
C9_4 C 0.3313(2) 0.4778(2) 0.6327(2)
H6_4 H 0.3247 0.4526 0.6428
C10_4 C 0.3178(2) 0.5066(2) 0.65134(19)
H7_4 H 0.3239 0.5321 0.6417
C11_4 C 0.2910(2) 0.5039(2) 0.6901(2)
C12_3 C 0.43861(19) 0.49812(19) 0.4649(2)
H8_4 H 0.4191 0.5179 0.4628
C13_3 C 0.4700(3) 0.4957(2) 0.43736(18)
C14_4 C 0.4717(2) 0.52966(11) 0.40742(12)
C15_4 C 0.43718(14) 0.5488(2) 0.39387(16)
H9_4 H 0.4121 0.5395 0.4017
C16_4 C 0.44022(17) 0.58189(19) 0.36867(15)
H10_4 H 0.4171 0.5947 0.3596
C17_4 C 0.4778(3) 0.59585(12) 0.35702(11)
C18_4 C 0.51225(14) 0.5767(2) 0.37057(16)
H11_4 H 0.5374 0.5861 0.3628
C19_4 C 0.50921(16) 0.54363(19) 0.39577(16)
H12_4 H 0.5323 0.5308 0.4048
C20_4 C 0.4778(2) 0.6327(2) 0.3313(2)
H13_4 H 0.4526 0.6428 0.3247
C21_4 C 0.5066(2) 0.65134(19) 0.3178(2)
H14_4 H 0.5321 0.6417 0.3239
C22_4 C 0.5039(2) 0.6901(2) 0.2910(2)
C23_3 C 0.49812(19) 0.4649(2) 0.43861(19)
H15_4 H 0.5179 0.4628 0.4191
C24_3 C 0.4957(2) 0.43736(18) 0.4700(3)
C25_4 C 0.52966(11) 0.40742(12) 0.4717(2)
C26_4 C 0.5488(2) 0.39387(16) 0.43718(14)
H16_4 H 0.5395 0.4017 0.4121
C27_4 C 0.58189(19) 0.36867(15) 0.44022(17)
H17_4 H 0.5947 0.3596 0.4171
C28_4 C 0.59585(12) 0.35702(11) 0.4778(3)
C29_4 C 0.5767(2) 0.37057(16) 0.51225(14)
H18_4 H 0.5861 0.3628 0.5374
C30_4 C 0.54363(19) 0.39577(16) 0.50921(16)
H19_4 H 0.5308 0.4048 0.5323
C31_4 C 0.6327(2) 0.3313(2) 0.4778(2)
H20_4 H 0.6428 0.3247 0.4526
C32_4 C 0.65134(19) 0.3178(2) 0.5066(2)
H21_4 H 0.6417 0.3239 0.5321
C33_4 C 0.6901(2) 0.2910(2) 0.5039(2)
H22_4 H 0.0372 0.4191 0.9821
C36_4 C 0.09258(12) 0.4717(2) 0.97034(11)
C37_4 C 0.10613(16) 0.43718(14) 0.9512(2)
H23_4 H 0.0983 0.4121 0.9605
C38_4 C 0.13133(15) 0.44022(17) 0.91811(19)
H24_4 H 0.1404 0.4171 0.9053
C39_4 C 0.14298(11) 0.4778(3) 0.90415(12)
C40_4 C 0.12943(16) 0.51225(14) 0.9233(2)
H25_4 H 0.1372 0.5374 0.9139
C41_4 C 0.10423(16) 0.50921(16) 0.95637(19)
H26_4 H 0.0952 0.5323 0.9692
C42_4 C 0.1687(2) 0.4778(2) 0.8673(2)
H27_4 H 0.1753 0.4526 0.8572
C43_4 C 0.1822(2) 0.5066(2) 0.84866(19)
H28_4 H 0.1761 0.5321 0.8583
C44_4 C 0.2090(2) 0.5039(2) 0.8099(2)
C51_4 C 0.98775(14) 0.5767(2) 0.12943(16)
H32_4 H 0.9626 0.5861 0.1372
C52_4 C 0.99079(16) 0.54363(19) 0.10423(16)
H33_4 H 0.9677 0.5308 0.0952
C54_4 C 0.9934(2) 0.65134(19) 0.1822(2)
H35_4 H 0.9679 0.6417 0.1761
C55_4 C 0.9961(2) 0.6901(2) 0.2090(2)
H36_4 H 0.9821 0.4628 0.0809
C58_4 C 0.97034(11) 0.40742(12) 0.0283(2)
C59_4 C 0.9512(2) 0.39387(16) 0.06282(14)
H37_4 H 0.9605 0.4017 0.0879
C60_4 C 0.91811(19) 0.36867(15) 0.05978(17)
H38_4 H 0.9053 0.3596 0.0829
C61_4 C 0.90415(12) 0.35702(11) 0.0222(3)
C64_4 C 0.8673(2) 0.3313(2) 0.0222(2)
H41_4 H 0.8572 0.3247 0.0474
C62_4 C 0.9233(2) 0.37057(16) 0.98775(14)
H39_4 H 0.9139 0.3628 0.9626
C63_4 C 0.95637(19) 0.39577(16) 0.99079(16)
H40_4 H 0.9692 0.4048 0.9677
C65_4 C 0.84866(19) 0.3178(2) 0.9934(2)
H42_4 H 0.8583 0.3239 0.9679
C66_4 C 0.8099(2) 0.2910(2) 0.9961(2)
C1_4 C 0.93861(19) 0.9649(2) 0.99812(19)
C2_4 C 0.9700(3) 0.93736(18) 0.9957(2)
C12_4 C 0.99812(19) 0.93861(19) 0.9649(2)
C13_4 C 0.9957(2) 0.9700(3) 0.93736(18)
C23_4 C 0.9649(2) 0.99812(19) 0.93861(19)
C24_4 C 0.93736(18) 0.9957(2) 0.9700(3)
O4_3 O 0.0386(2) 0.20210(14) 0.71773(16)
C18_5 C 0.01225(14) 0.0767(2) 0.62943(16)
H11_5 H 0.0374 0.0861 0.6372
C19_5 C 0.00921(16) 0.04363(19) 0.60423(16)
H12_5 H 0.0323 0.0308 0.5952
C21_5 C 0.0066(2) 0.15134(19) 0.6822(2)
H14_5 H 0.0321 0.1417 0.6761
C22_5 C 0.0039(2) 0.1901(2) 0.7090(2)
Cu3_2 Cu 0.04002(7) 0.2500 0.7500
O15_5 O 0.1125(3) 0.2500 0.7500
O16_2 O 0.0386(2) 0.29790(14) 0.78227(16)
O19_5 O 0.03112(17) 0.21646(13) 0.80001(12)
O20_5 O 0.03112(17) 0.28354(13) 0.69999(12)
O6_3 O 0.20210(14) 0.78227(16) 0.4614(2)
O7_3 O 0.19999(12) 0.78354(13) 0.53112(17)
H15_5 H 0.0179 0.9628 0.5809
C25_5 C 0.02966(11) 0.90742(12) 0.5283(2)
C26_5 C 0.0488(2) 0.89387(16) 0.56282(14)
H16_5 H 0.0395 0.9017 0.5879
C27_5 C 0.08189(19) 0.86867(15) 0.55978(17)
H17_5 H 0.0947 0.8596 0.5829
C28_5 C 0.09585(12) 0.85702(11) 0.5222(3)
C29_5 C 0.0767(2) 0.87057(16) 0.48775(14)
H18_5 H 0.0861 0.8628 0.4626
C30_5 C 0.04363(19) 0.89577(16) 0.49079(16)
H19_5 H 0.0308 0.9048 0.4677
C31_5 C 0.1327(2) 0.8313(2) 0.5222(2)
H20_5 H 0.1428 0.8247 0.5474
C32_5 C 0.15134(19) 0.8178(2) 0.4934(2)
H21_5 H 0.1417 0.8239 0.4679
C33_5 C 0.1901(2) 0.7910(2) 0.4961(2)
Cu5_2 Cu 0.2500 0.7500 0.45998(7)
Cu10_2 Cu 0.2500 0.7500 0.54002(7)
Cu1_3 Cu 0.7500 0.04002(7) 0.2500
O1_3 O 0.78227(16) 0.0386(2) 0.29790(14)
O3_3 O 0.7500 0.1125(3) 0.2500
C7_5 C 0.87057(16) 0.01225(14) 0.4233(2)
H4_5 H 0.8628 0.0374 0.4139
C8_5 C 0.89577(16) 0.00921(16) 0.45637(19)
H5_5 H 0.9048 0.0323 0.4692
C10_5 C 0.8178(2) 0.0066(2) 0.34866(19)
H7_5 H 0.8239 0.0321 0.3583
C11_5 C 0.7910(2) 0.0039(2) 0.3099(2)
O5_3 O 0.96888(17) 0.19999(12) 0.71646(13)
H8_5 H 0.9191 0.0179 0.5372
C14_5 C 0.9717(2) 0.02966(11) 0.59258(12)
C15_5 C 0.93718(14) 0.0488(2) 0.60613(16)
H9_5 H 0.9121 0.0395 0.5983
C16_5 C 0.94022(17) 0.08189(19) 0.63133(15)
H10_5 H 0.9171 0.0947 0.6404
C17_5 C 0.9778(3) 0.09585(12) 0.64298(11)
C20_5 C 0.9778(2) 0.1327(2) 0.6687(2)
H13_5 H 0.9526 0.1428 0.6753
O8_3 O 0.71773(16) 0.0386(2) 0.20210(14)
C40_5 C 0.62943(16) 0.01225(14) 0.0767(2)
H25_5 H 0.6372 0.0374 0.0861
C41_5 C 0.60423(16) 0.00921(16) 0.04363(19)
H26_5 H 0.5952 0.0323 0.0308
C43_5 C 0.6822(2) 0.0066(2) 0.15134(19)
H28_5 H 0.6761 0.0321 0.1417
C44_5 C 0.7090(2) 0.0039(2) 0.1901(2)
Cu7_2 Cu 0.95998(7) 0.2500 0.7500
O21_3 O 0.80001(12) 0.03112(17) 0.21646(13)
O22_3 O 0.69999(12) 0.03112(17) 0.28354(13)
O10_2 O 0.4614(2) 0.20210(14) 0.78227(16)
O11_3 O 0.53112(17) 0.19999(12) 0.78354(13)
H29_5 H 0.5809 0.0179 0.9628
C47_5 C 0.5283(2) 0.02966(11) 0.90742(12)
C48_5 C 0.56282(14) 0.0488(2) 0.89387(16)
H30_5 H 0.5879 0.0395 0.9017
C49_5 C 0.55978(17) 0.08189(19) 0.86867(15)
H31_5 H 0.5829 0.0947 0.8596
C50_5 C 0.5222(3) 0.09585(12) 0.85702(11)
C51_5 C 0.48775(14) 0.0767(2) 0.87057(16)
H32_5 H 0.4626 0.0861 0.8628
C52_5 C 0.49079(16) 0.04363(19) 0.89577(16)
H33_5 H 0.4677 0.0308 0.9048
C53_5 C 0.5222(2) 0.1327(2) 0.8313(2)
H34_5 H 0.5474 0.1428 0.8247
C54_5 C 0.4934(2) 0.15134(19) 0.8178(2)
H35_5 H 0.4679 0.1417 0.8239
C55_5 C 0.4961(2) 0.1901(2) 0.7910(2)
Cu4_2 Cu 0.45998(7) 0.2500 0.7500
Cu8_2 Cu 0.54002(7) 0.2500 0.7500
O2_3 O 0.78354(13) 0.96888(17) 0.30001(12)
C1_5 C 0.9649(2) 0.93861(19) 0.50188(19)
H1_5 H 0.9628 0.9191 0.4821
C2_5 C 0.93736(18) 0.9700(3) 0.5043(2)
C3_5 C 0.90742(12) 0.9717(2) 0.47034(11)
C4_5 C 0.89387(16) 0.93718(14) 0.4512(2)
H2_5 H 0.9017 0.9121 0.4605
C5_5 C 0.86867(15) 0.94022(17) 0.41811(19)
H3_5 H 0.8596 0.9171 0.4053
C6_5 C 0.85702(11) 0.9778(3) 0.40415(12)
C9_5 C 0.8313(2) 0.9778(2) 0.3673(2)
H6_5 H 0.8247 0.9526 0.3572
C12_5 C 0.93861(19) 0.99812(19) 0.5351(2)
C13_5 C 0.9700(3) 0.9957(2) 0.56264(18)
C23_5 C 0.99812(19) 0.9649(2) 0.56139(19)
C24_5 C 0.9957(2) 0.93736(18) 0.5300(3)
O9_3 O 0.71646(13) 0.96888(17) 0.19999(12)
H22_5 H 0.5372 0.9191 0.0179
C36_5 C 0.59258(12) 0.9717(2) 0.02966(11)
C37_5 C 0.60613(16) 0.93718(14) 0.0488(2)
H23_5 H 0.5983 0.9121 0.0395
C38_5 C 0.63133(15) 0.94022(17) 0.08189(19)
H24_5 H 0.6404 0.9171 0.0947
C39_5 C 0.64298(11) 0.9778(3) 0.09585(12)
C42_5 C 0.6687(2) 0.9778(2) 0.1327(2)
H27_5 H 0.6753 0.9526 0.1428
O12_3 O 0.29790(14) 0.78227(16) 0.0386(2)
C62_5 C 0.4233(2) 0.87057(16) 0.01225(14)
H39_5 H 0.4139 0.8628 0.0374
C63_5 C 0.45637(19) 0.89577(16) 0.00921(16)
H40_5 H 0.4692 0.9048 0.0323
C65_5 C 0.34866(19) 0.8178(2) 0.0066(2)
H42_5 H 0.3583 0.8239 0.0321
C66_5 C 0.3099(2) 0.7910(2) 0.0039(2)
Cu2_3 Cu 0.7500 0.95998(7) 0.2500
O14_7 O 0.7500 0.8875(3) 0.2500
Cu6_2 Cu 0.2500 0.7500 0.04002(7)
O17_7 O 0.79790(14) 0.9614(2) 0.21773(16)
O18_7 O 0.70210(14) 0.9614(2) 0.28227(16)
C34_5 C 0.5351(2) 0.93861(19) 0.99812(19)
C35_5 C 0.56264(18) 0.9700(3) 0.9957(2)
C45_5 C 0.56139(19) 0.99812(19) 0.9649(2)
C46_5 C 0.5300(3) 0.9957(2) 0.93736(18)
O13_3 O 0.30001(12) 0.78354(13) 0.96888(17)
C56_5 C 0.50188(19) 0.9649(2) 0.93861(19)
H36_5 H 0.4821 0.9628 0.9191
C57_5 C 0.5043(2) 0.93736(18) 0.9700(3)
C58_5 C 0.47034(11) 0.90742(12) 0.9717(2)
C59_5 C 0.4512(2) 0.89387(16) 0.93718(14)
H37_5 H 0.4605 0.9017 0.9121
C60_5 C 0.41811(19) 0.86867(15) 0.94022(17)
H38_5 H 0.4053 0.8596 0.9171
C61_5 C 0.40415(12) 0.85702(11) 0.9778(3)
C64_5 C 0.3673(2) 0.8313(2) 0.9778(2)
H41_5 H 0.3572 0.8247 0.9526
Cu9_2 Cu 0.2500 0.7500 0.95998(7)
O12_4 O 0.20210(14) 0.71773(16) 0.0386(2)
C62_6 C 0.0767(2) 0.62943(16) 0.01225(14)
H39_6 H 0.0861 0.6372 0.0374
C63_6 C 0.04363(19) 0.60423(16) 0.00921(16)
H40_6 H 0.0308 0.5952 0.0323
C65_6 C 0.15134(19) 0.6822(2) 0.0066(2)
H42_6 H 0.1417 0.6761 0.0321
C66_6 C 0.1901(2) 0.7090(2) 0.0039(2)
C51_6 C 0.01225(14) 0.4233(2) 0.87057(16)
H32_6 H 0.0374 0.4139 0.8628
C52_6 C 0.00921(16) 0.45637(19) 0.89577(16)
H33_6 H 0.0323 0.4692 0.9048
C54_6 C 0.0066(2) 0.34866(19) 0.8178(2)
H35_6 H 0.0321 0.3583 0.8239
C55_6 C 0.0039(2) 0.3099(2) 0.7910(2)
O13_4 O 0.19999(12) 0.71646(13) 0.96888(17)
H36_6 H 0.0179 0.5372 0.9191
C58_6 C 0.02966(11) 0.59258(12) 0.9717(2)
C59_6 C 0.0488(2) 0.60613(16) 0.93718(14)
H37_6 H 0.0395 0.5983 0.9121
C60_6 C 0.08189(19) 0.63133(15) 0.94022(17)
H38_6 H 0.0947 0.6404 0.9171
C61_6 C 0.09585(12) 0.64298(11) 0.9778(3)
C64_6 C 0.1327(2) 0.6687(2) 0.9778(2)
H41_6 H 0.1428 0.6753 0.9526
Cu1_4 Cu 0.7500 0.45998(7) 0.2500
O1_4 O 0.71773(16) 0.4614(2) 0.29790(14)
O2_4 O 0.71646(13) 0.53112(17) 0.30001(12)
O3_4 O 0.7500 0.3875(3) 0.2500
C1_6 C 0.5351(2) 0.56139(19) 0.50188(19)
H1_6 H 0.5372 0.5809 0.4821
C2_6 C 0.56264(18) 0.5300(3) 0.5043(2)
C3_6 C 0.59258(12) 0.5283(2) 0.47034(11)
C4_6 C 0.60613(16) 0.56282(14) 0.4512(2)
H2_6 H 0.5983 0.5879 0.4605
C5_6 C 0.63133(15) 0.55978(17) 0.41811(19)
H3_6 H 0.6404 0.5829 0.4053
C6_6 C 0.64298(11) 0.5222(3) 0.40415(12)
C7_6 C 0.62943(16) 0.48775(14) 0.4233(2)
H4_6 H 0.6372 0.4626 0.4139
C8_6 C 0.60423(16) 0.49079(16) 0.45637(19)
H5_6 H 0.5952 0.4677 0.4692
C9_6 C 0.6687(2) 0.5222(2) 0.3673(2)
H6_6 H 0.6753 0.5474 0.3572
C10_6 C 0.6822(2) 0.4934(2) 0.34866(19)
H7_6 H 0.6761 0.4679 0.3583
C11_6 C 0.7090(2) 0.4961(2) 0.3099(2)
O4_4 O 0.4614(2) 0.29790(14) 0.71773(16)
O5_4 O 0.53112(17) 0.30001(12) 0.71646(13)
C12_6 C 0.56139(19) 0.50188(19) 0.5351(2)
H8_6 H 0.5809 0.4821 0.5372
C13_6 C 0.5300(3) 0.5043(2) 0.56264(18)
C14_6 C 0.5283(2) 0.47034(11) 0.59258(12)
C15_6 C 0.56282(14) 0.4512(2) 0.60613(16)
H9_6 H 0.5879 0.4605 0.5983
C16_6 C 0.55978(17) 0.41811(19) 0.63133(15)
H10_6 H 0.5829 0.4053 0.6404
C17_6 C 0.5222(3) 0.40415(12) 0.64298(11)
C18_6 C 0.48775(14) 0.4233(2) 0.62943(16)
H11_6 H 0.4626 0.4139 0.6372
C19_6 C 0.49079(16) 0.45637(19) 0.60423(16)
H12_6 H 0.4677 0.4692 0.5952
C20_6 C 0.5222(2) 0.3673(2) 0.6687(2)
H13_6 H 0.5474 0.3572 0.6753
C21_6 C 0.4934(2) 0.34866(19) 0.6822(2)
H14_6 H 0.4679 0.3583 0.6761
C22_6 C 0.4961(2) 0.3099(2) 0.7090(2)
O6_4 O 0.29790(14) 0.71773(16) 0.4614(2)
O7_4 O 0.30001(12) 0.71646(13) 0.53112(17)
C23_6 C 0.50188(19) 0.5351(2) 0.56139(19)
H15_6 H 0.4821 0.5372 0.5809
C24_6 C 0.5043(2) 0.56264(18) 0.5300(3)
C25_6 C 0.47034(11) 0.59258(12) 0.5283(2)
C26_6 C 0.4512(2) 0.60613(16) 0.56282(14)
H16_6 H 0.4605 0.5983 0.5879
C27_6 C 0.41811(19) 0.63133(15) 0.55978(17)
H17_6 H 0.4053 0.6404 0.5829
C28_6 C 0.40415(12) 0.64298(11) 0.5222(3)
C29_6 C 0.4233(2) 0.62943(16) 0.48775(14)
H18_6 H 0.4139 0.6372 0.4626
C30_6 C 0.45637(19) 0.60423(16) 0.49079(16)
H19_6 H 0.4692 0.5952 0.4677
C31_6 C 0.3673(2) 0.6687(2) 0.5222(2)
H20_6 H 0.3572 0.6753 0.5474
C32_6 C 0.34866(19) 0.6822(2) 0.4934(2)
H21_6 H 0.3583 0.6761 0.4679
C33_6 C 0.3099(2) 0.7090(2) 0.4961(2)
O8_4 O 0.78227(16) 0.4614(2) 0.20210(14)
O9_4 O 0.78354(13) 0.53112(17) 0.19999(12)
H22_6 H 0.9628 0.5809 0.0179
C36_6 C 0.90742(12) 0.5283(2) 0.02966(11)
C37_6 C 0.89387(16) 0.56282(14) 0.0488(2)
H23_6 H 0.9017 0.5879 0.0395
C38_6 C 0.86867(15) 0.55978(17) 0.08189(19)
H24_6 H 0.8596 0.5829 0.0947
C39_6 C 0.85702(11) 0.5222(3) 0.09585(12)
C40_6 C 0.87057(16) 0.48775(14) 0.0767(2)
H25_6 H 0.8628 0.4626 0.0861
C41_6 C 0.89577(16) 0.49079(16) 0.04363(19)
H26_6 H 0.9048 0.4677 0.0308
C42_6 C 0.8313(2) 0.5222(2) 0.1327(2)
H27_6 H 0.8247 0.5474 0.1428
C43_6 C 0.8178(2) 0.4934(2) 0.15134(19)
H28_6 H 0.8239 0.4679 0.1417
C44_6 C 0.7910(2) 0.4961(2) 0.1901(2)
Cu2_4 Cu 0.7500 0.54002(7) 0.2500
O14_8 O 0.7500 0.6125(3) 0.2500
O15_6 O 0.3875(3) 0.2500 0.7500
O17_8 O 0.70210(14) 0.5386(2) 0.21773(16)
O18_8 O 0.79790(14) 0.5386(2) 0.28227(16)
O19_6 O 0.46888(17) 0.28354(13) 0.80001(12)
O20_6 O 0.46888(17) 0.21646(13) 0.69999(12)
O21_4 O 0.69999(12) 0.46888(17) 0.21646(13)
O22_4 O 0.80001(12) 0.46888(17) 0.28354(13)
C34_6 C 0.9649(2) 0.56139(19) 0.99812(19)
C35_6 C 0.93736(18) 0.5300(3) 0.9957(2)
O11_4 O 0.96888(17) 0.30001(12) 0.78354(13)
C45_6 C 0.93861(19) 0.50188(19) 0.9649(2)
H29_6 H 0.9191 0.4821 0.9628
C46_6 C 0.9700(3) 0.5043(2) 0.93736(18)
C47_6 C 0.9717(2) 0.47034(11) 0.90742(12)
C48_6 C 0.93718(14) 0.4512(2) 0.89387(16)
H30_6 H 0.9121 0.4605 0.9017
C49_6 C 0.94022(17) 0.41811(19) 0.86867(15)
H31_6 H 0.9171 0.4053 0.8596
C50_6 C 0.9778(3) 0.40415(12) 0.85702(11)
C53_6 C 0.9778(2) 0.3673(2) 0.8313(2)
H34_6 H 0.9526 0.3572 0.8247
C56_6 C 0.99812(19) 0.5351(2) 0.93861(19)
C57_6 C 0.9957(2) 0.56264(18) 0.9700(3)
O15_7 O 0.2500 0.7500 0.3875(3)
O19_7 O 0.21646(13) 0.69999(12) 0.46888(17)
O20_7 O 0.28354(13) 0.80001(12) 0.46888(17)
O14_9 O 0.8875(3) 0.2500 0.7500
O17_9 O 0.9614(2) 0.28227(16) 0.70210(14)
O18_9 O 0.9614(2) 0.21773(16) 0.79790(14)
O14_10 O 0.6125(3) 0.2500 0.7500
O17_10 O 0.5386(2) 0.28227(16) 0.79790(14)
O18_10 O 0.5386(2) 0.21773(16) 0.70210(14)
O15_8 O 0.2500 0.7500 0.1125(3)
O19_8 O 0.28354(13) 0.69999(12) 0.03112(17)
O20_8 O 0.21646(13) 0.80001(12) 0.03112(17)
O14_11 O 0.2500 0.7500 0.6125(3)
O17_11 O 0.28227(16) 0.79790(14) 0.5386(2)
O18_11 O 0.21773(16) 0.70210(14) 0.5386(2)
O14_12 O 0.2500 0.7500 0.8875(3)
O17_12 O 0.28227(16) 0.70210(14) 0.9614(2)
O18_12 O 0.21773(16) 0.79790(14) 0.9614(2)
H1_7 H 0.0809 0.0372 0.9821
C3_7 C 0.0283(2) 0.09258(12) 0.97034(11)
C4_7 C 0.06282(14) 0.10613(16) 0.9512(2)
H2_7 H 0.0879 0.0983 0.9605
C5_7 C 0.05978(17) 0.13133(15) 0.91811(19)
H3_7 H 0.0829 0.1404 0.9053
C6_7 C 0.0222(3) 0.14298(11) 0.90415(12)
C9_7 C 0.0222(2) 0.1687(2) 0.8673(2)
H6_7 H 0.0474 0.1753 0.8572
C34_7 C 0.06139(19) 0.4649(2) 0.49812(19)
H22_7 H 0.0809 0.4628 0.5179
C35_7 C 0.0300(3) 0.43736(18) 0.4957(2)
C36_7 C 0.0283(2) 0.40742(12) 0.52966(11)
C37_7 C 0.06282(14) 0.39387(16) 0.5488(2)
H23_7 H 0.0879 0.4017 0.5395
C38_7 C 0.05978(17) 0.36867(15) 0.58189(19)
H24_7 H 0.0829 0.3596 0.5947
C39_7 C 0.0222(3) 0.35702(11) 0.59585(12)
C42_7 C 0.0222(2) 0.3313(2) 0.6327(2)
H27_7 H 0.0474 0.3247 0.6428
C45_7 C 0.00188(19) 0.43861(19) 0.4649(2)
C46_7 C 0.0043(2) 0.4700(3) 0.43736(18)
C56_7 C 0.0351(2) 0.49812(19) 0.43861(19)
H36_7 H 0.0372 0.5179 0.4191
C57_7 C 0.06264(18) 0.4957(2) 0.4700(3)
C58_7 C 0.09258(12) 0.52966(11) 0.4717(2)
C59_7 C 0.10613(16) 0.5488(2) 0.43718(14)
H37_7 H 0.0983 0.5395 0.4121
C60_7 C 0.13133(15) 0.58189(19) 0.44022(17)
H38_7 H 0.1404 0.5947 0.4171
C61_7 C 0.14298(11) 0.59585(12) 0.4778(3)
C62_7 C 0.12943(16) 0.5767(2) 0.51225(14)
H39_7 H 0.1372 0.5861 0.5374
C63_7 C 0.10423(16) 0.54363(19) 0.50921(16)
H40_7 H 0.0952 0.5308 0.5323
C64_7 C 0.1687(2) 0.6327(2) 0.4778(2)
H41_7 H 0.1753 0.6428 0.4526
C65_7 C 0.1822(2) 0.65134(19) 0.5066(2)
H42_7 H 0.1761 0.6417 0.5321
C66_7 C 0.2090(2) 0.6901(2) 0.5039(2)
H15_7 H 0.0372 0.9821 0.0809
C25_7 C 0.09258(12) 0.97034(11) 0.0283(2)
C26_7 C 0.10613(16) 0.9512(2) 0.06282(14)
H16_7 H 0.0983 0.9605 0.0879
C27_7 C 0.13133(15) 0.91811(19) 0.05978(17)
H17_7 H 0.1404 0.9053 0.0829
C28_7 C 0.14298(11) 0.90415(12) 0.0222(3)
C31_7 C 0.1687(2) 0.8673(2) 0.0222(2)
H20_7 H 0.1753 0.8572 0.0474
C29_7 C 0.12943(16) 0.9233(2) 0.98775(14)
H18_7 H 0.1372 0.9139 0.9626
C30_7 C 0.10423(16) 0.95637(19) 0.99079(16)
H19_7 H 0.0952 0.9692 0.9677
C32_7 C 0.1822(2) 0.84866(19) 0.9934(2)
H21_7 H 0.1761 0.8583 0.9679
C33_7 C 0.2090(2) 0.8099(2) 0.9961(2)
H8_7 H 0.9821 0.0809 0.0372
C14_7 C 0.97034(11) 0.0283(2) 0.09258(12)
C15_7 C 0.9512(2) 0.06282(14) 0.10613(16)
H9_7 H 0.9605 0.0879 0.0983
C16_7 C 0.91811(19) 0.05978(17) 0.13133(15)
H10_7 H 0.9053 0.0829 0.1404
C17_7 C 0.90415(12) 0.0222(3) 0.14298(11)
C20_7 C 0.8673(2) 0.0222(2) 0.1687(2)
H13_7 H 0.8572 0.0474 0.1753
C7_7 C 0.98775(14) 0.12943(16) 0.9233(2)
H4_7 H 0.9626 0.1372 0.9139
C8_7 C 0.99079(16) 0.10423(16) 0.95637(19)
H5_7 H 0.9677 0.0952 0.9692
C10_7 C 0.9934(2) 0.1822(2) 0.84866(19)
H7_7 H 0.9679 0.1761 0.8583
C11_7 C 0.9961(2) 0.2090(2) 0.8099(2)
C40_7 C 0.98775(14) 0.37057(16) 0.5767(2)
H25_7 H 0.9626 0.3628 0.5861
C41_7 C 0.99079(16) 0.39577(16) 0.54363(19)
H26_7 H 0.9677 0.4048 0.5308
C43_7 C 0.9934(2) 0.3178(2) 0.65134(19)
H28_7 H 0.9679 0.3239 0.6417
C44_7 C 0.9961(2) 0.2910(2) 0.6901(2)
H29_7 H 0.9821 0.4191 0.4628
C47_7 C 0.97034(11) 0.4717(2) 0.40742(12)
C48_7 C 0.9512(2) 0.43718(14) 0.39387(16)
H30_7 H 0.9605 0.4121 0.4017
C49_7 C 0.91811(19) 0.44022(17) 0.36867(15)
H31_7 H 0.9053 0.4171 0.3596
C50_7 C 0.90415(12) 0.4778(3) 0.35702(11)
C51_7 C 0.9233(2) 0.51225(14) 0.37057(16)
H32_7 H 0.9139 0.5374 0.3628
C52_7 C 0.95637(19) 0.50921(16) 0.39577(16)
H33_7 H 0.9692 0.5323 0.4048
C53_7 C 0.8673(2) 0.4778(2) 0.3313(2)
H34_7 H 0.8572 0.4526 0.3247
C54_7 C 0.84866(19) 0.5066(2) 0.3178(2)
H35_7 H 0.8583 0.5321 0.3239
C55_7 C 0.8099(2) 0.5039(2) 0.2910(2)
C18_7 C 0.9233(2) 0.98775(14) 0.12943(16)
H11_7 H 0.9139 0.9626 0.1372
C19_7 C 0.95637(19) 0.99079(16) 0.10423(16)
H12_7 H 0.9692 0.9677 0.0952
C21_7 C 0.84866(19) 0.9934(2) 0.1822(2)
H14_7 H 0.8583 0.9679 0.1761
C22_7 C 0.8099(2) 0.9961(2) 0.2090(2)
C1_7 C 0.43861(19) 0.4649(2) 0.00188(19)
C2_7 C 0.4700(3) 0.43736(18) 0.0043(2)
C12_7 C 0.49812(19) 0.43861(19) 0.0351(2)
H8_8 H 0.5179 0.4191 0.0372
C13_7 C 0.4957(2) 0.4700(3) 0.06264(18)
C14_8 C 0.52966(11) 0.4717(2) 0.09258(12)
C15_8 C 0.5488(2) 0.43718(14) 0.10613(16)
H9_8 H 0.5395 0.4121 0.0983
C16_8 C 0.58189(19) 0.44022(17) 0.13133(15)
H10_8 H 0.5947 0.4171 0.1404
C17_8 C 0.59585(12) 0.4778(3) 0.14298(11)
C18_8 C 0.5767(2) 0.51225(14) 0.12943(16)
H11_8 H 0.5861 0.5374 0.1372
C19_8 C 0.54363(19) 0.50921(16) 0.10423(16)
H12_8 H 0.5308 0.5323 0.0952
C20_8 C 0.6327(2) 0.4778(2) 0.1687(2)
H13_8 H 0.6428 0.4526 0.1753
C21_8 C 0.65134(19) 0.5066(2) 0.1822(2)
H14_8 H 0.6417 0.5321 0.1761
C22_8 C 0.6901(2) 0.5039(2) 0.2090(2)
C23_7 C 0.4649(2) 0.49812(19) 0.06139(19)
H15_8 H 0.4628 0.5179 0.0809
C24_7 C 0.43736(18) 0.4957(2) 0.0300(3)
C25_8 C 0.40742(12) 0.52966(11) 0.0283(2)
C26_8 C 0.39387(16) 0.5488(2) 0.06282(14)
H16_8 H 0.4017 0.5395 0.0879
C27_8 C 0.36867(15) 0.58189(19) 0.05978(17)
H17_8 H 0.3596 0.5947 0.0829
C28_8 C 0.35702(11) 0.59585(12) 0.0222(3)
C31_8 C 0.3313(2) 0.6327(2) 0.0222(2)
H20_8 H 0.3247 0.6428 0.0474
H1_8 H 0.4191 0.4628 0.9821
C3_8 C 0.4717(2) 0.40742(12) 0.97034(11)
C4_8 C 0.43718(14) 0.39387(16) 0.9512(2)
H2_8 H 0.4121 0.4017 0.9605
C5_8 C 0.44022(17) 0.36867(15) 0.91811(19)
H3_8 H 0.4171 0.3596 0.9053
C6_8 C 0.4778(3) 0.35702(11) 0.90415(12)
C7_8 C 0.51225(14) 0.37057(16) 0.9233(2)
H4_8 H 0.5374 0.3628 0.9139
C8_8 C 0.50921(16) 0.39577(16) 0.95637(19)
H5_8 H 0.5323 0.4048 0.9692
C9_8 C 0.4778(2) 0.3313(2) 0.8673(2)
H6_8 H 0.4526 0.3247 0.8572
C10_8 C 0.5066(2) 0.3178(2) 0.84866(19)
H7_8 H 0.5321 0.3239 0.8583
C11_8 C 0.5039(2) 0.2910(2) 0.8099(2)
C29_8 C 0.37057(16) 0.5767(2) 0.98775(14)
H18_8 H 0.3628 0.5861 0.9626
C30_8 C 0.39577(16) 0.54363(19) 0.99079(16)
H19_8 H 0.4048 0.5308 0.9677
C32_8 C 0.3178(2) 0.65134(19) 0.9934(2)
H21_8 H 0.3239 0.6417 0.9679
C33_8 C 0.2910(2) 0.6901(2) 0.9961(2)
C34_8 C 0.43861(19) 0.0351(2) 0.49812(19)
H22_8 H 0.4191 0.0372 0.5179
C35_8 C 0.4700(3) 0.06264(18) 0.4957(2)
C36_8 C 0.4717(2) 0.09258(12) 0.52966(11)
C37_8 C 0.43718(14) 0.10613(16) 0.5488(2)
H23_8 H 0.4121 0.0983 0.5395
C38_8 C 0.44022(17) 0.13133(15) 0.58189(19)
H24_8 H 0.4171 0.1404 0.5947
C39_8 C 0.4778(3) 0.14298(11) 0.59585(12)
C40_8 C 0.51225(14) 0.12943(16) 0.5767(2)
H25_8 H 0.5374 0.1372 0.5861
C41_8 C 0.50921(16) 0.10423(16) 0.54363(19)
H26_8 H 0.5323 0.0952 0.5308
C42_8 C 0.4778(2) 0.1687(2) 0.6327(2)
H27_8 H 0.4526 0.1753 0.6428
C43_8 C 0.5066(2) 0.1822(2) 0.65134(19)
H28_8 H 0.5321 0.1761 0.6417
C44_8 C 0.5039(2) 0.2090(2) 0.6901(2)
C45_8 C 0.49812(19) 0.06139(19) 0.4649(2)
H29_8 H 0.5179 0.0809 0.4628
C46_8 C 0.4957(2) 0.0300(3) 0.43736(18)
C47_8 C 0.52966(11) 0.0283(2) 0.40742(12)
C48_8 C 0.5488(2) 0.06282(14) 0.39387(16)
H30_8 H 0.5395 0.0879 0.4017
C49_8 C 0.58189(19) 0.05978(17) 0.36867(15)
H31_8 H 0.5947 0.0829 0.3596
C50_8 C 0.59585(12) 0.0222(3) 0.35702(11)
C53_8 C 0.6327(2) 0.0222(2) 0.3313(2)
H34_8 H 0.6428 0.0474 0.3247
C56_8 C 0.4649(2) 0.00188(19) 0.43861(19)
C57_8 C 0.43736(18) 0.0043(2) 0.4700(3)
C51_8 C 0.5767(2) 0.98775(14) 0.37057(16)
H32_8 H 0.5861 0.9626 0.3628
C52_8 C 0.54363(19) 0.99079(16) 0.39577(16)
H33_8 H 0.5308 0.9677 0.4048
C54_8 C 0.65134(19) 0.9934(2) 0.3178(2)
H35_8 H 0.6417 0.9679 0.3239
C55_8 C 0.6901(2) 0.9961(2) 0.2910(2)
H36_8 H 0.4628 0.9821 0.4191
C58_8 C 0.40742(12) 0.97034(11) 0.4717(2)
C59_8 C 0.39387(16) 0.9512(2) 0.43718(14)
H37_8 H 0.4017 0.9605 0.4121
C60_8 C 0.36867(15) 0.91811(19) 0.44022(17)
H38_8 H 0.3596 0.9053 0.4171
C61_8 C 0.35702(11) 0.90415(12) 0.4778(3)
C62_8 C 0.37057(16) 0.9233(2) 0.51225(14)
H39_8 H 0.3628 0.9139 0.5374
C63_8 C 0.39577(16) 0.95637(19) 0.50921(16)
H40_8 H 0.4048 0.9692 0.5323
C64_8 C 0.3313(2) 0.8673(2) 0.4778(2)
H41_8 H 0.3247 0.8572 0.4526
C65_8 C 0.3178(2) 0.84866(19) 0.5066(2)
H42_8 H 0.3239 0.8583 0.5321
C66_8 C 0.2910(2) 0.8099(2) 0.5039(2)
C1_8 C 0.06139(19) 0.0351(2) 0.00188(19)
C2_8 C 0.0300(3) 0.06264(18) 0.0043(2)
C12_8 C 0.00188(19) 0.06139(19) 0.0351(2)
C13_8 C 0.0043(2) 0.0300(3) 0.06264(18)
C23_8 C 0.0351(2) 0.00188(19) 0.06139(19)
C24_8 C 0.06264(18) 0.0043(2) 0.0300(3)
loop_
_geom_bond_atom_site_label_1
_geom_bond_atom_site_label_2
_geom_bond_site_symmetry_1
_geom_bond_site_symmetry_2
O4 C22 1_555 1_555
H11 C18 1_555 1_555
H12 C19 1_555 1_555
H14 C21 1_555 1_555
C22 C21 1_555 1_555
Cu3 O4 1_555 1_555
O15 Cu3 1_555 1_555
O16 Cu3 1_555 1_555
O19 Cu3 1_555 1_555
O20 Cu3 1_555 1_555
C18 C19 1_555 1_555
Cu1 O1 1_555 1_555
O1 C11 1_555 1_555
O3 Cu1 1_555 1_555
H4 C7 1_555 1_555
H5 C8 1_555 1_555
H7 C10 1_555 1_555
C11 C10 1_555 1_555
O8 Cu1 1_555 1_555
H25 C40 1_555 1_555
H26 C41 1_555 1_555
H28 C43 1_555 1_555
C44 O8 1_555 1_555
O10 C55 1_555 1_555
O11 C55 1_555 1_555
C48 C47 1_555 1_555
H30 C48 1_555 1_555
C49 C48 1_555 1_555
H31 C49 1_555 1_555
C50 C49 1_555 1_555
C51 C50 1_555 1_555
H32 C51 1_555 1_555
C52 C47 1_555 1_555
H33 C52 1_555 1_555
C53 C50 1_555 1_555
H34 C53 1_555 1_555
C54 C53 1_555 1_555
H35 C54 1_555 1_555
C55 C54 1_555 1_555
Cu4 O10 1_555 1_555
Cu8 O11 1_555 1_555
O21 Cu1 1_555 1_555
O22 Cu1 1_555 1_555
C7 C8 1_555 1_555
C40 C41 1_555 1_555
C43 C44 1_555 1_555
C51 C52 1_555 1_555
Cu4 Cu8 1_555 1_555
C15 C14 1_555 1_555
H9 C15 1_555 1_555
C16 C15 1_555 1_555
H10 C16 1_555 1_555
C17 C16 1_555 1_555
C20 C17 1_555 1_555
H13 C20 1_555 1_555
Cu7 O5 1_555 1_555
O6 C33 1_555 1_555
H18 C29 1_555 1_555
H19 C30 1_555 1_555
H21 C32 1_555 1_555
C33 C32 1_555 1_555
Cu5 O6 1_555 1_555
C29 C30 1_555 1_555
C26 C25 1_555 1_555
H16 C26 1_555 1_555
C27 C26 1_555 1_555
H17 C27 1_555 1_555
C28 C27 1_555 1_555
C31 C28 1_555 1_555
H20 C31 1_555 1_555
Cu10 O7 1_555 1_555
C4 C3 1_555 1_555
H2 C4 1_555 1_555
C5 C4 1_555 1_555
H3 C5 1_555 1_555
C6 C5 1_555 1_555
C9 C6 1_555 1_555
H6 C9 1_555 1_555
C34 H22 1_555 1_555
C35 C34 1_555 1_555
C36 C35 1_555 1_555
C37 C36 1_555 1_555
H23 C37 1_555 1_555
C38 C37 1_555 1_555
H24 C38 1_555 1_555
C39 C38 1_555 1_555
C42 C39 1_555 1_555
H27 C42 1_555 1_555
C45 C35 1_555 1_555
C46 C45 1_555 1_555
O12 C66 1_555 1_555
O13 C66 1_555 1_555
C56 C46 1_555 1_555
H36 C56 1_555 1_555
C57 C34 1_555 1_555
C58 C57 1_555 1_555
C59 C58 1_555 1_555
H37 C59 1_555 1_555
C60 C59 1_555 1_555
H38 C60 1_555 1_555
C61 C60 1_555 1_555
C62 C61 1_555 1_555
H39 C62 1_555 1_555
C63 C58 1_555 1_555
H40 C63 1_555 1_555
C64 C61 1_555 1_555
H41 C64 1_555 1_555
C65 C64 1_555 1_555
H42 C65 1_555 1_555
C66 C65 1_555 1_555
O14 Cu2 1_555 1_555
Cu6 O12 1_555 1_555
Cu9 O13 1_555 1_555
O17 Cu2 1_555 1_555
O18 Cu2 1_555 1_555
O2 Cu2 1_555 1_555
O9 Cu2 1_555 1_555
C56 C57 1_555 1_555
C62 C63 1_555 1_555
Cu6 Cu9 1_555 1_555
O16 C55_2 1_555 1_555
H32_2 C51_2 1_555 1_555
H33_2 C52_2 1_555 1_555
H35_2 C54_2 1_555 1_555
C55_2 C54_2 1_555 1_555
O12_2 C66_2 1_555 1_555
O13_2 C66_2 1_555 1_555
C59_2 C58_2 1_555 1_555
H37_2 C59_2 1_555 1_555
C60_2 C59_2 1_555 1_555
H38_2 C60_2 1_555 1_555
C61_2 C60_2 1_555 1_555
C62_2 C61_2 1_555 1_555
H39_2 C62_2 1_555 1_555
C63_2 C58_2 1_555 1_555
H40_2 C63_2 1_555 1_555
C64_2 C61_2 1_555 1_555
H41_2 C64_2 1_555 1_555
C65_2 C64_2 1_555 1_555
H42_2 C65_2 1_555 1_555
C66_2 C65_2 1_555 1_555
Cu6 O12_2 1_555 1_555
Cu9 O13_2 1_555 1_555
C51_2 C52_2 1_555 1_555
C62_2 C63_2 1_555 1_555
Cu1_2 O1_2 1_555 1_555
O1_2 C11_2 1_555 1_555
O2_2 C11_2 1_555 1_555
O3_2 Cu1_2 1_555 1_555
C4_2 C3_2 1_555 1_555
H2_2 C4_2 1_555 1_555
C5_2 C4_2 1_555 1_555
H3_2 C5_2 1_555 1_555
C6_2 C5_2 1_555 1_555
C7_2 C6_2 1_555 1_555
H4_2 C7_2 1_555 1_555
C8_2 C3_2 1_555 1_555
H5_2 C8_2 1_555 1_555
C9_2 C6_2 1_555 1_555
H6_2 C9_2 1_555 1_555
C10_2 C9_2 1_555 1_555
H7_2 C10_2 1_555 1_555
C11_2 C10_2 1_555 1_555
O6_2 C33_2 1_555 1_555
H18_2 C29_2 1_555 1_555
H19_2 C30_2 1_555 1_555
H21_2 C32_2 1_555 1_555
C33_2 C32_2 1_555 1_555
O8_2 Cu1_2 1_555 1_555
O9_2 C44_2 1_555 1_555
C34_2 H22_2 1_555 1_555
C35_2 C34_2 1_555 1_555
C36_2 C35_2 1_555 1_555
C37_2 C36_2 1_555 1_555
H23_2 C37_2 1_555 1_555
C38_2 C37_2 1_555 1_555
H24_2 C38_2 1_555 1_555
C39_2 C38_2 1_555 1_555
C40_2 C39_2 1_555 1_555
H25_2 C40_2 1_555 1_555
C41_2 C36_2 1_555 1_555
H26_2 C41_2 1_555 1_555
C42_2 C39_2 1_555 1_555
H27_2 C42_2 1_555 1_555
C43_2 C42_2 1_555 1_555
H28_2 C43_2 1_555 1_555
C44_2 O8_2 1_555 1_555
C45_2 C35_2 1_555 1_555
H29_2 C45_2 1_555 1_555
C46_2 C45_2 1_555 1_555
C47_2 C46_2 1_555 1_555
C48_2 C47_2 1_555 1_555
H30_2 C48_2 1_555 1_555
C49_2 C48_2 1_555 1_555
H31_2 C49_2 1_555 1_555
C50_2 C49_2 1_555 1_555
C53_2 C50_2 1_555 1_555
H34_2 C53_2 1_555 1_555
C56_2 C46_2 1_555 1_555
C57_2 C34_2 1_555 1_555
Cu2_2 Cu1_2 1_555 1_555
O14_2 Cu2_2 1_555 1_555
Cu5 O6_2 1_555 1_555
Cu7 O11_2 1_555 1_555
O17_2 Cu2_2 1_555 1_555
O18_2 Cu2_2 1_555 1_555
O21_2 Cu1_2 1_555 1_555
O22_2 Cu1_2 1_555 1_555
O2_2 Cu2_2 1_555 1_555
C7_2 C8_2 1_555 1_555
C29_2 C30_2 1_555 1_555
O9_2 Cu2_2 1_555 1_555
C40_2 C41_2 1_555 1_555
C43_2 C44_2 1_555 1_555
C56_2 C57_2 1_555 1_555
C2 C1 1_555 1_555
O4_2 C22_2 1_555 1_555
O5_2 C22_2 1_555 1_555
C12 C2 1_555 1_555
H8_2 C12 1_555 1_555
C13 C12 1_555 1_555
C14_2 C13 1_555 1_555
C15_2 C14_2 1_555 1_555
H9_2 C15_2 1_555 1_555
C16_2 C15_2 1_555 1_555
H10_2 C16_2 1_555 1_555
C17_2 C16_2 1_555 1_555
C18_2 C17_2 1_555 1_555
H11_2 C18_2 1_555 1_555
C19_2 C14_2 1_555 1_555
H12_2 C19_2 1_555 1_555
C20_2 C17_2 1_555 1_555
H13_2 C20_2 1_555 1_555
C21_2 C20_2 1_555 1_555
H14_2 C21_2 1_555 1_555
C22_2 C21_2 1_555 1_555
C23 C13 1_555 1_555
H15_2 C23 1_555 1_555
C24 C1 1_555 1_555
C25_2 C24 1_555 1_555
C26_2 C25_2 1_555 1_555
H16_2 C26_2 1_555 1_555
C27_2 C26_2 1_555 1_555
H17_2 C27_2 1_555 1_555
C28_2 C27_2 1_555 1_555
C31_2 C28_2 1_555 1_555
H20_2 C31_2 1_555 1_555
Cu4 O4_2 1_555 1_555
O15_2 Cu4 1_555 1_555
Cu8 O5_2 1_555 1_555
Cu10 O7_2 1_555 1_555
O19_2 Cu4 1_555 1_555
O20_2 Cu4 1_555 1_555
C18_2 C19_2 1_555 1_555
C23 C24 1_555 1_555
O14_3 Cu7 1_555 1_555
O17_3 Cu7 1_555 1_555
O18_3 Cu7 1_555 1_555
O15_3 Cu5 1_555 1_555
O19_3 Cu5 1_555 1_555
O20_3 Cu5 1_555 1_555
O14_4 Cu8 1_555 1_555
O17_4 Cu8 1_555 1_555
O18_4 Cu8 1_555 1_555
O15_4 Cu6 1_555 1_555
O19_4 Cu6 1_555 1_555
O20_4 Cu6 1_555 1_555
O14_5 Cu10 1_555 1_555
O17_5 Cu10 1_555 1_555
O18_5 Cu10 1_555 1_555
O14_6 Cu9 1_555 1_555
O17_6 Cu9 1_555 1_555
O18_6 Cu9 1_555 1_555
C35_3 C34_3 1_555 1_555
C45_3 C35_3 1_555 1_555
C46_3 C45_3 1_555 1_555
C56_3 C46_3 1_555 1_555
H36_3 C56_3 1_555 1_555
C57_3 C34_3 1_555 1_555
C58_3 C57_3 1_555 1_555
C59_3 C58_3 1_555 1_555
H37_3 C59_3 1_555 1_555
C60_3 C59_3 1_555 1_555
H38_3 C60_3 1_555 1_555
C61_3 C60_3 1_555 1_555
C64_3 C61_3 1_555 1_555
H41_3 C64_3 1_555 1_555
C56_3 C57_3 1_555 1_555
C1_2 H1_3 1_555 1_555
C2_2 C1_2 1_555 1_555
C3_3 C2_2 1_555 1_555
C4_3 C3_3 1_555 1_555
H2_3 C4_3 1_555 1_555
C5_3 C4_3 1_555 1_555
H3_3 C5_3 1_555 1_555
C6_3 C5_3 1_555 1_555
C9_3 C6_3 1_555 1_555
H6_3 C9_3 1_555 1_555
C12_2 C2_2 1_555 1_555
C13_2 C12_2 1_555 1_555
C23_2 C13_2 1_555 1_555
C24_2 C1_2 1_555 1_555
C37_3 C36_3 1_555 1_555
H23_3 C37_3 1_555 1_555
C38_3 C37_3 1_555 1_555
H24_3 C38_3 1_555 1_555
C39_3 C38_3 1_555 1_555
C42_3 C39_3 1_555 1_555
H27_3 C42_3 1_555 1_555
O18_5 C66_3 1_555 1_555
H39_3 C62_3 1_555 1_555
H40_3 C63_3 1_555 1_555
H42_3 C65_3 1_555 1_555
C66_3 C65_3 1_555 1_555
C23_2 C24_2 1_555 1_555
C62_3 C63_3 1_555 1_555
O18_2 C55_3 1_555 1_555
O22_2 C55_3 1_555 1_555
C48_3 C47_3 1_555 1_555
H30_3 C48_3 1_555 1_555
C49_3 C48_3 1_555 1_555
H31_3 C49_3 1_555 1_555
C50_3 C49_3 1_555 1_555
C51_3 C50_3 1_555 1_555
H32_3 C51_3 1_555 1_555
C52_3 C47_3 1_555 1_555
H33_3 C52_3 1_555 1_555
C53_3 C50_3 1_555 1_555
H34_3 C53_3 1_555 1_555
C54_3 C53_3 1_555 1_555
H35_3 C54_3 1_555 1_555
C55_3 C54_3 1_555 1_555
C51_3 C52_3 1_555 1_555
O18_3 C11_3 1_555 1_555
H4_3 C7_3 1_555 1_555
H5_3 C8_3 1_555 1_555
H7_3 C10_3 1_555 1_555
C11_3 C10_3 1_555 1_555
C15_3 C14_3 1_555 1_555
H9_3 C15_3 1_555 1_555
C16_3 C15_3 1_555 1_555
H10_3 C16_3 1_555 1_555
C17_3 C16_3 1_555 1_555
C20_3 C17_3 1_555 1_555
H13_3 C20_3 1_555 1_555
H25_3 C40_3 1_555 1_555
H26_3 C41_3 1_555 1_555
H28_3 C43_3 1_555 1_555
C44_3 O17_3 1_555 1_555
C7_3 C8_3 1_555 1_555
C40_3 C41_3 1_555 1_555
C43_3 C44_3 1_555 1_555
O18_6 C33_3 1_555 1_555
O20_4 C33_3 1_555 1_555
C26_3 C25_3 1_555 1_555
H16_3 C26_3 1_555 1_555
C27_3 C26_3 1_555 1_555
H17_3 C27_3 1_555 1_555
C28_3 C27_3 1_555 1_555
C29_3 C28_3 1_555 1_555
H18_3 C29_3 1_555 1_555
C30_3 C25_3 1_555 1_555
H19_3 C30_3 1_555 1_555
C31_3 C28_3 1_555 1_555
H20_3 C31_3 1_555 1_555
C32_3 C31_3 1_555 1_555
H21_3 C32_3 1_555 1_555
C33_3 C32_3 1_555 1_555
C29_3 C30_3 1_555 1_555
O17 C22_3 1_555 1_555
H11_3 C18_3 1_555 1_555
H12_3 C19_3 1_555 1_555
H14_3 C21_3 1_555 1_555
C22_3 C21_3 1_555 1_555
C18_3 C19_3 1_555 1_555
C35_4 C34_4 1_555 1_555
C45_4 C35_4 1_555 1_555
H29_4 C45_4 1_555 1_555
C46_4 C45_4 1_555 1_555
C47_4 C46_4 1_555 1_555
C48_4 C47_4 1_555 1_555
H30_4 C48_4 1_555 1_555
C49_4 C48_4 1_555 1_555
H31_4 C49_4 1_555 1_555
C50_4 C49_4 1_555 1_555
C53_4 C50_4 1_555 1_555
H34_4 C53_4 1_555 1_555
C56_4 C46_4 1_555 1_555
C57_4 C34_4 1_555 1_555
C56_4 C57_4 1_555 1_555
O17_4 C11_4 1_555 1_555
O19_2 C11_4 1_555 1_555
C1_3 H1_4 1_555 1_555
C2_3 C1_3 1_555 1_555
C3_4 C2_3 1_555 1_555
C4_4 C3_4 1_555 1_555
H2_4 C4_4 1_555 1_555
C5_4 C4_4 1_555 1_555
H3_4 C5_4 1_555 1_555
C6_4 C5_4 1_555 1_555
C7_4 C6_4 1_555 1_555
H4_4 C7_4 1_555 1_555
C8_4 C3_4 1_555 1_555
H5_4 C8_4 1_555 1_555
C9_4 C6_4 1_555 1_555
H6_4 C9_4 1_555 1_555
C10_4 C9_4 1_555 1_555
H7_4 C10_4 1_555 1_555
C11_4 C10_4 1_555 1_555
O17_2 C22_4 1_555 1_555
O21_2 C22_4 1_555 1_555
C12_3 C2_3 1_555 1_555
H8_4 C12_3 1_555 1_555
C13_3 C12_3 1_555 1_555
C14_4 C13_3 1_555 1_555
C15_4 C14_4 1_555 1_555
H9_4 C15_4 1_555 1_555
C16_4 C15_4 1_555 1_555
H10_4 C16_4 1_555 1_555
C17_4 C16_4 1_555 1_555
C18_4 C17_4 1_555 1_555
H11_4 C18_4 1_555 1_555
C19_4 C14_4 1_555 1_555
H12_4 C19_4 1_555 1_555
C20_4 C17_4 1_555 1_555
H13_4 C20_4 1_555 1_555
C21_4 C20_4 1_555 1_555
H14_4 C21_4 1_555 1_555
C22_4 C21_4 1_555 1_555
O17_6 C33_4 1_555 1_555
O19_4 C33_4 1_555 1_555
C23_3 C13_3 1_555 1_555
H15_4 C23_3 1_555 1_555
C24_3 C1_3 1_555 1_555
C25_4 C24_3 1_555 1_555
C26_4 C25_4 1_555 1_555
H16_4 C26_4 1_555 1_555
C27_4 C26_4 1_555 1_555
H17_4 C27_4 1_555 1_555
C28_4 C27_4 1_555 1_555
C29_4 C28_4 1_555 1_555
H18_4 C29_4 1_555 1_555
C30_4 C25_4 1_555 1_555
H19_4 C30_4 1_555 1_555
C31_4 C28_4 1_555 1_555
H20_4 C31_4 1_555 1_555
C32_4 C31_4 1_555 1_555
H21_4 C32_4 1_555 1_555
C33_4 C32_4 1_555 1_555
O20_2 C44_4 1_555 1_555
C37_4 C36_4 1_555 1_555
H23_4 C37_4 1_555 1_555
C38_4 C37_4 1_555 1_555
H24_4 C38_4 1_555 1_555
C39_4 C38_4 1_555 1_555
C40_4 C39_4 1_555 1_555
H25_4 C40_4 1_555 1_555
C41_4 C36_4 1_555 1_555
H26_4 C41_4 1_555 1_555
C42_4 C39_4 1_555 1_555
H27_4 C42_4 1_555 1_555
C43_4 C42_4 1_555 1_555
H28_4 C43_4 1_555 1_555
C44_4 O18_4 1_555 1_555
C7_4 C8_4 1_555 1_555
C18_4 C19_4 1_555 1_555
C23_3 C24_3 1_555 1_555
C29_4 C30_4 1_555 1_555
C40_4 C41_4 1_555 1_555
C43_4 C44_4 1_555 1_555
O18 C55_4 1_555 1_555
H32_4 C51_4 1_555 1_555
H33_4 C52_4 1_555 1_555
H35_4 C54_4 1_555 1_555
C55_4 C54_4 1_555 1_555
C59_4 C58_4 1_555 1_555
H37_4 C59_4 1_555 1_555
C60_4 C59_4 1_555 1_555
H38_4 C60_4 1_555 1_555
C61_4 C60_4 1_555 1_555
C64_4 C61_4 1_555 1_555
H41_4 C64_4 1_555 1_555
C51_4 C52_4 1_555 1_555
O17_5 C66_4 1_555 1_555
H39_4 C62_4 1_555 1_555
H40_4 C63_4 1_555 1_555
H42_4 C65_4 1_555 1_555
C66_4 C65_4 1_555 1_555
C62_4 C63_4 1_555 1_555
C2_4 C1_4 1_555 1_555
C12_4 C2_4 1_555 1_555
C13_4 C12_4 1_555 1_555
C23_4 C13_4 1_555 1_555
C24_4 C1_4 1_555 1_555
C23_4 C24_4 1_555 1_555
O4_3 C22_5 1_555 1_555
H11_5 C18_5 1_555 1_555
H12_5 C19_5 1_555 1_555
H14_5 C21_5 1_555 1_555
C22_5 C21_5 1_555 1_555
Cu3_2 O4_3 1_555 1_555
O15_5 Cu3_2 1_555 1_555
O16_2 Cu3_2 1_555 1_555
O19_5 Cu3_2 1_555 1_555
O20_5 Cu3_2 1_555 1_555
C18_5 C19_5 1_555 1_555
O6_3 C33_5 1_555 1_555
O7_3 C33_5 1_555 1_555
C26_5 C25_5 1_555 1_555
H16_5 C26_5 1_555 1_555
C27_5 C26_5 1_555 1_555
H17_5 C27_5 1_555 1_555
C28_5 C27_5 1_555 1_555
C29_5 C28_5 1_555 1_555
H18_5 C29_5 1_555 1_555
C30_5 C25_5 1_555 1_555
H19_5 C30_5 1_555 1_555
C31_5 C28_5 1_555 1_555
H20_5 C31_5 1_555 1_555
C32_5 C31_5 1_555 1_555
H21_5 C32_5 1_555 1_555
C33_5 C32_5 1_555 1_555
Cu5_2 O6_3 1_555 1_555
Cu10_2 O7_3 1_555 1_555
C29_5 C30_5 1_555 1_555
Cu5_2 Cu10_2 1_555 1_555
Cu1_3 O1_3 1_555 1_555
O1_3 C11_5 1_555 1_555
O3_3 Cu1_3 1_555 1_555
H4_5 C7_5 1_555 1_555
H5_5 C8_5 1_555 1_555
H7_5 C10_5 1_555 1_555
C11_5 C10_5 1_555 1_555
C15_5 C14_5 1_555 1_555
H9_5 C15_5 1_555 1_555
C16_5 C15_5 1_555 1_555
H10_5 C16_5 1_555 1_555
C17_5 C16_5 1_555 1_555
C20_5 C17_5 1_555 1_555
H13_5 C20_5 1_555 1_555
O8_3 Cu1_3 1_555 1_555
H25_5 C40_5 1_555 1_555
H26_5 C41_5 1_555 1_555
H28_5 C43_5 1_555 1_555
C44_5 O8_3 1_555 1_555
Cu7_2 O5_3 1_555 1_555
O21_3 Cu1_3 1_555 1_555
O22_3 Cu1_3 1_555 1_555
C7_5 C8_5 1_555 1_555
C40_5 C41_5 1_555 1_555
C43_5 C44_5 1_555 1_555
O10_2 C55_5 1_555 1_555
O11_3 C55_5 1_555 1_555
C48_5 C47_5 1_555 1_555
H30_5 C48_5 1_555 1_555
C49_5 C48_5 1_555 1_555
H31_5 C49_5 1_555 1_555
C50_5 C49_5 1_555 1_555
C51_5 C50_5 1_555 1_555
H32_5 C51_5 1_555 1_555
C52_5 C47_5 1_555 1_555
H33_5 C52_5 1_555 1_555
C53_5 C50_5 1_555 1_555
H34_5 C53_5 1_555 1_555
C54_5 C53_5 1_555 1_555
H35_5 C54_5 1_555 1_555
C55_5 C54_5 1_555 1_555
Cu4_2 O10_2 1_555 1_555
Cu8_2 O11_3 1_555 1_555
C51_5 C52_5 1_555 1_555
Cu4_2 Cu8_2 1_555 1_555
C1_5 H1_5 1_555 1_555
C2_5 C1_5 1_555 1_555
C3_5 C2_5 1_555 1_555
C4_5 C3_5 1_555 1_555
H2_5 C4_5 1_555 1_555
C5_5 C4_5 1_555 1_555
H3_5 C5_5 1_555 1_555
C6_5 C5_5 1_555 1_555
C9_5 C6_5 1_555 1_555
H6_5 C9_5 1_555 1_555
C12_5 C2_5 1_555 1_555
C13_5 C12_5 1_555 1_555
C23_5 C13_5 1_555 1_555
C24_5 C1_5 1_555 1_555
C37_5 C36_5 1_555 1_555
H23_5 C37_5 1_555 1_555
C38_5 C37_5 1_555 1_555
H24_5 C38_5 1_555 1_555
C39_5 C38_5 1_555 1_555
C42_5 C39_5 1_555 1_555
H27_5 C42_5 1_555 1_555
O12_3 C66_5 1_555 1_555
H39_5 C62_5 1_555 1_555
H40_5 C63_5 1_555 1_555
H42_5 C65_5 1_555 1_555
C66_5 C65_5 1_555 1_555
O14_7 Cu2_3 1_555 1_555
Cu6_2 O12_3 1_555 1_555
O17_7 Cu2_3 1_555 1_555
O18_7 Cu2_3 1_555 1_555
O2_3 Cu2_3 1_555 1_555
C23_5 C24_5 1_555 1_555
O9_3 Cu2_3 1_555 1_555
C62_5 C63_5 1_555 1_555
C35_5 C34_5 1_555 1_555
C45_5 C35_5 1_555 1_555
C46_5 C45_5 1_555 1_555
C56_5 C46_5 1_555 1_555
H36_5 C56_5 1_555 1_555
C57_5 C34_5 1_555 1_555
C58_5 C57_5 1_555 1_555
C59_5 C58_5 1_555 1_555
H37_5 C59_5 1_555 1_555
C60_5 C59_5 1_555 1_555
H38_5 C60_5 1_555 1_555
C61_5 C60_5 1_555 1_555
C64_5 C61_5 1_555 1_555
H41_5 C64_5 1_555 1_555
Cu9_2 O13_3 1_555 1_555
C56_5 C57_5 1_555 1_555
O12_4 C66_6 1_555 1_555
H39_6 C62_6 1_555 1_555
H40_6 C63_6 1_555 1_555
H42_6 C65_6 1_555 1_555
C66_6 C65_6 1_555 1_555
Cu6_2 O12_4 1_555 1_555
C62_6 C63_6 1_555 1_555
O16_2 C55_6 1_555 1_555
H32_6 C51_6 1_555 1_555
H33_6 C52_6 1_555 1_555
H35_6 C54_6 1_555 1_555
C55_6 C54_6 1_555 1_555
C59_6 C58_6 1_555 1_555
H37_6 C59_6 1_555 1_555
C60_6 C59_6 1_555 1_555
H38_6 C60_6 1_555 1_555
C61_6 C60_6 1_555 1_555
C64_6 C61_6 1_555 1_555
H41_6 C64_6 1_555 1_555
Cu9_2 O13_4 1_555 1_555
C51_6 C52_6 1_555 1_555
Cu1_4 O1_4 1_555 1_555
O1_4 C11_6 1_555 1_555
O2_4 C11_6 1_555 1_555
O3_4 Cu1_4 1_555 1_555
C1_6 H1_6 1_555 1_555
C2_6 C1_6 1_555 1_555
C3_6 C2_6 1_555 1_555
C4_6 C3_6 1_555 1_555
H2_6 C4_6 1_555 1_555
C5_6 C4_6 1_555 1_555
H3_6 C5_6 1_555 1_555
C6_6 C5_6 1_555 1_555
C7_6 C6_6 1_555 1_555
H4_6 C7_6 1_555 1_555
C8_6 C3_6 1_555 1_555
H5_6 C8_6 1_555 1_555
C9_6 C6_6 1_555 1_555
H6_6 C9_6 1_555 1_555
C10_6 C9_6 1_555 1_555
H7_6 C10_6 1_555 1_555
C11_6 C10_6 1_555 1_555
O4_4 C22_6 1_555 1_555
O5_4 C22_6 1_555 1_555
C12_6 C2_6 1_555 1_555
H8_6 C12_6 1_555 1_555
C13_6 C12_6 1_555 1_555
C14_6 C13_6 1_555 1_555
C15_6 C14_6 1_555 1_555
H9_6 C15_6 1_555 1_555
C16_6 C15_6 1_555 1_555
H10_6 C16_6 1_555 1_555
C17_6 C16_6 1_555 1_555
C18_6 C17_6 1_555 1_555
H11_6 C18_6 1_555 1_555
C19_6 C14_6 1_555 1_555
H12_6 C19_6 1_555 1_555
C20_6 C17_6 1_555 1_555
H13_6 C20_6 1_555 1_555
C21_6 C20_6 1_555 1_555
H14_6 C21_6 1_555 1_555
C22_6 C21_6 1_555 1_555
O6_4 C33_6 1_555 1_555
O7_4 C33_6 1_555 1_555
C23_6 C13_6 1_555 1_555
H15_6 C23_6 1_555 1_555
C24_6 C1_6 1_555 1_555
C25_6 C24_6 1_555 1_555
C26_6 C25_6 1_555 1_555
H16_6 C26_6 1_555 1_555
C27_6 C26_6 1_555 1_555
H17_6 C27_6 1_555 1_555
C28_6 C27_6 1_555 1_555
C29_6 C28_6 1_555 1_555
H18_6 C29_6 1_555 1_555
C30_6 C25_6 1_555 1_555
H19_6 C30_6 1_555 1_555
C31_6 C28_6 1_555 1_555
H20_6 C31_6 1_555 1_555
C32_6 C31_6 1_555 1_555
H21_6 C32_6 1_555 1_555
C33_6 C32_6 1_555 1_555
O8_4 Cu1_4 1_555 1_555
O9_4 C44_6 1_555 1_555
C37_6 C36_6 1_555 1_555
H23_6 C37_6 1_555 1_555
C38_6 C37_6 1_555 1_555
H24_6 C38_6 1_555 1_555
C39_6 C38_6 1_555 1_555
C40_6 C39_6 1_555 1_555
H25_6 C40_6 1_555 1_555
C41_6 C36_6 1_555 1_555
H26_6 C41_6 1_555 1_555
C42_6 C39_6 1_555 1_555
H27_6 C42_6 1_555 1_555
C43_6 C42_6 1_555 1_555
H28_6 C43_6 1_555 1_555
C44_6 O8_4 1_555 1_555
Cu2_4 Cu1_4 1_555 1_555
O14_8 Cu2_4 1_555 1_555
Cu4_2 O4_4 1_555 1_555
O15_6 Cu4_2 1_555 1_555
Cu5_2 O6_4 1_555 1_555
Cu8_2 O5_4 1_555 1_555
Cu10_2 O7_4 1_555 1_555
O17_8 Cu2_4 1_555 1_555
O18_8 Cu2_4 1_555 1_555
O19_6 Cu4_2 1_555 1_555
O20_6 Cu4_2 1_555 1_555
O21_4 Cu1_4 1_555 1_555
O22_4 Cu1_4 1_555 1_555
O2_4 Cu2_4 1_555 1_555
C7_6 C8_6 1_555 1_555
C18_6 C19_6 1_555 1_555
C23_6 C24_6 1_555 1_555
C29_6 C30_6 1_555 1_555
O9_4 Cu2_4 1_555 1_555
C40_6 C41_6 1_555 1_555
C43_6 C44_6 1_555 1_555
C35_6 C34_6 1_555 1_555
C45_6 C35_6 1_555 1_555
H29_6 C45_6 1_555 1_555
C46_6 C45_6 1_555 1_555
C47_6 C46_6 1_555 1_555
C48_6 C47_6 1_555 1_555
H30_6 C48_6 1_555 1_555
C49_6 C48_6 1_555 1_555
H31_6 C49_6 1_555 1_555
C50_6 C49_6 1_555 1_555
C53_6 C50_6 1_555 1_555
H34_6 C53_6 1_555 1_555
C56_6 C46_6 1_555 1_555
C57_6 C34_6 1_555 1_555
Cu7_2 O11_4 1_555 1_555
C56_6 C57_6 1_555 1_555
O15_7 Cu5_2 1_555 1_555
O19_7 Cu5_2 1_555 1_555
O20_7 Cu5_2 1_555 1_555
O14_9 Cu7_2 1_555 1_555
O17_9 Cu7_2 1_555 1_555
O18_9 Cu7_2 1_555 1_555
O14_10 Cu8_2 1_555 1_555
O17_10 Cu8_2 1_555 1_555
O18_10 Cu8_2 1_555 1_555
O15_8 Cu6_2 1_555 1_555
O19_8 Cu6_2 1_555 1_555
O20_8 Cu6_2 1_555 1_555
O14_11 Cu10_2 1_555 1_555
O17_11 Cu10_2 1_555 1_555
O18_11 Cu10_2 1_555 1_555
O14_12 Cu9_2 1_555 1_555
O17_12 Cu9_2 1_555 1_555
O18_12 Cu9_2 1_555 1_555
C4_7 C3_7 1_555 1_555
H2_7 C4_7 1_555 1_555
C5_7 C4_7 1_555 1_555
H3_7 C5_7 1_555 1_555
C6_7 C5_7 1_555 1_555
C9_7 C6_7 1_555 1_555
H6_7 C9_7 1_555 1_555
C34_7 H22_7 1_555 1_555
C35_7 C34_7 1_555 1_555
C36_7 C35_7 1_555 1_555
C37_7 C36_7 1_555 1_555
H23_7 C37_7 1_555 1_555
C38_7 C37_7 1_555 1_555
H24_7 C38_7 1_555 1_555
C39_7 C38_7 1_555 1_555
C42_7 C39_7 1_555 1_555
H27_7 C42_7 1_555 1_555
C45_7 C35_7 1_555 1_555
C46_7 C45_7 1_555 1_555
O18_11 C66_7 1_555 1_555
O19_7 C66_7 1_555 1_555
C56_7 C46_7 1_555 1_555
H36_7 C56_7 1_555 1_555
C57_7 C34_7 1_555 1_555
C58_7 C57_7 1_555 1_555
C59_7 C58_7 1_555 1_555
H37_7 C59_7 1_555 1_555
C60_7 C59_7 1_555 1_555
H38_7 C60_7 1_555 1_555
C61_7 C60_7 1_555 1_555
C62_7 C61_7 1_555 1_555
H39_7 C62_7 1_555 1_555
C63_7 C58_7 1_555 1_555
H40_7 C63_7 1_555 1_555
C64_7 C61_7 1_555 1_555
H41_7 C64_7 1_555 1_555
C65_7 C64_7 1_555 1_555
H42_7 C65_7 1_555 1_555
C66_7 C65_7 1_555 1_555
C56_7 C57_7 1_555 1_555
C62_7 C63_7 1_555 1_555
C26_7 C25_7 1_555 1_555
H16_7 C26_7 1_555 1_555
C27_7 C26_7 1_555 1_555
H17_7 C27_7 1_555 1_555
C28_7 C27_7 1_555 1_555
C31_7 C28_7 1_555 1_555
H20_7 C31_7 1_555 1_555
O18_12 C33_7 1_555 1_555
H18_7 C29_7 1_555 1_555
H19_7 C30_7 1_555 1_555
H21_7 C32_7 1_555 1_555
C33_7 C32_7 1_555 1_555
C29_7 C30_7 1_555 1_555
C15_7 C14_7 1_555 1_555
H9_7 C15_7 1_555 1_555
C16_7 C15_7 1_555 1_555
H10_7 C16_7 1_555 1_555
C17_7 C16_7 1_555 1_555
C20_7 C17_7 1_555 1_555
H13_7 C20_7 1_555 1_555
O18_9 C11_7 1_555 1_555
H4_7 C7_7 1_555 1_555
H5_7 C8_7 1_555 1_555
H7_7 C10_7 1_555 1_555
C11_7 C10_7 1_555 1_555
H25_7 C40_7 1_555 1_555
H26_7 C41_7 1_555 1_555
H28_7 C43_7 1_555 1_555
C44_7 O17_9 1_555 1_555
O18_8 C55_7 1_555 1_555
O22_4 C55_7 1_555 1_555
C48_7 C47_7 1_555 1_555
H30_7 C48_7 1_555 1_555
C49_7 C48_7 1_555 1_555
H31_7 C49_7 1_555 1_555
C50_7 C49_7 1_555 1_555
C51_7 C50_7 1_555 1_555
H32_7 C51_7 1_555 1_555
C52_7 C47_7 1_555 1_555
H33_7 C52_7 1_555 1_555
C53_7 C50_7 1_555 1_555
H34_7 C53_7 1_555 1_555
C54_7 C53_7 1_555 1_555
H35_7 C54_7 1_555 1_555
C55_7 C54_7 1_555 1_555
C7_7 C8_7 1_555 1_555
C40_7 C41_7 1_555 1_555
C43_7 C44_7 1_555 1_555
C51_7 C52_7 1_555 1_555
O17_7 C22_7 1_555 1_555
H11_7 C18_7 1_555 1_555
H12_7 C19_7 1_555 1_555
H14_7 C21_7 1_555 1_555
C22_7 C21_7 1_555 1_555
C18_7 C19_7 1_555 1_555
C2_7 C1_7 1_555 1_555
O17_8 C22_8 1_555 1_555
O21_4 C22_8 1_555 1_555
C12_7 C2_7 1_555 1_555
H8_8 C12_7 1_555 1_555
C13_7 C12_7 1_555 1_555
C14_8 C13_7 1_555 1_555
C15_8 C14_8 1_555 1_555
H9_8 C15_8 1_555 1_555
C16_8 C15_8 1_555 1_555
H10_8 C16_8 1_555 1_555
C17_8 C16_8 1_555 1_555
C18_8 C17_8 1_555 1_555
H11_8 C18_8 1_555 1_555
C19_8 C14_8 1_555 1_555
H12_8 C19_8 1_555 1_555
C20_8 C17_8 1_555 1_555
H13_8 C20_8 1_555 1_555
C21_8 C20_8 1_555 1_555
H14_8 C21_8 1_555 1_555
C22_8 C21_8 1_555 1_555
C23_7 C13_7 1_555 1_555
H15_8 C23_7 1_555 1_555
C24_7 C1_7 1_555 1_555
C25_8 C24_7 1_555 1_555
C26_8 C25_8 1_555 1_555
H16_8 C26_8 1_555 1_555
C27_8 C26_8 1_555 1_555
H17_8 C27_8 1_555 1_555
C28_8 C27_8 1_555 1_555
C31_8 C28_8 1_555 1_555
H20_8 C31_8 1_555 1_555
C18_8 C19_8 1_555 1_555
C23_7 C24_7 1_555 1_555
O17_10 C11_8 1_555 1_555
O19_6 C11_8 1_555 1_555
C4_8 C3_8 1_555 1_555
H2_8 C4_8 1_555 1_555
C5_8 C4_8 1_555 1_555
H3_8 C5_8 1_555 1_555
C6_8 C5_8 1_555 1_555
C7_8 C6_8 1_555 1_555
H4_8 C7_8 1_555 1_555
C8_8 C3_8 1_555 1_555
H5_8 C8_8 1_555 1_555
C9_8 C6_8 1_555 1_555
H6_8 C9_8 1_555 1_555
C10_8 C9_8 1_555 1_555
H7_8 C10_8 1_555 1_555
C11_8 C10_8 1_555 1_555
O17_12 C33_8 1_555 1_555
H18_8 C29_8 1_555 1_555
H19_8 C30_8 1_555 1_555
H21_8 C32_8 1_555 1_555
C33_8 C32_8 1_555 1_555
O20_6 C44_8 1_555 1_555
C34_8 H22_8 1_555 1_555
C35_8 C34_8 1_555 1_555
C36_8 C35_8 1_555 1_555
C37_8 C36_8 1_555 1_555
H23_8 C37_8 1_555 1_555
C38_8 C37_8 1_555 1_555
H24_8 C38_8 1_555 1_555
C39_8 C38_8 1_555 1_555
C40_8 C39_8 1_555 1_555
H25_8 C40_8 1_555 1_555
C41_8 C36_8 1_555 1_555
H26_8 C41_8 1_555 1_555
C42_8 C39_8 1_555 1_555
H27_8 C42_8 1_555 1_555
C43_8 C42_8 1_555 1_555
H28_8 C43_8 1_555 1_555
C44_8 O18_10 1_555 1_555
C45_8 C35_8 1_555 1_555
H29_8 C45_8 1_555 1_555
C46_8 C45_8 1_555 1_555
C47_8 C46_8 1_555 1_555
C48_8 C47_8 1_555 1_555
H30_8 C48_8 1_555 1_555
C49_8 C48_8 1_555 1_555
H31_8 C49_8 1_555 1_555
C50_8 C49_8 1_555 1_555
C53_8 C50_8 1_555 1_555
H34_8 C53_8 1_555 1_555
C56_8 C46_8 1_555 1_555
C57_8 C34_8 1_555 1_555
C7_8 C8_8 1_555 1_555
C29_8 C30_8 1_555 1_555
C40_8 C41_8 1_555 1_555
C43_8 C44_8 1_555 1_555
C56_8 C57_8 1_555 1_555
O18_7 C55_8 1_555 1_555
H32_8 C51_8 1_555 1_555
H33_8 C52_8 1_555 1_555
H35_8 C54_8 1_555 1_555
C55_8 C54_8 1_555 1_555
O17_11 C66_8 1_555 1_555
O20_7 C66_8 1_555 1_555
C59_8 C58_8 1_555 1_555
H37_8 C59_8 1_555 1_555
C60_8 C59_8 1_555 1_555
H38_8 C60_8 1_555 1_555
C61_8 C60_8 1_555 1_555
C62_8 C61_8 1_555 1_555
H39_8 C62_8 1_555 1_555
C63_8 C58_8 1_555 1_555
H40_8 C63_8 1_555 1_555
C64_8 C61_8 1_555 1_555
H41_8 C64_8 1_555 1_555
C65_8 C64_8 1_555 1_555
H42_8 C65_8 1_555 1_555
C66_8 C65_8 1_555 1_555
C51_8 C52_8 1_555 1_555
C62_8 C63_8 1_555 1_555
C2_8 C1_8 1_555 1_555
C12_8 C2_8 1_555 1_555
C13_8 C12_8 1_555 1_555
C23_8 C13_8 1_555 1_555
C24_8 C1_8 1_555 1_555
C23_8 C24_8 1_555 1_555

#END
