
###############################################################################
#
# This file contains modified crystal structure data generated from the
# MOF subset of the Cambridge Structural Database (CSD) v543 
# hosted by the Cambridge Crystallographic Data Centre (CCDC).
#
# This work is licensed under the Creative Commons
# Attribution-NonCommercial-ShareAlike 4.0 International License.
# To view a copy of this license, visit
# http://creativecommons.org/licenses/by-nc-sa/4.0/
# or send a letter to
# Creative Commons, PO Box 1866, Mountain View, CA 94042, USA.
#
# CIF created using the CSD Python API on 29 September 2022
# The structure has been converted into the P1 space group
# The structure has a 3D framework
# The original CSD entry LASDEQ is in the tetragonal crystal system
# The framework has been calculated to contain at least 10.0% void space
# The void calculation uses a probe of radius 1.32A, grid spacing 0.4
# H atom positions have been added when not included in the experimental data
# Generated hydrogen atom positions removed from atoms on special positions
#
###############################################################################

data_LASDEQ
_chemical_formula_moiety         '(C456 H408 Cu56 N16 O296)n'
_symmetry_cell_setting           triclinic
_symmetry_space_group_name_H-M   'P 1'
_symmetry_Int_Tables_number      1
_space_group_name_Hall           'P 1'
loop_
_symmetry_equiv_pos_site_id
_symmetry_equiv_pos_as_xyz
1 x,y,z
_cell_length_a                   23.5670(6)
_cell_length_b                   23.5670(6)
_cell_length_c                   46.997(2)
_cell_angle_alpha                90
_cell_angle_beta                 90
_cell_angle_gamma                90
_cell_volume                     26102.3
loop_
_atom_site_label
_atom_site_type_symbol
_atom_site_fract_x
_atom_site_fract_y
_atom_site_fract_z
Cu3 Cu 0.21327(3) 0.26373(3) -0.0000
Cu4 Cu 0.28307(3) 0.35119(3) -0.0000
O17 O 0.3321(2) 0.4265(2) -0.0000
O18 O 0.1588(3) 0.1911(3) -0.0000
Cu5 Cu 0.31541(2) 0.03936(2) 0.159048(10)
Cu11 Cu 0.23727(2) 0.03039(2) 0.118889(11)
Cu17 Cu 0.73627(3) 0.21327(3) -0.0000
Cu18 Cu 0.64881(3) 0.28307(3) -0.0000
C30 C 0.32372(19) 0.11423(17) 0.11264(10)
C31 C 0.34866(18) 0.16300(18) 0.09673(10)
C32 C 0.32011(19) 0.18672(17) 0.07430(9)
H13 H 0.2857 0.1713 0.0684
C33 C 0.34232(18) 0.23359(17) 0.06032(10)
C34 C 0.30824(19) 0.26238(19) 0.03760(9)
C35 C 0.39483(19) 0.25419(19) 0.06787(11)
H14 H 0.4102 0.2851 0.0582
C36 C 0.42512(18) 0.22870(17) 0.09001(11)
C37 C 0.40184(19) 0.18418(18) 0.10495(10)
H15 H 0.4211 0.1683 0.1203
C38 C 0.5054(2) 0.2364(2) 0.12064(11)
H16 H 0.4803 0.2450 0.1364
H17 H 0.5390 0.2597 0.1227
C39 C 0.66773(18) 0.04018(16) 0.11393(10)
C40 C 0.63699(17) 0.09017(17) 0.10122(9)
C41 C 0.59149(17) 0.11296(18) 0.11590(10)
H18 H 0.5788 0.0956 0.1325
C42 C 0.56518(17) 0.16086(18) 0.10617(9)
C43 C 0.58287(18) 0.18648(19) 0.08093(10)
H19 H 0.5645 0.2185 0.0740
C44 C 0.62873(18) 0.16287(18) 0.06639(10)
C45 C 0.65033(18) 0.19185(18) 0.03979(9)
C46 C 0.65546(19) 0.11482(17) 0.07649(9)
H20 H 0.6858 0.0992 0.0666
O20 O 0.34924(12) 0.09742(12) 0.13419(6)
O21 O 0.27799(13) 0.09476(13) 0.10286(7)
O22 O 0.26493(14) 0.23625(14) 0.02921(7)
O23 O 0.32543(12) 0.30935(12) 0.02853(6)
O24 O 0.64880(12) 0.02035(12) 0.13676(6)
O27 O 0.70993(13) 0.02203(13) 0.10041(7)
O30 O 0.62204(13) 0.23241(12) 0.03066(6)
O32 O 0.23241(12) 0.37796(13) 0.03066(6)
O33 O 0.69481(14) 0.17248(13) 0.02984(7)
O35 O 0.17248(13) 0.30519(14) 0.02984(7)
O36 O 0.47756(13) 0.25161(13) 0.09478(8)
O37 O 0.52093(13) 0.18028(14) 0.12222(7)
O45 O 0.26529(12) 0.09775(12) 0.17456(6)
O47 O 0.19567(13) 0.08340(13) 0.14305(7)
O49 O 0.37875(17) 0.04511(17) 0.19067(8)
O50 O 0.17296(19) 0.0333(2) 0.08662(10)
N2 N 0.1212(4) 0.1194(4) 0.0683(2)
C55 C 0.1619(7) 0.0878(4) 0.0850(4)
C56 C 0.1071(7) 0.1768(5) 0.0733(4)
C57 C 0.0927(7) 0.0890(6) 0.0443(3)
H31 H 0.323117 0.449108 0.0172518
H32 H 0.373055 0.416596 -1.11022e-16
H33 H 0.166264 0.167946 0.0172518
H34 H 0.118592 0.203698 -1.11022e-16
H40 H 0.145 0.202912 0.0712303
H41 H 0.0755308 0.190488 0.0578337
H42 H 0.0898999 0.18125 0.0946905
H43 H 0.188224 0.114038 0.098768
H44 H 0.0694214 0.0526622 0.0525841
H45 H 0.0633751 0.117731 0.0336643
H46 H 0.124551 0.0744709 0.0291756
Cu1 Cu 0.31541(2) 0.03936(2) 0.840952(10)
Cu2 Cu 0.23727(2) 0.03039(2) 0.881111(11)
Cu3_2 Cu 0.21327(3) 0.26373(3) 1.0000
Cu4_2 Cu 0.28307(3) 0.35119(3) 1.0000
C1 C 0.32372(19) 0.11423(17) 0.88736(10)
C2 C 0.34866(18) 0.16300(18) 0.90327(10)
C3 C 0.32011(19) 0.18672(17) 0.92570(9)
H1 H 0.2857 0.1713 0.9316
C4 C 0.34232(18) 0.23359(17) 0.93968(10)
C5 C 0.30824(19) 0.26238(19) 0.96240(9)
C6 C 0.39483(19) 0.25419(19) 0.93213(11)
H2 H 0.4102 0.2851 0.9418
C7 C 0.42512(18) 0.22870(17) 0.90999(11)
C8 C 0.40184(19) 0.18418(18) 0.89505(10)
H3 H 0.4211 0.1683 0.8797
C9 C 0.5054(2) 0.2364(2) 0.87936(11)
H4 H 0.4803 0.2450 0.8636
H5 H 0.5390 0.2597 0.8773
C10 C 0.66773(18) 0.04018(16) 0.88607(10)
C11 C 0.63699(17) 0.09017(17) 0.89878(9)
C12 C 0.59149(17) 0.11296(18) 0.88410(10)
H6 H 0.5788 0.0956 0.8675
C13 C 0.56518(17) 0.16086(18) 0.89383(9)
C14 C 0.58287(18) 0.18648(19) 0.91907(10)
H7 H 0.5645 0.2185 0.9260
C15 C 0.62873(18) 0.16287(18) 0.93361(10)
C16 C 0.65033(18) 0.19185(18) 0.96021(9)
C17 C 0.65546(19) 0.11482(17) 0.92351(9)
H8 H 0.6858 0.0992 0.9334
C18 C 0.04665(19) 0.23260(18) 0.83498(9)
C19 C 0.10006(17) 0.21204(18) 0.82106(9)
C20 C 0.11980(18) 0.23773(18) 0.79654(9)
H9 H 0.0985 0.2662 0.7879
C21 C 0.17062(18) 0.22139(19) 0.78494(10)
C22 C 0.20268(18) 0.17924(19) 0.79758(9)
H10 H 0.2373 0.1685 0.7898
C23 C 0.13140(19) 0.16916(19) 0.83354(10)
H11 H 0.1178 0.1511 0.8498
C24 C 0.18256(18) 0.15316(18) 0.82207(9)
C25 C 0.21714(19) 0.10770(19) 0.83597(10)
C26 C 0.2416(2) 0.2416(2) 0.7500
H12 H 0.2486 0.2690 0.7350
O1 O 0.34924(12) 0.09742(12) 0.86581(6)
O2 O 0.27799(13) 0.09476(13) 0.89714(7)
O3 O 0.26493(14) 0.23625(14) 0.97079(7)
O4 O 0.32543(12) 0.30935(12) 0.97147(6)
O5 O 0.64880(12) 0.02035(12) 0.86324(6)
O6 O 0.70993(13) 0.02203(13) 0.89959(7)
O7 O 0.62204(13) 0.23241(12) 0.96934(6)
O8 O 0.69481(14) 0.17248(13) 0.97016(7)
O9 O 0.47756(13) 0.25161(13) 0.90522(8)
O10 O 0.52093(13) 0.18028(14) 0.87778(7)
O11 O 0.01952(12) 0.27091(12) 0.82248(6)
O12 O 0.03350(14) 0.21043(13) 0.85820(7)
O13 O 0.26529(12) 0.09775(12) 0.82544(6)
O14 O 0.19567(13) 0.08340(13) 0.85695(7)
O15 O 0.18615(13) 0.25063(13) 0.76103(6)
O16 O 0.37875(17) 0.04511(17) 0.80933(8)
O17_2 O 0.3321(2) 0.4265(2) 1.0000
O18_2 O 0.1588(3) 0.1911(3) 1.0000
O19 O 0.17296(19) 0.0333(2) 0.91338(10)
N1 N 0.1212(4) 0.1194(4) 0.9317(2)
C27 C 0.1619(7) 0.0878(4) 0.9150(4)
C28 C 0.1071(7) 0.1768(5) 0.9267(4)
C29 C 0.0927(7) 0.0890(6) 0.9557(3)
Cu9 Cu 0.03936(2) 0.31541(2) 0.659048(10)
Cu15 Cu 0.03039(2) 0.23727(2) 0.618889(11)
Cu17_2 Cu 0.73627(3) 0.21327(3) 1.0000
Cu18_2 Cu 0.64881(3) 0.28307(3) 1.0000
C47 C 0.23260(18) 0.04665(19) 0.66502(9)
C48 C 0.21204(18) 0.10006(17) 0.67894(9)
C49 C 0.23773(18) 0.11980(18) 0.70346(9)
H21 H 0.2662 0.0985 0.7121
C50 C 0.22139(19) 0.17062(18) 0.71506(10)
C51 C 0.17924(19) 0.20268(18) 0.70242(9)
H22 H 0.1685 0.2373 0.7102
C52 C 0.16916(19) 0.13140(19) 0.66646(10)
H23 H 0.1511 0.1178 0.6502
C53 C 0.15316(18) 0.18256(18) 0.67793(9)
C54 C 0.10770(19) 0.21714(19) 0.66403(10)
H24 H 0.2690 0.2486 0.7650
O31 O 0.23241(12) 0.37796(13) 0.96934(6)
O34 O 0.17248(13) 0.30519(14) 0.97016(7)
O38 O 0.27091(12) 0.01952(12) 0.67752(6)
O41 O 0.21043(13) 0.03350(14) 0.64180(7)
O44 O 0.09775(12) 0.26529(12) 0.67456(6)
O46 O 0.08340(13) 0.19567(13) 0.64305(7)
O48 O 0.25063(13) 0.18615(13) 0.73897(6)
H27 H 0.188224 0.114038 0.901232
H28 H 0.0898999 0.18125 0.905309
H29 H 0.0755308 0.190488 0.942166
H30 H 0.145 0.202912 0.92877
H32_2 H 0.373055 0.416596 1
H34_2 H 0.118592 0.203698 1
H35 H 0.124551 0.0744709 0.970824
H36 H 0.0633751 0.117731 0.966336
H37 H 0.0694214 0.0526622 0.947416
Cu10 Cu 0.68459(2) 0.96064(2) 0.159048(10)
Cu16 Cu 0.76273(2) 0.96961(2) 0.118889(11)
O26 O 0.35120(12) 0.97965(12) 0.13676(6)
O29 O 0.29007(13) 0.97797(13) 0.10041(7)
O40 O 0.27091(12) 0.98048(12) 0.17752(6)
O43 O 0.21043(13) 0.96650(14) 0.14180(7)
Cu6 Cu 0.68459(2) 0.96064(2) 0.840952(10)
Cu8 Cu 0.31541(2) 0.96064(2) 0.659048(10)
Cu12 Cu 0.76273(2) 0.96961(2) 0.881111(11)
Cu14 Cu 0.23727(2) 0.96961(2) 0.618889(11)
O25 O 0.35120(12) 0.97965(12) 0.86324(6)
O28 O 0.29007(13) 0.97797(13) 0.89959(7)
O39 O 0.27091(12) 0.98048(12) 0.82248(6)
O42 O 0.21043(13) 0.96650(14) 0.85820(7)
Cu7 Cu 0.96064(2) 0.31541(2) 0.840952(10)
Cu13 Cu 0.96961(2) 0.23727(2) 0.881111(11)
Cu10_2 Cu 0.03936(2) 0.68459(2) 0.159048(10)
Cu16_2 Cu 0.03039(2) 0.76273(2) 0.118889(11)
O26_2 O 0.02035(12) 0.35120(12) 0.13676(6)
O29_2 O 0.02203(13) 0.29007(13) 0.10041(7)
O40_2 O 0.01952(12) 0.27091(12) 0.17752(6)
O43_2 O 0.03350(14) 0.21043(13) 0.14180(7)
Cu6_2 Cu 0.03936(2) 0.68459(2) 0.840952(10)
Cu12_2 Cu 0.03039(2) 0.76273(2) 0.881111(11)
O25_2 O 0.02035(12) 0.35120(12) 0.86324(6)
O28_2 O 0.02203(13) 0.29007(13) 0.89959(7)
O17_3 O 0.5735(2) 0.3321(2) -0.0000
O18_3 O 0.8089(3) 0.1588(3) -0.0000
Cu5_2 Cu 0.96064(2) 0.31541(2) 0.159048(10)
Cu11_2 Cu 0.96961(2) 0.23727(2) 0.118889(11)
Cu17_3 Cu 0.78673(3) 0.73627(3) -0.0000
Cu18_3 Cu 0.71693(3) 0.64881(3) -0.0000
C30_2 C 0.88577(17) 0.32372(19) 0.11264(10)
C31_2 C 0.83700(18) 0.34866(18) 0.09673(10)
C32_2 C 0.81328(17) 0.32011(19) 0.07430(9)
H13_2 H 0.8287 0.2857 0.0684
C33_2 C 0.76641(17) 0.34232(18) 0.06032(10)
C34_2 C 0.73762(19) 0.30824(19) 0.03760(9)
C35_2 C 0.74581(19) 0.39483(19) 0.06787(11)
H14_2 H 0.7149 0.4102 0.0582
C36_2 C 0.77130(17) 0.42512(18) 0.09001(11)
C37_2 C 0.81582(18) 0.40184(19) 0.10495(10)
H15_2 H 0.8317 0.4211 0.1203
C38_2 C 0.7636(2) 0.5054(2) 0.12064(11)
H16_2 H 0.7550 0.4803 0.1364
H17_2 H 0.7403 0.5390 0.1227
C39_2 C 0.95982(16) 0.66773(18) 0.11393(10)
C40_2 C 0.90983(17) 0.63699(17) 0.10122(9)
C41_2 C 0.88704(18) 0.59149(17) 0.11590(10)
H18_2 H 0.9044 0.5788 0.1325
C42_2 C 0.83914(18) 0.56518(17) 0.10617(9)
C43_2 C 0.81352(19) 0.58287(18) 0.08093(10)
H19_2 H 0.7815 0.5645 0.0740
C44_2 C 0.83713(18) 0.62873(18) 0.06639(10)
C45_2 C 0.80815(18) 0.65033(18) 0.03979(9)
C46_2 C 0.88518(17) 0.65546(19) 0.07649(9)
H20_2 H 0.9008 0.6858 0.0666
O20_2 O 0.90258(12) 0.34924(12) 0.13419(6)
O21_2 O 0.90524(13) 0.27799(13) 0.10286(7)
O22_2 O 0.76375(14) 0.26493(14) 0.02921(7)
O23_2 O 0.69065(12) 0.32543(12) 0.02853(6)
O24_2 O 0.97965(12) 0.64880(12) 0.13676(6)
O27_2 O 0.97797(13) 0.70993(13) 0.10041(7)
O30_2 O 0.76759(12) 0.62204(13) 0.03066(6)
O33_2 O 0.82752(13) 0.69481(14) 0.02984(7)
O36_2 O 0.74839(13) 0.47756(13) 0.09478(8)
O37_2 O 0.81972(14) 0.52093(13) 0.12222(7)
O45_2 O 0.90225(12) 0.26529(12) 0.17456(6)
O47_2 O 0.91660(13) 0.19567(13) 0.14305(7)
O49_2 O 0.95489(17) 0.37875(17) 0.19067(8)
O50_2 O 0.9667(2) 0.17296(19) 0.08662(10)
N2_2 N 0.8806(4) 0.1212(4) 0.0683(2)
C55_2 C 0.9122(4) 0.1619(7) 0.0850(4)
C56_2 C 0.8232(5) 0.1071(7) 0.0733(4)
C57_2 C 0.9110(6) 0.0927(7) 0.0443(3)
H31_2 H 0.550892 0.323117 0.0172518
H32_3 H 0.583404 0.373055 -1.11022e-16
H33_2 H 0.832054 0.166264 0.0172518
H34_3 H 0.796302 0.118592 -1.11022e-16
H40_2 H 0.797088 0.145 0.0712303
H41_2 H 0.809512 0.0755308 0.0578337
H42_2 H 0.81875 0.0898999 0.0946905
H43_2 H 0.885962 0.188224 0.098768
H44_2 H 0.947338 0.0694214 0.0525841
H45_2 H 0.882269 0.0633751 0.0336643
H46_2 H 0.925529 0.124551 0.0291756
C1_2 C 0.88577(17) 0.32372(19) 0.88736(10)
C2_2 C 0.83700(18) 0.34866(18) 0.90327(10)
C3_2 C 0.81328(17) 0.32011(19) 0.92570(9)
H1_2 H 0.8287 0.2857 0.9316
C4_2 C 0.76641(17) 0.34232(18) 0.93968(10)
C5_2 C 0.73762(19) 0.30824(19) 0.96240(9)
C6_2 C 0.74581(19) 0.39483(19) 0.93213(11)
H2_2 H 0.7149 0.4102 0.9418
C7_2 C 0.77130(17) 0.42512(18) 0.90999(11)
C8_2 C 0.81582(18) 0.40184(19) 0.89505(10)
H3_2 H 0.8317 0.4211 0.8797
C9_2 C 0.7636(2) 0.5054(2) 0.87936(11)
H4_2 H 0.7550 0.4803 0.8636
H5_2 H 0.7403 0.5390 0.8773
C10_2 C 0.95982(16) 0.66773(18) 0.88607(10)
C11_2 C 0.90983(17) 0.63699(17) 0.89878(9)
C12_2 C 0.88704(18) 0.59149(17) 0.88410(10)
H6_2 H 0.9044 0.5788 0.8675
C13_2 C 0.83914(18) 0.56518(17) 0.89383(9)
C14_2 C 0.81352(19) 0.58287(18) 0.91907(10)
H7_2 H 0.7815 0.5645 0.9260
C15_2 C 0.83713(18) 0.62873(18) 0.93361(10)
C16_2 C 0.80815(18) 0.65033(18) 0.96021(9)
C17_2 C 0.88518(17) 0.65546(19) 0.92351(9)
H8_2 H 0.9008 0.6858 0.9334
C18_2 C 0.76740(18) 0.04665(19) 0.83498(9)
C19_2 C 0.78796(18) 0.10006(17) 0.82106(9)
C20_2 C 0.76227(18) 0.11980(18) 0.79654(9)
H9_2 H 0.7338 0.0985 0.7879
C21_2 C 0.77861(19) 0.17062(18) 0.78494(10)
C22_2 C 0.82076(19) 0.20268(18) 0.79758(9)
H10_2 H 0.8315 0.2373 0.7898
C23_2 C 0.83084(19) 0.13140(19) 0.83354(10)
H11_2 H 0.8489 0.1178 0.8498
C24_2 C 0.84684(18) 0.18256(18) 0.82207(9)
C25_2 C 0.89230(19) 0.21714(19) 0.83597(10)
C26_2 C 0.7584(2) 0.2416(2) 0.7500
H12_2 H 0.7310 0.2486 0.7350
O1_2 O 0.90258(12) 0.34924(12) 0.86581(6)
O2_2 O 0.90524(13) 0.27799(13) 0.89714(7)
O3_2 O 0.76375(14) 0.26493(14) 0.97079(7)
O4_2 O 0.69065(12) 0.32543(12) 0.97147(6)
O5_2 O 0.97965(12) 0.64880(12) 0.86324(6)
O6_2 O 0.97797(13) 0.70993(13) 0.89959(7)
O7_2 O 0.76759(12) 0.62204(13) 0.96934(6)
O8_2 O 0.82752(13) 0.69481(14) 0.97016(7)
O9_2 O 0.74839(13) 0.47756(13) 0.90522(8)
O10_2 O 0.81972(14) 0.52093(13) 0.87778(7)
O11_2 O 0.72909(12) 0.01952(12) 0.82248(6)
O12_2 O 0.78957(13) 0.03350(14) 0.85820(7)
O13_2 O 0.90225(12) 0.26529(12) 0.82544(6)
O14_2 O 0.91660(13) 0.19567(13) 0.85695(7)
O15_2 O 0.74937(13) 0.18615(13) 0.76103(6)
O16_2 O 0.95489(17) 0.37875(17) 0.80933(8)
O17_4 O 0.5735(2) 0.3321(2) 1.0000
O18_4 O 0.8089(3) 0.1588(3) 1.0000
O19_2 O 0.9667(2) 0.17296(19) 0.91338(10)
N1_2 N 0.8806(4) 0.1212(4) 0.9317(2)
C27_2 C 0.9122(4) 0.1619(7) 0.9150(4)
C28_2 C 0.8232(5) 0.1071(7) 0.9267(4)
C29_2 C 0.9110(6) 0.0927(7) 0.9557(3)
Cu9_2 Cu 0.68459(2) 0.03936(2) 0.659048(10)
Cu15_2 Cu 0.76273(2) 0.03039(2) 0.618889(11)
Cu17_4 Cu 0.78673(3) 0.73627(3) 1.0000
Cu18_4 Cu 0.71693(3) 0.64881(3) 1.0000
C47_2 C 0.95335(19) 0.23260(18) 0.66502(9)
C48_2 C 0.89994(17) 0.21204(18) 0.67894(9)
C49_2 C 0.88020(18) 0.23773(18) 0.70346(9)
H21_2 H 0.9015 0.2662 0.7121
C50_2 C 0.82938(18) 0.22139(19) 0.71506(10)
C51_2 C 0.79732(18) 0.17924(19) 0.70242(9)
H22_2 H 0.7627 0.1685 0.7102
C52_2 C 0.86860(19) 0.16916(19) 0.66646(10)
H23_2 H 0.8822 0.1511 0.6502
C53_2 C 0.81744(18) 0.15316(18) 0.67793(9)
C54_2 C 0.78286(19) 0.10770(19) 0.66403(10)
H24_2 H 0.7514 0.2690 0.7650
O38_2 O 0.98048(12) 0.27091(12) 0.67752(6)
O41_2 O 0.96650(14) 0.21043(13) 0.64180(7)
O44_2 O 0.73471(12) 0.09775(12) 0.67456(6)
O46_2 O 0.80433(13) 0.08340(13) 0.64305(7)
O48_2 O 0.81385(13) 0.25063(13) 0.73897(6)
H27_2 H 0.885962 0.188224 0.901232
H28_2 H 0.81875 0.0898999 0.905309
H29_2 H 0.809512 0.0755308 0.942166
H30_2 H 0.797088 0.145 0.92877
H32_4 H 0.583404 0.373055 1
H34_4 H 0.796302 0.118592 1
H35_2 H 0.925529 0.124551 0.970824
H36_2 H 0.882269 0.0633751 0.966336
H37_2 H 0.947338 0.0694214 0.947416
O40_3 O 0.72909(12) 0.01952(12) 0.17752(6)
O43_3 O 0.78957(13) 0.03350(14) 0.14180(7)
O17_5 O 0.6679(2) 0.5735(2) -0.0000
O18_5 O 0.8412(3) 0.8089(3) -0.0000
Cu17_5 Cu 0.26373(3) 0.78673(3) -0.0000
Cu18_5 Cu 0.35119(3) 0.71693(3) -0.0000
C30_3 C 0.67628(19) 0.88577(17) 0.11264(10)
C31_3 C 0.65134(18) 0.83700(18) 0.09673(10)
C32_3 C 0.67989(19) 0.81328(17) 0.07430(9)
H13_3 H 0.7143 0.8287 0.0684
C33_3 C 0.65768(18) 0.76641(17) 0.06032(10)
C34_3 C 0.69176(19) 0.73762(19) 0.03760(9)
C35_3 C 0.60517(19) 0.74581(19) 0.06787(11)
H14_3 H 0.5898 0.7149 0.0582
C36_3 C 0.57488(18) 0.77130(17) 0.09001(11)
C37_3 C 0.59816(19) 0.81582(18) 0.10495(10)
H15_3 H 0.5789 0.8317 0.1203
C38_3 C 0.4946(2) 0.7636(2) 0.12064(11)
H16_3 H 0.5197 0.7550 0.1364
H17_3 H 0.4610 0.7403 0.1227
C39_3 C 0.33227(18) 0.95982(16) 0.11393(10)
C40_3 C 0.36301(17) 0.90983(17) 0.10122(9)
C41_3 C 0.40851(17) 0.88704(18) 0.11590(10)
H18_3 H 0.4212 0.9044 0.1325
C42_3 C 0.43482(17) 0.83914(18) 0.10617(9)
C43_3 C 0.41713(18) 0.81352(19) 0.08093(10)
H19_3 H 0.4355 0.7815 0.0740
C44_3 C 0.37127(18) 0.83713(18) 0.06639(10)
C45_3 C 0.34967(18) 0.80815(18) 0.03979(9)
C46_3 C 0.34454(19) 0.88518(17) 0.07649(9)
H20_3 H 0.3142 0.9008 0.0666
O20_3 O 0.65076(12) 0.90258(12) 0.13419(6)
O21_3 O 0.72201(13) 0.90524(13) 0.10286(7)
O22_3 O 0.73507(14) 0.76375(14) 0.02921(7)
O23_3 O 0.67457(12) 0.69065(12) 0.02853(6)
O30_3 O 0.37796(13) 0.76759(12) 0.03066(6)
O33_3 O 0.30519(14) 0.82752(13) 0.02984(7)
O36_3 O 0.52244(13) 0.74839(13) 0.09478(8)
O37_3 O 0.47907(13) 0.81972(14) 0.12222(7)
O45_3 O 0.73471(12) 0.90225(12) 0.17456(6)
O47_3 O 0.80433(13) 0.91660(13) 0.14305(7)
O49_3 O 0.62125(17) 0.95489(17) 0.19067(8)
O50_3 O 0.82704(19) 0.9667(2) 0.08662(10)
N2_3 N 0.8788(4) 0.8806(4) 0.0683(2)
C55_3 C 0.8381(7) 0.9122(4) 0.0850(4)
C56_3 C 0.8929(7) 0.8232(5) 0.0733(4)
C57_3 C 0.9073(7) 0.9110(6) 0.0443(3)
H31_3 H 0.676883 0.550892 0.0172518
H32_5 H 0.626945 0.583404 -1.11022e-16
H33_3 H 0.833736 0.832054 0.0172518
H34_5 H 0.881408 0.796302 -1.11022e-16
H40_3 H 0.855 0.797088 0.0712303
H41_3 H 0.924469 0.809512 0.0578337
H42_3 H 0.9101 0.81875 0.0946905
H43_3 H 0.811776 0.885962 0.098768
H44_3 H 0.930579 0.947338 0.0525841
H45_3 H 0.936625 0.882269 0.0336643
H46_3 H 0.875449 0.925529 0.0291756
C1_3 C 0.67628(19) 0.88577(17) 0.88736(10)
C2_3 C 0.65134(18) 0.83700(18) 0.90327(10)
C3_3 C 0.67989(19) 0.81328(17) 0.92570(9)
H1_3 H 0.7143 0.8287 0.9316
C4_3 C 0.65768(18) 0.76641(17) 0.93968(10)
C5_3 C 0.69176(19) 0.73762(19) 0.96240(9)
C6_3 C 0.60517(19) 0.74581(19) 0.93213(11)
H2_3 H 0.5898 0.7149 0.9418
C7_3 C 0.57488(18) 0.77130(17) 0.90999(11)
C8_3 C 0.59816(19) 0.81582(18) 0.89505(10)
H3_3 H 0.5789 0.8317 0.8797
C9_3 C 0.4946(2) 0.7636(2) 0.87936(11)
H4_3 H 0.5197 0.7550 0.8636
H5_3 H 0.4610 0.7403 0.8773
C10_3 C 0.33227(18) 0.95982(16) 0.88607(10)
C11_3 C 0.36301(17) 0.90983(17) 0.89878(9)
C12_3 C 0.40851(17) 0.88704(18) 0.88410(10)
H6_3 H 0.4212 0.9044 0.8675
C13_3 C 0.43482(17) 0.83914(18) 0.89383(9)
C14_3 C 0.41713(18) 0.81352(19) 0.91907(10)
H7_3 H 0.4355 0.7815 0.9260
C15_3 C 0.37127(18) 0.83713(18) 0.93361(10)
C16_3 C 0.34967(18) 0.80815(18) 0.96021(9)
C17_3 C 0.34454(19) 0.88518(17) 0.92351(9)
H8_3 H 0.3142 0.9008 0.9334
C18_3 C 0.95335(19) 0.76740(18) 0.83498(9)
C19_3 C 0.89994(17) 0.78796(18) 0.82106(9)
C20_3 C 0.88020(18) 0.76227(18) 0.79654(9)
H9_3 H 0.9015 0.7338 0.7879
C21_3 C 0.82938(18) 0.77861(19) 0.78494(10)
C22_3 C 0.79732(18) 0.82076(19) 0.79758(9)
H10_3 H 0.7627 0.8315 0.7898
C23_3 C 0.86860(19) 0.83084(19) 0.83354(10)
H11_3 H 0.8822 0.8489 0.8498
C24_3 C 0.81744(18) 0.84684(18) 0.82207(9)
C25_3 C 0.78286(19) 0.89230(19) 0.83597(10)
C26_3 C 0.7584(2) 0.7584(2) 0.7500
H12_3 H 0.7514 0.7310 0.7350
O1_3 O 0.65076(12) 0.90258(12) 0.86581(6)
O2_3 O 0.72201(13) 0.90524(13) 0.89714(7)
O3_3 O 0.73507(14) 0.76375(14) 0.97079(7)
O4_3 O 0.67457(12) 0.69065(12) 0.97147(6)
O7_3 O 0.37796(13) 0.76759(12) 0.96934(6)
O8_3 O 0.30519(14) 0.82752(13) 0.97016(7)
O9_3 O 0.52244(13) 0.74839(13) 0.90522(8)
O10_3 O 0.47907(13) 0.81972(14) 0.87778(7)
O11_3 O 0.98048(12) 0.72909(12) 0.82248(6)
O12_3 O 0.96650(14) 0.78957(13) 0.85820(7)
O13_3 O 0.73471(12) 0.90225(12) 0.82544(6)
O14_3 O 0.80433(13) 0.91660(13) 0.85695(7)
O15_3 O 0.81385(13) 0.74937(13) 0.76103(6)
O16_3 O 0.62125(17) 0.95489(17) 0.80933(8)
O17_6 O 0.6679(2) 0.5735(2) 1.0000
O18_6 O 0.8412(3) 0.8089(3) 1.0000
O19_3 O 0.82704(19) 0.9667(2) 0.91338(10)
N1_3 N 0.8788(4) 0.8806(4) 0.9317(2)
C27_3 C 0.8381(7) 0.9122(4) 0.9150(4)
C28_3 C 0.8929(7) 0.8232(5) 0.9267(4)
C29_3 C 0.9073(7) 0.9110(6) 0.9557(3)
Cu9_3 Cu 0.96064(2) 0.68459(2) 0.659048(10)
Cu15_3 Cu 0.96961(2) 0.76273(2) 0.618889(11)
Cu17_6 Cu 0.26373(3) 0.78673(3) 1.0000
Cu18_6 Cu 0.35119(3) 0.71693(3) 1.0000
C47_3 C 0.76740(18) 0.95335(19) 0.66502(9)
C48_3 C 0.78796(18) 0.89994(17) 0.67894(9)
C49_3 C 0.76227(18) 0.88020(18) 0.70346(9)
H21_3 H 0.7338 0.9015 0.7121
C50_3 C 0.77861(19) 0.82938(18) 0.71506(10)
C51_3 C 0.82076(19) 0.79732(18) 0.70242(9)
H22_3 H 0.8315 0.7627 0.7102
C52_3 C 0.83084(19) 0.86860(19) 0.66646(10)
H23_3 H 0.8489 0.8822 0.6502
C53_3 C 0.84684(18) 0.81744(18) 0.67793(9)
C54_3 C 0.89230(19) 0.78286(19) 0.66403(10)
H24_3 H 0.7310 0.7514 0.7650
O38_3 O 0.72909(12) 0.98048(12) 0.67752(6)
O41_3 O 0.78957(13) 0.96650(14) 0.64180(7)
O44_3 O 0.90225(12) 0.73471(12) 0.67456(6)
O46_3 O 0.91660(13) 0.80433(13) 0.64305(7)
O48_3 O 0.74937(13) 0.81385(13) 0.73897(6)
H27_3 H 0.811776 0.885962 0.901232
H28_3 H 0.9101 0.81875 0.905309
H29_3 H 0.924469 0.809512 0.942166
H30_3 H 0.855 0.797088 0.92877
H32_6 H 0.626945 0.583404 1
H34_6 H 0.881408 0.796302 1
H35_3 H 0.875449 0.925529 0.970824
H36_3 H 0.936625 0.882269 0.966336
H37_3 H 0.930579 0.947338 0.947416
O17_7 O 0.4265(2) 0.6679(2) -0.0000
O18_7 O 0.1911(3) 0.8412(3) -0.0000
C30_4 C 0.11423(17) 0.67628(19) 0.11264(10)
C31_4 C 0.16300(18) 0.65134(18) 0.09673(10)
C32_4 C 0.18672(17) 0.67989(19) 0.07430(9)
H13_4 H 0.1713 0.7143 0.0684
C33_4 C 0.23359(17) 0.65768(18) 0.06032(10)
C34_4 C 0.26238(19) 0.69176(19) 0.03760(9)
C35_4 C 0.25419(19) 0.60517(19) 0.06787(11)
H14_4 H 0.2851 0.5898 0.0582
C36_4 C 0.22870(17) 0.57488(18) 0.09001(11)
C37_4 C 0.18418(18) 0.59816(19) 0.10495(10)
H15_4 H 0.1683 0.5789 0.1203
C38_4 C 0.2364(2) 0.4946(2) 0.12064(11)
H16_4 H 0.2450 0.5197 0.1364
H17_4 H 0.2597 0.4610 0.1227
C39_4 C 0.04018(16) 0.33227(18) 0.11393(10)
C40_4 C 0.09017(17) 0.36301(17) 0.10122(9)
C41_4 C 0.11296(18) 0.40851(17) 0.11590(10)
H18_4 H 0.0956 0.4212 0.1325
C42_4 C 0.16086(18) 0.43482(17) 0.10617(9)
C43_4 C 0.18648(19) 0.41713(18) 0.08093(10)
H19_4 H 0.2185 0.4355 0.0740
C44_4 C 0.16287(18) 0.37127(18) 0.06639(10)
C45_4 C 0.19185(18) 0.34967(18) 0.03979(9)
C46_4 C 0.11482(17) 0.34454(19) 0.07649(9)
H20_4 H 0.0992 0.3142 0.0666
O20_4 O 0.09742(12) 0.65076(12) 0.13419(6)
O21_4 O 0.09476(13) 0.72201(13) 0.10286(7)
O22_4 O 0.23625(14) 0.73507(14) 0.02921(7)
O23_4 O 0.30935(12) 0.67457(12) 0.02853(6)
O36_4 O 0.25161(13) 0.52244(13) 0.09478(8)
O37_4 O 0.18028(14) 0.47907(13) 0.12222(7)
O45_4 O 0.09775(12) 0.73471(12) 0.17456(6)
O47_4 O 0.08340(13) 0.80433(13) 0.14305(7)
O49_4 O 0.04511(17) 0.62125(17) 0.19067(8)
O50_4 O 0.0333(2) 0.82704(19) 0.08662(10)
N2_4 N 0.1194(4) 0.8788(4) 0.0683(2)
C55_4 C 0.0878(4) 0.8381(7) 0.0850(4)
C56_4 C 0.1768(5) 0.8929(7) 0.0733(4)
C57_4 C 0.0890(6) 0.9073(7) 0.0443(3)
H31_4 H 0.449108 0.676883 0.0172518
H32_7 H 0.416596 0.626945 -1.11022e-16
H33_4 H 0.167946 0.833736 0.0172518
H34_7 H 0.203698 0.881408 -1.11022e-16
H40_4 H 0.202912 0.855 0.0712303
H41_4 H 0.190488 0.924469 0.0578337
H42_4 H 0.18125 0.9101 0.0946905
H43_4 H 0.114038 0.811776 0.098768
H44_4 H 0.0526622 0.930579 0.0525841
H45_4 H 0.117731 0.936625 0.0336643
H46_4 H 0.0744709 0.875449 0.0291756
C1_4 C 0.11423(17) 0.67628(19) 0.88736(10)
C2_4 C 0.16300(18) 0.65134(18) 0.90327(10)
C3_4 C 0.18672(17) 0.67989(19) 0.92570(9)
H1_4 H 0.1713 0.7143 0.9316
C4_4 C 0.23359(17) 0.65768(18) 0.93968(10)
C5_4 C 0.26238(19) 0.69176(19) 0.96240(9)
C6_4 C 0.25419(19) 0.60517(19) 0.93213(11)
H2_4 H 0.2851 0.5898 0.9418
C7_4 C 0.22870(17) 0.57488(18) 0.90999(11)
C8_4 C 0.18418(18) 0.59816(19) 0.89505(10)
H3_4 H 0.1683 0.5789 0.8797
C9_4 C 0.2364(2) 0.4946(2) 0.87936(11)
H4_4 H 0.2450 0.5197 0.8636
H5_4 H 0.2597 0.4610 0.8773
C10_4 C 0.04018(16) 0.33227(18) 0.88607(10)
C11_4 C 0.09017(17) 0.36301(17) 0.89878(9)
C12_4 C 0.11296(18) 0.40851(17) 0.88410(10)
H6_4 H 0.0956 0.4212 0.8675
C13_4 C 0.16086(18) 0.43482(17) 0.89383(9)
C14_4 C 0.18648(19) 0.41713(18) 0.91907(10)
H7_4 H 0.2185 0.4355 0.9260
C15_4 C 0.16287(18) 0.37127(18) 0.93361(10)
C16_4 C 0.19185(18) 0.34967(18) 0.96021(9)
C17_4 C 0.11482(17) 0.34454(19) 0.92351(9)
H8_4 H 0.0992 0.3142 0.9334
C18_4 C 0.23260(18) 0.95335(19) 0.83498(9)
C19_4 C 0.21204(18) 0.89994(17) 0.82106(9)
C20_4 C 0.23773(18) 0.88020(18) 0.79654(9)
H9_4 H 0.2662 0.9015 0.7879
C21_4 C 0.22139(19) 0.82938(18) 0.78494(10)
C22_4 C 0.17924(19) 0.79732(18) 0.79758(9)
H10_4 H 0.1685 0.7627 0.7898
C23_4 C 0.16916(19) 0.86860(19) 0.83354(10)
H11_4 H 0.1511 0.8822 0.8498
C24_4 C 0.15316(18) 0.81744(18) 0.82207(9)
C25_4 C 0.10770(19) 0.78286(19) 0.83597(10)
C26_4 C 0.2416(2) 0.7584(2) 0.7500
H12_4 H 0.2690 0.7514 0.7350
O1_4 O 0.09742(12) 0.65076(12) 0.86581(6)
O2_4 O 0.09476(13) 0.72201(13) 0.89714(7)
O3_4 O 0.23625(14) 0.73507(14) 0.97079(7)
O4_4 O 0.30935(12) 0.67457(12) 0.97147(6)
O9_4 O 0.25161(13) 0.52244(13) 0.90522(8)
O10_4 O 0.18028(14) 0.47907(13) 0.87778(7)
O13_4 O 0.09775(12) 0.73471(12) 0.82544(6)
O14_4 O 0.08340(13) 0.80433(13) 0.85695(7)
O15_4 O 0.25063(13) 0.81385(13) 0.76103(6)
O16_4 O 0.04511(17) 0.62125(17) 0.80933(8)
O17_8 O 0.4265(2) 0.6679(2) 1.0000
O18_8 O 0.1911(3) 0.8412(3) 1.0000
O19_4 O 0.0333(2) 0.82704(19) 0.91338(10)
N1_4 N 0.1194(4) 0.8788(4) 0.9317(2)
C27_4 C 0.0878(4) 0.8381(7) 0.9150(4)
C28_4 C 0.1768(5) 0.8929(7) 0.9267(4)
C29_4 C 0.0890(6) 0.9073(7) 0.9557(3)
C47_4 C 0.04665(19) 0.76740(18) 0.66502(9)
C48_4 C 0.10006(17) 0.78796(18) 0.67894(9)
C49_4 C 0.11980(18) 0.76227(18) 0.70346(9)
H21_4 H 0.0985 0.7338 0.7121
C50_4 C 0.17062(18) 0.77861(19) 0.71506(10)
C51_4 C 0.20268(18) 0.82076(19) 0.70242(9)
H22_4 H 0.2373 0.8315 0.7102
C52_4 C 0.13140(19) 0.83084(19) 0.66646(10)
H23_4 H 0.1178 0.8489 0.6502
C53_4 C 0.18256(18) 0.84684(18) 0.67793(9)
C54_4 C 0.21714(19) 0.89230(19) 0.66403(10)
H24_4 H 0.2486 0.7310 0.7650
O38_4 O 0.01952(12) 0.72909(12) 0.67752(6)
O41_4 O 0.03350(14) 0.78957(13) 0.64180(7)
O44_4 O 0.26529(12) 0.90225(12) 0.67456(6)
O46_4 O 0.19567(13) 0.91660(13) 0.64305(7)
O48_4 O 0.18615(13) 0.74937(13) 0.73897(6)
H27_4 H 0.114038 0.811776 0.901232
H28_4 H 0.18125 0.9101 0.905309
H29_4 H 0.190488 0.924469 0.942166
H30_4 H 0.202912 0.855 0.92877
H32_8 H 0.416596 0.626945 1
H34_8 H 0.203698 0.881408 1
H35_4 H 0.0744709 0.875449 0.970824
H36_4 H 0.117731 0.936625 0.966336
H37_4 H 0.0526622 0.930579 0.947416
O40_4 O 0.98048(12) 0.72909(12) 0.17752(6)
O43_4 O 0.96650(14) 0.78957(13) 0.14180(7)
Cu10_3 Cu 0.68459(2) 0.03936(2) 0.340952(10)
Cu16_3 Cu 0.76273(2) 0.03039(2) 0.381111(11)
O25_3 O 0.35120(12) 0.02035(12) 0.63676(6)
O26_3 O 0.35120(12) 0.02035(12) 0.36324(6)
O28_3 O 0.29007(13) 0.02203(13) 0.60041(7)
O29_3 O 0.29007(13) 0.02203(13) 0.39959(7)
O40_5 O 0.27091(12) 0.01952(12) 0.32248(6)
O43_5 O 0.21043(13) 0.03350(14) 0.35820(7)
Cu3_3 Cu 0.21327(3) 0.73627(3) 0.5000
Cu4_3 Cu 0.28307(3) 0.64881(3) 0.5000
C1_5 C 0.32372(19) 0.88577(17) 0.61264(10)
C2_5 C 0.34866(18) 0.83700(18) 0.59673(10)
C3_5 C 0.32011(19) 0.81328(17) 0.57430(9)
H1_5 H 0.2857 0.8287 0.5684
C4_5 C 0.34232(18) 0.76641(17) 0.56032(10)
C5_5 C 0.30824(19) 0.73762(19) 0.53760(9)
C6_5 C 0.39483(19) 0.74581(19) 0.56787(11)
H2_5 H 0.4102 0.7149 0.5582
C7_5 C 0.42512(18) 0.77130(17) 0.59001(11)
C8_5 C 0.40184(19) 0.81582(18) 0.60495(10)
H3_5 H 0.4211 0.8317 0.6203
C9_5 C 0.5054(2) 0.7636(2) 0.62064(11)
H4_5 H 0.4803 0.7550 0.6364
H5_5 H 0.5390 0.7403 0.6227
C10_5 C 0.66773(18) 0.95982(16) 0.61393(10)
C11_5 C 0.63699(17) 0.90983(17) 0.60122(9)
C12_5 C 0.59149(17) 0.88704(18) 0.61590(10)
H6_5 H 0.5788 0.9044 0.6325
C13_5 C 0.56518(17) 0.83914(18) 0.60617(9)
C14_5 C 0.58287(18) 0.81352(19) 0.58093(10)
H7_5 H 0.5645 0.7815 0.5740
C15_5 C 0.62873(18) 0.83713(18) 0.56639(10)
C16_5 C 0.65033(18) 0.80815(18) 0.53979(9)
C17_5 C 0.65546(19) 0.88518(17) 0.57649(9)
H8_5 H 0.6858 0.9008 0.5666
O1_5 O 0.34924(12) 0.90258(12) 0.63419(6)
O2_5 O 0.27799(13) 0.90524(13) 0.60286(7)
O3_5 O 0.26493(14) 0.76375(14) 0.52921(7)
O4_5 O 0.32543(12) 0.69065(12) 0.52853(6)
O5_3 O 0.64880(12) 0.97965(12) 0.63676(6)
O6_3 O 0.70993(13) 0.97797(13) 0.60041(7)
O7_4 O 0.62204(13) 0.76759(12) 0.53066(6)
O8_4 O 0.69481(14) 0.82752(13) 0.52984(7)
O9_5 O 0.47756(13) 0.74839(13) 0.59478(8)
O10_5 O 0.52093(13) 0.81972(14) 0.62222(7)
O16_5 O 0.37875(17) 0.95489(17) 0.69067(8)
O17_9 O 0.3321(2) 0.5735(2) 0.5000
O18_9 O 0.1588(3) 0.8089(3) 0.5000
O19_5 O 0.17296(19) 0.9667(2) 0.58662(10)
N1_5 N 0.1212(4) 0.8806(4) 0.5683(2)
C27_5 C 0.1619(7) 0.9122(4) 0.5850(4)
C28_5 C 0.1071(7) 0.8232(5) 0.5733(4)
C29_5 C 0.0927(7) 0.9110(6) 0.5443(3)
Cu5_3 Cu 0.31541(2) 0.96064(2) 0.340952(10)
Cu11_3 Cu 0.23727(2) 0.96961(2) 0.381111(11)
Cu17_7 Cu 0.73627(3) 0.78673(3) 0.5000
Cu18_7 Cu 0.64881(3) 0.71693(3) 0.5000
C30_5 C 0.32372(19) 0.88577(17) 0.38736(10)
C31_5 C 0.34866(18) 0.83700(18) 0.40327(10)
C32_5 C 0.32011(19) 0.81328(17) 0.42570(9)
H13_5 H 0.2857 0.8287 0.4316
C33_5 C 0.34232(18) 0.76641(17) 0.43968(10)
C34_5 C 0.30824(19) 0.73762(19) 0.46240(9)
C35_5 C 0.39483(19) 0.74581(19) 0.43213(11)
H14_5 H 0.4102 0.7149 0.4418
C36_5 C 0.42512(18) 0.77130(17) 0.40999(11)
C37_5 C 0.40184(19) 0.81582(18) 0.39505(10)
H15_5 H 0.4211 0.8317 0.3797
C38_5 C 0.5054(2) 0.7636(2) 0.37936(11)
H16_5 H 0.4803 0.7550 0.3636
H17_5 H 0.5390 0.7403 0.3773
C39_5 C 0.66773(18) 0.95982(16) 0.38607(10)
C40_5 C 0.63699(17) 0.90983(17) 0.39878(9)
C41_5 C 0.59149(17) 0.88704(18) 0.38410(10)
H18_5 H 0.5788 0.9044 0.3675
C42_5 C 0.56518(17) 0.83914(18) 0.39383(9)
C43_5 C 0.58287(18) 0.81352(19) 0.41907(10)
H19_5 H 0.5645 0.7815 0.4260
C44_5 C 0.62873(18) 0.83713(18) 0.43361(10)
C45_5 C 0.65033(18) 0.80815(18) 0.46021(9)
C46_5 C 0.65546(19) 0.88518(17) 0.42351(9)
H20_5 H 0.6858 0.9008 0.4334
O20_5 O 0.34924(12) 0.90258(12) 0.36581(6)
O21_5 O 0.27799(13) 0.90524(13) 0.39714(7)
O22_5 O 0.26493(14) 0.76375(14) 0.47079(7)
O23_5 O 0.32543(12) 0.69065(12) 0.47147(6)
O24_3 O 0.64880(12) 0.97965(12) 0.36324(6)
O27_3 O 0.70993(13) 0.97797(13) 0.39959(7)
O30_4 O 0.62204(13) 0.76759(12) 0.46934(6)
O31_2 O 0.23241(12) 0.62204(13) 0.53066(6)
O32_2 O 0.23241(12) 0.62204(13) 0.46934(6)
O33_4 O 0.69481(14) 0.82752(13) 0.47016(7)
O34_2 O 0.17248(13) 0.69481(14) 0.52984(7)
O35_2 O 0.17248(13) 0.69481(14) 0.47016(7)
O36_5 O 0.47756(13) 0.74839(13) 0.40522(8)
O37_5 O 0.52093(13) 0.81972(14) 0.37778(7)
O45_5 O 0.26529(12) 0.90225(12) 0.32544(6)
O47_5 O 0.19567(13) 0.91660(13) 0.35695(7)
O49_5 O 0.37875(17) 0.95489(17) 0.30933(8)
O50_5 O 0.17296(19) 0.9667(2) 0.41338(10)
N2_5 N 0.1212(4) 0.8806(4) 0.4317(2)
C55_5 C 0.1619(7) 0.9122(4) 0.4150(4)
C56_5 C 0.1071(7) 0.8232(5) 0.4267(4)
C57_5 C 0.0927(7) 0.9110(6) 0.4557(3)
H27_5 H 0.188224 0.885962 0.598768
H28_5 H 0.0898999 0.81875 0.594691
H29_5 H 0.0755308 0.809512 0.557834
H30_5 H 0.145 0.797088 0.57123
H35_5 H 0.124551 0.925529 0.529176
H36_5 H 0.0633751 0.882269 0.533664
H37_5 H 0.0694214 0.947338 0.552584
H40_5 H 0.145 0.797088 0.42877
H41_5 H 0.0755308 0.809512 0.442166
H42_5 H 0.0898999 0.81875 0.405309
H43_5 H 0.188224 0.885962 0.401232
H44_5 H 0.0694214 0.947338 0.447416
H45_5 H 0.0633751 0.882269 0.466336
H46_5 H 0.124551 0.925529 0.470824
Cu3_4 Cu 0.26373(3) 0.21327(3) 0.5000
Cu4_4 Cu 0.35119(3) 0.28307(3) 0.5000
C1_6 C 0.11423(17) 0.32372(19) 0.61264(10)
C2_6 C 0.16300(18) 0.34866(18) 0.59673(10)
C3_6 C 0.18672(17) 0.32011(19) 0.57430(9)
H1_6 H 0.1713 0.2857 0.5684
C4_6 C 0.23359(17) 0.34232(18) 0.56032(10)
C5_6 C 0.26238(19) 0.30824(19) 0.53760(9)
C6_6 C 0.25419(19) 0.39483(19) 0.56787(11)
H2_6 H 0.2851 0.4102 0.5582
C7_6 C 0.22870(17) 0.42512(18) 0.59001(11)
C8_6 C 0.18418(18) 0.40184(19) 0.60495(10)
H3_6 H 0.1683 0.4211 0.6203
C9_6 C 0.2364(2) 0.5054(2) 0.62064(11)
H4_6 H 0.2450 0.4803 0.6364
H5_6 H 0.2597 0.5390 0.6227
C10_6 C 0.04018(16) 0.66773(18) 0.61393(10)
C11_6 C 0.09017(17) 0.63699(17) 0.60122(9)
C12_6 C 0.11296(18) 0.59149(17) 0.61590(10)
H6_6 H 0.0956 0.5788 0.6325
C13_6 C 0.16086(18) 0.56518(17) 0.60617(9)
C14_6 C 0.18648(19) 0.58287(18) 0.58093(10)
H7_6 H 0.2185 0.5645 0.5740
C15_6 C 0.16287(18) 0.62873(18) 0.56639(10)
C16_6 C 0.19185(18) 0.65033(18) 0.53979(9)
C17_6 C 0.11482(17) 0.65546(19) 0.57649(9)
H8_6 H 0.0992 0.6858 0.5666
O1_6 O 0.09742(12) 0.34924(12) 0.63419(6)
O2_6 O 0.09476(13) 0.27799(13) 0.60286(7)
O3_6 O 0.23625(14) 0.26493(14) 0.52921(7)
O4_6 O 0.30935(12) 0.32543(12) 0.52853(6)
O5_4 O 0.02035(12) 0.64880(12) 0.63676(6)
O6_4 O 0.02203(13) 0.70993(13) 0.60041(7)
O9_6 O 0.25161(13) 0.47756(13) 0.59478(8)
O10_6 O 0.18028(14) 0.52093(13) 0.62222(7)
O16_6 O 0.04511(17) 0.37875(17) 0.69067(8)
O17_10 O 0.4265(2) 0.3321(2) 0.5000
O18_10 O 0.1911(3) 0.1588(3) 0.5000
O19_6 O 0.0333(2) 0.17296(19) 0.58662(10)
N1_6 N 0.1194(4) 0.1212(4) 0.5683(2)
C27_6 C 0.0878(4) 0.1619(7) 0.5850(4)
C28_6 C 0.1768(5) 0.1071(7) 0.5733(4)
C29_6 C 0.0890(6) 0.0927(7) 0.5443(3)
Cu5_4 Cu 0.03936(2) 0.31541(2) 0.340952(10)
Cu11_4 Cu 0.03039(2) 0.23727(2) 0.381111(11)
C30_6 C 0.11423(17) 0.32372(19) 0.38736(10)
C31_6 C 0.16300(18) 0.34866(18) 0.40327(10)
C32_6 C 0.18672(17) 0.32011(19) 0.42570(9)
H13_6 H 0.1713 0.2857 0.4316
C33_6 C 0.23359(17) 0.34232(18) 0.43968(10)
C34_6 C 0.26238(19) 0.30824(19) 0.46240(9)
C35_6 C 0.25419(19) 0.39483(19) 0.43213(11)
H14_6 H 0.2851 0.4102 0.4418
C36_6 C 0.22870(17) 0.42512(18) 0.40999(11)
C37_6 C 0.18418(18) 0.40184(19) 0.39505(10)
H15_6 H 0.1683 0.4211 0.3797
C38_6 C 0.2364(2) 0.5054(2) 0.37936(11)
H16_6 H 0.2450 0.4803 0.3636
H17_6 H 0.2597 0.5390 0.3773
C39_6 C 0.04018(16) 0.66773(18) 0.38607(10)
C40_6 C 0.09017(17) 0.63699(17) 0.39878(9)
C41_6 C 0.11296(18) 0.59149(17) 0.38410(10)
H18_6 H 0.0956 0.5788 0.3675
C42_6 C 0.16086(18) 0.56518(17) 0.39383(9)
C43_6 C 0.18648(19) 0.58287(18) 0.41907(10)
H19_6 H 0.2185 0.5645 0.4260
C44_6 C 0.16287(18) 0.62873(18) 0.43361(10)
C45_6 C 0.19185(18) 0.65033(18) 0.46021(9)
C46_6 C 0.11482(17) 0.65546(19) 0.42351(9)
H20_6 H 0.0992 0.6858 0.4334
O20_6 O 0.09742(12) 0.34924(12) 0.36581(6)
O21_6 O 0.09476(13) 0.27799(13) 0.39714(7)
O22_6 O 0.23625(14) 0.26493(14) 0.47079(7)
O23_6 O 0.30935(12) 0.32543(12) 0.47147(6)
O24_4 O 0.02035(12) 0.64880(12) 0.36324(6)
O27_4 O 0.02203(13) 0.70993(13) 0.39959(7)
O31_3 O 0.37796(13) 0.23241(12) 0.53066(6)
O32_3 O 0.37796(13) 0.23241(12) 0.46934(6)
O34_3 O 0.30519(14) 0.17248(13) 0.52984(7)
O35_3 O 0.30519(14) 0.17248(13) 0.47016(7)
O36_6 O 0.25161(13) 0.47756(13) 0.40522(8)
O37_6 O 0.18028(14) 0.52093(13) 0.37778(7)
O45_6 O 0.09775(12) 0.26529(12) 0.32544(6)
O47_6 O 0.08340(13) 0.19567(13) 0.35695(7)
O49_6 O 0.04511(17) 0.37875(17) 0.30933(8)
O50_6 O 0.0333(2) 0.17296(19) 0.41338(10)
N2_6 N 0.1194(4) 0.1212(4) 0.4317(2)
C55_6 C 0.0878(4) 0.1619(7) 0.4150(4)
C56_6 C 0.1768(5) 0.1071(7) 0.4267(4)
C57_6 C 0.0890(6) 0.0927(7) 0.4557(3)
H27_6 H 0.114038 0.188224 0.598768
H28_6 H 0.18125 0.0898999 0.594691
H29_6 H 0.190488 0.0755308 0.557834
H30_6 H 0.202912 0.145 0.57123
H35_6 H 0.0744709 0.124551 0.529176
H36_6 H 0.117731 0.0633751 0.533664
H37_6 H 0.0526622 0.0694214 0.552584
H40_6 H 0.202912 0.145 0.42877
H41_6 H 0.190488 0.0755308 0.442166
H42_6 H 0.18125 0.0898999 0.405309
H43_6 H 0.114038 0.188224 0.401232
H44_6 H 0.0526622 0.0694214 0.447416
H45_6 H 0.117731 0.0633751 0.466336
H46_6 H 0.0744709 0.124551 0.470824
Cu10_4 Cu 0.96064(2) 0.68459(2) 0.340952(10)
Cu16_4 Cu 0.96961(2) 0.76273(2) 0.381111(11)
O25_4 O 0.97965(12) 0.35120(12) 0.63676(6)
O26_4 O 0.97965(12) 0.35120(12) 0.36324(6)
O28_4 O 0.97797(13) 0.29007(13) 0.60041(7)
O29_4 O 0.97797(13) 0.29007(13) 0.39959(7)
O40_6 O 0.98048(12) 0.27091(12) 0.32248(6)
O43_6 O 0.96650(14) 0.21043(13) 0.35820(7)
Cu3_5 Cu 0.78673(3) 0.26373(3) 0.5000
Cu4_5 Cu 0.71693(3) 0.35119(3) 0.5000
C1_7 C 0.67628(19) 0.11423(17) 0.61264(10)
C2_7 C 0.65134(18) 0.16300(18) 0.59673(10)
C3_7 C 0.67989(19) 0.18672(17) 0.57430(9)
H1_7 H 0.7143 0.1713 0.5684
C4_7 C 0.65768(18) 0.23359(17) 0.56032(10)
C5_7 C 0.69176(19) 0.26238(19) 0.53760(9)
C6_7 C 0.60517(19) 0.25419(19) 0.56787(11)
H2_7 H 0.5898 0.2851 0.5582
C7_7 C 0.57488(18) 0.22870(17) 0.59001(11)
C8_7 C 0.59816(19) 0.18418(18) 0.60495(10)
H3_7 H 0.5789 0.1683 0.6203
C9_7 C 0.4946(2) 0.2364(2) 0.62064(11)
H4_7 H 0.5197 0.2450 0.6364
H5_7 H 0.4610 0.2597 0.6227
C10_7 C 0.33227(18) 0.04018(16) 0.61393(10)
C11_7 C 0.36301(17) 0.09017(17) 0.60122(9)
C12_7 C 0.40851(17) 0.11296(18) 0.61590(10)
H6_7 H 0.4212 0.0956 0.6325
C13_7 C 0.43482(17) 0.16086(18) 0.60617(9)
C14_7 C 0.41713(18) 0.18648(19) 0.58093(10)
H7_7 H 0.4355 0.2185 0.5740
C15_7 C 0.37127(18) 0.16287(18) 0.56639(10)
C16_7 C 0.34967(18) 0.19185(18) 0.53979(9)
C17_7 C 0.34454(19) 0.11482(17) 0.57649(9)
H8_7 H 0.3142 0.0992 0.5666
O1_7 O 0.65076(12) 0.09742(12) 0.63419(6)
O2_7 O 0.72201(13) 0.09476(13) 0.60286(7)
O3_7 O 0.73507(14) 0.23625(14) 0.52921(7)
O4_7 O 0.67457(12) 0.30935(12) 0.52853(6)
O9_7 O 0.52244(13) 0.25161(13) 0.59478(8)
O10_7 O 0.47907(13) 0.18028(14) 0.62222(7)
O16_7 O 0.62125(17) 0.04511(17) 0.69067(8)
O17_11 O 0.6679(2) 0.4265(2) 0.5000
O18_11 O 0.8412(3) 0.1911(3) 0.5000
O19_7 O 0.82704(19) 0.0333(2) 0.58662(10)
N1_7 N 0.8788(4) 0.1194(4) 0.5683(2)
C27_7 C 0.8381(7) 0.0878(4) 0.5850(4)
C28_7 C 0.8929(7) 0.1768(5) 0.5733(4)
C29_7 C 0.9073(7) 0.0890(6) 0.5443(3)
C30_7 C 0.67628(19) 0.11423(17) 0.38736(10)
C31_7 C 0.65134(18) 0.16300(18) 0.40327(10)
C32_7 C 0.67989(19) 0.18672(17) 0.42570(9)
H13_7 H 0.7143 0.1713 0.4316
C33_7 C 0.65768(18) 0.23359(17) 0.43968(10)
C34_7 C 0.69176(19) 0.26238(19) 0.46240(9)
C35_7 C 0.60517(19) 0.25419(19) 0.43213(11)
H14_7 H 0.5898 0.2851 0.4418
C36_7 C 0.57488(18) 0.22870(17) 0.40999(11)
C37_7 C 0.59816(19) 0.18418(18) 0.39505(10)
H15_7 H 0.5789 0.1683 0.3797
C38_7 C 0.4946(2) 0.2364(2) 0.37936(11)
H16_7 H 0.5197 0.2450 0.3636
H17_7 H 0.4610 0.2597 0.3773
C39_7 C 0.33227(18) 0.04018(16) 0.38607(10)
C40_7 C 0.36301(17) 0.09017(17) 0.39878(9)
C41_7 C 0.40851(17) 0.11296(18) 0.38410(10)
H18_7 H 0.4212 0.0956 0.3675
C42_7 C 0.43482(17) 0.16086(18) 0.39383(9)
C43_7 C 0.41713(18) 0.18648(19) 0.41907(10)
H19_7 H 0.4355 0.2185 0.4260
C44_7 C 0.37127(18) 0.16287(18) 0.43361(10)
C45_7 C 0.34967(18) 0.19185(18) 0.46021(9)
C46_7 C 0.34454(19) 0.11482(17) 0.42351(9)
H20_7 H 0.3142 0.0992 0.4334
O20_7 O 0.65076(12) 0.09742(12) 0.36581(6)
O21_7 O 0.72201(13) 0.09476(13) 0.39714(7)
O22_7 O 0.73507(14) 0.23625(14) 0.47079(7)
O23_7 O 0.67457(12) 0.30935(12) 0.47147(6)
O31_4 O 0.76759(12) 0.37796(13) 0.53066(6)
O32_4 O 0.76759(12) 0.37796(13) 0.46934(6)
O34_4 O 0.82752(13) 0.30519(14) 0.52984(7)
O35_4 O 0.82752(13) 0.30519(14) 0.47016(7)
O36_7 O 0.52244(13) 0.25161(13) 0.40522(8)
O37_7 O 0.47907(13) 0.18028(14) 0.37778(7)
O45_7 O 0.73471(12) 0.09775(12) 0.32544(6)
O47_7 O 0.80433(13) 0.08340(13) 0.35695(7)
O49_7 O 0.62125(17) 0.04511(17) 0.30933(8)
O50_7 O 0.82704(19) 0.0333(2) 0.41338(10)
N2_7 N 0.8788(4) 0.1194(4) 0.4317(2)
C55_7 C 0.8381(7) 0.0878(4) 0.4150(4)
C56_7 C 0.8929(7) 0.1768(5) 0.4267(4)
C57_7 C 0.9073(7) 0.0890(6) 0.4557(3)
H27_7 H 0.811776 0.114038 0.598768
H28_7 H 0.9101 0.18125 0.594691
H29_7 H 0.924469 0.190488 0.557834
H30_7 H 0.855 0.202912 0.57123
H35_7 H 0.875449 0.0744709 0.529176
H36_7 H 0.936625 0.117731 0.533664
H37_7 H 0.930579 0.0526622 0.552584
H40_7 H 0.855 0.202912 0.42877
H41_7 H 0.924469 0.190488 0.442166
H42_7 H 0.9101 0.18125 0.405309
H43_7 H 0.811776 0.114038 0.401232
H44_7 H 0.930579 0.0526622 0.447416
H45_7 H 0.936625 0.117731 0.466336
H46_7 H 0.875449 0.0744709 0.470824
O40_7 O 0.72909(12) 0.98048(12) 0.32248(6)
O43_7 O 0.78957(13) 0.96650(14) 0.35820(7)
O40_8 O 0.01952(12) 0.72909(12) 0.32248(6)
O43_8 O 0.03350(14) 0.78957(13) 0.35820(7)
C1_8 C 0.88577(17) 0.67628(19) 0.61264(10)
C2_8 C 0.83700(18) 0.65134(18) 0.59673(10)
C3_8 C 0.81328(17) 0.67989(19) 0.57430(9)
H1_8 H 0.8287 0.7143 0.5684
C4_8 C 0.76641(17) 0.65768(18) 0.56032(10)
C5_8 C 0.73762(19) 0.69176(19) 0.53760(9)
C6_8 C 0.74581(19) 0.60517(19) 0.56787(11)
H2_8 H 0.7149 0.5898 0.5582
C7_8 C 0.77130(17) 0.57488(18) 0.59001(11)
C8_8 C 0.81582(18) 0.59816(19) 0.60495(10)
H3_8 H 0.8317 0.5789 0.6203
C9_8 C 0.7636(2) 0.4946(2) 0.62064(11)
H4_8 H 0.7550 0.5197 0.6364
H5_8 H 0.7403 0.4610 0.6227
C10_8 C 0.95982(16) 0.33227(18) 0.61393(10)
C11_8 C 0.90983(17) 0.36301(17) 0.60122(9)
C12_8 C 0.88704(18) 0.40851(17) 0.61590(10)
H6_8 H 0.9044 0.4212 0.6325
C13_8 C 0.83914(18) 0.43482(17) 0.60617(9)
C14_8 C 0.81352(19) 0.41713(18) 0.58093(10)
H7_8 H 0.7815 0.4355 0.5740
C15_8 C 0.83713(18) 0.37127(18) 0.56639(10)
C16_8 C 0.80815(18) 0.34967(18) 0.53979(9)
C17_8 C 0.88518(17) 0.34454(19) 0.57649(9)
H8_8 H 0.9008 0.3142 0.5666
O1_8 O 0.90258(12) 0.65076(12) 0.63419(6)
O2_8 O 0.90524(13) 0.72201(13) 0.60286(7)
O3_8 O 0.76375(14) 0.73507(14) 0.52921(7)
O4_8 O 0.69065(12) 0.67457(12) 0.52853(6)
O9_8 O 0.74839(13) 0.52244(13) 0.59478(8)
O10_8 O 0.81972(14) 0.47907(13) 0.62222(7)
O16_8 O 0.95489(17) 0.62125(17) 0.69067(8)
O17_12 O 0.5735(2) 0.6679(2) 0.5000
O18_12 O 0.8089(3) 0.8412(3) 0.5000
O19_8 O 0.9667(2) 0.82704(19) 0.58662(10)
N1_8 N 0.8806(4) 0.8788(4) 0.5683(2)
C27_8 C 0.9122(4) 0.8381(7) 0.5850(4)
C28_8 C 0.8232(5) 0.8929(7) 0.5733(4)
C29_8 C 0.9110(6) 0.9073(7) 0.5443(3)
C30_8 C 0.88577(17) 0.67628(19) 0.38736(10)
C31_8 C 0.83700(18) 0.65134(18) 0.40327(10)
C32_8 C 0.81328(17) 0.67989(19) 0.42570(9)
H13_8 H 0.8287 0.7143 0.4316
C33_8 C 0.76641(17) 0.65768(18) 0.43968(10)
C34_8 C 0.73762(19) 0.69176(19) 0.46240(9)
C35_8 C 0.74581(19) 0.60517(19) 0.43213(11)
H14_8 H 0.7149 0.5898 0.4418
C36_8 C 0.77130(17) 0.57488(18) 0.40999(11)
C37_8 C 0.81582(18) 0.59816(19) 0.39505(10)
H15_8 H 0.8317 0.5789 0.3797
C38_8 C 0.7636(2) 0.4946(2) 0.37936(11)
H16_8 H 0.7550 0.5197 0.3636
H17_8 H 0.7403 0.4610 0.3773
C39_8 C 0.95982(16) 0.33227(18) 0.38607(10)
C40_8 C 0.90983(17) 0.36301(17) 0.39878(9)
C41_8 C 0.88704(18) 0.40851(17) 0.38410(10)
H18_8 H 0.9044 0.4212 0.3675
C42_8 C 0.83914(18) 0.43482(17) 0.39383(9)
C43_8 C 0.81352(19) 0.41713(18) 0.41907(10)
H19_8 H 0.7815 0.4355 0.4260
C44_8 C 0.83713(18) 0.37127(18) 0.43361(10)
C45_8 C 0.80815(18) 0.34967(18) 0.46021(9)
C46_8 C 0.88518(17) 0.34454(19) 0.42351(9)
H20_8 H 0.9008 0.3142 0.4334
O20_8 O 0.90258(12) 0.65076(12) 0.36581(6)
O21_8 O 0.90524(13) 0.72201(13) 0.39714(7)
O22_8 O 0.76375(14) 0.73507(14) 0.47079(7)
O23_8 O 0.69065(12) 0.67457(12) 0.47147(6)
O36_8 O 0.74839(13) 0.52244(13) 0.40522(8)
O37_8 O 0.81972(14) 0.47907(13) 0.37778(7)
O45_8 O 0.90225(12) 0.73471(12) 0.32544(6)
O47_8 O 0.91660(13) 0.80433(13) 0.35695(7)
O49_8 O 0.95489(17) 0.62125(17) 0.30933(8)
O50_8 O 0.9667(2) 0.82704(19) 0.41338(10)
N2_8 N 0.8806(4) 0.8788(4) 0.4317(2)
C55_8 C 0.9122(4) 0.8381(7) 0.4150(4)
C56_8 C 0.8232(5) 0.8929(7) 0.4267(4)
C57_8 C 0.9110(6) 0.9073(7) 0.4557(3)
H27_8 H 0.885962 0.811776 0.598768
H28_8 H 0.81875 0.9101 0.594691
H29_8 H 0.809512 0.924469 0.557834
H30_8 H 0.797088 0.855 0.57123
H35_8 H 0.925529 0.875449 0.529176
H36_8 H 0.882269 0.936625 0.533664
H37_8 H 0.947338 0.930579 0.552584
H40_8 H 0.797088 0.855 0.42877
H41_8 H 0.809512 0.924469 0.442166
H42_8 H 0.81875 0.9101 0.405309
H43_8 H 0.885962 0.811776 0.401232
H44_8 H 0.947338 0.930579 0.447416
H45_8 H 0.882269 0.936625 0.466336
H46_8 H 0.925529 0.875449 0.470824
C18_5 C 0.95335(19) 0.76740(18) 0.16502(9)
C19_5 C 0.89994(17) 0.78796(18) 0.17894(9)
C20_5 C 0.88020(18) 0.76227(18) 0.20346(9)
H9_5 H 0.9015 0.7338 0.2121
C21_5 C 0.82938(18) 0.77861(19) 0.21506(10)
C22_5 C 0.79732(18) 0.82076(19) 0.20242(9)
H10_5 H 0.7627 0.8315 0.2102
C23_5 C 0.86860(19) 0.83084(19) 0.16646(10)
H11_5 H 0.8822 0.8489 0.1502
C24_5 C 0.81744(18) 0.84684(18) 0.17793(9)
C25_5 C 0.78286(19) 0.89230(19) 0.16403(10)
C26_5 C 0.7584(2) 0.7584(2) 0.2500
H12_5 H 0.7514 0.7310 0.2650
O15_5 O 0.81385(13) 0.74937(13) 0.23897(6)
C47_5 C 0.76740(18) 0.95335(19) 0.33498(9)
C48_5 C 0.78796(18) 0.89994(17) 0.32106(9)
C49_5 C 0.76227(18) 0.88020(18) 0.29654(9)
H21_5 H 0.7338 0.9015 0.2879
C50_5 C 0.77861(19) 0.82938(18) 0.28494(10)
C51_5 C 0.82076(19) 0.79732(18) 0.29758(9)
H22_5 H 0.8315 0.7627 0.2898
C52_5 C 0.83084(19) 0.86860(19) 0.33354(10)
H23_5 H 0.8489 0.8822 0.3498
C53_5 C 0.84684(18) 0.81744(18) 0.32207(9)
C54_5 C 0.89230(19) 0.78286(19) 0.33597(10)
H24_5 H 0.7310 0.7514 0.2350
O48_5 O 0.74937(13) 0.81385(13) 0.26103(6)
H31_5 H 0.676883 0.550892 0.982748
H33_5 H 0.833736 0.832054 0.982748
C18_6 C 0.23260(18) 0.95335(19) 0.16502(9)
C19_6 C 0.21204(18) 0.89994(17) 0.17894(9)
C20_6 C 0.23773(18) 0.88020(18) 0.20346(9)
H9_6 H 0.2662 0.9015 0.2121
C21_6 C 0.22139(19) 0.82938(18) 0.21506(10)
C22_6 C 0.17924(19) 0.79732(18) 0.20242(9)
H10_6 H 0.1685 0.7627 0.2102
C23_6 C 0.16916(19) 0.86860(19) 0.16646(10)
H11_6 H 0.1511 0.8822 0.1502
C24_6 C 0.15316(18) 0.81744(18) 0.17793(9)
C25_6 C 0.10770(19) 0.78286(19) 0.16403(10)
C26_6 C 0.2416(2) 0.7584(2) 0.2500
H12_6 H 0.2690 0.7514 0.2650
O15_6 O 0.25063(13) 0.81385(13) 0.23897(6)
C47_6 C 0.04665(19) 0.76740(18) 0.33498(9)
C48_6 C 0.10006(17) 0.78796(18) 0.32106(9)
C49_6 C 0.11980(18) 0.76227(18) 0.29654(9)
H21_6 H 0.0985 0.7338 0.2879
C50_6 C 0.17062(18) 0.77861(19) 0.28494(10)
C51_6 C 0.20268(18) 0.82076(19) 0.29758(9)
H22_6 H 0.2373 0.8315 0.2898
C52_6 C 0.13140(19) 0.83084(19) 0.33354(10)
H23_6 H 0.1178 0.8489 0.3498
C53_6 C 0.18256(18) 0.84684(18) 0.32207(9)
C54_6 C 0.21714(19) 0.89230(19) 0.33597(10)
H24_6 H 0.2486 0.7310 0.2350
O48_6 O 0.18615(13) 0.74937(13) 0.26103(6)
H31_6 H 0.449108 0.676883 0.982748
H33_6 H 0.167946 0.833736 0.982748
C18_7 C 0.04665(19) 0.23260(18) 0.16502(9)
C19_7 C 0.10006(17) 0.21204(18) 0.17894(9)
C20_7 C 0.11980(18) 0.23773(18) 0.20346(9)
H9_7 H 0.0985 0.2662 0.2121
C21_7 C 0.17062(18) 0.22139(19) 0.21506(10)
C22_7 C 0.20268(18) 0.17924(19) 0.20242(9)
H10_7 H 0.2373 0.1685 0.2102
C23_7 C 0.13140(19) 0.16916(19) 0.16646(10)
H11_7 H 0.1178 0.1511 0.1502
C24_7 C 0.18256(18) 0.15316(18) 0.17793(9)
C25_7 C 0.21714(19) 0.10770(19) 0.16403(10)
C26_7 C 0.2416(2) 0.2416(2) 0.2500
H12_7 H 0.2486 0.2690 0.2650
O15_7 O 0.18615(13) 0.25063(13) 0.23897(6)
C47_7 C 0.23260(18) 0.04665(19) 0.33498(9)
C48_7 C 0.21204(18) 0.10006(17) 0.32106(9)
C49_7 C 0.23773(18) 0.11980(18) 0.29654(9)
H21_7 H 0.2662 0.0985 0.2879
C50_7 C 0.22139(19) 0.17062(18) 0.28494(10)
C51_7 C 0.17924(19) 0.20268(18) 0.29758(9)
H22_7 H 0.1685 0.2373 0.2898
C52_7 C 0.16916(19) 0.13140(19) 0.33354(10)
H23_7 H 0.1511 0.1178 0.3498
C53_7 C 0.15316(18) 0.18256(18) 0.32207(9)
C54_7 C 0.10770(19) 0.21714(19) 0.33597(10)
H24_7 H 0.2690 0.2486 0.2350
O48_7 O 0.25063(13) 0.18615(13) 0.26103(6)
H31_7 H 0.323117 0.449108 0.982748
H33_7 H 0.166264 0.167946 0.982748
C18_8 C 0.76740(18) 0.04665(19) 0.16502(9)
C19_8 C 0.78796(18) 0.10006(17) 0.17894(9)
C20_8 C 0.76227(18) 0.11980(18) 0.20346(9)
H9_8 H 0.7338 0.0985 0.2121
C21_8 C 0.77861(19) 0.17062(18) 0.21506(10)
C22_8 C 0.82076(19) 0.20268(18) 0.20242(9)
H10_8 H 0.8315 0.2373 0.2102
C23_8 C 0.83084(19) 0.13140(19) 0.16646(10)
H11_8 H 0.8489 0.1178 0.1502
C24_8 C 0.84684(18) 0.18256(18) 0.17793(9)
C25_8 C 0.89230(19) 0.21714(19) 0.16403(10)
C26_8 C 0.7584(2) 0.2416(2) 0.2500
H12_8 H 0.7310 0.2486 0.2650
O15_8 O 0.74937(13) 0.18615(13) 0.23897(6)
C47_8 C 0.95335(19) 0.23260(18) 0.33498(9)
C48_8 C 0.89994(17) 0.21204(18) 0.32106(9)
C49_8 C 0.88020(18) 0.23773(18) 0.29654(9)
H21_8 H 0.9015 0.2662 0.2879
C50_8 C 0.82938(18) 0.22139(19) 0.28494(10)
C51_8 C 0.79732(18) 0.17924(19) 0.29758(9)
H22_8 H 0.7627 0.1685 0.2898
C52_8 C 0.86860(19) 0.16916(19) 0.33354(10)
H23_8 H 0.8822 0.1511 0.3498
C53_8 C 0.81744(18) 0.15316(18) 0.32207(9)
C54_8 C 0.78286(19) 0.10770(19) 0.33597(10)
H24_8 H 0.7514 0.2690 0.2350
O48_8 O 0.81385(13) 0.25063(13) 0.26103(6)
H31_8 H 0.550892 0.323117 0.982748
H33_8 H 0.832054 0.166264 0.982748
loop_
_geom_bond_atom_site_label_1
_geom_bond_atom_site_label_2
_geom_bond_site_symmetry_1
_geom_bond_site_symmetry_2
Cu3 Cu4 1_555 1_555
O17 Cu4 1_555 1_555
O18 Cu3 1_555 1_555
Cu5 Cu11 1_555 1_555
Cu11 O21 1_555 1_555
C30 C31 1_555 1_555
C31 C32 1_555 1_555
C32 H13 1_555 1_555
C33 C32 1_555 1_555
C34 C33 1_555 1_555
C35 C33 1_555 1_555
H14 C35 1_555 1_555
C36 C35 1_555 1_555
C37 C31 1_555 1_555
H15 C37 1_555 1_555
C38 H16 1_555 1_555
H17 C38 1_555 1_555
C39 C40 1_555 1_555
C40 C41 1_555 1_555
C41 H18 1_555 1_555
C42 C41 1_555 1_555
C43 C42 1_555 1_555
H19 C43 1_555 1_555
C44 C43 1_555 1_555
C45 C44 1_555 1_555
C46 C40 1_555 1_555
H20 C46 1_555 1_555
O20 Cu5 1_555 1_555
O21 C30 1_555 1_555
O22 Cu3 1_555 1_555
O23 Cu4 1_555 1_555
O27 C39 1_555 1_555
O30 Cu18 1_555 1_555
O32 Cu4 1_555 1_555
O33 Cu17 1_555 1_555
O35 Cu3 1_555 1_555
O36 C36 1_555 1_555
O37 C38 1_555 1_555
O45 Cu5 1_555 1_555
O47 Cu11 1_555 1_555
O49 Cu5 1_555 1_555
O50 Cu11 1_555 1_555
N2 C55 1_555 1_555
C55 O50 1_555 1_555
C56 N2 1_555 1_555
C57 N2 1_555 1_555
Cu17 Cu18 1_555 1_555
C30 O20 1_555 1_555
C34 O22 1_555 1_555
C34 O23 1_555 1_555
C36 C37 1_555 1_555
C38 O36 1_555 1_555
C39 O24 1_555 1_555
C42 O37 1_555 1_555
C44 C46 1_555 1_555
C45 O30 1_555 1_555
C45 O33 1_555 1_555
O17 H31 1_555 1_555
O17 H32 1_555 1_555
O18 H33 1_555 1_555
O18 H34 1_555 1_555
C56 H40 1_555 1_555
C56 H41 1_555 1_555
C56 H42 1_555 1_555
C55 H43 1_555 1_555
C57 H44 1_555 1_555
C57 H45 1_555 1_555
C57 H46 1_555 1_555
Cu1 Cu2 1_555 1_555
Cu2 O2 1_555 1_555
Cu3_2 Cu4_2 1_555 1_555
Cu4_2 O4 1_555 1_555
C1 C2 1_555 1_555
C2 C3 1_555 1_555
C3 H1 1_555 1_555
C4 C3 1_555 1_555
C5 C4 1_555 1_555
C6 C4 1_555 1_555
H2 C6 1_555 1_555
C7 C6 1_555 1_555
C8 C2 1_555 1_555
H3 C8 1_555 1_555
C9 H4 1_555 1_555
H5 C9 1_555 1_555
C10 C11 1_555 1_555
C11 C12 1_555 1_555
C12 H6 1_555 1_555
C13 C12 1_555 1_555
C14 C13 1_555 1_555
H7 C14 1_555 1_555
C15 C14 1_555 1_555
C16 C15 1_555 1_555
C17 C11 1_555 1_555
H8 C17 1_555 1_555
C18 C19 1_555 1_555
C19 C20 1_555 1_555
C20 H9 1_555 1_555
C21 C20 1_555 1_555
C22 C21 1_555 1_555
H10 C22 1_555 1_555
C23 C19 1_555 1_555
H11 C23 1_555 1_555
C24 C22 1_555 1_555
C25 C24 1_555 1_555
C26 H12 1_555 1_555
O1 Cu1 1_555 1_555
O2 C1 1_555 1_555
O3 Cu3_2 1_555 1_555
O4 C5 1_555 1_555
O5 C10 1_555 1_555
O6 C10 1_555 1_555
O7 C16 1_555 1_555
O8 C16 1_555 1_555
O9 C7 1_555 1_555
O10 C9 1_555 1_555
O11 C18 1_555 1_555
O12 C18 1_555 1_555
O13 Cu1 1_555 1_555
O14 Cu2 1_555 1_555
O15 C21 1_555 1_555
O16 Cu1 1_555 1_555
O17_2 Cu4_2 1_555 1_555
O18_2 Cu3_2 1_555 1_555
O19 Cu2 1_555 1_555
N1 C27 1_555 1_555
C27 O19 1_555 1_555
C28 N1 1_555 1_555
C29 N1 1_555 1_555
Cu9 Cu15 1_555 1_555
Cu15 O46 1_555 1_555
Cu17_2 O8 1_555 1_555
Cu18_2 O7 1_555 1_555
C47 C48 1_555 1_555
C48 C49 1_555 1_555
C49 H21 1_555 1_555
C50 C49 1_555 1_555
C51 C50 1_555 1_555
H22 C51 1_555 1_555
C52 C48 1_555 1_555
H23 C52 1_555 1_555
C53 C51 1_555 1_555
C54 C53 1_555 1_555
H24 C26 1_555 1_555
O31 Cu4_2 1_555 1_555
O34 Cu3_2 1_555 1_555
O41 C47 1_555 1_555
O44 Cu9 1_555 1_555
O46 C54 1_555 1_555
O48 C26 1_555 1_555
C1 O1 1_555 1_555
C5 O3 1_555 1_555
C7 C8 1_555 1_555
C9 O9 1_555 1_555
C13 O10 1_555 1_555
C15 C17 1_555 1_555
C23 C24 1_555 1_555
C25 O13 1_555 1_555
C25 O14 1_555 1_555
C26 O15 1_555 1_555
Cu17_2 Cu18_2 1_555 1_555
C47 O38 1_555 1_555
C50 O48 1_555 1_555
C52 C53 1_555 1_555
C54 O44 1_555 1_555
C27 H27 1_555 1_555
C28 H28 1_555 1_555
C28 H29 1_555 1_555
C28 H30 1_555 1_555
O17_2 H32_2 1_555 1_555
O18_2 H34_2 1_555 1_555
C29 H35 1_555 1_555
C29 H36 1_555 1_555
C29 H37 1_555 1_555
Cu10 Cu16 1_555 1_555
Cu8 Cu14 1_555 1_555
Cu6 Cu12 1_555 1_555
Cu7 Cu13 1_555 1_555
Cu10_2 Cu16_2 1_555 1_555
Cu6_2 Cu12_2 1_555 1_555
O17_3 Cu18 1_555 1_555
O18_3 Cu17 1_555 1_555
Cu5_2 Cu11_2 1_555 1_555
Cu11_2 O21_2 1_555 1_555
C30_2 C31_2 1_555 1_555
C31_2 C32_2 1_555 1_555
C32_2 H13_2 1_555 1_555
C33_2 C32_2 1_555 1_555
C34_2 C33_2 1_555 1_555
C35_2 C33_2 1_555 1_555
H14_2 C35_2 1_555 1_555
C36_2 C35_2 1_555 1_555
C37_2 C31_2 1_555 1_555
H15_2 C37_2 1_555 1_555
C38_2 H16_2 1_555 1_555
H17_2 C38_2 1_555 1_555
C39_2 C40_2 1_555 1_555
C40_2 C41_2 1_555 1_555
C41_2 H18_2 1_555 1_555
C42_2 C41_2 1_555 1_555
C43_2 C42_2 1_555 1_555
H19_2 C43_2 1_555 1_555
C44_2 C43_2 1_555 1_555
C45_2 C44_2 1_555 1_555
C46_2 C40_2 1_555 1_555
H20_2 C46_2 1_555 1_555
O20_2 Cu5_2 1_555 1_555
O21_2 C30_2 1_555 1_555
O22_2 Cu17 1_555 1_555
O23_2 Cu18 1_555 1_555
O27_2 C39_2 1_555 1_555
O30_2 Cu18_3 1_555 1_555
O33_2 Cu17_3 1_555 1_555
O36_2 C36_2 1_555 1_555
O37_2 C38_2 1_555 1_555
O45_2 Cu5_2 1_555 1_555
O47_2 Cu11_2 1_555 1_555
O49_2 Cu5_2 1_555 1_555
O50_2 Cu11_2 1_555 1_555
N2_2 C55_2 1_555 1_555
C55_2 O50_2 1_555 1_555
C56_2 N2_2 1_555 1_555
C57_2 N2_2 1_555 1_555
Cu17_3 Cu18_3 1_555 1_555
C30_2 O20_2 1_555 1_555
C34_2 O22_2 1_555 1_555
C34_2 O23_2 1_555 1_555
C36_2 C37_2 1_555 1_555
C38_2 O36_2 1_555 1_555
C39_2 O24_2 1_555 1_555
C42_2 O37_2 1_555 1_555
C44_2 C46_2 1_555 1_555
C45_2 O30_2 1_555 1_555
C45_2 O33_2 1_555 1_555
O17_3 H31_2 1_555 1_555
O17_3 H32_3 1_555 1_555
O18_3 H33_2 1_555 1_555
O18_3 H34_3 1_555 1_555
C56_2 H40_2 1_555 1_555
C56_2 H41_2 1_555 1_555
C56_2 H42_2 1_555 1_555
C55_2 H43_2 1_555 1_555
C57_2 H44_2 1_555 1_555
C57_2 H45_2 1_555 1_555
C57_2 H46_2 1_555 1_555
Cu13 O2_2 1_555 1_555
Cu18_2 O4_2 1_555 1_555
C1_2 C2_2 1_555 1_555
C2_2 C3_2 1_555 1_555
C3_2 H1_2 1_555 1_555
C4_2 C3_2 1_555 1_555
C5_2 C4_2 1_555 1_555
C6_2 C4_2 1_555 1_555
H2_2 C6_2 1_555 1_555
C7_2 C6_2 1_555 1_555
C8_2 C2_2 1_555 1_555
H3_2 C8_2 1_555 1_555
C9_2 H4_2 1_555 1_555
H5_2 C9_2 1_555 1_555
C10_2 C11_2 1_555 1_555
C11_2 C12_2 1_555 1_555
C12_2 H6_2 1_555 1_555
C13_2 C12_2 1_555 1_555
C14_2 C13_2 1_555 1_555
H7_2 C14_2 1_555 1_555
C15_2 C14_2 1_555 1_555
C16_2 C15_2 1_555 1_555
C17_2 C11_2 1_555 1_555
H8_2 C17_2 1_555 1_555
C18_2 C19_2 1_555 1_555
C19_2 C20_2 1_555 1_555
C20_2 H9_2 1_555 1_555
C21_2 C20_2 1_555 1_555
C22_2 C21_2 1_555 1_555
H10_2 C22_2 1_555 1_555
C23_2 C19_2 1_555 1_555
H11_2 C23_2 1_555 1_555
C24_2 C22_2 1_555 1_555
C25_2 C24_2 1_555 1_555
C26_2 H12_2 1_555 1_555
O1_2 Cu7 1_555 1_555
O2_2 C1_2 1_555 1_555
O3_2 Cu17_2 1_555 1_555
O4_2 C5_2 1_555 1_555
O5_2 C10_2 1_555 1_555
O6_2 C10_2 1_555 1_555
O7_2 C16_2 1_555 1_555
O8_2 C16_2 1_555 1_555
O9_2 C7_2 1_555 1_555
O10_2 C9_2 1_555 1_555
O11_2 C18_2 1_555 1_555
O12_2 C18_2 1_555 1_555
O13_2 Cu7 1_555 1_555
O14_2 Cu13 1_555 1_555
O15_2 C21_2 1_555 1_555
O16_2 Cu7 1_555 1_555
O17_4 Cu18_2 1_555 1_555
O18_4 Cu17_2 1_555 1_555
O19_2 Cu13 1_555 1_555
N1_2 C27_2 1_555 1_555
C27_2 O19_2 1_555 1_555
C28_2 N1_2 1_555 1_555
C29_2 N1_2 1_555 1_555
Cu9_2 Cu15_2 1_555 1_555
Cu15_2 O46_2 1_555 1_555
Cu17_4 O8_2 1_555 1_555
Cu18_4 O7_2 1_555 1_555
C47_2 C48_2 1_555 1_555
C48_2 C49_2 1_555 1_555
C49_2 H21_2 1_555 1_555
C50_2 C49_2 1_555 1_555
C51_2 C50_2 1_555 1_555
H22_2 C51_2 1_555 1_555
C52_2 C48_2 1_555 1_555
H23_2 C52_2 1_555 1_555
C53_2 C51_2 1_555 1_555
C54_2 C53_2 1_555 1_555
H24_2 C26_2 1_555 1_555
O41_2 C47_2 1_555 1_555
O44_2 Cu9_2 1_555 1_555
O46_2 C54_2 1_555 1_555
O48_2 C26_2 1_555 1_555
C1_2 O1_2 1_555 1_555
C5_2 O3_2 1_555 1_555
C7_2 C8_2 1_555 1_555
C9_2 O9_2 1_555 1_555
C13_2 O10_2 1_555 1_555
C15_2 C17_2 1_555 1_555
C23_2 C24_2 1_555 1_555
C25_2 O13_2 1_555 1_555
C25_2 O14_2 1_555 1_555
C26_2 O15_2 1_555 1_555
Cu17_4 Cu18_4 1_555 1_555
C47_2 O38_2 1_555 1_555
C50_2 O48_2 1_555 1_555
C52_2 C53_2 1_555 1_555
C54_2 O44_2 1_555 1_555
C27_2 H27_2 1_555 1_555
C28_2 H28_2 1_555 1_555
C28_2 H29_2 1_555 1_555
C28_2 H30_2 1_555 1_555
O17_4 H32_4 1_555 1_555
O18_4 H34_4 1_555 1_555
C29_2 H35_2 1_555 1_555
C29_2 H36_2 1_555 1_555
C29_2 H37_2 1_555 1_555
O17_5 Cu18_3 1_555 1_555
O18_5 Cu17_3 1_555 1_555
Cu16 O21_3 1_555 1_555
C30_3 C31_3 1_555 1_555
C31_3 C32_3 1_555 1_555
C32_3 H13_3 1_555 1_555
C33_3 C32_3 1_555 1_555
C34_3 C33_3 1_555 1_555
C35_3 C33_3 1_555 1_555
H14_3 C35_3 1_555 1_555
C36_3 C35_3 1_555 1_555
C37_3 C31_3 1_555 1_555
H15_3 C37_3 1_555 1_555
C38_3 H16_3 1_555 1_555
H17_3 C38_3 1_555 1_555
C39_3 C40_3 1_555 1_555
C40_3 C41_3 1_555 1_555
C41_3 H18_3 1_555 1_555
C42_3 C41_3 1_555 1_555
C43_3 C42_3 1_555 1_555
H19_3 C43_3 1_555 1_555
C44_3 C43_3 1_555 1_555
C45_3 C44_3 1_555 1_555
C46_3 C40_3 1_555 1_555
H20_3 C46_3 1_555 1_555
O20_3 Cu10 1_555 1_555
O21_3 C30_3 1_555 1_555
O22_3 Cu17_3 1_555 1_555
O23_3 Cu18_3 1_555 1_555
O29 C39_3 1_555 1_555
O30_3 Cu18_5 1_555 1_555
O33_3 Cu17_5 1_555 1_555
O36_3 C36_3 1_555 1_555
O37_3 C38_3 1_555 1_555
O45_3 Cu10 1_555 1_555
O47_3 Cu16 1_555 1_555
O49_3 Cu10 1_555 1_555
O50_3 Cu16 1_555 1_555
N2_3 C55_3 1_555 1_555
C55_3 O50_3 1_555 1_555
C56_3 N2_3 1_555 1_555
C57_3 N2_3 1_555 1_555
Cu17_5 Cu18_5 1_555 1_555
C30_3 O20_3 1_555 1_555
C34_3 O22_3 1_555 1_555
C34_3 O23_3 1_555 1_555
C36_3 C37_3 1_555 1_555
C38_3 O36_3 1_555 1_555
C39_3 O26 1_555 1_555
C42_3 O37_3 1_555 1_555
C44_3 C46_3 1_555 1_555
C45_3 O30_3 1_555 1_555
C45_3 O33_3 1_555 1_555
O17_5 H31_3 1_555 1_555
O17_5 H32_5 1_555 1_555
O18_5 H33_3 1_555 1_555
O18_5 H34_5 1_555 1_555
C56_3 H40_3 1_555 1_555
C56_3 H41_3 1_555 1_555
C56_3 H42_3 1_555 1_555
C55_3 H43_3 1_555 1_555
C57_3 H44_3 1_555 1_555
C57_3 H45_3 1_555 1_555
C57_3 H46_3 1_555 1_555
Cu12 O2_3 1_555 1_555
Cu18_4 O4_3 1_555 1_555
C1_3 C2_3 1_555 1_555
C2_3 C3_3 1_555 1_555
C3_3 H1_3 1_555 1_555
C4_3 C3_3 1_555 1_555
C5_3 C4_3 1_555 1_555
C6_3 C4_3 1_555 1_555
H2_3 C6_3 1_555 1_555
C7_3 C6_3 1_555 1_555
C8_3 C2_3 1_555 1_555
H3_3 C8_3 1_555 1_555
C9_3 H4_3 1_555 1_555
H5_3 C9_3 1_555 1_555
C10_3 C11_3 1_555 1_555
C11_3 C12_3 1_555 1_555
C12_3 H6_3 1_555 1_555
C13_3 C12_3 1_555 1_555
C14_3 C13_3 1_555 1_555
H7_3 C14_3 1_555 1_555
C15_3 C14_3 1_555 1_555
C16_3 C15_3 1_555 1_555
C17_3 C11_3 1_555 1_555
H8_3 C17_3 1_555 1_555
C18_3 C19_3 1_555 1_555
C19_3 C20_3 1_555 1_555
C20_3 H9_3 1_555 1_555
C21_3 C20_3 1_555 1_555
C22_3 C21_3 1_555 1_555
H10_3 C22_3 1_555 1_555
C23_3 C19_3 1_555 1_555
H11_3 C23_3 1_555 1_555
C24_3 C22_3 1_555 1_555
C25_3 C24_3 1_555 1_555
C26_3 H12_3 1_555 1_555
O1_3 Cu6 1_555 1_555
O2_3 C1_3 1_555 1_555
O3_3 Cu17_4 1_555 1_555
O4_3 C5_3 1_555 1_555
O25 C10_3 1_555 1_555
O28 C10_3 1_555 1_555
O7_3 C16_3 1_555 1_555
O8_3 C16_3 1_555 1_555
O9_3 C7_3 1_555 1_555
O10_3 C9_3 1_555 1_555
O11_3 C18_3 1_555 1_555
O12_3 C18_3 1_555 1_555
O13_3 Cu6 1_555 1_555
O14_3 Cu12 1_555 1_555
O15_3 C21_3 1_555 1_555
O16_3 Cu6 1_555 1_555
O17_6 Cu18_4 1_555 1_555
O18_6 Cu17_4 1_555 1_555
O19_3 Cu12 1_555 1_555
N1_3 C27_3 1_555 1_555
C27_3 O19_3 1_555 1_555
C28_3 N1_3 1_555 1_555
C29_3 N1_3 1_555 1_555
Cu9_3 Cu15_3 1_555 1_555
Cu15_3 O46_3 1_555 1_555
Cu17_6 O8_3 1_555 1_555
Cu18_6 O7_3 1_555 1_555
C47_3 C48_3 1_555 1_555
C48_3 C49_3 1_555 1_555
C49_3 H21_3 1_555 1_555
C50_3 C49_3 1_555 1_555
C51_3 C50_3 1_555 1_555
H22_3 C51_3 1_555 1_555
C52_3 C48_3 1_555 1_555
H23_3 C52_3 1_555 1_555
C53_3 C51_3 1_555 1_555
C54_3 C53_3 1_555 1_555
H24_3 C26_3 1_555 1_555
O41_3 C47_3 1_555 1_555
O44_3 Cu9_3 1_555 1_555
O46_3 C54_3 1_555 1_555
O48_3 C26_3 1_555 1_555
C1_3 O1_3 1_555 1_555
C5_3 O3_3 1_555 1_555
C7_3 C8_3 1_555 1_555
C9_3 O9_3 1_555 1_555
C13_3 O10_3 1_555 1_555
C15_3 C17_3 1_555 1_555
C23_3 C24_3 1_555 1_555
C25_3 O13_3 1_555 1_555
C25_3 O14_3 1_555 1_555
C26_3 O15_3 1_555 1_555
Cu17_6 Cu18_6 1_555 1_555
C47_3 O38_3 1_555 1_555
C50_3 O48_3 1_555 1_555
C52_3 C53_3 1_555 1_555
C54_3 O44_3 1_555 1_555
C27_3 H27_3 1_555 1_555
C28_3 H28_3 1_555 1_555
C28_3 H29_3 1_555 1_555
C28_3 H30_3 1_555 1_555
O17_6 H32_6 1_555 1_555
O18_6 H34_6 1_555 1_555
C29_3 H35_3 1_555 1_555
C29_3 H36_3 1_555 1_555
C29_3 H37_3 1_555 1_555
O17_7 Cu18_5 1_555 1_555
O18_7 Cu17_5 1_555 1_555
Cu16_2 O21_4 1_555 1_555
C30_4 C31_4 1_555 1_555
C31_4 C32_4 1_555 1_555
C32_4 H13_4 1_555 1_555
C33_4 C32_4 1_555 1_555
C34_4 C33_4 1_555 1_555
C35_4 C33_4 1_555 1_555
H14_4 C35_4 1_555 1_555
C36_4 C35_4 1_555 1_555
C37_4 C31_4 1_555 1_555
H15_4 C37_4 1_555 1_555
C38_4 H16_4 1_555 1_555
H17_4 C38_4 1_555 1_555
C39_4 C40_4 1_555 1_555
C40_4 C41_4 1_555 1_555
C41_4 H18_4 1_555 1_555
C42_4 C41_4 1_555 1_555
C43_4 C42_4 1_555 1_555
H19_4 C43_4 1_555 1_555
C44_4 C43_4 1_555 1_555
C45_4 C44_4 1_555 1_555
C46_4 C40_4 1_555 1_555
H20_4 C46_4 1_555 1_555
O20_4 Cu10_2 1_555 1_555
O21_4 C30_4 1_555 1_555
O22_4 Cu17_5 1_555 1_555
O23_4 Cu18_5 1_555 1_555
O29_2 C39_4 1_555 1_555
O36_4 C36_4 1_555 1_555
O37_4 C38_4 1_555 1_555
O45_4 Cu10_2 1_555 1_555
O47_4 Cu16_2 1_555 1_555
O49_4 Cu10_2 1_555 1_555
O50_4 Cu16_2 1_555 1_555
N2_4 C55_4 1_555 1_555
C55_4 O50_4 1_555 1_555
C56_4 N2_4 1_555 1_555
C57_4 N2_4 1_555 1_555
C30_4 O20_4 1_555 1_555
C34_4 O22_4 1_555 1_555
C34_4 O23_4 1_555 1_555
C36_4 C37_4 1_555 1_555
C38_4 O36_4 1_555 1_555
C39_4 O26_2 1_555 1_555
C42_4 O37_4 1_555 1_555
C44_4 C46_4 1_555 1_555
C45_4 O32 1_555 1_555
C45_4 O35 1_555 1_555
O17_7 H31_4 1_555 1_555
O17_7 H32_7 1_555 1_555
O18_7 H33_4 1_555 1_555
O18_7 H34_7 1_555 1_555
C56_4 H40_4 1_555 1_555
C56_4 H41_4 1_555 1_555
C56_4 H42_4 1_555 1_555
C55_4 H43_4 1_555 1_555
C57_4 H44_4 1_555 1_555
C57_4 H45_4 1_555 1_555
C57_4 H46_4 1_555 1_555
Cu12_2 O2_4 1_555 1_555
Cu18_6 O4_4 1_555 1_555
C1_4 C2_4 1_555 1_555
C2_4 C3_4 1_555 1_555
C3_4 H1_4 1_555 1_555
C4_4 C3_4 1_555 1_555
C5_4 C4_4 1_555 1_555
C6_4 C4_4 1_555 1_555
H2_4 C6_4 1_555 1_555
C7_4 C6_4 1_555 1_555
C8_4 C2_4 1_555 1_555
H3_4 C8_4 1_555 1_555
C9_4 H4_4 1_555 1_555
H5_4 C9_4 1_555 1_555
C10_4 C11_4 1_555 1_555
C11_4 C12_4 1_555 1_555
C12_4 H6_4 1_555 1_555
C13_4 C12_4 1_555 1_555
C14_4 C13_4 1_555 1_555
H7_4 C14_4 1_555 1_555
C15_4 C14_4 1_555 1_555
C16_4 C15_4 1_555 1_555
C17_4 C11_4 1_555 1_555
H8_4 C17_4 1_555 1_555
C18_4 C19_4 1_555 1_555
C19_4 C20_4 1_555 1_555
C20_4 H9_4 1_555 1_555
C21_4 C20_4 1_555 1_555
C22_4 C21_4 1_555 1_555
H10_4 C22_4 1_555 1_555
C23_4 C19_4 1_555 1_555
H11_4 C23_4 1_555 1_555
C24_4 C22_4 1_555 1_555
C25_4 C24_4 1_555 1_555
C26_4 H12_4 1_555 1_555
O1_4 Cu6_2 1_555 1_555
O2_4 C1_4 1_555 1_555
O3_4 Cu17_6 1_555 1_555
O4_4 C5_4 1_555 1_555
O25_2 C10_4 1_555 1_555
O28_2 C10_4 1_555 1_555
O31 C16_4 1_555 1_555
O34 C16_4 1_555 1_555
O9_4 C7_4 1_555 1_555
O10_4 C9_4 1_555 1_555
O39 C18_4 1_555 1_555
O42 C18_4 1_555 1_555
O13_4 Cu6_2 1_555 1_555
O14_4 Cu12_2 1_555 1_555
O15_4 C21_4 1_555 1_555
O16_4 Cu6_2 1_555 1_555
O17_8 Cu18_6 1_555 1_555
O18_8 Cu17_6 1_555 1_555
O19_4 Cu12_2 1_555 1_555
N1_4 C27_4 1_555 1_555
C27_4 O19_4 1_555 1_555
C28_4 N1_4 1_555 1_555
C29_4 N1_4 1_555 1_555
Cu14 O46_4 1_555 1_555
C47_4 C48_4 1_555 1_555
C48_4 C49_4 1_555 1_555
C49_4 H21_4 1_555 1_555
C50_4 C49_4 1_555 1_555
C51_4 C50_4 1_555 1_555
H22_4 C51_4 1_555 1_555
C52_4 C48_4 1_555 1_555
H23_4 C52_4 1_555 1_555
C53_4 C51_4 1_555 1_555
C54_4 C53_4 1_555 1_555
H24_4 C26_4 1_555 1_555
O41_4 C47_4 1_555 1_555
O44_4 Cu8 1_555 1_555
O46_4 C54_4 1_555 1_555
O48_4 C26_4 1_555 1_555
C1_4 O1_4 1_555 1_555
C5_4 O3_4 1_555 1_555
C7_4 C8_4 1_555 1_555
C9_4 O9_4 1_555 1_555
C13_4 O10_4 1_555 1_555
C15_4 C17_4 1_555 1_555
C23_4 C24_4 1_555 1_555
C25_4 O13_4 1_555 1_555
C25_4 O14_4 1_555 1_555
C26_4 O15_4 1_555 1_555
C47_4 O38_4 1_555 1_555
C50_4 O48_4 1_555 1_555
C52_4 C53_4 1_555 1_555
C54_4 O44_4 1_555 1_555
C27_4 H27_4 1_555 1_555
C28_4 H28_4 1_555 1_555
C28_4 H29_4 1_555 1_555
C28_4 H30_4 1_555 1_555
O17_8 H32_8 1_555 1_555
O18_8 H34_8 1_555 1_555
C29_4 H35_4 1_555 1_555
C29_4 H36_4 1_555 1_555
C29_4 H37_4 1_555 1_555
Cu10_3 Cu16_3 1_555 1_555
Cu14 O2_5 1_555 1_555
Cu3_3 Cu4_3 1_555 1_555
Cu4_3 O4_5 1_555 1_555
C1_5 C2_5 1_555 1_555
C2_5 C3_5 1_555 1_555
C3_5 H1_5 1_555 1_555
C4_5 C3_5 1_555 1_555
C5_5 C4_5 1_555 1_555
C6_5 C4_5 1_555 1_555
H2_5 C6_5 1_555 1_555
C7_5 C6_5 1_555 1_555
C8_5 C2_5 1_555 1_555
H3_5 C8_5 1_555 1_555
C9_5 H4_5 1_555 1_555
H5_5 C9_5 1_555 1_555
C10_5 C11_5 1_555 1_555
C11_5 C12_5 1_555 1_555
C12_5 H6_5 1_555 1_555
C13_5 C12_5 1_555 1_555
C14_5 C13_5 1_555 1_555
H7_5 C14_5 1_555 1_555
C15_5 C14_5 1_555 1_555
C16_5 C15_5 1_555 1_555
C17_5 C11_5 1_555 1_555
H8_5 C17_5 1_555 1_555
O1_5 Cu8 1_555 1_555
O2_5 C1_5 1_555 1_555
O3_5 Cu3_3 1_555 1_555
O4_5 C5_5 1_555 1_555
O5_3 C10_5 1_555 1_555
O6_3 C10_5 1_555 1_555
O7_4 C16_5 1_555 1_555
O8_4 C16_5 1_555 1_555
O9_5 C7_5 1_555 1_555
O10_5 C9_5 1_555 1_555
O16_5 Cu8 1_555 1_555
O17_9 Cu4_3 1_555 1_555
O18_9 Cu3_3 1_555 1_555
O19_5 Cu14 1_555 1_555
N1_5 C27_5 1_555 1_555
C27_5 O19_5 1_555 1_555
C28_5 N1_5 1_555 1_555
C29_5 N1_5 1_555 1_555
Cu5_3 Cu11_3 1_555 1_555
Cu11_3 O21_5 1_555 1_555
Cu17_7 O8_4 1_555 1_555
Cu18_7 O7_4 1_555 1_555
C30_5 C31_5 1_555 1_555
C31_5 C32_5 1_555 1_555
C32_5 H13_5 1_555 1_555
C33_5 C32_5 1_555 1_555
C34_5 C33_5 1_555 1_555
C35_5 C33_5 1_555 1_555
H14_5 C35_5 1_555 1_555
C36_5 C35_5 1_555 1_555
C37_5 C31_5 1_555 1_555
H15_5 C37_5 1_555 1_555
C38_5 H16_5 1_555 1_555
H17_5 C38_5 1_555 1_555
C39_5 C40_5 1_555 1_555
C40_5 C41_5 1_555 1_555
C41_5 H18_5 1_555 1_555
C42_5 C41_5 1_555 1_555
C43_5 C42_5 1_555 1_555
H19_5 C43_5 1_555 1_555
C44_5 C43_5 1_555 1_555
C45_5 C44_5 1_555 1_555
C46_5 C40_5 1_555 1_555
H20_5 C46_5 1_555 1_555
O20_5 Cu5_3 1_555 1_555
O21_5 C30_5 1_555 1_555
O22_5 Cu3_3 1_555 1_555
O23_5 Cu4_3 1_555 1_555
O27_3 C39_5 1_555 1_555
O30_4 Cu18_7 1_555 1_555
O31_2 Cu4_3 1_555 1_555
O32_2 Cu4_3 1_555 1_555
O33_4 Cu17_7 1_555 1_555
O34_2 Cu3_3 1_555 1_555
O35_2 Cu3_3 1_555 1_555
O36_5 C36_5 1_555 1_555
O37_5 C38_5 1_555 1_555
O45_5 Cu5_3 1_555 1_555
O47_5 Cu11_3 1_555 1_555
O49_5 Cu5_3 1_555 1_555
O50_5 Cu11_3 1_555 1_555
N2_5 C55_5 1_555 1_555
C55_5 O50_5 1_555 1_555
C56_5 N2_5 1_555 1_555
C57_5 N2_5 1_555 1_555
C1_5 O1_5 1_555 1_555
C5_5 O3_5 1_555 1_555
C7_5 C8_5 1_555 1_555
C9_5 O9_5 1_555 1_555
C13_5 O10_5 1_555 1_555
C15_5 C17_5 1_555 1_555
Cu17_7 Cu18_7 1_555 1_555
C30_5 O20_5 1_555 1_555
C34_5 O22_5 1_555 1_555
C34_5 O23_5 1_555 1_555
C36_5 C37_5 1_555 1_555
C38_5 O36_5 1_555 1_555
C39_5 O24_3 1_555 1_555
C42_5 O37_5 1_555 1_555
C44_5 C46_5 1_555 1_555
C45_5 O30_4 1_555 1_555
C45_5 O33_4 1_555 1_555
C27_5 H27_5 1_555 1_555
C28_5 H28_5 1_555 1_555
C28_5 H29_5 1_555 1_555
C28_5 H30_5 1_555 1_555
C29_5 H35_5 1_555 1_555
C29_5 H36_5 1_555 1_555
C29_5 H37_5 1_555 1_555
C56_5 H40_5 1_555 1_555
C56_5 H41_5 1_555 1_555
C56_5 H42_5 1_555 1_555
C55_5 H43_5 1_555 1_555
C57_5 H44_5 1_555 1_555
C57_5 H45_5 1_555 1_555
C57_5 H46_5 1_555 1_555
Cu15 O2_6 1_555 1_555
Cu3_4 Cu4_4 1_555 1_555
Cu4_4 O4_6 1_555 1_555
C1_6 C2_6 1_555 1_555
C2_6 C3_6 1_555 1_555
C3_6 H1_6 1_555 1_555
C4_6 C3_6 1_555 1_555
C5_6 C4_6 1_555 1_555
C6_6 C4_6 1_555 1_555
H2_6 C6_6 1_555 1_555
C7_6 C6_6 1_555 1_555
C8_6 C2_6 1_555 1_555
H3_6 C8_6 1_555 1_555
C9_6 H4_6 1_555 1_555
H5_6 C9_6 1_555 1_555
C10_6 C11_6 1_555 1_555
C11_6 C12_6 1_555 1_555
C12_6 H6_6 1_555 1_555
C13_6 C12_6 1_555 1_555
C14_6 C13_6 1_555 1_555
H7_6 C14_6 1_555 1_555
C15_6 C14_6 1_555 1_555
C16_6 C15_6 1_555 1_555
C17_6 C11_6 1_555 1_555
H8_6 C17_6 1_555 1_555
O1_6 Cu9 1_555 1_555
O2_6 C1_6 1_555 1_555
O3_6 Cu3_4 1_555 1_555
O4_6 C5_6 1_555 1_555
O5_4 C10_6 1_555 1_555
O6_4 C10_6 1_555 1_555
O31_2 C16_6 1_555 1_555
O34_2 C16_6 1_555 1_555
O9_6 C7_6 1_555 1_555
O10_6 C9_6 1_555 1_555
O16_6 Cu9 1_555 1_555
O17_10 Cu4_4 1_555 1_555
O18_10 Cu3_4 1_555 1_555
O19_6 Cu15 1_555 1_555
N1_6 C27_6 1_555 1_555
C27_6 O19_6 1_555 1_555
C28_6 N1_6 1_555 1_555
C29_6 N1_6 1_555 1_555
Cu5_4 Cu11_4 1_555 1_555
Cu11_4 O21_6 1_555 1_555
C30_6 C31_6 1_555 1_555
C31_6 C32_6 1_555 1_555
C32_6 H13_6 1_555 1_555
C33_6 C32_6 1_555 1_555
C34_6 C33_6 1_555 1_555
C35_6 C33_6 1_555 1_555
H14_6 C35_6 1_555 1_555
C36_6 C35_6 1_555 1_555
C37_6 C31_6 1_555 1_555
H15_6 C37_6 1_555 1_555
C38_6 H16_6 1_555 1_555
H17_6 C38_6 1_555 1_555
C39_6 C40_6 1_555 1_555
C40_6 C41_6 1_555 1_555
C41_6 H18_6 1_555 1_555
C42_6 C41_6 1_555 1_555
C43_6 C42_6 1_555 1_555
H19_6 C43_6 1_555 1_555
C44_6 C43_6 1_555 1_555
C45_6 C44_6 1_555 1_555
C46_6 C40_6 1_555 1_555
H20_6 C46_6 1_555 1_555
O20_6 Cu5_4 1_555 1_555
O21_6 C30_6 1_555 1_555
O22_6 Cu3_4 1_555 1_555
O23_6 Cu4_4 1_555 1_555
O27_4 C39_6 1_555 1_555
O31_3 Cu4_4 1_555 1_555
O32_3 Cu4_4 1_555 1_555
O34_3 Cu3_4 1_555 1_555
O35_3 Cu3_4 1_555 1_555
O36_6 C36_6 1_555 1_555
O37_6 C38_6 1_555 1_555
O45_6 Cu5_4 1_555 1_555
O47_6 Cu11_4 1_555 1_555
O49_6 Cu5_4 1_555 1_555
O50_6 Cu11_4 1_555 1_555
N2_6 C55_6 1_555 1_555
C55_6 O50_6 1_555 1_555
C56_6 N2_6 1_555 1_555
C57_6 N2_6 1_555 1_555
C1_6 O1_6 1_555 1_555
C5_6 O3_6 1_555 1_555
C7_6 C8_6 1_555 1_555
C9_6 O9_6 1_555 1_555
C13_6 O10_6 1_555 1_555
C15_6 C17_6 1_555 1_555
C30_6 O20_6 1_555 1_555
C34_6 O22_6 1_555 1_555
C34_6 O23_6 1_555 1_555
C36_6 C37_6 1_555 1_555
C38_6 O36_6 1_555 1_555
C39_6 O24_4 1_555 1_555
C42_6 O37_6 1_555 1_555
C44_6 C46_6 1_555 1_555
C45_6 O32_2 1_555 1_555
C45_6 O35_2 1_555 1_555
C27_6 H27_6 1_555 1_555
C28_6 H28_6 1_555 1_555
C28_6 H29_6 1_555 1_555
C28_6 H30_6 1_555 1_555
C29_6 H35_6 1_555 1_555
C29_6 H36_6 1_555 1_555
C29_6 H37_6 1_555 1_555
C56_6 H40_6 1_555 1_555
C56_6 H41_6 1_555 1_555
C56_6 H42_6 1_555 1_555
C55_6 H43_6 1_555 1_555
C57_6 H44_6 1_555 1_555
C57_6 H45_6 1_555 1_555
C57_6 H46_6 1_555 1_555
Cu10_4 Cu16_4 1_555 1_555
Cu15_2 O2_7 1_555 1_555
Cu3_5 Cu4_5 1_555 1_555
Cu4_5 O4_7 1_555 1_555
C1_7 C2_7 1_555 1_555
C2_7 C3_7 1_555 1_555
C3_7 H1_7 1_555 1_555
C4_7 C3_7 1_555 1_555
C5_7 C4_7 1_555 1_555
C6_7 C4_7 1_555 1_555
H2_7 C6_7 1_555 1_555
C7_7 C6_7 1_555 1_555
C8_7 C2_7 1_555 1_555
H3_7 C8_7 1_555 1_555
C9_7 H4_7 1_555 1_555
H5_7 C9_7 1_555 1_555
C10_7 C11_7 1_555 1_555
C11_7 C12_7 1_555 1_555
C12_7 H6_7 1_555 1_555
C13_7 C12_7 1_555 1_555
C14_7 C13_7 1_555 1_555
H7_7 C14_7 1_555 1_555
C15_7 C14_7 1_555 1_555
C16_7 C15_7 1_555 1_555
C17_7 C11_7 1_555 1_555
H8_7 C17_7 1_555 1_555
O1_7 Cu9_2 1_555 1_555
O2_7 C1_7 1_555 1_555
O3_7 Cu3_5 1_555 1_555
O4_7 C5_7 1_555 1_555
O25_3 C10_7 1_555 1_555
O28_3 C10_7 1_555 1_555
O31_3 C16_7 1_555 1_555
O34_3 C16_7 1_555 1_555
O9_7 C7_7 1_555 1_555
O10_7 C9_7 1_555 1_555
O16_7 Cu9_2 1_555 1_555
O17_11 Cu4_5 1_555 1_555
O18_11 Cu3_5 1_555 1_555
O19_7 Cu15_2 1_555 1_555
N1_7 C27_7 1_555 1_555
C27_7 O19_7 1_555 1_555
C28_7 N1_7 1_555 1_555
C29_7 N1_7 1_555 1_555
Cu16_3 O21_7 1_555 1_555
C30_7 C31_7 1_555 1_555
C31_7 C32_7 1_555 1_555
C32_7 H13_7 1_555 1_555
C33_7 C32_7 1_555 1_555
C34_7 C33_7 1_555 1_555
C35_7 C33_7 1_555 1_555
H14_7 C35_7 1_555 1_555
C36_7 C35_7 1_555 1_555
C37_7 C31_7 1_555 1_555
H15_7 C37_7 1_555 1_555
C38_7 H16_7 1_555 1_555
H17_7 C38_7 1_555 1_555
C39_7 C40_7 1_555 1_555
C40_7 C41_7 1_555 1_555
C41_7 H18_7 1_555 1_555
C42_7 C41_7 1_555 1_555
C43_7 C42_7 1_555 1_555
H19_7 C43_7 1_555 1_555
C44_7 C43_7 1_555 1_555
C45_7 C44_7 1_555 1_555
C46_7 C40_7 1_555 1_555
H20_7 C46_7 1_555 1_555
O20_7 Cu10_3 1_555 1_555
O21_7 C30_7 1_555 1_555
O22_7 Cu3_5 1_555 1_555
O23_7 Cu4_5 1_555 1_555
O29_3 C39_7 1_555 1_555
O31_4 Cu4_5 1_555 1_555
O32_4 Cu4_5 1_555 1_555
O34_4 Cu3_5 1_555 1_555
O35_4 Cu3_5 1_555 1_555
O36_7 C36_7 1_555 1_555
O37_7 C38_7 1_555 1_555
O45_7 Cu10_3 1_555 1_555
O47_7 Cu16_3 1_555 1_555
O49_7 Cu10_3 1_555 1_555
O50_7 Cu16_3 1_555 1_555
N2_7 C55_7 1_555 1_555
C55_7 O50_7 1_555 1_555
C56_7 N2_7 1_555 1_555
C57_7 N2_7 1_555 1_555
C1_7 O1_7 1_555 1_555
C5_7 O3_7 1_555 1_555
C7_7 C8_7 1_555 1_555
C9_7 O9_7 1_555 1_555
C13_7 O10_7 1_555 1_555
C15_7 C17_7 1_555 1_555
C30_7 O20_7 1_555 1_555
C34_7 O22_7 1_555 1_555
C34_7 O23_7 1_555 1_555
C36_7 C37_7 1_555 1_555
C38_7 O36_7 1_555 1_555
C39_7 O26_3 1_555 1_555
C42_7 O37_7 1_555 1_555
C44_7 C46_7 1_555 1_555
C45_7 O32_3 1_555 1_555
C45_7 O35_3 1_555 1_555
C27_7 H27_7 1_555 1_555
C28_7 H28_7 1_555 1_555
C28_7 H29_7 1_555 1_555
C28_7 H30_7 1_555 1_555
C29_7 H35_7 1_555 1_555
C29_7 H36_7 1_555 1_555
C29_7 H37_7 1_555 1_555
C56_7 H40_7 1_555 1_555
C56_7 H41_7 1_555 1_555
C56_7 H42_7 1_555 1_555
C55_7 H43_7 1_555 1_555
C57_7 H44_7 1_555 1_555
C57_7 H45_7 1_555 1_555
C57_7 H46_7 1_555 1_555
Cu15_3 O2_8 1_555 1_555
Cu18_7 O4_8 1_555 1_555
C1_8 C2_8 1_555 1_555
C2_8 C3_8 1_555 1_555
C3_8 H1_8 1_555 1_555
C4_8 C3_8 1_555 1_555
C5_8 C4_8 1_555 1_555
C6_8 C4_8 1_555 1_555
H2_8 C6_8 1_555 1_555
C7_8 C6_8 1_555 1_555
C8_8 C2_8 1_555 1_555
H3_8 C8_8 1_555 1_555
C9_8 H4_8 1_555 1_555
H5_8 C9_8 1_555 1_555
C10_8 C11_8 1_555 1_555
C11_8 C12_8 1_555 1_555
C12_8 H6_8 1_555 1_555
C13_8 C12_8 1_555 1_555
C14_8 C13_8 1_555 1_555
H7_8 C14_8 1_555 1_555
C15_8 C14_8 1_555 1_555
C16_8 C15_8 1_555 1_555
C17_8 C11_8 1_555 1_555
H8_8 C17_8 1_555 1_555
O1_8 Cu9_3 1_555 1_555
O2_8 C1_8 1_555 1_555
O3_8 Cu17_7 1_555 1_555
O4_8 C5_8 1_555 1_555
O25_4 C10_8 1_555 1_555
O28_4 C10_8 1_555 1_555
O31_4 C16_8 1_555 1_555
O34_4 C16_8 1_555 1_555
O9_8 C7_8 1_555 1_555
O10_8 C9_8 1_555 1_555
O16_8 Cu9_3 1_555 1_555
O17_12 Cu18_7 1_555 1_555
O18_12 Cu17_7 1_555 1_555
O19_8 Cu15_3 1_555 1_555
N1_8 C27_8 1_555 1_555
C27_8 O19_8 1_555 1_555
C28_8 N1_8 1_555 1_555
C29_8 N1_8 1_555 1_555
Cu16_4 O21_8 1_555 1_555
C30_8 C31_8 1_555 1_555
C31_8 C32_8 1_555 1_555
C32_8 H13_8 1_555 1_555
C33_8 C32_8 1_555 1_555
C34_8 C33_8 1_555 1_555
C35_8 C33_8 1_555 1_555
H14_8 C35_8 1_555 1_555
C36_8 C35_8 1_555 1_555
C37_8 C31_8 1_555 1_555
H15_8 C37_8 1_555 1_555
C38_8 H16_8 1_555 1_555
H17_8 C38_8 1_555 1_555
C39_8 C40_8 1_555 1_555
C40_8 C41_8 1_555 1_555
C41_8 H18_8 1_555 1_555
C42_8 C41_8 1_555 1_555
C43_8 C42_8 1_555 1_555
H19_8 C43_8 1_555 1_555
C44_8 C43_8 1_555 1_555
C45_8 C44_8 1_555 1_555
C46_8 C40_8 1_555 1_555
H20_8 C46_8 1_555 1_555
O20_8 Cu10_4 1_555 1_555
O21_8 C30_8 1_555 1_555
O22_8 Cu17_7 1_555 1_555
O23_8 Cu18_7 1_555 1_555
O29_4 C39_8 1_555 1_555
O36_8 C36_8 1_555 1_555
O37_8 C38_8 1_555 1_555
O45_8 Cu10_4 1_555 1_555
O47_8 Cu16_4 1_555 1_555
O49_8 Cu10_4 1_555 1_555
O50_8 Cu16_4 1_555 1_555
N2_8 C55_8 1_555 1_555
C55_8 O50_8 1_555 1_555
C56_8 N2_8 1_555 1_555
C57_8 N2_8 1_555 1_555
C1_8 O1_8 1_555 1_555
C5_8 O3_8 1_555 1_555
C7_8 C8_8 1_555 1_555
C9_8 O9_8 1_555 1_555
C13_8 O10_8 1_555 1_555
C15_8 C17_8 1_555 1_555
C30_8 O20_8 1_555 1_555
C34_8 O22_8 1_555 1_555
C34_8 O23_8 1_555 1_555
C36_8 C37_8 1_555 1_555
C38_8 O36_8 1_555 1_555
C39_8 O26_4 1_555 1_555
C42_8 O37_8 1_555 1_555
C44_8 C46_8 1_555 1_555
C45_8 O32_4 1_555 1_555
C45_8 O35_4 1_555 1_555
C27_8 H27_8 1_555 1_555
C28_8 H28_8 1_555 1_555
C28_8 H29_8 1_555 1_555
C28_8 H30_8 1_555 1_555
C29_8 H35_8 1_555 1_555
C29_8 H36_8 1_555 1_555
C29_8 H37_8 1_555 1_555
C56_8 H40_8 1_555 1_555
C56_8 H41_8 1_555 1_555
C56_8 H42_8 1_555 1_555
C55_8 H43_8 1_555 1_555
C57_8 H44_8 1_555 1_555
C57_8 H45_8 1_555 1_555
C57_8 H46_8 1_555 1_555
C18_5 C19_5 1_555 1_555
C19_5 C20_5 1_555 1_555
C20_5 H9_5 1_555 1_555
C21_5 C20_5 1_555 1_555
C22_5 C21_5 1_555 1_555
H10_5 C22_5 1_555 1_555
C23_5 C19_5 1_555 1_555
H11_5 C23_5 1_555 1_555
C24_5 C22_5 1_555 1_555
C25_5 C24_5 1_555 1_555
C26_5 H12_5 1_555 1_555
O40_4 C18_5 1_555 1_555
O43_4 C18_5 1_555 1_555
O15_5 C21_5 1_555 1_555
C47_5 C48_5 1_555 1_555
C48_5 C49_5 1_555 1_555
C49_5 H21_5 1_555 1_555
C50_5 C49_5 1_555 1_555
C51_5 C50_5 1_555 1_555
H22_5 C51_5 1_555 1_555
C52_5 C48_5 1_555 1_555
H23_5 C52_5 1_555 1_555
C53_5 C51_5 1_555 1_555
C54_5 C53_5 1_555 1_555
H24_5 C26_5 1_555 1_555
O43_7 C47_5 1_555 1_555
O47_8 C54_5 1_555 1_555
O48_5 C26_5 1_555 1_555
C23_5 C24_5 1_555 1_555
C25_5 O45_3 1_555 1_555
C25_5 O47_3 1_555 1_555
C26_5 O15_5 1_555 1_555
C47_5 O40_7 1_555 1_555
C50_5 O48_5 1_555 1_555
C52_5 C53_5 1_555 1_555
C54_5 O45_8 1_555 1_555
O17_6 H31_5 1_555 1_555
O18_6 H33_5 1_555 1_555
C18_6 C19_6 1_555 1_555
C19_6 C20_6 1_555 1_555
C20_6 H9_6 1_555 1_555
C21_6 C20_6 1_555 1_555
C22_6 C21_6 1_555 1_555
H10_6 C22_6 1_555 1_555
C23_6 C19_6 1_555 1_555
H11_6 C23_6 1_555 1_555
C24_6 C22_6 1_555 1_555
C25_6 C24_6 1_555 1_555
C26_6 H12_6 1_555 1_555
O40 C18_6 1_555 1_555
O43 C18_6 1_555 1_555
O15_6 C21_6 1_555 1_555
C47_6 C48_6 1_555 1_555
C48_6 C49_6 1_555 1_555
C49_6 H21_6 1_555 1_555
C50_6 C49_6 1_555 1_555
C51_6 C50_6 1_555 1_555
H22_6 C51_6 1_555 1_555
C52_6 C48_6 1_555 1_555
H23_6 C52_6 1_555 1_555
C53_6 C51_6 1_555 1_555
C54_6 C53_6 1_555 1_555
H24_6 C26_6 1_555 1_555
O43_8 C47_6 1_555 1_555
O47_5 C54_6 1_555 1_555
O48_6 C26_6 1_555 1_555
C23_6 C24_6 1_555 1_555
C25_6 O45_4 1_555 1_555
C25_6 O47_4 1_555 1_555
C26_6 O15_6 1_555 1_555
C47_6 O40_8 1_555 1_555
C50_6 O48_6 1_555 1_555
C52_6 C53_6 1_555 1_555
C54_6 O45_5 1_555 1_555
O17_8 H31_6 1_555 1_555
O18_8 H33_6 1_555 1_555
C18_7 C19_7 1_555 1_555
C19_7 C20_7 1_555 1_555
C20_7 H9_7 1_555 1_555
C21_7 C20_7 1_555 1_555
C22_7 C21_7 1_555 1_555
H10_7 C22_7 1_555 1_555
C23_7 C19_7 1_555 1_555
H11_7 C23_7 1_555 1_555
C24_7 C22_7 1_555 1_555
C25_7 C24_7 1_555 1_555
C26_7 H12_7 1_555 1_555
O40_2 C18_7 1_555 1_555
O43_2 C18_7 1_555 1_555
O15_7 C21_7 1_555 1_555
C47_7 C48_7 1_555 1_555
C48_7 C49_7 1_555 1_555
C49_7 H21_7 1_555 1_555
C50_7 C49_7 1_555 1_555
C51_7 C50_7 1_555 1_555
H22_7 C51_7 1_555 1_555
C52_7 C48_7 1_555 1_555
H23_7 C52_7 1_555 1_555
C53_7 C51_7 1_555 1_555
C54_7 C53_7 1_555 1_555
H24_7 C26_7 1_555 1_555
O43_5 C47_7 1_555 1_555
O47_6 C54_7 1_555 1_555
O48_7 C26_7 1_555 1_555
C23_7 C24_7 1_555 1_555
C25_7 O45 1_555 1_555
C25_7 O47 1_555 1_555
C26_7 O15_7 1_555 1_555
C47_7 O40_5 1_555 1_555
C50_7 O48_7 1_555 1_555
C52_7 C53_7 1_555 1_555
C54_7 O45_6 1_555 1_555
O17_2 H31_7 1_555 1_555
O18_2 H33_7 1_555 1_555
C18_8 C19_8 1_555 1_555
C19_8 C20_8 1_555 1_555
C20_8 H9_8 1_555 1_555
C21_8 C20_8 1_555 1_555
C22_8 C21_8 1_555 1_555
H10_8 C22_8 1_555 1_555
C23_8 C19_8 1_555 1_555
H11_8 C23_8 1_555 1_555
C24_8 C22_8 1_555 1_555
C25_8 C24_8 1_555 1_555
C26_8 H12_8 1_555 1_555
O40_3 C18_8 1_555 1_555
O43_3 C18_8 1_555 1_555
O15_8 C21_8 1_555 1_555
C47_8 C48_8 1_555 1_555
C48_8 C49_8 1_555 1_555
C49_8 H21_8 1_555 1_555
C50_8 C49_8 1_555 1_555
C51_8 C50_8 1_555 1_555
H22_8 C51_8 1_555 1_555
C52_8 C48_8 1_555 1_555
H23_8 C52_8 1_555 1_555
C53_8 C51_8 1_555 1_555
C54_8 C53_8 1_555 1_555
H24_8 C26_8 1_555 1_555
O43_6 C47_8 1_555 1_555
O47_7 C54_8 1_555 1_555
O48_8 C26_8 1_555 1_555
C23_8 C24_8 1_555 1_555
C25_8 O45_2 1_555 1_555
C25_8 O47_2 1_555 1_555
C26_8 O15_8 1_555 1_555
C47_8 O40_6 1_555 1_555
C50_8 O48_8 1_555 1_555
C52_8 C53_8 1_555 1_555
C54_8 O45_7 1_555 1_555
O17_4 H31_8 1_555 1_555
O18_4 H33_8 1_555 1_555

#END
