
###############################################################################
#
# This file contains modified crystal structure data generated from the
# MOF subset of the Cambridge Structural Database (CSD) v543 
# hosted by the Cambridge Crystallographic Data Centre (CCDC).
#
# This work is licensed under the Creative Commons
# Attribution-NonCommercial-ShareAlike 4.0 International License.
# To view a copy of this license, visit
# http://creativecommons.org/licenses/by-nc-sa/4.0/
# or send a letter to
# Creative Commons, PO Box 1866, Mountain View, CA 94042, USA.
#
# CIF created using the CSD Python API on 29 September 2022
# The structure has been converted into the P1 space group
# The structure has a 3D framework
# The original CSD entry LASGOF is in the orthorhombic crystal system
# The framework has been calculated to contain at least 10.0% void space
# The void calculation uses a probe of radius 1.32A, grid spacing 0.4
# The framework is charged, counterions have been retained in the structure
# H atom positions have been added when not included in the experimental data
#
###############################################################################

data_LASGOF
_chemical_formula_moiety         '(C2352 H1712 Ba64 N48 O786 Ti64 64-)n'
_symmetry_cell_setting           triclinic
_symmetry_space_group_name_H-M   'P 1'
_symmetry_Int_Tables_number      1
_space_group_name_Hall           'P 1'
loop_
_symmetry_equiv_pos_site_id
_symmetry_equiv_pos_as_xyz
1 x,y,z
_cell_length_a                   45.093(2)
_cell_length_b                   42.042(3)
_cell_length_c                   37.681(2)
_cell_angle_alpha                90
_cell_angle_beta                 90
_cell_angle_gamma                90
_cell_volume                     71435.6
loop_
_atom_site_label
_atom_site_type_symbol
_atom_site_fract_x
_atom_site_fract_y
_atom_site_fract_z
O58 O 0.0153(5) 0.4337(6) 0.6409(6)
Ba1 Ba 0.89938(6) 0.69265(6) 0.44329(9)
Ba2 Ba 0.54702(6) 0.37119(9) 0.54821(9)
Ba3 Ba 0.95004(7) 0.45335(7) 0.64993(12)
Ba4 Ba 0.54900(8) 0.48668(11) 0.5604(2)
Ti1 Ti 0.81020(12) 0.46077(14) 0.60768(15)
Ti2 Ti 0.77497(11) 0.42519(14) 0.38037(16)
Ti3 Ti 0.77534(12) 0.62512(14) 0.46632(18)
Ti4 Ti 0.62812(11) 0.49217(15) 0.51625(19)
O1 O 0.7379(4) 0.4236(5) 0.4002(6)
O2 O 0.8193(4) 0.4995(5) 0.5862(5)
O3 O 0.7957(4) 0.4212(5) 0.4221(5)
O4 O 0.8131(4) 0.4366(5) 0.5661(5)
O5 O 0.6577(4) 0.4744(5) 0.5464(6)
O6 O 0.7774(5) 0.4702(5) 0.3786(6)
O7 O 0.8078(5) 0.4771(5) 0.6573(5)
O8 O 0.7687(4) 0.3783(5) 0.3714(6)
O9 O 0.6443(4) 0.4745(5) 0.4741(6)
O10 O 0.6448(4) 0.5309(5) 0.5126(5)
O11 O 0.8151(5) 0.6421(6) 0.4528(6)
O12 O 0.7879(4) 0.6053(5) 0.5084(6)
O13 O 0.5931(5) 0.5031(6) 0.4852(7)
O14 O 0.6038(5) 0.5132(6) 0.5552(6)
O15 O 0.7357(4) 0.6140(5) 0.4688(6)
O16 O 0.8126(4) 0.4178(5) 0.6324(5)
O17 O 0.8536(5) 0.4607(5) 0.6187(6)
O18 O 0.7695(4) 0.4633(5) 0.6088(6)
O19 O 0.7625(5) 0.4290(5) 0.3289(5)
O20 O 0.7872(4) 0.5910(5) 0.4367(6)
O21 O 0.6049(5) 0.4540(6) 0.5297(6)
O22 O 0.8138(4) 0.4163(5) 0.3569(6)
O23 O 0.5970(5) 0.4019(6) 0.5342(6)
O24 O 0.7508(4) 0.3290(5) 0.3744(6)
O25 O 0.7711(5) 0.6649(5) 0.4986(7)
O26 O 0.7620(5) 0.6543(5) 0.4271(6)
O27 O 0.8616(5) 0.4152(6) 0.3441(6)
O28 O 0.8138(5) 0.3656(5) 0.6417(6)
C1 C 0.8061(7) 0.4272(8) 0.4944(8)
H1 H 0.787160 0.427710 0.482100
H2 H 0.808437 0.447311 0.506702
C2 C 0.8416(7) 0.5197(8) 0.5806(9)
C3 C 0.7868(7) 0.6119(8) 0.5432(9)
C4 C 0.8058(7) 0.3992(8) 0.5226(8)
O29 O 0.7347(5) 0.6837(6) 0.3909(6)
C5 C 0.7827(7) 0.5319(8) 0.4049(9)
H3 H 0.785978 0.511973 0.417136
H4 H 0.767965 0.543588 0.418445
C6 C 0.6889(7) 0.4116(8) 0.4232(9)
C7 C 0.8084(7) 0.4071(8) 0.5582(8)
C8 C 0.6243(7) 0.5948(8) 0.5727(9)
H5 H 0.610093 0.598229 0.590196
C9 C 0.8361(7) 0.5471(8) 0.5623(9)
C10 C 0.6452(7) 0.5612(8) 0.5302(9)
C11 C 0.6656(7) 0.5840(8) 0.5202(8)
C12 C 0.8081(7) 0.3860(8) 0.5838(9)
C13 C 0.6880(7) 0.6020(8) 0.4591(9)
C14 C 0.7130(7) 0.4680(8) 0.5791(9)
H6 H 0.731858 0.462644 0.568147
H7 H 0.705096 0.486266 0.566502
C15 C 0.6950(7) 0.3514(8) 0.3960(9)
H8 H 0.696467 0.330751 0.387194
O30 O 0.5566(7) 0.4268(8) 0.5955(8)
C16 C 0.7153(7) 0.4031(8) 0.4062(9)
C17 C 0.8371(7) 0.6003(9) 0.4220(10)
O31 O 0.7909(5) 0.4780(6) 0.7121(6)
O32 O 0.7568(6) 0.4458(6) 0.2749(6)
C18 C 0.7702(7) 0.5249(8) 0.3725(9)
C19 C 0.6406(7) 0.4782(8) 0.4402(10)
C20 C 0.7102(7) 0.6427(8) 0.4261(9)
C21 C 0.7549(8) 0.4798(9) 0.6644(10)
C22 C 0.8373(8) 0.6306(9) 0.4353(10)
C23 C 0.8314(7) 0.4235(8) 0.4667(8)
C24 C 0.7430(7) 0.6037(9) 0.3368(9)
H9 H 0.740226 0.624259 0.345198
C25 C 0.7502(7) 0.3581(9) 0.3798(9)
C26 C 0.8128(7) 0.5795(8) 0.4199(9)
C27 C 0.8719(7) 0.5104(9) 0.5940(9)
C28 C 0.7093(7) 0.6199(8) 0.4505(9)
C29 C 0.6920(7) 0.4403(8) 0.5740(9)
O33 O 0.5782(5) 0.5497(6) 0.5822(6)
C30 C 0.7941(7) 0.5876(8) 0.5658(9)
C31 C 0.7195(7) 0.3705(8) 0.3920(9)
C32 C 0.7772(7) 0.6426(8) 0.5530(10)
O34 O 0.7653(6) 0.6948(6) 0.5450(7)
C33 C 0.6239(7) 0.5658(8) 0.5556(9)
C34 C 0.8936(7) 0.5305(8) 0.5866(9)
H10 H 0.912718 0.525406 0.593877
C35 C 0.5888(8) 0.5034(9) 0.4524(10)
C36 C 0.7699(7) 0.4925(8) 0.3587(10)
C37 C 0.7712(8) 0.6710(9) 0.5318(11)
O35 O 0.9016(5) 0.4715(6) 0.6177(7)
C38 C 0.6320(4) 0.6353(5) 0.3950(5)
H11 H 0.631344 0.651630 0.378398
C39 C 0.6075(4) 0.6156(5) 0.3997(5)
H12 H 0.590474 0.618852 0.386220
C40 C 0.6085(4) 0.5912(5) 0.4244(6)
H13 H 0.592089 0.578014 0.427583
C41 C 0.6339(4) 0.5863(4) 0.4445(5)
H14 H 0.634573 0.569952 0.461124
C42 C 0.6584(3) 0.6060(5) 0.4399(5)
C43 C 0.6574(4) 0.6304(5) 0.4151(6)
O36 O 0.4884(8) 0.3959(9) 0.5452(10)
C44 C 0.6006(8) 0.5416(9) 0.5649(10)
C45 C 0.7358(7) 0.5966(8) 0.3017(9)
H15 H 0.730069 0.613131 0.286773
O37 O 0.8925(7) 0.6992(7) 0.5127(9)
O38 O 0.8593(5) 0.6512(6) 0.4312(6)
C46 C 0.8051(7) 0.5563(8) 0.5517(9)
H16 H 0.804095 0.556912 0.526023
H17 H 0.791683 0.539705 0.559676
C47 C 0.6861(7) 0.5776(8) 0.4908(8)
H18 H 0.680908 0.557022 0.480895
H19 H 0.705862 0.575542 0.500758
O39 O 0.5651(5) 0.5135(6) 0.4388(8)
C48 C 0.7481(7) 0.4756(9) 0.6315(9)
C49 C 0.8255(7) 0.4216(8) 0.4314(8)
C50 C 0.7582(7) 0.4527(9) 0.3082(9)
C51 C 0.8117(7) 0.3890(9) 0.6229(9)
O40 O 0.9365(8) 0.4039(9) 0.6099(10)
C52 C 0.7477(7) 0.5406(8) 0.3122(9)
C53 C 0.7313(4) 0.3703(5) 0.6130(6)
H20 H 0.749200 0.365661 0.624070
C54 C 0.7255(4) 0.4010(4) 0.6013(6)
H21 H 0.739559 0.416953 0.604507
C55 C 0.6987(5) 0.4079(4) 0.5847(6)
C56 C 0.6777(4) 0.3841(5) 0.5799(6)
C57 C 0.6835(4) 0.3534(4) 0.5916(6)
H22 H 0.669453 0.337475 0.588353
C58 C 0.7103(5) 0.3465(4) 0.6082(6)
H23 H 0.714146 0.325922 0.615993
N1 N 0.9101(10) 0.3685(11) 0.5747(12)
C59 C 0.6835(7) 0.6495(8) 0.4051(9)
H24 H 0.683037 0.664539 0.387024
C60 C 0.8770(7) 0.4189(8) 0.4162(9)
H25 H 0.891998 0.417446 0.399315
C61 C 0.6208(4) 0.3454(4) 0.4353(6)
H26 H 0.605596 0.330615 0.437923
C62 C 0.6459(4) 0.3377(4) 0.4157(6)
H27 H 0.647461 0.317771 0.405130
C63 C 0.6686(4) 0.3598(5) 0.4118(6)
C64 C 0.6662(4) 0.3896(4) 0.4276(6)
C65 C 0.6411(4) 0.3972(4) 0.4472(6)
H28 H 0.639549 0.417172 0.457793
C66 C 0.6184(4) 0.3752(5) 0.4511(6)
H29 H 0.601640 0.380316 0.464255
C67 C 0.6490(7) 0.3884(9) 0.5630(9)
H30 H 0.635442 0.371897 0.560279
C68 C 0.6624(7) 0.4637(8) 0.4170(9)
C69 C 0.7497(7) 0.5109(8) 0.3001(10)
H31 H 0.744440 0.506712 0.276670
C70 C 0.7367(7) 0.5672(8) 0.2889(10)
H32 H 0.730659 0.563127 0.265744
C71 C 0.7747(7) 0.6469(9) 0.5906(10)
H33 H 0.768181 0.666430 0.599128
C72 C 0.6110(8) 0.4946(9) 0.3909(10)
H34 H 0.594929 0.506167 0.382325
N2 N 0.8981(9) 0.6899(10) 0.5699(11)
C73 C 0.8100(7) 0.5498(8) 0.4066(10)
C74 C 0.6861(7) 0.4466(8) 0.4323(9)
H35 H 0.684481 0.448467 0.457891
H36 H 0.704470 0.457045 0.425426
C75 C 0.6436(7) 0.4198(8) 0.5510(10)
C76 C 0.6141(8) 0.4275(9) 0.5355(10)
C77 C 0.7332(8) 0.4918(9) 0.6908(10)
H37 H 0.738011 0.498121 0.713773
O41 O 0.4910(7) 0.4601(8) 0.5709(8)
C78 C 0.7185(8) 0.4772(9) 0.6157(9)
C79 C 0.8642(8) 0.5886(9) 0.4073(10)
H38 H 0.881393 0.600803 0.407575
C80 C 0.9110(3) 0.6051(5) 0.5412(6)
H39 H 0.927532 0.617718 0.536541
C81 C 0.8834(4) 0.6137(4) 0.5279(6)
H40 H 0.881460 0.631982 0.514233
C82 C 0.8588(3) 0.5948(5) 0.5348(6)
H41 H 0.840324 0.600534 0.525904
C83 C 0.8617(3) 0.5674(5) 0.5552(6)
C84 C 0.8894(4) 0.5589(4) 0.5686(6)
C85 C 0.9140(3) 0.5777(5) 0.5616(6)
H42 H 0.932467 0.572006 0.570523
O42 O 0.9333(12) 0.6439(12) 0.4645(9)
O43 O 0.5271(8) 0.5151(9) 0.4945(13)
C86 C 0.8405(7) 0.4136(9) 0.3667(9)
N3 N 0.4422(11) 0.3818(9) 0.5160(12)
C87 C 0.7354(7) 0.6603(9) 0.4139(9)
C88 C 0.8477(7) 0.4187(8) 0.4052(9)
C89 C 0.7596(7) 0.4853(8) 0.3220(9)
C90 C 0.7567(7) 0.5487(8) 0.3484(9)
C91 C 0.6122(7) 0.4907(9) 0.4277(10)
C92 C 0.7545(7) 0.5800(8) 0.3602(10)
H43 H 0.760448 0.585382 0.383040
O44 O 0.5830(9) 0.3233(11) 0.5222(10)
C93 C 0.7860(8) 0.4794(9) 0.6802(10)
C94 C 0.8054(7) 0.3508(8) 0.5727(9)
H44 H 0.806990 0.334829 0.589734
C95 C 0.6758(4) 0.4627(6) 0.3190(6)
H45 H 0.690717 0.455854 0.303686
C96 C 0.6496(5) 0.4750(6) 0.3054(5)
H46 H 0.646910 0.476464 0.281020
C97 C 0.6274(4) 0.4852(6) 0.3283(6)
H47 H 0.609818 0.493422 0.319261
C98 C 0.6314(4) 0.4830(6) 0.3648(6)
C99 C 0.6576(5) 0.4706(6) 0.3784(4)
C100 C 0.6799(4) 0.4605(6) 0.3555(6)
H48 H 0.697431 0.452204 0.364595
C101 C 0.6667(5) 0.6681(4) 0.5820(6)
H49 H 0.666892 0.686621 0.595385
C102 C 0.6439(4) 0.6461(5) 0.5863(5)
H50 H 0.628859 0.650032 0.602640
C103 C 0.6436(4) 0.6184(5) 0.5662(6)
C104 C 0.6660(5) 0.6126(4) 0.5418(5)
C105 C 0.6888(4) 0.6345(5) 0.5375(5)
H51 H 0.703832 0.630619 0.521128
C106 C 0.6891(4) 0.6622(5) 0.5575(6)
H52 H 0.704379 0.676915 0.554628
C107 C 0.7919(5) 0.3035(4) 0.4911(6)
H53 H 0.789215 0.282428 0.484401
C108 C 0.7913(5) 0.3274(5) 0.4656(4)
H54 H 0.788160 0.322326 0.441886
C109 C 0.7953(5) 0.3590(4) 0.4756(5)
H55 H 0.794907 0.374955 0.458548
C110 C 0.8000(5) 0.3666(4) 0.5110(5)
C111 C 0.8006(5) 0.3427(5) 0.5365(4)
C112 C 0.7966(5) 0.3112(4) 0.5265(5)
H56 H 0.797019 0.295158 0.543579
C113 C 0.9144(4) 0.4234(6) 0.4610(5)
H57 H 0.928972 0.420717 0.443780
C114 C 0.8846(4) 0.4214(6) 0.4518(4)
C115 C 0.8629(3) 0.4254(6) 0.4776(5)
C116 C 0.8709(4) 0.4316(6) 0.5125(5)
H58 H 0.856390 0.434320 0.529736
C117 C 0.9007(4) 0.4337(6) 0.5217(4)
H59 H 0.906111 0.437795 0.545077
C118 C 0.9225(3) 0.4296(6) 0.4960(5)
H60 H 0.942402 0.430994 0.502100
C119 C 0.6630(7) 0.4448(8) 0.5564(10)
C120 C 0.8757(8) 0.4814(9) 0.6122(10)
C121 C 0.7819(5) 0.6014(6) 0.6763(4)
H61 H 0.779185 0.604633 0.700475
C122 C 0.7901(5) 0.5716(5) 0.6637(5)
H62 H 0.792754 0.554839 0.679487
C123 C 0.7942(5) 0.5668(4) 0.6275(6)
H63 H 0.799615 0.546852 0.619121
C124 C 0.7902(5) 0.5919(5) 0.6039(4)
C125 C 0.7820(5) 0.6217(5) 0.6165(5)
C126 C 0.7779(5) 0.6265(4) 0.6527(6)
H64 H 0.772477 0.646441 0.661098
C127 C 0.8911(4) 0.5464(5) 0.3805(7)
H65 H 0.907695 0.559549 0.380303
C128 C 0.8640(5) 0.5580(4) 0.3924(7)
C129 C 0.8392(4) 0.5384(5) 0.3927(7)
C130 C 0.8415(4) 0.5072(5) 0.3810(7)
H66 H 0.824904 0.494017 0.381137
C131 C 0.8686(5) 0.4955(4) 0.3690(7)
H67 H 0.870093 0.474601 0.361212
C132 C 0.8934(4) 0.5152(6) 0.3688(7)
H68 H 0.911489 0.507367 0.360795
O45 O 0.5433(10) 0.4411(12) 0.5171(14)
C133 C 0.9168(11) 0.6864(12) 0.6005(13)
H69 H 0.928668 0.667594 0.598010
H70 H 0.904687 0.684651 0.621357
H71 H 0.929457 0.704651 0.602537
C134 C 0.9090(12) 0.6973(12) 0.5390(13)
H72 H 0.929248 0.701219 0.536674
C135 C 0.4635(14) 0.3791(15) 0.5372(16)
H73 H 0.461871 0.360867 0.551080
O46 O 0.9489(15) 0.5174(14) 0.6677(18)
C136 C 0.8647(11) 0.6842(12) 0.5704(14)
H74 H 0.860801 0.661951 0.574030
H75 H 0.856265 0.690771 0.548195
H76 H 0.855901 0.696218 0.589351
C137 C 0.9156(11) 0.3919(13) 0.5981(13)
C138 C 0.8808(10) 0.3604(12) 0.5677(13)
H77 H 0.868364 0.368350 0.586365
H78 H 0.879048 0.337667 0.566479
H79 H 0.874847 0.369558 0.545513
C139 C 0.6822(5) 0.5041(7) 0.6996(5)
H80 H 0.686878 0.507135 0.723337
C140 C 0.7035(4) 0.4926(7) 0.6762(6)
C141 C 0.6965(4) 0.4880(6) 0.6407(6)
C142 C 0.6681(5) 0.4948(6) 0.6285(5)
H81 H 0.663401 0.491761 0.604678
C143 C 0.6468(4) 0.5063(7) 0.6518(6)
H82 H 0.627785 0.510925 0.643626
C144 C 0.6538(5) 0.5109(6) 0.6873(6)
H83 H 0.639523 0.518612 0.702955
C145 C 0.4424(12) 0.4119(10) 0.4972(13)
H84 H 0.425871 0.413036 0.481259
H85 H 0.441821 0.429556 0.513289
H86 H 0.460561 0.412536 0.483839
C146 C 0.9308(12) 0.3498(14) 0.5558(15)
H87 H 0.942176 0.363224 0.540295
H88 H 0.920548 0.334074 0.542079
H89 H 0.943896 0.339480 0.572308
O47 O 0.9823(10) 0.4719(10) 0.7068(11)
O48 O 0.969(2) 0.478(2) 0.591(2)
C147 C 0.4192(12) 0.3591(14) 0.5056(15)
H90 H 0.420361 0.340525 0.520450
H91 H 0.399991 0.368595 0.507920
H92 H 0.422461 0.353055 0.481340
O49 O 0.5380(11) 0.3664(13) 0.4762(14)
O50 O 0.9203(12) 0.4580(13) 0.7100(13)
Ba5 Ba 0.85062(6) 0.44265(6) 0.69329(9)
Ba6 Ba 0.79702(6) 0.37881(9) 0.29821(9)
Ba7 Ba 0.79996(7) 0.70335(7) 0.39993(12)
Ba8 Ba 0.45100(8) 0.51332(11) 0.5604(2)
O51 O 0.9422(5) 0.7271(5) 0.4073(5)
O52 O 0.5187(4) 0.3717(5) 0.6214(6)
O53 O 0.9374(4) 0.6678(5) 0.3824(5)
O54 O 0.8964(5) 0.7107(5) 0.3687(6)
O55 O 0.5125(5) 0.3210(5) 0.5789(5)
O56 O 0.5638(4) 0.3337(5) 0.6069(6)
O57 O 0.9880(5) 0.4043(5) 0.6771(6)
O59 O 0.9591(5) 0.7280(6) 0.4621(6)
O60 O 0.5090(7) 0.5399(8) 0.5709(8)
O61 O 0.8297(12) 0.7080(13) 0.4600(13)
H93 H 0.921073 0.628648 0.478313
H94 H 0.941726 0.632984 0.443418
H95 H 0.600853 0.321261 0.537458
H96 H 0.57191 0.302895 0.522217
H97 H 0.539561 0.507862 0.474329
H98 H 0.506239 0.508439 0.490497
H99 H 0.930425 0.522168 0.681018
H100 H 0.966356 0.522526 0.682712
H101 H 0.895247 0.402169 0.608621
H102 H 0.554707 0.354527 0.46528
H103 H 0.519142 0.354912 0.471628
H104 H 0.96984 0.47072 0.728489
H105 H 0.999732 0.457672 0.709504
H106 H 0.962831 0.500643 0.589681
H107 H 0.990973 0.476635 0.590146
Ba1_2 Ba 0.10062(6) 0.30735(6) 0.44329(9)
Ba2_2 Ba 0.45298(6) 0.62881(9) 0.54821(9)
Ba3_2 Ba 0.04996(7) 0.54665(7) 0.64993(12)
Ti1_2 Ti 0.18980(12) 0.53923(14) 0.60768(15)
Ti2_2 Ti 0.22503(11) 0.57481(14) 0.38037(16)
Ti3_2 Ti 0.22466(12) 0.37488(14) 0.46632(18)
Ti4_2 Ti 0.37188(11) 0.50783(15) 0.51625(19)
O1_2 O 0.2621(4) 0.5764(5) 0.4002(6)
O2_2 O 0.1807(4) 0.5005(5) 0.5862(5)
O3_2 O 0.2043(4) 0.5788(5) 0.4221(5)
O4_2 O 0.1869(4) 0.5634(5) 0.5661(5)
O5_2 O 0.3423(4) 0.5256(5) 0.5464(6)
O6_2 O 0.2226(5) 0.5298(5) 0.3786(6)
O7_2 O 0.1922(5) 0.5229(5) 0.6573(5)
O8_2 O 0.2313(4) 0.6217(5) 0.3714(6)
O9_2 O 0.3557(4) 0.5255(5) 0.4741(6)
O10_2 O 0.3552(4) 0.4691(5) 0.5126(5)
O11_2 O 0.1849(5) 0.3579(6) 0.4528(6)
O12_2 O 0.2121(4) 0.3947(5) 0.5084(6)
O13_2 O 0.4069(5) 0.4969(6) 0.4852(7)
O14_2 O 0.3962(5) 0.4868(6) 0.5552(6)
O15_2 O 0.2643(4) 0.3860(5) 0.4688(6)
O16_2 O 0.1874(4) 0.5822(5) 0.6324(5)
O17_2 O 0.1464(5) 0.5393(5) 0.6187(6)
O18_2 O 0.2305(4) 0.5367(5) 0.6088(6)
O19_2 O 0.2375(5) 0.5710(5) 0.3289(5)
O20_2 O 0.2128(4) 0.4090(5) 0.4367(6)
O21_2 O 0.3951(5) 0.5460(6) 0.5297(6)
O22_2 O 0.1862(4) 0.5837(5) 0.3569(6)
O23_2 O 0.4030(5) 0.5981(6) 0.5342(6)
O24_2 O 0.2492(4) 0.6710(5) 0.3744(6)
O25_2 O 0.2289(5) 0.3351(5) 0.4986(7)
O26_2 O 0.2380(5) 0.3457(5) 0.4271(6)
O27_2 O 0.1384(5) 0.5848(6) 0.3441(6)
O28_2 O 0.1862(5) 0.6344(5) 0.6417(6)
C1_2 C 0.1939(7) 0.5728(8) 0.4944(8)
H1_2 H 0.212840 0.572290 0.482100
H2_2 H 0.191563 0.552689 0.506702
C2_2 C 0.1584(7) 0.4803(8) 0.5806(9)
C3_2 C 0.2132(7) 0.3881(8) 0.5432(9)
C4_2 C 0.1942(7) 0.6008(8) 0.5226(8)
O29_2 O 0.2653(5) 0.3163(6) 0.3909(6)
C5_2 C 0.2173(7) 0.4681(8) 0.4049(9)
H3_2 H 0.214022 0.488027 0.417136
H4_2 H 0.232035 0.456412 0.418445
C6_2 C 0.3111(7) 0.5884(8) 0.4232(9)
C7_2 C 0.1916(7) 0.5929(8) 0.5582(8)
C8_2 C 0.3757(7) 0.4052(8) 0.5727(9)
H5_2 H 0.389907 0.401771 0.590196
C9_2 C 0.1639(7) 0.4529(8) 0.5623(9)
C10_2 C 0.3548(7) 0.4388(8) 0.5302(9)
C11_2 C 0.3344(7) 0.4160(8) 0.5202(8)
C12_2 C 0.1919(7) 0.6140(8) 0.5838(9)
C13_2 C 0.3120(7) 0.3980(8) 0.4591(9)
C14_2 C 0.2870(7) 0.5320(8) 0.5791(9)
H6_2 H 0.268142 0.537356 0.568147
H7_2 H 0.294904 0.513734 0.566502
C15_2 C 0.3050(7) 0.6486(8) 0.3960(9)
H8_2 H 0.303533 0.669249 0.387194
O30_2 O 0.4434(7) 0.5732(8) 0.5955(8)
C16_2 C 0.2847(7) 0.5969(8) 0.4062(9)
C17_2 C 0.1629(7) 0.3997(9) 0.4220(10)
O31_2 O 0.2091(5) 0.5220(6) 0.7121(6)
O32_2 O 0.2432(6) 0.5542(6) 0.2749(6)
C18_2 C 0.2298(7) 0.4751(8) 0.3725(9)
C19_2 C 0.3594(7) 0.5218(8) 0.4402(10)
C20_2 C 0.2898(7) 0.3573(8) 0.4261(9)
C21_2 C 0.2451(8) 0.5202(9) 0.6644(10)
C22_2 C 0.1627(8) 0.3694(9) 0.4353(10)
C23_2 C 0.1686(7) 0.5765(8) 0.4667(8)
C24_2 C 0.2570(7) 0.3963(9) 0.3368(9)
H9_2 H 0.259774 0.375741 0.345198
C25_2 C 0.2498(7) 0.6419(9) 0.3798(9)
C26_2 C 0.1872(7) 0.4205(8) 0.4199(9)
C27_2 C 0.1281(7) 0.4896(9) 0.5940(9)
C28_2 C 0.2907(7) 0.3801(8) 0.4505(9)
C29_2 C 0.3080(7) 0.5597(8) 0.5740(9)
O33_2 O 0.4218(5) 0.4503(6) 0.5822(6)
C30_2 C 0.2059(7) 0.4124(8) 0.5658(9)
C31_2 C 0.2805(7) 0.6295(8) 0.3920(9)
C32_2 C 0.2228(7) 0.3574(8) 0.5530(10)
O34_2 O 0.2347(6) 0.3052(6) 0.5450(7)
C33_2 C 0.3761(7) 0.4342(8) 0.5556(9)
C34_2 C 0.1064(7) 0.4695(8) 0.5866(9)
H10_2 H 0.087282 0.474594 0.593877
C35_2 C 0.4112(8) 0.4966(9) 0.4524(10)
C36_2 C 0.2301(7) 0.5075(8) 0.3587(10)
C37_2 C 0.2288(8) 0.3290(9) 0.5318(11)
O35_2 O 0.0984(5) 0.5285(6) 0.6177(7)
C38_2 C 0.3680(4) 0.3647(5) 0.3950(5)
H11_2 H 0.368656 0.348370 0.378398
C39_2 C 0.3925(4) 0.3844(5) 0.3997(5)
H12_2 H 0.409526 0.381148 0.386220
C40_2 C 0.3915(4) 0.4088(5) 0.4244(6)
H13_2 H 0.407911 0.421986 0.427583
C41_2 C 0.3661(4) 0.4137(4) 0.4445(5)
H14_2 H 0.365427 0.430048 0.461124
C42_2 C 0.3416(3) 0.3940(5) 0.4399(5)
C43_2 C 0.3426(4) 0.3696(5) 0.4151(6)
O36_2 O 0.5116(8) 0.6041(9) 0.5452(10)
C44_2 C 0.3994(8) 0.4584(9) 0.5649(10)
C45_2 C 0.2642(7) 0.4034(8) 0.3017(9)
H15_2 H 0.269931 0.386869 0.286773
O37_2 O 0.1075(7) 0.3008(7) 0.5127(9)
O38_2 O 0.1407(5) 0.3488(6) 0.4312(6)
C46_2 C 0.1949(7) 0.4437(8) 0.5517(9)
H16_2 H 0.195905 0.443088 0.526023
H17_2 H 0.208317 0.460295 0.559676
C47_2 C 0.3139(7) 0.4224(8) 0.4908(8)
H18_2 H 0.319092 0.442978 0.480895
H19_2 H 0.294138 0.424458 0.500758
O39_2 O 0.4349(5) 0.4865(6) 0.4388(8)
C48_2 C 0.2519(7) 0.5244(9) 0.6315(9)
C49_2 C 0.1745(7) 0.5784(8) 0.4314(8)
C50_2 C 0.2418(7) 0.5473(9) 0.3082(9)
C51_2 C 0.1883(7) 0.6110(9) 0.6229(9)
O40_2 O 0.0635(8) 0.5961(9) 0.6099(10)
C52_2 C 0.2523(7) 0.4594(8) 0.3122(9)
C53_2 C 0.2687(4) 0.6297(5) 0.6130(6)
H20_2 H 0.250800 0.634339 0.624070
C54_2 C 0.2745(4) 0.5990(4) 0.6013(6)
H21_2 H 0.260441 0.583047 0.604507
C55_2 C 0.3013(5) 0.5921(4) 0.5847(6)
C56_2 C 0.3223(4) 0.6159(5) 0.5799(6)
C57_2 C 0.3165(4) 0.6466(4) 0.5916(6)
H22_2 H 0.330547 0.662525 0.588353
C58_2 C 0.2897(5) 0.6535(4) 0.6082(6)
H23_2 H 0.285854 0.674078 0.615993
N1_2 N 0.0899(10) 0.6315(11) 0.5747(12)
C59_2 C 0.3165(7) 0.3505(8) 0.4051(9)
H24_2 H 0.316963 0.335461 0.387024
C60_2 C 0.1230(7) 0.5811(8) 0.4162(9)
H25_2 H 0.108002 0.582554 0.399315
C61_2 C 0.3792(4) 0.6546(4) 0.4353(6)
H26_2 H 0.394404 0.669385 0.437923
C62_2 C 0.3541(4) 0.6623(4) 0.4157(6)
H27_2 H 0.352539 0.682229 0.405130
C63_2 C 0.3314(4) 0.6402(5) 0.4118(6)
C64_2 C 0.3338(4) 0.6104(4) 0.4276(6)
C65_2 C 0.3589(4) 0.6028(4) 0.4472(6)
H28_2 H 0.360451 0.582828 0.457793
C66_2 C 0.3816(4) 0.6248(5) 0.4511(6)
H29_2 H 0.398360 0.619684 0.464255
C67_2 C 0.3510(7) 0.6116(9) 0.5630(9)
H30_2 H 0.364558 0.628103 0.560279
C68_2 C 0.3376(7) 0.5363(8) 0.4170(9)
C69_2 C 0.2503(7) 0.4891(8) 0.3001(10)
H31_2 H 0.255560 0.493288 0.276670
C70_2 C 0.2633(7) 0.4328(8) 0.2889(10)
H32_2 H 0.269341 0.436873 0.265744
C71_2 C 0.2253(7) 0.3531(9) 0.5906(10)
H33_2 H 0.231819 0.333570 0.599128
C72_2 C 0.3890(8) 0.5054(9) 0.3909(10)
H34_2 H 0.405071 0.493833 0.382325
N2_2 N 0.1019(9) 0.3101(10) 0.5699(11)
C73_2 C 0.1900(7) 0.4502(8) 0.4066(10)
C74_2 C 0.3139(7) 0.5534(8) 0.4323(9)
H35_2 H 0.315519 0.551533 0.457891
H36_2 H 0.295530 0.542955 0.425426
C75_2 C 0.3564(7) 0.5802(8) 0.5510(10)
C76_2 C 0.3859(8) 0.5725(9) 0.5355(10)
C77_2 C 0.2668(8) 0.5082(9) 0.6908(10)
H37_2 H 0.261989 0.501879 0.713773
C78_2 C 0.2815(8) 0.5228(9) 0.6157(9)
C79_2 C 0.1358(8) 0.4114(9) 0.4073(10)
H38_2 H 0.118607 0.399197 0.407575
C80_2 C 0.0890(3) 0.3949(5) 0.5412(6)
H39_2 H 0.072468 0.382282 0.536541
C81_2 C 0.1166(4) 0.3863(4) 0.5279(6)
H40_2 H 0.118540 0.368018 0.514233
C82_2 C 0.1412(3) 0.4052(5) 0.5348(6)
H41_2 H 0.159676 0.399466 0.525904
C83_2 C 0.1383(3) 0.4326(5) 0.5552(6)
C84_2 C 0.1106(4) 0.4411(4) 0.5686(6)
C85_2 C 0.0860(3) 0.4223(5) 0.5616(6)
H42_2 H 0.067533 0.427994 0.570523
O42_2 O 0.0667(12) 0.3561(12) 0.4645(9)
O43_2 O 0.4729(8) 0.4849(9) 0.4945(13)
C86_2 C 0.1595(7) 0.5864(9) 0.3667(9)
N3_2 N 0.5578(11) 0.6182(9) 0.5160(12)
C87_2 C 0.2646(7) 0.3397(9) 0.4139(9)
C88_2 C 0.1523(7) 0.5813(8) 0.4052(9)
C89_2 C 0.2404(7) 0.5147(8) 0.3220(9)
C90_2 C 0.2433(7) 0.4513(8) 0.3484(9)
C91_2 C 0.3878(7) 0.5093(9) 0.4277(10)
C92_2 C 0.2455(7) 0.4200(8) 0.3602(10)
H43_2 H 0.239552 0.414618 0.383040
O44_2 O 0.4170(9) 0.6767(11) 0.5222(10)
C93_2 C 0.2140(8) 0.5206(9) 0.6802(10)
C94_2 C 0.1946(7) 0.6492(8) 0.5727(9)
H44_2 H 0.193010 0.665171 0.589734
C95_2 C 0.3242(4) 0.5373(6) 0.3190(6)
H45_2 H 0.309283 0.544146 0.303686
C96_2 C 0.3504(5) 0.5250(6) 0.3054(5)
H46_2 H 0.353090 0.523536 0.281020
C97_2 C 0.3726(4) 0.5148(6) 0.3283(6)
H47_2 H 0.390182 0.506578 0.319261
C98_2 C 0.3686(4) 0.5170(6) 0.3648(6)
C99_2 C 0.3424(5) 0.5294(6) 0.3784(4)
C100_2 C 0.3201(4) 0.5395(6) 0.3555(6)
H48_2 H 0.302569 0.547796 0.364595
C101_2 C 0.3333(5) 0.3319(4) 0.5820(6)
H49_2 H 0.333108 0.313379 0.595385
C102_2 C 0.3561(4) 0.3539(5) 0.5863(5)
H50_2 H 0.371141 0.349968 0.602640
C103_2 C 0.3564(4) 0.3816(5) 0.5662(6)
C104_2 C 0.3340(5) 0.3874(4) 0.5418(5)
C105_2 C 0.3112(4) 0.3655(5) 0.5375(5)
H51_2 H 0.296168 0.369381 0.521128
C106_2 C 0.3109(4) 0.3378(5) 0.5575(6)
H52_2 H 0.295621 0.323085 0.554628
C107_2 C 0.2081(5) 0.6965(4) 0.4911(6)
H53_2 H 0.210785 0.717572 0.484401
C108_2 C 0.2087(5) 0.6726(5) 0.4656(4)
H54_2 H 0.211840 0.677674 0.441886
C109_2 C 0.2047(5) 0.6410(4) 0.4756(5)
H55_2 H 0.205093 0.625045 0.458548
C110_2 C 0.2000(5) 0.6334(4) 0.5110(5)
C111_2 C 0.1994(5) 0.6573(5) 0.5365(4)
C112_2 C 0.2034(5) 0.6888(4) 0.5265(5)
H56_2 H 0.202981 0.704842 0.543579
C113_2 C 0.0856(4) 0.5766(6) 0.4610(5)
H57_2 H 0.071028 0.579283 0.443780
C114_2 C 0.1154(4) 0.5786(6) 0.4518(4)
C115_2 C 0.1371(3) 0.5746(6) 0.4776(5)
C116_2 C 0.1291(4) 0.5684(6) 0.5125(5)
H58_2 H 0.143610 0.565680 0.529736
C117_2 C 0.0993(4) 0.5663(6) 0.5217(4)
H59_2 H 0.093889 0.562205 0.545077
C118_2 C 0.0775(3) 0.5704(6) 0.4960(5)
H60_2 H 0.057598 0.569006 0.502100
C119_2 C 0.3370(7) 0.5552(8) 0.5564(10)
C120_2 C 0.1243(8) 0.5186(9) 0.6122(10)
C121_2 C 0.2181(5) 0.3986(6) 0.6763(4)
H61_2 H 0.220815 0.395367 0.700475
C122_2 C 0.2099(5) 0.4284(5) 0.6637(5)
H62_2 H 0.207246 0.445161 0.679487
C123_2 C 0.2058(5) 0.4332(4) 0.6275(6)
H63_2 H 0.200385 0.453148 0.619121
C124_2 C 0.2098(5) 0.4081(5) 0.6039(4)
C125_2 C 0.2180(5) 0.3783(5) 0.6165(5)
C126_2 C 0.2221(5) 0.3735(4) 0.6527(6)
H64_2 H 0.227523 0.353559 0.661098
C127_2 C 0.1089(4) 0.4536(5) 0.3805(7)
H65_2 H 0.092305 0.440451 0.380303
C128_2 C 0.1360(5) 0.4420(4) 0.3924(7)
C129_2 C 0.1608(4) 0.4616(5) 0.3927(7)
C130_2 C 0.1585(4) 0.4928(5) 0.3810(7)
H66_2 H 0.175096 0.505983 0.381137
C131_2 C 0.1314(5) 0.5045(4) 0.3690(7)
H67_2 H 0.129907 0.525399 0.361212
C132_2 C 0.1066(4) 0.4848(6) 0.3688(7)
H68_2 H 0.088511 0.492633 0.360795
O45_2 O 0.4567(10) 0.5589(12) 0.5171(14)
C133_2 C 0.0832(11) 0.3136(12) 0.6005(13)
H69_2 H 0.071332 0.332406 0.598010
H70_2 H 0.095313 0.315349 0.621357
H71_2 H 0.070543 0.295349 0.602537
C134_2 C 0.0910(12) 0.3027(12) 0.5390(13)
H72_2 H 0.070752 0.298781 0.536674
C135_2 C 0.5365(14) 0.6209(15) 0.5372(16)
H73_2 H 0.538129 0.639133 0.551080
O46_2 O 0.0511(15) 0.4826(14) 0.6677(18)
C136_2 C 0.1353(11) 0.3158(12) 0.5704(14)
H74_2 H 0.139199 0.338049 0.574030
H75_2 H 0.143735 0.309229 0.548195
H76_2 H 0.144099 0.303782 0.589351
C137_2 C 0.0844(11) 0.6081(13) 0.5981(13)
C138_2 C 0.1192(10) 0.6396(12) 0.5677(13)
H77_2 H 0.131636 0.631650 0.586365
H78_2 H 0.120952 0.662333 0.566479
H79_2 H 0.125153 0.630442 0.545513
C139_2 C 0.3178(5) 0.4959(7) 0.6996(5)
H80_2 H 0.313122 0.492865 0.723337
C140_2 C 0.2965(4) 0.5074(7) 0.6762(6)
C141_2 C 0.3035(4) 0.5120(6) 0.6407(6)
C142_2 C 0.3319(5) 0.5052(6) 0.6285(5)
H81_2 H 0.336599 0.508239 0.604678
C143_2 C 0.3532(4) 0.4937(7) 0.6518(6)
H82_2 H 0.372215 0.489075 0.643626
C144_2 C 0.3462(5) 0.4891(6) 0.6873(6)
H83_2 H 0.360477 0.481388 0.702955
C145_2 C 0.5576(12) 0.5881(10) 0.4972(13)
H84_2 H 0.574129 0.586964 0.481259
H85_2 H 0.558179 0.570444 0.513289
H86_2 H 0.539439 0.587464 0.483839
C146_2 C 0.0692(12) 0.6502(14) 0.5558(15)
H87_2 H 0.057824 0.636776 0.540295
H88_2 H 0.079452 0.665926 0.542079
H89_2 H 0.056104 0.660520 0.572308
O47_2 O 0.0177(10) 0.5281(10) 0.7068(11)
O48_2 O 0.031(2) 0.522(2) 0.591(2)
C147_2 C 0.5808(12) 0.6409(14) 0.5056(15)
H90_2 H 0.579639 0.659475 0.520450
H91_2 H 0.600009 0.631405 0.507920
H92_2 H 0.577539 0.646945 0.481340
O49_2 O 0.4620(11) 0.6336(13) 0.4762(14)
O50_2 O 0.0797(12) 0.5420(13) 0.7100(13)
Ba5_2 Ba 0.14938(6) 0.55735(6) 0.69329(9)
Ba6_2 Ba 0.20298(6) 0.62119(9) 0.29821(9)
Ba7_2 Ba 0.20004(7) 0.29665(7) 0.39993(12)
O51_2 O 0.0578(5) 0.2729(5) 0.4073(5)
O52_2 O 0.4813(4) 0.6283(5) 0.6214(6)
O53_2 O 0.0626(4) 0.3322(5) 0.3824(5)
O54_2 O 0.1036(5) 0.2893(5) 0.3687(6)
O55_2 O 0.4875(5) 0.6790(5) 0.5789(5)
O56_2 O 0.4362(4) 0.6663(5) 0.6069(6)
O57_2 O 0.0120(5) 0.5957(5) 0.6771(6)
O59_2 O 0.0409(5) 0.2720(6) 0.4621(6)
O61_2 O 0.1703(12) 0.2920(13) 0.4600(13)
H93_2 H 0.0789269 0.371352 0.478313
H94_2 H 0.0582743 0.367016 0.443418
H95_2 H 0.399147 0.678739 0.537458
H96_2 H 0.42809 0.697105 0.522217
H97_2 H 0.460439 0.492138 0.474329
H98_2 H 0.493761 0.491561 0.490497
H99_2 H 0.0695747 0.477832 0.681018
H100_2 H 0.0336437 0.477474 0.682712
H101_2 H 0.104753 0.597831 0.608621
H102_2 H 0.445293 0.645473 0.46528
H103_2 H 0.480858 0.645088 0.471628
H104_2 H 0.0301597 0.52928 0.728489
H105_2 H 0.00026838 0.542328 0.709504
H106_2 H 0.0371693 0.499357 0.589681
H107_2 H 0.00902724 0.523365 0.590146
O58_2 O 0.9847(5) 0.5663(6) 0.6409(6)
Ba3_3 Ba 0.20004(7) 0.79665(7) 0.89993(12)
Ti1_3 Ti 0.06020(12) 0.78923(14) 0.85768(15)
Ti2_3 Ti 0.02497(11) 0.82481(14) 0.63037(16)
Ti3_3 Ti 0.02534(12) 0.62488(14) 0.71632(18)
O2_3 O 0.0693(4) 0.7505(5) 0.8362(5)
O3_3 O 0.0457(4) 0.8288(5) 0.6721(5)
O4_3 O 0.0631(4) 0.8134(5) 0.8161(5)
O6_3 O 0.0274(5) 0.7798(5) 0.6286(6)
O7_3 O 0.0578(5) 0.7729(5) 0.9073(5)
O8_3 O 0.0187(4) 0.8717(5) 0.6214(6)
O11_3 O 0.0651(5) 0.6079(6) 0.7028(6)
O12_3 O 0.0379(4) 0.6447(5) 0.7584(6)
O16_3 O 0.0626(4) 0.8322(5) 0.8824(5)
O17_3 O 0.1036(5) 0.7893(5) 0.8687(6)
O18_3 O 0.0195(4) 0.7867(5) 0.8588(6)
O19_3 O 0.0125(5) 0.8210(5) 0.5789(5)
O20_3 O 0.0372(4) 0.6590(5) 0.6867(6)
O22_3 O 0.0638(4) 0.8337(5) 0.6069(6)
O24_3 O 0.0008(4) 0.9210(5) 0.6244(6)
O25_3 O 0.0211(5) 0.5851(5) 0.7486(7)
O27_3 O 0.1116(5) 0.8348(6) 0.5941(6)
O28_3 O 0.0638(5) 0.8844(5) 0.8917(6)
C1_3 C 0.0561(7) 0.8228(8) 0.7444(8)
H1_3 H 0.037160 0.822290 0.732100
H2_3 H 0.058437 0.802689 0.756702
C2_3 C 0.0916(7) 0.7303(8) 0.8306(9)
C3_3 C 0.0368(7) 0.6381(8) 0.7932(9)
C4_3 C 0.0558(7) 0.8508(8) 0.7726(8)
C5_3 C 0.0327(7) 0.7181(8) 0.6549(9)
H3_3 H 0.035978 0.738027 0.667136
H4_3 H 0.017965 0.706412 0.668445
C7_3 C 0.0584(7) 0.8429(8) 0.8082(8)
C9_3 C 0.0861(7) 0.7029(8) 0.8123(9)
C12_3 C 0.0581(7) 0.8640(8) 0.8338(9)
C17_3 C 0.0871(7) 0.6497(9) 0.6720(10)
O31_3 O 0.0409(5) 0.7720(6) 0.9621(6)
O32_3 O 0.0068(6) 0.8042(6) 0.5249(6)
C18_3 C 0.0202(7) 0.7251(8) 0.6225(9)
C21_3 C 0.0049(8) 0.7702(9) 0.9144(10)
C22_3 C 0.0873(8) 0.6194(9) 0.6853(10)
C23_3 C 0.0814(7) 0.8265(8) 0.7167(8)
C25_3 C 0.0002(7) 0.8919(9) 0.6298(9)
C26_3 C 0.0628(7) 0.6705(8) 0.6699(9)
C27_3 C 0.1219(7) 0.7396(9) 0.8440(9)
C30_3 C 0.0441(7) 0.6624(8) 0.8158(9)
C32_3 C 0.0272(7) 0.6074(8) 0.8030(10)
O34_3 O 0.0153(6) 0.5552(6) 0.7950(7)
C34_3 C 0.1436(7) 0.7195(8) 0.8366(9)
H10_3 H 0.162718 0.724594 0.843877
C36_3 C 0.0199(7) 0.7575(8) 0.6087(10)
C37_3 C 0.0212(8) 0.5790(9) 0.7818(11)
O35_3 O 0.1516(5) 0.7785(6) 0.8677(7)
O37_3 O 0.1425(7) 0.5508(7) 0.7627(9)
O38_3 O 0.1093(5) 0.5988(6) 0.6812(6)
C46_3 C 0.0551(7) 0.6937(8) 0.8017(9)
H16_3 H 0.054095 0.693088 0.776023
H17_3 H 0.041683 0.710295 0.809676
C49_3 C 0.0755(7) 0.8284(8) 0.6814(8)
C50_3 C 0.0082(7) 0.7973(9) 0.5582(9)
C51_3 C 0.0617(7) 0.8610(9) 0.8729(9)
O40_3 O 0.1865(8) 0.8461(9) 0.8599(10)
N1_3 N 0.1601(10) 0.8815(11) 0.8247(12)
C60_3 C 0.1270(7) 0.8311(8) 0.6662(9)
H25_3 H 0.141998 0.832554 0.649315
C71_3 C 0.0247(7) 0.6031(9) 0.8406(10)
H33_3 H 0.018181 0.583570 0.849128
N2_3 N 0.1481(9) 0.5601(10) 0.8199(11)
C73_3 C 0.0600(7) 0.7002(8) 0.6566(10)
C79_3 C 0.1142(8) 0.6614(9) 0.6573(10)
H38_3 H 0.131393 0.649197 0.657575
C80_3 C 0.1610(3) 0.6449(5) 0.7912(6)
H39_3 H 0.177532 0.632282 0.786541
C81_3 C 0.1334(4) 0.6363(4) 0.7779(6)
H40_3 H 0.131460 0.618018 0.764233
C82_3 C 0.1088(3) 0.6552(5) 0.7848(6)
H41_3 H 0.090324 0.649466 0.775904
C83_3 C 0.1117(3) 0.6826(5) 0.8052(6)
C84_3 C 0.1394(4) 0.6911(4) 0.8186(6)
C85_3 C 0.1640(3) 0.6723(5) 0.8116(6)
H42_3 H 0.182467 0.677994 0.820523
O42_3 O 0.1833(12) 0.6061(12) 0.7145(9)
C86_3 C 0.0905(7) 0.8364(9) 0.6167(9)
C88_3 C 0.0977(7) 0.8313(8) 0.6552(9)
C89_3 C 0.0096(7) 0.7647(8) 0.5720(9)
C90_3 C 0.0067(7) 0.7013(8) 0.5984(9)
C92_3 C 0.0045(7) 0.6700(8) 0.6102(10)
H43_3 H 0.010448 0.664618 0.633040
C93_3 C 0.0360(8) 0.7706(9) 0.9302(10)
C94_3 C 0.0554(7) 0.8992(8) 0.8227(9)
H44_3 H 0.056990 0.915171 0.839734
C107_3 C 0.0419(5) 0.9465(4) 0.7411(6)
H53_3 H 0.039215 0.967572 0.734401
C108_3 C 0.0413(5) 0.9226(5) 0.7156(4)
H54_3 H 0.038160 0.927674 0.691886
C109_3 C 0.0453(5) 0.8910(4) 0.7256(5)
H55_3 H 0.044907 0.875045 0.708548
C110_3 C 0.0500(5) 0.8834(4) 0.7610(5)
C111_3 C 0.0506(5) 0.9073(5) 0.7865(4)
C112_3 C 0.0466(5) 0.9388(4) 0.7765(5)
H56_3 H 0.047019 0.954842 0.793579
C113_3 C 0.1644(4) 0.8266(6) 0.7110(5)
H57_3 H 0.178972 0.829283 0.693780
C114_3 C 0.1346(4) 0.8286(6) 0.7018(4)
C115_3 C 0.1129(3) 0.8246(6) 0.7276(5)
C116_3 C 0.1209(4) 0.8184(6) 0.7625(5)
H58_3 H 0.106390 0.815680 0.779736
C117_3 C 0.1507(4) 0.8163(6) 0.7717(4)
H59_3 H 0.156111 0.812205 0.795077
C118_3 C 0.1725(3) 0.8204(6) 0.7460(5)
H60_3 H 0.192402 0.819006 0.752100
C120_3 C 0.1257(8) 0.7686(9) 0.8622(10)
C121_3 C 0.0319(5) 0.6486(6) 0.9263(4)
H61_3 H 0.029185 0.645367 0.950475
C122_3 C 0.0401(5) 0.6784(5) 0.9137(5)
H62_3 H 0.042754 0.695161 0.929487
C123_3 C 0.0442(5) 0.6832(4) 0.8775(6)
H63_3 H 0.049615 0.703148 0.869121
C124_3 C 0.0402(5) 0.6581(5) 0.8539(4)
C125_3 C 0.0320(5) 0.6283(5) 0.8665(5)
C126_3 C 0.0279(5) 0.6235(4) 0.9027(6)
H64_3 H 0.022477 0.603559 0.911098
C127_3 C 0.1411(4) 0.7036(5) 0.6305(7)
H65_3 H 0.157695 0.690451 0.630303
C128_3 C 0.1140(5) 0.6920(4) 0.6424(7)
C129_3 C 0.0892(4) 0.7116(5) 0.6427(7)
C130_3 C 0.0915(4) 0.7428(5) 0.6310(7)
H66_3 H 0.074904 0.755983 0.631137
C131_3 C 0.1186(5) 0.7545(4) 0.6190(7)
H67_3 H 0.120093 0.775399 0.611212
C132_3 C 0.1434(4) 0.7348(6) 0.6188(7)
H68_3 H 0.161489 0.742633 0.610795
C133_3 C 0.1668(11) 0.5636(12) 0.8505(13)
H69_3 H 0.178668 0.582406 0.848010
H70_3 H 0.154687 0.565349 0.871357
H71_3 H 0.179457 0.545349 0.852537
C134_3 C 0.1590(12) 0.5527(12) 0.7890(13)
H72_3 H 0.179248 0.548781 0.786674
O46_3 O 0.1989(15) 0.7326(14) 0.9177(18)
C136_3 C 0.1147(11) 0.5658(12) 0.8204(14)
H74_3 H 0.110801 0.588049 0.824030
H75_3 H 0.106265 0.559229 0.798195
H76_3 H 0.105901 0.553782 0.839351
C137_3 C 0.1656(11) 0.8581(13) 0.8481(13)
C138_3 C 0.1308(10) 0.8896(12) 0.8177(13)
H77_3 H 0.118364 0.881650 0.836365
H78_3 H 0.129048 0.912333 0.816479
H79_3 H 0.124847 0.880442 0.795513
C146_3 C 0.1808(12) 0.9002(14) 0.8058(15)
H87_3 H 0.192176 0.886776 0.790295
H88_3 H 0.170548 0.915926 0.792079
H89_3 H 0.193896 0.910520 0.822308
O47_3 O 0.2323(10) 0.7781(10) 0.9568(11)
O48_3 O 0.219(2) 0.772(2) 0.841(2)
O50_3 O 0.1703(12) 0.7920(13) 0.9600(13)
Ba5_3 Ba 0.10062(6) 0.80735(6) 0.94329(9)
Ba6_3 Ba 0.04702(6) 0.87119(9) 0.54821(9)
O57_3 O 0.2380(5) 0.8457(5) 0.9271(6)
O58_3 O 0.2653(5) 0.8163(6) 0.8909(6)
H93_3 H 0.171073 0.621352 0.728313
H94_3 H 0.191726 0.617016 0.693418
H99_3 H 0.180425 0.727832 0.931018
H100_3 H 0.216356 0.727474 0.932712
H101_3 H 0.145247 0.847831 0.858621
H104_3 H 0.21984 0.77928 0.978489
H105_3 H 0.249732 0.792328 0.959504
H106_3 H 0.212831 0.749357 0.839681
H107_3 H 0.240973 0.773365 0.840146
Ba2_3 Ba 0.79702(6) 0.87881(9) 0.79821(9)
Ba4_2 Ba 0.79900(8) 0.76332(11) 0.8104(2)
Ti4_3 Ti 0.87812(11) 0.75783(15) 0.76625(19)
O1_3 O 0.9879(4) 0.8264(5) 0.6502(6)
O5_3 O 0.9077(4) 0.7756(5) 0.7964(6)
O9_3 O 0.8943(4) 0.7755(5) 0.7241(6)
O10_3 O 0.8948(4) 0.7191(5) 0.7626(5)
O13_3 O 0.8431(5) 0.7469(6) 0.7352(7)
O14_3 O 0.8538(5) 0.7368(6) 0.8052(6)
O15_3 O 0.9857(4) 0.6360(5) 0.7188(6)
O21_3 O 0.8549(5) 0.7960(6) 0.7797(6)
O23_3 O 0.8470(5) 0.8481(6) 0.7842(6)
C6_3 C 0.9389(7) 0.8384(8) 0.6732(9)
C8_3 C 0.8743(7) 0.6552(8) 0.8227(9)
H5_3 H 0.860093 0.651771 0.840196
C10_3 C 0.8952(7) 0.6888(8) 0.7802(9)
C11_3 C 0.9156(7) 0.6660(8) 0.7702(8)
C13_3 C 0.9380(7) 0.6480(8) 0.7091(9)
C14_3 C 0.9630(7) 0.7820(8) 0.8291(9)
H6_3 H 0.981858 0.787356 0.818147
H7_3 H 0.955096 0.763734 0.816502
C15_3 C 0.9450(7) 0.8986(8) 0.6460(9)
H8_3 H 0.946467 0.919249 0.637194
O30_3 O 0.8066(7) 0.8232(8) 0.8455(8)
C16_3 C 0.9653(7) 0.8469(8) 0.6562(9)
C19_3 C 0.8906(7) 0.7718(8) 0.6902(10)
C20_3 C 0.9602(7) 0.6073(8) 0.6761(9)
C24_3 C 0.9930(7) 0.6463(9) 0.5868(9)
H9_3 H 0.990226 0.625741 0.595198
C28_3 C 0.9593(7) 0.6301(8) 0.7005(9)
C29_3 C 0.9420(7) 0.8097(8) 0.8240(9)
O33_3 O 0.8282(5) 0.7003(6) 0.8322(6)
C31_3 C 0.9695(7) 0.8795(8) 0.6420(9)
C33_3 C 0.8739(7) 0.6842(8) 0.8056(9)
C35_3 C 0.8388(8) 0.7466(9) 0.7024(10)
C38_3 C 0.8820(4) 0.6147(5) 0.6450(5)
H11_3 H 0.881344 0.598370 0.628398
C39_3 C 0.8575(4) 0.6344(5) 0.6497(5)
H12_3 H 0.840474 0.631148 0.636220
C40_3 C 0.8585(4) 0.6588(5) 0.6744(6)
H13_3 H 0.842089 0.671986 0.677583
C41_3 C 0.8839(4) 0.6637(4) 0.6945(5)
H14_3 H 0.884573 0.680048 0.711124
C42_3 C 0.9084(3) 0.6440(5) 0.6899(5)
C43_3 C 0.9074(4) 0.6196(5) 0.6651(6)
O36_3 O 0.7384(8) 0.8541(9) 0.7952(10)
C44_3 C 0.8506(8) 0.7084(9) 0.8149(10)
C45_3 C 0.9858(7) 0.6534(8) 0.5517(9)
H15_3 H 0.980069 0.636869 0.536773
C47_3 C 0.9361(7) 0.6724(8) 0.7408(8)
H18_3 H 0.930908 0.692978 0.730895
H19_3 H 0.955862 0.674458 0.750758
O39_3 O 0.8151(5) 0.7365(6) 0.6888(8)
C48_3 C 0.9981(7) 0.7744(9) 0.8815(9)
C52_3 C 0.9977(7) 0.7094(8) 0.5622(9)
C53_3 C 0.9813(4) 0.8797(5) 0.8630(6)
H20_3 H 0.999200 0.884339 0.874070
C54_3 C 0.9755(4) 0.8490(4) 0.8513(6)
H21_3 H 0.989559 0.833047 0.854507
C55_3 C 0.9487(5) 0.8421(4) 0.8347(6)
C56_3 C 0.9277(4) 0.8659(5) 0.8299(6)
C57_3 C 0.9335(4) 0.8966(4) 0.8416(6)
H22_3 H 0.919453 0.912525 0.838353
C58_3 C 0.9603(5) 0.9035(4) 0.8582(6)
H23_3 H 0.964146 0.924078 0.865993
C59_3 C 0.9335(7) 0.6005(8) 0.6551(9)
H24_3 H 0.933037 0.585461 0.637024
C61_3 C 0.8708(4) 0.9046(4) 0.6853(6)
H26_3 H 0.855596 0.919385 0.687923
C62_3 C 0.8959(4) 0.9123(4) 0.6657(6)
H27_3 H 0.897461 0.932229 0.655130
C63_3 C 0.9186(4) 0.8902(5) 0.6618(6)
C64_3 C 0.9162(4) 0.8604(4) 0.6776(6)
C65_3 C 0.8911(4) 0.8528(4) 0.6972(6)
H28_3 H 0.889549 0.832828 0.707793
C66_3 C 0.8684(4) 0.8748(5) 0.7011(6)
H29_3 H 0.851640 0.869684 0.714255
C67_3 C 0.8990(7) 0.8616(9) 0.8130(9)
H30_3 H 0.885442 0.878103 0.810279
C68_3 C 0.9124(7) 0.7863(8) 0.6670(9)
C69_3 C 0.9997(7) 0.7391(8) 0.5501(10)
H31_3 H 0.994440 0.743288 0.526670
C70_3 C 0.9867(7) 0.6828(8) 0.5389(10)
H32_3 H 0.980659 0.686873 0.515744
C72_3 C 0.8610(8) 0.7554(9) 0.6409(10)
H34_3 H 0.844929 0.743833 0.632325
C74_3 C 0.9361(7) 0.8034(8) 0.6823(9)
H35_3 H 0.934481 0.801533 0.707891
H36_3 H 0.954470 0.792955 0.675426
C75_3 C 0.8936(7) 0.8302(8) 0.8010(10)
C76_3 C 0.8641(8) 0.8225(9) 0.7855(10)
C77_3 C 0.9832(8) 0.7582(9) 0.9408(10)
H37_3 H 0.988011 0.751879 0.963773
O41_2 O 0.7410(7) 0.7899(8) 0.8209(8)
C78_3 C 0.9685(8) 0.7728(9) 0.8657(9)
O43_3 O 0.7771(8) 0.7349(9) 0.7445(13)
N3_3 N 0.6922(11) 0.8682(9) 0.7660(12)
C87_3 C 0.9854(7) 0.5897(9) 0.6639(9)
C91_3 C 0.8622(7) 0.7593(9) 0.6777(10)
O44_3 O 0.8330(9) 0.9267(11) 0.7722(10)
C95_3 C 0.9258(4) 0.7873(6) 0.5690(6)
H45_3 H 0.940717 0.794146 0.553686
C96_3 C 0.8996(5) 0.7750(6) 0.5554(5)
H46_3 H 0.896910 0.773536 0.531020
C97_3 C 0.8774(4) 0.7648(6) 0.5783(6)
H47_3 H 0.859818 0.756578 0.569261
C98_3 C 0.8814(4) 0.7670(6) 0.6148(6)
C99_3 C 0.9076(5) 0.7794(6) 0.6284(4)
C100_3 C 0.9299(4) 0.7895(6) 0.6055(6)
H48_3 H 0.947431 0.797796 0.614595
C101_3 C 0.9167(5) 0.5819(4) 0.8320(6)
H49_3 H 0.916892 0.563379 0.845385
C102_3 C 0.8939(4) 0.6039(5) 0.8363(5)
H50_3 H 0.878859 0.599968 0.852640
C103_3 C 0.8936(4) 0.6316(5) 0.8162(6)
C104_3 C 0.9160(5) 0.6374(4) 0.7918(5)
C105_3 C 0.9388(4) 0.6155(5) 0.7875(5)
H51_3 H 0.953832 0.619381 0.771128
C106_3 C 0.9391(4) 0.5878(5) 0.8075(6)
H52_3 H 0.954379 0.573085 0.804628
C119_3 C 0.9130(7) 0.8052(8) 0.8064(10)
O45_3 O 0.7933(10) 0.8089(12) 0.7671(14)
C135_3 C 0.7135(14) 0.8709(15) 0.7872(16)
H73_3 H 0.711871 0.889133 0.801080
C139_3 C 0.9322(5) 0.7459(7) 0.9496(5)
H80_3 H 0.936878 0.742865 0.973337
C140_3 C 0.9535(4) 0.7574(7) 0.9262(6)
C141_3 C 0.9465(4) 0.7620(6) 0.8907(6)
C142_3 C 0.9181(5) 0.7552(6) 0.8785(5)
H81_3 H 0.913401 0.758239 0.854678
C143_3 C 0.8968(4) 0.7437(7) 0.9018(6)
H82_3 H 0.877785 0.739075 0.893626
C144_3 C 0.9038(5) 0.7391(6) 0.9373(6)
H83_3 H 0.889523 0.731388 0.952955
C145_3 C 0.6924(12) 0.8381(10) 0.7472(13)
H84_3 H 0.675871 0.836964 0.731259
H85_3 H 0.691821 0.820444 0.763289
H86_3 H 0.710561 0.837464 0.733839
C147_3 C 0.6692(12) 0.8909(14) 0.7556(15)
H90_3 H 0.670361 0.909475 0.770450
H91_3 H 0.649991 0.881405 0.757920
H92_3 H 0.672461 0.896945 0.731340
O49_3 O 0.7880(11) 0.8836(13) 0.7262(14)
Ba8_2 Ba 0.70100(8) 0.73668(11) 0.8104(2)
O52_3 O 0.7687(4) 0.8783(5) 0.8714(6)
O55_3 O 0.7625(5) 0.9290(5) 0.8289(5)
O56_3 O 0.8138(4) 0.9163(5) 0.8569(6)
O60_2 O 0.7590(7) 0.7101(8) 0.8209(8)
H95_3 H 0.850853 0.928739 0.787458
H96_3 H 0.82191 0.947105 0.772217
H97_3 H 0.789561 0.742138 0.724329
H98_3 H 0.756239 0.741561 0.740497
H102_3 H 0.804707 0.895473 0.71528
H103_3 H 0.769142 0.895088 0.721628
Ba1_3 Ba 0.35062(6) 0.94265(6) 0.69329(9)
Ba2_4 Ba 0.70298(6) 0.62119(9) 0.79821(9)
Ba3_4 Ba 0.29996(7) 0.70335(7) 0.89993(12)
Ti1_4 Ti 0.43980(12) 0.71077(14) 0.85768(15)
Ti2_4 Ti 0.47503(11) 0.67519(14) 0.63037(16)
Ti3_4 Ti 0.47466(12) 0.87512(14) 0.71632(18)
Ti4_4 Ti 0.62188(11) 0.74217(15) 0.76625(19)
O1_4 O 0.5121(4) 0.6736(5) 0.6502(6)
O2_4 O 0.4307(4) 0.7495(5) 0.8362(5)
O3_4 O 0.4543(4) 0.6712(5) 0.6721(5)
O4_4 O 0.4369(4) 0.6866(5) 0.8161(5)
O5_4 O 0.5923(4) 0.7244(5) 0.7964(6)
O6_4 O 0.4726(5) 0.7202(5) 0.6286(6)
O7_4 O 0.4422(5) 0.7271(5) 0.9073(5)
O9_4 O 0.6057(4) 0.7245(5) 0.7241(6)
O10_4 O 0.6052(4) 0.7809(5) 0.7626(5)
O11_4 O 0.4349(5) 0.8921(6) 0.7028(6)
O12_4 O 0.4621(4) 0.8553(5) 0.7584(6)
O13_4 O 0.6569(5) 0.7531(6) 0.7352(7)
O14_4 O 0.6462(5) 0.7632(6) 0.8052(6)
O15_4 O 0.5143(4) 0.8640(5) 0.7188(6)
O16_4 O 0.4374(4) 0.6678(5) 0.8824(5)
O17_4 O 0.3964(5) 0.7107(5) 0.8687(6)
O18_4 O 0.4805(4) 0.7133(5) 0.8588(6)
O20_4 O 0.4628(4) 0.8410(5) 0.6867(6)
O21_4 O 0.6451(5) 0.7040(6) 0.7797(6)
O23_4 O 0.6530(5) 0.6519(6) 0.7842(6)
O24_4 O 0.4992(4) 0.5790(5) 0.6244(6)
O25_4 O 0.4789(5) 0.9149(5) 0.7486(7)
O26_3 O 0.4880(5) 0.9043(5) 0.6771(6)
O27_4 O 0.3884(5) 0.6652(6) 0.5941(6)
O28_4 O 0.4362(5) 0.6156(5) 0.8917(6)
C1_4 C 0.4439(7) 0.6772(8) 0.7444(8)
H1_4 H 0.462840 0.677710 0.732100
H2_4 H 0.441563 0.697311 0.756702
C2_4 C 0.4084(7) 0.7697(8) 0.8306(9)
C3_4 C 0.4632(7) 0.8619(8) 0.7932(9)
C4_4 C 0.4442(7) 0.6492(8) 0.7726(8)
O29_3 O 0.5153(5) 0.9337(6) 0.6409(6)
C5_4 C 0.4673(7) 0.7819(8) 0.6549(9)
H3_4 H 0.464022 0.761973 0.667136
H4_4 H 0.482035 0.793588 0.668445
C6_4 C 0.5611(7) 0.6616(8) 0.6732(9)
C7_4 C 0.4416(7) 0.6571(8) 0.8082(8)
C8_4 C 0.6257(7) 0.8448(8) 0.8227(9)
H5_4 H 0.639907 0.848229 0.840196
C9_4 C 0.4139(7) 0.7971(8) 0.8123(9)
C10_4 C 0.6048(7) 0.8112(8) 0.7802(9)
C11_4 C 0.5844(7) 0.8340(8) 0.7702(8)
C12_4 C 0.4419(7) 0.6360(8) 0.8338(9)
C13_4 C 0.5620(7) 0.8520(8) 0.7091(9)
C14_4 C 0.5370(7) 0.7180(8) 0.8291(9)
H6_4 H 0.518142 0.712644 0.818147
H7_4 H 0.544904 0.736266 0.816502
C15_4 C 0.5550(7) 0.6014(8) 0.6460(9)
H8_4 H 0.553533 0.580751 0.637194
O30_4 O 0.6934(7) 0.6768(8) 0.8455(8)
C16_4 C 0.5347(7) 0.6531(8) 0.6562(9)
C17_4 C 0.4129(7) 0.8503(9) 0.6720(10)
O31_4 O 0.4591(5) 0.7280(6) 0.9621(6)
O32_4 O 0.4932(6) 0.6958(6) 0.5249(6)
C18_4 C 0.4798(7) 0.7749(8) 0.6225(9)
C19_4 C 0.6094(7) 0.7282(8) 0.6902(10)
C20_4 C 0.5398(7) 0.8927(8) 0.6761(9)
C21_4 C 0.4951(8) 0.7298(9) 0.9144(10)
C22_4 C 0.4127(8) 0.8806(9) 0.6853(10)
C23_4 C 0.4186(7) 0.6735(8) 0.7167(8)
C24_4 C 0.5070(7) 0.8537(9) 0.5868(9)
H9_4 H 0.509774 0.874259 0.595198
C25_4 C 0.4998(7) 0.6081(9) 0.6298(9)
C26_4 C 0.4372(7) 0.8295(8) 0.6699(9)
C27_4 C 0.3781(7) 0.7604(9) 0.8440(9)
C28_4 C 0.5407(7) 0.8699(8) 0.7005(9)
C29_4 C 0.5580(7) 0.6903(8) 0.8240(9)
O33_4 O 0.6718(5) 0.7997(6) 0.8322(6)
C30_4 C 0.4559(7) 0.8376(8) 0.8158(9)
C31_4 C 0.5305(7) 0.6205(8) 0.6420(9)
C32_4 C 0.4728(7) 0.8926(8) 0.8030(10)
O34_4 O 0.4847(6) 0.9448(6) 0.7950(7)
C33_4 C 0.6261(7) 0.8158(8) 0.8056(9)
C34_4 C 0.3564(7) 0.7805(8) 0.8366(9)
H10_4 H 0.337282 0.775406 0.843877
C35_4 C 0.6612(8) 0.7534(9) 0.7024(10)
C36_4 C 0.4801(7) 0.7425(8) 0.6087(10)
C37_4 C 0.4788(8) 0.9210(9) 0.7818(11)
O35_4 O 0.3484(5) 0.7215(6) 0.8677(7)
C38_4 C 0.6180(4) 0.8853(5) 0.6450(5)
H11_4 H 0.618656 0.901630 0.628398
C39_4 C 0.6425(4) 0.8656(5) 0.6497(5)
H12_4 H 0.659526 0.868852 0.636220
C40_4 C 0.6415(4) 0.8412(5) 0.6744(6)
H13_4 H 0.657911 0.828014 0.677583
C41_4 C 0.6161(4) 0.8363(4) 0.6945(5)
H14_4 H 0.615427 0.819952 0.711124
C42_4 C 0.5916(3) 0.8560(5) 0.6899(5)
C43_4 C 0.5926(4) 0.8804(5) 0.6651(6)
O36_4 O 0.7616(8) 0.6459(9) 0.7952(10)
C44_4 C 0.6494(8) 0.7916(9) 0.8149(10)
C45_4 C 0.5142(7) 0.8466(8) 0.5517(9)
H15_4 H 0.519931 0.863131 0.536773
O37_4 O 0.3575(7) 0.9492(7) 0.7627(9)
O38_4 O 0.3907(5) 0.9012(6) 0.6812(6)
C46_4 C 0.4449(7) 0.8063(8) 0.8017(9)
H16_4 H 0.445905 0.806912 0.776023
H17_4 H 0.458317 0.789705 0.809676
C47_4 C 0.5639(7) 0.8276(8) 0.7408(8)
H18_4 H 0.569092 0.807022 0.730895
H19_4 H 0.544138 0.825542 0.750758
O39_4 O 0.6849(5) 0.7635(6) 0.6888(8)
C48_4 C 0.5019(7) 0.7256(9) 0.8815(9)
C49_4 C 0.4245(7) 0.6716(8) 0.6814(8)
C50_4 C 0.4918(7) 0.7027(9) 0.5582(9)
C51_4 C 0.4383(7) 0.6390(9) 0.8729(9)
O40_4 O 0.3135(8) 0.6539(9) 0.8599(10)
C52_4 C 0.5023(7) 0.7906(8) 0.5622(9)
C53_4 C 0.5187(4) 0.6203(5) 0.8630(6)
H20_4 H 0.500800 0.615661 0.874070
C54_4 C 0.5245(4) 0.6510(4) 0.8513(6)
H21_4 H 0.510441 0.666953 0.854507
C55_4 C 0.5513(5) 0.6579(4) 0.8347(6)
C56_4 C 0.5723(4) 0.6341(5) 0.8299(6)
C57_4 C 0.5665(4) 0.6034(4) 0.8416(6)
H22_4 H 0.580547 0.587475 0.838353
C58_4 C 0.5397(5) 0.5965(4) 0.8582(6)
H23_4 H 0.535854 0.575922 0.865993
N1_4 N 0.3399(10) 0.6185(11) 0.8247(12)
C59_4 C 0.5665(7) 0.8995(8) 0.6551(9)
H24_4 H 0.566963 0.914539 0.637024
C60_4 C 0.3730(7) 0.6689(8) 0.6662(9)
H25_4 H 0.358002 0.667446 0.649315
C61_4 C 0.6292(4) 0.5954(4) 0.6853(6)
H26_4 H 0.644404 0.580615 0.687923
C62_4 C 0.6041(4) 0.5877(4) 0.6657(6)
H27_4 H 0.602539 0.567771 0.655130
C63_4 C 0.5814(4) 0.6098(5) 0.6618(6)
C64_4 C 0.5838(4) 0.6396(4) 0.6776(6)
C65_4 C 0.6089(4) 0.6472(4) 0.6972(6)
H28_4 H 0.610451 0.667172 0.707793
C66_4 C 0.6316(4) 0.6252(5) 0.7011(6)
H29_4 H 0.648360 0.630316 0.714255
C67_4 C 0.6010(7) 0.6384(9) 0.8130(9)
H30_4 H 0.614558 0.621897 0.810279
C68_4 C 0.5876(7) 0.7137(8) 0.6670(9)
C69_4 C 0.5003(7) 0.7609(8) 0.5501(10)
H31_4 H 0.505560 0.756712 0.526670
C70_4 C 0.5133(7) 0.8172(8) 0.5389(10)
H32_4 H 0.519341 0.813127 0.515744
C71_4 C 0.4753(7) 0.8969(9) 0.8406(10)
H33_4 H 0.481819 0.916430 0.849128
C72_4 C 0.6390(8) 0.7446(9) 0.6409(10)
H34_4 H 0.655071 0.756167 0.632325
N2_4 N 0.3519(9) 0.9399(10) 0.8199(11)
C73_4 C 0.4400(7) 0.7998(8) 0.6566(10)
C74_4 C 0.5639(7) 0.6966(8) 0.6823(9)
H35_4 H 0.565519 0.698467 0.707891
H36_4 H 0.545530 0.707045 0.675426
C75_4 C 0.6064(7) 0.6698(8) 0.8010(10)
C76_4 C 0.6359(8) 0.6775(9) 0.7855(10)
C77_4 C 0.5168(8) 0.7418(9) 0.9408(10)
H37_4 H 0.511989 0.748121 0.963773
C78_4 C 0.5315(8) 0.7272(9) 0.8657(9)
C79_4 C 0.3858(8) 0.8386(9) 0.6573(10)
H38_4 H 0.368607 0.850803 0.657575
C80_4 C 0.3390(3) 0.8551(5) 0.7912(6)
H39_4 H 0.322468 0.867718 0.786541
C81_4 C 0.3666(4) 0.8637(4) 0.7779(6)
H40_4 H 0.368540 0.881982 0.764233
C82_4 C 0.3912(3) 0.8448(5) 0.7848(6)
H41_4 H 0.409676 0.850534 0.775904
C83_4 C 0.3883(3) 0.8174(5) 0.8052(6)
C84_4 C 0.3606(4) 0.8089(4) 0.8186(6)
C85_4 C 0.3360(3) 0.8277(5) 0.8116(6)
H42_4 H 0.317533 0.822006 0.820523
O42_4 O 0.3167(12) 0.8939(12) 0.7145(9)
O43_4 O 0.7229(8) 0.7651(9) 0.7445(13)
C86_4 C 0.4095(7) 0.6636(9) 0.6167(9)
N3_4 N 0.8078(11) 0.6318(9) 0.7660(12)
C87_4 C 0.5146(7) 0.9103(9) 0.6639(9)
C88_4 C 0.4023(7) 0.6687(8) 0.6552(9)
C89_4 C 0.4904(7) 0.7353(8) 0.5720(9)
C90_4 C 0.4933(7) 0.7987(8) 0.5984(9)
C91_4 C 0.6378(7) 0.7407(9) 0.6777(10)
C92_4 C 0.4955(7) 0.8300(8) 0.6102(10)
H43_4 H 0.489552 0.835382 0.633040
O44_4 O 0.6670(9) 0.5733(11) 0.7722(10)
C93_4 C 0.4640(8) 0.7294(9) 0.9302(10)
C94_4 C 0.4446(7) 0.6008(8) 0.8227(9)
H44_4 H 0.443010 0.584829 0.839734
C95_4 C 0.5742(4) 0.7127(6) 0.5690(6)
H45_4 H 0.559283 0.705854 0.553686
C96_4 C 0.6004(5) 0.7250(6) 0.5554(5)
H46_4 H 0.603090 0.726464 0.531020
C97_4 C 0.6226(4) 0.7352(6) 0.5783(6)
H47_4 H 0.640182 0.743422 0.569261
C98_4 C 0.6186(4) 0.7330(6) 0.6148(6)
C99_4 C 0.5924(5) 0.7206(6) 0.6284(4)
C100_4 C 0.5701(4) 0.7105(6) 0.6055(6)
H48_4 H 0.552569 0.702204 0.614595
C101_4 C 0.5833(5) 0.9181(4) 0.8320(6)
H49_4 H 0.583108 0.936621 0.845385
C102_4 C 0.6061(4) 0.8961(5) 0.8363(5)
H50_4 H 0.621141 0.900032 0.852640
C103_4 C 0.6064(4) 0.8684(5) 0.8162(6)
C104_4 C 0.5840(5) 0.8626(4) 0.7918(5)
C105_4 C 0.5612(4) 0.8845(5) 0.7875(5)
H51_4 H 0.546168 0.880619 0.771128
C106_4 C 0.5609(4) 0.9122(5) 0.8075(6)
H52_4 H 0.545621 0.926915 0.804628
C107_4 C 0.4581(5) 0.5535(4) 0.7411(6)
H53_4 H 0.460785 0.532428 0.734401
C108_4 C 0.4587(5) 0.5774(5) 0.7156(4)
H54_4 H 0.461840 0.572326 0.691886
C109_4 C 0.4547(5) 0.6090(4) 0.7256(5)
H55_4 H 0.455093 0.624955 0.708548
C110_4 C 0.4500(5) 0.6166(4) 0.7610(5)
C111_4 C 0.4494(5) 0.5927(5) 0.7865(4)
C112_4 C 0.4534(5) 0.5612(4) 0.7765(5)
H56_4 H 0.452981 0.545158 0.793579
C113_4 C 0.3356(4) 0.6734(6) 0.7110(5)
H57_4 H 0.321028 0.670717 0.693780
C114_4 C 0.3654(4) 0.6714(6) 0.7018(4)
C115_4 C 0.3871(3) 0.6754(6) 0.7276(5)
C116_4 C 0.3791(4) 0.6816(6) 0.7625(5)
H58_4 H 0.393610 0.684320 0.779736
C117_4 C 0.3493(4) 0.6837(6) 0.7717(4)
H59_4 H 0.343889 0.687795 0.795077
C118_4 C 0.3275(3) 0.6796(6) 0.7460(5)
H60_4 H 0.307598 0.680994 0.752100
C119_4 C 0.5870(7) 0.6948(8) 0.8064(10)
C120_4 C 0.3743(8) 0.7314(9) 0.8622(10)
C121_4 C 0.4681(5) 0.8514(6) 0.9263(4)
H61_4 H 0.470815 0.854633 0.950475
C122_4 C 0.4599(5) 0.8216(5) 0.9137(5)
H62_4 H 0.457246 0.804839 0.929487
C123_4 C 0.4558(5) 0.8168(4) 0.8775(6)
H63_4 H 0.450385 0.796852 0.869121
C124_4 C 0.4598(5) 0.8419(5) 0.8539(4)
C125_4 C 0.4680(5) 0.8717(5) 0.8665(5)
C126_4 C 0.4721(5) 0.8765(4) 0.9027(6)
H64_4 H 0.477523 0.896441 0.911098
C127_4 C 0.3589(4) 0.7964(5) 0.6305(7)
H65_4 H 0.342305 0.809549 0.630303
C128_4 C 0.3860(5) 0.8080(4) 0.6424(7)
C129_4 C 0.4108(4) 0.7884(5) 0.6427(7)
C130_4 C 0.4085(4) 0.7572(5) 0.6310(7)
H66_4 H 0.425096 0.744017 0.631137
C131_4 C 0.3814(5) 0.7455(4) 0.6190(7)
H67_4 H 0.379907 0.724601 0.611212
C132_4 C 0.3566(4) 0.7652(6) 0.6188(7)
H68_4 H 0.338511 0.757367 0.610795
O45_4 O 0.7067(10) 0.6911(12) 0.7671(14)
C133_4 C 0.3332(11) 0.9364(12) 0.8505(13)
H69_4 H 0.321332 0.917594 0.848010
H70_4 H 0.345313 0.934651 0.871357
H71_4 H 0.320543 0.954651 0.852537
C134_4 C 0.3410(12) 0.9473(12) 0.7890(13)
H72_4 H 0.320752 0.951219 0.786674
C135_4 C 0.7865(14) 0.6291(15) 0.7872(16)
H73_4 H 0.788129 0.610867 0.801080
O46_4 O 0.3011(15) 0.7674(14) 0.9177(18)
C136_4 C 0.3853(11) 0.9342(12) 0.8204(14)
H74_4 H 0.389199 0.911951 0.824030
H75_4 H 0.393735 0.940771 0.798195
H76_4 H 0.394099 0.946218 0.839351
C137_4 C 0.3344(11) 0.6419(13) 0.8481(13)
C138_4 C 0.3692(10) 0.6104(12) 0.8177(13)
H77_4 H 0.381636 0.618350 0.836365
H78_4 H 0.370952 0.587667 0.816479
H79_4 H 0.375153 0.619558 0.795513
C139_4 C 0.5678(5) 0.7541(7) 0.9496(5)
H80_4 H 0.563122 0.757135 0.973337
C140_4 C 0.5465(4) 0.7426(7) 0.9262(6)
C141_4 C 0.5535(4) 0.7380(6) 0.8907(6)
C142_4 C 0.5819(5) 0.7448(6) 0.8785(5)
H81_4 H 0.586599 0.741761 0.854678
C143_4 C 0.6032(4) 0.7563(7) 0.9018(6)
H82_4 H 0.622215 0.760925 0.893626
C144_4 C 0.5962(5) 0.7609(6) 0.9373(6)
H83_4 H 0.610477 0.768612 0.952955
C145_4 C 0.8076(12) 0.6619(10) 0.7472(13)
H84_4 H 0.824129 0.663036 0.731259
H85_4 H 0.808179 0.679556 0.763289
H86_4 H 0.789439 0.662536 0.733839
C146_4 C 0.3192(12) 0.5998(14) 0.8058(15)
H87_4 H 0.307824 0.613224 0.790295
H88_4 H 0.329452 0.584074 0.792079
H89_4 H 0.306104 0.589480 0.822308
O47_4 O 0.2677(10) 0.7219(10) 0.9568(11)
O48_4 O 0.281(2) 0.728(2) 0.841(2)
C147_4 C 0.8308(12) 0.6091(14) 0.7556(15)
H90_4 H 0.829639 0.590525 0.770450
H91_4 H 0.850009 0.618595 0.757920
H92_4 H 0.827539 0.603055 0.731340
O49_4 O 0.7120(11) 0.6164(13) 0.7262(14)
O50_4 O 0.3297(12) 0.7080(13) 0.9600(13)
Ba5_4 Ba 0.39938(6) 0.69265(6) 0.94329(9)
Ba7_3 Ba 0.45004(7) 0.95335(7) 0.64993(12)
O51_3 O 0.3078(5) 0.9771(5) 0.6573(5)
O52_4 O 0.7313(4) 0.6217(5) 0.8714(6)
O53_3 O 0.3126(4) 0.9178(5) 0.6324(5)
O54_3 O 0.3536(5) 0.9607(5) 0.6187(6)
O55_4 O 0.7375(5) 0.5710(5) 0.8289(5)
O56_4 O 0.6862(4) 0.5837(5) 0.8569(6)
O57_4 O 0.2620(5) 0.6543(5) 0.9271(6)
O58_4 O 0.2347(5) 0.6837(6) 0.8909(6)
O59_3 O 0.2909(5) 0.9780(6) 0.7121(6)
O61_3 O 0.4203(12) 0.9580(13) 0.7100(13)
H93_4 H 0.328927 0.878648 0.728313
H94_4 H 0.308274 0.882984 0.693418
H95_4 H 0.649147 0.571261 0.787458
H96_4 H 0.67809 0.552895 0.772217
H97_4 H 0.710439 0.757862 0.724329
H98_4 H 0.743761 0.758439 0.740497
H99_4 H 0.319575 0.772168 0.931018
H100_4 H 0.283644 0.772526 0.932712
H101_4 H 0.354753 0.652169 0.858621
H102_4 H 0.695293 0.604527 0.71528
H103_4 H 0.730858 0.604912 0.721628
H104_4 H 0.28016 0.72072 0.978489
H105_4 H 0.250268 0.707672 0.959504
H106_4 H 0.287169 0.750643 0.839681
H107_4 H 0.259027 0.726635 0.840146
O58_5 O 0.0153(5) 0.9337(6) 0.1409(6)
O10_5 O 0.6448(4) 0.0309(5) 0.0126(5)
O12_5 O 0.7879(4) 0.1053(5) 0.0084(6)
O14_5 O 0.6038(5) 0.0132(6) 0.0552(6)
C2_5 C 0.8416(7) 0.0197(8) 0.0806(9)
C3_5 C 0.7868(7) 0.1119(8) 0.0432(9)
C8_5 C 0.6243(7) 0.0948(8) 0.0727(9)
H5_5 H 0.610093 0.098229 0.090196
C9_5 C 0.8361(7) 0.0471(8) 0.0623(9)
C10_5 C 0.6452(7) 0.0612(8) 0.0302(9)
C11_5 C 0.6656(7) 0.0840(8) 0.0202(8)
C27_5 C 0.8719(7) 0.0104(9) 0.0940(9)
O33_5 O 0.5782(5) 0.0497(6) 0.0822(6)
C30_5 C 0.7941(7) 0.0876(8) 0.0658(9)
C32_5 C 0.7772(7) 0.1426(8) 0.0530(10)
O34_5 O 0.7653(6) 0.1948(6) 0.0450(7)
C33_5 C 0.6239(7) 0.0658(8) 0.0556(9)
C34_5 C 0.8936(7) 0.0305(8) 0.0866(9)
H10_5 H 0.912718 0.025406 0.093877
C37_5 C 0.7712(8) 0.1710(9) 0.0318(11)
C44_5 C 0.6006(8) 0.0416(9) 0.0649(10)
O37_5 O 0.8925(7) 0.1992(7) 0.0127(9)
C46_5 C 0.8051(7) 0.0563(8) 0.0517(9)
H16_5 H 0.804095 0.056912 0.026023
H17_5 H 0.791683 0.039705 0.059676
H19_5 H 0.705862 0.075542 0.000758
C71_5 C 0.7747(7) 0.1469(9) 0.0906(10)
H33_5 H 0.768181 0.166430 0.099128
N2_5 N 0.8981(9) 0.1899(10) 0.0699(11)
C80_5 C 0.9110(3) 0.1051(5) 0.0412(6)
H39_5 H 0.927532 0.117718 0.036541
C81_5 C 0.8834(4) 0.1137(4) 0.0279(6)
H40_5 H 0.881460 0.131982 0.014233
C82_5 C 0.8588(3) 0.0948(5) 0.0348(6)
H41_5 H 0.840324 0.100534 0.025904
C83_5 C 0.8617(3) 0.0674(5) 0.0552(6)
C84_5 C 0.8894(4) 0.0589(4) 0.0686(6)
C85_5 C 0.9140(3) 0.0777(5) 0.0616(6)
H42_5 H 0.932467 0.072006 0.070523
C101_5 C 0.6667(5) 0.1681(4) 0.0820(6)
H49_5 H 0.666892 0.186621 0.095385
C102_5 C 0.6439(4) 0.1461(5) 0.0863(5)
H50_5 H 0.628859 0.150032 0.102640
C103_5 C 0.6436(4) 0.1184(5) 0.0662(6)
C104_5 C 0.6660(5) 0.1126(4) 0.0418(5)
C105_5 C 0.6888(4) 0.1345(5) 0.0375(5)
H51_5 H 0.703832 0.130619 0.021128
C106_5 C 0.6891(4) 0.1622(5) 0.0575(6)
H52_5 H 0.704379 0.176915 0.054628
C121_5 C 0.7819(5) 0.1014(6) 0.1763(4)
H61_5 H 0.779185 0.104633 0.200475
C122_5 C 0.7901(5) 0.0716(5) 0.1637(5)
H62_5 H 0.792754 0.054839 0.179487
C123_5 C 0.7942(5) 0.0668(4) 0.1275(6)
H63_5 H 0.799615 0.046852 0.119121
C124_5 C 0.7902(5) 0.0919(5) 0.1039(4)
C125_5 C 0.7820(5) 0.1217(5) 0.1165(5)
C126_5 C 0.7779(5) 0.1265(4) 0.1527(6)
H64_5 H 0.772477 0.146441 0.161098
C133_5 C 0.9168(11) 0.1864(12) 0.1005(13)
H69_5 H 0.928668 0.167594 0.098010
H70_5 H 0.904687 0.184651 0.121357
H71_5 H 0.929457 0.204651 0.102537
C134_5 C 0.9090(12) 0.1973(12) 0.0390(13)
H72_5 H 0.929248 0.201219 0.036674
O46_5 O 0.9489(15) 0.0174(14) 0.1677(18)
C136_5 C 0.8647(11) 0.1842(12) 0.0704(14)
H74_5 H 0.860801 0.161951 0.074030
H75_5 H 0.856265 0.190771 0.048195
H76_5 H 0.855901 0.196218 0.089351
C139_5 C 0.6822(5) 0.0041(7) 0.1996(5)
H80_5 H 0.686878 0.007135 0.223337
C143_5 C 0.6468(4) 0.0063(7) 0.1518(6)
H82_5 H 0.627785 0.010925 0.143626
C144_5 C 0.6538(5) 0.0109(6) 0.1873(6)
H83_5 H 0.639523 0.018612 0.202955
Ba8_3 Ba 0.45100(8) 0.01332(11) 0.0604(2)
O60_3 O 0.5090(7) 0.0399(8) 0.0709(8)
H99_5 H 0.930425 0.0221677 0.181018
H100_5 H 0.966356 0.0225259 0.182712
H106_5 H 0.962831 0.000642557 0.0896809
Ba1_4 Ba 0.89938(6) 0.19265(6) 0.94329(9)
Ti3_5 Ti 0.77534(12) 0.12512(14) 0.96632(18)
O11_5 O 0.8151(5) 0.1421(6) 0.9528(6)
O13_5 O 0.5931(5) 0.0031(6) 0.9852(7)
O15_5 O 0.7357(4) 0.1140(5) 0.9688(6)
O20_5 O 0.7872(4) 0.0910(5) 0.9367(6)
O25_5 O 0.7711(5) 0.1649(5) 0.9986(7)
O26_4 O 0.7620(5) 0.1543(5) 0.9271(6)
O29_4 O 0.7347(5) 0.1837(6) 0.8909(6)
C5_5 C 0.7827(7) 0.0319(8) 0.9049(9)
H3_5 H 0.785978 0.011973 0.917136
H4_5 H 0.767965 0.043588 0.918445
C13_5 C 0.6880(7) 0.1020(8) 0.9591(9)
C17_5 C 0.8371(7) 0.1003(9) 0.9220(10)
C18_5 C 0.7702(7) 0.0249(8) 0.8725(9)
C20_5 C 0.7102(7) 0.1427(8) 0.9261(9)
C22_5 C 0.8373(8) 0.1306(9) 0.9353(10)
C24_5 C 0.7430(7) 0.1037(9) 0.8368(9)
H9_5 H 0.740226 0.124259 0.845198
C26_5 C 0.8128(7) 0.0795(8) 0.9199(9)
C28_5 C 0.7093(7) 0.1199(8) 0.9505(9)
C35_5 C 0.5888(8) 0.0034(9) 0.9524(10)
C38_5 C 0.6320(4) 0.1353(5) 0.8950(5)
H11_5 H 0.631344 0.151630 0.878398
C39_5 C 0.6075(4) 0.1156(5) 0.8997(5)
H12_5 H 0.590474 0.118852 0.886220
C40_5 C 0.6085(4) 0.0912(5) 0.9244(6)
H13_5 H 0.592089 0.078014 0.927583
C41_5 C 0.6339(4) 0.0863(4) 0.9445(5)
H14_5 H 0.634573 0.069952 0.961124
C42_5 C 0.6584(3) 0.1060(5) 0.9399(5)
C43_5 C 0.6574(4) 0.1304(5) 0.9151(6)
C45_5 C 0.7358(7) 0.0966(8) 0.8017(9)
H15_5 H 0.730069 0.113131 0.786773
O38_5 O 0.8593(5) 0.1512(6) 0.9312(6)
C47_5 C 0.6861(7) 0.0776(8) 0.9908(8)
H18_5 H 0.680908 0.057022 0.980895
O39_5 O 0.5651(5) 0.0135(6) 0.9388(8)
C52_5 C 0.7477(7) 0.0406(8) 0.8122(9)
C59_5 C 0.6835(7) 0.1495(8) 0.9051(9)
H24_5 H 0.683037 0.164539 0.887024
C69_5 C 0.7497(7) 0.0109(8) 0.8001(10)
H31_5 H 0.744440 0.006712 0.776670
C70_5 C 0.7367(7) 0.0672(8) 0.7889(10)
H32_5 H 0.730659 0.063127 0.765744
H34_5 H 0.594929 0.006167 0.882325
C73_5 C 0.8100(7) 0.0498(8) 0.9066(10)
C79_5 C 0.8642(8) 0.0886(9) 0.9073(10)
H38_5 H 0.881393 0.100803 0.907575
O42_5 O 0.9333(12) 0.1439(12) 0.9645(9)
O43_5 O 0.5271(8) 0.0151(9) 0.9945(13)
C87_5 C 0.7354(7) 0.1603(9) 0.9139(9)
C90_5 C 0.7567(7) 0.0487(8) 0.8484(9)
C92_5 C 0.7545(7) 0.0800(8) 0.8602(10)
H43_5 H 0.760448 0.085382 0.883040
C127_5 C 0.8911(4) 0.0464(5) 0.8805(7)
H65_5 H 0.907695 0.059549 0.880303
C128_5 C 0.8640(5) 0.0580(4) 0.8924(7)
C129_5 C 0.8392(4) 0.0384(5) 0.8927(7)
C130_5 C 0.8415(4) 0.0072(5) 0.8810(7)
C132_5 C 0.8934(4) 0.0152(6) 0.8688(7)
H68_5 H 0.911489 0.007367 0.860795
Ba7_4 Ba 0.79996(7) 0.20335(7) 0.89993(12)
O51_4 O 0.9422(5) 0.2271(5) 0.9073(5)
O53_4 O 0.9374(4) 0.1678(5) 0.8824(5)
O54_4 O 0.8964(5) 0.2107(5) 0.8687(6)
O59_4 O 0.9591(5) 0.2280(6) 0.9621(6)
O61_4 O 0.8297(12) 0.2080(13) 0.9600(13)
H93_5 H 0.921073 0.128648 0.978313
H94_5 H 0.941726 0.132984 0.943418
H97_5 H 0.539561 0.0078621 0.974329
H98_5 H 0.506239 0.00843877 0.990497
Ba2_5 Ba 0.54702(6) 0.87119(9) 0.04821(9)
Ba3_5 Ba 0.95004(7) 0.95335(7) 0.14993(12)
Ba4_3 Ba 0.54900(8) 0.98668(11) 0.0604(2)
Ti1_5 Ti 0.81020(12) 0.96077(14) 0.10768(15)
Ti4_5 Ti 0.62812(11) 0.99217(15) 0.01625(19)
O2_5 O 0.8193(4) 0.9995(5) 0.0862(5)
O4_5 O 0.8131(4) 0.9366(5) 0.0661(5)
O5_5 O 0.6577(4) 0.9744(5) 0.0464(6)
O7_5 O 0.8078(5) 0.9771(5) 0.1573(5)
O16_5 O 0.8126(4) 0.9178(5) 0.1324(5)
O17_5 O 0.8536(5) 0.9607(5) 0.1187(6)
O18_5 O 0.7695(4) 0.9633(5) 0.1088(6)
O21_5 O 0.6049(5) 0.9540(6) 0.0297(6)
O23_5 O 0.5970(5) 0.9019(6) 0.0342(6)
O28_5 O 0.8138(5) 0.8656(5) 0.1417(6)
H2_5 H 0.808437 0.947311 0.006702
C4_5 C 0.8058(7) 0.8992(8) 0.0226(8)
C7_5 C 0.8084(7) 0.9071(8) 0.0582(8)
C12_5 C 0.8081(7) 0.8860(8) 0.0838(9)
C14_5 C 0.7130(7) 0.9680(8) 0.0791(9)
H6_5 H 0.731858 0.962644 0.068147
H7_5 H 0.705096 0.986266 0.066502
O30_5 O 0.5566(7) 0.9268(8) 0.0955(8)
O31_5 O 0.7909(5) 0.9780(6) 0.2121(6)
C21_5 C 0.7549(8) 0.9798(9) 0.1644(10)
C29_5 C 0.6920(7) 0.9403(8) 0.0740(9)
O35_5 O 0.9016(5) 0.9715(6) 0.1177(7)
O36_5 O 0.4884(8) 0.8959(9) 0.0452(10)
C48_5 C 0.7481(7) 0.9756(9) 0.1315(9)
C51_5 C 0.8117(7) 0.8890(9) 0.1229(9)
O40_5 O 0.9365(8) 0.9039(9) 0.1099(10)
C53_5 C 0.7313(4) 0.8703(5) 0.1130(6)
H20_5 H 0.749200 0.865661 0.124070
C54_5 C 0.7255(4) 0.9010(4) 0.1013(6)
H21_5 H 0.739559 0.916953 0.104507
C55_5 C 0.6987(5) 0.9079(4) 0.0847(6)
C56_5 C 0.6777(4) 0.8841(5) 0.0799(6)
C57_5 C 0.6835(4) 0.8534(4) 0.0916(6)
H22_5 H 0.669453 0.837475 0.088353
C58_5 C 0.7103(5) 0.8465(4) 0.1082(6)
H23_5 H 0.714146 0.825922 0.115993
N1_5 N 0.9101(10) 0.8685(11) 0.0747(12)
C67_5 C 0.6490(7) 0.8884(9) 0.0630(9)
H30_5 H 0.635442 0.871897 0.060279
C75_5 C 0.6436(7) 0.9198(8) 0.0510(10)
C76_5 C 0.6141(8) 0.9275(9) 0.0355(10)
C77_5 C 0.7332(8) 0.9918(9) 0.1908(10)
H37_5 H 0.738011 0.998121 0.213773
O41_3 O 0.4910(7) 0.9601(8) 0.0709(8)
C78_5 C 0.7185(8) 0.9772(9) 0.1157(9)
N3_5 N 0.4422(11) 0.8818(9) 0.0160(12)
O44_5 O 0.5830(9) 0.8233(11) 0.0222(10)
C93_5 C 0.7860(8) 0.9794(9) 0.1802(10)
C94_5 C 0.8054(7) 0.8508(8) 0.0727(9)
H44_5 H 0.806990 0.834829 0.089734
C110_5 C 0.8000(5) 0.8666(4) 0.0110(5)
C111_5 C 0.8006(5) 0.8427(5) 0.0365(4)
C112_5 C 0.7966(5) 0.8112(4) 0.0265(5)
H56_5 H 0.797019 0.795158 0.043579
C116_5 C 0.8709(4) 0.9316(6) 0.0125(5)
H58_5 H 0.856390 0.934320 0.029736
C117_5 C 0.9007(4) 0.9337(6) 0.0217(4)
H59_5 H 0.906111 0.937795 0.045077
H60_5 H 0.942402 0.930994 0.002100
C119_5 C 0.6630(7) 0.9448(8) 0.0564(10)
C120_5 C 0.8757(8) 0.9814(9) 0.1122(10)
O45_5 O 0.5433(10) 0.9411(12) 0.0171(14)
C135_5 C 0.4635(14) 0.8791(15) 0.0372(16)
H73_5 H 0.461871 0.860867 0.051080
C137_5 C 0.9156(11) 0.8919(13) 0.0981(13)
C138_5 C 0.8808(10) 0.8604(12) 0.0677(13)
H77_5 H 0.868364 0.868350 0.086365
H78_5 H 0.879048 0.837667 0.066479
H79_5 H 0.874847 0.869558 0.045513
C140_5 C 0.7035(4) 0.9926(7) 0.1762(6)
C141_5 C 0.6965(4) 0.9880(6) 0.1407(6)
C142_5 C 0.6681(5) 0.9948(6) 0.1285(5)
H81_5 H 0.663401 0.991761 0.104678
H85_5 H 0.441821 0.929556 0.013289
C146_5 C 0.9308(12) 0.8498(14) 0.0558(15)
H87_5 H 0.942176 0.863224 0.040295
H88_5 H 0.920548 0.834074 0.042079
H89_5 H 0.943896 0.839480 0.072308
O47_5 O 0.9823(10) 0.9719(10) 0.2068(11)
O48_5 O 0.969(2) 0.978(2) 0.091(2)
C147_5 C 0.4192(12) 0.8591(14) 0.0056(15)
H90_5 H 0.420361 0.840525 0.020450
H91_5 H 0.399991 0.868595 0.007920
O50_5 O 0.9203(12) 0.9580(13) 0.2100(13)
Ba5_5 Ba 0.85062(6) 0.94265(6) 0.19329(9)
O52_5 O 0.5187(4) 0.8717(5) 0.1214(6)
O55_5 O 0.5125(5) 0.8210(5) 0.0789(5)
O56_5 O 0.5638(4) 0.8337(5) 0.1069(6)
O57_5 O 0.9880(5) 0.9043(5) 0.1771(6)
H95_5 H 0.600853 0.821261 0.0374583
H96_5 H 0.57191 0.802895 0.0222166
H101_5 H 0.895247 0.902169 0.108621
H104_5 H 0.96984 0.97072 0.228489
H105_5 H 0.999732 0.957672 0.209504
H107_5 H 0.990973 0.976635 0.0901463
Ti2_5 Ti 0.77497(11) 0.92519(14) 0.88037(16)
O1_5 O 0.7379(4) 0.9236(5) 0.9002(6)
O3_5 O 0.7957(4) 0.9212(5) 0.9221(5)
O6_5 O 0.7774(5) 0.9702(5) 0.8786(6)
O9_5 O 0.6443(4) 0.9745(5) 0.9741(6)
O24_5 O 0.7508(4) 0.8290(5) 0.8744(6)
O27_5 O 0.8616(5) 0.9152(6) 0.8441(6)
C1_5 C 0.8061(7) 0.9272(8) 0.9944(8)
H1_5 H 0.787160 0.927710 0.982100
C6_5 C 0.6889(7) 0.9116(8) 0.9232(9)
C15_5 C 0.6950(7) 0.8514(8) 0.8960(9)
H8_5 H 0.696467 0.830751 0.887194
C16_5 C 0.7153(7) 0.9031(8) 0.9062(9)
O32_5 O 0.7568(6) 0.9458(6) 0.7749(6)
C19_5 C 0.6406(7) 0.9782(8) 0.9402(10)
C23_5 C 0.8314(7) 0.9235(8) 0.9667(8)
C25_5 C 0.7502(7) 0.8581(9) 0.8798(9)
C31_5 C 0.7195(7) 0.8705(8) 0.8920(9)
C36_5 C 0.7699(7) 0.9925(8) 0.8587(10)
C49_5 C 0.8255(7) 0.9216(8) 0.9314(8)
C50_5 C 0.7582(7) 0.9527(9) 0.8082(9)
C60_5 C 0.8770(7) 0.9189(8) 0.9162(9)
H25_5 H 0.891998 0.917446 0.899315
C61_5 C 0.6208(4) 0.8454(4) 0.9353(6)
H26_5 H 0.605596 0.830615 0.937923
C62_5 C 0.6459(4) 0.8377(4) 0.9157(6)
H27_5 H 0.647461 0.817771 0.905130
C63_5 C 0.6686(4) 0.8598(5) 0.9118(6)
C64_5 C 0.6662(4) 0.8896(4) 0.9276(6)
C65_5 C 0.6411(4) 0.8972(4) 0.9472(6)
H28_5 H 0.639549 0.917172 0.957793
C66_5 C 0.6184(4) 0.8752(5) 0.9511(6)
H29_5 H 0.601640 0.880316 0.964255
C68_5 C 0.6624(7) 0.9637(8) 0.9170(9)
C72_5 C 0.6110(8) 0.9946(9) 0.8909(10)
C74_5 C 0.6861(7) 0.9466(8) 0.9323(9)
H35_5 H 0.684481 0.948467 0.957891
H36_5 H 0.704470 0.957045 0.925426
C86_5 C 0.8405(7) 0.9136(9) 0.8667(9)
C88_5 C 0.8477(7) 0.9187(8) 0.9052(9)
C89_5 C 0.7596(7) 0.9853(8) 0.8220(9)
C91_5 C 0.6122(7) 0.9907(9) 0.9277(10)
C95_5 C 0.6758(4) 0.9627(6) 0.8190(6)
H45_5 H 0.690717 0.955854 0.803686
C96_5 C 0.6496(5) 0.9750(6) 0.8054(5)
H46_5 H 0.646910 0.976464 0.781020
C97_5 C 0.6274(4) 0.9852(6) 0.8283(6)
H47_5 H 0.609818 0.993422 0.819261
C98_5 C 0.6314(4) 0.9830(6) 0.8648(6)
C99_5 C 0.6576(5) 0.9706(6) 0.8784(4)
C100_5 C 0.6799(4) 0.9605(6) 0.8555(6)
H48_5 H 0.697431 0.952204 0.864595
C107_5 C 0.7919(5) 0.8035(4) 0.9911(6)
H53_5 H 0.789215 0.782428 0.984401
C108_5 C 0.7913(5) 0.8274(5) 0.9656(4)
H54_5 H 0.788160 0.822326 0.941886
C109_5 C 0.7953(5) 0.8590(4) 0.9756(5)
H55_5 H 0.794907 0.874955 0.958548
C113_5 C 0.9144(4) 0.9234(6) 0.9610(5)
H57_5 H 0.928972 0.920717 0.943780
C114_5 C 0.8846(4) 0.9214(6) 0.9518(4)
C115_5 C 0.8629(3) 0.9254(6) 0.9776(5)
C118_5 C 0.9225(3) 0.9296(6) 0.9960(5)
H66_5 H 0.824904 0.994017 0.881137
C131_5 C 0.8686(5) 0.9955(4) 0.8690(7)
H67_5 H 0.870093 0.974601 0.861212
C145_5 C 0.4424(12) 0.9119(10) 0.9972(13)
H84_5 H 0.425871 0.913036 0.981259
H86_5 H 0.460561 0.912536 0.983839
H92_5 H 0.422461 0.853055 0.981340
O49_5 O 0.5380(11) 0.8664(13) 0.9762(14)
H102_5 H 0.554707 0.854527 0.96528
H103_5 H 0.519142 0.854912 0.971628
Ba2_6 Ba 0.45298(6) 0.12881(9) 0.04821(9)
Ba3_6 Ba 0.04996(7) 0.04665(7) 0.14993(12)
Ti1_6 Ti 0.18980(12) 0.03923(14) 0.10768(15)
Ti4_6 Ti 0.37188(11) 0.00783(15) 0.01625(19)
O2_6 O 0.1807(4) 0.0005(5) 0.0862(5)
O4_6 O 0.1869(4) 0.0634(5) 0.0661(5)
O5_6 O 0.3423(4) 0.0256(5) 0.0464(6)
O7_6 O 0.1922(5) 0.0229(5) 0.1573(5)
O16_6 O 0.1874(4) 0.0822(5) 0.1324(5)
O17_6 O 0.1464(5) 0.0393(5) 0.1187(6)
O18_6 O 0.2305(4) 0.0367(5) 0.1088(6)
O21_6 O 0.3951(5) 0.0460(6) 0.0297(6)
O23_6 O 0.4030(5) 0.0981(6) 0.0342(6)
O28_6 O 0.1862(5) 0.1344(5) 0.1417(6)
H2_6 H 0.191563 0.052689 0.006702
C4_6 C 0.1942(7) 0.1008(8) 0.0226(8)
C7_6 C 0.1916(7) 0.0929(8) 0.0582(8)
C12_6 C 0.1919(7) 0.1140(8) 0.0838(9)
C14_6 C 0.2870(7) 0.0320(8) 0.0791(9)
H6_6 H 0.268142 0.037356 0.068147
H7_6 H 0.294904 0.013734 0.066502
O30_6 O 0.4434(7) 0.0732(8) 0.0955(8)
O31_6 O 0.2091(5) 0.0220(6) 0.2121(6)
C21_6 C 0.2451(8) 0.0202(9) 0.1644(10)
C29_6 C 0.3080(7) 0.0597(8) 0.0740(9)
O35_6 O 0.0984(5) 0.0285(6) 0.1177(7)
O36_6 O 0.5116(8) 0.1041(9) 0.0452(10)
C48_6 C 0.2519(7) 0.0244(9) 0.1315(9)
C51_6 C 0.1883(7) 0.1110(9) 0.1229(9)
O40_6 O 0.0635(8) 0.0961(9) 0.1099(10)
C53_6 C 0.2687(4) 0.1297(5) 0.1130(6)
H20_6 H 0.250800 0.134339 0.124070
C54_6 C 0.2745(4) 0.0990(4) 0.1013(6)
H21_6 H 0.260441 0.083047 0.104507
C55_6 C 0.3013(5) 0.0921(4) 0.0847(6)
C56_6 C 0.3223(4) 0.1159(5) 0.0799(6)
C57_6 C 0.3165(4) 0.1466(4) 0.0916(6)
H22_6 H 0.330547 0.162525 0.088353
C58_6 C 0.2897(5) 0.1535(4) 0.1082(6)
H23_6 H 0.285854 0.174078 0.115993
N1_6 N 0.0899(10) 0.1315(11) 0.0747(12)
C67_6 C 0.3510(7) 0.1116(9) 0.0630(9)
H30_6 H 0.364558 0.128103 0.060279
C75_6 C 0.3564(7) 0.0802(8) 0.0510(10)
C76_6 C 0.3859(8) 0.0725(9) 0.0355(10)
C77_6 C 0.2668(8) 0.0082(9) 0.1908(10)
H37_6 H 0.261989 0.001879 0.213773
C78_6 C 0.2815(8) 0.0228(9) 0.1157(9)
N3_6 N 0.5578(11) 0.1182(9) 0.0160(12)
O44_6 O 0.4170(9) 0.1767(11) 0.0222(10)
C93_6 C 0.2140(8) 0.0206(9) 0.1802(10)
C94_6 C 0.1946(7) 0.1492(8) 0.0727(9)
H44_6 H 0.193010 0.165171 0.089734
C110_6 C 0.2000(5) 0.1334(4) 0.0110(5)
C111_6 C 0.1994(5) 0.1573(5) 0.0365(4)
C112_6 C 0.2034(5) 0.1888(4) 0.0265(5)
H56_6 H 0.202981 0.204842 0.043579
C116_6 C 0.1291(4) 0.0684(6) 0.0125(5)
H58_6 H 0.143610 0.065680 0.029736
C117_6 C 0.0993(4) 0.0663(6) 0.0217(4)
H59_6 H 0.093889 0.062205 0.045077
H60_6 H 0.057598 0.069006 0.002100
C119_6 C 0.3370(7) 0.0552(8) 0.0564(10)
C120_6 C 0.1243(8) 0.0186(9) 0.1122(10)
O45_6 O 0.4567(10) 0.0589(12) 0.0171(14)
C135_6 C 0.5365(14) 0.1209(15) 0.0372(16)
H73_6 H 0.538129 0.139133 0.051080
C137_6 C 0.0844(11) 0.1081(13) 0.0981(13)
C138_6 C 0.1192(10) 0.1396(12) 0.0677(13)
H77_6 H 0.131636 0.131650 0.086365
H78_6 H 0.120952 0.162333 0.066479
H79_6 H 0.125153 0.130442 0.045513
C140_6 C 0.2965(4) 0.0074(7) 0.1762(6)
C141_6 C 0.3035(4) 0.0120(6) 0.1407(6)
C142_6 C 0.3319(5) 0.0052(6) 0.1285(5)
H81_6 H 0.336599 0.008239 0.104678
H85_6 H 0.558179 0.070444 0.013289
C146_6 C 0.0692(12) 0.1502(14) 0.0558(15)
H87_6 H 0.057824 0.136776 0.040295
H88_6 H 0.079452 0.165926 0.042079
H89_6 H 0.056104 0.160520 0.072308
O47_6 O 0.0177(10) 0.0281(10) 0.2068(11)
O48_6 O 0.031(2) 0.022(2) 0.091(2)
C147_6 C 0.5808(12) 0.1409(14) 0.0056(15)
H90_6 H 0.579639 0.159475 0.020450
H91_6 H 0.600009 0.131405 0.007920
O50_6 O 0.0797(12) 0.0420(13) 0.2100(13)
Ba5_6 Ba 0.14938(6) 0.05735(6) 0.19329(9)
O52_6 O 0.4813(4) 0.1283(5) 0.1214(6)
O55_6 O 0.4875(5) 0.1790(5) 0.0789(5)
O56_6 O 0.4362(4) 0.1663(5) 0.1069(6)
O57_6 O 0.0120(5) 0.0957(5) 0.1771(6)
H95_6 H 0.399147 0.178739 0.0374583
H96_6 H 0.42809 0.197105 0.0222166
H101_6 H 0.104753 0.0978306 0.108621
H104_6 H 0.0301597 0.02928 0.228489
H105_6 H 0.00026838 0.0423278 0.209504
H107_6 H 0.00902724 0.0233653 0.0901463
Ti2_6 Ti 0.22503(11) 0.07481(14) 0.88037(16)
O1_6 O 0.2621(4) 0.0764(5) 0.9002(6)
O3_6 O 0.2043(4) 0.0788(5) 0.9221(5)
O6_6 O 0.2226(5) 0.0298(5) 0.8786(6)
O8_4 O 0.2313(4) 0.1217(5) 0.8714(6)
O9_6 O 0.3557(4) 0.0255(5) 0.9741(6)
O19_4 O 0.2375(5) 0.0710(5) 0.8289(5)
O22_4 O 0.1862(4) 0.0837(5) 0.8569(6)
O24_6 O 0.2492(4) 0.1710(5) 0.8744(6)
O27_6 O 0.1384(5) 0.0848(6) 0.8441(6)
C1_6 C 0.1939(7) 0.0728(8) 0.9944(8)
H1_6 H 0.212840 0.072290 0.982100
C6_6 C 0.3111(7) 0.0884(8) 0.9232(9)
C15_6 C 0.3050(7) 0.1486(8) 0.8960(9)
H8_6 H 0.303533 0.169249 0.887194
C16_6 C 0.2847(7) 0.0969(8) 0.9062(9)
O32_6 O 0.2432(6) 0.0542(6) 0.7749(6)
C19_6 C 0.3594(7) 0.0218(8) 0.9402(10)
C23_6 C 0.1686(7) 0.0765(8) 0.9667(8)
C25_6 C 0.2498(7) 0.1419(9) 0.8798(9)
C31_6 C 0.2805(7) 0.1295(8) 0.8920(9)
C36_6 C 0.2301(7) 0.0075(8) 0.8587(10)
C49_6 C 0.1745(7) 0.0784(8) 0.9314(8)
C50_6 C 0.2418(7) 0.0473(9) 0.8082(9)
C60_6 C 0.1230(7) 0.0811(8) 0.9162(9)
H25_6 H 0.108002 0.082554 0.899315
C61_6 C 0.3792(4) 0.1546(4) 0.9353(6)
H26_6 H 0.394404 0.169385 0.937923
C62_6 C 0.3541(4) 0.1623(4) 0.9157(6)
H27_6 H 0.352539 0.182229 0.905130
C63_6 C 0.3314(4) 0.1402(5) 0.9118(6)
C64_6 C 0.3338(4) 0.1104(4) 0.9276(6)
C65_6 C 0.3589(4) 0.1028(4) 0.9472(6)
H28_6 H 0.360451 0.082828 0.957793
C66_6 C 0.3816(4) 0.1248(5) 0.9511(6)
H29_6 H 0.398360 0.119684 0.964255
C68_6 C 0.3376(7) 0.0363(8) 0.9170(9)
C72_6 C 0.3890(8) 0.0054(9) 0.8909(10)
C74_6 C 0.3139(7) 0.0534(8) 0.9323(9)
H35_6 H 0.315519 0.051533 0.957891
H36_6 H 0.295530 0.042955 0.925426
C86_6 C 0.1595(7) 0.0864(9) 0.8667(9)
C88_6 C 0.1523(7) 0.0813(8) 0.9052(9)
C89_6 C 0.2404(7) 0.0147(8) 0.8220(9)
C91_6 C 0.3878(7) 0.0093(9) 0.9277(10)
C95_6 C 0.3242(4) 0.0373(6) 0.8190(6)
H45_6 H 0.309283 0.044146 0.803686
C96_6 C 0.3504(5) 0.0250(6) 0.8054(5)
H46_6 H 0.353090 0.023536 0.781020
C97_6 C 0.3726(4) 0.0148(6) 0.8283(6)
H47_6 H 0.390182 0.006578 0.819261
C98_6 C 0.3686(4) 0.0170(6) 0.8648(6)
C99_6 C 0.3424(5) 0.0294(6) 0.8784(4)
C100_6 C 0.3201(4) 0.0395(6) 0.8555(6)
H48_6 H 0.302569 0.047796 0.864595
C107_6 C 0.2081(5) 0.1965(4) 0.9911(6)
H53_6 H 0.210785 0.217572 0.984401
C108_6 C 0.2087(5) 0.1726(5) 0.9656(4)
H54_6 H 0.211840 0.177674 0.941886
C109_6 C 0.2047(5) 0.1410(4) 0.9756(5)
H55_6 H 0.205093 0.125045 0.958548
C113_6 C 0.0856(4) 0.0766(6) 0.9610(5)
H57_6 H 0.071028 0.079283 0.943780
C114_6 C 0.1154(4) 0.0786(6) 0.9518(4)
C115_6 C 0.1371(3) 0.0746(6) 0.9776(5)
C118_6 C 0.0775(3) 0.0704(6) 0.9960(5)
H66_6 H 0.175096 0.005983 0.881137
C131_6 C 0.1314(5) 0.0045(4) 0.8690(7)
H67_6 H 0.129907 0.025399 0.861212
C145_6 C 0.5576(12) 0.0881(10) 0.9972(13)
H84_6 H 0.574129 0.086964 0.981259
H86_6 H 0.539439 0.087464 0.983839
H92_6 H 0.577539 0.146945 0.981340
O49_6 O 0.4620(11) 0.1336(13) 0.9762(14)
Ba6_4 Ba 0.20298(6) 0.12119(9) 0.79821(9)
H102_6 H 0.445293 0.145473 0.96528
H103_6 H 0.480858 0.145088 0.971628
O10_6 O 0.3552(4) 0.9691(5) 0.0126(5)
O12_6 O 0.2121(4) 0.8947(5) 0.0084(6)
O14_6 O 0.3962(5) 0.9868(6) 0.0552(6)
C2_6 C 0.1584(7) 0.9803(8) 0.0806(9)
C3_6 C 0.2132(7) 0.8881(8) 0.0432(9)
C8_6 C 0.3757(7) 0.9052(8) 0.0727(9)
H5_6 H 0.389907 0.901771 0.090196
C9_6 C 0.1639(7) 0.9529(8) 0.0623(9)
C10_6 C 0.3548(7) 0.9388(8) 0.0302(9)
C11_6 C 0.3344(7) 0.9160(8) 0.0202(8)
C27_6 C 0.1281(7) 0.9896(9) 0.0940(9)
O33_6 O 0.4218(5) 0.9503(6) 0.0822(6)
C30_6 C 0.2059(7) 0.9124(8) 0.0658(9)
C32_6 C 0.2228(7) 0.8574(8) 0.0530(10)
O34_6 O 0.2347(6) 0.8052(6) 0.0450(7)
C33_6 C 0.3761(7) 0.9342(8) 0.0556(9)
C34_6 C 0.1064(7) 0.9695(8) 0.0866(9)
H10_6 H 0.087282 0.974594 0.093877
C37_6 C 0.2288(8) 0.8290(9) 0.0318(11)
C44_6 C 0.3994(8) 0.9584(9) 0.0649(10)
O37_6 O 0.1075(7) 0.8008(7) 0.0127(9)
C46_6 C 0.1949(7) 0.9437(8) 0.0517(9)
H16_6 H 0.195905 0.943088 0.026023
H17_6 H 0.208317 0.960295 0.059676
H19_6 H 0.294138 0.924458 0.000758
C71_6 C 0.2253(7) 0.8531(9) 0.0906(10)
H33_6 H 0.231819 0.833570 0.099128
N2_6 N 0.1019(9) 0.8101(10) 0.0699(11)
C80_6 C 0.0890(3) 0.8949(5) 0.0412(6)
H39_6 H 0.072468 0.882282 0.036541
C81_6 C 0.1166(4) 0.8863(4) 0.0279(6)
H40_6 H 0.118540 0.868018 0.014233
C82_6 C 0.1412(3) 0.9052(5) 0.0348(6)
H41_6 H 0.159676 0.899466 0.025904
C83_6 C 0.1383(3) 0.9326(5) 0.0552(6)
C84_6 C 0.1106(4) 0.9411(4) 0.0686(6)
C85_6 C 0.0860(3) 0.9223(5) 0.0616(6)
H42_6 H 0.067533 0.927994 0.070523
C101_6 C 0.3333(5) 0.8319(4) 0.0820(6)
H49_6 H 0.333108 0.813379 0.095385
C102_6 C 0.3561(4) 0.8539(5) 0.0863(5)
H50_6 H 0.371141 0.849968 0.102640
C103_6 C 0.3564(4) 0.8816(5) 0.0662(6)
C104_6 C 0.3340(5) 0.8874(4) 0.0418(5)
C105_6 C 0.3112(4) 0.8655(5) 0.0375(5)
H51_6 H 0.296168 0.869381 0.021128
C106_6 C 0.3109(4) 0.8378(5) 0.0575(6)
H52_6 H 0.295621 0.823085 0.054628
C121_6 C 0.2181(5) 0.8986(6) 0.1763(4)
H61_6 H 0.220815 0.895367 0.200475
C122_6 C 0.2099(5) 0.9284(5) 0.1637(5)
H62_6 H 0.207246 0.945161 0.179487
C123_6 C 0.2058(5) 0.9332(4) 0.1275(6)
H63_6 H 0.200385 0.953148 0.119121
C124_6 C 0.2098(5) 0.9081(5) 0.1039(4)
C125_6 C 0.2180(5) 0.8783(5) 0.1165(5)
C126_6 C 0.2221(5) 0.8735(4) 0.1527(6)
H64_6 H 0.227523 0.853559 0.161098
C133_6 C 0.0832(11) 0.8136(12) 0.1005(13)
H69_6 H 0.071332 0.832406 0.098010
H70_6 H 0.095313 0.815349 0.121357
H71_6 H 0.070543 0.795349 0.102537
C134_6 C 0.0910(12) 0.8027(12) 0.0390(13)
H72_6 H 0.070752 0.798781 0.036674
O46_6 O 0.0511(15) 0.9826(14) 0.1677(18)
C136_6 C 0.1353(11) 0.8158(12) 0.0704(14)
H74_6 H 0.139199 0.838049 0.074030
H75_6 H 0.143735 0.809229 0.048195
H76_6 H 0.144099 0.803782 0.089351
C139_6 C 0.3178(5) 0.9959(7) 0.1996(5)
H80_6 H 0.313122 0.992865 0.223337
C143_6 C 0.3532(4) 0.9937(7) 0.1518(6)
H82_6 H 0.372215 0.989075 0.143626
C144_6 C 0.3462(5) 0.9891(6) 0.1873(6)
H83_6 H 0.360477 0.981388 0.202955
H99_6 H 0.0695747 0.977832 0.181018
H100_6 H 0.0336437 0.977474 0.182712
H106_6 H 0.0371693 0.999357 0.0896809
Ti3_6 Ti 0.22466(12) 0.87488(14) 0.96632(18)
O11_6 O 0.1849(5) 0.8579(6) 0.9528(6)
O13_6 O 0.4069(5) 0.9969(6) 0.9852(7)
O15_6 O 0.2643(4) 0.8860(5) 0.9688(6)
O20_6 O 0.2128(4) 0.9090(5) 0.9367(6)
O25_6 O 0.2289(5) 0.8351(5) 0.9986(7)
C5_6 C 0.2173(7) 0.9681(8) 0.9049(9)
H3_6 H 0.214022 0.988027 0.917136
H4_6 H 0.232035 0.956412 0.918445
C13_6 C 0.3120(7) 0.8980(8) 0.9591(9)
C17_6 C 0.1629(7) 0.8997(9) 0.9220(10)
C18_6 C 0.2298(7) 0.9751(8) 0.8725(9)
C20_6 C 0.2898(7) 0.8573(8) 0.9261(9)
C22_6 C 0.1627(8) 0.8694(9) 0.9353(10)
C24_6 C 0.2570(7) 0.8963(9) 0.8368(9)
H9_6 H 0.259774 0.875741 0.845198
C26_6 C 0.1872(7) 0.9205(8) 0.9199(9)
C28_6 C 0.2907(7) 0.8801(8) 0.9505(9)
C35_6 C 0.4112(8) 0.9966(9) 0.9524(10)
C38_6 C 0.3680(4) 0.8647(5) 0.8950(5)
H11_6 H 0.368656 0.848370 0.878398
C39_6 C 0.3925(4) 0.8844(5) 0.8997(5)
H12_6 H 0.409526 0.881148 0.886220
C40_6 C 0.3915(4) 0.9088(5) 0.9244(6)
H13_6 H 0.407911 0.921986 0.927583
C41_6 C 0.3661(4) 0.9137(4) 0.9445(5)
H14_6 H 0.365427 0.930048 0.961124
C42_6 C 0.3416(3) 0.8940(5) 0.9399(5)
C43_6 C 0.3426(4) 0.8696(5) 0.9151(6)
C45_6 C 0.2642(7) 0.9034(8) 0.8017(9)
H15_6 H 0.269931 0.886869 0.786773
O38_6 O 0.1407(5) 0.8488(6) 0.9312(6)
C47_6 C 0.3139(7) 0.9224(8) 0.9908(8)
H18_6 H 0.319092 0.942978 0.980895
O39_6 O 0.4349(5) 0.9865(6) 0.9388(8)
C52_6 C 0.2523(7) 0.9594(8) 0.8122(9)
C59_6 C 0.3165(7) 0.8505(8) 0.9051(9)
H24_6 H 0.316963 0.835461 0.887024
C69_6 C 0.2503(7) 0.9891(8) 0.8001(10)
H31_6 H 0.255560 0.993288 0.776670
C70_6 C 0.2633(7) 0.9328(8) 0.7889(10)
H32_6 H 0.269341 0.936873 0.765744
H34_6 H 0.405071 0.993833 0.882325
C73_6 C 0.1900(7) 0.9502(8) 0.9066(10)
C79_6 C 0.1358(8) 0.9114(9) 0.9073(10)
H38_6 H 0.118607 0.899197 0.907575
O42_6 O 0.0667(12) 0.8561(12) 0.9645(9)
O43_6 O 0.4729(8) 0.9849(9) 0.9945(13)
C87_6 C 0.2646(7) 0.8397(9) 0.9139(9)
C90_6 C 0.2433(7) 0.9513(8) 0.8484(9)
C92_6 C 0.2455(7) 0.9200(8) 0.8602(10)
H43_6 H 0.239552 0.914618 0.883040
C127_6 C 0.1089(4) 0.9536(5) 0.8805(7)
H65_6 H 0.092305 0.940451 0.880303
C128_6 C 0.1360(5) 0.9420(4) 0.8924(7)
C129_6 C 0.1608(4) 0.9616(5) 0.8927(7)
C130_6 C 0.1585(4) 0.9928(5) 0.8810(7)
C132_6 C 0.1066(4) 0.9848(6) 0.8688(7)
H68_6 H 0.088511 0.992633 0.860795
H93_6 H 0.0789269 0.871352 0.978313
H94_6 H 0.0582743 0.867016 0.943418
H97_6 H 0.460439 0.992138 0.974329
H98_6 H 0.493761 0.991561 0.990497
O58_6 O 0.9847(5) 0.0663(6) 0.1409(6)
Ti1_7 Ti 0.06020(12) 0.28923(14) 0.35768(15)
Ti2_7 Ti 0.02497(11) 0.32481(14) 0.13037(16)
Ti3_7 Ti 0.02534(12) 0.12488(14) 0.21632(18)
O2_7 O 0.0693(4) 0.2505(5) 0.3362(5)
O3_7 O 0.0457(4) 0.3288(5) 0.1721(5)
O4_7 O 0.0631(4) 0.3134(5) 0.3161(5)
O6_7 O 0.0274(5) 0.2798(5) 0.1286(6)
O8_5 O 0.0187(4) 0.3717(5) 0.1214(6)
O11_7 O 0.0651(5) 0.1079(6) 0.2028(6)
O12_7 O 0.0379(4) 0.1447(5) 0.2584(6)
O18_7 O 0.0195(4) 0.2867(5) 0.3588(6)
O19_5 O 0.0125(5) 0.3210(5) 0.0789(5)
O20_7 O 0.0372(4) 0.1590(5) 0.1867(6)
O22_5 O 0.0638(4) 0.3337(5) 0.1069(6)
O24_7 O 0.0008(4) 0.4210(5) 0.1244(6)
O25_7 O 0.0211(5) 0.0851(5) 0.2486(7)
O27_7 O 0.1116(5) 0.3348(6) 0.0941(6)
O28_7 O 0.0638(5) 0.3844(5) 0.3917(6)
C1_7 C 0.0561(7) 0.3228(8) 0.2444(8)
H1_7 H 0.037160 0.322290 0.232100
H2_7 H 0.058437 0.302689 0.256702
C2_7 C 0.0916(7) 0.2303(8) 0.3306(9)
C3_7 C 0.0368(7) 0.1381(8) 0.2932(9)
C4_7 C 0.0558(7) 0.3508(8) 0.2726(8)
C5_7 C 0.0327(7) 0.2181(8) 0.1549(9)
H3_7 H 0.035978 0.238027 0.167136
H4_7 H 0.017965 0.206412 0.168445
C7_7 C 0.0584(7) 0.3429(8) 0.3082(8)
C9_7 C 0.0861(7) 0.2029(8) 0.3123(9)
C12_7 C 0.0581(7) 0.3640(8) 0.3338(9)
C17_7 C 0.0871(7) 0.1497(9) 0.1720(10)
O32_7 O 0.0068(6) 0.3042(6) 0.0249(6)
C18_7 C 0.0202(7) 0.2251(8) 0.1225(9)
C21_7 C 0.0049(8) 0.2702(9) 0.4144(10)
C22_7 C 0.0873(8) 0.1194(9) 0.1853(10)
C23_7 C 0.0814(7) 0.3265(8) 0.2167(8)
C25_7 C 0.0002(7) 0.3919(9) 0.1298(9)
C26_7 C 0.0628(7) 0.1705(8) 0.1699(9)
C27_7 C 0.1219(7) 0.2396(9) 0.3440(9)
C30_7 C 0.0441(7) 0.1624(8) 0.3158(9)
C32_7 C 0.0272(7) 0.1074(8) 0.3030(10)
O34_7 O 0.0153(6) 0.0552(6) 0.2950(7)
C34_7 C 0.1436(7) 0.2195(8) 0.3366(9)
H10_7 H 0.162718 0.224594 0.343877
C36_7 C 0.0199(7) 0.2575(8) 0.1087(10)
C37_7 C 0.0212(8) 0.0790(9) 0.2818(11)
O35_7 O 0.1516(5) 0.2785(6) 0.3677(7)
O37_7 O 0.1425(7) 0.0508(7) 0.2627(9)
O38_7 O 0.1093(5) 0.0988(6) 0.1812(6)
C46_7 C 0.0551(7) 0.1937(8) 0.3017(9)
H16_7 H 0.054095 0.193088 0.276023
H17_7 H 0.041683 0.210295 0.309676
C49_7 C 0.0755(7) 0.3284(8) 0.1814(8)
C50_7 C 0.0082(7) 0.2973(9) 0.0582(9)
C51_7 C 0.0617(7) 0.3610(9) 0.3729(9)
O40_7 O 0.1865(8) 0.3461(9) 0.3599(10)
N1_7 N 0.1601(10) 0.3815(11) 0.3247(12)
C60_7 C 0.1270(7) 0.3311(8) 0.1662(9)
H25_7 H 0.141998 0.332554 0.149315
C71_7 C 0.0247(7) 0.1031(9) 0.3406(10)
H33_7 H 0.018181 0.083570 0.349128
N2_7 N 0.1481(9) 0.0601(10) 0.3199(11)
C73_7 C 0.0600(7) 0.2002(8) 0.1566(10)
C79_7 C 0.1142(8) 0.1614(9) 0.1573(10)
H38_7 H 0.131393 0.149197 0.157575
C80_7 C 0.1610(3) 0.1449(5) 0.2912(6)
H39_7 H 0.177532 0.132282 0.286541
C81_7 C 0.1334(4) 0.1363(4) 0.2779(6)
H40_7 H 0.131460 0.118018 0.264233
C82_7 C 0.1088(3) 0.1552(5) 0.2848(6)
H41_7 H 0.090324 0.149466 0.275904
C83_7 C 0.1117(3) 0.1826(5) 0.3052(6)
C84_7 C 0.1394(4) 0.1911(4) 0.3186(6)
C85_7 C 0.1640(3) 0.1723(5) 0.3116(6)
H42_7 H 0.182467 0.177994 0.320523
O42_7 O 0.1833(12) 0.1061(12) 0.2145(9)
C86_7 C 0.0905(7) 0.3364(9) 0.1167(9)
C88_7 C 0.0977(7) 0.3313(8) 0.1552(9)
C89_7 C 0.0096(7) 0.2647(8) 0.0720(9)
C90_7 C 0.0067(7) 0.2013(8) 0.0984(9)
C92_7 C 0.0045(7) 0.1700(8) 0.1102(10)
H43_7 H 0.010448 0.164618 0.133040
C93_7 C 0.0360(8) 0.2706(9) 0.4302(10)
C94_7 C 0.0554(7) 0.3992(8) 0.3227(9)
H44_7 H 0.056990 0.415171 0.339734
C107_7 C 0.0419(5) 0.4465(4) 0.2411(6)
H53_7 H 0.039215 0.467572 0.234401
C108_7 C 0.0413(5) 0.4226(5) 0.2156(4)
H54_7 H 0.038160 0.427674 0.191886
C109_7 C 0.0453(5) 0.3910(4) 0.2256(5)
H55_7 H 0.044907 0.375045 0.208548
C110_7 C 0.0500(5) 0.3834(4) 0.2610(5)
C111_7 C 0.0506(5) 0.4073(5) 0.2865(4)
C112_7 C 0.0466(5) 0.4388(4) 0.2765(5)
H56_7 H 0.047019 0.454842 0.293579
C113_7 C 0.1644(4) 0.3266(6) 0.2110(5)
H57_7 H 0.178972 0.329283 0.193780
C114_7 C 0.1346(4) 0.3286(6) 0.2018(4)
C115_7 C 0.1129(3) 0.3246(6) 0.2276(5)
C116_7 C 0.1209(4) 0.3184(6) 0.2625(5)
H58_7 H 0.106390 0.315680 0.279736
C117_7 C 0.1507(4) 0.3163(6) 0.2717(4)
H59_7 H 0.156111 0.312205 0.295077
C118_7 C 0.1725(3) 0.3204(6) 0.2460(5)
H60_7 H 0.192402 0.319006 0.252100
C120_7 C 0.1257(8) 0.2686(9) 0.3622(10)
C121_7 C 0.0319(5) 0.1486(6) 0.4263(4)
H61_7 H 0.029185 0.145367 0.450475
C122_7 C 0.0401(5) 0.1784(5) 0.4137(5)
H62_7 H 0.042754 0.195161 0.429487
C123_7 C 0.0442(5) 0.1832(4) 0.3775(6)
H63_7 H 0.049615 0.203148 0.369121
C124_7 C 0.0402(5) 0.1581(5) 0.3539(4)
C125_7 C 0.0320(5) 0.1283(5) 0.3665(5)
C126_7 C 0.0279(5) 0.1235(4) 0.4027(6)
H64_7 H 0.022477 0.103559 0.411098
C127_7 C 0.1411(4) 0.2036(5) 0.1305(7)
H65_7 H 0.157695 0.190451 0.130303
C128_7 C 0.1140(5) 0.1920(4) 0.1424(7)
C129_7 C 0.0892(4) 0.2116(5) 0.1427(7)
C130_7 C 0.0915(4) 0.2428(5) 0.1310(7)
H66_7 H 0.074904 0.255983 0.131137
C131_7 C 0.1186(5) 0.2545(4) 0.1190(7)
H67_7 H 0.120093 0.275399 0.111212
C132_7 C 0.1434(4) 0.2348(6) 0.1188(7)
H68_7 H 0.161489 0.242633 0.110795
C133_7 C 0.1668(11) 0.0636(12) 0.3505(13)
H69_7 H 0.178668 0.082406 0.348010
H70_7 H 0.154687 0.065349 0.371357
H71_7 H 0.179457 0.045349 0.352537
C134_7 C 0.1590(12) 0.0527(12) 0.2890(13)
H72_7 H 0.179248 0.048781 0.286674
O46_7 O 0.1989(15) 0.2326(14) 0.4177(18)
C136_7 C 0.1147(11) 0.0658(12) 0.3204(14)
H74_7 H 0.110801 0.088049 0.324030
H75_7 H 0.106265 0.059229 0.298195
H76_7 H 0.105901 0.053782 0.339351
C137_7 C 0.1656(11) 0.3581(13) 0.3481(13)
C138_7 C 0.1308(10) 0.3896(12) 0.3177(13)
H77_7 H 0.118364 0.381650 0.336365
H78_7 H 0.129048 0.412333 0.316479
H79_7 H 0.124847 0.380442 0.295513
C146_7 C 0.1808(12) 0.4002(14) 0.3058(15)
H87_7 H 0.192176 0.386776 0.290295
H88_7 H 0.170548 0.415926 0.292079
H89_7 H 0.193896 0.410520 0.322308
O47_7 O 0.2323(10) 0.2781(10) 0.4568(11)
O48_7 O 0.219(2) 0.272(2) 0.341(2)
Ba6_5 Ba 0.04702(6) 0.37119(9) 0.04821(9)
H93_7 H 0.171073 0.121352 0.228313
H94_7 H 0.191726 0.117016 0.193418
H99_7 H 0.180425 0.227832 0.431018
H100_7 H 0.216356 0.227474 0.432712
H101_7 H 0.145247 0.347831 0.358621
H104_7 H 0.21984 0.27928 0.478489
H105_7 H 0.249732 0.292328 0.459504
H106_7 H 0.212831 0.249357 0.339681
H107_7 H 0.240973 0.273365 0.340146
Ba4_4 Ba 0.79900(8) 0.26332(11) 0.3104(2)
Ti4_7 Ti 0.87812(11) 0.25783(15) 0.26625(19)
O1_7 O 0.9879(4) 0.3264(5) 0.1502(6)
O5_7 O 0.9077(4) 0.2756(5) 0.2964(6)
O9_7 O 0.8943(4) 0.2755(5) 0.2241(6)
O10_7 O 0.8948(4) 0.2191(5) 0.2626(5)
O13_7 O 0.8431(5) 0.2469(6) 0.2352(7)
O14_7 O 0.8538(5) 0.2368(6) 0.3052(6)
O15_7 O 0.9857(4) 0.1360(5) 0.2188(6)
O21_7 O 0.8549(5) 0.2960(6) 0.2797(6)
O23_7 O 0.8470(5) 0.3481(6) 0.2842(6)
C6_7 C 0.9389(7) 0.3384(8) 0.1732(9)
C8_7 C 0.8743(7) 0.1552(8) 0.3227(9)
H5_7 H 0.860093 0.151771 0.340196
C10_7 C 0.8952(7) 0.1888(8) 0.2802(9)
C11_7 C 0.9156(7) 0.1660(8) 0.2702(8)
C13_7 C 0.9380(7) 0.1480(8) 0.2091(9)
C14_7 C 0.9630(7) 0.2820(8) 0.3291(9)
H6_7 H 0.981858 0.287356 0.318147
H7_7 H 0.955096 0.263734 0.316502
C15_7 C 0.9450(7) 0.3986(8) 0.1460(9)
H8_7 H 0.946467 0.419249 0.137194
O30_7 O 0.8066(7) 0.3232(8) 0.3455(8)
C16_7 C 0.9653(7) 0.3469(8) 0.1562(9)
C19_7 C 0.8906(7) 0.2718(8) 0.1902(10)
C20_7 C 0.9602(7) 0.1073(8) 0.1761(9)
C24_7 C 0.9930(7) 0.1463(9) 0.0868(9)
H9_7 H 0.990226 0.125741 0.095198
C28_7 C 0.9593(7) 0.1301(8) 0.2005(9)
C29_7 C 0.9420(7) 0.3097(8) 0.3240(9)
O33_7 O 0.8282(5) 0.2003(6) 0.3322(6)
C31_7 C 0.9695(7) 0.3795(8) 0.1420(9)
C33_7 C 0.8739(7) 0.1842(8) 0.3056(9)
C35_7 C 0.8388(8) 0.2466(9) 0.2024(10)
C38_7 C 0.8820(4) 0.1147(5) 0.1450(5)
H11_7 H 0.881344 0.098370 0.128398
C39_7 C 0.8575(4) 0.1344(5) 0.1497(5)
H12_7 H 0.840474 0.131148 0.136220
C40_7 C 0.8585(4) 0.1588(5) 0.1744(6)
H13_7 H 0.842089 0.171986 0.177583
C41_7 C 0.8839(4) 0.1637(4) 0.1945(5)
H14_7 H 0.884573 0.180048 0.211124
C42_7 C 0.9084(3) 0.1440(5) 0.1899(5)
C43_7 C 0.9074(4) 0.1196(5) 0.1651(6)
O36_7 O 0.7384(8) 0.3541(9) 0.2952(10)
C44_7 C 0.8506(8) 0.2084(9) 0.3149(10)
C45_7 C 0.9858(7) 0.1534(8) 0.0517(9)
H15_7 H 0.980069 0.136869 0.036773
C47_7 C 0.9361(7) 0.1724(8) 0.2408(8)
H18_7 H 0.930908 0.192978 0.230895
H19_7 H 0.955862 0.174458 0.250758
O39_7 O 0.8151(5) 0.2365(6) 0.1888(8)
C48_7 C 0.9981(7) 0.2744(9) 0.3815(9)
C52_7 C 0.9977(7) 0.2094(8) 0.0622(9)
C53_7 C 0.9813(4) 0.3797(5) 0.3630(6)
H20_7 H 0.999200 0.384339 0.374070
C54_7 C 0.9755(4) 0.3490(4) 0.3513(6)
H21_7 H 0.989559 0.333047 0.354507
C55_7 C 0.9487(5) 0.3421(4) 0.3347(6)
C56_7 C 0.9277(4) 0.3659(5) 0.3299(6)
C57_7 C 0.9335(4) 0.3966(4) 0.3416(6)
H22_7 H 0.919453 0.412525 0.338353
C58_7 C 0.9603(5) 0.4035(4) 0.3582(6)
H23_7 H 0.964146 0.424078 0.365993
C59_7 C 0.9335(7) 0.1005(8) 0.1551(9)
H24_7 H 0.933037 0.085461 0.137024
C61_7 C 0.8708(4) 0.4046(4) 0.1853(6)
H26_7 H 0.855596 0.419385 0.187923
C62_7 C 0.8959(4) 0.4123(4) 0.1657(6)
H27_7 H 0.897461 0.432229 0.155130
C63_7 C 0.9186(4) 0.3902(5) 0.1618(6)
C64_7 C 0.9162(4) 0.3604(4) 0.1776(6)
C65_7 C 0.8911(4) 0.3528(4) 0.1972(6)
H28_7 H 0.889549 0.332828 0.207793
C66_7 C 0.8684(4) 0.3748(5) 0.2011(6)
H29_7 H 0.851640 0.369684 0.214255
C67_7 C 0.8990(7) 0.3616(9) 0.3130(9)
H30_7 H 0.885442 0.378103 0.310279
C68_7 C 0.9124(7) 0.2863(8) 0.1670(9)
C69_7 C 0.9997(7) 0.2391(8) 0.0501(10)
H31_7 H 0.994440 0.243288 0.026670
C70_7 C 0.9867(7) 0.1828(8) 0.0389(10)
H32_7 H 0.980659 0.186873 0.015744
C72_7 C 0.8610(8) 0.2554(9) 0.1409(10)
H34_7 H 0.844929 0.243833 0.132325
C74_7 C 0.9361(7) 0.3034(8) 0.1823(9)
H35_7 H 0.934481 0.301533 0.207891
H36_7 H 0.954470 0.292955 0.175426
C75_7 C 0.8936(7) 0.3302(8) 0.3010(10)
C76_7 C 0.8641(8) 0.3225(9) 0.2855(10)
C77_7 C 0.9832(8) 0.2582(9) 0.4408(10)
H37_7 H 0.988011 0.251879 0.463773
O41_4 O 0.7410(7) 0.2899(8) 0.3209(8)
C78_7 C 0.9685(8) 0.2728(9) 0.3657(9)
O43_7 O 0.7771(8) 0.2349(9) 0.2445(13)
N3_7 N 0.6922(11) 0.3682(9) 0.2660(12)
C87_7 C 0.9854(7) 0.0897(9) 0.1639(9)
C91_7 C 0.8622(7) 0.2593(9) 0.1777(10)
O44_7 O 0.8330(9) 0.4267(11) 0.2722(10)
C95_7 C 0.9258(4) 0.2873(6) 0.0690(6)
H45_7 H 0.940717 0.294146 0.053686
C96_7 C 0.8996(5) 0.2750(6) 0.0554(5)
H46_7 H 0.896910 0.273536 0.031020
C97_7 C 0.8774(4) 0.2648(6) 0.0783(6)
H47_7 H 0.859818 0.256578 0.069261
C98_7 C 0.8814(4) 0.2670(6) 0.1148(6)
C99_7 C 0.9076(5) 0.2794(6) 0.1284(4)
C100_7 C 0.9299(4) 0.2895(6) 0.1055(6)
H48_7 H 0.947431 0.297796 0.114595
C101_7 C 0.9167(5) 0.0819(4) 0.3320(6)
H49_7 H 0.916892 0.063379 0.345385
C102_7 C 0.8939(4) 0.1039(5) 0.3363(5)
H50_7 H 0.878859 0.099968 0.352640
C103_7 C 0.8936(4) 0.1316(5) 0.3162(6)
C104_7 C 0.9160(5) 0.1374(4) 0.2918(5)
C105_7 C 0.9388(4) 0.1155(5) 0.2875(5)
H51_7 H 0.953832 0.119381 0.271128
C106_7 C 0.9391(4) 0.0878(5) 0.3075(6)
H52_7 H 0.954379 0.073085 0.304628
C119_7 C 0.9130(7) 0.3052(8) 0.3064(10)
O45_7 O 0.7933(10) 0.3089(12) 0.2671(14)
C135_7 C 0.7135(14) 0.3709(15) 0.2872(16)
H73_7 H 0.711871 0.389133 0.301080
C139_7 C 0.9322(5) 0.2459(7) 0.4496(5)
H80_7 H 0.936878 0.242865 0.473337
C140_7 C 0.9535(4) 0.2574(7) 0.4262(6)
C141_7 C 0.9465(4) 0.2620(6) 0.3907(6)
C142_7 C 0.9181(5) 0.2552(6) 0.3785(5)
H81_7 H 0.913401 0.258239 0.354678
C143_7 C 0.8968(4) 0.2437(7) 0.4018(6)
H82_7 H 0.877785 0.239075 0.393626
C144_7 C 0.9038(5) 0.2391(6) 0.4373(6)
H83_7 H 0.889523 0.231388 0.452955
C145_7 C 0.6924(12) 0.3381(10) 0.2472(13)
H84_7 H 0.675871 0.336964 0.231259
H85_7 H 0.691821 0.320444 0.263289
H86_7 H 0.710561 0.337464 0.233839
C147_7 C 0.6692(12) 0.3909(14) 0.2556(15)
H90_7 H 0.670361 0.409475 0.270450
H91_7 H 0.649991 0.381405 0.257920
H92_7 H 0.672461 0.396945 0.231340
O49_7 O 0.7880(11) 0.3836(13) 0.2262(14)
Ba8_4 Ba 0.70100(8) 0.23668(11) 0.3104(2)
O60_4 O 0.7590(7) 0.2101(8) 0.3209(8)
H95_7 H 0.850853 0.428739 0.287458
H96_7 H 0.82191 0.447105 0.272217
H97_7 H 0.789561 0.242138 0.224329
H98_7 H 0.756239 0.241561 0.240497
H102_7 H 0.804707 0.395473 0.21528
H103_7 H 0.769142 0.395088 0.221628
Ba1_5 Ba 0.35062(6) 0.44265(6) 0.19329(9)
Ba2_7 Ba 0.70298(6) 0.12119(9) 0.29821(9)
Ba3_7 Ba 0.29996(7) 0.20335(7) 0.39993(12)
Ti1_8 Ti 0.43980(12) 0.21077(14) 0.35768(15)
Ti2_8 Ti 0.47503(11) 0.17519(14) 0.13037(16)
Ti3_8 Ti 0.47466(12) 0.37512(14) 0.21632(18)
Ti4_8 Ti 0.62188(11) 0.24217(15) 0.26625(19)
O1_8 O 0.5121(4) 0.1736(5) 0.1502(6)
O2_8 O 0.4307(4) 0.2495(5) 0.3362(5)
O3_8 O 0.4543(4) 0.1712(5) 0.1721(5)
O4_8 O 0.4369(4) 0.1866(5) 0.3161(5)
O5_8 O 0.5923(4) 0.2244(5) 0.2964(6)
O6_8 O 0.4726(5) 0.2202(5) 0.1286(6)
O7_7 O 0.4422(5) 0.2271(5) 0.4073(5)
O9_8 O 0.6057(4) 0.2245(5) 0.2241(6)
O10_8 O 0.6052(4) 0.2809(5) 0.2626(5)
O11_8 O 0.4349(5) 0.3921(6) 0.2028(6)
O12_8 O 0.4621(4) 0.3553(5) 0.2584(6)
O13_8 O 0.6569(5) 0.2531(6) 0.2352(7)
O14_8 O 0.6462(5) 0.2632(6) 0.3052(6)
O15_8 O 0.5143(4) 0.3640(5) 0.2188(6)
O16_7 O 0.4374(4) 0.1678(5) 0.3824(5)
O17_7 O 0.3964(5) 0.2107(5) 0.3687(6)
O18_8 O 0.4805(4) 0.2133(5) 0.3588(6)
O20_8 O 0.4628(4) 0.3410(5) 0.1867(6)
O21_8 O 0.6451(5) 0.2040(6) 0.2797(6)
O23_8 O 0.6530(5) 0.1519(6) 0.2842(6)
O24_8 O 0.4992(4) 0.0790(5) 0.1244(6)
O25_8 O 0.4789(5) 0.4149(5) 0.2486(7)
O26_5 O 0.4880(5) 0.4043(5) 0.1771(6)
O27_8 O 0.3884(5) 0.1652(6) 0.0941(6)
O28_8 O 0.4362(5) 0.1156(5) 0.3917(6)
C1_8 C 0.4439(7) 0.1772(8) 0.2444(8)
H1_8 H 0.462840 0.177710 0.232100
H2_8 H 0.441563 0.197311 0.256702
C2_8 C 0.4084(7) 0.2697(8) 0.3306(9)
C3_8 C 0.4632(7) 0.3619(8) 0.2932(9)
C4_8 C 0.4442(7) 0.1492(8) 0.2726(8)
O29_5 O 0.5153(5) 0.4337(6) 0.1409(6)
C5_8 C 0.4673(7) 0.2819(8) 0.1549(9)
H3_8 H 0.464022 0.261973 0.167136
H4_8 H 0.482035 0.293588 0.168445
C6_8 C 0.5611(7) 0.1616(8) 0.1732(9)
C7_8 C 0.4416(7) 0.1571(8) 0.3082(8)
C8_8 C 0.6257(7) 0.3448(8) 0.3227(9)
H5_8 H 0.639907 0.348229 0.340196
C9_8 C 0.4139(7) 0.2971(8) 0.3123(9)
C10_8 C 0.6048(7) 0.3112(8) 0.2802(9)
C11_8 C 0.5844(7) 0.3340(8) 0.2702(8)
C12_8 C 0.4419(7) 0.1360(8) 0.3338(9)
C13_8 C 0.5620(7) 0.3520(8) 0.2091(9)
C14_8 C 0.5370(7) 0.2180(8) 0.3291(9)
H6_8 H 0.518142 0.212644 0.318147
H7_8 H 0.544904 0.236266 0.316502
C15_8 C 0.5550(7) 0.1014(8) 0.1460(9)
H8_8 H 0.553533 0.080751 0.137194
O30_8 O 0.6934(7) 0.1768(8) 0.3455(8)
C16_8 C 0.5347(7) 0.1531(8) 0.1562(9)
C17_8 C 0.4129(7) 0.3503(9) 0.1720(10)
O31_7 O 0.4591(5) 0.2280(6) 0.4621(6)
O32_8 O 0.4932(6) 0.1958(6) 0.0249(6)
C18_8 C 0.4798(7) 0.2749(8) 0.1225(9)
C19_8 C 0.6094(7) 0.2282(8) 0.1902(10)
C20_8 C 0.5398(7) 0.3927(8) 0.1761(9)
C21_8 C 0.4951(8) 0.2298(9) 0.4144(10)
C22_8 C 0.4127(8) 0.3806(9) 0.1853(10)
C23_8 C 0.4186(7) 0.1735(8) 0.2167(8)
C24_8 C 0.5070(7) 0.3537(9) 0.0868(9)
H9_8 H 0.509774 0.374259 0.095198
C25_8 C 0.4998(7) 0.1081(9) 0.1298(9)
C26_8 C 0.4372(7) 0.3295(8) 0.1699(9)
C27_8 C 0.3781(7) 0.2604(9) 0.3440(9)
C28_8 C 0.5407(7) 0.3699(8) 0.2005(9)
C29_8 C 0.5580(7) 0.1903(8) 0.3240(9)
O33_8 O 0.6718(5) 0.2997(6) 0.3322(6)
C30_8 C 0.4559(7) 0.3376(8) 0.3158(9)
C31_8 C 0.5305(7) 0.1205(8) 0.1420(9)
C32_8 C 0.4728(7) 0.3926(8) 0.3030(10)
O34_8 O 0.4847(6) 0.4448(6) 0.2950(7)
C33_8 C 0.6261(7) 0.3158(8) 0.3056(9)
C34_8 C 0.3564(7) 0.2805(8) 0.3366(9)
H10_8 H 0.337282 0.275406 0.343877
C35_8 C 0.6612(8) 0.2534(9) 0.2024(10)
C36_8 C 0.4801(7) 0.2425(8) 0.1087(10)
C37_8 C 0.4788(8) 0.4210(9) 0.2818(11)
O35_8 O 0.3484(5) 0.2215(6) 0.3677(7)
C38_8 C 0.6180(4) 0.3853(5) 0.1450(5)
H11_8 H 0.618656 0.401630 0.128398
C39_8 C 0.6425(4) 0.3656(5) 0.1497(5)
H12_8 H 0.659526 0.368852 0.136220
C40_8 C 0.6415(4) 0.3412(5) 0.1744(6)
H13_8 H 0.657911 0.328014 0.177583
C41_8 C 0.6161(4) 0.3363(4) 0.1945(5)
H14_8 H 0.615427 0.319952 0.211124
C42_8 C 0.5916(3) 0.3560(5) 0.1899(5)
C43_8 C 0.5926(4) 0.3804(5) 0.1651(6)
O36_8 O 0.7616(8) 0.1459(9) 0.2952(10)
C44_8 C 0.6494(8) 0.2916(9) 0.3149(10)
C45_8 C 0.5142(7) 0.3466(8) 0.0517(9)
H15_8 H 0.519931 0.363131 0.036773
O37_8 O 0.3575(7) 0.4492(7) 0.2627(9)
O38_8 O 0.3907(5) 0.4012(6) 0.1812(6)
C46_8 C 0.4449(7) 0.3063(8) 0.3017(9)
H16_8 H 0.445905 0.306912 0.276023
H17_8 H 0.458317 0.289705 0.309676
C47_8 C 0.5639(7) 0.3276(8) 0.2408(8)
H18_8 H 0.569092 0.307022 0.230895
H19_8 H 0.544138 0.325542 0.250758
O39_8 O 0.6849(5) 0.2635(6) 0.1888(8)
C48_8 C 0.5019(7) 0.2256(9) 0.3815(9)
C49_8 C 0.4245(7) 0.1716(8) 0.1814(8)
C50_8 C 0.4918(7) 0.2027(9) 0.0582(9)
C51_8 C 0.4383(7) 0.1390(9) 0.3729(9)
O40_8 O 0.3135(8) 0.1539(9) 0.3599(10)
C52_8 C 0.5023(7) 0.2906(8) 0.0622(9)
C53_8 C 0.5187(4) 0.1203(5) 0.3630(6)
H20_8 H 0.500800 0.115661 0.374070
C54_8 C 0.5245(4) 0.1510(4) 0.3513(6)
H21_8 H 0.510441 0.166953 0.354507
C55_8 C 0.5513(5) 0.1579(4) 0.3347(6)
C56_8 C 0.5723(4) 0.1341(5) 0.3299(6)
C57_8 C 0.5665(4) 0.1034(4) 0.3416(6)
H22_8 H 0.580547 0.087475 0.338353
C58_8 C 0.5397(5) 0.0965(4) 0.3582(6)
H23_8 H 0.535854 0.075922 0.365993
N1_8 N 0.3399(10) 0.1185(11) 0.3247(12)
C59_8 C 0.5665(7) 0.3995(8) 0.1551(9)
H24_8 H 0.566963 0.414539 0.137024
C60_8 C 0.3730(7) 0.1689(8) 0.1662(9)
H25_8 H 0.358002 0.167446 0.149315
C61_8 C 0.6292(4) 0.0954(4) 0.1853(6)
H26_8 H 0.644404 0.080615 0.187923
C62_8 C 0.6041(4) 0.0877(4) 0.1657(6)
H27_8 H 0.602539 0.067771 0.155130
C63_8 C 0.5814(4) 0.1098(5) 0.1618(6)
C64_8 C 0.5838(4) 0.1396(4) 0.1776(6)
C65_8 C 0.6089(4) 0.1472(4) 0.1972(6)
H28_8 H 0.610451 0.167172 0.207793
C66_8 C 0.6316(4) 0.1252(5) 0.2011(6)
H29_8 H 0.648360 0.130316 0.214255
C67_8 C 0.6010(7) 0.1384(9) 0.3130(9)
H30_8 H 0.614558 0.121897 0.310279
C68_8 C 0.5876(7) 0.2137(8) 0.1670(9)
C69_8 C 0.5003(7) 0.2609(8) 0.0501(10)
H31_8 H 0.505560 0.256712 0.026670
C70_8 C 0.5133(7) 0.3172(8) 0.0389(10)
H32_8 H 0.519341 0.313127 0.015744
C71_8 C 0.4753(7) 0.3969(9) 0.3406(10)
H33_8 H 0.481819 0.416430 0.349128
C72_8 C 0.6390(8) 0.2446(9) 0.1409(10)
H34_8 H 0.655071 0.256167 0.132325
N2_8 N 0.3519(9) 0.4399(10) 0.3199(11)
C73_8 C 0.4400(7) 0.2998(8) 0.1566(10)
C74_8 C 0.5639(7) 0.1966(8) 0.1823(9)
H35_8 H 0.565519 0.198467 0.207891
H36_8 H 0.545530 0.207045 0.175426
C75_8 C 0.6064(7) 0.1698(8) 0.3010(10)
C76_8 C 0.6359(8) 0.1775(9) 0.2855(10)
C77_8 C 0.5168(8) 0.2418(9) 0.4408(10)
H37_8 H 0.511989 0.248121 0.463773
C78_8 C 0.5315(8) 0.2272(9) 0.3657(9)
C79_8 C 0.3858(8) 0.3386(9) 0.1573(10)
H38_8 H 0.368607 0.350803 0.157575
C80_8 C 0.3390(3) 0.3551(5) 0.2912(6)
H39_8 H 0.322468 0.367718 0.286541
C81_8 C 0.3666(4) 0.3637(4) 0.2779(6)
H40_8 H 0.368540 0.381982 0.264233
C82_8 C 0.3912(3) 0.3448(5) 0.2848(6)
H41_8 H 0.409676 0.350534 0.275904
C83_8 C 0.3883(3) 0.3174(5) 0.3052(6)
C84_8 C 0.3606(4) 0.3089(4) 0.3186(6)
C85_8 C 0.3360(3) 0.3277(5) 0.3116(6)
H42_8 H 0.317533 0.322006 0.320523
O42_8 O 0.3167(12) 0.3939(12) 0.2145(9)
O43_8 O 0.7229(8) 0.2651(9) 0.2445(13)
C86_8 C 0.4095(7) 0.1636(9) 0.1167(9)
N3_8 N 0.8078(11) 0.1318(9) 0.2660(12)
C87_8 C 0.5146(7) 0.4103(9) 0.1639(9)
C88_8 C 0.4023(7) 0.1687(8) 0.1552(9)
C89_8 C 0.4904(7) 0.2353(8) 0.0720(9)
C90_8 C 0.4933(7) 0.2987(8) 0.0984(9)
C91_8 C 0.6378(7) 0.2407(9) 0.1777(10)
C92_8 C 0.4955(7) 0.3300(8) 0.1102(10)
H43_8 H 0.489552 0.335382 0.133040
O44_8 O 0.6670(9) 0.0733(11) 0.2722(10)
C93_8 C 0.4640(8) 0.2294(9) 0.4302(10)
C94_8 C 0.4446(7) 0.1008(8) 0.3227(9)
H44_8 H 0.443010 0.084829 0.339734
C95_8 C 0.5742(4) 0.2127(6) 0.0690(6)
H45_8 H 0.559283 0.205854 0.053686
C96_8 C 0.6004(5) 0.2250(6) 0.0554(5)
H46_8 H 0.603090 0.226464 0.031020
C97_8 C 0.6226(4) 0.2352(6) 0.0783(6)
H47_8 H 0.640182 0.243422 0.069261
C98_8 C 0.6186(4) 0.2330(6) 0.1148(6)
C99_8 C 0.5924(5) 0.2206(6) 0.1284(4)
C100_8 C 0.5701(4) 0.2105(6) 0.1055(6)
H48_8 H 0.552569 0.202204 0.114595
C101_8 C 0.5833(5) 0.4181(4) 0.3320(6)
H49_8 H 0.583108 0.436621 0.345385
C102_8 C 0.6061(4) 0.3961(5) 0.3363(5)
H50_8 H 0.621141 0.400032 0.352640
C103_8 C 0.6064(4) 0.3684(5) 0.3162(6)
C104_8 C 0.5840(5) 0.3626(4) 0.2918(5)
C105_8 C 0.5612(4) 0.3845(5) 0.2875(5)
H51_8 H 0.546168 0.380619 0.271128
C106_8 C 0.5609(4) 0.4122(5) 0.3075(6)
H52_8 H 0.545621 0.426915 0.304628
C107_8 C 0.4581(5) 0.0535(4) 0.2411(6)
H53_8 H 0.460785 0.032428 0.234401
C108_8 C 0.4587(5) 0.0774(5) 0.2156(4)
H54_8 H 0.461840 0.072326 0.191886
C109_8 C 0.4547(5) 0.1090(4) 0.2256(5)
H55_8 H 0.455093 0.124955 0.208548
C110_8 C 0.4500(5) 0.1166(4) 0.2610(5)
C111_8 C 0.4494(5) 0.0927(5) 0.2865(4)
C112_8 C 0.4534(5) 0.0612(4) 0.2765(5)
H56_8 H 0.452981 0.045158 0.293579
C113_8 C 0.3356(4) 0.1734(6) 0.2110(5)
H57_8 H 0.321028 0.170717 0.193780
C114_8 C 0.3654(4) 0.1714(6) 0.2018(4)
C115_8 C 0.3871(3) 0.1754(6) 0.2276(5)
C116_8 C 0.3791(4) 0.1816(6) 0.2625(5)
H58_8 H 0.393610 0.184320 0.279736
C117_8 C 0.3493(4) 0.1837(6) 0.2717(4)
H59_8 H 0.343889 0.187795 0.295077
C118_8 C 0.3275(3) 0.1796(6) 0.2460(5)
H60_8 H 0.307598 0.180994 0.252100
C119_8 C 0.5870(7) 0.1948(8) 0.3064(10)
C120_8 C 0.3743(8) 0.2314(9) 0.3622(10)
C121_8 C 0.4681(5) 0.3514(6) 0.4263(4)
H61_8 H 0.470815 0.354633 0.450475
C122_8 C 0.4599(5) 0.3216(5) 0.4137(5)
H62_8 H 0.457246 0.304839 0.429487
C123_8 C 0.4558(5) 0.3168(4) 0.3775(6)
H63_8 H 0.450385 0.296852 0.369121
C124_8 C 0.4598(5) 0.3419(5) 0.3539(4)
C125_8 C 0.4680(5) 0.3717(5) 0.3665(5)
C126_8 C 0.4721(5) 0.3765(4) 0.4027(6)
H64_8 H 0.477523 0.396441 0.411098
C127_8 C 0.3589(4) 0.2964(5) 0.1305(7)
H65_8 H 0.342305 0.309549 0.130303
C128_8 C 0.3860(5) 0.3080(4) 0.1424(7)
C129_8 C 0.4108(4) 0.2884(5) 0.1427(7)
C130_8 C 0.4085(4) 0.2572(5) 0.1310(7)
H66_8 H 0.425096 0.244017 0.131137
C131_8 C 0.3814(5) 0.2455(4) 0.1190(7)
H67_8 H 0.379907 0.224601 0.111212
C132_8 C 0.3566(4) 0.2652(6) 0.1188(7)
H68_8 H 0.338511 0.257367 0.110795
O45_8 O 0.7067(10) 0.1911(12) 0.2671(14)
C133_8 C 0.3332(11) 0.4364(12) 0.3505(13)
H69_8 H 0.321332 0.417594 0.348010
H70_8 H 0.345313 0.434651 0.371357
H71_8 H 0.320543 0.454651 0.352537
C134_8 C 0.3410(12) 0.4473(12) 0.2890(13)
H72_8 H 0.320752 0.451219 0.286674
C135_8 C 0.7865(14) 0.1291(15) 0.2872(16)
H73_8 H 0.788129 0.110867 0.301080
O46_8 O 0.3011(15) 0.2674(14) 0.4177(18)
C136_8 C 0.3853(11) 0.4342(12) 0.3204(14)
H74_8 H 0.389199 0.411951 0.324030
H75_8 H 0.393735 0.440771 0.298195
H76_8 H 0.394099 0.446218 0.339351
C137_8 C 0.3344(11) 0.1419(13) 0.3481(13)
C138_8 C 0.3692(10) 0.1104(12) 0.3177(13)
H77_8 H 0.381636 0.118350 0.336365
H78_8 H 0.370952 0.087667 0.316479
H79_8 H 0.375153 0.119558 0.295513
C139_8 C 0.5678(5) 0.2541(7) 0.4496(5)
H80_8 H 0.563122 0.257135 0.473337
C140_8 C 0.5465(4) 0.2426(7) 0.4262(6)
C141_8 C 0.5535(4) 0.2380(6) 0.3907(6)
C142_8 C 0.5819(5) 0.2448(6) 0.3785(5)
H81_8 H 0.586599 0.241761 0.354678
C143_8 C 0.6032(4) 0.2563(7) 0.4018(6)
H82_8 H 0.622215 0.260925 0.393626
C144_8 C 0.5962(5) 0.2609(6) 0.4373(6)
H83_8 H 0.610477 0.268612 0.452955
C145_8 C 0.8076(12) 0.1619(10) 0.2472(13)
H84_8 H 0.824129 0.163036 0.231259
H85_8 H 0.808179 0.179556 0.263289
H86_8 H 0.789439 0.162536 0.233839
C146_8 C 0.3192(12) 0.0998(14) 0.3058(15)
H87_8 H 0.307824 0.113224 0.290295
H88_8 H 0.329452 0.084074 0.292079
H89_8 H 0.306104 0.089480 0.322308
O47_8 O 0.2677(10) 0.2219(10) 0.4568(11)
O48_8 O 0.281(2) 0.228(2) 0.341(2)
C147_8 C 0.8308(12) 0.1091(14) 0.2556(15)
H90_8 H 0.829639 0.090525 0.270450
H91_8 H 0.850009 0.118595 0.257920
H92_8 H 0.827539 0.103055 0.231340
O49_8 O 0.7120(11) 0.1164(13) 0.2262(14)
O50_7 O 0.3297(12) 0.2080(13) 0.4600(13)
Ba5_7 Ba 0.39938(6) 0.19265(6) 0.44329(9)
Ba7_5 Ba 0.45004(7) 0.45335(7) 0.14993(12)
O51_5 O 0.3078(5) 0.4771(5) 0.1573(5)
O52_7 O 0.7313(4) 0.1217(5) 0.3714(6)
O53_5 O 0.3126(4) 0.4178(5) 0.1324(5)
O54_5 O 0.3536(5) 0.4607(5) 0.1187(6)
O55_7 O 0.7375(5) 0.0710(5) 0.3289(5)
O56_7 O 0.6862(4) 0.0837(5) 0.3569(6)
O57_7 O 0.2620(5) 0.1543(5) 0.4271(6)
O58_7 O 0.2347(5) 0.1837(6) 0.3909(6)
O59_5 O 0.2909(5) 0.4780(6) 0.2121(6)
O61_5 O 0.4203(12) 0.4580(13) 0.2100(13)
H93_8 H 0.328927 0.378648 0.228313
H94_8 H 0.308274 0.382984 0.193418
H95_8 H 0.649147 0.0712607 0.287458
H96_8 H 0.67809 0.0528945 0.272217
H97_8 H 0.710439 0.257862 0.224329
H98_8 H 0.743761 0.258439 0.240497
H99_8 H 0.319575 0.272168 0.431018
H100_8 H 0.283644 0.272526 0.432712
H101_8 H 0.354753 0.152169 0.358621
H102_8 H 0.695293 0.104527 0.21528
H103_8 H 0.730858 0.104912 0.221628
H104_8 H 0.28016 0.22072 0.478489
H105_8 H 0.250268 0.207672 0.459504
H106_8 H 0.287169 0.250643 0.339681
H107_8 H 0.259027 0.226635 0.340146
Ba4_5 Ba 0.04900(8) 0.48668(11) 0.0604(2)
Ti1_9 Ti 0.31020(12) 0.46077(14) 0.10768(15)
Ti4_9 Ti 0.12812(11) 0.49217(15) 0.01625(19)
O2_9 O 0.3193(4) 0.4995(5) 0.0862(5)
O4_9 O 0.3131(4) 0.4366(5) 0.0661(5)
O5_9 O 0.1577(4) 0.4744(5) 0.0464(6)
O10_9 O 0.1448(4) 0.5309(5) 0.0126(5)
O12_9 O 0.2879(4) 0.6053(5) 0.0084(6)
O14_9 O 0.1038(5) 0.5132(6) 0.0552(6)
O18_9 O 0.2695(4) 0.4633(5) 0.1088(6)
O21_9 O 0.1049(5) 0.4540(6) 0.0297(6)
O23_9 O 0.0970(5) 0.4019(6) 0.0342(6)
O28_9 O 0.3138(5) 0.3656(5) 0.1417(6)
H2_9 H 0.308437 0.447311 0.006702
C2_9 C 0.3416(7) 0.5197(8) 0.0806(9)
C3_9 C 0.2868(7) 0.6119(8) 0.0432(9)
C4_9 C 0.3058(7) 0.3992(8) 0.0226(8)
C7_9 C 0.3084(7) 0.4071(8) 0.0582(8)
C8_9 C 0.1243(7) 0.5948(8) 0.0727(9)
H5_9 H 0.110093 0.598229 0.090196
C9_9 C 0.3361(7) 0.5471(8) 0.0623(9)
C10_9 C 0.1452(7) 0.5612(8) 0.0302(9)
C11_9 C 0.1656(7) 0.5840(8) 0.0202(8)
C12_9 C 0.3081(7) 0.3860(8) 0.0838(9)
C14_9 C 0.2130(7) 0.4680(8) 0.0791(9)
H6_9 H 0.231858 0.462644 0.068147
H7_9 H 0.205096 0.486266 0.066502
O30_9 O 0.0566(7) 0.4268(8) 0.0955(8)
C21_9 C 0.2549(8) 0.4798(9) 0.1644(10)
C27_9 C 0.3719(7) 0.5104(9) 0.0940(9)
C29_9 C 0.1920(7) 0.4403(8) 0.0740(9)
O33_9 O 0.0782(5) 0.5497(6) 0.0822(6)
C30_9 C 0.2941(7) 0.5876(8) 0.0658(9)
C32_9 C 0.2772(7) 0.6426(8) 0.0530(10)
O34_9 O 0.2653(6) 0.6948(6) 0.0450(7)
C33_9 C 0.1239(7) 0.5658(8) 0.0556(9)
C34_9 C 0.3936(7) 0.5305(8) 0.0866(9)
H10_9 H 0.412718 0.525406 0.093877
C37_9 C 0.2712(8) 0.6710(9) 0.0318(11)
O35_9 O 0.4016(5) 0.4715(6) 0.1177(7)
C44_9 C 0.1006(8) 0.5416(9) 0.0649(10)
O37_9 O 0.3925(7) 0.6992(7) 0.0127(9)
C46_9 C 0.3051(7) 0.5563(8) 0.0517(9)
H16_9 H 0.304095 0.556912 0.026023
H17_9 H 0.291683 0.539705 0.059676
H19_9 H 0.205862 0.575542 0.000758
C48_9 C 0.2481(7) 0.4756(9) 0.1315(9)
C51_9 C 0.3117(7) 0.3890(9) 0.1229(9)
O40_9 O 0.4365(8) 0.4039(9) 0.1099(10)
C53_9 C 0.2313(4) 0.3703(5) 0.1130(6)
H20_9 H 0.249200 0.365661 0.124070
C54_9 C 0.2255(4) 0.4010(4) 0.1013(6)
H21_9 H 0.239559 0.416953 0.104507
C55_9 C 0.1987(5) 0.4079(4) 0.0847(6)
C56_9 C 0.1777(4) 0.3841(5) 0.0799(6)
C57_9 C 0.1835(4) 0.3534(4) 0.0916(6)
H22_9 H 0.169453 0.337475 0.088353
C58_9 C 0.2103(5) 0.3465(4) 0.1082(6)
H23_9 H 0.214146 0.325922 0.115993
N1_9 N 0.4101(10) 0.3685(11) 0.0747(12)
C67_9 C 0.1490(7) 0.3884(9) 0.0630(9)
H30_9 H 0.135442 0.371897 0.060279
C71_9 C 0.2747(7) 0.6469(9) 0.0906(10)
H33_9 H 0.268181 0.666430 0.099128
N2_9 N 0.3981(9) 0.6899(10) 0.0699(11)
C75_9 C 0.1436(7) 0.4198(8) 0.0510(10)
C76_9 C 0.1141(8) 0.4275(9) 0.0355(10)
C77_9 C 0.2332(8) 0.4918(9) 0.1908(10)
H37_9 H 0.238011 0.498121 0.213773
C78_9 C 0.2185(8) 0.4772(9) 0.1157(9)
C80_9 C 0.4110(3) 0.6051(5) 0.0412(6)
H39_9 H 0.427532 0.617718 0.036541
C81_9 C 0.3834(4) 0.6137(4) 0.0279(6)
H40_9 H 0.381460 0.631982 0.014233
C82_9 C 0.3588(3) 0.5948(5) 0.0348(6)
H41_9 H 0.340324 0.600534 0.025904
C83_9 C 0.3617(3) 0.5674(5) 0.0552(6)
C84_9 C 0.3894(4) 0.5589(4) 0.0686(6)
C85_9 C 0.4140(3) 0.5777(5) 0.0616(6)
H42_9 H 0.432467 0.572006 0.070523
O44_9 O 0.0830(9) 0.3233(11) 0.0222(10)
C93_9 C 0.2860(8) 0.4794(9) 0.1802(10)
C94_9 C 0.3054(7) 0.3508(8) 0.0727(9)
H44_9 H 0.306990 0.334829 0.089734
C101_9 C 0.1667(5) 0.6681(4) 0.0820(6)
H49_9 H 0.166892 0.686621 0.095385
C102_9 C 0.1439(4) 0.6461(5) 0.0863(5)
H50_9 H 0.128859 0.650032 0.102640
C103_9 C 0.1436(4) 0.6184(5) 0.0662(6)
C104_9 C 0.1660(5) 0.6126(4) 0.0418(5)
C105_9 C 0.1888(4) 0.6345(5) 0.0375(5)
H51_9 H 0.203832 0.630619 0.021128
C106_9 C 0.1891(4) 0.6622(5) 0.0575(6)
H52_9 H 0.204379 0.676915 0.054628
C110_9 C 0.3000(5) 0.3666(4) 0.0110(5)
C111_9 C 0.3006(5) 0.3427(5) 0.0365(4)
C112_9 C 0.2966(5) 0.3112(4) 0.0265(5)
H56_9 H 0.297019 0.295158 0.043579
C116_9 C 0.3709(4) 0.4316(6) 0.0125(5)
H58_9 H 0.356390 0.434320 0.029736
C117_9 C 0.4007(4) 0.4337(6) 0.0217(4)
H59_9 H 0.406111 0.437795 0.045077
H60_9 H 0.442402 0.430994 0.002100
C119_9 C 0.1630(7) 0.4448(8) 0.0564(10)
C120_9 C 0.3757(8) 0.4814(9) 0.1122(10)
C121_9 C 0.2819(5) 0.6014(6) 0.1763(4)
H61_9 H 0.279185 0.604633 0.200475
C122_9 C 0.2901(5) 0.5716(5) 0.1637(5)
H62_9 H 0.292754 0.554839 0.179487
C123_9 C 0.2942(5) 0.5668(4) 0.1275(6)
H63_9 H 0.299615 0.546852 0.119121
C124_9 C 0.2902(5) 0.5919(5) 0.1039(4)
C125_9 C 0.2820(5) 0.6217(5) 0.1165(5)
C126_9 C 0.2779(5) 0.6265(4) 0.1527(6)
H64_9 H 0.272477 0.646441 0.161098
O45_9 O 0.0433(10) 0.4411(12) 0.0171(14)
C133_9 C 0.4168(11) 0.6864(12) 0.1005(13)
H69_9 H 0.428668 0.667594 0.098010
H70_9 H 0.404687 0.684651 0.121357
H71_9 H 0.429457 0.704651 0.102537
C134_9 C 0.4090(12) 0.6973(12) 0.0390(13)
H72_9 H 0.429248 0.701219 0.036674
O46_9 O 0.4489(15) 0.5174(14) 0.1677(18)
C136_9 C 0.3647(11) 0.6842(12) 0.0704(14)
H74_9 H 0.360801 0.661951 0.074030
H75_9 H 0.356265 0.690771 0.048195
H76_9 H 0.355901 0.696218 0.089351
C137_9 C 0.4156(11) 0.3919(13) 0.0981(13)
C138_9 C 0.3808(10) 0.3604(12) 0.0677(13)
H77_9 H 0.368364 0.368350 0.086365
H78_9 H 0.379048 0.337667 0.066479
H79_9 H 0.374847 0.369558 0.045513
C139_9 C 0.1822(5) 0.5041(7) 0.1996(5)
H80_9 H 0.186878 0.507135 0.223337
C140_9 C 0.2035(4) 0.4926(7) 0.1762(6)
C141_9 C 0.1965(4) 0.4880(6) 0.1407(6)
C142_9 C 0.1681(5) 0.4948(6) 0.1285(5)
H81_9 H 0.163401 0.491761 0.104678
C143_9 C 0.1468(4) 0.5063(7) 0.1518(6)
H82_9 H 0.127785 0.510925 0.143626
C144_9 C 0.1538(5) 0.5109(6) 0.1873(6)
H83_9 H 0.139523 0.518612 0.202955
C146_9 C 0.4308(12) 0.3498(14) 0.0558(15)
H87_9 H 0.442176 0.363224 0.040295
H88_9 H 0.420548 0.334074 0.042079
H89_9 H 0.443896 0.339480 0.072308
O47_9 O 0.4823(10) 0.4719(10) 0.2068(11)
O48_9 O 0.469(2) 0.478(2) 0.091(2)
O60_5 O 0.0090(7) 0.5399(8) 0.0709(8)
H95_9 H 0.100853 0.321261 0.0374583
H96_9 H 0.0719101 0.302895 0.0222166
H99_9 H 0.430425 0.522168 0.181018
H100_9 H 0.466356 0.522526 0.182712
H101_9 H 0.395247 0.402169 0.108621
H104_9 H 0.46984 0.47072 0.228489
H105_9 H 0.499732 0.457672 0.209504
H106_9 H 0.462831 0.500643 0.0896809
H107_9 H 0.490973 0.476635 0.0901463
Ti2_9 Ti 0.27497(11) 0.42519(14) 0.88037(16)
Ti3_9 Ti 0.27534(12) 0.62512(14) 0.96632(18)
O1_9 O 0.2379(4) 0.4236(5) 0.9002(6)
O3_9 O 0.2957(4) 0.4212(5) 0.9221(5)
O6_9 O 0.2774(5) 0.4702(5) 0.8786(6)
O8_6 O 0.2687(4) 0.3783(5) 0.8714(6)
O9_9 O 0.1443(4) 0.4745(5) 0.9741(6)
O11_9 O 0.3151(5) 0.6421(6) 0.9528(6)
O13_9 O 0.0931(5) 0.5031(6) 0.9852(7)
O15_9 O 0.2357(4) 0.6140(5) 0.9688(6)
O19_6 O 0.2625(5) 0.4290(5) 0.8289(5)
O20_9 O 0.2872(4) 0.5910(5) 0.9367(6)
O22_6 O 0.3138(4) 0.4163(5) 0.8569(6)
O24_9 O 0.2508(4) 0.3290(5) 0.8744(6)
O25_9 O 0.2711(5) 0.6649(5) 0.9986(7)
O27_9 O 0.3616(5) 0.4152(6) 0.8441(6)
C1_9 C 0.3061(7) 0.4272(8) 0.9944(8)
H1_9 H 0.287160 0.427710 0.982100
C5_9 C 0.2827(7) 0.5319(8) 0.9049(9)
H3_9 H 0.285978 0.511973 0.917136
H4_9 H 0.267965 0.543588 0.918445
C6_9 C 0.1889(7) 0.4116(8) 0.9232(9)
C13_9 C 0.1880(7) 0.6020(8) 0.9591(9)
C15_9 C 0.1950(7) 0.3514(8) 0.8960(9)
H8_9 H 0.196467 0.330751 0.887194
C16_9 C 0.2153(7) 0.4031(8) 0.9062(9)
C17_9 C 0.3371(7) 0.6003(9) 0.9220(10)
O32_9 O 0.2568(6) 0.4458(6) 0.7749(6)
C18_9 C 0.2702(7) 0.5249(8) 0.8725(9)
C19_9 C 0.1406(7) 0.4782(8) 0.9402(10)
C20_9 C 0.2102(7) 0.6427(8) 0.9261(9)
C22_9 C 0.3373(8) 0.6306(9) 0.9353(10)
C23_9 C 0.3314(7) 0.4235(8) 0.9667(8)
C24_9 C 0.2430(7) 0.6037(9) 0.8368(9)
H9_9 H 0.240226 0.624259 0.845198
C25_9 C 0.2502(7) 0.3581(9) 0.8798(9)
C26_9 C 0.3128(7) 0.5795(8) 0.9199(9)
C28_9 C 0.2093(7) 0.6199(8) 0.9505(9)
C31_9 C 0.2195(7) 0.3705(8) 0.8920(9)
C35_9 C 0.0888(8) 0.5034(9) 0.9524(10)
C36_9 C 0.2699(7) 0.4925(8) 0.8587(10)
C38_9 C 0.1320(4) 0.6353(5) 0.8950(5)
H11_9 H 0.131344 0.651630 0.878398
C39_9 C 0.1075(4) 0.6156(5) 0.8997(5)
H12_9 H 0.090474 0.618852 0.886220
C40_9 C 0.1085(4) 0.5912(5) 0.9244(6)
H13_9 H 0.092089 0.578014 0.927583
C41_9 C 0.1339(4) 0.5863(4) 0.9445(5)
H14_9 H 0.134573 0.569952 0.961124
C42_9 C 0.1584(3) 0.6060(5) 0.9399(5)
C43_9 C 0.1574(4) 0.6304(5) 0.9151(6)
C45_9 C 0.2358(7) 0.5966(8) 0.8017(9)
H15_9 H 0.230069 0.613131 0.786773
O38_9 O 0.3593(5) 0.6512(6) 0.9312(6)
C47_9 C 0.1861(7) 0.5776(8) 0.9908(8)
H18_9 H 0.180908 0.557022 0.980895
O39_9 O 0.0651(5) 0.5135(6) 0.9388(8)
C49_9 C 0.3255(7) 0.4216(8) 0.9314(8)
C50_9 C 0.2582(7) 0.4527(9) 0.8082(9)
C52_9 C 0.2477(7) 0.5406(8) 0.8122(9)
C59_9 C 0.1835(7) 0.6495(8) 0.9051(9)
H24_9 H 0.183037 0.664539 0.887024
C60_9 C 0.3770(7) 0.4189(8) 0.9162(9)
H25_9 H 0.391998 0.417446 0.899315
C61_9 C 0.1208(4) 0.3454(4) 0.9353(6)
H26_9 H 0.105596 0.330615 0.937923
C62_9 C 0.1459(4) 0.3377(4) 0.9157(6)
H27_9 H 0.147461 0.317771 0.905130
C63_9 C 0.1686(4) 0.3598(5) 0.9118(6)
C64_9 C 0.1662(4) 0.3896(4) 0.9276(6)
C65_9 C 0.1411(4) 0.3972(4) 0.9472(6)
H28_9 H 0.139549 0.417172 0.957793
C66_9 C 0.1184(4) 0.3752(5) 0.9511(6)
H29_9 H 0.101640 0.380316 0.964255
C68_9 C 0.1624(7) 0.4637(8) 0.9170(9)
C69_9 C 0.2497(7) 0.5109(8) 0.8001(10)
H31_9 H 0.244440 0.506712 0.776670
C70_9 C 0.2367(7) 0.5672(8) 0.7889(10)
H32_9 H 0.230659 0.563127 0.765744
C72_9 C 0.1110(8) 0.4946(9) 0.8909(10)
H34_9 H 0.094929 0.506167 0.882325
C73_9 C 0.3100(7) 0.5498(8) 0.9066(10)
C74_9 C 0.1861(7) 0.4466(8) 0.9323(9)
H35_9 H 0.184481 0.448467 0.957891
H36_9 H 0.204470 0.457045 0.925426
C79_9 C 0.3642(8) 0.5886(9) 0.9073(10)
H38_9 H 0.381393 0.600803 0.907575
O42_9 O 0.4333(12) 0.6439(12) 0.9645(9)
O43_9 O 0.0271(8) 0.5151(9) 0.9945(13)
C86_9 C 0.3405(7) 0.4136(9) 0.8667(9)
C87_9 C 0.2354(7) 0.6603(9) 0.9139(9)
C88_9 C 0.3477(7) 0.4187(8) 0.9052(9)
C89_9 C 0.2596(7) 0.4853(8) 0.8220(9)
C90_9 C 0.2567(7) 0.5487(8) 0.8484(9)
C91_9 C 0.1122(7) 0.4907(9) 0.9277(10)
C92_9 C 0.2545(7) 0.5800(8) 0.8602(10)
H43_9 H 0.260448 0.585382 0.883040
C95_9 C 0.1758(4) 0.4627(6) 0.8190(6)
H45_9 H 0.190717 0.455854 0.803686
C96_9 C 0.1496(5) 0.4750(6) 0.8054(5)
H46_9 H 0.146910 0.476464 0.781020
C97_9 C 0.1274(4) 0.4852(6) 0.8283(6)
H47_9 H 0.109818 0.493422 0.819261
C98_9 C 0.1314(4) 0.4830(6) 0.8648(6)
C99_9 C 0.1576(5) 0.4706(6) 0.8784(4)
C100_9 C 0.1799(4) 0.4605(6) 0.8555(6)
H48_9 H 0.197431 0.452204 0.864595
C107_9 C 0.2919(5) 0.3035(4) 0.9911(6)
H53_9 H 0.289215 0.282428 0.984401
C108_9 C 0.2913(5) 0.3274(5) 0.9656(4)
H54_9 H 0.288160 0.322326 0.941886
C109_9 C 0.2953(5) 0.3590(4) 0.9756(5)
H55_9 H 0.294907 0.374955 0.958548
C113_9 C 0.4144(4) 0.4234(6) 0.9610(5)
H57_9 H 0.428972 0.420717 0.943780
C114_9 C 0.3846(4) 0.4214(6) 0.9518(4)
C115_9 C 0.3629(3) 0.4254(6) 0.9776(5)
C118_9 C 0.4225(3) 0.4296(6) 0.9960(5)
C127_9 C 0.3911(4) 0.5464(5) 0.8805(7)
H65_9 H 0.407695 0.559549 0.880303
C128_9 C 0.3640(5) 0.5580(4) 0.8924(7)
C129_9 C 0.3392(4) 0.5384(5) 0.8927(7)
C130_9 C 0.3415(4) 0.5072(5) 0.8810(7)
H66_9 H 0.324904 0.494017 0.881137
C131_9 C 0.3686(5) 0.4955(4) 0.8690(7)
H67_9 H 0.370093 0.474601 0.861212
C132_9 C 0.3934(4) 0.5152(6) 0.8688(7)
H68_9 H 0.411489 0.507367 0.860795
O49_9 O 0.0380(11) 0.3664(13) 0.9762(14)
Ba6_6 Ba 0.29702(6) 0.37881(9) 0.79821(9)
H93_9 H 0.421073 0.628648 0.978313
H94_9 H 0.441726 0.632984 0.943418
H97_9 H 0.0395609 0.507862 0.974329
H98_9 H 0.0062393 0.508439 0.990497
H102_9 H 0.0547073 0.354527 0.96528
H103_9 H 0.0191421 0.354912 0.971628
O36_9 O 0.9884(8) 0.3959(9) 0.0452(10)
O41_5 O 0.9910(7) 0.4601(8) 0.0709(8)
N3_9 N 0.9422(11) 0.3818(9) 0.0160(12)
C135_9 C 0.9635(14) 0.3791(15) 0.0372(16)
H73_9 H 0.961871 0.360867 0.051080
H85_9 H 0.941821 0.429556 0.013289
C147_9 C 0.9192(12) 0.3591(14) 0.0056(15)
H90_9 H 0.920361 0.340525 0.020450
H91_9 H 0.899991 0.368595 0.007920
Ba8_5 Ba 0.95100(8) 0.51332(11) 0.0604(2)
O36_10 O 0.0116(8) 0.6041(9) 0.0452(10)
N3_10 N 0.0578(11) 0.6182(9) 0.0160(12)
C135_10 C 0.0365(14) 0.6209(15) 0.0372(16)
H73_10 H 0.038129 0.639133 0.051080
H85_10 H 0.058179 0.570444 0.013289
C147_10 C 0.0808(12) 0.6409(14) 0.0056(15)
H90_10 H 0.079639 0.659475 0.020450
H91_10 H 0.100009 0.631405 0.007920
Ba2_8 Ba 0.95298(6) 0.62881(9) 0.04821(9)
Ba3_8 Ba 0.54996(7) 0.54665(7) 0.14993(12)
Ti1_10 Ti 0.68980(12) 0.53923(14) 0.10768(15)
Ti4_10 Ti 0.87188(11) 0.50783(15) 0.01625(19)
O2_10 O 0.6807(4) 0.5005(5) 0.0862(5)
O4_10 O 0.6869(4) 0.5634(5) 0.0661(5)
O5_10 O 0.8423(4) 0.5256(5) 0.0464(6)
O7_8 O 0.6922(5) 0.5229(5) 0.1573(5)
O10_10 O 0.8552(4) 0.4691(5) 0.0126(5)
O12_10 O 0.7121(4) 0.3947(5) 0.0084(6)
O14_10 O 0.8962(5) 0.4868(6) 0.0552(6)
O16_8 O 0.6874(4) 0.5822(5) 0.1324(5)
O17_8 O 0.6464(5) 0.5393(5) 0.1187(6)
O18_10 O 0.7305(4) 0.5367(5) 0.1088(6)
O21_10 O 0.8951(5) 0.5460(6) 0.0297(6)
O23_10 O 0.9030(5) 0.5981(6) 0.0342(6)
O28_10 O 0.6862(5) 0.6344(5) 0.1417(6)
H2_10 H 0.691563 0.552689 0.006702
C2_10 C 0.6584(7) 0.4803(8) 0.0806(9)
C3_10 C 0.7132(7) 0.3881(8) 0.0432(9)
C4_10 C 0.6942(7) 0.6008(8) 0.0226(8)
C7_10 C 0.6916(7) 0.5929(8) 0.0582(8)
C8_10 C 0.8757(7) 0.4052(8) 0.0727(9)
H5_10 H 0.889907 0.401771 0.090196
C9_10 C 0.6639(7) 0.4529(8) 0.0623(9)
C10_10 C 0.8548(7) 0.4388(8) 0.0302(9)
C11_10 C 0.8344(7) 0.4160(8) 0.0202(8)
C12_10 C 0.6919(7) 0.6140(8) 0.0838(9)
C14_10 C 0.7870(7) 0.5320(8) 0.0791(9)
H6_10 H 0.768142 0.537356 0.068147
H7_10 H 0.794904 0.513734 0.066502
O30_10 O 0.9434(7) 0.5732(8) 0.0955(8)
O31_8 O 0.7091(5) 0.5220(6) 0.2121(6)
C21_10 C 0.7451(8) 0.5202(9) 0.1644(10)
C27_10 C 0.6281(7) 0.4896(9) 0.0940(9)
C29_10 C 0.8080(7) 0.5597(8) 0.0740(9)
O33_10 O 0.9218(5) 0.4503(6) 0.0822(6)
C30_10 C 0.7059(7) 0.4124(8) 0.0658(9)
C32_10 C 0.7228(7) 0.3574(8) 0.0530(10)
O34_10 O 0.7347(6) 0.3052(6) 0.0450(7)
C33_10 C 0.8761(7) 0.4342(8) 0.0556(9)
C34_10 C 0.6064(7) 0.4695(8) 0.0866(9)
H10_10 H 0.587282 0.474594 0.093877
C37_10 C 0.7288(8) 0.3290(9) 0.0318(11)
O35_10 O 0.5984(5) 0.5285(6) 0.1177(7)
C44_10 C 0.8994(8) 0.4584(9) 0.0649(10)
O37_10 O 0.6075(7) 0.3008(7) 0.0127(9)
C46_10 C 0.6949(7) 0.4437(8) 0.0517(9)
H16_10 H 0.695905 0.443088 0.026023
H17_10 H 0.708317 0.460295 0.059676
H19_10 H 0.794138 0.424458 0.000758
C48_10 C 0.7519(7) 0.5244(9) 0.1315(9)
C51_10 C 0.6883(7) 0.6110(9) 0.1229(9)
O40_10 O 0.5635(8) 0.5961(9) 0.1099(10)
C53_10 C 0.7687(4) 0.6297(5) 0.1130(6)
H20_10 H 0.750800 0.634339 0.124070
C54_10 C 0.7745(4) 0.5990(4) 0.1013(6)
H21_10 H 0.760441 0.583047 0.104507
C55_10 C 0.8013(5) 0.5921(4) 0.0847(6)
C56_10 C 0.8223(4) 0.6159(5) 0.0799(6)
C57_10 C 0.8165(4) 0.6466(4) 0.0916(6)
H22_10 H 0.830547 0.662525 0.088353
C58_10 C 0.7897(5) 0.6535(4) 0.1082(6)
H23_10 H 0.785854 0.674078 0.115993
N1_10 N 0.5899(10) 0.6315(11) 0.0747(12)
C67_10 C 0.8510(7) 0.6116(9) 0.0630(9)
H30_10 H 0.864558 0.628103 0.060279
C71_10 C 0.7253(7) 0.3531(9) 0.0906(10)
H33_10 H 0.731819 0.333570 0.099128
N2_10 N 0.6019(9) 0.3101(10) 0.0699(11)
C75_10 C 0.8564(7) 0.5802(8) 0.0510(10)
C76_10 C 0.8859(8) 0.5725(9) 0.0355(10)
C77_10 C 0.7668(8) 0.5082(9) 0.1908(10)
H37_10 H 0.761989 0.501879 0.213773
C78_10 C 0.7815(8) 0.5228(9) 0.1157(9)
C80_10 C 0.5890(3) 0.3949(5) 0.0412(6)
H39_10 H 0.572468 0.382282 0.036541
C81_10 C 0.6166(4) 0.3863(4) 0.0279(6)
H40_10 H 0.618540 0.368018 0.014233
C82_10 C 0.6412(3) 0.4052(5) 0.0348(6)
H41_10 H 0.659676 0.399466 0.025904
C83_10 C 0.6383(3) 0.4326(5) 0.0552(6)
C84_10 C 0.6106(4) 0.4411(4) 0.0686(6)
C85_10 C 0.5860(3) 0.4223(5) 0.0616(6)
H42_10 H 0.567533 0.427994 0.070523
O44_10 O 0.9170(9) 0.6767(11) 0.0222(10)
C93_10 C 0.7140(8) 0.5206(9) 0.1802(10)
C94_10 C 0.6946(7) 0.6492(8) 0.0727(9)
H44_10 H 0.693010 0.665171 0.089734
C101_10 C 0.8333(5) 0.3319(4) 0.0820(6)
H49_10 H 0.833108 0.313379 0.095385
C102_10 C 0.8561(4) 0.3539(5) 0.0863(5)
H50_10 H 0.871141 0.349968 0.102640
C103_10 C 0.8564(4) 0.3816(5) 0.0662(6)
C104_10 C 0.8340(5) 0.3874(4) 0.0418(5)
C105_10 C 0.8112(4) 0.3655(5) 0.0375(5)
H51_10 H 0.796168 0.369381 0.021128
C106_10 C 0.8109(4) 0.3378(5) 0.0575(6)
H52_10 H 0.795621 0.323085 0.054628
C110_10 C 0.7000(5) 0.6334(4) 0.0110(5)
C111_10 C 0.6994(5) 0.6573(5) 0.0365(4)
C112_10 C 0.7034(5) 0.6888(4) 0.0265(5)
H56_10 H 0.702981 0.704842 0.043579
C116_10 C 0.6291(4) 0.5684(6) 0.0125(5)
H58_10 H 0.643610 0.565680 0.029736
C117_10 C 0.5993(4) 0.5663(6) 0.0217(4)
H59_10 H 0.593889 0.562205 0.045077
H60_10 H 0.557598 0.569006 0.002100
C119_10 C 0.8370(7) 0.5552(8) 0.0564(10)
C120_10 C 0.6243(8) 0.5186(9) 0.1122(10)
C121_10 C 0.7181(5) 0.3986(6) 0.1763(4)
H61_10 H 0.720815 0.395367 0.200475
C122_10 C 0.7099(5) 0.4284(5) 0.1637(5)
H62_10 H 0.707246 0.445161 0.179487
C123_10 C 0.7058(5) 0.4332(4) 0.1275(6)
H63_10 H 0.700385 0.453148 0.119121
C124_10 C 0.7098(5) 0.4081(5) 0.1039(4)
C125_10 C 0.7180(5) 0.3783(5) 0.1165(5)
C126_10 C 0.7221(5) 0.3735(4) 0.1527(6)
H64_10 H 0.727523 0.353559 0.161098
O45_10 O 0.9567(10) 0.5589(12) 0.0171(14)
C133_10 C 0.5832(11) 0.3136(12) 0.1005(13)
H69_10 H 0.571332 0.332406 0.098010
H70_10 H 0.595313 0.315349 0.121357
H71_10 H 0.570543 0.295349 0.102537
C134_10 C 0.5910(12) 0.3027(12) 0.0390(13)
H72_10 H 0.570752 0.298781 0.036674
O46_10 O 0.5511(15) 0.4826(14) 0.1677(18)
C136_10 C 0.6353(11) 0.3158(12) 0.0704(14)
H74_10 H 0.639199 0.338049 0.074030
H75_10 H 0.643735 0.309229 0.048195
H76_10 H 0.644099 0.303782 0.089351
C137_10 C 0.5844(11) 0.6081(13) 0.0981(13)
C138_10 C 0.6192(10) 0.6396(12) 0.0677(13)
H77_10 H 0.631636 0.631650 0.086365
H78_10 H 0.620952 0.662333 0.066479
H79_10 H 0.625153 0.630442 0.045513
C139_10 C 0.8178(5) 0.4959(7) 0.1996(5)
H80_10 H 0.813122 0.492865 0.223337
C140_10 C 0.7965(4) 0.5074(7) 0.1762(6)
C141_10 C 0.8035(4) 0.5120(6) 0.1407(6)
C142_10 C 0.8319(5) 0.5052(6) 0.1285(5)
H81_10 H 0.836599 0.508239 0.104678
C143_10 C 0.8532(4) 0.4937(7) 0.1518(6)
H82_10 H 0.872215 0.489075 0.143626
C144_10 C 0.8462(5) 0.4891(6) 0.1873(6)
H83_10 H 0.860477 0.481388 0.202955
C146_10 C 0.5692(12) 0.6502(14) 0.0558(15)
H87_10 H 0.557824 0.636776 0.040295
H88_10 H 0.579452 0.665926 0.042079
H89_10 H 0.556104 0.660520 0.072308
O47_10 O 0.5177(10) 0.5281(10) 0.2068(11)
O48_10 O 0.531(2) 0.522(2) 0.091(2)
O50_8 O 0.5797(12) 0.5420(13) 0.2100(13)
Ba5_8 Ba 0.64938(6) 0.55735(6) 0.19329(9)
O52_8 O 0.9813(4) 0.6283(5) 0.1214(6)
O55_8 O 0.9875(5) 0.6790(5) 0.0789(5)
O56_8 O 0.9362(4) 0.6663(5) 0.1069(6)
O57_8 O 0.5120(5) 0.5957(5) 0.1771(6)
O58_8 O 0.4847(5) 0.5663(6) 0.1409(6)
H95_10 H 0.899147 0.678739 0.0374583
H96_10 H 0.92809 0.697105 0.0222166
H99_10 H 0.569575 0.477832 0.181018
H100_10 H 0.533644 0.477474 0.182712
H101_10 H 0.604753 0.597831 0.108621
H104_10 H 0.53016 0.52928 0.228489
H105_10 H 0.500268 0.542328 0.209504
H106_10 H 0.537169 0.499357 0.0896809
H107_10 H 0.509027 0.523365 0.0901463
Ba1_6 Ba 0.60062(6) 0.30735(6) 0.94329(9)
Ti2_10 Ti 0.72503(11) 0.57481(14) 0.88037(16)
Ti3_10 Ti 0.72466(12) 0.37488(14) 0.96632(18)
O1_10 O 0.7621(4) 0.5764(5) 0.9002(6)
O3_10 O 0.7043(4) 0.5788(5) 0.9221(5)
O6_10 O 0.7226(5) 0.5298(5) 0.8786(6)
O9_10 O 0.8557(4) 0.5255(5) 0.9741(6)
O11_10 O 0.6849(5) 0.3579(6) 0.9528(6)
O13_10 O 0.9069(5) 0.4969(6) 0.9852(7)
O15_10 O 0.7643(4) 0.3860(5) 0.9688(6)
O20_10 O 0.7128(4) 0.4090(5) 0.9367(6)
O24_10 O 0.7492(4) 0.6710(5) 0.8744(6)
O25_10 O 0.7289(5) 0.3351(5) 0.9986(7)
O26_6 O 0.7380(5) 0.3457(5) 0.9271(6)
O27_10 O 0.6384(5) 0.5848(6) 0.8441(6)
C1_10 C 0.6939(7) 0.5728(8) 0.9944(8)
H1_10 H 0.712840 0.572290 0.982100
O29_6 O 0.7653(5) 0.3163(6) 0.8909(6)
C5_10 C 0.7173(7) 0.4681(8) 0.9049(9)
H3_10 H 0.714022 0.488027 0.917136
H4_10 H 0.732035 0.456412 0.918445
C6_10 C 0.8111(7) 0.5884(8) 0.9232(9)
C13_10 C 0.8120(7) 0.3980(8) 0.9591(9)
C15_10 C 0.8050(7) 0.6486(8) 0.8960(9)
H8_10 H 0.803533 0.669249 0.887194
C16_10 C 0.7847(7) 0.5969(8) 0.9062(9)
C17_10 C 0.6629(7) 0.3997(9) 0.9220(10)
O32_10 O 0.7432(6) 0.5542(6) 0.7749(6)
C18_10 C 0.7298(7) 0.4751(8) 0.8725(9)
C19_10 C 0.8594(7) 0.5218(8) 0.9402(10)
C20_10 C 0.7898(7) 0.3573(8) 0.9261(9)
C22_10 C 0.6627(8) 0.3694(9) 0.9353(10)
C23_10 C 0.6686(7) 0.5765(8) 0.9667(8)
C24_10 C 0.7570(7) 0.3963(9) 0.8368(9)
H9_10 H 0.759774 0.375741 0.845198
C25_10 C 0.7498(7) 0.6419(9) 0.8798(9)
C26_10 C 0.6872(7) 0.4205(8) 0.9199(9)
C28_10 C 0.7907(7) 0.3801(8) 0.9505(9)
C31_10 C 0.7805(7) 0.6295(8) 0.8920(9)
C35_10 C 0.9112(8) 0.4966(9) 0.9524(10)
C36_10 C 0.7301(7) 0.5075(8) 0.8587(10)
C38_10 C 0.8680(4) 0.3647(5) 0.8950(5)
H11_10 H 0.868656 0.348370 0.878398
C39_10 C 0.8925(4) 0.3844(5) 0.8997(5)
H12_10 H 0.909526 0.381148 0.886220
C40_10 C 0.8915(4) 0.4088(5) 0.9244(6)
H13_10 H 0.907911 0.421986 0.927583
C41_10 C 0.8661(4) 0.4137(4) 0.9445(5)
H14_10 H 0.865427 0.430048 0.961124
C42_10 C 0.8416(3) 0.3940(5) 0.9399(5)
C43_10 C 0.8426(4) 0.3696(5) 0.9151(6)
C45_10 C 0.7642(7) 0.4034(8) 0.8017(9)
H15_10 H 0.769931 0.386869 0.786773
O38_10 O 0.6407(5) 0.3488(6) 0.9312(6)
C47_10 C 0.8139(7) 0.4224(8) 0.9908(8)
H18_10 H 0.819092 0.442978 0.980895
O39_10 O 0.9349(5) 0.4865(6) 0.9388(8)
C49_10 C 0.6745(7) 0.5784(8) 0.9314(8)
C50_10 C 0.7418(7) 0.5473(9) 0.8082(9)
C52_10 C 0.7523(7) 0.4594(8) 0.8122(9)
C59_10 C 0.8165(7) 0.3505(8) 0.9051(9)
H24_10 H 0.816963 0.335461 0.887024
C60_10 C 0.6230(7) 0.5811(8) 0.9162(9)
H25_10 H 0.608002 0.582554 0.899315
C61_10 C 0.8792(4) 0.6546(4) 0.9353(6)
H26_10 H 0.894404 0.669385 0.937923
C62_10 C 0.8541(4) 0.6623(4) 0.9157(6)
H27_10 H 0.852539 0.682229 0.905130
C63_10 C 0.8314(4) 0.6402(5) 0.9118(6)
C64_10 C 0.8338(4) 0.6104(4) 0.9276(6)
C65_10 C 0.8589(4) 0.6028(4) 0.9472(6)
H28_10 H 0.860451 0.582828 0.957793
C66_10 C 0.8816(4) 0.6248(5) 0.9511(6)
H29_10 H 0.898360 0.619684 0.964255
C68_10 C 0.8376(7) 0.5363(8) 0.9170(9)
C69_10 C 0.7503(7) 0.4891(8) 0.8001(10)
H31_10 H 0.755560 0.493288 0.776670
C70_10 C 0.7633(7) 0.4328(8) 0.7889(10)
H32_10 H 0.769341 0.436873 0.765744
C72_10 C 0.8890(8) 0.5054(9) 0.8909(10)
H34_10 H 0.905071 0.493833 0.882325
C73_10 C 0.6900(7) 0.4502(8) 0.9066(10)
C74_10 C 0.8139(7) 0.5534(8) 0.9323(9)
H35_10 H 0.815519 0.551533 0.957891
H36_10 H 0.795530 0.542955 0.925426
C79_10 C 0.6358(8) 0.4114(9) 0.9073(10)
H38_10 H 0.618607 0.399197 0.907575
O42_10 O 0.5667(12) 0.3561(12) 0.9645(9)
O43_10 O 0.9729(8) 0.4849(9) 0.9945(13)
C86_10 C 0.6595(7) 0.5864(9) 0.8667(9)
C87_10 C 0.7646(7) 0.3397(9) 0.9139(9)
C88_10 C 0.6523(7) 0.5813(8) 0.9052(9)
C89_10 C 0.7404(7) 0.5147(8) 0.8220(9)
C90_10 C 0.7433(7) 0.4513(8) 0.8484(9)
C91_10 C 0.8878(7) 0.5093(9) 0.9277(10)
C92_10 C 0.7455(7) 0.4200(8) 0.8602(10)
H43_10 H 0.739552 0.414618 0.883040
C95_10 C 0.8242(4) 0.5373(6) 0.8190(6)
H45_10 H 0.809283 0.544146 0.803686
C96_10 C 0.8504(5) 0.5250(6) 0.8054(5)
H46_10 H 0.853090 0.523536 0.781020
C97_10 C 0.8726(4) 0.5148(6) 0.8283(6)
H47_10 H 0.890182 0.506578 0.819261
C98_10 C 0.8686(4) 0.5170(6) 0.8648(6)
C99_10 C 0.8424(5) 0.5294(6) 0.8784(4)
C100_10 C 0.8201(4) 0.5395(6) 0.8555(6)
H48_10 H 0.802569 0.547796 0.864595
C107_10 C 0.7081(5) 0.6965(4) 0.9911(6)
H53_10 H 0.710785 0.717572 0.984401
C108_10 C 0.7087(5) 0.6726(5) 0.9656(4)
H54_10 H 0.711840 0.677674 0.941886
C109_10 C 0.7047(5) 0.6410(4) 0.9756(5)
H55_10 H 0.705093 0.625045 0.958548
C113_10 C 0.5856(4) 0.5766(6) 0.9610(5)
H57_10 H 0.571028 0.579283 0.943780
C114_10 C 0.6154(4) 0.5786(6) 0.9518(4)
C115_10 C 0.6371(3) 0.5746(6) 0.9776(5)
C118_10 C 0.5775(3) 0.5704(6) 0.9960(5)
C127_10 C 0.6089(4) 0.4536(5) 0.8805(7)
H65_10 H 0.592305 0.440451 0.880303
C128_10 C 0.6360(5) 0.4420(4) 0.8924(7)
C129_10 C 0.6608(4) 0.4616(5) 0.8927(7)
C130_10 C 0.6585(4) 0.4928(5) 0.8810(7)
H66_10 H 0.675096 0.505983 0.881137
C131_10 C 0.6314(5) 0.5045(4) 0.8690(7)
H67_10 H 0.629907 0.525399 0.861212
C132_10 C 0.6066(4) 0.4848(6) 0.8688(7)
H68_10 H 0.588511 0.492633 0.860795
O49_10 O 0.9620(11) 0.6336(13) 0.9762(14)
Ba7_6 Ba 0.70004(7) 0.29665(7) 0.89993(12)
O51_6 O 0.5578(5) 0.2729(5) 0.9073(5)
O53_6 O 0.5626(4) 0.3322(5) 0.8824(5)
O54_6 O 0.6036(5) 0.2893(5) 0.8687(6)
O59_6 O 0.5409(5) 0.2720(6) 0.9621(6)
O61_6 O 0.6703(12) 0.2920(13) 0.9600(13)
H93_10 H 0.578927 0.371352 0.978313
H94_10 H 0.558274 0.367016 0.943418
H97_10 H 0.960439 0.492138 0.974329
H98_10 H 0.993761 0.491561 0.990497
H102_10 H 0.945293 0.645473 0.96528
H103_10 H 0.980858 0.645088 0.971628
Ba2_9 Ba 0.29702(6) 0.87881(9) 0.29821(9)
Ba3_9 Ba 0.70004(7) 0.79665(7) 0.39993(12)
Ba4_6 Ba 0.29900(8) 0.76332(11) 0.3104(2)
Ti1_11 Ti 0.56020(12) 0.78923(14) 0.35768(15)
Ti2_11 Ti 0.52497(11) 0.82481(14) 0.13037(16)
Ti3_11 Ti 0.52534(12) 0.62488(14) 0.21632(18)
Ti4_11 Ti 0.37812(11) 0.75783(15) 0.26625(19)
O1_11 O 0.4879(4) 0.8264(5) 0.1502(6)
O2_11 O 0.5693(4) 0.7505(5) 0.3362(5)
O3_11 O 0.5457(4) 0.8288(5) 0.1721(5)
O4_11 O 0.5631(4) 0.8134(5) 0.3161(5)
O5_11 O 0.4077(4) 0.7756(5) 0.2964(6)
O6_11 O 0.5274(5) 0.7798(5) 0.1286(6)
O7_9 O 0.5578(5) 0.7729(5) 0.4073(5)
O9_11 O 0.3943(4) 0.7755(5) 0.2241(6)
O10_11 O 0.3948(4) 0.7191(5) 0.2626(5)
O11_11 O 0.5651(5) 0.6079(6) 0.2028(6)
O12_11 O 0.5379(4) 0.6447(5) 0.2584(6)
O13_11 O 0.3431(5) 0.7469(6) 0.2352(7)
O14_11 O 0.3538(5) 0.7368(6) 0.3052(6)
O15_11 O 0.4857(4) 0.6360(5) 0.2188(6)
O16_9 O 0.5626(4) 0.8322(5) 0.3824(5)
O17_9 O 0.6036(5) 0.7893(5) 0.3687(6)
O18_11 O 0.5195(4) 0.7867(5) 0.3588(6)
O20_11 O 0.5372(4) 0.6590(5) 0.1867(6)
O21_11 O 0.3549(5) 0.7960(6) 0.2797(6)
O23_11 O 0.3470(5) 0.8481(6) 0.2842(6)
O24_11 O 0.5008(4) 0.9210(5) 0.1244(6)
O25_11 O 0.5211(5) 0.5851(5) 0.2486(7)
O27_11 O 0.6116(5) 0.8348(6) 0.0941(6)
O28_11 O 0.5638(5) 0.8844(5) 0.3917(6)
C1_11 C 0.5561(7) 0.8228(8) 0.2444(8)
H1_11 H 0.537160 0.822290 0.232100
H2_11 H 0.558437 0.802689 0.256702
C2_11 C 0.5916(7) 0.7303(8) 0.3306(9)
C3_11 C 0.5368(7) 0.6381(8) 0.2932(9)
C4_11 C 0.5558(7) 0.8508(8) 0.2726(8)
C5_11 C 0.5327(7) 0.7181(8) 0.1549(9)
H3_11 H 0.535978 0.738027 0.167136
H4_11 H 0.517965 0.706412 0.168445
C6_11 C 0.4389(7) 0.8384(8) 0.1732(9)
C7_11 C 0.5584(7) 0.8429(8) 0.3082(8)
C8_11 C 0.3743(7) 0.6552(8) 0.3227(9)
H5_11 H 0.360093 0.651771 0.340196
C9_11 C 0.5861(7) 0.7029(8) 0.3123(9)
C10_11 C 0.3952(7) 0.6888(8) 0.2802(9)
C11_11 C 0.4156(7) 0.6660(8) 0.2702(8)
C12_11 C 0.5581(7) 0.8640(8) 0.3338(9)
C13_11 C 0.4380(7) 0.6480(8) 0.2091(9)
C14_11 C 0.4630(7) 0.7820(8) 0.3291(9)
H6_11 H 0.481858 0.787356 0.318147
H7_11 H 0.455096 0.763734 0.316502
C15_11 C 0.4450(7) 0.8986(8) 0.1460(9)
H8_11 H 0.446467 0.919249 0.137194
O30_11 O 0.3066(7) 0.8232(8) 0.3455(8)
C16_11 C 0.4653(7) 0.8469(8) 0.1562(9)
C17_11 C 0.5871(7) 0.6497(9) 0.1720(10)
O31_9 O 0.5409(5) 0.7720(6) 0.4621(6)
O32_11 O 0.5068(6) 0.8042(6) 0.0249(6)
C18_11 C 0.5202(7) 0.7251(8) 0.1225(9)
C19_11 C 0.3906(7) 0.7718(8) 0.1902(10)
C20_11 C 0.4602(7) 0.6073(8) 0.1761(9)
C21_11 C 0.5049(8) 0.7702(9) 0.4144(10)
C22_11 C 0.5873(8) 0.6194(9) 0.1853(10)
C23_11 C 0.5814(7) 0.8265(8) 0.2167(8)
C24_11 C 0.4930(7) 0.6463(9) 0.0868(9)
H9_11 H 0.490226 0.625741 0.095198
C25_11 C 0.5002(7) 0.8919(9) 0.1298(9)
C26_11 C 0.5628(7) 0.6705(8) 0.1699(9)
C27_11 C 0.6219(7) 0.7396(9) 0.3440(9)
C28_11 C 0.4593(7) 0.6301(8) 0.2005(9)
C29_11 C 0.4420(7) 0.8097(8) 0.3240(9)
O33_11 O 0.3282(5) 0.7003(6) 0.3322(6)
C30_11 C 0.5441(7) 0.6624(8) 0.3158(9)
C31_11 C 0.4695(7) 0.8795(8) 0.1420(9)
C32_11 C 0.5272(7) 0.6074(8) 0.3030(10)
O34_11 O 0.5153(6) 0.5552(6) 0.2950(7)
C33_11 C 0.3739(7) 0.6842(8) 0.3056(9)
C34_11 C 0.6436(7) 0.7195(8) 0.3366(9)
H10_11 H 0.662718 0.724594 0.343877
C35_11 C 0.3388(8) 0.7466(9) 0.2024(10)
C36_11 C 0.5199(7) 0.7575(8) 0.1087(10)
C37_11 C 0.5212(8) 0.5790(9) 0.2818(11)
O35_11 O 0.6516(5) 0.7785(6) 0.3677(7)
C38_11 C 0.3820(4) 0.6147(5) 0.1450(5)
H11_11 H 0.381344 0.598370 0.128398
C39_11 C 0.3575(4) 0.6344(5) 0.1497(5)
H12_11 H 0.340474 0.631148 0.136220
C40_11 C 0.3585(4) 0.6588(5) 0.1744(6)
H13_11 H 0.342089 0.671986 0.177583
C41_11 C 0.3839(4) 0.6637(4) 0.1945(5)
H14_11 H 0.384573 0.680048 0.211124
C42_11 C 0.4084(3) 0.6440(5) 0.1899(5)
C43_11 C 0.4074(4) 0.6196(5) 0.1651(6)
O36_11 O 0.2384(8) 0.8541(9) 0.2952(10)
C44_11 C 0.3506(8) 0.7084(9) 0.3149(10)
C45_11 C 0.4858(7) 0.6534(8) 0.0517(9)
H15_11 H 0.480069 0.636869 0.036773
O37_11 O 0.6425(7) 0.5508(7) 0.2627(9)
O38_11 O 0.6093(5) 0.5988(6) 0.1812(6)
C46_11 C 0.5551(7) 0.6937(8) 0.3017(9)
H16_11 H 0.554095 0.693088 0.276023
H17_11 H 0.541683 0.710295 0.309676
C47_11 C 0.4361(7) 0.6724(8) 0.2408(8)
H18_11 H 0.430908 0.692978 0.230895
H19_11 H 0.455862 0.674458 0.250758
O39_11 O 0.3151(5) 0.7365(6) 0.1888(8)
C48_11 C 0.4981(7) 0.7744(9) 0.3815(9)
C49_11 C 0.5755(7) 0.8284(8) 0.1814(8)
C50_11 C 0.5082(7) 0.7973(9) 0.0582(9)
C51_11 C 0.5617(7) 0.8610(9) 0.3729(9)
O40_11 O 0.6865(8) 0.8461(9) 0.3599(10)
C52_11 C 0.4977(7) 0.7094(8) 0.0622(9)
C53_11 C 0.4813(4) 0.8797(5) 0.3630(6)
H20_11 H 0.499200 0.884339 0.374070
C54_11 C 0.4755(4) 0.8490(4) 0.3513(6)
H21_11 H 0.489559 0.833047 0.354507
C55_11 C 0.4487(5) 0.8421(4) 0.3347(6)
C56_11 C 0.4277(4) 0.8659(5) 0.3299(6)
C57_11 C 0.4335(4) 0.8966(4) 0.3416(6)
H22_11 H 0.419453 0.912525 0.338353
C58_11 C 0.4603(5) 0.9035(4) 0.3582(6)
H23_11 H 0.464146 0.924078 0.365993
N1_11 N 0.6601(10) 0.8815(11) 0.3247(12)
C59_11 C 0.4335(7) 0.6005(8) 0.1551(9)
H24_11 H 0.433037 0.585461 0.137024
C60_11 C 0.6270(7) 0.8311(8) 0.1662(9)
H25_11 H 0.641998 0.832554 0.149315
C61_11 C 0.3708(4) 0.9046(4) 0.1853(6)
H26_11 H 0.355596 0.919385 0.187923
C62_11 C 0.3959(4) 0.9123(4) 0.1657(6)
H27_11 H 0.397461 0.932229 0.155130
C63_11 C 0.4186(4) 0.8902(5) 0.1618(6)
C64_11 C 0.4162(4) 0.8604(4) 0.1776(6)
C65_11 C 0.3911(4) 0.8528(4) 0.1972(6)
H28_11 H 0.389549 0.832828 0.207793
C66_11 C 0.3684(4) 0.8748(5) 0.2011(6)
H29_11 H 0.351640 0.869684 0.214255
C67_11 C 0.3990(7) 0.8616(9) 0.3130(9)
H30_11 H 0.385442 0.878103 0.310279
C68_11 C 0.4124(7) 0.7863(8) 0.1670(9)
C69_11 C 0.4997(7) 0.7391(8) 0.0501(10)
H31_11 H 0.494440 0.743288 0.026670
C70_11 C 0.4867(7) 0.6828(8) 0.0389(10)
H32_11 H 0.480659 0.686873 0.015744
C71_11 C 0.5247(7) 0.6031(9) 0.3406(10)
H33_11 H 0.518181 0.583570 0.349128
C72_11 C 0.3610(8) 0.7554(9) 0.1409(10)
H34_11 H 0.344929 0.743833 0.132325
N2_11 N 0.6481(9) 0.5601(10) 0.3199(11)
C73_11 C 0.5600(7) 0.7002(8) 0.1566(10)
C74_11 C 0.4361(7) 0.8034(8) 0.1823(9)
H35_11 H 0.434481 0.801533 0.207891
H36_11 H 0.454470 0.792955 0.175426
C75_11 C 0.3936(7) 0.8302(8) 0.3010(10)
C76_11 C 0.3641(8) 0.8225(9) 0.2855(10)
C77_11 C 0.4832(8) 0.7582(9) 0.4408(10)
H37_11 H 0.488011 0.751879 0.463773
O41_6 O 0.2410(7) 0.7899(8) 0.3209(8)
C78_11 C 0.4685(8) 0.7728(9) 0.3657(9)
C79_11 C 0.6142(8) 0.6614(9) 0.1573(10)
H38_11 H 0.631393 0.649197 0.157575
C80_11 C 0.6610(3) 0.6449(5) 0.2912(6)
H39_11 H 0.677532 0.632282 0.286541
C81_11 C 0.6334(4) 0.6363(4) 0.2779(6)
H40_11 H 0.631460 0.618018 0.264233
C82_11 C 0.6088(3) 0.6552(5) 0.2848(6)
H41_11 H 0.590324 0.649466 0.275904
C83_11 C 0.6117(3) 0.6826(5) 0.3052(6)
C84_11 C 0.6394(4) 0.6911(4) 0.3186(6)
C85_11 C 0.6640(3) 0.6723(5) 0.3116(6)
H42_11 H 0.682467 0.677994 0.320523
O42_11 O 0.6833(12) 0.6061(12) 0.2145(9)
O43_11 O 0.2771(8) 0.7349(9) 0.2445(13)
C86_11 C 0.5905(7) 0.8364(9) 0.1167(9)
N3_11 N 0.1922(11) 0.8682(9) 0.2660(12)
C87_11 C 0.4854(7) 0.5897(9) 0.1639(9)
C88_11 C 0.5977(7) 0.8313(8) 0.1552(9)
C89_11 C 0.5096(7) 0.7647(8) 0.0720(9)
C90_11 C 0.5067(7) 0.7013(8) 0.0984(9)
C91_11 C 0.3622(7) 0.7593(9) 0.1777(10)
C92_11 C 0.5045(7) 0.6700(8) 0.1102(10)
H43_11 H 0.510448 0.664618 0.133040
O44_11 O 0.3330(9) 0.9267(11) 0.2722(10)
C93_11 C 0.5360(8) 0.7706(9) 0.4302(10)
C94_11 C 0.5554(7) 0.8992(8) 0.3227(9)
H44_11 H 0.556990 0.915171 0.339734
C95_11 C 0.4258(4) 0.7873(6) 0.0690(6)
H45_11 H 0.440717 0.794146 0.053686
C96_11 C 0.3996(5) 0.7750(6) 0.0554(5)
H46_11 H 0.396910 0.773536 0.031020
C97_11 C 0.3774(4) 0.7648(6) 0.0783(6)
H47_11 H 0.359818 0.756578 0.069261
C98_11 C 0.3814(4) 0.7670(6) 0.1148(6)
C99_11 C 0.4076(5) 0.7794(6) 0.1284(4)
C100_11 C 0.4299(4) 0.7895(6) 0.1055(6)
H48_11 H 0.447431 0.797796 0.114595
C101_11 C 0.4167(5) 0.5819(4) 0.3320(6)
H49_11 H 0.416892 0.563379 0.345385
C102_11 C 0.3939(4) 0.6039(5) 0.3363(5)
H50_11 H 0.378859 0.599968 0.352640
C103_11 C 0.3936(4) 0.6316(5) 0.3162(6)
C104_11 C 0.4160(5) 0.6374(4) 0.2918(5)
C105_11 C 0.4388(4) 0.6155(5) 0.2875(5)
H51_11 H 0.453832 0.619381 0.271128
C106_11 C 0.4391(4) 0.5878(5) 0.3075(6)
H52_11 H 0.454379 0.573085 0.304628
C107_11 C 0.5419(5) 0.9465(4) 0.2411(6)
H53_11 H 0.539215 0.967572 0.234401
C108_11 C 0.5413(5) 0.9226(5) 0.2156(4)
H54_11 H 0.538160 0.927674 0.191886
C109_11 C 0.5453(5) 0.8910(4) 0.2256(5)
H55_11 H 0.544907 0.875045 0.208548
C110_11 C 0.5500(5) 0.8834(4) 0.2610(5)
C111_11 C 0.5506(5) 0.9073(5) 0.2865(4)
C112_11 C 0.5466(5) 0.9388(4) 0.2765(5)
H56_11 H 0.547019 0.954842 0.293579
C113_11 C 0.6644(4) 0.8266(6) 0.2110(5)
H57_11 H 0.678972 0.829283 0.193780
C114_11 C 0.6346(4) 0.8286(6) 0.2018(4)
C115_11 C 0.6129(3) 0.8246(6) 0.2276(5)
C116_11 C 0.6209(4) 0.8184(6) 0.2625(5)
H58_11 H 0.606390 0.815680 0.279736
C117_11 C 0.6507(4) 0.8163(6) 0.2717(4)
H59_11 H 0.656111 0.812205 0.295077
C118_11 C 0.6725(3) 0.8204(6) 0.2460(5)
H60_11 H 0.692402 0.819006 0.252100
C119_11 C 0.4130(7) 0.8052(8) 0.3064(10)
C120_11 C 0.6257(8) 0.7686(9) 0.3622(10)
C121_11 C 0.5319(5) 0.6486(6) 0.4263(4)
H61_11 H 0.529185 0.645367 0.450475
C122_11 C 0.5401(5) 0.6784(5) 0.4137(5)
H62_11 H 0.542754 0.695161 0.429487
C123_11 C 0.5442(5) 0.6832(4) 0.3775(6)
H63_11 H 0.549615 0.703148 0.369121
C124_11 C 0.5402(5) 0.6581(5) 0.3539(4)
C125_11 C 0.5320(5) 0.6283(5) 0.3665(5)
C126_11 C 0.5279(5) 0.6235(4) 0.4027(6)
H64_11 H 0.522477 0.603559 0.411098
C127_11 C 0.6411(4) 0.7036(5) 0.1305(7)
H65_11 H 0.657695 0.690451 0.130303
C128_11 C 0.6140(5) 0.6920(4) 0.1424(7)
C129_11 C 0.5892(4) 0.7116(5) 0.1427(7)
C130_11 C 0.5915(4) 0.7428(5) 0.1310(7)
H66_11 H 0.574904 0.755983 0.131137
C131_11 C 0.6186(5) 0.7545(4) 0.1190(7)
H67_11 H 0.620093 0.775399 0.111212
C132_11 C 0.6434(4) 0.7348(6) 0.1188(7)
H68_11 H 0.661489 0.742633 0.110795
O45_11 O 0.2933(10) 0.8089(12) 0.2671(14)
C133_11 C 0.6668(11) 0.5636(12) 0.3505(13)
H69_11 H 0.678668 0.582406 0.348010
H70_11 H 0.654687 0.565349 0.371357
H71_11 H 0.679457 0.545349 0.352537
C134_11 C 0.6590(12) 0.5527(12) 0.2890(13)
H72_11 H 0.679248 0.548781 0.286674
C135_11 C 0.2135(14) 0.8709(15) 0.2872(16)
H73_11 H 0.211871 0.889133 0.301080
O46_11 O 0.6989(15) 0.7326(14) 0.4177(18)
C136_11 C 0.6147(11) 0.5658(12) 0.3204(14)
H74_11 H 0.610801 0.588049 0.324030
H75_11 H 0.606265 0.559229 0.298195
H76_11 H 0.605901 0.553782 0.339351
C137_11 C 0.6656(11) 0.8581(13) 0.3481(13)
C138_11 C 0.6308(10) 0.8896(12) 0.3177(13)
H77_11 H 0.618364 0.881650 0.336365
H78_11 H 0.629048 0.912333 0.316479
H79_11 H 0.624847 0.880442 0.295513
C139_11 C 0.4322(5) 0.7459(7) 0.4496(5)
H80_11 H 0.436878 0.742865 0.473337
C140_11 C 0.4535(4) 0.7574(7) 0.4262(6)
C141_11 C 0.4465(4) 0.7620(6) 0.3907(6)
C142_11 C 0.4181(5) 0.7552(6) 0.3785(5)
H81_11 H 0.413401 0.758239 0.354678
C143_11 C 0.3968(4) 0.7437(7) 0.4018(6)
H82_11 H 0.377785 0.739075 0.393626
C144_11 C 0.4038(5) 0.7391(6) 0.4373(6)
H83_11 H 0.389523 0.731388 0.452955
C145_9 C 0.1924(12) 0.8381(10) 0.2472(13)
H84_9 H 0.175871 0.836964 0.231259
H85_11 H 0.191821 0.820444 0.263289
H86_9 H 0.210561 0.837464 0.233839
C146_11 C 0.6808(12) 0.9002(14) 0.3058(15)
H87_11 H 0.692176 0.886776 0.290295
H88_11 H 0.670548 0.915926 0.292079
H89_11 H 0.693896 0.910520 0.322308
O47_11 O 0.7323(10) 0.7781(10) 0.4568(11)
O48_11 O 0.719(2) 0.772(2) 0.341(2)
C147_11 C 0.1692(12) 0.8909(14) 0.2556(15)
H90_11 H 0.170361 0.909475 0.270450
H91_11 H 0.149991 0.881405 0.257920
H92_9 H 0.172461 0.896945 0.231340
O49_11 O 0.2880(11) 0.8836(13) 0.2262(14)
O50_9 O 0.6703(12) 0.7920(13) 0.4600(13)
Ba5_9 Ba 0.60062(6) 0.80735(6) 0.44329(9)
Ba8_6 Ba 0.20100(8) 0.73668(11) 0.3104(2)
O52_9 O 0.2687(4) 0.8783(5) 0.3714(6)
O55_9 O 0.2625(5) 0.9290(5) 0.3289(5)
O56_9 O 0.3138(4) 0.9163(5) 0.3569(6)
O57_9 O 0.7380(5) 0.8457(5) 0.4271(6)
O58_9 O 0.7653(5) 0.8163(6) 0.3909(6)
O60_6 O 0.2590(7) 0.7101(8) 0.3209(8)
H93_11 H 0.671073 0.621352 0.228313
H94_11 H 0.691726 0.617016 0.193418
H95_11 H 0.350853 0.928739 0.287458
H96_11 H 0.32191 0.947105 0.272217
H97_11 H 0.289561 0.742138 0.224329
H98_11 H 0.256239 0.741561 0.240497
H99_11 H 0.680425 0.727832 0.431018
H100_11 H 0.716356 0.727474 0.432712
H101_11 H 0.645247 0.847831 0.358621
H102_11 H 0.304707 0.895473 0.21528
H103_11 H 0.269142 0.895088 0.221628
H104_11 H 0.71984 0.77928 0.478489
H105_11 H 0.749732 0.792328 0.459504
H106_11 H 0.712831 0.749357 0.339681
H107_11 H 0.740973 0.773365 0.340146
Ti4_12 Ti 0.12188(11) 0.74217(15) 0.26625(19)
O1_12 O 0.0121(4) 0.6736(5) 0.1502(6)
O5_12 O 0.0923(4) 0.7244(5) 0.2964(6)
O9_12 O 0.1057(4) 0.7245(5) 0.2241(6)
O10_12 O 0.1052(4) 0.7809(5) 0.2626(5)
O13_12 O 0.1569(5) 0.7531(6) 0.2352(7)
O14_12 O 0.1462(5) 0.7632(6) 0.3052(6)
O15_12 O 0.0143(4) 0.8640(5) 0.2188(6)
O21_12 O 0.1451(5) 0.7040(6) 0.2797(6)
O23_12 O 0.1530(5) 0.6519(6) 0.2842(6)
C6_12 C 0.0611(7) 0.6616(8) 0.1732(9)
C8_12 C 0.1257(7) 0.8448(8) 0.3227(9)
H5_12 H 0.139907 0.848229 0.340196
C10_12 C 0.1048(7) 0.8112(8) 0.2802(9)
C11_12 C 0.0844(7) 0.8340(8) 0.2702(8)
C13_12 C 0.0620(7) 0.8520(8) 0.2091(9)
C14_12 C 0.0370(7) 0.7180(8) 0.3291(9)
H6_12 H 0.018142 0.712644 0.318147
H7_12 H 0.044904 0.736266 0.316502
C15_12 C 0.0550(7) 0.6014(8) 0.1460(9)
H8_12 H 0.053533 0.580751 0.137194
O30_12 O 0.1934(7) 0.6768(8) 0.3455(8)
C16_12 C 0.0347(7) 0.6531(8) 0.1562(9)
C19_12 C 0.1094(7) 0.7282(8) 0.1902(10)
C20_12 C 0.0398(7) 0.8927(8) 0.1761(9)
C24_12 C 0.0070(7) 0.8537(9) 0.0868(9)
H9_12 H 0.009774 0.874259 0.095198
C28_12 C 0.0407(7) 0.8699(8) 0.2005(9)
C29_12 C 0.0580(7) 0.6903(8) 0.3240(9)
O33_12 O 0.1718(5) 0.7997(6) 0.3322(6)
C31_12 C 0.0305(7) 0.6205(8) 0.1420(9)
C33_12 C 0.1261(7) 0.8158(8) 0.3056(9)
C35_12 C 0.1612(8) 0.7534(9) 0.2024(10)
C38_12 C 0.1180(4) 0.8853(5) 0.1450(5)
H11_12 H 0.118656 0.901630 0.128398
C39_12 C 0.1425(4) 0.8656(5) 0.1497(5)
H12_12 H 0.159526 0.868852 0.136220
C40_12 C 0.1415(4) 0.8412(5) 0.1744(6)
H13_12 H 0.157911 0.828014 0.177583
C41_12 C 0.1161(4) 0.8363(4) 0.1945(5)
H14_12 H 0.115427 0.819952 0.211124
C42_12 C 0.0916(3) 0.8560(5) 0.1899(5)
C43_12 C 0.0926(4) 0.8804(5) 0.1651(6)
O36_12 O 0.2616(8) 0.6459(9) 0.2952(10)
C44_12 C 0.1494(8) 0.7916(9) 0.3149(10)
C45_12 C 0.0142(7) 0.8466(8) 0.0517(9)
H15_12 H 0.019931 0.863131 0.036773
C47_12 C 0.0639(7) 0.8276(8) 0.2408(8)
H18_12 H 0.069092 0.807022 0.230895
H19_12 H 0.044138 0.825542 0.250758
O39_12 O 0.1849(5) 0.7635(6) 0.1888(8)
C48_12 C 0.0019(7) 0.7256(9) 0.3815(9)
C52_12 C 0.0023(7) 0.7906(8) 0.0622(9)
C53_12 C 0.0187(4) 0.6203(5) 0.3630(6)
H20_12 H 0.000800 0.615661 0.374070
C54_12 C 0.0245(4) 0.6510(4) 0.3513(6)
H21_12 H 0.010441 0.666953 0.354507
C55_12 C 0.0513(5) 0.6579(4) 0.3347(6)
C56_12 C 0.0723(4) 0.6341(5) 0.3299(6)
C57_12 C 0.0665(4) 0.6034(4) 0.3416(6)
H22_12 H 0.080547 0.587475 0.338353
C58_12 C 0.0397(5) 0.5965(4) 0.3582(6)
H23_12 H 0.035854 0.575922 0.365993
C59_12 C 0.0665(7) 0.8995(8) 0.1551(9)
H24_12 H 0.066963 0.914539 0.137024
C61_12 C 0.1292(4) 0.5954(4) 0.1853(6)
H26_12 H 0.144404 0.580615 0.187923
C62_12 C 0.1041(4) 0.5877(4) 0.1657(6)
H27_12 H 0.102539 0.567771 0.155130
C63_12 C 0.0814(4) 0.6098(5) 0.1618(6)
C64_12 C 0.0838(4) 0.6396(4) 0.1776(6)
C65_12 C 0.1089(4) 0.6472(4) 0.1972(6)
H28_12 H 0.110451 0.667172 0.207793
C66_12 C 0.1316(4) 0.6252(5) 0.2011(6)
H29_12 H 0.148360 0.630316 0.214255
C67_12 C 0.1010(7) 0.6384(9) 0.3130(9)
H30_12 H 0.114558 0.621897 0.310279
C68_12 C 0.0876(7) 0.7137(8) 0.1670(9)
C69_12 C 0.0003(7) 0.7609(8) 0.0501(10)
H31_12 H 0.005560 0.756712 0.026670
C70_12 C 0.0133(7) 0.8172(8) 0.0389(10)
H32_12 H 0.019341 0.813127 0.015744
C72_12 C 0.1390(8) 0.7446(9) 0.1409(10)
H34_12 H 0.155071 0.756167 0.132325
C74_12 C 0.0639(7) 0.6966(8) 0.1823(9)
H35_12 H 0.065519 0.698467 0.207891
H36_12 H 0.045530 0.707045 0.175426
C75_12 C 0.1064(7) 0.6698(8) 0.3010(10)
C76_12 C 0.1359(8) 0.6775(9) 0.2855(10)
C77_12 C 0.0168(8) 0.7418(9) 0.4408(10)
H37_12 H 0.011989 0.748121 0.463773
C78_12 C 0.0315(8) 0.7272(9) 0.3657(9)
O43_12 O 0.2229(8) 0.7651(9) 0.2445(13)
N3_12 N 0.3078(11) 0.6318(9) 0.2660(12)
C87_12 C 0.0146(7) 0.9103(9) 0.1639(9)
C91_12 C 0.1378(7) 0.7407(9) 0.1777(10)
O44_12 O 0.1670(9) 0.5733(11) 0.2722(10)
C95_12 C 0.0742(4) 0.7127(6) 0.0690(6)
H45_12 H 0.059283 0.705854 0.053686
C96_12 C 0.1004(5) 0.7250(6) 0.0554(5)
H46_12 H 0.103090 0.726464 0.031020
C97_12 C 0.1226(4) 0.7352(6) 0.0783(6)
H47_12 H 0.140182 0.743422 0.069261
C98_12 C 0.1186(4) 0.7330(6) 0.1148(6)
C99_12 C 0.0924(5) 0.7206(6) 0.1284(4)
C100_12 C 0.0701(4) 0.7105(6) 0.1055(6)
H48_12 H 0.052569 0.702204 0.114595
C101_12 C 0.0833(5) 0.9181(4) 0.3320(6)
H49_12 H 0.083108 0.936621 0.345385
C102_12 C 0.1061(4) 0.8961(5) 0.3363(5)
H50_12 H 0.121141 0.900032 0.352640
C103_12 C 0.1064(4) 0.8684(5) 0.3162(6)
C104_12 C 0.0840(5) 0.8626(4) 0.2918(5)
C105_12 C 0.0612(4) 0.8845(5) 0.2875(5)
H51_12 H 0.046168 0.880619 0.271128
C106_12 C 0.0609(4) 0.9122(5) 0.3075(6)
H52_12 H 0.045621 0.926915 0.304628
C119_12 C 0.0870(7) 0.6948(8) 0.3064(10)
O45_12 O 0.2067(10) 0.6911(12) 0.2671(14)
C135_12 C 0.2865(14) 0.6291(15) 0.2872(16)
H73_12 H 0.288129 0.610867 0.301080
C139_12 C 0.0678(5) 0.7541(7) 0.4496(5)
H80_12 H 0.063122 0.757135 0.473337
C140_12 C 0.0465(4) 0.7426(7) 0.4262(6)
C141_12 C 0.0535(4) 0.7380(6) 0.3907(6)
C142_12 C 0.0819(5) 0.7448(6) 0.3785(5)
H81_12 H 0.086599 0.741761 0.354678
C143_12 C 0.1032(4) 0.7563(7) 0.4018(6)
H82_12 H 0.122215 0.760925 0.393626
C144_12 C 0.0962(5) 0.7609(6) 0.4373(6)
H83_12 H 0.110477 0.768612 0.452955
C145_10 C 0.3076(12) 0.6619(10) 0.2472(13)
H84_10 H 0.324129 0.663036 0.231259
H85_12 H 0.308179 0.679556 0.263289
H86_10 H 0.289439 0.662536 0.233839
C147_12 C 0.3308(12) 0.6091(14) 0.2556(15)
H90_12 H 0.329639 0.590525 0.270450
H91_12 H 0.350009 0.618595 0.257920
H92_10 H 0.327539 0.603055 0.231340
O49_12 O 0.2120(11) 0.6164(13) 0.2262(14)
H95_12 H 0.149147 0.571261 0.287458
H96_12 H 0.17809 0.552895 0.272217
H97_12 H 0.210439 0.757862 0.224329
H98_12 H 0.243761 0.758439 0.240497
H102_12 H 0.195293 0.604527 0.21528
H103_12 H 0.230858 0.604912 0.221628
Ti1_12 Ti 0.93980(12) 0.71077(14) 0.35768(15)
Ti2_12 Ti 0.97503(11) 0.67519(14) 0.13037(16)
Ti3_12 Ti 0.97466(12) 0.87512(14) 0.21632(18)
O2_12 O 0.9307(4) 0.7495(5) 0.3362(5)
O3_12 O 0.9543(4) 0.6712(5) 0.1721(5)
O4_12 O 0.9369(4) 0.6866(5) 0.3161(5)
O6_12 O 0.9726(5) 0.7202(5) 0.1286(6)
O11_12 O 0.9349(5) 0.8921(6) 0.2028(6)
O12_12 O 0.9621(4) 0.8553(5) 0.2584(6)
O18_12 O 0.9805(4) 0.7133(5) 0.3588(6)
O20_12 O 0.9628(4) 0.8410(5) 0.1867(6)
O24_12 O 0.9992(4) 0.5790(5) 0.1244(6)
O25_12 O 0.9789(5) 0.9149(5) 0.2486(7)
O27_12 O 0.8884(5) 0.6652(6) 0.0941(6)
O28_12 O 0.9362(5) 0.6156(5) 0.3917(6)
C1_12 C 0.9439(7) 0.6772(8) 0.2444(8)
H1_12 H 0.962840 0.677710 0.232100
H2_12 H 0.941563 0.697311 0.256702
C2_12 C 0.9084(7) 0.7697(8) 0.3306(9)
C3_12 C 0.9632(7) 0.8619(8) 0.2932(9)
C4_12 C 0.9442(7) 0.6492(8) 0.2726(8)
C5_12 C 0.9673(7) 0.7819(8) 0.1549(9)
H3_12 H 0.964022 0.761973 0.167136
H4_12 H 0.982035 0.793588 0.168445
C7_12 C 0.9416(7) 0.6571(8) 0.3082(8)
C9_12 C 0.9139(7) 0.7971(8) 0.3123(9)
C12_12 C 0.9419(7) 0.6360(8) 0.3338(9)
C17_12 C 0.9129(7) 0.8503(9) 0.1720(10)
O32_12 O 0.9932(6) 0.6958(6) 0.0249(6)
C18_12 C 0.9798(7) 0.7749(8) 0.1225(9)
C21_12 C 0.9951(8) 0.7298(9) 0.4144(10)
C22_12 C 0.9127(8) 0.8806(9) 0.1853(10)
C23_12 C 0.9186(7) 0.6735(8) 0.2167(8)
C25_12 C 0.9998(7) 0.6081(9) 0.1298(9)
C26_12 C 0.9372(7) 0.8295(8) 0.1699(9)
C27_12 C 0.8781(7) 0.7604(9) 0.3440(9)
C30_12 C 0.9559(7) 0.8376(8) 0.3158(9)
C32_12 C 0.9728(7) 0.8926(8) 0.3030(10)
O34_12 O 0.9847(6) 0.9448(6) 0.2950(7)
C34_12 C 0.8564(7) 0.7805(8) 0.3366(9)
H10_12 H 0.837282 0.775406 0.343877
C36_12 C 0.9801(7) 0.7425(8) 0.1087(10)
C37_12 C 0.9788(8) 0.9210(9) 0.2818(11)
O35_12 O 0.8484(5) 0.7215(6) 0.3677(7)
O37_12 O 0.8575(7) 0.9492(7) 0.2627(9)
O38_12 O 0.8907(5) 0.9012(6) 0.1812(6)
C46_12 C 0.9449(7) 0.8063(8) 0.3017(9)
H16_12 H 0.945905 0.806912 0.276023
H17_12 H 0.958317 0.789705 0.309676
C49_12 C 0.9245(7) 0.6716(8) 0.1814(8)
C50_12 C 0.9918(7) 0.7027(9) 0.0582(9)
C51_12 C 0.9383(7) 0.6390(9) 0.3729(9)
O40_12 O 0.8135(8) 0.6539(9) 0.3599(10)
N1_12 N 0.8399(10) 0.6185(11) 0.3247(12)
C60_12 C 0.8730(7) 0.6689(8) 0.1662(9)
H25_12 H 0.858002 0.667446 0.149315
C71_12 C 0.9753(7) 0.8969(9) 0.3406(10)
H33_12 H 0.981819 0.916430 0.349128
N2_12 N 0.8519(9) 0.9399(10) 0.3199(11)
C73_12 C 0.9400(7) 0.7998(8) 0.1566(10)
C79_12 C 0.8858(8) 0.8386(9) 0.1573(10)
H38_12 H 0.868607 0.850803 0.157575
C80_12 C 0.8390(3) 0.8551(5) 0.2912(6)
H39_12 H 0.822468 0.867718 0.286541
C81_12 C 0.8666(4) 0.8637(4) 0.2779(6)
H40_12 H 0.868540 0.881982 0.264233
C82_12 C 0.8912(3) 0.8448(5) 0.2848(6)
H41_12 H 0.909676 0.850534 0.275904
C83_12 C 0.8883(3) 0.8174(5) 0.3052(6)
C84_12 C 0.8606(4) 0.8089(4) 0.3186(6)
C85_12 C 0.8360(3) 0.8277(5) 0.3116(6)
H42_12 H 0.817533 0.822006 0.320523
O42_12 O 0.8167(12) 0.8939(12) 0.2145(9)
C86_12 C 0.9095(7) 0.6636(9) 0.1167(9)
C88_12 C 0.9023(7) 0.6687(8) 0.1552(9)
C89_12 C 0.9904(7) 0.7353(8) 0.0720(9)
C90_12 C 0.9933(7) 0.7987(8) 0.0984(9)
C92_12 C 0.9955(7) 0.8300(8) 0.1102(10)
H43_12 H 0.989552 0.835382 0.133040
C93_12 C 0.9640(8) 0.7294(9) 0.4302(10)
C94_12 C 0.9446(7) 0.6008(8) 0.3227(9)
H44_12 H 0.943010 0.584829 0.339734
C107_12 C 0.9581(5) 0.5535(4) 0.2411(6)
H53_12 H 0.960785 0.532428 0.234401
C108_12 C 0.9587(5) 0.5774(5) 0.2156(4)
H54_12 H 0.961840 0.572326 0.191886
C109_12 C 0.9547(5) 0.6090(4) 0.2256(5)
H55_12 H 0.955093 0.624955 0.208548
C110_12 C 0.9500(5) 0.6166(4) 0.2610(5)
C111_12 C 0.9494(5) 0.5927(5) 0.2865(4)
C112_12 C 0.9534(5) 0.5612(4) 0.2765(5)
H56_12 H 0.952981 0.545158 0.293579
C113_12 C 0.8356(4) 0.6734(6) 0.2110(5)
H57_12 H 0.821028 0.670717 0.193780
C114_12 C 0.8654(4) 0.6714(6) 0.2018(4)
C115_12 C 0.8871(3) 0.6754(6) 0.2276(5)
C116_12 C 0.8791(4) 0.6816(6) 0.2625(5)
H58_12 H 0.893610 0.684320 0.279736
C117_12 C 0.8493(4) 0.6837(6) 0.2717(4)
H59_12 H 0.843889 0.687795 0.295077
C118_12 C 0.8275(3) 0.6796(6) 0.2460(5)
H60_12 H 0.807598 0.680994 0.252100
C120_12 C 0.8743(8) 0.7314(9) 0.3622(10)
C121_12 C 0.9681(5) 0.8514(6) 0.4263(4)
H61_12 H 0.970815 0.854633 0.450475
C122_12 C 0.9599(5) 0.8216(5) 0.4137(5)
H62_12 H 0.957246 0.804839 0.429487
C123_12 C 0.9558(5) 0.8168(4) 0.3775(6)
H63_12 H 0.950385 0.796852 0.369121
C124_12 C 0.9598(5) 0.8419(5) 0.3539(4)
C125_12 C 0.9680(5) 0.8717(5) 0.3665(5)
C126_12 C 0.9721(5) 0.8765(4) 0.4027(6)
H64_12 H 0.977523 0.896441 0.411098
C127_12 C 0.8589(4) 0.7964(5) 0.1305(7)
H65_12 H 0.842305 0.809549 0.130303
C128_12 C 0.8860(5) 0.8080(4) 0.1424(7)
C129_12 C 0.9108(4) 0.7884(5) 0.1427(7)
C130_12 C 0.9085(4) 0.7572(5) 0.1310(7)
H66_12 H 0.925096 0.744017 0.131137
C131_12 C 0.8814(5) 0.7455(4) 0.1190(7)
H67_12 H 0.879907 0.724601 0.111212
C132_12 C 0.8566(4) 0.7652(6) 0.1188(7)
H68_12 H 0.838511 0.757367 0.110795
C133_12 C 0.8332(11) 0.9364(12) 0.3505(13)
H69_12 H 0.821332 0.917594 0.348010
H70_12 H 0.845313 0.934651 0.371357
H71_12 H 0.820543 0.954651 0.352537
C134_12 C 0.8410(12) 0.9473(12) 0.2890(13)
H72_12 H 0.820752 0.951219 0.286674
O46_12 O 0.8011(15) 0.7674(14) 0.4177(18)
C136_12 C 0.8853(11) 0.9342(12) 0.3204(14)
H74_12 H 0.889199 0.911951 0.324030
H75_12 H 0.893735 0.940771 0.298195
H76_12 H 0.894099 0.946218 0.339351
C137_12 C 0.8344(11) 0.6419(13) 0.3481(13)
C138_12 C 0.8692(10) 0.6104(12) 0.3177(13)
H77_12 H 0.881636 0.618350 0.336365
H78_12 H 0.870952 0.587667 0.316479
H79_12 H 0.875153 0.619558 0.295513
C146_12 C 0.8192(12) 0.5998(14) 0.3058(15)
H87_12 H 0.807824 0.613224 0.290295
H88_12 H 0.829452 0.584074 0.292079
H89_12 H 0.806104 0.589480 0.322308
O47_12 O 0.7677(10) 0.7219(10) 0.4568(11)
O48_12 O 0.781(2) 0.728(2) 0.341(2)
H93_12 H 0.828927 0.878648 0.228313
H94_12 H 0.808274 0.882984 0.193418
H99_12 H 0.819575 0.772168 0.431018
H100_12 H 0.783644 0.772526 0.432712
H101_12 H 0.854753 0.652169 0.358621
H104_12 H 0.78016 0.72072 0.478489
H105_12 H 0.750268 0.707672 0.459504
H106_12 H 0.787169 0.750643 0.339681
H107_12 H 0.759027 0.726635 0.340146
Ti3_13 Ti 0.27534(12) 0.12512(14) 0.46632(18)
O10_13 O 0.1448(4) 0.0309(5) 0.5126(5)
O11_13 O 0.3151(5) 0.1421(6) 0.4528(6)
O12_13 O 0.2879(4) 0.1053(5) 0.5084(6)
O13_13 O 0.0931(5) 0.0031(6) 0.4852(7)
O14_13 O 0.1038(5) 0.0132(6) 0.5552(6)
O15_13 O 0.2357(4) 0.1140(5) 0.4688(6)
O20_13 O 0.2872(4) 0.0910(5) 0.4367(6)
O25_13 O 0.2711(5) 0.1649(5) 0.4986(7)
C2_13 C 0.3416(7) 0.0197(8) 0.5806(9)
C3_13 C 0.2868(7) 0.1119(8) 0.5432(9)
C5_13 C 0.2827(7) 0.0319(8) 0.4049(9)
H3_13 H 0.285978 0.011973 0.417136
H4_13 H 0.267965 0.043588 0.418445
C8_13 C 0.1243(7) 0.0948(8) 0.5727(9)
H5_13 H 0.110093 0.098229 0.590196
C9_13 C 0.3361(7) 0.0471(8) 0.5623(9)
C10_13 C 0.1452(7) 0.0612(8) 0.5302(9)
C11_13 C 0.1656(7) 0.0840(8) 0.5202(8)
C13_13 C 0.1880(7) 0.1020(8) 0.4591(9)
C17_13 C 0.3371(7) 0.1003(9) 0.4220(10)
C18_13 C 0.2702(7) 0.0249(8) 0.3725(9)
C20_13 C 0.2102(7) 0.1427(8) 0.4261(9)
C22_13 C 0.3373(8) 0.1306(9) 0.4353(10)
C24_13 C 0.2430(7) 0.1037(9) 0.3368(9)
H9_13 H 0.240226 0.124259 0.345198
C26_13 C 0.3128(7) 0.0795(8) 0.4199(9)
C27_13 C 0.3719(7) 0.0104(9) 0.5940(9)
C28_13 C 0.2093(7) 0.1199(8) 0.4505(9)
O33_13 O 0.0782(5) 0.0497(6) 0.5822(6)
C30_13 C 0.2941(7) 0.0876(8) 0.5658(9)
C32_13 C 0.2772(7) 0.1426(8) 0.5530(10)
O34_13 O 0.2653(6) 0.1948(6) 0.5450(7)
C33_13 C 0.1239(7) 0.0658(8) 0.5556(9)
C34_13 C 0.3936(7) 0.0305(8) 0.5866(9)
H10_13 H 0.412718 0.025406 0.593877
C35_13 C 0.0888(8) 0.0034(9) 0.4524(10)
C37_13 C 0.2712(8) 0.1710(9) 0.5318(11)
C38_13 C 0.1320(4) 0.1353(5) 0.3950(5)
H11_13 H 0.131344 0.151630 0.378398
C39_13 C 0.1075(4) 0.1156(5) 0.3997(5)
H12_13 H 0.090474 0.118852 0.386220
C40_13 C 0.1085(4) 0.0912(5) 0.4244(6)
H13_13 H 0.092089 0.078014 0.427583
C41_13 C 0.1339(4) 0.0863(4) 0.4445(5)
H14_13 H 0.134573 0.069952 0.461124
C42_13 C 0.1584(3) 0.1060(5) 0.4399(5)
C43_13 C 0.1574(4) 0.1304(5) 0.4151(6)
C44_13 C 0.1006(8) 0.0416(9) 0.5649(10)
C45_13 C 0.2358(7) 0.0966(8) 0.3017(9)
H15_13 H 0.230069 0.113131 0.286773
O37_13 O 0.3925(7) 0.1992(7) 0.5127(9)
O38_13 O 0.3593(5) 0.1512(6) 0.4312(6)
C46_13 C 0.3051(7) 0.0563(8) 0.5517(9)
H16_13 H 0.304095 0.056912 0.526023
H17_13 H 0.291683 0.039705 0.559676
C47_13 C 0.1861(7) 0.0776(8) 0.4908(8)
H18_13 H 0.180908 0.057022 0.480895
H19_13 H 0.205862 0.075542 0.500758
O39_13 O 0.0651(5) 0.0135(6) 0.4388(8)
C52_13 C 0.2477(7) 0.0406(8) 0.3122(9)
C59_13 C 0.1835(7) 0.1495(8) 0.4051(9)
H24_13 H 0.183037 0.164539 0.387024
C69_13 C 0.2497(7) 0.0109(8) 0.3001(10)
H31_13 H 0.244440 0.006712 0.276670
C70_13 C 0.2367(7) 0.0672(8) 0.2889(10)
H32_13 H 0.230659 0.063127 0.265744
C71_13 C 0.2747(7) 0.1469(9) 0.5906(10)
H33_13 H 0.268181 0.166430 0.599128
H34_13 H 0.094929 0.006167 0.382325
N2_13 N 0.3981(9) 0.1899(10) 0.5699(11)
C73_13 C 0.3100(7) 0.0498(8) 0.4066(10)
C79_13 C 0.3642(8) 0.0886(9) 0.4073(10)
H38_13 H 0.381393 0.100803 0.407575
C80_13 C 0.4110(3) 0.1051(5) 0.5412(6)
H39_13 H 0.427532 0.117718 0.536541
C81_13 C 0.3834(4) 0.1137(4) 0.5279(6)
H40_13 H 0.381460 0.131982 0.514233
C82_13 C 0.3588(3) 0.0948(5) 0.5348(6)
H41_13 H 0.340324 0.100534 0.525904
C83_13 C 0.3617(3) 0.0674(5) 0.5552(6)
C84_13 C 0.3894(4) 0.0589(4) 0.5686(6)
C85_13 C 0.4140(3) 0.0777(5) 0.5616(6)
H42_13 H 0.432467 0.072006 0.570523
O42_13 O 0.4333(12) 0.1439(12) 0.4645(9)
O43_13 O 0.0271(8) 0.0151(9) 0.4945(13)
C87_13 C 0.2354(7) 0.1603(9) 0.4139(9)
C90_13 C 0.2567(7) 0.0487(8) 0.3484(9)
C92_13 C 0.2545(7) 0.0800(8) 0.3602(10)
H43_13 H 0.260448 0.085382 0.383040
C101_13 C 0.1667(5) 0.1681(4) 0.5820(6)
H49_13 H 0.166892 0.186621 0.595385
C102_13 C 0.1439(4) 0.1461(5) 0.5863(5)
H50_13 H 0.128859 0.150032 0.602640
C103_13 C 0.1436(4) 0.1184(5) 0.5662(6)
C104_13 C 0.1660(5) 0.1126(4) 0.5418(5)
C105_13 C 0.1888(4) 0.1345(5) 0.5375(5)
H51_13 H 0.203832 0.130619 0.521128
C106_13 C 0.1891(4) 0.1622(5) 0.5575(6)
H52_13 H 0.204379 0.176915 0.554628
C121_13 C 0.2819(5) 0.1014(6) 0.6763(4)
H61_13 H 0.279185 0.104633 0.700475
C122_13 C 0.2901(5) 0.0716(5) 0.6637(5)
H62_13 H 0.292754 0.054839 0.679487
C123_13 C 0.2942(5) 0.0668(4) 0.6275(6)
H63_13 H 0.299615 0.046852 0.619121
C124_13 C 0.2902(5) 0.0919(5) 0.6039(4)
C125_13 C 0.2820(5) 0.1217(5) 0.6165(5)
C126_13 C 0.2779(5) 0.1265(4) 0.6527(6)
H64_13 H 0.272477 0.146441 0.661098
C127_13 C 0.3911(4) 0.0464(5) 0.3805(7)
H65_13 H 0.407695 0.059549 0.380303
C128_13 C 0.3640(5) 0.0580(4) 0.3924(7)
C129_13 C 0.3392(4) 0.0384(5) 0.3927(7)
C130_13 C 0.3415(4) 0.0072(5) 0.3810(7)
C132_13 C 0.3934(4) 0.0152(6) 0.3688(7)
H68_13 H 0.411489 0.007367 0.360795
C133_13 C 0.4168(11) 0.1864(12) 0.6005(13)
H69_13 H 0.428668 0.167594 0.598010
H70_13 H 0.404687 0.184651 0.621357
H71_13 H 0.429457 0.204651 0.602537
C134_13 C 0.4090(12) 0.1973(12) 0.5390(13)
H72_13 H 0.429248 0.201219 0.536674
O46_13 O 0.4489(15) 0.0174(14) 0.6677(18)
C136_13 C 0.3647(11) 0.1842(12) 0.5704(14)
H74_13 H 0.360801 0.161951 0.574030
H75_13 H 0.356265 0.190771 0.548195
H76_13 H 0.355901 0.196218 0.589351
C139_13 C 0.1822(5) 0.0041(7) 0.6996(5)
H80_13 H 0.186878 0.007135 0.723337
C143_13 C 0.1468(4) 0.0063(7) 0.6518(6)
H82_13 H 0.127785 0.010925 0.643626
C144_13 C 0.1538(5) 0.0109(6) 0.6873(6)
H83_13 H 0.139523 0.018612 0.702955
O60_7 O 0.0090(7) 0.0399(8) 0.5709(8)
H93_13 H 0.421073 0.128648 0.478313
H94_13 H 0.441726 0.132984 0.443418
H97_13 H 0.0395609 0.0078621 0.474329
H98_13 H 0.0062393 0.00843877 0.490497
H99_13 H 0.430425 0.0221677 0.681018
H100_13 H 0.466356 0.0225259 0.682712
H106_13 H 0.462831 0.000642557 0.589681
Ba4_7 Ba 0.04900(8) 0.98668(11) 0.5604(2)
Ti1_13 Ti 0.31020(12) 0.96077(14) 0.60768(15)
Ti2_13 Ti 0.27497(11) 0.92519(14) 0.38037(16)
Ti4_13 Ti 0.12812(11) 0.99217(15) 0.51625(19)
O1_13 O 0.2379(4) 0.9236(5) 0.4002(6)
O2_13 O 0.3193(4) 0.9995(5) 0.5862(5)
O3_13 O 0.2957(4) 0.9212(5) 0.4221(5)
O4_13 O 0.3131(4) 0.9366(5) 0.5661(5)
O5_13 O 0.1577(4) 0.9744(5) 0.5464(6)
O6_13 O 0.2774(5) 0.9702(5) 0.3786(6)
O9_13 O 0.1443(4) 0.9745(5) 0.4741(6)
O18_13 O 0.2695(4) 0.9633(5) 0.6088(6)
O21_13 O 0.1049(5) 0.9540(6) 0.5297(6)
O23_13 O 0.0970(5) 0.9019(6) 0.5342(6)
O24_13 O 0.2508(4) 0.8290(5) 0.3744(6)
O27_13 O 0.3616(5) 0.9152(6) 0.3441(6)
O28_13 O 0.3138(5) 0.8656(5) 0.6417(6)
C1_13 C 0.3061(7) 0.9272(8) 0.4944(8)
H1_13 H 0.287160 0.927710 0.482100
H2_13 H 0.308437 0.947311 0.506702
C4_13 C 0.3058(7) 0.8992(8) 0.5226(8)
C6_13 C 0.1889(7) 0.9116(8) 0.4232(9)
C7_13 C 0.3084(7) 0.9071(8) 0.5582(8)
C12_13 C 0.3081(7) 0.8860(8) 0.5838(9)
C14_13 C 0.2130(7) 0.9680(8) 0.5791(9)
H6_13 H 0.231858 0.962644 0.568147
H7_13 H 0.205096 0.986266 0.566502
C15_13 C 0.1950(7) 0.8514(8) 0.3960(9)
H8_13 H 0.196467 0.830751 0.387194
O30_13 O 0.0566(7) 0.9268(8) 0.5955(8)
C16_13 C 0.2153(7) 0.9031(8) 0.4062(9)
O32_13 O 0.2568(6) 0.9458(6) 0.2749(6)
C19_13 C 0.1406(7) 0.9782(8) 0.4402(10)
C21_13 C 0.2549(8) 0.9798(9) 0.6644(10)
C23_13 C 0.3314(7) 0.9235(8) 0.4667(8)
C25_13 C 0.2502(7) 0.8581(9) 0.3798(9)
C29_13 C 0.1920(7) 0.9403(8) 0.5740(9)
C31_13 C 0.2195(7) 0.8705(8) 0.3920(9)
C36_13 C 0.2699(7) 0.9925(8) 0.3587(10)
O35_13 O 0.4016(5) 0.9715(6) 0.6177(7)
C48_13 C 0.2481(7) 0.9756(9) 0.6315(9)
C49_13 C 0.3255(7) 0.9216(8) 0.4314(8)
C50_13 C 0.2582(7) 0.9527(9) 0.3082(9)
C51_13 C 0.3117(7) 0.8890(9) 0.6229(9)
O40_13 O 0.4365(8) 0.9039(9) 0.6099(10)
C53_13 C 0.2313(4) 0.8703(5) 0.6130(6)
H20_13 H 0.249200 0.865661 0.624070
C54_13 C 0.2255(4) 0.9010(4) 0.6013(6)
H21_13 H 0.239559 0.916953 0.604507
C55_13 C 0.1987(5) 0.9079(4) 0.5847(6)
C56_13 C 0.1777(4) 0.8841(5) 0.5799(6)
C57_13 C 0.1835(4) 0.8534(4) 0.5916(6)
H22_13 H 0.169453 0.837475 0.588353
C58_13 C 0.2103(5) 0.8465(4) 0.6082(6)
H23_13 H 0.214146 0.825922 0.615993
N1_13 N 0.4101(10) 0.8685(11) 0.5747(12)
C60_13 C 0.3770(7) 0.9189(8) 0.4162(9)
H25_13 H 0.391998 0.917446 0.399315
C61_13 C 0.1208(4) 0.8454(4) 0.4353(6)
H26_13 H 0.105596 0.830615 0.437923
C62_13 C 0.1459(4) 0.8377(4) 0.4157(6)
H27_13 H 0.147461 0.817771 0.405130
C63_13 C 0.1686(4) 0.8598(5) 0.4118(6)
C64_13 C 0.1662(4) 0.8896(4) 0.4276(6)
C65_13 C 0.1411(4) 0.8972(4) 0.4472(6)
H28_13 H 0.139549 0.917172 0.457793
C66_13 C 0.1184(4) 0.8752(5) 0.4511(6)
H29_13 H 0.101640 0.880316 0.464255
C67_13 C 0.1490(7) 0.8884(9) 0.5630(9)
H30_13 H 0.135442 0.871897 0.560279
C68_13 C 0.1624(7) 0.9637(8) 0.4170(9)
C72_13 C 0.1110(8) 0.9946(9) 0.3909(10)
C74_13 C 0.1861(7) 0.9466(8) 0.4323(9)
H35_13 H 0.184481 0.948467 0.457891
H36_13 H 0.204470 0.957045 0.425426
C75_13 C 0.1436(7) 0.9198(8) 0.5510(10)
C76_13 C 0.1141(8) 0.9275(9) 0.5355(10)
C77_13 C 0.2332(8) 0.9918(9) 0.6908(10)
H37_13 H 0.238011 0.998121 0.713773
C78_13 C 0.2185(8) 0.9772(9) 0.6157(9)
C86_13 C 0.3405(7) 0.9136(9) 0.3667(9)
C88_13 C 0.3477(7) 0.9187(8) 0.4052(9)
C89_13 C 0.2596(7) 0.9853(8) 0.3220(9)
C91_13 C 0.1122(7) 0.9907(9) 0.4277(10)
O44_13 O 0.0830(9) 0.8233(11) 0.5222(10)
C93_13 C 0.2860(8) 0.9794(9) 0.6802(10)
C94_13 C 0.3054(7) 0.8508(8) 0.5727(9)
H44_13 H 0.306990 0.834829 0.589734
C95_13 C 0.1758(4) 0.9627(6) 0.3190(6)
H45_13 H 0.190717 0.955854 0.303686
C96_13 C 0.1496(5) 0.9750(6) 0.3054(5)
H46_13 H 0.146910 0.976464 0.281020
C97_13 C 0.1274(4) 0.9852(6) 0.3283(6)
H47_13 H 0.109818 0.993422 0.319261
C98_13 C 0.1314(4) 0.9830(6) 0.3648(6)
C99_13 C 0.1576(5) 0.9706(6) 0.3784(4)
C100_13 C 0.1799(4) 0.9605(6) 0.3555(6)
H48_13 H 0.197431 0.952204 0.364595
C107_13 C 0.2919(5) 0.8035(4) 0.4911(6)
H53_13 H 0.289215 0.782428 0.484401
C108_13 C 0.2913(5) 0.8274(5) 0.4656(4)
H54_13 H 0.288160 0.822326 0.441886
C109_13 C 0.2953(5) 0.8590(4) 0.4756(5)
H55_13 H 0.294907 0.874955 0.458548
C110_13 C 0.3000(5) 0.8666(4) 0.5110(5)
C111_13 C 0.3006(5) 0.8427(5) 0.5365(4)
C112_13 C 0.2966(5) 0.8112(4) 0.5265(5)
H56_13 H 0.297019 0.795158 0.543579
C113_13 C 0.4144(4) 0.9234(6) 0.4610(5)
H57_13 H 0.428972 0.920717 0.443780
C114_13 C 0.3846(4) 0.9214(6) 0.4518(4)
C115_13 C 0.3629(3) 0.9254(6) 0.4776(5)
C116_13 C 0.3709(4) 0.9316(6) 0.5125(5)
H58_13 H 0.356390 0.934320 0.529736
C117_13 C 0.4007(4) 0.9337(6) 0.5217(4)
H59_13 H 0.406111 0.937795 0.545077
C118_13 C 0.4225(3) 0.9296(6) 0.4960(5)
H60_13 H 0.442402 0.930994 0.502100
C119_13 C 0.1630(7) 0.9448(8) 0.5564(10)
C120_13 C 0.3757(8) 0.9814(9) 0.6122(10)
H66_13 H 0.324904 0.994017 0.381137
C131_13 C 0.3686(5) 0.9955(4) 0.3690(7)
H67_13 H 0.370093 0.974601 0.361212
O45_13 O 0.0433(10) 0.9411(12) 0.5171(14)
C137_13 C 0.4156(11) 0.8919(13) 0.5981(13)
C138_13 C 0.3808(10) 0.8604(12) 0.5677(13)
H77_13 H 0.368364 0.868350 0.586365
H78_13 H 0.379048 0.837667 0.566479
H79_13 H 0.374847 0.869558 0.545513
C140_13 C 0.2035(4) 0.9926(7) 0.6762(6)
C141_13 C 0.1965(4) 0.9880(6) 0.6407(6)
C142_13 C 0.1681(5) 0.9948(6) 0.6285(5)
H81_13 H 0.163401 0.991761 0.604678
C146_13 C 0.4308(12) 0.8498(14) 0.5558(15)
H87_13 H 0.442176 0.863224 0.540295
H88_13 H 0.420548 0.834074 0.542079
H89_13 H 0.443896 0.839480 0.572308
O47_13 O 0.4823(10) 0.9719(10) 0.7068(11)
O48_13 O 0.469(2) 0.978(2) 0.591(2)
O49_13 O 0.0380(11) 0.8664(13) 0.4762(14)
H95_13 H 0.100853 0.821261 0.537458
H96_13 H 0.0719101 0.802895 0.522217
H101_13 H 0.395247 0.902169 0.608621
H102_13 H 0.0547073 0.854527 0.46528
H103_13 H 0.0191421 0.854912 0.471628
H104_13 H 0.46984 0.97072 0.728489
H105_13 H 0.499732 0.957672 0.709504
H107_13 H 0.490973 0.976635 0.590146
Ba8_7 Ba 0.95100(8) 0.01332(11) 0.5604(2)
O36_13 O 0.9884(8) 0.8959(9) 0.5452(10)
O41_7 O 0.9910(7) 0.9601(8) 0.5709(8)
N3_13 N 0.9422(11) 0.8818(9) 0.5160(12)
C135_13 C 0.9635(14) 0.8791(15) 0.5372(16)
H73_13 H 0.961871 0.860867 0.551080
C145_11 C 0.9424(12) 0.9119(10) 0.4972(13)
H84_11 H 0.925871 0.913036 0.481259
H85_13 H 0.941821 0.929556 0.513289
H86_11 H 0.960561 0.912536 0.483839
C147_13 C 0.9192(12) 0.8591(14) 0.5056(15)
H90_13 H 0.920361 0.840525 0.520450
H91_13 H 0.899991 0.868595 0.507920
H92_11 H 0.922461 0.853055 0.481340
O36_14 O 0.0116(8) 0.1041(9) 0.5452(10)
N3_14 N 0.0578(11) 0.1182(9) 0.5160(12)
C135_14 C 0.0365(14) 0.1209(15) 0.5372(16)
H73_14 H 0.038129 0.139133 0.551080
C145_12 C 0.0576(12) 0.0881(10) 0.4972(13)
H84_12 H 0.074129 0.086964 0.481259
H85_14 H 0.058179 0.070444 0.513289
H86_12 H 0.039439 0.087464 0.483839
C147_14 C 0.0808(12) 0.1409(14) 0.5056(15)
H90_14 H 0.079639 0.159475 0.520450
H91_14 H 0.100009 0.131405 0.507920
H92_12 H 0.077539 0.146945 0.481340
Ba2_10 Ba 0.95298(6) 0.12881(9) 0.54821(9)
Ba3_10 Ba 0.54996(7) 0.04665(7) 0.64993(12)
Ti1_14 Ti 0.68980(12) 0.03923(14) 0.60768(15)
Ti2_14 Ti 0.72503(11) 0.07481(14) 0.38037(16)
Ti4_14 Ti 0.87188(11) 0.00783(15) 0.51625(19)
O1_14 O 0.7621(4) 0.0764(5) 0.4002(6)
O2_14 O 0.6807(4) 0.0005(5) 0.5862(5)
O3_14 O 0.7043(4) 0.0788(5) 0.4221(5)
O4_14 O 0.6869(4) 0.0634(5) 0.5661(5)
O5_14 O 0.8423(4) 0.0256(5) 0.5464(6)
O6_14 O 0.7226(5) 0.0298(5) 0.3786(6)
O7_10 O 0.6922(5) 0.0229(5) 0.6573(5)
O9_14 O 0.8557(4) 0.0255(5) 0.4741(6)
O16_10 O 0.6874(4) 0.0822(5) 0.6324(5)
O17_10 O 0.6464(5) 0.0393(5) 0.6187(6)
O18_14 O 0.7305(4) 0.0367(5) 0.6088(6)
O21_14 O 0.8951(5) 0.0460(6) 0.5297(6)
O23_14 O 0.9030(5) 0.0981(6) 0.5342(6)
O24_14 O 0.7492(4) 0.1710(5) 0.3744(6)
O27_14 O 0.6384(5) 0.0848(6) 0.3441(6)
O28_14 O 0.6862(5) 0.1344(5) 0.6417(6)
C1_14 C 0.6939(7) 0.0728(8) 0.4944(8)
H1_14 H 0.712840 0.072290 0.482100
H2_14 H 0.691563 0.052689 0.506702
C4_14 C 0.6942(7) 0.1008(8) 0.5226(8)
C6_14 C 0.8111(7) 0.0884(8) 0.4232(9)
C7_14 C 0.6916(7) 0.0929(8) 0.5582(8)
C12_14 C 0.6919(7) 0.1140(8) 0.5838(9)
C14_14 C 0.7870(7) 0.0320(8) 0.5791(9)
H6_14 H 0.768142 0.037356 0.568147
H7_14 H 0.794904 0.013734 0.566502
C15_14 C 0.8050(7) 0.1486(8) 0.3960(9)
H8_14 H 0.803533 0.169249 0.387194
O30_14 O 0.9434(7) 0.0732(8) 0.5955(8)
C16_14 C 0.7847(7) 0.0969(8) 0.4062(9)
O31_10 O 0.7091(5) 0.0220(6) 0.7121(6)
O32_14 O 0.7432(6) 0.0542(6) 0.2749(6)
C19_14 C 0.8594(7) 0.0218(8) 0.4402(10)
C21_14 C 0.7451(8) 0.0202(9) 0.6644(10)
C23_14 C 0.6686(7) 0.0765(8) 0.4667(8)
C25_14 C 0.7498(7) 0.1419(9) 0.3798(9)
C29_14 C 0.8080(7) 0.0597(8) 0.5740(9)
C31_14 C 0.7805(7) 0.1295(8) 0.3920(9)
C36_14 C 0.7301(7) 0.0075(8) 0.3587(10)
O35_14 O 0.5984(5) 0.0285(6) 0.6177(7)
C48_14 C 0.7519(7) 0.0244(9) 0.6315(9)
C49_14 C 0.6745(7) 0.0784(8) 0.4314(8)
C50_14 C 0.7418(7) 0.0473(9) 0.3082(9)
C51_14 C 0.6883(7) 0.1110(9) 0.6229(9)
O40_14 O 0.5635(8) 0.0961(9) 0.6099(10)
C53_14 C 0.7687(4) 0.1297(5) 0.6130(6)
H20_14 H 0.750800 0.134339 0.624070
C54_14 C 0.7745(4) 0.0990(4) 0.6013(6)
H21_14 H 0.760441 0.083047 0.604507
C55_14 C 0.8013(5) 0.0921(4) 0.5847(6)
C56_14 C 0.8223(4) 0.1159(5) 0.5799(6)
C57_14 C 0.8165(4) 0.1466(4) 0.5916(6)
H22_14 H 0.830547 0.162525 0.588353
C58_14 C 0.7897(5) 0.1535(4) 0.6082(6)
H23_14 H 0.785854 0.174078 0.615993
N1_14 N 0.5899(10) 0.1315(11) 0.5747(12)
C60_14 C 0.6230(7) 0.0811(8) 0.4162(9)
H25_14 H 0.608002 0.082554 0.399315
C61_14 C 0.8792(4) 0.1546(4) 0.4353(6)
H26_14 H 0.894404 0.169385 0.437923
C62_14 C 0.8541(4) 0.1623(4) 0.4157(6)
H27_14 H 0.852539 0.182229 0.405130
C63_14 C 0.8314(4) 0.1402(5) 0.4118(6)
C64_14 C 0.8338(4) 0.1104(4) 0.4276(6)
C65_14 C 0.8589(4) 0.1028(4) 0.4472(6)
H28_14 H 0.860451 0.082828 0.457793
C66_14 C 0.8816(4) 0.1248(5) 0.4511(6)
H29_14 H 0.898360 0.119684 0.464255
C67_14 C 0.8510(7) 0.1116(9) 0.5630(9)
H30_14 H 0.864558 0.128103 0.560279
C68_14 C 0.8376(7) 0.0363(8) 0.4170(9)
C72_14 C 0.8890(8) 0.0054(9) 0.3909(10)
C74_14 C 0.8139(7) 0.0534(8) 0.4323(9)
H35_14 H 0.815519 0.051533 0.457891
H36_14 H 0.795530 0.042955 0.425426
C75_14 C 0.8564(7) 0.0802(8) 0.5510(10)
C76_14 C 0.8859(8) 0.0725(9) 0.5355(10)
C77_14 C 0.7668(8) 0.0082(9) 0.6908(10)
H37_14 H 0.761989 0.001879 0.713773
C78_14 C 0.7815(8) 0.0228(9) 0.6157(9)
C86_14 C 0.6595(7) 0.0864(9) 0.3667(9)
C88_14 C 0.6523(7) 0.0813(8) 0.4052(9)
C89_14 C 0.7404(7) 0.0147(8) 0.3220(9)
C91_14 C 0.8878(7) 0.0093(9) 0.4277(10)
O44_14 O 0.9170(9) 0.1767(11) 0.5222(10)
C93_14 C 0.7140(8) 0.0206(9) 0.6802(10)
C94_14 C 0.6946(7) 0.1492(8) 0.5727(9)
H44_14 H 0.693010 0.165171 0.589734
C95_14 C 0.8242(4) 0.0373(6) 0.3190(6)
H45_14 H 0.809283 0.044146 0.303686
C96_14 C 0.8504(5) 0.0250(6) 0.3054(5)
H46_14 H 0.853090 0.023536 0.281020
C97_14 C 0.8726(4) 0.0148(6) 0.3283(6)
H47_14 H 0.890182 0.006578 0.319261
C98_14 C 0.8686(4) 0.0170(6) 0.3648(6)
C99_14 C 0.8424(5) 0.0294(6) 0.3784(4)
C100_14 C 0.8201(4) 0.0395(6) 0.3555(6)
H48_14 H 0.802569 0.047796 0.364595
C107_14 C 0.7081(5) 0.1965(4) 0.4911(6)
H53_14 H 0.710785 0.217572 0.484401
C108_14 C 0.7087(5) 0.1726(5) 0.4656(4)
H54_14 H 0.711840 0.177674 0.441886
C109_14 C 0.7047(5) 0.1410(4) 0.4756(5)
H55_14 H 0.705093 0.125045 0.458548
C110_14 C 0.7000(5) 0.1334(4) 0.5110(5)
C111_14 C 0.6994(5) 0.1573(5) 0.5365(4)
C112_14 C 0.7034(5) 0.1888(4) 0.5265(5)
H56_14 H 0.702981 0.204842 0.543579
C113_14 C 0.5856(4) 0.0766(6) 0.4610(5)
H57_14 H 0.571028 0.079283 0.443780
C114_14 C 0.6154(4) 0.0786(6) 0.4518(4)
C115_14 C 0.6371(3) 0.0746(6) 0.4776(5)
C116_14 C 0.6291(4) 0.0684(6) 0.5125(5)
H58_14 H 0.643610 0.065680 0.529736
C117_14 C 0.5993(4) 0.0663(6) 0.5217(4)
H59_14 H 0.593889 0.062205 0.545077
C118_14 C 0.5775(3) 0.0704(6) 0.4960(5)
H60_14 H 0.557598 0.069006 0.502100
C119_14 C 0.8370(7) 0.0552(8) 0.5564(10)
C120_14 C 0.6243(8) 0.0186(9) 0.6122(10)
H66_14 H 0.675096 0.005983 0.381137
C131_14 C 0.6314(5) 0.0045(4) 0.3690(7)
H67_14 H 0.629907 0.025399 0.361212
O45_14 O 0.9567(10) 0.0589(12) 0.5171(14)
C137_14 C 0.5844(11) 0.1081(13) 0.5981(13)
C138_14 C 0.6192(10) 0.1396(12) 0.5677(13)
H77_14 H 0.631636 0.131650 0.586365
H78_14 H 0.620952 0.162333 0.566479
H79_14 H 0.625153 0.130442 0.545513
C140_14 C 0.7965(4) 0.0074(7) 0.6762(6)
C141_14 C 0.8035(4) 0.0120(6) 0.6407(6)
C142_14 C 0.8319(5) 0.0052(6) 0.6285(5)
H81_14 H 0.836599 0.008239 0.604678
C146_14 C 0.5692(12) 0.1502(14) 0.5558(15)
H87_14 H 0.557824 0.136776 0.540295
H88_14 H 0.579452 0.165926 0.542079
H89_14 H 0.556104 0.160520 0.572308
O47_14 O 0.5177(10) 0.0281(10) 0.7068(11)
O48_14 O 0.531(2) 0.022(2) 0.591(2)
O49_14 O 0.9620(11) 0.1336(13) 0.4762(14)
O50_10 O 0.5797(12) 0.0420(13) 0.7100(13)
Ba5_10 Ba 0.64938(6) 0.05735(6) 0.69329(9)
O52_10 O 0.9813(4) 0.1283(5) 0.6214(6)
O55_10 O 0.9875(5) 0.1790(5) 0.5789(5)
O56_10 O 0.9362(4) 0.1663(5) 0.6069(6)
O57_10 O 0.5120(5) 0.0957(5) 0.6771(6)
O58_10 O 0.4847(5) 0.0663(6) 0.6409(6)
H95_14 H 0.899147 0.178739 0.537458
H96_14 H 0.92809 0.197105 0.522217
H101_14 H 0.604753 0.0978306 0.608621
H102_14 H 0.945293 0.145473 0.46528
H103_14 H 0.980858 0.145088 0.471628
H104_14 H 0.53016 0.02928 0.728489
H105_14 H 0.500268 0.0423278 0.709504
H107_14 H 0.509027 0.0233653 0.590146
Ti3_14 Ti 0.72466(12) 0.87488(14) 0.46632(18)
O10_14 O 0.8552(4) 0.9691(5) 0.5126(5)
O11_14 O 0.6849(5) 0.8579(6) 0.4528(6)
O12_14 O 0.7121(4) 0.8947(5) 0.5084(6)
O13_14 O 0.9069(5) 0.9969(6) 0.4852(7)
O14_14 O 0.8962(5) 0.9868(6) 0.5552(6)
O15_14 O 0.7643(4) 0.8860(5) 0.4688(6)
O20_14 O 0.7128(4) 0.9090(5) 0.4367(6)
O25_14 O 0.7289(5) 0.8351(5) 0.4986(7)
C2_14 C 0.6584(7) 0.9803(8) 0.5806(9)
C3_14 C 0.7132(7) 0.8881(8) 0.5432(9)
C5_14 C 0.7173(7) 0.9681(8) 0.4049(9)
H3_14 H 0.714022 0.988027 0.417136
H4_14 H 0.732035 0.956412 0.418445
C8_14 C 0.8757(7) 0.9052(8) 0.5727(9)
H5_14 H 0.889907 0.901771 0.590196
C9_14 C 0.6639(7) 0.9529(8) 0.5623(9)
C10_14 C 0.8548(7) 0.9388(8) 0.5302(9)
C11_14 C 0.8344(7) 0.9160(8) 0.5202(8)
C13_14 C 0.8120(7) 0.8980(8) 0.4591(9)
C17_14 C 0.6629(7) 0.8997(9) 0.4220(10)
C18_14 C 0.7298(7) 0.9751(8) 0.3725(9)
C20_14 C 0.7898(7) 0.8573(8) 0.4261(9)
C22_14 C 0.6627(8) 0.8694(9) 0.4353(10)
C24_14 C 0.7570(7) 0.8963(9) 0.3368(9)
H9_14 H 0.759774 0.875741 0.345198
C26_14 C 0.6872(7) 0.9205(8) 0.4199(9)
C27_14 C 0.6281(7) 0.9896(9) 0.5940(9)
C28_14 C 0.7907(7) 0.8801(8) 0.4505(9)
O33_14 O 0.9218(5) 0.9503(6) 0.5822(6)
C30_14 C 0.7059(7) 0.9124(8) 0.5658(9)
C32_14 C 0.7228(7) 0.8574(8) 0.5530(10)
O34_14 O 0.7347(6) 0.8052(6) 0.5450(7)
C33_14 C 0.8761(7) 0.9342(8) 0.5556(9)
C34_14 C 0.6064(7) 0.9695(8) 0.5866(9)
H10_14 H 0.587282 0.974594 0.593877
C35_14 C 0.9112(8) 0.9966(9) 0.4524(10)
C37_14 C 0.7288(8) 0.8290(9) 0.5318(11)
C38_14 C 0.8680(4) 0.8647(5) 0.3950(5)
H11_14 H 0.868656 0.848370 0.378398
C39_14 C 0.8925(4) 0.8844(5) 0.3997(5)
H12_14 H 0.909526 0.881148 0.386220
C40_14 C 0.8915(4) 0.9088(5) 0.4244(6)
H13_14 H 0.907911 0.921986 0.427583
C41_14 C 0.8661(4) 0.9137(4) 0.4445(5)
H14_14 H 0.865427 0.930048 0.461124
C42_14 C 0.8416(3) 0.8940(5) 0.4399(5)
C43_14 C 0.8426(4) 0.8696(5) 0.4151(6)
C44_14 C 0.8994(8) 0.9584(9) 0.5649(10)
C45_14 C 0.7642(7) 0.9034(8) 0.3017(9)
H15_14 H 0.769931 0.886869 0.286773
O37_14 O 0.6075(7) 0.8008(7) 0.5127(9)
O38_14 O 0.6407(5) 0.8488(6) 0.4312(6)
C46_14 C 0.6949(7) 0.9437(8) 0.5517(9)
H16_14 H 0.695905 0.943088 0.526023
H17_14 H 0.708317 0.960295 0.559676
C47_14 C 0.8139(7) 0.9224(8) 0.4908(8)
H18_14 H 0.819092 0.942978 0.480895
H19_14 H 0.794138 0.924458 0.500758
O39_14 O 0.9349(5) 0.9865(6) 0.4388(8)
C52_14 C 0.7523(7) 0.9594(8) 0.3122(9)
C59_14 C 0.8165(7) 0.8505(8) 0.4051(9)
H24_14 H 0.816963 0.835461 0.387024
C69_14 C 0.7503(7) 0.9891(8) 0.3001(10)
H31_14 H 0.755560 0.993288 0.276670
C70_14 C 0.7633(7) 0.9328(8) 0.2889(10)
H32_14 H 0.769341 0.936873 0.265744
C71_14 C 0.7253(7) 0.8531(9) 0.5906(10)
H33_14 H 0.731819 0.833570 0.599128
H34_14 H 0.905071 0.993833 0.382325
N2_14 N 0.6019(9) 0.8101(10) 0.5699(11)
C73_14 C 0.6900(7) 0.9502(8) 0.4066(10)
C79_14 C 0.6358(8) 0.9114(9) 0.4073(10)
H38_14 H 0.618607 0.899197 0.407575
C80_14 C 0.5890(3) 0.8949(5) 0.5412(6)
H39_14 H 0.572468 0.882282 0.536541
C81_14 C 0.6166(4) 0.8863(4) 0.5279(6)
H40_14 H 0.618540 0.868018 0.514233
C82_14 C 0.6412(3) 0.9052(5) 0.5348(6)
H41_14 H 0.659676 0.899466 0.525904
C83_14 C 0.6383(3) 0.9326(5) 0.5552(6)
C84_14 C 0.6106(4) 0.9411(4) 0.5686(6)
C85_14 C 0.5860(3) 0.9223(5) 0.5616(6)
H42_14 H 0.567533 0.927994 0.570523
O42_14 O 0.5667(12) 0.8561(12) 0.4645(9)
O43_14 O 0.9729(8) 0.9849(9) 0.4945(13)
C87_14 C 0.7646(7) 0.8397(9) 0.4139(9)
C90_14 C 0.7433(7) 0.9513(8) 0.3484(9)
C92_14 C 0.7455(7) 0.9200(8) 0.3602(10)
H43_14 H 0.739552 0.914618 0.383040
C101_14 C 0.8333(5) 0.8319(4) 0.5820(6)
H49_14 H 0.833108 0.813379 0.595385
C102_14 C 0.8561(4) 0.8539(5) 0.5863(5)
H50_14 H 0.871141 0.849968 0.602640
C103_14 C 0.8564(4) 0.8816(5) 0.5662(6)
C104_14 C 0.8340(5) 0.8874(4) 0.5418(5)
C105_14 C 0.8112(4) 0.8655(5) 0.5375(5)
H51_14 H 0.796168 0.869381 0.521128
C106_14 C 0.8109(4) 0.8378(5) 0.5575(6)
H52_14 H 0.795621 0.823085 0.554628
C121_14 C 0.7181(5) 0.8986(6) 0.6763(4)
H61_14 H 0.720815 0.895367 0.700475
C122_14 C 0.7099(5) 0.9284(5) 0.6637(5)
H62_14 H 0.707246 0.945161 0.679487
C123_14 C 0.7058(5) 0.9332(4) 0.6275(6)
H63_14 H 0.700385 0.953148 0.619121
C124_14 C 0.7098(5) 0.9081(5) 0.6039(4)
C125_14 C 0.7180(5) 0.8783(5) 0.6165(5)
C126_14 C 0.7221(5) 0.8735(4) 0.6527(6)
H64_14 H 0.727523 0.853559 0.661098
C127_14 C 0.6089(4) 0.9536(5) 0.3805(7)
H65_14 H 0.592305 0.940451 0.380303
C128_14 C 0.6360(5) 0.9420(4) 0.3924(7)
C129_14 C 0.6608(4) 0.9616(5) 0.3927(7)
C130_14 C 0.6585(4) 0.9928(5) 0.3810(7)
C132_14 C 0.6066(4) 0.9848(6) 0.3688(7)
H68_14 H 0.588511 0.992633 0.360795
C133_14 C 0.5832(11) 0.8136(12) 0.6005(13)
H69_14 H 0.571332 0.832406 0.598010
H70_14 H 0.595313 0.815349 0.621357
H71_14 H 0.570543 0.795349 0.602537
C134_14 C 0.5910(12) 0.8027(12) 0.5390(13)
H72_14 H 0.570752 0.798781 0.536674
O46_14 O 0.5511(15) 0.9826(14) 0.6677(18)
C136_14 C 0.6353(11) 0.8158(12) 0.5704(14)
H74_14 H 0.639199 0.838049 0.574030
H75_14 H 0.643735 0.809229 0.548195
H76_14 H 0.644099 0.803782 0.589351
C139_14 C 0.8178(5) 0.9959(7) 0.6996(5)
H80_14 H 0.813122 0.992865 0.723337
C143_14 C 0.8532(4) 0.9937(7) 0.6518(6)
H82_14 H 0.872215 0.989075 0.643626
C144_14 C 0.8462(5) 0.9891(6) 0.6873(6)
H83_14 H 0.860477 0.981388 0.702955
H93_14 H 0.578927 0.871352 0.478313
H94_14 H 0.558274 0.867016 0.443418
H97_14 H 0.960439 0.992138 0.474329
H98_14 H 0.993761 0.991561 0.490497
H99_14 H 0.569575 0.977832 0.681018
H100_14 H 0.533644 0.977474 0.682712
H106_14 H 0.537169 0.999357 0.589681
Ba4_8 Ba 0.29900(8) 0.26332(11) 0.8104(2)
Ti1_15 Ti 0.56020(12) 0.28923(14) 0.85768(15)
Ti2_15 Ti 0.52497(11) 0.32481(14) 0.63037(16)
Ti3_15 Ti 0.52534(12) 0.12488(14) 0.71632(18)
Ti4_15 Ti 0.37812(11) 0.25783(15) 0.76625(19)
O1_15 O 0.4879(4) 0.3264(5) 0.6502(6)
O2_15 O 0.5693(4) 0.2505(5) 0.8362(5)
O3_15 O 0.5457(4) 0.3288(5) 0.6721(5)
O4_15 O 0.5631(4) 0.3134(5) 0.8161(5)
O5_15 O 0.4077(4) 0.2756(5) 0.7964(6)
O6_15 O 0.5274(5) 0.2798(5) 0.6286(6)
O9_15 O 0.3943(4) 0.2755(5) 0.7241(6)
O10_15 O 0.3948(4) 0.2191(5) 0.7626(5)
O11_15 O 0.5651(5) 0.1079(6) 0.7028(6)
O12_15 O 0.5379(4) 0.1447(5) 0.7584(6)
O13_15 O 0.3431(5) 0.2469(6) 0.7352(7)
O14_15 O 0.3538(5) 0.2368(6) 0.8052(6)
O15_15 O 0.4857(4) 0.1360(5) 0.7188(6)
O18_15 O 0.5195(4) 0.2867(5) 0.8588(6)
O20_15 O 0.5372(4) 0.1590(5) 0.6867(6)
O21_15 O 0.3549(5) 0.2960(6) 0.7797(6)
O23_15 O 0.3470(5) 0.3481(6) 0.7842(6)
O24_15 O 0.5008(4) 0.4210(5) 0.6244(6)
O25_15 O 0.5211(5) 0.0851(5) 0.7486(7)
O27_15 O 0.6116(5) 0.3348(6) 0.5941(6)
O28_15 O 0.5638(5) 0.3844(5) 0.8917(6)
C1_15 C 0.5561(7) 0.3228(8) 0.7444(8)
H1_15 H 0.537160 0.322290 0.732100
H2_15 H 0.558437 0.302689 0.756702
C2_15 C 0.5916(7) 0.2303(8) 0.8306(9)
C3_15 C 0.5368(7) 0.1381(8) 0.7932(9)
C4_15 C 0.5558(7) 0.3508(8) 0.7726(8)
C5_15 C 0.5327(7) 0.2181(8) 0.6549(9)
H3_15 H 0.535978 0.238027 0.667136
H4_15 H 0.517965 0.206412 0.668445
C6_15 C 0.4389(7) 0.3384(8) 0.6732(9)
C7_15 C 0.5584(7) 0.3429(8) 0.8082(8)
C8_15 C 0.3743(7) 0.1552(8) 0.8227(9)
H5_15 H 0.360093 0.151771 0.840196
C9_15 C 0.5861(7) 0.2029(8) 0.8123(9)
C10_15 C 0.3952(7) 0.1888(8) 0.7802(9)
C11_15 C 0.4156(7) 0.1660(8) 0.7702(8)
C12_15 C 0.5581(7) 0.3640(8) 0.8338(9)
C13_15 C 0.4380(7) 0.1480(8) 0.7091(9)
C14_15 C 0.4630(7) 0.2820(8) 0.8291(9)
H6_15 H 0.481858 0.287356 0.818147
H7_15 H 0.455096 0.263734 0.816502
C15_15 C 0.4450(7) 0.3986(8) 0.6460(9)
H8_15 H 0.446467 0.419249 0.637194
O30_15 O 0.3066(7) 0.3232(8) 0.8455(8)
C16_15 C 0.4653(7) 0.3469(8) 0.6562(9)
C17_15 C 0.5871(7) 0.1497(9) 0.6720(10)
O32_15 O 0.5068(6) 0.3042(6) 0.5249(6)
C18_15 C 0.5202(7) 0.2251(8) 0.6225(9)
C19_15 C 0.3906(7) 0.2718(8) 0.6902(10)
C20_15 C 0.4602(7) 0.1073(8) 0.6761(9)
C21_15 C 0.5049(8) 0.2702(9) 0.9144(10)
C22_15 C 0.5873(8) 0.1194(9) 0.6853(10)
C23_15 C 0.5814(7) 0.3265(8) 0.7167(8)
C24_15 C 0.4930(7) 0.1463(9) 0.5868(9)
H9_15 H 0.490226 0.125741 0.595198
C25_15 C 0.5002(7) 0.3919(9) 0.6298(9)
C26_15 C 0.5628(7) 0.1705(8) 0.6699(9)
C27_15 C 0.6219(7) 0.2396(9) 0.8440(9)
C28_15 C 0.4593(7) 0.1301(8) 0.7005(9)
C29_15 C 0.4420(7) 0.3097(8) 0.8240(9)
O33_15 O 0.3282(5) 0.2003(6) 0.8322(6)
C30_15 C 0.5441(7) 0.1624(8) 0.8158(9)
C31_15 C 0.4695(7) 0.3795(8) 0.6420(9)
C32_15 C 0.5272(7) 0.1074(8) 0.8030(10)
O34_15 O 0.5153(6) 0.0552(6) 0.7950(7)
C33_15 C 0.3739(7) 0.1842(8) 0.8056(9)
C34_15 C 0.6436(7) 0.2195(8) 0.8366(9)
H10_15 H 0.662718 0.224594 0.843877
C35_15 C 0.3388(8) 0.2466(9) 0.7024(10)
C36_15 C 0.5199(7) 0.2575(8) 0.6087(10)
C37_15 C 0.5212(8) 0.0790(9) 0.7818(11)
O35_15 O 0.6516(5) 0.2785(6) 0.8677(7)
C38_15 C 0.3820(4) 0.1147(5) 0.6450(5)
H11_15 H 0.381344 0.098370 0.628398
C39_15 C 0.3575(4) 0.1344(5) 0.6497(5)
H12_15 H 0.340474 0.131148 0.636220
C40_15 C 0.3585(4) 0.1588(5) 0.6744(6)
H13_15 H 0.342089 0.171986 0.677583
C41_15 C 0.3839(4) 0.1637(4) 0.6945(5)
H14_15 H 0.384573 0.180048 0.711124
C42_15 C 0.4084(3) 0.1440(5) 0.6899(5)
C43_15 C 0.4074(4) 0.1196(5) 0.6651(6)
O36_15 O 0.2384(8) 0.3541(9) 0.7952(10)
C44_15 C 0.3506(8) 0.2084(9) 0.8149(10)
C45_15 C 0.4858(7) 0.1534(8) 0.5517(9)
H15_15 H 0.480069 0.136869 0.536773
O37_15 O 0.6425(7) 0.0508(7) 0.7627(9)
O38_15 O 0.6093(5) 0.0988(6) 0.6812(6)
C46_15 C 0.5551(7) 0.1937(8) 0.8017(9)
H16_15 H 0.554095 0.193088 0.776023
H17_15 H 0.541683 0.210295 0.809676
C47_15 C 0.4361(7) 0.1724(8) 0.7408(8)
H18_15 H 0.430908 0.192978 0.730895
H19_15 H 0.455862 0.174458 0.750758
O39_15 O 0.3151(5) 0.2365(6) 0.6888(8)
C48_15 C 0.4981(7) 0.2744(9) 0.8815(9)
C49_15 C 0.5755(7) 0.3284(8) 0.6814(8)
C50_15 C 0.5082(7) 0.2973(9) 0.5582(9)
C51_15 C 0.5617(7) 0.3610(9) 0.8729(9)
O40_15 O 0.6865(8) 0.3461(9) 0.8599(10)
C52_15 C 0.4977(7) 0.2094(8) 0.5622(9)
C53_15 C 0.4813(4) 0.3797(5) 0.8630(6)
H20_15 H 0.499200 0.384339 0.874070
C54_15 C 0.4755(4) 0.3490(4) 0.8513(6)
H21_15 H 0.489559 0.333047 0.854507
C55_15 C 0.4487(5) 0.3421(4) 0.8347(6)
C56_15 C 0.4277(4) 0.3659(5) 0.8299(6)
C57_15 C 0.4335(4) 0.3966(4) 0.8416(6)
H22_15 H 0.419453 0.412525 0.838353
C58_15 C 0.4603(5) 0.4035(4) 0.8582(6)
H23_15 H 0.464146 0.424078 0.865993
N1_15 N 0.6601(10) 0.3815(11) 0.8247(12)
C59_15 C 0.4335(7) 0.1005(8) 0.6551(9)
H24_15 H 0.433037 0.085461 0.637024
C60_15 C 0.6270(7) 0.3311(8) 0.6662(9)
H25_15 H 0.641998 0.332554 0.649315
C61_15 C 0.3708(4) 0.4046(4) 0.6853(6)
H26_15 H 0.355596 0.419385 0.687923
C62_15 C 0.3959(4) 0.4123(4) 0.6657(6)
H27_15 H 0.397461 0.432229 0.655130
C63_15 C 0.4186(4) 0.3902(5) 0.6618(6)
C64_15 C 0.4162(4) 0.3604(4) 0.6776(6)
C65_15 C 0.3911(4) 0.3528(4) 0.6972(6)
H28_15 H 0.389549 0.332828 0.707793
C66_15 C 0.3684(4) 0.3748(5) 0.7011(6)
H29_15 H 0.351640 0.369684 0.714255
C67_15 C 0.3990(7) 0.3616(9) 0.8130(9)
H30_15 H 0.385442 0.378103 0.810279
C68_15 C 0.4124(7) 0.2863(8) 0.6670(9)
C69_15 C 0.4997(7) 0.2391(8) 0.5501(10)
H31_15 H 0.494440 0.243288 0.526670
C70_15 C 0.4867(7) 0.1828(8) 0.5389(10)
H32_15 H 0.480659 0.186873 0.515744
C71_15 C 0.5247(7) 0.1031(9) 0.8406(10)
H33_15 H 0.518181 0.083570 0.849128
C72_15 C 0.3610(8) 0.2554(9) 0.6409(10)
H34_15 H 0.344929 0.243833 0.632325
N2_15 N 0.6481(9) 0.0601(10) 0.8199(11)
C73_15 C 0.5600(7) 0.2002(8) 0.6566(10)
C74_15 C 0.4361(7) 0.3034(8) 0.6823(9)
H35_15 H 0.434481 0.301533 0.707891
H36_15 H 0.454470 0.292955 0.675426
C75_15 C 0.3936(7) 0.3302(8) 0.8010(10)
C76_15 C 0.3641(8) 0.3225(9) 0.7855(10)
C77_15 C 0.4832(8) 0.2582(9) 0.9408(10)
H37_15 H 0.488011 0.251879 0.963773
O41_8 O 0.2410(7) 0.2899(8) 0.8209(8)
C78_15 C 0.4685(8) 0.2728(9) 0.8657(9)
C79_15 C 0.6142(8) 0.1614(9) 0.6573(10)
H38_15 H 0.631393 0.149197 0.657575
C80_15 C 0.6610(3) 0.1449(5) 0.7912(6)
H39_15 H 0.677532 0.132282 0.786541
C81_15 C 0.6334(4) 0.1363(4) 0.7779(6)
H40_15 H 0.631460 0.118018 0.764233
C82_15 C 0.6088(3) 0.1552(5) 0.7848(6)
H41_15 H 0.590324 0.149466 0.775904
C83_15 C 0.6117(3) 0.1826(5) 0.8052(6)
C84_15 C 0.6394(4) 0.1911(4) 0.8186(6)
C85_15 C 0.6640(3) 0.1723(5) 0.8116(6)
H42_15 H 0.682467 0.177994 0.820523
O42_15 O 0.6833(12) 0.1061(12) 0.7145(9)
O43_15 O 0.2771(8) 0.2349(9) 0.7445(13)
C86_15 C 0.5905(7) 0.3364(9) 0.6167(9)
N3_15 N 0.1922(11) 0.3682(9) 0.7660(12)
C87_15 C 0.4854(7) 0.0897(9) 0.6639(9)
C88_15 C 0.5977(7) 0.3313(8) 0.6552(9)
C89_15 C 0.5096(7) 0.2647(8) 0.5720(9)
C90_15 C 0.5067(7) 0.2013(8) 0.5984(9)
C91_15 C 0.3622(7) 0.2593(9) 0.6777(10)
C92_15 C 0.5045(7) 0.1700(8) 0.6102(10)
H43_15 H 0.510448 0.164618 0.633040
O44_15 O 0.3330(9) 0.4267(11) 0.7722(10)
C93_15 C 0.5360(8) 0.2706(9) 0.9302(10)
C94_15 C 0.5554(7) 0.3992(8) 0.8227(9)
H44_15 H 0.556990 0.415171 0.839734
C95_15 C 0.4258(4) 0.2873(6) 0.5690(6)
H45_15 H 0.440717 0.294146 0.553686
C96_15 C 0.3996(5) 0.2750(6) 0.5554(5)
H46_15 H 0.396910 0.273536 0.531020
C97_15 C 0.3774(4) 0.2648(6) 0.5783(6)
H47_15 H 0.359818 0.256578 0.569261
C98_15 C 0.3814(4) 0.2670(6) 0.6148(6)
C99_15 C 0.4076(5) 0.2794(6) 0.6284(4)
C100_15 C 0.4299(4) 0.2895(6) 0.6055(6)
H48_15 H 0.447431 0.297796 0.614595
C101_15 C 0.4167(5) 0.0819(4) 0.8320(6)
H49_15 H 0.416892 0.063379 0.845385
C102_15 C 0.3939(4) 0.1039(5) 0.8363(5)
H50_15 H 0.378859 0.099968 0.852640
C103_15 C 0.3936(4) 0.1316(5) 0.8162(6)
C104_15 C 0.4160(5) 0.1374(4) 0.7918(5)
C105_15 C 0.4388(4) 0.1155(5) 0.7875(5)
H51_15 H 0.453832 0.119381 0.771128
C106_15 C 0.4391(4) 0.0878(5) 0.8075(6)
H52_15 H 0.454379 0.073085 0.804628
C107_15 C 0.5419(5) 0.4465(4) 0.7411(6)
H53_15 H 0.539215 0.467572 0.734401
C108_15 C 0.5413(5) 0.4226(5) 0.7156(4)
H54_15 H 0.538160 0.427674 0.691886
C109_15 C 0.5453(5) 0.3910(4) 0.7256(5)
H55_15 H 0.544907 0.375045 0.708548
C110_15 C 0.5500(5) 0.3834(4) 0.7610(5)
C111_15 C 0.5506(5) 0.4073(5) 0.7865(4)
C112_15 C 0.5466(5) 0.4388(4) 0.7765(5)
H56_15 H 0.547019 0.454842 0.793579
C113_15 C 0.6644(4) 0.3266(6) 0.7110(5)
H57_15 H 0.678972 0.329283 0.693780
C114_15 C 0.6346(4) 0.3286(6) 0.7018(4)
C115_15 C 0.6129(3) 0.3246(6) 0.7276(5)
C116_15 C 0.6209(4) 0.3184(6) 0.7625(5)
H58_15 H 0.606390 0.315680 0.779736
C117_15 C 0.6507(4) 0.3163(6) 0.7717(4)
H59_15 H 0.656111 0.312205 0.795077
C118_15 C 0.6725(3) 0.3204(6) 0.7460(5)
H60_15 H 0.692402 0.319006 0.752100
C119_15 C 0.4130(7) 0.3052(8) 0.8064(10)
C120_15 C 0.6257(8) 0.2686(9) 0.8622(10)
C121_15 C 0.5319(5) 0.1486(6) 0.9263(4)
H61_15 H 0.529185 0.145367 0.950475
C122_15 C 0.5401(5) 0.1784(5) 0.9137(5)
H62_15 H 0.542754 0.195161 0.929487
C123_15 C 0.5442(5) 0.1832(4) 0.8775(6)
H63_15 H 0.549615 0.203148 0.869121
C124_15 C 0.5402(5) 0.1581(5) 0.8539(4)
C125_15 C 0.5320(5) 0.1283(5) 0.8665(5)
C126_15 C 0.5279(5) 0.1235(4) 0.9027(6)
H64_15 H 0.522477 0.103559 0.911098
C127_15 C 0.6411(4) 0.2036(5) 0.6305(7)
H65_15 H 0.657695 0.190451 0.630303
C128_15 C 0.6140(5) 0.1920(4) 0.6424(7)
C129_15 C 0.5892(4) 0.2116(5) 0.6427(7)
C130_15 C 0.5915(4) 0.2428(5) 0.6310(7)
H66_15 H 0.574904 0.255983 0.631137
C131_15 C 0.6186(5) 0.2545(4) 0.6190(7)
H67_15 H 0.620093 0.275399 0.611212
C132_15 C 0.6434(4) 0.2348(6) 0.6188(7)
H68_15 H 0.661489 0.242633 0.610795
O45_15 O 0.2933(10) 0.3089(12) 0.7671(14)
C133_15 C 0.6668(11) 0.0636(12) 0.8505(13)
H69_15 H 0.678668 0.082406 0.848010
H70_15 H 0.654687 0.065349 0.871357
H71_15 H 0.679457 0.045349 0.852537
C134_15 C 0.6590(12) 0.0527(12) 0.7890(13)
H72_15 H 0.679248 0.048781 0.786674
C135_15 C 0.2135(14) 0.3709(15) 0.7872(16)
H73_15 H 0.211871 0.389133 0.801080
O46_15 O 0.6989(15) 0.2326(14) 0.9177(18)
C136_15 C 0.6147(11) 0.0658(12) 0.8204(14)
H74_15 H 0.610801 0.088049 0.824030
H75_15 H 0.606265 0.059229 0.798195
H76_15 H 0.605901 0.053782 0.839351
C137_15 C 0.6656(11) 0.3581(13) 0.8481(13)
C138_15 C 0.6308(10) 0.3896(12) 0.8177(13)
H77_15 H 0.618364 0.381650 0.836365
H78_15 H 0.629048 0.412333 0.816479
H79_15 H 0.624847 0.380442 0.795513
C139_15 C 0.4322(5) 0.2459(7) 0.9496(5)
H80_15 H 0.436878 0.242865 0.973337
C140_15 C 0.4535(4) 0.2574(7) 0.9262(6)
C141_15 C 0.4465(4) 0.2620(6) 0.8907(6)
C142_15 C 0.4181(5) 0.2552(6) 0.8785(5)
H81_15 H 0.413401 0.258239 0.854678
C143_15 C 0.3968(4) 0.2437(7) 0.9018(6)
H82_15 H 0.377785 0.239075 0.893626
C144_15 C 0.4038(5) 0.2391(6) 0.9373(6)
H83_15 H 0.389523 0.231388 0.952955
C145_13 C 0.1924(12) 0.3381(10) 0.7472(13)
H84_13 H 0.175871 0.336964 0.731259
H85_15 H 0.191821 0.320444 0.763289
H86_13 H 0.210561 0.337464 0.733839
C146_15 C 0.6808(12) 0.4002(14) 0.8058(15)
H87_15 H 0.692176 0.386776 0.790295
H88_15 H 0.670548 0.415926 0.792079
H89_15 H 0.693896 0.410520 0.822308
O47_15 O 0.7323(10) 0.2781(10) 0.9568(11)
O48_15 O 0.719(2) 0.272(2) 0.841(2)
C147_15 C 0.1692(12) 0.3909(14) 0.7556(15)
H90_15 H 0.170361 0.409475 0.770450
H91_15 H 0.149991 0.381405 0.757920
H92_13 H 0.172461 0.396945 0.731340
O49_15 O 0.2880(11) 0.3836(13) 0.7262(14)
Ba8_8 Ba 0.20100(8) 0.23668(11) 0.8104(2)
O60_8 O 0.2590(7) 0.2101(8) 0.8209(8)
H93_15 H 0.671073 0.121352 0.728313
H94_15 H 0.691726 0.117016 0.693418
H95_15 H 0.350853 0.428739 0.787458
H96_15 H 0.32191 0.447105 0.772217
H97_15 H 0.289561 0.242138 0.724329
H98_15 H 0.256239 0.241561 0.740497
H99_15 H 0.680425 0.227832 0.931018
H100_15 H 0.716356 0.227474 0.932712
H101_15 H 0.645247 0.347831 0.858621
H102_15 H 0.304707 0.395473 0.71528
H103_15 H 0.269142 0.395088 0.721628
H104_15 H 0.71984 0.27928 0.978489
H105_15 H 0.749732 0.292328 0.959504
H106_15 H 0.712831 0.249357 0.839681
H107_15 H 0.740973 0.273365 0.840146
Ti4_16 Ti 0.12188(11) 0.24217(15) 0.76625(19)
O1_16 O 0.0121(4) 0.1736(5) 0.6502(6)
O5_16 O 0.0923(4) 0.2244(5) 0.7964(6)
O9_16 O 0.1057(4) 0.2245(5) 0.7241(6)
O10_16 O 0.1052(4) 0.2809(5) 0.7626(5)
O13_16 O 0.1569(5) 0.2531(6) 0.7352(7)
O14_16 O 0.1462(5) 0.2632(6) 0.8052(6)
O15_16 O 0.0143(4) 0.3640(5) 0.7188(6)
O21_16 O 0.1451(5) 0.2040(6) 0.7797(6)
O23_16 O 0.1530(5) 0.1519(6) 0.7842(6)
C6_16 C 0.0611(7) 0.1616(8) 0.6732(9)
C8_16 C 0.1257(7) 0.3448(8) 0.8227(9)
H5_16 H 0.139907 0.348229 0.840196
C10_16 C 0.1048(7) 0.3112(8) 0.7802(9)
C11_16 C 0.0844(7) 0.3340(8) 0.7702(8)
C13_16 C 0.0620(7) 0.3520(8) 0.7091(9)
C14_16 C 0.0370(7) 0.2180(8) 0.8291(9)
H6_16 H 0.018142 0.212644 0.818147
H7_16 H 0.044904 0.236266 0.816502
C15_16 C 0.0550(7) 0.1014(8) 0.6460(9)
H8_16 H 0.053533 0.080751 0.637194
O30_16 O 0.1934(7) 0.1768(8) 0.8455(8)
C16_16 C 0.0347(7) 0.1531(8) 0.6562(9)
C19_16 C 0.1094(7) 0.2282(8) 0.6902(10)
C20_16 C 0.0398(7) 0.3927(8) 0.6761(9)
C24_16 C 0.0070(7) 0.3537(9) 0.5868(9)
H9_16 H 0.009774 0.374259 0.595198
C28_16 C 0.0407(7) 0.3699(8) 0.7005(9)
C29_16 C 0.0580(7) 0.1903(8) 0.8240(9)
O33_16 O 0.1718(5) 0.2997(6) 0.8322(6)
C31_16 C 0.0305(7) 0.1205(8) 0.6420(9)
C33_16 C 0.1261(7) 0.3158(8) 0.8056(9)
C35_16 C 0.1612(8) 0.2534(9) 0.7024(10)
C38_16 C 0.1180(4) 0.3853(5) 0.6450(5)
H11_16 H 0.118656 0.401630 0.628398
C39_16 C 0.1425(4) 0.3656(5) 0.6497(5)
H12_16 H 0.159526 0.368852 0.636220
C40_16 C 0.1415(4) 0.3412(5) 0.6744(6)
H13_16 H 0.157911 0.328014 0.677583
C41_16 C 0.1161(4) 0.3363(4) 0.6945(5)
H14_16 H 0.115427 0.319952 0.711124
C42_16 C 0.0916(3) 0.3560(5) 0.6899(5)
C43_16 C 0.0926(4) 0.3804(5) 0.6651(6)
O36_16 O 0.2616(8) 0.1459(9) 0.7952(10)
C44_16 C 0.1494(8) 0.2916(9) 0.8149(10)
C45_16 C 0.0142(7) 0.3466(8) 0.5517(9)
H15_16 H 0.019931 0.363131 0.536773
C47_16 C 0.0639(7) 0.3276(8) 0.7408(8)
H18_16 H 0.069092 0.307022 0.730895
H19_16 H 0.044138 0.325542 0.750758
O39_16 O 0.1849(5) 0.2635(6) 0.6888(8)
C48_16 C 0.0019(7) 0.2256(9) 0.8815(9)
C52_16 C 0.0023(7) 0.2906(8) 0.5622(9)
C53_16 C 0.0187(4) 0.1203(5) 0.8630(6)
H20_16 H 0.000800 0.115661 0.874070
C54_16 C 0.0245(4) 0.1510(4) 0.8513(6)
H21_16 H 0.010441 0.166953 0.854507
C55_16 C 0.0513(5) 0.1579(4) 0.8347(6)
C56_16 C 0.0723(4) 0.1341(5) 0.8299(6)
C57_16 C 0.0665(4) 0.1034(4) 0.8416(6)
H22_16 H 0.080547 0.087475 0.838353
C58_16 C 0.0397(5) 0.0965(4) 0.8582(6)
H23_16 H 0.035854 0.075922 0.865993
C59_16 C 0.0665(7) 0.3995(8) 0.6551(9)
H24_16 H 0.066963 0.414539 0.637024
C61_16 C 0.1292(4) 0.0954(4) 0.6853(6)
H26_16 H 0.144404 0.080615 0.687923
C62_16 C 0.1041(4) 0.0877(4) 0.6657(6)
H27_16 H 0.102539 0.067771 0.655130
C63_16 C 0.0814(4) 0.1098(5) 0.6618(6)
C64_16 C 0.0838(4) 0.1396(4) 0.6776(6)
C65_16 C 0.1089(4) 0.1472(4) 0.6972(6)
H28_16 H 0.110451 0.167172 0.707793
C66_16 C 0.1316(4) 0.1252(5) 0.7011(6)
H29_16 H 0.148360 0.130316 0.714255
C67_16 C 0.1010(7) 0.1384(9) 0.8130(9)
H30_16 H 0.114558 0.121897 0.810279
C68_16 C 0.0876(7) 0.2137(8) 0.6670(9)
C69_16 C 0.0003(7) 0.2609(8) 0.5501(10)
H31_16 H 0.005560 0.256712 0.526670
C70_16 C 0.0133(7) 0.3172(8) 0.5389(10)
H32_16 H 0.019341 0.313127 0.515744
C72_16 C 0.1390(8) 0.2446(9) 0.6409(10)
H34_16 H 0.155071 0.256167 0.632325
C74_16 C 0.0639(7) 0.1966(8) 0.6823(9)
H35_16 H 0.065519 0.198467 0.707891
H36_16 H 0.045530 0.207045 0.675426
C75_16 C 0.1064(7) 0.1698(8) 0.8010(10)
C76_16 C 0.1359(8) 0.1775(9) 0.7855(10)
C77_16 C 0.0168(8) 0.2418(9) 0.9408(10)
H37_16 H 0.011989 0.248121 0.963773
C78_16 C 0.0315(8) 0.2272(9) 0.8657(9)
O43_16 O 0.2229(8) 0.2651(9) 0.7445(13)
N3_16 N 0.3078(11) 0.1318(9) 0.7660(12)
C87_16 C 0.0146(7) 0.4103(9) 0.6639(9)
C91_16 C 0.1378(7) 0.2407(9) 0.6777(10)
O44_16 O 0.1670(9) 0.0733(11) 0.7722(10)
C95_16 C 0.0742(4) 0.2127(6) 0.5690(6)
H45_16 H 0.059283 0.205854 0.553686
C96_16 C 0.1004(5) 0.2250(6) 0.5554(5)
H46_16 H 0.103090 0.226464 0.531020
C97_16 C 0.1226(4) 0.2352(6) 0.5783(6)
H47_16 H 0.140182 0.243422 0.569261
C98_16 C 0.1186(4) 0.2330(6) 0.6148(6)
C99_16 C 0.0924(5) 0.2206(6) 0.6284(4)
C100_16 C 0.0701(4) 0.2105(6) 0.6055(6)
H48_16 H 0.052569 0.202204 0.614595
C101_16 C 0.0833(5) 0.4181(4) 0.8320(6)
H49_16 H 0.083108 0.436621 0.845385
C102_16 C 0.1061(4) 0.3961(5) 0.8363(5)
H50_16 H 0.121141 0.400032 0.852640
C103_16 C 0.1064(4) 0.3684(5) 0.8162(6)
C104_16 C 0.0840(5) 0.3626(4) 0.7918(5)
C105_16 C 0.0612(4) 0.3845(5) 0.7875(5)
H51_16 H 0.046168 0.380619 0.771128
C106_16 C 0.0609(4) 0.4122(5) 0.8075(6)
H52_16 H 0.045621 0.426915 0.804628
C119_16 C 0.0870(7) 0.1948(8) 0.8064(10)
O45_16 O 0.2067(10) 0.1911(12) 0.7671(14)
C135_16 C 0.2865(14) 0.1291(15) 0.7872(16)
H73_16 H 0.288129 0.110867 0.801080
C139_16 C 0.0678(5) 0.2541(7) 0.9496(5)
H80_16 H 0.063122 0.257135 0.973337
C140_16 C 0.0465(4) 0.2426(7) 0.9262(6)
C141_16 C 0.0535(4) 0.2380(6) 0.8907(6)
C142_16 C 0.0819(5) 0.2448(6) 0.8785(5)
H81_16 H 0.086599 0.241761 0.854678
C143_16 C 0.1032(4) 0.2563(7) 0.9018(6)
H82_16 H 0.122215 0.260925 0.893626
C144_16 C 0.0962(5) 0.2609(6) 0.9373(6)
H83_16 H 0.110477 0.268612 0.952955
C145_14 C 0.3076(12) 0.1619(10) 0.7472(13)
H84_14 H 0.324129 0.163036 0.731259
H85_16 H 0.308179 0.179556 0.763289
H86_14 H 0.289439 0.162536 0.733839
C147_16 C 0.3308(12) 0.1091(14) 0.7556(15)
H90_16 H 0.329639 0.090525 0.770450
H91_16 H 0.350009 0.118595 0.757920
H92_14 H 0.327539 0.103055 0.731340
O49_16 O 0.2120(11) 0.1164(13) 0.7262(14)
H95_16 H 0.149147 0.0712607 0.787458
H96_16 H 0.17809 0.0528945 0.772217
H97_16 H 0.210439 0.257862 0.724329
H98_16 H 0.243761 0.258439 0.740497
H102_16 H 0.195293 0.104527 0.71528
H103_16 H 0.230858 0.104912 0.721628
Ti1_16 Ti 0.93980(12) 0.21077(14) 0.85768(15)
Ti2_16 Ti 0.97503(11) 0.17519(14) 0.63037(16)
Ti3_16 Ti 0.97466(12) 0.37512(14) 0.71632(18)
O2_16 O 0.9307(4) 0.2495(5) 0.8362(5)
O3_16 O 0.9543(4) 0.1712(5) 0.6721(5)
O4_16 O 0.9369(4) 0.1866(5) 0.8161(5)
O6_16 O 0.9726(5) 0.2202(5) 0.6286(6)
O11_16 O 0.9349(5) 0.3921(6) 0.7028(6)
O12_16 O 0.9621(4) 0.3553(5) 0.7584(6)
O18_16 O 0.9805(4) 0.2133(5) 0.8588(6)
O20_16 O 0.9628(4) 0.3410(5) 0.6867(6)
O24_16 O 0.9992(4) 0.0790(5) 0.6244(6)
O25_16 O 0.9789(5) 0.4149(5) 0.7486(7)
O27_16 O 0.8884(5) 0.1652(6) 0.5941(6)
O28_16 O 0.9362(5) 0.1156(5) 0.8917(6)
C1_16 C 0.9439(7) 0.1772(8) 0.7444(8)
H1_16 H 0.962840 0.177710 0.732100
H2_16 H 0.941563 0.197311 0.756702
C2_16 C 0.9084(7) 0.2697(8) 0.8306(9)
C3_16 C 0.9632(7) 0.3619(8) 0.7932(9)
C4_16 C 0.9442(7) 0.1492(8) 0.7726(8)
C5_16 C 0.9673(7) 0.2819(8) 0.6549(9)
H3_16 H 0.964022 0.261973 0.667136
H4_16 H 0.982035 0.293588 0.668445
C7_16 C 0.9416(7) 0.1571(8) 0.8082(8)
C9_16 C 0.9139(7) 0.2971(8) 0.8123(9)
C12_16 C 0.9419(7) 0.1360(8) 0.8338(9)
C17_16 C 0.9129(7) 0.3503(9) 0.6720(10)
O32_16 O 0.9932(6) 0.1958(6) 0.5249(6)
C18_16 C 0.9798(7) 0.2749(8) 0.6225(9)
C21_16 C 0.9951(8) 0.2298(9) 0.9144(10)
C22_16 C 0.9127(8) 0.3806(9) 0.6853(10)
C23_16 C 0.9186(7) 0.1735(8) 0.7167(8)
C25_16 C 0.9998(7) 0.1081(9) 0.6298(9)
C26_16 C 0.9372(7) 0.3295(8) 0.6699(9)
C27_16 C 0.8781(7) 0.2604(9) 0.8440(9)
C30_16 C 0.9559(7) 0.3376(8) 0.8158(9)
C32_16 C 0.9728(7) 0.3926(8) 0.8030(10)
O34_16 O 0.9847(6) 0.4448(6) 0.7950(7)
C34_16 C 0.8564(7) 0.2805(8) 0.8366(9)
H10_16 H 0.837282 0.275406 0.843877
C36_16 C 0.9801(7) 0.2425(8) 0.6087(10)
C37_16 C 0.9788(8) 0.4210(9) 0.7818(11)
O35_16 O 0.8484(5) 0.2215(6) 0.8677(7)
O37_16 O 0.8575(7) 0.4492(7) 0.7627(9)
O38_16 O 0.8907(5) 0.4012(6) 0.6812(6)
C46_16 C 0.9449(7) 0.3063(8) 0.8017(9)
H16_16 H 0.945905 0.306912 0.776023
H17_16 H 0.958317 0.289705 0.809676
C49_16 C 0.9245(7) 0.1716(8) 0.6814(8)
C50_16 C 0.9918(7) 0.2027(9) 0.5582(9)
C51_16 C 0.9383(7) 0.1390(9) 0.8729(9)
O40_16 O 0.8135(8) 0.1539(9) 0.8599(10)
N1_16 N 0.8399(10) 0.1185(11) 0.8247(12)
C60_16 C 0.8730(7) 0.1689(8) 0.6662(9)
H25_16 H 0.858002 0.167446 0.649315
C71_16 C 0.9753(7) 0.3969(9) 0.8406(10)
H33_16 H 0.981819 0.416430 0.849128
N2_16 N 0.8519(9) 0.4399(10) 0.8199(11)
C73_16 C 0.9400(7) 0.2998(8) 0.6566(10)
C79_16 C 0.8858(8) 0.3386(9) 0.6573(10)
H38_16 H 0.868607 0.350803 0.657575
C80_16 C 0.8390(3) 0.3551(5) 0.7912(6)
H39_16 H 0.822468 0.367718 0.786541
C81_16 C 0.8666(4) 0.3637(4) 0.7779(6)
H40_16 H 0.868540 0.381982 0.764233
C82_16 C 0.8912(3) 0.3448(5) 0.7848(6)
H41_16 H 0.909676 0.350534 0.775904
C83_16 C 0.8883(3) 0.3174(5) 0.8052(6)
C84_16 C 0.8606(4) 0.3089(4) 0.8186(6)
C85_16 C 0.8360(3) 0.3277(5) 0.8116(6)
H42_16 H 0.817533 0.322006 0.820523
O42_16 O 0.8167(12) 0.3939(12) 0.7145(9)
C86_16 C 0.9095(7) 0.1636(9) 0.6167(9)
C88_16 C 0.9023(7) 0.1687(8) 0.6552(9)
C89_16 C 0.9904(7) 0.2353(8) 0.5720(9)
C90_16 C 0.9933(7) 0.2987(8) 0.5984(9)
C92_16 C 0.9955(7) 0.3300(8) 0.6102(10)
H43_16 H 0.989552 0.335382 0.633040
C93_16 C 0.9640(8) 0.2294(9) 0.9302(10)
C94_16 C 0.9446(7) 0.1008(8) 0.8227(9)
H44_16 H 0.943010 0.084829 0.839734
C107_16 C 0.9581(5) 0.0535(4) 0.7411(6)
H53_16 H 0.960785 0.032428 0.734401
C108_16 C 0.9587(5) 0.0774(5) 0.7156(4)
H54_16 H 0.961840 0.072326 0.691886
C109_16 C 0.9547(5) 0.1090(4) 0.7256(5)
H55_16 H 0.955093 0.124955 0.708548
C110_16 C 0.9500(5) 0.1166(4) 0.7610(5)
C111_16 C 0.9494(5) 0.0927(5) 0.7865(4)
C112_16 C 0.9534(5) 0.0612(4) 0.7765(5)
H56_16 H 0.952981 0.045158 0.793579
C113_16 C 0.8356(4) 0.1734(6) 0.7110(5)
H57_16 H 0.821028 0.170717 0.693780
C114_16 C 0.8654(4) 0.1714(6) 0.7018(4)
C115_16 C 0.8871(3) 0.1754(6) 0.7276(5)
C116_16 C 0.8791(4) 0.1816(6) 0.7625(5)
H58_16 H 0.893610 0.184320 0.779736
C117_16 C 0.8493(4) 0.1837(6) 0.7717(4)
H59_16 H 0.843889 0.187795 0.795077
C118_16 C 0.8275(3) 0.1796(6) 0.7460(5)
H60_16 H 0.807598 0.180994 0.752100
C120_16 C 0.8743(8) 0.2314(9) 0.8622(10)
C121_16 C 0.9681(5) 0.3514(6) 0.9263(4)
H61_16 H 0.970815 0.354633 0.950475
C122_16 C 0.9599(5) 0.3216(5) 0.9137(5)
H62_16 H 0.957246 0.304839 0.929487
C123_16 C 0.9558(5) 0.3168(4) 0.8775(6)
H63_16 H 0.950385 0.296852 0.869121
C124_16 C 0.9598(5) 0.3419(5) 0.8539(4)
C125_16 C 0.9680(5) 0.3717(5) 0.8665(5)
C126_16 C 0.9721(5) 0.3765(4) 0.9027(6)
H64_16 H 0.977523 0.396441 0.911098
C127_16 C 0.8589(4) 0.2964(5) 0.6305(7)
H65_16 H 0.842305 0.309549 0.630303
C128_16 C 0.8860(5) 0.3080(4) 0.6424(7)
C129_16 C 0.9108(4) 0.2884(5) 0.6427(7)
C130_16 C 0.9085(4) 0.2572(5) 0.6310(7)
H66_16 H 0.925096 0.244017 0.631137
C131_16 C 0.8814(5) 0.2455(4) 0.6190(7)
H67_16 H 0.879907 0.224601 0.611212
C132_16 C 0.8566(4) 0.2652(6) 0.6188(7)
H68_16 H 0.838511 0.257367 0.610795
C133_16 C 0.8332(11) 0.4364(12) 0.8505(13)
H69_16 H 0.821332 0.417594 0.848010
H70_16 H 0.845313 0.434651 0.871357
H71_16 H 0.820543 0.454651 0.852537
C134_16 C 0.8410(12) 0.4473(12) 0.7890(13)
H72_16 H 0.820752 0.451219 0.786674
O46_16 O 0.8011(15) 0.2674(14) 0.9177(18)
C136_16 C 0.8853(11) 0.4342(12) 0.8204(14)
H74_16 H 0.889199 0.411951 0.824030
H75_16 H 0.893735 0.440771 0.798195
H76_16 H 0.894099 0.446218 0.839351
C137_16 C 0.8344(11) 0.1419(13) 0.8481(13)
C138_16 C 0.8692(10) 0.1104(12) 0.8177(13)
H77_16 H 0.881636 0.118350 0.836365
H78_16 H 0.870952 0.087667 0.816479
H79_16 H 0.875153 0.119558 0.795513
C146_16 C 0.8192(12) 0.0998(14) 0.8058(15)
H87_16 H 0.807824 0.113224 0.790295
H88_16 H 0.829452 0.084074 0.792079
H89_16 H 0.806104 0.089480 0.822308
O47_16 O 0.7677(10) 0.2219(10) 0.9568(11)
O48_16 O 0.781(2) 0.228(2) 0.841(2)
H93_16 H 0.828927 0.378648 0.728313
H94_16 H 0.808274 0.382984 0.693418
H99_16 H 0.819575 0.272168 0.931018
H100_16 H 0.783644 0.272526 0.932712
H101_16 H 0.854753 0.152169 0.858621
H104_16 H 0.78016 0.22072 0.978489
H105_16 H 0.750268 0.207672 0.959504
H106_16 H 0.787169 0.250643 0.839681
H107_16 H 0.759027 0.226635 0.840146
C145_15 C 0.9424(12) 0.4119(10) 0.9972(13)
H84_15 H 0.925871 0.413036 0.981259
H86_15 H 0.960561 0.412536 0.983839
H92_15 H 0.922461 0.353055 0.981340
C145_16 C 0.0576(12) 0.5881(10) 0.9972(13)
H84_16 H 0.074129 0.586964 0.981259
H86_16 H 0.039439 0.587464 0.983839
H92_16 H 0.077539 0.646945 0.981340
loop_
_geom_bond_atom_site_label_1
_geom_bond_atom_site_label_2
_geom_bond_site_symmetry_1
_geom_bond_site_symmetry_2
Ba1 O37 1_555 1_555
Ba2 O23 1_555 1_555
Ba3 O35 1_555 1_555
Ba4 O14 1_555 1_555
Ti1 O2 1_555 1_555
Ti2 O1 1_555 1_555
Ti3 O11 1_555 1_555
Ti4 O5 1_555 1_555
O1 C16 1_555 1_555
O2 C2 1_555 1_555
O3 Ti2 1_555 1_555
O4 Ti1 1_555 1_555
O5 C119 1_555 1_555
O6 Ti2 1_555 1_555
O7 Ti1 1_555 1_555
O8 Ti2 1_555 1_555
O9 Ti4 1_555 1_555
O10 Ti4 1_555 1_555
O11 C22 1_555 1_555
O12 Ti3 1_555 1_555
O13 Ti4 1_555 1_555
O14 Ti4 1_555 1_555
O15 Ti3 1_555 1_555
O16 Ti1 1_555 1_555
O17 Ti1 1_555 1_555
O18 Ti1 1_555 1_555
O19 Ti2 1_555 1_555
O20 Ti3 1_555 1_555
O21 Ba4 1_555 1_555
O22 Ti2 1_555 1_555
O23 C76 1_555 1_555
O24 C25 1_555 1_555
O25 Ti3 1_555 1_555
O26 Ti3 1_555 1_555
O27 C86 1_555 1_555
O28 C51 1_555 1_555
C1 H1 1_555 1_555
H2 C1 1_555 1_555
C2 C9 1_555 1_555
C3 O12 1_555 1_555
C4 C1 1_555 1_555
O29 C87 1_555 1_555
C5 H3 1_555 1_555
H4 C5 1_555 1_555
C6 C16 1_555 1_555
C7 O4 1_555 1_555
C8 H5 1_555 1_555
C9 C46 1_555 1_555
C10 O10 1_555 1_555
C11 C10 1_555 1_555
C12 C7 1_555 1_555
C13 C28 1_555 1_555
C14 H6 1_555 1_555
H7 C14 1_555 1_555
C15 H8 1_555 1_555
O30 Ba2 1_555 1_555
C16 C31 1_555 1_555
C17 C22 1_555 1_555
O31 C93 1_555 1_555
O32 C50 1_555 1_555
C18 C5 1_555 1_555
C19 O9 1_555 1_555
C20 C28 1_555 1_555
C21 C48 1_555 1_555
C22 O38 1_555 1_555
C23 C1 1_555 1_555
C24 H9 1_555 1_555
C25 O8 1_555 1_555
C26 O20 1_555 1_555
C27 C2 1_555 1_555
C28 O15 1_555 1_555
C29 C14 1_555 1_555
O33 Ba4 1_555 1_555
C30 C3 1_555 1_555
C31 C15 1_555 1_555
C32 C3 1_555 1_555
O34 C37 1_555 1_555
C33 C8 1_555 1_555
C34 C27 1_555 1_555
H10 C34 1_555 1_555
C35 O13 1_555 1_555
C36 O6 1_555 1_555
C37 O25 1_555 1_555
O35 C120 1_555 1_555
C38 H11 1_555 1_555
C39 C38 1_555 1_555
H12 C39 1_555 1_555
C40 C39 1_555 1_555
H13 C40 1_555 1_555
C41 C40 1_555 1_555
H14 C41 1_555 1_555
C42 C13 1_555 1_555
C43 C38 1_555 1_555
O36 Ba2 1_555 1_555
C44 O14 1_555 1_555
C45 C24 1_555 1_555
H15 C45 1_555 1_555
O37 C134 1_555 1_555
O38 Ba1 1_555 1_555
C46 C30 1_555 1_555
H16 C46 1_555 1_555
H17 C46 1_555 1_555
C47 C11 1_555 1_555
H18 C47 1_555 1_555
H19 C47 1_555 1_555
O39 C35 1_555 1_555
C48 O18 1_555 1_555
C49 O3 1_555 1_555
C50 O19 1_555 1_555
C51 O16 1_555 1_555
O40 Ba3 1_555 1_555
C52 C69 1_555 1_555
C53 H20 1_555 1_555
C54 C53 1_555 1_555
H21 C54 1_555 1_555
C55 C29 1_555 1_555
C56 C55 1_555 1_555
C57 C56 1_555 1_555
H22 C57 1_555 1_555
C58 C53 1_555 1_555
H23 C58 1_555 1_555
N1 C137 1_555 1_555
C59 C20 1_555 1_555
H24 C59 1_555 1_555
C60 H25 1_555 1_555
C61 H26 1_555 1_555
C62 C61 1_555 1_555
H27 C62 1_555 1_555
C63 C15 1_555 1_555
C64 C6 1_555 1_555
C65 C64 1_555 1_555
H28 C65 1_555 1_555
C66 C61 1_555 1_555
H29 C66 1_555 1_555
C67 C56 1_555 1_555
H30 C67 1_555 1_555
C68 C19 1_555 1_555
C69 H31 1_555 1_555
C70 C45 1_555 1_555
H32 C70 1_555 1_555
C71 C32 1_555 1_555
H33 C71 1_555 1_555
C72 H34 1_555 1_555
N2 C133 1_555 1_555
C73 C5 1_555 1_555
C74 C6 1_555 1_555
H35 C74 1_555 1_555
H36 C74 1_555 1_555
C75 C67 1_555 1_555
C76 O21 1_555 1_555
C77 C21 1_555 1_555
H37 C77 1_555 1_555
O41 Ba4 1_555 1_555
C78 C14 1_555 1_555
C79 C17 1_555 1_555
H38 C79 1_555 1_555
C80 H39 1_555 1_555
C81 C80 1_555 1_555
H40 C81 1_555 1_555
C82 C81 1_555 1_555
H41 C82 1_555 1_555
C83 C9 1_555 1_555
C84 C34 1_555 1_555
C85 C80 1_555 1_555
H42 C85 1_555 1_555
O42 Ba1 1_555 1_555
O43 Ba4 1_555 1_555
C86 O22 1_555 1_555
N3 C135 1_555 1_555
C87 O26 1_555 1_555
C88 C49 1_555 1_555
C89 C36 1_555 1_555
C90 C18 1_555 1_555
C91 C19 1_555 1_555
C92 C24 1_555 1_555
H43 C92 1_555 1_555
O44 Ba2 1_555 1_555
C93 O7 1_555 1_555
C94 C12 1_555 1_555
H44 C94 1_555 1_555
C95 H45 1_555 1_555
C96 C95 1_555 1_555
H46 C96 1_555 1_555
C97 C96 1_555 1_555
H47 C97 1_555 1_555
C98 C72 1_555 1_555
C99 C68 1_555 1_555
C100 C95 1_555 1_555
H48 C100 1_555 1_555
C101 H49 1_555 1_555
C102 C101 1_555 1_555
H50 C102 1_555 1_555
C103 C8 1_555 1_555
C104 C11 1_555 1_555
C105 C104 1_555 1_555
H51 C105 1_555 1_555
C106 C101 1_555 1_555
H52 C106 1_555 1_555
C107 H53 1_555 1_555
C108 C107 1_555 1_555
H54 C108 1_555 1_555
C109 C108 1_555 1_555
H55 C109 1_555 1_555
C110 C4 1_555 1_555
C111 C94 1_555 1_555
C112 C107 1_555 1_555
H56 C112 1_555 1_555
C113 H57 1_555 1_555
C114 C60 1_555 1_555
C115 C23 1_555 1_555
C116 C115 1_555 1_555
H58 C116 1_555 1_555
C117 C116 1_555 1_555
H59 C117 1_555 1_555
C118 C113 1_555 1_555
H60 C118 1_555 1_555
C119 C29 1_555 1_555
C120 O17 1_555 1_555
C121 H61 1_555 1_555
C122 C121 1_555 1_555
H62 C122 1_555 1_555
C123 C122 1_555 1_555
H63 C123 1_555 1_555
C124 C30 1_555 1_555
C125 C71 1_555 1_555
C126 C121 1_555 1_555
H64 C126 1_555 1_555
C127 H65 1_555 1_555
C128 C79 1_555 1_555
C129 C73 1_555 1_555
C130 C129 1_555 1_555
H66 C130 1_555 1_555
C131 C130 1_555 1_555
H67 C131 1_555 1_555
C132 C127 1_555 1_555
H68 C132 1_555 1_555
O45 Ba2 1_555 1_555
C133 H69 1_555 1_555
H70 C133 1_555 1_555
H71 C133 1_555 1_555
C134 N2 1_555 1_555
H72 C134 1_555 1_555
C135 O36 1_555 1_555
H73 C135 1_555 1_555
O46 Ba3 1_555 1_555
C136 N2 1_555 1_555
H74 C136 1_555 1_555
H75 C136 1_555 1_555
H76 C136 1_555 1_555
C137 O40 1_555 1_555
C138 N1 1_555 1_555
H77 C138 1_555 1_555
H78 C138 1_555 1_555
H79 C138 1_555 1_555
C139 H80 1_555 1_555
C140 C77 1_555 1_555
C141 C78 1_555 1_555
C142 C141 1_555 1_555
H81 C142 1_555 1_555
C143 C142 1_555 1_555
H82 C143 1_555 1_555
C144 C139 1_555 1_555
H83 C144 1_555 1_555
C145 N3 1_555 1_555
H84 C145 1_555 1_555
H85 C145 1_555 1_555
H86 C145 1_555 1_555
C146 N1 1_555 1_555
H87 C146 1_555 1_555
H88 C146 1_555 1_555
H89 C146 1_555 1_555
O47 Ba3 1_555 1_555
O48 Ba3 1_555 1_555
C147 N3 1_555 1_555
H90 C147 1_555 1_555
H91 C147 1_555 1_555
H92 C147 1_555 1_555
O49 Ba2 1_555 1_555
O50 Ba3 1_555 1_555
Ba5 O7 1_555 1_555
Ba6 O8 1_555 1_555
Ba7 O26 1_555 1_555
Ba8 O41 1_555 1_555
O51 Ba1 1_555 1_555
O52 Ba2 1_555 1_555
O53 Ba1 1_555 1_555
O54 Ba1 1_555 1_555
O55 Ba2 1_555 1_555
O56 Ba2 1_555 1_555
O57 Ba3 1_555 1_555
O59 Ba1 1_555 1_555
O60 Ba4 1_555 1_555
O61 Ba1 1_555 1_555
Ba4 O30 1_555 1_555
Ba4 O45 1_555 1_555
Ti4 O21 1_555 1_555
O16 Ba5 1_555 1_555
O17 Ba5 1_555 1_555
O19 Ba6 1_555 1_555
O22 Ba6 1_555 1_555
C4 C7 1_555 1_555
O29 Ba7 1_555 1_555
C10 C33 1_555 1_555
C12 C51 1_555 1_555
C13 C47 1_555 1_555
C17 C26 1_555 1_555
O31 Ba5 1_555 1_555
C18 C36 1_555 1_555
C20 C87 1_555 1_555
C21 C93 1_555 1_555
C23 C49 1_555 1_555
C25 C31 1_555 1_555
C26 C73 1_555 1_555
C27 C120 1_555 1_555
O33 C44 1_555 1_555
C32 C37 1_555 1_555
C33 C44 1_555 1_555
C35 C91 1_555 1_555
C41 C42 1_555 1_555
C42 C43 1_555 1_555
C43 C59 1_555 1_555
C48 C78 1_555 1_555
C50 C89 1_555 1_555
C52 C70 1_555 1_555
C52 C90 1_555 1_555
C54 C55 1_555 1_555
C57 C58 1_555 1_555
C60 C88 1_555 1_555
C62 C63 1_555 1_555
C63 C64 1_555 1_555
C65 C66 1_555 1_555
C68 C74 1_555 1_555
C69 C89 1_555 1_555
C72 C91 1_555 1_555
C75 C76 1_555 1_555
C75 C119 1_555 1_555
C82 C83 1_555 1_555
C83 C84 1_555 1_555
C84 C85 1_555 1_555
C86 C88 1_555 1_555
C90 C92 1_555 1_555
C97 C98 1_555 1_555
C98 C99 1_555 1_555
C99 C100 1_555 1_555
C102 C103 1_555 1_555
C103 C104 1_555 1_555
C105 C106 1_555 1_555
C109 C110 1_555 1_555
C110 C111 1_555 1_555
C111 C112 1_555 1_555
C113 C114 1_555 1_555
C114 C115 1_555 1_555
C117 C118 1_555 1_555
C123 C124 1_555 1_555
C124 C125 1_555 1_555
C125 C126 1_555 1_555
C127 C128 1_555 1_555
C128 C129 1_555 1_555
C131 C132 1_555 1_555
C139 C140 1_555 1_555
C140 C141 1_555 1_555
C143 C144 1_555 1_555
O50 Ba5 1_555 1_555
Ba7 O61 1_555 1_555
Ba8 O60 1_555 1_555
O42 H93 1_555 1_555
O42 H94 1_555 1_555
O44 H95 1_555 1_555
O44 H96 1_555 1_555
O43 H97 1_555 1_555
O43 H98 1_555 1_555
O46 H99 1_555 1_555
O46 H100 1_555 1_555
C137 H101 1_555 1_555
O49 H102 1_555 1_555
O49 H103 1_555 1_555
O47 H104 1_555 1_555
O47 H105 1_555 1_555
O48 H106 1_555 1_555
O48 H107 1_555 1_555
Ba1_2 O37_2 1_555 1_555
Ba2_2 O23_2 1_555 1_555
Ba3_2 O35_2 1_555 1_555
Ba8 O14_2 1_555 1_555
Ti1_2 O2_2 1_555 1_555
Ti2_2 O1_2 1_555 1_555
Ti3_2 O11_2 1_555 1_555
Ti4_2 O5_2 1_555 1_555
O1_2 C16_2 1_555 1_555
O2_2 C2_2 1_555 1_555
O3_2 Ti2_2 1_555 1_555
O4_2 Ti1_2 1_555 1_555
O5_2 C119_2 1_555 1_555
O6_2 Ti2_2 1_555 1_555
O7_2 Ti1_2 1_555 1_555
O8_2 Ti2_2 1_555 1_555
O9_2 Ti4_2 1_555 1_555
O10_2 Ti4_2 1_555 1_555
O11_2 C22_2 1_555 1_555
O12_2 Ti3_2 1_555 1_555
O13_2 Ti4_2 1_555 1_555
O14_2 Ti4_2 1_555 1_555
O15_2 Ti3_2 1_555 1_555
O16_2 Ti1_2 1_555 1_555
O17_2 Ti1_2 1_555 1_555
O18_2 Ti1_2 1_555 1_555
O19_2 Ti2_2 1_555 1_555
O20_2 Ti3_2 1_555 1_555
O21_2 Ba8 1_555 1_555
O22_2 Ti2_2 1_555 1_555
O23_2 C76_2 1_555 1_555
O24_2 C25_2 1_555 1_555
O25_2 Ti3_2 1_555 1_555
O26_2 Ti3_2 1_555 1_555
O27_2 C86_2 1_555 1_555
O28_2 C51_2 1_555 1_555
C1_2 H1_2 1_555 1_555
H2_2 C1_2 1_555 1_555
C2_2 C9_2 1_555 1_555
C3_2 O12_2 1_555 1_555
C4_2 C1_2 1_555 1_555
O29_2 C87_2 1_555 1_555
C5_2 H3_2 1_555 1_555
H4_2 C5_2 1_555 1_555
C6_2 C16_2 1_555 1_555
C7_2 O4_2 1_555 1_555
C8_2 H5_2 1_555 1_555
C9_2 C46_2 1_555 1_555
C10_2 O10_2 1_555 1_555
C11_2 C10_2 1_555 1_555
C12_2 C7_2 1_555 1_555
C13_2 C28_2 1_555 1_555
C14_2 H6_2 1_555 1_555
H7_2 C14_2 1_555 1_555
C15_2 H8_2 1_555 1_555
O30_2 Ba2_2 1_555 1_555
C16_2 C31_2 1_555 1_555
C17_2 C22_2 1_555 1_555
O31_2 C93_2 1_555 1_555
O32_2 C50_2 1_555 1_555
C18_2 C5_2 1_555 1_555
C19_2 O9_2 1_555 1_555
C20_2 C28_2 1_555 1_555
C21_2 C48_2 1_555 1_555
C22_2 O38_2 1_555 1_555
C23_2 C1_2 1_555 1_555
C24_2 H9_2 1_555 1_555
C25_2 O8_2 1_555 1_555
C26_2 O20_2 1_555 1_555
C27_2 C2_2 1_555 1_555
C28_2 O15_2 1_555 1_555
C29_2 C14_2 1_555 1_555
O33_2 Ba8 1_555 1_555
C30_2 C3_2 1_555 1_555
C31_2 C15_2 1_555 1_555
C32_2 C3_2 1_555 1_555
O34_2 C37_2 1_555 1_555
C33_2 C8_2 1_555 1_555
C34_2 C27_2 1_555 1_555
H10_2 C34_2 1_555 1_555
C35_2 O13_2 1_555 1_555
C36_2 O6_2 1_555 1_555
C37_2 O25_2 1_555 1_555
O35_2 C120_2 1_555 1_555
C38_2 H11_2 1_555 1_555
C39_2 C38_2 1_555 1_555
H12_2 C39_2 1_555 1_555
C40_2 C39_2 1_555 1_555
H13_2 C40_2 1_555 1_555
C41_2 C40_2 1_555 1_555
H14_2 C41_2 1_555 1_555
C42_2 C13_2 1_555 1_555
C43_2 C38_2 1_555 1_555
O36_2 Ba2_2 1_555 1_555
C44_2 O14_2 1_555 1_555
C45_2 C24_2 1_555 1_555
H15_2 C45_2 1_555 1_555
O37_2 C134_2 1_555 1_555
O38_2 Ba1_2 1_555 1_555
C46_2 C30_2 1_555 1_555
H16_2 C46_2 1_555 1_555
H17_2 C46_2 1_555 1_555
C47_2 C11_2 1_555 1_555
H18_2 C47_2 1_555 1_555
H19_2 C47_2 1_555 1_555
O39_2 C35_2 1_555 1_555
C48_2 O18_2 1_555 1_555
C49_2 O3_2 1_555 1_555
C50_2 O19_2 1_555 1_555
C51_2 O16_2 1_555 1_555
O40_2 Ba3_2 1_555 1_555
C52_2 C69_2 1_555 1_555
C53_2 H20_2 1_555 1_555
C54_2 C53_2 1_555 1_555
H21_2 C54_2 1_555 1_555
C55_2 C29_2 1_555 1_555
C56_2 C55_2 1_555 1_555
C57_2 C56_2 1_555 1_555
H22_2 C57_2 1_555 1_555
C58_2 C53_2 1_555 1_555
H23_2 C58_2 1_555 1_555
N1_2 C137_2 1_555 1_555
C59_2 C20_2 1_555 1_555
H24_2 C59_2 1_555 1_555
C60_2 H25_2 1_555 1_555
C61_2 H26_2 1_555 1_555
C62_2 C61_2 1_555 1_555
H27_2 C62_2 1_555 1_555
C63_2 C15_2 1_555 1_555
C64_2 C6_2 1_555 1_555
C65_2 C64_2 1_555 1_555
H28_2 C65_2 1_555 1_555
C66_2 C61_2 1_555 1_555
H29_2 C66_2 1_555 1_555
C67_2 C56_2 1_555 1_555
H30_2 C67_2 1_555 1_555
C68_2 C19_2 1_555 1_555
C69_2 H31_2 1_555 1_555
C70_2 C45_2 1_555 1_555
H32_2 C70_2 1_555 1_555
C71_2 C32_2 1_555 1_555
H33_2 C71_2 1_555 1_555
C72_2 H34_2 1_555 1_555
N2_2 C133_2 1_555 1_555
C73_2 C5_2 1_555 1_555
C74_2 C6_2 1_555 1_555
H35_2 C74_2 1_555 1_555
H36_2 C74_2 1_555 1_555
C75_2 C67_2 1_555 1_555
C76_2 O21_2 1_555 1_555
C77_2 C21_2 1_555 1_555
H37_2 C77_2 1_555 1_555
C78_2 C14_2 1_555 1_555
C79_2 C17_2 1_555 1_555
H38_2 C79_2 1_555 1_555
C80_2 H39_2 1_555 1_555
C81_2 C80_2 1_555 1_555
H40_2 C81_2 1_555 1_555
C82_2 C81_2 1_555 1_555
H41_2 C82_2 1_555 1_555
C83_2 C9_2 1_555 1_555
C84_2 C34_2 1_555 1_555
C85_2 C80_2 1_555 1_555
H42_2 C85_2 1_555 1_555
O42_2 Ba1_2 1_555 1_555
O43_2 Ba8 1_555 1_555
C86_2 O22_2 1_555 1_555
N3_2 C135_2 1_555 1_555
C87_2 O26_2 1_555 1_555
C88_2 C49_2 1_555 1_555
C89_2 C36_2 1_555 1_555
C90_2 C18_2 1_555 1_555
C91_2 C19_2 1_555 1_555
C92_2 C24_2 1_555 1_555
H43_2 C92_2 1_555 1_555
O44_2 Ba2_2 1_555 1_555
C93_2 O7_2 1_555 1_555
C94_2 C12_2 1_555 1_555
H44_2 C94_2 1_555 1_555
C95_2 H45_2 1_555 1_555
C96_2 C95_2 1_555 1_555
H46_2 C96_2 1_555 1_555
C97_2 C96_2 1_555 1_555
H47_2 C97_2 1_555 1_555
C98_2 C72_2 1_555 1_555
C99_2 C68_2 1_555 1_555
C100_2 C95_2 1_555 1_555
H48_2 C100_2 1_555 1_555
C101_2 H49_2 1_555 1_555
C102_2 C101_2 1_555 1_555
H50_2 C102_2 1_555 1_555
C103_2 C8_2 1_555 1_555
C104_2 C11_2 1_555 1_555
C105_2 C104_2 1_555 1_555
H51_2 C105_2 1_555 1_555
C106_2 C101_2 1_555 1_555
H52_2 C106_2 1_555 1_555
C107_2 H53_2 1_555 1_555
C108_2 C107_2 1_555 1_555
H54_2 C108_2 1_555 1_555
C109_2 C108_2 1_555 1_555
H55_2 C109_2 1_555 1_555
C110_2 C4_2 1_555 1_555
C111_2 C94_2 1_555 1_555
C112_2 C107_2 1_555 1_555
H56_2 C112_2 1_555 1_555
C113_2 H57_2 1_555 1_555
C114_2 C60_2 1_555 1_555
C115_2 C23_2 1_555 1_555
C116_2 C115_2 1_555 1_555
H58_2 C116_2 1_555 1_555
C117_2 C116_2 1_555 1_555
H59_2 C117_2 1_555 1_555
C118_2 C113_2 1_555 1_555
H60_2 C118_2 1_555 1_555
C119_2 C29_2 1_555 1_555
C120_2 O17_2 1_555 1_555
C121_2 H61_2 1_555 1_555
C122_2 C121_2 1_555 1_555
H62_2 C122_2 1_555 1_555
C123_2 C122_2 1_555 1_555
H63_2 C123_2 1_555 1_555
C124_2 C30_2 1_555 1_555
C125_2 C71_2 1_555 1_555
C126_2 C121_2 1_555 1_555
H64_2 C126_2 1_555 1_555
C127_2 H65_2 1_555 1_555
C128_2 C79_2 1_555 1_555
C129_2 C73_2 1_555 1_555
C130_2 C129_2 1_555 1_555
H66_2 C130_2 1_555 1_555
C131_2 C130_2 1_555 1_555
H67_2 C131_2 1_555 1_555
C132_2 C127_2 1_555 1_555
H68_2 C132_2 1_555 1_555
O45_2 Ba2_2 1_555 1_555
C133_2 H69_2 1_555 1_555
H70_2 C133_2 1_555 1_555
H71_2 C133_2 1_555 1_555
C134_2 N2_2 1_555 1_555
H72_2 C134_2 1_555 1_555
C135_2 O36_2 1_555 1_555
H73_2 C135_2 1_555 1_555
O46_2 Ba3_2 1_555 1_555
C136_2 N2_2 1_555 1_555
H74_2 C136_2 1_555 1_555
H75_2 C136_2 1_555 1_555
H76_2 C136_2 1_555 1_555
C137_2 O40_2 1_555 1_555
C138_2 N1_2 1_555 1_555
H77_2 C138_2 1_555 1_555
H78_2 C138_2 1_555 1_555
H79_2 C138_2 1_555 1_555
C139_2 H80_2 1_555 1_555
C140_2 C77_2 1_555 1_555
C141_2 C78_2 1_555 1_555
C142_2 C141_2 1_555 1_555
H81_2 C142_2 1_555 1_555
C143_2 C142_2 1_555 1_555
H82_2 C143_2 1_555 1_555
C144_2 C139_2 1_555 1_555
H83_2 C144_2 1_555 1_555
C145_2 N3_2 1_555 1_555
H84_2 C145_2 1_555 1_555
H85_2 C145_2 1_555 1_555
H86_2 C145_2 1_555 1_555
C146_2 N1_2 1_555 1_555
H87_2 C146_2 1_555 1_555
H88_2 C146_2 1_555 1_555
H89_2 C146_2 1_555 1_555
O47_2 Ba3_2 1_555 1_555
O48_2 Ba3_2 1_555 1_555
C147_2 N3_2 1_555 1_555
H90_2 C147_2 1_555 1_555
H91_2 C147_2 1_555 1_555
H92_2 C147_2 1_555 1_555
O49_2 Ba2_2 1_555 1_555
O50_2 Ba3_2 1_555 1_555
Ba5_2 O7_2 1_555 1_555
Ba6_2 O8_2 1_555 1_555
Ba7_2 O26_2 1_555 1_555
O51_2 Ba1_2 1_555 1_555
O52_2 Ba2_2 1_555 1_555
O53_2 Ba1_2 1_555 1_555
O54_2 Ba1_2 1_555 1_555
O55_2 Ba2_2 1_555 1_555
O56_2 Ba2_2 1_555 1_555
O57_2 Ba3_2 1_555 1_555
O59_2 Ba1_2 1_555 1_555
O61_2 Ba1_2 1_555 1_555
Ba8 O30_2 1_555 1_555
Ba8 O45_2 1_555 1_555
Ti4_2 O21_2 1_555 1_555
O16_2 Ba5_2 1_555 1_555
O17_2 Ba5_2 1_555 1_555
O19_2 Ba6_2 1_555 1_555
O22_2 Ba6_2 1_555 1_555
C4_2 C7_2 1_555 1_555
O29_2 Ba7_2 1_555 1_555
C10_2 C33_2 1_555 1_555
C12_2 C51_2 1_555 1_555
C13_2 C47_2 1_555 1_555
C17_2 C26_2 1_555 1_555
O31_2 Ba5_2 1_555 1_555
C18_2 C36_2 1_555 1_555
C20_2 C87_2 1_555 1_555
C21_2 C93_2 1_555 1_555
C23_2 C49_2 1_555 1_555
C25_2 C31_2 1_555 1_555
C26_2 C73_2 1_555 1_555
C27_2 C120_2 1_555 1_555
O33_2 C44_2 1_555 1_555
C32_2 C37_2 1_555 1_555
C33_2 C44_2 1_555 1_555
C35_2 C91_2 1_555 1_555
C41_2 C42_2 1_555 1_555
C42_2 C43_2 1_555 1_555
C43_2 C59_2 1_555 1_555
C48_2 C78_2 1_555 1_555
C50_2 C89_2 1_555 1_555
C52_2 C70_2 1_555 1_555
C52_2 C90_2 1_555 1_555
C54_2 C55_2 1_555 1_555
C57_2 C58_2 1_555 1_555
C60_2 C88_2 1_555 1_555
C62_2 C63_2 1_555 1_555
C63_2 C64_2 1_555 1_555
C65_2 C66_2 1_555 1_555
C68_2 C74_2 1_555 1_555
C69_2 C89_2 1_555 1_555
C72_2 C91_2 1_555 1_555
C75_2 C76_2 1_555 1_555
C75_2 C119_2 1_555 1_555
C82_2 C83_2 1_555 1_555
C83_2 C84_2 1_555 1_555
C84_2 C85_2 1_555 1_555
C86_2 C88_2 1_555 1_555
C90_2 C92_2 1_555 1_555
C97_2 C98_2 1_555 1_555
C98_2 C99_2 1_555 1_555
C99_2 C100_2 1_555 1_555
C102_2 C103_2 1_555 1_555
C103_2 C104_2 1_555 1_555
C105_2 C106_2 1_555 1_555
C109_2 C110_2 1_555 1_555
C110_2 C111_2 1_555 1_555
C111_2 C112_2 1_555 1_555
C113_2 C114_2 1_555 1_555
C114_2 C115_2 1_555 1_555
C117_2 C118_2 1_555 1_555
C123_2 C124_2 1_555 1_555
C124_2 C125_2 1_555 1_555
C125_2 C126_2 1_555 1_555
C127_2 C128_2 1_555 1_555
C128_2 C129_2 1_555 1_555
C131_2 C132_2 1_555 1_555
C139_2 C140_2 1_555 1_555
C140_2 C141_2 1_555 1_555
C143_2 C144_2 1_555 1_555
O50_2 Ba5_2 1_555 1_555
Ba7_2 O61_2 1_555 1_555
O42_2 H93_2 1_555 1_555
O42_2 H94_2 1_555 1_555
O44_2 H95_2 1_555 1_555
O44_2 H96_2 1_555 1_555
O43_2 H97_2 1_555 1_555
O43_2 H98_2 1_555 1_555
O46_2 H99_2 1_555 1_555
O46_2 H100_2 1_555 1_555
C137_2 H101_2 1_555 1_555
O49_2 H102_2 1_555 1_555
O49_2 H103_2 1_555 1_555
O47_2 H104_2 1_555 1_555
O47_2 H105_2 1_555 1_555
O48_2 H106_2 1_555 1_555
O48_2 H107_2 1_555 1_555
Ba5_2 O37_3 1_555 1_555
Ba3_3 O35_3 1_555 1_555
Ti1_3 O2_3 1_555 1_555
Ti3_3 O11_3 1_555 1_555
O2_3 C2_3 1_555 1_555
O3_3 Ti2_3 1_555 1_555
O4_3 Ti1_3 1_555 1_555
O6_3 Ti2_3 1_555 1_555
O7_3 Ti1_3 1_555 1_555
O8_3 Ti2_3 1_555 1_555
O11_3 C22_3 1_555 1_555
O12_3 Ti3_3 1_555 1_555
O16_3 Ti1_3 1_555 1_555
O17_3 Ti1_3 1_555 1_555
O18_3 Ti1_3 1_555 1_555
O19_3 Ti2_3 1_555 1_555
O20_3 Ti3_3 1_555 1_555
O22_3 Ti2_3 1_555 1_555
O24_3 C25_3 1_555 1_555
O25_3 Ti3_3 1_555 1_555
O57_2 Ti3_3 1_555 1_555
O27_3 C86_3 1_555 1_555
O28_3 C51_3 1_555 1_555
C1_3 H1_3 1_555 1_555
H2_3 C1_3 1_555 1_555
C2_3 C9_3 1_555 1_555
C3_3 O12_3 1_555 1_555
C4_3 C1_3 1_555 1_555
C5_3 H3_3 1_555 1_555
H4_3 C5_3 1_555 1_555
C7_3 O4_3 1_555 1_555
C9_3 C46_3 1_555 1_555
C12_3 C7_3 1_555 1_555
C17_3 C22_3 1_555 1_555
O31_3 C93_3 1_555 1_555
O32_3 C50_3 1_555 1_555
C18_3 C5_3 1_555 1_555
C22_3 O38_3 1_555 1_555
C23_3 C1_3 1_555 1_555
C25_3 O8_3 1_555 1_555
C26_3 O20_3 1_555 1_555
C27_3 C2_3 1_555 1_555
C30_3 C3_3 1_555 1_555
C32_3 C3_3 1_555 1_555
O34_3 C37_3 1_555 1_555
C34_3 C27_3 1_555 1_555
H10_3 C34_3 1_555 1_555
C36_3 O6_3 1_555 1_555
C37_3 O25_3 1_555 1_555
O35_3 C120_3 1_555 1_555
O37_3 C134_3 1_555 1_555
O38_3 Ba5_2 1_555 1_555
C46_3 C30_3 1_555 1_555
H16_3 C46_3 1_555 1_555
H17_3 C46_3 1_555 1_555
C49_3 O3_3 1_555 1_555
C50_3 O19_3 1_555 1_555
C51_3 O16_3 1_555 1_555
O40_3 Ba3_3 1_555 1_555
N1_3 C137_3 1_555 1_555
C60_3 H25_3 1_555 1_555
C71_3 C32_3 1_555 1_555
H33_3 C71_3 1_555 1_555
N2_3 C133_3 1_555 1_555
C73_3 C5_3 1_555 1_555
C79_3 C17_3 1_555 1_555
H38_3 C79_3 1_555 1_555
C80_3 H39_3 1_555 1_555
C81_3 C80_3 1_555 1_555
H40_3 C81_3 1_555 1_555
C82_3 C81_3 1_555 1_555
H41_3 C82_3 1_555 1_555
C83_3 C9_3 1_555 1_555
C84_3 C34_3 1_555 1_555
C85_3 C80_3 1_555 1_555
H42_3 C85_3 1_555 1_555
O42_3 Ba5_2 1_555 1_555
C86_3 O22_3 1_555 1_555
C88_3 C49_3 1_555 1_555
C89_3 C36_3 1_555 1_555
C90_3 C18_3 1_555 1_555
H43_3 C92_3 1_555 1_555
C93_3 O7_3 1_555 1_555
C94_3 C12_3 1_555 1_555
H44_3 C94_3 1_555 1_555
C107_3 H53_3 1_555 1_555
C108_3 C107_3 1_555 1_555
H54_3 C108_3 1_555 1_555
C109_3 C108_3 1_555 1_555
H55_3 C109_3 1_555 1_555
C110_3 C4_3 1_555 1_555
C111_3 C94_3 1_555 1_555
C112_3 C107_3 1_555 1_555
H56_3 C112_3 1_555 1_555
C113_3 H57_3 1_555 1_555
C114_3 C60_3 1_555 1_555
C115_3 C23_3 1_555 1_555
C116_3 C115_3 1_555 1_555
H58_3 C116_3 1_555 1_555
C117_3 C116_3 1_555 1_555
H59_3 C117_3 1_555 1_555
C118_3 C113_3 1_555 1_555
H60_3 C118_3 1_555 1_555
C120_3 O17_3 1_555 1_555
C121_3 H61_3 1_555 1_555
C122_3 C121_3 1_555 1_555
H62_3 C122_3 1_555 1_555
C123_3 C122_3 1_555 1_555
H63_3 C123_3 1_555 1_555
C124_3 C30_3 1_555 1_555
C125_3 C71_3 1_555 1_555
C126_3 C121_3 1_555 1_555
H64_3 C126_3 1_555 1_555
C127_3 H65_3 1_555 1_555
C128_3 C79_3 1_555 1_555
C129_3 C73_3 1_555 1_555
C130_3 C129_3 1_555 1_555
H66_3 C130_3 1_555 1_555
C131_3 C130_3 1_555 1_555
H67_3 C131_3 1_555 1_555
C132_3 C127_3 1_555 1_555
H68_3 C132_3 1_555 1_555
C133_3 H69_3 1_555 1_555
H70_3 C133_3 1_555 1_555
H71_3 C133_3 1_555 1_555
C134_3 N2_3 1_555 1_555
H72_3 C134_3 1_555 1_555
O46_3 Ba3_3 1_555 1_555
C136_3 N2_3 1_555 1_555
H74_3 C136_3 1_555 1_555
H75_3 C136_3 1_555 1_555
H76_3 C136_3 1_555 1_555
C137_3 O40_3 1_555 1_555
C138_3 N1_3 1_555 1_555
H77_3 C138_3 1_555 1_555
H78_3 C138_3 1_555 1_555
H79_3 C138_3 1_555 1_555
C146_3 N1_3 1_555 1_555
H87_3 C146_3 1_555 1_555
H88_3 C146_3 1_555 1_555
H89_3 C146_3 1_555 1_555
O47_3 Ba3_3 1_555 1_555
O48_3 Ba3_3 1_555 1_555
O50_3 Ba3_3 1_555 1_555
Ba5_3 O7_3 1_555 1_555
Ba6_3 O8_3 1_555 1_555
O57_3 Ba3_3 1_555 1_555
O58_3 Ba3_3 1_555 1_555
O16_3 Ba5_3 1_555 1_555
O17_3 Ba5_3 1_555 1_555
O19_3 Ba6_3 1_555 1_555
O22_3 Ba6_3 1_555 1_555
C4_3 C7_3 1_555 1_555
C12_3 C51_3 1_555 1_555
C17_3 C26_3 1_555 1_555
O31_3 Ba5_3 1_555 1_555
C18_3 C36_3 1_555 1_555
C21_3 C93_3 1_555 1_555
C23_3 C49_3 1_555 1_555
C26_3 C73_3 1_555 1_555
C27_3 C120_3 1_555 1_555
C32_3 C37_3 1_555 1_555
C50_3 C89_3 1_555 1_555
C60_3 C88_3 1_555 1_555
C82_3 C83_3 1_555 1_555
C83_3 C84_3 1_555 1_555
C84_3 C85_3 1_555 1_555
C86_3 C88_3 1_555 1_555
C90_3 C92_3 1_555 1_555
C109_3 C110_3 1_555 1_555
C110_3 C111_3 1_555 1_555
C111_3 C112_3 1_555 1_555
C113_3 C114_3 1_555 1_555
C114_3 C115_3 1_555 1_555
C117_3 C118_3 1_555 1_555
C123_3 C124_3 1_555 1_555
C124_3 C125_3 1_555 1_555
C125_3 C126_3 1_555 1_555
C127_3 C128_3 1_555 1_555
C128_3 C129_3 1_555 1_555
C131_3 C132_3 1_555 1_555
O50_3 Ba5_3 1_555 1_555
O42_3 H93_3 1_555 1_555
O42_3 H94_3 1_555 1_555
O46_3 H99_3 1_555 1_555
O46_3 H100_3 1_555 1_555
C137_3 H101_3 1_555 1_555
O47_3 H104_3 1_555 1_555
O47_3 H105_3 1_555 1_555
O48_3 H106_3 1_555 1_555
O48_3 H107_3 1_555 1_555
Ba2_3 O23_3 1_555 1_555
Ba4_2 O14_3 1_555 1_555
Ti4_3 O5_3 1_555 1_555
O1_3 C16_3 1_555 1_555
O5_3 C119_3 1_555 1_555
O9_3 Ti4_3 1_555 1_555
O10_3 Ti4_3 1_555 1_555
O13_3 Ti4_3 1_555 1_555
O14_3 Ti4_3 1_555 1_555
O21_3 Ba4_2 1_555 1_555
O23_3 C76_3 1_555 1_555
O58_2 C87_3 1_555 1_555
C6_3 C16_3 1_555 1_555
C8_3 H5_3 1_555 1_555
C10_3 O10_3 1_555 1_555
C11_3 C10_3 1_555 1_555
C13_3 C28_3 1_555 1_555
C14_3 H6_3 1_555 1_555
H7_3 C14_3 1_555 1_555
C15_3 H8_3 1_555 1_555
O30_3 Ba2_3 1_555 1_555
C16_3 C31_3 1_555 1_555
C19_3 O9_3 1_555 1_555
C20_3 C28_3 1_555 1_555
C24_3 H9_3 1_555 1_555
C28_3 O15_3 1_555 1_555
C29_3 C14_3 1_555 1_555
O33_3 Ba4_2 1_555 1_555
C31_3 C15_3 1_555 1_555
C33_3 C8_3 1_555 1_555
C35_3 O13_3 1_555 1_555
C38_3 H11_3 1_555 1_555
C39_3 C38_3 1_555 1_555
H12_3 C39_3 1_555 1_555
C40_3 C39_3 1_555 1_555
H13_3 C40_3 1_555 1_555
C41_3 C40_3 1_555 1_555
H14_3 C41_3 1_555 1_555
C42_3 C13_3 1_555 1_555
C43_3 C38_3 1_555 1_555
O36_3 Ba2_3 1_555 1_555
C44_3 O14_3 1_555 1_555
C45_3 C24_3 1_555 1_555
H15_3 C45_3 1_555 1_555
C47_3 C11_3 1_555 1_555
H18_3 C47_3 1_555 1_555
H19_3 C47_3 1_555 1_555
O39_3 C35_3 1_555 1_555
C52_3 C69_3 1_555 1_555
C53_3 H20_3 1_555 1_555
C54_3 C53_3 1_555 1_555
H21_3 C54_3 1_555 1_555
C55_3 C29_3 1_555 1_555
C56_3 C55_3 1_555 1_555
C57_3 C56_3 1_555 1_555
H22_3 C57_3 1_555 1_555
C58_3 C53_3 1_555 1_555
H23_3 C58_3 1_555 1_555
C59_3 C20_3 1_555 1_555
H24_3 C59_3 1_555 1_555
C61_3 H26_3 1_555 1_555
C62_3 C61_3 1_555 1_555
H27_3 C62_3 1_555 1_555
C63_3 C15_3 1_555 1_555
C64_3 C6_3 1_555 1_555
C65_3 C64_3 1_555 1_555
H28_3 C65_3 1_555 1_555
C66_3 C61_3 1_555 1_555
H29_3 C66_3 1_555 1_555
C67_3 C56_3 1_555 1_555
H30_3 C67_3 1_555 1_555
C68_3 C19_3 1_555 1_555
C69_3 H31_3 1_555 1_555
C70_3 C45_3 1_555 1_555
H32_3 C70_3 1_555 1_555
C72_3 H34_3 1_555 1_555
C74_3 C6_3 1_555 1_555
H35_3 C74_3 1_555 1_555
H36_3 C74_3 1_555 1_555
C75_3 C67_3 1_555 1_555
C76_3 O21_3 1_555 1_555
H37_3 C77_3 1_555 1_555
O41_2 Ba4_2 1_555 1_555
C78_3 C14_3 1_555 1_555
O43_3 Ba4_2 1_555 1_555
N3_3 C135_3 1_555 1_555
C91_3 C19_3 1_555 1_555
O44_3 Ba2_3 1_555 1_555
C95_3 H45_3 1_555 1_555
C96_3 C95_3 1_555 1_555
H46_3 C96_3 1_555 1_555
C97_3 C96_3 1_555 1_555
H47_3 C97_3 1_555 1_555
C98_3 C72_3 1_555 1_555
C99_3 C68_3 1_555 1_555
C100_3 C95_3 1_555 1_555
H48_3 C100_3 1_555 1_555
C101_3 H49_3 1_555 1_555
C102_3 C101_3 1_555 1_555
H50_3 C102_3 1_555 1_555
C103_3 C8_3 1_555 1_555
C104_3 C11_3 1_555 1_555
C105_3 C104_3 1_555 1_555
H51_3 C105_3 1_555 1_555
C106_3 C101_3 1_555 1_555
H52_3 C106_3 1_555 1_555
C119_3 C29_3 1_555 1_555
O45_3 Ba2_3 1_555 1_555
C135_3 O36_3 1_555 1_555
H73_3 C135_3 1_555 1_555
C139_3 H80_3 1_555 1_555
C140_3 C77_3 1_555 1_555
C141_3 C78_3 1_555 1_555
C142_3 C141_3 1_555 1_555
H81_3 C142_3 1_555 1_555
C143_3 C142_3 1_555 1_555
H82_3 C143_3 1_555 1_555
C144_3 C139_3 1_555 1_555
H83_3 C144_3 1_555 1_555
C145_3 N3_3 1_555 1_555
H84_3 C145_3 1_555 1_555
H85_3 C145_3 1_555 1_555
H86_3 C145_3 1_555 1_555
C147_3 N3_3 1_555 1_555
H90_3 C147_3 1_555 1_555
H91_3 C147_3 1_555 1_555
H92_3 C147_3 1_555 1_555
O49_3 Ba2_3 1_555 1_555
Ba8_2 O41_2 1_555 1_555
O52_3 Ba2_3 1_555 1_555
O55_3 Ba2_3 1_555 1_555
O56_3 Ba2_3 1_555 1_555
O60_2 Ba4_2 1_555 1_555
Ba4_2 O30_3 1_555 1_555
Ba4_2 O45_3 1_555 1_555
Ti4_3 O21_3 1_555 1_555
C10_3 C33_3 1_555 1_555
C13_3 C47_3 1_555 1_555
C20_3 C87_3 1_555 1_555
O33_3 C44_3 1_555 1_555
C33_3 C44_3 1_555 1_555
C35_3 C91_3 1_555 1_555
C41_3 C42_3 1_555 1_555
C42_3 C43_3 1_555 1_555
C43_3 C59_3 1_555 1_555
C48_3 C78_3 1_555 1_555
C52_3 C70_3 1_555 1_555
C54_3 C55_3 1_555 1_555
C57_3 C58_3 1_555 1_555
C62_3 C63_3 1_555 1_555
C63_3 C64_3 1_555 1_555
C65_3 C66_3 1_555 1_555
C68_3 C74_3 1_555 1_555
C72_3 C91_3 1_555 1_555
C75_3 C76_3 1_555 1_555
C75_3 C119_3 1_555 1_555
C97_3 C98_3 1_555 1_555
C98_3 C99_3 1_555 1_555
C99_3 C100_3 1_555 1_555
C102_3 C103_3 1_555 1_555
C103_3 C104_3 1_555 1_555
C105_3 C106_3 1_555 1_555
C139_3 C140_3 1_555 1_555
C140_3 C141_3 1_555 1_555
C143_3 C144_3 1_555 1_555
Ba8_2 O60_2 1_555 1_555
O44_3 H95_3 1_555 1_555
O44_3 H96_3 1_555 1_555
O43_3 H97_3 1_555 1_555
O43_3 H98_3 1_555 1_555
O49_3 H102_3 1_555 1_555
O49_3 H103_3 1_555 1_555
Ba1_3 O37_4 1_555 1_555
Ba2_4 O23_4 1_555 1_555
Ba3_4 O35_4 1_555 1_555
Ba8_2 O14_4 1_555 1_555
Ti1_4 O2_4 1_555 1_555
Ti2_4 O1_4 1_555 1_555
Ti3_4 O11_4 1_555 1_555
Ti4_4 O5_4 1_555 1_555
O1_4 C16_4 1_555 1_555
O2_4 C2_4 1_555 1_555
O3_4 Ti2_4 1_555 1_555
O4_4 Ti1_4 1_555 1_555
O5_4 C119_4 1_555 1_555
O6_4 Ti2_4 1_555 1_555
O7_4 Ti1_4 1_555 1_555
O52_2 Ti2_4 1_555 1_555
O9_4 Ti4_4 1_555 1_555
O10_4 Ti4_4 1_555 1_555
O11_4 C22_4 1_555 1_555
O12_4 Ti3_4 1_555 1_555
O13_4 Ti4_4 1_555 1_555
O14_4 Ti4_4 1_555 1_555
O15_4 Ti3_4 1_555 1_555
O16_4 Ti1_4 1_555 1_555
O17_4 Ti1_4 1_555 1_555
O18_4 Ti1_4 1_555 1_555
O55_2 Ti2_4 1_555 1_555
O20_4 Ti3_4 1_555 1_555
O21_4 Ba8_2 1_555 1_555
O56_2 Ti2_4 1_555 1_555
O23_4 C76_4 1_555 1_555
O24_4 C25_4 1_555 1_555
O25_4 Ti3_4 1_555 1_555
O26_3 Ti3_4 1_555 1_555
O27_4 C86_4 1_555 1_555
O28_4 C51_4 1_555 1_555
C1_4 H1_4 1_555 1_555
H2_4 C1_4 1_555 1_555
C2_4 C9_4 1_555 1_555
C3_4 O12_4 1_555 1_555
C4_4 C1_4 1_555 1_555
O29_3 C87_4 1_555 1_555
C5_4 H3_4 1_555 1_555
H4_4 C5_4 1_555 1_555
C6_4 C16_4 1_555 1_555
C7_4 O4_4 1_555 1_555
C8_4 H5_4 1_555 1_555
C9_4 C46_4 1_555 1_555
C10_4 O10_4 1_555 1_555
C11_4 C10_4 1_555 1_555
C12_4 C7_4 1_555 1_555
C13_4 C28_4 1_555 1_555
C14_4 H6_4 1_555 1_555
H7_4 C14_4 1_555 1_555
C15_4 H8_4 1_555 1_555
O30_4 Ba2_4 1_555 1_555
C16_4 C31_4 1_555 1_555
C17_4 C22_4 1_555 1_555
O31_4 C93_4 1_555 1_555
O32_4 C50_4 1_555 1_555
C18_4 C5_4 1_555 1_555
C19_4 O9_4 1_555 1_555
C20_4 C28_4 1_555 1_555
C21_4 C48_4 1_555 1_555
C22_4 O38_4 1_555 1_555
C23_4 C1_4 1_555 1_555
C24_4 H9_4 1_555 1_555
C25_4 O52_2 1_555 1_555
C26_4 O20_4 1_555 1_555
C27_4 C2_4 1_555 1_555
C28_4 O15_4 1_555 1_555
C29_4 C14_4 1_555 1_555
O33_4 Ba8_2 1_555 1_555
C30_4 C3_4 1_555 1_555
C31_4 C15_4 1_555 1_555
C32_4 C3_4 1_555 1_555
O34_4 C37_4 1_555 1_555
C33_4 C8_4 1_555 1_555
C34_4 C27_4 1_555 1_555
H10_4 C34_4 1_555 1_555
C35_4 O13_4 1_555 1_555
C36_4 O6_4 1_555 1_555
C37_4 O25_4 1_555 1_555
O35_4 C120_4 1_555 1_555
C38_4 H11_4 1_555 1_555
C39_4 C38_4 1_555 1_555
H12_4 C39_4 1_555 1_555
C40_4 C39_4 1_555 1_555
H13_4 C40_4 1_555 1_555
C41_4 C40_4 1_555 1_555
H14_4 C41_4 1_555 1_555
C42_4 C13_4 1_555 1_555
C43_4 C38_4 1_555 1_555
O36_4 Ba2_4 1_555 1_555
C44_4 O14_4 1_555 1_555
C45_4 C24_4 1_555 1_555
H15_4 C45_4 1_555 1_555
O37_4 C134_4 1_555 1_555
O38_4 Ba1_3 1_555 1_555
C46_4 C30_4 1_555 1_555
H16_4 C46_4 1_555 1_555
H17_4 C46_4 1_555 1_555
C47_4 C11_4 1_555 1_555
H18_4 C47_4 1_555 1_555
H19_4 C47_4 1_555 1_555
O39_4 C35_4 1_555 1_555
C48_4 O18_4 1_555 1_555
C49_4 O3_4 1_555 1_555
C50_4 O55_2 1_555 1_555
C51_4 O16_4 1_555 1_555
O40_4 Ba3_4 1_555 1_555
C52_4 C69_4 1_555 1_555
C53_4 H20_4 1_555 1_555
C54_4 C53_4 1_555 1_555
H21_4 C54_4 1_555 1_555
C55_4 C29_4 1_555 1_555
C56_4 C55_4 1_555 1_555
C57_4 C56_4 1_555 1_555
H22_4 C57_4 1_555 1_555
C58_4 C53_4 1_555 1_555
H23_4 C58_4 1_555 1_555
N1_4 C137_4 1_555 1_555
C59_4 C20_4 1_555 1_555
H24_4 C59_4 1_555 1_555
C60_4 H25_4 1_555 1_555
C61_4 H26_4 1_555 1_555
C62_4 C61_4 1_555 1_555
H27_4 C62_4 1_555 1_555
C63_4 C15_4 1_555 1_555
C64_4 C6_4 1_555 1_555
C65_4 C64_4 1_555 1_555
H28_4 C65_4 1_555 1_555
C66_4 C61_4 1_555 1_555
H29_4 C66_4 1_555 1_555
C67_4 C56_4 1_555 1_555
H30_4 C67_4 1_555 1_555
C68_4 C19_4 1_555 1_555
C69_4 H31_4 1_555 1_555
C70_4 C45_4 1_555 1_555
H32_4 C70_4 1_555 1_555
C71_4 C32_4 1_555 1_555
H33_4 C71_4 1_555 1_555
C72_4 H34_4 1_555 1_555
N2_4 C133_4 1_555 1_555
C73_4 C5_4 1_555 1_555
C74_4 C6_4 1_555 1_555
H35_4 C74_4 1_555 1_555
H36_4 C74_4 1_555 1_555
C75_4 C67_4 1_555 1_555
C76_4 O21_4 1_555 1_555
C77_4 C21_4 1_555 1_555
H37_4 C77_4 1_555 1_555
C78_4 C14_4 1_555 1_555
C79_4 C17_4 1_555 1_555
H38_4 C79_4 1_555 1_555
C80_4 H39_4 1_555 1_555
C81_4 C80_4 1_555 1_555
H40_4 C81_4 1_555 1_555
C82_4 C81_4 1_555 1_555
H41_4 C82_4 1_555 1_555
C83_4 C9_4 1_555 1_555
C84_4 C34_4 1_555 1_555
C85_4 C80_4 1_555 1_555
H42_4 C85_4 1_555 1_555
O42_4 Ba1_3 1_555 1_555
O43_4 Ba8_2 1_555 1_555
C86_4 O56_2 1_555 1_555
N3_4 C135_4 1_555 1_555
C87_4 O26_3 1_555 1_555
C88_4 C49_4 1_555 1_555
C89_4 C36_4 1_555 1_555
C90_4 C18_4 1_555 1_555
C91_4 C19_4 1_555 1_555
C92_4 C24_4 1_555 1_555
H43_4 C92_4 1_555 1_555
O44_4 Ba2_4 1_555 1_555
C93_4 O7_4 1_555 1_555
C94_4 C12_4 1_555 1_555
H44_4 C94_4 1_555 1_555
C95_4 H45_4 1_555 1_555
C96_4 C95_4 1_555 1_555
H46_4 C96_4 1_555 1_555
C97_4 C96_4 1_555 1_555
H47_4 C97_4 1_555 1_555
C98_4 C72_4 1_555 1_555
C99_4 C68_4 1_555 1_555
C100_4 C95_4 1_555 1_555
H48_4 C100_4 1_555 1_555
C101_4 H49_4 1_555 1_555
C102_4 C101_4 1_555 1_555
H50_4 C102_4 1_555 1_555
C103_4 C8_4 1_555 1_555
C104_4 C11_4 1_555 1_555
C105_4 C104_4 1_555 1_555
H51_4 C105_4 1_555 1_555
C106_4 C101_4 1_555 1_555
H52_4 C106_4 1_555 1_555
C107_4 H53_4 1_555 1_555
C108_4 C107_4 1_555 1_555
H54_4 C108_4 1_555 1_555
C109_4 C108_4 1_555 1_555
H55_4 C109_4 1_555 1_555
C110_4 C4_4 1_555 1_555
C111_4 C94_4 1_555 1_555
C112_4 C107_4 1_555 1_555
H56_4 C112_4 1_555 1_555
C113_4 H57_4 1_555 1_555
C114_4 C60_4 1_555 1_555
C115_4 C23_4 1_555 1_555
C116_4 C115_4 1_555 1_555
H58_4 C116_4 1_555 1_555
C117_4 C116_4 1_555 1_555
H59_4 C117_4 1_555 1_555
C118_4 C113_4 1_555 1_555
H60_4 C118_4 1_555 1_555
C119_4 C29_4 1_555 1_555
C120_4 O17_4 1_555 1_555
C121_4 H61_4 1_555 1_555
C122_4 C121_4 1_555 1_555
H62_4 C122_4 1_555 1_555
C123_4 C122_4 1_555 1_555
H63_4 C123_4 1_555 1_555
C124_4 C30_4 1_555 1_555
C125_4 C71_4 1_555 1_555
C126_4 C121_4 1_555 1_555
H64_4 C126_4 1_555 1_555
C127_4 H65_4 1_555 1_555
C128_4 C79_4 1_555 1_555
C129_4 C73_4 1_555 1_555
C130_4 C129_4 1_555 1_555
H66_4 C130_4 1_555 1_555
C131_4 C130_4 1_555 1_555
H67_4 C131_4 1_555 1_555
C132_4 C127_4 1_555 1_555
H68_4 C132_4 1_555 1_555
O45_4 Ba2_4 1_555 1_555
C133_4 H69_4 1_555 1_555
H70_4 C133_4 1_555 1_555
H71_4 C133_4 1_555 1_555
C134_4 N2_4 1_555 1_555
H72_4 C134_4 1_555 1_555
C135_4 O36_4 1_555 1_555
H73_4 C135_4 1_555 1_555
O46_4 Ba3_4 1_555 1_555
C136_4 N2_4 1_555 1_555
H74_4 C136_4 1_555 1_555
H75_4 C136_4 1_555 1_555
H76_4 C136_4 1_555 1_555
C137_4 O40_4 1_555 1_555
C138_4 N1_4 1_555 1_555
H77_4 C138_4 1_555 1_555
H78_4 C138_4 1_555 1_555
H79_4 C138_4 1_555 1_555
C139_4 H80_4 1_555 1_555
C140_4 C77_4 1_555 1_555
C141_4 C78_4 1_555 1_555
C142_4 C141_4 1_555 1_555
H81_4 C142_4 1_555 1_555
C143_4 C142_4 1_555 1_555
H82_4 C143_4 1_555 1_555
C144_4 C139_4 1_555 1_555
H83_4 C144_4 1_555 1_555
C145_4 N3_4 1_555 1_555
H84_4 C145_4 1_555 1_555
H85_4 C145_4 1_555 1_555
H86_4 C145_4 1_555 1_555
C146_4 N1_4 1_555 1_555
H87_4 C146_4 1_555 1_555
H88_4 C146_4 1_555 1_555
H89_4 C146_4 1_555 1_555
O47_4 Ba3_4 1_555 1_555
O48_4 Ba3_4 1_555 1_555
C147_4 N3_4 1_555 1_555
H90_4 C147_4 1_555 1_555
H91_4 C147_4 1_555 1_555
H92_4 C147_4 1_555 1_555
O49_4 Ba2_4 1_555 1_555
O50_4 Ba3_4 1_555 1_555
Ba5_4 O7_4 1_555 1_555
Ba7_3 O26_3 1_555 1_555
O51_3 Ba1_3 1_555 1_555
O52_4 Ba2_4 1_555 1_555
O53_3 Ba1_3 1_555 1_555
O54_3 Ba1_3 1_555 1_555
O55_4 Ba2_4 1_555 1_555
O56_4 Ba2_4 1_555 1_555
O57_4 Ba3_4 1_555 1_555
O58_4 Ba3_4 1_555 1_555
O59_3 Ba1_3 1_555 1_555
O61_3 Ba1_3 1_555 1_555
Ba8_2 O30_4 1_555 1_555
Ba8_2 O45_4 1_555 1_555
Ti4_4 O21_4 1_555 1_555
O16_4 Ba5_4 1_555 1_555
O17_4 Ba5_4 1_555 1_555
C4_4 C7_4 1_555 1_555
O29_3 Ba7_3 1_555 1_555
C10_4 C33_4 1_555 1_555
C12_4 C51_4 1_555 1_555
C13_4 C47_4 1_555 1_555
C17_4 C26_4 1_555 1_555
O31_4 Ba5_4 1_555 1_555
C18_4 C36_4 1_555 1_555
C20_4 C87_4 1_555 1_555
C21_4 C93_4 1_555 1_555
C23_4 C49_4 1_555 1_555
C25_4 C31_4 1_555 1_555
C26_4 C73_4 1_555 1_555
C27_4 C120_4 1_555 1_555
O33_4 C44_4 1_555 1_555
C32_4 C37_4 1_555 1_555
C33_4 C44_4 1_555 1_555
C35_4 C91_4 1_555 1_555
C41_4 C42_4 1_555 1_555
C42_4 C43_4 1_555 1_555
C43_4 C59_4 1_555 1_555
C48_4 C78_4 1_555 1_555
C50_4 C89_4 1_555 1_555
C52_4 C70_4 1_555 1_555
C52_4 C90_4 1_555 1_555
C54_4 C55_4 1_555 1_555
C57_4 C58_4 1_555 1_555
C60_4 C88_4 1_555 1_555
C62_4 C63_4 1_555 1_555
C63_4 C64_4 1_555 1_555
C65_4 C66_4 1_555 1_555
C68_4 C74_4 1_555 1_555
C69_4 C89_4 1_555 1_555
C72_4 C91_4 1_555 1_555
C75_4 C76_4 1_555 1_555
C75_4 C119_4 1_555 1_555
C82_4 C83_4 1_555 1_555
C83_4 C84_4 1_555 1_555
C84_4 C85_4 1_555 1_555
C86_4 C88_4 1_555 1_555
C90_4 C92_4 1_555 1_555
C97_4 C98_4 1_555 1_555
C98_4 C99_4 1_555 1_555
C99_4 C100_4 1_555 1_555
C102_4 C103_4 1_555 1_555
C103_4 C104_4 1_555 1_555
C105_4 C106_4 1_555 1_555
C109_4 C110_4 1_555 1_555
C110_4 C111_4 1_555 1_555
C111_4 C112_4 1_555 1_555
C113_4 C114_4 1_555 1_555
C114_4 C115_4 1_555 1_555
C117_4 C118_4 1_555 1_555
C123_4 C124_4 1_555 1_555
C124_4 C125_4 1_555 1_555
C125_4 C126_4 1_555 1_555
C127_4 C128_4 1_555 1_555
C128_4 C129_4 1_555 1_555
C131_4 C132_4 1_555 1_555
C139_4 C140_4 1_555 1_555
C140_4 C141_4 1_555 1_555
C143_4 C144_4 1_555 1_555
O50_4 Ba5_4 1_555 1_555
Ba7_3 O61_3 1_555 1_555
O42_4 H93_4 1_555 1_555
O42_4 H94_4 1_555 1_555
O44_4 H95_4 1_555 1_555
O44_4 H96_4 1_555 1_555
O43_4 H97_4 1_555 1_555
O43_4 H98_4 1_555 1_555
O46_4 H99_4 1_555 1_555
O46_4 H100_4 1_555 1_555
C137_4 H101_4 1_555 1_555
O49_4 H102_4 1_555 1_555
O49_4 H103_4 1_555 1_555
O47_4 H104_4 1_555 1_555
O47_4 H105_4 1_555 1_555
O48_4 H106_4 1_555 1_555
O48_4 H107_4 1_555 1_555
C2_5 C9_5 1_555 1_555
C3_5 O12_5 1_555 1_555
C8_5 H5_5 1_555 1_555
C9_5 C46_5 1_555 1_555
C10_5 O10_5 1_555 1_555
C11_5 C10_5 1_555 1_555
C27_5 C2_5 1_555 1_555
C30_5 C3_5 1_555 1_555
C32_5 C3_5 1_555 1_555
O34_5 C37_5 1_555 1_555
C33_5 C8_5 1_555 1_555
C34_5 C27_5 1_555 1_555
H10_5 C34_5 1_555 1_555
C44_5 O14_5 1_555 1_555
O37_5 C134_5 1_555 1_555
C46_5 C30_5 1_555 1_555
H16_5 C46_5 1_555 1_555
H17_5 C46_5 1_555 1_555
C71_5 C32_5 1_555 1_555
H33_5 C71_5 1_555 1_555
N2_5 C133_5 1_555 1_555
C80_5 H39_5 1_555 1_555
C81_5 C80_5 1_555 1_555
H40_5 C81_5 1_555 1_555
C82_5 C81_5 1_555 1_555
H41_5 C82_5 1_555 1_555
C83_5 C9_5 1_555 1_555
C84_5 C34_5 1_555 1_555
C85_5 C80_5 1_555 1_555
H42_5 C85_5 1_555 1_555
C101_5 H49_5 1_555 1_555
C102_5 C101_5 1_555 1_555
H50_5 C102_5 1_555 1_555
C103_5 C8_5 1_555 1_555
C104_5 C11_5 1_555 1_555
C105_5 C104_5 1_555 1_555
H51_5 C105_5 1_555 1_555
C106_5 C101_5 1_555 1_555
H52_5 C106_5 1_555 1_555
C121_5 H61_5 1_555 1_555
C122_5 C121_5 1_555 1_555
H62_5 C122_5 1_555 1_555
C123_5 C122_5 1_555 1_555
H63_5 C123_5 1_555 1_555
C124_5 C30_5 1_555 1_555
C125_5 C71_5 1_555 1_555
C126_5 C121_5 1_555 1_555
H64_5 C126_5 1_555 1_555
C133_5 H69_5 1_555 1_555
H70_5 C133_5 1_555 1_555
H71_5 C133_5 1_555 1_555
C134_5 N2_5 1_555 1_555
H72_5 C134_5 1_555 1_555
C136_5 N2_5 1_555 1_555
H74_5 C136_5 1_555 1_555
H75_5 C136_5 1_555 1_555
H76_5 C136_5 1_555 1_555
C139_5 H80_5 1_555 1_555
H82_5 C143_5 1_555 1_555
C144_5 C139_5 1_555 1_555
H83_5 C144_5 1_555 1_555
C10_5 C33_5 1_555 1_555
O33_5 C44_5 1_555 1_555
C32_5 C37_5 1_555 1_555
C33_5 C44_5 1_555 1_555
C82_5 C83_5 1_555 1_555
C83_5 C84_5 1_555 1_555
C84_5 C85_5 1_555 1_555
C102_5 C103_5 1_555 1_555
C103_5 C104_5 1_555 1_555
C105_5 C106_5 1_555 1_555
C123_5 C124_5 1_555 1_555
C124_5 C125_5 1_555 1_555
C125_5 C126_5 1_555 1_555
C143_5 C144_5 1_555 1_555
Ba8_3 O60_3 1_555 1_555
O46_5 H99_5 1_555 1_555
O46_5 H100_5 1_555 1_555
Ti3_5 O11_5 1_555 1_555
O11_5 C22_5 1_555 1_555
O15_5 Ti3_5 1_555 1_555
O20_5 Ti3_5 1_555 1_555
O25_5 Ti3_5 1_555 1_555
O26_4 Ti3_5 1_555 1_555
O29_4 C87_5 1_555 1_555
C5_5 H3_5 1_555 1_555
H4_5 C5_5 1_555 1_555
C13_5 C28_5 1_555 1_555
C17_5 C22_5 1_555 1_555
C18_5 C5_5 1_555 1_555
C20_5 C28_5 1_555 1_555
C22_5 O38_5 1_555 1_555
C24_5 H9_5 1_555 1_555
C26_5 O20_5 1_555 1_555
C28_5 O15_5 1_555 1_555
C35_5 O13_5 1_555 1_555
C38_5 H11_5 1_555 1_555
C39_5 C38_5 1_555 1_555
H12_5 C39_5 1_555 1_555
C40_5 C39_5 1_555 1_555
H13_5 C40_5 1_555 1_555
C41_5 C40_5 1_555 1_555
H14_5 C41_5 1_555 1_555
C42_5 C13_5 1_555 1_555
C43_5 C38_5 1_555 1_555
C45_5 C24_5 1_555 1_555
H15_5 C45_5 1_555 1_555
O38_5 Ba1_4 1_555 1_555
H18_5 C47_5 1_555 1_555
O39_5 C35_5 1_555 1_555
C52_5 C69_5 1_555 1_555
C59_5 C20_5 1_555 1_555
H24_5 C59_5 1_555 1_555
C69_5 H31_5 1_555 1_555
C70_5 C45_5 1_555 1_555
H32_5 C70_5 1_555 1_555
C73_5 C5_5 1_555 1_555
C79_5 C17_5 1_555 1_555
H38_5 C79_5 1_555 1_555
O42_5 Ba1_4 1_555 1_555
C87_5 O26_4 1_555 1_555
C90_5 C18_5 1_555 1_555
C92_5 C24_5 1_555 1_555
H43_5 C92_5 1_555 1_555
C127_5 H65_5 1_555 1_555
C128_5 C79_5 1_555 1_555
C129_5 C73_5 1_555 1_555
C130_5 C129_5 1_555 1_555
C132_5 C127_5 1_555 1_555
H68_5 C132_5 1_555 1_555
Ba7_4 O26_4 1_555 1_555
O51_4 Ba1_4 1_555 1_555
O53_4 Ba1_4 1_555 1_555
O54_4 Ba1_4 1_555 1_555
O59_4 Ba1_4 1_555 1_555
O61_4 Ba1_4 1_555 1_555
O29_4 Ba7_4 1_555 1_555
C13_5 C47_5 1_555 1_555
C17_5 C26_5 1_555 1_555
C20_5 C87_5 1_555 1_555
C26_5 C73_5 1_555 1_555
C41_5 C42_5 1_555 1_555
C42_5 C43_5 1_555 1_555
C43_5 C59_5 1_555 1_555
C52_5 C70_5 1_555 1_555
C52_5 C90_5 1_555 1_555
C90_5 C92_5 1_555 1_555
C127_5 C128_5 1_555 1_555
C128_5 C129_5 1_555 1_555
Ba7_4 O61_4 1_555 1_555
O42_5 H93_5 1_555 1_555
O42_5 H94_5 1_555 1_555
O43_5 H97_5 1_555 1_555
O43_5 H98_5 1_555 1_555
Ba2_5 O23_5 1_555 1_555
Ba3_5 O35_5 1_555 1_555
Ti1_5 O2_5 1_555 1_555
Ti4_5 O5_5 1_555 1_555
O4_5 Ti1_5 1_555 1_555
O5_5 C119_5 1_555 1_555
O7_5 Ti1_5 1_555 1_555
O16_5 Ti1_5 1_555 1_555
O17_5 Ti1_5 1_555 1_555
O18_5 Ti1_5 1_555 1_555
O21_5 Ba4_3 1_555 1_555
O23_5 C76_5 1_555 1_555
O28_5 C51_5 1_555 1_555
C7_5 O4_5 1_555 1_555
C12_5 C7_5 1_555 1_555
C14_5 H6_5 1_555 1_555
H7_5 C14_5 1_555 1_555
O30_5 Ba2_5 1_555 1_555
O31_5 C93_5 1_555 1_555
C21_5 C48_5 1_555 1_555
C29_5 C14_5 1_555 1_555
O35_5 C120_5 1_555 1_555
O36_5 Ba2_5 1_555 1_555
C48_5 O18_5 1_555 1_555
C51_5 O16_5 1_555 1_555
O40_5 Ba3_5 1_555 1_555
C53_5 H20_5 1_555 1_555
C54_5 C53_5 1_555 1_555
H21_5 C54_5 1_555 1_555
C55_5 C29_5 1_555 1_555
C56_5 C55_5 1_555 1_555
C57_5 C56_5 1_555 1_555
H22_5 C57_5 1_555 1_555
C58_5 C53_5 1_555 1_555
H23_5 C58_5 1_555 1_555
N1_5 C137_5 1_555 1_555
C67_5 C56_5 1_555 1_555
H30_5 C67_5 1_555 1_555
C75_5 C67_5 1_555 1_555
C76_5 O21_5 1_555 1_555
C77_5 C21_5 1_555 1_555
H37_5 C77_5 1_555 1_555
O41_3 Ba4_3 1_555 1_555
C78_5 C14_5 1_555 1_555
N3_5 C135_5 1_555 1_555
O44_5 Ba2_5 1_555 1_555
C93_5 O7_5 1_555 1_555
C94_5 C12_5 1_555 1_555
H44_5 C94_5 1_555 1_555
C110_5 C4_5 1_555 1_555
C111_5 C94_5 1_555 1_555
H56_5 C112_5 1_555 1_555
H58_5 C116_5 1_555 1_555
C117_5 C116_5 1_555 1_555
H59_5 C117_5 1_555 1_555
C119_5 C29_5 1_555 1_555
C120_5 O17_5 1_555 1_555
O45_5 Ba2_5 1_555 1_555
C135_5 O36_5 1_555 1_555
H73_5 C135_5 1_555 1_555
C137_5 O40_5 1_555 1_555
C138_5 N1_5 1_555 1_555
H77_5 C138_5 1_555 1_555
H78_5 C138_5 1_555 1_555
H79_5 C138_5 1_555 1_555
C140_5 C77_5 1_555 1_555
C141_5 C78_5 1_555 1_555
C142_5 C141_5 1_555 1_555
H81_5 C142_5 1_555 1_555
C146_5 N1_5 1_555 1_555
H87_5 C146_5 1_555 1_555
H88_5 C146_5 1_555 1_555
H89_5 C146_5 1_555 1_555
O47_5 Ba3_5 1_555 1_555
O48_5 Ba3_5 1_555 1_555
C147_5 N3_5 1_555 1_555
H90_5 C147_5 1_555 1_555
H91_5 C147_5 1_555 1_555
O50_5 Ba3_5 1_555 1_555
Ba5_5 O7_5 1_555 1_555
O52_5 Ba2_5 1_555 1_555
O55_5 Ba2_5 1_555 1_555
O56_5 Ba2_5 1_555 1_555
O57_5 Ba3_5 1_555 1_555
Ba4_3 O30_5 1_555 1_555
Ba4_3 O45_5 1_555 1_555
Ti4_5 O21_5 1_555 1_555
O16_5 Ba5_5 1_555 1_555
O17_5 Ba5_5 1_555 1_555
C4_5 C7_5 1_555 1_555
C12_5 C51_5 1_555 1_555
O31_5 Ba5_5 1_555 1_555
C21_5 C93_5 1_555 1_555
C48_5 C78_5 1_555 1_555
C54_5 C55_5 1_555 1_555
C57_5 C58_5 1_555 1_555
C75_5 C76_5 1_555 1_555
C75_5 C119_5 1_555 1_555
C110_5 C111_5 1_555 1_555
C111_5 C112_5 1_555 1_555
C140_5 C141_5 1_555 1_555
O50_5 Ba5_5 1_555 1_555
O44_5 H95_5 1_555 1_555
O44_5 H96_5 1_555 1_555
C137_5 H101_5 1_555 1_555
O47_5 H104_5 1_555 1_555
O47_5 H105_5 1_555 1_555
O48_5 H107_5 1_555 1_555
Ti2_5 O1_5 1_555 1_555
O1_5 C16_5 1_555 1_555
O3_5 Ti2_5 1_555 1_555
O6_5 Ti2_5 1_555 1_555
O52_3 Ti2_5 1_555 1_555
O55_3 Ti2_5 1_555 1_555
O56_3 Ti2_5 1_555 1_555
O24_5 C25_5 1_555 1_555
O27_5 C86_5 1_555 1_555
C1_5 H1_5 1_555 1_555
C6_5 C16_5 1_555 1_555
C15_5 H8_5 1_555 1_555
C16_5 C31_5 1_555 1_555
O32_5 C50_5 1_555 1_555
C19_5 O9_5 1_555 1_555
C23_5 C1_5 1_555 1_555
C25_5 O52_3 1_555 1_555
C31_5 C15_5 1_555 1_555
C36_5 O6_5 1_555 1_555
C49_5 O3_5 1_555 1_555
C50_5 O55_3 1_555 1_555
C60_5 H25_5 1_555 1_555
C61_5 H26_5 1_555 1_555
C62_5 C61_5 1_555 1_555
H27_5 C62_5 1_555 1_555
C63_5 C15_5 1_555 1_555
C64_5 C6_5 1_555 1_555
C65_5 C64_5 1_555 1_555
H28_5 C65_5 1_555 1_555
C66_5 C61_5 1_555 1_555
H29_5 C66_5 1_555 1_555
C68_5 C19_5 1_555 1_555
C74_5 C6_5 1_555 1_555
H35_5 C74_5 1_555 1_555
H36_5 C74_5 1_555 1_555
C86_5 O56_3 1_555 1_555
C88_5 C49_5 1_555 1_555
C89_5 C36_5 1_555 1_555
C91_5 C19_5 1_555 1_555
C95_5 H45_5 1_555 1_555
C96_5 C95_5 1_555 1_555
H46_5 C96_5 1_555 1_555
C97_5 C96_5 1_555 1_555
H47_5 C97_5 1_555 1_555
C98_5 C72_5 1_555 1_555
C99_5 C68_5 1_555 1_555
C100_5 C95_5 1_555 1_555
H48_5 C100_5 1_555 1_555
C107_5 H53_5 1_555 1_555
C108_5 C107_5 1_555 1_555
H54_5 C108_5 1_555 1_555
C109_5 C108_5 1_555 1_555
H55_5 C109_5 1_555 1_555
C113_5 H57_5 1_555 1_555
C114_5 C60_5 1_555 1_555
C115_5 C23_5 1_555 1_555
C118_5 C113_5 1_555 1_555
H67_5 C131_5 1_555 1_555
H84_5 C145_5 1_555 1_555
H86_5 C145_5 1_555 1_555
C23_5 C49_5 1_555 1_555
C25_5 C31_5 1_555 1_555
C50_5 C89_5 1_555 1_555
C60_5 C88_5 1_555 1_555
C62_5 C63_5 1_555 1_555
C63_5 C64_5 1_555 1_555
C65_5 C66_5 1_555 1_555
C68_5 C74_5 1_555 1_555
C72_5 C91_5 1_555 1_555
C86_5 C88_5 1_555 1_555
C97_5 C98_5 1_555 1_555
C98_5 C99_5 1_555 1_555
C99_5 C100_5 1_555 1_555
C113_5 C114_5 1_555 1_555
C114_5 C115_5 1_555 1_555
O49_5 H102_5 1_555 1_555
O49_5 H103_5 1_555 1_555
Ba2_6 O23_6 1_555 1_555
Ba3_6 O35_6 1_555 1_555
Ti1_6 O2_6 1_555 1_555
Ti4_6 O5_6 1_555 1_555
O4_6 Ti1_6 1_555 1_555
O5_6 C119_6 1_555 1_555
O7_6 Ti1_6 1_555 1_555
O16_6 Ti1_6 1_555 1_555
O17_6 Ti1_6 1_555 1_555
O18_6 Ti1_6 1_555 1_555
O21_6 Ba8_3 1_555 1_555
O23_6 C76_6 1_555 1_555
O28_6 C51_6 1_555 1_555
C7_6 O4_6 1_555 1_555
C12_6 C7_6 1_555 1_555
C14_6 H6_6 1_555 1_555
H7_6 C14_6 1_555 1_555
O30_6 Ba2_6 1_555 1_555
O31_6 C93_6 1_555 1_555
C21_6 C48_6 1_555 1_555
C29_6 C14_6 1_555 1_555
O35_6 C120_6 1_555 1_555
O36_6 Ba2_6 1_555 1_555
C48_6 O18_6 1_555 1_555
C51_6 O16_6 1_555 1_555
O40_6 Ba3_6 1_555 1_555
C53_6 H20_6 1_555 1_555
C54_6 C53_6 1_555 1_555
H21_6 C54_6 1_555 1_555
C55_6 C29_6 1_555 1_555
C56_6 C55_6 1_555 1_555
C57_6 C56_6 1_555 1_555
H22_6 C57_6 1_555 1_555
C58_6 C53_6 1_555 1_555
H23_6 C58_6 1_555 1_555
N1_6 C137_6 1_555 1_555
C67_6 C56_6 1_555 1_555
H30_6 C67_6 1_555 1_555
C75_6 C67_6 1_555 1_555
C76_6 O21_6 1_555 1_555
C77_6 C21_6 1_555 1_555
H37_6 C77_6 1_555 1_555
C78_6 C14_6 1_555 1_555
N3_6 C135_6 1_555 1_555
O44_6 Ba2_6 1_555 1_555
C93_6 O7_6 1_555 1_555
C94_6 C12_6 1_555 1_555
H44_6 C94_6 1_555 1_555
C110_6 C4_6 1_555 1_555
C111_6 C94_6 1_555 1_555
H56_6 C112_6 1_555 1_555
H58_6 C116_6 1_555 1_555
C117_6 C116_6 1_555 1_555
H59_6 C117_6 1_555 1_555
C119_6 C29_6 1_555 1_555
C120_6 O17_6 1_555 1_555
O45_6 Ba2_6 1_555 1_555
C135_6 O36_6 1_555 1_555
H73_6 C135_6 1_555 1_555
C137_6 O40_6 1_555 1_555
C138_6 N1_6 1_555 1_555
H77_6 C138_6 1_555 1_555
H78_6 C138_6 1_555 1_555
H79_6 C138_6 1_555 1_555
C140_6 C77_6 1_555 1_555
C141_6 C78_6 1_555 1_555
C142_6 C141_6 1_555 1_555
H81_6 C142_6 1_555 1_555
C146_6 N1_6 1_555 1_555
H87_6 C146_6 1_555 1_555
H88_6 C146_6 1_555 1_555
H89_6 C146_6 1_555 1_555
O47_6 Ba3_6 1_555 1_555
O48_6 Ba3_6 1_555 1_555
C147_6 N3_6 1_555 1_555
H90_6 C147_6 1_555 1_555
H91_6 C147_6 1_555 1_555
O50_6 Ba3_6 1_555 1_555
Ba5_6 O7_6 1_555 1_555
O52_6 Ba2_6 1_555 1_555
O55_6 Ba2_6 1_555 1_555
O56_6 Ba2_6 1_555 1_555
O57_6 Ba3_6 1_555 1_555
Ba8_3 O30_6 1_555 1_555
Ba8_3 O45_6 1_555 1_555
Ti4_6 O21_6 1_555 1_555
O16_6 Ba5_6 1_555 1_555
O17_6 Ba5_6 1_555 1_555
C4_6 C7_6 1_555 1_555
C12_6 C51_6 1_555 1_555
O31_6 Ba5_6 1_555 1_555
C21_6 C93_6 1_555 1_555
C48_6 C78_6 1_555 1_555
C54_6 C55_6 1_555 1_555
C57_6 C58_6 1_555 1_555
C75_6 C76_6 1_555 1_555
C75_6 C119_6 1_555 1_555
C110_6 C111_6 1_555 1_555
C111_6 C112_6 1_555 1_555
C140_6 C141_6 1_555 1_555
O50_6 Ba5_6 1_555 1_555
O44_6 H95_6 1_555 1_555
O44_6 H96_6 1_555 1_555
C137_6 H101_6 1_555 1_555
O47_6 H104_6 1_555 1_555
O47_6 H105_6 1_555 1_555
O48_6 H107_6 1_555 1_555
Ti2_6 O1_6 1_555 1_555
O1_6 C16_6 1_555 1_555
O3_6 Ti2_6 1_555 1_555
O6_6 Ti2_6 1_555 1_555
O8_4 Ti2_6 1_555 1_555
O19_4 Ti2_6 1_555 1_555
O22_4 Ti2_6 1_555 1_555
O24_6 C25_6 1_555 1_555
O27_6 C86_6 1_555 1_555
C1_6 H1_6 1_555 1_555
C6_6 C16_6 1_555 1_555
C15_6 H8_6 1_555 1_555
C16_6 C31_6 1_555 1_555
O32_6 C50_6 1_555 1_555
C19_6 O9_6 1_555 1_555
C23_6 C1_6 1_555 1_555
C25_6 O8_4 1_555 1_555
C31_6 C15_6 1_555 1_555
C36_6 O6_6 1_555 1_555
C49_6 O3_6 1_555 1_555
C50_6 O19_4 1_555 1_555
C60_6 H25_6 1_555 1_555
C61_6 H26_6 1_555 1_555
C62_6 C61_6 1_555 1_555
H27_6 C62_6 1_555 1_555
C63_6 C15_6 1_555 1_555
C64_6 C6_6 1_555 1_555
C65_6 C64_6 1_555 1_555
H28_6 C65_6 1_555 1_555
C66_6 C61_6 1_555 1_555
H29_6 C66_6 1_555 1_555
C68_6 C19_6 1_555 1_555
C74_6 C6_6 1_555 1_555
H35_6 C74_6 1_555 1_555
H36_6 C74_6 1_555 1_555
C86_6 O22_4 1_555 1_555
C88_6 C49_6 1_555 1_555
C89_6 C36_6 1_555 1_555
C91_6 C19_6 1_555 1_555
C95_6 H45_6 1_555 1_555
C96_6 C95_6 1_555 1_555
H46_6 C96_6 1_555 1_555
C97_6 C96_6 1_555 1_555
H47_6 C97_6 1_555 1_555
C98_6 C72_6 1_555 1_555
C99_6 C68_6 1_555 1_555
C100_6 C95_6 1_555 1_555
H48_6 C100_6 1_555 1_555
C107_6 H53_6 1_555 1_555
C108_6 C107_6 1_555 1_555
H54_6 C108_6 1_555 1_555
C109_6 C108_6 1_555 1_555
H55_6 C109_6 1_555 1_555
C113_6 H57_6 1_555 1_555
C114_6 C60_6 1_555 1_555
C115_6 C23_6 1_555 1_555
C118_6 C113_6 1_555 1_555
H67_6 C131_6 1_555 1_555
H84_6 C145_6 1_555 1_555
H86_6 C145_6 1_555 1_555
Ba6_4 O8_4 1_555 1_555
O19_4 Ba6_4 1_555 1_555
O22_4 Ba6_4 1_555 1_555
C23_6 C49_6 1_555 1_555
C25_6 C31_6 1_555 1_555
C50_6 C89_6 1_555 1_555
C60_6 C88_6 1_555 1_555
C62_6 C63_6 1_555 1_555
C63_6 C64_6 1_555 1_555
C65_6 C66_6 1_555 1_555
C68_6 C74_6 1_555 1_555
C72_6 C91_6 1_555 1_555
C86_6 C88_6 1_555 1_555
C97_6 C98_6 1_555 1_555
C98_6 C99_6 1_555 1_555
C99_6 C100_6 1_555 1_555
C113_6 C114_6 1_555 1_555
C114_6 C115_6 1_555 1_555
O49_6 H102_6 1_555 1_555
O49_6 H103_6 1_555 1_555
C2_6 C9_6 1_555 1_555
C3_6 O12_6 1_555 1_555
C8_6 H5_6 1_555 1_555
C9_6 C46_6 1_555 1_555
C10_6 O10_6 1_555 1_555
C11_6 C10_6 1_555 1_555
C27_6 C2_6 1_555 1_555
C30_6 C3_6 1_555 1_555
C32_6 C3_6 1_555 1_555
O34_6 C37_6 1_555 1_555
C33_6 C8_6 1_555 1_555
C34_6 C27_6 1_555 1_555
H10_6 C34_6 1_555 1_555
C44_6 O14_6 1_555 1_555
O37_6 C134_6 1_555 1_555
C46_6 C30_6 1_555 1_555
H16_6 C46_6 1_555 1_555
H17_6 C46_6 1_555 1_555
C71_6 C32_6 1_555 1_555
H33_6 C71_6 1_555 1_555
N2_6 C133_6 1_555 1_555
C80_6 H39_6 1_555 1_555
C81_6 C80_6 1_555 1_555
H40_6 C81_6 1_555 1_555
C82_6 C81_6 1_555 1_555
H41_6 C82_6 1_555 1_555
C83_6 C9_6 1_555 1_555
C84_6 C34_6 1_555 1_555
C85_6 C80_6 1_555 1_555
H42_6 C85_6 1_555 1_555
C101_6 H49_6 1_555 1_555
C102_6 C101_6 1_555 1_555
H50_6 C102_6 1_555 1_555
C103_6 C8_6 1_555 1_555
C104_6 C11_6 1_555 1_555
C105_6 C104_6 1_555 1_555
H51_6 C105_6 1_555 1_555
C106_6 C101_6 1_555 1_555
H52_6 C106_6 1_555 1_555
C121_6 H61_6 1_555 1_555
C122_6 C121_6 1_555 1_555
H62_6 C122_6 1_555 1_555
C123_6 C122_6 1_555 1_555
H63_6 C123_6 1_555 1_555
C124_6 C30_6 1_555 1_555
C125_6 C71_6 1_555 1_555
C126_6 C121_6 1_555 1_555
H64_6 C126_6 1_555 1_555
C133_6 H69_6 1_555 1_555
H70_6 C133_6 1_555 1_555
H71_6 C133_6 1_555 1_555
C134_6 N2_6 1_555 1_555
H72_6 C134_6 1_555 1_555
C136_6 N2_6 1_555 1_555
H74_6 C136_6 1_555 1_555
H75_6 C136_6 1_555 1_555
H76_6 C136_6 1_555 1_555
C139_6 H80_6 1_555 1_555
H82_6 C143_6 1_555 1_555
C144_6 C139_6 1_555 1_555
H83_6 C144_6 1_555 1_555
C10_6 C33_6 1_555 1_555
O33_6 C44_6 1_555 1_555
C32_6 C37_6 1_555 1_555
C33_6 C44_6 1_555 1_555
C82_6 C83_6 1_555 1_555
C83_6 C84_6 1_555 1_555
C84_6 C85_6 1_555 1_555
C102_6 C103_6 1_555 1_555
C103_6 C104_6 1_555 1_555
C105_6 C106_6 1_555 1_555
C123_6 C124_6 1_555 1_555
C124_6 C125_6 1_555 1_555
C125_6 C126_6 1_555 1_555
C143_6 C144_6 1_555 1_555
O46_6 H99_6 1_555 1_555
O46_6 H100_6 1_555 1_555
Ti3_6 O11_6 1_555 1_555
O11_6 C22_6 1_555 1_555
O15_6 Ti3_6 1_555 1_555
O20_6 Ti3_6 1_555 1_555
O25_6 Ti3_6 1_555 1_555
O57_3 Ti3_6 1_555 1_555
O58_3 C87_6 1_555 1_555
C5_6 H3_6 1_555 1_555
H4_6 C5_6 1_555 1_555
C13_6 C28_6 1_555 1_555
C17_6 C22_6 1_555 1_555
C18_6 C5_6 1_555 1_555
C20_6 C28_6 1_555 1_555
C22_6 O38_6 1_555 1_555
C24_6 H9_6 1_555 1_555
C26_6 O20_6 1_555 1_555
C28_6 O15_6 1_555 1_555
C35_6 O13_6 1_555 1_555
C38_6 H11_6 1_555 1_555
C39_6 C38_6 1_555 1_555
H12_6 C39_6 1_555 1_555
C40_6 C39_6 1_555 1_555
H13_6 C40_6 1_555 1_555
C41_6 C40_6 1_555 1_555
H14_6 C41_6 1_555 1_555
C42_6 C13_6 1_555 1_555
C43_6 C38_6 1_555 1_555
C45_6 C24_6 1_555 1_555
H15_6 C45_6 1_555 1_555
O38_6 Ba5_3 1_555 1_555
H18_6 C47_6 1_555 1_555
O39_6 C35_6 1_555 1_555
C52_6 C69_6 1_555 1_555
C59_6 C20_6 1_555 1_555
H24_6 C59_6 1_555 1_555
C69_6 H31_6 1_555 1_555
C70_6 C45_6 1_555 1_555
H32_6 C70_6 1_555 1_555
C73_6 C5_6 1_555 1_555
C79_6 C17_6 1_555 1_555
H38_6 C79_6 1_555 1_555
O42_6 Ba5_3 1_555 1_555
C87_6 O57_3 1_555 1_555
C90_6 C18_6 1_555 1_555
C92_6 C24_6 1_555 1_555
H43_6 C92_6 1_555 1_555
C127_6 H65_6 1_555 1_555
C128_6 C79_6 1_555 1_555
C129_6 C73_6 1_555 1_555
C130_6 C129_6 1_555 1_555
C132_6 C127_6 1_555 1_555
H68_6 C132_6 1_555 1_555
C13_6 C47_6 1_555 1_555
C17_6 C26_6 1_555 1_555
C20_6 C87_6 1_555 1_555
C26_6 C73_6 1_555 1_555
C41_6 C42_6 1_555 1_555
C42_6 C43_6 1_555 1_555
C43_6 C59_6 1_555 1_555
C52_6 C70_6 1_555 1_555
C52_6 C90_6 1_555 1_555
C90_6 C92_6 1_555 1_555
C127_6 C128_6 1_555 1_555
C128_6 C129_6 1_555 1_555
O42_6 H93_6 1_555 1_555
O42_6 H94_6 1_555 1_555
O43_6 H97_6 1_555 1_555
O43_6 H98_6 1_555 1_555
Ba5_6 O37_7 1_555 1_555
Ba7_2 O35_7 1_555 1_555
Ti1_7 O2_7 1_555 1_555
Ti3_7 O11_7 1_555 1_555
O2_7 C2_7 1_555 1_555
O3_7 Ti2_7 1_555 1_555
O4_7 Ti1_7 1_555 1_555
O6_7 Ti2_7 1_555 1_555
O51_2 Ti1_7 1_555 1_555
O8_5 Ti2_7 1_555 1_555
O11_7 C22_7 1_555 1_555
O12_7 Ti3_7 1_555 1_555
O53_2 Ti1_7 1_555 1_555
O54_2 Ti1_7 1_555 1_555
O18_7 Ti1_7 1_555 1_555
O19_5 Ti2_7 1_555 1_555
O20_7 Ti3_7 1_555 1_555
O22_5 Ti2_7 1_555 1_555
O24_7 C25_7 1_555 1_555
O25_7 Ti3_7 1_555 1_555
O57_6 Ti3_7 1_555 1_555
O27_7 C86_7 1_555 1_555
O28_7 C51_7 1_555 1_555
C1_7 H1_7 1_555 1_555
H2_7 C1_7 1_555 1_555
C2_7 C9_7 1_555 1_555
C3_7 O12_7 1_555 1_555
C4_7 C1_7 1_555 1_555
C5_7 H3_7 1_555 1_555
H4_7 C5_7 1_555 1_555
C7_7 O4_7 1_555 1_555
C9_7 C46_7 1_555 1_555
C12_7 C7_7 1_555 1_555
C17_7 C22_7 1_555 1_555
O59_2 C93_7 1_555 1_555
O32_7 C50_7 1_555 1_555
C18_7 C5_7 1_555 1_555
C22_7 O38_7 1_555 1_555
C23_7 C1_7 1_555 1_555
C25_7 O8_5 1_555 1_555
C26_7 O20_7 1_555 1_555
C27_7 C2_7 1_555 1_555
C30_7 C3_7 1_555 1_555
C32_7 C3_7 1_555 1_555
O34_7 C37_7 1_555 1_555
C34_7 C27_7 1_555 1_555
H10_7 C34_7 1_555 1_555
C36_7 O6_7 1_555 1_555
C37_7 O25_7 1_555 1_555
O35_7 C120_7 1_555 1_555
O37_7 C134_7 1_555 1_555
O38_7 Ba5_6 1_555 1_555
C46_7 C30_7 1_555 1_555
H16_7 C46_7 1_555 1_555
H17_7 C46_7 1_555 1_555
C49_7 O3_7 1_555 1_555
C50_7 O19_5 1_555 1_555
C51_7 O53_2 1_555 1_555
O40_7 Ba7_2 1_555 1_555
N1_7 C137_7 1_555 1_555
C60_7 H25_7 1_555 1_555
C71_7 C32_7 1_555 1_555
H33_7 C71_7 1_555 1_555
N2_7 C133_7 1_555 1_555
C73_7 C5_7 1_555 1_555
C79_7 C17_7 1_555 1_555
H38_7 C79_7 1_555 1_555
C80_7 H39_7 1_555 1_555
C81_7 C80_7 1_555 1_555
H40_7 C81_7 1_555 1_555
C82_7 C81_7 1_555 1_555
H41_7 C82_7 1_555 1_555
C83_7 C9_7 1_555 1_555
C84_7 C34_7 1_555 1_555
C85_7 C80_7 1_555 1_555
H42_7 C85_7 1_555 1_555
O42_7 Ba5_6 1_555 1_555
C86_7 O22_5 1_555 1_555
C88_7 C49_7 1_555 1_555
C89_7 C36_7 1_555 1_555
C90_7 C18_7 1_555 1_555
H43_7 C92_7 1_555 1_555
C93_7 O51_2 1_555 1_555
C94_7 C12_7 1_555 1_555
H44_7 C94_7 1_555 1_555
C107_7 H53_7 1_555 1_555
C108_7 C107_7 1_555 1_555
H54_7 C108_7 1_555 1_555
C109_7 C108_7 1_555 1_555
H55_7 C109_7 1_555 1_555
C110_7 C4_7 1_555 1_555
C111_7 C94_7 1_555 1_555
C112_7 C107_7 1_555 1_555
H56_7 C112_7 1_555 1_555
C113_7 H57_7 1_555 1_555
C114_7 C60_7 1_555 1_555
C115_7 C23_7 1_555 1_555
C116_7 C115_7 1_555 1_555
H58_7 C116_7 1_555 1_555
C117_7 C116_7 1_555 1_555
H59_7 C117_7 1_555 1_555
C118_7 C113_7 1_555 1_555
H60_7 C118_7 1_555 1_555
C120_7 O54_2 1_555 1_555
C121_7 H61_7 1_555 1_555
C122_7 C121_7 1_555 1_555
H62_7 C122_7 1_555 1_555
C123_7 C122_7 1_555 1_555
H63_7 C123_7 1_555 1_555
C124_7 C30_7 1_555 1_555
C125_7 C71_7 1_555 1_555
C126_7 C121_7 1_555 1_555
H64_7 C126_7 1_555 1_555
C127_7 H65_7 1_555 1_555
C128_7 C79_7 1_555 1_555
C129_7 C73_7 1_555 1_555
C130_7 C129_7 1_555 1_555
H66_7 C130_7 1_555 1_555
C131_7 C130_7 1_555 1_555
H67_7 C131_7 1_555 1_555
C132_7 C127_7 1_555 1_555
H68_7 C132_7 1_555 1_555
C133_7 H69_7 1_555 1_555
H70_7 C133_7 1_555 1_555
H71_7 C133_7 1_555 1_555
C134_7 N2_7 1_555 1_555
H72_7 C134_7 1_555 1_555
O46_7 Ba7_2 1_555 1_555
C136_7 N2_7 1_555 1_555
H74_7 C136_7 1_555 1_555
H75_7 C136_7 1_555 1_555
H76_7 C136_7 1_555 1_555
C137_7 O40_7 1_555 1_555
C138_7 N1_7 1_555 1_555
H77_7 C138_7 1_555 1_555
H78_7 C138_7 1_555 1_555
H79_7 C138_7 1_555 1_555
C146_7 N1_7 1_555 1_555
H87_7 C146_7 1_555 1_555
H88_7 C146_7 1_555 1_555
H89_7 C146_7 1_555 1_555
O47_7 Ba7_2 1_555 1_555
O48_7 Ba7_2 1_555 1_555
Ba6_5 O8_5 1_555 1_555
O19_5 Ba6_5 1_555 1_555
O22_5 Ba6_5 1_555 1_555
C4_7 C7_7 1_555 1_555
C12_7 C51_7 1_555 1_555
C17_7 C26_7 1_555 1_555
C18_7 C36_7 1_555 1_555
C21_7 C93_7 1_555 1_555
C23_7 C49_7 1_555 1_555
C26_7 C73_7 1_555 1_555
C27_7 C120_7 1_555 1_555
C32_7 C37_7 1_555 1_555
C50_7 C89_7 1_555 1_555
C60_7 C88_7 1_555 1_555
C82_7 C83_7 1_555 1_555
C83_7 C84_7 1_555 1_555
C84_7 C85_7 1_555 1_555
C86_7 C88_7 1_555 1_555
C90_7 C92_7 1_555 1_555
C109_7 C110_7 1_555 1_555
C110_7 C111_7 1_555 1_555
C111_7 C112_7 1_555 1_555
C113_7 C114_7 1_555 1_555
C114_7 C115_7 1_555 1_555
C117_7 C118_7 1_555 1_555
C123_7 C124_7 1_555 1_555
C124_7 C125_7 1_555 1_555
C125_7 C126_7 1_555 1_555
C127_7 C128_7 1_555 1_555
C128_7 C129_7 1_555 1_555
C131_7 C132_7 1_555 1_555
O42_7 H93_7 1_555 1_555
O42_7 H94_7 1_555 1_555
O46_7 H99_7 1_555 1_555
O46_7 H100_7 1_555 1_555
C137_7 H101_7 1_555 1_555
O47_7 H104_7 1_555 1_555
O47_7 H105_7 1_555 1_555
O48_7 H106_7 1_555 1_555
O48_7 H107_7 1_555 1_555
Ba6 O23_7 1_555 1_555
Ba4_4 O14_7 1_555 1_555
Ti4_7 O5_7 1_555 1_555
O1_7 C16_7 1_555 1_555
O5_7 C119_7 1_555 1_555
O9_7 Ti4_7 1_555 1_555
O10_7 Ti4_7 1_555 1_555
O13_7 Ti4_7 1_555 1_555
O14_7 Ti4_7 1_555 1_555
O21_7 Ba4_4 1_555 1_555
O23_7 C76_7 1_555 1_555
O58_6 C87_7 1_555 1_555
C6_7 C16_7 1_555 1_555
C8_7 H5_7 1_555 1_555
C10_7 O10_7 1_555 1_555
C11_7 C10_7 1_555 1_555
C13_7 C28_7 1_555 1_555
C14_7 H6_7 1_555 1_555
H7_7 C14_7 1_555 1_555
C15_7 H8_7 1_555 1_555
O30_7 Ba6 1_555 1_555
C16_7 C31_7 1_555 1_555
C19_7 O9_7 1_555 1_555
C20_7 C28_7 1_555 1_555
C24_7 H9_7 1_555 1_555
C28_7 O15_7 1_555 1_555
C29_7 C14_7 1_555 1_555
O33_7 Ba4_4 1_555 1_555
C31_7 C15_7 1_555 1_555
C33_7 C8_7 1_555 1_555
C35_7 O13_7 1_555 1_555
C38_7 H11_7 1_555 1_555
C39_7 C38_7 1_555 1_555
H12_7 C39_7 1_555 1_555
C40_7 C39_7 1_555 1_555
H13_7 C40_7 1_555 1_555
C41_7 C40_7 1_555 1_555
H14_7 C41_7 1_555 1_555
C42_7 C13_7 1_555 1_555
C43_7 C38_7 1_555 1_555
O36_7 Ba6 1_555 1_555
C44_7 O14_7 1_555 1_555
C45_7 C24_7 1_555 1_555
H15_7 C45_7 1_555 1_555
C47_7 C11_7 1_555 1_555
H18_7 C47_7 1_555 1_555
H19_7 C47_7 1_555 1_555
O39_7 C35_7 1_555 1_555
C52_7 C69_7 1_555 1_555
C53_7 H20_7 1_555 1_555
C54_7 C53_7 1_555 1_555
H21_7 C54_7 1_555 1_555
C55_7 C29_7 1_555 1_555
C56_7 C55_7 1_555 1_555
C57_7 C56_7 1_555 1_555
H22_7 C57_7 1_555 1_555
C58_7 C53_7 1_555 1_555
H23_7 C58_7 1_555 1_555
C59_7 C20_7 1_555 1_555
H24_7 C59_7 1_555 1_555
C61_7 H26_7 1_555 1_555
C62_7 C61_7 1_555 1_555
H27_7 C62_7 1_555 1_555
C63_7 C15_7 1_555 1_555
C64_7 C6_7 1_555 1_555
C65_7 C64_7 1_555 1_555
H28_7 C65_7 1_555 1_555
C66_7 C61_7 1_555 1_555
H29_7 C66_7 1_555 1_555
C67_7 C56_7 1_555 1_555
H30_7 C67_7 1_555 1_555
C68_7 C19_7 1_555 1_555
C69_7 H31_7 1_555 1_555
C70_7 C45_7 1_555 1_555
H32_7 C70_7 1_555 1_555
C72_7 H34_7 1_555 1_555
C74_7 C6_7 1_555 1_555
H35_7 C74_7 1_555 1_555
H36_7 C74_7 1_555 1_555
C75_7 C67_7 1_555 1_555
C76_7 O21_7 1_555 1_555
H37_7 C77_7 1_555 1_555
O41_4 Ba4_4 1_555 1_555
C78_7 C14_7 1_555 1_555
O43_7 Ba4_4 1_555 1_555
N3_7 C135_7 1_555 1_555
C91_7 C19_7 1_555 1_555
O44_7 Ba6 1_555 1_555
C95_7 H45_7 1_555 1_555
C96_7 C95_7 1_555 1_555
H46_7 C96_7 1_555 1_555
C97_7 C96_7 1_555 1_555
H47_7 C97_7 1_555 1_555
C98_7 C72_7 1_555 1_555
C99_7 C68_7 1_555 1_555
C100_7 C95_7 1_555 1_555
H48_7 C100_7 1_555 1_555
C101_7 H49_7 1_555 1_555
C102_7 C101_7 1_555 1_555
H50_7 C102_7 1_555 1_555
C103_7 C8_7 1_555 1_555
C104_7 C11_7 1_555 1_555
C105_7 C104_7 1_555 1_555
H51_7 C105_7 1_555 1_555
C106_7 C101_7 1_555 1_555
H52_7 C106_7 1_555 1_555
C119_7 C29_7 1_555 1_555
O45_7 Ba6 1_555 1_555
C135_7 O36_7 1_555 1_555
H73_7 C135_7 1_555 1_555
C139_7 H80_7 1_555 1_555
C140_7 C77_7 1_555 1_555
C141_7 C78_7 1_555 1_555
C142_7 C141_7 1_555 1_555
H81_7 C142_7 1_555 1_555
C143_7 C142_7 1_555 1_555
H82_7 C143_7 1_555 1_555
C144_7 C139_7 1_555 1_555
H83_7 C144_7 1_555 1_555
C145_7 N3_7 1_555 1_555
H84_7 C145_7 1_555 1_555
H85_7 C145_7 1_555 1_555
H86_7 C145_7 1_555 1_555
C147_7 N3_7 1_555 1_555
H90_7 C147_7 1_555 1_555
H91_7 C147_7 1_555 1_555
H92_7 C147_7 1_555 1_555
O49_7 Ba6 1_555 1_555
Ba8_4 O41_4 1_555 1_555
O60_4 Ba4_4 1_555 1_555
Ba4_4 O30_7 1_555 1_555
Ba4_4 O45_7 1_555 1_555
Ti4_7 O21_7 1_555 1_555
C10_7 C33_7 1_555 1_555
C13_7 C47_7 1_555 1_555
C20_7 C87_7 1_555 1_555
O33_7 C44_7 1_555 1_555
C33_7 C44_7 1_555 1_555
C35_7 C91_7 1_555 1_555
C41_7 C42_7 1_555 1_555
C42_7 C43_7 1_555 1_555
C43_7 C59_7 1_555 1_555
C48_7 C78_7 1_555 1_555
C52_7 C70_7 1_555 1_555
C54_7 C55_7 1_555 1_555
C57_7 C58_7 1_555 1_555
C62_7 C63_7 1_555 1_555
C63_7 C64_7 1_555 1_555
C65_7 C66_7 1_555 1_555
C68_7 C74_7 1_555 1_555
C72_7 C91_7 1_555 1_555
C75_7 C76_7 1_555 1_555
C75_7 C119_7 1_555 1_555
C97_7 C98_7 1_555 1_555
C98_7 C99_7 1_555 1_555
C99_7 C100_7 1_555 1_555
C102_7 C103_7 1_555 1_555
C103_7 C104_7 1_555 1_555
C105_7 C106_7 1_555 1_555
C139_7 C140_7 1_555 1_555
C140_7 C141_7 1_555 1_555
C143_7 C144_7 1_555 1_555
Ba8_4 O60_4 1_555 1_555
O44_7 H95_7 1_555 1_555
O44_7 H96_7 1_555 1_555
O43_7 H97_7 1_555 1_555
O43_7 H98_7 1_555 1_555
O49_7 H102_7 1_555 1_555
O49_7 H103_7 1_555 1_555
Ba1_5 O37_8 1_555 1_555
Ba2_7 O23_8 1_555 1_555
Ba3_7 O35_8 1_555 1_555
Ba8_4 O14_8 1_555 1_555
Ti1_8 O2_8 1_555 1_555
Ti2_8 O1_8 1_555 1_555
Ti3_8 O11_8 1_555 1_555
Ti4_8 O5_8 1_555 1_555
O1_8 C16_8 1_555 1_555
O2_8 C2_8 1_555 1_555
O3_8 Ti2_8 1_555 1_555
O4_8 Ti1_8 1_555 1_555
O5_8 C119_8 1_555 1_555
O6_8 Ti2_8 1_555 1_555
O7_7 Ti1_8 1_555 1_555
O52_6 Ti2_8 1_555 1_555
O9_8 Ti4_8 1_555 1_555
O10_8 Ti4_8 1_555 1_555
O11_8 C22_8 1_555 1_555
O12_8 Ti3_8 1_555 1_555
O13_8 Ti4_8 1_555 1_555
O14_8 Ti4_8 1_555 1_555
O15_8 Ti3_8 1_555 1_555
O16_7 Ti1_8 1_555 1_555
O17_7 Ti1_8 1_555 1_555
O18_8 Ti1_8 1_555 1_555
O55_6 Ti2_8 1_555 1_555
O20_8 Ti3_8 1_555 1_555
O21_8 Ba8_4 1_555 1_555
O56_6 Ti2_8 1_555 1_555
O23_8 C76_8 1_555 1_555
O24_8 C25_8 1_555 1_555
O25_8 Ti3_8 1_555 1_555
O26_5 Ti3_8 1_555 1_555
O27_8 C86_8 1_555 1_555
O28_8 C51_8 1_555 1_555
C1_8 H1_8 1_555 1_555
H2_8 C1_8 1_555 1_555
C2_8 C9_8 1_555 1_555
C3_8 O12_8 1_555 1_555
C4_8 C1_8 1_555 1_555
O29_5 C87_8 1_555 1_555
C5_8 H3_8 1_555 1_555
H4_8 C5_8 1_555 1_555
C6_8 C16_8 1_555 1_555
C7_8 O4_8 1_555 1_555
C8_8 H5_8 1_555 1_555
C9_8 C46_8 1_555 1_555
C10_8 O10_8 1_555 1_555
C11_8 C10_8 1_555 1_555
C12_8 C7_8 1_555 1_555
C13_8 C28_8 1_555 1_555
C14_8 H6_8 1_555 1_555
H7_8 C14_8 1_555 1_555
C15_8 H8_8 1_555 1_555
O30_8 Ba2_7 1_555 1_555
C16_8 C31_8 1_555 1_555
C17_8 C22_8 1_555 1_555
O31_7 C93_8 1_555 1_555
O32_8 C50_8 1_555 1_555
C18_8 C5_8 1_555 1_555
C19_8 O9_8 1_555 1_555
C20_8 C28_8 1_555 1_555
C21_8 C48_8 1_555 1_555
C22_8 O38_8 1_555 1_555
C23_8 C1_8 1_555 1_555
C24_8 H9_8 1_555 1_555
C25_8 O52_6 1_555 1_555
C26_8 O20_8 1_555 1_555
C27_8 C2_8 1_555 1_555
C28_8 O15_8 1_555 1_555
C29_8 C14_8 1_555 1_555
O33_8 Ba8_4 1_555 1_555
C30_8 C3_8 1_555 1_555
C31_8 C15_8 1_555 1_555
C32_8 C3_8 1_555 1_555
O34_8 C37_8 1_555 1_555
C33_8 C8_8 1_555 1_555
C34_8 C27_8 1_555 1_555
H10_8 C34_8 1_555 1_555
C35_8 O13_8 1_555 1_555
C36_8 O6_8 1_555 1_555
C37_8 O25_8 1_555 1_555
O35_8 C120_8 1_555 1_555
C38_8 H11_8 1_555 1_555
C39_8 C38_8 1_555 1_555
H12_8 C39_8 1_555 1_555
C40_8 C39_8 1_555 1_555
H13_8 C40_8 1_555 1_555
C41_8 C40_8 1_555 1_555
H14_8 C41_8 1_555 1_555
C42_8 C13_8 1_555 1_555
C43_8 C38_8 1_555 1_555
O36_8 Ba2_7 1_555 1_555
C44_8 O14_8 1_555 1_555
C45_8 C24_8 1_555 1_555
H15_8 C45_8 1_555 1_555
O37_8 C134_8 1_555 1_555
O38_8 Ba1_5 1_555 1_555
C46_8 C30_8 1_555 1_555
H16_8 C46_8 1_555 1_555
H17_8 C46_8 1_555 1_555
C47_8 C11_8 1_555 1_555
H18_8 C47_8 1_555 1_555
H19_8 C47_8 1_555 1_555
O39_8 C35_8 1_555 1_555
C48_8 O18_8 1_555 1_555
C49_8 O3_8 1_555 1_555
C50_8 O55_6 1_555 1_555
C51_8 O16_7 1_555 1_555
O40_8 Ba3_7 1_555 1_555
C52_8 C69_8 1_555 1_555
C53_8 H20_8 1_555 1_555
C54_8 C53_8 1_555 1_555
H21_8 C54_8 1_555 1_555
C55_8 C29_8 1_555 1_555
C56_8 C55_8 1_555 1_555
C57_8 C56_8 1_555 1_555
H22_8 C57_8 1_555 1_555
C58_8 C53_8 1_555 1_555
H23_8 C58_8 1_555 1_555
N1_8 C137_8 1_555 1_555
C59_8 C20_8 1_555 1_555
H24_8 C59_8 1_555 1_555
C60_8 H25_8 1_555 1_555
C61_8 H26_8 1_555 1_555
C62_8 C61_8 1_555 1_555
H27_8 C62_8 1_555 1_555
C63_8 C15_8 1_555 1_555
C64_8 C6_8 1_555 1_555
C65_8 C64_8 1_555 1_555
H28_8 C65_8 1_555 1_555
C66_8 C61_8 1_555 1_555
H29_8 C66_8 1_555 1_555
C67_8 C56_8 1_555 1_555
H30_8 C67_8 1_555 1_555
C68_8 C19_8 1_555 1_555
C69_8 H31_8 1_555 1_555
C70_8 C45_8 1_555 1_555
H32_8 C70_8 1_555 1_555
C71_8 C32_8 1_555 1_555
H33_8 C71_8 1_555 1_555
C72_8 H34_8 1_555 1_555
N2_8 C133_8 1_555 1_555
C73_8 C5_8 1_555 1_555
C74_8 C6_8 1_555 1_555
H35_8 C74_8 1_555 1_555
H36_8 C74_8 1_555 1_555
C75_8 C67_8 1_555 1_555
C76_8 O21_8 1_555 1_555
C77_8 C21_8 1_555 1_555
H37_8 C77_8 1_555 1_555
C78_8 C14_8 1_555 1_555
C79_8 C17_8 1_555 1_555
H38_8 C79_8 1_555 1_555
C80_8 H39_8 1_555 1_555
C81_8 C80_8 1_555 1_555
H40_8 C81_8 1_555 1_555
C82_8 C81_8 1_555 1_555
H41_8 C82_8 1_555 1_555
C83_8 C9_8 1_555 1_555
C84_8 C34_8 1_555 1_555
C85_8 C80_8 1_555 1_555
H42_8 C85_8 1_555 1_555
O42_8 Ba1_5 1_555 1_555
O43_8 Ba8_4 1_555 1_555
C86_8 O56_6 1_555 1_555
N3_8 C135_8 1_555 1_555
C87_8 O26_5 1_555 1_555
C88_8 C49_8 1_555 1_555
C89_8 C36_8 1_555 1_555
C90_8 C18_8 1_555 1_555
C91_8 C19_8 1_555 1_555
C92_8 C24_8 1_555 1_555
H43_8 C92_8 1_555 1_555
O44_8 Ba2_7 1_555 1_555
C93_8 O7_7 1_555 1_555
C94_8 C12_8 1_555 1_555
H44_8 C94_8 1_555 1_555
C95_8 H45_8 1_555 1_555
C96_8 C95_8 1_555 1_555
H46_8 C96_8 1_555 1_555
C97_8 C96_8 1_555 1_555
H47_8 C97_8 1_555 1_555
C98_8 C72_8 1_555 1_555
C99_8 C68_8 1_555 1_555
C100_8 C95_8 1_555 1_555
H48_8 C100_8 1_555 1_555
C101_8 H49_8 1_555 1_555
C102_8 C101_8 1_555 1_555
H50_8 C102_8 1_555 1_555
C103_8 C8_8 1_555 1_555
C104_8 C11_8 1_555 1_555
C105_8 C104_8 1_555 1_555
H51_8 C105_8 1_555 1_555
C106_8 C101_8 1_555 1_555
H52_8 C106_8 1_555 1_555
C107_8 H53_8 1_555 1_555
C108_8 C107_8 1_555 1_555
H54_8 C108_8 1_555 1_555
C109_8 C108_8 1_555 1_555
H55_8 C109_8 1_555 1_555
C110_8 C4_8 1_555 1_555
C111_8 C94_8 1_555 1_555
C112_8 C107_8 1_555 1_555
H56_8 C112_8 1_555 1_555
C113_8 H57_8 1_555 1_555
C114_8 C60_8 1_555 1_555
C115_8 C23_8 1_555 1_555
C116_8 C115_8 1_555 1_555
H58_8 C116_8 1_555 1_555
C117_8 C116_8 1_555 1_555
H59_8 C117_8 1_555 1_555
C118_8 C113_8 1_555 1_555
H60_8 C118_8 1_555 1_555
C119_8 C29_8 1_555 1_555
C120_8 O17_7 1_555 1_555
C121_8 H61_8 1_555 1_555
C122_8 C121_8 1_555 1_555
H62_8 C122_8 1_555 1_555
C123_8 C122_8 1_555 1_555
H63_8 C123_8 1_555 1_555
C124_8 C30_8 1_555 1_555
C125_8 C71_8 1_555 1_555
C126_8 C121_8 1_555 1_555
H64_8 C126_8 1_555 1_555
C127_8 H65_8 1_555 1_555
C128_8 C79_8 1_555 1_555
C129_8 C73_8 1_555 1_555
C130_8 C129_8 1_555 1_555
H66_8 C130_8 1_555 1_555
C131_8 C130_8 1_555 1_555
H67_8 C131_8 1_555 1_555
C132_8 C127_8 1_555 1_555
H68_8 C132_8 1_555 1_555
O45_8 Ba2_7 1_555 1_555
C133_8 H69_8 1_555 1_555
H70_8 C133_8 1_555 1_555
H71_8 C133_8 1_555 1_555
C134_8 N2_8 1_555 1_555
H72_8 C134_8 1_555 1_555
C135_8 O36_8 1_555 1_555
H73_8 C135_8 1_555 1_555
O46_8 Ba3_7 1_555 1_555
C136_8 N2_8 1_555 1_555
H74_8 C136_8 1_555 1_555
H75_8 C136_8 1_555 1_555
H76_8 C136_8 1_555 1_555
C137_8 O40_8 1_555 1_555
C138_8 N1_8 1_555 1_555
H77_8 C138_8 1_555 1_555
H78_8 C138_8 1_555 1_555
H79_8 C138_8 1_555 1_555
C139_8 H80_8 1_555 1_555
C140_8 C77_8 1_555 1_555
C141_8 C78_8 1_555 1_555
C142_8 C141_8 1_555 1_555
H81_8 C142_8 1_555 1_555
C143_8 C142_8 1_555 1_555
H82_8 C143_8 1_555 1_555
C144_8 C139_8 1_555 1_555
H83_8 C144_8 1_555 1_555
C145_8 N3_8 1_555 1_555
H84_8 C145_8 1_555 1_555
H85_8 C145_8 1_555 1_555
H86_8 C145_8 1_555 1_555
C146_8 N1_8 1_555 1_555
H87_8 C146_8 1_555 1_555
H88_8 C146_8 1_555 1_555
H89_8 C146_8 1_555 1_555
O47_8 Ba3_7 1_555 1_555
O48_8 Ba3_7 1_555 1_555
C147_8 N3_8 1_555 1_555
H90_8 C147_8 1_555 1_555
H91_8 C147_8 1_555 1_555
H92_8 C147_8 1_555 1_555
O49_8 Ba2_7 1_555 1_555
O50_7 Ba3_7 1_555 1_555
Ba5_7 O7_7 1_555 1_555
Ba7_5 O26_5 1_555 1_555
O51_5 Ba1_5 1_555 1_555
O52_7 Ba2_7 1_555 1_555
O53_5 Ba1_5 1_555 1_555
O54_5 Ba1_5 1_555 1_555
O55_7 Ba2_7 1_555 1_555
O56_7 Ba2_7 1_555 1_555
O57_7 Ba3_7 1_555 1_555
O58_7 Ba3_7 1_555 1_555
O59_5 Ba1_5 1_555 1_555
O61_5 Ba1_5 1_555 1_555
Ba8_4 O30_8 1_555 1_555
Ba8_4 O45_8 1_555 1_555
Ti4_8 O21_8 1_555 1_555
O16_7 Ba5_7 1_555 1_555
O17_7 Ba5_7 1_555 1_555
C4_8 C7_8 1_555 1_555
O29_5 Ba7_5 1_555 1_555
C10_8 C33_8 1_555 1_555
C12_8 C51_8 1_555 1_555
C13_8 C47_8 1_555 1_555
C17_8 C26_8 1_555 1_555
O31_7 Ba5_7 1_555 1_555
C18_8 C36_8 1_555 1_555
C20_8 C87_8 1_555 1_555
C21_8 C93_8 1_555 1_555
C23_8 C49_8 1_555 1_555
C25_8 C31_8 1_555 1_555
C26_8 C73_8 1_555 1_555
C27_8 C120_8 1_555 1_555
O33_8 C44_8 1_555 1_555
C32_8 C37_8 1_555 1_555
C33_8 C44_8 1_555 1_555
C35_8 C91_8 1_555 1_555
C41_8 C42_8 1_555 1_555
C42_8 C43_8 1_555 1_555
C43_8 C59_8 1_555 1_555
C48_8 C78_8 1_555 1_555
C50_8 C89_8 1_555 1_555
C52_8 C70_8 1_555 1_555
C52_8 C90_8 1_555 1_555
C54_8 C55_8 1_555 1_555
C57_8 C58_8 1_555 1_555
C60_8 C88_8 1_555 1_555
C62_8 C63_8 1_555 1_555
C63_8 C64_8 1_555 1_555
C65_8 C66_8 1_555 1_555
C68_8 C74_8 1_555 1_555
C69_8 C89_8 1_555 1_555
C72_8 C91_8 1_555 1_555
C75_8 C76_8 1_555 1_555
C75_8 C119_8 1_555 1_555
C82_8 C83_8 1_555 1_555
C83_8 C84_8 1_555 1_555
C84_8 C85_8 1_555 1_555
C86_8 C88_8 1_555 1_555
C90_8 C92_8 1_555 1_555
C97_8 C98_8 1_555 1_555
C98_8 C99_8 1_555 1_555
C99_8 C100_8 1_555 1_555
C102_8 C103_8 1_555 1_555
C103_8 C104_8 1_555 1_555
C105_8 C106_8 1_555 1_555
C109_8 C110_8 1_555 1_555
C110_8 C111_8 1_555 1_555
C111_8 C112_8 1_555 1_555
C113_8 C114_8 1_555 1_555
C114_8 C115_8 1_555 1_555
C117_8 C118_8 1_555 1_555
C123_8 C124_8 1_555 1_555
C124_8 C125_8 1_555 1_555
C125_8 C126_8 1_555 1_555
C127_8 C128_8 1_555 1_555
C128_8 C129_8 1_555 1_555
C131_8 C132_8 1_555 1_555
C139_8 C140_8 1_555 1_555
C140_8 C141_8 1_555 1_555
C143_8 C144_8 1_555 1_555
O50_7 Ba5_7 1_555 1_555
Ba7_5 O61_5 1_555 1_555
O42_8 H93_8 1_555 1_555
O42_8 H94_8 1_555 1_555
O44_8 H95_8 1_555 1_555
O44_8 H96_8 1_555 1_555
O43_8 H97_8 1_555 1_555
O43_8 H98_8 1_555 1_555
O46_8 H99_8 1_555 1_555
O46_8 H100_8 1_555 1_555
C137_8 H101_8 1_555 1_555
O49_8 H102_8 1_555 1_555
O49_8 H103_8 1_555 1_555
O47_8 H104_8 1_555 1_555
O47_8 H105_8 1_555 1_555
O48_8 H106_8 1_555 1_555
O48_8 H107_8 1_555 1_555
Ba6_5 O23_9 1_555 1_555
Ba7_5 O35_9 1_555 1_555
Ba4_5 O14_9 1_555 1_555
Ti1_9 O2_9 1_555 1_555
Ti4_9 O5_9 1_555 1_555
O2_9 C2_9 1_555 1_555
O4_9 Ti1_9 1_555 1_555
O5_9 C119_9 1_555 1_555
O51_5 Ti1_9 1_555 1_555
O10_9 Ti4_9 1_555 1_555
O14_9 Ti4_9 1_555 1_555
O53_5 Ti1_9 1_555 1_555
O54_5 Ti1_9 1_555 1_555
O18_9 Ti1_9 1_555 1_555
O21_9 Ba4_5 1_555 1_555
O23_9 C76_9 1_555 1_555
O28_9 C51_9 1_555 1_555
C2_9 C9_9 1_555 1_555
C3_9 O12_9 1_555 1_555
C7_9 O4_9 1_555 1_555
C8_9 H5_9 1_555 1_555
C9_9 C46_9 1_555 1_555
C10_9 O10_9 1_555 1_555
C11_9 C10_9 1_555 1_555
C12_9 C7_9 1_555 1_555
C14_9 H6_9 1_555 1_555
H7_9 C14_9 1_555 1_555
O30_9 Ba6_5 1_555 1_555
O59_5 C93_9 1_555 1_555
C21_9 C48_9 1_555 1_555
C27_9 C2_9 1_555 1_555
C29_9 C14_9 1_555 1_555
O33_9 Ba4_5 1_555 1_555
C30_9 C3_9 1_555 1_555
C32_9 C3_9 1_555 1_555
O34_9 C37_9 1_555 1_555
C33_9 C8_9 1_555 1_555
C34_9 C27_9 1_555 1_555
H10_9 C34_9 1_555 1_555
O35_9 C120_9 1_555 1_555
C44_9 O14_9 1_555 1_555
O37_9 C134_9 1_555 1_555
C46_9 C30_9 1_555 1_555
H16_9 C46_9 1_555 1_555
H17_9 C46_9 1_555 1_555
C48_9 O18_9 1_555 1_555
C51_9 O53_5 1_555 1_555
O40_9 Ba7_5 1_555 1_555
C53_9 H20_9 1_555 1_555
C54_9 C53_9 1_555 1_555
H21_9 C54_9 1_555 1_555
C55_9 C29_9 1_555 1_555
C56_9 C55_9 1_555 1_555
C57_9 C56_9 1_555 1_555
H22_9 C57_9 1_555 1_555
C58_9 C53_9 1_555 1_555
H23_9 C58_9 1_555 1_555
N1_9 C137_9 1_555 1_555
C67_9 C56_9 1_555 1_555
H30_9 C67_9 1_555 1_555
C71_9 C32_9 1_555 1_555
H33_9 C71_9 1_555 1_555
N2_9 C133_9 1_555 1_555
C75_9 C67_9 1_555 1_555
C76_9 O21_9 1_555 1_555
C77_9 C21_9 1_555 1_555
H37_9 C77_9 1_555 1_555
C78_9 C14_9 1_555 1_555
C80_9 H39_9 1_555 1_555
C81_9 C80_9 1_555 1_555
H40_9 C81_9 1_555 1_555
C82_9 C81_9 1_555 1_555
H41_9 C82_9 1_555 1_555
C83_9 C9_9 1_555 1_555
C84_9 C34_9 1_555 1_555
C85_9 C80_9 1_555 1_555
H42_9 C85_9 1_555 1_555
O44_9 Ba6_5 1_555 1_555
C93_9 O51_5 1_555 1_555
C94_9 C12_9 1_555 1_555
H44_9 C94_9 1_555 1_555
C101_9 H49_9 1_555 1_555
C102_9 C101_9 1_555 1_555
H50_9 C102_9 1_555 1_555
C103_9 C8_9 1_555 1_555
C104_9 C11_9 1_555 1_555
C105_9 C104_9 1_555 1_555
H51_9 C105_9 1_555 1_555
C106_9 C101_9 1_555 1_555
H52_9 C106_9 1_555 1_555
C110_9 C4_9 1_555 1_555
C111_9 C94_9 1_555 1_555
H56_9 C112_9 1_555 1_555
H58_9 C116_9 1_555 1_555
C117_9 C116_9 1_555 1_555
H59_9 C117_9 1_555 1_555
C119_9 C29_9 1_555 1_555
C120_9 O54_5 1_555 1_555
C121_9 H61_9 1_555 1_555
C122_9 C121_9 1_555 1_555
H62_9 C122_9 1_555 1_555
C123_9 C122_9 1_555 1_555
H63_9 C123_9 1_555 1_555
C124_9 C30_9 1_555 1_555
C125_9 C71_9 1_555 1_555
C126_9 C121_9 1_555 1_555
H64_9 C126_9 1_555 1_555
O45_9 Ba6_5 1_555 1_555
C133_9 H69_9 1_555 1_555
H70_9 C133_9 1_555 1_555
H71_9 C133_9 1_555 1_555
C134_9 N2_9 1_555 1_555
H72_9 C134_9 1_555 1_555
O46_9 Ba7_5 1_555 1_555
C136_9 N2_9 1_555 1_555
H74_9 C136_9 1_555 1_555
H75_9 C136_9 1_555 1_555
H76_9 C136_9 1_555 1_555
C137_9 O40_9 1_555 1_555
C138_9 N1_9 1_555 1_555
H77_9 C138_9 1_555 1_555
H78_9 C138_9 1_555 1_555
H79_9 C138_9 1_555 1_555
C139_9 H80_9 1_555 1_555
C140_9 C77_9 1_555 1_555
C141_9 C78_9 1_555 1_555
C142_9 C141_9 1_555 1_555
H81_9 C142_9 1_555 1_555
C143_9 C142_9 1_555 1_555
H82_9 C143_9 1_555 1_555
C144_9 C139_9 1_555 1_555
H83_9 C144_9 1_555 1_555
C146_9 N1_9 1_555 1_555
H87_9 C146_9 1_555 1_555
H88_9 C146_9 1_555 1_555
H89_9 C146_9 1_555 1_555
O47_9 Ba7_5 1_555 1_555
O48_9 Ba7_5 1_555 1_555
O60_5 Ba4_5 1_555 1_555
Ba4_5 O30_9 1_555 1_555
Ba4_5 O45_9 1_555 1_555
Ti4_9 O21_9 1_555 1_555
C4_9 C7_9 1_555 1_555
C10_9 C33_9 1_555 1_555
C12_9 C51_9 1_555 1_555
C21_9 C93_9 1_555 1_555
C27_9 C120_9 1_555 1_555
O33_9 C44_9 1_555 1_555
C32_9 C37_9 1_555 1_555
C33_9 C44_9 1_555 1_555
C48_9 C78_9 1_555 1_555
C54_9 C55_9 1_555 1_555
C57_9 C58_9 1_555 1_555
C75_9 C76_9 1_555 1_555
C75_9 C119_9 1_555 1_555
C82_9 C83_9 1_555 1_555
C83_9 C84_9 1_555 1_555
C84_9 C85_9 1_555 1_555
C102_9 C103_9 1_555 1_555
C103_9 C104_9 1_555 1_555
C105_9 C106_9 1_555 1_555
C110_9 C111_9 1_555 1_555
C111_9 C112_9 1_555 1_555
C123_9 C124_9 1_555 1_555
C124_9 C125_9 1_555 1_555
C125_9 C126_9 1_555 1_555
C139_9 C140_9 1_555 1_555
C140_9 C141_9 1_555 1_555
C143_9 C144_9 1_555 1_555
O44_9 H95_9 1_555 1_555
O44_9 H96_9 1_555 1_555
O46_9 H99_9 1_555 1_555
O46_9 H100_9 1_555 1_555
C137_9 H101_9 1_555 1_555
O47_9 H104_9 1_555 1_555
O47_9 H105_9 1_555 1_555
O48_9 H106_9 1_555 1_555
O48_9 H107_9 1_555 1_555
Ti2_9 O1_9 1_555 1_555
Ti3_9 O11_9 1_555 1_555
O1_9 C16_9 1_555 1_555
O3_9 Ti2_9 1_555 1_555
O6_9 Ti2_9 1_555 1_555
O8_6 Ti2_9 1_555 1_555
O11_9 C22_9 1_555 1_555
O15_9 Ti3_9 1_555 1_555
O19_6 Ti2_9 1_555 1_555
O20_9 Ti3_9 1_555 1_555
O22_6 Ti2_9 1_555 1_555
O24_9 C25_9 1_555 1_555
O25_9 Ti3_9 1_555 1_555
O57_4 Ti3_9 1_555 1_555
O27_9 C86_9 1_555 1_555
C1_9 H1_9 1_555 1_555
O58_4 C87_9 1_555 1_555
C5_9 H3_9 1_555 1_555
H4_9 C5_9 1_555 1_555
C6_9 C16_9 1_555 1_555
C13_9 C28_9 1_555 1_555
C15_9 H8_9 1_555 1_555
C16_9 C31_9 1_555 1_555
C17_9 C22_9 1_555 1_555
O32_9 C50_9 1_555 1_555
C18_9 C5_9 1_555 1_555
C19_9 O9_9 1_555 1_555
C20_9 C28_9 1_555 1_555
C22_9 O38_9 1_555 1_555
C23_9 C1_9 1_555 1_555
C24_9 H9_9 1_555 1_555
C25_9 O8_6 1_555 1_555
C26_9 O20_9 1_555 1_555
C28_9 O15_9 1_555 1_555
C31_9 C15_9 1_555 1_555
C35_9 O13_9 1_555 1_555
C36_9 O6_9 1_555 1_555
C38_9 H11_9 1_555 1_555
C39_9 C38_9 1_555 1_555
H12_9 C39_9 1_555 1_555
C40_9 C39_9 1_555 1_555
H13_9 C40_9 1_555 1_555
C41_9 C40_9 1_555 1_555
H14_9 C41_9 1_555 1_555
C42_9 C13_9 1_555 1_555
C43_9 C38_9 1_555 1_555
C45_9 C24_9 1_555 1_555
H15_9 C45_9 1_555 1_555
O38_9 Ba5_4 1_555 1_555
H18_9 C47_9 1_555 1_555
O39_9 C35_9 1_555 1_555
C49_9 O3_9 1_555 1_555
C50_9 O19_6 1_555 1_555
C52_9 C69_9 1_555 1_555
C59_9 C20_9 1_555 1_555
H24_9 C59_9 1_555 1_555
C60_9 H25_9 1_555 1_555
C61_9 H26_9 1_555 1_555
C62_9 C61_9 1_555 1_555
H27_9 C62_9 1_555 1_555
C63_9 C15_9 1_555 1_555
C64_9 C6_9 1_555 1_555
C65_9 C64_9 1_555 1_555
H28_9 C65_9 1_555 1_555
C66_9 C61_9 1_555 1_555
H29_9 C66_9 1_555 1_555
C68_9 C19_9 1_555 1_555
C69_9 H31_9 1_555 1_555
C70_9 C45_9 1_555 1_555
H32_9 C70_9 1_555 1_555
C72_9 H34_9 1_555 1_555
C73_9 C5_9 1_555 1_555
C74_9 C6_9 1_555 1_555
H35_9 C74_9 1_555 1_555
H36_9 C74_9 1_555 1_555
C79_9 C17_9 1_555 1_555
H38_9 C79_9 1_555 1_555
O42_9 Ba5_4 1_555 1_555
C86_9 O22_6 1_555 1_555
C87_9 O57_4 1_555 1_555
C88_9 C49_9 1_555 1_555
C89_9 C36_9 1_555 1_555
C90_9 C18_9 1_555 1_555
C91_9 C19_9 1_555 1_555
C92_9 C24_9 1_555 1_555
H43_9 C92_9 1_555 1_555
C95_9 H45_9 1_555 1_555
C96_9 C95_9 1_555 1_555
H46_9 C96_9 1_555 1_555
C97_9 C96_9 1_555 1_555
H47_9 C97_9 1_555 1_555
C98_9 C72_9 1_555 1_555
C99_9 C68_9 1_555 1_555
C100_9 C95_9 1_555 1_555
H48_9 C100_9 1_555 1_555
C107_9 H53_9 1_555 1_555
C108_9 C107_9 1_555 1_555
H54_9 C108_9 1_555 1_555
C109_9 C108_9 1_555 1_555
H55_9 C109_9 1_555 1_555
C113_9 H57_9 1_555 1_555
C114_9 C60_9 1_555 1_555
C115_9 C23_9 1_555 1_555
C118_9 C113_9 1_555 1_555
C127_9 H65_9 1_555 1_555
C128_9 C79_9 1_555 1_555
C129_9 C73_9 1_555 1_555
C130_9 C129_9 1_555 1_555
H66_9 C130_9 1_555 1_555
C131_9 C130_9 1_555 1_555
H67_9 C131_9 1_555 1_555
C132_9 C127_9 1_555 1_555
H68_9 C132_9 1_555 1_555
Ba6_6 O8_6 1_555 1_555
O19_6 Ba6_6 1_555 1_555
O22_6 Ba6_6 1_555 1_555
C13_9 C47_9 1_555 1_555
C17_9 C26_9 1_555 1_555
C18_9 C36_9 1_555 1_555
C20_9 C87_9 1_555 1_555
C23_9 C49_9 1_555 1_555
C25_9 C31_9 1_555 1_555
C26_9 C73_9 1_555 1_555
C35_9 C91_9 1_555 1_555
C41_9 C42_9 1_555 1_555
C42_9 C43_9 1_555 1_555
C43_9 C59_9 1_555 1_555
C50_9 C89_9 1_555 1_555
C52_9 C70_9 1_555 1_555
C52_9 C90_9 1_555 1_555
C60_9 C88_9 1_555 1_555
C62_9 C63_9 1_555 1_555
C63_9 C64_9 1_555 1_555
C65_9 C66_9 1_555 1_555
C68_9 C74_9 1_555 1_555
C69_9 C89_9 1_555 1_555
C72_9 C91_9 1_555 1_555
C86_9 C88_9 1_555 1_555
C90_9 C92_9 1_555 1_555
C97_9 C98_9 1_555 1_555
C98_9 C99_9 1_555 1_555
C99_9 C100_9 1_555 1_555
C113_9 C114_9 1_555 1_555
C114_9 C115_9 1_555 1_555
C127_9 C128_9 1_555 1_555
C128_9 C129_9 1_555 1_555
C131_9 C132_9 1_555 1_555
O42_9 H93_9 1_555 1_555
O42_9 H94_9 1_555 1_555
O43_9 H97_9 1_555 1_555
O43_9 H98_9 1_555 1_555
O49_9 H102_9 1_555 1_555
O49_9 H103_9 1_555 1_555
N3_9 C135_9 1_555 1_555
C135_9 O36_9 1_555 1_555
H73_9 C135_9 1_555 1_555
C147_9 N3_9 1_555 1_555
H90_9 C147_9 1_555 1_555
H91_9 C147_9 1_555 1_555
Ba8_5 O41_5 1_555 1_555
N3_10 C135_10 1_555 1_555
C135_10 O36_10 1_555 1_555
H73_10 C135_10 1_555 1_555
C147_10 N3_10 1_555 1_555
H90_10 C147_10 1_555 1_555
H91_10 C147_10 1_555 1_555
Ba2_8 O23_10 1_555 1_555
Ba3_8 O35_10 1_555 1_555
Ba8_5 O14_10 1_555 1_555
Ti1_10 O2_10 1_555 1_555
Ti4_10 O5_10 1_555 1_555
O2_10 C2_10 1_555 1_555
O4_10 Ti1_10 1_555 1_555
O5_10 C119_10 1_555 1_555
O7_8 Ti1_10 1_555 1_555
O10_10 Ti4_10 1_555 1_555
O14_10 Ti4_10 1_555 1_555
O16_8 Ti1_10 1_555 1_555
O17_8 Ti1_10 1_555 1_555
O18_10 Ti1_10 1_555 1_555
O21_10 Ba8_5 1_555 1_555
O23_10 C76_10 1_555 1_555
O28_10 C51_10 1_555 1_555
C2_10 C9_10 1_555 1_555
C3_10 O12_10 1_555 1_555
C7_10 O4_10 1_555 1_555
C8_10 H5_10 1_555 1_555
C9_10 C46_10 1_555 1_555
C10_10 O10_10 1_555 1_555
C11_10 C10_10 1_555 1_555
C12_10 C7_10 1_555 1_555
C14_10 H6_10 1_555 1_555
H7_10 C14_10 1_555 1_555
O30_10 Ba2_8 1_555 1_555
O31_8 C93_10 1_555 1_555
C21_10 C48_10 1_555 1_555
C27_10 C2_10 1_555 1_555
C29_10 C14_10 1_555 1_555
O33_10 Ba8_5 1_555 1_555
C30_10 C3_10 1_555 1_555
C32_10 C3_10 1_555 1_555
O34_10 C37_10 1_555 1_555
C33_10 C8_10 1_555 1_555
C34_10 C27_10 1_555 1_555
H10_10 C34_10 1_555 1_555
O35_10 C120_10 1_555 1_555
C44_10 O14_10 1_555 1_555
O37_10 C134_10 1_555 1_555
C46_10 C30_10 1_555 1_555
H16_10 C46_10 1_555 1_555
H17_10 C46_10 1_555 1_555
C48_10 O18_10 1_555 1_555
C51_10 O16_8 1_555 1_555
O40_10 Ba3_8 1_555 1_555
C53_10 H20_10 1_555 1_555
C54_10 C53_10 1_555 1_555
H21_10 C54_10 1_555 1_555
C55_10 C29_10 1_555 1_555
C56_10 C55_10 1_555 1_555
C57_10 C56_10 1_555 1_555
H22_10 C57_10 1_555 1_555
C58_10 C53_10 1_555 1_555
H23_10 C58_10 1_555 1_555
N1_10 C137_10 1_555 1_555
C67_10 C56_10 1_555 1_555
H30_10 C67_10 1_555 1_555
C71_10 C32_10 1_555 1_555
H33_10 C71_10 1_555 1_555
N2_10 C133_10 1_555 1_555
C75_10 C67_10 1_555 1_555
C76_10 O21_10 1_555 1_555
C77_10 C21_10 1_555 1_555
H37_10 C77_10 1_555 1_555
C78_10 C14_10 1_555 1_555
C80_10 H39_10 1_555 1_555
C81_10 C80_10 1_555 1_555
H40_10 C81_10 1_555 1_555
C82_10 C81_10 1_555 1_555
H41_10 C82_10 1_555 1_555
C83_10 C9_10 1_555 1_555
C84_10 C34_10 1_555 1_555
C85_10 C80_10 1_555 1_555
H42_10 C85_10 1_555 1_555
O44_10 Ba2_8 1_555 1_555
C93_10 O7_8 1_555 1_555
C94_10 C12_10 1_555 1_555
H44_10 C94_10 1_555 1_555
C101_10 H49_10 1_555 1_555
C102_10 C101_10 1_555 1_555
H50_10 C102_10 1_555 1_555
C103_10 C8_10 1_555 1_555
C104_10 C11_10 1_555 1_555
C105_10 C104_10 1_555 1_555
H51_10 C105_10 1_555 1_555
C106_10 C101_10 1_555 1_555
H52_10 C106_10 1_555 1_555
C110_10 C4_10 1_555 1_555
C111_10 C94_10 1_555 1_555
H56_10 C112_10 1_555 1_555
H58_10 C116_10 1_555 1_555
C117_10 C116_10 1_555 1_555
H59_10 C117_10 1_555 1_555
C119_10 C29_10 1_555 1_555
C120_10 O17_8 1_555 1_555
C121_10 H61_10 1_555 1_555
C122_10 C121_10 1_555 1_555
H62_10 C122_10 1_555 1_555
C123_10 C122_10 1_555 1_555
H63_10 C123_10 1_555 1_555
C124_10 C30_10 1_555 1_555
C125_10 C71_10 1_555 1_555
C126_10 C121_10 1_555 1_555
H64_10 C126_10 1_555 1_555
O45_10 Ba2_8 1_555 1_555
C133_10 H69_10 1_555 1_555
H70_10 C133_10 1_555 1_555
H71_10 C133_10 1_555 1_555
C134_10 N2_10 1_555 1_555
H72_10 C134_10 1_555 1_555
O46_10 Ba3_8 1_555 1_555
C136_10 N2_10 1_555 1_555
H74_10 C136_10 1_555 1_555
H75_10 C136_10 1_555 1_555
H76_10 C136_10 1_555 1_555
C137_10 O40_10 1_555 1_555
C138_10 N1_10 1_555 1_555
H77_10 C138_10 1_555 1_555
H78_10 C138_10 1_555 1_555
H79_10 C138_10 1_555 1_555
C139_10 H80_10 1_555 1_555
C140_10 C77_10 1_555 1_555
C141_10 C78_10 1_555 1_555
C142_10 C141_10 1_555 1_555
H81_10 C142_10 1_555 1_555
C143_10 C142_10 1_555 1_555
H82_10 C143_10 1_555 1_555
C144_10 C139_10 1_555 1_555
H83_10 C144_10 1_555 1_555
C146_10 N1_10 1_555 1_555
H87_10 C146_10 1_555 1_555
H88_10 C146_10 1_555 1_555
H89_10 C146_10 1_555 1_555
O47_10 Ba3_8 1_555 1_555
O48_10 Ba3_8 1_555 1_555
O50_8 Ba3_8 1_555 1_555
Ba5_8 O7_8 1_555 1_555
O52_8 Ba2_8 1_555 1_555
O55_8 Ba2_8 1_555 1_555
O56_8 Ba2_8 1_555 1_555
O57_8 Ba3_8 1_555 1_555
O58_8 Ba3_8 1_555 1_555
Ba8_5 O30_10 1_555 1_555
Ba8_5 O45_10 1_555 1_555
Ti4_10 O21_10 1_555 1_555
O16_8 Ba5_8 1_555 1_555
O17_8 Ba5_8 1_555 1_555
C4_10 C7_10 1_555 1_555
C10_10 C33_10 1_555 1_555
C12_10 C51_10 1_555 1_555
O31_8 Ba5_8 1_555 1_555
C21_10 C93_10 1_555 1_555
C27_10 C120_10 1_555 1_555
O33_10 C44_10 1_555 1_555
C32_10 C37_10 1_555 1_555
C33_10 C44_10 1_555 1_555
C48_10 C78_10 1_555 1_555
C54_10 C55_10 1_555 1_555
C57_10 C58_10 1_555 1_555
C75_10 C76_10 1_555 1_555
C75_10 C119_10 1_555 1_555
C82_10 C83_10 1_555 1_555
C83_10 C84_10 1_555 1_555
C84_10 C85_10 1_555 1_555
C102_10 C103_10 1_555 1_555
C103_10 C104_10 1_555 1_555
C105_10 C106_10 1_555 1_555
C110_10 C111_10 1_555 1_555
C111_10 C112_10 1_555 1_555
C123_10 C124_10 1_555 1_555
C124_10 C125_10 1_555 1_555
C125_10 C126_10 1_555 1_555
C139_10 C140_10 1_555 1_555
C140_10 C141_10 1_555 1_555
C143_10 C144_10 1_555 1_555
O50_8 Ba5_8 1_555 1_555
O44_10 H95_10 1_555 1_555
O44_10 H96_10 1_555 1_555
O46_10 H99_10 1_555 1_555
O46_10 H100_10 1_555 1_555
C137_10 H101_10 1_555 1_555
O47_10 H104_10 1_555 1_555
O47_10 H105_10 1_555 1_555
O48_10 H106_10 1_555 1_555
O48_10 H107_10 1_555 1_555
Ti2_10 O1_10 1_555 1_555
Ti3_10 O11_10 1_555 1_555
O1_10 C16_10 1_555 1_555
O3_10 Ti2_10 1_555 1_555
O6_10 Ti2_10 1_555 1_555
O52_4 Ti2_10 1_555 1_555
O11_10 C22_10 1_555 1_555
O15_10 Ti3_10 1_555 1_555
O55_4 Ti2_10 1_555 1_555
O20_10 Ti3_10 1_555 1_555
O56_4 Ti2_10 1_555 1_555
O24_10 C25_10 1_555 1_555
O25_10 Ti3_10 1_555 1_555
O26_6 Ti3_10 1_555 1_555
O27_10 C86_10 1_555 1_555
C1_10 H1_10 1_555 1_555
O29_6 C87_10 1_555 1_555
C5_10 H3_10 1_555 1_555
H4_10 C5_10 1_555 1_555
C6_10 C16_10 1_555 1_555
C13_10 C28_10 1_555 1_555
C15_10 H8_10 1_555 1_555
C16_10 C31_10 1_555 1_555
C17_10 C22_10 1_555 1_555
O32_10 C50_10 1_555 1_555
C18_10 C5_10 1_555 1_555
C19_10 O9_10 1_555 1_555
C20_10 C28_10 1_555 1_555
C22_10 O38_10 1_555 1_555
C23_10 C1_10 1_555 1_555
C24_10 H9_10 1_555 1_555
C25_10 O52_4 1_555 1_555
C26_10 O20_10 1_555 1_555
C28_10 O15_10 1_555 1_555
C31_10 C15_10 1_555 1_555
C35_10 O13_10 1_555 1_555
C36_10 O6_10 1_555 1_555
C38_10 H11_10 1_555 1_555
C39_10 C38_10 1_555 1_555
H12_10 C39_10 1_555 1_555
C40_10 C39_10 1_555 1_555
H13_10 C40_10 1_555 1_555
C41_10 C40_10 1_555 1_555
H14_10 C41_10 1_555 1_555
C42_10 C13_10 1_555 1_555
C43_10 C38_10 1_555 1_555
C45_10 C24_10 1_555 1_555
H15_10 C45_10 1_555 1_555
O38_10 Ba1_6 1_555 1_555
H18_10 C47_10 1_555 1_555
O39_10 C35_10 1_555 1_555
C49_10 O3_10 1_555 1_555
C50_10 O55_4 1_555 1_555
C52_10 C69_10 1_555 1_555
C59_10 C20_10 1_555 1_555
H24_10 C59_10 1_555 1_555
C60_10 H25_10 1_555 1_555
C61_10 H26_10 1_555 1_555
C62_10 C61_10 1_555 1_555
H27_10 C62_10 1_555 1_555
C63_10 C15_10 1_555 1_555
C64_10 C6_10 1_555 1_555
C65_10 C64_10 1_555 1_555
H28_10 C65_10 1_555 1_555
C66_10 C61_10 1_555 1_555
H29_10 C66_10 1_555 1_555
C68_10 C19_10 1_555 1_555
C69_10 H31_10 1_555 1_555
C70_10 C45_10 1_555 1_555
H32_10 C70_10 1_555 1_555
C72_10 H34_10 1_555 1_555
C73_10 C5_10 1_555 1_555
C74_10 C6_10 1_555 1_555
H35_10 C74_10 1_555 1_555
H36_10 C74_10 1_555 1_555
C79_10 C17_10 1_555 1_555
H38_10 C79_10 1_555 1_555
O42_10 Ba1_6 1_555 1_555
C86_10 O56_4 1_555 1_555
C87_10 O26_6 1_555 1_555
C88_10 C49_10 1_555 1_555
C89_10 C36_10 1_555 1_555
C90_10 C18_10 1_555 1_555
C91_10 C19_10 1_555 1_555
C92_10 C24_10 1_555 1_555
H43_10 C92_10 1_555 1_555
C95_10 H45_10 1_555 1_555
C96_10 C95_10 1_555 1_555
H46_10 C96_10 1_555 1_555
C97_10 C96_10 1_555 1_555
H47_10 C97_10 1_555 1_555
C98_10 C72_10 1_555 1_555
C99_10 C68_10 1_555 1_555
C100_10 C95_10 1_555 1_555
H48_10 C100_10 1_555 1_555
C107_10 H53_10 1_555 1_555
C108_10 C107_10 1_555 1_555
H54_10 C108_10 1_555 1_555
C109_10 C108_10 1_555 1_555
H55_10 C109_10 1_555 1_555
C113_10 H57_10 1_555 1_555
C114_10 C60_10 1_555 1_555
C115_10 C23_10 1_555 1_555
C118_10 C113_10 1_555 1_555
C127_10 H65_10 1_555 1_555
C128_10 C79_10 1_555 1_555
C129_10 C73_10 1_555 1_555
C130_10 C129_10 1_555 1_555
H66_10 C130_10 1_555 1_555
C131_10 C130_10 1_555 1_555
H67_10 C131_10 1_555 1_555
C132_10 C127_10 1_555 1_555
H68_10 C132_10 1_555 1_555
Ba7_6 O26_6 1_555 1_555
O51_6 Ba1_6 1_555 1_555
O53_6 Ba1_6 1_555 1_555
O54_6 Ba1_6 1_555 1_555
O59_6 Ba1_6 1_555 1_555
O61_6 Ba1_6 1_555 1_555
O29_6 Ba7_6 1_555 1_555
C13_10 C47_10 1_555 1_555
C17_10 C26_10 1_555 1_555
C18_10 C36_10 1_555 1_555
C20_10 C87_10 1_555 1_555
C23_10 C49_10 1_555 1_555
C25_10 C31_10 1_555 1_555
C26_10 C73_10 1_555 1_555
C35_10 C91_10 1_555 1_555
C41_10 C42_10 1_555 1_555
C42_10 C43_10 1_555 1_555
C43_10 C59_10 1_555 1_555
C50_10 C89_10 1_555 1_555
C52_10 C70_10 1_555 1_555
C52_10 C90_10 1_555 1_555
C60_10 C88_10 1_555 1_555
C62_10 C63_10 1_555 1_555
C63_10 C64_10 1_555 1_555
C65_10 C66_10 1_555 1_555
C68_10 C74_10 1_555 1_555
C69_10 C89_10 1_555 1_555
C72_10 C91_10 1_555 1_555
C86_10 C88_10 1_555 1_555
C90_10 C92_10 1_555 1_555
C97_10 C98_10 1_555 1_555
C98_10 C99_10 1_555 1_555
C99_10 C100_10 1_555 1_555
C113_10 C114_10 1_555 1_555
C114_10 C115_10 1_555 1_555
C127_10 C128_10 1_555 1_555
C128_10 C129_10 1_555 1_555
C131_10 C132_10 1_555 1_555
Ba7_6 O61_6 1_555 1_555
O42_10 H93_10 1_555 1_555
O42_10 H94_10 1_555 1_555
O43_10 H97_10 1_555 1_555
O43_10 H98_10 1_555 1_555
O49_10 H102_10 1_555 1_555
O49_10 H103_10 1_555 1_555
Ba5_8 O37_11 1_555 1_555
Ba2_9 O23_11 1_555 1_555
Ba3_9 O35_11 1_555 1_555
Ba4_6 O14_11 1_555 1_555
Ti1_11 O2_11 1_555 1_555
Ti2_11 O1_11 1_555 1_555
Ti3_11 O11_11 1_555 1_555
Ti4_11 O5_11 1_555 1_555
O1_11 C16_11 1_555 1_555
O2_11 C2_11 1_555 1_555
O3_11 Ti2_11 1_555 1_555
O4_11 Ti1_11 1_555 1_555
O5_11 C119_11 1_555 1_555
O6_11 Ti2_11 1_555 1_555
O7_9 Ti1_11 1_555 1_555
O52_5 Ti2_11 1_555 1_555
O9_11 Ti4_11 1_555 1_555
O10_11 Ti4_11 1_555 1_555
O11_11 C22_11 1_555 1_555
O12_11 Ti3_11 1_555 1_555
O13_11 Ti4_11 1_555 1_555
O14_11 Ti4_11 1_555 1_555
O15_11 Ti3_11 1_555 1_555
O16_9 Ti1_11 1_555 1_555
O17_9 Ti1_11 1_555 1_555
O18_11 Ti1_11 1_555 1_555
O55_5 Ti2_11 1_555 1_555
O20_11 Ti3_11 1_555 1_555
O21_11 Ba4_6 1_555 1_555
O56_5 Ti2_11 1_555 1_555
O23_11 C76_11 1_555 1_555
O24_11 C25_11 1_555 1_555
O25_11 Ti3_11 1_555 1_555
O57_8 Ti3_11 1_555 1_555
O27_11 C86_11 1_555 1_555
O28_11 C51_11 1_555 1_555
C1_11 H1_11 1_555 1_555
H2_11 C1_11 1_555 1_555
C2_11 C9_11 1_555 1_555
C3_11 O12_11 1_555 1_555
C4_11 C1_11 1_555 1_555
O58_8 C87_11 1_555 1_555
C5_11 H3_11 1_555 1_555
H4_11 C5_11 1_555 1_555
C6_11 C16_11 1_555 1_555
C7_11 O4_11 1_555 1_555
C8_11 H5_11 1_555 1_555
C9_11 C46_11 1_555 1_555
C10_11 O10_11 1_555 1_555
C11_11 C10_11 1_555 1_555
C12_11 C7_11 1_555 1_555
C13_11 C28_11 1_555 1_555
C14_11 H6_11 1_555 1_555
H7_11 C14_11 1_555 1_555
C15_11 H8_11 1_555 1_555
O30_11 Ba2_9 1_555 1_555
C16_11 C31_11 1_555 1_555
C17_11 C22_11 1_555 1_555
O31_9 C93_11 1_555 1_555
O32_11 C50_11 1_555 1_555
C18_11 C5_11 1_555 1_555
C19_11 O9_11 1_555 1_555
C20_11 C28_11 1_555 1_555
C21_11 C48_11 1_555 1_555
C22_11 O38_11 1_555 1_555
C23_11 C1_11 1_555 1_555
C24_11 H9_11 1_555 1_555
C25_11 O52_5 1_555 1_555
C26_11 O20_11 1_555 1_555
C27_11 C2_11 1_555 1_555
C28_11 O15_11 1_555 1_555
C29_11 C14_11 1_555 1_555
O33_11 Ba4_6 1_555 1_555
C30_11 C3_11 1_555 1_555
C31_11 C15_11 1_555 1_555
C32_11 C3_11 1_555 1_555
O34_11 C37_11 1_555 1_555
C33_11 C8_11 1_555 1_555
C34_11 C27_11 1_555 1_555
H10_11 C34_11 1_555 1_555
C35_11 O13_11 1_555 1_555
C36_11 O6_11 1_555 1_555
C37_11 O25_11 1_555 1_555
O35_11 C120_11 1_555 1_555
C38_11 H11_11 1_555 1_555
C39_11 C38_11 1_555 1_555
H12_11 C39_11 1_555 1_555
C40_11 C39_11 1_555 1_555
H13_11 C40_11 1_555 1_555
C41_11 C40_11 1_555 1_555
H14_11 C41_11 1_555 1_555
C42_11 C13_11 1_555 1_555
C43_11 C38_11 1_555 1_555
O36_11 Ba2_9 1_555 1_555
C44_11 O14_11 1_555 1_555
C45_11 C24_11 1_555 1_555
H15_11 C45_11 1_555 1_555
O37_11 C134_11 1_555 1_555
O38_11 Ba5_8 1_555 1_555
C46_11 C30_11 1_555 1_555
H16_11 C46_11 1_555 1_555
H17_11 C46_11 1_555 1_555
C47_11 C11_11 1_555 1_555
H18_11 C47_11 1_555 1_555
H19_11 C47_11 1_555 1_555
O39_11 C35_11 1_555 1_555
C48_11 O18_11 1_555 1_555
C49_11 O3_11 1_555 1_555
C50_11 O55_5 1_555 1_555
C51_11 O16_9 1_555 1_555
O40_11 Ba3_9 1_555 1_555
C52_11 C69_11 1_555 1_555
C53_11 H20_11 1_555 1_555
C54_11 C53_11 1_555 1_555
H21_11 C54_11 1_555 1_555
C55_11 C29_11 1_555 1_555
C56_11 C55_11 1_555 1_555
C57_11 C56_11 1_555 1_555
H22_11 C57_11 1_555 1_555
C58_11 C53_11 1_555 1_555
H23_11 C58_11 1_555 1_555
N1_11 C137_11 1_555 1_555
C59_11 C20_11 1_555 1_555
H24_11 C59_11 1_555 1_555
C60_11 H25_11 1_555 1_555
C61_11 H26_11 1_555 1_555
C62_11 C61_11 1_555 1_555
H27_11 C62_11 1_555 1_555
C63_11 C15_11 1_555 1_555
C64_11 C6_11 1_555 1_555
C65_11 C64_11 1_555 1_555
H28_11 C65_11 1_555 1_555
C66_11 C61_11 1_555 1_555
H29_11 C66_11 1_555 1_555
C67_11 C56_11 1_555 1_555
H30_11 C67_11 1_555 1_555
C68_11 C19_11 1_555 1_555
C69_11 H31_11 1_555 1_555
C70_11 C45_11 1_555 1_555
H32_11 C70_11 1_555 1_555
C71_11 C32_11 1_555 1_555
H33_11 C71_11 1_555 1_555
C72_11 H34_11 1_555 1_555
N2_11 C133_11 1_555 1_555
C73_11 C5_11 1_555 1_555
C74_11 C6_11 1_555 1_555
H35_11 C74_11 1_555 1_555
H36_11 C74_11 1_555 1_555
C75_11 C67_11 1_555 1_555
C76_11 O21_11 1_555 1_555
C77_11 C21_11 1_555 1_555
H37_11 C77_11 1_555 1_555
O41_6 Ba4_6 1_555 1_555
C78_11 C14_11 1_555 1_555
C79_11 C17_11 1_555 1_555
H38_11 C79_11 1_555 1_555
C80_11 H39_11 1_555 1_555
C81_11 C80_11 1_555 1_555
H40_11 C81_11 1_555 1_555
C82_11 C81_11 1_555 1_555
H41_11 C82_11 1_555 1_555
C83_11 C9_11 1_555 1_555
C84_11 C34_11 1_555 1_555
C85_11 C80_11 1_555 1_555
H42_11 C85_11 1_555 1_555
O42_11 Ba5_8 1_555 1_555
O43_11 Ba4_6 1_555 1_555
C86_11 O56_5 1_555 1_555
N3_11 C135_11 1_555 1_555
C87_11 O57_8 1_555 1_555
C88_11 C49_11 1_555 1_555
C89_11 C36_11 1_555 1_555
C90_11 C18_11 1_555 1_555
C91_11 C19_11 1_555 1_555
C92_11 C24_11 1_555 1_555
H43_11 C92_11 1_555 1_555
O44_11 Ba2_9 1_555 1_555
C93_11 O7_9 1_555 1_555
C94_11 C12_11 1_555 1_555
H44_11 C94_11 1_555 1_555
C95_11 H45_11 1_555 1_555
C96_11 C95_11 1_555 1_555
H46_11 C96_11 1_555 1_555
C97_11 C96_11 1_555 1_555
H47_11 C97_11 1_555 1_555
C98_11 C72_11 1_555 1_555
C99_11 C68_11 1_555 1_555
C100_11 C95_11 1_555 1_555
H48_11 C100_11 1_555 1_555
C101_11 H49_11 1_555 1_555
C102_11 C101_11 1_555 1_555
H50_11 C102_11 1_555 1_555
C103_11 C8_11 1_555 1_555
C104_11 C11_11 1_555 1_555
C105_11 C104_11 1_555 1_555
H51_11 C105_11 1_555 1_555
C106_11 C101_11 1_555 1_555
H52_11 C106_11 1_555 1_555
C107_11 H53_11 1_555 1_555
C108_11 C107_11 1_555 1_555
H54_11 C108_11 1_555 1_555
C109_11 C108_11 1_555 1_555
H55_11 C109_11 1_555 1_555
C110_11 C4_11 1_555 1_555
C111_11 C94_11 1_555 1_555
C112_11 C107_11 1_555 1_555
H56_11 C112_11 1_555 1_555
C113_11 H57_11 1_555 1_555
C114_11 C60_11 1_555 1_555
C115_11 C23_11 1_555 1_555
C116_11 C115_11 1_555 1_555
H58_11 C116_11 1_555 1_555
C117_11 C116_11 1_555 1_555
H59_11 C117_11 1_555 1_555
C118_11 C113_11 1_555 1_555
H60_11 C118_11 1_555 1_555
C119_11 C29_11 1_555 1_555
C120_11 O17_9 1_555 1_555
C121_11 H61_11 1_555 1_555
C122_11 C121_11 1_555 1_555
H62_11 C122_11 1_555 1_555
C123_11 C122_11 1_555 1_555
H63_11 C123_11 1_555 1_555
C124_11 C30_11 1_555 1_555
C125_11 C71_11 1_555 1_555
C126_11 C121_11 1_555 1_555
H64_11 C126_11 1_555 1_555
C127_11 H65_11 1_555 1_555
C128_11 C79_11 1_555 1_555
C129_11 C73_11 1_555 1_555
C130_11 C129_11 1_555 1_555
H66_11 C130_11 1_555 1_555
C131_11 C130_11 1_555 1_555
H67_11 C131_11 1_555 1_555
C132_11 C127_11 1_555 1_555
H68_11 C132_11 1_555 1_555
O45_11 Ba2_9 1_555 1_555
C133_11 H69_11 1_555 1_555
H70_11 C133_11 1_555 1_555
H71_11 C133_11 1_555 1_555
C134_11 N2_11 1_555 1_555
H72_11 C134_11 1_555 1_555
C135_11 O36_11 1_555 1_555
H73_11 C135_11 1_555 1_555
O46_11 Ba3_9 1_555 1_555
C136_11 N2_11 1_555 1_555
H74_11 C136_11 1_555 1_555
H75_11 C136_11 1_555 1_555
H76_11 C136_11 1_555 1_555
C137_11 O40_11 1_555 1_555
C138_11 N1_11 1_555 1_555
H77_11 C138_11 1_555 1_555
H78_11 C138_11 1_555 1_555
H79_11 C138_11 1_555 1_555
C139_11 H80_11 1_555 1_555
C140_11 C77_11 1_555 1_555
C141_11 C78_11 1_555 1_555
C142_11 C141_11 1_555 1_555
H81_11 C142_11 1_555 1_555
C143_11 C142_11 1_555 1_555
H82_11 C143_11 1_555 1_555
C144_11 C139_11 1_555 1_555
H83_11 C144_11 1_555 1_555
C145_9 N3_11 1_555 1_555
H84_9 C145_9 1_555 1_555
H85_11 C145_9 1_555 1_555
H86_9 C145_9 1_555 1_555
C146_11 N1_11 1_555 1_555
H87_11 C146_11 1_555 1_555
H88_11 C146_11 1_555 1_555
H89_11 C146_11 1_555 1_555
O47_11 Ba3_9 1_555 1_555
O48_11 Ba3_9 1_555 1_555
C147_11 N3_11 1_555 1_555
H90_11 C147_11 1_555 1_555
H91_11 C147_11 1_555 1_555
H92_9 C147_11 1_555 1_555
O49_11 Ba2_9 1_555 1_555
O50_9 Ba3_9 1_555 1_555
Ba5_9 O7_9 1_555 1_555
Ba8_6 O41_6 1_555 1_555
O52_9 Ba2_9 1_555 1_555
O55_9 Ba2_9 1_555 1_555
O56_9 Ba2_9 1_555 1_555
O57_9 Ba3_9 1_555 1_555
O58_9 Ba3_9 1_555 1_555
O60_6 Ba4_6 1_555 1_555
Ba4_6 O30_11 1_555 1_555
Ba4_6 O45_11 1_555 1_555
Ti4_11 O21_11 1_555 1_555
O16_9 Ba5_9 1_555 1_555
O17_9 Ba5_9 1_555 1_555
C4_11 C7_11 1_555 1_555
C10_11 C33_11 1_555 1_555
C12_11 C51_11 1_555 1_555
C13_11 C47_11 1_555 1_555
C17_11 C26_11 1_555 1_555
O31_9 Ba5_9 1_555 1_555
C18_11 C36_11 1_555 1_555
C20_11 C87_11 1_555 1_555
C21_11 C93_11 1_555 1_555
C23_11 C49_11 1_555 1_555
C25_11 C31_11 1_555 1_555
C26_11 C73_11 1_555 1_555
C27_11 C120_11 1_555 1_555
O33_11 C44_11 1_555 1_555
C32_11 C37_11 1_555 1_555
C33_11 C44_11 1_555 1_555
C35_11 C91_11 1_555 1_555
C41_11 C42_11 1_555 1_555
C42_11 C43_11 1_555 1_555
C43_11 C59_11 1_555 1_555
C48_11 C78_11 1_555 1_555
C50_11 C89_11 1_555 1_555
C52_11 C70_11 1_555 1_555
C52_11 C90_11 1_555 1_555
C54_11 C55_11 1_555 1_555
C57_11 C58_11 1_555 1_555
C60_11 C88_11 1_555 1_555
C62_11 C63_11 1_555 1_555
C63_11 C64_11 1_555 1_555
C65_11 C66_11 1_555 1_555
C68_11 C74_11 1_555 1_555
C69_11 C89_11 1_555 1_555
C72_11 C91_11 1_555 1_555
C75_11 C76_11 1_555 1_555
C75_11 C119_11 1_555 1_555
C82_11 C83_11 1_555 1_555
C83_11 C84_11 1_555 1_555
C84_11 C85_11 1_555 1_555
C86_11 C88_11 1_555 1_555
C90_11 C92_11 1_555 1_555
C97_11 C98_11 1_555 1_555
C98_11 C99_11 1_555 1_555
C99_11 C100_11 1_555 1_555
C102_11 C103_11 1_555 1_555
C103_11 C104_11 1_555 1_555
C105_11 C106_11 1_555 1_555
C109_11 C110_11 1_555 1_555
C110_11 C111_11 1_555 1_555
C111_11 C112_11 1_555 1_555
C113_11 C114_11 1_555 1_555
C114_11 C115_11 1_555 1_555
C117_11 C118_11 1_555 1_555
C123_11 C124_11 1_555 1_555
C124_11 C125_11 1_555 1_555
C125_11 C126_11 1_555 1_555
C127_11 C128_11 1_555 1_555
C128_11 C129_11 1_555 1_555
C131_11 C132_11 1_555 1_555
C139_11 C140_11 1_555 1_555
C140_11 C141_11 1_555 1_555
C143_11 C144_11 1_555 1_555
O50_9 Ba5_9 1_555 1_555
Ba8_6 O60_6 1_555 1_555
O42_11 H93_11 1_555 1_555
O42_11 H94_11 1_555 1_555
O44_11 H95_11 1_555 1_555
O44_11 H96_11 1_555 1_555
O43_11 H97_11 1_555 1_555
O43_11 H98_11 1_555 1_555
O46_11 H99_11 1_555 1_555
O46_11 H100_11 1_555 1_555
C137_11 H101_11 1_555 1_555
O49_11 H102_11 1_555 1_555
O49_11 H103_11 1_555 1_555
O47_11 H104_11 1_555 1_555
O47_11 H105_11 1_555 1_555
O48_11 H106_11 1_555 1_555
O48_11 H107_11 1_555 1_555
Ba6_2 O23_12 1_555 1_555
Ba8_6 O14_12 1_555 1_555
Ti4_12 O5_12 1_555 1_555
O1_12 C16_12 1_555 1_555
O5_12 C119_12 1_555 1_555
O9_12 Ti4_12 1_555 1_555
O10_12 Ti4_12 1_555 1_555
O13_12 Ti4_12 1_555 1_555
O14_12 Ti4_12 1_555 1_555
O21_12 Ba8_6 1_555 1_555
O23_12 C76_12 1_555 1_555
O58_5 C87_12 1_555 1_555
C6_12 C16_12 1_555 1_555
C8_12 H5_12 1_555 1_555
C10_12 O10_12 1_555 1_555
C11_12 C10_12 1_555 1_555
C13_12 C28_12 1_555 1_555
C14_12 H6_12 1_555 1_555
H7_12 C14_12 1_555 1_555
C15_12 H8_12 1_555 1_555
O30_12 Ba6_2 1_555 1_555
C16_12 C31_12 1_555 1_555
C19_12 O9_12 1_555 1_555
C20_12 C28_12 1_555 1_555
C24_12 H9_12 1_555 1_555
C28_12 O15_12 1_555 1_555
C29_12 C14_12 1_555 1_555
O33_12 Ba8_6 1_555 1_555
C31_12 C15_12 1_555 1_555
C33_12 C8_12 1_555 1_555
C35_12 O13_12 1_555 1_555
C38_12 H11_12 1_555 1_555
C39_12 C38_12 1_555 1_555
H12_12 C39_12 1_555 1_555
C40_12 C39_12 1_555 1_555
H13_12 C40_12 1_555 1_555
C41_12 C40_12 1_555 1_555
H14_12 C41_12 1_555 1_555
C42_12 C13_12 1_555 1_555
C43_12 C38_12 1_555 1_555
O36_12 Ba6_2 1_555 1_555
C44_12 O14_12 1_555 1_555
C45_12 C24_12 1_555 1_555
H15_12 C45_12 1_555 1_555
C47_12 C11_12 1_555 1_555
H18_12 C47_12 1_555 1_555
H19_12 C47_12 1_555 1_555
O39_12 C35_12 1_555 1_555
C52_12 C69_12 1_555 1_555
C53_12 H20_12 1_555 1_555
C54_12 C53_12 1_555 1_555
H21_12 C54_12 1_555 1_555
C55_12 C29_12 1_555 1_555
C56_12 C55_12 1_555 1_555
C57_12 C56_12 1_555 1_555
H22_12 C57_12 1_555 1_555
C58_12 C53_12 1_555 1_555
H23_12 C58_12 1_555 1_555
C59_12 C20_12 1_555 1_555
H24_12 C59_12 1_555 1_555
C61_12 H26_12 1_555 1_555
C62_12 C61_12 1_555 1_555
H27_12 C62_12 1_555 1_555
C63_12 C15_12 1_555 1_555
C64_12 C6_12 1_555 1_555
C65_12 C64_12 1_555 1_555
H28_12 C65_12 1_555 1_555
C66_12 C61_12 1_555 1_555
H29_12 C66_12 1_555 1_555
C67_12 C56_12 1_555 1_555
H30_12 C67_12 1_555 1_555
C68_12 C19_12 1_555 1_555
C69_12 H31_12 1_555 1_555
C70_12 C45_12 1_555 1_555
H32_12 C70_12 1_555 1_555
C72_12 H34_12 1_555 1_555
C74_12 C6_12 1_555 1_555
H35_12 C74_12 1_555 1_555
H36_12 C74_12 1_555 1_555
C75_12 C67_12 1_555 1_555
C76_12 O21_12 1_555 1_555
H37_12 C77_12 1_555 1_555
C78_12 C14_12 1_555 1_555
O43_12 Ba8_6 1_555 1_555
N3_12 C135_12 1_555 1_555
C91_12 C19_12 1_555 1_555
O44_12 Ba6_2 1_555 1_555
C95_12 H45_12 1_555 1_555
C96_12 C95_12 1_555 1_555
H46_12 C96_12 1_555 1_555
C97_12 C96_12 1_555 1_555
H47_12 C97_12 1_555 1_555
C98_12 C72_12 1_555 1_555
C99_12 C68_12 1_555 1_555
C100_12 C95_12 1_555 1_555
H48_12 C100_12 1_555 1_555
C101_12 H49_12 1_555 1_555
C102_12 C101_12 1_555 1_555
H50_12 C102_12 1_555 1_555
C103_12 C8_12 1_555 1_555
C104_12 C11_12 1_555 1_555
C105_12 C104_12 1_555 1_555
H51_12 C105_12 1_555 1_555
C106_12 C101_12 1_555 1_555
H52_12 C106_12 1_555 1_555
C119_12 C29_12 1_555 1_555
O45_12 Ba6_2 1_555 1_555
C135_12 O36_12 1_555 1_555
H73_12 C135_12 1_555 1_555
C139_12 H80_12 1_555 1_555
C140_12 C77_12 1_555 1_555
C141_12 C78_12 1_555 1_555
C142_12 C141_12 1_555 1_555
H81_12 C142_12 1_555 1_555
C143_12 C142_12 1_555 1_555
H82_12 C143_12 1_555 1_555
C144_12 C139_12 1_555 1_555
H83_12 C144_12 1_555 1_555
C145_10 N3_12 1_555 1_555
H84_10 C145_10 1_555 1_555
H85_12 C145_10 1_555 1_555
H86_10 C145_10 1_555 1_555
C147_12 N3_12 1_555 1_555
H90_12 C147_12 1_555 1_555
H91_12 C147_12 1_555 1_555
H92_10 C147_12 1_555 1_555
O49_12 Ba6_2 1_555 1_555
Ba8_6 O30_12 1_555 1_555
Ba8_6 O45_12 1_555 1_555
Ti4_12 O21_12 1_555 1_555
C10_12 C33_12 1_555 1_555
C13_12 C47_12 1_555 1_555
C20_12 C87_12 1_555 1_555
O33_12 C44_12 1_555 1_555
C33_12 C44_12 1_555 1_555
C35_12 C91_12 1_555 1_555
C41_12 C42_12 1_555 1_555
C42_12 C43_12 1_555 1_555
C43_12 C59_12 1_555 1_555
C48_12 C78_12 1_555 1_555
C52_12 C70_12 1_555 1_555
C54_12 C55_12 1_555 1_555
C57_12 C58_12 1_555 1_555
C62_12 C63_12 1_555 1_555
C63_12 C64_12 1_555 1_555
C65_12 C66_12 1_555 1_555
C68_12 C74_12 1_555 1_555
C72_12 C91_12 1_555 1_555
C75_12 C76_12 1_555 1_555
C75_12 C119_12 1_555 1_555
C97_12 C98_12 1_555 1_555
C98_12 C99_12 1_555 1_555
C99_12 C100_12 1_555 1_555
C102_12 C103_12 1_555 1_555
C103_12 C104_12 1_555 1_555
C105_12 C106_12 1_555 1_555
C139_12 C140_12 1_555 1_555
C140_12 C141_12 1_555 1_555
C143_12 C144_12 1_555 1_555
O44_12 H95_12 1_555 1_555
O44_12 H96_12 1_555 1_555
O43_12 H97_12 1_555 1_555
O43_12 H98_12 1_555 1_555
O49_12 H102_12 1_555 1_555
O49_12 H103_12 1_555 1_555
Ba5_5 O37_12 1_555 1_555
Ba7 O35_12 1_555 1_555
Ti1_12 O2_12 1_555 1_555
Ti3_12 O11_12 1_555 1_555
O2_12 C2_12 1_555 1_555
O3_12 Ti2_12 1_555 1_555
O4_12 Ti1_12 1_555 1_555
O6_12 Ti2_12 1_555 1_555
O51 Ti1_12 1_555 1_555
O52_8 Ti2_12 1_555 1_555
O11_12 C22_12 1_555 1_555
O12_12 Ti3_12 1_555 1_555
O53 Ti1_12 1_555 1_555
O54 Ti1_12 1_555 1_555
O18_12 Ti1_12 1_555 1_555
O55_8 Ti2_12 1_555 1_555
O20_12 Ti3_12 1_555 1_555
O56_8 Ti2_12 1_555 1_555
O24_12 C25_12 1_555 1_555
O25_12 Ti3_12 1_555 1_555
O57_5 Ti3_12 1_555 1_555
O27_12 C86_12 1_555 1_555
O28_12 C51_12 1_555 1_555
C1_12 H1_12 1_555 1_555
H2_12 C1_12 1_555 1_555
C2_12 C9_12 1_555 1_555
C3_12 O12_12 1_555 1_555
C4_12 C1_12 1_555 1_555
C5_12 H3_12 1_555 1_555
H4_12 C5_12 1_555 1_555
C7_12 O4_12 1_555 1_555
C9_12 C46_12 1_555 1_555
C12_12 C7_12 1_555 1_555
C17_12 C22_12 1_555 1_555
O59 C93_12 1_555 1_555
O32_12 C50_12 1_555 1_555
C18_12 C5_12 1_555 1_555
C22_12 O38_12 1_555 1_555
C23_12 C1_12 1_555 1_555
C25_12 O52_8 1_555 1_555
C26_12 O20_12 1_555 1_555
C27_12 C2_12 1_555 1_555
C30_12 C3_12 1_555 1_555
C32_12 C3_12 1_555 1_555
O34_12 C37_12 1_555 1_555
C34_12 C27_12 1_555 1_555
H10_12 C34_12 1_555 1_555
C36_12 O6_12 1_555 1_555
C37_12 O25_12 1_555 1_555
O35_12 C120_12 1_555 1_555
O37_12 C134_12 1_555 1_555
O38_12 Ba5_5 1_555 1_555
C46_12 C30_12 1_555 1_555
H16_12 C46_12 1_555 1_555
H17_12 C46_12 1_555 1_555
C49_12 O3_12 1_555 1_555
C50_12 O55_8 1_555 1_555
C51_12 O53 1_555 1_555
O40_12 Ba7 1_555 1_555
N1_12 C137_12 1_555 1_555
C60_12 H25_12 1_555 1_555
C71_12 C32_12 1_555 1_555
H33_12 C71_12 1_555 1_555
N2_12 C133_12 1_555 1_555
C73_12 C5_12 1_555 1_555
C79_12 C17_12 1_555 1_555
H38_12 C79_12 1_555 1_555
C80_12 H39_12 1_555 1_555
C81_12 C80_12 1_555 1_555
H40_12 C81_12 1_555 1_555
C82_12 C81_12 1_555 1_555
H41_12 C82_12 1_555 1_555
C83_12 C9_12 1_555 1_555
C84_12 C34_12 1_555 1_555
C85_12 C80_12 1_555 1_555
H42_12 C85_12 1_555 1_555
O42_12 Ba5_5 1_555 1_555
C86_12 O56_8 1_555 1_555
C88_12 C49_12 1_555 1_555
C89_12 C36_12 1_555 1_555
C90_12 C18_12 1_555 1_555
H43_12 C92_12 1_555 1_555
C93_12 O51 1_555 1_555
C94_12 C12_12 1_555 1_555
H44_12 C94_12 1_555 1_555
C107_12 H53_12 1_555 1_555
C108_12 C107_12 1_555 1_555
H54_12 C108_12 1_555 1_555
C109_12 C108_12 1_555 1_555
H55_12 C109_12 1_555 1_555
C110_12 C4_12 1_555 1_555
C111_12 C94_12 1_555 1_555
C112_12 C107_12 1_555 1_555
H56_12 C112_12 1_555 1_555
C113_12 H57_12 1_555 1_555
C114_12 C60_12 1_555 1_555
C115_12 C23_12 1_555 1_555
C116_12 C115_12 1_555 1_555
H58_12 C116_12 1_555 1_555
C117_12 C116_12 1_555 1_555
H59_12 C117_12 1_555 1_555
C118_12 C113_12 1_555 1_555
H60_12 C118_12 1_555 1_555
C120_12 O54 1_555 1_555
C121_12 H61_12 1_555 1_555
C122_12 C121_12 1_555 1_555
H62_12 C122_12 1_555 1_555
C123_12 C122_12 1_555 1_555
H63_12 C123_12 1_555 1_555
C124_12 C30_12 1_555 1_555
C125_12 C71_12 1_555 1_555
C126_12 C121_12 1_555 1_555
H64_12 C126_12 1_555 1_555
C127_12 H65_12 1_555 1_555
C128_12 C79_12 1_555 1_555
C129_12 C73_12 1_555 1_555
C130_12 C129_12 1_555 1_555
H66_12 C130_12 1_555 1_555
C131_12 C130_12 1_555 1_555
H67_12 C131_12 1_555 1_555
C132_12 C127_12 1_555 1_555
H68_12 C132_12 1_555 1_555
C133_12 H69_12 1_555 1_555
H70_12 C133_12 1_555 1_555
H71_12 C133_12 1_555 1_555
C134_12 N2_12 1_555 1_555
H72_12 C134_12 1_555 1_555
O46_12 Ba7 1_555 1_555
C136_12 N2_12 1_555 1_555
H74_12 C136_12 1_555 1_555
H75_12 C136_12 1_555 1_555
H76_12 C136_12 1_555 1_555
C137_12 O40_12 1_555 1_555
C138_12 N1_12 1_555 1_555
H77_12 C138_12 1_555 1_555
H78_12 C138_12 1_555 1_555
H79_12 C138_12 1_555 1_555
C146_12 N1_12 1_555 1_555
H87_12 C146_12 1_555 1_555
H88_12 C146_12 1_555 1_555
H89_12 C146_12 1_555 1_555
O47_12 Ba7 1_555 1_555
O48_12 Ba7 1_555 1_555
C4_12 C7_12 1_555 1_555
C12_12 C51_12 1_555 1_555
C17_12 C26_12 1_555 1_555
C18_12 C36_12 1_555 1_555
C21_12 C93_12 1_555 1_555
C23_12 C49_12 1_555 1_555
C26_12 C73_12 1_555 1_555
C27_12 C120_12 1_555 1_555
C32_12 C37_12 1_555 1_555
C50_12 C89_12 1_555 1_555
C60_12 C88_12 1_555 1_555
C82_12 C83_12 1_555 1_555
C83_12 C84_12 1_555 1_555
C84_12 C85_12 1_555 1_555
C86_12 C88_12 1_555 1_555
C90_12 C92_12 1_555 1_555
C109_12 C110_12 1_555 1_555
C110_12 C111_12 1_555 1_555
C111_12 C112_12 1_555 1_555
C113_12 C114_12 1_555 1_555
C114_12 C115_12 1_555 1_555
C117_12 C118_12 1_555 1_555
C123_12 C124_12 1_555 1_555
C124_12 C125_12 1_555 1_555
C125_12 C126_12 1_555 1_555
C127_12 C128_12 1_555 1_555
C128_12 C129_12 1_555 1_555
C131_12 C132_12 1_555 1_555
O42_12 H93_12 1_555 1_555
O42_12 H94_12 1_555 1_555
O46_12 H99_12 1_555 1_555
O46_12 H100_12 1_555 1_555
C137_12 H101_12 1_555 1_555
O47_12 H104_12 1_555 1_555
O47_12 H105_12 1_555 1_555
O48_12 H106_12 1_555 1_555
O48_12 H107_12 1_555 1_555
Ba5_7 O37_13 1_555 1_555
Ti3_13 O11_13 1_555 1_555
O11_13 C22_13 1_555 1_555
O12_13 Ti3_13 1_555 1_555
O15_13 Ti3_13 1_555 1_555
O20_13 Ti3_13 1_555 1_555
O25_13 Ti3_13 1_555 1_555
O57_7 Ti3_13 1_555 1_555
C2_13 C9_13 1_555 1_555
C3_13 O12_13 1_555 1_555
O58_7 C87_13 1_555 1_555
C5_13 H3_13 1_555 1_555
H4_13 C5_13 1_555 1_555
C8_13 H5_13 1_555 1_555
C9_13 C46_13 1_555 1_555
C10_13 O10_13 1_555 1_555
C11_13 C10_13 1_555 1_555
C13_13 C28_13 1_555 1_555
C17_13 C22_13 1_555 1_555
C18_13 C5_13 1_555 1_555
C20_13 C28_13 1_555 1_555
C22_13 O38_13 1_555 1_555
C24_13 H9_13 1_555 1_555
C26_13 O20_13 1_555 1_555
C27_13 C2_13 1_555 1_555
C28_13 O15_13 1_555 1_555
C30_13 C3_13 1_555 1_555
C32_13 C3_13 1_555 1_555
O34_13 C37_13 1_555 1_555
C33_13 C8_13 1_555 1_555
C34_13 C27_13 1_555 1_555
H10_13 C34_13 1_555 1_555
C35_13 O13_13 1_555 1_555
C37_13 O25_13 1_555 1_555
C38_13 H11_13 1_555 1_555
C39_13 C38_13 1_555 1_555
H12_13 C39_13 1_555 1_555
C40_13 C39_13 1_555 1_555
H13_13 C40_13 1_555 1_555
C41_13 C40_13 1_555 1_555
H14_13 C41_13 1_555 1_555
C42_13 C13_13 1_555 1_555
C43_13 C38_13 1_555 1_555
C44_13 O14_13 1_555 1_555
C45_13 C24_13 1_555 1_555
H15_13 C45_13 1_555 1_555
O37_13 C134_13 1_555 1_555
O38_13 Ba5_7 1_555 1_555
C46_13 C30_13 1_555 1_555
H16_13 C46_13 1_555 1_555
H17_13 C46_13 1_555 1_555
C47_13 C11_13 1_555 1_555
H18_13 C47_13 1_555 1_555
H19_13 C47_13 1_555 1_555
O39_13 C35_13 1_555 1_555
C52_13 C69_13 1_555 1_555
C59_13 C20_13 1_555 1_555
H24_13 C59_13 1_555 1_555
C69_13 H31_13 1_555 1_555
C70_13 C45_13 1_555 1_555
H32_13 C70_13 1_555 1_555
C71_13 C32_13 1_555 1_555
H33_13 C71_13 1_555 1_555
N2_13 C133_13 1_555 1_555
C73_13 C5_13 1_555 1_555
C79_13 C17_13 1_555 1_555
H38_13 C79_13 1_555 1_555
C80_13 H39_13 1_555 1_555
C81_13 C80_13 1_555 1_555
H40_13 C81_13 1_555 1_555
C82_13 C81_13 1_555 1_555
H41_13 C82_13 1_555 1_555
C83_13 C9_13 1_555 1_555
C84_13 C34_13 1_555 1_555
C85_13 C80_13 1_555 1_555
H42_13 C85_13 1_555 1_555
O42_13 Ba5_7 1_555 1_555
C87_13 O57_7 1_555 1_555
C90_13 C18_13 1_555 1_555
C92_13 C24_13 1_555 1_555
H43_13 C92_13 1_555 1_555
C101_13 H49_13 1_555 1_555
C102_13 C101_13 1_555 1_555
H50_13 C102_13 1_555 1_555
C103_13 C8_13 1_555 1_555
C104_13 C11_13 1_555 1_555
C105_13 C104_13 1_555 1_555
H51_13 C105_13 1_555 1_555
C106_13 C101_13 1_555 1_555
H52_13 C106_13 1_555 1_555
C121_13 H61_13 1_555 1_555
C122_13 C121_13 1_555 1_555
H62_13 C122_13 1_555 1_555
C123_13 C122_13 1_555 1_555
H63_13 C123_13 1_555 1_555
C124_13 C30_13 1_555 1_555
C125_13 C71_13 1_555 1_555
C126_13 C121_13 1_555 1_555
H64_13 C126_13 1_555 1_555
C127_13 H65_13 1_555 1_555
C128_13 C79_13 1_555 1_555
C129_13 C73_13 1_555 1_555
C130_13 C129_13 1_555 1_555
C132_13 C127_13 1_555 1_555
H68_13 C132_13 1_555 1_555
C133_13 H69_13 1_555 1_555
H70_13 C133_13 1_555 1_555
H71_13 C133_13 1_555 1_555
C134_13 N2_13 1_555 1_555
H72_13 C134_13 1_555 1_555
C136_13 N2_13 1_555 1_555
H74_13 C136_13 1_555 1_555
H75_13 C136_13 1_555 1_555
H76_13 C136_13 1_555 1_555
C139_13 H80_13 1_555 1_555
H82_13 C143_13 1_555 1_555
C144_13 C139_13 1_555 1_555
H83_13 C144_13 1_555 1_555
C10_13 C33_13 1_555 1_555
C13_13 C47_13 1_555 1_555
C17_13 C26_13 1_555 1_555
C20_13 C87_13 1_555 1_555
C26_13 C73_13 1_555 1_555
O33_13 C44_13 1_555 1_555
C32_13 C37_13 1_555 1_555
C33_13 C44_13 1_555 1_555
C41_13 C42_13 1_555 1_555
C42_13 C43_13 1_555 1_555
C43_13 C59_13 1_555 1_555
C52_13 C70_13 1_555 1_555
C52_13 C90_13 1_555 1_555
C82_13 C83_13 1_555 1_555
C83_13 C84_13 1_555 1_555
C84_13 C85_13 1_555 1_555
C90_13 C92_13 1_555 1_555
C102_13 C103_13 1_555 1_555
C103_13 C104_13 1_555 1_555
C105_13 C106_13 1_555 1_555
C123_13 C124_13 1_555 1_555
C124_13 C125_13 1_555 1_555
C125_13 C126_13 1_555 1_555
C127_13 C128_13 1_555 1_555
C128_13 C129_13 1_555 1_555
C143_13 C144_13 1_555 1_555
O42_13 H93_13 1_555 1_555
O42_13 H94_13 1_555 1_555
O43_13 H97_13 1_555 1_555
O43_13 H98_13 1_555 1_555
O46_13 H99_13 1_555 1_555
O46_13 H100_13 1_555 1_555
Ba6_3 O23_13 1_555 1_555
Ba7_3 O35_13 1_555 1_555
Ti1_13 O2_13 1_555 1_555
Ti2_13 O1_13 1_555 1_555
Ti4_13 O5_13 1_555 1_555
O1_13 C16_13 1_555 1_555
O3_13 Ti2_13 1_555 1_555
O4_13 Ti1_13 1_555 1_555
O5_13 C119_13 1_555 1_555
O6_13 Ti2_13 1_555 1_555
O51_3 Ti1_13 1_555 1_555
O52_9 Ti2_13 1_555 1_555
O9_13 Ti4_13 1_555 1_555
O53_3 Ti1_13 1_555 1_555
O54_3 Ti1_13 1_555 1_555
O18_13 Ti1_13 1_555 1_555
O55_9 Ti2_13 1_555 1_555
O21_13 Ba4_7 1_555 1_555
O56_9 Ti2_13 1_555 1_555
O23_13 C76_13 1_555 1_555
O24_13 C25_13 1_555 1_555
O27_13 C86_13 1_555 1_555
O28_13 C51_13 1_555 1_555
C1_13 H1_13 1_555 1_555
H2_13 C1_13 1_555 1_555
C4_13 C1_13 1_555 1_555
C6_13 C16_13 1_555 1_555
C7_13 O4_13 1_555 1_555
C12_13 C7_13 1_555 1_555
C14_13 H6_13 1_555 1_555
H7_13 C14_13 1_555 1_555
C15_13 H8_13 1_555 1_555
O30_13 Ba6_3 1_555 1_555
C16_13 C31_13 1_555 1_555
O59_3 C93_13 1_555 1_555
O32_13 C50_13 1_555 1_555
C19_13 O9_13 1_555 1_555
C21_13 C48_13 1_555 1_555
C23_13 C1_13 1_555 1_555
C25_13 O52_9 1_555 1_555
C29_13 C14_13 1_555 1_555
C31_13 C15_13 1_555 1_555
C36_13 O6_13 1_555 1_555
O35_13 C120_13 1_555 1_555
C48_13 O18_13 1_555 1_555
C49_13 O3_13 1_555 1_555
C50_13 O55_9 1_555 1_555
C51_13 O53_3 1_555 1_555
O40_13 Ba7_3 1_555 1_555
C53_13 H20_13 1_555 1_555
C54_13 C53_13 1_555 1_555
H21_13 C54_13 1_555 1_555
C55_13 C29_13 1_555 1_555
C56_13 C55_13 1_555 1_555
C57_13 C56_13 1_555 1_555
H22_13 C57_13 1_555 1_555
C58_13 C53_13 1_555 1_555
H23_13 C58_13 1_555 1_555
N1_13 C137_13 1_555 1_555
C60_13 H25_13 1_555 1_555
C61_13 H26_13 1_555 1_555
C62_13 C61_13 1_555 1_555
H27_13 C62_13 1_555 1_555
C63_13 C15_13 1_555 1_555
C64_13 C6_13 1_555 1_555
C65_13 C64_13 1_555 1_555
H28_13 C65_13 1_555 1_555
C66_13 C61_13 1_555 1_555
H29_13 C66_13 1_555 1_555
C67_13 C56_13 1_555 1_555
H30_13 C67_13 1_555 1_555
C68_13 C19_13 1_555 1_555
C74_13 C6_13 1_555 1_555
H35_13 C74_13 1_555 1_555
H36_13 C74_13 1_555 1_555
C75_13 C67_13 1_555 1_555
C76_13 O21_13 1_555 1_555
C77_13 C21_13 1_555 1_555
H37_13 C77_13 1_555 1_555
C78_13 C14_13 1_555 1_555
C86_13 O56_9 1_555 1_555
C88_13 C49_13 1_555 1_555
C89_13 C36_13 1_555 1_555
C91_13 C19_13 1_555 1_555
O44_13 Ba6_3 1_555 1_555
C93_13 O51_3 1_555 1_555
C94_13 C12_13 1_555 1_555
H44_13 C94_13 1_555 1_555
C95_13 H45_13 1_555 1_555
C96_13 C95_13 1_555 1_555
H46_13 C96_13 1_555 1_555
C97_13 C96_13 1_555 1_555
H47_13 C97_13 1_555 1_555
C98_13 C72_13 1_555 1_555
C99_13 C68_13 1_555 1_555
C100_13 C95_13 1_555 1_555
H48_13 C100_13 1_555 1_555
C107_13 H53_13 1_555 1_555
C108_13 C107_13 1_555 1_555
H54_13 C108_13 1_555 1_555
C109_13 C108_13 1_555 1_555
H55_13 C109_13 1_555 1_555
C110_13 C4_13 1_555 1_555
C111_13 C94_13 1_555 1_555
C112_13 C107_13 1_555 1_555
H56_13 C112_13 1_555 1_555
C113_13 H57_13 1_555 1_555
C114_13 C60_13 1_555 1_555
C115_13 C23_13 1_555 1_555
C116_13 C115_13 1_555 1_555
H58_13 C116_13 1_555 1_555
C117_13 C116_13 1_555 1_555
H59_13 C117_13 1_555 1_555
C118_13 C113_13 1_555 1_555
H60_13 C118_13 1_555 1_555
C119_13 C29_13 1_555 1_555
C120_13 O54_3 1_555 1_555
H67_13 C131_13 1_555 1_555
O45_13 Ba6_3 1_555 1_555
C137_13 O40_13 1_555 1_555
C138_13 N1_13 1_555 1_555
H77_13 C138_13 1_555 1_555
H78_13 C138_13 1_555 1_555
H79_13 C138_13 1_555 1_555
C140_13 C77_13 1_555 1_555
C141_13 C78_13 1_555 1_555
C142_13 C141_13 1_555 1_555
H81_13 C142_13 1_555 1_555
C146_13 N1_13 1_555 1_555
H87_13 C146_13 1_555 1_555
H88_13 C146_13 1_555 1_555
H89_13 C146_13 1_555 1_555
O47_13 Ba7_3 1_555 1_555
O48_13 Ba7_3 1_555 1_555
O49_13 Ba6_3 1_555 1_555
Ba4_7 O30_13 1_555 1_555
Ba4_7 O45_13 1_555 1_555
Ti4_13 O21_13 1_555 1_555
C4_13 C7_13 1_555 1_555
C12_13 C51_13 1_555 1_555
C21_13 C93_13 1_555 1_555
C23_13 C49_13 1_555 1_555
C25_13 C31_13 1_555 1_555
C48_13 C78_13 1_555 1_555
C50_13 C89_13 1_555 1_555
C54_13 C55_13 1_555 1_555
C57_13 C58_13 1_555 1_555
C60_13 C88_13 1_555 1_555
C62_13 C63_13 1_555 1_555
C63_13 C64_13 1_555 1_555
C65_13 C66_13 1_555 1_555
C68_13 C74_13 1_555 1_555
C72_13 C91_13 1_555 1_555
C75_13 C76_13 1_555 1_555
C75_13 C119_13 1_555 1_555
C86_13 C88_13 1_555 1_555
C97_13 C98_13 1_555 1_555
C98_13 C99_13 1_555 1_555
C99_13 C100_13 1_555 1_555
C109_13 C110_13 1_555 1_555
C110_13 C111_13 1_555 1_555
C111_13 C112_13 1_555 1_555
C113_13 C114_13 1_555 1_555
C114_13 C115_13 1_555 1_555
C117_13 C118_13 1_555 1_555
C140_13 C141_13 1_555 1_555
O44_13 H95_13 1_555 1_555
O44_13 H96_13 1_555 1_555
C137_13 H101_13 1_555 1_555
O49_13 H102_13 1_555 1_555
O49_13 H103_13 1_555 1_555
O47_13 H104_13 1_555 1_555
O47_13 H105_13 1_555 1_555
O48_13 H107_13 1_555 1_555
N3_13 C135_13 1_555 1_555
C135_13 O36_13 1_555 1_555
H73_13 C135_13 1_555 1_555
C145_11 N3_13 1_555 1_555
H84_11 C145_11 1_555 1_555
H85_13 C145_11 1_555 1_555
H86_11 C145_11 1_555 1_555
C147_13 N3_13 1_555 1_555
H90_13 C147_13 1_555 1_555
H91_13 C147_13 1_555 1_555
H92_11 C147_13 1_555 1_555
N3_14 C135_14 1_555 1_555
C135_14 O36_14 1_555 1_555
H73_14 C135_14 1_555 1_555
C145_12 N3_14 1_555 1_555
H84_12 C145_12 1_555 1_555
H85_14 C145_12 1_555 1_555
H86_12 C145_12 1_555 1_555
C147_14 N3_14 1_555 1_555
H90_14 C147_14 1_555 1_555
H91_14 C147_14 1_555 1_555
H92_12 C147_14 1_555 1_555
Ba2_10 O23_14 1_555 1_555
Ba3_10 O35_14 1_555 1_555
Ti1_14 O2_14 1_555 1_555
Ti2_14 O1_14 1_555 1_555
Ti4_14 O5_14 1_555 1_555
O1_14 C16_14 1_555 1_555
O3_14 Ti2_14 1_555 1_555
O4_14 Ti1_14 1_555 1_555
O5_14 C119_14 1_555 1_555
O6_14 Ti2_14 1_555 1_555
O7_10 Ti1_14 1_555 1_555
O52_7 Ti2_14 1_555 1_555
O9_14 Ti4_14 1_555 1_555
O16_10 Ti1_14 1_555 1_555
O17_10 Ti1_14 1_555 1_555
O18_14 Ti1_14 1_555 1_555
O55_7 Ti2_14 1_555 1_555
O21_14 Ba8_7 1_555 1_555
O56_7 Ti2_14 1_555 1_555
O23_14 C76_14 1_555 1_555
O24_14 C25_14 1_555 1_555
O27_14 C86_14 1_555 1_555
O28_14 C51_14 1_555 1_555
C1_14 H1_14 1_555 1_555
H2_14 C1_14 1_555 1_555
C4_14 C1_14 1_555 1_555
C6_14 C16_14 1_555 1_555
C7_14 O4_14 1_555 1_555
C12_14 C7_14 1_555 1_555
C14_14 H6_14 1_555 1_555
H7_14 C14_14 1_555 1_555
C15_14 H8_14 1_555 1_555
O30_14 Ba2_10 1_555 1_555
C16_14 C31_14 1_555 1_555
O31_10 C93_14 1_555 1_555
O32_14 C50_14 1_555 1_555
C19_14 O9_14 1_555 1_555
C21_14 C48_14 1_555 1_555
C23_14 C1_14 1_555 1_555
C25_14 O52_7 1_555 1_555
C29_14 C14_14 1_555 1_555
C31_14 C15_14 1_555 1_555
C36_14 O6_14 1_555 1_555
O35_14 C120_14 1_555 1_555
C48_14 O18_14 1_555 1_555
C49_14 O3_14 1_555 1_555
C50_14 O55_7 1_555 1_555
C51_14 O16_10 1_555 1_555
O40_14 Ba3_10 1_555 1_555
C53_14 H20_14 1_555 1_555
C54_14 C53_14 1_555 1_555
H21_14 C54_14 1_555 1_555
C55_14 C29_14 1_555 1_555
C56_14 C55_14 1_555 1_555
C57_14 C56_14 1_555 1_555
H22_14 C57_14 1_555 1_555
C58_14 C53_14 1_555 1_555
H23_14 C58_14 1_555 1_555
N1_14 C137_14 1_555 1_555
C60_14 H25_14 1_555 1_555
C61_14 H26_14 1_555 1_555
C62_14 C61_14 1_555 1_555
H27_14 C62_14 1_555 1_555
C63_14 C15_14 1_555 1_555
C64_14 C6_14 1_555 1_555
C65_14 C64_14 1_555 1_555
H28_14 C65_14 1_555 1_555
C66_14 C61_14 1_555 1_555
H29_14 C66_14 1_555 1_555
C67_14 C56_14 1_555 1_555
H30_14 C67_14 1_555 1_555
C68_14 C19_14 1_555 1_555
C74_14 C6_14 1_555 1_555
H35_14 C74_14 1_555 1_555
H36_14 C74_14 1_555 1_555
C75_14 C67_14 1_555 1_555
C76_14 O21_14 1_555 1_555
C77_14 C21_14 1_555 1_555
H37_14 C77_14 1_555 1_555
C78_14 C14_14 1_555 1_555
C86_14 O56_7 1_555 1_555
C88_14 C49_14 1_555 1_555
C89_14 C36_14 1_555 1_555
C91_14 C19_14 1_555 1_555
O44_14 Ba2_10 1_555 1_555
C93_14 O7_10 1_555 1_555
C94_14 C12_14 1_555 1_555
H44_14 C94_14 1_555 1_555
C95_14 H45_14 1_555 1_555
C96_14 C95_14 1_555 1_555
H46_14 C96_14 1_555 1_555
C97_14 C96_14 1_555 1_555
H47_14 C97_14 1_555 1_555
C98_14 C72_14 1_555 1_555
C99_14 C68_14 1_555 1_555
C100_14 C95_14 1_555 1_555
H48_14 C100_14 1_555 1_555
C107_14 H53_14 1_555 1_555
C108_14 C107_14 1_555 1_555
H54_14 C108_14 1_555 1_555
C109_14 C108_14 1_555 1_555
H55_14 C109_14 1_555 1_555
C110_14 C4_14 1_555 1_555
C111_14 C94_14 1_555 1_555
C112_14 C107_14 1_555 1_555
H56_14 C112_14 1_555 1_555
C113_14 H57_14 1_555 1_555
C114_14 C60_14 1_555 1_555
C115_14 C23_14 1_555 1_555
C116_14 C115_14 1_555 1_555
H58_14 C116_14 1_555 1_555
C117_14 C116_14 1_555 1_555
H59_14 C117_14 1_555 1_555
C118_14 C113_14 1_555 1_555
H60_14 C118_14 1_555 1_555
C119_14 C29_14 1_555 1_555
C120_14 O17_10 1_555 1_555
H67_14 C131_14 1_555 1_555
O45_14 Ba2_10 1_555 1_555
C137_14 O40_14 1_555 1_555
C138_14 N1_14 1_555 1_555
H77_14 C138_14 1_555 1_555
H78_14 C138_14 1_555 1_555
H79_14 C138_14 1_555 1_555
C140_14 C77_14 1_555 1_555
C141_14 C78_14 1_555 1_555
C142_14 C141_14 1_555 1_555
H81_14 C142_14 1_555 1_555
C146_14 N1_14 1_555 1_555
H87_14 C146_14 1_555 1_555
H88_14 C146_14 1_555 1_555
H89_14 C146_14 1_555 1_555
O47_14 Ba3_10 1_555 1_555
O48_14 Ba3_10 1_555 1_555
O49_14 Ba2_10 1_555 1_555
O50_10 Ba3_10 1_555 1_555
Ba5_10 O7_10 1_555 1_555
O52_10 Ba2_10 1_555 1_555
O55_10 Ba2_10 1_555 1_555
O56_10 Ba2_10 1_555 1_555
O57_10 Ba3_10 1_555 1_555
O58_10 Ba3_10 1_555 1_555
Ba8_7 O30_14 1_555 1_555
Ba8_7 O45_14 1_555 1_555
Ti4_14 O21_14 1_555 1_555
O16_10 Ba5_10 1_555 1_555
O17_10 Ba5_10 1_555 1_555
C4_14 C7_14 1_555 1_555
C12_14 C51_14 1_555 1_555
O31_10 Ba5_10 1_555 1_555
C21_14 C93_14 1_555 1_555
C23_14 C49_14 1_555 1_555
C25_14 C31_14 1_555 1_555
C48_14 C78_14 1_555 1_555
C50_14 C89_14 1_555 1_555
C54_14 C55_14 1_555 1_555
C57_14 C58_14 1_555 1_555
C60_14 C88_14 1_555 1_555
C62_14 C63_14 1_555 1_555
C63_14 C64_14 1_555 1_555
C65_14 C66_14 1_555 1_555
C68_14 C74_14 1_555 1_555
C72_14 C91_14 1_555 1_555
C75_14 C76_14 1_555 1_555
C75_14 C119_14 1_555 1_555
C86_14 C88_14 1_555 1_555
C97_14 C98_14 1_555 1_555
C98_14 C99_14 1_555 1_555
C99_14 C100_14 1_555 1_555
C109_14 C110_14 1_555 1_555
C110_14 C111_14 1_555 1_555
C111_14 C112_14 1_555 1_555
C113_14 C114_14 1_555 1_555
C114_14 C115_14 1_555 1_555
C117_14 C118_14 1_555 1_555
C140_14 C141_14 1_555 1_555
O50_10 Ba5_10 1_555 1_555
O44_14 H95_14 1_555 1_555
O44_14 H96_14 1_555 1_555
C137_14 H101_14 1_555 1_555
O49_14 H102_14 1_555 1_555
O49_14 H103_14 1_555 1_555
O47_14 H104_14 1_555 1_555
O47_14 H105_14 1_555 1_555
O48_14 H107_14 1_555 1_555
Ba5_9 O37_14 1_555 1_555
Ti3_14 O11_14 1_555 1_555
O11_14 C22_14 1_555 1_555
O12_14 Ti3_14 1_555 1_555
O15_14 Ti3_14 1_555 1_555
O20_14 Ti3_14 1_555 1_555
O25_14 Ti3_14 1_555 1_555
O57_9 Ti3_14 1_555 1_555
C2_14 C9_14 1_555 1_555
C3_14 O12_14 1_555 1_555
O58_9 C87_14 1_555 1_555
C5_14 H3_14 1_555 1_555
H4_14 C5_14 1_555 1_555
C8_14 H5_14 1_555 1_555
C9_14 C46_14 1_555 1_555
C10_14 O10_14 1_555 1_555
C11_14 C10_14 1_555 1_555
C13_14 C28_14 1_555 1_555
C17_14 C22_14 1_555 1_555
C18_14 C5_14 1_555 1_555
C20_14 C28_14 1_555 1_555
C22_14 O38_14 1_555 1_555
C24_14 H9_14 1_555 1_555
C26_14 O20_14 1_555 1_555
C27_14 C2_14 1_555 1_555
C28_14 O15_14 1_555 1_555
C30_14 C3_14 1_555 1_555
C32_14 C3_14 1_555 1_555
O34_14 C37_14 1_555 1_555
C33_14 C8_14 1_555 1_555
C34_14 C27_14 1_555 1_555
H10_14 C34_14 1_555 1_555
C35_14 O13_14 1_555 1_555
C37_14 O25_14 1_555 1_555
C38_14 H11_14 1_555 1_555
C39_14 C38_14 1_555 1_555
H12_14 C39_14 1_555 1_555
C40_14 C39_14 1_555 1_555
H13_14 C40_14 1_555 1_555
C41_14 C40_14 1_555 1_555
H14_14 C41_14 1_555 1_555
C42_14 C13_14 1_555 1_555
C43_14 C38_14 1_555 1_555
C44_14 O14_14 1_555 1_555
C45_14 C24_14 1_555 1_555
H15_14 C45_14 1_555 1_555
O37_14 C134_14 1_555 1_555
O38_14 Ba5_9 1_555 1_555
C46_14 C30_14 1_555 1_555
H16_14 C46_14 1_555 1_555
H17_14 C46_14 1_555 1_555
C47_14 C11_14 1_555 1_555
H18_14 C47_14 1_555 1_555
H19_14 C47_14 1_555 1_555
O39_14 C35_14 1_555 1_555
C52_14 C69_14 1_555 1_555
C59_14 C20_14 1_555 1_555
H24_14 C59_14 1_555 1_555
C69_14 H31_14 1_555 1_555
C70_14 C45_14 1_555 1_555
H32_14 C70_14 1_555 1_555
C71_14 C32_14 1_555 1_555
H33_14 C71_14 1_555 1_555
N2_14 C133_14 1_555 1_555
C73_14 C5_14 1_555 1_555
C79_14 C17_14 1_555 1_555
H38_14 C79_14 1_555 1_555
C80_14 H39_14 1_555 1_555
C81_14 C80_14 1_555 1_555
H40_14 C81_14 1_555 1_555
C82_14 C81_14 1_555 1_555
H41_14 C82_14 1_555 1_555
C83_14 C9_14 1_555 1_555
C84_14 C34_14 1_555 1_555
C85_14 C80_14 1_555 1_555
H42_14 C85_14 1_555 1_555
O42_14 Ba5_9 1_555 1_555
C87_14 O57_9 1_555 1_555
C90_14 C18_14 1_555 1_555
C92_14 C24_14 1_555 1_555
H43_14 C92_14 1_555 1_555
C101_14 H49_14 1_555 1_555
C102_14 C101_14 1_555 1_555
H50_14 C102_14 1_555 1_555
C103_14 C8_14 1_555 1_555
C104_14 C11_14 1_555 1_555
C105_14 C104_14 1_555 1_555
H51_14 C105_14 1_555 1_555
C106_14 C101_14 1_555 1_555
H52_14 C106_14 1_555 1_555
C121_14 H61_14 1_555 1_555
C122_14 C121_14 1_555 1_555
H62_14 C122_14 1_555 1_555
C123_14 C122_14 1_555 1_555
H63_14 C123_14 1_555 1_555
C124_14 C30_14 1_555 1_555
C125_14 C71_14 1_555 1_555
C126_14 C121_14 1_555 1_555
H64_14 C126_14 1_555 1_555
C127_14 H65_14 1_555 1_555
C128_14 C79_14 1_555 1_555
C129_14 C73_14 1_555 1_555
C130_14 C129_14 1_555 1_555
C132_14 C127_14 1_555 1_555
H68_14 C132_14 1_555 1_555
C133_14 H69_14 1_555 1_555
H70_14 C133_14 1_555 1_555
H71_14 C133_14 1_555 1_555
C134_14 N2_14 1_555 1_555
H72_14 C134_14 1_555 1_555
C136_14 N2_14 1_555 1_555
H74_14 C136_14 1_555 1_555
H75_14 C136_14 1_555 1_555
H76_14 C136_14 1_555 1_555
C139_14 H80_14 1_555 1_555
H82_14 C143_14 1_555 1_555
C144_14 C139_14 1_555 1_555
H83_14 C144_14 1_555 1_555
C10_14 C33_14 1_555 1_555
C13_14 C47_14 1_555 1_555
C17_14 C26_14 1_555 1_555
C20_14 C87_14 1_555 1_555
C26_14 C73_14 1_555 1_555
O33_14 C44_14 1_555 1_555
C32_14 C37_14 1_555 1_555
C33_14 C44_14 1_555 1_555
C41_14 C42_14 1_555 1_555
C42_14 C43_14 1_555 1_555
C43_14 C59_14 1_555 1_555
C52_14 C70_14 1_555 1_555
C52_14 C90_14 1_555 1_555
C82_14 C83_14 1_555 1_555
C83_14 C84_14 1_555 1_555
C84_14 C85_14 1_555 1_555
C90_14 C92_14 1_555 1_555
C102_14 C103_14 1_555 1_555
C103_14 C104_14 1_555 1_555
C105_14 C106_14 1_555 1_555
C123_14 C124_14 1_555 1_555
C124_14 C125_14 1_555 1_555
C125_14 C126_14 1_555 1_555
C127_14 C128_14 1_555 1_555
C128_14 C129_14 1_555 1_555
C143_14 C144_14 1_555 1_555
O42_14 H93_14 1_555 1_555
O42_14 H94_14 1_555 1_555
O43_14 H97_14 1_555 1_555
O43_14 H98_14 1_555 1_555
O46_14 H99_14 1_555 1_555
O46_14 H100_14 1_555 1_555
Ba5_10 O37_15 1_555 1_555
Ba6_6 O23_15 1_555 1_555
Ba7_6 O35_15 1_555 1_555
Ba4_8 O14_15 1_555 1_555
Ti1_15 O2_15 1_555 1_555
Ti2_15 O1_15 1_555 1_555
Ti3_15 O11_15 1_555 1_555
Ti4_15 O5_15 1_555 1_555
O1_15 C16_15 1_555 1_555
O2_15 C2_15 1_555 1_555
O3_15 Ti2_15 1_555 1_555
O4_15 Ti1_15 1_555 1_555
O5_15 C119_15 1_555 1_555
O6_15 Ti2_15 1_555 1_555
O51_6 Ti1_15 1_555 1_555
O52 Ti2_15 1_555 1_555
O9_15 Ti4_15 1_555 1_555
O10_15 Ti4_15 1_555 1_555
O11_15 C22_15 1_555 1_555
O12_15 Ti3_15 1_555 1_555
O13_15 Ti4_15 1_555 1_555
O14_15 Ti4_15 1_555 1_555
O15_15 Ti3_15 1_555 1_555
O53_6 Ti1_15 1_555 1_555
O54_6 Ti1_15 1_555 1_555
O18_15 Ti1_15 1_555 1_555
O55 Ti2_15 1_555 1_555
O20_15 Ti3_15 1_555 1_555
O21_15 Ba4_8 1_555 1_555
O56 Ti2_15 1_555 1_555
O23_15 C76_15 1_555 1_555
O24_15 C25_15 1_555 1_555
O25_15 Ti3_15 1_555 1_555
O57_10 Ti3_15 1_555 1_555
O27_15 C86_15 1_555 1_555
O28_15 C51_15 1_555 1_555
C1_15 H1_15 1_555 1_555
H2_15 C1_15 1_555 1_555
C2_15 C9_15 1_555 1_555
C3_15 O12_15 1_555 1_555
C4_15 C1_15 1_555 1_555
O58_10 C87_15 1_555 1_555
C5_15 H3_15 1_555 1_555
H4_15 C5_15 1_555 1_555
C6_15 C16_15 1_555 1_555
C7_15 O4_15 1_555 1_555
C8_15 H5_15 1_555 1_555
C9_15 C46_15 1_555 1_555
C10_15 O10_15 1_555 1_555
C11_15 C10_15 1_555 1_555
C12_15 C7_15 1_555 1_555
C13_15 C28_15 1_555 1_555
C14_15 H6_15 1_555 1_555
H7_15 C14_15 1_555 1_555
C15_15 H8_15 1_555 1_555
O30_15 Ba6_6 1_555 1_555
C16_15 C31_15 1_555 1_555
C17_15 C22_15 1_555 1_555
O59_6 C93_15 1_555 1_555
O32_15 C50_15 1_555 1_555
C18_15 C5_15 1_555 1_555
C19_15 O9_15 1_555 1_555
C20_15 C28_15 1_555 1_555
C21_15 C48_15 1_555 1_555
C22_15 O38_15 1_555 1_555
C23_15 C1_15 1_555 1_555
C24_15 H9_15 1_555 1_555
C25_15 O52 1_555 1_555
C26_15 O20_15 1_555 1_555
C27_15 C2_15 1_555 1_555
C28_15 O15_15 1_555 1_555
C29_15 C14_15 1_555 1_555
O33_15 Ba4_8 1_555 1_555
C30_15 C3_15 1_555 1_555
C31_15 C15_15 1_555 1_555
C32_15 C3_15 1_555 1_555
O34_15 C37_15 1_555 1_555
C33_15 C8_15 1_555 1_555
C34_15 C27_15 1_555 1_555
H10_15 C34_15 1_555 1_555
C35_15 O13_15 1_555 1_555
C36_15 O6_15 1_555 1_555
C37_15 O25_15 1_555 1_555
O35_15 C120_15 1_555 1_555
C38_15 H11_15 1_555 1_555
C39_15 C38_15 1_555 1_555
H12_15 C39_15 1_555 1_555
C40_15 C39_15 1_555 1_555
H13_15 C40_15 1_555 1_555
C41_15 C40_15 1_555 1_555
H14_15 C41_15 1_555 1_555
C42_15 C13_15 1_555 1_555
C43_15 C38_15 1_555 1_555
O36_15 Ba6_6 1_555 1_555
C44_15 O14_15 1_555 1_555
C45_15 C24_15 1_555 1_555
H15_15 C45_15 1_555 1_555
O37_15 C134_15 1_555 1_555
O38_15 Ba5_10 1_555 1_555
C46_15 C30_15 1_555 1_555
H16_15 C46_15 1_555 1_555
H17_15 C46_15 1_555 1_555
C47_15 C11_15 1_555 1_555
H18_15 C47_15 1_555 1_555
H19_15 C47_15 1_555 1_555
O39_15 C35_15 1_555 1_555
C48_15 O18_15 1_555 1_555
C49_15 O3_15 1_555 1_555
C50_15 O55 1_555 1_555
C51_15 O53_6 1_555 1_555
O40_15 Ba7_6 1_555 1_555
C52_15 C69_15 1_555 1_555
C53_15 H20_15 1_555 1_555
C54_15 C53_15 1_555 1_555
H21_15 C54_15 1_555 1_555
C55_15 C29_15 1_555 1_555
C56_15 C55_15 1_555 1_555
C57_15 C56_15 1_555 1_555
H22_15 C57_15 1_555 1_555
C58_15 C53_15 1_555 1_555
H23_15 C58_15 1_555 1_555
N1_15 C137_15 1_555 1_555
C59_15 C20_15 1_555 1_555
H24_15 C59_15 1_555 1_555
C60_15 H25_15 1_555 1_555
C61_15 H26_15 1_555 1_555
C62_15 C61_15 1_555 1_555
H27_15 C62_15 1_555 1_555
C63_15 C15_15 1_555 1_555
C64_15 C6_15 1_555 1_555
C65_15 C64_15 1_555 1_555
H28_15 C65_15 1_555 1_555
C66_15 C61_15 1_555 1_555
H29_15 C66_15 1_555 1_555
C67_15 C56_15 1_555 1_555
H30_15 C67_15 1_555 1_555
C68_15 C19_15 1_555 1_555
C69_15 H31_15 1_555 1_555
C70_15 C45_15 1_555 1_555
H32_15 C70_15 1_555 1_555
C71_15 C32_15 1_555 1_555
H33_15 C71_15 1_555 1_555
C72_15 H34_15 1_555 1_555
N2_15 C133_15 1_555 1_555
C73_15 C5_15 1_555 1_555
C74_15 C6_15 1_555 1_555
H35_15 C74_15 1_555 1_555
H36_15 C74_15 1_555 1_555
C75_15 C67_15 1_555 1_555
C76_15 O21_15 1_555 1_555
C77_15 C21_15 1_555 1_555
H37_15 C77_15 1_555 1_555
O41_8 Ba4_8 1_555 1_555
C78_15 C14_15 1_555 1_555
C79_15 C17_15 1_555 1_555
H38_15 C79_15 1_555 1_555
C80_15 H39_15 1_555 1_555
C81_15 C80_15 1_555 1_555
H40_15 C81_15 1_555 1_555
C82_15 C81_15 1_555 1_555
H41_15 C82_15 1_555 1_555
C83_15 C9_15 1_555 1_555
C84_15 C34_15 1_555 1_555
C85_15 C80_15 1_555 1_555
H42_15 C85_15 1_555 1_555
O42_15 Ba5_10 1_555 1_555
O43_15 Ba4_8 1_555 1_555
C86_15 O56 1_555 1_555
N3_15 C135_15 1_555 1_555
C87_15 O57_10 1_555 1_555
C88_15 C49_15 1_555 1_555
C89_15 C36_15 1_555 1_555
C90_15 C18_15 1_555 1_555
C91_15 C19_15 1_555 1_555
C92_15 C24_15 1_555 1_555
H43_15 C92_15 1_555 1_555
O44_15 Ba6_6 1_555 1_555
C93_15 O51_6 1_555 1_555
C94_15 C12_15 1_555 1_555
H44_15 C94_15 1_555 1_555
C95_15 H45_15 1_555 1_555
C96_15 C95_15 1_555 1_555
H46_15 C96_15 1_555 1_555
C97_15 C96_15 1_555 1_555
H47_15 C97_15 1_555 1_555
C98_15 C72_15 1_555 1_555
C99_15 C68_15 1_555 1_555
C100_15 C95_15 1_555 1_555
H48_15 C100_15 1_555 1_555
C101_15 H49_15 1_555 1_555
C102_15 C101_15 1_555 1_555
H50_15 C102_15 1_555 1_555
C103_15 C8_15 1_555 1_555
C104_15 C11_15 1_555 1_555
C105_15 C104_15 1_555 1_555
H51_15 C105_15 1_555 1_555
C106_15 C101_15 1_555 1_555
H52_15 C106_15 1_555 1_555
C107_15 H53_15 1_555 1_555
C108_15 C107_15 1_555 1_555
H54_15 C108_15 1_555 1_555
C109_15 C108_15 1_555 1_555
H55_15 C109_15 1_555 1_555
C110_15 C4_15 1_555 1_555
C111_15 C94_15 1_555 1_555
C112_15 C107_15 1_555 1_555
H56_15 C112_15 1_555 1_555
C113_15 H57_15 1_555 1_555
C114_15 C60_15 1_555 1_555
C115_15 C23_15 1_555 1_555
C116_15 C115_15 1_555 1_555
H58_15 C116_15 1_555 1_555
C117_15 C116_15 1_555 1_555
H59_15 C117_15 1_555 1_555
C118_15 C113_15 1_555 1_555
H60_15 C118_15 1_555 1_555
C119_15 C29_15 1_555 1_555
C120_15 O54_6 1_555 1_555
C121_15 H61_15 1_555 1_555
C122_15 C121_15 1_555 1_555
H62_15 C122_15 1_555 1_555
C123_15 C122_15 1_555 1_555
H63_15 C123_15 1_555 1_555
C124_15 C30_15 1_555 1_555
C125_15 C71_15 1_555 1_555
C126_15 C121_15 1_555 1_555
H64_15 C126_15 1_555 1_555
C127_15 H65_15 1_555 1_555
C128_15 C79_15 1_555 1_555
C129_15 C73_15 1_555 1_555
C130_15 C129_15 1_555 1_555
H66_15 C130_15 1_555 1_555
C131_15 C130_15 1_555 1_555
H67_15 C131_15 1_555 1_555
C132_15 C127_15 1_555 1_555
H68_15 C132_15 1_555 1_555
O45_15 Ba6_6 1_555 1_555
C133_15 H69_15 1_555 1_555
H70_15 C133_15 1_555 1_555
H71_15 C133_15 1_555 1_555
C134_15 N2_15 1_555 1_555
H72_15 C134_15 1_555 1_555
C135_15 O36_15 1_555 1_555
H73_15 C135_15 1_555 1_555
O46_15 Ba7_6 1_555 1_555
C136_15 N2_15 1_555 1_555
H74_15 C136_15 1_555 1_555
H75_15 C136_15 1_555 1_555
H76_15 C136_15 1_555 1_555
C137_15 O40_15 1_555 1_555
C138_15 N1_15 1_555 1_555
H77_15 C138_15 1_555 1_555
H78_15 C138_15 1_555 1_555
H79_15 C138_15 1_555 1_555
C139_15 H80_15 1_555 1_555
C140_15 C77_15 1_555 1_555
C141_15 C78_15 1_555 1_555
C142_15 C141_15 1_555 1_555
H81_15 C142_15 1_555 1_555
C143_15 C142_15 1_555 1_555
H82_15 C143_15 1_555 1_555
C144_15 C139_15 1_555 1_555
H83_15 C144_15 1_555 1_555
C145_13 N3_15 1_555 1_555
H84_13 C145_13 1_555 1_555
H85_15 C145_13 1_555 1_555
H86_13 C145_13 1_555 1_555
C146_15 N1_15 1_555 1_555
H87_15 C146_15 1_555 1_555
H88_15 C146_15 1_555 1_555
H89_15 C146_15 1_555 1_555
O47_15 Ba7_6 1_555 1_555
O48_15 Ba7_6 1_555 1_555
C147_15 N3_15 1_555 1_555
H90_15 C147_15 1_555 1_555
H91_15 C147_15 1_555 1_555
H92_13 C147_15 1_555 1_555
O49_15 Ba6_6 1_555 1_555
Ba8_8 O41_8 1_555 1_555
O60_8 Ba4_8 1_555 1_555
Ba4_8 O30_15 1_555 1_555
Ba4_8 O45_15 1_555 1_555
Ti4_15 O21_15 1_555 1_555
C4_15 C7_15 1_555 1_555
C10_15 C33_15 1_555 1_555
C12_15 C51_15 1_555 1_555
C13_15 C47_15 1_555 1_555
C17_15 C26_15 1_555 1_555
C18_15 C36_15 1_555 1_555
C20_15 C87_15 1_555 1_555
C21_15 C93_15 1_555 1_555
C23_15 C49_15 1_555 1_555
C25_15 C31_15 1_555 1_555
C26_15 C73_15 1_555 1_555
C27_15 C120_15 1_555 1_555
O33_15 C44_15 1_555 1_555
C32_15 C37_15 1_555 1_555
C33_15 C44_15 1_555 1_555
C35_15 C91_15 1_555 1_555
C41_15 C42_15 1_555 1_555
C42_15 C43_15 1_555 1_555
C43_15 C59_15 1_555 1_555
C48_15 C78_15 1_555 1_555
C50_15 C89_15 1_555 1_555
C52_15 C70_15 1_555 1_555
C52_15 C90_15 1_555 1_555
C54_15 C55_15 1_555 1_555
C57_15 C58_15 1_555 1_555
C60_15 C88_15 1_555 1_555
C62_15 C63_15 1_555 1_555
C63_15 C64_15 1_555 1_555
C65_15 C66_15 1_555 1_555
C68_15 C74_15 1_555 1_555
C69_15 C89_15 1_555 1_555
C72_15 C91_15 1_555 1_555
C75_15 C76_15 1_555 1_555
C75_15 C119_15 1_555 1_555
C82_15 C83_15 1_555 1_555
C83_15 C84_15 1_555 1_555
C84_15 C85_15 1_555 1_555
C86_15 C88_15 1_555 1_555
C90_15 C92_15 1_555 1_555
C97_15 C98_15 1_555 1_555
C98_15 C99_15 1_555 1_555
C99_15 C100_15 1_555 1_555
C102_15 C103_15 1_555 1_555
C103_15 C104_15 1_555 1_555
C105_15 C106_15 1_555 1_555
C109_15 C110_15 1_555 1_555
C110_15 C111_15 1_555 1_555
C111_15 C112_15 1_555 1_555
C113_15 C114_15 1_555 1_555
C114_15 C115_15 1_555 1_555
C117_15 C118_15 1_555 1_555
C123_15 C124_15 1_555 1_555
C124_15 C125_15 1_555 1_555
C125_15 C126_15 1_555 1_555
C127_15 C128_15 1_555 1_555
C128_15 C129_15 1_555 1_555
C131_15 C132_15 1_555 1_555
C139_15 C140_15 1_555 1_555
C140_15 C141_15 1_555 1_555
C143_15 C144_15 1_555 1_555
Ba8_8 O60_8 1_555 1_555
O42_15 H93_15 1_555 1_555
O42_15 H94_15 1_555 1_555
O44_15 H95_15 1_555 1_555
O44_15 H96_15 1_555 1_555
O43_15 H97_15 1_555 1_555
O43_15 H98_15 1_555 1_555
O46_15 H99_15 1_555 1_555
O46_15 H100_15 1_555 1_555
C137_15 H101_15 1_555 1_555
O49_15 H102_15 1_555 1_555
O49_15 H103_15 1_555 1_555
O47_15 H104_15 1_555 1_555
O47_15 H105_15 1_555 1_555
O48_15 H106_15 1_555 1_555
O48_15 H107_15 1_555 1_555
Ba6_4 O23_16 1_555 1_555
Ba8_8 O14_16 1_555 1_555
Ti4_16 O5_16 1_555 1_555
O1_16 C16_16 1_555 1_555
O5_16 C119_16 1_555 1_555
O9_16 Ti4_16 1_555 1_555
O10_16 Ti4_16 1_555 1_555
O13_16 Ti4_16 1_555 1_555
O14_16 Ti4_16 1_555 1_555
O21_16 Ba8_8 1_555 1_555
O23_16 C76_16 1_555 1_555
O58 C87_16 1_555 1_555
C6_16 C16_16 1_555 1_555
C8_16 H5_16 1_555 1_555
C10_16 O10_16 1_555 1_555
C11_16 C10_16 1_555 1_555
C13_16 C28_16 1_555 1_555
C14_16 H6_16 1_555 1_555
H7_16 C14_16 1_555 1_555
C15_16 H8_16 1_555 1_555
O30_16 Ba6_4 1_555 1_555
C16_16 C31_16 1_555 1_555
C19_16 O9_16 1_555 1_555
C20_16 C28_16 1_555 1_555
C24_16 H9_16 1_555 1_555
C28_16 O15_16 1_555 1_555
C29_16 C14_16 1_555 1_555
O33_16 Ba8_8 1_555 1_555
C31_16 C15_16 1_555 1_555
C33_16 C8_16 1_555 1_555
C35_16 O13_16 1_555 1_555
C38_16 H11_16 1_555 1_555
C39_16 C38_16 1_555 1_555
H12_16 C39_16 1_555 1_555
C40_16 C39_16 1_555 1_555
H13_16 C40_16 1_555 1_555
C41_16 C40_16 1_555 1_555
H14_16 C41_16 1_555 1_555
C42_16 C13_16 1_555 1_555
C43_16 C38_16 1_555 1_555
O36_16 Ba6_4 1_555 1_555
C44_16 O14_16 1_555 1_555
C45_16 C24_16 1_555 1_555
H15_16 C45_16 1_555 1_555
C47_16 C11_16 1_555 1_555
H18_16 C47_16 1_555 1_555
H19_16 C47_16 1_555 1_555
O39_16 C35_16 1_555 1_555
C52_16 C69_16 1_555 1_555
C53_16 H20_16 1_555 1_555
C54_16 C53_16 1_555 1_555
H21_16 C54_16 1_555 1_555
C55_16 C29_16 1_555 1_555
C56_16 C55_16 1_555 1_555
C57_16 C56_16 1_555 1_555
H22_16 C57_16 1_555 1_555
C58_16 C53_16 1_555 1_555
H23_16 C58_16 1_555 1_555
C59_16 C20_16 1_555 1_555
H24_16 C59_16 1_555 1_555
C61_16 H26_16 1_555 1_555
C62_16 C61_16 1_555 1_555
H27_16 C62_16 1_555 1_555
C63_16 C15_16 1_555 1_555
C64_16 C6_16 1_555 1_555
C65_16 C64_16 1_555 1_555
H28_16 C65_16 1_555 1_555
C66_16 C61_16 1_555 1_555
H29_16 C66_16 1_555 1_555
C67_16 C56_16 1_555 1_555
H30_16 C67_16 1_555 1_555
C68_16 C19_16 1_555 1_555
C69_16 H31_16 1_555 1_555
C70_16 C45_16 1_555 1_555
H32_16 C70_16 1_555 1_555
C72_16 H34_16 1_555 1_555
C74_16 C6_16 1_555 1_555
H35_16 C74_16 1_555 1_555
H36_16 C74_16 1_555 1_555
C75_16 C67_16 1_555 1_555
C76_16 O21_16 1_555 1_555
H37_16 C77_16 1_555 1_555
C78_16 C14_16 1_555 1_555
O43_16 Ba8_8 1_555 1_555
N3_16 C135_16 1_555 1_555
C91_16 C19_16 1_555 1_555
O44_16 Ba6_4 1_555 1_555
C95_16 H45_16 1_555 1_555
C96_16 C95_16 1_555 1_555
H46_16 C96_16 1_555 1_555
C97_16 C96_16 1_555 1_555
H47_16 C97_16 1_555 1_555
C98_16 C72_16 1_555 1_555
C99_16 C68_16 1_555 1_555
C100_16 C95_16 1_555 1_555
H48_16 C100_16 1_555 1_555
C101_16 H49_16 1_555 1_555
C102_16 C101_16 1_555 1_555
H50_16 C102_16 1_555 1_555
C103_16 C8_16 1_555 1_555
C104_16 C11_16 1_555 1_555
C105_16 C104_16 1_555 1_555
H51_16 C105_16 1_555 1_555
C106_16 C101_16 1_555 1_555
H52_16 C106_16 1_555 1_555
C119_16 C29_16 1_555 1_555
O45_16 Ba6_4 1_555 1_555
C135_16 O36_16 1_555 1_555
H73_16 C135_16 1_555 1_555
C139_16 H80_16 1_555 1_555
C140_16 C77_16 1_555 1_555
C141_16 C78_16 1_555 1_555
C142_16 C141_16 1_555 1_555
H81_16 C142_16 1_555 1_555
C143_16 C142_16 1_555 1_555
H82_16 C143_16 1_555 1_555
C144_16 C139_16 1_555 1_555
H83_16 C144_16 1_555 1_555
C145_14 N3_16 1_555 1_555
H84_14 C145_14 1_555 1_555
H85_16 C145_14 1_555 1_555
H86_14 C145_14 1_555 1_555
C147_16 N3_16 1_555 1_555
H90_16 C147_16 1_555 1_555
H91_16 C147_16 1_555 1_555
H92_14 C147_16 1_555 1_555
O49_16 Ba6_4 1_555 1_555
Ba8_8 O30_16 1_555 1_555
Ba8_8 O45_16 1_555 1_555
Ti4_16 O21_16 1_555 1_555
C10_16 C33_16 1_555 1_555
C13_16 C47_16 1_555 1_555
C20_16 C87_16 1_555 1_555
O33_16 C44_16 1_555 1_555
C33_16 C44_16 1_555 1_555
C35_16 C91_16 1_555 1_555
C41_16 C42_16 1_555 1_555
C42_16 C43_16 1_555 1_555
C43_16 C59_16 1_555 1_555
C48_16 C78_16 1_555 1_555
C52_16 C70_16 1_555 1_555
C54_16 C55_16 1_555 1_555
C57_16 C58_16 1_555 1_555
C62_16 C63_16 1_555 1_555
C63_16 C64_16 1_555 1_555
C65_16 C66_16 1_555 1_555
C68_16 C74_16 1_555 1_555
C72_16 C91_16 1_555 1_555
C75_16 C76_16 1_555 1_555
C75_16 C119_16 1_555 1_555
C97_16 C98_16 1_555 1_555
C98_16 C99_16 1_555 1_555
C99_16 C100_16 1_555 1_555
C102_16 C103_16 1_555 1_555
C103_16 C104_16 1_555 1_555
C105_16 C106_16 1_555 1_555
C139_16 C140_16 1_555 1_555
C140_16 C141_16 1_555 1_555
C143_16 C144_16 1_555 1_555
O44_16 H95_16 1_555 1_555
O44_16 H96_16 1_555 1_555
O43_16 H97_16 1_555 1_555
O43_16 H98_16 1_555 1_555
O49_16 H102_16 1_555 1_555
O49_16 H103_16 1_555 1_555
Ba5 O37_16 1_555 1_555
Ba7_4 O35_16 1_555 1_555
Ti1_16 O2_16 1_555 1_555
Ti3_16 O11_16 1_555 1_555
O2_16 C2_16 1_555 1_555
O3_16 Ti2_16 1_555 1_555
O4_16 Ti1_16 1_555 1_555
O6_16 Ti2_16 1_555 1_555
O51_4 Ti1_16 1_555 1_555
O52_10 Ti2_16 1_555 1_555
O11_16 C22_16 1_555 1_555
O12_16 Ti3_16 1_555 1_555
O53_4 Ti1_16 1_555 1_555
O54_4 Ti1_16 1_555 1_555
O18_16 Ti1_16 1_555 1_555
O55_10 Ti2_16 1_555 1_555
O20_16 Ti3_16 1_555 1_555
O56_10 Ti2_16 1_555 1_555
O24_16 C25_16 1_555 1_555
O25_16 Ti3_16 1_555 1_555
O57 Ti3_16 1_555 1_555
O27_16 C86_16 1_555 1_555
O28_16 C51_16 1_555 1_555
C1_16 H1_16 1_555 1_555
H2_16 C1_16 1_555 1_555
C2_16 C9_16 1_555 1_555
C3_16 O12_16 1_555 1_555
C4_16 C1_16 1_555 1_555
C5_16 H3_16 1_555 1_555
H4_16 C5_16 1_555 1_555
C7_16 O4_16 1_555 1_555
C9_16 C46_16 1_555 1_555
C12_16 C7_16 1_555 1_555
C17_16 C22_16 1_555 1_555
O59_4 C93_16 1_555 1_555
O32_16 C50_16 1_555 1_555
C18_16 C5_16 1_555 1_555
C22_16 O38_16 1_555 1_555
C23_16 C1_16 1_555 1_555
C25_16 O52_10 1_555 1_555
C26_16 O20_16 1_555 1_555
C27_16 C2_16 1_555 1_555
C30_16 C3_16 1_555 1_555
C32_16 C3_16 1_555 1_555
O34_16 C37_16 1_555 1_555
C34_16 C27_16 1_555 1_555
H10_16 C34_16 1_555 1_555
C36_16 O6_16 1_555 1_555
C37_16 O25_16 1_555 1_555
O35_16 C120_16 1_555 1_555
O37_16 C134_16 1_555 1_555
O38_16 Ba5 1_555 1_555
C46_16 C30_16 1_555 1_555
H16_16 C46_16 1_555 1_555
H17_16 C46_16 1_555 1_555
C49_16 O3_16 1_555 1_555
C50_16 O55_10 1_555 1_555
C51_16 O53_4 1_555 1_555
O40_16 Ba7_4 1_555 1_555
N1_16 C137_16 1_555 1_555
C60_16 H25_16 1_555 1_555
C71_16 C32_16 1_555 1_555
H33_16 C71_16 1_555 1_555
N2_16 C133_16 1_555 1_555
C73_16 C5_16 1_555 1_555
C79_16 C17_16 1_555 1_555
H38_16 C79_16 1_555 1_555
C80_16 H39_16 1_555 1_555
C81_16 C80_16 1_555 1_555
H40_16 C81_16 1_555 1_555
C82_16 C81_16 1_555 1_555
H41_16 C82_16 1_555 1_555
C83_16 C9_16 1_555 1_555
C84_16 C34_16 1_555 1_555
C85_16 C80_16 1_555 1_555
H42_16 C85_16 1_555 1_555
O42_16 Ba5 1_555 1_555
C86_16 O56_10 1_555 1_555
C88_16 C49_16 1_555 1_555
C89_16 C36_16 1_555 1_555
C90_16 C18_16 1_555 1_555
H43_16 C92_16 1_555 1_555
C93_16 O51_4 1_555 1_555
C94_16 C12_16 1_555 1_555
H44_16 C94_16 1_555 1_555
C107_16 H53_16 1_555 1_555
C108_16 C107_16 1_555 1_555
H54_16 C108_16 1_555 1_555
C109_16 C108_16 1_555 1_555
H55_16 C109_16 1_555 1_555
C110_16 C4_16 1_555 1_555
C111_16 C94_16 1_555 1_555
C112_16 C107_16 1_555 1_555
H56_16 C112_16 1_555 1_555
C113_16 H57_16 1_555 1_555
C114_16 C60_16 1_555 1_555
C115_16 C23_16 1_555 1_555
C116_16 C115_16 1_555 1_555
H58_16 C116_16 1_555 1_555
C117_16 C116_16 1_555 1_555
H59_16 C117_16 1_555 1_555
C118_16 C113_16 1_555 1_555
H60_16 C118_16 1_555 1_555
C120_16 O54_4 1_555 1_555
C121_16 H61_16 1_555 1_555
C122_16 C121_16 1_555 1_555
H62_16 C122_16 1_555 1_555
C123_16 C122_16 1_555 1_555
H63_16 C123_16 1_555 1_555
C124_16 C30_16 1_555 1_555
C125_16 C71_16 1_555 1_555
C126_16 C121_16 1_555 1_555
H64_16 C126_16 1_555 1_555
C127_16 H65_16 1_555 1_555
C128_16 C79_16 1_555 1_555
C129_16 C73_16 1_555 1_555
C130_16 C129_16 1_555 1_555
H66_16 C130_16 1_555 1_555
C131_16 C130_16 1_555 1_555
H67_16 C131_16 1_555 1_555
C132_16 C127_16 1_555 1_555
H68_16 C132_16 1_555 1_555
C133_16 H69_16 1_555 1_555
H70_16 C133_16 1_555 1_555
H71_16 C133_16 1_555 1_555
C134_16 N2_16 1_555 1_555
H72_16 C134_16 1_555 1_555
O46_16 Ba7_4 1_555 1_555
C136_16 N2_16 1_555 1_555
H74_16 C136_16 1_555 1_555
H75_16 C136_16 1_555 1_555
H76_16 C136_16 1_555 1_555
C137_16 O40_16 1_555 1_555
C138_16 N1_16 1_555 1_555
H77_16 C138_16 1_555 1_555
H78_16 C138_16 1_555 1_555
H79_16 C138_16 1_555 1_555
C146_16 N1_16 1_555 1_555
H87_16 C146_16 1_555 1_555
H88_16 C146_16 1_555 1_555
H89_16 C146_16 1_555 1_555
O47_16 Ba7_4 1_555 1_555
O48_16 Ba7_4 1_555 1_555
C4_16 C7_16 1_555 1_555
C12_16 C51_16 1_555 1_555
C17_16 C26_16 1_555 1_555
C18_16 C36_16 1_555 1_555
C21_16 C93_16 1_555 1_555
C23_16 C49_16 1_555 1_555
C26_16 C73_16 1_555 1_555
C27_16 C120_16 1_555 1_555
C32_16 C37_16 1_555 1_555
C50_16 C89_16 1_555 1_555
C60_16 C88_16 1_555 1_555
C82_16 C83_16 1_555 1_555
C83_16 C84_16 1_555 1_555
C84_16 C85_16 1_555 1_555
C86_16 C88_16 1_555 1_555
C90_16 C92_16 1_555 1_555
C109_16 C110_16 1_555 1_555
C110_16 C111_16 1_555 1_555
C111_16 C112_16 1_555 1_555
C113_16 C114_16 1_555 1_555
C114_16 C115_16 1_555 1_555
C117_16 C118_16 1_555 1_555
C123_16 C124_16 1_555 1_555
C124_16 C125_16 1_555 1_555
C125_16 C126_16 1_555 1_555
C127_16 C128_16 1_555 1_555
C128_16 C129_16 1_555 1_555
C131_16 C132_16 1_555 1_555
O42_16 H93_16 1_555 1_555
O42_16 H94_16 1_555 1_555
O46_16 H99_16 1_555 1_555
O46_16 H100_16 1_555 1_555
C137_16 H101_16 1_555 1_555
O47_16 H104_16 1_555 1_555
O47_16 H105_16 1_555 1_555
O48_16 H106_16 1_555 1_555
O48_16 H107_16 1_555 1_555
H84_15 C145_15 1_555 1_555
H86_15 C145_15 1_555 1_555
H84_16 C145_16 1_555 1_555
H86_16 C145_16 1_555 1_555

#END
