
###############################################################################
#
# This file contains modified crystal structure data generated from the
# MOF subset of the Cambridge Structural Database (CSD) v543 
# hosted by the Cambridge Crystallographic Data Centre (CCDC).
#
# This work is licensed under the Creative Commons
# Attribution-NonCommercial-ShareAlike 4.0 International License.
# To view a copy of this license, visit
# http://creativecommons.org/licenses/by-nc-sa/4.0/
# or send a letter to
# Creative Commons, PO Box 1866, Mountain View, CA 94042, USA.
#
# CIF created using the CSD Python API on 29 September 2022
# The structure has been converted into the P1 space group
# The structure has a 3D framework
# The original CSD entry LASGIZ is in the cubic crystal system
# The original CSD entry LASGIZ is in a Sohncke space group
# The framework has been calculated to contain at least 10.0% void space
# The void calculation uses a probe of radius 1.32A, grid spacing 0.4
# The framework is charged, counterions have been retained in the structure
# H atom positions have been added when not included in the experimental data
# Generated hydrogen atom positions removed from atoms on special positions
#
###############################################################################

data_LASGIZ
_chemical_formula_moiety         '(C552 H360 Ba4 O150 Ti16 22-)n'
_symmetry_cell_setting           triclinic
_symmetry_space_group_name_H-M   'P 1'
_symmetry_Int_Tables_number      1
_space_group_name_Hall           'P 1'
loop_
_symmetry_equiv_pos_site_id
_symmetry_equiv_pos_as_xyz
1 x,y,z
_cell_length_a                   26.0007(2)
_cell_length_b                   26.0007(2)
_cell_length_c                   26.0007(2)
_cell_angle_alpha                90
_cell_angle_beta                 90
_cell_angle_gamma                90
_cell_volume                     17577.4
loop_
_atom_site_label
_atom_site_type_symbol
_atom_site_fract_x
_atom_site_fract_y
_atom_site_fract_z
Ti2 Ti 0.45126(15) 0.51120(14) 0.27081(13)
O1 O 0.4788(5) 0.4715(5) 0.2182(5)
O2 O 0.2539(4) 0.5247(5) 0.0741(5)
O3 O 0.3887(5) 0.5180(5) 0.2421(4)
O4 O 0.4386(5) 0.4423(6) 0.3050(5)
O5 O 0.5546(6) 0.4444(6) 0.0205(6)
O7 O 0.1823(4) 0.4895(5) 0.0103(5)
O8 O 0.4408(6) 0.3613(6) 0.3227(5)
O9 O 0.4131(9) 0.5399(6) 0.3353(6)
O10 O 0.3591(7) 0.5775(6) 0.3881(6)
C1 C 0.2785(7) 0.4775(8) 0.1489(8)
C2 C 0.2473(7) 0.4870(8) 0.1041(8)
C3 C 0.3385(10) 0.5629(6) 0.3021(9)
C4 C 0.4674(10) 0.3845(9) 0.2402(9)
C5 C 0.4821(8) 0.4222(9) 0.2055(8)
C6 C 0.3696(9) 0.5594(8) 0.3419(10)
C7 C 0.3409(10) 0.5418(7) 0.2505(8)
C8 C 0.5948(9) 0.4421(8) 0.0567(9)
O12 O 0.1464(10) 0.4119(11) 0.0331(10)
C9 C 0.3154(8) 0.5215(8) 0.1623(7)
H1 H 0.351175 0.508595 0.160464
H2 H 0.311735 0.549041 0.136170
C10 C 0.2108(8) 0.4445(8) 0.0920(9)
C11 C 0.4691(11) 0.3319(11) 0.2221(10)
H3 H 0.460463 0.305425 0.245654
C12 C 0.3065(7) 0.5438(7) 0.2139(9)
C13 C 0.6429(10) 0.4345(11) 0.0399(12)
C14 C 0.4488(8) 0.3917(9) 0.2918(8)
C15 C 0.5209(8) 0.4504(7) 0.1200(6)
H4 H 0.500357 0.452944 0.088031
H5 H 0.517741 0.483540 0.138478
C16 C 0.4959(8) 0.2524(4) 0.1115(7)
H6 H 0.495219 0.217226 0.101777
C17 C 0.5120(7) 0.2895(6) 0.0764(5)
H7 H 0.522244 0.279598 0.042794
C18 C 0.5130(6) 0.3410(6) 0.0906(5)
H8 H 0.523955 0.366356 0.066660
C19 C 0.4979(6) 0.3555(4) 0.1398(5)
C20 C 0.4819(6) 0.3185(5) 0.1749(4)
C21 C 0.4809(7) 0.2669(5) 0.1607(6)
H9 H 0.469905 0.241614 0.184627
C22 C 0.2850(9) 0.5826(8) 0.3135(10)
H10 H 0.275727 0.590896 0.347807
C23 C 0.6787(11) 0.4241(11) 0.0850(13)
H11 H 0.712694 0.413564 0.076525
C24 C 0.2047(9) 0.4056(11) 0.1253(9)
H12 H 0.179314 0.380528 0.117451
C25 C 0.4982(7) 0.4069(8) 0.1542(8)
C26 C 0.1790(13) 0.4481(13) 0.0439(11)
C27 C 0.5760(9) 0.4419(7) 0.1061(10)
C28 C 0.1703(6) 0.6292(7) 0.2474(8)
H13 H 0.140712 0.649133 0.255275
C29 C 0.2060(8) 0.6180(8) 0.2856(6)
H14 H 0.200772 0.630279 0.319593
C30 C 0.2492(6) 0.5888(8) 0.2740(6)
C31 C 0.2568(6) 0.5708(7) 0.2243(7)
C32 C 0.2211(7) 0.5820(7) 0.1861(5)
H15 H 0.226332 0.569695 0.152039
C33 C 0.1779(6) 0.6112(7) 0.1976(7)
H16 H 0.153492 0.618840 0.171496
C35 C 0.6914(7) 0.4297(8) 0.2233(7)
H17 H 0.716723 0.426837 0.249467
C36 C 0.7052(4) 0.4236(7) 0.1720(8)
H18 H 0.739965 0.416578 0.163130
C37 C 0.6682(6) 0.4279(7) 0.1336(6)
C38 C 0.6174(5) 0.4382(8) 0.1466(6)
C39 C 0.6036(5) 0.4443(7) 0.1979(7)
H19 H 0.568837 0.451388 0.206736
C40 C 0.6406(8) 0.4401(8) 0.2362(5)
H20 H 0.631157 0.444243 0.271270
C41 C 0.2557(7) 0.3495(5) 0.2443(6)
H21 H 0.249696 0.321155 0.266617
C42 C 0.2966(6) 0.3826(6) 0.2537(5)
H22 H 0.318556 0.376942 0.282289
C43 C 0.3053(5) 0.4241(5) 0.2211(6)
H23 H 0.333293 0.446754 0.227438
C44 C 0.2732(6) 0.4324(5) 0.1792(5)
C45 C 0.2323(5) 0.3993(6) 0.1699(5)
C46 C 0.2235(6) 0.3578(6) 0.2025(7)
H24 H 0.195572 0.335181 0.196093
Ba1 Ba 0.40960(4) 0.40960(4) 0.40960(4)
O13 O 0.4047(6) 0.5065(5) 0.4550(5)
Ti3 Ti 0.27081(13) 0.45126(15) 0.51120(14)
O14 O 0.2182(5) 0.4788(5) 0.4715(5)
O15 O 0.0741(5) 0.2539(4) 0.5247(5)
O16 O 0.2421(4) 0.3887(5) 0.5180(5)
O17 O 0.3050(5) 0.4386(5) 0.4423(6)
O18 O 0.0205(6) 0.5546(6) 0.4444(6)
O20 O 0.0103(5) 0.1823(4) 0.4895(5)
O21 O 0.3227(5) 0.4408(6) 0.3613(6)
O22 O 0.3353(6) 0.4131(9) 0.5399(6)
O23 O 0.3881(6) 0.3591(7) 0.5775(6)
C47 C 0.1489(8) 0.2785(7) 0.4775(8)
C48 C 0.1041(8) 0.2473(7) 0.4870(8)
C49 C 0.3021(9) 0.3385(10) 0.5629(6)
C50 C 0.2402(9) 0.4674(10) 0.3845(9)
C51 C 0.2055(8) 0.4821(8) 0.4222(9)
C52 C 0.3419(10) 0.3696(9) 0.5594(8)
C53 C 0.2505(8) 0.3409(10) 0.5418(7)
C54 C 0.0567(9) 0.5948(9) 0.4421(8)
O25 O 0.0331(10) 0.1464(10) 0.4119(11)
C55 C 0.1623(7) 0.3154(8) 0.5215(8)
H25 H 0.160464 0.351175 0.508595
H26 H 0.136170 0.311735 0.549041
C56 C 0.0920(9) 0.2108(8) 0.4445(8)
C57 C 0.2221(10) 0.4691(11) 0.3319(11)
H27 H 0.245654 0.460463 0.305425
C58 C 0.2139(9) 0.3065(7) 0.5438(7)
C59 C 0.0399(12) 0.6429(10) 0.4345(11)
C60 C 0.2918(8) 0.4488(8) 0.3917(9)
C61 C 0.1200(6) 0.5209(8) 0.4504(7)
H28 H 0.088031 0.500357 0.452944
H29 H 0.138478 0.517741 0.483540
C62 C 0.1115(7) 0.4959(8) 0.2524(4)
H30 H 0.101777 0.495219 0.217226
C63 C 0.0764(5) 0.5120(7) 0.2895(6)
H31 H 0.042794 0.522244 0.279598
C64 C 0.0906(5) 0.5130(6) 0.3410(6)
H32 H 0.066660 0.523955 0.366356
C65 C 0.1398(5) 0.4979(6) 0.3555(4)
C66 C 0.1749(4) 0.4819(6) 0.3185(5)
C67 C 0.1607(6) 0.4809(7) 0.2669(5)
H33 H 0.184627 0.469905 0.241614
C68 C 0.3135(10) 0.2850(9) 0.5826(8)
H34 H 0.347807 0.275727 0.590896
C69 C 0.0850(13) 0.6787(11) 0.4241(11)
H35 H 0.076525 0.712694 0.413564
C70 C 0.1253(9) 0.2047(9) 0.4056(11)
H36 H 0.117451 0.179314 0.380528
C71 C 0.1542(8) 0.4982(7) 0.4069(8)
C72 C 0.0439(11) 0.1790(13) 0.4481(13)
C73 C 0.1061(10) 0.5760(9) 0.4419(7)
C74 C 0.2474(8) 0.1703(6) 0.6292(7)
H37 H 0.255275 0.140712 0.649133
C75 C 0.2856(6) 0.2060(8) 0.6180(8)
H38 H 0.319593 0.200772 0.630279
C76 C 0.2740(6) 0.2492(6) 0.5888(8)
C77 C 0.2243(7) 0.2568(6) 0.5708(7)
C78 C 0.1861(5) 0.2211(7) 0.5820(7)
H39 H 0.152039 0.226332 0.569695
C79 C 0.1976(7) 0.1779(6) 0.6112(7)
H40 H 0.171496 0.153492 0.618840
C81 C 0.2233(7) 0.6914(7) 0.4297(8)
H41 H 0.249467 0.716723 0.426837
C82 C 0.1720(8) 0.7052(4) 0.4236(7)
H42 H 0.163130 0.739965 0.416578
C83 C 0.1336(6) 0.6682(6) 0.4279(7)
C84 C 0.1466(6) 0.6174(5) 0.4382(8)
C85 C 0.1979(7) 0.6036(5) 0.4443(7)
H43 H 0.206736 0.568837 0.451388
C86 C 0.2362(5) 0.6406(8) 0.4401(8)
H44 H 0.271270 0.631157 0.444243
C87 C 0.2443(6) 0.2557(7) 0.3495(5)
H45 H 0.266617 0.249696 0.321155
C88 C 0.2537(5) 0.2966(6) 0.3826(6)
H46 H 0.282289 0.318556 0.376942
C89 C 0.2211(6) 0.3053(5) 0.4241(5)
H47 H 0.227438 0.333293 0.446754
C90 C 0.1792(5) 0.2732(6) 0.4324(5)
C91 C 0.1699(5) 0.2323(5) 0.3993(6)
C92 C 0.2025(7) 0.2235(6) 0.3578(6)
H48 H 0.196093 0.195572 0.335181
O26 O 0.4550(5) 0.4047(6) 0.5065(5)
Ti4 Ti 0.51120(14) 0.27081(13) 0.45126(15)
O27 O 0.4715(5) 0.2182(5) 0.4788(5)
O28 O 0.5247(5) 0.0741(5) 0.2539(4)
O29 O 0.5180(5) 0.2421(4) 0.3887(5)
O30 O 0.4423(6) 0.3050(5) 0.4386(5)
O31 O 0.4444(6) 0.0205(6) 0.5546(6)
O33 O 0.4895(5) 0.0103(5) 0.1823(4)
O34 O 0.3613(6) 0.3227(5) 0.4408(6)
O35 O 0.5399(6) 0.3353(6) 0.4131(9)
O36 O 0.5775(6) 0.3881(6) 0.3591(7)
C93 C 0.4775(8) 0.1489(8) 0.2785(7)
C94 C 0.4870(8) 0.1041(8) 0.2473(7)
C95 C 0.5629(6) 0.3021(9) 0.3385(10)
C96 C 0.3845(9) 0.2402(9) 0.4674(10)
C97 C 0.4222(9) 0.2055(8) 0.4821(8)
C98 C 0.5594(8) 0.3419(10) 0.3696(9)
C99 C 0.5418(7) 0.2505(8) 0.3409(10)
C100 C 0.4421(8) 0.0567(9) 0.5948(9)
O38 O 0.4119(11) 0.0331(10) 0.1464(10)
C101 C 0.5215(8) 0.1623(7) 0.3154(8)
H49 H 0.508595 0.160464 0.351175
H50 H 0.549041 0.136170 0.311735
C102 C 0.4445(8) 0.0920(9) 0.2108(8)
C103 C 0.3319(11) 0.2221(10) 0.4691(11)
H51 H 0.305425 0.245654 0.460463
C104 C 0.5438(7) 0.2139(9) 0.3065(7)
C105 C 0.4345(11) 0.0399(12) 0.6429(10)
C106 C 0.3917(9) 0.2918(8) 0.4488(8)
C107 C 0.4504(7) 0.1200(6) 0.5209(8)
H52 H 0.452944 0.088031 0.500357
H53 H 0.483540 0.138478 0.517741
C108 C 0.2524(4) 0.1115(7) 0.4959(8)
H54 H 0.217226 0.101777 0.495219
C109 C 0.2895(6) 0.0764(5) 0.5120(7)
H55 H 0.279598 0.042794 0.522244
C110 C 0.3410(6) 0.0906(5) 0.5130(6)
H56 H 0.366356 0.066660 0.523955
C111 C 0.3555(4) 0.1398(5) 0.4979(6)
C112 C 0.3185(5) 0.1749(4) 0.4819(6)
C113 C 0.2669(5) 0.1607(6) 0.4809(7)
H57 H 0.241614 0.184627 0.469905
C114 C 0.5826(8) 0.3135(10) 0.2850(9)
H58 H 0.590896 0.347807 0.275727
C115 C 0.4241(11) 0.0850(13) 0.6787(11)
H59 H 0.413564 0.076525 0.712694
C116 C 0.4056(11) 0.1253(9) 0.2047(9)
H60 H 0.380528 0.117451 0.179314
C117 C 0.4069(8) 0.1542(8) 0.4982(7)
C118 C 0.4481(13) 0.0439(11) 0.1790(13)
C119 C 0.4419(7) 0.1061(10) 0.5760(9)
C120 C 0.6292(7) 0.2474(8) 0.1703(6)
H61 H 0.649133 0.255275 0.140712
C121 C 0.6180(8) 0.2856(6) 0.2060(8)
H62 H 0.630279 0.319593 0.200772
C122 C 0.5888(8) 0.2740(6) 0.2492(6)
C123 C 0.5708(7) 0.2243(7) 0.2568(6)
C124 C 0.5820(7) 0.1861(5) 0.2211(7)
H63 H 0.569695 0.152039 0.226332
C125 C 0.6112(7) 0.1976(7) 0.1779(6)
H64 H 0.618840 0.171496 0.153492
C127 C 0.4297(8) 0.2233(7) 0.6914(7)
H65 H 0.426837 0.249467 0.716723
C128 C 0.4236(7) 0.1720(8) 0.7052(4)
H66 H 0.416578 0.163130 0.739965
C129 C 0.4279(7) 0.1336(6) 0.6682(6)
C130 C 0.4382(8) 0.1466(6) 0.6174(5)
C131 C 0.4443(7) 0.1979(7) 0.6036(5)
H67 H 0.451388 0.206736 0.568837
C132 C 0.4401(8) 0.2362(5) 0.6406(8)
H68 H 0.444243 0.271270 0.631157
C133 C 0.3495(5) 0.2443(6) 0.2557(7)
H69 H 0.321155 0.266617 0.249696
C134 C 0.3826(6) 0.2537(5) 0.2966(6)
H70 H 0.376942 0.282289 0.318556
C135 C 0.4241(5) 0.2211(6) 0.3053(5)
H71 H 0.446754 0.227438 0.333293
C136 C 0.4324(5) 0.1792(5) 0.2732(6)
C137 C 0.3993(6) 0.1699(5) 0.2323(5)
C138 C 0.3578(6) 0.2025(7) 0.2235(6)
H72 H 0.335181 0.196093 0.195572
O39 O 0.5065(5) 0.4550(5) 0.4047(6)
Ti7 Ti 0.54874(15) 0.01120(14) 0.22919(13)
Ti8 Ti 0.22919(13) 0.54874(15) 0.01120(14)
Ti9 Ti 0.01120(14) 0.22919(13) 0.54874(15)
O40 O 0.2461(4) 0.4753(5) 0.5741(5)
O41 O 0.5741(5) 0.2461(4) 0.4753(5)
O42 O 0.4753(5) 0.5741(5) 0.2461(4)
O47 O 0.3177(4) 0.5105(5) 0.5103(5)
O48 O 0.5103(5) 0.3177(4) 0.5105(5)
O49 O 0.5105(5) 0.5103(5) 0.3177(4)
Ti1 Ti 0.55039(13) 0.44961(13) 0.94961(13)
O6 O 0.6256(6) 0.4375(7) 0.9477(6)
O11 O 0.7044(7) 0.4248(9) 0.9755(7)
C34 C 0.6581(13) 0.4288(11) 0.9872(13)
O43 O 0.4795(6) 0.4454(6) 0.9444(6)
O44 O 0.5556(6) 0.5205(6) 0.9454(6)
O45 O 0.5523(6) 0.3744(6) 0.9375(7)
O46 O 0.5625(7) 0.4477(6) 0.8744(6)
O32 O 0.4375(7) 0.9477(6) 0.6256(6)
O37 O 0.4248(9) 0.9755(7) 0.7044(7)
C126 C 0.4288(11) 0.9872(13) 0.6581(13)
Ti6 Ti 0.44961(13) 0.94961(13) 0.55039(13)
O19 O 0.9477(6) 0.6256(6) 0.4375(7)
O24 O 0.9755(7) 0.7044(7) 0.4248(9)
C80 C 0.9872(13) 0.6581(13) 0.4288(11)
Ti5 Ti 0.94961(13) 0.55039(13) 0.44961(13)
O15_2 O 0.4259(5) 0.7461(4) 0.0247(5)
O16_2 O 0.2579(4) 0.6113(5) 0.0180(5)
O22_2 O 0.1647(6) 0.5869(9) 0.0399(6)
O23_2 O 0.1119(6) 0.6409(7) 0.0775(6)
C49_2 C 0.1979(9) 0.6615(10) 0.0629(6)
C52_2 C 0.1581(10) 0.6304(9) 0.0594(8)
C53_2 C 0.2495(8) 0.6591(10) 0.0418(7)
C55_2 C 0.3377(7) 0.6846(8) 0.0215(8)
H25_2 H 0.339536 0.648825 0.008595
H26_2 H 0.363830 0.688265 0.049041
C58_2 C 0.2861(9) 0.6935(7) 0.0438(7)
C68_2 C 0.1865(10) 0.7150(9) 0.0826(8)
H34_2 H 0.152193 0.724273 0.090896
C74_2 C 0.2526(8) 0.8297(6) 0.1292(7)
H37_2 H 0.244725 0.859288 0.149133
C75_2 C 0.2144(6) 0.7940(8) 0.1180(8)
H38_2 H 0.180407 0.799228 0.130279
C76_2 C 0.2260(6) 0.7508(6) 0.0888(8)
C77_2 C 0.2757(7) 0.7432(6) 0.0708(7)
C78_2 C 0.3139(5) 0.7789(7) 0.0820(7)
H39_2 H 0.347961 0.773668 0.069695
C79_2 C 0.3024(7) 0.8221(6) 0.1112(7)
H40_2 H 0.328504 0.846508 0.118840
O26_2 O 0.0450(5) 0.5953(6) 0.0065(5)
O31_2 O 0.0556(6) 0.9795(6) 0.0546(6)
C100_2 C 0.0579(8) 0.9433(9) 0.0948(9)
C105_2 C 0.0655(11) 0.9601(12) 0.1429(10)
C107_2 C 0.0496(7) 0.8800(6) 0.0209(8)
H52_2 H 0.047056 0.911969 0.000357
H53_2 H 0.016460 0.861522 0.017741
C109_2 C 0.2105(6) 0.9236(5) 0.0120(7)
H55_2 H 0.220402 0.957206 0.022244
C110_2 C 0.1590(6) 0.9094(5) 0.0130(6)
H56_2 H 0.133644 0.933340 0.023955
C115_2 C 0.0759(11) 0.9150(13) 0.1787(11)
H59_2 H 0.086436 0.923475 0.212694
C119_2 C 0.0581(7) 0.8939(10) 0.0760(9)
C127_2 C 0.0703(8) 0.7767(7) 0.1914(7)
H65_2 H 0.073163 0.750533 0.216723
C128_2 C 0.0764(7) 0.8280(8) 0.2052(4)
H66_2 H 0.083422 0.836870 0.239965
C129_2 C 0.0721(7) 0.8664(6) 0.1682(6)
C130_2 C 0.0618(8) 0.8534(6) 0.1174(5)
C131_2 C 0.0557(7) 0.8021(7) 0.1036(5)
H67_2 H 0.048612 0.793264 0.068837
C132_2 C 0.0599(8) 0.7638(5) 0.1406(8)
H68_2 H 0.055757 0.728730 0.131157
Ti9_2 Ti 0.48880(14) 0.77081(13) 0.04874(15)
Ti2_2 Ti 0.04874(15) 0.48880(14) 0.77081(13)
O1_2 O 0.0212(5) 0.5285(5) 0.7182(5)
O3_2 O 0.1113(5) 0.4820(5) 0.7421(4)
O4_2 O 0.0614(5) 0.5577(6) 0.8050(5)
O8_2 O 0.0592(6) 0.6387(6) 0.8227(5)
O9_2 O 0.0869(9) 0.4601(6) 0.8353(6)
O10_2 O 0.1409(7) 0.4225(6) 0.8881(6)
C1_2 C 0.2215(7) 0.5225(8) 0.6489(8)
C2_2 C 0.2527(7) 0.5130(8) 0.6041(8)
C3_2 C 0.1615(10) 0.4371(6) 0.8021(9)
C4_2 C 0.0326(10) 0.6155(9) 0.7402(9)
C5_2 C 0.0179(8) 0.5778(9) 0.7055(8)
C6_2 C 0.1304(9) 0.4406(8) 0.8419(10)
C7_2 C 0.1591(10) 0.4582(7) 0.7505(8)
O12_2 O 0.3536(10) 0.5881(11) 0.5331(10)
C9_2 C 0.1846(8) 0.4785(8) 0.6623(7)
H1_2 H 0.148825 0.491405 0.660464
H2_2 H 0.188265 0.450959 0.636170
C10_2 C 0.2892(8) 0.5555(8) 0.5920(9)
C11_2 C 0.0309(11) 0.6681(11) 0.7221(10)
H3_2 H 0.039537 0.694575 0.745654
C12_2 C 0.1935(7) 0.4562(7) 0.7139(9)
C14_2 C 0.0512(8) 0.6083(9) 0.7918(8)
C16_2 C 0.0041(8) 0.7476(4) 0.6115(7)
H6_2 H 0.004781 0.782774 0.601777
C19_2 C 0.0021(6) 0.6445(4) 0.6398(5)
C20_2 C 0.0181(6) 0.6815(5) 0.6749(4)
C21_2 C 0.0191(7) 0.7331(5) 0.6607(6)
H9_2 H 0.030095 0.758386 0.684627
C22_2 C 0.2150(9) 0.4174(8) 0.8135(10)
H10_2 H 0.224273 0.409104 0.847807
C24_2 C 0.2953(9) 0.5944(11) 0.6253(9)
H12_2 H 0.320686 0.619472 0.617451
C25_2 C 0.0018(7) 0.5931(8) 0.6542(8)
C26_2 C 0.3210(13) 0.5519(13) 0.5439(11)
C28_2 C 0.3297(6) 0.3708(7) 0.7474(8)
H13_2 H 0.359288 0.350867 0.755275
C29_2 C 0.2940(8) 0.3820(8) 0.7856(6)
H14_2 H 0.299228 0.369721 0.819593
C30_2 C 0.2508(6) 0.4112(8) 0.7740(6)
C31_2 C 0.2432(6) 0.4292(7) 0.7243(7)
C32_2 C 0.2789(7) 0.4180(7) 0.6861(5)
H15_2 H 0.273668 0.430305 0.652039
C33_2 C 0.3221(6) 0.3888(7) 0.6976(7)
H16_2 H 0.346508 0.381160 0.671496
C41_2 C 0.2443(7) 0.6505(5) 0.7443(6)
H21_2 H 0.250304 0.678845 0.766617
C42_2 C 0.2034(6) 0.6174(6) 0.7537(5)
H22_2 H 0.181444 0.623058 0.782289
C43_2 C 0.1947(5) 0.5759(5) 0.7211(6)
H23_2 H 0.166707 0.553246 0.727438
C44_2 C 0.2268(6) 0.5676(5) 0.6792(5)
C45_2 C 0.2677(5) 0.6007(6) 0.6699(5)
C46_2 C 0.2765(6) 0.6422(6) 0.7025(7)
H24_2 H 0.304428 0.664819 0.696093
Ba1_2 Ba 0.09040(4) 0.59040(4) 0.90960(4)
O13_2 O 0.0953(6) 0.4935(5) 0.9550(5)
O14_2 O 0.2818(5) 0.5212(5) 0.9715(5)
O17_2 O 0.1950(5) 0.5614(5) 0.9423(6)
O20_2 O 0.4897(5) 0.8177(4) 0.9895(5)
O21_2 O 0.1773(5) 0.5592(6) 0.8613(6)
C47_2 C 0.3511(8) 0.7215(7) 0.9775(8)
C48_2 C 0.3959(8) 0.7527(7) 0.9870(8)
C50_2 C 0.2598(9) 0.5326(10) 0.8845(9)
C51_2 C 0.2945(8) 0.5179(8) 0.9222(9)
C54_2 C 0.4433(9) 0.4052(9) 0.9421(8)
O24_2 O 0.5245(7) 0.2956(7) 0.9248(9)
O25_2 O 0.4669(10) 0.8536(10) 0.9119(11)
C56_2 C 0.4080(9) 0.7892(8) 0.9445(8)
C57_2 C 0.2779(10) 0.5309(11) 0.8319(11)
H27_2 H 0.254346 0.539537 0.805425
C59_2 C 0.4601(12) 0.3571(10) 0.9345(11)
C60_2 C 0.2082(8) 0.5512(8) 0.8917(9)
C61_2 C 0.3800(6) 0.4791(8) 0.9504(7)
H28_2 H 0.411969 0.499643 0.952944
H29_2 H 0.361522 0.482259 0.983540
C62_2 C 0.3885(7) 0.5041(8) 0.7524(4)
H30_2 H 0.398223 0.504781 0.717226
C63_2 C 0.4236(5) 0.4880(7) 0.7895(6)
H31_2 H 0.457206 0.477756 0.779598
C64_2 C 0.4094(5) 0.4870(6) 0.8410(6)
H32_2 H 0.433340 0.476045 0.866356
C65_2 C 0.3602(5) 0.5021(6) 0.8555(4)
C66_2 C 0.3251(4) 0.5181(6) 0.8185(5)
C67_2 C 0.3393(6) 0.5191(7) 0.7669(5)
H33_2 H 0.315373 0.530095 0.741614
C69_2 C 0.4150(13) 0.3213(11) 0.9241(11)
H35_2 H 0.423475 0.287306 0.913564
C70_2 C 0.3747(9) 0.7953(9) 0.9056(11)
H36_2 H 0.382549 0.820686 0.880528
C71_2 C 0.3458(8) 0.5018(7) 0.9069(8)
C72_2 C 0.4561(11) 0.8210(13) 0.9481(13)
C73_2 C 0.3939(10) 0.4240(9) 0.9419(7)
C80_2 C 0.5128(13) 0.3419(13) 0.9288(11)
C81_2 C 0.2767(7) 0.3086(7) 0.9297(8)
H41_2 H 0.250533 0.283277 0.926837
C82_2 C 0.3280(8) 0.2948(4) 0.9236(7)
H42_2 H 0.336870 0.260035 0.916578
C83_2 C 0.3664(6) 0.3318(6) 0.9279(7)
C84_2 C 0.3534(6) 0.3826(5) 0.9382(8)
C85_2 C 0.3021(7) 0.3964(5) 0.9443(7)
H43_2 H 0.293264 0.431163 0.951388
C86_2 C 0.2638(5) 0.3594(8) 0.9401(8)
H44_2 H 0.228730 0.368843 0.944243
C87_2 C 0.2557(6) 0.7443(7) 0.8495(5)
H45_2 H 0.233383 0.750304 0.821155
C88_2 C 0.2463(5) 0.7034(6) 0.8826(6)
H46_2 H 0.217711 0.681444 0.876942
C89_2 C 0.2789(6) 0.6947(5) 0.9241(5)
H47_2 H 0.272562 0.666707 0.946754
C90_2 C 0.3208(5) 0.7268(6) 0.9324(5)
C91_2 C 0.3301(5) 0.7677(5) 0.8993(6)
C92_2 C 0.2975(7) 0.7765(6) 0.8578(6)
H48_2 H 0.303907 0.804428 0.835181
O27_2 O 0.0285(5) 0.7818(5) 0.9788(5)
O30_2 O 0.0577(6) 0.6950(5) 0.9386(5)
O33_2 O 0.0105(5) 0.9897(5) 0.6823(4)
O34_2 O 0.1387(6) 0.6773(5) 0.9408(6)
C93_2 C 0.0225(8) 0.8511(8) 0.7785(7)
C94_2 C 0.0130(8) 0.8959(8) 0.7473(7)
C96_2 C 0.1155(9) 0.7598(9) 0.9674(10)
C97_2 C 0.0778(9) 0.7945(8) 0.9821(8)
O38_2 O 0.0881(11) 0.9669(10) 0.6464(10)
C102_2 C 0.0555(8) 0.9080(9) 0.7108(8)
C103_2 C 0.1681(11) 0.7779(10) 0.9691(11)
H51_2 H 0.194575 0.754346 0.960463
C106_2 C 0.1083(9) 0.7082(8) 0.9488(8)
C108_2 C 0.2476(4) 0.8885(7) 0.9959(8)
H54_2 H 0.282774 0.898223 0.995219
C111_2 C 0.1445(4) 0.8602(5) 0.9979(6)
C112_2 C 0.1815(5) 0.8251(4) 0.9819(6)
C113_2 C 0.2331(5) 0.8393(6) 0.9809(7)
H57_2 H 0.258386 0.815373 0.969905
C116_2 C 0.0944(11) 0.8747(9) 0.7047(9)
H60_2 H 0.119472 0.882549 0.679314
C117_2 C 0.0931(8) 0.8458(8) 0.9982(7)
C118_2 C 0.0519(13) 0.9561(11) 0.6790(13)
C133_2 C 0.1505(5) 0.7557(6) 0.7557(7)
H69_2 H 0.178845 0.733383 0.749696
C134_2 C 0.1174(6) 0.7463(5) 0.7966(6)
H70_2 H 0.123058 0.717711 0.818556
C135_2 C 0.0759(5) 0.7789(6) 0.8053(5)
H71_2 H 0.053246 0.772562 0.833293
C136_2 C 0.0676(5) 0.8208(5) 0.7732(6)
C137_2 C 0.1007(6) 0.8301(5) 0.7323(5)
C138_2 C 0.1422(6) 0.7975(7) 0.7235(6)
H72_2 H 0.164819 0.803907 0.695572
O42_2 O 0.0247(5) 0.4259(5) 0.7461(4)
O48_2 O 0.9897(5) 0.6823(4) 0.0105(5)
O5_2 O 0.9454(6) 0.5556(6) 0.5205(6)
O6_2 O 0.8744(6) 0.5625(7) 0.4477(6)
C8_2 C 0.9052(9) 0.5579(8) 0.5567(9)
O11_2 O 0.7956(7) 0.5752(9) 0.4755(7)
C13_2 C 0.8571(10) 0.5655(11) 0.5399(12)
C15_2 C 0.9791(8) 0.5496(7) 0.6200(6)
H4_2 H 0.999643 0.547056 0.588031
H5_2 H 0.982259 0.516460 0.638478
C17_2 C 0.9880(7) 0.7105(6) 0.5764(5)
H7_2 H 0.977756 0.720402 0.542794
C18_2 C 0.9870(6) 0.6590(6) 0.5906(5)
H8_2 H 0.976045 0.633644 0.566660
C23_2 C 0.8213(11) 0.5759(11) 0.5850(13)
H11_2 H 0.787306 0.586436 0.576525
C27_2 C 0.9240(9) 0.5581(7) 0.6061(10)
C34_2 C 0.8419(13) 0.5712(11) 0.4872(13)
C35_2 C 0.8086(7) 0.5703(8) 0.7233(7)
H17_2 H 0.783277 0.573163 0.749467
C36_2 C 0.7948(4) 0.5764(7) 0.6720(8)
H18_2 H 0.760035 0.583422 0.663130
C37_2 C 0.8318(6) 0.5721(7) 0.6336(6)
C38_2 C 0.8826(5) 0.5618(8) 0.6466(6)
C39_2 C 0.8964(5) 0.5557(7) 0.6979(7)
H19_2 H 0.931163 0.548612 0.706736
C40_2 C 0.8594(8) 0.5599(8) 0.7362(5)
H20_2 H 0.868843 0.555757 0.771270
Ti4_2 Ti 0.98880(14) 0.72919(13) 0.95126(15)
O28_2 O 0.9753(5) 0.9259(5) 0.7539(4)
O29_2 O 0.9820(5) 0.7579(4) 0.8887(5)
O35_2 O 0.9601(6) 0.6647(6) 0.9131(9)
O36_2 O 0.9225(6) 0.6119(6) 0.8591(7)
C95_2 C 0.9371(6) 0.6979(9) 0.8385(10)
C98_2 C 0.9406(8) 0.6581(10) 0.8696(9)
C99_2 C 0.9582(7) 0.7495(8) 0.8409(10)
C101_2 C 0.9785(8) 0.8377(7) 0.8154(8)
H49_2 H 0.991405 0.839536 0.851175
H50_2 H 0.950959 0.863830 0.811735
C104_2 C 0.9562(7) 0.7861(9) 0.8065(7)
C114_2 C 0.9174(8) 0.6865(10) 0.7850(9)
H58_2 H 0.909104 0.652193 0.775727
C120_2 C 0.8708(7) 0.7526(8) 0.6703(6)
H61_2 H 0.850867 0.744725 0.640712
C121_2 C 0.8820(8) 0.7144(6) 0.7060(8)
H62_2 H 0.869721 0.680407 0.700772
C122_2 C 0.9112(8) 0.7260(6) 0.7492(6)
C123_2 C 0.9292(7) 0.7757(7) 0.7568(6)
C124_2 C 0.9180(7) 0.8139(5) 0.7211(7)
H63_2 H 0.930305 0.847961 0.726332
C125_2 C 0.8888(7) 0.8024(7) 0.6779(6)
H64_2 H 0.881160 0.828504 0.653492
O39_2 O 0.9935(5) 0.5450(5) 0.9047(6)
Ti7_2 Ti 0.95126(15) 0.98880(14) 0.72919(13)
O41_2 O 0.9259(5) 0.7539(4) 0.9753(5)
O44_2 O 0.9444(6) 0.4795(6) 0.4454(6)
O46_2 O 0.9375(7) 0.5523(6) 0.3744(6)
O49_2 O 0.9895(5) 0.4897(5) 0.8177(4)
O2_2 O 0.7461(4) 0.0247(5) 0.4259(5)
O3_3 O 0.6113(5) 0.0180(5) 0.2579(4)
O9_3 O 0.5869(9) 0.0399(6) 0.1647(6)
O10_3 O 0.6409(7) 0.0775(6) 0.1119(6)
C3_3 C 0.6615(10) 0.0629(6) 0.1979(9)
C6_3 C 0.6304(9) 0.0594(8) 0.1581(10)
C7_3 C 0.6591(10) 0.0418(7) 0.2495(8)
C9_3 C 0.6846(8) 0.0215(8) 0.3377(7)
H1_3 H 0.648825 0.008595 0.339536
H2_3 H 0.688265 0.049041 0.363830
C12_3 C 0.6935(7) 0.0438(7) 0.2861(9)
C22_3 C 0.7150(9) 0.0826(8) 0.1865(10)
H10_3 H 0.724273 0.090896 0.152193
C28_3 C 0.8297(6) 0.1292(7) 0.2526(8)
H13_3 H 0.859288 0.149133 0.244725
C29_3 C 0.7940(8) 0.1180(8) 0.2144(6)
H14_3 H 0.799228 0.130279 0.180407
C30_3 C 0.7508(6) 0.0888(8) 0.2260(6)
C31_3 C 0.7432(6) 0.0708(7) 0.2757(7)
C32_3 C 0.7789(7) 0.0820(7) 0.3139(5)
H15_3 H 0.773668 0.069695 0.347961
C33_3 C 0.8221(6) 0.1112(7) 0.3024(7)
H16_3 H 0.846508 0.118840 0.328504
O13_3 O 0.5953(6) 0.0065(5) 0.0450(5)
O18_2 O 0.9795(6) 0.0546(6) 0.0556(6)
C54_3 C 0.9433(9) 0.0948(9) 0.0579(8)
C59_3 C 0.9601(12) 0.1429(10) 0.0655(11)
C61_3 C 0.8800(6) 0.0209(8) 0.0496(7)
H28_3 H 0.911969 0.000357 0.047056
H29_3 H 0.861522 0.017741 0.016460
C63_3 C 0.9236(5) 0.0120(7) 0.2105(6)
H31_3 H 0.957206 0.022244 0.220402
C64_3 C 0.9094(5) 0.0130(6) 0.1590(6)
H32_3 H 0.933340 0.023955 0.133644
C69_3 C 0.9150(13) 0.1787(11) 0.0759(11)
H35_3 H 0.923475 0.212694 0.086436
C73_3 C 0.8939(10) 0.0760(9) 0.0581(7)
C81_3 C 0.7767(7) 0.1914(7) 0.0703(8)
H41_3 H 0.750533 0.216723 0.073163
C82_3 C 0.8280(8) 0.2052(4) 0.0764(7)
H42_3 H 0.836870 0.239965 0.083422
C83_3 C 0.8664(6) 0.1682(6) 0.0721(7)
C84_3 C 0.8534(6) 0.1174(5) 0.0618(8)
C85_3 C 0.8021(7) 0.1036(5) 0.0557(7)
H43_3 H 0.793264 0.068837 0.048612
C86_3 C 0.7638(5) 0.1406(8) 0.0599(8)
H44_3 H 0.728730 0.131157 0.055757
Ti8_2 Ti 0.77081(13) 0.04874(15) 0.48880(14)
O47_2 O 0.6823(4) 0.0105(5) 0.9897(5)
O1_3 O 0.5212(5) 0.9715(5) 0.2818(5)
O4_3 O 0.5614(5) 0.9423(6) 0.1950(5)
O5_3 O 0.4454(6) 0.9444(6) 0.4795(6)
O6_3 O 0.3744(6) 0.9375(7) 0.5523(6)
O7_2 O 0.8177(4) 0.9895(5) 0.4897(5)
O8_3 O 0.5592(6) 0.8613(6) 0.1773(5)
C1_3 C 0.7215(7) 0.9775(8) 0.3511(8)
C2_3 C 0.7527(7) 0.9870(8) 0.3959(8)
C4_3 C 0.5326(10) 0.8845(9) 0.2598(9)
C5_3 C 0.5179(8) 0.9222(9) 0.2945(8)
C8_3 C 0.4052(9) 0.9421(8) 0.4433(9)
O11_3 O 0.2956(7) 0.9248(9) 0.5245(7)
O12_3 O 0.8536(10) 0.9119(11) 0.4669(10)
C10_3 C 0.7892(8) 0.9445(8) 0.4080(9)
C11_3 C 0.5309(11) 0.8319(11) 0.2779(10)
H3_3 H 0.539537 0.805425 0.254346
C13_3 C 0.3571(10) 0.9345(11) 0.4601(12)
C14_3 C 0.5512(8) 0.8917(9) 0.2082(8)
C15_3 C 0.4791(8) 0.9504(7) 0.3800(6)
H4_3 H 0.499643 0.952944 0.411969
H5_3 H 0.482259 0.983540 0.361522
C16_3 C 0.5041(8) 0.7524(4) 0.3885(7)
H6_3 H 0.504781 0.717226 0.398223
C17_3 C 0.4880(7) 0.7895(6) 0.4236(5)
H7_3 H 0.477756 0.779598 0.457206
C18_3 C 0.4870(6) 0.8410(6) 0.4094(5)
H8_3 H 0.476045 0.866356 0.433340
C19_3 C 0.5021(6) 0.8555(4) 0.3602(5)
C20_3 C 0.5181(6) 0.8185(5) 0.3251(4)
C21_3 C 0.5191(7) 0.7669(5) 0.3393(6)
H9_3 H 0.530095 0.741614 0.315373
C23_3 C 0.3213(11) 0.9241(11) 0.4150(13)
H11_3 H 0.287306 0.913564 0.423475
C24_3 C 0.7953(9) 0.9056(11) 0.3747(9)
H12_3 H 0.820686 0.880528 0.382549
C25_3 C 0.5018(7) 0.9069(8) 0.3458(8)
C26_3 C 0.8210(13) 0.9481(13) 0.4561(11)
C27_3 C 0.4240(9) 0.9419(7) 0.3939(10)
C34_3 C 0.3419(13) 0.9288(11) 0.5128(13)
C35_3 C 0.3086(7) 0.9297(8) 0.2767(7)
H17_3 H 0.283277 0.926837 0.250533
C36_3 C 0.2948(4) 0.9236(7) 0.3280(8)
H18_3 H 0.260035 0.916578 0.336870
C37_3 C 0.3318(6) 0.9279(7) 0.3664(6)
C38_3 C 0.3826(5) 0.9382(8) 0.3534(6)
C39_3 C 0.3964(5) 0.9443(7) 0.3021(7)
H19_3 H 0.431163 0.951388 0.293264
C40_3 C 0.3594(8) 0.9401(8) 0.2638(5)
H20_3 H 0.368843 0.944243 0.228730
C41_3 C 0.7443(7) 0.8495(5) 0.2557(6)
H21_3 H 0.750304 0.821155 0.233383
C42_3 C 0.7034(6) 0.8826(6) 0.2463(5)
H22_3 H 0.681444 0.876942 0.217711
C43_3 C 0.6947(5) 0.9241(5) 0.2789(6)
H23_3 H 0.666707 0.946754 0.272562
C44_3 C 0.7268(6) 0.9324(5) 0.3208(5)
C45_3 C 0.7677(5) 0.8993(6) 0.3301(5)
C46_3 C 0.7765(6) 0.8578(6) 0.2975(7)
H24_3 H 0.804428 0.835181 0.303907
Ba1_3 Ba 0.59040(4) 0.90960(4) 0.09040(4)
O14_3 O 0.7818(5) 0.9788(5) 0.0285(5)
O17_3 O 0.6950(5) 0.9386(5) 0.0577(6)
O21_3 O 0.6773(5) 0.9408(6) 0.1387(6)
C47_3 C 0.8511(8) 0.7785(7) 0.0225(8)
C48_3 C 0.8959(8) 0.7473(7) 0.0130(8)
C50_3 C 0.7598(9) 0.9674(10) 0.1155(9)
C51_3 C 0.7945(8) 0.9821(8) 0.0778(9)
O25_3 O 0.9669(10) 0.6464(10) 0.0881(11)
C56_3 C 0.9080(9) 0.7108(8) 0.0555(8)
C57_3 C 0.7779(10) 0.9691(11) 0.1681(11)
H27_3 H 0.754346 0.960463 0.194575
C60_3 C 0.7082(8) 0.9488(8) 0.1083(9)
C62_3 C 0.8885(7) 0.9959(8) 0.2476(4)
H30_3 H 0.898223 0.995219 0.282774
C65_3 C 0.8602(5) 0.9979(6) 0.1445(4)
C66_3 C 0.8251(4) 0.9819(6) 0.1815(5)
C67_3 C 0.8393(6) 0.9809(7) 0.2331(5)
H33_3 H 0.815373 0.969905 0.258386
C70_3 C 0.8747(9) 0.7047(9) 0.0944(11)
H36_3 H 0.882549 0.679314 0.119472
C71_3 C 0.8458(8) 0.9982(7) 0.0931(8)
C72_3 C 0.9561(11) 0.6790(13) 0.0519(13)
C87_3 C 0.7557(6) 0.7557(7) 0.1505(5)
H45_3 H 0.733383 0.749696 0.178845
C88_3 C 0.7463(5) 0.7966(6) 0.1174(6)
H46_3 H 0.717711 0.818556 0.123058
C89_3 C 0.7789(6) 0.8053(5) 0.0759(5)
H47_3 H 0.772562 0.833293 0.053246
C90_3 C 0.8208(5) 0.7732(6) 0.0676(5)
C91_3 C 0.8301(5) 0.7323(5) 0.1007(6)
C92_3 C 0.7975(7) 0.7235(6) 0.1422(6)
H48_3 H 0.803907 0.695572 0.164819
O27_3 O 0.5285(5) 0.7182(5) 0.0212(5)
O29_3 O 0.4820(5) 0.7421(4) 0.1113(5)
O30_3 O 0.5577(6) 0.8050(5) 0.0614(5)
O34_3 O 0.6387(6) 0.8227(5) 0.0592(6)
O35_3 O 0.4601(6) 0.8353(6) 0.0869(9)
O36_3 O 0.4225(6) 0.8881(6) 0.1409(7)
C93_3 C 0.5225(8) 0.6489(8) 0.2215(7)
C94_3 C 0.5130(8) 0.6041(8) 0.2527(7)
C95_3 C 0.4371(6) 0.8021(9) 0.1615(10)
C96_3 C 0.6155(9) 0.7402(9) 0.0326(10)
C97_3 C 0.5778(9) 0.7055(8) 0.0179(8)
C98_3 C 0.4406(8) 0.8419(10) 0.1304(9)
C99_3 C 0.4582(7) 0.7505(8) 0.1591(10)
O38_3 O 0.5881(11) 0.5331(10) 0.3536(10)
C101_3 C 0.4785(8) 0.6623(7) 0.1846(8)
H49_3 H 0.491405 0.660464 0.148825
H50_3 H 0.450959 0.636170 0.188265
C102_3 C 0.5555(8) 0.5920(9) 0.2892(8)
C103_3 C 0.6681(11) 0.7221(10) 0.0309(11)
H51_3 H 0.694575 0.745654 0.039537
C104_3 C 0.4562(7) 0.7139(9) 0.1935(7)
C106_3 C 0.6083(9) 0.7918(8) 0.0512(8)
C108_3 C 0.7476(4) 0.6115(7) 0.0041(8)
H54_3 H 0.782774 0.601777 0.004781
C111_3 C 0.6445(4) 0.6398(5) 0.0021(6)
C112_3 C 0.6815(5) 0.6749(4) 0.0181(6)
C113_3 C 0.7331(5) 0.6607(6) 0.0191(7)
H57_3 H 0.758386 0.684627 0.030095
C114_3 C 0.4174(8) 0.8135(10) 0.2150(9)
H58_3 H 0.409104 0.847807 0.224273
C116_3 C 0.5944(11) 0.6253(9) 0.2953(9)
H60_3 H 0.619472 0.617451 0.320686
C117_3 C 0.5931(8) 0.6542(8) 0.0018(7)
C118_3 C 0.5519(13) 0.5439(11) 0.3210(13)
C120_3 C 0.3708(7) 0.7474(8) 0.3297(6)
H61_3 H 0.350867 0.755275 0.359288
C121_3 C 0.3820(8) 0.7856(6) 0.2940(8)
H62_3 H 0.369721 0.819593 0.299228
C122_3 C 0.4112(8) 0.7740(6) 0.2508(6)
C123_3 C 0.4292(7) 0.7243(7) 0.2432(6)
C124_3 C 0.4180(7) 0.6861(5) 0.2789(7)
H63_3 H 0.430305 0.652039 0.273668
C125_3 C 0.3888(7) 0.6976(7) 0.3221(6)
H64_3 H 0.381160 0.671496 0.346508
C133_3 C 0.6505(5) 0.7443(6) 0.2443(7)
H69_3 H 0.678845 0.766617 0.250304
C134_3 C 0.6174(6) 0.7537(5) 0.2034(6)
H70_3 H 0.623058 0.782289 0.181444
C135_3 C 0.5759(5) 0.7211(6) 0.1947(5)
H71_3 H 0.553246 0.727438 0.166707
C136_3 C 0.5676(5) 0.6792(5) 0.2268(6)
C137_3 C 0.6007(6) 0.6699(5) 0.2677(5)
C138_3 C 0.6422(6) 0.7025(7) 0.2765(6)
H72_3 H 0.664819 0.696093 0.304428
O39_3 O 0.4935(5) 0.9550(5) 0.0953(6)
O43_2 O 0.5205(6) 0.9454(6) 0.5556(6)
O45_2 O 0.4477(6) 0.8744(6) 0.5625(7)
Ti3_2 Ti 0.72919(13) 0.95126(15) 0.98880(14)
O16_3 O 0.7579(4) 0.8887(5) 0.9820(5)
O22_3 O 0.6647(6) 0.9131(9) 0.9601(6)
O23_3 O 0.6119(6) 0.8591(7) 0.9225(6)
C49_3 C 0.6979(9) 0.8385(10) 0.9371(6)
C52_3 C 0.6581(10) 0.8696(9) 0.9406(8)
C53_3 C 0.7495(8) 0.8409(10) 0.9582(7)
C55_3 C 0.8377(7) 0.8154(8) 0.9785(8)
H25_3 H 0.839536 0.851175 0.991405
H26_3 H 0.863830 0.811735 0.950959
C58_3 C 0.7861(9) 0.8065(7) 0.9562(7)
C68_3 C 0.6865(10) 0.7850(9) 0.9174(8)
H34_3 H 0.652193 0.775727 0.909104
C74_3 C 0.7526(8) 0.6703(6) 0.8708(7)
H37_3 H 0.744725 0.640712 0.850867
C75_3 C 0.7144(6) 0.7060(8) 0.8820(8)
H38_3 H 0.680407 0.700772 0.869721
C76_3 C 0.7260(6) 0.7492(6) 0.9112(8)
C77_3 C 0.7757(7) 0.7568(6) 0.9292(7)
C78_3 C 0.8139(5) 0.7211(7) 0.9180(7)
H39_3 H 0.847961 0.726332 0.930305
C79_3 C 0.8024(7) 0.6779(6) 0.8888(7)
H40_3 H 0.828504 0.653492 0.881160
O26_3 O 0.5450(5) 0.9047(6) 0.9935(5)
C100_3 C 0.5579(8) 0.5567(9) 0.9052(9)
O37_2 O 0.5752(9) 0.4755(7) 0.7956(7)
C105_3 C 0.5655(11) 0.5399(12) 0.8571(10)
C107_3 C 0.5496(7) 0.6200(6) 0.9791(8)
H52_3 H 0.547056 0.588031 0.999643
H53_3 H 0.516460 0.638478 0.982259
C109_3 C 0.7105(6) 0.5764(5) 0.9880(7)
H55_3 H 0.720402 0.542794 0.977756
C110_3 C 0.6590(6) 0.5906(5) 0.9870(6)
H56_3 H 0.633644 0.566660 0.976045
C115_3 C 0.5759(11) 0.5850(13) 0.8213(11)
H59_3 H 0.586436 0.576525 0.787306
C119_3 C 0.5581(7) 0.6061(10) 0.9240(9)
C126_2 C 0.5712(11) 0.4872(13) 0.8419(13)
C127_3 C 0.5703(8) 0.7233(7) 0.8086(7)
H65_3 H 0.573163 0.749467 0.783277
C128_3 C 0.5764(7) 0.6720(8) 0.7948(4)
H66_3 H 0.583422 0.663130 0.760035
C129_3 C 0.5721(7) 0.6336(6) 0.8318(6)
C130_3 C 0.5618(8) 0.6466(6) 0.8826(5)
C131_3 C 0.5557(7) 0.6979(7) 0.8964(5)
H67_3 H 0.548612 0.706736 0.931163
C132_3 C 0.5599(8) 0.7362(5) 0.8594(8)
H68_3 H 0.555757 0.771270 0.868843
O40_2 O 0.7539(4) 0.9753(5) 0.9259(5)
O5_4 O 0.0546(6) 0.0556(6) 0.9795(6)
C8_4 C 0.0948(9) 0.0579(8) 0.9433(9)
C13_4 C 0.1429(10) 0.0655(11) 0.9601(12)
C15_4 C 0.0209(8) 0.0496(7) 0.8800(6)
H4_4 H 0.000357 0.047056 0.911969
H5_4 H 0.017741 0.016460 0.861522
C17_4 C 0.0120(7) 0.2105(6) 0.9236(5)
H7_4 H 0.022244 0.220402 0.957206
C18_4 C 0.0130(6) 0.1590(6) 0.9094(5)
H8_4 H 0.023955 0.133644 0.933340
C23_4 C 0.1787(11) 0.0759(11) 0.9150(13)
H11_4 H 0.212694 0.086436 0.923475
C27_4 C 0.0760(9) 0.0581(7) 0.8939(10)
C35_4 C 0.1914(7) 0.0703(8) 0.7767(7)
H17_4 H 0.216723 0.073163 0.750533
C36_4 C 0.2052(4) 0.0764(7) 0.8280(8)
H18_4 H 0.239965 0.083422 0.836870
C37_4 C 0.1682(6) 0.0721(7) 0.8664(6)
C38_4 C 0.1174(5) 0.0618(8) 0.8534(6)
C39_4 C 0.1036(5) 0.0557(7) 0.8021(7)
H19_4 H 0.068837 0.048612 0.793264
C40_4 C 0.1406(8) 0.0599(8) 0.7638(5)
H20_4 H 0.131157 0.055757 0.728730
O29_4 O 0.0180(5) 0.2579(4) 0.6113(5)
O35_4 O 0.0399(6) 0.1647(6) 0.5869(9)
O36_4 O 0.0775(6) 0.1119(6) 0.6409(7)
C95_4 C 0.0629(6) 0.1979(9) 0.6615(10)
C98_4 C 0.0594(8) 0.1581(10) 0.6304(9)
C99_4 C 0.0418(7) 0.2495(8) 0.6591(10)
C101_4 C 0.0215(8) 0.3377(7) 0.6846(8)
H49_4 H 0.008595 0.339536 0.648825
H50_4 H 0.049041 0.363830 0.688265
C104_4 C 0.0438(7) 0.2861(9) 0.6935(7)
C114_4 C 0.0826(8) 0.1865(10) 0.7150(9)
H58_4 H 0.090896 0.152193 0.724273
C120_4 C 0.1292(7) 0.2526(8) 0.8297(6)
H61_4 H 0.149133 0.244725 0.859288
C121_4 C 0.1180(8) 0.2144(6) 0.7940(8)
H62_4 H 0.130279 0.180407 0.799228
C122_4 C 0.0888(8) 0.2260(6) 0.7508(6)
C123_4 C 0.0708(7) 0.2757(7) 0.7432(6)
C124_4 C 0.0820(7) 0.3139(5) 0.7789(7)
H63_4 H 0.069695 0.347961 0.773668
C125_4 C 0.1112(7) 0.3024(7) 0.8221(6)
H64_4 H 0.118840 0.328504 0.846508
O39_4 O 0.0065(5) 0.0450(5) 0.5953(6)
O1_4 O 0.9788(5) 0.0285(5) 0.7818(5)
O4_4 O 0.9386(5) 0.0577(6) 0.6950(5)
O8_4 O 0.9408(6) 0.1387(6) 0.6773(5)
C1_4 C 0.7785(7) 0.0225(8) 0.8511(8)
C2_4 C 0.7473(7) 0.0130(8) 0.8959(8)
C4_4 C 0.9674(10) 0.1155(9) 0.7598(9)
C5_4 C 0.9821(8) 0.0778(9) 0.7945(8)
O12_4 O 0.6464(10) 0.0881(11) 0.9669(10)
C10_4 C 0.7108(8) 0.0555(8) 0.9080(9)
C11_4 C 0.9691(11) 0.1681(11) 0.7779(10)
H3_4 H 0.960463 0.194575 0.754346
C14_4 C 0.9488(8) 0.1083(9) 0.7082(8)
C16_4 C 0.9959(8) 0.2476(4) 0.8885(7)
H6_4 H 0.995219 0.282774 0.898223
C19_4 C 0.9979(6) 0.1445(4) 0.8602(5)
C20_4 C 0.9819(6) 0.1815(5) 0.8251(4)
C21_4 C 0.9809(7) 0.2331(5) 0.8393(6)
H9_4 H 0.969905 0.258386 0.815373
C24_4 C 0.7047(9) 0.0944(11) 0.8747(9)
H12_4 H 0.679314 0.119472 0.882549
C25_4 C 0.9982(7) 0.0931(8) 0.8458(8)
C26_4 C 0.6790(13) 0.0519(13) 0.9561(11)
C41_4 C 0.7557(7) 0.1505(5) 0.7557(6)
H21_4 H 0.749696 0.178845 0.733383
C42_4 C 0.7966(6) 0.1174(6) 0.7463(5)
H22_4 H 0.818556 0.123058 0.717711
C43_4 C 0.8053(5) 0.0759(5) 0.7789(6)
H23_4 H 0.833293 0.053246 0.772562
C44_4 C 0.7732(6) 0.0676(5) 0.8208(5)
C45_4 C 0.7323(5) 0.1007(6) 0.8301(5)
C46_4 C 0.7235(6) 0.1422(6) 0.7975(7)
H24_4 H 0.695572 0.164819 0.803907
Ba1_4 Ba 0.90960(4) 0.09040(4) 0.59040(4)
O14_4 O 0.7182(5) 0.0212(5) 0.5285(5)
O16_4 O 0.7421(4) 0.1113(5) 0.4820(5)
O17_4 O 0.8050(5) 0.0614(5) 0.5577(6)
O21_4 O 0.8227(5) 0.0592(6) 0.6387(6)
O22_4 O 0.8353(6) 0.0869(9) 0.4601(6)
O23_4 O 0.8881(6) 0.1409(7) 0.4225(6)
C47_4 C 0.6489(8) 0.2215(7) 0.5225(8)
C48_4 C 0.6041(8) 0.2527(7) 0.5130(8)
C49_4 C 0.8021(9) 0.1615(10) 0.4371(6)
C50_4 C 0.7402(9) 0.0326(10) 0.6155(9)
C51_4 C 0.7055(8) 0.0179(8) 0.5778(9)
C52_4 C 0.8419(10) 0.1304(9) 0.4406(8)
C53_4 C 0.7505(8) 0.1591(10) 0.4582(7)
O25_4 O 0.5331(10) 0.3536(10) 0.5881(11)
C55_4 C 0.6623(7) 0.1846(8) 0.4785(8)
H25_4 H 0.660464 0.148825 0.491405
H26_4 H 0.636170 0.188265 0.450959
C56_4 C 0.5920(9) 0.2892(8) 0.5555(8)
C57_4 C 0.7221(10) 0.0309(11) 0.6681(11)
H27_4 H 0.745654 0.039537 0.694575
C58_4 C 0.7139(9) 0.1935(7) 0.4562(7)
C60_4 C 0.7918(8) 0.0512(8) 0.6083(9)
C62_4 C 0.6115(7) 0.0041(8) 0.7476(4)
H30_4 H 0.601777 0.004781 0.782774
C65_4 C 0.6398(5) 0.0021(6) 0.6445(4)
C66_4 C 0.6749(4) 0.0181(6) 0.6815(5)
C67_4 C 0.6607(6) 0.0191(7) 0.7331(5)
H33_4 H 0.684627 0.030095 0.758386
C68_4 C 0.8135(10) 0.2150(9) 0.4174(8)
H34_4 H 0.847807 0.224273 0.409104
C70_4 C 0.6253(9) 0.2953(9) 0.5944(11)
H36_4 H 0.617451 0.320686 0.619472
C71_4 C 0.6542(8) 0.0018(7) 0.5931(8)
C72_4 C 0.5439(11) 0.3210(13) 0.5519(13)
C74_4 C 0.7474(8) 0.3297(6) 0.3708(7)
H37_4 H 0.755275 0.359288 0.350867
C75_4 C 0.7856(6) 0.2940(8) 0.3820(8)
H38_4 H 0.819593 0.299228 0.369721
C76_4 C 0.7740(6) 0.2508(6) 0.4112(8)
C77_4 C 0.7243(7) 0.2432(6) 0.4292(7)
C78_4 C 0.6861(5) 0.2789(7) 0.4180(7)
H39_4 H 0.652039 0.273668 0.430305
C79_4 C 0.6976(7) 0.3221(6) 0.3888(7)
H40_4 H 0.671496 0.346508 0.381160
C87_4 C 0.7443(6) 0.2443(7) 0.6505(5)
H45_4 H 0.766617 0.250304 0.678845
C88_4 C 0.7537(5) 0.2034(6) 0.6174(6)
H46_4 H 0.782289 0.181444 0.623058
C89_4 C 0.7211(6) 0.1947(5) 0.5759(5)
H47_4 H 0.727438 0.166707 0.553246
C90_4 C 0.6792(5) 0.2268(6) 0.5676(5)
C91_4 C 0.6699(5) 0.2677(5) 0.6007(6)
C92_4 C 0.7025(7) 0.2765(6) 0.6422(6)
H48_4 H 0.696093 0.304428 0.664819
O26_4 O 0.9550(5) 0.0953(6) 0.4935(5)
O27_4 O 0.9715(5) 0.2818(5) 0.5212(5)
O30_4 O 0.9423(6) 0.1950(5) 0.5614(5)
O34_4 O 0.8613(6) 0.1773(5) 0.5592(6)
C93_4 C 0.9775(8) 0.3511(8) 0.7215(7)
C94_4 C 0.9870(8) 0.3959(8) 0.7527(7)
C96_4 C 0.8845(9) 0.2598(9) 0.5326(10)
C97_4 C 0.9222(9) 0.2945(8) 0.5179(8)
C100_4 C 0.9421(8) 0.4433(9) 0.4052(9)
O37_3 O 0.9248(9) 0.5245(7) 0.2956(7)
O38_4 O 0.9119(11) 0.4669(10) 0.8536(10)
C102_4 C 0.9445(8) 0.4080(9) 0.7892(8)
C103_4 C 0.8319(11) 0.2779(10) 0.5309(11)
H51_4 H 0.805425 0.254346 0.539537
C105_4 C 0.9345(11) 0.4601(12) 0.3571(10)
C106_4 C 0.8917(9) 0.2082(8) 0.5512(8)
C107_4 C 0.9504(7) 0.3800(6) 0.4791(8)
H52_4 H 0.952944 0.411969 0.499643
H53_4 H 0.983540 0.361522 0.482259
C108_4 C 0.7524(4) 0.3885(7) 0.5041(8)
H54_4 H 0.717226 0.398223 0.504781
C109_4 C 0.7895(6) 0.4236(5) 0.4880(7)
H55_4 H 0.779598 0.457206 0.477756
C110_4 C 0.8410(6) 0.4094(5) 0.4870(6)
H56_4 H 0.866356 0.433340 0.476045
C111_4 C 0.8555(4) 0.3602(5) 0.5021(6)
C112_4 C 0.8185(5) 0.3251(4) 0.5181(6)
C113_4 C 0.7669(5) 0.3393(6) 0.5191(7)
H57_4 H 0.741614 0.315373 0.530095
C115_4 C 0.9241(11) 0.4150(13) 0.3213(11)
H59_4 H 0.913564 0.423475 0.287306
C116_4 C 0.9056(11) 0.3747(9) 0.7953(9)
H60_4 H 0.880528 0.382549 0.820686
C117_4 C 0.9069(8) 0.3458(8) 0.5018(7)
C118_4 C 0.9481(13) 0.4561(11) 0.8210(13)
C119_4 C 0.9419(7) 0.3939(10) 0.4240(9)
C126_3 C 0.9288(11) 0.5128(13) 0.3419(13)
C127_4 C 0.9297(8) 0.2767(7) 0.3086(7)
H65_4 H 0.926837 0.250533 0.283277
C128_4 C 0.9236(7) 0.3280(8) 0.2948(4)
H66_4 H 0.916578 0.336870 0.260035
C129_4 C 0.9279(7) 0.3664(6) 0.3318(6)
C130_4 C 0.9382(8) 0.3534(6) 0.3826(5)
C131_4 C 0.9443(7) 0.3021(7) 0.3964(5)
H67_4 H 0.951388 0.293264 0.431163
C132_4 C 0.9401(8) 0.2638(5) 0.3594(8)
H68_4 H 0.944243 0.228730 0.368843
C133_4 C 0.8495(5) 0.2557(6) 0.7443(7)
H69_4 H 0.821155 0.233383 0.750304
C134_4 C 0.8826(6) 0.2463(5) 0.7034(6)
H70_4 H 0.876942 0.217711 0.681444
C135_4 C 0.9241(5) 0.2789(6) 0.6947(5)
H71_4 H 0.946754 0.272562 0.666707
C136_4 C 0.9324(5) 0.3208(5) 0.7268(6)
C137_4 C 0.8993(6) 0.3301(5) 0.7677(5)
C138_4 C 0.8578(6) 0.2975(7) 0.7765(6)
H72_4 H 0.835181 0.303907 0.804428
O3_4 O 0.8887(5) 0.9820(5) 0.7579(4)
O9_4 O 0.9131(9) 0.9601(6) 0.6647(6)
O10_4 O 0.8591(7) 0.9225(6) 0.6119(6)
C3_4 C 0.8385(10) 0.9371(6) 0.6979(9)
C6_4 C 0.8696(9) 0.9406(8) 0.6581(10)
C7_4 C 0.8409(10) 0.9582(7) 0.7495(8)
C9_4 C 0.8154(8) 0.9785(8) 0.8377(7)
H1_4 H 0.851175 0.991405 0.839536
H2_4 H 0.811735 0.950959 0.863830
C12_4 C 0.8065(7) 0.9562(7) 0.7861(9)
C22_4 C 0.7850(9) 0.9174(8) 0.6865(10)
H10_4 H 0.775727 0.909104 0.652193
C28_4 C 0.6703(6) 0.8708(7) 0.7526(8)
H13_4 H 0.640712 0.850867 0.744725
C29_4 C 0.7060(8) 0.8820(8) 0.7144(6)
H14_4 H 0.700772 0.869721 0.680407
C30_4 C 0.7492(6) 0.9112(8) 0.7260(6)
C31_4 C 0.7568(6) 0.9292(7) 0.7757(7)
C32_4 C 0.7211(7) 0.9180(7) 0.8139(5)
H15_4 H 0.726332 0.930305 0.847961
C33_4 C 0.6779(6) 0.8888(7) 0.8024(7)
H16_4 H 0.653492 0.881160 0.828504
O13_4 O 0.9047(6) 0.9935(5) 0.5450(5)
C54_4 C 0.5567(9) 0.9052(9) 0.5579(8)
O24_3 O 0.4755(7) 0.7956(7) 0.5752(9)
C59_4 C 0.5399(12) 0.8571(10) 0.5655(11)
C61_4 C 0.6200(6) 0.9791(8) 0.5496(7)
H28_4 H 0.588031 0.999643 0.547056
H29_4 H 0.638478 0.982259 0.516460
C63_4 C 0.5764(5) 0.9880(7) 0.7105(6)
H31_4 H 0.542794 0.977756 0.720402
C64_4 C 0.5906(5) 0.9870(6) 0.6590(6)
H32_4 H 0.566660 0.976045 0.633644
C69_4 C 0.5850(13) 0.8213(11) 0.5759(11)
H35_4 H 0.576525 0.787306 0.586436
C73_4 C 0.6061(10) 0.9240(9) 0.5581(7)
C80_3 C 0.4872(13) 0.8419(13) 0.5712(11)
C81_4 C 0.7233(7) 0.8086(7) 0.5703(8)
H41_4 H 0.749467 0.783277 0.573163
C82_4 C 0.6720(8) 0.7948(4) 0.5764(7)
H42_4 H 0.663130 0.760035 0.583422
C83_4 C 0.6336(6) 0.8318(6) 0.5721(7)
C84_4 C 0.6466(6) 0.8826(5) 0.5618(8)
C85_4 C 0.6979(7) 0.8964(5) 0.5557(7)
H43_4 H 0.706736 0.931163 0.548612
C86_4 C 0.7362(5) 0.8594(8) 0.5599(8)
H44_4 H 0.771270 0.868843 0.555757
O32_2 O 0.0625(7) 0.0523(6) 0.1256(6)
O37_4 O 0.0752(9) 0.0245(7) 0.2044(7)
C126_4 C 0.0712(11) 0.0128(13) 0.1581(13)
Ti6_2 Ti 0.05039(13) 0.05039(13) 0.05039(13)
O19_2 O 0.0523(6) 0.1256(6) 0.0625(7)
O24_4 O 0.0245(7) 0.2044(7) 0.0752(9)
C80_4 C 0.0128(13) 0.1581(13) 0.0712(11)
O6_4 O 0.1256(6) 0.0625(7) 0.0523(6)
O11_4 O 0.2044(7) 0.0752(9) 0.0245(7)
C34_4 C 0.1581(13) 0.0712(11) 0.0128(13)
loop_
_geom_bond_atom_site_label_1
_geom_bond_atom_site_label_2
_geom_bond_site_symmetry_1
_geom_bond_site_symmetry_2
Ti2 O1 1_555 1_555
O1 C5 1_555 1_555
O2 C2 1_555 1_555
O3 Ti2 1_555 1_555
O4 Ti2 1_555 1_555
O5 C8 1_555 1_555
O7 C26 1_555 1_555
O8 C14 1_555 1_555
O9 Ti2 1_555 1_555
O10 C6 1_555 1_555
C1 C2 1_555 1_555
C2 C10 1_555 1_555
C3 C6 1_555 1_555
C4 C5 1_555 1_555
C5 C25 1_555 1_555
C6 O9 1_555 1_555
C7 O3 1_555 1_555
C8 C13 1_555 1_555
O12 C26 1_555 1_555
C9 C1 1_555 1_555
H1 C9 1_555 1_555
H2 C9 1_555 1_555
C10 C24 1_555 1_555
C11 C4 1_555 1_555
H3 C11 1_555 1_555
C12 C7 1_555 1_555
C13 C23 1_555 1_555
C14 O4 1_555 1_555
C15 H4 1_555 1_555
H5 C15 1_555 1_555
C16 H6 1_555 1_555
C17 C16 1_555 1_555
H7 C17 1_555 1_555
C18 C17 1_555 1_555
H8 C18 1_555 1_555
C19 C18 1_555 1_555
C20 C11 1_555 1_555
C21 C16 1_555 1_555
H9 C21 1_555 1_555
C22 C3 1_555 1_555
H10 C22 1_555 1_555
C23 H11 1_555 1_555
C24 H12 1_555 1_555
C25 C15 1_555 1_555
C26 C10 1_555 1_555
C27 C8 1_555 1_555
C28 H13 1_555 1_555
C29 C28 1_555 1_555
H14 C29 1_555 1_555
C30 C22 1_555 1_555
C31 C12 1_555 1_555
C32 C31 1_555 1_555
H15 C32 1_555 1_555
C33 C28 1_555 1_555
H16 C33 1_555 1_555
C35 H17 1_555 1_555
C36 C35 1_555 1_555
H18 C36 1_555 1_555
C37 C23 1_555 1_555
C38 C27 1_555 1_555
C39 C38 1_555 1_555
H19 C39 1_555 1_555
C40 C35 1_555 1_555
H20 C40 1_555 1_555
C41 H21 1_555 1_555
C42 C41 1_555 1_555
H22 C42 1_555 1_555
C43 C42 1_555 1_555
H23 C43 1_555 1_555
C44 C1 1_555 1_555
C45 C24 1_555 1_555
C46 C41 1_555 1_555
H24 C46 1_555 1_555
Ba1 O4 1_555 1_555
O13 Ba1 1_555 1_555
Ti3 O14 1_555 1_555
O14 C51 1_555 1_555
O15 C48 1_555 1_555
O16 Ti3 1_555 1_555
O17 Ba1 1_555 1_555
O18 C54 1_555 1_555
O20 C72 1_555 1_555
O21 Ba1 1_555 1_555
O22 Ti3 1_555 1_555
O23 C52 1_555 1_555
C47 C48 1_555 1_555
C48 C56 1_555 1_555
C49 C52 1_555 1_555
C50 C51 1_555 1_555
C51 C71 1_555 1_555
C52 O22 1_555 1_555
C53 O16 1_555 1_555
C54 C59 1_555 1_555
O25 C72 1_555 1_555
C55 C47 1_555 1_555
H25 C55 1_555 1_555
H26 C55 1_555 1_555
C56 C70 1_555 1_555
C57 C50 1_555 1_555
H27 C57 1_555 1_555
C58 C53 1_555 1_555
C59 C69 1_555 1_555
C60 O17 1_555 1_555
C61 H28 1_555 1_555
H29 C61 1_555 1_555
C62 H30 1_555 1_555
C63 C62 1_555 1_555
H31 C63 1_555 1_555
C64 C63 1_555 1_555
H32 C64 1_555 1_555
C65 C64 1_555 1_555
C66 C57 1_555 1_555
C67 C62 1_555 1_555
H33 C67 1_555 1_555
C68 C49 1_555 1_555
H34 C68 1_555 1_555
C69 H35 1_555 1_555
C70 H36 1_555 1_555
C71 C61 1_555 1_555
C72 C56 1_555 1_555
C73 C54 1_555 1_555
C74 H37 1_555 1_555
C75 C74 1_555 1_555
H38 C75 1_555 1_555
C76 C68 1_555 1_555
C77 C58 1_555 1_555
C78 C77 1_555 1_555
H39 C78 1_555 1_555
C79 C74 1_555 1_555
H40 C79 1_555 1_555
C81 H41 1_555 1_555
C82 C81 1_555 1_555
H42 C82 1_555 1_555
C83 C69 1_555 1_555
C84 C73 1_555 1_555
C85 C84 1_555 1_555
H43 C85 1_555 1_555
C86 C81 1_555 1_555
H44 C86 1_555 1_555
C87 H45 1_555 1_555
C88 C87 1_555 1_555
H46 C88 1_555 1_555
C89 C88 1_555 1_555
H47 C89 1_555 1_555
C90 C47 1_555 1_555
C91 C70 1_555 1_555
C92 C87 1_555 1_555
H48 C92 1_555 1_555
O26 Ba1 1_555 1_555
Ti4 O27 1_555 1_555
O27 C97 1_555 1_555
O28 C94 1_555 1_555
O29 Ti4 1_555 1_555
O30 Ba1 1_555 1_555
O31 C100 1_555 1_555
O33 C118 1_555 1_555
O34 Ba1 1_555 1_555
O35 Ti4 1_555 1_555
O36 C98 1_555 1_555
C93 C94 1_555 1_555
C94 C102 1_555 1_555
C95 C98 1_555 1_555
C96 C97 1_555 1_555
C97 C117 1_555 1_555
C98 O35 1_555 1_555
C99 O29 1_555 1_555
C100 C105 1_555 1_555
O38 C118 1_555 1_555
C101 C93 1_555 1_555
H49 C101 1_555 1_555
H50 C101 1_555 1_555
C102 C116 1_555 1_555
C103 C96 1_555 1_555
H51 C103 1_555 1_555
C104 C99 1_555 1_555
C105 C115 1_555 1_555
C106 O30 1_555 1_555
C107 H52 1_555 1_555
H53 C107 1_555 1_555
C108 H54 1_555 1_555
C109 C108 1_555 1_555
H55 C109 1_555 1_555
C110 C109 1_555 1_555
H56 C110 1_555 1_555
C111 C110 1_555 1_555
C112 C103 1_555 1_555
C113 C108 1_555 1_555
H57 C113 1_555 1_555
C114 C95 1_555 1_555
H58 C114 1_555 1_555
C115 H59 1_555 1_555
C116 H60 1_555 1_555
C117 C107 1_555 1_555
C118 C102 1_555 1_555
C119 C100 1_555 1_555
C120 H61 1_555 1_555
C121 C120 1_555 1_555
H62 C121 1_555 1_555
C122 C114 1_555 1_555
C123 C104 1_555 1_555
C124 C123 1_555 1_555
H63 C124 1_555 1_555
C125 C120 1_555 1_555
H64 C125 1_555 1_555
C127 H65 1_555 1_555
C128 C127 1_555 1_555
H66 C128 1_555 1_555
C129 C115 1_555 1_555
C130 C119 1_555 1_555
C131 C130 1_555 1_555
H67 C131 1_555 1_555
C132 C127 1_555 1_555
H68 C132 1_555 1_555
C133 H69 1_555 1_555
C134 C133 1_555 1_555
H70 C134 1_555 1_555
C135 C134 1_555 1_555
H71 C135 1_555 1_555
C136 C93 1_555 1_555
C137 C116 1_555 1_555
C138 C133 1_555 1_555
H72 C138 1_555 1_555
O39 Ba1 1_555 1_555
Ti7 O28 1_555 1_555
Ti8 O2 1_555 1_555
Ti9 O15 1_555 1_555
O40 Ti3 1_555 1_555
O41 Ti4 1_555 1_555
O42 Ti2 1_555 1_555
O47 Ti3 1_555 1_555
O48 Ti4 1_555 1_555
O49 Ti2 1_555 1_555
O7 Ti8 1_555 1_555
O8 Ba1 1_555 1_555
C3 C7 1_555 1_555
C4 C14 1_555 1_555
C9 C12 1_555 1_555
C15 C27 1_555 1_555
C19 C20 1_555 1_555
C19 C25 1_555 1_555
C20 C21 1_555 1_555
C29 C30 1_555 1_555
C30 C31 1_555 1_555
C32 C33 1_555 1_555
C36 C37 1_555 1_555
C37 C38 1_555 1_555
C39 C40 1_555 1_555
C43 C44 1_555 1_555
C44 C45 1_555 1_555
C45 C46 1_555 1_555
Ti3 O17 1_555 1_555
O20 Ti9 1_555 1_555
O21 C60 1_555 1_555
C49 C53 1_555 1_555
C50 C60 1_555 1_555
C55 C58 1_555 1_555
C61 C73 1_555 1_555
C65 C66 1_555 1_555
C65 C71 1_555 1_555
C66 C67 1_555 1_555
C75 C76 1_555 1_555
C76 C77 1_555 1_555
C78 C79 1_555 1_555
C82 C83 1_555 1_555
C83 C84 1_555 1_555
C85 C86 1_555 1_555
C89 C90 1_555 1_555
C90 C91 1_555 1_555
C91 C92 1_555 1_555
Ti4 O30 1_555 1_555
O33 Ti7 1_555 1_555
O34 C106 1_555 1_555
C95 C99 1_555 1_555
C96 C106 1_555 1_555
C101 C104 1_555 1_555
C107 C119 1_555 1_555
C111 C112 1_555 1_555
C111 C117 1_555 1_555
C112 C113 1_555 1_555
C121 C122 1_555 1_555
C122 C123 1_555 1_555
C124 C125 1_555 1_555
C128 C129 1_555 1_555
C129 C130 1_555 1_555
C131 C132 1_555 1_555
C135 C136 1_555 1_555
C136 C137 1_555 1_555
C137 C138 1_555 1_555
O6 Ti1 1_555 1_555
O11 C34 1_555 1_555
C34 O6 1_555 1_555
O43 Ti1 1_555 1_555
O44 Ti1 1_555 1_555
O45 Ti1 1_555 1_555
O46 Ti1 1_555 1_555
O32 C126 1_555 1_555
O37 C126 1_555 1_555
O32 Ti6 1_555 1_555
O19 C80 1_555 1_555
O24 C80 1_555 1_555
O19 Ti5 1_555 1_555
O16_2 Ti8 1_555 1_555
O22_2 Ti8 1_555 1_555
O23_2 C52_2 1_555 1_555
C49_2 C52_2 1_555 1_555
C52_2 O22_2 1_555 1_555
C53_2 O16_2 1_555 1_555
H25_2 C55_2 1_555 1_555
H26_2 C55_2 1_555 1_555
C58_2 C53_2 1_555 1_555
C68_2 C49_2 1_555 1_555
H34_2 C68_2 1_555 1_555
C74_2 H37_2 1_555 1_555
C75_2 C74_2 1_555 1_555
H38_2 C75_2 1_555 1_555
C76_2 C68_2 1_555 1_555
C77_2 C58_2 1_555 1_555
C78_2 C77_2 1_555 1_555
H39_2 C78_2 1_555 1_555
C79_2 C74_2 1_555 1_555
H40_2 C79_2 1_555 1_555
O31_2 C100_2 1_555 1_555
C100_2 C105_2 1_555 1_555
C105_2 C115_2 1_555 1_555
C107_2 H52_2 1_555 1_555
H53_2 C107_2 1_555 1_555
H55_2 C109_2 1_555 1_555
C110_2 C109_2 1_555 1_555
H56_2 C110_2 1_555 1_555
C115_2 H59_2 1_555 1_555
C119_2 C100_2 1_555 1_555
C127_2 H65_2 1_555 1_555
C128_2 C127_2 1_555 1_555
H66_2 C128_2 1_555 1_555
C129_2 C115_2 1_555 1_555
C130_2 C119_2 1_555 1_555
C131_2 C130_2 1_555 1_555
H67_2 C131_2 1_555 1_555
C132_2 C127_2 1_555 1_555
H68_2 C132_2 1_555 1_555
Ti9_2 O15_2 1_555 1_555
C49_2 C53_2 1_555 1_555
C55_2 C58_2 1_555 1_555
C75_2 C76_2 1_555 1_555
C76_2 C77_2 1_555 1_555
C78_2 C79_2 1_555 1_555
C107_2 C119_2 1_555 1_555
C128_2 C129_2 1_555 1_555
C129_2 C130_2 1_555 1_555
C131_2 C132_2 1_555 1_555
Ti2_2 O1_2 1_555 1_555
O1_2 C5_2 1_555 1_555
O40 C2_2 1_555 1_555
O3_2 Ti2_2 1_555 1_555
O4_2 Ti2_2 1_555 1_555
O47 C26_2 1_555 1_555
O8_2 C14_2 1_555 1_555
O9_2 Ti2_2 1_555 1_555
O10_2 C6_2 1_555 1_555
C1_2 C2_2 1_555 1_555
C2_2 C10_2 1_555 1_555
C3_2 C6_2 1_555 1_555
C4_2 C5_2 1_555 1_555
C5_2 C25_2 1_555 1_555
C6_2 O9_2 1_555 1_555
C7_2 O3_2 1_555 1_555
O12_2 C26_2 1_555 1_555
C9_2 C1_2 1_555 1_555
H1_2 C9_2 1_555 1_555
H2_2 C9_2 1_555 1_555
C10_2 C24_2 1_555 1_555
C11_2 C4_2 1_555 1_555
H3_2 C11_2 1_555 1_555
C12_2 C7_2 1_555 1_555
C14_2 O4_2 1_555 1_555
C16_2 H6_2 1_555 1_555
C20_2 C11_2 1_555 1_555
C21_2 C16_2 1_555 1_555
H9_2 C21_2 1_555 1_555
C22_2 C3_2 1_555 1_555
H10_2 C22_2 1_555 1_555
C24_2 H12_2 1_555 1_555
C26_2 C10_2 1_555 1_555
C28_2 H13_2 1_555 1_555
C29_2 C28_2 1_555 1_555
H14_2 C29_2 1_555 1_555
C30_2 C22_2 1_555 1_555
C31_2 C12_2 1_555 1_555
C32_2 C31_2 1_555 1_555
H15_2 C32_2 1_555 1_555
C33_2 C28_2 1_555 1_555
H16_2 C33_2 1_555 1_555
C41_2 H21_2 1_555 1_555
C42_2 C41_2 1_555 1_555
H22_2 C42_2 1_555 1_555
C43_2 C42_2 1_555 1_555
H23_2 C43_2 1_555 1_555
C44_2 C1_2 1_555 1_555
C45_2 C24_2 1_555 1_555
C46_2 C41_2 1_555 1_555
H24_2 C46_2 1_555 1_555
Ba1_2 O4_2 1_555 1_555
O13_2 Ba1_2 1_555 1_555
O14_2 C51_2 1_555 1_555
O17_2 Ba1_2 1_555 1_555
O43 C54_2 1_555 1_555
O45 C80_2 1_555 1_555
O20_2 C72_2 1_555 1_555
O21_2 Ba1_2 1_555 1_555
C47_2 C48_2 1_555 1_555
C48_2 C56_2 1_555 1_555
C50_2 C51_2 1_555 1_555
C51_2 C71_2 1_555 1_555
C54_2 C59_2 1_555 1_555
O24_2 C80_2 1_555 1_555
O25_2 C72_2 1_555 1_555
C56_2 C70_2 1_555 1_555
C57_2 C50_2 1_555 1_555
H27_2 C57_2 1_555 1_555
C59_2 C69_2 1_555 1_555
C60_2 O17_2 1_555 1_555
C61_2 H28_2 1_555 1_555
H29_2 C61_2 1_555 1_555
C62_2 H30_2 1_555 1_555
C63_2 C62_2 1_555 1_555
H31_2 C63_2 1_555 1_555
C64_2 C63_2 1_555 1_555
H32_2 C64_2 1_555 1_555
C65_2 C64_2 1_555 1_555
C66_2 C57_2 1_555 1_555
C67_2 C62_2 1_555 1_555
H33_2 C67_2 1_555 1_555
C69_2 H35_2 1_555 1_555
C70_2 H36_2 1_555 1_555
C71_2 C61_2 1_555 1_555
C72_2 C56_2 1_555 1_555
C73_2 C54_2 1_555 1_555
C80_2 C59_2 1_555 1_555
C81_2 H41_2 1_555 1_555
C82_2 C81_2 1_555 1_555
H42_2 C82_2 1_555 1_555
C83_2 C69_2 1_555 1_555
C84_2 C73_2 1_555 1_555
C85_2 C84_2 1_555 1_555
H43_2 C85_2 1_555 1_555
C86_2 C81_2 1_555 1_555
H44_2 C86_2 1_555 1_555
C87_2 H45_2 1_555 1_555
C88_2 C87_2 1_555 1_555
H46_2 C88_2 1_555 1_555
C89_2 C88_2 1_555 1_555
H47_2 C89_2 1_555 1_555
C90_2 C47_2 1_555 1_555
C91_2 C70_2 1_555 1_555
C92_2 C87_2 1_555 1_555
H48_2 C92_2 1_555 1_555
O27_2 C97_2 1_555 1_555
O30_2 Ba1_2 1_555 1_555
O33_2 C118_2 1_555 1_555
O34_2 Ba1_2 1_555 1_555
C93_2 C94_2 1_555 1_555
C94_2 C102_2 1_555 1_555
C96_2 C97_2 1_555 1_555
C97_2 C117_2 1_555 1_555
O38_2 C118_2 1_555 1_555
C102_2 C116_2 1_555 1_555
C103_2 C96_2 1_555 1_555
H51_2 C103_2 1_555 1_555
C106_2 O30_2 1_555 1_555
C108_2 H54_2 1_555 1_555
C112_2 C103_2 1_555 1_555
C113_2 C108_2 1_555 1_555
H57_2 C113_2 1_555 1_555
C116_2 H60_2 1_555 1_555
C118_2 C102_2 1_555 1_555
C133_2 H69_2 1_555 1_555
C134_2 C133_2 1_555 1_555
H70_2 C134_2 1_555 1_555
C135_2 C134_2 1_555 1_555
H71_2 C135_2 1_555 1_555
C136_2 C93_2 1_555 1_555
C137_2 C116_2 1_555 1_555
C138_2 C133_2 1_555 1_555
H72_2 C138_2 1_555 1_555
O42_2 Ti2_2 1_555 1_555
O8_2 Ba1_2 1_555 1_555
C3_2 C7_2 1_555 1_555
C4_2 C14_2 1_555 1_555
C9_2 C12_2 1_555 1_555
C19_2 C20_2 1_555 1_555
C19_2 C25_2 1_555 1_555
C20_2 C21_2 1_555 1_555
C29_2 C30_2 1_555 1_555
C30_2 C31_2 1_555 1_555
C32_2 C33_2 1_555 1_555
C43_2 C44_2 1_555 1_555
C44_2 C45_2 1_555 1_555
C45_2 C46_2 1_555 1_555
O21_2 C60_2 1_555 1_555
C50_2 C60_2 1_555 1_555
C61_2 C73_2 1_555 1_555
C65_2 C66_2 1_555 1_555
C65_2 C71_2 1_555 1_555
C66_2 C67_2 1_555 1_555
C82_2 C83_2 1_555 1_555
C83_2 C84_2 1_555 1_555
C85_2 C86_2 1_555 1_555
C89_2 C90_2 1_555 1_555
C90_2 C91_2 1_555 1_555
C91_2 C92_2 1_555 1_555
O34_2 C106_2 1_555 1_555
C96_2 C106_2 1_555 1_555
C111_2 C112_2 1_555 1_555
C111_2 C117_2 1_555 1_555
C112_2 C113_2 1_555 1_555
C135_2 C136_2 1_555 1_555
C136_2 C137_2 1_555 1_555
C137_2 C138_2 1_555 1_555
Ti5 O5_2 1_555 1_555
O5_2 C8_2 1_555 1_555
O6_2 Ti5 1_555 1_555
C8_2 C13_2 1_555 1_555
O11_2 C34_2 1_555 1_555
C13_2 C23_2 1_555 1_555
C15_2 H4_2 1_555 1_555
H5_2 C15_2 1_555 1_555
H7_2 C17_2 1_555 1_555
C18_2 C17_2 1_555 1_555
H8_2 C18_2 1_555 1_555
C23_2 H11_2 1_555 1_555
C27_2 C8_2 1_555 1_555
C34_2 O6_2 1_555 1_555
C35_2 H17_2 1_555 1_555
C36_2 C35_2 1_555 1_555
H18_2 C36_2 1_555 1_555
C37_2 C23_2 1_555 1_555
C38_2 C27_2 1_555 1_555
C39_2 C38_2 1_555 1_555
H19_2 C39_2 1_555 1_555
C40_2 C35_2 1_555 1_555
H20_2 C40_2 1_555 1_555
O29_2 Ti4_2 1_555 1_555
O35_2 Ti4_2 1_555 1_555
O36_2 C98_2 1_555 1_555
C95_2 C98_2 1_555 1_555
C98_2 O35_2 1_555 1_555
C99_2 O29_2 1_555 1_555
H49_2 C101_2 1_555 1_555
H50_2 C101_2 1_555 1_555
C104_2 C99_2 1_555 1_555
C114_2 C95_2 1_555 1_555
H58_2 C114_2 1_555 1_555
C120_2 H61_2 1_555 1_555
C121_2 C120_2 1_555 1_555
H62_2 C121_2 1_555 1_555
C122_2 C114_2 1_555 1_555
C123_2 C104_2 1_555 1_555
C124_2 C123_2 1_555 1_555
H63_2 C124_2 1_555 1_555
C125_2 C120_2 1_555 1_555
H64_2 C125_2 1_555 1_555
Ti7_2 O28_2 1_555 1_555
O41_2 Ti4_2 1_555 1_555
O44_2 Ti5 1_555 1_555
O46_2 Ti5 1_555 1_555
C13_2 C34_2 1_555 1_555
C15_2 C27_2 1_555 1_555
C36_2 C37_2 1_555 1_555
C37_2 C38_2 1_555 1_555
C39_2 C40_2 1_555 1_555
C95_2 C99_2 1_555 1_555
C101_2 C104_2 1_555 1_555
C121_2 C122_2 1_555 1_555
C122_2 C123_2 1_555 1_555
C124_2 C125_2 1_555 1_555
O3_3 Ti7 1_555 1_555
O9_3 Ti7 1_555 1_555
O10_3 C6_3 1_555 1_555
C3_3 C6_3 1_555 1_555
C6_3 O9_3 1_555 1_555
C7_3 O3_3 1_555 1_555
H1_3 C9_3 1_555 1_555
H2_3 C9_3 1_555 1_555
C12_3 C7_3 1_555 1_555
C22_3 C3_3 1_555 1_555
H10_3 C22_3 1_555 1_555
C28_3 H13_3 1_555 1_555
C29_3 C28_3 1_555 1_555
H14_3 C29_3 1_555 1_555
C30_3 C22_3 1_555 1_555
C31_3 C12_3 1_555 1_555
C32_3 C31_3 1_555 1_555
H15_3 C32_3 1_555 1_555
C33_3 C28_3 1_555 1_555
H16_3 C33_3 1_555 1_555
O18_2 C54_3 1_555 1_555
C54_3 C59_3 1_555 1_555
C59_3 C69_3 1_555 1_555
C61_3 H28_3 1_555 1_555
H29_3 C61_3 1_555 1_555
H31_3 C63_3 1_555 1_555
C64_3 C63_3 1_555 1_555
H32_3 C64_3 1_555 1_555
C69_3 H35_3 1_555 1_555
C73_3 C54_3 1_555 1_555
C81_3 H41_3 1_555 1_555
C82_3 C81_3 1_555 1_555
H42_3 C82_3 1_555 1_555
C83_3 C69_3 1_555 1_555
C84_3 C73_3 1_555 1_555
C85_3 C84_3 1_555 1_555
H43_3 C85_3 1_555 1_555
C86_3 C81_3 1_555 1_555
H44_3 C86_3 1_555 1_555
Ti8_2 O2_2 1_555 1_555
C3_3 C7_3 1_555 1_555
C9_3 C12_3 1_555 1_555
C29_3 C30_3 1_555 1_555
C30_3 C31_3 1_555 1_555
C32_3 C33_3 1_555 1_555
C61_3 C73_3 1_555 1_555
C82_3 C83_3 1_555 1_555
C83_3 C84_3 1_555 1_555
C85_3 C86_3 1_555 1_555
Ti6 O5_3 1_555 1_555
O1_3 C5_3 1_555 1_555
O5_3 C8_3 1_555 1_555
O6_3 Ti6 1_555 1_555
O7_2 C26_3 1_555 1_555
O8_3 C14_3 1_555 1_555
C1_3 C2_3 1_555 1_555
C2_3 C10_3 1_555 1_555
C4_3 C5_3 1_555 1_555
C5_3 C25_3 1_555 1_555
C8_3 C13_3 1_555 1_555
O11_3 C34_3 1_555 1_555
O12_3 C26_3 1_555 1_555
C10_3 C24_3 1_555 1_555
C11_3 C4_3 1_555 1_555
H3_3 C11_3 1_555 1_555
C13_3 C23_3 1_555 1_555
C14_3 O4_3 1_555 1_555
C15_3 H4_3 1_555 1_555
H5_3 C15_3 1_555 1_555
C16_3 H6_3 1_555 1_555
C17_3 C16_3 1_555 1_555
H7_3 C17_3 1_555 1_555
C18_3 C17_3 1_555 1_555
H8_3 C18_3 1_555 1_555
C19_3 C18_3 1_555 1_555
C20_3 C11_3 1_555 1_555
C21_3 C16_3 1_555 1_555
H9_3 C21_3 1_555 1_555
C23_3 H11_3 1_555 1_555
C24_3 H12_3 1_555 1_555
C25_3 C15_3 1_555 1_555
C26_3 C10_3 1_555 1_555
C27_3 C8_3 1_555 1_555
C34_3 O6_3 1_555 1_555
C35_3 H17_3 1_555 1_555
C36_3 C35_3 1_555 1_555
H18_3 C36_3 1_555 1_555
C37_3 C23_3 1_555 1_555
C38_3 C27_3 1_555 1_555
C39_3 C38_3 1_555 1_555
H19_3 C39_3 1_555 1_555
C40_3 C35_3 1_555 1_555
H20_3 C40_3 1_555 1_555
C41_3 H21_3 1_555 1_555
C42_3 C41_3 1_555 1_555
H22_3 C42_3 1_555 1_555
C43_3 C42_3 1_555 1_555
H23_3 C43_3 1_555 1_555
C44_3 C1_3 1_555 1_555
C45_3 C24_3 1_555 1_555
C46_3 C41_3 1_555 1_555
H24_3 C46_3 1_555 1_555
Ba1_3 O4_3 1_555 1_555
O14_3 C51_3 1_555 1_555
O17_3 Ba1_3 1_555 1_555
O48_2 C72_3 1_555 1_555
O21_3 Ba1_3 1_555 1_555
C47_3 C48_3 1_555 1_555
C48_3 C56_3 1_555 1_555
C50_3 C51_3 1_555 1_555
C51_3 C71_3 1_555 1_555
O25_3 C72_3 1_555 1_555
C56_3 C70_3 1_555 1_555
C57_3 C50_3 1_555 1_555
H27_3 C57_3 1_555 1_555
C60_3 O17_3 1_555 1_555
C62_3 H30_3 1_555 1_555
C66_3 C57_3 1_555 1_555
C67_3 C62_3 1_555 1_555
H33_3 C67_3 1_555 1_555
C70_3 H36_3 1_555 1_555
C72_3 C56_3 1_555 1_555
C87_3 H45_3 1_555 1_555
C88_3 C87_3 1_555 1_555
H46_3 C88_3 1_555 1_555
C89_3 C88_3 1_555 1_555
H47_3 C89_3 1_555 1_555
C90_3 C47_3 1_555 1_555
C91_3 C70_3 1_555 1_555
C92_3 C87_3 1_555 1_555
H48_3 C92_3 1_555 1_555
Ti9_2 O27_3 1_555 1_555
O27_3 C97_3 1_555 1_555
O42 C94_3 1_555 1_555
O29_3 Ti9_2 1_555 1_555
O30_3 Ba1_3 1_555 1_555
O49 C118_3 1_555 1_555
O34_3 Ba1_3 1_555 1_555
O35_3 Ti9_2 1_555 1_555
O36_3 C98_3 1_555 1_555
C93_3 C94_3 1_555 1_555
C94_3 C102_3 1_555 1_555
C95_3 C98_3 1_555 1_555
C96_3 C97_3 1_555 1_555
C97_3 C117_3 1_555 1_555
C98_3 O35_3 1_555 1_555
C99_3 O29_3 1_555 1_555
O38_3 C118_3 1_555 1_555
C101_3 C93_3 1_555 1_555
H49_3 C101_3 1_555 1_555
H50_3 C101_3 1_555 1_555
C102_3 C116_3 1_555 1_555
C103_3 C96_3 1_555 1_555
H51_3 C103_3 1_555 1_555
C104_3 C99_3 1_555 1_555
C106_3 O30_3 1_555 1_555
C108_3 H54_3 1_555 1_555
C112_3 C103_3 1_555 1_555
C113_3 C108_3 1_555 1_555
H57_3 C113_3 1_555 1_555
C114_3 C95_3 1_555 1_555
H58_3 C114_3 1_555 1_555
C116_3 H60_3 1_555 1_555
C118_3 C102_3 1_555 1_555
C120_3 H61_3 1_555 1_555
C121_3 C120_3 1_555 1_555
H62_3 C121_3 1_555 1_555
C122_3 C114_3 1_555 1_555
C123_3 C104_3 1_555 1_555
C124_3 C123_3 1_555 1_555
H63_3 C124_3 1_555 1_555
C125_3 C120_3 1_555 1_555
H64_3 C125_3 1_555 1_555
C133_3 H69_3 1_555 1_555
C134_3 C133_3 1_555 1_555
H70_3 C134_3 1_555 1_555
C135_3 C134_3 1_555 1_555
H71_3 C135_3 1_555 1_555
C136_3 C93_3 1_555 1_555
C137_3 C116_3 1_555 1_555
C138_3 C133_3 1_555 1_555
H72_3 C138_3 1_555 1_555
O39_3 Ba1_3 1_555 1_555
O43_2 Ti6 1_555 1_555
O45_2 Ti6 1_555 1_555
O8_3 Ba1_3 1_555 1_555
C4_3 C14_3 1_555 1_555
C13_3 C34_3 1_555 1_555
C15_3 C27_3 1_555 1_555
C19_3 C20_3 1_555 1_555
C19_3 C25_3 1_555 1_555
C20_3 C21_3 1_555 1_555
C36_3 C37_3 1_555 1_555
C37_3 C38_3 1_555 1_555
C39_3 C40_3 1_555 1_555
C43_3 C44_3 1_555 1_555
C44_3 C45_3 1_555 1_555
C45_3 C46_3 1_555 1_555
O21_3 C60_3 1_555 1_555
C50_3 C60_3 1_555 1_555
C65_3 C66_3 1_555 1_555
C65_3 C71_3 1_555 1_555
C66_3 C67_3 1_555 1_555
C89_3 C90_3 1_555 1_555
C90_3 C91_3 1_555 1_555
C91_3 C92_3 1_555 1_555
Ti9_2 O30_3 1_555 1_555
O34_3 C106_3 1_555 1_555
C95_3 C99_3 1_555 1_555
C96_3 C106_3 1_555 1_555
C101_3 C104_3 1_555 1_555
C111_3 C112_3 1_555 1_555
C111_3 C117_3 1_555 1_555
C112_3 C113_3 1_555 1_555
C121_3 C122_3 1_555 1_555
C122_3 C123_3 1_555 1_555
C124_3 C125_3 1_555 1_555
C135_3 C136_3 1_555 1_555
C136_3 C137_3 1_555 1_555
C137_3 C138_3 1_555 1_555
O16_3 Ti3_2 1_555 1_555
O22_3 Ti3_2 1_555 1_555
O23_3 C52_3 1_555 1_555
C49_3 C52_3 1_555 1_555
C52_3 O22_3 1_555 1_555
C53_3 O16_3 1_555 1_555
H25_3 C55_3 1_555 1_555
H26_3 C55_3 1_555 1_555
C58_3 C53_3 1_555 1_555
C68_3 C49_3 1_555 1_555
H34_3 C68_3 1_555 1_555
C74_3 H37_3 1_555 1_555
C75_3 C74_3 1_555 1_555
H38_3 C75_3 1_555 1_555
C76_3 C68_3 1_555 1_555
C77_3 C58_3 1_555 1_555
C78_3 C77_3 1_555 1_555
H39_3 C78_3 1_555 1_555
C79_3 C74_3 1_555 1_555
H40_3 C79_3 1_555 1_555
O44 C100_3 1_555 1_555
O46 C126_2 1_555 1_555
C100_3 C105_3 1_555 1_555
O37_2 C126_2 1_555 1_555
C105_3 C115_3 1_555 1_555
C107_3 H52_3 1_555 1_555
H53_3 C107_3 1_555 1_555
H55_3 C109_3 1_555 1_555
C110_3 C109_3 1_555 1_555
H56_3 C110_3 1_555 1_555
C115_3 H59_3 1_555 1_555
C119_3 C100_3 1_555 1_555
C126_2 C105_3 1_555 1_555
C127_3 H65_3 1_555 1_555
C128_3 C127_3 1_555 1_555
H66_3 C128_3 1_555 1_555
C129_3 C115_3 1_555 1_555
C130_3 C119_3 1_555 1_555
C131_3 C130_3 1_555 1_555
H67_3 C131_3 1_555 1_555
C132_3 C127_3 1_555 1_555
H68_3 C132_3 1_555 1_555
O40_2 Ti3_2 1_555 1_555
C49_3 C53_3 1_555 1_555
C55_3 C58_3 1_555 1_555
C75_3 C76_3 1_555 1_555
C76_3 C77_3 1_555 1_555
C78_3 C79_3 1_555 1_555
C107_3 C119_3 1_555 1_555
C128_3 C129_3 1_555 1_555
C129_3 C130_3 1_555 1_555
C131_3 C132_3 1_555 1_555
O5_4 C8_4 1_555 1_555
C8_4 C13_4 1_555 1_555
C13_4 C23_4 1_555 1_555
C15_4 H4_4 1_555 1_555
H5_4 C15_4 1_555 1_555
H7_4 C17_4 1_555 1_555
C18_4 C17_4 1_555 1_555
H8_4 C18_4 1_555 1_555
C23_4 H11_4 1_555 1_555
C27_4 C8_4 1_555 1_555
C35_4 H17_4 1_555 1_555
C36_4 C35_4 1_555 1_555
H18_4 C36_4 1_555 1_555
C37_4 C23_4 1_555 1_555
C38_4 C27_4 1_555 1_555
C39_4 C38_4 1_555 1_555
H19_4 C39_4 1_555 1_555
C40_4 C35_4 1_555 1_555
H20_4 C40_4 1_555 1_555
O29_4 Ti9 1_555 1_555
O35_4 Ti9 1_555 1_555
O36_4 C98_4 1_555 1_555
C95_4 C98_4 1_555 1_555
C98_4 O35_4 1_555 1_555
C99_4 O29_4 1_555 1_555
H49_4 C101_4 1_555 1_555
H50_4 C101_4 1_555 1_555
C104_4 C99_4 1_555 1_555
C114_4 C95_4 1_555 1_555
H58_4 C114_4 1_555 1_555
C120_4 H61_4 1_555 1_555
C121_4 C120_4 1_555 1_555
H62_4 C121_4 1_555 1_555
C122_4 C114_4 1_555 1_555
C123_4 C104_4 1_555 1_555
C124_4 C123_4 1_555 1_555
H63_4 C124_4 1_555 1_555
C125_4 C120_4 1_555 1_555
H64_4 C125_4 1_555 1_555
C15_4 C27_4 1_555 1_555
C36_4 C37_4 1_555 1_555
C37_4 C38_4 1_555 1_555
C39_4 C40_4 1_555 1_555
C95_4 C99_4 1_555 1_555
C101_4 C104_4 1_555 1_555
C121_4 C122_4 1_555 1_555
C122_4 C123_4 1_555 1_555
C124_4 C125_4 1_555 1_555
O1_4 C5_4 1_555 1_555
O47_2 C26_4 1_555 1_555
O8_4 C14_4 1_555 1_555
C1_4 C2_4 1_555 1_555
C2_4 C10_4 1_555 1_555
C4_4 C5_4 1_555 1_555
C5_4 C25_4 1_555 1_555
O12_4 C26_4 1_555 1_555
C10_4 C24_4 1_555 1_555
C11_4 C4_4 1_555 1_555
H3_4 C11_4 1_555 1_555
C14_4 O4_4 1_555 1_555
C16_4 H6_4 1_555 1_555
C20_4 C11_4 1_555 1_555
C21_4 C16_4 1_555 1_555
H9_4 C21_4 1_555 1_555
C24_4 H12_4 1_555 1_555
C26_4 C10_4 1_555 1_555
C41_4 H21_4 1_555 1_555
C42_4 C41_4 1_555 1_555
H22_4 C42_4 1_555 1_555
C43_4 C42_4 1_555 1_555
H23_4 C43_4 1_555 1_555
C44_4 C1_4 1_555 1_555
C45_4 C24_4 1_555 1_555
C46_4 C41_4 1_555 1_555
H24_4 C46_4 1_555 1_555
Ba1_4 O4_4 1_555 1_555
Ti8_2 O14_4 1_555 1_555
O14_4 C51_4 1_555 1_555
O41 C48_4 1_555 1_555
O16_4 Ti8_2 1_555 1_555
O17_4 Ba1_4 1_555 1_555
O48 C72_4 1_555 1_555
O21_4 Ba1_4 1_555 1_555
O22_4 Ti8_2 1_555 1_555
O23_4 C52_4 1_555 1_555
C47_4 C48_4 1_555 1_555
C48_4 C56_4 1_555 1_555
C49_4 C52_4 1_555 1_555
C50_4 C51_4 1_555 1_555
C51_4 C71_4 1_555 1_555
C52_4 O22_4 1_555 1_555
C53_4 O16_4 1_555 1_555
O25_4 C72_4 1_555 1_555
C55_4 C47_4 1_555 1_555
H25_4 C55_4 1_555 1_555
H26_4 C55_4 1_555 1_555
C56_4 C70_4 1_555 1_555
C57_4 C50_4 1_555 1_555
H27_4 C57_4 1_555 1_555
C58_4 C53_4 1_555 1_555
C60_4 O17_4 1_555 1_555
C62_4 H30_4 1_555 1_555
C66_4 C57_4 1_555 1_555
C67_4 C62_4 1_555 1_555
H33_4 C67_4 1_555 1_555
C68_4 C49_4 1_555 1_555
H34_4 C68_4 1_555 1_555
C70_4 H36_4 1_555 1_555
C72_4 C56_4 1_555 1_555
C74_4 H37_4 1_555 1_555
C75_4 C74_4 1_555 1_555
H38_4 C75_4 1_555 1_555
C76_4 C68_4 1_555 1_555
C77_4 C58_4 1_555 1_555
C78_4 C77_4 1_555 1_555
H39_4 C78_4 1_555 1_555
C79_4 C74_4 1_555 1_555
H40_4 C79_4 1_555 1_555
C87_4 H45_4 1_555 1_555
C88_4 C87_4 1_555 1_555
H46_4 C88_4 1_555 1_555
C89_4 C88_4 1_555 1_555
H47_4 C89_4 1_555 1_555
C90_4 C47_4 1_555 1_555
C91_4 C70_4 1_555 1_555
C92_4 C87_4 1_555 1_555
H48_4 C92_4 1_555 1_555
O26_4 Ba1_4 1_555 1_555
O27_4 C97_4 1_555 1_555
O30_4 Ba1_4 1_555 1_555
O44_2 C100_4 1_555 1_555
O46_2 C126_3 1_555 1_555
O49_2 C118_4 1_555 1_555
O34_4 Ba1_4 1_555 1_555
C93_4 C94_4 1_555 1_555
C94_4 C102_4 1_555 1_555
C96_4 C97_4 1_555 1_555
C97_4 C117_4 1_555 1_555
C100_4 C105_4 1_555 1_555
O37_3 C126_3 1_555 1_555
O38_4 C118_4 1_555 1_555
C102_4 C116_4 1_555 1_555
C103_4 C96_4 1_555 1_555
H51_4 C103_4 1_555 1_555
C105_4 C115_4 1_555 1_555
C106_4 O30_4 1_555 1_555
C107_4 H52_4 1_555 1_555
H53_4 C107_4 1_555 1_555
C108_4 H54_4 1_555 1_555
C109_4 C108_4 1_555 1_555
H55_4 C109_4 1_555 1_555
C110_4 C109_4 1_555 1_555
H56_4 C110_4 1_555 1_555
C111_4 C110_4 1_555 1_555
C112_4 C103_4 1_555 1_555
C113_4 C108_4 1_555 1_555
H57_4 C113_4 1_555 1_555
C115_4 H59_4 1_555 1_555
C116_4 H60_4 1_555 1_555
C117_4 C107_4 1_555 1_555
C118_4 C102_4 1_555 1_555
C119_4 C100_4 1_555 1_555
C126_3 C105_4 1_555 1_555
C127_4 H65_4 1_555 1_555
C128_4 C127_4 1_555 1_555
H66_4 C128_4 1_555 1_555
C129_4 C115_4 1_555 1_555
C130_4 C119_4 1_555 1_555
C131_4 C130_4 1_555 1_555
H67_4 C131_4 1_555 1_555
C132_4 C127_4 1_555 1_555
H68_4 C132_4 1_555 1_555
C133_4 H69_4 1_555 1_555
C134_4 C133_4 1_555 1_555
H70_4 C134_4 1_555 1_555
C135_4 C134_4 1_555 1_555
H71_4 C135_4 1_555 1_555
C136_4 C93_4 1_555 1_555
C137_4 C116_4 1_555 1_555
C138_4 C133_4 1_555 1_555
H72_4 C138_4 1_555 1_555
O8_4 Ba1_4 1_555 1_555
C4_4 C14_4 1_555 1_555
C19_4 C20_4 1_555 1_555
C19_4 C25_4 1_555 1_555
C20_4 C21_4 1_555 1_555
C43_4 C44_4 1_555 1_555
C44_4 C45_4 1_555 1_555
C45_4 C46_4 1_555 1_555
Ti8_2 O17_4 1_555 1_555
O21_4 C60_4 1_555 1_555
C49_4 C53_4 1_555 1_555
C50_4 C60_4 1_555 1_555
C55_4 C58_4 1_555 1_555
C65_4 C66_4 1_555 1_555
C65_4 C71_4 1_555 1_555
C66_4 C67_4 1_555 1_555
C75_4 C76_4 1_555 1_555
C76_4 C77_4 1_555 1_555
C78_4 C79_4 1_555 1_555
C89_4 C90_4 1_555 1_555
C90_4 C91_4 1_555 1_555
C91_4 C92_4 1_555 1_555
O34_4 C106_4 1_555 1_555
C96_4 C106_4 1_555 1_555
C107_4 C119_4 1_555 1_555
C111_4 C112_4 1_555 1_555
C111_4 C117_4 1_555 1_555
C112_4 C113_4 1_555 1_555
C128_4 C129_4 1_555 1_555
C129_4 C130_4 1_555 1_555
C131_4 C132_4 1_555 1_555
C135_4 C136_4 1_555 1_555
C136_4 C137_4 1_555 1_555
C137_4 C138_4 1_555 1_555
O3_4 Ti7_2 1_555 1_555
O9_4 Ti7_2 1_555 1_555
O10_4 C6_4 1_555 1_555
C3_4 C6_4 1_555 1_555
C6_4 O9_4 1_555 1_555
C7_4 O3_4 1_555 1_555
H1_4 C9_4 1_555 1_555
H2_4 C9_4 1_555 1_555
C12_4 C7_4 1_555 1_555
C22_4 C3_4 1_555 1_555
H10_4 C22_4 1_555 1_555
C28_4 H13_4 1_555 1_555
C29_4 C28_4 1_555 1_555
H14_4 C29_4 1_555 1_555
C30_4 C22_4 1_555 1_555
C31_4 C12_4 1_555 1_555
C32_4 C31_4 1_555 1_555
H15_4 C32_4 1_555 1_555
C33_4 C28_4 1_555 1_555
H16_4 C33_4 1_555 1_555
O43_2 C54_4 1_555 1_555
O45_2 C80_3 1_555 1_555
C54_4 C59_4 1_555 1_555
O24_3 C80_3 1_555 1_555
C59_4 C69_4 1_555 1_555
C61_4 H28_4 1_555 1_555
H29_4 C61_4 1_555 1_555
H31_4 C63_4 1_555 1_555
C64_4 C63_4 1_555 1_555
H32_4 C64_4 1_555 1_555
C69_4 H35_4 1_555 1_555
C73_4 C54_4 1_555 1_555
C80_3 C59_4 1_555 1_555
C81_4 H41_4 1_555 1_555
C82_4 C81_4 1_555 1_555
H42_4 C82_4 1_555 1_555
C83_4 C69_4 1_555 1_555
C84_4 C73_4 1_555 1_555
C85_4 C84_4 1_555 1_555
H43_4 C85_4 1_555 1_555
C86_4 C81_4 1_555 1_555
H44_4 C86_4 1_555 1_555
C3_4 C7_4 1_555 1_555
C9_4 C12_4 1_555 1_555
C29_4 C30_4 1_555 1_555
C30_4 C31_4 1_555 1_555
C32_4 C33_4 1_555 1_555
C61_4 C73_4 1_555 1_555
C82_4 C83_4 1_555 1_555
C83_4 C84_4 1_555 1_555
C85_4 C86_4 1_555 1_555
O32_2 C126_4 1_555 1_555
O37_4 C126_4 1_555 1_555
O32_2 Ti6_2 1_555 1_555
O19_2 C80_4 1_555 1_555
O24_4 C80_4 1_555 1_555
O19_2 Ti6_2 1_555 1_555
O6_4 Ti6_2 1_555 1_555
O11_4 C34_4 1_555 1_555
C34_4 O6_4 1_555 1_555

#END
