
###############################################################################
#
# This file contains modified crystal structure data generated from the
# MOF subset of the Cambridge Structural Database (CSD) v543 
# hosted by the Cambridge Crystallographic Data Centre (CCDC).
#
# This work is licensed under the Creative Commons
# Attribution-NonCommercial-ShareAlike 4.0 International License.
# To view a copy of this license, visit
# http://creativecommons.org/licenses/by-nc-sa/4.0/
# or send a letter to
# Creative Commons, PO Box 1866, Mountain View, CA 94042, USA.
#
# CIF created using the CSD Python API on 29 September 2022
# The structure has been converted into the P1 space group
# The structure has a 3D framework
# The original CSD entry LASPOM is in the monoclinic crystal system
# The framework has been calculated to contain at least 10.0% void space
# The void calculation uses a probe of radius 1.32A, grid spacing 0.4
#
###############################################################################

data_LASPOM
_chemical_formula_moiety         '(C184 H104 Cu8 N16 O24)n'
_symmetry_cell_setting           triclinic
_symmetry_space_group_name_H-M   'P 1'
_symmetry_Int_Tables_number      1
_space_group_name_Hall           'P 1'
loop_
_symmetry_equiv_pos_site_id
_symmetry_equiv_pos_as_xyz
1 x,y,z
_cell_length_a                   18.101(4)
_cell_length_b                   15.391(4)
_cell_length_c                   16.678(4)
_cell_angle_alpha                90
_cell_angle_beta                 111.648(3)
_cell_angle_gamma                90
_cell_volume                     4318.65
loop_
_atom_site_label
_atom_site_type_symbol
_atom_site_fract_x
_atom_site_fract_y
_atom_site_fract_z
H5 H 0.0613 0.0003 0.2460
C12 C 0.2335(5) 0.0507(5) 0.3979(5)
H6 H 0.1897 0.0547 0.4140
C13 C 0.2401(6) 0.1108(5) 0.3381(5)
H7 H 0.2012 0.1528 0.3141
C14 C 0.3062(6) 0.1056(5) 0.3158(5)
H8 H 0.3126 0.1448 0.2764
C15 C 0.3638(5) 0.0415(5) 0.3524(4)
C23 C 0.4319(5) 0.0320(6) 0.3322(5)
H13 H 0.4397 0.0689 0.2919
O3 O 0.2020(3) 0.0301(3) 0.0638(3)
O4 O 0.3292(3) 0.0015(3) 0.1213(3)
Cu4 Cu 0.28330(5) 0.10607(5) 0.02538(5)
C1 C 0.2599(4) 0.9877(4) 0.1152(4)
C2 C 0.2449(4) 0.9226(4) 0.1755(4)
C3 C 0.3029(4) 0.8645(4) 0.2238(4)
H1 H 0.3507 0.8609 0.2152
C4 C 0.2897(4) 0.8114(4) 0.2850(4)
H2 H 0.3285 0.7722 0.3169
C5 C 0.2181(4) 0.8174(4) 0.2982(4)
C6 C 0.1573(4) 0.8696(4) 0.2457(4)
C7 C 0.1718(4) 0.9231(4) 0.1834(4)
H3 H 0.1316 0.9588 0.1479
C8 C 0.0774(4) 0.8711(4) 0.2487(4)
C9 C 0.0381(4) 0.7930(4) 0.2493(4)
H4 H 0.0634 0.7405 0.2489
C10 C 0.0371(4) 0.9476(4) 0.2484(5)
C11 C 0.2099(4) 0.7702(4) 0.3750(4)
C16 C 0.3515(4) 0.9839(4) 0.4119(4)
C17 C 0.4058(4) 0.9164(4) 0.4493(4)
C18 C 0.4383(4) 0.7948(5) 0.5380(4)
H9 H 0.4274 0.7565 0.5753
C19 C 0.5075(5) 0.7826(6) 0.5202(5)
H10 H 0.5408 0.7358 0.5444
C20 C 0.5259(5) 0.8388(6) 0.4679(5)
H11 H 0.5725 0.8314 0.4573
C21 C 0.4754(4) 0.9072(5) 0.4302(4)
C22 C 0.4861(5) 0.9704(6) 0.3700(5)
H12 H 0.5320 0.9679 0.3574
Cu1 Cu 0.28330(5) 0.89393(5) 0.52538(5)
N1 N 0.3877(3) 0.8595(3) 0.5032(3)
N2 N 0.2859(3) 0.9883(3) 0.4331(3)
O1 O 0.2027(2) 0.8159(3) 0.4338(2)
O2 O 0.2083(3) 0.6884(3) 0.3733(3)
Cu3 Cu 0.21670(5) 0.60607(5) 0.47462(5)
O7 O 0.2917(3) 0.8116(3) 0.6267(3)
O10 O 0.2020(3) 0.9699(3) 0.5638(3)
O13 O 0.3292(3) 0.9985(3) 0.6213(3)
H18 H 0.9387 0.0003 0.2540
C35 C 0.7665(5) 0.0507(5) 0.1021(5)
H19 H 0.8103 0.0547 0.0860
C36 C 0.7599(6) 0.1108(5) 0.1619(5)
H20 H 0.7988 0.1528 0.1859
C37 C 0.6938(6) 0.1056(5) 0.1842(5)
H21 H 0.6874 0.1448 0.2236
C38 C 0.6362(5) 0.0415(5) 0.1476(4)
C46 C 0.5681(5) 0.0320(6) 0.1678(5)
H26 H 0.5603 0.0689 0.2081
Cu5 Cu 0.71670(5) 0.10607(5) 0.47462(5)
O9 O 0.7980(3) 0.0301(3) 0.4362(3)
O12 O 0.6708(3) 0.0015(3) 0.3787(3)
C24 C 0.7401(4) 0.9877(4) 0.3848(4)
C25 C 0.7551(4) 0.9226(4) 0.3245(4)
C26 C 0.6971(4) 0.8645(4) 0.2762(4)
H14 H 0.6493 0.8609 0.2848
C27 C 0.7103(4) 0.8114(4) 0.2150(4)
H15 H 0.6715 0.7722 0.1831
C28 C 0.7819(4) 0.8174(4) 0.2018(4)
C29 C 0.8427(4) 0.8696(4) 0.2543(4)
C30 C 0.8282(4) 0.9231(4) 0.3166(4)
H16 H 0.8684 0.9588 0.3521
C31 C 0.9226(4) 0.8711(4) 0.2513(4)
C32 C 0.9619(4) 0.7930(4) 0.2507(4)
H17 H 0.9366 0.7405 0.2511
C33 C 0.9629(4) 0.9476(4) 0.2516(5)
C34 C 0.7901(4) 0.7702(4) 0.1250(4)
C39 C 0.6485(4) 0.9839(4) 0.0881(4)
C40 C 0.5942(4) 0.9164(4) 0.0507(4)
C43 C 0.4741(5) 0.8388(6) 0.0321(5)
H24 H 0.4275 0.8314 0.0427
C44 C 0.5246(4) 0.9072(5) 0.0698(4)
C45 C 0.5139(5) 0.9704(6) 0.1300(5)
H25 H 0.4680 0.9679 0.1426
Cu6 Cu 0.78330(5) 0.60607(5) 0.02538(5)
N4 N 0.7141(3) 0.9883(3) 0.0669(3)
O5 O 0.7973(2) 0.8159(3) 0.0662(2)
O6 O 0.7917(3) 0.6884(3) 0.1267(3)
C41 C 0.5617(4) 0.7948(5) 0.9620(4)
H22 H 0.5726 0.7565 0.9247
C42 C 0.4925(5) 0.7826(6) 0.9798(5)
H23 H 0.4592 0.7358 0.9556
Cu2 Cu 0.71670(5) 0.89393(5) 0.97462(5)
N3 N 0.6123(3) 0.8595(3) 0.9968(3)
O8 O 0.7083(3) 0.8116(3) 0.8733(3)
O11 O 0.7980(3) 0.9699(3) 0.9362(3)
O14 O 0.6708(3) 0.9985(3) 0.8787(3)
C1_2 C 0.7599(4) 0.4877(4) 0.1152(4)
C2_2 C 0.7449(4) 0.4226(4) 0.1755(4)
C3_2 C 0.8029(4) 0.3645(4) 0.2238(4)
H1_2 H 0.8507 0.3609 0.2152
C4_2 C 0.7897(4) 0.3114(4) 0.2850(4)
H2_2 H 0.8285 0.2722 0.3169
C5_2 C 0.7181(4) 0.3174(4) 0.2982(4)
C6_2 C 0.6573(4) 0.3696(4) 0.2457(4)
C7_2 C 0.6718(4) 0.4231(4) 0.1834(4)
H3_2 H 0.6316 0.4588 0.1479
C8_2 C 0.5774(4) 0.3711(4) 0.2487(4)
C9_2 C 0.5381(4) 0.2930(4) 0.2493(4)
H4_2 H 0.5634 0.2405 0.2489
C10_2 C 0.5371(4) 0.4476(4) 0.2484(5)
H5_2 H 0.5613 0.5003 0.2460
C11_2 C 0.7099(4) 0.2702(4) 0.3750(4)
C12_2 C 0.7335(5) 0.5507(5) 0.3979(5)
H6_2 H 0.6897 0.5547 0.4140
C13_2 C 0.7401(6) 0.6108(5) 0.3381(5)
H7_2 H 0.7012 0.6528 0.3141
C14_2 C 0.8062(6) 0.6056(5) 0.3158(5)
H8_2 H 0.8126 0.6448 0.2764
C15_2 C 0.8638(5) 0.5415(5) 0.3524(4)
C16_2 C 0.8515(4) 0.4839(4) 0.4119(4)
C17_2 C 0.9058(4) 0.4164(4) 0.4493(4)
C18_2 C 0.9383(4) 0.2948(5) 0.5380(4)
H9_2 H 0.9274 0.2565 0.5753
C21_2 C 0.9754(4) 0.4072(5) 0.4302(4)
C22_2 C 0.9861(5) 0.4704(6) 0.3700(5)
C23_2 C 0.9319(5) 0.5320(6) 0.3322(5)
H13_2 H 0.9397 0.5689 0.2919
Cu1_2 Cu 0.78330(5) 0.39393(5) 0.52538(5)
N1_2 N 0.8877(3) 0.3595(3) 0.5032(3)
N2_2 N 0.7859(3) 0.4883(3) 0.4331(3)
O1_2 O 0.7027(2) 0.3159(3) 0.4338(2)
O2_2 O 0.7083(3) 0.1884(3) 0.3733(3)
O3_2 O 0.7020(3) 0.5301(3) 0.0638(3)
O4_2 O 0.8292(3) 0.5015(3) 0.1213(3)
C24_2 C 0.2401(4) 0.4877(4) 0.3848(4)
C25_2 C 0.2551(4) 0.4226(4) 0.3245(4)
C26_2 C 0.1971(4) 0.3645(4) 0.2762(4)
H14_2 H 0.1493 0.3609 0.2848
C27_2 C 0.2103(4) 0.3114(4) 0.2150(4)
H15_2 H 0.1715 0.2722 0.1831
C28_2 C 0.2819(4) 0.3174(4) 0.2018(4)
C29_2 C 0.3427(4) 0.3696(4) 0.2543(4)
C30_2 C 0.3282(4) 0.4231(4) 0.3166(4)
H16_2 H 0.3684 0.4588 0.3521
C31_2 C 0.4226(4) 0.3711(4) 0.2513(4)
C32_2 C 0.4619(4) 0.2930(4) 0.2507(4)
H17_2 H 0.4366 0.2405 0.2511
C33_2 C 0.4629(4) 0.4476(4) 0.2516(5)
H18_2 H 0.4387 0.5003 0.2540
C34_2 C 0.2901(4) 0.2702(4) 0.1250(4)
C35_2 C 0.2665(5) 0.5507(5) 0.1021(5)
H19_2 H 0.3103 0.5547 0.0860
C36_2 C 0.2599(6) 0.6108(5) 0.1619(5)
H20_2 H 0.2988 0.6528 0.1859
C37_2 C 0.1938(6) 0.6056(5) 0.1842(5)
H21_2 H 0.1874 0.6448 0.2236
C38_2 C 0.1362(5) 0.5415(5) 0.1476(4)
C39_2 C 0.1485(4) 0.4839(4) 0.0881(4)
C40_2 C 0.0942(4) 0.4164(4) 0.0507(4)
C44_2 C 0.0246(4) 0.4072(5) 0.0698(4)
C45_2 C 0.0139(5) 0.4704(6) 0.1300(5)
C46_2 C 0.0681(5) 0.5320(6) 0.1678(5)
H26_2 H 0.0603 0.5689 0.2081
N4_2 N 0.2141(3) 0.4883(3) 0.0669(3)
O5_2 O 0.2973(2) 0.3159(3) 0.0662(2)
O6_2 O 0.2917(3) 0.1884(3) 0.1267(3)
O7_2 O 0.7917(3) 0.3116(3) 0.6267(3)
O9_2 O 0.2980(3) 0.5301(3) 0.4362(3)
O10_2 O 0.7020(3) 0.4699(3) 0.5638(3)
O12_2 O 0.1708(3) 0.5015(3) 0.3787(3)
O13_2 O 0.8292(3) 0.4985(3) 0.6213(3)
C41_2 C 0.0617(4) 0.2948(5) 0.9620(4)
H22_2 H 0.0726 0.2565 0.9247
Cu2_2 Cu 0.21670(5) 0.39393(5) 0.97462(5)
N3_2 N 0.1123(3) 0.3595(3) 0.9968(3)
O8_2 O 0.2083(3) 0.3116(3) 0.8733(3)
O11_2 O 0.2980(3) 0.4699(3) 0.9362(3)
O14_2 O 0.1708(3) 0.4985(3) 0.8787(3)
C41_3 C 0.4383(4) 0.2052(5) 0.0380(4)
H22_3 H 0.4274 0.2435 0.0753
C42_2 C 0.5075(5) 0.2174(6) 0.0202(5)
H23_2 H 0.5408 0.2642 0.0444
N3_3 N 0.3877(3) 0.1405(3) 0.0032(3)
C24_3 C 0.2599(4) 0.0123(4) 0.6152(4)
C25_3 C 0.2449(4) 0.0774(4) 0.6755(4)
C26_3 C 0.3029(4) 0.1355(4) 0.7238(4)
H14_3 H 0.3507 0.1391 0.7152
C27_3 C 0.2897(4) 0.1886(4) 0.7850(4)
H15_3 H 0.3285 0.2278 0.8169
C28_3 C 0.2181(4) 0.1826(4) 0.7982(4)
C29_3 C 0.1573(4) 0.1304(4) 0.7457(4)
C30_3 C 0.1718(4) 0.0769(4) 0.6834(4)
H16_3 H 0.1316 0.0412 0.6479
C31_3 C 0.0774(4) 0.1289(4) 0.7487(4)
C32_3 C 0.0381(4) 0.2070(4) 0.7493(4)
H17_3 H 0.0634 0.2595 0.7489
C33_3 C 0.0371(4) 0.0524(4) 0.7484(5)
C34_3 C 0.2099(4) 0.2298(4) 0.8750(4)
C39_3 C 0.3515(4) 0.0161(4) 0.9119(4)
C40_3 C 0.4058(4) 0.0836(4) 0.9493(4)
C43_2 C 0.5259(5) 0.1612(6) 0.9679(5)
H24_2 H 0.5725 0.1686 0.9573
C44_3 C 0.4754(4) 0.0928(5) 0.9302(4)
C45_3 C 0.4861(5) 0.0296(6) 0.8700(5)
H25_2 H 0.5320 0.0321 0.8574
N4_3 N 0.2859(3) 0.0117(3) 0.9331(3)
O5_3 O 0.2027(2) 0.1841(3) 0.9338(2)
H18_3 H 0.0613 0.9997 0.7460
C35_3 C 0.2335(5) 0.9493(5) 0.8979(5)
H19_3 H 0.1897 0.9453 0.9140
C36_3 C 0.2401(6) 0.8892(5) 0.8381(5)
H20_3 H 0.2012 0.8472 0.8141
C37_3 C 0.3062(6) 0.8944(5) 0.8158(5)
H21_3 H 0.3126 0.8552 0.7764
C38_3 C 0.3638(5) 0.9585(5) 0.8524(4)
C46_3 C 0.4319(5) 0.9680(6) 0.8322(5)
H26_3 H 0.4397 0.9311 0.7919
C1_3 C 0.7401(4) 0.0123(4) 0.8848(4)
C2_3 C 0.7551(4) 0.0774(4) 0.8245(4)
C3_3 C 0.6971(4) 0.1355(4) 0.7762(4)
H1_3 H 0.6493 0.1391 0.7848
C4_3 C 0.7103(4) 0.1886(4) 0.7150(4)
H2_3 H 0.6715 0.2278 0.6831
C5_3 C 0.7819(4) 0.1826(4) 0.7018(4)
C6_3 C 0.8427(4) 0.1304(4) 0.7543(4)
C7_3 C 0.8282(4) 0.0769(4) 0.8166(4)
H3_3 H 0.8684 0.0412 0.8521
C8_3 C 0.9226(4) 0.1289(4) 0.7513(4)
C9_3 C 0.9619(4) 0.2070(4) 0.7507(4)
H4_3 H 0.9366 0.2595 0.7511
C10_3 C 0.9629(4) 0.0524(4) 0.7516(5)
C11_3 C 0.7901(4) 0.2298(4) 0.6250(4)
C16_3 C 0.6485(4) 0.0161(4) 0.5881(4)
C17_3 C 0.5942(4) 0.0836(4) 0.5507(4)
C18_3 C 0.5617(4) 0.2052(5) 0.4620(4)
H9_3 H 0.5726 0.2435 0.4247
C19_2 C 0.4925(5) 0.2174(6) 0.4798(5)
H10_2 H 0.4592 0.2642 0.4556
C20_2 C 0.4741(5) 0.1612(6) 0.5321(5)
H11_2 H 0.4275 0.1686 0.5427
C21_3 C 0.5246(4) 0.0928(5) 0.5698(4)
C22_3 C 0.5139(5) 0.0296(6) 0.6300(5)
H12_2 H 0.4680 0.0321 0.6426
N1_3 N 0.6123(3) 0.1405(3) 0.4968(3)
N2_3 N 0.7141(3) 0.0117(3) 0.5669(3)
O1_3 O 0.7973(2) 0.1841(3) 0.5662(2)
H5_3 H 0.9387 0.9997 0.7540
C12_3 C 0.7665(5) 0.9493(5) 0.6021(5)
H6_3 H 0.8103 0.9453 0.5860
C13_3 C 0.7599(6) 0.8892(5) 0.6619(5)
H7_3 H 0.7988 0.8472 0.6859
C14_3 C 0.6938(6) 0.8944(5) 0.6842(5)
H8_3 H 0.6874 0.8552 0.7236
C15_3 C 0.6362(5) 0.9585(5) 0.6476(4)
C23_3 C 0.5681(5) 0.9680(6) 0.6678(5)
H13_3 H 0.5603 0.9311 0.7081
C41_4 C 0.9383(4) 0.7052(5) 0.0380(4)
H22_4 H 0.9274 0.7435 0.0753
N3_4 N 0.8877(3) 0.6405(3) 0.0032(3)
C1_4 C 0.2401(4) 0.5123(4) 0.8848(4)
C2_4 C 0.2551(4) 0.5774(4) 0.8245(4)
C3_4 C 0.1971(4) 0.6355(4) 0.7762(4)
H1_4 H 0.1493 0.6391 0.7848
C4_4 C 0.2103(4) 0.6886(4) 0.7150(4)
H2_4 H 0.1715 0.7278 0.6831
C5_4 C 0.2819(4) 0.6826(4) 0.7018(4)
C6_4 C 0.3427(4) 0.6304(4) 0.7543(4)
C7_4 C 0.3282(4) 0.5769(4) 0.8166(4)
H3_4 H 0.3684 0.5412 0.8521
C8_4 C 0.4226(4) 0.6289(4) 0.7513(4)
C9_4 C 0.4619(4) 0.7070(4) 0.7507(4)
H4_4 H 0.4366 0.7595 0.7511
C10_4 C 0.4629(4) 0.5524(4) 0.7516(5)
H5_4 H 0.4387 0.4997 0.7540
C11_4 C 0.2901(4) 0.7298(4) 0.6250(4)
C12_4 C 0.2665(5) 0.4493(5) 0.6021(5)
H6_4 H 0.3103 0.4453 0.5860
C13_4 C 0.2599(6) 0.3892(5) 0.6619(5)
H7_4 H 0.2988 0.3472 0.6859
C14_4 C 0.1938(6) 0.3944(5) 0.6842(5)
H8_4 H 0.1874 0.3552 0.7236
C15_4 C 0.1362(5) 0.4585(5) 0.6476(4)
C16_4 C 0.1485(4) 0.5161(4) 0.5881(4)
C17_4 C 0.0942(4) 0.5836(4) 0.5507(4)
C18_4 C 0.0617(4) 0.7052(5) 0.4620(4)
H9_4 H 0.0726 0.7435 0.4247
C21_4 C 0.0246(4) 0.5928(5) 0.5698(4)
C22_4 C 0.0139(5) 0.5296(6) 0.6300(5)
C23_4 C 0.0681(5) 0.4680(6) 0.6678(5)
H13_4 H 0.0603 0.4311 0.7081
N1_4 N 0.1123(3) 0.6405(3) 0.4968(3)
N2_4 N 0.2141(3) 0.5117(3) 0.5669(3)
O1_4 O 0.2973(2) 0.6841(3) 0.5662(2)
C24_4 C 0.7599(4) 0.5123(4) 0.6152(4)
C25_4 C 0.7449(4) 0.5774(4) 0.6755(4)
C26_4 C 0.8029(4) 0.6355(4) 0.7238(4)
H14_4 H 0.8507 0.6391 0.7152
C27_4 C 0.7897(4) 0.6886(4) 0.7850(4)
H15_4 H 0.8285 0.7278 0.8169
C28_4 C 0.7181(4) 0.6826(4) 0.7982(4)
C29_4 C 0.6573(4) 0.6304(4) 0.7457(4)
C30_4 C 0.6718(4) 0.5769(4) 0.6834(4)
H16_4 H 0.6316 0.5412 0.6479
C31_4 C 0.5774(4) 0.6289(4) 0.7487(4)
C32_4 C 0.5381(4) 0.7070(4) 0.7493(4)
H17_4 H 0.5634 0.7595 0.7489
C33_4 C 0.5371(4) 0.5524(4) 0.7484(5)
H18_4 H 0.5613 0.4997 0.7460
C34_4 C 0.7099(4) 0.7298(4) 0.8750(4)
C35_4 C 0.7335(5) 0.4493(5) 0.8979(5)
H19_4 H 0.6897 0.4453 0.9140
C36_4 C 0.7401(6) 0.3892(5) 0.8381(5)
H20_4 H 0.7012 0.3472 0.8141
C37_4 C 0.8062(6) 0.3944(5) 0.8158(5)
H21_4 H 0.8126 0.3552 0.7764
C38_4 C 0.8638(5) 0.4585(5) 0.8524(4)
C39_4 C 0.8515(4) 0.5161(4) 0.9119(4)
C40_4 C 0.9058(4) 0.5836(4) 0.9493(4)
C44_4 C 0.9754(4) 0.5928(5) 0.9302(4)
C45_4 C 0.9861(5) 0.5296(6) 0.8700(5)
C46_4 C 0.9319(5) 0.4680(6) 0.8322(5)
H26_4 H 0.9397 0.4311 0.7919
N4_4 N 0.7859(3) 0.5117(3) 0.9331(3)
O5_4 O 0.7027(2) 0.6841(3) 0.9338(2)
C19_3 C 0.0075(5) 0.2826(6) 0.5202(5)
H10_3 H 0.0408 0.2358 0.5444
C20_3 C 0.0259(5) 0.3388(6) 0.4679(5)
H11_3 H 0.0725 0.3314 0.4573
H12_3 H 0.0320 0.4679 0.3574
C43_3 C 0.9741(5) 0.3388(6) 0.0321(5)
H24_3 H 0.9275 0.3314 0.0427
H25_3 H 0.9680 0.4679 0.1426
C42_3 C 0.9925(5) 0.2826(6) 0.9798(5)
H23_3 H 0.9592 0.2358 0.9556
C42_4 C 0.0075(5) 0.7174(6) 0.0202(5)
H23_4 H 0.0408 0.7642 0.0444
C43_4 C 0.0259(5) 0.6612(6) 0.9679(5)
H24_4 H 0.0725 0.6686 0.9573
H25_4 H 0.0320 0.5321 0.8574
C19_4 C 0.9925(5) 0.7174(6) 0.4798(5)
H10_4 H 0.9592 0.7642 0.4556
C20_4 C 0.9741(5) 0.6612(6) 0.5321(5)
H11_4 H 0.9275 0.6686 0.5427
H12_4 H 0.9680 0.5321 0.6426
loop_
_geom_bond_atom_site_label_1
_geom_bond_atom_site_label_2
_geom_bond_site_symmetry_1
_geom_bond_site_symmetry_2
C12 H6 1_555 1_555
C13 C12 1_555 1_555
H7 C13 1_555 1_555
C14 C13 1_555 1_555
H8 C14 1_555 1_555
C15 C14 1_555 1_555
C23 C15 1_555 1_555
H13 C23 1_555 1_555
Cu4 O3 1_555 1_555
O4 Cu4 1_555 1_555
C1 C2 1_555 1_555
C2 C3 1_555 1_555
C3 H1 1_555 1_555
C4 C3 1_555 1_555
H2 C4 1_555 1_555
C5 C4 1_555 1_555
C6 C5 1_555 1_555
C7 C2 1_555 1_555
H3 C7 1_555 1_555
C8 C6 1_555 1_555
C9 C8 1_555 1_555
H4 C9 1_555 1_555
C10 C8 1_555 1_555
C11 C5 1_555 1_555
C17 C16 1_555 1_555
C18 H9 1_555 1_555
C19 C18 1_555 1_555
H10 C19 1_555 1_555
C20 C19 1_555 1_555
H11 C20 1_555 1_555
C21 C17 1_555 1_555
C22 C21 1_555 1_555
H12 C22 1_555 1_555
Cu1 N1 1_555 1_555
N1 C17 1_555 1_555
O1 C11 1_555 1_555
O2 C11 1_555 1_555
Cu3 O2 1_555 1_555
O7 Cu1 1_555 1_555
O10 Cu1 1_555 1_555
O13 Cu1 1_555 1_555
C6 C7 1_555 1_555
C16 N2 1_555 1_555
C18 N1 1_555 1_555
C20 C21 1_555 1_555
Cu1 N2 1_555 1_555
Cu1 O1 1_555 1_555
C35 H19 1_555 1_555
C36 C35 1_555 1_555
H20 C36 1_555 1_555
C37 C36 1_555 1_555
H21 C37 1_555 1_555
C38 C37 1_555 1_555
C46 C38 1_555 1_555
H26 C46 1_555 1_555
Cu5 O9 1_555 1_555
Cu5 O12 1_555 1_555
C24 C25 1_555 1_555
C25 C26 1_555 1_555
C26 H14 1_555 1_555
C27 C26 1_555 1_555
H15 C27 1_555 1_555
C28 C27 1_555 1_555
C29 C28 1_555 1_555
C30 C25 1_555 1_555
H16 C30 1_555 1_555
C31 C29 1_555 1_555
H17 C32 1_555 1_555
C34 C28 1_555 1_555
C40 C39 1_555 1_555
H24 C43 1_555 1_555
C44 C40 1_555 1_555
C45 C44 1_555 1_555
H25 C45 1_555 1_555
Cu6 O6 1_555 1_555
O5 C34 1_555 1_555
O6 C34 1_555 1_555
C29 C30 1_555 1_555
C31 C32 1_555 1_555
C31 C33 1_555 1_555
C39 N4 1_555 1_555
C43 C44 1_555 1_555
C41 H22 1_555 1_555
C42 C41 1_555 1_555
H23 C42 1_555 1_555
Cu2 N3 1_555 1_555
O8 Cu2 1_555 1_555
O11 Cu2 1_555 1_555
O14 Cu2 1_555 1_555
C41 N3 1_555 1_555
C1_2 C2_2 1_555 1_555
C2_2 C3_2 1_555 1_555
C3_2 H1_2 1_555 1_555
C4_2 C3_2 1_555 1_555
H2_2 C4_2 1_555 1_555
C5_2 C4_2 1_555 1_555
C6_2 C5_2 1_555 1_555
C7_2 C2_2 1_555 1_555
H3_2 C7_2 1_555 1_555
C8_2 C6_2 1_555 1_555
C9_2 C8_2 1_555 1_555
H4_2 C9_2 1_555 1_555
C10_2 C8_2 1_555 1_555
H5_2 C10_2 1_555 1_555
C11_2 C5_2 1_555 1_555
C12_2 H6_2 1_555 1_555
C13_2 C12_2 1_555 1_555
H7_2 C13_2 1_555 1_555
C14_2 C13_2 1_555 1_555
H8_2 C14_2 1_555 1_555
C15_2 C14_2 1_555 1_555
C16_2 C15_2 1_555 1_555
C17_2 C16_2 1_555 1_555
C18_2 H9_2 1_555 1_555
C21_2 C17_2 1_555 1_555
C22_2 C21_2 1_555 1_555
C23_2 C15_2 1_555 1_555
H13_2 C23_2 1_555 1_555
Cu1_2 N1_2 1_555 1_555
N1_2 C17_2 1_555 1_555
N2_2 C12_2 1_555 1_555
O1_2 C11_2 1_555 1_555
O2_2 C11_2 1_555 1_555
O3_2 C1_2 1_555 1_555
O4_2 C1_2 1_555 1_555
C24_2 C25_2 1_555 1_555
C25_2 C26_2 1_555 1_555
C26_2 H14_2 1_555 1_555
C27_2 C26_2 1_555 1_555
H15_2 C27_2 1_555 1_555
C28_2 C27_2 1_555 1_555
C29_2 C28_2 1_555 1_555
C30_2 C25_2 1_555 1_555
H16_2 C30_2 1_555 1_555
C31_2 C29_2 1_555 1_555
C32_2 C9_2 1_555 1_555
H17_2 C32_2 1_555 1_555
C33_2 C10_2 1_555 1_555
H18_2 C33_2 1_555 1_555
C34_2 C28_2 1_555 1_555
C35_2 H19_2 1_555 1_555
C36_2 C35_2 1_555 1_555
H20_2 C36_2 1_555 1_555
C37_2 C36_2 1_555 1_555
H21_2 C37_2 1_555 1_555
C38_2 C37_2 1_555 1_555
C39_2 C38_2 1_555 1_555
C40_2 C39_2 1_555 1_555
C44_2 C40_2 1_555 1_555
C45_2 C44_2 1_555 1_555
C46_2 C38_2 1_555 1_555
H26_2 C46_2 1_555 1_555
Cu5 O2_2 1_555 1_555
Cu6 O3_2 1_555 1_555
Cu3 O9_2 1_555 1_555
Cu4 O6_2 1_555 1_555
N4_2 C35_2 1_555 1_555
O5_2 C34_2 1_555 1_555
O6_2 C34_2 1_555 1_555
O7_2 Cu1_2 1_555 1_555
O9_2 C24_2 1_555 1_555
O10_2 Cu1_2 1_555 1_555
O12_2 C24_2 1_555 1_555
O13_2 Cu1_2 1_555 1_555
C6_2 C7_2 1_555 1_555
C16_2 N2_2 1_555 1_555
C18_2 N1_2 1_555 1_555
C22_2 C23_2 1_555 1_555
Cu1_2 N2_2 1_555 1_555
Cu1_2 O1_2 1_555 1_555
O4_2 Cu6 1_555 1_555
C29_2 C30_2 1_555 1_555
C31_2 C32_2 1_555 1_555
C31_2 C33_2 1_555 1_555
C39_2 N4_2 1_555 1_555
C45_2 C46_2 1_555 1_555
Cu3 O12_2 1_555 1_555
C41_2 H22_2 1_555 1_555
Cu2_2 N3_2 1_555 1_555
O8_2 Cu2_2 1_555 1_555
O11_2 Cu2_2 1_555 1_555
O14_2 Cu2_2 1_555 1_555
C41_2 N3_2 1_555 1_555
C41_3 H22_3 1_555 1_555
C42_2 C41_3 1_555 1_555
H23_2 C42_2 1_555 1_555
Cu4 N3_3 1_555 1_555
C41_3 N3_3 1_555 1_555
C24_3 C25_3 1_555 1_555
C25_3 C26_3 1_555 1_555
C26_3 H14_3 1_555 1_555
C27_3 C26_3 1_555 1_555
H15_3 C27_3 1_555 1_555
C28_3 C27_3 1_555 1_555
C29_3 C28_3 1_555 1_555
C30_3 C25_3 1_555 1_555
H16_3 C30_3 1_555 1_555
C31_3 C29_3 1_555 1_555
H17_3 C32_3 1_555 1_555
C34_3 C28_3 1_555 1_555
C40_3 C39_3 1_555 1_555
H24_2 C43_2 1_555 1_555
C44_3 C40_3 1_555 1_555
C45_3 C44_3 1_555 1_555
H25_2 C45_3 1_555 1_555
O5_3 C34_3 1_555 1_555
O8_2 C34_3 1_555 1_555
C29_3 C30_3 1_555 1_555
C31_3 C32_3 1_555 1_555
C31_3 C33_3 1_555 1_555
C39_3 N4_3 1_555 1_555
C43_2 C44_3 1_555 1_555
C35_3 H19_3 1_555 1_555
C36_3 C35_3 1_555 1_555
H20_3 C36_3 1_555 1_555
C37_3 C36_3 1_555 1_555
H21_3 C37_3 1_555 1_555
C38_3 C37_3 1_555 1_555
C46_3 C38_3 1_555 1_555
H26_3 C46_3 1_555 1_555
C1_3 C2_3 1_555 1_555
C2_3 C3_3 1_555 1_555
C3_3 H1_3 1_555 1_555
C4_3 C3_3 1_555 1_555
H2_3 C4_3 1_555 1_555
C5_3 C4_3 1_555 1_555
C6_3 C5_3 1_555 1_555
C7_3 C2_3 1_555 1_555
H3_3 C7_3 1_555 1_555
C8_3 C6_3 1_555 1_555
C9_3 C8_3 1_555 1_555
H4_3 C9_3 1_555 1_555
C10_3 C8_3 1_555 1_555
C11_3 C5_3 1_555 1_555
C17_3 C16_3 1_555 1_555
C18_3 H9_3 1_555 1_555
C19_2 C18_3 1_555 1_555
H10_2 C19_2 1_555 1_555
C20_2 C19_2 1_555 1_555
H11_2 C20_2 1_555 1_555
C21_3 C17_3 1_555 1_555
C22_3 C21_3 1_555 1_555
H12_2 C22_3 1_555 1_555
Cu5 N1_3 1_555 1_555
N1_3 C17_3 1_555 1_555
O1_3 C11_3 1_555 1_555
O7_2 C11_3 1_555 1_555
C6_3 C7_3 1_555 1_555
C16_3 N2_3 1_555 1_555
C18_3 N1_3 1_555 1_555
C20_2 C21_3 1_555 1_555
Cu5 N2_3 1_555 1_555
Cu5 O1_3 1_555 1_555
C12_3 H6_3 1_555 1_555
C13_3 C12_3 1_555 1_555
H7_3 C13_3 1_555 1_555
C14_3 C13_3 1_555 1_555
H8_3 C14_3 1_555 1_555
C15_3 C14_3 1_555 1_555
C23_3 C15_3 1_555 1_555
H13_3 C23_3 1_555 1_555
C41_4 H22_4 1_555 1_555
Cu6 N3_4 1_555 1_555
C41_4 N3_4 1_555 1_555
C1_4 C2_4 1_555 1_555
C2_4 C3_4 1_555 1_555
C3_4 H1_4 1_555 1_555
C4_4 C3_4 1_555 1_555
H2_4 C4_4 1_555 1_555
C5_4 C4_4 1_555 1_555
C6_4 C5_4 1_555 1_555
C7_4 C2_4 1_555 1_555
H3_4 C7_4 1_555 1_555
C8_4 C6_4 1_555 1_555
C9_4 C8_4 1_555 1_555
H4_4 C9_4 1_555 1_555
C10_4 C8_4 1_555 1_555
H5_4 C10_4 1_555 1_555
C11_4 C5_4 1_555 1_555
C12_4 H6_4 1_555 1_555
C13_4 C12_4 1_555 1_555
H7_4 C13_4 1_555 1_555
C14_4 C13_4 1_555 1_555
H8_4 C14_4 1_555 1_555
C15_4 C14_4 1_555 1_555
C16_4 C15_4 1_555 1_555
C17_4 C16_4 1_555 1_555
C18_4 H9_4 1_555 1_555
C21_4 C17_4 1_555 1_555
C22_4 C21_4 1_555 1_555
C23_4 C15_4 1_555 1_555
H13_4 C23_4 1_555 1_555
Cu3 N1_4 1_555 1_555
N1_4 C17_4 1_555 1_555
N2_4 C12_4 1_555 1_555
O1_4 C11_4 1_555 1_555
O7 C11_4 1_555 1_555
O11_2 C1_4 1_555 1_555
O14_2 C1_4 1_555 1_555
C24_4 C25_4 1_555 1_555
C25_4 C26_4 1_555 1_555
C26_4 H14_4 1_555 1_555
C27_4 C26_4 1_555 1_555
H15_4 C27_4 1_555 1_555
C28_4 C27_4 1_555 1_555
C29_4 C28_4 1_555 1_555
C30_4 C25_4 1_555 1_555
H16_4 C30_4 1_555 1_555
C31_4 C29_4 1_555 1_555
C32_4 C9_4 1_555 1_555
H17_4 C32_4 1_555 1_555
C33_4 C10_4 1_555 1_555
H18_4 C33_4 1_555 1_555
C34_4 C28_4 1_555 1_555
C35_4 H19_4 1_555 1_555
C36_4 C35_4 1_555 1_555
H20_4 C36_4 1_555 1_555
C37_4 C36_4 1_555 1_555
H21_4 C37_4 1_555 1_555
C38_4 C37_4 1_555 1_555
C39_4 C38_4 1_555 1_555
C40_4 C39_4 1_555 1_555
C44_4 C40_4 1_555 1_555
C45_4 C44_4 1_555 1_555
C46_4 C38_4 1_555 1_555
H26_4 C46_4 1_555 1_555
N4_4 C35_4 1_555 1_555
O5_4 C34_4 1_555 1_555
O8 C34_4 1_555 1_555
O10_2 C24_4 1_555 1_555
O13_2 C24_4 1_555 1_555
C6_4 C7_4 1_555 1_555
C16_4 N2_4 1_555 1_555
C18_4 N1_4 1_555 1_555
C22_4 C23_4 1_555 1_555
Cu3 N2_4 1_555 1_555
Cu3 O1_4 1_555 1_555
C29_4 C30_4 1_555 1_555
C31_4 C32_4 1_555 1_555
C31_4 C33_4 1_555 1_555
C39_4 N4_4 1_555 1_555
C45_4 C46_4 1_555 1_555
H10_3 C19_3 1_555 1_555
C20_3 C19_3 1_555 1_555
H11_3 C20_3 1_555 1_555
H24_3 C43_3 1_555 1_555
H23_3 C42_3 1_555 1_555
H23_4 C42_4 1_555 1_555
H24_4 C43_4 1_555 1_555
H10_4 C19_4 1_555 1_555
C20_4 C19_4 1_555 1_555
H11_4 C20_4 1_555 1_555

#END
