
###############################################################################
#
# This file contains modified crystal structure data generated from the
# MOF subset of the Cambridge Structural Database (CSD) v543 
# hosted by the Cambridge Crystallographic Data Centre (CCDC).
#
# This work is licensed under the Creative Commons
# Attribution-NonCommercial-ShareAlike 4.0 International License.
# To view a copy of this license, visit
# http://creativecommons.org/licenses/by-nc-sa/4.0/
# or send a letter to
# Creative Commons, PO Box 1866, Mountain View, CA 94042, USA.
#
# CIF created using the CSD Python API on 29 September 2022
# The structure has been converted into the P1 space group
# The structure has a 3D framework
# The original CSD entry LASRIJ is in the cubic crystal system
# The original CSD entry LASRIJ is in a Sohncke space group
# The framework has been calculated to contain at least 10.0% void space
# The void calculation uses a probe of radius 1.32A, grid spacing 0.4
# The framework is charged, counterions have been retained in the structure
#
###############################################################################

data_LASRIJ
_chemical_formula_moiety         '(C36 H12 Br4 Co4 Cu12 O68 8-)n'
_symmetry_cell_setting           triclinic
_symmetry_space_group_name_H-M   'P 1'
_symmetry_Int_Tables_number      1
_space_group_name_Hall           'P 1'
loop_
_symmetry_equiv_pos_site_id
_symmetry_equiv_pos_as_xyz
1 x,y,z
_cell_length_a                   17.9181(7)
_cell_length_b                   17.9181(7)
_cell_length_c                   17.9181(7)
_cell_angle_alpha                90
_cell_angle_beta                 90
_cell_angle_gamma                90
_cell_volume                     5752.75
loop_
_atom_site_label
_atom_site_type_symbol
_atom_site_fract_x
_atom_site_fract_y
_atom_site_fract_z
Br1 Br 0.19836(14) 0.19836(14) 0.19836(14)
Cu1 Cu 0.20336(15) 0.05267(16) 0.13614(14)
O3 O 0.1068(6) 0.0414(7) 0.1795(7)
O6 O 0.0304(8) 0.0835(8) 0.2969(8)
C3 C 0.0521(14) 0.0143(9) 0.2935(17)
Cu2 Cu 0.13614(14) 0.20336(15) 0.05267(16)
O9 O 0.1795(7) 0.1068(6) 0.0414(7)
O12 O 0.2969(8) 0.0304(8) 0.0835(8)
C6 C 0.2935(17) 0.0521(14) 0.0143(9)
Cu3 Cu 0.05267(16) 0.13614(14) 0.20336(15)
O15 O 0.0414(7) 0.1795(7) 0.1068(6)
O18 O 0.0835(8) 0.2969(8) 0.0304(8)
C9 C 0.0143(9) 0.2935(17) 0.0521(14)
O7 O 0.2200(8) 0.2328(7) 0.9917(7)
O8 O 0.3179(7) 0.1866(6) 0.9331(7)
O10 O 0.2011(7) 0.0699(6) 0.9272(8)
H2 H 0.232296 0.064519 0.894140
O11 O 0.3548(8) 0.0387(7) 0.9784(8)
C4 C 0.2624(16) 0.1764(18) 0.9688(13)
C5 C 0.2354(14) 0.1042(15) 0.9911(14)
Co2 Co 0.39349(14) 0.10651(14) 0.89349(14)
Co1 Co 0.10651(14) 0.89349(14) 0.39349(14)
O1 O 0.2328(7) 0.9917(7) 0.2200(8)
O2 O 0.1866(6) 0.9331(7) 0.3179(7)
O4 O 0.0699(6) 0.9272(8) 0.2011(7)
H1 H 0.064519 0.894140 0.232296
O5 O 0.0387(7) 0.9784(8) 0.3548(8)
C1 C 0.1764(18) 0.9688(13) 0.2624(16)
C2 C 0.1042(15) 0.9911(14) 0.2354(14)
O19 O 0.1821(7) 0.8134(6) 0.4331(7)
O20 O 0.0669(7) 0.8179(7) 0.3134(6)
O21 O 0.1452(8) 0.9613(7) 0.4784(8)
O22 O 0.0216(8) 0.8548(8) 0.4613(7)
O13 O 0.9917(7) 0.2200(8) 0.2328(7)
O14 O 0.9331(7) 0.3179(7) 0.1866(6)
O16 O 0.9272(8) 0.2011(7) 0.0699(6)
H3 H 0.894140 0.232296 0.064519
O17 O 0.9784(8) 0.3548(8) 0.0387(7)
C7 C 0.9688(13) 0.2624(16) 0.1764(18)
C8 C 0.9911(14) 0.2354(14) 0.1042(15)
Co3 Co 0.89349(14) 0.39349(14) 0.10651(14)
O1_2 O 0.2672(7) 0.0083(7) 0.7200(8)
O2_2 O 0.3134(6) 0.0669(7) 0.8179(7)
O4_2 O 0.4301(6) 0.0728(8) 0.7011(7)
H1_2 H 0.435481 0.105860 0.732296
O5_2 O 0.4613(7) 0.0216(8) 0.8548(8)
C1_2 C 0.3236(18) 0.0312(13) 0.7624(16)
C2_2 C 0.3958(15) 0.0089(14) 0.7354(14)
O20_2 O 0.4331(7) 0.1821(7) 0.8134(6)
O22_2 O 0.4784(8) 0.1452(8) 0.9613(7)
Br1_2 Br 0.30164(14) 0.80164(14) 0.69836(14)
Cu1_2 Cu 0.29664(15) 0.94733(16) 0.63614(14)
O3_2 O 0.3932(6) 0.9586(7) 0.6795(7)
O6_2 O 0.4696(8) 0.9165(8) 0.7969(8)
C3_2 C 0.4479(14) 0.9857(9) 0.7935(17)
Cu2_2 Cu 0.36386(14) 0.79664(15) 0.55267(16)
O7_2 O 0.2800(8) 0.7672(7) 0.4917(7)
O9_2 O 0.3205(7) 0.8932(6) 0.5414(7)
O10_2 O 0.2989(7) 0.9301(6) 0.4272(8)
H2_2 H 0.267704 0.935481 0.394140
O12_2 O 0.2031(8) 0.9696(8) 0.5835(8)
C4_2 C 0.2376(16) 0.8236(18) 0.4688(13)
C5_2 C 0.2646(14) 0.8958(15) 0.4911(14)
C6_2 C 0.2065(17) 0.9479(14) 0.5143(9)
Cu3_2 Cu 0.44733(16) 0.86386(14) 0.70336(15)
O13_2 O 0.5083(7) 0.7800(8) 0.7328(7)
O14_2 O 0.5669(7) 0.6821(7) 0.6866(6)
O15_2 O 0.4586(7) 0.8205(7) 0.6068(6)
O16_2 O 0.5728(8) 0.7989(7) 0.5699(6)
H3_2 H 0.605860 0.767704 0.564519
O17_2 O 0.5216(8) 0.6452(8) 0.5387(7)
O18_2 O 0.4165(8) 0.7031(8) 0.5304(8)
C7_2 C 0.5312(13) 0.7376(16) 0.6764(18)
C8_2 C 0.5089(14) 0.7646(14) 0.6042(15)
C9_2 C 0.4857(9) 0.7065(17) 0.5521(14)
Co3_2 Co 0.60651(14) 0.60651(14) 0.60651(14)
O7_3 O 0.7200(8) 0.2672(7) 0.0083(7)
O8_2 O 0.8179(7) 0.3134(6) 0.0669(7)
O10_3 O 0.7011(7) 0.4301(6) 0.0728(8)
H2_3 H 0.732296 0.435481 0.105860
O11_2 O 0.8548(8) 0.4613(7) 0.0216(8)
C4_3 C 0.7624(16) 0.3236(18) 0.0312(13)
C5_3 C 0.7354(14) 0.3958(15) 0.0089(14)
Br1_3 Br 0.69836(14) 0.30164(14) 0.80164(14)
Cu1_3 Cu 0.70336(15) 0.44733(16) 0.86386(14)
O1_3 O 0.7328(7) 0.5083(7) 0.7800(8)
O2_3 O 0.6866(6) 0.5669(7) 0.6821(7)
O3_3 O 0.6068(6) 0.4586(7) 0.8205(7)
O4_3 O 0.5699(6) 0.5728(8) 0.7989(7)
H1_3 H 0.564519 0.605860 0.767704
O5_3 O 0.5387(7) 0.5216(8) 0.6452(8)
O6_3 O 0.5304(8) 0.4165(8) 0.7031(8)
C1_3 C 0.6764(18) 0.5312(13) 0.7376(16)
C2_3 C 0.6042(15) 0.5089(14) 0.7646(14)
C3_3 C 0.5521(14) 0.4857(9) 0.7065(17)
Cu2_3 Cu 0.63614(14) 0.29664(15) 0.94733(16)
O9_3 O 0.6795(7) 0.3932(6) 0.9586(7)
O12_3 O 0.7969(8) 0.4696(8) 0.9165(8)
C6_3 C 0.7935(17) 0.4479(14) 0.9857(9)
Cu3_3 Cu 0.55267(16) 0.36386(14) 0.79664(15)
O13_3 O 0.4917(7) 0.2800(8) 0.7672(7)
O15_3 O 0.5414(7) 0.3205(7) 0.8932(6)
O16_3 O 0.4272(8) 0.2989(7) 0.9301(6)
H3_3 H 0.394140 0.267704 0.935481
O18_3 O 0.5835(8) 0.2031(8) 0.9696(8)
C7_3 C 0.4688(13) 0.2376(16) 0.8236(18)
C8_3 C 0.4911(14) 0.2646(14) 0.8958(15)
C9_3 C 0.5143(9) 0.2065(17) 0.9479(14)
O19_2 O 0.6821(7) 0.6866(6) 0.5669(7)
O21_2 O 0.6452(8) 0.5387(7) 0.5216(8)
O13_4 O 0.0083(7) 0.7200(8) 0.2672(7)
O16_4 O 0.0728(8) 0.7011(7) 0.4301(6)
H3_4 H 0.105860 0.732296 0.435481
C7_4 C 0.0312(13) 0.7624(16) 0.3236(18)
C8_4 C 0.0089(14) 0.7354(14) 0.3958(15)
Br1_4 Br 0.80164(14) 0.69836(14) 0.30164(14)
Cu1_4 Cu 0.79664(15) 0.55267(16) 0.36386(14)
O1_4 O 0.7672(7) 0.4917(7) 0.2800(8)
O2_4 O 0.8134(6) 0.4331(7) 0.1821(7)
O3_4 O 0.8932(6) 0.5414(7) 0.3205(7)
O4_4 O 0.9301(6) 0.4272(8) 0.2989(7)
H1_4 H 0.935481 0.394140 0.267704
O5_4 O 0.9613(7) 0.4784(8) 0.1452(8)
O6_4 O 0.9696(8) 0.5835(8) 0.2031(8)
C1_4 C 0.8236(18) 0.4688(13) 0.2376(16)
C2_4 C 0.8958(15) 0.4911(14) 0.2646(14)
C3_4 C 0.9479(14) 0.5143(9) 0.2065(17)
Cu2_4 Cu 0.86386(14) 0.70336(15) 0.44733(16)
O7_4 O 0.7800(8) 0.7328(7) 0.5083(7)
O9_4 O 0.8205(7) 0.6068(6) 0.4586(7)
O10_4 O 0.7989(7) 0.5699(6) 0.5728(8)
H2_4 H 0.767704 0.564519 0.605860
O12_4 O 0.7031(8) 0.5304(8) 0.4165(8)
C4_4 C 0.7376(16) 0.6764(18) 0.5312(13)
C5_4 C 0.7646(14) 0.6042(15) 0.5089(14)
C6_4 C 0.7065(17) 0.5521(14) 0.4857(9)
Cu3_4 Cu 0.94733(16) 0.63614(14) 0.29664(15)
O15_4 O 0.9586(7) 0.6795(7) 0.3932(6)
O18_4 O 0.9165(8) 0.7969(8) 0.4696(8)
C9_4 C 0.9857(9) 0.7935(17) 0.4479(14)
loop_
_geom_bond_atom_site_label_1
_geom_bond_atom_site_label_2
_geom_bond_site_symmetry_1
_geom_bond_site_symmetry_2
Br1 Cu1 1_555 1_555
O3 Cu1 1_555 1_555
O6 C3 1_555 1_555
Cu2 Br1 1_555 1_555
O9 Cu1 1_555 1_555
O12 Cu1 1_555 1_555
C6 O12 1_555 1_555
Cu3 Br1 1_555 1_555
O15 Cu2 1_555 1_555
O18 Cu2 1_555 1_555
C9 O18 1_555 1_555
O3 Cu3 1_555 1_555
O6 Cu3 1_555 1_555
Cu2 O9 1_555 1_555
Cu3 O15 1_555 1_555
O8 C4 1_555 1_555
O10 H2 1_555 1_555
C4 O7 1_555 1_555
Co2 O8 1_555 1_555
O10 C5 1_555 1_555
O11 Co2 1_555 1_555
C4 C5 1_555 1_555
Co1 O2 1_555 1_555
O1 C1 1_555 1_555
O2 C1 1_555 1_555
O4 H1 1_555 1_555
O5 Co1 1_555 1_555
C1 C2 1_555 1_555
O19 Co1 1_555 1_555
O20 Co1 1_555 1_555
O21 Co1 1_555 1_555
O22 Co1 1_555 1_555
O4 C2 1_555 1_555
O14 C7 1_555 1_555
O16 H3 1_555 1_555
C7 O13 1_555 1_555
Co3 O14 1_555 1_555
O16 C8 1_555 1_555
O17 Co3 1_555 1_555
C7 C8 1_555 1_555
Co2 O2_2 1_555 1_555
O1_2 C1_2 1_555 1_555
O2_2 C1_2 1_555 1_555
O4_2 H1_2 1_555 1_555
O5_2 Co2 1_555 1_555
C1_2 C2_2 1_555 1_555
O20_2 Co2 1_555 1_555
O22_2 Co2 1_555 1_555
O4_2 C2_2 1_555 1_555
Br1_2 Cu1_2 1_555 1_555
O3_2 Cu1_2 1_555 1_555
O6_2 C3_2 1_555 1_555
Cu2_2 Br1_2 1_555 1_555
O7_2 Cu2_2 1_555 1_555
O19 C4_2 1_555 1_555
O9_2 Cu1_2 1_555 1_555
O10_2 H2_2 1_555 1_555
O21 C6_2 1_555 1_555
O12_2 Cu1_2 1_555 1_555
C4_2 O7_2 1_555 1_555
C5_2 O9_2 1_555 1_555
C6_2 O12_2 1_555 1_555
Cu3_2 Br1_2 1_555 1_555
O13_2 Cu3_2 1_555 1_555
O14_2 C7_2 1_555 1_555
O15_2 Cu2_2 1_555 1_555
O16_2 H3_2 1_555 1_555
O17_2 C9_2 1_555 1_555
O18_2 Cu2_2 1_555 1_555
C7_2 O13_2 1_555 1_555
C8_2 O15_2 1_555 1_555
C9_2 O18_2 1_555 1_555
Co3_2 O14_2 1_555 1_555
O3_2 Cu3_2 1_555 1_555
O6_2 Cu3_2 1_555 1_555
Cu2_2 O9_2 1_555 1_555
O10_2 C5_2 1_555 1_555
C4_2 C5_2 1_555 1_555
C5_2 C6_2 1_555 1_555
Cu3_2 O15_2 1_555 1_555
O16_2 C8_2 1_555 1_555
O17_2 Co3_2 1_555 1_555
C7_2 C8_2 1_555 1_555
C8_2 C9_2 1_555 1_555
O8_2 C4_3 1_555 1_555
O10_3 H2_3 1_555 1_555
C4_3 O7_3 1_555 1_555
Co3 O8_2 1_555 1_555
O10_3 C5_3 1_555 1_555
O11_2 Co3 1_555 1_555
C4_3 C5_3 1_555 1_555
Br1_3 Cu1_3 1_555 1_555
Cu1_3 O1_3 1_555 1_555
Co3_2 O2_3 1_555 1_555
O1_3 C1_3 1_555 1_555
O2_3 C1_3 1_555 1_555
O3_3 Cu1_3 1_555 1_555
O4_3 H1_3 1_555 1_555
O5_3 Co3_2 1_555 1_555
O6_3 C3_3 1_555 1_555
C1_3 C2_3 1_555 1_555
C2_3 O3_3 1_555 1_555
C3_3 O5_3 1_555 1_555
Cu2_3 Br1_3 1_555 1_555
O9_3 Cu1_3 1_555 1_555
O12_3 Cu1_3 1_555 1_555
C6_3 O12_3 1_555 1_555
Cu3_3 Br1_3 1_555 1_555
O13_3 Cu3_3 1_555 1_555
O20_2 C7_3 1_555 1_555
O15_3 Cu2_3 1_555 1_555
O16_3 H3_3 1_555 1_555
O22_2 C9_3 1_555 1_555
O18_3 Cu2_3 1_555 1_555
C7_3 O13_3 1_555 1_555
C8_3 O15_3 1_555 1_555
C9_3 O18_3 1_555 1_555
O19_2 Co3_2 1_555 1_555
O21_2 Co3_2 1_555 1_555
O3_3 Cu3_3 1_555 1_555
O4_3 C2_3 1_555 1_555
O6_3 Cu3_3 1_555 1_555
C2_3 C3_3 1_555 1_555
Cu2_3 O9_3 1_555 1_555
Cu3_3 O15_3 1_555 1_555
O16_3 C8_3 1_555 1_555
C7_3 C8_3 1_555 1_555
C8_3 C9_3 1_555 1_555
O20 C7_4 1_555 1_555
O16_4 H3_4 1_555 1_555
C7_4 O13_4 1_555 1_555
O16_4 C8_4 1_555 1_555
C7_4 C8_4 1_555 1_555
Br1_4 Cu1_4 1_555 1_555
Cu1_4 O1_4 1_555 1_555
Co3 O2_4 1_555 1_555
O1_4 C1_4 1_555 1_555
O2_4 C1_4 1_555 1_555
O3_4 Cu1_4 1_555 1_555
O4_4 H1_4 1_555 1_555
O5_4 Co3 1_555 1_555
O6_4 C3_4 1_555 1_555
C1_4 C2_4 1_555 1_555
C2_4 O3_4 1_555 1_555
C3_4 O5_4 1_555 1_555
Cu2_4 Br1_4 1_555 1_555
O7_4 Cu2_4 1_555 1_555
O19_2 C4_4 1_555 1_555
O9_4 Cu1_4 1_555 1_555
O10_4 H2_4 1_555 1_555
O21_2 C6_4 1_555 1_555
O12_4 Cu1_4 1_555 1_555
C4_4 O7_4 1_555 1_555
C5_4 O9_4 1_555 1_555
C6_4 O12_4 1_555 1_555
Cu3_4 Br1_4 1_555 1_555
O15_4 Cu2_4 1_555 1_555
O18_4 Cu2_4 1_555 1_555
C9_4 O18_4 1_555 1_555
O3_4 Cu3_4 1_555 1_555
O4_4 C2_4 1_555 1_555
O6_4 Cu3_4 1_555 1_555
C2_4 C3_4 1_555 1_555
Cu2_4 O9_4 1_555 1_555
O10_4 C5_4 1_555 1_555
C4_4 C5_4 1_555 1_555
C5_4 C6_4 1_555 1_555
Cu3_4 O15_4 1_555 1_555

#END
