
###############################################################################
#
# This file contains modified crystal structure data generated from the
# MOF subset of the Cambridge Structural Database (CSD) v543 
# hosted by the Cambridge Crystallographic Data Centre (CCDC).
#
# This work is licensed under the Creative Commons
# Attribution-NonCommercial-ShareAlike 4.0 International License.
# To view a copy of this license, visit
# http://creativecommons.org/licenses/by-nc-sa/4.0/
# or send a letter to
# Creative Commons, PO Box 1866, Mountain View, CA 94042, USA.
#
# CIF created using the CSD Python API on 29 September 2022
# The structure has been converted into the P1 space group
# The structure has a 3D framework
# The original CSD entry LASYOU is in the rhombohedral crystal system
# The framework has been calculated to contain at least 10.0% void space
# The void calculation uses a probe of radius 1.32A, grid spacing 0.4
# H atom positions have been added when not included in the experimental data
# Generated hydrogen atom positions removed from atoms on special positions
#
###############################################################################

data_LASYOU
_chemical_formula_moiety         '(C144 H162 Cu18 O90)n'
_symmetry_cell_setting           triclinic
_symmetry_space_group_name_H-M   'P 1'
_symmetry_Int_Tables_number      1
_space_group_name_Hall           'P 1'
loop_
_symmetry_equiv_pos_site_id
_symmetry_equiv_pos_as_xyz
1 x,y,z
_cell_length_a                   18.4826(8)
_cell_length_b                   18.4826(8)
_cell_length_c                   24.713(2)
_cell_angle_alpha                90
_cell_angle_beta                 90
_cell_angle_gamma                120
_cell_volume                     7311.09
loop_
_atom_site_label
_atom_site_type_symbol
_atom_site_fract_x
_atom_site_fract_y
_atom_site_fract_z
Cu1 Cu 0.857322(11) 0.142678(11) 0.122930(14)
O1 O 0.81459(11) 0.03818(10) 0.16239(7)
O2 O 0.77355(10) 0.07785(12) 0.23635(7)
C1 C 0.78374(15) 0.02647(15) 0.20892(10)
O3 O 0.89714(10) 0.10286(10) 0.05386(12)
Cu3 Cu 0.809345(11) 0.190655(11) 0.210403(14)
Cu8 Cu 0.523989(11) 0.047977(16) 0.456263(14)
O7 O 0.96182(10) 0.18541(11) 0.16239(7)
O12 O 0.74452(12) 0.10688(10) 0.09698(7)
O13 O 0.89312(10) 0.25548(12) 0.09698(7)
C2 C 0.71486(18) 0.92198(16) 0.28292(11)
H1 H 0.7005 0.9594 0.2996
C3 C 0.6920(3) 0.84598(14) 0.30744(17)
C4 C 0.75830(17) 0.94408(15) 0.23453(10)
C5 C 0.7793(2) 0.88967(11) 0.20982(15)
H2 H 0.8080 0.9040 0.1762
Cu2 Cu 0.857322(11) 0.714644(16) 0.122930(14)
Cu4 Cu 0.809345(11) 0.618689(16) 0.210403(14)
Cu5 Cu 0.476011(11) 0.523989(11) 0.543737(14)
Cu6 Cu 0.523989(11) 0.476011(11) 0.456263(14)
Cu7 Cu 0.476011(11) 0.952023(16) 0.543737(14)
O4 O 0.81459(11) 0.77641(15) 0.16239(7)
O5 O 0.51874(11) 0.62849(10) 0.50428(7)
O6 O 0.51874(11) 0.89026(15) 0.50428(7)
O8 O 0.96182(10) 0.77641(15) 0.16239(7)
O9 O 0.77355(10) 0.69570(16) 0.23635(7)
O10 O 0.55978(10) 0.58882(12) 0.43032(7)
O11 O 0.55978(10) 0.97097(16) 0.43032(7)
O14 O 0.74452(12) 0.63763(16) 0.09698(7)
O15 O 0.89312(10) 0.63763(16) 0.09698(7)
C6 C 0.78374(15) 0.75727(21) 0.20892(10)
C7 C 0.54959(15) 0.64020(15) 0.45775(10)
C8 C 0.54959(15) 0.90940(21) 0.45775(10)
C9 C 0.71486(18) 0.79288(24) 0.28292(11)
C10 C 0.61847(18) 0.74469(16) 0.38375(11)
C11 C 0.61847(18) 0.87379(24) 0.38375(11)
H3 H 0.7005 0.7411 0.2996
H4 H 0.6328 0.7073 0.3671
H5 H 0.6328 0.9256 0.3671
C12 C 0.6413(3) 0.82069(14) 0.35923(17)
C13 C 0.75830(17) 0.81422(23) 0.23453(10)
C14 C 0.57503(17) 0.72259(15) 0.43214(10)
C15 C 0.57503(17) 0.85245(23) 0.43214(10)
C16 C 0.5540(2) 0.77700(11) 0.45685(15)
H6 H 0.5253 0.7627 0.4905
O16 O 0.89714(10) 0.79428(14) 0.05386(12)
Cu2_2 Cu 0.285356(16) 0.142678(19) 0.122930(14)
Cu4_2 Cu 0.381311(16) 0.190655(19) 0.210403(14)
O4_2 O 0.22359(15) 0.03818(19) 0.16239(7)
O8_2 O 0.22359(15) 0.18541(18) 0.16239(7)
O9_2 O 0.30430(16) 0.07785(19) 0.23635(7)
O14_2 O 0.36237(16) 0.10688(20) 0.09698(7)
O15_2 O 0.36237(16) 0.25548(19) 0.09698(7)
C6_2 C 0.24273(21) 0.02647(26) 0.20892(10)
O16_2 O 0.20572(14) 0.10286(17) 0.05386(12)
C2_2 C 0.07802(16) 0.79288(24) 0.28292(11)
H1_2 H 0.0406 0.7411 0.2996
C3_2 C 0.15402(14) 0.84602(33) 0.30744(17)
C4_2 C 0.05592(15) 0.81422(23) 0.23453(10)
C5_2 C 0.11033(11) 0.88963(23) 0.20982(15)
H2_2 H 0.0960 0.9040 0.1762
Cu7_2 Cu 0.047977(16) 0.523989(19) 0.543737(14)
O5_2 O 0.37151(10) 0.89026(15) 0.50428(7)
O6_2 O 0.10974(15) 0.62849(19) 0.50428(7)
O10_2 O 0.41118(12) 0.97097(16) 0.43032(7)
O11_2 O 0.02903(16) 0.58882(19) 0.43032(7)
C7_2 C 0.35980(15) 0.90940(21) 0.45775(10)
C8_2 C 0.09060(21) 0.64020(26) 0.45775(10)
C9_2 C 0.20712(24) 0.92198(30) 0.28292(11)
C10_2 C 0.25531(16) 0.87379(24) 0.38375(11)
C11_2 C 0.12621(24) 0.74469(30) 0.38375(11)
H3_2 H 0.2589 0.9594 0.2996
H4_2 H 0.2927 0.9256 0.3671
H5_2 H 0.0744 0.7073 0.3671
C12_2 C 0.17931(14) 0.82065(33) 0.35923(17)
C13_2 C 0.18578(23) 0.94408(29) 0.23453(10)
C14_2 C 0.27741(15) 0.85245(23) 0.43214(10)
C15_2 C 0.14755(23) 0.72259(29) 0.43214(10)
C16_2 C 0.22300(11) 0.77704(23) 0.45685(15)
H6_2 H 0.2373 0.7627 0.4905
O2_2 O 0.92215(12) 0.69570(16) 0.23635(7)
C1_2 C 0.97353(15) 0.75727(21) 0.20892(10)
Cu8_2 Cu 0.952023(16) 0.476011(19) 0.456263(14)
O2_3 O 0.30430(16) 0.22645(10) 0.23635(7)
C1_3 C 0.24273(21) 0.21626(15) 0.20892(10)
C2_3 C 0.20712(24) 0.28514(18) 0.28292(11)
H1_3 H 0.2589 0.2995 0.2996
C3_3 C 0.15398(33) 0.3080(3) 0.30744(17)
C4_3 C 0.18578(23) 0.24170(17) 0.23453(10)
C5_3 C 0.11037(23) 0.2207(2) 0.20982(15)
H2_3 H 0.0960 0.1920 0.1762
O5_3 O 0.10974(15) 0.48126(11) 0.50428(7)
O6_3 O 0.37151(19) 0.48126(11) 0.50428(7)
O10_3 O 0.02903(16) 0.44022(10) 0.43032(7)
O11_3 O 0.41118(19) 0.44022(10) 0.43032(7)
C7_3 C 0.09060(21) 0.45041(15) 0.45775(10)
C8_3 C 0.35980(26) 0.45041(15) 0.45775(10)
C9_3 C 0.07802(30) 0.28514(18) 0.28292(11)
C10_3 C 0.12621(24) 0.38153(18) 0.38375(11)
C11_3 C 0.25531(30) 0.38153(18) 0.38375(11)
H3_3 H 0.0406 0.2995 0.2996
H4_3 H 0.0744 0.3672 0.3671
H5_3 H 0.2927 0.3672 0.3671
C12_3 C 0.17935(33) 0.3587(3) 0.35923(17)
C13_3 C 0.05592(29) 0.24170(17) 0.23453(10)
C14_3 C 0.14755(23) 0.42497(17) 0.43214(10)
C15_3 C 0.27741(29) 0.42497(17) 0.43214(10)
C16_3 C 0.22296(23) 0.4460(2) 0.45685(15)
H6_3 H 0.2373 0.4747 0.4905
O9_3 O 0.92215(19) 0.22645(10) 0.23635(7)
C6_3 C 0.97353(26) 0.21626(15) 0.20892(10)
Cu1_2 Cu 0.142678(11) 0.857322(11) 0.877070(14)
O1_2 O 0.03818(10) 0.81459(11) 0.83761(7)
O2_4 O 0.07785(12) 0.77355(10) 0.76365(7)
C1_4 C 0.02647(15) 0.78374(15) 0.79108(10)
O3_2 O 0.10286(10) 0.89714(10) 0.94614(12)
Cu3_2 Cu 0.190655(11) 0.809345(11) 0.789597(14)
O7_2 O 0.18541(11) 0.96182(10) 0.83761(7)
O12_2 O 0.10688(10) 0.74452(12) 0.90302(7)
O13_2 O 0.25548(12) 0.89312(10) 0.90302(7)
C2_4 C 0.92198(16) 0.71486(18) 0.71708(11)
H1_4 H 0.9594 0.7005 0.7004
C3_4 C 0.84598(14) 0.6920(3) 0.69256(17)
C4_4 C 0.94408(15) 0.75830(17) 0.76547(10)
C5_4 C 0.88967(11) 0.7793(2) 0.79018(15)
H2_4 H 0.9040 0.8080 0.8238
Cu2_3 Cu 0.714644(16) 0.857322(11) 0.877070(14)
Cu4_3 Cu 0.618689(16) 0.809345(11) 0.789597(14)
O4_3 O 0.77641(15) 0.81459(11) 0.83761(7)
O5_4 O 0.62849(10) 0.51874(11) 0.49572(7)
O6_4 O 0.89026(15) 0.51874(11) 0.49572(7)
O8_3 O 0.77641(15) 0.96182(10) 0.83761(7)
O9_4 O 0.69570(16) 0.77355(10) 0.76365(7)
O10_4 O 0.58882(12) 0.55978(10) 0.56968(7)
O11_4 O 0.97097(16) 0.55978(10) 0.56968(7)
O14_3 O 0.63763(16) 0.74452(12) 0.90302(7)
O15_3 O 0.63763(16) 0.89312(10) 0.90302(7)
C6_4 C 0.75727(21) 0.78374(15) 0.79108(10)
C7_4 C 0.64020(15) 0.54959(15) 0.54225(10)
C8_4 C 0.90940(21) 0.54959(15) 0.54225(10)
C9_4 C 0.79288(24) 0.71486(18) 0.71708(11)
C10_4 C 0.74469(16) 0.61847(18) 0.61625(11)
C11_4 C 0.87379(24) 0.61847(18) 0.61625(11)
H3_4 H 0.7411 0.7005 0.7004
H4_4 H 0.7073 0.6328 0.6329
H5_4 H 0.9256 0.6328 0.6329
C12_4 C 0.82069(14) 0.6413(3) 0.64077(17)
C13_4 C 0.81422(23) 0.75830(17) 0.76547(10)
C14_4 C 0.72259(15) 0.57503(17) 0.56786(10)
C15_4 C 0.85245(23) 0.57503(17) 0.56786(10)
C16_4 C 0.77700(11) 0.5540(2) 0.54315(15)
H6_4 H 0.7627 0.5253 0.5095
O16_3 O 0.79428(14) 0.89714(10) 0.94614(12)
O1_3 O 0.48126(11) 0.37151(10) 0.49572(7)
O2_5 O 0.44022(10) 0.41118(12) 0.56968(7)
C1_5 C 0.45041(15) 0.35980(15) 0.54225(10)
C2_5 C 0.38153(18) 0.25531(16) 0.61625(11)
H1_5 H 0.3672 0.2927 0.6329
C3_5 C 0.3587(3) 0.17931(14) 0.64077(17)
C4_5 C 0.42497(17) 0.27741(15) 0.56786(10)
C5_5 C 0.4460(2) 0.22300(11) 0.54315(15)
H2_5 H 0.4747 0.2373 0.5095
O3_3 O 0.56381(10) 0.43619(10) 0.38719(12)
Cu7_3 Cu 0.142678(11) 0.285356(16) 0.877070(14)
Cu8_3 Cu 0.190655(11) 0.381311(16) 0.789597(14)
O4_4 O 0.48126(11) 0.10974(15) 0.49572(7)
O6_5 O 0.18541(11) 0.22359(15) 0.83761(7)
O8_4 O 0.62849(10) 0.10974(15) 0.49572(7)
O9_5 O 0.44022(10) 0.02903(16) 0.56968(7)
O11_5 O 0.22645(10) 0.30430(16) 0.76365(7)
C6_5 C 0.45041(15) 0.09060(21) 0.54225(10)
C8_5 C 0.21626(15) 0.24273(21) 0.79108(10)
C9_5 C 0.38153(18) 0.12621(24) 0.61625(11)
C10_5 C 0.28514(18) 0.07802(16) 0.71708(11)
C11_5 C 0.28514(18) 0.20712(24) 0.71708(11)
H3_5 H 0.3672 0.0744 0.6329
H4_5 H 0.2995 0.0406 0.7004
H5_5 H 0.2995 0.2589 0.7004
C12_5 C 0.3080(3) 0.15402(14) 0.69256(17)
C13_5 C 0.42497(17) 0.14755(23) 0.56786(10)
C14_5 C 0.24170(17) 0.05592(15) 0.76547(10)
C15_5 C 0.24170(17) 0.18578(23) 0.76547(10)
C16_5 C 0.2207(2) 0.11033(11) 0.79018(15)
H6_5 H 0.1920 0.0960 0.8238
O16_4 O 0.56381(10) 0.12761(14) 0.38719(12)
O10_5 O 0.22645(10) 0.92215(12) 0.76365(7)
C7_5 C 0.21626(15) 0.97353(15) 0.79108(10)
O5_5 O 0.03818(10) 0.22359(15) 0.83761(7)
O10_6 O 0.07785(12) 0.30430(16) 0.76365(7)
C7_6 C 0.02647(15) 0.24273(21) 0.79108(10)
O2_6 O 0.58882(12) 0.02903(16) 0.56968(7)
C1_6 C 0.64020(15) 0.09060(21) 0.54225(10)
C2_6 C 0.74469(16) 0.12621(24) 0.61625(11)
H1_6 H 0.7073 0.0744 0.6329
C3_6 C 0.82069(14) 0.17935(33) 0.64077(17)
C4_6 C 0.72259(15) 0.14755(23) 0.56786(10)
C5_6 C 0.77700(11) 0.22296(23) 0.54315(15)
H2_6 H 0.7627 0.2373 0.5095
O4_5 O 0.89026(15) 0.37151(19) 0.49572(7)
O9_6 O 0.97097(16) 0.41118(19) 0.56968(7)
C6_6 C 0.90940(21) 0.35980(26) 0.54225(10)
C9_6 C 0.87379(24) 0.25531(30) 0.61625(11)
C10_6 C 0.92198(16) 0.20712(24) 0.71708(11)
C11_6 C 0.79288(24) 0.07802(30) 0.71708(11)
H3_6 H 0.9256 0.2927 0.6329
H4_6 H 0.9594 0.2589 0.7004
H5_6 H 0.7411 0.0406 0.7004
C12_6 C 0.84598(14) 0.15398(33) 0.69256(17)
C13_6 C 0.85245(23) 0.27741(29) 0.56786(10)
C14_6 C 0.94408(15) 0.18578(23) 0.76547(10)
C15_6 C 0.81422(23) 0.05592(29) 0.76547(10)
C16_6 C 0.88967(11) 0.11037(23) 0.79018(15)
H6_6 H 0.9040 0.0960 0.8238
O16_5 O 0.87239(14) 0.43619(17) 0.38719(12)
O11_6 O 0.69570(16) 0.92215(19) 0.76365(7)
C8_6 C 0.75727(21) 0.97353(26) 0.79108(10)
O1_4 O 0.70485(10) 0.14792(11) 0.17094(7)
C1_7 C 0.69314(15) 0.11707(15) 0.12441(10)
C2_7 C 0.58865(16) 0.04819(18) 0.05041(11)
H1_7 H 0.6261 0.0338 0.0337
C3_7 C 0.51265(14) 0.0253(3) 0.02589(17)
C4_7 C 0.61075(15) 0.09163(17) 0.09880(10)
C5_7 C 0.55634(11) 0.1126(2) 0.12351(15)
H2_7 H 0.5707 0.1413 0.1571
O3_4 O 0.76953(10) 0.23047(10) 0.27947(12)
O4_6 O 0.44308(15) 0.14792(11) 0.17094(7)
O7_3 O 0.85208(11) 0.29515(10) 0.17094(7)
O8_5 O 0.44308(15) 0.29515(10) 0.17094(7)
C6_7 C 0.42394(21) 0.11707(15) 0.12441(10)
C9_7 C 0.45955(24) 0.04819(18) 0.05041(11)
H3_7 H 0.4078 0.0338 0.0337
C13_7 C 0.48089(23) 0.09163(17) 0.09880(10)
O16_6 O 0.46095(14) 0.23047(10) 0.27947(12)
O5_6 O 0.29515(10) 0.85208(11) 0.82906(7)
O6_6 O 0.55692(15) 0.85208(11) 0.82906(7)
C7_7 C 0.30686(15) 0.88293(15) 0.87559(10)
C8_7 C 0.57606(21) 0.88293(15) 0.87559(10)
C10_7 C 0.41135(16) 0.95181(18) 0.94959(11)
C11_7 C 0.54045(24) 0.95181(18) 0.94959(11)
H4_7 H 0.3739 0.9662 0.9663
H5_7 H 0.5922 0.9662 0.9663
C12_7 C 0.48735(14) 0.9747(3) 0.97411(17)
C14_7 C 0.38925(15) 0.90837(17) 0.90120(10)
C15_7 C 0.51911(23) 0.90837(17) 0.90120(10)
C16_7 C 0.44366(11) 0.8874(2) 0.87649(15)
H6_7 H 0.4293 0.8587 0.8429
O1_5 O 0.14792(11) 0.70485(10) 0.82906(7)
C1_8 C 0.11707(15) 0.69314(15) 0.87559(10)
C2_8 C 0.04819(18) 0.58865(16) 0.94959(11)
H1_8 H 0.0338 0.6261 0.9663
C3_8 C 0.0253(3) 0.51265(14) 0.97411(17)
C4_8 C 0.09163(17) 0.61075(15) 0.90120(10)
C5_8 C 0.1126(2) 0.55634(11) 0.87649(15)
H2_8 H 0.1413 0.5707 0.8429
O3_5 O 0.23047(10) 0.76953(10) 0.72053(12)
O4_7 O 0.14792(11) 0.44308(15) 0.82906(7)
O8_6 O 0.29515(10) 0.44308(15) 0.82906(7)
O9_7 O 0.10688(10) 0.36237(16) 0.90302(7)
C6_8 C 0.11707(15) 0.42394(21) 0.87559(10)
C9_8 C 0.04819(18) 0.45955(24) 0.94959(11)
H3_8 H 0.0338 0.4078 0.9663
C13_8 C 0.09163(17) 0.48089(23) 0.90120(10)
O16_7 O 0.23047(10) 0.46095(14) 0.72053(12)
O6_7 O 0.85208(11) 0.55692(15) 0.17094(7)
C7_8 C 0.88293(15) 0.30686(15) 0.12441(10)
C8_8 C 0.88293(15) 0.57606(21) 0.12441(10)
C10_8 C 0.95181(18) 0.41135(16) 0.05041(11)
C11_8 C 0.95181(18) 0.54045(24) 0.05041(11)
H4_8 H 0.9662 0.3739 0.0337
H5_8 H 0.9662 0.5922 0.0337
C12_8 C 0.9747(3) 0.48735(14) 0.02589(17)
C14_8 C 0.90837(17) 0.38925(15) 0.09880(10)
C15_8 C 0.90837(17) 0.51911(23) 0.09880(10)
C16_8 C 0.8874(2) 0.44366(11) 0.12351(15)
H6_8 H 0.8587 0.4293 0.1571
O3_6 O 0.43619(10) 0.56381(10) 0.61281(12)
O16_8 O 0.12761(14) 0.56381(10) 0.61281(12)
O15_4 O 0.25548(19) 0.36237(16) 0.90302(7)
O16_9 O 0.10286(17) 0.20572(14) 0.94614(12)
O5_7 O 0.70485(10) 0.55692(15) 0.17094(7)
C7_9 C 0.69314(15) 0.57606(21) 0.12441(10)
C8_9 C 0.42394(21) 0.30686(26) 0.12441(10)
C10_9 C 0.58865(16) 0.54045(24) 0.05041(11)
C11_9 C 0.45955(24) 0.41135(30) 0.05041(11)
H4_9 H 0.6261 0.5922 0.0337
H5_9 H 0.4078 0.3739 0.0337
C12_9 C 0.51265(14) 0.48731(33) 0.02589(17)
C14_9 C 0.61075(15) 0.51911(23) 0.09880(10)
C15_9 C 0.48089(23) 0.38925(29) 0.09880(10)
C16_9 C 0.55634(11) 0.44370(23) 0.12351(15)
H6_9 H 0.5707 0.4293 0.1571
C1_9 C 0.30686(15) 0.42394(21) 0.87559(10)
C2_9 C 0.41135(16) 0.45955(24) 0.94959(11)
H1_9 H 0.3739 0.4078 0.9663
C3_9 C 0.48735(14) 0.51269(33) 0.97411(17)
C4_9 C 0.38925(15) 0.48089(23) 0.90120(10)
C5_9 C 0.44366(11) 0.55630(23) 0.87649(15)
H2_9 H 0.4293 0.5707 0.8429
O4_8 O 0.55692(15) 0.70485(19) 0.82906(7)
C6_9 C 0.57606(21) 0.69314(26) 0.87559(10)
C9_9 C 0.54045(24) 0.58865(30) 0.94959(11)
H3_9 H 0.5922 0.6261 0.9663
C13_9 C 0.51911(23) 0.61075(29) 0.90120(10)
O16_10 O 0.53905(14) 0.76953(17) 0.72053(12)
O16_11 O 0.43619(17) 0.87239(14) 0.61281(12)
O16_12 O 0.76953(17) 0.53905(14) 0.27947(12)
loop_
_geom_bond_atom_site_label_1
_geom_bond_atom_site_label_2
_geom_bond_site_symmetry_1
_geom_bond_site_symmetry_2
Cu1 O1 1_555 1_555
O1 C1 1_555 1_555
O2 C1 1_555 1_555
O3 Cu1 1_555 1_555
Cu3 O2 1_555 1_555
O7 Cu1 1_555 1_555
O12 Cu1 1_555 1_555
O13 Cu1 1_555 1_555
C2 H1 1_555 1_555
C3 C2 1_555 1_555
C4 C2 1_555 1_555
C5 C4 1_555 1_555
H2 C5 1_555 1_555
Cu2 O4 1_555 1_555
Cu4 O9 1_555 1_555
Cu5 O5 1_555 1_555
Cu6 O10 1_555 1_555
Cu7 O6 1_555 1_555
O4 C6 1_555 1_555
O5 C7 1_555 1_555
O6 C8 1_555 1_555
O8 Cu2 1_555 1_555
O9 C6 1_555 1_555
O10 C7 1_555 1_555
O11 C8 1_555 1_555
O14 Cu2 1_555 1_555
O15 Cu2 1_555 1_555
C6 C13 1_555 1_555
C7 C14 1_555 1_555
C8 C15 1_555 1_555
C9 C3 1_555 1_555
C10 H4 1_555 1_555
C11 H5 1_555 1_555
H3 C9 1_555 1_555
C12 C3 1_555 1_555
C13 C5 1_555 1_555
C14 C10 1_555 1_555
C15 C11 1_555 1_555
C16 C14 1_555 1_555
H6 C16 1_555 1_555
O16 Cu2 1_555 1_555
C9 C13 1_555 1_555
C10 C12 1_555 1_555
C11 C12 1_555 1_555
C15 C16 1_555 1_555
Cu2_2 O4_2 1_555 1_555
Cu4_2 O9_2 1_555 1_555
O4_2 C6_2 1_555 1_555
O8_2 Cu2_2 1_555 1_555
O9_2 C6_2 1_555 1_555
O14_2 Cu2_2 1_555 1_555
O15_2 Cu2_2 1_555 1_555
O16_2 Cu2_2 1_555 1_555
C2_2 H1_2 1_555 1_555
C3_2 C2_2 1_555 1_555
C4_2 C2_2 1_555 1_555
C5_2 C4_2 1_555 1_555
H2_2 C5_2 1_555 1_555
Cu7 O5_2 1_555 1_555
Cu7_2 O6_2 1_555 1_555
O5_2 C7_2 1_555 1_555
O6_2 C8_2 1_555 1_555
O10_2 C7_2 1_555 1_555
O11_2 C8_2 1_555 1_555
C7_2 C14_2 1_555 1_555
C8_2 C15_2 1_555 1_555
C9_2 C3_2 1_555 1_555
C10_2 H4_2 1_555 1_555
C11_2 H5_2 1_555 1_555
H3_2 C9_2 1_555 1_555
C12_2 C3_2 1_555 1_555
C13_2 C5_2 1_555 1_555
C14_2 C10_2 1_555 1_555
C15_2 C11_2 1_555 1_555
C16_2 C14_2 1_555 1_555
H6_2 C16_2 1_555 1_555
C9_2 C13_2 1_555 1_555
C10_2 C12_2 1_555 1_555
C11_2 C12_2 1_555 1_555
C15_2 C16_2 1_555 1_555
O8 C1_2 1_555 1_555
O2_2 C1_2 1_555 1_555
Cu4 O2_2 1_555 1_555
O8_2 C1_3 1_555 1_555
O2_3 C1_3 1_555 1_555
C1_3 C4_3 1_555 1_555
C2_3 H1_3 1_555 1_555
C3_3 C2_3 1_555 1_555
C4_3 C2_3 1_555 1_555
C5_3 C4_3 1_555 1_555
H2_3 C5_3 1_555 1_555
Cu4_2 O2_3 1_555 1_555
Cu7_2 O5_3 1_555 1_555
Cu5 O6_3 1_555 1_555
Cu6 O11_3 1_555 1_555
O5_3 C7_3 1_555 1_555
O6_3 C8_3 1_555 1_555
O10_3 C7_3 1_555 1_555
O11_3 C8_3 1_555 1_555
C7_3 C14_3 1_555 1_555
C8_3 C15_3 1_555 1_555
C9_3 C3_3 1_555 1_555
C10_3 H4_3 1_555 1_555
C11_3 H5_3 1_555 1_555
H3_3 C9_3 1_555 1_555
C12_3 C3_3 1_555 1_555
C13_3 C5_3 1_555 1_555
C14_3 C10_3 1_555 1_555
C15_3 C11_3 1_555 1_555
C16_3 C14_3 1_555 1_555
H6_3 C16_3 1_555 1_555
C9_3 C13_3 1_555 1_555
C10_3 C12_3 1_555 1_555
C11_3 C12_3 1_555 1_555
C15_3 C16_3 1_555 1_555
Cu3 O9_3 1_555 1_555
O7 C6_3 1_555 1_555
O9_3 C6_3 1_555 1_555
Cu1_2 O1_2 1_555 1_555
O1_2 C1_4 1_555 1_555
O2_4 C1_4 1_555 1_555
O3_2 Cu1_2 1_555 1_555
Cu3_2 O2_4 1_555 1_555
O7_2 Cu1_2 1_555 1_555
O12_2 Cu1_2 1_555 1_555
O13_2 Cu1_2 1_555 1_555
C2_4 H1_4 1_555 1_555
C3_4 C2_4 1_555 1_555
C4_4 C2_4 1_555 1_555
C5_4 C4_4 1_555 1_555
H2_4 C5_4 1_555 1_555
Cu2_3 O4_3 1_555 1_555
Cu4_3 O9_4 1_555 1_555
Cu6 O5_4 1_555 1_555
Cu5 O10_4 1_555 1_555
Cu8_2 O6_4 1_555 1_555
O4_3 C6_4 1_555 1_555
O5_4 C7_4 1_555 1_555
O6_4 C8_4 1_555 1_555
O8_3 Cu2_3 1_555 1_555
O9_4 C6_4 1_555 1_555
O10_4 C7_4 1_555 1_555
O11_4 C8_4 1_555 1_555
O14_3 Cu2_3 1_555 1_555
O15_3 Cu2_3 1_555 1_555
C6_4 C13_4 1_555 1_555
C7_4 C14_4 1_555 1_555
C8_4 C15_4 1_555 1_555
C9_4 C3_4 1_555 1_555
C10_4 H4_4 1_555 1_555
C11_4 H5_4 1_555 1_555
H3_4 C9_4 1_555 1_555
C12_4 C3_4 1_555 1_555
C13_4 C5_4 1_555 1_555
C14_4 C10_4 1_555 1_555
C15_4 C11_4 1_555 1_555
C16_4 C14_4 1_555 1_555
H6_4 C16_4 1_555 1_555
O16_3 Cu2_3 1_555 1_555
C9_4 C13_4 1_555 1_555
C10_4 C12_4 1_555 1_555
C11_4 C12_4 1_555 1_555
C15_4 C16_4 1_555 1_555
Cu6 O1_3 1_555 1_555
O1_3 C1_5 1_555 1_555
O2_5 C1_5 1_555 1_555
C1_5 C4_5 1_555 1_555
C2_5 H1_5 1_555 1_555
C3_5 C2_5 1_555 1_555
C4_5 C2_5 1_555 1_555
C5_5 C4_5 1_555 1_555
H2_5 C5_5 1_555 1_555
O3_3 Cu6 1_555 1_555
Cu8 O4_4 1_555 1_555
Cu5 O2_5 1_555 1_555
Cu7_3 O6_5 1_555 1_555
Cu8_3 O11_5 1_555 1_555
O4_4 C6_5 1_555 1_555
O6_5 C8_5 1_555 1_555
O8_4 Cu8 1_555 1_555
O9_5 C6_5 1_555 1_555
O11_5 C8_5 1_555 1_555
C6_5 C13_5 1_555 1_555
C8_5 C15_5 1_555 1_555
C9_5 C3_5 1_555 1_555
C10_5 H4_5 1_555 1_555
C11_5 H5_5 1_555 1_555
H3_5 C9_5 1_555 1_555
C12_5 C3_5 1_555 1_555
C13_5 C5_5 1_555 1_555
C14_5 C10_5 1_555 1_555
C15_5 C11_5 1_555 1_555
C16_5 C14_5 1_555 1_555
H6_5 C16_5 1_555 1_555
O16_4 Cu8 1_555 1_555
C9_5 C13_5 1_555 1_555
C10_5 C12_5 1_555 1_555
C11_5 C12_5 1_555 1_555
C15_5 C16_5 1_555 1_555
Cu3_2 O10_5 1_555 1_555
O7_2 C7_5 1_555 1_555
O10_5 C7_5 1_555 1_555
Cu7_3 O5_5 1_555 1_555
Cu8_3 O10_6 1_555 1_555
O5_5 C7_6 1_555 1_555
O10_6 C7_6 1_555 1_555
O8_4 C1_6 1_555 1_555
O2_6 C1_6 1_555 1_555
C1_6 C4_6 1_555 1_555
C2_6 H1_6 1_555 1_555
C3_6 C2_6 1_555 1_555
C4_6 C2_6 1_555 1_555
C5_6 C4_6 1_555 1_555
H2_6 C5_6 1_555 1_555
Cu8_2 O4_5 1_555 1_555
O4_5 C6_6 1_555 1_555
O9_6 C6_6 1_555 1_555
C6_6 C13_6 1_555 1_555
C9_6 C3_6 1_555 1_555
C10_6 H4_6 1_555 1_555
C11_6 H5_6 1_555 1_555
H3_6 C9_6 1_555 1_555
C12_6 C3_6 1_555 1_555
C13_6 C5_6 1_555 1_555
C14_6 C10_6 1_555 1_555
C15_6 C11_6 1_555 1_555
C16_6 C14_6 1_555 1_555
H6_6 C16_6 1_555 1_555
O16_5 Cu8_2 1_555 1_555
C9_6 C13_6 1_555 1_555
C10_6 C12_6 1_555 1_555
C11_6 C12_6 1_555 1_555
C15_6 C16_6 1_555 1_555
Cu4_3 O11_6 1_555 1_555
O8_3 C8_6 1_555 1_555
O11_6 C8_6 1_555 1_555
Cu3 O1_4 1_555 1_555
O1_4 C1_7 1_555 1_555
O12 C1_7 1_555 1_555
C1_7 C4_7 1_555 1_555
C2_7 H1_7 1_555 1_555
C3_7 C2_7 1_555 1_555
C4_7 C2_7 1_555 1_555
C5_7 C4_7 1_555 1_555
H2_7 C5_7 1_555 1_555
O3_4 Cu3 1_555 1_555
Cu4_2 O4_6 1_555 1_555
O4_6 C6_7 1_555 1_555
O7_3 Cu3 1_555 1_555
O8_5 Cu4_2 1_555 1_555
O14_2 C6_7 1_555 1_555
C6_7 C13_7 1_555 1_555
C9_7 C3_7 1_555 1_555
H3_7 C9_7 1_555 1_555
C13_7 C5_7 1_555 1_555
O16_6 Cu4_2 1_555 1_555
C9_7 C13_7 1_555 1_555
Cu3_2 O5_6 1_555 1_555
Cu4_3 O6_6 1_555 1_555
O5_6 C7_7 1_555 1_555
O6_6 C8_7 1_555 1_555
O13_2 C7_7 1_555 1_555
O15_3 C8_7 1_555 1_555
C7_7 C14_7 1_555 1_555
C8_7 C15_7 1_555 1_555
C10_7 H4_7 1_555 1_555
C11_7 H5_7 1_555 1_555
C14_7 C10_7 1_555 1_555
C15_7 C11_7 1_555 1_555
C16_7 C14_7 1_555 1_555
H6_7 C16_7 1_555 1_555
C10_7 C12_7 1_555 1_555
C11_7 C12_7 1_555 1_555
C15_7 C16_7 1_555 1_555
Cu3_2 O1_5 1_555 1_555
O1_5 C1_8 1_555 1_555
O12_2 C1_8 1_555 1_555
C1_8 C4_8 1_555 1_555
C2_8 H1_8 1_555 1_555
C3_8 C2_8 1_555 1_555
C4_8 C2_8 1_555 1_555
C5_8 C4_8 1_555 1_555
H2_8 C5_8 1_555 1_555
O3_5 Cu3_2 1_555 1_555
Cu8_3 O4_7 1_555 1_555
Cu7_3 O9_7 1_555 1_555
O4_7 C6_8 1_555 1_555
O8_6 Cu8_3 1_555 1_555
O9_7 C6_8 1_555 1_555
C6_8 C13_8 1_555 1_555
C9_8 C3_8 1_555 1_555
H3_8 C9_8 1_555 1_555
C13_8 C5_8 1_555 1_555
O16_7 Cu8_3 1_555 1_555
C9_8 C13_8 1_555 1_555
Cu4 O6_7 1_555 1_555
O7_3 C7_8 1_555 1_555
O6_7 C8_8 1_555 1_555
O13 C7_8 1_555 1_555
O15 C8_8 1_555 1_555
C7_8 C14_8 1_555 1_555
C8_8 C15_8 1_555 1_555
C10_8 H4_8 1_555 1_555
C11_8 H5_8 1_555 1_555
C14_8 C10_8 1_555 1_555
C15_8 C11_8 1_555 1_555
C16_8 C14_8 1_555 1_555
H6_8 C16_8 1_555 1_555
C10_8 C12_8 1_555 1_555
C11_8 C12_8 1_555 1_555
C15_8 C16_8 1_555 1_555
O3_6 Cu5 1_555 1_555
O16_8 Cu7_2 1_555 1_555
O15_4 Cu7_3 1_555 1_555
O16_9 Cu7_3 1_555 1_555
Cu4 O5_7 1_555 1_555
O5_7 C7_9 1_555 1_555
O8_5 C8_9 1_555 1_555
O14 C7_9 1_555 1_555
O15_2 C8_9 1_555 1_555
C7_9 C14_9 1_555 1_555
C8_9 C15_9 1_555 1_555
C10_9 H4_9 1_555 1_555
C11_9 H5_9 1_555 1_555
C14_9 C10_9 1_555 1_555
C15_9 C11_9 1_555 1_555
C16_9 C14_9 1_555 1_555
H6_9 C16_9 1_555 1_555
C10_9 C12_9 1_555 1_555
C11_9 C12_9 1_555 1_555
C15_9 C16_9 1_555 1_555
O8_6 C1_9 1_555 1_555
O15_4 C1_9 1_555 1_555
C1_9 C4_9 1_555 1_555
C2_9 H1_9 1_555 1_555
C3_9 C2_9 1_555 1_555
C4_9 C2_9 1_555 1_555
C5_9 C4_9 1_555 1_555
H2_9 C5_9 1_555 1_555
Cu4_3 O4_8 1_555 1_555
O4_8 C6_9 1_555 1_555
O14_3 C6_9 1_555 1_555
C6_9 C13_9 1_555 1_555
C9_9 C3_9 1_555 1_555
H3_9 C9_9 1_555 1_555
C13_9 C5_9 1_555 1_555
O16_10 Cu4_3 1_555 1_555
C9_9 C13_9 1_555 1_555
O16_11 Cu7 1_555 1_555
O16_12 Cu4 1_555 1_555

#END
