
###############################################################################
#
# This file contains modified crystal structure data generated from the
# MOF subset of the Cambridge Structural Database (CSD) v543 
# hosted by the Cambridge Crystallographic Data Centre (CCDC).
#
# This work is licensed under the Creative Commons
# Attribution-NonCommercial-ShareAlike 4.0 International License.
# To view a copy of this license, visit
# http://creativecommons.org/licenses/by-nc-sa/4.0/
# or send a letter to
# Creative Commons, PO Box 1866, Mountain View, CA 94042, USA.
#
# CIF created using the CSD Python API on 29 September 2022
# The structure has been converted into the P1 space group
# The structure has a 3D framework
# The original CSD entry LATFOC is in the cubic crystal system
# The framework has been calculated to contain at least 10.0% void space
# The void calculation uses a probe of radius 1.32A, grid spacing 0.4
#
###############################################################################

data_LATFOC
_chemical_formula_moiety         '(C192 H96 O104 Zn32)n'
_symmetry_cell_setting           triclinic
_symmetry_space_group_name_H-M   'P 1'
_symmetry_Int_Tables_number      1
_space_group_name_Hall           'P 1'
loop_
_symmetry_equiv_pos_site_id
_symmetry_equiv_pos_as_xyz
1 x,y,z
_cell_length_a                   25.795(2)
_cell_length_b                   25.795(2)
_cell_length_c                   25.795(2)
_cell_angle_alpha                90
_cell_angle_beta                 90
_cell_angle_gamma                90
_cell_volume                     17163.5
loop_
_atom_site_label
_atom_site_type_symbol
_atom_site_fract_x
_atom_site_fract_y
_atom_site_fract_z
Zn1 Zn 0.293526(9) 0.293526(9) 0.206474(9)
O1 O 0.2500 0.2500 0.2500
O2 O 0.28048(6) 0.36624(7) 0.21952(6)
C1 C 0.2500 0.38846(13) 0.2500
C2 C 0.2500 0.44639(13) 0.2500
C3 C 0.28225(9) 0.47340(11) 0.21775(9)
H1 H 0.3044 0.4555 0.1956
Zn2 Zn 0.293526(9) 0.206474(9) 0.293526(9)
Zn3 Zn 0.206474(9) 0.293526(9) 0.293526(9)
Zn4 Zn 0.206474(9) 0.206474(9) 0.206474(9)
Zn5 Zn 0.293526(9) 0.706474(9) 0.206474(9)
Zn6 Zn 0.206474(9) 0.706474(9) 0.293526(9)
Zn7 Zn 0.706474(9) 0.293526(9) 0.206474(9)
Zn8 Zn 0.706474(9) 0.206474(9) 0.293526(9)
O3 O 0.21952(6) 0.36624(7) 0.28048(6)
O4 O 0.28048(6) 0.63376(7) 0.21952(6)
O5 O 0.21952(6) 0.63376(7) 0.28048(6)
O6 O 0.36624(7) 0.28048(6) 0.21952(6)
O7 O 0.36624(7) 0.21952(6) 0.28048(6)
O8 O 0.63376(7) 0.28048(6) 0.21952(6)
O9 O 0.63376(7) 0.21952(6) 0.28048(6)
O10 O 0.28048(6) 0.28048(6) 0.13376(7)
O11 O 0.21952(6) 0.21952(6) 0.13376(7)
O14 O 0.28048(6) 0.21952(6) 0.36624(7)
O15 O 0.28048(6) 0.13376(7) 0.28048(6)
O16 O 0.21952(6) 0.28048(6) 0.36624(7)
O17 O 0.13376(7) 0.28048(6) 0.28048(6)
O18 O 0.21952(6) 0.13376(7) 0.21952(6)
O19 O 0.13376(7) 0.21952(6) 0.21952(6)
C4 C 0.2500 0.61154(13) 0.2500
C5 C 0.38846(13) 0.2500 0.2500
C6 C 0.61154(13) 0.2500 0.2500
C7 C 0.2500 0.2500 0.11154(13)
C9 C 0.2500 0.55361(13) 0.2500
C10 C 0.44639(13) 0.2500 0.2500
C11 C 0.55361(13) 0.2500 0.2500
C12 C 0.2500 0.2500 0.05361(13)
C14 C 0.28225(9) 0.52660(11) 0.21775(9)
C15 C 0.21775(9) 0.52660(11) 0.28225(9)
C16 C 0.21775(9) 0.47340(11) 0.28225(9)
C17 C 0.47340(11) 0.28225(9) 0.21775(9)
C18 C 0.52660(11) 0.28225(9) 0.21775(9)
C19 C 0.52660(11) 0.21775(9) 0.28225(9)
C20 C 0.47340(11) 0.21775(9) 0.28225(9)
C21 C 0.28225(9) 0.28225(9) 0.02660(11)
C24 C 0.21775(9) 0.21775(9) 0.02660(11)
H2 H 0.1956 0.4555 0.3044
H3 H 0.1956 0.5445 0.3044
H4 H 0.3044 0.5445 0.1956
H5 H 0.4555 0.3044 0.1956
H6 H 0.4555 0.1956 0.3044
H7 H 0.5445 0.1956 0.3044
H8 H 0.5445 0.3044 0.1956
H9 H 0.3044 0.3044 0.0445
H10 H 0.1956 0.1956 0.0445
Zn9 Zn 0.293526(9) 0.293526(9) 0.793526(9)
Zn10 Zn 0.206474(9) 0.206474(9) 0.793526(9)
O12 O 0.28048(6) 0.28048(6) 0.86624(7)
O13 O 0.21952(6) 0.21952(6) 0.86624(7)
C8 C 0.2500 0.2500 0.88846(13)
C13 C 0.2500 0.2500 0.94639(13)
C22 C 0.28225(9) 0.28225(9) 0.97340(11)
C23 C 0.21775(9) 0.21775(9) 0.97340(11)
H11 H 0.1956 0.1956 0.9555
H12 H 0.3044 0.3044 0.9555
C1_2 C 0.2500 0.2500 0.38846(13)
C2_2 C 0.2500 0.2500 0.44639(13)
C3_2 C 0.21775(9) 0.28225(9) 0.47340(11)
H1_2 H 0.1956 0.3044 0.4555
Zn5_2 Zn 0.206474(9) 0.293526(9) 0.706474(9)
Zn6_2 Zn 0.293526(9) 0.206474(9) 0.706474(9)
O4_2 O 0.21952(6) 0.28048(6) 0.63376(7)
O5_2 O 0.28048(6) 0.21952(6) 0.63376(7)
C4_2 C 0.2500 0.2500 0.61154(13)
C7_2 C 0.11154(13) 0.2500 0.2500
C9_2 C 0.2500 0.2500 0.55361(13)
C12_2 C 0.05361(13) 0.2500 0.2500
C14_2 C 0.21775(9) 0.28225(9) 0.52660(11)
C15_2 C 0.28225(9) 0.21775(9) 0.52660(11)
C16_2 C 0.28225(9) 0.21775(9) 0.47340(11)
C21_2 C 0.02660(11) 0.28225(9) 0.28225(9)
C24_2 C 0.02660(11) 0.21775(9) 0.21775(9)
H2_2 H 0.3044 0.1956 0.4555
H3_2 H 0.3044 0.1956 0.5445
H4_2 H 0.1956 0.3044 0.5445
H9_2 H 0.0445 0.3044 0.3044
H10_2 H 0.0445 0.1956 0.1956
Zn9_2 Zn 0.793526(9) 0.293526(9) 0.293526(9)
Zn10_2 Zn 0.793526(9) 0.206474(9) 0.206474(9)
O12_2 O 0.86624(7) 0.28048(6) 0.28048(6)
O13_2 O 0.86624(7) 0.21952(6) 0.21952(6)
C8_2 C 0.88846(13) 0.2500 0.2500
C13_2 C 0.94639(13) 0.2500 0.2500
C22_2 C 0.97340(11) 0.28225(9) 0.28225(9)
C23_2 C 0.97340(11) 0.21775(9) 0.21775(9)
H11_2 H 0.9555 0.1956 0.1956
H12_2 H 0.9555 0.3044 0.3044
C7_3 C 0.2500 0.11154(13) 0.2500
C12_3 C 0.2500 0.05361(13) 0.2500
C21_3 C 0.28225(9) 0.02660(11) 0.28225(9)
C24_3 C 0.21775(9) 0.02660(11) 0.21775(9)
H9_3 H 0.3044 0.0445 0.3044
H10_3 H 0.1956 0.0445 0.1956
Zn9_3 Zn 0.293526(9) 0.793526(9) 0.293526(9)
Zn10_3 Zn 0.206474(9) 0.793526(9) 0.206474(9)
O12_3 O 0.28048(6) 0.86624(7) 0.28048(6)
O13_3 O 0.21952(6) 0.86624(7) 0.21952(6)
C8_3 C 0.2500 0.88846(13) 0.2500
C13_3 C 0.2500 0.94639(13) 0.2500
C22_3 C 0.28225(9) 0.97340(11) 0.28225(9)
C23_3 C 0.21775(9) 0.97340(11) 0.21775(9)
H11_3 H 0.1956 0.9555 0.1956
H12_3 H 0.3044 0.9555 0.3044
O1_2 O 0.2500 0.2500 0.7500
O2_2 O 0.36624(7) 0.28048(6) 0.78048(6)
C1_3 C 0.38846(13) 0.2500 0.7500
C2_3 C 0.44639(13) 0.2500 0.7500
C3_3 C 0.47340(11) 0.28225(9) 0.78225(9)
H1_3 H 0.4555 0.3044 0.8044
Zn5_3 Zn 0.706474(9) 0.293526(9) 0.793526(9)
Zn6_3 Zn 0.706474(9) 0.206474(9) 0.706474(9)
Zn7_2 Zn 0.293526(9) 0.706474(9) 0.793526(9)
Zn8_2 Zn 0.206474(9) 0.706474(9) 0.706474(9)
O3_2 O 0.36624(7) 0.21952(6) 0.71952(6)
O4_3 O 0.63376(7) 0.28048(6) 0.78048(6)
O5_3 O 0.63376(7) 0.21952(6) 0.71952(6)
O6_2 O 0.28048(6) 0.36624(7) 0.78048(6)
O7_2 O 0.21952(6) 0.36624(7) 0.71952(6)
O8_2 O 0.28048(6) 0.63376(7) 0.78048(6)
O9_2 O 0.21952(6) 0.63376(7) 0.71952(6)
O15_2 O 0.13376(7) 0.28048(6) 0.71952(6)
O17_2 O 0.28048(6) 0.13376(7) 0.71952(6)
O18_2 O 0.13376(7) 0.21952(6) 0.78048(6)
O19_2 O 0.21952(6) 0.13376(7) 0.78048(6)
C4_3 C 0.61154(13) 0.2500 0.7500
C5_2 C 0.2500 0.38846(13) 0.7500
C6_2 C 0.2500 0.61154(13) 0.7500
C9_3 C 0.55361(13) 0.2500 0.7500
C10_2 C 0.2500 0.44639(13) 0.7500
C11_2 C 0.2500 0.55361(13) 0.7500
C14_3 C 0.52660(11) 0.28225(9) 0.78225(9)
C15_3 C 0.52660(11) 0.21775(9) 0.71775(9)
C16_3 C 0.47340(11) 0.21775(9) 0.71775(9)
C17_2 C 0.28225(9) 0.47340(11) 0.78225(9)
C18_2 C 0.28225(9) 0.52660(11) 0.78225(9)
C19_2 C 0.21775(9) 0.52660(11) 0.71775(9)
C20_2 C 0.21775(9) 0.47340(11) 0.71775(9)
H2_3 H 0.4555 0.1956 0.6956
H3_3 H 0.5445 0.1956 0.6956
H4_3 H 0.5445 0.3044 0.8044
H5_2 H 0.3044 0.4555 0.8044
H6_2 H 0.1956 0.4555 0.6956
H7_2 H 0.1956 0.5445 0.6956
H8_2 H 0.3044 0.5445 0.8044
O1_3 O 0.2500 0.7500 0.2500
O2_3 O 0.36624(7) 0.71952(6) 0.21952(6)
C1_4 C 0.38846(13) 0.7500 0.2500
C2_4 C 0.44639(13) 0.7500 0.2500
C3_4 C 0.47340(11) 0.71775(9) 0.21775(9)
H1_4 H 0.4555 0.6956 0.1956
Zn5_4 Zn 0.706474(9) 0.706474(9) 0.206474(9)
Zn6_4 Zn 0.706474(9) 0.793526(9) 0.293526(9)
O3_3 O 0.36624(7) 0.78048(6) 0.28048(6)
O4_4 O 0.63376(7) 0.71952(6) 0.21952(6)
O5_4 O 0.63376(7) 0.78048(6) 0.28048(6)
O10_2 O 0.28048(6) 0.71952(6) 0.13376(7)
O11_2 O 0.21952(6) 0.78048(6) 0.13376(7)
O14_2 O 0.21952(6) 0.71952(6) 0.36624(7)
O15_3 O 0.13376(7) 0.71952(6) 0.28048(6)
O16_2 O 0.28048(6) 0.78048(6) 0.36624(7)
O18_3 O 0.13376(7) 0.78048(6) 0.21952(6)
C4_4 C 0.61154(13) 0.7500 0.2500
C7_4 C 0.2500 0.7500 0.11154(13)
C9_4 C 0.55361(13) 0.7500 0.2500
C12_4 C 0.2500 0.7500 0.05361(13)
C14_4 C 0.52660(11) 0.71775(9) 0.21775(9)
C15_4 C 0.52660(11) 0.78225(9) 0.28225(9)
C16_4 C 0.47340(11) 0.78225(9) 0.28225(9)
C21_4 C 0.28225(9) 0.71775(9) 0.02660(11)
C24_4 C 0.21775(9) 0.78225(9) 0.02660(11)
H2_4 H 0.4555 0.8044 0.3044
H3_4 H 0.5445 0.8044 0.3044
H4_4 H 0.5445 0.6956 0.1956
H9_4 H 0.3044 0.6956 0.0445
H10_4 H 0.1956 0.8044 0.0445
Zn10_4 Zn 0.206474(9) 0.793526(9) 0.793526(9)
O12_4 O 0.28048(6) 0.71952(6) 0.86624(7)
O13_4 O 0.21952(6) 0.78048(6) 0.86624(7)
C8_4 C 0.2500 0.7500 0.88846(13)
C13_4 C 0.2500 0.7500 0.94639(13)
C22_4 C 0.28225(9) 0.71775(9) 0.97340(11)
C23_4 C 0.21775(9) 0.78225(9) 0.97340(11)
H11_4 H 0.1956 0.8044 0.9555
H12_4 H 0.3044 0.6956 0.9555
O1_4 O 0.7500 0.2500 0.2500
Zn8_3 Zn 0.793526(9) 0.706474(9) 0.293526(9)
O6_3 O 0.71952(6) 0.36624(7) 0.21952(6)
O7_3 O 0.78048(6) 0.36624(7) 0.28048(6)
O8_3 O 0.71952(6) 0.63376(7) 0.21952(6)
O9_3 O 0.78048(6) 0.63376(7) 0.28048(6)
O10_3 O 0.71952(6) 0.28048(6) 0.13376(7)
O11_3 O 0.78048(6) 0.21952(6) 0.13376(7)
O14_3 O 0.78048(6) 0.28048(6) 0.36624(7)
O16_3 O 0.71952(6) 0.21952(6) 0.36624(7)
O17_3 O 0.71952(6) 0.13376(7) 0.28048(6)
O19_3 O 0.78048(6) 0.13376(7) 0.21952(6)
C5_3 C 0.7500 0.38846(13) 0.2500
C6_3 C 0.7500 0.61154(13) 0.2500
C7_5 C 0.7500 0.2500 0.11154(13)
C10_3 C 0.7500 0.44639(13) 0.2500
C11_3 C 0.7500 0.55361(13) 0.2500
C12_5 C 0.7500 0.2500 0.05361(13)
C17_3 C 0.71775(9) 0.47340(11) 0.21775(9)
C18_3 C 0.71775(9) 0.52660(11) 0.21775(9)
C19_3 C 0.78225(9) 0.52660(11) 0.28225(9)
C20_3 C 0.78225(9) 0.47340(11) 0.28225(9)
C21_5 C 0.71775(9) 0.28225(9) 0.02660(11)
C24_5 C 0.78225(9) 0.21775(9) 0.02660(11)
H5_3 H 0.6956 0.4555 0.1956
H6_3 H 0.8044 0.4555 0.3044
H7_3 H 0.8044 0.5445 0.3044
H8_3 H 0.6956 0.5445 0.1956
H9_5 H 0.6956 0.3044 0.0445
H10_5 H 0.8044 0.1956 0.0445
Zn10_5 Zn 0.793526(9) 0.206474(9) 0.793526(9)
O12_5 O 0.71952(6) 0.28048(6) 0.86624(7)
O13_5 O 0.78048(6) 0.21952(6) 0.86624(7)
C8_5 C 0.7500 0.2500 0.88846(13)
C13_5 C 0.7500 0.2500 0.94639(13)
C22_5 C 0.71775(9) 0.28225(9) 0.97340(11)
C23_5 C 0.78225(9) 0.21775(9) 0.97340(11)
H11_5 H 0.8044 0.1956 0.9555
H12_5 H 0.6956 0.3044 0.9555
C7_6 C 0.2500 0.11154(13) 0.7500
C12_6 C 0.2500 0.05361(13) 0.7500
C21_6 C 0.28225(9) 0.02660(11) 0.71775(9)
C24_6 C 0.21775(9) 0.02660(11) 0.78225(9)
H9_6 H 0.3044 0.0445 0.6956
H10_6 H 0.1956 0.0445 0.8044
Zn9_4 Zn 0.293526(9) 0.793526(9) 0.706474(9)
O12_6 O 0.28048(6) 0.86624(7) 0.71952(6)
O13_6 O 0.21952(6) 0.86624(7) 0.78048(6)
C8_6 C 0.2500 0.88846(13) 0.7500
C13_6 C 0.2500 0.94639(13) 0.7500
C22_6 C 0.28225(9) 0.97340(11) 0.71775(9)
C23_6 C 0.21775(9) 0.97340(11) 0.78225(9)
H11_6 H 0.1956 0.9555 0.8044
H12_6 H 0.3044 0.9555 0.6956
C1_5 C 0.7500 0.2500 0.38846(13)
C2_5 C 0.7500 0.2500 0.44639(13)
C3_5 C 0.71775(9) 0.21775(9) 0.47340(11)
H1_5 H 0.6956 0.1956 0.4555
Zn6_5 Zn 0.793526(9) 0.293526(9) 0.706474(9)
O4_5 O 0.71952(6) 0.21952(6) 0.63376(7)
O5_5 O 0.78048(6) 0.28048(6) 0.63376(7)
C4_5 C 0.7500 0.2500 0.61154(13)
C7_7 C 0.7500 0.11154(13) 0.2500
C9_5 C 0.7500 0.2500 0.55361(13)
C12_7 C 0.7500 0.05361(13) 0.2500
C14_5 C 0.71775(9) 0.21775(9) 0.52660(11)
C15_5 C 0.78225(9) 0.28225(9) 0.52660(11)
C16_5 C 0.78225(9) 0.28225(9) 0.47340(11)
C21_7 C 0.71775(9) 0.02660(11) 0.28225(9)
C24_7 C 0.78225(9) 0.02660(11) 0.21775(9)
H2_5 H 0.8044 0.3044 0.4555
H3_5 H 0.8044 0.3044 0.5445
H4_5 H 0.6956 0.1956 0.5445
H9_7 H 0.6956 0.0445 0.3044
H10_7 H 0.8044 0.0445 0.1956
Zn10_6 Zn 0.793526(9) 0.793526(9) 0.206474(9)
O12_7 O 0.71952(6) 0.86624(7) 0.28048(6)
O13_7 O 0.78048(6) 0.86624(7) 0.21952(6)
C8_7 C 0.7500 0.88846(13) 0.2500
C13_7 C 0.7500 0.94639(13) 0.2500
C22_7 C 0.71775(9) 0.97340(11) 0.28225(9)
C23_7 C 0.78225(9) 0.97340(11) 0.21775(9)
H11_7 H 0.8044 0.9555 0.1956
H12_7 H 0.6956 0.9555 0.3044
C1_6 C 0.2500 0.7500 0.38846(13)
C2_6 C 0.2500 0.7500 0.44639(13)
C3_6 C 0.28225(9) 0.78225(9) 0.47340(11)
H1_6 H 0.3044 0.8044 0.4555
O4_6 O 0.28048(6) 0.78048(6) 0.63376(7)
O5_6 O 0.21952(6) 0.71952(6) 0.63376(7)
C4_6 C 0.2500 0.7500 0.61154(13)
C9_6 C 0.2500 0.7500 0.55361(13)
C14_6 C 0.28225(9) 0.78225(9) 0.52660(11)
C15_6 C 0.21775(9) 0.71775(9) 0.52660(11)
C16_6 C 0.21775(9) 0.71775(9) 0.47340(11)
H2_6 H 0.1956 0.6956 0.4555
H3_6 H 0.1956 0.6956 0.5445
H4_6 H 0.3044 0.8044 0.5445
C7_8 C 0.11154(13) 0.2500 0.7500
C12_8 C 0.05361(13) 0.2500 0.7500
C21_8 C 0.02660(11) 0.28225(9) 0.71775(9)
C24_8 C 0.02660(11) 0.21775(9) 0.78225(9)
H9_8 H 0.0445 0.3044 0.6956
H10_8 H 0.0445 0.1956 0.8044
O12_8 O 0.86624(7) 0.28048(6) 0.71952(6)
O13_8 O 0.86624(7) 0.21952(6) 0.78048(6)
C8_8 C 0.88846(13) 0.2500 0.7500
C13_8 C 0.94639(13) 0.2500 0.7500
C22_8 C 0.97340(11) 0.28225(9) 0.71775(9)
C23_8 C 0.97340(11) 0.21775(9) 0.78225(9)
H11_8 H 0.9555 0.1956 0.8044
H12_8 H 0.9555 0.3044 0.6956
C7_9 C 0.11154(13) 0.7500 0.2500
C12_9 C 0.05361(13) 0.7500 0.2500
C21_9 C 0.02660(11) 0.71775(9) 0.28225(9)
C24_9 C 0.02660(11) 0.78225(9) 0.21775(9)
H9_9 H 0.0445 0.6956 0.3044
H10_9 H 0.0445 0.8044 0.1956
O12_9 O 0.86624(7) 0.71952(6) 0.28048(6)
O13_9 O 0.86624(7) 0.78048(6) 0.21952(6)
C8_9 C 0.88846(13) 0.7500 0.2500
C13_9 C 0.94639(13) 0.7500 0.2500
C22_9 C 0.97340(11) 0.71775(9) 0.28225(9)
C23_9 C 0.97340(11) 0.78225(9) 0.21775(9)
H11_9 H 0.9555 0.8044 0.1956
H12_9 H 0.9555 0.6956 0.3044
O1_5 O 0.2500 0.7500 0.7500
Zn7_3 Zn 0.706474(9) 0.793526(9) 0.706474(9)
Zn8_4 Zn 0.706474(9) 0.706474(9) 0.793526(9)
O6_4 O 0.36624(7) 0.78048(6) 0.71952(6)
O7_4 O 0.36624(7) 0.71952(6) 0.78048(6)
O8_4 O 0.63376(7) 0.78048(6) 0.71952(6)
O9_4 O 0.63376(7) 0.71952(6) 0.78048(6)
O17_4 O 0.13376(7) 0.78048(6) 0.78048(6)
O19_4 O 0.13376(7) 0.71952(6) 0.71952(6)
C5_4 C 0.38846(13) 0.7500 0.7500
C6_4 C 0.61154(13) 0.7500 0.7500
C10_4 C 0.44639(13) 0.7500 0.7500
C11_4 C 0.55361(13) 0.7500 0.7500
C17_4 C 0.47340(11) 0.78225(9) 0.71775(9)
C18_4 C 0.52660(11) 0.78225(9) 0.71775(9)
C19_4 C 0.52660(11) 0.71775(9) 0.78225(9)
C20_4 C 0.47340(11) 0.71775(9) 0.78225(9)
H5_4 H 0.4555 0.8044 0.6956
H6_4 H 0.4555 0.6956 0.8044
H7_4 H 0.5445 0.6956 0.8044
H8_4 H 0.5445 0.8044 0.6956
C7_10 C 0.11154(13) 0.7500 0.7500
C12_10 C 0.05361(13) 0.7500 0.7500
C21_10 C 0.02660(11) 0.78225(9) 0.78225(9)
C24_10 C 0.02660(11) 0.71775(9) 0.71775(9)
H9_10 H 0.0445 0.8044 0.8044
H10_10 H 0.0445 0.6956 0.6956
Zn9_5 Zn 0.793526(9) 0.793526(9) 0.793526(9)
Zn10_7 Zn 0.793526(9) 0.706474(9) 0.706474(9)
O12_10 O 0.86624(7) 0.78048(6) 0.78048(6)
O13_10 O 0.86624(7) 0.71952(6) 0.71952(6)
C8_10 C 0.88846(13) 0.7500 0.7500
C13_10 C 0.94639(13) 0.7500 0.7500
C22_10 C 0.97340(11) 0.78225(9) 0.78225(9)
C23_10 C 0.97340(11) 0.71775(9) 0.71775(9)
H11_10 H 0.9555 0.6956 0.6956
H12_10 H 0.9555 0.8044 0.8044
O8_5 O 0.71952(6) 0.13376(7) 0.71952(6)
O9_5 O 0.78048(6) 0.13376(7) 0.78048(6)
C6_5 C 0.7500 0.11154(13) 0.7500
C11_5 C 0.7500 0.05361(13) 0.7500
C18_5 C 0.71775(9) 0.02660(11) 0.71775(9)
C19_5 C 0.78225(9) 0.02660(11) 0.78225(9)
H7_5 H 0.8044 0.0445 0.8044
H8_5 H 0.6956 0.0445 0.6956
O1_6 O 0.7500 0.7500 0.7500
O6_5 O 0.71952(6) 0.86624(7) 0.71952(6)
O7_5 O 0.78048(6) 0.86624(7) 0.78048(6)
O10_4 O 0.71952(6) 0.78048(6) 0.63376(7)
O11_4 O 0.78048(6) 0.71952(6) 0.63376(7)
O12_11 O 0.71952(6) 0.78048(6) 0.36624(7)
O13_11 O 0.78048(6) 0.71952(6) 0.36624(7)
O14_4 O 0.78048(6) 0.78048(6) 0.86624(7)
O16_4 O 0.71952(6) 0.71952(6) 0.86624(7)
O17_5 O 0.71952(6) 0.63376(7) 0.78048(6)
O19_5 O 0.78048(6) 0.63376(7) 0.71952(6)
C5_5 C 0.7500 0.88846(13) 0.7500
C7_11 C 0.7500 0.7500 0.61154(13)
C8_11 C 0.7500 0.7500 0.38846(13)
C10_5 C 0.7500 0.94639(13) 0.7500
C12_11 C 0.7500 0.7500 0.55361(13)
C13_11 C 0.7500 0.7500 0.44639(13)
C17_5 C 0.71775(9) 0.97340(11) 0.71775(9)
C20_5 C 0.78225(9) 0.97340(11) 0.78225(9)
C21_11 C 0.71775(9) 0.78225(9) 0.52660(11)
C22_11 C 0.71775(9) 0.78225(9) 0.47340(11)
C23_11 C 0.78225(9) 0.71775(9) 0.47340(11)
C24_11 C 0.78225(9) 0.71775(9) 0.52660(11)
H5_5 H 0.6956 0.9555 0.6956
H6_5 H 0.8044 0.9555 0.8044
H9_11 H 0.6956 0.8044 0.5445
H10_11 H 0.8044 0.6956 0.5445
H11_11 H 0.8044 0.6956 0.4555
H12_11 H 0.6956 0.8044 0.4555
O4_7 O 0.71952(6) 0.71952(6) 0.13376(7)
O5_7 O 0.78048(6) 0.78048(6) 0.13376(7)
C4_7 C 0.7500 0.7500 0.11154(13)
C9_7 C 0.7500 0.7500 0.05361(13)
C14_7 C 0.71775(9) 0.71775(9) 0.02660(11)
C15_7 C 0.78225(9) 0.78225(9) 0.02660(11)
H3_7 H 0.8044 0.8044 0.0445
H4_7 H 0.6956 0.6956 0.0445
C1_7 C 0.7500 0.7500 0.88846(13)
C2_7 C 0.7500 0.7500 0.94639(13)
C3_7 C 0.71775(9) 0.71775(9) 0.97340(11)
H1_7 H 0.6956 0.6956 0.9555
O12_12 O 0.71952(6) 0.36624(7) 0.78048(6)
O13_12 O 0.78048(6) 0.36624(7) 0.71952(6)
C7_12 C 0.7500 0.61154(13) 0.7500
C8_12 C 0.7500 0.38846(13) 0.7500
C12_12 C 0.7500 0.55361(13) 0.7500
C13_12 C 0.7500 0.44639(13) 0.7500
C16_7 C 0.78225(9) 0.78225(9) 0.97340(11)
C21_12 C 0.71775(9) 0.52660(11) 0.78225(9)
C22_12 C 0.71775(9) 0.47340(11) 0.78225(9)
C23_12 C 0.78225(9) 0.47340(11) 0.71775(9)
C24_12 C 0.78225(9) 0.52660(11) 0.71775(9)
H2_7 H 0.8044 0.8044 0.9555
H9_12 H 0.6956 0.5445 0.8044
H10_12 H 0.8044 0.5445 0.6956
H11_12 H 0.8044 0.4555 0.6956
H12_12 H 0.6956 0.4555 0.8044
O1_7 O 0.7500 0.2500 0.7500
O1_8 O 0.7500 0.7500 0.2500
loop_
_geom_bond_atom_site_label_1
_geom_bond_atom_site_label_2
_geom_bond_site_symmetry_1
_geom_bond_site_symmetry_2
Zn1 O1 1_555 1_555
O1 Zn2 1_555 1_555
O2 Zn1 1_555 1_555
C1 O2 1_555 1_555
C2 C1 1_555 1_555
C3 C2 1_555 1_555
H1 C3 1_555 1_555
Zn2 O7 1_555 1_555
Zn3 O1 1_555 1_555
Zn4 O1 1_555 1_555
Zn5 O4 1_555 1_555
Zn6 O5 1_555 1_555
Zn7 O8 1_555 1_555
Zn8 O9 1_555 1_555
O3 C1 1_555 1_555
O4 C4 1_555 1_555
O5 C4 1_555 1_555
O6 Zn1 1_555 1_555
O7 C5 1_555 1_555
O8 C6 1_555 1_555
O9 C6 1_555 1_555
O10 Zn1 1_555 1_555
O11 Zn4 1_555 1_555
O14 Zn2 1_555 1_555
O15 Zn2 1_555 1_555
O16 Zn3 1_555 1_555
O17 Zn3 1_555 1_555
O18 Zn4 1_555 1_555
O19 Zn4 1_555 1_555
C4 C9 1_555 1_555
C5 O6 1_555 1_555
C6 C11 1_555 1_555
C7 O10 1_555 1_555
C9 C14 1_555 1_555
C10 C5 1_555 1_555
C11 C18 1_555 1_555
C12 C7 1_555 1_555
C14 C3 1_555 1_555
C15 C9 1_555 1_555
C16 C2 1_555 1_555
C17 C10 1_555 1_555
C18 C17 1_555 1_555
C19 C11 1_555 1_555
C20 C10 1_555 1_555
C21 C12 1_555 1_555
C24 C12 1_555 1_555
H2 C16 1_555 1_555
H3 C15 1_555 1_555
H4 C14 1_555 1_555
H5 C17 1_555 1_555
H6 C20 1_555 1_555
H7 C19 1_555 1_555
H8 C18 1_555 1_555
H9 C21 1_555 1_555
H10 C24 1_555 1_555
Zn3 O3 1_555 1_555
O11 C7 1_555 1_555
C15 C16 1_555 1_555
C19 C20 1_555 1_555
Zn9 O12 1_555 1_555
Zn10 O13 1_555 1_555
O12 C8 1_555 1_555
O13 C8 1_555 1_555
C8 C13 1_555 1_555
C13 C22 1_555 1_555
C23 C13 1_555 1_555
H11 C23 1_555 1_555
H12 C22 1_555 1_555
C1_2 O16 1_555 1_555
C2_2 C1_2 1_555 1_555
C3_2 C2_2 1_555 1_555
H1_2 C3_2 1_555 1_555
Zn5_2 O4_2 1_555 1_555
Zn6_2 O5_2 1_555 1_555
O14 C1_2 1_555 1_555
O4_2 C4_2 1_555 1_555
O5_2 C4_2 1_555 1_555
C4_2 C9_2 1_555 1_555
C7_2 O17 1_555 1_555
C9_2 C14_2 1_555 1_555
C12_2 C7_2 1_555 1_555
C14_2 C3_2 1_555 1_555
C15_2 C9_2 1_555 1_555
C16_2 C2_2 1_555 1_555
C21_2 C12_2 1_555 1_555
C24_2 C12_2 1_555 1_555
H2_2 C16_2 1_555 1_555
H3_2 C15_2 1_555 1_555
H4_2 C14_2 1_555 1_555
H9_2 C21_2 1_555 1_555
H10_2 C24_2 1_555 1_555
O19 C7_2 1_555 1_555
C15_2 C16_2 1_555 1_555
Zn9_2 O12_2 1_555 1_555
Zn10_2 O13_2 1_555 1_555
O12_2 C8_2 1_555 1_555
O13_2 C8_2 1_555 1_555
C8_2 C13_2 1_555 1_555
C13_2 C22_2 1_555 1_555
C23_2 C13_2 1_555 1_555
H11_2 C23_2 1_555 1_555
H12_2 C22_2 1_555 1_555
C7_3 O15 1_555 1_555
C12_3 C7_3 1_555 1_555
C21_3 C12_3 1_555 1_555
C24_3 C12_3 1_555 1_555
H9_3 C21_3 1_555 1_555
H10_3 C24_3 1_555 1_555
O18 C7_3 1_555 1_555
Zn9_3 O12_3 1_555 1_555
Zn10_3 O13_3 1_555 1_555
O12_3 C8_3 1_555 1_555
O13_3 C8_3 1_555 1_555
C8_3 C13_3 1_555 1_555
C13_3 C22_3 1_555 1_555
C23_3 C13_3 1_555 1_555
H11_3 C23_3 1_555 1_555
H12_3 C22_3 1_555 1_555
Zn9 O1_2 1_555 1_555
O1_2 Zn5_2 1_555 1_555
O2_2 Zn9 1_555 1_555
C1_3 O2_2 1_555 1_555
C2_3 C1_3 1_555 1_555
C3_3 C2_3 1_555 1_555
H1_3 C3_3 1_555 1_555
Zn5_2 O7_2 1_555 1_555
Zn6_2 O1_2 1_555 1_555
Zn10 O1_2 1_555 1_555
Zn5_3 O4_3 1_555 1_555
Zn6_3 O5_3 1_555 1_555
Zn7_2 O8_2 1_555 1_555
Zn8_2 O9_2 1_555 1_555
O3_2 C1_3 1_555 1_555
O4_3 C4_3 1_555 1_555
O5_3 C4_3 1_555 1_555
O6_2 Zn9 1_555 1_555
O7_2 C5_2 1_555 1_555
O8_2 C6_2 1_555 1_555
O9_2 C6_2 1_555 1_555
O15_2 Zn5_2 1_555 1_555
O17_2 Zn6_2 1_555 1_555
O18_2 Zn10 1_555 1_555
O19_2 Zn10 1_555 1_555
C4_3 C9_3 1_555 1_555
C5_2 O6_2 1_555 1_555
C6_2 C11_2 1_555 1_555
C9_3 C14_3 1_555 1_555
C10_2 C5_2 1_555 1_555
C11_2 C18_2 1_555 1_555
C14_3 C3_3 1_555 1_555
C15_3 C9_3 1_555 1_555
C16_3 C2_3 1_555 1_555
C17_2 C10_2 1_555 1_555
C18_2 C17_2 1_555 1_555
C19_2 C11_2 1_555 1_555
C20_2 C10_2 1_555 1_555
H2_3 C16_3 1_555 1_555
H3_3 C15_3 1_555 1_555
H4_3 C14_3 1_555 1_555
H5_2 C17_2 1_555 1_555
H6_2 C20_2 1_555 1_555
H7_2 C19_2 1_555 1_555
H8_2 C18_2 1_555 1_555
Zn6_2 O3_2 1_555 1_555
C15_3 C16_3 1_555 1_555
C19_2 C20_2 1_555 1_555
Zn5 O1_3 1_555 1_555
O1_3 Zn6 1_555 1_555
O2_3 Zn5 1_555 1_555
C1_4 O2_3 1_555 1_555
C2_4 C1_4 1_555 1_555
C3_4 C2_4 1_555 1_555
H1_4 C3_4 1_555 1_555
Zn9_3 O1_3 1_555 1_555
Zn10_3 O1_3 1_555 1_555
Zn5_4 O4_4 1_555 1_555
Zn6_4 O5_4 1_555 1_555
O3_3 C1_4 1_555 1_555
O4_4 C4_4 1_555 1_555
O5_4 C4_4 1_555 1_555
O10_2 Zn5 1_555 1_555
O11_2 Zn10_3 1_555 1_555
O14_2 Zn6 1_555 1_555
O15_3 Zn6 1_555 1_555
O16_2 Zn9_3 1_555 1_555
O18_3 Zn10_3 1_555 1_555
C4_4 C9_4 1_555 1_555
C7_4 O10_2 1_555 1_555
C9_4 C14_4 1_555 1_555
C12_4 C7_4 1_555 1_555
C14_4 C3_4 1_555 1_555
C15_4 C9_4 1_555 1_555
C16_4 C2_4 1_555 1_555
C21_4 C12_4 1_555 1_555
C24_4 C12_4 1_555 1_555
H2_4 C16_4 1_555 1_555
H3_4 C15_4 1_555 1_555
H4_4 C14_4 1_555 1_555
H9_4 C21_4 1_555 1_555
H10_4 C24_4 1_555 1_555
Zn9_3 O3_3 1_555 1_555
O11_2 C7_4 1_555 1_555
C15_4 C16_4 1_555 1_555
Zn7_2 O12_4 1_555 1_555
Zn10_4 O13_4 1_555 1_555
O12_4 C8_4 1_555 1_555
O13_4 C8_4 1_555 1_555
C8_4 C13_4 1_555 1_555
C13_4 C22_4 1_555 1_555
C23_4 C13_4 1_555 1_555
H11_4 C23_4 1_555 1_555
H12_4 C22_4 1_555 1_555
Zn7 O1_4 1_555 1_555
O1_4 Zn9_2 1_555 1_555
Zn9_2 O7_3 1_555 1_555
Zn8 O1_4 1_555 1_555
Zn10_2 O1_4 1_555 1_555
Zn5_4 O8_3 1_555 1_555
Zn8_3 O9_3 1_555 1_555
O6_3 Zn7 1_555 1_555
O7_3 C5_3 1_555 1_555
O8_3 C6_3 1_555 1_555
O9_3 C6_3 1_555 1_555
O10_3 Zn7 1_555 1_555
O11_3 Zn10_2 1_555 1_555
O14_3 Zn9_2 1_555 1_555
O16_3 Zn8 1_555 1_555
O17_3 Zn8 1_555 1_555
O19_3 Zn10_2 1_555 1_555
C5_3 O6_3 1_555 1_555
C6_3 C11_3 1_555 1_555
C7_5 O10_3 1_555 1_555
C10_3 C5_3 1_555 1_555
C11_3 C18_3 1_555 1_555
C12_5 C7_5 1_555 1_555
C17_3 C10_3 1_555 1_555
C18_3 C17_3 1_555 1_555
C19_3 C11_3 1_555 1_555
C20_3 C10_3 1_555 1_555
C21_5 C12_5 1_555 1_555
C24_5 C12_5 1_555 1_555
H5_3 C17_3 1_555 1_555
H6_3 C20_3 1_555 1_555
H7_3 C19_3 1_555 1_555
H8_3 C18_3 1_555 1_555
H9_5 C21_5 1_555 1_555
H10_5 C24_5 1_555 1_555
O11_3 C7_5 1_555 1_555
C19_3 C20_3 1_555 1_555
Zn5_3 O12_5 1_555 1_555
Zn10_5 O13_5 1_555 1_555
O12_5 C8_5 1_555 1_555
O13_5 C8_5 1_555 1_555
C8_5 C13_5 1_555 1_555
C13_5 C22_5 1_555 1_555
C23_5 C13_5 1_555 1_555
H11_5 C23_5 1_555 1_555
H12_5 C22_5 1_555 1_555
C7_6 O17_2 1_555 1_555
C12_6 C7_6 1_555 1_555
C21_6 C12_6 1_555 1_555
C24_6 C12_6 1_555 1_555
H9_6 C21_6 1_555 1_555
H10_6 C24_6 1_555 1_555
O19_2 C7_6 1_555 1_555
Zn9_4 O12_6 1_555 1_555
Zn10_4 O13_6 1_555 1_555
O12_6 C8_6 1_555 1_555
O13_6 C8_6 1_555 1_555
C8_6 C13_6 1_555 1_555
C13_6 C22_6 1_555 1_555
C23_6 C13_6 1_555 1_555
H11_6 C23_6 1_555 1_555
H12_6 C22_6 1_555 1_555
C1_5 O16_3 1_555 1_555
C2_5 C1_5 1_555 1_555
C3_5 C2_5 1_555 1_555
H1_5 C3_5 1_555 1_555
Zn6_3 O4_5 1_555 1_555
Zn6_5 O5_5 1_555 1_555
O14_3 C1_5 1_555 1_555
O4_5 C4_5 1_555 1_555
O5_5 C4_5 1_555 1_555
C4_5 C9_5 1_555 1_555
C7_7 O17_3 1_555 1_555
C9_5 C14_5 1_555 1_555
C12_7 C7_7 1_555 1_555
C14_5 C3_5 1_555 1_555
C15_5 C9_5 1_555 1_555
C16_5 C2_5 1_555 1_555
C21_7 C12_7 1_555 1_555
C24_7 C12_7 1_555 1_555
H2_5 C16_5 1_555 1_555
H3_5 C15_5 1_555 1_555
H4_5 C14_5 1_555 1_555
H9_7 C21_7 1_555 1_555
H10_7 C24_7 1_555 1_555
O19_3 C7_7 1_555 1_555
C15_5 C16_5 1_555 1_555
Zn6_4 O12_7 1_555 1_555
Zn10_6 O13_7 1_555 1_555
O12_7 C8_7 1_555 1_555
O13_7 C8_7 1_555 1_555
C8_7 C13_7 1_555 1_555
C13_7 C22_7 1_555 1_555
C23_7 C13_7 1_555 1_555
H11_7 C23_7 1_555 1_555
H12_7 C22_7 1_555 1_555
C1_6 O16_2 1_555 1_555
C2_6 C1_6 1_555 1_555
C3_6 C2_6 1_555 1_555
H1_6 C3_6 1_555 1_555
Zn9_4 O4_6 1_555 1_555
Zn8_2 O5_6 1_555 1_555
O14_2 C1_6 1_555 1_555
O4_6 C4_6 1_555 1_555
O5_6 C4_6 1_555 1_555
C4_6 C9_6 1_555 1_555
C9_6 C14_6 1_555 1_555
C14_6 C3_6 1_555 1_555
C15_6 C9_6 1_555 1_555
C16_6 C2_6 1_555 1_555
H2_6 C16_6 1_555 1_555
H3_6 C15_6 1_555 1_555
H4_6 C14_6 1_555 1_555
C15_6 C16_6 1_555 1_555
C7_8 O15_2 1_555 1_555
C12_8 C7_8 1_555 1_555
C21_8 C12_8 1_555 1_555
C24_8 C12_8 1_555 1_555
H9_8 C21_8 1_555 1_555
H10_8 C24_8 1_555 1_555
O18_2 C7_8 1_555 1_555
Zn6_5 O12_8 1_555 1_555
Zn10_5 O13_8 1_555 1_555
O12_8 C8_8 1_555 1_555
O13_8 C8_8 1_555 1_555
C8_8 C13_8 1_555 1_555
C13_8 C22_8 1_555 1_555
C23_8 C13_8 1_555 1_555
H11_8 C23_8 1_555 1_555
H12_8 C22_8 1_555 1_555
C7_9 O15_3 1_555 1_555
C12_9 C7_9 1_555 1_555
C21_9 C12_9 1_555 1_555
C24_9 C12_9 1_555 1_555
H9_9 C21_9 1_555 1_555
H10_9 C24_9 1_555 1_555
O18_3 C7_9 1_555 1_555
Zn8_3 O12_9 1_555 1_555
Zn10_6 O13_9 1_555 1_555
O12_9 C8_9 1_555 1_555
O13_9 C8_9 1_555 1_555
C8_9 C13_9 1_555 1_555
C13_9 C22_9 1_555 1_555
C23_9 C13_9 1_555 1_555
H11_9 C23_9 1_555 1_555
H12_9 C22_9 1_555 1_555
Zn9_4 O1_5 1_555 1_555
O1_5 Zn7_2 1_555 1_555
Zn7_2 O7_4 1_555 1_555
Zn10_4 O1_5 1_555 1_555
Zn8_2 O1_5 1_555 1_555
Zn7_3 O8_4 1_555 1_555
Zn8_4 O9_4 1_555 1_555
O6_4 Zn9_4 1_555 1_555
O7_4 C5_4 1_555 1_555
O8_4 C6_4 1_555 1_555
O9_4 C6_4 1_555 1_555
O17_4 Zn10_4 1_555 1_555
O19_4 Zn8_2 1_555 1_555
C5_4 O6_4 1_555 1_555
C6_4 C11_4 1_555 1_555
C10_4 C5_4 1_555 1_555
C11_4 C18_4 1_555 1_555
C17_4 C10_4 1_555 1_555
C18_4 C17_4 1_555 1_555
C19_4 C11_4 1_555 1_555
C20_4 C10_4 1_555 1_555
H5_4 C17_4 1_555 1_555
H6_4 C20_4 1_555 1_555
H7_4 C19_4 1_555 1_555
H8_4 C18_4 1_555 1_555
C19_4 C20_4 1_555 1_555
C7_10 O17_4 1_555 1_555
C12_10 C7_10 1_555 1_555
C21_10 C12_10 1_555 1_555
C24_10 C12_10 1_555 1_555
H9_10 C21_10 1_555 1_555
H10_10 C24_10 1_555 1_555
O19_4 C7_10 1_555 1_555
Zn9_5 O12_10 1_555 1_555
Zn10_7 O13_10 1_555 1_555
O12_10 C8_10 1_555 1_555
O13_10 C8_10 1_555 1_555
C8_10 C13_10 1_555 1_555
C13_10 C22_10 1_555 1_555
C23_10 C13_10 1_555 1_555
H11_10 C23_10 1_555 1_555
H12_10 C22_10 1_555 1_555
Zn6_3 O8_5 1_555 1_555
Zn10_5 O9_5 1_555 1_555
O8_5 C6_5 1_555 1_555
O9_5 C6_5 1_555 1_555
C6_5 C11_5 1_555 1_555
C11_5 C18_5 1_555 1_555
C19_5 C11_5 1_555 1_555
H7_5 C19_5 1_555 1_555
H8_5 C18_5 1_555 1_555
Zn7_3 O1_6 1_555 1_555
O1_6 Zn9_5 1_555 1_555
Zn9_5 O7_5 1_555 1_555
Zn8_4 O1_6 1_555 1_555
Zn10_7 O1_6 1_555 1_555
Zn6_4 O12_11 1_555 1_555
Zn8_3 O13_11 1_555 1_555
O6_5 Zn7_3 1_555 1_555
O7_5 C5_5 1_555 1_555
O10_4 Zn7_3 1_555 1_555
O11_4 Zn10_7 1_555 1_555
O12_11 C8_11 1_555 1_555
O13_11 C8_11 1_555 1_555
O14_4 Zn9_5 1_555 1_555
O16_4 Zn8_4 1_555 1_555
O17_5 Zn8_4 1_555 1_555
O19_5 Zn10_7 1_555 1_555
C5_5 O6_5 1_555 1_555
C7_11 O10_4 1_555 1_555
C8_11 C13_11 1_555 1_555
C10_5 C5_5 1_555 1_555
C12_11 C7_11 1_555 1_555
C13_11 C22_11 1_555 1_555
C17_5 C10_5 1_555 1_555
C20_5 C10_5 1_555 1_555
C21_11 C12_11 1_555 1_555
C22_11 C21_11 1_555 1_555
C23_11 C13_11 1_555 1_555
C24_11 C12_11 1_555 1_555
H5_5 C17_5 1_555 1_555
H6_5 C20_5 1_555 1_555
H9_11 C21_11 1_555 1_555
H10_11 C24_11 1_555 1_555
H11_11 C23_11 1_555 1_555
H12_11 C22_11 1_555 1_555
O11_4 C7_11 1_555 1_555
C23_11 C24_11 1_555 1_555
Zn5_4 O4_7 1_555 1_555
Zn10_6 O5_7 1_555 1_555
O4_7 C4_7 1_555 1_555
O5_7 C4_7 1_555 1_555
C4_7 C9_7 1_555 1_555
C9_7 C14_7 1_555 1_555
C15_7 C9_7 1_555 1_555
H3_7 C15_7 1_555 1_555
H4_7 C14_7 1_555 1_555
C1_7 O16_4 1_555 1_555
C2_7 C1_7 1_555 1_555
C3_7 C2_7 1_555 1_555
H1_7 C3_7 1_555 1_555
Zn5_3 O12_12 1_555 1_555
Zn6_5 O13_12 1_555 1_555
O14_4 C1_7 1_555 1_555
O12_12 C8_12 1_555 1_555
O13_12 C8_12 1_555 1_555
C7_12 O17_5 1_555 1_555
C8_12 C13_12 1_555 1_555
C12_12 C7_12 1_555 1_555
C13_12 C22_12 1_555 1_555
C16_7 C2_7 1_555 1_555
C21_12 C12_12 1_555 1_555
C22_12 C21_12 1_555 1_555
C23_12 C13_12 1_555 1_555
C24_12 C12_12 1_555 1_555
H2_7 C16_7 1_555 1_555
H9_12 C21_12 1_555 1_555
H10_12 C24_12 1_555 1_555
H11_12 C23_12 1_555 1_555
H12_12 C22_12 1_555 1_555
O19_5 C7_12 1_555 1_555
C23_12 C24_12 1_555 1_555
Zn6_5 O1_7 1_555 1_555
O1_7 Zn10_5 1_555 1_555
Zn5_3 O1_7 1_555 1_555
Zn6_3 O1_7 1_555 1_555
Zn10_6 O1_8 1_555 1_555
O1_8 Zn8_3 1_555 1_555
Zn6_4 O1_8 1_555 1_555
Zn5_4 O1_8 1_555 1_555

#END
