
###############################################################################
#
# This file contains modified crystal structure data generated from the
# MOF subset of the Cambridge Structural Database (CSD) v543 
# hosted by the Cambridge Crystallographic Data Centre (CCDC).
#
# This work is licensed under the Creative Commons
# Attribution-NonCommercial-ShareAlike 4.0 International License.
# To view a copy of this license, visit
# http://creativecommons.org/licenses/by-nc-sa/4.0/
# or send a letter to
# Creative Commons, PO Box 1866, Mountain View, CA 94042, USA.
#
# CIF created using the CSD Python API on 29 September 2022
# The structure has been converted into the P1 space group
# The structure has a 3D framework
# The original CSD entry LATYOV is in the trigonal crystal system
# The framework has been calculated to contain at least 10.0% void space
# The void calculation uses a probe of radius 1.32A, grid spacing 0.4
# The framework is charged, counterions have been retained in the structure
#
###############################################################################

data_LATYOV
_chemical_formula_moiety         '(C72 H50 Cs8 N12 Ni12 O31 S10)n'
_symmetry_cell_setting           triclinic
_symmetry_space_group_name_H-M   'P 1'
_symmetry_Int_Tables_number      1
_space_group_name_Hall           'P 1'
loop_
_symmetry_equiv_pos_site_id
_symmetry_equiv_pos_as_xyz
1 x,y,z
_cell_length_a                   19.0136(3)
_cell_length_b                   19.0136(3)
_cell_length_c                   8.5131(2)
_cell_angle_alpha                90
_cell_angle_beta                 90
_cell_angle_gamma                120
_cell_volume                     2665.31
loop_
_atom_site_label
_atom_site_type_symbol
_atom_site_fract_x
_atom_site_fract_y
_atom_site_fract_z
Cs1 Cs 0.0000 0.0000 0.0000
S1 S 0.12017(6) 0.01177(6) 0.31952(13)
N2 N 0.3076(2) 0.0961(2) 0.4642(4)
O3 O 0.5133(2) 0.2558(2) 0.2396(5)
O4 O 0.5732(2) 0.1831(2) 0.2819(5)
C4 C 0.2330(3) 0.0166(3) 0.0959(6)
H6 H 0.2408 0.0662 0.0532
C7 C 0.3751(3) 0.1465(3) 0.3861(6)
H7 H 0.3773 0.1907 0.3301
C8 C 0.4423(3) 0.1359(3) 0.3845(7)
C9 C 0.4374(4) 0.0715(4) 0.4687(10)
H8 H 0.4827 0.0631 0.4705
C10 C 0.3680(3) 0.0192(4) 0.5501(8)
C11 C 0.3030(3) 0.0336(3) 0.5472(5)
C12 C 0.5150(3) 0.1962(3) 0.2953(6)
Ni3 Ni 0.10660(3) 0.20745(4) 0.47883(7)
Ni8 Ni 0.20745(4) 0.10085(3) 0.52117(7)
Ni20 Ni 0.57256(4) 0.35175(3) 0.09650(8)
Ni21 Ni 0.64825(3) 0.22081(3) 0.09650(8)
Ni27 Ni 0.22081(3) 0.57256(4) 0.90350(8)
Ni28 Ni 0.42744(4) 0.64825(3) 0.90350(8)
S9 S 0.10840(8) 0.12017(6) 0.68048(13)
S17 S 0.01808(7) 0.22960(9) 0.65200(13)
S18 S 0.22960(9) 0.21152(6) 0.34800(13)
N3 N 0.0885(2) 0.2616(3) 0.2897(4)
N12 N 0.2115(3) 0.3076(2) 0.5358(4)
O7 O 0.2090(2) 0.4882(3) 0.0847(5)
O16 O 0.4582(3) 0.3496(2) 0.0801(5)
O21 O 0.2575(3) 0.5133(2) 0.7604(5)
O29 O 0.3901(3) 0.5732(2) 0.7181(5)
O34 O 0.6099(3) 0.4268(2) 0.2819(5)
O39 O 0.6667 0.3333 0.0456(6)
H10 H 0.3333 0.6666 0.052(3)
O40 O 0.1708(3) 0.6220(4) 0.0545(8)
H15 H 0.1841 0.6681 0.0143
H20 H 0.1912 0.6281 0.1453
C13 C 0.1249(3) 0.3361(4) 0.2268(5)
H25 H 0.1741 0.3773 0.2719
C18 C 0.0930(3) 0.3550(4) 0.0974(6)
C23 C 0.0214(3) 0.2943(4) 0.0329(6)
H34 H 0.3060 0.3078 0.0550
C33 C 0.0200(3) 0.2013(4) 0.2234(5)
C38 C 0.1391(3) 0.4384(4) 0.0284(6)
C47 C 0.2286(4) 0.3751(3) 0.6139(6)
H44 H 0.1866 0.3773 0.6699
C52 C 0.3064(4) 0.4423(3) 0.6155(7)
C57 C 0.3659(6) 0.4374(4) 0.5313(10)
H49 H 0.4196 0.4827 0.5295
C62 C 0.3488(5) 0.3680(3) 0.4499(8)
H53 H 0.0255 0.3900 0.6066
H54 H 0.3900 0.3645 0.3934
C67 C 0.2694(4) 0.3030(3) 0.4528(5)
C72 C 0.3188(4) 0.5150(3) 0.7047(6)
Cs1_2 Cs 0.0000 0.0000 1.0000
H5 H 0.3078 0.0018 0.9450
Ni15 Ni 0.89915(3) 0.10660(3) 0.52117(7)
Ni29 Ni 0.35175(3) 0.77919(3) 0.90350(8)
S16 S 0.78848(6) 0.01808(7) 0.34800(13)
N7 N 0.2616(3) 0.1731(2) 0.7103(4)
O11 O 0.4882(3) 0.2792(2) 0.9153(5)
O12 O 0.1086(2) 0.4582(3) 0.9199(5)
O30 O 0.1831(2) 0.6099(3) 0.7181(5)
O35 O 0.3333 0.6666 0.9544(6)
H14 H 0.6667 0.3333 0.948(3)
O44 O 0.6220(4) 0.4512(3) 0.9455(8)
H19 H 0.6681 0.4840 0.9857
H24 H 0.6281 0.4369 0.8547
C17 C 0.3361(4) 0.2112(3) 0.7732(5)
H29 H 0.3773 0.2032 0.7281
C22 C 0.3550(4) 0.2620(3) 0.9026(6)
C27 C 0.2943(4) 0.2729(3) 0.9671(6)
C32 C 0.2164(4) 0.2330(3) 0.9041(6)
H39 H 0.1746 0.2408 0.9468
C37 C 0.2013(4) 0.1813(3) 0.7766(5)
C42 C 0.4384(4) 0.2993(3) 0.9716(6)
H52 H 0.6355 0.0255 0.3934
Cs1_3 Cs 0.0000 1.0000 0.0000
Ni1 Ni 0.10085(3) 0.89340(3) 0.47883(7)
S2 S 0.21152(6) 0.98192(7) 0.65200(13)
N1 N 0.1731(2) 0.9115(2) 0.2897(4)
O1 O 0.2792(2) 0.7910(2) 0.0847(5)
O6 O 0.4512(3) 0.8292(3) 0.0545(8)
H2 H 0.4840 0.8159 0.0143
H3 H 0.4369 0.8088 0.1453
C1 C 0.2112(3) 0.8751(3) 0.2268(5)
H4 H 0.2032 0.8259 0.2719
C2 C 0.2620(3) 0.9070(3) 0.0974(6)
C3 C 0.2729(3) 0.9786(3) 0.0329(6)
C5 C 0.1813(3) 0.9800(3) 0.2234(5)
C6 C 0.2993(3) 0.8609(3) 0.0284(6)
H9 H 0.3645 0.9745 0.6066
S8 S 0.01177(6) 0.89160(8) 0.68048(13)
N8 N 0.0961(2) 0.7885(3) 0.5358(4)
O17 O 0.2558(2) 0.7425(3) 0.7604(5)
H33 H 0.0018 0.6940 0.0550
C43 C 0.1465(3) 0.7714(4) 0.6139(6)
H40 H 0.1907 0.8134 0.6699
C48 C 0.1359(3) 0.6936(4) 0.6155(7)
C53 C 0.0715(4) 0.6341(6) 0.5313(10)
H45 H 0.0631 0.5804 0.5295
C58 C 0.0192(4) 0.6512(5) 0.4499(8)
C63 C 0.0336(3) 0.7306(4) 0.4528(5)
C68 C 0.1962(3) 0.6812(4) 0.7047(6)
Cs1_4 Cs 0.0000 1.0000 1.0000
O2 O 0.3496(2) 0.8914(2) 0.9199(5)
Ni14 Ni 0.79255(4) 0.89915(3) 0.47883(7)
N10 N 0.6924(2) 0.9039(2) 0.5358(4)
O19 O 0.4867(2) 0.7442(2) 0.7604(5)
O27 O 0.4268(2) 0.8169(2) 0.7181(5)
C31 C 0.0166(3) 0.7836(4) 0.9041(6)
H38 H 0.0662 0.8254 0.9468
C45 C 0.6249(3) 0.8535(3) 0.6139(6)
H42 H 0.6227 0.8093 0.6699
C50 C 0.5577(3) 0.8641(3) 0.6155(7)
C55 C 0.5626(4) 0.9285(4) 0.5313(10)
H47 H 0.5173 0.9369 0.5295
C60 C 0.6320(3) 0.9808(4) 0.4499(8)
C65 C 0.6970(3) 0.9664(3) 0.4528(5)
C70 C 0.4850(3) 0.8038(3) 0.7047(6)
Cs1_5 Cs 1.0000 0.0000 0.0000
Ni26 Ni 0.77919(3) 0.42744(4) 0.09650(8)
S3 S 0.98823(6) 0.10840(8) 0.31952(13)
N11 N 0.9039(2) 0.2115(3) 0.4642(4)
O14 O 0.6504(2) 0.1086(2) 0.0801(5)
O20 O 0.7442(2) 0.2575(3) 0.2396(5)
O28 O 0.8169(2) 0.3901(3) 0.2819(5)
C28 C 0.9834(3) 0.2164(4) 0.0959(6)
H35 H 0.9338 0.1746 0.0532
C46 C 0.8535(3) 0.2286(4) 0.3861(6)
H43 H 0.8093 0.1866 0.3301
C51 C 0.8641(3) 0.3064(4) 0.3845(7)
C56 C 0.9285(4) 0.3659(6) 0.4687(10)
H48 H 0.9369 0.4196 0.4705
C61 C 0.9808(4) 0.3488(5) 0.5501(8)
C66 C 0.9664(3) 0.2694(4) 0.5472(5)
C71 C 0.8038(3) 0.3188(4) 0.2953(6)
Cs1_6 Cs 1.0000 0.0000 1.0000
N5 N 0.8269(2) 0.0885(2) 0.7103(4)
O9 O 0.7208(2) 0.2090(2) 0.9153(5)
O42 O 0.5488(3) 0.1708(3) 0.9455(8)
H17 H 0.5160 0.1841 0.9857
H22 H 0.5631 0.1912 0.8547
C15 C 0.7888(3) 0.1249(3) 0.7732(5)
H27 H 0.7968 0.1741 0.7281
C20 C 0.7380(3) 0.0930(3) 0.9026(6)
C25 C 0.7271(3) 0.0214(3) 0.9671(6)
H30 H 0.9982 0.3060 0.9450
C35 C 0.8187(3) 0.0200(3) 0.7766(5)
C40 C 0.7007(3) 0.1391(3) 0.9716(6)
Cs1_7 Cs 1.0000 1.0000 0.0000
Ni10 Ni 0.89340(3) 0.79255(4) 0.52117(7)
S4 S 0.89160(8) 0.87983(6) 0.31952(13)
S10 S 0.87983(6) 0.98823(6) 0.68048(13)
S14 S 0.98192(7) 0.77040(9) 0.34800(13)
S19 S 0.77040(9) 0.78848(6) 0.65200(13)
N4 N 0.7384(3) 0.8269(2) 0.2897(4)
O8 O 0.5118(3) 0.7208(2) 0.0847(5)
O15 O 0.8914(2) 0.5418(3) 0.0801(5)
O24 O 0.7425(3) 0.4867(2) 0.2396(5)
O41 O 0.3780(4) 0.5488(3) 0.0545(8)
H16 H 0.3319 0.5160 0.0143
H21 H 0.3719 0.5631 0.1453
C14 C 0.6639(4) 0.7888(3) 0.2268(5)
H26 H 0.6227 0.7968 0.2719
C19 C 0.6450(4) 0.7380(3) 0.0974(6)
C24 C 0.7057(4) 0.7271(3) 0.0329(6)
H32 H 0.6922 0.9982 0.0550
C29 C 0.7836(4) 0.7670(3) 0.0959(6)
H36 H 0.8254 0.7592 0.0532
C34 C 0.7987(4) 0.8187(3) 0.2234(5)
C39 C 0.5616(4) 0.7007(3) 0.0284(6)
H50 H 0.9745 0.6100 0.3934
Cs1_8 Cs 1.0000 1.0000 1.0000
N6 N 0.9115(2) 0.7384(3) 0.7103(4)
N15 N 0.7885(3) 0.6924(2) 0.4642(4)
O10 O 0.7910(2) 0.5118(3) 0.9153(5)
O13 O 0.5418(3) 0.6504(2) 0.9199(5)
O43 O 0.8292(3) 0.3780(4) 0.9455(8)
H18 H 0.8159 0.3319 0.9857
H23 H 0.8088 0.3719 0.8547
C16 C 0.8751(3) 0.6639(4) 0.7732(5)
H28 H 0.8259 0.6227 0.7281
C21 C 0.9070(3) 0.6450(4) 0.9026(6)
C26 C 0.9786(3) 0.7057(4) 0.9671(6)
H31 H 0.6940 0.6922 0.9450
C30 C 0.7670(3) 0.9834(3) 0.9041(6)
H37 H 0.7592 0.9338 0.9468
C36 C 0.9800(3) 0.7987(4) 0.7766(5)
C41 C 0.8609(3) 0.5616(4) 0.9716(6)
C46_2 C 0.7714(4) 0.6249(5) 0.3861(6)
H43_2 H 0.8134 0.6227 0.3301
C51_2 C 0.6936(4) 0.5577(5) 0.3845(7)
C56_2 C 0.6341(6) 0.5626(7) 0.4687(10)
H48_2 H 0.5804 0.5173 0.4705
C61_2 C 0.6512(5) 0.6320(6) 0.5501(8)
H53_2 H 0.6100 0.6355 0.6066
C66_2 C 0.7306(4) 0.6970(5) 0.5472(5)
C71_2 C 0.6812(4) 0.4850(5) 0.2953(6)
loop_
_geom_bond_atom_site_label_1
_geom_bond_atom_site_label_2
_geom_bond_site_symmetry_1
_geom_bond_site_symmetry_2
Cs1 S1 1_555 1_555
N2 C7 1_555 1_555
O3 C12 1_555 1_555
O4 C12 1_555 1_555
H6 C4 1_555 1_555
C7 H7 1_555 1_555
C8 C7 1_555 1_555
C9 C8 1_555 1_555
H8 C9 1_555 1_555
C10 C9 1_555 1_555
C12 C8 1_555 1_555
Ni8 S1 1_555 1_555
Ni20 O3 1_555 1_555
Ni21 O4 1_555 1_555
Ni27 O21 1_555 1_555
Ni28 O29 1_555 1_555
S9 Ni3 1_555 1_555
S17 Ni3 1_555 1_555
S18 Ni3 1_555 1_555
N3 Ni3 1_555 1_555
N12 Ni3 1_555 1_555
O7 C38 1_555 1_555
O16 Ni20 1_555 1_555
O21 C72 1_555 1_555
O29 C72 1_555 1_555
O34 Ni20 1_555 1_555
O39 Ni20 1_555 1_555
H15 O40 1_555 1_555
H20 O40 1_555 1_555
C13 N3 1_555 1_555
H25 C13 1_555 1_555
C18 C13 1_555 1_555
C23 C18 1_555 1_555
C47 N12 1_555 1_555
H44 C47 1_555 1_555
C52 C47 1_555 1_555
C57 C52 1_555 1_555
H49 C57 1_555 1_555
C62 C57 1_555 1_555
H54 C62 1_555 1_555
C67 S18 1_555 1_555
C72 C52 1_555 1_555
N2 C11 1_555 1_555
N2 Ni8 1_555 1_555
C10 C11 1_555 1_555
Ni8 S9 1_555 1_555
Ni8 S18 1_555 1_555
Ni21 O39 1_555 1_555
N3 C33 1_555 1_555
N12 C67 1_555 1_555
C18 C38 1_555 1_555
C62 C67 1_555 1_555
Ni15 S16 1_555 1_555
Ni29 O35 1_555 1_555
Ni28 O35 1_555 1_555
S9 Cs1_2 1_555 1_555
N7 Ni8 1_555 1_555
O12 Ni27 1_555 1_555
O30 Ni27 1_555 1_555
O35 Ni27 1_555 1_555
H19 O44 1_555 1_555
H24 O44 1_555 1_555
C17 N7 1_555 1_555
H29 C17 1_555 1_555
C22 C17 1_555 1_555
C27 C22 1_555 1_555
C32 C27 1_555 1_555
H39 C32 1_555 1_555
C37 S9 1_555 1_555
C42 O11 1_555 1_555
N7 C37 1_555 1_555
C22 C42 1_555 1_555
C32 C37 1_555 1_555
S2 Ni1 1_555 1_555
N1 Ni1 1_555 1_555
O1 C6 1_555 1_555
H2 O6 1_555 1_555
H3 O6 1_555 1_555
C1 N1 1_555 1_555
H4 C1 1_555 1_555
C2 C1 1_555 1_555
C3 C2 1_555 1_555
C5 N1 1_555 1_555
Ni29 O17 1_555 1_555
S8 Ni1 1_555 1_555
N8 Ni1 1_555 1_555
O17 C68 1_555 1_555
O30 C68 1_555 1_555
C43 N8 1_555 1_555
H40 C43 1_555 1_555
C48 C43 1_555 1_555
C53 C48 1_555 1_555
H45 C53 1_555 1_555
C58 C53 1_555 1_555
C68 C48 1_555 1_555
C2 C6 1_555 1_555
N8 C63 1_555 1_555
C58 C63 1_555 1_555
O2 Ni29 1_555 1_555
S8 Cs1_4 1_555 1_555
N10 Ni14 1_555 1_555
O19 Ni28 1_555 1_555
O27 Ni29 1_555 1_555
H38 C31 1_555 1_555
C45 N10 1_555 1_555
H42 C45 1_555 1_555
C50 C45 1_555 1_555
C55 C50 1_555 1_555
H47 C55 1_555 1_555
C60 C55 1_555 1_555
C65 N10 1_555 1_555
C70 O19 1_555 1_555
O27 C70 1_555 1_555
C50 C70 1_555 1_555
C60 C65 1_555 1_555
Ni15 S3 1_555 1_555
Ni26 O28 1_555 1_555
S3 Cs1_5 1_555 1_555
N11 Ni15 1_555 1_555
O14 Ni21 1_555 1_555
O20 Ni21 1_555 1_555
O28 C71 1_555 1_555
H35 C28 1_555 1_555
C46 N11 1_555 1_555
H43 C46 1_555 1_555
C51 C46 1_555 1_555
C56 C51 1_555 1_555
H48 C56 1_555 1_555
C61 C56 1_555 1_555
C71 O20 1_555 1_555
Ni26 O39 1_555 1_555
N11 C66 1_555 1_555
C51 C71 1_555 1_555
C61 C66 1_555 1_555
N5 Ni15 1_555 1_555
O9 C40 1_555 1_555
H17 O42 1_555 1_555
H22 O42 1_555 1_555
C15 N5 1_555 1_555
H27 C15 1_555 1_555
C20 C15 1_555 1_555
C25 C20 1_555 1_555
N5 C35 1_555 1_555
C20 C40 1_555 1_555
Ni14 S4 1_555 1_555
Ni10 S4 1_555 1_555
S4 Cs1_7 1_555 1_555
S10 Ni14 1_555 1_555
S19 Ni14 1_555 1_555
N4 Ni14 1_555 1_555
O8 C39 1_555 1_555
O15 Ni26 1_555 1_555
O24 Ni26 1_555 1_555
H16 O41 1_555 1_555
H21 O41 1_555 1_555
C14 N4 1_555 1_555
H26 C14 1_555 1_555
C19 C14 1_555 1_555
C24 C19 1_555 1_555
C29 C24 1_555 1_555
H36 C29 1_555 1_555
C34 S4 1_555 1_555
Ni10 S14 1_555 1_555
Ni10 S19 1_555 1_555
N4 C34 1_555 1_555
C19 C39 1_555 1_555
C29 C34 1_555 1_555
S10 Cs1_8 1_555 1_555
N6 Ni10 1_555 1_555
N15 Ni10 1_555 1_555
O10 C41 1_555 1_555
O13 Ni28 1_555 1_555
H18 O43 1_555 1_555
H23 O43 1_555 1_555
C16 N6 1_555 1_555
H28 C16 1_555 1_555
C21 C16 1_555 1_555
C26 C21 1_555 1_555
H37 C30 1_555 1_555
N6 C36 1_555 1_555
C21 C41 1_555 1_555
O34 C71_2 1_555 1_555
C46_2 N15 1_555 1_555
H43_2 C46_2 1_555 1_555
C51_2 C46_2 1_555 1_555
C56_2 C51_2 1_555 1_555
H48_2 C56_2 1_555 1_555
C61_2 C56_2 1_555 1_555
H53_2 C61_2 1_555 1_555
C66_2 S19 1_555 1_555
C71_2 O24 1_555 1_555
N15 C66_2 1_555 1_555
C51_2 C71_2 1_555 1_555
C61_2 C66_2 1_555 1_555

#END
