
###############################################################################
#
# This file contains modified crystal structure data generated from the
# MOF subset of the Cambridge Structural Database (CSD) v543 
# hosted by the Cambridge Crystallographic Data Centre (CCDC).
#
# This work is licensed under the Creative Commons
# Attribution-NonCommercial-ShareAlike 4.0 International License.
# To view a copy of this license, visit
# http://creativecommons.org/licenses/by-nc-sa/4.0/
# or send a letter to
# Creative Commons, PO Box 1866, Mountain View, CA 94042, USA.
#
# CIF created using the CSD Python API on 29 September 2022
# The structure has been converted into the P1 space group
# The structure has a 3D framework
# The original CSD entry LAVTUZ is in the tetragonal crystal system
# The original CSD entry LAVTUZ is in a Sohncke space group
# The framework has been calculated to contain at least 10.0% void space
# The void calculation uses a probe of radius 1.32A, grid spacing 0.4
# H atom positions have been added when not included in the experimental data
# Generated hydrogen atom positions removed from atoms on special positions
#
###############################################################################

data_LAVTUZ
_chemical_formula_moiety         '(C39 H29 O28 Yb4)n'
_symmetry_cell_setting           triclinic
_symmetry_space_group_name_H-M   'P 1'
_symmetry_Int_Tables_number      1
_space_group_name_Hall           'P 1'
loop_
_symmetry_equiv_pos_site_id
_symmetry_equiv_pos_as_xyz
1 x,y,z
_cell_length_a                   10.2400(14)
_cell_length_b                   10.2400(14)
_cell_length_c                   14.420(3)
_cell_angle_alpha                90
_cell_angle_beta                 90
_cell_angle_gamma                90
_cell_volume                     1512.05
loop_
_atom_site_label
_atom_site_type_symbol
_atom_site_fract_x
_atom_site_fract_y
_atom_site_fract_z
Yb1 Yb 0.647848(17) 0.352152(17) 0.1250
O1 O 0.5739(5) 0.1660(4) 0.0586(3)
O2 O 0.8114(4) 0.1886(4) 0.1250
C4 C 0.5000 0.1116(7) 0.0000
O6 O 0.8340(4) 0.4261(5) 0.1914(3)
O8 O 0.6124(5) 0.5662(4) 0.1498(3)
O9 O 0.4338(4) 0.3876(5) 0.1002(3)
O12 O 0.5951(4) 0.2598(4) 0.2624(3)
C4_2 C 0.5000 0.1116(7) 1.0000
Yb6 Yb 0.352152(17) 0.352152(17) 0.8750
O5 O 0.4261(5) 0.1660(4) 0.9414(3)
O11 O 0.7402(4) 0.4049(4) 0.9876(3)
O4 O 0.5951(4) 0.7402(4) 0.2376(3)
C1 C 0.5890(5) 0.6822(5) 0.1610(4)
C2 C 0.5446(6) 0.8958(5) 0.0775(4)
H1 H 0.5749 0.9410 0.1291
C3 C 0.5435(5) 0.7602(5) 0.0774(3)
C5 C 0.5000 0.9643(7) 0.0000
C6 C 0.5000 0.6919(7) 0.0000
H2 H 0.5000 0.6011 0.0000
Yb4 Yb 0.647848(17) 0.647848(17) 0.3750
C5_2 C 0.5000 0.9643(7) 1.0000
C6_2 C 0.5000 0.6919(7) 1.0000
H2_2 H 0.5000 0.6011 1.0000
Yb3 Yb 0.352152(17) 0.647848(17) 0.6250
O7 O 0.3876(5) 0.5662(4) 0.8502(3)
O10 O 0.4049(4) 0.7402(4) 0.7624(3)
C7 C 0.4110(5) 0.6822(5) 0.8390(4)
C8 C 0.4554(6) 0.8958(5) 0.9225(4)
H3 H 0.4251 0.9410 0.8709
C9 C 0.4565(5) 0.7602(5) 0.9226(3)
O3 O 0.3876(5) 0.4338(4) 0.6498(3)
O4_2 O 0.4049(4) 0.2598(4) 0.7376(3)
C1_2 C 0.4110(5) 0.3178(5) 0.6610(4)
C2_2 C 0.4554(6) 0.1042(5) 0.5775(4)
H1_2 H 0.4251 0.0590 0.6291
C3_2 C 0.4565(5) 0.2398(5) 0.5774(3)
C5_3 C 0.5000 0.0357(7) 0.5000
C6_3 C 0.5000 0.3081(7) 0.5000
H2_3 H 0.5000 0.3989 0.5000
O7_2 O 0.6124(5) 0.4338(4) 0.3502(3)
C7_2 C 0.5890(5) 0.3178(5) 0.3390(4)
C8_2 C 0.5446(6) 0.1042(5) 0.4225(4)
H3_2 H 0.5749 0.0590 0.3709
C9_2 C 0.5435(5) 0.2398(5) 0.4226(3)
O1_2 O 0.4261(5) 0.8340(4) 0.5586(3)
O2_2 O 0.1886(4) 0.8114(4) 0.6250
C4_3 C 0.5000 0.8884(7) 0.5000
O5_2 O 0.5739(5) 0.8340(4) 0.4414(3)
O6_2 O 0.1660(4) 0.5739(5) 0.6914(3)
O9_2 O 0.5662(4) 0.6124(5) 0.6002(3)
O11_2 O 0.2598(4) 0.5951(4) 0.4876(3)
O3_2 O 0.4338(4) 0.6124(5) 0.3998(3)
C1_3 C 0.3178(5) 0.5890(5) 0.4110(4)
C2_3 C 0.1042(5) 0.5446(6) 0.3275(4)
H1_3 H 0.0590 0.5749 0.3791
C3_3 C 0.2398(5) 0.5435(5) 0.3274(3)
C5_4 C 0.0357(7) 0.5000 0.2500
C6_4 C 0.3081(7) 0.5000 0.2500
H2_4 H 0.3989 0.5000 0.2500
O10_2 O 0.2598(4) 0.4049(4) 0.0124(3)
C7_3 C 0.3178(5) 0.4110(5) 0.0890(4)
C8_3 C 0.1042(5) 0.4554(6) 0.1725(4)
H3_3 H 0.0590 0.4251 0.1209
C9_3 C 0.2398(5) 0.4565(5) 0.1726(3)
O1_3 O 0.8340(4) 0.5739(5) 0.3086(3)
O2_3 O 0.8114(4) 0.8114(4) 0.3750
C4_4 C 0.8884(7) 0.5000 0.2500
O12_2 O 0.7402(4) 0.5951(4) 0.5124(3)
O1_4 O 0.1660(4) 0.4261(5) 0.8086(3)
O2_4 O 0.1886(4) 0.1886(4) 0.8750
C4_5 C 0.1116(7) 0.5000 0.7500
O8_2 O 0.5662(4) 0.3876(5) 0.8998(3)
C1_4 C 0.6822(5) 0.4110(5) 0.9110(4)
C2_4 C 0.8958(5) 0.4554(6) 0.8275(4)
H1_4 H 0.9410 0.4251 0.8791
C3_4 C 0.7602(5) 0.4565(5) 0.8274(3)
C5_5 C 0.9643(7) 0.5000 0.7500
C6_5 C 0.6919(7) 0.5000 0.7500
H2_5 H 0.6011 0.5000 0.7500
C7_4 C 0.6822(5) 0.5890(5) 0.5890(4)
C8_4 C 0.8958(5) 0.5446(6) 0.6725(4)
H3_4 H 0.9410 0.5749 0.6209
C9_4 C 0.7602(5) 0.5435(5) 0.6726(3)
loop_
_geom_bond_atom_site_label_1
_geom_bond_atom_site_label_2
_geom_bond_site_symmetry_1
_geom_bond_site_symmetry_2
Yb1 O1 1_555 1_555
O1 C4 1_555 1_555
O2 Yb1 1_555 1_555
O6 Yb1 1_555 1_555
O8 Yb1 1_555 1_555
O9 Yb1 1_555 1_555
O12 Yb1 1_555 1_555
Yb6 O5 1_555 1_555
O5 C4_2 1_555 1_555
O8 C1 1_555 1_555
O4 C1 1_555 1_555
C1 C3 1_555 1_555
C2 H1 1_555 1_555
C3 C2 1_555 1_555
C5 C2 1_555 1_555
C6 C3 1_555 1_555
H2 C6 1_555 1_555
Yb4 O4 1_555 1_555
H2_2 C6_2 1_555 1_555
Yb3 O10 1_555 1_555
Yb6 O7 1_555 1_555
O7 C7 1_555 1_555
O10 C7 1_555 1_555
C7 C9 1_555 1_555
C8 C5_2 1_555 1_555
H3 C8 1_555 1_555
C9 C6_2 1_555 1_555
C8 C9 1_555 1_555
O3 C1_2 1_555 1_555
O4_2 C1_2 1_555 1_555
C1_2 C3_2 1_555 1_555
C2_2 H1_2 1_555 1_555
C3_2 C2_2 1_555 1_555
C5_3 C2_2 1_555 1_555
C6_3 C3_2 1_555 1_555
H2_3 C6_3 1_555 1_555
Yb3 O3 1_555 1_555
Yb6 O4_2 1_555 1_555
Yb4 O7_2 1_555 1_555
O7_2 C7_2 1_555 1_555
O12 C7_2 1_555 1_555
C7_2 C9_2 1_555 1_555
C8_2 C5_3 1_555 1_555
H3_2 C8_2 1_555 1_555
C9_2 C6_3 1_555 1_555
C8_2 C9_2 1_555 1_555
Yb3 O1_2 1_555 1_555
O1_2 C4_3 1_555 1_555
O2_2 Yb3 1_555 1_555
Yb4 O5_2 1_555 1_555
O5_2 C4_3 1_555 1_555
O6_2 Yb3 1_555 1_555
O9_2 Yb3 1_555 1_555
O11_2 Yb3 1_555 1_555
O3_2 C1_3 1_555 1_555
O11_2 C1_3 1_555 1_555
C1_3 C3_3 1_555 1_555
C2_3 H1_3 1_555 1_555
C3_3 C2_3 1_555 1_555
C5_4 C2_3 1_555 1_555
C6_4 C3_3 1_555 1_555
H2_4 C6_4 1_555 1_555
Yb4 O3_2 1_555 1_555
O9 C7_3 1_555 1_555
O10_2 C7_3 1_555 1_555
C7_3 C9_3 1_555 1_555
C8_3 C5_4 1_555 1_555
H3_3 C8_3 1_555 1_555
C9_3 C6_4 1_555 1_555
C8_3 C9_3 1_555 1_555
Yb4 O1_3 1_555 1_555
O1_3 C4_4 1_555 1_555
O2_3 Yb4 1_555 1_555
O6 C4_4 1_555 1_555
O12_2 Yb4 1_555 1_555
Yb6 O1_4 1_555 1_555
O1_4 C4_5 1_555 1_555
O2_4 Yb6 1_555 1_555
O6_2 C4_5 1_555 1_555
O8_2 Yb6 1_555 1_555
O8_2 C1_4 1_555 1_555
O11 C1_4 1_555 1_555
C1_4 C3_4 1_555 1_555
C2_4 H1_4 1_555 1_555
C3_4 C2_4 1_555 1_555
C5_5 C2_4 1_555 1_555
C6_5 C3_4 1_555 1_555
H2_5 C6_5 1_555 1_555
O9_2 C7_4 1_555 1_555
O12_2 C7_4 1_555 1_555
C7_4 C9_4 1_555 1_555
C8_4 C5_5 1_555 1_555
H3_4 C8_4 1_555 1_555
C9_4 C6_5 1_555 1_555
C8_4 C9_4 1_555 1_555

#END
