
###############################################################################
#
# This file contains modified crystal structure data generated from the
# MOF subset of the Cambridge Structural Database (CSD) v543 
# hosted by the Cambridge Crystallographic Data Centre (CCDC).
#
# This work is licensed under the Creative Commons
# Attribution-NonCommercial-ShareAlike 4.0 International License.
# To view a copy of this license, visit
# http://creativecommons.org/licenses/by-nc-sa/4.0/
# or send a letter to
# Creative Commons, PO Box 1866, Mountain View, CA 94042, USA.
#
# CIF created using the CSD Python API on 29 September 2022
# The structure has been converted into the P1 space group
# The structure has a 3D framework
# The original CSD entry LAVTOT is in the tetragonal crystal system
# The original CSD entry LAVTOT is in a Sohncke space group
# The framework has been calculated to contain at least 10.0% void space
# The void calculation uses a probe of radius 1.32A, grid spacing 0.4
# H atom positions have been added when not included in the experimental data
# Generated hydrogen atom positions removed from atoms on special positions
#
###############################################################################

data_LAVTOT
_chemical_formula_moiety         '(C54 H34 Er4 O28)n'
_symmetry_cell_setting           triclinic
_symmetry_space_group_name_H-M   'P 1'
_symmetry_Int_Tables_number      1
_space_group_name_Hall           'P 1'
loop_
_symmetry_equiv_pos_site_id
_symmetry_equiv_pos_as_xyz
1 x,y,z
_cell_length_a                   10.2670(15)
_cell_length_b                   10.2670(15)
_cell_length_c                   14.462(3)
_cell_angle_alpha                90
_cell_angle_beta                 90
_cell_angle_gamma                90
_cell_volume                     1524.46
loop_
_atom_site_label
_atom_site_type_symbol
_atom_site_fract_x
_atom_site_fract_y
_atom_site_fract_z
Er2 Er 0.147415(12) 0.147415(12) 0.1250
C1 C 0.0444(4) 0.6033(3) 0.0771(2)
H1 H 0.0746 0.5582 0.1286
C2 C 0.0000 0.5349(4) 0.0000
C3 C -0.0000 0.3894(5) 0.0000
O1 O 0.0943(3) 0.7586(3) 0.23714(17)
C4 C 0.0438(4) 0.7392(3) 0.0773(2)
C5 C 0.0868(3) 0.8160(3) 0.1605(2)
O2 O 0.0719(3) 0.3347(3) 0.05825(19)
O3 O 0.1116(3) 0.9320(3) 0.1504(2)
C6 C -0.0000 0.8070(5) 0.0000
H2 H -0.0000 0.8975 0.0000
O4 O 0.3117(3) 0.3117(3) 0.1250
Er6 Er 0.147415(12) 0.852585(12) 0.3750
O7 O 0.0943(3) 0.2414(3) 0.26286(17)
O9 O 0.3347(3) 0.0719(3) 0.19175(19)
C2_2 C 0.0000 0.5349(4) 1.0000
C3_2 C -0.0000 0.3894(5) 1.0000
C6_2 C -0.0000 0.8070(5) 1.0000
H2_2 H -0.0000 0.8975 1.0000
O6 O 0.2414(3) 0.0943(3) 0.98714(17)
Er5 Er 0.852585(12) 0.147415(12) 0.8750
C2_3 C 1.0000 0.5349(4) 0.0000
C3_3 C 1.0000 0.3894(5) 0.0000
C6_3 C 1.0000 0.8070(5) 0.0000
H2_3 H 1.0000 0.8975 0.0000
O12 O 0.9320(3) 0.1116(3) 0.0996(2)
C2_4 C 1.0000 0.5349(4) 1.0000
C3_4 C 1.0000 0.3894(5) 1.0000
C6_4 C 1.0000 0.8070(5) 1.0000
H2_4 H 1.0000 0.8975 1.0000
Er3 Er 0.852585(12) 0.852585(12) 0.6250
C7 C 0.9556(4) 0.6033(3) 0.9229(2)
H3 H 0.9254 0.5582 0.8714
O5 O 0.9057(3) 0.7586(3) 0.76286(17)
C8 C 0.9562(4) 0.7392(3) 0.9227(2)
C9 C 0.9132(3) 0.8160(3) 0.8395(2)
O8 O 0.9281(3) 0.3347(3) 0.94175(19)
O10 O 0.8884(3) 0.9320(3) 0.8496(2)
C2_5 C -0.0000 0.4651(4) 0.5000
C3_5 C -0.0000 0.6106(5) 0.5000
C6_5 C -0.0000 0.1930(5) 0.5000
H2_5 H 0.0000 0.1025 0.5000
C7_2 C 0.0444(4) 0.3967(3) 0.4229(2)
H3_2 H 0.0746 0.4418 0.3714
C8_2 C 0.0438(4) 0.2608(3) 0.4227(2)
C9_2 C 0.0868(3) 0.1840(3) 0.3395(2)
O8_2 O 0.0719(3) 0.6653(3) 0.44175(19)
O10_2 O 0.1116(3) 0.0680(3) 0.3496(2)
O12_2 O 0.0680(3) 0.8884(3) 0.5996(2)
O11 O 0.8884(3) 0.0680(3) 0.6504(2)
C1_2 C 0.9556(4) 0.3967(3) 0.5771(2)
H1_2 H 0.9254 0.4418 0.6286
C2_6 C 1.0000 0.4651(4) 0.5000
C3_6 C 1.0000 0.6106(5) 0.5000
O1_2 O 0.9057(3) 0.2414(3) 0.73714(17)
C4_2 C 0.9562(4) 0.2608(3) 0.5773(2)
C5_2 C 0.9132(3) 0.1840(3) 0.6605(2)
O2_2 O 0.9281(3) 0.6653(3) 0.55825(19)
C6_6 C 1.0000 0.1930(5) 0.5000
H2_6 H 1.0000 0.1025 0.5000
O4_2 O 0.6883(3) 0.6883(3) 0.6250
O6_2 O 0.7586(3) 0.9057(3) 0.48714(17)
O9_2 O 0.6653(3) 0.9281(3) 0.69175(19)
O11_2 O 0.0680(3) 0.1116(3) 0.9004(2)
O7_2 O 0.7586(3) 0.0943(3) 0.01286(17)
C1_3 C 0.3967(3) 0.0444(4) 0.8271(2)
H1_3 H 0.4418 0.0746 0.8786
C2_7 C 0.4651(4) -0.0000 0.7500
C3_7 C 0.6106(5) -0.0000 0.7500
C4_3 C 0.2608(3) 0.0438(4) 0.8273(2)
C5_3 C 0.1840(3) 0.0868(3) 0.9105(2)
O2_3 O 0.6653(3) 0.0719(3) 0.80825(19)
C6_7 C 0.1930(5) -0.0000 0.7500
H2_7 H 0.1025 -0.0000 0.7500
O4_3 O 0.6883(3) 0.3117(3) 0.8750
C2_8 C 0.4651(4) 1.0000 0.7500
C3_8 C 0.6106(5) 1.0000 0.7500
C6_8 C 0.1930(5) 1.0000 0.7500
H2_8 H 0.1025 1.0000 0.7500
C7_3 C 0.3967(3) 0.9556(4) 0.6729(2)
H3_3 H 0.4418 0.9254 0.6214
O5_2 O 0.2414(3) 0.9057(3) 0.51286(17)
C8_3 C 0.2608(3) 0.9562(4) 0.6727(2)
C9_3 C 0.1840(3) 0.9132(3) 0.5895(2)
C2_9 C 0.5349(4) -0.0000 0.2500
C3_9 C 0.3894(5) 0.0000 0.2500
C6_9 C 0.8070(5) 0.0000 0.2500
H2_9 H 0.8975 0.0000 0.2500
C7_4 C 0.6033(3) 0.0444(4) 0.1729(2)
H3_4 H 0.5582 0.0746 0.1214
C8_4 C 0.7392(3) 0.0438(4) 0.1727(2)
C9_4 C 0.8160(3) 0.0868(3) 0.0895(2)
C1_4 C 0.6033(3) 0.9556(4) 0.3271(2)
H1_4 H 0.5582 0.9254 0.3786
C2_10 C 0.5349(4) 1.0000 0.2500
C3_10 C 0.3894(5) 1.0000 0.2500
C4_4 C 0.7392(3) 0.9562(4) 0.3273(2)
C5_4 C 0.8160(3) 0.9132(3) 0.4105(2)
O2_4 O 0.3347(3) 0.9281(3) 0.30825(19)
O3_2 O 0.9320(3) 0.8884(3) 0.4004(2)
C6_10 C 0.8070(5) 1.0000 0.2500
H2_10 H 0.8975 1.0000 0.2500
O4_4 O 0.3117(3) 0.6883(3) 0.3750
loop_
_geom_bond_atom_site_label_1
_geom_bond_atom_site_label_2
_geom_bond_site_symmetry_1
_geom_bond_site_symmetry_2
Er2 O2 1_555 1_555
C1 H1 1_555 1_555
C2 C1 1_555 1_555
C3 C2 1_555 1_555
O1 C5 1_555 1_555
C4 C1 1_555 1_555
C5 C4 1_555 1_555
O2 C3 1_555 1_555
O3 C5 1_555 1_555
C6 C4 1_555 1_555
H2 C6 1_555 1_555
O4 Er2 1_555 1_555
Er6 O1 1_555 1_555
O7 Er2 1_555 1_555
O9 Er2 1_555 1_555
C3_2 C2_2 1_555 1_555
H2_2 C6_2 1_555 1_555
C3_3 C2_3 1_555 1_555
H2_3 C6_3 1_555 1_555
C3_4 C2_4 1_555 1_555
H2_4 C6_4 1_555 1_555
Er3 O5 1_555 1_555
Er5 O8 1_555 1_555
C7 C2_4 1_555 1_555
H3 C7 1_555 1_555
O5 C9 1_555 1_555
C8 C6_4 1_555 1_555
C9 C8 1_555 1_555
O8 C3_4 1_555 1_555
O10 C9 1_555 1_555
C7 C8 1_555 1_555
C3_5 C2_5 1_555 1_555
H2_5 C6_5 1_555 1_555
Er6 O8_2 1_555 1_555
C7_2 C2_5 1_555 1_555
H3_2 C7_2 1_555 1_555
O7 C9_2 1_555 1_555
C8_2 C6_5 1_555 1_555
C9_2 C8_2 1_555 1_555
O8_2 C3_5 1_555 1_555
O10_2 C9_2 1_555 1_555
C7_2 C8_2 1_555 1_555
Er3 O2_2 1_555 1_555
C1_2 H1_2 1_555 1_555
C2_6 C1_2 1_555 1_555
C3_6 C2_6 1_555 1_555
O1_2 C5_2 1_555 1_555
C4_2 C1_2 1_555 1_555
C5_2 C4_2 1_555 1_555
O2_2 C3_6 1_555 1_555
O11 C5_2 1_555 1_555
C6_6 C4_2 1_555 1_555
H2_6 C6_6 1_555 1_555
O4_2 Er3 1_555 1_555
Er5 O1_2 1_555 1_555
O6_2 Er3 1_555 1_555
O9_2 Er3 1_555 1_555
Er5 O2_3 1_555 1_555
C1_3 H1_3 1_555 1_555
C2_7 C1_3 1_555 1_555
C3_7 C2_7 1_555 1_555
O6 C5_3 1_555 1_555
C4_3 C1_3 1_555 1_555
C5_3 C4_3 1_555 1_555
O2_3 C3_7 1_555 1_555
O11_2 C5_3 1_555 1_555
C6_7 C4_3 1_555 1_555
H2_7 C6_7 1_555 1_555
O4_3 Er5 1_555 1_555
C3_8 C2_8 1_555 1_555
H2_8 C6_8 1_555 1_555
Er6 O5_2 1_555 1_555
C7_3 C2_8 1_555 1_555
H3_3 C7_3 1_555 1_555
O5_2 C9_3 1_555 1_555
C8_3 C6_8 1_555 1_555
C9_3 C8_3 1_555 1_555
O9_2 C3_8 1_555 1_555
O12_2 C9_3 1_555 1_555
C7_3 C8_3 1_555 1_555
C3_9 C2_9 1_555 1_555
H2_9 C6_9 1_555 1_555
C7_4 C2_9 1_555 1_555
H3_4 C7_4 1_555 1_555
O7_2 C9_4 1_555 1_555
C8_4 C6_9 1_555 1_555
C9_4 C8_4 1_555 1_555
O9 C3_9 1_555 1_555
O12 C9_4 1_555 1_555
C7_4 C8_4 1_555 1_555
Er6 O2_4 1_555 1_555
C1_4 H1_4 1_555 1_555
C2_10 C1_4 1_555 1_555
C3_10 C2_10 1_555 1_555
O6_2 C5_4 1_555 1_555
C4_4 C1_4 1_555 1_555
C5_4 C4_4 1_555 1_555
O2_4 C3_10 1_555 1_555
O3_2 C5_4 1_555 1_555
C6_10 C4_4 1_555 1_555
H2_10 C6_10 1_555 1_555
O4_4 Er6 1_555 1_555

#END
