
###############################################################################
#
# This file contains modified crystal structure data generated from the
# MOF subset of the Cambridge Structural Database (CSD) v543 
# hosted by the Cambridge Crystallographic Data Centre (CCDC).
#
# This work is licensed under the Creative Commons
# Attribution-NonCommercial-ShareAlike 4.0 International License.
# To view a copy of this license, visit
# http://creativecommons.org/licenses/by-nc-sa/4.0/
# or send a letter to
# Creative Commons, PO Box 1866, Mountain View, CA 94042, USA.
#
# CIF created using the CSD Python API on 29 September 2022
# The structure has been converted into the P1 space group
# The structure has a 3D framework
# The original CSD entry LAVTEJ01 is in the tetragonal crystal system
# The original CSD entry LAVTEJ01 is in a Sohncke space group
# The framework has been calculated to contain at least 10.0% void space
# The void calculation uses a probe of radius 1.32A, grid spacing 0.4
#
###############################################################################

data_LAVTEJ01
_chemical_formula_moiety         '(C39 H13 Dy3 O24)n'
_symmetry_cell_setting           triclinic
_symmetry_space_group_name_H-M   'P 1'
_symmetry_Int_Tables_number      1
_space_group_name_Hall           'P 1'
loop_
_symmetry_equiv_pos_site_id
_symmetry_equiv_pos_as_xyz
1 x,y,z
_cell_length_a                   10.3087(15)
_cell_length_b                   10.3087(15)
_cell_length_c                   13.967(3)
_cell_angle_alpha                90
_cell_angle_beta                 90
_cell_angle_gamma                90
_cell_volume                     1484.26
loop_
_atom_site_label
_atom_site_type_symbol
_atom_site_fract_x
_atom_site_fract_y
_atom_site_fract_z
Dy1 Dy 0.37451(2) 0.37451(2) 0.1250
O1 O 0.4182(6) 0.2376(5) 0.2518(3)
O3 O 0.4088(5) 0.4140(4) 0.3351(3)
C1 C 0.4260(6) 0.2933(6) 0.3288(4)
C2 C 0.4632(7) 0.2196(6) 0.4187(4)
C3 C 0.5000 0.0173(9) 0.5000
C4 C 0.4617(7) 0.0840(6) 0.4179(4)
H1 H 0.4356 0.0390 0.3635
C5 C 0.5000 0.2853(8) 0.5000
H2 H 0.5000 0.3755 0.5000
O4 O 0.5818(6) 0.2376(5) 0.7482(3)
O6 O 0.5912(5) 0.4140(4) 0.6649(3)
C7 C 0.5740(6) 0.2933(6) 0.6712(4)
C8 C 0.5368(7) 0.2196(6) 0.5813(4)
C9 C 0.5383(7) 0.0840(6) 0.5821(4)
H3 H 0.5644 0.0390 0.6365
Dy3 Dy 0.62549(2) 0.62549(2) 0.6250
Dy4 Dy 0.62549(2) 0.37451(2) 0.8750
Dy6 Dy 0.37451(2) 0.62549(2) 0.3750
O8 O 0.1844(4) 0.4174(5) 0.1971(3)
O9 O 0.4174(5) 0.1844(4) 0.0529(3)
O10 O 0.5860(4) 0.4088(5) 0.0851(3)
O11 O 0.4088(5) 0.5860(4) 0.1649(3)
O7 O 0.2376(5) 0.4182(6) 0.9982(3)
O2 O 0.4174(5) 0.8156(4) 0.4471(3)
C6 C 0.5000 0.8717(9) 0.5000
O5 O 0.5826(5) 0.8156(4) 0.5529(3)
C6_2 C 0.5000 0.1283(9) 0.0000
O2_2 O 0.5826(5) 0.1844(4) 0.9471(3)
C6_3 C 0.5000 0.1283(9) 1.0000
C3_2 C 0.5000 0.9827(9) 0.0000
C5_2 C 0.5000 0.7147(8) 0.0000
H2_2 H 0.5000 0.6245 0.0000
O4_2 O 0.4182(6) 0.7624(5) 0.2482(3)
C7_2 C 0.4260(6) 0.7067(6) 0.1712(4)
C8_2 C 0.4632(7) 0.7804(6) 0.0813(4)
C9_2 C 0.4617(7) 0.9160(6) 0.0821(4)
H3_2 H 0.4356 0.9610 0.1365
O1_2 O 0.5818(6) 0.7624(5) 0.7518(3)
O3_2 O 0.5912(5) 0.5860(4) 0.8351(3)
C1_2 C 0.5740(6) 0.7067(6) 0.8288(4)
C2_2 C 0.5368(7) 0.7804(6) 0.9187(4)
C3_3 C 0.5000 0.9827(9) 1.0000
C4_2 C 0.5383(7) 0.9160(6) 0.9179(4)
H1_2 H 0.5644 0.9610 0.8635
C5_3 C 0.5000 0.7147(8) 1.0000
H2_3 H 0.5000 0.6245 1.0000
O7_2 O 0.7624(5) 0.5818(6) 0.4982(3)
O8_2 O 0.8156(4) 0.5826(5) 0.6971(3)
O10_2 O 0.4140(4) 0.5912(5) 0.5851(3)
C6_4 C 0.1283(9) 0.5000 0.2500
O5_2 O 0.1844(4) 0.5826(5) 0.3029(3)
O1_3 O 0.7624(5) 0.4182(6) 0.0018(3)
C1_3 C 0.7067(6) 0.4260(6) 0.0788(4)
C2_3 C 0.7804(6) 0.4632(7) 0.1687(4)
C3_4 C 0.9827(9) 0.5000 0.2500
C4_3 C 0.9160(6) 0.4617(7) 0.1679(4)
H1_3 H 0.9610 0.4356 0.1135
C5_4 C 0.7147(8) 0.5000 0.2500
H2_4 H 0.6245 0.5000 0.2500
O6_2 O 0.5860(4) 0.5912(5) 0.4149(3)
C7_3 C 0.7067(6) 0.5740(6) 0.4212(4)
C8_3 C 0.7804(6) 0.5368(7) 0.3313(4)
C9_3 C 0.9160(6) 0.5383(7) 0.3321(4)
H3_3 H 0.9610 0.5644 0.3865
O9_2 O 0.8156(4) 0.4174(5) 0.8029(3)
O11_2 O 0.4140(4) 0.4088(5) 0.9149(3)
O1_4 O 0.2376(5) 0.5818(6) 0.5018(3)
C1_4 C 0.2933(6) 0.5740(6) 0.5788(4)
C2_4 C 0.2196(6) 0.5368(7) 0.6687(4)
C3_5 C 0.0173(9) 0.5000 0.7500
C4_4 C 0.0840(6) 0.5383(7) 0.6679(4)
H1_4 H 0.0390 0.5644 0.6135
C5_5 C 0.2853(8) 0.5000 0.7500
H2_5 H 0.3755 0.5000 0.7500
C7_4 C 0.2933(6) 0.4260(6) 0.9212(4)
C8_4 C 0.2196(6) 0.4632(7) 0.8313(4)
C9_4 C 0.0840(6) 0.4617(7) 0.8321(4)
H3_4 H 0.0390 0.4356 0.8865
C6_5 C 0.8717(9) 0.5000 0.7500
loop_
_geom_bond_atom_site_label_1
_geom_bond_atom_site_label_2
_geom_bond_site_symmetry_1
_geom_bond_site_symmetry_2
Dy1 O1 1_555 1_555
O1 C1 1_555 1_555
O3 C1 1_555 1_555
C1 C2 1_555 1_555
C2 C4 1_555 1_555
C3 C4 1_555 1_555
C4 H1 1_555 1_555
C5 C2 1_555 1_555
H2 C5 1_555 1_555
O4 C7 1_555 1_555
O6 C7 1_555 1_555
C7 C8 1_555 1_555
C8 C5 1_555 1_555
C9 C3 1_555 1_555
H3 C9 1_555 1_555
Dy3 O6 1_555 1_555
Dy4 O4 1_555 1_555
Dy6 O3 1_555 1_555
O8 Dy1 1_555 1_555
O9 Dy1 1_555 1_555
O10 Dy1 1_555 1_555
O11 Dy1 1_555 1_555
C8 C9 1_555 1_555
O2 C6 1_555 1_555
O5 C6 1_555 1_555
Dy3 O5 1_555 1_555
Dy6 O2 1_555 1_555
O9 C6_2 1_555 1_555
O2_2 C6_3 1_555 1_555
Dy4 O2_2 1_555 1_555
H2_2 C5_2 1_555 1_555
O4_2 C7_2 1_555 1_555
O11 C7_2 1_555 1_555
C7_2 C8_2 1_555 1_555
C8_2 C5_2 1_555 1_555
C9_2 C3_2 1_555 1_555
H3_2 C9_2 1_555 1_555
Dy6 O4_2 1_555 1_555
C8_2 C9_2 1_555 1_555
Dy3 O1_2 1_555 1_555
O1_2 C1_2 1_555 1_555
O3_2 C1_2 1_555 1_555
C1_2 C2_2 1_555 1_555
C2_2 C4_2 1_555 1_555
C3_3 C4_2 1_555 1_555
C4_2 H1_2 1_555 1_555
C5_3 C2_2 1_555 1_555
H2_3 C5_3 1_555 1_555
Dy4 O3_2 1_555 1_555
O7_2 Dy3 1_555 1_555
O8_2 Dy3 1_555 1_555
O10_2 Dy3 1_555 1_555
O8 C6_4 1_555 1_555
O5_2 C6_4 1_555 1_555
Dy6 O5_2 1_555 1_555
O1_3 C1_3 1_555 1_555
O10 C1_3 1_555 1_555
C1_3 C2_3 1_555 1_555
C2_3 C4_3 1_555 1_555
C3_4 C4_3 1_555 1_555
C4_3 H1_3 1_555 1_555
C5_4 C2_3 1_555 1_555
H2_4 C5_4 1_555 1_555
O7_2 C7_3 1_555 1_555
O6_2 C7_3 1_555 1_555
C7_3 C8_3 1_555 1_555
C8_3 C5_4 1_555 1_555
C9_3 C3_4 1_555 1_555
H3_3 C9_3 1_555 1_555
Dy6 O6_2 1_555 1_555
C8_3 C9_3 1_555 1_555
O9_2 Dy4 1_555 1_555
O11_2 Dy4 1_555 1_555
Dy6 O1_4 1_555 1_555
O1_4 C1_4 1_555 1_555
O10_2 C1_4 1_555 1_555
C1_4 C2_4 1_555 1_555
C2_4 C4_4 1_555 1_555
C3_5 C4_4 1_555 1_555
C4_4 H1_4 1_555 1_555
C5_5 C2_4 1_555 1_555
H2_5 C5_5 1_555 1_555
O7 C7_4 1_555 1_555
O11_2 C7_4 1_555 1_555
C7_4 C8_4 1_555 1_555
C8_4 C5_5 1_555 1_555
C9_4 C3_5 1_555 1_555
H3_4 C9_4 1_555 1_555
C8_4 C9_4 1_555 1_555
O8_2 C6_5 1_555 1_555
O9_2 C6_5 1_555 1_555

#END
