
###############################################################################
#
# This file contains modified crystal structure data generated from the
# MOF subset of the Cambridge Structural Database (CSD) v543 
# hosted by the Cambridge Crystallographic Data Centre (CCDC).
#
# This work is licensed under the Creative Commons
# Attribution-NonCommercial-ShareAlike 4.0 International License.
# To view a copy of this license, visit
# http://creativecommons.org/licenses/by-nc-sa/4.0/
# or send a letter to
# Creative Commons, PO Box 1866, Mountain View, CA 94042, USA.
#
# CIF created using the CSD Python API on 29 September 2022
# The structure has been converted into the P1 space group
# The structure has a 3D framework
# The original CSD entry LAVZUG is in the monoclinic crystal system
# The framework has been calculated to contain at least 10.0% void space
# The void calculation uses a probe of radius 1.32A, grid spacing 0.4
# The framework is charged, counterions have been retained in the structure
# H atom positions have been added when not included in the experimental data
#
###############################################################################

data_LAVZUG
_chemical_formula_moiety         '(C152 H128 N16 O92 P16 U12 2+)n'
_symmetry_cell_setting           triclinic
_symmetry_space_group_name_H-M   'P 1'
_symmetry_Int_Tables_number      1
_space_group_name_Hall           'P 1'
loop_
_symmetry_equiv_pos_site_id
_symmetry_equiv_pos_as_xyz
1 x,y,z
_cell_length_a                   14.8008(9)
_cell_length_b                   12.2543(7)
_cell_length_c                   30.2243(19)
_cell_angle_alpha                90
_cell_angle_beta                 90.9910(10)
_cell_angle_gamma                90
_cell_volume                     5481.07
loop_
_atom_site_label
_atom_site_type_symbol
_atom_site_fract_x
_atom_site_fract_y
_atom_site_fract_z
U5 U 0.04505(3) 0.17133(3) 0.265244(18)
U1 U 0.45495(3) 0.67133(3) 0.234756(18)
U2 U 0.53319(6) 0.35956(6) 0.07635(2)
U3 U 0.74841(3) 0.42695(4) 0.242915(17)
P3 P 0.6948(2) 0.6843(2) 0.19599(12)
P4 P 0.4752(4) 0.6359(4) 0.04756(17)
O1 O 0.4231(7) 0.6804(7) 0.1778(4)
O2 O 0.4816(7) 0.6639(8) 0.2916(3)
O3 O 0.6047(6) 0.6771(7) 0.2185(3)
O4 O 0.3098(6) 0.5834(7) 0.2495(4)
O5 O 0.3120(6) 0.7616(7) 0.2541(4)
O6 O 0.8119(6) 0.3593(7) 0.2018(3)
O7 O 0.6868(6) 0.4959(7) 0.2839(3)
O8 O 0.7459(6) 0.5756(7) 0.1978(3)
O9 O 0.7534(6) 0.7751(7) 0.2137(4)
O10 O 0.834(2) 0.920(3) 0.0663(11)
O11 O 0.728(2) 0.936(2) 0.0115(8)
O13 O 0.3934(15) 0.7090(19) 0.0596(9)
O14 O 0.4606(8) 0.5248(12) 0.0662(4)
O15 O 0.6349(9) 0.4321(12) 0.0705(5)
O16 O 0.4339(17) 0.290(2) 0.0805(6)
O17 O 0.6451(19) 0.254(2) 0.1272(10)
O18 O 0.601(2) 0.185(2) 0.0478(10)
O19 O 0.0195(6) 0.9870(7) 0.2761(3)
O24 O 0.0214(6) 0.3608(7) 0.2649(3)
C1 C 0.2698(8) 0.6709(11) 0.2571(5)
C2 C 0.1728(8) 0.6726(10) 0.2702(5)
C3 C 0.1293(8) 0.7709(10) 0.2778(5)
H1 H 0.1603 0.8364 0.2749
C4 C 0.0394(8) 0.7708(9) 0.2896(4)
C6 C 0.0386(8) 0.5733(9) 0.2854(5)
C7 C 0.1275(8) 0.5738(9) 0.2742(5)
H3 H 0.1577 0.5084 0.2693
C8 C 0.760(3) 0.899(3) 0.0489(12)
C9 C 0.6983(19) 0.8174(18) 0.0725(9)
C10 C 0.7226(14) 0.7925(15) 0.1165(6)
H4 H 0.7720 0.8262 0.1302
C11 C 0.6705(10) 0.7155(11) 0.1395(5)
C12 C 0.5980(11) 0.6687(12) 0.1172(5)
H5 H 0.5635 0.6176 0.1322
C13 C 0.5733(14) 0.6937(14) 0.0734(7)
C14 C 0.6246(18) 0.7674(18) 0.0511(8)
H6 H 0.6106 0.7843 0.0217
U10 U 0.75159(3) 0.92695(4) 0.257085(17)
O25 O 0.7466(6) 0.2751(7) 0.2863(4)
O26 O 0.5113(15) 0.3590(12) 0.0013(5)
O27 O 0.4805(6) 0.4870(7) 0.2239(3)
O28 O 0.5092(7) 0.4143(8) 0.1479(3)
O29 O 0.6195(6) 0.3735(7) 0.2085(3)
O30 O 0.8782(6) 0.4741(7) 0.2806(4)
O31 O 0.4786(6) 0.8608(7) 0.2351(3)
H27 H 0.620464 0.249635 0.1575
H28 H 0.653738 0.179175 0.115392
H29 H 0.33832 0.682188 0.0438389
H30 H 0.650718 0.202528 0.0273331
H31 H 0.625225 0.141467 0.0730489
O12 O 0.4887(15) 0.6410(12) 0.9987(5)
U7 U 0.46681(6) 0.64044(6) 0.92365(2)
H26 H 0.768618 0.914311 0.987215
P1 P 0.9800(2) 0.8956(2) 0.30250(12)
P2 P 0.9764(2) 0.4484(2) 0.29164(13)
O20 O 0.9908(7) 0.9143(8) 0.3521(3)
O21 O 0.8805(6) 0.8735(7) 0.2915(3)
O23 O 0.9831(8) 0.4170(9) 0.3410(4)
C5 C 0.9933(8) 0.6716(10) 0.2928(5)
H2 H 0.9324 0.6710 0.2999
U6 U 0.96681(6) 0.85956(6) 0.42365(2)
H32 H 0.944742 0.352062 0.34646
P1_2 P 0.5200(2) 0.3956(2) 0.19750(12)
P4_2 P 0.0248(4) 0.1359(4) 0.45244(17)
O1_2 O 0.0769(7) 0.1804(7) 0.3222(4)
O2_2 O 0.0184(7) 0.1639(8) 0.2084(3)
O4_2 O 0.1902(6) 0.0834(7) 0.2505(4)
O5_2 O 0.1880(6) 0.2616(7) 0.2459(4)
O12_2 O 0.0113(15) 0.1410(12) 0.5013(5)
O13_2 O 0.1066(15) 0.2090(19) 0.4404(9)
O14_2 O 0.0394(8) 0.0248(12) 0.4338(4)
C1_2 C 0.2302(8) 0.1709(11) 0.2429(5)
C2_2 C 0.3272(8) 0.1726(10) 0.2298(5)
C3_2 C 0.3707(8) 0.2709(10) 0.2222(5)
H1_2 H 0.3397 0.3364 0.2251
C4_2 C 0.4606(8) 0.2708(9) 0.2104(4)
C5_2 C 0.5067(8) 0.1716(10) 0.2072(5)
H2_2 H 0.5676 0.1710 0.2001
C6_2 C 0.4614(8) 0.0733(9) 0.2146(5)
C7_2 C 0.3725(8) 0.0738(9) 0.2258(5)
H3_2 H 0.3423 0.0084 0.2307
U7_2 U 0.03319(6) 0.14044(6) 0.57635(2)
H29_2 H 0.16168 0.182188 0.456161
P2_2 P 0.5236(2) 0.9484(2) 0.20836(13)
O16_2 O 0.0661(17) 0.790(2) 0.4195(6)
O22 O 0.6218(6) 0.9741(7) 0.2194(4)
O23_2 O 0.5169(8) 0.9170(9) 0.1590(4)
H32_2 H 0.555258 0.852062 0.15354
P3_2 P 0.8052(2) 0.1843(2) 0.30401(12)
O3_2 O 0.8953(6) 0.1771(7) 0.2815(3)
O8_2 O 0.7541(6) 0.0756(7) 0.3022(3)
O10_2 O 0.666(2) 0.420(3) 0.4337(11)
O11_2 O 0.772(2) 0.436(2) 0.4885(8)
C8_2 C 0.740(3) 0.399(3) 0.4511(12)
C9_2 C 0.8017(19) 0.3174(18) 0.4275(9)
C10_2 C 0.7774(14) 0.2925(15) 0.3835(6)
H4_2 H 0.7280 0.3262 0.3698
C11_2 C 0.8295(10) 0.2155(11) 0.3605(5)
C12_2 C 0.9020(11) 0.1687(12) 0.3828(5)
H5_2 H 0.9365 0.1176 0.3678
C13_2 C 0.9267(14) 0.1937(14) 0.4266(7)
C14_2 C 0.8754(18) 0.2674(18) 0.4489(8)
H6_2 H 0.8894 0.2843 0.4783
H26_2 H 0.731382 0.414311 0.512785
O6_2 O 0.6881(6) 0.8593(7) 0.2982(3)
O7_2 O 0.8132(6) 0.9959(7) 0.2161(3)
O15_2 O 0.8651(9) 0.9321(12) 0.4295(5)
O17_2 O 0.8549(19) 0.754(2) 0.3728(10)
O18_2 O 0.899(2) 0.685(2) 0.4522(10)
O26_2 O 0.9887(15) 0.8590(12) 0.4987(5)
H27_2 H 0.879536 0.749635 0.3425
H28_2 H 0.846262 0.679175 0.384608
H30_2 H 0.849282 0.702528 0.472667
H31_2 H 0.874775 0.641467 0.426951
P1_3 P 0.0200(2) 0.1044(2) 0.69750(12)
P2_3 P 0.0236(2) 0.5516(2) 0.70836(13)
O20_2 O 0.0092(7) 0.0857(8) 0.6479(3)
O21_2 O 0.1195(6) 0.1265(7) 0.7085(3)
O22_2 O 0.1218(6) 0.5259(7) 0.7194(4)
O23_3 O 0.0169(8) 0.5830(9) 0.6590(4)
C5_3 C 0.0067(8) 0.3284(10) 0.7072(5)
H2_3 H 0.0676 0.3290 0.7001
U8 U 0.25159(3) 0.57305(4) 0.757085(17)
U9 U 0.24841(3) 0.07305(4) 0.742915(17)
H32_3 H 0.0552579 0.647938 0.65354
H26_3 H 0.231382 0.0856886 0.0127847
U1_2 U 0.54505(3) 0.32867(3) 0.765244(18)
P3_3 P 0.3052(2) 0.3157(2) 0.80401(12)
P4_3 P 0.5248(4) 0.3641(4) 0.95244(17)
O1_3 O 0.5769(7) 0.3196(7) 0.8222(4)
O2_3 O 0.5184(7) 0.3361(8) 0.7084(3)
O3_3 O 0.3953(6) 0.3229(7) 0.7815(3)
O4_3 O 0.6902(6) 0.4166(7) 0.7505(4)
O5_3 O 0.6880(6) 0.2384(7) 0.7459(4)
O6_3 O 0.1881(6) 0.6407(7) 0.7982(3)
O7_3 O 0.3132(6) 0.5041(7) 0.7161(3)
O8_3 O 0.2541(6) 0.4244(7) 0.8022(3)
O9_2 O 0.2466(6) 0.2249(7) 0.7863(4)
O10_3 O 0.166(2) 0.080(3) 0.9337(11)
O11_3 O 0.272(2) 0.064(2) 0.9885(8)
O13_3 O 0.6066(15) 0.2910(19) 0.9404(9)
O14_3 O 0.5394(8) 0.4752(12) 0.9338(4)
O15_3 O 0.3651(9) 0.5679(12) 0.9295(5)
O16_3 O 0.5661(17) 0.710(2) 0.9195(6)
O17_3 O 0.3549(19) 0.746(2) 0.8728(10)
O18_3 O 0.399(2) 0.815(2) 0.9522(10)
O19_2 O 0.9805(6) 0.0130(7) 0.7239(3)
O24_2 O 0.9786(6) 0.6392(7) 0.7351(3)
C1_3 C 0.7302(8) 0.3291(11) 0.7429(5)
C2_3 C 0.8272(8) 0.3274(10) 0.7298(5)
C3_3 C 0.8707(8) 0.2291(10) 0.7222(5)
H1_3 H 0.8397 0.1636 0.7251
C4_3 C 0.9606(8) 0.2292(9) 0.7104(4)
C6_3 C 0.9614(8) 0.4267(9) 0.7146(5)
C7_3 C 0.8725(8) 0.4262(9) 0.7258(5)
H3_3 H 0.8423 0.4916 0.7307
C8_3 C 0.240(3) 0.101(3) 0.9511(12)
C9_3 C 0.3017(19) 0.1826(18) 0.9275(9)
C10_3 C 0.2774(14) 0.2075(15) 0.8835(6)
H4_3 H 0.2280 0.1738 0.8698
C11_3 C 0.3295(10) 0.2845(11) 0.8605(5)
C12_3 C 0.4020(11) 0.3313(12) 0.8828(5)
H5_3 H 0.4365 0.3824 0.8678
C13_3 C 0.4267(14) 0.3063(14) 0.9266(7)
C14_3 C 0.3754(18) 0.2326(18) 0.9489(8)
H6_3 H 0.3894 0.2157 0.9783
U4 U 0.95495(3) 0.82867(3) 0.734756(18)
O25_2 O 0.2534(6) 0.7249(7) 0.7137(4)
O27_2 O 0.5195(6) 0.5130(7) 0.7761(3)
O28_2 O 0.4908(7) 0.5857(8) 0.8521(3)
O29_2 O 0.3805(6) 0.6265(7) 0.7915(3)
O31_2 O 0.5214(6) 0.1392(7) 0.7649(3)
H27_3 H 0.379536 0.750365 0.8425
H28_3 H 0.346262 0.820825 0.884608
H29_3 H 0.66168 0.317812 0.956161
H30_3 H 0.349282 0.797472 0.972667
H31_3 H 0.374775 0.858533 0.926951
O6_4 O 0.3119(6) 0.1407(7) 0.7018(3)
O7_4 O 0.1868(6) 0.0041(7) 0.7839(3)
O15_4 O 0.1349(9) 0.0679(12) 0.5705(5)
O17_4 O 0.1451(19) 0.246(2) 0.6272(10)
O18_4 O 0.101(2) 0.315(2) 0.5478(10)
O30_2 O 0.3782(6) 0.0259(7) 0.7806(4)
H27_4 H 0.120464 0.250365 0.6575
H28_4 H 0.153738 0.320825 0.615392
H30_4 H 0.150718 0.297472 0.527333
H31_4 H 0.125225 0.358533 0.573049
P3_4 P 0.1948(2) 0.8157(2) 0.69599(12)
O3_4 O 0.1047(6) 0.8229(7) 0.7185(3)
O8_4 O 0.2459(6) 0.9244(7) 0.6978(3)
O10_4 O 0.334(2) 0.580(3) 0.5663(11)
O11_4 O 0.228(2) 0.564(2) 0.5115(8)
C8_4 C 0.260(3) 0.601(3) 0.5489(12)
C9_4 C 0.1983(19) 0.6826(18) 0.5725(9)
C10_4 C 0.2226(14) 0.7075(15) 0.6165(6)
H4_4 H 0.2720 0.6738 0.6302
C11_4 C 0.1705(10) 0.7845(11) 0.6395(5)
C12_4 C 0.0980(11) 0.8313(12) 0.6172(5)
H5_4 H 0.0635 0.8824 0.6322
C13_4 C 0.0733(14) 0.8063(14) 0.5734(7)
C14_4 C 0.1246(18) 0.7326(18) 0.5511(8)
H6_4 H 0.1106 0.7157 0.5217
H26_4 H 0.268618 0.585689 0.487215
P2_4 P 0.4764(2) 0.0516(2) 0.79164(13)
O16_4 O 0.9339(17) 0.210(2) 0.5805(6)
O23_4 O 0.4831(8) 0.0830(9) 0.8410(4)
H32_4 H 0.444742 0.147938 0.84646
P1_4 P 0.4800(2) 0.6044(2) 0.80250(12)
P4_4 P 0.9752(4) 0.8641(4) 0.54756(17)
O1_4 O 0.9231(7) 0.8196(7) 0.6778(4)
O2_4 O 0.9816(7) 0.8361(8) 0.7916(3)
O4_4 O 0.8098(6) 0.9166(7) 0.7495(4)
O5_4 O 0.8120(6) 0.7384(7) 0.7541(4)
O13_4 O 0.8934(15) 0.7910(19) 0.5596(9)
O14_4 O 0.9606(8) 0.9752(12) 0.5662(4)
C1_4 C 0.7698(8) 0.8291(11) 0.7571(5)
C2_4 C 0.6728(8) 0.8274(10) 0.7702(5)
C3_4 C 0.6293(8) 0.7291(10) 0.7778(5)
H1_4 H 0.6603 0.6636 0.7749
C4_4 C 0.5394(8) 0.7292(9) 0.7896(4)
C5_4 C 0.4933(8) 0.8284(10) 0.7928(5)
H2_4 H 0.4324 0.8290 0.7999
C6_4 C 0.5386(8) 0.9267(9) 0.7854(5)
C7_4 C 0.6275(8) 0.9262(9) 0.7742(5)
H3_4 H 0.6577 0.9916 0.7693
H29_4 H 0.83832 0.817812 0.543839
C15 C 0.382(4) 0.381(3) 0.3368(11)
H7 H 0.3503 0.4464 0.3381
C16 C 0.479(3) 0.381(3) 0.3276(11)
H8 H 0.5104 0.4465 0.3259
C17 C 0.522(2) 0.290(3) 0.3221(8)
H9 H 0.5821 0.2923 0.3141
C18 C 0.4825(14) 0.189(2) 0.3272(6)
C19 C 0.3857(13) 0.194(2) 0.3384(6)
C20 C 0.3427(11) 0.0895(16) 0.3432(5)
C21 C 0.2086(16) 0.001(3) 0.3609(7)
H10 H 0.1479 0.0045 0.3683
C26 C 0.5240(13) 0.088(2) 0.3220(7)
H14 H 0.5850 0.0864 0.3151
N1 N 0.3379(16) 0.2872(17) 0.3430(7)
H15 H 0.2816 0.2861 0.3497
N2 N 0.2544(10) 0.0897(17) 0.3548(6)
H16 H 0.2278 0.1515 0.3583
C22 C 0.2505(18) 0.903(3) 0.3564(7)
H11 H 0.2187 0.8391 0.3615
C23 C 0.339(2) 0.898(2) 0.3445(7)
H12 H 0.3667 0.8309 0.3411
C24 C 0.3872(13) 0.9952(18) 0.3373(6)
C25 C 0.4806(15) 0.997(2) 0.3265(6)
H13 H 0.5110 0.9310 0.3226
C15_2 C 0.118(4) 0.881(3) 0.1632(11)
H7_2 H 0.1497 0.9464 0.1619
C16_2 C 0.021(3) 0.881(3) 0.1724(11)
C18_2 C 0.0175(14) 0.689(2) 0.1728(6)
C19_2 C 0.1143(13) 0.694(2) 0.1616(6)
C20_2 C 0.1573(11) 0.5895(16) 0.1568(5)
C21_2 C 0.2914(16) 0.501(3) 0.1391(7)
H10_2 H 0.3521 0.5045 0.1317
C22_2 C 0.2495(18) 0.403(3) 0.1436(7)
H11_2 H 0.2813 0.3391 0.1385
C23_2 C 0.161(2) 0.398(2) 0.1555(7)
H12_2 H 0.1333 0.3309 0.1589
C24_2 C 0.1128(13) 0.4952(18) 0.1627(6)
C25_2 C 0.0194(15) 0.497(2) 0.1735(6)
N1_2 N 0.1621(16) 0.7872(17) 0.1570(7)
H15_2 H 0.2184 0.7861 0.1503
N2_2 N 0.2456(10) 0.5897(17) 0.1452(6)
H16_2 H 0.2722 0.6515 0.1417
H8_2 H 0.9896 0.9465 0.1741
C17_2 C 0.978(2) 0.790(3) 0.1779(8)
H9_2 H 0.9179 0.7923 0.1859
H13_2 H 0.9890 0.4310 0.1774
C26_2 C 0.9760(13) 0.588(2) 0.1780(7)
H14_2 H 0.9150 0.5864 0.1849
C22_3 C 0.7495(18) 0.097(3) 0.6436(7)
H11_3 H 0.7813 0.1609 0.6385
C23_3 C 0.661(2) 0.102(2) 0.6555(7)
H12_3 H 0.6333 0.1691 0.6589
C24_3 C 0.6128(13) 0.0048(18) 0.6627(6)
C25_3 C 0.5194(15) 0.003(2) 0.6735(6)
H13_3 H 0.4890 0.0690 0.6774
C15_3 C 0.618(4) 0.619(3) 0.6632(11)
H7_3 H 0.6497 0.5536 0.6619
C16_3 C 0.521(3) 0.619(3) 0.6724(11)
H8_3 H 0.4896 0.5535 0.6741
C17_3 C 0.478(2) 0.710(3) 0.6779(8)
H9_3 H 0.4179 0.7077 0.6859
C18_3 C 0.5175(14) 0.811(2) 0.6728(6)
C19_3 C 0.6143(13) 0.806(2) 0.6616(6)
C20_3 C 0.6573(11) 0.9105(16) 0.6568(5)
C21_3 C 0.7914(16) 0.999(3) 0.6391(7)
H10_3 H 0.8521 0.9955 0.6317
C26_3 C 0.4760(13) 0.912(2) 0.6780(7)
H14_3 H 0.4150 0.9136 0.6849
N1_3 N 0.6621(16) 0.7128(17) 0.6570(7)
H15_3 H 0.7184 0.7139 0.6503
N2_3 N 0.7456(10) 0.9103(17) 0.6452(6)
H16_3 H 0.7722 0.8485 0.6417
H8_4 H 0.0104 0.0535 0.8259
C17_4 C 0.022(2) 0.210(3) 0.8221(8)
H9_4 H 0.0821 0.2077 0.8141
H13_4 H 0.0110 0.5690 0.8226
C26_4 C 0.0240(13) 0.412(2) 0.8220(7)
H14_4 H 0.0850 0.4136 0.8151
C15_4 C 0.882(4) 0.119(3) 0.8368(11)
H7_4 H 0.8503 0.0536 0.8381
C16_4 C 0.979(3) 0.119(3) 0.8276(11)
C18_4 C 0.9825(14) 0.311(2) 0.8272(6)
C19_4 C 0.8857(13) 0.306(2) 0.8384(6)
C20_4 C 0.8427(11) 0.4105(16) 0.8432(5)
C21_4 C 0.7086(16) 0.499(3) 0.8609(7)
H10_4 H 0.6479 0.4955 0.8683
C22_4 C 0.7505(18) 0.597(3) 0.8564(7)
H11_4 H 0.7187 0.6609 0.8615
C23_4 C 0.839(2) 0.602(2) 0.8445(7)
H12_4 H 0.8667 0.6691 0.8411
C24_4 C 0.8872(13) 0.5048(18) 0.8373(6)
C25_4 C 0.9806(15) 0.503(2) 0.8265(6)
N1_4 N 0.8379(16) 0.2128(17) 0.8430(7)
H15_4 H 0.7816 0.2139 0.8497
N2_4 N 0.7544(10) 0.4103(17) 0.8548(6)
H16_4 H 0.7278 0.3485 0.8583
C31 C 0.0041(12) 0.482(2) 0.0595(5)
N3 N 0.1147(16) 0.355(2) 0.0460(6)
C32 C 0.2013(18) 0.330(2) 0.0319(7)
H20 H 0.2201 0.2574 0.0308
C33 C 0.2596(12) 0.413(3) 0.0197(8)
H21 H 0.3175 0.3960 0.0103
C34 C 0.2315(14) 0.521(2) 0.0214(7)
H22 H 0.2706 0.5765 0.0132
C35 C 0.1450(16) 0.5459(19) 0.0355(6)
C36 C 0.0866(11) 0.463(2) 0.0477(5)
C37 C 0.123(3) 0.656(2) 0.0343(13)
H23 H 0.1622 0.7112 0.0257
C38 C 0.036(3) 0.671(3) 0.0474(14)
H24 H 0.0147 0.7426 0.0474
C27 C 0.862(3) 0.419(4) 0.0866(13)
H17 H 0.8249 0.3612 0.0944
C28 C 0.834(3) 0.520(5) 0.0890(14)
H18 H 0.7750 0.5335 0.0982
C29 C 0.8891(12) 0.606(2) 0.0780(5)
H19 H 0.8683 0.6772 0.0821
C30 C 0.9756(12) 0.590(2) 0.0609(5)
N4 N 0.9494(18) 0.403(3) 0.0720(8)
H25 H 0.9693 0.3373 0.0710
C28_2 C 0.666(3) 0.020(5) 0.4110(14)
H18_2 H 0.7250 0.0335 0.4018
C29_2 C 0.6109(12) 0.106(2) 0.4220(5)
H19_2 H 0.6317 0.1772 0.4179
C30_2 C 0.5244(12) 0.090(2) 0.4391(5)
C34_2 C 0.2685(14) 0.021(2) 0.4786(7)
H22_2 H 0.2294 0.0765 0.4868
C35_2 C 0.3550(16) 0.0459(19) 0.4645(6)
C37_2 C 0.377(3) 0.156(2) 0.4657(13)
H23_2 H 0.3378 0.2112 0.4743
C38_2 C 0.464(3) 0.171(3) 0.4526(14)
H24_2 H 0.4853 0.2426 0.4526
C27_2 C 0.638(3) 0.919(4) 0.4134(13)
H17_2 H 0.6751 0.8612 0.4056
C31_2 C 0.4959(12) 0.982(2) 0.4405(5)
N3_2 N 0.3853(16) 0.855(2) 0.4540(6)
C32_2 C 0.2987(18) 0.830(2) 0.4681(7)
H20_2 H 0.2799 0.7574 0.4692
C33_2 C 0.2404(12) 0.913(3) 0.4803(8)
H21_2 H 0.1825 0.8960 0.4897
C36_2 C 0.4134(11) 0.963(2) 0.4523(5)
N4_2 N 0.5506(18) 0.903(3) 0.4280(8)
H25_2 H 0.5307 0.8373 0.4290
C27_3 C 0.138(3) 0.581(4) 0.9134(13)
H17_3 H 0.1751 0.6388 0.9056
C28_3 C 0.166(3) 0.480(5) 0.9110(14)
H18_3 H 0.2250 0.4665 0.9018
C29_3 C 0.1109(12) 0.394(2) 0.9220(5)
H19_3 H 0.1317 0.3228 0.9179
C30_3 C 0.0244(12) 0.410(2) 0.9391(5)
N4_3 N 0.0506(18) 0.597(3) 0.9280(8)
H25_3 H 0.0307 0.6627 0.9290
C31_3 C 0.9959(12) 0.518(2) 0.9405(5)
N3_3 N 0.8853(16) 0.645(2) 0.9540(6)
C32_3 C 0.7987(18) 0.670(2) 0.9681(7)
H20_3 H 0.7799 0.7426 0.9692
C33_3 C 0.7404(12) 0.587(3) 0.9803(8)
H21_3 H 0.6825 0.6040 0.9897
C34_3 C 0.7685(14) 0.479(2) 0.9786(7)
H22_3 H 0.7294 0.4235 0.9868
C35_3 C 0.8550(16) 0.4541(19) 0.9645(6)
C36_3 C 0.9134(11) 0.537(2) 0.9523(5)
C37_3 C 0.877(3) 0.344(2) 0.9657(13)
H23_3 H 0.8378 0.2888 0.9743
C38_3 C 0.964(3) 0.329(3) 0.9526(14)
H24_3 H 0.9853 0.2574 0.9526
C27_4 C 0.362(3) 0.081(4) 0.5866(13)
H17_4 H 0.3249 0.1388 0.5944
C31_4 C 0.5041(12) 0.018(2) 0.5595(5)
N3_4 N 0.6147(16) 0.145(2) 0.5460(6)
C32_4 C 0.7013(18) 0.170(2) 0.5319(7)
H20_4 H 0.7201 0.2426 0.5308
C33_4 C 0.7596(12) 0.087(3) 0.5197(8)
H21_4 H 0.8175 0.1040 0.5103
C36_4 C 0.5866(11) 0.037(2) 0.5477(5)
N4_4 N 0.4494(18) 0.097(3) 0.5720(8)
H25_4 H 0.4693 0.1627 0.5710
C28_4 C 0.334(3) 0.980(5) 0.5890(14)
H18_4 H 0.2750 0.9665 0.5982
C29_4 C 0.3891(12) 0.894(2) 0.5780(5)
H19_4 H 0.3683 0.8228 0.5821
C30_4 C 0.4756(12) 0.910(2) 0.5609(5)
C34_4 C 0.7315(14) 0.979(2) 0.5214(7)
H22_4 H 0.7706 0.9235 0.5132
C35_4 C 0.6450(16) 0.9541(19) 0.5355(6)
C37_4 C 0.623(3) 0.844(2) 0.5343(13)
H23_4 H 0.6622 0.7888 0.5257
C38_4 C 0.536(3) 0.829(3) 0.5474(14)
H24_4 H 0.5147 0.7574 0.5474
loop_
_geom_bond_atom_site_label_1
_geom_bond_atom_site_label_2
_geom_bond_site_symmetry_1
_geom_bond_site_symmetry_2
U1 O1 1_555 1_555
U2 O14 1_555 1_555
U3 O6 1_555 1_555
P3 O3 1_555 1_555
O2 U1 1_555 1_555
O3 U1 1_555 1_555
O4 U1 1_555 1_555
O5 U1 1_555 1_555
O7 U3 1_555 1_555
O8 U3 1_555 1_555
O9 P3 1_555 1_555
O10 C8 1_555 1_555
O11 C8 1_555 1_555
O13 P4 1_555 1_555
O14 P4 1_555 1_555
O15 U2 1_555 1_555
O16 U2 1_555 1_555
O17 U2 1_555 1_555
O18 U2 1_555 1_555
C1 O4 1_555 1_555
C2 C1 1_555 1_555
C3 C2 1_555 1_555
H1 C3 1_555 1_555
C7 C2 1_555 1_555
H3 C7 1_555 1_555
C8 C9 1_555 1_555
C9 C10 1_555 1_555
C10 H4 1_555 1_555
C11 P3 1_555 1_555
C12 C11 1_555 1_555
H5 C12 1_555 1_555
C13 P4 1_555 1_555
C14 C9 1_555 1_555
H6 C14 1_555 1_555
U5 O24 1_555 1_555
U10 O9 1_555 1_555
O25 U3 1_555 1_555
O26 U2 1_555 1_555
O27 U1 1_555 1_555
O28 U2 1_555 1_555
O29 U3 1_555 1_555
O30 U3 1_555 1_555
O31 U1 1_555 1_555
P3 O8 1_555 1_555
O5 C1 1_555 1_555
C3 C4 1_555 1_555
C6 C7 1_555 1_555
C10 C11 1_555 1_555
C12 C13 1_555 1_555
C13 C14 1_555 1_555
O17 H27 1_555 1_555
O17 H28 1_555 1_555
O13 H29 1_555 1_555
O18 H30 1_555 1_555
O18 H31 1_555 1_555
O12 U7 1_555 1_555
P2 O30 1_555 1_555
O20 P1 1_555 1_555
O21 P1 1_555 1_555
O23 P2 1_555 1_555
H2 C5 1_555 1_555
U6 O20 1_555 1_555
U10 O21 1_555 1_555
O23 H32 1_555 1_555
U5 O1_2 1_555 1_555
P1_2 O27 1_555 1_555
P4_2 O12_2 1_555 1_555
O2_2 U5 1_555 1_555
O4_2 U5 1_555 1_555
O5_2 U5 1_555 1_555
O12_2 U7_2 1_555 1_555
O13_2 P4_2 1_555 1_555
O14_2 P4_2 1_555 1_555
O28 P1_2 1_555 1_555
O29 P1_2 1_555 1_555
C1_2 O4_2 1_555 1_555
C2_2 C1_2 1_555 1_555
C3_2 C2_2 1_555 1_555
H1_2 C3_2 1_555 1_555
C4_2 P1_2 1_555 1_555
C5_2 C4_2 1_555 1_555
H2_2 C5_2 1_555 1_555
C7_2 C2_2 1_555 1_555
H3_2 C7_2 1_555 1_555
O5_2 C1_2 1_555 1_555
C3_2 C4_2 1_555 1_555
C5_2 C6_2 1_555 1_555
C6_2 C7_2 1_555 1_555
O13_2 H29_2 1_555 1_555
P2_2 O22 1_555 1_555
O22 U10 1_555 1_555
O23_2 P2_2 1_555 1_555
O31 P2_2 1_555 1_555
O23_2 H32_2 1_555 1_555
P3_2 O3_2 1_555 1_555
O25 P3_2 1_555 1_555
O10_2 C8_2 1_555 1_555
O11_2 C8_2 1_555 1_555
C8_2 C9_2 1_555 1_555
C9_2 C10_2 1_555 1_555
C10_2 H4_2 1_555 1_555
C11_2 P3_2 1_555 1_555
C12_2 C11_2 1_555 1_555
H5_2 C12_2 1_555 1_555
C14_2 C9_2 1_555 1_555
H6_2 C14_2 1_555 1_555
P3_2 O8_2 1_555 1_555
C10_2 C11_2 1_555 1_555
C12_2 C13_2 1_555 1_555
C13_2 C14_2 1_555 1_555
O11_2 H26_2 1_555 1_555
U10 O6_2 1_555 1_555
O7_2 U10 1_555 1_555
O15_2 U6 1_555 1_555
O17_2 U6 1_555 1_555
O18_2 U6 1_555 1_555
O26_2 U6 1_555 1_555
O17_2 H27_2 1_555 1_555
O17_2 H28_2 1_555 1_555
O18_2 H30_2 1_555 1_555
O18_2 H31_2 1_555 1_555
P2_3 O22_2 1_555 1_555
O20_2 P1_3 1_555 1_555
O21_2 P1_3 1_555 1_555
O22_2 U8 1_555 1_555
O23_3 P2_3 1_555 1_555
H2_3 C5_3 1_555 1_555
U7_2 O20_2 1_555 1_555
U9 O21_2 1_555 1_555
O23_3 H32_3 1_555 1_555
U1_2 O1_3 1_555 1_555
U7 O14_3 1_555 1_555
U8 O6_3 1_555 1_555
P3_3 O3_3 1_555 1_555
O2_3 U1_2 1_555 1_555
O3_3 U1_2 1_555 1_555
O4_3 U1_2 1_555 1_555
O5_3 U1_2 1_555 1_555
O7_3 U8 1_555 1_555
O8_3 U8 1_555 1_555
O9_2 P3_3 1_555 1_555
O10_3 C8_3 1_555 1_555
O11_3 C8_3 1_555 1_555
O13_3 P4_3 1_555 1_555
O14_3 P4_3 1_555 1_555
O15_3 U7 1_555 1_555
O16_3 U7 1_555 1_555
O17_3 U7 1_555 1_555
O18_3 U7 1_555 1_555
C1_3 O4_3 1_555 1_555
C2_3 C1_3 1_555 1_555
C3_3 C2_3 1_555 1_555
H1_3 C3_3 1_555 1_555
C7_3 C2_3 1_555 1_555
H3_3 C7_3 1_555 1_555
C8_3 C9_3 1_555 1_555
C9_3 C10_3 1_555 1_555
C10_3 H4_3 1_555 1_555
C11_3 P3_3 1_555 1_555
C12_3 C11_3 1_555 1_555
H5_3 C12_3 1_555 1_555
C13_3 P4_3 1_555 1_555
C14_3 C9_3 1_555 1_555
H6_3 C14_3 1_555 1_555
U4 O24_2 1_555 1_555
U9 O9_2 1_555 1_555
O25_2 U8 1_555 1_555
O27_2 U1_2 1_555 1_555
O28_2 U7 1_555 1_555
O29_2 U8 1_555 1_555
O31_2 U1_2 1_555 1_555
P3_3 O8_3 1_555 1_555
O5_3 C1_3 1_555 1_555
C3_3 C4_3 1_555 1_555
C6_3 C7_3 1_555 1_555
C10_3 C11_3 1_555 1_555
C12_3 C13_3 1_555 1_555
C13_3 C14_3 1_555 1_555
O17_3 H27_3 1_555 1_555
O17_3 H28_3 1_555 1_555
O13_3 H29_3 1_555 1_555
O18_3 H30_3 1_555 1_555
O18_3 H31_3 1_555 1_555
U9 O6_4 1_555 1_555
O7_4 U9 1_555 1_555
O15_4 U7_2 1_555 1_555
O17_4 U7_2 1_555 1_555
O18_4 U7_2 1_555 1_555
O30_2 U9 1_555 1_555
O17_4 H27_4 1_555 1_555
O17_4 H28_4 1_555 1_555
O18_4 H30_4 1_555 1_555
O18_4 H31_4 1_555 1_555
P3_4 O3_4 1_555 1_555
O25_2 P3_4 1_555 1_555
O10_4 C8_4 1_555 1_555
O11_4 C8_4 1_555 1_555
C8_4 C9_4 1_555 1_555
C9_4 C10_4 1_555 1_555
C10_4 H4_4 1_555 1_555
C11_4 P3_4 1_555 1_555
C12_4 C11_4 1_555 1_555
H5_4 C12_4 1_555 1_555
C14_4 C9_4 1_555 1_555
H6_4 C14_4 1_555 1_555
P3_4 O8_4 1_555 1_555
C10_4 C11_4 1_555 1_555
C12_4 C13_4 1_555 1_555
C13_4 C14_4 1_555 1_555
O11_4 H26_4 1_555 1_555
P2_4 O30_2 1_555 1_555
O23_4 P2_4 1_555 1_555
O31_2 P2_4 1_555 1_555
O23_4 H32_4 1_555 1_555
U4 O1_4 1_555 1_555
P1_4 O27_2 1_555 1_555
P4_4 O26_2 1_555 1_555
O2_4 U4 1_555 1_555
O4_4 U4 1_555 1_555
O5_4 U4 1_555 1_555
O13_4 P4_4 1_555 1_555
O14_4 P4_4 1_555 1_555
O28_2 P1_4 1_555 1_555
O29_2 P1_4 1_555 1_555
C1_4 O4_4 1_555 1_555
C2_4 C1_4 1_555 1_555
C3_4 C2_4 1_555 1_555
H1_4 C3_4 1_555 1_555
C4_4 P1_4 1_555 1_555
C5_4 C4_4 1_555 1_555
H2_4 C5_4 1_555 1_555
C7_4 C2_4 1_555 1_555
H3_4 C7_4 1_555 1_555
O5_4 C1_4 1_555 1_555
C3_4 C4_4 1_555 1_555
C5_4 C6_4 1_555 1_555
C6_4 C7_4 1_555 1_555
O13_4 H29_4 1_555 1_555
C15 H7 1_555 1_555
C16 C15 1_555 1_555
H8 C16 1_555 1_555
C17 C16 1_555 1_555
H9 C17 1_555 1_555
C18 C17 1_555 1_555
C19 C18 1_555 1_555
C20 C19 1_555 1_555
C21 H10 1_555 1_555
C26 C18 1_555 1_555
H14 C26 1_555 1_555
N1 C15 1_555 1_555
H15 N1 1_555 1_555
N2 C20 1_555 1_555
H16 N2 1_555 1_555
C19 N1 1_555 1_555
C21 N2 1_555 1_555
H11 C22 1_555 1_555
C23 C22 1_555 1_555
H12 C23 1_555 1_555
C25 C24 1_555 1_555
H13 C25 1_555 1_555
C23 C24 1_555 1_555
C15_2 H7_2 1_555 1_555
C16_2 C15_2 1_555 1_555
C19_2 C18_2 1_555 1_555
C20_2 C19_2 1_555 1_555
C21_2 H10_2 1_555 1_555
C22_2 C21_2 1_555 1_555
H11_2 C22_2 1_555 1_555
C23_2 C22_2 1_555 1_555
H12_2 C23_2 1_555 1_555
C24_2 C20_2 1_555 1_555
C25_2 C24_2 1_555 1_555
N1_2 C15_2 1_555 1_555
H15_2 N1_2 1_555 1_555
N2_2 C20_2 1_555 1_555
H16_2 N2_2 1_555 1_555
C19_2 N1_2 1_555 1_555
C21_2 N2_2 1_555 1_555
C23_2 C24_2 1_555 1_555
H9_2 C17_2 1_555 1_555
H14_2 C26_2 1_555 1_555
H11_3 C22_3 1_555 1_555
C23_3 C22_3 1_555 1_555
H12_3 C23_3 1_555 1_555
C25_3 C24_3 1_555 1_555
H13_3 C25_3 1_555 1_555
C23_3 C24_3 1_555 1_555
C15_3 H7_3 1_555 1_555
C16_3 C15_3 1_555 1_555
H8_3 C16_3 1_555 1_555
C17_3 C16_3 1_555 1_555
H9_3 C17_3 1_555 1_555
C18_3 C17_3 1_555 1_555
C19_3 C18_3 1_555 1_555
C20_3 C19_3 1_555 1_555
C21_3 H10_3 1_555 1_555
C26_3 C18_3 1_555 1_555
H14_3 C26_3 1_555 1_555
N1_3 C15_3 1_555 1_555
H15_3 N1_3 1_555 1_555
N2_3 C20_3 1_555 1_555
H16_3 N2_3 1_555 1_555
C19_3 N1_3 1_555 1_555
C21_3 N2_3 1_555 1_555
H9_4 C17_4 1_555 1_555
H14_4 C26_4 1_555 1_555
C15_4 H7_4 1_555 1_555
C16_4 C15_4 1_555 1_555
C19_4 C18_4 1_555 1_555
C20_4 C19_4 1_555 1_555
C21_4 H10_4 1_555 1_555
C22_4 C21_4 1_555 1_555
H11_4 C22_4 1_555 1_555
C23_4 C22_4 1_555 1_555
H12_4 C23_4 1_555 1_555
C24_4 C20_4 1_555 1_555
C25_4 C24_4 1_555 1_555
N1_4 C15_4 1_555 1_555
H15_4 N1_4 1_555 1_555
N2_4 C20_4 1_555 1_555
H16_4 N2_4 1_555 1_555
C19_4 N1_4 1_555 1_555
C21_4 N2_4 1_555 1_555
C23_4 C24_4 1_555 1_555
N3 C32 1_555 1_555
C32 H20 1_555 1_555
C33 C32 1_555 1_555
H21 C33 1_555 1_555
C34 C33 1_555 1_555
H22 C34 1_555 1_555
C35 C34 1_555 1_555
C36 C31 1_555 1_555
C37 C35 1_555 1_555
H23 C37 1_555 1_555
H24 C38 1_555 1_555
N3 C36 1_555 1_555
C35 C36 1_555 1_555
C37 C38 1_555 1_555
C27 H17 1_555 1_555
C28 C27 1_555 1_555
H18 C28 1_555 1_555
C29 C28 1_555 1_555
H19 C29 1_555 1_555
C30 C29 1_555 1_555
N4 C27 1_555 1_555
H25 N4 1_555 1_555
H18_2 C28_2 1_555 1_555
C29_2 C28_2 1_555 1_555
H19_2 C29_2 1_555 1_555
C30_2 C29_2 1_555 1_555
H22_2 C34_2 1_555 1_555
C35_2 C34_2 1_555 1_555
C37_2 C35_2 1_555 1_555
H23_2 C37_2 1_555 1_555
C38_2 C30_2 1_555 1_555
H24_2 C38_2 1_555 1_555
C37_2 C38_2 1_555 1_555
C27_2 H17_2 1_555 1_555
N3_2 C32_2 1_555 1_555
C32_2 H20_2 1_555 1_555
C33_2 C32_2 1_555 1_555
H21_2 C33_2 1_555 1_555
C36_2 C31_2 1_555 1_555
N4_2 C27_2 1_555 1_555
H25_2 N4_2 1_555 1_555
C31_2 N4_2 1_555 1_555
N3_2 C36_2 1_555 1_555
C27_3 H17_3 1_555 1_555
C28_3 C27_3 1_555 1_555
H18_3 C28_3 1_555 1_555
C29_3 C28_3 1_555 1_555
H19_3 C29_3 1_555 1_555
C30_3 C29_3 1_555 1_555
N4_3 C27_3 1_555 1_555
H25_3 N4_3 1_555 1_555
N3_3 C32_3 1_555 1_555
C32_3 H20_3 1_555 1_555
C33_3 C32_3 1_555 1_555
H21_3 C33_3 1_555 1_555
C34_3 C33_3 1_555 1_555
H22_3 C34_3 1_555 1_555
C35_3 C34_3 1_555 1_555
C36_3 C31_3 1_555 1_555
C37_3 C35_3 1_555 1_555
H23_3 C37_3 1_555 1_555
H24_3 C38_3 1_555 1_555
N3_3 C36_3 1_555 1_555
C35_3 C36_3 1_555 1_555
C37_3 C38_3 1_555 1_555
C27_4 H17_4 1_555 1_555
N3_4 C32_4 1_555 1_555
C32_4 H20_4 1_555 1_555
C33_4 C32_4 1_555 1_555
H21_4 C33_4 1_555 1_555
C36_4 C31_4 1_555 1_555
N4_4 C27_4 1_555 1_555
H25_4 N4_4 1_555 1_555
C31_4 N4_4 1_555 1_555
N3_4 C36_4 1_555 1_555
H18_4 C28_4 1_555 1_555
C29_4 C28_4 1_555 1_555
H19_4 C29_4 1_555 1_555
C30_4 C29_4 1_555 1_555
H22_4 C34_4 1_555 1_555
C35_4 C34_4 1_555 1_555
C37_4 C35_4 1_555 1_555
H23_4 C37_4 1_555 1_555
C38_4 C30_4 1_555 1_555
H24_4 C38_4 1_555 1_555
C37_4 C38_4 1_555 1_555

#END
