
###############################################################################
#
# This file contains modified crystal structure data generated from the
# MOF subset of the Cambridge Structural Database (CSD) v543 
# hosted by the Cambridge Crystallographic Data Centre (CCDC).
#
# This work is licensed under the Creative Commons
# Attribution-NonCommercial-ShareAlike 4.0 International License.
# To view a copy of this license, visit
# http://creativecommons.org/licenses/by-nc-sa/4.0/
# or send a letter to
# Creative Commons, PO Box 1866, Mountain View, CA 94042, USA.
#
# CIF created using the CSD Python API on 29 September 2022
# The structure has been converted into the P1 space group
# The structure has a 3D framework
# The original CSD entry LAWFEX is in the monoclinic crystal system
# The framework has been calculated to contain at least 10.0% void space
# The void calculation uses a probe of radius 1.32A, grid spacing 0.4
#
###############################################################################

data_LAWFEX
_chemical_formula_moiety         '(C136 H80 Li8 N8 O48 Zn8)n'
_symmetry_cell_setting           triclinic
_symmetry_space_group_name_H-M   'P 1'
_symmetry_Int_Tables_number      1
_space_group_name_Hall           'P 1'
loop_
_symmetry_equiv_pos_site_id
_symmetry_equiv_pos_as_xyz
1 x,y,z
_cell_length_a                   17.0602(9)
_cell_length_b                   18.8603(9)
_cell_length_c                   16.9468(11)
_cell_angle_alpha                90
_cell_angle_beta                 113.193(7)
_cell_angle_gamma                90
_cell_volume                     5012.13
loop_
_atom_site_label
_atom_site_type_symbol
_atom_site_fract_x
_atom_site_fract_y
_atom_site_fract_z
Zn3 Zn 0.74969(2) 0.37429(2) 0.08142(2)
Zn1 Zn 0.25031(2) 0.37429(2) 0.41858(2)
Li1 Li 0.0802(3) 0.3836(2) 0.2478(3)
O1 O 0.15730(12) 0.40125(12) 0.45297(12)
O2 O 0.03434(11) 0.38547(9) 0.34013(11)
C1 C 0.07830(16) 0.41057(13) 0.41282(15)
C2 C 0.03727(15) 0.45603(14) 0.45792(15)
C3 C 0.08414(17) 0.51023(16) 0.51241(17)
H1 H 0.1420 0.5173 0.5209
O3 O 0.25173(14) 0.28411(11) 0.36914(13)
O4 O 0.13896(12) 0.29879(10) 0.24451(13)
C5 C 0.20049(17) 0.26408(14) 0.29438(17)
C6 C 0.21949(18) 0.19285(15) 0.26681(18)
C7 C 0.2871(2) 0.15232(17) 0.32199(18)
H3 H 0.3213 0.1697 0.3776
C8 C 0.3045(2) 0.08691(16) 0.29595(19)
H4 H 0.3510 0.0597 0.3336
C9 C 0.25429(19) 0.06063(15) 0.21484(19)
C10 C 0.18584(19) 0.10002(17) 0.16054(19)
H5 H 0.1500 0.0815 0.1061
C11 C 0.16952(19) 0.16632(17) 0.18542(19)
H6 H 0.1240 0.1940 0.1469
N1 N 0.34203(14) 0.36586(12) 0.53933(14)
C13 C 0.35711(19) 0.42347(15) 0.58991(19)
H7 H 0.3239 0.4649 0.5680
C14 C 0.4187(2) 0.42488(15) 0.6721(2)
H8 H 0.4284 0.4669 0.7055
C15 C 0.46668(16) 0.36429(14) 0.70591(17)
C16 C 0.45032(16) 0.30436(14) 0.65370(17)
H9 H 0.4818 0.2620 0.6744
C17 C 0.38791(16) 0.30732(14) 0.57162(17)
H10 H 0.3771 0.2662 0.5366
C21 C 0.04749(16) 0.55355(15) 0.55404(17)
H12 H 0.0803 0.5900 0.5910
N2 N 0.65797(14) 0.36586(12) 0.96067(14)
C22 C 0.64289(19) 0.42347(15) 0.91009(19)
H13 H 0.6761 0.4649 0.9320
C23 C 0.5813(2) 0.42488(15) 0.8279(2)
H14 H 0.5716 0.4669 0.7945
C24 C 0.53332(16) 0.36429(14) 0.79409(17)
C25 C 0.54968(16) 0.30436(14) 0.84630(17)
H15 H 0.5182 0.2620 0.8256
C26 C 0.61209(16) 0.30732(14) 0.92838(17)
H16 H 0.6229 0.2662 0.9634
Li6 Li 0.0802(3) 0.6164(2) 0.7478(3)
O16 O 0.28146(13) 0.46229(11) 0.37929(14)
O18 O 0.15528(14) 0.46148(11) 0.26907(14)
C12 C 0.27534(18) 0.98929(15) 0.18784(18)
O5 O 0.21854(13) 0.96229(11) 0.12071(14)
O6 O 0.34472(14) 0.96148(11) 0.23093(14)
Zn5 Zn 0.24969(2) 0.87429(2) 0.08142(2)
Li4 Li 0.4198(3) 0.8836(2) 0.2522(3)
C4 C 0.95251(16) 0.44645(15) 0.44596(17)
H2 H 0.9197 0.4100 0.4090
O7 O 0.84270(12) 0.59875(12) 0.54703(12)
O8 O 0.96566(11) 0.61453(9) 0.65987(11)
C18 C 0.92170(16) 0.58943(13) 0.58718(15)
C19 C 0.96273(15) 0.54397(14) 0.54208(15)
C20 C 0.91586(17) 0.48977(16) 0.48759(17)
H11 H 0.8580 0.4827 0.4791
Li2 Li 0.9198(3) 0.3836(2) 0.2522(3)
O9 O 0.74827(14) 0.28411(11) 0.13086(13)
O10 O 0.86104(12) 0.29879(10) 0.25549(13)
C27 C 0.79951(17) 0.26408(14) 0.20562(17)
C28 C 0.78051(18) 0.19285(15) 0.23319(18)
C29 C 0.7129(2) 0.15232(17) 0.17801(18)
H17 H 0.6787 0.1697 0.1224
C30 C 0.6955(2) 0.08691(16) 0.20405(19)
H18 H 0.6490 0.0597 0.1664
C31 C 0.74571(19) 0.06063(15) 0.28516(19)
C32 C 0.81416(19) 0.10002(17) 0.33946(19)
H19 H 0.8500 0.0815 0.3939
C33 C 0.83048(19) 0.16632(17) 0.31458(19)
H20 H 0.8760 0.1940 0.3531
Zn6 Zn 0.74969(2) 0.62571(2) 0.58142(2)
Li5 Li 0.9198(3) 0.6164(2) 0.7522(3)
O13 O 0.84270(12) 0.40125(12) 0.04703(12)
O14 O 0.96566(11) 0.38547(9) 0.15987(11)
O15 O 0.71854(13) 0.46229(11) 0.12071(14)
O17 O 0.84472(14) 0.46148(11) 0.23093(14)
C34 C 0.72466(18) 0.98929(15) 0.31216(18)
O11 O 0.78146(13) 0.96229(11) 0.37929(14)
O12 O 0.65528(14) 0.96148(11) 0.26907(14)
Zn4 Zn 0.75031(2) 0.87429(2) 0.41858(2)
Li3 Li 0.5802(3) 0.8836(2) 0.2478(3)
C4_2 C 0.04749(16) 0.44645(15) 0.05404(17)
H2_2 H 0.0803 0.4100 0.0910
C20_2 C 0.08414(17) 0.48977(16) 0.01241(17)
H11_2 H 0.1420 0.4827 0.0209
O7_2 O 0.15730(12) 0.59875(12) 0.95297(12)
O8_2 O 0.03434(11) 0.61453(9) 0.84013(11)
C18_2 C 0.07830(16) 0.58943(13) 0.91282(15)
C19_2 C 0.03727(15) 0.54397(14) 0.95792(15)
Zn6_2 Zn 0.25031(2) 0.62571(2) 0.91858(2)
C1_2 C 0.92170(16) 0.41057(13) 0.08718(15)
C2_2 C 0.96273(15) 0.45603(14) 0.04208(15)
C3_2 C 0.91586(17) 0.51023(16) 0.98759(17)
H1_2 H 0.8580 0.5173 0.9791
C21_2 C 0.95251(16) 0.55355(15) 0.94596(17)
H12_2 H 0.9197 0.5900 0.9090
C3_3 C 0.58414(17) 0.01023(16) 0.51241(17)
H1_3 H 0.6420 0.0173 0.5209
O7_3 O 0.34270(12) 0.09875(12) 0.54703(12)
O8_3 O 0.46566(11) 0.11453(9) 0.65987(11)
C18_3 C 0.42170(16) 0.08943(13) 0.58718(15)
C19_3 C 0.46273(15) 0.04397(14) 0.54208(15)
C21_3 C 0.54749(16) 0.05355(15) 0.55404(17)
H12_3 H 0.5803 0.0900 0.5910
Zn6_3 Zn 0.24969(2) 0.12571(2) 0.58142(2)
Li5_2 Li 0.4198(3) 0.1164(2) 0.7522(3)
Li6_2 Li 0.5802(3) 0.1164(2) 0.7478(3)
O1_2 O 0.65730(12) 0.90125(12) 0.45297(12)
O2_2 O 0.53434(11) 0.88547(9) 0.34013(11)
C1_3 C 0.57830(16) 0.91057(13) 0.41282(15)
C2_3 C 0.53727(15) 0.95603(14) 0.45792(15)
C4_3 C 0.45251(16) 0.94645(15) 0.44596(17)
H2_3 H 0.4197 0.9100 0.4090
O3_2 O 0.75173(14) 0.78411(11) 0.36914(13)
O4_2 O 0.63896(12) 0.79879(10) 0.24451(13)
C5_2 C 0.70049(17) 0.76408(14) 0.29438(17)
C6_2 C 0.71949(18) 0.69285(15) 0.26681(18)
C7_2 C 0.7871(2) 0.65232(17) 0.32199(18)
H3_2 H 0.8213 0.6697 0.3776
C8_2 C 0.8045(2) 0.58691(16) 0.29595(19)
H4_2 H 0.8510 0.5597 0.3336
C9_2 C 0.75429(19) 0.56063(15) 0.21484(19)
C10_2 C 0.68584(19) 0.60002(17) 0.16054(19)
H5_2 H 0.6500 0.5815 0.1061
C11_2 C 0.66952(19) 0.66632(17) 0.18542(19)
H6_2 H 0.6240 0.6940 0.1469
C12_2 C 0.77534(18) 0.48929(15) 0.18784(18)
N1_2 N 0.84203(14) 0.86586(12) 0.53933(14)
C13_2 C 0.85711(19) 0.92347(15) 0.58991(19)
H7_2 H 0.8239 0.9649 0.5680
C14_2 C 0.9187(2) 0.92488(15) 0.6721(2)
H8_2 H 0.9284 0.9669 0.7055
C15_2 C 0.96668(16) 0.86429(14) 0.70591(17)
C16_2 C 0.95032(16) 0.80436(14) 0.65370(17)
H9_2 H 0.9818 0.7620 0.6744
C17_2 C 0.88791(16) 0.80732(14) 0.57162(17)
H10_2 H 0.8771 0.7662 0.5366
C20_3 C 0.41586(17) 0.98977(16) 0.48759(17)
H11_3 H 0.3580 0.9827 0.4791
O9_2 O 0.24827(14) 0.78411(11) 0.13086(13)
O10_2 O 0.36104(12) 0.79879(10) 0.25549(13)
C27_2 C 0.29951(17) 0.76408(14) 0.20562(17)
C28_2 C 0.28051(18) 0.69285(15) 0.23319(18)
C29_2 C 0.2129(2) 0.65232(17) 0.17801(18)
H17_2 H 0.1787 0.6697 0.1224
C30_2 C 0.1955(2) 0.58691(16) 0.20405(19)
H18_2 H 0.1490 0.5597 0.1664
C31_2 C 0.24571(19) 0.56063(15) 0.28516(19)
C32_2 C 0.31416(19) 0.60002(17) 0.33946(19)
H19_2 H 0.3500 0.5815 0.3939
C33_2 C 0.33048(19) 0.66632(17) 0.31458(19)
H20_2 H 0.3760 0.6940 0.3531
C34_2 C 0.22466(18) 0.48929(15) 0.31216(18)
O13_2 O 0.34270(12) 0.90125(12) 0.04703(12)
O14_2 O 0.46566(11) 0.88547(9) 0.15987(11)
C3_4 C 0.41586(17) 0.01023(16) 0.98759(17)
H1_4 H 0.3580 0.0173 0.9791
O7_4 O 0.65730(12) 0.09875(12) 0.95297(12)
O8_4 O 0.53434(11) 0.11453(9) 0.84013(11)
C18_4 C 0.57830(16) 0.08943(13) 0.91282(15)
C19_4 C 0.53727(15) 0.04397(14) 0.95792(15)
C21_4 C 0.45251(16) 0.05355(15) 0.94596(17)
H12_4 H 0.4197 0.0900 0.9090
Zn6_4 Zn 0.75031(2) 0.12571(2) 0.91858(2)
C1_4 C 0.42170(16) 0.91057(13) 0.08718(15)
C2_4 C 0.46273(15) 0.95603(14) 0.04208(15)
C4_4 C 0.54749(16) 0.94645(15) 0.05404(17)
H2_4 H 0.5803 0.9100 0.0910
C20_4 C 0.58414(17) 0.98977(16) 0.01241(17)
H11_4 H 0.6420 0.9827 0.0209
C34_3 C 0.27534(18) 0.01071(15) 0.68784(18)
O11_2 O 0.21854(13) 0.03771(11) 0.62071(14)
O12_2 O 0.34472(14) 0.03852(11) 0.73093(14)
N3 N 0.34203(14) 0.63414(12) 0.03933(14)
O9_3 O 0.25173(14) 0.71589(11) 0.86914(13)
O10_3 O 0.13896(12) 0.70121(10) 0.74451(13)
C27_3 C 0.20049(17) 0.73592(14) 0.79438(17)
C28_3 C 0.21949(18) 0.80715(15) 0.76681(18)
C29_3 C 0.2871(2) 0.84768(17) 0.82199(18)
H17_3 H 0.3213 0.8303 0.8776
C30_3 C 0.3045(2) 0.91309(16) 0.79595(19)
H18_3 H 0.3510 0.9403 0.8336
C31_3 C 0.25429(19) 0.93937(15) 0.71484(19)
C32_3 C 0.18584(19) 0.89998(17) 0.66054(19)
H19_3 H 0.1500 0.9185 0.6061
C33_3 C 0.16952(19) 0.83368(17) 0.68542(19)
H20_3 H 0.1240 0.8060 0.6469
O15_2 O 0.28146(13) 0.53771(11) 0.87929(14)
O17_2 O 0.15528(14) 0.53852(11) 0.76907(14)
C12_3 C 0.72466(18) 0.01071(15) 0.81216(18)
O5_2 O 0.78146(13) 0.03771(11) 0.87929(14)
O6_2 O 0.65528(14) 0.03852(11) 0.76907(14)
O3_3 O 0.74827(14) 0.71589(11) 0.63086(13)
O4_3 O 0.86104(12) 0.70121(10) 0.75549(13)
C5_3 C 0.79951(17) 0.73592(14) 0.70562(17)
C6_3 C 0.78051(18) 0.80715(15) 0.73319(18)
C7_3 C 0.7129(2) 0.84768(17) 0.67801(18)
H3_3 H 0.6787 0.8303 0.6224
C8_3 C 0.6955(2) 0.91309(16) 0.70405(19)
H4_3 H 0.6490 0.9403 0.6664
C9_3 C 0.74571(19) 0.93937(15) 0.78516(19)
C10_3 C 0.81416(19) 0.89998(17) 0.83946(19)
H5_3 H 0.8500 0.9185 0.8939
C11_3 C 0.83048(19) 0.83368(17) 0.81458(19)
H6_3 H 0.8760 0.8060 0.8531
N1_3 N 0.65797(14) 0.63414(12) 0.46067(14)
C13_3 C 0.64289(19) 0.57653(15) 0.41009(19)
H7_3 H 0.6761 0.5351 0.4320
C14_3 C 0.5813(2) 0.57512(15) 0.3279(2)
H8_3 H 0.5716 0.5331 0.2945
C15_3 C 0.53332(16) 0.63571(14) 0.29409(17)
C16_3 C 0.54968(16) 0.69564(14) 0.34630(17)
H9_3 H 0.5182 0.7380 0.3256
C17_3 C 0.61209(16) 0.69268(14) 0.42838(17)
H10_3 H 0.6229 0.7338 0.4634
C22_2 C 0.35711(19) 0.57653(15) 0.08991(19)
H13_2 H 0.3239 0.5351 0.0680
C23_2 C 0.4187(2) 0.57512(15) 0.1721(2)
H14_2 H 0.4284 0.5331 0.2055
C24_2 C 0.46668(16) 0.63571(14) 0.20591(17)
C25_2 C 0.45032(16) 0.69564(14) 0.15370(17)
H15_2 H 0.4818 0.7380 0.1744
C26_2 C 0.38791(16) 0.69268(14) 0.07162(17)
H16_2 H 0.3771 0.7338 0.0366
O16_2 O 0.71854(13) 0.53771(11) 0.62071(14)
O18_2 O 0.84472(14) 0.53852(11) 0.73093(14)
O3_4 O 0.24827(14) 0.21589(11) 0.63086(13)
O4_4 O 0.36104(12) 0.20121(10) 0.75549(13)
C5_4 C 0.29951(17) 0.23592(14) 0.70562(17)
C6_4 C 0.28051(18) 0.30715(15) 0.73319(18)
C7_4 C 0.2129(2) 0.34768(17) 0.67801(18)
H3_4 H 0.1787 0.3303 0.6224
C8_4 C 0.1955(2) 0.41309(16) 0.70405(19)
H4_4 H 0.1490 0.4403 0.6664
C9_4 C 0.24571(19) 0.43937(15) 0.78516(19)
C10_4 C 0.31416(19) 0.39998(17) 0.83946(19)
H5_4 H 0.3500 0.4185 0.8939
C11_4 C 0.33048(19) 0.33368(17) 0.81458(19)
H6_4 H 0.3760 0.3060 0.8531
C12_4 C 0.22466(18) 0.51071(15) 0.81216(18)
N1_4 N 0.15797(14) 0.13414(12) 0.46067(14)
C13_4 C 0.14289(19) 0.07653(15) 0.41009(19)
H7_4 H 0.1761 0.0351 0.4320
C14_4 C 0.0813(2) 0.07512(15) 0.3279(2)
H8_4 H 0.0716 0.0331 0.2945
C15_4 C 0.03332(16) 0.13571(14) 0.29409(17)
C16_4 C 0.04968(16) 0.19564(14) 0.34630(17)
H9_4 H 0.0182 0.2380 0.3256
C17_4 C 0.11209(16) 0.19268(14) 0.42838(17)
H10_4 H 0.1229 0.2338 0.4634
O9_4 O 0.75173(14) 0.21589(11) 0.86914(13)
O10_4 O 0.63896(12) 0.20121(10) 0.74451(13)
C27_4 C 0.70049(17) 0.23592(14) 0.79438(17)
C28_4 C 0.71949(18) 0.30715(15) 0.76681(18)
C29_4 C 0.7871(2) 0.34768(17) 0.82199(18)
H17_4 H 0.8213 0.3303 0.8776
C30_4 C 0.8045(2) 0.41309(16) 0.79595(19)
H18_4 H 0.8510 0.4403 0.8336
C31_4 C 0.75429(19) 0.43937(15) 0.71484(19)
C32_4 C 0.68584(19) 0.39998(17) 0.66054(19)
H19_4 H 0.6500 0.4185 0.6061
C33_4 C 0.66952(19) 0.33368(17) 0.68542(19)
H20_4 H 0.6240 0.3060 0.6469
C34_4 C 0.77534(18) 0.51071(15) 0.68784(18)
N2_2 N 0.15797(14) 0.86586(12) 0.96067(14)
C22_3 C 0.14289(19) 0.92347(15) 0.91009(19)
H13_3 H 0.1761 0.9649 0.9320
C23_3 C 0.0813(2) 0.92488(15) 0.8279(2)
H14_3 H 0.0716 0.9669 0.7945
C24_3 C 0.03332(16) 0.86429(14) 0.79409(17)
C25_3 C 0.04968(16) 0.80436(14) 0.84630(17)
H15_3 H 0.0182 0.7620 0.8256
C26_3 C 0.11209(16) 0.80732(14) 0.92838(17)
H16_3 H 0.1229 0.7662 0.9634
N3_2 N 0.84203(14) 0.13414(12) 0.03933(14)
C22_4 C 0.85711(19) 0.07653(15) 0.08991(19)
H13_4 H 0.8239 0.0351 0.0680
C23_4 C 0.9187(2) 0.07512(15) 0.1721(2)
H14_4 H 0.9284 0.0331 0.2055
C24_4 C 0.96668(16) 0.13571(14) 0.20591(17)
C25_4 C 0.95032(16) 0.19564(14) 0.15370(17)
H15_4 H 0.9818 0.2380 0.1744
C26_4 C 0.88791(16) 0.19268(14) 0.07162(17)
H16_4 H 0.8771 0.2338 0.0366
loop_
_geom_bond_atom_site_label_1
_geom_bond_atom_site_label_2
_geom_bond_site_symmetry_1
_geom_bond_site_symmetry_2
Zn1 O1 1_555 1_555
Li1 O2 1_555 1_555
O1 C1 1_555 1_555
O2 C1 1_555 1_555
C1 C2 1_555 1_555
C2 C3 1_555 1_555
C3 H1 1_555 1_555
O3 Zn1 1_555 1_555
O4 Li1 1_555 1_555
C5 O3 1_555 1_555
C6 C5 1_555 1_555
C7 C6 1_555 1_555
H3 C7 1_555 1_555
C8 C7 1_555 1_555
H4 C8 1_555 1_555
C9 C8 1_555 1_555
C10 C9 1_555 1_555
H5 C10 1_555 1_555
C11 C6 1_555 1_555
H6 C11 1_555 1_555
N1 Zn1 1_555 1_555
C13 N1 1_555 1_555
H7 C13 1_555 1_555
C14 C13 1_555 1_555
H8 C14 1_555 1_555
C15 C14 1_555 1_555
C16 C15 1_555 1_555
H9 C16 1_555 1_555
C17 N1 1_555 1_555
H10 C17 1_555 1_555
C21 C3 1_555 1_555
H12 C21 1_555 1_555
N2 C22 1_555 1_555
C22 H13 1_555 1_555
C23 C22 1_555 1_555
H14 C23 1_555 1_555
C24 C15 1_555 1_555
C25 C24 1_555 1_555
H15 C25 1_555 1_555
C26 N2 1_555 1_555
H16 C26 1_555 1_555
O16 Zn1 1_555 1_555
O18 Li1 1_555 1_555
O4 C5 1_555 1_555
C10 C11 1_555 1_555
C16 C17 1_555 1_555
C23 C24 1_555 1_555
C25 C26 1_555 1_555
O5 C12 1_555 1_555
O6 C12 1_555 1_555
Zn5 O5 1_555 1_555
Li4 O6 1_555 1_555
H2 C4 1_555 1_555
O7 C18 1_555 1_555
O8 C18 1_555 1_555
C18 C19 1_555 1_555
C19 C20 1_555 1_555
C20 C4 1_555 1_555
H11 C20 1_555 1_555
Zn3 O9 1_555 1_555
O9 C27 1_555 1_555
O10 Li2 1_555 1_555
C27 O10 1_555 1_555
C28 C27 1_555 1_555
C29 C28 1_555 1_555
H17 C29 1_555 1_555
C30 C29 1_555 1_555
H18 C30 1_555 1_555
C31 C30 1_555 1_555
C32 C31 1_555 1_555
H19 C32 1_555 1_555
C33 C28 1_555 1_555
H20 C33 1_555 1_555
Zn6 O7 1_555 1_555
Li5 O8 1_555 1_555
O13 Zn3 1_555 1_555
O15 Zn3 1_555 1_555
O17 Li2 1_555 1_555
Li2 O14 1_555 1_555
C32 C33 1_555 1_555
O11 C34 1_555 1_555
O12 C34 1_555 1_555
Zn4 O11 1_555 1_555
Li3 O12 1_555 1_555
H2_2 C4_2 1_555 1_555
C20_2 C4_2 1_555 1_555
H11_2 C20_2 1_555 1_555
O7_2 C18_2 1_555 1_555
O8_2 C18_2 1_555 1_555
C18_2 C19_2 1_555 1_555
Zn6_2 O7_2 1_555 1_555
Li6 O8_2 1_555 1_555
O13 C1_2 1_555 1_555
O14 C1_2 1_555 1_555
C1_2 C2_2 1_555 1_555
C3_2 H1_2 1_555 1_555
C21_2 C3_2 1_555 1_555
H12_2 C21_2 1_555 1_555
C3_3 H1_3 1_555 1_555
O7_3 C18_3 1_555 1_555
O8_3 C18_3 1_555 1_555
C18_3 C19_3 1_555 1_555
C21_3 C3_3 1_555 1_555
H12_3 C21_3 1_555 1_555
Zn6_3 O7_3 1_555 1_555
Li5_2 O8_3 1_555 1_555
Li6_2 O8_3 1_555 1_555
C19_3 C21_3 1_555 1_555
Zn4 O1_2 1_555 1_555
Li3 O2_2 1_555 1_555
O1_2 C1_3 1_555 1_555
O2_2 C1_3 1_555 1_555
C1_3 C2_3 1_555 1_555
C4_3 C2_3 1_555 1_555
H2_3 C4_3 1_555 1_555
O3_2 Zn4 1_555 1_555
O4_2 Li3 1_555 1_555
C5_2 O3_2 1_555 1_555
C6_2 C5_2 1_555 1_555
C7_2 C6_2 1_555 1_555
H3_2 C7_2 1_555 1_555
C8_2 C7_2 1_555 1_555
H4_2 C8_2 1_555 1_555
C9_2 C8_2 1_555 1_555
C10_2 C9_2 1_555 1_555
H5_2 C10_2 1_555 1_555
C11_2 C6_2 1_555 1_555
H6_2 C11_2 1_555 1_555
C12_2 C9_2 1_555 1_555
O15 C12_2 1_555 1_555
O17 C12_2 1_555 1_555
N1_2 Zn4 1_555 1_555
C13_2 N1_2 1_555 1_555
H7_2 C13_2 1_555 1_555
C14_2 C13_2 1_555 1_555
H8_2 C14_2 1_555 1_555
C15_2 C14_2 1_555 1_555
C16_2 C15_2 1_555 1_555
H9_2 C16_2 1_555 1_555
C17_2 N1_2 1_555 1_555
H10_2 C17_2 1_555 1_555
C20_3 C4_3 1_555 1_555
H11_3 C20_3 1_555 1_555
Zn5 O9_2 1_555 1_555
Li4 O2_2 1_555 1_555
O9_2 C27_2 1_555 1_555
O10_2 Li4 1_555 1_555
C27_2 O10_2 1_555 1_555
C28_2 C27_2 1_555 1_555
C29_2 C28_2 1_555 1_555
H17_2 C29_2 1_555 1_555
C30_2 C29_2 1_555 1_555
H18_2 C30_2 1_555 1_555
C31_2 C30_2 1_555 1_555
C32_2 C31_2 1_555 1_555
H19_2 C32_2 1_555 1_555
C33_2 C28_2 1_555 1_555
H20_2 C33_2 1_555 1_555
C34_2 C31_2 1_555 1_555
O16 C34_2 1_555 1_555
O18 C34_2 1_555 1_555
O13_2 Zn5 1_555 1_555
O14_2 Li3 1_555 1_555
O4_2 C5_2 1_555 1_555
C10_2 C11_2 1_555 1_555
C16_2 C17_2 1_555 1_555
Li4 O14_2 1_555 1_555
C32_2 C33_2 1_555 1_555
C3_4 H1_4 1_555 1_555
O7_4 C18_4 1_555 1_555
O8_4 C18_4 1_555 1_555
C18_4 C19_4 1_555 1_555
C21_4 C3_4 1_555 1_555
H12_4 C21_4 1_555 1_555
Zn6_4 O7_4 1_555 1_555
Li6_2 O8_4 1_555 1_555
Li5_2 O8_4 1_555 1_555
C19_4 C21_4 1_555 1_555
O13_2 C1_4 1_555 1_555
O14_2 C1_4 1_555 1_555
C1_4 C2_4 1_555 1_555
C4_4 C2_4 1_555 1_555
H2_4 C4_4 1_555 1_555
C20_4 C4_4 1_555 1_555
H11_4 C20_4 1_555 1_555
O11_2 C34_3 1_555 1_555
O12_2 C34_3 1_555 1_555
Zn6_3 O11_2 1_555 1_555
Li5_2 O12_2 1_555 1_555
Zn6_2 O9_3 1_555 1_555
O9_3 C27_3 1_555 1_555
O10_3 Li6 1_555 1_555
C27_3 O10_3 1_555 1_555
C28_3 C27_3 1_555 1_555
C29_3 C28_3 1_555 1_555
H17_3 C29_3 1_555 1_555
C30_3 C29_3 1_555 1_555
H18_3 C30_3 1_555 1_555
C31_3 C30_3 1_555 1_555
C32_3 C31_3 1_555 1_555
H19_3 C32_3 1_555 1_555
C33_3 C28_3 1_555 1_555
H20_3 C33_3 1_555 1_555
O15_2 Zn6_2 1_555 1_555
O17_2 Li6 1_555 1_555
C32_3 C33_3 1_555 1_555
O5_2 C12_3 1_555 1_555
O6_2 C12_3 1_555 1_555
Zn6_4 O5_2 1_555 1_555
Li6_2 O6_2 1_555 1_555
O3_3 Zn6 1_555 1_555
O4_3 Li5 1_555 1_555
C5_3 O3_3 1_555 1_555
C6_3 C5_3 1_555 1_555
C7_3 C6_3 1_555 1_555
H3_3 C7_3 1_555 1_555
C8_3 C7_3 1_555 1_555
H4_3 C8_3 1_555 1_555
C9_3 C8_3 1_555 1_555
C10_3 C9_3 1_555 1_555
H5_3 C10_3 1_555 1_555
C11_3 C6_3 1_555 1_555
H6_3 C11_3 1_555 1_555
N1_3 Zn6 1_555 1_555
C13_3 N1_3 1_555 1_555
H7_3 C13_3 1_555 1_555
C14_3 C13_3 1_555 1_555
H8_3 C14_3 1_555 1_555
C15_3 C14_3 1_555 1_555
C16_3 C15_3 1_555 1_555
H9_3 C16_3 1_555 1_555
C17_3 N1_3 1_555 1_555
H10_3 C17_3 1_555 1_555
N3 C22_2 1_555 1_555
C22_2 H13_2 1_555 1_555
C23_2 C22_2 1_555 1_555
H14_2 C23_2 1_555 1_555
C24_2 C15_3 1_555 1_555
C25_2 C24_2 1_555 1_555
H15_2 C25_2 1_555 1_555
C26_2 N3 1_555 1_555
H16_2 C26_2 1_555 1_555
O16_2 Zn6 1_555 1_555
O18_2 Li5 1_555 1_555
O4_3 C5_3 1_555 1_555
C10_3 C11_3 1_555 1_555
C16_3 C17_3 1_555 1_555
C23_2 C24_2 1_555 1_555
C25_2 C26_2 1_555 1_555
O3_4 Zn6_3 1_555 1_555
O4_4 Li5_2 1_555 1_555
C5_4 O3_4 1_555 1_555
C6_4 C5_4 1_555 1_555
C7_4 C6_4 1_555 1_555
H3_4 C7_4 1_555 1_555
C8_4 C7_4 1_555 1_555
H4_4 C8_4 1_555 1_555
C9_4 C8_4 1_555 1_555
C10_4 C9_4 1_555 1_555
H5_4 C10_4 1_555 1_555
C11_4 C6_4 1_555 1_555
H6_4 C11_4 1_555 1_555
C12_4 C9_4 1_555 1_555
O15_2 C12_4 1_555 1_555
O17_2 C12_4 1_555 1_555
N1_4 Zn6_3 1_555 1_555
C13_4 N1_4 1_555 1_555
H7_4 C13_4 1_555 1_555
C14_4 C13_4 1_555 1_555
H8_4 C14_4 1_555 1_555
C15_4 C14_4 1_555 1_555
C16_4 C15_4 1_555 1_555
H9_4 C16_4 1_555 1_555
C17_4 N1_4 1_555 1_555
H10_4 C17_4 1_555 1_555
Zn6_4 O9_4 1_555 1_555
O9_4 C27_4 1_555 1_555
O10_4 Li6_2 1_555 1_555
C27_4 O10_4 1_555 1_555
C28_4 C27_4 1_555 1_555
C29_4 C28_4 1_555 1_555
H17_4 C29_4 1_555 1_555
C30_4 C29_4 1_555 1_555
H18_4 C30_4 1_555 1_555
C31_4 C30_4 1_555 1_555
C32_4 C31_4 1_555 1_555
H19_4 C32_4 1_555 1_555
C33_4 C28_4 1_555 1_555
H20_4 C33_4 1_555 1_555
C34_4 C31_4 1_555 1_555
O16_2 C34_4 1_555 1_555
O18_2 C34_4 1_555 1_555
O4_4 C5_4 1_555 1_555
C10_4 C11_4 1_555 1_555
C16_4 C17_4 1_555 1_555
C32_4 C33_4 1_555 1_555
N2_2 C22_3 1_555 1_555
C22_3 H13_3 1_555 1_555
C23_3 C22_3 1_555 1_555
H14_3 C23_3 1_555 1_555
C25_3 C24_3 1_555 1_555
H15_3 C25_3 1_555 1_555
C26_3 N2_2 1_555 1_555
H16_3 C26_3 1_555 1_555
C23_3 C24_3 1_555 1_555
C25_3 C26_3 1_555 1_555
N3_2 C22_4 1_555 1_555
C22_4 H13_4 1_555 1_555
C23_4 C22_4 1_555 1_555
H14_4 C23_4 1_555 1_555
C25_4 C24_4 1_555 1_555
H15_4 C25_4 1_555 1_555
C26_4 N3_2 1_555 1_555
H16_4 C26_4 1_555 1_555
C23_4 C24_4 1_555 1_555
C25_4 C26_4 1_555 1_555

#END
