
###############################################################################
#
# This file contains modified crystal structure data generated from the
# MOF subset of the Cambridge Structural Database (CSD) v543 
# hosted by the Cambridge Crystallographic Data Centre (CCDC).
#
# This work is licensed under the Creative Commons
# Attribution-NonCommercial-ShareAlike 4.0 International License.
# To view a copy of this license, visit
# http://creativecommons.org/licenses/by-nc-sa/4.0/
# or send a letter to
# Creative Commons, PO Box 1866, Mountain View, CA 94042, USA.
#
# CIF created using the CSD Python API on 29 September 2022
# The structure has been converted into the P1 space group
# The structure has a 3D framework
# The original CSD entry LAWHOJ is in the rhombohedral crystal system
# The framework has been calculated to contain at least 10.0% void space
# The void calculation uses a probe of radius 1.32A, grid spacing 0.4
#
###############################################################################

data_LAWHOJ
_chemical_formula_moiety         '(C144 H36 Cd18 N36 O72 S24)n'
_symmetry_cell_setting           triclinic
_symmetry_space_group_name_H-M   'P 1'
_symmetry_Int_Tables_number      1
_space_group_name_Hall           'P 1'
loop_
_symmetry_equiv_pos_site_id
_symmetry_equiv_pos_as_xyz
1 x,y,z
_cell_length_a                   19.676(3)
_cell_length_b                   19.676(3)
_cell_length_c                   19.300(4)
_cell_angle_alpha                90
_cell_angle_beta                 90
_cell_angle_gamma                120
_cell_volume                     6470.85
loop_
_atom_site_label
_atom_site_type_symbol
_atom_site_fract_x
_atom_site_fract_y
_atom_site_fract_z
Cd1 Cd 0.11008(2) 0.12701(2) 0.58647(2)
N1 N 0.20281(19) 0.17458(18) 0.67679(17)
N2 N 0.3116(2) 0.26615(19) 0.75247(18)
O1 O 0.10011(14) 0.01430(14) 0.63600(13)
O3 O 0.40030(16) 0.26078(16) 0.88080(14)
O4 O 0.47875(14) 0.22720(14) 0.82871(13)
S1 S 0.24743(8) 0.26554(6) 0.70089(7)
S2 S 0.0000 0.0000 0.5000
C2 C 0.2160(2) 0.0589(2) 0.70618(18)
C3 C 0.2601(2) 0.0365(2) 0.7445(2)
C4 C 0.3248(2) 0.0900(2) 0.7858(2)
H2 H 0.3539 0.0721 0.8097
C5 C 0.3452(2) 0.1669(2) 0.79102(18)
C6 C 0.3003(2) 0.1927(2) 0.75348(18)
C7 C 0.23661(19) 0.13901(19) 0.71028(17)
C8 C 0.41227(19) 0.22252(19) 0.83619(18)
O6 O 0.06918(16) 0.20879(24) 0.65998(17)
C9 C 0.0026(2) 0.1508(3) 0.66480(19)
H3 H 0.0158 0.2630 0.7436
Cd5 Cd 0.12701(2) 0.01693(3) 0.41353(2)
S6 S 0.26554(6) 0.01811(10) 0.29911(7)
N11 N 0.02823(26) 0.20281(19) 0.32321(17)
N12 N 0.04545(28) 0.3116(2) 0.24753(18)
O21 O 0.08581(20) 0.10011(14) 0.36400(13)
O22 O 0.20879(24) 0.13961(18) 0.34002(17)
O23 O 0.13952(23) 0.40030(16) 0.11920(14)
O24 O 0.25155(20) 0.47875(14) 0.17129(13)
C41 C 0.1508(3) 0.1482(2) 0.33520(19)
C42 C 0.1571(3) 0.2160(2) 0.29382(18)
C43 C 0.2236(3) 0.2601(2) 0.2555(2)
H11 H 0.2630 0.2472 0.2564
C44 C 0.2348(3) 0.3248(2) 0.2142(2)
H12 H 0.2818 0.3539 0.1903
C45 C 0.1783(3) 0.3452(2) 0.20898(18)
C46 C 0.1076(3) 0.3003(2) 0.24652(18)
C47 C 0.09760(27) 0.23661(19) 0.28972(17)
C48 C 0.18975(27) 0.41227(19) 0.16381(18)
Cd8 Cd 0.53966(2) 0.31640(3) 0.91980(2)
Cd12 Cd 0.35026(3) 0.55659(2) 0.25314(2)
Cd13 Cd 0.55659(2) 0.20632(2) 0.74686(2)
Cd16 Cd 0.22325(2) 0.53966(2) 0.08020(2)
O27 O 0.19381(23) 0.26637(16) 0.54747(14)
O28 O 0.26637(16) 0.07255(16) 0.45253(14)
O33 O 0.08178(20) 0.18792(14) 0.49538(13)
O34 O 0.18792(14) 0.10613(14) 0.50462(13)
O2 O 0.13961(18) 0.93082(16) 0.65998(17)
S2_2 S -0.0000 1.0000 0.5000
C1 C 0.1482(2) 0.9974(2) 0.66480(19)
H1 H 0.2472 0.9842 0.7436
Cd3 Cd 0.01693(3) 0.88992(2) 0.58647(2)
S4 S 0.01811(10) 0.75257(8) 0.70089(7)
N9 N 0.17458(18) 0.97177(26) 0.32321(17)
N10 N 0.26615(19) 0.95455(28) 0.24753(18)
O17 O 0.01430(14) 0.91419(20) 0.36400(13)
O19 O 0.26078(16) 0.86048(23) 0.11920(14)
O20 O 0.22720(14) 0.74845(20) 0.17129(13)
C34 C 0.0589(2) 0.8429(3) 0.29382(18)
C35 C 0.0365(2) 0.7764(3) 0.2555(2)
C36 C 0.0900(2) 0.7652(3) 0.2142(2)
H10 H 0.0721 0.7182 0.1903
C37 C 0.1669(2) 0.8217(3) 0.20898(18)
C38 C 0.1927(2) 0.8924(3) 0.24652(18)
C39 C 0.13901(19) 0.90240(27) 0.28972(17)
C40 C 0.22252(19) 0.81025(27) 0.16381(18)
Cd11 Cd 0.20632(2) 0.64974(3) 0.25314(2)
Cd18 Cd 0.31640(3) 0.77675(2) 0.08020(2)
O26 O 0.07255(16) 0.80619(23) 0.54747(14)
O32 O 0.10613(14) 0.91822(20) 0.49538(13)
S2_3 S 1.0000 0.0000 0.5000
N3 N 0.82542(18) 0.02823(26) 0.67679(17)
N4 N 0.73385(19) 0.04545(28) 0.75247(18)
O5 O 0.98570(14) 0.08581(20) 0.63600(13)
O7 O 0.73922(16) 0.13952(23) 0.88080(14)
O8 O 0.77280(14) 0.25155(20) 0.82871(13)
C10 C 0.9411(2) 0.1571(3) 0.70618(18)
C11 C 0.9635(2) 0.2236(3) 0.7445(2)
C12 C 0.9100(2) 0.2348(3) 0.7858(2)
H4 H 0.9279 0.2818 0.8097
C13 C 0.8331(2) 0.1783(3) 0.79102(18)
C14 C 0.8073(2) 0.1076(3) 0.75348(18)
C15 C 0.86099(19) 0.09760(27) 0.71028(17)
C16 C 0.77748(19) 0.18975(27) 0.83619(18)
O14 O 0.86039(18) 0.06918(16) 0.34002(17)
C25 C 0.8518(2) 0.0026(2) 0.33520(19)
H7 H 0.7528 0.0158 0.2564
Cd6 Cd 0.98307(3) 0.11008(2) 0.41353(2)
S7 S 0.98189(10) 0.24743(8) 0.29911(7)
Cd9 Cd 0.68360(3) 0.22325(2) 0.91980(2)
Cd14 Cd 0.79368(2) 0.35026(3) 0.74686(2)
O29 O 0.92745(16) 0.19381(23) 0.45253(14)
O35 O 0.89387(14) 0.08178(20) 0.50462(13)
S2_4 S 1.0000 1.0000 0.5000
Cd2 Cd 0.87299(2) 0.98307(3) 0.58647(2)
S3 S 0.73446(6) 0.98189(10) 0.70089(7)
N5 N 0.97177(26) 0.79719(19) 0.67679(17)
N6 N 0.95455(28) 0.6884(2) 0.75247(18)
O9 O 0.91419(20) 0.89989(14) 0.63600(13)
O10 O 0.79121(24) 0.86039(18) 0.65998(17)
O11 O 0.86048(23) 0.59970(16) 0.88080(14)
O12 O 0.74845(20) 0.52125(14) 0.82871(13)
C17 C 0.8492(3) 0.8518(2) 0.66480(19)
C18 C 0.8429(3) 0.7840(2) 0.70618(18)
C19 C 0.7764(3) 0.7399(2) 0.7445(2)
H5 H 0.7370 0.7528 0.7436
C20 C 0.7652(3) 0.6752(2) 0.7858(2)
H6 H 0.7182 0.6461 0.8097
C21 C 0.8217(3) 0.6548(2) 0.79102(18)
C22 C 0.8924(3) 0.6997(2) 0.75348(18)
C23 C 0.90240(27) 0.76339(19) 0.71028(17)
C24 C 0.81025(27) 0.58773(19) 0.83619(18)
Cd4 Cd 0.88992(2) 0.87299(2) 0.41353(2)
N7 N 0.79719(19) 0.82542(18) 0.32321(17)
N8 N 0.6884(2) 0.73385(19) 0.24753(18)
O13 O 0.89989(14) 0.98570(14) 0.36400(13)
O15 O 0.59970(16) 0.73922(16) 0.11920(14)
O16 O 0.52125(14) 0.77280(14) 0.17129(13)
S5 S 0.75257(8) 0.73446(6) 0.29911(7)
C26 C 0.7840(2) 0.9411(2) 0.29382(18)
C27 C 0.7399(2) 0.9635(2) 0.2555(2)
C28 C 0.6752(2) 0.9100(2) 0.2142(2)
H8 H 0.6461 0.9279 0.1903
C29 C 0.6548(2) 0.8331(2) 0.20898(18)
C30 C 0.6997(2) 0.8073(2) 0.24652(18)
C31 C 0.76339(19) 0.86099(19) 0.28972(17)
C32 C 0.58773(19) 0.77748(19) 0.16381(18)
O18 O 0.93082(16) 0.79121(24) 0.34002(17)
C33 C 0.9974(2) 0.8492(3) 0.33520(19)
H9 H 0.9842 0.7370 0.2564
Cd7 Cd 0.77675(2) 0.46034(2) 0.91980(2)
Cd10 Cd 0.44341(2) 0.79368(2) 0.25314(2)
Cd15 Cd 0.64974(3) 0.44341(2) 0.74686(2)
Cd17 Cd 0.46034(2) 0.68360(3) 0.08020(2)
O25 O 0.73363(16) 0.92745(16) 0.54747(14)
O30 O 0.80619(23) 0.73363(16) 0.45253(14)
O31 O 0.81208(14) 0.89387(14) 0.49538(13)
O36 O 0.91822(20) 0.81208(14) 0.50462(13)
O3_2 O 0.06697(16) 0.59411(16) 0.21413(14)
O4_2 O 0.14542(14) 0.56053(14) 0.16204(13)
H2_2 H 0.0206 0.4054 0.1430
C5_2 C 0.0119(2) 0.5002(2) 0.12435(18)
C8_2 C 0.07894(19) 0.55585(19) 0.16952(18)
N1_2 N 0.86948(19) 0.50791(18) 0.01012(17)
N2_2 N 0.9783(2) 0.59948(19) 0.08580(18)
S1_2 S 0.91410(8) 0.59887(6) 0.03422(7)
C2_2 C 0.8827(2) 0.3922(2) 0.03951(18)
C3_2 C 0.9268(2) 0.3698(2) 0.0778(2)
H1_2 H 0.9139 0.3175 0.0769
C4_2 C 0.9915(2) 0.4233(2) 0.1191(2)
C6_2 C 0.9670(2) 0.5260(2) 0.08681(18)
C7_2 C 0.90328(19) 0.47234(19) 0.04361(17)
N3_2 N 0.49209(18) 0.36156(26) 0.01012(17)
N4_2 N 0.40052(19) 0.37878(28) 0.08580(18)
O7_2 O 0.40589(16) 0.47285(23) 0.21413(14)
O8_2 O 0.43947(14) 0.58488(20) 0.16204(13)
S3_2 S 0.40113(6) 0.31522(10) 0.03422(7)
C10_2 C 0.6078(2) 0.4904(3) 0.03951(18)
C11_2 C 0.6302(2) 0.5569(3) 0.0778(2)
H3_2 H 0.6825 0.5963 0.0769
C12_2 C 0.5767(2) 0.5681(3) 0.1191(2)
H4_2 H 0.5946 0.6151 0.1430
C13_2 C 0.4998(2) 0.5116(3) 0.12435(18)
C14_2 C 0.4740(2) 0.4409(3) 0.08681(18)
C15_2 C 0.52766(19) 0.43093(27) 0.04361(17)
C16_2 C 0.44415(19) 0.52308(27) 0.16952(18)
N5_2 N 0.63844(26) 0.13052(19) 0.01012(17)
N6_2 N 0.62122(28) 0.0217(2) 0.08580(18)
S4_2 S 0.68478(10) 0.08590(8) 0.03422(7)
C18_2 C 0.5096(3) 0.1173(2) 0.03951(18)
C19_2 C 0.4431(3) 0.0732(2) 0.0778(2)
H5_2 H 0.4037 0.0861 0.0769
C20_2 C 0.4319(3) 0.0085(2) 0.1191(2)
C22_2 C 0.5591(3) 0.0330(2) 0.08681(18)
C23_2 C 0.56907(27) 0.09672(19) 0.04361(17)
O1_2 O 0.76678(14) 0.34763(14) 0.96933(13)
O2_2 O 0.80628(18) 0.26415(16) 0.99331(17)
S2_5 S 0.6667 0.3333 0.8333
C1_2 C 0.8149(2) 0.3307(2) 0.99813(19)
O5_2 O 0.65237(14) 0.41914(20) 0.96933(13)
O6_2 O 0.73585(16) 0.54212(24) 0.99331(17)
C9_2 C 0.6693(2) 0.4841(3) 0.99813(19)
O9_2 O 0.58086(20) 0.23322(14) 0.96933(13)
O10_2 O 0.45788(24) 0.19372(18) 0.99331(17)
C17_2 C 0.5159(3) 0.1851(2) 0.99813(19)
N7_2 N 0.46386(19) 0.15875(18) 0.65654(17)
N8_2 N 0.3551(2) 0.06718(19) 0.58086(18)
O13_2 O 0.56656(14) 0.31903(14) 0.69733(13)
O14_2 O 0.52706(18) 0.40251(16) 0.67335(17)
S5_2 S 0.41924(8) 0.06779(6) 0.63244(7)
C25_2 C 0.5185(2) 0.3359(2) 0.66853(19)
C26_2 C 0.4507(2) 0.2744(2) 0.62715(18)
C27_2 C 0.4066(2) 0.2968(2) 0.5888(2)
H7_2 H 0.4195 0.3491 0.5897
C28_2 C 0.3419(2) 0.2433(2) 0.5475(2)
H8_2 H 0.3128 0.2612 0.5236
C29_2 C 0.3215(2) 0.1664(2) 0.54231(18)
C30_2 C 0.3664(2) 0.1406(2) 0.57985(18)
C31_2 C 0.43006(19) 0.19432(19) 0.62305(17)
C32_2 C 0.25440(19) 0.11081(19) 0.49714(18)
N9_2 N 0.84125(18) 0.30510(26) 0.65654(17)
N10_2 N 0.93282(19) 0.28788(28) 0.58086(18)
O17_2 O 0.68097(14) 0.24752(20) 0.69733(13)
O18_2 O 0.59749(16) 0.12454(24) 0.67335(17)
S6_2 S 0.93221(6) 0.35144(10) 0.63244(7)
C33_2 C 0.6641(2) 0.1825(3) 0.66853(19)
C34_2 C 0.7256(2) 0.1762(3) 0.62715(18)
C35_2 C 0.7032(2) 0.1097(3) 0.5888(2)
H9_2 H 0.6509 0.0703 0.5897
C36_2 C 0.7567(2) 0.0985(3) 0.5475(2)
H10_2 H 0.7388 0.0515 0.5236
C37_2 C 0.8336(2) 0.1550(3) 0.54231(18)
C38_2 C 0.8594(2) 0.2257(3) 0.57985(18)
C39_2 C 0.80568(19) 0.23573(27) 0.62305(17)
C40_2 C 0.88919(19) 0.14358(27) 0.49714(18)
N11_2 N 0.69490(26) 0.53614(19) 0.65654(17)
N12_2 N 0.71212(28) 0.6449(2) 0.58086(18)
O21_2 O 0.75248(20) 0.43344(14) 0.69733(13)
O22_2 O 0.87546(24) 0.47294(18) 0.67335(17)
S7_2 S 0.64856(10) 0.58076(8) 0.63244(7)
C41_2 C 0.8175(3) 0.4815(2) 0.66853(19)
C42_2 C 0.8238(3) 0.5493(2) 0.62715(18)
C43_2 C 0.8903(3) 0.5934(2) 0.5888(2)
H11_2 H 0.9297 0.5805 0.5897
C44_2 C 0.9015(3) 0.6581(2) 0.5475(2)
H12_2 H 0.9485 0.6872 0.5236
C45_2 C 0.8450(3) 0.6785(2) 0.54231(18)
C46_2 C 0.7743(3) 0.6336(2) 0.57985(18)
C47_2 C 0.76427(27) 0.56994(19) 0.62305(17)
C48_2 C 0.85642(27) 0.74560(19) 0.49714(18)
O28_2 O 0.93303(16) 0.40589(16) 0.78587(14)
O29_2 O 0.59411(16) 0.52715(23) 0.78587(14)
O30_2 O 0.47285(23) 0.06697(16) 0.78587(14)
O34_2 O 0.85458(14) 0.43947(14) 0.83796(13)
O35_2 O 0.56053(14) 0.41512(20) 0.83796(13)
O36_2 O 0.58488(20) 0.14542(14) 0.83796(13)
O11_2 O 0.52715(23) 0.93303(16) 0.21413(14)
O12_2 O 0.41512(20) 0.85458(14) 0.16204(13)
H6_2 H 0.3849 0.9794 0.1430
C21_2 C 0.4884(3) 0.9881(2) 0.12435(18)
C24_2 C 0.47692(27) 0.92106(19) 0.16952(18)
H12_3 H 0.6151 0.0206 0.8570
C45_3 C 0.5116(3) 0.0119(2) 0.87565(18)
C48_3 C 0.52308(27) 0.07894(19) 0.83048(18)
N1_3 N 0.53614(19) 0.84125(18) 0.34346(17)
N2_3 N 0.6449(2) 0.93282(19) 0.41914(18)
O1_3 O 0.43344(14) 0.68097(14) 0.30267(13)
O2_3 O 0.47294(18) 0.59749(16) 0.32665(17)
S1_3 S 0.58076(8) 0.93221(6) 0.36756(7)
S2_6 S 0.3333 0.6667 0.1667
C1_3 C 0.4815(2) 0.6641(2) 0.33147(19)
C2_3 C 0.5493(2) 0.7256(2) 0.37285(18)
C3_3 C 0.5934(2) 0.7032(2) 0.4112(2)
H1_3 H 0.5805 0.6509 0.4103
C4_3 C 0.6581(2) 0.7567(2) 0.4525(2)
H2_3 H 0.6872 0.7388 0.4764
C5_3 C 0.6785(2) 0.8336(2) 0.45769(18)
C6_3 C 0.6336(2) 0.8594(2) 0.42015(18)
C7_3 C 0.56994(19) 0.80568(19) 0.37695(17)
C8_3 C 0.74560(19) 0.88919(19) 0.50286(18)
N3_3 N 0.15875(18) 0.69490(26) 0.34346(17)
N4_3 N 0.06718(19) 0.71212(28) 0.41914(18)
O5_3 O 0.31903(14) 0.75248(20) 0.30267(13)
O6_3 O 0.40251(16) 0.87546(24) 0.32665(17)
S3_3 S 0.06779(6) 0.64856(10) 0.36756(7)
C9_3 C 0.3359(2) 0.8175(3) 0.33147(19)
C10_3 C 0.2744(2) 0.8238(3) 0.37285(18)
C11_3 C 0.2968(2) 0.8903(3) 0.4112(2)
H3_3 H 0.3491 0.9297 0.4103
C12_3 C 0.2433(2) 0.9015(3) 0.4525(2)
H4_3 H 0.2612 0.9485 0.4764
C13_3 C 0.1664(2) 0.8450(3) 0.45769(18)
C14_3 C 0.1406(2) 0.7743(3) 0.42015(18)
C15_3 C 0.19432(19) 0.76427(27) 0.37695(17)
C16_3 C 0.11081(19) 0.85642(27) 0.50286(18)
N5_3 N 0.30510(26) 0.46386(19) 0.34346(17)
N6_3 N 0.28788(28) 0.3551(2) 0.41914(18)
O9_3 O 0.24752(20) 0.56656(14) 0.30267(13)
O10_3 O 0.12454(24) 0.52706(18) 0.32665(17)
S4_3 S 0.35144(10) 0.41924(8) 0.36756(7)
C17_3 C 0.1825(3) 0.5185(2) 0.33147(19)
C18_3 C 0.1762(3) 0.4507(2) 0.37285(18)
C19_3 C 0.1097(3) 0.4066(2) 0.4112(2)
H5_3 H 0.0703 0.4195 0.4103
C20_3 C 0.0985(3) 0.3419(2) 0.4525(2)
H6_3 H 0.0515 0.3128 0.4764
C21_3 C 0.1550(3) 0.3215(2) 0.45769(18)
C22_3 C 0.2257(3) 0.3664(2) 0.42015(18)
C23_3 C 0.23573(27) 0.43006(19) 0.37695(17)
C24_3 C 0.14358(27) 0.25440(19) 0.50286(18)
O13_3 O 0.23322(14) 0.65237(14) 0.03067(13)
O14_3 O 0.19372(18) 0.73585(16) 0.00669(17)
C25_3 C 0.1851(2) 0.6693(2) 0.00187(19)
O17_3 O 0.34763(14) 0.58086(20) 0.03067(13)
O18_3 O 0.26415(16) 0.45788(24) 0.00669(17)
C33_3 C 0.3307(2) 0.5159(3) 0.00187(19)
O21_3 O 0.41914(20) 0.76678(14) 0.03067(13)
O22_3 O 0.54212(24) 0.80628(18) 0.00669(17)
C41_3 C 0.4841(3) 0.8149(2) 0.00187(19)
N7_3 N 0.13052(19) 0.49209(18) 0.98988(17)
N8_3 N 0.0217(2) 0.40052(19) 0.91420(18)
S5_3 S 0.08590(8) 0.40113(6) 0.96578(7)
C26_3 C 0.1173(2) 0.6078(2) 0.96049(18)
C27_3 C 0.0732(2) 0.6302(2) 0.9222(2)
H7_3 H 0.0861 0.6825 0.9231
C28_3 C 0.0085(2) 0.5767(2) 0.8809(2)
C30_3 C 0.0330(2) 0.4740(2) 0.91319(18)
C31_3 C 0.09672(19) 0.52766(19) 0.95639(17)
N9_3 N 0.50791(18) 0.63844(26) 0.98988(17)
N10_3 N 0.59948(19) 0.62122(28) 0.91420(18)
S6_3 S 0.59887(6) 0.68478(10) 0.96578(7)
C34_3 C 0.3922(2) 0.5096(3) 0.96049(18)
C35_3 C 0.3698(2) 0.4431(3) 0.9222(2)
H9_3 H 0.3175 0.4037 0.9231
C36_3 C 0.4233(2) 0.4319(3) 0.8809(2)
H10_3 H 0.4054 0.3849 0.8570
C37_3 C 0.5002(2) 0.4884(3) 0.87565(18)
C38_3 C 0.5260(2) 0.5591(3) 0.91319(18)
C39_3 C 0.47234(19) 0.56907(27) 0.95639(17)
C40_3 C 0.55585(19) 0.47692(27) 0.83048(18)
N11_3 N 0.36156(26) 0.86948(19) 0.98988(17)
N12_3 N 0.37878(28) 0.9783(2) 0.91420(18)
S7_3 S 0.31522(10) 0.91410(8) 0.96578(7)
C42_3 C 0.4904(3) 0.8827(2) 0.96049(18)
C43_3 C 0.5569(3) 0.9268(2) 0.9222(2)
H11_3 H 0.5963 0.9139 0.9231
C44_3 C 0.5681(3) 0.9915(2) 0.8809(2)
C46_3 C 0.4409(3) 0.9670(2) 0.91319(18)
C47_3 C 0.43093(27) 0.90328(19) 0.95639(17)
H8_3 H 0.9794 0.5946 0.8570
C29_3 C 0.9881(2) 0.4998(2) 0.87565(18)
C32_3 C 0.92106(19) 0.44415(19) 0.83048(18)
loop_
_geom_bond_atom_site_label_1
_geom_bond_atom_site_label_2
_geom_bond_site_symmetry_1
_geom_bond_site_symmetry_2
Cd1 N1 1_555 1_555
N1 S1 1_555 1_555
N2 S1 1_555 1_555
O1 Cd1 1_555 1_555
O3 C8 1_555 1_555
O4 C8 1_555 1_555
S2 Cd1 1_555 1_555
C3 C2 1_555 1_555
C4 C3 1_555 1_555
H2 C4 1_555 1_555
C5 C4 1_555 1_555
C6 N2 1_555 1_555
C7 N1 1_555 1_555
C8 C5 1_555 1_555
O6 Cd1 1_555 1_555
Cd5 S2 1_555 1_555
O21 Cd5 1_555 1_555
O22 Cd5 1_555 1_555
O23 C48 1_555 1_555
O24 C48 1_555 1_555
C41 O21 1_555 1_555
C42 C41 1_555 1_555
C43 C42 1_555 1_555
H11 C43 1_555 1_555
C44 C43 1_555 1_555
H12 C44 1_555 1_555
C45 C44 1_555 1_555
C46 N12 1_555 1_555
C47 N11 1_555 1_555
C48 C45 1_555 1_555
Cd8 O3 1_555 1_555
Cd12 O24 1_555 1_555
Cd13 O4 1_555 1_555
Cd16 O23 1_555 1_555
O27 Cd1 1_555 1_555
O28 Cd5 1_555 1_555
O33 Cd1 1_555 1_555
O34 Cd1 1_555 1_555
O4 Cd8 1_555 1_555
C2 C7 1_555 1_555
C5 C6 1_555 1_555
C6 C7 1_555 1_555
O6 C9 1_555 1_555
Cd5 O34 1_555 1_555
O22 C41 1_555 1_555
O24 Cd16 1_555 1_555
C42 C47 1_555 1_555
C45 C46 1_555 1_555
C46 C47 1_555 1_555
O2 C1 1_555 1_555
O19 C40 1_555 1_555
O20 C40 1_555 1_555
C35 C34 1_555 1_555
C36 C35 1_555 1_555
H10 C36 1_555 1_555
C37 C36 1_555 1_555
C38 N10 1_555 1_555
C39 N9 1_555 1_555
C40 C37 1_555 1_555
Cd11 O20 1_555 1_555
Cd18 O19 1_555 1_555
O26 Cd3 1_555 1_555
O32 Cd3 1_555 1_555
O2 Cd3 1_555 1_555
S2_2 Cd3 1_555 1_555
O20 Cd18 1_555 1_555
C34 C39 1_555 1_555
C37 C38 1_555 1_555
C38 C39 1_555 1_555
O7 C16 1_555 1_555
O8 C16 1_555 1_555
C11 C10 1_555 1_555
C12 C11 1_555 1_555
H4 C12 1_555 1_555
C13 C12 1_555 1_555
C14 N4 1_555 1_555
C15 N3 1_555 1_555
C16 C13 1_555 1_555
O14 C25 1_555 1_555
Cd6 S2_3 1_555 1_555
Cd9 O7 1_555 1_555
Cd14 O8 1_555 1_555
O29 Cd6 1_555 1_555
O8 Cd9 1_555 1_555
C10 C15 1_555 1_555
C13 C14 1_555 1_555
C14 C15 1_555 1_555
O14 Cd6 1_555 1_555
Cd6 O35 1_555 1_555
Cd2 S2_4 1_555 1_555
O9 Cd2 1_555 1_555
O10 Cd2 1_555 1_555
O11 C24 1_555 1_555
O12 C24 1_555 1_555
C17 O9 1_555 1_555
C18 C17 1_555 1_555
C19 C18 1_555 1_555
H5 C19 1_555 1_555
C20 C19 1_555 1_555
H6 C20 1_555 1_555
C21 C20 1_555 1_555
C22 N6 1_555 1_555
C23 N5 1_555 1_555
C24 C21 1_555 1_555
Cd4 S2_4 1_555 1_555
N7 Cd4 1_555 1_555
N8 S5 1_555 1_555
O13 Cd4 1_555 1_555
O15 C32 1_555 1_555
O16 C32 1_555 1_555
S5 N7 1_555 1_555
C27 C26 1_555 1_555
C28 C27 1_555 1_555
H8 C28 1_555 1_555
C29 C28 1_555 1_555
C30 N8 1_555 1_555
C31 N7 1_555 1_555
C32 C29 1_555 1_555
O18 Cd4 1_555 1_555
Cd7 O11 1_555 1_555
Cd10 O16 1_555 1_555
Cd15 O12 1_555 1_555
Cd17 O15 1_555 1_555
O25 Cd2 1_555 1_555
O30 Cd4 1_555 1_555
O31 Cd2 1_555 1_555
O10 C17 1_555 1_555
O12 Cd7 1_555 1_555
C18 C23 1_555 1_555
C21 C22 1_555 1_555
C22 C23 1_555 1_555
Cd4 O31 1_555 1_555
Cd4 O36 1_555 1_555
O16 Cd17 1_555 1_555
C26 C31 1_555 1_555
C29 C30 1_555 1_555
C30 C31 1_555 1_555
O18 C33 1_555 1_555
O3_2 C8_2 1_555 1_555
O4_2 C8_2 1_555 1_555
C8_2 C5_2 1_555 1_555
Cd11 O3_2 1_555 1_555
Cd16 O4_2 1_555 1_555
O4_2 Cd11 1_555 1_555
N1_2 S1_2 1_555 1_555
N2_2 S1_2 1_555 1_555
C3_2 C2_2 1_555 1_555
H1_2 C3_2 1_555 1_555
C4_2 C3_2 1_555 1_555
C6_2 N2_2 1_555 1_555
C7_2 N1_2 1_555 1_555
N4_2 S3_2 1_555 1_555
O7_2 C16_2 1_555 1_555
O8_2 C16_2 1_555 1_555
S3_2 N3_2 1_555 1_555
C11_2 C10_2 1_555 1_555
H3_2 C11_2 1_555 1_555
C12_2 C11_2 1_555 1_555
H4_2 C12_2 1_555 1_555
C13_2 C12_2 1_555 1_555
C14_2 N4_2 1_555 1_555
C15_2 N3_2 1_555 1_555
C16_2 C13_2 1_555 1_555
N6_2 S4_2 1_555 1_555
S4_2 N5_2 1_555 1_555
C19_2 C18_2 1_555 1_555
H5_2 C19_2 1_555 1_555
C20_2 C19_2 1_555 1_555
C22_2 N6_2 1_555 1_555
C23_2 N5_2 1_555 1_555
Cd12 O7_2 1_555 1_555
Cd17 O8_2 1_555 1_555
C2_2 C7_2 1_555 1_555
C6_2 C7_2 1_555 1_555
O8_2 Cd12 1_555 1_555
C10_2 C15_2 1_555 1_555
C13_2 C14_2 1_555 1_555
C14_2 C15_2 1_555 1_555
C18_2 C23_2 1_555 1_555
C22_2 C23_2 1_555 1_555
O1_2 Cd7 1_555 1_555
O2_2 C1_2 1_555 1_555
S2_5 Cd7 1_555 1_555
C1_2 O1_2 1_555 1_555
Cd8 S2_5 1_555 1_555
O5_2 Cd7 1_555 1_555
O6_2 Cd7 1_555 1_555
C9_2 O5_2 1_555 1_555
Cd9 O1_2 1_555 1_555
O9_2 Cd8 1_555 1_555
O10_2 Cd8 1_555 1_555
C17_2 O9_2 1_555 1_555
Cd13 S2_5 1_555 1_555
N7_2 Cd13 1_555 1_555
N8_2 S5_2 1_555 1_555
O13_2 Cd13 1_555 1_555
O14_2 C25_2 1_555 1_555
O28 C32_2 1_555 1_555
O34 C32_2 1_555 1_555
S5_2 N7_2 1_555 1_555
C25_2 O13_2 1_555 1_555
C26_2 C25_2 1_555 1_555
C27_2 C26_2 1_555 1_555
H7_2 C27_2 1_555 1_555
C28_2 C27_2 1_555 1_555
H8_2 C28_2 1_555 1_555
C29_2 C28_2 1_555 1_555
C30_2 N8_2 1_555 1_555
C31_2 N7_2 1_555 1_555
C32_2 C29_2 1_555 1_555
Cd14 S2_5 1_555 1_555
N9_2 Cd14 1_555 1_555
N10_2 S6_2 1_555 1_555
O17_2 Cd13 1_555 1_555
O18_2 Cd13 1_555 1_555
O29 C40_2 1_555 1_555
O35 C40_2 1_555 1_555
S6_2 N9_2 1_555 1_555
C33_2 O17_2 1_555 1_555
C34_2 C33_2 1_555 1_555
C35_2 C34_2 1_555 1_555
H9_2 C35_2 1_555 1_555
C36_2 C35_2 1_555 1_555
H10_2 C36_2 1_555 1_555
C37_2 C36_2 1_555 1_555
C38_2 N10_2 1_555 1_555
C39_2 N9_2 1_555 1_555
C40_2 C37_2 1_555 1_555
Cd15 S2_5 1_555 1_555
N11_2 Cd15 1_555 1_555
N12_2 S7_2 1_555 1_555
O21_2 Cd14 1_555 1_555
O22_2 Cd14 1_555 1_555
O30 C48_2 1_555 1_555
O36 C48_2 1_555 1_555
S7_2 N11_2 1_555 1_555
C41_2 O21_2 1_555 1_555
C42_2 C41_2 1_555 1_555
C43_2 C42_2 1_555 1_555
H11_2 C43_2 1_555 1_555
C44_2 C43_2 1_555 1_555
H12_2 C44_2 1_555 1_555
C45_2 C44_2 1_555 1_555
C46_2 N12_2 1_555 1_555
C47_2 N11_2 1_555 1_555
C48_2 C45_2 1_555 1_555
O28_2 Cd14 1_555 1_555
O29_2 Cd15 1_555 1_555
O30_2 Cd13 1_555 1_555
O34_2 Cd7 1_555 1_555
O35_2 Cd8 1_555 1_555
O36_2 Cd9 1_555 1_555
O2_2 Cd9 1_555 1_555
S2_5 Cd9 1_555 1_555
Cd8 O5_2 1_555 1_555
O6_2 C9_2 1_555 1_555
Cd9 O9_2 1_555 1_555
O10_2 C17_2 1_555 1_555
Cd13 O36_2 1_555 1_555
O13_2 Cd15 1_555 1_555
O14_2 Cd15 1_555 1_555
C26_2 C31_2 1_555 1_555
C29_2 C30_2 1_555 1_555
C30_2 C31_2 1_555 1_555
Cd14 O17_2 1_555 1_555
Cd14 O34_2 1_555 1_555
O18_2 C33_2 1_555 1_555
C34_2 C39_2 1_555 1_555
C37_2 C38_2 1_555 1_555
C38_2 C39_2 1_555 1_555
Cd15 O21_2 1_555 1_555
Cd15 O35_2 1_555 1_555
O22_2 C41_2 1_555 1_555
C42_2 C47_2 1_555 1_555
C45_2 C46_2 1_555 1_555
C46_2 C47_2 1_555 1_555
O11_2 C24_2 1_555 1_555
O12_2 C24_2 1_555 1_555
C24_2 C21_2 1_555 1_555
Cd10 O11_2 1_555 1_555
Cd18 O12_2 1_555 1_555
O12_2 Cd10 1_555 1_555
O30_2 C48_3 1_555 1_555
O36_2 C48_3 1_555 1_555
C48_3 C45_3 1_555 1_555
Cd10 N1_3 1_555 1_555
N1_3 S1_3 1_555 1_555
N2_3 S1_3 1_555 1_555
O1_3 Cd10 1_555 1_555
O2_3 C1_3 1_555 1_555
O25 C8_3 1_555 1_555
O31 C8_3 1_555 1_555
S2_6 Cd10 1_555 1_555
C1_3 O1_3 1_555 1_555
C2_3 C1_3 1_555 1_555
C3_3 C2_3 1_555 1_555
H1_3 C3_3 1_555 1_555
C4_3 C3_3 1_555 1_555
H2_3 C4_3 1_555 1_555
C5_3 C4_3 1_555 1_555
C6_3 N2_3 1_555 1_555
C7_3 N1_3 1_555 1_555
C8_3 C5_3 1_555 1_555
Cd11 S2_6 1_555 1_555
N3_3 Cd11 1_555 1_555
N4_3 S3_3 1_555 1_555
O5_3 Cd10 1_555 1_555
O6_3 Cd10 1_555 1_555
O26 C16_3 1_555 1_555
O32 C16_3 1_555 1_555
S3_3 N3_3 1_555 1_555
C9_3 O5_3 1_555 1_555
C10_3 C9_3 1_555 1_555
C11_3 C10_3 1_555 1_555
H3_3 C11_3 1_555 1_555
C12_3 C11_3 1_555 1_555
H4_3 C12_3 1_555 1_555
C13_3 C12_3 1_555 1_555
C14_3 N4_3 1_555 1_555
C15_3 N3_3 1_555 1_555
C16_3 C13_3 1_555 1_555
Cd12 O1_3 1_555 1_555
N5_3 Cd12 1_555 1_555
N6_3 S4_3 1_555 1_555
O9_3 Cd11 1_555 1_555
O10_3 Cd11 1_555 1_555
O27 C24_3 1_555 1_555
O33 C24_3 1_555 1_555
S4_3 N5_3 1_555 1_555
C17_3 O9_3 1_555 1_555
C18_3 C17_3 1_555 1_555
C19_3 C18_3 1_555 1_555
H5_3 C19_3 1_555 1_555
C20_3 C19_3 1_555 1_555
H6_3 C20_3 1_555 1_555
C21_3 C20_3 1_555 1_555
C22_3 N6_3 1_555 1_555
C23_3 N5_3 1_555 1_555
C24_3 C21_3 1_555 1_555
Cd16 S2_6 1_555 1_555
O13_3 Cd16 1_555 1_555
O14_3 C25_3 1_555 1_555
C25_3 O13_3 1_555 1_555
Cd17 S2_6 1_555 1_555
O17_3 Cd16 1_555 1_555
O18_3 Cd16 1_555 1_555
C33_3 O17_3 1_555 1_555
Cd18 S2_6 1_555 1_555
O21_3 Cd17 1_555 1_555
O22_3 Cd17 1_555 1_555
C41_3 O21_3 1_555 1_555
O2_3 Cd12 1_555 1_555
S2_6 Cd12 1_555 1_555
C2_3 C7_3 1_555 1_555
C5_3 C6_3 1_555 1_555
C6_3 C7_3 1_555 1_555
Cd11 O5_3 1_555 1_555
O6_3 C9_3 1_555 1_555
C10_3 C15_3 1_555 1_555
C13_3 C14_3 1_555 1_555
C14_3 C15_3 1_555 1_555
Cd12 O9_3 1_555 1_555
O10_3 C17_3 1_555 1_555
C18_3 C23_3 1_555 1_555
C21_3 C22_3 1_555 1_555
C22_3 C23_3 1_555 1_555
O13_3 Cd18 1_555 1_555
O14_3 Cd18 1_555 1_555
Cd17 O17_3 1_555 1_555
O18_3 C33_3 1_555 1_555
Cd18 O21_3 1_555 1_555
O22_3 C41_3 1_555 1_555
N8_3 S5_3 1_555 1_555
S5_3 N7_3 1_555 1_555
C27_3 C26_3 1_555 1_555
H7_3 C27_3 1_555 1_555
C28_3 C27_3 1_555 1_555
C30_3 N8_3 1_555 1_555
C31_3 N7_3 1_555 1_555
N10_3 S6_3 1_555 1_555
O29_2 C40_3 1_555 1_555
O35_2 C40_3 1_555 1_555
S6_3 N9_3 1_555 1_555
C35_3 C34_3 1_555 1_555
H9_3 C35_3 1_555 1_555
C36_3 C35_3 1_555 1_555
H10_3 C36_3 1_555 1_555
C37_3 C36_3 1_555 1_555
C38_3 N10_3 1_555 1_555
C39_3 N9_3 1_555 1_555
C40_3 C37_3 1_555 1_555
N12_3 S7_3 1_555 1_555
S7_3 N11_3 1_555 1_555
C43_3 C42_3 1_555 1_555
H11_3 C43_3 1_555 1_555
C44_3 C43_3 1_555 1_555
C46_3 N12_3 1_555 1_555
C47_3 N11_3 1_555 1_555
C26_3 C31_3 1_555 1_555
C30_3 C31_3 1_555 1_555
C34_3 C39_3 1_555 1_555
C37_3 C38_3 1_555 1_555
C38_3 C39_3 1_555 1_555
C42_3 C47_3 1_555 1_555
C46_3 C47_3 1_555 1_555
O28_2 C32_3 1_555 1_555
O34_2 C32_3 1_555 1_555
C32_3 C29_3 1_555 1_555

#END
