
###############################################################################
#
# This file contains modified crystal structure data generated from the
# MOF subset of the Cambridge Structural Database (CSD) v543 
# hosted by the Cambridge Crystallographic Data Centre (CCDC).
#
# This work is licensed under the Creative Commons
# Attribution-NonCommercial-ShareAlike 4.0 International License.
# To view a copy of this license, visit
# http://creativecommons.org/licenses/by-nc-sa/4.0/
# or send a letter to
# Creative Commons, PO Box 1866, Mountain View, CA 94042, USA.
#
# CIF created using the CSD Python API on 29 September 2022
# The structure has been converted into the P1 space group
# The structure has a 3D framework
# The original CSD entry LAWHUP is in the rhombohedral crystal system
# The framework has been calculated to contain at least 10.0% void space
# The void calculation uses a probe of radius 1.32A, grid spacing 0.4
# H atom positions have been added when not included in the experimental data
#
###############################################################################

data_LAWHUP
_chemical_formula_moiety         '(C144 H54 Cd16 N36 O71 S24)n'
_symmetry_cell_setting           triclinic
_symmetry_space_group_name_H-M   'P 1'
_symmetry_Int_Tables_number      1
_space_group_name_Hall           'P 1'
loop_
_symmetry_equiv_pos_site_id
_symmetry_equiv_pos_as_xyz
1 x,y,z
_cell_length_a                   19.377(3)
_cell_length_b                   19.377(3)
_cell_length_c                   19.810(4)
_cell_angle_alpha                90
_cell_angle_beta                 90
_cell_angle_gamma                120
_cell_volume                     6441.52
loop_
_atom_site_label
_atom_site_type_symbol
_atom_site_fract_x
_atom_site_fract_y
_atom_site_fract_z
O3 O 0.58311(16) 0.14375(15) 0.33767(13)
O4 O 0.47008(17) 0.06300(17) 0.28659(15)
H2 H 0.6133 0.0155 0.3546
C5 C 0.5100(2) 0.0092(2) 0.3756(2)
C8 C 0.5211(2) 0.0759(2) 0.33045(19)
Cd4 Cd 0.68296(2) 0.22138(2) 0.41785(2)
O13 O 0.45414(19) 0.19146(19) 0.48867(17)
O14 O 0.58021(17) 0.23314(16) 0.46673(15)
N7 N 0.6389(2) 0.1296(2) 0.50695(17)
N8 N 0.6235(2) 0.0229(2) 0.58411(18)
S5 S 0.68615(7) 0.08485(8) 0.53149(7)
C25 C 0.5140(2) 0.1840(2) 0.4951(2)
C26 C 0.5090(2) 0.1185(2) 0.53754(19)
C27 C 0.4427(2) 0.0752(2) 0.5769(2)
H7 H 0.4023 0.0877 0.5755
C28 C 0.4330(2) 0.0119(2) 0.6199(2)
C30 C 0.5605(2) 0.0347(2) 0.58554(19)
C31 C 0.5697(2) 0.0972(2) 0.54147(18)
Cd8 Cd 0.55471(2) 0.20509(3) 0.24882(2)
Cd12 Cd 0.53842(3) 0.31704(2) 0.41785(2)
O26 O 0.80854(19) 0.26268(27) 0.48867(17)
O29 O 0.76686(16) 0.34707(23) 0.46673(15)
O36 O 0.77269(22) 0.24978(16) 0.32900(13)
O42 O 0.74041(24) 0.13675(17) 0.38008(15)
S10 S 0.6666 0.3334 0.3334
H13 H 0.370168 0.0178776 0.388524
Cd1 Cd 0.31704(2) 0.77862(2) 0.58215(2)
O1 O 0.54586(19) 0.80854(19) 0.51133(17)
O2 O 0.41979(17) 0.76686(16) 0.53327(15)
N1 N 0.3611(2) 0.8704(2) 0.49305(17)
N2 N 0.3765(2) 0.9771(2) 0.41589(18)
S1 S 0.31385(7) 0.91515(8) 0.46851(7)
S2 S 0.3333 0.6667 0.6667
C1 C 0.4860(2) 0.8160(2) 0.5049(2)
C2 C 0.4910(2) 0.8815(2) 0.46246(19)
C3 C 0.5573(2) 0.9248(2) 0.4231(2)
H1 H 0.5977 0.9123 0.4245
C4 C 0.5670(2) 0.9881(2) 0.3801(2)
C6 C 0.4395(2) 0.9653(2) 0.41446(19)
C7 C 0.4303(2) 0.9028(2) 0.45853(18)
Cd2 Cd 0.22138(2) 0.53842(3) 0.58215(2)
O5 O 0.19146(19) 0.73732(27) 0.51133(17)
O6 O 0.23314(16) 0.65293(23) 0.53327(15)
N3 N 0.1296(2) 0.4907(3) 0.49305(17)
N4 N 0.0229(2) 0.3994(3) 0.41589(18)
S3 S 0.08485(8) 0.39870(11) 0.46851(7)
C9 C 0.1840(2) 0.6700(3) 0.5049(2)
C10 C 0.1185(2) 0.6095(3) 0.46246(19)
C11 C 0.0752(2) 0.6325(3) 0.4231(2)
H3 H 0.0877 0.6854 0.4245
C12 C 0.0119(2) 0.5789(3) 0.3801(2)
C14 C 0.0347(2) 0.4742(3) 0.41446(19)
C15 C 0.0972(2) 0.5275(3) 0.45853(18)
Cd3 Cd 0.46158(3) 0.68296(2) 0.58215(2)
O9 O 0.26268(27) 0.45414(19) 0.51133(17)
O10 O 0.34707(23) 0.58021(17) 0.53327(15)
O11 O 0.56064(22) 0.41689(16) 0.33767(13)
O12 O 0.59292(24) 0.52992(17) 0.28659(15)
N5 N 0.5093(3) 0.6389(2) 0.49305(17)
N6 N 0.6006(3) 0.6235(2) 0.41589(18)
S4 S 0.60130(11) 0.68615(7) 0.46851(7)
C17 C 0.3300(3) 0.5140(2) 0.5049(2)
C18 C 0.3905(3) 0.5090(2) 0.46246(19)
C19 C 0.3675(3) 0.4427(2) 0.4231(2)
H5 H 0.3146 0.4023 0.4245
C20 C 0.4211(3) 0.4330(2) 0.3801(2)
H6 H 0.4022 0.3867 0.3546
C21 C 0.4992(3) 0.4900(2) 0.3756(2)
C22 C 0.5258(3) 0.5605(2) 0.41446(19)
C23 C 0.4725(3) 0.5697(2) 0.45853(18)
C24 C 0.5548(3) 0.4789(2) 0.33045(19)
O15 O 0.41689(16) 0.85625(15) 0.66233(13)
O16 O 0.52992(17) 0.93700(17) 0.71341(15)
H8 H 0.3867 0.9845 0.6454
C29 C 0.4900(2) 0.9908(2) 0.6244(2)
C32 C 0.4789(2) 0.9241(2) 0.66955(19)
O19 O 0.14375(15) 0.56064(22) 0.66233(13)
O20 O 0.06300(17) 0.59292(24) 0.71341(15)
H10 H 0.0155 0.4022 0.6454
C37 C 0.0092(2) 0.4992(3) 0.6244(2)
C40 C 0.0759(2) 0.5548(3) 0.66955(19)
O21 O 0.73732(27) 0.54586(19) 0.48867(17)
O22 O 0.65293(23) 0.41979(17) 0.46673(15)
O23 O 0.43936(22) 0.58311(16) 0.66233(13)
O24 O 0.40708(24) 0.47008(17) 0.71341(15)
N11 N 0.4907(3) 0.3611(2) 0.50695(17)
N12 N 0.3994(3) 0.3765(2) 0.58411(18)
S7 S 0.39870(11) 0.31385(7) 0.53149(7)
C41 C 0.6700(3) 0.4860(2) 0.4951(2)
C42 C 0.6095(3) 0.4910(2) 0.53754(19)
C43 C 0.6325(3) 0.5573(2) 0.5769(2)
H11 H 0.6854 0.5977 0.5755
C44 C 0.5789(3) 0.5670(2) 0.6199(2)
H12 H 0.5978 0.6133 0.6454
C45 C 0.5008(3) 0.5100(2) 0.6244(2)
C46 C 0.4742(3) 0.4395(2) 0.58554(19)
C47 C 0.5275(3) 0.4303(2) 0.54147(18)
C48 C 0.4452(3) 0.5211(2) 0.66955(19)
Cd7 Cd 0.65037(2) 0.44529(2) 0.24882(2)
Cd11 Cd 0.77862(2) 0.46158(3) 0.41785(2)
Cd13 Cd 0.34963(2) 0.55471(2) 0.75118(2)
Cd14 Cd 0.44529(2) 0.79491(3) 0.75118(2)
Cd15 Cd 0.20509(3) 0.65037(2) 0.75118(2)
O31 O 0.24978(16) 0.47708(15) 0.67100(13)
O32 O 0.52292(15) 0.77269(22) 0.67100(13)
O33 O 0.22731(22) 0.75022(16) 0.67100(13)
O35 O 0.47708(15) 0.22731(22) 0.32900(13)
O37 O 0.13675(17) 0.39633(17) 0.61992(15)
O38 O 0.60367(17) 0.74041(24) 0.61992(15)
O39 O 0.25959(24) 0.86325(17) 0.61992(15)
O41 O 0.39633(17) 0.25959(24) 0.38008(15)
H15 H 0.64771 0.629832 0.388524
H16 H 0.629832 0.982122 0.611476
H17 H 0.35229 0.370168 0.611476
H18 H 0.0178776 0.64771 0.611476
O7 O 0.85625(15) 0.43936(22) 0.33767(13)
O8 O 0.93700(17) 0.40708(24) 0.28659(15)
H4 H 0.9845 0.5978 0.3546
C13 C 0.9908(2) 0.5008(3) 0.3756(2)
C16 C 0.9241(2) 0.4452(3) 0.33045(19)
N9 N 0.8704(2) 0.5093(3) 0.50695(17)
N10 N 0.9771(2) 0.6006(3) 0.58411(18)
S6 S 0.91515(8) 0.60130(11) 0.53149(7)
C33 C 0.8160(2) 0.3300(3) 0.4951(2)
C34 C 0.8815(2) 0.3905(3) 0.53754(19)
C35 C 0.9248(2) 0.3675(3) 0.5769(2)
H9 H 0.9123 0.3146 0.5755
C36 C 0.9881(2) 0.4211(3) 0.6199(2)
C38 C 0.9653(2) 0.5258(3) 0.58554(19)
C39 C 0.9028(2) 0.4725(3) 0.54147(18)
Cd9 Cd 0.79491(3) 0.34963(2) 0.24882(2)
O34 O 0.75022(16) 0.52292(15) 0.32900(13)
O40 O 0.86325(17) 0.60367(17) 0.38008(15)
H14 H 0.982122 0.35229 0.388524
S2_2 S -0.0000 0.0000 0.0000
O16_2 O 0.19659(17) 0.27033(17) 0.04674(15)
C32_2 C 0.1456(2) 0.2574(2) 0.00288(19)
Cd14_2 Cd 0.11195(2) 0.12825(3) 0.08452(2)
O32_2 O 0.18958(15) 0.10603(22) 0.00434(13)
O1_2 O 0.21253(19) 0.14187(19) 0.84466(17)
O2_2 O 0.08646(17) 0.10019(16) 0.86660(15)
N1_2 N 0.0278(2) 0.2037(2) 0.82638(17)
N2_2 N 0.0432(2) 0.3104(2) 0.74922(18)
S2_3 S -0.0000 0.0000 1.0000
C1_2 C 0.1527(2) 0.1493(2) 0.8382(2)
C2_2 C 0.1577(2) 0.2148(2) 0.79579(19)
C3_2 C 0.2240(2) 0.2581(2) 0.7564(2)
H1_2 H 0.2644 0.2456 0.7578
C4_2 C 0.2337(2) 0.3214(2) 0.7134(2)
H2_2 H 0.2800 0.3488 0.6879
C5_2 C 0.1767(2) 0.3425(2) 0.7089(2)
C6_2 C 0.1062(2) 0.2986(2) 0.74779(19)
C7_2 C 0.0970(2) 0.2361(2) 0.79186(18)
C8_2 C 0.1878(2) 0.4092(2) 0.66378(19)
Cd3_2 Cd 0.12825(3) 0.01629(2) 0.91548(2)
S4_2 S 0.26797(11) 0.01948(7) 0.80184(7)
O13_2 O 0.12081(19) 0.52479(19) 0.82200(17)
O14_2 O 0.24688(17) 0.56647(16) 0.80006(15)
O15_2 O 0.08356(16) 0.18958(15) 0.99566(13)
N7_2 N 0.3056(2) 0.4629(2) 0.84028(17)
N8_2 N 0.2902(2) 0.3562(2) 0.91744(18)
S5_2 S 0.35282(7) 0.41818(8) 0.86482(7)
C25_2 C 0.1807(2) 0.5173(2) 0.8284(2)
C26_2 C 0.1757(2) 0.4518(2) 0.87087(19)
C27_2 C 0.1094(2) 0.4085(2) 0.9102(2)
H7_2 H 0.0690 0.4210 0.9088
C28_2 C 0.0997(2) 0.3452(2) 0.9532(2)
H8_2 H 0.0534 0.3178 0.9787
C29_2 C 0.1567(2) 0.3241(2) 0.9577(2)
C30_2 C 0.2272(2) 0.3680(2) 0.91887(19)
C31_2 C 0.2364(2) 0.4305(2) 0.87480(18)
O26_2 O 0.47521(19) 0.59601(27) 0.82200(17)
O29_2 O 0.43353(16) 0.68040(23) 0.80006(15)
O38_2 O 0.27033(17) 0.07375(24) 0.95326(15)
H13_2 H 0.0368345 0.351211 0.721858
H16_2 H 0.296499 0.315456 0.944809
S2_4 S -0.0000 1.0000 0.0000
O24_2 O 0.07375(24) 0.80341(17) 0.04674(15)
C48_2 C 0.1119(3) 0.8544(2) 0.00288(19)
Cd13_2 Cd 0.01629(2) 0.88805(2) 0.08452(2)
S2_5 S -0.0000 1.0000 1.0000
O10_2 O 0.01374(23) 0.91354(17) 0.86660(15)
N5_2 N 0.1760(3) 0.9722(2) 0.82638(17)
N6_2 N 0.2673(3) 0.9568(2) 0.74922(18)
C18_2 C 0.0572(3) 0.8423(2) 0.79579(19)
C19_2 C 0.0342(3) 0.7760(2) 0.7564(2)
C20_2 C 0.0878(3) 0.7663(2) 0.7134(2)
H6_2 H 0.0689 0.7200 0.6879
C21_2 C 0.1659(3) 0.8233(2) 0.7089(2)
C22_2 C 0.1925(3) 0.8938(2) 0.74779(19)
C23_2 C 0.1392(3) 0.9030(2) 0.79186(18)
C24_2 C 0.2215(3) 0.8122(2) 0.66378(19)
O21_2 O 0.40399(27) 0.87919(19) 0.82200(17)
O22_2 O 0.31960(23) 0.75312(17) 0.80006(15)
O23_2 O 0.10603(22) 0.91644(16) 0.99566(13)
N11_2 N 0.1574(3) 0.6944(2) 0.84028(17)
N12_2 N 0.0661(3) 0.7098(2) 0.91744(18)
S7_2 S 0.06537(11) 0.64718(7) 0.86482(7)
C41_2 C 0.3367(3) 0.8193(2) 0.8284(2)
C42_2 C 0.2762(3) 0.8243(2) 0.87087(19)
C43_2 C 0.2992(3) 0.8906(2) 0.9102(2)
H11_2 H 0.3521 0.9310 0.9088
C44_2 C 0.2456(3) 0.9003(2) 0.9532(2)
H12_2 H 0.2645 0.9466 0.9787
C45_2 C 0.1675(3) 0.8433(2) 0.9577(2)
C46_2 C 0.1409(3) 0.7728(2) 0.91887(19)
C47_2 C 0.1942(3) 0.7636(2) 0.87480(18)
H15_2 H 0.314376 0.963165 0.721858
H17_2 H 0.0189569 0.703501 0.944809
S2_6 S 1.0000 0.0000 0.0000
O33_2 O 0.89397(22) 0.08356(16) 0.00434(13)
Cd1_2 Cd 0.98371(2) 0.11195(2) 0.91548(2)
S1_2 S 0.98052(7) 0.24848(8) 0.80184(7)
S2_7 S 1.0000 0.0000 1.0000
O5_2 O 0.85813(19) 0.07065(27) 0.84466(17)
C9_2 C 0.8507(2) 0.0033(3) 0.8382(2)
H3_2 H 0.7544 0.0187 0.7578
O39_2 O 0.92625(24) 0.19659(17) 0.95326(15)
S2_8 S 1.0000 1.0000 0.0000
O20_2 O 0.72967(17) 0.92625(24) 0.04674(15)
C40_2 C 0.7426(2) 0.8881(3) 0.00288(19)
Cd15_2 Cd 0.87175(3) 0.98371(2) 0.08452(2)
O31_2 O 0.91644(16) 0.81042(15) 0.00434(13)
S2_9 S 1.0000 1.0000 1.0000
Cd2_2 Cd 0.88805(2) 0.87175(3) 0.91548(2)
O6_2 O 0.89981(16) 0.98626(23) 0.86660(15)
N3_2 N 0.7963(2) 0.8240(3) 0.82638(17)
N4_2 N 0.6896(2) 0.7327(3) 0.74922(18)
S3_2 S 0.75152(8) 0.73203(11) 0.80184(7)
C10_2 C 0.7852(2) 0.9428(3) 0.79579(19)
C11_2 C 0.7419(2) 0.9658(3) 0.7564(2)
C12_2 C 0.6786(2) 0.9122(3) 0.7134(2)
H4_2 H 0.6512 0.9311 0.6879
C13_2 C 0.6575(2) 0.8341(3) 0.7089(2)
C14_2 C 0.7014(2) 0.8075(3) 0.74779(19)
C15_2 C 0.7639(2) 0.8608(3) 0.79186(18)
C16_2 C 0.5908(2) 0.7785(3) 0.66378(19)
O9_2 O 0.92935(27) 0.78747(19) 0.84466(17)
C17_2 C 0.9967(3) 0.8473(2) 0.8382(2)
H5_2 H 0.9813 0.7356 0.7578
O19_2 O 0.81042(15) 0.89397(22) 0.99566(13)
N9_2 N 0.5371(2) 0.8426(3) 0.84028(17)
N10_2 N 0.6438(2) 0.9339(3) 0.91744(18)
S6_2 S 0.58182(8) 0.93463(11) 0.86482(7)
C33_2 C 0.4827(2) 0.6633(3) 0.8284(2)
C34_2 C 0.5482(2) 0.7238(3) 0.87087(19)
C35_2 C 0.5915(2) 0.7008(3) 0.9102(2)
H9_2 H 0.5790 0.6479 0.9088
C36_2 C 0.6548(2) 0.7544(3) 0.9532(2)
H10_2 H 0.6822 0.7355 0.9787
C37_2 C 0.6759(2) 0.8325(3) 0.9577(2)
C38_2 C 0.6320(2) 0.8591(3) 0.91887(19)
C39_2 C 0.5695(2) 0.8058(3) 0.87480(18)
O37_2 O 0.80341(17) 0.72967(17) 0.95326(15)
H14_2 H 0.648789 0.685624 0.721858
H18_2 H 0.684544 0.981043 0.944809
O29_3 O 0.10019(16) 0.01374(23) 0.13340(15)
S5_3 S 0.01948(7) 0.75152(8) 0.19816(7)
O21_3 O 0.07065(27) 0.21253(19) 0.15534(17)
C41_3 C 0.0033(3) 0.1527(2) 0.1618(2)
H11_3 H 0.0187 0.2644 0.2422
O26_3 O 0.14187(19) 0.92935(27) 0.15534(17)
O1_3 O 0.87919(19) 0.47521(19) 0.17800(17)
O2_3 O 0.75312(17) 0.43353(16) 0.19994(15)
N1_3 N 0.6944(2) 0.5371(2) 0.15972(17)
N2_3 N 0.7098(2) 0.6438(2) 0.08256(18)
S1_3 S 0.64718(7) 0.58182(8) 0.13518(7)
C1_3 C 0.8193(2) 0.4827(2) 0.1716(2)
C2_3 C 0.8243(2) 0.5482(2) 0.12913(19)
C3_3 C 0.8906(2) 0.5915(2) 0.0898(2)
H1_3 H 0.9310 0.5790 0.0912
C4_3 C 0.9003(2) 0.6548(2) 0.0468(2)
H2_3 H 0.9466 0.6822 0.0213
C5_3 C 0.8433(2) 0.6759(2) 0.0423(2)
C6_3 C 0.7728(2) 0.6320(2) 0.08113(19)
C7_3 C 0.7636(2) 0.5695(2) 0.12520(18)
O5_3 O 0.52479(19) 0.40399(27) 0.17800(17)
O6_3 O 0.56647(16) 0.31960(23) 0.19994(15)
N3_3 N 0.4629(2) 0.1574(3) 0.15972(17)
N4_3 N 0.3562(2) 0.0661(3) 0.08256(18)
S3_3 S 0.41818(8) 0.06537(11) 0.13518(7)
C9_3 C 0.5173(2) 0.3367(3) 0.1716(2)
C10_3 C 0.4518(2) 0.2762(3) 0.12913(19)
C11_3 C 0.4085(2) 0.2992(3) 0.0898(2)
H3_3 H 0.4210 0.3521 0.0912
C12_3 C 0.3452(2) 0.2456(3) 0.0468(2)
H4_3 H 0.3178 0.2645 0.0213
C13_3 C 0.3241(2) 0.1675(3) 0.0423(2)
C14_3 C 0.3680(2) 0.1409(3) 0.08113(19)
C15_3 C 0.4305(2) 0.1942(3) 0.12520(18)
O9_3 O 0.59601(27) 0.12081(19) 0.17800(17)
O10_3 O 0.68040(23) 0.24688(17) 0.19994(15)
N5_3 N 0.8426(3) 0.3056(2) 0.15972(17)
N6_3 N 0.9339(3) 0.2902(2) 0.08256(18)
S4_3 S 0.93463(11) 0.35282(7) 0.13518(7)
C17_3 C 0.6633(3) 0.1807(2) 0.1716(2)
C18_3 C 0.7238(3) 0.1757(2) 0.12913(19)
C19_3 C 0.7008(3) 0.1094(2) 0.0898(2)
H5_3 H 0.6479 0.0690 0.0912
C20_3 C 0.7544(3) 0.0997(2) 0.0468(2)
H6_3 H 0.7355 0.0534 0.0213
C21_3 C 0.8325(3) 0.1567(2) 0.0423(2)
C22_3 C 0.8591(3) 0.2272(2) 0.08113(19)
C23_3 C 0.8058(3) 0.2364(2) 0.12520(18)
O13_3 O 0.78747(19) 0.85813(19) 0.15534(17)
O14_3 O 0.91354(17) 0.89981(16) 0.13340(15)
N7_3 N 0.9722(2) 0.7963(2) 0.17362(17)
N8_3 N 0.9568(2) 0.6896(2) 0.25078(18)
C25_3 C 0.8473(2) 0.8507(2) 0.1618(2)
C26_3 C 0.8423(2) 0.7852(2) 0.20421(19)
C27_3 C 0.7760(2) 0.7419(2) 0.2436(2)
H7_3 H 0.7356 0.7544 0.2422
C28_3 C 0.7663(2) 0.6786(2) 0.2866(2)
H8_3 H 0.7200 0.6512 0.3121
C29_3 C 0.8233(2) 0.6575(2) 0.2911(2)
C30_3 C 0.8938(2) 0.7014(2) 0.25221(19)
C31_3 C 0.9030(2) 0.7639(2) 0.20814(18)
C32_3 C 0.8122(2) 0.5908(2) 0.33622(19)
N9_3 N 0.2037(2) 0.1760(3) 0.17362(17)
N10_3 N 0.3104(2) 0.2673(3) 0.25078(18)
S6_3 S 0.24848(8) 0.26797(11) 0.19816(7)
C34_3 C 0.2148(2) 0.0572(3) 0.20421(19)
C35_3 C 0.2581(2) 0.0342(3) 0.2436(2)
C36_3 C 0.3214(2) 0.0878(3) 0.2866(2)
H10_3 H 0.3488 0.0689 0.3121
C37_3 C 0.3425(2) 0.1659(3) 0.2911(2)
C38_3 C 0.2986(2) 0.1925(3) 0.25221(19)
C39_3 C 0.2361(2) 0.1392(3) 0.20814(18)
C40_3 C 0.4092(2) 0.2215(3) 0.33622(19)
O22_3 O 0.98626(23) 0.08646(17) 0.13340(15)
N11_3 N 0.8240(3) 0.0278(2) 0.17362(17)
N12_3 N 0.7327(3) 0.0432(2) 0.25078(18)
C42_3 C 0.9428(3) 0.1577(2) 0.20421(19)
C43_3 C 0.9658(3) 0.2240(2) 0.2436(2)
C44_3 C 0.9122(3) 0.2337(2) 0.2866(2)
H12_3 H 0.9311 0.2800 0.3121
C45_3 C 0.8341(3) 0.1767(2) 0.2911(2)
C46_3 C 0.8075(3) 0.1062(2) 0.25221(19)
C47_3 C 0.8608(3) 0.0970(2) 0.20814(18)
C48_3 C 0.7785(3) 0.1878(2) 0.33622(19)
H13_3 H 0.703501 0.684544 0.0551911
H14_3 H 0.315456 0.0189569 0.0551911
H15_3 H 0.981043 0.296499 0.0551911
H16_3 H 0.963165 0.648789 0.278142
H17_3 H 0.685624 0.0368345 0.278142
H18_3 H 0.351211 0.314376 0.278142
C8_3 C 0.8544(2) 0.7426(2) 0.99712(19)
C16_3 C 0.2574(2) 0.1119(3) 0.99712(19)
C24_3 C 0.8881(3) 0.1456(2) 0.99712(19)
C33_3 C 0.1493(2) 0.9967(3) 0.1618(2)
H9_3 H 0.2456 0.9813 0.2422
S7_3 S 0.73203(11) 0.98052(7) 0.19816(7)
loop_
_geom_bond_atom_site_label_1
_geom_bond_atom_site_label_2
_geom_bond_site_symmetry_1
_geom_bond_site_symmetry_2
O3 C8 1_555 1_555
O4 C8 1_555 1_555
C8 C5 1_555 1_555
Cd4 O3 1_555 1_555
O13 C25 1_555 1_555
O14 Cd4 1_555 1_555
N7 Cd4 1_555 1_555
N8 S5 1_555 1_555
S5 N7 1_555 1_555
C25 O14 1_555 1_555
C26 C25 1_555 1_555
C27 C26 1_555 1_555
H7 C27 1_555 1_555
C28 C27 1_555 1_555
C30 N8 1_555 1_555
C31 N7 1_555 1_555
Cd8 O3 1_555 1_555
Cd12 O13 1_555 1_555
O26 Cd4 1_555 1_555
O29 Cd4 1_555 1_555
O36 Cd4 1_555 1_555
O42 Cd4 1_555 1_555
S10 Cd4 1_555 1_555
O4 Cd8 1_555 1_555
O14 Cd12 1_555 1_555
C26 C31 1_555 1_555
C30 C31 1_555 1_555
Cd8 S10 1_555 1_555
Cd12 S10 1_555 1_555
Cd1 O2 1_555 1_555
O1 C1 1_555 1_555
O2 C1 1_555 1_555
N1 Cd1 1_555 1_555
N2 S1 1_555 1_555
S1 N1 1_555 1_555
S2 Cd1 1_555 1_555
C1 C2 1_555 1_555
C2 C3 1_555 1_555
C3 H1 1_555 1_555
C4 C3 1_555 1_555
C6 N2 1_555 1_555
C7 N1 1_555 1_555
Cd2 S2 1_555 1_555
O5 Cd1 1_555 1_555
O6 Cd1 1_555 1_555
N3 Cd2 1_555 1_555
N4 S3 1_555 1_555
S3 N3 1_555 1_555
C9 O5 1_555 1_555
C10 C9 1_555 1_555
C11 C10 1_555 1_555
H3 C11 1_555 1_555
C12 C11 1_555 1_555
C14 N4 1_555 1_555
C15 N3 1_555 1_555
Cd3 O1 1_555 1_555
O9 Cd2 1_555 1_555
O10 Cd2 1_555 1_555
O11 C24 1_555 1_555
O12 C24 1_555 1_555
N5 Cd3 1_555 1_555
N6 S4 1_555 1_555
S4 N5 1_555 1_555
C17 O9 1_555 1_555
C18 C17 1_555 1_555
C19 C18 1_555 1_555
H5 C19 1_555 1_555
C20 C19 1_555 1_555
H6 C20 1_555 1_555
C21 C20 1_555 1_555
C22 N6 1_555 1_555
C23 N5 1_555 1_555
C24 C21 1_555 1_555
O15 Cd1 1_555 1_555
O16 C32 1_555 1_555
C32 O15 1_555 1_555
O19 Cd2 1_555 1_555
O20 C40 1_555 1_555
C40 O19 1_555 1_555
Cd12 O11 1_555 1_555
O21 C41 1_555 1_555
O22 Cd12 1_555 1_555
O23 Cd3 1_555 1_555
O24 C48 1_555 1_555
N11 Cd12 1_555 1_555
N12 S7 1_555 1_555
S7 N11 1_555 1_555
C41 O22 1_555 1_555
C42 C41 1_555 1_555
C43 C42 1_555 1_555
H11 C43 1_555 1_555
C44 C43 1_555 1_555
H12 C44 1_555 1_555
C45 C44 1_555 1_555
C46 N12 1_555 1_555
C47 N11 1_555 1_555
C48 O23 1_555 1_555
Cd7 O11 1_555 1_555
Cd11 O21 1_555 1_555
Cd13 S2 1_555 1_555
Cd14 S2 1_555 1_555
Cd15 S2 1_555 1_555
O31 Cd2 1_555 1_555
O32 Cd3 1_555 1_555
O33 Cd1 1_555 1_555
O35 Cd12 1_555 1_555
O37 Cd2 1_555 1_555
O38 Cd3 1_555 1_555
O39 Cd1 1_555 1_555
O41 Cd12 1_555 1_555
O2 Cd3 1_555 1_555
S2 Cd3 1_555 1_555
C2 C7 1_555 1_555
C6 C7 1_555 1_555
Cd2 O6 1_555 1_555
O6 C9 1_555 1_555
C10 C15 1_555 1_555
C14 C15 1_555 1_555
Cd3 O10 1_555 1_555
O10 C17 1_555 1_555
O12 Cd7 1_555 1_555
C18 C23 1_555 1_555
C21 C22 1_555 1_555
C22 C23 1_555 1_555
O15 Cd14 1_555 1_555
O16 Cd14 1_555 1_555
C29 C32 1_555 1_555
O19 Cd15 1_555 1_555
O20 Cd15 1_555 1_555
C37 C40 1_555 1_555
O22 Cd11 1_555 1_555
O23 Cd13 1_555 1_555
O24 Cd13 1_555 1_555
C42 C47 1_555 1_555
C45 C46 1_555 1_555
C45 C48 1_555 1_555
C46 C47 1_555 1_555
Cd7 S10 1_555 1_555
Cd11 S10 1_555 1_555
Cd13 O31 1_555 1_555
Cd14 O32 1_555 1_555
Cd15 O33 1_555 1_555
N6 H15 1_555 1_555
N12 H17 1_555 1_555
O7 C16 1_555 1_555
O8 C16 1_555 1_555
C16 C13 1_555 1_555
Cd11 O7 1_555 1_555
O26 C33 1_555 1_555
O29 Cd11 1_555 1_555
N9 Cd11 1_555 1_555
N10 S6 1_555 1_555
S6 N9 1_555 1_555
C33 O29 1_555 1_555
C34 C33 1_555 1_555
C35 C34 1_555 1_555
H9 C35 1_555 1_555
C36 C35 1_555 1_555
C38 N10 1_555 1_555
C39 N9 1_555 1_555
Cd9 O7 1_555 1_555
O34 Cd11 1_555 1_555
O40 Cd11 1_555 1_555
O8 Cd9 1_555 1_555
C34 C39 1_555 1_555
C38 C39 1_555 1_555
Cd9 S10 1_555 1_555
O16_2 C32_2 1_555 1_555
Cd14_2 S2_2 1_555 1_555
O16_2 Cd14_2 1_555 1_555
Cd14_2 O32_2 1_555 1_555
O1_2 C1_2 1_555 1_555
O2_2 C1_2 1_555 1_555
O31 C8_2 1_555 1_555
O37 C8_2 1_555 1_555
C1_2 C2_2 1_555 1_555
C2_2 C3_2 1_555 1_555
C3_2 H1_2 1_555 1_555
C4_2 C3_2 1_555 1_555
H2_2 C4_2 1_555 1_555
C5_2 C4_2 1_555 1_555
C6_2 N2_2 1_555 1_555
C7_2 N1_2 1_555 1_555
C8_2 C5_2 1_555 1_555
Cd3_2 O1_2 1_555 1_555
O13_2 C25_2 1_555 1_555
O14_2 Cd13 1_555 1_555
N7_2 Cd13 1_555 1_555
N8_2 S5_2 1_555 1_555
S5_2 N7_2 1_555 1_555
C25_2 O14_2 1_555 1_555
C26_2 C25_2 1_555 1_555
C27_2 C26_2 1_555 1_555
H7_2 C27_2 1_555 1_555
C28_2 C27_2 1_555 1_555
H8_2 C28_2 1_555 1_555
C29_2 C28_2 1_555 1_555
C30_2 N8_2 1_555 1_555
C31_2 N7_2 1_555 1_555
Cd15 O13_2 1_555 1_555
O26_2 Cd13 1_555 1_555
O29_2 Cd13 1_555 1_555
O38_2 Cd3_2 1_555 1_555
O2_2 Cd3_2 1_555 1_555
S2_3 Cd3_2 1_555 1_555
C2_2 C7_2 1_555 1_555
C5_2 C6_2 1_555 1_555
C6_2 C7_2 1_555 1_555
O14_2 Cd15 1_555 1_555
C26_2 C31_2 1_555 1_555
C29_2 C30_2 1_555 1_555
C30_2 C31_2 1_555 1_555
N2_2 H13_2 1_555 1_555
N8_2 H16_2 1_555 1_555
O24_2 C48_2 1_555 1_555
Cd13_2 S2_4 1_555 1_555
O24_2 Cd13_2 1_555 1_555
O33 C24_2 1_555 1_555
O39 C24_2 1_555 1_555
C19_2 C18_2 1_555 1_555
C20_2 C19_2 1_555 1_555
H6_2 C20_2 1_555 1_555
C21_2 C20_2 1_555 1_555
C22_2 N6_2 1_555 1_555
C23_2 N5_2 1_555 1_555
C24_2 C21_2 1_555 1_555
O21_2 C41_2 1_555 1_555
O22_2 Cd15 1_555 1_555
N11_2 Cd15 1_555 1_555
N12_2 S7_2 1_555 1_555
S7_2 N11_2 1_555 1_555
C41_2 O22_2 1_555 1_555
C42_2 C41_2 1_555 1_555
C43_2 C42_2 1_555 1_555
H11_2 C43_2 1_555 1_555
C44_2 C43_2 1_555 1_555
H12_2 C44_2 1_555 1_555
C45_2 C44_2 1_555 1_555
C46_2 N12_2 1_555 1_555
C47_2 N11_2 1_555 1_555
Cd14 O21_2 1_555 1_555
C18_2 C23_2 1_555 1_555
C21_2 C22_2 1_555 1_555
C22_2 C23_2 1_555 1_555
O22_2 Cd14 1_555 1_555
C42_2 C47_2 1_555 1_555
C45_2 C46_2 1_555 1_555
C46_2 C47_2 1_555 1_555
N6_2 H15_2 1_555 1_555
N12_2 H17_2 1_555 1_555
S2_7 Cd1_2 1_555 1_555
O5_2 Cd1_2 1_555 1_555
C9_2 O5_2 1_555 1_555
O39_2 Cd1_2 1_555 1_555
O20_2 C40_2 1_555 1_555
Cd15_2 S2_8 1_555 1_555
O20_2 Cd15_2 1_555 1_555
Cd2_2 S2_9 1_555 1_555
O32 C16_2 1_555 1_555
O38 C16_2 1_555 1_555
N3_2 Cd2_2 1_555 1_555
N4_2 S3_2 1_555 1_555
S3_2 N3_2 1_555 1_555
C11_2 C10_2 1_555 1_555
C12_2 C11_2 1_555 1_555
H4_2 C12_2 1_555 1_555
C13_2 C12_2 1_555 1_555
C14_2 N4_2 1_555 1_555
C15_2 N3_2 1_555 1_555
C16_2 C13_2 1_555 1_555
O9_2 Cd2_2 1_555 1_555
C17_2 O9_2 1_555 1_555
O26_2 C33_2 1_555 1_555
O29_2 Cd14 1_555 1_555
O19_2 Cd2_2 1_555 1_555
N9_2 Cd14 1_555 1_555
N10_2 S6_2 1_555 1_555
S6_2 N9_2 1_555 1_555
C33_2 O29_2 1_555 1_555
C34_2 C33_2 1_555 1_555
C35_2 C34_2 1_555 1_555
H9_2 C35_2 1_555 1_555
C36_2 C35_2 1_555 1_555
H10_2 C36_2 1_555 1_555
C37_2 C36_2 1_555 1_555
C38_2 N10_2 1_555 1_555
C39_2 N9_2 1_555 1_555
O37_2 Cd2_2 1_555 1_555
Cd2_2 O6_2 1_555 1_555
C10_2 C15_2 1_555 1_555
C13_2 C14_2 1_555 1_555
C14_2 C15_2 1_555 1_555
C34_2 C39_2 1_555 1_555
C37_2 C38_2 1_555 1_555
C38_2 C39_2 1_555 1_555
N4_2 H14_2 1_555 1_555
N10_2 H18_2 1_555 1_555
O21_3 C41_3 1_555 1_555
Cd14_2 O21_3 1_555 1_555
O26_3 Cd13_2 1_555 1_555
Cd7 O2_3 1_555 1_555
O1_3 C1_3 1_555 1_555
O2_3 C1_3 1_555 1_555
N1_3 Cd7 1_555 1_555
N2_3 S1_3 1_555 1_555
S1_3 N1_3 1_555 1_555
C1_3 C2_3 1_555 1_555
C2_3 C3_3 1_555 1_555
C3_3 H1_3 1_555 1_555
C4_3 C3_3 1_555 1_555
H2_3 C4_3 1_555 1_555
C5_3 C4_3 1_555 1_555
C6_3 N2_3 1_555 1_555
C7_3 N1_3 1_555 1_555
O5_3 Cd7 1_555 1_555
O6_3 Cd7 1_555 1_555
N3_3 Cd8 1_555 1_555
N4_3 S3_3 1_555 1_555
S3_3 N3_3 1_555 1_555
C9_3 O5_3 1_555 1_555
C10_3 C9_3 1_555 1_555
C11_3 C10_3 1_555 1_555
H3_3 C11_3 1_555 1_555
C12_3 C11_3 1_555 1_555
H4_3 C12_3 1_555 1_555
C13_3 C12_3 1_555 1_555
C14_3 N4_3 1_555 1_555
C15_3 N3_3 1_555 1_555
Cd9 O1_3 1_555 1_555
O9_3 Cd8 1_555 1_555
O10_3 Cd8 1_555 1_555
N5_3 Cd9 1_555 1_555
N6_3 S4_3 1_555 1_555
S4_3 N5_3 1_555 1_555
C17_3 O9_3 1_555 1_555
C18_3 C17_3 1_555 1_555
C19_3 C18_3 1_555 1_555
H5_3 C19_3 1_555 1_555
C20_3 C19_3 1_555 1_555
H6_3 C20_3 1_555 1_555
C21_3 C20_3 1_555 1_555
C22_3 N6_3 1_555 1_555
C23_3 N5_3 1_555 1_555
O13_3 C25_3 1_555 1_555
O34 Cd7 1_555 1_555
O40 C32_3 1_555 1_555
C25_3 O14_3 1_555 1_555
C26_3 C25_3 1_555 1_555
C27_3 C26_3 1_555 1_555
H7_3 C27_3 1_555 1_555
C28_3 C27_3 1_555 1_555
H8_3 C28_3 1_555 1_555
C29_3 C28_3 1_555 1_555
C30_3 N8_3 1_555 1_555
C31_3 N7_3 1_555 1_555
C32_3 O34 1_555 1_555
O29_3 Cd14_2 1_555 1_555
O35 Cd8 1_555 1_555
O41 C40_3 1_555 1_555
N9_3 Cd14_2 1_555 1_555
N10_3 S6_3 1_555 1_555
S6_3 N9_3 1_555 1_555
C35_3 C34_3 1_555 1_555
C36_3 C35_3 1_555 1_555
H10_3 C36_3 1_555 1_555
C37_3 C36_3 1_555 1_555
C38_3 N10_3 1_555 1_555
C39_3 N9_3 1_555 1_555
C40_3 O35 1_555 1_555
O36 Cd9 1_555 1_555
O42 C48_3 1_555 1_555
C43_3 C42_3 1_555 1_555
C44_3 C43_3 1_555 1_555
H12_3 C44_3 1_555 1_555
C45_3 C44_3 1_555 1_555
C46_3 N12_3 1_555 1_555
C47_3 N11_3 1_555 1_555
C48_3 O36 1_555 1_555
Cd15_2 O13_3 1_555 1_555
O2_3 Cd9 1_555 1_555
C2_3 C7_3 1_555 1_555
C5_3 C6_3 1_555 1_555
C6_3 C7_3 1_555 1_555
Cd8 O6_3 1_555 1_555
O6_3 C9_3 1_555 1_555
C10_3 C15_3 1_555 1_555
C13_3 C14_3 1_555 1_555
C14_3 C15_3 1_555 1_555
Cd9 O10_3 1_555 1_555
O10_3 C17_3 1_555 1_555
C18_3 C23_3 1_555 1_555
C21_3 C22_3 1_555 1_555
C22_3 C23_3 1_555 1_555
O14_3 Cd15_2 1_555 1_555
C26_3 C31_3 1_555 1_555
C29_3 C30_3 1_555 1_555
C29_3 C32_3 1_555 1_555
C30_3 C31_3 1_555 1_555
C34_3 C39_3 1_555 1_555
C37_3 C38_3 1_555 1_555
C37_3 C40_3 1_555 1_555
C38_3 C39_3 1_555 1_555
C42_3 C47_3 1_555 1_555
C45_3 C46_3 1_555 1_555
C45_3 C48_3 1_555 1_555
C46_3 C47_3 1_555 1_555
N2_3 H13_3 1_555 1_555
N4_3 H14_3 1_555 1_555
N6_3 H15_3 1_555 1_555
N8_3 H16_3 1_555 1_555
N12_3 H17_3 1_555 1_555
N10_3 H18_3 1_555 1_555
O37_2 C8_3 1_555 1_555
O38_2 C16_3 1_555 1_555
O39_2 C24_3 1_555 1_555
O26_3 C33_3 1_555 1_555

#END
