
###############################################################################
#
# This file contains modified crystal structure data generated from the
# MOF subset of the Cambridge Structural Database (CSD) v543 
# hosted by the Cambridge Crystallographic Data Centre (CCDC).
#
# This work is licensed under the Creative Commons
# Attribution-NonCommercial-ShareAlike 4.0 International License.
# To view a copy of this license, visit
# http://creativecommons.org/licenses/by-nc-sa/4.0/
# or send a letter to
# Creative Commons, PO Box 1866, Mountain View, CA 94042, USA.
#
# CIF created using the CSD Python API on 29 September 2022
# The structure has been converted into the P1 space group
# The structure has a 3D framework
# The original CSD entry LAXJAX is in the cubic crystal system
# The framework has been calculated to contain at least 10.0% void space
# The void calculation uses a probe of radius 1.32A, grid spacing 0.4
#
###############################################################################

data_LAXJAX
_chemical_formula_moiety         '(C4992 H3072 Co216 N1920 S384)n'
_symmetry_cell_setting           triclinic
_symmetry_space_group_name_H-M   'P 1'
_symmetry_Int_Tables_number      1
_space_group_name_Hall           'P 1'
loop_
_symmetry_equiv_pos_site_id
_symmetry_equiv_pos_as_xyz
1 x,y,z
_cell_length_a                   64.058(3)
_cell_length_b                   64.058(3)
_cell_length_c                   64.058(3)
_cell_angle_alpha                90
_cell_angle_beta                 90
_cell_angle_gamma                90
_cell_volume                     262857
loop_
_atom_site_label
_atom_site_type_symbol
_atom_site_fract_x
_atom_site_fract_y
_atom_site_fract_z
Co1 Co 0.630239(13) 0.380239(13) 0.0000
S1 S 0.67338(3) 0.33505(3) 0.04043(3)
C1 C 0.65680(9) 0.35202(9) 0.03104(8)
H1 H 0.6794 0.3668 0.0006
N1 N 0.64558(7) 0.36371(7) 0.02337(6)
Co3 Co 0.5000 0.369761(13) 0.119761(13)
Co6 Co 0.7500 0.369761(13) 0.130239(13)
Co8 Co 0.369761(13) 0.2500 0.130239(13)
Co9 Co 0.625000(15) 0.4978 0.1250
Co10 Co 0.6250 0.2522 0.125000(15)
Co14 Co 0.875000(15) 0.3750 0.0022
Co16 Co 0.3750 0.375000(15) 0.0022
S4 S 0.45957(3) 0.32662(3) 0.16495(3)
S5 S 0.54043(3) 0.41495(3) 0.07662(3)
S9 S 0.63014(4) 0.50374(4) 0.04995(7)
S10 S 0.61986(4) 0.50374(4) 0.20005(7)
S11 S 0.54995(7) 0.24626(4) 0.11986(4)
S12 S 0.70005(7) 0.24626(4) 0.13014(4)
C28 C 0.46896(8) 0.34320(9) 0.14798(9)
C29 C 0.53104(8) 0.39798(9) 0.09320(9)
C32 C 0.62624(11) 0.42893(10) 0.01080(11)
C33 C 0.51080(11) 0.32107(10) 0.12376(11)
C36 C 0.48920(11) 0.37376(11) 0.07107(10)
H18 H 0.4994 0.3206 0.1332
H21 H 0.5006 0.3832 0.0706
C37 C 0.62970(13) 0.44692(10) 0.02207(13)
C38 C 0.52207(13) 0.30308(10) 0.12030(13)
C41 C 0.47793(13) 0.37030(13) 0.05308(10)
H22 H 0.6233 0.4596 0.0180
H23 H 0.5180 0.2904 0.1267
H26 H 0.4820 0.3767 0.0404
C42 C 0.64254(12) 0.44629(10) 0.03937(11)
C43 C 0.53937(11) 0.30371(10) 0.10746(12)
C46 C 0.46063(11) 0.35746(12) 0.05371(10)
H27 H 0.6442 0.4582 0.0480
H28 H 0.5480 0.2918 0.1058
H31 H 0.4520 0.3558 0.0418
C47 C 0.65287(9) 0.42792(9) 0.04371(9)
C48 C 0.54371(9) 0.32208(9) 0.09713(9)
C51 C 0.45629(9) 0.34713(9) 0.07208(9)
C52 C 0.64920(8) 0.41069(8) 0.03116(8)
C53 C 0.53116(8) 0.33931(8) 0.10080(8)
C56 C 0.46884(8) 0.35080(8) 0.08931(8)
H32 H 0.6567 0.3982 0.0340
H33 H 0.5340 0.3518 0.0933
H36 H 0.4660 0.3433 0.1018
C57 C 0.73483(10) 0.35922(10) 0.08479(10)
C58 C 0.58479(10) 0.39078(10) 0.01517(10)
C61 C 0.41521(10) 0.26517(10) 0.14078(10)
H37 H 0.7449 0.3484 0.0859
H38 H 0.5859 0.4016 0.0051
H41 H 0.4141 0.2551 0.1516
C62 C 0.72252(12) 0.35990(11) 0.06714(12)
C63 C 0.56714(12) 0.39010(11) 0.02748(12)
C66 C 0.43286(12) 0.27748(12) 0.14010(11)
H42 H 0.7239 0.3496 0.0566
H43 H 0.5566 0.4004 0.0261
H46 H 0.4434 0.2761 0.1504
C67 C 0.70803(10) 0.37594(10) 0.06497(11)
C68 C 0.56497(11) 0.37406(10) 0.04197(10)
C71 C 0.43503(11) 0.29197(10) 0.12406(10)
H47 H 0.6996 0.3770 0.0528
H48 H 0.5528 0.3730 0.0504
H51 H 0.4472 0.3004 0.1230
C72 C 0.70621(9) 0.39036(9) 0.08104(9)
C73 C 0.58104(9) 0.35964(9) 0.04379(9)
C76 C 0.41896(9) 0.29379(9) 0.10964(9)
C77 C 0.71916(8) 0.38846(8) 0.09806(8)
C78 C 0.59806(8) 0.36154(8) 0.03084(8)
C81 C 0.40194(8) 0.28084(8) 0.11154(8)
H52 H 0.7181 0.3986 0.1088
H53 H 0.6088 0.3514 0.0319
H56 H 0.3912 0.2819 0.1014
C82 C 0.69079(8) 0.40748(8) 0.07995(8)
C83 C 0.57995(8) 0.34252(8) 0.05921(8)
C86 C 0.42005(8) 0.30921(8) 0.09252(8)
C87 C 0.66620(8) 0.42541(9) 0.06235(9)
C88 C 0.56235(9) 0.32459(9) 0.08380(8)
C91 C 0.43765(9) 0.33380(8) 0.07459(9)
C92 C 0.67465(8) 0.43478(9) 0.09478(9)
C93 C 0.59478(9) 0.31522(9) 0.07535(8)
C96 C 0.40522(9) 0.32535(8) 0.06522(9)
C97 C 0.67032(9) 0.44772(10) 0.11334(10)
C98 C 0.61334(10) 0.30228(10) 0.07968(9)
C101 C 0.38666(10) 0.32968(9) 0.05228(10)
C102 C 0.65403(8) 0.46197(9) 0.11304(9)
C103 C 0.61304(9) 0.28803(9) 0.09597(8)
C106 C 0.38696(9) 0.34597(8) 0.03803(9)
H57 H 0.6459 0.4631 0.1007
H58 H 0.6007 0.2869 0.1041
H61 H 0.3993 0.3541 0.0369
C107 C 0.66050(12) 0.47222(12) 0.14658(13)
C108 C 0.64658(13) 0.27778(12) 0.08950(12)
C111 C 0.35342(13) 0.33950(12) 0.02778(12)
H62 H 0.6569 0.4806 0.1583
H63 H 0.6583 0.2694 0.0931
H66 H 0.3417 0.3431 0.0194
C112 C 0.67691(15) 0.45877(14) 0.14821(16)
C113 C 0.64821(16) 0.29123(14) 0.07309(15)
C116 C 0.35179(16) 0.32309(15) 0.04123(14)
H67 H 0.6849 0.4584 0.1607
H68 H 0.6607 0.2916 0.0651
H71 H 0.3393 0.3151 0.0416
C117 C 0.68206(14) 0.44561(12) 0.13179(14)
C118 C 0.63179(14) 0.30439(12) 0.06794(14)
C121 C 0.36821(14) 0.31794(14) 0.05439(12)
H72 H 0.6930 0.4356 0.1330
H73 H 0.6330 0.3144 0.0570
H76 H 0.3670 0.3070 0.0644
C123 C 0.62871(9) 0.50068(12) 0.07519(12)
C124 C 0.62129(9) 0.50068(12) 0.17481(12)
C125 C 0.57519(12) 0.24932(12) 0.12129(9)
C126 C 0.67481(12) 0.24932(12) 0.12871(9)
N12 N 0.47663(6) 0.35442(7) 0.13629(7)
N13 N 0.52337(6) 0.38629(7) 0.10442(7)
N16 N 0.63569(7) 0.41058(7) 0.01525(7)
N17 N 0.51525(7) 0.33942(7) 0.11431(7)
N20 N 0.48475(7) 0.36431(7) 0.08942(7)
N22 N 0.73329(7) 0.37292(7) 0.10042(7)
N23 N 0.60042(7) 0.37708(7) 0.01671(7)
N26 N 0.39958(7) 0.26671(7) 0.12708(7)
N27 N 0.48329(7) 0.39958(7) 0.12292(7)
N28 N 0.51671(7) 0.37292(7) 0.14958(7)
N30 N 0.67974(7) 0.40936(8) 0.06241(7)
N31 N 0.56241(7) 0.34064(8) 0.07026(7)
N34 N 0.43759(7) 0.32026(7) 0.09064(8)
N35 N 0.68895(7) 0.41958(8) 0.09680(8)
N36 N 0.59680(8) 0.33042(8) 0.06105(7)
N39 N 0.40320(8) 0.31105(7) 0.08042(8)
N40 N 0.66331(7) 0.43855(8) 0.07770(8)
N41 N 0.57770(8) 0.31145(8) 0.08669(7)
N44 N 0.42230(8) 0.33669(7) 0.06145(8)
N45 N 0.64920(7) 0.47410(8) 0.12901(8)
N46 N 0.62901(8) 0.27590(8) 0.10080(7)
N49 N 0.37099(8) 0.35080(7) 0.02590(8)
N50 N 0.60080(7) 0.47410(8) 0.12099(8)
N51 N 0.62099(8) 0.27590(8) 0.14920(7)
N53 N 0.62765(7) 0.49880(8) 0.09258(8)
N54 N 0.62235(7) 0.49880(8) 0.15742(8)
N55 N 0.59258(8) 0.25120(8) 0.12235(7)
N56 N 0.65742(8) 0.25120(8) 0.12765(7)
N62 N 0.65127(7) 0.51957(7) 0.12549(7)
N63 N 0.59873(7) 0.51957(7) 0.12451(7)
N64 N 0.62549(7) 0.23043(7) 0.09873(7)
N65 N 0.62451(7) 0.23043(7) 0.15127(7)
Co1_2 Co 0.630239(13) 0.380239(13) 1.0000
Co2 Co 0.7478 0.375000(15) 0.8750
S2 S 0.75374(4) 0.38014(4) 0.95005(7)
C2 C 0.67893(10) 0.37624(11) 0.98920(11)
C3 C 0.69692(10) 0.37970(13) 0.97793(13)
H2 H 0.7096 0.3733 0.9820
C4 C 0.69629(10) 0.39254(12) 0.96063(11)
H3 H 0.7082 0.3942 0.9520
C5 C 0.67792(9) 0.40287(9) 0.95629(9)
C6 C 0.66069(8) 0.39920(8) 0.96884(8)
H4 H 0.6482 0.4067 0.9660
C7 C 0.60922(10) 0.48483(10) 0.91521(10)
H5 H 0.5984 0.4949 0.9141
C8 C 0.60990(11) 0.47252(12) 0.93286(12)
H6 H 0.5996 0.4739 0.9434
C9 C 0.62594(10) 0.45803(10) 0.93503(11)
H7 H 0.6270 0.4496 0.9472
C10 C 0.64036(9) 0.45621(9) 0.91896(9)
C11 C 0.63846(8) 0.46916(8) 0.90194(8)
H8 H 0.6486 0.4681 0.8912
C12 C 0.65748(8) 0.44079(8) 0.92005(8)
C13 C 0.67541(9) 0.41620(8) 0.93765(9)
C14 C 0.68478(9) 0.42465(8) 0.90522(9)
C15 C 0.69772(10) 0.42032(9) 0.88666(10)
C16 C 0.71197(9) 0.40403(8) 0.88696(9)
H9 H 0.7131 0.3959 0.8993
C17 C 0.72222(12) 0.41050(12) 0.85342(13)
H10 H 0.7306 0.4069 0.8417
C18 C 0.70877(14) 0.42691(15) 0.85179(16)
H11 H 0.7084 0.4349 0.8393
C19 C 0.69561(12) 0.43206(14) 0.86821(14)
H12 H 0.6856 0.4430 0.8670
C20 C 0.75068(12) 0.37871(9) 0.92481(12)
C21 C 0.76695(12) 0.41746(11) 0.88763(10)
H13 H 0.7566 0.4163 0.8982
C22 C 0.77819(13) 0.43525(12) 0.88661(12)
H14 H 0.7756 0.4464 0.8961
C23 C 0.79363(12) 0.43705(12) 0.87150(11)
H15 H 0.8016 0.4495 0.8704
C24 C 0.79718(10) 0.42050(9) 0.85813(9)
C25 C 0.78457(9) 0.40293(8) 0.85997(8)
H16 H 0.7867 0.3917 0.8506
C26 C 0.81333(10) 0.42150(9) 0.84173(9)
N2 N 0.66058(7) 0.38569(7) 0.98475(7)
N3 N 0.62292(7) 0.48329(7) 0.89958(7)
N4 N 0.65936(8) 0.42974(7) 0.93759(7)
N5 N 0.66958(8) 0.43895(7) 0.90320(8)
N6 N 0.68855(8) 0.41331(7) 0.92230(8)
N7 N 0.72410(8) 0.39920(7) 0.87099(8)
N8 N 0.74880(8) 0.37765(7) 0.90742(8)
N9 N 0.76957(7) 0.40127(7) 0.87451(7)
N10 N 0.81333(8) 0.40657(7) 0.82750(8)
Co4 Co 0.619761(13) 0.2500 0.880239(13)
Co5 Co 0.619761(13) 0.5000 0.869761(13)
Co7 Co 0.630239(13) 0.369761(13) 0.7500
Co11 Co 0.875000(15) 0.3750 0.7478
Co12 Co 0.8750 0.5022 0.875000(15)
Co13 Co 0.5022 0.3750 0.875000(15)
Co15 Co 0.8750 0.2478 0.875000(15)
S3 S 0.58505(3) 0.42338(3) 0.95957(3)
S6 S 0.57662(3) 0.20957(3) 0.83505(3)
S7 S 0.66495(3) 0.29043(3) 0.92338(3)
S8 S 0.75374(4) 0.36986(4) 0.79995(7)
C27 C 0.60202(9) 0.40680(9) 0.96896(8)
C30 C 0.59320(9) 0.21896(8) 0.85202(9)
C31 C 0.64798(9) 0.28104(8) 0.90680(9)
C34 C 0.57107(10) 0.26080(11) 0.87624(11)
C35 C 0.67893(10) 0.37376(11) 0.76080(11)
H17 H 0.6168 0.4294 0.9994
H19 H 0.5706 0.2494 0.8668
H20 H 0.6794 0.3832 0.7494
C39 C 0.55308(10) 0.27207(13) 0.87970(13)
C40 C 0.69692(10) 0.37030(13) 0.77207(13)
H24 H 0.5404 0.2680 0.8733
H25 H 0.7096 0.3767 0.7680
C44 C 0.55371(10) 0.28937(11) 0.89254(12)
C45 C 0.69629(10) 0.35746(12) 0.78937(11)
H29 H 0.5418 0.2980 0.8942
H30 H 0.7082 0.3558 0.7980
C49 C 0.57208(9) 0.29371(9) 0.90287(9)
C50 C 0.67792(9) 0.34713(9) 0.79371(9)
C54 C 0.58931(8) 0.28116(8) 0.89920(8)
C55 C 0.66069(8) 0.35080(8) 0.78116(8)
H34 H 0.6018 0.2840 0.9067
H35 H 0.6482 0.3433 0.7840
C59 C 0.64078(10) 0.33479(10) 0.98483(10)
C60 C 0.60922(10) 0.26517(10) 0.83479(10)
H39 H 0.6516 0.3359 0.9949
H40 H 0.5984 0.2551 0.8359
C64 C 0.64010(11) 0.31714(12) 0.97252(12)
C65 C 0.60990(11) 0.27748(12) 0.81714(12)
H44 H 0.6504 0.3066 0.9739
H45 H 0.5996 0.2761 0.8066
C69 C 0.62406(10) 0.31497(11) 0.95803(10)
C70 C 0.62594(10) 0.29197(10) 0.81497(11)
H49 H 0.6230 0.3028 0.9496
H50 H 0.6270 0.3004 0.8028
C74 C 0.60964(9) 0.33104(9) 0.95621(9)
C75 C 0.64036(9) 0.29379(9) 0.83104(9)
C79 C 0.61154(8) 0.34806(8) 0.96916(8)
C80 C 0.63846(8) 0.28084(8) 0.84806(8)
H54 H 0.6014 0.3588 0.9681
H55 H 0.6486 0.2819 0.8588
C84 C 0.59252(8) 0.32995(8) 0.94079(8)
C85 C 0.65748(8) 0.30921(8) 0.82995(8)
C89 C 0.57459(9) 0.31235(9) 0.91620(8)
C90 C 0.67541(9) 0.33380(8) 0.81235(9)
C94 C 0.56522(9) 0.34478(9) 0.92465(8)
C95 C 0.68478(9) 0.32535(8) 0.84478(9)
C99 C 0.55228(10) 0.36334(10) 0.92032(9)
C100 C 0.69772(10) 0.32968(9) 0.86334(10)
C104 C 0.53803(9) 0.36304(9) 0.90403(8)
C105 C 0.71197(9) 0.34597(8) 0.86304(9)
H59 H 0.5369 0.3507 0.8959
H60 H 0.7131 0.3541 0.8507
C109 C 0.52778(12) 0.39658(13) 0.91050(12)
C110 C 0.72222(12) 0.33950(12) 0.89658(13)
H64 H 0.5194 0.4083 0.9069
H65 H 0.7306 0.3431 0.9083
C114 C 0.54123(14) 0.39821(16) 0.92691(15)
C115 C 0.70877(14) 0.32309(15) 0.89821(16)
H69 H 0.5416 0.4107 0.9349
H70 H 0.7084 0.3151 0.9107
C119 C 0.55439(12) 0.38179(14) 0.93206(14)
C120 C 0.69561(12) 0.31794(14) 0.88179(14)
H74 H 0.5644 0.3830 0.9430
H75 H 0.6856 0.3070 0.8830
C122 C 0.75068(12) 0.37129(9) 0.82519(12)
C127 C 0.83254(11) 0.36237(10) 0.76695(12)
C128 C 0.88763(10) 0.48305(12) 0.83254(11)
C129 C 0.76695(12) 0.33254(11) 0.86237(10)
C130 C 0.83254(11) 0.38763(10) 0.98305(12)
C131 C 0.88763(10) 0.26695(12) 0.91746(11)
H77 H 0.8337 0.3518 0.7566
H78 H 0.8982 0.4934 0.8337
H79 H 0.7566 0.3337 0.8518
H80 H 0.8337 0.3982 0.9934
H81 H 0.8982 0.2566 0.9163
C132 C 0.81475(12) 0.36339(12) 0.77819(13)
C133 C 0.88661(12) 0.47181(13) 0.81475(12)
C134 C 0.77819(13) 0.31475(12) 0.86339(12)
C135 C 0.81475(12) 0.38661(12) 0.97181(13)
C136 C 0.88661(12) 0.27819(13) 0.93525(12)
H82 H 0.8036 0.3539 0.7756
H83 H 0.8961 0.4744 0.8036
H84 H 0.7756 0.3036 0.8539
H85 H 0.8036 0.3961 0.9744
H86 H 0.8961 0.2756 0.9464
C137 C 0.81295(12) 0.37850(11) 0.79363(12)
C138 C 0.87150(11) 0.45637(12) 0.81295(12)
C139 C 0.79363(12) 0.31295(12) 0.87850(11)
C140 C 0.81295(12) 0.37150(11) 0.95637(12)
C141 C 0.87150(11) 0.29363(12) 0.93705(12)
H87 H 0.8005 0.3796 0.8016
H88 H 0.8704 0.4484 0.8005
H89 H 0.8016 0.3005 0.8796
H90 H 0.8005 0.3704 0.9484
H91 H 0.8704 0.3016 0.9495
C142 C 0.82950(9) 0.39187(9) 0.79718(10)
C143 C 0.85813(9) 0.45282(10) 0.82950(9)
C144 C 0.79718(10) 0.32950(9) 0.89187(9)
C145 C 0.82950(9) 0.35813(9) 0.95282(10)
C146 C 0.85813(9) 0.29718(10) 0.92050(9)
C147 C 0.84707(8) 0.39003(8) 0.78457(9)
C148 C 0.85997(8) 0.46543(9) 0.84707(8)
C149 C 0.78457(9) 0.34707(8) 0.89003(8)
C150 C 0.84707(8) 0.35997(8) 0.96543(9)
C151 C 0.85997(8) 0.28457(9) 0.90293(8)
H92 H 0.8583 0.3994 0.7867
H93 H 0.8506 0.4633 0.8583
H94 H 0.7867 0.3583 0.8994
H95 H 0.8583 0.3506 0.9633
H96 H 0.8506 0.2867 0.8917
C152 C 0.82850(9) 0.40827(9) 0.81333(10)
C153 C 0.84173(9) 0.43667(10) 0.82850(9)
C154 C 0.81333(10) 0.32850(9) 0.90827(9)
C155 C 0.82850(9) 0.34173(9) 0.93667(10)
C156 C 0.84173(9) 0.31333(10) 0.92150(9)
N11 N 0.61371(7) 0.39558(7) 0.97663(6)
N14 N 0.60442(7) 0.22663(6) 0.86371(7)
N15 N 0.63629(7) 0.27337(6) 0.89558(7)
N18 N 0.58942(7) 0.26525(7) 0.88569(7)
N19 N 0.66058(7) 0.36431(7) 0.76525(7)
N21 N 0.61431(7) 0.23475(7) 0.91058(7)
N24 N 0.62708(7) 0.35042(7) 0.98329(7)
N25 N 0.62292(7) 0.26671(7) 0.85042(7)
N29 N 0.64958(7) 0.23329(7) 0.87708(7)
N32 N 0.59064(8) 0.31241(7) 0.92974(7)
N33 N 0.65936(8) 0.32026(7) 0.81241(7)
N37 N 0.58042(8) 0.34680(8) 0.93895(7)
N38 N 0.66958(8) 0.31105(7) 0.84680(8)
N42 N 0.56145(8) 0.32770(8) 0.91331(7)
N43 N 0.68855(8) 0.33669(7) 0.82770(8)
N47 N 0.52590(8) 0.37901(8) 0.89920(7)
N48 N 0.72410(8) 0.35080(7) 0.87901(8)
N52 N 0.74880(8) 0.37235(7) 0.84258(8)
N57 N 0.84873(7) 0.37549(7) 0.76957(7)
N58 N 0.87451(7) 0.48043(7) 0.84873(7)
N59 N 0.76957(7) 0.34873(7) 0.87549(7)
N60 N 0.84873(7) 0.37451(7) 0.98043(7)
N61 N 0.87451(7) 0.26957(7) 0.90127(7)
N66 N 0.84343(7) 0.42250(8) 0.81333(8)
N67 N 0.82750(8) 0.43667(8) 0.84343(7)
N68 N 0.81333(8) 0.34343(7) 0.92250(8)
N69 N 0.84343(7) 0.32750(8) 0.93667(8)
N70 N 0.82750(8) 0.31333(8) 0.90657(7)
Co1_3 Co 0.619761(13) 0.369761(13) 0.5000
Co2_2 Co 0.5022 0.375000(15) 0.3750
S1_2 S 0.57662(3) 0.41495(3) 0.54043(3)
S2_2 S 0.49626(4) 0.36986(4) 0.45005(7)
C1_2 C 0.59320(9) 0.39798(9) 0.53104(8)
C2_2 C 0.57107(10) 0.37376(11) 0.48920(11)
H1_2 H 0.5706 0.3832 0.5006
C3_2 C 0.55308(10) 0.37030(13) 0.47793(13)
H2_2 H 0.5404 0.3767 0.4820
C4_2 C 0.55371(10) 0.35746(12) 0.46063(11)
H3_2 H 0.5418 0.3558 0.4520
C5_2 C 0.57208(9) 0.34713(9) 0.45629(9)
C6_2 C 0.58931(8) 0.35080(8) 0.46884(8)
H4_2 H 0.6018 0.3433 0.4660
C7_2 C 0.64078(10) 0.26517(10) 0.41521(10)
H5_2 H 0.6516 0.2551 0.4141
C8_2 C 0.64010(11) 0.27748(12) 0.43286(12)
H6_2 H 0.6504 0.2761 0.4434
C9_2 C 0.62406(10) 0.29197(10) 0.43503(11)
H7_2 H 0.6230 0.3004 0.4472
C10_2 C 0.60964(9) 0.29379(9) 0.41896(9)
C11_2 C 0.61154(8) 0.28084(8) 0.40194(8)
H8_2 H 0.6014 0.2819 0.3912
C12_2 C 0.59252(8) 0.30921(8) 0.42005(8)
C13_2 C 0.57459(9) 0.33380(8) 0.43765(9)
C14_2 C 0.56522(9) 0.32535(8) 0.40522(9)
C15_2 C 0.55228(10) 0.32968(9) 0.38666(10)
C16_2 C 0.53803(9) 0.34597(8) 0.38696(9)
H9_2 H 0.5369 0.3541 0.3993
C17_2 C 0.52778(12) 0.33950(12) 0.35342(13)
H10_2 H 0.5194 0.3431 0.3417
C18_2 C 0.54123(14) 0.32309(15) 0.35179(16)
H11_2 H 0.5416 0.3151 0.3393
C19_2 C 0.55439(12) 0.31794(14) 0.36821(14)
H12_2 H 0.5644 0.3070 0.3670
C20_2 C 0.49932(12) 0.37129(9) 0.42481(12)
C21_2 C 0.48305(12) 0.33254(11) 0.38763(10)
H13_2 H 0.4934 0.3337 0.3982
C22_2 C 0.47181(13) 0.31475(12) 0.38661(12)
H14_2 H 0.4744 0.3036 0.3961
C23_2 C 0.45637(12) 0.31295(12) 0.37150(11)
H15_2 H 0.4484 0.3005 0.3704
C24_2 C 0.45282(10) 0.32950(9) 0.35813(9)
C25_2 C 0.46543(9) 0.34707(8) 0.35997(8)
H16_2 H 0.4633 0.3583 0.3506
C26_2 C 0.43667(10) 0.32850(9) 0.34173(9)
N1_2 N 0.60442(7) 0.38629(7) 0.52337(6)
N2_2 N 0.58942(7) 0.36431(7) 0.48475(7)
N3_2 N 0.62708(7) 0.26671(7) 0.39958(7)
N4_2 N 0.59064(8) 0.32026(7) 0.43759(7)
N5_2 N 0.58042(8) 0.31105(7) 0.40320(8)
N6_2 N 0.56145(8) 0.33669(7) 0.42230(8)
N7_2 N 0.52590(8) 0.35080(7) 0.37099(8)
N8_2 N 0.50120(8) 0.37235(7) 0.40742(8)
N9_2 N 0.48043(7) 0.34873(7) 0.37451(7)
N10_2 N 0.43667(8) 0.34343(7) 0.32750(8)
Co3_2 Co 0.7500 0.380239(13) 0.619761(13)
Co4_2 Co 0.630239(13) 0.5000 0.380239(13)
Co5_2 Co 0.630239(13) 0.2500 0.369761(13)
Co6_2 Co 0.5000 0.380239(13) 0.630239(13)
Co7_2 Co 0.619761(13) 0.380239(13) 0.2500
Co8_2 Co 0.880239(13) 0.5000 0.630239(13)
Co9_2 Co 0.625000(15) 0.2522 0.6250
Co10_2 Co 0.6250 0.4978 0.625000(15)
Co11_2 Co 0.375000(15) 0.3750 0.2478
Co12_2 Co 0.3750 0.2478 0.375000(15)
Co13_2 Co 0.7478 0.3750 0.375000(15)
Co14_2 Co 0.375000(15) 0.3750 0.5022
Co15_2 Co 0.3750 0.5022 0.375000(15)
Co16_2 Co 0.8750 0.375000(15) 0.5022
S3_2 S 0.66495(3) 0.32662(3) 0.45957(3)
S4_2 S 0.79043(3) 0.42338(3) 0.66495(3)
S5_2 S 0.70957(3) 0.33505(3) 0.57662(3)
S6_2 S 0.67338(3) 0.54043(3) 0.33505(3)
S7_2 S 0.58505(3) 0.45957(3) 0.42338(3)
S8_2 S 0.49626(4) 0.38014(4) 0.29995(7)
S9_2 S 0.61986(4) 0.24626(4) 0.54995(7)
S10_2 S 0.63014(4) 0.24626(4) 0.70005(7)
S11_2 S 0.70005(7) 0.50374(4) 0.61986(4)
S12_2 S 0.54995(7) 0.50374(4) 0.63014(4)
C27_2 C 0.64798(9) 0.34320(9) 0.46896(8)
C28_2 C 0.78104(8) 0.40680(9) 0.64798(9)
C29_2 C 0.71896(8) 0.35202(9) 0.59320(9)
C30_2 C 0.65680(9) 0.53104(8) 0.35202(9)
C31_2 C 0.60202(9) 0.46896(8) 0.40680(9)
C32_2 C 0.62376(11) 0.32107(10) 0.51080(11)
C33_2 C 0.73920(11) 0.42893(10) 0.62376(11)
C34_2 C 0.67893(10) 0.48920(11) 0.37624(11)
C35_2 C 0.57107(10) 0.37624(11) 0.26080(11)
C36_2 C 0.76080(11) 0.37624(11) 0.57107(10)
H17_2 H 0.6332 0.3206 0.4994
H18_2 H 0.7506 0.4294 0.6332
H19_2 H 0.6794 0.5006 0.3668
H20_2 H 0.5706 0.3668 0.2494
H21_2 H 0.7494 0.3668 0.5706
C37_2 C 0.62030(13) 0.30308(10) 0.52207(13)
C38_2 C 0.72793(13) 0.44692(10) 0.62030(13)
C39_2 C 0.69692(10) 0.47793(13) 0.37970(13)
C40_2 C 0.55308(10) 0.37970(13) 0.27207(13)
C41_2 C 0.77207(13) 0.37970(13) 0.55308(10)
H22_2 H 0.6267 0.2904 0.5180
H23_2 H 0.7320 0.4596 0.6267
H24_2 H 0.7096 0.4820 0.3733
H25_2 H 0.5404 0.3733 0.2680
H26_2 H 0.7680 0.3733 0.5404
C42_2 C 0.60746(12) 0.30371(10) 0.53937(11)
C43_2 C 0.71063(11) 0.44629(10) 0.60746(12)
C44_2 C 0.69629(10) 0.46063(11) 0.39254(12)
C45_2 C 0.55371(10) 0.39254(12) 0.28937(11)
C46_2 C 0.78937(11) 0.39254(12) 0.55371(10)
H27_2 H 0.6058 0.2918 0.5480
H28_2 H 0.7020 0.4582 0.6058
H29_2 H 0.7082 0.4520 0.3942
H30_2 H 0.5418 0.3942 0.2980
H31_2 H 0.7980 0.3942 0.5418
C47_2 C 0.59713(9) 0.32208(9) 0.54371(9)
C48_2 C 0.70629(9) 0.42792(9) 0.59713(9)
C49_2 C 0.67792(9) 0.45629(9) 0.40287(9)
C50_2 C 0.57208(9) 0.40287(9) 0.29371(9)
C51_2 C 0.79371(9) 0.40287(9) 0.57208(9)
C52_2 C 0.60080(8) 0.33931(8) 0.53116(8)
C53_2 C 0.71884(8) 0.41069(8) 0.60080(8)
C54_2 C 0.66069(8) 0.46884(8) 0.39920(8)
C55_2 C 0.58931(8) 0.39920(8) 0.28116(8)
C56_2 C 0.78116(8) 0.39920(8) 0.58931(8)
H32_2 H 0.5933 0.3518 0.5340
H33_2 H 0.7160 0.3982 0.5933
H34_2 H 0.6482 0.4660 0.4067
H35_2 H 0.6018 0.4067 0.2840
H36_2 H 0.7840 0.4067 0.6018
C57_2 C 0.51517(10) 0.39078(10) 0.58479(10)
C58_2 C 0.66521(10) 0.35922(10) 0.51517(10)
C59_2 C 0.60922(10) 0.41521(10) 0.48483(10)
C60_2 C 0.64078(10) 0.48483(10) 0.33479(10)
C61_2 C 0.83479(10) 0.48483(10) 0.64078(10)
H37_2 H 0.5051 0.4016 0.5859
H38_2 H 0.6641 0.3484 0.5051
H39_2 H 0.5984 0.4141 0.4949
H40_2 H 0.6516 0.4949 0.3359
H41_2 H 0.8359 0.4949 0.6516
C62_2 C 0.52748(12) 0.39010(11) 0.56714(12)
C63_2 C 0.68286(12) 0.35990(11) 0.52748(12)
C64_2 C 0.60990(11) 0.43286(12) 0.47252(12)
C65_2 C 0.64010(11) 0.47252(12) 0.31714(12)
C66_2 C 0.81714(12) 0.47252(12) 0.64010(11)
H42_2 H 0.5261 0.4004 0.5566
H43_2 H 0.6934 0.3496 0.5261
H44_2 H 0.5996 0.4434 0.4739
H45_2 H 0.6504 0.4739 0.3066
H46_2 H 0.8066 0.4739 0.6504
C67_2 C 0.54197(10) 0.37406(10) 0.56497(11)
C68_2 C 0.68503(11) 0.37594(10) 0.54197(10)
C69_2 C 0.62594(10) 0.43503(11) 0.45803(10)
C70_2 C 0.62406(10) 0.45803(10) 0.31497(11)
C71_2 C 0.81497(11) 0.45803(10) 0.62406(10)
H47_2 H 0.5504 0.3730 0.5528
H48_2 H 0.6972 0.3770 0.5504
H49_2 H 0.6270 0.4472 0.4496
H50_2 H 0.6230 0.4496 0.3028
H51_2 H 0.8028 0.4496 0.6230
C72_2 C 0.54379(9) 0.35964(9) 0.58104(9)
C73_2 C 0.66896(9) 0.39036(9) 0.54379(9)
C74_2 C 0.64036(9) 0.41896(9) 0.45621(9)
C75_2 C 0.60964(9) 0.45621(9) 0.33104(9)
C76_2 C 0.83104(9) 0.45621(9) 0.60964(9)
C77_2 C 0.53084(8) 0.36154(8) 0.59806(8)
C78_2 C 0.65194(8) 0.38846(8) 0.53084(8)
C79_2 C 0.63846(8) 0.40194(8) 0.46916(8)
C80_2 C 0.61154(8) 0.46916(8) 0.34806(8)
C81_2 C 0.84806(8) 0.46916(8) 0.61154(8)
H52_2 H 0.5319 0.3514 0.6088
H53_2 H 0.6412 0.3986 0.5319
H54_2 H 0.6486 0.3912 0.4681
H55_2 H 0.6014 0.4681 0.3588
H56_2 H 0.8588 0.4681 0.6014
C82_2 C 0.55921(8) 0.34252(8) 0.57995(8)
C83_2 C 0.67005(8) 0.40748(8) 0.55921(8)
C84_2 C 0.65748(8) 0.42005(8) 0.44079(8)
C85_2 C 0.59252(8) 0.44079(8) 0.32995(8)
C86_2 C 0.82995(8) 0.44079(8) 0.59252(8)
C87_2 C 0.58380(8) 0.32459(9) 0.56235(9)
C88_2 C 0.68765(9) 0.42541(9) 0.58380(8)
C89_2 C 0.67541(9) 0.43765(9) 0.41620(8)
C90_2 C 0.57459(9) 0.41620(8) 0.31235(9)
C91_2 C 0.81235(9) 0.41620(8) 0.57459(9)
C92_2 C 0.57535(8) 0.31522(9) 0.59478(9)
C93_2 C 0.65522(9) 0.43478(9) 0.57535(8)
C94_2 C 0.68478(9) 0.40522(9) 0.42465(8)
C95_2 C 0.56522(9) 0.42465(8) 0.34478(9)
C96_2 C 0.84478(9) 0.42465(8) 0.56522(9)
C97_2 C 0.57968(9) 0.30228(10) 0.61334(10)
C98_2 C 0.63666(10) 0.44772(10) 0.57968(9)
C99_2 C 0.69772(10) 0.38666(10) 0.42032(9)
C100_2 C 0.55228(10) 0.42032(9) 0.36334(10)
C101_2 C 0.86334(10) 0.42032(9) 0.55228(10)
C102_2 C 0.59597(8) 0.28803(9) 0.61304(9)
C103_2 C 0.63696(9) 0.46197(9) 0.59597(8)
C104_2 C 0.71197(9) 0.38696(9) 0.40403(8)
C105_2 C 0.53803(9) 0.40403(8) 0.36304(9)
C106_2 C 0.86304(9) 0.40403(8) 0.53803(9)
H57_2 H 0.6041 0.2869 0.6007
H58_2 H 0.6493 0.4631 0.6041
H59_2 H 0.7131 0.3993 0.3959
H60_2 H 0.5369 0.3959 0.3507
H61_2 H 0.8507 0.3959 0.5369
C107_2 C 0.58950(12) 0.27778(12) 0.64658(13)
C108_2 C 0.60342(13) 0.47222(12) 0.58950(12)
C109_2 C 0.72222(12) 0.35342(13) 0.41050(12)
C110_2 C 0.52778(12) 0.41050(12) 0.39658(13)
C111_2 C 0.89658(13) 0.41050(12) 0.52778(12)
H62_2 H 0.5931 0.2694 0.6583
H63_2 H 0.5917 0.4806 0.5931
H64_2 H 0.7306 0.3417 0.4069
H65_2 H 0.5194 0.4069 0.4083
H66_2 H 0.9083 0.4069 0.5194
C112_2 C 0.57309(15) 0.29123(14) 0.64821(16)
C113_2 C 0.60179(16) 0.45877(14) 0.57309(15)
C114_2 C 0.70877(14) 0.35179(16) 0.42691(15)
C115_2 C 0.54123(14) 0.42691(15) 0.39821(16)
C116_2 C 0.89821(16) 0.42691(15) 0.54123(14)
H67_2 H 0.5651 0.2916 0.6607
H68_2 H 0.5893 0.4584 0.5651
H69_2 H 0.7084 0.3393 0.4349
H70_2 H 0.5416 0.4349 0.4107
H71_2 H 0.9107 0.4349 0.5416
C117_2 C 0.56794(14) 0.30439(12) 0.63179(14)
C118_2 C 0.61821(14) 0.44561(12) 0.56794(14)
C119_2 C 0.69561(12) 0.36821(14) 0.43206(14)
C120_2 C 0.55439(12) 0.43206(14) 0.38179(14)
C121_2 C 0.88179(14) 0.43206(14) 0.55439(12)
H72_2 H 0.5570 0.3144 0.6330
H73_2 H 0.6170 0.4356 0.5570
H74_2 H 0.6856 0.3670 0.4430
H75_2 H 0.5644 0.4430 0.3830
H76_2 H 0.8830 0.4430 0.5644
C122_2 C 0.49932(12) 0.37871(9) 0.32519(12)
C123_2 C 0.62129(9) 0.24932(12) 0.57519(12)
C124_2 C 0.62871(9) 0.24932(12) 0.67481(12)
C125_2 C 0.67481(12) 0.50068(12) 0.62129(9)
C126_2 C 0.57519(12) 0.50068(12) 0.62871(9)
C127_2 C 0.41746(11) 0.38763(10) 0.26695(12)
C128_2 C 0.36237(10) 0.26695(12) 0.33254(11)
C129_2 C 0.48305(12) 0.41746(11) 0.36237(10)
C130_2 C 0.41746(11) 0.36237(10) 0.48305(12)
C131_2 C 0.36237(10) 0.48305(12) 0.41746(11)
H77_2 H 0.4163 0.3982 0.2566
H78_2 H 0.3518 0.2566 0.3337
H79_2 H 0.4934 0.4163 0.3518
H80_2 H 0.4163 0.3518 0.4934
H81_2 H 0.3518 0.4934 0.4163
C132_2 C 0.43525(12) 0.38661(12) 0.27819(13)
C133_2 C 0.36339(12) 0.27819(13) 0.31475(12)
C134_2 C 0.47181(13) 0.43525(12) 0.36339(12)
C135_2 C 0.43525(12) 0.36339(12) 0.47181(13)
C136_2 C 0.36339(12) 0.47181(13) 0.43525(12)
H82_2 H 0.4464 0.3961 0.2756
H83_2 H 0.3539 0.2756 0.3036
H84_2 H 0.4744 0.4464 0.3539
H85_2 H 0.4464 0.3539 0.4744
H86_2 H 0.3539 0.4744 0.4464
C137_2 C 0.43705(12) 0.37150(11) 0.29363(12)
C138_2 C 0.37850(11) 0.29363(12) 0.31295(12)
C139_2 C 0.45637(12) 0.43705(12) 0.37850(11)
C140_2 C 0.43705(12) 0.37850(11) 0.45637(12)
C141_2 C 0.37850(11) 0.45637(12) 0.43705(12)
H87_2 H 0.4495 0.3704 0.3016
H88_2 H 0.3796 0.3016 0.3005
H89_2 H 0.4484 0.4495 0.3796
H90_2 H 0.4495 0.3796 0.4484
H91_2 H 0.3796 0.4484 0.4495
C142_2 C 0.42050(9) 0.35813(9) 0.29718(10)
C143_2 C 0.39187(9) 0.29718(10) 0.32950(9)
C144_2 C 0.45282(10) 0.42050(9) 0.39187(9)
C145_2 C 0.42050(9) 0.39187(9) 0.45282(10)
C146_2 C 0.39187(9) 0.45282(10) 0.42050(9)
C147_2 C 0.40293(8) 0.35997(8) 0.28457(9)
C148_2 C 0.39003(8) 0.28457(9) 0.34707(8)
C149_2 C 0.46543(9) 0.40293(8) 0.39003(8)
C150_2 C 0.40293(8) 0.39003(8) 0.46543(9)
C151_2 C 0.39003(8) 0.46543(9) 0.40293(8)
H92_2 H 0.3917 0.3506 0.2867
H93_2 H 0.3994 0.2867 0.3583
H94_2 H 0.4633 0.3917 0.3994
H95_2 H 0.3917 0.3994 0.4633
H96_2 H 0.3994 0.4633 0.3917
C152_2 C 0.42150(9) 0.34173(9) 0.31333(10)
C153_2 C 0.40827(9) 0.31333(10) 0.32850(9)
C154_2 C 0.43667(10) 0.42150(9) 0.40827(9)
C155_2 C 0.42150(9) 0.40827(9) 0.43667(10)
C156_2 C 0.40827(9) 0.43667(10) 0.42150(9)
N11_2 N 0.63629(7) 0.35442(7) 0.47663(6)
N12_2 N 0.77337(6) 0.39558(7) 0.63629(7)
N13_2 N 0.72663(6) 0.36371(7) 0.60442(7)
N14_2 N 0.64558(7) 0.52337(6) 0.36371(7)
N15_2 N 0.61371(7) 0.47663(6) 0.39558(7)
N16_2 N 0.61431(7) 0.33942(7) 0.51525(7)
N17_2 N 0.73475(7) 0.41058(7) 0.61431(7)
N18_2 N 0.66058(7) 0.48475(7) 0.38569(7)
N19_2 N 0.58942(7) 0.38569(7) 0.26525(7)
N20_2 N 0.76525(7) 0.38569(7) 0.58942(7)
N21_2 N 0.63569(7) 0.51525(7) 0.41058(7)
N22_2 N 0.51671(7) 0.37708(7) 0.60042(7)
N23_2 N 0.64958(7) 0.37292(7) 0.51671(7)
N24_2 N 0.62292(7) 0.39958(7) 0.48329(7)
N25_2 N 0.62708(7) 0.48329(7) 0.35042(7)
N26_2 N 0.85042(7) 0.48329(7) 0.62708(7)
N27_2 N 0.76671(7) 0.35042(7) 0.62292(7)
N28_2 N 0.73329(7) 0.37708(7) 0.64958(7)
N29_2 N 0.60042(7) 0.51671(7) 0.37708(7)
N30_2 N 0.57026(7) 0.34064(8) 0.56241(7)
N31_2 N 0.68759(7) 0.40936(8) 0.57026(7)
N32_2 N 0.65936(8) 0.43759(7) 0.42974(7)
N33_2 N 0.59064(8) 0.42974(7) 0.31241(7)
N34_2 N 0.81241(7) 0.42974(7) 0.59064(8)
N35_2 N 0.56105(7) 0.33042(8) 0.59680(8)
N36_2 N 0.65320(8) 0.41958(8) 0.56105(7)
N37_2 N 0.66958(8) 0.40320(8) 0.43895(7)
N38_2 N 0.58042(8) 0.43895(7) 0.34680(8)
N39_2 N 0.84680(8) 0.43895(7) 0.58042(8)
N40_2 N 0.58669(7) 0.31145(8) 0.57770(8)
N41_2 N 0.67230(8) 0.43855(8) 0.58669(7)
N42_2 N 0.68855(8) 0.42230(8) 0.41331(7)
N43_2 N 0.56145(8) 0.41331(7) 0.32770(8)
N44_2 N 0.82770(8) 0.41331(7) 0.56145(8)
N45_2 N 0.60080(7) 0.27590(8) 0.62901(8)
N46_2 N 0.62099(8) 0.47410(8) 0.60080(7)
N47_2 N 0.72410(8) 0.37099(8) 0.39920(7)
N48_2 N 0.52590(8) 0.39920(7) 0.37901(8)
N49_2 N 0.87901(8) 0.39920(7) 0.52590(8)
N50_2 N 0.64920(7) 0.27590(8) 0.62099(8)
N51_2 N 0.62901(8) 0.47410(8) 0.64920(7)
N52_2 N 0.50120(8) 0.37765(7) 0.34258(8)
N53_2 N 0.62235(7) 0.25120(8) 0.59258(8)
N54_2 N 0.62765(7) 0.25120(8) 0.65742(8)
N55_2 N 0.65742(8) 0.49880(8) 0.62235(7)
N56_2 N 0.59258(8) 0.49880(8) 0.62765(7)
N57_2 N 0.40127(7) 0.37451(7) 0.26957(7)
N58_2 N 0.37549(7) 0.26957(7) 0.34873(7)
N59_2 N 0.48043(7) 0.40127(7) 0.37549(7)
N60_2 N 0.40127(7) 0.37549(7) 0.48043(7)
N61_2 N 0.37549(7) 0.48043(7) 0.40127(7)
N62_2 N 0.59873(7) 0.23043(7) 0.62549(7)
N63_2 N 0.65127(7) 0.23043(7) 0.62451(7)
N64_2 N 0.62451(7) 0.51957(7) 0.59873(7)
N65_2 N 0.62549(7) 0.51957(7) 0.65127(7)
N66_2 N 0.40657(7) 0.32750(8) 0.31333(8)
N67_2 N 0.42250(8) 0.31333(8) 0.34343(7)
N68_2 N 0.43667(8) 0.40657(7) 0.42250(8)
N69_2 N 0.40657(7) 0.42250(8) 0.43667(8)
N70_2 N 0.42250(8) 0.43667(8) 0.40657(7)
Co5_3 Co 0.130239(13) -0.0000 0.380239(13)
S9_3 S 0.11986(4) 0.00374(4) 0.20005(7)
S10_3 S 0.13014(4) 0.00374(4) 0.04995(7)
C123_3 C 0.12129(9) 0.00068(12) 0.17481(12)
C124_3 C 0.12871(9) 0.00068(12) 0.07519(12)
N62_3 N 0.09873(7) 0.01957(7) 0.12451(7)
N63_3 N 0.15127(7) 0.01957(7) 0.12549(7)
Co1_4 Co 0.119761(13) 0.880239(13) 0.2500
Co2_3 Co 0.0022 0.875000(15) 0.3750
S1_3 S 0.07662(3) 0.83505(3) 0.20957(3)
C1_3 C 0.09320(9) 0.85202(9) 0.21896(8)
C2_3 C 0.07107(10) 0.87624(11) 0.26080(11)
H1_3 H 0.0706 0.8668 0.2494
C3_3 C 0.05308(10) 0.87970(13) 0.27207(13)
H2_3 H 0.0404 0.8733 0.2680
C4_3 C 0.05371(10) 0.89254(12) 0.28937(11)
H3_3 H 0.0418 0.8942 0.2980
C5_3 C 0.07208(9) 0.90287(9) 0.29371(9)
C6_3 C 0.08931(8) 0.89920(8) 0.28116(8)
H4_3 H 0.1018 0.9067 0.2840
C7_3 C 0.14078(10) 0.98483(10) 0.33479(10)
H5_3 H 0.1516 0.9949 0.3359
C8_3 C 0.14010(11) 0.97252(12) 0.31714(12)
H6_3 H 0.1504 0.9739 0.3066
C9_3 C 0.12406(10) 0.95803(10) 0.31497(11)
H7_3 H 0.1230 0.9496 0.3028
C10_3 C 0.10964(9) 0.95621(9) 0.33104(9)
C11_3 C 0.11154(8) 0.96916(8) 0.34806(8)
H8_3 H 0.1014 0.9681 0.3588
C12_3 C 0.09252(8) 0.94079(8) 0.32995(8)
C13_3 C 0.07459(9) 0.91620(8) 0.31235(9)
C14_3 C 0.06522(9) 0.92465(8) 0.34478(9)
C15_3 C 0.05228(10) 0.92032(9) 0.36334(10)
C16_3 C 0.03803(9) 0.90403(8) 0.36304(9)
H9_3 H 0.0369 0.8959 0.3507
C17_3 C 0.02778(12) 0.91050(12) 0.39658(13)
H10_3 H 0.0194 0.9069 0.4083
C18_3 C 0.04123(14) 0.92691(15) 0.39821(16)
H11_3 H 0.0416 0.9349 0.4107
C19_3 C 0.05439(12) 0.93206(14) 0.38179(14)
H12_3 H 0.0644 0.9430 0.3830
N1_3 N 0.10442(7) 0.86371(7) 0.22663(6)
N2_3 N 0.08942(7) 0.88569(7) 0.26525(7)
N3_3 N 0.12708(7) 0.98329(7) 0.35042(7)
N4_3 N 0.09064(8) 0.92974(7) 0.31241(7)
N5_3 N 0.08042(8) 0.93895(7) 0.34680(8)
N6_3 N 0.06145(8) 0.91331(7) 0.32770(8)
N7_3 N 0.02590(8) 0.89920(7) 0.37901(8)
N8_3 N 0.00120(8) 0.87765(7) 0.34258(8)
Co3_3 Co 0.2500 0.869761(13) 0.130239(13)
Co4_3 Co 0.130239(13) 0.7500 0.369761(13)
Co5_4 Co 0.130239(13) 1.0000 0.380239(13)
Co6_3 Co -0.0000 0.869761(13) 0.119761(13)
Co7_3 Co 0.119761(13) 0.869761(13) 0.5000
Co8_3 Co 0.380239(13) 0.7500 0.119761(13)
Co9_3 Co 0.125000(15) 0.9978 0.1250
Co10_3 Co 0.1250 0.7522 0.125000(15)
Co13_3 Co 0.2478 0.8750 0.375000(15)
Co16_3 Co 0.3750 0.875000(15) 0.2478
S3_3 S 0.16495(3) 0.92338(3) 0.29043(3)
S4_3 S 0.29043(3) 0.82662(3) 0.08505(3)
S5_3 S 0.20957(3) 0.91495(3) 0.17338(3)
S6_3 S 0.17338(3) 0.70957(3) 0.41495(3)
S7_3 S 0.08505(3) 0.79043(3) 0.32662(3)
S11_3 S 0.20005(7) 0.74626(4) 0.13014(4)
S12_3 S 0.04995(7) 0.74626(4) 0.11986(4)
C27_3 C 0.14798(9) 0.90680(9) 0.28104(8)
C28_3 C 0.28104(8) 0.84320(9) 0.10202(9)
C29_3 C 0.21896(8) 0.89798(9) 0.15680(9)
C30_3 C 0.15680(9) 0.71896(8) 0.39798(9)
C31_3 C 0.10202(9) 0.78104(8) 0.34320(9)
C32_3 C 0.12376(11) 0.92893(10) 0.23920(11)
C33_3 C 0.23920(11) 0.82107(10) 0.12624(11)
C34_3 C 0.17893(10) 0.76080(11) 0.37376(11)
C35_3 C 0.07107(10) 0.87376(11) 0.48920(11)
C36_3 C 0.26080(11) 0.87376(11) 0.17893(10)
H17_3 H 0.1332 0.9294 0.2506
H18_3 H 0.2506 0.8206 0.1168
H19_3 H 0.1794 0.7494 0.3832
H20_3 H 0.0706 0.8832 0.5006
H21_3 H 0.2494 0.8832 0.1794
C37_3 C 0.12030(13) 0.94692(10) 0.22793(13)
C38_3 C 0.22793(13) 0.80308(10) 0.12970(13)
C39_3 C 0.19692(10) 0.77207(13) 0.37030(13)
C40_3 C 0.05308(10) 0.87030(13) 0.47793(13)
C41_3 C 0.27207(13) 0.87030(13) 0.19692(10)
H22_3 H 0.1267 0.9596 0.2320
H23_3 H 0.2320 0.7904 0.1233
H24_3 H 0.2096 0.7680 0.3767
H25_3 H 0.0404 0.8767 0.4820
H26_3 H 0.2680 0.8767 0.2096
C42_3 C 0.10746(12) 0.94629(10) 0.21063(11)
C43_3 C 0.21063(11) 0.80371(10) 0.14254(12)
C44_3 C 0.19629(10) 0.78937(11) 0.35746(12)
C45_3 C 0.05371(10) 0.85746(12) 0.46063(11)
C46_3 C 0.28937(11) 0.85746(12) 0.19629(10)
H27_3 H 0.1058 0.9582 0.2020
H28_3 H 0.2020 0.7918 0.1442
H29_3 H 0.2082 0.7980 0.3558
H30_3 H 0.0418 0.8558 0.4520
H31_3 H 0.2980 0.8558 0.2082
C47_3 C 0.09713(9) 0.92792(9) 0.20629(9)
C48_3 C 0.20629(9) 0.82208(9) 0.15287(9)
C49_3 C 0.17792(9) 0.79371(9) 0.34713(9)
C50_3 C 0.07208(9) 0.84713(9) 0.45629(9)
C51_3 C 0.29371(9) 0.84713(9) 0.17792(9)
C52_3 C 0.10080(8) 0.91069(8) 0.21884(8)
C53_3 C 0.21884(8) 0.83931(8) 0.14920(8)
C54_3 C 0.16069(8) 0.78116(8) 0.35080(8)
C55_3 C 0.08931(8) 0.85080(8) 0.46884(8)
C56_3 C 0.28116(8) 0.85080(8) 0.16069(8)
H32_3 H 0.0933 0.8982 0.2160
H33_3 H 0.2160 0.8518 0.1567
H34_3 H 0.1482 0.7840 0.3433
H35_3 H 0.1018 0.8433 0.4660
H36_3 H 0.2840 0.8433 0.1482
C57_3 C 0.01517(10) 0.85922(10) 0.16521(10)
C58_3 C 0.16521(10) 0.89078(10) 0.23483(10)
C59_3 C 0.10922(10) 0.83479(10) 0.26517(10)
C60_3 C 0.14078(10) 0.76517(10) 0.41521(10)
C61_3 C 0.33479(10) 0.76517(10) 0.10922(10)
H37_3 H 0.0051 0.8484 0.1641
H38_3 H 0.1641 0.9016 0.2449
H39_3 H 0.0984 0.8359 0.2551
H40_3 H 0.1516 0.7551 0.4141
H41_3 H 0.3359 0.7551 0.0984
C62_3 C 0.02748(12) 0.85990(11) 0.18286(12)
C63_3 C 0.18286(12) 0.89010(11) 0.22252(12)
C64_3 C 0.10990(11) 0.81714(12) 0.27748(12)
C65_3 C 0.14010(11) 0.77748(12) 0.43286(12)
C66_3 C 0.31714(12) 0.77748(12) 0.10990(11)
H42_3 H 0.0261 0.8496 0.1934
H43_3 H 0.1934 0.9004 0.2239
H44_3 H 0.0996 0.8066 0.2761
H45_3 H 0.1504 0.7761 0.4434
H46_3 H 0.3066 0.7761 0.0996
C67_3 C 0.04197(10) 0.87594(10) 0.18503(11)
C68_3 C 0.18503(11) 0.87406(10) 0.20803(10)
C69_3 C 0.12594(10) 0.81497(11) 0.29197(10)
C70_3 C 0.12406(10) 0.79197(10) 0.43503(11)
C71_3 C 0.31497(11) 0.79197(10) 0.12594(10)
H47_3 H 0.0504 0.8770 0.1972
H48_3 H 0.1972 0.8730 0.1996
H49_3 H 0.1270 0.8028 0.3004
H50_3 H 0.1230 0.8004 0.4472
H51_3 H 0.3028 0.8004 0.1270
C72_3 C 0.04379(9) 0.89036(9) 0.16896(9)
C73_3 C 0.16896(9) 0.85964(9) 0.20621(9)
C74_3 C 0.14036(9) 0.83104(9) 0.29379(9)
C75_3 C 0.10964(9) 0.79379(9) 0.41896(9)
C76_3 C 0.33104(9) 0.79379(9) 0.14036(9)
C77_3 C 0.03084(8) 0.88846(8) 0.15194(8)
C78_3 C 0.15194(8) 0.86154(8) 0.21916(8)
C79_3 C 0.13846(8) 0.84806(8) 0.28084(8)
C80_3 C 0.11154(8) 0.78084(8) 0.40194(8)
C81_3 C 0.34806(8) 0.78084(8) 0.13846(8)
H52_3 H 0.0319 0.8986 0.1412
H53_3 H 0.1412 0.8514 0.2181
H54_3 H 0.1486 0.8588 0.2819
H55_3 H 0.1014 0.7819 0.3912
H56_3 H 0.3588 0.7819 0.1486
C82_3 C 0.05921(8) 0.90748(8) 0.17005(8)
C83_3 C 0.17005(8) 0.84252(8) 0.19079(8)
C84_3 C 0.15748(8) 0.82995(8) 0.30921(8)
C85_3 C 0.09252(8) 0.80921(8) 0.42005(8)
C86_3 C 0.32995(8) 0.80921(8) 0.15748(8)
C87_3 C 0.08380(8) 0.92541(9) 0.18765(9)
C88_3 C 0.18765(9) 0.82459(9) 0.16620(8)
C89_3 C 0.17541(9) 0.81235(9) 0.33380(8)
C90_3 C 0.07459(9) 0.83380(8) 0.43765(9)
C91_3 C 0.31235(9) 0.83380(8) 0.17541(9)
C92_3 C 0.07535(8) 0.93478(9) 0.15522(9)
C93_3 C 0.15522(9) 0.81522(9) 0.17465(8)
C94_3 C 0.18478(9) 0.84478(9) 0.32535(8)
C95_3 C 0.06522(9) 0.82535(8) 0.40522(9)
C96_3 C 0.34478(9) 0.82535(8) 0.18478(9)
C97_3 C 0.07968(9) 0.94772(10) 0.13666(10)
C98_3 C 0.13666(10) 0.80228(10) 0.17032(9)
C99_3 C 0.19772(10) 0.86334(10) 0.32968(9)
C100_3 C 0.05228(10) 0.82968(9) 0.38666(10)
C101_3 C 0.36334(10) 0.82968(9) 0.19772(10)
C102_3 C 0.09597(8) 0.96197(9) 0.13696(9)
C103_3 C 0.13696(9) 0.78803(9) 0.15403(8)
C104_3 C 0.21197(9) 0.86304(9) 0.34597(8)
C105_3 C 0.03803(9) 0.84597(8) 0.38696(9)
C106_3 C 0.36304(9) 0.84597(8) 0.21197(9)
H57_3 H 0.1041 0.9631 0.1493
H58_3 H 0.1493 0.7869 0.1459
H59_3 H 0.2131 0.8507 0.3541
H60_3 H 0.0369 0.8541 0.3993
H61_3 H 0.3507 0.8541 0.2131
C107_3 C 0.08950(12) 0.97222(12) 0.10342(13)
C108_3 C 0.10342(13) 0.77778(12) 0.16050(12)
C109_3 C 0.22222(12) 0.89658(13) 0.33950(12)
C110_3 C 0.02778(12) 0.83950(12) 0.35342(13)
C111_3 C 0.39658(13) 0.83950(12) 0.22222(12)
H62_3 H 0.0931 0.9806 0.0917
H63_3 H 0.0917 0.7694 0.1569
H64_3 H 0.2306 0.9083 0.3431
H65_3 H 0.0194 0.8431 0.3417
H66_3 H 0.4083 0.8431 0.2306
C112_3 C 0.07309(15) 0.95877(14) 0.10179(16)
C113_3 C 0.10179(16) 0.79123(14) 0.17691(15)
C114_3 C 0.20877(14) 0.89821(16) 0.32309(15)
C115_3 C 0.04123(14) 0.82309(15) 0.35179(16)
C116_3 C 0.39821(16) 0.82309(15) 0.20877(14)
H67_3 H 0.0651 0.9584 0.0893
H68_3 H 0.0893 0.7916 0.1849
H69_3 H 0.2084 0.9107 0.3151
H70_3 H 0.0416 0.8151 0.3393
H71_3 H 0.4107 0.8151 0.2084
C117_3 C 0.06794(14) 0.94561(12) 0.11821(14)
C118_3 C 0.11821(14) 0.80439(12) 0.18206(14)
C119_3 C 0.19561(12) 0.88179(14) 0.31794(14)
C120_3 C 0.05439(12) 0.81794(14) 0.36821(14)
C121_3 C 0.38179(14) 0.81794(14) 0.19561(12)
H72_3 H 0.0570 0.9356 0.1170
H73_3 H 0.1170 0.8144 0.1930
H74_3 H 0.1856 0.8830 0.3070
H75_3 H 0.0644 0.8070 0.3670
H76_3 H 0.3830 0.8070 0.1856
C125_3 C 0.17481(12) 0.74932(12) 0.12871(9)
C126_3 C 0.07519(12) 0.74932(12) 0.12129(9)
N11_3 N 0.13629(7) 0.89558(7) 0.27337(6)
N12_3 N 0.27337(6) 0.85442(7) 0.11371(7)
N13_3 N 0.22663(6) 0.88629(7) 0.14558(7)
N14_3 N 0.14558(7) 0.72663(6) 0.38629(7)
N15_3 N 0.11371(7) 0.77337(6) 0.35442(7)
N16_3 N 0.11431(7) 0.91058(7) 0.23475(7)
N17_3 N 0.23475(7) 0.83942(7) 0.13569(7)
N18_3 N 0.16058(7) 0.76525(7) 0.36431(7)
N19_3 N 0.08942(7) 0.86431(7) 0.48475(7)
N20_3 N 0.26525(7) 0.86431(7) 0.16058(7)
N21_3 N 0.13569(7) 0.73475(7) 0.33942(7)
N22_3 N 0.01671(7) 0.87292(7) 0.14958(7)
N23_3 N 0.14958(7) 0.87708(7) 0.23329(7)
N24_3 N 0.12292(7) 0.85042(7) 0.26671(7)
N25_3 N 0.12708(7) 0.76671(7) 0.39958(7)
N26_3 N 0.35042(7) 0.76671(7) 0.12292(7)
N27_3 N 0.26671(7) 0.89958(7) 0.12708(7)
N28_3 N 0.23329(7) 0.87292(7) 0.10042(7)
N29_3 N 0.10042(7) 0.73329(7) 0.37292(7)
N30_3 N 0.07026(7) 0.90936(8) 0.18759(7)
N31_3 N 0.18759(7) 0.84064(8) 0.17974(7)
N32_3 N 0.15936(8) 0.81241(7) 0.32026(7)
N33_3 N 0.09064(8) 0.82026(7) 0.43759(7)
N34_3 N 0.31241(7) 0.82026(7) 0.15936(8)
N35_3 N 0.06105(7) 0.91958(8) 0.15320(8)
N36_3 N 0.15320(8) 0.83042(8) 0.18895(7)
N37_3 N 0.16958(8) 0.84680(8) 0.31105(7)
N38_3 N 0.08042(8) 0.81105(7) 0.40320(8)
N39_3 N 0.34680(8) 0.81105(7) 0.16958(8)
N40_3 N 0.08669(7) 0.93855(8) 0.17230(8)
N41_3 N 0.17230(8) 0.81145(8) 0.16331(7)
N42_3 N 0.18855(8) 0.82770(8) 0.33669(7)
N43_3 N 0.06145(8) 0.83669(7) 0.42230(8)
N44_3 N 0.32770(8) 0.83669(7) 0.18855(8)
N45_3 N 0.10080(7) 0.97410(8) 0.12099(8)
N46_3 N 0.12099(8) 0.77590(8) 0.14920(7)
N47_3 N 0.22410(8) 0.87901(8) 0.35080(7)
N48_3 N 0.02590(8) 0.85080(7) 0.37099(8)
N49_3 N 0.37901(8) 0.85080(7) 0.22410(8)
N50_3 N 0.14920(7) 0.97410(8) 0.12901(8)
N51_3 N 0.12901(8) 0.77590(8) 0.10080(7)
N52_3 N 0.00120(8) 0.87235(7) 0.40742(8)
N53_3 N 0.12235(7) 0.99880(8) 0.15742(8)
N54_3 N 0.12765(7) 0.99880(8) 0.09258(8)
N55_3 N 0.15742(8) 0.75120(8) 0.12765(7)
N56_3 N 0.09258(8) 0.75120(8) 0.12235(7)
N64_3 N 0.12451(7) 0.73043(7) 0.15127(7)
N65_3 N 0.12549(7) 0.73043(7) 0.09873(7)
Co12_3 Co 0.8750 0.0022 0.375000(15)
S2_3 S 0.99626(4) 0.88014(4) 0.29995(7)
C20_3 C 0.99932(12) 0.87871(9) 0.32519(12)
C21_3 C 0.98305(12) 0.91746(11) 0.36237(10)
H13_3 H 0.9934 0.9163 0.3518
C22_3 C 0.97181(13) 0.93525(12) 0.36339(12)
H14_3 H 0.9744 0.9464 0.3539
C23_3 C 0.95637(12) 0.93705(12) 0.37850(11)
H15_3 H 0.9484 0.9495 0.3796
C24_3 C 0.95282(10) 0.92050(9) 0.39187(9)
C25_3 C 0.96543(9) 0.90293(8) 0.39003(8)
H16_3 H 0.9633 0.8917 0.3994
C26_3 C 0.93667(10) 0.92150(9) 0.40827(9)
N9_3 N 0.98043(7) 0.90127(7) 0.37549(7)
N10_3 N 0.93667(8) 0.90657(7) 0.42250(8)
Co6_4 Co 1.0000 0.869761(13) 0.119761(13)
Co11_3 Co 0.875000(15) 0.8750 0.5022
Co14_3 Co 0.875000(15) 0.8750 0.2478
Co15_3 Co 0.8750 0.7478 0.375000(15)
S8_3 S 0.99626(4) 0.86986(4) 0.45005(7)
C122_3 C 0.99932(12) 0.87129(9) 0.42481(12)
C127_3 C 0.91746(11) 0.86237(10) 0.48305(12)
C128_3 C 0.86237(10) 0.98305(12) 0.41746(11)
C129_3 C 0.98305(12) 0.83254(11) 0.38763(10)
C130_3 C 0.91746(11) 0.88763(10) 0.26695(12)
C131_3 C 0.86237(10) 0.76695(12) 0.33254(11)
H77_3 H 0.9163 0.8518 0.4934
H78_3 H 0.8518 0.9934 0.4163
H79_3 H 0.9934 0.8337 0.3982
H80_3 H 0.9163 0.8982 0.2566
H81_3 H 0.8518 0.7566 0.3337
C132_3 C 0.93525(12) 0.86339(12) 0.47181(13)
C133_3 C 0.86339(12) 0.97181(13) 0.43525(12)
C134_3 C 0.97181(13) 0.81475(12) 0.38661(12)
C135_3 C 0.93525(12) 0.88661(12) 0.27819(13)
C136_3 C 0.86339(12) 0.77819(13) 0.31475(12)
H82_3 H 0.9464 0.8539 0.4744
H83_3 H 0.8539 0.9744 0.4464
H84_3 H 0.9744 0.8036 0.3961
H85_3 H 0.9464 0.8961 0.2756
H86_3 H 0.8539 0.7756 0.3036
C137_3 C 0.93705(12) 0.87850(11) 0.45637(12)
C138_3 C 0.87850(11) 0.95637(12) 0.43705(12)
C139_3 C 0.95637(12) 0.81295(12) 0.37150(11)
C140_3 C 0.93705(12) 0.87150(11) 0.29363(12)
C141_3 C 0.87850(11) 0.79363(12) 0.31295(12)
H87_3 H 0.9495 0.8796 0.4484
H88_3 H 0.8796 0.9484 0.4495
H89_3 H 0.9484 0.8005 0.3704
H90_3 H 0.9495 0.8704 0.3016
H91_3 H 0.8796 0.8016 0.3005
C142_3 C 0.92050(9) 0.89187(9) 0.45282(10)
C143_3 C 0.89187(9) 0.95282(10) 0.42050(9)
C144_3 C 0.95282(10) 0.82950(9) 0.35813(9)
C145_3 C 0.92050(9) 0.85813(9) 0.29718(10)
C146_3 C 0.89187(9) 0.79718(10) 0.32950(9)
C147_3 C 0.90293(8) 0.89003(8) 0.46543(9)
C148_3 C 0.89003(8) 0.96543(9) 0.40293(8)
C149_3 C 0.96543(9) 0.84707(8) 0.35997(8)
C150_3 C 0.90293(8) 0.85997(8) 0.28457(9)
C151_3 C 0.89003(8) 0.78457(9) 0.34707(8)
H92_3 H 0.8917 0.8994 0.4633
H93_3 H 0.8994 0.9633 0.3917
H94_3 H 0.9633 0.8583 0.3506
H95_3 H 0.8917 0.8506 0.2867
H96_3 H 0.8994 0.7867 0.3583
C152_3 C 0.92150(9) 0.90827(9) 0.43667(10)
C153_3 C 0.90827(9) 0.93667(10) 0.42150(9)
C154_3 C 0.93667(10) 0.82850(9) 0.34173(9)
C155_3 C 0.92150(9) 0.84173(9) 0.31333(10)
C156_3 C 0.90827(9) 0.81333(10) 0.32850(9)
N57_3 N 0.90127(7) 0.87549(7) 0.48043(7)
N58_3 N 0.87549(7) 0.98043(7) 0.40127(7)
N59_3 N 0.98043(7) 0.84873(7) 0.37451(7)
N60_3 N 0.90127(7) 0.87451(7) 0.26957(7)
N61_3 N 0.87549(7) 0.76957(7) 0.34873(7)
N66_3 N 0.90657(7) 0.92250(8) 0.43667(8)
N67_3 N 0.92250(8) 0.93667(8) 0.40657(7)
N68_3 N 0.93667(8) 0.84343(7) 0.32750(8)
N69_3 N 0.90657(7) 0.82750(8) 0.31333(8)
N70_3 N 0.92250(8) 0.81333(8) 0.34343(7)
Co4_4 Co 0.119761(13) -0.0000 0.869761(13)
Co15_4 Co 0.3750 0.0022 0.875000(15)
S6_4 S 0.07662(3) 0.04043(3) 0.91495(3)
S11_4 S 0.04995(7) 0.00374(4) 0.63014(4)
S12_4 S 0.20005(7) 0.00374(4) 0.61986(4)
C30_4 C 0.09320(9) 0.03104(8) 0.89798(9)
H19_4 H 0.0706 0.0006 0.8832
C125_4 C 0.07519(12) 0.00068(12) 0.62871(9)
C126_4 C 0.17481(12) 0.00068(12) 0.62129(9)
N14_4 N 0.10442(7) 0.02337(6) 0.88629(7)
N21_4 N 0.11431(7) 0.01525(7) 0.83942(7)
N29_4 N 0.14958(7) 0.01671(7) 0.87292(7)
N64_4 N 0.12549(7) 0.01957(7) 0.65127(7)
N65_4 N 0.12451(7) 0.01957(7) 0.59873(7)
Co7_4 Co 0.130239(13) 0.880239(13) 0.0000
Co11_4 Co 0.375000(15) 0.8750 0.0022
H20_4 H 0.1794 0.8668 0.0006
Co1_5 Co 0.130239(13) 0.869761(13) 0.7500
Co2_4 Co 0.2478 0.875000(15) 0.8750
S1_4 S 0.17338(3) 0.91495(3) 0.70957(3)
S2_4 S 0.25374(4) 0.86986(4) 0.79995(7)
C1_4 C 0.15680(9) 0.89798(9) 0.71896(8)
C2_4 C 0.17893(10) 0.87376(11) 0.76080(11)
H1_4 H 0.1794 0.8832 0.7494
C3_4 C 0.19692(10) 0.87030(13) 0.77207(13)
H2_4 H 0.2096 0.8767 0.7680
C4_4 C 0.19629(10) 0.85746(12) 0.78937(11)
H3_4 H 0.2082 0.8558 0.7980
C5_4 C 0.17792(9) 0.84713(9) 0.79371(9)
C6_4 C 0.16069(8) 0.85080(8) 0.78116(8)
H4_4 H 0.1482 0.8433 0.7840
C7_4 C 0.10922(10) 0.76517(10) 0.83479(10)
H5_4 H 0.0984 0.7551 0.8359
C8_4 C 0.10990(11) 0.77748(12) 0.81714(12)
H6_4 H 0.0996 0.7761 0.8066
C9_4 C 0.12594(10) 0.79197(10) 0.81497(11)
H7_4 H 0.1270 0.8004 0.8028
C10_4 C 0.14036(9) 0.79379(9) 0.83104(9)
C11_4 C 0.13846(8) 0.78084(8) 0.84806(8)
H8_4 H 0.1486 0.7819 0.8588
C12_4 C 0.15748(8) 0.80921(8) 0.82995(8)
C13_4 C 0.17541(9) 0.83380(8) 0.81235(9)
C14_4 C 0.18478(9) 0.82535(8) 0.84478(9)
C15_4 C 0.19772(10) 0.82968(9) 0.86334(10)
C16_4 C 0.21197(9) 0.84597(8) 0.86304(9)
H9_4 H 0.2131 0.8541 0.8507
C17_4 C 0.22222(12) 0.83950(12) 0.89658(13)
H10_4 H 0.2306 0.8431 0.9083
C18_4 C 0.20877(14) 0.82309(15) 0.89821(16)
H11_4 H 0.2084 0.8151 0.9107
C19_4 C 0.19561(12) 0.81794(14) 0.88179(14)
H12_4 H 0.1856 0.8070 0.8830
C20_4 C 0.25068(12) 0.87129(9) 0.82519(12)
C21_4 C 0.26695(12) 0.83254(11) 0.86237(10)
H13_4 H 0.2566 0.8337 0.8518
C22_4 C 0.27819(13) 0.81475(12) 0.86339(12)
H14_4 H 0.2756 0.8036 0.8539
C23_4 C 0.29363(12) 0.81295(12) 0.87850(11)
H15_4 H 0.3016 0.8005 0.8796
C24_4 C 0.29718(10) 0.82950(9) 0.89187(9)
C25_4 C 0.28457(9) 0.84707(8) 0.89003(8)
H16_4 H 0.2867 0.8583 0.8994
C26_4 C 0.31333(10) 0.82850(9) 0.90827(9)
N1_4 N 0.14558(7) 0.88629(7) 0.72663(6)
N2_4 N 0.16058(7) 0.86431(7) 0.76525(7)
N3_4 N 0.12292(7) 0.76671(7) 0.85042(7)
N4_4 N 0.15936(8) 0.82026(7) 0.81241(7)
N5_4 N 0.16958(8) 0.81105(7) 0.84680(8)
N6_4 N 0.18855(8) 0.83669(7) 0.82770(8)
N7_4 N 0.22410(8) 0.85080(7) 0.87901(8)
N8_4 N 0.24880(8) 0.87235(7) 0.84258(8)
N9_4 N 0.26957(7) 0.84873(7) 0.87549(7)
N10_4 N 0.31333(8) 0.84343(7) 0.92250(8)
Co3_4 Co 0.0000 0.880239(13) 0.630239(13)
Co4_5 Co 0.119761(13) 1.0000 0.869761(13)
Co5_5 Co 0.119761(13) 0.7500 0.880239(13)
Co6_5 Co 0.2500 0.880239(13) 0.619761(13)
Co7_5 Co 0.130239(13) 0.880239(13) 1.0000
Co9_4 Co 0.125000(15) 0.7522 0.6250
Co10_4 Co 0.1250 0.9978 0.625000(15)
Co12_4 Co 0.3750 0.7478 0.875000(15)
Co13_4 Co 0.0022 0.8750 0.875000(15)
Co14_4 Co 0.375000(15) 0.8750 0.7478
S3_4 S 0.08505(3) 0.82662(3) 0.79043(3)
S5_4 S 0.04043(3) 0.83505(3) 0.67338(3)
S7_4 S 0.16495(3) 0.95957(3) 0.82662(3)
S8_4 S 0.25374(4) 0.88014(4) 0.95005(7)
S9_4 S 0.13014(4) 0.74626(4) 0.70005(7)
S10_4 S 0.11986(4) 0.74626(4) 0.54995(7)
C27_4 C 0.10202(9) 0.84320(9) 0.78104(8)
C29_4 C 0.03104(8) 0.85202(9) 0.65680(9)
C31_4 C 0.14798(9) 0.96896(8) 0.84320(9)
C32_4 C 0.12624(11) 0.82107(10) 0.73920(11)
C33_4 C 0.01080(11) 0.92893(10) 0.62624(11)
C34_4 C 0.07107(10) 0.98920(11) 0.87376(11)
C35_4 C 0.17893(10) 0.87624(11) 0.98920(11)
H17_4 H 0.1168 0.8206 0.7506
H21_4 H 0.0006 0.8668 0.6794
C37_4 C 0.12970(13) 0.80308(10) 0.72793(13)
C38_4 C 0.02207(13) 0.94692(10) 0.62970(13)
C39_4 C 0.05308(10) 0.97793(13) 0.87030(13)
C40_4 C 0.19692(10) 0.87970(13) 0.97793(13)
H22_4 H 0.1233 0.7904 0.7320
H23_4 H 0.0180 0.9596 0.6233
H24_4 H 0.0404 0.9820 0.8767
H25_4 H 0.2096 0.8733 0.9820
C42_4 C 0.14254(12) 0.80371(10) 0.71063(11)
C43_4 C 0.03937(11) 0.94629(10) 0.64254(12)
C44_4 C 0.05371(10) 0.96063(11) 0.85746(12)
C45_4 C 0.19629(10) 0.89254(12) 0.96063(11)
H27_4 H 0.1442 0.7918 0.7020
H28_4 H 0.0480 0.9582 0.6442
H29_4 H 0.0418 0.9520 0.8558
H30_4 H 0.2082 0.8942 0.9520
C47_4 C 0.15287(9) 0.82208(9) 0.70629(9)
C48_4 C 0.04371(9) 0.92792(9) 0.65287(9)
C49_4 C 0.07208(9) 0.95629(9) 0.84713(9)
C50_4 C 0.17792(9) 0.90287(9) 0.95629(9)
C52_4 C 0.14920(8) 0.83931(8) 0.71884(8)
C53_4 C 0.03116(8) 0.91069(8) 0.64920(8)
C54_4 C 0.08931(8) 0.96884(8) 0.85080(8)
C55_4 C 0.16069(8) 0.89920(8) 0.96884(8)
H32_4 H 0.1567 0.8518 0.7160
H33_4 H 0.0340 0.8982 0.6567
H34_4 H 0.1018 0.9660 0.8433
H35_4 H 0.1482 0.9067 0.9660
C57_4 C 0.23483(10) 0.89078(10) 0.66521(10)
C58_4 C 0.08479(10) 0.85922(10) 0.73483(10)
C59_4 C 0.14078(10) 0.91521(10) 0.76517(10)
C60_4 C 0.10922(10) 0.98483(10) 0.91521(10)
H37_4 H 0.2449 0.9016 0.6641
H38_4 H 0.0859 0.8484 0.7449
H39_4 H 0.1516 0.9141 0.7551
H40_4 H 0.0984 0.9949 0.9141
C62_4 C 0.22252(12) 0.89010(11) 0.68286(12)
C63_4 C 0.06714(12) 0.85990(11) 0.72252(12)
C64_4 C 0.14010(11) 0.93286(12) 0.77748(12)
C65_4 C 0.10990(11) 0.97252(12) 0.93286(12)
H42_4 H 0.2239 0.9004 0.6934
H43_4 H 0.0566 0.8496 0.7239
H44_4 H 0.1504 0.9434 0.7761
H45_4 H 0.0996 0.9739 0.9434
C67_4 C 0.20803(10) 0.87406(10) 0.68503(11)
C68_4 C 0.06497(11) 0.87594(10) 0.70803(10)
C69_4 C 0.12406(10) 0.93503(11) 0.79197(10)
C70_4 C 0.12594(10) 0.95803(10) 0.93503(11)
H47_4 H 0.1996 0.8730 0.6972
H48_4 H 0.0528 0.8770 0.6996
H49_4 H 0.1230 0.9472 0.8004
H50_4 H 0.1270 0.9496 0.9472
C72_4 C 0.20621(9) 0.85964(9) 0.66896(9)
C73_4 C 0.08104(9) 0.89036(9) 0.70621(9)
C74_4 C 0.10964(9) 0.91896(9) 0.79379(9)
C75_4 C 0.14036(9) 0.95621(9) 0.91896(9)
C77_4 C 0.21916(8) 0.86154(8) 0.65194(8)
C78_4 C 0.09806(8) 0.88846(8) 0.71916(8)
C79_4 C 0.11154(8) 0.90194(8) 0.78084(8)
C80_4 C 0.13846(8) 0.96916(8) 0.90194(8)
H52_4 H 0.2181 0.8514 0.6412
H53_4 H 0.1088 0.8986 0.7181
H54_4 H 0.1014 0.8912 0.7819
H55_4 H 0.1486 0.9681 0.8912
C82_4 C 0.19079(8) 0.84252(8) 0.67005(8)
C83_4 C 0.07995(8) 0.90748(8) 0.69079(8)
C84_4 C 0.09252(8) 0.92005(8) 0.80921(8)
C85_4 C 0.15748(8) 0.94079(8) 0.92005(8)
C87_4 C 0.16620(8) 0.82459(9) 0.68765(9)
C88_4 C 0.06235(9) 0.92541(9) 0.66620(8)
C89_4 C 0.07459(9) 0.93765(9) 0.83380(8)
C90_4 C 0.17541(9) 0.91620(8) 0.93765(9)
C92_4 C 0.17465(8) 0.81522(9) 0.65522(9)
C93_4 C 0.09478(9) 0.93478(9) 0.67465(8)
C94_4 C 0.06522(9) 0.90522(9) 0.82535(8)
C95_4 C 0.18478(9) 0.92465(8) 0.90522(9)
C97_4 C 0.17032(9) 0.80228(10) 0.63666(10)
C98_4 C 0.11334(10) 0.94772(10) 0.67032(9)
C99_4 C 0.05228(10) 0.88666(10) 0.82968(9)
C100_4 C 0.19772(10) 0.92032(9) 0.88666(10)
C102_4 C 0.15403(8) 0.78803(9) 0.63696(9)
C103_4 C 0.11304(9) 0.96197(9) 0.65403(8)
C104_4 C 0.03803(9) 0.88696(9) 0.84597(8)
C105_4 C 0.21197(9) 0.90403(8) 0.88696(9)
H57_4 H 0.1459 0.7869 0.6493
H58_4 H 0.1007 0.9631 0.6459
H59_4 H 0.0369 0.8993 0.8541
H60_4 H 0.2131 0.8959 0.8993
C107_4 C 0.16050(12) 0.77778(12) 0.60342(13)
C108_4 C 0.14658(13) 0.97222(12) 0.66050(12)
C109_4 C 0.02778(12) 0.85342(13) 0.83950(12)
C110_4 C 0.22222(12) 0.91050(12) 0.85342(13)
H62_4 H 0.1569 0.7694 0.5917
H63_4 H 0.1583 0.9806 0.6569
H64_4 H 0.0194 0.8417 0.8431
H65_4 H 0.2306 0.9069 0.8417
C112_4 C 0.17691(15) 0.79123(14) 0.60179(16)
C113_4 C 0.14821(16) 0.95877(14) 0.67691(15)
C114_4 C 0.04123(14) 0.85179(16) 0.82309(15)
C115_4 C 0.20877(14) 0.92691(15) 0.85179(16)
H67_4 H 0.1849 0.7916 0.5893
H68_4 H 0.1607 0.9584 0.6849
H69_4 H 0.0416 0.8393 0.8151
H70_4 H 0.2084 0.9349 0.8393
C117_4 C 0.18206(14) 0.80439(12) 0.61821(14)
C118_4 C 0.13179(14) 0.94561(12) 0.68206(14)
C119_4 C 0.05439(12) 0.86821(14) 0.81794(14)
C120_4 C 0.19561(12) 0.93206(14) 0.86821(14)
H72_4 H 0.1930 0.8144 0.6170
H73_4 H 0.1330 0.9356 0.6930
H74_4 H 0.0644 0.8670 0.8070
H75_4 H 0.1856 0.9430 0.8670
C122_4 C 0.25068(12) 0.87871(9) 0.92481(12)
C123_4 C 0.12871(9) 0.74932(12) 0.67481(12)
C124_4 C 0.12129(9) 0.74932(12) 0.57519(12)
C127_4 C 0.33254(11) 0.88763(10) 0.98305(12)
C128_4 C 0.38763(10) 0.76695(12) 0.91746(11)
C129_4 C 0.26695(12) 0.91746(11) 0.88763(10)
C130_4 C 0.33254(11) 0.86237(10) 0.76695(12)
C131_4 C 0.38763(10) 0.98305(12) 0.83254(11)
H77_4 H 0.3337 0.8982 0.9934
H78_4 H 0.3982 0.7566 0.9163
H79_4 H 0.2566 0.9163 0.8982
H80_4 H 0.3337 0.8518 0.7566
H81_4 H 0.3982 0.9934 0.8337
C132_4 C 0.31475(12) 0.88661(12) 0.97181(13)
C133_4 C 0.38661(12) 0.77819(13) 0.93525(12)
C134_4 C 0.27819(13) 0.93525(12) 0.88661(12)
C135_4 C 0.31475(12) 0.86339(12) 0.77819(13)
C136_4 C 0.38661(12) 0.97181(13) 0.81475(12)
H82_4 H 0.3036 0.8961 0.9744
H83_4 H 0.3961 0.7756 0.9464
H84_4 H 0.2756 0.9464 0.8961
H85_4 H 0.3036 0.8539 0.7756
H86_4 H 0.3961 0.9744 0.8036
C137_4 C 0.31295(12) 0.87150(11) 0.95637(12)
C138_4 C 0.37150(11) 0.79363(12) 0.93705(12)
C139_4 C 0.29363(12) 0.93705(12) 0.87150(11)
C140_4 C 0.31295(12) 0.87850(11) 0.79363(12)
C141_4 C 0.37150(11) 0.95637(12) 0.81295(12)
H87_4 H 0.3005 0.8704 0.9484
H88_4 H 0.3704 0.8016 0.9495
H89_4 H 0.3016 0.9495 0.8704
H90_4 H 0.3005 0.8796 0.8016
H91_4 H 0.3704 0.9484 0.8005
C142_4 C 0.32950(9) 0.85813(9) 0.95282(10)
C143_4 C 0.35813(9) 0.79718(10) 0.92050(9)
C144_4 C 0.29718(10) 0.92050(9) 0.85813(9)
C145_4 C 0.32950(9) 0.89187(9) 0.79718(10)
C146_4 C 0.35813(9) 0.95282(10) 0.82950(9)
C147_4 C 0.34707(8) 0.85997(8) 0.96543(9)
C148_4 C 0.35997(8) 0.78457(9) 0.90293(8)
C149_4 C 0.28457(9) 0.90293(8) 0.85997(8)
C150_4 C 0.34707(8) 0.89003(8) 0.78457(9)
C151_4 C 0.35997(8) 0.96543(9) 0.84707(8)
H92_4 H 0.3583 0.8506 0.9633
H93_4 H 0.3506 0.7867 0.8917
H94_4 H 0.2867 0.8917 0.8506
H95_4 H 0.3583 0.8994 0.7867
H96_4 H 0.3506 0.9633 0.8583
C152_4 C 0.32850(9) 0.84173(9) 0.93667(10)
C153_4 C 0.34173(9) 0.81333(10) 0.92150(9)
C154_4 C 0.31333(10) 0.92150(9) 0.84173(9)
C155_4 C 0.32850(9) 0.90827(9) 0.81333(10)
C156_4 C 0.34173(9) 0.93667(10) 0.82850(9)
N11_4 N 0.11371(7) 0.85442(7) 0.77337(6)
N13_4 N 0.02337(6) 0.86371(7) 0.64558(7)
N15_4 N 0.13629(7) 0.97663(6) 0.85442(7)
N16_4 N 0.13569(7) 0.83942(7) 0.73475(7)
N17_4 N 0.01525(7) 0.91058(7) 0.63569(7)
N18_4 N 0.08942(7) 0.98475(7) 0.86431(7)
N19_4 N 0.16058(7) 0.88569(7) 0.98475(7)
N22_4 N 0.23329(7) 0.87708(7) 0.64958(7)
N23_4 N 0.10042(7) 0.87292(7) 0.73329(7)
N24_4 N 0.12708(7) 0.89958(7) 0.76671(7)
N25_4 N 0.12292(7) 0.98329(7) 0.89958(7)
N28_4 N 0.01671(7) 0.87708(7) 0.60042(7)
N30_4 N 0.17974(7) 0.84064(8) 0.68759(7)
N31_4 N 0.06241(7) 0.90936(8) 0.67974(7)
N32_4 N 0.09064(8) 0.93759(7) 0.82026(7)
N33_4 N 0.15936(8) 0.92974(7) 0.93759(7)
N35_4 N 0.18895(7) 0.83042(8) 0.65320(8)
N36_4 N 0.09680(8) 0.91958(8) 0.68895(7)
N37_4 N 0.08042(8) 0.90320(8) 0.81105(7)
N38_4 N 0.16958(8) 0.93895(7) 0.90320(8)
N40_4 N 0.16331(7) 0.81145(8) 0.67230(8)
N41_4 N 0.07770(8) 0.93855(8) 0.66331(7)
N42_4 N 0.06145(8) 0.92230(8) 0.83669(7)
N43_4 N 0.18855(8) 0.91331(7) 0.92230(8)
N45_4 N 0.14920(7) 0.77590(8) 0.62099(8)
N46_4 N 0.12901(8) 0.97410(8) 0.64920(7)
N47_4 N 0.02590(8) 0.87099(8) 0.85080(7)
N48_4 N 0.22410(8) 0.89920(7) 0.87099(8)
N50_4 N 0.10080(7) 0.77590(8) 0.62901(8)
N51_4 N 0.12099(8) 0.97410(8) 0.60080(7)
N52_4 N 0.24880(8) 0.87765(7) 0.90742(8)
N53_4 N 0.12765(7) 0.75120(8) 0.65742(8)
N54_4 N 0.12235(7) 0.75120(8) 0.59258(8)
N55_4 N 0.09258(8) 0.99880(8) 0.62765(7)
N56_4 N 0.15742(8) 0.99880(8) 0.62235(7)
N57_4 N 0.34873(7) 0.87451(7) 0.98043(7)
N58_4 N 0.37451(7) 0.76957(7) 0.90127(7)
N59_4 N 0.26957(7) 0.90127(7) 0.87451(7)
N60_4 N 0.34873(7) 0.87549(7) 0.76957(7)
N61_4 N 0.37451(7) 0.98043(7) 0.84873(7)
N62_4 N 0.15127(7) 0.73043(7) 0.62451(7)
N63_4 N 0.09873(7) 0.73043(7) 0.62549(7)
N66_4 N 0.34343(7) 0.82750(8) 0.93667(8)
N67_4 N 0.32750(8) 0.81333(8) 0.90657(7)
N68_4 N 0.31333(8) 0.90657(7) 0.82750(8)
N69_4 N 0.34343(7) 0.92250(8) 0.81333(8)
N70_4 N 0.32750(8) 0.93667(8) 0.84343(7)
Co8_4 Co 0.869761(13) 0.0000 0.619761(13)
Co3_5 Co 1.0000 0.880239(13) 0.630239(13)
Co8_5 Co 0.869761(13) 1.0000 0.619761(13)
Co16_4 Co 0.8750 0.875000(15) 0.7478
S4_4 S 0.95957(3) 0.92338(3) 0.58505(3)
C28_4 C 0.96896(8) 0.90680(9) 0.60202(9)
C36_4 C 0.98920(11) 0.87624(11) 0.67893(10)
H18_4 H 0.9994 0.9294 0.6168
C41_4 C 0.97793(13) 0.87970(13) 0.69692(10)
H26_4 H 0.9820 0.8733 0.7096
C46_4 C 0.96063(11) 0.89254(12) 0.69629(10)
H31_4 H 0.9520 0.8942 0.7082
C51_4 C 0.95629(9) 0.90287(9) 0.67792(9)
C56_4 C 0.96884(8) 0.89920(8) 0.66069(8)
H36_4 H 0.9660 0.9067 0.6482
C61_4 C 0.91521(10) 0.98483(10) 0.60922(10)
H41_4 H 0.9141 0.9949 0.5984
C66_4 C 0.93286(12) 0.97252(12) 0.60990(11)
H46_4 H 0.9434 0.9739 0.5996
C71_4 C 0.93503(11) 0.95803(10) 0.62594(10)
H51_4 H 0.9472 0.9496 0.6270
C76_4 C 0.91896(9) 0.95621(9) 0.64036(9)
C81_4 C 0.90194(8) 0.96916(8) 0.63846(8)
H56_4 H 0.8912 0.9681 0.6486
C86_4 C 0.92005(8) 0.94079(8) 0.65748(8)
C91_4 C 0.93765(9) 0.91620(8) 0.67541(9)
C96_4 C 0.90522(9) 0.92465(8) 0.68478(9)
C101_4 C 0.88666(10) 0.92032(9) 0.69772(10)
C106_4 C 0.88696(9) 0.90403(8) 0.71197(9)
H61_4 H 0.8993 0.8959 0.7131
C111_4 C 0.85342(13) 0.91050(12) 0.72222(12)
H66_4 H 0.8417 0.9069 0.7306
C116_4 C 0.85179(16) 0.92691(15) 0.70877(14)
H71_4 H 0.8393 0.9349 0.7084
C121_4 C 0.86821(14) 0.93206(14) 0.69561(12)
H76_4 H 0.8670 0.9430 0.6856
N12_4 N 0.97663(6) 0.89558(7) 0.61371(7)
N20_4 N 0.98475(7) 0.88569(7) 0.66058(7)
N26_4 N 0.89958(7) 0.98329(7) 0.62292(7)
N27_4 N 0.98329(7) 0.85042(7) 0.62708(7)
N34_4 N 0.93759(7) 0.92974(7) 0.65936(8)
N39_4 N 0.90320(8) 0.93895(7) 0.66958(8)
N44_4 N 0.92230(8) 0.91331(7) 0.68855(8)
N49_4 N 0.87099(8) 0.89920(7) 0.72410(8)
Co1_6 Co -0.0000 0.630239(13) 0.380239(13)
S1_5 S 0.04043(3) 0.67338(3) 0.33505(3)
C1_5 C 0.03104(8) 0.65680(9) 0.35202(9)
H1_5 H 0.0006 0.6794 0.3668
N1_5 N 0.02337(6) 0.64558(7) 0.36371(7)
Co3_6 Co 0.119761(13) 0.5000 0.369761(13)
Co8_6 Co 0.130239(13) 0.369761(13) 0.2500
Co9_5 Co 0.1250 0.625000(15) 0.4978
Co10_5 Co 0.125000(15) 0.6250 0.2522
Co16_5 Co 0.0022 0.3750 0.375000(15)
S4_5 S 0.16495(3) 0.45957(3) 0.32662(3)
S5_5 S 0.07662(3) 0.54043(3) 0.41495(3)
S9_5 S 0.04995(7) 0.63014(4) 0.50374(4)
S10_5 S 0.20005(7) 0.61986(4) 0.50374(4)
S11_5 S 0.11986(4) 0.54995(7) 0.24626(4)
S12_5 S 0.13014(4) 0.70005(7) 0.24626(4)
C28_5 C 0.14798(9) 0.46896(8) 0.34320(9)
C29_5 C 0.09320(9) 0.53104(8) 0.39798(9)
C32_5 C 0.01080(11) 0.62624(11) 0.42893(10)
C33_5 C 0.12376(11) 0.51080(11) 0.32107(10)
C36_5 C 0.07107(10) 0.48920(11) 0.37376(11)
H18_5 H 0.1332 0.4994 0.3206
H21_5 H 0.0706 0.5006 0.3832
C37_5 C 0.02207(13) 0.62970(13) 0.44692(10)
C38_5 C 0.12030(13) 0.52207(13) 0.30308(10)
C41_5 C 0.05308(10) 0.47793(13) 0.37030(13)
H22_5 H 0.0180 0.6233 0.4596
H23_5 H 0.1267 0.5180 0.2904
H26_5 H 0.0404 0.4820 0.3767
C42_5 C 0.03937(11) 0.64254(12) 0.44629(10)
C43_5 C 0.10746(12) 0.53937(11) 0.30371(10)
C46_5 C 0.05371(10) 0.46063(11) 0.35746(12)
H27_5 H 0.0480 0.6442 0.4582
H28_5 H 0.1058 0.5480 0.2918
H31_5 H 0.0418 0.4520 0.3558
C47_5 C 0.04371(9) 0.65287(9) 0.42792(9)
C48_5 C 0.09713(9) 0.54371(9) 0.32208(9)
C51_5 C 0.07208(9) 0.45629(9) 0.34713(9)
C52_5 C 0.03116(8) 0.64920(8) 0.41069(8)
C53_5 C 0.10080(8) 0.53116(8) 0.33931(8)
C56_5 C 0.08931(8) 0.46884(8) 0.35080(8)
H32_5 H 0.0340 0.6567 0.3982
H33_5 H 0.0933 0.5340 0.3518
H36_5 H 0.1018 0.4660 0.3433
C57_5 C 0.08479(10) 0.73483(10) 0.35922(10)
C58_5 C 0.01517(10) 0.58479(10) 0.39078(10)
C61_5 C 0.14078(10) 0.41521(10) 0.26517(10)
H37_5 H 0.0859 0.7449 0.3484
H38_5 H 0.0051 0.5859 0.4016
H41_5 H 0.1516 0.4141 0.2551
C62_5 C 0.06714(12) 0.72252(12) 0.35990(11)
C63_5 C 0.02748(12) 0.56714(12) 0.39010(11)
C66_5 C 0.14010(11) 0.43286(12) 0.27748(12)
H42_5 H 0.0566 0.7239 0.3496
H43_5 H 0.0261 0.5566 0.4004
H46_5 H 0.1504 0.4434 0.2761
C67_5 C 0.06497(11) 0.70803(10) 0.37594(10)
C68_5 C 0.04197(10) 0.56497(11) 0.37406(10)
C71_5 C 0.12406(10) 0.43503(11) 0.29197(10)
H47_5 H 0.0528 0.6996 0.3770
H48_5 H 0.0504 0.5528 0.3730
H51_5 H 0.1230 0.4472 0.3004
C72_5 C 0.08104(9) 0.70621(9) 0.39036(9)
C73_5 C 0.04379(9) 0.58104(9) 0.35964(9)
C76_5 C 0.10964(9) 0.41896(9) 0.29379(9)
C77_5 C 0.09806(8) 0.71916(8) 0.38846(8)
C78_5 C 0.03084(8) 0.59806(8) 0.36154(8)
C81_5 C 0.11154(8) 0.40194(8) 0.28084(8)
H52_5 H 0.1088 0.7181 0.3986
H53_5 H 0.0319 0.6088 0.3514
H56_5 H 0.1014 0.3912 0.2819
C82_5 C 0.07995(8) 0.69079(8) 0.40748(8)
C83_5 C 0.05921(8) 0.57995(8) 0.34252(8)
C86_5 C 0.09252(8) 0.42005(8) 0.30921(8)
C87_5 C 0.06235(9) 0.66620(8) 0.42541(9)
C88_5 C 0.08380(8) 0.56235(9) 0.32459(9)
C91_5 C 0.07459(9) 0.43765(9) 0.33380(8)
C92_5 C 0.09478(9) 0.67465(8) 0.43478(9)
C93_5 C 0.07535(8) 0.59478(9) 0.31522(9)
C96_5 C 0.06522(9) 0.40522(9) 0.32535(8)
C97_5 C 0.11334(10) 0.67032(9) 0.44772(10)
C98_5 C 0.07968(9) 0.61334(10) 0.30228(10)
C101_5 C 0.05228(10) 0.38666(10) 0.32968(9)
C102_5 C 0.11304(9) 0.65403(8) 0.46197(9)
C103_5 C 0.09597(8) 0.61304(9) 0.28803(9)
C106_5 C 0.03803(9) 0.38696(9) 0.34597(8)
H57_5 H 0.1007 0.6459 0.4631
H58_5 H 0.1041 0.6007 0.2869
H61_5 H 0.0369 0.3993 0.3541
C107_5 C 0.14658(13) 0.66050(12) 0.47222(12)
C108_5 C 0.08950(12) 0.64658(13) 0.27778(12)
C111_5 C 0.02778(12) 0.35342(13) 0.33950(12)
H62_5 H 0.1583 0.6569 0.4806
H63_5 H 0.0931 0.6583 0.2694
H66_5 H 0.0194 0.3417 0.3431
C112_5 C 0.14821(16) 0.67691(15) 0.45877(14)
C113_5 C 0.07309(15) 0.64821(16) 0.29123(14)
C116_5 C 0.04123(14) 0.35179(16) 0.32309(15)
H67_5 H 0.1607 0.6849 0.4584
H68_5 H 0.0651 0.6607 0.2916
H71_5 H 0.0416 0.3393 0.3151
C117_5 C 0.13179(14) 0.68206(14) 0.44561(12)
C118_5 C 0.06794(14) 0.63179(14) 0.30439(12)
C121_5 C 0.05439(12) 0.36821(14) 0.31794(14)
H72_5 H 0.1330 0.6930 0.4356
H73_5 H 0.0570 0.6330 0.3144
H76_5 H 0.0644 0.3670 0.3070
C123_5 C 0.07519(12) 0.62871(9) 0.50068(12)
C124_5 C 0.17481(12) 0.62129(9) 0.50068(12)
C125_5 C 0.12129(9) 0.57519(12) 0.24932(12)
C126_5 C 0.12871(9) 0.67481(12) 0.24932(12)
N12_5 N 0.13629(7) 0.47663(6) 0.35442(7)
N13_5 N 0.10442(7) 0.52337(6) 0.38629(7)
N16_5 N 0.01525(7) 0.63569(7) 0.41058(7)
N17_5 N 0.11431(7) 0.51525(7) 0.33942(7)
N20_5 N 0.08942(7) 0.48475(7) 0.36431(7)
N23_5 N 0.01671(7) 0.60042(7) 0.37708(7)
N26_5 N 0.12708(7) 0.39958(7) 0.26671(7)
N27_5 N 0.12292(7) 0.48329(7) 0.39958(7)
N28_5 N 0.14958(7) 0.51671(7) 0.37292(7)
N30_5 N 0.06241(7) 0.67974(7) 0.40936(8)
N31_5 N 0.07026(7) 0.56241(7) 0.34064(8)
N34_5 N 0.09064(8) 0.43759(7) 0.32026(7)
N35_5 N 0.09680(8) 0.68895(7) 0.41958(8)
N36_5 N 0.06105(7) 0.59680(8) 0.33042(8)
N39_5 N 0.08042(8) 0.40320(8) 0.31105(7)
N40_5 N 0.07770(8) 0.66331(7) 0.43855(8)
N41_5 N 0.08669(7) 0.57770(8) 0.31145(8)
N44_5 N 0.06145(8) 0.42230(8) 0.33669(7)
N45_5 N 0.12901(8) 0.64920(7) 0.47410(8)
N46_5 N 0.10080(7) 0.62901(8) 0.27590(8)
N49_5 N 0.02590(8) 0.37099(8) 0.35080(7)
N50_5 N 0.12099(8) 0.60080(7) 0.47410(8)
N51_5 N 0.14920(7) 0.62099(8) 0.27590(8)
N53_5 N 0.09258(8) 0.62765(7) 0.49880(8)
N54_5 N 0.15742(8) 0.62235(7) 0.49880(8)
N55_5 N 0.12235(7) 0.59258(8) 0.25120(8)
N56_5 N 0.12765(7) 0.65742(8) 0.25120(8)
N62_5 N 0.12549(7) 0.65127(7) 0.51957(7)
N63_5 N 0.12451(7) 0.59873(7) 0.51957(7)
N64_5 N 0.09873(7) 0.62549(7) 0.23043(7)
N65_5 N 0.15127(7) 0.62451(7) 0.23043(7)
Co1_7 Co 1.0000 0.630239(13) 0.380239(13)
S2_5 S 0.95005(7) 0.75374(4) 0.38014(4)
C2_5 C 0.98920(11) 0.67893(10) 0.37624(11)
C3_5 C 0.97793(13) 0.69692(10) 0.37970(13)
H2_5 H 0.9820 0.7096 0.3733
C4_5 C 0.96063(11) 0.69629(10) 0.39254(12)
H3_5 H 0.9520 0.7082 0.3942
C5_5 C 0.95629(9) 0.67792(9) 0.40287(9)
C6_5 C 0.96884(8) 0.66069(8) 0.39920(8)
H4_5 H 0.9660 0.6482 0.4067
C7_5 C 0.91521(10) 0.60922(10) 0.48483(10)
H5_5 H 0.9141 0.5984 0.4949
C8_5 C 0.93286(12) 0.60990(11) 0.47252(12)
H6_5 H 0.9434 0.5996 0.4739
C9_5 C 0.93503(11) 0.62594(10) 0.45803(10)
H7_5 H 0.9472 0.6270 0.4496
C10_5 C 0.91896(9) 0.64036(9) 0.45621(9)
C11_5 C 0.90194(8) 0.63846(8) 0.46916(8)
H8_5 H 0.8912 0.6486 0.4681
C12_5 C 0.92005(8) 0.65748(8) 0.44079(8)
C13_5 C 0.93765(9) 0.67541(9) 0.41620(8)
C14_5 C 0.90522(9) 0.68478(9) 0.42465(8)
C15_5 C 0.88666(10) 0.69772(10) 0.42032(9)
C16_5 C 0.88696(9) 0.71197(9) 0.40403(8)
H9_5 H 0.8993 0.7131 0.3959
C17_5 C 0.85342(13) 0.72222(12) 0.41050(12)
H10_5 H 0.8417 0.7306 0.4069
C18_5 C 0.85179(16) 0.70877(14) 0.42691(15)
H11_5 H 0.8393 0.7084 0.4349
C19_5 C 0.86821(14) 0.69561(12) 0.43206(14)
H12_5 H 0.8670 0.6856 0.4430
C20_5 C 0.92481(12) 0.75068(12) 0.37871(9)
C21_5 C 0.88763(10) 0.76695(12) 0.41746(11)
H13_5 H 0.8982 0.7566 0.4163
C22_5 C 0.88661(12) 0.77819(13) 0.43525(12)
H14_5 H 0.8961 0.7756 0.4464
C23_5 C 0.87150(11) 0.79363(12) 0.43705(12)
H15_5 H 0.8704 0.8016 0.4495
C24_5 C 0.85813(9) 0.79718(10) 0.42050(9)
C25_5 C 0.85997(8) 0.78457(9) 0.40293(8)
H16_5 H 0.8506 0.7867 0.3917
C26_5 C 0.84173(9) 0.81333(10) 0.42150(9)
N2_5 N 0.98475(7) 0.66058(7) 0.38569(7)
N3_5 N 0.89958(7) 0.62292(7) 0.48329(7)
N4_5 N 0.93759(7) 0.65936(8) 0.42974(7)
N5_5 N 0.90320(8) 0.66958(8) 0.43895(7)
N6_5 N 0.92230(8) 0.68855(8) 0.41331(7)
N7_5 N 0.87099(8) 0.72410(8) 0.39920(7)
N8_5 N 0.90742(8) 0.74880(8) 0.37765(7)
N9_5 N 0.87451(7) 0.76957(7) 0.40127(7)
N10_5 N 0.82750(8) 0.81333(8) 0.40657(7)
Co4_6 Co 0.880239(13) 0.619761(13) 0.2500
Co5_6 Co 0.869761(13) 0.619761(13) 0.5000
Co7_6 Co 0.7500 0.630239(13) 0.369761(13)
Co11_5 Co 0.7478 0.875000(15) 0.3750
Co13_5 Co 0.875000(15) 0.5022 0.3750
S3_5 S 0.95957(3) 0.58505(3) 0.42338(3)
S6_5 S 0.83505(3) 0.57662(3) 0.20957(3)
S7_5 S 0.92338(3) 0.66495(3) 0.29043(3)
S8_5 S 0.79995(7) 0.75374(4) 0.36986(4)
C27_5 C 0.96896(8) 0.60202(9) 0.40680(9)
C30_5 C 0.85202(9) 0.59320(9) 0.21896(8)
C31_5 C 0.90680(9) 0.64798(9) 0.28104(8)
C34_5 C 0.87624(11) 0.57107(10) 0.26080(11)
C35_5 C 0.76080(11) 0.67893(10) 0.37376(11)
H17_5 H 0.9994 0.6168 0.4294
H19_5 H 0.8668 0.5706 0.2494
H20_5 H 0.7494 0.6794 0.3832
C39_5 C 0.87970(13) 0.55308(10) 0.27207(13)
C40_5 C 0.77207(13) 0.69692(10) 0.37030(13)
H24_5 H 0.8733 0.5404 0.2680
H25_5 H 0.7680 0.7096 0.3767
C44_5 C 0.89254(12) 0.55371(10) 0.28937(11)
C45_5 C 0.78937(11) 0.69629(10) 0.35746(12)
H29_5 H 0.8942 0.5418 0.2980
H30_5 H 0.7980 0.7082 0.3558
C49_5 C 0.90287(9) 0.57208(9) 0.29371(9)
C50_5 C 0.79371(9) 0.67792(9) 0.34713(9)
C54_5 C 0.89920(8) 0.58931(8) 0.28116(8)
C55_5 C 0.78116(8) 0.66069(8) 0.35080(8)
H34_5 H 0.9067 0.6018 0.2840
H35_5 H 0.7840 0.6482 0.3433
C59_5 C 0.98483(10) 0.64078(10) 0.33479(10)
C60_5 C 0.83479(10) 0.60922(10) 0.26517(10)
H39_5 H 0.9949 0.6516 0.3359
H40_5 H 0.8359 0.5984 0.2551
C64_5 C 0.97252(12) 0.64010(11) 0.31714(12)
C65_5 C 0.81714(12) 0.60990(11) 0.27748(12)
H44_5 H 0.9739 0.6504 0.3066
H45_5 H 0.8066 0.5996 0.2761
C69_5 C 0.95803(10) 0.62406(10) 0.31497(11)
C70_5 C 0.81497(11) 0.62594(10) 0.29197(10)
H49_5 H 0.9496 0.6230 0.3028
H50_5 H 0.8028 0.6270 0.3004
C74_5 C 0.95621(9) 0.60964(9) 0.33104(9)
C75_5 C 0.83104(9) 0.64036(9) 0.29379(9)
C79_5 C 0.96916(8) 0.61154(8) 0.34806(8)
C80_5 C 0.84806(8) 0.63846(8) 0.28084(8)
H54_5 H 0.9681 0.6014 0.3588
H55_5 H 0.8588 0.6486 0.2819
C84_5 C 0.94079(8) 0.59252(8) 0.32995(8)
C85_5 C 0.82995(8) 0.65748(8) 0.30921(8)
C89_5 C 0.91620(8) 0.57459(9) 0.31235(9)
C90_5 C 0.81235(9) 0.67541(9) 0.33380(8)
C94_5 C 0.92465(8) 0.56522(9) 0.34478(9)
C95_5 C 0.84478(9) 0.68478(9) 0.32535(8)
C99_5 C 0.92032(9) 0.55228(10) 0.36334(10)
C100_5 C 0.86334(10) 0.69772(10) 0.32968(9)
C104_5 C 0.90403(8) 0.53803(9) 0.36304(9)
C105_5 C 0.86304(9) 0.71197(9) 0.34597(8)
H59_5 H 0.8959 0.5369 0.3507
H60_5 H 0.8507 0.7131 0.3541
C109_5 C 0.91050(12) 0.52778(12) 0.39658(13)
C110_5 C 0.89658(13) 0.72222(12) 0.33950(12)
H64_5 H 0.9069 0.5194 0.4083
H65_5 H 0.9083 0.7306 0.3431
C114_5 C 0.92691(15) 0.54123(14) 0.39821(16)
C115_5 C 0.89821(16) 0.70877(14) 0.32309(15)
H69_5 H 0.9349 0.5416 0.4107
H70_5 H 0.9107 0.7084 0.3151
C119_5 C 0.93206(14) 0.55439(12) 0.38179(14)
C120_5 C 0.88179(14) 0.69561(12) 0.31794(14)
H74_5 H 0.9430 0.5644 0.3830
H75_5 H 0.8830 0.6856 0.3070
C122_5 C 0.82519(12) 0.75068(12) 0.37129(9)
C127_5 C 0.76695(12) 0.83254(11) 0.36237(10)
C128_5 C 0.83254(11) 0.88763(10) 0.48305(12)
H77_5 H 0.7566 0.8337 0.3518
H78_5 H 0.8337 0.8982 0.4934
C132_5 C 0.77819(13) 0.81475(12) 0.36339(12)
C133_5 C 0.81475(12) 0.88661(12) 0.47181(13)
H82_5 H 0.7756 0.8036 0.3539
H83_5 H 0.8036 0.8961 0.4744
C137_5 C 0.79363(12) 0.81295(12) 0.37850(11)
C138_5 C 0.81295(12) 0.87150(11) 0.45637(12)
H87_5 H 0.8016 0.8005 0.3796
H88_5 H 0.8005 0.8704 0.4484
C142_5 C 0.79718(10) 0.82950(9) 0.39187(9)
C143_5 C 0.82950(9) 0.85813(9) 0.45282(10)
C147_5 C 0.78457(9) 0.84707(8) 0.39003(8)
C148_5 C 0.84707(8) 0.85997(8) 0.46543(9)
H92_5 H 0.7867 0.8583 0.3994
H93_5 H 0.8583 0.8506 0.4633
C152_5 C 0.81333(10) 0.82850(9) 0.40827(9)
C153_5 C 0.82850(9) 0.84173(9) 0.43667(10)
N11_5 N 0.97663(6) 0.61371(7) 0.39558(7)
N14_5 N 0.86371(7) 0.60442(7) 0.22663(6)
N15_5 N 0.89558(7) 0.63629(7) 0.27337(6)
N18_5 N 0.88569(7) 0.58942(7) 0.26525(7)
N19_5 N 0.76525(7) 0.66058(7) 0.36431(7)
N21_5 N 0.91058(7) 0.61431(7) 0.23475(7)
N24_5 N 0.98329(7) 0.62708(7) 0.35042(7)
N25_5 N 0.85042(7) 0.62292(7) 0.26671(7)
N29_5 N 0.87708(7) 0.64958(7) 0.23329(7)
N32_5 N 0.92974(7) 0.59064(8) 0.31241(7)
N33_5 N 0.81241(7) 0.65936(8) 0.32026(7)
N37_5 N 0.93895(7) 0.58042(8) 0.34680(8)
N38_5 N 0.84680(8) 0.66958(8) 0.31105(7)
N42_5 N 0.91331(7) 0.56145(8) 0.32770(8)
N43_5 N 0.82770(8) 0.68855(8) 0.33669(7)
N47_5 N 0.89920(7) 0.52590(8) 0.37901(8)
N48_5 N 0.87901(8) 0.72410(8) 0.35080(7)
N52_5 N 0.84258(8) 0.74880(8) 0.37235(7)
N57_5 N 0.76957(7) 0.84873(7) 0.37549(7)
N58_5 N 0.84873(7) 0.87451(7) 0.48043(7)
N66_5 N 0.81333(8) 0.84343(7) 0.42250(8)
N67_5 N 0.84343(7) 0.82750(8) 0.43667(8)
Co1_8 Co 0.5000 0.619761(13) 0.369761(13)
S1_6 S 0.54043(3) 0.57662(3) 0.41495(3)
S2_6 S 0.45005(7) 0.49626(4) 0.36986(4)
C1_6 C 0.53104(8) 0.59320(9) 0.39798(9)
C2_6 C 0.48920(11) 0.57107(10) 0.37376(11)
H1_6 H 0.5006 0.5706 0.3832
C3_6 C 0.47793(13) 0.55308(10) 0.37030(13)
H2_6 H 0.4820 0.5404 0.3767
C4_6 C 0.46063(11) 0.55371(10) 0.35746(12)
H3_6 H 0.4520 0.5418 0.3558
C5_6 C 0.45629(9) 0.57208(9) 0.34713(9)
C6_6 C 0.46884(8) 0.58931(8) 0.35080(8)
H4_6 H 0.4660 0.6018 0.3433
C7_6 C 0.41521(10) 0.64078(10) 0.26517(10)
H5_6 H 0.4141 0.6516 0.2551
C8_6 C 0.43286(12) 0.64010(11) 0.27748(12)
H6_6 H 0.4434 0.6504 0.2761
C9_6 C 0.43503(11) 0.62406(10) 0.29197(10)
H7_6 H 0.4472 0.6230 0.3004
C10_6 C 0.41896(9) 0.60964(9) 0.29379(9)
C11_6 C 0.40194(8) 0.61154(8) 0.28084(8)
H8_6 H 0.3912 0.6014 0.2819
C12_6 C 0.42005(8) 0.59252(8) 0.30921(8)
C13_6 C 0.43765(9) 0.57459(9) 0.33380(8)
C14_6 C 0.40522(9) 0.56522(9) 0.32535(8)
C15_6 C 0.38666(10) 0.55228(10) 0.32968(9)
C16_6 C 0.38696(9) 0.53803(9) 0.34597(8)
H9_6 H 0.3993 0.5369 0.3541
C17_6 C 0.35342(13) 0.52778(12) 0.33950(12)
H10_6 H 0.3417 0.5194 0.3431
C18_6 C 0.35179(16) 0.54123(14) 0.32309(15)
H11_6 H 0.3393 0.5416 0.3151
C19_6 C 0.36821(14) 0.55439(12) 0.31794(14)
H12_6 H 0.3670 0.5644 0.3070
C20_6 C 0.42481(12) 0.49932(12) 0.37129(9)
C21_6 C 0.38763(10) 0.48305(12) 0.33254(11)
H13_6 H 0.3982 0.4934 0.3337
C22_6 C 0.38661(12) 0.47181(13) 0.31475(12)
H14_6 H 0.3961 0.4744 0.3036
C23_6 C 0.37150(11) 0.45637(12) 0.31295(12)
H15_6 H 0.3704 0.4484 0.3005
C24_6 C 0.35813(9) 0.45282(10) 0.32950(9)
C25_6 C 0.35997(8) 0.46543(9) 0.34707(8)
H16_6 H 0.3506 0.4633 0.3583
C26_6 C 0.34173(9) 0.43667(10) 0.32850(9)
N1_6 N 0.52337(6) 0.60442(7) 0.38629(7)
N2_6 N 0.48475(7) 0.58942(7) 0.36431(7)
N3_6 N 0.39958(7) 0.62708(7) 0.26671(7)
N4_6 N 0.43759(7) 0.59064(8) 0.32026(7)
N5_6 N 0.40320(8) 0.58042(8) 0.31105(7)
N6_6 N 0.42230(8) 0.56145(8) 0.33669(7)
N7_6 N 0.37099(8) 0.52590(8) 0.35080(7)
N8_6 N 0.40742(8) 0.50120(8) 0.37235(7)
N9_6 N 0.37451(7) 0.48043(7) 0.34873(7)
N10_6 N 0.32750(8) 0.43667(8) 0.34343(7)
Co3_7 Co 0.619761(13) 0.7500 0.380239(13)
Co4_7 Co 0.380239(13) 0.630239(13) 0.5000
Co5_7 Co 0.369761(13) 0.630239(13) 0.2500
Co7_7 Co 0.2500 0.619761(13) 0.380239(13)
Co8_7 Co 0.630239(13) 0.880239(13) 0.5000
Co9_6 Co 0.6250 0.625000(15) 0.2522
Co10_6 Co 0.625000(15) 0.6250 0.4978
Co11_6 Co 0.2478 0.375000(15) 0.3750
Co13_6 Co 0.375000(15) 0.7478 0.3750
Co16_6 Co 0.5022 0.8750 0.375000(15)
S3_6 S 0.45957(3) 0.66495(3) 0.32662(3)
S4_6 S 0.66495(3) 0.79043(3) 0.42338(3)
S5_6 S 0.57662(3) 0.70957(3) 0.33505(3)
S6_6 S 0.33505(3) 0.67338(3) 0.54043(3)
S7_6 S 0.42338(3) 0.58505(3) 0.45957(3)
S8_6 S 0.29995(7) 0.49626(4) 0.38014(4)
S9_6 S 0.54995(7) 0.61986(4) 0.24626(4)
S10_6 S 0.70005(7) 0.63014(4) 0.24626(4)
S11_6 S 0.61986(4) 0.70005(7) 0.50374(4)
S12_6 S 0.63014(4) 0.54995(7) 0.50374(4)
C27_6 C 0.46896(8) 0.64798(9) 0.34320(9)
C28_6 C 0.64798(9) 0.78104(8) 0.40680(9)
C29_6 C 0.59320(9) 0.71896(8) 0.35202(9)
C30_6 C 0.35202(9) 0.65680(9) 0.53104(8)
C31_6 C 0.40680(9) 0.60202(9) 0.46896(8)
C32_6 C 0.51080(11) 0.62376(11) 0.32107(10)
C33_6 C 0.62376(11) 0.73920(11) 0.42893(10)
C34_6 C 0.37624(11) 0.67893(10) 0.48920(11)
C35_6 C 0.26080(11) 0.57107(10) 0.37624(11)
C36_6 C 0.57107(10) 0.76080(11) 0.37624(11)
H17_6 H 0.4994 0.6332 0.3206
H18_6 H 0.6332 0.7506 0.4294
H19_6 H 0.3668 0.6794 0.5006
H20_6 H 0.2494 0.5706 0.3668
H21_6 H 0.5706 0.7494 0.3668
C37_6 C 0.52207(13) 0.62030(13) 0.30308(10)
C38_6 C 0.62030(13) 0.72793(13) 0.44692(10)
C39_6 C 0.37970(13) 0.69692(10) 0.47793(13)
C40_6 C 0.27207(13) 0.55308(10) 0.37970(13)
C41_6 C 0.55308(10) 0.77207(13) 0.37970(13)
H22_6 H 0.5180 0.6267 0.2904
H23_6 H 0.6267 0.7320 0.4596
H24_6 H 0.3733 0.7096 0.4820
H25_6 H 0.2680 0.5404 0.3733
H26_6 H 0.5404 0.7680 0.3733
C42_6 C 0.53937(11) 0.60746(12) 0.30371(10)
C43_6 C 0.60746(12) 0.71063(11) 0.44629(10)
C44_6 C 0.39254(12) 0.69629(10) 0.46063(11)
C45_6 C 0.28937(11) 0.55371(10) 0.39254(12)
C46_6 C 0.55371(10) 0.78937(11) 0.39254(12)
H27_6 H 0.5480 0.6058 0.2918
H28_6 H 0.6058 0.7020 0.4582
H29_6 H 0.3942 0.7082 0.4520
H30_6 H 0.2980 0.5418 0.3942
H31_6 H 0.5418 0.7980 0.3942
C47_6 C 0.54371(9) 0.59713(9) 0.32208(9)
C48_6 C 0.59713(9) 0.70629(9) 0.42792(9)
C49_6 C 0.40287(9) 0.67792(9) 0.45629(9)
C50_6 C 0.29371(9) 0.57208(9) 0.40287(9)
C51_6 C 0.57208(9) 0.79371(9) 0.40287(9)
C52_6 C 0.53116(8) 0.60080(8) 0.33931(8)
C53_6 C 0.60080(8) 0.71884(8) 0.41069(8)
C54_6 C 0.39920(8) 0.66069(8) 0.46884(8)
C55_6 C 0.28116(8) 0.58931(8) 0.39920(8)
C56_6 C 0.58931(8) 0.78116(8) 0.39920(8)
H32_6 H 0.5340 0.5933 0.3518
H33_6 H 0.5933 0.7160 0.3982
H34_6 H 0.4067 0.6482 0.4660
H35_6 H 0.2840 0.6018 0.4067
H36_6 H 0.6018 0.7840 0.4067
C57_6 C 0.58479(10) 0.51517(10) 0.39078(10)
C58_6 C 0.51517(10) 0.66521(10) 0.35922(10)
C59_6 C 0.48483(10) 0.60922(10) 0.41521(10)
C60_6 C 0.33479(10) 0.64078(10) 0.48483(10)
C61_6 C 0.64078(10) 0.83479(10) 0.48483(10)
H37_6 H 0.5859 0.5051 0.4016
H38_6 H 0.5051 0.6641 0.3484
H39_6 H 0.4949 0.5984 0.4141
H40_6 H 0.3359 0.6516 0.4949
H41_6 H 0.6516 0.8359 0.4949
C62_6 C 0.56714(12) 0.52748(12) 0.39010(11)
C63_6 C 0.52748(12) 0.68286(12) 0.35990(11)
C64_6 C 0.47252(12) 0.60990(11) 0.43286(12)
C65_6 C 0.31714(12) 0.64010(11) 0.47252(12)
C66_6 C 0.64010(11) 0.81714(12) 0.47252(12)
H42_6 H 0.5566 0.5261 0.4004
H43_6 H 0.5261 0.6934 0.3496
H44_6 H 0.4739 0.5996 0.4434
H45_6 H 0.3066 0.6504 0.4739
H46_6 H 0.6504 0.8066 0.4739
C67_6 C 0.56497(11) 0.54197(10) 0.37406(10)
C68_6 C 0.54197(10) 0.68503(11) 0.37594(10)
C69_6 C 0.45803(10) 0.62594(10) 0.43503(11)
C70_6 C 0.31497(11) 0.62406(10) 0.45803(10)
C71_6 C 0.62406(10) 0.81497(11) 0.45803(10)
H47_6 H 0.5528 0.5504 0.3730
H48_6 H 0.5504 0.6972 0.3770
H49_6 H 0.4496 0.6270 0.4472
H50_6 H 0.3028 0.6230 0.4496
H51_6 H 0.6230 0.8028 0.4496
C72_6 C 0.58104(9) 0.54379(9) 0.35964(9)
C73_6 C 0.54379(9) 0.66896(9) 0.39036(9)
C74_6 C 0.45621(9) 0.64036(9) 0.41896(9)
C75_6 C 0.33104(9) 0.60964(9) 0.45621(9)
C76_6 C 0.60964(9) 0.83104(9) 0.45621(9)
C77_6 C 0.59806(8) 0.53084(8) 0.36154(8)
C78_6 C 0.53084(8) 0.65194(8) 0.38846(8)
C79_6 C 0.46916(8) 0.63846(8) 0.40194(8)
C80_6 C 0.34806(8) 0.61154(8) 0.46916(8)
C81_6 C 0.61154(8) 0.84806(8) 0.46916(8)
H52_6 H 0.6088 0.5319 0.3514
H53_6 H 0.5319 0.6412 0.3986
H54_6 H 0.4681 0.6486 0.3912
H55_6 H 0.3588 0.6014 0.4681
H56_6 H 0.6014 0.8588 0.4681
C82_6 C 0.57995(8) 0.55921(8) 0.34252(8)
C83_6 C 0.55921(8) 0.67005(8) 0.40748(8)
C84_6 C 0.44079(8) 0.65748(8) 0.42005(8)
C85_6 C 0.32995(8) 0.59252(8) 0.44079(8)
C86_6 C 0.59252(8) 0.82995(8) 0.44079(8)
C87_6 C 0.56235(9) 0.58380(8) 0.32459(9)
C88_6 C 0.58380(8) 0.68765(9) 0.42541(9)
C89_6 C 0.41620(8) 0.67541(9) 0.43765(9)
C90_6 C 0.31235(9) 0.57459(9) 0.41620(8)
C91_6 C 0.57459(9) 0.81235(9) 0.41620(8)
C92_6 C 0.59478(9) 0.57535(8) 0.31522(9)
C93_6 C 0.57535(8) 0.65522(9) 0.43478(9)
C94_6 C 0.42465(8) 0.68478(9) 0.40522(9)
C95_6 C 0.34478(9) 0.56522(9) 0.42465(8)
C96_6 C 0.56522(9) 0.84478(9) 0.42465(8)
C97_6 C 0.61334(10) 0.57968(9) 0.30228(10)
C98_6 C 0.57968(9) 0.63666(10) 0.44772(10)
C99_6 C 0.42032(9) 0.69772(10) 0.38666(10)
C100_6 C 0.36334(10) 0.55228(10) 0.42032(9)
C101_6 C 0.55228(10) 0.86334(10) 0.42032(9)
C102_6 C 0.61304(9) 0.59597(8) 0.28803(9)
C103_6 C 0.59597(8) 0.63696(9) 0.46197(9)
C104_6 C 0.40403(8) 0.71197(9) 0.38696(9)
C105_6 C 0.36304(9) 0.53803(9) 0.40403(8)
C106_6 C 0.53803(9) 0.86304(9) 0.40403(8)
H57_6 H 0.6007 0.6041 0.2869
H58_6 H 0.6041 0.6493 0.4631
H59_6 H 0.3959 0.7131 0.3993
H60_6 H 0.3507 0.5369 0.3959
H61_6 H 0.5369 0.8507 0.3959
C107_6 C 0.64658(13) 0.58950(12) 0.27778(12)
C108_6 C 0.58950(12) 0.60342(13) 0.47222(12)
C109_6 C 0.41050(12) 0.72222(12) 0.35342(13)
C110_6 C 0.39658(13) 0.52778(12) 0.41050(12)
C111_6 C 0.52778(12) 0.89658(13) 0.41050(12)
H62_6 H 0.6583 0.5931 0.2694
H63_6 H 0.5931 0.5917 0.4806
H64_6 H 0.4069 0.7306 0.3417
H65_6 H 0.4083 0.5194 0.4069
H66_6 H 0.5194 0.9083 0.4069
C112_6 C 0.64821(16) 0.57309(15) 0.29123(14)
C113_6 C 0.57309(15) 0.60179(16) 0.45877(14)
C114_6 C 0.42691(15) 0.70877(14) 0.35179(16)
C115_6 C 0.39821(16) 0.54123(14) 0.42691(15)
C116_6 C 0.54123(14) 0.89821(16) 0.42691(15)
H67_6 H 0.6607 0.5651 0.2916
H68_6 H 0.5651 0.5893 0.4584
H69_6 H 0.4349 0.7084 0.3393
H70_6 H 0.4107 0.5416 0.4349
H71_6 H 0.5416 0.9107 0.4349
C117_6 C 0.63179(14) 0.56794(14) 0.30439(12)
C118_6 C 0.56794(14) 0.61821(14) 0.44561(12)
C119_6 C 0.43206(14) 0.69561(12) 0.36821(14)
C120_6 C 0.38179(14) 0.55439(12) 0.43206(14)
C121_6 C 0.55439(12) 0.88179(14) 0.43206(14)
H72_6 H 0.6330 0.5570 0.3144
H73_6 H 0.5570 0.6170 0.4356
H74_6 H 0.4430 0.6856 0.3670
H75_6 H 0.3830 0.5644 0.4430
H76_6 H 0.5644 0.8830 0.4430
C122_6 C 0.32519(12) 0.49932(12) 0.37871(9)
C123_6 C 0.57519(12) 0.62129(9) 0.24932(12)
C124_6 C 0.67481(12) 0.62871(9) 0.24932(12)
C125_6 C 0.62129(9) 0.67481(12) 0.50068(12)
C126_6 C 0.62871(9) 0.57519(12) 0.50068(12)
C127_6 C 0.26695(12) 0.41746(11) 0.38763(10)
C128_6 C 0.33254(11) 0.36237(10) 0.26695(12)
H77_6 H 0.2566 0.4163 0.3982
H78_6 H 0.3337 0.3518 0.2566
C132_6 C 0.27819(13) 0.43525(12) 0.38661(12)
C133_6 C 0.31475(12) 0.36339(12) 0.27819(13)
H82_6 H 0.2756 0.4464 0.3961
H83_6 H 0.3036 0.3539 0.2756
C137_6 C 0.29363(12) 0.43705(12) 0.37150(11)
C138_6 C 0.31295(12) 0.37850(11) 0.29363(12)
H87_6 H 0.3016 0.4495 0.3704
H88_6 H 0.3005 0.3796 0.3016
C142_6 C 0.29718(10) 0.42050(9) 0.35813(9)
C143_6 C 0.32950(9) 0.39187(9) 0.29718(10)
C147_6 C 0.28457(9) 0.40293(8) 0.35997(8)
C148_6 C 0.34707(8) 0.39003(8) 0.28457(9)
H92_6 H 0.2867 0.3917 0.3506
H93_6 H 0.3583 0.3994 0.2867
C152_6 C 0.31333(10) 0.42150(9) 0.34173(9)
C153_6 C 0.32850(9) 0.40827(9) 0.31333(10)
N11_6 N 0.47663(6) 0.63629(7) 0.35442(7)
N12_6 N 0.63629(7) 0.77337(6) 0.39558(7)
N13_6 N 0.60442(7) 0.72663(6) 0.36371(7)
N14_6 N 0.36371(7) 0.64558(7) 0.52337(6)
N15_6 N 0.39558(7) 0.61371(7) 0.47663(6)
N16_6 N 0.51525(7) 0.61431(7) 0.33942(7)
N17_6 N 0.61431(7) 0.73475(7) 0.41058(7)
N18_6 N 0.38569(7) 0.66058(7) 0.48475(7)
N19_6 N 0.26525(7) 0.58942(7) 0.38569(7)
N20_6 N 0.58942(7) 0.76525(7) 0.38569(7)
N21_6 N 0.41058(7) 0.63569(7) 0.51525(7)
N23_6 N 0.51671(7) 0.64958(7) 0.37292(7)
N24_6 N 0.48329(7) 0.62292(7) 0.39958(7)
N25_6 N 0.35042(7) 0.62708(7) 0.48329(7)
N26_6 N 0.62708(7) 0.85042(7) 0.48329(7)
N27_6 N 0.62292(7) 0.76671(7) 0.35042(7)
N28_6 N 0.64958(7) 0.73329(7) 0.37708(7)
N29_6 N 0.37708(7) 0.60042(7) 0.51671(7)
N30_6 N 0.56241(7) 0.57026(7) 0.34064(8)
N31_6 N 0.57026(7) 0.68759(7) 0.40936(8)
N32_6 N 0.42974(7) 0.65936(8) 0.43759(7)
N33_6 N 0.31241(7) 0.59064(8) 0.42974(7)
N34_6 N 0.59064(8) 0.81241(7) 0.42974(7)
N35_6 N 0.59680(8) 0.56105(7) 0.33042(8)
N36_6 N 0.56105(7) 0.65320(8) 0.41958(8)
N37_6 N 0.43895(7) 0.66958(8) 0.40320(8)
N38_6 N 0.34680(8) 0.58042(8) 0.43895(7)
N39_6 N 0.58042(8) 0.84680(8) 0.43895(7)
N40_6 N 0.57770(8) 0.58669(7) 0.31145(8)
N41_6 N 0.58669(7) 0.67230(8) 0.43855(8)
N42_6 N 0.41331(7) 0.68855(8) 0.42230(8)
N43_6 N 0.32770(8) 0.56145(8) 0.41331(7)
N44_6 N 0.56145(8) 0.82770(8) 0.41331(7)
N45_6 N 0.62901(8) 0.60080(7) 0.27590(8)
N46_6 N 0.60080(7) 0.62099(8) 0.47410(8)
N47_6 N 0.39920(7) 0.72410(8) 0.37099(8)
N48_6 N 0.37901(8) 0.52590(8) 0.39920(7)
N49_6 N 0.52590(8) 0.87901(8) 0.39920(7)
N50_6 N 0.62099(8) 0.64920(7) 0.27590(8)
N51_6 N 0.64920(7) 0.62901(8) 0.47410(8)
N52_6 N 0.34258(8) 0.50120(8) 0.37765(7)
N53_6 N 0.59258(8) 0.62235(7) 0.25120(8)
N54_6 N 0.65742(8) 0.62765(7) 0.25120(8)
N55_6 N 0.62235(7) 0.65742(8) 0.49880(8)
N56_6 N 0.62765(7) 0.59258(8) 0.49880(8)
N57_6 N 0.26957(7) 0.40127(7) 0.37451(7)
N58_6 N 0.34873(7) 0.37549(7) 0.26957(7)
N62_6 N 0.62549(7) 0.59873(7) 0.23043(7)
N63_6 N 0.62451(7) 0.65127(7) 0.23043(7)
N64_6 N 0.59873(7) 0.62451(7) 0.51957(7)
N65_6 N 0.65127(7) 0.62549(7) 0.51957(7)
N66_6 N 0.31333(8) 0.40657(7) 0.32750(8)
N67_6 N 0.34343(7) 0.42250(8) 0.31333(8)
Co5_8 Co 0.380239(13) 0.130239(13) 0.0000
S9_7 S 0.20005(7) 0.11986(4) 0.00374(4)
S10_7 S 0.04995(7) 0.13014(4) 0.00374(4)
C123_7 C 0.17481(12) 0.12129(9) 0.00068(12)
C124_7 C 0.07519(12) 0.12871(9) 0.00068(12)
N62_7 N 0.12451(7) 0.09873(7) 0.01957(7)
N63_7 N 0.12549(7) 0.15127(7) 0.01957(7)
Co1_9 Co 0.2500 0.119761(13) 0.880239(13)
S1_7 S 0.20957(3) 0.07662(3) 0.83505(3)
C1_7 C 0.21896(8) 0.09320(9) 0.85202(9)
C2_7 C 0.26080(11) 0.07107(10) 0.87624(11)
H1_7 H 0.2494 0.0706 0.8668
C3_7 C 0.27207(13) 0.05308(10) 0.87970(13)
H2_7 H 0.2680 0.0404 0.8733
C4_7 C 0.28937(11) 0.05371(10) 0.89254(12)
H3_7 H 0.2980 0.0418 0.8942
C5_7 C 0.29371(9) 0.07208(9) 0.90287(9)
C6_7 C 0.28116(8) 0.08931(8) 0.89920(8)
H4_7 H 0.2840 0.1018 0.9067
C7_7 C 0.33479(10) 0.14078(10) 0.98483(10)
H5_7 H 0.3359 0.1516 0.9949
C8_7 C 0.31714(12) 0.14010(11) 0.97252(12)
H6_7 H 0.3066 0.1504 0.9739
C9_7 C 0.31497(11) 0.12406(10) 0.95803(10)
H7_7 H 0.3028 0.1230 0.9496
C10_7 C 0.33104(9) 0.10964(9) 0.95621(9)
C11_7 C 0.34806(8) 0.11154(8) 0.96916(8)
H8_7 H 0.3588 0.1014 0.9681
C12_7 C 0.32995(8) 0.09252(8) 0.94079(8)
C13_7 C 0.31235(9) 0.07459(9) 0.91620(8)
C14_7 C 0.34478(9) 0.06522(9) 0.92465(8)
C15_7 C 0.36334(10) 0.05228(10) 0.92032(9)
C16_7 C 0.36304(9) 0.03803(9) 0.90403(8)
H9_7 H 0.3507 0.0369 0.8959
C17_7 C 0.39658(13) 0.02778(12) 0.91050(12)
H10_7 H 0.4083 0.0194 0.9069
C18_7 C 0.39821(16) 0.04123(14) 0.92691(15)
H11_7 H 0.4107 0.0416 0.9349
C19_7 C 0.38179(14) 0.05439(12) 0.93206(14)
H12_7 H 0.3830 0.0644 0.9430
N1_7 N 0.22663(6) 0.10442(7) 0.86371(7)
N2_7 N 0.26525(7) 0.08942(7) 0.88569(7)
N3_7 N 0.35042(7) 0.12708(7) 0.98329(7)
N4_7 N 0.31241(7) 0.09064(8) 0.92974(7)
N5_7 N 0.34680(8) 0.08042(8) 0.93895(7)
N6_7 N 0.32770(8) 0.06145(8) 0.91331(7)
N7_7 N 0.37901(8) 0.02590(8) 0.89920(7)
N8_7 N 0.34258(8) 0.00120(8) 0.87765(7)
Co3_8 Co 0.130239(13) 0.2500 0.869761(13)
Co4_8 Co 0.369761(13) 0.130239(13) 0.7500
Co5_9 Co 0.380239(13) 0.130239(13) 1.0000
Co7_8 Co 0.5000 0.119761(13) 0.869761(13)
Co8_8 Co 0.119761(13) 0.380239(13) 0.7500
Co9_7 Co 0.1250 0.125000(15) 0.9978
Co10_7 Co 0.125000(15) 0.1250 0.7522
Co13_7 Co 0.375000(15) 0.2478 0.8750
Co16_7 Co 0.2478 0.3750 0.875000(15)
S3_7 S 0.29043(3) 0.16495(3) 0.92338(3)
S4_7 S 0.08505(3) 0.29043(3) 0.82662(3)
S5_7 S 0.17338(3) 0.20957(3) 0.91495(3)
S6_7 S 0.41495(3) 0.17338(3) 0.70957(3)
S7_7 S 0.32662(3) 0.08505(3) 0.79043(3)
S11_7 S 0.13014(4) 0.20005(7) 0.74626(4)
S12_7 S 0.11986(4) 0.04995(7) 0.74626(4)
C27_7 C 0.28104(8) 0.14798(9) 0.90680(9)
C28_7 C 0.10202(9) 0.28104(8) 0.84320(9)
C29_7 C 0.15680(9) 0.21896(8) 0.89798(9)
C30_7 C 0.39798(9) 0.15680(9) 0.71896(8)
C31_7 C 0.34320(9) 0.10202(9) 0.78104(8)
C32_7 C 0.23920(11) 0.12376(11) 0.92893(10)
C33_7 C 0.12624(11) 0.23920(11) 0.82107(10)
C34_7 C 0.37376(11) 0.17893(10) 0.76080(11)
C35_7 C 0.48920(11) 0.07107(10) 0.87376(11)
C36_7 C 0.17893(10) 0.26080(11) 0.87376(11)
H17_7 H 0.2506 0.1332 0.9294
H18_7 H 0.1168 0.2506 0.8206
H19_7 H 0.3832 0.1794 0.7494
H20_7 H 0.5006 0.0706 0.8832
H21_7 H 0.1794 0.2494 0.8832
C37_7 C 0.22793(13) 0.12030(13) 0.94692(10)
C38_7 C 0.12970(13) 0.22793(13) 0.80308(10)
C39_7 C 0.37030(13) 0.19692(10) 0.77207(13)
C40_7 C 0.47793(13) 0.05308(10) 0.87030(13)
C41_7 C 0.19692(10) 0.27207(13) 0.87030(13)
H22_7 H 0.2320 0.1267 0.9596
H23_7 H 0.1233 0.2320 0.7904
H24_7 H 0.3767 0.2096 0.7680
H25_7 H 0.4820 0.0404 0.8767
H26_7 H 0.2096 0.2680 0.8767
C42_7 C 0.21063(11) 0.10746(12) 0.94629(10)
C43_7 C 0.14254(12) 0.21063(11) 0.80371(10)
C44_7 C 0.35746(12) 0.19629(10) 0.78937(11)
C45_7 C 0.46063(11) 0.05371(10) 0.85746(12)
C46_7 C 0.19629(10) 0.28937(11) 0.85746(12)
H27_7 H 0.2020 0.1058 0.9582
H28_7 H 0.1442 0.2020 0.7918
H29_7 H 0.3558 0.2082 0.7980
H30_7 H 0.4520 0.0418 0.8558
H31_7 H 0.2082 0.2980 0.8558
C47_7 C 0.20629(9) 0.09713(9) 0.92792(9)
C48_7 C 0.15287(9) 0.20629(9) 0.82208(9)
C49_7 C 0.34713(9) 0.17792(9) 0.79371(9)
C50_7 C 0.45629(9) 0.07208(9) 0.84713(9)
C51_7 C 0.17792(9) 0.29371(9) 0.84713(9)
C52_7 C 0.21884(8) 0.10080(8) 0.91069(8)
C53_7 C 0.14920(8) 0.21884(8) 0.83931(8)
C54_7 C 0.35080(8) 0.16069(8) 0.78116(8)
C55_7 C 0.46884(8) 0.08931(8) 0.85080(8)
C56_7 C 0.16069(8) 0.28116(8) 0.85080(8)
H32_7 H 0.2160 0.0933 0.8982
H33_7 H 0.1567 0.2160 0.8518
H34_7 H 0.3433 0.1482 0.7840
H35_7 H 0.4660 0.1018 0.8433
H36_7 H 0.1482 0.2840 0.8433
C57_7 C 0.16521(10) 0.01517(10) 0.85922(10)
C58_7 C 0.23483(10) 0.16521(10) 0.89078(10)
C59_7 C 0.26517(10) 0.10922(10) 0.83479(10)
C60_7 C 0.41521(10) 0.14078(10) 0.76517(10)
C61_7 C 0.10922(10) 0.33479(10) 0.76517(10)
H37_7 H 0.1641 0.0051 0.8484
H38_7 H 0.2449 0.1641 0.9016
H39_7 H 0.2551 0.0984 0.8359
H40_7 H 0.4141 0.1516 0.7551
H41_7 H 0.0984 0.3359 0.7551
C62_7 C 0.18286(12) 0.02748(12) 0.85990(11)
C63_7 C 0.22252(12) 0.18286(12) 0.89010(11)
C64_7 C 0.27748(12) 0.10990(11) 0.81714(12)
C65_7 C 0.43286(12) 0.14010(11) 0.77748(12)
C66_7 C 0.10990(11) 0.31714(12) 0.77748(12)
H42_7 H 0.1934 0.0261 0.8496
H43_7 H 0.2239 0.1934 0.9004
H44_7 H 0.2761 0.0996 0.8066
H45_7 H 0.4434 0.1504 0.7761
H46_7 H 0.0996 0.3066 0.7761
C67_7 C 0.18503(11) 0.04197(10) 0.87594(10)
C68_7 C 0.20803(10) 0.18503(11) 0.87406(10)
C69_7 C 0.29197(10) 0.12594(10) 0.81497(11)
C70_7 C 0.43503(11) 0.12406(10) 0.79197(10)
C71_7 C 0.12594(10) 0.31497(11) 0.79197(10)
H47_7 H 0.1972 0.0504 0.8770
H48_7 H 0.1996 0.1972 0.8730
H49_7 H 0.3004 0.1270 0.8028
H50_7 H 0.4472 0.1230 0.8004
H51_7 H 0.1270 0.3028 0.8004
C72_7 C 0.16896(9) 0.04379(9) 0.89036(9)
C73_7 C 0.20621(9) 0.16896(9) 0.85964(9)
C74_7 C 0.29379(9) 0.14036(9) 0.83104(9)
C75_7 C 0.41896(9) 0.10964(9) 0.79379(9)
C76_7 C 0.14036(9) 0.33104(9) 0.79379(9)
C77_7 C 0.15194(8) 0.03084(8) 0.88846(8)
C78_7 C 0.21916(8) 0.15194(8) 0.86154(8)
C79_7 C 0.28084(8) 0.13846(8) 0.84806(8)
C80_7 C 0.40194(8) 0.11154(8) 0.78084(8)
C81_7 C 0.13846(8) 0.34806(8) 0.78084(8)
H52_7 H 0.1412 0.0319 0.8986
H53_7 H 0.2181 0.1412 0.8514
H54_7 H 0.2819 0.1486 0.8588
H55_7 H 0.3912 0.1014 0.7819
H56_7 H 0.1486 0.3588 0.7819
C82_7 C 0.17005(8) 0.05921(8) 0.90748(8)
C83_7 C 0.19079(8) 0.17005(8) 0.84252(8)
C84_7 C 0.30921(8) 0.15748(8) 0.82995(8)
C85_7 C 0.42005(8) 0.09252(8) 0.80921(8)
C86_7 C 0.15748(8) 0.32995(8) 0.80921(8)
C87_7 C 0.18765(9) 0.08380(8) 0.92541(9)
C88_7 C 0.16620(8) 0.18765(9) 0.82459(9)
C89_7 C 0.33380(8) 0.17541(9) 0.81235(9)
C90_7 C 0.43765(9) 0.07459(9) 0.83380(8)
C91_7 C 0.17541(9) 0.31235(9) 0.83380(8)
C92_7 C 0.15522(9) 0.07535(8) 0.93478(9)
C93_7 C 0.17465(8) 0.15522(9) 0.81522(9)
C94_7 C 0.32535(8) 0.18478(9) 0.84478(9)
C95_7 C 0.40522(9) 0.06522(9) 0.82535(8)
C96_7 C 0.18478(9) 0.34478(9) 0.82535(8)
C97_7 C 0.13666(10) 0.07968(9) 0.94772(10)
C98_7 C 0.17032(9) 0.13666(10) 0.80228(10)
C99_7 C 0.32968(9) 0.19772(10) 0.86334(10)
C100_7 C 0.38666(10) 0.05228(10) 0.82968(9)
C101_7 C 0.19772(10) 0.36334(10) 0.82968(9)
C102_7 C 0.13696(9) 0.09597(8) 0.96197(9)
C103_7 C 0.15403(8) 0.13696(9) 0.78803(9)
C104_7 C 0.34597(8) 0.21197(9) 0.86304(9)
C105_7 C 0.38696(9) 0.03803(9) 0.84597(8)
C106_7 C 0.21197(9) 0.36304(9) 0.84597(8)
H57_7 H 0.1493 0.1041 0.9631
H58_7 H 0.1459 0.1493 0.7869
H59_7 H 0.3541 0.2131 0.8507
H60_7 H 0.3993 0.0369 0.8541
H61_7 H 0.2131 0.3507 0.8541
C107_7 C 0.10342(13) 0.08950(12) 0.97222(12)
C108_7 C 0.16050(12) 0.10342(13) 0.77778(12)
C109_7 C 0.33950(12) 0.22222(12) 0.89658(13)
C110_7 C 0.35342(13) 0.02778(12) 0.83950(12)
C111_7 C 0.22222(12) 0.39658(13) 0.83950(12)
H62_7 H 0.0917 0.0931 0.9806
H63_7 H 0.1569 0.0917 0.7694
H64_7 H 0.3431 0.2306 0.9083
H65_7 H 0.3417 0.0194 0.8431
H66_7 H 0.2306 0.4083 0.8431
C112_7 C 0.10179(16) 0.07309(15) 0.95877(14)
C113_7 C 0.17691(15) 0.10179(16) 0.79123(14)
C114_7 C 0.32309(15) 0.20877(14) 0.89821(16)
C115_7 C 0.35179(16) 0.04123(14) 0.82309(15)
C116_7 C 0.20877(14) 0.39821(16) 0.82309(15)
H67_7 H 0.0893 0.0651 0.9584
H68_7 H 0.1849 0.0893 0.7916
H69_7 H 0.3151 0.2084 0.9107
H70_7 H 0.3393 0.0416 0.8151
H71_7 H 0.2084 0.4107 0.8151
C117_7 C 0.11821(14) 0.06794(14) 0.94561(12)
C118_7 C 0.18206(14) 0.11821(14) 0.80439(12)
C119_7 C 0.31794(14) 0.19561(12) 0.88179(14)
C120_7 C 0.36821(14) 0.05439(12) 0.81794(14)
C121_7 C 0.19561(12) 0.38179(14) 0.81794(14)
H72_7 H 0.1170 0.0570 0.9356
H73_7 H 0.1930 0.1170 0.8144
H74_7 H 0.3070 0.1856 0.8830
H75_7 H 0.3670 0.0644 0.8070
H76_7 H 0.1856 0.3830 0.8070
C125_7 C 0.12871(9) 0.17481(12) 0.74932(12)
C126_7 C 0.12129(9) 0.07519(12) 0.74932(12)
N11_7 N 0.27337(6) 0.13629(7) 0.89558(7)
N12_7 N 0.11371(7) 0.27337(6) 0.85442(7)
N13_7 N 0.14558(7) 0.22663(6) 0.88629(7)
N14_7 N 0.38629(7) 0.14558(7) 0.72663(6)
N15_7 N 0.35442(7) 0.11371(7) 0.77337(6)
N16_7 N 0.23475(7) 0.11431(7) 0.91058(7)
N17_7 N 0.13569(7) 0.23475(7) 0.83942(7)
N18_7 N 0.36431(7) 0.16058(7) 0.76525(7)
N19_7 N 0.48475(7) 0.08942(7) 0.86431(7)
N20_7 N 0.16058(7) 0.26525(7) 0.86431(7)
N21_7 N 0.33942(7) 0.13569(7) 0.73475(7)
N23_7 N 0.23329(7) 0.14958(7) 0.87708(7)
N24_7 N 0.26671(7) 0.12292(7) 0.85042(7)
N25_7 N 0.39958(7) 0.12708(7) 0.76671(7)
N26_7 N 0.12292(7) 0.35042(7) 0.76671(7)
N27_7 N 0.12708(7) 0.26671(7) 0.89958(7)
N28_7 N 0.10042(7) 0.23329(7) 0.87292(7)
N29_7 N 0.37292(7) 0.10042(7) 0.73329(7)
N30_7 N 0.18759(7) 0.07026(7) 0.90936(8)
N31_7 N 0.17974(7) 0.18759(7) 0.84064(8)
N32_7 N 0.32026(7) 0.15936(8) 0.81241(7)
N33_7 N 0.43759(7) 0.09064(8) 0.82026(7)
N34_7 N 0.15936(8) 0.31241(7) 0.82026(7)
N35_7 N 0.15320(8) 0.06105(7) 0.91958(8)
N36_7 N 0.18895(7) 0.15320(8) 0.83042(8)
N37_7 N 0.31105(7) 0.16958(8) 0.84680(8)
N38_7 N 0.40320(8) 0.08042(8) 0.81105(7)
N39_7 N 0.16958(8) 0.34680(8) 0.81105(7)
N40_7 N 0.17230(8) 0.08669(7) 0.93855(8)
N41_7 N 0.16331(7) 0.17230(8) 0.81145(8)
N42_7 N 0.33669(7) 0.18855(8) 0.82770(8)
N43_7 N 0.42230(8) 0.06145(8) 0.83669(7)
N44_7 N 0.18855(8) 0.32770(8) 0.83669(7)
N45_7 N 0.12099(8) 0.10080(7) 0.97410(8)
N46_7 N 0.14920(7) 0.12099(8) 0.77590(8)
N47_7 N 0.35080(7) 0.22410(8) 0.87901(8)
N48_7 N 0.37099(8) 0.02590(8) 0.85080(7)
N49_7 N 0.22410(8) 0.37901(8) 0.85080(7)
N50_7 N 0.12901(8) 0.14920(7) 0.97410(8)
N51_7 N 0.10080(7) 0.12901(8) 0.77590(8)
N52_7 N 0.40742(8) 0.00120(8) 0.87235(7)
N53_7 N 0.15742(8) 0.12235(7) 0.99880(8)
N54_7 N 0.09258(8) 0.12765(7) 0.99880(8)
N55_7 N 0.12765(7) 0.15742(8) 0.75120(8)
N56_7 N 0.12235(7) 0.09258(8) 0.75120(8)
N64_7 N 0.15127(7) 0.12451(7) 0.73043(7)
N65_7 N 0.09873(7) 0.12549(7) 0.73043(7)
S2_7 S 0.29995(7) 0.99626(4) 0.88014(4)
C20_7 C 0.32519(12) 0.99932(12) 0.87871(9)
C21_7 C 0.36237(10) 0.98305(12) 0.91746(11)
H13_7 H 0.3518 0.9934 0.9163
C22_7 C 0.36339(12) 0.97181(13) 0.93525(12)
H14_7 H 0.3539 0.9744 0.9464
C23_7 C 0.37850(11) 0.95637(12) 0.93705(12)
H15_7 H 0.3796 0.9484 0.9495
C24_7 C 0.39187(9) 0.95282(10) 0.92050(9)
C25_7 C 0.39003(8) 0.96543(9) 0.90293(8)
H16_7 H 0.3994 0.9633 0.8917
C26_7 C 0.40827(9) 0.93667(10) 0.92150(9)
N9_7 N 0.37549(7) 0.98043(7) 0.90127(7)
N10_7 N 0.42250(8) 0.93667(8) 0.90657(7)
Co11_7 Co 0.5022 0.875000(15) 0.8750
S8_7 S 0.45005(7) 0.99626(4) 0.86986(4)
C122_7 C 0.42481(12) 0.99932(12) 0.87129(9)
C127_7 C 0.48305(12) 0.91746(11) 0.86237(10)
C128_7 C 0.41746(11) 0.86237(10) 0.98305(12)
H77_7 H 0.4934 0.9163 0.8518
H78_7 H 0.4163 0.8518 0.9934
C132_7 C 0.47181(13) 0.93525(12) 0.86339(12)
C133_7 C 0.43525(12) 0.86339(12) 0.97181(13)
H82_7 H 0.4744 0.9464 0.8539
H83_7 H 0.4464 0.8539 0.9744
C137_7 C 0.45637(12) 0.93705(12) 0.87850(11)
C138_7 C 0.43705(12) 0.87850(11) 0.95637(12)
H87_7 H 0.4484 0.9495 0.8796
H88_7 H 0.4495 0.8796 0.9484
C142_7 C 0.45282(10) 0.92050(9) 0.89187(9)
C143_7 C 0.42050(9) 0.89187(9) 0.95282(10)
C147_7 C 0.46543(9) 0.90293(8) 0.89003(8)
C148_7 C 0.40293(8) 0.89003(8) 0.96543(9)
H92_7 H 0.4633 0.8917 0.8994
H93_7 H 0.3917 0.8994 0.9633
C152_7 C 0.43667(10) 0.92150(9) 0.90827(9)
C153_7 C 0.42150(9) 0.90827(9) 0.93667(10)
N57_7 N 0.48043(7) 0.90127(7) 0.87549(7)
N58_7 N 0.40127(7) 0.87549(7) 0.98043(7)
N66_7 N 0.43667(8) 0.90657(7) 0.92250(8)
N67_7 N 0.40657(7) 0.92250(8) 0.93667(8)
Co7_9 Co 0.0000 0.130239(13) 0.880239(13)
Co11_8 Co 0.0022 0.375000(15) 0.8750
H20_8 H 0.0006 0.1794 0.8668
Co4_9 Co 0.869761(13) 0.119761(13) 0.0000
S6_8 S 0.91495(3) 0.07662(3) 0.04043(3)
S11_8 S 0.63014(4) 0.04995(7) 0.00374(4)
S12_8 S 0.61986(4) 0.20005(7) 0.00374(4)
C30_8 C 0.89798(9) 0.09320(9) 0.03104(8)
H19_8 H 0.8832 0.0706 0.0006
C125_8 C 0.62871(9) 0.07519(12) 0.00068(12)
C126_8 C 0.62129(9) 0.17481(12) 0.00068(12)
N14_8 N 0.88629(7) 0.10442(7) 0.02337(6)
N21_8 N 0.83942(7) 0.11431(7) 0.01525(7)
N29_8 N 0.87292(7) 0.14958(7) 0.01671(7)
N64_8 N 0.65127(7) 0.12549(7) 0.01957(7)
N65_8 N 0.59873(7) 0.12451(7) 0.01957(7)
Co1_10 Co 0.7500 0.130239(13) 0.869761(13)
S1_8 S 0.70957(3) 0.17338(3) 0.91495(3)
S2_8 S 0.79995(7) 0.25374(4) 0.86986(4)
C1_8 C 0.71896(8) 0.15680(9) 0.89798(9)
C2_8 C 0.76080(11) 0.17893(10) 0.87376(11)
H1_8 H 0.7494 0.1794 0.8832
C3_8 C 0.77207(13) 0.19692(10) 0.87030(13)
H2_8 H 0.7680 0.2096 0.8767
C4_8 C 0.78937(11) 0.19629(10) 0.85746(12)
H3_8 H 0.7980 0.2082 0.8558
C5_8 C 0.79371(9) 0.17792(9) 0.84713(9)
C6_8 C 0.78116(8) 0.16069(8) 0.85080(8)
H4_8 H 0.7840 0.1482 0.8433
C7_8 C 0.83479(10) 0.10922(10) 0.76517(10)
H5_8 H 0.8359 0.0984 0.7551
C8_8 C 0.81714(12) 0.10990(11) 0.77748(12)
H6_8 H 0.8066 0.0996 0.7761
C9_8 C 0.81497(11) 0.12594(10) 0.79197(10)
H7_8 H 0.8028 0.1270 0.8004
C10_8 C 0.83104(9) 0.14036(9) 0.79379(9)
C11_8 C 0.84806(8) 0.13846(8) 0.78084(8)
H8_8 H 0.8588 0.1486 0.7819
C12_8 C 0.82995(8) 0.15748(8) 0.80921(8)
C13_8 C 0.81235(9) 0.17541(9) 0.83380(8)
C14_8 C 0.84478(9) 0.18478(9) 0.82535(8)
C15_8 C 0.86334(10) 0.19772(10) 0.82968(9)
C16_8 C 0.86304(9) 0.21197(9) 0.84597(8)
H9_8 H 0.8507 0.2131 0.8541
C17_8 C 0.89658(13) 0.22222(12) 0.83950(12)
H10_8 H 0.9083 0.2306 0.8431
C18_8 C 0.89821(16) 0.20877(14) 0.82309(15)
H11_8 H 0.9107 0.2084 0.8151
C19_8 C 0.88179(14) 0.19561(12) 0.81794(14)
H12_8 H 0.8830 0.1856 0.8070
C20_8 C 0.82519(12) 0.25068(12) 0.87129(9)
C21_8 C 0.86237(10) 0.26695(12) 0.83254(11)
H13_8 H 0.8518 0.2566 0.8337
C22_8 C 0.86339(12) 0.27819(13) 0.81475(12)
H14_8 H 0.8539 0.2756 0.8036
C23_8 C 0.87850(11) 0.29363(12) 0.81295(12)
H15_8 H 0.8796 0.3016 0.8005
C24_8 C 0.89187(9) 0.29718(10) 0.82950(9)
C25_8 C 0.89003(8) 0.28457(9) 0.84707(8)
H16_8 H 0.8994 0.2867 0.8583
C26_8 C 0.90827(9) 0.31333(10) 0.82850(9)
N1_8 N 0.72663(6) 0.14558(7) 0.88629(7)
N2_8 N 0.76525(7) 0.16058(7) 0.86431(7)
N3_8 N 0.85042(7) 0.12292(7) 0.76671(7)
N4_8 N 0.81241(7) 0.15936(8) 0.82026(7)
N5_8 N 0.84680(8) 0.16958(8) 0.81105(7)
N6_8 N 0.82770(8) 0.18855(8) 0.83669(7)
N7_8 N 0.87901(8) 0.22410(8) 0.85080(7)
N8_8 N 0.84258(8) 0.24880(8) 0.87235(7)
N9_8 N 0.87549(7) 0.26957(7) 0.84873(7)
N10_8 N 0.92250(8) 0.31333(8) 0.84343(7)
Co3_9 Co 0.630239(13) 0.0000 0.880239(13)
Co4_10 Co 0.869761(13) 0.119761(13) 1.0000
Co5_10 Co 0.880239(13) 0.119761(13) 0.7500
Co7_10 Co 1.0000 0.130239(13) 0.880239(13)
Co9_8 Co 0.6250 0.125000(15) 0.7522
Co10_8 Co 0.625000(15) 0.1250 0.9978
Co13_8 Co 0.875000(15) 0.0022 0.8750
S3_8 S 0.79043(3) 0.08505(3) 0.82662(3)
S5_8 S 0.67338(3) 0.04043(3) 0.83505(3)
S7_8 S 0.82662(3) 0.16495(3) 0.95957(3)
S8_8 S 0.95005(7) 0.25374(4) 0.88014(4)
S9_8 S 0.70005(7) 0.13014(4) 0.74626(4)
S10_8 S 0.54995(7) 0.11986(4) 0.74626(4)
C27_8 C 0.78104(8) 0.10202(9) 0.84320(9)
C29_8 C 0.65680(9) 0.03104(8) 0.85202(9)
C31_8 C 0.84320(9) 0.14798(9) 0.96896(8)
C32_8 C 0.73920(11) 0.12624(11) 0.82107(10)
C33_8 C 0.62624(11) 0.01080(11) 0.92893(10)
C34_8 C 0.87376(11) 0.07107(10) 0.98920(11)
C35_8 C 0.98920(11) 0.17893(10) 0.87624(11)
H17_8 H 0.7506 0.1168 0.8206
H21_8 H 0.6794 0.0006 0.8668
C37_8 C 0.72793(13) 0.12970(13) 0.80308(10)
C38_8 C 0.62970(13) 0.02207(13) 0.94692(10)
C39_8 C 0.87030(13) 0.05308(10) 0.97793(13)
C40_8 C 0.97793(13) 0.19692(10) 0.87970(13)
H22_8 H 0.7320 0.1233 0.7904
H23_8 H 0.6233 0.0180 0.9596
H24_8 H 0.8767 0.0404 0.9820
H25_8 H 0.9820 0.2096 0.8733
C42_8 C 0.71063(11) 0.14254(12) 0.80371(10)
C43_8 C 0.64254(12) 0.03937(11) 0.94629(10)
C44_8 C 0.85746(12) 0.05371(10) 0.96063(11)
C45_8 C 0.96063(11) 0.19629(10) 0.89254(12)
H27_8 H 0.7020 0.1442 0.7918
H28_8 H 0.6442 0.0480 0.9582
H29_8 H 0.8558 0.0418 0.9520
H30_8 H 0.9520 0.2082 0.8942
C47_8 C 0.70629(9) 0.15287(9) 0.82208(9)
C48_8 C 0.65287(9) 0.04371(9) 0.92792(9)
C49_8 C 0.84713(9) 0.07208(9) 0.95629(9)
C50_8 C 0.95629(9) 0.17792(9) 0.90287(9)
C52_8 C 0.71884(8) 0.14920(8) 0.83931(8)
C53_8 C 0.64920(8) 0.03116(8) 0.91069(8)
C54_8 C 0.85080(8) 0.08931(8) 0.96884(8)
C55_8 C 0.96884(8) 0.16069(8) 0.89920(8)
H32_8 H 0.7160 0.1567 0.8518
H33_8 H 0.6567 0.0340 0.8982
H34_8 H 0.8433 0.1018 0.9660
H35_8 H 0.9660 0.1482 0.9067
C57_8 C 0.66521(10) 0.23483(10) 0.89078(10)
C58_8 C 0.73483(10) 0.08479(10) 0.85922(10)
C59_8 C 0.76517(10) 0.14078(10) 0.91521(10)
C60_8 C 0.91521(10) 0.10922(10) 0.98483(10)
H37_8 H 0.6641 0.2449 0.9016
H38_8 H 0.7449 0.0859 0.8484
H39_8 H 0.7551 0.1516 0.9141
H40_8 H 0.9141 0.0984 0.9949
C62_8 C 0.68286(12) 0.22252(12) 0.89010(11)
C63_8 C 0.72252(12) 0.06714(12) 0.85990(11)
C64_8 C 0.77748(12) 0.14010(11) 0.93286(12)
C65_8 C 0.93286(12) 0.10990(11) 0.97252(12)
H42_8 H 0.6934 0.2239 0.9004
H43_8 H 0.7239 0.0566 0.8496
H44_8 H 0.7761 0.1504 0.9434
H45_8 H 0.9434 0.0996 0.9739
C67_8 C 0.68503(11) 0.20803(10) 0.87406(10)
C68_8 C 0.70803(10) 0.06497(11) 0.87594(10)
C69_8 C 0.79197(10) 0.12406(10) 0.93503(11)
C70_8 C 0.93503(11) 0.12594(10) 0.95803(10)
H47_8 H 0.6972 0.1996 0.8730
H48_8 H 0.6996 0.0528 0.8770
H49_8 H 0.8004 0.1230 0.9472
H50_8 H 0.9472 0.1270 0.9496
C72_8 C 0.66896(9) 0.20621(9) 0.85964(9)
C73_8 C 0.70621(9) 0.08104(9) 0.89036(9)
C74_8 C 0.79379(9) 0.10964(9) 0.91896(9)
C75_8 C 0.91896(9) 0.14036(9) 0.95621(9)
C77_8 C 0.65194(8) 0.21916(8) 0.86154(8)
C78_8 C 0.71916(8) 0.09806(8) 0.88846(8)
C79_8 C 0.78084(8) 0.11154(8) 0.90194(8)
C80_8 C 0.90194(8) 0.13846(8) 0.96916(8)
H52_8 H 0.6412 0.2181 0.8514
H53_8 H 0.7181 0.1088 0.8986
H54_8 H 0.7819 0.1014 0.8912
H55_8 H 0.8912 0.1486 0.9681
C82_8 C 0.67005(8) 0.19079(8) 0.84252(8)
C83_8 C 0.69079(8) 0.07995(8) 0.90748(8)
C84_8 C 0.80921(8) 0.09252(8) 0.92005(8)
C85_8 C 0.92005(8) 0.15748(8) 0.94079(8)
C87_8 C 0.68765(9) 0.16620(8) 0.82459(9)
C88_8 C 0.66620(8) 0.06235(9) 0.92541(9)
C89_8 C 0.83380(8) 0.07459(9) 0.93765(9)
C90_8 C 0.93765(9) 0.17541(9) 0.91620(8)
C92_8 C 0.65522(9) 0.17465(8) 0.81522(9)
C93_8 C 0.67465(8) 0.09478(9) 0.93478(9)
C94_8 C 0.82535(8) 0.06522(9) 0.90522(9)
C95_8 C 0.90522(9) 0.18478(9) 0.92465(8)
C97_8 C 0.63666(10) 0.17032(9) 0.80228(10)
C98_8 C 0.67032(9) 0.11334(10) 0.94772(10)
C99_8 C 0.82968(9) 0.05228(10) 0.88666(10)
C100_8 C 0.88666(10) 0.19772(10) 0.92032(9)
C102_8 C 0.63696(9) 0.15403(8) 0.78803(9)
C103_8 C 0.65403(8) 0.11304(9) 0.96197(9)
C104_8 C 0.84597(8) 0.03803(9) 0.88696(9)
C105_8 C 0.88696(9) 0.21197(9) 0.90403(8)
H57_8 H 0.6493 0.1459 0.7869
H58_8 H 0.6459 0.1007 0.9631
H59_8 H 0.8541 0.0369 0.8993
H60_8 H 0.8993 0.2131 0.8959
C107_8 C 0.60342(13) 0.16050(12) 0.77778(12)
C108_8 C 0.66050(12) 0.14658(13) 0.97222(12)
C109_8 C 0.83950(12) 0.02778(12) 0.85342(13)
C110_8 C 0.85342(13) 0.22222(12) 0.91050(12)
H62_8 H 0.5917 0.1569 0.7694
H63_8 H 0.6569 0.1583 0.9806
H64_8 H 0.8431 0.0194 0.8417
H65_8 H 0.8417 0.2306 0.9069
C112_8 C 0.60179(16) 0.17691(15) 0.79123(14)
C113_8 C 0.67691(15) 0.14821(16) 0.95877(14)
C114_8 C 0.82309(15) 0.04123(14) 0.85179(16)
C115_8 C 0.85179(16) 0.20877(14) 0.92691(15)
H67_8 H 0.5893 0.1849 0.7916
H68_8 H 0.6849 0.1607 0.9584
H69_8 H 0.8151 0.0416 0.8393
H70_8 H 0.8393 0.2084 0.9349
C117_8 C 0.61821(14) 0.18206(14) 0.80439(12)
C118_8 C 0.68206(14) 0.13179(14) 0.94561(12)
C119_8 C 0.81794(14) 0.05439(12) 0.86821(14)
C120_8 C 0.86821(14) 0.19561(12) 0.93206(14)
H72_8 H 0.6170 0.1930 0.8144
H73_8 H 0.6930 0.1330 0.9356
H74_8 H 0.8070 0.0644 0.8670
H75_8 H 0.8670 0.1856 0.9430
C122_8 C 0.92481(12) 0.25068(12) 0.87871(9)
C123_8 C 0.67481(12) 0.12871(9) 0.74932(12)
C124_8 C 0.57519(12) 0.12129(9) 0.74932(12)
C127_8 C 0.98305(12) 0.33254(11) 0.88763(10)
C128_8 C 0.91746(11) 0.38763(10) 0.76695(12)
H77_8 H 0.9934 0.3337 0.8982
H78_8 H 0.9163 0.3982 0.7566
C132_8 C 0.97181(13) 0.31475(12) 0.88661(12)
C133_8 C 0.93525(12) 0.38661(12) 0.77819(13)
H82_8 H 0.9744 0.3036 0.8961
H83_8 H 0.9464 0.3961 0.7756
C137_8 C 0.95637(12) 0.31295(12) 0.87150(11)
C138_8 C 0.93705(12) 0.37150(11) 0.79363(12)
H87_8 H 0.9484 0.3005 0.8704
H88_8 H 0.9495 0.3704 0.8016
C142_8 C 0.95282(10) 0.32950(9) 0.85813(9)
C143_8 C 0.92050(9) 0.35813(9) 0.79718(10)
C147_8 C 0.96543(9) 0.34707(8) 0.85997(8)
C148_8 C 0.90293(8) 0.35997(8) 0.78457(9)
H92_8 H 0.9633 0.3583 0.8506
H93_8 H 0.8917 0.3506 0.7867
C152_8 C 0.93667(10) 0.32850(9) 0.84173(9)
C153_8 C 0.92150(9) 0.34173(9) 0.81333(10)
N11_8 N 0.77337(6) 0.11371(7) 0.85442(7)
N13_8 N 0.64558(7) 0.02337(6) 0.86371(7)
N15_8 N 0.85442(7) 0.13629(7) 0.97663(6)
N16_8 N 0.73475(7) 0.13569(7) 0.83942(7)
N17_8 N 0.63569(7) 0.01525(7) 0.91058(7)
N18_8 N 0.86431(7) 0.08942(7) 0.98475(7)
N19_8 N 0.98475(7) 0.16058(7) 0.88569(7)
N23_8 N 0.73329(7) 0.10042(7) 0.87292(7)
N24_8 N 0.76671(7) 0.12708(7) 0.89958(7)
N25_8 N 0.89958(7) 0.12292(7) 0.98329(7)
N28_8 N 0.60042(7) 0.01671(7) 0.87708(7)
N30_8 N 0.68759(7) 0.17974(7) 0.84064(8)
N31_8 N 0.67974(7) 0.06241(7) 0.90936(8)
N32_8 N 0.82026(7) 0.09064(8) 0.93759(7)
N33_8 N 0.93759(7) 0.15936(8) 0.92974(7)
N35_8 N 0.65320(8) 0.18895(7) 0.83042(8)
N36_8 N 0.68895(7) 0.09680(8) 0.91958(8)
N37_8 N 0.81105(7) 0.08042(8) 0.90320(8)
N38_8 N 0.90320(8) 0.16958(8) 0.93895(7)
N40_8 N 0.67230(8) 0.16331(7) 0.81145(8)
N41_8 N 0.66331(7) 0.07770(8) 0.93855(8)
N42_8 N 0.83669(7) 0.06145(8) 0.92230(8)
N43_8 N 0.92230(8) 0.18855(8) 0.91331(7)
N45_8 N 0.62099(8) 0.14920(7) 0.77590(8)
N46_8 N 0.64920(7) 0.12901(8) 0.97410(8)
N47_8 N 0.85080(7) 0.02590(8) 0.87099(8)
N48_8 N 0.87099(8) 0.22410(8) 0.89920(7)
N50_8 N 0.62901(8) 0.10080(7) 0.77590(8)
N51_8 N 0.60080(7) 0.12099(8) 0.97410(8)
N52_8 N 0.90742(8) 0.24880(8) 0.87765(7)
N53_8 N 0.65742(8) 0.12765(7) 0.75120(8)
N54_8 N 0.59258(8) 0.12235(7) 0.75120(8)
N55_8 N 0.62765(7) 0.09258(8) 0.99880(8)
N56_8 N 0.62235(7) 0.15742(8) 0.99880(8)
N57_8 N 0.98043(7) 0.34873(7) 0.87451(7)
N58_8 N 0.90127(7) 0.37451(7) 0.76957(7)
N62_8 N 0.62451(7) 0.15127(7) 0.73043(7)
N63_8 N 0.62549(7) 0.09873(7) 0.73043(7)
N66_8 N 0.93667(8) 0.34343(7) 0.82750(8)
N67_8 N 0.90657(7) 0.32750(8) 0.81333(8)
Co8_9 Co 0.619761(13) 0.869761(13) 0.0000
Co3_10 Co 0.630239(13) 1.0000 0.880239(13)
Co8_10 Co 0.619761(13) 0.869761(13) 1.0000
Co16_8 Co 0.7478 0.8750 0.875000(15)
S4_8 S 0.58505(3) 0.95957(3) 0.92338(3)
C28_8 C 0.60202(9) 0.96896(8) 0.90680(9)
C36_8 C 0.67893(10) 0.98920(11) 0.87624(11)
H18_8 H 0.6168 0.9994 0.9294
C41_8 C 0.69692(10) 0.97793(13) 0.87970(13)
H26_8 H 0.7096 0.9820 0.8733
C46_8 C 0.69629(10) 0.96063(11) 0.89254(12)
H31_8 H 0.7082 0.9520 0.8942
C51_8 C 0.67792(9) 0.95629(9) 0.90287(9)
C56_8 C 0.66069(8) 0.96884(8) 0.89920(8)
H36_8 H 0.6482 0.9660 0.9067
C61_8 C 0.60922(10) 0.91521(10) 0.98483(10)
H41_8 H 0.5984 0.9141 0.9949
C66_8 C 0.60990(11) 0.93286(12) 0.97252(12)
H46_8 H 0.5996 0.9434 0.9739
C71_8 C 0.62594(10) 0.93503(11) 0.95803(10)
H51_8 H 0.6270 0.9472 0.9496
C76_8 C 0.64036(9) 0.91896(9) 0.95621(9)
C81_8 C 0.63846(8) 0.90194(8) 0.96916(8)
H56_8 H 0.6486 0.8912 0.9681
C86_8 C 0.65748(8) 0.92005(8) 0.94079(8)
C91_8 C 0.67541(9) 0.93765(9) 0.91620(8)
C96_8 C 0.68478(9) 0.90522(9) 0.92465(8)
C101_8 C 0.69772(10) 0.88666(10) 0.92032(9)
C106_8 C 0.71197(9) 0.88696(9) 0.90403(8)
H61_8 H 0.7131 0.8993 0.8959
C111_8 C 0.72222(12) 0.85342(13) 0.91050(12)
H66_8 H 0.7306 0.8417 0.9069
C116_8 C 0.70877(14) 0.85179(16) 0.92691(15)
H71_8 H 0.7084 0.8393 0.9349
C121_8 C 0.69561(12) 0.86821(14) 0.93206(14)
H76_8 H 0.6856 0.8670 0.9430
N12_8 N 0.61371(7) 0.97663(6) 0.89558(7)
N20_8 N 0.66058(7) 0.98475(7) 0.88569(7)
N26_8 N 0.62292(7) 0.89958(7) 0.98329(7)
N27_8 N 0.62708(7) 0.98329(7) 0.85042(7)
N34_8 N 0.65936(8) 0.93759(7) 0.92974(7)
N39_8 N 0.66958(8) 0.90320(8) 0.93895(7)
N44_8 N 0.68855(8) 0.92230(8) 0.91331(7)
N49_8 N 0.72410(8) 0.87099(8) 0.89920(7)
Co1_11 Co 0.380239(13) 0.0000 0.630239(13)
S1_9 S 0.33505(3) 0.04043(3) 0.67338(3)
C1_9 C 0.35202(9) 0.03104(8) 0.65680(9)
H1_9 H 0.3668 0.0006 0.6794
N1_9 N 0.36371(7) 0.02337(6) 0.64558(7)
Co3_11 Co 0.369761(13) 0.119761(13) 0.5000
Co8_11 Co 0.2500 0.130239(13) 0.369761(13)
Co9_9 Co 0.4978 0.1250 0.625000(15)
Co10_9 Co 0.2522 0.125000(15) 0.6250
Co16_9 Co 0.375000(15) 0.0022 0.3750
S4_9 S 0.32662(3) 0.16495(3) 0.45957(3)
S5_9 S 0.41495(3) 0.07662(3) 0.54043(3)
S9_9 S 0.50374(4) 0.04995(7) 0.63014(4)
S10_9 S 0.50374(4) 0.20005(7) 0.61986(4)
S11_9 S 0.24626(4) 0.11986(4) 0.54995(7)
S12_9 S 0.24626(4) 0.13014(4) 0.70005(7)
C28_9 C 0.34320(9) 0.14798(9) 0.46896(8)
C29_9 C 0.39798(9) 0.09320(9) 0.53104(8)
C32_9 C 0.42893(10) 0.01080(11) 0.62624(11)
C33_9 C 0.32107(10) 0.12376(11) 0.51080(11)
C36_9 C 0.37376(11) 0.07107(10) 0.48920(11)
H18_9 H 0.3206 0.1332 0.4994
H21_9 H 0.3832 0.0706 0.5006
C37_9 C 0.44692(10) 0.02207(13) 0.62970(13)
C38_9 C 0.30308(10) 0.12030(13) 0.52207(13)
C41_9 C 0.37030(13) 0.05308(10) 0.47793(13)
H22_9 H 0.4596 0.0180 0.6233
H23_9 H 0.2904 0.1267 0.5180
H26_9 H 0.3767 0.0404 0.4820
C42_9 C 0.44629(10) 0.03937(11) 0.64254(12)
C43_9 C 0.30371(10) 0.10746(12) 0.53937(11)
C46_9 C 0.35746(12) 0.05371(10) 0.46063(11)
H27_9 H 0.4582 0.0480 0.6442
H28_9 H 0.2918 0.1058 0.5480
H31_9 H 0.3558 0.0418 0.4520
C47_9 C 0.42792(9) 0.04371(9) 0.65287(9)
C48_9 C 0.32208(9) 0.09713(9) 0.54371(9)
C51_9 C 0.34713(9) 0.07208(9) 0.45629(9)
C52_9 C 0.41069(8) 0.03116(8) 0.64920(8)
C53_9 C 0.33931(8) 0.10080(8) 0.53116(8)
C56_9 C 0.35080(8) 0.08931(8) 0.46884(8)
H32_9 H 0.3982 0.0340 0.6567
H33_9 H 0.3518 0.0933 0.5340
H36_9 H 0.3433 0.1018 0.4660
C57_9 C 0.35922(10) 0.08479(10) 0.73483(10)
C58_9 C 0.39078(10) 0.01517(10) 0.58479(10)
C61_9 C 0.26517(10) 0.14078(10) 0.41521(10)
H37_9 H 0.3484 0.0859 0.7449
H38_9 H 0.4016 0.0051 0.5859
H41_9 H 0.2551 0.1516 0.4141
C62_9 C 0.35990(11) 0.06714(12) 0.72252(12)
C63_9 C 0.39010(11) 0.02748(12) 0.56714(12)
C66_9 C 0.27748(12) 0.14010(11) 0.43286(12)
H42_9 H 0.3496 0.0566 0.7239
H43_9 H 0.4004 0.0261 0.5566
H46_9 H 0.2761 0.1504 0.4434
C67_9 C 0.37594(10) 0.06497(11) 0.70803(10)
C68_9 C 0.37406(10) 0.04197(10) 0.56497(11)
C71_9 C 0.29197(10) 0.12406(10) 0.43503(11)
H47_9 H 0.3770 0.0528 0.6996
H48_9 H 0.3730 0.0504 0.5528
H51_9 H 0.3004 0.1230 0.4472
C72_9 C 0.39036(9) 0.08104(9) 0.70621(9)
C73_9 C 0.35964(9) 0.04379(9) 0.58104(9)
C76_9 C 0.29379(9) 0.10964(9) 0.41896(9)
C77_9 C 0.38846(8) 0.09806(8) 0.71916(8)
C78_9 C 0.36154(8) 0.03084(8) 0.59806(8)
C81_9 C 0.28084(8) 0.11154(8) 0.40194(8)
H52_9 H 0.3986 0.1088 0.7181
H53_9 H 0.3514 0.0319 0.6088
H56_9 H 0.2819 0.1014 0.3912
C82_9 C 0.40748(8) 0.07995(8) 0.69079(8)
C83_9 C 0.34252(8) 0.05921(8) 0.57995(8)
C86_9 C 0.30921(8) 0.09252(8) 0.42005(8)
C87_9 C 0.42541(9) 0.06235(9) 0.66620(8)
C88_9 C 0.32459(9) 0.08380(8) 0.56235(9)
C91_9 C 0.33380(8) 0.07459(9) 0.43765(9)
C92_9 C 0.43478(9) 0.09478(9) 0.67465(8)
C93_9 C 0.31522(9) 0.07535(8) 0.59478(9)
C96_9 C 0.32535(8) 0.06522(9) 0.40522(9)
C97_9 C 0.44772(10) 0.11334(10) 0.67032(9)
C98_9 C 0.30228(10) 0.07968(9) 0.61334(10)
C101_9 C 0.32968(9) 0.05228(10) 0.38666(10)
C102_9 C 0.46197(9) 0.11304(9) 0.65403(8)
C103_9 C 0.28803(9) 0.09597(8) 0.61304(9)
C106_9 C 0.34597(8) 0.03803(9) 0.38696(9)
H57_9 H 0.4631 0.1007 0.6459
H58_9 H 0.2869 0.1041 0.6007
H61_9 H 0.3541 0.0369 0.3993
C107_9 C 0.47222(12) 0.14658(13) 0.66050(12)
C108_9 C 0.27778(12) 0.08950(12) 0.64658(13)
C111_9 C 0.33950(12) 0.02778(12) 0.35342(13)
H62_9 H 0.4806 0.1583 0.6569
H63_9 H 0.2694 0.0931 0.6583
H66_9 H 0.3431 0.0194 0.3417
C112_9 C 0.45877(14) 0.14821(16) 0.67691(15)
C113_9 C 0.29123(14) 0.07309(15) 0.64821(16)
C116_9 C 0.32309(15) 0.04123(14) 0.35179(16)
H67_9 H 0.4584 0.1607 0.6849
H68_9 H 0.2916 0.0651 0.6607
H71_9 H 0.3151 0.0416 0.3393
C117_9 C 0.44561(12) 0.13179(14) 0.68206(14)
C118_9 C 0.30439(12) 0.06794(14) 0.63179(14)
C121_9 C 0.31794(14) 0.05439(12) 0.36821(14)
H72_9 H 0.4356 0.1330 0.6930
H73_9 H 0.3144 0.0570 0.6330
H76_9 H 0.3070 0.0644 0.3670
C123_9 C 0.50068(12) 0.07519(12) 0.62871(9)
C124_9 C 0.50068(12) 0.17481(12) 0.62129(9)
C125_9 C 0.24932(12) 0.12129(9) 0.57519(12)
C126_9 C 0.24932(12) 0.12871(9) 0.67481(12)
N12_9 N 0.35442(7) 0.13629(7) 0.47663(6)
N13_9 N 0.38629(7) 0.10442(7) 0.52337(6)
N16_9 N 0.41058(7) 0.01525(7) 0.63569(7)
N17_9 N 0.33942(7) 0.11431(7) 0.51525(7)
N20_9 N 0.36431(7) 0.08942(7) 0.48475(7)
N23_9 N 0.37708(7) 0.01671(7) 0.60042(7)
N26_9 N 0.26671(7) 0.12708(7) 0.39958(7)
N27_9 N 0.39958(7) 0.12292(7) 0.48329(7)
N28_9 N 0.37292(7) 0.14958(7) 0.51671(7)
N30_9 N 0.40936(8) 0.06241(7) 0.67974(7)
N31_9 N 0.34064(8) 0.07026(7) 0.56241(7)
N34_9 N 0.32026(7) 0.09064(8) 0.43759(7)
N35_9 N 0.41958(8) 0.09680(8) 0.68895(7)
N36_9 N 0.33042(8) 0.06105(7) 0.59680(8)
N39_9 N 0.31105(7) 0.08042(8) 0.40320(8)
N40_9 N 0.43855(8) 0.07770(8) 0.66331(7)
N41_9 N 0.31145(8) 0.08669(7) 0.57770(8)
N44_9 N 0.33669(7) 0.06145(8) 0.42230(8)
N45_9 N 0.47410(8) 0.12901(8) 0.64920(7)
N46_9 N 0.27590(8) 0.10080(7) 0.62901(8)
N49_9 N 0.35080(7) 0.02590(8) 0.37099(8)
N50_9 N 0.47410(8) 0.12099(8) 0.60080(7)
N51_9 N 0.27590(8) 0.14920(7) 0.62099(8)
N53_9 N 0.49880(8) 0.09258(8) 0.62765(7)
N54_9 N 0.49880(8) 0.15742(8) 0.62235(7)
N55_9 N 0.25120(8) 0.12235(7) 0.59258(8)
N56_9 N 0.25120(8) 0.12765(7) 0.65742(8)
N62_9 N 0.51957(7) 0.12549(7) 0.65127(7)
N63_9 N 0.51957(7) 0.12451(7) 0.59873(7)
N64_9 N 0.23043(7) 0.09873(7) 0.62549(7)
N65_9 N 0.23043(7) 0.15127(7) 0.62451(7)
Co1_12 Co 0.380239(13) 1.0000 0.630239(13)
S2_9 S 0.38014(4) 0.95005(7) 0.75374(4)
C2_9 C 0.37624(11) 0.98920(11) 0.67893(10)
C3_9 C 0.37970(13) 0.97793(13) 0.69692(10)
H2_9 H 0.3733 0.9820 0.7096
C4_9 C 0.39254(12) 0.96063(11) 0.69629(10)
H3_9 H 0.3942 0.9520 0.7082
C5_9 C 0.40287(9) 0.95629(9) 0.67792(9)
C6_9 C 0.39920(8) 0.96884(8) 0.66069(8)
H4_9 H 0.4067 0.9660 0.6482
C7_9 C 0.48483(10) 0.91521(10) 0.60922(10)
H5_9 H 0.4949 0.9141 0.5984
C8_9 C 0.47252(12) 0.93286(12) 0.60990(11)
H6_9 H 0.4739 0.9434 0.5996
C9_9 C 0.45803(10) 0.93503(11) 0.62594(10)
H7_9 H 0.4496 0.9472 0.6270
C10_9 C 0.45621(9) 0.91896(9) 0.64036(9)
C11_9 C 0.46916(8) 0.90194(8) 0.63846(8)
H8_9 H 0.4681 0.8912 0.6486
C12_9 C 0.44079(8) 0.92005(8) 0.65748(8)
C13_9 C 0.41620(8) 0.93765(9) 0.67541(9)
C14_9 C 0.42465(8) 0.90522(9) 0.68478(9)
C15_9 C 0.42032(9) 0.88666(10) 0.69772(10)
C16_9 C 0.40403(8) 0.88696(9) 0.71197(9)
H9_9 H 0.3959 0.8993 0.7131
C17_9 C 0.41050(12) 0.85342(13) 0.72222(12)
H10_9 H 0.4069 0.8417 0.7306
C18_9 C 0.42691(15) 0.85179(16) 0.70877(14)
H11_9 H 0.4349 0.8393 0.7084
C19_9 C 0.43206(14) 0.86821(14) 0.69561(12)
H12_9 H 0.4430 0.8670 0.6856
C20_9 C 0.37871(9) 0.92481(12) 0.75068(12)
C21_9 C 0.41746(11) 0.88763(10) 0.76695(12)
H13_9 H 0.4163 0.8982 0.7566
C22_9 C 0.43525(12) 0.88661(12) 0.77819(13)
H14_9 H 0.4464 0.8961 0.7756
C23_9 C 0.43705(12) 0.87150(11) 0.79363(12)
H15_9 H 0.4495 0.8704 0.8016
C24_9 C 0.42050(9) 0.85813(9) 0.79718(10)
C25_9 C 0.40293(8) 0.85997(8) 0.78457(9)
H16_9 H 0.3917 0.8506 0.7867
C26_9 C 0.42150(9) 0.84173(9) 0.81333(10)
N2_9 N 0.38569(7) 0.98475(7) 0.66058(7)
N3_9 N 0.48329(7) 0.89958(7) 0.62292(7)
N4_9 N 0.42974(7) 0.93759(7) 0.65936(8)
N5_9 N 0.43895(7) 0.90320(8) 0.66958(8)
N6_9 N 0.41331(7) 0.92230(8) 0.68855(8)
N7_9 N 0.39920(7) 0.87099(8) 0.72410(8)
N8_9 N 0.37765(7) 0.90742(8) 0.74880(8)
N9_9 N 0.40127(7) 0.87451(7) 0.76957(7)
N10_9 N 0.40657(7) 0.82750(8) 0.81333(8)
Co5_11 Co 0.5000 0.869761(13) 0.619761(13)
Co7_11 Co 0.369761(13) 0.7500 0.630239(13)
Co13_9 Co 0.3750 0.875000(15) 0.5022
S3_9 S 0.42338(3) 0.95957(3) 0.58505(3)
S6_9 S 0.20957(3) 0.83505(3) 0.57662(3)
S7_9 S 0.29043(3) 0.92338(3) 0.66495(3)
S8_9 S 0.36986(4) 0.79995(7) 0.75374(4)
C27_9 C 0.40680(9) 0.96896(8) 0.60202(9)
C30_9 C 0.21896(8) 0.85202(9) 0.59320(9)
C31_9 C 0.28104(8) 0.90680(9) 0.64798(9)
C34_9 C 0.26080(11) 0.87624(11) 0.57107(10)
C35_9 C 0.37376(11) 0.76080(11) 0.67893(10)
H17_9 H 0.4294 0.9994 0.6168
H19_9 H 0.2494 0.8668 0.5706
H20_9 H 0.3832 0.7494 0.6794
C39_9 C 0.27207(13) 0.87970(13) 0.55308(10)
C40_9 C 0.37030(13) 0.77207(13) 0.69692(10)
H24_9 H 0.2680 0.8733 0.5404
H25_9 H 0.3767 0.7680 0.7096
C44_9 C 0.28937(11) 0.89254(12) 0.55371(10)
C45_9 C 0.35746(12) 0.78937(11) 0.69629(10)
H29_9 H 0.2980 0.8942 0.5418
H30_9 H 0.3558 0.7980 0.7082
C49_9 C 0.29371(9) 0.90287(9) 0.57208(9)
C50_9 C 0.34713(9) 0.79371(9) 0.67792(9)
C54_9 C 0.28116(8) 0.89920(8) 0.58931(8)
C55_9 C 0.35080(8) 0.78116(8) 0.66069(8)
H34_9 H 0.2840 0.9067 0.6018
H35_9 H 0.3433 0.7840 0.6482
C59_9 C 0.33479(10) 0.98483(10) 0.64078(10)
C60_9 C 0.26517(10) 0.83479(10) 0.60922(10)
H39_9 H 0.3359 0.9949 0.6516
H40_9 H 0.2551 0.8359 0.5984
C64_9 C 0.31714(12) 0.97252(12) 0.64010(11)
C65_9 C 0.27748(12) 0.81714(12) 0.60990(11)
H44_9 H 0.3066 0.9739 0.6504
H45_9 H 0.2761 0.8066 0.5996
C69_9 C 0.31497(11) 0.95803(10) 0.62406(10)
C70_9 C 0.29197(10) 0.81497(11) 0.62594(10)
H49_9 H 0.3028 0.9496 0.6230
H50_9 H 0.3004 0.8028 0.6270
C74_9 C 0.33104(9) 0.95621(9) 0.60964(9)
C75_9 C 0.29379(9) 0.83104(9) 0.64036(9)
C79_9 C 0.34806(8) 0.96916(8) 0.61154(8)
C80_9 C 0.28084(8) 0.84806(8) 0.63846(8)
H54_9 H 0.3588 0.9681 0.6014
H55_9 H 0.2819 0.8588 0.6486
C84_9 C 0.32995(8) 0.94079(8) 0.59252(8)
C85_9 C 0.30921(8) 0.82995(8) 0.65748(8)
C89_9 C 0.31235(9) 0.91620(8) 0.57459(9)
C90_9 C 0.33380(8) 0.81235(9) 0.67541(9)
C94_9 C 0.34478(9) 0.92465(8) 0.56522(9)
C95_9 C 0.32535(8) 0.84478(9) 0.68478(9)
C99_9 C 0.36334(10) 0.92032(9) 0.55228(10)
C100_9 C 0.32968(9) 0.86334(10) 0.69772(10)
C104_9 C 0.36304(9) 0.90403(8) 0.53803(9)
C105_9 C 0.34597(8) 0.86304(9) 0.71197(9)
H59_9 H 0.3507 0.8959 0.5369
H60_9 H 0.3541 0.8507 0.7131
C109_9 C 0.39658(13) 0.91050(12) 0.52778(12)
C110_9 C 0.33950(12) 0.89658(13) 0.72222(12)
H64_9 H 0.4083 0.9069 0.5194
H65_9 H 0.3431 0.9083 0.7306
C114_9 C 0.39821(16) 0.92691(15) 0.54123(14)
C115_9 C 0.32309(15) 0.89821(16) 0.70877(14)
H69_9 H 0.4107 0.9349 0.5416
H70_9 H 0.3151 0.9107 0.7084
C119_9 C 0.38179(14) 0.93206(14) 0.55439(12)
C120_9 C 0.31794(14) 0.88179(14) 0.69561(12)
H74_9 H 0.3830 0.9430 0.5644
H75_9 H 0.3070 0.8830 0.6856
C122_9 C 0.37129(9) 0.82519(12) 0.75068(12)
C127_9 C 0.36237(10) 0.76695(12) 0.83254(11)
C128_9 C 0.48305(12) 0.83254(11) 0.88763(10)
H77_9 H 0.3518 0.7566 0.8337
H78_9 H 0.4934 0.8337 0.8982
C132_9 C 0.36339(12) 0.77819(13) 0.81475(12)
C133_9 C 0.47181(13) 0.81475(12) 0.88661(12)
H82_9 H 0.3539 0.7756 0.8036
H83_9 H 0.4744 0.8036 0.8961
C137_9 C 0.37850(11) 0.79363(12) 0.81295(12)
C138_9 C 0.45637(12) 0.81295(12) 0.87150(11)
H87_9 H 0.3796 0.8016 0.8005
H88_9 H 0.4484 0.8005 0.8704
C142_9 C 0.39187(9) 0.79718(10) 0.82950(9)
C143_9 C 0.45282(10) 0.82950(9) 0.85813(9)
C147_9 C 0.39003(8) 0.78457(9) 0.84707(8)
C148_9 C 0.46543(9) 0.84707(8) 0.85997(8)
H92_9 H 0.3994 0.7867 0.8583
H93_9 H 0.4633 0.8583 0.8506
C152_9 C 0.40827(9) 0.81333(10) 0.82850(9)
C153_9 C 0.43667(10) 0.82850(9) 0.84173(9)
N11_9 N 0.39558(7) 0.97663(6) 0.61371(7)
N14_9 N 0.22663(6) 0.86371(7) 0.60442(7)
N15_9 N 0.27337(6) 0.89558(7) 0.63629(7)
N18_9 N 0.26525(7) 0.88569(7) 0.58942(7)
N19_9 N 0.36431(7) 0.76525(7) 0.66058(7)
N21_9 N 0.23475(7) 0.91058(7) 0.61431(7)
N24_9 N 0.35042(7) 0.98329(7) 0.62708(7)
N25_9 N 0.26671(7) 0.85042(7) 0.62292(7)
N32_9 N 0.31241(7) 0.92974(7) 0.59064(8)
N33_9 N 0.32026(7) 0.81241(7) 0.65936(8)
N37_9 N 0.34680(8) 0.93895(7) 0.58042(8)
N38_9 N 0.31105(7) 0.84680(8) 0.66958(8)
N42_9 N 0.32770(8) 0.91331(7) 0.56145(8)
N43_9 N 0.33669(7) 0.82770(8) 0.68855(8)
N47_9 N 0.37901(8) 0.89920(7) 0.52590(8)
N48_9 N 0.35080(7) 0.87901(8) 0.72410(8)
N52_9 N 0.37235(7) 0.84258(8) 0.74880(8)
N57_9 N 0.37549(7) 0.76957(7) 0.84873(7)
N58_9 N 0.48043(7) 0.84873(7) 0.87451(7)
N66_9 N 0.42250(8) 0.81333(8) 0.84343(7)
N67_9 N 0.43667(8) 0.84343(7) 0.82750(8)
Co1_13 Co 0.369761(13) 0.5000 0.619761(13)
S1_10 S 0.41495(3) 0.54043(3) 0.57662(3)
S2_10 S 0.36986(4) 0.45005(7) 0.49626(4)
C1_10 C 0.39798(9) 0.53104(8) 0.59320(9)
C2_10 C 0.37376(11) 0.48920(11) 0.57107(10)
H1_10 H 0.3832 0.5006 0.5706
C3_10 C 0.37030(13) 0.47793(13) 0.55308(10)
H2_10 H 0.3767 0.4820 0.5404
C4_10 C 0.35746(12) 0.46063(11) 0.55371(10)
H3_10 H 0.3558 0.4520 0.5418
C5_10 C 0.34713(9) 0.45629(9) 0.57208(9)
C6_10 C 0.35080(8) 0.46884(8) 0.58931(8)
H4_10 H 0.3433 0.4660 0.6018
C7_10 C 0.26517(10) 0.41521(10) 0.64078(10)
H5_10 H 0.2551 0.4141 0.6516
C8_10 C 0.27748(12) 0.43286(12) 0.64010(11)
H6_10 H 0.2761 0.4434 0.6504
C9_10 C 0.29197(10) 0.43503(11) 0.62406(10)
H7_10 H 0.3004 0.4472 0.6230
C10_10 C 0.29379(9) 0.41896(9) 0.60964(9)
C11_10 C 0.28084(8) 0.40194(8) 0.61154(8)
H8_10 H 0.2819 0.3912 0.6014
C12_10 C 0.30921(8) 0.42005(8) 0.59252(8)
C13_10 C 0.33380(8) 0.43765(9) 0.57459(9)
C14_10 C 0.32535(8) 0.40522(9) 0.56522(9)
C15_10 C 0.32968(9) 0.38666(10) 0.55228(10)
C16_10 C 0.34597(8) 0.38696(9) 0.53803(9)
H9_10 H 0.3541 0.3993 0.5369
C17_10 C 0.33950(12) 0.35342(13) 0.52778(12)
H10_10 H 0.3431 0.3417 0.5194
C18_10 C 0.32309(15) 0.35179(16) 0.54123(14)
H11_10 H 0.3151 0.3393 0.5416
C19_10 C 0.31794(14) 0.36821(14) 0.55439(12)
H12_10 H 0.3070 0.3670 0.5644
C20_10 C 0.37129(9) 0.42481(12) 0.49932(12)
C21_10 C 0.33254(11) 0.38763(10) 0.48305(12)
H13_10 H 0.3337 0.3982 0.4934
C22_10 C 0.31475(12) 0.38661(12) 0.47181(13)
H14_10 H 0.3036 0.3961 0.4744
C23_10 C 0.31295(12) 0.37150(11) 0.45637(12)
H15_10 H 0.3005 0.3704 0.4484
C24_10 C 0.32950(9) 0.35813(9) 0.45282(10)
C25_10 C 0.34707(8) 0.35997(8) 0.46543(9)
H16_10 H 0.3583 0.3506 0.4633
C26_10 C 0.32850(9) 0.34173(9) 0.43667(10)
N1_10 N 0.38629(7) 0.52337(6) 0.60442(7)
N2_10 N 0.36431(7) 0.48475(7) 0.58942(7)
N3_10 N 0.26671(7) 0.39958(7) 0.62708(7)
N4_10 N 0.32026(7) 0.43759(7) 0.59064(8)
N5_10 N 0.31105(7) 0.40320(8) 0.58042(8)
N6_10 N 0.33669(7) 0.42230(8) 0.56145(8)
N7_10 N 0.35080(7) 0.37099(8) 0.52590(8)
N8_10 N 0.37235(7) 0.40742(8) 0.50120(8)
N9_10 N 0.34873(7) 0.37451(7) 0.48043(7)
N10_10 N 0.34343(7) 0.32750(8) 0.43667(8)
Co3_12 Co 0.380239(13) 0.619761(13) 0.7500
Co5_12 Co 0.2500 0.369761(13) 0.630239(13)
Co7_12 Co 0.380239(13) 0.2500 0.619761(13)
Co8_12 Co 0.5000 0.630239(13) 0.880239(13)
Co9_10 Co 0.2522 0.6250 0.625000(15)
Co10_10 Co 0.4978 0.625000(15) 0.6250
Co13_10 Co 0.3750 0.375000(15) 0.7478
Co16_10 Co 0.375000(15) 0.5022 0.8750
S3_10 S 0.32662(3) 0.45957(3) 0.66495(3)
S4_10 S 0.42338(3) 0.66495(3) 0.79043(3)
S5_10 S 0.33505(3) 0.57662(3) 0.70957(3)
S6_10 S 0.54043(3) 0.33505(3) 0.67338(3)
S7_10 S 0.45957(3) 0.42338(3) 0.58505(3)
S8_10 S 0.38014(4) 0.29995(7) 0.49626(4)
S9_10 S 0.24626(4) 0.54995(7) 0.61986(4)
S10_10 S 0.24626(4) 0.70005(7) 0.63014(4)
S11_10 S 0.50374(4) 0.61986(4) 0.70005(7)
S12_10 S 0.50374(4) 0.63014(4) 0.54995(7)
C27_10 C 0.34320(9) 0.46896(8) 0.64798(9)
C28_10 C 0.40680(9) 0.64798(9) 0.78104(8)
C29_10 C 0.35202(9) 0.59320(9) 0.71896(8)
C30_10 C 0.53104(8) 0.35202(9) 0.65680(9)
C31_10 C 0.46896(8) 0.40680(9) 0.60202(9)
C32_10 C 0.32107(10) 0.51080(11) 0.62376(11)
C33_10 C 0.42893(10) 0.62376(11) 0.73920(11)
C34_10 C 0.48920(11) 0.37624(11) 0.67893(10)
C35_10 C 0.37624(11) 0.26080(11) 0.57107(10)
C36_10 C 0.37624(11) 0.57107(10) 0.76080(11)
H17_10 H 0.3206 0.4994 0.6332
H18_10 H 0.4294 0.6332 0.7506
H19_10 H 0.5006 0.3668 0.6794
H20_10 H 0.3668 0.2494 0.5706
H21_10 H 0.3668 0.5706 0.7494
C37_10 C 0.30308(10) 0.52207(13) 0.62030(13)
C38_10 C 0.44692(10) 0.62030(13) 0.72793(13)
C39_10 C 0.47793(13) 0.37970(13) 0.69692(10)
C40_10 C 0.37970(13) 0.27207(13) 0.55308(10)
C41_10 C 0.37970(13) 0.55308(10) 0.77207(13)
H22_10 H 0.2904 0.5180 0.6267
H23_10 H 0.4596 0.6267 0.7320
H24_10 H 0.4820 0.3733 0.7096
H25_10 H 0.3733 0.2680 0.5404
H26_10 H 0.3733 0.5404 0.7680
C42_10 C 0.30371(10) 0.53937(11) 0.60746(12)
C43_10 C 0.44629(10) 0.60746(12) 0.71063(11)
C44_10 C 0.46063(11) 0.39254(12) 0.69629(10)
C45_10 C 0.39254(12) 0.28937(11) 0.55371(10)
C46_10 C 0.39254(12) 0.55371(10) 0.78937(11)
H27_10 H 0.2918 0.5480 0.6058
H28_10 H 0.4582 0.6058 0.7020
H29_10 H 0.4520 0.3942 0.7082
H30_10 H 0.3942 0.2980 0.5418
H31_10 H 0.3942 0.5418 0.7980
C47_10 C 0.32208(9) 0.54371(9) 0.59713(9)
C48_10 C 0.42792(9) 0.59713(9) 0.70629(9)
C49_10 C 0.45629(9) 0.40287(9) 0.67792(9)
C50_10 C 0.40287(9) 0.29371(9) 0.57208(9)
C51_10 C 0.40287(9) 0.57208(9) 0.79371(9)
C52_10 C 0.33931(8) 0.53116(8) 0.60080(8)
C53_10 C 0.41069(8) 0.60080(8) 0.71884(8)
C54_10 C 0.46884(8) 0.39920(8) 0.66069(8)
C55_10 C 0.39920(8) 0.28116(8) 0.58931(8)
C56_10 C 0.39920(8) 0.58931(8) 0.78116(8)
H32_10 H 0.3518 0.5340 0.5933
H33_10 H 0.3982 0.5933 0.7160
H34_10 H 0.4660 0.4067 0.6482
H35_10 H 0.4067 0.2840 0.6018
H36_10 H 0.4067 0.6018 0.7840
C57_10 C 0.39078(10) 0.58479(10) 0.51517(10)
C58_10 C 0.35922(10) 0.51517(10) 0.66521(10)
C59_10 C 0.41521(10) 0.48483(10) 0.60922(10)
C60_10 C 0.48483(10) 0.33479(10) 0.64078(10)
C61_10 C 0.48483(10) 0.64078(10) 0.83479(10)
H37_10 H 0.4016 0.5859 0.5051
H38_10 H 0.3484 0.5051 0.6641
H39_10 H 0.4141 0.4949 0.5984
H40_10 H 0.4949 0.3359 0.6516
H41_10 H 0.4949 0.6516 0.8359
C62_10 C 0.39010(11) 0.56714(12) 0.52748(12)
C63_10 C 0.35990(11) 0.52748(12) 0.68286(12)
C64_10 C 0.43286(12) 0.47252(12) 0.60990(11)
C65_10 C 0.47252(12) 0.31714(12) 0.64010(11)
C66_10 C 0.47252(12) 0.64010(11) 0.81714(12)
H42_10 H 0.4004 0.5566 0.5261
H43_10 H 0.3496 0.5261 0.6934
H44_10 H 0.4434 0.4739 0.5996
H45_10 H 0.4739 0.3066 0.6504
H46_10 H 0.4739 0.6504 0.8066
C67_10 C 0.37406(10) 0.56497(11) 0.54197(10)
C68_10 C 0.37594(10) 0.54197(10) 0.68503(11)
C69_10 C 0.43503(11) 0.45803(10) 0.62594(10)
C70_10 C 0.45803(10) 0.31497(11) 0.62406(10)
C71_10 C 0.45803(10) 0.62406(10) 0.81497(11)
H47_10 H 0.3730 0.5528 0.5504
H48_10 H 0.3770 0.5504 0.6972
H49_10 H 0.4472 0.4496 0.6270
H50_10 H 0.4496 0.3028 0.6230
H51_10 H 0.4496 0.6230 0.8028
C72_10 C 0.35964(9) 0.58104(9) 0.54379(9)
C73_10 C 0.39036(9) 0.54379(9) 0.66896(9)
C74_10 C 0.41896(9) 0.45621(9) 0.64036(9)
C75_10 C 0.45621(9) 0.33104(9) 0.60964(9)
C76_10 C 0.45621(9) 0.60964(9) 0.83104(9)
C77_10 C 0.36154(8) 0.59806(8) 0.53084(8)
C78_10 C 0.38846(8) 0.53084(8) 0.65194(8)
C79_10 C 0.40194(8) 0.46916(8) 0.63846(8)
C80_10 C 0.46916(8) 0.34806(8) 0.61154(8)
C81_10 C 0.46916(8) 0.61154(8) 0.84806(8)
H52_10 H 0.3514 0.6088 0.5319
H53_10 H 0.3986 0.5319 0.6412
H54_10 H 0.3912 0.4681 0.6486
H55_10 H 0.4681 0.3588 0.6014
H56_10 H 0.4681 0.6014 0.8588
C82_10 C 0.34252(8) 0.57995(8) 0.55921(8)
C83_10 C 0.40748(8) 0.55921(8) 0.67005(8)
C84_10 C 0.42005(8) 0.44079(8) 0.65748(8)
C85_10 C 0.44079(8) 0.32995(8) 0.59252(8)
C86_10 C 0.44079(8) 0.59252(8) 0.82995(8)
C87_10 C 0.32459(9) 0.56235(9) 0.58380(8)
C88_10 C 0.42541(9) 0.58380(8) 0.68765(9)
C89_10 C 0.43765(9) 0.41620(8) 0.67541(9)
C90_10 C 0.41620(8) 0.31235(9) 0.57459(9)
C91_10 C 0.41620(8) 0.57459(9) 0.81235(9)
C92_10 C 0.31522(9) 0.59478(9) 0.57535(8)
C93_10 C 0.43478(9) 0.57535(8) 0.65522(9)
C94_10 C 0.40522(9) 0.42465(8) 0.68478(9)
C95_10 C 0.42465(8) 0.34478(9) 0.56522(9)
C96_10 C 0.42465(8) 0.56522(9) 0.84478(9)
C97_10 C 0.30228(10) 0.61334(10) 0.57968(9)
C98_10 C 0.44772(10) 0.57968(9) 0.63666(10)
C99_10 C 0.38666(10) 0.42032(9) 0.69772(10)
C100_10 C 0.42032(9) 0.36334(10) 0.55228(10)
C101_10 C 0.42032(9) 0.55228(10) 0.86334(10)
C102_10 C 0.28803(9) 0.61304(9) 0.59597(8)
C103_10 C 0.46197(9) 0.59597(8) 0.63696(9)
C104_10 C 0.38696(9) 0.40403(8) 0.71197(9)
C105_10 C 0.40403(8) 0.36304(9) 0.53803(9)
C106_10 C 0.40403(8) 0.53803(9) 0.86304(9)
H57_10 H 0.2869 0.6007 0.6041
H58_10 H 0.4631 0.6041 0.6493
H59_10 H 0.3993 0.3959 0.7131
H60_10 H 0.3959 0.3507 0.5369
H61_10 H 0.3959 0.5369 0.8507
C107_10 C 0.27778(12) 0.64658(13) 0.58950(12)
C108_10 C 0.47222(12) 0.58950(12) 0.60342(13)
C109_10 C 0.35342(13) 0.41050(12) 0.72222(12)
C110_10 C 0.41050(12) 0.39658(13) 0.52778(12)
C111_10 C 0.41050(12) 0.52778(12) 0.89658(13)
H62_10 H 0.2694 0.6583 0.5931
H63_10 H 0.4806 0.5931 0.5917
H64_10 H 0.3417 0.4069 0.7306
H65_10 H 0.4069 0.4083 0.5194
H66_10 H 0.4069 0.5194 0.9083
C112_10 C 0.29123(14) 0.64821(16) 0.57309(15)
C113_10 C 0.45877(14) 0.57309(15) 0.60179(16)
C114_10 C 0.35179(16) 0.42691(15) 0.70877(14)
C115_10 C 0.42691(15) 0.39821(16) 0.54123(14)
C116_10 C 0.42691(15) 0.54123(14) 0.89821(16)
H67_10 H 0.2916 0.6607 0.5651
H68_10 H 0.4584 0.5651 0.5893
H69_10 H 0.3393 0.4349 0.7084
H70_10 H 0.4349 0.4107 0.5416
H71_10 H 0.4349 0.5416 0.9107
C117_10 C 0.30439(12) 0.63179(14) 0.56794(14)
C118_10 C 0.44561(12) 0.56794(14) 0.61821(14)
C119_10 C 0.36821(14) 0.43206(14) 0.69561(12)
C120_10 C 0.43206(14) 0.38179(14) 0.55439(12)
C121_10 C 0.43206(14) 0.55439(12) 0.88179(14)
H72_10 H 0.3144 0.6330 0.5570
H73_10 H 0.4356 0.5570 0.6170
H74_10 H 0.3670 0.4430 0.6856
H75_10 H 0.4430 0.3830 0.5644
H76_10 H 0.4430 0.5644 0.8830
C122_10 C 0.37871(9) 0.32519(12) 0.49932(12)
C123_10 C 0.24932(12) 0.57519(12) 0.62129(9)
C124_10 C 0.24932(12) 0.67481(12) 0.62871(9)
C125_10 C 0.50068(12) 0.62129(9) 0.67481(12)
C126_10 C 0.50068(12) 0.62871(9) 0.57519(12)
C127_10 C 0.38763(10) 0.26695(12) 0.41746(11)
C128_10 C 0.26695(12) 0.33254(11) 0.36237(10)
H77_10 H 0.3982 0.2566 0.4163
H78_10 H 0.2566 0.3337 0.3518
C132_10 C 0.38661(12) 0.27819(13) 0.43525(12)
C133_10 C 0.27819(13) 0.31475(12) 0.36339(12)
H82_10 H 0.3961 0.2756 0.4464
H83_10 H 0.2756 0.3036 0.3539
C137_10 C 0.37150(11) 0.29363(12) 0.43705(12)
C138_10 C 0.29363(12) 0.31295(12) 0.37850(11)
H87_10 H 0.3704 0.3016 0.4495
H88_10 H 0.3016 0.3005 0.3796
C142_10 C 0.35813(9) 0.29718(10) 0.42050(9)
C143_10 C 0.29718(10) 0.32950(9) 0.39187(9)
C147_10 C 0.35997(8) 0.28457(9) 0.40293(8)
C148_10 C 0.28457(9) 0.34707(8) 0.39003(8)
H92_10 H 0.3506 0.2867 0.3917
H93_10 H 0.2867 0.3583 0.3994
C152_10 C 0.34173(9) 0.31333(10) 0.42150(9)
C153_10 C 0.31333(10) 0.32850(9) 0.40827(9)
N11_10 N 0.35442(7) 0.47663(6) 0.63629(7)
N12_10 N 0.39558(7) 0.63629(7) 0.77337(6)
N13_10 N 0.36371(7) 0.60442(7) 0.72663(6)
N14_10 N 0.52337(6) 0.36371(7) 0.64558(7)
N15_10 N 0.47663(6) 0.39558(7) 0.61371(7)
N16_10 N 0.33942(7) 0.51525(7) 0.61431(7)
N17_10 N 0.41058(7) 0.61431(7) 0.73475(7)
N18_10 N 0.48475(7) 0.38569(7) 0.66058(7)
N19_10 N 0.38569(7) 0.26525(7) 0.58942(7)
N20_10 N 0.38569(7) 0.58942(7) 0.76525(7)
N21_10 N 0.51525(7) 0.41058(7) 0.63569(7)
N23_10 N 0.37292(7) 0.51671(7) 0.64958(7)
N24_10 N 0.39958(7) 0.48329(7) 0.62292(7)
N25_10 N 0.48329(7) 0.35042(7) 0.62708(7)
N26_10 N 0.48329(7) 0.62708(7) 0.85042(7)
N27_10 N 0.35042(7) 0.62292(7) 0.76671(7)
N28_10 N 0.37708(7) 0.64958(7) 0.73329(7)
N30_10 N 0.34064(8) 0.56241(7) 0.57026(7)
N31_10 N 0.40936(8) 0.57026(7) 0.68759(7)
N32_10 N 0.43759(7) 0.42974(7) 0.65936(8)
N33_10 N 0.42974(7) 0.31241(7) 0.59064(8)
N34_10 N 0.42974(7) 0.59064(8) 0.81241(7)
N35_10 N 0.33042(8) 0.59680(8) 0.56105(7)
N36_10 N 0.41958(8) 0.56105(7) 0.65320(8)
N37_10 N 0.40320(8) 0.43895(7) 0.66958(8)
N38_10 N 0.43895(7) 0.34680(8) 0.58042(8)
N39_10 N 0.43895(7) 0.58042(8) 0.84680(8)
N40_10 N 0.31145(8) 0.57770(8) 0.58669(7)
N41_10 N 0.43855(8) 0.58669(7) 0.67230(8)
N42_10 N 0.42230(8) 0.41331(7) 0.68855(8)
N43_10 N 0.41331(7) 0.32770(8) 0.56145(8)
N44_10 N 0.41331(7) 0.56145(8) 0.82770(8)
N45_10 N 0.27590(8) 0.62901(8) 0.60080(7)
N46_10 N 0.47410(8) 0.60080(7) 0.62099(8)
N47_10 N 0.37099(8) 0.39920(7) 0.72410(8)
N48_10 N 0.39920(7) 0.37901(8) 0.52590(8)
N49_10 N 0.39920(7) 0.52590(8) 0.87901(8)
N50_10 N 0.27590(8) 0.62099(8) 0.64920(7)
N51_10 N 0.47410(8) 0.64920(7) 0.62901(8)
N52_10 N 0.37765(7) 0.34258(8) 0.50120(8)
N53_10 N 0.25120(8) 0.59258(8) 0.62235(7)
N54_10 N 0.25120(8) 0.65742(8) 0.62765(7)
N55_10 N 0.49880(8) 0.62235(7) 0.65742(8)
N56_10 N 0.49880(8) 0.62765(7) 0.59258(8)
N57_10 N 0.37451(7) 0.26957(7) 0.40127(7)
N58_10 N 0.26957(7) 0.34873(7) 0.37549(7)
N62_10 N 0.23043(7) 0.62549(7) 0.59873(7)
N63_10 N 0.23043(7) 0.62451(7) 0.65127(7)
N64_10 N 0.51957(7) 0.59873(7) 0.62451(7)
N65_10 N 0.51957(7) 0.65127(7) 0.62549(7)
N66_10 N 0.32750(8) 0.31333(8) 0.40657(7)
N67_10 N 0.31333(8) 0.34343(7) 0.42250(8)
Co5_13 Co -0.0000 0.380239(13) 0.130239(13)
S9_11 S 0.00374(4) 0.20005(7) 0.11986(4)
S10_11 S 0.00374(4) 0.04995(7) 0.13014(4)
C123_11 C 0.00068(12) 0.17481(12) 0.12129(9)
C124_11 C 0.00068(12) 0.07519(12) 0.12871(9)
N62_11 N 0.01957(7) 0.12451(7) 0.09873(7)
N63_11 N 0.01957(7) 0.12549(7) 0.15127(7)
Co1_14 Co 0.880239(13) 0.2500 0.119761(13)
S1_11 S 0.83505(3) 0.20957(3) 0.07662(3)
C1_11 C 0.85202(9) 0.21896(8) 0.09320(9)
C2_11 C 0.87624(11) 0.26080(11) 0.07107(10)
H1_11 H 0.8668 0.2494 0.0706
C3_11 C 0.87970(13) 0.27207(13) 0.05308(10)
H2_11 H 0.8733 0.2680 0.0404
C4_11 C 0.89254(12) 0.28937(11) 0.05371(10)
H3_11 H 0.8942 0.2980 0.0418
C5_11 C 0.90287(9) 0.29371(9) 0.07208(9)
C6_11 C 0.89920(8) 0.28116(8) 0.08931(8)
H4_11 H 0.9067 0.2840 0.1018
C7_11 C 0.98483(10) 0.33479(10) 0.14078(10)
H5_11 H 0.9949 0.3359 0.1516
C8_11 C 0.97252(12) 0.31714(12) 0.14010(11)
H6_11 H 0.9739 0.3066 0.1504
C9_11 C 0.95803(10) 0.31497(11) 0.12406(10)
H7_11 H 0.9496 0.3028 0.1230
C10_11 C 0.95621(9) 0.33104(9) 0.10964(9)
C11_11 C 0.96916(8) 0.34806(8) 0.11154(8)
H8_11 H 0.9681 0.3588 0.1014
C12_11 C 0.94079(8) 0.32995(8) 0.09252(8)
C13_11 C 0.91620(8) 0.31235(9) 0.07459(9)
C14_11 C 0.92465(8) 0.34478(9) 0.06522(9)
C15_11 C 0.92032(9) 0.36334(10) 0.05228(10)
C16_11 C 0.90403(8) 0.36304(9) 0.03803(9)
H9_11 H 0.8959 0.3507 0.0369
C17_11 C 0.91050(12) 0.39658(13) 0.02778(12)
H10_11 H 0.9069 0.4083 0.0194
C18_11 C 0.92691(15) 0.39821(16) 0.04123(14)
H11_11 H 0.9349 0.4107 0.0416
C19_11 C 0.93206(14) 0.38179(14) 0.05439(12)
H12_11 H 0.9430 0.3830 0.0644
N1_11 N 0.86371(7) 0.22663(6) 0.10442(7)
N2_11 N 0.88569(7) 0.26525(7) 0.08942(7)
N3_11 N 0.98329(7) 0.35042(7) 0.12708(7)
N4_11 N 0.92974(7) 0.31241(7) 0.09064(8)
N5_11 N 0.93895(7) 0.34680(8) 0.08042(8)
N6_11 N 0.91331(7) 0.32770(8) 0.06145(8)
N7_11 N 0.89920(7) 0.37901(8) 0.02590(8)
N8_11 N 0.87765(7) 0.34258(8) 0.00120(8)
Co3_13 Co 0.869761(13) 0.130239(13) 0.2500
Co5_14 Co 1.0000 0.380239(13) 0.130239(13)
Co7_13 Co 0.869761(13) 0.5000 0.119761(13)
Co8_13 Co 0.7500 0.119761(13) 0.380239(13)
Co9_11 Co 0.9978 0.1250 0.125000(15)
Co10_11 Co 0.7522 0.125000(15) 0.1250
Co13_11 Co 0.8750 0.375000(15) 0.2478
Co16_11 Co 0.875000(15) 0.2478 0.3750
S3_11 S 0.92338(3) 0.29043(3) 0.16495(3)
S4_11 S 0.82662(3) 0.08505(3) 0.29043(3)
S5_11 S 0.91495(3) 0.17338(3) 0.20957(3)
S6_11 S 0.70957(3) 0.41495(3) 0.17338(3)
S7_11 S 0.79043(3) 0.32662(3) 0.08505(3)
S11_11 S 0.74626(4) 0.13014(4) 0.20005(7)
S12_11 S 0.74626(4) 0.11986(4) 0.04995(7)
C27_11 C 0.90680(9) 0.28104(8) 0.14798(9)
C28_11 C 0.84320(9) 0.10202(9) 0.28104(8)
C29_11 C 0.89798(9) 0.15680(9) 0.21896(8)
C30_11 C 0.71896(8) 0.39798(9) 0.15680(9)
C31_11 C 0.78104(8) 0.34320(9) 0.10202(9)
C32_11 C 0.92893(10) 0.23920(11) 0.12376(11)
C33_11 C 0.82107(10) 0.12624(11) 0.23920(11)
C34_11 C 0.76080(11) 0.37376(11) 0.17893(10)
C35_11 C 0.87376(11) 0.48920(11) 0.07107(10)
C36_11 C 0.87376(11) 0.17893(10) 0.26080(11)
H17_11 H 0.9294 0.2506 0.1332
H18_11 H 0.8206 0.1168 0.2506
H19_11 H 0.7494 0.3832 0.1794
H20_11 H 0.8832 0.5006 0.0706
H21_11 H 0.8832 0.1794 0.2494
C37_11 C 0.94692(10) 0.22793(13) 0.12030(13)
C38_11 C 0.80308(10) 0.12970(13) 0.22793(13)
C39_11 C 0.77207(13) 0.37030(13) 0.19692(10)
C40_11 C 0.87030(13) 0.47793(13) 0.05308(10)
C41_11 C 0.87030(13) 0.19692(10) 0.27207(13)
H22_11 H 0.9596 0.2320 0.1267
H23_11 H 0.7904 0.1233 0.2320
H24_11 H 0.7680 0.3767 0.2096
H25_11 H 0.8767 0.4820 0.0404
H26_11 H 0.8767 0.2096 0.2680
C42_11 C 0.94629(10) 0.21063(11) 0.10746(12)
C43_11 C 0.80371(10) 0.14254(12) 0.21063(11)
C44_11 C 0.78937(11) 0.35746(12) 0.19629(10)
C45_11 C 0.85746(12) 0.46063(11) 0.05371(10)
C46_11 C 0.85746(12) 0.19629(10) 0.28937(11)
H27_11 H 0.9582 0.2020 0.1058
H28_11 H 0.7918 0.1442 0.2020
H29_11 H 0.7980 0.3558 0.2082
H30_11 H 0.8558 0.4520 0.0418
H31_11 H 0.8558 0.2082 0.2980
C47_11 C 0.92792(9) 0.20629(9) 0.09713(9)
C48_11 C 0.82208(9) 0.15287(9) 0.20629(9)
C49_11 C 0.79371(9) 0.34713(9) 0.17792(9)
C50_11 C 0.84713(9) 0.45629(9) 0.07208(9)
C51_11 C 0.84713(9) 0.17792(9) 0.29371(9)
C52_11 C 0.91069(8) 0.21884(8) 0.10080(8)
C53_11 C 0.83931(8) 0.14920(8) 0.21884(8)
C54_11 C 0.78116(8) 0.35080(8) 0.16069(8)
C55_11 C 0.85080(8) 0.46884(8) 0.08931(8)
C56_11 C 0.85080(8) 0.16069(8) 0.28116(8)
H32_11 H 0.8982 0.2160 0.0933
H33_11 H 0.8518 0.1567 0.2160
H34_11 H 0.7840 0.3433 0.1482
H35_11 H 0.8433 0.4660 0.1018
H36_11 H 0.8433 0.1482 0.2840
C57_11 C 0.85922(10) 0.16521(10) 0.01517(10)
C58_11 C 0.89078(10) 0.23483(10) 0.16521(10)
C59_11 C 0.83479(10) 0.26517(10) 0.10922(10)
C60_11 C 0.76517(10) 0.41521(10) 0.14078(10)
C61_11 C 0.76517(10) 0.10922(10) 0.33479(10)
H37_11 H 0.8484 0.1641 0.0051
H38_11 H 0.9016 0.2449 0.1641
H39_11 H 0.8359 0.2551 0.0984
H40_11 H 0.7551 0.4141 0.1516
H41_11 H 0.7551 0.0984 0.3359
C62_11 C 0.85990(11) 0.18286(12) 0.02748(12)
C63_11 C 0.89010(11) 0.22252(12) 0.18286(12)
C64_11 C 0.81714(12) 0.27748(12) 0.10990(11)
C65_11 C 0.77748(12) 0.43286(12) 0.14010(11)
C66_11 C 0.77748(12) 0.10990(11) 0.31714(12)
H42_11 H 0.8496 0.1934 0.0261
H43_11 H 0.9004 0.2239 0.1934
H44_11 H 0.8066 0.2761 0.0996
H45_11 H 0.7761 0.4434 0.1504
H46_11 H 0.7761 0.0996 0.3066
C67_11 C 0.87594(10) 0.18503(11) 0.04197(10)
C68_11 C 0.87406(10) 0.20803(10) 0.18503(11)
C69_11 C 0.81497(11) 0.29197(10) 0.12594(10)
C70_11 C 0.79197(10) 0.43503(11) 0.12406(10)
C71_11 C 0.79197(10) 0.12594(10) 0.31497(11)
H47_11 H 0.8770 0.1972 0.0504
H48_11 H 0.8730 0.1996 0.1972
H49_11 H 0.8028 0.3004 0.1270
H50_11 H 0.8004 0.4472 0.1230
H51_11 H 0.8004 0.1270 0.3028
C72_11 C 0.89036(9) 0.16896(9) 0.04379(9)
C73_11 C 0.85964(9) 0.20621(9) 0.16896(9)
C74_11 C 0.83104(9) 0.29379(9) 0.14036(9)
C75_11 C 0.79379(9) 0.41896(9) 0.10964(9)
C76_11 C 0.79379(9) 0.14036(9) 0.33104(9)
C77_11 C 0.88846(8) 0.15194(8) 0.03084(8)
C78_11 C 0.86154(8) 0.21916(8) 0.15194(8)
C79_11 C 0.84806(8) 0.28084(8) 0.13846(8)
C80_11 C 0.78084(8) 0.40194(8) 0.11154(8)
C81_11 C 0.78084(8) 0.13846(8) 0.34806(8)
H52_11 H 0.8986 0.1412 0.0319
H53_11 H 0.8514 0.2181 0.1412
H54_11 H 0.8588 0.2819 0.1486
H55_11 H 0.7819 0.3912 0.1014
H56_11 H 0.7819 0.1486 0.3588
C82_11 C 0.90748(8) 0.17005(8) 0.05921(8)
C83_11 C 0.84252(8) 0.19079(8) 0.17005(8)
C84_11 C 0.82995(8) 0.30921(8) 0.15748(8)
C85_11 C 0.80921(8) 0.42005(8) 0.09252(8)
C86_11 C 0.80921(8) 0.15748(8) 0.32995(8)
C87_11 C 0.92541(9) 0.18765(9) 0.08380(8)
C88_11 C 0.82459(9) 0.16620(8) 0.18765(9)
C89_11 C 0.81235(9) 0.33380(8) 0.17541(9)
C90_11 C 0.83380(8) 0.43765(9) 0.07459(9)
C91_11 C 0.83380(8) 0.17541(9) 0.31235(9)
C92_11 C 0.93478(9) 0.15522(9) 0.07535(8)
C93_11 C 0.81522(9) 0.17465(8) 0.15522(9)
C94_11 C 0.84478(9) 0.32535(8) 0.18478(9)
C95_11 C 0.82535(8) 0.40522(9) 0.06522(9)
C96_11 C 0.82535(8) 0.18478(9) 0.34478(9)
C97_11 C 0.94772(10) 0.13666(10) 0.07968(9)
C98_11 C 0.80228(10) 0.17032(9) 0.13666(10)
C99_11 C 0.86334(10) 0.32968(9) 0.19772(10)
C100_11 C 0.82968(9) 0.38666(10) 0.05228(10)
C101_11 C 0.82968(9) 0.19772(10) 0.36334(10)
C102_11 C 0.96197(9) 0.13696(9) 0.09597(8)
C103_11 C 0.78803(9) 0.15403(8) 0.13696(9)
C104_11 C 0.86304(9) 0.34597(8) 0.21197(9)
C105_11 C 0.84597(8) 0.38696(9) 0.03803(9)
C106_11 C 0.84597(8) 0.21197(9) 0.36304(9)
H57_11 H 0.9631 0.1493 0.1041
H58_11 H 0.7869 0.1459 0.1493
H59_11 H 0.8507 0.3541 0.2131
H60_11 H 0.8541 0.3993 0.0369
H61_11 H 0.8541 0.2131 0.3507
C107_11 C 0.97222(12) 0.10342(13) 0.08950(12)
C108_11 C 0.77778(12) 0.16050(12) 0.10342(13)
C109_11 C 0.89658(13) 0.33950(12) 0.22222(12)
C110_11 C 0.83950(12) 0.35342(13) 0.02778(12)
C111_11 C 0.83950(12) 0.22222(12) 0.39658(13)
H62_11 H 0.9806 0.0917 0.0931
H63_11 H 0.7694 0.1569 0.0917
H64_11 H 0.9083 0.3431 0.2306
H65_11 H 0.8431 0.3417 0.0194
H66_11 H 0.8431 0.2306 0.4083
C112_11 C 0.95877(14) 0.10179(16) 0.07309(15)
C113_11 C 0.79123(14) 0.17691(15) 0.10179(16)
C114_11 C 0.89821(16) 0.32309(15) 0.20877(14)
C115_11 C 0.82309(15) 0.35179(16) 0.04123(14)
C116_11 C 0.82309(15) 0.20877(14) 0.39821(16)
H67_11 H 0.9584 0.0893 0.0651
H68_11 H 0.7916 0.1849 0.0893
H69_11 H 0.9107 0.3151 0.2084
H70_11 H 0.8151 0.3393 0.0416
H71_11 H 0.8151 0.2084 0.4107
C117_11 C 0.94561(12) 0.11821(14) 0.06794(14)
C118_11 C 0.80439(12) 0.18206(14) 0.11821(14)
C119_11 C 0.88179(14) 0.31794(14) 0.19561(12)
C120_11 C 0.81794(14) 0.36821(14) 0.05439(12)
C121_11 C 0.81794(14) 0.19561(12) 0.38179(14)
H72_11 H 0.9356 0.1170 0.0570
H73_11 H 0.8144 0.1930 0.1170
H74_11 H 0.8830 0.3070 0.1856
H75_11 H 0.8070 0.3670 0.0644
H76_11 H 0.8070 0.1856 0.3830
C125_11 C 0.74932(12) 0.12871(9) 0.17481(12)
C126_11 C 0.74932(12) 0.12129(9) 0.07519(12)
N11_11 N 0.89558(7) 0.27337(6) 0.13629(7)
N12_11 N 0.85442(7) 0.11371(7) 0.27337(6)
N13_11 N 0.88629(7) 0.14558(7) 0.22663(6)
N14_11 N 0.72663(6) 0.38629(7) 0.14558(7)
N15_11 N 0.77337(6) 0.35442(7) 0.11371(7)
N16_11 N 0.91058(7) 0.23475(7) 0.11431(7)
N17_11 N 0.83942(7) 0.13569(7) 0.23475(7)
N18_11 N 0.76525(7) 0.36431(7) 0.16058(7)
N19_11 N 0.86431(7) 0.48475(7) 0.08942(7)
N20_11 N 0.86431(7) 0.16058(7) 0.26525(7)
N21_11 N 0.73475(7) 0.33942(7) 0.13569(7)
N23_11 N 0.87708(7) 0.23329(7) 0.14958(7)
N24_11 N 0.85042(7) 0.26671(7) 0.12292(7)
N25_11 N 0.76671(7) 0.39958(7) 0.12708(7)
N26_11 N 0.76671(7) 0.12292(7) 0.35042(7)
N27_11 N 0.89958(7) 0.12708(7) 0.26671(7)
N28_11 N 0.87292(7) 0.10042(7) 0.23329(7)
N30_11 N 0.90936(8) 0.18759(7) 0.07026(7)
N31_11 N 0.84064(8) 0.17974(7) 0.18759(7)
N32_11 N 0.81241(7) 0.32026(7) 0.15936(8)
N33_11 N 0.82026(7) 0.43759(7) 0.09064(8)
N34_11 N 0.82026(7) 0.15936(8) 0.31241(7)
N35_11 N 0.91958(8) 0.15320(8) 0.06105(7)
N36_11 N 0.83042(8) 0.18895(7) 0.15320(8)
N37_11 N 0.84680(8) 0.31105(7) 0.16958(8)
N38_11 N 0.81105(7) 0.40320(8) 0.08042(8)
N39_11 N 0.81105(7) 0.16958(8) 0.34680(8)
N40_11 N 0.93855(8) 0.17230(8) 0.08669(7)
N41_11 N 0.81145(8) 0.16331(7) 0.17230(8)
N42_11 N 0.82770(8) 0.33669(7) 0.18855(8)
N43_11 N 0.83669(7) 0.42230(8) 0.06145(8)
N44_11 N 0.83669(7) 0.18855(8) 0.32770(8)
N45_11 N 0.97410(8) 0.12099(8) 0.10080(7)
N46_11 N 0.77590(8) 0.14920(7) 0.12099(8)
N47_11 N 0.87901(8) 0.35080(7) 0.22410(8)
N48_11 N 0.85080(7) 0.37099(8) 0.02590(8)
N49_11 N 0.85080(7) 0.22410(8) 0.37901(8)
N50_11 N 0.97410(8) 0.12901(8) 0.14920(7)
N51_11 N 0.77590(8) 0.10080(7) 0.12901(8)
N52_11 N 0.87235(7) 0.40742(8) 0.00120(8)
N53_11 N 0.99880(8) 0.15742(8) 0.12235(7)
N54_11 N 0.99880(8) 0.09258(8) 0.12765(7)
N55_11 N 0.75120(8) 0.12765(7) 0.15742(8)
N56_11 N 0.75120(8) 0.12235(7) 0.09258(8)
N64_11 N 0.73043(7) 0.15127(7) 0.12451(7)
N65_11 N 0.73043(7) 0.09873(7) 0.12549(7)
S2_11 S 0.88014(4) 0.29995(7) 0.99626(4)
C20_11 C 0.87871(9) 0.32519(12) 0.99932(12)
C21_11 C 0.91746(11) 0.36237(10) 0.98305(12)
H13_11 H 0.9163 0.3518 0.9934
C22_11 C 0.93525(12) 0.36339(12) 0.97181(13)
H14_11 H 0.9464 0.3539 0.9744
C23_11 C 0.93705(12) 0.37850(11) 0.95637(12)
H15_11 H 0.9495 0.3796 0.9484
C24_11 C 0.92050(9) 0.39187(9) 0.95282(10)
C25_11 C 0.90293(8) 0.39003(8) 0.96543(9)
H16_11 H 0.8917 0.3994 0.9633
C26_11 C 0.92150(9) 0.40827(9) 0.93667(10)
N9_11 N 0.90127(7) 0.37549(7) 0.98043(7)
N10_11 N 0.90657(7) 0.42250(8) 0.93667(8)
S8_11 S 0.86986(4) 0.45005(7) 0.99626(4)
C122_11 C 0.87129(9) 0.42481(12) 0.99932(12)
C127_11 C 0.86237(10) 0.48305(12) 0.91746(11)
C128_11 C 0.98305(12) 0.41746(11) 0.86237(10)
H77_11 H 0.8518 0.4934 0.9163
H78_11 H 0.9934 0.4163 0.8518
C132_11 C 0.86339(12) 0.47181(13) 0.93525(12)
C133_11 C 0.97181(13) 0.43525(12) 0.86339(12)
H82_11 H 0.8539 0.4744 0.9464
H83_11 H 0.9744 0.4464 0.8539
C137_11 C 0.87850(11) 0.45637(12) 0.93705(12)
C138_11 C 0.95637(12) 0.43705(12) 0.87850(11)
H87_11 H 0.8796 0.4484 0.9495
H88_11 H 0.9484 0.4495 0.8796
C142_11 C 0.89187(9) 0.45282(10) 0.92050(9)
C143_11 C 0.95282(10) 0.42050(9) 0.89187(9)
C147_11 C 0.89003(8) 0.46543(9) 0.90293(8)
C148_11 C 0.96543(9) 0.40293(8) 0.89003(8)
H92_11 H 0.8994 0.4633 0.8917
H93_11 H 0.9633 0.3917 0.8994
C152_11 C 0.90827(9) 0.43667(10) 0.92150(9)
C153_11 C 0.93667(10) 0.42150(9) 0.90827(9)
N57_11 N 0.87549(7) 0.48043(7) 0.90127(7)
N58_11 N 0.98043(7) 0.40127(7) 0.87549(7)
N66_11 N 0.92250(8) 0.43667(8) 0.90657(7)
N67_11 N 0.93667(8) 0.40657(7) 0.92250(8)
S6_12 S 0.04043(3) 0.91495(3) 0.07662(3)
S11_12 S 0.00374(4) 0.63014(4) 0.04995(7)
S12_12 S 0.00374(4) 0.61986(4) 0.20005(7)
C30_12 C 0.03104(8) 0.89798(9) 0.09320(9)
H19_12 H 0.0006 0.8832 0.0706
C125_12 C 0.00068(12) 0.62871(9) 0.07519(12)
C126_12 C 0.00068(12) 0.62129(9) 0.17481(12)
N14_12 N 0.02337(6) 0.88629(7) 0.10442(7)
N21_12 N 0.01525(7) 0.83942(7) 0.11431(7)
N64_12 N 0.01957(7) 0.65127(7) 0.12549(7)
N65_12 N 0.01957(7) 0.59873(7) 0.12451(7)
Co8_14 Co 0.0000 0.619761(13) 0.869761(13)
Co7_14 Co 0.880239(13) 0.0000 0.130239(13)
H20_12 H 0.8668 0.0006 0.1794
Co1_15 Co 0.869761(13) 0.7500 0.130239(13)
S1_12 S 0.91495(3) 0.70957(3) 0.17338(3)
S2_12 S 0.86986(4) 0.79995(7) 0.25374(4)
C1_12 C 0.89798(9) 0.71896(8) 0.15680(9)
C2_12 C 0.87376(11) 0.76080(11) 0.17893(10)
H1_12 H 0.8832 0.7494 0.1794
C3_12 C 0.87030(13) 0.77207(13) 0.19692(10)
H2_12 H 0.8767 0.7680 0.2096
C4_12 C 0.85746(12) 0.78937(11) 0.19629(10)
H3_12 H 0.8558 0.7980 0.2082
C5_12 C 0.84713(9) 0.79371(9) 0.17792(9)
C6_12 C 0.85080(8) 0.78116(8) 0.16069(8)
H4_12 H 0.8433 0.7840 0.1482
C7_12 C 0.76517(10) 0.83479(10) 0.10922(10)
H5_12 H 0.7551 0.8359 0.0984
C8_12 C 0.77748(12) 0.81714(12) 0.10990(11)
H6_12 H 0.7761 0.8066 0.0996
C9_12 C 0.79197(10) 0.81497(11) 0.12594(10)
H7_12 H 0.8004 0.8028 0.1270
C10_12 C 0.79379(9) 0.83104(9) 0.14036(9)
C11_12 C 0.78084(8) 0.84806(8) 0.13846(8)
H8_12 H 0.7819 0.8588 0.1486
C12_12 C 0.80921(8) 0.82995(8) 0.15748(8)
C13_12 C 0.83380(8) 0.81235(9) 0.17541(9)
C14_12 C 0.82535(8) 0.84478(9) 0.18478(9)
C15_12 C 0.82968(9) 0.86334(10) 0.19772(10)
C16_12 C 0.84597(8) 0.86304(9) 0.21197(9)
H9_12 H 0.8541 0.8507 0.2131
C17_12 C 0.83950(12) 0.89658(13) 0.22222(12)
H10_12 H 0.8431 0.9083 0.2306
C18_12 C 0.82309(15) 0.89821(16) 0.20877(14)
H11_12 H 0.8151 0.9107 0.2084
C19_12 C 0.81794(14) 0.88179(14) 0.19561(12)
H12_12 H 0.8070 0.8830 0.1856
C20_12 C 0.87129(9) 0.82519(12) 0.25068(12)
C21_12 C 0.83254(11) 0.86237(10) 0.26695(12)
H13_12 H 0.8337 0.8518 0.2566
C22_12 C 0.81475(12) 0.86339(12) 0.27819(13)
H14_12 H 0.8036 0.8539 0.2756
C23_12 C 0.81295(12) 0.87850(11) 0.29363(12)
H15_12 H 0.8005 0.8796 0.3016
C24_12 C 0.82950(9) 0.89187(9) 0.29718(10)
C25_12 C 0.84707(8) 0.89003(8) 0.28457(9)
H16_12 H 0.8583 0.8994 0.2867
C26_12 C 0.82850(9) 0.90827(9) 0.31333(10)
N1_12 N 0.88629(7) 0.72663(6) 0.14558(7)
N2_12 N 0.86431(7) 0.76525(7) 0.16058(7)
N3_12 N 0.76671(7) 0.85042(7) 0.12292(7)
N4_12 N 0.82026(7) 0.81241(7) 0.15936(8)
N5_12 N 0.81105(7) 0.84680(8) 0.16958(8)
N6_12 N 0.83669(7) 0.82770(8) 0.18855(8)
N7_12 N 0.85080(7) 0.87901(8) 0.22410(8)
N8_12 N 0.87235(7) 0.84258(8) 0.24880(8)
N9_12 N 0.84873(7) 0.87549(7) 0.26957(7)
N10_12 N 0.84343(7) 0.92250(8) 0.31333(8)
Co3_14 Co 0.880239(13) 0.630239(13) 0.0000
Co5_15 Co 0.7500 0.880239(13) 0.119761(13)
Co7_15 Co 0.880239(13) 1.0000 0.130239(13)
Co9_12 Co 0.7522 0.6250 0.125000(15)
Co10_12 Co 0.9978 0.625000(15) 0.1250
Co13_12 Co 0.8750 0.875000(15) 0.0022
S3_12 S 0.82662(3) 0.79043(3) 0.08505(3)
S5_12 S 0.83505(3) 0.67338(3) 0.04043(3)
S7_12 S 0.95957(3) 0.82662(3) 0.16495(3)
S8_12 S 0.88014(4) 0.95005(7) 0.25374(4)
S9_12 S 0.74626(4) 0.70005(7) 0.13014(4)
S10_12 S 0.74626(4) 0.54995(7) 0.11986(4)
C27_12 C 0.84320(9) 0.78104(8) 0.10202(9)
C29_12 C 0.85202(9) 0.65680(9) 0.03104(8)
C31_12 C 0.96896(8) 0.84320(9) 0.14798(9)
C32_12 C 0.82107(10) 0.73920(11) 0.12624(11)
C33_12 C 0.92893(10) 0.62624(11) 0.01080(11)
C34_12 C 0.98920(11) 0.87376(11) 0.07107(10)
C35_12 C 0.87624(11) 0.98920(11) 0.17893(10)
H17_12 H 0.8206 0.7506 0.1168
H21_12 H 0.8668 0.6794 0.0006
C37_12 C 0.80308(10) 0.72793(13) 0.12970(13)
C38_12 C 0.94692(10) 0.62970(13) 0.02207(13)
C39_12 C 0.97793(13) 0.87030(13) 0.05308(10)
C40_12 C 0.87970(13) 0.97793(13) 0.19692(10)
H22_12 H 0.7904 0.7320 0.1233
H23_12 H 0.9596 0.6233 0.0180
H24_12 H 0.9820 0.8767 0.0404
H25_12 H 0.8733 0.9820 0.2096
C42_12 C 0.80371(10) 0.71063(11) 0.14254(12)
C43_12 C 0.94629(10) 0.64254(12) 0.03937(11)
C44_12 C 0.96063(11) 0.85746(12) 0.05371(10)
C45_12 C 0.89254(12) 0.96063(11) 0.19629(10)
H27_12 H 0.7918 0.7020 0.1442
H28_12 H 0.9582 0.6442 0.0480
H29_12 H 0.9520 0.8558 0.0418
H30_12 H 0.8942 0.9520 0.2082
C47_12 C 0.82208(9) 0.70629(9) 0.15287(9)
C48_12 C 0.92792(9) 0.65287(9) 0.04371(9)
C49_12 C 0.95629(9) 0.84713(9) 0.07208(9)
C50_12 C 0.90287(9) 0.95629(9) 0.17792(9)
C52_12 C 0.83931(8) 0.71884(8) 0.14920(8)
C53_12 C 0.91069(8) 0.64920(8) 0.03116(8)
C54_12 C 0.96884(8) 0.85080(8) 0.08931(8)
C55_12 C 0.89920(8) 0.96884(8) 0.16069(8)
H32_12 H 0.8518 0.7160 0.1567
H33_12 H 0.8982 0.6567 0.0340
H34_12 H 0.9660 0.8433 0.1018
H35_12 H 0.9067 0.9660 0.1482
C57_12 C 0.89078(10) 0.66521(10) 0.23483(10)
C58_12 C 0.85922(10) 0.73483(10) 0.08479(10)
C59_12 C 0.91521(10) 0.76517(10) 0.14078(10)
C60_12 C 0.98483(10) 0.91521(10) 0.10922(10)
H37_12 H 0.9016 0.6641 0.2449
H38_12 H 0.8484 0.7449 0.0859
H39_12 H 0.9141 0.7551 0.1516
H40_12 H 0.9949 0.9141 0.0984
C62_12 C 0.89010(11) 0.68286(12) 0.22252(12)
C63_12 C 0.85990(11) 0.72252(12) 0.06714(12)
C64_12 C 0.93286(12) 0.77748(12) 0.14010(11)
C65_12 C 0.97252(12) 0.93286(12) 0.10990(11)
H42_12 H 0.9004 0.6934 0.2239
H43_12 H 0.8496 0.7239 0.0566
H44_12 H 0.9434 0.7761 0.1504
H45_12 H 0.9739 0.9434 0.0996
C67_12 C 0.87406(10) 0.68503(11) 0.20803(10)
C68_12 C 0.87594(10) 0.70803(10) 0.06497(11)
C69_12 C 0.93503(11) 0.79197(10) 0.12406(10)
C70_12 C 0.95803(10) 0.93503(11) 0.12594(10)
H47_12 H 0.8730 0.6972 0.1996
H48_12 H 0.8770 0.6996 0.0528
H49_12 H 0.9472 0.8004 0.1230
H50_12 H 0.9496 0.9472 0.1270
C72_12 C 0.85964(9) 0.66896(9) 0.20621(9)
C73_12 C 0.89036(9) 0.70621(9) 0.08104(9)
C74_12 C 0.91896(9) 0.79379(9) 0.10964(9)
C75_12 C 0.95621(9) 0.91896(9) 0.14036(9)
C77_12 C 0.86154(8) 0.65194(8) 0.21916(8)
C78_12 C 0.88846(8) 0.71916(8) 0.09806(8)
C79_12 C 0.90194(8) 0.78084(8) 0.11154(8)
C80_12 C 0.96916(8) 0.90194(8) 0.13846(8)
H52_12 H 0.8514 0.6412 0.2181
H53_12 H 0.8986 0.7181 0.1088
H54_12 H 0.8912 0.7819 0.1014
H55_12 H 0.9681 0.8912 0.1486
C82_12 C 0.84252(8) 0.67005(8) 0.19079(8)
C83_12 C 0.90748(8) 0.69079(8) 0.07995(8)
C84_12 C 0.92005(8) 0.80921(8) 0.09252(8)
C85_12 C 0.94079(8) 0.92005(8) 0.15748(8)
C87_12 C 0.82459(9) 0.68765(9) 0.16620(8)
C88_12 C 0.92541(9) 0.66620(8) 0.06235(9)
C89_12 C 0.93765(9) 0.83380(8) 0.07459(9)
C90_12 C 0.91620(8) 0.93765(9) 0.17541(9)
C92_12 C 0.81522(9) 0.65522(9) 0.17465(8)
C93_12 C 0.93478(9) 0.67465(8) 0.09478(9)
C94_12 C 0.90522(9) 0.82535(8) 0.06522(9)
C95_12 C 0.92465(8) 0.90522(9) 0.18478(9)
C97_12 C 0.80228(10) 0.63666(10) 0.17032(9)
C98_12 C 0.94772(10) 0.67032(9) 0.11334(10)
C99_12 C 0.88666(10) 0.82968(9) 0.05228(10)
C100_12 C 0.92032(9) 0.88666(10) 0.19772(10)
C102_12 C 0.78803(9) 0.63696(9) 0.15403(8)
C103_12 C 0.96197(9) 0.65403(8) 0.11304(9)
C104_12 C 0.88696(9) 0.84597(8) 0.03803(9)
C105_12 C 0.90403(8) 0.88696(9) 0.21197(9)
H57_12 H 0.7869 0.6493 0.1459
H58_12 H 0.9631 0.6459 0.1007
H59_12 H 0.8993 0.8541 0.0369
H60_12 H 0.8959 0.8993 0.2131
C107_12 C 0.77778(12) 0.60342(13) 0.16050(12)
C108_12 C 0.97222(12) 0.66050(12) 0.14658(13)
C109_12 C 0.85342(13) 0.83950(12) 0.02778(12)
C110_12 C 0.91050(12) 0.85342(13) 0.22222(12)
H62_12 H 0.7694 0.5917 0.1569
H63_12 H 0.9806 0.6569 0.1583
H64_12 H 0.8417 0.8431 0.0194
H65_12 H 0.9069 0.8417 0.2306
C112_12 C 0.79123(14) 0.60179(16) 0.17691(15)
C113_12 C 0.95877(14) 0.67691(15) 0.14821(16)
C114_12 C 0.85179(16) 0.82309(15) 0.04123(14)
C115_12 C 0.92691(15) 0.85179(16) 0.20877(14)
H67_12 H 0.7916 0.5893 0.1849
H68_12 H 0.9584 0.6849 0.1607
H69_12 H 0.8393 0.8151 0.0416
H70_12 H 0.9349 0.8393 0.2084
C117_12 C 0.80439(12) 0.61821(14) 0.18206(14)
C118_12 C 0.94561(12) 0.68206(14) 0.13179(14)
C119_12 C 0.86821(14) 0.81794(14) 0.05439(12)
C120_12 C 0.93206(14) 0.86821(14) 0.19561(12)
H72_12 H 0.8144 0.6170 0.1930
H73_12 H 0.9356 0.6930 0.1330
H74_12 H 0.8670 0.8070 0.0644
H75_12 H 0.9430 0.8670 0.1856
C122_12 C 0.87871(9) 0.92481(12) 0.25068(12)
C123_12 C 0.74932(12) 0.67481(12) 0.12871(9)
C124_12 C 0.74932(12) 0.57519(12) 0.12129(9)
C127_12 C 0.88763(10) 0.98305(12) 0.33254(11)
C128_12 C 0.76695(12) 0.91746(11) 0.38763(10)
H77_12 H 0.8982 0.9934 0.3337
H78_12 H 0.7566 0.9163 0.3982
C132_12 C 0.88661(12) 0.97181(13) 0.31475(12)
C133_12 C 0.77819(13) 0.93525(12) 0.38661(12)
H82_12 H 0.8961 0.9744 0.3036
H83_12 H 0.7756 0.9464 0.3961
C137_12 C 0.87150(11) 0.95637(12) 0.31295(12)
C138_12 C 0.79363(12) 0.93705(12) 0.37150(11)
H87_12 H 0.8704 0.9484 0.3005
H88_12 H 0.8016 0.9495 0.3704
C142_12 C 0.85813(9) 0.95282(10) 0.32950(9)
C143_12 C 0.79718(10) 0.92050(9) 0.35813(9)
C147_12 C 0.85997(8) 0.96543(9) 0.34707(8)
C148_12 C 0.78457(9) 0.90293(8) 0.35997(8)
H92_12 H 0.8506 0.9633 0.3583
H93_12 H 0.7867 0.8917 0.3506
C152_12 C 0.84173(9) 0.93667(10) 0.32850(9)
C153_12 C 0.81333(10) 0.92150(9) 0.34173(9)
N11_12 N 0.85442(7) 0.77337(6) 0.11371(7)
N13_12 N 0.86371(7) 0.64558(7) 0.02337(6)
N15_12 N 0.97663(6) 0.85442(7) 0.13629(7)
N16_12 N 0.83942(7) 0.73475(7) 0.13569(7)
N17_12 N 0.91058(7) 0.63569(7) 0.01525(7)
N18_12 N 0.98475(7) 0.86431(7) 0.08942(7)
N19_12 N 0.88569(7) 0.98475(7) 0.16058(7)
N23_12 N 0.87292(7) 0.73329(7) 0.10042(7)
N24_12 N 0.89958(7) 0.76671(7) 0.12708(7)
N25_12 N 0.98329(7) 0.89958(7) 0.12292(7)
N28_12 N 0.87708(7) 0.60042(7) 0.01671(7)
N30_12 N 0.84064(8) 0.68759(7) 0.17974(7)
N31_12 N 0.90936(8) 0.67974(7) 0.06241(7)
N32_12 N 0.93759(7) 0.82026(7) 0.09064(8)
N33_12 N 0.92974(7) 0.93759(7) 0.15936(8)
N35_12 N 0.83042(8) 0.65320(8) 0.18895(7)
N36_12 N 0.91958(8) 0.68895(7) 0.09680(8)
N37_12 N 0.90320(8) 0.81105(7) 0.08042(8)
N38_12 N 0.93895(7) 0.90320(8) 0.16958(8)
N40_12 N 0.81145(8) 0.67230(8) 0.16331(7)
N41_12 N 0.93855(8) 0.66331(7) 0.07770(8)
N42_12 N 0.92230(8) 0.83669(7) 0.06145(8)
N43_12 N 0.91331(7) 0.92230(8) 0.18855(8)
N45_12 N 0.77590(8) 0.62099(8) 0.14920(7)
N46_12 N 0.97410(8) 0.64920(7) 0.12901(8)
N47_12 N 0.87099(8) 0.85080(7) 0.02590(8)
N48_12 N 0.89920(7) 0.87099(8) 0.22410(8)
N50_12 N 0.77590(8) 0.62901(8) 0.10080(7)
N51_12 N 0.97410(8) 0.60080(7) 0.12099(8)
N52_12 N 0.87765(7) 0.90742(8) 0.24880(8)
N53_12 N 0.75120(8) 0.65742(8) 0.12765(7)
N54_12 N 0.75120(8) 0.59258(8) 0.12235(7)
N55_12 N 0.99880(8) 0.62765(7) 0.09258(8)
N56_12 N 0.99880(8) 0.62235(7) 0.15742(8)
N57_12 N 0.87451(7) 0.98043(7) 0.34873(7)
N58_12 N 0.76957(7) 0.90127(7) 0.37451(7)
N62_12 N 0.73043(7) 0.62451(7) 0.15127(7)
N63_12 N 0.73043(7) 0.62549(7) 0.09873(7)
N66_12 N 0.82750(8) 0.93667(8) 0.34343(7)
N67_12 N 0.81333(8) 0.90657(7) 0.32750(8)
Co3_15 Co 0.880239(13) 0.630239(13) 1.0000
Co8_15 Co 1.0000 0.619761(13) 0.869761(13)
Co16_12 Co 0.875000(15) 0.7478 0.8750
S4_12 S 0.92338(3) 0.58505(3) 0.95957(3)
C28_12 C 0.90680(9) 0.60202(9) 0.96896(8)
C36_12 C 0.87624(11) 0.67893(10) 0.98920(11)
H18_12 H 0.9294 0.6168 0.9994
C41_12 C 0.87970(13) 0.69692(10) 0.97793(13)
H26_12 H 0.8733 0.7096 0.9820
C46_12 C 0.89254(12) 0.69629(10) 0.96063(11)
H31_12 H 0.8942 0.7082 0.9520
C51_12 C 0.90287(9) 0.67792(9) 0.95629(9)
C56_12 C 0.89920(8) 0.66069(8) 0.96884(8)
H36_12 H 0.9067 0.6482 0.9660
C61_12 C 0.98483(10) 0.60922(10) 0.91521(10)
H41_12 H 0.9949 0.5984 0.9141
C66_12 C 0.97252(12) 0.60990(11) 0.93286(12)
H46_12 H 0.9739 0.5996 0.9434
C71_12 C 0.95803(10) 0.62594(10) 0.93503(11)
H51_12 H 0.9496 0.6270 0.9472
C76_12 C 0.95621(9) 0.64036(9) 0.91896(9)
C81_12 C 0.96916(8) 0.63846(8) 0.90194(8)
H56_12 H 0.9681 0.6486 0.8912
C86_12 C 0.94079(8) 0.65748(8) 0.92005(8)
C91_12 C 0.91620(8) 0.67541(9) 0.93765(9)
C96_12 C 0.92465(8) 0.68478(9) 0.90522(9)
C101_12 C 0.92032(9) 0.69772(10) 0.88666(10)
C106_12 C 0.90403(8) 0.71197(9) 0.88696(9)
H61_12 H 0.8959 0.7131 0.8993
C111_12 C 0.91050(12) 0.72222(12) 0.85342(13)
H66_12 H 0.9069 0.7306 0.8417
C116_12 C 0.92691(15) 0.70877(14) 0.85179(16)
H71_12 H 0.9349 0.7084 0.8393
C121_12 C 0.93206(14) 0.69561(12) 0.86821(14)
H76_12 H 0.9430 0.6856 0.8670
N12_12 N 0.89558(7) 0.61371(7) 0.97663(6)
N20_12 N 0.88569(7) 0.66058(7) 0.98475(7)
N26_12 N 0.98329(7) 0.62292(7) 0.89958(7)
N27_12 N 0.85042(7) 0.62708(7) 0.98329(7)
N34_12 N 0.92974(7) 0.65936(8) 0.93759(7)
N39_12 N 0.93895(7) 0.66958(8) 0.90320(8)
N44_12 N 0.91331(7) 0.68855(8) 0.92230(8)
N49_12 N 0.89920(7) 0.72410(8) 0.87099(8)
C21_13 C 0.16746(11) 0.01695(12) 0.11237(10)
H13_13 H 0.1663 0.0066 0.1018
C22_13 C 0.18525(12) 0.02819(13) 0.11339(12)
H14_13 H 0.1964 0.0256 0.1039
C23_13 C 0.18705(12) 0.04363(12) 0.12850(11)
H15_13 H 0.1995 0.0516 0.1296
C24_13 C 0.17050(9) 0.04718(10) 0.14187(9)
C25_13 C 0.15293(8) 0.03457(9) 0.14003(8)
H16_13 H 0.1417 0.0367 0.1494
C26_13 C 0.17150(9) 0.06333(10) 0.15827(9)
N10_13 N 0.15657(7) 0.06333(8) 0.17250(8)
Co11_9 Co 0.1250 0.125000(15) 0.2522
Co12_5 Co 0.2522 0.1250 0.125000(15)
C127_13 C 0.11237(10) 0.08254(11) 0.23305(12)
C128_13 C 0.23305(12) 0.13763(10) 0.16746(11)
C129_5 C 0.08254(11) 0.01695(12) 0.13763(10)
C130_5 C 0.13763(10) 0.08254(11) 0.01695(12)
C131_5 C 0.01695(12) 0.13763(10) 0.08254(11)
H77_13 H 0.1018 0.0837 0.2434
H78_13 H 0.2434 0.1482 0.1663
H79_5 H 0.0837 0.0066 0.1482
H80_5 H 0.1482 0.0837 0.0066
H81_5 H 0.0066 0.1482 0.0837
C132_13 C 0.11339(12) 0.06475(12) 0.22181(13)
C133_13 C 0.22181(13) 0.13661(12) 0.18525(12)
C134_5 C 0.06475(12) 0.02819(13) 0.13661(12)
C135_5 C 0.13661(12) 0.06475(12) 0.02819(13)
C136_5 C 0.02819(13) 0.13661(12) 0.06475(12)
H82_13 H 0.1039 0.0536 0.2244
H83_13 H 0.2244 0.1461 0.1964
H84_5 H 0.0536 0.0256 0.1461
H85_5 H 0.1461 0.0536 0.0256
H86_5 H 0.0256 0.1461 0.0536
C137_13 C 0.12850(11) 0.06295(12) 0.20637(12)
C138_13 C 0.20637(12) 0.12150(11) 0.18705(12)
C139_5 C 0.06295(12) 0.04363(12) 0.12150(11)
C140_5 C 0.12150(11) 0.06295(12) 0.04363(12)
C141_5 C 0.04363(12) 0.12150(11) 0.06295(12)
H87_13 H 0.1296 0.0505 0.1984
H88_13 H 0.1984 0.1204 0.1995
H89_5 H 0.0505 0.0516 0.1204
H90_5 H 0.1204 0.0505 0.0516
H91_5 H 0.0516 0.1204 0.0505
C142_13 C 0.14187(9) 0.07950(9) 0.20282(10)
C143_13 C 0.20282(10) 0.10813(9) 0.17050(9)
C144_5 C 0.07950(9) 0.04718(10) 0.10813(9)
C145_5 C 0.10813(9) 0.07950(9) 0.04718(10)
C146_5 C 0.04718(10) 0.10813(9) 0.07950(9)
C147_13 C 0.14003(8) 0.09707(8) 0.21543(9)
C148_13 C 0.21543(9) 0.10997(8) 0.15293(8)
C149_5 C 0.09707(8) 0.03457(9) 0.10997(8)
C150_5 C 0.10997(8) 0.09707(8) 0.03457(9)
C151_5 C 0.03457(9) 0.10997(8) 0.09707(8)
H92_13 H 0.1494 0.1083 0.2133
H93_13 H 0.2133 0.1006 0.1417
H94_5 H 0.1083 0.0367 0.1006
H95_5 H 0.1006 0.1083 0.0367
H96_5 H 0.0367 0.1006 0.1083
C152_13 C 0.15827(9) 0.07850(9) 0.18667(10)
C153_13 C 0.18667(10) 0.09173(9) 0.17150(9)
C154_5 C 0.07850(9) 0.06333(10) 0.09173(9)
C155_5 C 0.09173(9) 0.07850(9) 0.06333(10)
C156_5 C 0.06333(10) 0.09173(9) 0.07850(9)
N57_13 N 0.12549(7) 0.09873(7) 0.23043(7)
N58_13 N 0.23043(7) 0.12451(7) 0.15127(7)
N66_13 N 0.17250(8) 0.09343(7) 0.18667(8)
N67_13 N 0.18667(8) 0.07750(8) 0.15657(7)
N68_5 N 0.09343(7) 0.06333(8) 0.07750(8)
N69_5 N 0.07750(8) 0.09343(7) 0.06333(8)
N70_5 N 0.06333(8) 0.07750(8) 0.09343(7)
C2_13 C 0.12624(11) 0.92893(10) 0.01080(11)
C3_13 C 0.12970(13) 0.94692(10) 0.02207(13)
H2_13 H 0.1233 0.9596 0.0180
C4_13 C 0.14254(12) 0.94629(10) 0.03937(11)
H3_13 H 0.1442 0.9582 0.0480
C5_13 C 0.15287(9) 0.92792(9) 0.04371(9)
C6_13 C 0.14920(8) 0.91069(8) 0.03116(8)
H4_13 H 0.1567 0.8982 0.0340
C7_13 C 0.23483(10) 0.85922(10) 0.08479(10)
H5_13 H 0.2449 0.8484 0.0859
C8_13 C 0.22252(12) 0.85990(11) 0.06714(12)
H6_13 H 0.2239 0.8496 0.0566
C9_13 C 0.20803(10) 0.87594(10) 0.06497(11)
H7_13 H 0.1996 0.8770 0.0528
C10_13 C 0.20621(9) 0.89036(9) 0.08104(9)
C11_13 C 0.21916(8) 0.88846(8) 0.09806(8)
H8_13 H 0.2181 0.8986 0.1088
C12_13 C 0.19079(8) 0.90748(8) 0.07995(8)
C13_13 C 0.16620(8) 0.92541(9) 0.06235(9)
C14_13 C 0.17465(8) 0.93478(9) 0.09478(9)
C15_13 C 0.17032(9) 0.94772(10) 0.11334(10)
C16_13 C 0.15403(8) 0.96197(9) 0.11304(9)
H9_13 H 0.1459 0.9631 0.1007
C17_13 C 0.16050(12) 0.97222(12) 0.14658(13)
H10_13 H 0.1569 0.9806 0.1583
C18_13 C 0.17691(15) 0.95877(14) 0.14821(16)
H11_13 H 0.1849 0.9584 0.1607
C19_13 C 0.18206(14) 0.94561(12) 0.13179(14)
H12_13 H 0.1930 0.9356 0.1330
N2_13 N 0.13569(7) 0.91058(7) 0.01525(7)
N4_13 N 0.17974(7) 0.90936(8) 0.06241(7)
N5_13 N 0.18895(7) 0.91958(8) 0.09680(8)
N6_13 N 0.16331(7) 0.93855(8) 0.07770(8)
S3_13 S 0.17338(3) 0.83505(3) 0.04043(3)
C27_13 C 0.15680(9) 0.85202(9) 0.03104(8)
C34_13 C 0.01080(11) 0.82107(10) 0.12376(11)
C39_13 C 0.02207(13) 0.80308(10) 0.12030(13)
H24_13 H 0.0180 0.7904 0.1267
C44_13 C 0.03937(11) 0.80371(10) 0.10746(12)
H29_13 H 0.0480 0.7918 0.1058
C49_13 C 0.04371(9) 0.82208(9) 0.09713(9)
C54_13 C 0.03116(8) 0.83931(8) 0.10080(8)
H34_13 H 0.0340 0.8518 0.0933
C59_13 C 0.08479(10) 0.89078(10) 0.01517(10)
H39_13 H 0.0859 0.9016 0.0051
C64_13 C 0.06714(12) 0.89010(11) 0.02748(12)
H44_13 H 0.0566 0.9004 0.0261
C69_13 C 0.06497(11) 0.87406(10) 0.04197(10)
H49_13 H 0.0528 0.8730 0.0504
C74_13 C 0.08104(9) 0.85964(9) 0.04379(9)
C79_13 C 0.09806(8) 0.86154(8) 0.03084(8)
H54_13 H 0.1088 0.8514 0.0319
C84_13 C 0.07995(8) 0.84252(8) 0.05921(8)
C89_13 C 0.06235(9) 0.82459(9) 0.08380(8)
C94_13 C 0.09478(9) 0.81522(9) 0.07535(8)
C99_13 C 0.11334(10) 0.80228(10) 0.07968(9)
C104_13 C 0.11304(9) 0.78803(9) 0.09597(8)
H59_13 H 0.1007 0.7869 0.1041
C109_13 C 0.14658(13) 0.77778(12) 0.08950(12)
H64_13 H 0.1583 0.7694 0.0931
C114_13 C 0.14821(16) 0.79123(14) 0.07309(15)
H69_13 H 0.1607 0.7916 0.0651
C119_13 C 0.13179(14) 0.80439(12) 0.06794(14)
H74_13 H 0.1330 0.8144 0.0570
N11_13 N 0.14558(7) 0.86371(7) 0.02337(6)
N24_13 N 0.10042(7) 0.87708(7) 0.01671(7)
N32_13 N 0.06241(7) 0.84064(8) 0.07026(7)
N37_13 N 0.09680(8) 0.83042(8) 0.06105(7)
N42_13 N 0.07770(8) 0.81145(8) 0.08669(7)
S1_13 S 0.08505(3) 0.92338(3) 0.95957(3)
C1_13 C 0.10202(9) 0.90680(9) 0.96896(8)
H1_13 H 0.1168 0.9294 0.9994
N1_13 N 0.11371(7) 0.89558(7) 0.97663(6)
Co16_13 Co 0.125000(15) 0.6250 0.9978
S4_13 S 0.07662(3) 0.70957(3) 0.83505(3)
S5_13 S 0.16495(3) 0.79043(3) 0.92338(3)
C28_13 C 0.09320(9) 0.71896(8) 0.85202(9)
C29_13 C 0.14798(9) 0.78104(8) 0.90680(9)
C33_13 C 0.07107(10) 0.76080(11) 0.87624(11)
C36_13 C 0.12376(11) 0.73920(11) 0.92893(10)
H18_13 H 0.0706 0.7494 0.8668
H21_13 H 0.1332 0.7506 0.9294
C38_13 C 0.05308(10) 0.77207(13) 0.87970(13)
C41_13 C 0.12030(13) 0.72793(13) 0.94692(10)
H23_13 H 0.0404 0.7680 0.8733
H26_13 H 0.1267 0.7320 0.9596
C43_13 C 0.05371(10) 0.78937(11) 0.89254(12)
C46_13 C 0.10746(12) 0.71063(11) 0.94629(10)
H28_13 H 0.0418 0.7980 0.8942
H31_13 H 0.1058 0.7020 0.9582
C48_13 C 0.07208(9) 0.79371(9) 0.90287(9)
C51_13 C 0.09713(9) 0.70629(9) 0.92792(9)
C53_13 C 0.08931(8) 0.78116(8) 0.89920(8)
C56_13 C 0.10080(8) 0.71884(8) 0.91069(8)
H33_13 H 0.1018 0.7840 0.9067
H36_13 H 0.0933 0.7160 0.8982
C58_13 C 0.14078(10) 0.83479(10) 0.98483(10)
C61_13 C 0.01517(10) 0.66521(10) 0.85922(10)
H38_13 H 0.1516 0.8359 0.9949
H41_13 H 0.0051 0.6641 0.8484
C63_13 C 0.14010(11) 0.81714(12) 0.97252(12)
C66_13 C 0.02748(12) 0.68286(12) 0.85990(11)
H43_13 H 0.1504 0.8066 0.9739
H46_13 H 0.0261 0.6934 0.8496
C68_13 C 0.12406(10) 0.81497(11) 0.95803(10)
C71_13 C 0.04197(10) 0.68503(11) 0.87594(10)
H48_13 H 0.1230 0.8028 0.9496
H51_13 H 0.0504 0.6972 0.8770
C73_13 C 0.10964(9) 0.83104(9) 0.95621(9)
C76_13 C 0.04379(9) 0.66896(9) 0.89036(9)
C78_13 C 0.11154(8) 0.84806(8) 0.96916(8)
C81_13 C 0.03084(8) 0.65194(8) 0.88846(8)
H53_13 H 0.1014 0.8588 0.9681
H56_13 H 0.0319 0.6412 0.8986
C83_13 C 0.09252(8) 0.82995(8) 0.94079(8)
C86_13 C 0.05921(8) 0.67005(8) 0.90748(8)
C88_13 C 0.07459(9) 0.81235(9) 0.91620(8)
C91_13 C 0.08380(8) 0.68765(9) 0.92541(9)
C93_13 C 0.06522(9) 0.84478(9) 0.92465(8)
C96_13 C 0.07535(8) 0.65522(9) 0.93478(9)
C98_13 C 0.05228(10) 0.86334(10) 0.92032(9)
C101_13 C 0.07968(9) 0.63666(10) 0.94772(10)
C103_13 C 0.03803(9) 0.86304(9) 0.90403(8)
C106_13 C 0.09597(8) 0.63696(9) 0.96197(9)
H58_13 H 0.0369 0.8507 0.8959
H61_13 H 0.1041 0.6493 0.9631
C108_13 C 0.02778(12) 0.89658(13) 0.91050(12)
C111_13 C 0.08950(12) 0.60342(13) 0.97222(12)
H63_13 H 0.0194 0.9083 0.9069
H66_13 H 0.0931 0.5917 0.9806
C113_13 C 0.04123(14) 0.89821(16) 0.92691(15)
C116_13 C 0.07309(15) 0.60179(16) 0.95877(14)
H68_13 H 0.0416 0.9107 0.9349
H71_13 H 0.0651 0.5893 0.9584
C118_13 C 0.05439(12) 0.88179(14) 0.93206(14)
C121_13 C 0.06794(14) 0.61821(14) 0.94561(12)
H73_13 H 0.0644 0.8830 0.9430
H76_13 H 0.0570 0.6170 0.9356
N12_13 N 0.10442(7) 0.72663(6) 0.86371(7)
N13_13 N 0.13629(7) 0.77337(6) 0.89558(7)
N17_13 N 0.08942(7) 0.76525(7) 0.88569(7)
N20_13 N 0.11431(7) 0.73475(7) 0.91058(7)
N23_13 N 0.12708(7) 0.85042(7) 0.98329(7)
N26_13 N 0.01671(7) 0.64958(7) 0.87292(7)
N27_13 N 0.14958(7) 0.73329(7) 0.87708(7)
N31_13 N 0.09064(8) 0.81241(7) 0.92974(7)
N34_13 N 0.07026(7) 0.68759(7) 0.90936(8)
N36_13 N 0.08042(8) 0.84680(8) 0.93895(7)
N39_13 N 0.06105(7) 0.65320(8) 0.91958(8)
N41_13 N 0.06145(8) 0.82770(8) 0.91331(7)
N44_13 N 0.08669(7) 0.67230(8) 0.93855(8)
N46_13 N 0.02590(8) 0.87901(8) 0.89920(7)
N49_13 N 0.10080(7) 0.62099(8) 0.97410(8)
N55_13 N 0.00120(8) 0.84258(8) 0.87765(7)
N56_13 N 0.00120(8) 0.90742(8) 0.87235(7)
H19_13 H 0.9994 0.8206 0.1332
S11_13 S 0.99626(4) 0.79995(7) 0.88014(4)
S12_13 S 0.99626(4) 0.95005(7) 0.86986(4)
C125_13 C 0.99932(12) 0.82519(12) 0.87871(9)
C126_13 C 0.99932(12) 0.92481(12) 0.87129(9)
N64_13 N 0.98043(7) 0.87549(7) 0.90127(7)
N65_13 N 0.98043(7) 0.87451(7) 0.84873(7)
Co16_14 Co 0.125000(15) 0.1250 0.4978
S4_14 S 0.17338(3) 0.04043(3) 0.33505(3)
C28_14 C 0.15680(9) 0.03104(8) 0.35202(9)
C36_14 C 0.12624(11) 0.01080(11) 0.42893(10)
H18_14 H 0.1794 0.0006 0.3668
C41_14 C 0.12970(13) 0.02207(13) 0.44692(10)
H26_14 H 0.1233 0.0180 0.4596
C46_14 C 0.14254(12) 0.03937(11) 0.44629(10)
H31_14 H 0.1442 0.0480 0.4582
C51_14 C 0.15287(9) 0.04371(9) 0.42792(9)
C56_14 C 0.14920(8) 0.03116(8) 0.41069(8)
H36_14 H 0.1567 0.0340 0.3982
C61_14 C 0.23483(10) 0.08479(10) 0.35922(10)
H41_14 H 0.2449 0.0859 0.3484
C66_14 C 0.22252(12) 0.06714(12) 0.35990(11)
H46_14 H 0.2239 0.0566 0.3496
C71_14 C 0.20803(10) 0.06497(11) 0.37594(10)
H51_14 H 0.1996 0.0528 0.3770
C76_14 C 0.20621(9) 0.08104(9) 0.39036(9)
C81_14 C 0.21916(8) 0.09806(8) 0.38846(8)
H56_14 H 0.2181 0.1088 0.3986
C86_14 C 0.19079(8) 0.07995(8) 0.40748(8)
C91_14 C 0.16620(8) 0.06235(9) 0.42541(9)
C96_14 C 0.17465(8) 0.09478(9) 0.43478(9)
C101_14 C 0.17032(9) 0.11334(10) 0.44772(10)
C106_14 C 0.15403(8) 0.11304(9) 0.46197(9)
H61_14 H 0.1459 0.1007 0.4631
C111_14 C 0.16050(12) 0.14658(13) 0.47222(12)
H66_14 H 0.1569 0.1583 0.4806
C116_14 C 0.17691(15) 0.14821(16) 0.45877(14)
H71_14 H 0.1849 0.1607 0.4584
C121_14 C 0.18206(14) 0.13179(14) 0.44561(12)
H76_14 H 0.1930 0.1330 0.4356
N12_14 N 0.14558(7) 0.02337(6) 0.36371(7)
N20_14 N 0.13569(7) 0.01525(7) 0.41058(7)
N26_14 N 0.23329(7) 0.10042(7) 0.37292(7)
N27_14 N 0.10042(7) 0.01671(7) 0.37708(7)
N34_14 N 0.17974(7) 0.06241(7) 0.40936(8)
N39_14 N 0.18895(7) 0.09680(8) 0.41958(8)
N44_14 N 0.16331(7) 0.07770(8) 0.43855(8)
N49_14 N 0.14920(7) 0.12901(8) 0.47410(8)
S1_14 S 0.16495(3) 0.82662(3) 0.45957(3)
C1_14 C 0.14798(9) 0.84320(9) 0.46896(8)
C2_14 C 0.12376(11) 0.82107(10) 0.51080(11)
H1_14 H 0.1332 0.8206 0.4994
C3_14 C 0.12030(13) 0.80308(10) 0.52207(13)
H2_14 H 0.1267 0.7904 0.5180
C4_14 C 0.10746(12) 0.80371(10) 0.53937(11)
H3_14 H 0.1058 0.7918 0.5480
C5_14 C 0.09713(9) 0.82208(9) 0.54371(9)
C6_14 C 0.10080(8) 0.83931(8) 0.53116(8)
H4_14 H 0.0933 0.8518 0.5340
C7_14 C 0.01517(10) 0.89078(10) 0.58479(10)
H5_14 H 0.0051 0.9016 0.5859
C8_14 C 0.02748(12) 0.89010(11) 0.56714(12)
H6_14 H 0.0261 0.9004 0.5566
C9_14 C 0.04197(10) 0.87406(10) 0.56497(11)
H7_14 H 0.0504 0.8730 0.5528
C10_14 C 0.04379(9) 0.85964(9) 0.58104(9)
C11_14 C 0.03084(8) 0.86154(8) 0.59806(8)
H8_14 H 0.0319 0.8514 0.6088
C12_14 C 0.05921(8) 0.84252(8) 0.57995(8)
C13_14 C 0.08380(8) 0.82459(9) 0.56235(9)
C14_14 C 0.07535(8) 0.81522(9) 0.59478(9)
C15_14 C 0.07968(9) 0.80228(10) 0.61334(10)
C16_14 C 0.09597(8) 0.78803(9) 0.61304(9)
H9_14 H 0.1041 0.7869 0.6007
C17_14 C 0.08950(12) 0.77778(12) 0.64658(13)
H10_14 H 0.0931 0.7694 0.6583
C18_14 C 0.07309(15) 0.79123(14) 0.64821(16)
H11_14 H 0.0651 0.7916 0.6607
C19_14 C 0.06794(14) 0.80439(12) 0.63179(14)
H12_14 H 0.0570 0.8144 0.6330
C21_14 C 0.08254(11) 0.73305(12) 0.61237(10)
H13_14 H 0.0837 0.7434 0.6018
C22_14 C 0.06475(12) 0.72181(13) 0.61339(12)
H14_14 H 0.0536 0.7244 0.6039
C23_14 C 0.06295(12) 0.70637(12) 0.62850(11)
H15_14 H 0.0505 0.6984 0.6296
C24_14 C 0.07950(9) 0.70282(10) 0.64187(9)
C25_14 C 0.09707(8) 0.71543(9) 0.64003(8)
H16_14 H 0.1083 0.7133 0.6494
C26_14 C 0.07850(9) 0.68667(10) 0.65827(9)
N1_14 N 0.13629(7) 0.85442(7) 0.47663(6)
N2_14 N 0.11431(7) 0.83942(7) 0.51525(7)
N4_14 N 0.07026(7) 0.84064(8) 0.56241(7)
N5_14 N 0.06105(7) 0.83042(8) 0.59680(8)
N6_14 N 0.08669(7) 0.81145(8) 0.57770(8)
N10_14 N 0.09343(7) 0.68667(8) 0.67250(8)
Co11_10 Co 0.1250 0.625000(15) 0.7522
S3_14 S 0.07662(3) 0.91495(3) 0.54043(3)
S5_14 S 0.08505(3) 0.95957(3) 0.42338(3)
S11_14 S 0.25374(4) 0.95005(7) 0.38014(4)
S12_14 S 0.25374(4) 0.79995(7) 0.36986(4)
C27_14 C 0.09320(9) 0.89798(9) 0.53104(8)
C29_14 C 0.10202(9) 0.96896(8) 0.40680(9)
C33_14 C 0.17893(10) 0.98920(11) 0.37624(11)
C34_14 C 0.23920(11) 0.92893(10) 0.62376(11)
H19_14 H 0.2506 0.9294 0.6332
H21_14 H 0.1168 0.9994 0.4294
C38_14 C 0.19692(10) 0.97793(13) 0.37970(13)
C39_14 C 0.22793(13) 0.94692(10) 0.62030(13)
H23_14 H 0.2096 0.9820 0.3733
H24_14 H 0.2320 0.9596 0.6267
C43_14 C 0.19629(10) 0.96063(11) 0.39254(12)
C44_14 C 0.21063(11) 0.94629(10) 0.60746(12)
H28_14 H 0.2082 0.9520 0.3942
H29_14 H 0.2020 0.9582 0.6058
C48_14 C 0.17792(9) 0.95629(9) 0.40287(9)
C49_14 C 0.20629(9) 0.92792(9) 0.59713(9)
C53_14 C 0.16069(8) 0.96884(8) 0.39920(8)
C54_14 C 0.21884(8) 0.91069(8) 0.60080(8)
H33_14 H 0.1482 0.9660 0.4067
H34_14 H 0.2160 0.8982 0.5933
C58_14 C 0.10922(10) 0.91521(10) 0.48483(10)
C59_14 C 0.16521(10) 0.85922(10) 0.51517(10)
H38_14 H 0.0984 0.9141 0.4949
H39_14 H 0.1641 0.8484 0.5051
C63_14 C 0.10990(11) 0.93286(12) 0.47252(12)
C64_14 C 0.18286(12) 0.85990(11) 0.52748(12)
H43_14 H 0.0996 0.9434 0.4739
H44_14 H 0.1934 0.8496 0.5261
C68_14 C 0.12594(10) 0.93503(11) 0.45803(10)
C69_14 C 0.18503(11) 0.87594(10) 0.54197(10)
H48_14 H 0.1270 0.9472 0.4496
H49_14 H 0.1972 0.8770 0.5504
C73_14 C 0.14036(9) 0.91896(9) 0.45621(9)
C74_14 C 0.16896(9) 0.89036(9) 0.54379(9)
C78_14 C 0.13846(8) 0.90194(8) 0.46916(8)
C79_14 C 0.15194(8) 0.88846(8) 0.53084(8)
H53_14 H 0.1486 0.8912 0.4681
H54_14 H 0.1412 0.8986 0.5319
C83_14 C 0.15748(8) 0.92005(8) 0.44079(8)
C84_14 C 0.17005(8) 0.90748(8) 0.55921(8)
C88_14 C 0.17541(9) 0.93765(9) 0.41620(8)
C89_14 C 0.18765(9) 0.92541(9) 0.58380(8)
C93_14 C 0.18478(9) 0.90522(9) 0.42465(8)
C94_14 C 0.15522(9) 0.93478(9) 0.57535(8)
C98_14 C 0.19772(10) 0.88666(10) 0.42032(9)
C99_14 C 0.13666(10) 0.94772(10) 0.57968(9)
C103_14 C 0.21197(9) 0.88696(9) 0.40403(8)
C104_14 C 0.13696(9) 0.96197(9) 0.59597(8)
H58_14 H 0.2131 0.8993 0.3959
H59_14 H 0.1493 0.9631 0.6041
C108_14 C 0.22222(12) 0.85342(13) 0.41050(12)
C109_14 C 0.10342(13) 0.97222(12) 0.58950(12)
H63_14 H 0.2306 0.8417 0.4069
H64_14 H 0.0917 0.9806 0.5931
C113_14 C 0.20877(14) 0.85179(16) 0.42691(15)
C114_14 C 0.10179(16) 0.95877(14) 0.57309(15)
H68_14 H 0.2084 0.8393 0.4349
H69_14 H 0.0893 0.9584 0.5651
C118_14 C 0.19561(12) 0.86821(14) 0.43206(14)
C119_14 C 0.11821(14) 0.94561(12) 0.56794(14)
H73_14 H 0.1856 0.8670 0.4430
H74_14 H 0.1170 0.9356 0.5570
C125_14 C 0.25068(12) 0.92481(12) 0.37871(9)
C126_14 C 0.25068(12) 0.82519(12) 0.37129(9)
C127_14 C 0.13763(10) 0.66746(11) 0.73305(12)
C128_14 C 0.01695(12) 0.61237(10) 0.66746(11)
C129_6 C 0.16746(11) 0.73305(12) 0.63763(10)
C130_6 C 0.11237(10) 0.66746(11) 0.51695(12)
C131_6 C 0.23305(12) 0.61237(10) 0.58254(11)
H77_14 H 0.1482 0.6663 0.7434
H78_14 H 0.0066 0.6018 0.6663
H79_6 H 0.1663 0.7434 0.6482
H80_6 H 0.1018 0.6663 0.5066
H81_6 H 0.2434 0.6018 0.5837
C132_14 C 0.13661(12) 0.68525(12) 0.72181(13)
C133_14 C 0.02819(13) 0.61339(12) 0.68525(12)
C134_6 C 0.18525(12) 0.72181(13) 0.63661(12)
C135_6 C 0.11339(12) 0.68525(12) 0.52819(13)
C136_6 C 0.22181(13) 0.61339(12) 0.56475(12)
H82_14 H 0.1461 0.6964 0.7244
H83_14 H 0.0256 0.6039 0.6964
H84_6 H 0.1964 0.7244 0.6461
H85_6 H 0.1039 0.6964 0.5256
H86_6 H 0.2244 0.6039 0.5536
C137_14 C 0.12150(11) 0.68705(12) 0.70637(12)
C138_14 C 0.04363(12) 0.62850(11) 0.68705(12)
C139_6 C 0.18705(12) 0.70637(12) 0.62150(11)
C140_6 C 0.12850(11) 0.68705(12) 0.54363(12)
C141_6 C 0.20637(12) 0.62850(11) 0.56295(12)
H87_14 H 0.1204 0.6995 0.6984
H88_14 H 0.0516 0.6296 0.6995
H89_6 H 0.1995 0.6984 0.6204
H90_6 H 0.1296 0.6995 0.5516
H91_6 H 0.1984 0.6296 0.5505
C142_14 C 0.10813(9) 0.67050(9) 0.70282(10)
C143_14 C 0.04718(10) 0.64187(9) 0.67050(9)
C144_6 C 0.17050(9) 0.70282(10) 0.60813(9)
C145_6 C 0.14187(9) 0.67050(9) 0.54718(10)
C146_6 C 0.20282(10) 0.64187(9) 0.57950(9)
C147_14 C 0.10997(8) 0.65293(8) 0.71543(9)
C148_14 C 0.03457(9) 0.64003(8) 0.65293(8)
C149_6 C 0.15293(8) 0.71543(9) 0.60997(8)
C150_6 C 0.14003(8) 0.65293(8) 0.53457(9)
C151_6 C 0.21543(9) 0.64003(8) 0.59707(8)
H92_14 H 0.1006 0.6417 0.7133
H93_14 H 0.0367 0.6494 0.6417
H94_6 H 0.1417 0.7133 0.6006
H95_6 H 0.1494 0.6417 0.5367
H96_6 H 0.2133 0.6494 0.6083
C152_14 C 0.09173(9) 0.67150(9) 0.68667(10)
C153_14 C 0.06333(10) 0.65827(9) 0.67150(9)
C154_6 C 0.17150(9) 0.68667(10) 0.59173(9)
C155_6 C 0.15827(9) 0.67150(9) 0.56333(10)
C156_6 C 0.18667(10) 0.65827(9) 0.57850(9)
N11_14 N 0.10442(7) 0.88629(7) 0.52337(6)
N13_14 N 0.11371(7) 0.97663(6) 0.39558(7)
N17_14 N 0.16058(7) 0.98475(7) 0.38569(7)
N23_14 N 0.12292(7) 0.89958(7) 0.48329(7)
N24_14 N 0.14958(7) 0.87292(7) 0.51671(7)
N31_14 N 0.15936(8) 0.93759(7) 0.42974(7)
N32_14 N 0.18759(7) 0.90936(8) 0.57026(7)
N36_14 N 0.16958(8) 0.90320(8) 0.43895(7)
N37_14 N 0.15320(8) 0.91958(8) 0.56105(7)
N41_14 N 0.18855(8) 0.92230(8) 0.41331(7)
N42_14 N 0.17230(8) 0.93855(8) 0.58669(7)
N46_14 N 0.22410(8) 0.87099(8) 0.39920(7)
N55_14 N 0.24880(8) 0.90742(8) 0.37765(7)
N56_14 N 0.24880(8) 0.84258(8) 0.37235(7)
N57_14 N 0.12451(7) 0.65127(7) 0.73043(7)
N58_14 N 0.01957(7) 0.62549(7) 0.65127(7)
N64_14 N 0.26957(7) 0.87451(7) 0.40127(7)
N65_14 N 0.26957(7) 0.87549(7) 0.34873(7)
N66_14 N 0.07750(8) 0.65657(7) 0.68667(8)
N67_14 N 0.06333(8) 0.67250(8) 0.65657(7)
N68_6 N 0.15657(7) 0.68667(8) 0.57750(8)
N69_6 N 0.17250(8) 0.65657(7) 0.56333(8)
N70_6 N 0.18667(8) 0.67250(8) 0.59343(7)
Co12_6 Co 0.9978 0.6250 0.625000(15)
S1_15 S 0.58505(3) 0.32662(3) 0.79043(3)
C1_15 C 0.60202(9) 0.34320(9) 0.78104(8)
C2_15 C 0.62624(11) 0.32107(10) 0.73920(11)
H1_15 H 0.6168 0.3206 0.7506
C3_15 C 0.62970(13) 0.30308(10) 0.72793(13)
H2_15 H 0.6233 0.2904 0.7320
C4_15 C 0.64254(12) 0.30371(10) 0.71063(11)
H3_15 H 0.6442 0.2918 0.7020
C5_15 C 0.65287(9) 0.32208(9) 0.70629(9)
C6_15 C 0.64920(8) 0.33931(8) 0.71884(8)
H4_15 H 0.6567 0.3518 0.7160
C7_15 C 0.73483(10) 0.39078(10) 0.66521(10)
H5_15 H 0.7449 0.4016 0.6641
C8_15 C 0.72252(12) 0.39010(11) 0.68286(12)
H6_15 H 0.7239 0.4004 0.6934
C9_15 C 0.70803(10) 0.37406(10) 0.68503(11)
H7_15 H 0.6996 0.3730 0.6972
C10_15 C 0.70621(9) 0.35964(9) 0.66896(9)
C11_15 C 0.71916(8) 0.36154(8) 0.65194(8)
H8_15 H 0.7181 0.3514 0.6412
C12_15 C 0.69079(8) 0.34252(8) 0.67005(8)
C13_15 C 0.66620(8) 0.32459(9) 0.68765(9)
C14_15 C 0.67465(8) 0.31522(9) 0.65522(9)
C15_15 C 0.67032(9) 0.30228(10) 0.63666(10)
C16_15 C 0.65403(8) 0.28803(9) 0.63696(9)
H9_15 H 0.6459 0.2869 0.6493
C17_15 C 0.66050(12) 0.27778(12) 0.60342(13)
H10_15 H 0.6569 0.2694 0.5917
C18_15 C 0.67691(15) 0.29123(14) 0.60179(16)
H11_15 H 0.6849 0.2916 0.5893
C19_15 C 0.68206(14) 0.30439(12) 0.61821(14)
H12_15 H 0.6930 0.3144 0.6170
C21_15 C 0.66746(11) 0.23305(12) 0.63763(10)
H13_15 H 0.6663 0.2434 0.6482
C22_15 C 0.68525(12) 0.22181(13) 0.63661(12)
H14_15 H 0.6964 0.2244 0.6461
C23_15 C 0.68705(12) 0.20637(12) 0.62150(11)
H15_15 H 0.6995 0.1984 0.6204
C24_15 C 0.67050(9) 0.20282(10) 0.60813(9)
C25_15 C 0.65293(8) 0.21543(9) 0.60997(8)
H16_15 H 0.6417 0.2133 0.6006
C26_15 C 0.67150(9) 0.18667(10) 0.59173(9)
N1_15 N 0.61371(7) 0.35442(7) 0.77337(6)
N2_15 N 0.63569(7) 0.33942(7) 0.73475(7)
N4_15 N 0.67974(7) 0.34064(8) 0.68759(7)
N5_15 N 0.68895(7) 0.33042(8) 0.65320(8)
N6_15 N 0.66331(7) 0.31145(8) 0.67230(8)
N10_15 N 0.65657(7) 0.18667(8) 0.57750(8)
Co11_11 Co 0.6250 0.125000(15) 0.4978
Co12_7 Co 0.7522 0.1250 0.625000(15)
Co16_15 Co 0.625000(15) 0.6250 0.7522
S3_15 S 0.67338(3) 0.41495(3) 0.70957(3)
S4_15 S 0.57662(3) 0.54043(3) 0.91495(3)
S5_15 S 0.66495(3) 0.45957(3) 0.82662(3)
S11_15 S 0.49626(4) 0.45005(7) 0.86986(4)
S12_15 S 0.49626(4) 0.29995(7) 0.88014(4)
C27_15 C 0.65680(9) 0.39798(9) 0.71896(8)
C28_15 C 0.59320(9) 0.53104(8) 0.89798(9)
C29_15 C 0.64798(9) 0.46896(8) 0.84320(9)
C33_15 C 0.57107(10) 0.48920(11) 0.87376(11)
C34_15 C 0.51080(11) 0.42893(10) 0.62624(11)
C36_15 C 0.62376(11) 0.51080(11) 0.82107(10)
H18_15 H 0.5706 0.5006 0.8832
H19_15 H 0.4994 0.4294 0.6168
H21_15 H 0.6332 0.4994 0.8206
C38_15 C 0.55308(10) 0.47793(13) 0.87030(13)
C39_15 C 0.52207(13) 0.44692(10) 0.62970(13)
C41_15 C 0.62030(13) 0.52207(13) 0.80308(10)
H23_15 H 0.5404 0.4820 0.8767
H24_15 H 0.5180 0.4596 0.6233
H26_15 H 0.6267 0.5180 0.7904
C43_15 C 0.55371(10) 0.46063(11) 0.85746(12)
C44_15 C 0.53937(11) 0.44629(10) 0.64254(12)
C46_15 C 0.60746(12) 0.53937(11) 0.80371(10)
H28_15 H 0.5418 0.4520 0.8558
H29_15 H 0.5480 0.4582 0.6442
H31_15 H 0.6058 0.5480 0.7918
C48_15 C 0.57208(9) 0.45629(9) 0.84713(9)
C49_15 C 0.54371(9) 0.42792(9) 0.65287(9)
C51_15 C 0.59713(9) 0.54371(9) 0.82208(9)
C53_15 C 0.58931(8) 0.46884(8) 0.85080(8)
C54_15 C 0.53116(8) 0.41069(8) 0.64920(8)
C56_15 C 0.60080(8) 0.53116(8) 0.83931(8)
H33_15 H 0.6018 0.4660 0.8433
H34_15 H 0.5340 0.3982 0.6567
H36_15 H 0.5933 0.5340 0.8518
C58_15 C 0.64078(10) 0.41521(10) 0.76517(10)
C59_15 C 0.58479(10) 0.35922(10) 0.73483(10)
C61_15 C 0.51517(10) 0.58479(10) 0.89078(10)
H38_15 H 0.6516 0.4141 0.7551
H39_15 H 0.5859 0.3484 0.7449
H41_15 H 0.5051 0.5859 0.9016
C63_15 C 0.64010(11) 0.43286(12) 0.77748(12)
C64_15 C 0.56714(12) 0.35990(11) 0.72252(12)
C66_15 C 0.52748(12) 0.56714(12) 0.89010(11)
H43_15 H 0.6504 0.4434 0.7761
H44_15 H 0.5566 0.3496 0.7239
H46_15 H 0.5261 0.5566 0.9004
C68_15 C 0.62406(10) 0.43503(11) 0.79197(10)
C69_15 C 0.56497(11) 0.37594(10) 0.70803(10)
C71_15 C 0.54197(10) 0.56497(11) 0.87406(10)
H48_15 H 0.6230 0.4472 0.8004
H49_15 H 0.5528 0.3770 0.6996
H51_15 H 0.5504 0.5528 0.8730
C73_15 C 0.60964(9) 0.41896(9) 0.79379(9)
C74_15 C 0.58104(9) 0.39036(9) 0.70621(9)
C76_15 C 0.54379(9) 0.58104(9) 0.85964(9)
C78_15 C 0.61154(8) 0.40194(8) 0.78084(8)
C79_15 C 0.59806(8) 0.38846(8) 0.71916(8)
C81_15 C 0.53084(8) 0.59806(8) 0.86154(8)
H53_15 H 0.6014 0.3912 0.7819
H54_15 H 0.6088 0.3986 0.7181
H56_15 H 0.5319 0.6088 0.8514
C83_15 C 0.59252(8) 0.42005(8) 0.80921(8)
C84_15 C 0.57995(8) 0.40748(8) 0.69079(8)
C86_15 C 0.55921(8) 0.57995(8) 0.84252(8)
C88_15 C 0.57459(9) 0.43765(9) 0.83380(8)
C89_15 C 0.56235(9) 0.42541(9) 0.66620(8)
C91_15 C 0.58380(8) 0.56235(9) 0.82459(9)
C93_15 C 0.56522(9) 0.40522(9) 0.82535(8)
C94_15 C 0.59478(9) 0.43478(9) 0.67465(8)
C96_15 C 0.57535(8) 0.59478(9) 0.81522(9)
C98_15 C 0.55228(10) 0.38666(10) 0.82968(9)
C99_15 C 0.61334(10) 0.44772(10) 0.67032(9)
C101_15 C 0.57968(9) 0.61334(10) 0.80228(10)
C103_15 C 0.53803(9) 0.38696(9) 0.84597(8)
C104_15 C 0.61304(9) 0.46197(9) 0.65403(8)
C106_15 C 0.59597(8) 0.61304(9) 0.78803(9)
H58_15 H 0.5369 0.3993 0.8541
H59_15 H 0.6007 0.4631 0.6459
H61_15 H 0.6041 0.6007 0.7869
C108_15 C 0.52778(12) 0.35342(13) 0.83950(12)
C109_15 C 0.64658(13) 0.47222(12) 0.66050(12)
C111_15 C 0.58950(12) 0.64658(13) 0.77778(12)
H63_15 H 0.5194 0.3417 0.8431
H64_15 H 0.6583 0.4806 0.6569
H66_15 H 0.5931 0.6583 0.7694
C113_15 C 0.54123(14) 0.35179(16) 0.82309(15)
C114_15 C 0.64821(16) 0.45877(14) 0.67691(15)
C116_15 C 0.57309(15) 0.64821(16) 0.79123(14)
H68_15 H 0.5416 0.3393 0.8151
H69_15 H 0.6607 0.4584 0.6849
H71_15 H 0.5651 0.6607 0.7916
C118_15 C 0.55439(12) 0.36821(14) 0.81794(14)
C119_15 C 0.63179(14) 0.44561(12) 0.68206(14)
C121_15 C 0.56794(14) 0.63179(14) 0.80439(12)
H73_15 H 0.5644 0.3670 0.8070
H74_15 H 0.6330 0.4356 0.6930
H76_15 H 0.5570 0.6330 0.8144
C125_15 C 0.49932(12) 0.42481(12) 0.87129(9)
C126_15 C 0.49932(12) 0.32519(12) 0.87871(9)
C127_15 C 0.61237(10) 0.16746(11) 0.51695(12)
C128_15 C 0.73305(12) 0.11237(10) 0.58254(11)
C129_7 C 0.58254(11) 0.23305(12) 0.61237(10)
C130_7 C 0.63763(10) 0.16746(11) 0.73305(12)
C131_7 C 0.51695(12) 0.11237(10) 0.66746(11)
H77_15 H 0.6018 0.1663 0.5066
H78_15 H 0.7434 0.1018 0.5837
H79_7 H 0.5837 0.2434 0.6018
H80_7 H 0.6482 0.1663 0.7434
H81_7 H 0.5066 0.1018 0.6663
C132_15 C 0.61339(12) 0.18525(12) 0.52819(13)
C133_15 C 0.72181(13) 0.11339(12) 0.56475(12)
C134_7 C 0.56475(12) 0.22181(13) 0.61339(12)
C135_7 C 0.63661(12) 0.18525(12) 0.72181(13)
C136_7 C 0.52819(13) 0.11339(12) 0.68525(12)
H82_15 H 0.6039 0.1964 0.5256
H83_15 H 0.7244 0.1039 0.5536
H84_7 H 0.5536 0.2244 0.6039
H85_7 H 0.6461 0.1964 0.7244
H86_7 H 0.5256 0.1039 0.6964
C137_15 C 0.62850(11) 0.18705(12) 0.54363(12)
C138_15 C 0.70637(12) 0.12850(11) 0.56295(12)
C139_7 C 0.56295(12) 0.20637(12) 0.62850(11)
C140_7 C 0.62150(11) 0.18705(12) 0.70637(12)
C141_7 C 0.54363(12) 0.12850(11) 0.68705(12)
H87_15 H 0.6296 0.1995 0.5516
H88_15 H 0.6984 0.1296 0.5505
H89_7 H 0.5505 0.1984 0.6296
H90_7 H 0.6204 0.1995 0.6984
H91_7 H 0.5516 0.1296 0.6995
C142_15 C 0.64187(9) 0.17050(9) 0.54718(10)
C143_15 C 0.70282(10) 0.14187(9) 0.57950(9)
C144_7 C 0.57950(9) 0.20282(10) 0.64187(9)
C145_7 C 0.60813(9) 0.17050(9) 0.70282(10)
C146_7 C 0.54718(10) 0.14187(9) 0.67050(9)
C147_15 C 0.64003(8) 0.15293(8) 0.53457(9)
C148_15 C 0.71543(9) 0.14003(8) 0.59707(8)
C149_7 C 0.59707(8) 0.21543(9) 0.64003(8)
C150_7 C 0.60997(8) 0.15293(8) 0.71543(9)
C151_7 C 0.53457(9) 0.14003(8) 0.65293(8)
H92_15 H 0.6494 0.1417 0.5367
H93_15 H 0.7133 0.1494 0.6083
H94_7 H 0.6083 0.2133 0.6494
H95_7 H 0.6006 0.1417 0.7133
H96_7 H 0.5367 0.1494 0.6417
C152_15 C 0.65827(9) 0.17150(9) 0.56333(10)
C153_15 C 0.68667(10) 0.15827(9) 0.57850(9)
C154_7 C 0.57850(9) 0.18667(10) 0.65827(9)
C155_7 C 0.59173(9) 0.17150(9) 0.68667(10)
C156_7 C 0.56333(10) 0.15827(9) 0.67150(9)
N11_15 N 0.64558(7) 0.38629(7) 0.72663(6)
N12_15 N 0.60442(7) 0.52337(6) 0.88629(7)
N13_15 N 0.63629(7) 0.47663(6) 0.85442(7)
N17_15 N 0.58942(7) 0.48475(7) 0.86431(7)
N20_15 N 0.61431(7) 0.51525(7) 0.83942(7)
N23_15 N 0.62708(7) 0.39958(7) 0.76671(7)
N24_15 N 0.60042(7) 0.37292(7) 0.73329(7)
N26_15 N 0.51671(7) 0.60042(7) 0.87708(7)
N27_15 N 0.64958(7) 0.51671(7) 0.87292(7)
N31_15 N 0.59064(8) 0.43759(7) 0.82026(7)
N32_15 N 0.56241(7) 0.40936(8) 0.67974(7)
N34_15 N 0.57026(7) 0.56241(7) 0.84064(8)
N36_15 N 0.58042(8) 0.40320(8) 0.81105(7)
N37_15 N 0.59680(8) 0.41958(8) 0.68895(7)
N39_15 N 0.56105(7) 0.59680(8) 0.83042(8)
N41_15 N 0.56145(8) 0.42230(8) 0.83669(7)
N42_15 N 0.57770(8) 0.43855(8) 0.66331(7)
N44_15 N 0.58669(7) 0.57770(8) 0.81145(8)
N46_15 N 0.52590(8) 0.37099(8) 0.85080(7)
N49_15 N 0.60080(7) 0.62901(8) 0.77590(8)
N55_15 N 0.50120(8) 0.40742(8) 0.87235(7)
N56_15 N 0.50120(8) 0.34258(8) 0.87765(7)
N57_15 N 0.62549(7) 0.15127(7) 0.51957(7)
N58_15 N 0.73043(7) 0.12549(7) 0.59873(7)
N64_15 N 0.48043(7) 0.37451(7) 0.84873(7)
N65_15 N 0.48043(7) 0.37549(7) 0.90127(7)
N66_15 N 0.67250(8) 0.15657(7) 0.56333(8)
N67_15 N 0.68667(8) 0.17250(8) 0.59343(7)
N68_7 N 0.59343(7) 0.18667(8) 0.67250(8)
N69_7 N 0.57750(8) 0.15657(7) 0.68667(8)
N70_7 N 0.56333(8) 0.17250(8) 0.65657(7)
S1_16 S 0.66495(3) 0.42338(3) 0.29043(3)
C1_16 C 0.64798(9) 0.40680(9) 0.28104(8)
C2_16 C 0.62376(11) 0.42893(10) 0.23920(11)
H1_16 H 0.6332 0.4294 0.2506
C3_16 C 0.62030(13) 0.44692(10) 0.22793(13)
H2_16 H 0.6267 0.4596 0.2320
C4_16 C 0.60746(12) 0.44629(10) 0.21063(11)
H3_16 H 0.6058 0.4582 0.2020
C5_16 C 0.59713(9) 0.42792(9) 0.20629(9)
C6_16 C 0.60080(8) 0.41069(8) 0.21884(8)
H4_16 H 0.5933 0.3982 0.2160
C7_16 C 0.51517(10) 0.35922(10) 0.16521(10)
H5_16 H 0.5051 0.3484 0.1641
C8_16 C 0.52748(12) 0.35990(11) 0.18286(12)
H6_16 H 0.5261 0.3496 0.1934
C9_16 C 0.54197(10) 0.37594(10) 0.18503(11)
H7_16 H 0.5504 0.3770 0.1972
C10_16 C 0.54379(9) 0.39036(9) 0.16896(9)
C11_16 C 0.53084(8) 0.38846(8) 0.15194(8)
H8_16 H 0.5319 0.3986 0.1412
C12_16 C 0.55921(8) 0.40748(8) 0.17005(8)
C13_16 C 0.58380(8) 0.42541(9) 0.18765(9)
C14_16 C 0.57535(8) 0.43478(9) 0.15522(9)
C15_16 C 0.57968(9) 0.44772(10) 0.13666(10)
C16_16 C 0.59597(8) 0.46197(9) 0.13696(9)
H9_16 H 0.6041 0.4631 0.1493
C17_16 C 0.58950(12) 0.47222(12) 0.10342(13)
H10_16 H 0.5931 0.4806 0.0917
C18_16 C 0.57309(15) 0.45877(14) 0.10179(16)
H11_16 H 0.5651 0.4584 0.0893
C19_16 C 0.56794(14) 0.44561(12) 0.11821(14)
H12_16 H 0.5570 0.4356 0.1170
C21_16 C 0.58254(11) 0.51695(12) 0.13763(10)
H13_16 H 0.5837 0.5066 0.1482
C22_16 C 0.56475(12) 0.52819(13) 0.13661(12)
H14_16 H 0.5536 0.5256 0.1461
C23_16 C 0.56295(12) 0.54363(12) 0.12150(11)
H15_16 H 0.5505 0.5516 0.1204
C24_16 C 0.57950(9) 0.54718(10) 0.10813(9)
C25_16 C 0.59707(8) 0.53457(9) 0.10997(8)
H16_16 H 0.6083 0.5367 0.1006
C26_16 C 0.57850(9) 0.56333(10) 0.09173(9)
N1_16 N 0.63629(7) 0.39558(7) 0.27337(6)
N2_16 N 0.61431(7) 0.41058(7) 0.23475(7)
N4_16 N 0.57026(7) 0.40936(8) 0.18759(7)
N5_16 N 0.56105(7) 0.41958(8) 0.15320(8)
N6_16 N 0.58669(7) 0.43855(8) 0.17230(8)
N10_16 N 0.59343(7) 0.56333(8) 0.07750(8)
Co12_8 Co 0.4978 0.6250 0.125000(15)
Co16_16 Co 0.625000(15) 0.1250 0.2522
S3_16 S 0.57662(3) 0.33505(3) 0.20957(3)
S4_16 S 0.67338(3) 0.20957(3) 0.41495(3)
S5_16 S 0.58505(3) 0.29043(3) 0.32662(3)
S11_16 S 0.75374(4) 0.29995(7) 0.36986(4)
S12_16 S 0.75374(4) 0.45005(7) 0.38014(4)
C27_16 C 0.59320(9) 0.35202(9) 0.21896(8)
C28_16 C 0.65680(9) 0.21896(8) 0.39798(9)
C29_16 C 0.60202(9) 0.28104(8) 0.34320(9)
C33_16 C 0.67893(10) 0.26080(11) 0.37376(11)
C34_16 C 0.73920(11) 0.32107(10) 0.12624(11)
C36_16 C 0.62624(11) 0.23920(11) 0.32107(10)
H18_16 H 0.6794 0.2494 0.3832
H19_16 H 0.7506 0.3206 0.1168
H21_16 H 0.6168 0.2506 0.3206
C38_16 C 0.69692(10) 0.27207(13) 0.37030(13)
C39_16 C 0.72793(13) 0.30308(10) 0.12970(13)
C41_16 C 0.62970(13) 0.22793(13) 0.30308(10)
H23_16 H 0.7096 0.2680 0.3767
H24_16 H 0.7320 0.2904 0.1233
H26_16 H 0.6233 0.2320 0.2904
C43_16 C 0.69629(10) 0.28937(11) 0.35746(12)
C44_16 C 0.71063(11) 0.30371(10) 0.14254(12)
C46_16 C 0.64254(12) 0.21063(11) 0.30371(10)
H28_16 H 0.7082 0.2980 0.3558
H29_16 H 0.7020 0.2918 0.1442
H31_16 H 0.6442 0.2020 0.2918
C48_16 C 0.67792(9) 0.29371(9) 0.34713(9)
C49_16 C 0.70629(9) 0.32208(9) 0.15287(9)
C51_16 C 0.65287(9) 0.20629(9) 0.32208(9)
C53_16 C 0.66069(8) 0.28116(8) 0.35080(8)
C54_16 C 0.71884(8) 0.33931(8) 0.14920(8)
C56_16 C 0.64920(8) 0.21884(8) 0.33931(8)
H33_16 H 0.6482 0.2840 0.3433
H34_16 H 0.7160 0.3518 0.1567
H36_16 H 0.6567 0.2160 0.3518
C58_16 C 0.60922(10) 0.33479(10) 0.26517(10)
C59_16 C 0.66521(10) 0.39078(10) 0.23483(10)
C61_16 C 0.73483(10) 0.16521(10) 0.39078(10)
H38_16 H 0.5984 0.3359 0.2551
H39_16 H 0.6641 0.4016 0.2449
H41_16 H 0.7449 0.1641 0.4016
C63_16 C 0.60990(11) 0.31714(12) 0.27748(12)
C64_16 C 0.68286(12) 0.39010(11) 0.22252(12)
C66_16 C 0.72252(12) 0.18286(12) 0.39010(11)
H43_16 H 0.5996 0.3066 0.2761
H44_16 H 0.6934 0.4004 0.2239
H46_16 H 0.7239 0.1934 0.4004
C68_16 C 0.62594(10) 0.31497(11) 0.29197(10)
C69_16 C 0.68503(11) 0.37406(10) 0.20803(10)
C71_16 C 0.70803(10) 0.18503(11) 0.37406(10)
H48_16 H 0.6270 0.3028 0.3004
H49_16 H 0.6972 0.3730 0.1996
H51_16 H 0.6996 0.1972 0.3730
C73_16 C 0.64036(9) 0.33104(9) 0.29379(9)
C74_16 C 0.66896(9) 0.35964(9) 0.20621(9)
C76_16 C 0.70621(9) 0.16896(9) 0.35964(9)
C78_16 C 0.63846(8) 0.34806(8) 0.28084(8)
C79_16 C 0.65194(8) 0.36154(8) 0.21916(8)
C81_16 C 0.71916(8) 0.15194(8) 0.36154(8)
H53_16 H 0.6486 0.3588 0.2819
H54_16 H 0.6412 0.3514 0.2181
H56_16 H 0.7181 0.1412 0.3514
C83_16 C 0.65748(8) 0.32995(8) 0.30921(8)
C84_16 C 0.67005(8) 0.34252(8) 0.19079(8)
C86_16 C 0.69079(8) 0.17005(8) 0.34252(8)
C88_16 C 0.67541(9) 0.31235(9) 0.33380(8)
C89_16 C 0.68765(9) 0.32459(9) 0.16620(8)
C91_16 C 0.66620(8) 0.18765(9) 0.32459(9)
C93_16 C 0.68478(9) 0.34478(9) 0.32535(8)
C94_16 C 0.65522(9) 0.31522(9) 0.17465(8)
C96_16 C 0.67465(8) 0.15522(9) 0.31522(9)
C98_16 C 0.69772(10) 0.36334(10) 0.32968(9)
C99_16 C 0.63666(10) 0.30228(10) 0.17032(9)
C101_16 C 0.67032(9) 0.13666(10) 0.30228(10)
C103_16 C 0.71197(9) 0.36304(9) 0.34597(8)
C104_16 C 0.63696(9) 0.28803(9) 0.15403(8)
C106_16 C 0.65403(8) 0.13696(9) 0.28803(9)
H58_16 H 0.7131 0.3507 0.3541
H59_16 H 0.6493 0.2869 0.1459
H61_16 H 0.6459 0.1493 0.2869
C108_16 C 0.72222(12) 0.39658(13) 0.33950(12)
C109_16 C 0.60342(13) 0.27778(12) 0.16050(12)
C111_16 C 0.66050(12) 0.10342(13) 0.27778(12)
H63_16 H 0.7306 0.4083 0.3431
H64_16 H 0.5917 0.2694 0.1569
H66_16 H 0.6569 0.0917 0.2694
C113_16 C 0.70877(14) 0.39821(16) 0.32309(15)
C114_16 C 0.60179(16) 0.29123(14) 0.17691(15)
C116_16 C 0.67691(15) 0.10179(16) 0.29123(14)
H68_16 H 0.7084 0.4107 0.3151
H69_16 H 0.5893 0.2916 0.1849
H71_16 H 0.6849 0.0893 0.2916
C118_16 C 0.69561(12) 0.38179(14) 0.31794(14)
C119_16 C 0.61821(14) 0.30439(12) 0.18206(14)
C121_16 C 0.68206(14) 0.11821(14) 0.30439(12)
H73_16 H 0.6856 0.3830 0.3070
H74_16 H 0.6170 0.3144 0.1930
H76_16 H 0.6930 0.1170 0.3144
C125_16 C 0.75068(12) 0.32519(12) 0.37129(9)
C126_16 C 0.75068(12) 0.42481(12) 0.37871(9)
C127_16 C 0.63763(10) 0.58254(11) 0.01695(12)
C128_16 C 0.51695(12) 0.63763(10) 0.08254(11)
C129_8 C 0.66746(11) 0.51695(12) 0.11237(10)
C130_8 C 0.61237(10) 0.58254(11) 0.23305(12)
C131_8 C 0.73305(12) 0.63763(10) 0.16746(11)
H77_16 H 0.6482 0.5837 0.0066
H78_16 H 0.5066 0.6482 0.0837
H79_8 H 0.6663 0.5066 0.1018
H80_8 H 0.6018 0.5837 0.2434
H81_8 H 0.7434 0.6482 0.1663
C132_16 C 0.63661(12) 0.56475(12) 0.02819(13)
C133_16 C 0.52819(13) 0.63661(12) 0.06475(12)
C134_8 C 0.68525(12) 0.52819(13) 0.11339(12)
C135_8 C 0.61339(12) 0.56475(12) 0.22181(13)
C136_8 C 0.72181(13) 0.63661(12) 0.18525(12)
H82_16 H 0.6461 0.5536 0.0256
H83_16 H 0.5256 0.6461 0.0536
H84_8 H 0.6964 0.5256 0.1039
H85_8 H 0.6039 0.5536 0.2244
H86_8 H 0.7244 0.6461 0.1964
C137_16 C 0.62150(11) 0.56295(12) 0.04363(12)
C138_16 C 0.54363(12) 0.62150(11) 0.06295(12)
C139_8 C 0.68705(12) 0.54363(12) 0.12850(11)
C140_8 C 0.62850(11) 0.56295(12) 0.20637(12)
C141_8 C 0.70637(12) 0.62150(11) 0.18705(12)
H87_16 H 0.6204 0.5505 0.0516
H88_16 H 0.5516 0.6204 0.0505
H89_8 H 0.6995 0.5516 0.1296
H90_8 H 0.6296 0.5505 0.1984
H91_8 H 0.6984 0.6204 0.1995
C142_16 C 0.60813(9) 0.57950(9) 0.04718(10)
C143_16 C 0.54718(10) 0.60813(9) 0.07950(9)
C144_8 C 0.67050(9) 0.54718(10) 0.14187(9)
C145_8 C 0.64187(9) 0.57950(9) 0.20282(10)
C146_8 C 0.70282(10) 0.60813(9) 0.17050(9)
C147_16 C 0.60997(8) 0.59707(8) 0.03457(9)
C148_16 C 0.53457(9) 0.60997(8) 0.09707(8)
C149_8 C 0.65293(8) 0.53457(9) 0.14003(8)
C150_8 C 0.64003(8) 0.59707(8) 0.21543(9)
C151_8 C 0.71543(9) 0.60997(8) 0.15293(8)
H92_16 H 0.6006 0.6083 0.0367
H93_16 H 0.5367 0.6006 0.1083
H94_8 H 0.6417 0.5367 0.1494
H95_8 H 0.6494 0.6083 0.2133
H96_8 H 0.7133 0.6006 0.1417
C152_16 C 0.59173(9) 0.57850(9) 0.06333(10)
C153_16 C 0.56333(10) 0.59173(9) 0.07850(9)
C154_8 C 0.67150(9) 0.56333(10) 0.15827(9)
C155_8 C 0.65827(9) 0.57850(9) 0.18667(10)
C156_8 C 0.68667(10) 0.59173(9) 0.17150(9)
N11_16 N 0.60442(7) 0.36371(7) 0.22663(6)
N12_16 N 0.64558(7) 0.22663(6) 0.38629(7)
N13_16 N 0.61371(7) 0.27337(6) 0.35442(7)
N17_16 N 0.66058(7) 0.26525(7) 0.36431(7)
N20_16 N 0.63569(7) 0.23475(7) 0.33942(7)
N23_16 N 0.62292(7) 0.35042(7) 0.26671(7)
N24_16 N 0.64958(7) 0.37708(7) 0.23329(7)
N26_16 N 0.73329(7) 0.14958(7) 0.37708(7)
N27_16 N 0.60042(7) 0.23329(7) 0.37292(7)
N31_16 N 0.65936(8) 0.31241(7) 0.32026(7)
N32_16 N 0.68759(7) 0.34064(8) 0.17974(7)
N34_16 N 0.67974(7) 0.18759(7) 0.34064(8)
N36_16 N 0.66958(8) 0.34680(8) 0.31105(7)
N37_16 N 0.65320(8) 0.33042(8) 0.18895(7)
N39_16 N 0.68895(7) 0.15320(8) 0.33042(8)
N41_16 N 0.68855(8) 0.32770(8) 0.33669(7)
N42_16 N 0.67230(8) 0.31145(8) 0.16331(7)
N44_16 N 0.66331(7) 0.17230(8) 0.31145(8)
N46_16 N 0.72410(8) 0.37901(8) 0.35080(7)
N49_16 N 0.64920(7) 0.12099(8) 0.27590(8)
N55_16 N 0.74880(8) 0.34258(8) 0.37235(7)
N56_16 N 0.74880(8) 0.40742(8) 0.37765(7)
N57_16 N 0.62451(7) 0.59873(7) 0.01957(7)
N58_16 N 0.51957(7) 0.62451(7) 0.09873(7)
N64_16 N 0.76957(7) 0.37549(7) 0.34873(7)
N65_16 N 0.76957(7) 0.37451(7) 0.40127(7)
N66_16 N 0.57750(8) 0.59343(7) 0.06333(8)
N67_16 N 0.56333(8) 0.57750(8) 0.09343(7)
N68_8 N 0.65657(7) 0.56333(8) 0.17250(8)
N69_8 N 0.67250(8) 0.59343(7) 0.18667(8)
N70_8 N 0.68667(8) 0.57750(8) 0.15657(7)
Co11_12 Co 0.6250 0.625000(15) 0.9978
S1_17 S 0.42338(3) 0.29043(3) 0.66495(3)
C1_17 C 0.40680(9) 0.28104(8) 0.64798(9)
C2_17 C 0.42893(10) 0.23920(11) 0.62376(11)
H1_17 H 0.4294 0.2506 0.6332
C3_17 C 0.44692(10) 0.22793(13) 0.62030(13)
H2_17 H 0.4596 0.2320 0.6267
C4_17 C 0.44629(10) 0.21063(11) 0.60746(12)
H3_17 H 0.4582 0.2020 0.6058
C5_17 C 0.42792(9) 0.20629(9) 0.59713(9)
C6_17 C 0.41069(8) 0.21884(8) 0.60080(8)
H4_17 H 0.3982 0.2160 0.5933
C7_17 C 0.35922(10) 0.16521(10) 0.51517(10)
H5_17 H 0.3484 0.1641 0.5051
C8_17 C 0.35990(11) 0.18286(12) 0.52748(12)
H6_17 H 0.3496 0.1934 0.5261
C9_17 C 0.37594(10) 0.18503(11) 0.54197(10)
H7_17 H 0.3770 0.1972 0.5504
C10_17 C 0.39036(9) 0.16896(9) 0.54379(9)
C11_17 C 0.38846(8) 0.15194(8) 0.53084(8)
H8_17 H 0.3986 0.1412 0.5319
C12_17 C 0.40748(8) 0.17005(8) 0.55921(8)
C13_17 C 0.42541(9) 0.18765(9) 0.58380(8)
C14_17 C 0.43478(9) 0.15522(9) 0.57535(8)
C15_17 C 0.44772(10) 0.13666(10) 0.57968(9)
C16_17 C 0.46197(9) 0.13696(9) 0.59597(8)
H9_17 H 0.4631 0.1493 0.6041
C17_17 C 0.47222(12) 0.10342(13) 0.58950(12)
H10_17 H 0.4806 0.0917 0.5931
C18_17 C 0.45877(14) 0.10179(16) 0.57309(15)
H11_17 H 0.4584 0.0893 0.5651
C19_17 C 0.44561(12) 0.11821(14) 0.56794(14)
H12_17 H 0.4356 0.1170 0.5570
C21_17 C 0.51695(12) 0.13763(10) 0.58254(11)
H13_17 H 0.5066 0.1482 0.5837
C22_17 C 0.52819(13) 0.13661(12) 0.56475(12)
H14_17 H 0.5256 0.1461 0.5536
C23_17 C 0.54363(12) 0.12150(11) 0.56295(12)
H15_17 H 0.5516 0.1204 0.5505
C24_17 C 0.54718(10) 0.10813(9) 0.57950(9)
C25_17 C 0.53457(9) 0.10997(8) 0.59707(8)
H16_17 H 0.5367 0.1006 0.6083
C26_17 C 0.56333(10) 0.09173(9) 0.57850(9)
N1_17 N 0.39558(7) 0.27337(6) 0.63629(7)
N2_17 N 0.41058(7) 0.23475(7) 0.61431(7)
N4_17 N 0.40936(8) 0.18759(7) 0.57026(7)
N5_17 N 0.41958(8) 0.15320(8) 0.56105(7)
N6_17 N 0.43855(8) 0.17230(8) 0.58669(7)
N10_17 N 0.56333(8) 0.07750(8) 0.59343(7)
Co16_17 Co 0.1250 0.2522 0.625000(15)
S3_17 S 0.33505(3) 0.20957(3) 0.57662(3)
S4_17 S 0.20957(3) 0.41495(3) 0.67338(3)
S5_17 S 0.29043(3) 0.32662(3) 0.58505(3)
S11_17 S 0.29995(7) 0.36986(4) 0.75374(4)
S12_17 S 0.45005(7) 0.38014(4) 0.75374(4)
C27_17 C 0.35202(9) 0.21896(8) 0.59320(9)
C28_17 C 0.21896(8) 0.39798(9) 0.65680(9)
C29_17 C 0.28104(8) 0.34320(9) 0.60202(9)
C33_17 C 0.26080(11) 0.37376(11) 0.67893(10)
C34_17 C 0.32107(10) 0.12624(11) 0.73920(11)
C36_17 C 0.23920(11) 0.32107(10) 0.62624(11)
H18_17 H 0.2494 0.3832 0.6794
H19_17 H 0.3206 0.1168 0.7506
H21_17 H 0.2506 0.3206 0.6168
C38_17 C 0.27207(13) 0.37030(13) 0.69692(10)
C39_17 C 0.30308(10) 0.12970(13) 0.72793(13)
C41_17 C 0.22793(13) 0.30308(10) 0.62970(13)
H23_17 H 0.2680 0.3767 0.7096
H24_17 H 0.2904 0.1233 0.7320
H26_17 H 0.2320 0.2904 0.6233
C43_17 C 0.28937(11) 0.35746(12) 0.69629(10)
C44_17 C 0.30371(10) 0.14254(12) 0.71063(11)
C46_17 C 0.21063(11) 0.30371(10) 0.64254(12)
H28_17 H 0.2980 0.3558 0.7082
H29_17 H 0.2918 0.1442 0.7020
H31_17 H 0.2020 0.2918 0.6442
C48_17 C 0.29371(9) 0.34713(9) 0.67792(9)
C49_17 C 0.32208(9) 0.15287(9) 0.70629(9)
C51_17 C 0.20629(9) 0.32208(9) 0.65287(9)
C53_17 C 0.28116(8) 0.35080(8) 0.66069(8)
C54_17 C 0.33931(8) 0.14920(8) 0.71884(8)
C56_17 C 0.21884(8) 0.33931(8) 0.64920(8)
H33_17 H 0.2840 0.3433 0.6482
H34_17 H 0.3518 0.1567 0.7160
H36_17 H 0.2160 0.3518 0.6567
C58_17 C 0.33479(10) 0.26517(10) 0.60922(10)
C59_17 C 0.39078(10) 0.23483(10) 0.66521(10)
C61_17 C 0.16521(10) 0.39078(10) 0.73483(10)
H38_17 H 0.3359 0.2551 0.5984
H39_17 H 0.4016 0.2449 0.6641
H41_17 H 0.1641 0.4016 0.7449
C63_17 C 0.31714(12) 0.27748(12) 0.60990(11)
C64_17 C 0.39010(11) 0.22252(12) 0.68286(12)
C66_17 C 0.18286(12) 0.39010(11) 0.72252(12)
H43_17 H 0.3066 0.2761 0.5996
H44_17 H 0.4004 0.2239 0.6934
H46_17 H 0.1934 0.4004 0.7239
C68_17 C 0.31497(11) 0.29197(10) 0.62594(10)
C69_17 C 0.37406(10) 0.20803(10) 0.68503(11)
C71_17 C 0.18503(11) 0.37406(10) 0.70803(10)
H48_17 H 0.3028 0.3004 0.6270
H49_17 H 0.3730 0.1996 0.6972
H51_17 H 0.1972 0.3730 0.6996
C73_17 C 0.33104(9) 0.29379(9) 0.64036(9)
C74_17 C 0.35964(9) 0.20621(9) 0.66896(9)
C76_17 C 0.16896(9) 0.35964(9) 0.70621(9)
C78_17 C 0.34806(8) 0.28084(8) 0.63846(8)
C79_17 C 0.36154(8) 0.21916(8) 0.65194(8)
C81_17 C 0.15194(8) 0.36154(8) 0.71916(8)
H53_17 H 0.3588 0.2819 0.6486
H54_17 H 0.3514 0.2181 0.6412
H56_17 H 0.1412 0.3514 0.7181
C83_17 C 0.32995(8) 0.30921(8) 0.65748(8)
C84_17 C 0.34252(8) 0.19079(8) 0.67005(8)
C86_17 C 0.17005(8) 0.34252(8) 0.69079(8)
C88_17 C 0.31235(9) 0.33380(8) 0.67541(9)
C89_17 C 0.32459(9) 0.16620(8) 0.68765(9)
C91_17 C 0.18765(9) 0.32459(9) 0.66620(8)
C93_17 C 0.34478(9) 0.32535(8) 0.68478(9)
C94_17 C 0.31522(9) 0.17465(8) 0.65522(9)
C96_17 C 0.15522(9) 0.31522(9) 0.67465(8)
C98_17 C 0.36334(10) 0.32968(9) 0.69772(10)
C99_17 C 0.30228(10) 0.17032(9) 0.63666(10)
C101_17 C 0.13666(10) 0.30228(10) 0.67032(9)
C103_17 C 0.36304(9) 0.34597(8) 0.71197(9)
C104_17 C 0.28803(9) 0.15403(8) 0.63696(9)
C106_17 C 0.13696(9) 0.28803(9) 0.65403(8)
H58_17 H 0.3507 0.3541 0.7131
H59_17 H 0.2869 0.1459 0.6493
H61_17 H 0.1493 0.2869 0.6459
C108_17 C 0.39658(13) 0.33950(12) 0.72222(12)
C109_17 C 0.27778(12) 0.16050(12) 0.60342(13)
C111_17 C 0.10342(13) 0.27778(12) 0.66050(12)
H63_17 H 0.4083 0.3431 0.7306
H64_17 H 0.2694 0.1569 0.5917
H66_17 H 0.0917 0.2694 0.6569
C113_17 C 0.39821(16) 0.32309(15) 0.70877(14)
C114_17 C 0.29123(14) 0.17691(15) 0.60179(16)
C116_17 C 0.10179(16) 0.29123(14) 0.67691(15)
H68_17 H 0.4107 0.3151 0.7084
H69_17 H 0.2916 0.1849 0.5893
H71_17 H 0.0893 0.2916 0.6849
C118_17 C 0.38179(14) 0.31794(14) 0.69561(12)
C119_17 C 0.30439(12) 0.18206(14) 0.61821(14)
C121_17 C 0.11821(14) 0.30439(12) 0.68206(14)
H73_17 H 0.3830 0.3070 0.6856
H74_17 H 0.3144 0.1930 0.6170
H76_17 H 0.1170 0.3144 0.6930
C125_17 C 0.32519(12) 0.37129(9) 0.75068(12)
C126_17 C 0.42481(12) 0.37871(9) 0.75068(12)
C127_17 C 0.58254(11) 0.01695(12) 0.63763(10)
C128_17 C 0.63763(10) 0.08254(11) 0.51695(12)
H77_17 H 0.5837 0.0066 0.6482
H78_17 H 0.6482 0.0837 0.5066
C132_17 C 0.56475(12) 0.02819(13) 0.63661(12)
C133_17 C 0.63661(12) 0.06475(12) 0.52819(13)
H82_17 H 0.5536 0.0256 0.6461
H83_17 H 0.6461 0.0536 0.5256
C137_17 C 0.56295(12) 0.04363(12) 0.62150(11)
C138_17 C 0.62150(11) 0.06295(12) 0.54363(12)
H87_17 H 0.5505 0.0516 0.6204
H88_17 H 0.6204 0.0505 0.5516
C142_17 C 0.57950(9) 0.04718(10) 0.60813(9)
C143_17 C 0.60813(9) 0.07950(9) 0.54718(10)
C147_17 C 0.59707(8) 0.03457(9) 0.60997(8)
C148_17 C 0.60997(8) 0.09707(8) 0.53457(9)
H92_17 H 0.6083 0.0367 0.6006
H93_17 H 0.6006 0.1083 0.5367
C152_17 C 0.57850(9) 0.06333(10) 0.59173(9)
C153_17 C 0.59173(9) 0.07850(9) 0.56333(10)
N11_17 N 0.36371(7) 0.22663(6) 0.60442(7)
N12_17 N 0.22663(6) 0.38629(7) 0.64558(7)
N13_17 N 0.27337(6) 0.35442(7) 0.61371(7)
N17_17 N 0.26525(7) 0.36431(7) 0.66058(7)
N20_17 N 0.23475(7) 0.33942(7) 0.63569(7)
N23_17 N 0.35042(7) 0.26671(7) 0.62292(7)
N24_17 N 0.37708(7) 0.23329(7) 0.64958(7)
N26_17 N 0.14958(7) 0.37708(7) 0.73329(7)
N27_17 N 0.23329(7) 0.37292(7) 0.60042(7)
N31_17 N 0.31241(7) 0.32026(7) 0.65936(8)
N32_17 N 0.34064(8) 0.17974(7) 0.68759(7)
N34_17 N 0.18759(7) 0.34064(8) 0.67974(7)
N36_17 N 0.34680(8) 0.31105(7) 0.66958(8)
N37_17 N 0.33042(8) 0.18895(7) 0.65320(8)
N39_17 N 0.15320(8) 0.33042(8) 0.68895(7)
N41_17 N 0.32770(8) 0.33669(7) 0.68855(8)
N42_17 N 0.31145(8) 0.16331(7) 0.67230(8)
N44_17 N 0.17230(8) 0.31145(8) 0.66331(7)
N46_17 N 0.37901(8) 0.35080(7) 0.72410(8)
N49_17 N 0.12099(8) 0.27590(8) 0.64920(7)
N55_17 N 0.34258(8) 0.37235(7) 0.74880(8)
N56_17 N 0.40742(8) 0.37765(7) 0.74880(8)
N57_17 N 0.59873(7) 0.01957(7) 0.62451(7)
N58_17 N 0.62451(7) 0.09873(7) 0.51957(7)
N64_17 N 0.37549(7) 0.34873(7) 0.76957(7)
N65_17 N 0.37451(7) 0.40127(7) 0.76957(7)
N66_17 N 0.59343(7) 0.06333(8) 0.57750(8)
N67_17 N 0.57750(8) 0.09343(7) 0.56333(8)
Co11_13 Co 0.625000(15) 0.9978 0.6250
S1_18 S 0.32662(3) 0.79043(3) 0.58505(3)
C1_18 C 0.34320(9) 0.78104(8) 0.60202(9)
C2_18 C 0.32107(10) 0.73920(11) 0.62624(11)
H1_18 H 0.3206 0.7506 0.6168
C3_18 C 0.30308(10) 0.72793(13) 0.62970(13)
H2_18 H 0.2904 0.7320 0.6233
C4_18 C 0.30371(10) 0.71063(11) 0.64254(12)
H3_18 H 0.2918 0.7020 0.6442
C5_18 C 0.32208(9) 0.70629(9) 0.65287(9)
C6_18 C 0.33931(8) 0.71884(8) 0.64920(8)
H4_18 H 0.3518 0.7160 0.6567
C7_18 C 0.39078(10) 0.66521(10) 0.73483(10)
H5_18 H 0.4016 0.6641 0.7449
C8_18 C 0.39010(11) 0.68286(12) 0.72252(12)
H6_18 H 0.4004 0.6934 0.7239
C9_18 C 0.37406(10) 0.68503(11) 0.70803(10)
H7_18 H 0.3730 0.6972 0.6996
C10_18 C 0.35964(9) 0.66896(9) 0.70621(9)
C11_18 C 0.36154(8) 0.65194(8) 0.71916(8)
H8_18 H 0.3514 0.6412 0.7181
C12_18 C 0.34252(8) 0.67005(8) 0.69079(8)
C13_18 C 0.32459(9) 0.68765(9) 0.66620(8)
C14_18 C 0.31522(9) 0.65522(9) 0.67465(8)
C15_18 C 0.30228(10) 0.63666(10) 0.67032(9)
C16_18 C 0.28803(9) 0.63696(9) 0.65403(8)
H9_18 H 0.2869 0.6493 0.6459
C17_18 C 0.27778(12) 0.60342(13) 0.66050(12)
H10_18 H 0.2694 0.5917 0.6569
C18_18 C 0.29123(14) 0.60179(16) 0.67691(15)
H11_18 H 0.2916 0.5893 0.6849
C19_18 C 0.30439(12) 0.61821(14) 0.68206(14)
H12_18 H 0.3144 0.6170 0.6930
C21_18 C 0.23305(12) 0.63763(10) 0.66746(11)
H13_18 H 0.2434 0.6482 0.6663
C22_18 C 0.22181(13) 0.63661(12) 0.68525(12)
H14_18 H 0.2244 0.6461 0.6964
C23_18 C 0.20637(12) 0.62150(11) 0.68705(12)
H15_18 H 0.1984 0.6204 0.6995
C24_18 C 0.20282(10) 0.60813(9) 0.67050(9)
C25_18 C 0.21543(9) 0.60997(8) 0.65293(8)
H16_18 H 0.2133 0.6006 0.6417
C26_18 C 0.18667(10) 0.59173(9) 0.67150(9)
N1_18 N 0.35442(7) 0.77337(6) 0.61371(7)
N2_18 N 0.33942(7) 0.73475(7) 0.63569(7)
N4_18 N 0.34064(8) 0.68759(7) 0.67974(7)
N5_18 N 0.33042(8) 0.65320(8) 0.68895(7)
N6_18 N 0.31145(8) 0.67230(8) 0.66331(7)
N10_18 N 0.18667(8) 0.57750(8) 0.65657(7)
Co11_14 Co 0.125000(15) 0.4978 0.6250
Co16_18 Co 0.6250 0.7522 0.625000(15)
S3_18 S 0.41495(3) 0.70957(3) 0.67338(3)
S4_18 S 0.54043(3) 0.91495(3) 0.57662(3)
S5_18 S 0.45957(3) 0.82662(3) 0.66495(3)
S11_18 S 0.45005(7) 0.86986(4) 0.49626(4)
S12_18 S 0.29995(7) 0.88014(4) 0.49626(4)
C27_18 C 0.39798(9) 0.71896(8) 0.65680(9)
C28_18 C 0.53104(8) 0.89798(9) 0.59320(9)
C29_18 C 0.46896(8) 0.84320(9) 0.64798(9)
C33_18 C 0.48920(11) 0.87376(11) 0.57107(10)
C34_18 C 0.42893(10) 0.62624(11) 0.51080(11)
C36_18 C 0.51080(11) 0.82107(10) 0.62376(11)
H18_18 H 0.5006 0.8832 0.5706
H19_18 H 0.4294 0.6168 0.4994
H21_18 H 0.4994 0.8206 0.6332
C38_18 C 0.47793(13) 0.87030(13) 0.55308(10)
C39_18 C 0.44692(10) 0.62970(13) 0.52207(13)
C41_18 C 0.52207(13) 0.80308(10) 0.62030(13)
H23_18 H 0.4820 0.8767 0.5404
H24_18 H 0.4596 0.6233 0.5180
H26_18 H 0.5180 0.7904 0.6267
C43_18 C 0.46063(11) 0.85746(12) 0.55371(10)
C44_18 C 0.44629(10) 0.64254(12) 0.53937(11)
C46_18 C 0.53937(11) 0.80371(10) 0.60746(12)
H28_18 H 0.4520 0.8558 0.5418
H29_18 H 0.4582 0.6442 0.5480
H31_18 H 0.5480 0.7918 0.6058
C48_18 C 0.45629(9) 0.84713(9) 0.57208(9)
C49_18 C 0.42792(9) 0.65287(9) 0.54371(9)
C51_18 C 0.54371(9) 0.82208(9) 0.59713(9)
C53_18 C 0.46884(8) 0.85080(8) 0.58931(8)
C54_18 C 0.41069(8) 0.64920(8) 0.53116(8)
C56_18 C 0.53116(8) 0.83931(8) 0.60080(8)
H33_18 H 0.4660 0.8433 0.6018
H34_18 H 0.3982 0.6567 0.5340
H36_18 H 0.5340 0.8518 0.5933
C58_18 C 0.41521(10) 0.76517(10) 0.64078(10)
C59_18 C 0.35922(10) 0.73483(10) 0.58479(10)
C61_18 C 0.58479(10) 0.89078(10) 0.51517(10)
H38_18 H 0.4141 0.7551 0.6516
H39_18 H 0.3484 0.7449 0.5859
H41_18 H 0.5859 0.9016 0.5051
C63_18 C 0.43286(12) 0.77748(12) 0.64010(11)
C64_18 C 0.35990(11) 0.72252(12) 0.56714(12)
C66_18 C 0.56714(12) 0.89010(11) 0.52748(12)
H43_18 H 0.4434 0.7761 0.6504
H44_18 H 0.3496 0.7239 0.5566
H46_18 H 0.5566 0.9004 0.5261
C68_18 C 0.43503(11) 0.79197(10) 0.62406(10)
C69_18 C 0.37594(10) 0.70803(10) 0.56497(11)
C71_18 C 0.56497(11) 0.87406(10) 0.54197(10)
H48_18 H 0.4472 0.8004 0.6230
H49_18 H 0.3770 0.6996 0.5528
H51_18 H 0.5528 0.8730 0.5504
C73_18 C 0.41896(9) 0.79379(9) 0.60964(9)
C74_18 C 0.39036(9) 0.70621(9) 0.58104(9)
C76_18 C 0.58104(9) 0.85964(9) 0.54379(9)
C78_18 C 0.40194(8) 0.78084(8) 0.61154(8)
C79_18 C 0.38846(8) 0.71916(8) 0.59806(8)
C81_18 C 0.59806(8) 0.86154(8) 0.53084(8)
H53_18 H 0.3912 0.7819 0.6014
H54_18 H 0.3986 0.7181 0.6088
H56_18 H 0.6088 0.8514 0.5319
C83_18 C 0.42005(8) 0.80921(8) 0.59252(8)
C84_18 C 0.40748(8) 0.69079(8) 0.57995(8)
C86_18 C 0.57995(8) 0.84252(8) 0.55921(8)
C88_18 C 0.43765(9) 0.83380(8) 0.57459(9)
C89_18 C 0.42541(9) 0.66620(8) 0.56235(9)
C91_18 C 0.56235(9) 0.82459(9) 0.58380(8)
C93_18 C 0.40522(9) 0.82535(8) 0.56522(9)
C94_18 C 0.43478(9) 0.67465(8) 0.59478(9)
C96_18 C 0.59478(9) 0.81522(9) 0.57535(8)
C98_18 C 0.38666(10) 0.82968(9) 0.55228(10)
C99_18 C 0.44772(10) 0.67032(9) 0.61334(10)
C101_18 C 0.61334(10) 0.80228(10) 0.57968(9)
C103_18 C 0.38696(9) 0.84597(8) 0.53803(9)
C104_18 C 0.46197(9) 0.65403(8) 0.61304(9)
C106_18 C 0.61304(9) 0.78803(9) 0.59597(8)
H58_18 H 0.3993 0.8541 0.5369
H59_18 H 0.4631 0.6459 0.6007
H61_18 H 0.6007 0.7869 0.6041
C108_18 C 0.35342(13) 0.83950(12) 0.52778(12)
C109_18 C 0.47222(12) 0.66050(12) 0.64658(13)
C111_18 C 0.64658(13) 0.77778(12) 0.58950(12)
H63_18 H 0.3417 0.8431 0.5194
H64_18 H 0.4806 0.6569 0.6583
H66_18 H 0.6583 0.7694 0.5931
C113_18 C 0.35179(16) 0.82309(15) 0.54123(14)
C114_18 C 0.45877(14) 0.67691(15) 0.64821(16)
C116_18 C 0.64821(16) 0.79123(14) 0.57309(15)
H68_18 H 0.3393 0.8151 0.5416
H69_18 H 0.4584 0.6849 0.6607
H71_18 H 0.6607 0.7916 0.5651
C118_18 C 0.36821(14) 0.81794(14) 0.55439(12)
C119_18 C 0.44561(12) 0.68206(14) 0.63179(14)
C121_18 C 0.63179(14) 0.80439(12) 0.56794(14)
H73_18 H 0.3670 0.8070 0.5644
H74_18 H 0.4356 0.6930 0.6330
H76_18 H 0.6330 0.8144 0.5570
C125_18 C 0.42481(12) 0.87129(9) 0.49932(12)
C126_18 C 0.32519(12) 0.87871(9) 0.49932(12)
C127_18 C 0.16746(11) 0.51695(12) 0.61237(10)
C128_18 C 0.11237(10) 0.58254(11) 0.73305(12)
H77_18 H 0.1663 0.5066 0.6018
H78_18 H 0.1018 0.5837 0.7434
C132_18 C 0.18525(12) 0.52819(13) 0.61339(12)
C133_18 C 0.11339(12) 0.56475(12) 0.72181(13)
H82_18 H 0.1964 0.5256 0.6039
H83_18 H 0.1039 0.5536 0.7244
C137_18 C 0.18705(12) 0.54363(12) 0.62850(11)
C138_18 C 0.12850(11) 0.56295(12) 0.70637(12)
H87_18 H 0.1995 0.5516 0.6296
H88_18 H 0.1296 0.5505 0.6984
C142_18 C 0.17050(9) 0.54718(10) 0.64187(9)
C143_18 C 0.14187(9) 0.57950(9) 0.70282(10)
C147_18 C 0.15293(8) 0.53457(9) 0.64003(8)
C148_18 C 0.14003(8) 0.59707(8) 0.71543(9)
H92_18 H 0.1417 0.5367 0.6494
H93_18 H 0.1494 0.6083 0.7133
C152_18 C 0.17150(9) 0.56333(10) 0.65827(9)
C153_18 C 0.15827(9) 0.57850(9) 0.68667(10)
N11_18 N 0.38629(7) 0.72663(6) 0.64558(7)
N12_18 N 0.52337(6) 0.88629(7) 0.60442(7)
N13_18 N 0.47663(6) 0.85442(7) 0.63629(7)
N17_18 N 0.48475(7) 0.86431(7) 0.58942(7)
N20_18 N 0.51525(7) 0.83942(7) 0.61431(7)
N23_18 N 0.39958(7) 0.76671(7) 0.62708(7)
N24_18 N 0.37292(7) 0.73329(7) 0.60042(7)
N26_18 N 0.60042(7) 0.87708(7) 0.51671(7)
N27_18 N 0.51671(7) 0.87292(7) 0.64958(7)
N31_18 N 0.43759(7) 0.82026(7) 0.59064(8)
N32_18 N 0.40936(8) 0.67974(7) 0.56241(7)
N34_18 N 0.56241(7) 0.84064(8) 0.57026(7)
N36_18 N 0.40320(8) 0.81105(7) 0.58042(8)
N37_18 N 0.41958(8) 0.68895(7) 0.59680(8)
N39_18 N 0.59680(8) 0.83042(8) 0.56105(7)
N41_18 N 0.42230(8) 0.83669(7) 0.56145(8)
N42_18 N 0.43855(8) 0.66331(7) 0.57770(8)
N44_18 N 0.57770(8) 0.81145(8) 0.58669(7)
N46_18 N 0.37099(8) 0.85080(7) 0.52590(8)
N49_18 N 0.62901(8) 0.77590(8) 0.60080(7)
N55_18 N 0.40742(8) 0.87235(7) 0.50120(8)
N56_18 N 0.34258(8) 0.87765(7) 0.50120(8)
N57_18 N 0.15127(7) 0.51957(7) 0.62549(7)
N58_18 N 0.12549(7) 0.59873(7) 0.73043(7)
N64_18 N 0.37451(7) 0.84873(7) 0.48043(7)
N65_18 N 0.37549(7) 0.90127(7) 0.48043(7)
N66_18 N 0.15657(7) 0.56333(8) 0.67250(8)
N67_18 N 0.17250(8) 0.59343(7) 0.68667(8)
Co16_19 Co 0.1250 0.4978 0.125000(15)
S4_19 S 0.04043(3) 0.33505(3) 0.17338(3)
C28_19 C 0.03104(8) 0.35202(9) 0.15680(9)
C36_19 C 0.01080(11) 0.42893(10) 0.12624(11)
H18_19 H 0.0006 0.3668 0.1794
C41_19 C 0.02207(13) 0.44692(10) 0.12970(13)
H26_19 H 0.0180 0.4596 0.1233
C46_19 C 0.03937(11) 0.44629(10) 0.14254(12)
H31_19 H 0.0480 0.4582 0.1442
C51_19 C 0.04371(9) 0.42792(9) 0.15287(9)
C56_19 C 0.03116(8) 0.41069(8) 0.14920(8)
H36_19 H 0.0340 0.3982 0.1567
C61_19 C 0.08479(10) 0.35922(10) 0.23483(10)
H41_19 H 0.0859 0.3484 0.2449
C66_19 C 0.06714(12) 0.35990(11) 0.22252(12)
H46_19 H 0.0566 0.3496 0.2239
C71_19 C 0.06497(11) 0.37594(10) 0.20803(10)
H51_19 H 0.0528 0.3770 0.1996
C76_19 C 0.08104(9) 0.39036(9) 0.20621(9)
C81_19 C 0.09806(8) 0.38846(8) 0.21916(8)
H56_19 H 0.1088 0.3986 0.2181
C86_19 C 0.07995(8) 0.40748(8) 0.19079(8)
C91_19 C 0.06235(9) 0.42541(9) 0.16620(8)
C96_19 C 0.09478(9) 0.43478(9) 0.17465(8)
C101_19 C 0.11334(10) 0.44772(10) 0.17032(9)
C106_19 C 0.11304(9) 0.46197(9) 0.15403(8)
H61_19 H 0.1007 0.4631 0.1459
C111_19 C 0.14658(13) 0.47222(12) 0.16050(12)
H66_19 H 0.1583 0.4806 0.1569
C116_19 C 0.14821(16) 0.45877(14) 0.17691(15)
H71_19 H 0.1607 0.4584 0.1849
C121_19 C 0.13179(14) 0.44561(12) 0.18206(14)
H76_19 H 0.1330 0.4356 0.1930
N12_19 N 0.02337(6) 0.36371(7) 0.14558(7)
N20_19 N 0.01525(7) 0.41058(7) 0.13569(7)
N26_19 N 0.10042(7) 0.37292(7) 0.23329(7)
N27_19 N 0.01671(7) 0.37708(7) 0.10042(7)
N34_19 N 0.06241(7) 0.40936(8) 0.17974(7)
N39_19 N 0.09680(8) 0.41958(8) 0.18895(7)
N44_19 N 0.07770(8) 0.43855(8) 0.16331(7)
N49_19 N 0.12901(8) 0.47410(8) 0.14920(7)
S1_19 S 0.82662(3) 0.45957(3) 0.16495(3)
C1_19 C 0.84320(9) 0.46896(8) 0.14798(9)
C2_19 C 0.82107(10) 0.51080(11) 0.12376(11)
H1_19 H 0.8206 0.4994 0.1332
C3_19 C 0.80308(10) 0.52207(13) 0.12030(13)
H2_19 H 0.7904 0.5180 0.1267
C4_19 C 0.80371(10) 0.53937(11) 0.10746(12)
H3_19 H 0.7918 0.5480 0.1058
C5_19 C 0.82208(9) 0.54371(9) 0.09713(9)
C6_19 C 0.83931(8) 0.53116(8) 0.10080(8)
H4_19 H 0.8518 0.5340 0.0933
C7_19 C 0.89078(10) 0.58479(10) 0.01517(10)
H5_19 H 0.9016 0.5859 0.0051
C8_19 C 0.89010(11) 0.56714(12) 0.02748(12)
H6_19 H 0.9004 0.5566 0.0261
C9_19 C 0.87406(10) 0.56497(11) 0.04197(10)
H7_19 H 0.8730 0.5528 0.0504
C10_19 C 0.85964(9) 0.58104(9) 0.04379(9)
C11_19 C 0.86154(8) 0.59806(8) 0.03084(8)
H8_19 H 0.8514 0.6088 0.0319
C12_19 C 0.84252(8) 0.57995(8) 0.05921(8)
C13_19 C 0.82459(9) 0.56235(9) 0.08380(8)
C14_19 C 0.81522(9) 0.59478(9) 0.07535(8)
C15_19 C 0.80228(10) 0.61334(10) 0.07968(9)
C16_19 C 0.78803(9) 0.61304(9) 0.09597(8)
H9_19 H 0.7869 0.6007 0.1041
C17_19 C 0.77778(12) 0.64658(13) 0.08950(12)
H10_19 H 0.7694 0.6583 0.0931
C18_19 C 0.79123(14) 0.64821(16) 0.07309(15)
H11_19 H 0.7916 0.6607 0.0651
C19_19 C 0.80439(12) 0.63179(14) 0.06794(14)
H12_19 H 0.8144 0.6330 0.0570
C21_19 C 0.73305(12) 0.61237(10) 0.08254(11)
H13_19 H 0.7434 0.6018 0.0837
C22_19 C 0.72181(13) 0.61339(12) 0.06475(12)
H14_19 H 0.7244 0.6039 0.0536
C23_19 C 0.70637(12) 0.62850(11) 0.06295(12)
H15_19 H 0.6984 0.6296 0.0505
C24_19 C 0.70282(10) 0.64187(9) 0.07950(9)
C25_19 C 0.71543(9) 0.64003(8) 0.09707(8)
H16_19 H 0.7133 0.6494 0.1083
C26_19 C 0.68667(10) 0.65827(9) 0.07850(9)
N1_19 N 0.85442(7) 0.47663(6) 0.13629(7)
N2_19 N 0.83942(7) 0.51525(7) 0.11431(7)
N4_19 N 0.84064(8) 0.56241(7) 0.07026(7)
N5_19 N 0.83042(8) 0.59680(8) 0.06105(7)
N6_19 N 0.81145(8) 0.57770(8) 0.08669(7)
N10_19 N 0.68667(8) 0.67250(8) 0.09343(7)
Co11_15 Co 0.625000(15) 0.7522 0.1250
S3_19 S 0.91495(3) 0.54043(3) 0.07662(3)
S5_19 S 0.95957(3) 0.42338(3) 0.08505(3)
S11_19 S 0.95005(7) 0.38014(4) 0.25374(4)
S12_19 S 0.79995(7) 0.36986(4) 0.25374(4)
C27_19 C 0.89798(9) 0.53104(8) 0.09320(9)
C29_19 C 0.96896(8) 0.40680(9) 0.10202(9)
C33_19 C 0.98920(11) 0.37624(11) 0.17893(10)
C34_19 C 0.92893(10) 0.62376(11) 0.23920(11)
H19_19 H 0.9294 0.6332 0.2506
H21_19 H 0.9994 0.4294 0.1168
C38_19 C 0.97793(13) 0.37970(13) 0.19692(10)
C39_19 C 0.94692(10) 0.62030(13) 0.22793(13)
H23_19 H 0.9820 0.3733 0.2096
H24_19 H 0.9596 0.6267 0.2320
C43_19 C 0.96063(11) 0.39254(12) 0.19629(10)
C44_19 C 0.94629(10) 0.60746(12) 0.21063(11)
H28_19 H 0.9520 0.3942 0.2082
H29_19 H 0.9582 0.6058 0.2020
C48_19 C 0.95629(9) 0.40287(9) 0.17792(9)
C49_19 C 0.92792(9) 0.59713(9) 0.20629(9)
C53_19 C 0.96884(8) 0.39920(8) 0.16069(8)
C54_19 C 0.91069(8) 0.60080(8) 0.21884(8)
H33_19 H 0.9660 0.4067 0.1482
H34_19 H 0.8982 0.5933 0.2160
C58_19 C 0.91521(10) 0.48483(10) 0.10922(10)
C59_19 C 0.85922(10) 0.51517(10) 0.16521(10)
H38_19 H 0.9141 0.4949 0.0984
H39_19 H 0.8484 0.5051 0.1641
C63_19 C 0.93286(12) 0.47252(12) 0.10990(11)
C64_19 C 0.85990(11) 0.52748(12) 0.18286(12)
H43_19 H 0.9434 0.4739 0.0996
H44_19 H 0.8496 0.5261 0.1934
C68_19 C 0.93503(11) 0.45803(10) 0.12594(10)
C69_19 C 0.87594(10) 0.54197(10) 0.18503(11)
H48_19 H 0.9472 0.4496 0.1270
H49_19 H 0.8770 0.5504 0.1972
C73_19 C 0.91896(9) 0.45621(9) 0.14036(9)
C74_19 C 0.89036(9) 0.54379(9) 0.16896(9)
C78_19 C 0.90194(8) 0.46916(8) 0.13846(8)
C79_19 C 0.88846(8) 0.53084(8) 0.15194(8)
H53_19 H 0.8912 0.4681 0.1486
H54_19 H 0.8986 0.5319 0.1412
C83_19 C 0.92005(8) 0.44079(8) 0.15748(8)
C84_19 C 0.90748(8) 0.55921(8) 0.17005(8)
C88_19 C 0.93765(9) 0.41620(8) 0.17541(9)
C89_19 C 0.92541(9) 0.58380(8) 0.18765(9)
C93_19 C 0.90522(9) 0.42465(8) 0.18478(9)
C94_19 C 0.93478(9) 0.57535(8) 0.15522(9)
C98_19 C 0.88666(10) 0.42032(9) 0.19772(10)
C99_19 C 0.94772(10) 0.57968(9) 0.13666(10)
C103_19 C 0.88696(9) 0.40403(8) 0.21197(9)
C104_19 C 0.96197(9) 0.59597(8) 0.13696(9)
H58_19 H 0.8993 0.3959 0.2131
H59_19 H 0.9631 0.6041 0.1493
C108_19 C 0.85342(13) 0.41050(12) 0.22222(12)
C109_19 C 0.97222(12) 0.58950(12) 0.10342(13)
H63_19 H 0.8417 0.4069 0.2306
H64_19 H 0.9806 0.5931 0.0917
C113_19 C 0.85179(16) 0.42691(15) 0.20877(14)
C114_19 C 0.95877(14) 0.57309(15) 0.10179(16)
H68_19 H 0.8393 0.4349 0.2084
H69_19 H 0.9584 0.5651 0.0893
C118_19 C 0.86821(14) 0.43206(14) 0.19561(12)
C119_19 C 0.94561(12) 0.56794(14) 0.11821(14)
H73_19 H 0.8670 0.4430 0.1856
H74_19 H 0.9356 0.5570 0.1170
C125_19 C 0.92481(12) 0.37871(9) 0.25068(12)
C126_19 C 0.82519(12) 0.37129(9) 0.25068(12)
C127_19 C 0.66746(11) 0.73305(12) 0.13763(10)
C128_19 C 0.61237(10) 0.66746(11) 0.01695(12)
H77_19 H 0.6663 0.7434 0.1482
H78_19 H 0.6018 0.6663 0.0066
C132_19 C 0.68525(12) 0.72181(13) 0.13661(12)
C133_19 C 0.61339(12) 0.68525(12) 0.02819(13)
H82_19 H 0.6964 0.7244 0.1461
H83_19 H 0.6039 0.6964 0.0256
C137_19 C 0.68705(12) 0.70637(12) 0.12150(11)
C138_19 C 0.62850(11) 0.68705(12) 0.04363(12)
H87_19 H 0.6995 0.6984 0.1204
H88_19 H 0.6296 0.6995 0.0516
C142_19 C 0.67050(9) 0.70282(10) 0.10813(9)
C143_19 C 0.64187(9) 0.67050(9) 0.04718(10)
C147_19 C 0.65293(8) 0.71543(9) 0.10997(8)
C148_19 C 0.64003(8) 0.65293(8) 0.03457(9)
H92_19 H 0.6417 0.7133 0.1006
H93_19 H 0.6494 0.6417 0.0367
C152_19 C 0.67150(9) 0.68667(10) 0.09173(9)
C153_19 C 0.65827(9) 0.67150(9) 0.06333(10)
N11_19 N 0.88629(7) 0.52337(6) 0.10442(7)
N13_19 N 0.97663(6) 0.39558(7) 0.11371(7)
N17_19 N 0.98475(7) 0.38569(7) 0.16058(7)
N23_19 N 0.89958(7) 0.48329(7) 0.12292(7)
N24_19 N 0.87292(7) 0.51671(7) 0.14958(7)
N31_19 N 0.93759(7) 0.42974(7) 0.15936(8)
N32_19 N 0.90936(8) 0.57026(7) 0.18759(7)
N36_19 N 0.90320(8) 0.43895(7) 0.16958(8)
N37_19 N 0.91958(8) 0.56105(7) 0.15320(8)
N41_19 N 0.92230(8) 0.41331(7) 0.18855(8)
N42_19 N 0.93855(8) 0.58669(7) 0.17230(8)
N46_19 N 0.87099(8) 0.39920(7) 0.22410(8)
N55_19 N 0.90742(8) 0.37765(7) 0.24880(8)
N56_19 N 0.84258(8) 0.37235(7) 0.24880(8)
N57_19 N 0.65127(7) 0.73043(7) 0.12451(7)
N58_19 N 0.62549(7) 0.65127(7) 0.01957(7)
N64_19 N 0.87451(7) 0.40127(7) 0.26957(7)
N65_19 N 0.87549(7) 0.34873(7) 0.26957(7)
N66_19 N 0.65657(7) 0.68667(8) 0.07750(8)
N67_19 N 0.67250(8) 0.65657(7) 0.06333(8)
C21_20 C 0.01695(12) 0.11237(10) 0.16746(11)
H13_20 H 0.0066 0.1018 0.1663
C22_20 C 0.02819(13) 0.11339(12) 0.18525(12)
H14_20 H 0.0256 0.1039 0.1964
C23_20 C 0.04363(12) 0.12850(11) 0.18705(12)
H15_20 H 0.0516 0.1296 0.1995
C24_20 C 0.04718(10) 0.14187(9) 0.17050(9)
C25_20 C 0.03457(9) 0.14003(8) 0.15293(8)
H16_20 H 0.0367 0.1494 0.1417
C26_20 C 0.06333(10) 0.15827(9) 0.17150(9)
N10_20 N 0.06333(8) 0.17250(8) 0.15657(7)
Co11_16 Co 0.125000(15) 0.2522 0.1250
C127_20 C 0.08254(11) 0.23305(12) 0.11237(10)
C128_20 C 0.13763(10) 0.16746(11) 0.23305(12)
H77_20 H 0.0837 0.2434 0.1018
H78_20 H 0.1482 0.1663 0.2434
C132_20 C 0.06475(12) 0.22181(13) 0.11339(12)
C133_20 C 0.13661(12) 0.18525(12) 0.22181(13)
H82_20 H 0.0536 0.2244 0.1039
H83_20 H 0.1461 0.1964 0.2244
C137_20 C 0.06295(12) 0.20637(12) 0.12850(11)
C138_20 C 0.12150(11) 0.18705(12) 0.20637(12)
H87_20 H 0.0505 0.1984 0.1296
H88_20 H 0.1204 0.1995 0.1984
C142_20 C 0.07950(9) 0.20282(10) 0.14187(9)
C143_20 C 0.10813(9) 0.17050(9) 0.20282(10)
C147_20 C 0.09707(8) 0.21543(9) 0.14003(8)
C148_20 C 0.10997(8) 0.15293(8) 0.21543(9)
H92_20 H 0.1083 0.2133 0.1494
H93_20 H 0.1006 0.1417 0.2133
C152_20 C 0.07850(9) 0.18667(10) 0.15827(9)
C153_20 C 0.09173(9) 0.17150(9) 0.18667(10)
N57_20 N 0.09873(7) 0.23043(7) 0.12549(7)
N58_20 N 0.12451(7) 0.15127(7) 0.23043(7)
N66_20 N 0.09343(7) 0.18667(8) 0.17250(8)
N67_20 N 0.07750(8) 0.15657(7) 0.18667(8)
C2_20 C 0.92893(10) 0.01080(11) 0.12624(11)
C3_20 C 0.94692(10) 0.02207(13) 0.12970(13)
H2_20 H 0.9596 0.0180 0.1233
C4_20 C 0.94629(10) 0.03937(11) 0.14254(12)
H3_20 H 0.9582 0.0480 0.1442
C5_20 C 0.92792(9) 0.04371(9) 0.15287(9)
C6_20 C 0.91069(8) 0.03116(8) 0.14920(8)
H4_20 H 0.8982 0.0340 0.1567
C7_20 C 0.85922(10) 0.08479(10) 0.23483(10)
H5_20 H 0.8484 0.0859 0.2449
C8_20 C 0.85990(11) 0.06714(12) 0.22252(12)
H6_20 H 0.8496 0.0566 0.2239
C9_20 C 0.87594(10) 0.06497(11) 0.20803(10)
H7_20 H 0.8770 0.0528 0.1996
C10_20 C 0.89036(9) 0.08104(9) 0.20621(9)
C11_20 C 0.88846(8) 0.09806(8) 0.21916(8)
H8_20 H 0.8986 0.1088 0.2181
C12_20 C 0.90748(8) 0.07995(8) 0.19079(8)
C13_20 C 0.92541(9) 0.06235(9) 0.16620(8)
C14_20 C 0.93478(9) 0.09478(9) 0.17465(8)
C15_20 C 0.94772(10) 0.11334(10) 0.17032(9)
C16_20 C 0.96197(9) 0.11304(9) 0.15403(8)
H9_20 H 0.9631 0.1007 0.1459
C17_20 C 0.97222(12) 0.14658(13) 0.16050(12)
H10_20 H 0.9806 0.1583 0.1569
C18_20 C 0.95877(14) 0.14821(16) 0.17691(15)
H11_20 H 0.9584 0.1607 0.1849
C19_20 C 0.94561(12) 0.13179(14) 0.18206(14)
H12_20 H 0.9356 0.1330 0.1930
N2_20 N 0.91058(7) 0.01525(7) 0.13569(7)
N4_20 N 0.90936(8) 0.06241(7) 0.17974(7)
N5_20 N 0.91958(8) 0.09680(8) 0.18895(7)
N6_20 N 0.93855(8) 0.07770(8) 0.16331(7)
S3_20 S 0.83505(3) 0.04043(3) 0.17338(3)
C27_20 C 0.85202(9) 0.03104(8) 0.15680(9)
C34_20 C 0.82107(10) 0.12376(11) 0.01080(11)
C39_20 C 0.80308(10) 0.12030(13) 0.02207(13)
H24_20 H 0.7904 0.1267 0.0180
C44_20 C 0.80371(10) 0.10746(12) 0.03937(11)
H29_20 H 0.7918 0.1058 0.0480
C49_20 C 0.82208(9) 0.09713(9) 0.04371(9)
C54_20 C 0.83931(8) 0.10080(8) 0.03116(8)
H34_20 H 0.8518 0.0933 0.0340
C59_20 C 0.89078(10) 0.01517(10) 0.08479(10)
H39_20 H 0.9016 0.0051 0.0859
C64_20 C 0.89010(11) 0.02748(12) 0.06714(12)
H44_20 H 0.9004 0.0261 0.0566
C69_20 C 0.87406(10) 0.04197(10) 0.06497(11)
H49_20 H 0.8730 0.0504 0.0528
C74_20 C 0.85964(9) 0.04379(9) 0.08104(9)
C79_20 C 0.86154(8) 0.03084(8) 0.09806(8)
H54_20 H 0.8514 0.0319 0.1088
C84_20 C 0.84252(8) 0.05921(8) 0.07995(8)
C89_20 C 0.82459(9) 0.08380(8) 0.06235(9)
C94_20 C 0.81522(9) 0.07535(8) 0.09478(9)
C99_20 C 0.80228(10) 0.07968(9) 0.11334(10)
C104_20 C 0.78803(9) 0.09597(8) 0.11304(9)
H59_20 H 0.7869 0.1041 0.1007
C109_20 C 0.77778(12) 0.08950(12) 0.14658(13)
H64_20 H 0.7694 0.0931 0.1583
C114_20 C 0.79123(14) 0.07309(15) 0.14821(16)
H69_20 H 0.7916 0.0651 0.1607
C119_20 C 0.80439(12) 0.06794(14) 0.13179(14)
H74_20 H 0.8144 0.0570 0.1330
N11_20 N 0.86371(7) 0.02337(6) 0.14558(7)
N24_20 N 0.87708(7) 0.01671(7) 0.10042(7)
N32_20 N 0.84064(8) 0.07026(7) 0.06241(7)
N37_20 N 0.83042(8) 0.06105(7) 0.09680(8)
N42_20 N 0.81145(8) 0.08669(7) 0.07770(8)
H19_20 H 0.8206 0.1332 0.9994
S1_20 S 0.92338(3) 0.95957(3) 0.08505(3)
C1_20 C 0.90680(9) 0.96896(8) 0.10202(9)
H1_20 H 0.9294 0.9994 0.1168
N1_20 N 0.89558(7) 0.97663(6) 0.11371(7)
Co16_20 Co 0.6250 0.9978 0.125000(15)
S4_20 S 0.70957(3) 0.83505(3) 0.07662(3)
S5_20 S 0.79043(3) 0.92338(3) 0.16495(3)
C28_20 C 0.71896(8) 0.85202(9) 0.09320(9)
C29_20 C 0.78104(8) 0.90680(9) 0.14798(9)
C33_20 C 0.76080(11) 0.87624(11) 0.07107(10)
C36_20 C 0.73920(11) 0.92893(10) 0.12376(11)
H18_20 H 0.7494 0.8668 0.0706
H21_20 H 0.7506 0.9294 0.1332
C38_20 C 0.77207(13) 0.87970(13) 0.05308(10)
C41_20 C 0.72793(13) 0.94692(10) 0.12030(13)
H23_20 H 0.7680 0.8733 0.0404
H26_20 H 0.7320 0.9596 0.1267
C43_20 C 0.78937(11) 0.89254(12) 0.05371(10)
C46_20 C 0.71063(11) 0.94629(10) 0.10746(12)
H28_20 H 0.7980 0.8942 0.0418
H31_20 H 0.7020 0.9582 0.1058
C48_20 C 0.79371(9) 0.90287(9) 0.07208(9)
C51_20 C 0.70629(9) 0.92792(9) 0.09713(9)
C53_20 C 0.78116(8) 0.89920(8) 0.08931(8)
C56_20 C 0.71884(8) 0.91069(8) 0.10080(8)
H33_20 H 0.7840 0.9067 0.1018
H36_20 H 0.7160 0.8982 0.0933
C58_20 C 0.83479(10) 0.98483(10) 0.14078(10)
C61_20 C 0.66521(10) 0.85922(10) 0.01517(10)
H38_20 H 0.8359 0.9949 0.1516
H41_20 H 0.6641 0.8484 0.0051
C63_20 C 0.81714(12) 0.97252(12) 0.14010(11)
C66_20 C 0.68286(12) 0.85990(11) 0.02748(12)
H43_20 H 0.8066 0.9739 0.1504
H46_20 H 0.6934 0.8496 0.0261
C68_20 C 0.81497(11) 0.95803(10) 0.12406(10)
C71_20 C 0.68503(11) 0.87594(10) 0.04197(10)
H48_20 H 0.8028 0.9496 0.1230
H51_20 H 0.6972 0.8770 0.0504
C73_20 C 0.83104(9) 0.95621(9) 0.10964(9)
C76_20 C 0.66896(9) 0.89036(9) 0.04379(9)
C78_20 C 0.84806(8) 0.96916(8) 0.11154(8)
C81_20 C 0.65194(8) 0.88846(8) 0.03084(8)
H53_20 H 0.8588 0.9681 0.1014
H56_20 H 0.6412 0.8986 0.0319
C83_20 C 0.82995(8) 0.94079(8) 0.09252(8)
C86_20 C 0.67005(8) 0.90748(8) 0.05921(8)
C88_20 C 0.81235(9) 0.91620(8) 0.07459(9)
C91_20 C 0.68765(9) 0.92541(9) 0.08380(8)
C93_20 C 0.84478(9) 0.92465(8) 0.06522(9)
C96_20 C 0.65522(9) 0.93478(9) 0.07535(8)
C98_20 C 0.86334(10) 0.92032(9) 0.05228(10)
C101_20 C 0.63666(10) 0.94772(10) 0.07968(9)
C103_20 C 0.86304(9) 0.90403(8) 0.03803(9)
C106_20 C 0.63696(9) 0.96197(9) 0.09597(8)
H58_20 H 0.8507 0.8959 0.0369
H61_20 H 0.6493 0.9631 0.1041
C108_20 C 0.89658(13) 0.91050(12) 0.02778(12)
C111_20 C 0.60342(13) 0.97222(12) 0.08950(12)
H63_20 H 0.9083 0.9069 0.0194
H66_20 H 0.5917 0.9806 0.0931
C113_20 C 0.89821(16) 0.92691(15) 0.04123(14)
C116_20 C 0.60179(16) 0.95877(14) 0.07309(15)
H68_20 H 0.9107 0.9349 0.0416
H71_20 H 0.5893 0.9584 0.0651
C118_20 C 0.88179(14) 0.93206(14) 0.05439(12)
C121_20 C 0.61821(14) 0.94561(12) 0.06794(14)
H73_20 H 0.8830 0.9430 0.0644
H76_20 H 0.6170 0.9356 0.0570
N12_20 N 0.72663(6) 0.86371(7) 0.10442(7)
N13_20 N 0.77337(6) 0.89558(7) 0.13629(7)
N17_20 N 0.76525(7) 0.88569(7) 0.08942(7)
N20_20 N 0.73475(7) 0.91058(7) 0.11431(7)
N23_20 N 0.85042(7) 0.98329(7) 0.12708(7)
N26_20 N 0.64958(7) 0.87292(7) 0.01671(7)
N27_20 N 0.73329(7) 0.87708(7) 0.14958(7)
N31_20 N 0.81241(7) 0.92974(7) 0.09064(8)
N34_20 N 0.68759(7) 0.90936(8) 0.07026(7)
N36_20 N 0.84680(8) 0.93895(7) 0.08042(8)
N39_20 N 0.65320(8) 0.91958(8) 0.06105(7)
N41_20 N 0.82770(8) 0.91331(7) 0.06145(8)
N44_20 N 0.67230(8) 0.93855(8) 0.08669(7)
N46_20 N 0.87901(8) 0.89920(7) 0.02590(8)
N49_20 N 0.62099(8) 0.97410(8) 0.10080(7)
N55_20 N 0.84258(8) 0.87765(7) 0.00120(8)
N56_20 N 0.90742(8) 0.87235(7) 0.00120(8)
S11_20 S 0.79995(7) 0.88014(4) 0.99626(4)
S12_20 S 0.95005(7) 0.86986(4) 0.99626(4)
C125_20 C 0.82519(12) 0.87871(9) 0.99932(12)
C126_20 C 0.92481(12) 0.87129(9) 0.99932(12)
N64_20 N 0.87549(7) 0.90127(7) 0.98043(7)
N65_20 N 0.87451(7) 0.84873(7) 0.98043(7)
S1_21 S 0.79043(3) 0.58505(3) 0.32662(3)
C1_21 C 0.78104(8) 0.60202(9) 0.34320(9)
C2_21 C 0.73920(11) 0.62624(11) 0.32107(10)
H1_21 H 0.7506 0.6168 0.3206
C3_21 C 0.72793(13) 0.62970(13) 0.30308(10)
H2_21 H 0.7320 0.6233 0.2904
C4_21 C 0.71063(11) 0.64254(12) 0.30371(10)
H3_21 H 0.7020 0.6442 0.2918
C5_21 C 0.70629(9) 0.65287(9) 0.32208(9)
C6_21 C 0.71884(8) 0.64920(8) 0.33931(8)
H4_21 H 0.7160 0.6567 0.3518
C7_21 C 0.66521(10) 0.73483(10) 0.39078(10)
H5_21 H 0.6641 0.7449 0.4016
C8_21 C 0.68286(12) 0.72252(12) 0.39010(11)
H6_21 H 0.6934 0.7239 0.4004
C9_21 C 0.68503(11) 0.70803(10) 0.37406(10)
H7_21 H 0.6972 0.6996 0.3730
C10_21 C 0.66896(9) 0.70621(9) 0.35964(9)
C11_21 C 0.65194(8) 0.71916(8) 0.36154(8)
H8_21 H 0.6412 0.7181 0.3514
C12_21 C 0.67005(8) 0.69079(8) 0.34252(8)
C13_21 C 0.68765(9) 0.66620(8) 0.32459(9)
C14_21 C 0.65522(9) 0.67465(8) 0.31522(9)
C15_21 C 0.63666(10) 0.67032(9) 0.30228(10)
C16_21 C 0.63696(9) 0.65403(8) 0.28803(9)
H9_21 H 0.6493 0.6459 0.2869
C17_21 C 0.60342(13) 0.66050(12) 0.27778(12)
H10_21 H 0.5917 0.6569 0.2694
C18_21 C 0.60179(16) 0.67691(15) 0.29123(14)
H11_21 H 0.5893 0.6849 0.2916
C19_21 C 0.61821(14) 0.68206(14) 0.30439(12)
H12_21 H 0.6170 0.6930 0.3144
C21_21 C 0.63763(10) 0.66746(11) 0.23305(12)
H13_21 H 0.6482 0.6663 0.2434
C22_21 C 0.63661(12) 0.68525(12) 0.22181(13)
H14_21 H 0.6461 0.6964 0.2244
C23_21 C 0.62150(11) 0.68705(12) 0.20637(12)
H15_21 H 0.6204 0.6995 0.1984
C24_21 C 0.60813(9) 0.67050(9) 0.20282(10)
C25_21 C 0.60997(8) 0.65293(8) 0.21543(9)
H16_21 H 0.6006 0.6417 0.2133
C26_21 C 0.59173(9) 0.67150(9) 0.18667(10)
N1_21 N 0.77337(6) 0.61371(7) 0.35442(7)
N2_21 N 0.73475(7) 0.63569(7) 0.33942(7)
N4_21 N 0.68759(7) 0.67974(7) 0.34064(8)
N5_21 N 0.65320(8) 0.68895(7) 0.33042(8)
N6_21 N 0.67230(8) 0.66331(7) 0.31145(8)
N10_21 N 0.57750(8) 0.65657(7) 0.18667(8)
Co16_21 Co 0.7522 0.625000(15) 0.6250
S3_21 S 0.70957(3) 0.67338(3) 0.41495(3)
S4_21 S 0.91495(3) 0.57662(3) 0.54043(3)
S5_21 S 0.82662(3) 0.66495(3) 0.45957(3)
S11_21 S 0.86986(4) 0.49626(4) 0.45005(7)
S12_21 S 0.88014(4) 0.49626(4) 0.29995(7)
C27_21 C 0.71896(8) 0.65680(9) 0.39798(9)
C28_21 C 0.89798(9) 0.59320(9) 0.53104(8)
C29_21 C 0.84320(9) 0.64798(9) 0.46896(8)
C33_21 C 0.87376(11) 0.57107(10) 0.48920(11)
C34_21 C 0.62624(11) 0.51080(11) 0.42893(10)
C36_21 C 0.82107(10) 0.62376(11) 0.51080(11)
H18_21 H 0.8832 0.5706 0.5006
H19_21 H 0.6168 0.4994 0.4294
H21_21 H 0.8206 0.6332 0.4994
C38_21 C 0.87030(13) 0.55308(10) 0.47793(13)
C39_21 C 0.62970(13) 0.52207(13) 0.44692(10)
C41_21 C 0.80308(10) 0.62030(13) 0.52207(13)
H23_21 H 0.8767 0.5404 0.4820
H24_21 H 0.6233 0.5180 0.4596
H26_21 H 0.7904 0.6267 0.5180
C43_21 C 0.85746(12) 0.55371(10) 0.46063(11)
C44_21 C 0.64254(12) 0.53937(11) 0.44629(10)
C46_21 C 0.80371(10) 0.60746(12) 0.53937(11)
H28_21 H 0.8558 0.5418 0.4520
H29_21 H 0.6442 0.5480 0.4582
H31_21 H 0.7918 0.6058 0.5480
C48_21 C 0.84713(9) 0.57208(9) 0.45629(9)
C49_21 C 0.65287(9) 0.54371(9) 0.42792(9)
C51_21 C 0.82208(9) 0.59713(9) 0.54371(9)
C53_21 C 0.85080(8) 0.58931(8) 0.46884(8)
C54_21 C 0.64920(8) 0.53116(8) 0.41069(8)
C56_21 C 0.83931(8) 0.60080(8) 0.53116(8)
H33_21 H 0.8433 0.6018 0.4660
H34_21 H 0.6567 0.5340 0.3982
H36_21 H 0.8518 0.5933 0.5340
C58_21 C 0.76517(10) 0.64078(10) 0.41521(10)
C59_21 C 0.73483(10) 0.58479(10) 0.35922(10)
C61_21 C 0.89078(10) 0.51517(10) 0.58479(10)
H38_21 H 0.7551 0.6516 0.4141
H39_21 H 0.7449 0.5859 0.3484
H41_21 H 0.9016 0.5051 0.5859
C63_21 C 0.77748(12) 0.64010(11) 0.43286(12)
C64_21 C 0.72252(12) 0.56714(12) 0.35990(11)
C66_21 C 0.89010(11) 0.52748(12) 0.56714(12)
H43_21 H 0.7761 0.6504 0.4434
H44_21 H 0.7239 0.5566 0.3496
H46_21 H 0.9004 0.5261 0.5566
C68_21 C 0.79197(10) 0.62406(10) 0.43503(11)
C69_21 C 0.70803(10) 0.56497(11) 0.37594(10)
C71_21 C 0.87406(10) 0.54197(10) 0.56497(11)
H48_21 H 0.8004 0.6230 0.4472
H49_21 H 0.6996 0.5528 0.3770
H51_21 H 0.8730 0.5504 0.5528
C73_21 C 0.79379(9) 0.60964(9) 0.41896(9)
C74_21 C 0.70621(9) 0.58104(9) 0.39036(9)
C76_21 C 0.85964(9) 0.54379(9) 0.58104(9)
C78_21 C 0.78084(8) 0.61154(8) 0.40194(8)
C79_21 C 0.71916(8) 0.59806(8) 0.38846(8)
C81_21 C 0.86154(8) 0.53084(8) 0.59806(8)
H53_21 H 0.7819 0.6014 0.3912
H54_21 H 0.7181 0.6088 0.3986
H56_21 H 0.8514 0.5319 0.6088
C83_21 C 0.80921(8) 0.59252(8) 0.42005(8)
C84_21 C 0.69079(8) 0.57995(8) 0.40748(8)
C86_21 C 0.84252(8) 0.55921(8) 0.57995(8)
C88_21 C 0.83380(8) 0.57459(9) 0.43765(9)
C89_21 C 0.66620(8) 0.56235(9) 0.42541(9)
C91_21 C 0.82459(9) 0.58380(8) 0.56235(9)
C93_21 C 0.82535(8) 0.56522(9) 0.40522(9)
C94_21 C 0.67465(8) 0.59478(9) 0.43478(9)
C96_21 C 0.81522(9) 0.57535(8) 0.59478(9)
C98_21 C 0.82968(9) 0.55228(10) 0.38666(10)
C99_21 C 0.67032(9) 0.61334(10) 0.44772(10)
C101_21 C 0.80228(10) 0.57968(9) 0.61334(10)
C103_21 C 0.84597(8) 0.53803(9) 0.38696(9)
C104_21 C 0.65403(8) 0.61304(9) 0.46197(9)
C106_21 C 0.78803(9) 0.59597(8) 0.61304(9)
H58_21 H 0.8541 0.5369 0.3993
H59_21 H 0.6459 0.6007 0.4631
H61_21 H 0.7869 0.6041 0.6007
C108_21 C 0.83950(12) 0.52778(12) 0.35342(13)
C109_21 C 0.66050(12) 0.64658(13) 0.47222(12)
C111_21 C 0.77778(12) 0.58950(12) 0.64658(13)
H63_21 H 0.8431 0.5194 0.3417
H64_21 H 0.6569 0.6583 0.4806
H66_21 H 0.7694 0.5931 0.6583
C113_21 C 0.82309(15) 0.54123(14) 0.35179(16)
C114_21 C 0.67691(15) 0.64821(16) 0.45877(14)
C116_21 C 0.79123(14) 0.57309(15) 0.64821(16)
H68_21 H 0.8151 0.5416 0.3393
H69_21 H 0.6849 0.6607 0.4584
H71_21 H 0.7916 0.5651 0.6607
C118_21 C 0.81794(14) 0.55439(12) 0.36821(14)
C119_21 C 0.68206(14) 0.63179(14) 0.44561(12)
C121_21 C 0.80439(12) 0.56794(14) 0.63179(14)
H73_21 H 0.8070 0.5644 0.3670
H74_21 H 0.6930 0.6330 0.4356
H76_21 H 0.8144 0.5570 0.6330
C125_21 C 0.87129(9) 0.49932(12) 0.42481(12)
C126_21 C 0.87871(9) 0.49932(12) 0.32519(12)
C127_21 C 0.51695(12) 0.61237(10) 0.16746(11)
C128_21 C 0.58254(11) 0.73305(12) 0.11237(10)
H77_21 H 0.5066 0.6018 0.1663
H78_21 H 0.5837 0.7434 0.1018
C132_21 C 0.52819(13) 0.61339(12) 0.18525(12)
C133_21 C 0.56475(12) 0.72181(13) 0.11339(12)
H82_21 H 0.5256 0.6039 0.1964
H83_21 H 0.5536 0.7244 0.1039
C137_21 C 0.54363(12) 0.62850(11) 0.18705(12)
C138_21 C 0.56295(12) 0.70637(12) 0.12850(11)
H87_21 H 0.5516 0.6296 0.1995
H88_21 H 0.5505 0.6984 0.1296
C142_21 C 0.54718(10) 0.64187(9) 0.17050(9)
C143_21 C 0.57950(9) 0.70282(10) 0.14187(9)
C147_21 C 0.53457(9) 0.64003(8) 0.15293(8)
C148_21 C 0.59707(8) 0.71543(9) 0.14003(8)
H92_21 H 0.5367 0.6494 0.1417
H93_21 H 0.6083 0.7133 0.1494
C152_21 C 0.56333(10) 0.65827(9) 0.17150(9)
C153_21 C 0.57850(9) 0.68667(10) 0.15827(9)
N11_21 N 0.72663(6) 0.64558(7) 0.38629(7)
N12_21 N 0.88629(7) 0.60442(7) 0.52337(6)
N13_21 N 0.85442(7) 0.63629(7) 0.47663(6)
N17_21 N 0.86431(7) 0.58942(7) 0.48475(7)
N20_21 N 0.83942(7) 0.61431(7) 0.51525(7)
N23_21 N 0.76671(7) 0.62708(7) 0.39958(7)
N24_21 N 0.73329(7) 0.60042(7) 0.37292(7)
N26_21 N 0.87708(7) 0.51671(7) 0.60042(7)
N27_21 N 0.87292(7) 0.64958(7) 0.51671(7)
N31_21 N 0.82026(7) 0.59064(8) 0.43759(7)
N32_21 N 0.67974(7) 0.56241(7) 0.40936(8)
N34_21 N 0.84064(8) 0.57026(7) 0.56241(7)
N36_21 N 0.81105(7) 0.58042(8) 0.40320(8)
N37_21 N 0.68895(7) 0.59680(8) 0.41958(8)
N39_21 N 0.83042(8) 0.56105(7) 0.59680(8)
N41_21 N 0.83669(7) 0.56145(8) 0.42230(8)
N42_21 N 0.66331(7) 0.57770(8) 0.43855(8)
N44_21 N 0.81145(8) 0.58669(7) 0.57770(8)
N46_21 N 0.85080(7) 0.52590(8) 0.37099(8)
N49_21 N 0.77590(8) 0.60080(7) 0.62901(8)
N55_21 N 0.87235(7) 0.50120(8) 0.40742(8)
N56_21 N 0.87765(7) 0.50120(8) 0.34258(8)
N57_21 N 0.51957(7) 0.62549(7) 0.15127(7)
N58_21 N 0.59873(7) 0.73043(7) 0.12549(7)
N64_21 N 0.84873(7) 0.48043(7) 0.37451(7)
N65_21 N 0.90127(7) 0.48043(7) 0.37549(7)
N66_21 N 0.56333(8) 0.67250(8) 0.15657(7)
N67_21 N 0.59343(7) 0.68667(8) 0.17250(8)
S1_22 S 0.29043(3) 0.66495(3) 0.42338(3)
C1_22 C 0.28104(8) 0.64798(9) 0.40680(9)
C2_22 C 0.23920(11) 0.62376(11) 0.42893(10)
H1_22 H 0.2506 0.6332 0.4294
C3_22 C 0.22793(13) 0.62030(13) 0.44692(10)
H2_22 H 0.2320 0.6267 0.4596
C4_22 C 0.21063(11) 0.60746(12) 0.44629(10)
H3_22 H 0.2020 0.6058 0.4582
C5_22 C 0.20629(9) 0.59713(9) 0.42792(9)
C6_22 C 0.21884(8) 0.60080(8) 0.41069(8)
H4_22 H 0.2160 0.5933 0.3982
C7_22 C 0.16521(10) 0.51517(10) 0.35922(10)
H5_22 H 0.1641 0.5051 0.3484
C8_22 C 0.18286(12) 0.52748(12) 0.35990(11)
H6_22 H 0.1934 0.5261 0.3496
C9_22 C 0.18503(11) 0.54197(10) 0.37594(10)
H7_22 H 0.1972 0.5504 0.3770
C10_22 C 0.16896(9) 0.54379(9) 0.39036(9)
C11_22 C 0.15194(8) 0.53084(8) 0.38846(8)
H8_22 H 0.1412 0.5319 0.3986
C12_22 C 0.17005(8) 0.55921(8) 0.40748(8)
C13_22 C 0.18765(9) 0.58380(8) 0.42541(9)
C14_22 C 0.15522(9) 0.57535(8) 0.43478(9)
C15_22 C 0.13666(10) 0.57968(9) 0.44772(10)
C16_22 C 0.13696(9) 0.59597(8) 0.46197(9)
H9_22 H 0.1493 0.6041 0.4631
C17_22 C 0.10342(13) 0.58950(12) 0.47222(12)
H10_22 H 0.0917 0.5931 0.4806
C18_22 C 0.10179(16) 0.57309(15) 0.45877(14)
H11_22 H 0.0893 0.5651 0.4584
C19_22 C 0.11821(14) 0.56794(14) 0.44561(12)
H12_22 H 0.1170 0.5570 0.4356
C21_22 C 0.13763(10) 0.58254(11) 0.51695(12)
H13_22 H 0.1482 0.5837 0.5066
C22_22 C 0.13661(12) 0.56475(12) 0.52819(13)
H14_22 H 0.1461 0.5536 0.5256
C23_22 C 0.12150(11) 0.56295(12) 0.54363(12)
H15_22 H 0.1204 0.5505 0.5516
C24_22 C 0.10813(9) 0.57950(9) 0.54718(10)
C25_22 C 0.10997(8) 0.59707(8) 0.53457(9)
H16_22 H 0.1006 0.6083 0.5367
C26_22 C 0.09173(9) 0.57850(9) 0.56333(10)
N1_22 N 0.27337(6) 0.63629(7) 0.39558(7)
N2_22 N 0.23475(7) 0.61431(7) 0.41058(7)
N4_22 N 0.18759(7) 0.57026(7) 0.40936(8)
N5_22 N 0.15320(8) 0.56105(7) 0.41958(8)
N6_22 N 0.17230(8) 0.58669(7) 0.43855(8)
N10_22 N 0.07750(8) 0.59343(7) 0.56333(8)
Co16_22 Co 0.2522 0.625000(15) 0.1250
S3_22 S 0.20957(3) 0.57662(3) 0.33505(3)
S4_22 S 0.41495(3) 0.67338(3) 0.20957(3)
S5_22 S 0.32662(3) 0.58505(3) 0.29043(3)
S11_22 S 0.36986(4) 0.75374(4) 0.29995(7)
S12_22 S 0.38014(4) 0.75374(4) 0.45005(7)
C27_22 C 0.21896(8) 0.59320(9) 0.35202(9)
C28_22 C 0.39798(9) 0.65680(9) 0.21896(8)
C29_22 C 0.34320(9) 0.60202(9) 0.28104(8)
C33_22 C 0.37376(11) 0.67893(10) 0.26080(11)
C34_22 C 0.12624(11) 0.73920(11) 0.32107(10)
C36_22 C 0.32107(10) 0.62624(11) 0.23920(11)
H18_22 H 0.3832 0.6794 0.2494
H19_22 H 0.1168 0.7506 0.3206
H21_22 H 0.3206 0.6168 0.2506
C38_22 C 0.37030(13) 0.69692(10) 0.27207(13)
C39_22 C 0.12970(13) 0.72793(13) 0.30308(10)
C41_22 C 0.30308(10) 0.62970(13) 0.22793(13)
H23_22 H 0.3767 0.7096 0.2680
H24_22 H 0.1233 0.7320 0.2904
H26_22 H 0.2904 0.6233 0.2320
C43_22 C 0.35746(12) 0.69629(10) 0.28937(11)
C44_22 C 0.14254(12) 0.71063(11) 0.30371(10)
C46_22 C 0.30371(10) 0.64254(12) 0.21063(11)
H28_22 H 0.3558 0.7082 0.2980
H29_22 H 0.1442 0.7020 0.2918
H31_22 H 0.2918 0.6442 0.2020
C48_22 C 0.34713(9) 0.67792(9) 0.29371(9)
C49_22 C 0.15287(9) 0.70629(9) 0.32208(9)
C51_22 C 0.32208(9) 0.65287(9) 0.20629(9)
C53_22 C 0.35080(8) 0.66069(8) 0.28116(8)
C54_22 C 0.14920(8) 0.71884(8) 0.33931(8)
C56_22 C 0.33931(8) 0.64920(8) 0.21884(8)
H33_22 H 0.3433 0.6482 0.2840
H34_22 H 0.1567 0.7160 0.3518
H36_22 H 0.3518 0.6567 0.2160
C58_22 C 0.26517(10) 0.60922(10) 0.33479(10)
C59_22 C 0.23483(10) 0.66521(10) 0.39078(10)
C61_22 C 0.39078(10) 0.73483(10) 0.16521(10)
H38_22 H 0.2551 0.5984 0.3359
H39_22 H 0.2449 0.6641 0.4016
H41_22 H 0.4016 0.7449 0.1641
C63_22 C 0.27748(12) 0.60990(11) 0.31714(12)
C64_22 C 0.22252(12) 0.68286(12) 0.39010(11)
C66_22 C 0.39010(11) 0.72252(12) 0.18286(12)
H43_22 H 0.2761 0.5996 0.3066
H44_22 H 0.2239 0.6934 0.4004
H46_22 H 0.4004 0.7239 0.1934
C68_22 C 0.29197(10) 0.62594(10) 0.31497(11)
C69_22 C 0.20803(10) 0.68503(11) 0.37406(10)
C71_22 C 0.37406(10) 0.70803(10) 0.18503(11)
H48_22 H 0.3004 0.6270 0.3028
H49_22 H 0.1996 0.6972 0.3730
H51_22 H 0.3730 0.6996 0.1972
C73_22 C 0.29379(9) 0.64036(9) 0.33104(9)
C74_22 C 0.20621(9) 0.66896(9) 0.35964(9)
C76_22 C 0.35964(9) 0.70621(9) 0.16896(9)
C78_22 C 0.28084(8) 0.63846(8) 0.34806(8)
C79_22 C 0.21916(8) 0.65194(8) 0.36154(8)
C81_22 C 0.36154(8) 0.71916(8) 0.15194(8)
H53_22 H 0.2819 0.6486 0.3588
H54_22 H 0.2181 0.6412 0.3514
H56_22 H 0.3514 0.7181 0.1412
C83_22 C 0.30921(8) 0.65748(8) 0.32995(8)
C84_22 C 0.19079(8) 0.67005(8) 0.34252(8)
C86_22 C 0.34252(8) 0.69079(8) 0.17005(8)
C88_22 C 0.33380(8) 0.67541(9) 0.31235(9)
C89_22 C 0.16620(8) 0.68765(9) 0.32459(9)
C91_22 C 0.32459(9) 0.66620(8) 0.18765(9)
C93_22 C 0.32535(8) 0.68478(9) 0.34478(9)
C94_22 C 0.17465(8) 0.65522(9) 0.31522(9)
C96_22 C 0.31522(9) 0.67465(8) 0.15522(9)
C98_22 C 0.32968(9) 0.69772(10) 0.36334(10)
C99_22 C 0.17032(9) 0.63666(10) 0.30228(10)
C101_22 C 0.30228(10) 0.67032(9) 0.13666(10)
C103_22 C 0.34597(8) 0.71197(9) 0.36304(9)
C104_22 C 0.15403(8) 0.63696(9) 0.28803(9)
C106_22 C 0.28803(9) 0.65403(8) 0.13696(9)
H58_22 H 0.3541 0.7131 0.3507
H59_22 H 0.1459 0.6493 0.2869
H61_22 H 0.2869 0.6459 0.1493
C108_22 C 0.33950(12) 0.72222(12) 0.39658(13)
C109_22 C 0.16050(12) 0.60342(13) 0.27778(12)
C111_22 C 0.27778(12) 0.66050(12) 0.10342(13)
H63_22 H 0.3431 0.7306 0.4083
H64_22 H 0.1569 0.5917 0.2694
H66_22 H 0.2694 0.6569 0.0917
C113_22 C 0.32309(15) 0.70877(14) 0.39821(16)
C114_22 C 0.17691(15) 0.60179(16) 0.29123(14)
C116_22 C 0.29123(14) 0.67691(15) 0.10179(16)
H68_22 H 0.3151 0.7084 0.4107
H69_22 H 0.1849 0.5893 0.2916
H71_22 H 0.2916 0.6849 0.0893
C118_22 C 0.31794(14) 0.69561(12) 0.38179(14)
C119_22 C 0.18206(14) 0.61821(14) 0.30439(12)
C121_22 C 0.30439(12) 0.68206(14) 0.11821(14)
H73_22 H 0.3070 0.6856 0.3830
H74_22 H 0.1930 0.6170 0.3144
H76_22 H 0.3144 0.6930 0.1170
C125_22 C 0.37129(9) 0.75068(12) 0.32519(12)
C126_22 C 0.37871(9) 0.75068(12) 0.42481(12)
C127_22 C 0.01695(12) 0.63763(10) 0.58254(11)
C128_22 C 0.08254(11) 0.51695(12) 0.63763(10)
H77_22 H 0.0066 0.6482 0.5837
H78_22 H 0.0837 0.5066 0.6482
C132_22 C 0.02819(13) 0.63661(12) 0.56475(12)
C133_22 C 0.06475(12) 0.52819(13) 0.63661(12)
H82_22 H 0.0256 0.6461 0.5536
H83_22 H 0.0536 0.5256 0.6461
C137_22 C 0.04363(12) 0.62150(11) 0.56295(12)
C138_22 C 0.06295(12) 0.54363(12) 0.62150(11)
H87_22 H 0.0516 0.6204 0.5505
H88_22 H 0.0505 0.5516 0.6204
C142_22 C 0.04718(10) 0.60813(9) 0.57950(9)
C143_22 C 0.07950(9) 0.54718(10) 0.60813(9)
C147_22 C 0.03457(9) 0.60997(8) 0.59707(8)
C148_22 C 0.09707(8) 0.53457(9) 0.60997(8)
H92_22 H 0.0367 0.6006 0.6083
H93_22 H 0.1083 0.5367 0.6006
C152_22 C 0.06333(10) 0.59173(9) 0.57850(9)
C153_22 C 0.07850(9) 0.56333(10) 0.59173(9)
N11_22 N 0.22663(6) 0.60442(7) 0.36371(7)
N12_22 N 0.38629(7) 0.64558(7) 0.22663(6)
N13_22 N 0.35442(7) 0.61371(7) 0.27337(6)
N17_22 N 0.36431(7) 0.66058(7) 0.26525(7)
N20_22 N 0.33942(7) 0.63569(7) 0.23475(7)
N23_22 N 0.26671(7) 0.62292(7) 0.35042(7)
N24_22 N 0.23329(7) 0.64958(7) 0.37708(7)
N26_22 N 0.37708(7) 0.73329(7) 0.14958(7)
N27_22 N 0.37292(7) 0.60042(7) 0.23329(7)
N31_22 N 0.32026(7) 0.65936(8) 0.31241(7)
N32_22 N 0.17974(7) 0.68759(7) 0.34064(8)
N34_22 N 0.34064(8) 0.67974(7) 0.18759(7)
N36_22 N 0.31105(7) 0.66958(8) 0.34680(8)
N37_22 N 0.18895(7) 0.65320(8) 0.33042(8)
N39_22 N 0.33042(8) 0.68895(7) 0.15320(8)
N41_22 N 0.33669(7) 0.68855(8) 0.32770(8)
N42_22 N 0.16331(7) 0.67230(8) 0.31145(8)
N44_22 N 0.31145(8) 0.66331(7) 0.17230(8)
N46_22 N 0.35080(7) 0.72410(8) 0.37901(8)
N49_22 N 0.27590(8) 0.64920(7) 0.12099(8)
N55_22 N 0.37235(7) 0.74880(8) 0.34258(8)
N56_22 N 0.37765(7) 0.74880(8) 0.40742(8)
N57_22 N 0.01957(7) 0.62451(7) 0.59873(7)
N58_22 N 0.09873(7) 0.51957(7) 0.62451(7)
N64_22 N 0.34873(7) 0.76957(7) 0.37549(7)
N65_22 N 0.40127(7) 0.76957(7) 0.37451(7)
N66_22 N 0.06333(8) 0.57750(8) 0.59343(7)
N67_22 N 0.09343(7) 0.56333(8) 0.57750(8)
C21_23 C 0.11237(10) 0.16746(11) 0.01695(12)
H13_23 H 0.1018 0.1663 0.0066
C22_23 C 0.11339(12) 0.18525(12) 0.02819(13)
H14_23 H 0.1039 0.1964 0.0256
C23_23 C 0.12850(11) 0.18705(12) 0.04363(12)
H15_23 H 0.1296 0.1995 0.0516
C24_23 C 0.14187(9) 0.17050(9) 0.04718(10)
C25_23 C 0.14003(8) 0.15293(8) 0.03457(9)
H16_23 H 0.1494 0.1417 0.0367
C26_23 C 0.15827(9) 0.17150(9) 0.06333(10)
N10_23 N 0.17250(8) 0.15657(7) 0.06333(8)
C127_23 C 0.23305(12) 0.11237(10) 0.08254(11)
C128_23 C 0.16746(11) 0.23305(12) 0.13763(10)
H77_23 H 0.2434 0.1018 0.0837
H78_23 H 0.1663 0.2434 0.1482
C132_23 C 0.22181(13) 0.11339(12) 0.06475(12)
C133_23 C 0.18525(12) 0.22181(13) 0.13661(12)
H82_23 H 0.2244 0.1039 0.0536
H83_23 H 0.1964 0.2244 0.1461
C137_23 C 0.20637(12) 0.12850(11) 0.06295(12)
C138_23 C 0.18705(12) 0.20637(12) 0.12150(11)
H87_23 H 0.1984 0.1296 0.0505
H88_23 H 0.1995 0.1984 0.1204
C142_23 C 0.20282(10) 0.14187(9) 0.07950(9)
C143_23 C 0.17050(9) 0.20282(10) 0.10813(9)
C147_23 C 0.21543(9) 0.14003(8) 0.09707(8)
C148_23 C 0.15293(8) 0.21543(9) 0.10997(8)
H92_23 H 0.2133 0.1494 0.1083
H93_23 H 0.1417 0.2133 0.1006
C152_23 C 0.18667(10) 0.15827(9) 0.07850(9)
C153_23 C 0.17150(9) 0.18667(10) 0.09173(9)
N57_23 N 0.23043(7) 0.12549(7) 0.09873(7)
N58_23 N 0.15127(7) 0.23043(7) 0.12451(7)
N66_23 N 0.18667(8) 0.17250(8) 0.09343(7)
N67_23 N 0.15657(7) 0.18667(8) 0.07750(8)
C2_23 C 0.01080(11) 0.12624(11) 0.92893(10)
C3_23 C 0.02207(13) 0.12970(13) 0.94692(10)
H2_23 H 0.0180 0.1233 0.9596
C4_23 C 0.03937(11) 0.14254(12) 0.94629(10)
H3_23 H 0.0480 0.1442 0.9582
C5_23 C 0.04371(9) 0.15287(9) 0.92792(9)
C6_23 C 0.03116(8) 0.14920(8) 0.91069(8)
H4_23 H 0.0340 0.1567 0.8982
C7_23 C 0.08479(10) 0.23483(10) 0.85922(10)
H5_23 H 0.0859 0.2449 0.8484
C8_23 C 0.06714(12) 0.22252(12) 0.85990(11)
H6_23 H 0.0566 0.2239 0.8496
C9_23 C 0.06497(11) 0.20803(10) 0.87594(10)
H7_23 H 0.0528 0.1996 0.8770
C10_23 C 0.08104(9) 0.20621(9) 0.89036(9)
C11_23 C 0.09806(8) 0.21916(8) 0.88846(8)
H8_23 H 0.1088 0.2181 0.8986
C12_23 C 0.07995(8) 0.19079(8) 0.90748(8)
C13_23 C 0.06235(9) 0.16620(8) 0.92541(9)
C14_23 C 0.09478(9) 0.17465(8) 0.93478(9)
C15_23 C 0.11334(10) 0.17032(9) 0.94772(10)
C16_23 C 0.11304(9) 0.15403(8) 0.96197(9)
H9_23 H 0.1007 0.1459 0.9631
C17_23 C 0.14658(13) 0.16050(12) 0.97222(12)
H10_23 H 0.1583 0.1569 0.9806
C18_23 C 0.14821(16) 0.17691(15) 0.95877(14)
H11_23 H 0.1607 0.1849 0.9584
C19_23 C 0.13179(14) 0.18206(14) 0.94561(12)
H12_23 H 0.1330 0.1930 0.9356
N2_23 N 0.01525(7) 0.13569(7) 0.91058(7)
N4_23 N 0.06241(7) 0.17974(7) 0.90936(8)
N5_23 N 0.09680(8) 0.18895(7) 0.91958(8)
N6_23 N 0.07770(8) 0.16331(7) 0.93855(8)
S3_23 S 0.04043(3) 0.17338(3) 0.83505(3)
C27_23 C 0.03104(8) 0.15680(9) 0.85202(9)
C34_23 C 0.12376(11) 0.01080(11) 0.82107(10)
C39_23 C 0.12030(13) 0.02207(13) 0.80308(10)
H24_23 H 0.1267 0.0180 0.7904
C44_23 C 0.10746(12) 0.03937(11) 0.80371(10)
H29_23 H 0.1058 0.0480 0.7918
C49_23 C 0.09713(9) 0.04371(9) 0.82208(9)
C54_23 C 0.10080(8) 0.03116(8) 0.83931(8)
H34_23 H 0.0933 0.0340 0.8518
C59_23 C 0.01517(10) 0.08479(10) 0.89078(10)
H39_23 H 0.0051 0.0859 0.9016
C64_23 C 0.02748(12) 0.06714(12) 0.89010(11)
H44_23 H 0.0261 0.0566 0.9004
C69_23 C 0.04197(10) 0.06497(11) 0.87406(10)
H49_23 H 0.0504 0.0528 0.8730
C74_23 C 0.04379(9) 0.08104(9) 0.85964(9)
C79_23 C 0.03084(8) 0.09806(8) 0.86154(8)
H54_23 H 0.0319 0.1088 0.8514
C84_23 C 0.05921(8) 0.07995(8) 0.84252(8)
C89_23 C 0.08380(8) 0.06235(9) 0.82459(9)
C94_23 C 0.07535(8) 0.09478(9) 0.81522(9)
C99_23 C 0.07968(9) 0.11334(10) 0.80228(10)
C104_23 C 0.09597(8) 0.11304(9) 0.78803(9)
H59_23 H 0.1041 0.1007 0.7869
C109_23 C 0.08950(12) 0.14658(13) 0.77778(12)
H64_23 H 0.0931 0.1583 0.7694
C114_23 C 0.07309(15) 0.14821(16) 0.79123(14)
H69_23 H 0.0651 0.1607 0.7916
C119_23 C 0.06794(14) 0.13179(14) 0.80439(12)
H74_23 H 0.0570 0.1330 0.8144
N11_23 N 0.02337(6) 0.14558(7) 0.86371(7)
N24_23 N 0.01671(7) 0.10042(7) 0.87708(7)
N32_23 N 0.07026(7) 0.06241(7) 0.84064(8)
N37_23 N 0.06105(7) 0.09680(8) 0.83042(8)
N42_23 N 0.08669(7) 0.07770(8) 0.81145(8)
H19_23 H 0.1332 0.9994 0.8206
S1_23 S 0.95957(3) 0.08505(3) 0.92338(3)
C1_23 C 0.96896(8) 0.10202(9) 0.90680(9)
H1_23 H 0.9994 0.1168 0.9294
N1_23 N 0.97663(6) 0.11371(7) 0.89558(7)
Co16_23 Co 0.9978 0.125000(15) 0.6250
S4_23 S 0.83505(3) 0.07662(3) 0.70957(3)
S5_23 S 0.92338(3) 0.16495(3) 0.79043(3)
C28_23 C 0.85202(9) 0.09320(9) 0.71896(8)
C29_23 C 0.90680(9) 0.14798(9) 0.78104(8)
C33_23 C 0.87624(11) 0.07107(10) 0.76080(11)
C36_23 C 0.92893(10) 0.12376(11) 0.73920(11)
H18_23 H 0.8668 0.0706 0.7494
H21_23 H 0.9294 0.1332 0.7506
C38_23 C 0.87970(13) 0.05308(10) 0.77207(13)
C41_23 C 0.94692(10) 0.12030(13) 0.72793(13)
H23_23 H 0.8733 0.0404 0.7680
H26_23 H 0.9596 0.1267 0.7320
C43_23 C 0.89254(12) 0.05371(10) 0.78937(11)
C46_23 C 0.94629(10) 0.10746(12) 0.71063(11)
H28_23 H 0.8942 0.0418 0.7980
H31_23 H 0.9582 0.1058 0.7020
C48_23 C 0.90287(9) 0.07208(9) 0.79371(9)
C51_23 C 0.92792(9) 0.09713(9) 0.70629(9)
C53_23 C 0.89920(8) 0.08931(8) 0.78116(8)
C56_23 C 0.91069(8) 0.10080(8) 0.71884(8)
H33_23 H 0.9067 0.1018 0.7840
H36_23 H 0.8982 0.0933 0.7160
C58_23 C 0.98483(10) 0.14078(10) 0.83479(10)
C61_23 C 0.85922(10) 0.01517(10) 0.66521(10)
H38_23 H 0.9949 0.1516 0.8359
H41_23 H 0.8484 0.0051 0.6641
C63_23 C 0.97252(12) 0.14010(11) 0.81714(12)
C66_23 C 0.85990(11) 0.02748(12) 0.68286(12)
H43_23 H 0.9739 0.1504 0.8066
H46_23 H 0.8496 0.0261 0.6934
C68_23 C 0.95803(10) 0.12406(10) 0.81497(11)
C71_23 C 0.87594(10) 0.04197(10) 0.68503(11)
H48_23 H 0.9496 0.1230 0.8028
H51_23 H 0.8770 0.0504 0.6972
C73_23 C 0.95621(9) 0.10964(9) 0.83104(9)
C76_23 C 0.89036(9) 0.04379(9) 0.66896(9)
C78_23 C 0.96916(8) 0.11154(8) 0.84806(8)
C81_23 C 0.88846(8) 0.03084(8) 0.65194(8)
H53_23 H 0.9681 0.1014 0.8588
H56_23 H 0.8986 0.0319 0.6412
C83_23 C 0.94079(8) 0.09252(8) 0.82995(8)
C86_23 C 0.90748(8) 0.05921(8) 0.67005(8)
C88_23 C 0.91620(8) 0.07459(9) 0.81235(9)
C91_23 C 0.92541(9) 0.08380(8) 0.68765(9)
C93_23 C 0.92465(8) 0.06522(9) 0.84478(9)
C96_23 C 0.93478(9) 0.07535(8) 0.65522(9)
C98_23 C 0.92032(9) 0.05228(10) 0.86334(10)
C101_23 C 0.94772(10) 0.07968(9) 0.63666(10)
C103_23 C 0.90403(8) 0.03803(9) 0.86304(9)
C106_23 C 0.96197(9) 0.09597(8) 0.63696(9)
H58_23 H 0.8959 0.0369 0.8507
H61_23 H 0.9631 0.1041 0.6493
C108_23 C 0.91050(12) 0.02778(12) 0.89658(13)
C111_23 C 0.97222(12) 0.08950(12) 0.60342(13)
H63_23 H 0.9069 0.0194 0.9083
H66_23 H 0.9806 0.0931 0.5917
C113_23 C 0.92691(15) 0.04123(14) 0.89821(16)
C116_23 C 0.95877(14) 0.07309(15) 0.60179(16)
H68_23 H 0.9349 0.0416 0.9107
H71_23 H 0.9584 0.0651 0.5893
C118_23 C 0.93206(14) 0.05439(12) 0.88179(14)
C121_23 C 0.94561(12) 0.06794(14) 0.61821(14)
H73_23 H 0.9430 0.0644 0.8830
H76_23 H 0.9356 0.0570 0.6170
N12_23 N 0.86371(7) 0.10442(7) 0.72663(6)
N13_23 N 0.89558(7) 0.13629(7) 0.77337(6)
N17_23 N 0.88569(7) 0.08942(7) 0.76525(7)
N20_23 N 0.91058(7) 0.11431(7) 0.73475(7)
N23_23 N 0.98329(7) 0.12708(7) 0.85042(7)
N26_23 N 0.87292(7) 0.01671(7) 0.64958(7)
N27_23 N 0.87708(7) 0.14958(7) 0.73329(7)
N31_23 N 0.92974(7) 0.09064(8) 0.81241(7)
N34_23 N 0.90936(8) 0.07026(7) 0.68759(7)
N36_23 N 0.93895(7) 0.08042(8) 0.84680(8)
N39_23 N 0.91958(8) 0.06105(7) 0.65320(8)
N41_23 N 0.91331(7) 0.06145(8) 0.82770(8)
N44_23 N 0.93855(8) 0.08669(7) 0.67230(8)
N46_23 N 0.89920(7) 0.02590(8) 0.87901(8)
N49_23 N 0.97410(8) 0.10080(7) 0.62099(8)
N55_23 N 0.87765(7) 0.00120(8) 0.84258(8)
N56_23 N 0.87235(7) 0.00120(8) 0.90742(8)
S11_23 S 0.88014(4) 0.99626(4) 0.79995(7)
S12_23 S 0.86986(4) 0.99626(4) 0.95005(7)
C125_23 C 0.87871(9) 0.99932(12) 0.82519(12)
C126_23 C 0.87129(9) 0.99932(12) 0.92481(12)
N64_23 N 0.90127(7) 0.98043(7) 0.87549(7)
N65_23 N 0.84873(7) 0.98043(7) 0.87451(7)
Co16_24 Co 0.4978 0.125000(15) 0.1250
S4_24 S 0.33505(3) 0.17338(3) 0.04043(3)
C28_24 C 0.35202(9) 0.15680(9) 0.03104(8)
C36_24 C 0.42893(10) 0.12624(11) 0.01080(11)
H18_24 H 0.3668 0.1794 0.0006
C41_24 C 0.44692(10) 0.12970(13) 0.02207(13)
H26_24 H 0.4596 0.1233 0.0180
C46_24 C 0.44629(10) 0.14254(12) 0.03937(11)
H31_24 H 0.4582 0.1442 0.0480
C51_24 C 0.42792(9) 0.15287(9) 0.04371(9)
C56_24 C 0.41069(8) 0.14920(8) 0.03116(8)
H36_24 H 0.3982 0.1567 0.0340
C61_24 C 0.35922(10) 0.23483(10) 0.08479(10)
H41_24 H 0.3484 0.2449 0.0859
C66_24 C 0.35990(11) 0.22252(12) 0.06714(12)
H46_24 H 0.3496 0.2239 0.0566
C71_24 C 0.37594(10) 0.20803(10) 0.06497(11)
H51_24 H 0.3770 0.1996 0.0528
C76_24 C 0.39036(9) 0.20621(9) 0.08104(9)
C81_24 C 0.38846(8) 0.21916(8) 0.09806(8)
H56_24 H 0.3986 0.2181 0.1088
C86_24 C 0.40748(8) 0.19079(8) 0.07995(8)
C91_24 C 0.42541(9) 0.16620(8) 0.06235(9)
C96_24 C 0.43478(9) 0.17465(8) 0.09478(9)
C101_24 C 0.44772(10) 0.17032(9) 0.11334(10)
C106_24 C 0.46197(9) 0.15403(8) 0.11304(9)
H61_24 H 0.4631 0.1459 0.1007
C111_24 C 0.47222(12) 0.16050(12) 0.14658(13)
H66_24 H 0.4806 0.1569 0.1583
C116_24 C 0.45877(14) 0.17691(15) 0.14821(16)
H71_24 H 0.4584 0.1849 0.1607
C121_24 C 0.44561(12) 0.18206(14) 0.13179(14)
H76_24 H 0.4356 0.1930 0.1330
N12_24 N 0.36371(7) 0.14558(7) 0.02337(6)
N20_24 N 0.41058(7) 0.13569(7) 0.01525(7)
N26_24 N 0.37292(7) 0.23329(7) 0.10042(7)
N27_24 N 0.37708(7) 0.10042(7) 0.01671(7)
N34_24 N 0.40936(8) 0.17974(7) 0.06241(7)
N39_24 N 0.41958(8) 0.18895(7) 0.09680(8)
N44_24 N 0.43855(8) 0.16331(7) 0.07770(8)
N49_24 N 0.47410(8) 0.14920(7) 0.12901(8)
S1_24 S 0.45957(3) 0.16495(3) 0.82662(3)
C1_24 C 0.46896(8) 0.14798(9) 0.84320(9)
C2_24 C 0.51080(11) 0.12376(11) 0.82107(10)
H1_24 H 0.4994 0.1332 0.8206
C3_24 C 0.52207(13) 0.12030(13) 0.80308(10)
H2_24 H 0.5180 0.1267 0.7904
C4_24 C 0.53937(11) 0.10746(12) 0.80371(10)
H3_24 H 0.5480 0.1058 0.7918
C5_24 C 0.54371(9) 0.09713(9) 0.82208(9)
C6_24 C 0.53116(8) 0.10080(8) 0.83931(8)
H4_24 H 0.5340 0.0933 0.8518
C7_24 C 0.58479(10) 0.01517(10) 0.89078(10)
H5_24 H 0.5859 0.0051 0.9016
C8_24 C 0.56714(12) 0.02748(12) 0.89010(11)
H6_24 H 0.5566 0.0261 0.9004
C9_24 C 0.56497(11) 0.04197(10) 0.87406(10)
H7_24 H 0.5528 0.0504 0.8730
C10_24 C 0.58104(9) 0.04379(9) 0.85964(9)
C11_24 C 0.59806(8) 0.03084(8) 0.86154(8)
H8_24 H 0.6088 0.0319 0.8514
C12_24 C 0.57995(8) 0.05921(8) 0.84252(8)
C13_24 C 0.56235(9) 0.08380(8) 0.82459(9)
C14_24 C 0.59478(9) 0.07535(8) 0.81522(9)
C15_24 C 0.61334(10) 0.07968(9) 0.80228(10)
C16_24 C 0.61304(9) 0.09597(8) 0.78803(9)
H9_24 H 0.6007 0.1041 0.7869
C17_24 C 0.64658(13) 0.08950(12) 0.77778(12)
H10_24 H 0.6583 0.0931 0.7694
C18_24 C 0.64821(16) 0.07309(15) 0.79123(14)
H11_24 H 0.6607 0.0651 0.7916
C19_24 C 0.63179(14) 0.06794(14) 0.80439(12)
H12_24 H 0.6330 0.0570 0.8144
C21_24 C 0.61237(10) 0.08254(11) 0.73305(12)
H13_24 H 0.6018 0.0837 0.7434
C22_24 C 0.61339(12) 0.06475(12) 0.72181(13)
H14_24 H 0.6039 0.0536 0.7244
C23_24 C 0.62850(11) 0.06295(12) 0.70637(12)
H15_24 H 0.6296 0.0505 0.6984
C24_24 C 0.64187(9) 0.07950(9) 0.70282(10)
C25_24 C 0.64003(8) 0.09707(8) 0.71543(9)
H16_24 H 0.6494 0.1083 0.7133
C26_24 C 0.65827(9) 0.07850(9) 0.68667(10)
N1_24 N 0.47663(6) 0.13629(7) 0.85442(7)
N2_24 N 0.51525(7) 0.11431(7) 0.83942(7)
N4_24 N 0.56241(7) 0.07026(7) 0.84064(8)
N5_24 N 0.59680(8) 0.06105(7) 0.83042(8)
N6_24 N 0.57770(8) 0.08669(7) 0.81145(8)
N10_24 N 0.67250(8) 0.09343(7) 0.68667(8)
S3_24 S 0.54043(3) 0.07662(3) 0.91495(3)
S5_24 S 0.42338(3) 0.08505(3) 0.95957(3)
S11_24 S 0.38014(4) 0.25374(4) 0.95005(7)
S12_24 S 0.36986(4) 0.25374(4) 0.79995(7)
C27_24 C 0.53104(8) 0.09320(9) 0.89798(9)
C29_24 C 0.40680(9) 0.10202(9) 0.96896(8)
C33_24 C 0.37624(11) 0.17893(10) 0.98920(11)
C34_24 C 0.62376(11) 0.23920(11) 0.92893(10)
H19_24 H 0.6332 0.2506 0.9294
H21_24 H 0.4294 0.1168 0.9994
C38_24 C 0.37970(13) 0.19692(10) 0.97793(13)
C39_24 C 0.62030(13) 0.22793(13) 0.94692(10)
H23_24 H 0.3733 0.2096 0.9820
H24_24 H 0.6267 0.2320 0.9596
C43_24 C 0.39254(12) 0.19629(10) 0.96063(11)
C44_24 C 0.60746(12) 0.21063(11) 0.94629(10)
H28_24 H 0.3942 0.2082 0.9520
H29_24 H 0.6058 0.2020 0.9582
C48_24 C 0.40287(9) 0.17792(9) 0.95629(9)
C49_24 C 0.59713(9) 0.20629(9) 0.92792(9)
C53_24 C 0.39920(8) 0.16069(8) 0.96884(8)
C54_24 C 0.60080(8) 0.21884(8) 0.91069(8)
H33_24 H 0.4067 0.1482 0.9660
H34_24 H 0.5933 0.2160 0.8982
C58_24 C 0.48483(10) 0.10922(10) 0.91521(10)
C59_24 C 0.51517(10) 0.16521(10) 0.85922(10)
H38_24 H 0.4949 0.0984 0.9141
H39_24 H 0.5051 0.1641 0.8484
C63_24 C 0.47252(12) 0.10990(11) 0.93286(12)
C64_24 C 0.52748(12) 0.18286(12) 0.85990(11)
H43_24 H 0.4739 0.0996 0.9434
H44_24 H 0.5261 0.1934 0.8496
C68_24 C 0.45803(10) 0.12594(10) 0.93503(11)
C69_24 C 0.54197(10) 0.18503(11) 0.87594(10)
H48_24 H 0.4496 0.1270 0.9472
H49_24 H 0.5504 0.1972 0.8770
C73_24 C 0.45621(9) 0.14036(9) 0.91896(9)
C74_24 C 0.54379(9) 0.16896(9) 0.89036(9)
C78_24 C 0.46916(8) 0.13846(8) 0.90194(8)
C79_24 C 0.53084(8) 0.15194(8) 0.88846(8)
H53_24 H 0.4681 0.1486 0.8912
H54_24 H 0.5319 0.1412 0.8986
C83_24 C 0.44079(8) 0.15748(8) 0.92005(8)
C84_24 C 0.55921(8) 0.17005(8) 0.90748(8)
C88_24 C 0.41620(8) 0.17541(9) 0.93765(9)
C89_24 C 0.58380(8) 0.18765(9) 0.92541(9)
C93_24 C 0.42465(8) 0.18478(9) 0.90522(9)
C94_24 C 0.57535(8) 0.15522(9) 0.93478(9)
C98_24 C 0.42032(9) 0.19772(10) 0.88666(10)
C99_24 C 0.57968(9) 0.13666(10) 0.94772(10)
C103_24 C 0.40403(8) 0.21197(9) 0.88696(9)
C104_24 C 0.59597(8) 0.13696(9) 0.96197(9)
H58_24 H 0.3959 0.2131 0.8993
H59_24 H 0.6041 0.1493 0.9631
C108_24 C 0.41050(12) 0.22222(12) 0.85342(13)
C109_24 C 0.58950(12) 0.10342(13) 0.97222(12)
H63_24 H 0.4069 0.2306 0.8417
H64_24 H 0.5931 0.0917 0.9806
C113_24 C 0.42691(15) 0.20877(14) 0.85179(16)
C114_24 C 0.57309(15) 0.10179(16) 0.95877(14)
H68_24 H 0.4349 0.2084 0.8393
H69_24 H 0.5651 0.0893 0.9584
C118_24 C 0.43206(14) 0.19561(12) 0.86821(14)
C119_24 C 0.56794(14) 0.11821(14) 0.94561(12)
H73_24 H 0.4430 0.1856 0.8670
H74_24 H 0.5570 0.1170 0.9356
C125_24 C 0.37871(9) 0.25068(12) 0.92481(12)
C126_24 C 0.37129(9) 0.25068(12) 0.82519(12)
C127_24 C 0.73305(12) 0.13763(10) 0.66746(11)
C128_24 C 0.66746(11) 0.01695(12) 0.61237(10)
H77_24 H 0.7434 0.1482 0.6663
H78_24 H 0.6663 0.0066 0.6018
C132_24 C 0.72181(13) 0.13661(12) 0.68525(12)
C133_24 C 0.68525(12) 0.02819(13) 0.61339(12)
H82_24 H 0.7244 0.1461 0.6964
H83_24 H 0.6964 0.0256 0.6039
C137_24 C 0.70637(12) 0.12150(11) 0.68705(12)
C138_24 C 0.68705(12) 0.04363(12) 0.62850(11)
H87_24 H 0.6984 0.1204 0.6995
H88_24 H 0.6995 0.0516 0.6296
C142_24 C 0.70282(10) 0.10813(9) 0.67050(9)
C143_24 C 0.67050(9) 0.04718(10) 0.64187(9)
C147_24 C 0.71543(9) 0.10997(8) 0.65293(8)
C148_24 C 0.65293(8) 0.03457(9) 0.64003(8)
H92_24 H 0.7133 0.1006 0.6417
H93_24 H 0.6417 0.0367 0.6494
C152_24 C 0.68667(10) 0.09173(9) 0.67150(9)
C153_24 C 0.67150(9) 0.06333(10) 0.65827(9)
N11_24 N 0.52337(6) 0.10442(7) 0.88629(7)
N13_24 N 0.39558(7) 0.11371(7) 0.97663(6)
N17_24 N 0.38569(7) 0.16058(7) 0.98475(7)
N23_24 N 0.48329(7) 0.12292(7) 0.89958(7)
N24_24 N 0.51671(7) 0.14958(7) 0.87292(7)
N31_24 N 0.42974(7) 0.15936(8) 0.93759(7)
N32_24 N 0.57026(7) 0.18759(7) 0.90936(8)
N36_24 N 0.43895(7) 0.16958(8) 0.90320(8)
N37_24 N 0.56105(7) 0.15320(8) 0.91958(8)
N41_24 N 0.41331(7) 0.18855(8) 0.92230(8)
N42_24 N 0.58669(7) 0.17230(8) 0.93855(8)
N46_24 N 0.39920(7) 0.22410(8) 0.87099(8)
N55_24 N 0.37765(7) 0.24880(8) 0.90742(8)
N56_24 N 0.37235(7) 0.24880(8) 0.84258(8)
N57_24 N 0.73043(7) 0.12451(7) 0.65127(7)
N58_24 N 0.65127(7) 0.01957(7) 0.62549(7)
N64_24 N 0.40127(7) 0.26957(7) 0.87451(7)
N65_24 N 0.34873(7) 0.26957(7) 0.87549(7)
N66_24 N 0.68667(8) 0.07750(8) 0.65657(7)
N67_24 N 0.65657(7) 0.06333(8) 0.67250(8)
Co5_16 Co 0.619761(13) 0.0000 0.369761(13)
S9_13 S 0.63014(4) 0.00374(4) 0.54995(7)
S10_13 S 0.61986(4) 0.00374(4) 0.70005(7)
C123_13 C 0.62871(9) 0.00068(12) 0.57519(12)
C124_13 C 0.62129(9) 0.00068(12) 0.67481(12)
S1_25 S 0.67338(3) 0.83505(3) 0.54043(3)
S2_13 S 0.75374(4) 0.88014(4) 0.45005(7)
C1_25 C 0.65680(9) 0.85202(9) 0.53104(8)
C2_25 C 0.67893(10) 0.87624(11) 0.48920(11)
H1_25 H 0.6794 0.8668 0.5006
C3_25 C 0.69692(10) 0.87970(13) 0.47793(13)
H2_25 H 0.7096 0.8733 0.4820
C4_25 C 0.69629(10) 0.89254(12) 0.46063(11)
H3_25 H 0.7082 0.8942 0.4520
C5_25 C 0.67792(9) 0.90287(9) 0.45629(9)
C6_25 C 0.66069(8) 0.89920(8) 0.46884(8)
H4_25 H 0.6482 0.9067 0.4660
C7_25 C 0.60922(10) 0.98483(10) 0.41521(10)
H5_25 H 0.5984 0.9949 0.4141
C8_25 C 0.60990(11) 0.97252(12) 0.43286(12)
H6_25 H 0.5996 0.9739 0.4434
C9_25 C 0.62594(10) 0.95803(10) 0.43503(11)
H7_25 H 0.6270 0.9496 0.4472
C10_25 C 0.64036(9) 0.95621(9) 0.41896(9)
C11_25 C 0.63846(8) 0.96916(8) 0.40194(8)
H8_25 H 0.6486 0.9681 0.3912
C12_25 C 0.65748(8) 0.94079(8) 0.42005(8)
C13_25 C 0.67541(9) 0.91620(8) 0.43765(9)
C14_25 C 0.68478(9) 0.92465(8) 0.40522(9)
C15_25 C 0.69772(10) 0.92032(9) 0.38666(10)
C16_25 C 0.71197(9) 0.90403(8) 0.38696(9)
H9_25 H 0.7131 0.8959 0.3993
C17_25 C 0.72222(12) 0.91050(12) 0.35342(13)
H10_25 H 0.7306 0.9069 0.3417
C18_25 C 0.70877(14) 0.92691(15) 0.35179(16)
H11_25 H 0.7084 0.9349 0.3393
C19_25 C 0.69561(12) 0.93206(14) 0.36821(14)
H12_25 H 0.6856 0.9430 0.3670
C20_13 C 0.75068(12) 0.87871(9) 0.42481(12)
N1_25 N 0.64558(7) 0.86371(7) 0.52337(6)
N2_25 N 0.66058(7) 0.88569(7) 0.48475(7)
N3_13 N 0.62292(7) 0.98329(7) 0.39958(7)
N4_25 N 0.65936(8) 0.92974(7) 0.43759(7)
N5_25 N 0.66958(8) 0.93895(7) 0.40320(8)
N6_25 N 0.68855(8) 0.91331(7) 0.42230(8)
N7_13 N 0.72410(8) 0.89920(7) 0.37099(8)
N8_13 N 0.74880(8) 0.87765(7) 0.40742(8)
Co5_17 Co 0.619761(13) 1.0000 0.369761(13)
Co6_6 Co 0.7500 0.869761(13) 0.630239(13)
Co7_16 Co 0.630239(13) 0.869761(13) 0.2500
S3_25 S 0.58505(3) 0.92338(3) 0.45957(3)
S8_13 S 0.75374(4) 0.86986(4) 0.29995(7)
S11_25 S 0.54995(7) 0.74626(4) 0.61986(4)
S12_25 S 0.70005(7) 0.74626(4) 0.63014(4)
C27_25 C 0.60202(9) 0.90680(9) 0.46896(8)
C32_13 C 0.62624(11) 0.92893(10) 0.51080(11)
C35_13 C 0.67893(10) 0.87376(11) 0.26080(11)
H17_13 H 0.6168 0.9294 0.4994
H20_13 H 0.6794 0.8832 0.2494
C37_13 C 0.62970(13) 0.94692(10) 0.52207(13)
C40_13 C 0.69692(10) 0.87030(13) 0.27207(13)
H22_13 H 0.6233 0.9596 0.5180
H25_13 H 0.7096 0.8767 0.2680
C42_13 C 0.64254(12) 0.94629(10) 0.53937(11)
C45_13 C 0.69629(10) 0.85746(12) 0.28937(11)
H27_13 H 0.6442 0.9582 0.5480
H30_13 H 0.7082 0.8558 0.2980
C47_13 C 0.65287(9) 0.92792(9) 0.54371(9)
C50_13 C 0.67792(9) 0.84713(9) 0.29371(9)
C52_13 C 0.64920(8) 0.91069(8) 0.53116(8)
C55_13 C 0.66069(8) 0.85080(8) 0.28116(8)
H32_13 H 0.6567 0.8982 0.5340
H35_13 H 0.6482 0.8433 0.2840
C57_13 C 0.73483(10) 0.85922(10) 0.58479(10)
C60_13 C 0.60922(10) 0.76517(10) 0.33479(10)
H37_13 H 0.7449 0.8484 0.5859
H40_13 H 0.5984 0.7551 0.3359
C62_13 C 0.72252(12) 0.85990(11) 0.56714(12)
C65_13 C 0.60990(11) 0.77748(12) 0.31714(12)
H42_13 H 0.7239 0.8496 0.5566
H45_13 H 0.5996 0.7761 0.3066
C67_13 C 0.70803(10) 0.87594(10) 0.56497(11)
C70_13 C 0.62594(10) 0.79197(10) 0.31497(11)
H47_13 H 0.6996 0.8770 0.5528
H50_13 H 0.6270 0.8004 0.3028
C72_13 C 0.70621(9) 0.89036(9) 0.58104(9)
C75_13 C 0.64036(9) 0.79379(9) 0.33104(9)
C77_13 C 0.71916(8) 0.88846(8) 0.59806(8)
C80_13 C 0.63846(8) 0.78084(8) 0.34806(8)
H52_13 H 0.7181 0.8986 0.6088
H55_13 H 0.6486 0.7819 0.3588
C82_13 C 0.69079(8) 0.90748(8) 0.57995(8)
C85_13 C 0.65748(8) 0.80921(8) 0.32995(8)
C87_13 C 0.66620(8) 0.92541(9) 0.56235(9)
C90_13 C 0.67541(9) 0.83380(8) 0.31235(9)
C92_13 C 0.67465(8) 0.93478(9) 0.59478(9)
C95_13 C 0.68478(9) 0.82535(8) 0.34478(9)
C97_13 C 0.67032(9) 0.94772(10) 0.61334(10)
C100_13 C 0.69772(10) 0.82968(9) 0.36334(10)
C102_13 C 0.65403(8) 0.96197(9) 0.61304(9)
C105_13 C 0.71197(9) 0.84597(8) 0.36304(9)
H57_13 H 0.6459 0.9631 0.6007
H60_13 H 0.7131 0.8541 0.3507
C107_13 C 0.66050(12) 0.97222(12) 0.64658(13)
C110_13 C 0.72222(12) 0.83950(12) 0.39658(13)
H62_13 H 0.6569 0.9806 0.6583
H65_13 H 0.7306 0.8431 0.4083
C112_13 C 0.67691(15) 0.95877(14) 0.64821(16)
C115_13 C 0.70877(14) 0.82309(15) 0.39821(16)
H67_13 H 0.6849 0.9584 0.6607
H70_13 H 0.7084 0.8151 0.4107
C117_13 C 0.68206(14) 0.94561(12) 0.63179(14)
C120_13 C 0.69561(12) 0.81794(14) 0.38179(14)
H72_13 H 0.6930 0.9356 0.6330
H75_13 H 0.6856 0.8070 0.3830
C122_13 C 0.75068(12) 0.87129(9) 0.32519(12)
C125_25 C 0.57519(12) 0.74932(12) 0.62129(9)
C126_25 C 0.67481(12) 0.74932(12) 0.62871(9)
N11_25 N 0.61371(7) 0.89558(7) 0.47663(6)
N16_13 N 0.63569(7) 0.91058(7) 0.51525(7)
N19_13 N 0.66058(7) 0.86431(7) 0.26525(7)
N22_5 N 0.73329(7) 0.87292(7) 0.60042(7)
N30_13 N 0.67974(7) 0.90936(8) 0.56241(7)
N33_13 N 0.65936(8) 0.82026(7) 0.31241(7)
N35_13 N 0.68895(7) 0.91958(8) 0.59680(8)
N38_13 N 0.66958(8) 0.81105(7) 0.34680(8)
N40_13 N 0.66331(7) 0.93855(8) 0.57770(8)
N43_13 N 0.68855(8) 0.83669(7) 0.32770(8)
N45_13 N 0.64920(7) 0.97410(8) 0.62901(8)
N48_13 N 0.72410(8) 0.85080(7) 0.37901(8)
N50_13 N 0.60080(7) 0.97410(8) 0.62099(8)
N51_13 N 0.62099(8) 0.77590(8) 0.64920(7)
N52_13 N 0.74880(8) 0.87235(7) 0.34258(8)
N53_13 N 0.62765(7) 0.99880(8) 0.59258(8)
N54_13 N 0.62235(7) 0.99880(8) 0.65742(8)
N55_25 N 0.59258(8) 0.75120(8) 0.62235(7)
N56_25 N 0.65742(8) 0.75120(8) 0.62765(7)
N64_25 N 0.62549(7) 0.73043(7) 0.59873(7)
N65_25 N 0.62451(7) 0.73043(7) 0.65127(7)
S11_26 S 0.70005(7) 0.00374(4) 0.11986(4)
S12_26 S 0.54995(7) 0.00374(4) 0.13014(4)
C125_26 C 0.67481(12) 0.00068(12) 0.12129(9)
C126_26 C 0.57519(12) 0.00068(12) 0.12871(9)
N64_26 N 0.62451(7) 0.01957(7) 0.09873(7)
N65_26 N 0.62549(7) 0.01957(7) 0.15127(7)
S1_26 S 0.57662(3) 0.91495(3) 0.04043(3)
C1_26 C 0.59320(9) 0.89798(9) 0.03104(8)
H1_26 H 0.5706 0.8832 0.0006
N1_26 N 0.60442(7) 0.88629(7) 0.02337(6)
Co6_7 Co 0.5000 0.880239(13) 0.130239(13)
S9_14 S 0.61986(4) 0.74626(4) 0.04995(7)
S10_14 S 0.63014(4) 0.74626(4) 0.20005(7)
C32_14 C 0.62376(11) 0.82107(10) 0.01080(11)
C37_14 C 0.62030(13) 0.80308(10) 0.02207(13)
H22_14 H 0.6267 0.7904 0.0180
C42_14 C 0.60746(12) 0.80371(10) 0.03937(11)
H27_14 H 0.6058 0.7918 0.0480
C47_14 C 0.59713(9) 0.82208(9) 0.04371(9)
C52_14 C 0.60080(8) 0.83931(8) 0.03116(8)
H32_14 H 0.5933 0.8518 0.0340
C57_14 C 0.51517(10) 0.89078(10) 0.08479(10)
H37_14 H 0.5051 0.9016 0.0859
C62_14 C 0.52748(12) 0.89010(11) 0.06714(12)
H42_14 H 0.5261 0.9004 0.0566
C67_14 C 0.54197(10) 0.87406(10) 0.06497(11)
H47_14 H 0.5504 0.8730 0.0528
C72_14 C 0.54379(9) 0.85964(9) 0.08104(9)
C77_14 C 0.53084(8) 0.86154(8) 0.09806(8)
H52_14 H 0.5319 0.8514 0.1088
C82_14 C 0.55921(8) 0.84252(8) 0.07995(8)
C87_14 C 0.58380(8) 0.82459(9) 0.06235(9)
C92_14 C 0.57535(8) 0.81522(9) 0.09478(9)
C97_14 C 0.57968(9) 0.80228(10) 0.11334(10)
C102_14 C 0.59597(8) 0.78803(9) 0.11304(9)
H57_14 H 0.6041 0.7869 0.1007
C107_14 C 0.58950(12) 0.77778(12) 0.14658(13)
H62_14 H 0.5931 0.7694 0.1583
C112_14 C 0.57309(15) 0.79123(14) 0.14821(16)
H67_14 H 0.5651 0.7916 0.1607
C117_14 C 0.56794(14) 0.80439(12) 0.13179(14)
H72_14 H 0.5570 0.8144 0.1330
C123_14 C 0.62129(9) 0.74932(12) 0.07519(12)
C124_14 C 0.62871(9) 0.74932(12) 0.17481(12)
N16_14 N 0.61431(7) 0.83942(7) 0.01525(7)
N22_6 N 0.51671(7) 0.87708(7) 0.10042(7)
N30_14 N 0.57026(7) 0.84064(8) 0.06241(7)
N35_14 N 0.56105(7) 0.83042(8) 0.09680(8)
N40_14 N 0.58669(7) 0.81145(8) 0.07770(8)
N45_14 N 0.60080(7) 0.77590(8) 0.12901(8)
N50_14 N 0.64920(7) 0.77590(8) 0.12099(8)
N51_14 N 0.62901(8) 0.97410(8) 0.14920(7)
N53_14 N 0.62235(7) 0.75120(8) 0.09258(8)
N54_14 N 0.62765(7) 0.75120(8) 0.15742(8)
N55_26 N 0.65742(8) 0.99880(8) 0.12235(7)
N56_26 N 0.59258(8) 0.99880(8) 0.12765(7)
S2_14 S 0.49626(4) 0.86986(4) 0.95005(7)
C2_26 C 0.57107(10) 0.87376(11) 0.98920(11)
C3_26 C 0.55308(10) 0.87030(13) 0.97793(13)
H2_26 H 0.5404 0.8767 0.9820
C4_26 C 0.55371(10) 0.85746(12) 0.96063(11)
H3_26 H 0.5418 0.8558 0.9520
C5_26 C 0.57208(9) 0.84713(9) 0.95629(9)
C6_26 C 0.58931(8) 0.85080(8) 0.96884(8)
H4_26 H 0.6018 0.8433 0.9660
C7_26 C 0.64078(10) 0.76517(10) 0.91521(10)
H5_26 H 0.6516 0.7551 0.9141
C8_26 C 0.64010(11) 0.77748(12) 0.93286(12)
H6_26 H 0.6504 0.7761 0.9434
C9_26 C 0.62406(10) 0.79197(10) 0.93503(11)
H7_26 H 0.6230 0.8004 0.9472
C10_26 C 0.60964(9) 0.79379(9) 0.91896(9)
C11_26 C 0.61154(8) 0.78084(8) 0.90194(8)
H8_26 H 0.6014 0.7819 0.8912
C12_26 C 0.59252(8) 0.80921(8) 0.92005(8)
C13_26 C 0.57459(9) 0.83380(8) 0.93765(9)
C14_26 C 0.56522(9) 0.82535(8) 0.90522(9)
C15_26 C 0.55228(10) 0.82968(9) 0.88666(10)
C16_26 C 0.53803(9) 0.84597(8) 0.88696(9)
H9_26 H 0.5369 0.8541 0.8993
C17_26 C 0.52778(12) 0.83950(12) 0.85342(13)
H10_26 H 0.5194 0.8431 0.8417
C18_26 C 0.54123(14) 0.82309(15) 0.85179(16)
H11_26 H 0.5416 0.8151 0.8393
C19_26 C 0.55439(12) 0.81794(14) 0.86821(14)
H12_26 H 0.5644 0.8070 0.8670
C20_14 C 0.49932(12) 0.87129(9) 0.92481(12)
N2_26 N 0.58942(7) 0.86431(7) 0.98475(7)
N3_14 N 0.62708(7) 0.76671(7) 0.89958(7)
N4_26 N 0.59064(8) 0.82026(7) 0.93759(7)
N5_26 N 0.58042(8) 0.81105(7) 0.90320(8)
N6_26 N 0.56145(8) 0.83669(7) 0.92230(8)
N7_14 N 0.52590(8) 0.85080(7) 0.87099(8)
N8_14 N 0.50120(8) 0.87235(7) 0.90742(8)
Co5_18 Co 0.630239(13) 0.7500 0.869761(13)
Co7_17 Co 0.619761(13) 0.880239(13) 0.7500
S3_26 S 0.66495(3) 0.82662(3) 0.95957(3)
S8_14 S 0.49626(4) 0.88014(4) 0.79995(7)
C27_26 C 0.64798(9) 0.84320(9) 0.96896(8)
C35_14 C 0.57107(10) 0.87624(11) 0.76080(11)
H17_14 H 0.6332 0.8206 0.9994
H20_14 H 0.5706 0.8668 0.7494
C40_14 C 0.55308(10) 0.87970(13) 0.77207(13)
H25_14 H 0.5404 0.8733 0.7680
C45_14 C 0.55371(10) 0.89254(12) 0.78937(11)
H30_14 H 0.5418 0.8942 0.7980
C50_14 C 0.57208(9) 0.90287(9) 0.79371(9)
C55_14 C 0.58931(8) 0.89920(8) 0.78116(8)
H35_14 H 0.6018 0.9067 0.7840
C60_14 C 0.64078(10) 0.98483(10) 0.83479(10)
H40_14 H 0.6516 0.9949 0.8359
C65_14 C 0.64010(11) 0.97252(12) 0.81714(12)
H45_14 H 0.6504 0.9739 0.8066
C70_14 C 0.62406(10) 0.95803(10) 0.81497(11)
H50_14 H 0.6230 0.9496 0.8028
C75_14 C 0.60964(9) 0.95621(9) 0.83104(9)
C80_14 C 0.61154(8) 0.96916(8) 0.84806(8)
H55_14 H 0.6014 0.9681 0.8588
C85_14 C 0.59252(8) 0.94079(8) 0.82995(8)
C90_14 C 0.57459(9) 0.91620(8) 0.81235(9)
C95_14 C 0.56522(9) 0.92465(8) 0.84478(9)
C100_14 C 0.55228(10) 0.92032(9) 0.86334(10)
C105_14 C 0.53803(9) 0.90403(8) 0.86304(9)
H60_14 H 0.5369 0.8959 0.8507
C110_14 C 0.52778(12) 0.91050(12) 0.89658(13)
H65_14 H 0.5194 0.9069 0.9083
C115_14 C 0.54123(14) 0.92691(15) 0.89821(16)
H70_14 H 0.5416 0.9349 0.9107
C120_14 C 0.55439(12) 0.93206(14) 0.88179(14)
H75_14 H 0.5644 0.9430 0.8830
C122_14 C 0.49932(12) 0.87871(9) 0.82519(12)
N11_26 N 0.63629(7) 0.85442(7) 0.97663(6)
N19_14 N 0.58942(7) 0.88569(7) 0.76525(7)
N33_14 N 0.59064(8) 0.92974(7) 0.81241(7)
N38_14 N 0.58042(8) 0.93895(7) 0.84680(8)
N43_14 N 0.56145(8) 0.91331(7) 0.82770(8)
N48_14 N 0.52590(8) 0.89920(7) 0.87901(8)
N52_14 N 0.50120(8) 0.87765(7) 0.84258(8)
Co7_18 Co 0.119761(13) 0.369761(13) 0.0000
H20_15 H 0.0706 0.3832 0.0006
S1_27 S 0.07662(3) 0.33505(3) 0.70957(3)
C1_27 C 0.09320(9) 0.35202(9) 0.71896(8)
C2_27 C 0.07107(10) 0.37624(11) 0.76080(11)
H1_27 H 0.0706 0.3668 0.7494
C3_27 C 0.05308(10) 0.37970(13) 0.77207(13)
H2_27 H 0.0404 0.3733 0.7680
C4_27 C 0.05371(10) 0.39254(12) 0.78937(11)
H3_27 H 0.0418 0.3942 0.7980
C5_27 C 0.07208(9) 0.40287(9) 0.79371(9)
C6_27 C 0.08931(8) 0.39920(8) 0.78116(8)
H4_27 H 0.1018 0.4067 0.7840
C7_27 C 0.14078(10) 0.48483(10) 0.83479(10)
H5_27 H 0.1516 0.4949 0.8359
C8_27 C 0.14010(11) 0.47252(12) 0.81714(12)
H6_27 H 0.1504 0.4739 0.8066
C9_27 C 0.12406(10) 0.45803(10) 0.81497(11)
H7_27 H 0.1230 0.4496 0.8028
C10_27 C 0.10964(9) 0.45621(9) 0.83104(9)
C11_27 C 0.11154(8) 0.46916(8) 0.84806(8)
H8_27 H 0.1014 0.4681 0.8588
C12_27 C 0.09252(8) 0.44079(8) 0.82995(8)
C13_27 C 0.07459(9) 0.41620(8) 0.81235(9)
C14_27 C 0.06522(9) 0.42465(8) 0.84478(9)
C15_27 C 0.05228(10) 0.42032(9) 0.86334(10)
C16_27 C 0.03803(9) 0.40403(8) 0.86304(9)
H9_27 H 0.0369 0.3959 0.8507
C17_27 C 0.02778(12) 0.41050(12) 0.89658(13)
H10_27 H 0.0194 0.4069 0.9083
C18_27 C 0.04123(14) 0.42691(15) 0.89821(16)
H11_27 H 0.0416 0.4349 0.9107
C19_27 C 0.05439(12) 0.43206(14) 0.88179(14)
H12_27 H 0.0644 0.4430 0.8830
N1_27 N 0.10442(7) 0.36371(7) 0.72663(6)
N2_27 N 0.08942(7) 0.38569(7) 0.76525(7)
N3_15 N 0.12708(7) 0.48329(7) 0.85042(7)
N4_27 N 0.09064(8) 0.42974(7) 0.81241(7)
N5_27 N 0.08042(8) 0.43895(7) 0.84680(8)
N6_27 N 0.06145(8) 0.41331(7) 0.82770(8)
N7_15 N 0.02590(8) 0.39920(7) 0.87901(8)
N8_15 N 0.00120(8) 0.37765(7) 0.84258(8)
Co5_19 Co 0.130239(13) 0.5000 0.880239(13)
Co6_8 Co -0.0000 0.369761(13) 0.619761(13)
Co7_19 Co 0.119761(13) 0.369761(13) 1.0000
S3_27 S 0.16495(3) 0.42338(3) 0.79043(3)
S9_15 S 0.11986(4) 0.50374(4) 0.70005(7)
S10_15 S 0.13014(4) 0.50374(4) 0.54995(7)
S11_27 S 0.20005(7) 0.24626(4) 0.63014(4)
S12_27 S 0.04995(7) 0.24626(4) 0.61986(4)
C27_27 C 0.14798(9) 0.40680(9) 0.78104(8)
C32_15 C 0.12376(11) 0.42893(10) 0.73920(11)
C35_15 C 0.07107(10) 0.37376(11) 0.98920(11)
H17_15 H 0.1332 0.4294 0.7506
C37_15 C 0.12030(13) 0.44692(10) 0.72793(13)
C40_15 C 0.05308(10) 0.37030(13) 0.97793(13)
H22_15 H 0.1267 0.4596 0.7320
H25_15 H 0.0404 0.3767 0.9820
C42_15 C 0.10746(12) 0.44629(10) 0.71063(11)
C45_15 C 0.05371(10) 0.35746(12) 0.96063(11)
H27_15 H 0.1058 0.4582 0.7020
H30_15 H 0.0418 0.3558 0.9520
C47_15 C 0.09713(9) 0.42792(9) 0.70629(9)
C50_15 C 0.07208(9) 0.34713(9) 0.95629(9)
C52_15 C 0.10080(8) 0.41069(8) 0.71884(8)
C55_15 C 0.08931(8) 0.35080(8) 0.96884(8)
H32_15 H 0.0933 0.3982 0.7160
H35_15 H 0.1018 0.3433 0.9660
C57_15 C 0.01517(10) 0.35922(10) 0.66521(10)
C60_15 C 0.14078(10) 0.26517(10) 0.91521(10)
H37_15 H 0.0051 0.3484 0.6641
H40_15 H 0.1516 0.2551 0.9141
C62_15 C 0.02748(12) 0.35990(11) 0.68286(12)
C65_15 C 0.14010(11) 0.27748(12) 0.93286(12)
H42_15 H 0.0261 0.3496 0.6934
H45_15 H 0.1504 0.2761 0.9434
C67_15 C 0.04197(10) 0.37594(10) 0.68503(11)
C70_15 C 0.12406(10) 0.29197(10) 0.93503(11)
H47_15 H 0.0504 0.3770 0.6972
H50_15 H 0.1230 0.3004 0.9472
C72_15 C 0.04379(9) 0.39036(9) 0.66896(9)
C75_15 C 0.10964(9) 0.29379(9) 0.91896(9)
C77_15 C 0.03084(8) 0.38846(8) 0.65194(8)
C80_15 C 0.11154(8) 0.28084(8) 0.90194(8)
H52_15 H 0.0319 0.3986 0.6412
H55_15 H 0.1014 0.2819 0.8912
C82_15 C 0.05921(8) 0.40748(8) 0.67005(8)
C85_15 C 0.09252(8) 0.30921(8) 0.92005(8)
C87_15 C 0.08380(8) 0.42541(9) 0.68765(9)
C90_15 C 0.07459(9) 0.33380(8) 0.93765(9)
C92_15 C 0.07535(8) 0.43478(9) 0.65522(9)
C95_15 C 0.06522(9) 0.32535(8) 0.90522(9)
C97_15 C 0.07968(9) 0.44772(10) 0.63666(10)
C100_15 C 0.05228(10) 0.32968(9) 0.88666(10)
C102_15 C 0.09597(8) 0.46197(9) 0.63696(9)
C105_15 C 0.03803(9) 0.34597(8) 0.88696(9)
H57_15 H 0.1041 0.4631 0.6493
H60_15 H 0.0369 0.3541 0.8993
C107_15 C 0.08950(12) 0.47222(12) 0.60342(13)
C110_15 C 0.02778(12) 0.33950(12) 0.85342(13)
H62_15 H 0.0931 0.4806 0.5917
H65_15 H 0.0194 0.3431 0.8417
C112_15 C 0.07309(15) 0.45877(14) 0.60179(16)
C115_15 C 0.04123(14) 0.32309(15) 0.85179(16)
H67_15 H 0.0651 0.4584 0.5893
H70_15 H 0.0416 0.3151 0.8393
C117_15 C 0.06794(14) 0.44561(12) 0.61821(14)
C120_15 C 0.05439(12) 0.31794(14) 0.86821(14)
H72_15 H 0.0570 0.4356 0.6170
H75_15 H 0.0644 0.3070 0.8670
C123_15 C 0.12129(9) 0.50068(12) 0.67481(12)
C124_15 C 0.12871(9) 0.50068(12) 0.57519(12)
C125_27 C 0.17481(12) 0.24932(12) 0.62871(9)
C126_27 C 0.07519(12) 0.24932(12) 0.62129(9)
N11_27 N 0.13629(7) 0.39558(7) 0.77337(6)
N16_15 N 0.11431(7) 0.41058(7) 0.73475(7)
N19_15 N 0.08942(7) 0.36431(7) 0.98475(7)
N22_7 N 0.01671(7) 0.37292(7) 0.64958(7)
N30_15 N 0.07026(7) 0.40936(8) 0.68759(7)
N33_15 N 0.09064(8) 0.32026(7) 0.93759(7)
N35_15 N 0.06105(7) 0.41958(8) 0.65320(8)
N38_15 N 0.08042(8) 0.31105(7) 0.90320(8)
N40_15 N 0.08669(7) 0.43855(8) 0.67230(8)
N43_15 N 0.06145(8) 0.33669(7) 0.92230(8)
N45_15 N 0.10080(7) 0.47410(8) 0.62099(8)
N48_15 N 0.02590(8) 0.35080(7) 0.87099(8)
N50_15 N 0.14920(7) 0.47410(8) 0.62901(8)
N51_15 N 0.12901(8) 0.27590(8) 0.60080(7)
N52_15 N 0.00120(8) 0.37235(7) 0.90742(8)
N53_15 N 0.12235(7) 0.49880(8) 0.65742(8)
N54_15 N 0.12765(7) 0.49880(8) 0.59258(8)
N55_27 N 0.15742(8) 0.25120(8) 0.62765(7)
N56_27 N 0.09258(8) 0.25120(8) 0.62235(7)
N64_27 N 0.12451(7) 0.23043(7) 0.65127(7)
N65_27 N 0.12549(7) 0.23043(7) 0.59873(7)
S2_15 S 0.99626(4) 0.38014(4) 0.79995(7)
C20_15 C 0.99932(12) 0.37871(9) 0.82519(12)
Co6_9 Co 1.0000 0.369761(13) 0.619761(13)
S8_15 S 0.99626(4) 0.36986(4) 0.95005(7)
C122_15 C 0.99932(12) 0.37129(9) 0.92481(12)
S1_28 S 0.17338(3) 0.41495(3) 0.20957(3)
S2_16 S 0.25374(4) 0.36986(4) 0.29995(7)
C1_28 C 0.15680(9) 0.39798(9) 0.21896(8)
C2_28 C 0.17893(10) 0.37376(11) 0.26080(11)
H1_28 H 0.1794 0.3832 0.2494
C3_28 C 0.19692(10) 0.37030(13) 0.27207(13)
H2_28 H 0.2096 0.3767 0.2680
C4_28 C 0.19629(10) 0.35746(12) 0.28937(11)
H3_28 H 0.2082 0.3558 0.2980
C5_28 C 0.17792(9) 0.34713(9) 0.29371(9)
C6_28 C 0.16069(8) 0.35080(8) 0.28116(8)
H4_28 H 0.1482 0.3433 0.2840
C7_28 C 0.10922(10) 0.26517(10) 0.33479(10)
H5_28 H 0.0984 0.2551 0.3359
C8_28 C 0.10990(11) 0.27748(12) 0.31714(12)
H6_28 H 0.0996 0.2761 0.3066
C9_28 C 0.12594(10) 0.29197(10) 0.31497(11)
H7_28 H 0.1270 0.3004 0.3028
C10_28 C 0.14036(9) 0.29379(9) 0.33104(9)
C11_28 C 0.13846(8) 0.28084(8) 0.34806(8)
H8_28 H 0.1486 0.2819 0.3588
C12_28 C 0.15748(8) 0.30921(8) 0.32995(8)
C13_28 C 0.17541(9) 0.33380(8) 0.31235(9)
C14_28 C 0.18478(9) 0.32535(8) 0.34478(9)
C15_28 C 0.19772(10) 0.32968(9) 0.36334(10)
C16_28 C 0.21197(9) 0.34597(8) 0.36304(9)
H9_28 H 0.2131 0.3541 0.3507
C17_28 C 0.22222(12) 0.33950(12) 0.39658(13)
H10_28 H 0.2306 0.3431 0.4083
C18_28 C 0.20877(14) 0.32309(15) 0.39821(16)
H11_28 H 0.2084 0.3151 0.4107
C19_28 C 0.19561(12) 0.31794(14) 0.38179(14)
H12_28 H 0.1856 0.3070 0.3830
C20_16 C 0.25068(12) 0.37129(9) 0.32519(12)
N1_28 N 0.14558(7) 0.38629(7) 0.22663(6)
N2_28 N 0.16058(7) 0.36431(7) 0.26525(7)
N3_16 N 0.12292(7) 0.26671(7) 0.35042(7)
N4_28 N 0.15936(8) 0.32026(7) 0.31241(7)
N5_28 N 0.16958(8) 0.31105(7) 0.34680(8)
N6_28 N 0.18855(8) 0.33669(7) 0.32770(8)
N7_16 N 0.22410(8) 0.35080(7) 0.37901(8)
N8_16 N 0.24880(8) 0.37235(7) 0.34258(8)
Co5_20 Co 0.119761(13) 0.2500 0.380239(13)
Co6_10 Co 0.2500 0.380239(13) 0.119761(13)
Co7_20 Co 0.130239(13) 0.380239(13) 0.5000
S3_28 S 0.08505(3) 0.32662(3) 0.29043(3)
S8_16 S 0.25374(4) 0.38014(4) 0.45005(7)
S9_16 S 0.13014(4) 0.24626(4) 0.20005(7)
S10_16 S 0.11986(4) 0.24626(4) 0.04995(7)
S11_28 S 0.04995(7) 0.50374(4) 0.13014(4)
S12_28 S 0.20005(7) 0.50374(4) 0.11986(4)
C27_28 C 0.10202(9) 0.34320(9) 0.28104(8)
C32_16 C 0.12624(11) 0.32107(10) 0.23920(11)
C35_16 C 0.17893(10) 0.37624(11) 0.48920(11)
H17_16 H 0.1168 0.3206 0.2506
H20_16 H 0.1794 0.3668 0.5006
C37_16 C 0.12970(13) 0.30308(10) 0.22793(13)
C40_16 C 0.19692(10) 0.37970(13) 0.47793(13)
H22_16 H 0.1233 0.2904 0.2320
H25_16 H 0.2096 0.3733 0.4820
C42_16 C 0.14254(12) 0.30371(10) 0.21063(11)
C45_16 C 0.19629(10) 0.39254(12) 0.46063(11)
H27_16 H 0.1442 0.2918 0.2020
H30_16 H 0.2082 0.3942 0.4520
C47_16 C 0.15287(9) 0.32208(9) 0.20629(9)
C50_16 C 0.17792(9) 0.40287(9) 0.45629(9)
C52_16 C 0.14920(8) 0.33931(8) 0.21884(8)
C55_16 C 0.16069(8) 0.39920(8) 0.46884(8)
H32_16 H 0.1567 0.3518 0.2160
H35_16 H 0.1482 0.4067 0.4660
C57_16 C 0.23483(10) 0.39078(10) 0.16521(10)
C60_16 C 0.10922(10) 0.48483(10) 0.41521(10)
H37_16 H 0.2449 0.4016 0.1641
H40_16 H 0.0984 0.4949 0.4141
C62_16 C 0.22252(12) 0.39010(11) 0.18286(12)
C65_16 C 0.10990(11) 0.47252(12) 0.43286(12)
H42_16 H 0.2239 0.4004 0.1934
H45_16 H 0.0996 0.4739 0.4434
C67_16 C 0.20803(10) 0.37406(10) 0.18503(11)
C70_16 C 0.12594(10) 0.45803(10) 0.43503(11)
H47_16 H 0.1996 0.3730 0.1972
H50_16 H 0.1270 0.4496 0.4472
C72_16 C 0.20621(9) 0.35964(9) 0.16896(9)
C75_16 C 0.14036(9) 0.45621(9) 0.41896(9)
C77_16 C 0.21916(8) 0.36154(8) 0.15194(8)
C80_16 C 0.13846(8) 0.46916(8) 0.40194(8)
H52_16 H 0.2181 0.3514 0.1412
H55_16 H 0.1486 0.4681 0.3912
C82_16 C 0.19079(8) 0.34252(8) 0.17005(8)
C85_16 C 0.15748(8) 0.44079(8) 0.42005(8)
C87_16 C 0.16620(8) 0.32459(9) 0.18765(9)
C90_16 C 0.17541(9) 0.41620(8) 0.43765(9)
C92_16 C 0.17465(8) 0.31522(9) 0.15522(9)
C95_16 C 0.18478(9) 0.42465(8) 0.40522(9)
C97_16 C 0.17032(9) 0.30228(10) 0.13666(10)
C100_16 C 0.19772(10) 0.42032(9) 0.38666(10)
C102_16 C 0.15403(8) 0.28803(9) 0.13696(9)
C105_16 C 0.21197(9) 0.40403(8) 0.38696(9)
H57_16 H 0.1459 0.2869 0.1493
H60_16 H 0.2131 0.3959 0.3993
C107_16 C 0.16050(12) 0.27778(12) 0.10342(13)
C110_16 C 0.22222(12) 0.41050(12) 0.35342(13)
H62_16 H 0.1569 0.2694 0.0917
H65_16 H 0.2306 0.4069 0.3417
C112_16 C 0.17691(15) 0.29123(14) 0.10179(16)
C115_16 C 0.20877(14) 0.42691(15) 0.35179(16)
H67_16 H 0.1849 0.2916 0.0893
H70_16 H 0.2084 0.4349 0.3393
C117_16 C 0.18206(14) 0.30439(12) 0.11821(14)
C120_16 C 0.19561(12) 0.43206(14) 0.36821(14)
H72_16 H 0.1930 0.3144 0.1170
H75_16 H 0.1856 0.4430 0.3670
C122_16 C 0.25068(12) 0.37871(9) 0.42481(12)
C123_16 C 0.12871(9) 0.24932(12) 0.17481(12)
C124_16 C 0.12129(9) 0.24932(12) 0.07519(12)
C125_28 C 0.07519(12) 0.50068(12) 0.12871(9)
C126_28 C 0.17481(12) 0.50068(12) 0.12129(9)
N11_28 N 0.11371(7) 0.35442(7) 0.27337(6)
N16_16 N 0.13569(7) 0.33942(7) 0.23475(7)
N19_16 N 0.16058(7) 0.38569(7) 0.48475(7)
N22_8 N 0.23329(7) 0.37708(7) 0.14958(7)
N30_16 N 0.17974(7) 0.34064(8) 0.18759(7)
N33_16 N 0.15936(8) 0.42974(7) 0.43759(7)
N35_16 N 0.18895(7) 0.33042(8) 0.15320(8)
N38_16 N 0.16958(8) 0.43895(7) 0.40320(8)
N40_16 N 0.16331(7) 0.31145(8) 0.17230(8)
N43_16 N 0.18855(8) 0.41331(7) 0.42230(8)
N45_16 N 0.14920(7) 0.27590(8) 0.12099(8)
N48_16 N 0.22410(8) 0.39920(7) 0.37099(8)
N50_16 N 0.10080(7) 0.27590(8) 0.12901(8)
N51_16 N 0.12099(8) 0.47410(8) 0.10080(7)
N52_16 N 0.24880(8) 0.37765(7) 0.40742(8)
N53_16 N 0.12765(7) 0.25120(8) 0.15742(8)
N54_16 N 0.12235(7) 0.25120(8) 0.09258(8)
N55_28 N 0.09258(8) 0.49880(8) 0.12765(7)
N56_28 N 0.15742(8) 0.49880(8) 0.12235(7)
N64_28 N 0.12549(7) 0.51957(7) 0.15127(7)
N65_28 N 0.12451(7) 0.51957(7) 0.09873(7)
Co1_16 Co 0.380239(13) 0.5000 0.130239(13)
S1_29 S 0.33505(3) 0.54043(3) 0.17338(3)
S2_17 S 0.38014(4) 0.45005(7) 0.25374(4)
C1_29 C 0.35202(9) 0.53104(8) 0.15680(9)
C2_29 C 0.37624(11) 0.48920(11) 0.17893(10)
H1_29 H 0.3668 0.5006 0.1794
C3_29 C 0.37970(13) 0.47793(13) 0.19692(10)
H2_29 H 0.3733 0.4820 0.2096
C4_29 C 0.39254(12) 0.46063(11) 0.19629(10)
H3_29 H 0.3942 0.4520 0.2082
C5_29 C 0.40287(9) 0.45629(9) 0.17792(9)
C6_29 C 0.39920(8) 0.46884(8) 0.16069(8)
H4_29 H 0.4067 0.4660 0.1482
C7_29 C 0.48483(10) 0.41521(10) 0.10922(10)
H5_29 H 0.4949 0.4141 0.0984
C8_29 C 0.47252(12) 0.43286(12) 0.10990(11)
H6_29 H 0.4739 0.4434 0.0996
C9_29 C 0.45803(10) 0.43503(11) 0.12594(10)
H7_29 H 0.4496 0.4472 0.1270
C10_29 C 0.45621(9) 0.41896(9) 0.14036(9)
C11_29 C 0.46916(8) 0.40194(8) 0.13846(8)
H8_29 H 0.4681 0.3912 0.1486
C12_29 C 0.44079(8) 0.42005(8) 0.15748(8)
C13_29 C 0.41620(8) 0.43765(9) 0.17541(9)
C14_29 C 0.42465(8) 0.40522(9) 0.18478(9)
C15_29 C 0.42032(9) 0.38666(10) 0.19772(10)
C16_29 C 0.40403(8) 0.38696(9) 0.21197(9)
H9_29 H 0.3959 0.3993 0.2131
C17_29 C 0.41050(12) 0.35342(13) 0.22222(12)
H10_29 H 0.4069 0.3417 0.2306
C18_29 C 0.42691(15) 0.35179(16) 0.20877(14)
H11_29 H 0.4349 0.3393 0.2084
C19_29 C 0.43206(14) 0.36821(14) 0.19561(12)
H12_29 H 0.4430 0.3670 0.1856
C20_17 C 0.37871(9) 0.42481(12) 0.25068(12)
N1_29 N 0.36371(7) 0.52337(6) 0.14558(7)
N2_29 N 0.38569(7) 0.48475(7) 0.16058(7)
N4_29 N 0.42974(7) 0.43759(7) 0.15936(8)
N5_29 N 0.43895(7) 0.40320(8) 0.16958(8)
N6_29 N 0.41331(7) 0.42230(8) 0.18855(8)
N7_17 N 0.39920(7) 0.37099(8) 0.22410(8)
N8_17 N 0.37765(7) 0.40742(8) 0.24880(8)
Co3_16 Co 0.369761(13) 0.619761(13) 0.0000
S3_29 S 0.42338(3) 0.45957(3) 0.08505(3)
S5_25 S 0.41495(3) 0.57662(3) 0.04043(3)
S6_13 S 0.20957(3) 0.33505(3) 0.07662(3)
S7_13 S 0.29043(3) 0.42338(3) 0.16495(3)
S8_17 S 0.36986(4) 0.29995(7) 0.25374(4)
S9_17 S 0.50374(4) 0.54995(7) 0.13014(4)
S10_17 S 0.50374(4) 0.70005(7) 0.11986(4)
S11_29 S 0.24626(4) 0.61986(4) 0.04995(7)
S12_29 S 0.24626(4) 0.63014(4) 0.20005(7)
C27_29 C 0.40680(9) 0.46896(8) 0.10202(9)
C29_25 C 0.39798(9) 0.59320(9) 0.03104(8)
C30_13 C 0.21896(8) 0.35202(9) 0.09320(9)
C31_13 C 0.28104(8) 0.40680(9) 0.14798(9)
C32_17 C 0.42893(10) 0.51080(11) 0.12624(11)
C33_25 C 0.32107(10) 0.62376(11) 0.01080(11)
C34_25 C 0.26080(11) 0.37624(11) 0.07107(10)
C35_17 C 0.37376(11) 0.26080(11) 0.17893(10)
H17_17 H 0.4294 0.4994 0.1168
H19_25 H 0.2494 0.3668 0.0706
H20_17 H 0.3832 0.2494 0.1794
H21_25 H 0.3832 0.5706 0.0006
C37_17 C 0.44692(10) 0.52207(13) 0.12970(13)
C38_25 C 0.30308(10) 0.62030(13) 0.02207(13)
C39_25 C 0.27207(13) 0.37970(13) 0.05308(10)
C40_17 C 0.37030(13) 0.27207(13) 0.19692(10)
H22_17 H 0.4596 0.5180 0.1233
H23_25 H 0.2904 0.6267 0.0180
H24_25 H 0.2680 0.3733 0.0404
H25_17 H 0.3767 0.2680 0.2096
C42_17 C 0.44629(10) 0.53937(11) 0.14254(12)
C43_25 C 0.30371(10) 0.60746(12) 0.03937(11)
C44_25 C 0.28937(11) 0.39254(12) 0.05371(10)
C45_17 C 0.35746(12) 0.28937(11) 0.19629(10)
H27_17 H 0.4582 0.5480 0.1442
H28_25 H 0.2918 0.6058 0.0480
H29_25 H 0.2980 0.3942 0.0418
H30_17 H 0.3558 0.2980 0.2082
C47_17 C 0.42792(9) 0.54371(9) 0.15287(9)
C48_25 C 0.32208(9) 0.59713(9) 0.04371(9)
C49_25 C 0.29371(9) 0.40287(9) 0.07208(9)
C50_17 C 0.34713(9) 0.29371(9) 0.17792(9)
C52_17 C 0.41069(8) 0.53116(8) 0.14920(8)
C53_25 C 0.33931(8) 0.60080(8) 0.03116(8)
C54_25 C 0.28116(8) 0.39920(8) 0.08931(8)
C55_17 C 0.35080(8) 0.28116(8) 0.16069(8)
H32_17 H 0.3982 0.5340 0.1567
H33_25 H 0.3518 0.5933 0.0340
H34_25 H 0.2840 0.4067 0.1018
H35_17 H 0.3433 0.2840 0.1482
C57_17 C 0.35922(10) 0.58479(10) 0.23483(10)
C58_25 C 0.39078(10) 0.51517(10) 0.08479(10)
C59_25 C 0.33479(10) 0.48483(10) 0.14078(10)
C60_17 C 0.26517(10) 0.33479(10) 0.10922(10)
H37_17 H 0.3484 0.5859 0.2449
H38_25 H 0.4016 0.5051 0.0859
H39_25 H 0.3359 0.4949 0.1516
H40_17 H 0.2551 0.3359 0.0984
C62_17 C 0.35990(11) 0.56714(12) 0.22252(12)
C63_25 C 0.39010(11) 0.52748(12) 0.06714(12)
C64_25 C 0.31714(12) 0.47252(12) 0.14010(11)
C65_17 C 0.27748(12) 0.31714(12) 0.10990(11)
H42_17 H 0.3496 0.5566 0.2239
H43_25 H 0.4004 0.5261 0.0566
H44_25 H 0.3066 0.4739 0.1504
H45_17 H 0.2761 0.3066 0.0996
C67_17 C 0.37594(10) 0.56497(11) 0.20803(10)
C68_25 C 0.37406(10) 0.54197(10) 0.06497(11)
C69_25 C 0.31497(11) 0.45803(10) 0.12406(10)
C70_17 C 0.29197(10) 0.31497(11) 0.12594(10)
H47_17 H 0.3770 0.5528 0.1996
H48_25 H 0.3730 0.5504 0.0528
H49_25 H 0.3028 0.4496 0.1230
H50_17 H 0.3004 0.3028 0.1270
C72_17 C 0.39036(9) 0.58104(9) 0.20621(9)
C73_25 C 0.35964(9) 0.54379(9) 0.08104(9)
C74_25 C 0.33104(9) 0.45621(9) 0.10964(9)
C75_17 C 0.29379(9) 0.33104(9) 0.14036(9)
C77_17 C 0.38846(8) 0.59806(8) 0.21916(8)
C78_25 C 0.36154(8) 0.53084(8) 0.09806(8)
C79_25 C 0.34806(8) 0.46916(8) 0.11154(8)
C80_17 C 0.28084(8) 0.34806(8) 0.13846(8)
H52_17 H 0.3986 0.6088 0.2181
H53_25 H 0.3514 0.5319 0.1088
H54_25 H 0.3588 0.4681 0.1014
H55_17 H 0.2819 0.3588 0.1486
C82_17 C 0.40748(8) 0.57995(8) 0.19079(8)
C83_25 C 0.34252(8) 0.55921(8) 0.07995(8)
C84_25 C 0.32995(8) 0.44079(8) 0.09252(8)
C85_17 C 0.30921(8) 0.32995(8) 0.15748(8)
C87_17 C 0.42541(9) 0.56235(9) 0.16620(8)
C88_25 C 0.32459(9) 0.58380(8) 0.06235(9)
C89_25 C 0.31235(9) 0.41620(8) 0.07459(9)
C90_17 C 0.33380(8) 0.31235(9) 0.17541(9)
C92_17 C 0.43478(9) 0.59478(9) 0.17465(8)
C93_25 C 0.31522(9) 0.57535(8) 0.09478(9)
C94_25 C 0.34478(9) 0.42465(8) 0.06522(9)
C95_17 C 0.32535(8) 0.34478(9) 0.18478(9)
C97_17 C 0.44772(10) 0.61334(10) 0.17032(9)
C98_25 C 0.30228(10) 0.57968(9) 0.11334(10)
C99_25 C 0.36334(10) 0.42032(9) 0.05228(10)
C100_17 C 0.32968(9) 0.36334(10) 0.19772(10)
C102_17 C 0.46197(9) 0.61304(9) 0.15403(8)
C103_25 C 0.28803(9) 0.59597(8) 0.11304(9)
C104_25 C 0.36304(9) 0.40403(8) 0.03803(9)
C105_17 C 0.34597(8) 0.36304(9) 0.21197(9)
H57_17 H 0.4631 0.6007 0.1459
H58_25 H 0.2869 0.6041 0.1007
H59_25 H 0.3507 0.3959 0.0369
H60_17 H 0.3541 0.3507 0.2131
C107_17 C 0.47222(12) 0.64658(13) 0.16050(12)
C108_25 C 0.27778(12) 0.58950(12) 0.14658(13)
C109_25 C 0.39658(13) 0.41050(12) 0.02778(12)
C110_17 C 0.33950(12) 0.39658(13) 0.22222(12)
H62_17 H 0.4806 0.6583 0.1569
H63_25 H 0.2694 0.5931 0.1583
H64_25 H 0.4083 0.4069 0.0194
H65_17 H 0.3431 0.4083 0.2306
C112_17 C 0.45877(14) 0.64821(16) 0.17691(15)
C113_25 C 0.29123(14) 0.57309(15) 0.14821(16)
C114_25 C 0.39821(16) 0.42691(15) 0.04123(14)
C115_17 C 0.32309(15) 0.39821(16) 0.20877(14)
H67_17 H 0.4584 0.6607 0.1849
H68_25 H 0.2916 0.5651 0.1607
H69_25 H 0.4107 0.4349 0.0416
H70_17 H 0.3151 0.4107 0.2084
C117_17 C 0.44561(12) 0.63179(14) 0.18206(14)
C118_25 C 0.30439(12) 0.56794(14) 0.13179(14)
C119_25 C 0.38179(14) 0.43206(14) 0.05439(12)
C120_17 C 0.31794(14) 0.38179(14) 0.19561(12)
H72_17 H 0.4356 0.6330 0.1930
H73_25 H 0.3144 0.5570 0.1330
H74_25 H 0.3830 0.4430 0.0644
H75_17 H 0.3070 0.3830 0.1856
C122_17 C 0.37129(9) 0.32519(12) 0.25068(12)
C123_17 C 0.50068(12) 0.57519(12) 0.12871(9)
C124_17 C 0.50068(12) 0.67481(12) 0.12129(9)
C125_29 C 0.24932(12) 0.62129(9) 0.07519(12)
C126_29 C 0.24932(12) 0.62871(9) 0.17481(12)
N11_29 N 0.39558(7) 0.47663(6) 0.11371(7)
N13_25 N 0.38629(7) 0.60442(7) 0.02337(6)
N14_13 N 0.22663(6) 0.36371(7) 0.10442(7)
N15_13 N 0.27337(6) 0.39558(7) 0.13629(7)
N16_17 N 0.41058(7) 0.51525(7) 0.13569(7)
N17_25 N 0.33942(7) 0.61431(7) 0.01525(7)
N18_13 N 0.26525(7) 0.38569(7) 0.08942(7)
N19_17 N 0.36431(7) 0.26525(7) 0.16058(7)
N21_13 N 0.23475(7) 0.41058(7) 0.11431(7)
N23_25 N 0.37708(7) 0.51671(7) 0.10042(7)
N24_25 N 0.35042(7) 0.48329(7) 0.12708(7)
N25_13 N 0.26671(7) 0.35042(7) 0.12292(7)
N28_13 N 0.37292(7) 0.64958(7) 0.01671(7)
N30_17 N 0.40936(8) 0.56241(7) 0.17974(7)
N31_25 N 0.34064(8) 0.57026(7) 0.06241(7)
N32_25 N 0.31241(7) 0.42974(7) 0.09064(8)
N33_17 N 0.32026(7) 0.31241(7) 0.15936(8)
N35_17 N 0.41958(8) 0.59680(8) 0.18895(7)
N36_25 N 0.33042(8) 0.56105(7) 0.09680(8)
N37_25 N 0.34680(8) 0.43895(7) 0.08042(8)
N38_17 N 0.31105(7) 0.34680(8) 0.16958(8)
N40_17 N 0.43855(8) 0.57770(8) 0.16331(7)
N41_25 N 0.31145(8) 0.58669(7) 0.07770(8)
N42_25 N 0.32770(8) 0.41331(7) 0.06145(8)
N43_17 N 0.33669(7) 0.32770(8) 0.18855(8)
N45_17 N 0.47410(8) 0.62901(8) 0.14920(7)
N46_25 N 0.27590(8) 0.60080(7) 0.12901(8)
N47_13 N 0.37901(8) 0.39920(7) 0.02590(8)
N48_17 N 0.35080(7) 0.37901(8) 0.22410(8)
N50_17 N 0.47410(8) 0.62099(8) 0.10080(7)
N52_17 N 0.37235(7) 0.34258(8) 0.24880(8)
N53_17 N 0.49880(8) 0.59258(8) 0.12765(7)
N54_17 N 0.49880(8) 0.65742(8) 0.12235(7)
N55_29 N 0.25120(8) 0.62235(7) 0.09258(8)
N56_29 N 0.25120(8) 0.62765(7) 0.15742(8)
N64_29 N 0.23043(7) 0.59873(7) 0.12549(7)
N65_29 N 0.23043(7) 0.65127(7) 0.12451(7)
Co3_17 Co 0.369761(13) 0.619761(13) 1.0000
Co8_16 Co 0.2500 0.630239(13) 0.869761(13)
S4_25 S 0.32662(3) 0.66495(3) 0.95957(3)
C28_25 C 0.34320(9) 0.64798(9) 0.96896(8)
C36_25 C 0.37376(11) 0.57107(10) 0.98920(11)
H18_25 H 0.3206 0.6332 0.9994
C41_25 C 0.37030(13) 0.55308(10) 0.97793(13)
H26_25 H 0.3767 0.5404 0.9820
C46_25 C 0.35746(12) 0.55371(10) 0.96063(11)
H31_25 H 0.3558 0.5418 0.9520
C51_25 C 0.34713(9) 0.57208(9) 0.95629(9)
C56_25 C 0.35080(8) 0.58931(8) 0.96884(8)
H36_25 H 0.3433 0.6018 0.9660
C61_25 C 0.26517(10) 0.64078(10) 0.91521(10)
H41_25 H 0.2551 0.6516 0.9141
C66_25 C 0.27748(12) 0.64010(11) 0.93286(12)
H46_25 H 0.2761 0.6504 0.9434
C71_25 C 0.29197(10) 0.62406(10) 0.93503(11)
H51_25 H 0.3004 0.6230 0.9472
C76_25 C 0.29379(9) 0.60964(9) 0.91896(9)
C81_25 C 0.28084(8) 0.61154(8) 0.90194(8)
H56_25 H 0.2819 0.6014 0.8912
C86_25 C 0.30921(8) 0.59252(8) 0.92005(8)
C91_25 C 0.33380(8) 0.57459(9) 0.93765(9)
C96_25 C 0.32535(8) 0.56522(9) 0.90522(9)
C101_25 C 0.32968(9) 0.55228(10) 0.88666(10)
C106_25 C 0.34597(8) 0.53803(9) 0.88696(9)
H61_25 H 0.3541 0.5369 0.8993
C111_25 C 0.33950(12) 0.52778(12) 0.85342(13)
H66_25 H 0.3431 0.5194 0.8417
C116_25 C 0.32309(15) 0.54123(14) 0.85179(16)
H71_25 H 0.3151 0.5416 0.8393
C121_25 C 0.31794(14) 0.55439(12) 0.86821(14)
H76_25 H 0.3070 0.5644 0.8670
N12_25 N 0.35442(7) 0.63629(7) 0.97663(6)
N20_25 N 0.36431(7) 0.58942(7) 0.98475(7)
N26_25 N 0.26671(7) 0.62708(7) 0.89958(7)
N27_25 N 0.39958(7) 0.62292(7) 0.98329(7)
N34_25 N 0.32026(7) 0.59064(8) 0.93759(7)
N39_25 N 0.31105(7) 0.58042(8) 0.90320(8)
N44_25 N 0.33669(7) 0.56145(8) 0.92230(8)
N49_25 N 0.35080(7) 0.52590(8) 0.87099(8)
Co1_17 Co 0.369761(13) 0.0000 0.119761(13)
S1_30 S 0.41495(3) 0.04043(3) 0.07662(3)
C1_30 C 0.39798(9) 0.03104(8) 0.09320(9)
H1_30 H 0.3832 0.0006 0.0706
N1_30 N 0.38629(7) 0.02337(6) 0.10442(7)
Co3_18 Co 0.380239(13) 0.119761(13) 0.2500
Co8_17 Co 0.5000 0.130239(13) 0.380239(13)
S4_26 S 0.42338(3) 0.16495(3) 0.29043(3)
S5_26 S 0.33505(3) 0.07662(3) 0.20957(3)
S9_18 S 0.24626(4) 0.04995(7) 0.11986(4)
S10_18 S 0.24626(4) 0.20005(7) 0.13014(4)
S11_30 S 0.50374(4) 0.11986(4) 0.20005(7)
S12_30 S 0.50374(4) 0.13014(4) 0.04995(7)
C28_26 C 0.40680(9) 0.14798(9) 0.28104(8)
C29_26 C 0.35202(9) 0.09320(9) 0.21896(8)
C32_18 C 0.32107(10) 0.01080(11) 0.12376(11)
C33_26 C 0.42893(10) 0.12376(11) 0.23920(11)
C36_26 C 0.37624(11) 0.07107(10) 0.26080(11)
H18_26 H 0.4294 0.1332 0.2506
H21_26 H 0.3668 0.0706 0.2494
C37_18 C 0.30308(10) 0.02207(13) 0.12030(13)
C38_26 C 0.44692(10) 0.12030(13) 0.22793(13)
C41_26 C 0.37970(13) 0.05308(10) 0.27207(13)
H22_18 H 0.2904 0.0180 0.1267
H23_26 H 0.4596 0.1267 0.2320
H26_26 H 0.3733 0.0404 0.2680
C42_18 C 0.30371(10) 0.03937(11) 0.10746(12)
C43_26 C 0.44629(10) 0.10746(12) 0.21063(11)
C46_26 C 0.39254(12) 0.05371(10) 0.28937(11)
H27_18 H 0.2918 0.0480 0.1058
H28_26 H 0.4582 0.1058 0.2020
H31_26 H 0.3942 0.0418 0.2980
C47_18 C 0.32208(9) 0.04371(9) 0.09713(9)
C48_26 C 0.42792(9) 0.09713(9) 0.20629(9)
C51_26 C 0.40287(9) 0.07208(9) 0.29371(9)
C52_18 C 0.33931(8) 0.03116(8) 0.10080(8)
C53_26 C 0.41069(8) 0.10080(8) 0.21884(8)
C56_26 C 0.39920(8) 0.08931(8) 0.28116(8)
H32_18 H 0.3518 0.0340 0.0933
H33_26 H 0.3982 0.0933 0.2160
H36_26 H 0.4067 0.1018 0.2840
C57_18 C 0.39078(10) 0.08479(10) 0.01517(10)
C58_26 C 0.35922(10) 0.01517(10) 0.16521(10)
C61_26 C 0.48483(10) 0.14078(10) 0.33479(10)
H37_18 H 0.4016 0.0859 0.0051
H38_26 H 0.3484 0.0051 0.1641
H41_26 H 0.4949 0.1516 0.3359
C62_18 C 0.39010(11) 0.06714(12) 0.02748(12)
C63_26 C 0.35990(11) 0.02748(12) 0.18286(12)
C66_26 C 0.47252(12) 0.14010(11) 0.31714(12)
H42_18 H 0.4004 0.0566 0.0261
H43_26 H 0.3496 0.0261 0.1934
H46_26 H 0.4739 0.1504 0.3066
C67_18 C 0.37406(10) 0.06497(11) 0.04197(10)
C68_26 C 0.37594(10) 0.04197(10) 0.18503(11)
C71_26 C 0.45803(10) 0.12406(10) 0.31497(11)
H47_18 H 0.3730 0.0528 0.0504
H48_26 H 0.3770 0.0504 0.1972
H51_26 H 0.4496 0.1230 0.3028
C72_18 C 0.35964(9) 0.08104(9) 0.04379(9)
C73_26 C 0.39036(9) 0.04379(9) 0.16896(9)
C76_26 C 0.45621(9) 0.10964(9) 0.33104(9)
C77_18 C 0.36154(8) 0.09806(8) 0.03084(8)
C78_26 C 0.38846(8) 0.03084(8) 0.15194(8)
C81_26 C 0.46916(8) 0.11154(8) 0.34806(8)
H52_18 H 0.3514 0.1088 0.0319
H53_26 H 0.3986 0.0319 0.1412
H56_26 H 0.4681 0.1014 0.3588
C82_18 C 0.34252(8) 0.07995(8) 0.05921(8)
C83_26 C 0.40748(8) 0.05921(8) 0.17005(8)
C86_26 C 0.44079(8) 0.09252(8) 0.32995(8)
C87_18 C 0.32459(9) 0.06235(9) 0.08380(8)
C88_26 C 0.42541(9) 0.08380(8) 0.18765(9)
C91_26 C 0.41620(8) 0.07459(9) 0.31235(9)
C92_18 C 0.31522(9) 0.09478(9) 0.07535(8)
C93_26 C 0.43478(9) 0.07535(8) 0.15522(9)
C96_26 C 0.42465(8) 0.06522(9) 0.34478(9)
C97_18 C 0.30228(10) 0.11334(10) 0.07968(9)
C98_26 C 0.44772(10) 0.07968(9) 0.13666(10)
C101_26 C 0.42032(9) 0.05228(10) 0.36334(10)
C102_18 C 0.28803(9) 0.11304(9) 0.09597(8)
C103_26 C 0.46197(9) 0.09597(8) 0.13696(9)
C106_26 C 0.40403(8) 0.03803(9) 0.36304(9)
H57_18 H 0.2869 0.1007 0.1041
H58_26 H 0.4631 0.1041 0.1493
H61_26 H 0.3959 0.0369 0.3507
C107_18 C 0.27778(12) 0.14658(13) 0.08950(12)
C108_26 C 0.47222(12) 0.08950(12) 0.10342(13)
C111_26 C 0.41050(12) 0.02778(12) 0.39658(13)
H62_18 H 0.2694 0.1583 0.0931
H63_26 H 0.4806 0.0931 0.0917
H66_26 H 0.4069 0.0194 0.4083
C112_18 C 0.29123(14) 0.14821(16) 0.07309(15)
C113_26 C 0.45877(14) 0.07309(15) 0.10179(16)
C116_26 C 0.42691(15) 0.04123(14) 0.39821(16)
H67_18 H 0.2916 0.1607 0.0651
H68_26 H 0.4584 0.0651 0.0893
H71_26 H 0.4349 0.0416 0.4107
C117_18 C 0.30439(12) 0.13179(14) 0.06794(14)
C118_26 C 0.44561(12) 0.06794(14) 0.11821(14)
C121_26 C 0.43206(14) 0.05439(12) 0.38179(14)
H72_18 H 0.3144 0.1330 0.0570
H73_26 H 0.4356 0.0570 0.1170
H76_26 H 0.4430 0.0644 0.3830
C123_18 C 0.24932(12) 0.07519(12) 0.12129(9)
C124_18 C 0.24932(12) 0.17481(12) 0.12871(9)
C125_30 C 0.50068(12) 0.12129(9) 0.17481(12)
C126_30 C 0.50068(12) 0.12871(9) 0.07519(12)
N12_26 N 0.39558(7) 0.13629(7) 0.27337(6)
N13_26 N 0.36371(7) 0.10442(7) 0.22663(6)
N16_18 N 0.33942(7) 0.01525(7) 0.11431(7)
N17_26 N 0.41058(7) 0.11431(7) 0.23475(7)
N20_26 N 0.38569(7) 0.08942(7) 0.26525(7)
N23_26 N 0.37292(7) 0.01671(7) 0.14958(7)
N26_26 N 0.48329(7) 0.12708(7) 0.35042(7)
N27_26 N 0.35042(7) 0.12292(7) 0.26671(7)
N28_14 N 0.37708(7) 0.14958(7) 0.23329(7)
N30_18 N 0.34064(8) 0.06241(7) 0.07026(7)
N31_26 N 0.40936(8) 0.07026(7) 0.18759(7)
N34_26 N 0.42974(7) 0.09064(8) 0.31241(7)
N35_18 N 0.33042(8) 0.09680(8) 0.06105(7)
N36_26 N 0.41958(8) 0.06105(7) 0.15320(8)
N39_26 N 0.43895(7) 0.08042(8) 0.34680(8)
N40_18 N 0.31145(8) 0.07770(8) 0.08669(7)
N41_26 N 0.43855(8) 0.08669(7) 0.17230(8)
N44_26 N 0.41331(7) 0.06145(8) 0.32770(8)
N45_18 N 0.27590(8) 0.12901(8) 0.10080(7)
N46_26 N 0.47410(8) 0.10080(7) 0.12099(8)
N49_26 N 0.39920(7) 0.02590(8) 0.37901(8)
N50_18 N 0.27590(8) 0.12099(8) 0.14920(7)
N53_18 N 0.25120(8) 0.09258(8) 0.12235(7)
N54_18 N 0.25120(8) 0.15742(8) 0.12765(7)
N55_30 N 0.49880(8) 0.12235(7) 0.15742(8)
N56_30 N 0.49880(8) 0.12765(7) 0.09258(8)
N64_30 N 0.51957(7) 0.09873(7) 0.12451(7)
N65_30 N 0.51957(7) 0.15127(7) 0.12549(7)
Co1_18 Co 0.369761(13) 1.0000 0.119761(13)
C2_30 C 0.37376(11) 0.98920(11) 0.07107(10)
C3_30 C 0.37030(13) 0.97793(13) 0.05308(10)
H2_30 H 0.3767 0.9820 0.0404
C4_30 C 0.35746(12) 0.96063(11) 0.05371(10)
H3_30 H 0.3558 0.9520 0.0418
C5_30 C 0.34713(9) 0.95629(9) 0.07208(9)
C6_30 C 0.35080(8) 0.96884(8) 0.08931(8)
H4_30 H 0.3433 0.9660 0.1018
C7_30 C 0.26517(10) 0.91521(10) 0.14078(10)
H5_30 H 0.2551 0.9141 0.1516
C8_30 C 0.27748(12) 0.93286(12) 0.14010(11)
H6_30 H 0.2761 0.9434 0.1504
C9_30 C 0.29197(10) 0.93503(11) 0.12406(10)
H7_30 H 0.3004 0.9472 0.1230
C10_30 C 0.29379(9) 0.91896(9) 0.10964(9)
C11_30 C 0.28084(8) 0.90194(8) 0.11154(8)
H8_30 H 0.2819 0.8912 0.1014
C12_30 C 0.30921(8) 0.92005(8) 0.09252(8)
C13_30 C 0.33380(8) 0.93765(9) 0.07459(9)
C14_30 C 0.32535(8) 0.90522(9) 0.06522(9)
C15_30 C 0.32968(9) 0.88666(10) 0.05228(10)
C16_30 C 0.34597(8) 0.88696(9) 0.03803(9)
H9_30 H 0.3541 0.8993 0.0369
C17_30 C 0.33950(12) 0.85342(13) 0.02778(12)
H10_30 H 0.3431 0.8417 0.0194
C18_30 C 0.32309(15) 0.85179(16) 0.04123(14)
H11_30 H 0.3151 0.8393 0.0416
C19_30 C 0.31794(14) 0.86821(14) 0.05439(12)
H12_30 H 0.3070 0.8670 0.0644
N2_30 N 0.36431(7) 0.98475(7) 0.08942(7)
N4_30 N 0.32026(7) 0.93759(7) 0.09064(8)
N5_30 N 0.31105(7) 0.90320(8) 0.08042(8)
N6_30 N 0.33669(7) 0.92230(8) 0.06145(8)
N7_18 N 0.35080(7) 0.87099(8) 0.02590(8)
N8_18 N 0.37235(7) 0.90742(8) 0.00120(8)
S3_30 S 0.32662(3) 0.95957(3) 0.16495(3)
S6_14 S 0.54043(3) 0.83505(3) 0.17338(3)
S7_14 S 0.45957(3) 0.92338(3) 0.08505(3)
C27_30 C 0.34320(9) 0.96896(8) 0.14798(9)
C30_14 C 0.53104(8) 0.85202(9) 0.15680(9)
C31_14 C 0.46896(8) 0.90680(9) 0.10202(9)
C34_26 C 0.48920(11) 0.87624(11) 0.17893(10)
C35_18 C 0.37624(11) 0.76080(11) 0.07107(10)
H17_18 H 0.3206 0.9994 0.1332
H19_26 H 0.5006 0.8668 0.1794
H20_18 H 0.3668 0.7494 0.0706
C39_26 C 0.47793(13) 0.87970(13) 0.19692(10)
C40_18 C 0.37970(13) 0.77207(13) 0.05308(10)
H24_26 H 0.4820 0.8733 0.2096
H25_18 H 0.3733 0.7680 0.0404
C44_26 C 0.46063(11) 0.89254(12) 0.19629(10)
C45_18 C 0.39254(12) 0.78937(11) 0.05371(10)
H29_26 H 0.4520 0.8942 0.2082
H30_18 H 0.3942 0.7980 0.0418
C49_26 C 0.45629(9) 0.90287(9) 0.17792(9)
C50_18 C 0.40287(9) 0.79371(9) 0.07208(9)
C54_26 C 0.46884(8) 0.89920(8) 0.16069(8)
C55_18 C 0.39920(8) 0.78116(8) 0.08931(8)
H34_26 H 0.4660 0.9067 0.1482
H35_18 H 0.4067 0.7840 0.1018
C59_26 C 0.41521(10) 0.98483(10) 0.10922(10)
C60_18 C 0.48483(10) 0.83479(10) 0.14078(10)
H39_26 H 0.4141 0.9949 0.0984
H40_18 H 0.4949 0.8359 0.1516
C64_26 C 0.43286(12) 0.97252(12) 0.10990(11)
C65_18 C 0.47252(12) 0.81714(12) 0.14010(11)
H44_26 H 0.4434 0.9739 0.0996
H45_18 H 0.4739 0.8066 0.1504
C69_26 C 0.43503(11) 0.95803(10) 0.12594(10)
C70_18 C 0.45803(10) 0.81497(11) 0.12406(10)
H49_26 H 0.4472 0.9496 0.1270
H50_18 H 0.4496 0.8028 0.1230
C74_26 C 0.41896(9) 0.95621(9) 0.14036(9)
C75_18 C 0.45621(9) 0.83104(9) 0.10964(9)
C79_26 C 0.40194(8) 0.96916(8) 0.13846(8)
C80_18 C 0.46916(8) 0.84806(8) 0.11154(8)
H54_26 H 0.3912 0.9681 0.1486
H55_18 H 0.4681 0.8588 0.1014
C84_26 C 0.42005(8) 0.94079(8) 0.15748(8)
C85_18 C 0.44079(8) 0.82995(8) 0.09252(8)
C89_26 C 0.43765(9) 0.91620(8) 0.17541(9)
C90_18 C 0.41620(8) 0.81235(9) 0.07459(9)
C94_26 C 0.40522(9) 0.92465(8) 0.18478(9)
C95_18 C 0.42465(8) 0.84478(9) 0.06522(9)
C99_26 C 0.38666(10) 0.92032(9) 0.19772(10)
C100_18 C 0.42032(9) 0.86334(10) 0.05228(10)
C104_26 C 0.38696(9) 0.90403(8) 0.21197(9)
C105_18 C 0.40403(8) 0.86304(9) 0.03803(9)
H59_26 H 0.3993 0.8959 0.2131
H60_18 H 0.3959 0.8507 0.0369
C109_26 C 0.35342(13) 0.91050(12) 0.22222(12)
C110_18 C 0.41050(12) 0.89658(13) 0.02778(12)
H64_26 H 0.3417 0.9069 0.2306
H65_18 H 0.4069 0.9083 0.0194
C114_26 C 0.35179(16) 0.92691(15) 0.20877(14)
C115_18 C 0.42691(15) 0.89821(16) 0.04123(14)
H69_26 H 0.3393 0.9349 0.2084
H70_18 H 0.4349 0.9107 0.0416
C119_26 C 0.36821(14) 0.93206(14) 0.19561(12)
C120_18 C 0.43206(14) 0.88179(14) 0.05439(12)
H74_26 H 0.3670 0.9430 0.1856
H75_18 H 0.4430 0.8830 0.0644
N11_30 N 0.35442(7) 0.97663(6) 0.13629(7)
N14_14 N 0.52337(6) 0.86371(7) 0.14558(7)
N15_14 N 0.47663(6) 0.89558(7) 0.11371(7)
N18_14 N 0.48475(7) 0.88569(7) 0.16058(7)
N19_18 N 0.38569(7) 0.76525(7) 0.08942(7)
N21_14 N 0.51525(7) 0.91058(7) 0.13569(7)
N24_26 N 0.39958(7) 0.98329(7) 0.12292(7)
N25_14 N 0.48329(7) 0.85042(7) 0.12708(7)
N32_26 N 0.43759(7) 0.92974(7) 0.15936(8)
N33_18 N 0.42974(7) 0.81241(7) 0.09064(8)
N37_26 N 0.40320(8) 0.93895(7) 0.16958(8)
N38_18 N 0.43895(7) 0.84680(8) 0.08042(8)
N42_26 N 0.42230(8) 0.91331(7) 0.18855(8)
N43_18 N 0.41331(7) 0.82770(8) 0.06145(8)
N47_14 N 0.37099(8) 0.89920(7) 0.22410(8)
N48_18 N 0.39920(7) 0.87901(8) 0.02590(8)
N52_18 N 0.37765(7) 0.84258(8) 0.00120(8)
S2_18 S 0.36986(4) 0.95005(7) 0.99626(4)
C20_18 C 0.37129(9) 0.92481(12) 0.99932(12)
S8_18 S 0.38014(4) 0.79995(7) 0.99626(4)
C122_18 C 0.37871(9) 0.82519(12) 0.99932(12)
S9_19 S 0.00374(4) 0.70005(7) 0.61986(4)
S10_19 S 0.00374(4) 0.54995(7) 0.63014(4)
C123_19 C 0.00068(12) 0.67481(12) 0.62129(9)
C124_19 C 0.00068(12) 0.57519(12) 0.62871(9)
H20_19 H 0.8832 0.0006 0.5706
Co1_19 Co 0.880239(13) 0.7500 0.619761(13)
S1_31 S 0.83505(3) 0.70957(3) 0.57662(3)
S2_19 S 0.88014(4) 0.79995(7) 0.49626(4)
C1_31 C 0.85202(9) 0.71896(8) 0.59320(9)
C2_31 C 0.87624(11) 0.76080(11) 0.57107(10)
H1_31 H 0.8668 0.7494 0.5706
C3_31 C 0.87970(13) 0.77207(13) 0.55308(10)
H2_31 H 0.8733 0.7680 0.5404
C4_31 C 0.89254(12) 0.78937(11) 0.55371(10)
H3_31 H 0.8942 0.7980 0.5418
C5_31 C 0.90287(9) 0.79371(9) 0.57208(9)
C6_31 C 0.89920(8) 0.78116(8) 0.58931(8)
H4_31 H 0.9067 0.7840 0.6018
C7_31 C 0.98483(10) 0.83479(10) 0.64078(10)
H5_31 H 0.9949 0.8359 0.6516
C8_31 C 0.97252(12) 0.81714(12) 0.64010(11)
H6_31 H 0.9739 0.8066 0.6504
C9_31 C 0.95803(10) 0.81497(11) 0.62406(10)
H7_31 H 0.9496 0.8028 0.6230
C10_31 C 0.95621(9) 0.83104(9) 0.60964(9)
C11_31 C 0.96916(8) 0.84806(8) 0.61154(8)
H8_31 H 0.9681 0.8588 0.6014
C12_31 C 0.94079(8) 0.82995(8) 0.59252(8)
C13_31 C 0.91620(8) 0.81235(9) 0.57459(9)
C14_31 C 0.92465(8) 0.84478(9) 0.56522(9)
C15_31 C 0.92032(9) 0.86334(10) 0.55228(10)
C16_31 C 0.90403(8) 0.86304(9) 0.53803(9)
H9_31 H 0.8959 0.8507 0.5369
C17_31 C 0.91050(12) 0.89658(13) 0.52778(12)
H10_31 H 0.9069 0.9083 0.5194
C18_31 C 0.92691(15) 0.89821(16) 0.54123(14)
H11_31 H 0.9349 0.9107 0.5416
C19_31 C 0.93206(14) 0.88179(14) 0.55439(12)
H12_31 H 0.9430 0.8830 0.5644
C20_19 C 0.87871(9) 0.82519(12) 0.49932(12)
N1_31 N 0.86371(7) 0.72663(6) 0.60442(7)
N2_31 N 0.88569(7) 0.76525(7) 0.58942(7)
N4_31 N 0.92974(7) 0.81241(7) 0.59064(8)
N5_31 N 0.93895(7) 0.84680(8) 0.58042(8)
N6_31 N 0.91331(7) 0.82770(8) 0.56145(8)
N7_19 N 0.89920(7) 0.87901(8) 0.52590(8)
N8_19 N 0.87765(7) 0.84258(8) 0.50120(8)
Co3_19 Co 0.869761(13) 0.630239(13) 0.7500
Co8_18 Co 0.7500 0.619761(13) 0.880239(13)
S3_31 S 0.92338(3) 0.79043(3) 0.66495(3)
S4_27 S 0.82662(3) 0.58505(3) 0.79043(3)
S5_27 S 0.91495(3) 0.67338(3) 0.70957(3)
S6_15 S 0.70957(3) 0.91495(3) 0.67338(3)
S7_15 S 0.79043(3) 0.82662(3) 0.58505(3)
S8_19 S 0.86986(4) 0.95005(7) 0.49626(4)
S11_31 S 0.74626(4) 0.63014(4) 0.70005(7)
S12_31 S 0.74626(4) 0.61986(4) 0.54995(7)
C27_31 C 0.90680(9) 0.78104(8) 0.64798(9)
C28_27 C 0.84320(9) 0.60202(9) 0.78104(8)
C29_27 C 0.89798(9) 0.65680(9) 0.71896(8)
C30_15 C 0.71896(8) 0.89798(9) 0.65680(9)
C31_15 C 0.78104(8) 0.84320(9) 0.60202(9)
C32_19 C 0.92893(10) 0.73920(11) 0.62376(11)
C33_27 C 0.82107(10) 0.62624(11) 0.73920(11)
C34_27 C 0.76080(11) 0.87376(11) 0.67893(10)
C35_19 C 0.87376(11) 0.98920(11) 0.57107(10)
C36_27 C 0.87376(11) 0.67893(10) 0.76080(11)
H17_19 H 0.9294 0.7506 0.6332
H18_27 H 0.8206 0.6168 0.7506
H19_27 H 0.7494 0.8832 0.6794
H21_27 H 0.8832 0.6794 0.7494
C37_19 C 0.94692(10) 0.72793(13) 0.62030(13)
C38_27 C 0.80308(10) 0.62970(13) 0.72793(13)
C39_27 C 0.77207(13) 0.87030(13) 0.69692(10)
C40_19 C 0.87030(13) 0.97793(13) 0.55308(10)
C41_27 C 0.87030(13) 0.69692(10) 0.77207(13)
H22_19 H 0.9596 0.7320 0.6267
H23_27 H 0.7904 0.6233 0.7320
H24_27 H 0.7680 0.8767 0.7096
H25_19 H 0.8767 0.9820 0.5404
H26_27 H 0.8767 0.7096 0.7680
C42_19 C 0.94629(10) 0.71063(11) 0.60746(12)
C43_27 C 0.80371(10) 0.64254(12) 0.71063(11)
C44_27 C 0.78937(11) 0.85746(12) 0.69629(10)
C45_19 C 0.85746(12) 0.96063(11) 0.55371(10)
C46_27 C 0.85746(12) 0.69629(10) 0.78937(11)
H27_19 H 0.9582 0.7020 0.6058
H28_27 H 0.7918 0.6442 0.7020
H29_27 H 0.7980 0.8558 0.7082
H30_19 H 0.8558 0.9520 0.5418
H31_27 H 0.8558 0.7082 0.7980
C47_19 C 0.92792(9) 0.70629(9) 0.59713(9)
C48_27 C 0.82208(9) 0.65287(9) 0.70629(9)
C49_27 C 0.79371(9) 0.84713(9) 0.67792(9)
C50_19 C 0.84713(9) 0.95629(9) 0.57208(9)
C51_27 C 0.84713(9) 0.67792(9) 0.79371(9)
C52_19 C 0.91069(8) 0.71884(8) 0.60080(8)
C53_27 C 0.83931(8) 0.64920(8) 0.71884(8)
C54_27 C 0.78116(8) 0.85080(8) 0.66069(8)
C55_19 C 0.85080(8) 0.96884(8) 0.58931(8)
C56_27 C 0.85080(8) 0.66069(8) 0.78116(8)
H32_19 H 0.8982 0.7160 0.5933
H33_27 H 0.8518 0.6567 0.7160
H34_27 H 0.7840 0.8433 0.6482
H35_19 H 0.8433 0.9660 0.6018
H36_27 H 0.8433 0.6482 0.7840
C57_19 C 0.85922(10) 0.66521(10) 0.51517(10)
C58_27 C 0.89078(10) 0.73483(10) 0.66521(10)
C59_27 C 0.83479(10) 0.76517(10) 0.60922(10)
C60_19 C 0.76517(10) 0.91521(10) 0.64078(10)
C61_27 C 0.76517(10) 0.60922(10) 0.83479(10)
H37_19 H 0.8484 0.6641 0.5051
H38_27 H 0.9016 0.7449 0.6641
H39_27 H 0.8359 0.7551 0.5984
H40_19 H 0.7551 0.9141 0.6516
H41_27 H 0.7551 0.5984 0.8359
C62_19 C 0.85990(11) 0.68286(12) 0.52748(12)
C63_27 C 0.89010(11) 0.72252(12) 0.68286(12)
C64_27 C 0.81714(12) 0.77748(12) 0.60990(11)
C65_19 C 0.77748(12) 0.93286(12) 0.64010(11)
C66_27 C 0.77748(12) 0.60990(11) 0.81714(12)
H42_19 H 0.8496 0.6934 0.5261
H43_27 H 0.9004 0.7239 0.6934
H44_27 H 0.8066 0.7761 0.5996
H45_19 H 0.7761 0.9434 0.6504
H46_27 H 0.7761 0.5996 0.8066
C67_19 C 0.87594(10) 0.68503(11) 0.54197(10)
C68_27 C 0.87406(10) 0.70803(10) 0.68503(11)
C69_27 C 0.81497(11) 0.79197(10) 0.62594(10)
C70_19 C 0.79197(10) 0.93503(11) 0.62406(10)
C71_27 C 0.79197(10) 0.62594(10) 0.81497(11)
H47_19 H 0.8770 0.6972 0.5504
H48_27 H 0.8730 0.6996 0.6972
H49_27 H 0.8028 0.8004 0.6270
H50_19 H 0.8004 0.9472 0.6230
H51_27 H 0.8004 0.6270 0.8028
C72_19 C 0.89036(9) 0.66896(9) 0.54379(9)
C73_27 C 0.85964(9) 0.70621(9) 0.66896(9)
C74_27 C 0.83104(9) 0.79379(9) 0.64036(9)
C75_19 C 0.79379(9) 0.91896(9) 0.60964(9)
C76_27 C 0.79379(9) 0.64036(9) 0.83104(9)
C77_19 C 0.88846(8) 0.65194(8) 0.53084(8)
C78_27 C 0.86154(8) 0.71916(8) 0.65194(8)
C79_27 C 0.84806(8) 0.78084(8) 0.63846(8)
C80_19 C 0.78084(8) 0.90194(8) 0.61154(8)
C81_27 C 0.78084(8) 0.63846(8) 0.84806(8)
H52_19 H 0.8986 0.6412 0.5319
H53_27 H 0.8514 0.7181 0.6412
H54_27 H 0.8588 0.7819 0.6486
H55_19 H 0.7819 0.8912 0.6014
H56_27 H 0.7819 0.6486 0.8588
C82_19 C 0.90748(8) 0.67005(8) 0.55921(8)
C83_27 C 0.84252(8) 0.69079(8) 0.67005(8)
C84_27 C 0.82995(8) 0.80921(8) 0.65748(8)
C85_19 C 0.80921(8) 0.92005(8) 0.59252(8)
C86_27 C 0.80921(8) 0.65748(8) 0.82995(8)
C87_19 C 0.92541(9) 0.68765(9) 0.58380(8)
C88_27 C 0.82459(9) 0.66620(8) 0.68765(9)
C89_27 C 0.81235(9) 0.83380(8) 0.67541(9)
C90_19 C 0.83380(8) 0.93765(9) 0.57459(9)
C91_27 C 0.83380(8) 0.67541(9) 0.81235(9)
C92_19 C 0.93478(9) 0.65522(9) 0.57535(8)
C93_27 C 0.81522(9) 0.67465(8) 0.65522(9)
C94_27 C 0.84478(9) 0.82535(8) 0.68478(9)
C95_19 C 0.82535(8) 0.90522(9) 0.56522(9)
C96_27 C 0.82535(8) 0.68478(9) 0.84478(9)
C97_19 C 0.94772(10) 0.63666(10) 0.57968(9)
C98_27 C 0.80228(10) 0.67032(9) 0.63666(10)
C99_27 C 0.86334(10) 0.82968(9) 0.69772(10)
C100_19 C 0.82968(9) 0.88666(10) 0.55228(10)
C101_27 C 0.82968(9) 0.69772(10) 0.86334(10)
C102_19 C 0.96197(9) 0.63696(9) 0.59597(8)
C103_27 C 0.78803(9) 0.65403(8) 0.63696(9)
C104_27 C 0.86304(9) 0.84597(8) 0.71197(9)
C105_19 C 0.84597(8) 0.88696(9) 0.53803(9)
C106_27 C 0.84597(8) 0.71197(9) 0.86304(9)
H57_19 H 0.9631 0.6493 0.6041
H58_27 H 0.7869 0.6459 0.6493
H59_27 H 0.8507 0.8541 0.7131
H60_19 H 0.8541 0.8993 0.5369
H61_27 H 0.8541 0.7131 0.8507
C107_19 C 0.97222(12) 0.60342(13) 0.58950(12)
C108_27 C 0.77778(12) 0.66050(12) 0.60342(13)
C109_27 C 0.89658(13) 0.83950(12) 0.72222(12)
C110_19 C 0.83950(12) 0.85342(13) 0.52778(12)
C111_27 C 0.83950(12) 0.72222(12) 0.89658(13)
H62_19 H 0.9806 0.5917 0.5931
H63_27 H 0.7694 0.6569 0.5917
H64_27 H 0.9083 0.8431 0.7306
H65_19 H 0.8431 0.8417 0.5194
H66_27 H 0.8431 0.7306 0.9083
C112_19 C 0.95877(14) 0.60179(16) 0.57309(15)
C113_27 C 0.79123(14) 0.67691(15) 0.60179(16)
C114_27 C 0.89821(16) 0.82309(15) 0.70877(14)
C115_19 C 0.82309(15) 0.85179(16) 0.54123(14)
C116_27 C 0.82309(15) 0.70877(14) 0.89821(16)
H67_19 H 0.9584 0.5893 0.5651
H68_27 H 0.7916 0.6849 0.5893
H69_27 H 0.9107 0.8151 0.7084
H70_19 H 0.8151 0.8393 0.5416
H71_27 H 0.8151 0.7084 0.9107
C117_19 C 0.94561(12) 0.61821(14) 0.56794(14)
C118_27 C 0.80439(12) 0.68206(14) 0.61821(14)
C119_27 C 0.88179(14) 0.81794(14) 0.69561(12)
C120_19 C 0.81794(14) 0.86821(14) 0.55439(12)
C121_27 C 0.81794(14) 0.69561(12) 0.88179(14)
H72_19 H 0.9356 0.6170 0.5570
H73_27 H 0.8144 0.6930 0.6170
H74_27 H 0.8830 0.8070 0.6856
H75_19 H 0.8070 0.8670 0.5644
H76_27 H 0.8070 0.6856 0.8830
C122_19 C 0.87129(9) 0.92481(12) 0.49932(12)
C125_31 C 0.74932(12) 0.62871(9) 0.67481(12)
C126_31 C 0.74932(12) 0.62129(9) 0.57519(12)
N11_31 N 0.89558(7) 0.77337(6) 0.63629(7)
N12_27 N 0.85442(7) 0.61371(7) 0.77337(6)
N13_27 N 0.88629(7) 0.64558(7) 0.72663(6)
N14_15 N 0.72663(6) 0.88629(7) 0.64558(7)
N15_15 N 0.77337(6) 0.85442(7) 0.61371(7)
N16_19 N 0.91058(7) 0.73475(7) 0.61431(7)
N17_27 N 0.83942(7) 0.63569(7) 0.73475(7)
N18_15 N 0.76525(7) 0.86431(7) 0.66058(7)
N19_19 N 0.86431(7) 0.98475(7) 0.58942(7)
N20_27 N 0.86431(7) 0.66058(7) 0.76525(7)
N21_15 N 0.73475(7) 0.83942(7) 0.63569(7)
N23_27 N 0.87708(7) 0.73329(7) 0.64958(7)
N24_27 N 0.85042(7) 0.76671(7) 0.62292(7)
N25_15 N 0.76671(7) 0.89958(7) 0.62708(7)
N26_27 N 0.76671(7) 0.62292(7) 0.85042(7)
N27_27 N 0.89958(7) 0.62708(7) 0.76671(7)
N28_15 N 0.87292(7) 0.60042(7) 0.73329(7)
N30_19 N 0.90936(8) 0.68759(7) 0.57026(7)
N31_27 N 0.84064(8) 0.67974(7) 0.68759(7)
N32_27 N 0.81241(7) 0.82026(7) 0.65936(8)
N33_19 N 0.82026(7) 0.93759(7) 0.59064(8)
N34_27 N 0.82026(7) 0.65936(8) 0.81241(7)
N35_19 N 0.91958(8) 0.65320(8) 0.56105(7)
N36_27 N 0.83042(8) 0.68895(7) 0.65320(8)
N37_27 N 0.84680(8) 0.81105(7) 0.66958(8)
N38_19 N 0.81105(7) 0.90320(8) 0.58042(8)
N39_27 N 0.81105(7) 0.66958(8) 0.84680(8)
N40_19 N 0.93855(8) 0.67230(8) 0.58669(7)
N41_27 N 0.81145(8) 0.66331(7) 0.67230(8)
N42_27 N 0.82770(8) 0.83669(7) 0.68855(8)
N43_19 N 0.83669(7) 0.92230(8) 0.56145(8)
N44_27 N 0.83669(7) 0.68855(8) 0.82770(8)
N45_19 N 0.97410(8) 0.62099(8) 0.60080(7)
N46_27 N 0.77590(8) 0.64920(7) 0.62099(8)
N47_15 N 0.87901(8) 0.85080(7) 0.72410(8)
N48_19 N 0.85080(7) 0.87099(8) 0.52590(8)
N49_27 N 0.85080(7) 0.72410(8) 0.87901(8)
N50_19 N 0.97410(8) 0.62901(8) 0.64920(7)
N52_19 N 0.87235(7) 0.90742(8) 0.50120(8)
N53_19 N 0.99880(8) 0.65742(8) 0.62235(7)
N54_19 N 0.99880(8) 0.59258(8) 0.62765(7)
N55_31 N 0.75120(8) 0.62765(7) 0.65742(8)
N56_31 N 0.75120(8) 0.62235(7) 0.59258(8)
N64_31 N 0.73043(7) 0.65127(7) 0.62451(7)
N65_31 N 0.73043(7) 0.59873(7) 0.62549(7)
Co8_19 Co -0.0000 0.119761(13) 0.369761(13)
S6_16 S 0.04043(3) 0.41495(3) 0.57662(3)
S11_32 S 0.00374(4) 0.13014(4) 0.54995(7)
S12_32 S 0.00374(4) 0.11986(4) 0.70005(7)
C30_16 C 0.03104(8) 0.39798(9) 0.59320(9)
H19_28 H 0.0006 0.3832 0.5706
C125_32 C 0.00068(12) 0.12871(9) 0.57519(12)
C126_32 C 0.00068(12) 0.12129(9) 0.67481(12)
N14_16 N 0.02337(6) 0.38629(7) 0.60442(7)
N21_16 N 0.01525(7) 0.33942(7) 0.61431(7)
N64_32 N 0.01957(7) 0.15127(7) 0.62549(7)
N65_32 N 0.01957(7) 0.09873(7) 0.62451(7)
Co1_20 Co 0.869761(13) 0.2500 0.630239(13)
S1_32 S 0.91495(3) 0.20957(3) 0.67338(3)
S2_20 S 0.86986(4) 0.29995(7) 0.75374(4)
C1_32 C 0.89798(9) 0.21896(8) 0.65680(9)
C2_32 C 0.87376(11) 0.26080(11) 0.67893(10)
H1_32 H 0.8832 0.2494 0.6794
C3_32 C 0.87030(13) 0.27207(13) 0.69692(10)
H2_32 H 0.8767 0.2680 0.7096
C4_32 C 0.85746(12) 0.28937(11) 0.69629(10)
H3_32 H 0.8558 0.2980 0.7082
C5_32 C 0.84713(9) 0.29371(9) 0.67792(9)
C6_32 C 0.85080(8) 0.28116(8) 0.66069(8)
H4_32 H 0.8433 0.2840 0.6482
C7_32 C 0.76517(10) 0.33479(10) 0.60922(10)
H5_32 H 0.7551 0.3359 0.5984
C8_32 C 0.77748(12) 0.31714(12) 0.60990(11)
H6_32 H 0.7761 0.3066 0.5996
C9_32 C 0.79197(10) 0.31497(11) 0.62594(10)
H7_32 H 0.8004 0.3028 0.6270
C10_32 C 0.79379(9) 0.33104(9) 0.64036(9)
C11_32 C 0.78084(8) 0.34806(8) 0.63846(8)
H8_32 H 0.7819 0.3588 0.6486
C12_32 C 0.80921(8) 0.32995(8) 0.65748(8)
C13_32 C 0.83380(8) 0.31235(9) 0.67541(9)
C14_32 C 0.82535(8) 0.34478(9) 0.68478(9)
C15_32 C 0.82968(9) 0.36334(10) 0.69772(10)
C16_32 C 0.84597(8) 0.36304(9) 0.71197(9)
H9_32 H 0.8541 0.3507 0.7131
C17_32 C 0.83950(12) 0.39658(13) 0.72222(12)
H10_32 H 0.8431 0.4083 0.7306
C18_32 C 0.82309(15) 0.39821(16) 0.70877(14)
H11_32 H 0.8151 0.4107 0.7084
C19_32 C 0.81794(14) 0.38179(14) 0.69561(12)
H12_32 H 0.8070 0.3830 0.6856
C20_20 C 0.87129(9) 0.32519(12) 0.75068(12)
N1_32 N 0.88629(7) 0.22663(6) 0.64558(7)
N2_32 N 0.86431(7) 0.26525(7) 0.66058(7)
N4_32 N 0.82026(7) 0.31241(7) 0.65936(8)
N5_32 N 0.81105(7) 0.34680(8) 0.66958(8)
N6_32 N 0.83669(7) 0.32770(8) 0.68855(8)
N7_20 N 0.85080(7) 0.37901(8) 0.72410(8)
N8_20 N 0.87235(7) 0.34258(8) 0.74880(8)
Co3_20 Co 0.880239(13) 0.130239(13) 0.5000
Co8_20 Co 1.0000 0.119761(13) 0.369761(13)
S3_32 S 0.82662(3) 0.29043(3) 0.58505(3)
S4_28 S 0.92338(3) 0.08505(3) 0.45957(3)
S5_28 S 0.83505(3) 0.17338(3) 0.54043(3)
S7_16 S 0.95957(3) 0.32662(3) 0.66495(3)
S8_20 S 0.88014(4) 0.45005(7) 0.75374(4)
S9_20 S 0.74626(4) 0.20005(7) 0.63014(4)
S10_20 S 0.74626(4) 0.04995(7) 0.61986(4)
C27_32 C 0.84320(9) 0.28104(8) 0.60202(9)
C28_28 C 0.90680(9) 0.10202(9) 0.46896(8)
C29_28 C 0.85202(9) 0.15680(9) 0.53104(8)
C31_16 C 0.96896(8) 0.34320(9) 0.64798(9)
C32_20 C 0.82107(10) 0.23920(11) 0.62624(11)
C33_28 C 0.92893(10) 0.12624(11) 0.51080(11)
C34_28 C 0.98920(11) 0.37376(11) 0.57107(10)
C35_20 C 0.87624(11) 0.48920(11) 0.67893(10)
C36_28 C 0.87624(11) 0.17893(10) 0.48920(11)
H17_20 H 0.8206 0.2506 0.6168
H18_28 H 0.9294 0.1168 0.4994
H20_20 H 0.8668 0.5006 0.6794
H21_28 H 0.8668 0.1794 0.5006
C37_20 C 0.80308(10) 0.22793(13) 0.62970(13)
C38_28 C 0.94692(10) 0.12970(13) 0.52207(13)
C39_28 C 0.97793(13) 0.37030(13) 0.55308(10)
C40_20 C 0.87970(13) 0.47793(13) 0.69692(10)
C41_28 C 0.87970(13) 0.19692(10) 0.47793(13)
H22_20 H 0.7904 0.2320 0.6233
H23_28 H 0.9596 0.1233 0.5180
H24_28 H 0.9820 0.3767 0.5404
H25_20 H 0.8733 0.4820 0.7096
H26_28 H 0.8733 0.2096 0.4820
C42_20 C 0.80371(10) 0.21063(11) 0.64254(12)
C43_28 C 0.94629(10) 0.14254(12) 0.53937(11)
C44_28 C 0.96063(11) 0.35746(12) 0.55371(10)
C45_20 C 0.89254(12) 0.46063(11) 0.69629(10)
C46_28 C 0.89254(12) 0.19629(10) 0.46063(11)
H27_20 H 0.7918 0.2020 0.6442
H28_28 H 0.9582 0.1442 0.5480
H29_28 H 0.9520 0.3558 0.5418
H30_20 H 0.8942 0.4520 0.7082
H31_28 H 0.8942 0.2082 0.4520
C47_20 C 0.82208(9) 0.20629(9) 0.65287(9)
C48_28 C 0.92792(9) 0.15287(9) 0.54371(9)
C49_28 C 0.95629(9) 0.34713(9) 0.57208(9)
C50_20 C 0.90287(9) 0.45629(9) 0.67792(9)
C51_28 C 0.90287(9) 0.17792(9) 0.45629(9)
C52_20 C 0.83931(8) 0.21884(8) 0.64920(8)
C53_28 C 0.91069(8) 0.14920(8) 0.53116(8)
C54_28 C 0.96884(8) 0.35080(8) 0.58931(8)
C55_20 C 0.89920(8) 0.46884(8) 0.66069(8)
C56_28 C 0.89920(8) 0.16069(8) 0.46884(8)
H32_20 H 0.8518 0.2160 0.6567
H33_28 H 0.8982 0.1567 0.5340
H34_28 H 0.9660 0.3433 0.6018
H35_20 H 0.9067 0.4660 0.6482
H36_28 H 0.9067 0.1482 0.4660
C57_20 C 0.89078(10) 0.16521(10) 0.73483(10)
C58_28 C 0.85922(10) 0.23483(10) 0.58479(10)
C59_28 C 0.91521(10) 0.26517(10) 0.64078(10)
C60_20 C 0.98483(10) 0.41521(10) 0.60922(10)
C61_28 C 0.98483(10) 0.10922(10) 0.41521(10)
H37_20 H 0.9016 0.1641 0.7449
H38_28 H 0.8484 0.2449 0.5859
H39_28 H 0.9141 0.2551 0.6516
H40_20 H 0.9949 0.4141 0.5984
H41_28 H 0.9949 0.0984 0.4141
C62_20 C 0.89010(11) 0.18286(12) 0.72252(12)
C63_28 C 0.85990(11) 0.22252(12) 0.56714(12)
C64_28 C 0.93286(12) 0.27748(12) 0.64010(11)
C65_20 C 0.97252(12) 0.43286(12) 0.60990(11)
C66_28 C 0.97252(12) 0.10990(11) 0.43286(12)
H42_20 H 0.9004 0.1934 0.7239
H43_28 H 0.8496 0.2239 0.5566
H44_28 H 0.9434 0.2761 0.6504
H45_20 H 0.9739 0.4434 0.5996
H46_28 H 0.9739 0.0996 0.4434
C67_20 C 0.87406(10) 0.18503(11) 0.70803(10)
C68_28 C 0.87594(10) 0.20803(10) 0.56497(11)
C69_28 C 0.93503(11) 0.29197(10) 0.62406(10)
C70_20 C 0.95803(10) 0.43503(11) 0.62594(10)
C71_28 C 0.95803(10) 0.12594(10) 0.43503(11)
H47_20 H 0.8730 0.1972 0.6996
H48_28 H 0.8770 0.1996 0.5528
H49_28 H 0.9472 0.3004 0.6230
H50_20 H 0.9496 0.4472 0.6270
H51_28 H 0.9496 0.1270 0.4472
C72_20 C 0.85964(9) 0.16896(9) 0.70621(9)
C73_28 C 0.89036(9) 0.20621(9) 0.58104(9)
C74_28 C 0.91896(9) 0.29379(9) 0.60964(9)
C75_20 C 0.95621(9) 0.41896(9) 0.64036(9)
C76_28 C 0.95621(9) 0.14036(9) 0.41896(9)
C77_20 C 0.86154(8) 0.15194(8) 0.71916(8)
C78_28 C 0.88846(8) 0.21916(8) 0.59806(8)
C79_28 C 0.90194(8) 0.28084(8) 0.61154(8)
C80_20 C 0.96916(8) 0.40194(8) 0.63846(8)
C81_28 C 0.96916(8) 0.13846(8) 0.40194(8)
H52_20 H 0.8514 0.1412 0.7181
H53_28 H 0.8986 0.2181 0.6088
H54_28 H 0.8912 0.2819 0.6014
H55_20 H 0.9681 0.3912 0.6486
H56_28 H 0.9681 0.1486 0.3912
C82_20 C 0.84252(8) 0.17005(8) 0.69079(8)
C83_28 C 0.90748(8) 0.19079(8) 0.57995(8)
C84_28 C 0.92005(8) 0.30921(8) 0.59252(8)
C85_20 C 0.94079(8) 0.42005(8) 0.65748(8)
C86_28 C 0.94079(8) 0.15748(8) 0.42005(8)
C87_20 C 0.82459(9) 0.18765(9) 0.66620(8)
C88_28 C 0.92541(9) 0.16620(8) 0.56235(9)
C89_28 C 0.93765(9) 0.33380(8) 0.57459(9)
C90_20 C 0.91620(8) 0.43765(9) 0.67541(9)
C91_28 C 0.91620(8) 0.17541(9) 0.43765(9)
C92_20 C 0.81522(9) 0.15522(9) 0.67465(8)
C93_28 C 0.93478(9) 0.17465(8) 0.59478(9)
C94_28 C 0.90522(9) 0.32535(8) 0.56522(9)
C95_20 C 0.92465(8) 0.40522(9) 0.68478(9)
C96_28 C 0.92465(8) 0.18478(9) 0.40522(9)
C97_20 C 0.80228(10) 0.13666(10) 0.67032(9)
C98_28 C 0.94772(10) 0.17032(9) 0.61334(10)
C99_28 C 0.88666(10) 0.32968(9) 0.55228(10)
C100_20 C 0.92032(9) 0.38666(10) 0.69772(10)
C101_28 C 0.92032(9) 0.19772(10) 0.38666(10)
C102_20 C 0.78803(9) 0.13696(9) 0.65403(8)
C103_28 C 0.96197(9) 0.15403(8) 0.61304(9)
C104_28 C 0.88696(9) 0.34597(8) 0.53803(9)
C105_20 C 0.90403(8) 0.38696(9) 0.71197(9)
C106_28 C 0.90403(8) 0.21197(9) 0.38696(9)
H57_20 H 0.7869 0.1493 0.6459
H58_28 H 0.9631 0.1459 0.6007
H59_28 H 0.8993 0.3541 0.5369
H60_20 H 0.8959 0.3993 0.7131
H61_28 H 0.8959 0.2131 0.3993
C107_20 C 0.77778(12) 0.10342(13) 0.66050(12)
C108_28 C 0.97222(12) 0.16050(12) 0.64658(13)
C109_28 C 0.85342(13) 0.33950(12) 0.52778(12)
C110_20 C 0.91050(12) 0.35342(13) 0.72222(12)
C111_28 C 0.91050(12) 0.22222(12) 0.35342(13)
H62_20 H 0.7694 0.0917 0.6569
H63_28 H 0.9806 0.1569 0.6583
H64_28 H 0.8417 0.3431 0.5194
H65_20 H 0.9069 0.3417 0.7306
H66_28 H 0.9069 0.2306 0.3417
C112_20 C 0.79123(14) 0.10179(16) 0.67691(15)
C113_28 C 0.95877(14) 0.17691(15) 0.64821(16)
C114_28 C 0.85179(16) 0.32309(15) 0.54123(14)
C115_20 C 0.92691(15) 0.35179(16) 0.70877(14)
C116_28 C 0.92691(15) 0.20877(14) 0.35179(16)
H67_20 H 0.7916 0.0893 0.6849
H68_28 H 0.9584 0.1849 0.6607
H69_28 H 0.8393 0.3151 0.5416
H70_20 H 0.9349 0.3393 0.7084
H71_28 H 0.9349 0.2084 0.3393
C117_20 C 0.80439(12) 0.11821(14) 0.68206(14)
C118_28 C 0.94561(12) 0.18206(14) 0.63179(14)
C119_28 C 0.86821(14) 0.31794(14) 0.55439(12)
C120_20 C 0.93206(14) 0.36821(14) 0.69561(12)
C121_28 C 0.93206(14) 0.19561(12) 0.36821(14)
H72_20 H 0.8144 0.1170 0.6930
H73_28 H 0.9356 0.1930 0.6330
H74_28 H 0.8670 0.3070 0.5644
H75_20 H 0.9430 0.3670 0.6856
H76_28 H 0.9430 0.1856 0.3670
C122_20 C 0.87871(9) 0.42481(12) 0.75068(12)
C123_20 C 0.74932(12) 0.17481(12) 0.62871(9)
C124_20 C 0.74932(12) 0.07519(12) 0.62129(9)
N11_32 N 0.85442(7) 0.27337(6) 0.61371(7)
N12_28 N 0.89558(7) 0.11371(7) 0.47663(6)
N13_28 N 0.86371(7) 0.14558(7) 0.52337(6)
N15_16 N 0.97663(6) 0.35442(7) 0.63629(7)
N16_20 N 0.83942(7) 0.23475(7) 0.63569(7)
N17_28 N 0.91058(7) 0.13569(7) 0.51525(7)
N18_16 N 0.98475(7) 0.36431(7) 0.58942(7)
N19_20 N 0.88569(7) 0.48475(7) 0.66058(7)
N20_28 N 0.88569(7) 0.16058(7) 0.48475(7)
N23_28 N 0.87292(7) 0.23329(7) 0.60042(7)
N24_28 N 0.89958(7) 0.26671(7) 0.62708(7)
N25_16 N 0.98329(7) 0.39958(7) 0.62292(7)
N26_28 N 0.98329(7) 0.12292(7) 0.39958(7)
N27_28 N 0.85042(7) 0.12708(7) 0.48329(7)
N28_16 N 0.87708(7) 0.10042(7) 0.51671(7)
N30_20 N 0.84064(8) 0.18759(7) 0.67974(7)
N31_28 N 0.90936(8) 0.17974(7) 0.56241(7)
N32_28 N 0.93759(7) 0.32026(7) 0.59064(8)
N33_20 N 0.92974(7) 0.43759(7) 0.65936(8)
N34_28 N 0.92974(7) 0.15936(8) 0.43759(7)
N35_20 N 0.83042(8) 0.15320(8) 0.68895(7)
N36_28 N 0.91958(8) 0.18895(7) 0.59680(8)
N37_28 N 0.90320(8) 0.31105(7) 0.58042(8)
N38_20 N 0.93895(7) 0.40320(8) 0.66958(8)
N39_28 N 0.93895(7) 0.16958(8) 0.40320(8)
N40_20 N 0.81145(8) 0.17230(8) 0.66331(7)
N41_28 N 0.93855(8) 0.16331(7) 0.57770(8)
N42_28 N 0.92230(8) 0.33669(7) 0.56145(8)
N43_20 N 0.91331(7) 0.42230(8) 0.68855(8)
N44_28 N 0.91331(7) 0.18855(8) 0.42230(8)
N45_20 N 0.77590(8) 0.12099(8) 0.64920(7)
N46_28 N 0.97410(8) 0.14920(7) 0.62901(8)
N47_16 N 0.87099(8) 0.35080(7) 0.52590(8)
N48_20 N 0.89920(7) 0.37099(8) 0.72410(8)
N49_28 N 0.89920(7) 0.22410(8) 0.37099(8)
N50_20 N 0.77590(8) 0.12901(8) 0.60080(7)
N52_20 N 0.87765(7) 0.40742(8) 0.74880(8)
N53_20 N 0.75120(8) 0.15742(8) 0.62765(7)
N54_20 N 0.75120(8) 0.09258(8) 0.62235(7)
N55_32 N 0.99880(8) 0.12765(7) 0.59258(8)
N56_32 N 0.99880(8) 0.12235(7) 0.65742(8)
S1_33 S 0.08505(3) 0.42338(3) 0.45957(3)
C1_33 C 0.10202(9) 0.40680(9) 0.46896(8)
C2_33 C 0.12624(11) 0.42893(10) 0.51080(11)
H1_33 H 0.1168 0.4294 0.4994
C3_33 C 0.12970(13) 0.44692(10) 0.52207(13)
H2_33 H 0.1233 0.4596 0.5180
C4_33 C 0.14254(12) 0.44629(10) 0.53937(11)
H3_33 H 0.1442 0.4582 0.5480
C5_33 C 0.15287(9) 0.42792(9) 0.54371(9)
C6_33 C 0.14920(8) 0.41069(8) 0.53116(8)
H4_33 H 0.1567 0.3982 0.5340
C7_33 C 0.23483(10) 0.35922(10) 0.58479(10)
H5_33 H 0.2449 0.3484 0.5859
C8_33 C 0.22252(12) 0.35990(11) 0.56714(12)
H6_33 H 0.2239 0.3496 0.5566
C9_33 C 0.20803(10) 0.37594(10) 0.56497(11)
H7_33 H 0.1996 0.3770 0.5528
C10_33 C 0.20621(9) 0.39036(9) 0.58104(9)
C11_33 C 0.21916(8) 0.38846(8) 0.59806(8)
H8_33 H 0.2181 0.3986 0.6088
C12_33 C 0.19079(8) 0.40748(8) 0.57995(8)
C13_33 C 0.16620(8) 0.42541(9) 0.56235(9)
C14_33 C 0.17465(8) 0.43478(9) 0.59478(9)
C15_33 C 0.17032(9) 0.44772(10) 0.61334(10)
C16_33 C 0.15403(8) 0.46197(9) 0.61304(9)
H9_33 H 0.1459 0.4631 0.6007
C17_33 C 0.16050(12) 0.47222(12) 0.64658(13)
H10_33 H 0.1569 0.4806 0.6583
C18_33 C 0.17691(15) 0.45877(14) 0.64821(16)
H11_33 H 0.1849 0.4584 0.6607
C19_33 C 0.18206(14) 0.44561(12) 0.63179(14)
H12_33 H 0.1930 0.4356 0.6330
N1_33 N 0.11371(7) 0.39558(7) 0.47663(6)
N2_33 N 0.13569(7) 0.41058(7) 0.51525(7)
N4_33 N 0.17974(7) 0.40936(8) 0.56241(7)
N5_33 N 0.18895(7) 0.41958(8) 0.59680(8)
N6_33 N 0.16331(7) 0.43855(8) 0.57770(8)
S3_33 S 0.17338(3) 0.33505(3) 0.54043(3)
S4_29 S 0.07662(3) 0.20957(3) 0.33505(3)
S5_29 S 0.16495(3) 0.29043(3) 0.42338(3)
C27_33 C 0.15680(9) 0.35202(9) 0.53104(8)
C28_29 C 0.09320(9) 0.21896(8) 0.35202(9)
C29_29 C 0.14798(9) 0.28104(8) 0.40680(9)
C33_29 C 0.07107(10) 0.26080(11) 0.37624(11)
C34_29 C 0.01080(11) 0.32107(10) 0.62376(11)
C36_29 C 0.12376(11) 0.23920(11) 0.42893(10)
H18_29 H 0.0706 0.2494 0.3668
H21_29 H 0.1332 0.2506 0.4294
C38_29 C 0.05308(10) 0.27207(13) 0.37970(13)
C39_29 C 0.02207(13) 0.30308(10) 0.62030(13)
C41_29 C 0.12030(13) 0.22793(13) 0.44692(10)
H23_29 H 0.0404 0.2680 0.3733
H24_29 H 0.0180 0.2904 0.6267
H26_29 H 0.1267 0.2320 0.4596
C43_29 C 0.05371(10) 0.28937(11) 0.39254(12)
C44_29 C 0.03937(11) 0.30371(10) 0.60746(12)
C46_29 C 0.10746(12) 0.21063(11) 0.44629(10)
H28_29 H 0.0418 0.2980 0.3942
H29_29 H 0.0480 0.2918 0.6058
H31_29 H 0.1058 0.2020 0.4582
C48_29 C 0.07208(9) 0.29371(9) 0.40287(9)
C49_29 C 0.04371(9) 0.32208(9) 0.59713(9)
C51_29 C 0.09713(9) 0.20629(9) 0.42792(9)
C53_29 C 0.08931(8) 0.28116(8) 0.39920(8)
C54_29 C 0.03116(8) 0.33931(8) 0.60080(8)
C56_29 C 0.10080(8) 0.21884(8) 0.41069(8)
H33_29 H 0.1018 0.2840 0.4067
H34_29 H 0.0340 0.3518 0.5933
H36_29 H 0.0933 0.2160 0.3982
C58_29 C 0.14078(10) 0.33479(10) 0.48483(10)
C59_29 C 0.08479(10) 0.39078(10) 0.51517(10)
C61_29 C 0.01517(10) 0.16521(10) 0.35922(10)
H38_29 H 0.1516 0.3359 0.4949
H39_29 H 0.0859 0.4016 0.5051
H41_29 H 0.0051 0.1641 0.3484
C63_29 C 0.14010(11) 0.31714(12) 0.47252(12)
C64_29 C 0.06714(12) 0.39010(11) 0.52748(12)
C66_29 C 0.02748(12) 0.18286(12) 0.35990(11)
H43_29 H 0.1504 0.3066 0.4739
H44_29 H 0.0566 0.4004 0.5261
H46_29 H 0.0261 0.1934 0.3496
C68_29 C 0.12406(10) 0.31497(11) 0.45803(10)
C69_29 C 0.06497(11) 0.37406(10) 0.54197(10)
C71_29 C 0.04197(10) 0.18503(11) 0.37594(10)
H48_29 H 0.1230 0.3028 0.4496
H49_29 H 0.0528 0.3730 0.5504
H51_29 H 0.0504 0.1972 0.3770
C73_29 C 0.10964(9) 0.33104(9) 0.45621(9)
C74_29 C 0.08104(9) 0.35964(9) 0.54379(9)
C76_29 C 0.04379(9) 0.16896(9) 0.39036(9)
C78_29 C 0.11154(8) 0.34806(8) 0.46916(8)
C79_29 C 0.09806(8) 0.36154(8) 0.53084(8)
C81_29 C 0.03084(8) 0.15194(8) 0.38846(8)
H53_29 H 0.1014 0.3588 0.4681
H54_29 H 0.1088 0.3514 0.5319
H56_29 H 0.0319 0.1412 0.3986
C83_29 C 0.09252(8) 0.32995(8) 0.44079(8)
C84_29 C 0.07995(8) 0.34252(8) 0.55921(8)
C86_29 C 0.05921(8) 0.17005(8) 0.40748(8)
C88_29 C 0.07459(9) 0.31235(9) 0.41620(8)
C89_29 C 0.06235(9) 0.32459(9) 0.58380(8)
C91_29 C 0.08380(8) 0.18765(9) 0.42541(9)
C93_29 C 0.06522(9) 0.34478(9) 0.42465(8)
C94_29 C 0.09478(9) 0.31522(9) 0.57535(8)
C96_29 C 0.07535(8) 0.15522(9) 0.43478(9)
C98_29 C 0.05228(10) 0.36334(10) 0.42032(9)
C99_29 C 0.11334(10) 0.30228(10) 0.57968(9)
C101_29 C 0.07968(9) 0.13666(10) 0.44772(10)
C103_29 C 0.03803(9) 0.36304(9) 0.40403(8)
C104_29 C 0.11304(9) 0.28803(9) 0.59597(8)
C106_29 C 0.09597(8) 0.13696(9) 0.46197(9)
H58_29 H 0.0369 0.3507 0.3959
H59_29 H 0.1007 0.2869 0.6041
H61_29 H 0.1041 0.1493 0.4631
C108_29 C 0.02778(12) 0.39658(13) 0.41050(12)
C109_29 C 0.14658(13) 0.27778(12) 0.58950(12)
C111_29 C 0.08950(12) 0.10342(13) 0.47222(12)
H63_29 H 0.0194 0.4083 0.4069
H64_29 H 0.1583 0.2694 0.5931
H66_29 H 0.0931 0.0917 0.4806
C113_29 C 0.04123(14) 0.39821(16) 0.42691(15)
C114_29 C 0.14821(16) 0.29123(14) 0.57309(15)
C116_29 C 0.07309(15) 0.10179(16) 0.45877(14)
H68_29 H 0.0416 0.4107 0.4349
H69_29 H 0.1607 0.2916 0.5651
H71_29 H 0.0651 0.0893 0.4584
C118_29 C 0.05439(12) 0.38179(14) 0.43206(14)
C119_29 C 0.13179(14) 0.30439(12) 0.56794(14)
C121_29 C 0.06794(14) 0.11821(14) 0.44561(12)
H73_29 H 0.0644 0.3830 0.4430
H74_29 H 0.1330 0.3144 0.5570
H76_29 H 0.0570 0.1170 0.4356
N11_33 N 0.14558(7) 0.36371(7) 0.52337(6)
N12_29 N 0.10442(7) 0.22663(6) 0.36371(7)
N13_29 N 0.13629(7) 0.27337(6) 0.39558(7)
N17_29 N 0.08942(7) 0.26525(7) 0.38569(7)
N20_29 N 0.11431(7) 0.23475(7) 0.41058(7)
N23_29 N 0.12708(7) 0.35042(7) 0.48329(7)
N24_29 N 0.10042(7) 0.37708(7) 0.51671(7)
N26_29 N 0.01671(7) 0.14958(7) 0.37292(7)
N27_29 N 0.14958(7) 0.23329(7) 0.37708(7)
N31_29 N 0.09064(8) 0.31241(7) 0.42974(7)
N32_29 N 0.06241(7) 0.34064(8) 0.57026(7)
N34_29 N 0.07026(7) 0.18759(7) 0.40936(8)
N36_29 N 0.08042(8) 0.34680(8) 0.43895(7)
N37_29 N 0.09680(8) 0.33042(8) 0.56105(7)
N39_29 N 0.06105(7) 0.15320(8) 0.41958(8)
N41_29 N 0.06145(8) 0.32770(8) 0.41331(7)
N42_29 N 0.07770(8) 0.31145(8) 0.58669(7)
N44_29 N 0.08669(7) 0.17230(8) 0.43855(8)
N46_29 N 0.02590(8) 0.37901(8) 0.39920(7)
N49_29 N 0.10080(7) 0.12099(8) 0.47410(8)
N55_33 N 0.00120(8) 0.34258(8) 0.37765(7)
N56_33 N 0.00120(8) 0.40742(8) 0.37235(7)
S11_33 S 0.99626(4) 0.29995(7) 0.38014(4)
S12_33 S 0.99626(4) 0.45005(7) 0.36986(4)
H19_29 H 0.9994 0.3206 0.6332
C125_33 C 0.99932(12) 0.32519(12) 0.37871(9)
C126_33 C 0.99932(12) 0.42481(12) 0.37129(9)
N64_33 N 0.98043(7) 0.37549(7) 0.40127(7)
N65_33 N 0.98043(7) 0.37451(7) 0.34873(7)
C2_34 C 0.12376(11) 0.32107(10) 0.01080(11)
C3_34 C 0.12030(13) 0.30308(10) 0.02207(13)
H2_34 H 0.1267 0.2904 0.0180
C4_34 C 0.10746(12) 0.30371(10) 0.03937(11)
H3_34 H 0.1058 0.2918 0.0480
C5_34 C 0.09713(9) 0.32208(9) 0.04371(9)
C6_34 C 0.10080(8) 0.33931(8) 0.03116(8)
H4_34 H 0.0933 0.3518 0.0340
C7_34 C 0.01517(10) 0.39078(10) 0.08479(10)
H5_34 H 0.0051 0.4016 0.0859
C8_34 C 0.02748(12) 0.39010(11) 0.06714(12)
H6_34 H 0.0261 0.4004 0.0566
C9_34 C 0.04197(10) 0.37406(10) 0.06497(11)
H7_34 H 0.0504 0.3730 0.0528
C10_34 C 0.04379(9) 0.35964(9) 0.08104(9)
C11_34 C 0.03084(8) 0.36154(8) 0.09806(8)
H8_34 H 0.0319 0.3514 0.1088
C12_34 C 0.05921(8) 0.34252(8) 0.07995(8)
C13_34 C 0.08380(8) 0.32459(9) 0.06235(9)
C14_34 C 0.07535(8) 0.31522(9) 0.09478(9)
C15_34 C 0.07968(9) 0.30228(10) 0.11334(10)
C16_34 C 0.09597(8) 0.28803(9) 0.11304(9)
H9_34 H 0.1041 0.2869 0.1007
C17_34 C 0.08950(12) 0.27778(12) 0.14658(13)
H10_34 H 0.0931 0.2694 0.1583
C18_34 C 0.07309(15) 0.29123(14) 0.14821(16)
H11_34 H 0.0651 0.2916 0.1607
C19_34 C 0.06794(14) 0.30439(12) 0.13179(14)
H12_34 H 0.0570 0.3144 0.1330
N2_34 N 0.11431(7) 0.33942(7) 0.01525(7)
N4_34 N 0.07026(7) 0.34064(8) 0.06241(7)
N5_34 N 0.06105(7) 0.33042(8) 0.09680(8)
N6_34 N 0.08669(7) 0.31145(8) 0.07770(8)
S3_34 S 0.07662(3) 0.41495(3) 0.04043(3)
C27_34 C 0.09320(9) 0.39798(9) 0.03104(8)
C34_30 C 0.23920(11) 0.42893(10) 0.12376(11)
H19_30 H 0.2506 0.4294 0.1332
C39_30 C 0.22793(13) 0.44692(10) 0.12030(13)
H24_30 H 0.2320 0.4596 0.1267
C44_30 C 0.21063(11) 0.44629(10) 0.10746(12)
H29_30 H 0.2020 0.4582 0.1058
C49_30 C 0.20629(9) 0.42792(9) 0.09713(9)
C54_30 C 0.21884(8) 0.41069(8) 0.10080(8)
H34_30 H 0.2160 0.3982 0.0933
C59_30 C 0.16521(10) 0.35922(10) 0.01517(10)
H39_30 H 0.1641 0.3484 0.0051
C64_30 C 0.18286(12) 0.35990(11) 0.02748(12)
H44_30 H 0.1934 0.3496 0.0261
C69_30 C 0.18503(11) 0.37594(10) 0.04197(10)
H49_30 H 0.1972 0.3770 0.0504
C74_30 C 0.16896(9) 0.39036(9) 0.04379(9)
C79_30 C 0.15194(8) 0.38846(8) 0.03084(8)
H54_30 H 0.1412 0.3986 0.0319
C84_30 C 0.17005(8) 0.40748(8) 0.05921(8)
C89_30 C 0.18765(9) 0.42541(9) 0.08380(8)
C94_30 C 0.15522(9) 0.43478(9) 0.07535(8)
C99_30 C 0.13666(10) 0.44772(10) 0.07968(9)
C104_30 C 0.13696(9) 0.46197(9) 0.09597(8)
H59_30 H 0.1493 0.4631 0.1041
C109_30 C 0.10342(13) 0.47222(12) 0.08950(12)
H64_30 H 0.0917 0.4806 0.0931
C114_30 C 0.10179(16) 0.45877(14) 0.07309(15)
H69_30 H 0.0893 0.4584 0.0651
C119_30 C 0.11821(14) 0.44561(12) 0.06794(14)
H74_30 H 0.1170 0.4356 0.0570
N11_34 N 0.10442(7) 0.38629(7) 0.02337(6)
N24_30 N 0.14958(7) 0.37292(7) 0.01671(7)
N32_30 N 0.18759(7) 0.40936(8) 0.07026(7)
N37_30 N 0.15320(8) 0.41958(8) 0.06105(7)
N42_30 N 0.17230(8) 0.43855(8) 0.08669(7)
S1_34 S 0.16495(3) 0.32662(3) 0.95957(3)
C1_34 C 0.14798(9) 0.34320(9) 0.96896(8)
H1_34 H 0.1332 0.3206 0.9994
N1_34 N 0.13629(7) 0.35442(7) 0.97663(6)
S4_30 S 0.17338(3) 0.54043(3) 0.83505(3)
S5_30 S 0.08505(3) 0.45957(3) 0.92338(3)
S11_34 S 0.25374(4) 0.45005(7) 0.88014(4)
S12_34 S 0.25374(4) 0.29995(7) 0.86986(4)
C28_30 C 0.15680(9) 0.53104(8) 0.85202(9)
C29_30 C 0.10202(9) 0.46896(8) 0.90680(9)
C33_30 C 0.17893(10) 0.48920(11) 0.87624(11)
C36_30 C 0.12624(11) 0.51080(11) 0.92893(10)
H18_30 H 0.1794 0.5006 0.8668
H21_30 H 0.1168 0.4994 0.9294
C38_30 C 0.19692(10) 0.47793(13) 0.87970(13)
C41_30 C 0.12970(13) 0.52207(13) 0.94692(10)
H23_30 H 0.2096 0.4820 0.8733
H26_30 H 0.1233 0.5180 0.9596
C43_30 C 0.19629(10) 0.46063(11) 0.89254(12)
C46_30 C 0.14254(12) 0.53937(11) 0.94629(10)
H28_30 H 0.2082 0.4520 0.8942
H31_30 H 0.1442 0.5480 0.9582
C48_30 C 0.17792(9) 0.45629(9) 0.90287(9)
C51_30 C 0.15287(9) 0.54371(9) 0.92792(9)
C53_30 C 0.16069(8) 0.46884(8) 0.89920(8)
C56_30 C 0.14920(8) 0.53116(8) 0.91069(8)
H33_30 H 0.1482 0.4660 0.9067
H36_30 H 0.1567 0.5340 0.8982
C58_30 C 0.10922(10) 0.41521(10) 0.98483(10)
C61_30 C 0.23483(10) 0.58479(10) 0.85922(10)
H38_30 H 0.0984 0.4141 0.9949
H41_30 H 0.2449 0.5859 0.8484
C63_30 C 0.10990(11) 0.43286(12) 0.97252(12)
C66_30 C 0.22252(12) 0.56714(12) 0.85990(11)
H43_30 H 0.0996 0.4434 0.9739
H46_30 H 0.2239 0.5566 0.8496
C68_30 C 0.12594(10) 0.43503(11) 0.95803(10)
C71_30 C 0.20803(10) 0.56497(11) 0.87594(10)
H48_30 H 0.1270 0.4472 0.9496
H51_30 H 0.1996 0.5528 0.8770
C73_30 C 0.14036(9) 0.41896(9) 0.95621(9)
C76_30 C 0.20621(9) 0.58104(9) 0.89036(9)
C78_30 C 0.13846(8) 0.40194(8) 0.96916(8)
C81_30 C 0.21916(8) 0.59806(8) 0.88846(8)
H53_30 H 0.1486 0.3912 0.9681
H56_30 H 0.2181 0.6088 0.8986
C83_30 C 0.15748(8) 0.42005(8) 0.94079(8)
C86_30 C 0.19079(8) 0.57995(8) 0.90748(8)
C88_30 C 0.17541(9) 0.43765(9) 0.91620(8)
C91_30 C 0.16620(8) 0.56235(9) 0.92541(9)
C93_30 C 0.18478(9) 0.40522(9) 0.92465(8)
C96_30 C 0.17465(8) 0.59478(9) 0.93478(9)
C98_30 C 0.19772(10) 0.38666(10) 0.92032(9)
C101_30 C 0.17032(9) 0.61334(10) 0.94772(10)
C103_30 C 0.21197(9) 0.38696(9) 0.90403(8)
C106_30 C 0.15403(8) 0.61304(9) 0.96197(9)
H58_30 H 0.2131 0.3993 0.8959
H61_30 H 0.1459 0.6007 0.9631
C108_30 C 0.22222(12) 0.35342(13) 0.91050(12)
C111_30 C 0.16050(12) 0.64658(13) 0.97222(12)
H63_30 H 0.2306 0.3417 0.9069
H66_30 H 0.1569 0.6583 0.9806
C113_30 C 0.20877(14) 0.35179(16) 0.92691(15)
C116_30 C 0.17691(15) 0.64821(16) 0.95877(14)
H68_30 H 0.2084 0.3393 0.9349
H71_30 H 0.1849 0.6607 0.9584
C118_30 C 0.19561(12) 0.36821(14) 0.93206(14)
C121_30 C 0.18206(14) 0.63179(14) 0.94561(12)
H73_30 H 0.1856 0.3670 0.9430
H76_30 H 0.1930 0.6330 0.9356
C125_34 C 0.25068(12) 0.42481(12) 0.87871(9)
C126_34 C 0.25068(12) 0.32519(12) 0.87129(9)
N12_30 N 0.14558(7) 0.52337(6) 0.86371(7)
N13_30 N 0.11371(7) 0.47663(6) 0.89558(7)
N17_30 N 0.16058(7) 0.48475(7) 0.88569(7)
N20_30 N 0.13569(7) 0.51525(7) 0.91058(7)
N23_30 N 0.12292(7) 0.39958(7) 0.98329(7)
N26_30 N 0.23329(7) 0.60042(7) 0.87292(7)
N27_30 N 0.10042(7) 0.51671(7) 0.87708(7)
N31_30 N 0.15936(8) 0.43759(7) 0.92974(7)
N34_30 N 0.17974(7) 0.56241(7) 0.90936(8)
N36_30 N 0.16958(8) 0.40320(8) 0.93895(7)
N39_30 N 0.18895(7) 0.59680(8) 0.91958(8)
N41_30 N 0.18855(8) 0.42230(8) 0.91331(7)
N44_30 N 0.16331(7) 0.57770(8) 0.93855(8)
N46_30 N 0.22410(8) 0.37099(8) 0.89920(7)
N49_30 N 0.14920(7) 0.62901(8) 0.97410(8)
N55_34 N 0.24880(8) 0.40742(8) 0.87765(7)
N56_34 N 0.24880(8) 0.34258(8) 0.87235(7)
N64_34 N 0.26957(7) 0.37451(7) 0.90127(7)
N65_34 N 0.26957(7) 0.37549(7) 0.84873(7)
S4_31 S 0.57662(3) 0.04043(3) 0.41495(3)
C28_31 C 0.59320(9) 0.03104(8) 0.39798(9)
C36_31 C 0.62376(11) 0.01080(11) 0.32107(10)
H18_31 H 0.5706 0.0006 0.3832
C41_31 C 0.62030(13) 0.02207(13) 0.30308(10)
H26_31 H 0.6267 0.0180 0.2904
C46_31 C 0.60746(12) 0.03937(11) 0.30371(10)
H31_31 H 0.6058 0.0480 0.2918
C51_31 C 0.59713(9) 0.04371(9) 0.32208(9)
C56_31 C 0.60080(8) 0.03116(8) 0.33931(8)
H36_31 H 0.5933 0.0340 0.3518
C61_31 C 0.51517(10) 0.08479(10) 0.39078(10)
H41_31 H 0.5051 0.0859 0.4016
C66_31 C 0.52748(12) 0.06714(12) 0.39010(11)
H46_31 H 0.5261 0.0566 0.4004
C71_31 C 0.54197(10) 0.06497(11) 0.37406(10)
H51_31 H 0.5504 0.0528 0.3730
C76_31 C 0.54379(9) 0.08104(9) 0.35964(9)
C81_31 C 0.53084(8) 0.09806(8) 0.36154(8)
H56_31 H 0.5319 0.1088 0.3514
C86_31 C 0.55921(8) 0.07995(8) 0.34252(8)
C91_31 C 0.58380(8) 0.06235(9) 0.32459(9)
C96_31 C 0.57535(8) 0.09478(9) 0.31522(9)
C101_31 C 0.57968(9) 0.11334(10) 0.30228(10)
C106_31 C 0.59597(8) 0.11304(9) 0.28803(9)
H61_31 H 0.6041 0.1007 0.2869
C111_31 C 0.58950(12) 0.14658(13) 0.27778(12)
H66_31 H 0.5931 0.1583 0.2694
C116_31 C 0.57309(15) 0.14821(16) 0.29123(14)
H71_31 H 0.5651 0.1607 0.2916
C121_31 C 0.56794(14) 0.13179(14) 0.30439(12)
H76_31 H 0.5570 0.1330 0.3144
N12_31 N 0.60442(7) 0.02337(6) 0.38629(7)
N20_31 N 0.61431(7) 0.01525(7) 0.33942(7)
N26_31 N 0.51671(7) 0.10042(7) 0.37708(7)
N27_31 N 0.64958(7) 0.01671(7) 0.37292(7)
N34_31 N 0.57026(7) 0.06241(7) 0.34064(8)
N39_31 N 0.56105(7) 0.09680(8) 0.33042(8)
N44_31 N 0.58669(7) 0.07770(8) 0.31145(8)
N49_31 N 0.60080(7) 0.12901(8) 0.27590(8)
S1_35 S 0.58505(3) 0.82662(3) 0.29043(3)
C1_35 C 0.60202(9) 0.84320(9) 0.28104(8)
C2_35 C 0.62624(11) 0.82107(10) 0.23920(11)
H1_35 H 0.6168 0.8206 0.2506
C3_35 C 0.62970(13) 0.80308(10) 0.22793(13)
H2_35 H 0.6233 0.7904 0.2320
C4_35 C 0.64254(12) 0.80371(10) 0.21063(11)
H3_35 H 0.6442 0.7918 0.2020
C5_35 C 0.65287(9) 0.82208(9) 0.20629(9)
C6_35 C 0.64920(8) 0.83931(8) 0.21884(8)
H4_35 H 0.6567 0.8518 0.2160
C7_35 C 0.73483(10) 0.89078(10) 0.16521(10)
H5_35 H 0.7449 0.9016 0.1641
C8_35 C 0.72252(12) 0.89010(11) 0.18286(12)
H6_35 H 0.7239 0.9004 0.1934
C9_35 C 0.70803(10) 0.87406(10) 0.18503(11)
H7_35 H 0.6996 0.8730 0.1972
C10_35 C 0.70621(9) 0.85964(9) 0.16896(9)
C11_35 C 0.71916(8) 0.86154(8) 0.15194(8)
H8_35 H 0.7181 0.8514 0.1412
C12_35 C 0.69079(8) 0.84252(8) 0.17005(8)
C13_35 C 0.66620(8) 0.82459(9) 0.18765(9)
C14_35 C 0.67465(8) 0.81522(9) 0.15522(9)
C15_35 C 0.67032(9) 0.80228(10) 0.13666(10)
C16_35 C 0.65403(8) 0.78803(9) 0.13696(9)
H9_35 H 0.6459 0.7869 0.1493
C17_35 C 0.66050(12) 0.77778(12) 0.10342(13)
H10_35 H 0.6569 0.7694 0.0917
C18_35 C 0.67691(15) 0.79123(14) 0.10179(16)
H11_35 H 0.6849 0.7916 0.0893
C19_35 C 0.68206(14) 0.80439(12) 0.11821(14)
H12_35 H 0.6930 0.8144 0.1170
N1_35 N 0.61371(7) 0.85442(7) 0.27337(6)
N2_35 N 0.63569(7) 0.83942(7) 0.23475(7)
N4_35 N 0.67974(7) 0.84064(8) 0.18759(7)
N5_35 N 0.68895(7) 0.83042(8) 0.15320(8)
N6_35 N 0.66331(7) 0.81145(8) 0.17230(8)
S3_35 S 0.67338(3) 0.91495(3) 0.20957(3)
S5_31 S 0.66495(3) 0.95957(3) 0.32662(3)
S11_35 S 0.49626(4) 0.95005(7) 0.36986(4)
S12_35 S 0.49626(4) 0.79995(7) 0.38014(4)
C27_35 C 0.65680(9) 0.89798(9) 0.21896(8)
C29_31 C 0.64798(9) 0.96896(8) 0.34320(9)
C33_31 C 0.57107(10) 0.98920(11) 0.37376(11)
C34_31 C 0.51080(11) 0.92893(10) 0.12624(11)
H19_31 H 0.4994 0.9294 0.1168
H21_31 H 0.6332 0.9994 0.3206
C38_31 C 0.55308(10) 0.97793(13) 0.37030(13)
C39_31 C 0.52207(13) 0.94692(10) 0.12970(13)
H23_31 H 0.5404 0.9820 0.3767
H24_31 H 0.5180 0.9596 0.1233
C43_31 C 0.55371(10) 0.96063(11) 0.35746(12)
C44_31 C 0.53937(11) 0.94629(10) 0.14254(12)
H28_31 H 0.5418 0.9520 0.3558
H29_31 H 0.5480 0.9582 0.1442
C48_31 C 0.57208(9) 0.95629(9) 0.34713(9)
C49_31 C 0.54371(9) 0.92792(9) 0.15287(9)
C53_31 C 0.58931(8) 0.96884(8) 0.35080(8)
C54_31 C 0.53116(8) 0.91069(8) 0.14920(8)
H33_31 H 0.6018 0.9660 0.3433
H34_31 H 0.5340 0.8982 0.1567
C58_31 C 0.64078(10) 0.91521(10) 0.26517(10)
C59_31 C 0.58479(10) 0.85922(10) 0.23483(10)
H38_31 H 0.6516 0.9141 0.2551
H39_31 H 0.5859 0.8484 0.2449
C63_31 C 0.64010(11) 0.93286(12) 0.27748(12)
C64_31 C 0.56714(12) 0.85990(11) 0.22252(12)
H43_31 H 0.6504 0.9434 0.2761
H44_31 H 0.5566 0.8496 0.2239
C68_31 C 0.62406(10) 0.93503(11) 0.29197(10)
C69_31 C 0.56497(11) 0.87594(10) 0.20803(10)
H48_31 H 0.6230 0.9472 0.3004
H49_31 H 0.5528 0.8770 0.1996
C73_31 C 0.60964(9) 0.91896(9) 0.29379(9)
C74_31 C 0.58104(9) 0.89036(9) 0.20621(9)
C78_31 C 0.61154(8) 0.90194(8) 0.28084(8)
C79_31 C 0.59806(8) 0.88846(8) 0.21916(8)
H53_31 H 0.6014 0.8912 0.2819
H54_31 H 0.6088 0.8986 0.2181
C83_31 C 0.59252(8) 0.92005(8) 0.30921(8)
C84_31 C 0.57995(8) 0.90748(8) 0.19079(8)
C88_31 C 0.57459(9) 0.93765(9) 0.33380(8)
C89_31 C 0.56235(9) 0.92541(9) 0.16620(8)
C93_31 C 0.56522(9) 0.90522(9) 0.32535(8)
C94_31 C 0.59478(9) 0.93478(9) 0.17465(8)
C98_31 C 0.55228(10) 0.88666(10) 0.32968(9)
C99_31 C 0.61334(10) 0.94772(10) 0.17032(9)
C103_31 C 0.53803(9) 0.88696(9) 0.34597(8)
C104_31 C 0.61304(9) 0.96197(9) 0.15403(8)
H58_31 H 0.5369 0.8993 0.3541
H59_31 H 0.6007 0.9631 0.1459
C108_31 C 0.52778(12) 0.85342(13) 0.33950(12)
C109_31 C 0.64658(13) 0.97222(12) 0.16050(12)
H63_31 H 0.5194 0.8417 0.3431
H64_31 H 0.6583 0.9806 0.1569
C113_31 C 0.54123(14) 0.85179(16) 0.32309(15)
C114_31 C 0.64821(16) 0.95877(14) 0.17691(15)
H68_31 H 0.5416 0.8393 0.3151
H69_31 H 0.6607 0.9584 0.1849
C118_31 C 0.55439(12) 0.86821(14) 0.31794(14)
C119_31 C 0.63179(14) 0.94561(12) 0.18206(14)
H73_31 H 0.5644 0.8670 0.3070
H74_31 H 0.6330 0.9356 0.1930
C125_35 C 0.49932(12) 0.92481(12) 0.37129(9)
C126_35 C 0.49932(12) 0.82519(12) 0.37871(9)
N11_35 N 0.64558(7) 0.88629(7) 0.22663(6)
N13_31 N 0.63629(7) 0.97663(6) 0.35442(7)
N17_31 N 0.58942(7) 0.98475(7) 0.36431(7)
N23_31 N 0.62708(7) 0.89958(7) 0.26671(7)
N24_31 N 0.60042(7) 0.87292(7) 0.23329(7)
N31_31 N 0.59064(8) 0.93759(7) 0.32026(7)
N32_31 N 0.56241(7) 0.90936(8) 0.17974(7)
N36_31 N 0.58042(8) 0.90320(8) 0.31105(7)
N37_31 N 0.59680(8) 0.91958(8) 0.18895(7)
N41_31 N 0.56145(8) 0.92230(8) 0.33669(7)
N42_31 N 0.57770(8) 0.93855(8) 0.16331(7)
N46_31 N 0.52590(8) 0.87099(8) 0.35080(7)
N55_35 N 0.50120(8) 0.90742(8) 0.37235(7)
N56_35 N 0.50120(8) 0.84258(8) 0.37765(7)
N64_35 N 0.48043(7) 0.87451(7) 0.34873(7)
N65_35 N 0.48043(7) 0.87549(7) 0.40127(7)
S1_36 S 0.66495(3) 0.92338(3) 0.79043(3)
C1_36 C 0.64798(9) 0.90680(9) 0.78104(8)
C2_36 C 0.62376(11) 0.92893(10) 0.73920(11)
H1_36 H 0.6332 0.9294 0.7506
C3_36 C 0.62030(13) 0.94692(10) 0.72793(13)
H2_36 H 0.6267 0.9596 0.7320
C4_36 C 0.60746(12) 0.94629(10) 0.71063(11)
H3_36 H 0.6058 0.9582 0.7020
C5_36 C 0.59713(9) 0.92792(9) 0.70629(9)
C6_36 C 0.60080(8) 0.91069(8) 0.71884(8)
H4_36 H 0.5933 0.8982 0.7160
C7_36 C 0.51517(10) 0.85922(10) 0.66521(10)
H5_36 H 0.5051 0.8484 0.6641
C8_36 C 0.52748(12) 0.85990(11) 0.68286(12)
H6_36 H 0.5261 0.8496 0.6934
C9_36 C 0.54197(10) 0.87594(10) 0.68503(11)
H7_36 H 0.5504 0.8770 0.6972
C10_36 C 0.54379(9) 0.89036(9) 0.66896(9)
C11_36 C 0.53084(8) 0.88846(8) 0.65194(8)
H8_36 H 0.5319 0.8986 0.6412
C12_36 C 0.55921(8) 0.90748(8) 0.67005(8)
C13_36 C 0.58380(8) 0.92541(9) 0.68765(9)
C14_36 C 0.57535(8) 0.93478(9) 0.65522(9)
C15_36 C 0.57968(9) 0.94772(10) 0.63666(10)
C16_36 C 0.59597(8) 0.96197(9) 0.63696(9)
H9_36 H 0.6041 0.9631 0.6493
C17_36 C 0.58950(12) 0.97222(12) 0.60342(13)
H10_36 H 0.5931 0.9806 0.5917
C18_36 C 0.57309(15) 0.95877(14) 0.60179(16)
H11_36 H 0.5651 0.9584 0.5893
C19_36 C 0.56794(14) 0.94561(12) 0.61821(14)
H12_36 H 0.5570 0.9356 0.6170
N1_36 N 0.63629(7) 0.89558(7) 0.77337(6)
N2_36 N 0.61431(7) 0.91058(7) 0.73475(7)
N4_36 N 0.57026(7) 0.90936(8) 0.68759(7)
N5_36 N 0.56105(7) 0.91958(8) 0.65320(8)
N6_36 N 0.58669(7) 0.93855(8) 0.67230(8)
S3_36 S 0.57662(3) 0.83505(3) 0.70957(3)
S4_32 S 0.67338(3) 0.70957(3) 0.91495(3)
S5_32 S 0.58505(3) 0.79043(3) 0.82662(3)
S11_36 S 0.75374(4) 0.79995(7) 0.86986(4)
S12_36 S 0.75374(4) 0.95005(7) 0.88014(4)
C27_36 C 0.59320(9) 0.85202(9) 0.71896(8)
C28_32 C 0.65680(9) 0.71896(8) 0.89798(9)
C29_32 C 0.60202(9) 0.78104(8) 0.84320(9)
C33_32 C 0.67893(10) 0.76080(11) 0.87376(11)
C34_32 C 0.73920(11) 0.82107(10) 0.62624(11)
C36_32 C 0.62624(11) 0.73920(11) 0.82107(10)
H18_32 H 0.6794 0.7494 0.8832
H19_32 H 0.7506 0.8206 0.6168
H21_32 H 0.6168 0.7506 0.8206
C38_32 C 0.69692(10) 0.77207(13) 0.87030(13)
C39_32 C 0.72793(13) 0.80308(10) 0.62970(13)
C41_32 C 0.62970(13) 0.72793(13) 0.80308(10)
H23_32 H 0.7096 0.7680 0.8767
H24_32 H 0.7320 0.7904 0.6233
H26_32 H 0.6233 0.7320 0.7904
C43_32 C 0.69629(10) 0.78937(11) 0.85746(12)
C44_32 C 0.71063(11) 0.80371(10) 0.64254(12)
C46_32 C 0.64254(12) 0.71063(11) 0.80371(10)
H28_32 H 0.7082 0.7980 0.8558
H29_32 H 0.7020 0.7918 0.6442
H31_32 H 0.6442 0.7020 0.7918
C48_32 C 0.67792(9) 0.79371(9) 0.84713(9)
C49_32 C 0.70629(9) 0.82208(9) 0.65287(9)
C51_32 C 0.65287(9) 0.70629(9) 0.82208(9)
C53_32 C 0.66069(8) 0.78116(8) 0.85080(8)
C54_32 C 0.71884(8) 0.83931(8) 0.64920(8)
C56_32 C 0.64920(8) 0.71884(8) 0.83931(8)
H33_32 H 0.6482 0.7840 0.8433
H34_32 H 0.7160 0.8518 0.6567
H36_32 H 0.6567 0.7160 0.8518
C58_32 C 0.60922(10) 0.83479(10) 0.76517(10)
C59_32 C 0.66521(10) 0.89078(10) 0.73483(10)
C61_32 C 0.73483(10) 0.66521(10) 0.89078(10)
H38_32 H 0.5984 0.8359 0.7551
H39_32 H 0.6641 0.9016 0.7449
H41_32 H 0.7449 0.6641 0.9016
C63_32 C 0.60990(11) 0.81714(12) 0.77748(12)
C64_32 C 0.68286(12) 0.89010(11) 0.72252(12)
C66_32 C 0.72252(12) 0.68286(12) 0.89010(11)
H43_32 H 0.5996 0.8066 0.7761
H44_32 H 0.6934 0.9004 0.7239
H46_32 H 0.7239 0.6934 0.9004
C68_32 C 0.62594(10) 0.81497(11) 0.79197(10)
C69_32 C 0.68503(11) 0.87406(10) 0.70803(10)
C71_32 C 0.70803(10) 0.68503(11) 0.87406(10)
H48_32 H 0.6270 0.8028 0.8004
H49_32 H 0.6972 0.8730 0.6996
H51_32 H 0.6996 0.6972 0.8730
C73_32 C 0.64036(9) 0.83104(9) 0.79379(9)
C74_32 C 0.66896(9) 0.85964(9) 0.70621(9)
C76_32 C 0.70621(9) 0.66896(9) 0.85964(9)
C78_32 C 0.63846(8) 0.84806(8) 0.78084(8)
C79_32 C 0.65194(8) 0.86154(8) 0.71916(8)
C81_32 C 0.71916(8) 0.65194(8) 0.86154(8)
H53_32 H 0.6486 0.8588 0.7819
H54_32 H 0.6412 0.8514 0.7181
H56_32 H 0.7181 0.6412 0.8514
C83_32 C 0.65748(8) 0.82995(8) 0.80921(8)
C84_32 C 0.67005(8) 0.84252(8) 0.69079(8)
C86_32 C 0.69079(8) 0.67005(8) 0.84252(8)
C88_32 C 0.67541(9) 0.81235(9) 0.83380(8)
C89_32 C 0.68765(9) 0.82459(9) 0.66620(8)
C91_32 C 0.66620(8) 0.68765(9) 0.82459(9)
C93_32 C 0.68478(9) 0.84478(9) 0.82535(8)
C94_32 C 0.65522(9) 0.81522(9) 0.67465(8)
C96_32 C 0.67465(8) 0.65522(9) 0.81522(9)
C98_32 C 0.69772(10) 0.86334(10) 0.82968(9)
C99_32 C 0.63666(10) 0.80228(10) 0.67032(9)
C101_32 C 0.67032(9) 0.63666(10) 0.80228(10)
C103_32 C 0.71197(9) 0.86304(9) 0.84597(8)
C104_32 C 0.63696(9) 0.78803(9) 0.65403(8)
C106_32 C 0.65403(8) 0.63696(9) 0.78803(9)
H58_32 H 0.7131 0.8507 0.8541
H59_32 H 0.6493 0.7869 0.6459
H61_32 H 0.6459 0.6493 0.7869
C108_32 C 0.72222(12) 0.89658(13) 0.83950(12)
C109_32 C 0.60342(13) 0.77778(12) 0.66050(12)
C111_32 C 0.66050(12) 0.60342(13) 0.77778(12)
H63_32 H 0.7306 0.9083 0.8431
H64_32 H 0.5917 0.7694 0.6569
H66_32 H 0.6569 0.5917 0.7694
C113_32 C 0.70877(14) 0.89821(16) 0.82309(15)
C114_32 C 0.60179(16) 0.79123(14) 0.67691(15)
C116_32 C 0.67691(15) 0.60179(16) 0.79123(14)
H68_32 H 0.7084 0.9107 0.8151
H69_32 H 0.5893 0.7916 0.6849
H71_32 H 0.6849 0.5893 0.7916
C118_32 C 0.69561(12) 0.88179(14) 0.81794(14)
C119_32 C 0.61821(14) 0.80439(12) 0.68206(14)
C121_32 C 0.68206(14) 0.61821(14) 0.80439(12)
H73_32 H 0.6856 0.8830 0.8070
H74_32 H 0.6170 0.8144 0.6930
H76_32 H 0.6930 0.6170 0.8144
C125_36 C 0.75068(12) 0.82519(12) 0.87129(9)
C126_36 C 0.75068(12) 0.92481(12) 0.87871(9)
N11_36 N 0.60442(7) 0.86371(7) 0.72663(6)
N12_32 N 0.64558(7) 0.72663(6) 0.88629(7)
N13_32 N 0.61371(7) 0.77337(6) 0.85442(7)
N17_32 N 0.66058(7) 0.76525(7) 0.86431(7)
N20_32 N 0.63569(7) 0.73475(7) 0.83942(7)
N23_32 N 0.62292(7) 0.85042(7) 0.76671(7)
N24_32 N 0.64958(7) 0.87708(7) 0.73329(7)
N26_32 N 0.73329(7) 0.64958(7) 0.87708(7)
N27_32 N 0.60042(7) 0.73329(7) 0.87292(7)
N31_32 N 0.65936(8) 0.81241(7) 0.82026(7)
N32_32 N 0.68759(7) 0.84064(8) 0.67974(7)
N34_32 N 0.67974(7) 0.68759(7) 0.84064(8)
N36_32 N 0.66958(8) 0.84680(8) 0.81105(7)
N37_32 N 0.65320(8) 0.83042(8) 0.68895(7)
N39_32 N 0.68895(7) 0.65320(8) 0.83042(8)
N41_32 N 0.68855(8) 0.82770(8) 0.83669(7)
N42_32 N 0.67230(8) 0.81145(8) 0.66331(7)
N44_32 N 0.66331(7) 0.67230(8) 0.81145(8)
N46_32 N 0.72410(8) 0.87901(8) 0.85080(7)
N49_32 N 0.64920(7) 0.62099(8) 0.77590(8)
N55_36 N 0.74880(8) 0.84258(8) 0.87235(7)
N56_36 N 0.74880(8) 0.90742(8) 0.87765(7)
N64_36 N 0.76957(7) 0.87549(7) 0.84873(7)
N65_36 N 0.76957(7) 0.87451(7) 0.90127(7)
S1_37 S 0.42338(3) 0.79043(3) 0.16495(3)
C1_37 C 0.40680(9) 0.78104(8) 0.14798(9)
C2_37 C 0.42893(10) 0.73920(11) 0.12376(11)
H1_37 H 0.4294 0.7506 0.1332
C3_37 C 0.44692(10) 0.72793(13) 0.12030(13)
H2_37 H 0.4596 0.7320 0.1267
C4_37 C 0.44629(10) 0.71063(11) 0.10746(12)
H3_37 H 0.4582 0.7020 0.1058
C5_37 C 0.42792(9) 0.70629(9) 0.09713(9)
C6_37 C 0.41069(8) 0.71884(8) 0.10080(8)
H4_37 H 0.3982 0.7160 0.0933
C7_37 C 0.35922(10) 0.66521(10) 0.01517(10)
H5_37 H 0.3484 0.6641 0.0051
C8_37 C 0.35990(11) 0.68286(12) 0.02748(12)
H6_37 H 0.3496 0.6934 0.0261
C9_37 C 0.37594(10) 0.68503(11) 0.04197(10)
H7_37 H 0.3770 0.6972 0.0504
C10_37 C 0.39036(9) 0.66896(9) 0.04379(9)
C11_37 C 0.38846(8) 0.65194(8) 0.03084(8)
H8_37 H 0.3986 0.6412 0.0319
C12_37 C 0.40748(8) 0.67005(8) 0.05921(8)
C13_37 C 0.42541(9) 0.68765(9) 0.08380(8)
C14_37 C 0.43478(9) 0.65522(9) 0.07535(8)
C15_37 C 0.44772(10) 0.63666(10) 0.07968(9)
C16_37 C 0.46197(9) 0.63696(9) 0.09597(8)
H9_37 H 0.4631 0.6493 0.1041
C17_37 C 0.47222(12) 0.60342(13) 0.08950(12)
H10_37 H 0.4806 0.5917 0.0931
C18_37 C 0.45877(14) 0.60179(16) 0.07309(15)
H11_37 H 0.4584 0.5893 0.0651
C19_37 C 0.44561(12) 0.61821(14) 0.06794(14)
H12_37 H 0.4356 0.6170 0.0570
N1_37 N 0.39558(7) 0.77337(6) 0.13629(7)
N2_37 N 0.41058(7) 0.73475(7) 0.11431(7)
N4_37 N 0.40936(8) 0.68759(7) 0.07026(7)
N5_37 N 0.41958(8) 0.65320(8) 0.06105(7)
N6_37 N 0.43855(8) 0.67230(8) 0.08669(7)
S3_37 S 0.33505(3) 0.70957(3) 0.07662(3)
S11_37 S 0.29995(7) 0.86986(4) 0.25374(4)
S12_37 S 0.45005(7) 0.88014(4) 0.25374(4)
C27_37 C 0.35202(9) 0.71896(8) 0.09320(9)
C125_37 C 0.32519(12) 0.87129(9) 0.25068(12)
C126_37 C 0.42481(12) 0.87871(9) 0.25068(12)
N11_37 N 0.36371(7) 0.72663(6) 0.10442(7)
N55_37 N 0.34258(8) 0.87235(7) 0.24880(8)
N56_37 N 0.40742(8) 0.87765(7) 0.24880(8)
N64_37 N 0.37549(7) 0.84873(7) 0.26957(7)
N65_37 N 0.37451(7) 0.90127(7) 0.26957(7)
S1_38 S 0.32662(3) 0.29043(3) 0.08505(3)
C1_38 C 0.34320(9) 0.28104(8) 0.10202(9)
C2_38 C 0.32107(10) 0.23920(11) 0.12624(11)
H1_38 H 0.3206 0.2506 0.1168
C3_38 C 0.30308(10) 0.22793(13) 0.12970(13)
H2_38 H 0.2904 0.2320 0.1233
C4_38 C 0.30371(10) 0.21063(11) 0.14254(12)
H3_38 H 0.2918 0.2020 0.1442
C5_38 C 0.32208(9) 0.20629(9) 0.15287(9)
C6_38 C 0.33931(8) 0.21884(8) 0.14920(8)
H4_38 H 0.3518 0.2160 0.1567
C7_38 C 0.39078(10) 0.16521(10) 0.23483(10)
H5_38 H 0.4016 0.1641 0.2449
C8_38 C 0.39010(11) 0.18286(12) 0.22252(12)
H6_38 H 0.4004 0.1934 0.2239
C9_38 C 0.37406(10) 0.18503(11) 0.20803(10)
H7_38 H 0.3730 0.1972 0.1996
C10_38 C 0.35964(9) 0.16896(9) 0.20621(9)
C11_38 C 0.36154(8) 0.15194(8) 0.21916(8)
H8_38 H 0.3514 0.1412 0.2181
C12_38 C 0.34252(8) 0.17005(8) 0.19079(8)
C13_38 C 0.32459(9) 0.18765(9) 0.16620(8)
C14_38 C 0.31522(9) 0.15522(9) 0.17465(8)
C15_38 C 0.30228(10) 0.13666(10) 0.17032(9)
C16_38 C 0.28803(9) 0.13696(9) 0.15403(8)
H9_38 H 0.2869 0.1493 0.1459
C17_38 C 0.27778(12) 0.10342(13) 0.16050(12)
H10_38 H 0.2694 0.0917 0.1569
C18_38 C 0.29123(14) 0.10179(16) 0.17691(15)
H11_38 H 0.2916 0.0893 0.1849
C19_38 C 0.30439(12) 0.11821(14) 0.18206(14)
H12_38 H 0.3144 0.1170 0.1930
N1_38 N 0.35442(7) 0.27337(6) 0.11371(7)
N2_38 N 0.33942(7) 0.23475(7) 0.13569(7)
N4_38 N 0.34064(8) 0.18759(7) 0.17974(7)
N5_38 N 0.33042(8) 0.15320(8) 0.18895(7)
N6_38 N 0.31145(8) 0.17230(8) 0.16331(7)
S3_38 S 0.41495(3) 0.20957(3) 0.17338(3)
C27_38 C 0.39798(9) 0.21896(8) 0.15680(9)
N11_38 N 0.38629(7) 0.22663(6) 0.14558(7)
N55_38 N 0.40742(8) 0.37235(7) 0.00120(8)
N56_38 N 0.34258(8) 0.37765(7) 0.00120(8)
S11_38 S 0.45005(7) 0.36986(4) 0.99626(4)
S12_38 S 0.29995(7) 0.38014(4) 0.99626(4)
C125_38 C 0.42481(12) 0.37129(9) 0.99932(12)
C126_38 C 0.32519(12) 0.37871(9) 0.99932(12)
N64_38 N 0.37451(7) 0.34873(7) 0.98043(7)
N65_38 N 0.37549(7) 0.40127(7) 0.98043(7)
C2_39 C 0.82107(10) 0.01080(11) 0.62376(11)
C3_39 C 0.80308(10) 0.02207(13) 0.62030(13)
H2_39 H 0.7904 0.0180 0.6267
C4_39 C 0.80371(10) 0.03937(11) 0.60746(12)
H3_39 H 0.7918 0.0480 0.6058
C5_39 C 0.82208(9) 0.04371(9) 0.59713(9)
C6_39 C 0.83931(8) 0.03116(8) 0.60080(8)
H4_39 H 0.8518 0.0340 0.5933
C7_39 C 0.89078(10) 0.08479(10) 0.51517(10)
H5_39 H 0.9016 0.0859 0.5051
C8_39 C 0.89010(11) 0.06714(12) 0.52748(12)
H6_39 H 0.9004 0.0566 0.5261
C9_39 C 0.87406(10) 0.06497(11) 0.54197(10)
H7_39 H 0.8730 0.0528 0.5504
C10_39 C 0.85964(9) 0.08104(9) 0.54379(9)
C11_39 C 0.86154(8) 0.09806(8) 0.53084(8)
H8_39 H 0.8514 0.1088 0.5319
C12_39 C 0.84252(8) 0.07995(8) 0.55921(8)
C13_39 C 0.82459(9) 0.06235(9) 0.58380(8)
C14_39 C 0.81522(9) 0.09478(9) 0.57535(8)
C15_39 C 0.80228(10) 0.11334(10) 0.57968(9)
C16_39 C 0.78803(9) 0.11304(9) 0.59597(8)
H9_39 H 0.7869 0.1007 0.6041
C17_39 C 0.77778(12) 0.14658(13) 0.58950(12)
H10_39 H 0.7694 0.1583 0.5931
C18_39 C 0.79123(14) 0.14821(16) 0.57309(15)
H11_39 H 0.7916 0.1607 0.5651
C19_39 C 0.80439(12) 0.13179(14) 0.56794(14)
H12_39 H 0.8144 0.1330 0.5570
N2_39 N 0.83942(7) 0.01525(7) 0.61431(7)
N4_39 N 0.84064(8) 0.06241(7) 0.57026(7)
N5_39 N 0.83042(8) 0.09680(8) 0.56105(7)
N6_39 N 0.81145(8) 0.07770(8) 0.58669(7)
S3_39 S 0.91495(3) 0.04043(3) 0.57662(3)
C27_39 C 0.89798(9) 0.03104(8) 0.59320(9)
N11_39 N 0.88629(7) 0.02337(6) 0.60442(7)
S1_39 S 0.82662(3) 0.95957(3) 0.66495(3)
C1_39 C 0.84320(9) 0.96896(8) 0.64798(9)
H1_39 H 0.8206 0.9994 0.6332
N1_39 N 0.85442(7) 0.97663(6) 0.63629(7)
S11_39 S 0.95005(7) 0.88014(4) 0.75374(4)
S12_39 S 0.79995(7) 0.86986(4) 0.75374(4)
C125_39 C 0.92481(12) 0.87871(9) 0.75068(12)
C126_39 C 0.82519(12) 0.87129(9) 0.75068(12)
N55_39 N 0.90742(8) 0.87765(7) 0.74880(8)
N56_39 N 0.84258(8) 0.87235(7) 0.74880(8)
N64_39 N 0.87451(7) 0.90127(7) 0.76957(7)
N65_39 N 0.87549(7) 0.84873(7) 0.76957(7)
S1_40 S 0.92338(3) 0.45957(3) 0.58505(3)
C1_40 C 0.90680(9) 0.46896(8) 0.60202(9)
C2_40 C 0.92893(10) 0.51080(11) 0.62624(11)
H1_40 H 0.9294 0.4994 0.6168
C3_40 C 0.94692(10) 0.52207(13) 0.62970(13)
H2_40 H 0.9596 0.5180 0.6233
C4_40 C 0.94629(10) 0.53937(11) 0.64254(12)
H3_40 H 0.9582 0.5480 0.6442
C5_40 C 0.92792(9) 0.54371(9) 0.65287(9)
C6_40 C 0.91069(8) 0.53116(8) 0.64920(8)
H4_40 H 0.8982 0.5340 0.6567
C7_40 C 0.85922(10) 0.58479(10) 0.73483(10)
H5_40 H 0.8484 0.5859 0.7449
C8_40 C 0.85990(11) 0.56714(12) 0.72252(12)
H6_40 H 0.8496 0.5566 0.7239
C9_40 C 0.87594(10) 0.56497(11) 0.70803(10)
H7_40 H 0.8770 0.5528 0.6996
C10_40 C 0.89036(9) 0.58104(9) 0.70621(9)
C11_40 C 0.88846(8) 0.59806(8) 0.71916(8)
H8_40 H 0.8986 0.6088 0.7181
C12_40 C 0.90748(8) 0.57995(8) 0.69079(8)
C13_40 C 0.92541(9) 0.56235(9) 0.66620(8)
C14_40 C 0.93478(9) 0.59478(9) 0.67465(8)
C15_40 C 0.94772(10) 0.61334(10) 0.67032(9)
C16_40 C 0.96197(9) 0.61304(9) 0.65403(8)
H9_40 H 0.9631 0.6007 0.6459
C17_40 C 0.97222(12) 0.64658(13) 0.66050(12)
H10_40 H 0.9806 0.6583 0.6569
C18_40 C 0.95877(14) 0.64821(16) 0.67691(15)
H11_40 H 0.9584 0.6607 0.6849
C19_40 C 0.94561(12) 0.63179(14) 0.68206(14)
H12_40 H 0.9356 0.6330 0.6930
N1_40 N 0.89558(7) 0.47663(6) 0.61371(7)
N2_40 N 0.91058(7) 0.51525(7) 0.63569(7)
N4_40 N 0.90936(8) 0.56241(7) 0.67974(7)
N5_40 N 0.91958(8) 0.59680(8) 0.68895(7)
N6_40 N 0.93855(8) 0.57770(8) 0.66331(7)
S3_40 S 0.83505(3) 0.54043(3) 0.67338(3)
S11_40 S 0.79995(7) 0.38014(4) 0.49626(4)
S12_40 S 0.95005(7) 0.36986(4) 0.49626(4)
C27_40 C 0.85202(9) 0.53104(8) 0.65680(9)
C125_40 C 0.82519(12) 0.37871(9) 0.49932(12)
C126_40 C 0.92481(12) 0.37129(9) 0.49932(12)
N11_40 N 0.86371(7) 0.52337(6) 0.64558(7)
N55_40 N 0.84258(8) 0.37765(7) 0.50120(8)
N56_40 N 0.90742(8) 0.37235(7) 0.50120(8)
N64_40 N 0.87549(7) 0.40127(7) 0.48043(7)
N65_40 N 0.87451(7) 0.34873(7) 0.48043(7)
S9_21 S 0.54995(7) 0.63014(4) 0.00374(4)
S10_21 S 0.70005(7) 0.61986(4) 0.00374(4)
C123_21 C 0.57519(12) 0.62871(9) 0.00068(12)
C124_21 C 0.67481(12) 0.62129(9) 0.00068(12)
S1_41 S 0.54043(3) 0.67338(3) 0.83505(3)
S2_21 S 0.45005(7) 0.75374(4) 0.88014(4)
C1_41 C 0.53104(8) 0.65680(9) 0.85202(9)
C2_41 C 0.48920(11) 0.67893(10) 0.87624(11)
H1_41 H 0.5006 0.6794 0.8668
C3_41 C 0.47793(13) 0.69692(10) 0.87970(13)
H2_41 H 0.4820 0.7096 0.8733
C4_41 C 0.46063(11) 0.69629(10) 0.89254(12)
H3_41 H 0.4520 0.7082 0.8942
C5_41 C 0.45629(9) 0.67792(9) 0.90287(9)
C6_41 C 0.46884(8) 0.66069(8) 0.89920(8)
H4_41 H 0.4660 0.6482 0.9067
C7_41 C 0.41521(10) 0.60922(10) 0.98483(10)
H5_41 H 0.4141 0.5984 0.9949
C8_41 C 0.43286(12) 0.60990(11) 0.97252(12)
H6_41 H 0.4434 0.5996 0.9739
C9_41 C 0.43503(11) 0.62594(10) 0.95803(10)
H7_41 H 0.4472 0.6270 0.9496
C10_41 C 0.41896(9) 0.64036(9) 0.95621(9)
C11_41 C 0.40194(8) 0.63846(8) 0.96916(8)
H8_41 H 0.3912 0.6486 0.9681
C12_41 C 0.42005(8) 0.65748(8) 0.94079(8)
C13_41 C 0.43765(9) 0.67541(9) 0.91620(8)
C14_41 C 0.40522(9) 0.68478(9) 0.92465(8)
C15_41 C 0.38666(10) 0.69772(10) 0.92032(9)
C16_41 C 0.38696(9) 0.71197(9) 0.90403(8)
H9_41 H 0.3993 0.7131 0.8959
C17_41 C 0.35342(13) 0.72222(12) 0.91050(12)
H10_41 H 0.3417 0.7306 0.9069
C18_41 C 0.35179(16) 0.70877(14) 0.92691(15)
H11_41 H 0.3393 0.7084 0.9349
C19_41 C 0.36821(14) 0.69561(12) 0.93206(14)
H12_41 H 0.3670 0.6856 0.9430
C20_21 C 0.42481(12) 0.75068(12) 0.87871(9)
N1_41 N 0.52337(6) 0.64558(7) 0.86371(7)
N2_41 N 0.48475(7) 0.66058(7) 0.88569(7)
N4_41 N 0.43759(7) 0.65936(8) 0.92974(7)
N5_41 N 0.40320(8) 0.66958(8) 0.93895(7)
N6_41 N 0.42230(8) 0.68855(8) 0.91331(7)
N7_21 N 0.37099(8) 0.72410(8) 0.89920(7)
N8_21 N 0.40742(8) 0.74880(8) 0.87765(7)
S3_41 S 0.45957(3) 0.58505(3) 0.92338(3)
S8_21 S 0.29995(7) 0.75374(4) 0.86986(4)
S11_41 S 0.61986(4) 0.54995(7) 0.74626(4)
S12_41 S 0.63014(4) 0.70005(7) 0.74626(4)
C27_41 C 0.46896(8) 0.60202(9) 0.90680(9)
C32_21 C 0.51080(11) 0.62624(11) 0.92893(10)
C35_21 C 0.26080(11) 0.67893(10) 0.87376(11)
H17_21 H 0.4994 0.6168 0.9294
H20_21 H 0.2494 0.6794 0.8832
C37_21 C 0.52207(13) 0.62970(13) 0.94692(10)
C40_21 C 0.27207(13) 0.69692(10) 0.87030(13)
H22_21 H 0.5180 0.6233 0.9596
H25_21 H 0.2680 0.7096 0.8767
C42_21 C 0.53937(11) 0.64254(12) 0.94629(10)
C45_21 C 0.28937(11) 0.69629(10) 0.85746(12)
H27_21 H 0.5480 0.6442 0.9582
H30_21 H 0.2980 0.7082 0.8558
C47_21 C 0.54371(9) 0.65287(9) 0.92792(9)
C50_21 C 0.29371(9) 0.67792(9) 0.84713(9)
C52_21 C 0.53116(8) 0.64920(8) 0.91069(8)
C55_21 C 0.28116(8) 0.66069(8) 0.85080(8)
H32_21 H 0.5340 0.6567 0.8982
H35_21 H 0.2840 0.6482 0.8433
C57_21 C 0.58479(10) 0.73483(10) 0.85922(10)
C60_21 C 0.33479(10) 0.60922(10) 0.76517(10)
H37_21 H 0.5859 0.7449 0.8484
H40_21 H 0.3359 0.5984 0.7551
C62_21 C 0.56714(12) 0.72252(12) 0.85990(11)
C65_21 C 0.31714(12) 0.60990(11) 0.77748(12)
H42_21 H 0.5566 0.7239 0.8496
H45_21 H 0.3066 0.5996 0.7761
C67_21 C 0.56497(11) 0.70803(10) 0.87594(10)
C70_21 C 0.31497(11) 0.62594(10) 0.79197(10)
H47_21 H 0.5528 0.6996 0.8770
H50_21 H 0.3028 0.6270 0.8004
C72_21 C 0.58104(9) 0.70621(9) 0.89036(9)
C75_21 C 0.33104(9) 0.64036(9) 0.79379(9)
C77_21 C 0.59806(8) 0.71916(8) 0.88846(8)
C80_21 C 0.34806(8) 0.63846(8) 0.78084(8)
H52_21 H 0.6088 0.7181 0.8986
H55_21 H 0.3588 0.6486 0.7819
C82_21 C 0.57995(8) 0.69079(8) 0.90748(8)
C85_21 C 0.32995(8) 0.65748(8) 0.80921(8)
C87_21 C 0.56235(9) 0.66620(8) 0.92541(9)
C90_21 C 0.31235(9) 0.67541(9) 0.83380(8)
C92_21 C 0.59478(9) 0.67465(8) 0.93478(9)
C95_21 C 0.34478(9) 0.68478(9) 0.82535(8)
C97_21 C 0.61334(10) 0.67032(9) 0.94772(10)
C100_21 C 0.36334(10) 0.69772(10) 0.82968(9)
C102_21 C 0.61304(9) 0.65403(8) 0.96197(9)
C105_21 C 0.36304(9) 0.71197(9) 0.84597(8)
H57_21 H 0.6007 0.6459 0.9631
H60_21 H 0.3507 0.7131 0.8541
C107_21 C 0.64658(13) 0.66050(12) 0.97222(12)
C110_21 C 0.39658(13) 0.72222(12) 0.83950(12)
H62_21 H 0.6583 0.6569 0.9806
H65_21 H 0.4083 0.7306 0.8431
C112_21 C 0.64821(16) 0.67691(15) 0.95877(14)
C115_21 C 0.39821(16) 0.70877(14) 0.82309(15)
H67_21 H 0.6607 0.6849 0.9584
H70_21 H 0.4107 0.7084 0.8151
C117_21 C 0.63179(14) 0.68206(14) 0.94561(12)
C120_21 C 0.38179(14) 0.69561(12) 0.81794(14)
H72_21 H 0.6330 0.6930 0.9356
H75_21 H 0.3830 0.6856 0.8070
C122_21 C 0.32519(12) 0.75068(12) 0.87129(9)
C125_41 C 0.62129(9) 0.57519(12) 0.74932(12)
C126_41 C 0.62871(9) 0.67481(12) 0.74932(12)
N11_41 N 0.47663(6) 0.61371(7) 0.89558(7)
N16_21 N 0.51525(7) 0.63569(7) 0.91058(7)
N19_21 N 0.26525(7) 0.66058(7) 0.86431(7)
N30_21 N 0.56241(7) 0.67974(7) 0.90936(8)
N33_21 N 0.31241(7) 0.65936(8) 0.82026(7)
N35_21 N 0.59680(8) 0.68895(7) 0.91958(8)
N38_21 N 0.34680(8) 0.66958(8) 0.81105(7)
N40_21 N 0.57770(8) 0.66331(7) 0.93855(8)
N43_21 N 0.32770(8) 0.68855(8) 0.83669(7)
N45_21 N 0.62901(8) 0.64920(7) 0.97410(8)
N48_21 N 0.37901(8) 0.72410(8) 0.85080(7)
N50_21 N 0.62099(8) 0.60080(7) 0.97410(8)
N52_21 N 0.34258(8) 0.74880(8) 0.87235(7)
N53_21 N 0.59258(8) 0.62765(7) 0.99880(8)
N54_21 N 0.65742(8) 0.62235(7) 0.99880(8)
N55_41 N 0.62235(7) 0.59258(8) 0.75120(8)
N56_41 N 0.62765(7) 0.65742(8) 0.75120(8)
N64_41 N 0.59873(7) 0.62549(7) 0.73043(7)
N65_41 N 0.65127(7) 0.62451(7) 0.73043(7)
S11_42 S 0.11986(4) 0.70005(7) 0.00374(4)
S12_42 S 0.13014(4) 0.54995(7) 0.00374(4)
C125_42 C 0.12129(9) 0.67481(12) 0.00068(12)
C126_42 C 0.12871(9) 0.57519(12) 0.00068(12)
N64_42 N 0.09873(7) 0.62451(7) 0.01957(7)
N65_42 N 0.15127(7) 0.62549(7) 0.01957(7)
S1_42 S 0.04043(3) 0.57662(3) 0.91495(3)
C1_42 C 0.03104(8) 0.59320(9) 0.89798(9)
H1_42 H 0.0006 0.5706 0.8832
N1_42 N 0.02337(6) 0.60442(7) 0.88629(7)
S9_22 S 0.04995(7) 0.61986(4) 0.74626(4)
S10_22 S 0.20005(7) 0.63014(4) 0.74626(4)
C32_22 C 0.01080(11) 0.62376(11) 0.82107(10)
C37_22 C 0.02207(13) 0.62030(13) 0.80308(10)
H22_22 H 0.0180 0.6267 0.7904
C42_22 C 0.03937(11) 0.60746(12) 0.80371(10)
H27_22 H 0.0480 0.6058 0.7918
C47_22 C 0.04371(9) 0.59713(9) 0.82208(9)
C52_22 C 0.03116(8) 0.60080(8) 0.83931(8)
H32_22 H 0.0340 0.5933 0.8518
C57_22 C 0.08479(10) 0.51517(10) 0.89078(10)
H37_22 H 0.0859 0.5051 0.9016
C62_22 C 0.06714(12) 0.52748(12) 0.89010(11)
H42_22 H 0.0566 0.5261 0.9004
C67_22 C 0.06497(11) 0.54197(10) 0.87406(10)
H47_22 H 0.0528 0.5504 0.8730
C72_22 C 0.08104(9) 0.54379(9) 0.85964(9)
C77_22 C 0.09806(8) 0.53084(8) 0.86154(8)
H52_22 H 0.1088 0.5319 0.8514
C82_22 C 0.07995(8) 0.55921(8) 0.84252(8)
C87_22 C 0.06235(9) 0.58380(8) 0.82459(9)
C92_22 C 0.09478(9) 0.57535(8) 0.81522(9)
C97_22 C 0.11334(10) 0.57968(9) 0.80228(10)
C102_22 C 0.11304(9) 0.59597(8) 0.78803(9)
H57_22 H 0.1007 0.6041 0.7869
C107_22 C 0.14658(13) 0.58950(12) 0.77778(12)
H62_22 H 0.1583 0.5931 0.7694
C112_22 C 0.14821(16) 0.57309(15) 0.79123(14)
H67_22 H 0.1607 0.5651 0.7916
C117_22 C 0.13179(14) 0.56794(14) 0.80439(12)
H72_22 H 0.1330 0.5570 0.8144
C123_22 C 0.07519(12) 0.62129(9) 0.74932(12)
C124_22 C 0.17481(12) 0.62871(9) 0.74932(12)
N16_22 N 0.01525(7) 0.61431(7) 0.83942(7)
N30_22 N 0.06241(7) 0.57026(7) 0.84064(8)
N35_22 N 0.09680(8) 0.56105(7) 0.83042(8)
N40_22 N 0.07770(8) 0.58669(7) 0.81145(8)
N45_22 N 0.12901(8) 0.60080(7) 0.77590(8)
N50_22 N 0.12099(8) 0.64920(7) 0.77590(8)
N53_22 N 0.09258(8) 0.62235(7) 0.75120(8)
N54_22 N 0.15742(8) 0.62765(7) 0.75120(8)
N55_42 N 0.12235(7) 0.65742(8) 0.99880(8)
N56_42 N 0.12765(7) 0.59258(8) 0.99880(8)
S2_22 S 0.95005(7) 0.49626(4) 0.86986(4)
C2_42 C 0.98920(11) 0.57107(10) 0.87376(11)
C3_42 C 0.97793(13) 0.55308(10) 0.87030(13)
H2_42 H 0.9820 0.5404 0.8767
C4_42 C 0.96063(11) 0.55371(10) 0.85746(12)
H3_42 H 0.9520 0.5418 0.8558
C5_42 C 0.95629(9) 0.57208(9) 0.84713(9)
C6_42 C 0.96884(8) 0.58931(8) 0.85080(8)
H4_42 H 0.9660 0.6018 0.8433
C7_42 C 0.91521(10) 0.64078(10) 0.76517(10)
H5_42 H 0.9141 0.6516 0.7551
C8_42 C 0.93286(12) 0.64010(11) 0.77748(12)
H6_42 H 0.9434 0.6504 0.7761
C9_42 C 0.93503(11) 0.62406(10) 0.79197(10)
H7_42 H 0.9472 0.6230 0.8004
C10_42 C 0.91896(9) 0.60964(9) 0.79379(9)
C11_42 C 0.90194(8) 0.61154(8) 0.78084(8)
H8_42 H 0.8912 0.6014 0.7819
C12_42 C 0.92005(8) 0.59252(8) 0.80921(8)
C13_42 C 0.93765(9) 0.57459(9) 0.83380(8)
C14_42 C 0.90522(9) 0.56522(9) 0.82535(8)
C15_42 C 0.88666(10) 0.55228(10) 0.82968(9)
C16_42 C 0.88696(9) 0.53803(9) 0.84597(8)
H9_42 H 0.8993 0.5369 0.8541
C17_42 C 0.85342(13) 0.52778(12) 0.83950(12)
H10_42 H 0.8417 0.5194 0.8431
C18_42 C 0.85179(16) 0.54123(14) 0.82309(15)
H11_42 H 0.8393 0.5416 0.8151
C19_42 C 0.86821(14) 0.55439(12) 0.81794(14)
H12_42 H 0.8670 0.5644 0.8070
C20_22 C 0.92481(12) 0.49932(12) 0.87129(9)
N2_42 N 0.98475(7) 0.58942(7) 0.86431(7)
N4_42 N 0.93759(7) 0.59064(8) 0.82026(7)
N5_42 N 0.90320(8) 0.58042(8) 0.81105(7)
N6_42 N 0.92230(8) 0.56145(8) 0.83669(7)
N7_22 N 0.87099(8) 0.52590(8) 0.85080(7)
N8_22 N 0.90742(8) 0.50120(8) 0.87235(7)
S3_42 S 0.95957(3) 0.66495(3) 0.82662(3)
S8_22 S 0.79995(7) 0.49626(4) 0.88014(4)
C27_42 C 0.96896(8) 0.64798(9) 0.84320(9)
C35_22 C 0.76080(11) 0.57107(10) 0.87624(11)
H17_22 H 0.9994 0.6332 0.8206
H20_22 H 0.7494 0.5706 0.8668
C40_22 C 0.77207(13) 0.55308(10) 0.87970(13)
H25_22 H 0.7680 0.5404 0.8733
C45_22 C 0.78937(11) 0.55371(10) 0.89254(12)
H30_22 H 0.7980 0.5418 0.8942
C50_22 C 0.79371(9) 0.57208(9) 0.90287(9)
C55_22 C 0.78116(8) 0.58931(8) 0.89920(8)
H35_22 H 0.7840 0.6018 0.9067
C60_22 C 0.83479(10) 0.64078(10) 0.98483(10)
H40_22 H 0.8359 0.6516 0.9949
C65_22 C 0.81714(12) 0.64010(11) 0.97252(12)
H45_22 H 0.8066 0.6504 0.9739
C70_22 C 0.81497(11) 0.62406(10) 0.95803(10)
H50_22 H 0.8028 0.6230 0.9496
C75_22 C 0.83104(9) 0.60964(9) 0.95621(9)
C80_22 C 0.84806(8) 0.61154(8) 0.96916(8)
H55_22 H 0.8588 0.6014 0.9681
C85_22 C 0.82995(8) 0.59252(8) 0.94079(8)
C90_22 C 0.81235(9) 0.57459(9) 0.91620(8)
C95_22 C 0.84478(9) 0.56522(9) 0.92465(8)
C100_22 C 0.86334(10) 0.55228(10) 0.92032(9)
C105_22 C 0.86304(9) 0.53803(9) 0.90403(8)
H60_22 H 0.8507 0.5369 0.8959
C110_22 C 0.89658(13) 0.52778(12) 0.91050(12)
H65_22 H 0.9083 0.5194 0.9069
C115_22 C 0.89821(16) 0.54123(14) 0.92691(15)
H70_22 H 0.9107 0.5416 0.9349
C120_22 C 0.88179(14) 0.55439(12) 0.93206(14)
H75_22 H 0.8830 0.5644 0.9430
C122_22 C 0.82519(12) 0.49932(12) 0.87871(9)
N11_42 N 0.97663(6) 0.63629(7) 0.85442(7)
N19_22 N 0.76525(7) 0.58942(7) 0.88569(7)
N33_22 N 0.81241(7) 0.59064(8) 0.92974(7)
N38_22 N 0.84680(8) 0.58042(8) 0.93895(7)
N43_22 N 0.82770(8) 0.56145(8) 0.91331(7)
N48_22 N 0.87901(8) 0.52590(8) 0.89920(7)
N52_22 N 0.84258(8) 0.50120(8) 0.87765(7)
H20_23 H 0.0006 0.0706 0.3832
S1_43 S 0.70957(3) 0.07662(3) 0.33505(3)
C1_43 C 0.71896(8) 0.09320(9) 0.35202(9)
C2_43 C 0.76080(11) 0.07107(10) 0.37624(11)
H1_43 H 0.7494 0.0706 0.3668
C3_43 C 0.77207(13) 0.05308(10) 0.37970(13)
H2_43 H 0.7680 0.0404 0.3733
C4_43 C 0.78937(11) 0.05371(10) 0.39254(12)
H3_43 H 0.7980 0.0418 0.3942
C5_43 C 0.79371(9) 0.07208(9) 0.40287(9)
C6_43 C 0.78116(8) 0.08931(8) 0.39920(8)
H4_43 H 0.7840 0.1018 0.4067
C7_43 C 0.83479(10) 0.14078(10) 0.48483(10)
H5_43 H 0.8359 0.1516 0.4949
C8_43 C 0.81714(12) 0.14010(11) 0.47252(12)
H6_43 H 0.8066 0.1504 0.4739
C9_43 C 0.81497(11) 0.12406(10) 0.45803(10)
H7_43 H 0.8028 0.1230 0.4496
C10_43 C 0.83104(9) 0.10964(9) 0.45621(9)
C11_43 C 0.84806(8) 0.11154(8) 0.46916(8)
H8_43 H 0.8588 0.1014 0.4681
C12_43 C 0.82995(8) 0.09252(8) 0.44079(8)
C13_43 C 0.81235(9) 0.07459(9) 0.41620(8)
C14_43 C 0.84478(9) 0.06522(9) 0.42465(8)
C15_43 C 0.86334(10) 0.05228(10) 0.42032(9)
C16_43 C 0.86304(9) 0.03803(9) 0.40403(8)
H9_43 H 0.8507 0.0369 0.3959
C17_43 C 0.89658(13) 0.02778(12) 0.41050(12)
H10_43 H 0.9083 0.0194 0.4069
C18_43 C 0.89821(16) 0.04123(14) 0.42691(15)
H11_43 H 0.9107 0.0416 0.4349
C19_43 C 0.88179(14) 0.05439(12) 0.43206(14)
H12_43 H 0.8830 0.0644 0.4430
N1_43 N 0.72663(6) 0.10442(7) 0.36371(7)
N2_43 N 0.76525(7) 0.08942(7) 0.38569(7)
N4_43 N 0.81241(7) 0.09064(8) 0.42974(7)
N5_43 N 0.84680(8) 0.08042(8) 0.43895(7)
N6_43 N 0.82770(8) 0.06145(8) 0.41331(7)
N7_23 N 0.87901(8) 0.02590(8) 0.39920(7)
N8_23 N 0.84258(8) 0.00120(8) 0.37765(7)
S3_43 S 0.79043(3) 0.16495(3) 0.42338(3)
S9_23 S 0.70005(7) 0.11986(4) 0.50374(4)
S10_23 S 0.54995(7) 0.13014(4) 0.50374(4)
S11_43 S 0.63014(4) 0.20005(7) 0.24626(4)
S12_43 S 0.61986(4) 0.04995(7) 0.24626(4)
C27_43 C 0.78104(8) 0.14798(9) 0.40680(9)
C32_23 C 0.73920(11) 0.12376(11) 0.42893(10)
C35_23 C 0.98920(11) 0.07107(10) 0.37376(11)
H17_23 H 0.7506 0.1332 0.4294
C37_23 C 0.72793(13) 0.12030(13) 0.44692(10)
C40_23 C 0.97793(13) 0.05308(10) 0.37030(13)
H22_23 H 0.7320 0.1267 0.4596
H25_23 H 0.9820 0.0404 0.3767
C42_23 C 0.71063(11) 0.10746(12) 0.44629(10)
C45_23 C 0.96063(11) 0.05371(10) 0.35746(12)
H27_23 H 0.7020 0.1058 0.4582
H30_23 H 0.9520 0.0418 0.3558
C47_23 C 0.70629(9) 0.09713(9) 0.42792(9)
C50_23 C 0.95629(9) 0.07208(9) 0.34713(9)
C52_23 C 0.71884(8) 0.10080(8) 0.41069(8)
C55_23 C 0.96884(8) 0.08931(8) 0.35080(8)
H32_23 H 0.7160 0.0933 0.3982
H35_23 H 0.9660 0.1018 0.3433
C57_23 C 0.66521(10) 0.01517(10) 0.35922(10)
C60_23 C 0.91521(10) 0.14078(10) 0.26517(10)
H37_23 H 0.6641 0.0051 0.3484
H40_23 H 0.9141 0.1516 0.2551
C62_23 C 0.68286(12) 0.02748(12) 0.35990(11)
C65_23 C 0.93286(12) 0.14010(11) 0.27748(12)
H42_23 H 0.6934 0.0261 0.3496
H45_23 H 0.9434 0.1504 0.2761
C67_23 C 0.68503(11) 0.04197(10) 0.37594(10)
C70_23 C 0.93503(11) 0.12406(10) 0.29197(10)
H47_23 H 0.6972 0.0504 0.3770
H50_23 H 0.9472 0.1230 0.3004
C72_23 C 0.66896(9) 0.04379(9) 0.39036(9)
C75_23 C 0.91896(9) 0.10964(9) 0.29379(9)
C77_23 C 0.65194(8) 0.03084(8) 0.38846(8)
C80_23 C 0.90194(8) 0.11154(8) 0.28084(8)
H52_23 H 0.6412 0.0319 0.3986
H55_23 H 0.8912 0.1014 0.2819
C82_23 C 0.67005(8) 0.05921(8) 0.40748(8)
C85_23 C 0.92005(8) 0.09252(8) 0.30921(8)
C87_23 C 0.68765(9) 0.08380(8) 0.42541(9)
C90_23 C 0.93765(9) 0.07459(9) 0.33380(8)
C92_23 C 0.65522(9) 0.07535(8) 0.43478(9)
C95_23 C 0.90522(9) 0.06522(9) 0.32535(8)
C97_23 C 0.63666(10) 0.07968(9) 0.44772(10)
C100_23 C 0.88666(10) 0.05228(10) 0.32968(9)
C102_23 C 0.63696(9) 0.09597(8) 0.46197(9)
C105_23 C 0.88696(9) 0.03803(9) 0.34597(8)
H57_23 H 0.6493 0.1041 0.4631
H60_23 H 0.8993 0.0369 0.3541
C107_23 C 0.60342(13) 0.08950(12) 0.47222(12)
C110_23 C 0.85342(13) 0.02778(12) 0.33950(12)
H62_23 H 0.5917 0.0931 0.4806
H65_23 H 0.8417 0.0194 0.3431
C112_23 C 0.60179(16) 0.07309(15) 0.45877(14)
C115_23 C 0.85179(16) 0.04123(14) 0.32309(15)
H67_23 H 0.5893 0.0651 0.4584
H70_23 H 0.8393 0.0416 0.3151
C117_23 C 0.61821(14) 0.06794(14) 0.44561(12)
C120_23 C 0.86821(14) 0.05439(12) 0.31794(14)
H72_23 H 0.6170 0.0570 0.4356
H75_23 H 0.8670 0.0644 0.3070
C123_23 C 0.67481(12) 0.12129(9) 0.50068(12)
C124_23 C 0.57519(12) 0.12871(9) 0.50068(12)
C125_43 C 0.62871(9) 0.17481(12) 0.24932(12)
C126_43 C 0.62129(9) 0.07519(12) 0.24932(12)
N11_43 N 0.77337(6) 0.13629(7) 0.39558(7)
N16_23 N 0.73475(7) 0.11431(7) 0.41058(7)
N19_23 N 0.98475(7) 0.08942(7) 0.36431(7)
N30_23 N 0.68759(7) 0.07026(7) 0.40936(8)
N33_23 N 0.93759(7) 0.09064(8) 0.32026(7)
N35_23 N 0.65320(8) 0.06105(7) 0.41958(8)
N38_23 N 0.90320(8) 0.08042(8) 0.31105(7)
N40_23 N 0.67230(8) 0.08669(7) 0.43855(8)
N43_23 N 0.92230(8) 0.06145(8) 0.33669(7)
N45_23 N 0.62099(8) 0.10080(7) 0.47410(8)
N48_23 N 0.87099(8) 0.02590(8) 0.35080(7)
N50_23 N 0.62901(8) 0.14920(7) 0.47410(8)
N52_23 N 0.90742(8) 0.00120(8) 0.37235(7)
N53_23 N 0.65742(8) 0.12235(7) 0.49880(8)
N54_23 N 0.59258(8) 0.12765(7) 0.49880(8)
N55_43 N 0.62765(7) 0.15742(8) 0.25120(8)
N56_43 N 0.62235(7) 0.09258(8) 0.25120(8)
N64_43 N 0.65127(7) 0.12451(7) 0.23043(7)
N65_43 N 0.59873(7) 0.12549(7) 0.23043(7)
S2_23 S 0.79995(7) 0.99626(4) 0.38014(4)
C20_23 C 0.82519(12) 0.99932(12) 0.37871(9)
S8_23 S 0.95005(7) 0.99626(4) 0.36986(4)
C122_23 C 0.92481(12) 0.99932(12) 0.37129(9)
S1_44 S 0.20957(3) 0.17338(3) 0.41495(3)
S2_24 S 0.29995(7) 0.25374(4) 0.36986(4)
C1_44 C 0.21896(8) 0.15680(9) 0.39798(9)
C2_44 C 0.26080(11) 0.17893(10) 0.37376(11)
H1_44 H 0.2494 0.1794 0.3832
C3_44 C 0.27207(13) 0.19692(10) 0.37030(13)
H2_44 H 0.2680 0.2096 0.3767
C4_44 C 0.28937(11) 0.19629(10) 0.35746(12)
H3_44 H 0.2980 0.2082 0.3558
C5_44 C 0.29371(9) 0.17792(9) 0.34713(9)
C6_44 C 0.28116(8) 0.16069(8) 0.35080(8)
H4_44 H 0.2840 0.1482 0.3433
C7_44 C 0.33479(10) 0.10922(10) 0.26517(10)
H5_44 H 0.3359 0.0984 0.2551
C8_44 C 0.31714(12) 0.10990(11) 0.27748(12)
H6_44 H 0.3066 0.0996 0.2761
C9_44 C 0.31497(11) 0.12594(10) 0.29197(10)
H7_44 H 0.3028 0.1270 0.3004
C10_44 C 0.33104(9) 0.14036(9) 0.29379(9)
C11_44 C 0.34806(8) 0.13846(8) 0.28084(8)
H8_44 H 0.3588 0.1486 0.2819
C12_44 C 0.32995(8) 0.15748(8) 0.30921(8)
C13_44 C 0.31235(9) 0.17541(9) 0.33380(8)
C14_44 C 0.34478(9) 0.18478(9) 0.32535(8)
C15_44 C 0.36334(10) 0.19772(10) 0.32968(9)
C16_44 C 0.36304(9) 0.21197(9) 0.34597(8)
H9_44 H 0.3507 0.2131 0.3541
C17_44 C 0.39658(13) 0.22222(12) 0.33950(12)
H10_44 H 0.4083 0.2306 0.3431
C18_44 C 0.39821(16) 0.20877(14) 0.32309(15)
H11_44 H 0.4107 0.2084 0.3151
C19_44 C 0.38179(14) 0.19561(12) 0.31794(14)
H12_44 H 0.3830 0.1856 0.3070
C20_24 C 0.32519(12) 0.25068(12) 0.37129(9)
N1_44 N 0.22663(6) 0.14558(7) 0.38629(7)
N2_44 N 0.26525(7) 0.16058(7) 0.36431(7)
N4_44 N 0.31241(7) 0.15936(8) 0.32026(7)
N5_44 N 0.34680(8) 0.16958(8) 0.31105(7)
N6_44 N 0.32770(8) 0.18855(8) 0.33669(7)
N7_24 N 0.37901(8) 0.22410(8) 0.35080(7)
N8_24 N 0.34258(8) 0.24880(8) 0.37235(7)
S3_44 S 0.29043(3) 0.08505(3) 0.32662(3)
S8_24 S 0.45005(7) 0.25374(4) 0.38014(4)
S9_24 S 0.20005(7) 0.13014(4) 0.24626(4)
S10_24 S 0.04995(7) 0.11986(4) 0.24626(4)
S11_44 S 0.13014(4) 0.04995(7) 0.50374(4)
S12_44 S 0.11986(4) 0.20005(7) 0.50374(4)
C27_44 C 0.28104(8) 0.10202(9) 0.34320(9)
C32_24 C 0.23920(11) 0.12624(11) 0.32107(10)
C35_24 C 0.48920(11) 0.17893(10) 0.37624(11)
H17_24 H 0.2506 0.1168 0.3206
H20_24 H 0.5006 0.1794 0.3668
C37_24 C 0.22793(13) 0.12970(13) 0.30308(10)
C40_24 C 0.47793(13) 0.19692(10) 0.37970(13)
H22_24 H 0.2320 0.1233 0.2904
H25_24 H 0.4820 0.2096 0.3733
C42_24 C 0.21063(11) 0.14254(12) 0.30371(10)
C45_24 C 0.46063(11) 0.19629(10) 0.39254(12)
H27_24 H 0.2020 0.1442 0.2918
H30_24 H 0.4520 0.2082 0.3942
C47_24 C 0.20629(9) 0.15287(9) 0.32208(9)
C50_24 C 0.45629(9) 0.17792(9) 0.40287(9)
C52_24 C 0.21884(8) 0.14920(8) 0.33931(8)
C55_24 C 0.46884(8) 0.16069(8) 0.39920(8)
H32_24 H 0.2160 0.1567 0.3518
H35_24 H 0.4660 0.1482 0.4067
C57_24 C 0.16521(10) 0.23483(10) 0.39078(10)
C60_24 C 0.41521(10) 0.10922(10) 0.48483(10)
H37_24 H 0.1641 0.2449 0.4016
H40_24 H 0.4141 0.0984 0.4949
C62_24 C 0.18286(12) 0.22252(12) 0.39010(11)
C65_24 C 0.43286(12) 0.10990(11) 0.47252(12)
H42_24 H 0.1934 0.2239 0.4004
H45_24 H 0.4434 0.0996 0.4739
C67_24 C 0.18503(11) 0.20803(10) 0.37406(10)
C70_24 C 0.43503(11) 0.12594(10) 0.45803(10)
H47_24 H 0.1972 0.1996 0.3730
H50_24 H 0.4472 0.1270 0.4496
C72_24 C 0.16896(9) 0.20621(9) 0.35964(9)
C75_24 C 0.41896(9) 0.14036(9) 0.45621(9)
C77_24 C 0.15194(8) 0.21916(8) 0.36154(8)
C80_24 C 0.40194(8) 0.13846(8) 0.46916(8)
H52_24 H 0.1412 0.2181 0.3514
H55_24 H 0.3912 0.1486 0.4681
C82_24 C 0.17005(8) 0.19079(8) 0.34252(8)
C85_24 C 0.42005(8) 0.15748(8) 0.44079(8)
C87_24 C 0.18765(9) 0.16620(8) 0.32459(9)
C90_24 C 0.43765(9) 0.17541(9) 0.41620(8)
C92_24 C 0.15522(9) 0.17465(8) 0.31522(9)
C95_24 C 0.40522(9) 0.18478(9) 0.42465(8)
C97_24 C 0.13666(10) 0.17032(9) 0.30228(10)
C100_24 C 0.38666(10) 0.19772(10) 0.42032(9)
C102_24 C 0.13696(9) 0.15403(8) 0.28803(9)
C105_24 C 0.38696(9) 0.21197(9) 0.40403(8)
H57_24 H 0.1493 0.1459 0.2869
H60_24 H 0.3993 0.2131 0.3959
C107_24 C 0.10342(13) 0.16050(12) 0.27778(12)
C110_24 C 0.35342(13) 0.22222(12) 0.41050(12)
H62_24 H 0.0917 0.1569 0.2694
H65_24 H 0.3417 0.2306 0.4069
C112_24 C 0.10179(16) 0.17691(15) 0.29123(14)
C115_24 C 0.35179(16) 0.20877(14) 0.42691(15)
H67_24 H 0.0893 0.1849 0.2916
H70_24 H 0.3393 0.2084 0.4349
C117_24 C 0.11821(14) 0.18206(14) 0.30439(12)
C120_24 C 0.36821(14) 0.19561(12) 0.43206(14)
H72_24 H 0.1170 0.1930 0.3144
H75_24 H 0.3670 0.1856 0.4430
C122_24 C 0.42481(12) 0.25068(12) 0.37871(9)
C123_24 C 0.17481(12) 0.12871(9) 0.24932(12)
C124_24 C 0.07519(12) 0.12129(9) 0.24932(12)
C125_44 C 0.12871(9) 0.07519(12) 0.50068(12)
C126_44 C 0.12129(9) 0.17481(12) 0.50068(12)
N11_44 N 0.27337(6) 0.11371(7) 0.35442(7)
N16_24 N 0.23475(7) 0.13569(7) 0.33942(7)
N19_24 N 0.48475(7) 0.16058(7) 0.38569(7)
N30_24 N 0.18759(7) 0.17974(7) 0.34064(8)
N33_24 N 0.43759(7) 0.15936(8) 0.42974(7)
N35_24 N 0.15320(8) 0.18895(7) 0.33042(8)
N38_24 N 0.40320(8) 0.16958(8) 0.43895(7)
N40_24 N 0.17230(8) 0.16331(7) 0.31145(8)
N43_24 N 0.42230(8) 0.18855(8) 0.41331(7)
N45_24 N 0.12099(8) 0.14920(7) 0.27590(8)
N48_24 N 0.37099(8) 0.22410(8) 0.39920(7)
N50_24 N 0.12901(8) 0.10080(7) 0.27590(8)
N52_24 N 0.40742(8) 0.24880(8) 0.37765(7)
N53_24 N 0.15742(8) 0.12765(7) 0.25120(8)
N54_24 N 0.09258(8) 0.12235(7) 0.25120(8)
N55_44 N 0.12765(7) 0.09258(8) 0.49880(8)
N56_44 N 0.12235(7) 0.15742(8) 0.49880(8)
N64_44 N 0.15127(7) 0.12549(7) 0.51957(7)
N65_44 N 0.09873(7) 0.12451(7) 0.51957(7)
S1_45 S 0.29043(3) 0.58505(3) 0.82662(3)
C1_45 C 0.28104(8) 0.60202(9) 0.84320(9)
C2_45 C 0.23920(11) 0.62624(11) 0.82107(10)
H1_45 H 0.2506 0.6168 0.8206
C3_45 C 0.22793(13) 0.62970(13) 0.80308(10)
H2_45 H 0.2320 0.6233 0.7904
C4_45 C 0.21063(11) 0.64254(12) 0.80371(10)
H3_45 H 0.2020 0.6442 0.7918
C5_45 C 0.20629(9) 0.65287(9) 0.82208(9)
C6_45 C 0.21884(8) 0.64920(8) 0.83931(8)
H4_45 H 0.2160 0.6567 0.8518
C7_45 C 0.16521(10) 0.73483(10) 0.89078(10)
H5_45 H 0.1641 0.7449 0.9016
C8_45 C 0.18286(12) 0.72252(12) 0.89010(11)
H6_45 H 0.1934 0.7239 0.9004
C9_45 C 0.18503(11) 0.70803(10) 0.87406(10)
H7_45 H 0.1972 0.6996 0.8730
C10_45 C 0.16896(9) 0.70621(9) 0.85964(9)
C11_45 C 0.15194(8) 0.71916(8) 0.86154(8)
H8_45 H 0.1412 0.7181 0.8514
C12_45 C 0.17005(8) 0.69079(8) 0.84252(8)
C13_45 C 0.18765(9) 0.66620(8) 0.82459(9)
C14_45 C 0.15522(9) 0.67465(8) 0.81522(9)
C15_45 C 0.13666(10) 0.67032(9) 0.80228(10)
C16_45 C 0.13696(9) 0.65403(8) 0.78803(9)
H9_45 H 0.1493 0.6459 0.7869
C17_45 C 0.10342(13) 0.66050(12) 0.77778(12)
H10_45 H 0.0917 0.6569 0.7694
C18_45 C 0.10179(16) 0.67691(15) 0.79123(14)
H11_45 H 0.0893 0.6849 0.7916
C19_45 C 0.11821(14) 0.68206(14) 0.80439(12)
H12_45 H 0.1170 0.6930 0.8144
N1_45 N 0.27337(6) 0.61371(7) 0.85442(7)
N2_45 N 0.23475(7) 0.63569(7) 0.83942(7)
N4_45 N 0.18759(7) 0.67974(7) 0.84064(8)
N5_45 N 0.15320(8) 0.68895(7) 0.83042(8)
N6_45 N 0.17230(8) 0.66331(7) 0.81145(8)
S3_45 S 0.20957(3) 0.67338(3) 0.91495(3)
S11_45 S 0.36986(4) 0.49626(4) 0.95005(7)
S12_45 S 0.38014(4) 0.49626(4) 0.79995(7)
C27_45 C 0.21896(8) 0.65680(9) 0.89798(9)
C125_45 C 0.37129(9) 0.49932(12) 0.92481(12)
C126_45 C 0.37871(9) 0.49932(12) 0.82519(12)
N11_45 N 0.22663(6) 0.64558(7) 0.88629(7)
N55_45 N 0.37235(7) 0.50120(8) 0.90742(8)
N56_45 N 0.37765(7) 0.50120(8) 0.84258(8)
N64_45 N 0.34873(7) 0.48043(7) 0.87451(7)
N65_45 N 0.40127(7) 0.48043(7) 0.87549(7)
S1_46 S 0.79043(3) 0.66495(3) 0.92338(3)
C1_46 C 0.78104(8) 0.64798(9) 0.90680(9)
C2_46 C 0.73920(11) 0.62376(11) 0.92893(10)
H1_46 H 0.7506 0.6332 0.9294
C3_46 C 0.72793(13) 0.62030(13) 0.94692(10)
H2_46 H 0.7320 0.6267 0.9596
C4_46 C 0.71063(11) 0.60746(12) 0.94629(10)
H3_46 H 0.7020 0.6058 0.9582
C5_46 C 0.70629(9) 0.59713(9) 0.92792(9)
C6_46 C 0.71884(8) 0.60080(8) 0.91069(8)
H4_46 H 0.7160 0.5933 0.8982
C7_46 C 0.66521(10) 0.51517(10) 0.85922(10)
H5_46 H 0.6641 0.5051 0.8484
C8_46 C 0.68286(12) 0.52748(12) 0.85990(11)
H6_46 H 0.6934 0.5261 0.8496
C9_46 C 0.68503(11) 0.54197(10) 0.87594(10)
H7_46 H 0.6972 0.5504 0.8770
C10_46 C 0.66896(9) 0.54379(9) 0.89036(9)
C11_46 C 0.65194(8) 0.53084(8) 0.88846(8)
H8_46 H 0.6412 0.5319 0.8986
C12_46 C 0.67005(8) 0.55921(8) 0.90748(8)
C13_46 C 0.68765(9) 0.58380(8) 0.92541(9)
C14_46 C 0.65522(9) 0.57535(8) 0.93478(9)
C15_46 C 0.63666(10) 0.57968(9) 0.94772(10)
C16_46 C 0.63696(9) 0.59597(8) 0.96197(9)
H9_46 H 0.6493 0.6041 0.9631
C17_46 C 0.60342(13) 0.58950(12) 0.97222(12)
H10_46 H 0.5917 0.5931 0.9806
C18_46 C 0.60179(16) 0.57309(15) 0.95877(14)
H11_46 H 0.5893 0.5651 0.9584
C19_46 C 0.61821(14) 0.56794(14) 0.94561(12)
H12_46 H 0.6170 0.5570 0.9356
N1_46 N 0.77337(6) 0.63629(7) 0.89558(7)
N2_46 N 0.73475(7) 0.61431(7) 0.91058(7)
N4_46 N 0.68759(7) 0.57026(7) 0.90936(8)
N5_46 N 0.65320(8) 0.56105(7) 0.91958(8)
N6_46 N 0.67230(8) 0.58669(7) 0.93855(8)
S3_46 S 0.70957(3) 0.57662(3) 0.83505(3)
S11_46 S 0.86986(4) 0.75374(4) 0.79995(7)
S12_46 S 0.88014(4) 0.75374(4) 0.95005(7)
C27_46 C 0.71896(8) 0.59320(9) 0.85202(9)
C125_46 C 0.87129(9) 0.75068(12) 0.82519(12)
C126_46 C 0.87871(9) 0.75068(12) 0.92481(12)
N11_46 N 0.72663(6) 0.60442(7) 0.86371(7)
N55_46 N 0.87235(7) 0.74880(8) 0.84258(8)
N56_46 N 0.87765(7) 0.74880(8) 0.90742(8)
N64_46 N 0.84873(7) 0.76957(7) 0.87549(7)
N65_46 N 0.90127(7) 0.76957(7) 0.87451(7)
S1_47 S 0.45957(3) 0.08505(3) 0.42338(3)
C1_47 C 0.46896(8) 0.10202(9) 0.40680(9)
C2_47 C 0.51080(11) 0.12624(11) 0.42893(10)
H1_47 H 0.4994 0.1168 0.4294
C3_47 C 0.52207(13) 0.12970(13) 0.44692(10)
H2_47 H 0.5180 0.1233 0.4596
C4_47 C 0.53937(11) 0.14254(12) 0.44629(10)
H3_47 H 0.5480 0.1442 0.4582
C5_47 C 0.54371(9) 0.15287(9) 0.42792(9)
C6_47 C 0.53116(8) 0.14920(8) 0.41069(8)
H4_47 H 0.5340 0.1567 0.3982
C7_47 C 0.58479(10) 0.23483(10) 0.35922(10)
H5_47 H 0.5859 0.2449 0.3484
C8_47 C 0.56714(12) 0.22252(12) 0.35990(11)
H6_47 H 0.5566 0.2239 0.3496
C9_47 C 0.56497(11) 0.20803(10) 0.37594(10)
H7_47 H 0.5528 0.1996 0.3770
C10_47 C 0.58104(9) 0.20621(9) 0.39036(9)
C11_47 C 0.59806(8) 0.21916(8) 0.38846(8)
H8_47 H 0.6088 0.2181 0.3986
C12_47 C 0.57995(8) 0.19079(8) 0.40748(8)
C13_47 C 0.56235(9) 0.16620(8) 0.42541(9)
C14_47 C 0.59478(9) 0.17465(8) 0.43478(9)
C15_47 C 0.61334(10) 0.17032(9) 0.44772(10)
C16_47 C 0.61304(9) 0.15403(8) 0.46197(9)
H9_47 H 0.6007 0.1459 0.4631
C17_47 C 0.64658(13) 0.16050(12) 0.47222(12)
H10_47 H 0.6583 0.1569 0.4806
C18_47 C 0.64821(16) 0.17691(15) 0.45877(14)
H11_47 H 0.6607 0.1849 0.4584
C19_47 C 0.63179(14) 0.18206(14) 0.44561(12)
H12_47 H 0.6330 0.1930 0.4356
N1_47 N 0.47663(6) 0.11371(7) 0.39558(7)
N2_47 N 0.51525(7) 0.13569(7) 0.41058(7)
N4_47 N 0.56241(7) 0.17974(7) 0.40936(8)
N5_47 N 0.59680(8) 0.18895(7) 0.41958(8)
N6_47 N 0.57770(8) 0.16331(7) 0.43855(8)
S3_47 S 0.54043(3) 0.17338(3) 0.33505(3)
C27_47 C 0.53104(8) 0.15680(9) 0.35202(9)
N11_47 N 0.52337(6) 0.14558(7) 0.36371(7)
N55_47 N 0.37765(7) 0.00120(8) 0.34258(8)
N56_47 N 0.37235(7) 0.00120(8) 0.40742(8)
S11_47 S 0.38014(4) 0.99626(4) 0.29995(7)
S12_47 S 0.36986(4) 0.99626(4) 0.45005(7)
C125_47 C 0.37871(9) 0.99932(12) 0.32519(12)
C126_47 C 0.37129(9) 0.99932(12) 0.42481(12)
N64_47 N 0.40127(7) 0.98043(7) 0.37549(7)
N65_47 N 0.34873(7) 0.98043(7) 0.37451(7)
C2_48 C 0.01080(11) 0.12376(11) 0.32107(10)
C3_48 C 0.02207(13) 0.12030(13) 0.30308(10)
H2_48 H 0.0180 0.1267 0.2904
C4_48 C 0.03937(11) 0.10746(12) 0.30371(10)
H3_48 H 0.0480 0.1058 0.2918
C5_48 C 0.04371(9) 0.09713(9) 0.32208(9)
C6_48 C 0.03116(8) 0.10080(8) 0.33931(8)
H4_48 H 0.0340 0.0933 0.3518
C7_48 C 0.08479(10) 0.01517(10) 0.39078(10)
H5_48 H 0.0859 0.0051 0.4016
C8_48 C 0.06714(12) 0.02748(12) 0.39010(11)
H6_48 H 0.0566 0.0261 0.4004
C9_48 C 0.06497(11) 0.04197(10) 0.37406(10)
H7_48 H 0.0528 0.0504 0.3730
C10_48 C 0.08104(9) 0.04379(9) 0.35964(9)
C11_48 C 0.09806(8) 0.03084(8) 0.36154(8)
H8_48 H 0.1088 0.0319 0.3514
C12_48 C 0.07995(8) 0.05921(8) 0.34252(8)
C13_48 C 0.06235(9) 0.08380(8) 0.32459(9)
C14_48 C 0.09478(9) 0.07535(8) 0.31522(9)
C15_48 C 0.11334(10) 0.07968(9) 0.30228(10)
C16_48 C 0.11304(9) 0.09597(8) 0.28803(9)
H9_48 H 0.1007 0.1041 0.2869
C17_48 C 0.14658(13) 0.08950(12) 0.27778(12)
H10_48 H 0.1583 0.0931 0.2694
C18_48 C 0.14821(16) 0.07309(15) 0.29123(14)
H11_48 H 0.1607 0.0651 0.2916
C19_48 C 0.13179(14) 0.06794(14) 0.30439(12)
H12_48 H 0.1330 0.0570 0.3144
N2_48 N 0.01525(7) 0.11431(7) 0.33942(7)
N4_48 N 0.06241(7) 0.07026(7) 0.34064(8)
N5_48 N 0.09680(8) 0.06105(7) 0.33042(8)
N6_48 N 0.07770(8) 0.08669(7) 0.31145(8)
S3_48 S 0.04043(3) 0.07662(3) 0.41495(3)
C27_48 C 0.03104(8) 0.09320(9) 0.39798(9)
N11_48 N 0.02337(6) 0.10442(7) 0.38629(7)
S1_48 S 0.95957(3) 0.16495(3) 0.32662(3)
C1_48 C 0.96896(8) 0.14798(9) 0.34320(9)
H1_48 H 0.9994 0.1332 0.3206
N1_48 N 0.97663(6) 0.13629(7) 0.35442(7)
S11_48 S 0.88014(4) 0.25374(4) 0.45005(7)
S12_48 S 0.86986(4) 0.25374(4) 0.29995(7)
C125_48 C 0.87871(9) 0.25068(12) 0.42481(12)
C126_48 C 0.87129(9) 0.25068(12) 0.32519(12)
N55_48 N 0.87765(7) 0.24880(8) 0.40742(8)
N56_48 N 0.87235(7) 0.24880(8) 0.34258(8)
N64_48 N 0.90127(7) 0.26957(7) 0.37451(7)
N65_48 N 0.84873(7) 0.26957(7) 0.37549(7)
C21_25 C 0.23305(12) 0.58254(11) 0.11237(10)
H13_25 H 0.2434 0.5837 0.1018
C22_25 C 0.22181(13) 0.56475(12) 0.11339(12)
H14_25 H 0.2244 0.5536 0.1039
C23_25 C 0.20637(12) 0.56295(12) 0.12850(11)
H15_25 H 0.1984 0.5505 0.1296
C24_25 C 0.20282(10) 0.57950(9) 0.14187(9)
C25_25 C 0.21543(9) 0.59707(8) 0.14003(8)
H16_25 H 0.2133 0.6083 0.1494
C26_25 C 0.18667(10) 0.57850(9) 0.15827(9)
N10_25 N 0.18667(8) 0.59343(7) 0.17250(8)
C127_25 C 0.16746(11) 0.63763(10) 0.23305(12)
C128_25 C 0.11237(10) 0.51695(12) 0.16746(11)
C129_9 C 0.23305(12) 0.66746(11) 0.13763(10)
C130_9 C 0.16746(11) 0.61237(10) 0.01695(12)
C131_9 C 0.11237(10) 0.73305(12) 0.08254(11)
H77_25 H 0.1663 0.6482 0.2434
H78_25 H 0.1018 0.5066 0.1663
H79_9 H 0.2434 0.6663 0.1482
H80_9 H 0.1663 0.6018 0.0066
H81_9 H 0.1018 0.7434 0.0837
C132_25 C 0.18525(12) 0.63661(12) 0.22181(13)
C133_25 C 0.11339(12) 0.52819(13) 0.18525(12)
C134_9 C 0.22181(13) 0.68525(12) 0.13661(12)
C135_9 C 0.18525(12) 0.61339(12) 0.02819(13)
C136_9 C 0.11339(12) 0.72181(13) 0.06475(12)
H82_25 H 0.1964 0.6461 0.2244
H83_25 H 0.1039 0.5256 0.1964
H84_9 H 0.2244 0.6964 0.1461
H85_9 H 0.1964 0.6039 0.0256
H86_9 H 0.1039 0.7244 0.0536
C137_25 C 0.18705(12) 0.62150(11) 0.20637(12)
C138_25 C 0.12850(11) 0.54363(12) 0.18705(12)
C139_9 C 0.20637(12) 0.68705(12) 0.12150(11)
C140_9 C 0.18705(12) 0.62850(11) 0.04363(12)
C141_9 C 0.12850(11) 0.70637(12) 0.06295(12)
H87_25 H 0.1995 0.6204 0.1984
H88_25 H 0.1296 0.5516 0.1995
H89_9 H 0.1984 0.6995 0.1204
H90_9 H 0.1995 0.6296 0.0516
H91_9 H 0.1296 0.6984 0.0505
C142_25 C 0.17050(9) 0.60813(9) 0.20282(10)
C143_25 C 0.14187(9) 0.54718(10) 0.17050(9)
C144_9 C 0.20282(10) 0.67050(9) 0.10813(9)
C145_9 C 0.17050(9) 0.64187(9) 0.04718(10)
C146_9 C 0.14187(9) 0.70282(10) 0.07950(9)
C147_25 C 0.15293(8) 0.60997(8) 0.21543(9)
C148_25 C 0.14003(8) 0.53457(9) 0.15293(8)
C149_9 C 0.21543(9) 0.65293(8) 0.10997(8)
C150_9 C 0.15293(8) 0.64003(8) 0.03457(9)
C151_9 C 0.14003(8) 0.71543(9) 0.09707(8)
H92_25 H 0.1417 0.6006 0.2133
H93_25 H 0.1494 0.5367 0.1417
H94_9 H 0.2133 0.6417 0.1006
H95_9 H 0.1417 0.6494 0.0367
H96_9 H 0.1494 0.7133 0.1083
C152_25 C 0.17150(9) 0.59173(9) 0.18667(10)
C153_25 C 0.15827(9) 0.56333(10) 0.17150(9)
C154_9 C 0.18667(10) 0.67150(9) 0.09173(9)
C155_9 C 0.17150(9) 0.65827(9) 0.06333(10)
C156_9 C 0.15827(9) 0.68667(10) 0.07850(9)
N66_25 N 0.15657(7) 0.57750(8) 0.18667(8)
N67_25 N 0.17250(8) 0.56333(8) 0.15657(7)
N68_9 N 0.18667(8) 0.65657(7) 0.07750(8)
N69_9 N 0.15657(7) 0.67250(8) 0.06333(8)
N70_9 N 0.17250(8) 0.68667(8) 0.09343(7)
C21_26 C 0.51695(12) 0.66746(11) 0.61237(10)
H13_26 H 0.5066 0.6663 0.6018
C22_26 C 0.52819(13) 0.68525(12) 0.61339(12)
H14_26 H 0.5256 0.6964 0.6039
C23_26 C 0.54363(12) 0.68705(12) 0.62850(11)
H15_26 H 0.5516 0.6995 0.6296
C24_26 C 0.54718(10) 0.67050(9) 0.64187(9)
C25_26 C 0.53457(9) 0.65293(8) 0.64003(8)
H16_26 H 0.5367 0.6417 0.6494
C26_26 C 0.56333(10) 0.67150(9) 0.65827(9)
N10_26 N 0.56333(8) 0.65657(7) 0.67250(8)
C127_26 C 0.58254(11) 0.61237(10) 0.73305(12)
C128_26 C 0.63763(10) 0.73305(12) 0.66746(11)
C129_10 C 0.51695(12) 0.58254(11) 0.63763(10)
C130_10 C 0.58254(11) 0.63763(10) 0.51695(12)
C131_10 C 0.63763(10) 0.51695(12) 0.58254(11)
H77_26 H 0.5837 0.6018 0.7434
H78_26 H 0.6482 0.7434 0.6663
H79_10 H 0.5066 0.5837 0.6482
H80_10 H 0.5837 0.6482 0.5066
H81_10 H 0.6482 0.5066 0.5837
C132_26 C 0.56475(12) 0.61339(12) 0.72181(13)
C133_26 C 0.63661(12) 0.72181(13) 0.68525(12)
C134_10 C 0.52819(13) 0.56475(12) 0.63661(12)
C135_10 C 0.56475(12) 0.63661(12) 0.52819(13)
C136_10 C 0.63661(12) 0.52819(13) 0.56475(12)
H82_26 H 0.5536 0.6039 0.7244
H83_26 H 0.6461 0.7244 0.6964
H84_10 H 0.5256 0.5536 0.6461
H85_10 H 0.5536 0.6461 0.5256
H86_10 H 0.6461 0.5256 0.5536
C137_26 C 0.56295(12) 0.62850(11) 0.70637(12)
C138_26 C 0.62150(11) 0.70637(12) 0.68705(12)
C139_10 C 0.54363(12) 0.56295(12) 0.62150(11)
C140_10 C 0.56295(12) 0.62150(11) 0.54363(12)
C141_10 C 0.62150(11) 0.54363(12) 0.56295(12)
H87_26 H 0.5505 0.6296 0.6984
H88_26 H 0.6204 0.6984 0.6995
H89_10 H 0.5516 0.5505 0.6204
H90_10 H 0.5505 0.6204 0.5516
H91_10 H 0.6204 0.5516 0.5505
C142_26 C 0.57950(9) 0.64187(9) 0.70282(10)
C143_26 C 0.60813(9) 0.70282(10) 0.67050(9)
C144_10 C 0.54718(10) 0.57950(9) 0.60813(9)
C145_10 C 0.57950(9) 0.60813(9) 0.54718(10)
C146_10 C 0.60813(9) 0.54718(10) 0.57950(9)
C147_26 C 0.59707(8) 0.64003(8) 0.71543(9)
C148_26 C 0.60997(8) 0.71543(9) 0.65293(8)
C149_10 C 0.53457(9) 0.59707(8) 0.60997(8)
C150_10 C 0.59707(8) 0.60997(8) 0.53457(9)
C151_10 C 0.60997(8) 0.53457(9) 0.59707(8)
H92_26 H 0.6083 0.6494 0.7133
H93_26 H 0.6006 0.7133 0.6417
H94_10 H 0.5367 0.6083 0.6006
H95_10 H 0.6083 0.6006 0.5367
H96_10 H 0.6006 0.5367 0.6083
C152_26 C 0.57850(9) 0.65827(9) 0.68667(10)
C153_26 C 0.59173(9) 0.68667(10) 0.67150(9)
C154_10 C 0.56333(10) 0.57850(9) 0.59173(9)
C155_10 C 0.57850(9) 0.59173(9) 0.56333(10)
C156_10 C 0.59173(9) 0.56333(10) 0.57850(9)
N66_26 N 0.59343(7) 0.67250(8) 0.68667(8)
N67_26 N 0.57750(8) 0.68667(8) 0.65657(7)
N68_10 N 0.56333(8) 0.59343(7) 0.57750(8)
N69_10 N 0.59343(7) 0.57750(8) 0.56333(8)
N70_10 N 0.57750(8) 0.56333(8) 0.59343(7)
C21_27 C 0.01695(12) 0.08254(11) 0.63763(10)
H13_27 H 0.0066 0.0837 0.6482
C22_27 C 0.02819(13) 0.06475(12) 0.63661(12)
H14_27 H 0.0256 0.0536 0.6461
C23_27 C 0.04363(12) 0.06295(12) 0.62150(11)
H15_27 H 0.0516 0.0505 0.6204
C24_27 C 0.04718(10) 0.07950(9) 0.60813(9)
C25_27 C 0.03457(9) 0.09707(8) 0.60997(8)
H16_27 H 0.0367 0.1083 0.6006
C26_27 C 0.06333(10) 0.07850(9) 0.59173(9)
N10_27 N 0.06333(8) 0.09343(7) 0.57750(8)
C127_27 C 0.08254(11) 0.13763(10) 0.51695(12)
C128_27 C 0.13763(10) 0.01695(12) 0.58254(11)
C129_11 C 0.01695(12) 0.16746(11) 0.61237(10)
C130_11 C 0.08254(11) 0.11237(10) 0.73305(12)
C131_11 C 0.13763(10) 0.23305(12) 0.66746(11)
H77_27 H 0.0837 0.1482 0.5066
H78_27 H 0.1482 0.0066 0.5837
H79_11 H 0.0066 0.1663 0.6018
H80_11 H 0.0837 0.1018 0.7434
H81_11 H 0.1482 0.2434 0.6663
C132_27 C 0.06475(12) 0.13661(12) 0.52819(13)
C133_27 C 0.13661(12) 0.02819(13) 0.56475(12)
C134_11 C 0.02819(13) 0.18525(12) 0.61339(12)
C135_11 C 0.06475(12) 0.11339(12) 0.72181(13)
C136_11 C 0.13661(12) 0.22181(13) 0.68525(12)
H82_27 H 0.0536 0.1461 0.5256
H83_27 H 0.1461 0.0256 0.5536
H84_11 H 0.0256 0.1964 0.6039
H85_11 H 0.0536 0.1039 0.7244
H86_11 H 0.1461 0.2244 0.6964
C137_27 C 0.06295(12) 0.12150(11) 0.54363(12)
C138_27 C 0.12150(11) 0.04363(12) 0.56295(12)
C139_11 C 0.04363(12) 0.18705(12) 0.62850(11)
C140_11 C 0.06295(12) 0.12850(11) 0.70637(12)
C141_11 C 0.12150(11) 0.20637(12) 0.68705(12)
H87_27 H 0.0505 0.1204 0.5516
H88_27 H 0.1204 0.0516 0.5505
H89_11 H 0.0516 0.1995 0.6296
H90_11 H 0.0505 0.1296 0.6984
H91_11 H 0.1204 0.1984 0.6995
C142_27 C 0.07950(9) 0.10813(9) 0.54718(10)
C143_27 C 0.10813(9) 0.04718(10) 0.57950(9)
C144_11 C 0.04718(10) 0.17050(9) 0.64187(9)
C145_11 C 0.07950(9) 0.14187(9) 0.70282(10)
C146_11 C 0.10813(9) 0.20282(10) 0.67050(9)
C147_27 C 0.09707(8) 0.10997(8) 0.53457(9)
C148_27 C 0.10997(8) 0.03457(9) 0.59707(8)
C149_11 C 0.03457(9) 0.15293(8) 0.64003(8)
C150_11 C 0.09707(8) 0.14003(8) 0.71543(9)
C151_11 C 0.10997(8) 0.21543(9) 0.65293(8)
H92_27 H 0.1083 0.1006 0.5367
H93_27 H 0.1006 0.0367 0.6083
H94_11 H 0.0367 0.1417 0.6494
H95_11 H 0.1083 0.1494 0.7133
H96_11 H 0.1006 0.2133 0.6417
C152_27 C 0.07850(9) 0.09173(9) 0.56333(10)
C153_27 C 0.09173(9) 0.06333(10) 0.57850(9)
C154_11 C 0.06333(10) 0.17150(9) 0.65827(9)
C155_11 C 0.07850(9) 0.15827(9) 0.68667(10)
C156_11 C 0.09173(9) 0.18667(10) 0.67150(9)
N66_27 N 0.09343(7) 0.07750(8) 0.56333(8)
N67_27 N 0.07750(8) 0.06333(8) 0.59343(7)
N68_11 N 0.06333(8) 0.15657(7) 0.67250(8)
N69_11 N 0.09343(7) 0.17250(8) 0.68667(8)
N70_11 N 0.07750(8) 0.18667(8) 0.65657(7)
C21_28 C 0.73305(12) 0.16746(11) 0.13763(10)
H13_28 H 0.7434 0.1663 0.1482
C22_28 C 0.72181(13) 0.18525(12) 0.13661(12)
H14_28 H 0.7244 0.1964 0.1461
C23_28 C 0.70637(12) 0.18705(12) 0.12150(11)
H15_28 H 0.6984 0.1995 0.1204
C24_28 C 0.70282(10) 0.17050(9) 0.10813(9)
C25_28 C 0.71543(9) 0.15293(8) 0.10997(8)
H16_28 H 0.7133 0.1417 0.1006
C26_28 C 0.68667(10) 0.17150(9) 0.09173(9)
N10_28 N 0.68667(8) 0.15657(7) 0.07750(8)
C127_28 C 0.66746(11) 0.11237(10) 0.01695(12)
C128_28 C 0.61237(10) 0.23305(12) 0.08254(11)
C129_12 C 0.73305(12) 0.08254(11) 0.11237(10)
C130_12 C 0.66746(11) 0.13763(10) 0.23305(12)
C131_12 C 0.61237(10) 0.01695(12) 0.16746(11)
H77_28 H 0.6663 0.1018 0.0066
H78_28 H 0.6018 0.2434 0.0837
H79_12 H 0.7434 0.0837 0.1018
H80_12 H 0.6663 0.1482 0.2434
H81_12 H 0.6018 0.0066 0.1663
C132_28 C 0.68525(12) 0.11339(12) 0.02819(13)
C133_28 C 0.61339(12) 0.22181(13) 0.06475(12)
C134_12 C 0.72181(13) 0.06475(12) 0.11339(12)
C135_12 C 0.68525(12) 0.13661(12) 0.22181(13)
C136_12 C 0.61339(12) 0.02819(13) 0.18525(12)
H82_28 H 0.6964 0.1039 0.0256
H83_28 H 0.6039 0.2244 0.0536
H84_12 H 0.7244 0.0536 0.1039
H85_12 H 0.6964 0.1461 0.2244
H86_12 H 0.6039 0.0256 0.1964
C137_28 C 0.68705(12) 0.12850(11) 0.04363(12)
C138_28 C 0.62850(11) 0.20637(12) 0.06295(12)
C139_12 C 0.70637(12) 0.06295(12) 0.12850(11)
C140_12 C 0.68705(12) 0.12150(11) 0.20637(12)
C141_12 C 0.62850(11) 0.04363(12) 0.18705(12)
H87_28 H 0.6995 0.1296 0.0516
H88_28 H 0.6296 0.1984 0.0505
H89_12 H 0.6984 0.0505 0.1296
H90_12 H 0.6995 0.1204 0.1984
H91_12 H 0.6296 0.0516 0.1995
C142_28 C 0.67050(9) 0.14187(9) 0.04718(10)
C143_28 C 0.64187(9) 0.20282(10) 0.07950(9)
C144_12 C 0.70282(10) 0.07950(9) 0.14187(9)
C145_12 C 0.67050(9) 0.10813(9) 0.20282(10)
C146_12 C 0.64187(9) 0.04718(10) 0.17050(9)
C147_28 C 0.65293(8) 0.14003(8) 0.03457(9)
C148_28 C 0.64003(8) 0.21543(9) 0.09707(8)
C149_12 C 0.71543(9) 0.09707(8) 0.14003(8)
C150_12 C 0.65293(8) 0.10997(8) 0.21543(9)
C151_12 C 0.64003(8) 0.03457(9) 0.15293(8)
H92_28 H 0.6417 0.1494 0.0367
H93_28 H 0.6494 0.2133 0.1083
H94_12 H 0.7133 0.1083 0.1494
H95_12 H 0.6417 0.1006 0.2133
H96_12 H 0.6494 0.0367 0.1417
C152_28 C 0.67150(9) 0.15827(9) 0.06333(10)
C153_28 C 0.65827(9) 0.18667(10) 0.07850(9)
C154_12 C 0.68667(10) 0.07850(9) 0.15827(9)
C155_12 C 0.67150(9) 0.09173(9) 0.18667(10)
C156_12 C 0.65827(9) 0.06333(10) 0.17150(9)
N66_28 N 0.65657(7) 0.17250(8) 0.06333(8)
N67_28 N 0.67250(8) 0.18667(8) 0.09343(7)
N68_12 N 0.68667(8) 0.09343(7) 0.17250(8)
N69_12 N 0.65657(7) 0.07750(8) 0.18667(8)
N70_12 N 0.67250(8) 0.06333(8) 0.15657(7)
C21_29 C 0.11237(10) 0.23305(12) 0.58254(11)
H13_29 H 0.1018 0.2434 0.5837
C22_29 C 0.11339(12) 0.22181(13) 0.56475(12)
H14_29 H 0.1039 0.2244 0.5536
C23_29 C 0.12850(11) 0.20637(12) 0.56295(12)
H15_29 H 0.1296 0.1984 0.5505
C24_29 C 0.14187(9) 0.20282(10) 0.57950(9)
C25_29 C 0.14003(8) 0.21543(9) 0.59707(8)
H16_29 H 0.1494 0.2133 0.6083
C26_29 C 0.15827(9) 0.18667(10) 0.57850(9)
N10_29 N 0.17250(8) 0.18667(8) 0.59343(7)
C127_29 C 0.23305(12) 0.16746(11) 0.63763(10)
C128_29 C 0.16746(11) 0.11237(10) 0.51695(12)
H77_29 H 0.2434 0.1663 0.6482
H78_29 H 0.1663 0.1018 0.5066
C132_29 C 0.22181(13) 0.18525(12) 0.63661(12)
C133_29 C 0.18525(12) 0.11339(12) 0.52819(13)
H82_29 H 0.2244 0.1964 0.6461
H83_29 H 0.1964 0.1039 0.5256
C137_29 C 0.20637(12) 0.18705(12) 0.62150(11)
C138_29 C 0.18705(12) 0.12850(11) 0.54363(12)
H87_29 H 0.1984 0.1995 0.6204
H88_29 H 0.1995 0.1296 0.5516
C142_29 C 0.20282(10) 0.17050(9) 0.60813(9)
C143_29 C 0.17050(9) 0.14187(9) 0.54718(10)
C147_29 C 0.21543(9) 0.15293(8) 0.60997(8)
C148_29 C 0.15293(8) 0.14003(8) 0.53457(9)
H92_29 H 0.2133 0.1417 0.6006
H93_29 H 0.1417 0.1494 0.5367
C152_29 C 0.18667(10) 0.17150(9) 0.59173(9)
C153_29 C 0.17150(9) 0.15827(9) 0.56333(10)
N66_29 N 0.18667(8) 0.15657(7) 0.57750(8)
N67_29 N 0.15657(7) 0.17250(8) 0.56333(8)
C21_30 C 0.61237(10) 0.51695(12) 0.66746(11)
H13_30 H 0.6018 0.5066 0.6663
C22_30 C 0.61339(12) 0.52819(13) 0.68525(12)
H14_30 H 0.6039 0.5256 0.6964
C23_30 C 0.62850(11) 0.54363(12) 0.68705(12)
H15_30 H 0.6296 0.5516 0.6995
C24_30 C 0.64187(9) 0.54718(10) 0.67050(9)
C25_30 C 0.64003(8) 0.53457(9) 0.65293(8)
H16_30 H 0.6494 0.5367 0.6417
C26_30 C 0.65827(9) 0.56333(10) 0.67150(9)
N10_30 N 0.67250(8) 0.56333(8) 0.65657(7)
C127_30 C 0.73305(12) 0.58254(11) 0.61237(10)
C128_30 C 0.66746(11) 0.63763(10) 0.73305(12)
H77_30 H 0.7434 0.5837 0.6018
H78_30 H 0.6663 0.6482 0.7434
C132_30 C 0.72181(13) 0.56475(12) 0.61339(12)
C133_30 C 0.68525(12) 0.63661(12) 0.72181(13)
H82_30 H 0.7244 0.5536 0.6039
H83_30 H 0.6964 0.6461 0.7244
C137_30 C 0.70637(12) 0.56295(12) 0.62850(11)
C138_30 C 0.68705(12) 0.62150(11) 0.70637(12)
H87_30 H 0.6984 0.5505 0.6296
H88_30 H 0.6995 0.6204 0.6984
C142_30 C 0.70282(10) 0.57950(9) 0.64187(9)
C143_30 C 0.67050(9) 0.60813(9) 0.70282(10)
C147_30 C 0.71543(9) 0.59707(8) 0.64003(8)
C148_30 C 0.65293(8) 0.60997(8) 0.71543(9)
H92_30 H 0.7133 0.6083 0.6494
H93_30 H 0.6417 0.6006 0.7133
C152_30 C 0.68667(10) 0.57850(9) 0.65827(9)
C153_30 C 0.67150(9) 0.59173(9) 0.68667(10)
N66_30 N 0.68667(8) 0.59343(7) 0.67250(8)
N67_30 N 0.65657(7) 0.57750(8) 0.68667(8)
C21_31 C 0.63763(10) 0.01695(12) 0.08254(11)
H13_31 H 0.6482 0.0066 0.0837
C22_31 C 0.63661(12) 0.02819(13) 0.06475(12)
H14_31 H 0.6461 0.0256 0.0536
C23_31 C 0.62150(11) 0.04363(12) 0.06295(12)
H15_31 H 0.6204 0.0516 0.0505
C24_31 C 0.60813(9) 0.04718(10) 0.07950(9)
C25_31 C 0.60997(8) 0.03457(9) 0.09707(8)
H16_31 H 0.6006 0.0367 0.1083
C26_31 C 0.59173(9) 0.06333(10) 0.07850(9)
N10_31 N 0.57750(8) 0.06333(8) 0.09343(7)
C127_31 C 0.51695(12) 0.08254(11) 0.13763(10)
C128_31 C 0.58254(11) 0.13763(10) 0.01695(12)
H77_31 H 0.5066 0.0837 0.1482
H78_31 H 0.5837 0.1482 0.0066
C132_31 C 0.52819(13) 0.06475(12) 0.13661(12)
C133_31 C 0.56475(12) 0.13661(12) 0.02819(13)
H82_31 H 0.5256 0.0536 0.1461
H83_31 H 0.5536 0.1461 0.0256
C137_31 C 0.54363(12) 0.06295(12) 0.12150(11)
C138_31 C 0.56295(12) 0.12150(11) 0.04363(12)
H87_31 H 0.5516 0.0505 0.1204
H88_31 H 0.5505 0.1204 0.0516
C142_31 C 0.54718(10) 0.07950(9) 0.10813(9)
C143_31 C 0.57950(9) 0.10813(9) 0.04718(10)
C147_31 C 0.53457(9) 0.09707(8) 0.10997(8)
C148_31 C 0.59707(8) 0.10997(8) 0.03457(9)
H92_31 H 0.5367 0.1083 0.1006
H93_31 H 0.6083 0.1006 0.0367
C152_31 C 0.56333(10) 0.07850(9) 0.09173(9)
C153_31 C 0.57850(9) 0.09173(9) 0.06333(10)
N66_31 N 0.56333(8) 0.09343(7) 0.07750(8)
N67_31 N 0.59343(7) 0.07750(8) 0.06333(8)
C21_32 C 0.13763(10) 0.73305(12) 0.16746(11)
H13_32 H 0.1482 0.7434 0.1663
C22_32 C 0.13661(12) 0.72181(13) 0.18525(12)
H14_32 H 0.1461 0.7244 0.1964
C23_32 C 0.12150(11) 0.70637(12) 0.18705(12)
H15_32 H 0.1204 0.6984 0.1995
C24_32 C 0.10813(9) 0.70282(10) 0.17050(9)
C25_32 C 0.10997(8) 0.71543(9) 0.15293(8)
H16_32 H 0.1006 0.7133 0.1417
C26_32 C 0.09173(9) 0.68667(10) 0.17150(9)
N10_32 N 0.07750(8) 0.68667(8) 0.15657(7)
C127_32 C 0.01695(12) 0.66746(11) 0.11237(10)
C128_32 C 0.08254(11) 0.61237(10) 0.23305(12)
H77_32 H 0.0066 0.6663 0.1018
H78_32 H 0.0837 0.6018 0.2434
C132_32 C 0.02819(13) 0.68525(12) 0.11339(12)
C133_32 C 0.06475(12) 0.61339(12) 0.22181(13)
H82_32 H 0.0256 0.6964 0.1039
H83_32 H 0.0536 0.6039 0.2244
C137_32 C 0.04363(12) 0.68705(12) 0.12850(11)
C138_32 C 0.06295(12) 0.62850(11) 0.20637(12)
H87_32 H 0.0516 0.6995 0.1296
H88_32 H 0.0505 0.6296 0.1984
C142_32 C 0.04718(10) 0.67050(9) 0.14187(9)
C143_32 C 0.07950(9) 0.64187(9) 0.20282(10)
C147_32 C 0.03457(9) 0.65293(8) 0.14003(8)
C148_32 C 0.09707(8) 0.64003(8) 0.21543(9)
H92_32 H 0.0367 0.6417 0.1494
H93_32 H 0.1083 0.6494 0.2133
C152_32 C 0.06333(10) 0.67150(9) 0.15827(9)
C153_32 C 0.07850(9) 0.65827(9) 0.18667(10)
N66_32 N 0.06333(8) 0.65657(7) 0.17250(8)
N67_32 N 0.09343(7) 0.67250(8) 0.18667(8)
C21_33 C 0.58254(11) 0.11237(10) 0.23305(12)
H13_33 H 0.5837 0.1018 0.2434
C22_33 C 0.56475(12) 0.11339(12) 0.22181(13)
H14_33 H 0.5536 0.1039 0.2244
C23_33 C 0.56295(12) 0.12850(11) 0.20637(12)
H15_33 H 0.5505 0.1296 0.1984
C24_33 C 0.57950(9) 0.14187(9) 0.20282(10)
C25_33 C 0.59707(8) 0.14003(8) 0.21543(9)
H16_33 H 0.6083 0.1494 0.2133
C26_33 C 0.57850(9) 0.15827(9) 0.18667(10)
N10_33 N 0.59343(7) 0.17250(8) 0.18667(8)
C127_33 C 0.63763(10) 0.23305(12) 0.16746(11)
C128_33 C 0.51695(12) 0.16746(11) 0.11237(10)
H77_33 H 0.6482 0.2434 0.1663
H78_33 H 0.5066 0.1663 0.1018
C132_33 C 0.63661(12) 0.22181(13) 0.18525(12)
C133_33 C 0.52819(13) 0.18525(12) 0.11339(12)
H82_33 H 0.6461 0.2244 0.1964
H83_33 H 0.5256 0.1964 0.1039
C137_33 C 0.62150(11) 0.20637(12) 0.18705(12)
C138_33 C 0.54363(12) 0.18705(12) 0.12850(11)
H87_33 H 0.6204 0.1984 0.1995
H88_33 H 0.5516 0.1995 0.1296
C142_33 C 0.60813(9) 0.20282(10) 0.17050(9)
C143_33 C 0.54718(10) 0.17050(9) 0.14187(9)
C147_33 C 0.60997(8) 0.21543(9) 0.15293(8)
C148_33 C 0.53457(9) 0.15293(8) 0.14003(8)
H92_33 H 0.6006 0.2133 0.1417
H93_33 H 0.5367 0.1417 0.1494
C152_33 C 0.59173(9) 0.18667(10) 0.17150(9)
C153_33 C 0.56333(10) 0.17150(9) 0.15827(9)
N66_33 N 0.57750(8) 0.18667(8) 0.15657(7)
N67_33 N 0.56333(8) 0.15657(7) 0.17250(8)
C21_34 C 0.66746(11) 0.61237(10) 0.51695(12)
H13_34 H 0.6663 0.6018 0.5066
C22_34 C 0.68525(12) 0.61339(12) 0.52819(13)
H14_34 H 0.6964 0.6039 0.5256
C23_34 C 0.68705(12) 0.62850(11) 0.54363(12)
H15_34 H 0.6995 0.6296 0.5516
C24_34 C 0.67050(9) 0.64187(9) 0.54718(10)
C25_34 C 0.65293(8) 0.64003(8) 0.53457(9)
H16_34 H 0.6417 0.6494 0.5367
C26_34 C 0.67150(9) 0.65827(9) 0.56333(10)
N10_34 N 0.65657(7) 0.67250(8) 0.56333(8)
C127_34 C 0.61237(10) 0.73305(12) 0.58254(11)
C128_34 C 0.73305(12) 0.66746(11) 0.63763(10)
H77_34 H 0.6018 0.7434 0.5837
H78_34 H 0.7434 0.6663 0.6482
C132_34 C 0.61339(12) 0.72181(13) 0.56475(12)
C133_34 C 0.72181(13) 0.68525(12) 0.63661(12)
H82_34 H 0.6039 0.7244 0.5536
H83_34 H 0.7244 0.6964 0.6461
C137_34 C 0.62850(11) 0.70637(12) 0.56295(12)
C138_34 C 0.70637(12) 0.68705(12) 0.62150(11)
H87_34 H 0.6296 0.6984 0.5505
H88_34 H 0.6984 0.6995 0.6204
C142_34 C 0.64187(9) 0.70282(10) 0.57950(9)
C143_34 C 0.70282(10) 0.67050(9) 0.60813(9)
C147_34 C 0.64003(8) 0.71543(9) 0.59707(8)
C148_34 C 0.71543(9) 0.65293(8) 0.60997(8)
H92_34 H 0.6494 0.7133 0.6083
H93_34 H 0.7133 0.6417 0.6006
C152_34 C 0.65827(9) 0.68667(10) 0.57850(9)
C153_34 C 0.68667(10) 0.67150(9) 0.59173(9)
N66_34 N 0.67250(8) 0.68667(8) 0.59343(7)
N67_34 N 0.68667(8) 0.65657(7) 0.57750(8)
C21_35 C 0.08254(11) 0.63763(10) 0.01695(12)
H13_35 H 0.0837 0.6482 0.0066
C22_35 C 0.06475(12) 0.63661(12) 0.02819(13)
H14_35 H 0.0536 0.6461 0.0256
C23_35 C 0.06295(12) 0.62150(11) 0.04363(12)
H15_35 H 0.0505 0.6204 0.0516
C24_35 C 0.07950(9) 0.60813(9) 0.04718(10)
C25_35 C 0.09707(8) 0.60997(8) 0.03457(9)
H16_35 H 0.1083 0.6006 0.0367
C26_35 C 0.07850(9) 0.59173(9) 0.06333(10)
N10_35 N 0.09343(7) 0.57750(8) 0.06333(8)
C127_35 C 0.13763(10) 0.51695(12) 0.08254(11)
C128_35 C 0.01695(12) 0.58254(11) 0.13763(10)
H77_35 H 0.1482 0.5066 0.0837
H78_35 H 0.0066 0.5837 0.1482
C132_35 C 0.13661(12) 0.52819(13) 0.06475(12)
C133_35 C 0.02819(13) 0.56475(12) 0.13661(12)
H82_35 H 0.1461 0.5256 0.0536
H83_35 H 0.0256 0.5536 0.1461
C137_35 C 0.12150(11) 0.54363(12) 0.06295(12)
C138_35 C 0.04363(12) 0.56295(12) 0.12150(11)
H87_35 H 0.1204 0.5516 0.0505
H88_35 H 0.0516 0.5505 0.1204
C142_35 C 0.10813(9) 0.54718(10) 0.07950(9)
C143_35 C 0.04718(10) 0.57950(9) 0.10813(9)
C147_35 C 0.10997(8) 0.53457(9) 0.09707(8)
C148_35 C 0.03457(9) 0.59707(8) 0.10997(8)
H92_35 H 0.1006 0.5367 0.1083
H93_35 H 0.0367 0.6083 0.1006
C152_35 C 0.09173(9) 0.56333(10) 0.07850(9)
C153_35 C 0.06333(10) 0.57850(9) 0.09173(9)
N66_35 N 0.07750(8) 0.56333(8) 0.09343(7)
N67_35 N 0.06333(8) 0.59343(7) 0.07750(8)
C21_36 C 0.16746(11) 0.13763(10) 0.73305(12)
H13_36 H 0.1663 0.1482 0.7434
C22_36 C 0.18525(12) 0.13661(12) 0.72181(13)
H14_36 H 0.1964 0.1461 0.7244
C23_36 C 0.18705(12) 0.12150(11) 0.70637(12)
H15_36 H 0.1995 0.1204 0.6984
C24_36 C 0.17050(9) 0.10813(9) 0.70282(10)
C25_36 C 0.15293(8) 0.10997(8) 0.71543(9)
H16_36 H 0.1417 0.1006 0.7133
C26_36 C 0.17150(9) 0.09173(9) 0.68667(10)
N10_36 N 0.15657(7) 0.07750(8) 0.68667(8)
C127_36 C 0.11237(10) 0.01695(12) 0.66746(11)
C128_36 C 0.23305(12) 0.08254(11) 0.61237(10)
H77_36 H 0.1018 0.0066 0.6663
H78_36 H 0.2434 0.0837 0.6018
C132_36 C 0.11339(12) 0.02819(13) 0.68525(12)
C133_36 C 0.22181(13) 0.06475(12) 0.61339(12)
H82_36 H 0.1039 0.0256 0.6964
H83_36 H 0.2244 0.0536 0.6039
C137_36 C 0.12850(11) 0.04363(12) 0.68705(12)
C138_36 C 0.20637(12) 0.06295(12) 0.62850(11)
H87_36 H 0.1296 0.0516 0.6995
H88_36 H 0.1984 0.0505 0.6296
C142_36 C 0.14187(9) 0.04718(10) 0.67050(9)
C143_36 C 0.20282(10) 0.07950(9) 0.64187(9)
C147_36 C 0.14003(8) 0.03457(9) 0.65293(8)
C148_36 C 0.21543(9) 0.09707(8) 0.64003(8)
H92_36 H 0.1494 0.0367 0.6417
H93_36 H 0.2133 0.1083 0.6494
C152_36 C 0.15827(9) 0.06333(10) 0.67150(9)
C153_36 C 0.18667(10) 0.07850(9) 0.65827(9)
N66_36 N 0.17250(8) 0.06333(8) 0.65657(7)
N67_36 N 0.18667(8) 0.09343(7) 0.67250(8)
C21_37 C 0.83254(11) 0.98305(12) 0.88763(10)
H13_37 H 0.8337 0.9934 0.8982
C22_37 C 0.81475(12) 0.97181(13) 0.88661(12)
H14_37 H 0.8036 0.9744 0.8961
C23_37 C 0.81295(12) 0.95637(12) 0.87150(11)
H15_37 H 0.8005 0.9484 0.8704
C24_37 C 0.82950(9) 0.95282(10) 0.85813(9)
C25_37 C 0.84707(8) 0.96543(9) 0.85997(8)
H16_37 H 0.8583 0.9633 0.8506
C26_37 C 0.82850(9) 0.93667(10) 0.84173(9)
N10_37 N 0.84343(7) 0.93667(8) 0.82750(8)
C127_37 C 0.88763(10) 0.91746(11) 0.76695(12)
C128_37 C 0.76695(12) 0.86237(10) 0.83254(11)
C129_13 C 0.91746(11) 0.98305(12) 0.86237(10)
C130_13 C 0.86237(10) 0.91746(11) 0.98305(12)
C131_13 C 0.98305(12) 0.86237(10) 0.91746(11)
H77_37 H 0.8982 0.9163 0.7566
H78_37 H 0.7566 0.8518 0.8337
H79_13 H 0.9163 0.9934 0.8518
H80_13 H 0.8518 0.9163 0.9934
H81_13 H 0.9934 0.8518 0.9163
C132_37 C 0.88661(12) 0.93525(12) 0.77819(13)
C133_37 C 0.77819(13) 0.86339(12) 0.81475(12)
C134_13 C 0.93525(12) 0.97181(13) 0.86339(12)
C135_13 C 0.86339(12) 0.93525(12) 0.97181(13)
C136_13 C 0.97181(13) 0.86339(12) 0.93525(12)
H82_37 H 0.8961 0.9464 0.7756
H83_37 H 0.7756 0.8539 0.8036
H84_13 H 0.9464 0.9744 0.8539
H85_13 H 0.8539 0.9464 0.9744
H86_13 H 0.9744 0.8539 0.9464
C137_37 C 0.87150(11) 0.93705(12) 0.79363(12)
C138_37 C 0.79363(12) 0.87850(11) 0.81295(12)
C139_13 C 0.93705(12) 0.95637(12) 0.87850(11)
C140_13 C 0.87850(11) 0.93705(12) 0.95637(12)
C141_13 C 0.95637(12) 0.87850(11) 0.93705(12)
H87_37 H 0.8704 0.9495 0.8016
H88_37 H 0.8016 0.8796 0.8005
H89_13 H 0.9495 0.9484 0.8796
H90_13 H 0.8796 0.9495 0.9484
H91_13 H 0.9484 0.8796 0.9495
C142_37 C 0.85813(9) 0.92050(9) 0.79718(10)
C143_37 C 0.79718(10) 0.89187(9) 0.82950(9)
C144_13 C 0.92050(9) 0.95282(10) 0.89187(9)
C145_13 C 0.89187(9) 0.92050(9) 0.95282(10)
C146_13 C 0.95282(10) 0.89187(9) 0.92050(9)
C147_37 C 0.85997(8) 0.90293(8) 0.78457(9)
C148_37 C 0.78457(9) 0.89003(8) 0.84707(8)
C149_13 C 0.90293(8) 0.96543(9) 0.89003(8)
C150_13 C 0.89003(8) 0.90293(8) 0.96543(9)
C151_13 C 0.96543(9) 0.89003(8) 0.90293(8)
H92_37 H 0.8506 0.8917 0.7867
H93_37 H 0.7867 0.8994 0.8583
H94_13 H 0.8917 0.9633 0.8994
H95_13 H 0.8994 0.8917 0.9633
H96_13 H 0.9633 0.8994 0.8917
C152_37 C 0.84173(9) 0.92150(9) 0.81333(10)
C153_37 C 0.81333(10) 0.90827(9) 0.82850(9)
C154_13 C 0.92150(9) 0.93667(10) 0.90827(9)
C155_13 C 0.90827(9) 0.92150(9) 0.93667(10)
C156_13 C 0.93667(10) 0.90827(9) 0.92150(9)
N66_37 N 0.82750(8) 0.90657(7) 0.81333(8)
N67_37 N 0.81333(8) 0.92250(8) 0.84343(7)
N68_13 N 0.90657(7) 0.93667(8) 0.92250(8)
N69_13 N 0.92250(8) 0.90657(7) 0.93667(8)
N70_13 N 0.93667(8) 0.92250(8) 0.90657(7)
C21_38 C 0.91746(11) 0.26695(12) 0.38763(10)
H13_38 H 0.9163 0.2566 0.3982
C22_38 C 0.93525(12) 0.27819(13) 0.38661(12)
H14_38 H 0.9464 0.2756 0.3961
C23_38 C 0.93705(12) 0.29363(12) 0.37150(11)
H15_38 H 0.9495 0.3016 0.3704
C24_38 C 0.92050(9) 0.29718(10) 0.35813(9)
C25_38 C 0.90293(8) 0.28457(9) 0.35997(8)
H16_38 H 0.8917 0.2867 0.3506
C26_38 C 0.92150(9) 0.31333(10) 0.34173(9)
N10_38 N 0.90657(7) 0.31333(8) 0.32750(8)
C127_38 C 0.86237(10) 0.33254(11) 0.26695(12)
C128_38 C 0.98305(12) 0.38763(10) 0.33254(11)
C129_14 C 0.83254(11) 0.26695(12) 0.36237(10)
C130_14 C 0.88763(10) 0.33254(11) 0.48305(12)
C131_14 C 0.76695(12) 0.38763(10) 0.41746(11)
H77_38 H 0.8518 0.3337 0.2566
H78_38 H 0.9934 0.3982 0.3337
H79_14 H 0.8337 0.2566 0.3518
H80_14 H 0.8982 0.3337 0.4934
H81_14 H 0.7566 0.3982 0.4163
C132_38 C 0.86339(12) 0.31475(12) 0.27819(13)
C133_38 C 0.97181(13) 0.38661(12) 0.31475(12)
C134_14 C 0.81475(12) 0.27819(13) 0.36339(12)
C135_14 C 0.88661(12) 0.31475(12) 0.47181(13)
C136_14 C 0.77819(13) 0.38661(12) 0.43525(12)
H82_38 H 0.8539 0.3036 0.2756
H83_38 H 0.9744 0.3961 0.3036
H84_14 H 0.8036 0.2756 0.3539
H85_14 H 0.8961 0.3036 0.4744
H86_14 H 0.7756 0.3961 0.4464
C137_38 C 0.87850(11) 0.31295(12) 0.29363(12)
C138_38 C 0.95637(12) 0.37150(11) 0.31295(12)
C139_14 C 0.81295(12) 0.29363(12) 0.37850(11)
C140_14 C 0.87150(11) 0.31295(12) 0.45637(12)
C141_14 C 0.79363(12) 0.37150(11) 0.43705(12)
H87_38 H 0.8796 0.3005 0.3016
H88_38 H 0.9484 0.3704 0.3005
H89_14 H 0.8005 0.3016 0.3796
H90_14 H 0.8704 0.3005 0.4484
H91_14 H 0.8016 0.3704 0.4495
C142_38 C 0.89187(9) 0.32950(9) 0.29718(10)
C143_38 C 0.95282(10) 0.35813(9) 0.32950(9)
C144_14 C 0.82950(9) 0.29718(10) 0.39187(9)
C145_14 C 0.85813(9) 0.32950(9) 0.45282(10)
C146_14 C 0.79718(10) 0.35813(9) 0.42050(9)
C147_38 C 0.89003(8) 0.34707(8) 0.28457(9)
C148_38 C 0.96543(9) 0.35997(8) 0.34707(8)
C149_14 C 0.84707(8) 0.28457(9) 0.39003(8)
C150_14 C 0.85997(8) 0.34707(8) 0.46543(9)
C151_14 C 0.78457(9) 0.35997(8) 0.40293(8)
H92_38 H 0.8994 0.3583 0.2867
H93_38 H 0.9633 0.3506 0.3583
H94_14 H 0.8583 0.2867 0.3994
H95_14 H 0.8506 0.3583 0.4633
H96_14 H 0.7867 0.3506 0.3917
C152_38 C 0.90827(9) 0.32850(9) 0.31333(10)
C153_38 C 0.93667(10) 0.34173(9) 0.32850(9)
C154_14 C 0.82850(9) 0.31333(10) 0.40827(9)
C155_14 C 0.84173(9) 0.32850(9) 0.43667(10)
C156_14 C 0.81333(10) 0.34173(9) 0.42150(9)
N66_38 N 0.92250(8) 0.34343(7) 0.31333(8)
N67_38 N 0.93667(8) 0.32750(8) 0.34343(7)
N68_14 N 0.84343(7) 0.31333(8) 0.42250(8)
N69_14 N 0.82750(8) 0.34343(7) 0.43667(8)
N70_14 N 0.81333(8) 0.32750(8) 0.40657(7)
C21_39 C 0.33254(11) 0.76695(12) 0.36237(10)
H13_39 H 0.3337 0.7566 0.3518
C22_39 C 0.31475(12) 0.77819(13) 0.36339(12)
H14_39 H 0.3036 0.7756 0.3539
C23_39 C 0.31295(12) 0.79363(12) 0.37850(11)
H15_39 H 0.3005 0.8016 0.3796
C24_39 C 0.32950(9) 0.79718(10) 0.39187(9)
C25_39 C 0.34707(8) 0.78457(9) 0.39003(8)
H16_39 H 0.3583 0.7867 0.3994
C26_39 C 0.32850(9) 0.81333(10) 0.40827(9)
N10_39 N 0.34343(7) 0.81333(8) 0.42250(8)
C127_39 C 0.38763(10) 0.83254(11) 0.48305(12)
C128_39 C 0.26695(12) 0.88763(10) 0.41746(11)
C129_15 C 0.41746(11) 0.76695(12) 0.38763(10)
C130_15 C 0.36237(10) 0.83254(11) 0.26695(12)
C131_15 C 0.48305(12) 0.88763(10) 0.33254(11)
H77_39 H 0.3982 0.8337 0.4934
H78_39 H 0.2566 0.8982 0.4163
H79_15 H 0.4163 0.7566 0.3982
H80_15 H 0.3518 0.8337 0.2566
H81_15 H 0.4934 0.8982 0.3337
C132_39 C 0.38661(12) 0.81475(12) 0.47181(13)
C133_39 C 0.27819(13) 0.88661(12) 0.43525(12)
C134_15 C 0.43525(12) 0.77819(13) 0.38661(12)
C135_15 C 0.36339(12) 0.81475(12) 0.27819(13)
C136_15 C 0.47181(13) 0.88661(12) 0.31475(12)
H82_39 H 0.3961 0.8036 0.4744
H83_39 H 0.2756 0.8961 0.4464
H84_15 H 0.4464 0.7756 0.3961
H85_15 H 0.3539 0.8036 0.2756
H86_15 H 0.4744 0.8961 0.3036
C137_39 C 0.37150(11) 0.81295(12) 0.45637(12)
C138_39 C 0.29363(12) 0.87150(11) 0.43705(12)
C139_15 C 0.43705(12) 0.79363(12) 0.37150(11)
C140_15 C 0.37850(11) 0.81295(12) 0.29363(12)
C141_15 C 0.45637(12) 0.87150(11) 0.31295(12)
H87_39 H 0.3704 0.8005 0.4484
H88_39 H 0.3016 0.8704 0.4495
H89_15 H 0.4495 0.8016 0.3704
H90_15 H 0.3796 0.8005 0.3016
H91_15 H 0.4484 0.8704 0.3005
C142_39 C 0.35813(9) 0.82950(9) 0.45282(10)
C143_39 C 0.29718(10) 0.85813(9) 0.42050(9)
C144_15 C 0.42050(9) 0.79718(10) 0.35813(9)
C145_15 C 0.39187(9) 0.82950(9) 0.29718(10)
C146_15 C 0.45282(10) 0.85813(9) 0.32950(9)
C147_39 C 0.35997(8) 0.84707(8) 0.46543(9)
C148_39 C 0.28457(9) 0.85997(8) 0.40293(8)
C149_15 C 0.40293(8) 0.78457(9) 0.35997(8)
C150_15 C 0.39003(8) 0.84707(8) 0.28457(9)
C151_15 C 0.46543(9) 0.85997(8) 0.34707(8)
H92_39 H 0.3506 0.8583 0.4633
H93_39 H 0.2867 0.8506 0.3917
H94_15 H 0.3917 0.7867 0.3506
H95_15 H 0.3994 0.8583 0.2867
H96_15 H 0.4633 0.8506 0.3583
C152_39 C 0.34173(9) 0.82850(9) 0.43667(10)
C153_39 C 0.31333(10) 0.84173(9) 0.42150(9)
C154_15 C 0.42150(9) 0.81333(10) 0.34173(9)
C155_15 C 0.40827(9) 0.82850(9) 0.31333(10)
C156_15 C 0.43667(10) 0.84173(9) 0.32850(9)
N66_39 N 0.32750(8) 0.84343(7) 0.43667(8)
N67_39 N 0.31333(8) 0.82750(8) 0.40657(7)
N68_15 N 0.40657(7) 0.81333(8) 0.32750(8)
N69_15 N 0.42250(8) 0.84343(7) 0.31333(8)
N70_15 N 0.43667(8) 0.82750(8) 0.34343(7)
C21_40 C 0.41746(11) 0.48305(12) 0.86237(10)
H13_40 H 0.4163 0.4934 0.8518
C22_40 C 0.43525(12) 0.47181(13) 0.86339(12)
H14_40 H 0.4464 0.4744 0.8539
C23_40 C 0.43705(12) 0.45637(12) 0.87850(11)
H15_40 H 0.4495 0.4484 0.8796
C24_40 C 0.42050(9) 0.45282(10) 0.89187(9)
C25_40 C 0.40293(8) 0.46543(9) 0.89003(8)
H16_40 H 0.3917 0.4633 0.8994
C26_40 C 0.42150(9) 0.43667(10) 0.90827(9)
N10_40 N 0.40657(7) 0.43667(8) 0.92250(8)
C127_40 C 0.36237(10) 0.41746(11) 0.98305(12)
C128_40 C 0.48305(12) 0.36237(10) 0.91746(11)
C129_16 C 0.33254(11) 0.48305(12) 0.88763(10)
C130_16 C 0.38763(10) 0.41746(11) 0.76695(12)
C131_16 C 0.26695(12) 0.36237(10) 0.83254(11)
H77_40 H 0.3518 0.4163 0.9934
H78_40 H 0.4934 0.3518 0.9163
H79_16 H 0.3337 0.4934 0.8982
H80_16 H 0.3982 0.4163 0.7566
H81_16 H 0.2566 0.3518 0.8337
C132_40 C 0.36339(12) 0.43525(12) 0.97181(13)
C133_40 C 0.47181(13) 0.36339(12) 0.93525(12)
C134_16 C 0.31475(12) 0.47181(13) 0.88661(12)
C135_16 C 0.38661(12) 0.43525(12) 0.77819(13)
C136_16 C 0.27819(13) 0.36339(12) 0.81475(12)
H82_40 H 0.3539 0.4464 0.9744
H83_40 H 0.4744 0.3539 0.9464
H84_16 H 0.3036 0.4744 0.8961
H85_16 H 0.3961 0.4464 0.7756
H86_16 H 0.2756 0.3539 0.8036
C137_40 C 0.37850(11) 0.43705(12) 0.95637(12)
C138_40 C 0.45637(12) 0.37850(11) 0.93705(12)
C139_16 C 0.31295(12) 0.45637(12) 0.87150(11)
C140_16 C 0.37150(11) 0.43705(12) 0.79363(12)
C141_16 C 0.29363(12) 0.37850(11) 0.81295(12)
H87_40 H 0.3796 0.4495 0.9484
H88_40 H 0.4484 0.3796 0.9495
H89_16 H 0.3005 0.4484 0.8704
H90_16 H 0.3704 0.4495 0.8016
H91_16 H 0.3016 0.3796 0.8005
C142_40 C 0.39187(9) 0.42050(9) 0.95282(10)
C143_40 C 0.45282(10) 0.39187(9) 0.92050(9)
C144_16 C 0.32950(9) 0.45282(10) 0.85813(9)
C145_16 C 0.35813(9) 0.42050(9) 0.79718(10)
C146_16 C 0.29718(10) 0.39187(9) 0.82950(9)
C147_40 C 0.39003(8) 0.40293(8) 0.96543(9)
C148_40 C 0.46543(9) 0.39003(8) 0.90293(8)
C149_16 C 0.34707(8) 0.46543(9) 0.85997(8)
C150_16 C 0.35997(8) 0.40293(8) 0.78457(9)
C151_16 C 0.28457(9) 0.39003(8) 0.84707(8)
H92_40 H 0.3994 0.3917 0.9633
H93_40 H 0.4633 0.3994 0.8917
H94_16 H 0.3583 0.4633 0.8506
H95_16 H 0.3506 0.3917 0.7867
H96_16 H 0.2867 0.3994 0.8583
C152_40 C 0.40827(9) 0.42150(9) 0.93667(10)
C153_40 C 0.43667(10) 0.40827(9) 0.92150(9)
C154_16 C 0.32850(9) 0.43667(10) 0.84173(9)
C155_16 C 0.34173(9) 0.42150(9) 0.81333(10)
C156_16 C 0.31333(10) 0.40827(9) 0.82850(9)
N66_40 N 0.42250(8) 0.40657(7) 0.93667(8)
N67_40 N 0.43667(8) 0.42250(8) 0.90657(7)
N68_16 N 0.34343(7) 0.43667(8) 0.82750(8)
N69_16 N 0.32750(8) 0.40657(7) 0.81333(8)
N70_16 N 0.31333(8) 0.42250(8) 0.84343(7)
C21_41 C 0.48305(12) 0.86237(10) 0.41746(11)
H13_41 H 0.4934 0.8518 0.4163
C22_41 C 0.47181(13) 0.86339(12) 0.43525(12)
H14_41 H 0.4744 0.8539 0.4464
C23_41 C 0.45637(12) 0.87850(11) 0.43705(12)
H15_41 H 0.4484 0.8796 0.4495
C24_41 C 0.45282(10) 0.89187(9) 0.42050(9)
C25_41 C 0.46543(9) 0.89003(8) 0.40293(8)
H16_41 H 0.4633 0.8994 0.3917
C26_41 C 0.43667(10) 0.90827(9) 0.42150(9)
N10_41 N 0.43667(8) 0.92250(8) 0.40657(7)
C127_41 C 0.41746(11) 0.98305(12) 0.36237(10)
C128_41 C 0.36237(10) 0.91746(11) 0.48305(12)
H77_41 H 0.4163 0.9934 0.3518
H78_41 H 0.3518 0.9163 0.4934
C132_41 C 0.43525(12) 0.97181(13) 0.36339(12)
C133_41 C 0.36339(12) 0.93525(12) 0.47181(13)
H82_41 H 0.4464 0.9744 0.3539
H83_41 H 0.3539 0.9464 0.4744
C137_41 C 0.43705(12) 0.95637(12) 0.37850(11)
C138_41 C 0.37850(11) 0.93705(12) 0.45637(12)
H87_41 H 0.4495 0.9484 0.3796
H88_41 H 0.3796 0.9495 0.4484
C142_41 C 0.42050(9) 0.95282(10) 0.39187(9)
C143_41 C 0.39187(9) 0.92050(9) 0.45282(10)
C147_41 C 0.40293(8) 0.96543(9) 0.39003(8)
C148_41 C 0.39003(8) 0.90293(8) 0.46543(9)
H92_41 H 0.3917 0.9633 0.3994
H93_41 H 0.3994 0.8917 0.4633
C152_41 C 0.42150(9) 0.93667(10) 0.40827(9)
C153_41 C 0.40827(9) 0.92150(9) 0.43667(10)
N66_41 N 0.40657(7) 0.93667(8) 0.42250(8)
N67_41 N 0.42250(8) 0.90657(7) 0.43667(8)
C21_42 C 0.76695(12) 0.36237(10) 0.33254(11)
H13_42 H 0.7566 0.3518 0.3337
C22_42 C 0.77819(13) 0.36339(12) 0.31475(12)
H14_42 H 0.7756 0.3539 0.3036
C23_42 C 0.79363(12) 0.37850(11) 0.31295(12)
H15_42 H 0.8016 0.3796 0.3005
C24_42 C 0.79718(10) 0.39187(9) 0.32950(9)
C25_42 C 0.78457(9) 0.39003(8) 0.34707(8)
H16_42 H 0.7867 0.3994 0.3583
C26_42 C 0.81333(10) 0.40827(9) 0.32850(9)
N10_42 N 0.81333(8) 0.42250(8) 0.34343(7)
C127_42 C 0.83254(11) 0.48305(12) 0.38763(10)
C128_42 C 0.88763(10) 0.41746(11) 0.26695(12)
H77_42 H 0.8337 0.4934 0.3982
H78_42 H 0.8982 0.4163 0.2566
C132_42 C 0.81475(12) 0.47181(13) 0.38661(12)
C133_42 C 0.88661(12) 0.43525(12) 0.27819(13)
H82_42 H 0.8036 0.4744 0.3961
H83_42 H 0.8961 0.4464 0.2756
C137_42 C 0.81295(12) 0.45637(12) 0.37150(11)
C138_42 C 0.87150(11) 0.43705(12) 0.29363(12)
H87_42 H 0.8005 0.4484 0.3704
H88_42 H 0.8704 0.4495 0.3016
C142_42 C 0.82950(9) 0.45282(10) 0.35813(9)
C143_42 C 0.85813(9) 0.42050(9) 0.29718(10)
C147_42 C 0.84707(8) 0.46543(9) 0.35997(8)
C148_42 C 0.85997(8) 0.40293(8) 0.28457(9)
H92_42 H 0.8583 0.4633 0.3506
H93_42 H 0.8506 0.3917 0.2867
C152_42 C 0.82850(9) 0.43667(10) 0.34173(9)
C153_42 C 0.84173(9) 0.42150(9) 0.31333(10)
N66_42 N 0.84343(7) 0.43667(8) 0.32750(8)
N67_42 N 0.82750(8) 0.40657(7) 0.31333(8)
C21_43 C 0.26695(12) 0.38763(10) 0.91746(11)
H13_43 H 0.2566 0.3982 0.9163
C22_43 C 0.27819(13) 0.38661(12) 0.93525(12)
H14_43 H 0.2756 0.3961 0.9464
C23_43 C 0.29363(12) 0.37150(11) 0.93705(12)
H15_43 H 0.3016 0.3704 0.9495
C24_43 C 0.29718(10) 0.35813(9) 0.92050(9)
C25_43 C 0.28457(9) 0.35997(8) 0.90293(8)
H16_43 H 0.2867 0.3506 0.8917
C26_43 C 0.31333(10) 0.34173(9) 0.92150(9)
N10_43 N 0.31333(8) 0.32750(8) 0.90657(7)
C127_43 C 0.33254(11) 0.26695(12) 0.86237(10)
C128_43 C 0.38763(10) 0.33254(11) 0.98305(12)
H77_43 H 0.3337 0.2566 0.8518
H78_43 H 0.3982 0.3337 0.9934
C132_43 C 0.31475(12) 0.27819(13) 0.86339(12)
C133_43 C 0.38661(12) 0.31475(12) 0.97181(13)
H82_43 H 0.3036 0.2756 0.8539
H83_43 H 0.3961 0.3036 0.9744
C137_43 C 0.31295(12) 0.29363(12) 0.87850(11)
C138_43 C 0.37150(11) 0.31295(12) 0.95637(12)
H87_43 H 0.3005 0.3016 0.8796
H88_43 H 0.3704 0.3005 0.9484
C142_43 C 0.32950(9) 0.29718(10) 0.89187(9)
C143_43 C 0.35813(9) 0.32950(9) 0.95282(10)
C147_43 C 0.34707(8) 0.28457(9) 0.89003(8)
C148_43 C 0.35997(8) 0.34707(8) 0.96543(9)
H92_43 H 0.3583 0.2867 0.8994
H93_43 H 0.3506 0.3583 0.9633
C152_43 C 0.32850(9) 0.31333(10) 0.90827(9)
C153_43 C 0.34173(9) 0.32850(9) 0.93667(10)
N66_43 N 0.34343(7) 0.31333(8) 0.92250(8)
N67_43 N 0.32750(8) 0.34343(7) 0.93667(8)
C21_44 C 0.98305(12) 0.88763(10) 0.83254(11)
H13_44 H 0.9934 0.8982 0.8337
C22_44 C 0.97181(13) 0.88661(12) 0.81475(12)
H14_44 H 0.9744 0.8961 0.8036
C23_44 C 0.95637(12) 0.87150(11) 0.81295(12)
H15_44 H 0.9484 0.8704 0.8005
C24_44 C 0.95282(10) 0.85813(9) 0.82950(9)
C25_44 C 0.96543(9) 0.85997(8) 0.84707(8)
H16_44 H 0.9633 0.8506 0.8583
C26_44 C 0.93667(10) 0.84173(9) 0.82850(9)
N10_44 N 0.93667(8) 0.82750(8) 0.84343(7)
C127_44 C 0.91746(11) 0.76695(12) 0.88763(10)
C128_44 C 0.86237(10) 0.83254(11) 0.76695(12)
H77_44 H 0.9163 0.7566 0.8982
H78_44 H 0.8518 0.8337 0.7566
C132_44 C 0.93525(12) 0.77819(13) 0.88661(12)
C133_44 C 0.86339(12) 0.81475(12) 0.77819(13)
H82_44 H 0.9464 0.7756 0.8961
H83_44 H 0.8539 0.8036 0.7756
C137_44 C 0.93705(12) 0.79363(12) 0.87150(11)
C138_44 C 0.87850(11) 0.81295(12) 0.79363(12)
H87_44 H 0.9495 0.8016 0.8704
H88_44 H 0.8796 0.8005 0.8016
C142_44 C 0.92050(9) 0.79718(10) 0.85813(9)
C143_44 C 0.89187(9) 0.82950(9) 0.79718(10)
C147_44 C 0.90293(8) 0.78457(9) 0.85997(8)
C148_44 C 0.89003(8) 0.84707(8) 0.78457(9)
H92_44 H 0.8917 0.7867 0.8506
H93_44 H 0.8994 0.8583 0.7867
C152_44 C 0.92150(9) 0.81333(10) 0.84173(9)
C153_44 C 0.90827(9) 0.82850(9) 0.81333(10)
N66_44 N 0.90657(7) 0.81333(8) 0.82750(8)
N67_44 N 0.92250(8) 0.84343(7) 0.81333(8)
C21_45 C 0.36237(10) 0.33254(11) 0.76695(12)
H13_45 H 0.3518 0.3337 0.7566
C22_45 C 0.36339(12) 0.31475(12) 0.77819(13)
H14_45 H 0.3539 0.3036 0.7756
C23_45 C 0.37850(11) 0.31295(12) 0.79363(12)
H15_45 H 0.3796 0.3005 0.8016
C24_45 C 0.39187(9) 0.32950(9) 0.79718(10)
C25_45 C 0.39003(8) 0.34707(8) 0.78457(9)
H16_45 H 0.3994 0.3583 0.7867
C26_45 C 0.40827(9) 0.32850(9) 0.81333(10)
N10_45 N 0.42250(8) 0.34343(7) 0.81333(8)
C127_45 C 0.48305(12) 0.38763(10) 0.83254(11)
C128_45 C 0.41746(11) 0.26695(12) 0.88763(10)
H77_45 H 0.4934 0.3982 0.8337
H78_45 H 0.4163 0.2566 0.8982
C132_45 C 0.47181(13) 0.38661(12) 0.81475(12)
C133_45 C 0.43525(12) 0.27819(13) 0.88661(12)
H82_45 H 0.4744 0.3961 0.8036
H83_45 H 0.4464 0.2756 0.8961
C137_45 C 0.45637(12) 0.37150(11) 0.81295(12)
C138_45 C 0.43705(12) 0.29363(12) 0.87150(11)
H87_45 H 0.4484 0.3704 0.8005
H88_45 H 0.4495 0.3016 0.8704
C142_45 C 0.45282(10) 0.35813(9) 0.82950(9)
C143_45 C 0.42050(9) 0.29718(10) 0.85813(9)
C147_45 C 0.46543(9) 0.35997(8) 0.84707(8)
C148_45 C 0.40293(8) 0.28457(9) 0.85997(8)
H92_45 H 0.4633 0.3506 0.8583
H93_45 H 0.3917 0.2867 0.8506
C152_45 C 0.43667(10) 0.34173(9) 0.82850(9)
C153_45 C 0.42150(9) 0.31333(10) 0.84173(9)
N66_45 N 0.43667(8) 0.32750(8) 0.84343(7)
N67_45 N 0.40657(7) 0.31333(8) 0.82750(8)
C21_46 C 0.86237(10) 0.41746(11) 0.48305(12)
H13_46 H 0.8518 0.4163 0.4934
C22_46 C 0.86339(12) 0.43525(12) 0.47181(13)
H14_46 H 0.8539 0.4464 0.4744
C23_46 C 0.87850(11) 0.43705(12) 0.45637(12)
H15_46 H 0.8796 0.4495 0.4484
C24_46 C 0.89187(9) 0.42050(9) 0.45282(10)
C25_46 C 0.89003(8) 0.40293(8) 0.46543(9)
H16_46 H 0.8994 0.3917 0.4633
C26_46 C 0.90827(9) 0.42150(9) 0.43667(10)
N10_46 N 0.92250(8) 0.40657(7) 0.43667(8)
C127_46 C 0.98305(12) 0.36237(10) 0.41746(11)
C128_46 C 0.91746(11) 0.48305(12) 0.36237(10)
H77_46 H 0.9934 0.3518 0.4163
H78_46 H 0.9163 0.4934 0.3518
C132_46 C 0.97181(13) 0.36339(12) 0.43525(12)
C133_46 C 0.93525(12) 0.47181(13) 0.36339(12)
H82_46 H 0.9744 0.3539 0.4464
H83_46 H 0.9464 0.4744 0.3539
C137_46 C 0.95637(12) 0.37850(11) 0.43705(12)
C138_46 C 0.93705(12) 0.45637(12) 0.37850(11)
H87_46 H 0.9484 0.3796 0.4495
H88_46 H 0.9495 0.4484 0.3796
C142_46 C 0.95282(10) 0.39187(9) 0.42050(9)
C143_46 C 0.92050(9) 0.45282(10) 0.39187(9)
C147_46 C 0.96543(9) 0.39003(8) 0.40293(8)
C148_46 C 0.90293(8) 0.46543(9) 0.39003(8)
H92_46 H 0.9633 0.3994 0.3917
H93_46 H 0.8917 0.4633 0.3994
C152_46 C 0.93667(10) 0.40827(9) 0.42150(9)
C153_46 C 0.92150(9) 0.43667(10) 0.40827(9)
N66_46 N 0.93667(8) 0.42250(8) 0.40657(7)
N67_46 N 0.90657(7) 0.43667(8) 0.42250(8)
C21_47 C 0.88763(10) 0.83254(11) 0.98305(12)
H13_47 H 0.8982 0.8337 0.9934
C22_47 C 0.88661(12) 0.81475(12) 0.97181(13)
H14_47 H 0.8961 0.8036 0.9744
C23_47 C 0.87150(11) 0.81295(12) 0.95637(12)
H15_47 H 0.8704 0.8005 0.9484
C24_47 C 0.85813(9) 0.82950(9) 0.95282(10)
C25_47 C 0.85997(8) 0.84707(8) 0.96543(9)
H16_47 H 0.8506 0.8583 0.9633
C26_47 C 0.84173(9) 0.82850(9) 0.93667(10)
N10_47 N 0.82750(8) 0.84343(7) 0.93667(8)
C127_47 C 0.76695(12) 0.88763(10) 0.91746(11)
C128_47 C 0.83254(11) 0.76695(12) 0.86237(10)
H77_47 H 0.7566 0.8982 0.9163
H78_47 H 0.8337 0.7566 0.8518
C132_47 C 0.77819(13) 0.88661(12) 0.93525(12)
C133_47 C 0.81475(12) 0.77819(13) 0.86339(12)
H82_47 H 0.7756 0.8961 0.9464
H83_47 H 0.8036 0.7756 0.8539
C137_47 C 0.79363(12) 0.87150(11) 0.93705(12)
C138_47 C 0.81295(12) 0.79363(12) 0.87850(11)
H87_47 H 0.8016 0.8704 0.9495
H88_47 H 0.8005 0.8016 0.8796
C142_47 C 0.79718(10) 0.85813(9) 0.92050(9)
C143_47 C 0.82950(9) 0.79718(10) 0.89187(9)
C147_47 C 0.78457(9) 0.85997(8) 0.90293(8)
C148_47 C 0.84707(8) 0.78457(9) 0.89003(8)
H92_47 H 0.7867 0.8506 0.8917
H93_47 H 0.8583 0.7867 0.8994
C152_47 C 0.81333(10) 0.84173(9) 0.92150(9)
C153_47 C 0.82850(9) 0.81333(10) 0.90827(9)
N66_47 N 0.81333(8) 0.82750(8) 0.90657(7)
N67_47 N 0.84343(7) 0.81333(8) 0.92250(8)
C21_48 C 0.38763(10) 0.91746(11) 0.26695(12)
H13_48 H 0.3982 0.9163 0.2566
C22_48 C 0.38661(12) 0.93525(12) 0.27819(13)
H14_48 H 0.3961 0.9464 0.2756
C23_48 C 0.37150(11) 0.93705(12) 0.29363(12)
H15_48 H 0.3704 0.9495 0.3016
C24_48 C 0.35813(9) 0.92050(9) 0.29718(10)
C25_48 C 0.35997(8) 0.90293(8) 0.28457(9)
H16_48 H 0.3506 0.8917 0.2867
C26_48 C 0.34173(9) 0.92150(9) 0.31333(10)
N10_48 N 0.32750(8) 0.90657(7) 0.31333(8)
C127_48 C 0.26695(12) 0.86237(10) 0.33254(11)
C128_48 C 0.33254(11) 0.98305(12) 0.38763(10)
H77_48 H 0.2566 0.8518 0.3337
H78_48 H 0.3337 0.9934 0.3982
C132_48 C 0.27819(13) 0.86339(12) 0.31475(12)
C133_48 C 0.31475(12) 0.97181(13) 0.38661(12)
H82_48 H 0.2756 0.8539 0.3036
H83_48 H 0.3036 0.9744 0.3961
C137_48 C 0.29363(12) 0.87850(11) 0.31295(12)
C138_48 C 0.31295(12) 0.95637(12) 0.37150(11)
H87_48 H 0.3016 0.8796 0.3005
H88_48 H 0.3005 0.9484 0.3704
C142_48 C 0.29718(10) 0.89187(9) 0.32950(9)
C143_48 C 0.32950(9) 0.95282(10) 0.35813(9)
C147_48 C 0.28457(9) 0.89003(8) 0.34707(8)
C148_48 C 0.34707(8) 0.96543(9) 0.35997(8)
H92_48 H 0.2867 0.8994 0.3583
H93_48 H 0.3583 0.9633 0.3506
C152_48 C 0.31333(10) 0.90827(9) 0.32850(9)
C153_48 C 0.32850(9) 0.93667(10) 0.34173(9)
N66_48 N 0.31333(8) 0.92250(8) 0.34343(7)
N67_48 N 0.34343(7) 0.93667(8) 0.32750(8)
loop_
_geom_bond_atom_site_label_1
_geom_bond_atom_site_label_2
_geom_bond_site_symmetry_1
_geom_bond_site_symmetry_2
Co1 N1 1_555 1_555
S1 C1 1_555 1_555
C1 N1 1_555 1_555
Co3 N12 1_555 1_555
Co6 N22 1_555 1_555
Co8 N26 1_555 1_555
Co9 N45 1_555 1_555
Co10 N46 1_555 1_555
Co16 N49 1_555 1_555
S4 C28 1_555 1_555
S5 C29 1_555 1_555
S9 C123 1_555 1_555
S10 C124 1_555 1_555
S11 C125 1_555 1_555
S12 C126 1_555 1_555
C28 N12 1_555 1_555
C29 N13 1_555 1_555
C33 H18 1_555 1_555
C36 H21 1_555 1_555
C37 C32 1_555 1_555
C38 C33 1_555 1_555
C41 C36 1_555 1_555
H22 C37 1_555 1_555
H23 C38 1_555 1_555
H26 C41 1_555 1_555
C42 C37 1_555 1_555
C43 C38 1_555 1_555
C46 C41 1_555 1_555
H27 C42 1_555 1_555
H28 C43 1_555 1_555
H31 C46 1_555 1_555
C47 C42 1_555 1_555
C48 C43 1_555 1_555
C51 C46 1_555 1_555
C52 C47 1_555 1_555
C53 C48 1_555 1_555
C56 C51 1_555 1_555
H32 C52 1_555 1_555
H33 C53 1_555 1_555
H36 C56 1_555 1_555
C57 H37 1_555 1_555
C58 H38 1_555 1_555
C61 H41 1_555 1_555
C62 C57 1_555 1_555
C63 C58 1_555 1_555
C66 C61 1_555 1_555
H42 C62 1_555 1_555
H43 C63 1_555 1_555
H46 C66 1_555 1_555
C67 C62 1_555 1_555
C68 C63 1_555 1_555
C71 C66 1_555 1_555
H47 C67 1_555 1_555
H48 C68 1_555 1_555
H51 C71 1_555 1_555
C72 C67 1_555 1_555
C73 C68 1_555 1_555
C76 C71 1_555 1_555
C77 C72 1_555 1_555
C78 C73 1_555 1_555
C81 C76 1_555 1_555
H52 C77 1_555 1_555
H53 C78 1_555 1_555
H56 C81 1_555 1_555
C82 C72 1_555 1_555
C83 C73 1_555 1_555
C86 C76 1_555 1_555
C87 C47 1_555 1_555
C88 C48 1_555 1_555
C91 C51 1_555 1_555
C92 C97 1_555 1_555
C93 C98 1_555 1_555
C96 C101 1_555 1_555
C97 C102 1_555 1_555
C98 C103 1_555 1_555
C101 C106 1_555 1_555
C102 H57 1_555 1_555
C103 H58 1_555 1_555
C106 H61 1_555 1_555
C107 H62 1_555 1_555
C108 H63 1_555 1_555
C111 H66 1_555 1_555
C112 C107 1_555 1_555
C113 C108 1_555 1_555
C116 C111 1_555 1_555
H67 C112 1_555 1_555
H68 C113 1_555 1_555
H71 C116 1_555 1_555
C117 C97 1_555 1_555
C118 C98 1_555 1_555
C121 C101 1_555 1_555
H72 C117 1_555 1_555
H73 C118 1_555 1_555
H76 C121 1_555 1_555
C123 N53 1_555 1_555
C124 N54 1_555 1_555
C125 N55 1_555 1_555
C126 N56 1_555 1_555
N13 Co3 1_555 1_555
N16 Co1 1_555 1_555
N17 Co3 1_555 1_555
N20 Co3 1_555 1_555
N22 C57 1_555 1_555
N23 Co1 1_555 1_555
N26 C61 1_555 1_555
N27 Co3 1_555 1_555
N28 Co3 1_555 1_555
N30 C82 1_555 1_555
N31 C83 1_555 1_555
N34 C86 1_555 1_555
N35 C82 1_555 1_555
N36 C83 1_555 1_555
N39 C86 1_555 1_555
N40 C87 1_555 1_555
N41 C88 1_555 1_555
N44 C91 1_555 1_555
N45 C102 1_555 1_555
N46 C103 1_555 1_555
N49 C106 1_555 1_555
N50 Co9 1_555 1_555
N51 Co10 1_555 1_555
N53 Co9 1_555 1_555
N54 Co9 1_555 1_555
N55 Co10 1_555 1_555
N56 Co10 1_555 1_555
N62 Co9 1_555 1_555
N63 Co9 1_555 1_555
N64 Co10 1_555 1_555
N65 Co10 1_555 1_555
C32 N16 1_555 1_555
C33 N17 1_555 1_555
C36 N20 1_555 1_555
C52 N16 1_555 1_555
C53 N17 1_555 1_555
C56 N20 1_555 1_555
C58 N23 1_555 1_555
C77 N22 1_555 1_555
C78 N23 1_555 1_555
C81 N26 1_555 1_555
C87 N30 1_555 1_555
C88 N31 1_555 1_555
C91 N34 1_555 1_555
C92 N35 1_555 1_555
C92 N40 1_555 1_555
C93 N36 1_555 1_555
C93 N41 1_555 1_555
C96 N39 1_555 1_555
C96 N44 1_555 1_555
C107 N45 1_555 1_555
C108 N46 1_555 1_555
C111 N49 1_555 1_555
C112 C117 1_555 1_555
C113 C118 1_555 1_555
C116 C121 1_555 1_555
Co2 N7 1_555 1_555
S2 C20 1_555 1_555
C3 C2 1_555 1_555
H2 C3 1_555 1_555
C4 C3 1_555 1_555
H3 C4 1_555 1_555
C5 C4 1_555 1_555
C6 C5 1_555 1_555
H4 C6 1_555 1_555
C7 H5 1_555 1_555
C8 C7 1_555 1_555
H6 C8 1_555 1_555
C9 C8 1_555 1_555
H7 C9 1_555 1_555
C10 C9 1_555 1_555
C11 C10 1_555 1_555
H8 C11 1_555 1_555
C12 C10 1_555 1_555
C13 C5 1_555 1_555
C14 C15 1_555 1_555
C15 C16 1_555 1_555
C16 H9 1_555 1_555
C17 H10 1_555 1_555
C18 C17 1_555 1_555
H11 C18 1_555 1_555
C19 C15 1_555 1_555
H12 C19 1_555 1_555
C20 N8 1_555 1_555
C21 H13 1_555 1_555
C22 C21 1_555 1_555
H14 C22 1_555 1_555
C23 C22 1_555 1_555
H15 C23 1_555 1_555
C24 C23 1_555 1_555
C25 C24 1_555 1_555
H16 C25 1_555 1_555
C26 C24 1_555 1_555
N2 Co1_2 1_555 1_555
N3 C7 1_555 1_555
N4 C12 1_555 1_555
N5 C12 1_555 1_555
N6 C13 1_555 1_555
N7 C16 1_555 1_555
N8 Co2 1_555 1_555
N9 Co2 1_555 1_555
N10 C26 1_555 1_555
Co4 N14 1_555 1_555
Co5 N3 1_555 1_555
Co7 N19 1_555 1_555
Co11 N57 1_555 1_555
Co12 N58 1_555 1_555
Co13 N47 1_555 1_555
Co15 N61 1_555 1_555
S3 C27 1_555 1_555
S6 C30 1_555 1_555
S7 C31 1_555 1_555
S8 C122 1_555 1_555
C27 N11 1_555 1_555
C30 N14 1_555 1_555
C31 N15 1_555 1_555
C34 H19 1_555 1_555
C35 H20 1_555 1_555
C39 C34 1_555 1_555
C40 C35 1_555 1_555
H24 C39 1_555 1_555
H25 C40 1_555 1_555
C44 C39 1_555 1_555
C45 C40 1_555 1_555
H29 C44 1_555 1_555
H30 C45 1_555 1_555
C49 C44 1_555 1_555
C50 C45 1_555 1_555
C54 C49 1_555 1_555
C55 C50 1_555 1_555
H34 C54 1_555 1_555
H35 C55 1_555 1_555
C59 H39 1_555 1_555
C60 H40 1_555 1_555
C64 C59 1_555 1_555
C65 C60 1_555 1_555
H44 C64 1_555 1_555
H45 C65 1_555 1_555
C69 C64 1_555 1_555
C70 C65 1_555 1_555
H49 C69 1_555 1_555
H50 C70 1_555 1_555
C74 C69 1_555 1_555
C75 C70 1_555 1_555
C79 C74 1_555 1_555
C80 C75 1_555 1_555
H54 C79 1_555 1_555
H55 C80 1_555 1_555
C84 C74 1_555 1_555
C85 C75 1_555 1_555
C89 C49 1_555 1_555
C90 C50 1_555 1_555
C94 C99 1_555 1_555
C95 C100 1_555 1_555
C99 C104 1_555 1_555
C100 C105 1_555 1_555
C104 H59 1_555 1_555
C105 H60 1_555 1_555
C109 H64 1_555 1_555
C110 H65 1_555 1_555
C114 C109 1_555 1_555
C115 C110 1_555 1_555
H69 C114 1_555 1_555
H70 C115 1_555 1_555
C119 C99 1_555 1_555
C120 C100 1_555 1_555
H74 C119 1_555 1_555
H75 C120 1_555 1_555
C122 N52 1_555 1_555
C127 H77 1_555 1_555
C128 H78 1_555 1_555
C129 H79 1_555 1_555
C130 H80 1_555 1_555
C131 H81 1_555 1_555
C132 C127 1_555 1_555
C133 C128 1_555 1_555
C134 C129 1_555 1_555
C135 C130 1_555 1_555
C136 C131 1_555 1_555
H82 C132 1_555 1_555
H83 C133 1_555 1_555
H84 C134 1_555 1_555
H85 C135 1_555 1_555
H86 C136 1_555 1_555
C137 C132 1_555 1_555
C138 C133 1_555 1_555
C139 C134 1_555 1_555
C140 C135 1_555 1_555
C141 C136 1_555 1_555
H87 C137 1_555 1_555
H88 C138 1_555 1_555
H89 C139 1_555 1_555
H90 C140 1_555 1_555
H91 C141 1_555 1_555
C142 C137 1_555 1_555
C143 C138 1_555 1_555
C144 C139 1_555 1_555
C145 C140 1_555 1_555
C146 C141 1_555 1_555
C147 C142 1_555 1_555
C148 C143 1_555 1_555
C149 C144 1_555 1_555
C150 C145 1_555 1_555
C151 C146 1_555 1_555
H92 C147 1_555 1_555
H93 C148 1_555 1_555
H94 C149 1_555 1_555
H95 C150 1_555 1_555
H96 C151 1_555 1_555
C152 N10 1_555 1_555
C153 C143 1_555 1_555
C154 C144 1_555 1_555
C155 C145 1_555 1_555
C156 C146 1_555 1_555
N11 Co1_2 1_555 1_555
N15 Co4 1_555 1_555
N18 Co4 1_555 1_555
N19 C35 1_555 1_555
N21 Co4 1_555 1_555
N24 Co1_2 1_555 1_555
N25 Co4 1_555 1_555
N29 Co4 1_555 1_555
N32 C84 1_555 1_555
N33 C85 1_555 1_555
N37 C84 1_555 1_555
N38 C85 1_555 1_555
N42 C89 1_555 1_555
N43 C90 1_555 1_555
N47 C104 1_555 1_555
N48 Co2 1_555 1_555
N52 Co2 1_555 1_555
N57 C127 1_555 1_555
N58 C128 1_555 1_555
N59 Co2 1_555 1_555
N60 C130 1_555 1_555
N61 C131 1_555 1_555
N66 C152 1_555 1_555
N67 C26 1_555 1_555
N68 C154 1_555 1_555
N69 C155 1_555 1_555
N70 C154 1_555 1_555
C2 N2 1_555 1_555
C6 N2 1_555 1_555
C11 N3 1_555 1_555
C13 N4 1_555 1_555
C14 N5 1_555 1_555
C14 N6 1_555 1_555
C17 N7 1_555 1_555
C18 C19 1_555 1_555
C21 N9 1_555 1_555
C25 N9 1_555 1_555
C34 N18 1_555 1_555
C54 N18 1_555 1_555
C55 N19 1_555 1_555
C59 N24 1_555 1_555
C60 N25 1_555 1_555
C79 N24 1_555 1_555
C80 N25 1_555 1_555
C89 N32 1_555 1_555
C90 N33 1_555 1_555
C94 N37 1_555 1_555
C94 N42 1_555 1_555
C95 N38 1_555 1_555
C95 N43 1_555 1_555
C105 N48 1_555 1_555
C109 N47 1_555 1_555
C110 N48 1_555 1_555
C114 C119 1_555 1_555
C115 C120 1_555 1_555
C129 N59 1_555 1_555
C142 C152 1_555 1_555
C147 N57 1_555 1_555
C148 N58 1_555 1_555
C149 N59 1_555 1_555
C150 N60 1_555 1_555
C151 N61 1_555 1_555
C153 N66 1_555 1_555
C153 N67 1_555 1_555
C155 N68 1_555 1_555
C156 N69 1_555 1_555
C156 N70 1_555 1_555
Co1_3 N1_2 1_555 1_555
Co2_2 N7_2 1_555 1_555
S1_2 C1_2 1_555 1_555
S2_2 C20_2 1_555 1_555
C1_2 N1_2 1_555 1_555
C2_2 H1_2 1_555 1_555
C3_2 C2_2 1_555 1_555
H2_2 C3_2 1_555 1_555
C4_2 C3_2 1_555 1_555
H3_2 C4_2 1_555 1_555
C5_2 C4_2 1_555 1_555
C6_2 C5_2 1_555 1_555
H4_2 C6_2 1_555 1_555
C7_2 H5_2 1_555 1_555
C8_2 C7_2 1_555 1_555
H6_2 C8_2 1_555 1_555
C9_2 C8_2 1_555 1_555
H7_2 C9_2 1_555 1_555
C10_2 C9_2 1_555 1_555
C11_2 C10_2 1_555 1_555
H8_2 C11_2 1_555 1_555
C12_2 C10_2 1_555 1_555
C13_2 C5_2 1_555 1_555
C14_2 C15_2 1_555 1_555
C15_2 C16_2 1_555 1_555
C16_2 H9_2 1_555 1_555
C17_2 H10_2 1_555 1_555
C18_2 C17_2 1_555 1_555
H11_2 C18_2 1_555 1_555
C19_2 C15_2 1_555 1_555
H12_2 C19_2 1_555 1_555
C20_2 N8_2 1_555 1_555
C21_2 H13_2 1_555 1_555
C22_2 C21_2 1_555 1_555
H14_2 C22_2 1_555 1_555
C23_2 C22_2 1_555 1_555
H15_2 C23_2 1_555 1_555
C24_2 C23_2 1_555 1_555
C25_2 C24_2 1_555 1_555
H16_2 C25_2 1_555 1_555
C26_2 C24_2 1_555 1_555
N2_2 Co1_3 1_555 1_555
N3_2 C7_2 1_555 1_555
N4_2 C12_2 1_555 1_555
N5_2 C12_2 1_555 1_555
N6_2 C13_2 1_555 1_555
N7_2 C16_2 1_555 1_555
N8_2 Co2_2 1_555 1_555
N9_2 Co2_2 1_555 1_555
N10_2 C26_2 1_555 1_555
Co3_2 N12_2 1_555 1_555
Co4_2 N14_2 1_555 1_555
Co5_2 N3_2 1_555 1_555
Co6_2 N22_2 1_555 1_555
Co7_2 N19_2 1_555 1_555
Co8_2 N26_2 1_555 1_555
Co9_2 N45_2 1_555 1_555
Co10_2 N46_2 1_555 1_555
Co11_2 N57_2 1_555 1_555
Co12_2 N58_2 1_555 1_555
Co13_2 N47_2 1_555 1_555
Co14_2 N60_2 1_555 1_555
Co15_2 N61_2 1_555 1_555
Co16_2 N49_2 1_555 1_555
S3_2 C27_2 1_555 1_555
S4_2 C28_2 1_555 1_555
S5_2 C29_2 1_555 1_555
S6_2 C30_2 1_555 1_555
S7_2 C31_2 1_555 1_555
S8_2 C122_2 1_555 1_555
S9_2 C123_2 1_555 1_555
S10_2 C124_2 1_555 1_555
S11_2 C125_2 1_555 1_555
S12_2 C126_2 1_555 1_555
C27_2 N11_2 1_555 1_555
C28_2 N12_2 1_555 1_555
C29_2 N13_2 1_555 1_555
C30_2 N14_2 1_555 1_555
C31_2 N15_2 1_555 1_555
C32_2 H17_2 1_555 1_555
C33_2 H18_2 1_555 1_555
C34_2 H19_2 1_555 1_555
C35_2 H20_2 1_555 1_555
C36_2 H21_2 1_555 1_555
C37_2 C32_2 1_555 1_555
C38_2 C33_2 1_555 1_555
C39_2 C34_2 1_555 1_555
C40_2 C35_2 1_555 1_555
C41_2 C36_2 1_555 1_555
H22_2 C37_2 1_555 1_555
H23_2 C38_2 1_555 1_555
H24_2 C39_2 1_555 1_555
H25_2 C40_2 1_555 1_555
H26_2 C41_2 1_555 1_555
C42_2 C37_2 1_555 1_555
C43_2 C38_2 1_555 1_555
C44_2 C39_2 1_555 1_555
C45_2 C40_2 1_555 1_555
C46_2 C41_2 1_555 1_555
H27_2 C42_2 1_555 1_555
H28_2 C43_2 1_555 1_555
H29_2 C44_2 1_555 1_555
H30_2 C45_2 1_555 1_555
H31_2 C46_2 1_555 1_555
C47_2 C42_2 1_555 1_555
C48_2 C43_2 1_555 1_555
C49_2 C44_2 1_555 1_555
C50_2 C45_2 1_555 1_555
C51_2 C46_2 1_555 1_555
C52_2 C47_2 1_555 1_555
C53_2 C48_2 1_555 1_555
C54_2 C49_2 1_555 1_555
C55_2 C50_2 1_555 1_555
C56_2 C51_2 1_555 1_555
H32_2 C52_2 1_555 1_555
H33_2 C53_2 1_555 1_555
H34_2 C54_2 1_555 1_555
H35_2 C55_2 1_555 1_555
H36_2 C56_2 1_555 1_555
C57_2 H37_2 1_555 1_555
C58_2 H38_2 1_555 1_555
C59_2 H39_2 1_555 1_555
C60_2 H40_2 1_555 1_555
C61_2 H41_2 1_555 1_555
C62_2 C57_2 1_555 1_555
C63_2 C58_2 1_555 1_555
C64_2 C59_2 1_555 1_555
C65_2 C60_2 1_555 1_555
C66_2 C61_2 1_555 1_555
H42_2 C62_2 1_555 1_555
H43_2 C63_2 1_555 1_555
H44_2 C64_2 1_555 1_555
H45_2 C65_2 1_555 1_555
H46_2 C66_2 1_555 1_555
C67_2 C62_2 1_555 1_555
C68_2 C63_2 1_555 1_555
C69_2 C64_2 1_555 1_555
C70_2 C65_2 1_555 1_555
C71_2 C66_2 1_555 1_555
H47_2 C67_2 1_555 1_555
H48_2 C68_2 1_555 1_555
H49_2 C69_2 1_555 1_555
H50_2 C70_2 1_555 1_555
H51_2 C71_2 1_555 1_555
C72_2 C67_2 1_555 1_555
C73_2 C68_2 1_555 1_555
C74_2 C69_2 1_555 1_555
C75_2 C70_2 1_555 1_555
C76_2 C71_2 1_555 1_555
C77_2 C72_2 1_555 1_555
C78_2 C73_2 1_555 1_555
C79_2 C74_2 1_555 1_555
C80_2 C75_2 1_555 1_555
C81_2 C76_2 1_555 1_555
H52_2 C77_2 1_555 1_555
H53_2 C78_2 1_555 1_555
H54_2 C79_2 1_555 1_555
H55_2 C80_2 1_555 1_555
H56_2 C81_2 1_555 1_555
C82_2 C72_2 1_555 1_555
C83_2 C73_2 1_555 1_555
C84_2 C74_2 1_555 1_555
C85_2 C75_2 1_555 1_555
C86_2 C76_2 1_555 1_555
C87_2 C47_2 1_555 1_555
C88_2 C48_2 1_555 1_555
C89_2 C49_2 1_555 1_555
C90_2 C50_2 1_555 1_555
C91_2 C51_2 1_555 1_555
C92_2 C97_2 1_555 1_555
C93_2 C98_2 1_555 1_555
C94_2 C99_2 1_555 1_555
C95_2 C100_2 1_555 1_555
C96_2 C101_2 1_555 1_555
C97_2 C102_2 1_555 1_555
C98_2 C103_2 1_555 1_555
C99_2 C104_2 1_555 1_555
C100_2 C105_2 1_555 1_555
C101_2 C106_2 1_555 1_555
C102_2 H57_2 1_555 1_555
C103_2 H58_2 1_555 1_555
C104_2 H59_2 1_555 1_555
C105_2 H60_2 1_555 1_555
C106_2 H61_2 1_555 1_555
C107_2 H62_2 1_555 1_555
C108_2 H63_2 1_555 1_555
C109_2 H64_2 1_555 1_555
C110_2 H65_2 1_555 1_555
C111_2 H66_2 1_555 1_555
C112_2 C107_2 1_555 1_555
C113_2 C108_2 1_555 1_555
C114_2 C109_2 1_555 1_555
C115_2 C110_2 1_555 1_555
C116_2 C111_2 1_555 1_555
H67_2 C112_2 1_555 1_555
H68_2 C113_2 1_555 1_555
H69_2 C114_2 1_555 1_555
H70_2 C115_2 1_555 1_555
H71_2 C116_2 1_555 1_555
C117_2 C97_2 1_555 1_555
C118_2 C98_2 1_555 1_555
C119_2 C99_2 1_555 1_555
C120_2 C100_2 1_555 1_555
C121_2 C101_2 1_555 1_555
H72_2 C117_2 1_555 1_555
H73_2 C118_2 1_555 1_555
H74_2 C119_2 1_555 1_555
H75_2 C120_2 1_555 1_555
H76_2 C121_2 1_555 1_555
C122_2 N52_2 1_555 1_555
C123_2 N53_2 1_555 1_555
C124_2 N54_2 1_555 1_555
C125_2 N55_2 1_555 1_555
C126_2 N56_2 1_555 1_555
C127_2 H77_2 1_555 1_555
C128_2 H78_2 1_555 1_555
C129_2 H79_2 1_555 1_555
C130_2 H80_2 1_555 1_555
C131_2 H81_2 1_555 1_555
C132_2 C127_2 1_555 1_555
C133_2 C128_2 1_555 1_555
C134_2 C129_2 1_555 1_555
C135_2 C130_2 1_555 1_555
C136_2 C131_2 1_555 1_555
H82_2 C132_2 1_555 1_555
H83_2 C133_2 1_555 1_555
H84_2 C134_2 1_555 1_555
H85_2 C135_2 1_555 1_555
H86_2 C136_2 1_555 1_555
C137_2 C132_2 1_555 1_555
C138_2 C133_2 1_555 1_555
C139_2 C134_2 1_555 1_555
C140_2 C135_2 1_555 1_555
C141_2 C136_2 1_555 1_555
H87_2 C137_2 1_555 1_555
H88_2 C138_2 1_555 1_555
H89_2 C139_2 1_555 1_555
H90_2 C140_2 1_555 1_555
H91_2 C141_2 1_555 1_555
C142_2 C137_2 1_555 1_555
C143_2 C138_2 1_555 1_555
C144_2 C139_2 1_555 1_555
C145_2 C140_2 1_555 1_555
C146_2 C141_2 1_555 1_555
C147_2 C142_2 1_555 1_555
C148_2 C143_2 1_555 1_555
C149_2 C144_2 1_555 1_555
C150_2 C145_2 1_555 1_555
C151_2 C146_2 1_555 1_555
H92_2 C147_2 1_555 1_555
H93_2 C148_2 1_555 1_555
H94_2 C149_2 1_555 1_555
H95_2 C150_2 1_555 1_555
H96_2 C151_2 1_555 1_555
C152_2 N10_2 1_555 1_555
C153_2 C143_2 1_555 1_555
C154_2 C144_2 1_555 1_555
C155_2 C145_2 1_555 1_555
C156_2 C146_2 1_555 1_555
N11_2 Co1_3 1_555 1_555
N13_2 Co3_2 1_555 1_555
N15_2 Co4_2 1_555 1_555
N16_2 Co1_3 1_555 1_555
N17_2 Co3_2 1_555 1_555
N18_2 Co4_2 1_555 1_555
N19_2 C35_2 1_555 1_555
N20_2 Co3_2 1_555 1_555
N21_2 Co4_2 1_555 1_555
N22_2 C57_2 1_555 1_555
N23_2 Co1_3 1_555 1_555
N24_2 Co1_3 1_555 1_555
N25_2 Co4_2 1_555 1_555
N26_2 C61_2 1_555 1_555
N27_2 Co3_2 1_555 1_555
N28_2 Co3_2 1_555 1_555
N29_2 Co4_2 1_555 1_555
N30_2 C82_2 1_555 1_555
N31_2 C83_2 1_555 1_555
N32_2 C84_2 1_555 1_555
N33_2 C85_2 1_555 1_555
N34_2 C86_2 1_555 1_555
N35_2 C82_2 1_555 1_555
N36_2 C83_2 1_555 1_555
N37_2 C84_2 1_555 1_555
N38_2 C85_2 1_555 1_555
N39_2 C86_2 1_555 1_555
N40_2 C87_2 1_555 1_555
N41_2 C88_2 1_555 1_555
N42_2 C89_2 1_555 1_555
N43_2 C90_2 1_555 1_555
N44_2 C91_2 1_555 1_555
N45_2 C102_2 1_555 1_555
N46_2 C103_2 1_555 1_555
N47_2 C104_2 1_555 1_555
N48_2 Co2_2 1_555 1_555
N49_2 C106_2 1_555 1_555
N50_2 Co9_2 1_555 1_555
N51_2 Co10_2 1_555 1_555
N52_2 Co2_2 1_555 1_555
N53_2 Co9_2 1_555 1_555
N54_2 Co9_2 1_555 1_555
N55_2 Co10_2 1_555 1_555
N56_2 Co10_2 1_555 1_555
N57_2 C127_2 1_555 1_555
N58_2 C128_2 1_555 1_555
N59_2 Co2_2 1_555 1_555
N60_2 C130_2 1_555 1_555
N61_2 C131_2 1_555 1_555
N62_2 Co9_2 1_555 1_555
N63_2 Co9_2 1_555 1_555
N64_2 Co10_2 1_555 1_555
N65_2 Co10_2 1_555 1_555
N66_2 C152_2 1_555 1_555
N67_2 C26_2 1_555 1_555
N68_2 C154_2 1_555 1_555
N69_2 C155_2 1_555 1_555
N70_2 C154_2 1_555 1_555
C2_2 N2_2 1_555 1_555
C6_2 N2_2 1_555 1_555
C11_2 N3_2 1_555 1_555
C13_2 N4_2 1_555 1_555
C14_2 N5_2 1_555 1_555
C14_2 N6_2 1_555 1_555
C17_2 N7_2 1_555 1_555
C18_2 C19_2 1_555 1_555
C21_2 N9_2 1_555 1_555
C25_2 N9_2 1_555 1_555
C32_2 N16_2 1_555 1_555
C33_2 N17_2 1_555 1_555
C34_2 N18_2 1_555 1_555
C36_2 N20_2 1_555 1_555
C52_2 N16_2 1_555 1_555
C53_2 N17_2 1_555 1_555
C54_2 N18_2 1_555 1_555
C55_2 N19_2 1_555 1_555
C56_2 N20_2 1_555 1_555
C58_2 N23_2 1_555 1_555
C59_2 N24_2 1_555 1_555
C60_2 N25_2 1_555 1_555
C77_2 N22_2 1_555 1_555
C78_2 N23_2 1_555 1_555
C79_2 N24_2 1_555 1_555
C80_2 N25_2 1_555 1_555
C81_2 N26_2 1_555 1_555
C87_2 N30_2 1_555 1_555
C88_2 N31_2 1_555 1_555
C89_2 N32_2 1_555 1_555
C90_2 N33_2 1_555 1_555
C91_2 N34_2 1_555 1_555
C92_2 N35_2 1_555 1_555
C92_2 N40_2 1_555 1_555
C93_2 N36_2 1_555 1_555
C93_2 N41_2 1_555 1_555
C94_2 N37_2 1_555 1_555
C94_2 N42_2 1_555 1_555
C95_2 N38_2 1_555 1_555
C95_2 N43_2 1_555 1_555
C96_2 N39_2 1_555 1_555
C96_2 N44_2 1_555 1_555
C105_2 N48_2 1_555 1_555
C107_2 N45_2 1_555 1_555
C108_2 N46_2 1_555 1_555
C109_2 N47_2 1_555 1_555
C110_2 N48_2 1_555 1_555
C111_2 N49_2 1_555 1_555
C112_2 C117_2 1_555 1_555
C113_2 C118_2 1_555 1_555
C114_2 C119_2 1_555 1_555
C115_2 C120_2 1_555 1_555
C116_2 C121_2 1_555 1_555
C129_2 N59_2 1_555 1_555
C142_2 C152_2 1_555 1_555
C147_2 N57_2 1_555 1_555
C148_2 N58_2 1_555 1_555
C149_2 N59_2 1_555 1_555
C150_2 N60_2 1_555 1_555
C151_2 N61_2 1_555 1_555
C153_2 N66_2 1_555 1_555
C153_2 N67_2 1_555 1_555
C155_2 N68_2 1_555 1_555
C156_2 N69_2 1_555 1_555
C156_2 N70_2 1_555 1_555
S9_3 C123_3 1_555 1_555
S10_3 C124_3 1_555 1_555
Co1_4 N1_3 1_555 1_555
Co2_3 N7_3 1_555 1_555
S1_3 C1_3 1_555 1_555
C1_3 N1_3 1_555 1_555
C2_3 H1_3 1_555 1_555
C3_3 C2_3 1_555 1_555
H2_3 C3_3 1_555 1_555
C4_3 C3_3 1_555 1_555
H3_3 C4_3 1_555 1_555
C5_3 C4_3 1_555 1_555
C6_3 C5_3 1_555 1_555
H4_3 C6_3 1_555 1_555
C7_3 H5_3 1_555 1_555
C8_3 C7_3 1_555 1_555
H6_3 C8_3 1_555 1_555
C9_3 C8_3 1_555 1_555
H7_3 C9_3 1_555 1_555
C10_3 C9_3 1_555 1_555
C11_3 C10_3 1_555 1_555
H8_3 C11_3 1_555 1_555
C12_3 C10_3 1_555 1_555
C13_3 C5_3 1_555 1_555
C14_3 C15_3 1_555 1_555
C15_3 C16_3 1_555 1_555
C16_3 H9_3 1_555 1_555
C17_3 H10_3 1_555 1_555
C18_3 C17_3 1_555 1_555
H11_3 C18_3 1_555 1_555
C19_3 C15_3 1_555 1_555
H12_3 C19_3 1_555 1_555
N2_3 Co1_4 1_555 1_555
N3_3 C7_3 1_555 1_555
N4_3 C12_3 1_555 1_555
N5_3 C12_3 1_555 1_555
N6_3 C13_3 1_555 1_555
N7_3 C16_3 1_555 1_555
N8_3 Co2_3 1_555 1_555
Co3_3 N12_3 1_555 1_555
Co4_3 N14_3 1_555 1_555
Co5_4 N3_3 1_555 1_555
Co6_3 N22_3 1_555 1_555
Co7_3 N19_3 1_555 1_555
Co8_3 N26_3 1_555 1_555
Co9_3 N45_3 1_555 1_555
Co10_3 N46_3 1_555 1_555
Co13_3 N47_3 1_555 1_555
Co16_3 N49_3 1_555 1_555
S3_3 C27_3 1_555 1_555
S4_3 C28_3 1_555 1_555
S5_3 C29_3 1_555 1_555
S6_3 C30_3 1_555 1_555
S7_3 C31_3 1_555 1_555
S11_3 C125_3 1_555 1_555
S12_3 C126_3 1_555 1_555
C27_3 N11_3 1_555 1_555
C28_3 N12_3 1_555 1_555
C29_3 N13_3 1_555 1_555
C30_3 N14_3 1_555 1_555
C31_3 N15_3 1_555 1_555
C32_3 H17_3 1_555 1_555
C33_3 H18_3 1_555 1_555
C34_3 H19_3 1_555 1_555
C35_3 H20_3 1_555 1_555
C36_3 H21_3 1_555 1_555
C37_3 C32_3 1_555 1_555
C38_3 C33_3 1_555 1_555
C39_3 C34_3 1_555 1_555
C40_3 C35_3 1_555 1_555
C41_3 C36_3 1_555 1_555
H22_3 C37_3 1_555 1_555
H23_3 C38_3 1_555 1_555
H24_3 C39_3 1_555 1_555
H25_3 C40_3 1_555 1_555
H26_3 C41_3 1_555 1_555
C42_3 C37_3 1_555 1_555
C43_3 C38_3 1_555 1_555
C44_3 C39_3 1_555 1_555
C45_3 C40_3 1_555 1_555
C46_3 C41_3 1_555 1_555
H27_3 C42_3 1_555 1_555
H28_3 C43_3 1_555 1_555
H29_3 C44_3 1_555 1_555
H30_3 C45_3 1_555 1_555
H31_3 C46_3 1_555 1_555
C47_3 C42_3 1_555 1_555
C48_3 C43_3 1_555 1_555
C49_3 C44_3 1_555 1_555
C50_3 C45_3 1_555 1_555
C51_3 C46_3 1_555 1_555
C52_3 C47_3 1_555 1_555
C53_3 C48_3 1_555 1_555
C54_3 C49_3 1_555 1_555
C55_3 C50_3 1_555 1_555
C56_3 C51_3 1_555 1_555
H32_3 C52_3 1_555 1_555
H33_3 C53_3 1_555 1_555
H34_3 C54_3 1_555 1_555
H35_3 C55_3 1_555 1_555
H36_3 C56_3 1_555 1_555
C57_3 H37_3 1_555 1_555
C58_3 H38_3 1_555 1_555
C59_3 H39_3 1_555 1_555
C60_3 H40_3 1_555 1_555
C61_3 H41_3 1_555 1_555
C62_3 C57_3 1_555 1_555
C63_3 C58_3 1_555 1_555
C64_3 C59_3 1_555 1_555
C65_3 C60_3 1_555 1_555
C66_3 C61_3 1_555 1_555
H42_3 C62_3 1_555 1_555
H43_3 C63_3 1_555 1_555
H44_3 C64_3 1_555 1_555
H45_3 C65_3 1_555 1_555
H46_3 C66_3 1_555 1_555
C67_3 C62_3 1_555 1_555
C68_3 C63_3 1_555 1_555
C69_3 C64_3 1_555 1_555
C70_3 C65_3 1_555 1_555
C71_3 C66_3 1_555 1_555
H47_3 C67_3 1_555 1_555
H48_3 C68_3 1_555 1_555
H49_3 C69_3 1_555 1_555
H50_3 C70_3 1_555 1_555
H51_3 C71_3 1_555 1_555
C72_3 C67_3 1_555 1_555
C73_3 C68_3 1_555 1_555
C74_3 C69_3 1_555 1_555
C75_3 C70_3 1_555 1_555
C76_3 C71_3 1_555 1_555
C77_3 C72_3 1_555 1_555
C78_3 C73_3 1_555 1_555
C79_3 C74_3 1_555 1_555
C80_3 C75_3 1_555 1_555
C81_3 C76_3 1_555 1_555
H52_3 C77_3 1_555 1_555
H53_3 C78_3 1_555 1_555
H54_3 C79_3 1_555 1_555
H55_3 C80_3 1_555 1_555
H56_3 C81_3 1_555 1_555
C82_3 C72_3 1_555 1_555
C83_3 C73_3 1_555 1_555
C84_3 C74_3 1_555 1_555
C85_3 C75_3 1_555 1_555
C86_3 C76_3 1_555 1_555
C87_3 C47_3 1_555 1_555
C88_3 C48_3 1_555 1_555
C89_3 C49_3 1_555 1_555
C90_3 C50_3 1_555 1_555
C91_3 C51_3 1_555 1_555
C92_3 C97_3 1_555 1_555
C93_3 C98_3 1_555 1_555
C94_3 C99_3 1_555 1_555
C95_3 C100_3 1_555 1_555
C96_3 C101_3 1_555 1_555
C97_3 C102_3 1_555 1_555
C98_3 C103_3 1_555 1_555
C99_3 C104_3 1_555 1_555
C100_3 C105_3 1_555 1_555
C101_3 C106_3 1_555 1_555
C102_3 H57_3 1_555 1_555
C103_3 H58_3 1_555 1_555
C104_3 H59_3 1_555 1_555
C105_3 H60_3 1_555 1_555
C106_3 H61_3 1_555 1_555
C107_3 H62_3 1_555 1_555
C108_3 H63_3 1_555 1_555
C109_3 H64_3 1_555 1_555
C110_3 H65_3 1_555 1_555
C111_3 H66_3 1_555 1_555
C112_3 C107_3 1_555 1_555
C113_3 C108_3 1_555 1_555
C114_3 C109_3 1_555 1_555
C115_3 C110_3 1_555 1_555
C116_3 C111_3 1_555 1_555
H67_3 C112_3 1_555 1_555
H68_3 C113_3 1_555 1_555
H69_3 C114_3 1_555 1_555
H70_3 C115_3 1_555 1_555
H71_3 C116_3 1_555 1_555
C117_3 C97_3 1_555 1_555
C118_3 C98_3 1_555 1_555
C119_3 C99_3 1_555 1_555
C120_3 C100_3 1_555 1_555
C121_3 C101_3 1_555 1_555
H72_3 C117_3 1_555 1_555
H73_3 C118_3 1_555 1_555
H74_3 C119_3 1_555 1_555
H75_3 C120_3 1_555 1_555
H76_3 C121_3 1_555 1_555
C125_3 N55_3 1_555 1_555
C126_3 N56_3 1_555 1_555
N11_3 Co1_4 1_555 1_555
N13_3 Co3_3 1_555 1_555
N15_3 Co4_3 1_555 1_555
N16_3 Co1_4 1_555 1_555
N17_3 Co3_3 1_555 1_555
N18_3 Co4_3 1_555 1_555
N19_3 C35_3 1_555 1_555
N20_3 Co3_3 1_555 1_555
N21_3 Co4_3 1_555 1_555
N22_3 C57_3 1_555 1_555
N23_3 Co1_4 1_555 1_555
N24_3 Co1_4 1_555 1_555
N25_3 Co4_3 1_555 1_555
N26_3 C61_3 1_555 1_555
N27_3 Co3_3 1_555 1_555
N28_3 Co3_3 1_555 1_555
N29_3 Co4_3 1_555 1_555
N30_3 C82_3 1_555 1_555
N31_3 C83_3 1_555 1_555
N32_3 C84_3 1_555 1_555
N33_3 C85_3 1_555 1_555
N34_3 C86_3 1_555 1_555
N35_3 C82_3 1_555 1_555
N36_3 C83_3 1_555 1_555
N37_3 C84_3 1_555 1_555
N38_3 C85_3 1_555 1_555
N39_3 C86_3 1_555 1_555
N40_3 C87_3 1_555 1_555
N41_3 C88_3 1_555 1_555
N42_3 C89_3 1_555 1_555
N43_3 C90_3 1_555 1_555
N44_3 C91_3 1_555 1_555
N45_3 C102_3 1_555 1_555
N46_3 C103_3 1_555 1_555
N47_3 C104_3 1_555 1_555
N48_3 Co2_3 1_555 1_555
N49_3 C106_3 1_555 1_555
N50_3 Co9_3 1_555 1_555
N51_3 Co10_3 1_555 1_555
N52_3 Co2_3 1_555 1_555
N53_3 Co9_3 1_555 1_555
N54_3 Co9_3 1_555 1_555
N55_3 Co10_3 1_555 1_555
N56_3 Co10_3 1_555 1_555
N64_3 Co10_3 1_555 1_555
N65_3 Co10_3 1_555 1_555
C2_3 N2_3 1_555 1_555
C6_3 N2_3 1_555 1_555
C11_3 N3_3 1_555 1_555
C13_3 N4_3 1_555 1_555
C14_3 N5_3 1_555 1_555
C14_3 N6_3 1_555 1_555
C17_3 N7_3 1_555 1_555
C18_3 C19_3 1_555 1_555
C32_3 N16_3 1_555 1_555
C33_3 N17_3 1_555 1_555
C34_3 N18_3 1_555 1_555
C36_3 N20_3 1_555 1_555
C52_3 N16_3 1_555 1_555
C53_3 N17_3 1_555 1_555
C54_3 N18_3 1_555 1_555
C55_3 N19_3 1_555 1_555
C56_3 N20_3 1_555 1_555
C58_3 N23_3 1_555 1_555
C59_3 N24_3 1_555 1_555
C60_3 N25_3 1_555 1_555
C77_3 N22_3 1_555 1_555
C78_3 N23_3 1_555 1_555
C79_3 N24_3 1_555 1_555
C80_3 N25_3 1_555 1_555
C81_3 N26_3 1_555 1_555
C87_3 N30_3 1_555 1_555
C88_3 N31_3 1_555 1_555
C89_3 N32_3 1_555 1_555
C90_3 N33_3 1_555 1_555
C91_3 N34_3 1_555 1_555
C92_3 N35_3 1_555 1_555
C92_3 N40_3 1_555 1_555
C93_3 N36_3 1_555 1_555
C93_3 N41_3 1_555 1_555
C94_3 N37_3 1_555 1_555
C94_3 N42_3 1_555 1_555
C95_3 N38_3 1_555 1_555
C95_3 N43_3 1_555 1_555
C96_3 N39_3 1_555 1_555
C96_3 N44_3 1_555 1_555
C105_3 N48_3 1_555 1_555
C107_3 N45_3 1_555 1_555
C108_3 N46_3 1_555 1_555
C109_3 N47_3 1_555 1_555
C110_3 N48_3 1_555 1_555
C111_3 N49_3 1_555 1_555
C112_3 C117_3 1_555 1_555
C113_3 C118_3 1_555 1_555
C114_3 C119_3 1_555 1_555
C115_3 C120_3 1_555 1_555
C116_3 C121_3 1_555 1_555
S2_3 C20_3 1_555 1_555
C21_3 H13_3 1_555 1_555
C22_3 C21_3 1_555 1_555
H14_3 C22_3 1_555 1_555
C23_3 C22_3 1_555 1_555
H15_3 C23_3 1_555 1_555
C24_3 C23_3 1_555 1_555
C25_3 C24_3 1_555 1_555
H16_3 C25_3 1_555 1_555
C26_3 C24_3 1_555 1_555
N10_3 C26_3 1_555 1_555
Co11_3 N57_3 1_555 1_555
Co14_3 N60_3 1_555 1_555
Co15_3 N61_3 1_555 1_555
S8_3 C122_3 1_555 1_555
C127_3 H77_3 1_555 1_555
C128_3 H78_3 1_555 1_555
C129_3 H79_3 1_555 1_555
C130_3 H80_3 1_555 1_555
C131_3 H81_3 1_555 1_555
C132_3 C127_3 1_555 1_555
C133_3 C128_3 1_555 1_555
C134_3 C129_3 1_555 1_555
C135_3 C130_3 1_555 1_555
C136_3 C131_3 1_555 1_555
H82_3 C132_3 1_555 1_555
H83_3 C133_3 1_555 1_555
H84_3 C134_3 1_555 1_555
H85_3 C135_3 1_555 1_555
H86_3 C136_3 1_555 1_555
C137_3 C132_3 1_555 1_555
C138_3 C133_3 1_555 1_555
C139_3 C134_3 1_555 1_555
C140_3 C135_3 1_555 1_555
C141_3 C136_3 1_555 1_555
H87_3 C137_3 1_555 1_555
H88_3 C138_3 1_555 1_555
H89_3 C139_3 1_555 1_555
H90_3 C140_3 1_555 1_555
H91_3 C141_3 1_555 1_555
C142_3 C137_3 1_555 1_555
C143_3 C138_3 1_555 1_555
C144_3 C139_3 1_555 1_555
C145_3 C140_3 1_555 1_555
C146_3 C141_3 1_555 1_555
C147_3 C142_3 1_555 1_555
C148_3 C143_3 1_555 1_555
C149_3 C144_3 1_555 1_555
C150_3 C145_3 1_555 1_555
C151_3 C146_3 1_555 1_555
H92_3 C147_3 1_555 1_555
H93_3 C148_3 1_555 1_555
H94_3 C149_3 1_555 1_555
H95_3 C150_3 1_555 1_555
H96_3 C151_3 1_555 1_555
C152_3 N10_3 1_555 1_555
C153_3 C143_3 1_555 1_555
C154_3 C144_3 1_555 1_555
C155_3 C145_3 1_555 1_555
C156_3 C146_3 1_555 1_555
N57_3 C127_3 1_555 1_555
N58_3 C128_3 1_555 1_555
N60_3 C130_3 1_555 1_555
N61_3 C131_3 1_555 1_555
N66_3 C152_3 1_555 1_555
N67_3 C26_3 1_555 1_555
N68_3 C154_3 1_555 1_555
N69_3 C155_3 1_555 1_555
N70_3 C154_3 1_555 1_555
C21_3 N9_3 1_555 1_555
C25_3 N9_3 1_555 1_555
C129_3 N59_3 1_555 1_555
C142_3 C152_3 1_555 1_555
C147_3 N57_3 1_555 1_555
C148_3 N58_3 1_555 1_555
C149_3 N59_3 1_555 1_555
C150_3 N60_3 1_555 1_555
C151_3 N61_3 1_555 1_555
C153_3 N66_3 1_555 1_555
C153_3 N67_3 1_555 1_555
C155_3 N68_3 1_555 1_555
C156_3 N69_3 1_555 1_555
C156_3 N70_3 1_555 1_555
Co4_4 N14_4 1_555 1_555
S6_4 C30_4 1_555 1_555
S11_4 C125_4 1_555 1_555
S12_4 C126_4 1_555 1_555
C30_4 N14_4 1_555 1_555
N21_4 Co4_4 1_555 1_555
N29_4 Co4_4 1_555 1_555
Co1_5 N1_4 1_555 1_555
Co2_4 N7_4 1_555 1_555
S1_4 C1_4 1_555 1_555
S2_4 C20_4 1_555 1_555
C1_4 N1_4 1_555 1_555
C2_4 H1_4 1_555 1_555
C3_4 C2_4 1_555 1_555
H2_4 C3_4 1_555 1_555
C4_4 C3_4 1_555 1_555
H3_4 C4_4 1_555 1_555
C5_4 C4_4 1_555 1_555
C6_4 C5_4 1_555 1_555
H4_4 C6_4 1_555 1_555
C7_4 H5_4 1_555 1_555
C8_4 C7_4 1_555 1_555
H6_4 C8_4 1_555 1_555
C9_4 C8_4 1_555 1_555
H7_4 C9_4 1_555 1_555
C10_4 C9_4 1_555 1_555
C11_4 C10_4 1_555 1_555
H8_4 C11_4 1_555 1_555
C12_4 C10_4 1_555 1_555
C13_4 C5_4 1_555 1_555
C14_4 C15_4 1_555 1_555
C15_4 C16_4 1_555 1_555
C16_4 H9_4 1_555 1_555
C17_4 H10_4 1_555 1_555
C18_4 C17_4 1_555 1_555
H11_4 C18_4 1_555 1_555
C19_4 C15_4 1_555 1_555
H12_4 C19_4 1_555 1_555
C20_4 N8_4 1_555 1_555
C21_4 H13_4 1_555 1_555
C22_4 C21_4 1_555 1_555
H14_4 C22_4 1_555 1_555
C23_4 C22_4 1_555 1_555
H15_4 C23_4 1_555 1_555
C24_4 C23_4 1_555 1_555
C25_4 C24_4 1_555 1_555
H16_4 C25_4 1_555 1_555
C26_4 C24_4 1_555 1_555
N2_4 Co1_5 1_555 1_555
N3_4 C7_4 1_555 1_555
N4_4 C12_4 1_555 1_555
N5_4 C12_4 1_555 1_555
N6_4 C13_4 1_555 1_555
N7_4 C16_4 1_555 1_555
N8_4 Co2_4 1_555 1_555
N9_4 Co2_4 1_555 1_555
N10_4 C26_4 1_555 1_555
Co5_5 N3_4 1_555 1_555
Co6_5 N22_4 1_555 1_555
Co7_5 N19_4 1_555 1_555
Co9_4 N45_4 1_555 1_555
Co10_4 N46_4 1_555 1_555
Co12_4 N58_4 1_555 1_555
Co13_4 N47_4 1_555 1_555
Co14_4 N60_4 1_555 1_555
S3_4 C27_4 1_555 1_555
S5_4 C29_4 1_555 1_555
S7_4 C31_4 1_555 1_555
S8_4 C122_4 1_555 1_555
S9_4 C123_4 1_555 1_555
S10_4 C124_4 1_555 1_555
C27_4 N11_4 1_555 1_555
C29_4 N13_4 1_555 1_555
C31_4 N15_4 1_555 1_555
C32_4 H17_4 1_555 1_555
C37_4 C32_4 1_555 1_555
C38_4 C33_4 1_555 1_555
C39_4 C34_4 1_555 1_555
C40_4 C35_4 1_555 1_555
H22_4 C37_4 1_555 1_555
H23_4 C38_4 1_555 1_555
H24_4 C39_4 1_555 1_555
H25_4 C40_4 1_555 1_555
C42_4 C37_4 1_555 1_555
C43_4 C38_4 1_555 1_555
C44_4 C39_4 1_555 1_555
C45_4 C40_4 1_555 1_555
H27_4 C42_4 1_555 1_555
H28_4 C43_4 1_555 1_555
H29_4 C44_4 1_555 1_555
H30_4 C45_4 1_555 1_555
C47_4 C42_4 1_555 1_555
C48_4 C43_4 1_555 1_555
C49_4 C44_4 1_555 1_555
C50_4 C45_4 1_555 1_555
C52_4 C47_4 1_555 1_555
C53_4 C48_4 1_555 1_555
C54_4 C49_4 1_555 1_555
C55_4 C50_4 1_555 1_555
H32_4 C52_4 1_555 1_555
H33_4 C53_4 1_555 1_555
H34_4 C54_4 1_555 1_555
H35_4 C55_4 1_555 1_555
C57_4 H37_4 1_555 1_555
C58_4 H38_4 1_555 1_555
C59_4 H39_4 1_555 1_555
C60_4 H40_4 1_555 1_555
C62_4 C57_4 1_555 1_555
C63_4 C58_4 1_555 1_555
C64_4 C59_4 1_555 1_555
C65_4 C60_4 1_555 1_555
H42_4 C62_4 1_555 1_555
H43_4 C63_4 1_555 1_555
H44_4 C64_4 1_555 1_555
H45_4 C65_4 1_555 1_555
C67_4 C62_4 1_555 1_555
C68_4 C63_4 1_555 1_555
C69_4 C64_4 1_555 1_555
C70_4 C65_4 1_555 1_555
H47_4 C67_4 1_555 1_555
H48_4 C68_4 1_555 1_555
H49_4 C69_4 1_555 1_555
H50_4 C70_4 1_555 1_555
C72_4 C67_4 1_555 1_555
C73_4 C68_4 1_555 1_555
C74_4 C69_4 1_555 1_555
C75_4 C70_4 1_555 1_555
C77_4 C72_4 1_555 1_555
C78_4 C73_4 1_555 1_555
C79_4 C74_4 1_555 1_555
C80_4 C75_4 1_555 1_555
H52_4 C77_4 1_555 1_555
H53_4 C78_4 1_555 1_555
H54_4 C79_4 1_555 1_555
H55_4 C80_4 1_555 1_555
C82_4 C72_4 1_555 1_555
C83_4 C73_4 1_555 1_555
C84_4 C74_4 1_555 1_555
C85_4 C75_4 1_555 1_555
C87_4 C47_4 1_555 1_555
C88_4 C48_4 1_555 1_555
C89_4 C49_4 1_555 1_555
C90_4 C50_4 1_555 1_555
C92_4 C97_4 1_555 1_555
C93_4 C98_4 1_555 1_555
C94_4 C99_4 1_555 1_555
C95_4 C100_4 1_555 1_555
C97_4 C102_4 1_555 1_555
C98_4 C103_4 1_555 1_555
C99_4 C104_4 1_555 1_555
C100_4 C105_4 1_555 1_555
C102_4 H57_4 1_555 1_555
C103_4 H58_4 1_555 1_555
C104_4 H59_4 1_555 1_555
C105_4 H60_4 1_555 1_555
C107_4 H62_4 1_555 1_555
C108_4 H63_4 1_555 1_555
C109_4 H64_4 1_555 1_555
C110_4 H65_4 1_555 1_555
C112_4 C107_4 1_555 1_555
C113_4 C108_4 1_555 1_555
C114_4 C109_4 1_555 1_555
C115_4 C110_4 1_555 1_555
H67_4 C112_4 1_555 1_555
H68_4 C113_4 1_555 1_555
H69_4 C114_4 1_555 1_555
H70_4 C115_4 1_555 1_555
C117_4 C97_4 1_555 1_555
C118_4 C98_4 1_555 1_555
C119_4 C99_4 1_555 1_555
C120_4 C100_4 1_555 1_555
H72_4 C117_4 1_555 1_555
H73_4 C118_4 1_555 1_555
H74_4 C119_4 1_555 1_555
H75_4 C120_4 1_555 1_555
C122_4 N52_4 1_555 1_555
C123_4 N53_4 1_555 1_555
C124_4 N54_4 1_555 1_555
C127_4 H77_4 1_555 1_555
C128_4 H78_4 1_555 1_555
C129_4 H79_4 1_555 1_555
C130_4 H80_4 1_555 1_555
C131_4 H81_4 1_555 1_555
C132_4 C127_4 1_555 1_555
C133_4 C128_4 1_555 1_555
C134_4 C129_4 1_555 1_555
C135_4 C130_4 1_555 1_555
C136_4 C131_4 1_555 1_555
H82_4 C132_4 1_555 1_555
H83_4 C133_4 1_555 1_555
H84_4 C134_4 1_555 1_555
H85_4 C135_4 1_555 1_555
H86_4 C136_4 1_555 1_555
C137_4 C132_4 1_555 1_555
C138_4 C133_4 1_555 1_555
C139_4 C134_4 1_555 1_555
C140_4 C135_4 1_555 1_555
C141_4 C136_4 1_555 1_555
H87_4 C137_4 1_555 1_555
H88_4 C138_4 1_555 1_555
H89_4 C139_4 1_555 1_555
H90_4 C140_4 1_555 1_555
H91_4 C141_4 1_555 1_555
C142_4 C137_4 1_555 1_555
C143_4 C138_4 1_555 1_555
C144_4 C139_4 1_555 1_555
C145_4 C140_4 1_555 1_555
C146_4 C141_4 1_555 1_555
C147_4 C142_4 1_555 1_555
C148_4 C143_4 1_555 1_555
C149_4 C144_4 1_555 1_555
C150_4 C145_4 1_555 1_555
C151_4 C146_4 1_555 1_555
H92_4 C147_4 1_555 1_555
H93_4 C148_4 1_555 1_555
H94_4 C149_4 1_555 1_555
H95_4 C150_4 1_555 1_555
H96_4 C151_4 1_555 1_555
C152_4 N10_4 1_555 1_555
C153_4 C143_4 1_555 1_555
C154_4 C144_4 1_555 1_555
C155_4 C145_4 1_555 1_555
C156_4 C146_4 1_555 1_555
N11_4 Co1_5 1_555 1_555
N13_4 Co3_4 1_555 1_555
N15_4 Co4_5 1_555 1_555
N16_4 Co1_5 1_555 1_555
N17_4 Co3_4 1_555 1_555
N18_4 Co4_5 1_555 1_555
N19_4 C35_4 1_555 1_555
N22_4 C57_4 1_555 1_555
N23_4 Co1_5 1_555 1_555
N24_4 Co1_5 1_555 1_555
N25_4 Co4_5 1_555 1_555
N28_4 Co3_4 1_555 1_555
N30_4 C82_4 1_555 1_555
N31_4 C83_4 1_555 1_555
N32_4 C84_4 1_555 1_555
N33_4 C85_4 1_555 1_555
N35_4 C82_4 1_555 1_555
N36_4 C83_4 1_555 1_555
N37_4 C84_4 1_555 1_555
N38_4 C85_4 1_555 1_555
N40_4 C87_4 1_555 1_555
N41_4 C88_4 1_555 1_555
N42_4 C89_4 1_555 1_555
N43_4 C90_4 1_555 1_555
N45_4 C102_4 1_555 1_555
N46_4 C103_4 1_555 1_555
N47_4 C104_4 1_555 1_555
N48_4 Co2_4 1_555 1_555
N50_4 Co9_4 1_555 1_555
N51_4 Co10_4 1_555 1_555
N52_4 Co2_4 1_555 1_555
N53_4 Co9_4 1_555 1_555
N54_4 Co9_4 1_555 1_555
N55_4 Co10_4 1_555 1_555
N56_4 Co10_4 1_555 1_555
N57_4 C127_4 1_555 1_555
N58_4 C128_4 1_555 1_555
N59_4 Co2_4 1_555 1_555
N60_4 C130_4 1_555 1_555
N61_4 C131_4 1_555 1_555
N62_4 Co9_4 1_555 1_555
N63_4 Co9_4 1_555 1_555
N66_4 C152_4 1_555 1_555
N67_4 C26_4 1_555 1_555
N68_4 C154_4 1_555 1_555
N69_4 C155_4 1_555 1_555
N70_4 C154_4 1_555 1_555
C2_4 N2_4 1_555 1_555
C6_4 N2_4 1_555 1_555
C11_4 N3_4 1_555 1_555
C13_4 N4_4 1_555 1_555
C14_4 N5_4 1_555 1_555
C14_4 N6_4 1_555 1_555
C17_4 N7_4 1_555 1_555
C18_4 C19_4 1_555 1_555
C21_4 N9_4 1_555 1_555
C25_4 N9_4 1_555 1_555
C32_4 N16_4 1_555 1_555
C33_4 N17_4 1_555 1_555
C34_4 N18_4 1_555 1_555
C52_4 N16_4 1_555 1_555
C53_4 N17_4 1_555 1_555
C54_4 N18_4 1_555 1_555
C55_4 N19_4 1_555 1_555
C58_4 N23_4 1_555 1_555
C59_4 N24_4 1_555 1_555
C60_4 N25_4 1_555 1_555
C77_4 N22_4 1_555 1_555
C78_4 N23_4 1_555 1_555
C79_4 N24_4 1_555 1_555
C80_4 N25_4 1_555 1_555
C87_4 N30_4 1_555 1_555
C88_4 N31_4 1_555 1_555
C89_4 N32_4 1_555 1_555
C90_4 N33_4 1_555 1_555
C92_4 N35_4 1_555 1_555
C92_4 N40_4 1_555 1_555
C93_4 N36_4 1_555 1_555
C93_4 N41_4 1_555 1_555
C94_4 N37_4 1_555 1_555
C94_4 N42_4 1_555 1_555
C95_4 N38_4 1_555 1_555
C95_4 N43_4 1_555 1_555
C105_4 N48_4 1_555 1_555
C107_4 N45_4 1_555 1_555
C108_4 N46_4 1_555 1_555
C109_4 N47_4 1_555 1_555
C110_4 N48_4 1_555 1_555
C112_4 C117_4 1_555 1_555
C113_4 C118_4 1_555 1_555
C114_4 C119_4 1_555 1_555
C115_4 C120_4 1_555 1_555
C129_4 N59_4 1_555 1_555
C142_4 C152_4 1_555 1_555
C147_4 N57_4 1_555 1_555
C148_4 N58_4 1_555 1_555
C149_4 N59_4 1_555 1_555
C150_4 N60_4 1_555 1_555
C151_4 N61_4 1_555 1_555
C153_4 N66_4 1_555 1_555
C153_4 N67_4 1_555 1_555
C155_4 N68_4 1_555 1_555
C156_4 N69_4 1_555 1_555
C156_4 N70_4 1_555 1_555
Co3_5 N12_4 1_555 1_555
Co8_5 N26_4 1_555 1_555
Co16_4 N49_4 1_555 1_555
S4_4 C28_4 1_555 1_555
C28_4 N12_4 1_555 1_555
C41_4 C36_4 1_555 1_555
H26_4 C41_4 1_555 1_555
C46_4 C41_4 1_555 1_555
H31_4 C46_4 1_555 1_555
C51_4 C46_4 1_555 1_555
C56_4 C51_4 1_555 1_555
H36_4 C56_4 1_555 1_555
C61_4 H41_4 1_555 1_555
C66_4 C61_4 1_555 1_555
H46_4 C66_4 1_555 1_555
C71_4 C66_4 1_555 1_555
H51_4 C71_4 1_555 1_555
C76_4 C71_4 1_555 1_555
C81_4 C76_4 1_555 1_555
H56_4 C81_4 1_555 1_555
C86_4 C76_4 1_555 1_555
C91_4 C51_4 1_555 1_555
C96_4 C101_4 1_555 1_555
C101_4 C106_4 1_555 1_555
C106_4 H61_4 1_555 1_555
C111_4 H66_4 1_555 1_555
C116_4 C111_4 1_555 1_555
H71_4 C116_4 1_555 1_555
C121_4 C101_4 1_555 1_555
H76_4 C121_4 1_555 1_555
N20_4 Co3_5 1_555 1_555
N26_4 C61_4 1_555 1_555
N27_4 Co3_5 1_555 1_555
N34_4 C86_4 1_555 1_555
N39_4 C86_4 1_555 1_555
N44_4 C91_4 1_555 1_555
N49_4 C106_4 1_555 1_555
C36_4 N20_4 1_555 1_555
C56_4 N20_4 1_555 1_555
C81_4 N26_4 1_555 1_555
C91_4 N34_4 1_555 1_555
C96_4 N39_4 1_555 1_555
C96_4 N44_4 1_555 1_555
C111_4 N49_4 1_555 1_555
C116_4 C121_4 1_555 1_555
Co1_6 N1_5 1_555 1_555
S1_5 C1_5 1_555 1_555
C1_5 N1_5 1_555 1_555
Co3_6 N12_5 1_555 1_555
Co8_6 N26_5 1_555 1_555
Co9_5 N45_5 1_555 1_555
Co10_5 N46_5 1_555 1_555
Co16_5 N49_5 1_555 1_555
S4_5 C28_5 1_555 1_555
S5_5 C29_5 1_555 1_555
S9_5 C123_5 1_555 1_555
S10_5 C124_5 1_555 1_555
S11_5 C125_5 1_555 1_555
S12_5 C126_5 1_555 1_555
C28_5 N12_5 1_555 1_555
C29_5 N13_5 1_555 1_555
C33_5 H18_5 1_555 1_555
C36_5 H21_5 1_555 1_555
C37_5 C32_5 1_555 1_555
C38_5 C33_5 1_555 1_555
C41_5 C36_5 1_555 1_555
H22_5 C37_5 1_555 1_555
H23_5 C38_5 1_555 1_555
H26_5 C41_5 1_555 1_555
C42_5 C37_5 1_555 1_555
C43_5 C38_5 1_555 1_555
C46_5 C41_5 1_555 1_555
H27_5 C42_5 1_555 1_555
H28_5 C43_5 1_555 1_555
H31_5 C46_5 1_555 1_555
C47_5 C42_5 1_555 1_555
C48_5 C43_5 1_555 1_555
C51_5 C46_5 1_555 1_555
C52_5 C47_5 1_555 1_555
C53_5 C48_5 1_555 1_555
C56_5 C51_5 1_555 1_555
H32_5 C52_5 1_555 1_555
H33_5 C53_5 1_555 1_555
H36_5 C56_5 1_555 1_555
C57_5 H37_5 1_555 1_555
C58_5 H38_5 1_555 1_555
C61_5 H41_5 1_555 1_555
C62_5 C57_5 1_555 1_555
C63_5 C58_5 1_555 1_555
C66_5 C61_5 1_555 1_555
H42_5 C62_5 1_555 1_555
H43_5 C63_5 1_555 1_555
H46_5 C66_5 1_555 1_555
C67_5 C62_5 1_555 1_555
C68_5 C63_5 1_555 1_555
C71_5 C66_5 1_555 1_555
H47_5 C67_5 1_555 1_555
H48_5 C68_5 1_555 1_555
H51_5 C71_5 1_555 1_555
C72_5 C67_5 1_555 1_555
C73_5 C68_5 1_555 1_555
C76_5 C71_5 1_555 1_555
C77_5 C72_5 1_555 1_555
C78_5 C73_5 1_555 1_555
C81_5 C76_5 1_555 1_555
H52_5 C77_5 1_555 1_555
H53_5 C78_5 1_555 1_555
H56_5 C81_5 1_555 1_555
C82_5 C72_5 1_555 1_555
C83_5 C73_5 1_555 1_555
C86_5 C76_5 1_555 1_555
C87_5 C47_5 1_555 1_555
C88_5 C48_5 1_555 1_555
C91_5 C51_5 1_555 1_555
C92_5 C97_5 1_555 1_555
C93_5 C98_5 1_555 1_555
C96_5 C101_5 1_555 1_555
C97_5 C102_5 1_555 1_555
C98_5 C103_5 1_555 1_555
C101_5 C106_5 1_555 1_555
C102_5 H57_5 1_555 1_555
C103_5 H58_5 1_555 1_555
C106_5 H61_5 1_555 1_555
C107_5 H62_5 1_555 1_555
C108_5 H63_5 1_555 1_555
C111_5 H66_5 1_555 1_555
C112_5 C107_5 1_555 1_555
C113_5 C108_5 1_555 1_555
C116_5 C111_5 1_555 1_555
H67_5 C112_5 1_555 1_555
H68_5 C113_5 1_555 1_555
H71_5 C116_5 1_555 1_555
C117_5 C97_5 1_555 1_555
C118_5 C98_5 1_555 1_555
C121_5 C101_5 1_555 1_555
H72_5 C117_5 1_555 1_555
H73_5 C118_5 1_555 1_555
H76_5 C121_5 1_555 1_555
C123_5 N53_5 1_555 1_555
C124_5 N54_5 1_555 1_555
C125_5 N55_5 1_555 1_555
C126_5 N56_5 1_555 1_555
N13_5 Co3_6 1_555 1_555
N16_5 Co1_6 1_555 1_555
N17_5 Co3_6 1_555 1_555
N20_5 Co3_6 1_555 1_555
N29_3 C57_5 1_555 1_555
N23_5 Co1_6 1_555 1_555
N26_5 C61_5 1_555 1_555
N27_5 Co3_6 1_555 1_555
N28_5 Co3_6 1_555 1_555
N30_5 C82_5 1_555 1_555
N31_5 C83_5 1_555 1_555
N34_5 C86_5 1_555 1_555
N35_5 C82_5 1_555 1_555
N36_5 C83_5 1_555 1_555
N39_5 C86_5 1_555 1_555
N40_5 C87_5 1_555 1_555
N41_5 C88_5 1_555 1_555
N44_5 C91_5 1_555 1_555
N45_5 C102_5 1_555 1_555
N46_5 C103_5 1_555 1_555
N49_5 C106_5 1_555 1_555
N50_5 Co9_5 1_555 1_555
N51_5 Co10_5 1_555 1_555
N53_5 Co9_5 1_555 1_555
N54_5 Co9_5 1_555 1_555
N55_5 Co10_5 1_555 1_555
N56_5 Co10_5 1_555 1_555
N62_5 Co9_5 1_555 1_555
N63_5 Co9_5 1_555 1_555
N64_5 Co10_5 1_555 1_555
N65_5 Co10_5 1_555 1_555
C32_5 N16_5 1_555 1_555
C33_5 N17_5 1_555 1_555
C36_5 N20_5 1_555 1_555
C52_5 N16_5 1_555 1_555
C53_5 N17_5 1_555 1_555
C56_5 N20_5 1_555 1_555
C58_5 N23_5 1_555 1_555
C77_5 N29_3 1_555 1_555
C78_5 N23_5 1_555 1_555
C81_5 N26_5 1_555 1_555
C87_5 N30_5 1_555 1_555
C88_5 N31_5 1_555 1_555
C91_5 N34_5 1_555 1_555
C92_5 N35_5 1_555 1_555
C92_5 N40_5 1_555 1_555
C93_5 N36_5 1_555 1_555
C93_5 N41_5 1_555 1_555
C96_5 N39_5 1_555 1_555
C96_5 N44_5 1_555 1_555
C107_5 N45_5 1_555 1_555
C108_5 N46_5 1_555 1_555
C111_5 N49_5 1_555 1_555
C112_5 C117_5 1_555 1_555
C113_5 C118_5 1_555 1_555
C116_5 C121_5 1_555 1_555
Co15_3 N7_5 1_555 1_555
S2_5 C20_5 1_555 1_555
C3_5 C2_5 1_555 1_555
H2_5 C3_5 1_555 1_555
C4_5 C3_5 1_555 1_555
H3_5 C4_5 1_555 1_555
C5_5 C4_5 1_555 1_555
C6_5 C5_5 1_555 1_555
H4_5 C6_5 1_555 1_555
C7_5 H5_5 1_555 1_555
C8_5 C7_5 1_555 1_555
H6_5 C8_5 1_555 1_555
C9_5 C8_5 1_555 1_555
H7_5 C9_5 1_555 1_555
C10_5 C9_5 1_555 1_555
C11_5 C10_5 1_555 1_555
H8_5 C11_5 1_555 1_555
C12_5 C10_5 1_555 1_555
C13_5 C5_5 1_555 1_555
C14_5 C15_5 1_555 1_555
C15_5 C16_5 1_555 1_555
C16_5 H9_5 1_555 1_555
C17_5 H10_5 1_555 1_555
C18_5 C17_5 1_555 1_555
H11_5 C18_5 1_555 1_555
C19_5 C15_5 1_555 1_555
H12_5 C19_5 1_555 1_555
C20_5 N8_5 1_555 1_555
C21_5 H13_5 1_555 1_555
C22_5 C21_5 1_555 1_555
H14_5 C22_5 1_555 1_555
C23_5 C22_5 1_555 1_555
H15_5 C23_5 1_555 1_555
C24_5 C23_5 1_555 1_555
C25_5 C24_5 1_555 1_555
H16_5 C25_5 1_555 1_555
C26_5 C24_5 1_555 1_555
N2_5 Co1_7 1_555 1_555
N3_5 C7_5 1_555 1_555
N4_5 C12_5 1_555 1_555
N5_5 C12_5 1_555 1_555
N6_5 C13_5 1_555 1_555
N7_5 C16_5 1_555 1_555
N8_5 Co15_3 1_555 1_555
N9_5 Co15_3 1_555 1_555
N10_5 C26_5 1_555 1_555
Co4_6 N14_5 1_555 1_555
Co5_6 N3_5 1_555 1_555
Co7_6 N19_5 1_555 1_555
Co11_5 N57_5 1_555 1_555
Co11_3 N58_5 1_555 1_555
Co13_5 N47_5 1_555 1_555
S3_5 C27_5 1_555 1_555
S6_5 C30_5 1_555 1_555
S7_5 C31_5 1_555 1_555
S8_5 C122_5 1_555 1_555
C27_5 N11_5 1_555 1_555
C30_5 N14_5 1_555 1_555
C31_5 N15_5 1_555 1_555
C34_5 H19_5 1_555 1_555
C35_5 H20_5 1_555 1_555
C39_5 C34_5 1_555 1_555
C40_5 C35_5 1_555 1_555
H24_5 C39_5 1_555 1_555
H25_5 C40_5 1_555 1_555
C44_5 C39_5 1_555 1_555
C45_5 C40_5 1_555 1_555
H29_5 C44_5 1_555 1_555
H30_5 C45_5 1_555 1_555
C49_5 C44_5 1_555 1_555
C50_5 C45_5 1_555 1_555
C54_5 C49_5 1_555 1_555
C55_5 C50_5 1_555 1_555
H34_5 C54_5 1_555 1_555
H35_5 C55_5 1_555 1_555
C59_5 H39_5 1_555 1_555
C60_5 H40_5 1_555 1_555
C64_5 C59_5 1_555 1_555
C65_5 C60_5 1_555 1_555
H44_5 C64_5 1_555 1_555
H45_5 C65_5 1_555 1_555
C69_5 C64_5 1_555 1_555
C70_5 C65_5 1_555 1_555
H49_5 C69_5 1_555 1_555
H50_5 C70_5 1_555 1_555
C74_5 C69_5 1_555 1_555
C75_5 C70_5 1_555 1_555
C79_5 C74_5 1_555 1_555
C80_5 C75_5 1_555 1_555
H54_5 C79_5 1_555 1_555
H55_5 C80_5 1_555 1_555
C84_5 C74_5 1_555 1_555
C85_5 C75_5 1_555 1_555
C89_5 C49_5 1_555 1_555
C90_5 C50_5 1_555 1_555
C94_5 C99_5 1_555 1_555
C95_5 C100_5 1_555 1_555
C99_5 C104_5 1_555 1_555
C100_5 C105_5 1_555 1_555
C104_5 H59_5 1_555 1_555
C105_5 H60_5 1_555 1_555
C109_5 H64_5 1_555 1_555
C110_5 H65_5 1_555 1_555
C114_5 C109_5 1_555 1_555
C115_5 C110_5 1_555 1_555
H69_5 C114_5 1_555 1_555
H70_5 C115_5 1_555 1_555
C119_5 C99_5 1_555 1_555
C120_5 C100_5 1_555 1_555
H74_5 C119_5 1_555 1_555
H75_5 C120_5 1_555 1_555
C122_5 N52_5 1_555 1_555
C127_5 H77_5 1_555 1_555
C128_5 H78_5 1_555 1_555
C132_5 C127_5 1_555 1_555
C133_5 C128_5 1_555 1_555
H82_5 C132_5 1_555 1_555
H83_5 C133_5 1_555 1_555
C137_5 C132_5 1_555 1_555
C138_5 C133_5 1_555 1_555
H87_5 C137_5 1_555 1_555
H88_5 C138_5 1_555 1_555
C142_5 C137_5 1_555 1_555
C143_5 C138_5 1_555 1_555
C147_5 C142_5 1_555 1_555
C148_5 C143_5 1_555 1_555
H92_5 C147_5 1_555 1_555
H93_5 C148_5 1_555 1_555
C152_5 N10_5 1_555 1_555
C153_5 C143_5 1_555 1_555
N11_5 Co1_7 1_555 1_555
N15_5 Co4_6 1_555 1_555
N18_5 Co4_6 1_555 1_555
N19_5 C35_5 1_555 1_555
N21_5 Co4_6 1_555 1_555
N24_5 Co1_7 1_555 1_555
N25_5 Co4_6 1_555 1_555
N29_5 Co4_6 1_555 1_555
N32_5 C84_5 1_555 1_555
N33_5 C85_5 1_555 1_555
N37_5 C84_5 1_555 1_555
N38_5 C85_5 1_555 1_555
N42_5 C89_5 1_555 1_555
N43_5 C90_5 1_555 1_555
N47_5 C104_5 1_555 1_555
N48_5 Co15_3 1_555 1_555
N52_5 Co15_3 1_555 1_555
N57_5 C127_5 1_555 1_555
N58_5 C128_5 1_555 1_555
N66_5 C152_5 1_555 1_555
N67_5 C26_5 1_555 1_555
C2_5 N2_5 1_555 1_555
C6_5 N2_5 1_555 1_555
C11_5 N3_5 1_555 1_555
C13_5 N4_5 1_555 1_555
C14_5 N5_5 1_555 1_555
C14_5 N6_5 1_555 1_555
C17_5 N7_5 1_555 1_555
C18_5 C19_5 1_555 1_555
C21_5 N9_5 1_555 1_555
C25_5 N9_5 1_555 1_555
C34_5 N18_5 1_555 1_555
C54_5 N18_5 1_555 1_555
C55_5 N19_5 1_555 1_555
C59_5 N24_5 1_555 1_555
C60_5 N25_5 1_555 1_555
C79_5 N24_5 1_555 1_555
C80_5 N25_5 1_555 1_555
C89_5 N32_5 1_555 1_555
C90_5 N33_5 1_555 1_555
C94_5 N37_5 1_555 1_555
C94_5 N42_5 1_555 1_555
C95_5 N38_5 1_555 1_555
C95_5 N43_5 1_555 1_555
C105_5 N48_5 1_555 1_555
C109_5 N47_5 1_555 1_555
C110_5 N48_5 1_555 1_555
C114_5 C119_5 1_555 1_555
C115_5 C120_5 1_555 1_555
C142_5 C152_5 1_555 1_555
C147_5 N57_5 1_555 1_555
C148_5 N58_5 1_555 1_555
C153_5 N66_5 1_555 1_555
C153_5 N67_5 1_555 1_555
Co1_8 N1_6 1_555 1_555
Co15_2 N7_6 1_555 1_555
S1_6 C1_6 1_555 1_555
S2_6 C20_6 1_555 1_555
C1_6 N1_6 1_555 1_555
C2_6 H1_6 1_555 1_555
C3_6 C2_6 1_555 1_555
H2_6 C3_6 1_555 1_555
C4_6 C3_6 1_555 1_555
H3_6 C4_6 1_555 1_555
C5_6 C4_6 1_555 1_555
C6_6 C5_6 1_555 1_555
H4_6 C6_6 1_555 1_555
C7_6 H5_6 1_555 1_555
C8_6 C7_6 1_555 1_555
H6_6 C8_6 1_555 1_555
C9_6 C8_6 1_555 1_555
H7_6 C9_6 1_555 1_555
C10_6 C9_6 1_555 1_555
C11_6 C10_6 1_555 1_555
H8_6 C11_6 1_555 1_555
C12_6 C10_6 1_555 1_555
C13_6 C5_6 1_555 1_555
C14_6 C15_6 1_555 1_555
C15_6 C16_6 1_555 1_555
C16_6 H9_6 1_555 1_555
C17_6 H10_6 1_555 1_555
C18_6 C17_6 1_555 1_555
H11_6 C18_6 1_555 1_555
C19_6 C15_6 1_555 1_555
H12_6 C19_6 1_555 1_555
C20_6 N8_6 1_555 1_555
C21_6 H13_6 1_555 1_555
C22_6 C21_6 1_555 1_555
H14_6 C22_6 1_555 1_555
C23_6 C22_6 1_555 1_555
H15_6 C23_6 1_555 1_555
C24_6 C23_6 1_555 1_555
C25_6 C24_6 1_555 1_555
H16_6 C25_6 1_555 1_555
C26_6 C24_6 1_555 1_555
N2_6 Co1_8 1_555 1_555
N3_6 C7_6 1_555 1_555
N4_6 C12_6 1_555 1_555
N5_6 C12_6 1_555 1_555
N6_6 C13_6 1_555 1_555
N7_6 C16_6 1_555 1_555
N8_6 Co15_2 1_555 1_555
N9_6 Co15_2 1_555 1_555
N10_6 C26_6 1_555 1_555
Co3_7 N12_6 1_555 1_555
Co4_7 N14_6 1_555 1_555
Co5_7 N3_6 1_555 1_555
Co7_7 N19_6 1_555 1_555
Co8_7 N26_6 1_555 1_555
Co9_6 N45_6 1_555 1_555
Co10_6 N46_6 1_555 1_555
Co11_6 N57_6 1_555 1_555
Co11_2 N58_6 1_555 1_555
Co13_6 N47_6 1_555 1_555
Co16_6 N49_6 1_555 1_555
S3_6 C27_6 1_555 1_555
S4_6 C28_6 1_555 1_555
S5_6 C29_6 1_555 1_555
S6_6 C30_6 1_555 1_555
S7_6 C31_6 1_555 1_555
S8_6 C122_6 1_555 1_555
S9_6 C123_6 1_555 1_555
S10_6 C124_6 1_555 1_555
S11_6 C125_6 1_555 1_555
S12_6 C126_6 1_555 1_555
C27_6 N11_6 1_555 1_555
C28_6 N12_6 1_555 1_555
C29_6 N13_6 1_555 1_555
C30_6 N14_6 1_555 1_555
C31_6 N15_6 1_555 1_555
C32_6 H17_6 1_555 1_555
C33_6 H18_6 1_555 1_555
C34_6 H19_6 1_555 1_555
C35_6 H20_6 1_555 1_555
C36_6 H21_6 1_555 1_555
C37_6 C32_6 1_555 1_555
C38_6 C33_6 1_555 1_555
C39_6 C34_6 1_555 1_555
C40_6 C35_6 1_555 1_555
C41_6 C36_6 1_555 1_555
H22_6 C37_6 1_555 1_555
H23_6 C38_6 1_555 1_555
H24_6 C39_6 1_555 1_555
H25_6 C40_6 1_555 1_555
H26_6 C41_6 1_555 1_555
C42_6 C37_6 1_555 1_555
C43_6 C38_6 1_555 1_555
C44_6 C39_6 1_555 1_555
C45_6 C40_6 1_555 1_555
C46_6 C41_6 1_555 1_555
H27_6 C42_6 1_555 1_555
H28_6 C43_6 1_555 1_555
H29_6 C44_6 1_555 1_555
H30_6 C45_6 1_555 1_555
H31_6 C46_6 1_555 1_555
C47_6 C42_6 1_555 1_555
C48_6 C43_6 1_555 1_555
C49_6 C44_6 1_555 1_555
C50_6 C45_6 1_555 1_555
C51_6 C46_6 1_555 1_555
C52_6 C47_6 1_555 1_555
C53_6 C48_6 1_555 1_555
C54_6 C49_6 1_555 1_555
C55_6 C50_6 1_555 1_555
C56_6 C51_6 1_555 1_555
H32_6 C52_6 1_555 1_555
H33_6 C53_6 1_555 1_555
H34_6 C54_6 1_555 1_555
H35_6 C55_6 1_555 1_555
H36_6 C56_6 1_555 1_555
C57_6 H37_6 1_555 1_555
C58_6 H38_6 1_555 1_555
C59_6 H39_6 1_555 1_555
C60_6 H40_6 1_555 1_555
C61_6 H41_6 1_555 1_555
C62_6 C57_6 1_555 1_555
C63_6 C58_6 1_555 1_555
C64_6 C59_6 1_555 1_555
C65_6 C60_6 1_555 1_555
C66_6 C61_6 1_555 1_555
H42_6 C62_6 1_555 1_555
H43_6 C63_6 1_555 1_555
H44_6 C64_6 1_555 1_555
H45_6 C65_6 1_555 1_555
H46_6 C66_6 1_555 1_555
C67_6 C62_6 1_555 1_555
C68_6 C63_6 1_555 1_555
C69_6 C64_6 1_555 1_555
C70_6 C65_6 1_555 1_555
C71_6 C66_6 1_555 1_555
H47_6 C67_6 1_555 1_555
H48_6 C68_6 1_555 1_555
H49_6 C69_6 1_555 1_555
H50_6 C70_6 1_555 1_555
H51_6 C71_6 1_555 1_555
C72_6 C67_6 1_555 1_555
C73_6 C68_6 1_555 1_555
C74_6 C69_6 1_555 1_555
C75_6 C70_6 1_555 1_555
C76_6 C71_6 1_555 1_555
C77_6 C72_6 1_555 1_555
C78_6 C73_6 1_555 1_555
C79_6 C74_6 1_555 1_555
C80_6 C75_6 1_555 1_555
C81_6 C76_6 1_555 1_555
H52_6 C77_6 1_555 1_555
H53_6 C78_6 1_555 1_555
H54_6 C79_6 1_555 1_555
H55_6 C80_6 1_555 1_555
H56_6 C81_6 1_555 1_555
C82_6 C72_6 1_555 1_555
C83_6 C73_6 1_555 1_555
C84_6 C74_6 1_555 1_555
C85_6 C75_6 1_555 1_555
C86_6 C76_6 1_555 1_555
C87_6 C47_6 1_555 1_555
C88_6 C48_6 1_555 1_555
C89_6 C49_6 1_555 1_555
C90_6 C50_6 1_555 1_555
C91_6 C51_6 1_555 1_555
C92_6 C97_6 1_555 1_555
C93_6 C98_6 1_555 1_555
C94_6 C99_6 1_555 1_555
C95_6 C100_6 1_555 1_555
C96_6 C101_6 1_555 1_555
C97_6 C102_6 1_555 1_555
C98_6 C103_6 1_555 1_555
C99_6 C104_6 1_555 1_555
C100_6 C105_6 1_555 1_555
C101_6 C106_6 1_555 1_555
C102_6 H57_6 1_555 1_555
C103_6 H58_6 1_555 1_555
C104_6 H59_6 1_555 1_555
C105_6 H60_6 1_555 1_555
C106_6 H61_6 1_555 1_555
C107_6 H62_6 1_555 1_555
C108_6 H63_6 1_555 1_555
C109_6 H64_6 1_555 1_555
C110_6 H65_6 1_555 1_555
C111_6 H66_6 1_555 1_555
C112_6 C107_6 1_555 1_555
C113_6 C108_6 1_555 1_555
C114_6 C109_6 1_555 1_555
C115_6 C110_6 1_555 1_555
C116_6 C111_6 1_555 1_555
H67_6 C112_6 1_555 1_555
H68_6 C113_6 1_555 1_555
H69_6 C114_6 1_555 1_555
H70_6 C115_6 1_555 1_555
H71_6 C116_6 1_555 1_555
C117_6 C97_6 1_555 1_555
C118_6 C98_6 1_555 1_555
C119_6 C99_6 1_555 1_555
C120_6 C100_6 1_555 1_555
C121_6 C101_6 1_555 1_555
H72_6 C117_6 1_555 1_555
H73_6 C118_6 1_555 1_555
H74_6 C119_6 1_555 1_555
H75_6 C120_6 1_555 1_555
H76_6 C121_6 1_555 1_555
C122_6 N52_6 1_555 1_555
C123_6 N53_6 1_555 1_555
C124_6 N54_6 1_555 1_555
C125_6 N55_6 1_555 1_555
C126_6 N56_6 1_555 1_555
C127_6 H77_6 1_555 1_555
C128_6 H78_6 1_555 1_555
C132_6 C127_6 1_555 1_555
C133_6 C128_6 1_555 1_555
H82_6 C132_6 1_555 1_555
H83_6 C133_6 1_555 1_555
C137_6 C132_6 1_555 1_555
C138_6 C133_6 1_555 1_555
H87_6 C137_6 1_555 1_555
H88_6 C138_6 1_555 1_555
C142_6 C137_6 1_555 1_555
C143_6 C138_6 1_555 1_555
C147_6 C142_6 1_555 1_555
C148_6 C143_6 1_555 1_555
H92_6 C147_6 1_555 1_555
H93_6 C148_6 1_555 1_555
C152_6 N10_6 1_555 1_555
C153_6 C143_6 1_555 1_555
N11_6 Co1_8 1_555 1_555
N13_6 Co3_7 1_555 1_555
N15_6 Co4_7 1_555 1_555
N16_6 Co1_8 1_555 1_555
N17_6 Co3_7 1_555 1_555
N18_6 Co4_7 1_555 1_555
N19_6 C35_6 1_555 1_555
N20_6 Co3_7 1_555 1_555
N21_6 Co4_7 1_555 1_555
N29_2 C57_6 1_555 1_555
N23_6 Co1_8 1_555 1_555
N24_6 Co1_8 1_555 1_555
N25_6 Co4_7 1_555 1_555
N26_6 C61_6 1_555 1_555
N27_6 Co3_7 1_555 1_555
N28_6 Co3_7 1_555 1_555
N29_6 Co4_7 1_555 1_555
N30_6 C82_6 1_555 1_555
N31_6 C83_6 1_555 1_555
N32_6 C84_6 1_555 1_555
N33_6 C85_6 1_555 1_555
N34_6 C86_6 1_555 1_555
N35_6 C82_6 1_555 1_555
N36_6 C83_6 1_555 1_555
N37_6 C84_6 1_555 1_555
N38_6 C85_6 1_555 1_555
N39_6 C86_6 1_555 1_555
N40_6 C87_6 1_555 1_555
N41_6 C88_6 1_555 1_555
N42_6 C89_6 1_555 1_555
N43_6 C90_6 1_555 1_555
N44_6 C91_6 1_555 1_555
N45_6 C102_6 1_555 1_555
N46_6 C103_6 1_555 1_555
N47_6 C104_6 1_555 1_555
N48_6 Co15_2 1_555 1_555
N49_6 C106_6 1_555 1_555
N50_6 Co9_6 1_555 1_555
N51_6 Co10_6 1_555 1_555
N52_6 Co15_2 1_555 1_555
N53_6 Co9_6 1_555 1_555
N54_6 Co9_6 1_555 1_555
N55_6 Co10_6 1_555 1_555
N56_6 Co10_6 1_555 1_555
N57_6 C127_6 1_555 1_555
N58_6 C128_6 1_555 1_555
N62_6 Co9_6 1_555 1_555
N63_6 Co9_6 1_555 1_555
N64_6 Co10_6 1_555 1_555
N65_6 Co10_6 1_555 1_555
N66_6 C152_6 1_555 1_555
N67_6 C26_6 1_555 1_555
C2_6 N2_6 1_555 1_555
C6_6 N2_6 1_555 1_555
C11_6 N3_6 1_555 1_555
C13_6 N4_6 1_555 1_555
C14_6 N5_6 1_555 1_555
C14_6 N6_6 1_555 1_555
C17_6 N7_6 1_555 1_555
C18_6 C19_6 1_555 1_555
C21_6 N9_6 1_555 1_555
C25_6 N9_6 1_555 1_555
C32_6 N16_6 1_555 1_555
C33_6 N17_6 1_555 1_555
C34_6 N18_6 1_555 1_555
C36_6 N20_6 1_555 1_555
C52_6 N16_6 1_555 1_555
C53_6 N17_6 1_555 1_555
C54_6 N18_6 1_555 1_555
C55_6 N19_6 1_555 1_555
C56_6 N20_6 1_555 1_555
C58_6 N23_6 1_555 1_555
C59_6 N24_6 1_555 1_555
C60_6 N25_6 1_555 1_555
C77_6 N29_2 1_555 1_555
C78_6 N23_6 1_555 1_555
C79_6 N24_6 1_555 1_555
C80_6 N25_6 1_555 1_555
C81_6 N26_6 1_555 1_555
C87_6 N30_6 1_555 1_555
C88_6 N31_6 1_555 1_555
C89_6 N32_6 1_555 1_555
C90_6 N33_6 1_555 1_555
C91_6 N34_6 1_555 1_555
C92_6 N35_6 1_555 1_555
C92_6 N40_6 1_555 1_555
C93_6 N36_6 1_555 1_555
C93_6 N41_6 1_555 1_555
C94_6 N37_6 1_555 1_555
C94_6 N42_6 1_555 1_555
C95_6 N38_6 1_555 1_555
C95_6 N43_6 1_555 1_555
C96_6 N39_6 1_555 1_555
C96_6 N44_6 1_555 1_555
C105_6 N48_6 1_555 1_555
C107_6 N45_6 1_555 1_555
C108_6 N46_6 1_555 1_555
C109_6 N47_6 1_555 1_555
C110_6 N48_6 1_555 1_555
C111_6 N49_6 1_555 1_555
C112_6 C117_6 1_555 1_555
C113_6 C118_6 1_555 1_555
C114_6 C119_6 1_555 1_555
C115_6 C120_6 1_555 1_555
C116_6 C121_6 1_555 1_555
C142_6 C152_6 1_555 1_555
C147_6 N57_6 1_555 1_555
C148_6 N58_6 1_555 1_555
C153_6 N66_6 1_555 1_555
C153_6 N67_6 1_555 1_555
S9_7 C123_7 1_555 1_555
S10_7 C124_7 1_555 1_555
Co1_9 N1_7 1_555 1_555
Co15_4 N7_7 1_555 1_555
S1_7 C1_7 1_555 1_555
C1_7 N1_7 1_555 1_555
C2_7 H1_7 1_555 1_555
C3_7 C2_7 1_555 1_555
H2_7 C3_7 1_555 1_555
C4_7 C3_7 1_555 1_555
H3_7 C4_7 1_555 1_555
C5_7 C4_7 1_555 1_555
C6_7 C5_7 1_555 1_555
H4_7 C6_7 1_555 1_555
C7_7 H5_7 1_555 1_555
C8_7 C7_7 1_555 1_555
H6_7 C8_7 1_555 1_555
C9_7 C8_7 1_555 1_555
H7_7 C9_7 1_555 1_555
C10_7 C9_7 1_555 1_555
C11_7 C10_7 1_555 1_555
H8_7 C11_7 1_555 1_555
C12_7 C10_7 1_555 1_555
C13_7 C5_7 1_555 1_555
C14_7 C15_7 1_555 1_555
C15_7 C16_7 1_555 1_555
C16_7 H9_7 1_555 1_555
C17_7 H10_7 1_555 1_555
C18_7 C17_7 1_555 1_555
H11_7 C18_7 1_555 1_555
C19_7 C15_7 1_555 1_555
H12_7 C19_7 1_555 1_555
N2_7 Co1_9 1_555 1_555
N3_7 C7_7 1_555 1_555
N4_7 C12_7 1_555 1_555
N5_7 C12_7 1_555 1_555
N6_7 C13_7 1_555 1_555
N7_7 C16_7 1_555 1_555
N8_7 Co15_4 1_555 1_555
Co3_8 N12_7 1_555 1_555
Co4_8 N14_7 1_555 1_555
Co5_9 N3_7 1_555 1_555
Co7_8 N19_7 1_555 1_555
Co8_8 N26_7 1_555 1_555
Co9_7 N45_7 1_555 1_555
Co10_7 N46_7 1_555 1_555
Co13_7 N47_7 1_555 1_555
Co16_7 N49_7 1_555 1_555
S3_7 C27_7 1_555 1_555
S4_7 C28_7 1_555 1_555
S5_7 C29_7 1_555 1_555
S6_7 C30_7 1_555 1_555
S7_7 C31_7 1_555 1_555
S11_7 C125_7 1_555 1_555
S12_7 C126_7 1_555 1_555
C27_7 N11_7 1_555 1_555
C28_7 N12_7 1_555 1_555
C29_7 N13_7 1_555 1_555
C30_7 N14_7 1_555 1_555
C31_7 N15_7 1_555 1_555
C32_7 H17_7 1_555 1_555
C33_7 H18_7 1_555 1_555
C34_7 H19_7 1_555 1_555
C35_7 H20_7 1_555 1_555
C36_7 H21_7 1_555 1_555
C37_7 C32_7 1_555 1_555
C38_7 C33_7 1_555 1_555
C39_7 C34_7 1_555 1_555
C40_7 C35_7 1_555 1_555
C41_7 C36_7 1_555 1_555
H22_7 C37_7 1_555 1_555
H23_7 C38_7 1_555 1_555
H24_7 C39_7 1_555 1_555
H25_7 C40_7 1_555 1_555
H26_7 C41_7 1_555 1_555
C42_7 C37_7 1_555 1_555
C43_7 C38_7 1_555 1_555
C44_7 C39_7 1_555 1_555
C45_7 C40_7 1_555 1_555
C46_7 C41_7 1_555 1_555
H27_7 C42_7 1_555 1_555
H28_7 C43_7 1_555 1_555
H29_7 C44_7 1_555 1_555
H30_7 C45_7 1_555 1_555
H31_7 C46_7 1_555 1_555
C47_7 C42_7 1_555 1_555
C48_7 C43_7 1_555 1_555
C49_7 C44_7 1_555 1_555
C50_7 C45_7 1_555 1_555
C51_7 C46_7 1_555 1_555
C52_7 C47_7 1_555 1_555
C53_7 C48_7 1_555 1_555
C54_7 C49_7 1_555 1_555
C55_7 C50_7 1_555 1_555
C56_7 C51_7 1_555 1_555
H32_7 C52_7 1_555 1_555
H33_7 C53_7 1_555 1_555
H34_7 C54_7 1_555 1_555
H35_7 C55_7 1_555 1_555
H36_7 C56_7 1_555 1_555
C57_7 H37_7 1_555 1_555
C58_7 H38_7 1_555 1_555
C59_7 H39_7 1_555 1_555
C60_7 H40_7 1_555 1_555
C61_7 H41_7 1_555 1_555
C62_7 C57_7 1_555 1_555
C63_7 C58_7 1_555 1_555
C64_7 C59_7 1_555 1_555
C65_7 C60_7 1_555 1_555
C66_7 C61_7 1_555 1_555
H42_7 C62_7 1_555 1_555
H43_7 C63_7 1_555 1_555
H44_7 C64_7 1_555 1_555
H45_7 C65_7 1_555 1_555
H46_7 C66_7 1_555 1_555
C67_7 C62_7 1_555 1_555
C68_7 C63_7 1_555 1_555
C69_7 C64_7 1_555 1_555
C70_7 C65_7 1_555 1_555
C71_7 C66_7 1_555 1_555
H47_7 C67_7 1_555 1_555
H48_7 C68_7 1_555 1_555
H49_7 C69_7 1_555 1_555
H50_7 C70_7 1_555 1_555
H51_7 C71_7 1_555 1_555
C72_7 C67_7 1_555 1_555
C73_7 C68_7 1_555 1_555
C74_7 C69_7 1_555 1_555
C75_7 C70_7 1_555 1_555
C76_7 C71_7 1_555 1_555
C77_7 C72_7 1_555 1_555
C78_7 C73_7 1_555 1_555
C79_7 C74_7 1_555 1_555
C80_7 C75_7 1_555 1_555
C81_7 C76_7 1_555 1_555
H52_7 C77_7 1_555 1_555
H53_7 C78_7 1_555 1_555
H54_7 C79_7 1_555 1_555
H55_7 C80_7 1_555 1_555
H56_7 C81_7 1_555 1_555
C82_7 C72_7 1_555 1_555
C83_7 C73_7 1_555 1_555
C84_7 C74_7 1_555 1_555
C85_7 C75_7 1_555 1_555
C86_7 C76_7 1_555 1_555
C87_7 C47_7 1_555 1_555
C88_7 C48_7 1_555 1_555
C89_7 C49_7 1_555 1_555
C90_7 C50_7 1_555 1_555
C91_7 C51_7 1_555 1_555
C92_7 C97_7 1_555 1_555
C93_7 C98_7 1_555 1_555
C94_7 C99_7 1_555 1_555
C95_7 C100_7 1_555 1_555
C96_7 C101_7 1_555 1_555
C97_7 C102_7 1_555 1_555
C98_7 C103_7 1_555 1_555
C99_7 C104_7 1_555 1_555
C100_7 C105_7 1_555 1_555
C101_7 C106_7 1_555 1_555
C102_7 H57_7 1_555 1_555
C103_7 H58_7 1_555 1_555
C104_7 H59_7 1_555 1_555
C105_7 H60_7 1_555 1_555
C106_7 H61_7 1_555 1_555
C107_7 H62_7 1_555 1_555
C108_7 H63_7 1_555 1_555
C109_7 H64_7 1_555 1_555
C110_7 H65_7 1_555 1_555
C111_7 H66_7 1_555 1_555
C112_7 C107_7 1_555 1_555
C113_7 C108_7 1_555 1_555
C114_7 C109_7 1_555 1_555
C115_7 C110_7 1_555 1_555
C116_7 C111_7 1_555 1_555
H67_7 C112_7 1_555 1_555
H68_7 C113_7 1_555 1_555
H69_7 C114_7 1_555 1_555
H70_7 C115_7 1_555 1_555
H71_7 C116_7 1_555 1_555
C117_7 C97_7 1_555 1_555
C118_7 C98_7 1_555 1_555
C119_7 C99_7 1_555 1_555
C120_7 C100_7 1_555 1_555
C121_7 C101_7 1_555 1_555
H72_7 C117_7 1_555 1_555
H73_7 C118_7 1_555 1_555
H74_7 C119_7 1_555 1_555
H75_7 C120_7 1_555 1_555
H76_7 C121_7 1_555 1_555
C125_7 N55_7 1_555 1_555
C126_7 N56_7 1_555 1_555
N11_7 Co1_9 1_555 1_555
N13_7 Co3_8 1_555 1_555
N15_7 Co4_8 1_555 1_555
N16_7 Co1_9 1_555 1_555
N17_7 Co3_8 1_555 1_555
N18_7 Co4_8 1_555 1_555
N19_7 C35_7 1_555 1_555
N20_7 Co3_8 1_555 1_555
N21_7 Co4_8 1_555 1_555
N29_4 C57_7 1_555 1_555
N23_7 Co1_9 1_555 1_555
N24_7 Co1_9 1_555 1_555
N25_7 Co4_8 1_555 1_555
N26_7 C61_7 1_555 1_555
N27_7 Co3_8 1_555 1_555
N28_7 Co3_8 1_555 1_555
N29_7 Co4_8 1_555 1_555
N30_7 C82_7 1_555 1_555
N31_7 C83_7 1_555 1_555
N32_7 C84_7 1_555 1_555
N33_7 C85_7 1_555 1_555
N34_7 C86_7 1_555 1_555
N35_7 C82_7 1_555 1_555
N36_7 C83_7 1_555 1_555
N37_7 C84_7 1_555 1_555
N38_7 C85_7 1_555 1_555
N39_7 C86_7 1_555 1_555
N40_7 C87_7 1_555 1_555
N41_7 C88_7 1_555 1_555
N42_7 C89_7 1_555 1_555
N43_7 C90_7 1_555 1_555
N44_7 C91_7 1_555 1_555
N45_7 C102_7 1_555 1_555
N46_7 C103_7 1_555 1_555
N47_7 C104_7 1_555 1_555
N48_7 Co15_4 1_555 1_555
N49_7 C106_7 1_555 1_555
N50_7 Co9_7 1_555 1_555
N51_7 Co10_7 1_555 1_555
N52_7 Co15_4 1_555 1_555
N53_7 Co9_7 1_555 1_555
N54_7 Co9_7 1_555 1_555
N55_7 Co10_7 1_555 1_555
N56_7 Co10_7 1_555 1_555
N64_7 Co10_7 1_555 1_555
N65_7 Co10_7 1_555 1_555
C2_7 N2_7 1_555 1_555
C6_7 N2_7 1_555 1_555
C11_7 N3_7 1_555 1_555
C13_7 N4_7 1_555 1_555
C14_7 N5_7 1_555 1_555
C14_7 N6_7 1_555 1_555
C17_7 N7_7 1_555 1_555
C18_7 C19_7 1_555 1_555
C32_7 N16_7 1_555 1_555
C33_7 N17_7 1_555 1_555
C34_7 N18_7 1_555 1_555
C36_7 N20_7 1_555 1_555
C52_7 N16_7 1_555 1_555
C53_7 N17_7 1_555 1_555
C54_7 N18_7 1_555 1_555
C55_7 N19_7 1_555 1_555
C56_7 N20_7 1_555 1_555
C58_7 N23_7 1_555 1_555
C59_7 N24_7 1_555 1_555
C60_7 N25_7 1_555 1_555
C77_7 N29_4 1_555 1_555
C78_7 N23_7 1_555 1_555
C79_7 N24_7 1_555 1_555
C80_7 N25_7 1_555 1_555
C81_7 N26_7 1_555 1_555
C87_7 N30_7 1_555 1_555
C88_7 N31_7 1_555 1_555
C89_7 N32_7 1_555 1_555
C90_7 N33_7 1_555 1_555
C91_7 N34_7 1_555 1_555
C92_7 N35_7 1_555 1_555
C92_7 N40_7 1_555 1_555
C93_7 N36_7 1_555 1_555
C93_7 N41_7 1_555 1_555
C94_7 N37_7 1_555 1_555
C94_7 N42_7 1_555 1_555
C95_7 N38_7 1_555 1_555
C95_7 N43_7 1_555 1_555
C96_7 N39_7 1_555 1_555
C96_7 N44_7 1_555 1_555
C105_7 N48_7 1_555 1_555
C107_7 N45_7 1_555 1_555
C108_7 N46_7 1_555 1_555
C109_7 N47_7 1_555 1_555
C110_7 N48_7 1_555 1_555
C111_7 N49_7 1_555 1_555
C112_7 C117_7 1_555 1_555
C113_7 C118_7 1_555 1_555
C114_7 C119_7 1_555 1_555
C115_7 C120_7 1_555 1_555
C116_7 C121_7 1_555 1_555
S2_7 C20_7 1_555 1_555
C21_7 H13_7 1_555 1_555
C22_7 C21_7 1_555 1_555
H14_7 C22_7 1_555 1_555
C23_7 C22_7 1_555 1_555
H15_7 C23_7 1_555 1_555
C24_7 C23_7 1_555 1_555
C25_7 C24_7 1_555 1_555
H16_7 C25_7 1_555 1_555
C26_7 C24_7 1_555 1_555
N10_7 C26_7 1_555 1_555
Co11_7 N57_7 1_555 1_555
S8_7 C122_7 1_555 1_555
C127_7 H77_7 1_555 1_555
C128_7 H78_7 1_555 1_555
C132_7 C127_7 1_555 1_555
C133_7 C128_7 1_555 1_555
H82_7 C132_7 1_555 1_555
H83_7 C133_7 1_555 1_555
C137_7 C132_7 1_555 1_555
C138_7 C133_7 1_555 1_555
H87_7 C137_7 1_555 1_555
H88_7 C138_7 1_555 1_555
C142_7 C137_7 1_555 1_555
C143_7 C138_7 1_555 1_555
C147_7 C142_7 1_555 1_555
C148_7 C143_7 1_555 1_555
H92_7 C147_7 1_555 1_555
H93_7 C148_7 1_555 1_555
C152_7 N10_7 1_555 1_555
C153_7 C143_7 1_555 1_555
N57_7 C127_7 1_555 1_555
N58_7 C128_7 1_555 1_555
N66_7 C152_7 1_555 1_555
N67_7 C26_7 1_555 1_555
C21_7 N9_7 1_555 1_555
C25_7 N9_7 1_555 1_555
C142_7 C152_7 1_555 1_555
C147_7 N57_7 1_555 1_555
C148_7 N58_7 1_555 1_555
C153_7 N66_7 1_555 1_555
C153_7 N67_7 1_555 1_555
Co4_9 N14_8 1_555 1_555
S6_8 C30_8 1_555 1_555
S11_8 C125_8 1_555 1_555
S12_8 C126_8 1_555 1_555
C30_8 N14_8 1_555 1_555
N21_8 Co4_9 1_555 1_555
N29_8 Co4_9 1_555 1_555
Co1_10 N1_8 1_555 1_555
Co15 N7_8 1_555 1_555
S1_8 C1_8 1_555 1_555
S2_8 C20_8 1_555 1_555
C1_8 N1_8 1_555 1_555
C2_8 H1_8 1_555 1_555
C3_8 C2_8 1_555 1_555
H2_8 C3_8 1_555 1_555
C4_8 C3_8 1_555 1_555
H3_8 C4_8 1_555 1_555
C5_8 C4_8 1_555 1_555
C6_8 C5_8 1_555 1_555
H4_8 C6_8 1_555 1_555
C7_8 H5_8 1_555 1_555
C8_8 C7_8 1_555 1_555
H6_8 C8_8 1_555 1_555
C9_8 C8_8 1_555 1_555
H7_8 C9_8 1_555 1_555
C10_8 C9_8 1_555 1_555
C11_8 C10_8 1_555 1_555
H8_8 C11_8 1_555 1_555
C12_8 C10_8 1_555 1_555
C13_8 C5_8 1_555 1_555
C14_8 C15_8 1_555 1_555
C15_8 C16_8 1_555 1_555
C16_8 H9_8 1_555 1_555
C17_8 H10_8 1_555 1_555
C18_8 C17_8 1_555 1_555
H11_8 C18_8 1_555 1_555
C19_8 C15_8 1_555 1_555
H12_8 C19_8 1_555 1_555
C20_8 N8_8 1_555 1_555
C21_8 H13_8 1_555 1_555
C22_8 C21_8 1_555 1_555
H14_8 C22_8 1_555 1_555
C23_8 C22_8 1_555 1_555
H15_8 C23_8 1_555 1_555
C24_8 C23_8 1_555 1_555
C25_8 C24_8 1_555 1_555
H16_8 C25_8 1_555 1_555
C26_8 C24_8 1_555 1_555
N2_8 Co1_10 1_555 1_555
N3_8 C7_8 1_555 1_555
N4_8 C12_8 1_555 1_555
N5_8 C12_8 1_555 1_555
N6_8 C13_8 1_555 1_555
N7_8 C16_8 1_555 1_555
N8_8 Co15 1_555 1_555
N9_8 Co15 1_555 1_555
N10_8 C26_8 1_555 1_555
Co5_10 N3_8 1_555 1_555
Co7_10 N19_8 1_555 1_555
Co9_8 N45_8 1_555 1_555
Co10_8 N46_8 1_555 1_555
Co11 N58_8 1_555 1_555
Co13_8 N47_8 1_555 1_555
S3_8 C27_8 1_555 1_555
S5_8 C29_8 1_555 1_555
S7_8 C31_8 1_555 1_555
S8_8 C122_8 1_555 1_555
S9_8 C123_8 1_555 1_555
S10_8 C124_8 1_555 1_555
C27_8 N11_8 1_555 1_555
C29_8 N13_8 1_555 1_555
C31_8 N15_8 1_555 1_555
C32_8 H17_8 1_555 1_555
C37_8 C32_8 1_555 1_555
C38_8 C33_8 1_555 1_555
C39_8 C34_8 1_555 1_555
C40_8 C35_8 1_555 1_555
H22_8 C37_8 1_555 1_555
H23_8 C38_8 1_555 1_555
H24_8 C39_8 1_555 1_555
H25_8 C40_8 1_555 1_555
C42_8 C37_8 1_555 1_555
C43_8 C38_8 1_555 1_555
C44_8 C39_8 1_555 1_555
C45_8 C40_8 1_555 1_555
H27_8 C42_8 1_555 1_555
H28_8 C43_8 1_555 1_555
H29_8 C44_8 1_555 1_555
H30_8 C45_8 1_555 1_555
C47_8 C42_8 1_555 1_555
C48_8 C43_8 1_555 1_555
C49_8 C44_8 1_555 1_555
C50_8 C45_8 1_555 1_555
C52_8 C47_8 1_555 1_555
C53_8 C48_8 1_555 1_555
C54_8 C49_8 1_555 1_555
C55_8 C50_8 1_555 1_555
H32_8 C52_8 1_555 1_555
H33_8 C53_8 1_555 1_555
H34_8 C54_8 1_555 1_555
H35_8 C55_8 1_555 1_555
C57_8 H37_8 1_555 1_555
C58_8 H38_8 1_555 1_555
C59_8 H39_8 1_555 1_555
C60_8 H40_8 1_555 1_555
C62_8 C57_8 1_555 1_555
C63_8 C58_8 1_555 1_555
C64_8 C59_8 1_555 1_555
C65_8 C60_8 1_555 1_555
H42_8 C62_8 1_555 1_555
H43_8 C63_8 1_555 1_555
H44_8 C64_8 1_555 1_555
H45_8 C65_8 1_555 1_555
C67_8 C62_8 1_555 1_555
C68_8 C63_8 1_555 1_555
C69_8 C64_8 1_555 1_555
C70_8 C65_8 1_555 1_555
H47_8 C67_8 1_555 1_555
H48_8 C68_8 1_555 1_555
H49_8 C69_8 1_555 1_555
H50_8 C70_8 1_555 1_555
C72_8 C67_8 1_555 1_555
C73_8 C68_8 1_555 1_555
C74_8 C69_8 1_555 1_555
C75_8 C70_8 1_555 1_555
C77_8 C72_8 1_555 1_555
C78_8 C73_8 1_555 1_555
C79_8 C74_8 1_555 1_555
C80_8 C75_8 1_555 1_555
H52_8 C77_8 1_555 1_555
H53_8 C78_8 1_555 1_555
H54_8 C79_8 1_555 1_555
H55_8 C80_8 1_555 1_555
C82_8 C72_8 1_555 1_555
C83_8 C73_8 1_555 1_555
C84_8 C74_8 1_555 1_555
C85_8 C75_8 1_555 1_555
C87_8 C47_8 1_555 1_555
C88_8 C48_8 1_555 1_555
C89_8 C49_8 1_555 1_555
C90_8 C50_8 1_555 1_555
C92_8 C97_8 1_555 1_555
C93_8 C98_8 1_555 1_555
C94_8 C99_8 1_555 1_555
C95_8 C100_8 1_555 1_555
C97_8 C102_8 1_555 1_555
C98_8 C103_8 1_555 1_555
C99_8 C104_8 1_555 1_555
C100_8 C105_8 1_555 1_555
C102_8 H57_8 1_555 1_555
C103_8 H58_8 1_555 1_555
C104_8 H59_8 1_555 1_555
C105_8 H60_8 1_555 1_555
C107_8 H62_8 1_555 1_555
C108_8 H63_8 1_555 1_555
C109_8 H64_8 1_555 1_555
C110_8 H65_8 1_555 1_555
C112_8 C107_8 1_555 1_555
C113_8 C108_8 1_555 1_555
C114_8 C109_8 1_555 1_555
C115_8 C110_8 1_555 1_555
H67_8 C112_8 1_555 1_555
H68_8 C113_8 1_555 1_555
H69_8 C114_8 1_555 1_555
H70_8 C115_8 1_555 1_555
C117_8 C97_8 1_555 1_555
C118_8 C98_8 1_555 1_555
C119_8 C99_8 1_555 1_555
C120_8 C100_8 1_555 1_555
H72_8 C117_8 1_555 1_555
H73_8 C118_8 1_555 1_555
H74_8 C119_8 1_555 1_555
H75_8 C120_8 1_555 1_555
C122_8 N52_8 1_555 1_555
C123_8 N53_8 1_555 1_555
C124_8 N54_8 1_555 1_555
C127_8 H77_8 1_555 1_555
C128_8 H78_8 1_555 1_555
C132_8 C127_8 1_555 1_555
C133_8 C128_8 1_555 1_555
H82_8 C132_8 1_555 1_555
H83_8 C133_8 1_555 1_555
C137_8 C132_8 1_555 1_555
C138_8 C133_8 1_555 1_555
H87_8 C137_8 1_555 1_555
H88_8 C138_8 1_555 1_555
C142_8 C137_8 1_555 1_555
C143_8 C138_8 1_555 1_555
C147_8 C142_8 1_555 1_555
C148_8 C143_8 1_555 1_555
H92_8 C147_8 1_555 1_555
H93_8 C148_8 1_555 1_555
C152_8 N10_8 1_555 1_555
C153_8 C143_8 1_555 1_555
N11_8 Co1_10 1_555 1_555
N13_8 Co3_9 1_555 1_555
N15_8 Co4_10 1_555 1_555
N16_8 Co1_10 1_555 1_555
N17_8 Co3_9 1_555 1_555
N18_8 Co4_10 1_555 1_555
N19_8 C35_8 1_555 1_555
N29 C57_8 1_555 1_555
N23_8 Co1_10 1_555 1_555
N24_8 Co1_10 1_555 1_555
N25_8 Co4_10 1_555 1_555
N28_8 Co3_9 1_555 1_555
N30_8 C82_8 1_555 1_555
N31_8 C83_8 1_555 1_555
N32_8 C84_8 1_555 1_555
N33_8 C85_8 1_555 1_555
N35_8 C82_8 1_555 1_555
N36_8 C83_8 1_555 1_555
N37_8 C84_8 1_555 1_555
N38_8 C85_8 1_555 1_555
N40_8 C87_8 1_555 1_555
N41_8 C88_8 1_555 1_555
N42_8 C89_8 1_555 1_555
N43_8 C90_8 1_555 1_555
N45_8 C102_8 1_555 1_555
N46_8 C103_8 1_555 1_555
N47_8 C104_8 1_555 1_555
N48_8 Co15 1_555 1_555
N50_8 Co9_8 1_555 1_555
N51_8 Co10_8 1_555 1_555
N52_8 Co15 1_555 1_555
N53_8 Co9_8 1_555 1_555
N54_8 Co9_8 1_555 1_555
N55_8 Co10_8 1_555 1_555
N56_8 Co10_8 1_555 1_555
N57_8 C127_8 1_555 1_555
N58_8 C128_8 1_555 1_555
N62_8 Co9_8 1_555 1_555
N63_8 Co9_8 1_555 1_555
N66_8 C152_8 1_555 1_555
N67_8 C26_8 1_555 1_555
C2_8 N2_8 1_555 1_555
C6_8 N2_8 1_555 1_555
C11_8 N3_8 1_555 1_555
C13_8 N4_8 1_555 1_555
C14_8 N5_8 1_555 1_555
C14_8 N6_8 1_555 1_555
C17_8 N7_8 1_555 1_555
C18_8 C19_8 1_555 1_555
C21_8 N9_8 1_555 1_555
C25_8 N9_8 1_555 1_555
C32_8 N16_8 1_555 1_555
C33_8 N17_8 1_555 1_555
C34_8 N18_8 1_555 1_555
C52_8 N16_8 1_555 1_555
C53_8 N17_8 1_555 1_555
C54_8 N18_8 1_555 1_555
C55_8 N19_8 1_555 1_555
C58_8 N23_8 1_555 1_555
C59_8 N24_8 1_555 1_555
C60_8 N25_8 1_555 1_555
C77_8 N29 1_555 1_555
C78_8 N23_8 1_555 1_555
C79_8 N24_8 1_555 1_555
C80_8 N25_8 1_555 1_555
C87_8 N30_8 1_555 1_555
C88_8 N31_8 1_555 1_555
C89_8 N32_8 1_555 1_555
C90_8 N33_8 1_555 1_555
C92_8 N35_8 1_555 1_555
C92_8 N40_8 1_555 1_555
C93_8 N36_8 1_555 1_555
C93_8 N41_8 1_555 1_555
C94_8 N37_8 1_555 1_555
C94_8 N42_8 1_555 1_555
C95_8 N38_8 1_555 1_555
C95_8 N43_8 1_555 1_555
C105_8 N48_8 1_555 1_555
C107_8 N45_8 1_555 1_555
C108_8 N46_8 1_555 1_555
C109_8 N47_8 1_555 1_555
C110_8 N48_8 1_555 1_555
C112_8 C117_8 1_555 1_555
C113_8 C118_8 1_555 1_555
C114_8 C119_8 1_555 1_555
C115_8 C120_8 1_555 1_555
C142_8 C152_8 1_555 1_555
C147_8 N57_8 1_555 1_555
C148_8 N58_8 1_555 1_555
C153_8 N66_8 1_555 1_555
C153_8 N67_8 1_555 1_555
Co3_10 N12_8 1_555 1_555
Co8_10 N26_8 1_555 1_555
Co16_8 N49_8 1_555 1_555
S4_8 C28_8 1_555 1_555
C28_8 N12_8 1_555 1_555
C41_8 C36_8 1_555 1_555
H26_8 C41_8 1_555 1_555
C46_8 C41_8 1_555 1_555
H31_8 C46_8 1_555 1_555
C51_8 C46_8 1_555 1_555
C56_8 C51_8 1_555 1_555
H36_8 C56_8 1_555 1_555
C61_8 H41_8 1_555 1_555
C66_8 C61_8 1_555 1_555
H46_8 C66_8 1_555 1_555
C71_8 C66_8 1_555 1_555
H51_8 C71_8 1_555 1_555
C76_8 C71_8 1_555 1_555
C81_8 C76_8 1_555 1_555
H56_8 C81_8 1_555 1_555
C86_8 C76_8 1_555 1_555
C91_8 C51_8 1_555 1_555
C96_8 C101_8 1_555 1_555
C101_8 C106_8 1_555 1_555
C106_8 H61_8 1_555 1_555
C111_8 H66_8 1_555 1_555
C116_8 C111_8 1_555 1_555
H71_8 C116_8 1_555 1_555
C121_8 C101_8 1_555 1_555
H76_8 C121_8 1_555 1_555
N20_8 Co3_10 1_555 1_555
N26_8 C61_8 1_555 1_555
N27_8 Co3_10 1_555 1_555
N34_8 C86_8 1_555 1_555
N39_8 C86_8 1_555 1_555
N44_8 C91_8 1_555 1_555
N49_8 C106_8 1_555 1_555
C36_8 N20_8 1_555 1_555
C56_8 N20_8 1_555 1_555
C81_8 N26_8 1_555 1_555
C91_8 N34_8 1_555 1_555
C96_8 N39_8 1_555 1_555
C96_8 N44_8 1_555 1_555
C111_8 N49_8 1_555 1_555
C116_8 C121_8 1_555 1_555
Co1_11 N1_9 1_555 1_555
S1_9 C1_9 1_555 1_555
C1_9 N1_9 1_555 1_555
Co3_11 N12_9 1_555 1_555
Co8_11 N26_9 1_555 1_555
Co9_9 N45_9 1_555 1_555
Co10_9 N46_9 1_555 1_555
Co16_9 N49_9 1_555 1_555
S4_9 C28_9 1_555 1_555
S5_9 C29_9 1_555 1_555
S9_9 C123_9 1_555 1_555
S10_9 C124_9 1_555 1_555
S11_9 C125_9 1_555 1_555
S12_9 C126_9 1_555 1_555
C28_9 N12_9 1_555 1_555
C29_9 N13_9 1_555 1_555
C33_9 H18_9 1_555 1_555
C36_9 H21_9 1_555 1_555
C37_9 C32_9 1_555 1_555
C38_9 C33_9 1_555 1_555
C41_9 C36_9 1_555 1_555
H22_9 C37_9 1_555 1_555
H23_9 C38_9 1_555 1_555
H26_9 C41_9 1_555 1_555
C42_9 C37_9 1_555 1_555
C43_9 C38_9 1_555 1_555
C46_9 C41_9 1_555 1_555
H27_9 C42_9 1_555 1_555
H28_9 C43_9 1_555 1_555
H31_9 C46_9 1_555 1_555
C47_9 C42_9 1_555 1_555
C48_9 C43_9 1_555 1_555
C51_9 C46_9 1_555 1_555
C52_9 C47_9 1_555 1_555
C53_9 C48_9 1_555 1_555
C56_9 C51_9 1_555 1_555
H32_9 C52_9 1_555 1_555
H33_9 C53_9 1_555 1_555
H36_9 C56_9 1_555 1_555
C57_9 H37_9 1_555 1_555
C58_9 H38_9 1_555 1_555
C61_9 H41_9 1_555 1_555
C62_9 C57_9 1_555 1_555
C63_9 C58_9 1_555 1_555
C66_9 C61_9 1_555 1_555
H42_9 C62_9 1_555 1_555
H43_9 C63_9 1_555 1_555
H46_9 C66_9 1_555 1_555
C67_9 C62_9 1_555 1_555
C68_9 C63_9 1_555 1_555
C71_9 C66_9 1_555 1_555
H47_9 C67_9 1_555 1_555
H48_9 C68_9 1_555 1_555
H51_9 C71_9 1_555 1_555
C72_9 C67_9 1_555 1_555
C73_9 C68_9 1_555 1_555
C76_9 C71_9 1_555 1_555
C77_9 C72_9 1_555 1_555
C78_9 C73_9 1_555 1_555
C81_9 C76_9 1_555 1_555
H52_9 C77_9 1_555 1_555
H53_9 C78_9 1_555 1_555
H56_9 C81_9 1_555 1_555
C82_9 C72_9 1_555 1_555
C83_9 C73_9 1_555 1_555
C86_9 C76_9 1_555 1_555
C87_9 C47_9 1_555 1_555
C88_9 C48_9 1_555 1_555
C91_9 C51_9 1_555 1_555
C92_9 C97_9 1_555 1_555
C93_9 C98_9 1_555 1_555
C96_9 C101_9 1_555 1_555
C97_9 C102_9 1_555 1_555
C98_9 C103_9 1_555 1_555
C101_9 C106_9 1_555 1_555
C102_9 H57_9 1_555 1_555
C103_9 H58_9 1_555 1_555
C106_9 H61_9 1_555 1_555
C107_9 H62_9 1_555 1_555
C108_9 H63_9 1_555 1_555
C111_9 H66_9 1_555 1_555
C112_9 C107_9 1_555 1_555
C113_9 C108_9 1_555 1_555
C116_9 C111_9 1_555 1_555
H67_9 C112_9 1_555 1_555
H68_9 C113_9 1_555 1_555
H71_9 C116_9 1_555 1_555
C117_9 C97_9 1_555 1_555
C118_9 C98_9 1_555 1_555
C121_9 C101_9 1_555 1_555
H72_9 C117_9 1_555 1_555
H73_9 C118_9 1_555 1_555
H76_9 C121_9 1_555 1_555
C123_9 N53_9 1_555 1_555
C124_9 N54_9 1_555 1_555
C125_9 N55_9 1_555 1_555
C126_9 N56_9 1_555 1_555
N13_9 Co3_11 1_555 1_555
N16_9 Co1_11 1_555 1_555
N17_9 Co3_11 1_555 1_555
N20_9 Co3_11 1_555 1_555
N29_7 C57_9 1_555 1_555
N23_9 Co1_11 1_555 1_555
N26_9 C61_9 1_555 1_555
N27_9 Co3_11 1_555 1_555
N28_9 Co3_11 1_555 1_555
N30_9 C82_9 1_555 1_555
N31_9 C83_9 1_555 1_555
N34_9 C86_9 1_555 1_555
N35_9 C82_9 1_555 1_555
N36_9 C83_9 1_555 1_555
N39_9 C86_9 1_555 1_555
N40_9 C87_9 1_555 1_555
N41_9 C88_9 1_555 1_555
N44_9 C91_9 1_555 1_555
N45_9 C102_9 1_555 1_555
N46_9 C103_9 1_555 1_555
N49_9 C106_9 1_555 1_555
N50_9 Co9_9 1_555 1_555
N51_9 Co10_9 1_555 1_555
N53_9 Co9_9 1_555 1_555
N54_9 Co9_9 1_555 1_555
N55_9 Co10_9 1_555 1_555
N56_9 Co10_9 1_555 1_555
N62_9 Co9_9 1_555 1_555
N63_9 Co9_9 1_555 1_555
N64_9 Co10_9 1_555 1_555
N65_9 Co10_9 1_555 1_555
C32_9 N16_9 1_555 1_555
C33_9 N17_9 1_555 1_555
C36_9 N20_9 1_555 1_555
C52_9 N16_9 1_555 1_555
C53_9 N17_9 1_555 1_555
C56_9 N20_9 1_555 1_555
C58_9 N23_9 1_555 1_555
C77_9 N29_7 1_555 1_555
C78_9 N23_9 1_555 1_555
C81_9 N26_9 1_555 1_555
C87_9 N30_9 1_555 1_555
C88_9 N31_9 1_555 1_555
C91_9 N34_9 1_555 1_555
C92_9 N35_9 1_555 1_555
C92_9 N40_9 1_555 1_555
C93_9 N36_9 1_555 1_555
C93_9 N41_9 1_555 1_555
C96_9 N39_9 1_555 1_555
C96_9 N44_9 1_555 1_555
C107_9 N45_9 1_555 1_555
C108_9 N46_9 1_555 1_555
C111_9 N49_9 1_555 1_555
C112_9 C117_9 1_555 1_555
C113_9 C118_9 1_555 1_555
C116_9 C121_9 1_555 1_555
Co14_4 N7_9 1_555 1_555
S2_9 C20_9 1_555 1_555
C3_9 C2_9 1_555 1_555
H2_9 C3_9 1_555 1_555
C4_9 C3_9 1_555 1_555
H3_9 C4_9 1_555 1_555
C5_9 C4_9 1_555 1_555
C6_9 C5_9 1_555 1_555
H4_9 C6_9 1_555 1_555
C7_9 H5_9 1_555 1_555
C8_9 C7_9 1_555 1_555
H6_9 C8_9 1_555 1_555
C9_9 C8_9 1_555 1_555
H7_9 C9_9 1_555 1_555
C10_9 C9_9 1_555 1_555
C11_9 C10_9 1_555 1_555
H8_9 C11_9 1_555 1_555
C12_9 C10_9 1_555 1_555
C13_9 C5_9 1_555 1_555
C14_9 C15_9 1_555 1_555
C15_9 C16_9 1_555 1_555
C16_9 H9_9 1_555 1_555
C17_9 H10_9 1_555 1_555
C18_9 C17_9 1_555 1_555
H11_9 C18_9 1_555 1_555
C19_9 C15_9 1_555 1_555
H12_9 C19_9 1_555 1_555
C20_9 N8_9 1_555 1_555
C21_9 H13_9 1_555 1_555
C22_9 C21_9 1_555 1_555
H14_9 C22_9 1_555 1_555
C23_9 C22_9 1_555 1_555
H15_9 C23_9 1_555 1_555
C24_9 C23_9 1_555 1_555
C25_9 C24_9 1_555 1_555
H16_9 C25_9 1_555 1_555
C26_9 C24_9 1_555 1_555
N2_9 Co1_12 1_555 1_555
N3_9 C7_9 1_555 1_555
N4_9 C12_9 1_555 1_555
N5_9 C12_9 1_555 1_555
N6_9 C13_9 1_555 1_555
N7_9 C16_9 1_555 1_555
N8_9 Co14_4 1_555 1_555
N9_9 Co14_4 1_555 1_555
N10_9 C26_9 1_555 1_555
Co6_5 N14_9 1_555 1_555
Co5_11 N3_9 1_555 1_555
Co7_11 N19_9 1_555 1_555
Co12_4 N57_9 1_555 1_555
Co11_7 N58_9 1_555 1_555
Co13_9 N47_9 1_555 1_555
S3_9 C27_9 1_555 1_555
S6_9 C30_9 1_555 1_555
S7_9 C31_9 1_555 1_555
S8_9 C122_9 1_555 1_555
C27_9 N11_9 1_555 1_555
C30_9 N14_9 1_555 1_555
C31_9 N15_9 1_555 1_555
C34_9 H19_9 1_555 1_555
C35_9 H20_9 1_555 1_555
C39_9 C34_9 1_555 1_555
C40_9 C35_9 1_555 1_555
H24_9 C39_9 1_555 1_555
H25_9 C40_9 1_555 1_555
C44_9 C39_9 1_555 1_555
C45_9 C40_9 1_555 1_555
H29_9 C44_9 1_555 1_555
H30_9 C45_9 1_555 1_555
C49_9 C44_9 1_555 1_555
C50_9 C45_9 1_555 1_555
C54_9 C49_9 1_555 1_555
C55_9 C50_9 1_555 1_555
H34_9 C54_9 1_555 1_555
H35_9 C55_9 1_555 1_555
C59_9 H39_9 1_555 1_555
C60_9 H40_9 1_555 1_555
C64_9 C59_9 1_555 1_555
C65_9 C60_9 1_555 1_555
H44_9 C64_9 1_555 1_555
H45_9 C65_9 1_555 1_555
C69_9 C64_9 1_555 1_555
C70_9 C65_9 1_555 1_555
H49_9 C69_9 1_555 1_555
H50_9 C70_9 1_555 1_555
C74_9 C69_9 1_555 1_555
C75_9 C70_9 1_555 1_555
C79_9 C74_9 1_555 1_555
C80_9 C75_9 1_555 1_555
H54_9 C79_9 1_555 1_555
H55_9 C80_9 1_555 1_555
C84_9 C74_9 1_555 1_555
C85_9 C75_9 1_555 1_555
C89_9 C49_9 1_555 1_555
C90_9 C50_9 1_555 1_555
C94_9 C99_9 1_555 1_555
C95_9 C100_9 1_555 1_555
C99_9 C104_9 1_555 1_555
C100_9 C105_9 1_555 1_555
C104_9 H59_9 1_555 1_555
C105_9 H60_9 1_555 1_555
C109_9 H64_9 1_555 1_555
C110_9 H65_9 1_555 1_555
C114_9 C109_9 1_555 1_555
C115_9 C110_9 1_555 1_555
H69_9 C114_9 1_555 1_555
H70_9 C115_9 1_555 1_555
C119_9 C99_9 1_555 1_555
C120_9 C100_9 1_555 1_555
H74_9 C119_9 1_555 1_555
H75_9 C120_9 1_555 1_555
C122_9 N52_9 1_555 1_555
C127_9 H77_9 1_555 1_555
C128_9 H78_9 1_555 1_555
C132_9 C127_9 1_555 1_555
C133_9 C128_9 1_555 1_555
H82_9 C132_9 1_555 1_555
H83_9 C133_9 1_555 1_555
C137_9 C132_9 1_555 1_555
C138_9 C133_9 1_555 1_555
H87_9 C137_9 1_555 1_555
H88_9 C138_9 1_555 1_555
C142_9 C137_9 1_555 1_555
C143_9 C138_9 1_555 1_555
C147_9 C142_9 1_555 1_555
C148_9 C143_9 1_555 1_555
H92_9 C147_9 1_555 1_555
H93_9 C148_9 1_555 1_555
C152_9 N10_9 1_555 1_555
C153_9 C143_9 1_555 1_555
N11_9 Co1_12 1_555 1_555
N15_9 Co6_5 1_555 1_555
N18_9 Co6_5 1_555 1_555
N19_9 C35_9 1_555 1_555
N21_9 Co6_5 1_555 1_555
N24_9 Co1_12 1_555 1_555
N25_9 Co6_5 1_555 1_555
N32_9 C84_9 1_555 1_555
N33_9 C85_9 1_555 1_555
N37_9 C84_9 1_555 1_555
N38_9 C85_9 1_555 1_555
N42_9 C89_9 1_555 1_555
N43_9 C90_9 1_555 1_555
N47_9 C104_9 1_555 1_555
N48_9 Co14_4 1_555 1_555
N52_9 Co14_4 1_555 1_555
N57_9 C127_9 1_555 1_555
N58_9 C128_9 1_555 1_555
N66_9 C152_9 1_555 1_555
N67_9 C26_9 1_555 1_555
C2_9 N2_9 1_555 1_555
C6_9 N2_9 1_555 1_555
C11_9 N3_9 1_555 1_555
C13_9 N4_9 1_555 1_555
C14_9 N5_9 1_555 1_555
C14_9 N6_9 1_555 1_555
C17_9 N7_9 1_555 1_555
C18_9 C19_9 1_555 1_555
C21_9 N9_9 1_555 1_555
C25_9 N9_9 1_555 1_555
C34_9 N18_9 1_555 1_555
C54_9 N18_9 1_555 1_555
C55_9 N19_9 1_555 1_555
C59_9 N24_9 1_555 1_555
C60_9 N25_9 1_555 1_555
C79_9 N24_9 1_555 1_555
C80_9 N25_9 1_555 1_555
C89_9 N32_9 1_555 1_555
C90_9 N33_9 1_555 1_555
C94_9 N37_9 1_555 1_555
C94_9 N42_9 1_555 1_555
C95_9 N38_9 1_555 1_555
C95_9 N43_9 1_555 1_555
C105_9 N48_9 1_555 1_555
C109_9 N47_9 1_555 1_555
C110_9 N48_9 1_555 1_555
C114_9 C119_9 1_555 1_555
C115_9 C120_9 1_555 1_555
C142_9 C152_9 1_555 1_555
C147_9 N57_9 1_555 1_555
C148_9 N58_9 1_555 1_555
C153_9 N66_9 1_555 1_555
C153_9 N67_9 1_555 1_555
Co1_13 N1_10 1_555 1_555
Co14_2 N7_10 1_555 1_555
S1_10 C1_10 1_555 1_555
S2_10 C20_10 1_555 1_555
C1_10 N1_10 1_555 1_555
C2_10 H1_10 1_555 1_555
C3_10 C2_10 1_555 1_555
H2_10 C3_10 1_555 1_555
C4_10 C3_10 1_555 1_555
H3_10 C4_10 1_555 1_555
C5_10 C4_10 1_555 1_555
C6_10 C5_10 1_555 1_555
H4_10 C6_10 1_555 1_555
C7_10 H5_10 1_555 1_555
C8_10 C7_10 1_555 1_555
H6_10 C8_10 1_555 1_555
C9_10 C8_10 1_555 1_555
H7_10 C9_10 1_555 1_555
C10_10 C9_10 1_555 1_555
C11_10 C10_10 1_555 1_555
H8_10 C11_10 1_555 1_555
C12_10 C10_10 1_555 1_555
C13_10 C5_10 1_555 1_555
C14_10 C15_10 1_555 1_555
C15_10 C16_10 1_555 1_555
C16_10 H9_10 1_555 1_555
C17_10 H10_10 1_555 1_555
C18_10 C17_10 1_555 1_555
H11_10 C18_10 1_555 1_555
C19_10 C15_10 1_555 1_555
H12_10 C19_10 1_555 1_555
C20_10 N8_10 1_555 1_555
C21_10 H13_10 1_555 1_555
C22_10 C21_10 1_555 1_555
H14_10 C22_10 1_555 1_555
C23_10 C22_10 1_555 1_555
H15_10 C23_10 1_555 1_555
C24_10 C23_10 1_555 1_555
C25_10 C24_10 1_555 1_555
H16_10 C25_10 1_555 1_555
C26_10 C24_10 1_555 1_555
N2_10 Co1_13 1_555 1_555
N3_10 C7_10 1_555 1_555
N4_10 C12_10 1_555 1_555
N5_10 C12_10 1_555 1_555
N6_10 C13_10 1_555 1_555
N7_10 C16_10 1_555 1_555
N8_10 Co14_2 1_555 1_555
N9_10 Co14_2 1_555 1_555
N10_10 C26_10 1_555 1_555
Co3_12 N12_10 1_555 1_555
Co6_2 N14_10 1_555 1_555
Co5_12 N3_10 1_555 1_555
Co7_12 N19_10 1_555 1_555
Co8_12 N26_10 1_555 1_555
Co9_10 N45_10 1_555 1_555
Co10_10 N46_10 1_555 1_555
Co12_2 N57_10 1_555 1_555
Co11_6 N58_10 1_555 1_555
Co13_10 N47_10 1_555 1_555
Co16_10 N49_10 1_555 1_555
S3_10 C27_10 1_555 1_555
S4_10 C28_10 1_555 1_555
S5_10 C29_10 1_555 1_555
S6_10 C30_10 1_555 1_555
S7_10 C31_10 1_555 1_555
S8_10 C122_10 1_555 1_555
S9_10 C123_10 1_555 1_555
S10_10 C124_10 1_555 1_555
S11_10 C125_10 1_555 1_555
S12_10 C126_10 1_555 1_555
C27_10 N11_10 1_555 1_555
C28_10 N12_10 1_555 1_555
C29_10 N13_10 1_555 1_555
C30_10 N14_10 1_555 1_555
C31_10 N15_10 1_555 1_555
C32_10 H17_10 1_555 1_555
C33_10 H18_10 1_555 1_555
C34_10 H19_10 1_555 1_555
C35_10 H20_10 1_555 1_555
C36_10 H21_10 1_555 1_555
C37_10 C32_10 1_555 1_555
C38_10 C33_10 1_555 1_555
C39_10 C34_10 1_555 1_555
C40_10 C35_10 1_555 1_555
C41_10 C36_10 1_555 1_555
H22_10 C37_10 1_555 1_555
H23_10 C38_10 1_555 1_555
H24_10 C39_10 1_555 1_555
H25_10 C40_10 1_555 1_555
H26_10 C41_10 1_555 1_555
C42_10 C37_10 1_555 1_555
C43_10 C38_10 1_555 1_555
C44_10 C39_10 1_555 1_555
C45_10 C40_10 1_555 1_555
C46_10 C41_10 1_555 1_555
H27_10 C42_10 1_555 1_555
H28_10 C43_10 1_555 1_555
H29_10 C44_10 1_555 1_555
H30_10 C45_10 1_555 1_555
H31_10 C46_10 1_555 1_555
C47_10 C42_10 1_555 1_555
C48_10 C43_10 1_555 1_555
C49_10 C44_10 1_555 1_555
C50_10 C45_10 1_555 1_555
C51_10 C46_10 1_555 1_555
C52_10 C47_10 1_555 1_555
C53_10 C48_10 1_555 1_555
C54_10 C49_10 1_555 1_555
C55_10 C50_10 1_555 1_555
C56_10 C51_10 1_555 1_555
H32_10 C52_10 1_555 1_555
H33_10 C53_10 1_555 1_555
H34_10 C54_10 1_555 1_555
H35_10 C55_10 1_555 1_555
H36_10 C56_10 1_555 1_555
C57_10 H37_10 1_555 1_555
C58_10 H38_10 1_555 1_555
C59_10 H39_10 1_555 1_555
C60_10 H40_10 1_555 1_555
C61_10 H41_10 1_555 1_555
C62_10 C57_10 1_555 1_555
C63_10 C58_10 1_555 1_555
C64_10 C59_10 1_555 1_555
C65_10 C60_10 1_555 1_555
C66_10 C61_10 1_555 1_555
H42_10 C62_10 1_555 1_555
H43_10 C63_10 1_555 1_555
H44_10 C64_10 1_555 1_555
H45_10 C65_10 1_555 1_555
H46_10 C66_10 1_555 1_555
C67_10 C62_10 1_555 1_555
C68_10 C63_10 1_555 1_555
C69_10 C64_10 1_555 1_555
C70_10 C65_10 1_555 1_555
C71_10 C66_10 1_555 1_555
H47_10 C67_10 1_555 1_555
H48_10 C68_10 1_555 1_555
H49_10 C69_10 1_555 1_555
H50_10 C70_10 1_555 1_555
H51_10 C71_10 1_555 1_555
C72_10 C67_10 1_555 1_555
C73_10 C68_10 1_555 1_555
C74_10 C69_10 1_555 1_555
C75_10 C70_10 1_555 1_555
C76_10 C71_10 1_555 1_555
C77_10 C72_10 1_555 1_555
C78_10 C73_10 1_555 1_555
C79_10 C74_10 1_555 1_555
C80_10 C75_10 1_555 1_555
C81_10 C76_10 1_555 1_555
H52_10 C77_10 1_555 1_555
H53_10 C78_10 1_555 1_555
H54_10 C79_10 1_555 1_555
H55_10 C80_10 1_555 1_555
H56_10 C81_10 1_555 1_555
C82_10 C72_10 1_555 1_555
C83_10 C73_10 1_555 1_555
C84_10 C74_10 1_555 1_555
C85_10 C75_10 1_555 1_555
C86_10 C76_10 1_555 1_555
C87_10 C47_10 1_555 1_555
C88_10 C48_10 1_555 1_555
C89_10 C49_10 1_555 1_555
C90_10 C50_10 1_555 1_555
C91_10 C51_10 1_555 1_555
C92_10 C97_10 1_555 1_555
C93_10 C98_10 1_555 1_555
C94_10 C99_10 1_555 1_555
C95_10 C100_10 1_555 1_555
C96_10 C101_10 1_555 1_555
C97_10 C102_10 1_555 1_555
C98_10 C103_10 1_555 1_555
C99_10 C104_10 1_555 1_555
C100_10 C105_10 1_555 1_555
C101_10 C106_10 1_555 1_555
C102_10 H57_10 1_555 1_555
C103_10 H58_10 1_555 1_555
C104_10 H59_10 1_555 1_555
C105_10 H60_10 1_555 1_555
C106_10 H61_10 1_555 1_555
C107_10 H62_10 1_555 1_555
C108_10 H63_10 1_555 1_555
C109_10 H64_10 1_555 1_555
C110_10 H65_10 1_555 1_555
C111_10 H66_10 1_555 1_555
C112_10 C107_10 1_555 1_555
C113_10 C108_10 1_555 1_555
C114_10 C109_10 1_555 1_555
C115_10 C110_10 1_555 1_555
C116_10 C111_10 1_555 1_555
H67_10 C112_10 1_555 1_555
H68_10 C113_10 1_555 1_555
H69_10 C114_10 1_555 1_555
H70_10 C115_10 1_555 1_555
H71_10 C116_10 1_555 1_555
C117_10 C97_10 1_555 1_555
C118_10 C98_10 1_555 1_555
C119_10 C99_10 1_555 1_555
C120_10 C100_10 1_555 1_555
C121_10 C101_10 1_555 1_555
H72_10 C117_10 1_555 1_555
H73_10 C118_10 1_555 1_555
H74_10 C119_10 1_555 1_555
H75_10 C120_10 1_555 1_555
H76_10 C121_10 1_555 1_555
C122_10 N52_10 1_555 1_555
C123_10 N53_10 1_555 1_555
C124_10 N54_10 1_555 1_555
C125_10 N55_10 1_555 1_555
C126_10 N56_10 1_555 1_555
C127_10 H77_10 1_555 1_555
C128_10 H78_10 1_555 1_555
C132_10 C127_10 1_555 1_555
C133_10 C128_10 1_555 1_555
H82_10 C132_10 1_555 1_555
H83_10 C133_10 1_555 1_555
C137_10 C132_10 1_555 1_555
C138_10 C133_10 1_555 1_555
H87_10 C137_10 1_555 1_555
H88_10 C138_10 1_555 1_555
C142_10 C137_10 1_555 1_555
C143_10 C138_10 1_555 1_555
C147_10 C142_10 1_555 1_555
C148_10 C143_10 1_555 1_555
H92_10 C147_10 1_555 1_555
H93_10 C148_10 1_555 1_555
C152_10 N10_10 1_555 1_555
C153_10 C143_10 1_555 1_555
N11_10 Co1_13 1_555 1_555
N13_10 Co3_12 1_555 1_555
N15_10 Co6_2 1_555 1_555
N16_10 Co1_13 1_555 1_555
N17_10 Co3_12 1_555 1_555
N18_10 Co6_2 1_555 1_555
N19_10 C35_10 1_555 1_555
N20_10 Co3_12 1_555 1_555
N21_10 Co6_2 1_555 1_555
N29_6 C57_10 1_555 1_555
N23_10 Co1_13 1_555 1_555
N24_10 Co1_13 1_555 1_555
N25_10 Co6_2 1_555 1_555
N26_10 C61_10 1_555 1_555
N27_10 Co3_12 1_555 1_555
N28_10 Co3_12 1_555 1_555
N30_10 C82_10 1_555 1_555
N31_10 C83_10 1_555 1_555
N32_10 C84_10 1_555 1_555
N33_10 C85_10 1_555 1_555
N34_10 C86_10 1_555 1_555
N35_10 C82_10 1_555 1_555
N36_10 C83_10 1_555 1_555
N37_10 C84_10 1_555 1_555
N38_10 C85_10 1_555 1_555
N39_10 C86_10 1_555 1_555
N40_10 C87_10 1_555 1_555
N41_10 C88_10 1_555 1_555
N42_10 C89_10 1_555 1_555
N43_10 C90_10 1_555 1_555
N44_10 C91_10 1_555 1_555
N45_10 C102_10 1_555 1_555
N46_10 C103_10 1_555 1_555
N47_10 C104_10 1_555 1_555
N48_10 Co14_2 1_555 1_555
N49_10 C106_10 1_555 1_555
N50_10 Co9_10 1_555 1_555
N51_10 Co10_10 1_555 1_555
N52_10 Co14_2 1_555 1_555
N53_10 Co9_10 1_555 1_555
N54_10 Co9_10 1_555 1_555
N55_10 Co10_10 1_555 1_555
N56_10 Co10_10 1_555 1_555
N57_10 C127_10 1_555 1_555
N58_10 C128_10 1_555 1_555
N62_10 Co9_10 1_555 1_555
N63_10 Co9_10 1_555 1_555
N64_10 Co10_10 1_555 1_555
N65_10 Co10_10 1_555 1_555
N66_10 C152_10 1_555 1_555
N67_10 C26_10 1_555 1_555
C2_10 N2_10 1_555 1_555
C6_10 N2_10 1_555 1_555
C11_10 N3_10 1_555 1_555
C13_10 N4_10 1_555 1_555
C14_10 N5_10 1_555 1_555
C14_10 N6_10 1_555 1_555
C17_10 N7_10 1_555 1_555
C18_10 C19_10 1_555 1_555
C21_10 N9_10 1_555 1_555
C25_10 N9_10 1_555 1_555
C32_10 N16_10 1_555 1_555
C33_10 N17_10 1_555 1_555
C34_10 N18_10 1_555 1_555
C36_10 N20_10 1_555 1_555
C52_10 N16_10 1_555 1_555
C53_10 N17_10 1_555 1_555
C54_10 N18_10 1_555 1_555
C55_10 N19_10 1_555 1_555
C56_10 N20_10 1_555 1_555
C58_10 N23_10 1_555 1_555
C59_10 N24_10 1_555 1_555
C60_10 N25_10 1_555 1_555
C77_10 N29_6 1_555 1_555
C78_10 N23_10 1_555 1_555
C79_10 N24_10 1_555 1_555
C80_10 N25_10 1_555 1_555
C81_10 N26_10 1_555 1_555
C87_10 N30_10 1_555 1_555
C88_10 N31_10 1_555 1_555
C89_10 N32_10 1_555 1_555
C90_10 N33_10 1_555 1_555
C91_10 N34_10 1_555 1_555
C92_10 N35_10 1_555 1_555
C92_10 N40_10 1_555 1_555
C93_10 N36_10 1_555 1_555
C93_10 N41_10 1_555 1_555
C94_10 N37_10 1_555 1_555
C94_10 N42_10 1_555 1_555
C95_10 N38_10 1_555 1_555
C95_10 N43_10 1_555 1_555
C96_10 N39_10 1_555 1_555
C96_10 N44_10 1_555 1_555
C105_10 N48_10 1_555 1_555
C107_10 N45_10 1_555 1_555
C108_10 N46_10 1_555 1_555
C109_10 N47_10 1_555 1_555
C110_10 N48_10 1_555 1_555
C111_10 N49_10 1_555 1_555
C112_10 C117_10 1_555 1_555
C113_10 C118_10 1_555 1_555
C114_10 C119_10 1_555 1_555
C115_10 C120_10 1_555 1_555
C116_10 C121_10 1_555 1_555
C142_10 C152_10 1_555 1_555
C147_10 N57_10 1_555 1_555
C148_10 N58_10 1_555 1_555
C153_10 N66_10 1_555 1_555
C153_10 N67_10 1_555 1_555
S9_11 C123_11 1_555 1_555
S10_11 C124_11 1_555 1_555
Co1_14 N1_11 1_555 1_555
Co14 N7_11 1_555 1_555
S1_11 C1_11 1_555 1_555
C1_11 N1_11 1_555 1_555
C2_11 H1_11 1_555 1_555
C3_11 C2_11 1_555 1_555
H2_11 C3_11 1_555 1_555
C4_11 C3_11 1_555 1_555
H3_11 C4_11 1_555 1_555
C5_11 C4_11 1_555 1_555
C6_11 C5_11 1_555 1_555
H4_11 C6_11 1_555 1_555
C7_11 H5_11 1_555 1_555
C8_11 C7_11 1_555 1_555
H6_11 C8_11 1_555 1_555
C9_11 C8_11 1_555 1_555
H7_11 C9_11 1_555 1_555
C10_11 C9_11 1_555 1_555
C11_11 C10_11 1_555 1_555
H8_11 C11_11 1_555 1_555
C12_11 C10_11 1_555 1_555
C13_11 C5_11 1_555 1_555
C14_11 C15_11 1_555 1_555
C15_11 C16_11 1_555 1_555
C16_11 H9_11 1_555 1_555
C17_11 H10_11 1_555 1_555
C18_11 C17_11 1_555 1_555
H11_11 C18_11 1_555 1_555
C19_11 C15_11 1_555 1_555
H12_11 C19_11 1_555 1_555
N2_11 Co1_14 1_555 1_555
N3_11 C7_11 1_555 1_555
N4_11 C12_11 1_555 1_555
N5_11 C12_11 1_555 1_555
N6_11 C13_11 1_555 1_555
N7_11 C16_11 1_555 1_555
N8_11 Co14 1_555 1_555
Co3_13 N12_11 1_555 1_555
Co6 N14_11 1_555 1_555
Co5_14 N3_11 1_555 1_555
Co7_13 N19_11 1_555 1_555
Co8_13 N26_11 1_555 1_555
Co9_11 N45_11 1_555 1_555
Co10_11 N46_11 1_555 1_555
Co13_11 N47_11 1_555 1_555
Co16_11 N49_11 1_555 1_555
S3_11 C27_11 1_555 1_555
S4_11 C28_11 1_555 1_555
S5_11 C29_11 1_555 1_555
S6_11 C30_11 1_555 1_555
S7_11 C31_11 1_555 1_555
S11_11 C125_11 1_555 1_555
S12_11 C126_11 1_555 1_555
C27_11 N11_11 1_555 1_555
C28_11 N12_11 1_555 1_555
C29_11 N13_11 1_555 1_555
C30_11 N14_11 1_555 1_555
C31_11 N15_11 1_555 1_555
C32_11 H17_11 1_555 1_555
C33_11 H18_11 1_555 1_555
C34_11 H19_11 1_555 1_555
C35_11 H20_11 1_555 1_555
C36_11 H21_11 1_555 1_555
C37_11 C32_11 1_555 1_555
C38_11 C33_11 1_555 1_555
C39_11 C34_11 1_555 1_555
C40_11 C35_11 1_555 1_555
C41_11 C36_11 1_555 1_555
H22_11 C37_11 1_555 1_555
H23_11 C38_11 1_555 1_555
H24_11 C39_11 1_555 1_555
H25_11 C40_11 1_555 1_555
H26_11 C41_11 1_555 1_555
C42_11 C37_11 1_555 1_555
C43_11 C38_11 1_555 1_555
C44_11 C39_11 1_555 1_555
C45_11 C40_11 1_555 1_555
C46_11 C41_11 1_555 1_555
H27_11 C42_11 1_555 1_555
H28_11 C43_11 1_555 1_555
H29_11 C44_11 1_555 1_555
H30_11 C45_11 1_555 1_555
H31_11 C46_11 1_555 1_555
C47_11 C42_11 1_555 1_555
C48_11 C43_11 1_555 1_555
C49_11 C44_11 1_555 1_555
C50_11 C45_11 1_555 1_555
C51_11 C46_11 1_555 1_555
C52_11 C47_11 1_555 1_555
C53_11 C48_11 1_555 1_555
C54_11 C49_11 1_555 1_555
C55_11 C50_11 1_555 1_555
C56_11 C51_11 1_555 1_555
H32_11 C52_11 1_555 1_555
H33_11 C53_11 1_555 1_555
H34_11 C54_11 1_555 1_555
H35_11 C55_11 1_555 1_555
H36_11 C56_11 1_555 1_555
C57_11 H37_11 1_555 1_555
C58_11 H38_11 1_555 1_555
C59_11 H39_11 1_555 1_555
C60_11 H40_11 1_555 1_555
C61_11 H41_11 1_555 1_555
C62_11 C57_11 1_555 1_555
C63_11 C58_11 1_555 1_555
C64_11 C59_11 1_555 1_555
C65_11 C60_11 1_555 1_555
C66_11 C61_11 1_555 1_555
H42_11 C62_11 1_555 1_555
H43_11 C63_11 1_555 1_555
H44_11 C64_11 1_555 1_555
H45_11 C65_11 1_555 1_555
H46_11 C66_11 1_555 1_555
C67_11 C62_11 1_555 1_555
C68_11 C63_11 1_555 1_555
C69_11 C64_11 1_555 1_555
C70_11 C65_11 1_555 1_555
C71_11 C66_11 1_555 1_555
H47_11 C67_11 1_555 1_555
H48_11 C68_11 1_555 1_555
H49_11 C69_11 1_555 1_555
H50_11 C70_11 1_555 1_555
H51_11 C71_11 1_555 1_555
C72_11 C67_11 1_555 1_555
C73_11 C68_11 1_555 1_555
C74_11 C69_11 1_555 1_555
C75_11 C70_11 1_555 1_555
C76_11 C71_11 1_555 1_555
C77_11 C72_11 1_555 1_555
C78_11 C73_11 1_555 1_555
C79_11 C74_11 1_555 1_555
C80_11 C75_11 1_555 1_555
C81_11 C76_11 1_555 1_555
H52_11 C77_11 1_555 1_555
H53_11 C78_11 1_555 1_555
H54_11 C79_11 1_555 1_555
H55_11 C80_11 1_555 1_555
H56_11 C81_11 1_555 1_555
C82_11 C72_11 1_555 1_555
C83_11 C73_11 1_555 1_555
C84_11 C74_11 1_555 1_555
C85_11 C75_11 1_555 1_555
C86_11 C76_11 1_555 1_555
C87_11 C47_11 1_555 1_555
C88_11 C48_11 1_555 1_555
C89_11 C49_11 1_555 1_555
C90_11 C50_11 1_555 1_555
C91_11 C51_11 1_555 1_555
C92_11 C97_11 1_555 1_555
C93_11 C98_11 1_555 1_555
C94_11 C99_11 1_555 1_555
C95_11 C100_11 1_555 1_555
C96_11 C101_11 1_555 1_555
C97_11 C102_11 1_555 1_555
C98_11 C103_11 1_555 1_555
C99_11 C104_11 1_555 1_555
C100_11 C105_11 1_555 1_555
C101_11 C106_11 1_555 1_555
C102_11 H57_11 1_555 1_555
C103_11 H58_11 1_555 1_555
C104_11 H59_11 1_555 1_555
C105_11 H60_11 1_555 1_555
C106_11 H61_11 1_555 1_555
C107_11 H62_11 1_555 1_555
C108_11 H63_11 1_555 1_555
C109_11 H64_11 1_555 1_555
C110_11 H65_11 1_555 1_555
C111_11 H66_11 1_555 1_555
C112_11 C107_11 1_555 1_555
C113_11 C108_11 1_555 1_555
C114_11 C109_11 1_555 1_555
C115_11 C110_11 1_555 1_555
C116_11 C111_11 1_555 1_555
H67_11 C112_11 1_555 1_555
H68_11 C113_11 1_555 1_555
H69_11 C114_11 1_555 1_555
H70_11 C115_11 1_555 1_555
H71_11 C116_11 1_555 1_555
C117_11 C97_11 1_555 1_555
C118_11 C98_11 1_555 1_555
C119_11 C99_11 1_555 1_555
C120_11 C100_11 1_555 1_555
C121_11 C101_11 1_555 1_555
H72_11 C117_11 1_555 1_555
H73_11 C118_11 1_555 1_555
H74_11 C119_11 1_555 1_555
H75_11 C120_11 1_555 1_555
H76_11 C121_11 1_555 1_555
C125_11 N55_11 1_555 1_555
C126_11 N56_11 1_555 1_555
N11_11 Co1_14 1_555 1_555
N13_11 Co3_13 1_555 1_555
N15_11 Co6 1_555 1_555
N16_11 Co1_14 1_555 1_555
N17_11 Co3_13 1_555 1_555
N18_11 Co6 1_555 1_555
N19_11 C35_11 1_555 1_555
N20_11 Co3_13 1_555 1_555
N21_11 Co6 1_555 1_555
N29_8 C57_11 1_555 1_555
N23_11 Co1_14 1_555 1_555
N24_11 Co1_14 1_555 1_555
N25_11 Co6 1_555 1_555
N26_11 C61_11 1_555 1_555
N27_11 Co3_13 1_555 1_555
N28_11 Co3_13 1_555 1_555
N30_11 C82_11 1_555 1_555
N31_11 C83_11 1_555 1_555
N32_11 C84_11 1_555 1_555
N33_11 C85_11 1_555 1_555
N34_11 C86_11 1_555 1_555
N35_11 C82_11 1_555 1_555
N36_11 C83_11 1_555 1_555
N37_11 C84_11 1_555 1_555
N38_11 C85_11 1_555 1_555
N39_11 C86_11 1_555 1_555
N40_11 C87_11 1_555 1_555
N41_11 C88_11 1_555 1_555
N42_11 C89_11 1_555 1_555
N43_11 C90_11 1_555 1_555
N44_11 C91_11 1_555 1_555
N45_11 C102_11 1_555 1_555
N46_11 C103_11 1_555 1_555
N47_11 C104_11 1_555 1_555
N48_11 Co14 1_555 1_555
N49_11 C106_11 1_555 1_555
N50_11 Co9_11 1_555 1_555
N51_11 Co10_11 1_555 1_555
N52_11 Co14 1_555 1_555
N53_11 Co9_11 1_555 1_555
N54_11 Co9_11 1_555 1_555
N55_11 Co10_11 1_555 1_555
N56_11 Co10_11 1_555 1_555
N64_11 Co10_11 1_555 1_555
N65_11 Co10_11 1_555 1_555
C2_11 N2_11 1_555 1_555
C6_11 N2_11 1_555 1_555
C11_11 N3_11 1_555 1_555
C13_11 N4_11 1_555 1_555
C14_11 N5_11 1_555 1_555
C14_11 N6_11 1_555 1_555
C17_11 N7_11 1_555 1_555
C18_11 C19_11 1_555 1_555
C32_11 N16_11 1_555 1_555
C33_11 N17_11 1_555 1_555
C34_11 N18_11 1_555 1_555
C36_11 N20_11 1_555 1_555
C52_11 N16_11 1_555 1_555
C53_11 N17_11 1_555 1_555
C54_11 N18_11 1_555 1_555
C55_11 N19_11 1_555 1_555
C56_11 N20_11 1_555 1_555
C58_11 N23_11 1_555 1_555
C59_11 N24_11 1_555 1_555
C60_11 N25_11 1_555 1_555
C77_11 N29_8 1_555 1_555
C78_11 N23_11 1_555 1_555
C79_11 N24_11 1_555 1_555
C80_11 N25_11 1_555 1_555
C81_11 N26_11 1_555 1_555
C87_11 N30_11 1_555 1_555
C88_11 N31_11 1_555 1_555
C89_11 N32_11 1_555 1_555
C90_11 N33_11 1_555 1_555
C91_11 N34_11 1_555 1_555
C92_11 N35_11 1_555 1_555
C92_11 N40_11 1_555 1_555
C93_11 N36_11 1_555 1_555
C93_11 N41_11 1_555 1_555
C94_11 N37_11 1_555 1_555
C94_11 N42_11 1_555 1_555
C95_11 N38_11 1_555 1_555
C95_11 N43_11 1_555 1_555
C96_11 N39_11 1_555 1_555
C96_11 N44_11 1_555 1_555
C105_11 N48_11 1_555 1_555
C107_11 N45_11 1_555 1_555
C108_11 N46_11 1_555 1_555
C109_11 N47_11 1_555 1_555
C110_11 N48_11 1_555 1_555
C111_11 N49_11 1_555 1_555
C112_11 C117_11 1_555 1_555
C113_11 C118_11 1_555 1_555
C114_11 C119_11 1_555 1_555
C115_11 C120_11 1_555 1_555
C116_11 C121_11 1_555 1_555
S2_11 C20_11 1_555 1_555
C21_11 H13_11 1_555 1_555
C22_11 C21_11 1_555 1_555
H14_11 C22_11 1_555 1_555
C23_11 C22_11 1_555 1_555
H15_11 C23_11 1_555 1_555
C24_11 C23_11 1_555 1_555
C25_11 C24_11 1_555 1_555
H16_11 C25_11 1_555 1_555
C26_11 C24_11 1_555 1_555
N10_11 C26_11 1_555 1_555
Co12 N57_11 1_555 1_555
S8_11 C122_11 1_555 1_555
C127_11 H77_11 1_555 1_555
C128_11 H78_11 1_555 1_555
C132_11 C127_11 1_555 1_555
C133_11 C128_11 1_555 1_555
H82_11 C132_11 1_555 1_555
H83_11 C133_11 1_555 1_555
C137_11 C132_11 1_555 1_555
C138_11 C133_11 1_555 1_555
H87_11 C137_11 1_555 1_555
H88_11 C138_11 1_555 1_555
C142_11 C137_11 1_555 1_555
C143_11 C138_11 1_555 1_555
C147_11 C142_11 1_555 1_555
C148_11 C143_11 1_555 1_555
H92_11 C147_11 1_555 1_555
H93_11 C148_11 1_555 1_555
C152_11 N10_11 1_555 1_555
C153_11 C143_11 1_555 1_555
N57_11 C127_11 1_555 1_555
N58_11 C128_11 1_555 1_555
N66_11 C152_11 1_555 1_555
N67_11 C26_11 1_555 1_555
C21_11 N9_11 1_555 1_555
C25_11 N9_11 1_555 1_555
C142_11 C152_11 1_555 1_555
C147_11 N57_11 1_555 1_555
C148_11 N58_11 1_555 1_555
C153_11 N66_11 1_555 1_555
C153_11 N67_11 1_555 1_555
Co6_3 N14_12 1_555 1_555
S6_12 C30_12 1_555 1_555
S11_12 C125_12 1_555 1_555
S12_12 C126_12 1_555 1_555
C30_12 N14_12 1_555 1_555
N21_12 Co6_3 1_555 1_555
Co1_15 N1_12 1_555 1_555
Co14_3 N7_12 1_555 1_555
S1_12 C1_12 1_555 1_555
S2_12 C20_12 1_555 1_555
C1_12 N1_12 1_555 1_555
C2_12 H1_12 1_555 1_555
C3_12 C2_12 1_555 1_555
H2_12 C3_12 1_555 1_555
C4_12 C3_12 1_555 1_555
H3_12 C4_12 1_555 1_555
C5_12 C4_12 1_555 1_555
C6_12 C5_12 1_555 1_555
H4_12 C6_12 1_555 1_555
C7_12 H5_12 1_555 1_555
C8_12 C7_12 1_555 1_555
H6_12 C8_12 1_555 1_555
C9_12 C8_12 1_555 1_555
H7_12 C9_12 1_555 1_555
C10_12 C9_12 1_555 1_555
C11_12 C10_12 1_555 1_555
H8_12 C11_12 1_555 1_555
C12_12 C10_12 1_555 1_555
C13_12 C5_12 1_555 1_555
C14_12 C15_12 1_555 1_555
C15_12 C16_12 1_555 1_555
C16_12 H9_12 1_555 1_555
C17_12 H10_12 1_555 1_555
C18_12 C17_12 1_555 1_555
H11_12 C18_12 1_555 1_555
C19_12 C15_12 1_555 1_555
H12_12 C19_12 1_555 1_555
C20_12 N8_12 1_555 1_555
C21_12 H13_12 1_555 1_555
C22_12 C21_12 1_555 1_555
H14_12 C22_12 1_555 1_555
C23_12 C22_12 1_555 1_555
H15_12 C23_12 1_555 1_555
C24_12 C23_12 1_555 1_555
C25_12 C24_12 1_555 1_555
H16_12 C25_12 1_555 1_555
C26_12 C24_12 1_555 1_555
N2_12 Co1_15 1_555 1_555
N3_12 C7_12 1_555 1_555
N4_12 C12_12 1_555 1_555
N5_12 C12_12 1_555 1_555
N6_12 C13_12 1_555 1_555
N7_12 C16_12 1_555 1_555
N8_12 Co14_3 1_555 1_555
N9_12 Co14_3 1_555 1_555
N10_12 C26_12 1_555 1_555
Co5_15 N3_12 1_555 1_555
Co7_15 N19_12 1_555 1_555
Co9_12 N45_12 1_555 1_555
Co10_12 N46_12 1_555 1_555
Co11_5 N58_12 1_555 1_555
Co13_12 N47_12 1_555 1_555
S3_12 C27_12 1_555 1_555
S5_12 C29_12 1_555 1_555
S7_12 C31_12 1_555 1_555
S8_12 C122_12 1_555 1_555
S9_12 C123_12 1_555 1_555
S10_12 C124_12 1_555 1_555
C27_12 N11_12 1_555 1_555
C29_12 N13_12 1_555 1_555
C31_12 N15_12 1_555 1_555
C32_12 H17_12 1_555 1_555
C37_12 C32_12 1_555 1_555
C38_12 C33_12 1_555 1_555
C39_12 C34_12 1_555 1_555
C40_12 C35_12 1_555 1_555
H22_12 C37_12 1_555 1_555
H23_12 C38_12 1_555 1_555
H24_12 C39_12 1_555 1_555
H25_12 C40_12 1_555 1_555
C42_12 C37_12 1_555 1_555
C43_12 C38_12 1_555 1_555
C44_12 C39_12 1_555 1_555
C45_12 C40_12 1_555 1_555
H27_12 C42_12 1_555 1_555
H28_12 C43_12 1_555 1_555
H29_12 C44_12 1_555 1_555
H30_12 C45_12 1_555 1_555
C47_12 C42_12 1_555 1_555
C48_12 C43_12 1_555 1_555
C49_12 C44_12 1_555 1_555
C50_12 C45_12 1_555 1_555
C52_12 C47_12 1_555 1_555
C53_12 C48_12 1_555 1_555
C54_12 C49_12 1_555 1_555
C55_12 C50_12 1_555 1_555
H32_12 C52_12 1_555 1_555
H33_12 C53_12 1_555 1_555
H34_12 C54_12 1_555 1_555
H35_12 C55_12 1_555 1_555
C57_12 H37_12 1_555 1_555
C58_12 H38_12 1_555 1_555
C59_12 H39_12 1_555 1_555
C60_12 H40_12 1_555 1_555
C62_12 C57_12 1_555 1_555
C63_12 C58_12 1_555 1_555
C64_12 C59_12 1_555 1_555
C65_12 C60_12 1_555 1_555
H42_12 C62_12 1_555 1_555
H43_12 C63_12 1_555 1_555
H44_12 C64_12 1_555 1_555
H45_12 C65_12 1_555 1_555
C67_12 C62_12 1_555 1_555
C68_12 C63_12 1_555 1_555
C69_12 C64_12 1_555 1_555
C70_12 C65_12 1_555 1_555
H47_12 C67_12 1_555 1_555
H48_12 C68_12 1_555 1_555
H49_12 C69_12 1_555 1_555
H50_12 C70_12 1_555 1_555
C72_12 C67_12 1_555 1_555
C73_12 C68_12 1_555 1_555
C74_12 C69_12 1_555 1_555
C75_12 C70_12 1_555 1_555
C77_12 C72_12 1_555 1_555
C78_12 C73_12 1_555 1_555
C79_12 C74_12 1_555 1_555
C80_12 C75_12 1_555 1_555
H52_12 C77_12 1_555 1_555
H53_12 C78_12 1_555 1_555
H54_12 C79_12 1_555 1_555
H55_12 C80_12 1_555 1_555
C82_12 C72_12 1_555 1_555
C83_12 C73_12 1_555 1_555
C84_12 C74_12 1_555 1_555
C85_12 C75_12 1_555 1_555
C87_12 C47_12 1_555 1_555
C88_12 C48_12 1_555 1_555
C89_12 C49_12 1_555 1_555
C90_12 C50_12 1_555 1_555
C92_12 C97_12 1_555 1_555
C93_12 C98_12 1_555 1_555
C94_12 C99_12 1_555 1_555
C95_12 C100_12 1_555 1_555
C97_12 C102_12 1_555 1_555
C98_12 C103_12 1_555 1_555
C99_12 C104_12 1_555 1_555
C100_12 C105_12 1_555 1_555
C102_12 H57_12 1_555 1_555
C103_12 H58_12 1_555 1_555
C104_12 H59_12 1_555 1_555
C105_12 H60_12 1_555 1_555
C107_12 H62_12 1_555 1_555
C108_12 H63_12 1_555 1_555
C109_12 H64_12 1_555 1_555
C110_12 H65_12 1_555 1_555
C112_12 C107_12 1_555 1_555
C113_12 C108_12 1_555 1_555
C114_12 C109_12 1_555 1_555
C115_12 C110_12 1_555 1_555
H67_12 C112_12 1_555 1_555
H68_12 C113_12 1_555 1_555
H69_12 C114_12 1_555 1_555
H70_12 C115_12 1_555 1_555
C117_12 C97_12 1_555 1_555
C118_12 C98_12 1_555 1_555
C119_12 C99_12 1_555 1_555
C120_12 C100_12 1_555 1_555
H72_12 C117_12 1_555 1_555
H73_12 C118_12 1_555 1_555
H74_12 C119_12 1_555 1_555
H75_12 C120_12 1_555 1_555
C122_12 N52_12 1_555 1_555
C123_12 N53_12 1_555 1_555
C124_12 N54_12 1_555 1_555
C127_12 H77_12 1_555 1_555
C128_12 H78_12 1_555 1_555
C132_12 C127_12 1_555 1_555
C133_12 C128_12 1_555 1_555
H82_12 C132_12 1_555 1_555
H83_12 C133_12 1_555 1_555
C137_12 C132_12 1_555 1_555
C138_12 C133_12 1_555 1_555
H87_12 C137_12 1_555 1_555
H88_12 C138_12 1_555 1_555
C142_12 C137_12 1_555 1_555
C143_12 C138_12 1_555 1_555
C147_12 C142_12 1_555 1_555
C148_12 C143_12 1_555 1_555
H92_12 C147_12 1_555 1_555
H93_12 C148_12 1_555 1_555
C152_12 N10_12 1_555 1_555
C153_12 C143_12 1_555 1_555
N11_12 Co1_15 1_555 1_555
N13_12 Co3_14 1_555 1_555
N15_12 Co6_4 1_555 1_555
N16_12 Co1_15 1_555 1_555
N17_12 Co3_14 1_555 1_555
N18_12 Co6_4 1_555 1_555
N19_12 C35_12 1_555 1_555
N29_5 C57_12 1_555 1_555
N23_12 Co1_15 1_555 1_555
N24_12 Co1_15 1_555 1_555
N25_12 Co6_4 1_555 1_555
N28_12 Co3_14 1_555 1_555
N30_12 C82_12 1_555 1_555
N31_12 C83_12 1_555 1_555
N32_12 C84_12 1_555 1_555
N33_12 C85_12 1_555 1_555
N35_12 C82_12 1_555 1_555
N36_12 C83_12 1_555 1_555
N37_12 C84_12 1_555 1_555
N38_12 C85_12 1_555 1_555
N40_12 C87_12 1_555 1_555
N41_12 C88_12 1_555 1_555
N42_12 C89_12 1_555 1_555
N43_12 C90_12 1_555 1_555
N45_12 C102_12 1_555 1_555
N46_12 C103_12 1_555 1_555
N47_12 C104_12 1_555 1_555
N48_12 Co14_3 1_555 1_555
N50_12 Co9_12 1_555 1_555
N51_12 Co10_12 1_555 1_555
N52_12 Co14_3 1_555 1_555
N53_12 Co9_12 1_555 1_555
N54_12 Co9_12 1_555 1_555
N55_12 Co10_12 1_555 1_555
N56_12 Co10_12 1_555 1_555
N57_12 C127_12 1_555 1_555
N58_12 C128_12 1_555 1_555
N62_12 Co9_12 1_555 1_555
N63_12 Co9_12 1_555 1_555
N66_12 C152_12 1_555 1_555
N67_12 C26_12 1_555 1_555
C2_12 N2_12 1_555 1_555
C6_12 N2_12 1_555 1_555
C11_12 N3_12 1_555 1_555
C13_12 N4_12 1_555 1_555
C14_12 N5_12 1_555 1_555
C14_12 N6_12 1_555 1_555
C17_12 N7_12 1_555 1_555
C18_12 C19_12 1_555 1_555
C21_12 N9_12 1_555 1_555
C25_12 N9_12 1_555 1_555
C32_12 N16_12 1_555 1_555
C33_12 N17_12 1_555 1_555
C34_12 N18_12 1_555 1_555
C52_12 N16_12 1_555 1_555
C53_12 N17_12 1_555 1_555
C54_12 N18_12 1_555 1_555
C55_12 N19_12 1_555 1_555
C58_12 N23_12 1_555 1_555
C59_12 N24_12 1_555 1_555
C60_12 N25_12 1_555 1_555
C77_12 N29_5 1_555 1_555
C78_12 N23_12 1_555 1_555
C79_12 N24_12 1_555 1_555
C80_12 N25_12 1_555 1_555
C87_12 N30_12 1_555 1_555
C88_12 N31_12 1_555 1_555
C89_12 N32_12 1_555 1_555
C90_12 N33_12 1_555 1_555
C92_12 N35_12 1_555 1_555
C92_12 N40_12 1_555 1_555
C93_12 N36_12 1_555 1_555
C93_12 N41_12 1_555 1_555
C94_12 N37_12 1_555 1_555
C94_12 N42_12 1_555 1_555
C95_12 N38_12 1_555 1_555
C95_12 N43_12 1_555 1_555
C105_12 N48_12 1_555 1_555
C107_12 N45_12 1_555 1_555
C108_12 N46_12 1_555 1_555
C109_12 N47_12 1_555 1_555
C110_12 N48_12 1_555 1_555
C112_12 C117_12 1_555 1_555
C113_12 C118_12 1_555 1_555
C114_12 C119_12 1_555 1_555
C115_12 C120_12 1_555 1_555
C142_12 C152_12 1_555 1_555
C147_12 N57_12 1_555 1_555
C148_12 N58_12 1_555 1_555
C153_12 N66_12 1_555 1_555
C153_12 N67_12 1_555 1_555
Co3_15 N12_12 1_555 1_555
Co8_15 N26_12 1_555 1_555
Co16_12 N49_12 1_555 1_555
S4_12 C28_12 1_555 1_555
C28_12 N12_12 1_555 1_555
C41_12 C36_12 1_555 1_555
H26_12 C41_12 1_555 1_555
C46_12 C41_12 1_555 1_555
H31_12 C46_12 1_555 1_555
C51_12 C46_12 1_555 1_555
C56_12 C51_12 1_555 1_555
H36_12 C56_12 1_555 1_555
C61_12 H41_12 1_555 1_555
C66_12 C61_12 1_555 1_555
H46_12 C66_12 1_555 1_555
C71_12 C66_12 1_555 1_555
H51_12 C71_12 1_555 1_555
C76_12 C71_12 1_555 1_555
C81_12 C76_12 1_555 1_555
H56_12 C81_12 1_555 1_555
C86_12 C76_12 1_555 1_555
C91_12 C51_12 1_555 1_555
C96_12 C101_12 1_555 1_555
C101_12 C106_12 1_555 1_555
C106_12 H61_12 1_555 1_555
C111_12 H66_12 1_555 1_555
C116_12 C111_12 1_555 1_555
H71_12 C116_12 1_555 1_555
C121_12 C101_12 1_555 1_555
H76_12 C121_12 1_555 1_555
N20_12 Co3_15 1_555 1_555
N26_12 C61_12 1_555 1_555
N27_12 Co3_15 1_555 1_555
N34_12 C86_12 1_555 1_555
N39_12 C86_12 1_555 1_555
N44_12 C91_12 1_555 1_555
N49_12 C106_12 1_555 1_555
C36_12 N20_12 1_555 1_555
C56_12 N20_12 1_555 1_555
C81_12 N26_12 1_555 1_555
C91_12 N34_12 1_555 1_555
C96_12 N39_12 1_555 1_555
C96_12 N44_12 1_555 1_555
C111_12 N49_12 1_555 1_555
C116_12 C121_12 1_555 1_555
C21_13 H13_13 1_555 1_555
C22_13 C21_13 1_555 1_555
H14_13 C22_13 1_555 1_555
C23_13 C22_13 1_555 1_555
H15_13 C23_13 1_555 1_555
C24_13 C23_13 1_555 1_555
C25_13 C24_13 1_555 1_555
H16_13 C25_13 1_555 1_555
C26_13 C24_13 1_555 1_555
N10_13 C26_13 1_555 1_555
Co11_9 N57_13 1_555 1_555
Co12_5 N58_13 1_555 1_555
C127_13 H77_13 1_555 1_555
C128_13 H78_13 1_555 1_555
C129_5 H79_5 1_555 1_555
C130_5 H80_5 1_555 1_555
C131_5 H81_5 1_555 1_555
C132_13 C127_13 1_555 1_555
C133_13 C128_13 1_555 1_555
C134_5 C129_5 1_555 1_555
C135_5 C130_5 1_555 1_555
C136_5 C131_5 1_555 1_555
H82_13 C132_13 1_555 1_555
H83_13 C133_13 1_555 1_555
H84_5 C134_5 1_555 1_555
H85_5 C135_5 1_555 1_555
H86_5 C136_5 1_555 1_555
C137_13 C132_13 1_555 1_555
C138_13 C133_13 1_555 1_555
C139_5 C134_5 1_555 1_555
C140_5 C135_5 1_555 1_555
C141_5 C136_5 1_555 1_555
H87_13 C137_13 1_555 1_555
H88_13 C138_13 1_555 1_555
H89_5 C139_5 1_555 1_555
H90_5 C140_5 1_555 1_555
H91_5 C141_5 1_555 1_555
C142_13 C137_13 1_555 1_555
C143_13 C138_13 1_555 1_555
C144_5 C139_5 1_555 1_555
C145_5 C140_5 1_555 1_555
C146_5 C141_5 1_555 1_555
C147_13 C142_13 1_555 1_555
C148_13 C143_13 1_555 1_555
C149_5 C144_5 1_555 1_555
C150_5 C145_5 1_555 1_555
C151_5 C146_5 1_555 1_555
H92_13 C147_13 1_555 1_555
H93_13 C148_13 1_555 1_555
H94_5 C149_5 1_555 1_555
H95_5 C150_5 1_555 1_555
H96_5 C151_5 1_555 1_555
C152_13 N10_13 1_555 1_555
C153_13 C143_13 1_555 1_555
C154_5 C144_5 1_555 1_555
C155_5 C145_5 1_555 1_555
C156_5 C146_5 1_555 1_555
N57_13 C127_13 1_555 1_555
N58_13 C128_13 1_555 1_555
N62_7 C130_5 1_555 1_555
N62_11 C131_5 1_555 1_555
N66_13 C152_13 1_555 1_555
N67_13 C26_13 1_555 1_555
N68_5 C154_5 1_555 1_555
N69_5 C155_5 1_555 1_555
N70_5 C154_5 1_555 1_555
C21_13 N63_3 1_555 1_555
C25_13 N63_3 1_555 1_555
C129_5 N62_3 1_555 1_555
C142_13 C152_13 1_555 1_555
C147_13 N57_13 1_555 1_555
C148_13 N58_13 1_555 1_555
C149_5 N62_3 1_555 1_555
C150_5 N62_7 1_555 1_555
C151_5 N62_11 1_555 1_555
C153_13 N66_13 1_555 1_555
C153_13 N67_13 1_555 1_555
C155_5 N68_5 1_555 1_555
C156_5 N69_5 1_555 1_555
C156_5 N70_5 1_555 1_555
C3_13 C2_13 1_555 1_555
H2_13 C3_13 1_555 1_555
C4_13 C3_13 1_555 1_555
H3_13 C4_13 1_555 1_555
C5_13 C4_13 1_555 1_555
C6_13 C5_13 1_555 1_555
H4_13 C6_13 1_555 1_555
C7_13 H5_13 1_555 1_555
C8_13 C7_13 1_555 1_555
H6_13 C8_13 1_555 1_555
C9_13 C8_13 1_555 1_555
H7_13 C9_13 1_555 1_555
C10_13 C9_13 1_555 1_555
C11_13 C10_13 1_555 1_555
H8_13 C11_13 1_555 1_555
C12_13 C10_13 1_555 1_555
C13_13 C5_13 1_555 1_555
C14_13 C15_13 1_555 1_555
C15_13 C16_13 1_555 1_555
C16_13 H9_13 1_555 1_555
C17_13 H10_13 1_555 1_555
C18_13 C17_13 1_555 1_555
H11_13 C18_13 1_555 1_555
C19_13 C15_13 1_555 1_555
H12_13 C19_13 1_555 1_555
N2_13 Co7_4 1_555 1_555
N28_3 C7_13 1_555 1_555
N4_13 C12_13 1_555 1_555
N5_13 C12_13 1_555 1_555
N6_13 C13_13 1_555 1_555
N50_3 C16_13 1_555 1_555
S3_13 C27_13 1_555 1_555
C27_13 N11_13 1_555 1_555
C39_13 C34_13 1_555 1_555
H24_13 C39_13 1_555 1_555
C44_13 C39_13 1_555 1_555
H29_13 C44_13 1_555 1_555
C49_13 C44_13 1_555 1_555
C54_13 C49_13 1_555 1_555
H34_13 C54_13 1_555 1_555
C59_13 H39_13 1_555 1_555
C64_13 C59_13 1_555 1_555
H44_13 C64_13 1_555 1_555
C69_13 C64_13 1_555 1_555
H49_13 C69_13 1_555 1_555
C74_13 C69_13 1_555 1_555
C79_13 C74_13 1_555 1_555
H54_13 C79_13 1_555 1_555
C84_13 C74_13 1_555 1_555
C89_13 C49_13 1_555 1_555
C94_13 C99_13 1_555 1_555
C99_13 C104_13 1_555 1_555
C104_13 H59_13 1_555 1_555
C109_13 H64_13 1_555 1_555
C114_13 C109_13 1_555 1_555
H69_13 C114_13 1_555 1_555
C119_13 C99_13 1_555 1_555
H74_13 C119_13 1_555 1_555
N11_13 Co7_4 1_555 1_555
N24_13 Co7_4 1_555 1_555
N32_13 C84_13 1_555 1_555
N37_13 C84_13 1_555 1_555
N42_13 C89_13 1_555 1_555
N51_3 C104_13 1_555 1_555
C2_13 N2_13 1_555 1_555
C6_13 N2_13 1_555 1_555
C11_13 N28_3 1_555 1_555
C13_13 N4_13 1_555 1_555
C14_13 N5_13 1_555 1_555
C14_13 N6_13 1_555 1_555
C17_13 N50_3 1_555 1_555
C18_13 C19_13 1_555 1_555
C34_13 N21_12 1_555 1_555
C54_13 N21_12 1_555 1_555
C59_13 N24_13 1_555 1_555
C79_13 N24_13 1_555 1_555
C89_13 N32_13 1_555 1_555
C94_13 N37_13 1_555 1_555
C94_13 N42_13 1_555 1_555
C109_13 N51_3 1_555 1_555
C114_13 C119_13 1_555 1_555
Co7_5 N1_13 1_555 1_555
S1_13 C1_13 1_555 1_555
C1_13 N1_13 1_555 1_555
Co5_5 N12_13 1_555 1_555
Co8_14 N26_13 1_555 1_555
Co13_4 N46_13 1_555 1_555
Co16_13 N49_13 1_555 1_555
S4_13 C28_13 1_555 1_555
S5_13 C29_13 1_555 1_555
C28_13 N12_13 1_555 1_555
C29_13 N13_13 1_555 1_555
C33_13 H18_13 1_555 1_555
C36_13 H21_13 1_555 1_555
C38_13 C33_13 1_555 1_555
C41_13 C36_13 1_555 1_555
H23_13 C38_13 1_555 1_555
H26_13 C41_13 1_555 1_555
C43_13 C38_13 1_555 1_555
C46_13 C41_13 1_555 1_555
H28_13 C43_13 1_555 1_555
H31_13 C46_13 1_555 1_555
C48_13 C43_13 1_555 1_555
C51_13 C46_13 1_555 1_555
C53_13 C48_13 1_555 1_555
C56_13 C51_13 1_555 1_555
H33_13 C53_13 1_555 1_555
H36_13 C56_13 1_555 1_555
C58_13 H38_13 1_555 1_555
C61_13 H41_13 1_555 1_555
C63_13 C58_13 1_555 1_555
C66_13 C61_13 1_555 1_555
H43_13 C63_13 1_555 1_555
H46_13 C66_13 1_555 1_555
C68_13 C63_13 1_555 1_555
C71_13 C66_13 1_555 1_555
H48_13 C68_13 1_555 1_555
H51_13 C71_13 1_555 1_555
C73_13 C68_13 1_555 1_555
C76_13 C71_13 1_555 1_555
C78_13 C73_13 1_555 1_555
C81_13 C76_13 1_555 1_555
H53_13 C78_13 1_555 1_555
H56_13 C81_13 1_555 1_555
C83_13 C73_13 1_555 1_555
C86_13 C76_13 1_555 1_555
C88_13 C48_13 1_555 1_555
C91_13 C51_13 1_555 1_555
C93_13 C98_13 1_555 1_555
C96_13 C101_13 1_555 1_555
C98_13 C103_13 1_555 1_555
C101_13 C106_13 1_555 1_555
C103_13 H58_13 1_555 1_555
C106_13 H61_13 1_555 1_555
C108_13 H63_13 1_555 1_555
C111_13 H66_13 1_555 1_555
C113_13 C108_13 1_555 1_555
C116_13 C111_13 1_555 1_555
H68_13 C113_13 1_555 1_555
H71_13 C116_13 1_555 1_555
C118_13 C98_13 1_555 1_555
C121_13 C101_13 1_555 1_555
H73_13 C118_13 1_555 1_555
H76_13 C121_13 1_555 1_555
N13_13 Co5_5 1_555 1_555
N17_13 Co5_5 1_555 1_555
N20_13 Co5_5 1_555 1_555
N23_13 Co7_5 1_555 1_555
N26_13 C61_13 1_555 1_555
N27_13 Co5_5 1_555 1_555
N31_13 C83_13 1_555 1_555
N34_13 C86_13 1_555 1_555
N36_13 C83_13 1_555 1_555
N39_13 C86_13 1_555 1_555
N41_13 C88_13 1_555 1_555
N44_13 C91_13 1_555 1_555
N46_13 C103_13 1_555 1_555
N49_13 C106_13 1_555 1_555
N55_13 Co13_4 1_555 1_555
N56_13 Co13_4 1_555 1_555
C33_13 N17_13 1_555 1_555
C36_13 N20_13 1_555 1_555
C53_13 N17_13 1_555 1_555
C56_13 N20_13 1_555 1_555
C58_13 N23_13 1_555 1_555
C78_13 N23_13 1_555 1_555
C81_13 N26_13 1_555 1_555
C88_13 N31_13 1_555 1_555
C91_13 N34_13 1_555 1_555
C93_13 N36_13 1_555 1_555
C93_13 N41_13 1_555 1_555
C96_13 N39_13 1_555 1_555
C96_13 N44_13 1_555 1_555
C108_13 N46_13 1_555 1_555
C111_13 N49_13 1_555 1_555
C113_13 C118_13 1_555 1_555
C116_13 C121_13 1_555 1_555
S11_13 C125_13 1_555 1_555
S12_13 C126_13 1_555 1_555
Co5_3 N12_14 1_555 1_555
Co8_11 N26_14 1_555 1_555
Co16_14 N49_14 1_555 1_555
S4_14 C28_14 1_555 1_555
C28_14 N12_14 1_555 1_555
C41_14 C36_14 1_555 1_555
H26_14 C41_14 1_555 1_555
C46_14 C41_14 1_555 1_555
H31_14 C46_14 1_555 1_555
C51_14 C46_14 1_555 1_555
C56_14 C51_14 1_555 1_555
H36_14 C56_14 1_555 1_555
C61_14 H41_14 1_555 1_555
C66_14 C61_14 1_555 1_555
H46_14 C66_14 1_555 1_555
C71_14 C66_14 1_555 1_555
H51_14 C71_14 1_555 1_555
C76_14 C71_14 1_555 1_555
C81_14 C76_14 1_555 1_555
H56_14 C81_14 1_555 1_555
C86_14 C76_14 1_555 1_555
C91_14 C51_14 1_555 1_555
C96_14 C101_14 1_555 1_555
C101_14 C106_14 1_555 1_555
C106_14 H61_14 1_555 1_555
C111_14 H66_14 1_555 1_555
C116_14 C111_14 1_555 1_555
H71_14 C116_14 1_555 1_555
C121_14 C101_14 1_555 1_555
H76_14 C121_14 1_555 1_555
N20_14 Co5_3 1_555 1_555
N26_14 C61_14 1_555 1_555
N27_14 Co5_3 1_555 1_555
N34_14 C86_14 1_555 1_555
N39_14 C86_14 1_555 1_555
N44_14 C91_14 1_555 1_555
N49_14 C106_14 1_555 1_555
C36_14 N20_14 1_555 1_555
C56_14 N20_14 1_555 1_555
C81_14 N26_14 1_555 1_555
C91_14 N34_14 1_555 1_555
C96_14 N39_14 1_555 1_555
C96_14 N44_14 1_555 1_555
C111_14 N49_14 1_555 1_555
C116_14 C121_14 1_555 1_555
Co7_3 N1_14 1_555 1_555
S1_14 C1_14 1_555 1_555
C1_14 N1_14 1_555 1_555
C2_14 H1_14 1_555 1_555
C3_14 C2_14 1_555 1_555
H2_14 C3_14 1_555 1_555
C4_14 C3_14 1_555 1_555
H3_14 C4_14 1_555 1_555
C5_14 C4_14 1_555 1_555
C6_14 C5_14 1_555 1_555
H4_14 C6_14 1_555 1_555
C7_14 H5_14 1_555 1_555
C8_14 C7_14 1_555 1_555
H6_14 C8_14 1_555 1_555
C9_14 C8_14 1_555 1_555
H7_14 C9_14 1_555 1_555
C10_14 C9_14 1_555 1_555
C11_14 C10_14 1_555 1_555
H8_14 C11_14 1_555 1_555
C12_14 C10_14 1_555 1_555
C13_14 C5_14 1_555 1_555
C14_14 C15_14 1_555 1_555
C15_14 C16_14 1_555 1_555
C16_14 H9_14 1_555 1_555
C17_14 H10_14 1_555 1_555
C18_14 C17_14 1_555 1_555
H11_14 C18_14 1_555 1_555
C19_14 C15_14 1_555 1_555
H12_14 C19_14 1_555 1_555
C21_14 H13_14 1_555 1_555
C22_14 C21_14 1_555 1_555
H14_14 C22_14 1_555 1_555
C23_14 C22_14 1_555 1_555
H15_14 C23_14 1_555 1_555
C24_14 C23_14 1_555 1_555
C25_14 C24_14 1_555 1_555
H16_14 C25_14 1_555 1_555
C26_14 C24_14 1_555 1_555
N2_14 Co7_3 1_555 1_555
N28_4 C7_14 1_555 1_555
N4_14 C12_14 1_555 1_555
N5_14 C12_14 1_555 1_555
N6_14 C13_14 1_555 1_555
N50_4 C16_14 1_555 1_555
N10_14 C26_14 1_555 1_555
Co13_3 N46_14 1_555 1_555
Co11_10 N57_14 1_555 1_555
S3_14 C27_14 1_555 1_555
S5_14 C29_14 1_555 1_555
S11_14 C125_14 1_555 1_555
S12_14 C126_14 1_555 1_555
C27_14 N11_14 1_555 1_555
C29_14 N13_14 1_555 1_555
C34_14 H19_14 1_555 1_555
C38_14 C33_14 1_555 1_555
C39_14 C34_14 1_555 1_555
H23_14 C38_14 1_555 1_555
H24_14 C39_14 1_555 1_555
C43_14 C38_14 1_555 1_555
C44_14 C39_14 1_555 1_555
H28_14 C43_14 1_555 1_555
H29_14 C44_14 1_555 1_555
C48_14 C43_14 1_555 1_555
C49_14 C44_14 1_555 1_555
C53_14 C48_14 1_555 1_555
C54_14 C49_14 1_555 1_555
H33_14 C53_14 1_555 1_555
H34_14 C54_14 1_555 1_555
C58_14 H38_14 1_555 1_555
C59_14 H39_14 1_555 1_555
C63_14 C58_14 1_555 1_555
C64_14 C59_14 1_555 1_555
H43_14 C63_14 1_555 1_555
H44_14 C64_14 1_555 1_555
C68_14 C63_14 1_555 1_555
C69_14 C64_14 1_555 1_555
H48_14 C68_14 1_555 1_555
H49_14 C69_14 1_555 1_555
C73_14 C68_14 1_555 1_555
C74_14 C69_14 1_555 1_555
C78_14 C73_14 1_555 1_555
C79_14 C74_14 1_555 1_555
H53_14 C78_14 1_555 1_555
H54_14 C79_14 1_555 1_555
C83_14 C73_14 1_555 1_555
C84_14 C74_14 1_555 1_555
C88_14 C48_14 1_555 1_555
C89_14 C49_14 1_555 1_555
C93_14 C98_14 1_555 1_555
C94_14 C99_14 1_555 1_555
C98_14 C103_14 1_555 1_555
C99_14 C104_14 1_555 1_555
C103_14 H58_14 1_555 1_555
C104_14 H59_14 1_555 1_555
C108_14 H63_14 1_555 1_555
C109_14 H64_14 1_555 1_555
C113_14 C108_14 1_555 1_555
C114_14 C109_14 1_555 1_555
H68_14 C113_14 1_555 1_555
H69_14 C114_14 1_555 1_555
C118_14 C98_14 1_555 1_555
C119_14 C99_14 1_555 1_555
H73_14 C118_14 1_555 1_555
H74_14 C119_14 1_555 1_555
C125_14 N55_14 1_555 1_555
C126_14 N56_14 1_555 1_555
C127_14 H77_14 1_555 1_555
C128_14 H78_14 1_555 1_555
C129_6 H79_6 1_555 1_555
C130_6 H80_6 1_555 1_555
C131_6 H81_6 1_555 1_555
C132_14 C127_14 1_555 1_555
C133_14 C128_14 1_555 1_555
C134_6 C129_6 1_555 1_555
C135_6 C130_6 1_555 1_555
C136_6 C131_6 1_555 1_555
H82_14 C132_14 1_555 1_555
H83_14 C133_14 1_555 1_555
H84_6 C134_6 1_555 1_555
H85_6 C135_6 1_555 1_555
H86_6 C136_6 1_555 1_555
C137_14 C132_14 1_555 1_555
C138_14 C133_14 1_555 1_555
C139_6 C134_6 1_555 1_555
C140_6 C135_6 1_555 1_555
C141_6 C136_6 1_555 1_555
H87_14 C137_14 1_555 1_555
H88_14 C138_14 1_555 1_555
H89_6 C139_6 1_555 1_555
H90_6 C140_6 1_555 1_555
H91_6 C141_6 1_555 1_555
C142_14 C137_14 1_555 1_555
C143_14 C138_14 1_555 1_555
C144_6 C139_6 1_555 1_555
C145_6 C140_6 1_555 1_555
C146_6 C141_6 1_555 1_555
C147_14 C142_14 1_555 1_555
C148_14 C143_14 1_555 1_555
C149_6 C144_6 1_555 1_555
C150_6 C145_6 1_555 1_555
C151_6 C146_6 1_555 1_555
H92_14 C147_14 1_555 1_555
H93_14 C148_14 1_555 1_555
H94_6 C149_6 1_555 1_555
H95_6 C150_6 1_555 1_555
H96_6 C151_6 1_555 1_555
C152_14 N10_14 1_555 1_555
C153_14 C143_14 1_555 1_555
C154_6 C144_6 1_555 1_555
C155_6 C145_6 1_555 1_555
C156_6 C146_6 1_555 1_555
N11_14 Co7_3 1_555 1_555
N13_14 Co5_4 1_555 1_555
N17_14 Co5_4 1_555 1_555
N23_14 Co7_3 1_555 1_555
N24_14 Co7_3 1_555 1_555
N31_14 C83_14 1_555 1_555
N32_14 C84_14 1_555 1_555
N36_14 C83_14 1_555 1_555
N37_14 C84_14 1_555 1_555
N41_14 C88_14 1_555 1_555
N42_14 C89_14 1_555 1_555
N46_14 C103_14 1_555 1_555
N51_4 C104_14 1_555 1_555
N55_14 Co13_3 1_555 1_555
N56_14 Co13_3 1_555 1_555
N57_14 C127_14 1_555 1_555
N58_14 C128_14 1_555 1_555
N62_5 C130_6 1_555 1_555
N62_10 C131_6 1_555 1_555
N64_14 Co13_3 1_555 1_555
N65_14 Co13_3 1_555 1_555
N66_14 C152_14 1_555 1_555
N67_14 C26_14 1_555 1_555
N68_6 C154_6 1_555 1_555
N69_6 C155_6 1_555 1_555
N70_6 C154_6 1_555 1_555
C2_14 N2_14 1_555 1_555
C6_14 N2_14 1_555 1_555
C11_14 N28_4 1_555 1_555
C13_14 N4_14 1_555 1_555
C14_14 N5_14 1_555 1_555
C14_14 N6_14 1_555 1_555
C17_14 N50_4 1_555 1_555
C18_14 C19_14 1_555 1_555
C21_14 N63_4 1_555 1_555
C25_14 N63_4 1_555 1_555
C33_14 N17_14 1_555 1_555
C34_14 N21_9 1_555 1_555
C53_14 N17_14 1_555 1_555
C54_14 N21_9 1_555 1_555
C58_14 N23_14 1_555 1_555
C59_14 N24_14 1_555 1_555
C78_14 N23_14 1_555 1_555
C79_14 N24_14 1_555 1_555
C88_14 N31_14 1_555 1_555
C89_14 N32_14 1_555 1_555
C93_14 N36_14 1_555 1_555
C93_14 N41_14 1_555 1_555
C94_14 N37_14 1_555 1_555
C94_14 N42_14 1_555 1_555
C108_14 N46_14 1_555 1_555
C109_14 N51_4 1_555 1_555
C113_14 C118_14 1_555 1_555
C114_14 C119_14 1_555 1_555
C129_6 N62_4 1_555 1_555
C142_14 C152_14 1_555 1_555
C147_14 N57_14 1_555 1_555
C148_14 N58_14 1_555 1_555
C149_6 N62_4 1_555 1_555
C150_6 N62_5 1_555 1_555
C151_6 N62_10 1_555 1_555
C153_14 N66_14 1_555 1_555
C153_14 N67_14 1_555 1_555
C155_6 N68_6 1_555 1_555
C156_6 N69_6 1_555 1_555
C156_6 N70_6 1_555 1_555
Co7 N1_15 1_555 1_555
S1_15 C1_15 1_555 1_555
C1_15 N1_15 1_555 1_555
C2_15 H1_15 1_555 1_555
C3_15 C2_15 1_555 1_555
H2_15 C3_15 1_555 1_555
C4_15 C3_15 1_555 1_555
H3_15 C4_15 1_555 1_555
C5_15 C4_15 1_555 1_555
C6_15 C5_15 1_555 1_555
H4_15 C6_15 1_555 1_555
C7_15 H5_15 1_555 1_555
C8_15 C7_15 1_555 1_555
H6_15 C8_15 1_555 1_555
C9_15 C8_15 1_555 1_555
H7_15 C9_15 1_555 1_555
C10_15 C9_15 1_555 1_555
C11_15 C10_15 1_555 1_555
H8_15 C11_15 1_555 1_555
C12_15 C10_15 1_555 1_555
C13_15 C5_15 1_555 1_555
C14_15 C15_15 1_555 1_555
C15_15 C16_15 1_555 1_555
C16_15 H9_15 1_555 1_555
C17_15 H10_15 1_555 1_555
C18_15 C17_15 1_555 1_555
H11_15 C18_15 1_555 1_555
C19_15 C15_15 1_555 1_555
H12_15 C19_15 1_555 1_555
C21_15 H13_15 1_555 1_555
C22_15 C21_15 1_555 1_555
H14_15 C22_15 1_555 1_555
C23_15 C22_15 1_555 1_555
H15_15 C23_15 1_555 1_555
C24_15 C23_15 1_555 1_555
C25_15 C24_15 1_555 1_555
H16_15 C25_15 1_555 1_555
C26_15 C24_15 1_555 1_555
N2_15 Co7 1_555 1_555
N28_2 C7_15 1_555 1_555
N4_15 C12_15 1_555 1_555
N5_15 C12_15 1_555 1_555
N6_15 C13_15 1_555 1_555
N50_2 C16_15 1_555 1_555
N10_15 C26_15 1_555 1_555
Co5 N12_15 1_555 1_555
Co8_12 N26_15 1_555 1_555
Co13 N46_15 1_555 1_555
Co11_11 N57_15 1_555 1_555
Co12_7 N58_15 1_555 1_555
Co16_15 N49_15 1_555 1_555
S3_15 C27_15 1_555 1_555
S4_15 C28_15 1_555 1_555
S5_15 C29_15 1_555 1_555
S11_15 C125_15 1_555 1_555
S12_15 C126_15 1_555 1_555
C27_15 N11_15 1_555 1_555
C28_15 N12_15 1_555 1_555
C29_15 N13_15 1_555 1_555
C33_15 H18_15 1_555 1_555
C34_15 H19_15 1_555 1_555
C36_15 H21_15 1_555 1_555
C38_15 C33_15 1_555 1_555
C39_15 C34_15 1_555 1_555
C41_15 C36_15 1_555 1_555
H23_15 C38_15 1_555 1_555
H24_15 C39_15 1_555 1_555
H26_15 C41_15 1_555 1_555
C43_15 C38_15 1_555 1_555
C44_15 C39_15 1_555 1_555
C46_15 C41_15 1_555 1_555
H28_15 C43_15 1_555 1_555
H29_15 C44_15 1_555 1_555
H31_15 C46_15 1_555 1_555
C48_15 C43_15 1_555 1_555
C49_15 C44_15 1_555 1_555
C51_15 C46_15 1_555 1_555
C53_15 C48_15 1_555 1_555
C54_15 C49_15 1_555 1_555
C56_15 C51_15 1_555 1_555
H33_15 C53_15 1_555 1_555
H34_15 C54_15 1_555 1_555
H36_15 C56_15 1_555 1_555
C58_15 H38_15 1_555 1_555
C59_15 H39_15 1_555 1_555
C61_15 H41_15 1_555 1_555
C63_15 C58_15 1_555 1_555
C64_15 C59_15 1_555 1_555
C66_15 C61_15 1_555 1_555
H43_15 C63_15 1_555 1_555
H44_15 C64_15 1_555 1_555
H46_15 C66_15 1_555 1_555
C68_15 C63_15 1_555 1_555
C69_15 C64_15 1_555 1_555
C71_15 C66_15 1_555 1_555
H48_15 C68_15 1_555 1_555
H49_15 C69_15 1_555 1_555
H51_15 C71_15 1_555 1_555
C73_15 C68_15 1_555 1_555
C74_15 C69_15 1_555 1_555
C76_15 C71_15 1_555 1_555
C78_15 C73_15 1_555 1_555
C79_15 C74_15 1_555 1_555
C81_15 C76_15 1_555 1_555
H53_15 C78_15 1_555 1_555
H54_15 C79_15 1_555 1_555
H56_15 C81_15 1_555 1_555
C83_15 C73_15 1_555 1_555
C84_15 C74_15 1_555 1_555
C86_15 C76_15 1_555 1_555
C88_15 C48_15 1_555 1_555
C89_15 C49_15 1_555 1_555
C91_15 C51_15 1_555 1_555
C93_15 C98_15 1_555 1_555
C94_15 C99_15 1_555 1_555
C96_15 C101_15 1_555 1_555
C98_15 C103_15 1_555 1_555
C99_15 C104_15 1_555 1_555
C101_15 C106_15 1_555 1_555
C103_15 H58_15 1_555 1_555
C104_15 H59_15 1_555 1_555
C106_15 H61_15 1_555 1_555
C108_15 H63_15 1_555 1_555
C109_15 H64_15 1_555 1_555
C111_15 H66_15 1_555 1_555
C113_15 C108_15 1_555 1_555
C114_15 C109_15 1_555 1_555
C116_15 C111_15 1_555 1_555
H68_15 C113_15 1_555 1_555
H69_15 C114_15 1_555 1_555
H71_15 C116_15 1_555 1_555
C118_15 C98_15 1_555 1_555
C119_15 C99_15 1_555 1_555
C121_15 C101_15 1_555 1_555
H73_15 C118_15 1_555 1_555
H74_15 C119_15 1_555 1_555
H76_15 C121_15 1_555 1_555
C125_15 N55_15 1_555 1_555
C126_15 N56_15 1_555 1_555
C127_15 H77_15 1_555 1_555
C128_15 H78_15 1_555 1_555
C129_7 H79_7 1_555 1_555
C130_7 H80_7 1_555 1_555
C131_7 H81_7 1_555 1_555
C132_15 C127_15 1_555 1_555
C133_15 C128_15 1_555 1_555
C134_7 C129_7 1_555 1_555
C135_7 C130_7 1_555 1_555
C136_7 C131_7 1_555 1_555
H82_15 C132_15 1_555 1_555
H83_15 C133_15 1_555 1_555
H84_7 C134_7 1_555 1_555
H85_7 C135_7 1_555 1_555
H86_7 C136_7 1_555 1_555
C137_15 C132_15 1_555 1_555
C138_15 C133_15 1_555 1_555
C139_7 C134_7 1_555 1_555
C140_7 C135_7 1_555 1_555
C141_7 C136_7 1_555 1_555
H87_15 C137_15 1_555 1_555
H88_15 C138_15 1_555 1_555
H89_7 C139_7 1_555 1_555
H90_7 C140_7 1_555 1_555
H91_7 C141_7 1_555 1_555
C142_15 C137_15 1_555 1_555
C143_15 C138_15 1_555 1_555
C144_7 C139_7 1_555 1_555
C145_7 C140_7 1_555 1_555
C146_7 C141_7 1_555 1_555
C147_15 C142_15 1_555 1_555
C148_15 C143_15 1_555 1_555
C149_7 C144_7 1_555 1_555
C150_7 C145_7 1_555 1_555
C151_7 C146_7 1_555 1_555
H92_15 C147_15 1_555 1_555
H93_15 C148_15 1_555 1_555
H94_7 C149_7 1_555 1_555
H95_7 C150_7 1_555 1_555
H96_7 C151_7 1_555 1_555
C152_15 N10_15 1_555 1_555
C153_15 C143_15 1_555 1_555
C154_7 C144_7 1_555 1_555
C155_7 C145_7 1_555 1_555
C156_7 C146_7 1_555 1_555
N11_15 Co7 1_555 1_555
N13_15 Co5 1_555 1_555
N17_15 Co5 1_555 1_555
N20_15 Co5 1_555 1_555
N23_15 Co7 1_555 1_555
N24_15 Co7 1_555 1_555
N26_15 C61_15 1_555 1_555
N27_15 Co5 1_555 1_555
N31_15 C83_15 1_555 1_555
N32_15 C84_15 1_555 1_555
N34_15 C86_15 1_555 1_555
N36_15 C83_15 1_555 1_555
N37_15 C84_15 1_555 1_555
N39_15 C86_15 1_555 1_555
N41_15 C88_15 1_555 1_555
N42_15 C89_15 1_555 1_555
N44_15 C91_15 1_555 1_555
N46_15 C103_15 1_555 1_555
N51_2 C104_15 1_555 1_555
N49_15 C106_15 1_555 1_555
N55_15 Co13 1_555 1_555
N56_15 Co13 1_555 1_555
N57_15 C127_15 1_555 1_555
N58_15 C128_15 1_555 1_555
N62_8 C130_7 1_555 1_555
N62_9 C131_7 1_555 1_555
N64_15 Co13 1_555 1_555
N65_15 Co13 1_555 1_555
N66_15 C152_15 1_555 1_555
N67_15 C26_15 1_555 1_555
N68_7 C154_7 1_555 1_555
N69_7 C155_7 1_555 1_555
N70_7 C154_7 1_555 1_555
C2_15 N2_15 1_555 1_555
C6_15 N2_15 1_555 1_555
C11_15 N28_2 1_555 1_555
C13_15 N4_15 1_555 1_555
C14_15 N5_15 1_555 1_555
C14_15 N6_15 1_555 1_555
C17_15 N50_2 1_555 1_555
C18_15 C19_15 1_555 1_555
C21_15 N63_2 1_555 1_555
C25_15 N63_2 1_555 1_555
C33_15 N17_15 1_555 1_555
C34_15 N21_10 1_555 1_555
C36_15 N20_15 1_555 1_555
C53_15 N17_15 1_555 1_555
C54_15 N21_10 1_555 1_555
C56_15 N20_15 1_555 1_555
C58_15 N23_15 1_555 1_555
C59_15 N24_15 1_555 1_555
C78_15 N23_15 1_555 1_555
C79_15 N24_15 1_555 1_555
C81_15 N26_15 1_555 1_555
C88_15 N31_15 1_555 1_555
C89_15 N32_15 1_555 1_555
C91_15 N34_15 1_555 1_555
C93_15 N36_15 1_555 1_555
C93_15 N41_15 1_555 1_555
C94_15 N37_15 1_555 1_555
C94_15 N42_15 1_555 1_555
C96_15 N39_15 1_555 1_555
C96_15 N44_15 1_555 1_555
C108_15 N46_15 1_555 1_555
C109_15 N51_2 1_555 1_555
C111_15 N49_15 1_555 1_555
C113_15 C118_15 1_555 1_555
C114_15 C119_15 1_555 1_555
C116_15 C121_15 1_555 1_555
C129_7 N62_2 1_555 1_555
C142_15 C152_15 1_555 1_555
C147_15 N57_15 1_555 1_555
C148_15 N58_15 1_555 1_555
C149_7 N62_2 1_555 1_555
C150_7 N62_8 1_555 1_555
C151_7 N62_9 1_555 1_555
C153_15 N66_15 1_555 1_555
C153_15 N67_15 1_555 1_555
C155_7 N68_7 1_555 1_555
C156_7 N69_7 1_555 1_555
C156_7 N70_7 1_555 1_555
Co7_2 N1_16 1_555 1_555
S1_16 C1_16 1_555 1_555
C1_16 N1_16 1_555 1_555
C2_16 H1_16 1_555 1_555
C3_16 C2_16 1_555 1_555
H2_16 C3_16 1_555 1_555
C4_16 C3_16 1_555 1_555
H3_16 C4_16 1_555 1_555
C5_16 C4_16 1_555 1_555
C6_16 C5_16 1_555 1_555
H4_16 C6_16 1_555 1_555
C7_16 H5_16 1_555 1_555
C8_16 C7_16 1_555 1_555
H6_16 C8_16 1_555 1_555
C9_16 C8_16 1_555 1_555
H7_16 C9_16 1_555 1_555
C10_16 C9_16 1_555 1_555
C11_16 C10_16 1_555 1_555
H8_16 C11_16 1_555 1_555
C12_16 C10_16 1_555 1_555
C13_16 C5_16 1_555 1_555
C14_16 C15_16 1_555 1_555
C15_16 C16_16 1_555 1_555
C16_16 H9_16 1_555 1_555
C17_16 H10_16 1_555 1_555
C18_16 C17_16 1_555 1_555
H11_16 C18_16 1_555 1_555
C19_16 C15_16 1_555 1_555
H12_16 C19_16 1_555 1_555
C21_16 H13_16 1_555 1_555
C22_16 C21_16 1_555 1_555
H14_16 C22_16 1_555 1_555
C23_16 C22_16 1_555 1_555
H15_16 C23_16 1_555 1_555
C24_16 C23_16 1_555 1_555
C25_16 C24_16 1_555 1_555
H16_16 C25_16 1_555 1_555
C26_16 C24_16 1_555 1_555
N2_16 Co7_2 1_555 1_555
N28 C7_16 1_555 1_555
N4_16 C12_16 1_555 1_555
N5_16 C12_16 1_555 1_555
N6_16 C13_16 1_555 1_555
N50 C16_16 1_555 1_555
N10_16 C26_16 1_555 1_555
Co5_2 N12_16 1_555 1_555
Co8_13 N26_16 1_555 1_555
Co13_2 N46_16 1_555 1_555
Co12_8 N58_16 1_555 1_555
Co16_16 N49_16 1_555 1_555
S3_16 C27_16 1_555 1_555
S4_16 C28_16 1_555 1_555
S5_16 C29_16 1_555 1_555
S11_16 C125_16 1_555 1_555
S12_16 C126_16 1_555 1_555
C27_16 N11_16 1_555 1_555
C28_16 N12_16 1_555 1_555
C29_16 N13_16 1_555 1_555
C33_16 H18_16 1_555 1_555
C34_16 H19_16 1_555 1_555
C36_16 H21_16 1_555 1_555
C38_16 C33_16 1_555 1_555
C39_16 C34_16 1_555 1_555
C41_16 C36_16 1_555 1_555
H23_16 C38_16 1_555 1_555
H24_16 C39_16 1_555 1_555
H26_16 C41_16 1_555 1_555
C43_16 C38_16 1_555 1_555
C44_16 C39_16 1_555 1_555
C46_16 C41_16 1_555 1_555
H28_16 C43_16 1_555 1_555
H29_16 C44_16 1_555 1_555
H31_16 C46_16 1_555 1_555
C48_16 C43_16 1_555 1_555
C49_16 C44_16 1_555 1_555
C51_16 C46_16 1_555 1_555
C53_16 C48_16 1_555 1_555
C54_16 C49_16 1_555 1_555
C56_16 C51_16 1_555 1_555
H33_16 C53_16 1_555 1_555
H34_16 C54_16 1_555 1_555
H36_16 C56_16 1_555 1_555
C58_16 H38_16 1_555 1_555
C59_16 H39_16 1_555 1_555
C61_16 H41_16 1_555 1_555
C63_16 C58_16 1_555 1_555
C64_16 C59_16 1_555 1_555
C66_16 C61_16 1_555 1_555
H43_16 C63_16 1_555 1_555
H44_16 C64_16 1_555 1_555
H46_16 C66_16 1_555 1_555
C68_16 C63_16 1_555 1_555
C69_16 C64_16 1_555 1_555
C71_16 C66_16 1_555 1_555
H48_16 C68_16 1_555 1_555
H49_16 C69_16 1_555 1_555
H51_16 C71_16 1_555 1_555
C73_16 C68_16 1_555 1_555
C74_16 C69_16 1_555 1_555
C76_16 C71_16 1_555 1_555
C78_16 C73_16 1_555 1_555
C79_16 C74_16 1_555 1_555
C81_16 C76_16 1_555 1_555
H53_16 C78_16 1_555 1_555
H54_16 C79_16 1_555 1_555
H56_16 C81_16 1_555 1_555
C83_16 C73_16 1_555 1_555
C84_16 C74_16 1_555 1_555
C86_16 C76_16 1_555 1_555
C88_16 C48_16 1_555 1_555
C89_16 C49_16 1_555 1_555
C91_16 C51_16 1_555 1_555
C93_16 C98_16 1_555 1_555
C94_16 C99_16 1_555 1_555
C96_16 C101_16 1_555 1_555
C98_16 C103_16 1_555 1_555
C99_16 C104_16 1_555 1_555
C101_16 C106_16 1_555 1_555
C103_16 H58_16 1_555 1_555
C104_16 H59_16 1_555 1_555
C106_16 H61_16 1_555 1_555
C108_16 H63_16 1_555 1_555
C109_16 H64_16 1_555 1_555
C111_16 H66_16 1_555 1_555
C113_16 C108_16 1_555 1_555
C114_16 C109_16 1_555 1_555
C116_16 C111_16 1_555 1_555
H68_16 C113_16 1_555 1_555
H69_16 C114_16 1_555 1_555
H71_16 C116_16 1_555 1_555
C118_16 C98_16 1_555 1_555
C119_16 C99_16 1_555 1_555
C121_16 C101_16 1_555 1_555
H73_16 C118_16 1_555 1_555
H74_16 C119_16 1_555 1_555
H76_16 C121_16 1_555 1_555
C125_16 N55_16 1_555 1_555
C126_16 N56_16 1_555 1_555
C127_16 H77_16 1_555 1_555
C128_16 H78_16 1_555 1_555
C129_8 H79_8 1_555 1_555
C130_8 H80_8 1_555 1_555
C131_8 H81_8 1_555 1_555
C132_16 C127_16 1_555 1_555
C133_16 C128_16 1_555 1_555
C134_8 C129_8 1_555 1_555
C135_8 C130_8 1_555 1_555
C136_8 C131_8 1_555 1_555
H82_16 C132_16 1_555 1_555
H83_16 C133_16 1_555 1_555
H84_8 C134_8 1_555 1_555
H85_8 C135_8 1_555 1_555
H86_8 C136_8 1_555 1_555
C137_16 C132_16 1_555 1_555
C138_16 C133_16 1_555 1_555
C139_8 C134_8 1_555 1_555
C140_8 C135_8 1_555 1_555
C141_8 C136_8 1_555 1_555
H87_16 C137_16 1_555 1_555
H88_16 C138_16 1_555 1_555
H89_8 C139_8 1_555 1_555
H90_8 C140_8 1_555 1_555
H91_8 C141_8 1_555 1_555
C142_16 C137_16 1_555 1_555
C143_16 C138_16 1_555 1_555
C144_8 C139_8 1_555 1_555
C145_8 C140_8 1_555 1_555
C146_8 C141_8 1_555 1_555
C147_16 C142_16 1_555 1_555
C148_16 C143_16 1_555 1_555
C149_8 C144_8 1_555 1_555
C150_8 C145_8 1_555 1_555
C151_8 C146_8 1_555 1_555
H92_16 C147_16 1_555 1_555
H93_16 C148_16 1_555 1_555
H94_8 C149_8 1_555 1_555
H95_8 C150_8 1_555 1_555
H96_8 C151_8 1_555 1_555
C152_16 N10_16 1_555 1_555
C153_16 C143_16 1_555 1_555
C154_8 C144_8 1_555 1_555
C155_8 C145_8 1_555 1_555
C156_8 C146_8 1_555 1_555
N11_16 Co7_2 1_555 1_555
N13_16 Co5_2 1_555 1_555
N17_16 Co5_2 1_555 1_555
N20_16 Co5_2 1_555 1_555
N23_16 Co7_2 1_555 1_555
N24_16 Co7_2 1_555 1_555
N26_16 C61_16 1_555 1_555
N27_16 Co5_2 1_555 1_555
N31_16 C83_16 1_555 1_555
N32_16 C84_16 1_555 1_555
N34_16 C86_16 1_555 1_555
N36_16 C83_16 1_555 1_555
N37_16 C84_16 1_555 1_555
N39_16 C86_16 1_555 1_555
N41_16 C88_16 1_555 1_555
N42_16 C89_16 1_555 1_555
N44_16 C91_16 1_555 1_555
N46_16 C103_16 1_555 1_555
N51 C104_16 1_555 1_555
N49_16 C106_16 1_555 1_555
N55_16 Co13_2 1_555 1_555
N56_16 Co13_2 1_555 1_555
N57_16 C127_16 1_555 1_555
N58_16 C128_16 1_555 1_555
N62_6 C130_8 1_555 1_555
N62_12 C131_8 1_555 1_555
N64_16 Co13_2 1_555 1_555
N65_16 Co13_2 1_555 1_555
N66_16 C152_16 1_555 1_555
N67_16 C26_16 1_555 1_555
N68_8 C154_8 1_555 1_555
N69_8 C155_8 1_555 1_555
N70_8 C154_8 1_555 1_555
C2_16 N2_16 1_555 1_555
C6_16 N2_16 1_555 1_555
C11_16 N28 1_555 1_555
C13_16 N4_16 1_555 1_555
C14_16 N5_16 1_555 1_555
C14_16 N6_16 1_555 1_555
C17_16 N50 1_555 1_555
C18_16 C19_16 1_555 1_555
C21_16 N63 1_555 1_555
C25_16 N63 1_555 1_555
C33_16 N17_16 1_555 1_555
C34_16 N21_11 1_555 1_555
C36_16 N20_16 1_555 1_555
C53_16 N17_16 1_555 1_555
C54_16 N21_11 1_555 1_555
C56_16 N20_16 1_555 1_555
C58_16 N23_16 1_555 1_555
C59_16 N24_16 1_555 1_555
C78_16 N23_16 1_555 1_555
C79_16 N24_16 1_555 1_555
C81_16 N26_16 1_555 1_555
C88_16 N31_16 1_555 1_555
C89_16 N32_16 1_555 1_555
C91_16 N34_16 1_555 1_555
C93_16 N36_16 1_555 1_555
C93_16 N41_16 1_555 1_555
C94_16 N37_16 1_555 1_555
C94_16 N42_16 1_555 1_555
C96_16 N39_16 1_555 1_555
C96_16 N44_16 1_555 1_555
C108_16 N46_16 1_555 1_555
C109_16 N51 1_555 1_555
C111_16 N49_16 1_555 1_555
C113_16 C118_16 1_555 1_555
C114_16 C119_16 1_555 1_555
C116_16 C121_16 1_555 1_555
C129_8 N62 1_555 1_555
C142_16 C152_16 1_555 1_555
C147_16 N57_16 1_555 1_555
C148_16 N58_16 1_555 1_555
C149_8 N62 1_555 1_555
C150_8 N62_6 1_555 1_555
C151_8 N62_12 1_555 1_555
C153_16 N66_16 1_555 1_555
C153_16 N67_16 1_555 1_555
C155_8 N68_8 1_555 1_555
C156_8 N69_8 1_555 1_555
C156_8 N70_8 1_555 1_555
Co7_12 N1_17 1_555 1_555
S1_17 C1_17 1_555 1_555
C1_17 N1_17 1_555 1_555
C2_17 H1_17 1_555 1_555
C3_17 C2_17 1_555 1_555
H2_17 C3_17 1_555 1_555
C4_17 C3_17 1_555 1_555
H3_17 C4_17 1_555 1_555
C5_17 C4_17 1_555 1_555
C6_17 C5_17 1_555 1_555
H4_17 C6_17 1_555 1_555
C7_17 H5_17 1_555 1_555
C8_17 C7_17 1_555 1_555
H6_17 C8_17 1_555 1_555
C9_17 C8_17 1_555 1_555
H7_17 C9_17 1_555 1_555
C10_17 C9_17 1_555 1_555
C11_17 C10_17 1_555 1_555
H8_17 C11_17 1_555 1_555
C12_17 C10_17 1_555 1_555
C13_17 C5_17 1_555 1_555
C14_17 C15_17 1_555 1_555
C15_17 C16_17 1_555 1_555
C16_17 H9_17 1_555 1_555
C17_17 H10_17 1_555 1_555
C18_17 C17_17 1_555 1_555
H11_17 C18_17 1_555 1_555
C19_17 C15_17 1_555 1_555
H12_17 C19_17 1_555 1_555
C21_17 H13_17 1_555 1_555
C22_17 C21_17 1_555 1_555
H14_17 C22_17 1_555 1_555
C23_17 C22_17 1_555 1_555
H15_17 C23_17 1_555 1_555
C24_17 C23_17 1_555 1_555
C25_17 C24_17 1_555 1_555
H16_17 C25_17 1_555 1_555
C26_17 C24_17 1_555 1_555
N2_17 Co7_12 1_555 1_555
N28_9 C7_17 1_555 1_555
N4_17 C12_17 1_555 1_555
N5_17 C12_17 1_555 1_555
N6_17 C13_17 1_555 1_555
N50_9 C16_17 1_555 1_555
N10_17 C26_17 1_555 1_555
Co5_12 N12_17 1_555 1_555
Co8_8 N26_17 1_555 1_555
Co13_10 N46_17 1_555 1_555
Co11_11 N58_17 1_555 1_555
Co16_17 N49_17 1_555 1_555
S3_17 C27_17 1_555 1_555
S4_17 C28_17 1_555 1_555
S5_17 C29_17 1_555 1_555
S11_17 C125_17 1_555 1_555
S12_17 C126_17 1_555 1_555
C27_17 N11_17 1_555 1_555
C28_17 N12_17 1_555 1_555
C29_17 N13_17 1_555 1_555
C33_17 H18_17 1_555 1_555
C34_17 H19_17 1_555 1_555
C36_17 H21_17 1_555 1_555
C38_17 C33_17 1_555 1_555
C39_17 C34_17 1_555 1_555
C41_17 C36_17 1_555 1_555
H23_17 C38_17 1_555 1_555
H24_17 C39_17 1_555 1_555
H26_17 C41_17 1_555 1_555
C43_17 C38_17 1_555 1_555
C44_17 C39_17 1_555 1_555
C46_17 C41_17 1_555 1_555
H28_17 C43_17 1_555 1_555
H29_17 C44_17 1_555 1_555
H31_17 C46_17 1_555 1_555
C48_17 C43_17 1_555 1_555
C49_17 C44_17 1_555 1_555
C51_17 C46_17 1_555 1_555
C53_17 C48_17 1_555 1_555
C54_17 C49_17 1_555 1_555
C56_17 C51_17 1_555 1_555
H33_17 C53_17 1_555 1_555
H34_17 C54_17 1_555 1_555
H36_17 C56_17 1_555 1_555
C58_17 H38_17 1_555 1_555
C59_17 H39_17 1_555 1_555
C61_17 H41_17 1_555 1_555
C63_17 C58_17 1_555 1_555
C64_17 C59_17 1_555 1_555
C66_17 C61_17 1_555 1_555
H43_17 C63_17 1_555 1_555
H44_17 C64_17 1_555 1_555
H46_17 C66_17 1_555 1_555
C68_17 C63_17 1_555 1_555
C69_17 C64_17 1_555 1_555
C71_17 C66_17 1_555 1_555
H48_17 C68_17 1_555 1_555
H49_17 C69_17 1_555 1_555
H51_17 C71_17 1_555 1_555
C73_17 C68_17 1_555 1_555
C74_17 C69_17 1_555 1_555
C76_17 C71_17 1_555 1_555
C78_17 C73_17 1_555 1_555
C79_17 C74_17 1_555 1_555
C81_17 C76_17 1_555 1_555
H53_17 C78_17 1_555 1_555
H54_17 C79_17 1_555 1_555
H56_17 C81_17 1_555 1_555
C83_17 C73_17 1_555 1_555
C84_17 C74_17 1_555 1_555
C86_17 C76_17 1_555 1_555
C88_17 C48_17 1_555 1_555
C89_17 C49_17 1_555 1_555
C91_17 C51_17 1_555 1_555
C93_17 C98_17 1_555 1_555
C94_17 C99_17 1_555 1_555
C96_17 C101_17 1_555 1_555
C98_17 C103_17 1_555 1_555
C99_17 C104_17 1_555 1_555
C101_17 C106_17 1_555 1_555
C103_17 H58_17 1_555 1_555
C104_17 H59_17 1_555 1_555
C106_17 H61_17 1_555 1_555
C108_17 H63_17 1_555 1_555
C109_17 H64_17 1_555 1_555
C111_17 H66_17 1_555 1_555
C113_17 C108_17 1_555 1_555
C114_17 C109_17 1_555 1_555
C116_17 C111_17 1_555 1_555
H68_17 C113_17 1_555 1_555
H69_17 C114_17 1_555 1_555
H71_17 C116_17 1_555 1_555
C118_17 C98_17 1_555 1_555
C119_17 C99_17 1_555 1_555
C121_17 C101_17 1_555 1_555
H73_17 C118_17 1_555 1_555
H74_17 C119_17 1_555 1_555
H76_17 C121_17 1_555 1_555
C125_17 N55_17 1_555 1_555
C126_17 N56_17 1_555 1_555
C127_17 H77_17 1_555 1_555
C128_17 H78_17 1_555 1_555
C132_17 C127_17 1_555 1_555
C133_17 C128_17 1_555 1_555
H82_17 C132_17 1_555 1_555
H83_17 C133_17 1_555 1_555
C137_17 C132_17 1_555 1_555
C138_17 C133_17 1_555 1_555
H87_17 C137_17 1_555 1_555
H88_17 C138_17 1_555 1_555
C142_17 C137_17 1_555 1_555
C143_17 C138_17 1_555 1_555
C147_17 C142_17 1_555 1_555
C148_17 C143_17 1_555 1_555
H92_17 C147_17 1_555 1_555
H93_17 C148_17 1_555 1_555
C152_17 N10_17 1_555 1_555
C153_17 C143_17 1_555 1_555
N11_17 Co7_12 1_555 1_555
N13_17 Co5_12 1_555 1_555
N17_17 Co5_12 1_555 1_555
N20_17 Co5_12 1_555 1_555
N23_17 Co7_12 1_555 1_555
N24_17 Co7_12 1_555 1_555
N26_17 C61_17 1_555 1_555
N27_17 Co5_12 1_555 1_555
N31_17 C83_17 1_555 1_555
N32_17 C84_17 1_555 1_555
N34_17 C86_17 1_555 1_555
N36_17 C83_17 1_555 1_555
N37_17 C84_17 1_555 1_555
N39_17 C86_17 1_555 1_555
N41_17 C88_17 1_555 1_555
N42_17 C89_17 1_555 1_555
N44_17 C91_17 1_555 1_555
N46_17 C103_17 1_555 1_555
N51_9 C104_17 1_555 1_555
N49_17 C106_17 1_555 1_555
N55_17 Co13_10 1_555 1_555
N56_17 Co13_10 1_555 1_555
N57_17 C127_17 1_555 1_555
N58_17 C128_17 1_555 1_555
N64_17 Co13_10 1_555 1_555
N65_17 Co13_10 1_555 1_555
N66_17 C152_17 1_555 1_555
N67_17 C26_17 1_555 1_555
C2_17 N2_17 1_555 1_555
C6_17 N2_17 1_555 1_555
C11_17 N28_9 1_555 1_555
C13_17 N4_17 1_555 1_555
C14_17 N5_17 1_555 1_555
C14_17 N6_17 1_555 1_555
C17_17 N50_9 1_555 1_555
C18_17 C19_17 1_555 1_555
C21_17 N63_9 1_555 1_555
C25_17 N63_9 1_555 1_555
C33_17 N17_17 1_555 1_555
C34_17 N21_7 1_555 1_555
C36_17 N20_17 1_555 1_555
C53_17 N17_17 1_555 1_555
C54_17 N21_7 1_555 1_555
C56_17 N20_17 1_555 1_555
C58_17 N23_17 1_555 1_555
C59_17 N24_17 1_555 1_555
C78_17 N23_17 1_555 1_555
C79_17 N24_17 1_555 1_555
C81_17 N26_17 1_555 1_555
C88_17 N31_17 1_555 1_555
C89_17 N32_17 1_555 1_555
C91_17 N34_17 1_555 1_555
C93_17 N36_17 1_555 1_555
C93_17 N41_17 1_555 1_555
C94_17 N37_17 1_555 1_555
C94_17 N42_17 1_555 1_555
C96_17 N39_17 1_555 1_555
C96_17 N44_17 1_555 1_555
C108_17 N46_17 1_555 1_555
C109_17 N51_9 1_555 1_555
C111_17 N49_17 1_555 1_555
C113_17 C118_17 1_555 1_555
C114_17 C119_17 1_555 1_555
C116_17 C121_17 1_555 1_555
C142_17 C152_17 1_555 1_555
C147_17 N57_17 1_555 1_555
C148_17 N58_17 1_555 1_555
C153_17 N66_17 1_555 1_555
C153_17 N67_17 1_555 1_555
Co7_11 N1_18 1_555 1_555
S1_18 C1_18 1_555 1_555
C1_18 N1_18 1_555 1_555
C2_18 H1_18 1_555 1_555
C3_18 C2_18 1_555 1_555
H2_18 C3_18 1_555 1_555
C4_18 C3_18 1_555 1_555
H3_18 C4_18 1_555 1_555
C5_18 C4_18 1_555 1_555
C6_18 C5_18 1_555 1_555
H4_18 C6_18 1_555 1_555
C7_18 H5_18 1_555 1_555
C8_18 C7_18 1_555 1_555
H6_18 C8_18 1_555 1_555
C9_18 C8_18 1_555 1_555
H7_18 C9_18 1_555 1_555
C10_18 C9_18 1_555 1_555
C11_18 C10_18 1_555 1_555
H8_18 C11_18 1_555 1_555
C12_18 C10_18 1_555 1_555
C13_18 C5_18 1_555 1_555
C14_18 C15_18 1_555 1_555
C15_18 C16_18 1_555 1_555
C16_18 H9_18 1_555 1_555
C17_18 H10_18 1_555 1_555
C18_18 C17_18 1_555 1_555
H11_18 C18_18 1_555 1_555
C19_18 C15_18 1_555 1_555
H12_18 C19_18 1_555 1_555
C21_18 H13_18 1_555 1_555
C22_18 C21_18 1_555 1_555
H14_18 C22_18 1_555 1_555
C23_18 C22_18 1_555 1_555
H15_18 C23_18 1_555 1_555
C24_18 C23_18 1_555 1_555
C25_18 C24_18 1_555 1_555
H16_18 C25_18 1_555 1_555
C26_18 C24_18 1_555 1_555
N2_18 Co7_11 1_555 1_555
N28_10 C7_18 1_555 1_555
N4_18 C12_18 1_555 1_555
N5_18 C12_18 1_555 1_555
N6_18 C13_18 1_555 1_555
N50_10 C16_18 1_555 1_555
N10_18 C26_18 1_555 1_555
Co5_11 N12_18 1_555 1_555
Co8_7 N26_18 1_555 1_555
Co13_9 N46_18 1_555 1_555
Co11_14 N57_18 1_555 1_555
Co11_10 N58_18 1_555 1_555
Co16_18 N49_18 1_555 1_555
S3_18 C27_18 1_555 1_555
S4_18 C28_18 1_555 1_555
S5_18 C29_18 1_555 1_555
S11_18 C125_18 1_555 1_555
S12_18 C126_18 1_555 1_555
C27_18 N11_18 1_555 1_555
C28_18 N12_18 1_555 1_555
C29_18 N13_18 1_555 1_555
C33_18 H18_18 1_555 1_555
C34_18 H19_18 1_555 1_555
C36_18 H21_18 1_555 1_555
C38_18 C33_18 1_555 1_555
C39_18 C34_18 1_555 1_555
C41_18 C36_18 1_555 1_555
H23_18 C38_18 1_555 1_555
H24_18 C39_18 1_555 1_555
H26_18 C41_18 1_555 1_555
C43_18 C38_18 1_555 1_555
C44_18 C39_18 1_555 1_555
C46_18 C41_18 1_555 1_555
H28_18 C43_18 1_555 1_555
H29_18 C44_18 1_555 1_555
H31_18 C46_18 1_555 1_555
C48_18 C43_18 1_555 1_555
C49_18 C44_18 1_555 1_555
C51_18 C46_18 1_555 1_555
C53_18 C48_18 1_555 1_555
C54_18 C49_18 1_555 1_555
C56_18 C51_18 1_555 1_555
H33_18 C53_18 1_555 1_555
H34_18 C54_18 1_555 1_555
H36_18 C56_18 1_555 1_555
C58_18 H38_18 1_555 1_555
C59_18 H39_18 1_555 1_555
C61_18 H41_18 1_555 1_555
C63_18 C58_18 1_555 1_555
C64_18 C59_18 1_555 1_555
C66_18 C61_18 1_555 1_555
H43_18 C63_18 1_555 1_555
H44_18 C64_18 1_555 1_555
H46_18 C66_18 1_555 1_555
C68_18 C63_18 1_555 1_555
C69_18 C64_18 1_555 1_555
C71_18 C66_18 1_555 1_555
H48_18 C68_18 1_555 1_555
H49_18 C69_18 1_555 1_555
H51_18 C71_18 1_555 1_555
C73_18 C68_18 1_555 1_555
C74_18 C69_18 1_555 1_555
C76_18 C71_18 1_555 1_555
C78_18 C73_18 1_555 1_555
C79_18 C74_18 1_555 1_555
C81_18 C76_18 1_555 1_555
H53_18 C78_18 1_555 1_555
H54_18 C79_18 1_555 1_555
H56_18 C81_18 1_555 1_555
C83_18 C73_18 1_555 1_555
C84_18 C74_18 1_555 1_555
C86_18 C76_18 1_555 1_555
C88_18 C48_18 1_555 1_555
C89_18 C49_18 1_555 1_555
C91_18 C51_18 1_555 1_555
C93_18 C98_18 1_555 1_555
C94_18 C99_18 1_555 1_555
C96_18 C101_18 1_555 1_555
C98_18 C103_18 1_555 1_555
C99_18 C104_18 1_555 1_555
C101_18 C106_18 1_555 1_555
C103_18 H58_18 1_555 1_555
C104_18 H59_18 1_555 1_555
C106_18 H61_18 1_555 1_555
C108_18 H63_18 1_555 1_555
C109_18 H64_18 1_555 1_555
C111_18 H66_18 1_555 1_555
C113_18 C108_18 1_555 1_555
C114_18 C109_18 1_555 1_555
C116_18 C111_18 1_555 1_555
H68_18 C113_18 1_555 1_555
H69_18 C114_18 1_555 1_555
H71_18 C116_18 1_555 1_555
C118_18 C98_18 1_555 1_555
C119_18 C99_18 1_555 1_555
C121_18 C101_18 1_555 1_555
H73_18 C118_18 1_555 1_555
H74_18 C119_18 1_555 1_555
H76_18 C121_18 1_555 1_555
C125_18 N55_18 1_555 1_555
C126_18 N56_18 1_555 1_555
C127_18 H77_18 1_555 1_555
C128_18 H78_18 1_555 1_555
C132_18 C127_18 1_555 1_555
C133_18 C128_18 1_555 1_555
H82_18 C132_18 1_555 1_555
H83_18 C133_18 1_555 1_555
C137_18 C132_18 1_555 1_555
C138_18 C133_18 1_555 1_555
H87_18 C137_18 1_555 1_555
H88_18 C138_18 1_555 1_555
C142_18 C137_18 1_555 1_555
C143_18 C138_18 1_555 1_555
C147_18 C142_18 1_555 1_555
C148_18 C143_18 1_555 1_555
H92_18 C147_18 1_555 1_555
H93_18 C148_18 1_555 1_555
C152_18 N10_18 1_555 1_555
C153_18 C143_18 1_555 1_555
N11_18 Co7_11 1_555 1_555
N13_18 Co5_11 1_555 1_555
N17_18 Co5_11 1_555 1_555
N20_18 Co5_11 1_555 1_555
N23_18 Co7_11 1_555 1_555
N24_18 Co7_11 1_555 1_555
N26_18 C61_18 1_555 1_555
N27_18 Co5_11 1_555 1_555
N31_18 C83_18 1_555 1_555
N32_18 C84_18 1_555 1_555
N34_18 C86_18 1_555 1_555
N36_18 C83_18 1_555 1_555
N37_18 C84_18 1_555 1_555
N39_18 C86_18 1_555 1_555
N41_18 C88_18 1_555 1_555
N42_18 C89_18 1_555 1_555
N44_18 C91_18 1_555 1_555
N46_18 C103_18 1_555 1_555
N51_10 C104_18 1_555 1_555
N49_18 C106_18 1_555 1_555
N55_18 Co13_9 1_555 1_555
N56_18 Co13_9 1_555 1_555
N57_18 C127_18 1_555 1_555
N58_18 C128_18 1_555 1_555
N64_18 Co13_9 1_555 1_555
N65_18 Co13_9 1_555 1_555
N66_18 C152_18 1_555 1_555
N67_18 C26_18 1_555 1_555
C2_18 N2_18 1_555 1_555
C6_18 N2_18 1_555 1_555
C11_18 N28_10 1_555 1_555
C13_18 N4_18 1_555 1_555
C14_18 N5_18 1_555 1_555
C14_18 N6_18 1_555 1_555
C17_18 N50_10 1_555 1_555
C18_18 C19_18 1_555 1_555
C21_18 N63_10 1_555 1_555
C25_18 N63_10 1_555 1_555
C33_18 N17_18 1_555 1_555
C34_18 N21_6 1_555 1_555
C36_18 N20_18 1_555 1_555
C53_18 N17_18 1_555 1_555
C54_18 N21_6 1_555 1_555
C56_18 N20_18 1_555 1_555
C58_18 N23_18 1_555 1_555
C59_18 N24_18 1_555 1_555
C78_18 N23_18 1_555 1_555
C79_18 N24_18 1_555 1_555
C81_18 N26_18 1_555 1_555
C88_18 N31_18 1_555 1_555
C89_18 N32_18 1_555 1_555
C91_18 N34_18 1_555 1_555
C93_18 N36_18 1_555 1_555
C93_18 N41_18 1_555 1_555
C94_18 N37_18 1_555 1_555
C94_18 N42_18 1_555 1_555
C96_18 N39_18 1_555 1_555
C96_18 N44_18 1_555 1_555
C108_18 N46_18 1_555 1_555
C109_18 N51_10 1_555 1_555
C111_18 N49_18 1_555 1_555
C113_18 C118_18 1_555 1_555
C114_18 C119_18 1_555 1_555
C116_18 C121_18 1_555 1_555
C142_18 C152_18 1_555 1_555
C147_18 N57_18 1_555 1_555
C148_18 N58_18 1_555 1_555
C153_18 N66_18 1_555 1_555
C153_18 N67_18 1_555 1_555
Co5_13 N12_19 1_555 1_555
Co8_6 N26_19 1_555 1_555
Co16_19 N49_19 1_555 1_555
S4_19 C28_19 1_555 1_555
C28_19 N12_19 1_555 1_555
C41_19 C36_19 1_555 1_555
H26_19 C41_19 1_555 1_555
C46_19 C41_19 1_555 1_555
H31_19 C46_19 1_555 1_555
C51_19 C46_19 1_555 1_555
C56_19 C51_19 1_555 1_555
H36_19 C56_19 1_555 1_555
C61_19 H41_19 1_555 1_555
C66_19 C61_19 1_555 1_555
H46_19 C66_19 1_555 1_555
C71_19 C66_19 1_555 1_555
H51_19 C71_19 1_555 1_555
C76_19 C71_19 1_555 1_555
C81_19 C76_19 1_555 1_555
H56_19 C81_19 1_555 1_555
C86_19 C76_19 1_555 1_555
C91_19 C51_19 1_555 1_555
C96_19 C101_19 1_555 1_555
C101_19 C106_19 1_555 1_555
C106_19 H61_19 1_555 1_555
C111_19 H66_19 1_555 1_555
C116_19 C111_19 1_555 1_555
H71_19 C116_19 1_555 1_555
C121_19 C101_19 1_555 1_555
H76_19 C121_19 1_555 1_555
N20_19 Co5_13 1_555 1_555
N26_19 C61_19 1_555 1_555
N27_19 Co5_13 1_555 1_555
N34_19 C86_19 1_555 1_555
N39_19 C86_19 1_555 1_555
N44_19 C91_19 1_555 1_555
N49_19 C106_19 1_555 1_555
C36_19 N20_19 1_555 1_555
C56_19 N20_19 1_555 1_555
C81_19 N26_19 1_555 1_555
C91_19 N34_19 1_555 1_555
C96_19 N39_19 1_555 1_555
C96_19 N44_19 1_555 1_555
C111_19 N49_19 1_555 1_555
C116_19 C121_19 1_555 1_555
Co7_13 N1_19 1_555 1_555
S1_19 C1_19 1_555 1_555
C1_19 N1_19 1_555 1_555
C2_19 H1_19 1_555 1_555
C3_19 C2_19 1_555 1_555
H2_19 C3_19 1_555 1_555
C4_19 C3_19 1_555 1_555
H3_19 C4_19 1_555 1_555
C5_19 C4_19 1_555 1_555
C6_19 C5_19 1_555 1_555
H4_19 C6_19 1_555 1_555
C7_19 H5_19 1_555 1_555
C8_19 C7_19 1_555 1_555
H6_19 C8_19 1_555 1_555
C9_19 C8_19 1_555 1_555
H7_19 C9_19 1_555 1_555
C10_19 C9_19 1_555 1_555
C11_19 C10_19 1_555 1_555
H8_19 C11_19 1_555 1_555
C12_19 C10_19 1_555 1_555
C13_19 C5_19 1_555 1_555
C14_19 C15_19 1_555 1_555
C15_19 C16_19 1_555 1_555
C16_19 H9_19 1_555 1_555
C17_19 H10_19 1_555 1_555
C18_19 C17_19 1_555 1_555
H11_19 C18_19 1_555 1_555
C19_19 C15_19 1_555 1_555
H12_19 C19_19 1_555 1_555
C21_19 H13_19 1_555 1_555
C22_19 C21_19 1_555 1_555
H14_19 C22_19 1_555 1_555
C23_19 C22_19 1_555 1_555
H15_19 C23_19 1_555 1_555
C24_19 C23_19 1_555 1_555
C25_19 C24_19 1_555 1_555
H16_19 C25_19 1_555 1_555
C26_19 C24_19 1_555 1_555
N2_19 Co7_13 1_555 1_555
N28_12 C7_19 1_555 1_555
N4_19 C12_19 1_555 1_555
N5_19 C12_19 1_555 1_555
N6_19 C13_19 1_555 1_555
N50_12 C16_19 1_555 1_555
N10_19 C26_19 1_555 1_555
Co13_11 N46_19 1_555 1_555
Co11_15 N57_19 1_555 1_555
S3_19 C27_19 1_555 1_555
S5_19 C29_19 1_555 1_555
S11_19 C125_19 1_555 1_555
S12_19 C126_19 1_555 1_555
C27_19 N11_19 1_555 1_555
C29_19 N13_19 1_555 1_555
C34_19 H19_19 1_555 1_555
C38_19 C33_19 1_555 1_555
C39_19 C34_19 1_555 1_555
H23_19 C38_19 1_555 1_555
H24_19 C39_19 1_555 1_555
C43_19 C38_19 1_555 1_555
C44_19 C39_19 1_555 1_555
H28_19 C43_19 1_555 1_555
H29_19 C44_19 1_555 1_555
C48_19 C43_19 1_555 1_555
C49_19 C44_19 1_555 1_555
C53_19 C48_19 1_555 1_555
C54_19 C49_19 1_555 1_555
H33_19 C53_19 1_555 1_555
H34_19 C54_19 1_555 1_555
C58_19 H38_19 1_555 1_555
C59_19 H39_19 1_555 1_555
C63_19 C58_19 1_555 1_555
C64_19 C59_19 1_555 1_555
H43_19 C63_19 1_555 1_555
H44_19 C64_19 1_555 1_555
C68_19 C63_19 1_555 1_555
C69_19 C64_19 1_555 1_555
H48_19 C68_19 1_555 1_555
H49_19 C69_19 1_555 1_555
C73_19 C68_19 1_555 1_555
C74_19 C69_19 1_555 1_555
C78_19 C73_19 1_555 1_555
C79_19 C74_19 1_555 1_555
H53_19 C78_19 1_555 1_555
H54_19 C79_19 1_555 1_555
C83_19 C73_19 1_555 1_555
C84_19 C74_19 1_555 1_555
C88_19 C48_19 1_555 1_555
C89_19 C49_19 1_555 1_555
C93_19 C98_19 1_555 1_555
C94_19 C99_19 1_555 1_555
C98_19 C103_19 1_555 1_555
C99_19 C104_19 1_555 1_555
C103_19 H58_19 1_555 1_555
C104_19 H59_19 1_555 1_555
C108_19 H63_19 1_555 1_555
C109_19 H64_19 1_555 1_555
C113_19 C108_19 1_555 1_555
C114_19 C109_19 1_555 1_555
H68_19 C113_19 1_555 1_555
H69_19 C114_19 1_555 1_555
C118_19 C98_19 1_555 1_555
C119_19 C99_19 1_555 1_555
H73_19 C118_19 1_555 1_555
H74_19 C119_19 1_555 1_555
C125_19 N55_19 1_555 1_555
C126_19 N56_19 1_555 1_555
C127_19 H77_19 1_555 1_555
C128_19 H78_19 1_555 1_555
C132_19 C127_19 1_555 1_555
C133_19 C128_19 1_555 1_555
H82_19 C132_19 1_555 1_555
H83_19 C133_19 1_555 1_555
C137_19 C132_19 1_555 1_555
C138_19 C133_19 1_555 1_555
H87_19 C137_19 1_555 1_555
H88_19 C138_19 1_555 1_555
C142_19 C137_19 1_555 1_555
C143_19 C138_19 1_555 1_555
C147_19 C142_19 1_555 1_555
C148_19 C143_19 1_555 1_555
H92_19 C147_19 1_555 1_555
H93_19 C148_19 1_555 1_555
C152_19 N10_19 1_555 1_555
C153_19 C143_19 1_555 1_555
N11_19 Co7_13 1_555 1_555
N13_19 Co5_14 1_555 1_555
N17_19 Co5_14 1_555 1_555
N23_19 Co7_13 1_555 1_555
N24_19 Co7_13 1_555 1_555
N31_19 C83_19 1_555 1_555
N32_19 C84_19 1_555 1_555
N36_19 C83_19 1_555 1_555
N37_19 C84_19 1_555 1_555
N41_19 C88_19 1_555 1_555
N42_19 C89_19 1_555 1_555
N46_19 C103_19 1_555 1_555
N51_12 C104_19 1_555 1_555
N55_19 Co13_11 1_555 1_555
N56_19 Co13_11 1_555 1_555
N57_19 C127_19 1_555 1_555
N58_19 C128_19 1_555 1_555
N64_19 Co13_11 1_555 1_555
N65_19 Co13_11 1_555 1_555
N66_19 C152_19 1_555 1_555
N67_19 C26_19 1_555 1_555
C2_19 N2_19 1_555 1_555
C6_19 N2_19 1_555 1_555
C11_19 N28_12 1_555 1_555
C13_19 N4_19 1_555 1_555
C14_19 N5_19 1_555 1_555
C14_19 N6_19 1_555 1_555
C17_19 N50_12 1_555 1_555
C18_19 C19_19 1_555 1_555
C21_19 N63_12 1_555 1_555
C25_19 N63_12 1_555 1_555
C33_19 N17_19 1_555 1_555
C34_19 N21_5 1_555 1_555
C53_19 N17_19 1_555 1_555
C54_19 N21_5 1_555 1_555
C58_19 N23_19 1_555 1_555
C59_19 N24_19 1_555 1_555
C78_19 N23_19 1_555 1_555
C79_19 N24_19 1_555 1_555
C88_19 N31_19 1_555 1_555
C89_19 N32_19 1_555 1_555
C93_19 N36_19 1_555 1_555
C93_19 N41_19 1_555 1_555
C94_19 N37_19 1_555 1_555
C94_19 N42_19 1_555 1_555
C108_19 N46_19 1_555 1_555
C109_19 N51_12 1_555 1_555
C113_19 C118_19 1_555 1_555
C114_19 C119_19 1_555 1_555
C142_19 C152_19 1_555 1_555
C147_19 N57_19 1_555 1_555
C148_19 N58_19 1_555 1_555
C153_19 N66_19 1_555 1_555
C153_19 N67_19 1_555 1_555
C21_20 H13_20 1_555 1_555
C22_20 C21_20 1_555 1_555
H14_20 C22_20 1_555 1_555
C23_20 C22_20 1_555 1_555
H15_20 C23_20 1_555 1_555
C24_20 C23_20 1_555 1_555
C25_20 C24_20 1_555 1_555
H16_20 C25_20 1_555 1_555
C26_20 C24_20 1_555 1_555
N10_20 C26_20 1_555 1_555
Co11_16 N57_20 1_555 1_555
Co11_9 N58_20 1_555 1_555
C127_20 H77_20 1_555 1_555
C128_20 H78_20 1_555 1_555
C132_20 C127_20 1_555 1_555
C133_20 C128_20 1_555 1_555
H82_20 C132_20 1_555 1_555
H83_20 C133_20 1_555 1_555
C137_20 C132_20 1_555 1_555
C138_20 C133_20 1_555 1_555
H87_20 C137_20 1_555 1_555
H88_20 C138_20 1_555 1_555
C142_20 C137_20 1_555 1_555
C143_20 C138_20 1_555 1_555
C147_20 C142_20 1_555 1_555
C148_20 C143_20 1_555 1_555
H92_20 C147_20 1_555 1_555
H93_20 C148_20 1_555 1_555
C152_20 N10_20 1_555 1_555
C153_20 C143_20 1_555 1_555
N57_20 C127_20 1_555 1_555
N58_20 C128_20 1_555 1_555
N66_20 C152_20 1_555 1_555
N67_20 C26_20 1_555 1_555
C21_20 N63_11 1_555 1_555
C25_20 N63_11 1_555 1_555
C142_20 C152_20 1_555 1_555
C147_20 N57_20 1_555 1_555
C148_20 N58_20 1_555 1_555
C153_20 N66_20 1_555 1_555
C153_20 N67_20 1_555 1_555
C3_20 C2_20 1_555 1_555
H2_20 C3_20 1_555 1_555
C4_20 C3_20 1_555 1_555
H3_20 C4_20 1_555 1_555
C5_20 C4_20 1_555 1_555
C6_20 C5_20 1_555 1_555
H4_20 C6_20 1_555 1_555
C7_20 H5_20 1_555 1_555
C8_20 C7_20 1_555 1_555
H6_20 C8_20 1_555 1_555
C9_20 C8_20 1_555 1_555
H7_20 C9_20 1_555 1_555
C10_20 C9_20 1_555 1_555
C11_20 C10_20 1_555 1_555
H8_20 C11_20 1_555 1_555
C12_20 C10_20 1_555 1_555
C13_20 C5_20 1_555 1_555
C14_20 C15_20 1_555 1_555
C15_20 C16_20 1_555 1_555
C16_20 H9_20 1_555 1_555
C17_20 H10_20 1_555 1_555
C18_20 C17_20 1_555 1_555
H11_20 C18_20 1_555 1_555
C19_20 C15_20 1_555 1_555
H12_20 C19_20 1_555 1_555
N2_20 Co7_14 1_555 1_555
N28_11 C7_20 1_555 1_555
N4_20 C12_20 1_555 1_555
N5_20 C12_20 1_555 1_555
N6_20 C13_20 1_555 1_555
N50_11 C16_20 1_555 1_555
S3_20 C27_20 1_555 1_555
C27_20 N11_20 1_555 1_555
C39_20 C34_20 1_555 1_555
H24_20 C39_20 1_555 1_555
C44_20 C39_20 1_555 1_555
H29_20 C44_20 1_555 1_555
C49_20 C44_20 1_555 1_555
C54_20 C49_20 1_555 1_555
H34_20 C54_20 1_555 1_555
C59_20 H39_20 1_555 1_555
C64_20 C59_20 1_555 1_555
H44_20 C64_20 1_555 1_555
C69_20 C64_20 1_555 1_555
H49_20 C69_20 1_555 1_555
C74_20 C69_20 1_555 1_555
C79_20 C74_20 1_555 1_555
H54_20 C79_20 1_555 1_555
C84_20 C74_20 1_555 1_555
C89_20 C49_20 1_555 1_555
C94_20 C99_20 1_555 1_555
C99_20 C104_20 1_555 1_555
C104_20 H59_20 1_555 1_555
C109_20 H64_20 1_555 1_555
C114_20 C109_20 1_555 1_555
H69_20 C114_20 1_555 1_555
C119_20 C99_20 1_555 1_555
H74_20 C119_20 1_555 1_555
N11_20 Co7_14 1_555 1_555
N24_20 Co7_14 1_555 1_555
N32_20 C84_20 1_555 1_555
N37_20 C84_20 1_555 1_555
N42_20 C89_20 1_555 1_555
N51_11 C104_20 1_555 1_555
C2_20 N2_20 1_555 1_555
C6_20 N2_20 1_555 1_555
C11_20 N28_11 1_555 1_555
C13_20 N4_20 1_555 1_555
C14_20 N5_20 1_555 1_555
C14_20 N6_20 1_555 1_555
C17_20 N50_11 1_555 1_555
C18_20 C19_20 1_555 1_555
C34_20 N21_8 1_555 1_555
C54_20 N21_8 1_555 1_555
C59_20 N24_20 1_555 1_555
C79_20 N24_20 1_555 1_555
C89_20 N32_20 1_555 1_555
C94_20 N37_20 1_555 1_555
C94_20 N42_20 1_555 1_555
C109_20 N51_11 1_555 1_555
C114_20 C119_20 1_555 1_555
Co7_15 N1_20 1_555 1_555
S1_20 C1_20 1_555 1_555
C1_20 N1_20 1_555 1_555
Co5_15 N12_20 1_555 1_555
Co8_9 N26_20 1_555 1_555
Co13_12 N46_20 1_555 1_555
Co16_20 N49_20 1_555 1_555
S4_20 C28_20 1_555 1_555
S5_20 C29_20 1_555 1_555
C28_20 N12_20 1_555 1_555
C29_20 N13_20 1_555 1_555
C33_20 H18_20 1_555 1_555
C36_20 H21_20 1_555 1_555
C38_20 C33_20 1_555 1_555
C41_20 C36_20 1_555 1_555
H23_20 C38_20 1_555 1_555
H26_20 C41_20 1_555 1_555
C43_20 C38_20 1_555 1_555
C46_20 C41_20 1_555 1_555
H28_20 C43_20 1_555 1_555
H31_20 C46_20 1_555 1_555
C48_20 C43_20 1_555 1_555
C51_20 C46_20 1_555 1_555
C53_20 C48_20 1_555 1_555
C56_20 C51_20 1_555 1_555
H33_20 C53_20 1_555 1_555
H36_20 C56_20 1_555 1_555
C58_20 H38_20 1_555 1_555
C61_20 H41_20 1_555 1_555
C63_20 C58_20 1_555 1_555
C66_20 C61_20 1_555 1_555
H43_20 C63_20 1_555 1_555
H46_20 C66_20 1_555 1_555
C68_20 C63_20 1_555 1_555
C71_20 C66_20 1_555 1_555
H48_20 C68_20 1_555 1_555
H51_20 C71_20 1_555 1_555
C73_20 C68_20 1_555 1_555
C76_20 C71_20 1_555 1_555
C78_20 C73_20 1_555 1_555
C81_20 C76_20 1_555 1_555
H53_20 C78_20 1_555 1_555
H56_20 C81_20 1_555 1_555
C83_20 C73_20 1_555 1_555
C86_20 C76_20 1_555 1_555
C88_20 C48_20 1_555 1_555
C91_20 C51_20 1_555 1_555
C93_20 C98_20 1_555 1_555
C96_20 C101_20 1_555 1_555
C98_20 C103_20 1_555 1_555
C101_20 C106_20 1_555 1_555
C103_20 H58_20 1_555 1_555
C106_20 H61_20 1_555 1_555
C108_20 H63_20 1_555 1_555
C111_20 H66_20 1_555 1_555
C113_20 C108_20 1_555 1_555
C116_20 C111_20 1_555 1_555
H68_20 C113_20 1_555 1_555
H71_20 C116_20 1_555 1_555
C118_20 C98_20 1_555 1_555
C121_20 C101_20 1_555 1_555
H73_20 C118_20 1_555 1_555
H76_20 C121_20 1_555 1_555
N13_20 Co5_15 1_555 1_555
N17_20 Co5_15 1_555 1_555
N20_20 Co5_15 1_555 1_555
N23_20 Co7_15 1_555 1_555
N26_20 C61_20 1_555 1_555
N27_20 Co5_15 1_555 1_555
N31_20 C83_20 1_555 1_555
N34_20 C86_20 1_555 1_555
N36_20 C83_20 1_555 1_555
N39_20 C86_20 1_555 1_555
N41_20 C88_20 1_555 1_555
N44_20 C91_20 1_555 1_555
N46_20 C103_20 1_555 1_555
N49_20 C106_20 1_555 1_555
N55_20 Co13_12 1_555 1_555
N56_20 Co13_12 1_555 1_555
C33_20 N17_20 1_555 1_555
C36_20 N20_20 1_555 1_555
C53_20 N17_20 1_555 1_555
C56_20 N20_20 1_555 1_555
C58_20 N23_20 1_555 1_555
C78_20 N23_20 1_555 1_555
C81_20 N26_20 1_555 1_555
C88_20 N31_20 1_555 1_555
C91_20 N34_20 1_555 1_555
C93_20 N36_20 1_555 1_555
C93_20 N41_20 1_555 1_555
C96_20 N39_20 1_555 1_555
C96_20 N44_20 1_555 1_555
C108_20 N46_20 1_555 1_555
C111_20 N49_20 1_555 1_555
C113_20 C118_20 1_555 1_555
C116_20 C121_20 1_555 1_555
S11_20 C125_20 1_555 1_555
S12_20 C126_20 1_555 1_555
Co7_6 N1_21 1_555 1_555
S1_21 C1_21 1_555 1_555
C1_21 N1_21 1_555 1_555
C2_21 H1_21 1_555 1_555
C3_21 C2_21 1_555 1_555
H2_21 C3_21 1_555 1_555
C4_21 C3_21 1_555 1_555
H3_21 C4_21 1_555 1_555
C5_21 C4_21 1_555 1_555
C6_21 C5_21 1_555 1_555
H4_21 C6_21 1_555 1_555
C7_21 H5_21 1_555 1_555
C8_21 C7_21 1_555 1_555
H6_21 C8_21 1_555 1_555
C9_21 C8_21 1_555 1_555
H7_21 C9_21 1_555 1_555
C10_21 C9_21 1_555 1_555
C11_21 C10_21 1_555 1_555
H8_21 C11_21 1_555 1_555
C12_21 C10_21 1_555 1_555
C13_21 C5_21 1_555 1_555
C14_21 C15_21 1_555 1_555
C15_21 C16_21 1_555 1_555
C16_21 H9_21 1_555 1_555
C17_21 H10_21 1_555 1_555
C18_21 C17_21 1_555 1_555
H11_21 C18_21 1_555 1_555
C19_21 C15_21 1_555 1_555
H12_21 C19_21 1_555 1_555
C21_21 H13_21 1_555 1_555
C22_21 C21_21 1_555 1_555
H14_21 C22_21 1_555 1_555
C23_21 C22_21 1_555 1_555
H15_21 C23_21 1_555 1_555
C24_21 C23_21 1_555 1_555
C25_21 C24_21 1_555 1_555
H16_21 C25_21 1_555 1_555
C26_21 C24_21 1_555 1_555
N2_21 Co7_6 1_555 1_555
N28_6 C7_21 1_555 1_555
N4_21 C12_21 1_555 1_555
N5_21 C12_21 1_555 1_555
N6_21 C13_21 1_555 1_555
N50_6 C16_21 1_555 1_555
N10_21 C26_21 1_555 1_555
Co5_6 N12_21 1_555 1_555
Co8_2 N26_21 1_555 1_555
Co13_5 N46_21 1_555 1_555
Co12_8 N57_21 1_555 1_555
Co11_15 N58_21 1_555 1_555
Co16_21 N49_21 1_555 1_555
S3_21 C27_21 1_555 1_555
S4_21 C28_21 1_555 1_555
S5_21 C29_21 1_555 1_555
S11_21 C125_21 1_555 1_555
S12_21 C126_21 1_555 1_555
C27_21 N11_21 1_555 1_555
C28_21 N12_21 1_555 1_555
C29_21 N13_21 1_555 1_555
C33_21 H18_21 1_555 1_555
C34_21 H19_21 1_555 1_555
C36_21 H21_21 1_555 1_555
C38_21 C33_21 1_555 1_555
C39_21 C34_21 1_555 1_555
C41_21 C36_21 1_555 1_555
H23_21 C38_21 1_555 1_555
H24_21 C39_21 1_555 1_555
H26_21 C41_21 1_555 1_555
C43_21 C38_21 1_555 1_555
C44_21 C39_21 1_555 1_555
C46_21 C41_21 1_555 1_555
H28_21 C43_21 1_555 1_555
H29_21 C44_21 1_555 1_555
H31_21 C46_21 1_555 1_555
C48_21 C43_21 1_555 1_555
C49_21 C44_21 1_555 1_555
C51_21 C46_21 1_555 1_555
C53_21 C48_21 1_555 1_555
C54_21 C49_21 1_555 1_555
C56_21 C51_21 1_555 1_555
H33_21 C53_21 1_555 1_555
H34_21 C54_21 1_555 1_555
H36_21 C56_21 1_555 1_555
C58_21 H38_21 1_555 1_555
C59_21 H39_21 1_555 1_555
C61_21 H41_21 1_555 1_555
C63_21 C58_21 1_555 1_555
C64_21 C59_21 1_555 1_555
C66_21 C61_21 1_555 1_555
H43_21 C63_21 1_555 1_555
H44_21 C64_21 1_555 1_555
H46_21 C66_21 1_555 1_555
C68_21 C63_21 1_555 1_555
C69_21 C64_21 1_555 1_555
C71_21 C66_21 1_555 1_555
H48_21 C68_21 1_555 1_555
H49_21 C69_21 1_555 1_555
H51_21 C71_21 1_555 1_555
C73_21 C68_21 1_555 1_555
C74_21 C69_21 1_555 1_555
C76_21 C71_21 1_555 1_555
C78_21 C73_21 1_555 1_555
C79_21 C74_21 1_555 1_555
C81_21 C76_21 1_555 1_555
H53_21 C78_21 1_555 1_555
H54_21 C79_21 1_555 1_555
H56_21 C81_21 1_555 1_555
C83_21 C73_21 1_555 1_555
C84_21 C74_21 1_555 1_555
C86_21 C76_21 1_555 1_555
C88_21 C48_21 1_555 1_555
C89_21 C49_21 1_555 1_555
C91_21 C51_21 1_555 1_555
C93_21 C98_21 1_555 1_555
C94_21 C99_21 1_555 1_555
C96_21 C101_21 1_555 1_555
C98_21 C103_21 1_555 1_555
C99_21 C104_21 1_555 1_555
C101_21 C106_21 1_555 1_555
C103_21 H58_21 1_555 1_555
C104_21 H59_21 1_555 1_555
C106_21 H61_21 1_555 1_555
C108_21 H63_21 1_555 1_555
C109_21 H64_21 1_555 1_555
C111_21 H66_21 1_555 1_555
C113_21 C108_21 1_555 1_555
C114_21 C109_21 1_555 1_555
C116_21 C111_21 1_555 1_555
H68_21 C113_21 1_555 1_555
H69_21 C114_21 1_555 1_555
H71_21 C116_21 1_555 1_555
C118_21 C98_21 1_555 1_555
C119_21 C99_21 1_555 1_555
C121_21 C101_21 1_555 1_555
H73_21 C118_21 1_555 1_555
H74_21 C119_21 1_555 1_555
H76_21 C121_21 1_555 1_555
C125_21 N55_21 1_555 1_555
C126_21 N56_21 1_555 1_555
C127_21 H77_21 1_555 1_555
C128_21 H78_21 1_555 1_555
C132_21 C127_21 1_555 1_555
C133_21 C128_21 1_555 1_555
H82_21 C132_21 1_555 1_555
H83_21 C133_21 1_555 1_555
C137_21 C132_21 1_555 1_555
C138_21 C133_21 1_555 1_555
H87_21 C137_21 1_555 1_555
H88_21 C138_21 1_555 1_555
C142_21 C137_21 1_555 1_555
C143_21 C138_21 1_555 1_555
C147_21 C142_21 1_555 1_555
C148_21 C143_21 1_555 1_555
H92_21 C147_21 1_555 1_555
H93_21 C148_21 1_555 1_555
C152_21 N10_21 1_555 1_555
C153_21 C143_21 1_555 1_555
N11_21 Co7_6 1_555 1_555
N13_21 Co5_6 1_555 1_555
N17_21 Co5_6 1_555 1_555
N20_21 Co5_6 1_555 1_555
N23_21 Co7_6 1_555 1_555
N24_21 Co7_6 1_555 1_555
N26_21 C61_21 1_555 1_555
N27_21 Co5_6 1_555 1_555
N31_21 C83_21 1_555 1_555
N32_21 C84_21 1_555 1_555
N34_21 C86_21 1_555 1_555
N36_21 C83_21 1_555 1_555
N37_21 C84_21 1_555 1_555
N39_21 C86_21 1_555 1_555
N41_21 C88_21 1_555 1_555
N42_21 C89_21 1_555 1_555
N44_21 C91_21 1_555 1_555
N46_21 C103_21 1_555 1_555
N51_6 C104_21 1_555 1_555
N49_21 C106_21 1_555 1_555
N55_21 Co13_5 1_555 1_555
N56_21 Co13_5 1_555 1_555
N57_21 C127_21 1_555 1_555
N58_21 C128_21 1_555 1_555
N64_21 Co13_5 1_555 1_555
N65_21 Co13_5 1_555 1_555
N66_21 C152_21 1_555 1_555
N67_21 C26_21 1_555 1_555
C2_21 N2_21 1_555 1_555
C6_21 N2_21 1_555 1_555
C11_21 N28_6 1_555 1_555
C13_21 N4_21 1_555 1_555
C14_21 N5_21 1_555 1_555
C14_21 N6_21 1_555 1_555
C17_21 N50_6 1_555 1_555
C18_21 C19_21 1_555 1_555
C21_21 N63_6 1_555 1_555
C25_21 N63_6 1_555 1_555
C33_21 N17_21 1_555 1_555
C34_21 N21_2 1_555 1_555
C36_21 N20_21 1_555 1_555
C53_21 N17_21 1_555 1_555
C54_21 N21_2 1_555 1_555
C56_21 N20_21 1_555 1_555
C58_21 N23_21 1_555 1_555
C59_21 N24_21 1_555 1_555
C78_21 N23_21 1_555 1_555
C79_21 N24_21 1_555 1_555
C81_21 N26_21 1_555 1_555
C88_21 N31_21 1_555 1_555
C89_21 N32_21 1_555 1_555
C91_21 N34_21 1_555 1_555
C93_21 N36_21 1_555 1_555
C93_21 N41_21 1_555 1_555
C94_21 N37_21 1_555 1_555
C94_21 N42_21 1_555 1_555
C96_21 N39_21 1_555 1_555
C96_21 N44_21 1_555 1_555
C108_21 N46_21 1_555 1_555
C109_21 N51_6 1_555 1_555
C111_21 N49_21 1_555 1_555
C113_21 C118_21 1_555 1_555
C114_21 C119_21 1_555 1_555
C116_21 C121_21 1_555 1_555
C142_21 C152_21 1_555 1_555
C147_21 N57_21 1_555 1_555
C148_21 N58_21 1_555 1_555
C153_21 N66_21 1_555 1_555
C153_21 N67_21 1_555 1_555
Co7_7 N1_22 1_555 1_555
S1_22 C1_22 1_555 1_555
C1_22 N1_22 1_555 1_555
C2_22 H1_22 1_555 1_555
C3_22 C2_22 1_555 1_555
H2_22 C3_22 1_555 1_555
C4_22 C3_22 1_555 1_555
H3_22 C4_22 1_555 1_555
C5_22 C4_22 1_555 1_555
C6_22 C5_22 1_555 1_555
H4_22 C6_22 1_555 1_555
C7_22 H5_22 1_555 1_555
C8_22 C7_22 1_555 1_555
H6_22 C8_22 1_555 1_555
C9_22 C8_22 1_555 1_555
H7_22 C9_22 1_555 1_555
C10_22 C9_22 1_555 1_555
C11_22 C10_22 1_555 1_555
H8_22 C11_22 1_555 1_555
C12_22 C10_22 1_555 1_555
C13_22 C5_22 1_555 1_555
C14_22 C15_22 1_555 1_555
C15_22 C16_22 1_555 1_555
C16_22 H9_22 1_555 1_555
C17_22 H10_22 1_555 1_555
C18_22 C17_22 1_555 1_555
H11_22 C18_22 1_555 1_555
C19_22 C15_22 1_555 1_555
H12_22 C19_22 1_555 1_555
C21_22 H13_22 1_555 1_555
C22_22 C21_22 1_555 1_555
H14_22 C22_22 1_555 1_555
C23_22 C22_22 1_555 1_555
H15_22 C23_22 1_555 1_555
C24_22 C23_22 1_555 1_555
C25_22 C24_22 1_555 1_555
H16_22 C25_22 1_555 1_555
C26_22 C24_22 1_555 1_555
N2_22 Co7_7 1_555 1_555
N28_5 C7_22 1_555 1_555
N4_22 C12_22 1_555 1_555
N5_22 C12_22 1_555 1_555
N6_22 C13_22 1_555 1_555
N50_5 C16_22 1_555 1_555
N10_22 C26_22 1_555 1_555
Co5_7 N12_22 1_555 1_555
Co8_3 N26_22 1_555 1_555
Co13_6 N46_22 1_555 1_555
Co11_14 N58_22 1_555 1_555
Co16_22 N49_22 1_555 1_555
S3_22 C27_22 1_555 1_555
S4_22 C28_22 1_555 1_555
S5_22 C29_22 1_555 1_555
S11_22 C125_22 1_555 1_555
S12_22 C126_22 1_555 1_555
C27_22 N11_22 1_555 1_555
C28_22 N12_22 1_555 1_555
C29_22 N13_22 1_555 1_555
C33_22 H18_22 1_555 1_555
C34_22 H19_22 1_555 1_555
C36_22 H21_22 1_555 1_555
C38_22 C33_22 1_555 1_555
C39_22 C34_22 1_555 1_555
C41_22 C36_22 1_555 1_555
H23_22 C38_22 1_555 1_555
H24_22 C39_22 1_555 1_555
H26_22 C41_22 1_555 1_555
C43_22 C38_22 1_555 1_555
C44_22 C39_22 1_555 1_555
C46_22 C41_22 1_555 1_555
H28_22 C43_22 1_555 1_555
H29_22 C44_22 1_555 1_555
H31_22 C46_22 1_555 1_555
C48_22 C43_22 1_555 1_555
C49_22 C44_22 1_555 1_555
C51_22 C46_22 1_555 1_555
C53_22 C48_22 1_555 1_555
C54_22 C49_22 1_555 1_555
C56_22 C51_22 1_555 1_555
H33_22 C53_22 1_555 1_555
H34_22 C54_22 1_555 1_555
H36_22 C56_22 1_555 1_555
C58_22 H38_22 1_555 1_555
C59_22 H39_22 1_555 1_555
C61_22 H41_22 1_555 1_555
C63_22 C58_22 1_555 1_555
C64_22 C59_22 1_555 1_555
C66_22 C61_22 1_555 1_555
H43_22 C63_22 1_555 1_555
H44_22 C64_22 1_555 1_555
H46_22 C66_22 1_555 1_555
C68_22 C63_22 1_555 1_555
C69_22 C64_22 1_555 1_555
C71_22 C66_22 1_555 1_555
H48_22 C68_22 1_555 1_555
H49_22 C69_22 1_555 1_555
H51_22 C71_22 1_555 1_555
C73_22 C68_22 1_555 1_555
C74_22 C69_22 1_555 1_555
C76_22 C71_22 1_555 1_555
C78_22 C73_22 1_555 1_555
C79_22 C74_22 1_555 1_555
C81_22 C76_22 1_555 1_555
H53_22 C78_22 1_555 1_555
H54_22 C79_22 1_555 1_555
H56_22 C81_22 1_555 1_555
C83_22 C73_22 1_555 1_555
C84_22 C74_22 1_555 1_555
C86_22 C76_22 1_555 1_555
C88_22 C48_22 1_555 1_555
C89_22 C49_22 1_555 1_555
C91_22 C51_22 1_555 1_555
C93_22 C98_22 1_555 1_555
C94_22 C99_22 1_555 1_555
C96_22 C101_22 1_555 1_555
C98_22 C103_22 1_555 1_555
C99_22 C104_22 1_555 1_555
C101_22 C106_22 1_555 1_555
C103_22 H58_22 1_555 1_555
C104_22 H59_22 1_555 1_555
C106_22 H61_22 1_555 1_555
C108_22 H63_22 1_555 1_555
C109_22 H64_22 1_555 1_555
C111_22 H66_22 1_555 1_555
C113_22 C108_22 1_555 1_555
C114_22 C109_22 1_555 1_555
C116_22 C111_22 1_555 1_555
H68_22 C113_22 1_555 1_555
H69_22 C114_22 1_555 1_555
H71_22 C116_22 1_555 1_555
C118_22 C98_22 1_555 1_555
C119_22 C99_22 1_555 1_555
C121_22 C101_22 1_555 1_555
H73_22 C118_22 1_555 1_555
H74_22 C119_22 1_555 1_555
H76_22 C121_22 1_555 1_555
C125_22 N55_22 1_555 1_555
C126_22 N56_22 1_555 1_555
C127_22 H77_22 1_555 1_555
C128_22 H78_22 1_555 1_555
C132_22 C127_22 1_555 1_555
C133_22 C128_22 1_555 1_555
H82_22 C132_22 1_555 1_555
H83_22 C133_22 1_555 1_555
C137_22 C132_22 1_555 1_555
C138_22 C133_22 1_555 1_555
H87_22 C137_22 1_555 1_555
H88_22 C138_22 1_555 1_555
C142_22 C137_22 1_555 1_555
C143_22 C138_22 1_555 1_555
C147_22 C142_22 1_555 1_555
C148_22 C143_22 1_555 1_555
H92_22 C147_22 1_555 1_555
H93_22 C148_22 1_555 1_555
C152_22 N10_22 1_555 1_555
C153_22 C143_22 1_555 1_555
N11_22 Co7_7 1_555 1_555
N13_22 Co5_7 1_555 1_555
N17_22 Co5_7 1_555 1_555
N20_22 Co5_7 1_555 1_555
N23_22 Co7_7 1_555 1_555
N24_22 Co7_7 1_555 1_555
N26_22 C61_22 1_555 1_555
N27_22 Co5_7 1_555 1_555
N31_22 C83_22 1_555 1_555
N32_22 C84_22 1_555 1_555
N34_22 C86_22 1_555 1_555
N36_22 C83_22 1_555 1_555
N37_22 C84_22 1_555 1_555
N39_22 C86_22 1_555 1_555
N41_22 C88_22 1_555 1_555
N42_22 C89_22 1_555 1_555
N44_22 C91_22 1_555 1_555
N46_22 C103_22 1_555 1_555
N51_5 C104_22 1_555 1_555
N49_22 C106_22 1_555 1_555
N55_22 Co13_6 1_555 1_555
N56_22 Co13_6 1_555 1_555
N57_22 C127_22 1_555 1_555
N58_22 C128_22 1_555 1_555
N64_22 Co13_6 1_555 1_555
N65_22 Co13_6 1_555 1_555
N66_22 C152_22 1_555 1_555
N67_22 C26_22 1_555 1_555
C2_22 N2_22 1_555 1_555
C6_22 N2_22 1_555 1_555
C11_22 N28_5 1_555 1_555
C13_22 N4_22 1_555 1_555
C14_22 N5_22 1_555 1_555
C14_22 N6_22 1_555 1_555
C17_22 N50_5 1_555 1_555
C18_22 C19_22 1_555 1_555
C21_22 N63_5 1_555 1_555
C25_22 N63_5 1_555 1_555
C33_22 N17_22 1_555 1_555
C34_22 N21_3 1_555 1_555
C36_22 N20_22 1_555 1_555
C53_22 N17_22 1_555 1_555
C54_22 N21_3 1_555 1_555
C56_22 N20_22 1_555 1_555
C58_22 N23_22 1_555 1_555
C59_22 N24_22 1_555 1_555
C78_22 N23_22 1_555 1_555
C79_22 N24_22 1_555 1_555
C81_22 N26_22 1_555 1_555
C88_22 N31_22 1_555 1_555
C89_22 N32_22 1_555 1_555
C91_22 N34_22 1_555 1_555
C93_22 N36_22 1_555 1_555
C93_22 N41_22 1_555 1_555
C94_22 N37_22 1_555 1_555
C94_22 N42_22 1_555 1_555
C96_22 N39_22 1_555 1_555
C96_22 N44_22 1_555 1_555
C108_22 N46_22 1_555 1_555
C109_22 N51_5 1_555 1_555
C111_22 N49_22 1_555 1_555
C113_22 C118_22 1_555 1_555
C114_22 C119_22 1_555 1_555
C116_22 C121_22 1_555 1_555
C142_22 C152_22 1_555 1_555
C147_22 N57_22 1_555 1_555
C148_22 N58_22 1_555 1_555
C153_22 N66_22 1_555 1_555
C153_22 N67_22 1_555 1_555
C21_23 H13_23 1_555 1_555
C22_23 C21_23 1_555 1_555
H14_23 C22_23 1_555 1_555
C23_23 C22_23 1_555 1_555
H15_23 C23_23 1_555 1_555
C24_23 C23_23 1_555 1_555
C25_23 C24_23 1_555 1_555
H16_23 C25_23 1_555 1_555
C26_23 C24_23 1_555 1_555
N10_23 C26_23 1_555 1_555
Co12_5 N57_23 1_555 1_555
Co11_16 N58_23 1_555 1_555
C127_23 H77_23 1_555 1_555
C128_23 H78_23 1_555 1_555
C132_23 C127_23 1_555 1_555
C133_23 C128_23 1_555 1_555
H82_23 C132_23 1_555 1_555
H83_23 C133_23 1_555 1_555
C137_23 C132_23 1_555 1_555
C138_23 C133_23 1_555 1_555
H87_23 C137_23 1_555 1_555
H88_23 C138_23 1_555 1_555
C142_23 C137_23 1_555 1_555
C143_23 C138_23 1_555 1_555
C147_23 C142_23 1_555 1_555
C148_23 C143_23 1_555 1_555
H92_23 C147_23 1_555 1_555
H93_23 C148_23 1_555 1_555
C152_23 N10_23 1_555 1_555
C153_23 C143_23 1_555 1_555
N57_23 C127_23 1_555 1_555
N58_23 C128_23 1_555 1_555
N66_23 C152_23 1_555 1_555
N67_23 C26_23 1_555 1_555
C21_23 N63_7 1_555 1_555
C25_23 N63_7 1_555 1_555
C142_23 C152_23 1_555 1_555
C147_23 N57_23 1_555 1_555
C148_23 N58_23 1_555 1_555
C153_23 N66_23 1_555 1_555
C153_23 N67_23 1_555 1_555
C3_23 C2_23 1_555 1_555
H2_23 C3_23 1_555 1_555
C4_23 C3_23 1_555 1_555
H3_23 C4_23 1_555 1_555
C5_23 C4_23 1_555 1_555
C6_23 C5_23 1_555 1_555
H4_23 C6_23 1_555 1_555
C7_23 H5_23 1_555 1_555
C8_23 C7_23 1_555 1_555
H6_23 C8_23 1_555 1_555
C9_23 C8_23 1_555 1_555
H7_23 C9_23 1_555 1_555
C10_23 C9_23 1_555 1_555
C11_23 C10_23 1_555 1_555
H8_23 C11_23 1_555 1_555
C12_23 C10_23 1_555 1_555
C13_23 C5_23 1_555 1_555
C14_23 C15_23 1_555 1_555
C15_23 C16_23 1_555 1_555
C16_23 H9_23 1_555 1_555
C17_23 H10_23 1_555 1_555
C18_23 C17_23 1_555 1_555
H11_23 C18_23 1_555 1_555
C19_23 C15_23 1_555 1_555
H12_23 C19_23 1_555 1_555
N2_23 Co7_9 1_555 1_555
N28_7 C7_23 1_555 1_555
N4_23 C12_23 1_555 1_555
N5_23 C12_23 1_555 1_555
N6_23 C13_23 1_555 1_555
N50_7 C16_23 1_555 1_555
S3_23 C27_23 1_555 1_555
C27_23 N11_23 1_555 1_555
C39_23 C34_23 1_555 1_555
H24_23 C39_23 1_555 1_555
C44_23 C39_23 1_555 1_555
H29_23 C44_23 1_555 1_555
C49_23 C44_23 1_555 1_555
C54_23 C49_23 1_555 1_555
H34_23 C54_23 1_555 1_555
C59_23 H39_23 1_555 1_555
C64_23 C59_23 1_555 1_555
H44_23 C64_23 1_555 1_555
C69_23 C64_23 1_555 1_555
H49_23 C69_23 1_555 1_555
C74_23 C69_23 1_555 1_555
C79_23 C74_23 1_555 1_555
H54_23 C79_23 1_555 1_555
C84_23 C74_23 1_555 1_555
C89_23 C49_23 1_555 1_555
C94_23 C99_23 1_555 1_555
C99_23 C104_23 1_555 1_555
C104_23 H59_23 1_555 1_555
C109_23 H64_23 1_555 1_555
C114_23 C109_23 1_555 1_555
H69_23 C114_23 1_555 1_555
C119_23 C99_23 1_555 1_555
H74_23 C119_23 1_555 1_555
N11_23 Co7_9 1_555 1_555
N24_23 Co7_9 1_555 1_555
N32_23 C84_23 1_555 1_555
N37_23 C84_23 1_555 1_555
N42_23 C89_23 1_555 1_555
N51_7 C104_23 1_555 1_555
C2_23 N2_23 1_555 1_555
C6_23 N2_23 1_555 1_555
C11_23 N28_7 1_555 1_555
C13_23 N4_23 1_555 1_555
C14_23 N5_23 1_555 1_555
C14_23 N6_23 1_555 1_555
C17_23 N50_7 1_555 1_555
C18_23 C19_23 1_555 1_555
C34_23 N21_4 1_555 1_555
C54_23 N21_4 1_555 1_555
C59_23 N24_23 1_555 1_555
C79_23 N24_23 1_555 1_555
C89_23 N32_23 1_555 1_555
C94_23 N37_23 1_555 1_555
C94_23 N42_23 1_555 1_555
C109_23 N51_7 1_555 1_555
C114_23 C119_23 1_555 1_555
Co7_10 N1_23 1_555 1_555
S1_23 C1_23 1_555 1_555
C1_23 N1_23 1_555 1_555
Co5_10 N12_23 1_555 1_555
Co8_4 N26_23 1_555 1_555
Co13_8 N46_23 1_555 1_555
Co16_23 N49_23 1_555 1_555
S4_23 C28_23 1_555 1_555
S5_23 C29_23 1_555 1_555
C28_23 N12_23 1_555 1_555
C29_23 N13_23 1_555 1_555
C33_23 H18_23 1_555 1_555
C36_23 H21_23 1_555 1_555
C38_23 C33_23 1_555 1_555
C41_23 C36_23 1_555 1_555
H23_23 C38_23 1_555 1_555
H26_23 C41_23 1_555 1_555
C43_23 C38_23 1_555 1_555
C46_23 C41_23 1_555 1_555
H28_23 C43_23 1_555 1_555
H31_23 C46_23 1_555 1_555
C48_23 C43_23 1_555 1_555
C51_23 C46_23 1_555 1_555
C53_23 C48_23 1_555 1_555
C56_23 C51_23 1_555 1_555
H33_23 C53_23 1_555 1_555
H36_23 C56_23 1_555 1_555
C58_23 H38_23 1_555 1_555
C61_23 H41_23 1_555 1_555
C63_23 C58_23 1_555 1_555
C66_23 C61_23 1_555 1_555
H43_23 C63_23 1_555 1_555
H46_23 C66_23 1_555 1_555
C68_23 C63_23 1_555 1_555
C71_23 C66_23 1_555 1_555
H48_23 C68_23 1_555 1_555
H51_23 C71_23 1_555 1_555
C73_23 C68_23 1_555 1_555
C76_23 C71_23 1_555 1_555
C78_23 C73_23 1_555 1_555
C81_23 C76_23 1_555 1_555
H53_23 C78_23 1_555 1_555
H56_23 C81_23 1_555 1_555
C83_23 C73_23 1_555 1_555
C86_23 C76_23 1_555 1_555
C88_23 C48_23 1_555 1_555
C91_23 C51_23 1_555 1_555
C93_23 C98_23 1_555 1_555
C96_23 C101_23 1_555 1_555
C98_23 C103_23 1_555 1_555
C101_23 C106_23 1_555 1_555
C103_23 H58_23 1_555 1_555
C106_23 H61_23 1_555 1_555
C108_23 H63_23 1_555 1_555
C111_23 H66_23 1_555 1_555
C113_23 C108_23 1_555 1_555
C116_23 C111_23 1_555 1_555
H68_23 C113_23 1_555 1_555
H71_23 C116_23 1_555 1_555
C118_23 C98_23 1_555 1_555
C121_23 C101_23 1_555 1_555
H73_23 C118_23 1_555 1_555
H76_23 C121_23 1_555 1_555
N13_23 Co5_10 1_555 1_555
N17_23 Co5_10 1_555 1_555
N20_23 Co5_10 1_555 1_555
N23_23 Co7_10 1_555 1_555
N26_23 C61_23 1_555 1_555
N27_23 Co5_10 1_555 1_555
N31_23 C83_23 1_555 1_555
N34_23 C86_23 1_555 1_555
N36_23 C83_23 1_555 1_555
N39_23 C86_23 1_555 1_555
N41_23 C88_23 1_555 1_555
N44_23 C91_23 1_555 1_555
N46_23 C103_23 1_555 1_555
N49_23 C106_23 1_555 1_555
N55_23 Co13_8 1_555 1_555
N56_23 Co13_8 1_555 1_555
C33_23 N17_23 1_555 1_555
C36_23 N20_23 1_555 1_555
C53_23 N17_23 1_555 1_555
C56_23 N20_23 1_555 1_555
C58_23 N23_23 1_555 1_555
C78_23 N23_23 1_555 1_555
C81_23 N26_23 1_555 1_555
C88_23 N31_23 1_555 1_555
C91_23 N34_23 1_555 1_555
C93_23 N36_23 1_555 1_555
C93_23 N41_23 1_555 1_555
C96_23 N39_23 1_555 1_555
C96_23 N44_23 1_555 1_555
C108_23 N46_23 1_555 1_555
C111_23 N49_23 1_555 1_555
C113_23 C118_23 1_555 1_555
C116_23 C121_23 1_555 1_555
S11_23 C125_23 1_555 1_555
S12_23 C126_23 1_555 1_555
Co5_8 N12_24 1_555 1_555
Co8 N26_24 1_555 1_555
Co16_24 N49_24 1_555 1_555
S4_24 C28_24 1_555 1_555
C28_24 N12_24 1_555 1_555
C41_24 C36_24 1_555 1_555
H26_24 C41_24 1_555 1_555
C46_24 C41_24 1_555 1_555
H31_24 C46_24 1_555 1_555
C51_24 C46_24 1_555 1_555
C56_24 C51_24 1_555 1_555
H36_24 C56_24 1_555 1_555
C61_24 H41_24 1_555 1_555
C66_24 C61_24 1_555 1_555
H46_24 C66_24 1_555 1_555
C71_24 C66_24 1_555 1_555
H51_24 C71_24 1_555 1_555
C76_24 C71_24 1_555 1_555
C81_24 C76_24 1_555 1_555
H56_24 C81_24 1_555 1_555
C86_24 C76_24 1_555 1_555
C91_24 C51_24 1_555 1_555
C96_24 C101_24 1_555 1_555
C101_24 C106_24 1_555 1_555
C106_24 H61_24 1_555 1_555
C111_24 H66_24 1_555 1_555
C116_24 C111_24 1_555 1_555
H71_24 C116_24 1_555 1_555
C121_24 C101_24 1_555 1_555
H76_24 C121_24 1_555 1_555
N20_24 Co5_8 1_555 1_555
N26_24 C61_24 1_555 1_555
N27_24 Co5_8 1_555 1_555
N34_24 C86_24 1_555 1_555
N39_24 C86_24 1_555 1_555
N44_24 C91_24 1_555 1_555
N49_24 C106_24 1_555 1_555
C36_24 N20_24 1_555 1_555
C56_24 N20_24 1_555 1_555
C81_24 N26_24 1_555 1_555
C91_24 N34_24 1_555 1_555
C96_24 N39_24 1_555 1_555
C96_24 N44_24 1_555 1_555
C111_24 N49_24 1_555 1_555
C116_24 C121_24 1_555 1_555
Co7_8 N1_24 1_555 1_555
S1_24 C1_24 1_555 1_555
C1_24 N1_24 1_555 1_555
C2_24 H1_24 1_555 1_555
C3_24 C2_24 1_555 1_555
H2_24 C3_24 1_555 1_555
C4_24 C3_24 1_555 1_555
H3_24 C4_24 1_555 1_555
C5_24 C4_24 1_555 1_555
C6_24 C5_24 1_555 1_555
H4_24 C6_24 1_555 1_555
C7_24 H5_24 1_555 1_555
C8_24 C7_24 1_555 1_555
H6_24 C8_24 1_555 1_555
C9_24 C8_24 1_555 1_555
H7_24 C9_24 1_555 1_555
C10_24 C9_24 1_555 1_555
C11_24 C10_24 1_555 1_555
H8_24 C11_24 1_555 1_555
C12_24 C10_24 1_555 1_555
C13_24 C5_24 1_555 1_555
C14_24 C15_24 1_555 1_555
C15_24 C16_24 1_555 1_555
C16_24 H9_24 1_555 1_555
C17_24 H10_24 1_555 1_555
C18_24 C17_24 1_555 1_555
H11_24 C18_24 1_555 1_555
C19_24 C15_24 1_555 1_555
H12_24 C19_24 1_555 1_555
C21_24 H13_24 1_555 1_555
C22_24 C21_24 1_555 1_555
H14_24 C22_24 1_555 1_555
C23_24 C22_24 1_555 1_555
H15_24 C23_24 1_555 1_555
C24_24 C23_24 1_555 1_555
C25_24 C24_24 1_555 1_555
H16_24 C25_24 1_555 1_555
C26_24 C24_24 1_555 1_555
N2_24 Co7_8 1_555 1_555
N28_8 C7_24 1_555 1_555
N4_24 C12_24 1_555 1_555
N5_24 C12_24 1_555 1_555
N6_24 C13_24 1_555 1_555
N50_8 C16_24 1_555 1_555
N10_24 C26_24 1_555 1_555
Co13_7 N46_24 1_555 1_555
Co12_7 N57_24 1_555 1_555
S3_24 C27_24 1_555 1_555
S5_24 C29_24 1_555 1_555
S11_24 C125_24 1_555 1_555
S12_24 C126_24 1_555 1_555
C27_24 N11_24 1_555 1_555
C29_24 N13_24 1_555 1_555
C34_24 H19_24 1_555 1_555
C38_24 C33_24 1_555 1_555
C39_24 C34_24 1_555 1_555
H23_24 C38_24 1_555 1_555
H24_24 C39_24 1_555 1_555
C43_24 C38_24 1_555 1_555
C44_24 C39_24 1_555 1_555
H28_24 C43_24 1_555 1_555
H29_24 C44_24 1_555 1_555
C48_24 C43_24 1_555 1_555
C49_24 C44_24 1_555 1_555
C53_24 C48_24 1_555 1_555
C54_24 C49_24 1_555 1_555
H33_24 C53_24 1_555 1_555
H34_24 C54_24 1_555 1_555
C58_24 H38_24 1_555 1_555
C59_24 H39_24 1_555 1_555
C63_24 C58_24 1_555 1_555
C64_24 C59_24 1_555 1_555
H43_24 C63_24 1_555 1_555
H44_24 C64_24 1_555 1_555
C68_24 C63_24 1_555 1_555
C69_24 C64_24 1_555 1_555
H48_24 C68_24 1_555 1_555
H49_24 C69_24 1_555 1_555
C73_24 C68_24 1_555 1_555
C74_24 C69_24 1_555 1_555
C78_24 C73_24 1_555 1_555
C79_24 C74_24 1_555 1_555
H53_24 C78_24 1_555 1_555
H54_24 C79_24 1_555 1_555
C83_24 C73_24 1_555 1_555
C84_24 C74_24 1_555 1_555
C88_24 C48_24 1_555 1_555
C89_24 C49_24 1_555 1_555
C93_24 C98_24 1_555 1_555
C94_24 C99_24 1_555 1_555
C98_24 C103_24 1_555 1_555
C99_24 C104_24 1_555 1_555
C103_24 H58_24 1_555 1_555
C104_24 H59_24 1_555 1_555
C108_24 H63_24 1_555 1_555
C109_24 H64_24 1_555 1_555
C113_24 C108_24 1_555 1_555
C114_24 C109_24 1_555 1_555
H68_24 C113_24 1_555 1_555
H69_24 C114_24 1_555 1_555
C118_24 C98_24 1_555 1_555
C119_24 C99_24 1_555 1_555
H73_24 C118_24 1_555 1_555
H74_24 C119_24 1_555 1_555
C125_24 N55_24 1_555 1_555
C126_24 N56_24 1_555 1_555
C127_24 H77_24 1_555 1_555
C128_24 H78_24 1_555 1_555
C132_24 C127_24 1_555 1_555
C133_24 C128_24 1_555 1_555
H82_24 C132_24 1_555 1_555
H83_24 C133_24 1_555 1_555
C137_24 C132_24 1_555 1_555
C138_24 C133_24 1_555 1_555
H87_24 C137_24 1_555 1_555
H88_24 C138_24 1_555 1_555
C142_24 C137_24 1_555 1_555
C143_24 C138_24 1_555 1_555
C147_24 C142_24 1_555 1_555
C148_24 C143_24 1_555 1_555
H92_24 C147_24 1_555 1_555
H93_24 C148_24 1_555 1_555
C152_24 N10_24 1_555 1_555
C153_24 C143_24 1_555 1_555
N11_24 Co7_8 1_555 1_555
N13_24 Co5_9 1_555 1_555
N17_24 Co5_9 1_555 1_555
N23_24 Co7_8 1_555 1_555
N24_24 Co7_8 1_555 1_555
N31_24 C83_24 1_555 1_555
N32_24 C84_24 1_555 1_555
N36_24 C83_24 1_555 1_555
N37_24 C84_24 1_555 1_555
N41_24 C88_24 1_555 1_555
N42_24 C89_24 1_555 1_555
N46_24 C103_24 1_555 1_555
N51_8 C104_24 1_555 1_555
N55_24 Co13_7 1_555 1_555
N56_24 Co13_7 1_555 1_555
N57_24 C127_24 1_555 1_555
N58_24 C128_24 1_555 1_555
N64_24 Co13_7 1_555 1_555
N65_24 Co13_7 1_555 1_555
N66_24 C152_24 1_555 1_555
N67_24 C26_24 1_555 1_555
C2_24 N2_24 1_555 1_555
C6_24 N2_24 1_555 1_555
C11_24 N28_8 1_555 1_555
C13_24 N4_24 1_555 1_555
C14_24 N5_24 1_555 1_555
C14_24 N6_24 1_555 1_555
C17_24 N50_8 1_555 1_555
C18_24 C19_24 1_555 1_555
C21_24 N63_8 1_555 1_555
C25_24 N63_8 1_555 1_555
C33_24 N17_24 1_555 1_555
C34_24 N21 1_555 1_555
C53_24 N17_24 1_555 1_555
C54_24 N21 1_555 1_555
C58_24 N23_24 1_555 1_555
C59_24 N24_24 1_555 1_555
C78_24 N23_24 1_555 1_555
C79_24 N24_24 1_555 1_555
C88_24 N31_24 1_555 1_555
C89_24 N32_24 1_555 1_555
C93_24 N36_24 1_555 1_555
C93_24 N41_24 1_555 1_555
C94_24 N37_24 1_555 1_555
C94_24 N42_24 1_555 1_555
C108_24 N46_24 1_555 1_555
C109_24 N51_8 1_555 1_555
C113_24 C118_24 1_555 1_555
C114_24 C119_24 1_555 1_555
C142_24 C152_24 1_555 1_555
C147_24 N57_24 1_555 1_555
C148_24 N58_24 1_555 1_555
C153_24 N66_24 1_555 1_555
C153_24 N67_24 1_555 1_555
S9_13 C123_13 1_555 1_555
S10_13 C124_13 1_555 1_555
Co8_7 N1_25 1_555 1_555
Co11_5 N7_13 1_555 1_555
S1_25 C1_25 1_555 1_555
S2_13 C20_13 1_555 1_555
C1_25 N1_25 1_555 1_555
C2_25 H1_25 1_555 1_555
C3_25 C2_25 1_555 1_555
H2_25 C3_25 1_555 1_555
C4_25 C3_25 1_555 1_555
H3_25 C4_25 1_555 1_555
C5_25 C4_25 1_555 1_555
C6_25 C5_25 1_555 1_555
H4_25 C6_25 1_555 1_555
C7_25 H5_25 1_555 1_555
C8_25 C7_25 1_555 1_555
H6_25 C8_25 1_555 1_555
C9_25 C8_25 1_555 1_555
H7_25 C9_25 1_555 1_555
C10_25 C9_25 1_555 1_555
C11_25 C10_25 1_555 1_555
H8_25 C11_25 1_555 1_555
C12_25 C10_25 1_555 1_555
C13_25 C5_25 1_555 1_555
C14_25 C15_25 1_555 1_555
C15_25 C16_25 1_555 1_555
C16_25 H9_25 1_555 1_555
C17_25 H10_25 1_555 1_555
C18_25 C17_25 1_555 1_555
H11_25 C18_25 1_555 1_555
C19_25 C15_25 1_555 1_555
H12_25 C19_25 1_555 1_555
C20_13 N8_13 1_555 1_555
N2_25 Co8_7 1_555 1_555
N3_13 C7_25 1_555 1_555
N4_25 C12_25 1_555 1_555
N5_25 C12_25 1_555 1_555
N6_25 C13_25 1_555 1_555
N7_13 C16_25 1_555 1_555
N8_13 Co11_5 1_555 1_555
Co5_17 N3_13 1_555 1_555
Co6_6 N22_5 1_555 1_555
Co7_16 N19_13 1_555 1_555
Co11_13 N45_13 1_555 1_555
S3_25 C27_25 1_555 1_555
S8_13 C122_13 1_555 1_555
S11_25 C125_25 1_555 1_555
S12_25 C126_25 1_555 1_555
C27_25 N11_25 1_555 1_555
C32_13 H17_13 1_555 1_555
C35_13 H20_13 1_555 1_555
C37_13 C32_13 1_555 1_555
C40_13 C35_13 1_555 1_555
H22_13 C37_13 1_555 1_555
H25_13 C40_13 1_555 1_555
C42_13 C37_13 1_555 1_555
C45_13 C40_13 1_555 1_555
H27_13 C42_13 1_555 1_555
H30_13 C45_13 1_555 1_555
C47_13 C42_13 1_555 1_555
C50_13 C45_13 1_555 1_555
C52_13 C47_13 1_555 1_555
C55_13 C50_13 1_555 1_555
H32_13 C52_13 1_555 1_555
H35_13 C55_13 1_555 1_555
C57_13 H37_13 1_555 1_555
C60_13 H40_13 1_555 1_555
C62_13 C57_13 1_555 1_555
C65_13 C60_13 1_555 1_555
H42_13 C62_13 1_555 1_555
H45_13 C65_13 1_555 1_555
C67_13 C62_13 1_555 1_555
C70_13 C65_13 1_555 1_555
H47_13 C67_13 1_555 1_555
H50_13 C70_13 1_555 1_555
C72_13 C67_13 1_555 1_555
C75_13 C70_13 1_555 1_555
C77_13 C72_13 1_555 1_555
C80_13 C75_13 1_555 1_555
H52_13 C77_13 1_555 1_555
H55_13 C80_13 1_555 1_555
C82_13 C72_13 1_555 1_555
C85_13 C75_13 1_555 1_555
C87_13 C47_13 1_555 1_555
C90_13 C50_13 1_555 1_555
C92_13 C97_13 1_555 1_555
C95_13 C100_13 1_555 1_555
C97_13 C102_13 1_555 1_555
C100_13 C105_13 1_555 1_555
C102_13 H57_13 1_555 1_555
C105_13 H60_13 1_555 1_555
C107_13 H62_13 1_555 1_555
C110_13 H65_13 1_555 1_555
C112_13 C107_13 1_555 1_555
C115_13 C110_13 1_555 1_555
H67_13 C112_13 1_555 1_555
H70_13 C115_13 1_555 1_555
C117_13 C97_13 1_555 1_555
C120_13 C100_13 1_555 1_555
H72_13 C117_13 1_555 1_555
H75_13 C120_13 1_555 1_555
C122_13 N52_13 1_555 1_555
C125_25 N55_25 1_555 1_555
C126_25 N56_25 1_555 1_555
N11_25 Co8_7 1_555 1_555
N16_13 Co8_7 1_555 1_555
N19_13 C35_13 1_555 1_555
N22_5 C57_13 1_555 1_555
N30_13 C82_13 1_555 1_555
N33_13 C85_13 1_555 1_555
N35_13 C82_13 1_555 1_555
N38_13 C85_13 1_555 1_555
N40_13 C87_13 1_555 1_555
N43_13 C90_13 1_555 1_555
N45_13 C102_13 1_555 1_555
N48_13 Co11_5 1_555 1_555
N50_13 Co11_13 1_555 1_555
N51_13 Co16_18 1_555 1_555
N52_13 Co11_5 1_555 1_555
N53_13 Co11_13 1_555 1_555
N54_13 Co11_13 1_555 1_555
N55_25 Co16_18 1_555 1_555
N56_25 Co16_18 1_555 1_555
N64_25 Co16_18 1_555 1_555
N65_25 Co16_18 1_555 1_555
C2_25 N2_25 1_555 1_555
C6_25 N2_25 1_555 1_555
C11_25 N3_13 1_555 1_555
C13_25 N4_25 1_555 1_555
C14_25 N5_25 1_555 1_555
C14_25 N6_25 1_555 1_555
C17_25 N7_13 1_555 1_555
C18_25 C19_25 1_555 1_555
C32_13 N16_13 1_555 1_555
C52_13 N16_13 1_555 1_555
C55_13 N19_13 1_555 1_555
C60_13 N27_6 1_555 1_555
C77_13 N22_5 1_555 1_555
C80_13 N27_6 1_555 1_555
C87_13 N30_13 1_555 1_555
C90_13 N33_13 1_555 1_555
C92_13 N35_13 1_555 1_555
C92_13 N40_13 1_555 1_555
C95_13 N38_13 1_555 1_555
C95_13 N43_13 1_555 1_555
C105_13 N48_13 1_555 1_555
C107_13 N45_13 1_555 1_555
C110_13 N48_13 1_555 1_555
C112_13 C117_13 1_555 1_555
C115_13 C120_13 1_555 1_555
S11_26 C125_26 1_555 1_555
S12_26 C126_26 1_555 1_555
Co8_9 N1_26 1_555 1_555
S1_26 C1_26 1_555 1_555
C1_26 N1_26 1_555 1_555
Co6_7 N22_6 1_555 1_555
Co11_15 N45_14 1_555 1_555
S9_14 C123_14 1_555 1_555
S10_14 C124_14 1_555 1_555
C37_14 C32_14 1_555 1_555
H22_14 C37_14 1_555 1_555
C42_14 C37_14 1_555 1_555
H27_14 C42_14 1_555 1_555
C47_14 C42_14 1_555 1_555
C52_14 C47_14 1_555 1_555
H32_14 C52_14 1_555 1_555
C57_14 H37_14 1_555 1_555
C62_14 C57_14 1_555 1_555
H42_14 C62_14 1_555 1_555
C67_14 C62_14 1_555 1_555
H47_14 C67_14 1_555 1_555
C72_14 C67_14 1_555 1_555
C77_14 C72_14 1_555 1_555
H52_14 C77_14 1_555 1_555
C82_14 C72_14 1_555 1_555
C87_14 C47_14 1_555 1_555
C92_14 C97_14 1_555 1_555
C97_14 C102_14 1_555 1_555
C102_14 H57_14 1_555 1_555
C107_14 H62_14 1_555 1_555
C112_14 C107_14 1_555 1_555
H67_14 C112_14 1_555 1_555
C117_14 C97_14 1_555 1_555
H72_14 C117_14 1_555 1_555
C123_14 N53_14 1_555 1_555
C124_14 N54_14 1_555 1_555
N16_14 Co8_9 1_555 1_555
N22_6 C57_14 1_555 1_555
N30_14 C82_14 1_555 1_555
N35_14 C82_14 1_555 1_555
N40_14 C87_14 1_555 1_555
N45_14 C102_14 1_555 1_555
N50_14 Co11_15 1_555 1_555
N51_14 Co16_20 1_555 1_555
N53_14 Co11_15 1_555 1_555
N54_14 Co11_15 1_555 1_555
N55_26 Co16_20 1_555 1_555
N56_26 Co16_20 1_555 1_555
C32_14 N16_14 1_555 1_555
C52_14 N16_14 1_555 1_555
C77_14 N22_6 1_555 1_555
C87_14 N30_14 1_555 1_555
C92_14 N35_14 1_555 1_555
C92_14 N40_14 1_555 1_555
C107_14 N45_14 1_555 1_555
C112_14 C117_14 1_555 1_555
Co11_7 N7_14 1_555 1_555
S2_14 C20_14 1_555 1_555
C3_26 C2_26 1_555 1_555
H2_26 C3_26 1_555 1_555
C4_26 C3_26 1_555 1_555
H3_26 C4_26 1_555 1_555
C5_26 C4_26 1_555 1_555
C6_26 C5_26 1_555 1_555
H4_26 C6_26 1_555 1_555
C7_26 H5_26 1_555 1_555
C8_26 C7_26 1_555 1_555
H6_26 C8_26 1_555 1_555
C9_26 C8_26 1_555 1_555
H7_26 C9_26 1_555 1_555
C10_26 C9_26 1_555 1_555
C11_26 C10_26 1_555 1_555
H8_26 C11_26 1_555 1_555
C12_26 C10_26 1_555 1_555
C13_26 C5_26 1_555 1_555
C14_26 C15_26 1_555 1_555
C15_26 C16_26 1_555 1_555
C16_26 H9_26 1_555 1_555
C17_26 H10_26 1_555 1_555
C18_26 C17_26 1_555 1_555
H11_26 C18_26 1_555 1_555
C19_26 C15_26 1_555 1_555
H12_26 C19_26 1_555 1_555
C20_14 N8_14 1_555 1_555
N2_26 Co8_10 1_555 1_555
N3_14 C7_26 1_555 1_555
N4_26 C12_26 1_555 1_555
N5_26 C12_26 1_555 1_555
N6_26 C13_26 1_555 1_555
N7_14 C16_26 1_555 1_555
N8_14 Co11_7 1_555 1_555
Co5_18 N3_14 1_555 1_555
Co7_17 N19_14 1_555 1_555
S3_26 C27_26 1_555 1_555
S8_14 C122_14 1_555 1_555
C27_26 N11_26 1_555 1_555
C35_14 H20_14 1_555 1_555
C40_14 C35_14 1_555 1_555
H25_14 C40_14 1_555 1_555
C45_14 C40_14 1_555 1_555
H30_14 C45_14 1_555 1_555
C50_14 C45_14 1_555 1_555
C55_14 C50_14 1_555 1_555
H35_14 C55_14 1_555 1_555
C60_14 H40_14 1_555 1_555
C65_14 C60_14 1_555 1_555
H45_14 C65_14 1_555 1_555
C70_14 C65_14 1_555 1_555
H50_14 C70_14 1_555 1_555
C75_14 C70_14 1_555 1_555
C80_14 C75_14 1_555 1_555
H55_14 C80_14 1_555 1_555
C85_14 C75_14 1_555 1_555
C90_14 C50_14 1_555 1_555
C95_14 C100_14 1_555 1_555
C100_14 C105_14 1_555 1_555
C105_14 H60_14 1_555 1_555
C110_14 H65_14 1_555 1_555
C115_14 C110_14 1_555 1_555
H70_14 C115_14 1_555 1_555
C120_14 C100_14 1_555 1_555
H75_14 C120_14 1_555 1_555
C122_14 N52_14 1_555 1_555
N11_26 Co8_10 1_555 1_555
N19_14 C35_14 1_555 1_555
N33_14 C85_14 1_555 1_555
N38_14 C85_14 1_555 1_555
N43_14 C90_14 1_555 1_555
N48_14 Co11_7 1_555 1_555
N52_14 Co11_7 1_555 1_555
C2_26 N2_26 1_555 1_555
C6_26 N2_26 1_555 1_555
C11_26 N3_14 1_555 1_555
C13_26 N4_26 1_555 1_555
C14_26 N5_26 1_555 1_555
C14_26 N6_26 1_555 1_555
C17_26 N7_14 1_555 1_555
C18_26 C19_26 1_555 1_555
C55_14 N19_14 1_555 1_555
C60_14 N27_8 1_555 1_555
C80_14 N27_8 1_555 1_555
C90_14 N33_14 1_555 1_555
C95_14 N38_14 1_555 1_555
C95_14 N43_14 1_555 1_555
C105_14 N48_14 1_555 1_555
C110_14 N48_14 1_555 1_555
C115_14 C120_14 1_555 1_555
Co8_8 N1_27 1_555 1_555
Co11_8 N7_15 1_555 1_555
S1_27 C1_27 1_555 1_555
C1_27 N1_27 1_555 1_555
C2_27 H1_27 1_555 1_555
C3_27 C2_27 1_555 1_555
H2_27 C3_27 1_555 1_555
C4_27 C3_27 1_555 1_555
H3_27 C4_27 1_555 1_555
C5_27 C4_27 1_555 1_555
C6_27 C5_27 1_555 1_555
H4_27 C6_27 1_555 1_555
C7_27 H5_27 1_555 1_555
C8_27 C7_27 1_555 1_555
H6_27 C8_27 1_555 1_555
C9_27 C8_27 1_555 1_555
H7_27 C9_27 1_555 1_555
C10_27 C9_27 1_555 1_555
C11_27 C10_27 1_555 1_555
H8_27 C11_27 1_555 1_555
C12_27 C10_27 1_555 1_555
C13_27 C5_27 1_555 1_555
C14_27 C15_27 1_555 1_555
C15_27 C16_27 1_555 1_555
C16_27 H9_27 1_555 1_555
C17_27 H10_27 1_555 1_555
C18_27 C17_27 1_555 1_555
H11_27 C18_27 1_555 1_555
C19_27 C15_27 1_555 1_555
H12_27 C19_27 1_555 1_555
N2_27 Co8_8 1_555 1_555
N3_15 C7_27 1_555 1_555
N4_27 C12_27 1_555 1_555
N5_27 C12_27 1_555 1_555
N6_27 C13_27 1_555 1_555
N7_15 C16_27 1_555 1_555
N8_15 Co11_8 1_555 1_555
Co5_19 N3_15 1_555 1_555
Co6_8 N22_7 1_555 1_555
Co7_19 N19_15 1_555 1_555
Co11_14 N45_15 1_555 1_555
S3_27 C27_27 1_555 1_555
S9_15 C123_15 1_555 1_555
S10_15 C124_15 1_555 1_555
S11_27 C125_27 1_555 1_555
S12_27 C126_27 1_555 1_555
C27_27 N11_27 1_555 1_555
C32_15 H17_15 1_555 1_555
C37_15 C32_15 1_555 1_555
C40_15 C35_15 1_555 1_555
H22_15 C37_15 1_555 1_555
H25_15 C40_15 1_555 1_555
C42_15 C37_15 1_555 1_555
C45_15 C40_15 1_555 1_555
H27_15 C42_15 1_555 1_555
H30_15 C45_15 1_555 1_555
C47_15 C42_15 1_555 1_555
C50_15 C45_15 1_555 1_555
C52_15 C47_15 1_555 1_555
C55_15 C50_15 1_555 1_555
H32_15 C52_15 1_555 1_555
H35_15 C55_15 1_555 1_555
C57_15 H37_15 1_555 1_555
C60_15 H40_15 1_555 1_555
C62_15 C57_15 1_555 1_555
C65_15 C60_15 1_555 1_555
H42_15 C62_15 1_555 1_555
H45_15 C65_15 1_555 1_555
C67_15 C62_15 1_555 1_555
C70_15 C65_15 1_555 1_555
H47_15 C67_15 1_555 1_555
H50_15 C70_15 1_555 1_555
C72_15 C67_15 1_555 1_555
C75_15 C70_15 1_555 1_555
C77_15 C72_15 1_555 1_555
C80_15 C75_15 1_555 1_555
H52_15 C77_15 1_555 1_555
H55_15 C80_15 1_555 1_555
C82_15 C72_15 1_555 1_555
C85_15 C75_15 1_555 1_555
C87_15 C47_15 1_555 1_555
C90_15 C50_15 1_555 1_555
C92_15 C97_15 1_555 1_555
C95_15 C100_15 1_555 1_555
C97_15 C102_15 1_555 1_555
C100_15 C105_15 1_555 1_555
C102_15 H57_15 1_555 1_555
C105_15 H60_15 1_555 1_555
C107_15 H62_15 1_555 1_555
C110_15 H65_15 1_555 1_555
C112_15 C107_15 1_555 1_555
C115_15 C110_15 1_555 1_555
H67_15 C112_15 1_555 1_555
H70_15 C115_15 1_555 1_555
C117_15 C97_15 1_555 1_555
C120_15 C100_15 1_555 1_555
H72_15 C117_15 1_555 1_555
H75_15 C120_15 1_555 1_555
C123_15 N53_15 1_555 1_555
C124_15 N54_15 1_555 1_555
C125_27 N55_27 1_555 1_555
C126_27 N56_27 1_555 1_555
N11_27 Co8_8 1_555 1_555
N16_15 Co8_8 1_555 1_555
N19_15 C35_15 1_555 1_555
N22_7 C57_15 1_555 1_555
N30_15 C82_15 1_555 1_555
N33_15 C85_15 1_555 1_555
N35_15 C82_15 1_555 1_555
N38_15 C85_15 1_555 1_555
N40_15 C87_15 1_555 1_555
N43_15 C90_15 1_555 1_555
N45_15 C102_15 1_555 1_555
N48_15 Co11_8 1_555 1_555
N50_15 Co11_14 1_555 1_555
N51_15 Co16_17 1_555 1_555
N52_15 Co11_8 1_555 1_555
N53_15 Co11_14 1_555 1_555
N54_15 Co11_14 1_555 1_555
N55_27 Co16_17 1_555 1_555
N56_27 Co16_17 1_555 1_555
N64_27 Co16_17 1_555 1_555
N65_27 Co16_17 1_555 1_555
C2_27 N2_27 1_555 1_555
C6_27 N2_27 1_555 1_555
C11_27 N3_15 1_555 1_555
C13_27 N4_27 1_555 1_555
C14_27 N5_27 1_555 1_555
C14_27 N6_27 1_555 1_555
C17_27 N7_15 1_555 1_555
C18_27 C19_27 1_555 1_555
C32_15 N16_15 1_555 1_555
C52_15 N16_15 1_555 1_555
C55_15 N19_15 1_555 1_555
C60_15 N27_7 1_555 1_555
C77_15 N22_7 1_555 1_555
C80_15 N27_7 1_555 1_555
C87_15 N30_15 1_555 1_555
C90_15 N33_15 1_555 1_555
C92_15 N35_15 1_555 1_555
C92_15 N40_15 1_555 1_555
C95_15 N38_15 1_555 1_555
C95_15 N43_15 1_555 1_555
C105_15 N48_15 1_555 1_555
C107_15 N45_15 1_555 1_555
C110_15 N48_15 1_555 1_555
C112_15 C117_15 1_555 1_555
C115_15 C120_15 1_555 1_555
S2_15 C20_15 1_555 1_555
S8_15 C122_15 1_555 1_555
Co8_6 N1_28 1_555 1_555
Co11_6 N7_16 1_555 1_555
S1_28 C1_28 1_555 1_555
S2_16 C20_16 1_555 1_555
C1_28 N1_28 1_555 1_555
C2_28 H1_28 1_555 1_555
C3_28 C2_28 1_555 1_555
H2_28 C3_28 1_555 1_555
C4_28 C3_28 1_555 1_555
H3_28 C4_28 1_555 1_555
C5_28 C4_28 1_555 1_555
C6_28 C5_28 1_555 1_555
H4_28 C6_28 1_555 1_555
C7_28 H5_28 1_555 1_555
C8_28 C7_28 1_555 1_555
H6_28 C8_28 1_555 1_555
C9_28 C8_28 1_555 1_555
H7_28 C9_28 1_555 1_555
C10_28 C9_28 1_555 1_555
C11_28 C10_28 1_555 1_555
H8_28 C11_28 1_555 1_555
C12_28 C10_28 1_555 1_555
C13_28 C5_28 1_555 1_555
C14_28 C15_28 1_555 1_555
C15_28 C16_28 1_555 1_555
C16_28 H9_28 1_555 1_555
C17_28 H10_28 1_555 1_555
C18_28 C17_28 1_555 1_555
H11_28 C18_28 1_555 1_555
C19_28 C15_28 1_555 1_555
H12_28 C19_28 1_555 1_555
C20_16 N8_16 1_555 1_555
N2_28 Co8_6 1_555 1_555
N3_16 C7_28 1_555 1_555
N4_28 C12_28 1_555 1_555
N5_28 C12_28 1_555 1_555
N6_28 C13_28 1_555 1_555
N7_16 C16_28 1_555 1_555
N8_16 Co11_6 1_555 1_555
Co5_20 N3_16 1_555 1_555
Co6_10 N22_8 1_555 1_555
Co7_20 N19_16 1_555 1_555
Co11_16 N45_16 1_555 1_555
S3_28 C27_28 1_555 1_555
S8_16 C122_16 1_555 1_555
S9_16 C123_16 1_555 1_555
S10_16 C124_16 1_555 1_555
S11_28 C125_28 1_555 1_555
S12_28 C126_28 1_555 1_555
C27_28 N11_28 1_555 1_555
C32_16 H17_16 1_555 1_555
C35_16 H20_16 1_555 1_555
C37_16 C32_16 1_555 1_555
C40_16 C35_16 1_555 1_555
H22_16 C37_16 1_555 1_555
H25_16 C40_16 1_555 1_555
C42_16 C37_16 1_555 1_555
C45_16 C40_16 1_555 1_555
H27_16 C42_16 1_555 1_555
H30_16 C45_16 1_555 1_555
C47_16 C42_16 1_555 1_555
C50_16 C45_16 1_555 1_555
C52_16 C47_16 1_555 1_555
C55_16 C50_16 1_555 1_555
H32_16 C52_16 1_555 1_555
H35_16 C55_16 1_555 1_555
C57_16 H37_16 1_555 1_555
C60_16 H40_16 1_555 1_555
C62_16 C57_16 1_555 1_555
C65_16 C60_16 1_555 1_555
H42_16 C62_16 1_555 1_555
H45_16 C65_16 1_555 1_555
C67_16 C62_16 1_555 1_555
C70_16 C65_16 1_555 1_555
H47_16 C67_16 1_555 1_555
H50_16 C70_16 1_555 1_555
C72_16 C67_16 1_555 1_555
C75_16 C70_16 1_555 1_555
C77_16 C72_16 1_555 1_555
C80_16 C75_16 1_555 1_555
H52_16 C77_16 1_555 1_555
H55_16 C80_16 1_555 1_555
C82_16 C72_16 1_555 1_555
C85_16 C75_16 1_555 1_555
C87_16 C47_16 1_555 1_555
C90_16 C50_16 1_555 1_555
C92_16 C97_16 1_555 1_555
C95_16 C100_16 1_555 1_555
C97_16 C102_16 1_555 1_555
C100_16 C105_16 1_555 1_555
C102_16 H57_16 1_555 1_555
C105_16 H60_16 1_555 1_555
C107_16 H62_16 1_555 1_555
C110_16 H65_16 1_555 1_555
C112_16 C107_16 1_555 1_555
C115_16 C110_16 1_555 1_555
H67_16 C112_16 1_555 1_555
H70_16 C115_16 1_555 1_555
C117_16 C97_16 1_555 1_555
C120_16 C100_16 1_555 1_555
H72_16 C117_16 1_555 1_555
H75_16 C120_16 1_555 1_555
C122_16 N52_16 1_555 1_555
C123_16 N53_16 1_555 1_555
C124_16 N54_16 1_555 1_555
C125_28 N55_28 1_555 1_555
C126_28 N56_28 1_555 1_555
N11_28 Co8_6 1_555 1_555
N16_16 Co8_6 1_555 1_555
N19_16 C35_16 1_555 1_555
N22_8 C57_16 1_555 1_555
N30_16 C82_16 1_555 1_555
N33_16 C85_16 1_555 1_555
N35_16 C82_16 1_555 1_555
N38_16 C85_16 1_555 1_555
N40_16 C87_16 1_555 1_555
N43_16 C90_16 1_555 1_555
N45_16 C102_16 1_555 1_555
N48_16 Co11_6 1_555 1_555
N50_16 Co11_16 1_555 1_555
N51_16 Co16_19 1_555 1_555
N52_16 Co11_6 1_555 1_555
N53_16 Co11_16 1_555 1_555
N54_16 Co11_16 1_555 1_555
N55_28 Co16_19 1_555 1_555
N56_28 Co16_19 1_555 1_555
N64_28 Co16_19 1_555 1_555
N65_28 Co16_19 1_555 1_555
C2_28 N2_28 1_555 1_555
C6_28 N2_28 1_555 1_555
C11_28 N3_16 1_555 1_555
C13_28 N4_28 1_555 1_555
C14_28 N5_28 1_555 1_555
C14_28 N6_28 1_555 1_555
C17_28 N7_16 1_555 1_555
C18_28 C19_28 1_555 1_555
C32_16 N16_16 1_555 1_555
C52_16 N16_16 1_555 1_555
C55_16 N19_16 1_555 1_555
C60_16 N27_5 1_555 1_555
C77_16 N22_8 1_555 1_555
C80_16 N27_5 1_555 1_555
C87_16 N30_16 1_555 1_555
C90_16 N33_16 1_555 1_555
C92_16 N35_16 1_555 1_555
C92_16 N40_16 1_555 1_555
C95_16 N38_16 1_555 1_555
C95_16 N43_16 1_555 1_555
C105_16 N48_16 1_555 1_555
C107_16 N45_16 1_555 1_555
C110_16 N48_16 1_555 1_555
C112_16 C117_16 1_555 1_555
C115_16 C120_16 1_555 1_555
Co1_16 N1_29 1_555 1_555
Co11_2 N7_17 1_555 1_555
S1_29 C1_29 1_555 1_555
S2_17 C20_17 1_555 1_555
C1_29 N1_29 1_555 1_555
C2_29 H1_29 1_555 1_555
C3_29 C2_29 1_555 1_555
H2_29 C3_29 1_555 1_555
C4_29 C3_29 1_555 1_555
H3_29 C4_29 1_555 1_555
C5_29 C4_29 1_555 1_555
C6_29 C5_29 1_555 1_555
H4_29 C6_29 1_555 1_555
C7_29 H5_29 1_555 1_555
C8_29 C7_29 1_555 1_555
H6_29 C8_29 1_555 1_555
C9_29 C8_29 1_555 1_555
H7_29 C9_29 1_555 1_555
C10_29 C9_29 1_555 1_555
C11_29 C10_29 1_555 1_555
H8_29 C11_29 1_555 1_555
C12_29 C10_29 1_555 1_555
C13_29 C5_29 1_555 1_555
C14_29 C15_29 1_555 1_555
C15_29 C16_29 1_555 1_555
C16_29 H9_29 1_555 1_555
C17_29 H10_29 1_555 1_555
C18_29 C17_29 1_555 1_555
H11_29 C18_29 1_555 1_555
C19_29 C15_29 1_555 1_555
H12_29 C19_29 1_555 1_555
C20_17 N8_17 1_555 1_555
N2_29 Co1_16 1_555 1_555
N27 C7_29 1_555 1_555
N4_29 C12_29 1_555 1_555
N5_29 C12_29 1_555 1_555
N6_29 C13_29 1_555 1_555
N7_17 C16_29 1_555 1_555
N8_17 Co11_2 1_555 1_555
Co6_10 N14_13 1_555 1_555
Co8 N19_17 1_555 1_555
Co12_8 N45_17 1_555 1_555
Co16_22 N46_25 1_555 1_555
Co16 N47_13 1_555 1_555
S3_29 C27_29 1_555 1_555
S5_25 C29_25 1_555 1_555
S6_13 C30_13 1_555 1_555
S7_13 C31_13 1_555 1_555
S8_17 C122_17 1_555 1_555
S9_17 C123_17 1_555 1_555
S10_17 C124_17 1_555 1_555
S11_29 C125_29 1_555 1_555
S12_29 C126_29 1_555 1_555
C27_29 N11_29 1_555 1_555
C29_25 N13_25 1_555 1_555
C30_13 N14_13 1_555 1_555
C31_13 N15_13 1_555 1_555
C32_17 H17_17 1_555 1_555
C34_25 H19_25 1_555 1_555
C35_17 H20_17 1_555 1_555
C37_17 C32_17 1_555 1_555
C38_25 C33_25 1_555 1_555
C39_25 C34_25 1_555 1_555
C40_17 C35_17 1_555 1_555
H22_17 C37_17 1_555 1_555
H23_25 C38_25 1_555 1_555
H24_25 C39_25 1_555 1_555
H25_17 C40_17 1_555 1_555
C42_17 C37_17 1_555 1_555
C43_25 C38_25 1_555 1_555
C44_25 C39_25 1_555 1_555
C45_17 C40_17 1_555 1_555
H27_17 C42_17 1_555 1_555
H28_25 C43_25 1_555 1_555
H29_25 C44_25 1_555 1_555
H30_17 C45_17 1_555 1_555
C47_17 C42_17 1_555 1_555
C48_25 C43_25 1_555 1_555
C49_25 C44_25 1_555 1_555
C50_17 C45_17 1_555 1_555
C52_17 C47_17 1_555 1_555
C53_25 C48_25 1_555 1_555
C54_25 C49_25 1_555 1_555
C55_17 C50_17 1_555 1_555
H32_17 C52_17 1_555 1_555
H33_25 C53_25 1_555 1_555
H34_25 C54_25 1_555 1_555
H35_17 C55_17 1_555 1_555
C57_17 H37_17 1_555 1_555
C58_25 H38_25 1_555 1_555
C59_25 H39_25 1_555 1_555
C60_17 H40_17 1_555 1_555
C62_17 C57_17 1_555 1_555
C63_25 C58_25 1_555 1_555
C64_25 C59_25 1_555 1_555
C65_17 C60_17 1_555 1_555
H42_17 C62_17 1_555 1_555
H43_25 C63_25 1_555 1_555
H44_25 C64_25 1_555 1_555
H45_17 C65_17 1_555 1_555
C67_17 C62_17 1_555 1_555
C68_25 C63_25 1_555 1_555
C69_25 C64_25 1_555 1_555
C70_17 C65_17 1_555 1_555
H47_17 C67_17 1_555 1_555
H48_25 C68_25 1_555 1_555
H49_25 C69_25 1_555 1_555
H50_17 C70_17 1_555 1_555
C72_17 C67_17 1_555 1_555
C73_25 C68_25 1_555 1_555
C74_25 C69_25 1_555 1_555
C75_17 C70_17 1_555 1_555
C77_17 C72_17 1_555 1_555
C78_25 C73_25 1_555 1_555
C79_25 C74_25 1_555 1_555
C80_17 C75_17 1_555 1_555
H52_17 C77_17 1_555 1_555
H53_25 C78_25 1_555 1_555
H54_25 C79_25 1_555 1_555
H55_17 C80_17 1_555 1_555
C82_17 C72_17 1_555 1_555
C83_25 C73_25 1_555 1_555
C84_25 C74_25 1_555 1_555
C85_17 C75_17 1_555 1_555
C87_17 C47_17 1_555 1_555
C88_25 C48_25 1_555 1_555
C89_25 C49_25 1_555 1_555
C90_17 C50_17 1_555 1_555
C92_17 C97_17 1_555 1_555
C93_25 C98_25 1_555 1_555
C94_25 C99_25 1_555 1_555
C95_17 C100_17 1_555 1_555
C97_17 C102_17 1_555 1_555
C98_25 C103_25 1_555 1_555
C99_25 C104_25 1_555 1_555
C100_17 C105_17 1_555 1_555
C102_17 H57_17 1_555 1_555
C103_25 H58_25 1_555 1_555
C104_25 H59_25 1_555 1_555
C105_17 H60_17 1_555 1_555
C107_17 H62_17 1_555 1_555
C108_25 H63_25 1_555 1_555
C109_25 H64_25 1_555 1_555
C110_17 H65_17 1_555 1_555
C112_17 C107_17 1_555 1_555
C113_25 C108_25 1_555 1_555
C114_25 C109_25 1_555 1_555
C115_17 C110_17 1_555 1_555
H67_17 C112_17 1_555 1_555
H68_25 C113_25 1_555 1_555
H69_25 C114_25 1_555 1_555
H70_17 C115_17 1_555 1_555
C117_17 C97_17 1_555 1_555
C118_25 C98_25 1_555 1_555
C119_25 C99_25 1_555 1_555
C120_17 C100_17 1_555 1_555
H72_17 C117_17 1_555 1_555
H73_25 C118_25 1_555 1_555
H74_25 C119_25 1_555 1_555
H75_17 C120_17 1_555 1_555
C122_17 N52_17 1_555 1_555
C123_17 N53_17 1_555 1_555
C124_17 N54_17 1_555 1_555
C125_29 N55_29 1_555 1_555
C126_29 N56_29 1_555 1_555
N11_29 Co1_16 1_555 1_555
N13_25 Co3_16 1_555 1_555
N15_13 Co6_10 1_555 1_555
N16_17 Co1_16 1_555 1_555
N17_25 Co3_16 1_555 1_555
N18_13 Co6_10 1_555 1_555
N19_17 C35_17 1_555 1_555
N21_13 Co6_10 1_555 1_555
N27_22 C57_17 1_555 1_555
N23_25 Co1_16 1_555 1_555
N24_25 Co1_16 1_555 1_555
N25_13 Co6_10 1_555 1_555
N28_13 Co3_16 1_555 1_555
N30_17 C82_17 1_555 1_555
N31_25 C83_25 1_555 1_555
N32_25 C84_25 1_555 1_555
N33_17 C85_17 1_555 1_555
N35_17 C82_17 1_555 1_555
N36_25 C83_25 1_555 1_555
N37_25 C84_25 1_555 1_555
N38_17 C85_17 1_555 1_555
N40_17 C87_17 1_555 1_555
N41_25 C88_25 1_555 1_555
N42_25 C89_25 1_555 1_555
N43_17 C90_17 1_555 1_555
N45_17 C102_17 1_555 1_555
N46_25 C103_25 1_555 1_555
N47_13 C104_25 1_555 1_555
N48_17 Co11_2 1_555 1_555
N50_17 Co12_8 1_555 1_555
N52_17 Co11_2 1_555 1_555
N53_17 Co12_8 1_555 1_555
N54_17 Co12_8 1_555 1_555
N55_29 Co16_22 1_555 1_555
N56_29 Co16_22 1_555 1_555
N64_29 Co16_22 1_555 1_555
N65_29 Co16_22 1_555 1_555
C2_29 N2_29 1_555 1_555
C6_29 N2_29 1_555 1_555
C11_29 N27 1_555 1_555
C13_29 N4_29 1_555 1_555
C14_29 N5_29 1_555 1_555
C14_29 N6_29 1_555 1_555
C17_29 N7_17 1_555 1_555
C18_29 C19_29 1_555 1_555
C32_17 N16_17 1_555 1_555
C33_25 N17_25 1_555 1_555
C34_25 N18_13 1_555 1_555
C52_17 N16_17 1_555 1_555
C53_25 N17_25 1_555 1_555
C54_25 N18_13 1_555 1_555
C55_17 N19_17 1_555 1_555
C58_25 N23_25 1_555 1_555
C59_25 N24_25 1_555 1_555
C60_17 N25_13 1_555 1_555
C77_17 N27_22 1_555 1_555
C78_25 N23_25 1_555 1_555
C79_25 N24_25 1_555 1_555
C80_17 N25_13 1_555 1_555
C87_17 N30_17 1_555 1_555
C88_25 N31_25 1_555 1_555
C89_25 N32_25 1_555 1_555
C90_17 N33_17 1_555 1_555
C92_17 N35_17 1_555 1_555
C92_17 N40_17 1_555 1_555
C93_25 N36_25 1_555 1_555
C93_25 N41_25 1_555 1_555
C94_25 N37_25 1_555 1_555
C94_25 N42_25 1_555 1_555
C95_17 N38_17 1_555 1_555
C95_17 N43_17 1_555 1_555
C105_17 N48_17 1_555 1_555
C107_17 N45_17 1_555 1_555
C108_25 N46_25 1_555 1_555
C109_25 N47_13 1_555 1_555
C110_17 N48_17 1_555 1_555
C112_17 C117_17 1_555 1_555
C113_25 C118_25 1_555 1_555
C114_25 C119_25 1_555 1_555
C115_17 C120_17 1_555 1_555
Co3_17 N12_25 1_555 1_555
Co8_16 N26_25 1_555 1_555
Co16_10 N49_25 1_555 1_555
S4_25 C28_25 1_555 1_555
C28_25 N12_25 1_555 1_555
C41_25 C36_25 1_555 1_555
H26_25 C41_25 1_555 1_555
C46_25 C41_25 1_555 1_555
H31_25 C46_25 1_555 1_555
C51_25 C46_25 1_555 1_555
C56_25 C51_25 1_555 1_555
H36_25 C56_25 1_555 1_555
C61_25 H41_25 1_555 1_555
C66_25 C61_25 1_555 1_555
H46_25 C66_25 1_555 1_555
C71_25 C66_25 1_555 1_555
H51_25 C71_25 1_555 1_555
C76_25 C71_25 1_555 1_555
C81_25 C76_25 1_555 1_555
H56_25 C81_25 1_555 1_555
C86_25 C76_25 1_555 1_555
C91_25 C51_25 1_555 1_555
C96_25 C101_25 1_555 1_555
C101_25 C106_25 1_555 1_555
C106_25 H61_25 1_555 1_555
C111_25 H66_25 1_555 1_555
C116_25 C111_25 1_555 1_555
H71_25 C116_25 1_555 1_555
C121_25 C101_25 1_555 1_555
H76_25 C121_25 1_555 1_555
N20_25 Co3_17 1_555 1_555
N26_25 C61_25 1_555 1_555
N27_25 Co3_17 1_555 1_555
N34_25 C86_25 1_555 1_555
N39_25 C86_25 1_555 1_555
N44_25 C91_25 1_555 1_555
N49_25 C106_25 1_555 1_555
C36_25 N20_25 1_555 1_555
C56_25 N20_25 1_555 1_555
C81_25 N26_25 1_555 1_555
C91_25 N34_25 1_555 1_555
C96_25 N39_25 1_555 1_555
C96_25 N44_25 1_555 1_555
C111_25 N49_25 1_555 1_555
C116_25 C121_25 1_555 1_555
Co1_17 N1_30 1_555 1_555
S1_30 C1_30 1_555 1_555
C1_30 N1_30 1_555 1_555
Co3_18 N12_26 1_555 1_555
Co8_17 N26_26 1_555 1_555
Co12_5 N45_18 1_555 1_555
Co16_24 N46_26 1_555 1_555
Co16_9 N49_26 1_555 1_555
S4_26 C28_26 1_555 1_555
S5_26 C29_26 1_555 1_555
S9_18 C123_18 1_555 1_555
S10_18 C124_18 1_555 1_555
S11_30 C125_30 1_555 1_555
S12_30 C126_30 1_555 1_555
C28_26 N12_26 1_555 1_555
C29_26 N13_26 1_555 1_555
C33_26 H18_26 1_555 1_555
C36_26 H21_26 1_555 1_555
C37_18 C32_18 1_555 1_555
C38_26 C33_26 1_555 1_555
C41_26 C36_26 1_555 1_555
H22_18 C37_18 1_555 1_555
H23_26 C38_26 1_555 1_555
H26_26 C41_26 1_555 1_555
C42_18 C37_18 1_555 1_555
C43_26 C38_26 1_555 1_555
C46_26 C41_26 1_555 1_555
H27_18 C42_18 1_555 1_555
H28_26 C43_26 1_555 1_555
H31_26 C46_26 1_555 1_555
C47_18 C42_18 1_555 1_555
C48_26 C43_26 1_555 1_555
C51_26 C46_26 1_555 1_555
C52_18 C47_18 1_555 1_555
C53_26 C48_26 1_555 1_555
C56_26 C51_26 1_555 1_555
H32_18 C52_18 1_555 1_555
H33_26 C53_26 1_555 1_555
H36_26 C56_26 1_555 1_555
C57_18 H37_18 1_555 1_555
C58_26 H38_26 1_555 1_555
C61_26 H41_26 1_555 1_555
C62_18 C57_18 1_555 1_555
C63_26 C58_26 1_555 1_555
C66_26 C61_26 1_555 1_555
H42_18 C62_18 1_555 1_555
H43_26 C63_26 1_555 1_555
H46_26 C66_26 1_555 1_555
C67_18 C62_18 1_555 1_555
C68_26 C63_26 1_555 1_555
C71_26 C66_26 1_555 1_555
H47_18 C67_18 1_555 1_555
H48_26 C68_26 1_555 1_555
H51_26 C71_26 1_555 1_555
C72_18 C67_18 1_555 1_555
C73_26 C68_26 1_555 1_555
C76_26 C71_26 1_555 1_555
C77_18 C72_18 1_555 1_555
C78_26 C73_26 1_555 1_555
C81_26 C76_26 1_555 1_555
H52_18 C77_18 1_555 1_555
H53_26 C78_26 1_555 1_555
H56_26 C81_26 1_555 1_555
C82_18 C72_18 1_555 1_555
C83_26 C73_26 1_555 1_555
C86_26 C76_26 1_555 1_555
C87_18 C47_18 1_555 1_555
C88_26 C48_26 1_555 1_555
C91_26 C51_26 1_555 1_555
C92_18 C97_18 1_555 1_555
C93_26 C98_26 1_555 1_555
C96_26 C101_26 1_555 1_555
C97_18 C102_18 1_555 1_555
C98_26 C103_26 1_555 1_555
C101_26 C106_26 1_555 1_555
C102_18 H57_18 1_555 1_555
C103_26 H58_26 1_555 1_555
C106_26 H61_26 1_555 1_555
C107_18 H62_18 1_555 1_555
C108_26 H63_26 1_555 1_555
C111_26 H66_26 1_555 1_555
C112_18 C107_18 1_555 1_555
C113_26 C108_26 1_555 1_555
C116_26 C111_26 1_555 1_555
H67_18 C112_18 1_555 1_555
H68_26 C113_26 1_555 1_555
H71_26 C116_26 1_555 1_555
C117_18 C97_18 1_555 1_555
C118_26 C98_26 1_555 1_555
C121_26 C101_26 1_555 1_555
H72_18 C117_18 1_555 1_555
H73_26 C118_26 1_555 1_555
H76_26 C121_26 1_555 1_555
C123_18 N53_18 1_555 1_555
C124_18 N54_18 1_555 1_555
C125_30 N55_30 1_555 1_555
C126_30 N56_30 1_555 1_555
N13_26 Co3_18 1_555 1_555
N16_18 Co1_17 1_555 1_555
N17_26 Co3_18 1_555 1_555
N20_26 Co3_18 1_555 1_555
N27_24 C57_18 1_555 1_555
N23_26 Co1_17 1_555 1_555
N26_26 C61_26 1_555 1_555
N27_26 Co3_18 1_555 1_555
N28_14 Co3_18 1_555 1_555
N30_18 C82_18 1_555 1_555
N31_26 C83_26 1_555 1_555
N34_26 C86_26 1_555 1_555
N35_18 C82_18 1_555 1_555
N36_26 C83_26 1_555 1_555
N39_26 C86_26 1_555 1_555
N40_18 C87_18 1_555 1_555
N41_26 C88_26 1_555 1_555
N44_26 C91_26 1_555 1_555
N45_18 C102_18 1_555 1_555
N46_26 C103_26 1_555 1_555
N49_26 C106_26 1_555 1_555
N50_18 Co12_5 1_555 1_555
N53_18 Co12_5 1_555 1_555
N54_18 Co12_5 1_555 1_555
N55_30 Co16_24 1_555 1_555
N56_30 Co16_24 1_555 1_555
N64_30 Co16_24 1_555 1_555
N65_30 Co16_24 1_555 1_555
C32_18 N16_18 1_555 1_555
C33_26 N17_26 1_555 1_555
C36_26 N20_26 1_555 1_555
C52_18 N16_18 1_555 1_555
C53_26 N17_26 1_555 1_555
C56_26 N20_26 1_555 1_555
C58_26 N23_26 1_555 1_555
C77_18 N27_24 1_555 1_555
C78_26 N23_26 1_555 1_555
C81_26 N26_26 1_555 1_555
C87_18 N30_18 1_555 1_555
C88_26 N31_26 1_555 1_555
C91_26 N34_26 1_555 1_555
C92_18 N35_18 1_555 1_555
C92_18 N40_18 1_555 1_555
C93_26 N36_26 1_555 1_555
C93_26 N41_26 1_555 1_555
C96_26 N39_26 1_555 1_555
C96_26 N44_26 1_555 1_555
C107_18 N45_18 1_555 1_555
C108_26 N46_26 1_555 1_555
C111_26 N49_26 1_555 1_555
C112_18 C117_18 1_555 1_555
C113_26 C118_26 1_555 1_555
C116_26 C121_26 1_555 1_555
Co11_4 N7_18 1_555 1_555
C3_30 C2_30 1_555 1_555
H2_30 C3_30 1_555 1_555
C4_30 C3_30 1_555 1_555
H3_30 C4_30 1_555 1_555
C5_30 C4_30 1_555 1_555
C6_30 C5_30 1_555 1_555
H4_30 C6_30 1_555 1_555
C7_30 H5_30 1_555 1_555
C8_30 C7_30 1_555 1_555
H6_30 C8_30 1_555 1_555
C9_30 C8_30 1_555 1_555
H7_30 C9_30 1_555 1_555
C10_30 C9_30 1_555 1_555
C11_30 C10_30 1_555 1_555
H8_30 C11_30 1_555 1_555
C12_30 C10_30 1_555 1_555
C13_30 C5_30 1_555 1_555
C14_30 C15_30 1_555 1_555
C15_30 C16_30 1_555 1_555
C16_30 H9_30 1_555 1_555
C17_30 H10_30 1_555 1_555
C18_30 C17_30 1_555 1_555
H11_30 C18_30 1_555 1_555
C19_30 C15_30 1_555 1_555
H12_30 C19_30 1_555 1_555
N2_30 Co1_18 1_555 1_555
N27_3 C7_30 1_555 1_555
N4_30 C12_30 1_555 1_555
N5_30 C12_30 1_555 1_555
N6_30 C13_30 1_555 1_555
N7_18 C16_30 1_555 1_555
N8_18 Co11_4 1_555 1_555
Co6_7 N14_14 1_555 1_555
Co8_3 N19_18 1_555 1_555
Co16_3 N47_14 1_555 1_555
S3_30 C27_30 1_555 1_555
S6_14 C30_14 1_555 1_555
S7_14 C31_14 1_555 1_555
C27_30 N11_30 1_555 1_555
C30_14 N14_14 1_555 1_555
C31_14 N15_14 1_555 1_555
C34_26 H19_26 1_555 1_555
C35_18 H20_18 1_555 1_555
C39_26 C34_26 1_555 1_555
C40_18 C35_18 1_555 1_555
H24_26 C39_26 1_555 1_555
H25_18 C40_18 1_555 1_555
C44_26 C39_26 1_555 1_555
C45_18 C40_18 1_555 1_555
H29_26 C44_26 1_555 1_555
H30_18 C45_18 1_555 1_555
C49_26 C44_26 1_555 1_555
C50_18 C45_18 1_555 1_555
C54_26 C49_26 1_555 1_555
C55_18 C50_18 1_555 1_555
H34_26 C54_26 1_555 1_555
H35_18 C55_18 1_555 1_555
C59_26 H39_26 1_555 1_555
C60_18 H40_18 1_555 1_555
C64_26 C59_26 1_555 1_555
C65_18 C60_18 1_555 1_555
H44_26 C64_26 1_555 1_555
H45_18 C65_18 1_555 1_555
C69_26 C64_26 1_555 1_555
C70_18 C65_18 1_555 1_555
H49_26 C69_26 1_555 1_555
H50_18 C70_18 1_555 1_555
C74_26 C69_26 1_555 1_555
C75_18 C70_18 1_555 1_555
C79_26 C74_26 1_555 1_555
C80_18 C75_18 1_555 1_555
H54_26 C79_26 1_555 1_555
H55_18 C80_18 1_555 1_555
C84_26 C74_26 1_555 1_555
C85_18 C75_18 1_555 1_555
C89_26 C49_26 1_555 1_555
C90_18 C50_18 1_555 1_555
C94_26 C99_26 1_555 1_555
C95_18 C100_18 1_555 1_555
C99_26 C104_26 1_555 1_555
C100_18 C105_18 1_555 1_555
C104_26 H59_26 1_555 1_555
C105_18 H60_18 1_555 1_555
C109_26 H64_26 1_555 1_555
C110_18 H65_18 1_555 1_555
C114_26 C109_26 1_555 1_555
C115_18 C110_18 1_555 1_555
H69_26 C114_26 1_555 1_555
H70_18 C115_18 1_555 1_555
C119_26 C99_26 1_555 1_555
C120_18 C100_18 1_555 1_555
H74_26 C119_26 1_555 1_555
H75_18 C120_18 1_555 1_555
N11_30 Co1_18 1_555 1_555
N15_14 Co6_7 1_555 1_555
N18_14 Co6_7 1_555 1_555
N19_18 C35_18 1_555 1_555
N21_14 Co6_7 1_555 1_555
N24_26 Co1_18 1_555 1_555
N25_14 Co6_7 1_555 1_555
N32_26 C84_26 1_555 1_555
N33_18 C85_18 1_555 1_555
N37_26 C84_26 1_555 1_555
N38_18 C85_18 1_555 1_555
N42_26 C89_26 1_555 1_555
N43_18 C90_18 1_555 1_555
N47_14 C104_26 1_555 1_555
N48_18 Co11_4 1_555 1_555
N52_18 Co11_4 1_555 1_555
C2_30 N2_30 1_555 1_555
C6_30 N2_30 1_555 1_555
C11_30 N27_3 1_555 1_555
C13_30 N4_30 1_555 1_555
C14_30 N5_30 1_555 1_555
C14_30 N6_30 1_555 1_555
C17_30 N7_18 1_555 1_555
C18_30 C19_30 1_555 1_555
C34_26 N18_14 1_555 1_555
C54_26 N18_14 1_555 1_555
C55_18 N19_18 1_555 1_555
C59_26 N24_26 1_555 1_555
C60_18 N25_14 1_555 1_555
C79_26 N24_26 1_555 1_555
C80_18 N25_14 1_555 1_555
C89_26 N32_26 1_555 1_555
C90_18 N33_18 1_555 1_555
C94_26 N37_26 1_555 1_555
C94_26 N42_26 1_555 1_555
C95_18 N38_18 1_555 1_555
C95_18 N43_18 1_555 1_555
C105_18 N48_18 1_555 1_555
C109_26 N47_14 1_555 1_555
C110_18 N48_18 1_555 1_555
C114_26 C119_26 1_555 1_555
C115_18 C120_18 1_555 1_555
S2_18 C20_18 1_555 1_555
S8_18 C122_18 1_555 1_555
S9_19 C123_19 1_555 1_555
S10_19 C124_19 1_555 1_555
Co1_19 N1_31 1_555 1_555
Co11_3 N7_19 1_555 1_555
S1_31 C1_31 1_555 1_555
S2_19 C20_19 1_555 1_555
C1_31 N1_31 1_555 1_555
C2_31 H1_31 1_555 1_555
C3_31 C2_31 1_555 1_555
H2_31 C3_31 1_555 1_555
C4_31 C3_31 1_555 1_555
H3_31 C4_31 1_555 1_555
C5_31 C4_31 1_555 1_555
C6_31 C5_31 1_555 1_555
H4_31 C6_31 1_555 1_555
C7_31 H5_31 1_555 1_555
C8_31 C7_31 1_555 1_555
H6_31 C8_31 1_555 1_555
C9_31 C8_31 1_555 1_555
H7_31 C9_31 1_555 1_555
C10_31 C9_31 1_555 1_555
C11_31 C10_31 1_555 1_555
H8_31 C11_31 1_555 1_555
C12_31 C10_31 1_555 1_555
C13_31 C5_31 1_555 1_555
C14_31 C15_31 1_555 1_555
C15_31 C16_31 1_555 1_555
C16_31 H9_31 1_555 1_555
C17_31 H10_31 1_555 1_555
C18_31 C17_31 1_555 1_555
H11_31 C18_31 1_555 1_555
C19_31 C15_31 1_555 1_555
H12_31 C19_31 1_555 1_555
C20_19 N8_19 1_555 1_555
N2_31 Co1_19 1_555 1_555
N27_4 C7_31 1_555 1_555
N4_31 C12_31 1_555 1_555
N5_31 C12_31 1_555 1_555
N6_31 C13_31 1_555 1_555
N7_19 C16_31 1_555 1_555
N8_19 Co11_3 1_555 1_555
Co3_19 N12_27 1_555 1_555
Co6_6 N14_15 1_555 1_555
Co8_5 N19_19 1_555 1_555
Co8_18 N26_27 1_555 1_555
Co12_6 N45_19 1_555 1_555
Co16_21 N46_27 1_555 1_555
Co16_4 N47_15 1_555 1_555
Co16_12 N49_27 1_555 1_555
S3_31 C27_31 1_555 1_555
S4_27 C28_27 1_555 1_555
S5_27 C29_27 1_555 1_555
S6_15 C30_15 1_555 1_555
S7_15 C31_15 1_555 1_555
S8_19 C122_19 1_555 1_555
S11_31 C125_31 1_555 1_555
S12_31 C126_31 1_555 1_555
C27_31 N11_31 1_555 1_555
C28_27 N12_27 1_555 1_555
C29_27 N13_27 1_555 1_555
C30_15 N14_15 1_555 1_555
C31_15 N15_15 1_555 1_555
C32_19 H17_19 1_555 1_555
C33_27 H18_27 1_555 1_555
C34_27 H19_27 1_555 1_555
C36_27 H21_27 1_555 1_555
C37_19 C32_19 1_555 1_555
C38_27 C33_27 1_555 1_555
C39_27 C34_27 1_555 1_555
C40_19 C35_19 1_555 1_555
C41_27 C36_27 1_555 1_555
H22_19 C37_19 1_555 1_555
H23_27 C38_27 1_555 1_555
H24_27 C39_27 1_555 1_555
H25_19 C40_19 1_555 1_555
H26_27 C41_27 1_555 1_555
C42_19 C37_19 1_555 1_555
C43_27 C38_27 1_555 1_555
C44_27 C39_27 1_555 1_555
C45_19 C40_19 1_555 1_555
C46_27 C41_27 1_555 1_555
H27_19 C42_19 1_555 1_555
H28_27 C43_27 1_555 1_555
H29_27 C44_27 1_555 1_555
H30_19 C45_19 1_555 1_555
H31_27 C46_27 1_555 1_555
C47_19 C42_19 1_555 1_555
C48_27 C43_27 1_555 1_555
C49_27 C44_27 1_555 1_555
C50_19 C45_19 1_555 1_555
C51_27 C46_27 1_555 1_555
C52_19 C47_19 1_555 1_555
C53_27 C48_27 1_555 1_555
C54_27 C49_27 1_555 1_555
C55_19 C50_19 1_555 1_555
C56_27 C51_27 1_555 1_555
H32_19 C52_19 1_555 1_555
H33_27 C53_27 1_555 1_555
H34_27 C54_27 1_555 1_555
H35_19 C55_19 1_555 1_555
H36_27 C56_27 1_555 1_555
C57_19 H37_19 1_555 1_555
C58_27 H38_27 1_555 1_555
C59_27 H39_27 1_555 1_555
C60_19 H40_19 1_555 1_555
C61_27 H41_27 1_555 1_555
C62_19 C57_19 1_555 1_555
C63_27 C58_27 1_555 1_555
C64_27 C59_27 1_555 1_555
C65_19 C60_19 1_555 1_555
C66_27 C61_27 1_555 1_555
H42_19 C62_19 1_555 1_555
H43_27 C63_27 1_555 1_555
H44_27 C64_27 1_555 1_555
H45_19 C65_19 1_555 1_555
H46_27 C66_27 1_555 1_555
C67_19 C62_19 1_555 1_555
C68_27 C63_27 1_555 1_555
C69_27 C64_27 1_555 1_555
C70_19 C65_19 1_555 1_555
C71_27 C66_27 1_555 1_555
H47_19 C67_19 1_555 1_555
H48_27 C68_27 1_555 1_555
H49_27 C69_27 1_555 1_555
H50_19 C70_19 1_555 1_555
H51_27 C71_27 1_555 1_555
C72_19 C67_19 1_555 1_555
C73_27 C68_27 1_555 1_555
C74_27 C69_27 1_555 1_555
C75_19 C70_19 1_555 1_555
C76_27 C71_27 1_555 1_555
C77_19 C72_19 1_555 1_555
C78_27 C73_27 1_555 1_555
C79_27 C74_27 1_555 1_555
C80_19 C75_19 1_555 1_555
C81_27 C76_27 1_555 1_555
H52_19 C77_19 1_555 1_555
H53_27 C78_27 1_555 1_555
H54_27 C79_27 1_555 1_555
H55_19 C80_19 1_555 1_555
H56_27 C81_27 1_555 1_555
C82_19 C72_19 1_555 1_555
C83_27 C73_27 1_555 1_555
C84_27 C74_27 1_555 1_555
C85_19 C75_19 1_555 1_555
C86_27 C76_27 1_555 1_555
C87_19 C47_19 1_555 1_555
C88_27 C48_27 1_555 1_555
C89_27 C49_27 1_555 1_555
C90_19 C50_19 1_555 1_555
C91_27 C51_27 1_555 1_555
C92_19 C97_19 1_555 1_555
C93_27 C98_27 1_555 1_555
C94_27 C99_27 1_555 1_555
C95_19 C100_19 1_555 1_555
C96_27 C101_27 1_555 1_555
C97_19 C102_19 1_555 1_555
C98_27 C103_27 1_555 1_555
C99_27 C104_27 1_555 1_555
C100_19 C105_19 1_555 1_555
C101_27 C106_27 1_555 1_555
C102_19 H57_19 1_555 1_555
C103_27 H58_27 1_555 1_555
C104_27 H59_27 1_555 1_555
C105_19 H60_19 1_555 1_555
C106_27 H61_27 1_555 1_555
C107_19 H62_19 1_555 1_555
C108_27 H63_27 1_555 1_555
C109_27 H64_27 1_555 1_555
C110_19 H65_19 1_555 1_555
C111_27 H66_27 1_555 1_555
C112_19 C107_19 1_555 1_555
C113_27 C108_27 1_555 1_555
C114_27 C109_27 1_555 1_555
C115_19 C110_19 1_555 1_555
C116_27 C111_27 1_555 1_555
H67_19 C112_19 1_555 1_555
H68_27 C113_27 1_555 1_555
H69_27 C114_27 1_555 1_555
H70_19 C115_19 1_555 1_555
H71_27 C116_27 1_555 1_555
C117_19 C97_19 1_555 1_555
C118_27 C98_27 1_555 1_555
C119_27 C99_27 1_555 1_555
C120_19 C100_19 1_555 1_555
C121_27 C101_27 1_555 1_555
H72_19 C117_19 1_555 1_555
H73_27 C118_27 1_555 1_555
H74_27 C119_27 1_555 1_555
H75_19 C120_19 1_555 1_555
H76_27 C121_27 1_555 1_555
C122_19 N52_19 1_555 1_555
C125_31 N55_31 1_555 1_555
C126_31 N56_31 1_555 1_555
N11_31 Co1_19 1_555 1_555
N13_27 Co3_19 1_555 1_555
N15_15 Co6_6 1_555 1_555
N16_19 Co1_19 1_555 1_555
N17_27 Co3_19 1_555 1_555
N18_15 Co6_6 1_555 1_555
N19_19 C35_19 1_555 1_555
N20_27 Co3_19 1_555 1_555
N21_15 Co6_6 1_555 1_555
N27_21 C57_19 1_555 1_555
N23_27 Co1_19 1_555 1_555
N24_27 Co1_19 1_555 1_555
N25_15 Co6_6 1_555 1_555
N26_27 C61_27 1_555 1_555
N27_27 Co3_19 1_555 1_555
N28_15 Co3_19 1_555 1_555
N30_19 C82_19 1_555 1_555
N31_27 C83_27 1_555 1_555
N32_27 C84_27 1_555 1_555
N33_19 C85_19 1_555 1_555
N34_27 C86_27 1_555 1_555
N35_19 C82_19 1_555 1_555
N36_27 C83_27 1_555 1_555
N37_27 C84_27 1_555 1_555
N38_19 C85_19 1_555 1_555
N39_27 C86_27 1_555 1_555
N40_19 C87_19 1_555 1_555
N41_27 C88_27 1_555 1_555
N42_27 C89_27 1_555 1_555
N43_19 C90_19 1_555 1_555
N44_27 C91_27 1_555 1_555
N45_19 C102_19 1_555 1_555
N46_27 C103_27 1_555 1_555
N47_15 C104_27 1_555 1_555
N48_19 Co11_3 1_555 1_555
N49_27 C106_27 1_555 1_555
N50_19 Co12_6 1_555 1_555
N52_19 Co11_3 1_555 1_555
N53_19 Co12_6 1_555 1_555
N54_19 Co12_6 1_555 1_555
N55_31 Co16_21 1_555 1_555
N56_31 Co16_21 1_555 1_555
N64_31 Co16_21 1_555 1_555
N65_31 Co16_21 1_555 1_555
C2_31 N2_31 1_555 1_555
C6_31 N2_31 1_555 1_555
C11_31 N27_4 1_555 1_555
C13_31 N4_31 1_555 1_555
C14_31 N5_31 1_555 1_555
C14_31 N6_31 1_555 1_555
C17_31 N7_19 1_555 1_555
C18_31 C19_31 1_555 1_555
C32_19 N16_19 1_555 1_555
C33_27 N17_27 1_555 1_555
C34_27 N18_15 1_555 1_555
C36_27 N20_27 1_555 1_555
C52_19 N16_19 1_555 1_555
C53_27 N17_27 1_555 1_555
C54_27 N18_15 1_555 1_555
C55_19 N19_19 1_555 1_555
C56_27 N20_27 1_555 1_555
C58_27 N23_27 1_555 1_555
C59_27 N24_27 1_555 1_555
C60_19 N25_15 1_555 1_555
C77_19 N27_21 1_555 1_555
C78_27 N23_27 1_555 1_555
C79_27 N24_27 1_555 1_555
C80_19 N25_15 1_555 1_555
C81_27 N26_27 1_555 1_555
C87_19 N30_19 1_555 1_555
C88_27 N31_27 1_555 1_555
C89_27 N32_27 1_555 1_555
C90_19 N33_19 1_555 1_555
C91_27 N34_27 1_555 1_555
C92_19 N35_19 1_555 1_555
C92_19 N40_19 1_555 1_555
C93_27 N36_27 1_555 1_555
C93_27 N41_27 1_555 1_555
C94_27 N37_27 1_555 1_555
C94_27 N42_27 1_555 1_555
C95_19 N38_19 1_555 1_555
C95_19 N43_19 1_555 1_555
C96_27 N39_27 1_555 1_555
C96_27 N44_27 1_555 1_555
C105_19 N48_19 1_555 1_555
C107_19 N45_19 1_555 1_555
C108_27 N46_27 1_555 1_555
C109_27 N47_15 1_555 1_555
C110_19 N48_19 1_555 1_555
C111_27 N49_27 1_555 1_555
C112_19 C117_19 1_555 1_555
C113_27 C118_27 1_555 1_555
C114_27 C119_27 1_555 1_555
C115_19 C120_19 1_555 1_555
C116_27 C121_27 1_555 1_555
Co6_8 N14_16 1_555 1_555
S6_16 C30_16 1_555 1_555
S11_32 C125_32 1_555 1_555
S12_32 C126_32 1_555 1_555
C30_16 N14_16 1_555 1_555
N21_16 Co6_8 1_555 1_555
Co1_20 N1_32 1_555 1_555
Co11 N7_20 1_555 1_555
S1_32 C1_32 1_555 1_555
S2_20 C20_20 1_555 1_555
C1_32 N1_32 1_555 1_555
C2_32 H1_32 1_555 1_555
C3_32 C2_32 1_555 1_555
H2_32 C3_32 1_555 1_555
C4_32 C3_32 1_555 1_555
H3_32 C4_32 1_555 1_555
C5_32 C4_32 1_555 1_555
C6_32 C5_32 1_555 1_555
H4_32 C6_32 1_555 1_555
C7_32 H5_32 1_555 1_555
C8_32 C7_32 1_555 1_555
H6_32 C8_32 1_555 1_555
C9_32 C8_32 1_555 1_555
H7_32 C9_32 1_555 1_555
C10_32 C9_32 1_555 1_555
C11_32 C10_32 1_555 1_555
H8_32 C11_32 1_555 1_555
C12_32 C10_32 1_555 1_555
C13_32 C5_32 1_555 1_555
C14_32 C15_32 1_555 1_555
C15_32 C16_32 1_555 1_555
C16_32 H9_32 1_555 1_555
C17_32 H10_32 1_555 1_555
C18_32 C17_32 1_555 1_555
H11_32 C18_32 1_555 1_555
C19_32 C15_32 1_555 1_555
H12_32 C19_32 1_555 1_555
C20_20 N8_20 1_555 1_555
N2_32 Co1_20 1_555 1_555
N27_2 C7_32 1_555 1_555
N4_32 C12_32 1_555 1_555
N5_32 C12_32 1_555 1_555
N6_32 C13_32 1_555 1_555
N7_20 C16_32 1_555 1_555
N8_20 Co11 1_555 1_555
Co3_20 N12_28 1_555 1_555
Co8_2 N19_20 1_555 1_555
Co8_20 N26_28 1_555 1_555
Co12_7 N45_20 1_555 1_555
Co16_23 N46_28 1_555 1_555
Co16_2 N47_16 1_555 1_555
Co16_11 N49_28 1_555 1_555
S3_32 C27_32 1_555 1_555
S4_28 C28_28 1_555 1_555
S5_28 C29_28 1_555 1_555
S7_16 C31_16 1_555 1_555
S8_20 C122_20 1_555 1_555
S9_20 C123_20 1_555 1_555
S10_20 C124_20 1_555 1_555
C27_32 N11_32 1_555 1_555
C28_28 N12_28 1_555 1_555
C29_28 N13_28 1_555 1_555
C31_16 N15_16 1_555 1_555
C32_20 H17_20 1_555 1_555
C33_28 H18_28 1_555 1_555
C35_20 H20_20 1_555 1_555
C36_28 H21_28 1_555 1_555
C37_20 C32_20 1_555 1_555
C38_28 C33_28 1_555 1_555
C39_28 C34_28 1_555 1_555
C40_20 C35_20 1_555 1_555
C41_28 C36_28 1_555 1_555
H22_20 C37_20 1_555 1_555
H23_28 C38_28 1_555 1_555
H24_28 C39_28 1_555 1_555
H25_20 C40_20 1_555 1_555
H26_28 C41_28 1_555 1_555
C42_20 C37_20 1_555 1_555
C43_28 C38_28 1_555 1_555
C44_28 C39_28 1_555 1_555
C45_20 C40_20 1_555 1_555
C46_28 C41_28 1_555 1_555
H27_20 C42_20 1_555 1_555
H28_28 C43_28 1_555 1_555
H29_28 C44_28 1_555 1_555
H30_20 C45_20 1_555 1_555
H31_28 C46_28 1_555 1_555
C47_20 C42_20 1_555 1_555
C48_28 C43_28 1_555 1_555
C49_28 C44_28 1_555 1_555
C50_20 C45_20 1_555 1_555
C51_28 C46_28 1_555 1_555
C52_20 C47_20 1_555 1_555
C53_28 C48_28 1_555 1_555
C54_28 C49_28 1_555 1_555
C55_20 C50_20 1_555 1_555
C56_28 C51_28 1_555 1_555
H32_20 C52_20 1_555 1_555
H33_28 C53_28 1_555 1_555
H34_28 C54_28 1_555 1_555
H35_20 C55_20 1_555 1_555
H36_28 C56_28 1_555 1_555
C57_20 H37_20 1_555 1_555
C58_28 H38_28 1_555 1_555
C59_28 H39_28 1_555 1_555
C60_20 H40_20 1_555 1_555
C61_28 H41_28 1_555 1_555
C62_20 C57_20 1_555 1_555
C63_28 C58_28 1_555 1_555
C64_28 C59_28 1_555 1_555
C65_20 C60_20 1_555 1_555
C66_28 C61_28 1_555 1_555
H42_20 C62_20 1_555 1_555
H43_28 C63_28 1_555 1_555
H44_28 C64_28 1_555 1_555
H45_20 C65_20 1_555 1_555
H46_28 C66_28 1_555 1_555
C67_20 C62_20 1_555 1_555
C68_28 C63_28 1_555 1_555
C69_28 C64_28 1_555 1_555
C70_20 C65_20 1_555 1_555
C71_28 C66_28 1_555 1_555
H47_20 C67_20 1_555 1_555
H48_28 C68_28 1_555 1_555
H49_28 C69_28 1_555 1_555
H50_20 C70_20 1_555 1_555
H51_28 C71_28 1_555 1_555
C72_20 C67_20 1_555 1_555
C73_28 C68_28 1_555 1_555
C74_28 C69_28 1_555 1_555
C75_20 C70_20 1_555 1_555
C76_28 C71_28 1_555 1_555
C77_20 C72_20 1_555 1_555
C78_28 C73_28 1_555 1_555
C79_28 C74_28 1_555 1_555
C80_20 C75_20 1_555 1_555
C81_28 C76_28 1_555 1_555
H52_20 C77_20 1_555 1_555
H53_28 C78_28 1_555 1_555
H54_28 C79_28 1_555 1_555
H55_20 C80_20 1_555 1_555
H56_28 C81_28 1_555 1_555
C82_20 C72_20 1_555 1_555
C83_28 C73_28 1_555 1_555
C84_28 C74_28 1_555 1_555
C85_20 C75_20 1_555 1_555
C86_28 C76_28 1_555 1_555
C87_20 C47_20 1_555 1_555
C88_28 C48_28 1_555 1_555
C89_28 C49_28 1_555 1_555
C90_20 C50_20 1_555 1_555
C91_28 C51_28 1_555 1_555
C92_20 C97_20 1_555 1_555
C93_28 C98_28 1_555 1_555
C94_28 C99_28 1_555 1_555
C95_20 C100_20 1_555 1_555
C96_28 C101_28 1_555 1_555
C97_20 C102_20 1_555 1_555
C98_28 C103_28 1_555 1_555
C99_28 C104_28 1_555 1_555
C100_20 C105_20 1_555 1_555
C101_28 C106_28 1_555 1_555
C102_20 H57_20 1_555 1_555
C103_28 H58_28 1_555 1_555
C104_28 H59_28 1_555 1_555
C105_20 H60_20 1_555 1_555
C106_28 H61_28 1_555 1_555
C107_20 H62_20 1_555 1_555
C108_28 H63_28 1_555 1_555
C109_28 H64_28 1_555 1_555
C110_20 H65_20 1_555 1_555
C111_28 H66_28 1_555 1_555
C112_20 C107_20 1_555 1_555
C113_28 C108_28 1_555 1_555
C114_28 C109_28 1_555 1_555
C115_20 C110_20 1_555 1_555
C116_28 C111_28 1_555 1_555
H67_20 C112_20 1_555 1_555
H68_28 C113_28 1_555 1_555
H69_28 C114_28 1_555 1_555
H70_20 C115_20 1_555 1_555
H71_28 C116_28 1_555 1_555
C117_20 C97_20 1_555 1_555
C118_28 C98_28 1_555 1_555
C119_28 C99_28 1_555 1_555
C120_20 C100_20 1_555 1_555
C121_28 C101_28 1_555 1_555
H72_20 C117_20 1_555 1_555
H73_28 C118_28 1_555 1_555
H74_28 C119_28 1_555 1_555
H75_20 C120_20 1_555 1_555
H76_28 C121_28 1_555 1_555
C122_20 N52_20 1_555 1_555
C123_20 N53_20 1_555 1_555
C124_20 N54_20 1_555 1_555
N11_32 Co1_20 1_555 1_555
N13_28 Co3_20 1_555 1_555
N15_16 Co6_9 1_555 1_555
N16_20 Co1_20 1_555 1_555
N17_28 Co3_20 1_555 1_555
N18_16 Co6_9 1_555 1_555
N19_20 C35_20 1_555 1_555
N20_28 Co3_20 1_555 1_555
N27_23 C57_20 1_555 1_555
N23_28 Co1_20 1_555 1_555
N24_28 Co1_20 1_555 1_555
N25_16 Co6_9 1_555 1_555
N26_28 C61_28 1_555 1_555
N27_28 Co3_20 1_555 1_555
N28_16 Co3_20 1_555 1_555
N30_20 C82_20 1_555 1_555
N31_28 C83_28 1_555 1_555
N32_28 C84_28 1_555 1_555
N33_20 C85_20 1_555 1_555
N34_28 C86_28 1_555 1_555
N35_20 C82_20 1_555 1_555
N36_28 C83_28 1_555 1_555
N37_28 C84_28 1_555 1_555
N38_20 C85_20 1_555 1_555
N39_28 C86_28 1_555 1_555
N40_20 C87_20 1_555 1_555
N41_28 C88_28 1_555 1_555
N42_28 C89_28 1_555 1_555
N43_20 C90_20 1_555 1_555
N44_28 C91_28 1_555 1_555
N45_20 C102_20 1_555 1_555
N46_28 C103_28 1_555 1_555
N47_16 C104_28 1_555 1_555
N48_20 Co11 1_555 1_555
N49_28 C106_28 1_555 1_555
N50_20 Co12_7 1_555 1_555
N52_20 Co11 1_555 1_555
N53_20 Co12_7 1_555 1_555
N54_20 Co12_7 1_555 1_555
N55_32 Co16_23 1_555 1_555
N56_32 Co16_23 1_555 1_555
C2_32 N2_32 1_555 1_555
C6_32 N2_32 1_555 1_555
C11_32 N27_2 1_555 1_555
C13_32 N4_32 1_555 1_555
C14_32 N5_32 1_555 1_555
C14_32 N6_32 1_555 1_555
C17_32 N7_20 1_555 1_555
C18_32 C19_32 1_555 1_555
C32_20 N16_20 1_555 1_555
C33_28 N17_28 1_555 1_555
C34_28 N18_16 1_555 1_555
C36_28 N20_28 1_555 1_555
C52_20 N16_20 1_555 1_555
C53_28 N17_28 1_555 1_555
C54_28 N18_16 1_555 1_555
C55_20 N19_20 1_555 1_555
C56_28 N20_28 1_555 1_555
C58_28 N23_28 1_555 1_555
C59_28 N24_28 1_555 1_555
C60_20 N25_16 1_555 1_555
C77_20 N27_23 1_555 1_555
C78_28 N23_28 1_555 1_555
C79_28 N24_28 1_555 1_555
C80_20 N25_16 1_555 1_555
C81_28 N26_28 1_555 1_555
C87_20 N30_20 1_555 1_555
C88_28 N31_28 1_555 1_555
C89_28 N32_28 1_555 1_555
C90_20 N33_20 1_555 1_555
C91_28 N34_28 1_555 1_555
C92_20 N35_20 1_555 1_555
C92_20 N40_20 1_555 1_555
C93_28 N36_28 1_555 1_555
C93_28 N41_28 1_555 1_555
C94_28 N37_28 1_555 1_555
C94_28 N42_28 1_555 1_555
C95_20 N38_20 1_555 1_555
C95_20 N43_20 1_555 1_555
C96_28 N39_28 1_555 1_555
C96_28 N44_28 1_555 1_555
C105_20 N48_20 1_555 1_555
C107_20 N45_20 1_555 1_555
C108_28 N46_28 1_555 1_555
C109_28 N47_16 1_555 1_555
C110_20 N48_20 1_555 1_555
C111_28 N49_28 1_555 1_555
C112_20 C117_20 1_555 1_555
C113_28 C118_28 1_555 1_555
C114_28 C119_28 1_555 1_555
C115_20 C120_20 1_555 1_555
C116_28 C121_28 1_555 1_555
Co7_20 N1_33 1_555 1_555
S1_33 C1_33 1_555 1_555
C1_33 N1_33 1_555 1_555
C2_33 H1_33 1_555 1_555
C3_33 C2_33 1_555 1_555
H2_33 C3_33 1_555 1_555
C4_33 C3_33 1_555 1_555
H3_33 C4_33 1_555 1_555
C5_33 C4_33 1_555 1_555
C6_33 C5_33 1_555 1_555
H4_33 C6_33 1_555 1_555
C7_33 H5_33 1_555 1_555
C8_33 C7_33 1_555 1_555
H6_33 C8_33 1_555 1_555
C9_33 C8_33 1_555 1_555
H7_33 C9_33 1_555 1_555
C10_33 C9_33 1_555 1_555
C11_33 C10_33 1_555 1_555
H8_33 C11_33 1_555 1_555
C12_33 C10_33 1_555 1_555
C13_33 C5_33 1_555 1_555
C14_33 C15_33 1_555 1_555
C15_33 C16_33 1_555 1_555
C16_33 H9_33 1_555 1_555
C17_33 H10_33 1_555 1_555
C18_33 C17_33 1_555 1_555
H11_33 C18_33 1_555 1_555
C19_33 C15_33 1_555 1_555
H12_33 C19_33 1_555 1_555
N2_33 Co7_20 1_555 1_555
N27_17 C7_33 1_555 1_555
N4_33 C12_33 1_555 1_555
N5_33 C12_33 1_555 1_555
N6_33 C13_33 1_555 1_555
N50_15 C16_33 1_555 1_555
Co5_20 N12_29 1_555 1_555
Co8_19 N26_29 1_555 1_555
Co16_5 N46_29 1_555 1_555
Co16_14 N49_29 1_555 1_555
S3_33 C27_33 1_555 1_555
S4_29 C28_29 1_555 1_555
S5_29 C29_29 1_555 1_555
C27_33 N11_33 1_555 1_555
C28_29 N12_29 1_555 1_555
C29_29 N13_29 1_555 1_555
C33_29 H18_29 1_555 1_555
C36_29 H21_29 1_555 1_555
C38_29 C33_29 1_555 1_555
C39_29 C34_29 1_555 1_555
C41_29 C36_29 1_555 1_555
H23_29 C38_29 1_555 1_555
H24_29 C39_29 1_555 1_555
H26_29 C41_29 1_555 1_555
C43_29 C38_29 1_555 1_555
C44_29 C39_29 1_555 1_555
C46_29 C41_29 1_555 1_555
H28_29 C43_29 1_555 1_555
H29_29 C44_29 1_555 1_555
H31_29 C46_29 1_555 1_555
C48_29 C43_29 1_555 1_555
C49_29 C44_29 1_555 1_555
C51_29 C46_29 1_555 1_555
C53_29 C48_29 1_555 1_555
C54_29 C49_29 1_555 1_555
C56_29 C51_29 1_555 1_555
H33_29 C53_29 1_555 1_555
H34_29 C54_29 1_555 1_555
H36_29 C56_29 1_555 1_555
C58_29 H38_29 1_555 1_555
C59_29 H39_29 1_555 1_555
C61_29 H41_29 1_555 1_555
C63_29 C58_29 1_555 1_555
C64_29 C59_29 1_555 1_555
C66_29 C61_29 1_555 1_555
H43_29 C63_29 1_555 1_555
H44_29 C64_29 1_555 1_555
H46_29 C66_29 1_555 1_555
C68_29 C63_29 1_555 1_555
C69_29 C64_29 1_555 1_555
C71_29 C66_29 1_555 1_555
H48_29 C68_29 1_555 1_555
H49_29 C69_29 1_555 1_555
H51_29 C71_29 1_555 1_555
C73_29 C68_29 1_555 1_555
C74_29 C69_29 1_555 1_555
C76_29 C71_29 1_555 1_555
C78_29 C73_29 1_555 1_555
C79_29 C74_29 1_555 1_555
C81_29 C76_29 1_555 1_555
H53_29 C78_29 1_555 1_555
H54_29 C79_29 1_555 1_555
H56_29 C81_29 1_555 1_555
C83_29 C73_29 1_555 1_555
C84_29 C74_29 1_555 1_555
C86_29 C76_29 1_555 1_555
C88_29 C48_29 1_555 1_555
C89_29 C49_29 1_555 1_555
C91_29 C51_29 1_555 1_555
C93_29 C98_29 1_555 1_555
C94_29 C99_29 1_555 1_555
C96_29 C101_29 1_555 1_555
C98_29 C103_29 1_555 1_555
C99_29 C104_29 1_555 1_555
C101_29 C106_29 1_555 1_555
C103_29 H58_29 1_555 1_555
C104_29 H59_29 1_555 1_555
C106_29 H61_29 1_555 1_555
C108_29 H63_29 1_555 1_555
C109_29 H64_29 1_555 1_555
C111_29 H66_29 1_555 1_555
C113_29 C108_29 1_555 1_555
C114_29 C109_29 1_555 1_555
C116_29 C111_29 1_555 1_555
H68_29 C113_29 1_555 1_555
H69_29 C114_29 1_555 1_555
H71_29 C116_29 1_555 1_555
C118_29 C98_29 1_555 1_555
C119_29 C99_29 1_555 1_555
C121_29 C101_29 1_555 1_555
H73_29 C118_29 1_555 1_555
H74_29 C119_29 1_555 1_555
H76_29 C121_29 1_555 1_555
N11_33 Co7_20 1_555 1_555
N13_29 Co5_20 1_555 1_555
N17_29 Co5_20 1_555 1_555
N20_29 Co5_20 1_555 1_555
N23_29 Co7_20 1_555 1_555
N24_29 Co7_20 1_555 1_555
N26_29 C61_29 1_555 1_555
N27_29 Co5_20 1_555 1_555
N31_29 C83_29 1_555 1_555
N32_29 C84_29 1_555 1_555
N34_29 C86_29 1_555 1_555
N36_29 C83_29 1_555 1_555
N37_29 C84_29 1_555 1_555
N39_29 C86_29 1_555 1_555
N41_29 C88_29 1_555 1_555
N42_29 C89_29 1_555 1_555
N44_29 C91_29 1_555 1_555
N46_29 C103_29 1_555 1_555
N51_15 C104_29 1_555 1_555
N49_29 C106_29 1_555 1_555
N55_33 Co16_5 1_555 1_555
N56_33 Co16_5 1_555 1_555
C2_33 N2_33 1_555 1_555
C6_33 N2_33 1_555 1_555
C11_33 N27_17 1_555 1_555
C13_33 N4_33 1_555 1_555
C14_33 N5_33 1_555 1_555
C14_33 N6_33 1_555 1_555
C17_33 N50_15 1_555 1_555
C18_33 C19_33 1_555 1_555
C33_29 N17_29 1_555 1_555
C34_29 N21_16 1_555 1_555
C36_29 N20_29 1_555 1_555
C53_29 N17_29 1_555 1_555
C54_29 N21_16 1_555 1_555
C56_29 N20_29 1_555 1_555
C58_29 N23_29 1_555 1_555
C59_29 N24_29 1_555 1_555
C78_29 N23_29 1_555 1_555
C79_29 N24_29 1_555 1_555
C81_29 N26_29 1_555 1_555
C88_29 N31_29 1_555 1_555
C89_29 N32_29 1_555 1_555
C91_29 N34_29 1_555 1_555
C93_29 N36_29 1_555 1_555
C93_29 N41_29 1_555 1_555
C94_29 N37_29 1_555 1_555
C94_29 N42_29 1_555 1_555
C96_29 N39_29 1_555 1_555
C96_29 N44_29 1_555 1_555
C108_29 N46_29 1_555 1_555
C109_29 N51_15 1_555 1_555
C111_29 N49_29 1_555 1_555
C113_29 C118_29 1_555 1_555
C114_29 C119_29 1_555 1_555
C116_29 C121_29 1_555 1_555
S11_33 C125_33 1_555 1_555
S12_33 C126_33 1_555 1_555
C3_34 C2_34 1_555 1_555
H2_34 C3_34 1_555 1_555
C4_34 C3_34 1_555 1_555
H3_34 C4_34 1_555 1_555
C5_34 C4_34 1_555 1_555
C6_34 C5_34 1_555 1_555
H4_34 C6_34 1_555 1_555
C7_34 H5_34 1_555 1_555
C8_34 C7_34 1_555 1_555
H6_34 C8_34 1_555 1_555
C9_34 C8_34 1_555 1_555
H7_34 C9_34 1_555 1_555
C10_34 C9_34 1_555 1_555
C11_34 C10_34 1_555 1_555
H8_34 C11_34 1_555 1_555
C12_34 C10_34 1_555 1_555
C13_34 C5_34 1_555 1_555
C14_34 C15_34 1_555 1_555
C15_34 C16_34 1_555 1_555
C16_34 H9_34 1_555 1_555
C17_34 H10_34 1_555 1_555
C18_34 C17_34 1_555 1_555
H11_34 C18_34 1_555 1_555
C19_34 C15_34 1_555 1_555
H12_34 C19_34 1_555 1_555
N2_34 Co7_18 1_555 1_555
N27_19 C7_34 1_555 1_555
N4_34 C12_34 1_555 1_555
N5_34 C12_34 1_555 1_555
N6_34 C13_34 1_555 1_555
N50_16 C16_34 1_555 1_555
S3_34 C27_34 1_555 1_555
C27_34 N11_34 1_555 1_555
C34_30 H19_30 1_555 1_555
C39_30 C34_30 1_555 1_555
H24_30 C39_30 1_555 1_555
C44_30 C39_30 1_555 1_555
H29_30 C44_30 1_555 1_555
C49_30 C44_30 1_555 1_555
C54_30 C49_30 1_555 1_555
H34_30 C54_30 1_555 1_555
C59_30 H39_30 1_555 1_555
C64_30 C59_30 1_555 1_555
H44_30 C64_30 1_555 1_555
C69_30 C64_30 1_555 1_555
H49_30 C69_30 1_555 1_555
C74_30 C69_30 1_555 1_555
C79_30 C74_30 1_555 1_555
H54_30 C79_30 1_555 1_555
C84_30 C74_30 1_555 1_555
C89_30 C49_30 1_555 1_555
C94_30 C99_30 1_555 1_555
C99_30 C104_30 1_555 1_555
C104_30 H59_30 1_555 1_555
C109_30 H64_30 1_555 1_555
C114_30 C109_30 1_555 1_555
H69_30 C114_30 1_555 1_555
C119_30 C99_30 1_555 1_555
H74_30 C119_30 1_555 1_555
N11_34 Co7_18 1_555 1_555
N24_30 Co7_18 1_555 1_555
N32_30 C84_30 1_555 1_555
N37_30 C84_30 1_555 1_555
N42_30 C89_30 1_555 1_555
N51_16 C104_30 1_555 1_555
C2_34 N2_34 1_555 1_555
C6_34 N2_34 1_555 1_555
C11_34 N27_19 1_555 1_555
C13_34 N4_34 1_555 1_555
C14_34 N5_34 1_555 1_555
C14_34 N6_34 1_555 1_555
C17_34 N50_16 1_555 1_555
C18_34 C19_34 1_555 1_555
C34_30 N21_13 1_555 1_555
C54_30 N21_13 1_555 1_555
C59_30 N24_30 1_555 1_555
C79_30 N24_30 1_555 1_555
C89_30 N32_30 1_555 1_555
C94_30 N37_30 1_555 1_555
C94_30 N42_30 1_555 1_555
C109_30 N51_16 1_555 1_555
C114_30 C119_30 1_555 1_555
Co7_19 N1_34 1_555 1_555
S1_34 C1_34 1_555 1_555
C1_34 N1_34 1_555 1_555
Co5_19 N12_30 1_555 1_555
Co8_16 N26_30 1_555 1_555
Co16_7 N46_30 1_555 1_555
Co16_13 N49_30 1_555 1_555
S4_30 C28_30 1_555 1_555
S5_30 C29_30 1_555 1_555
S11_34 C125_34 1_555 1_555
S12_34 C126_34 1_555 1_555
C28_30 N12_30 1_555 1_555
C29_30 N13_30 1_555 1_555
C33_30 H18_30 1_555 1_555
C36_30 H21_30 1_555 1_555
C38_30 C33_30 1_555 1_555
C41_30 C36_30 1_555 1_555
H23_30 C38_30 1_555 1_555
H26_30 C41_30 1_555 1_555
C43_30 C38_30 1_555 1_555
C46_30 C41_30 1_555 1_555
H28_30 C43_30 1_555 1_555
H31_30 C46_30 1_555 1_555
C48_30 C43_30 1_555 1_555
C51_30 C46_30 1_555 1_555
C53_30 C48_30 1_555 1_555
C56_30 C51_30 1_555 1_555
H33_30 C53_30 1_555 1_555
H36_30 C56_30 1_555 1_555
C58_30 H38_30 1_555 1_555
C61_30 H41_30 1_555 1_555
C63_30 C58_30 1_555 1_555
C66_30 C61_30 1_555 1_555
H43_30 C63_30 1_555 1_555
H46_30 C66_30 1_555 1_555
C68_30 C63_30 1_555 1_555
C71_30 C66_30 1_555 1_555
H48_30 C68_30 1_555 1_555
H51_30 C71_30 1_555 1_555
C73_30 C68_30 1_555 1_555
C76_30 C71_30 1_555 1_555
C78_30 C73_30 1_555 1_555
C81_30 C76_30 1_555 1_555
H53_30 C78_30 1_555 1_555
H56_30 C81_30 1_555 1_555
C83_30 C73_30 1_555 1_555
C86_30 C76_30 1_555 1_555
C88_30 C48_30 1_555 1_555
C91_30 C51_30 1_555 1_555
C93_30 C98_30 1_555 1_555
C96_30 C101_30 1_555 1_555
C98_30 C103_30 1_555 1_555
C101_30 C106_30 1_555 1_555
C103_30 H58_30 1_555 1_555
C106_30 H61_30 1_555 1_555
C108_30 H63_30 1_555 1_555
C111_30 H66_30 1_555 1_555
C113_30 C108_30 1_555 1_555
C116_30 C111_30 1_555 1_555
H68_30 C113_30 1_555 1_555
H71_30 C116_30 1_555 1_555
C118_30 C98_30 1_555 1_555
C121_30 C101_30 1_555 1_555
H73_30 C118_30 1_555 1_555
H76_30 C121_30 1_555 1_555
C125_34 N55_34 1_555 1_555
C126_34 N56_34 1_555 1_555
N13_30 Co5_19 1_555 1_555
N17_30 Co5_19 1_555 1_555
N20_30 Co5_19 1_555 1_555
N23_30 Co7_19 1_555 1_555
N26_30 C61_30 1_555 1_555
N27_30 Co5_19 1_555 1_555
N31_30 C83_30 1_555 1_555
N34_30 C86_30 1_555 1_555
N36_30 C83_30 1_555 1_555
N39_30 C86_30 1_555 1_555
N41_30 C88_30 1_555 1_555
N44_30 C91_30 1_555 1_555
N46_30 C103_30 1_555 1_555
N49_30 C106_30 1_555 1_555
N55_34 Co16_7 1_555 1_555
N56_34 Co16_7 1_555 1_555
N64_34 Co16_7 1_555 1_555
N65_34 Co16_7 1_555 1_555
C33_30 N17_30 1_555 1_555
C36_30 N20_30 1_555 1_555
C53_30 N17_30 1_555 1_555
C56_30 N20_30 1_555 1_555
C58_30 N23_30 1_555 1_555
C78_30 N23_30 1_555 1_555
C81_30 N26_30 1_555 1_555
C88_30 N31_30 1_555 1_555
C91_30 N34_30 1_555 1_555
C93_30 N36_30 1_555 1_555
C93_30 N41_30 1_555 1_555
C96_30 N39_30 1_555 1_555
C96_30 N44_30 1_555 1_555
C108_30 N46_30 1_555 1_555
C111_30 N49_30 1_555 1_555
C113_30 C118_30 1_555 1_555
C116_30 C121_30 1_555 1_555
Co5_16 N12_31 1_555 1_555
Co8_17 N26_31 1_555 1_555
Co16_16 N49_31 1_555 1_555
S4_31 C28_31 1_555 1_555
C28_31 N12_31 1_555 1_555
C41_31 C36_31 1_555 1_555
H26_31 C41_31 1_555 1_555
C46_31 C41_31 1_555 1_555
H31_31 C46_31 1_555 1_555
C51_31 C46_31 1_555 1_555
C56_31 C51_31 1_555 1_555
H36_31 C56_31 1_555 1_555
C61_31 H41_31 1_555 1_555
C66_31 C61_31 1_555 1_555
H46_31 C66_31 1_555 1_555
C71_31 C66_31 1_555 1_555
H51_31 C71_31 1_555 1_555
C76_31 C71_31 1_555 1_555
C81_31 C76_31 1_555 1_555
H56_31 C81_31 1_555 1_555
C86_31 C76_31 1_555 1_555
C91_31 C51_31 1_555 1_555
C96_31 C101_31 1_555 1_555
C101_31 C106_31 1_555 1_555
C106_31 H61_31 1_555 1_555
C111_31 H66_31 1_555 1_555
C116_31 C111_31 1_555 1_555
H71_31 C116_31 1_555 1_555
C121_31 C101_31 1_555 1_555
H76_31 C121_31 1_555 1_555
N20_31 Co5_16 1_555 1_555
N26_31 C61_31 1_555 1_555
N27_31 Co5_16 1_555 1_555
N34_31 C86_31 1_555 1_555
N39_31 C86_31 1_555 1_555
N44_31 C91_31 1_555 1_555
N49_31 C106_31 1_555 1_555
C36_31 N20_31 1_555 1_555
C56_31 N20_31 1_555 1_555
C81_31 N26_31 1_555 1_555
C91_31 N34_31 1_555 1_555
C96_31 N39_31 1_555 1_555
C96_31 N44_31 1_555 1_555
C111_31 N49_31 1_555 1_555
C116_31 C121_31 1_555 1_555
Co7_16 N1_35 1_555 1_555
S1_35 C1_35 1_555 1_555
C1_35 N1_35 1_555 1_555
C2_35 H1_35 1_555 1_555
C3_35 C2_35 1_555 1_555
H2_35 C3_35 1_555 1_555
C4_35 C3_35 1_555 1_555
H3_35 C4_35 1_555 1_555
C5_35 C4_35 1_555 1_555
C6_35 C5_35 1_555 1_555
H4_35 C6_35 1_555 1_555
C7_35 H5_35 1_555 1_555
C8_35 C7_35 1_555 1_555
H6_35 C8_35 1_555 1_555
C9_35 C8_35 1_555 1_555
H7_35 C9_35 1_555 1_555
C10_35 C9_35 1_555 1_555
C11_35 C10_35 1_555 1_555
H8_35 C11_35 1_555 1_555
C12_35 C10_35 1_555 1_555
C13_35 C5_35 1_555 1_555
C14_35 C15_35 1_555 1_555
C15_35 C16_35 1_555 1_555
C16_35 H9_35 1_555 1_555
C17_35 H10_35 1_555 1_555
C18_35 C17_35 1_555 1_555
H11_35 C18_35 1_555 1_555
C19_35 C15_35 1_555 1_555
H12_35 C19_35 1_555 1_555
N2_35 Co7_16 1_555 1_555
N27_20 C7_35 1_555 1_555
N4_35 C12_35 1_555 1_555
N5_35 C12_35 1_555 1_555
N6_35 C13_35 1_555 1_555
N50_14 C16_35 1_555 1_555
Co16_6 N46_31 1_555 1_555
S3_35 C27_35 1_555 1_555
S5_31 C29_31 1_555 1_555
S11_35 C125_35 1_555 1_555
S12_35 C126_35 1_555 1_555
C27_35 N11_35 1_555 1_555
C29_31 N13_31 1_555 1_555
C34_31 H19_31 1_555 1_555
C38_31 C33_31 1_555 1_555
C39_31 C34_31 1_555 1_555
H23_31 C38_31 1_555 1_555
H24_31 C39_31 1_555 1_555
C43_31 C38_31 1_555 1_555
C44_31 C39_31 1_555 1_555
H28_31 C43_31 1_555 1_555
H29_31 C44_31 1_555 1_555
C48_31 C43_31 1_555 1_555
C49_31 C44_31 1_555 1_555
C53_31 C48_31 1_555 1_555
C54_31 C49_31 1_555 1_555
H33_31 C53_31 1_555 1_555
H34_31 C54_31 1_555 1_555
C58_31 H38_31 1_555 1_555
C59_31 H39_31 1_555 1_555
C63_31 C58_31 1_555 1_555
C64_31 C59_31 1_555 1_555
H43_31 C63_31 1_555 1_555
H44_31 C64_31 1_555 1_555
C68_31 C63_31 1_555 1_555
C69_31 C64_31 1_555 1_555
H48_31 C68_31 1_555 1_555
H49_31 C69_31 1_555 1_555
C73_31 C68_31 1_555 1_555
C74_31 C69_31 1_555 1_555
C78_31 C73_31 1_555 1_555
C79_31 C74_31 1_555 1_555
H53_31 C78_31 1_555 1_555
H54_31 C79_31 1_555 1_555
C83_31 C73_31 1_555 1_555
C84_31 C74_31 1_555 1_555
C88_31 C48_31 1_555 1_555
C89_31 C49_31 1_555 1_555
C93_31 C98_31 1_555 1_555
C94_31 C99_31 1_555 1_555
C98_31 C103_31 1_555 1_555
C99_31 C104_31 1_555 1_555
C103_31 H58_31 1_555 1_555
C104_31 H59_31 1_555 1_555
C108_31 H63_31 1_555 1_555
C109_31 H64_31 1_555 1_555
C113_31 C108_31 1_555 1_555
C114_31 C109_31 1_555 1_555
H68_31 C113_31 1_555 1_555
H69_31 C114_31 1_555 1_555
C118_31 C98_31 1_555 1_555
C119_31 C99_31 1_555 1_555
H73_31 C118_31 1_555 1_555
H74_31 C119_31 1_555 1_555
C125_35 N55_35 1_555 1_555
C126_35 N56_35 1_555 1_555
N11_35 Co7_16 1_555 1_555
N13_31 Co5_17 1_555 1_555
N17_31 Co5_17 1_555 1_555
N23_31 Co7_16 1_555 1_555
N24_31 Co7_16 1_555 1_555
N31_31 C83_31 1_555 1_555
N32_31 C84_31 1_555 1_555
N36_31 C83_31 1_555 1_555
N37_31 C84_31 1_555 1_555
N41_31 C88_31 1_555 1_555
N42_31 C89_31 1_555 1_555
N46_31 C103_31 1_555 1_555
N51_14 C104_31 1_555 1_555
N55_35 Co16_6 1_555 1_555
N56_35 Co16_6 1_555 1_555
N64_35 Co16_6 1_555 1_555
N65_35 Co16_6 1_555 1_555
C2_35 N2_35 1_555 1_555
C6_35 N2_35 1_555 1_555
C11_35 N27_20 1_555 1_555
C13_35 N4_35 1_555 1_555
C14_35 N5_35 1_555 1_555
C14_35 N6_35 1_555 1_555
C17_35 N50_14 1_555 1_555
C18_35 C19_35 1_555 1_555
C33_31 N17_31 1_555 1_555
C34_31 N21_14 1_555 1_555
C53_31 N17_31 1_555 1_555
C54_31 N21_14 1_555 1_555
C58_31 N23_31 1_555 1_555
C59_31 N24_31 1_555 1_555
C78_31 N23_31 1_555 1_555
C79_31 N24_31 1_555 1_555
C88_31 N31_31 1_555 1_555
C89_31 N32_31 1_555 1_555
C93_31 N36_31 1_555 1_555
C93_31 N41_31 1_555 1_555
C94_31 N37_31 1_555 1_555
C94_31 N42_31 1_555 1_555
C108_31 N46_31 1_555 1_555
C109_31 N51_14 1_555 1_555
C113_31 C118_31 1_555 1_555
C114_31 C119_31 1_555 1_555
Co7_17 N1_36 1_555 1_555
S1_36 C1_36 1_555 1_555
C1_36 N1_36 1_555 1_555
C2_36 H1_36 1_555 1_555
C3_36 C2_36 1_555 1_555
H2_36 C3_36 1_555 1_555
C4_36 C3_36 1_555 1_555
H3_36 C4_36 1_555 1_555
C5_36 C4_36 1_555 1_555
C6_36 C5_36 1_555 1_555
H4_36 C6_36 1_555 1_555
C7_36 H5_36 1_555 1_555
C8_36 C7_36 1_555 1_555
H6_36 C8_36 1_555 1_555
C9_36 C8_36 1_555 1_555
H7_36 C9_36 1_555 1_555
C10_36 C9_36 1_555 1_555
C11_36 C10_36 1_555 1_555
H8_36 C11_36 1_555 1_555
C12_36 C10_36 1_555 1_555
C13_36 C5_36 1_555 1_555
C14_36 C15_36 1_555 1_555
C15_36 C16_36 1_555 1_555
C16_36 H9_36 1_555 1_555
C17_36 H10_36 1_555 1_555
C18_36 C17_36 1_555 1_555
H11_36 C18_36 1_555 1_555
C19_36 C15_36 1_555 1_555
H12_36 C19_36 1_555 1_555
N2_36 Co7_17 1_555 1_555
N27_18 C7_36 1_555 1_555
N4_36 C12_36 1_555 1_555
N5_36 C12_36 1_555 1_555
N6_36 C13_36 1_555 1_555
N50_13 C16_36 1_555 1_555
Co5_18 N12_32 1_555 1_555
Co8_18 N26_32 1_555 1_555
Co16_8 N46_32 1_555 1_555
Co16_15 N49_32 1_555 1_555
S3_36 C27_36 1_555 1_555
S4_32 C28_32 1_555 1_555
S5_32 C29_32 1_555 1_555
S11_36 C125_36 1_555 1_555
S12_36 C126_36 1_555 1_555
C27_36 N11_36 1_555 1_555
C28_32 N12_32 1_555 1_555
C29_32 N13_32 1_555 1_555
C33_32 H18_32 1_555 1_555
C34_32 H19_32 1_555 1_555
C36_32 H21_32 1_555 1_555
C38_32 C33_32 1_555 1_555
C39_32 C34_32 1_555 1_555
C41_32 C36_32 1_555 1_555
H23_32 C38_32 1_555 1_555
H24_32 C39_32 1_555 1_555
H26_32 C41_32 1_555 1_555
C43_32 C38_32 1_555 1_555
C44_32 C39_32 1_555 1_555
C46_32 C41_32 1_555 1_555
H28_32 C43_32 1_555 1_555
H29_32 C44_32 1_555 1_555
H31_32 C46_32 1_555 1_555
C48_32 C43_32 1_555 1_555
C49_32 C44_32 1_555 1_555
C51_32 C46_32 1_555 1_555
C53_32 C48_32 1_555 1_555
C54_32 C49_32 1_555 1_555
C56_32 C51_32 1_555 1_555
H33_32 C53_32 1_555 1_555
H34_32 C54_32 1_555 1_555
H36_32 C56_32 1_555 1_555
C58_32 H38_32 1_555 1_555
C59_32 H39_32 1_555 1_555
C61_32 H41_32 1_555 1_555
C63_32 C58_32 1_555 1_555
C64_32 C59_32 1_555 1_555
C66_32 C61_32 1_555 1_555
H43_32 C63_32 1_555 1_555
H44_32 C64_32 1_555 1_555
H46_32 C66_32 1_555 1_555
C68_32 C63_32 1_555 1_555
C69_32 C64_32 1_555 1_555
C71_32 C66_32 1_555 1_555
H48_32 C68_32 1_555 1_555
H49_32 C69_32 1_555 1_555
H51_32 C71_32 1_555 1_555
C73_32 C68_32 1_555 1_555
C74_32 C69_32 1_555 1_555
C76_32 C71_32 1_555 1_555
C78_32 C73_32 1_555 1_555
C79_32 C74_32 1_555 1_555
C81_32 C76_32 1_555 1_555
H53_32 C78_32 1_555 1_555
H54_32 C79_32 1_555 1_555
H56_32 C81_32 1_555 1_555
C83_32 C73_32 1_555 1_555
C84_32 C74_32 1_555 1_555
C86_32 C76_32 1_555 1_555
C88_32 C48_32 1_555 1_555
C89_32 C49_32 1_555 1_555
C91_32 C51_32 1_555 1_555
C93_32 C98_32 1_555 1_555
C94_32 C99_32 1_555 1_555
C96_32 C101_32 1_555 1_555
C98_32 C103_32 1_555 1_555
C99_32 C104_32 1_555 1_555
C101_32 C106_32 1_555 1_555
C103_32 H58_32 1_555 1_555
C104_32 H59_32 1_555 1_555
C106_32 H61_32 1_555 1_555
C108_32 H63_32 1_555 1_555
C109_32 H64_32 1_555 1_555
C111_32 H66_32 1_555 1_555
C113_32 C108_32 1_555 1_555
C114_32 C109_32 1_555 1_555
C116_32 C111_32 1_555 1_555
H68_32 C113_32 1_555 1_555
H69_32 C114_32 1_555 1_555
H71_32 C116_32 1_555 1_555
C118_32 C98_32 1_555 1_555
C119_32 C99_32 1_555 1_555
C121_32 C101_32 1_555 1_555
H73_32 C118_32 1_555 1_555
H74_32 C119_32 1_555 1_555
H76_32 C121_32 1_555 1_555
C125_36 N55_36 1_555 1_555
C126_36 N56_36 1_555 1_555
N11_36 Co7_17 1_555 1_555
N13_32 Co5_18 1_555 1_555
N17_32 Co5_18 1_555 1_555
N20_32 Co5_18 1_555 1_555
N23_32 Co7_17 1_555 1_555
N24_32 Co7_17 1_555 1_555
N26_32 C61_32 1_555 1_555
N27_32 Co5_18 1_555 1_555
N31_32 C83_32 1_555 1_555
N32_32 C84_32 1_555 1_555
N34_32 C86_32 1_555 1_555
N36_32 C83_32 1_555 1_555
N37_32 C84_32 1_555 1_555
N39_32 C86_32 1_555 1_555
N41_32 C88_32 1_555 1_555
N42_32 C89_32 1_555 1_555
N44_32 C91_32 1_555 1_555
N46_32 C103_32 1_555 1_555
N51_13 C104_32 1_555 1_555
N49_32 C106_32 1_555 1_555
N55_36 Co16_8 1_555 1_555
N56_36 Co16_8 1_555 1_555
N64_36 Co16_8 1_555 1_555
N65_36 Co16_8 1_555 1_555
C2_36 N2_36 1_555 1_555
C6_36 N2_36 1_555 1_555
C11_36 N27_18 1_555 1_555
C13_36 N4_36 1_555 1_555
C14_36 N5_36 1_555 1_555
C14_36 N6_36 1_555 1_555
C17_36 N50_13 1_555 1_555
C18_36 C19_36 1_555 1_555
C33_32 N17_32 1_555 1_555
C34_32 N21_15 1_555 1_555
C36_32 N20_32 1_555 1_555
C53_32 N17_32 1_555 1_555
C54_32 N21_15 1_555 1_555
C56_32 N20_32 1_555 1_555
C58_32 N23_32 1_555 1_555
C59_32 N24_32 1_555 1_555
C78_32 N23_32 1_555 1_555
C79_32 N24_32 1_555 1_555
C81_32 N26_32 1_555 1_555
C88_32 N31_32 1_555 1_555
C89_32 N32_32 1_555 1_555
C91_32 N34_32 1_555 1_555
C93_32 N36_32 1_555 1_555
C93_32 N41_32 1_555 1_555
C94_32 N37_32 1_555 1_555
C94_32 N42_32 1_555 1_555
C96_32 N39_32 1_555 1_555
C96_32 N44_32 1_555 1_555
C108_32 N46_32 1_555 1_555
C109_32 N51_13 1_555 1_555
C111_32 N49_32 1_555 1_555
C113_32 C118_32 1_555 1_555
C114_32 C119_32 1_555 1_555
C116_32 C121_32 1_555 1_555
Co8_3 N1_37 1_555 1_555
S1_37 C1_37 1_555 1_555
C1_37 N1_37 1_555 1_555
C2_37 H1_37 1_555 1_555
C3_37 C2_37 1_555 1_555
H2_37 C3_37 1_555 1_555
C4_37 C3_37 1_555 1_555
H3_37 C4_37 1_555 1_555
C5_37 C4_37 1_555 1_555
C6_37 C5_37 1_555 1_555
H4_37 C6_37 1_555 1_555
C7_37 H5_37 1_555 1_555
C8_37 C7_37 1_555 1_555
H6_37 C8_37 1_555 1_555
C9_37 C8_37 1_555 1_555
H7_37 C9_37 1_555 1_555
C10_37 C9_37 1_555 1_555
C11_37 C10_37 1_555 1_555
H8_37 C11_37 1_555 1_555
C12_37 C10_37 1_555 1_555
C13_37 C5_37 1_555 1_555
C14_37 C15_37 1_555 1_555
C15_37 C16_37 1_555 1_555
C16_37 H9_37 1_555 1_555
C17_37 H10_37 1_555 1_555
C18_37 C17_37 1_555 1_555
H11_37 C18_37 1_555 1_555
C19_37 C15_37 1_555 1_555
H12_37 C19_37 1_555 1_555
N2_37 Co8_3 1_555 1_555
N28_13 C7_37 1_555 1_555
N4_37 C12_37 1_555 1_555
N5_37 C12_37 1_555 1_555
N6_37 C13_37 1_555 1_555
N50_17 C16_37 1_555 1_555
S3_37 C27_37 1_555 1_555
S11_37 C125_37 1_555 1_555
S12_37 C126_37 1_555 1_555
C27_37 N11_37 1_555 1_555
C125_37 N55_37 1_555 1_555
C126_37 N56_37 1_555 1_555
N11_37 Co8_3 1_555 1_555
N55_37 Co16_3 1_555 1_555
N56_37 Co16_3 1_555 1_555
N64_37 Co16_3 1_555 1_555
N65_37 Co16_3 1_555 1_555
C2_37 N2_37 1_555 1_555
C6_37 N2_37 1_555 1_555
C11_37 N28_13 1_555 1_555
C13_37 N4_37 1_555 1_555
C14_37 N5_37 1_555 1_555
C14_37 N6_37 1_555 1_555
C17_37 N50_17 1_555 1_555
C18_37 C19_37 1_555 1_555
Co8 N1_38 1_555 1_555
S1_38 C1_38 1_555 1_555
C1_38 N1_38 1_555 1_555
C2_38 H1_38 1_555 1_555
C3_38 C2_38 1_555 1_555
H2_38 C3_38 1_555 1_555
C4_38 C3_38 1_555 1_555
H3_38 C4_38 1_555 1_555
C5_38 C4_38 1_555 1_555
C6_38 C5_38 1_555 1_555
H4_38 C6_38 1_555 1_555
C7_38 H5_38 1_555 1_555
C8_38 C7_38 1_555 1_555
H6_38 C8_38 1_555 1_555
C9_38 C8_38 1_555 1_555
H7_38 C9_38 1_555 1_555
C10_38 C9_38 1_555 1_555
C11_38 C10_38 1_555 1_555
H8_38 C11_38 1_555 1_555
C12_38 C10_38 1_555 1_555
C13_38 C5_38 1_555 1_555
C14_38 C15_38 1_555 1_555
C15_38 C16_38 1_555 1_555
C16_38 H9_38 1_555 1_555
C17_38 H10_38 1_555 1_555
C18_38 C17_38 1_555 1_555
H11_38 C18_38 1_555 1_555
C19_38 C15_38 1_555 1_555
H12_38 C19_38 1_555 1_555
N2_38 Co8 1_555 1_555
N28_14 C7_38 1_555 1_555
N4_38 C12_38 1_555 1_555
N5_38 C12_38 1_555 1_555
N6_38 C13_38 1_555 1_555
N50_18 C16_38 1_555 1_555
S3_38 C27_38 1_555 1_555
C27_38 N11_38 1_555 1_555
N11_38 Co8 1_555 1_555
N55_38 Co16 1_555 1_555
N56_38 Co16 1_555 1_555
C2_38 N2_38 1_555 1_555
C6_38 N2_38 1_555 1_555
C11_38 N28_14 1_555 1_555
C13_38 N4_38 1_555 1_555
C14_38 N5_38 1_555 1_555
C14_38 N6_38 1_555 1_555
C17_38 N50_18 1_555 1_555
C18_38 C19_38 1_555 1_555
S11_38 C125_38 1_555 1_555
S12_38 C126_38 1_555 1_555
C3_39 C2_39 1_555 1_555
H2_39 C3_39 1_555 1_555
C4_39 C3_39 1_555 1_555
H3_39 C4_39 1_555 1_555
C5_39 C4_39 1_555 1_555
C6_39 C5_39 1_555 1_555
H4_39 C6_39 1_555 1_555
C7_39 H5_39 1_555 1_555
C8_39 C7_39 1_555 1_555
H6_39 C8_39 1_555 1_555
C9_39 C8_39 1_555 1_555
H7_39 C9_39 1_555 1_555
C10_39 C9_39 1_555 1_555
C11_39 C10_39 1_555 1_555
H8_39 C11_39 1_555 1_555
C12_39 C10_39 1_555 1_555
C13_39 C5_39 1_555 1_555
C14_39 C15_39 1_555 1_555
C15_39 C16_39 1_555 1_555
C16_39 H9_39 1_555 1_555
C17_39 H10_39 1_555 1_555
C18_39 C17_39 1_555 1_555
H11_39 C18_39 1_555 1_555
C19_39 C15_39 1_555 1_555
H12_39 C19_39 1_555 1_555
N2_39 Co8_4 1_555 1_555
N28_16 C7_39 1_555 1_555
N4_39 C12_39 1_555 1_555
N5_39 C12_39 1_555 1_555
N6_39 C13_39 1_555 1_555
N50_20 C16_39 1_555 1_555
S3_39 C27_39 1_555 1_555
C27_39 N11_39 1_555 1_555
N11_39 Co8_4 1_555 1_555
C2_39 N2_39 1_555 1_555
C6_39 N2_39 1_555 1_555
C11_39 N28_16 1_555 1_555
C13_39 N4_39 1_555 1_555
C14_39 N5_39 1_555 1_555
C14_39 N6_39 1_555 1_555
C17_39 N50_20 1_555 1_555
C18_39 C19_39 1_555 1_555
Co8_5 N1_39 1_555 1_555
S1_39 C1_39 1_555 1_555
C1_39 N1_39 1_555 1_555
S11_39 C125_39 1_555 1_555
S12_39 C126_39 1_555 1_555
C125_39 N55_39 1_555 1_555
C126_39 N56_39 1_555 1_555
N55_39 Co16_4 1_555 1_555
N56_39 Co16_4 1_555 1_555
N64_39 Co16_4 1_555 1_555
N65_39 Co16_4 1_555 1_555
Co8_2 N1_40 1_555 1_555
S1_40 C1_40 1_555 1_555
C1_40 N1_40 1_555 1_555
C2_40 H1_40 1_555 1_555
C3_40 C2_40 1_555 1_555
H2_40 C3_40 1_555 1_555
C4_40 C3_40 1_555 1_555
H3_40 C4_40 1_555 1_555
C5_40 C4_40 1_555 1_555
C6_40 C5_40 1_555 1_555
H4_40 C6_40 1_555 1_555
C7_40 H5_40 1_555 1_555
C8_40 C7_40 1_555 1_555
H6_40 C8_40 1_555 1_555
C9_40 C8_40 1_555 1_555
H7_40 C9_40 1_555 1_555
C10_40 C9_40 1_555 1_555
C11_40 C10_40 1_555 1_555
H8_40 C11_40 1_555 1_555
C12_40 C10_40 1_555 1_555
C13_40 C5_40 1_555 1_555
C14_40 C15_40 1_555 1_555
C15_40 C16_40 1_555 1_555
C16_40 H9_40 1_555 1_555
C17_40 H10_40 1_555 1_555
C18_40 C17_40 1_555 1_555
H11_40 C18_40 1_555 1_555
C19_40 C15_40 1_555 1_555
H12_40 C19_40 1_555 1_555
N2_40 Co8_2 1_555 1_555
N28_15 C7_40 1_555 1_555
N4_40 C12_40 1_555 1_555
N5_40 C12_40 1_555 1_555
N6_40 C13_40 1_555 1_555
N50_19 C16_40 1_555 1_555
S3_40 C27_40 1_555 1_555
S11_40 C125_40 1_555 1_555
S12_40 C126_40 1_555 1_555
C27_40 N11_40 1_555 1_555
C125_40 N55_40 1_555 1_555
C126_40 N56_40 1_555 1_555
N11_40 Co8_2 1_555 1_555
N55_40 Co16_2 1_555 1_555
N56_40 Co16_2 1_555 1_555
N64_40 Co16_2 1_555 1_555
N65_40 Co16_2 1_555 1_555
C2_40 N2_40 1_555 1_555
C6_40 N2_40 1_555 1_555
C11_40 N28_15 1_555 1_555
C13_40 N4_40 1_555 1_555
C14_40 N5_40 1_555 1_555
C14_40 N6_40 1_555 1_555
C17_40 N50_19 1_555 1_555
C18_40 C19_40 1_555 1_555
S9_21 C123_21 1_555 1_555
S10_21 C124_21 1_555 1_555
Co8_12 N1_41 1_555 1_555
Co12_4 N7_21 1_555 1_555
S1_41 C1_41 1_555 1_555
S2_21 C20_21 1_555 1_555
C1_41 N1_41 1_555 1_555
C2_41 H1_41 1_555 1_555
C3_41 C2_41 1_555 1_555
H2_41 C3_41 1_555 1_555
C4_41 C3_41 1_555 1_555
H3_41 C4_41 1_555 1_555
C5_41 C4_41 1_555 1_555
C6_41 C5_41 1_555 1_555
H4_41 C6_41 1_555 1_555
C7_41 H5_41 1_555 1_555
C8_41 C7_41 1_555 1_555
H6_41 C8_41 1_555 1_555
C9_41 C8_41 1_555 1_555
H7_41 C9_41 1_555 1_555
C10_41 C9_41 1_555 1_555
C11_41 C10_41 1_555 1_555
H8_41 C11_41 1_555 1_555
C12_41 C10_41 1_555 1_555
C13_41 C5_41 1_555 1_555
C14_41 C15_41 1_555 1_555
C15_41 C16_41 1_555 1_555
C16_41 H9_41 1_555 1_555
C17_41 H10_41 1_555 1_555
C18_41 C17_41 1_555 1_555
H11_41 C18_41 1_555 1_555
C19_41 C15_41 1_555 1_555
H12_41 C19_41 1_555 1_555
C20_21 N8_21 1_555 1_555
N2_41 Co8_12 1_555 1_555
N27_25 C7_41 1_555 1_555
N4_41 C12_41 1_555 1_555
N5_41 C12_41 1_555 1_555
N6_41 C13_41 1_555 1_555
N7_21 C16_41 1_555 1_555
N8_21 Co12_4 1_555 1_555
Co8_16 N19_21 1_555 1_555
Co11_12 N45_21 1_555 1_555
S3_41 C27_41 1_555 1_555
S8_21 C122_21 1_555 1_555
S11_41 C125_41 1_555 1_555
S12_41 C126_41 1_555 1_555
C27_41 N11_41 1_555 1_555
C32_21 H17_21 1_555 1_555
C35_21 H20_21 1_555 1_555
C37_21 C32_21 1_555 1_555
C40_21 C35_21 1_555 1_555
H22_21 C37_21 1_555 1_555
H25_21 C40_21 1_555 1_555
C42_21 C37_21 1_555 1_555
C45_21 C40_21 1_555 1_555
H27_21 C42_21 1_555 1_555
H30_21 C45_21 1_555 1_555
C47_21 C42_21 1_555 1_555
C50_21 C45_21 1_555 1_555
C52_21 C47_21 1_555 1_555
C55_21 C50_21 1_555 1_555
H32_21 C52_21 1_555 1_555
H35_21 C55_21 1_555 1_555
C57_21 H37_21 1_555 1_555
C60_21 H40_21 1_555 1_555
C62_21 C57_21 1_555 1_555
C65_21 C60_21 1_555 1_555
H42_21 C62_21 1_555 1_555
H45_21 C65_21 1_555 1_555
C67_21 C62_21 1_555 1_555
C70_21 C65_21 1_555 1_555
H47_21 C67_21 1_555 1_555
H50_21 C70_21 1_555 1_555
C72_21 C67_21 1_555 1_555
C75_21 C70_21 1_555 1_555
C77_21 C72_21 1_555 1_555
C80_21 C75_21 1_555 1_555
H52_21 C77_21 1_555 1_555
H55_21 C80_21 1_555 1_555
C82_21 C72_21 1_555 1_555
C85_21 C75_21 1_555 1_555
C87_21 C47_21 1_555 1_555
C90_21 C50_21 1_555 1_555
C92_21 C97_21 1_555 1_555
C95_21 C100_21 1_555 1_555
C97_21 C102_21 1_555 1_555
C100_21 C105_21 1_555 1_555
C102_21 H57_21 1_555 1_555
C105_21 H60_21 1_555 1_555
C107_21 H62_21 1_555 1_555
C110_21 H65_21 1_555 1_555
C112_21 C107_21 1_555 1_555
C115_21 C110_21 1_555 1_555
H67_21 C112_21 1_555 1_555
H70_21 C115_21 1_555 1_555
C117_21 C97_21 1_555 1_555
C120_21 C100_21 1_555 1_555
H72_21 C117_21 1_555 1_555
H75_21 C120_21 1_555 1_555
C122_21 N52_21 1_555 1_555
C125_41 N55_41 1_555 1_555
C126_41 N56_41 1_555 1_555
N11_41 Co8_12 1_555 1_555
N16_21 Co8_12 1_555 1_555
N19_21 C35_21 1_555 1_555
N27_32 C57_21 1_555 1_555
N30_21 C82_21 1_555 1_555
N33_21 C85_21 1_555 1_555
N35_21 C82_21 1_555 1_555
N38_21 C85_21 1_555 1_555
N40_21 C87_21 1_555 1_555
N43_21 C90_21 1_555 1_555
N45_21 C102_21 1_555 1_555
N48_21 Co12_4 1_555 1_555
N50_21 Co11_12 1_555 1_555
N52_21 Co12_4 1_555 1_555
N53_21 Co11_12 1_555 1_555
N54_21 Co11_12 1_555 1_555
N55_41 Co16_15 1_555 1_555
N56_41 Co16_15 1_555 1_555
N64_41 Co16_15 1_555 1_555
N65_41 Co16_15 1_555 1_555
C2_41 N2_41 1_555 1_555
C6_41 N2_41 1_555 1_555
C11_41 N27_25 1_555 1_555
C13_41 N4_41 1_555 1_555
C14_41 N5_41 1_555 1_555
C14_41 N6_41 1_555 1_555
C17_41 N7_21 1_555 1_555
C18_41 C19_41 1_555 1_555
C32_21 N16_21 1_555 1_555
C52_21 N16_21 1_555 1_555
C55_21 N19_21 1_555 1_555
C60_21 N27_10 1_555 1_555
C77_21 N27_32 1_555 1_555
C80_21 N27_10 1_555 1_555
C87_21 N30_21 1_555 1_555
C90_21 N33_21 1_555 1_555
C92_21 N35_21 1_555 1_555
C92_21 N40_21 1_555 1_555
C95_21 N38_21 1_555 1_555
C95_21 N43_21 1_555 1_555
C105_21 N48_21 1_555 1_555
C107_21 N45_21 1_555 1_555
C110_21 N48_21 1_555 1_555
C112_21 C117_21 1_555 1_555
C115_21 C120_21 1_555 1_555
S11_42 C125_42 1_555 1_555
S12_42 C126_42 1_555 1_555
Co8_14 N1_42 1_555 1_555
S1_42 C1_42 1_555 1_555
C1_42 N1_42 1_555 1_555
Co11_10 N45_22 1_555 1_555
S9_22 C123_22 1_555 1_555
S10_22 C124_22 1_555 1_555
C37_22 C32_22 1_555 1_555
H22_22 C37_22 1_555 1_555
C42_22 C37_22 1_555 1_555
H27_22 C42_22 1_555 1_555
C47_22 C42_22 1_555 1_555
C52_22 C47_22 1_555 1_555
H32_22 C52_22 1_555 1_555
C57_22 H37_22 1_555 1_555
C62_22 C57_22 1_555 1_555
H42_22 C62_22 1_555 1_555
C67_22 C62_22 1_555 1_555
H47_22 C67_22 1_555 1_555
C72_22 C67_22 1_555 1_555
C77_22 C72_22 1_555 1_555
H52_22 C77_22 1_555 1_555
C82_22 C72_22 1_555 1_555
C87_22 C47_22 1_555 1_555
C92_22 C97_22 1_555 1_555
C97_22 C102_22 1_555 1_555
C102_22 H57_22 1_555 1_555
C107_22 H62_22 1_555 1_555
C112_22 C107_22 1_555 1_555
H67_22 C112_22 1_555 1_555
C117_22 C97_22 1_555 1_555
H72_22 C117_22 1_555 1_555
C123_22 N53_22 1_555 1_555
C124_22 N54_22 1_555 1_555
N16_22 Co8_14 1_555 1_555
N27_30 C57_22 1_555 1_555
N30_22 C82_22 1_555 1_555
N35_22 C82_22 1_555 1_555
N40_22 C87_22 1_555 1_555
N45_22 C102_22 1_555 1_555
N50_22 Co11_10 1_555 1_555
N53_22 Co11_10 1_555 1_555
N54_22 Co11_10 1_555 1_555
N55_42 Co16_13 1_555 1_555
N56_42 Co16_13 1_555 1_555
C32_22 N16_22 1_555 1_555
C52_22 N16_22 1_555 1_555
C77_22 N27_30 1_555 1_555
C87_22 N30_22 1_555 1_555
C92_22 N35_22 1_555 1_555
C92_22 N40_22 1_555 1_555
C107_22 N45_22 1_555 1_555
C112_22 C117_22 1_555 1_555
Co12 N7_22 1_555 1_555
S2_22 C20_22 1_555 1_555
C3_42 C2_42 1_555 1_555
H2_42 C3_42 1_555 1_555
C4_42 C3_42 1_555 1_555
H3_42 C4_42 1_555 1_555
C5_42 C4_42 1_555 1_555
C6_42 C5_42 1_555 1_555
H4_42 C6_42 1_555 1_555
C7_42 H5_42 1_555 1_555
C8_42 C7_42 1_555 1_555
H6_42 C8_42 1_555 1_555
C9_42 C8_42 1_555 1_555
H7_42 C9_42 1_555 1_555
C10_42 C9_42 1_555 1_555
C11_42 C10_42 1_555 1_555
H8_42 C11_42 1_555 1_555
C12_42 C10_42 1_555 1_555
C13_42 C5_42 1_555 1_555
C14_42 C15_42 1_555 1_555
C15_42 C16_42 1_555 1_555
C16_42 H9_42 1_555 1_555
C17_42 H10_42 1_555 1_555
C18_42 C17_42 1_555 1_555
H11_42 C18_42 1_555 1_555
C19_42 C15_42 1_555 1_555
H12_42 C19_42 1_555 1_555
C20_22 N8_22 1_555 1_555
N2_42 Co8_15 1_555 1_555
N27_27 C7_42 1_555 1_555
N4_42 C12_42 1_555 1_555
N5_42 C12_42 1_555 1_555
N6_42 C13_42 1_555 1_555
N7_22 C16_42 1_555 1_555
N8_22 Co12 1_555 1_555
Co8_18 N19_22 1_555 1_555
S3_42 C27_42 1_555 1_555
S8_22 C122_22 1_555 1_555
C27_42 N11_42 1_555 1_555
C35_22 H20_22 1_555 1_555
C40_22 C35_22 1_555 1_555
H25_22 C40_22 1_555 1_555
C45_22 C40_22 1_555 1_555
H30_22 C45_22 1_555 1_555
C50_22 C45_22 1_555 1_555
C55_22 C50_22 1_555 1_555
H35_22 C55_22 1_555 1_555
C60_22 H40_22 1_555 1_555
C65_22 C60_22 1_555 1_555
H45_22 C65_22 1_555 1_555
C70_22 C65_22 1_555 1_555
H50_22 C70_22 1_555 1_555
C75_22 C70_22 1_555 1_555
C80_22 C75_22 1_555 1_555
H55_22 C80_22 1_555 1_555
C85_22 C75_22 1_555 1_555
C90_22 C50_22 1_555 1_555
C95_22 C100_22 1_555 1_555
C100_22 C105_22 1_555 1_555
C105_22 H60_22 1_555 1_555
C110_22 H65_22 1_555 1_555
C115_22 C110_22 1_555 1_555
H70_22 C115_22 1_555 1_555
C120_22 C100_22 1_555 1_555
H75_22 C120_22 1_555 1_555
C122_22 N52_22 1_555 1_555
N11_42 Co8_15 1_555 1_555
N19_22 C35_22 1_555 1_555
N33_22 C85_22 1_555 1_555
N38_22 C85_22 1_555 1_555
N43_22 C90_22 1_555 1_555
N48_22 Co12 1_555 1_555
N52_22 Co12 1_555 1_555
C2_42 N2_42 1_555 1_555
C6_42 N2_42 1_555 1_555
C11_42 N27_27 1_555 1_555
C13_42 N4_42 1_555 1_555
C14_42 N5_42 1_555 1_555
C14_42 N6_42 1_555 1_555
C17_42 N7_22 1_555 1_555
C18_42 C19_42 1_555 1_555
C55_22 N19_22 1_555 1_555
C60_22 N27_12 1_555 1_555
C80_22 N27_12 1_555 1_555
C90_22 N33_22 1_555 1_555
C95_22 N38_22 1_555 1_555
C95_22 N43_22 1_555 1_555
C105_22 N48_22 1_555 1_555
C110_22 N48_22 1_555 1_555
C115_22 C120_22 1_555 1_555
Co8_13 N1_43 1_555 1_555
Co12_3 N7_23 1_555 1_555
S1_43 C1_43 1_555 1_555
C1_43 N1_43 1_555 1_555
C2_43 H1_43 1_555 1_555
C3_43 C2_43 1_555 1_555
H2_43 C3_43 1_555 1_555
C4_43 C3_43 1_555 1_555
H3_43 C4_43 1_555 1_555
C5_43 C4_43 1_555 1_555
C6_43 C5_43 1_555 1_555
H4_43 C6_43 1_555 1_555
C7_43 H5_43 1_555 1_555
C8_43 C7_43 1_555 1_555
H6_43 C8_43 1_555 1_555
C9_43 C8_43 1_555 1_555
H7_43 C9_43 1_555 1_555
C10_43 C9_43 1_555 1_555
C11_43 C10_43 1_555 1_555
H8_43 C11_43 1_555 1_555
C12_43 C10_43 1_555 1_555
C13_43 C5_43 1_555 1_555
C14_43 C15_43 1_555 1_555
C15_43 C16_43 1_555 1_555
C16_43 H9_43 1_555 1_555
C17_43 H10_43 1_555 1_555
C18_43 C17_43 1_555 1_555
H11_43 C18_43 1_555 1_555
C19_43 C15_43 1_555 1_555
H12_43 C19_43 1_555 1_555
N2_43 Co8_13 1_555 1_555
N27_28 C7_43 1_555 1_555
N4_43 C12_43 1_555 1_555
N5_43 C12_43 1_555 1_555
N6_43 C13_43 1_555 1_555
N7_23 C16_43 1_555 1_555
N8_23 Co12_3 1_555 1_555
Co8_20 N19_23 1_555 1_555
Co11_11 N45_23 1_555 1_555
S3_43 C27_43 1_555 1_555
S9_23 C123_23 1_555 1_555
S10_23 C124_23 1_555 1_555
S11_43 C125_43 1_555 1_555
S12_43 C126_43 1_555 1_555
C27_43 N11_43 1_555 1_555
C32_23 H17_23 1_555 1_555
C37_23 C32_23 1_555 1_555
C40_23 C35_23 1_555 1_555
H22_23 C37_23 1_555 1_555
H25_23 C40_23 1_555 1_555
C42_23 C37_23 1_555 1_555
C45_23 C40_23 1_555 1_555
H27_23 C42_23 1_555 1_555
H30_23 C45_23 1_555 1_555
C47_23 C42_23 1_555 1_555
C50_23 C45_23 1_555 1_555
C52_23 C47_23 1_555 1_555
C55_23 C50_23 1_555 1_555
H32_23 C52_23 1_555 1_555
H35_23 C55_23 1_555 1_555
C57_23 H37_23 1_555 1_555
C60_23 H40_23 1_555 1_555
C62_23 C57_23 1_555 1_555
C65_23 C60_23 1_555 1_555
H42_23 C62_23 1_555 1_555
H45_23 C65_23 1_555 1_555
C67_23 C62_23 1_555 1_555
C70_23 C65_23 1_555 1_555
H47_23 C67_23 1_555 1_555
H50_23 C70_23 1_555 1_555
C72_23 C67_23 1_555 1_555
C75_23 C70_23 1_555 1_555
C77_23 C72_23 1_555 1_555
C80_23 C75_23 1_555 1_555
H52_23 C77_23 1_555 1_555
H55_23 C80_23 1_555 1_555
C82_23 C72_23 1_555 1_555
C85_23 C75_23 1_555 1_555
C87_23 C47_23 1_555 1_555
C90_23 C50_23 1_555 1_555
C92_23 C97_23 1_555 1_555
C95_23 C100_23 1_555 1_555
C97_23 C102_23 1_555 1_555
C100_23 C105_23 1_555 1_555
C102_23 H57_23 1_555 1_555
C105_23 H60_23 1_555 1_555
C107_23 H62_23 1_555 1_555
C110_23 H65_23 1_555 1_555
C112_23 C107_23 1_555 1_555
C115_23 C110_23 1_555 1_555
H67_23 C112_23 1_555 1_555
H70_23 C115_23 1_555 1_555
C117_23 C97_23 1_555 1_555
C120_23 C100_23 1_555 1_555
H72_23 C117_23 1_555 1_555
H75_23 C120_23 1_555 1_555
C123_23 N53_23 1_555 1_555
C124_23 N54_23 1_555 1_555
C125_43 N55_43 1_555 1_555
C126_43 N56_43 1_555 1_555
N11_43 Co8_13 1_555 1_555
N16_23 Co8_13 1_555 1_555
N19_23 C35_23 1_555 1_555
N27_31 C57_23 1_555 1_555
N30_23 C82_23 1_555 1_555
N33_23 C85_23 1_555 1_555
N35_23 C82_23 1_555 1_555
N38_23 C85_23 1_555 1_555
N40_23 C87_23 1_555 1_555
N43_23 C90_23 1_555 1_555
N45_23 C102_23 1_555 1_555
N48_23 Co12_3 1_555 1_555
N50_23 Co11_11 1_555 1_555
N52_23 Co12_3 1_555 1_555
N53_23 Co11_11 1_555 1_555
N54_23 Co11_11 1_555 1_555
N55_43 Co16_16 1_555 1_555
N56_43 Co16_16 1_555 1_555
N64_43 Co16_16 1_555 1_555
N65_43 Co16_16 1_555 1_555
C2_43 N2_43 1_555 1_555
C6_43 N2_43 1_555 1_555
C11_43 N27_28 1_555 1_555
C13_43 N4_43 1_555 1_555
C14_43 N5_43 1_555 1_555
C14_43 N6_43 1_555 1_555
C17_43 N7_23 1_555 1_555
C18_43 C19_43 1_555 1_555
C32_23 N16_23 1_555 1_555
C52_23 N16_23 1_555 1_555
C55_23 N19_23 1_555 1_555
C60_23 N27_11 1_555 1_555
C77_23 N27_31 1_555 1_555
C80_23 N27_11 1_555 1_555
C87_23 N30_23 1_555 1_555
C90_23 N33_23 1_555 1_555
C92_23 N35_23 1_555 1_555
C92_23 N40_23 1_555 1_555
C95_23 N38_23 1_555 1_555
C95_23 N43_23 1_555 1_555
C105_23 N48_23 1_555 1_555
C107_23 N45_23 1_555 1_555
C110_23 N48_23 1_555 1_555
C112_23 C117_23 1_555 1_555
C115_23 C120_23 1_555 1_555
S2_23 C20_23 1_555 1_555
S8_23 C122_23 1_555 1_555
Co8_11 N1_44 1_555 1_555
Co12_2 N7_24 1_555 1_555
S1_44 C1_44 1_555 1_555
S2_24 C20_24 1_555 1_555
C1_44 N1_44 1_555 1_555
C2_44 H1_44 1_555 1_555
C3_44 C2_44 1_555 1_555
H2_44 C3_44 1_555 1_555
C4_44 C3_44 1_555 1_555
H3_44 C4_44 1_555 1_555
C5_44 C4_44 1_555 1_555
C6_44 C5_44 1_555 1_555
H4_44 C6_44 1_555 1_555
C7_44 H5_44 1_555 1_555
C8_44 C7_44 1_555 1_555
H6_44 C8_44 1_555 1_555
C9_44 C8_44 1_555 1_555
H7_44 C9_44 1_555 1_555
C10_44 C9_44 1_555 1_555
C11_44 C10_44 1_555 1_555
H8_44 C11_44 1_555 1_555
C12_44 C10_44 1_555 1_555
C13_44 C5_44 1_555 1_555
C14_44 C15_44 1_555 1_555
C15_44 C16_44 1_555 1_555
C16_44 H9_44 1_555 1_555
C17_44 H10_44 1_555 1_555
C18_44 C17_44 1_555 1_555
H11_44 C18_44 1_555 1_555
C19_44 C15_44 1_555 1_555
H12_44 C19_44 1_555 1_555
C20_24 N8_24 1_555 1_555
N2_44 Co8_11 1_555 1_555
N27_26 C7_44 1_555 1_555
N4_44 C12_44 1_555 1_555
N5_44 C12_44 1_555 1_555
N6_44 C13_44 1_555 1_555
N7_24 C16_44 1_555 1_555
N8_24 Co12_2 1_555 1_555
Co8_17 N19_24 1_555 1_555
Co11_9 N45_24 1_555 1_555
S3_44 C27_44 1_555 1_555
S8_24 C122_24 1_555 1_555
S9_24 C123_24 1_555 1_555
S10_24 C124_24 1_555 1_555
S11_44 C125_44 1_555 1_555
S12_44 C126_44 1_555 1_555
C27_44 N11_44 1_555 1_555
C32_24 H17_24 1_555 1_555
C35_24 H20_24 1_555 1_555
C37_24 C32_24 1_555 1_555
C40_24 C35_24 1_555 1_555
H22_24 C37_24 1_555 1_555
H25_24 C40_24 1_555 1_555
C42_24 C37_24 1_555 1_555
C45_24 C40_24 1_555 1_555
H27_24 C42_24 1_555 1_555
H30_24 C45_24 1_555 1_555
C47_24 C42_24 1_555 1_555
C50_24 C45_24 1_555 1_555
C52_24 C47_24 1_555 1_555
C55_24 C50_24 1_555 1_555
H32_24 C52_24 1_555 1_555
H35_24 C55_24 1_555 1_555
C57_24 H37_24 1_555 1_555
C60_24 H40_24 1_555 1_555
C62_24 C57_24 1_555 1_555
C65_24 C60_24 1_555 1_555
H42_24 C62_24 1_555 1_555
H45_24 C65_24 1_555 1_555
C67_24 C62_24 1_555 1_555
C70_24 C65_24 1_555 1_555
H47_24 C67_24 1_555 1_555
H50_24 C70_24 1_555 1_555
C72_24 C67_24 1_555 1_555
C75_24 C70_24 1_555 1_555
C77_24 C72_24 1_555 1_555
C80_24 C75_24 1_555 1_555
H52_24 C77_24 1_555 1_555
H55_24 C80_24 1_555 1_555
C82_24 C72_24 1_555 1_555
C85_24 C75_24 1_555 1_555
C87_24 C47_24 1_555 1_555
C90_24 C50_24 1_555 1_555
C92_24 C97_24 1_555 1_555
C95_24 C100_24 1_555 1_555
C97_24 C102_24 1_555 1_555
C100_24 C105_24 1_555 1_555
C102_24 H57_24 1_555 1_555
C105_24 H60_24 1_555 1_555
C107_24 H62_24 1_555 1_555
C110_24 H65_24 1_555 1_555
C112_24 C107_24 1_555 1_555
C115_24 C110_24 1_555 1_555
H67_24 C112_24 1_555 1_555
H70_24 C115_24 1_555 1_555
C117_24 C97_24 1_555 1_555
C120_24 C100_24 1_555 1_555
H72_24 C117_24 1_555 1_555
H75_24 C120_24 1_555 1_555
C122_24 N52_24 1_555 1_555
C123_24 N53_24 1_555 1_555
C124_24 N54_24 1_555 1_555
C125_44 N55_44 1_555 1_555
C126_44 N56_44 1_555 1_555
N11_44 Co8_11 1_555 1_555
N16_24 Co8_11 1_555 1_555
N19_24 C35_24 1_555 1_555
N27_29 C57_24 1_555 1_555
N30_24 C82_24 1_555 1_555
N33_24 C85_24 1_555 1_555
N35_24 C82_24 1_555 1_555
N38_24 C85_24 1_555 1_555
N40_24 C87_24 1_555 1_555
N43_24 C90_24 1_555 1_555
N45_24 C102_24 1_555 1_555
N48_24 Co12_2 1_555 1_555
N50_24 Co11_9 1_555 1_555
N52_24 Co12_2 1_555 1_555
N53_24 Co11_9 1_555 1_555
N54_24 Co11_9 1_555 1_555
N55_44 Co16_14 1_555 1_555
N56_44 Co16_14 1_555 1_555
N64_44 Co16_14 1_555 1_555
N65_44 Co16_14 1_555 1_555
C2_44 N2_44 1_555 1_555
C6_44 N2_44 1_555 1_555
C11_44 N27_26 1_555 1_555
C13_44 N4_44 1_555 1_555
C14_44 N5_44 1_555 1_555
C14_44 N6_44 1_555 1_555
C17_44 N7_24 1_555 1_555
C18_44 C19_44 1_555 1_555
C32_24 N16_24 1_555 1_555
C52_24 N16_24 1_555 1_555
C55_24 N19_24 1_555 1_555
C60_24 N27_9 1_555 1_555
C77_24 N27_29 1_555 1_555
C80_24 N27_9 1_555 1_555
C87_24 N30_24 1_555 1_555
C90_24 N33_24 1_555 1_555
C92_24 N35_24 1_555 1_555
C92_24 N40_24 1_555 1_555
C95_24 N38_24 1_555 1_555
C95_24 N43_24 1_555 1_555
C105_24 N48_24 1_555 1_555
C107_24 N45_24 1_555 1_555
C110_24 N48_24 1_555 1_555
C112_24 C117_24 1_555 1_555
C115_24 C120_24 1_555 1_555
Co8_16 N1_45 1_555 1_555
S1_45 C1_45 1_555 1_555
C1_45 N1_45 1_555 1_555
C2_45 H1_45 1_555 1_555
C3_45 C2_45 1_555 1_555
H2_45 C3_45 1_555 1_555
C4_45 C3_45 1_555 1_555
H3_45 C4_45 1_555 1_555
C5_45 C4_45 1_555 1_555
C6_45 C5_45 1_555 1_555
H4_45 C6_45 1_555 1_555
C7_45 H5_45 1_555 1_555
C8_45 C7_45 1_555 1_555
H6_45 C8_45 1_555 1_555
C9_45 C8_45 1_555 1_555
H7_45 C9_45 1_555 1_555
C10_45 C9_45 1_555 1_555
C11_45 C10_45 1_555 1_555
H8_45 C11_45 1_555 1_555
C12_45 C10_45 1_555 1_555
C13_45 C5_45 1_555 1_555
C14_45 C15_45 1_555 1_555
C15_45 C16_45 1_555 1_555
C16_45 H9_45 1_555 1_555
C17_45 H10_45 1_555 1_555
C18_45 C17_45 1_555 1_555
H11_45 C18_45 1_555 1_555
C19_45 C15_45 1_555 1_555
H12_45 C19_45 1_555 1_555
N2_45 Co8_16 1_555 1_555
N27_13 C7_45 1_555 1_555
N4_45 C12_45 1_555 1_555
N5_45 C12_45 1_555 1_555
N6_45 C13_45 1_555 1_555
N50_22 C16_45 1_555 1_555
S3_45 C27_45 1_555 1_555
S11_45 C125_45 1_555 1_555
S12_45 C126_45 1_555 1_555
C27_45 N11_45 1_555 1_555
C125_45 N55_45 1_555 1_555
C126_45 N56_45 1_555 1_555
N11_45 Co8_16 1_555 1_555
N55_45 Co16_10 1_555 1_555
N56_45 Co16_10 1_555 1_555
N64_45 Co16_10 1_555 1_555
N65_45 Co16_10 1_555 1_555
C2_45 N2_45 1_555 1_555
C6_45 N2_45 1_555 1_555
C11_45 N27_13 1_555 1_555
C13_45 N4_45 1_555 1_555
C14_45 N5_45 1_555 1_555
C14_45 N6_45 1_555 1_555
C17_45 N50_22 1_555 1_555
C18_45 C19_45 1_555 1_555
Co8_18 N1_46 1_555 1_555
S1_46 C1_46 1_555 1_555
C1_46 N1_46 1_555 1_555
C2_46 H1_46 1_555 1_555
C3_46 C2_46 1_555 1_555
H2_46 C3_46 1_555 1_555
C4_46 C3_46 1_555 1_555
H3_46 C4_46 1_555 1_555
C5_46 C4_46 1_555 1_555
C6_46 C5_46 1_555 1_555
H4_46 C6_46 1_555 1_555
C7_46 H5_46 1_555 1_555
C8_46 C7_46 1_555 1_555
H6_46 C8_46 1_555 1_555
C9_46 C8_46 1_555 1_555
H7_46 C9_46 1_555 1_555
C10_46 C9_46 1_555 1_555
C11_46 C10_46 1_555 1_555
H8_46 C11_46 1_555 1_555
C12_46 C10_46 1_555 1_555
C13_46 C5_46 1_555 1_555
C14_46 C15_46 1_555 1_555
C15_46 C16_46 1_555 1_555
C16_46 H9_46 1_555 1_555
C17_46 H10_46 1_555 1_555
C18_46 C17_46 1_555 1_555
H11_46 C18_46 1_555 1_555
C19_46 C15_46 1_555 1_555
H12_46 C19_46 1_555 1_555
N2_46 Co8_18 1_555 1_555
N27_15 C7_46 1_555 1_555
N4_46 C12_46 1_555 1_555
N5_46 C12_46 1_555 1_555
N6_46 C13_46 1_555 1_555
N50_21 C16_46 1_555 1_555
S3_46 C27_46 1_555 1_555
S11_46 C125_46 1_555 1_555
S12_46 C126_46 1_555 1_555
C27_46 N11_46 1_555 1_555
C125_46 N55_46 1_555 1_555
C126_46 N56_46 1_555 1_555
N11_46 Co8_18 1_555 1_555
N55_46 Co16_12 1_555 1_555
N56_46 Co16_12 1_555 1_555
N64_46 Co16_12 1_555 1_555
N65_46 Co16_12 1_555 1_555
C2_46 N2_46 1_555 1_555
C6_46 N2_46 1_555 1_555
C11_46 N27_15 1_555 1_555
C13_46 N4_46 1_555 1_555
C14_46 N5_46 1_555 1_555
C14_46 N6_46 1_555 1_555
C17_46 N50_21 1_555 1_555
C18_46 C19_46 1_555 1_555
Co8_17 N1_47 1_555 1_555
S1_47 C1_47 1_555 1_555
C1_47 N1_47 1_555 1_555
C2_47 H1_47 1_555 1_555
C3_47 C2_47 1_555 1_555
H2_47 C3_47 1_555 1_555
C4_47 C3_47 1_555 1_555
H3_47 C4_47 1_555 1_555
C5_47 C4_47 1_555 1_555
C6_47 C5_47 1_555 1_555
H4_47 C6_47 1_555 1_555
C7_47 H5_47 1_555 1_555
C8_47 C7_47 1_555 1_555
H6_47 C8_47 1_555 1_555
C9_47 C8_47 1_555 1_555
H7_47 C9_47 1_555 1_555
C10_47 C9_47 1_555 1_555
C11_47 C10_47 1_555 1_555
H8_47 C11_47 1_555 1_555
C12_47 C10_47 1_555 1_555
C13_47 C5_47 1_555 1_555
C14_47 C15_47 1_555 1_555
C15_47 C16_47 1_555 1_555
C16_47 H9_47 1_555 1_555
C17_47 H10_47 1_555 1_555
C18_47 C17_47 1_555 1_555
H11_47 C18_47 1_555 1_555
C19_47 C15_47 1_555 1_555
H12_47 C19_47 1_555 1_555
N2_47 Co8_17 1_555 1_555
N27_16 C7_47 1_555 1_555
N4_47 C12_47 1_555 1_555
N5_47 C12_47 1_555 1_555
N6_47 C13_47 1_555 1_555
N50_23 C16_47 1_555 1_555
S3_47 C27_47 1_555 1_555
C27_47 N11_47 1_555 1_555
N11_47 Co8_17 1_555 1_555
N55_47 Co16_9 1_555 1_555
N56_47 Co16_9 1_555 1_555
C2_47 N2_47 1_555 1_555
C6_47 N2_47 1_555 1_555
C11_47 N27_16 1_555 1_555
C13_47 N4_47 1_555 1_555
C14_47 N5_47 1_555 1_555
C14_47 N6_47 1_555 1_555
C17_47 N50_23 1_555 1_555
C18_47 C19_47 1_555 1_555
S11_47 C125_47 1_555 1_555
S12_47 C126_47 1_555 1_555
C3_48 C2_48 1_555 1_555
H2_48 C3_48 1_555 1_555
C4_48 C3_48 1_555 1_555
H3_48 C4_48 1_555 1_555
C5_48 C4_48 1_555 1_555
C6_48 C5_48 1_555 1_555
H4_48 C6_48 1_555 1_555
C7_48 H5_48 1_555 1_555
C8_48 C7_48 1_555 1_555
H6_48 C8_48 1_555 1_555
C9_48 C8_48 1_555 1_555
H7_48 C9_48 1_555 1_555
C10_48 C9_48 1_555 1_555
C11_48 C10_48 1_555 1_555
H8_48 C11_48 1_555 1_555
C12_48 C10_48 1_555 1_555
C13_48 C5_48 1_555 1_555
C14_48 C15_48 1_555 1_555
C15_48 C16_48 1_555 1_555
C16_48 H9_48 1_555 1_555
C17_48 H10_48 1_555 1_555
C18_48 C17_48 1_555 1_555
H11_48 C18_48 1_555 1_555
C19_48 C15_48 1_555 1_555
H12_48 C19_48 1_555 1_555
N2_48 Co8_19 1_555 1_555
N27_14 C7_48 1_555 1_555
N4_48 C12_48 1_555 1_555
N5_48 C12_48 1_555 1_555
N6_48 C13_48 1_555 1_555
N50_24 C16_48 1_555 1_555
S3_48 C27_48 1_555 1_555
C27_48 N11_48 1_555 1_555
N11_48 Co8_19 1_555 1_555
C2_48 N2_48 1_555 1_555
C6_48 N2_48 1_555 1_555
C11_48 N27_14 1_555 1_555
C13_48 N4_48 1_555 1_555
C14_48 N5_48 1_555 1_555
C14_48 N6_48 1_555 1_555
C17_48 N50_24 1_555 1_555
C18_48 C19_48 1_555 1_555
Co8_20 N1_48 1_555 1_555
S1_48 C1_48 1_555 1_555
C1_48 N1_48 1_555 1_555
S11_48 C125_48 1_555 1_555
S12_48 C126_48 1_555 1_555
C125_48 N55_48 1_555 1_555
C126_48 N56_48 1_555 1_555
N55_48 Co16_11 1_555 1_555
N56_48 Co16_11 1_555 1_555
N64_48 Co16_11 1_555 1_555
N65_48 Co16_11 1_555 1_555
C21_25 H13_25 1_555 1_555
C22_25 C21_25 1_555 1_555
H14_25 C22_25 1_555 1_555
C23_25 C22_25 1_555 1_555
H15_25 C23_25 1_555 1_555
C24_25 C23_25 1_555 1_555
C25_25 C24_25 1_555 1_555
H16_25 C25_25 1_555 1_555
C26_25 C24_25 1_555 1_555
N10_25 C26_25 1_555 1_555
C127_25 H77_25 1_555 1_555
C128_25 H78_25 1_555 1_555
C129_9 H79_9 1_555 1_555
C130_9 H80_9 1_555 1_555
C131_9 H81_9 1_555 1_555
C132_25 C127_25 1_555 1_555
C133_25 C128_25 1_555 1_555
C134_9 C129_9 1_555 1_555
C135_9 C130_9 1_555 1_555
C136_9 C131_9 1_555 1_555
H82_25 C132_25 1_555 1_555
H83_25 C133_25 1_555 1_555
H84_9 C134_9 1_555 1_555
H85_9 C135_9 1_555 1_555
H86_9 C136_9 1_555 1_555
C137_25 C132_25 1_555 1_555
C138_25 C133_25 1_555 1_555
C139_9 C134_9 1_555 1_555
C140_9 C135_9 1_555 1_555
C141_9 C136_9 1_555 1_555
H87_25 C137_25 1_555 1_555
H88_25 C138_25 1_555 1_555
H89_9 C139_9 1_555 1_555
H90_9 C140_9 1_555 1_555
H91_9 C141_9 1_555 1_555
C142_25 C137_25 1_555 1_555
C143_25 C138_25 1_555 1_555
C144_9 C139_9 1_555 1_555
C145_9 C140_9 1_555 1_555
C146_9 C141_9 1_555 1_555
C147_25 C142_25 1_555 1_555
C148_25 C143_25 1_555 1_555
C149_9 C144_9 1_555 1_555
C150_9 C145_9 1_555 1_555
C151_9 C146_9 1_555 1_555
H92_25 C147_25 1_555 1_555
H93_25 C148_25 1_555 1_555
H94_9 C149_9 1_555 1_555
H95_9 C150_9 1_555 1_555
H96_9 C151_9 1_555 1_555
C152_25 N10_25 1_555 1_555
C153_25 C143_25 1_555 1_555
C154_9 C144_9 1_555 1_555
C155_9 C145_9 1_555 1_555
C156_9 C146_9 1_555 1_555
N65_5 C127_25 1_555 1_555
N64_28 C128_25 1_555 1_555
N65_42 C130_9 1_555 1_555
N65_3 C131_9 1_555 1_555
N66_25 C152_25 1_555 1_555
N67_25 C26_25 1_555 1_555
N68_9 C154_9 1_555 1_555
N69_9 C155_9 1_555 1_555
N70_9 C154_9 1_555 1_555
C21_25 N64_29 1_555 1_555
C25_25 N64_29 1_555 1_555
C129_9 N65_29 1_555 1_555
C142_25 C152_25 1_555 1_555
C147_25 N65_5 1_555 1_555
C148_25 N64_28 1_555 1_555
C149_9 N65_29 1_555 1_555
C150_9 N65_42 1_555 1_555
C151_9 N65_3 1_555 1_555
C153_25 N66_25 1_555 1_555
C153_25 N67_25 1_555 1_555
C155_9 N68_9 1_555 1_555
C156_9 N69_9 1_555 1_555
C156_9 N70_9 1_555 1_555
C21_26 H13_26 1_555 1_555
C22_26 C21_26 1_555 1_555
H14_26 C22_26 1_555 1_555
C23_26 C22_26 1_555 1_555
H15_26 C23_26 1_555 1_555
C24_26 C23_26 1_555 1_555
C25_26 C24_26 1_555 1_555
H16_26 C25_26 1_555 1_555
C26_26 C24_26 1_555 1_555
N10_26 C26_26 1_555 1_555
C127_26 H77_26 1_555 1_555
C128_26 H78_26 1_555 1_555
C129_10 H79_10 1_555 1_555
C130_10 H80_10 1_555 1_555
C131_10 H81_10 1_555 1_555
C132_26 C127_26 1_555 1_555
C133_26 C128_26 1_555 1_555
C134_10 C129_10 1_555 1_555
C135_10 C130_10 1_555 1_555
C136_10 C131_10 1_555 1_555
H82_26 C132_26 1_555 1_555
H83_26 C133_26 1_555 1_555
H84_10 C134_10 1_555 1_555
H85_10 C135_10 1_555 1_555
H86_10 C136_10 1_555 1_555
C137_26 C132_26 1_555 1_555
C138_26 C133_26 1_555 1_555
C139_10 C134_10 1_555 1_555
C140_10 C135_10 1_555 1_555
C141_10 C136_10 1_555 1_555
H87_26 C137_26 1_555 1_555
H88_26 C138_26 1_555 1_555
H89_10 C139_10 1_555 1_555
H90_10 C140_10 1_555 1_555
H91_10 C141_10 1_555 1_555
C142_26 C137_26 1_555 1_555
C143_26 C138_26 1_555 1_555
C144_10 C139_10 1_555 1_555
C145_10 C140_10 1_555 1_555
C146_10 C141_10 1_555 1_555
C147_26 C142_26 1_555 1_555
C148_26 C143_26 1_555 1_555
C149_10 C144_10 1_555 1_555
C150_10 C145_10 1_555 1_555
C151_10 C146_10 1_555 1_555
H92_26 C147_26 1_555 1_555
H93_26 C148_26 1_555 1_555
H94_10 C149_10 1_555 1_555
H95_10 C150_10 1_555 1_555
H96_10 C151_10 1_555 1_555
C152_26 N10_26 1_555 1_555
C153_26 C143_26 1_555 1_555
C154_10 C144_10 1_555 1_555
C155_10 C145_10 1_555 1_555
C156_10 C146_10 1_555 1_555
N64_41 C127_26 1_555 1_555
N65_25 C128_26 1_555 1_555
N64_6 C130_10 1_555 1_555
N64_2 C131_10 1_555 1_555
N66_26 C152_26 1_555 1_555
N67_26 C26_26 1_555 1_555
N68_10 C154_10 1_555 1_555
N69_10 C155_10 1_555 1_555
N70_10 C154_10 1_555 1_555
C21_26 N65_10 1_555 1_555
C25_26 N65_10 1_555 1_555
C129_10 N64_10 1_555 1_555
C142_26 C152_26 1_555 1_555
C147_26 N64_41 1_555 1_555
C148_26 N65_25 1_555 1_555
C149_10 N64_10 1_555 1_555
C150_10 N64_6 1_555 1_555
C151_10 N64_2 1_555 1_555
C153_26 N66_26 1_555 1_555
C153_26 N67_26 1_555 1_555
C155_10 N68_10 1_555 1_555
C156_10 N69_10 1_555 1_555
C156_10 N70_10 1_555 1_555
C21_27 H13_27 1_555 1_555
C22_27 C21_27 1_555 1_555
H14_27 C22_27 1_555 1_555
C23_27 C22_27 1_555 1_555
H15_27 C23_27 1_555 1_555
C24_27 C23_27 1_555 1_555
C25_27 C24_27 1_555 1_555
H16_27 C25_27 1_555 1_555
C26_27 C24_27 1_555 1_555
N10_27 C26_27 1_555 1_555
C127_27 H77_27 1_555 1_555
C128_27 H78_27 1_555 1_555
C129_11 H79_11 1_555 1_555
C130_11 H80_11 1_555 1_555
C131_11 H81_11 1_555 1_555
C132_27 C127_27 1_555 1_555
C133_27 C128_27 1_555 1_555
C134_11 C129_11 1_555 1_555
C135_11 C130_11 1_555 1_555
C136_11 C131_11 1_555 1_555
H82_27 C132_27 1_555 1_555
H83_27 C133_27 1_555 1_555
H84_11 C134_11 1_555 1_555
H85_11 C135_11 1_555 1_555
H86_11 C136_11 1_555 1_555
C137_27 C132_27 1_555 1_555
C138_27 C133_27 1_555 1_555
C139_11 C134_11 1_555 1_555
C140_11 C135_11 1_555 1_555
C141_11 C136_11 1_555 1_555
H87_27 C137_27 1_555 1_555
H88_27 C138_27 1_555 1_555
H89_11 C139_11 1_555 1_555
H90_11 C140_11 1_555 1_555
H91_11 C141_11 1_555 1_555
C142_27 C137_27 1_555 1_555
C143_27 C138_27 1_555 1_555
C144_11 C139_11 1_555 1_555
C145_11 C140_11 1_555 1_555
C146_11 C141_11 1_555 1_555
C147_27 C142_27 1_555 1_555
C148_27 C143_27 1_555 1_555
C149_11 C144_11 1_555 1_555
C150_11 C145_11 1_555 1_555
C151_11 C146_11 1_555 1_555
H92_27 C147_27 1_555 1_555
H93_27 C148_27 1_555 1_555
H94_11 C149_11 1_555 1_555
H95_11 C150_11 1_555 1_555
H96_11 C151_11 1_555 1_555
C152_27 N10_27 1_555 1_555
C153_27 C143_27 1_555 1_555
C154_11 C144_11 1_555 1_555
C155_11 C145_11 1_555 1_555
C156_11 C146_11 1_555 1_555
N65_44 C127_27 1_555 1_555
N65_4 C128_27 1_555 1_555
N65_7 C130_11 1_555 1_555
N64_27 C131_11 1_555 1_555
N66_27 C152_27 1_555 1_555
N67_27 C26_27 1_555 1_555
N68_11 C154_11 1_555 1_555
N69_11 C155_11 1_555 1_555
N70_11 C154_11 1_555 1_555
C21_27 N65_32 1_555 1_555
C25_27 N65_32 1_555 1_555
C129_11 N64_32 1_555 1_555
C142_27 C152_27 1_555 1_555
C147_27 N65_44 1_555 1_555
C148_27 N65_4 1_555 1_555
C149_11 N64_32 1_555 1_555
C150_11 N65_7 1_555 1_555
C151_11 N64_27 1_555 1_555
C153_27 N66_27 1_555 1_555
C153_27 N67_27 1_555 1_555
C155_11 N68_11 1_555 1_555
C156_11 N69_11 1_555 1_555
C156_11 N70_11 1_555 1_555
C21_28 H13_28 1_555 1_555
C22_28 C21_28 1_555 1_555
H14_28 C22_28 1_555 1_555
C23_28 C22_28 1_555 1_555
H15_28 C23_28 1_555 1_555
C24_28 C23_28 1_555 1_555
C25_28 C24_28 1_555 1_555
H16_28 C25_28 1_555 1_555
C26_28 C24_28 1_555 1_555
N10_28 C26_28 1_555 1_555
C127_28 H77_28 1_555 1_555
C128_28 H78_28 1_555 1_555
C129_12 H79_12 1_555 1_555
C130_12 H80_12 1_555 1_555
C131_12 H81_12 1_555 1_555
C132_28 C127_28 1_555 1_555
C133_28 C128_28 1_555 1_555
C134_12 C129_12 1_555 1_555
C135_12 C130_12 1_555 1_555
C136_12 C131_12 1_555 1_555
H82_28 C132_28 1_555 1_555
H83_28 C133_28 1_555 1_555
H84_12 C134_12 1_555 1_555
H85_12 C135_12 1_555 1_555
H86_12 C136_12 1_555 1_555
C137_28 C132_28 1_555 1_555
C138_28 C133_28 1_555 1_555
C139_12 C134_12 1_555 1_555
C140_12 C135_12 1_555 1_555
C141_12 C136_12 1_555 1_555
H87_28 C137_28 1_555 1_555
H88_28 C138_28 1_555 1_555
H89_12 C139_12 1_555 1_555
H90_12 C140_12 1_555 1_555
H91_12 C141_12 1_555 1_555
C142_28 C137_28 1_555 1_555
C143_28 C138_28 1_555 1_555
C144_12 C139_12 1_555 1_555
C145_12 C140_12 1_555 1_555
C146_12 C141_12 1_555 1_555
C147_28 C142_28 1_555 1_555
C148_28 C143_28 1_555 1_555
C149_12 C144_12 1_555 1_555
C150_12 C145_12 1_555 1_555
C151_12 C146_12 1_555 1_555
H92_28 C147_28 1_555 1_555
H93_28 C148_28 1_555 1_555
H94_12 C149_12 1_555 1_555
H95_12 C150_12 1_555 1_555
H96_12 C151_12 1_555 1_555
C152_28 N10_28 1_555 1_555
C153_28 C143_28 1_555 1_555
C154_12 C144_12 1_555 1_555
C155_12 C145_12 1_555 1_555
C156_12 C146_12 1_555 1_555
N64_8 C127_28 1_555 1_555
N64 C128_28 1_555 1_555
N64_43 C130_12 1_555 1_555
N65_26 C131_12 1_555 1_555
N66_28 C152_28 1_555 1_555
N67_28 C26_28 1_555 1_555
N68_12 C154_12 1_555 1_555
N69_12 C155_12 1_555 1_555
N70_12 C154_12 1_555 1_555
C21_28 N64_11 1_555 1_555
C25_28 N64_11 1_555 1_555
C129_12 N65_11 1_555 1_555
C142_28 C152_28 1_555 1_555
C147_28 N64_8 1_555 1_555
C148_28 N64 1_555 1_555
C149_12 N65_11 1_555 1_555
C150_12 N64_43 1_555 1_555
C151_12 N65_26 1_555 1_555
C153_28 N66_28 1_555 1_555
C153_28 N67_28 1_555 1_555
C155_12 N68_12 1_555 1_555
C156_12 N69_12 1_555 1_555
C156_12 N70_12 1_555 1_555
C21_29 H13_29 1_555 1_555
C22_29 C21_29 1_555 1_555
H14_29 C22_29 1_555 1_555
C23_29 C22_29 1_555 1_555
H15_29 C23_29 1_555 1_555
C24_29 C23_29 1_555 1_555
C25_29 C24_29 1_555 1_555
H16_29 C25_29 1_555 1_555
C26_29 C24_29 1_555 1_555
N10_29 C26_29 1_555 1_555
C127_29 H77_29 1_555 1_555
C128_29 H78_29 1_555 1_555
C132_29 C127_29 1_555 1_555
C133_29 C128_29 1_555 1_555
H82_29 C132_29 1_555 1_555
H83_29 C133_29 1_555 1_555
C137_29 C132_29 1_555 1_555
C138_29 C133_29 1_555 1_555
H87_29 C137_29 1_555 1_555
H88_29 C138_29 1_555 1_555
C142_29 C137_29 1_555 1_555
C143_29 C138_29 1_555 1_555
C147_29 C142_29 1_555 1_555
C148_29 C143_29 1_555 1_555
H92_29 C147_29 1_555 1_555
H93_29 C148_29 1_555 1_555
C152_29 N10_29 1_555 1_555
C153_29 C143_29 1_555 1_555
N65_9 C127_29 1_555 1_555
N64_44 C128_29 1_555 1_555
N66_29 C152_29 1_555 1_555
N67_29 C26_29 1_555 1_555
C21_29 N65_27 1_555 1_555
C25_29 N65_27 1_555 1_555
C142_29 C152_29 1_555 1_555
C147_29 N65_9 1_555 1_555
C148_29 N64_44 1_555 1_555
C153_29 N66_29 1_555 1_555
C153_29 N67_29 1_555 1_555
C21_30 H13_30 1_555 1_555
C22_30 C21_30 1_555 1_555
H14_30 C22_30 1_555 1_555
C23_30 C22_30 1_555 1_555
H15_30 C23_30 1_555 1_555
C24_30 C23_30 1_555 1_555
C25_30 C24_30 1_555 1_555
H16_30 C25_30 1_555 1_555
C26_30 C24_30 1_555 1_555
N10_30 C26_30 1_555 1_555
C127_30 H77_30 1_555 1_555
C128_30 H78_30 1_555 1_555
C132_30 C127_30 1_555 1_555
C133_30 C128_30 1_555 1_555
H82_30 C132_30 1_555 1_555
H83_30 C133_30 1_555 1_555
C137_30 C132_30 1_555 1_555
C138_30 C133_30 1_555 1_555
H87_30 C137_30 1_555 1_555
H88_30 C138_30 1_555 1_555
C142_30 C137_30 1_555 1_555
C143_30 C138_30 1_555 1_555
C147_30 C142_30 1_555 1_555
C148_30 C143_30 1_555 1_555
H92_30 C147_30 1_555 1_555
H93_30 C148_30 1_555 1_555
C152_30 N10_30 1_555 1_555
C153_30 C143_30 1_555 1_555
N65_31 C127_30 1_555 1_555
N65_41 C128_30 1_555 1_555
N66_30 C152_30 1_555 1_555
N67_30 C26_30 1_555 1_555
C21_30 N65_2 1_555 1_555
C25_30 N65_2 1_555 1_555
C142_30 C152_30 1_555 1_555
C147_30 N65_31 1_555 1_555
C148_30 N65_41 1_555 1_555
C153_30 N66_30 1_555 1_555
C153_30 N67_30 1_555 1_555
C21_31 H13_31 1_555 1_555
C22_31 C21_31 1_555 1_555
H14_31 C22_31 1_555 1_555
C23_31 C22_31 1_555 1_555
H15_31 C23_31 1_555 1_555
C24_31 C23_31 1_555 1_555
C25_31 C24_31 1_555 1_555
H16_31 C25_31 1_555 1_555
C26_31 C24_31 1_555 1_555
N10_31 C26_31 1_555 1_555
C127_31 H77_31 1_555 1_555
C128_31 H78_31 1_555 1_555
C132_31 C127_31 1_555 1_555
C133_31 C128_31 1_555 1_555
H82_31 C132_31 1_555 1_555
H83_31 C133_31 1_555 1_555
C137_31 C132_31 1_555 1_555
C138_31 C133_31 1_555 1_555
H87_31 C137_31 1_555 1_555
H88_31 C138_31 1_555 1_555
C142_31 C137_31 1_555 1_555
C143_31 C138_31 1_555 1_555
C147_31 C142_31 1_555 1_555
C148_31 C143_31 1_555 1_555
H92_31 C147_31 1_555 1_555
H93_31 C148_31 1_555 1_555
C152_31 N10_31 1_555 1_555
C153_31 C143_31 1_555 1_555
N64_30 C127_31 1_555 1_555
N65_8 C128_31 1_555 1_555
N66_31 C152_31 1_555 1_555
N67_31 C26_31 1_555 1_555
C21_31 N64_26 1_555 1_555
C25_31 N64_26 1_555 1_555
C142_31 C152_31 1_555 1_555
C147_31 N64_30 1_555 1_555
C148_31 N65_8 1_555 1_555
C153_31 N66_31 1_555 1_555
C153_31 N67_31 1_555 1_555
C21_32 H13_32 1_555 1_555
C22_32 C21_32 1_555 1_555
H14_32 C22_32 1_555 1_555
C23_32 C22_32 1_555 1_555
H15_32 C23_32 1_555 1_555
C24_32 C23_32 1_555 1_555
C25_32 C24_32 1_555 1_555
H16_32 C25_32 1_555 1_555
C26_32 C24_32 1_555 1_555
N10_32 C26_32 1_555 1_555
C127_32 H77_32 1_555 1_555
C128_32 H78_32 1_555 1_555
C132_32 C127_32 1_555 1_555
C133_32 C128_32 1_555 1_555
H82_32 C132_32 1_555 1_555
H83_32 C133_32 1_555 1_555
C137_32 C132_32 1_555 1_555
C138_32 C133_32 1_555 1_555
H87_32 C137_32 1_555 1_555
H88_32 C138_32 1_555 1_555
C142_32 C137_32 1_555 1_555
C143_32 C138_32 1_555 1_555
C147_32 C142_32 1_555 1_555
C148_32 C143_32 1_555 1_555
H92_32 C147_32 1_555 1_555
H93_32 C148_32 1_555 1_555
C152_32 N10_32 1_555 1_555
C153_32 C143_32 1_555 1_555
N64_12 C127_32 1_555 1_555
N64_5 C128_32 1_555 1_555
N66_32 C152_32 1_555 1_555
N67_32 C26_32 1_555 1_555
C21_32 N64_3 1_555 1_555
C25_32 N64_3 1_555 1_555
C142_32 C152_32 1_555 1_555
C147_32 N64_12 1_555 1_555
C148_32 N64_5 1_555 1_555
C153_32 N66_32 1_555 1_555
C153_32 N67_32 1_555 1_555
C21_33 H13_33 1_555 1_555
C22_33 C21_33 1_555 1_555
H14_33 C22_33 1_555 1_555
C23_33 C22_33 1_555 1_555
H15_33 C23_33 1_555 1_555
C24_33 C23_33 1_555 1_555
C25_33 C24_33 1_555 1_555
H16_33 C25_33 1_555 1_555
C26_33 C24_33 1_555 1_555
N10_33 C26_33 1_555 1_555
C127_33 H77_33 1_555 1_555
C128_33 H78_33 1_555 1_555
C132_33 C127_33 1_555 1_555
C133_33 C128_33 1_555 1_555
H82_33 C132_33 1_555 1_555
H83_33 C133_33 1_555 1_555
C137_33 C132_33 1_555 1_555
C138_33 C133_33 1_555 1_555
H87_33 C137_33 1_555 1_555
H88_33 C138_33 1_555 1_555
C142_33 C137_33 1_555 1_555
C143_33 C138_33 1_555 1_555
C147_33 C142_33 1_555 1_555
C148_33 C143_33 1_555 1_555
H92_33 C147_33 1_555 1_555
H93_33 C148_33 1_555 1_555
C152_33 N10_33 1_555 1_555
C153_33 C143_33 1_555 1_555
N65 C127_33 1_555 1_555
N65_30 C128_33 1_555 1_555
N66_33 C152_33 1_555 1_555
N67_33 C26_33 1_555 1_555
C21_33 N65_43 1_555 1_555
C25_33 N65_43 1_555 1_555
C142_33 C152_33 1_555 1_555
C147_33 N65 1_555 1_555
C148_33 N65_30 1_555 1_555
C153_33 N66_33 1_555 1_555
C153_33 N67_33 1_555 1_555
C21_34 H13_34 1_555 1_555
C22_34 C21_34 1_555 1_555
H14_34 C22_34 1_555 1_555
C23_34 C22_34 1_555 1_555
H15_34 C23_34 1_555 1_555
C24_34 C23_34 1_555 1_555
C25_34 C24_34 1_555 1_555
H16_34 C25_34 1_555 1_555
C26_34 C24_34 1_555 1_555
N10_34 C26_34 1_555 1_555
C127_34 H77_34 1_555 1_555
C128_34 H78_34 1_555 1_555
C132_34 C127_34 1_555 1_555
C133_34 C128_34 1_555 1_555
H82_34 C132_34 1_555 1_555
H83_34 C133_34 1_555 1_555
C137_34 C132_34 1_555 1_555
C138_34 C133_34 1_555 1_555
H87_34 C137_34 1_555 1_555
H88_34 C138_34 1_555 1_555
C142_34 C137_34 1_555 1_555
C143_34 C138_34 1_555 1_555
C147_34 C142_34 1_555 1_555
C148_34 C143_34 1_555 1_555
H92_34 C147_34 1_555 1_555
H93_34 C148_34 1_555 1_555
C152_34 N10_34 1_555 1_555
C153_34 C143_34 1_555 1_555
N64_25 C127_34 1_555 1_555
N64_31 C128_34 1_555 1_555
N66_34 C152_34 1_555 1_555
N67_34 C26_34 1_555 1_555
C21_34 N65_6 1_555 1_555
C25_34 N65_6 1_555 1_555
C142_34 C152_34 1_555 1_555
C147_34 N64_25 1_555 1_555
C148_34 N64_31 1_555 1_555
C153_34 N66_34 1_555 1_555
C153_34 N67_34 1_555 1_555
C21_35 H13_35 1_555 1_555
C22_35 C21_35 1_555 1_555
H14_35 C22_35 1_555 1_555
C23_35 C22_35 1_555 1_555
H15_35 C23_35 1_555 1_555
C24_35 C23_35 1_555 1_555
C25_35 C24_35 1_555 1_555
H16_35 C25_35 1_555 1_555
C26_35 C24_35 1_555 1_555
N10_35 C26_35 1_555 1_555
C127_35 H77_35 1_555 1_555
C128_35 H78_35 1_555 1_555
C132_35 C127_35 1_555 1_555
C133_35 C128_35 1_555 1_555
H82_35 C132_35 1_555 1_555
H83_35 C133_35 1_555 1_555
C137_35 C132_35 1_555 1_555
C138_35 C133_35 1_555 1_555
H87_35 C137_35 1_555 1_555
H88_35 C138_35 1_555 1_555
C142_35 C137_35 1_555 1_555
C143_35 C138_35 1_555 1_555
C147_35 C142_35 1_555 1_555
C148_35 C143_35 1_555 1_555
H92_35 C147_35 1_555 1_555
H93_35 C148_35 1_555 1_555
C152_35 N10_35 1_555 1_555
C153_35 C143_35 1_555 1_555
N65_28 C127_35 1_555 1_555
N65_12 C128_35 1_555 1_555
N66_35 C152_35 1_555 1_555
N67_35 C26_35 1_555 1_555
C21_35 N64_42 1_555 1_555
C25_35 N64_42 1_555 1_555
C142_35 C152_35 1_555 1_555
C147_35 N65_28 1_555 1_555
C148_35 N65_12 1_555 1_555
C153_35 N66_35 1_555 1_555
C153_35 N67_35 1_555 1_555
C21_36 H13_36 1_555 1_555
C22_36 C21_36 1_555 1_555
H14_36 C22_36 1_555 1_555
C23_36 C22_36 1_555 1_555
H15_36 C23_36 1_555 1_555
C24_36 C23_36 1_555 1_555
C25_36 C24_36 1_555 1_555
H16_36 C25_36 1_555 1_555
C26_36 C24_36 1_555 1_555
N10_36 C26_36 1_555 1_555
C127_36 H77_36 1_555 1_555
C128_36 H78_36 1_555 1_555
C132_36 C127_36 1_555 1_555
C133_36 C128_36 1_555 1_555
H82_36 C132_36 1_555 1_555
H83_36 C133_36 1_555 1_555
C137_36 C132_36 1_555 1_555
C138_36 C133_36 1_555 1_555
H87_36 C137_36 1_555 1_555
H88_36 C138_36 1_555 1_555
C142_36 C137_36 1_555 1_555
C143_36 C138_36 1_555 1_555
C147_36 C142_36 1_555 1_555
C148_36 C143_36 1_555 1_555
H92_36 C147_36 1_555 1_555
H93_36 C148_36 1_555 1_555
C152_36 N10_36 1_555 1_555
C153_36 C143_36 1_555 1_555
N64_4 C127_36 1_555 1_555
N64_9 C128_36 1_555 1_555
N66_36 C152_36 1_555 1_555
N67_36 C26_36 1_555 1_555
C21_36 N64_7 1_555 1_555
C25_36 N64_7 1_555 1_555
C142_36 C152_36 1_555 1_555
C147_36 N64_4 1_555 1_555
C148_36 N64_9 1_555 1_555
C153_36 N66_36 1_555 1_555
C153_36 N67_36 1_555 1_555
C21_37 H13_37 1_555 1_555
C22_37 C21_37 1_555 1_555
H14_37 C22_37 1_555 1_555
C23_37 C22_37 1_555 1_555
H15_37 C23_37 1_555 1_555
C24_37 C23_37 1_555 1_555
C25_37 C24_37 1_555 1_555
H16_37 C25_37 1_555 1_555
C26_37 C24_37 1_555 1_555
N10_37 C26_37 1_555 1_555
C127_37 H77_37 1_555 1_555
C128_37 H78_37 1_555 1_555
C129_13 H79_13 1_555 1_555
C130_13 H80_13 1_555 1_555
C131_13 H81_13 1_555 1_555
C132_37 C127_37 1_555 1_555
C133_37 C128_37 1_555 1_555
C134_13 C129_13 1_555 1_555
C135_13 C130_13 1_555 1_555
C136_13 C131_13 1_555 1_555
H82_37 C132_37 1_555 1_555
H83_37 C133_37 1_555 1_555
H84_13 C134_13 1_555 1_555
H85_13 C135_13 1_555 1_555
H86_13 C136_13 1_555 1_555
C137_37 C132_37 1_555 1_555
C138_37 C133_37 1_555 1_555
C139_13 C134_13 1_555 1_555
C140_13 C135_13 1_555 1_555
C141_13 C136_13 1_555 1_555
H87_37 C137_37 1_555 1_555
H88_37 C138_37 1_555 1_555
H89_13 C139_13 1_555 1_555
H90_13 C140_13 1_555 1_555
H91_13 C141_13 1_555 1_555
C142_37 C137_37 1_555 1_555
C143_37 C138_37 1_555 1_555
C144_13 C139_13 1_555 1_555
C145_13 C140_13 1_555 1_555
C146_13 C141_13 1_555 1_555
C147_37 C142_37 1_555 1_555
C148_37 C143_37 1_555 1_555
C149_13 C144_13 1_555 1_555
C150_13 C145_13 1_555 1_555
C151_13 C146_13 1_555 1_555
H92_37 C147_37 1_555 1_555
H93_37 C148_37 1_555 1_555
H94_13 C149_13 1_555 1_555
H95_13 C150_13 1_555 1_555
H96_13 C151_13 1_555 1_555
C152_37 N10_37 1_555 1_555
C153_37 C143_37 1_555 1_555
C154_13 C144_13 1_555 1_555
C155_13 C145_13 1_555 1_555
C156_13 C146_13 1_555 1_555
N64_39 C127_37 1_555 1_555
N64_36 C128_37 1_555 1_555
N64_20 C130_13 1_555 1_555
N64_13 C131_13 1_555 1_555
N66_37 C152_37 1_555 1_555
N67_37 C26_37 1_555 1_555
N68_13 C154_13 1_555 1_555
N69_13 C155_13 1_555 1_555
N70_13 C154_13 1_555 1_555
C21_37 N65_23 1_555 1_555
C25_37 N65_23 1_555 1_555
C129_13 N64_23 1_555 1_555
C142_37 C152_37 1_555 1_555
C147_37 N64_39 1_555 1_555
C148_37 N64_36 1_555 1_555
C149_13 N64_23 1_555 1_555
C150_13 N64_20 1_555 1_555
C151_13 N64_13 1_555 1_555
C153_37 N66_37 1_555 1_555
C153_37 N67_37 1_555 1_555
C155_13 N68_13 1_555 1_555
C156_13 N69_13 1_555 1_555
C156_13 N70_13 1_555 1_555
C21_38 H13_38 1_555 1_555
C22_38 C21_38 1_555 1_555
H14_38 C22_38 1_555 1_555
C23_38 C22_38 1_555 1_555
H15_38 C23_38 1_555 1_555
C24_38 C23_38 1_555 1_555
C25_38 C24_38 1_555 1_555
H16_38 C25_38 1_555 1_555
C26_38 C24_38 1_555 1_555
N10_38 C26_38 1_555 1_555
C127_38 H77_38 1_555 1_555
C128_38 H78_38 1_555 1_555
C129_14 H79_14 1_555 1_555
C130_14 H80_14 1_555 1_555
C131_14 H81_14 1_555 1_555
C132_38 C127_38 1_555 1_555
C133_38 C128_38 1_555 1_555
C134_14 C129_14 1_555 1_555
C135_14 C130_14 1_555 1_555
C136_14 C131_14 1_555 1_555
H82_38 C132_38 1_555 1_555
H83_38 C133_38 1_555 1_555
H84_14 C134_14 1_555 1_555
H85_14 C135_14 1_555 1_555
H86_14 C136_14 1_555 1_555
C137_38 C132_38 1_555 1_555
C138_38 C133_38 1_555 1_555
C139_14 C134_14 1_555 1_555
C140_14 C135_14 1_555 1_555
C141_14 C136_14 1_555 1_555
H87_38 C137_38 1_555 1_555
H88_38 C138_38 1_555 1_555
H89_14 C139_14 1_555 1_555
H90_14 C140_14 1_555 1_555
H91_14 C141_14 1_555 1_555
C142_38 C137_38 1_555 1_555
C143_38 C138_38 1_555 1_555
C144_14 C139_14 1_555 1_555
C145_14 C140_14 1_555 1_555
C146_14 C141_14 1_555 1_555
C147_38 C142_38 1_555 1_555
C148_38 C143_38 1_555 1_555
C149_14 C144_14 1_555 1_555
C150_14 C145_14 1_555 1_555
C151_14 C146_14 1_555 1_555
H92_38 C147_38 1_555 1_555
H93_38 C148_38 1_555 1_555
H94_14 C149_14 1_555 1_555
H95_14 C150_14 1_555 1_555
H96_14 C151_14 1_555 1_555
C152_38 N10_38 1_555 1_555
C153_38 C143_38 1_555 1_555
C154_14 C144_14 1_555 1_555
C155_14 C145_14 1_555 1_555
C156_14 C146_14 1_555 1_555
N65_19 C127_38 1_555 1_555
N65_33 C128_38 1_555 1_555
N65_40 C130_14 1_555 1_555
N65_16 C131_14 1_555 1_555
N66_38 C152_38 1_555 1_555
N67_38 C26_38 1_555 1_555
N68_14 C154_14 1_555 1_555
N69_14 C155_14 1_555 1_555
N70_14 C154_14 1_555 1_555
C21_38 N64_48 1_555 1_555
C25_38 N64_48 1_555 1_555
C129_14 N65_48 1_555 1_555
C142_38 C152_38 1_555 1_555
C147_38 N65_19 1_555 1_555
C148_38 N65_33 1_555 1_555
C149_14 N65_48 1_555 1_555
C150_14 N65_40 1_555 1_555
C151_14 N65_16 1_555 1_555
C153_38 N66_38 1_555 1_555
C153_38 N67_38 1_555 1_555
C155_14 N68_14 1_555 1_555
C156_14 N69_14 1_555 1_555
C156_14 N70_14 1_555 1_555
C21_39 H13_39 1_555 1_555
C22_39 C21_39 1_555 1_555
H14_39 C22_39 1_555 1_555
C23_39 C22_39 1_555 1_555
H15_39 C23_39 1_555 1_555
C24_39 C23_39 1_555 1_555
C25_39 C24_39 1_555 1_555
H16_39 C25_39 1_555 1_555
C26_39 C24_39 1_555 1_555
N10_39 C26_39 1_555 1_555
C127_39 H77_39 1_555 1_555
C128_39 H78_39 1_555 1_555
C129_15 H79_15 1_555 1_555
C130_15 H80_15 1_555 1_555
C131_15 H81_15 1_555 1_555
C132_39 C127_39 1_555 1_555
C133_39 C128_39 1_555 1_555
C134_15 C129_15 1_555 1_555
C135_15 C130_15 1_555 1_555
C136_15 C131_15 1_555 1_555
H82_39 C132_39 1_555 1_555
H83_39 C133_39 1_555 1_555
H84_15 C134_15 1_555 1_555
H85_15 C135_15 1_555 1_555
H86_15 C136_15 1_555 1_555
C137_39 C132_39 1_555 1_555
C138_39 C133_39 1_555 1_555
C139_15 C134_15 1_555 1_555
C140_15 C135_15 1_555 1_555
C141_15 C136_15 1_555 1_555
H87_39 C137_39 1_555 1_555
H88_39 C138_39 1_555 1_555
H89_15 C139_15 1_555 1_555
H90_15 C140_15 1_555 1_555
H91_15 C141_15 1_555 1_555
C142_39 C137_39 1_555 1_555
C143_39 C138_39 1_555 1_555
C144_15 C139_15 1_555 1_555
C145_15 C140_15 1_555 1_555
C146_15 C141_15 1_555 1_555
C147_39 C142_39 1_555 1_555
C148_39 C143_39 1_555 1_555
C149_15 C144_15 1_555 1_555
C150_15 C145_15 1_555 1_555
C151_15 C146_15 1_555 1_555
H92_39 C147_39 1_555 1_555
H93_39 C148_39 1_555 1_555
H94_15 C149_15 1_555 1_555
H95_15 C150_15 1_555 1_555
H96_15 C151_15 1_555 1_555
C152_39 N10_39 1_555 1_555
C153_39 C143_39 1_555 1_555
C154_15 C144_15 1_555 1_555
C155_15 C145_15 1_555 1_555
C156_15 C146_15 1_555 1_555
N64_18 C127_39 1_555 1_555
N64_14 C128_39 1_555 1_555
N64_37 C130_15 1_555 1_555
N64_35 C131_15 1_555 1_555
N66_39 C152_39 1_555 1_555
N67_39 C26_39 1_555 1_555
N68_15 C154_15 1_555 1_555
N69_15 C155_15 1_555 1_555
N70_15 C154_15 1_555 1_555
C21_39 N64_22 1_555 1_555
C25_39 N64_22 1_555 1_555
C129_15 N65_22 1_555 1_555
C142_39 C152_39 1_555 1_555
C147_39 N64_18 1_555 1_555
C148_39 N64_14 1_555 1_555
C149_15 N65_22 1_555 1_555
C150_15 N64_37 1_555 1_555
C151_15 N64_35 1_555 1_555
C153_39 N66_39 1_555 1_555
C153_39 N67_39 1_555 1_555
C155_15 N68_15 1_555 1_555
C156_15 N69_15 1_555 1_555
C156_15 N70_15 1_555 1_555
C21_40 H13_40 1_555 1_555
C22_40 C21_40 1_555 1_555
H14_40 C22_40 1_555 1_555
C23_40 C22_40 1_555 1_555
H15_40 C23_40 1_555 1_555
C24_40 C23_40 1_555 1_555
C25_40 C24_40 1_555 1_555
H16_40 C25_40 1_555 1_555
C26_40 C24_40 1_555 1_555
N10_40 C26_40 1_555 1_555
C127_40 H77_40 1_555 1_555
C128_40 H78_40 1_555 1_555
C129_16 H79_16 1_555 1_555
C130_16 H80_16 1_555 1_555
C131_16 H81_16 1_555 1_555
C132_40 C127_40 1_555 1_555
C133_40 C128_40 1_555 1_555
C134_16 C129_16 1_555 1_555
C135_16 C130_16 1_555 1_555
C136_16 C131_16 1_555 1_555
H82_40 C132_40 1_555 1_555
H83_40 C133_40 1_555 1_555
H84_16 C134_16 1_555 1_555
H85_16 C135_16 1_555 1_555
H86_16 C136_16 1_555 1_555
C137_40 C132_40 1_555 1_555
C138_40 C133_40 1_555 1_555
C139_16 C134_16 1_555 1_555
C140_16 C135_16 1_555 1_555
C141_16 C136_16 1_555 1_555
H87_40 C137_40 1_555 1_555
H88_40 C138_40 1_555 1_555
H89_16 C139_16 1_555 1_555
H90_16 C140_16 1_555 1_555
H91_16 C141_16 1_555 1_555
C142_40 C137_40 1_555 1_555
C143_40 C138_40 1_555 1_555
C144_16 C139_16 1_555 1_555
C145_16 C140_16 1_555 1_555
C146_16 C141_16 1_555 1_555
C147_40 C142_40 1_555 1_555
C148_40 C143_40 1_555 1_555
C149_16 C144_16 1_555 1_555
C150_16 C145_16 1_555 1_555
C151_16 C146_16 1_555 1_555
H92_40 C147_40 1_555 1_555
H93_40 C148_40 1_555 1_555
H94_16 C149_16 1_555 1_555
H95_16 C150_16 1_555 1_555
H96_16 C151_16 1_555 1_555
C152_40 N10_40 1_555 1_555
C153_40 C143_40 1_555 1_555
C154_16 C144_16 1_555 1_555
C155_16 C145_16 1_555 1_555
C156_16 C146_16 1_555 1_555
N65_38 C127_40 1_555 1_555
N65_15 C128_40 1_555 1_555
N65_17 C130_16 1_555 1_555
N65_34 C131_16 1_555 1_555
N66_40 C152_40 1_555 1_555
N67_40 C26_40 1_555 1_555
N68_16 C154_16 1_555 1_555
N69_16 C155_16 1_555 1_555
N70_16 C154_16 1_555 1_555
C21_40 N65_45 1_555 1_555
C25_40 N65_45 1_555 1_555
C129_16 N64_45 1_555 1_555
C142_40 C152_40 1_555 1_555
C147_40 N65_38 1_555 1_555
C148_40 N65_15 1_555 1_555
C149_16 N64_45 1_555 1_555
C150_16 N65_17 1_555 1_555
C151_16 N65_34 1_555 1_555
C153_40 N66_40 1_555 1_555
C153_40 N67_40 1_555 1_555
C155_16 N68_16 1_555 1_555
C156_16 N69_16 1_555 1_555
C156_16 N70_16 1_555 1_555
C21_41 H13_41 1_555 1_555
C22_41 C21_41 1_555 1_555
H14_41 C22_41 1_555 1_555
C23_41 C22_41 1_555 1_555
H15_41 C23_41 1_555 1_555
C24_41 C23_41 1_555 1_555
C25_41 C24_41 1_555 1_555
H16_41 C25_41 1_555 1_555
C26_41 C24_41 1_555 1_555
N10_41 C26_41 1_555 1_555
C127_41 H77_41 1_555 1_555
C128_41 H78_41 1_555 1_555
C132_41 C127_41 1_555 1_555
C133_41 C128_41 1_555 1_555
H82_41 C132_41 1_555 1_555
H83_41 C133_41 1_555 1_555
C137_41 C132_41 1_555 1_555
C138_41 C133_41 1_555 1_555
H87_41 C137_41 1_555 1_555
H88_41 C138_41 1_555 1_555
C142_41 C137_41 1_555 1_555
C143_41 C138_41 1_555 1_555
C147_41 C142_41 1_555 1_555
C148_41 C143_41 1_555 1_555
H92_41 C147_41 1_555 1_555
H93_41 C148_41 1_555 1_555
C152_41 N10_41 1_555 1_555
C153_41 C143_41 1_555 1_555
N64_47 C127_41 1_555 1_555
N65_18 C128_41 1_555 1_555
N66_41 C152_41 1_555 1_555
N67_41 C26_41 1_555 1_555
C21_41 N65_35 1_555 1_555
C25_41 N65_35 1_555 1_555
C142_41 C152_41 1_555 1_555
C147_41 N64_47 1_555 1_555
C148_41 N65_18 1_555 1_555
C153_41 N66_41 1_555 1_555
C153_41 N67_41 1_555 1_555
C21_42 H13_42 1_555 1_555
C22_42 C21_42 1_555 1_555
H14_42 C22_42 1_555 1_555
C23_42 C22_42 1_555 1_555
H15_42 C23_42 1_555 1_555
C24_42 C23_42 1_555 1_555
C25_42 C24_42 1_555 1_555
H16_42 C25_42 1_555 1_555
C26_42 C24_42 1_555 1_555
N10_42 C26_42 1_555 1_555
C127_42 H77_42 1_555 1_555
C128_42 H78_42 1_555 1_555
C132_42 C127_42 1_555 1_555
C133_42 C128_42 1_555 1_555
H82_42 C132_42 1_555 1_555
H83_42 C133_42 1_555 1_555
C137_42 C132_42 1_555 1_555
C138_42 C133_42 1_555 1_555
H87_42 C137_42 1_555 1_555
H88_42 C138_42 1_555 1_555
C142_42 C137_42 1_555 1_555
C143_42 C138_42 1_555 1_555
C147_42 C142_42 1_555 1_555
C148_42 C143_42 1_555 1_555
H92_42 C147_42 1_555 1_555
H93_42 C148_42 1_555 1_555
C152_42 N10_42 1_555 1_555
C153_42 C143_42 1_555 1_555
N64_21 C127_42 1_555 1_555
N64_19 C128_42 1_555 1_555
N66_42 C152_42 1_555 1_555
N67_42 C26_42 1_555 1_555
C21_42 N64_16 1_555 1_555
C25_42 N64_16 1_555 1_555
C142_42 C152_42 1_555 1_555
C147_42 N64_21 1_555 1_555
C148_42 N64_19 1_555 1_555
C153_42 N66_42 1_555 1_555
C153_42 N67_42 1_555 1_555
C21_43 H13_43 1_555 1_555
C22_43 C21_43 1_555 1_555
H14_43 C22_43 1_555 1_555
C23_43 C22_43 1_555 1_555
H15_43 C23_43 1_555 1_555
C24_43 C23_43 1_555 1_555
C25_43 C24_43 1_555 1_555
H16_43 C25_43 1_555 1_555
C26_43 C24_43 1_555 1_555
N10_43 C26_43 1_555 1_555
C127_43 H77_43 1_555 1_555
C128_43 H78_43 1_555 1_555
C132_43 C127_43 1_555 1_555
C133_43 C128_43 1_555 1_555
H82_43 C132_43 1_555 1_555
H83_43 C133_43 1_555 1_555
C137_43 C132_43 1_555 1_555
C138_43 C133_43 1_555 1_555
H87_43 C137_43 1_555 1_555
H88_43 C138_43 1_555 1_555
C142_43 C137_43 1_555 1_555
C143_43 C138_43 1_555 1_555
C147_43 C142_43 1_555 1_555
C148_43 C143_43 1_555 1_555
H92_43 C147_43 1_555 1_555
H93_43 C148_43 1_555 1_555
C152_43 N10_43 1_555 1_555
C153_43 C143_43 1_555 1_555
N65_24 C127_43 1_555 1_555
N64_38 C128_43 1_555 1_555
N66_43 C152_43 1_555 1_555
N67_43 C26_43 1_555 1_555
C21_43 N64_34 1_555 1_555
C25_43 N64_34 1_555 1_555
C142_43 C152_43 1_555 1_555
C147_43 N65_24 1_555 1_555
C148_43 N64_38 1_555 1_555
C153_43 N66_43 1_555 1_555
C153_43 N67_43 1_555 1_555
C21_44 H13_44 1_555 1_555
C22_44 C21_44 1_555 1_555
H14_44 C22_44 1_555 1_555
C23_44 C22_44 1_555 1_555
H15_44 C23_44 1_555 1_555
C24_44 C23_44 1_555 1_555
C25_44 C24_44 1_555 1_555
H16_44 C25_44 1_555 1_555
C26_44 C24_44 1_555 1_555
N10_44 C26_44 1_555 1_555
C127_44 H77_44 1_555 1_555
C128_44 H78_44 1_555 1_555
C132_44 C127_44 1_555 1_555
C133_44 C128_44 1_555 1_555
H82_44 C132_44 1_555 1_555
H83_44 C133_44 1_555 1_555
C137_44 C132_44 1_555 1_555
C138_44 C133_44 1_555 1_555
H87_44 C137_44 1_555 1_555
H88_44 C138_44 1_555 1_555
C142_44 C137_44 1_555 1_555
C143_44 C138_44 1_555 1_555
C147_44 C142_44 1_555 1_555
C148_44 C143_44 1_555 1_555
H92_44 C147_44 1_555 1_555
H93_44 C148_44 1_555 1_555
C152_44 N10_44 1_555 1_555
C153_44 C143_44 1_555 1_555
N65_46 C127_44 1_555 1_555
N65_39 C128_44 1_555 1_555
N66_44 C152_44 1_555 1_555
N67_44 C26_44 1_555 1_555
C21_44 N65_13 1_555 1_555
C25_44 N65_13 1_555 1_555
C142_44 C152_44 1_555 1_555
C147_44 N65_46 1_555 1_555
C148_44 N65_39 1_555 1_555
C153_44 N66_44 1_555 1_555
C153_44 N67_44 1_555 1_555
C21_45 H13_45 1_555 1_555
C22_45 C21_45 1_555 1_555
H14_45 C22_45 1_555 1_555
C23_45 C22_45 1_555 1_555
H15_45 C23_45 1_555 1_555
C24_45 C23_45 1_555 1_555
C25_45 C24_45 1_555 1_555
H16_45 C25_45 1_555 1_555
C26_45 C24_45 1_555 1_555
N10_45 C26_45 1_555 1_555
C127_45 H77_45 1_555 1_555
C128_45 H78_45 1_555 1_555
C132_45 C127_45 1_555 1_555
C133_45 C128_45 1_555 1_555
H82_45 C132_45 1_555 1_555
H83_45 C133_45 1_555 1_555
C137_45 C132_45 1_555 1_555
C138_45 C133_45 1_555 1_555
H87_45 C137_45 1_555 1_555
H88_45 C138_45 1_555 1_555
C142_45 C137_45 1_555 1_555
C143_45 C138_45 1_555 1_555
C147_45 C142_45 1_555 1_555
C148_45 C143_45 1_555 1_555
H92_45 C147_45 1_555 1_555
H93_45 C148_45 1_555 1_555
C152_45 N10_45 1_555 1_555
C153_45 C143_45 1_555 1_555
N64_15 C127_45 1_555 1_555
N64_24 C128_45 1_555 1_555
N66_45 C152_45 1_555 1_555
N67_45 C26_45 1_555 1_555
C21_45 N64_17 1_555 1_555
C25_45 N64_17 1_555 1_555
C142_45 C152_45 1_555 1_555
C147_45 N64_15 1_555 1_555
C148_45 N64_24 1_555 1_555
C153_45 N66_45 1_555 1_555
C153_45 N67_45 1_555 1_555
C21_46 H13_46 1_555 1_555
C22_46 C21_46 1_555 1_555
H14_46 C22_46 1_555 1_555
C23_46 C22_46 1_555 1_555
H15_46 C23_46 1_555 1_555
C24_46 C23_46 1_555 1_555
C25_46 C24_46 1_555 1_555
H16_46 C25_46 1_555 1_555
C26_46 C24_46 1_555 1_555
N10_46 C26_46 1_555 1_555
C127_46 H77_46 1_555 1_555
C128_46 H78_46 1_555 1_555
C132_46 C127_46 1_555 1_555
C133_46 C128_46 1_555 1_555
H82_46 C132_46 1_555 1_555
H83_46 C133_46 1_555 1_555
C137_46 C132_46 1_555 1_555
C138_46 C133_46 1_555 1_555
H87_46 C137_46 1_555 1_555
H88_46 C138_46 1_555 1_555
C142_46 C137_46 1_555 1_555
C143_46 C138_46 1_555 1_555
C147_46 C142_46 1_555 1_555
C148_46 C143_46 1_555 1_555
H92_46 C147_46 1_555 1_555
H93_46 C148_46 1_555 1_555
C152_46 N10_46 1_555 1_555
C153_46 C143_46 1_555 1_555
N64_33 C127_46 1_555 1_555
N65_21 C128_46 1_555 1_555
N66_46 C152_46 1_555 1_555
N67_46 C26_46 1_555 1_555
C21_46 N64_40 1_555 1_555
C25_46 N64_40 1_555 1_555
C142_46 C152_46 1_555 1_555
C147_46 N64_33 1_555 1_555
C148_46 N65_21 1_555 1_555
C153_46 N66_46 1_555 1_555
C153_46 N67_46 1_555 1_555
C21_47 H13_47 1_555 1_555
C22_47 C21_47 1_555 1_555
H14_47 C22_47 1_555 1_555
C23_47 C22_47 1_555 1_555
H15_47 C23_47 1_555 1_555
C24_47 C23_47 1_555 1_555
C25_47 C24_47 1_555 1_555
H16_47 C25_47 1_555 1_555
C26_47 C24_47 1_555 1_555
N10_47 C26_47 1_555 1_555
C127_47 H77_47 1_555 1_555
C128_47 H78_47 1_555 1_555
C132_47 C127_47 1_555 1_555
C133_47 C128_47 1_555 1_555
H82_47 C132_47 1_555 1_555
H83_47 C133_47 1_555 1_555
C137_47 C132_47 1_555 1_555
C138_47 C133_47 1_555 1_555
H87_47 C137_47 1_555 1_555
H88_47 C138_47 1_555 1_555
C142_47 C137_47 1_555 1_555
C143_47 C138_47 1_555 1_555
C147_47 C142_47 1_555 1_555
C148_47 C143_47 1_555 1_555
H92_47 C147_47 1_555 1_555
H93_47 C148_47 1_555 1_555
C152_47 N10_47 1_555 1_555
C153_47 C143_47 1_555 1_555
N65_36 C127_47 1_555 1_555
N64_46 C128_47 1_555 1_555
N66_47 C152_47 1_555 1_555
N67_47 C26_47 1_555 1_555
C21_47 N65_20 1_555 1_555
C25_47 N65_20 1_555 1_555
C142_47 C152_47 1_555 1_555
C147_47 N65_36 1_555 1_555
C148_47 N64_46 1_555 1_555
C153_47 N66_47 1_555 1_555
C153_47 N67_47 1_555 1_555
C21_48 H13_48 1_555 1_555
C22_48 C21_48 1_555 1_555
H14_48 C22_48 1_555 1_555
C23_48 C22_48 1_555 1_555
H15_48 C23_48 1_555 1_555
C24_48 C23_48 1_555 1_555
C25_48 C24_48 1_555 1_555
H16_48 C25_48 1_555 1_555
C26_48 C24_48 1_555 1_555
N10_48 C26_48 1_555 1_555
C127_48 H77_48 1_555 1_555
C128_48 H78_48 1_555 1_555
C132_48 C127_48 1_555 1_555
C133_48 C128_48 1_555 1_555
H82_48 C132_48 1_555 1_555
H83_48 C133_48 1_555 1_555
C137_48 C132_48 1_555 1_555
C138_48 C133_48 1_555 1_555
H87_48 C137_48 1_555 1_555
H88_48 C138_48 1_555 1_555
C142_48 C137_48 1_555 1_555
C143_48 C138_48 1_555 1_555
C147_48 C142_48 1_555 1_555
C148_48 C143_48 1_555 1_555
H92_48 C147_48 1_555 1_555
H93_48 C148_48 1_555 1_555
C152_48 N10_48 1_555 1_555
C153_48 C143_48 1_555 1_555
N65_14 C127_48 1_555 1_555
N65_47 C128_48 1_555 1_555
N66_48 C152_48 1_555 1_555
N67_48 C26_48 1_555 1_555
C21_48 N65_37 1_555 1_555
C25_48 N65_37 1_555 1_555
C142_48 C152_48 1_555 1_555
C147_48 N65_14 1_555 1_555
C148_48 N65_47 1_555 1_555
C153_48 N66_48 1_555 1_555
C153_48 N67_48 1_555 1_555

#END
