
###############################################################################
#
# This file contains modified crystal structure data generated from the
# MOF subset of the Cambridge Structural Database (CSD) v543 
# hosted by the Cambridge Crystallographic Data Centre (CCDC).
#
# This work is licensed under the Creative Commons
# Attribution-NonCommercial-ShareAlike 4.0 International License.
# To view a copy of this license, visit
# http://creativecommons.org/licenses/by-nc-sa/4.0/
# or send a letter to
# Creative Commons, PO Box 1866, Mountain View, CA 94042, USA.
#
# CIF created using the CSD Python API on 29 September 2022
# The structure has been converted into the P1 space group
# The structure has a 3D framework
# The original CSD entry LAXMIJ is in the orthorhombic crystal system
# The framework has been calculated to contain at least 10.0% void space
# The void calculation uses a probe of radius 1.32A, grid spacing 0.4
#
###############################################################################

data_LAXMIJ
_chemical_formula_moiety         '(C24 H12 Co8 N56 O2)n'
_symmetry_cell_setting           triclinic
_symmetry_space_group_name_H-M   'P 1'
_symmetry_Int_Tables_number      1
_space_group_name_Hall           'P 1'
loop_
_symmetry_equiv_pos_site_id
_symmetry_equiv_pos_as_xyz
1 x,y,z
_cell_length_a                   9.9179(18)
_cell_length_b                   7.4256(13)
_cell_length_c                   19.787(3)
_cell_angle_alpha                90
_cell_angle_beta                 90
_cell_angle_gamma                90
_cell_volume                     1457.24
loop_
_atom_site_label
_atom_site_type_symbol
_atom_site_fract_x
_atom_site_fract_y
_atom_site_fract_z
N4 N 0.3772(3) 0.0014(4) 0.06050(14)
N5 N 0.4413(3) 0.1610(4) 0.06620(15)
N6 N 0.2856(3) 0.1548(4) 0.14462(16)
C3 C 0.2837(4) 0.0015(4) 0.10962(18)
N7 N 0.3863(4) 0.2525(4) 0.1161(2)
Co7 Co 0.61053(7) 0.2500 0.0000
O2 O 0.1320(4) 0.2387(5) 0.2500
H4 H 0.1463 0.0507 0.9049
Co7_2 Co 0.61053(7) 0.2500 1.0000
Co1 Co 0.01125(7) 0.97377(9) 0.2500
Co2 Co 0.38947(7) 0.7500 0.0000
N1 N 0.1224(3) 0.8074(4) 0.17228(15)
N2 N 0.0889(3) 0.6268(4) 0.16536(15)
C1 C 0.1529(4) 0.5667(5) 0.11120(18)
H1 H 0.1463 0.4493 0.0951
N3 N 0.2283(3) 0.6952(4) 0.08224(15)
C2 C 0.2064(3) 0.8388(5) 0.12159(17)
N15 N 0.1224(3) 0.8074(4) 0.32772(15)
N19 N 0.5587(3) 0.6610(4) 0.06620(15)
Co2_2 Co 0.38947(7) 0.7500 1.0000
N8 N 0.1224(3) 0.6926(4) 0.82772(15)
N9 N 0.0889(3) 0.8732(4) 0.83464(15)
C4 C 0.1529(4) 0.9333(5) 0.88880(18)
N10 N 0.2283(3) 0.8048(4) 0.91776(15)
N11 N 0.3772(3) 0.4986(4) 0.93950(14)
N12 N 0.4413(3) 0.3390(4) 0.93380(15)
N13 N 0.2856(3) 0.3452(4) 0.85538(16)
C5 C 0.2064(3) 0.6612(5) 0.87841(17)
C6 C 0.2837(4) 0.4985(4) 0.89038(18)
N14 N 0.3863(4) 0.2475(4) 0.8839(2)
Co4 Co 0.01125(7) 0.52623(9) 0.7500
N18 N 0.5587(3) 0.8390(4) 0.93380(15)
N16 N 0.9111(3) 0.1268(4) 0.33464(15)
N17 N 0.9111(3) 0.1268(4) 0.16536(15)
Co3 Co 0.98875(7) 0.02623(9) 0.7500
O1 O 0.8680(4) 0.7387(5) 0.2500
H2 H 0.817(4) 0.738(5) 0.272(2)
H3 H 0.817(4) 0.738(5) 0.228(2)
Co5 Co 0.98875(7) 0.47377(9) 0.2500
O1_2 O 0.1320(4) 0.2613(5) 0.7500
H2_2 H 0.183(4) 0.262(5) 0.772(2)
H3_2 H 0.183(4) 0.262(5) 0.728(2)
N17_2 N 0.0889(3) 0.8732(4) 0.66536(15)
Co2_3 Co 0.61053(7) 0.2500 0.5000
N1_2 N 0.8776(3) 0.1926(4) 0.67228(15)
N2_2 N 0.9111(3) 0.3732(4) 0.66536(15)
C1_2 C 0.8471(4) 0.4333(5) 0.61120(18)
H1_2 H 0.8537 0.5507 0.5951
N3_2 N 0.7717(3) 0.3048(4) 0.58224(15)
C2_2 C 0.7936(3) 0.1612(5) 0.62159(17)
N8_2 N 0.8776(3) 0.3074(4) 0.32772(15)
C4_2 C 0.8471(4) 0.0667(5) 0.38880(18)
N10_2 N 0.7717(3) 0.1952(4) 0.41776(15)
N11_2 N 0.6228(3) 0.5014(4) 0.43950(14)
N12_2 N 0.5587(3) 0.6610(4) 0.43380(15)
N13_2 N 0.7144(3) 0.6548(4) 0.35538(16)
C5_2 C 0.7936(3) 0.3388(5) 0.37841(17)
C6_2 C 0.7163(4) 0.5015(4) 0.39038(18)
N14_2 N 0.6137(4) 0.7525(4) 0.3839(2)
Co6 Co 0.38947(7) 0.7500 0.5000
N15_2 N 0.8776(3) 0.1926(4) 0.82772(15)
N18_2 N 0.4413(3) 0.1610(4) 0.43380(15)
N19_2 N 0.4413(3) 0.3390(4) 0.56620(15)
N4_2 N 0.6228(3) 0.9986(4) 0.56050(14)
N5_2 N 0.5587(3) 0.8390(4) 0.56620(15)
N6_2 N 0.7144(3) 0.8452(4) 0.64462(16)
C3_2 C 0.7163(4) 0.9985(4) 0.60962(18)
N7_2 N 0.6137(4) 0.7475(4) 0.6161(2)
H4_2 H 0.8537 0.9493 0.4049
O2_2 O 0.8680(4) 0.7613(5) 0.7500
N15_3 N 0.1224(3) 0.6926(4) 0.67228(15)
H2_3 H 0.817(4) 0.762(5) 0.728(2)
H3_3 H 0.817(4) 0.762(5) 0.772(2)
N17_3 N 0.9111(3) 0.3732(4) 0.83464(15)
H2_4 H 0.183(4) 0.238(5) 0.228(2)
H3_4 H 0.183(4) 0.238(5) 0.272(2)
N17_4 N 0.0889(3) 0.6268(4) 0.33464(15)
N15_4 N 0.8776(3) 0.3074(4) 0.17228(15)
C4_3 C 0.8471(4) 0.0667(5) 0.11120(18)
N10_3 N 0.7717(3) 0.1952(4) 0.08224(15)
N11_3 N 0.6228(3) 0.5014(4) 0.06050(14)
N13_3 N 0.7144(3) 0.6548(4) 0.14462(16)
C5_3 C 0.7936(3) 0.3388(5) 0.12159(17)
C6_3 C 0.7163(4) 0.5015(4) 0.10962(18)
N14_3 N 0.6137(4) 0.7525(4) 0.1161(2)
C1_3 C 0.8471(4) 0.4333(5) 0.88880(18)
H1_3 H 0.8537 0.5507 0.9049
N3_3 N 0.7717(3) 0.3048(4) 0.91776(15)
C2_3 C 0.7936(3) 0.1612(5) 0.87841(17)
H4_3 H 0.8537 0.9493 0.0951
N4_3 N 0.6228(3) 0.9986(4) 0.93950(14)
N6_3 N 0.7144(3) 0.8452(4) 0.85538(16)
C3_3 C 0.7163(4) 0.9985(4) 0.89038(18)
N7_3 N 0.6137(4) 0.7475(4) 0.8839(2)
N4_4 N 0.3772(3) 0.0014(4) 0.43950(14)
N6_4 N 0.2856(3) 0.1548(4) 0.35538(16)
C3_4 C 0.2837(4) 0.0015(4) 0.39038(18)
N7_4 N 0.3863(4) 0.2525(4) 0.3839(2)
H4_4 H 0.1463 0.0507 0.5951
C1_4 C 0.1529(4) 0.5667(5) 0.38880(18)
H1_4 H 0.1463 0.4493 0.4049
N3_4 N 0.2283(3) 0.6952(4) 0.41776(15)
C2_4 C 0.2064(3) 0.8388(5) 0.37841(17)
C4_4 C 0.1529(4) 0.9333(5) 0.61120(18)
N10_4 N 0.2283(3) 0.8048(4) 0.58224(15)
N11_4 N 0.3772(3) 0.4986(4) 0.56050(14)
N13_4 N 0.2856(3) 0.3452(4) 0.64462(16)
C5_4 C 0.2064(3) 0.6612(5) 0.62159(17)
C6_4 C 0.2837(4) 0.4985(4) 0.60962(18)
N14_4 N 0.3863(4) 0.2475(4) 0.6161(2)
loop_
_geom_bond_atom_site_label_1
_geom_bond_atom_site_label_2
_geom_bond_site_symmetry_1
_geom_bond_site_symmetry_2
N5 N4 1_555 1_555
N6 C3 1_555 1_555
C3 N4 1_555 1_555
N7 N5 1_555 1_555
Co7 N5 1_555 1_555
N6 N7 1_555 1_555
Co2 N3 1_555 1_555
N1 Co1 1_555 1_555
N2 N1 1_555 1_555
C1 N2 1_555 1_555
H1 C1 1_555 1_555
N3 C1 1_555 1_555
C2 N1 1_555 1_555
N15 Co1 1_555 1_555
N19 Co2 1_555 1_555
N3 C2 1_555 1_555
N8 N9 1_555 1_555
N9 C4 1_555 1_555
N10 Co2_2 1_555 1_555
N11 Co2_2 1_555 1_555
N12 N11 1_555 1_555
N13 C6 1_555 1_555
C5 N8 1_555 1_555
C6 N11 1_555 1_555
N14 N12 1_555 1_555
Co4 N8 1_555 1_555
Co7_2 N12 1_555 1_555
N18 Co2_2 1_555 1_555
C4 N10 1_555 1_555
N10 C5 1_555 1_555
N13 N14 1_555 1_555
C5 C6 1_555 1_555
O1 H2 1_555 1_555
H3 O1 1_555 1_555
Co5 O1 1_555 1_555
O1_2 H2_2 1_555 1_555
H3_2 O1_2 1_555 1_555
Co4 O1_2 1_555 1_555
Co2_3 N3_2 1_555 1_555
N1_2 Co3 1_555 1_555
N2_2 N1_2 1_555 1_555
C1_2 N2_2 1_555 1_555
H1_2 C1_2 1_555 1_555
N3_2 C1_2 1_555 1_555
C2_2 N1_2 1_555 1_555
N8_2 N16 1_555 1_555
N16 C4_2 1_555 1_555
N10_2 Co2_3 1_555 1_555
N11_2 Co2_3 1_555 1_555
N12_2 N11_2 1_555 1_555
N13_2 C6_2 1_555 1_555
C5_2 N8_2 1_555 1_555
C6_2 N11_2 1_555 1_555
N14_2 N12_2 1_555 1_555
Co5 N8_2 1_555 1_555
Co6 N12_2 1_555 1_555
N15_2 Co3 1_555 1_555
N18_2 Co2_3 1_555 1_555
N19_2 Co2_3 1_555 1_555
N3_2 C2_2 1_555 1_555
C4_2 N10_2 1_555 1_555
N10_2 C5_2 1_555 1_555
N13_2 N14_2 1_555 1_555
C5_2 C6_2 1_555 1_555
N5_2 N4_2 1_555 1_555
N6_2 C3_2 1_555 1_555
C3_2 N4_2 1_555 1_555
N7_2 N5_2 1_555 1_555
Co6 N5_2 1_555 1_555
N6_2 N7_2 1_555 1_555
N15_3 Co4 1_555 1_555
O2_2 H2_3 1_555 1_555
H3_3 O2_2 1_555 1_555
O2 H2_4 1_555 1_555
H3_4 O2 1_555 1_555
N15_4 Co5 1_555 1_555
N15_4 N17 1_555 1_555
N17 C4_3 1_555 1_555
N10_3 Co7 1_555 1_555
N11_3 Co7 1_555 1_555
N19 N11_3 1_555 1_555
N13_3 C6_3 1_555 1_555
C5_3 N15_4 1_555 1_555
C6_3 N11_3 1_555 1_555
N14_3 N19 1_555 1_555
C4_3 N10_3 1_555 1_555
N10_3 C5_3 1_555 1_555
N13_3 N14_3 1_555 1_555
C5_3 C6_3 1_555 1_555
Co7_2 N3_3 1_555 1_555
N17_3 N15_2 1_555 1_555
C1_3 N17_3 1_555 1_555
H1_3 C1_3 1_555 1_555
N3_3 C1_3 1_555 1_555
C2_3 N15_2 1_555 1_555
N3_3 C2_3 1_555 1_555
N18 N4_3 1_555 1_555
N6_3 C3_3 1_555 1_555
C3_3 N4_3 1_555 1_555
N7_3 N18 1_555 1_555
N6_3 N7_3 1_555 1_555
N18_2 N4_4 1_555 1_555
N6_4 C3_4 1_555 1_555
C3_4 N4_4 1_555 1_555
N7_4 N18_2 1_555 1_555
N6_4 N7_4 1_555 1_555
Co6 N3_4 1_555 1_555
N17_4 N15 1_555 1_555
C1_4 N17_4 1_555 1_555
H1_4 C1_4 1_555 1_555
N3_4 C1_4 1_555 1_555
C2_4 N15 1_555 1_555
N15_3 N17_2 1_555 1_555
N17_2 C4_4 1_555 1_555
N10_4 Co6 1_555 1_555
N11_4 Co6 1_555 1_555
N19_2 N11_4 1_555 1_555
N13_4 C6_4 1_555 1_555
C5_4 N15_3 1_555 1_555
C6_4 N11_4 1_555 1_555
N14_4 N19_2 1_555 1_555
N3_4 C2_4 1_555 1_555
C4_4 N10_4 1_555 1_555
N10_4 C5_4 1_555 1_555
N13_4 N14_4 1_555 1_555
C5_4 C6_4 1_555 1_555

#END
