
###############################################################################
#
# This file contains modified crystal structure data generated from the
# MOF subset of the Cambridge Structural Database (CSD) v543 
# hosted by the Cambridge Crystallographic Data Centre (CCDC).
#
# This work is licensed under the Creative Commons
# Attribution-NonCommercial-ShareAlike 4.0 International License.
# To view a copy of this license, visit
# http://creativecommons.org/licenses/by-nc-sa/4.0/
# or send a letter to
# Creative Commons, PO Box 1866, Mountain View, CA 94042, USA.
#
# CIF created using the CSD Python API on 29 September 2022
# The structure has been converted into the P1 space group
# The structure has a 3D framework
# The original CSD entry LAYGAV is in the monoclinic crystal system
# The framework has been calculated to contain at least 10.0% void space
# The void calculation uses a probe of radius 1.32A, grid spacing 0.4
#
###############################################################################

data_LAYGAV
_chemical_formula_moiety         '(C432 H272 Co24 N32 O96)n'
_symmetry_cell_setting           triclinic
_symmetry_space_group_name_H-M   'P 1'
_symmetry_Int_Tables_number      1
_space_group_name_Hall           'P 1'
loop_
_symmetry_equiv_pos_site_id
_symmetry_equiv_pos_as_xyz
1 x,y,z
_cell_length_a                   44.781(9)
_cell_length_b                   13.959(3)
_cell_length_c                   26.181(5)
_cell_angle_alpha                90
_cell_angle_beta                 119.71(3)
_cell_angle_gamma                90
_cell_volume                     14214.3
loop_
_atom_site_label
_atom_site_type_symbol
_atom_site_fract_x
_atom_site_fract_y
_atom_site_fract_z
Co3 Co 0.45546(2) 0.22893(6) 0.30952(3)
O3 O 0.41461(11) 0.1437(3) 0.28327(17)
O4 O 0.44621(15) 0.0871(3) 0.2485(2)
H6 H 0.3707 0.0186 0.2706
C12 C 0.42202(17) 0.0757(4) 0.2581(3)
Co4 Co 0.37314(2) 0.24982(6) 0.24146(3)
N5 N 0.50350(15) 0.1856(4) 0.3614(3)
O16 O 0.45482(14) 0.3090(3) 0.24717(19)
O18 O 0.45222(15) 0.3111(3) 0.3681(2)
Co2 Co 0.28308(2) 0.26669(6) 0.16527(3)
N1 N 0.23217(13) 0.2396(4) 0.1150(2)
N2 N 0.17513(14) 0.2457(4) 0.0737(2)
O1 O 0.33274(12) 0.3493(3) 0.2004(2)
O2 O 0.28281(14) 0.4141(3) 0.1727(2)
O5 O 0.29356(12) 0.2106(3) 0.24088(19)
O6 O 0.34970(12) 0.1809(3) 0.28130(19)
O9 O 0.39789(12) 0.3175(3) 0.20259(19)
C1 C 0.31477(17) 0.4228(5) 0.1930(3)
C2 C 0.33032(18) 0.5203(4) 0.2038(3)
C3 C 0.3615(2) 0.5345(5) 0.2125(4)
H1 H 0.3747 0.4816 0.2144
C4 C 0.3756(2) 0.6250(5) 0.2189(4)
H2 H 0.3974 0.6326 0.2237
C5 C 0.3565(2) 0.7050(4) 0.2183(3)
C6 C 0.3251(2) 0.6912(4) 0.2104(4)
H3 H 0.3121 0.7440 0.2092
C7 C 0.31118(19) 0.6006(4) 0.2039(3)
H4 H 0.2895 0.5926 0.1997
C8 C 0.37252(18) 0.8019(5) 0.2254(3)
C9 C 0.3614(2) 0.8783(5) 0.2463(3)
H5 H 0.3433 0.8699 0.2538
C10 C 0.3778(2) 0.9686(4) 0.2557(3)
C11 C 0.40359(18) 0.9839(4) 0.2436(3)
C13 C 0.4135(2) 0.9101(5) 0.2198(4)
H7 H 0.4301 0.9197 0.2089
C14 C 0.3975(2) 0.8198(5) 0.2125(4)
H8 H 0.4048 0.7698 0.1978
C15 C 0.3220(2) 0.1779(4) 0.2805(3)
C16 C 0.32126(19) 0.1299(5) 0.3316(3)
C17 C 0.2922(2) 0.1265(6) 0.3354(3)
H9 H 0.2720 0.1542 0.3062
C18 C 0.2927(2) 0.0812(6) 0.3835(4)
H10 H 0.2727 0.0796 0.3859
C19 C 0.3218(2) 0.0393(5) 0.4270(3)
C20 C 0.3499(2) 0.0416(7) 0.4209(4)
H11 H 0.3697 0.0111 0.4491
C21 C 0.3507(2) 0.0876(6) 0.3744(3)
H12 H 0.3709 0.0896 0.3725
H16 H 0.3710 0.0188 0.5374
C29 C 0.20606(16) 0.2728(5) 0.1196(3)
H17 H 0.2085 0.3105 0.1508
C30 C 0.14223(18) 0.2707(7) 0.0637(3)
C31 C 0.11563(17) 0.2826(5) 0.0079(3)
C36 C 0.0768(3) 0.3175(12) 0.0437(4)
H22 H 0.0548 0.3308 0.0367
C37 C 0.1053(3) 0.3049(14) 0.1014(4)
H23 H 0.1023 0.3159 0.1336
C38 C 0.1363(2) 0.2777(12) 0.1109(4)
H24 H 0.1538 0.2636 0.1488
C39 C 0.1833(2) 0.1907(5) 0.0386(3)
H25 H 0.1677 0.1610 0.0037
C40 C 0.2173(2) 0.1876(5) 0.0633(3)
H26 H 0.2293 0.1551 0.0481
C41 C 0.42506(18) 0.3314(4) 0.2047(3)
C42 C 0.42649(18) 0.3789(4) 0.1535(3)
C43 C 0.4558(2) 0.3865(5) 0.1507(3)
H27 H 0.4763 0.3647 0.1821
C44 C 0.4561(2) 0.4255(5) 0.1029(3)
H28 H 0.4763 0.4271 0.1011
C45 C 0.4256(2) 0.4629(5) 0.0569(3)
C46 C 0.3962(2) 0.4580(5) 0.0590(3)
H29 H 0.3761 0.4828 0.0281
C47 C 0.39532(19) 0.4159(4) 0.1075(3)
H30 H 0.3750 0.4127 0.1089
C48 C 0.4264(2) 0.5063(6) 0.0046(3)
C49 C 0.4542(3) 0.5508(7) 0.0099(3)
H31 H 0.4741 0.5529 0.0465
O14 O 0.35078(12) 0.1635(3) 0.16930(19)
O15 O 0.29532(12) 0.1920(3) 0.11458(18)
O17 O 0.39656(14) 0.3369(3) 0.3143(2)
N3 N 0.05633(15) 0.3208(5) 0.9388(3)
N4 N 0.00350(15) 0.3144(4) 0.8614(3)
O11 O 0.39656(14) 0.6631(3) 0.8143(2)
O12 O 0.45222(15) 0.6889(3) 0.8681(2)
H18 H 0.1192 0.2728 0.9762
C32 C 0.0847(2) 0.3082(7) 0.9984(3)
C33 C 0.02388(19) 0.2967(5) 0.9195(3)
H19 H 0.0160 0.2706 0.9433
C34 C 0.0262(2) 0.3520(5) 0.8452(4)
H20 H 0.0200 0.3711 0.8072
C35 C 0.0586(2) 0.3575(6) 0.8918(3)
H21 H 0.0782 0.3809 0.8921
C50 C 0.3967(3) 0.5052(7) 0.9490(4)
H32 H 0.3772 0.4714 0.9427
C51 C 0.4242(2) 0.6530(5) 0.8585(4)
C52 C 0.4254(2) 0.6011(5) 0.9095(3)
C53 C 0.4542(2) 0.5941(7) 0.9617(4)
H33 H 0.4747 0.6186 0.9659
C54 C 0.3970(2) 0.5564(7) 0.9034(4)
H34 H 0.3768 0.5597 0.8673
Co6 Co 0.37314(2) 0.75018(6) 0.74146(3)
Co10 Co 0.45546(2) 0.77107(6) 0.80952(3)
O7 O 0.35078(12) 0.8365(3) 0.66930(19)
O8 O 0.29532(12) 0.8080(3) 0.61458(18)
C22 C 0.3210(2) 0.9899(5) 0.4776(3)
C23 C 0.2917(2) 0.9460(5) 0.4711(3)
H13 H 0.2715 0.9485 0.4350
C24 C 0.2921(2) 0.8978(5) 0.5183(3)
H14 H 0.2724 0.8672 0.5136
C25 C 0.32219(18) 0.8961(4) 0.5724(3)
C26 C 0.32309(19) 0.8427(4) 0.6232(3)
C27 C 0.3512(2) 0.9411(5) 0.5799(3)
H15 H 0.3711 0.9404 0.6165
C28 C 0.3512(2) 0.9887(5) 0.5324(3)
Co7 Co 0.28308(2) 0.73331(6) 0.66527(3)
Co8 Co 0.95546(2) 0.27107(6) 0.80952(3)
N5_2 N 0.00350(15) 0.6856(4) 0.3614(3)
Co3_2 Co 0.95546(2) 0.72893(6) 0.30952(3)
O3_2 O 0.91461(11) 0.6437(3) 0.28327(17)
O4_2 O 0.94621(15) 0.5871(3) 0.2485(2)
C2_2 C 0.83032(18) 0.0203(4) 0.2038(3)
C3_2 C 0.8615(2) 0.0345(5) 0.2125(4)
C4_2 C 0.8756(2) 0.1250(5) 0.2189(4)
H2_2 H 0.8974 0.1326 0.2237
C5_2 C 0.8565(2) 0.2050(4) 0.2183(3)
C6_2 C 0.8251(2) 0.1912(4) 0.2104(4)
H3_2 H 0.8121 0.2440 0.2092
C7_2 C 0.81118(19) 0.1006(4) 0.2039(3)
H4_2 H 0.7895 0.0926 0.1997
C8_2 C 0.87252(18) 0.3019(5) 0.2254(3)
C9_2 C 0.8614(2) 0.3783(5) 0.2463(3)
H5_2 H 0.8433 0.3699 0.2538
C10_2 C 0.8778(2) 0.4686(4) 0.2557(3)
H6_2 H 0.8707 0.5186 0.2706
C11_2 C 0.90359(18) 0.4839(4) 0.2436(3)
C12_2 C 0.92202(17) 0.5757(4) 0.2581(3)
C13_2 C 0.9135(2) 0.4101(5) 0.2198(4)
H7_2 H 0.9301 0.4197 0.2089
C14_2 C 0.8975(2) 0.3198(5) 0.2125(4)
H8_2 H 0.9048 0.2698 0.1978
C48_2 C 0.9264(2) 0.0063(6) 0.0046(3)
C49_2 C 0.9542(3) 0.0508(7) 0.0099(3)
H31_2 H 0.9741 0.0529 0.0465
Co4_2 Co 0.87314(2) 0.74982(6) 0.24146(3)
O16_2 O 0.95482(14) 0.8090(3) 0.24717(19)
O18_2 O 0.95222(15) 0.8111(3) 0.3681(2)
O11_2 O 0.89656(14) 0.1631(3) 0.8143(2)
O12_2 O 0.95222(15) 0.1889(3) 0.8681(2)
C50_2 C 0.8967(3) 0.0052(7) 0.9490(4)
C51_2 C 0.9242(2) 0.1530(5) 0.8585(4)
C52_2 C 0.9254(2) 0.1011(5) 0.9095(3)
C53_2 C 0.9542(2) 0.0941(7) 0.9617(4)
H33_2 H 0.9747 0.1186 0.9659
C54_2 C 0.8970(2) 0.0564(7) 0.9034(4)
H34_2 H 0.8768 0.0597 0.8673
Co6_2 Co 0.87314(2) 0.25018(6) 0.74146(3)
Co2_2 Co 0.78308(2) 0.76669(6) 0.16527(3)
N1_2 N 0.73217(13) 0.7396(4) 0.1150(2)
N2_2 N 0.67513(14) 0.7457(4) 0.0737(2)
O1_2 O 0.83274(12) 0.8493(3) 0.2004(2)
O2_2 O 0.78281(14) 0.9141(3) 0.1727(2)
O5_2 O 0.79356(12) 0.7106(3) 0.24088(19)
O6_2 O 0.84970(12) 0.6809(3) 0.28130(19)
O7_2 O 0.85078(12) 0.3365(3) 0.66930(19)
O8_2 O 0.79532(12) 0.3080(3) 0.61458(18)
O9_2 O 0.89789(12) 0.8175(3) 0.20259(19)
C1_2 C 0.81477(17) 0.9228(5) 0.1930(3)
H1_2 H 0.8747 0.9816 0.2144
C15_2 C 0.8220(2) 0.6779(4) 0.2805(3)
C16_2 C 0.82126(19) 0.6299(5) 0.3316(3)
C17_2 C 0.7922(2) 0.6265(6) 0.3354(3)
H9_2 H 0.7720 0.6542 0.3062
C18_2 C 0.7927(2) 0.5812(6) 0.3835(4)
H10_2 H 0.7727 0.5796 0.3859
C19_2 C 0.8218(2) 0.5393(5) 0.4270(3)
C20_2 C 0.8499(2) 0.5416(7) 0.4209(4)
H11_2 H 0.8697 0.5111 0.4491
C21_2 C 0.8507(2) 0.5876(6) 0.3744(3)
H12_2 H 0.8709 0.5896 0.3725
C22_2 C 0.8210(2) 0.4899(5) 0.4776(3)
C23_2 C 0.7917(2) 0.4460(5) 0.4711(3)
H13_2 H 0.7715 0.4485 0.4350
C24_2 C 0.7921(2) 0.3978(5) 0.5183(3)
H14_2 H 0.7724 0.3672 0.5136
C25_2 C 0.82219(18) 0.3961(4) 0.5724(3)
C26_2 C 0.82309(19) 0.3427(4) 0.6232(3)
C27_2 C 0.8512(2) 0.4411(5) 0.5799(3)
H15_2 H 0.8711 0.4404 0.6165
C28_2 C 0.8512(2) 0.4887(5) 0.5324(3)
H16_2 H 0.8710 0.5188 0.5374
C29_2 C 0.70606(16) 0.7728(5) 0.1196(3)
H17_2 H 0.7085 0.8105 0.1508
C30_2 C 0.64223(18) 0.7707(7) 0.0637(3)
C31_2 C 0.61563(17) 0.7826(5) 0.0079(3)
C36_2 C 0.5768(3) 0.8175(12) 0.0437(4)
H22_2 H 0.5548 0.8308 0.0367
C37_2 C 0.6053(3) 0.8049(14) 0.1014(4)
H23_2 H 0.6023 0.8159 0.1336
C38_2 C 0.6363(2) 0.7777(12) 0.1109(4)
H24_2 H 0.6538 0.7636 0.1488
C39_2 C 0.6833(2) 0.6907(5) 0.0386(3)
H25_2 H 0.6677 0.6610 0.0037
C40_2 C 0.7173(2) 0.6876(5) 0.0633(3)
H26_2 H 0.7293 0.6551 0.0481
C41_2 C 0.92506(18) 0.8314(4) 0.2047(3)
C42_2 C 0.92649(18) 0.8789(4) 0.1535(3)
C43_2 C 0.9558(2) 0.8865(5) 0.1507(3)
H27_2 H 0.9763 0.8647 0.1821
C44_2 C 0.9561(2) 0.9255(5) 0.1029(3)
H28_2 H 0.9763 0.9271 0.1011
C45_2 C 0.9256(2) 0.9629(5) 0.0569(3)
C46_2 C 0.8962(2) 0.9580(5) 0.0590(3)
H29_2 H 0.8761 0.9828 0.0281
C47_2 C 0.89532(19) 0.9159(4) 0.1075(3)
H30_2 H 0.8750 0.9127 0.1089
Co7_2 Co 0.78308(2) 0.23331(6) 0.66527(3)
O14_2 O 0.85078(12) 0.6635(3) 0.16930(19)
O15_2 O 0.79532(12) 0.6920(3) 0.11458(18)
O17_2 O 0.89656(14) 0.8369(3) 0.3143(2)
N3_2 N 0.55633(15) 0.8208(5) 0.9388(3)
N4_2 N 0.50350(15) 0.8144(4) 0.8614(3)
H18_2 H 0.6192 0.7728 0.9762
C32_2 C 0.5847(2) 0.8082(7) 0.9984(3)
C33_2 C 0.52388(19) 0.7967(5) 0.9195(3)
H19_2 H 0.5160 0.7706 0.9433
C34_2 C 0.5262(2) 0.8520(5) 0.8452(4)
H20_2 H 0.5200 0.8711 0.8072
C35_2 C 0.5586(2) 0.8575(6) 0.8918(3)
H21_2 H 0.5782 0.8809 0.8921
H32_2 H 0.8772 0.9714 0.9427
C24_3 C 0.2921(2) 0.1022(5) 0.0183(3)
H14_3 H 0.2724 0.1328 0.0136
C25_3 C 0.32219(18) 0.1039(4) 0.0724(3)
C26_3 C 0.32309(19) 0.1573(4) 0.1232(3)
C27_3 C 0.3512(2) 0.0589(5) 0.0799(3)
H15_3 H 0.3711 0.0596 0.1165
C28_3 C 0.3512(2) 0.0113(5) 0.0324(3)
N1_3 N 0.23217(13) 0.7604(4) 0.6150(2)
N2_3 N 0.17513(14) 0.7543(4) 0.5737(2)
N3_3 N 0.05633(15) 0.6792(5) 0.4388(3)
O1_3 O 0.33274(12) 0.6507(3) 0.7004(2)
O2_3 O 0.28281(14) 0.5859(3) 0.6727(2)
O5_3 O 0.29356(12) 0.7894(3) 0.74088(19)
O6_3 O 0.34970(12) 0.8191(3) 0.78130(19)
O9_3 O 0.39789(12) 0.6825(3) 0.70259(19)
O10 O 0.45482(14) 0.6910(3) 0.74717(19)
C1_3 C 0.31477(17) 0.5772(5) 0.6930(3)
C2_3 C 0.33032(18) 0.4797(4) 0.7038(3)
C3_3 C 0.3615(2) 0.4655(5) 0.7125(4)
H1_3 H 0.3747 0.5184 0.7144
C4_3 C 0.3756(2) 0.3750(5) 0.7189(4)
H2_3 H 0.3974 0.3674 0.7237
C5_3 C 0.3565(2) 0.2950(4) 0.7183(3)
C6_3 C 0.3251(2) 0.3088(4) 0.7104(4)
H3_3 H 0.3121 0.2560 0.7092
C7_3 C 0.31118(19) 0.3994(4) 0.7039(3)
H4_3 H 0.2895 0.4074 0.6997
C8_3 C 0.37252(18) 0.1981(5) 0.7254(3)
C9_3 C 0.3614(2) 0.1217(5) 0.7463(3)
H5_3 H 0.3433 0.1301 0.7538
C10_3 C 0.3778(2) 0.0314(4) 0.7557(3)
C11_3 C 0.40359(18) 0.0161(4) 0.7436(3)
C13_3 C 0.4135(2) 0.0899(5) 0.7198(4)
H7_3 H 0.4301 0.0803 0.7089
C14_3 C 0.3975(2) 0.1802(5) 0.7125(4)
H8_3 H 0.4048 0.2302 0.6978
C15_3 C 0.3220(2) 0.8221(4) 0.7805(3)
C16_3 C 0.32126(19) 0.8701(5) 0.8316(3)
C17_3 C 0.2922(2) 0.8735(6) 0.8354(3)
H9_3 H 0.2720 0.8458 0.8062
C18_3 C 0.2927(2) 0.9188(6) 0.8835(4)
H10_3 H 0.2727 0.9204 0.8859
C19_3 C 0.3218(2) 0.9607(5) 0.9270(3)
C20_3 C 0.3499(2) 0.9584(7) 0.9209(4)
H11_3 H 0.3697 0.9889 0.9491
C21_3 C 0.3507(2) 0.9124(6) 0.8744(3)
H12_3 H 0.3709 0.9104 0.8725
C29_3 C 0.20606(16) 0.7272(5) 0.6196(3)
H17_3 H 0.2085 0.6895 0.6508
C30_3 C 0.14223(18) 0.7293(7) 0.5637(3)
C31_3 C 0.11563(17) 0.7174(5) 0.5079(3)
H18_3 H 0.1192 0.7272 0.4762
C32_3 C 0.0847(2) 0.6918(7) 0.4984(3)
C33_3 C 0.02388(19) 0.7033(5) 0.4195(3)
H19_3 H 0.0160 0.7294 0.4433
C34_3 C 0.0262(2) 0.6480(5) 0.3452(4)
H20_3 H 0.0200 0.6289 0.3072
C35_3 C 0.0586(2) 0.6425(6) 0.3918(3)
H21_3 H 0.0782 0.6191 0.3921
C36_3 C 0.0768(3) 0.6825(12) 0.5437(4)
H22_3 H 0.0548 0.6692 0.5367
C37_3 C 0.1053(3) 0.6951(14) 0.6014(4)
H23_3 H 0.1023 0.6841 0.6336
C38_3 C 0.1363(2) 0.7223(12) 0.6109(4)
H24_3 H 0.1538 0.7364 0.6488
C39_3 C 0.1833(2) 0.8093(5) 0.5386(3)
H25_3 H 0.1677 0.8390 0.5037
C40_3 C 0.2173(2) 0.8124(5) 0.5633(3)
H26_3 H 0.2293 0.8449 0.5481
C41_3 C 0.42506(18) 0.6686(4) 0.7047(3)
C42_3 C 0.42649(18) 0.6211(4) 0.6535(3)
C43_3 C 0.4558(2) 0.6135(5) 0.6507(3)
H27_3 H 0.4763 0.6353 0.6821
C44_3 C 0.4561(2) 0.5745(5) 0.6029(3)
H28_3 H 0.4763 0.5729 0.6011
C45_3 C 0.4256(2) 0.5371(5) 0.5569(3)
C46_3 C 0.3962(2) 0.5420(5) 0.5590(3)
H29_3 H 0.3761 0.5172 0.5281
C47_3 C 0.39532(19) 0.5841(4) 0.6075(3)
H30_3 H 0.3750 0.5873 0.6089
C48_3 C 0.4264(2) 0.4937(6) 0.5046(3)
C49_3 C 0.4542(3) 0.4492(7) 0.5099(3)
H31_3 H 0.4741 0.4471 0.5465
C50_3 C 0.3967(3) 0.4948(7) 0.4490(4)
H32_3 H 0.3772 0.5286 0.4427
C51_3 C 0.4242(2) 0.3470(5) 0.3585(4)
C52_3 C 0.4254(2) 0.3989(5) 0.4095(3)
C53_3 C 0.4542(2) 0.4059(7) 0.4617(4)
H33_3 H 0.4747 0.3814 0.4659
C54_3 C 0.3970(2) 0.4436(7) 0.4034(4)
H34_3 H 0.3768 0.4403 0.3673
O13 O 0.41461(11) 0.8563(3) 0.78327(17)
O4_3 O 0.44621(15) 0.9129(3) 0.7485(2)
H6_3 H 0.3707 0.9814 0.7706
C12_3 C 0.42202(17) 0.9243(4) 0.7581(3)
C24_4 C 0.7921(2) 0.6022(5) 0.0183(3)
H14_4 H 0.7724 0.6328 0.0136
C25_4 C 0.82219(18) 0.6039(4) 0.0724(3)
C26_4 C 0.82309(19) 0.6573(4) 0.1232(3)
C27_4 C 0.8512(2) 0.5589(5) 0.0799(3)
H15_4 H 0.8711 0.5596 0.1165
C28_4 C 0.8512(2) 0.5113(5) 0.0324(3)
H16_3 H 0.8710 0.4812 0.0374
N1_4 N 0.73217(13) 0.2604(4) 0.6150(2)
N2_4 N 0.67513(14) 0.2543(4) 0.5737(2)
N3_4 N 0.55633(15) 0.1792(5) 0.4388(3)
O1_4 O 0.83274(12) 0.1507(3) 0.7004(2)
O2_4 O 0.78281(14) 0.0859(3) 0.6727(2)
O5_4 O 0.79356(12) 0.2894(3) 0.74088(19)
O6_4 O 0.84970(12) 0.3191(3) 0.78130(19)
O9_4 O 0.89789(12) 0.1825(3) 0.70259(19)
O10_2 O 0.95482(14) 0.1910(3) 0.74717(19)
C1_4 C 0.81477(17) 0.0772(5) 0.6930(3)
H1_4 H 0.8747 0.0184 0.7144
C15_4 C 0.8220(2) 0.3221(4) 0.7805(3)
C16_4 C 0.82126(19) 0.3701(5) 0.8316(3)
C17_4 C 0.7922(2) 0.3735(6) 0.8354(3)
H9_4 H 0.7720 0.3458 0.8062
C18_4 C 0.7927(2) 0.4188(6) 0.8835(4)
H10_4 H 0.7727 0.4204 0.8859
C19_4 C 0.8218(2) 0.4607(5) 0.9270(3)
C20_4 C 0.8499(2) 0.4584(7) 0.9209(4)
H11_4 H 0.8697 0.4889 0.9491
C21_4 C 0.8507(2) 0.4124(6) 0.8744(3)
H12_4 H 0.8709 0.4104 0.8725
C22_3 C 0.8210(2) 0.5101(5) 0.9776(3)
C23_3 C 0.7917(2) 0.5540(5) 0.9711(3)
H13_3 H 0.7715 0.5515 0.9350
C29_4 C 0.70606(16) 0.2272(5) 0.6196(3)
H17_4 H 0.7085 0.1895 0.6508
C30_4 C 0.64223(18) 0.2293(7) 0.5637(3)
C31_4 C 0.61563(17) 0.2174(5) 0.5079(3)
H18_4 H 0.6192 0.2272 0.4762
C32_4 C 0.5847(2) 0.1918(7) 0.4984(3)
C33_4 C 0.52388(19) 0.2033(5) 0.4195(3)
H19_4 H 0.5160 0.2294 0.4433
C34_4 C 0.5262(2) 0.1480(5) 0.3452(4)
H20_4 H 0.5200 0.1289 0.3072
C35_4 C 0.5586(2) 0.1425(6) 0.3918(3)
H21_4 H 0.5782 0.1191 0.3921
C36_4 C 0.5768(3) 0.1825(12) 0.5437(4)
H22_4 H 0.5548 0.1692 0.5367
C37_4 C 0.6053(3) 0.1951(14) 0.6014(4)
H23_4 H 0.6023 0.1841 0.6336
C38_4 C 0.6363(2) 0.2223(12) 0.6109(4)
H24_4 H 0.6538 0.2364 0.6488
C39_4 C 0.6833(2) 0.3093(5) 0.5386(3)
H25_4 H 0.6677 0.3390 0.5037
C40_4 C 0.7173(2) 0.3124(5) 0.5633(3)
H26_4 H 0.7293 0.3449 0.5481
C41_4 C 0.92506(18) 0.1686(4) 0.7047(3)
C42_4 C 0.92649(18) 0.1211(4) 0.6535(3)
C43_4 C 0.9558(2) 0.1135(5) 0.6507(3)
H27_4 H 0.9763 0.1353 0.6821
C44_4 C 0.9561(2) 0.0745(5) 0.6029(3)
H28_4 H 0.9763 0.0729 0.6011
C45_4 C 0.9256(2) 0.0371(5) 0.5569(3)
C46_4 C 0.8962(2) 0.0420(5) 0.5590(3)
H29_4 H 0.8761 0.0172 0.5281
C47_4 C 0.89532(19) 0.0841(4) 0.6075(3)
H30_4 H 0.8750 0.0873 0.6089
H32_4 H 0.8772 0.0286 0.4427
O13_2 O 0.91461(11) 0.3563(3) 0.78327(17)
O4_4 O 0.94621(15) 0.4129(3) 0.7485(2)
C2_4 C 0.83032(18) 0.9797(4) 0.7038(3)
C3_4 C 0.8615(2) 0.9655(5) 0.7125(4)
C4_4 C 0.8756(2) 0.8750(5) 0.7189(4)
H2_4 H 0.8974 0.8674 0.7237
C5_4 C 0.8565(2) 0.7950(4) 0.7183(3)
C6_4 C 0.8251(2) 0.8088(4) 0.7104(4)
H3_4 H 0.8121 0.7560 0.7092
C7_4 C 0.81118(19) 0.8994(4) 0.7039(3)
H4_4 H 0.7895 0.9074 0.6997
C8_4 C 0.87252(18) 0.6981(5) 0.7254(3)
C9_4 C 0.8614(2) 0.6217(5) 0.7463(3)
H5_4 H 0.8433 0.6301 0.7538
C10_4 C 0.8778(2) 0.5314(4) 0.7557(3)
H6_4 H 0.8707 0.4814 0.7706
C11_4 C 0.90359(18) 0.5161(4) 0.7436(3)
C12_4 C 0.92202(17) 0.4243(4) 0.7581(3)
C13_4 C 0.9135(2) 0.5899(5) 0.7198(4)
H7_4 H 0.9301 0.5803 0.7089
C14_4 C 0.8975(2) 0.6802(5) 0.7125(4)
H8_4 H 0.9048 0.7302 0.6978
C48_4 C 0.9264(2) 0.9937(6) 0.5046(3)
C49_4 C 0.9542(3) 0.9492(7) 0.5099(3)
H31_4 H 0.9741 0.9471 0.5465
C50_4 C 0.8967(3) 0.9948(7) 0.4490(4)
C51_4 C 0.9242(2) 0.8470(5) 0.3585(4)
C52_4 C 0.9254(2) 0.8989(5) 0.4095(3)
C53_4 C 0.9542(2) 0.9059(7) 0.4617(4)
H33_4 H 0.9747 0.8814 0.4659
C54_4 C 0.8970(2) 0.9436(7) 0.4034(4)
H34_4 H 0.8768 0.9403 0.3673
Co8_2 Co 0.04454(2) 0.27107(6) 0.69048(3)
Co3_3 Co 0.54454(2) 0.22893(6) 0.19048(3)
O3_3 O 0.58539(11) 0.1437(3) 0.21673(17)
O4_5 O 0.55379(15) 0.0871(3) 0.2515(2)
H6_5 H 0.6293 0.0186 0.2294
C12_5 C 0.57798(17) 0.0757(4) 0.2419(3)
Co4_3 Co 0.62686(2) 0.24982(6) 0.25854(3)
N5_3 N 0.49650(15) 0.1856(4) 0.1386(3)
O16_3 O 0.54518(14) 0.3090(3) 0.25283(19)
O18_3 O 0.54778(15) 0.3111(3) 0.1319(2)
Co2_3 Co 0.71692(2) 0.26669(6) 0.33473(3)
N1_5 N 0.76783(13) 0.2396(4) 0.3850(2)
N2_5 N 0.82487(14) 0.2457(4) 0.4263(2)
N3_5 N 0.94367(15) 0.3208(5) 0.5612(3)
N4_3 N 0.99650(15) 0.3144(4) 0.6386(3)
O1_5 O 0.66726(12) 0.3493(3) 0.2996(2)
O2_5 O 0.71719(14) 0.4141(3) 0.3273(2)
O5_5 O 0.70644(12) 0.2106(3) 0.25912(19)
O6_5 O 0.65030(12) 0.1809(3) 0.21870(19)
O9_5 O 0.60211(12) 0.3175(3) 0.29741(19)
O11_3 O 0.60344(14) 0.6631(3) 0.6857(2)
O12_3 O 0.54778(15) 0.6889(3) 0.6319(2)
C1_5 C 0.68523(17) 0.4228(5) 0.3070(3)
C2_5 C 0.66968(18) 0.5203(4) 0.2962(3)
C3_5 C 0.6385(2) 0.5345(5) 0.2875(4)
H1_5 H 0.6253 0.4816 0.2856
C4_5 C 0.6244(2) 0.6250(5) 0.2811(4)
H2_5 H 0.6026 0.6326 0.2763
C5_5 C 0.6435(2) 0.7050(4) 0.2817(3)
C6_5 C 0.6749(2) 0.6912(4) 0.2896(4)
H3_5 H 0.6879 0.7440 0.2908
C7_5 C 0.68882(19) 0.6006(4) 0.2961(3)
H4_5 H 0.7105 0.5926 0.3003
C8_5 C 0.62748(18) 0.8019(5) 0.2746(3)
C9_5 C 0.6386(2) 0.8783(5) 0.2537(3)
H5_5 H 0.6567 0.8699 0.2462
C10_5 C 0.6222(2) 0.9686(4) 0.2443(3)
C11_5 C 0.59641(18) 0.9839(4) 0.2564(3)
C13_5 C 0.5865(2) 0.9101(5) 0.2802(4)
H7_5 H 0.5699 0.9197 0.2911
C14_5 C 0.6025(2) 0.8198(5) 0.2875(4)
H8_5 H 0.5952 0.7698 0.3022
C15_5 C 0.6780(2) 0.1779(4) 0.2195(3)
C16_5 C 0.67874(19) 0.1299(5) 0.1684(3)
C17_5 C 0.7078(2) 0.1265(6) 0.1646(3)
H9_5 H 0.7280 0.1542 0.1938
C18_5 C 0.7073(2) 0.0812(6) 0.1165(4)
H10_5 H 0.7273 0.0796 0.1141
C19_5 C 0.6782(2) 0.0393(5) 0.0730(3)
C20_5 C 0.6501(2) 0.0416(7) 0.0791(4)
H11_5 H 0.6303 0.0111 0.0509
C21_5 C 0.6493(2) 0.0876(6) 0.1256(3)
H12_5 H 0.6291 0.0896 0.1275
C29_5 C 0.79394(16) 0.2728(5) 0.3804(3)
H17_5 H 0.7915 0.3105 0.3492
C30_5 C 0.85777(18) 0.2707(7) 0.4363(3)
C31_5 C 0.88437(17) 0.2826(5) 0.4921(3)
H18_5 H 0.8808 0.2728 0.5238
C32_5 C 0.9153(2) 0.3082(7) 0.5016(3)
C33_5 C 0.97612(19) 0.2967(5) 0.5805(3)
H19_5 H 0.9840 0.2706 0.5567
C34_5 C 0.9738(2) 0.3520(5) 0.6548(4)
H20_5 H 0.9800 0.3711 0.6928
C35_5 C 0.9414(2) 0.3575(6) 0.6082(3)
H21_5 H 0.9218 0.3809 0.6079
C36_5 C 0.9232(3) 0.3175(12) 0.4563(4)
H22_5 H 0.9452 0.3308 0.4633
C37_5 C 0.8947(3) 0.3049(14) 0.3986(4)
H23_5 H 0.8977 0.3159 0.3664
C38_5 C 0.8637(2) 0.2777(12) 0.3891(4)
H24_5 H 0.8462 0.2636 0.3512
C39_5 C 0.8167(2) 0.1907(5) 0.4614(3)
H25_5 H 0.8323 0.1610 0.4963
C40_5 C 0.7827(2) 0.1876(5) 0.4367(3)
H26_5 H 0.7707 0.1551 0.4519
C41_5 C 0.57494(18) 0.3314(4) 0.2953(3)
C42_5 C 0.57351(18) 0.3789(4) 0.3465(3)
C43_5 C 0.5442(2) 0.3865(5) 0.3493(3)
H27_5 H 0.5237 0.3647 0.3179
C44_5 C 0.5439(2) 0.4255(5) 0.3971(3)
H28_5 H 0.5237 0.4271 0.3989
C45_5 C 0.5744(2) 0.4629(5) 0.4431(3)
C46_5 C 0.6038(2) 0.4580(5) 0.4410(3)
H29_5 H 0.6239 0.4828 0.4719
C47_5 C 0.60468(19) 0.4159(4) 0.3925(3)
H30_5 H 0.6250 0.4127 0.3911
C48_5 C 0.5736(2) 0.5063(6) 0.4954(3)
C49_5 C 0.5458(3) 0.5508(7) 0.4901(3)
H31_5 H 0.5259 0.5529 0.4535
C50_5 C 0.6033(3) 0.5052(7) 0.5510(4)
H32_5 H 0.6228 0.4714 0.5573
C51_5 C 0.5758(2) 0.6530(5) 0.6415(4)
C52_5 C 0.5746(2) 0.6011(5) 0.5905(3)
C53_5 C 0.5458(2) 0.5941(7) 0.5383(4)
H33_5 H 0.5253 0.6186 0.5341
C54_5 C 0.6030(2) 0.5564(7) 0.5966(4)
H34_5 H 0.6232 0.5597 0.6327
Co6_3 Co 0.62686(2) 0.75018(6) 0.75854(3)
Co10_2 Co 0.54454(2) 0.77107(6) 0.69048(3)
O14_3 O 0.64922(12) 0.1635(3) 0.33070(19)
O15_3 O 0.70468(12) 0.1920(3) 0.38542(18)
O17_3 O 0.60344(14) 0.3369(3) 0.1857(2)
O7_3 O 0.64922(12) 0.8365(3) 0.83070(19)
O8_3 O 0.70468(12) 0.8080(3) 0.88542(18)
C24_5 C 0.7079(2) 0.8978(5) 0.9817(3)
H14_5 H 0.7276 0.8672 0.9864
C25_5 C 0.67781(18) 0.8961(4) 0.9276(3)
C26_5 C 0.67691(19) 0.8427(4) 0.8768(3)
C27_5 C 0.6488(2) 0.9411(5) 0.9201(3)
H15_5 H 0.6289 0.9404 0.8835
C28_5 C 0.6488(2) 0.9887(5) 0.9676(3)
Co7_3 Co 0.71692(2) 0.73331(6) 0.83473(3)
Co3_4 Co 0.04454(2) 0.72893(6) 0.19048(3)
O3_4 O 0.08539(11) 0.6437(3) 0.21673(17)
O4_6 O 0.05379(15) 0.5871(3) 0.2515(2)
O11_4 O 0.10344(14) 0.1631(3) 0.6857(2)
O12_4 O 0.04778(15) 0.1889(3) 0.6319(2)
C2_6 C 0.16968(18) 0.0203(4) 0.2962(3)
C3_6 C 0.1385(2) 0.0345(5) 0.2875(4)
C4_6 C 0.1244(2) 0.1250(5) 0.2811(4)
H2_6 H 0.1026 0.1326 0.2763
C5_6 C 0.1435(2) 0.2050(4) 0.2817(3)
C6_6 C 0.1749(2) 0.1912(4) 0.2896(4)
H3_6 H 0.1879 0.2440 0.2908
C7_6 C 0.18882(19) 0.1006(4) 0.2961(3)
H4_6 H 0.2105 0.0926 0.3003
C8_6 C 0.12748(18) 0.3019(5) 0.2746(3)
C9_6 C 0.1386(2) 0.3783(5) 0.2537(3)
H5_6 H 0.1567 0.3699 0.2462
C10_6 C 0.1222(2) 0.4686(4) 0.2443(3)
H6_6 H 0.1293 0.5186 0.2294
C11_6 C 0.09641(18) 0.4839(4) 0.2564(3)
C12_6 C 0.07798(17) 0.5757(4) 0.2419(3)
C13_6 C 0.0865(2) 0.4101(5) 0.2802(4)
H7_6 H 0.0699 0.4197 0.2911
C14_6 C 0.1025(2) 0.3198(5) 0.2875(4)
H8_6 H 0.0952 0.2698 0.3022
C48_6 C 0.0736(2) 0.0063(6) 0.4954(3)
C49_6 C 0.0458(3) 0.0508(7) 0.4901(3)
H31_6 H 0.0259 0.0529 0.4535
C50_6 C 0.1033(3) 0.0052(7) 0.5510(4)
C51_6 C 0.0758(2) 0.1530(5) 0.6415(4)
C52_6 C 0.0746(2) 0.1011(5) 0.5905(3)
C53_6 C 0.0458(2) 0.0941(7) 0.5383(4)
H33_6 H 0.0253 0.1186 0.5341
C54_6 C 0.1030(2) 0.0564(7) 0.5966(4)
H34_6 H 0.1232 0.0597 0.6327
Co4_4 Co 0.12686(2) 0.74982(6) 0.25854(3)
Co6_4 Co 0.12686(2) 0.25018(6) 0.75854(3)
O16_4 O 0.04518(14) 0.8090(3) 0.25283(19)
O18_4 O 0.04778(15) 0.8111(3) 0.1319(2)
Co2_4 Co 0.21692(2) 0.76669(6) 0.33473(3)
N1_6 N 0.26783(13) 0.7396(4) 0.3850(2)
N2_6 N 0.32487(14) 0.7457(4) 0.4263(2)
N3_6 N 0.44367(15) 0.8208(5) 0.5612(3)
N4_4 N 0.49650(15) 0.8144(4) 0.6386(3)
O1_6 O 0.16726(12) 0.8493(3) 0.2996(2)
O2_6 O 0.21719(14) 0.9141(3) 0.3273(2)
O5_6 O 0.20644(12) 0.7106(3) 0.25912(19)
O6_6 O 0.15030(12) 0.6809(3) 0.21870(19)
O9_6 O 0.10211(12) 0.8175(3) 0.29741(19)
C1_6 C 0.18523(17) 0.9228(5) 0.3070(3)
H1_6 H 0.1253 0.9816 0.2856
C15_6 C 0.1780(2) 0.6779(4) 0.2195(3)
C16_6 C 0.17874(19) 0.6299(5) 0.1684(3)
C17_6 C 0.2078(2) 0.6265(6) 0.1646(3)
H9_6 H 0.2280 0.6542 0.1938
C18_6 C 0.2073(2) 0.5812(6) 0.1165(4)
H10_6 H 0.2273 0.5796 0.1141
C19_6 C 0.1782(2) 0.5393(5) 0.0730(3)
C20_6 C 0.1501(2) 0.5416(7) 0.0791(4)
H11_6 H 0.1303 0.5111 0.0509
C21_6 C 0.1493(2) 0.5876(6) 0.1256(3)
H12_6 H 0.1291 0.5896 0.1275
C22_4 C 0.1790(2) 0.4899(5) 0.0224(3)
C23_4 C 0.2083(2) 0.4460(5) 0.0289(3)
H13_4 H 0.2285 0.4485 0.0650
C29_6 C 0.29394(16) 0.7728(5) 0.3804(3)
H17_6 H 0.2915 0.8105 0.3492
C30_6 C 0.35777(18) 0.7707(7) 0.4363(3)
C31_6 C 0.38437(17) 0.7826(5) 0.4921(3)
H18_6 H 0.3808 0.7728 0.5238
C32_6 C 0.4153(2) 0.8082(7) 0.5016(3)
C33_6 C 0.47612(19) 0.7967(5) 0.5805(3)
H19_6 H 0.4840 0.7706 0.5567
C34_6 C 0.4738(2) 0.8520(5) 0.6548(4)
H20_6 H 0.4800 0.8711 0.6928
C35_6 C 0.4414(2) 0.8575(6) 0.6082(3)
H21_6 H 0.4218 0.8809 0.6079
C36_6 C 0.4232(3) 0.8175(12) 0.4563(4)
H22_6 H 0.4452 0.8308 0.4633
C37_6 C 0.3947(3) 0.8049(14) 0.3986(4)
H23_6 H 0.3977 0.8159 0.3664
C38_6 C 0.3637(2) 0.7777(12) 0.3891(4)
H24_6 H 0.3462 0.7636 0.3512
C39_6 C 0.3167(2) 0.6907(5) 0.4614(3)
H25_6 H 0.3323 0.6610 0.4963
C40_6 C 0.2827(2) 0.6876(5) 0.4367(3)
H26_6 H 0.2707 0.6551 0.4519
C41_6 C 0.07494(18) 0.8314(4) 0.2953(3)
C42_6 C 0.07351(18) 0.8789(4) 0.3465(3)
C43_6 C 0.0442(2) 0.8865(5) 0.3493(3)
H27_6 H 0.0237 0.8647 0.3179
C44_6 C 0.0439(2) 0.9255(5) 0.3971(3)
H28_6 H 0.0237 0.9271 0.3989
C45_6 C 0.0744(2) 0.9629(5) 0.4431(3)
C46_6 C 0.1038(2) 0.9580(5) 0.4410(3)
H29_6 H 0.1239 0.9828 0.4719
C47_6 C 0.10468(19) 0.9159(4) 0.3925(3)
H30_6 H 0.1250 0.9127 0.3911
H32_6 H 0.1228 0.9714 0.5573
O14_4 O 0.14922(12) 0.6635(3) 0.33070(19)
O15_4 O 0.20468(12) 0.6920(3) 0.38542(18)
O17_4 O 0.10344(14) 0.8369(3) 0.1857(2)
O7_4 O 0.14922(12) 0.3365(3) 0.83070(19)
O8_4 O 0.20468(12) 0.3080(3) 0.88542(18)
C24_6 C 0.2079(2) 0.3978(5) 0.9817(3)
H14_6 H 0.2276 0.3672 0.9864
C25_6 C 0.17781(18) 0.3961(4) 0.9276(3)
C26_6 C 0.17691(19) 0.3427(4) 0.8768(3)
C27_6 C 0.1488(2) 0.4411(5) 0.9201(3)
H15_6 H 0.1289 0.4404 0.8835
C28_6 C 0.1488(2) 0.4887(5) 0.9676(3)
H16_4 H 0.1290 0.5188 0.9626
Co7_4 Co 0.21692(2) 0.23331(6) 0.83473(3)
N5_4 N 0.99650(15) 0.6856(4) 0.1386(3)
C22_5 C 0.6790(2) 0.0101(5) 0.5224(3)
C23_5 C 0.7083(2) 0.0540(5) 0.5289(3)
H13_5 H 0.7285 0.0515 0.5650
C24_7 C 0.7079(2) 0.1022(5) 0.4817(3)
H14_7 H 0.7276 0.1328 0.4864
C25_7 C 0.67781(18) 0.1039(4) 0.4276(3)
C26_7 C 0.67691(19) 0.1573(4) 0.3768(3)
C27_7 C 0.6488(2) 0.0589(5) 0.4201(3)
H15_7 H 0.6289 0.0596 0.3835
C28_7 C 0.6488(2) 0.0113(5) 0.4676(3)
N3_7 N 0.94367(15) 0.6792(5) 0.0612(3)
H18_7 H 0.8808 0.7272 0.0238
C32_7 C 0.9153(2) 0.6918(7) 0.0016(3)
C33_7 C 0.97612(19) 0.7033(5) 0.0805(3)
H19_7 H 0.9840 0.7294 0.0567
C34_7 C 0.9738(2) 0.6480(5) 0.1548(4)
H20_7 H 0.9800 0.6289 0.1928
C35_7 C 0.9414(2) 0.6425(6) 0.1082(3)
H21_7 H 0.9218 0.6191 0.1079
C50_7 C 0.6033(3) 0.4948(7) 0.0510(4)
H32_7 H 0.6228 0.5286 0.0573
C51_7 C 0.5758(2) 0.3470(5) 0.1415(4)
C52_7 C 0.5746(2) 0.3989(5) 0.0905(3)
C53_7 C 0.5458(2) 0.4059(7) 0.0383(4)
H33_7 H 0.5253 0.3814 0.0341
C54_7 C 0.6030(2) 0.4436(7) 0.0966(4)
H34_7 H 0.6232 0.4403 0.1327
N1_7 N 0.76783(13) 0.7604(4) 0.8850(2)
N2_7 N 0.82487(14) 0.7543(4) 0.9263(2)
O1_7 O 0.66726(12) 0.6507(3) 0.7996(2)
O2_7 O 0.71719(14) 0.5859(3) 0.8273(2)
O5_7 O 0.70644(12) 0.7894(3) 0.75912(19)
O6_7 O 0.65030(12) 0.8191(3) 0.71870(19)
O9_7 O 0.60211(12) 0.6825(3) 0.79741(19)
O10_3 O 0.54518(14) 0.6910(3) 0.75283(19)
C1_7 C 0.68523(17) 0.5772(5) 0.8070(3)
C2_7 C 0.66968(18) 0.4797(4) 0.7962(3)
C3_7 C 0.6385(2) 0.4655(5) 0.7875(4)
H1_7 H 0.6253 0.5184 0.7856
C4_7 C 0.6244(2) 0.3750(5) 0.7811(4)
H2_7 H 0.6026 0.3674 0.7763
C5_7 C 0.6435(2) 0.2950(4) 0.7817(3)
C6_7 C 0.6749(2) 0.3088(4) 0.7896(4)
H3_7 H 0.6879 0.2560 0.7908
C7_7 C 0.68882(19) 0.3994(4) 0.7961(3)
H4_7 H 0.7105 0.4074 0.8003
C8_7 C 0.62748(18) 0.1981(5) 0.7746(3)
C9_7 C 0.6386(2) 0.1217(5) 0.7537(3)
H5_7 H 0.6567 0.1301 0.7462
C10_7 C 0.6222(2) 0.0314(4) 0.7443(3)
C11_7 C 0.59641(18) 0.0161(4) 0.7564(3)
C13_7 C 0.5865(2) 0.0899(5) 0.7802(4)
H7_7 H 0.5699 0.0803 0.7911
C14_7 C 0.6025(2) 0.1802(5) 0.7875(4)
H8_7 H 0.5952 0.2302 0.8022
C15_7 C 0.6780(2) 0.8221(4) 0.7195(3)
C16_7 C 0.67874(19) 0.8701(5) 0.6684(3)
C17_7 C 0.7078(2) 0.8735(6) 0.6646(3)
H9_7 H 0.7280 0.8458 0.6938
C18_7 C 0.7073(2) 0.9188(6) 0.6165(4)
H10_7 H 0.7273 0.9204 0.6141
C19_7 C 0.6782(2) 0.9607(5) 0.5730(3)
C20_7 C 0.6501(2) 0.9584(7) 0.5791(4)
H11_7 H 0.6303 0.9889 0.5509
C21_7 C 0.6493(2) 0.9124(6) 0.6256(3)
H12_7 H 0.6291 0.9104 0.6275
H16_5 H 0.6290 0.9812 0.4626
C29_7 C 0.79394(16) 0.7272(5) 0.8804(3)
H17_7 H 0.7915 0.6895 0.8492
C30_7 C 0.85777(18) 0.7293(7) 0.9363(3)
C31_7 C 0.88437(17) 0.7174(5) 0.9921(3)
C36_7 C 0.9232(3) 0.6825(12) 0.9563(4)
H22_7 H 0.9452 0.6692 0.9633
C37_7 C 0.8947(3) 0.6951(14) 0.8986(4)
H23_7 H 0.8977 0.6841 0.8664
C38_7 C 0.8637(2) 0.7223(12) 0.8891(4)
H24_7 H 0.8462 0.7364 0.8512
C39_7 C 0.8167(2) 0.8093(5) 0.9614(3)
H25_7 H 0.8323 0.8390 0.9963
C40_7 C 0.7827(2) 0.8124(5) 0.9367(3)
H26_7 H 0.7707 0.8449 0.9519
C41_7 C 0.57494(18) 0.6686(4) 0.7953(3)
C42_7 C 0.57351(18) 0.6211(4) 0.8465(3)
C43_7 C 0.5442(2) 0.6135(5) 0.8493(3)
H27_7 H 0.5237 0.6353 0.8179
C44_7 C 0.5439(2) 0.5745(5) 0.8971(3)
H28_7 H 0.5237 0.5729 0.8989
C45_7 C 0.5744(2) 0.5371(5) 0.9431(3)
C46_7 C 0.6038(2) 0.5420(5) 0.9410(3)
H29_7 H 0.6239 0.5172 0.9719
C47_7 C 0.60468(19) 0.5841(4) 0.8925(3)
H30_7 H 0.6250 0.5873 0.8911
C48_7 C 0.5736(2) 0.4937(6) 0.9954(3)
C49_7 C 0.5458(3) 0.4492(7) 0.9901(3)
H31_7 H 0.5259 0.4471 0.9535
O13_3 O 0.58539(11) 0.8563(3) 0.71673(17)
O4_7 O 0.55379(15) 0.9129(3) 0.7515(2)
H6_7 H 0.6293 0.9814 0.7294
C12_7 C 0.57798(17) 0.9243(4) 0.7419(3)
N3_8 N 0.44367(15) 0.1792(5) 0.0612(3)
H18_8 H 0.3808 0.2272 0.0238
C32_8 C 0.4153(2) 0.1918(7) 0.0016(3)
C33_8 C 0.47612(19) 0.2033(5) 0.0805(3)
H19_8 H 0.4840 0.2294 0.0567
C34_8 C 0.4738(2) 0.1480(5) 0.1548(4)
H20_8 H 0.4800 0.1289 0.1928
C35_8 C 0.4414(2) 0.1425(6) 0.1082(3)
H21_8 H 0.4218 0.1191 0.1079
H32_8 H 0.1228 0.0286 0.0573
N1_8 N 0.26783(13) 0.2604(4) 0.8850(2)
N2_8 N 0.32487(14) 0.2543(4) 0.9263(2)
O1_8 O 0.16726(12) 0.1507(3) 0.7996(2)
O2_8 O 0.21719(14) 0.0859(3) 0.8273(2)
O5_8 O 0.20644(12) 0.2894(3) 0.75912(19)
O6_8 O 0.15030(12) 0.3191(3) 0.71870(19)
O9_8 O 0.10211(12) 0.1825(3) 0.79741(19)
O10_4 O 0.04518(14) 0.1910(3) 0.75283(19)
C1_8 C 0.18523(17) 0.0772(5) 0.8070(3)
H1_8 H 0.1253 0.0184 0.7856
C15_8 C 0.1780(2) 0.3221(4) 0.7195(3)
C16_8 C 0.17874(19) 0.3701(5) 0.6684(3)
C17_8 C 0.2078(2) 0.3735(6) 0.6646(3)
H9_8 H 0.2280 0.3458 0.6938
C18_8 C 0.2073(2) 0.4188(6) 0.6165(4)
H10_8 H 0.2273 0.4204 0.6141
C19_8 C 0.1782(2) 0.4607(5) 0.5730(3)
C20_8 C 0.1501(2) 0.4584(7) 0.5791(4)
H11_8 H 0.1303 0.4889 0.5509
C21_8 C 0.1493(2) 0.4124(6) 0.6256(3)
H12_8 H 0.1291 0.4104 0.6275
C22_6 C 0.1790(2) 0.5101(5) 0.5224(3)
C23_6 C 0.2083(2) 0.5540(5) 0.5289(3)
H13_6 H 0.2285 0.5515 0.5650
C24_8 C 0.2079(2) 0.6022(5) 0.4817(3)
H14_8 H 0.2276 0.6328 0.4864
C25_8 C 0.17781(18) 0.6039(4) 0.4276(3)
C26_8 C 0.17691(19) 0.6573(4) 0.3768(3)
C27_8 C 0.1488(2) 0.5589(5) 0.4201(3)
H15_8 H 0.1289 0.5596 0.3835
C28_8 C 0.1488(2) 0.5113(5) 0.4676(3)
H16_6 H 0.1290 0.4812 0.4626
C29_8 C 0.29394(16) 0.2272(5) 0.8804(3)
H17_8 H 0.2915 0.1895 0.8492
C30_8 C 0.35777(18) 0.2293(7) 0.9363(3)
C31_8 C 0.38437(17) 0.2174(5) 0.9921(3)
C36_8 C 0.4232(3) 0.1825(12) 0.9563(4)
H22_8 H 0.4452 0.1692 0.9633
C37_8 C 0.3947(3) 0.1951(14) 0.8986(4)
H23_8 H 0.3977 0.1841 0.8664
C38_8 C 0.3637(2) 0.2223(12) 0.8891(4)
H24_8 H 0.3462 0.2364 0.8512
C39_8 C 0.3167(2) 0.3093(5) 0.9614(3)
H25_8 H 0.3323 0.3390 0.9963
C40_8 C 0.2827(2) 0.3124(5) 0.9367(3)
H26_8 H 0.2707 0.3449 0.9519
C41_8 C 0.07494(18) 0.1686(4) 0.7953(3)
C42_8 C 0.07351(18) 0.1211(4) 0.8465(3)
C43_8 C 0.0442(2) 0.1135(5) 0.8493(3)
H27_8 H 0.0237 0.1353 0.8179
C44_8 C 0.0439(2) 0.0745(5) 0.8971(3)
H28_8 H 0.0237 0.0729 0.8989
C45_8 C 0.0744(2) 0.0371(5) 0.9431(3)
C46_8 C 0.1038(2) 0.0420(5) 0.9410(3)
H29_8 H 0.1239 0.0172 0.9719
C47_8 C 0.10468(19) 0.0841(4) 0.8925(3)
H30_8 H 0.1250 0.0873 0.8911
O13_4 O 0.08539(11) 0.3563(3) 0.71673(17)
C50_8 C 0.1033(3) 0.9948(7) 0.0510(4)
C51_8 C 0.0758(2) 0.8470(5) 0.1415(4)
C52_8 C 0.0746(2) 0.8989(5) 0.0905(3)
C53_8 C 0.0458(2) 0.9059(7) 0.0383(4)
H33_8 H 0.0253 0.8814 0.0341
C54_8 C 0.1030(2) 0.9436(7) 0.0966(4)
H34_8 H 0.1232 0.9403 0.1327
O4_8 O 0.05379(15) 0.4129(3) 0.7515(2)
C2_8 C 0.16968(18) 0.9797(4) 0.7962(3)
C3_8 C 0.1385(2) 0.9655(5) 0.7875(4)
C4_8 C 0.1244(2) 0.8750(5) 0.7811(4)
H2_8 H 0.1026 0.8674 0.7763
C5_8 C 0.1435(2) 0.7950(4) 0.7817(3)
C6_8 C 0.1749(2) 0.8088(4) 0.7896(4)
H3_8 H 0.1879 0.7560 0.7908
C7_8 C 0.18882(19) 0.8994(4) 0.7961(3)
H4_8 H 0.2105 0.9074 0.8003
C8_8 C 0.12748(18) 0.6981(5) 0.7746(3)
C9_8 C 0.1386(2) 0.6217(5) 0.7537(3)
H5_8 H 0.1567 0.6301 0.7462
C10_8 C 0.1222(2) 0.5314(4) 0.7443(3)
H6_8 H 0.1293 0.4814 0.7294
C11_8 C 0.09641(18) 0.5161(4) 0.7564(3)
C12_8 C 0.07798(17) 0.4243(4) 0.7419(3)
C13_8 C 0.0865(2) 0.5899(5) 0.7802(4)
H7_8 H 0.0699 0.5803 0.7911
C14_8 C 0.1025(2) 0.6802(5) 0.7875(4)
H8_8 H 0.0952 0.7302 0.8022
C48_8 C 0.0736(2) 0.9937(6) 0.9954(3)
C49_8 C 0.0458(3) 0.9492(7) 0.9901(3)
H31_8 H 0.0259 0.9471 0.9535
H16_7 H 0.6290 0.0188 0.9626
C22_7 C 0.6790(2) 0.9899(5) 0.0224(3)
C23_7 C 0.7083(2) 0.9460(5) 0.0289(3)
H13_7 H 0.7285 0.9485 0.0650
C22_8 C 0.3210(2) 0.0101(5) 0.9776(3)
C23_8 C 0.2917(2) 0.0540(5) 0.9711(3)
H13_8 H 0.2715 0.0515 0.9350
H16_8 H 0.3710 0.9812 0.0374
loop_
_geom_bond_atom_site_label_1
_geom_bond_atom_site_label_2
_geom_bond_site_symmetry_1
_geom_bond_site_symmetry_2
Co3 O3 1_555 1_555
O3 C12 1_555 1_555
O4 Co3 1_555 1_555
C12 O4 1_555 1_555
Co4 O3 1_555 1_555
N5 Co3 1_555 1_555
O16 Co3 1_555 1_555
O18 Co3 1_555 1_555
Co4 O1 1_555 1_555
Co2 N1 1_555 1_555
N1 C29 1_555 1_555
N2 C29 1_555 1_555
O1 Co2 1_555 1_555
O2 Co2 1_555 1_555
O5 Co2 1_555 1_555
O6 Co4 1_555 1_555
O9 Co4 1_555 1_555
O16 C41 1_555 1_555
C1 O1 1_555 1_555
C2 C1 1_555 1_555
C3 C2 1_555 1_555
H1 C3 1_555 1_555
C4 C3 1_555 1_555
H2 C4 1_555 1_555
C5 C4 1_555 1_555
C6 C5 1_555 1_555
H3 C6 1_555 1_555
C7 C2 1_555 1_555
H4 C7 1_555 1_555
C8 C5 1_555 1_555
C9 C8 1_555 1_555
H5 C9 1_555 1_555
C10 C9 1_555 1_555
C11 C10 1_555 1_555
C13 C11 1_555 1_555
H7 C13 1_555 1_555
C14 C8 1_555 1_555
H8 C14 1_555 1_555
C15 O5 1_555 1_555
C16 C15 1_555 1_555
C17 C16 1_555 1_555
H9 C17 1_555 1_555
C18 C17 1_555 1_555
H10 C18 1_555 1_555
C19 C18 1_555 1_555
C20 C19 1_555 1_555
H11 C20 1_555 1_555
C21 C16 1_555 1_555
H12 C21 1_555 1_555
C29 H17 1_555 1_555
C30 N2 1_555 1_555
C31 C30 1_555 1_555
H22 C36 1_555 1_555
C37 C36 1_555 1_555
H23 C37 1_555 1_555
C38 C30 1_555 1_555
H24 C38 1_555 1_555
C39 N2 1_555 1_555
H25 C39 1_555 1_555
C40 N1 1_555 1_555
H26 C40 1_555 1_555
C41 O9 1_555 1_555
C42 C41 1_555 1_555
C43 C42 1_555 1_555
H27 C43 1_555 1_555
C44 C43 1_555 1_555
H28 C44 1_555 1_555
C45 C44 1_555 1_555
C46 C45 1_555 1_555
H29 C46 1_555 1_555
C47 C42 1_555 1_555
H30 C47 1_555 1_555
C48 C45 1_555 1_555
C49 C48 1_555 1_555
H31 C49 1_555 1_555
O14 Co4 1_555 1_555
O15 Co2 1_555 1_555
O17 Co4 1_555 1_555
O2 C1 1_555 1_555
O6 C15 1_555 1_555
C6 C7 1_555 1_555
C13 C14 1_555 1_555
C20 C21 1_555 1_555
C37 C38 1_555 1_555
C39 C40 1_555 1_555
C46 C47 1_555 1_555
N3 C32 1_555 1_555
N4 C33 1_555 1_555
O11 C51 1_555 1_555
O12 C51 1_555 1_555
C33 N3 1_555 1_555
H19 C33 1_555 1_555
C34 N4 1_555 1_555
H20 C34 1_555 1_555
C35 N3 1_555 1_555
H21 C35 1_555 1_555
H32 C50 1_555 1_555
C51 C52 1_555 1_555
C52 C53 1_555 1_555
H33 C53 1_555 1_555
C54 C50 1_555 1_555
H34 C54 1_555 1_555
Co6 O11 1_555 1_555
Co10 O12 1_555 1_555
C34 C35 1_555 1_555
C52 C54 1_555 1_555
O7 C26 1_555 1_555
O8 C26 1_555 1_555
C23 C22 1_555 1_555
H13 C23 1_555 1_555
C24 C23 1_555 1_555
H14 C24 1_555 1_555
C25 C24 1_555 1_555
C26 C25 1_555 1_555
C27 C25 1_555 1_555
H15 C27 1_555 1_555
C28 C22 1_555 1_555
Co6 O7 1_555 1_555
Co7 O8 1_555 1_555
C27 C28 1_555 1_555
Co3_2 O3_2 1_555 1_555
O3_2 C12_2 1_555 1_555
O4_2 Co3_2 1_555 1_555
C3_2 C2_2 1_555 1_555
C4_2 C3_2 1_555 1_555
H2_2 C4_2 1_555 1_555
C5_2 C4_2 1_555 1_555
C6_2 C5_2 1_555 1_555
H3_2 C6_2 1_555 1_555
C7_2 C2_2 1_555 1_555
H4_2 C7_2 1_555 1_555
C8_2 C5_2 1_555 1_555
C9_2 C8_2 1_555 1_555
H5_2 C9_2 1_555 1_555
C10_2 C9_2 1_555 1_555
H6_2 C10_2 1_555 1_555
C11_2 C10_2 1_555 1_555
C12_2 O4_2 1_555 1_555
C13_2 C11_2 1_555 1_555
H7_2 C13_2 1_555 1_555
C14_2 C8_2 1_555 1_555
H8_2 C14_2 1_555 1_555
C49_2 C48_2 1_555 1_555
H31_2 C49_2 1_555 1_555
Co4_2 O3_2 1_555 1_555
O16_2 Co3_2 1_555 1_555
O18_2 Co3_2 1_555 1_555
C6_2 C7_2 1_555 1_555
C11_2 C12_2 1_555 1_555
C13_2 C14_2 1_555 1_555
O11_2 C51_2 1_555 1_555
O12_2 C51_2 1_555 1_555
C51_2 C52_2 1_555 1_555
C52_2 C53_2 1_555 1_555
H33_2 C53_2 1_555 1_555
C54_2 C50_2 1_555 1_555
H34_2 C54_2 1_555 1_555
Co6_2 O11_2 1_555 1_555
Co8 O12_2 1_555 1_555
C52_2 C54_2 1_555 1_555
Co4_2 O1_2 1_555 1_555
Co2_2 N1_2 1_555 1_555
N1_2 C29_2 1_555 1_555
N2_2 C29_2 1_555 1_555
O1_2 Co2_2 1_555 1_555
O2_2 Co2_2 1_555 1_555
O5_2 Co2_2 1_555 1_555
O6_2 Co4_2 1_555 1_555
O7_2 C26_2 1_555 1_555
O8_2 C26_2 1_555 1_555
O9_2 Co4_2 1_555 1_555
O16_2 C41_2 1_555 1_555
C1_2 O1_2 1_555 1_555
C15_2 O5_2 1_555 1_555
C16_2 C15_2 1_555 1_555
C17_2 C16_2 1_555 1_555
H9_2 C17_2 1_555 1_555
C18_2 C17_2 1_555 1_555
H10_2 C18_2 1_555 1_555
C19_2 C18_2 1_555 1_555
C20_2 C19_2 1_555 1_555
H11_2 C20_2 1_555 1_555
C21_2 C16_2 1_555 1_555
H12_2 C21_2 1_555 1_555
C22_2 C19_2 1_555 1_555
C23_2 C22_2 1_555 1_555
H13_2 C23_2 1_555 1_555
C24_2 C23_2 1_555 1_555
H14_2 C24_2 1_555 1_555
C25_2 C24_2 1_555 1_555
C26_2 C25_2 1_555 1_555
C27_2 C25_2 1_555 1_555
H15_2 C27_2 1_555 1_555
C28_2 C22_2 1_555 1_555
H16_2 C28_2 1_555 1_555
C29_2 H17_2 1_555 1_555
C30_2 N2_2 1_555 1_555
C31_2 C30_2 1_555 1_555
H22_2 C36_2 1_555 1_555
C37_2 C36_2 1_555 1_555
H23_2 C37_2 1_555 1_555
C38_2 C30_2 1_555 1_555
H24_2 C38_2 1_555 1_555
C39_2 N2_2 1_555 1_555
H25_2 C39_2 1_555 1_555
C40_2 N1_2 1_555 1_555
H26_2 C40_2 1_555 1_555
C41_2 O9_2 1_555 1_555
C42_2 C41_2 1_555 1_555
C43_2 C42_2 1_555 1_555
H27_2 C43_2 1_555 1_555
C44_2 C43_2 1_555 1_555
H28_2 C44_2 1_555 1_555
C45_2 C44_2 1_555 1_555
C46_2 C45_2 1_555 1_555
H29_2 C46_2 1_555 1_555
C47_2 C42_2 1_555 1_555
H30_2 C47_2 1_555 1_555
Co6_2 O7_2 1_555 1_555
Co7_2 O8_2 1_555 1_555
O14_2 Co4_2 1_555 1_555
O15_2 Co2_2 1_555 1_555
O17_2 Co4_2 1_555 1_555
O2_2 C1_2 1_555 1_555
O6_2 C15_2 1_555 1_555
C20_2 C21_2 1_555 1_555
C27_2 C28_2 1_555 1_555
C37_2 C38_2 1_555 1_555
C39_2 C40_2 1_555 1_555
C46_2 C47_2 1_555 1_555
N3_2 C32_2 1_555 1_555
N4_2 C33_2 1_555 1_555
C33_2 N3_2 1_555 1_555
H19_2 C33_2 1_555 1_555
C34_2 N4_2 1_555 1_555
H20_2 C34_2 1_555 1_555
C35_2 N3_2 1_555 1_555
H21_2 C35_2 1_555 1_555
Co10 N4_2 1_555 1_555
C34_2 C35_2 1_555 1_555
O14 C26_3 1_555 1_555
O15 C26_3 1_555 1_555
H14_3 C24_3 1_555 1_555
C25_3 C24_3 1_555 1_555
C26_3 C25_3 1_555 1_555
C27_3 C25_3 1_555 1_555
H15_3 C27_3 1_555 1_555
C27_3 C28_3 1_555 1_555
Co6 O1_3 1_555 1_555
Co7 N1_3 1_555 1_555
N1_3 C29_3 1_555 1_555
N2_3 C29_3 1_555 1_555
N3_3 C32_3 1_555 1_555
N5_2 C33_3 1_555 1_555
O1_3 Co7 1_555 1_555
O2_3 Co7 1_555 1_555
O5_3 Co7 1_555 1_555
O6_3 Co6 1_555 1_555
O9_3 Co6 1_555 1_555
O10 C41_3 1_555 1_555
O17 C51_3 1_555 1_555
O18 C51_3 1_555 1_555
C1_3 O1_3 1_555 1_555
C2_3 C1_3 1_555 1_555
C3_3 C2_3 1_555 1_555
H1_3 C3_3 1_555 1_555
C4_3 C3_3 1_555 1_555
H2_3 C4_3 1_555 1_555
C5_3 C4_3 1_555 1_555
C6_3 C5_3 1_555 1_555
H3_3 C6_3 1_555 1_555
C7_3 C2_3 1_555 1_555
H4_3 C7_3 1_555 1_555
C8_3 C5_3 1_555 1_555
C9_3 C8_3 1_555 1_555
H5_3 C9_3 1_555 1_555
C10_3 C9_3 1_555 1_555
C11_3 C10_3 1_555 1_555
C13_3 C11_3 1_555 1_555
H7_3 C13_3 1_555 1_555
C14_3 C8_3 1_555 1_555
H8_3 C14_3 1_555 1_555
C15_3 O5_3 1_555 1_555
C16_3 C15_3 1_555 1_555
C17_3 C16_3 1_555 1_555
H9_3 C17_3 1_555 1_555
C18_3 C17_3 1_555 1_555
H10_3 C18_3 1_555 1_555
C19_3 C18_3 1_555 1_555
C20_3 C19_3 1_555 1_555
H11_3 C20_3 1_555 1_555
C21_3 C16_3 1_555 1_555
H12_3 C21_3 1_555 1_555
C29_3 H17_3 1_555 1_555
C30_3 N2_3 1_555 1_555
C31_3 C30_3 1_555 1_555
H18_3 C31_3 1_555 1_555
C32_3 C31_3 1_555 1_555
C33_3 N3_3 1_555 1_555
H19_3 C33_3 1_555 1_555
C34_3 N5_2 1_555 1_555
H20_3 C34_3 1_555 1_555
C35_3 N3_3 1_555 1_555
H21_3 C35_3 1_555 1_555
C36_3 C32_3 1_555 1_555
H22_3 C36_3 1_555 1_555
C37_3 C36_3 1_555 1_555
H23_3 C37_3 1_555 1_555
C38_3 C30_3 1_555 1_555
H24_3 C38_3 1_555 1_555
C39_3 N2_3 1_555 1_555
H25_3 C39_3 1_555 1_555
C40_3 N1_3 1_555 1_555
H26_3 C40_3 1_555 1_555
C41_3 O9_3 1_555 1_555
C42_3 C41_3 1_555 1_555
C43_3 C42_3 1_555 1_555
H27_3 C43_3 1_555 1_555
C44_3 C43_3 1_555 1_555
H28_3 C44_3 1_555 1_555
C45_3 C44_3 1_555 1_555
C46_3 C45_3 1_555 1_555
H29_3 C46_3 1_555 1_555
C47_3 C42_3 1_555 1_555
H30_3 C47_3 1_555 1_555
C48_3 C45_3 1_555 1_555
C49_3 C48_3 1_555 1_555
H31_3 C49_3 1_555 1_555
C50_3 C48_3 1_555 1_555
H32_3 C50_3 1_555 1_555
C51_3 C52_3 1_555 1_555
C52_3 C53_3 1_555 1_555
C53_3 C49_3 1_555 1_555
H33_3 C53_3 1_555 1_555
C54_3 C50_3 1_555 1_555
H34_3 C54_3 1_555 1_555
Co10 O10 1_555 1_555
O13 Co6 1_555 1_555
O2_3 C1_3 1_555 1_555
O6_3 C15_3 1_555 1_555
C6_3 C7_3 1_555 1_555
C13_3 C14_3 1_555 1_555
C20_3 C21_3 1_555 1_555
C34_3 C35_3 1_555 1_555
C37_3 C38_3 1_555 1_555
C39_3 C40_3 1_555 1_555
C46_3 C47_3 1_555 1_555
C52_3 C54_3 1_555 1_555
Co10 O13 1_555 1_555
O13 C12_3 1_555 1_555
O4_3 Co10 1_555 1_555
C12_3 O4_3 1_555 1_555
O14_2 C26_4 1_555 1_555
O15_2 C26_4 1_555 1_555
H14_4 C24_4 1_555 1_555
C25_4 C24_4 1_555 1_555
C26_4 C25_4 1_555 1_555
C27_4 C25_4 1_555 1_555
H15_4 C27_4 1_555 1_555
H16_3 C28_4 1_555 1_555
C27_4 C28_4 1_555 1_555
Co6_2 O1_4 1_555 1_555
Co7_2 N1_4 1_555 1_555
N1_4 C29_4 1_555 1_555
N2_4 C29_4 1_555 1_555
N3_4 C32_4 1_555 1_555
N5 C33_4 1_555 1_555
O1_4 Co7_2 1_555 1_555
O2_4 Co7_2 1_555 1_555
O5_4 Co7_2 1_555 1_555
O6_4 Co6_2 1_555 1_555
O9_4 Co6_2 1_555 1_555
O10_2 C41_4 1_555 1_555
C1_4 O1_4 1_555 1_555
C15_4 O5_4 1_555 1_555
C16_4 C15_4 1_555 1_555
C17_4 C16_4 1_555 1_555
H9_4 C17_4 1_555 1_555
C18_4 C17_4 1_555 1_555
H10_4 C18_4 1_555 1_555
C19_4 C18_4 1_555 1_555
C20_4 C19_4 1_555 1_555
H11_4 C20_4 1_555 1_555
C21_4 C16_4 1_555 1_555
H12_4 C21_4 1_555 1_555
C22_3 C19_4 1_555 1_555
C23_3 C22_3 1_555 1_555
H13_3 C23_3 1_555 1_555
C29_4 H17_4 1_555 1_555
C30_4 N2_4 1_555 1_555
C31_4 C30_4 1_555 1_555
H18_4 C31_4 1_555 1_555
C32_4 C31_4 1_555 1_555
C33_4 N3_4 1_555 1_555
H19_4 C33_4 1_555 1_555
C34_4 N5 1_555 1_555
H20_4 C34_4 1_555 1_555
C35_4 N3_4 1_555 1_555
H21_4 C35_4 1_555 1_555
C36_4 C32_4 1_555 1_555
H22_4 C36_4 1_555 1_555
C37_4 C36_4 1_555 1_555
H23_4 C37_4 1_555 1_555
C38_4 C30_4 1_555 1_555
H24_4 C38_4 1_555 1_555
C39_4 N2_4 1_555 1_555
H25_4 C39_4 1_555 1_555
C40_4 N1_4 1_555 1_555
H26_4 C40_4 1_555 1_555
C41_4 O9_4 1_555 1_555
C42_4 C41_4 1_555 1_555
C43_4 C42_4 1_555 1_555
H27_4 C43_4 1_555 1_555
C44_4 C43_4 1_555 1_555
H28_4 C44_4 1_555 1_555
C45_4 C44_4 1_555 1_555
C46_4 C45_4 1_555 1_555
H29_4 C46_4 1_555 1_555
C47_4 C42_4 1_555 1_555
H30_4 C47_4 1_555 1_555
Co8 O10_2 1_555 1_555
O13_2 Co6_2 1_555 1_555
O2_4 C1_4 1_555 1_555
O6_4 C15_4 1_555 1_555
C20_4 C21_4 1_555 1_555
C34_4 C35_4 1_555 1_555
C37_4 C38_4 1_555 1_555
C39_4 C40_4 1_555 1_555
C46_4 C47_4 1_555 1_555
Co8 O13_2 1_555 1_555
O13_2 C12_4 1_555 1_555
O4_4 Co8 1_555 1_555
O17_2 C51_4 1_555 1_555
O18_2 C51_4 1_555 1_555
C3_4 C2_4 1_555 1_555
C4_4 C3_4 1_555 1_555
H2_4 C4_4 1_555 1_555
C5_4 C4_4 1_555 1_555
C6_4 C5_4 1_555 1_555
H3_4 C6_4 1_555 1_555
C7_4 C2_4 1_555 1_555
H4_4 C7_4 1_555 1_555
C8_4 C5_4 1_555 1_555
C9_4 C8_4 1_555 1_555
H5_4 C9_4 1_555 1_555
C10_4 C9_4 1_555 1_555
H6_4 C10_4 1_555 1_555
C11_4 C10_4 1_555 1_555
C12_4 O4_4 1_555 1_555
C13_4 C11_4 1_555 1_555
H7_4 C13_4 1_555 1_555
C14_4 C8_4 1_555 1_555
H8_4 C14_4 1_555 1_555
C49_4 C48_4 1_555 1_555
H31_4 C49_4 1_555 1_555
C50_4 C48_4 1_555 1_555
C51_4 C52_4 1_555 1_555
C52_4 C53_4 1_555 1_555
C53_4 C49_4 1_555 1_555
H33_4 C53_4 1_555 1_555
C54_4 C50_4 1_555 1_555
H34_4 C54_4 1_555 1_555
C6_4 C7_4 1_555 1_555
C11_4 C12_4 1_555 1_555
C13_4 C14_4 1_555 1_555
C52_4 C54_4 1_555 1_555
Co3_3 O3_3 1_555 1_555
O3_3 C12_5 1_555 1_555
O4_5 Co3_3 1_555 1_555
C12_5 O4_5 1_555 1_555
Co4_3 O3_3 1_555 1_555
N5_3 Co3_3 1_555 1_555
O16_3 Co3_3 1_555 1_555
O18_3 Co3_3 1_555 1_555
Co4_3 O1_5 1_555 1_555
Co2_3 N1_5 1_555 1_555
N1_5 C29_5 1_555 1_555
N2_5 C29_5 1_555 1_555
N3_5 C32_5 1_555 1_555
N4_3 C33_5 1_555 1_555
O1_5 Co2_3 1_555 1_555
O2_5 Co2_3 1_555 1_555
O5_5 Co2_3 1_555 1_555
O6_5 Co4_3 1_555 1_555
O9_5 Co4_3 1_555 1_555
O16_3 C41_5 1_555 1_555
O11_3 C51_5 1_555 1_555
O12_3 C51_5 1_555 1_555
C1_5 O1_5 1_555 1_555
C2_5 C1_5 1_555 1_555
C3_5 C2_5 1_555 1_555
H1_5 C3_5 1_555 1_555
C4_5 C3_5 1_555 1_555
H2_5 C4_5 1_555 1_555
C5_5 C4_5 1_555 1_555
C6_5 C5_5 1_555 1_555
H3_5 C6_5 1_555 1_555
C7_5 C2_5 1_555 1_555
H4_5 C7_5 1_555 1_555
C8_5 C5_5 1_555 1_555
C9_5 C8_5 1_555 1_555
H5_5 C9_5 1_555 1_555
C10_5 C9_5 1_555 1_555
C11_5 C10_5 1_555 1_555
C13_5 C11_5 1_555 1_555
H7_5 C13_5 1_555 1_555
C14_5 C8_5 1_555 1_555
H8_5 C14_5 1_555 1_555
C15_5 O5_5 1_555 1_555
C16_5 C15_5 1_555 1_555
C17_5 C16_5 1_555 1_555
H9_5 C17_5 1_555 1_555
C18_5 C17_5 1_555 1_555
H10_5 C18_5 1_555 1_555
C19_5 C18_5 1_555 1_555
C20_5 C19_5 1_555 1_555
H11_5 C20_5 1_555 1_555
C21_5 C16_5 1_555 1_555
H12_5 C21_5 1_555 1_555
C29_5 H17_5 1_555 1_555
C30_5 N2_5 1_555 1_555
C31_5 C30_5 1_555 1_555
H18_5 C31_5 1_555 1_555
C32_5 C31_5 1_555 1_555
C33_5 N3_5 1_555 1_555
H19_5 C33_5 1_555 1_555
C34_5 N4_3 1_555 1_555
H20_5 C34_5 1_555 1_555
C35_5 N3_5 1_555 1_555
H21_5 C35_5 1_555 1_555
C36_5 C32_5 1_555 1_555
H22_5 C36_5 1_555 1_555
C37_5 C36_5 1_555 1_555
H23_5 C37_5 1_555 1_555
C38_5 C30_5 1_555 1_555
H24_5 C38_5 1_555 1_555
C39_5 N2_5 1_555 1_555
H25_5 C39_5 1_555 1_555
C40_5 N1_5 1_555 1_555
H26_5 C40_5 1_555 1_555
C41_5 O9_5 1_555 1_555
C42_5 C41_5 1_555 1_555
C43_5 C42_5 1_555 1_555
H27_5 C43_5 1_555 1_555
C44_5 C43_5 1_555 1_555
H28_5 C44_5 1_555 1_555
C45_5 C44_5 1_555 1_555
C46_5 C45_5 1_555 1_555
H29_5 C46_5 1_555 1_555
C47_5 C42_5 1_555 1_555
H30_5 C47_5 1_555 1_555
C48_5 C45_5 1_555 1_555
C49_5 C48_5 1_555 1_555
H31_5 C49_5 1_555 1_555
C50_5 C48_5 1_555 1_555
H32_5 C50_5 1_555 1_555
C51_5 C52_5 1_555 1_555
C52_5 C53_5 1_555 1_555
C53_5 C49_5 1_555 1_555
H33_5 C53_5 1_555 1_555
C54_5 C50_5 1_555 1_555
H34_5 C54_5 1_555 1_555
Co6_3 O11_3 1_555 1_555
Co10_2 O12_3 1_555 1_555
O14_3 Co4_3 1_555 1_555
O15_3 Co2_3 1_555 1_555
O17_3 Co4_3 1_555 1_555
O2_5 C1_5 1_555 1_555
O6_5 C15_5 1_555 1_555
C6_5 C7_5 1_555 1_555
C13_5 C14_5 1_555 1_555
C20_5 C21_5 1_555 1_555
C34_5 C35_5 1_555 1_555
C37_5 C38_5 1_555 1_555
C39_5 C40_5 1_555 1_555
C46_5 C47_5 1_555 1_555
C52_5 C54_5 1_555 1_555
O7_3 C26_5 1_555 1_555
O8_3 C26_5 1_555 1_555
H14_5 C24_5 1_555 1_555
C25_5 C24_5 1_555 1_555
C26_5 C25_5 1_555 1_555
C27_5 C25_5 1_555 1_555
H15_5 C27_5 1_555 1_555
Co6_3 O7_3 1_555 1_555
Co7_3 O8_3 1_555 1_555
C27_5 C28_5 1_555 1_555
Co3_4 O3_4 1_555 1_555
O3_4 C12_6 1_555 1_555
O4_6 Co3_4 1_555 1_555
O11_4 C51_6 1_555 1_555
O12_4 C51_6 1_555 1_555
C3_6 C2_6 1_555 1_555
C4_6 C3_6 1_555 1_555
H2_6 C4_6 1_555 1_555
C5_6 C4_6 1_555 1_555
C6_6 C5_6 1_555 1_555
H3_6 C6_6 1_555 1_555
C7_6 C2_6 1_555 1_555
H4_6 C7_6 1_555 1_555
C8_6 C5_6 1_555 1_555
C9_6 C8_6 1_555 1_555
H5_6 C9_6 1_555 1_555
C10_6 C9_6 1_555 1_555
H6_6 C10_6 1_555 1_555
C11_6 C10_6 1_555 1_555
C12_6 O4_6 1_555 1_555
C13_6 C11_6 1_555 1_555
H7_6 C13_6 1_555 1_555
C14_6 C8_6 1_555 1_555
H8_6 C14_6 1_555 1_555
C49_6 C48_6 1_555 1_555
H31_6 C49_6 1_555 1_555
C50_6 C48_6 1_555 1_555
C51_6 C52_6 1_555 1_555
C52_6 C53_6 1_555 1_555
C53_6 C49_6 1_555 1_555
H33_6 C53_6 1_555 1_555
C54_6 C50_6 1_555 1_555
H34_6 C54_6 1_555 1_555
Co4_4 O3_4 1_555 1_555
Co6_4 O11_4 1_555 1_555
Co8_2 O12_4 1_555 1_555
O16_4 Co3_4 1_555 1_555
O18_4 Co3_4 1_555 1_555
C6_6 C7_6 1_555 1_555
C11_6 C12_6 1_555 1_555
C13_6 C14_6 1_555 1_555
C52_6 C54_6 1_555 1_555
Co4_4 O1_6 1_555 1_555
Co2_4 N1_6 1_555 1_555
N1_6 C29_6 1_555 1_555
N2_6 C29_6 1_555 1_555
N3_6 C32_6 1_555 1_555
N4_4 C33_6 1_555 1_555
O1_6 Co2_4 1_555 1_555
O2_6 Co2_4 1_555 1_555
O5_6 Co2_4 1_555 1_555
O6_6 Co4_4 1_555 1_555
O9_6 Co4_4 1_555 1_555
O16_4 C41_6 1_555 1_555
C1_6 O1_6 1_555 1_555
C15_6 O5_6 1_555 1_555
C16_6 C15_6 1_555 1_555
C17_6 C16_6 1_555 1_555
H9_6 C17_6 1_555 1_555
C18_6 C17_6 1_555 1_555
H10_6 C18_6 1_555 1_555
C19_6 C18_6 1_555 1_555
C20_6 C19_6 1_555 1_555
H11_6 C20_6 1_555 1_555
C21_6 C16_6 1_555 1_555
H12_6 C21_6 1_555 1_555
C22_4 C19_6 1_555 1_555
C23_4 C22_4 1_555 1_555
H13_4 C23_4 1_555 1_555
C29_6 H17_6 1_555 1_555
C30_6 N2_6 1_555 1_555
C31_6 C30_6 1_555 1_555
H18_6 C31_6 1_555 1_555
C32_6 C31_6 1_555 1_555
C33_6 N3_6 1_555 1_555
H19_6 C33_6 1_555 1_555
C34_6 N4_4 1_555 1_555
H20_6 C34_6 1_555 1_555
C35_6 N3_6 1_555 1_555
H21_6 C35_6 1_555 1_555
C36_6 C32_6 1_555 1_555
H22_6 C36_6 1_555 1_555
C37_6 C36_6 1_555 1_555
H23_6 C37_6 1_555 1_555
C38_6 C30_6 1_555 1_555
H24_6 C38_6 1_555 1_555
C39_6 N2_6 1_555 1_555
H25_6 C39_6 1_555 1_555
C40_6 N1_6 1_555 1_555
H26_6 C40_6 1_555 1_555
C41_6 O9_6 1_555 1_555
C42_6 C41_6 1_555 1_555
C43_6 C42_6 1_555 1_555
H27_6 C43_6 1_555 1_555
C44_6 C43_6 1_555 1_555
H28_6 C44_6 1_555 1_555
C45_6 C44_6 1_555 1_555
C46_6 C45_6 1_555 1_555
H29_6 C46_6 1_555 1_555
C47_6 C42_6 1_555 1_555
H30_6 C47_6 1_555 1_555
Co10_2 N4_4 1_555 1_555
O14_4 Co4_4 1_555 1_555
O15_4 Co2_4 1_555 1_555
O17_4 Co4_4 1_555 1_555
O2_6 C1_6 1_555 1_555
O6_6 C15_6 1_555 1_555
C20_6 C21_6 1_555 1_555
C34_6 C35_6 1_555 1_555
C37_6 C38_6 1_555 1_555
C39_6 C40_6 1_555 1_555
C46_6 C47_6 1_555 1_555
O7_4 C26_6 1_555 1_555
O8_4 C26_6 1_555 1_555
H14_6 C24_6 1_555 1_555
C25_6 C24_6 1_555 1_555
C26_6 C25_6 1_555 1_555
C27_6 C25_6 1_555 1_555
H15_6 C27_6 1_555 1_555
H16_4 C28_6 1_555 1_555
Co6_4 O7_4 1_555 1_555
Co7_4 O8_4 1_555 1_555
C27_6 C28_6 1_555 1_555
O14_3 C26_7 1_555 1_555
O15_3 C26_7 1_555 1_555
C23_5 C22_5 1_555 1_555
H13_5 C23_5 1_555 1_555
C24_7 C23_5 1_555 1_555
H14_7 C24_7 1_555 1_555
C25_7 C24_7 1_555 1_555
C26_7 C25_7 1_555 1_555
C27_7 C25_7 1_555 1_555
H15_7 C27_7 1_555 1_555
C28_7 C22_5 1_555 1_555
C27_7 C28_7 1_555 1_555
N3_7 C32_7 1_555 1_555
N5_4 C33_7 1_555 1_555
O17_3 C51_7 1_555 1_555
O18_3 C51_7 1_555 1_555
C33_7 N3_7 1_555 1_555
H19_7 C33_7 1_555 1_555
C34_7 N5_4 1_555 1_555
H20_7 C34_7 1_555 1_555
C35_7 N3_7 1_555 1_555
H21_7 C35_7 1_555 1_555
H32_7 C50_7 1_555 1_555
C51_7 C52_7 1_555 1_555
C52_7 C53_7 1_555 1_555
H33_7 C53_7 1_555 1_555
C54_7 C50_7 1_555 1_555
H34_7 C54_7 1_555 1_555
C34_7 C35_7 1_555 1_555
C52_7 C54_7 1_555 1_555
Co6_3 O1_7 1_555 1_555
Co7_3 N1_7 1_555 1_555
N1_7 C29_7 1_555 1_555
N2_7 C29_7 1_555 1_555
O1_7 Co7_3 1_555 1_555
O2_7 Co7_3 1_555 1_555
O5_7 Co7_3 1_555 1_555
O6_7 Co6_3 1_555 1_555
O9_7 Co6_3 1_555 1_555
O10_3 C41_7 1_555 1_555
C1_7 O1_7 1_555 1_555
C2_7 C1_7 1_555 1_555
C3_7 C2_7 1_555 1_555
H1_7 C3_7 1_555 1_555
C4_7 C3_7 1_555 1_555
H2_7 C4_7 1_555 1_555
C5_7 C4_7 1_555 1_555
C6_7 C5_7 1_555 1_555
H3_7 C6_7 1_555 1_555
C7_7 C2_7 1_555 1_555
H4_7 C7_7 1_555 1_555
C8_7 C5_7 1_555 1_555
C9_7 C8_7 1_555 1_555
H5_7 C9_7 1_555 1_555
C10_7 C9_7 1_555 1_555
C11_7 C10_7 1_555 1_555
C13_7 C11_7 1_555 1_555
H7_7 C13_7 1_555 1_555
C14_7 C8_7 1_555 1_555
H8_7 C14_7 1_555 1_555
C15_7 O5_7 1_555 1_555
C16_7 C15_7 1_555 1_555
C17_7 C16_7 1_555 1_555
H9_7 C17_7 1_555 1_555
C18_7 C17_7 1_555 1_555
H10_7 C18_7 1_555 1_555
C19_7 C18_7 1_555 1_555
C20_7 C19_7 1_555 1_555
H11_7 C20_7 1_555 1_555
C21_7 C16_7 1_555 1_555
H12_7 C21_7 1_555 1_555
C29_7 H17_7 1_555 1_555
C30_7 N2_7 1_555 1_555
C31_7 C30_7 1_555 1_555
H22_7 C36_7 1_555 1_555
C37_7 C36_7 1_555 1_555
H23_7 C37_7 1_555 1_555
C38_7 C30_7 1_555 1_555
H24_7 C38_7 1_555 1_555
C39_7 N2_7 1_555 1_555
H25_7 C39_7 1_555 1_555
C40_7 N1_7 1_555 1_555
H26_7 C40_7 1_555 1_555
C41_7 O9_7 1_555 1_555
C42_7 C41_7 1_555 1_555
C43_7 C42_7 1_555 1_555
H27_7 C43_7 1_555 1_555
C44_7 C43_7 1_555 1_555
H28_7 C44_7 1_555 1_555
C45_7 C44_7 1_555 1_555
C46_7 C45_7 1_555 1_555
H29_7 C46_7 1_555 1_555
C47_7 C42_7 1_555 1_555
H30_7 C47_7 1_555 1_555
C48_7 C45_7 1_555 1_555
C49_7 C48_7 1_555 1_555
H31_7 C49_7 1_555 1_555
Co10_2 O10_3 1_555 1_555
O13_3 Co6_3 1_555 1_555
O2_7 C1_7 1_555 1_555
O6_7 C15_7 1_555 1_555
C6_7 C7_7 1_555 1_555
C13_7 C14_7 1_555 1_555
C20_7 C21_7 1_555 1_555
C37_7 C38_7 1_555 1_555
C39_7 C40_7 1_555 1_555
C46_7 C47_7 1_555 1_555
Co10_2 O13_3 1_555 1_555
O13_3 C12_7 1_555 1_555
O4_7 Co10_2 1_555 1_555
C12_7 O4_7 1_555 1_555
N3_8 C32_8 1_555 1_555
N5_3 C33_8 1_555 1_555
C33_8 N3_8 1_555 1_555
H19_8 C33_8 1_555 1_555
C34_8 N5_3 1_555 1_555
H20_8 C34_8 1_555 1_555
C35_8 N3_8 1_555 1_555
H21_8 C35_8 1_555 1_555
C34_8 C35_8 1_555 1_555
Co6_4 O1_8 1_555 1_555
Co7_4 N1_8 1_555 1_555
N1_8 C29_8 1_555 1_555
N2_8 C29_8 1_555 1_555
O1_8 Co7_4 1_555 1_555
O2_8 Co7_4 1_555 1_555
O5_8 Co7_4 1_555 1_555
O6_8 Co6_4 1_555 1_555
O14_4 C26_8 1_555 1_555
O15_4 C26_8 1_555 1_555
O9_8 Co6_4 1_555 1_555
O10_4 C41_8 1_555 1_555
C1_8 O1_8 1_555 1_555
C15_8 O5_8 1_555 1_555
C16_8 C15_8 1_555 1_555
C17_8 C16_8 1_555 1_555
H9_8 C17_8 1_555 1_555
C18_8 C17_8 1_555 1_555
H10_8 C18_8 1_555 1_555
C19_8 C18_8 1_555 1_555
C20_8 C19_8 1_555 1_555
H11_8 C20_8 1_555 1_555
C21_8 C16_8 1_555 1_555
H12_8 C21_8 1_555 1_555
C22_6 C19_8 1_555 1_555
C23_6 C22_6 1_555 1_555
H13_6 C23_6 1_555 1_555
C24_8 C23_6 1_555 1_555
H14_8 C24_8 1_555 1_555
C25_8 C24_8 1_555 1_555
C26_8 C25_8 1_555 1_555
C27_8 C25_8 1_555 1_555
H15_8 C27_8 1_555 1_555
C28_8 C22_6 1_555 1_555
H16_6 C28_8 1_555 1_555
C29_8 H17_8 1_555 1_555
C30_8 N2_8 1_555 1_555
C31_8 C30_8 1_555 1_555
H22_8 C36_8 1_555 1_555
C37_8 C36_8 1_555 1_555
H23_8 C37_8 1_555 1_555
C38_8 C30_8 1_555 1_555
H24_8 C38_8 1_555 1_555
C39_8 N2_8 1_555 1_555
H25_8 C39_8 1_555 1_555
C40_8 N1_8 1_555 1_555
H26_8 C40_8 1_555 1_555
C41_8 O9_8 1_555 1_555
C42_8 C41_8 1_555 1_555
C43_8 C42_8 1_555 1_555
H27_8 C43_8 1_555 1_555
C44_8 C43_8 1_555 1_555
H28_8 C44_8 1_555 1_555
C45_8 C44_8 1_555 1_555
C46_8 C45_8 1_555 1_555
H29_8 C46_8 1_555 1_555
C47_8 C42_8 1_555 1_555
H30_8 C47_8 1_555 1_555
Co8_2 O10_4 1_555 1_555
O13_4 Co6_4 1_555 1_555
O2_8 C1_8 1_555 1_555
O6_8 C15_8 1_555 1_555
C20_8 C21_8 1_555 1_555
C27_8 C28_8 1_555 1_555
C37_8 C38_8 1_555 1_555
C39_8 C40_8 1_555 1_555
C46_8 C47_8 1_555 1_555
Co8_2 O13_4 1_555 1_555
O17_4 C51_8 1_555 1_555
O18_4 C51_8 1_555 1_555
C51_8 C52_8 1_555 1_555
C52_8 C53_8 1_555 1_555
H33_8 C53_8 1_555 1_555
C54_8 C50_8 1_555 1_555
H34_8 C54_8 1_555 1_555
C52_8 C54_8 1_555 1_555
O13_4 C12_8 1_555 1_555
O4_8 Co8_2 1_555 1_555
C3_8 C2_8 1_555 1_555
C4_8 C3_8 1_555 1_555
H2_8 C4_8 1_555 1_555
C5_8 C4_8 1_555 1_555
C6_8 C5_8 1_555 1_555
H3_8 C6_8 1_555 1_555
C7_8 C2_8 1_555 1_555
H4_8 C7_8 1_555 1_555
C8_8 C5_8 1_555 1_555
C9_8 C8_8 1_555 1_555
H5_8 C9_8 1_555 1_555
C10_8 C9_8 1_555 1_555
H6_8 C10_8 1_555 1_555
C11_8 C10_8 1_555 1_555
C12_8 O4_8 1_555 1_555
C13_8 C11_8 1_555 1_555
H7_8 C13_8 1_555 1_555
C14_8 C8_8 1_555 1_555
H8_8 C14_8 1_555 1_555
C49_8 C48_8 1_555 1_555
H31_8 C49_8 1_555 1_555
C6_8 C7_8 1_555 1_555
C11_8 C12_8 1_555 1_555
C13_8 C14_8 1_555 1_555
C23_7 C22_7 1_555 1_555
H13_7 C23_7 1_555 1_555
C23_8 C22_8 1_555 1_555
H13_8 C23_8 1_555 1_555

#END
