
###############################################################################
#
# This file contains modified crystal structure data generated from the
# MOF subset of the Cambridge Structural Database (CSD) v543 
# hosted by the Cambridge Crystallographic Data Centre (CCDC).
#
# This work is licensed under the Creative Commons
# Attribution-NonCommercial-ShareAlike 4.0 International License.
# To view a copy of this license, visit
# http://creativecommons.org/licenses/by-nc-sa/4.0/
# or send a letter to
# Creative Commons, PO Box 1866, Mountain View, CA 94042, USA.
#
# CIF created using the CSD Python API on 29 September 2022
# The structure has been converted into the P1 space group
# The structure has a 3D framework
# The original CSD entry LAYQUA is in the rhombohedral crystal system
# The framework has been calculated to contain at least 10.0% void space
# The void calculation uses a probe of radius 1.32A, grid spacing 0.4
# H atom positions have been added when not included in the experimental data
# Generated hydrogen atom positions removed from atoms on special positions
#
###############################################################################

data_LAYQUA
_chemical_formula_moiety         '(C234 H216 Cu18 O84)n'
_symmetry_cell_setting           triclinic
_symmetry_space_group_name_H-M   'P 1'
_symmetry_Int_Tables_number      1
_space_group_name_Hall           'P 1'
loop_
_symmetry_equiv_pos_site_id
_symmetry_equiv_pos_as_xyz
1 x,y,z
_cell_length_a                   18.5628(12)
_cell_length_b                   18.5628(12)
_cell_length_c                   39.707(2)
_cell_angle_alpha                90
_cell_angle_beta                 90
_cell_angle_gamma                120
_cell_volume                     11849.1
loop_
_atom_site_label
_atom_site_type_symbol
_atom_site_fract_x
_atom_site_fract_y
_atom_site_fract_z
C1 C 0.4501(3) 0.3596(3) 0.02604(10)
C2 C 0.4230(3) 0.2764(3) 0.04212(10)
C3 C 0.4423(4) 0.22113(18) 0.02652(13)
H1 H 0.4681 0.2341 0.0056
C4 C 0.3809(3) 0.2551(3) 0.07231(11)
H2 H 0.3667 0.2914 0.0825
C5 C 0.3594(4) 0.1797(2) 0.08773(16)
C6 C 0.3148(5) 0.1574(2) 0.12070(18)
C7 C 0.2268(7) 0.1134(4) 0.1197(3)
H3 H 0.1982 0.0991 0.0993
C8 C 0.3556(4) 0.17780(19) 0.15107(15)
C9 C 0.4416(5) 0.2208(3) 0.1523(2)
H4 H 0.4720 0.2360 0.1324
C10 C 0.4824(8) 0.2412(4) 0.1826(3)
H5 H 0.5402 0.2701 0.1827
O2 O 0.4403(2) 0.41083(18) 0.04314(7)
C11 C 0.2166(3) 0.2428(4) 0.30729(10)
C12 C 0.2437(3) 0.1867(4) 0.29121(10)
C13 C 0.2244(4) 0.11216(44) 0.30681(13)
H6 H 0.1986 0.0993 0.3277
C14 C 0.2858(3) 0.2075(4) 0.26102(11)
H7 H 0.3000 0.2580 0.2508
C15 C 0.3073(4) 0.1536(4) 0.24560(16)
C16 C 0.3519(5) 0.1759(5) 0.21263(18)
C17 C 0.4399(7) 0.2199(8) 0.2136(3)
H8 H 0.4685 0.2342 0.2340
C18 C 0.3111(4) 0.15553(44) 0.18226(15)
C19 C 0.2251(5) 0.1125(6) 0.1810(2)
H9 H 0.1947 0.0973 0.2009
C20 C 0.1843(8) 0.0921(9) 0.1507(3)
H10 H 0.1265 0.0632 0.1506
O4 O 0.1857(2) 0.22366(27) 0.33639(7)
O5 O 0.2264(2) 0.30386(27) 0.29019(7)
C21 C 0.4501(3) 0.0905(4) 0.02604(10)
C22 C 0.4230(3) 0.1466(4) 0.04212(10)
C23 C 0.3809(3) 0.1258(4) 0.07231(11)
H11 H 0.3667 0.0753 0.0825
O7 O 0.4403(2) 0.02947(27) 0.04314(7)
C25 C 0.2437(3) 0.0569(3) 0.29121(10)
C26 C 0.2858(3) 0.0782(3) 0.26102(11)
H12 H 0.3000 0.0419 0.2508
Cu3 Cu 0.47622(2) 0.52378(2) 0.02720(2)
Cu6 Cu 0.19045(2) 0.38089(3) 0.30613(2)
Cu8 Cu 0.14289(2) 0.28577(3) 0.36053(2)
Cu1 Cu 0.52378(2) 0.47622(2) 0.97280(2)
O1 O 0.4810(2) 0.37133(18) 0.99694(7)
O3 O 0.5613(2) 0.4387(2) 0.92793(13)
O6 O 0.4810(2) 0.10967(27) 0.99694(7)
Cu2 Cu 0.52378(2) 0.04756(3) 0.97280(2)
O10 O 0.5613(2) 0.1226(3) 0.92793(13)
O11 O 0.62867(18) 0.10967(27) 0.99694(7)
O12 O 0.62867(18) 0.5190(2) 0.99694(7)
O13 O 0.41083(18) 0.4403(2) 0.95686(7)
O15 O 0.5597(2) 0.58917(18) 0.95686(7)
C24 C 0.2166(3) 0.9737(3) 0.30729(10)
O8 O 0.1857(2) 0.96200(18) 0.33639(7)
O9 O 0.2264(2) 0.92250(18) 0.29019(7)
Cu4 Cu 0.47622(2) 0.95244(3) 0.02720(2)
Cu5 Cu 0.19045(2) 0.80955(2) 0.30613(2)
Cu7 Cu 0.14289(2) 0.85711(2) 0.36053(2)
O14 O 0.5597(2) 0.97053(27) 0.95686(7)
O16 O 0.41083(18) 0.97053(27) 0.95686(7)
C24_2 C 0.0263(3) 0.2428(4) 0.30729(10)
O8_2 O 0.03800(18) 0.22366(27) 0.33639(7)
O9_2 O 0.07750(18) 0.30386(27) 0.29019(7)
Cu4_2 Cu 0.04756(3) 0.52378(4) 0.02720(2)
O14_2 O 0.02947(27) 0.58917(34) 0.95686(7)
O16_2 O 0.02947(27) 0.44030(32) 0.95686(7)
C1_2 C 0.6404(3) 0.0905(4) 0.02604(10)
C2_2 C 0.7236(3) 0.1466(4) 0.04212(10)
C3_2 C 0.77887(18) 0.22117(44) 0.02652(13)
H1_2 H 0.7659 0.2340 0.0056
C4_2 C 0.7449(3) 0.1258(4) 0.07231(11)
H2_2 H 0.7086 0.0753 0.0825
C5_2 C 0.8203(2) 0.1797(4) 0.08773(16)
C6_2 C 0.8426(2) 0.1574(5) 0.12070(18)
C7_2 C 0.8866(4) 0.1134(8) 0.1197(3)
H3_2 H 0.9009 0.0991 0.0993
C8_2 C 0.82220(19) 0.17780(44) 0.15107(15)
C9_2 C 0.7792(3) 0.2208(6) 0.1523(2)
H4_2 H 0.7640 0.2360 0.1324
C10_2 C 0.7588(4) 0.2412(9) 0.1826(3)
H5_2 H 0.7299 0.2701 0.1827
O2_2 O 0.58917(18) 0.02947(27) 0.04314(7)
C12_2 C 0.8133(4) 0.0569(5) 0.29121(10)
C13_2 C 0.88784(44) 0.11220(59) 0.30681(13)
H6_2 H 0.9007 0.0992 0.3277
C14_2 C 0.7925(4) 0.0782(5) 0.26102(11)
H7_2 H 0.7420 0.0419 0.2508
C15_2 C 0.8464(4) 0.1536(6) 0.24560(16)
C16_2 C 0.8241(5) 0.1759(7) 0.21263(18)
C17_2 C 0.7801(8) 0.2199(11) 0.2136(3)
H8_2 H 0.7658 0.2342 0.2340
C18_2 C 0.84447(44) 0.15553(59) 0.18226(15)
C19_2 C 0.8875(6) 0.1125(8) 0.1810(2)
H9_2 H 0.9027 0.0973 0.2009
C20_2 C 0.9079(9) 0.0921(12) 0.1507(3)
H10_2 H 0.9368 0.0632 0.1506
C21_2 C 0.9095(4) 0.3596(5) 0.02604(10)
C22_2 C 0.8534(4) 0.2764(5) 0.04212(10)
C23_2 C 0.8742(4) 0.2551(5) 0.07231(11)
H11_2 H 0.9247 0.2914 0.0825
O7_2 O 0.97053(27) 0.41083(34) 0.04314(7)
C25_2 C 0.9431(3) 0.1867(4) 0.29121(10)
C26_2 C 0.9218(3) 0.2075(4) 0.26102(11)
H12_2 H 0.9581 0.2580 0.2508
O6_2 O 0.89033(27) 0.37133(34) 0.99694(7)
Cu2_2 Cu 0.95244(3) 0.47622(4) 0.97280(2)
O10_2 O 0.8774(3) 0.4387(4) 0.92793(13)
O11_2 O 0.89033(27) 0.51900(32) 0.99694(7)
C11_2 C 0.7572(4) 0.9737(5) 0.30729(10)
O4_2 O 0.77634(27) 0.96200(34) 0.33639(7)
O5_2 O 0.69614(27) 0.92250(34) 0.29019(7)
Cu6_2 Cu 0.61911(3) 0.80955(4) 0.30613(2)
Cu8_2 Cu 0.71423(3) 0.85711(4) 0.36053(2)
C11_3 C 0.0263(5) 0.7834(3) 0.30729(10)
O4_3 O 0.03800(34) 0.8143(2) 0.33639(7)
O5_3 O 0.07750(34) 0.7736(2) 0.29019(7)
C1_3 C 0.9095(4) 0.5499(3) 0.02604(10)
C2_3 C 0.8534(4) 0.5770(3) 0.04212(10)
C3_3 C 0.77883(44) 0.5577(4) 0.02652(13)
H1_3 H 0.7660 0.5319 0.0056
C4_3 C 0.8742(4) 0.6191(3) 0.07231(11)
H2_3 H 0.9247 0.6333 0.0825
C5_3 C 0.8203(4) 0.6406(4) 0.08773(16)
C6_3 C 0.8426(5) 0.6852(5) 0.12070(18)
C7_3 C 0.8866(8) 0.7732(7) 0.1197(3)
H3_3 H 0.9009 0.8018 0.0993
C8_3 C 0.82220(44) 0.6444(4) 0.15107(15)
C9_3 C 0.7792(6) 0.5584(5) 0.1523(2)
H4_3 H 0.7640 0.5280 0.1324
C10_3 C 0.7588(9) 0.5176(8) 0.1826(3)
H5_3 H 0.7299 0.4598 0.1827
O2_3 O 0.97053(27) 0.5597(2) 0.04314(7)
C12_3 C 0.9431(5) 0.7563(3) 0.29121(10)
C13_3 C 0.88780(59) 0.7756(4) 0.30681(13)
H6_3 H 0.9008 0.8014 0.3277
C14_3 C 0.9218(5) 0.7142(3) 0.26102(11)
H7_3 H 0.9581 0.7000 0.2508
C15_3 C 0.8464(6) 0.6927(4) 0.24560(16)
C16_3 C 0.8241(7) 0.6481(5) 0.21263(18)
C17_3 C 0.7801(11) 0.5601(7) 0.2136(3)
H8_3 H 0.7658 0.5315 0.2340
C18_3 C 0.84447(59) 0.6889(4) 0.18226(15)
C19_3 C 0.8875(8) 0.7749(5) 0.1810(2)
H9_3 H 0.9027 0.8053 0.2009
C20_3 C 0.9079(12) 0.8157(8) 0.1507(3)
H10_3 H 0.9368 0.8735 0.1506
C21_3 C 0.6404(5) 0.5499(3) 0.02604(10)
C22_3 C 0.7236(5) 0.5770(3) 0.04212(10)
C23_3 C 0.7449(5) 0.6191(3) 0.07231(11)
H11_3 H 0.7086 0.6333 0.0825
O7_3 O 0.58917(34) 0.5597(2) 0.04314(7)
C24_3 C 0.7572(4) 0.7834(3) 0.30729(10)
C25_3 C 0.8133(4) 0.7563(3) 0.29121(10)
C26_3 C 0.7925(4) 0.7142(3) 0.26102(11)
H12_3 H 0.7420 0.7000 0.2508
O8_3 O 0.77634(27) 0.8143(2) 0.33639(7)
O9_3 O 0.69614(27) 0.7736(2) 0.29019(7)
O1_2 O 0.37133(18) 0.4810(2) 0.00306(7)
O3_2 O 0.4387(2) 0.5613(2) 0.07207(13)
O6_3 O 0.10967(27) 0.4810(2) 0.00306(7)
O10_3 O 0.1226(3) 0.5613(2) 0.07207(13)
O11_3 O 0.10967(27) 0.62867(18) 0.00306(7)
O12_2 O 0.5190(2) 0.62867(18) 0.00306(7)
C1_4 C 0.3596(3) 0.4501(3) 0.97396(10)
C2_4 C 0.2764(3) 0.4230(3) 0.95788(10)
C3_4 C 0.22113(18) 0.4423(4) 0.97348(13)
H1_4 H 0.2341 0.4681 0.9944
C4_4 C 0.2551(3) 0.3809(3) 0.92769(11)
H2_4 H 0.2914 0.3667 0.9175
C5_4 C 0.1797(2) 0.3594(4) 0.91227(16)
C6_4 C 0.1574(2) 0.3148(5) 0.87930(18)
C7_4 C 0.1134(4) 0.2268(7) 0.8803(3)
H3_4 H 0.0991 0.1982 0.9007
C8_4 C 0.17780(19) 0.3556(4) 0.84893(15)
C9_4 C 0.2208(3) 0.4416(5) 0.8477(2)
H4_4 H 0.2360 0.4720 0.8676
C10_4 C 0.2412(4) 0.4824(8) 0.8174(3)
H5_4 H 0.2701 0.5402 0.8173
C11_4 C 0.2428(4) 0.2166(3) 0.69271(10)
C12_4 C 0.1867(4) 0.2437(3) 0.70879(10)
C13_4 C 0.11216(44) 0.2244(4) 0.69319(13)
H6_4 H 0.0993 0.1986 0.6723
C14_4 C 0.2075(4) 0.2858(3) 0.73898(11)
H7_4 H 0.2580 0.3000 0.7492
C15_4 C 0.1536(4) 0.3073(4) 0.75440(16)
C16_4 C 0.1759(5) 0.3519(5) 0.78737(18)
C17_4 C 0.2199(8) 0.4399(7) 0.7864(3)
H8_4 H 0.2342 0.4685 0.7660
C18_4 C 0.15553(44) 0.3111(4) 0.81774(15)
C19_4 C 0.1125(6) 0.2251(5) 0.8190(2)
H9_4 H 0.0973 0.1947 0.7991
C20_4 C 0.0921(9) 0.1843(8) 0.8493(3)
H10_4 H 0.0632 0.1265 0.8494
O4_4 O 0.22366(27) 0.1857(2) 0.66361(7)
O5_4 O 0.30386(27) 0.2264(2) 0.70981(7)
C21_4 C 0.0905(4) 0.4501(3) 0.97396(10)
C22_4 C 0.1466(4) 0.4230(3) 0.95788(10)
C23_4 C 0.1258(4) 0.3809(3) 0.92769(11)
H11_4 H 0.0753 0.3667 0.9175
C25_4 C 0.0569(3) 0.2437(3) 0.70879(10)
C26_4 C 0.0782(3) 0.2858(3) 0.73898(11)
H12_4 H 0.0419 0.3000 0.7492
Cu6_3 Cu 0.38089(3) 0.19045(2) 0.69387(2)
Cu8_3 Cu 0.28577(3) 0.14289(2) 0.63947(2)
C24_4 C 0.9737(3) 0.2166(3) 0.69271(10)
O8_4 O 0.96200(18) 0.1857(2) 0.66361(7)
O9_4 O 0.92250(18) 0.2264(2) 0.70981(7)
Cu5_2 Cu 0.80955(2) 0.19045(2) 0.69387(2)
Cu7_2 Cu 0.85711(2) 0.14289(2) 0.63947(2)
C11_5 C 0.7834(3) 0.0263(5) 0.69271(10)
O4_5 O 0.8143(2) 0.03800(34) 0.66361(7)
O5_5 O 0.7736(2) 0.07750(34) 0.70981(7)
O1_3 O 0.5190(2) 0.89033(27) 0.00306(7)
O3_3 O 0.4387(2) 0.8774(3) 0.07207(13)
O12_3 O 0.37133(18) 0.89033(27) 0.00306(7)
C1_5 C 0.5499(3) 0.9095(4) 0.97396(10)
C2_5 C 0.5770(3) 0.8534(4) 0.95788(10)
C3_5 C 0.5577(4) 0.77883(44) 0.97348(13)
H1_5 H 0.5319 0.7660 0.9944
C4_5 C 0.6191(3) 0.8742(4) 0.92769(11)
H2_5 H 0.6333 0.9247 0.9175
C5_5 C 0.6406(4) 0.8203(4) 0.91227(16)
C6_5 C 0.6852(5) 0.8426(5) 0.87930(18)
C7_5 C 0.7732(7) 0.8866(8) 0.8803(3)
H3_5 H 0.8018 0.9009 0.9007
C8_5 C 0.6444(4) 0.82220(44) 0.84893(15)
C9_5 C 0.5584(5) 0.7792(6) 0.8477(2)
H4_5 H 0.5280 0.7640 0.8676
C10_5 C 0.5176(8) 0.7588(9) 0.8174(3)
H5_5 H 0.4598 0.7299 0.8173
C12_5 C 0.7563(3) 0.9431(5) 0.70879(10)
C13_5 C 0.7756(4) 0.88780(59) 0.69319(13)
H6_5 H 0.8014 0.9008 0.6723
C14_5 C 0.7142(3) 0.9218(5) 0.73898(11)
H7_5 H 0.7000 0.9581 0.7492
C15_5 C 0.6927(4) 0.8464(6) 0.75440(16)
C16_5 C 0.6481(5) 0.8241(7) 0.78737(18)
C17_5 C 0.5601(7) 0.7801(11) 0.7864(3)
H8_5 H 0.5315 0.7658 0.7660
C18_5 C 0.6889(4) 0.84447(59) 0.81774(15)
C19_5 C 0.7749(5) 0.8875(8) 0.8190(2)
H9_5 H 0.8053 0.9027 0.7991
C20_5 C 0.8157(8) 0.9079(12) 0.8493(3)
H10_5 H 0.8735 0.9368 0.8494
C21_5 C 0.5499(3) 0.6404(5) 0.97396(10)
C22_5 C 0.5770(3) 0.7236(5) 0.95788(10)
C23_5 C 0.6191(3) 0.7449(5) 0.92769(11)
H11_5 H 0.6333 0.7086 0.9175
C24_5 C 0.7834(3) 0.7572(4) 0.69271(10)
C25_5 C 0.7563(3) 0.8133(4) 0.70879(10)
C26_5 C 0.7142(3) 0.7925(4) 0.73898(11)
H12_5 H 0.7000 0.7420 0.7492
O8_5 O 0.8143(2) 0.77634(27) 0.66361(7)
O9_5 O 0.7736(2) 0.69614(27) 0.70981(7)
Cu5_3 Cu 0.80955(2) 0.61911(3) 0.69387(2)
Cu7_3 Cu 0.85711(2) 0.71423(3) 0.63947(2)
C24_6 C 0.2428(4) 0.0263(3) 0.69271(10)
O8_6 O 0.22366(27) 0.03800(18) 0.66361(7)
O9_6 O 0.30386(27) 0.07750(18) 0.70981(7)
C1_6 C 0.0905(4) 0.6404(3) 0.97396(10)
C2_6 C 0.1466(4) 0.7236(3) 0.95788(10)
C3_6 C 0.22117(44) 0.77887(18) 0.97348(13)
H1_6 H 0.2340 0.7659 0.9944
C4_6 C 0.1258(4) 0.7449(3) 0.92769(11)
H2_6 H 0.0753 0.7086 0.9175
C5_6 C 0.1797(4) 0.8203(2) 0.91227(16)
C6_6 C 0.1574(5) 0.8426(2) 0.87930(18)
C7_6 C 0.1134(8) 0.8866(4) 0.8803(3)
H3_6 H 0.0991 0.9009 0.9007
C8_6 C 0.17780(44) 0.82220(19) 0.84893(15)
C9_6 C 0.2208(6) 0.7792(3) 0.8477(2)
H4_6 H 0.2360 0.7640 0.8676
C10_6 C 0.2412(9) 0.7588(4) 0.8174(3)
H5_6 H 0.2701 0.7299 0.8173
C12_6 C 0.0569(5) 0.8133(4) 0.70879(10)
C13_6 C 0.11220(59) 0.88784(44) 0.69319(13)
H6_6 H 0.0992 0.9007 0.6723
C14_6 C 0.0782(5) 0.7925(4) 0.73898(11)
H7_6 H 0.0419 0.7420 0.7492
C15_6 C 0.1536(6) 0.8464(4) 0.75440(16)
C16_6 C 0.1759(7) 0.8241(5) 0.78737(18)
C17_6 C 0.2199(11) 0.7801(8) 0.7864(3)
H8_6 H 0.2342 0.7658 0.7660
C18_6 C 0.15553(59) 0.84447(44) 0.81774(15)
C19_6 C 0.1125(8) 0.8875(6) 0.8190(2)
H9_6 H 0.0973 0.9027 0.7991
C20_6 C 0.0921(12) 0.9079(9) 0.8493(3)
H10_6 H 0.0632 0.9368 0.8494
C21_6 C 0.3596(5) 0.9095(4) 0.97396(10)
C22_6 C 0.2764(5) 0.8534(4) 0.95788(10)
C23_6 C 0.2551(5) 0.8742(4) 0.92769(11)
H11_6 H 0.2914 0.9247 0.9175
C25_6 C 0.1867(4) 0.9431(3) 0.70879(10)
C26_6 C 0.2075(4) 0.9218(3) 0.73898(11)
H12_6 H 0.2580 0.9581 0.7492
C11_6 C 0.9737(5) 0.7572(4) 0.69271(10)
O4_6 O 0.96200(34) 0.77634(27) 0.66361(7)
O5_6 O 0.92250(34) 0.69614(27) 0.70981(7)
C1_7 C 0.1168(3) 0.6929(3) 0.35937(10)
C2_7 C 0.0897(3) 0.6097(3) 0.37545(10)
C3_7 C 0.1090(4) 0.55446(18) 0.35985(13)
H1_7 H 0.1348 0.5674 0.3389
C4_7 C 0.0476(3) 0.5884(3) 0.40564(11)
H2_7 H 0.0334 0.6247 0.4158
C5_7 C 0.0261(4) 0.5130(2) 0.42106(16)
C8_7 C 0.0223(4) 0.51113(19) 0.48440(15)
C9_7 C 0.1083(5) 0.5541(3) 0.4856(2)
H4_7 H 0.1387 0.5693 0.4657
C10_7 C 0.1491(8) 0.5745(4) 0.5159(3)
H5_7 H 0.2069 0.6034 0.5160
O1_4 O 0.1477(2) 0.70466(18) 0.33027(7)
O2_4 O 0.1070(2) 0.74416(18) 0.37647(7)
O3_4 O 0.2280(2) 0.7720(2) 0.26126(13)
C16_7 C 0.0185(5) 0.5093(5) 0.54597(18)
C17_7 C 0.1065(7) 0.5533(8) 0.5470(3)
H8_7 H 0.1351 0.5676 0.5674
C21_7 C 0.1168(3) 0.4238(4) 0.35937(10)
C22_7 C 0.0897(3) 0.4799(4) 0.37545(10)
C23_7 C 0.0476(3) 0.4591(4) 0.40564(11)
H11_7 H 0.0334 0.4086 0.4158
O6_4 O 0.1477(2) 0.44300(27) 0.33027(7)
O7_4 O 0.1070(2) 0.36280(27) 0.37647(7)
O10_4 O 0.2280(2) 0.4559(3) 0.26126(13)
O11_4 O 0.29534(18) 0.44300(27) 0.33027(7)
O12_4 O 0.29534(18) 0.8523(2) 0.33027(7)
C6_7 C 0.9815(5) 0.4907(2) 0.45403(18)
C7_7 C 0.8935(7) 0.4467(4) 0.4530(3)
H3_7 H 0.8649 0.4324 0.4326
C11_7 C 0.8832(3) 0.5762(4) 0.64063(10)
C12_7 C 0.9103(3) 0.5201(4) 0.62455(10)
C13_7 C 0.8910(4) 0.44550(44) 0.64015(13)
H6_7 H 0.8652 0.4327 0.6611
C14_7 C 0.9524(3) 0.5409(4) 0.59436(11)
H7_7 H 0.9666 0.5914 0.5842
C15_7 C 0.9739(4) 0.4870(4) 0.57894(16)
C18_7 C 0.9777(4) 0.48887(44) 0.51560(15)
C19_7 C 0.8917(5) 0.4459(6) 0.5144(2)
H9_7 H 0.8613 0.4307 0.5343
C20_7 C 0.8509(8) 0.4255(9) 0.4841(3)
H10_7 H 0.7931 0.3966 0.4840
O4_7 O 0.8523(2) 0.55700(27) 0.66973(7)
O5_7 O 0.8930(2) 0.63720(27) 0.62353(7)
C24_7 C 0.8832(3) 0.3071(3) 0.64063(10)
C25_7 C 0.9103(3) 0.3903(3) 0.62455(10)
C26_7 C 0.9524(3) 0.4116(3) 0.59436(11)
H12_7 H 0.9666 0.3753 0.5842
O8_7 O 0.8523(2) 0.29534(18) 0.66973(7)
O9_7 O 0.8930(2) 0.25584(18) 0.62353(7)
C1_8 C 0.3071(3) 0.4238(4) 0.35937(10)
C2_8 C 0.3903(3) 0.4799(4) 0.37545(10)
C3_8 C 0.44554(18) 0.55450(44) 0.35985(13)
H1_8 H 0.4326 0.5673 0.3389
C4_8 C 0.4116(3) 0.4591(4) 0.40564(11)
H2_8 H 0.3753 0.4086 0.4158
C5_8 C 0.4870(2) 0.5130(4) 0.42106(16)
C6_8 C 0.5093(2) 0.4907(5) 0.45403(18)
C7_8 C 0.5533(4) 0.4467(8) 0.4530(3)
H3_8 H 0.5676 0.4324 0.4326
C8_8 C 0.48887(19) 0.51113(44) 0.48440(15)
C9_8 C 0.4459(3) 0.5541(6) 0.4856(2)
H4_8 H 0.4307 0.5693 0.4657
C10_8 C 0.4255(4) 0.5745(9) 0.5159(3)
H5_8 H 0.3966 0.6034 0.5160
O2_5 O 0.25584(18) 0.36280(27) 0.37647(7)
C11_8 C 0.4238(4) 0.3071(5) 0.64063(10)
C12_8 C 0.4799(4) 0.3903(5) 0.62455(10)
C13_8 C 0.55450(44) 0.44554(59) 0.64015(13)
H6_8 H 0.5673 0.4326 0.6611
C14_8 C 0.4591(4) 0.4116(5) 0.59436(11)
H7_8 H 0.4086 0.3753 0.5842
C15_8 C 0.5130(4) 0.4870(6) 0.57894(16)
C16_8 C 0.4907(5) 0.5093(7) 0.54597(18)
C17_8 C 0.4467(8) 0.5533(11) 0.5470(3)
H8_8 H 0.4324 0.5676 0.5674
C18_8 C 0.51113(44) 0.48887(59) 0.51560(15)
C19_8 C 0.5541(6) 0.4459(8) 0.5144(2)
H9_8 H 0.5693 0.4307 0.5343
C20_8 C 0.5745(9) 0.4255(12) 0.4841(3)
H10_8 H 0.6034 0.3966 0.4840
O4_8 O 0.44300(27) 0.29534(34) 0.66973(7)
O5_8 O 0.36280(27) 0.25584(34) 0.62353(7)
C21_8 C 0.5762(4) 0.6929(5) 0.35937(10)
C22_8 C 0.5201(4) 0.6097(5) 0.37545(10)
C23_8 C 0.5409(4) 0.5884(5) 0.40564(11)
H11_8 H 0.5914 0.6247 0.4158
O6_5 O 0.55700(27) 0.70466(34) 0.33027(7)
O7_5 O 0.63720(27) 0.74416(34) 0.37647(7)
C24_8 C 0.6929(3) 0.5762(4) 0.64063(10)
C25_8 C 0.6097(3) 0.5201(4) 0.62455(10)
C26_8 C 0.5884(3) 0.5409(4) 0.59436(11)
H12_8 H 0.6247 0.5914 0.5842
O8_8 O 0.70466(18) 0.55700(27) 0.66973(7)
O9_8 O 0.74416(18) 0.63720(27) 0.62353(7)
O10_5 O 0.5441(3) 0.7720(4) 0.26126(13)
O11_5 O 0.55700(27) 0.85233(32) 0.33027(7)
C6_9 C 0.5093(5) 0.0185(5) 0.45403(18)
C7_9 C 0.5533(8) 0.1065(7) 0.4530(3)
H3_9 H 0.5676 0.1351 0.4326
C11_9 C 0.6929(5) 0.1168(3) 0.64063(10)
C12_9 C 0.6097(5) 0.0897(3) 0.62455(10)
C13_9 C 0.55446(59) 0.1090(4) 0.64015(13)
H6_9 H 0.5674 0.1348 0.6611
C14_9 C 0.5884(5) 0.0476(3) 0.59436(11)
H7_9 H 0.6247 0.0334 0.5842
C15_9 C 0.5130(6) 0.0261(4) 0.57894(16)
C18_9 C 0.51113(59) 0.0223(4) 0.51560(15)
C19_9 C 0.5541(8) 0.1083(5) 0.5144(2)
H9_9 H 0.5693 0.1387 0.5343
C20_9 C 0.5745(12) 0.1491(8) 0.4841(3)
H10_9 H 0.6034 0.2069 0.4840
O4_9 O 0.70466(34) 0.1477(2) 0.66973(7)
O5_9 O 0.74416(34) 0.1070(2) 0.62353(7)
C24_9 C 0.4238(4) 0.1168(3) 0.64063(10)
C25_9 C 0.4799(4) 0.0897(3) 0.62455(10)
C26_9 C 0.4591(4) 0.0476(3) 0.59436(11)
H12_9 H 0.4086 0.0334 0.5842
O8_9 O 0.44300(27) 0.1477(2) 0.66973(7)
O9_9 O 0.36280(27) 0.1070(2) 0.62353(7)
C1_9 C 0.5762(4) 0.8832(3) 0.35937(10)
C2_9 C 0.5201(4) 0.9103(3) 0.37545(10)
C3_9 C 0.44550(44) 0.8910(4) 0.35985(13)
H1_9 H 0.4327 0.8652 0.3389
C4_9 C 0.5409(4) 0.9524(3) 0.40564(11)
H2_9 H 0.5914 0.9666 0.4158
C5_9 C 0.4870(4) 0.9739(4) 0.42106(16)
C8_9 C 0.48887(44) 0.9777(4) 0.48440(15)
C9_9 C 0.4459(6) 0.8917(5) 0.4856(2)
H4_9 H 0.4307 0.8613 0.4657
C10_9 C 0.4255(9) 0.8509(8) 0.5159(3)
H5_9 H 0.3966 0.7931 0.5160
O2_6 O 0.63720(27) 0.8930(2) 0.37647(7)
C16_9 C 0.4907(7) 0.9815(5) 0.54597(18)
C17_9 C 0.4467(11) 0.8935(7) 0.5470(3)
H8_9 H 0.4324 0.8649 0.5674
C21_9 C 0.3071(5) 0.8832(3) 0.35937(10)
C22_9 C 0.3903(5) 0.9103(3) 0.37545(10)
C23_9 C 0.4116(5) 0.9524(3) 0.40564(11)
H11_9 H 0.3753 0.9666 0.4158
O7_6 O 0.25584(34) 0.8930(2) 0.37647(7)
O3_5 O 0.1054(2) 0.8946(2) 0.40540(13)
O10_6 O 0.7893(3) 0.8946(2) 0.40540(13)
O3_6 O 0.1054(2) 0.2107(3) 0.40540(13)
O3_7 O 0.8946(2) 0.1054(2) 0.59460(13)
O10_7 O 0.8946(2) 0.7893(3) 0.59460(13)
O10_8 O 0.2107(3) 0.1054(4) 0.59460(13)
O3_8 O 0.7720(2) 0.2280(2) 0.73874(13)
O10_9 O 0.4559(3) 0.2280(2) 0.73874(13)
O3_9 O 0.7720(2) 0.5441(3) 0.73874(13)
loop_
_geom_bond_atom_site_label_1
_geom_bond_atom_site_label_2
_geom_bond_site_symmetry_1
_geom_bond_site_symmetry_2
C1 C2 1_555 1_555
C2 C3 1_555 1_555
C3 H1 1_555 1_555
C4 C2 1_555 1_555
H2 C4 1_555 1_555
C5 C4 1_555 1_555
C6 C5 1_555 1_555
C7 C6 1_555 1_555
H3 C7 1_555 1_555
C8 C6 1_555 1_555
C9 C8 1_555 1_555
H4 C9 1_555 1_555
C10 C9 1_555 1_555
H5 C10 1_555 1_555
O2 C1 1_555 1_555
C11 C12 1_555 1_555
C12 C13 1_555 1_555
C13 H6 1_555 1_555
C14 C12 1_555 1_555
H7 C14 1_555 1_555
C15 C14 1_555 1_555
C16 C15 1_555 1_555
C17 C10 1_555 1_555
H8 C17 1_555 1_555
C18 C8 1_555 1_555
C19 C18 1_555 1_555
H9 C19 1_555 1_555
C20 C7 1_555 1_555
H10 C20 1_555 1_555
O4 C11 1_555 1_555
O5 C11 1_555 1_555
C21 C22 1_555 1_555
C22 C3 1_555 1_555
C23 C5 1_555 1_555
H11 C23 1_555 1_555
O7 C21 1_555 1_555
C25 C13 1_555 1_555
C26 C15 1_555 1_555
H12 C26 1_555 1_555
Cu3 O2 1_555 1_555
Cu6 O5 1_555 1_555
Cu8 O4 1_555 1_555
C16 C17 1_555 1_555
C16 C18 1_555 1_555
C19 C20 1_555 1_555
C22 C23 1_555 1_555
C25 C26 1_555 1_555
Cu1 O1 1_555 1_555
O3 Cu1 1_555 1_555
Cu2 O6 1_555 1_555
O10 Cu2 1_555 1_555
O11 Cu2 1_555 1_555
O12 Cu1 1_555 1_555
O13 Cu1 1_555 1_555
O15 Cu1 1_555 1_555
O8 C24 1_555 1_555
O9 C24 1_555 1_555
Cu5 O9 1_555 1_555
Cu7 O8 1_555 1_555
O8_2 C24_2 1_555 1_555
O9_2 C24_2 1_555 1_555
Cu6 O9_2 1_555 1_555
Cu8 O8_2 1_555 1_555
C1_2 C2_2 1_555 1_555
C2_2 C3_2 1_555 1_555
C3_2 H1_2 1_555 1_555
C4_2 C2_2 1_555 1_555
H2_2 C4_2 1_555 1_555
C5_2 C4_2 1_555 1_555
C6_2 C5_2 1_555 1_555
C7_2 C6_2 1_555 1_555
H3_2 C7_2 1_555 1_555
C8_2 C6_2 1_555 1_555
C9_2 C8_2 1_555 1_555
H4_2 C9_2 1_555 1_555
C10_2 C9_2 1_555 1_555
H5_2 C10_2 1_555 1_555
O2_2 C1_2 1_555 1_555
C12_2 C13_2 1_555 1_555
C13_2 H6_2 1_555 1_555
C14_2 C12_2 1_555 1_555
H7_2 C14_2 1_555 1_555
C15_2 C14_2 1_555 1_555
C16_2 C15_2 1_555 1_555
C17_2 C10_2 1_555 1_555
H8_2 C17_2 1_555 1_555
C18_2 C8_2 1_555 1_555
C19_2 C18_2 1_555 1_555
H9_2 C19_2 1_555 1_555
C20_2 C7_2 1_555 1_555
H10_2 C20_2 1_555 1_555
C21_2 C22_2 1_555 1_555
C22_2 C3_2 1_555 1_555
C23_2 C5_2 1_555 1_555
H11_2 C23_2 1_555 1_555
O7_2 C21_2 1_555 1_555
C25_2 C13_2 1_555 1_555
C26_2 C15_2 1_555 1_555
H12_2 C26_2 1_555 1_555
C16_2 C17_2 1_555 1_555
C16_2 C18_2 1_555 1_555
C19_2 C20_2 1_555 1_555
C22_2 C23_2 1_555 1_555
C25_2 C26_2 1_555 1_555
Cu2_2 O6_2 1_555 1_555
O10_2 Cu2_2 1_555 1_555
O11_2 Cu2_2 1_555 1_555
O4_2 C11_2 1_555 1_555
O5_2 C11_2 1_555 1_555
Cu6_2 O5_2 1_555 1_555
Cu8_2 O4_2 1_555 1_555
O4_3 C11_3 1_555 1_555
O5_3 C11_3 1_555 1_555
Cu5 O5_3 1_555 1_555
Cu7 O4_3 1_555 1_555
C1_3 C2_3 1_555 1_555
C2_3 C3_3 1_555 1_555
C3_3 H1_3 1_555 1_555
C4_3 C2_3 1_555 1_555
H2_3 C4_3 1_555 1_555
C5_3 C4_3 1_555 1_555
C6_3 C5_3 1_555 1_555
C7_3 C6_3 1_555 1_555
H3_3 C7_3 1_555 1_555
C8_3 C6_3 1_555 1_555
C9_3 C8_3 1_555 1_555
H4_3 C9_3 1_555 1_555
C10_3 C9_3 1_555 1_555
H5_3 C10_3 1_555 1_555
O2_3 C1_3 1_555 1_555
C12_3 C13_3 1_555 1_555
C13_3 H6_3 1_555 1_555
C14_3 C12_3 1_555 1_555
H7_3 C14_3 1_555 1_555
C15_3 C14_3 1_555 1_555
C16_3 C15_3 1_555 1_555
C17_3 C10_3 1_555 1_555
H8_3 C17_3 1_555 1_555
C18_3 C8_3 1_555 1_555
C19_3 C18_3 1_555 1_555
H9_3 C19_3 1_555 1_555
C20_3 C7_3 1_555 1_555
H10_3 C20_3 1_555 1_555
C21_3 C22_3 1_555 1_555
C22_3 C3_3 1_555 1_555
C23_3 C5_3 1_555 1_555
H11_3 C23_3 1_555 1_555
O7_3 C21_3 1_555 1_555
C24_3 C25_3 1_555 1_555
C25_3 C13_3 1_555 1_555
C26_3 C15_3 1_555 1_555
H12_3 C26_3 1_555 1_555
O8_3 C24_3 1_555 1_555
O9_3 C24_3 1_555 1_555
Cu3 O7_3 1_555 1_555
Cu6_2 O9_3 1_555 1_555
Cu8_2 O8_3 1_555 1_555
C16_3 C17_3 1_555 1_555
C16_3 C18_3 1_555 1_555
C19_3 C20_3 1_555 1_555
C22_3 C23_3 1_555 1_555
C25_3 C26_3 1_555 1_555
Cu3 O1_2 1_555 1_555
O3_2 Cu3 1_555 1_555
Cu4_2 O6_3 1_555 1_555
O10_3 Cu4_2 1_555 1_555
O11_3 Cu4_2 1_555 1_555
O12_2 Cu3 1_555 1_555
C1_4 C2_4 1_555 1_555
C2_4 C3_4 1_555 1_555
C3_4 H1_4 1_555 1_555
C4_4 C2_4 1_555 1_555
H2_4 C4_4 1_555 1_555
C5_4 C4_4 1_555 1_555
C6_4 C5_4 1_555 1_555
C7_4 C6_4 1_555 1_555
H3_4 C7_4 1_555 1_555
C8_4 C6_4 1_555 1_555
C9_4 C8_4 1_555 1_555
H4_4 C9_4 1_555 1_555
C10_4 C9_4 1_555 1_555
H5_4 C10_4 1_555 1_555
O13 C1_4 1_555 1_555
C11_4 C12_4 1_555 1_555
C12_4 C13_4 1_555 1_555
C13_4 H6_4 1_555 1_555
C14_4 C12_4 1_555 1_555
H7_4 C14_4 1_555 1_555
C15_4 C14_4 1_555 1_555
C16_4 C15_4 1_555 1_555
C17_4 C10_4 1_555 1_555
H8_4 C17_4 1_555 1_555
C18_4 C8_4 1_555 1_555
C19_4 C18_4 1_555 1_555
H9_4 C19_4 1_555 1_555
C20_4 C7_4 1_555 1_555
H10_4 C20_4 1_555 1_555
O4_4 C11_4 1_555 1_555
O5_4 C11_4 1_555 1_555
C21_4 C22_4 1_555 1_555
C22_4 C3_4 1_555 1_555
C23_4 C5_4 1_555 1_555
H11_4 C23_4 1_555 1_555
O16_2 C21_4 1_555 1_555
C25_4 C13_4 1_555 1_555
C26_4 C15_4 1_555 1_555
H12_4 C26_4 1_555 1_555
Cu6_3 O5_4 1_555 1_555
Cu8_3 O4_4 1_555 1_555
C16_4 C17_4 1_555 1_555
C16_4 C18_4 1_555 1_555
C19_4 C20_4 1_555 1_555
C22_4 C23_4 1_555 1_555
C25_4 C26_4 1_555 1_555
O8_4 C24_4 1_555 1_555
O9_4 C24_4 1_555 1_555
Cu5_2 O9_4 1_555 1_555
Cu7_2 O8_4 1_555 1_555
O4_5 C11_5 1_555 1_555
O5_5 C11_5 1_555 1_555
Cu5_2 O5_5 1_555 1_555
Cu7_2 O4_5 1_555 1_555
Cu4 O1_3 1_555 1_555
O3_3 Cu4 1_555 1_555
O12_3 Cu4 1_555 1_555
C1_5 C2_5 1_555 1_555
C2_5 C3_5 1_555 1_555
C3_5 H1_5 1_555 1_555
C4_5 C2_5 1_555 1_555
H2_5 C4_5 1_555 1_555
C5_5 C4_5 1_555 1_555
C6_5 C5_5 1_555 1_555
C7_5 C6_5 1_555 1_555
H3_5 C7_5 1_555 1_555
C8_5 C6_5 1_555 1_555
C9_5 C8_5 1_555 1_555
H4_5 C9_5 1_555 1_555
C10_5 C9_5 1_555 1_555
H5_5 C10_5 1_555 1_555
O14 C1_5 1_555 1_555
C12_5 C13_5 1_555 1_555
C13_5 H6_5 1_555 1_555
C14_5 C12_5 1_555 1_555
H7_5 C14_5 1_555 1_555
C15_5 C14_5 1_555 1_555
C16_5 C15_5 1_555 1_555
C17_5 C10_5 1_555 1_555
H8_5 C17_5 1_555 1_555
C18_5 C8_5 1_555 1_555
C19_5 C18_5 1_555 1_555
H9_5 C19_5 1_555 1_555
C20_5 C7_5 1_555 1_555
H10_5 C20_5 1_555 1_555
C21_5 C22_5 1_555 1_555
C22_5 C3_5 1_555 1_555
C23_5 C5_5 1_555 1_555
H11_5 C23_5 1_555 1_555
O15 C21_5 1_555 1_555
C24_5 C25_5 1_555 1_555
C25_5 C13_5 1_555 1_555
C26_5 C15_5 1_555 1_555
H12_5 C26_5 1_555 1_555
O8_5 C24_5 1_555 1_555
O9_5 C24_5 1_555 1_555
Cu5_3 O9_5 1_555 1_555
Cu7_3 O8_5 1_555 1_555
C16_5 C17_5 1_555 1_555
C16_5 C18_5 1_555 1_555
C19_5 C20_5 1_555 1_555
C22_5 C23_5 1_555 1_555
C25_5 C26_5 1_555 1_555
O8_6 C24_6 1_555 1_555
O9_6 C24_6 1_555 1_555
Cu6_3 O9_6 1_555 1_555
Cu8_3 O8_6 1_555 1_555
C1_6 C2_6 1_555 1_555
C2_6 C3_6 1_555 1_555
C3_6 H1_6 1_555 1_555
C4_6 C2_6 1_555 1_555
H2_6 C4_6 1_555 1_555
C5_6 C4_6 1_555 1_555
C6_6 C5_6 1_555 1_555
C7_6 C6_6 1_555 1_555
H3_6 C7_6 1_555 1_555
C8_6 C6_6 1_555 1_555
C9_6 C8_6 1_555 1_555
H4_6 C9_6 1_555 1_555
C10_6 C9_6 1_555 1_555
H5_6 C10_6 1_555 1_555
O14_2 C1_6 1_555 1_555
C12_6 C13_6 1_555 1_555
C13_6 H6_6 1_555 1_555
C14_6 C12_6 1_555 1_555
H7_6 C14_6 1_555 1_555
C15_6 C14_6 1_555 1_555
C16_6 C15_6 1_555 1_555
C17_6 C10_6 1_555 1_555
H8_6 C17_6 1_555 1_555
C18_6 C8_6 1_555 1_555
C19_6 C18_6 1_555 1_555
H9_6 C19_6 1_555 1_555
C20_6 C7_6 1_555 1_555
H10_6 C20_6 1_555 1_555
C21_6 C22_6 1_555 1_555
C22_6 C3_6 1_555 1_555
C23_6 C5_6 1_555 1_555
H11_6 C23_6 1_555 1_555
O16 C21_6 1_555 1_555
C25_6 C13_6 1_555 1_555
C26_6 C15_6 1_555 1_555
H12_6 C26_6 1_555 1_555
C16_6 C17_6 1_555 1_555
C16_6 C18_6 1_555 1_555
C19_6 C20_6 1_555 1_555
C22_6 C23_6 1_555 1_555
C25_6 C26_6 1_555 1_555
O4_6 C11_6 1_555 1_555
O5_6 C11_6 1_555 1_555
Cu5_3 O5_6 1_555 1_555
Cu7_3 O4_6 1_555 1_555
C1_7 C2_7 1_555 1_555
C2_7 C3_7 1_555 1_555
C3_7 H1_7 1_555 1_555
C4_7 C2_7 1_555 1_555
H2_7 C4_7 1_555 1_555
C5_7 C4_7 1_555 1_555
C9_7 C8_7 1_555 1_555
H4_7 C9_7 1_555 1_555
C10_7 C9_7 1_555 1_555
H5_7 C10_7 1_555 1_555
Cu5 O1_4 1_555 1_555
O1_4 C1_7 1_555 1_555
O2_4 C1_7 1_555 1_555
O3_4 Cu5 1_555 1_555
C17_7 C10_7 1_555 1_555
H8_7 C17_7 1_555 1_555
C21_7 C22_7 1_555 1_555
C22_7 C3_7 1_555 1_555
C23_7 C5_7 1_555 1_555
H11_7 C23_7 1_555 1_555
O6_4 C21_7 1_555 1_555
O7_4 C21_7 1_555 1_555
Cu6 O6_4 1_555 1_555
O10_4 Cu6 1_555 1_555
Cu7 O2_4 1_555 1_555
Cu8 O7_4 1_555 1_555
O11_4 Cu6 1_555 1_555
O12_4 Cu5 1_555 1_555
C16_7 C17_7 1_555 1_555
C22_7 C23_7 1_555 1_555
C7_7 C6_7 1_555 1_555
H3_7 C7_7 1_555 1_555
C11_7 C12_7 1_555 1_555
C12_7 C13_7 1_555 1_555
C13_7 H6_7 1_555 1_555
C14_7 C12_7 1_555 1_555
H7_7 C14_7 1_555 1_555
C15_7 C14_7 1_555 1_555
C19_7 C18_7 1_555 1_555
H9_7 C19_7 1_555 1_555
C20_7 C7_7 1_555 1_555
H10_7 C20_7 1_555 1_555
O4_7 C11_7 1_555 1_555
O5_7 C11_7 1_555 1_555
C24_7 C25_7 1_555 1_555
C25_7 C13_7 1_555 1_555
C26_7 C15_7 1_555 1_555
H12_7 C26_7 1_555 1_555
O8_7 C24_7 1_555 1_555
O9_7 C24_7 1_555 1_555
Cu7_2 O9_7 1_555 1_555
Cu7_3 O5_7 1_555 1_555
Cu5_2 O8_7 1_555 1_555
Cu5_3 O4_7 1_555 1_555
C19_7 C20_7 1_555 1_555
C25_7 C26_7 1_555 1_555
C1_8 C2_8 1_555 1_555
C2_8 C3_8 1_555 1_555
C3_8 H1_8 1_555 1_555
C4_8 C2_8 1_555 1_555
H2_8 C4_8 1_555 1_555
C5_8 C4_8 1_555 1_555
C6_8 C5_8 1_555 1_555
C7_8 C6_8 1_555 1_555
H3_8 C7_8 1_555 1_555
C8_8 C6_8 1_555 1_555
C9_8 C8_8 1_555 1_555
H4_8 C9_8 1_555 1_555
C10_8 C9_8 1_555 1_555
H5_8 C10_8 1_555 1_555
O11_4 C1_8 1_555 1_555
O2_5 C1_8 1_555 1_555
C11_8 C12_8 1_555 1_555
C12_8 C13_8 1_555 1_555
C13_8 H6_8 1_555 1_555
C14_8 C12_8 1_555 1_555
H7_8 C14_8 1_555 1_555
C15_8 C14_8 1_555 1_555
C16_8 C15_8 1_555 1_555
C17_8 C10_8 1_555 1_555
H8_8 C17_8 1_555 1_555
C18_8 C8_8 1_555 1_555
C19_8 C18_8 1_555 1_555
H9_8 C19_8 1_555 1_555
C20_8 C7_8 1_555 1_555
H10_8 C20_8 1_555 1_555
O4_8 C11_8 1_555 1_555
O5_8 C11_8 1_555 1_555
C21_8 C22_8 1_555 1_555
C22_8 C3_8 1_555 1_555
C23_8 C5_8 1_555 1_555
H11_8 C23_8 1_555 1_555
O6_5 C21_8 1_555 1_555
O7_5 C21_8 1_555 1_555
C24_8 C25_8 1_555 1_555
C25_8 C13_8 1_555 1_555
C26_8 C15_8 1_555 1_555
H12_8 C26_8 1_555 1_555
O8_8 C24_8 1_555 1_555
O9_8 C24_8 1_555 1_555
Cu6_2 O6_5 1_555 1_555
O10_5 Cu6_2 1_555 1_555
Cu8 O2_5 1_555 1_555
Cu8_2 O7_5 1_555 1_555
Cu7_3 O9_8 1_555 1_555
Cu8_3 O5_8 1_555 1_555
Cu5_3 O8_8 1_555 1_555
Cu6_3 O4_8 1_555 1_555
O11_5 Cu6_2 1_555 1_555
C16_8 C17_8 1_555 1_555
C16_8 C18_8 1_555 1_555
C19_8 C20_8 1_555 1_555
C22_8 C23_8 1_555 1_555
C25_8 C26_8 1_555 1_555
C7_9 C6_9 1_555 1_555
H3_9 C7_9 1_555 1_555
C11_9 C12_9 1_555 1_555
C12_9 C13_9 1_555 1_555
C13_9 H6_9 1_555 1_555
C14_9 C12_9 1_555 1_555
H7_9 C14_9 1_555 1_555
C15_9 C14_9 1_555 1_555
C19_9 C18_9 1_555 1_555
H9_9 C19_9 1_555 1_555
C20_9 C7_9 1_555 1_555
H10_9 C20_9 1_555 1_555
O4_9 C11_9 1_555 1_555
O5_9 C11_9 1_555 1_555
C24_9 C25_9 1_555 1_555
C25_9 C13_9 1_555 1_555
C26_9 C15_9 1_555 1_555
H12_9 C26_9 1_555 1_555
O8_9 C24_9 1_555 1_555
O9_9 C24_9 1_555 1_555
Cu8_3 O9_9 1_555 1_555
Cu7_2 O5_9 1_555 1_555
Cu6_3 O8_9 1_555 1_555
Cu5_2 O4_9 1_555 1_555
C19_9 C20_9 1_555 1_555
C25_9 C26_9 1_555 1_555
C1_9 C2_9 1_555 1_555
C2_9 C3_9 1_555 1_555
C3_9 H1_9 1_555 1_555
C4_9 C2_9 1_555 1_555
H2_9 C4_9 1_555 1_555
C5_9 C4_9 1_555 1_555
C9_9 C8_9 1_555 1_555
H4_9 C9_9 1_555 1_555
C10_9 C9_9 1_555 1_555
H5_9 C10_9 1_555 1_555
O11_5 C1_9 1_555 1_555
O2_6 C1_9 1_555 1_555
C17_9 C10_9 1_555 1_555
H8_9 C17_9 1_555 1_555
C21_9 C22_9 1_555 1_555
C22_9 C3_9 1_555 1_555
C23_9 C5_9 1_555 1_555
H11_9 C23_9 1_555 1_555
O12_4 C21_9 1_555 1_555
O7_6 C21_9 1_555 1_555
Cu8_2 O2_6 1_555 1_555
Cu7 O7_6 1_555 1_555
C16_9 C17_9 1_555 1_555
C22_9 C23_9 1_555 1_555
O3_5 Cu7 1_555 1_555
O10_6 Cu8_2 1_555 1_555
O3_6 Cu8 1_555 1_555
O3_7 Cu7_2 1_555 1_555
O10_7 Cu7_3 1_555 1_555
O10_8 Cu8_3 1_555 1_555
O3_8 Cu5_2 1_555 1_555
O10_9 Cu6_3 1_555 1_555
O3_9 Cu5_3 1_555 1_555

#END
