
###############################################################################
#
# This file contains modified crystal structure data generated from the
# MOF subset of the Cambridge Structural Database (CSD) v543 
# hosted by the Cambridge Crystallographic Data Centre (CCDC).
#
# This work is licensed under the Creative Commons
# Attribution-NonCommercial-ShareAlike 4.0 International License.
# To view a copy of this license, visit
# http://creativecommons.org/licenses/by-nc-sa/4.0/
# or send a letter to
# Creative Commons, PO Box 1866, Mountain View, CA 94042, USA.
#
# CIF created using the CSD Python API on 29 September 2022
# The structure has been converted into the P1 space group
# The structure has a 3D framework
# The original CSD entry LAZHOL is in the orthorhombic crystal system
# The framework has been calculated to contain at least 10.0% void space
# The void calculation uses a probe of radius 1.32A, grid spacing 0.4
#
###############################################################################

data_LAZHOL
_chemical_formula_moiety         '(C512 H352 N64 O96 Zn12)n'
_symmetry_cell_setting           triclinic
_symmetry_space_group_name_H-M   'P 1'
_symmetry_Int_Tables_number      1
_space_group_name_Hall           'P 1'
loop_
_symmetry_equiv_pos_site_id
_symmetry_equiv_pos_as_xyz
1 x,y,z
_cell_length_a                   17.2160(6)
_cell_length_b                   28.9876(12)
_cell_length_c                   30.7307(11)
_cell_angle_alpha                90
_cell_angle_beta                 90
_cell_angle_gamma                90
_cell_volume                     15336.2
loop_
_atom_site_label
_atom_site_type_symbol
_atom_site_fract_x
_atom_site_fract_y
_atom_site_fract_z
C1 C 0.79795(19) 0.32652(13) 0.05399(10)
C2 C 0.77296(19) 0.28697(12) 0.02586(10)
C3 C 0.7868(3) 0.42827(17) 0.17770(15)
H1 H 0.8301 0.4474 0.1762
C4 C 0.4076(2) 0.45022(17) 0.35958(12)
C5 C 0.8095(2) 0.24470(13) 0.02896(11)
H2 H 0.8501 0.2409 0.0485
C6 C 0.6637(3) 0.37547(16) 0.18438(14)
H3 H 0.6211 0.3558 0.1852
C8 C 0.6652(2) 0.41367(13) 0.20979(11)
C9 C 0.7249(2) 0.36571(16) 0.15742(14)
H5 H 0.7227 0.3388 0.1409
C10 C 0.5328(3) 0.44872(16) 0.30125(13)
C11 C 0.6036(3) 0.44920(18) 0.27306(17)
C12 C 0.7281(3) 0.44078(17) 0.20549(17)
H6 H 0.7319 0.4680 0.2214
C13 C 0.4637(3) 0.4367(2) 0.28977(14)
H7 H 0.4555 0.4266 0.2614
C14 C 0.4777(4) 0.4624(4) 0.3708(2)
H8 H 0.4856 0.4721 0.3993
C15 C 0.4015(3) 0.4382(2) 0.31786(14)
H9 H 0.3526 0.4305 0.3072
C16 C 0.5411(4) 0.4621(4) 0.3432(2)
H10 H 0.5896 0.4710 0.3535
N1 N 0.78620(16) 0.39192(11) 0.15349(8)
N2 N 0.60304(17) 0.42188(11) 0.23743(9)
H11 H 0.5600 0.4083 0.2313
O1 O 0.77217(15) 0.36569(9) 0.04719(8)
O2 O 0.84489(13) 0.31703(8) 0.08467(7)
O3 O 0.6601(3) 0.47131(19) 0.28350(15)
Zn1 Zn 0.8750 0.3750 0.112200(16)
C20 C 0.3424(2) 0.45022(17) 0.39042(12)
C22 C 0.0863(3) 0.37547(16) 0.56562(14)
H14 H 0.1289 0.3558 0.5648
C23 C 0.7865(2) 0.20824(13) 0.00348(12)
H15 H 0.8115 0.1800 0.0062
C24 C 0.0848(2) 0.41367(13) 0.54021(11)
C25 C 0.0251(2) 0.36571(16) 0.59258(14)
H16 H 0.0273 0.3388 0.6091
C26 C 0.2172(3) 0.44872(16) 0.44875(13)
C27 C 0.1464(3) 0.44920(18) 0.47694(17)
C28 C 0.0219(3) 0.44078(17) 0.54451(17)
H17 H 0.0181 0.4680 0.5286
C29 C 0.2863(3) 0.4367(2) 0.46023(14)
H18 H 0.2945 0.4266 0.4886
C30 C 0.2723(4) 0.4624(4) 0.3792(2)
H19 H 0.2644 0.4721 0.3507
C31 C 0.3485(3) 0.4382(2) 0.43214(14)
H20 H 0.3974 0.4305 0.4428
C32 C 0.2089(4) 0.4621(4) 0.4068(2)
H21 H 0.1604 0.4710 0.3965
N4 N 0.96380(16) 0.35808(11) 0.15349(8)
N5 N 0.14696(17) 0.42188(11) 0.51257(9)
H22 H 0.1900 0.4083 0.5187
O6 O 0.90511(13) 0.43297(8) 0.08467(7)
O7 O 0.0899(3) 0.47131(19) 0.46650(15)
C1_2 C 0.95205(19) 0.42348(13) 0.05399(10)
C2_2 C 0.97704(19) 0.46303(12) 0.02586(10)
C3_2 C 0.9632(3) 0.32173(17) 0.17770(15)
H1_2 H 0.9199 0.3026 0.1762
C5_2 C 0.9405(2) 0.50530(13) 0.02896(11)
H2_2 H 0.8999 0.5091 0.0485
O1_2 O 0.97783(15) 0.38431(9) 0.04719(8)
C23_2 C 0.9635(2) 0.54176(13) 0.00348(12)
H15_2 H 0.9385 0.5700 0.0062
C7 C 0.0365(2) 0.29176(13) 0.75348(12)
H4 H 0.0615 0.3200 0.7562
C17 C 0.04795(19) 0.17348(13) 0.80399(10)
C18 C 0.02296(19) 0.21303(12) 0.77586(10)
C21 C 0.0595(2) 0.25530(13) 0.77896(11)
H13 H 0.1001 0.2591 0.7985
O4 O 0.02217(15) 0.13431(9) 0.79719(8)
O5 O 0.09489(13) 0.18297(8) 0.83467(7)
Zn2 Zn 0.1250 0.1250 0.862200(16)
C5_3 C 0.3095(2) 0.00530(13) 0.72104(11)
H2_3 H 0.3501 0.0091 0.7015
C17_2 C 0.20205(19) 0.07652(13) 0.80399(10)
C18_2 C 0.22704(19) 0.03697(12) 0.77586(10)
C23_3 C 0.2865(2) 0.04176(13) 0.74652(12)
H15_3 H 0.3115 0.0700 0.7438
O4_2 O 0.22783(15) 0.11569(9) 0.79719(8)
O5_2 O 0.15511(13) 0.06703(8) 0.83467(7)
C19 C 0.0368(3) 0.07173(17) 0.92770(15)
H12 H 0.0801 0.0526 0.9262
N3 N 0.03620(16) 0.10808(11) 0.90349(8)
C19_2 C 0.2132(3) 0.17827(17) 0.92770(15)
H12_2 H 0.1699 0.1974 0.9262
C22_2 C 0.3363(3) 0.12547(16) 0.93438(14)
H14_2 H 0.3789 0.1058 0.9352
C24_2 C 0.3348(2) 0.16367(13) 0.95979(11)
C25_2 C 0.2751(2) 0.11571(16) 0.90742(14)
H16_2 H 0.2773 0.0888 0.8909
C28_2 C 0.2719(3) 0.19078(17) 0.95549(17)
H17_2 H 0.2681 0.2180 0.9714
N3_2 N 0.21380(16) 0.14192(11) 0.90349(8)
N5_2 N 0.39696(17) 0.17188(11) 0.98743(9)
H22_2 H 0.4400 0.1583 0.9813
C7_2 C 0.7135(2) 0.29176(13) 0.99652(12)
H4_2 H 0.6885 0.3200 0.9938
C17_3 C 0.70205(19) 0.17348(13) 0.94601(10)
C18_3 C 0.72704(19) 0.21303(12) 0.97414(10)
C21_2 C 0.6905(2) 0.25530(13) 0.97104(11)
H13_2 H 0.6499 0.2591 0.9515
O4_3 O 0.72783(15) 0.13431(9) 0.95281(8)
O5_3 O 0.65511(13) 0.18297(8) 0.91533(7)
Zn2_2 Zn 0.6250 0.1250 0.887800(16)
C17_4 C 0.54795(19) 0.07652(13) 0.94601(10)
C18_4 C 0.52296(19) 0.03697(12) 0.97414(10)
O4_4 O 0.52217(15) 0.11569(9) 0.95281(8)
O5_4 O 0.59489(13) 0.06703(8) 0.91533(7)
C3_3 C 0.7132(3) 0.07173(17) 0.82230(15)
H1_3 H 0.6699 0.0526 0.8238
C6_2 C 0.8363(3) 0.12453(16) 0.81562(14)
H3_2 H 0.8789 0.1442 0.8148
C8_2 C 0.8348(2) 0.08633(13) 0.79021(11)
C9_2 C 0.7751(2) 0.13429(16) 0.84258(14)
H5_2 H 0.7773 0.1612 0.8591
C10_2 C 0.9672(3) 0.05128(16) 0.69875(13)
C11_2 C 0.8964(3) 0.05080(18) 0.72694(17)
C12_2 C 0.7719(3) 0.05922(17) 0.79451(17)
H6_2 H 0.7681 0.0320 0.7786
C16_2 C 0.9589(4) 0.0379(4) 0.6568(2)
H10_2 H 0.9104 0.0290 0.6465
N1_2 N 0.71380(16) 0.10808(11) 0.84651(8)
N2_2 N 0.89696(17) 0.07812(11) 0.76257(9)
H11_2 H 0.9400 0.0917 0.7687
O3_2 O 0.8399(3) 0.02869(19) 0.71650(15)
N4_2 N 0.53620(16) 0.14192(11) 0.84651(8)
C3_4 C 0.5368(3) 0.17827(17) 0.82230(15)
H1_4 H 0.5801 0.1974 0.8238
C4_2 C 0.1576(2) 0.20022(17) 0.64042(12)
C6_3 C 0.4137(3) 0.12547(16) 0.81562(14)
H3_3 H 0.3711 0.1058 0.8148
C8_3 C 0.4152(2) 0.16367(13) 0.79021(11)
C9_3 C 0.4749(2) 0.11571(16) 0.84258(14)
H5_3 H 0.4727 0.0888 0.8591
C10_3 C 0.2828(3) 0.19872(16) 0.69875(13)
C11_3 C 0.3536(3) 0.19920(18) 0.72694(17)
C12_3 C 0.4781(3) 0.19078(17) 0.79451(17)
H6_3 H 0.4819 0.2180 0.7786
C13_2 C 0.2137(3) 0.1867(2) 0.71023(14)
H7_2 H 0.2055 0.1766 0.7386
C14_2 C 0.2277(4) 0.2124(4) 0.6292(2)
H8_2 H 0.2356 0.2221 0.6007
C15_2 C 0.1515(3) 0.1882(2) 0.68214(14)
H9_2 H 0.1026 0.1805 0.6928
C16_3 C 0.2911(4) 0.2121(4) 0.6568(2)
H10_3 H 0.3396 0.2210 0.6465
N2_3 N 0.35304(17) 0.17188(11) 0.76257(9)
H11_3 H 0.3100 0.1583 0.7687
O3_3 O 0.4101(3) 0.22131(19) 0.71650(15)
C20_2 C 0.0924(2) 0.20022(17) 0.60958(12)
C29_2 C 0.0363(3) 0.1867(2) 0.53977(14)
H18_2 H 0.0445 0.1766 0.5114
C30_2 C 0.0223(4) 0.2124(4) 0.6208(2)
H19_2 H 0.0144 0.2221 0.6493
C31_2 C 0.0985(3) 0.1882(2) 0.56786(14)
H20_2 H 0.1474 0.1805 0.5572
C19_3 C 0.9632(3) 0.42827(17) 0.57230(15)
H12_3 H 0.9199 0.4474 0.5738
N3_3 N 0.96380(16) 0.39192(11) 0.59651(8)
Zn3 Zn 0.8750 0.3750 0.637800(16)
C4_3 C 0.3424(2) 0.29978(17) 0.35958(12)
C6_4 C 0.0863(3) 0.37453(16) 0.18438(14)
H3_4 H 0.1289 0.3942 0.1852
C8_4 C 0.0848(2) 0.33633(13) 0.20979(11)
C9_4 C 0.0251(2) 0.38429(16) 0.15742(14)
H5_4 H 0.0273 0.4112 0.1409
C10_4 C 0.2172(3) 0.30128(16) 0.30125(13)
C11_4 C 0.1464(3) 0.30080(18) 0.27306(17)
C12_4 C 0.0219(3) 0.30922(17) 0.20549(17)
H6_4 H 0.0181 0.2820 0.2214
C13_3 C 0.2863(3) 0.3133(2) 0.28977(14)
H7_3 H 0.2945 0.3234 0.2614
C14_3 C 0.2723(4) 0.2876(4) 0.3708(2)
H8_3 H 0.2644 0.2779 0.3993
C15_3 C 0.3485(3) 0.3118(2) 0.31786(14)
H9_3 H 0.3974 0.3195 0.3072
C16_4 C 0.2089(4) 0.2879(4) 0.3432(2)
H10_4 H 0.1604 0.2790 0.3535
N2_4 N 0.14696(17) 0.32812(11) 0.23743(9)
H11_4 H 0.1900 0.3417 0.2313
O3_4 O 0.0899(3) 0.27869(19) 0.28350(15)
C19_4 C 0.7868(3) 0.32173(17) 0.57230(15)
H12_4 H 0.8301 0.3026 0.5738
C20_3 C 0.4076(2) 0.29978(17) 0.39042(12)
C22_3 C 0.6637(3) 0.37453(16) 0.56562(14)
H14_3 H 0.6211 0.3942 0.5648
C24_3 C 0.6652(2) 0.33633(13) 0.54021(11)
C25_3 C 0.7249(2) 0.38429(16) 0.59258(14)
H16_3 H 0.7227 0.4112 0.6091
C26_2 C 0.5328(3) 0.30128(16) 0.44875(13)
C27_2 C 0.6036(3) 0.30080(18) 0.47694(17)
C28_3 C 0.7281(3) 0.30922(17) 0.54451(17)
H17_3 H 0.7319 0.2820 0.5286
C29_3 C 0.4637(3) 0.3133(2) 0.46023(14)
H18_3 H 0.4555 0.3234 0.4886
C30_3 C 0.4777(4) 0.2876(4) 0.3792(2)
H19_3 H 0.4856 0.2779 0.3507
C31_3 C 0.4015(3) 0.3118(2) 0.43214(14)
H20_3 H 0.3526 0.3195 0.4428
C32_2 C 0.5411(4) 0.2879(4) 0.4068(2)
H21_2 H 0.5896 0.2790 0.3965
N3_4 N 0.78620(16) 0.35808(11) 0.59651(8)
N5_3 N 0.60304(17) 0.32812(11) 0.51257(9)
H22_3 H 0.5600 0.3417 0.5187
O7_2 O 0.6601(3) 0.27869(19) 0.46650(15)
C1_3 C 0.95205(19) 0.32652(13) 0.69601(10)
C2_3 C 0.97704(19) 0.28697(12) 0.72414(10)
C5_4 C 0.9405(2) 0.24470(13) 0.72104(11)
H2_4 H 0.8999 0.2409 0.7015
O1_3 O 0.97783(15) 0.36569(9) 0.70281(8)
O2_2 O 0.90511(13) 0.31703(8) 0.66533(7)
C23_4 C 0.9635(2) 0.20824(13) 0.74652(12)
H15_4 H 0.9385 0.1800 0.7438
O6_2 O 0.84489(13) 0.43297(8) 0.66533(7)
C1_4 C 0.79795(19) 0.42348(13) 0.69601(10)
C2_4 C 0.77296(19) 0.46303(12) 0.72414(10)
C5_5 C 0.8095(2) 0.50530(13) 0.72104(11)
H2_5 H 0.8501 0.5091 0.7015
C7_3 C 0.7135(2) 0.45824(13) 0.75348(12)
H4_3 H 0.6885 0.4300 0.7562
O1_4 O 0.77217(15) 0.38431(9) 0.70281(8)
C17_5 C 0.70205(19) 0.57652(13) 0.80399(10)
C18_5 C 0.72704(19) 0.53697(12) 0.77586(10)
C21_3 C 0.6905(2) 0.49470(13) 0.77896(11)
H13_3 H 0.6499 0.4909 0.7985
C23_5 C 0.7865(2) 0.54176(13) 0.74652(12)
H15_5 H 0.8115 0.5700 0.7438
O4_5 O 0.72783(15) 0.61569(9) 0.79719(8)
O5_5 O 0.65511(13) 0.56703(8) 0.83467(7)
Zn2_3 Zn 0.6250 0.6250 0.862200(16)
C4_4 C 0.9076(2) 0.95022(17) 0.35958(12)
C13_4 C 0.9637(3) 0.9367(2) 0.28977(14)
H7_4 H 0.9555 0.9266 0.2614
C14_4 C 0.9777(4) 0.9624(4) 0.3708(2)
H8_4 H 0.9856 0.9721 0.3993
C15_4 C 0.9015(3) 0.9382(2) 0.31786(14)
H9_4 H 0.8526 0.9305 0.3072
C19_5 C 0.4632(3) 0.92827(17) 0.57230(15)
H12_5 H 0.4199 0.9474 0.5738
C20_4 C 0.8424(2) 0.95022(17) 0.39042(12)
C22_4 C 0.5863(3) 0.87547(16) 0.56562(14)
H14_4 H 0.6289 0.8558 0.5648
C24_4 C 0.5848(2) 0.91367(13) 0.54021(11)
C25_4 C 0.5251(2) 0.86571(16) 0.59258(14)
H16_4 H 0.5273 0.8388 0.6091
C26_3 C 0.7172(3) 0.94872(16) 0.44875(13)
C27_3 C 0.6464(3) 0.94920(18) 0.47694(17)
C28_4 C 0.5219(3) 0.94078(17) 0.54451(17)
H17_4 H 0.5181 0.9680 0.5286
C29_4 C 0.7863(3) 0.9367(2) 0.46023(14)
H18_4 H 0.7945 0.9266 0.4886
C30_4 C 0.7723(4) 0.9624(4) 0.3792(2)
H19_4 H 0.7644 0.9721 0.3507
C31_4 C 0.8485(3) 0.9382(2) 0.43214(14)
H20_4 H 0.8974 0.9305 0.4428
C32_3 C 0.7089(4) 0.9621(4) 0.4068(2)
H21_3 H 0.6604 0.9710 0.3965
N3_5 N 0.46380(16) 0.89192(11) 0.59651(8)
N5_4 N 0.64696(17) 0.92188(11) 0.51257(9)
H22_4 H 0.6900 0.9083 0.5187
O7_3 O 0.5899(3) 0.97131(19) 0.46650(15)
Zn3_2 Zn 0.3750 0.8750 0.637800(16)
C19_6 C 0.2868(3) 0.82173(17) 0.57230(15)
H12_6 H 0.3301 0.8026 0.5738
C22_5 C 0.1637(3) 0.87453(16) 0.56562(14)
H14_5 H 0.1211 0.8942 0.5648
C24_5 C 0.1652(2) 0.83633(13) 0.54021(11)
C25_5 C 0.2249(2) 0.88429(16) 0.59258(14)
H16_5 H 0.2227 0.9112 0.6091
C26_4 C 0.0328(3) 0.80128(16) 0.44875(13)
C27_4 C 0.1036(3) 0.80080(18) 0.47694(17)
C28_5 C 0.2281(3) 0.80922(17) 0.54451(17)
H17_5 H 0.2319 0.7820 0.5286
C32_4 C 0.0411(4) 0.7879(4) 0.4068(2)
H21_4 H 0.0896 0.7790 0.3965
N3_6 N 0.28620(16) 0.85808(11) 0.59651(8)
N5_5 N 0.10304(17) 0.82812(11) 0.51257(9)
H22_5 H 0.0600 0.8417 0.5187
O7_4 O 0.1601(3) 0.77869(19) 0.46650(15)
C1_5 C 0.45205(19) 0.82652(13) 0.69601(10)
C2_5 C 0.47704(19) 0.78697(12) 0.72414(10)
C5_6 C 0.4405(2) 0.74470(13) 0.72104(11)
H2_6 H 0.3999 0.7409 0.7015
C7_4 C 0.5365(2) 0.79176(13) 0.75348(12)
H4_4 H 0.5615 0.8200 0.7562
O1_5 O 0.47783(15) 0.86569(9) 0.70281(8)
O2_3 O 0.40511(13) 0.81703(8) 0.66533(7)
C17_6 C 0.54795(19) 0.67348(13) 0.80399(10)
C18_6 C 0.52296(19) 0.71303(12) 0.77586(10)
C21_4 C 0.5595(2) 0.75530(13) 0.77896(11)
H13_4 H 0.6001 0.7591 0.7985
C23_6 C 0.4635(2) 0.70824(13) 0.74652(12)
H15_6 H 0.4385 0.6800 0.7438
O4_6 O 0.52217(15) 0.63431(9) 0.79719(8)
O5_6 O 0.59489(13) 0.68297(8) 0.83467(7)
O6_3 O 0.34489(13) 0.93297(8) 0.66533(7)
C1_6 C 0.29795(19) 0.92348(13) 0.69601(10)
C2_6 C 0.27296(19) 0.96303(12) 0.72414(10)
C7_5 C 0.2135(2) 0.95824(13) 0.75348(12)
H4_5 H 0.1885 0.9300 0.7562
O1_6 O 0.27217(15) 0.88431(9) 0.70281(8)
C21_5 C 0.1905(2) 0.99470(13) 0.77896(11)
H13_5 H 0.1499 0.9909 0.7985
C22_6 C 0.9137(3) 0.12453(16) 0.93438(14)
H14_6 H 0.8711 0.1442 0.9352
C24_6 C 0.9152(2) 0.08633(13) 0.95979(11)
C25_6 C 0.9749(2) 0.13429(16) 0.90742(14)
H16_6 H 0.9727 0.1612 0.8909
C28_6 C 0.9781(3) 0.05922(17) 0.95549(17)
H17_6 H 0.9819 0.0320 0.9714
N5_6 N 0.85304(17) 0.07812(11) 0.98743(9)
H22_6 H 0.8100 0.0917 0.9813
C19_7 C 0.5368(3) 0.57173(17) 0.92770(15)
H12_7 H 0.5801 0.5526 0.9262
C22_7 C 0.4137(3) 0.62453(16) 0.93438(14)
H14_7 H 0.3711 0.6442 0.9352
C24_7 C 0.4152(2) 0.58633(13) 0.95979(11)
C25_7 C 0.4749(2) 0.63429(16) 0.90742(14)
H16_7 H 0.4727 0.6612 0.8909
C28_7 C 0.4781(3) 0.55922(17) 0.95549(17)
H17_7 H 0.4819 0.5320 0.9714
N3_7 N 0.53620(16) 0.60808(11) 0.90349(8)
N5_7 N 0.35304(17) 0.57812(11) 0.98743(9)
H22_7 H 0.3100 0.5917 0.9813
C19_8 C 0.7132(3) 0.67827(17) 0.92770(15)
H12_8 H 0.6699 0.6974 0.9262
C22_8 C 0.8363(3) 0.62547(16) 0.93438(14)
H14_8 H 0.8789 0.6058 0.9352
C24_8 C 0.8348(2) 0.66367(13) 0.95979(11)
C25_8 C 0.7751(2) 0.61571(16) 0.90742(14)
H16_8 H 0.7773 0.5888 0.8909
C28_8 C 0.7719(3) 0.69078(17) 0.95549(17)
H17_8 H 0.7681 0.7180 0.9714
N3_8 N 0.71380(16) 0.64192(11) 0.90349(8)
N5_8 N 0.89696(17) 0.67188(11) 0.98743(9)
H22_8 H 0.9400 0.6583 0.9813
C7_6 C 0.0365(2) 0.45824(13) 0.99652(12)
H4_6 H 0.0615 0.4300 0.9938
C17_7 C 0.04795(19) 0.57652(13) 0.94601(10)
C18_7 C 0.02296(19) 0.53697(12) 0.97414(10)
C21_6 C 0.0595(2) 0.49470(13) 0.97104(11)
H13_6 H 0.1001 0.4909 0.9515
O4_7 O 0.02217(15) 0.61569(9) 0.95281(8)
O5_7 O 0.09489(13) 0.56703(8) 0.91533(7)
Zn2_4 Zn 0.1250 0.6250 0.887800(16)
C19_9 C 0.9632(3) 0.92827(17) 0.07230(15)
H12_9 H 0.9199 0.9474 0.0738
N3_9 N 0.96380(16) 0.89192(11) 0.09651(8)
Zn3_3 Zn 0.8750 0.8750 0.137800(16)
C19_10 C 0.7868(3) 0.82173(17) 0.07230(15)
H12_10 H 0.8301 0.8026 0.0738
C22_9 C 0.6637(3) 0.87453(16) 0.06562(14)
H14_9 H 0.6211 0.8942 0.0648
C24_9 C 0.6652(2) 0.83633(13) 0.04021(11)
C25_9 C 0.7249(2) 0.88429(16) 0.09258(14)
H16_9 H 0.7227 0.9112 0.1091
C28_9 C 0.7281(3) 0.80922(17) 0.04451(17)
H17_9 H 0.7319 0.7820 0.0286
N3_10 N 0.78620(16) 0.85808(11) 0.09651(8)
N5_9 N 0.60304(17) 0.82812(11) 0.01257(9)
H22_9 H 0.5600 0.8417 0.0187
C1_7 C 0.95205(19) 0.82652(13) 0.19601(10)
C2_7 C 0.97704(19) 0.78697(12) 0.22414(10)
C5_7 C 0.9405(2) 0.74470(13) 0.22104(11)
H2_7 H 0.8999 0.7409 0.2015
O1_7 O 0.97783(15) 0.86569(9) 0.20281(8)
O2_4 O 0.90511(13) 0.81703(8) 0.16533(7)
C23_7 C 0.9635(2) 0.70824(13) 0.24652(12)
H15_7 H 0.9385 0.6800 0.2438
O6_4 O 0.84489(13) 0.93297(8) 0.16533(7)
C1_8 C 0.79795(19) 0.92348(13) 0.19601(10)
C2_8 C 0.77296(19) 0.96303(12) 0.22414(10)
C7_7 C 0.7135(2) 0.95824(13) 0.25348(12)
H4_7 H 0.6885 0.9300 0.2562
O1_8 O 0.77217(15) 0.88431(9) 0.20281(8)
C21_7 C 0.6905(2) 0.99470(13) 0.27896(11)
H13_7 H 0.6499 0.9909 0.2985
C7_8 C 0.2135(2) 0.79176(13) 0.99652(12)
H4_8 H 0.1885 0.8200 0.9938
C17_8 C 0.20205(19) 0.67348(13) 0.94601(10)
C18_8 C 0.22704(19) 0.71303(12) 0.97414(10)
C21_8 C 0.1905(2) 0.75530(13) 0.97104(11)
H13_8 H 0.1499 0.7591 0.9515
O4_8 O 0.22783(15) 0.63431(9) 0.95281(8)
O5_8 O 0.15511(13) 0.68297(8) 0.91533(7)
C3_5 C 0.2132(3) 0.57173(17) 0.82230(15)
H1_5 H 0.1699 0.5526 0.8238
C4_5 C 0.5924(2) 0.54978(17) 0.64042(12)
C6_5 C 0.3363(3) 0.62453(16) 0.81562(14)
H3_5 H 0.3789 0.6442 0.8148
C8_5 C 0.3348(2) 0.58633(13) 0.79021(11)
C9_5 C 0.2751(2) 0.63429(16) 0.84258(14)
H5_5 H 0.2773 0.6612 0.8591
C10_5 C 0.4672(3) 0.55128(16) 0.69875(13)
C11_5 C 0.3964(3) 0.55080(18) 0.72694(17)
C12_5 C 0.2719(3) 0.55922(17) 0.79451(17)
H6_5 H 0.2681 0.5320 0.7786
C13_5 C 0.5363(3) 0.5633(2) 0.71023(14)
H7_5 H 0.5445 0.5734 0.7386
C14_5 C 0.5223(4) 0.5376(4) 0.6292(2)
H8_5 H 0.5144 0.5279 0.6007
C15_5 C 0.5985(3) 0.5618(2) 0.68214(14)
H9_5 H 0.6474 0.5695 0.6928
C16_5 C 0.4589(4) 0.5379(4) 0.6568(2)
H10_5 H 0.4104 0.5290 0.6465
N1_3 N 0.21380(16) 0.60808(11) 0.84651(8)
N2_5 N 0.39696(17) 0.57812(11) 0.76257(9)
H11_5 H 0.4400 0.5917 0.7687
O3_5 O 0.3399(3) 0.52869(19) 0.71650(15)
C20_5 C 0.6576(2) 0.54978(17) 0.60958(12)
C22_10 C 0.9137(3) 0.62453(16) 0.43438(14)
H14_10 H 0.8711 0.6442 0.4352
C24_10 C 0.9152(2) 0.58633(13) 0.45979(11)
C25_10 C 0.9749(2) 0.63429(16) 0.40742(14)
H16_10 H 0.9727 0.6612 0.3909
C26_5 C 0.7828(3) 0.55128(16) 0.55125(13)
C27_5 C 0.8536(3) 0.55080(18) 0.52306(17)
C28_10 C 0.9781(3) 0.55922(17) 0.45549(17)
H17_10 H 0.9819 0.5320 0.4714
C29_5 C 0.7137(3) 0.5633(2) 0.53977(14)
H18_5 H 0.7055 0.5734 0.5114
C30_5 C 0.7277(4) 0.5376(4) 0.6208(2)
H19_5 H 0.7356 0.5279 0.6493
C31_5 C 0.6515(3) 0.5618(2) 0.56786(14)
H20_5 H 0.6026 0.5695 0.5572
C32_5 C 0.7911(4) 0.5379(4) 0.5932(2)
H21_5 H 0.8396 0.5290 0.6035
N4_3 N 0.03620(16) 0.64192(11) 0.84651(8)
N5_10 N 0.85304(17) 0.57812(11) 0.48743(9)
H22_10 H 0.8100 0.5917 0.4813
O7_5 O 0.9101(3) 0.52869(19) 0.53350(15)
C3_6 C 0.0368(3) 0.67827(17) 0.82230(15)
H1_6 H 0.0801 0.6974 0.8238
C22_11 C 0.0863(3) 0.87547(16) 0.06562(14)
H14_11 H 0.1289 0.8558 0.0648
C24_11 C 0.0848(2) 0.91367(13) 0.04021(11)
C25_11 C 0.0251(2) 0.86571(16) 0.09258(14)
H16_11 H 0.0273 0.8388 0.1091
C28_11 C 0.0219(3) 0.94078(17) 0.04451(17)
H17_11 H 0.0181 0.9680 0.0286
N5_11 N 0.14696(17) 0.92188(11) 0.01257(9)
H22_11 H 0.1900 0.9083 0.0187
C7_9 C 0.0365(2) 0.79176(13) 0.25348(12)
H4_9 H 0.0615 0.8200 0.2562
C17_9 C 0.04795(19) 0.67348(13) 0.30399(10)
C18_9 C 0.02296(19) 0.71303(12) 0.27586(10)
C21_9 C 0.0595(2) 0.75530(13) 0.27896(11)
H13_9 H 0.1001 0.7591 0.2985
O4_9 O 0.02217(15) 0.63431(9) 0.29719(8)
O5_9 O 0.09489(13) 0.68297(8) 0.33467(7)
Zn2_5 Zn 0.1250 0.6250 0.362200(16)
C5_8 C 0.8095(2) 0.00530(13) 0.22104(11)
H2_8 H 0.8501 0.0091 0.2015
C17_10 C 0.70205(19) 0.07652(13) 0.30399(10)
C18_10 C 0.72704(19) 0.03697(12) 0.27586(10)
C23_8 C 0.7865(2) 0.04176(13) 0.24652(12)
H15_8 H 0.8115 0.0700 0.2438
O4_10 O 0.72783(15) 0.11569(9) 0.29719(8)
O5_10 O 0.65511(13) 0.06703(8) 0.33467(7)
Zn2_6 Zn 0.6250 0.1250 0.362200(16)
C19_11 C 0.4632(3) 0.42827(17) 0.07230(15)
H12_11 H 0.4199 0.4474 0.0738
C22_12 C 0.5863(3) 0.37547(16) 0.06562(14)
H14_12 H 0.6289 0.3558 0.0648
C24_12 C 0.5848(2) 0.41367(13) 0.04021(11)
C25_12 C 0.5251(2) 0.36571(16) 0.09258(14)
H16_12 H 0.5273 0.3388 0.1091
C28_12 C 0.5219(3) 0.44078(17) 0.04451(17)
H17_12 H 0.5181 0.4680 0.0286
N3_11 N 0.46380(16) 0.39192(11) 0.09651(8)
N5_12 N 0.64696(17) 0.42188(11) 0.01257(9)
H22_12 H 0.6900 0.4083 0.0187
Zn3_4 Zn 0.3750 0.3750 0.137800(16)
C19_12 C 0.2868(3) 0.32173(17) 0.07230(15)
H12_12 H 0.3301 0.3026 0.0738
C22_13 C 0.1637(3) 0.37453(16) 0.06562(14)
H14_13 H 0.1211 0.3942 0.0648
C24_13 C 0.1652(2) 0.33633(13) 0.04021(11)
C25_13 C 0.2249(2) 0.38429(16) 0.09258(14)
H16_13 H 0.2227 0.4112 0.1091
C28_13 C 0.2281(3) 0.30922(17) 0.04451(17)
H17_13 H 0.2319 0.2820 0.0286
N3_12 N 0.28620(16) 0.35808(11) 0.09651(8)
N5_13 N 0.10304(17) 0.32812(11) 0.01257(9)
H22_13 H 0.0600 0.3417 0.0187
C1_9 C 0.45205(19) 0.32652(13) 0.19601(10)
C2_9 C 0.47704(19) 0.28697(12) 0.22414(10)
C5_9 C 0.4405(2) 0.24470(13) 0.22104(11)
H2_9 H 0.3999 0.2409 0.2015
C7_10 C 0.5365(2) 0.29176(13) 0.25348(12)
H4_10 H 0.5615 0.3200 0.2562
O1_9 O 0.47783(15) 0.36569(9) 0.20281(8)
O2_5 O 0.40511(13) 0.31703(8) 0.16533(7)
C17_11 C 0.54795(19) 0.17348(13) 0.30399(10)
C18_11 C 0.52296(19) 0.21303(12) 0.27586(10)
C21_10 C 0.5595(2) 0.25530(13) 0.27896(11)
H13_10 H 0.6001 0.2591 0.2985
C23_9 C 0.4635(2) 0.20824(13) 0.24652(12)
H15_9 H 0.4385 0.1800 0.2438
O4_11 O 0.52217(15) 0.13431(9) 0.29719(8)
O5_11 O 0.59489(13) 0.18297(8) 0.33467(7)
O6_5 O 0.34489(13) 0.43297(8) 0.16533(7)
C1_10 C 0.29795(19) 0.42348(13) 0.19601(10)
C2_10 C 0.27296(19) 0.46303(12) 0.22414(10)
C5_10 C 0.3095(2) 0.50530(13) 0.22104(11)
H2_10 H 0.3501 0.5091 0.2015
C7_11 C 0.2135(2) 0.45824(13) 0.25348(12)
H4_11 H 0.1885 0.4300 0.2562
O1_10 O 0.27217(15) 0.38431(9) 0.20281(8)
C17_12 C 0.20205(19) 0.57652(13) 0.30399(10)
C18_12 C 0.22704(19) 0.53697(12) 0.27586(10)
C21_11 C 0.1905(2) 0.49470(13) 0.27896(11)
H13_11 H 0.1499 0.4909 0.2985
C23_10 C 0.2865(2) 0.54176(13) 0.24652(12)
H15_10 H 0.3115 0.5700 0.2438
O4_12 O 0.22783(15) 0.61569(9) 0.29719(8)
O5_12 O 0.15511(13) 0.56703(8) 0.33467(7)
C19_13 C 0.0368(3) 0.57173(17) 0.42770(15)
H12_13 H 0.0801 0.5526 0.4262
N3_13 N 0.03620(16) 0.60808(11) 0.40349(8)
C4_6 C 0.6576(2) 0.70022(17) 0.64042(12)
C6_6 C 0.9137(3) 0.62547(16) 0.81562(14)
H3_6 H 0.8711 0.6058 0.8148
C8_6 C 0.9152(2) 0.66367(13) 0.79021(11)
C9_6 C 0.9749(2) 0.61571(16) 0.84258(14)
H5_6 H 0.9727 0.5888 0.8591
C10_6 C 0.7828(3) 0.69872(16) 0.69875(13)
C11_6 C 0.8536(3) 0.69920(18) 0.72694(17)
C12_6 C 0.9781(3) 0.69078(17) 0.79451(17)
H6_6 H 0.9819 0.7180 0.7786
C13_6 C 0.7137(3) 0.6867(2) 0.71023(14)
H7_6 H 0.7055 0.6766 0.7386
C14_6 C 0.7277(4) 0.7124(4) 0.6292(2)
H8_6 H 0.7356 0.7221 0.6007
C15_6 C 0.6515(3) 0.6882(2) 0.68214(14)
H9_6 H 0.6026 0.6805 0.6928
C16_6 C 0.7911(4) 0.7121(4) 0.6568(2)
H10_6 H 0.8396 0.7210 0.6465
N2_6 N 0.85304(17) 0.67188(11) 0.76257(9)
H11_6 H 0.8100 0.6583 0.7687
O3_6 O 0.9101(3) 0.72131(19) 0.71650(15)
C19_14 C 0.2132(3) 0.67827(17) 0.42770(15)
H12_14 H 0.1699 0.6974 0.4262
C20_6 C 0.5924(2) 0.70022(17) 0.60958(12)
C22_14 C 0.3363(3) 0.62547(16) 0.43438(14)
H14_14 H 0.3789 0.6058 0.4352
C24_14 C 0.3348(2) 0.66367(13) 0.45979(11)
C25_14 C 0.2751(2) 0.61571(16) 0.40742(14)
H16_14 H 0.2773 0.5888 0.3909
C26_6 C 0.4672(3) 0.69872(16) 0.55125(13)
C27_6 C 0.3964(3) 0.69920(18) 0.52306(17)
C28_14 C 0.2719(3) 0.69078(17) 0.45549(17)
H17_14 H 0.2681 0.7180 0.4714
C29_6 C 0.5363(3) 0.6867(2) 0.53977(14)
H18_6 H 0.5445 0.6766 0.5114
C30_6 C 0.5223(4) 0.7124(4) 0.6208(2)
H19_6 H 0.5144 0.7221 0.6493
C31_6 C 0.5985(3) 0.6882(2) 0.56786(14)
H20_6 H 0.6474 0.6805 0.5572
C32_6 C 0.4589(4) 0.7121(4) 0.5932(2)
H21_6 H 0.4104 0.7210 0.6035
N3_14 N 0.21380(16) 0.64192(11) 0.40349(8)
N5_14 N 0.39696(17) 0.67188(11) 0.48743(9)
H22_14 H 0.4400 0.6583 0.4813
O7_6 O 0.3399(3) 0.72131(19) 0.53350(15)
C4_7 C 0.0924(2) 0.04978(17) 0.64042(12)
C13_7 C 0.0363(3) 0.0633(2) 0.71023(14)
H7_7 H 0.0445 0.0734 0.7386
C14_7 C 0.0223(4) 0.0376(4) 0.6292(2)
H8_7 H 0.0144 0.0279 0.6007
C15_7 C 0.0985(3) 0.0618(2) 0.68214(14)
H9_7 H 0.1474 0.0695 0.6928
C19_15 C 0.5368(3) 0.07173(17) 0.42770(15)
H12_15 H 0.5801 0.0526 0.4262
C20_7 C 0.1576(2) 0.04978(17) 0.60958(12)
C22_15 C 0.4137(3) 0.12453(16) 0.43438(14)
H14_15 H 0.3711 0.1442 0.4352
C24_15 C 0.4152(2) 0.08633(13) 0.45979(11)
C25_15 C 0.4749(2) 0.13429(16) 0.40742(14)
H16_15 H 0.4727 0.1612 0.3909
C26_7 C 0.2828(3) 0.05128(16) 0.55125(13)
C27_7 C 0.3536(3) 0.05080(18) 0.52306(17)
C28_15 C 0.4781(3) 0.05922(17) 0.45549(17)
H17_15 H 0.4819 0.0320 0.4714
C29_7 C 0.2137(3) 0.0633(2) 0.53977(14)
H18_7 H 0.2055 0.0734 0.5114
C30_7 C 0.2277(4) 0.0376(4) 0.6208(2)
H19_7 H 0.2356 0.0279 0.6493
C31_7 C 0.1515(3) 0.0618(2) 0.56786(14)
H20_7 H 0.1026 0.0695 0.5572
C32_7 C 0.2911(4) 0.0379(4) 0.5932(2)
H21_7 H 0.3396 0.0290 0.6035
N3_15 N 0.53620(16) 0.10808(11) 0.40349(8)
N5_15 N 0.35304(17) 0.07812(11) 0.48743(9)
H22_15 H 0.3100 0.0917 0.4813
O7_7 O 0.4101(3) 0.02869(19) 0.53350(15)
C19_16 C 0.7132(3) 0.17827(17) 0.42770(15)
H12_16 H 0.6699 0.1974 0.4262
C22_16 C 0.8363(3) 0.12547(16) 0.43438(14)
H14_16 H 0.8789 0.1058 0.4352
C24_16 C 0.8348(2) 0.16367(13) 0.45979(11)
C25_16 C 0.7751(2) 0.11571(16) 0.40742(14)
H16_16 H 0.7773 0.0888 0.3909
C26_8 C 0.9672(3) 0.19872(16) 0.55125(13)
C27_8 C 0.8964(3) 0.19920(18) 0.52306(17)
C28_16 C 0.7719(3) 0.19078(17) 0.45549(17)
H17_16 H 0.7681 0.2180 0.4714
C32_8 C 0.9589(4) 0.2121(4) 0.5932(2)
H21_8 H 0.9104 0.2210 0.6035
N3_16 N 0.71380(16) 0.14192(11) 0.40349(8)
N5_16 N 0.89696(17) 0.17188(11) 0.48743(9)
H22_16 H 0.9400 0.1583 0.4813
O7_8 O 0.8399(3) 0.22131(19) 0.53350(15)
C1_11 C 0.79795(19) 0.82652(13) 0.55399(10)
C2_11 C 0.77296(19) 0.78697(12) 0.52586(10)
C3_7 C 0.7868(3) 0.92827(17) 0.67770(15)
H1_7 H 0.8301 0.9474 0.6762
C4_8 C 0.4076(2) 0.95022(17) 0.85958(12)
C5_11 C 0.8095(2) 0.74470(13) 0.52896(11)
H2_11 H 0.8501 0.7409 0.5485
C6_7 C 0.6637(3) 0.87547(16) 0.68438(14)
H3_7 H 0.6211 0.8558 0.6852
C7_12 C 0.7135(2) 0.79176(13) 0.49652(12)
H4_12 H 0.6885 0.8200 0.4938
C8_7 C 0.6652(2) 0.91367(13) 0.70979(11)
C9_7 C 0.7249(2) 0.86571(16) 0.65742(14)
H5_7 H 0.7227 0.8388 0.6409
C10_7 C 0.5328(3) 0.94872(16) 0.80125(13)
C11_7 C 0.6036(3) 0.94920(18) 0.77306(17)
C12_7 C 0.7281(3) 0.94078(17) 0.70549(17)
H6_7 H 0.7319 0.9680 0.7214
C13_8 C 0.4637(3) 0.9367(2) 0.78977(14)
H7_8 H 0.4555 0.9266 0.7614
C14_8 C 0.4777(4) 0.9624(4) 0.8708(2)
H8_8 H 0.4856 0.9721 0.8993
C15_8 C 0.4015(3) 0.9382(2) 0.81786(14)
H9_8 H 0.3526 0.9305 0.8072
C16_7 C 0.5411(4) 0.9621(4) 0.8432(2)
H10_7 H 0.5896 0.9710 0.8535
N1_4 N 0.78620(16) 0.89192(11) 0.65349(8)
N2_7 N 0.60304(17) 0.92188(11) 0.73743(9)
H11_7 H 0.5600 0.9083 0.7313
O1_11 O 0.77217(15) 0.86569(9) 0.54719(8)
O2_6 O 0.84489(13) 0.81703(8) 0.58467(7)
O3_7 O 0.6601(3) 0.97131(19) 0.78350(15)
Zn1_2 Zn 0.8750 0.8750 0.612200(16)
C17_13 C 0.70205(19) 0.67348(13) 0.44601(10)
C18_13 C 0.72704(19) 0.71303(12) 0.47414(10)
C20_8 C 0.3424(2) 0.95022(17) 0.89042(12)
C21_12 C 0.6905(2) 0.75530(13) 0.47104(11)
H13_12 H 0.6499 0.7591 0.4515
C23_11 C 0.7865(2) 0.70824(13) 0.50348(12)
H15_11 H 0.8115 0.6800 0.5062
C26_9 C 0.2172(3) 0.94872(16) 0.94875(13)
C27_9 C 0.1464(3) 0.94920(18) 0.97694(17)
C29_8 C 0.2863(3) 0.9367(2) 0.96023(14)
H18_8 H 0.2945 0.9266 0.9886
C30_8 C 0.2723(4) 0.9624(4) 0.8792(2)
H19_8 H 0.2644 0.9721 0.8507
C31_8 C 0.3485(3) 0.9382(2) 0.93214(14)
H20_8 H 0.3974 0.9305 0.9428
C32_9 C 0.2089(4) 0.9621(4) 0.9068(2)
H21_9 H 0.1604 0.9710 0.8965
N4_4 N 0.96380(16) 0.85808(11) 0.65349(8)
O4_13 O 0.72783(15) 0.63431(9) 0.45281(8)
O5_13 O 0.65511(13) 0.68297(8) 0.41533(7)
O6_6 O 0.90511(13) 0.93297(8) 0.58467(7)
O7_9 O 0.0899(3) 0.97131(19) 0.96650(15)
Zn2_7 Zn 0.6250 0.6250 0.387800(16)
C17_14 C 0.04795(19) 0.07652(13) 0.44601(10)
C18_14 C 0.02296(19) 0.03697(12) 0.47414(10)
O4_14 O 0.02217(15) 0.11569(9) 0.45281(8)
O5_14 O 0.09489(13) 0.06703(8) 0.41533(7)
Zn2_8 Zn 0.1250 0.1250 0.387800(16)
C1_12 C 0.95205(19) 0.92348(13) 0.55399(10)
C2_12 C 0.97704(19) 0.96303(12) 0.52586(10)
C3_8 C 0.9632(3) 0.82173(17) 0.67770(15)
H1_8 H 0.9199 0.8026 0.6762
O1_12 O 0.97783(15) 0.88431(9) 0.54719(8)
C1_13 C 0.29795(19) 0.32652(13) 0.55399(10)
C2_13 C 0.27296(19) 0.28697(12) 0.52586(10)
C3_9 C 0.2868(3) 0.42827(17) 0.67770(15)
H1_9 H 0.3301 0.4474 0.6762
C5_12 C 0.3095(2) 0.24470(13) 0.52896(11)
H2_12 H 0.3501 0.2409 0.5485
C6_8 C 0.1637(3) 0.37547(16) 0.68438(14)
H3_8 H 0.1211 0.3558 0.6852
C7_13 C 0.2135(2) 0.29176(13) 0.49652(12)
H4_13 H 0.1885 0.3200 0.4938
C8_8 C 0.1652(2) 0.41367(13) 0.70979(11)
C9_8 C 0.2249(2) 0.36571(16) 0.65742(14)
H5_8 H 0.2227 0.3388 0.6409
C10_8 C 0.0328(3) 0.44872(16) 0.80125(13)
C11_8 C 0.1036(3) 0.44920(18) 0.77306(17)
C12_8 C 0.2281(3) 0.44078(17) 0.70549(17)
H6_8 H 0.2319 0.4680 0.7214
C16_8 C 0.0411(4) 0.4621(4) 0.8432(2)
H10_8 H 0.0896 0.4710 0.8535
N1_5 N 0.28620(16) 0.39192(11) 0.65349(8)
N2_8 N 0.10304(17) 0.42188(11) 0.73743(9)
H11_8 H 0.0600 0.4083 0.7313
O1_13 O 0.27217(15) 0.36569(9) 0.54719(8)
O2_7 O 0.34489(13) 0.31703(8) 0.58467(7)
O3_8 O 0.1601(3) 0.47131(19) 0.78350(15)
Zn1_3 Zn 0.3750 0.3750 0.612200(16)
C17_15 C 0.20205(19) 0.17348(13) 0.44601(10)
C18_15 C 0.22704(19) 0.21303(12) 0.47414(10)
C21_13 C 0.1905(2) 0.25530(13) 0.47104(11)
H13_13 H 0.1499 0.2591 0.4515
C23_12 C 0.2865(2) 0.20824(13) 0.50348(12)
H15_12 H 0.3115 0.1800 0.5062
N4_5 N 0.46380(16) 0.35808(11) 0.65349(8)
O4_15 O 0.22783(15) 0.13431(9) 0.45281(8)
O5_15 O 0.15511(13) 0.18297(8) 0.41533(7)
O6_7 O 0.40511(13) 0.43297(8) 0.58467(7)
C1_14 C 0.45205(19) 0.42348(13) 0.55399(10)
C2_14 C 0.47704(19) 0.46303(12) 0.52586(10)
C3_10 C 0.4632(3) 0.32173(17) 0.67770(15)
H1_10 H 0.4199 0.3026 0.6762
C4_9 C 0.8424(2) 0.29978(17) 0.85958(12)
C5_13 C 0.4405(2) 0.50530(13) 0.52896(11)
H2_13 H 0.3999 0.5091 0.5485
C6_9 C 0.5863(3) 0.37453(16) 0.68438(14)
H3_9 H 0.6289 0.3942 0.6852
C7_14 C 0.5365(2) 0.45824(13) 0.49652(12)
H4_14 H 0.5615 0.4300 0.4938
C8_9 C 0.5848(2) 0.33633(13) 0.70979(11)
C9_9 C 0.5251(2) 0.38429(16) 0.65742(14)
H5_9 H 0.5273 0.4112 0.6409
C10_9 C 0.7172(3) 0.30128(16) 0.80125(13)
C11_9 C 0.6464(3) 0.30080(18) 0.77306(17)
C12_9 C 0.5219(3) 0.30922(17) 0.70549(17)
H6_9 H 0.5181 0.2820 0.7214
C13_9 C 0.7863(3) 0.3133(2) 0.78977(14)
H7_9 H 0.7945 0.3234 0.7614
C14_9 C 0.7723(4) 0.2876(4) 0.8708(2)
H8_9 H 0.7644 0.2779 0.8993
C15_9 C 0.8485(3) 0.3118(2) 0.81786(14)
H9_9 H 0.8974 0.3195 0.8072
C16_9 C 0.7089(4) 0.2879(4) 0.8432(2)
H10_9 H 0.6604 0.2790 0.8535
N2_9 N 0.64696(17) 0.32812(11) 0.73743(9)
H11_9 H 0.6900 0.3417 0.7313
O1_14 O 0.47783(15) 0.38431(9) 0.54719(8)
O3_9 O 0.5899(3) 0.27869(19) 0.78350(15)
C17_16 C 0.54795(19) 0.57652(13) 0.44601(10)
C18_16 C 0.52296(19) 0.53697(12) 0.47414(10)
C20_9 C 0.9076(2) 0.29978(17) 0.89042(12)
C21_14 C 0.5595(2) 0.49470(13) 0.47104(11)
H13_14 H 0.6001 0.4909 0.4515
C23_13 C 0.4635(2) 0.54176(13) 0.50348(12)
H15_13 H 0.4385 0.5700 0.5062
C29_9 C 0.9637(3) 0.3133(2) 0.96023(14)
H18_9 H 0.9555 0.3234 0.9886
C30_9 C 0.9777(4) 0.2876(4) 0.8792(2)
H19_9 H 0.9856 0.2779 0.8507
C31_9 C 0.9015(3) 0.3118(2) 0.93214(14)
H20_9 H 0.8526 0.3195 0.9428
O4_16 O 0.52217(15) 0.61569(9) 0.45281(8)
O5_16 O 0.59489(13) 0.56703(8) 0.41533(7)
C3_11 C 0.2132(3) 0.07173(17) 0.32230(15)
H1_11 H 0.1699 0.0526 0.3238
C4_10 C 0.5924(2) 0.04978(17) 0.14042(12)
C6_10 C 0.3363(3) 0.12453(16) 0.31562(14)
H3_10 H 0.3789 0.1442 0.3148
C8_10 C 0.3348(2) 0.08633(13) 0.29021(11)
C9_10 C 0.2751(2) 0.13429(16) 0.34258(14)
H5_10 H 0.2773 0.1612 0.3591
C10_10 C 0.4672(3) 0.05128(16) 0.19875(13)
C11_10 C 0.3964(3) 0.05080(18) 0.22694(17)
C12_10 C 0.2719(3) 0.05922(17) 0.29451(17)
H6_10 H 0.2681 0.0320 0.2786
C13_10 C 0.5363(3) 0.0633(2) 0.21023(14)
H7_10 H 0.5445 0.0734 0.2386
C14_10 C 0.5223(4) 0.0376(4) 0.1292(2)
H8_10 H 0.5144 0.0279 0.1007
C15_10 C 0.5985(3) 0.0618(2) 0.18214(14)
H9_10 H 0.6474 0.0695 0.1928
C16_10 C 0.4589(4) 0.0379(4) 0.1568(2)
H10_10 H 0.4104 0.0290 0.1465
N1_6 N 0.21380(16) 0.10808(11) 0.34651(8)
N2_10 N 0.39696(17) 0.07812(11) 0.26257(9)
H11_10 H 0.4400 0.0917 0.2687
O3_10 O 0.3399(3) 0.02869(19) 0.21650(15)
C20_10 C 0.6576(2) 0.04978(17) 0.10958(12)
C26_10 C 0.7828(3) 0.05128(16) 0.05125(13)
C27_10 C 0.8536(3) 0.05080(18) 0.02306(17)
C29_10 C 0.7137(3) 0.0633(2) 0.03977(14)
H18_10 H 0.7055 0.0734 0.0114
C30_10 C 0.7277(4) 0.0376(4) 0.1208(2)
H19_10 H 0.7356 0.0279 0.1493
C31_10 C 0.6515(3) 0.0618(2) 0.06786(14)
H20_10 H 0.6026 0.0695 0.0572
C32_10 C 0.7911(4) 0.0379(4) 0.0932(2)
H21_10 H 0.8396 0.0290 0.1035
N4_6 N 0.03620(16) 0.14192(11) 0.34651(8)
O7_10 O 0.9101(3) 0.02869(19) 0.03350(15)
C3_12 C 0.0368(3) 0.17827(17) 0.32230(15)
H1_12 H 0.0801 0.1974 0.3238
C3_13 C 0.7132(3) 0.57173(17) 0.32230(15)
H1_13 H 0.6699 0.5526 0.3238
C6_11 C 0.8363(3) 0.62453(16) 0.31562(14)
H3_11 H 0.8789 0.6442 0.3148
C8_11 C 0.8348(2) 0.58633(13) 0.29021(11)
C9_11 C 0.7751(2) 0.63429(16) 0.34258(14)
H5_11 H 0.7773 0.6612 0.3591
C10_11 C 0.9672(3) 0.55128(16) 0.19875(13)
C11_11 C 0.8964(3) 0.55080(18) 0.22694(17)
C12_11 C 0.7719(3) 0.55922(17) 0.29451(17)
H6_11 H 0.7681 0.5320 0.2786
C16_11 C 0.9589(4) 0.5379(4) 0.1568(2)
H10_11 H 0.9104 0.5290 0.1465
N1_7 N 0.71380(16) 0.60808(11) 0.34651(8)
N2_11 N 0.89696(17) 0.57812(11) 0.26257(9)
H11_11 H 0.9400 0.5917 0.2687
O3_11 O 0.8399(3) 0.52869(19) 0.21650(15)
N4_7 N 0.53620(16) 0.64192(11) 0.34651(8)
C3_14 C 0.5368(3) 0.67827(17) 0.32230(15)
H1_14 H 0.5801 0.6974 0.3238
C4_11 C 0.1576(2) 0.70022(17) 0.14042(12)
C6_12 C 0.4137(3) 0.62547(16) 0.31562(14)
H3_12 H 0.3711 0.6058 0.3148
C8_12 C 0.4152(2) 0.66367(13) 0.29021(11)
C9_12 C 0.4749(2) 0.61571(16) 0.34258(14)
H5_12 H 0.4727 0.5888 0.3591
C10_12 C 0.2828(3) 0.69872(16) 0.19875(13)
C11_12 C 0.3536(3) 0.69920(18) 0.22694(17)
C12_12 C 0.4781(3) 0.69078(17) 0.29451(17)
H6_12 H 0.4819 0.7180 0.2786
C13_11 C 0.2137(3) 0.6867(2) 0.21023(14)
H7_11 H 0.2055 0.6766 0.2386
C14_11 C 0.2277(4) 0.7124(4) 0.1292(2)
H8_11 H 0.2356 0.7221 0.1007
C15_11 C 0.1515(3) 0.6882(2) 0.18214(14)
H9_11 H 0.1026 0.6805 0.1928
C16_12 C 0.2911(4) 0.7121(4) 0.1568(2)
H10_12 H 0.3396 0.7210 0.1465
N2_12 N 0.35304(17) 0.67188(11) 0.26257(9)
H11_12 H 0.3100 0.6583 0.2687
O3_12 O 0.4101(3) 0.72131(19) 0.21650(15)
C20_11 C 0.0924(2) 0.70022(17) 0.10958(12)
C29_11 C 0.0363(3) 0.6867(2) 0.03977(14)
H18_11 H 0.0445 0.6766 0.0114
C30_11 C 0.0223(4) 0.7124(4) 0.1208(2)
H19_11 H 0.0144 0.7221 0.1493
C31_11 C 0.0985(3) 0.6882(2) 0.06786(14)
H20_11 H 0.1474 0.6805 0.0572
C4_12 C 0.3424(2) 0.79978(17) 0.85958(12)
C6_13 C 0.0863(3) 0.87453(16) 0.68438(14)
H3_13 H 0.1289 0.8942 0.6852
C7_15 C 0.0365(2) 0.95824(13) 0.49652(12)
H4_15 H 0.0615 0.9300 0.4938
C8_13 C 0.0848(2) 0.83633(13) 0.70979(11)
C9_13 C 0.0251(2) 0.88429(16) 0.65742(14)
H5_13 H 0.0273 0.9112 0.6409
C10_13 C 0.2172(3) 0.80128(16) 0.80125(13)
C11_13 C 0.1464(3) 0.80080(18) 0.77306(17)
C12_13 C 0.0219(3) 0.80922(17) 0.70549(17)
H6_13 H 0.0181 0.7820 0.7214
C13_12 C 0.2863(3) 0.8133(2) 0.78977(14)
H7_12 H 0.2945 0.8234 0.7614
C14_12 C 0.2723(4) 0.7876(4) 0.8708(2)
H8_12 H 0.2644 0.7779 0.8993
C15_12 C 0.3485(3) 0.8118(2) 0.81786(14)
H9_12 H 0.3974 0.8195 0.8072
C16_13 C 0.2089(4) 0.7879(4) 0.8432(2)
H10_13 H 0.1604 0.7790 0.8535
N2_13 N 0.14696(17) 0.82812(11) 0.73743(9)
H11_13 H 0.1900 0.8417 0.7313
O3_13 O 0.0899(3) 0.77869(19) 0.78350(15)
C20_12 C 0.4076(2) 0.79978(17) 0.89042(12)
C21_15 C 0.0595(2) 0.99470(13) 0.47104(11)
H13_15 H 0.1001 0.9909 0.4515
C26_11 C 0.5328(3) 0.80128(16) 0.94875(13)
C27_11 C 0.6036(3) 0.80080(18) 0.97694(17)
C29_12 C 0.4637(3) 0.8133(2) 0.96023(14)
H18_12 H 0.4555 0.8234 0.9886
C30_12 C 0.4777(4) 0.7876(4) 0.8792(2)
H19_12 H 0.4856 0.7779 0.8507
C31_12 C 0.4015(3) 0.8118(2) 0.93214(14)
H20_12 H 0.3526 0.8195 0.9428
C32_11 C 0.5411(4) 0.7879(4) 0.9068(2)
H21_11 H 0.5896 0.7790 0.8965
O7_11 O 0.6601(3) 0.77869(19) 0.96650(15)
C5_14 C 0.9405(2) 0.00530(13) 0.52896(11)
H2_14 H 0.8999 0.0091 0.5485
C23_14 C 0.9635(2) 0.04176(13) 0.50348(12)
H15_14 H 0.9385 0.0700 0.5062
C4_13 C 0.6576(2) 0.20022(17) 0.14042(12)
C6_14 C 0.9137(3) 0.12547(16) 0.31562(14)
H3_14 H 0.8711 0.1058 0.3148
C8_14 C 0.9152(2) 0.16367(13) 0.29021(11)
C9_14 C 0.9749(2) 0.11571(16) 0.34258(14)
H5_14 H 0.9727 0.0888 0.3591
C10_14 C 0.7828(3) 0.19872(16) 0.19875(13)
C11_14 C 0.8536(3) 0.19920(18) 0.22694(17)
C12_14 C 0.9781(3) 0.19078(17) 0.29451(17)
H6_14 H 0.9819 0.2180 0.2786
C13_13 C 0.7137(3) 0.1867(2) 0.21023(14)
H7_13 H 0.7055 0.1766 0.2386
C14_13 C 0.7277(4) 0.2124(4) 0.1292(2)
H8_13 H 0.7356 0.2221 0.1007
C15_13 C 0.6515(3) 0.1882(2) 0.18214(14)
H9_13 H 0.6026 0.1805 0.1928
C16_14 C 0.7911(4) 0.2121(4) 0.1568(2)
H10_14 H 0.8396 0.2210 0.1465
N2_14 N 0.85304(17) 0.17188(11) 0.26257(9)
H11_14 H 0.8100 0.1583 0.2687
O3_14 O 0.9101(3) 0.22131(19) 0.21650(15)
C20_13 C 0.5924(2) 0.20022(17) 0.10958(12)
C26_12 C 0.4672(3) 0.19872(16) 0.05125(13)
C27_12 C 0.3964(3) 0.19920(18) 0.02306(17)
C29_13 C 0.5363(3) 0.1867(2) 0.03977(14)
H18_13 H 0.5445 0.1766 0.0114
C30_13 C 0.5223(4) 0.2124(4) 0.1208(2)
H19_13 H 0.5144 0.2221 0.1493
C31_13 C 0.5985(3) 0.1882(2) 0.06786(14)
H20_13 H 0.6474 0.1805 0.0572
C32_12 C 0.4589(4) 0.2121(4) 0.0932(2)
H21_12 H 0.4104 0.2210 0.1035
O7_12 O 0.3399(3) 0.22131(19) 0.03350(15)
C4_14 C 0.9076(2) 0.45022(17) 0.85958(12)
C13_14 C 0.9637(3) 0.4367(2) 0.78977(14)
H7_14 H 0.9555 0.4266 0.7614
C14_14 C 0.9777(4) 0.4624(4) 0.8708(2)
H8_14 H 0.9856 0.4721 0.8993
C15_14 C 0.9015(3) 0.4382(2) 0.81786(14)
H9_14 H 0.8526 0.4305 0.8072
C20_14 C 0.8424(2) 0.45022(17) 0.89042(12)
C26_13 C 0.7172(3) 0.44872(16) 0.94875(13)
C27_13 C 0.6464(3) 0.44920(18) 0.97694(17)
C29_14 C 0.7863(3) 0.4367(2) 0.96023(14)
H18_14 H 0.7945 0.4266 0.9886
C30_14 C 0.7723(4) 0.4624(4) 0.8792(2)
H19_14 H 0.7644 0.4721 0.8507
C31_14 C 0.8485(3) 0.4382(2) 0.93214(14)
H20_14 H 0.8974 0.4305 0.9428
C32_13 C 0.7089(4) 0.4621(4) 0.9068(2)
H21_13 H 0.6604 0.4710 0.8965
O7_13 O 0.5899(3) 0.47131(19) 0.96650(15)
C26_14 C 0.0328(3) 0.30128(16) 0.94875(13)
C27_14 C 0.1036(3) 0.30080(18) 0.97694(17)
C32_14 C 0.0411(4) 0.2879(4) 0.9068(2)
H21_14 H 0.0896 0.2790 0.8965
O7_14 O 0.1601(3) 0.27869(19) 0.96650(15)
C1_15 C 0.29795(19) 0.82652(13) 0.05399(10)
C2_15 C 0.27296(19) 0.78697(12) 0.02586(10)
C3_15 C 0.2868(3) 0.92827(17) 0.17770(15)
H1_15 H 0.3301 0.9474 0.1762
C5_15 C 0.3095(2) 0.74470(13) 0.02896(11)
H2_15 H 0.3501 0.7409 0.0485
C6_15 C 0.1637(3) 0.87547(16) 0.18438(14)
H3_15 H 0.1211 0.8558 0.1852
C8_15 C 0.1652(2) 0.91367(13) 0.20979(11)
C9_15 C 0.2249(2) 0.86571(16) 0.15742(14)
H5_15 H 0.2227 0.8388 0.1409
C10_15 C 0.0328(3) 0.94872(16) 0.30125(13)
C11_15 C 0.1036(3) 0.94920(18) 0.27306(17)
C12_15 C 0.2281(3) 0.94078(17) 0.20549(17)
H6_15 H 0.2319 0.9680 0.2214
C16_15 C 0.0411(4) 0.9621(4) 0.3432(2)
H10_15 H 0.0896 0.9710 0.3535
N1_8 N 0.28620(16) 0.89192(11) 0.15349(8)
N2_15 N 0.10304(17) 0.92188(11) 0.23743(9)
H11_15 H 0.0600 0.9083 0.2313
O1_15 O 0.27217(15) 0.86569(9) 0.04719(8)
O2_8 O 0.34489(13) 0.81703(8) 0.08467(7)
O3_15 O 0.1601(3) 0.97131(19) 0.28350(15)
Zn1_4 Zn 0.3750 0.8750 0.112200(16)
C23_15 C 0.2865(2) 0.70824(13) 0.00348(12)
H15_15 H 0.3115 0.6800 0.0062
N4_8 N 0.46380(16) 0.85808(11) 0.15349(8)
O6_8 O 0.40511(13) 0.93297(8) 0.08467(7)
C1_16 C 0.45205(19) 0.92348(13) 0.05399(10)
C2_16 C 0.47704(19) 0.96303(12) 0.02586(10)
C3_16 C 0.4632(3) 0.82173(17) 0.17770(15)
H1_16 H 0.4199 0.8026 0.1762
C4_15 C 0.8424(2) 0.79978(17) 0.35958(12)
C6_16 C 0.5863(3) 0.87453(16) 0.18438(14)
H3_16 H 0.6289 0.8942 0.1852
C8_16 C 0.5848(2) 0.83633(13) 0.20979(11)
C9_16 C 0.5251(2) 0.88429(16) 0.15742(14)
H5_16 H 0.5273 0.9112 0.1409
C10_16 C 0.7172(3) 0.80128(16) 0.30125(13)
C11_16 C 0.6464(3) 0.80080(18) 0.27306(17)
C12_16 C 0.5219(3) 0.80922(17) 0.20549(17)
H6_16 H 0.5181 0.7820 0.2214
C13_15 C 0.7863(3) 0.8133(2) 0.28977(14)
H7_15 H 0.7945 0.8234 0.2614
C14_15 C 0.7723(4) 0.7876(4) 0.3708(2)
H8_15 H 0.7644 0.7779 0.3993
C15_15 C 0.8485(3) 0.8118(2) 0.31786(14)
H9_15 H 0.8974 0.8195 0.3072
C16_16 C 0.7089(4) 0.7879(4) 0.3432(2)
H10_16 H 0.6604 0.7790 0.3535
N2_16 N 0.64696(17) 0.82812(11) 0.23743(9)
H11_16 H 0.6900 0.8417 0.2313
O1_16 O 0.47783(15) 0.88431(9) 0.04719(8)
O3_16 O 0.5899(3) 0.77869(19) 0.28350(15)
C20_15 C 0.9076(2) 0.79978(17) 0.39042(12)
C29_15 C 0.9637(3) 0.8133(2) 0.46023(14)
H18_15 H 0.9555 0.8234 0.4886
C30_15 C 0.9777(4) 0.7876(4) 0.3792(2)
H19_15 H 0.9856 0.7779 0.3507
C31_15 C 0.9015(3) 0.8118(2) 0.43214(14)
H20_15 H 0.8526 0.8195 0.4428
C5_16 C 0.4405(2) 0.00530(13) 0.02896(11)
H2_16 H 0.3999 0.0091 0.0485
C23_16 C 0.4635(2) 0.04176(13) 0.00348(12)
H15_16 H 0.4385 0.0700 0.0062
C7_16 C 0.5365(2) 0.95824(13) 0.99652(12)
H4_16 H 0.5615 0.9300 0.9938
C21_16 C 0.5595(2) 0.99470(13) 0.97104(11)
H13_16 H 0.6001 0.9909 0.9515
C4_16 C 0.0924(2) 0.54978(17) 0.14042(12)
C13_16 C 0.0363(3) 0.5633(2) 0.21023(14)
H7_16 H 0.0445 0.5734 0.2386
C14_16 C 0.0223(4) 0.5376(4) 0.1292(2)
H8_16 H 0.0144 0.5279 0.1007
C15_16 C 0.0985(3) 0.5618(2) 0.18214(14)
H9_16 H 0.1474 0.5695 0.1928
C20_16 C 0.1576(2) 0.54978(17) 0.10958(12)
C26_15 C 0.2828(3) 0.55128(16) 0.05125(13)
C27_15 C 0.3536(3) 0.55080(18) 0.02306(17)
C29_16 C 0.2137(3) 0.5633(2) 0.03977(14)
H18_16 H 0.2055 0.5734 0.0114
C30_16 C 0.2277(4) 0.5376(4) 0.1208(2)
H19_16 H 0.2356 0.5279 0.1493
C31_16 C 0.1515(3) 0.5618(2) 0.06786(14)
H20_16 H 0.1026 0.5695 0.0572
C32_15 C 0.2911(4) 0.5379(4) 0.0932(2)
H21_15 H 0.3396 0.5290 0.1035
O7_15 O 0.4101(3) 0.52869(19) 0.03350(15)
C26_16 C 0.9672(3) 0.69872(16) 0.05125(13)
C27_16 C 0.8964(3) 0.69920(18) 0.02306(17)
C32_16 C 0.9589(4) 0.7121(4) 0.0932(2)
H21_16 H 0.9104 0.7210 0.1035
O7_16 O 0.8399(3) 0.72131(19) 0.03350(15)
loop_
_geom_bond_atom_site_label_1
_geom_bond_atom_site_label_2
_geom_bond_site_symmetry_1
_geom_bond_site_symmetry_2
C1 C2 1_555 1_555
C2 C5 1_555 1_555
C3 H1 1_555 1_555
C4 C14 1_555 1_555
C5 H2 1_555 1_555
C6 H3 1_555 1_555
C8 C6 1_555 1_555
C9 C6 1_555 1_555
H5 C9 1_555 1_555
C10 C11 1_555 1_555
C11 N2 1_555 1_555
C12 C3 1_555 1_555
H6 C12 1_555 1_555
C13 C10 1_555 1_555
H7 C13 1_555 1_555
C14 H8 1_555 1_555
C15 C4 1_555 1_555
H9 C15 1_555 1_555
C16 C10 1_555 1_555
H10 C16 1_555 1_555
N1 C3 1_555 1_555
N2 C8 1_555 1_555
H11 N2 1_555 1_555
O1 C1 1_555 1_555
O2 C1 1_555 1_555
O3 C11 1_555 1_555
Zn1 N1 1_555 1_555
C20 C4 1_555 1_555
C22 H14 1_555 1_555
C23 C5 1_555 1_555
H15 C23 1_555 1_555
C24 C22 1_555 1_555
C25 C22 1_555 1_555
H16 C25 1_555 1_555
C26 C27 1_555 1_555
C27 N5 1_555 1_555
H17 C28 1_555 1_555
C29 C26 1_555 1_555
H18 C29 1_555 1_555
C30 C20 1_555 1_555
H19 C30 1_555 1_555
C31 C20 1_555 1_555
H20 C31 1_555 1_555
C32 C26 1_555 1_555
H21 C32 1_555 1_555
N4 Zn1 1_555 1_555
N5 C24 1_555 1_555
H22 N5 1_555 1_555
O6 Zn1 1_555 1_555
O7 C27 1_555 1_555
C8 C12 1_555 1_555
C9 N1 1_555 1_555
C13 C15 1_555 1_555
C14 C16 1_555 1_555
O2 Zn1 1_555 1_555
C24 C28 1_555 1_555
C29 C31 1_555 1_555
C30 C32 1_555 1_555
C1_2 C2_2 1_555 1_555
C2_2 C5_2 1_555 1_555
C3_2 H1_2 1_555 1_555
C5_2 H2_2 1_555 1_555
N4 C3_2 1_555 1_555
O1_2 C1_2 1_555 1_555
O6 C1_2 1_555 1_555
C23_2 C5_2 1_555 1_555
H15_2 C23_2 1_555 1_555
H4 C7 1_555 1_555
C17 C18 1_555 1_555
C18 C21 1_555 1_555
C21 C7 1_555 1_555
H13 C21 1_555 1_555
O4 C17 1_555 1_555
O5 C17 1_555 1_555
Zn2 O5 1_555 1_555
C5_3 H2_3 1_555 1_555
C17_2 C18_2 1_555 1_555
C23_3 C5_3 1_555 1_555
H15_3 C23_3 1_555 1_555
O4_2 C17_2 1_555 1_555
O5_2 C17_2 1_555 1_555
Zn2 O5_2 1_555 1_555
C18_2 C23_3 1_555 1_555
C19 H12 1_555 1_555
N3 C19 1_555 1_555
Zn2 N3 1_555 1_555
C19_2 H12_2 1_555 1_555
C22_2 H14_2 1_555 1_555
C24_2 C22_2 1_555 1_555
C25_2 C22_2 1_555 1_555
H16_2 C25_2 1_555 1_555
C28_2 C19_2 1_555 1_555
H17_2 C28_2 1_555 1_555
N3_2 C19_2 1_555 1_555
N5_2 C24_2 1_555 1_555
H22_2 N5_2 1_555 1_555
Zn2 N3_2 1_555 1_555
C24_2 C28_2 1_555 1_555
C25_2 N3_2 1_555 1_555
H4_2 C7_2 1_555 1_555
C17_3 C18_3 1_555 1_555
C18_3 C21_2 1_555 1_555
C21_2 C7_2 1_555 1_555
H13_2 C21_2 1_555 1_555
O4_3 C17_3 1_555 1_555
O5_3 C17_3 1_555 1_555
Zn2_2 O5_3 1_555 1_555
C17_4 C18_4 1_555 1_555
O4_4 C17_4 1_555 1_555
O5_4 C17_4 1_555 1_555
Zn2_2 O5_4 1_555 1_555
C3_3 H1_3 1_555 1_555
C6_2 H3_2 1_555 1_555
C8_2 C6_2 1_555 1_555
C9_2 C6_2 1_555 1_555
H5_2 C9_2 1_555 1_555
C10_2 C11_2 1_555 1_555
C11_2 N2_2 1_555 1_555
C12_2 C3_3 1_555 1_555
H6_2 C12_2 1_555 1_555
C16_2 C10_2 1_555 1_555
H10_2 C16_2 1_555 1_555
N1_2 C3_3 1_555 1_555
N2_2 C8_2 1_555 1_555
H11_2 N2_2 1_555 1_555
O3_2 C11_2 1_555 1_555
Zn2_2 N1_2 1_555 1_555
N4_2 Zn2_2 1_555 1_555
C8_2 C12_2 1_555 1_555
C9_2 N1_2 1_555 1_555
C3_4 H1_4 1_555 1_555
C4_2 C14_2 1_555 1_555
C6_3 H3_3 1_555 1_555
C8_3 C6_3 1_555 1_555
C9_3 C6_3 1_555 1_555
H5_3 C9_3 1_555 1_555
C10_3 C11_3 1_555 1_555
C11_3 N2_3 1_555 1_555
C12_3 C3_4 1_555 1_555
H6_3 C12_3 1_555 1_555
C13_2 C10_3 1_555 1_555
H7_2 C13_2 1_555 1_555
C14_2 H8_2 1_555 1_555
C15_2 C4_2 1_555 1_555
H9_2 C15_2 1_555 1_555
C16_3 C10_3 1_555 1_555
H10_3 C16_3 1_555 1_555
N4_2 C3_4 1_555 1_555
N2_3 C8_3 1_555 1_555
H11_3 N2_3 1_555 1_555
O3_3 C11_3 1_555 1_555
C20_2 C4_2 1_555 1_555
H18_2 C29_2 1_555 1_555
C30_2 C20_2 1_555 1_555
H19_2 C30_2 1_555 1_555
C31_2 C20_2 1_555 1_555
H20_2 C31_2 1_555 1_555
C8_3 C12_3 1_555 1_555
C9_3 N4_2 1_555 1_555
C13_2 C15_2 1_555 1_555
C14_2 C16_3 1_555 1_555
C29_2 C31_2 1_555 1_555
C19_3 H12_3 1_555 1_555
N3_3 C19_3 1_555 1_555
Zn3 N3_3 1_555 1_555
C4_3 C14_3 1_555 1_555
C6_4 H3_4 1_555 1_555
C8_4 C6_4 1_555 1_555
C9_4 C6_4 1_555 1_555
H5_4 C9_4 1_555 1_555
C10_4 C11_4 1_555 1_555
C11_4 N2_4 1_555 1_555
H6_4 C12_4 1_555 1_555
C13_3 C10_4 1_555 1_555
H7_3 C13_3 1_555 1_555
C14_3 H8_3 1_555 1_555
C15_3 C4_3 1_555 1_555
H9_3 C15_3 1_555 1_555
C16_4 C10_4 1_555 1_555
H10_4 C16_4 1_555 1_555
N2_4 C8_4 1_555 1_555
H11_4 N2_4 1_555 1_555
O3_4 C11_4 1_555 1_555
C19_4 H12_4 1_555 1_555
C20_3 C4_3 1_555 1_555
C22_3 H14_3 1_555 1_555
C24_3 C22_3 1_555 1_555
C25_3 C22_3 1_555 1_555
H16_3 C25_3 1_555 1_555
C26_2 C27_2 1_555 1_555
C27_2 N5_3 1_555 1_555
C28_3 C19_4 1_555 1_555
H17_3 C28_3 1_555 1_555
C29_3 C26_2 1_555 1_555
H18_3 C29_3 1_555 1_555
C30_3 C20_3 1_555 1_555
H19_3 C30_3 1_555 1_555
C31_3 C20_3 1_555 1_555
H20_3 C31_3 1_555 1_555
C32_2 C26_2 1_555 1_555
H21_2 C32_2 1_555 1_555
N3_4 C19_4 1_555 1_555
N5_3 C24_3 1_555 1_555
H22_3 N5_3 1_555 1_555
O7_2 C27_2 1_555 1_555
Zn3 N3_4 1_555 1_555
C8_4 C12_4 1_555 1_555
C13_3 C15_3 1_555 1_555
C14_3 C16_4 1_555 1_555
C24_3 C28_3 1_555 1_555
C25_3 N3_4 1_555 1_555
C29_3 C31_3 1_555 1_555
C30_3 C32_2 1_555 1_555
C1_3 C2_3 1_555 1_555
C2_3 C5_4 1_555 1_555
C5_4 H2_4 1_555 1_555
O1_3 C1_3 1_555 1_555
O2_2 C1_3 1_555 1_555
C23_4 C5_4 1_555 1_555
H15_4 C23_4 1_555 1_555
O6_2 Zn3 1_555 1_555
O2_2 Zn3 1_555 1_555
C1_4 C2_4 1_555 1_555
C2_4 C5_5 1_555 1_555
C5_5 H2_5 1_555 1_555
C7_3 C2_4 1_555 1_555
H4_3 C7_3 1_555 1_555
O1_4 C1_4 1_555 1_555
O6_2 C1_4 1_555 1_555
C17_5 C18_5 1_555 1_555
C18_5 C21_3 1_555 1_555
C21_3 C7_3 1_555 1_555
H13_3 C21_3 1_555 1_555
C23_5 C5_5 1_555 1_555
H15_5 C23_5 1_555 1_555
O4_5 C17_5 1_555 1_555
O5_5 C17_5 1_555 1_555
Zn2_3 O5_5 1_555 1_555
C18_5 C23_5 1_555 1_555
C4_4 C14_4 1_555 1_555
H7_4 C13_4 1_555 1_555
C14_4 H8_4 1_555 1_555
C15_4 C4_4 1_555 1_555
H9_4 C15_4 1_555 1_555
C19_5 H12_5 1_555 1_555
C20_4 C4_4 1_555 1_555
C22_4 H14_4 1_555 1_555
C24_4 C22_4 1_555 1_555
C25_4 C22_4 1_555 1_555
H16_4 C25_4 1_555 1_555
C26_3 C27_3 1_555 1_555
C27_3 N5_4 1_555 1_555
C28_4 C19_5 1_555 1_555
H17_4 C28_4 1_555 1_555
C29_4 C26_3 1_555 1_555
H18_4 C29_4 1_555 1_555
C30_4 C20_4 1_555 1_555
H19_4 C30_4 1_555 1_555
C31_4 C20_4 1_555 1_555
H20_4 C31_4 1_555 1_555
C32_3 C26_3 1_555 1_555
H21_3 C32_3 1_555 1_555
N3_5 C19_5 1_555 1_555
N5_4 C24_4 1_555 1_555
H22_4 N5_4 1_555 1_555
O7_3 C27_3 1_555 1_555
Zn3_2 N3_5 1_555 1_555
C13_4 C15_4 1_555 1_555
C24_4 C28_4 1_555 1_555
C25_4 N3_5 1_555 1_555
C29_4 C31_4 1_555 1_555
C30_4 C32_3 1_555 1_555
C19_6 H12_6 1_555 1_555
C22_5 H14_5 1_555 1_555
C24_5 C22_5 1_555 1_555
C25_5 C22_5 1_555 1_555
H16_5 C25_5 1_555 1_555
C26_4 C27_4 1_555 1_555
C27_4 N5_5 1_555 1_555
C28_5 C19_6 1_555 1_555
H17_5 C28_5 1_555 1_555
C32_4 C26_4 1_555 1_555
H21_4 C32_4 1_555 1_555
N3_6 C19_6 1_555 1_555
N5_5 C24_5 1_555 1_555
H22_5 N5_5 1_555 1_555
O7_4 C27_4 1_555 1_555
Zn3_2 N3_6 1_555 1_555
C24_5 C28_5 1_555 1_555
C25_5 N3_6 1_555 1_555
C1_5 C2_5 1_555 1_555
C2_5 C5_6 1_555 1_555
C5_6 H2_6 1_555 1_555
C7_4 C2_5 1_555 1_555
H4_4 C7_4 1_555 1_555
O1_5 C1_5 1_555 1_555
O2_3 C1_5 1_555 1_555
C17_6 C18_6 1_555 1_555
C18_6 C21_4 1_555 1_555
C21_4 C7_4 1_555 1_555
H13_4 C21_4 1_555 1_555
C23_6 C5_6 1_555 1_555
H15_6 C23_6 1_555 1_555
O4_6 C17_6 1_555 1_555
O5_6 C17_6 1_555 1_555
O6_3 Zn3_2 1_555 1_555
Zn2_3 O5_6 1_555 1_555
O2_3 Zn3_2 1_555 1_555
C18_6 C23_6 1_555 1_555
C1_6 C2_6 1_555 1_555
C7_5 C2_6 1_555 1_555
H4_5 C7_5 1_555 1_555
O1_6 C1_6 1_555 1_555
O6_3 C1_6 1_555 1_555
C21_5 C7_5 1_555 1_555
H13_5 C21_5 1_555 1_555
C22_6 H14_6 1_555 1_555
C24_6 C22_6 1_555 1_555
C25_6 C22_6 1_555 1_555
H16_6 C25_6 1_555 1_555
H17_6 C28_6 1_555 1_555
N5_6 C24_6 1_555 1_555
H22_6 N5_6 1_555 1_555
C24_6 C28_6 1_555 1_555
C19_7 H12_7 1_555 1_555
C22_7 H14_7 1_555 1_555
C24_7 C22_7 1_555 1_555
C25_7 C22_7 1_555 1_555
H16_7 C25_7 1_555 1_555
C28_7 C19_7 1_555 1_555
H17_7 C28_7 1_555 1_555
N3_7 C19_7 1_555 1_555
N5_7 C24_7 1_555 1_555
H22_7 N5_7 1_555 1_555
Zn2_3 N3_7 1_555 1_555
C24_7 C28_7 1_555 1_555
C25_7 N3_7 1_555 1_555
C19_8 H12_8 1_555 1_555
C22_8 H14_8 1_555 1_555
C24_8 C22_8 1_555 1_555
C25_8 C22_8 1_555 1_555
H16_8 C25_8 1_555 1_555
C28_8 C19_8 1_555 1_555
H17_8 C28_8 1_555 1_555
N3_8 C19_8 1_555 1_555
N5_8 C24_8 1_555 1_555
H22_8 N5_8 1_555 1_555
Zn2_3 N3_8 1_555 1_555
C24_8 C28_8 1_555 1_555
C25_8 N3_8 1_555 1_555
H4_6 C7_6 1_555 1_555
C17_7 C18_7 1_555 1_555
C18_7 C21_6 1_555 1_555
C21_6 C7_6 1_555 1_555
H13_6 C21_6 1_555 1_555
O4_7 C17_7 1_555 1_555
O5_7 C17_7 1_555 1_555
Zn2_4 O5_7 1_555 1_555
C19_9 H12_9 1_555 1_555
N3_9 C19_9 1_555 1_555
Zn3_3 N3_9 1_555 1_555
C19_10 H12_10 1_555 1_555
C22_9 H14_9 1_555 1_555
C24_9 C22_9 1_555 1_555
C25_9 C22_9 1_555 1_555
H16_9 C25_9 1_555 1_555
C28_9 C19_10 1_555 1_555
H17_9 C28_9 1_555 1_555
N3_10 C19_10 1_555 1_555
N5_9 C24_9 1_555 1_555
H22_9 N5_9 1_555 1_555
Zn3_3 N3_10 1_555 1_555
C24_9 C28_9 1_555 1_555
C25_9 N3_10 1_555 1_555
C1_7 C2_7 1_555 1_555
C2_7 C5_7 1_555 1_555
C5_7 H2_7 1_555 1_555
O1_7 C1_7 1_555 1_555
O2_4 C1_7 1_555 1_555
C23_7 C5_7 1_555 1_555
H15_7 C23_7 1_555 1_555
O6_4 Zn3_3 1_555 1_555
O2_4 Zn3_3 1_555 1_555
C1_8 C2_8 1_555 1_555
C7_7 C2_8 1_555 1_555
H4_7 C7_7 1_555 1_555
O1_8 C1_8 1_555 1_555
O6_4 C1_8 1_555 1_555
C21_7 C7_7 1_555 1_555
H13_7 C21_7 1_555 1_555
H4_8 C7_8 1_555 1_555
C17_8 C18_8 1_555 1_555
C18_8 C21_8 1_555 1_555
C21_8 C7_8 1_555 1_555
H13_8 C21_8 1_555 1_555
O4_8 C17_8 1_555 1_555
O5_8 C17_8 1_555 1_555
Zn2_4 O5_8 1_555 1_555
C3_5 H1_5 1_555 1_555
C4_5 C14_5 1_555 1_555
C6_5 H3_5 1_555 1_555
C8_5 C6_5 1_555 1_555
C9_5 C6_5 1_555 1_555
H5_5 C9_5 1_555 1_555
C10_5 C11_5 1_555 1_555
C11_5 N2_5 1_555 1_555
C12_5 C3_5 1_555 1_555
H6_5 C12_5 1_555 1_555
C13_5 C10_5 1_555 1_555
H7_5 C13_5 1_555 1_555
C14_5 H8_5 1_555 1_555
C15_5 C4_5 1_555 1_555
H9_5 C15_5 1_555 1_555
C16_5 C10_5 1_555 1_555
H10_5 C16_5 1_555 1_555
N1_3 C3_5 1_555 1_555
N2_5 C8_5 1_555 1_555
H11_5 N2_5 1_555 1_555
O3_5 C11_5 1_555 1_555
Zn2_4 N1_3 1_555 1_555
C20_5 C4_5 1_555 1_555
C22_10 H14_10 1_555 1_555
C24_10 C22_10 1_555 1_555
C25_10 C22_10 1_555 1_555
H16_10 C25_10 1_555 1_555
C26_5 C27_5 1_555 1_555
C27_5 N5_10 1_555 1_555
H17_10 C28_10 1_555 1_555
C29_5 C26_5 1_555 1_555
H18_5 C29_5 1_555 1_555
C30_5 C20_5 1_555 1_555
H19_5 C30_5 1_555 1_555
C31_5 C20_5 1_555 1_555
H20_5 C31_5 1_555 1_555
C32_5 C26_5 1_555 1_555
H21_5 C32_5 1_555 1_555
N4_3 Zn2_4 1_555 1_555
N5_10 C24_10 1_555 1_555
H22_10 N5_10 1_555 1_555
O7_5 C27_5 1_555 1_555
C8_5 C12_5 1_555 1_555
C9_5 N1_3 1_555 1_555
C13_5 C15_5 1_555 1_555
C14_5 C16_5 1_555 1_555
C24_10 C28_10 1_555 1_555
C29_5 C31_5 1_555 1_555
C30_5 C32_5 1_555 1_555
C3_6 H1_6 1_555 1_555
N4_3 C3_6 1_555 1_555
C22_11 H14_11 1_555 1_555
C24_11 C22_11 1_555 1_555
C25_11 C22_11 1_555 1_555
H16_11 C25_11 1_555 1_555
H17_11 C28_11 1_555 1_555
N5_11 C24_11 1_555 1_555
H22_11 N5_11 1_555 1_555
C24_11 C28_11 1_555 1_555
H4_9 C7_9 1_555 1_555
C17_9 C18_9 1_555 1_555
C18_9 C21_9 1_555 1_555
C21_9 C7_9 1_555 1_555
H13_9 C21_9 1_555 1_555
O4_9 C17_9 1_555 1_555
O5_9 C17_9 1_555 1_555
Zn2_5 O5_9 1_555 1_555
C5_8 H2_8 1_555 1_555
C17_10 C18_10 1_555 1_555
C23_8 C5_8 1_555 1_555
H15_8 C23_8 1_555 1_555
O4_10 C17_10 1_555 1_555
O5_10 C17_10 1_555 1_555
Zn2_6 O5_10 1_555 1_555
C18_10 C23_8 1_555 1_555
C19_11 H12_11 1_555 1_555
C22_12 H14_12 1_555 1_555
C24_12 C22_12 1_555 1_555
C25_12 C22_12 1_555 1_555
H16_12 C25_12 1_555 1_555
C28_12 C19_11 1_555 1_555
H17_12 C28_12 1_555 1_555
N3_11 C19_11 1_555 1_555
N5_12 C24_12 1_555 1_555
H22_12 N5_12 1_555 1_555
Zn3_4 N3_11 1_555 1_555
C24_12 C28_12 1_555 1_555
C25_12 N3_11 1_555 1_555
C19_12 H12_12 1_555 1_555
C22_13 H14_13 1_555 1_555
C24_13 C22_13 1_555 1_555
C25_13 C22_13 1_555 1_555
H16_13 C25_13 1_555 1_555
C28_13 C19_12 1_555 1_555
H17_13 C28_13 1_555 1_555
N3_12 C19_12 1_555 1_555
N5_13 C24_13 1_555 1_555
H22_13 N5_13 1_555 1_555
Zn3_4 N3_12 1_555 1_555
C24_13 C28_13 1_555 1_555
C25_13 N3_12 1_555 1_555
C1_9 C2_9 1_555 1_555
C2_9 C5_9 1_555 1_555
C5_9 H2_9 1_555 1_555
C7_10 C2_9 1_555 1_555
H4_10 C7_10 1_555 1_555
O1_9 C1_9 1_555 1_555
O2_5 C1_9 1_555 1_555
C17_11 C18_11 1_555 1_555
C18_11 C21_10 1_555 1_555
C21_10 C7_10 1_555 1_555
H13_10 C21_10 1_555 1_555
C23_9 C5_9 1_555 1_555
H15_9 C23_9 1_555 1_555
O4_11 C17_11 1_555 1_555
O5_11 C17_11 1_555 1_555
O6_5 Zn3_4 1_555 1_555
Zn2_6 O5_11 1_555 1_555
O2_5 Zn3_4 1_555 1_555
C18_11 C23_9 1_555 1_555
C1_10 C2_10 1_555 1_555
C2_10 C5_10 1_555 1_555
C5_10 H2_10 1_555 1_555
C7_11 C2_10 1_555 1_555
H4_11 C7_11 1_555 1_555
O1_10 C1_10 1_555 1_555
O6_5 C1_10 1_555 1_555
C17_12 C18_12 1_555 1_555
C18_12 C21_11 1_555 1_555
C21_11 C7_11 1_555 1_555
H13_11 C21_11 1_555 1_555
C23_10 C5_10 1_555 1_555
H15_10 C23_10 1_555 1_555
O4_12 C17_12 1_555 1_555
O5_12 C17_12 1_555 1_555
Zn2_5 O5_12 1_555 1_555
C18_12 C23_10 1_555 1_555
C19_13 H12_13 1_555 1_555
N3_13 C19_13 1_555 1_555
Zn2_5 N3_13 1_555 1_555
C4_6 C14_6 1_555 1_555
C6_6 H3_6 1_555 1_555
C8_6 C6_6 1_555 1_555
C9_6 C6_6 1_555 1_555
H5_6 C9_6 1_555 1_555
C10_6 C11_6 1_555 1_555
C11_6 N2_6 1_555 1_555
H6_6 C12_6 1_555 1_555
C13_6 C10_6 1_555 1_555
H7_6 C13_6 1_555 1_555
C14_6 H8_6 1_555 1_555
C15_6 C4_6 1_555 1_555
H9_6 C15_6 1_555 1_555
C16_6 C10_6 1_555 1_555
H10_6 C16_6 1_555 1_555
N2_6 C8_6 1_555 1_555
H11_6 N2_6 1_555 1_555
O3_6 C11_6 1_555 1_555
C19_14 H12_14 1_555 1_555
C20_6 C4_6 1_555 1_555
C22_14 H14_14 1_555 1_555
C24_14 C22_14 1_555 1_555
C25_14 C22_14 1_555 1_555
H16_14 C25_14 1_555 1_555
C26_6 C27_6 1_555 1_555
C27_6 N5_14 1_555 1_555
C28_14 C19_14 1_555 1_555
H17_14 C28_14 1_555 1_555
C29_6 C26_6 1_555 1_555
H18_6 C29_6 1_555 1_555
C30_6 C20_6 1_555 1_555
H19_6 C30_6 1_555 1_555
C31_6 C20_6 1_555 1_555
H20_6 C31_6 1_555 1_555
C32_6 C26_6 1_555 1_555
H21_6 C32_6 1_555 1_555
N3_14 C19_14 1_555 1_555
N5_14 C24_14 1_555 1_555
H22_14 N5_14 1_555 1_555
O7_6 C27_6 1_555 1_555
Zn2_5 N3_14 1_555 1_555
C8_6 C12_6 1_555 1_555
C13_6 C15_6 1_555 1_555
C14_6 C16_6 1_555 1_555
C24_14 C28_14 1_555 1_555
C25_14 N3_14 1_555 1_555
C29_6 C31_6 1_555 1_555
C30_6 C32_6 1_555 1_555
C4_7 C14_7 1_555 1_555
H7_7 C13_7 1_555 1_555
C14_7 H8_7 1_555 1_555
C15_7 C4_7 1_555 1_555
H9_7 C15_7 1_555 1_555
C19_15 H12_15 1_555 1_555
C20_7 C4_7 1_555 1_555
C22_15 H14_15 1_555 1_555
C24_15 C22_15 1_555 1_555
C25_15 C22_15 1_555 1_555
H16_15 C25_15 1_555 1_555
C26_7 C27_7 1_555 1_555
C27_7 N5_15 1_555 1_555
C28_15 C19_15 1_555 1_555
H17_15 C28_15 1_555 1_555
C29_7 C26_7 1_555 1_555
H18_7 C29_7 1_555 1_555
C30_7 C20_7 1_555 1_555
H19_7 C30_7 1_555 1_555
C31_7 C20_7 1_555 1_555
H20_7 C31_7 1_555 1_555
C32_7 C26_7 1_555 1_555
H21_7 C32_7 1_555 1_555
N3_15 C19_15 1_555 1_555
N5_15 C24_15 1_555 1_555
H22_15 N5_15 1_555 1_555
O7_7 C27_7 1_555 1_555
Zn2_6 N3_15 1_555 1_555
C13_7 C15_7 1_555 1_555
C24_15 C28_15 1_555 1_555
C25_15 N3_15 1_555 1_555
C29_7 C31_7 1_555 1_555
C30_7 C32_7 1_555 1_555
C19_16 H12_16 1_555 1_555
C22_16 H14_16 1_555 1_555
C24_16 C22_16 1_555 1_555
C25_16 C22_16 1_555 1_555
H16_16 C25_16 1_555 1_555
C26_8 C27_8 1_555 1_555
C27_8 N5_16 1_555 1_555
C28_16 C19_16 1_555 1_555
H17_16 C28_16 1_555 1_555
C32_8 C26_8 1_555 1_555
H21_8 C32_8 1_555 1_555
N3_16 C19_16 1_555 1_555
N5_16 C24_16 1_555 1_555
H22_16 N5_16 1_555 1_555
O7_8 C27_8 1_555 1_555
Zn2_6 N3_16 1_555 1_555
C24_16 C28_16 1_555 1_555
C25_16 N3_16 1_555 1_555
C1_11 C2_11 1_555 1_555
C2_11 C5_11 1_555 1_555
C3_7 H1_7 1_555 1_555
C4_8 C14_8 1_555 1_555
C5_11 H2_11 1_555 1_555
C6_7 H3_7 1_555 1_555
C7_12 C2_11 1_555 1_555
H4_12 C7_12 1_555 1_555
C8_7 C6_7 1_555 1_555
C9_7 C6_7 1_555 1_555
H5_7 C9_7 1_555 1_555
C10_7 C11_7 1_555 1_555
C11_7 N2_7 1_555 1_555
C12_7 C3_7 1_555 1_555
H6_7 C12_7 1_555 1_555
C13_8 C10_7 1_555 1_555
H7_8 C13_8 1_555 1_555
C14_8 H8_8 1_555 1_555
C15_8 C4_8 1_555 1_555
H9_8 C15_8 1_555 1_555
C16_7 C10_7 1_555 1_555
H10_7 C16_7 1_555 1_555
N1_4 C3_7 1_555 1_555
N2_7 C8_7 1_555 1_555
H11_7 N2_7 1_555 1_555
O1_11 C1_11 1_555 1_555
O2_6 C1_11 1_555 1_555
O3_7 C11_7 1_555 1_555
Zn1_2 N1_4 1_555 1_555
C17_13 C18_13 1_555 1_555
C18_13 C21_12 1_555 1_555
C20_8 C4_8 1_555 1_555
C21_12 C7_12 1_555 1_555
H13_12 C21_12 1_555 1_555
C23_11 C5_11 1_555 1_555
H15_11 C23_11 1_555 1_555
C26_9 C27_9 1_555 1_555
C29_8 C26_9 1_555 1_555
H18_8 C29_8 1_555 1_555
C30_8 C20_8 1_555 1_555
H19_8 C30_8 1_555 1_555
C31_8 C20_8 1_555 1_555
H20_8 C31_8 1_555 1_555
C32_9 C26_9 1_555 1_555
H21_9 C32_9 1_555 1_555
N4_4 Zn1_2 1_555 1_555
O4_13 C17_13 1_555 1_555
O5_13 C17_13 1_555 1_555
O6_6 Zn1_2 1_555 1_555
O7_9 C27_9 1_555 1_555
Zn2_7 O5_13 1_555 1_555
C8_7 C12_7 1_555 1_555
C9_7 N1_4 1_555 1_555
C13_8 C15_8 1_555 1_555
C14_8 C16_7 1_555 1_555
O2_6 Zn1_2 1_555 1_555
C18_13 C23_11 1_555 1_555
C29_8 C31_8 1_555 1_555
C30_8 C32_9 1_555 1_555
C17_14 C18_14 1_555 1_555
O4_14 C17_14 1_555 1_555
O5_14 C17_14 1_555 1_555
Zn2_8 O5_14 1_555 1_555
C1_12 C2_12 1_555 1_555
C3_8 H1_8 1_555 1_555
N4_4 C3_8 1_555 1_555
O1_12 C1_12 1_555 1_555
O6_6 C1_12 1_555 1_555
C1_13 C2_13 1_555 1_555
C2_13 C5_12 1_555 1_555
C3_9 H1_9 1_555 1_555
C5_12 H2_12 1_555 1_555
C6_8 H3_8 1_555 1_555
C7_13 C2_13 1_555 1_555
H4_13 C7_13 1_555 1_555
C8_8 C6_8 1_555 1_555
C9_8 C6_8 1_555 1_555
H5_8 C9_8 1_555 1_555
C10_8 C11_8 1_555 1_555
C11_8 N2_8 1_555 1_555
C12_8 C3_9 1_555 1_555
H6_8 C12_8 1_555 1_555
C16_8 C10_8 1_555 1_555
H10_8 C16_8 1_555 1_555
N1_5 C3_9 1_555 1_555
N2_8 C8_8 1_555 1_555
H11_8 N2_8 1_555 1_555
O1_13 C1_13 1_555 1_555
O2_7 C1_13 1_555 1_555
O3_8 C11_8 1_555 1_555
Zn1_3 N1_5 1_555 1_555
C17_15 C18_15 1_555 1_555
C18_15 C21_13 1_555 1_555
C21_13 C7_13 1_555 1_555
H13_13 C21_13 1_555 1_555
C23_12 C5_12 1_555 1_555
H15_12 C23_12 1_555 1_555
N4_5 Zn1_3 1_555 1_555
O4_15 C17_15 1_555 1_555
O5_15 C17_15 1_555 1_555
O6_7 Zn1_3 1_555 1_555
Zn2_8 O5_15 1_555 1_555
C8_8 C12_8 1_555 1_555
C9_8 N1_5 1_555 1_555
O2_7 Zn1_3 1_555 1_555
C18_15 C23_12 1_555 1_555
C1_14 C2_14 1_555 1_555
C2_14 C5_13 1_555 1_555
C3_10 H1_10 1_555 1_555
C4_9 C14_9 1_555 1_555
C5_13 H2_13 1_555 1_555
C6_9 H3_9 1_555 1_555
C7_14 C2_14 1_555 1_555
H4_14 C7_14 1_555 1_555
C8_9 C6_9 1_555 1_555
C9_9 C6_9 1_555 1_555
H5_9 C9_9 1_555 1_555
C10_9 C11_9 1_555 1_555
C11_9 N2_9 1_555 1_555
C12_9 C3_10 1_555 1_555
H6_9 C12_9 1_555 1_555
C13_9 C10_9 1_555 1_555
H7_9 C13_9 1_555 1_555
C14_9 H8_9 1_555 1_555
C15_9 C4_9 1_555 1_555
H9_9 C15_9 1_555 1_555
C16_9 C10_9 1_555 1_555
H10_9 C16_9 1_555 1_555
N4_5 C3_10 1_555 1_555
N2_9 C8_9 1_555 1_555
H11_9 N2_9 1_555 1_555
O1_14 C1_14 1_555 1_555
O6_7 C1_14 1_555 1_555
O3_9 C11_9 1_555 1_555
C17_16 C18_16 1_555 1_555
C18_16 C21_14 1_555 1_555
C20_9 C4_9 1_555 1_555
C21_14 C7_14 1_555 1_555
H13_14 C21_14 1_555 1_555
C23_13 C5_13 1_555 1_555
H15_13 C23_13 1_555 1_555
H18_9 C29_9 1_555 1_555
C30_9 C20_9 1_555 1_555
H19_9 C30_9 1_555 1_555
C31_9 C20_9 1_555 1_555
H20_9 C31_9 1_555 1_555
O4_16 C17_16 1_555 1_555
O5_16 C17_16 1_555 1_555
Zn2_7 O5_16 1_555 1_555
C8_9 C12_9 1_555 1_555
C9_9 N4_5 1_555 1_555
C13_9 C15_9 1_555 1_555
C14_9 C16_9 1_555 1_555
C18_16 C23_13 1_555 1_555
C29_9 C31_9 1_555 1_555
C3_11 H1_11 1_555 1_555
C4_10 C14_10 1_555 1_555
C6_10 H3_10 1_555 1_555
C8_10 C6_10 1_555 1_555
C9_10 C6_10 1_555 1_555
H5_10 C9_10 1_555 1_555
C10_10 C11_10 1_555 1_555
C11_10 N2_10 1_555 1_555
C12_10 C3_11 1_555 1_555
H6_10 C12_10 1_555 1_555
C13_10 C10_10 1_555 1_555
H7_10 C13_10 1_555 1_555
C14_10 H8_10 1_555 1_555
C15_10 C4_10 1_555 1_555
H9_10 C15_10 1_555 1_555
C16_10 C10_10 1_555 1_555
H10_10 C16_10 1_555 1_555
N1_6 C3_11 1_555 1_555
N2_10 C8_10 1_555 1_555
H11_10 N2_10 1_555 1_555
O3_10 C11_10 1_555 1_555
Zn2_8 N1_6 1_555 1_555
C20_10 C4_10 1_555 1_555
C26_10 C27_10 1_555 1_555
C29_10 C26_10 1_555 1_555
H18_10 C29_10 1_555 1_555
C30_10 C20_10 1_555 1_555
H19_10 C30_10 1_555 1_555
C31_10 C20_10 1_555 1_555
H20_10 C31_10 1_555 1_555
C32_10 C26_10 1_555 1_555
H21_10 C32_10 1_555 1_555
N4_6 Zn2_8 1_555 1_555
O7_10 C27_10 1_555 1_555
C8_10 C12_10 1_555 1_555
C9_10 N1_6 1_555 1_555
C13_10 C15_10 1_555 1_555
C14_10 C16_10 1_555 1_555
C29_10 C31_10 1_555 1_555
C30_10 C32_10 1_555 1_555
C3_12 H1_12 1_555 1_555
N4_6 C3_12 1_555 1_555
C3_13 H1_13 1_555 1_555
C6_11 H3_11 1_555 1_555
C8_11 C6_11 1_555 1_555
C9_11 C6_11 1_555 1_555
H5_11 C9_11 1_555 1_555
C10_11 C11_11 1_555 1_555
C11_11 N2_11 1_555 1_555
C12_11 C3_13 1_555 1_555
H6_11 C12_11 1_555 1_555
C16_11 C10_11 1_555 1_555
H10_11 C16_11 1_555 1_555
N1_7 C3_13 1_555 1_555
N2_11 C8_11 1_555 1_555
H11_11 N2_11 1_555 1_555
O3_11 C11_11 1_555 1_555
Zn2_7 N1_7 1_555 1_555
N4_7 Zn2_7 1_555 1_555
C8_11 C12_11 1_555 1_555
C9_11 N1_7 1_555 1_555
C3_14 H1_14 1_555 1_555
C4_11 C14_11 1_555 1_555
C6_12 H3_12 1_555 1_555
C8_12 C6_12 1_555 1_555
C9_12 C6_12 1_555 1_555
H5_12 C9_12 1_555 1_555
C10_12 C11_12 1_555 1_555
C11_12 N2_12 1_555 1_555
C12_12 C3_14 1_555 1_555
H6_12 C12_12 1_555 1_555
C13_11 C10_12 1_555 1_555
H7_11 C13_11 1_555 1_555
C14_11 H8_11 1_555 1_555
C15_11 C4_11 1_555 1_555
H9_11 C15_11 1_555 1_555
C16_12 C10_12 1_555 1_555
H10_12 C16_12 1_555 1_555
N4_7 C3_14 1_555 1_555
N2_12 C8_12 1_555 1_555
H11_12 N2_12 1_555 1_555
O3_12 C11_12 1_555 1_555
C20_11 C4_11 1_555 1_555
H18_11 C29_11 1_555 1_555
C30_11 C20_11 1_555 1_555
H19_11 C30_11 1_555 1_555
C31_11 C20_11 1_555 1_555
H20_11 C31_11 1_555 1_555
C8_12 C12_12 1_555 1_555
C9_12 N4_7 1_555 1_555
C13_11 C15_11 1_555 1_555
C14_11 C16_12 1_555 1_555
C29_11 C31_11 1_555 1_555
C4_12 C14_12 1_555 1_555
C6_13 H3_13 1_555 1_555
H4_15 C7_15 1_555 1_555
C8_13 C6_13 1_555 1_555
C9_13 C6_13 1_555 1_555
H5_13 C9_13 1_555 1_555
C10_13 C11_13 1_555 1_555
C11_13 N2_13 1_555 1_555
H6_13 C12_13 1_555 1_555
C13_12 C10_13 1_555 1_555
H7_12 C13_12 1_555 1_555
C14_12 H8_12 1_555 1_555
C15_12 C4_12 1_555 1_555
H9_12 C15_12 1_555 1_555
C16_13 C10_13 1_555 1_555
H10_13 C16_13 1_555 1_555
N2_13 C8_13 1_555 1_555
H11_13 N2_13 1_555 1_555
O3_13 C11_13 1_555 1_555
C20_12 C4_12 1_555 1_555
C21_15 C7_15 1_555 1_555
H13_15 C21_15 1_555 1_555
C26_11 C27_11 1_555 1_555
C29_12 C26_11 1_555 1_555
H18_12 C29_12 1_555 1_555
C30_12 C20_12 1_555 1_555
H19_12 C30_12 1_555 1_555
C31_12 C20_12 1_555 1_555
H20_12 C31_12 1_555 1_555
C32_11 C26_11 1_555 1_555
H21_11 C32_11 1_555 1_555
O7_11 C27_11 1_555 1_555
C8_13 C12_13 1_555 1_555
C13_12 C15_12 1_555 1_555
C14_12 C16_13 1_555 1_555
C29_12 C31_12 1_555 1_555
C30_12 C32_11 1_555 1_555
C5_14 H2_14 1_555 1_555
C23_14 C5_14 1_555 1_555
H15_14 C23_14 1_555 1_555
C4_13 C14_13 1_555 1_555
C6_14 H3_14 1_555 1_555
C8_14 C6_14 1_555 1_555
C9_14 C6_14 1_555 1_555
H5_14 C9_14 1_555 1_555
C10_14 C11_14 1_555 1_555
C11_14 N2_14 1_555 1_555
H6_14 C12_14 1_555 1_555
C13_13 C10_14 1_555 1_555
H7_13 C13_13 1_555 1_555
C14_13 H8_13 1_555 1_555
C15_13 C4_13 1_555 1_555
H9_13 C15_13 1_555 1_555
C16_14 C10_14 1_555 1_555
H10_14 C16_14 1_555 1_555
N2_14 C8_14 1_555 1_555
H11_14 N2_14 1_555 1_555
O3_14 C11_14 1_555 1_555
C20_13 C4_13 1_555 1_555
C26_12 C27_12 1_555 1_555
C29_13 C26_12 1_555 1_555
H18_13 C29_13 1_555 1_555
C30_13 C20_13 1_555 1_555
H19_13 C30_13 1_555 1_555
C31_13 C20_13 1_555 1_555
H20_13 C31_13 1_555 1_555
C32_12 C26_12 1_555 1_555
H21_12 C32_12 1_555 1_555
O7_12 C27_12 1_555 1_555
C8_14 C12_14 1_555 1_555
C13_13 C15_13 1_555 1_555
C14_13 C16_14 1_555 1_555
C29_13 C31_13 1_555 1_555
C30_13 C32_12 1_555 1_555
C4_14 C14_14 1_555 1_555
H7_14 C13_14 1_555 1_555
C14_14 H8_14 1_555 1_555
C15_14 C4_14 1_555 1_555
H9_14 C15_14 1_555 1_555
C20_14 C4_14 1_555 1_555
C26_13 C27_13 1_555 1_555
C29_14 C26_13 1_555 1_555
H18_14 C29_14 1_555 1_555
C30_14 C20_14 1_555 1_555
H19_14 C30_14 1_555 1_555
C31_14 C20_14 1_555 1_555
H20_14 C31_14 1_555 1_555
C32_13 C26_13 1_555 1_555
H21_13 C32_13 1_555 1_555
O7_13 C27_13 1_555 1_555
C13_14 C15_14 1_555 1_555
C29_14 C31_14 1_555 1_555
C30_14 C32_13 1_555 1_555
C26_14 C27_14 1_555 1_555
C32_14 C26_14 1_555 1_555
H21_14 C32_14 1_555 1_555
O7_14 C27_14 1_555 1_555
C1_15 C2_15 1_555 1_555
C2_15 C5_15 1_555 1_555
C3_15 H1_15 1_555 1_555
C5_15 H2_15 1_555 1_555
C6_15 H3_15 1_555 1_555
C8_15 C6_15 1_555 1_555
C9_15 C6_15 1_555 1_555
H5_15 C9_15 1_555 1_555
C10_15 C11_15 1_555 1_555
C11_15 N2_15 1_555 1_555
C12_15 C3_15 1_555 1_555
H6_15 C12_15 1_555 1_555
C16_15 C10_15 1_555 1_555
H10_15 C16_15 1_555 1_555
N1_8 C3_15 1_555 1_555
N2_15 C8_15 1_555 1_555
H11_15 N2_15 1_555 1_555
O1_15 C1_15 1_555 1_555
O2_8 C1_15 1_555 1_555
O3_15 C11_15 1_555 1_555
Zn1_4 N1_8 1_555 1_555
C23_15 C5_15 1_555 1_555
H15_15 C23_15 1_555 1_555
N4_8 Zn1_4 1_555 1_555
O6_8 Zn1_4 1_555 1_555
C8_15 C12_15 1_555 1_555
C9_15 N1_8 1_555 1_555
O2_8 Zn1_4 1_555 1_555
C1_16 C2_16 1_555 1_555
C3_16 H1_16 1_555 1_555
C4_15 C14_15 1_555 1_555
C6_16 H3_16 1_555 1_555
C8_16 C6_16 1_555 1_555
C9_16 C6_16 1_555 1_555
H5_16 C9_16 1_555 1_555
C10_16 C11_16 1_555 1_555
C11_16 N2_16 1_555 1_555
C12_16 C3_16 1_555 1_555
H6_16 C12_16 1_555 1_555
C13_15 C10_16 1_555 1_555
H7_15 C13_15 1_555 1_555
C14_15 H8_15 1_555 1_555
C15_15 C4_15 1_555 1_555
H9_15 C15_15 1_555 1_555
C16_16 C10_16 1_555 1_555
H10_16 C16_16 1_555 1_555
N4_8 C3_16 1_555 1_555
N2_16 C8_16 1_555 1_555
H11_16 N2_16 1_555 1_555
O1_16 C1_16 1_555 1_555
O6_8 C1_16 1_555 1_555
O3_16 C11_16 1_555 1_555
C20_15 C4_15 1_555 1_555
H18_15 C29_15 1_555 1_555
C30_15 C20_15 1_555 1_555
H19_15 C30_15 1_555 1_555
C31_15 C20_15 1_555 1_555
H20_15 C31_15 1_555 1_555
C8_16 C12_16 1_555 1_555
C9_16 N4_8 1_555 1_555
C13_15 C15_15 1_555 1_555
C14_15 C16_16 1_555 1_555
C29_15 C31_15 1_555 1_555
C5_16 H2_16 1_555 1_555
C23_16 C5_16 1_555 1_555
H15_16 C23_16 1_555 1_555
H4_16 C7_16 1_555 1_555
C21_16 C7_16 1_555 1_555
H13_16 C21_16 1_555 1_555
C4_16 C14_16 1_555 1_555
H7_16 C13_16 1_555 1_555
C14_16 H8_16 1_555 1_555
C15_16 C4_16 1_555 1_555
H9_16 C15_16 1_555 1_555
C20_16 C4_16 1_555 1_555
C26_15 C27_15 1_555 1_555
C29_16 C26_15 1_555 1_555
H18_16 C29_16 1_555 1_555
C30_16 C20_16 1_555 1_555
H19_16 C30_16 1_555 1_555
C31_16 C20_16 1_555 1_555
H20_16 C31_16 1_555 1_555
C32_15 C26_15 1_555 1_555
H21_15 C32_15 1_555 1_555
O7_15 C27_15 1_555 1_555
C13_16 C15_16 1_555 1_555
C29_16 C31_16 1_555 1_555
C30_16 C32_15 1_555 1_555
C26_16 C27_16 1_555 1_555
C32_16 C26_16 1_555 1_555
H21_16 C32_16 1_555 1_555
O7_16 C27_16 1_555 1_555

#END
