
###############################################################################
#
# This file contains modified crystal structure data generated from the
# MOF subset of the Cambridge Structural Database (CSD) v543 
# hosted by the Cambridge Crystallographic Data Centre (CCDC).
#
# This work is licensed under the Creative Commons
# Attribution-NonCommercial-ShareAlike 4.0 International License.
# To view a copy of this license, visit
# http://creativecommons.org/licenses/by-nc-sa/4.0/
# or send a letter to
# Creative Commons, PO Box 1866, Mountain View, CA 94042, USA.
#
# CIF created using the CSD Python API on 29 September 2022
# The structure has been converted into the P1 space group
# The structure has a 3D framework
# The original CSD entry LAZJED is in the monoclinic crystal system
# The framework has been calculated to contain at least 10.0% void space
# The void calculation uses a probe of radius 1.32A, grid spacing 0.4
# H atom positions have been added when not included in the experimental data
#
###############################################################################

data_LAZJED
_chemical_formula_moiety         '(C172 H128 Co12 N12 O64)n'
_symmetry_cell_setting           triclinic
_symmetry_space_group_name_H-M   'P 1'
_symmetry_Int_Tables_number      1
_space_group_name_Hall           'P 1'
loop_
_symmetry_equiv_pos_site_id
_symmetry_equiv_pos_as_xyz
1 x,y,z
_cell_length_a                   9.5307(14)
_cell_length_b                   14.028(2)
_cell_length_c                   36.112(5)
_cell_angle_alpha                90
_cell_angle_beta                 95.256(3)
_cell_angle_gamma                90
_cell_volume                     4807.75
loop_
_atom_site_label
_atom_site_type_symbol
_atom_site_fract_x
_atom_site_fract_y
_atom_site_fract_z
O7 O 0.1835(3) 0.0381(2) 0.20594(8)
O8 O 0.3232(3) 0.0085(2) 0.25519(7)
Co3 Co 0.16949(5) 0.12774(4) 0.252480(13)
N5 N 0.2943(3) 0.0298(2) 0.05270(9)
N6 N 0.0268(3) 0.2168(2) 0.22135(9)
O22 O 0.3453(3) 0.2284(2) 0.24574(7)
N7 N 0.0131(3) 0.0599(2) 0.27904(8)
O23 O 0.2705(3) 0.1945(2) 0.29934(7)
O1 O 0.0946(2) 0.77450(16) 0.02360(7)
Co1 Co 0.21077(5) 0.65479(3) 0.048090(13)
Co2 Co 0.22518(5) 0.89461(3) 0.035720(13)
C10 C 0.2818(4) 0.9904(3) 0.22246(10)
C12 C 0.0417(5) 0.2316(4) 0.18555(12)
H5 H 0.1232 0.2097 0.1760
N3 N 0.0432(3) 0.6129(2) 0.07888(8)
H9 H 0.0428 0.4801 0.0645
O10 O 0.2275(3) 0.85926(19) 0.09074(7)
O11 O 0.3176(3) 0.71261(19) 0.09525(7)
O14 O 0.6547(3) 0.7284(2) 0.25426(7)
C18 C 0.3569(4) 0.8166(3) 0.14670(10)
O15 O 0.7295(3) 0.6945(2) 0.20066(7)
C20 C 0.4582(4) 0.8595(3) 0.21942(10)
H10 H 0.4903 0.8726 0.2440
C21 C 0.5211(4) 0.7874(3) 0.20046(10)
C24 C 0.2971(4) 0.7938(3) 0.10774(10)
C25 C 0.3474(4) 0.9125(3) 0.20204(10)
C27 C 0.2986(4) 0.8909(3) 0.16579(10)
H13 H 0.2255 0.9266 0.1539
C29 C 0.6423(4) 0.7340(3) 0.21959(11)
C31 C 0.4702(4) 0.7659(3) 0.16391(10)
H16 H 0.5121 0.7177 0.1511
O18 O 0.3540(2) 0.7015(2) 0.01288(8)
O19 O 0.4271(2) 0.84614(17) 0.03004(7)
O20 O 0.1526(2) 0.54977(18) 0.00395(7)
O21 O 0.3068(3) 0.5179(2) 0.05017(7)
Co9 Co 0.83051(5) 0.62774(4) 0.247520(13)
C1 C 0.9742(3) 0.8150(2) 0.02406(9)
C2 C 0.8449(3) 0.7545(2) 0.01548(9)
C3 C 0.8610(3) 0.6631(3) 0.00230(9)
C5 C 0.7117(3) 0.7893(2) 0.02055(9)
H2 H 0.7009 0.8513 0.0290
C7 C 0.5945(3) 0.7312(2) 0.01292(9)
C8 C 0.4481(4) 0.7628(3) 0.01931(10)
O6 O 0.9681(2) 0.90075(17) 0.03179(7)
C11 C 0.9096(5) 0.2514(3) 0.23374(12)
H4 H 0.8974 0.2432 0.2588
C13 C 0.9429(5) 0.2774(4) 0.16202(13)
H6 H 0.9586 0.2868 0.1372
C14 C 0.8062(5) 0.2979(3) 0.21221(12)
H7 H 0.7274 0.3214 0.2226
C15 C 0.8204(5) 0.3095(3) 0.17513(11)
O9 O 0.7230(3) 0.3479(3) 0.15041(8)
C16 C 0.9652(4) 0.6753(3) 0.09656(11)
H8 H 0.9997 0.7371 0.0999
C17 C 0.9902(4) 0.5253(3) 0.07597(12)
O12 O 0.3368(3) 0.4497(2) 0.17734(7)
O13 O 0.6598(3) 0.5449(2) 0.11837(9)
C19 C 0.4996(4) 0.4211(3) 0.13244(10)
O16 O 0.4821(3) 0.2757(2) 0.09750(9)
C22 C 0.4004(5) 0.3435(3) 0.11452(13)
H11 H 0.3495 0.3131 0.1334
H12 H 0.3324 0.3720 0.0961
C23 C 0.7848(4) 0.5624(3) 0.10536(11)
C26 C 0.2229(4) 0.4905(3) 0.19015(10)
C28 C 0.8380(5) 0.6545(3) 0.11015(11)
H14 H 0.7890 0.7008 0.1222
C30 C 0.1525(4) 0.5680(3) 0.17481(11)
H15 H 0.1823 0.5982 0.1540
C32 C 0.5763(4) 0.4671(3) 0.10163(12)
H17 H 0.6367 0.4208 0.0910
H18 H 0.5089 0.4908 0.0820
C33 C 0.0359(5) 0.6000(3) 0.19115(11)
C34 C 0.1733(5) 0.4476(3) 0.22081(12)
H20 H 0.2181 0.3943 0.2317
C35 C 0.3988(4) 0.4933(3) 0.14711(11)
H21 H 0.4494 0.5504 0.1555
H22 H 0.3264 0.5107 0.1277
C36 C 0.4126(5) 0.1968(3) 0.08270(12)
C37 C 0.0572(4) 0.4851(3) 0.23489(11)
H23 H 0.0255 0.4560 0.2557
C38 C 0.2710(6) 0.1786(3) 0.08387(14)
H24 H 0.2131 0.2217 0.0948
C39 C 0.8669(4) 0.4950(3) 0.08810(12)
H25 H 0.8377 0.4320 0.0851
C40 C 0.4921(5) 0.1354(3) 0.06520(14)
H26 H 0.5864 0.1487 0.0628
C41 C 0.5992(4) 0.3885(4) 0.16455(11)
H27 H 0.6258 0.4420 0.1807
H28 H 0.5536 0.3411 0.1789
C42 C 0.4323(5) 0.0528(3) 0.05089(14)
H29 H 0.4890 0.0102 0.0393
C43 C 0.2163(5) 0.0926(3) 0.06806(13)
H30 H 0.1207 0.0801 0.0686
H1 H 0.9506 0.6403 0.9990
C4 C 0.7438(4) 0.6049(2) 0.99398(9)
C6 C 0.6115(3) 0.6406(2) 0.99908(10)
H3 H 0.5325 0.6028 0.9931
O4 O 0.8474(2) 0.45023(18) 0.99605(7)
O5 O 0.6932(3) 0.4821(2) 0.94983(7)
C9 C 0.7621(3) 0.5070(3) 0.97960(10)
Co5 Co 0.78923(5) 0.34521(3) 0.951910(13)
N4 N 0.9869(3) 0.5599(2) 0.22096(8)
H19 H 0.9883 0.6529 0.1807
H19_2 H 0.0117 0.1529 0.3193
C1_2 C 0.0258(3) 0.3150(2) 0.47594(9)
C2_2 C 0.1551(3) 0.2545(2) 0.48452(9)
C3_2 C 0.1390(3) 0.1631(3) 0.49770(9)
H1_2 H 0.0494 0.1403 0.5010
C4_2 C 0.2562(4) 0.1049(2) 0.50602(9)
C5_2 C 0.2883(3) 0.2893(2) 0.47945(9)
H2_2 H 0.2991 0.3513 0.4710
C6_2 C 0.3885(3) 0.1406(2) 0.50092(10)
H3_2 H 0.4675 0.1028 0.5069
C7_2 C 0.4055(3) 0.2312(2) 0.48708(9)
C8_2 C 0.5519(4) 0.2628(3) 0.48069(10)
O2 O 0.6460(2) 0.2015(2) 0.48712(8)
O3 O 0.5729(2) 0.34614(17) 0.46996(7)
C9_2 C 0.2379(3) 0.0070(3) 0.52040(10)
O6_2 O 0.0319(2) 0.40075(17) 0.46821(7)
C16_2 C 0.0348(4) 0.1753(3) 0.40344(11)
H8_2 H 0.0003 0.2371 0.4001
C17_2 C 0.0098(4) 0.0253(3) 0.42403(12)
O13_2 O 0.3402(3) 0.0449(2) 0.38163(9)
C23_2 C 0.2152(4) 0.0624(3) 0.39464(11)
C28_2 C 0.1620(5) 0.1545(3) 0.38985(11)
H14_2 H 0.2110 0.2008 0.3778
C30_2 C 0.8475(4) 0.0680(3) 0.32519(11)
H15_2 H 0.8177 0.0982 0.3460
C33_2 C 0.9641(5) 0.1000(3) 0.30885(11)
H21_2 H 0.5506 0.0504 0.3445
H22_2 H 0.6736 0.0107 0.3723
Co4 Co 0.78923(5) 0.15479(3) 0.451910(13)
Co6 Co 0.77482(5) 0.39461(3) 0.464280(13)
O4_2 O 0.1526(2) 0.95023(18) 0.50395(7)
O5_2 O 0.3068(3) 0.9821(2) 0.55017(7)
N1 N 0.7057(3) 0.5298(2) 0.44730(9)
C11_2 C 0.0904(5) 0.7514(3) 0.26626(12)
H4_2 H 0.1026 0.7432 0.2412
C13_2 C 0.0571(5) 0.7774(4) 0.33798(13)
H6_2 H 0.0414 0.7868 0.3628
C14_2 C 0.1938(5) 0.7979(3) 0.28779(12)
H7_2 H 0.2726 0.8214 0.2774
C15_2 C 0.1796(5) 0.8095(3) 0.32487(11)
O9_2 O 0.2770(3) 0.8479(3) 0.34959(8)
O12_2 O 0.6632(3) 0.9497(2) 0.32266(7)
C19_2 C 0.5004(4) 0.9211(3) 0.36756(10)
O16_2 O 0.5179(3) 0.7757(2) 0.40250(9)
C22_2 C 0.5996(5) 0.8435(3) 0.38548(13)
H11_2 H 0.6505 0.8131 0.3666
H12_2 H 0.6676 0.8720 0.4039
C26_2 C 0.7771(4) 0.9905(3) 0.30985(10)
C32_2 C 0.4237(4) 0.9671(3) 0.39837(12)
H17_2 H 0.3633 0.9208 0.4090
H18_2 H 0.4911 0.9908 0.4180
C34_2 C 0.8267(5) 0.9476(3) 0.27919(12)
H20_2 H 0.7819 0.8943 0.2683
C35_2 C 0.6012(4) 0.9933(3) 0.35289(11)
C36_2 C 0.5874(5) 0.6968(3) 0.41730(12)
C37_2 C 0.9428(4) 0.9851(3) 0.26511(11)
H23_2 H 0.9745 0.9560 0.2443
C38_2 C 0.7290(6) 0.6786(3) 0.41613(14)
H24_2 H 0.7869 0.7217 0.4052
C39_2 C 0.1331(4) 0.9950(3) 0.41190(12)
H25_2 H 0.1623 0.9320 0.4149
C40_2 C 0.5079(5) 0.6354(3) 0.43480(14)
H26_2 H 0.4136 0.6487 0.4372
C41_2 C 0.4008(4) 0.8885(4) 0.33545(11)
H27_2 H 0.3742 0.9420 0.3193
H28_2 H 0.4464 0.8411 0.3211
C42_2 C 0.5677(5) 0.5528(3) 0.44911(14)
H29_2 H 0.5110 0.5102 0.4607
C43_2 C 0.7837(5) 0.5926(3) 0.43194(13)
H30_2 H 0.8793 0.5801 0.4314
Co5_2 Co 0.21077(5) 0.84521(3) 0.548090(13)
O1_2 O 0.9054(2) 0.27450(16) 0.47640(7)
O7_2 O 0.8165(3) 0.5381(2) 0.29406(8)
O8_2 O 0.6768(3) 0.5085(2) 0.24481(7)
C10_2 C 0.7182(4) 0.4904(3) 0.27754(10)
N3_2 N 0.9568(3) 0.1129(2) 0.42112(8)
O10_2 O 0.7725(3) 0.35926(19) 0.40926(7)
O11_2 O 0.6824(3) 0.21261(19) 0.40475(7)
C18_2 C 0.6431(4) 0.3166(3) 0.35330(10)
C20_2 C 0.5418(4) 0.3595(3) 0.28058(10)
H10_2 H 0.5097 0.3726 0.2560
C21_2 C 0.4789(4) 0.2874(3) 0.29954(10)
C24_2 C 0.7029(4) 0.2938(3) 0.39226(10)
C25_2 C 0.6526(4) 0.4125(3) 0.29796(10)
C27_2 C 0.7014(4) 0.3909(3) 0.33421(10)
H13_2 H 0.7745 0.4266 0.3461
C29_2 C 0.3577(4) 0.2340(3) 0.28041(11)
C31_2 C 0.5298(4) 0.2659(3) 0.33609(10)
H16_2 H 0.4879 0.2177 0.3489
O17 O 0.7998(3) 0.4448(2) 0.51907(7)
O20_2 O 0.8474(2) 0.04977(18) 0.49605(7)
O21_2 O 0.6932(3) 0.0179(2) 0.44983(7)
N6_2 N 0.9732(3) 0.7168(2) 0.27865(9)
H31 H 0.9011 0.457475 0.526326
H32 H 0.745236 0.504643 0.520928
C12_2 C 0.9583(5) 0.7316(4) 0.31445(12)
H5_2 H 0.8768 0.7097 0.3240
H9_2 H 0.9572 0.9801 0.4355
N4_2 N 0.0131(3) 0.4401(2) 0.77904(8)
H19_3 H 0.0117 0.3471 0.8193
Co10 Co 0.16949(5) 0.37226(4) 0.752480(13)
Co7 Co 0.77482(5) 0.10539(3) 0.964280(13)
H1_3 H 0.0494 0.3597 0.0010
C4_3 C 0.2562(4) 0.3951(2) 0.00602(9)
C6_3 C 0.3885(3) 0.3594(2) 0.00092(10)
H3_3 H 0.4675 0.3972 0.0069
C9_3 C 0.2379(3) 0.4930(3) 0.02040(10)
C1_3 C 0.0258(3) 0.1850(2) 0.97594(9)
C2_3 C 0.1551(3) 0.2455(2) 0.98452(9)
C3_3 C 0.1390(3) 0.3369(3) 0.99770(9)
C5_3 C 0.2883(3) 0.2107(2) 0.97945(9)
H2_3 H 0.2991 0.1487 0.9710
C7_3 C 0.4055(3) 0.2688(2) 0.98708(9)
C8_3 C 0.5519(4) 0.2372(3) 0.98069(10)
O2_2 O 0.6460(2) 0.2985(2) 0.98712(8)
O3_2 O 0.5729(2) 0.15386(17) 0.96996(7)
O6_3 O 0.0319(2) 0.09925(17) 0.96821(7)
N1_2 N 0.7057(3) 0.9702(2) 0.94730(9)
C11_3 C 0.0904(5) 0.7486(3) 0.76626(12)
H4_3 H 0.1026 0.7568 0.7412
C13_3 C 0.0571(5) 0.7226(4) 0.83798(13)
H6_3 H 0.0414 0.7132 0.8628
C14_3 C 0.1938(5) 0.7021(3) 0.78779(12)
H7_3 H 0.2726 0.6786 0.7774
C15_3 C 0.1796(5) 0.6905(3) 0.82487(11)
O9_3 O 0.2770(3) 0.6521(3) 0.84959(8)
C16_3 C 0.0348(4) 0.3247(3) 0.90344(11)
H8_3 H 0.0003 0.2629 0.9001
C17_3 C 0.0098(4) 0.4747(3) 0.92403(12)
O12_3 O 0.6632(3) 0.5503(2) 0.82266(7)
O13_3 O 0.3402(3) 0.4551(2) 0.88163(9)
C19_3 C 0.5004(4) 0.5789(3) 0.86756(10)
O16_3 O 0.5179(3) 0.7243(2) 0.90250(9)
C22_3 C 0.5996(5) 0.6565(3) 0.88548(13)
H11_3 H 0.6505 0.6869 0.8666
H12_3 H 0.6676 0.6280 0.9039
C23_3 C 0.2152(4) 0.4376(3) 0.89464(11)
C26_3 C 0.7771(4) 0.5095(3) 0.80985(10)
C28_3 C 0.1620(5) 0.3455(3) 0.88985(11)
H14_3 H 0.2110 0.2992 0.8778
C30_3 C 0.8475(4) 0.4320(3) 0.82519(11)
H15_3 H 0.8177 0.4018 0.8460
C32_3 C 0.4237(4) 0.5329(3) 0.89837(12)
H17_3 H 0.3633 0.5792 0.9090
H18_3 H 0.4911 0.5092 0.9180
C33_3 C 0.9641(5) 0.4000(3) 0.80885(11)
C34_3 C 0.8267(5) 0.5524(3) 0.77919(12)
H20_3 H 0.7819 0.6057 0.7683
C35_3 C 0.6012(4) 0.5067(3) 0.85289(11)
H21_3 H 0.5506 0.4496 0.8445
H22_3 H 0.6736 0.4893 0.8723
C36_3 C 0.5874(5) 0.8032(3) 0.91730(12)
C37_3 C 0.9428(4) 0.5149(3) 0.76511(11)
H23_3 H 0.9745 0.5440 0.7443
C38_3 C 0.7290(6) 0.8214(3) 0.91613(14)
H24_3 H 0.7869 0.7783 0.9052
C39_3 C 0.1331(4) 0.5050(3) 0.91190(12)
H25_3 H 0.1623 0.5680 0.9149
C40_3 C 0.5079(5) 0.8646(3) 0.93480(14)
H26_3 H 0.4136 0.8513 0.9372
C41_3 C 0.4008(4) 0.6115(4) 0.83545(11)
H27_3 H 0.3742 0.5580 0.8193
H28_3 H 0.4464 0.6589 0.8211
C42_3 C 0.5677(5) 0.9472(3) 0.94911(14)
H29_3 H 0.5110 0.9898 0.9607
C43_3 C 0.7837(5) 0.9074(3) 0.93194(13)
H30_3 H 0.8793 0.9199 0.9314
O1_3 O 0.9054(2) 0.22550(16) 0.97640(7)
C10_3 C 0.7182(4) 0.0096(3) 0.77754(10)
N2 N 0.9732(3) 0.7832(2) 0.77865(9)
C12_3 C 0.9583(5) 0.7684(4) 0.81445(12)
H5_3 H 0.8768 0.7903 0.8240
N3_3 N 0.9568(3) 0.3871(2) 0.92112(8)
H9_3 H 0.9572 0.5199 0.9355
O10_3 O 0.7725(3) 0.14074(19) 0.90926(7)
O11_3 O 0.6824(3) 0.28739(19) 0.90475(7)
O14_2 O 0.3453(3) 0.2716(2) 0.74574(7)
C18_3 C 0.6431(4) 0.1834(3) 0.85330(10)
O15_2 O 0.2705(3) 0.3055(2) 0.79934(7)
C20_3 C 0.5418(4) 0.1405(3) 0.78058(10)
H10_3 H 0.5097 0.1274 0.7560
C21_3 C 0.4789(4) 0.2126(3) 0.79954(10)
C24_3 C 0.7029(4) 0.2062(3) 0.89226(10)
C25_3 C 0.6526(4) 0.0875(3) 0.79796(10)
C27_3 C 0.7014(4) 0.1091(3) 0.83421(10)
H13_3 H 0.7745 0.0734 0.8461
C29_3 C 0.3577(4) 0.2660(3) 0.78041(11)
C31_3 C 0.5298(4) 0.2341(3) 0.83609(10)
H16_3 H 0.4879 0.2823 0.8489
Co8 Co 0.83051(5) 0.87226(4) 0.747520(13)
O7_3 O 0.8165(3) 0.9619(2) 0.79406(8)
O8_3 O 0.6768(3) 0.9915(2) 0.74481(7)
O22_2 O 0.6547(3) 0.7716(2) 0.75426(7)
N7_2 N 0.9869(3) 0.9401(2) 0.72096(8)
O23_2 O 0.7295(3) 0.8055(2) 0.70066(7)
N2_2 N 0.0268(3) 0.2832(2) 0.72135(9)
C12_4 C 0.0417(5) 0.2684(4) 0.68555(12)
H5_4 H 0.1232 0.2903 0.6760
H9_4 H 0.0428 0.0199 0.5645
O1_4 O 0.0946(2) 0.72550(16) 0.52360(7)
Co2_2 Co 0.22518(5) 0.60539(3) 0.535720(13)
O7_4 O 0.1835(3) 0.4619(2) 0.70594(8)
O8_4 O 0.3232(3) 0.4915(2) 0.75519(7)
C10_4 C 0.2818(4) 0.5096(3) 0.72246(10)
N3_4 N 0.0432(3) 0.8871(2) 0.57888(8)
O10_4 O 0.2275(3) 0.64074(19) 0.59074(7)
O11_4 O 0.3176(3) 0.78739(19) 0.59525(7)
C18_4 C 0.3569(4) 0.6834(3) 0.64670(10)
C20_4 C 0.4582(4) 0.6405(3) 0.71942(10)
H10_4 H 0.4903 0.6274 0.7440
C21_4 C 0.5211(4) 0.7126(3) 0.70046(10)
C24_4 C 0.2971(4) 0.7062(3) 0.60774(10)
C25_4 C 0.3474(4) 0.5875(3) 0.70204(10)
C27_4 C 0.2986(4) 0.6091(3) 0.66579(10)
H13_4 H 0.2255 0.5734 0.6539
C29_4 C 0.6423(4) 0.7660(3) 0.71959(11)
C31_4 C 0.4702(4) 0.7341(3) 0.66391(10)
H16_4 H 0.5121 0.7823 0.6511
O17_2 O 0.2002(3) 0.5552(2) 0.48093(7)
O18_2 O 0.3540(2) 0.7985(2) 0.51288(8)
O19_2 O 0.4271(2) 0.65386(17) 0.53004(7)
N5_2 N 0.2943(3) 0.4702(2) 0.55270(9)
H31_2 H 0.0988996 0.542525 0.473674
H32_2 H 0.254764 0.495357 0.479072
C11_4 C 0.9096(5) 0.2486(3) 0.73374(12)
H4_4 H 0.8974 0.2568 0.7588
C13_4 C 0.9429(5) 0.2226(4) 0.66202(13)
H6_4 H 0.9586 0.2132 0.6372
C14_4 C 0.8062(5) 0.2021(3) 0.71221(12)
H7_4 H 0.7274 0.1786 0.7226
C15_4 C 0.8204(5) 0.1905(3) 0.67513(11)
O9_4 O 0.7230(3) 0.1521(3) 0.65041(8)
O12_4 O 0.3368(3) 0.0503(2) 0.67734(7)
C19_4 C 0.4996(4) 0.0789(3) 0.63244(10)
O16_4 O 0.4821(3) 0.2243(2) 0.59750(9)
C22_4 C 0.4004(5) 0.1565(3) 0.61452(13)
H11_4 H 0.3495 0.1869 0.6334
H12_4 H 0.3324 0.1280 0.5961
C26_4 C 0.2229(4) 0.0095(3) 0.69015(10)
C32_4 C 0.5763(4) 0.0329(3) 0.60163(12)
H17_4 H 0.6367 0.0792 0.5910
H18_4 H 0.5089 0.0092 0.5820
C34_4 C 0.1733(5) 0.0524(3) 0.72081(12)
H20_4 H 0.2181 0.1057 0.7317
C35_4 C 0.3988(4) 0.0067(3) 0.64711(11)
C36_4 C 0.4126(5) 0.3032(3) 0.58270(12)
C37_4 C 0.0572(4) 0.0149(3) 0.73489(11)
H23_4 H 0.0255 0.0440 0.7557
C38_4 C 0.2710(6) 0.3214(3) 0.58387(14)
H24_4 H 0.2131 0.2783 0.5948
C39_4 C 0.8669(4) 0.0050(3) 0.58810(12)
H25_4 H 0.8377 0.0680 0.5851
C40_4 C 0.4921(5) 0.3646(3) 0.56520(14)
H26_4 H 0.5864 0.3513 0.5628
C41_4 C 0.5992(4) 0.1115(4) 0.66455(11)
H27_4 H 0.6258 0.0580 0.6807
H28_4 H 0.5536 0.1589 0.6789
C42_4 C 0.4323(5) 0.4472(3) 0.55089(14)
H29_4 H 0.4890 0.4898 0.5393
C43_4 C 0.2163(5) 0.4074(3) 0.56806(13)
H30_4 H 0.1207 0.4199 0.5686
C1_4 C 0.9742(3) 0.6850(2) 0.52406(9)
C2_4 C 0.8449(3) 0.7455(2) 0.51548(9)
C3_4 C 0.8610(3) 0.8369(3) 0.50230(9)
H1_4 H 0.9506 0.8597 0.4990
C4_4 C 0.7438(4) 0.8951(2) 0.49398(9)
C5_4 C 0.7117(3) 0.7107(2) 0.52055(9)
H2_4 H 0.7009 0.6487 0.5290
C6_4 C 0.6115(3) 0.8594(2) 0.49908(10)
H3_4 H 0.5325 0.8972 0.4931
C7_4 C 0.5945(3) 0.7688(2) 0.51292(9)
C8_4 C 0.4481(4) 0.7372(3) 0.51931(10)
C9_4 C 0.7621(3) 0.9930(3) 0.47960(10)
O6_4 O 0.9681(2) 0.59925(17) 0.53179(7)
C16_4 C 0.9652(4) 0.8247(3) 0.59656(11)
H8_4 H 0.9997 0.7629 0.5999
C17_4 C 0.9902(4) 0.9747(3) 0.57597(12)
O13_4 O 0.6598(3) 0.9551(2) 0.61837(9)
C23_4 C 0.7848(4) 0.9376(3) 0.60536(11)
C28_4 C 0.8380(5) 0.8455(3) 0.61015(11)
H14_4 H 0.7890 0.7992 0.6222
C30_4 C 0.1525(4) 0.9320(3) 0.67481(11)
H15_4 H 0.1823 0.9018 0.6540
C33_4 C 0.0359(5) 0.9000(3) 0.69115(11)
H21_4 H 0.4494 0.9496 0.6555
H22_4 H 0.3264 0.9893 0.6277
H19_4 H 0.9883 0.8471 0.6807
H32_3 H 0.254764 0.00464261 0.979072
O17_3 O 0.2002(3) 0.9448(2) 0.98093(7)
H31_3 H 0.0988996 0.957475 0.973674
O17_4 O 0.7998(3) 0.0552(2) 0.01907(7)
H31_4 H 0.9011 0.042525 0.0263263
H32_4 H 0.745236 0.995357 0.0209282
loop_
_geom_bond_atom_site_label_1
_geom_bond_atom_site_label_2
_geom_bond_site_symmetry_1
_geom_bond_site_symmetry_2
Co3 O7 1_555 1_555
N6 Co3 1_555 1_555
O22 Co3 1_555 1_555
N7 Co3 1_555 1_555
O23 Co3 1_555 1_555
O8 Co3 1_555 1_555
Co1 O1 1_555 1_555
Co2 O1 1_555 1_555
C10 C25 1_555 1_555
C12 N6 1_555 1_555
H5 C12 1_555 1_555
N3 Co1 1_555 1_555
O10 Co2 1_555 1_555
O11 Co1 1_555 1_555
O14 C29 1_555 1_555
C18 C24 1_555 1_555
O15 C29 1_555 1_555
C20 H10 1_555 1_555
C21 C20 1_555 1_555
C24 O10 1_555 1_555
C25 C20 1_555 1_555
C27 C18 1_555 1_555
H13 C27 1_555 1_555
C29 C21 1_555 1_555
C31 C18 1_555 1_555
H16 C31 1_555 1_555
O18 Co1 1_555 1_555
O19 Co2 1_555 1_555
O20 Co1 1_555 1_555
O21 Co1 1_555 1_555
Co9 O14 1_555 1_555
O11 C24 1_555 1_555
O15 Co9 1_555 1_555
C21 C31 1_555 1_555
C25 C27 1_555 1_555
C1 C2 1_555 1_555
C2 C3 1_555 1_555
C5 C2 1_555 1_555
H2 C5 1_555 1_555
C7 C5 1_555 1_555
C8 C7 1_555 1_555
O18 C8 1_555 1_555
O19 C8 1_555 1_555
O6 C1 1_555 1_555
N5 C42 1_555 1_555
C11 H4 1_555 1_555
H6 C13 1_555 1_555
C14 C11 1_555 1_555
H7 C14 1_555 1_555
C15 C13 1_555 1_555
O9 C15 1_555 1_555
H8 C16 1_555 1_555
O12 C26 1_555 1_555
O13 C23 1_555 1_555
C19 C22 1_555 1_555
O16 C22 1_555 1_555
C22 H11 1_555 1_555
H12 C22 1_555 1_555
C23 C28 1_555 1_555
C26 C30 1_555 1_555
C28 C16 1_555 1_555
H14 C28 1_555 1_555
C30 H15 1_555 1_555
C32 O13 1_555 1_555
H17 C32 1_555 1_555
H18 C32 1_555 1_555
C33 C30 1_555 1_555
C34 C26 1_555 1_555
H20 C34 1_555 1_555
C35 O12 1_555 1_555
H21 C35 1_555 1_555
H22 C35 1_555 1_555
C36 O16 1_555 1_555
H23 C37 1_555 1_555
C38 C36 1_555 1_555
H24 C38 1_555 1_555
C39 C17 1_555 1_555
H25 C39 1_555 1_555
C40 C36 1_555 1_555
H26 C40 1_555 1_555
C41 O9 1_555 1_555
H27 C41 1_555 1_555
H28 C41 1_555 1_555
C42 C40 1_555 1_555
H29 C42 1_555 1_555
C43 N5 1_555 1_555
H30 C43 1_555 1_555
C14 C15 1_555 1_555
C19 C32 1_555 1_555
C19 C35 1_555 1_555
C19 C41 1_555 1_555
C23 C39 1_555 1_555
C34 C37 1_555 1_555
C38 C43 1_555 1_555
C6 C4 1_555 1_555
H3 C6 1_555 1_555
O4 C9 1_555 1_555
O5 C9 1_555 1_555
C9 C4 1_555 1_555
Co5 O4 1_555 1_555
O5 Co5 1_555 1_555
Co9 N4 1_555 1_555
C1_2 C2_2 1_555 1_555
C2_2 C3_2 1_555 1_555
C3_2 H1_2 1_555 1_555
C4_2 C3_2 1_555 1_555
C5_2 C2_2 1_555 1_555
H2_2 C5_2 1_555 1_555
C6_2 C4_2 1_555 1_555
H3_2 C6_2 1_555 1_555
C7_2 C5_2 1_555 1_555
C8_2 C7_2 1_555 1_555
O2 C8_2 1_555 1_555
O3 C8_2 1_555 1_555
C9_2 C4_2 1_555 1_555
O6_2 C1_2 1_555 1_555
H8_2 C16_2 1_555 1_555
O13_2 C23_2 1_555 1_555
C23_2 C28_2 1_555 1_555
C28_2 C16_2 1_555 1_555
H14_2 C28_2 1_555 1_555
C30_2 H15_2 1_555 1_555
C33_2 C30_2 1_555 1_555
Co4 O2 1_555 1_555
Co6 O3 1_555 1_555
C6_2 C7_2 1_555 1_555
N1 C42_2 1_555 1_555
C11_2 H4_2 1_555 1_555
H6_2 C13_2 1_555 1_555
C14_2 C11_2 1_555 1_555
H7_2 C14_2 1_555 1_555
C15_2 C13_2 1_555 1_555
O9_2 C15_2 1_555 1_555
O12_2 C26_2 1_555 1_555
C19_2 C22_2 1_555 1_555
O16_2 C22_2 1_555 1_555
C22_2 H11_2 1_555 1_555
H12_2 C22_2 1_555 1_555
H17_2 C32_2 1_555 1_555
H18_2 C32_2 1_555 1_555
C34_2 C26_2 1_555 1_555
H20_2 C34_2 1_555 1_555
C35_2 O12_2 1_555 1_555
C36_2 O16_2 1_555 1_555
H23_2 C37_2 1_555 1_555
C38_2 C36_2 1_555 1_555
H24_2 C38_2 1_555 1_555
H25_2 C39_2 1_555 1_555
C40_2 C36_2 1_555 1_555
H26_2 C40_2 1_555 1_555
C41_2 O9_2 1_555 1_555
H27_2 C41_2 1_555 1_555
H28_2 C41_2 1_555 1_555
C42_2 C40_2 1_555 1_555
H29_2 C42_2 1_555 1_555
C43_2 N1 1_555 1_555
H30_2 C43_2 1_555 1_555
Co5_2 O4_2 1_555 1_555
Co6 N1 1_555 1_555
O5_2 Co5_2 1_555 1_555
C14_2 C15_2 1_555 1_555
C19_2 C32_2 1_555 1_555
C19_2 C35_2 1_555 1_555
C19_2 C41_2 1_555 1_555
C34_2 C37_2 1_555 1_555
C38_2 C43_2 1_555 1_555
Co4 O1_2 1_555 1_555
Co6 O1_2 1_555 1_555
O7_2 C10_2 1_555 1_555
O8_2 C10_2 1_555 1_555
C10_2 C25_2 1_555 1_555
N3_2 Co4 1_555 1_555
Co9 O7_2 1_555 1_555
O10_2 Co6 1_555 1_555
O11_2 Co4 1_555 1_555
O22 C29_2 1_555 1_555
C18_2 C24_2 1_555 1_555
O23 C29_2 1_555 1_555
C20_2 H10_2 1_555 1_555
C21_2 C20_2 1_555 1_555
C24_2 O10_2 1_555 1_555
C25_2 C20_2 1_555 1_555
C27_2 C18_2 1_555 1_555
H13_2 C27_2 1_555 1_555
C29_2 C21_2 1_555 1_555
C31_2 C18_2 1_555 1_555
H16_2 C31_2 1_555 1_555
O17 Co6 1_555 1_555
O20_2 Co4 1_555 1_555
O21_2 Co4 1_555 1_555
N6_2 Co9 1_555 1_555
O8_2 Co9 1_555 1_555
O11_2 C24_2 1_555 1_555
C21_2 C31_2 1_555 1_555
C25_2 C27_2 1_555 1_555
O17 H31 1_555 1_555
O17 H32 1_555 1_555
C12_2 N6_2 1_555 1_555
H5_2 C12_2 1_555 1_555
Co10 N4_2 1_555 1_555
C6_3 C4_3 1_555 1_555
H3_3 C6_3 1_555 1_555
O20 C9_3 1_555 1_555
O21 C9_3 1_555 1_555
C9_3 C4_3 1_555 1_555
C1_3 C2_3 1_555 1_555
C2_3 C3_3 1_555 1_555
C5_3 C2_3 1_555 1_555
H2_3 C5_3 1_555 1_555
C7_3 C5_3 1_555 1_555
C8_3 C7_3 1_555 1_555
O2_2 C8_3 1_555 1_555
O3_2 C8_3 1_555 1_555
O6_3 C1_3 1_555 1_555
N1_2 C42_3 1_555 1_555
C11_3 H4_3 1_555 1_555
H6_3 C13_3 1_555 1_555
C14_3 C11_3 1_555 1_555
H7_3 C14_3 1_555 1_555
C15_3 C13_3 1_555 1_555
O9_3 C15_3 1_555 1_555
H8_3 C16_3 1_555 1_555
O12_3 C26_3 1_555 1_555
O13_3 C23_3 1_555 1_555
C19_3 C22_3 1_555 1_555
O16_3 C22_3 1_555 1_555
C22_3 H11_3 1_555 1_555
H12_3 C22_3 1_555 1_555
C23_3 C28_3 1_555 1_555
C26_3 C30_3 1_555 1_555
C28_3 C16_3 1_555 1_555
H14_3 C28_3 1_555 1_555
C30_3 H15_3 1_555 1_555
C32_3 O13_3 1_555 1_555
H17_3 C32_3 1_555 1_555
H18_3 C32_3 1_555 1_555
C33_3 C30_3 1_555 1_555
C34_3 C26_3 1_555 1_555
H20_3 C34_3 1_555 1_555
C35_3 O12_3 1_555 1_555
H21_3 C35_3 1_555 1_555
H22_3 C35_3 1_555 1_555
C36_3 O16_3 1_555 1_555
H23_3 C37_3 1_555 1_555
C38_3 C36_3 1_555 1_555
H24_3 C38_3 1_555 1_555
C39_3 C17_3 1_555 1_555
H25_3 C39_3 1_555 1_555
C40_3 C36_3 1_555 1_555
H26_3 C40_3 1_555 1_555
C41_3 O9_3 1_555 1_555
H27_3 C41_3 1_555 1_555
H28_3 C41_3 1_555 1_555
C42_3 C40_3 1_555 1_555
H29_3 C42_3 1_555 1_555
C43_3 N1_2 1_555 1_555
H30_3 C43_3 1_555 1_555
Co5 O2_2 1_555 1_555
Co7 O3_2 1_555 1_555
C14_3 C15_3 1_555 1_555
C19_3 C32_3 1_555 1_555
C19_3 C35_3 1_555 1_555
C19_3 C41_3 1_555 1_555
C23_3 C39_3 1_555 1_555
C34_3 C37_3 1_555 1_555
C38_3 C43_3 1_555 1_555
Co5 O1_3 1_555 1_555
Co7 O1_3 1_555 1_555
C10_3 C25_3 1_555 1_555
C12_3 N2 1_555 1_555
H5_3 C12_3 1_555 1_555
N3_3 Co5 1_555 1_555
O10_3 Co7 1_555 1_555
O11_3 Co5 1_555 1_555
O14_2 C29_3 1_555 1_555
C18_3 C24_3 1_555 1_555
O15_2 C29_3 1_555 1_555
C20_3 H10_3 1_555 1_555
C21_3 C20_3 1_555 1_555
C24_3 O10_3 1_555 1_555
C25_3 C20_3 1_555 1_555
C27_3 C18_3 1_555 1_555
H13_3 C27_3 1_555 1_555
C29_3 C21_3 1_555 1_555
C31_3 C18_3 1_555 1_555
H16_3 C31_3 1_555 1_555
Co8 N2 1_555 1_555
Co10 O14_2 1_555 1_555
O11_3 C24_3 1_555 1_555
O15_2 Co10 1_555 1_555
C21_3 C31_3 1_555 1_555
C25_3 C27_3 1_555 1_555
Co8 O7_3 1_555 1_555
O22_2 Co8 1_555 1_555
N7_2 Co8 1_555 1_555
O23_2 Co8 1_555 1_555
O8_3 Co8 1_555 1_555
C12_4 N2_2 1_555 1_555
H5_4 C12_4 1_555 1_555
Co10 N2_2 1_555 1_555
Co5_2 O1_4 1_555 1_555
Co2_2 O1_4 1_555 1_555
O7_4 C10_4 1_555 1_555
O8_4 C10_4 1_555 1_555
C10_4 C25_4 1_555 1_555
N3_4 Co5_2 1_555 1_555
Co10 O7_4 1_555 1_555
O10_4 Co2_2 1_555 1_555
O11_4 Co5_2 1_555 1_555
O22_2 C29_4 1_555 1_555
C18_4 C24_4 1_555 1_555
O23_2 C29_4 1_555 1_555
C20_4 H10_4 1_555 1_555
C21_4 C20_4 1_555 1_555
C24_4 O10_4 1_555 1_555
C25_4 C20_4 1_555 1_555
C27_4 C18_4 1_555 1_555
H13_4 C27_4 1_555 1_555
C29_4 C21_4 1_555 1_555
C31_4 C18_4 1_555 1_555
H16_4 C31_4 1_555 1_555
O17_2 Co2_2 1_555 1_555
O18_2 Co5_2 1_555 1_555
O19_2 Co2_2 1_555 1_555
N5_2 Co2_2 1_555 1_555
O8_4 Co10 1_555 1_555
O11_4 C24_4 1_555 1_555
C21_4 C31_4 1_555 1_555
C25_4 C27_4 1_555 1_555
O17_2 H31_2 1_555 1_555
O17_2 H32_2 1_555 1_555
N5_2 C42_4 1_555 1_555
C11_4 H4_4 1_555 1_555
H6_4 C13_4 1_555 1_555
C14_4 C11_4 1_555 1_555
H7_4 C14_4 1_555 1_555
C15_4 C13_4 1_555 1_555
O9_4 C15_4 1_555 1_555
O12_4 C26_4 1_555 1_555
C19_4 C22_4 1_555 1_555
O16_4 C22_4 1_555 1_555
C22_4 H11_4 1_555 1_555
H12_4 C22_4 1_555 1_555
H17_4 C32_4 1_555 1_555
H18_4 C32_4 1_555 1_555
C34_4 C26_4 1_555 1_555
H20_4 C34_4 1_555 1_555
C35_4 O12_4 1_555 1_555
C36_4 O16_4 1_555 1_555
H23_4 C37_4 1_555 1_555
C38_4 C36_4 1_555 1_555
H24_4 C38_4 1_555 1_555
H25_4 C39_4 1_555 1_555
C40_4 C36_4 1_555 1_555
H26_4 C40_4 1_555 1_555
C41_4 O9_4 1_555 1_555
H27_4 C41_4 1_555 1_555
H28_4 C41_4 1_555 1_555
C42_4 C40_4 1_555 1_555
H29_4 C42_4 1_555 1_555
C43_4 N5_2 1_555 1_555
H30_4 C43_4 1_555 1_555
C14_4 C15_4 1_555 1_555
C19_4 C32_4 1_555 1_555
C19_4 C35_4 1_555 1_555
C19_4 C41_4 1_555 1_555
C34_4 C37_4 1_555 1_555
C38_4 C43_4 1_555 1_555
C1_4 C2_4 1_555 1_555
C2_4 C3_4 1_555 1_555
C3_4 H1_4 1_555 1_555
C4_4 C3_4 1_555 1_555
C5_4 C2_4 1_555 1_555
H2_4 C5_4 1_555 1_555
C6_4 C4_4 1_555 1_555
H3_4 C6_4 1_555 1_555
C7_4 C5_4 1_555 1_555
C8_4 C7_4 1_555 1_555
O18_2 C8_4 1_555 1_555
O19_2 C8_4 1_555 1_555
C9_4 C4_4 1_555 1_555
O6_4 C1_4 1_555 1_555
H8_4 C16_4 1_555 1_555
O13_4 C23_4 1_555 1_555
C23_4 C28_4 1_555 1_555
C28_4 C16_4 1_555 1_555
H14_4 C28_4 1_555 1_555
C30_4 H15_4 1_555 1_555
C33_4 C30_4 1_555 1_555
C6_4 C7_4 1_555 1_555
O17_3 H31_3 1_555 1_555
O17_4 H31_4 1_555 1_555

#END
