
###############################################################################
#
# This file contains modified crystal structure data generated from the
# MOF subset of the Cambridge Structural Database (CSD) v543 
# hosted by the Cambridge Crystallographic Data Centre (CCDC).
#
# This work is licensed under the Creative Commons
# Attribution-NonCommercial-ShareAlike 4.0 International License.
# To view a copy of this license, visit
# http://creativecommons.org/licenses/by-nc-sa/4.0/
# or send a letter to
# Creative Commons, PO Box 1866, Mountain View, CA 94042, USA.
#
# CIF created using the CSD Python API on 29 September 2022
# The structure has been converted into the P1 space group
# The structure has a 3D framework
# The original CSD entry LAZKUU is in the monoclinic crystal system
# The framework has been calculated to contain at least 10.0% void space
# The void calculation uses a probe of radius 1.32A, grid spacing 0.4
#
###############################################################################

data_LAZKUU
_chemical_formula_moiety         '(C144 H96 Cd4 Cl8 N24)n'
_symmetry_cell_setting           triclinic
_symmetry_space_group_name_H-M   'P 1'
_symmetry_Int_Tables_number      1
_space_group_name_Hall           'P 1'
loop_
_symmetry_equiv_pos_site_id
_symmetry_equiv_pos_as_xyz
1 x,y,z
_cell_length_a                   20.613(2)
_cell_length_b                   12.7980(11)
_cell_length_c                   18.8901(17)
_cell_angle_alpha                90
_cell_angle_beta                 104.4500(10)
_cell_angle_gamma                90
_cell_volume                     4825.66
loop_
_atom_site_label
_atom_site_type_symbol
_atom_site_fract_x
_atom_site_fract_y
_atom_site_fract_z
N4 N 0.1359(4) 0.2054(6) 0.1067(4)
N5 N 0.2330(4) 0.0796(6) 0.3118(4)
C13 C 0.0499(5) 0.1455(9) 0.0047(6)
C14 C 0.0675(5) 0.1793(9) 0.0729(6)
C15 C 0.0196(6) 0.1944(9) 0.1115(6)
H7 H 0.0317 0.2216 0.1586
C27 C 0.1843(5) 0.0291(8) 0.2651(6)
C28 C 0.1509(5) 0.0701(8) 0.1990(6)
H18 H 0.1160 0.0324 0.1693
C29 C 0.1677(5) 0.1652(8) 0.1755(5)
C30 C 0.2176(5) 0.2189(8) 0.2256(5)
H19 H 0.2304 0.2854 0.2146
C31 C 0.2474(5) 0.1734(8) 0.2907(5)
H20 H 0.2805 0.2113 0.3229
C33 C 0.1414(5) 0.3443(9) 0.0212(6)
H22 H 0.0967 0.3612 0.0170
C34 C 0.1716(5) 0.2632(8) 0.0678(6)
C35 C 0.2393(5) 0.2474(8) 0.0721(6)
H23 H 0.2633 0.1964 0.1029
C36 C 0.2703(5) 0.3084(8) 0.0301(6)
H24 H 0.3152 0.2948 0.0329
Cd3 Cd 0.29904(3) 0.00343(6) 0.42213(3)
N6 N 0.2417(4) 0.3840(6) 0.9867(4)
H6 H 0.0818 0.1359 0.9782
C32 C 0.1778(5) 0.3988(8) 0.9817(6)
H21 H 0.1557 0.4495 0.9494
Cd4 Cd 0.29904(3) 0.49657(6) 0.92213(3)
C1 C 0.6933(5) 0.0142(8) 0.8852(6)
C2 C 0.7460(6) 0.0480(9) 0.9121(7)
C3 C 0.8109(6) 0.0828(9) 0.9444(7)
C4 C 0.8665(6) 0.1088(9) 0.9742(7)
C12 C 0.9823(6) 0.1243(10) 0.9732(7)
H5 H 0.9704 0.0998 0.9254
H15 H 0.4478 0.0033 0.6904
H16 H 0.4014 0.0584 0.5753
N7 N 0.3600(4) 0.5721(7) 0.0356(4)
Cl1 Cl 0.20733(13) 0.6421(2) 0.91340(15)
Cl2 Cl 0.39386(13) 0.3587(2) 0.93464(14)
N1 N 0.4516(4) 0.8141(6) 0.7446(4)
N2 N 0.3553(4) 0.6080(6) 0.8572(4)
N3 N 0.3600(4) 0.9279(7) 0.5356(4)
C5 C 0.6313(5) 0.9659(8) 0.8499(7)
C6 C 0.6215(5) 0.9275(9) 0.7797(6)
H1 H 0.6548 0.9367 0.7548
C7 C 0.5640(5) 0.8762(8) 0.7462(6)
H2 H 0.5588 0.8489 0.6995
C8 C 0.5129(5) 0.8650(8) 0.7824(6)
C9 C 0.5219(5) 0.9038(9) 0.8514(6)
H3 H 0.4879 0.8968 0.8754
C10 C 0.5798(5) 0.9526(9) 0.8855(6)
H4 H 0.5853 0.9774 0.9329
C17 C 0.3225(5) 0.6681(8) 0.8041(6)
H9 H 0.2760 0.6645 0.7923
C18 C 0.3511(5) 0.7362(8) 0.7642(5)
H10 H 0.3249 0.7758 0.7265
C19 C 0.4190(5) 0.7437(7) 0.7819(5)
C20 C 0.4538(5) 0.6816(8) 0.8367(5)
H11 H 0.5004 0.6840 0.8495
C21 C 0.4218(5) 0.6169(8) 0.8726(5)
H12 H 0.4473 0.5762 0.9102
C22 C 0.3558(5) 0.8295(8) 0.5536(6)
H13 H 0.3310 0.7849 0.5181
C23 C 0.3852(5) 0.7878(8) 0.6202(6)
H14 H 0.3816 0.7168 0.6290
C24 C 0.4198(5) 0.8525(8) 0.6736(5)
C25 C 0.4248(5) 0.9563(8) 0.6556(6)
C26 C 0.3958(5) 0.9889(8) 0.5870(5)
N8 N 0.2330(4) 0.4204(6) 0.8118(4)
N4_2 N 0.1359(4) 0.2946(6) 0.6067(4)
N6_2 N 0.2417(4) 0.1160(6) 0.4867(4)
C13_2 C 0.0499(5) 0.3545(9) 0.5047(6)
H6_2 H 0.0818 0.3641 0.4782
C14_2 C 0.0675(5) 0.3207(9) 0.5729(6)
C15_2 C 0.0196(6) 0.3056(9) 0.6115(6)
H7_2 H 0.0317 0.2784 0.6586
C27_2 C 0.1843(5) 0.4709(8) 0.7651(6)
H17 H 0.1724 0.5371 0.7778
C28_2 C 0.1509(5) 0.4299(8) 0.6990(6)
H18_2 H 0.1160 0.4676 0.6693
C29_2 C 0.1677(5) 0.3348(8) 0.6755(5)
C30_2 C 0.2176(5) 0.2811(8) 0.7256(5)
H19_2 H 0.2304 0.2146 0.7146
C31_2 C 0.2474(5) 0.3266(8) 0.7907(5)
H20_2 H 0.2805 0.2887 0.8229
C32_2 C 0.1778(5) 0.1012(8) 0.4817(6)
H21_2 H 0.1557 0.0505 0.4494
C33_2 C 0.1414(5) 0.1557(9) 0.5212(6)
H22_2 H 0.0967 0.1388 0.5170
C34_2 C 0.1716(5) 0.2368(8) 0.5678(6)
C35_2 C 0.2393(5) 0.2526(8) 0.5721(6)
H23_2 H 0.2633 0.3036 0.6029
C36_2 C 0.2703(5) 0.1916(8) 0.5301(6)
H24_2 H 0.3152 0.2052 0.5329
Cl2_2 Cl 0.39386(13) 0.1413(2) 0.43464(14)
Cl1_2 Cl 0.20733(13) 0.8579(2) 0.41340(15)
N1_2 N 0.4516(4) 0.6859(6) 0.2446(4)
N2_2 N 0.3553(4) 0.8920(6) 0.3572(4)
C1_2 C 0.6933(5) 0.4858(8) 0.3852(6)
C2_2 C 0.7460(6) 0.4520(9) 0.4121(7)
C3_2 C 0.8109(6) 0.4172(9) 0.4444(7)
C4_2 C 0.8665(6) 0.3912(9) 0.4742(7)
C5_2 C 0.6313(5) 0.5341(8) 0.3499(7)
C6_2 C 0.6215(5) 0.5725(9) 0.2797(6)
H1_2 H 0.6548 0.5633 0.2548
C7_2 C 0.5640(5) 0.6238(8) 0.2462(6)
H2_2 H 0.5588 0.6511 0.1995
C8_2 C 0.5129(5) 0.6350(8) 0.2824(6)
C9_2 C 0.5219(5) 0.5962(9) 0.3514(6)
H3_2 H 0.4879 0.6032 0.3754
C10_2 C 0.5798(5) 0.5474(9) 0.3855(6)
H4_2 H 0.5853 0.5226 0.4329
C11 C 0.9343(5) 0.3630(9) 0.5076(7)
C12_2 C 0.9823(6) 0.3757(10) 0.4732(7)
H5_2 H 0.9704 0.4002 0.4254
C16 C 0.9537(6) 0.3310(10) 0.5798(7)
H8 H 0.9221 0.3267 0.6073
C17_2 C 0.3225(5) 0.8319(8) 0.3041(6)
H9_2 H 0.2760 0.8355 0.2923
C18_2 C 0.3511(5) 0.7638(8) 0.2642(5)
H10_2 H 0.3249 0.7242 0.2265
C19_2 C 0.4190(5) 0.7563(7) 0.2819(5)
C20_2 C 0.4538(5) 0.8184(8) 0.3367(5)
H11_2 H 0.5004 0.8160 0.3495
C21_2 C 0.4218(5) 0.8831(8) 0.3726(5)
H12_2 H 0.4473 0.9238 0.4102
C22_2 C 0.3558(5) 0.6705(8) 0.0536(6)
H13_2 H 0.3310 0.7151 0.0181
C23_2 C 0.3852(5) 0.7122(8) 0.1202(6)
H14_2 H 0.3816 0.7832 0.1290
C24_2 C 0.4198(5) 0.6475(8) 0.1736(5)
C25_2 C 0.4248(5) 0.5437(8) 0.1556(6)
H15_2 H 0.4478 0.4967 0.1904
C26_2 C 0.3958(5) 0.5111(8) 0.0870(5)
H16_2 H 0.4014 0.4416 0.0753
H17_2 H 0.1724 0.9629 0.2778
C11_2 C 0.9343(5) 0.1370(9) 0.0076(7)
C16_2 C 0.9537(6) 0.1690(10) 0.0798(7)
H8_2 H 0.9221 0.1733 0.1073
Cd2 Cd 0.70096(3) 0.50343(6) 0.07787(3)
Cl1_3 Cl 0.79267(13) 0.1421(2) 0.58660(15)
N1_3 N 0.5484(4) 0.3141(6) 0.7554(4)
N2_3 N 0.6447(4) 0.1080(6) 0.6428(4)
N3_2 N 0.6400(4) 0.4279(7) 0.9644(4)
C1_3 C 0.3067(5) 0.5142(8) 0.6148(6)
C2_3 C 0.2540(6) 0.5480(9) 0.5879(7)
C3_3 C 0.1891(6) 0.5828(9) 0.5556(7)
C4_3 C 0.1335(6) 0.6088(9) 0.5258(7)
C5_3 C 0.3687(5) 0.4659(8) 0.6501(7)
C6_3 C 0.3785(5) 0.4275(9) 0.7203(6)
H1_3 H 0.3452 0.4367 0.7452
C7_3 C 0.4360(5) 0.3762(8) 0.7538(6)
H2_3 H 0.4412 0.3489 0.8005
C8_3 C 0.4871(5) 0.3650(8) 0.7176(6)
C9_3 C 0.4781(5) 0.4038(9) 0.6486(6)
H3_3 H 0.5121 0.3968 0.6246
C10_3 C 0.4202(5) 0.4526(9) 0.6145(6)
H4_3 H 0.4147 0.4774 0.5671
C11_3 C 0.0657(5) 0.6370(9) 0.4924(7)
C12_3 C 0.0177(6) 0.6243(10) 0.5268(7)
H5_3 H 0.0296 0.5998 0.5746
C16_3 C 0.0463(6) 0.6690(10) 0.4202(7)
H8_3 H 0.0779 0.6733 0.3927
C17_3 C 0.6775(5) 0.1681(8) 0.6959(6)
H9_3 H 0.7240 0.1645 0.7077
C18_3 C 0.6489(5) 0.2362(8) 0.7358(5)
H10_3 H 0.6751 0.2758 0.7735
C19_3 C 0.5810(5) 0.2437(7) 0.7181(5)
C20_3 C 0.5462(5) 0.1816(8) 0.6633(5)
H11_3 H 0.4996 0.1840 0.6505
C21_3 C 0.5782(5) 0.1169(8) 0.6274(5)
H12_3 H 0.5527 0.0762 0.5898
C22_3 C 0.6442(5) 0.3295(8) 0.9464(6)
H13_3 H 0.6690 0.2849 0.9819
C23_3 C 0.6148(5) 0.2878(8) 0.8798(6)
H14_3 H 0.6184 0.2168 0.8710
C24_3 C 0.5802(5) 0.3525(8) 0.8264(5)
C25_3 C 0.5752(5) 0.4563(8) 0.8444(6)
H15_3 H 0.5522 0.5033 0.8096
C26_3 C 0.6042(5) 0.4889(8) 0.9130(5)
H16_3 H 0.5986 0.5584 0.9247
N7_2 N 0.6400(4) 0.0721(7) 0.4644(4)
Cd1 Cd 0.70096(3) 0.99657(6) 0.57787(3)
Cl2_3 Cl 0.60614(13) 0.8587(2) 0.56536(14)
N8_2 N 0.7670(4) 0.9204(6) 0.6882(4)
N9 N 0.7583(4) 0.8840(6) 0.5133(4)
N4_3 N 0.8641(4) 0.7054(6) 0.3933(4)
N5_2 N 0.7670(4) 0.5796(6) 0.1882(4)
C13_3 C 0.9501(5) 0.6455(9) 0.4953(6)
H6_3 H 0.9182 0.6359 0.5218
C14_3 C 0.9325(5) 0.6793(9) 0.4271(6)
C15_3 C 0.9804(6) 0.6944(9) 0.3885(6)
H7_3 H 0.9683 0.7216 0.3414
C27_3 C 0.8157(5) 0.5291(8) 0.2349(6)
H17_3 H 0.8276 0.4629 0.2222
C28_3 C 0.8491(5) 0.5701(8) 0.3010(6)
H18_3 H 0.8840 0.5324 0.3307
C29_3 C 0.8323(5) 0.6652(8) 0.3245(5)
C30_3 C 0.7824(5) 0.7189(8) 0.2744(5)
H19_3 H 0.7696 0.7854 0.2854
C31_3 C 0.7526(5) 0.6734(8) 0.2093(5)
H20_3 H 0.7195 0.7113 0.1771
C32_3 C 0.8222(5) 0.8988(8) 0.5183(6)
H21_3 H 0.8443 0.9495 0.5506
C33_3 C 0.8586(5) 0.8443(9) 0.4788(6)
H22_3 H 0.9033 0.8612 0.4830
C34_3 C 0.8284(5) 0.7632(8) 0.4322(6)
C35_3 C 0.7607(5) 0.7474(8) 0.4279(6)
H23_3 H 0.7367 0.6964 0.3971
C36_3 C 0.7297(5) 0.8084(8) 0.4699(6)
H24_3 H 0.6848 0.7948 0.4671
Cl1_4 Cl 0.79267(13) 0.3579(2) 0.08660(15)
Cl2_4 Cl 0.60614(13) 0.6413(2) 0.06536(14)
N1_4 N 0.5484(4) 0.1859(6) 0.2554(4)
N2_4 N 0.6447(4) 0.3920(6) 0.1428(4)
C5_4 C 0.3687(5) 0.0341(8) 0.1501(7)
C6_4 C 0.3785(5) 0.0725(9) 0.2203(6)
H1_4 H 0.3452 0.0633 0.2452
C7_4 C 0.4360(5) 0.1238(8) 0.2538(6)
H2_4 H 0.4412 0.1511 0.3005
C8_4 C 0.4871(5) 0.1350(8) 0.2176(6)
C9_4 C 0.4781(5) 0.0962(9) 0.1486(6)
H3_4 H 0.5121 0.1032 0.1246
C10_4 C 0.4202(5) 0.0474(9) 0.1145(6)
H4_4 H 0.4147 0.0226 0.0671
C17_4 C 0.6775(5) 0.3319(8) 0.1959(6)
H9_4 H 0.7240 0.3355 0.2077
C18_4 C 0.6489(5) 0.2638(8) 0.2358(5)
H10_4 H 0.6751 0.2242 0.2735
C19_4 C 0.5810(5) 0.2563(7) 0.2181(5)
C20_4 C 0.5462(5) 0.3184(8) 0.1633(5)
H11_4 H 0.4996 0.3160 0.1505
C21_4 C 0.5782(5) 0.3831(8) 0.1274(5)
H12_4 H 0.5527 0.4238 0.0898
C22_4 C 0.6442(5) 0.1705(8) 0.4464(6)
H13_4 H 0.6690 0.2151 0.4819
C23_4 C 0.6148(5) 0.2122(8) 0.3798(6)
H14_4 H 0.6184 0.2832 0.3710
C24_4 C 0.5802(5) 0.1475(8) 0.3264(5)
C25_4 C 0.5752(5) 0.0437(8) 0.3444(6)
C26_4 C 0.6042(5) 0.0111(8) 0.4130(5)
N9_2 N 0.7583(4) 0.6160(6) 0.0133(4)
C1_4 C 0.3067(5) 0.9858(8) 0.1148(6)
C2_4 C 0.2540(6) 0.9520(9) 0.0879(7)
C3_4 C 0.1891(6) 0.9172(9) 0.0556(7)
C4_4 C 0.1335(6) 0.8912(9) 0.0258(7)
C12_4 C 0.0177(6) 0.8757(10) 0.0268(7)
H5_4 H 0.0296 0.9002 0.0746
H15_4 H 0.5522 0.9967 0.3096
H16_4 H 0.5986 0.9416 0.4247
H6_4 H 0.9182 0.8641 0.0218
C32_4 C 0.8222(5) 0.6012(8) 0.0183(6)
H21_4 H 0.8443 0.5505 0.0506
N4_4 N 0.8641(4) 0.7946(6) 0.8933(4)
C13_4 C 0.9501(5) 0.8545(9) 0.9953(6)
C14_4 C 0.9325(5) 0.8207(9) 0.9271(6)
C15_4 C 0.9804(6) 0.8056(9) 0.8885(6)
H7_4 H 0.9683 0.7784 0.8414
C27_4 C 0.8157(5) 0.9709(8) 0.7349(6)
C28_4 C 0.8491(5) 0.9299(8) 0.8010(6)
H18_4 H 0.8840 0.9676 0.8307
C29_4 C 0.8323(5) 0.8348(8) 0.8245(5)
C30_4 C 0.7824(5) 0.7811(8) 0.7744(5)
H19_4 H 0.7696 0.7146 0.7854
C31_4 C 0.7526(5) 0.8266(8) 0.7093(5)
H20_4 H 0.7195 0.7887 0.6771
C33_4 C 0.8586(5) 0.6557(9) 0.9788(6)
H22_4 H 0.9033 0.6388 0.9830
C34_4 C 0.8284(5) 0.7368(8) 0.9322(6)
C35_4 C 0.7607(5) 0.7526(8) 0.9279(6)
H23_4 H 0.7367 0.8036 0.8971
C36_4 C 0.7297(5) 0.6916(8) 0.9699(6)
H24_4 H 0.6848 0.7052 0.9671
C11_4 C 0.0657(5) 0.8630(9) 0.9924(7)
C16_4 C 0.0463(6) 0.8310(10) 0.9202(7)
H8_4 H 0.0779 0.8267 0.8927
H17_4 H 0.8276 0.0371 0.7222
loop_
_geom_bond_atom_site_label_1
_geom_bond_atom_site_label_2
_geom_bond_site_symmetry_1
_geom_bond_site_symmetry_2
N4 C14 1_555 1_555
N5 C27 1_555 1_555
C14 C13 1_555 1_555
C15 C14 1_555 1_555
H7 C15 1_555 1_555
C28 C27 1_555 1_555
H18 C28 1_555 1_555
C29 N4 1_555 1_555
C30 C29 1_555 1_555
H19 C30 1_555 1_555
C31 N5 1_555 1_555
H20 C31 1_555 1_555
H22 C33 1_555 1_555
C34 N4 1_555 1_555
C35 C34 1_555 1_555
H23 C35 1_555 1_555
H24 C36 1_555 1_555
Cd3 N5 1_555 1_555
C28 C29 1_555 1_555
C30 C31 1_555 1_555
C33 C34 1_555 1_555
C35 C36 1_555 1_555
N6 C32 1_555 1_555
C32 H21 1_555 1_555
Cd4 N6 1_555 1_555
C1 C2 1_555 1_555
C2 C3 1_555 1_555
C3 C4 1_555 1_555
C12 H5 1_555 1_555
Cd4 Cl1 1_555 1_555
Cl2 Cd4 1_555 1_555
N1 C8 1_555 1_555
N2 Cd4 1_555 1_555
N3 C22 1_555 1_555
C6 C5 1_555 1_555
H1 C6 1_555 1_555
C7 C6 1_555 1_555
H2 C7 1_555 1_555
C8 C7 1_555 1_555
C9 C8 1_555 1_555
H3 C9 1_555 1_555
C10 C5 1_555 1_555
H4 C10 1_555 1_555
C17 N2 1_555 1_555
H9 C17 1_555 1_555
C18 C17 1_555 1_555
H10 C18 1_555 1_555
C19 N1 1_555 1_555
C20 C19 1_555 1_555
H11 C20 1_555 1_555
C21 N2 1_555 1_555
H12 C21 1_555 1_555
C22 H13 1_555 1_555
C23 C22 1_555 1_555
H14 C23 1_555 1_555
C24 N1 1_555 1_555
C25 C24 1_555 1_555
C26 N3 1_555 1_555
N8 Cd4 1_555 1_555
C9 C10 1_555 1_555
C18 C19 1_555 1_555
C20 C21 1_555 1_555
C23 C24 1_555 1_555
C25 C26 1_555 1_555
N4_2 C14_2 1_555 1_555
N8 C27_2 1_555 1_555
N6_2 C32_2 1_555 1_555
H6_2 C13_2 1_555 1_555
C14_2 C13_2 1_555 1_555
C15_2 C14_2 1_555 1_555
H7_2 C15_2 1_555 1_555
C27_2 H17 1_555 1_555
C28_2 C27_2 1_555 1_555
H18_2 C28_2 1_555 1_555
C29_2 N4_2 1_555 1_555
C30_2 C29_2 1_555 1_555
H19_2 C30_2 1_555 1_555
C31_2 N8 1_555 1_555
H20_2 C31_2 1_555 1_555
C32_2 H21_2 1_555 1_555
C33_2 C32_2 1_555 1_555
H22_2 C33_2 1_555 1_555
C34_2 N4_2 1_555 1_555
C35_2 C34_2 1_555 1_555
H23_2 C35_2 1_555 1_555
C36_2 N6_2 1_555 1_555
H24_2 C36_2 1_555 1_555
Cd3 N6_2 1_555 1_555
C28_2 C29_2 1_555 1_555
C30_2 C31_2 1_555 1_555
C33_2 C34_2 1_555 1_555
C35_2 C36_2 1_555 1_555
Cl2_2 Cd3 1_555 1_555
N1_2 C8_2 1_555 1_555
N7 C22_2 1_555 1_555
C1_2 C2_2 1_555 1_555
C2_2 C3_2 1_555 1_555
C3_2 C4_2 1_555 1_555
C4_2 C11 1_555 1_555
C5_2 C1_2 1_555 1_555
C6_2 C5_2 1_555 1_555
H1_2 C6_2 1_555 1_555
C7_2 C6_2 1_555 1_555
H2_2 C7_2 1_555 1_555
C8_2 C7_2 1_555 1_555
C9_2 C8_2 1_555 1_555
H3_2 C9_2 1_555 1_555
C10_2 C5_2 1_555 1_555
H4_2 C10_2 1_555 1_555
C11 C12_2 1_555 1_555
C12_2 H5_2 1_555 1_555
C16 C11 1_555 1_555
H8 C16 1_555 1_555
C17_2 N2_2 1_555 1_555
H9_2 C17_2 1_555 1_555
C18_2 C17_2 1_555 1_555
H10_2 C18_2 1_555 1_555
C19_2 N1_2 1_555 1_555
C20_2 C19_2 1_555 1_555
H11_2 C20_2 1_555 1_555
C21_2 N2_2 1_555 1_555
H12_2 C21_2 1_555 1_555
C22_2 H13_2 1_555 1_555
C23_2 C22_2 1_555 1_555
H14_2 C23_2 1_555 1_555
C24_2 N1_2 1_555 1_555
C25_2 C24_2 1_555 1_555
H15_2 C25_2 1_555 1_555
C26_2 N7 1_555 1_555
H16_2 C26_2 1_555 1_555
C9_2 C10_2 1_555 1_555
C18_2 C19_2 1_555 1_555
C20_2 C21_2 1_555 1_555
C23_2 C24_2 1_555 1_555
C25_2 C26_2 1_555 1_555
C16_2 C11_2 1_555 1_555
H8_2 C16_2 1_555 1_555
N1_3 C8_3 1_555 1_555
N3_2 C22_3 1_555 1_555
C1_3 C2_3 1_555 1_555
C2_3 C3_3 1_555 1_555
C3_3 C4_3 1_555 1_555
C4_3 C11_3 1_555 1_555
C5_3 C1_3 1_555 1_555
C6_3 C5_3 1_555 1_555
H1_3 C6_3 1_555 1_555
C7_3 C6_3 1_555 1_555
H2_3 C7_3 1_555 1_555
C8_3 C7_3 1_555 1_555
C9_3 C8_3 1_555 1_555
H3_3 C9_3 1_555 1_555
C10_3 C5_3 1_555 1_555
H4_3 C10_3 1_555 1_555
C11_3 C12_3 1_555 1_555
C12_3 H5_3 1_555 1_555
C16_3 C11_3 1_555 1_555
H8_3 C16_3 1_555 1_555
C17_3 N2_3 1_555 1_555
H9_3 C17_3 1_555 1_555
C18_3 C17_3 1_555 1_555
H10_3 C18_3 1_555 1_555
C19_3 N1_3 1_555 1_555
C20_3 C19_3 1_555 1_555
H11_3 C20_3 1_555 1_555
C21_3 N2_3 1_555 1_555
H12_3 C21_3 1_555 1_555
C22_3 H13_3 1_555 1_555
C23_3 C22_3 1_555 1_555
H14_3 C23_3 1_555 1_555
C24_3 N1_3 1_555 1_555
C25_3 C24_3 1_555 1_555
H15_3 C25_3 1_555 1_555
C26_3 N3_2 1_555 1_555
H16_3 C26_3 1_555 1_555
C9_3 C10_3 1_555 1_555
C18_3 C19_3 1_555 1_555
C20_3 C21_3 1_555 1_555
C23_3 C24_3 1_555 1_555
C25_3 C26_3 1_555 1_555
Cl2_3 Cd1 1_555 1_555
N8_2 Cd1 1_555 1_555
N9 Cd1 1_555 1_555
N4_3 C14_3 1_555 1_555
N5_2 C27_3 1_555 1_555
N9 C32_3 1_555 1_555
H6_3 C13_3 1_555 1_555
C14_3 C13_3 1_555 1_555
C15_3 C14_3 1_555 1_555
H7_3 C15_3 1_555 1_555
C27_3 H17_3 1_555 1_555
C28_3 C27_3 1_555 1_555
H18_3 C28_3 1_555 1_555
C29_3 N4_3 1_555 1_555
C30_3 C29_3 1_555 1_555
H19_3 C30_3 1_555 1_555
C31_3 N5_2 1_555 1_555
H20_3 C31_3 1_555 1_555
C32_3 H21_3 1_555 1_555
C33_3 C32_3 1_555 1_555
H22_3 C33_3 1_555 1_555
C34_3 N4_3 1_555 1_555
C35_3 C34_3 1_555 1_555
H23_3 C35_3 1_555 1_555
C36_3 N9 1_555 1_555
H24_3 C36_3 1_555 1_555
Cd2 N5_2 1_555 1_555
C28_3 C29_3 1_555 1_555
C30_3 C31_3 1_555 1_555
C33_3 C34_3 1_555 1_555
C35_3 C36_3 1_555 1_555
Cd2 Cl1_4 1_555 1_555
Cl2_4 Cd2 1_555 1_555
N1_4 C8_4 1_555 1_555
N2_4 Cd2 1_555 1_555
N7_2 C22_4 1_555 1_555
C6_4 C5_4 1_555 1_555
H1_4 C6_4 1_555 1_555
C7_4 C6_4 1_555 1_555
H2_4 C7_4 1_555 1_555
C8_4 C7_4 1_555 1_555
C9_4 C8_4 1_555 1_555
H3_4 C9_4 1_555 1_555
C10_4 C5_4 1_555 1_555
H4_4 C10_4 1_555 1_555
C17_4 N2_4 1_555 1_555
H9_4 C17_4 1_555 1_555
C18_4 C17_4 1_555 1_555
H10_4 C18_4 1_555 1_555
C19_4 N1_4 1_555 1_555
C20_4 C19_4 1_555 1_555
H11_4 C20_4 1_555 1_555
C21_4 N2_4 1_555 1_555
H12_4 C21_4 1_555 1_555
C22_4 H13_4 1_555 1_555
C23_4 C22_4 1_555 1_555
H14_4 C23_4 1_555 1_555
C24_4 N1_4 1_555 1_555
C25_4 C24_4 1_555 1_555
C26_4 N7_2 1_555 1_555
N9_2 Cd2 1_555 1_555
C9_4 C10_4 1_555 1_555
C18_4 C19_4 1_555 1_555
C20_4 C21_4 1_555 1_555
C23_4 C24_4 1_555 1_555
C25_4 C26_4 1_555 1_555
C1_4 C2_4 1_555 1_555
C2_4 C3_4 1_555 1_555
C3_4 C4_4 1_555 1_555
C12_4 H5_4 1_555 1_555
N9_2 C32_4 1_555 1_555
C32_4 H21_4 1_555 1_555
N4_4 C14_4 1_555 1_555
N8_2 C27_4 1_555 1_555
C14_4 C13_4 1_555 1_555
C15_4 C14_4 1_555 1_555
H7_4 C15_4 1_555 1_555
C28_4 C27_4 1_555 1_555
H18_4 C28_4 1_555 1_555
C29_4 N4_4 1_555 1_555
C30_4 C29_4 1_555 1_555
H19_4 C30_4 1_555 1_555
C31_4 N8_2 1_555 1_555
H20_4 C31_4 1_555 1_555
H22_4 C33_4 1_555 1_555
C34_4 N4_4 1_555 1_555
C35_4 C34_4 1_555 1_555
H23_4 C35_4 1_555 1_555
H24_4 C36_4 1_555 1_555
C28_4 C29_4 1_555 1_555
C30_4 C31_4 1_555 1_555
C33_4 C34_4 1_555 1_555
C35_4 C36_4 1_555 1_555
C16_4 C11_4 1_555 1_555
H8_4 C16_4 1_555 1_555

#END
