
###############################################################################
#
# This file contains modified crystal structure data generated from the
# MOF subset of the Cambridge Structural Database (CSD) v543 
# hosted by the Cambridge Crystallographic Data Centre (CCDC).
#
# This work is licensed under the Creative Commons
# Attribution-NonCommercial-ShareAlike 4.0 International License.
# To view a copy of this license, visit
# http://creativecommons.org/licenses/by-nc-sa/4.0/
# or send a letter to
# Creative Commons, PO Box 1866, Mountain View, CA 94042, USA.
#
# CIF created using the CSD Python API on 29 September 2022
# The structure has been converted into the P1 space group
# The structure has a 3D framework
# The original CSD entry LAZQOU is in the monoclinic crystal system
# The framework has been calculated to contain at least 10.0% void space
# The void calculation uses a probe of radius 1.32A, grid spacing 0.4
# H atom positions have been added when not included in the experimental data
# Generated hydrogen atom positions removed from atoms on special positions
#
###############################################################################

data_LAZQOU
_chemical_formula_moiety         '(C104 H88 Co8 N8 O41)n'
_symmetry_cell_setting           triclinic
_symmetry_space_group_name_H-M   'P 1'
_symmetry_Int_Tables_number      1
_space_group_name_Hall           'P 1'
loop_
_symmetry_equiv_pos_site_id
_symmetry_equiv_pos_as_xyz
1 x,y,z
_cell_length_a                   17.283(3)
_cell_length_b                   10.835(2)
_cell_length_c                   18.443(2)
_cell_angle_alpha                90
_cell_angle_beta                 119.250(11)
_cell_angle_gamma                90
_cell_volume                     3013.3
loop_
_atom_site_label
_atom_site_type_symbol
_atom_site_fract_x
_atom_site_fract_y
_atom_site_fract_z
C12 C 0.2305(3) 0.2691(4) 0.0331(3)
H6 H 0.2649 0.2582 0.0902
H7 H 0.1211 0.1867 0.0217
C14 C 0.3577(2) 0.3787(3) 0.0312(2)
O4 O 0.39552(16) 0.4069(3) 0.10597(16)
Co8 Co 0.5000 0.5000 0.0000
H2 H 0.0843 0.0011 0.9080
C8 C 0.0938(3) 0.2437(4) 0.9090(3)
C9 C 0.1265(3) 0.2991(5) 0.8641(3)
H4 H 0.0912 0.3086 0.8070
C10 C 0.2132(3) 0.3417(4) 0.9041(3)
H5 H 0.2362 0.3798 0.8735
C11 C 0.2657(2) 0.3279(4) 0.9892(2)
C13 C 0.1446(3) 0.2269(5) 0.9922(3)
O3 O 0.00346(19) 0.2174(3) 0.8681(3)
O5 O 0.39330(16) 0.3934(2) 0.98503(16)
Co8_2 Co 0.5000 0.5000 1.0000
C16 C 0.1701(3) 0.7931(6) 0.0043(4)
H8 H 0.1458 0.8265 0.0351
C17 C 0.2599(3) 0.7726(5) 0.0408(3)
H9 H 0.2961 0.7912 0.0967
C21 C 0.3950(2) 0.6956(3) 0.0363(2)
C22 C 0.5888(3) 0.5505(4) 0.3471(3)
H12 H 0.6370 0.5146 0.3458
C23 C 0.5742(3) 0.5212(4) 0.4128(3)
H13 H 0.6124 0.4683 0.4549
C24 C 0.5034(3) 0.5711(4) 0.4143(2)
C25 C 0.4497(3) 0.6523(4) 0.3535(3)
H14 H 0.4021 0.6900 0.3547
C26 C 0.4687(3) 0.6765(4) 0.2899(3)
H15 H 0.4316 0.7301 0.2478
Co1 Co 0.57102(3) 0.68611(4) 0.19391(3)
N1 N 0.53763(19) 0.6269(3) 0.28602(19)
N2 N 0.4792(2) 0.5436(4) 0.4774(2)
O7 O 0.43942(15) 0.7192(2) 0.11243(16)
O9 O 0.59574(18) 0.8603(2) 0.24983(18)
O10 O 0.60907(17) 0.7770(3) 0.11497(17)
H17 H 0.6603 0.8081 0.1439
H18 H 0.5728 0.8352 0.0895
O11 O 0.54656(14) 0.5063(2) 0.13205(14)
H19 H 0.5088 0.4682 0.1408
H20 H 0.5946 0.4655 0.1560
C48 C 0.4112(3) 0.4495(4) 0.6529(3)
H32 H 0.3630 0.4854 0.6542
C49 C 0.4258(3) 0.4788(4) 0.5872(3)
H33 H 0.3876 0.5317 0.5451
C50 C 0.4966(3) 0.4289(4) 0.5857(2)
C51 C 0.5503(3) 0.3477(4) 0.6465(3)
H34 H 0.5979 0.3100 0.6453
C52 C 0.5313(3) 0.3235(4) 0.7101(3)
H35 H 0.5684 0.2699 0.7522
Co5 Co 0.42898(3) 0.31389(4) 0.80609(3)
N3 N 0.46237(19) 0.3731(3) 0.71398(19)
N5 N 0.5208(2) 0.4564(4) 0.5226(2)
O13 O 0.70422(14) 0.6308(2) 0.26338(16)
O19 O 0.60670(16) 0.6066(2) 0.01497(16)
O24 O 0.57657(15) 0.3492(2) 0.00926(15)
C5 C 0.0230(2) 0.9956(4) 0.8839(3)
C15 C 0.1166(2) 0.7639(5) 0.9218(4)
C18 C 0.2973(2) 0.7241(4) 0.9947(2)
C19 C 0.2424(3) 0.6973(4) 0.9114(3)
H10 H 0.2662 0.6655 0.8796
C20 C 0.1517(3) 0.7181(5) 0.8755(3)
H11 H 0.1149 0.7007 0.8195
O6 O 0.02478(18) 0.7718(3) 0.8853(3)
O8 O 0.42343(15) 0.6508(2) 0.99074(15)
O14 O 0.29578(14) 0.3692(2) 0.73662(16)
O22 O 0.56058(15) 0.2808(2) 0.88757(16)
O25 O 0.40426(18) 0.1397(2) 0.75017(18)
O26 O 0.39093(17) 0.2230(3) 0.88503(17)
H37 H 0.3397 0.1919 0.8561
H38 H 0.4272 0.1648 0.9105
O27 O 0.45344(14) 0.4937(2) 0.86795(14)
H39 H 0.4912 0.5318 0.8592
H40 H 0.4054 0.5345 0.8440
C1 C 0.2608(2) 0.4736(3) 0.7293(2)
C2 C 0.1607(2) 0.4795(3) 0.6874(2)
C3 C 0.1104(2) 0.3735(4) 0.6648(3)
H1 H 0.1373 0.2967 0.6724
C4 C 0.0192(2) 0.3825(4) 0.6305(3)
C6 C 0.0292(2) 0.5996(4) 0.6387(3)
C7 C 0.1199(2) 0.5931(4) 0.6733(2)
H3 H 0.1536 0.6649 0.6872
O2 O 0.30189(15) 0.5729(3) 0.75536(18)
C31 C 0.9770(2) 0.0044(4) 0.1161(3)
C41 C 0.8834(2) 0.2361(5) 0.0782(4)
C44 C 0.7027(2) 0.2759(4) 0.0053(2)
C45 C 0.7576(3) 0.3027(4) 0.0886(3)
H30 H 0.7338 0.3345 0.1204
C46 C 0.8483(3) 0.2819(5) 0.1245(3)
H31 H 0.8851 0.2993 0.1805
O20 O 0.97522(18) 0.2282(3) 0.1147(3)
C42 C 0.8299(3) 0.2069(6) 0.9957(4)
H28 H 0.8542 0.1735 0.9649
C43 C 0.7401(3) 0.2274(5) 0.9592(3)
H29 H 0.7039 0.2088 0.9033
C47 C 0.6050(2) 0.3044(3) 0.9637(2)
H22 H 0.9157 0.9989 0.0920
C34 C 0.9062(3) 0.7563(4) 0.0910(3)
C35 C 0.8735(3) 0.7009(5) 0.1359(3)
H24 H 0.9088 0.6914 0.1930
C36 C 0.7868(3) 0.6583(4) 0.0959(3)
H25 H 0.7638 0.6202 0.1265
C37 C 0.7343(2) 0.6721(4) 0.0108(2)
C39 C 0.8554(3) 0.7731(5) 0.0078(3)
O16 O 0.99654(19) 0.7826(3) 0.1319(3)
C38 C 0.7695(3) 0.7309(4) 0.9669(3)
H26 H 0.7351 0.7418 0.9098
H27 H 0.8789 0.8133 0.9783
C40 C 0.6423(2) 0.6213(3) 0.9688(2)
O17 O 0.60448(16) 0.5931(3) 0.89403(16)
C27 C 0.7392(2) 0.5264(3) 0.2707(2)
C28 C 0.8393(2) 0.5205(3) 0.3126(2)
C29 C 0.8896(2) 0.6265(4) 0.3352(3)
H21 H 0.8627 0.7033 0.3276
C30 C 0.9808(2) 0.6175(4) 0.3695(3)
C32 C 0.9708(2) 0.4004(4) 0.3613(3)
C33 C 0.8801(2) 0.4069(4) 0.3267(2)
H23 H 0.8464 0.3351 0.3128
O15 O 0.69811(15) 0.4271(3) 0.24464(18)
C6_2 C 0.9708(2) 0.0996(4) 0.8613(3)
C7_2 C 0.8801(2) 0.0931(4) 0.8267(2)
H3_2 H 0.8464 0.1649 0.8128
O2_2 O 0.69811(15) 0.0729(3) 0.74464(18)
C1_2 C 0.7392(2) 0.9736(3) 0.7707(2)
C2_2 C 0.8393(2) 0.9795(3) 0.8126(2)
C3_2 C 0.8896(2) 0.8735(4) 0.8352(3)
H1_2 H 0.8627 0.7967 0.8276
C4_2 C 0.9808(2) 0.8825(4) 0.8695(3)
O1 O 0.70422(14) 0.8692(2) 0.76338(16)
Co4 Co 0.57102(3) 0.81389(4) 0.69391(3)
Co8_3 Co 0.5000 -0.0000 0.5000
C5_2 C 0.9770(2) 0.4956(4) 0.6161(3)
H2_2 H 0.9157 0.5011 0.5920
C8_2 C 0.9062(3) 0.7437(4) 0.5910(3)
C9_2 C 0.8735(3) 0.7991(5) 0.6359(3)
H4_2 H 0.9088 0.8086 0.6930
C10_2 C 0.7868(3) 0.8417(4) 0.5959(3)
H5_2 H 0.7638 0.8798 0.6265
C11_2 C 0.7343(2) 0.8279(4) 0.5108(2)
C12_2 C 0.7695(3) 0.7691(4) 0.4669(3)
H6_2 H 0.7351 0.7582 0.4098
C13_2 C 0.8554(3) 0.7269(5) 0.5078(3)
H7_2 H 0.8789 0.6867 0.4783
C14_2 C 0.6423(2) 0.8787(3) 0.4688(2)
C15_2 C 0.8834(2) 0.2639(5) 0.5782(4)
C16_2 C 0.8299(3) 0.2931(6) 0.4957(4)
H8_2 H 0.8542 0.3265 0.4649
C17_2 C 0.7401(3) 0.2726(5) 0.4592(3)
H9_2 H 0.7039 0.2912 0.4033
C18_2 C 0.7027(2) 0.2241(4) 0.5053(2)
C19_2 C 0.7576(3) 0.1973(4) 0.5886(3)
H10_2 H 0.7338 0.1655 0.6204
C20_2 C 0.8483(3) 0.2181(5) 0.6245(3)
H11_2 H 0.8851 0.2007 0.6805
C21_2 C 0.6050(2) 0.1956(3) 0.4637(2)
C22_2 C 0.4112(3) 0.0505(4) 0.1529(3)
H12_2 H 0.3630 0.0146 0.1542
C23_2 C 0.4258(3) 0.0212(4) 0.0872(3)
C24_2 C 0.4966(3) 0.0711(4) 0.0857(2)
C25_2 C 0.5503(3) 0.1523(4) 0.1465(3)
H14_2 H 0.5979 0.1900 0.1453
C26_2 C 0.5313(3) 0.1765(4) 0.2101(3)
H15_2 H 0.5684 0.2301 0.2522
Co1_2 Co 0.42898(3) 0.18611(4) 0.30609(3)
N1_2 N 0.46237(19) 0.1269(3) 0.21398(19)
N2_2 N 0.5208(2) 0.0436(4) 0.0226(2)
O3_2 O 0.99654(19) 0.7174(3) 0.6319(3)
O4_2 O 0.60448(16) 0.9069(3) 0.39403(16)
O5_2 O 0.60670(16) 0.8934(2) 0.51497(16)
O6_2 O 0.97522(18) 0.2718(3) 0.6147(3)
O7_2 O 0.56058(15) 0.2192(2) 0.38757(16)
O8_2 O 0.57657(15) 0.1508(2) 0.50926(15)
O9_2 O 0.40426(18) 0.3603(2) 0.25017(18)
O10_2 O 0.39093(17) 0.2770(3) 0.38503(17)
H17_2 H 0.3397 0.3081 0.3561
H18_2 H 0.4272 0.3352 0.4105
O11_2 O 0.45344(14) 0.0063(2) 0.36795(14)
Co8_4 Co 0.5000 1.0000 0.5000
O13_2 O 0.29578(14) 0.1308(2) 0.23662(16)
O19_2 O 0.39330(16) 0.1066(2) 0.48503(16)
H39_2 H 0.5088 0.0318 0.6408
H40_2 H 0.5946 0.0345 0.6560
H33_2 H 0.6124 0.0317 0.9549
H13_2 H 0.3876 0.9683 0.0451
H19_2 H 0.4912 0.9682 0.3592
H20_2 H 0.4054 0.9655 0.3440
N4 N 0.53763(19) 0.8731(3) 0.78602(19)
O22_2 O 0.43942(15) 0.7808(2) 0.61243(16)
O24_2 O 0.42343(15) 0.8492(2) 0.49074(15)
O25_2 O 0.59574(18) 0.6397(2) 0.74983(18)
O26_2 O 0.60907(17) 0.7230(3) 0.61497(17)
H37_2 H 0.6603 0.6919 0.6439
H38_2 H 0.5728 0.6648 0.5895
O27_2 O 0.54656(14) 0.9937(2) 0.63205(14)
C48_2 C 0.5888(3) 0.9495(4) 0.8471(3)
H32_2 H 0.6370 0.9854 0.8458
C49_2 C 0.5742(3) 0.9788(4) 0.9128(3)
C50_2 C 0.5034(3) 0.9289(4) 0.9143(2)
C51_2 C 0.4497(3) 0.8477(4) 0.8535(3)
H34_2 H 0.4021 0.8100 0.8547
C52_2 C 0.4687(3) 0.8235(4) 0.7899(3)
H35_2 H 0.4316 0.7699 0.7478
N5_2 N 0.4792(2) 0.9564(4) 0.9774(2)
C27_2 C 0.2608(2) 0.0264(3) 0.2293(2)
C28_2 C 0.1607(2) 0.0205(3) 0.1874(2)
C29_2 C 0.1104(2) 0.1265(4) 0.1648(3)
H21_2 H 0.1373 0.2033 0.1724
C30_2 C 0.0192(2) 0.1175(4) 0.1305(3)
C32_2 C 0.0292(2) 0.9004(4) 0.1387(3)
C33_2 C 0.1199(2) 0.9069(4) 0.1733(2)
H23_2 H 0.1536 0.8351 0.1872
O15_2 O 0.30189(15) 0.9271(3) 0.25536(18)
C31_2 C 0.0230(2) 0.5044(4) 0.3839(3)
H22_2 H 0.0843 0.4989 0.4080
C34_2 C 0.0938(3) 0.2563(4) 0.4090(3)
C35_2 C 0.1265(3) 0.2009(5) 0.3641(3)
H24_2 H 0.0912 0.1914 0.3070
C36_2 C 0.2132(3) 0.1583(4) 0.4041(3)
H25_2 H 0.2362 0.1202 0.3735
C37_2 C 0.2657(2) 0.1721(4) 0.4892(2)
C38_2 C 0.2305(3) 0.2309(4) 0.5331(3)
H26_2 H 0.2649 0.2418 0.5902
C39_2 C 0.1446(3) 0.2731(5) 0.4922(3)
H27_2 H 0.1211 0.3133 0.5217
C40_2 C 0.3577(2) 0.1213(3) 0.5312(2)
C41_2 C 0.1166(2) 0.7361(5) 0.4218(4)
C42_2 C 0.1701(3) 0.7069(6) 0.5043(4)
H28_2 H 0.1458 0.6735 0.5351
C43_2 C 0.2599(3) 0.7274(5) 0.5408(3)
H29_2 H 0.2961 0.7088 0.5967
C44_2 C 0.2973(2) 0.7759(4) 0.4947(2)
C45_2 C 0.2424(3) 0.8027(4) 0.4114(3)
H30_2 H 0.2662 0.8345 0.3796
C46_2 C 0.1517(3) 0.7819(5) 0.3755(3)
H31_2 H 0.1149 0.7993 0.3195
C47_2 C 0.3950(2) 0.8044(3) 0.5363(2)
O16_2 O 0.00346(19) 0.2826(3) 0.3681(3)
O17_2 O 0.39552(16) 0.0931(3) 0.60597(16)
O20_2 O 0.02478(18) 0.7282(3) 0.3853(3)
loop_
_geom_bond_atom_site_label_1
_geom_bond_atom_site_label_2
_geom_bond_site_symmetry_1
_geom_bond_site_symmetry_2
H6 C12 1_555 1_555
O4 C14 1_555 1_555
C8 C9 1_555 1_555
C9 H4 1_555 1_555
C10 C9 1_555 1_555
H5 C10 1_555 1_555
C11 C10 1_555 1_555
C13 C8 1_555 1_555
Co8_2 O5 1_555 1_555
C8 O3 1_555 1_555
C16 H8 1_555 1_555
C17 C16 1_555 1_555
H9 C17 1_555 1_555
C22 H12 1_555 1_555
C23 C22 1_555 1_555
H13 C23 1_555 1_555
C24 C23 1_555 1_555
C25 C24 1_555 1_555
H14 C25 1_555 1_555
C26 C25 1_555 1_555
H15 C26 1_555 1_555
Co1 N1 1_555 1_555
N1 C22 1_555 1_555
N2 C24 1_555 1_555
O7 C21 1_555 1_555
O9 Co1 1_555 1_555
O10 Co1 1_555 1_555
H17 O10 1_555 1_555
H18 O10 1_555 1_555
O11 Co1 1_555 1_555
H19 O11 1_555 1_555
H20 O11 1_555 1_555
C48 H32 1_555 1_555
C49 C48 1_555 1_555
H33 C49 1_555 1_555
C50 C49 1_555 1_555
C51 C50 1_555 1_555
H34 C51 1_555 1_555
C52 C51 1_555 1_555
H35 C52 1_555 1_555
Co5 N3 1_555 1_555
N3 C48 1_555 1_555
N5 N2 1_555 1_555
O13 Co1 1_555 1_555
O19 Co8 1_555 1_555
O24 Co8 1_555 1_555
C26 N1 1_555 1_555
Co1 O7 1_555 1_555
Co8 O11 1_555 1_555
C50 N5 1_555 1_555
C52 N3 1_555 1_555
C19 C18 1_555 1_555
H10 C19 1_555 1_555
C20 C15 1_555 1_555
H11 C20 1_555 1_555
Co8_2 O8 1_555 1_555
O14 Co5 1_555 1_555
O22 Co5 1_555 1_555
O25 Co5 1_555 1_555
O26 Co5 1_555 1_555
H37 O26 1_555 1_555
H38 O26 1_555 1_555
O27 Co8_2 1_555 1_555
H39 O27 1_555 1_555
H40 O27 1_555 1_555
C15 O6 1_555 1_555
C19 C20 1_555 1_555
Co5 O27 1_555 1_555
C1 C2 1_555 1_555
C2 C3 1_555 1_555
C3 H1 1_555 1_555
C4 C3 1_555 1_555
C7 C2 1_555 1_555
H3 C7 1_555 1_555
O14 C1 1_555 1_555
O2 C1 1_555 1_555
C6 C7 1_555 1_555
C45 C44 1_555 1_555
H30 C45 1_555 1_555
C46 C41 1_555 1_555
H31 C46 1_555 1_555
C41 O20 1_555 1_555
C45 C46 1_555 1_555
C42 H28 1_555 1_555
C43 C42 1_555 1_555
H29 C43 1_555 1_555
O22 C47 1_555 1_555
C34 C35 1_555 1_555
C35 H24 1_555 1_555
C36 C35 1_555 1_555
H25 C36 1_555 1_555
C37 C36 1_555 1_555
C39 C34 1_555 1_555
C34 O16 1_555 1_555
H26 C38 1_555 1_555
O17 C40 1_555 1_555
C27 C28 1_555 1_555
C28 C29 1_555 1_555
C29 H21 1_555 1_555
C30 C29 1_555 1_555
C33 C28 1_555 1_555
H23 C33 1_555 1_555
O13 C27 1_555 1_555
O15 C27 1_555 1_555
C32 C33 1_555 1_555
H3_2 C7_2 1_555 1_555
C6_2 C7_2 1_555 1_555
C1_2 C2_2 1_555 1_555
C2_2 C3_2 1_555 1_555
C3_2 H1_2 1_555 1_555
C4_2 C3_2 1_555 1_555
O1 C1_2 1_555 1_555
Co4 O1 1_555 1_555
H2_2 C5_2 1_555 1_555
C8_2 C9_2 1_555 1_555
C9_2 H4_2 1_555 1_555
C10_2 C9_2 1_555 1_555
H5_2 C10_2 1_555 1_555
C11_2 C10_2 1_555 1_555
C12_2 C11_2 1_555 1_555
H6_2 C12_2 1_555 1_555
C13_2 C8_2 1_555 1_555
H7_2 C13_2 1_555 1_555
C14_2 C11_2 1_555 1_555
C15_2 C16_2 1_555 1_555
C16_2 H8_2 1_555 1_555
C17_2 C16_2 1_555 1_555
H9_2 C17_2 1_555 1_555
C18_2 C17_2 1_555 1_555
C19_2 C18_2 1_555 1_555
H10_2 C19_2 1_555 1_555
C20_2 C15_2 1_555 1_555
H11_2 C20_2 1_555 1_555
C21_2 C18_2 1_555 1_555
C22_2 H12_2 1_555 1_555
C23_2 C22_2 1_555 1_555
C24_2 C23_2 1_555 1_555
C25_2 C24_2 1_555 1_555
H14_2 C25_2 1_555 1_555
C26_2 C25_2 1_555 1_555
H15_2 C26_2 1_555 1_555
Co1_2 N1_2 1_555 1_555
Co8_3 O8_2 1_555 1_555
N1_2 C22_2 1_555 1_555
N2_2 C24_2 1_555 1_555
O4_2 C14_2 1_555 1_555
O5_2 C14_2 1_555 1_555
O7_2 C21_2 1_555 1_555
O8_2 C21_2 1_555 1_555
O9_2 Co1_2 1_555 1_555
O10_2 Co1_2 1_555 1_555
H17_2 O10_2 1_555 1_555
H18_2 O10_2 1_555 1_555
O11_2 Co1_2 1_555 1_555
Co8_4 O5_2 1_555 1_555
O13_2 Co1_2 1_555 1_555
O19_2 Co8_3 1_555 1_555
C8_2 O3_2 1_555 1_555
C12_2 C13_2 1_555 1_555
C15_2 O6_2 1_555 1_555
C19_2 C20_2 1_555 1_555
C26_2 N1_2 1_555 1_555
Co1_2 O7_2 1_555 1_555
Co8_3 O11_2 1_555 1_555
Co4 N4 1_555 1_555
O22_2 Co4 1_555 1_555
O24_2 Co8_4 1_555 1_555
O25_2 Co4 1_555 1_555
O26_2 Co4 1_555 1_555
H37_2 O26_2 1_555 1_555
H38_2 O26_2 1_555 1_555
O27_2 Co8_4 1_555 1_555
Co4 O27_2 1_555 1_555
C48_2 H32_2 1_555 1_555
C49_2 C48_2 1_555 1_555
C50_2 C49_2 1_555 1_555
C51_2 C50_2 1_555 1_555
H34_2 C51_2 1_555 1_555
C52_2 C51_2 1_555 1_555
H35_2 C52_2 1_555 1_555
N4 C48_2 1_555 1_555
C50_2 N5_2 1_555 1_555
C52_2 N4 1_555 1_555
C27_2 C28_2 1_555 1_555
C28_2 C29_2 1_555 1_555
C29_2 H21_2 1_555 1_555
C30_2 C29_2 1_555 1_555
O13_2 C27_2 1_555 1_555
H23_2 C33_2 1_555 1_555
C32_2 C33_2 1_555 1_555
H22_2 C31_2 1_555 1_555
C34_2 C35_2 1_555 1_555
C35_2 H24_2 1_555 1_555
C36_2 C35_2 1_555 1_555
H25_2 C36_2 1_555 1_555
C37_2 C36_2 1_555 1_555
C38_2 C37_2 1_555 1_555
H26_2 C38_2 1_555 1_555
C39_2 C34_2 1_555 1_555
H27_2 C39_2 1_555 1_555
C40_2 C37_2 1_555 1_555
C41_2 C42_2 1_555 1_555
C42_2 H28_2 1_555 1_555
C43_2 C42_2 1_555 1_555
H29_2 C43_2 1_555 1_555
C44_2 C43_2 1_555 1_555
C45_2 C44_2 1_555 1_555
H30_2 C45_2 1_555 1_555
C46_2 C41_2 1_555 1_555
H31_2 C46_2 1_555 1_555
C47_2 C44_2 1_555 1_555
O17_2 C40_2 1_555 1_555
O22_2 C47_2 1_555 1_555
O24_2 C47_2 1_555 1_555
C34_2 O16_2 1_555 1_555
C38_2 C39_2 1_555 1_555
C40_2 O19_2 1_555 1_555
C41_2 O20_2 1_555 1_555
C45_2 C46_2 1_555 1_555

#END
