
###############################################################################
#
# This file contains modified crystal structure data generated from the
# MOF subset of the Cambridge Structural Database (CSD) v543 
# hosted by the Cambridge Crystallographic Data Centre (CCDC).
#
# This work is licensed under the Creative Commons
# Attribution-NonCommercial-ShareAlike 4.0 International License.
# To view a copy of this license, visit
# http://creativecommons.org/licenses/by-nc-sa/4.0/
# or send a letter to
# Creative Commons, PO Box 1866, Mountain View, CA 94042, USA.
#
# CIF created using the CSD Python API on 29 September 2022
# The structure has been converted into the P1 space group
# The structure has a 3D framework
# The original CSD entry LAZQIO is in the monoclinic crystal system
# The framework has been calculated to contain at least 10.0% void space
# The void calculation uses a probe of radius 1.32A, grid spacing 0.4
# H atom positions have been added when not included in the experimental data
#
###############################################################################

data_LAZQIO
_chemical_formula_moiety         '(C108 H86 Co9 N4 O39)n'
_symmetry_cell_setting           triclinic
_symmetry_space_group_name_H-M   'P 1'
_symmetry_Int_Tables_number      1
_space_group_name_Hall           'P 1'
loop_
_symmetry_equiv_pos_site_id
_symmetry_equiv_pos_as_xyz
1 x,y,z
_cell_length_a                   17.403(3)
_cell_length_b                   10.834(2)
_cell_length_c                   17.981(3)
_cell_angle_alpha                90
_cell_angle_beta                 116.758(4)
_cell_angle_gamma                90
_cell_volume                     3027.17
loop_
_atom_site_label
_atom_site_type_symbol
_atom_site_fract_x
_atom_site_fract_y
_atom_site_fract_z
C49 C 0.2475(4) 0.5561(6) 0.1556(4)
H33 H 0.2958 0.5188 0.1559
C50 C 0.1690(4) 0.5280(6) 0.0917(4)
H34 H 0.1648 0.4744 0.0475
C51 C 0.0962(3) 0.5770(5) 0.0912(3)
C52 C 0.1067(4) 0.6611(5) 0.1525(4)
H35 H 0.0577 0.7020 0.1525
C53 C 0.1888(4) 0.6843(6) 0.2144(4)
H36 H 0.1948 0.7391 0.2565
C54 C 0.0092(4) 0.5441(6) 0.0288(4)
Co6 Co 0.38316(4) 0.68883(6) 0.30684(4)
N2 N 0.2597(3) 0.6332(4) 0.2175(3)
C2 C 0.9711(3) 0.0183(5) 0.3139(3)
C6 C 0.8831(4) 0.1126(6) 0.3684(4)
C7 C 0.9398(4) 0.1235(6) 0.3338(4)
H3 H 0.9572 0.2037 0.3242
C15 C 0.7971(5) 0.2290(7) 0.4174(5)
C16 C 0.8266(5) 0.2021(8) 0.5009(5)
H8 H 0.8834 0.1690 0.5325
C17 C 0.7741(4) 0.2238(7) 0.5379(4)
H9 H 0.7936 0.2032 0.5955
C18 C 0.6932(4) 0.2727(5) 0.4929(4)
C19 C 0.6641(4) 0.2971(6) 0.4088(4)
H10 H 0.6070 0.3286 0.3766
C20 C 0.7169(5) 0.2759(7) 0.3716(5)
H11 H 0.6976 0.2943 0.3137
C21 C 0.6357(3) 0.3018(5) 0.5343(3)
C22 C 0.7525(4) 0.4439(6) 0.8444(4)
H12 H 0.7042 0.4812 0.8441
C23 C 0.8310(4) 0.4720(6) 0.9083(4)
H13 H 0.8352 0.5256 0.9525
C24 C 0.9038(3) 0.4230(5) 0.9088(3)
C25 C 0.8933(4) 0.3389(5) 0.8475(4)
H14 H 0.9423 0.2980 0.8475
C26 C 0.8112(4) 0.3157(6) 0.7856(4)
H15 H 0.8052 0.2609 0.7435
C27 C 0.9908(4) 0.4559(6) 0.9712(4)
Co1 Co 0.61684(4) 0.31117(6) 0.69316(4)
H16 H 0.5967(18) 0.109(8) 0.737(4)
H17 H 0.682(2) 0.117(6) 0.7973(15)
N1 N 0.7403(3) 0.3668(4) 0.7825(3)
O6 O 0.8519(4) 0.2226(5) 0.3802(4)
O7 O 0.5635(2) 0.3470(3) 0.4886(2)
O8 O 0.6661(2) 0.2755(4) 0.6099(2)
O10 O 0.4995(2) 0.2269(4) 0.6166(2)
H20 H 0.5081 0.1657 0.5917
H21 H 0.4763 0.2004 0.6462
O11 O 0.6465(3) 0.1361(4) 0.7478(3)
Co8 Co 0.5000 0.5000 0.5000
O13 O 0.5563(2) 0.3686(3) 0.7654(2)
O25 O 0.5831(2) 0.4915(3) 0.6321(2)
H40 H 0.5595 0.5333 0.6563
H42 H 0.6298 0.5279 0.6412
C3 C 0.9473(4) 0.9037(6) 0.3296(4)
H1 H 0.9695 0.8304 0.3163
C4 C 0.8915(4) 0.8947(6) 0.3646(4)
C5 C 0.8576(4) 0.9993(6) 0.3839(4)
H2 H 0.8184 0.9927 0.4079
C8 C 0.8191(5) 0.7505(7) 0.4138(5)
C9 C 0.8507(5) 0.7661(7) 0.4973(5)
H4 H 0.9034 0.8051 0.5274
C10 C 0.8036(4) 0.7233(6) 0.5378(4)
H5 H 0.8259 0.7324 0.5970
C11 C 0.7258(4) 0.6664(5) 0.4925(4)
C12 C 0.6936(4) 0.6533(7) 0.4076(4)
H6 H 0.6387 0.6147 0.3759
C13 C 0.7417(5) 0.6967(8) 0.3689(5)
H7 H 0.7198 0.6886 0.3097
C14 C 0.6742(3) 0.6153(5) 0.5346(3)
O3 O 0.8691(4) 0.7784(5) 0.3735(4)
O4 O 0.5941(2) 0.6042(4) 0.4879(2)
O5 O 0.7115(2) 0.5866(4) 0.6091(2)
O9 O 0.4169(2) 0.5085(3) 0.3679(2)
H18 H 0.4405 0.4667 0.3437
H19 H 0.3702 0.4721 0.3588
O18 O 0.4059(2) 0.3958(4) 0.5121(2)
O22 O 0.4365(2) 0.6530(3) 0.5114(2)
Co8_2 Co 0.0000 -0.0000 1.0000
O10_2 O 0.0005(2) 0.7269(4) 0.8834(2)
H21_2 H 0.0237 0.7004 0.8538
Co8_3 Co 0.0000 1.0000 1.0000
O22_2 O 0.0635(2) 0.1530(3) 0.9886(2)
O18_2 O 0.0941(2) 0.8958(4) 0.9879(2)
Co8_4 Co 1.0000 -0.0000 0.0000
C1 C 0.4708(3) 0.5265(5) 0.2283(3)
C2_2 C 0.5289(3) 0.5183(5) 0.1861(3)
C3_2 C 0.5527(4) 0.4037(6) 0.1704(4)
H1_2 H 0.5305 0.3304 0.1837
C4_2 C 0.6085(4) 0.3947(6) 0.1354(4)
C5_2 C 0.6424(4) 0.4993(6) 0.1161(4)
H2_2 H 0.6816 0.4927 0.0921
C6_2 C 0.6169(4) 0.6126(6) 0.1316(4)
C7_2 C 0.5602(4) 0.6235(6) 0.1662(4)
H3_2 H 0.5428 0.7037 0.1758
C8_2 C 0.6809(5) 0.2505(7) 0.0862(5)
C9_2 C 0.6493(5) 0.2661(7) 0.0027(5)
C11_2 C 0.7742(4) 0.1664(5) 0.0075(4)
C12_2 C 0.8064(4) 0.1533(7) 0.0924(4)
H6_2 H 0.8613 0.1147 0.1241
C13_2 C 0.7583(5) 0.1967(8) 0.1311(5)
H7_2 H 0.7802 0.1886 0.1903
C15_2 C 0.7029(5) 0.7290(7) 0.0826(5)
C18_2 C 0.8068(4) 0.7727(5) 0.0071(4)
C19_2 C 0.8359(4) 0.7971(6) 0.0912(4)
H10_2 H 0.8930 0.8286 0.1234
C20_2 C 0.7831(5) 0.7759(7) 0.1284(5)
H11_2 H 0.8024 0.7943 0.1863
O1 O 0.4437(2) 0.6314(3) 0.2346(2)
O2 O 0.4556(3) 0.4282(4) 0.2547(3)
O3_2 O 0.6309(4) 0.2784(5) 0.1265(4)
O4_2 O 0.9059(2) 0.1042(4) 0.0121(2)
O6_2 O 0.6481(4) 0.7226(5) 0.1198(4)
O7_2 O 0.9365(2) 0.8470(3) 0.0114(2)
Co8_5 Co 1.0000 1.0000 0.0000
C30 C 0.0527(4) 0.0963(6) 0.6704(4)
H22 H 0.0305 0.1696 0.6837
C31 C 0.1085(4) 0.1053(6) 0.6354(4)
C32 C 0.1424(4) 0.0007(6) 0.6161(4)
H23 H 0.1816 0.0073 0.5921
C35 C 0.1809(5) 0.2495(7) 0.5862(5)
C36 C 0.1493(5) 0.2339(7) 0.5027(5)
H25 H 0.0966 0.1949 0.4726
C37 C 0.1964(4) 0.2767(6) 0.4622(4)
H26 H 0.1741 0.2676 0.4030
C38 C 0.2742(4) 0.3336(5) 0.5075(4)
C39 C 0.3064(4) 0.3467(7) 0.5924(4)
H27 H 0.3613 0.3853 0.6241
C40 C 0.2583(5) 0.3033(8) 0.6311(5)
H28 H 0.2802 0.3114 0.6903
C41 C 0.3258(3) 0.3847(5) 0.4654(3)
O16 O 0.1309(4) 0.2216(5) 0.6265(4)
O19 O 0.2885(2) 0.4134(4) 0.3909(2)
C29 C 0.0289(3) 0.9817(5) 0.6861(3)
C33 C 0.1169(4) 0.8874(6) 0.6316(4)
C34 C 0.0602(4) 0.8765(6) 0.6662(4)
H24 H 0.0428 0.7963 0.6758
C42 C 0.2029(5) 0.7710(7) 0.5826(5)
C43 C 0.1734(5) 0.7979(8) 0.4991(5)
H29 H 0.1166 0.8310 0.4675
C44 C 0.2259(4) 0.7762(7) 0.4621(4)
H30 H 0.2064 0.7968 0.4045
C45 C 0.3068(4) 0.7273(5) 0.5071(4)
C46 C 0.3359(4) 0.7029(6) 0.5912(4)
H31 H 0.3930 0.6714 0.6234
C47 C 0.2831(5) 0.7241(7) 0.6284(5)
H32 H 0.3024 0.7057 0.6863
C48 C 0.3643(3) 0.6982(5) 0.4657(3)
H37 H 0.4033(18) 0.891(8) 0.263(4)
H38 H 0.318(2) 0.883(6) 0.2027(15)
O20 O 0.1481(4) 0.7774(5) 0.6198(4)
O23 O 0.3339(2) 0.7245(4) 0.3901(2)
O26 O 0.5005(2) 0.7731(4) 0.3834(2)
H43 H 0.4919 0.8343 0.4083
H44 H 0.5237 0.7996 0.3538
O27 O 0.3535(3) 0.8639(4) 0.2522(3)
C28 C 0.5292(3) 0.4735(5) 0.7717(3)
C29_2 C 0.4711(3) 0.4817(5) 0.8139(3)
C30_2 C 0.4473(4) 0.5963(6) 0.8296(4)
H22_2 H 0.4695 0.6696 0.8163
C31_2 C 0.3915(4) 0.6053(6) 0.8646(4)
C32_2 C 0.3576(4) 0.5007(6) 0.8839(4)
H23_2 H 0.3184 0.5073 0.9079
C33_2 C 0.3831(4) 0.3874(6) 0.8684(4)
C34_2 C 0.4398(4) 0.3765(6) 0.8338(4)
H24_2 H 0.4572 0.2963 0.8242
C35_2 C 0.3191(5) 0.7495(7) 0.9138(5)
C36_2 C 0.3507(5) 0.7339(7) 0.9973(5)
C38_2 C 0.2258(4) 0.8336(5) 0.9925(4)
C39_2 C 0.1936(4) 0.8467(7) 0.9076(4)
H27_2 H 0.1387 0.8853 0.8759
C40_2 C 0.2417(5) 0.8033(8) 0.8689(5)
H28_2 H 0.2198 0.8114 0.8097
C42_2 C 0.2971(5) 0.2710(7) 0.9174(5)
C45_2 C 0.1932(4) 0.2273(5) 0.9929(4)
C46_2 C 0.1641(4) 0.2029(6) 0.9088(4)
H31_2 H 0.1070 0.1714 0.8766
C47_2 C 0.2169(5) 0.2241(7) 0.8716(5)
H32_2 H 0.1976 0.2057 0.8137
O15 O 0.5444(3) 0.5718(4) 0.7453(3)
O16_2 O 0.3691(4) 0.7216(5) 0.8735(4)
O20_2 O 0.3519(4) 0.2774(5) 0.8802(4)
O26_2 O 0.9995(2) 0.2731(4) 0.1166(2)
H44_2 H 0.9763 0.2996 0.1462
C1_2 C 0.0292(3) 0.0265(5) 0.2717(3)
O1_2 O 0.0563(2) 0.1314(3) 0.2654(2)
Co4 Co 0.11684(4) 0.18883(6) 0.19316(4)
H45 H 0.0444084 0.404776 0.970628
O2_2 O 0.0444(3) 0.9282(4) 0.2453(3)
H46 H 0.955592 0.595224 0.0293719
Co8_6 Co 0.0000 -0.0000 0.0000
O9_2 O 0.0831(2) 0.0085(3) 0.1321(2)
Co8_7 Co 0.0000 1.0000 0.0000
H18_2 H 0.0595 0.9667 0.1563
H19_2 H 0.1298 0.9721 0.1412
H13_2 H 0.6648 0.0256 0.5475
C49_2 C 0.2525(4) 0.0561(6) 0.3444(4)
H33_2 H 0.2042 0.0188 0.3441
C50_2 C 0.3310(4) 0.0280(6) 0.4083(4)
C51_2 C 0.4038(3) 0.0770(5) 0.4088(3)
C52_2 C 0.3933(4) 0.1611(5) 0.3475(4)
H35_2 H 0.4423 0.2020 0.3475
C53_2 C 0.3112(4) 0.1843(6) 0.2856(4)
H36_2 H 0.3052 0.2391 0.2435
C54_2 C 0.4908(4) 0.0441(6) 0.4712(4)
Co8_8 Co 1.0000 -0.0000 1.0000
N2_2 N 0.2403(3) 0.1332(4) 0.2825(3)
H40_2 H 0.9405 0.0333 0.8437
H42_2 H 0.8702 0.0279 0.8588
H46_2 H 0.544408 0.0952244 0.470628
H4_2 H 0.5966 0.3051 0.9726
C10_2 C 0.6964(4) 0.2233(6) 0.9622(4)
H5_2 H 0.6741 0.2324 0.9030
C14_2 C 0.8258(3) 0.1153(5) 0.9654(3)
C16_2 C 0.6734(5) 0.7021(8) 0.9991(5)
H8_2 H 0.6166 0.6690 0.9675
C17_2 C 0.7259(4) 0.7238(7) 0.9621(4)
H9_2 H 0.7064 0.7032 0.9045
C21_2 C 0.8643(3) 0.8018(5) 0.9657(3)
C22_2 C 0.7475(4) 0.9439(6) 0.6556(4)
H12_2 H 0.7958 0.9812 0.6559
C23_2 C 0.6690(4) 0.9720(6) 0.5917(4)
C24_2 C 0.5962(3) 0.9230(5) 0.5912(3)
C25_2 C 0.6067(4) 0.8389(5) 0.6525(4)
H14_2 H 0.5577 0.7980 0.6525
C26_2 C 0.6888(4) 0.8157(6) 0.7144(4)
H15_2 H 0.6948 0.7609 0.7565
C27_2 C 0.5092(4) 0.9559(6) 0.5288(4)
Co1_2 Co 0.88316(4) 0.81117(6) 0.80684(4)
H16_2 H 0.9033(18) 0.609(8) 0.763(4)
H17_2 H 0.818(2) 0.617(6) 0.7027(15)
N1_2 N 0.7597(3) 0.8668(4) 0.7175(3)
O5_2 O 0.7885(2) 0.0866(4) 0.8909(2)
O8_2 O 0.8339(2) 0.7755(4) 0.8901(2)
H20_2 H 0.9919 0.6657 0.9083
O11_2 O 0.8535(3) 0.6361(4) 0.7522(3)
H34_2 H 0.3352 0.9744 0.4525
Co8_9 Co 1.0000 1.0000 1.0000
O13_2 O 0.9437(2) 0.8686(3) 0.7346(2)
O25_2 O 0.9169(2) 0.9915(3) 0.8679(2)
H45_2 H 0.455592 0.904776 0.529372
O15_2 O 0.9556(3) 0.0718(4) 0.7547(3)
C28_2 C 0.9708(3) 0.9735(5) 0.7283(3)
H25_2 H 0.4034 0.6949 0.0274
C37_2 C 0.3036(4) 0.7767(6) 0.0378(4)
H26_2 H 0.3259 0.7676 0.0970
C41_2 C 0.1742(3) 0.8847(5) 0.0346(3)
C43_2 C 0.3266(5) 0.2979(8) 0.0009(5)
H29_2 H 0.3834 0.3310 0.0325
C44_2 C 0.2741(4) 0.2762(7) 0.0379(4)
H30_2 H 0.2936 0.2968 0.0955
C48_2 C 0.1357(3) 0.1982(5) 0.0343(3)
H37_2 H 0.0967(18) 0.391(8) 0.237(4)
H38_2 H 0.182(2) 0.383(6) 0.2973(15)
O19_2 O 0.2115(2) 0.9134(4) 0.1091(2)
O23_2 O 0.1661(2) 0.2245(4) 0.1099(2)
H43_2 H 0.0081 0.3343 0.0917
O27_2 O 0.1465(3) 0.3639(4) 0.2478(3)
loop_
_geom_bond_atom_site_label_1
_geom_bond_atom_site_label_2
_geom_bond_site_symmetry_1
_geom_bond_site_symmetry_2
C49 H33 1_555 1_555
C50 C49 1_555 1_555
H34 C50 1_555 1_555
C51 C50 1_555 1_555
C52 C51 1_555 1_555
H35 C52 1_555 1_555
C53 C52 1_555 1_555
H36 C53 1_555 1_555
Co6 N2 1_555 1_555
N2 C49 1_555 1_555
C51 C54 1_555 1_555
C53 N2 1_555 1_555
C7 C2 1_555 1_555
H3 C7 1_555 1_555
C15 C16 1_555 1_555
C16 H8 1_555 1_555
C17 C16 1_555 1_555
H9 C17 1_555 1_555
C18 C17 1_555 1_555
C19 C18 1_555 1_555
H10 C19 1_555 1_555
C20 C15 1_555 1_555
H11 C20 1_555 1_555
C21 C18 1_555 1_555
C22 H12 1_555 1_555
C23 C22 1_555 1_555
H13 C23 1_555 1_555
C24 C23 1_555 1_555
C25 C24 1_555 1_555
H14 C25 1_555 1_555
C26 C25 1_555 1_555
H15 C26 1_555 1_555
C27 C24 1_555 1_555
Co1 N1 1_555 1_555
H16 O11 1_555 1_555
H17 O11 1_555 1_555
N1 C22 1_555 1_555
O6 C6 1_555 1_555
O7 C21 1_555 1_555
O8 C21 1_555 1_555
O10 Co1 1_555 1_555
H20 O10 1_555 1_555
H21 O10 1_555 1_555
O11 Co1 1_555 1_555
Co8 O7 1_555 1_555
O13 Co1 1_555 1_555
O25 Co1 1_555 1_555
H40 O25 1_555 1_555
H42 O25 1_555 1_555
C6 C7 1_555 1_555
C15 O6 1_555 1_555
C19 C20 1_555 1_555
C26 N1 1_555 1_555
Co1 O8 1_555 1_555
Co8 O25 1_555 1_555
C3 H1 1_555 1_555
C4 C3 1_555 1_555
C5 C4 1_555 1_555
H2 C5 1_555 1_555
C8 C9 1_555 1_555
C9 H4 1_555 1_555
C10 C9 1_555 1_555
H5 C10 1_555 1_555
C11 C10 1_555 1_555
C12 C11 1_555 1_555
H6 C12 1_555 1_555
C13 C8 1_555 1_555
H7 C13 1_555 1_555
C14 C11 1_555 1_555
Co8 O4 1_555 1_555
O3 C4 1_555 1_555
O4 C14 1_555 1_555
O5 C14 1_555 1_555
O9 Co8 1_555 1_555
H18 O9 1_555 1_555
H19 O9 1_555 1_555
Co6 O9 1_555 1_555
O18 Co8 1_555 1_555
O22 Co8 1_555 1_555
C8 O3 1_555 1_555
C12 C13 1_555 1_555
H21_2 O10_2 1_555 1_555
O22_2 Co8_2 1_555 1_555
O18_2 Co8_3 1_555 1_555
C1 C2_2 1_555 1_555
C2_2 C3_2 1_555 1_555
C3_2 H1_2 1_555 1_555
C4_2 C3_2 1_555 1_555
C5_2 C4_2 1_555 1_555
H2_2 C5_2 1_555 1_555
C6_2 C5_2 1_555 1_555
C7_2 C2_2 1_555 1_555
H3_2 C7_2 1_555 1_555
C8_2 C9_2 1_555 1_555
C12_2 C11_2 1_555 1_555
H6_2 C12_2 1_555 1_555
C13_2 C8_2 1_555 1_555
H7_2 C13_2 1_555 1_555
C19_2 C18_2 1_555 1_555
H10_2 C19_2 1_555 1_555
C20_2 C15_2 1_555 1_555
H11_2 C20_2 1_555 1_555
Co8_4 O4_2 1_555 1_555
O1 C1 1_555 1_555
O2 C1 1_555 1_555
O3_2 C4_2 1_555 1_555
O6_2 C6_2 1_555 1_555
Co6 O1 1_555 1_555
Co8_5 O7_2 1_555 1_555
C6_2 C7_2 1_555 1_555
C8_2 O3_2 1_555 1_555
C12_2 C13_2 1_555 1_555
C15_2 O6_2 1_555 1_555
C19_2 C20_2 1_555 1_555
C30 H22 1_555 1_555
C31 C30 1_555 1_555
C32 C31 1_555 1_555
H23 C32 1_555 1_555
C35 C36 1_555 1_555
C36 H25 1_555 1_555
C37 C36 1_555 1_555
H26 C37 1_555 1_555
C38 C37 1_555 1_555
C39 C38 1_555 1_555
H27 C39 1_555 1_555
C40 C35 1_555 1_555
H28 C40 1_555 1_555
C41 C38 1_555 1_555
O16 C31 1_555 1_555
O18 C41 1_555 1_555
O19 C41 1_555 1_555
C35 O16 1_555 1_555
C39 C40 1_555 1_555
C34 C29 1_555 1_555
H24 C34 1_555 1_555
C42 C43 1_555 1_555
C43 H29 1_555 1_555
C44 C43 1_555 1_555
H30 C44 1_555 1_555
C45 C44 1_555 1_555
C46 C45 1_555 1_555
H31 C46 1_555 1_555
C47 C42 1_555 1_555
H32 C47 1_555 1_555
C48 C45 1_555 1_555
H37 O27 1_555 1_555
H38 O27 1_555 1_555
O20 C33 1_555 1_555
O23 C48 1_555 1_555
O26 Co6 1_555 1_555
H43 O26 1_555 1_555
H44 O26 1_555 1_555
O27 Co6 1_555 1_555
C33 C34 1_555 1_555
C42 O20 1_555 1_555
C46 C47 1_555 1_555
C48 O22 1_555 1_555
Co6 O23 1_555 1_555
C28 C29_2 1_555 1_555
C29_2 C30_2 1_555 1_555
C30_2 H22_2 1_555 1_555
C31_2 C30_2 1_555 1_555
C32_2 C31_2 1_555 1_555
H23_2 C32_2 1_555 1_555
C33_2 C32_2 1_555 1_555
C34_2 C29_2 1_555 1_555
H24_2 C34_2 1_555 1_555
C35_2 C36_2 1_555 1_555
C39_2 C38_2 1_555 1_555
H27_2 C39_2 1_555 1_555
C40_2 C35_2 1_555 1_555
H28_2 C40_2 1_555 1_555
C46_2 C45_2 1_555 1_555
H31_2 C46_2 1_555 1_555
C47_2 C42_2 1_555 1_555
H32_2 C47_2 1_555 1_555
O13 C28 1_555 1_555
O15 C28 1_555 1_555
O16_2 C31_2 1_555 1_555
O20_2 C33_2 1_555 1_555
C33_2 C34_2 1_555 1_555
C35_2 O16_2 1_555 1_555
C39_2 C40_2 1_555 1_555
C42_2 O20_2 1_555 1_555
C46_2 C47_2 1_555 1_555
H44_2 O26_2 1_555 1_555
O1_2 C1_2 1_555 1_555
Co4 O1_2 1_555 1_555
O9_2 Co8_6 1_555 1_555
Co4 O9_2 1_555 1_555
C49_2 H33_2 1_555 1_555
C50_2 C49_2 1_555 1_555
C51_2 C50_2 1_555 1_555
C52_2 C51_2 1_555 1_555
H35_2 C52_2 1_555 1_555
C53_2 C52_2 1_555 1_555
H36_2 C53_2 1_555 1_555
Co4 N2_2 1_555 1_555
N2_2 C49_2 1_555 1_555
C51_2 C54_2 1_555 1_555
C53_2 N2_2 1_555 1_555
C54_2 H46_2 1_555 1_555
H5_2 C10_2 1_555 1_555
C16_2 H8_2 1_555 1_555
C17_2 C16_2 1_555 1_555
H9_2 C17_2 1_555 1_555
C22_2 H12_2 1_555 1_555
C23_2 C22_2 1_555 1_555
C24_2 C23_2 1_555 1_555
C25_2 C24_2 1_555 1_555
H14_2 C25_2 1_555 1_555
C26_2 C25_2 1_555 1_555
H15_2 C26_2 1_555 1_555
C27_2 C24_2 1_555 1_555
Co1_2 N1_2 1_555 1_555
H16_2 O11_2 1_555 1_555
H17_2 O11_2 1_555 1_555
N1_2 C22_2 1_555 1_555
O5_2 C14_2 1_555 1_555
O8_2 C21_2 1_555 1_555
O11_2 Co1_2 1_555 1_555
O13_2 Co1_2 1_555 1_555
O25_2 Co1_2 1_555 1_555
C26_2 N1_2 1_555 1_555
Co1_2 O8_2 1_555 1_555
Co8_9 O25_2 1_555 1_555
C27_2 H45_2 1_555 1_555
O13_2 C28_2 1_555 1_555
H26_2 C37_2 1_555 1_555
C43_2 H29_2 1_555 1_555
C44_2 C43_2 1_555 1_555
H30_2 C44_2 1_555 1_555
H37_2 O27_2 1_555 1_555
H38_2 O27_2 1_555 1_555
O19_2 C41_2 1_555 1_555
O23_2 C48_2 1_555 1_555
O27_2 Co4 1_555 1_555
Co4 O23_2 1_555 1_555

#END
