
###############################################################################
#
# This file contains modified crystal structure data generated from the
# MOF subset of the Cambridge Structural Database (CSD) v543 
# hosted by the Cambridge Crystallographic Data Centre (CCDC).
#
# This work is licensed under the Creative Commons
# Attribution-NonCommercial-ShareAlike 4.0 International License.
# To view a copy of this license, visit
# http://creativecommons.org/licenses/by-nc-sa/4.0/
# or send a letter to
# Creative Commons, PO Box 1866, Mountain View, CA 94042, USA.
#
# CIF created using the CSD Python API on 29 September 2022
# The structure has been converted into the P1 space group
# The structure has a 3D framework
# The original CSD entry LAZSIQ is in the monoclinic crystal system
# The framework has been calculated to contain at least 10.0% void space
# The void calculation uses a probe of radius 1.32A, grid spacing 0.4
#
###############################################################################

data_LAZSIQ
_chemical_formula_moiety         '(C152 H152 Cu23 N8 O56)n'
_symmetry_cell_setting           triclinic
_symmetry_space_group_name_H-M   'P 1'
_symmetry_Int_Tables_number      1
_space_group_name_Hall           'P 1'
loop_
_symmetry_equiv_pos_site_id
_symmetry_equiv_pos_as_xyz
1 x,y,z
_cell_length_a                   14.253
_cell_length_b                   14.279
_cell_length_c                   26.903
_cell_angle_alpha                90
_cell_angle_beta                 97.90
_cell_angle_gamma                90
_cell_volume                     5423.3
loop_
_atom_site_label
_atom_site_type_symbol
_atom_site_fract_x
_atom_site_fract_y
_atom_site_fract_z
C16 C 0.0042(9) 0.3411(10) 0.5883(8)
H11 H 0.0236 0.3586 0.6230
H12 H 0.0287 0.3876 0.5672
C17 C 0.1507(7) 0.1445(11) 0.5371(6)
H13 H 0.2008 0.1489 0.5162
H14 H 0.1675 0.0963 0.5621
C18 C 0.1380(8) 0.2387(15) 0.5626(7)
H15 H 0.1861 0.2451 0.5917
H16 H 0.1468 0.2890 0.5395
C19 C 0.0361(13) 0.1882(13) 0.6240(5)
H18 H 0.0782 0.2116 0.6522
H19 H 0.0527 0.1247 0.6174
N1 N 0.0442(8) 0.2477(6) 0.5786(3)
O7 O 0.0616(3) 0.1222(4) 0.50690(18)
Cu1 Cu 0.0000 0.0000 0.5000
C20 C 0.1063(5) 0.1135(5) 0.0801(2)
C21 C 0.1430(5) 0.1273(5) 0.1341(2)
C22 C 0.1286(7) 0.0600(6) 0.1691(3)
H20 H 0.0971 0.0048 0.1588
C23 C 0.1605(7) 0.0738(6) 0.2195(3)
H21 H 0.1474 0.0295 0.2429
C24 C 0.2100(6) 0.1502(6) 0.2347(2)
C25 C 0.2282(6) 0.2160(6) 0.2010(2)
H22 H 0.2642 0.2684 0.2118
C26 C 0.1936(5) 0.2057(5) 0.1506(2)
H23 H 0.2047 0.2522 0.1278
C27 C 0.2301(8) 0.1031(6) 0.3212(3)
C28 C 0.2956(8) 0.0343(7) 0.3329(3)
H24 H 0.3478 0.0297 0.3158
C31 C 0.1431(7) 0.0474(7) 0.3819(4)
H26 H 0.0899 0.0528 0.3983
C32 C 0.1558(8) 0.1112(8) 0.3457(4)
H27 H 0.1128 0.1598 0.3383
O8 O 0.1133(4) 0.1845(4) 0.05164(16)
O11 O 0.0653(4) 0.0387(3) 0.06633(16)
O13 O 0.2464(5) 0.1701(4) 0.28409(17)
Cu4 Cu 0.0000 0.0000 0.0000
Cu10 Cu 0.2500 0.2500 0.0000
Cu4_2 Cu 0.0000 0.0000 1.0000
Cu8 Cu 0.04031(6) 0.20346(6) 0.98260(3)
Cu10_2 Cu 0.2500 0.2500 1.0000
Cu1_2 Cu 0.0000 1.0000 0.5000
C29 C 0.2832(6) 0.9712(6) 0.3706(3)
H25 H 0.3286 0.9251 0.3794
C30 C 0.2054(5) 0.9758(5) 0.3953(2)
C33 C 0.1885(5) 0.9079(5) 0.4352(2)
C34 C 0.1003(9) 0.6602(8) 0.4221(4)
H28 H 0.1257 0.6960 0.3964
H29 H 0.1245 0.5968 0.4216
H36 H 0.0279 0.8098 0.3686
O10 O 0.1133(4) 0.8155(4) 0.55164(16)
O12 O 0.0653(4) 0.9613(3) 0.56633(16)
O14 O 0.1146(4) 0.9150(4) 0.4537(2)
O16 O 0.2489(4) 0.8468(4) 0.44687(17)
O19 O 0.1296(4) 0.7018(3) 0.47052(17)
Cu4_3 Cu 0.0000 1.0000 0.0000
Cu5 Cu 0.04031(6) 0.79654(6) 0.48260(3)
Cu11 Cu 0.2500 0.7500 0.5000
Cu4_4 Cu 0.0000 1.0000 1.0000
C1 C 0.8937(5) 0.1135(5) 0.4199(2)
C2 C 0.8570(5) 0.1273(5) 0.3659(2)
C3 C 0.8714(7) 0.0600(6) 0.3309(3)
H1 H 0.9029 0.0048 0.3412
C4 C 0.8395(7) 0.0738(6) 0.2805(3)
H2 H 0.8526 0.0295 0.2571
C5 C 0.7900(6) 0.1502(6) 0.2653(2)
C6 C 0.7718(6) 0.2160(6) 0.2990(2)
H3 H 0.7358 0.2684 0.2882
C7 C 0.8064(5) 0.2057(5) 0.3494(2)
H4 H 0.7953 0.2522 0.3722
C8 C 0.7699(8) 0.1031(6) 0.1788(3)
C9 C 0.7044(8) 0.0343(7) 0.1671(3)
H5 H 0.6522 0.0297 0.1842
C12 C 0.8569(7) 0.0474(7) 0.1181(4)
H7 H 0.9101 0.0528 0.1017
C13 C 0.8442(8) 0.1112(8) 0.1543(4)
H8 H 0.8872 0.1598 0.1617
C15 C 0.8997(9) 0.3398(8) 0.5779(4)
H9 H 0.8743 0.3040 0.6036
H10 H 0.8755 0.4032 0.5784
H17 H 0.9721 0.1902 0.6314
O1 O 0.8867(4) 0.1845(4) 0.44836(16)
O2 O 0.9347(4) 0.0387(3) 0.43367(16)
O3 O 0.7536(5) 0.1701(4) 0.21591(17)
O6 O 0.8704(4) 0.2982(3) 0.52948(17)
Cu1_3 Cu 1.0000 0.0000 0.5000
Cu2 Cu 0.95969(6) 0.20346(6) 0.51740(3)
Cu3 Cu 0.7500 0.2500 0.5000
O9 O 0.6133(4) 0.3155(4) 0.55164(16)
O15 O 0.8854(4) 0.0850(4) 0.5463(2)
O17 O 0.7489(4) 0.3468(4) 0.44687(17)
O18 O 0.7511(4) 0.1532(4) 0.55313(17)
O20 O 0.6296(4) 0.2018(3) 0.47052(17)
Cu4_5 Cu 1.0000 0.0000 0.0000
Cu7 Cu 0.54031(6) 0.29654(6) 0.48260(3)
Cu4_6 Cu 1.0000 0.0000 1.0000
C10 C 0.7168(6) 0.9712(6) 0.1294(3)
H6 H 0.6714 0.9251 0.1206
C11 C 0.7946(5) 0.9758(5) 0.1047(2)
C14 C 0.8115(5) 0.9079(5) 0.0648(2)
O4 O 0.8854(4) 0.9150(4) 0.0463(2)
O5 O 0.7511(4) 0.8468(4) 0.05313(17)
Cu1_4 Cu 1.0000 1.0000 0.5000
C35 C 0.9958(9) 0.6589(10) 0.4117(8)
H30 H 0.9764 0.6414 0.3770
H31 H 0.9713 0.6124 0.4328
C36 C 0.8493(7) 0.8555(11) 0.4629(6)
H32 H 0.7992 0.8511 0.4838
H33 H 0.8325 0.9037 0.4379
C37 C 0.8620(8) 0.7613(15) 0.4374(7)
H34 H 0.8139 0.7549 0.4083
H35 H 0.8532 0.7110 0.4605
C38 C 0.9639(13) 0.8118(13) 0.3760(5)
H37 H 0.9218 0.7884 0.3478
H38 H 0.9473 0.8753 0.3826
N2 N 0.9558(8) 0.7523(6) 0.4214(3)
O21 O 0.9384(3) 0.8778(4) 0.49310(18)
Cu4_7 Cu 1.0000 1.0000 0.0000
Cu6 Cu 0.95969(6) 0.79654(6) 0.01740(3)
Cu9 Cu 0.7500 0.7500 0.0000
Cu4_8 Cu 1.0000 1.0000 1.0000
Cu9_2 Cu 0.7500 0.7500 1.0000
O17_2 O 0.2511(4) 0.3468(4) 0.05313(17)
O20_2 O 0.3704(4) 0.2018(3) 0.02948(17)
Cu7_2 Cu 0.45969(6) 0.29654(6) 0.01740(3)
C15_2 C 0.1003(9) 0.3398(8) 0.9221(4)
H9_2 H 0.1257 0.3040 0.8964
H10_2 H 0.1245 0.4032 0.9216
H17_2 H 0.0279 0.1902 0.8686
O6_2 O 0.1296(4) 0.2982(3) 0.97052(17)
O9_2 O 0.3867(4) 0.3155(4) 0.94836(16)
O15_2 O 0.1146(4) 0.0850(4) 0.9537(2)
O18_2 O 0.2489(4) 0.1532(4) 0.94687(17)
C35_2 C 0.0042(9) 0.6589(10) 0.0883(8)
H30_2 H 0.0236 0.6414 0.1230
H31_2 H 0.0287 0.6124 0.0672
C36_2 C 0.1507(7) 0.8555(11) 0.0371(6)
H32_2 H 0.2008 0.8511 0.0162
H33_2 H 0.1675 0.9037 0.0621
C37_2 C 0.1380(8) 0.7613(15) 0.0626(7)
H34_2 H 0.1861 0.7549 0.0917
H35_2 H 0.1468 0.7110 0.0395
C38_2 C 0.0361(13) 0.8118(13) 0.1240(5)
H37_2 H 0.0782 0.7884 0.1522
H38_2 H 0.0527 0.8753 0.1174
N2_2 N 0.0442(8) 0.7523(6) 0.0786(3)
O21_2 O 0.0616(3) 0.8778(4) 0.00690(18)
C16_2 C 0.9958(9) 0.3411(10) 0.9117(8)
H11_2 H 0.9764 0.3586 0.8770
H12_2 H 0.9713 0.3876 0.9328
C17_2 C 0.8493(7) 0.1445(11) 0.9629(6)
H13_2 H 0.7992 0.1489 0.9838
H14_2 H 0.8325 0.0963 0.9379
C18_2 C 0.8620(8) 0.2387(15) 0.9374(7)
H15_2 H 0.8139 0.2451 0.9083
H16_2 H 0.8532 0.2890 0.9605
C19_2 C 0.9639(13) 0.1882(13) 0.8760(5)
H18_2 H 0.9218 0.2116 0.8478
H19_2 H 0.9473 0.1247 0.8826
N1_2 N 0.9558(8) 0.2477(6) 0.9214(3)
O7_2 O 0.9384(3) 0.1222(4) 0.99310(18)
C34_2 C 0.8997(9) 0.6602(8) 0.0779(4)
H28_2 H 0.8743 0.6960 0.1036
H29_2 H 0.8755 0.5968 0.0784
H36_2 H 0.9721 0.8098 0.1314
O19_2 O 0.8704(4) 0.7018(3) 0.02948(17)
O10_2 O 0.8867(4) 0.8155(4) 0.94836(16)
O12_2 O 0.9347(4) 0.9613(3) 0.93367(16)
C1_2 C 0.3937(5) 0.6135(5) 0.4199(2)
C2_2 C 0.3570(5) 0.6273(5) 0.3659(2)
C3_2 C 0.3714(7) 0.5600(6) 0.3309(3)
H1_2 H 0.4029 0.5048 0.3412
C4_2 C 0.3395(7) 0.5738(6) 0.2805(3)
H2_2 H 0.3526 0.5295 0.2571
C5_2 C 0.2900(6) 0.6502(6) 0.2653(2)
C6_2 C 0.2718(6) 0.7160(6) 0.2990(2)
H3_2 H 0.2358 0.7684 0.2882
C7_2 C 0.3064(5) 0.7057(5) 0.3494(2)
H4_2 H 0.2953 0.7522 0.3722
C8_2 C 0.2699(8) 0.6031(6) 0.1788(3)
C9_2 C 0.2044(8) 0.5343(7) 0.1671(3)
H5_2 H 0.1522 0.5297 0.1842
C10_2 C 0.2168(6) 0.4712(6) 0.1294(3)
H6_2 H 0.1714 0.4251 0.1206
C11_2 C 0.2946(5) 0.4758(5) 0.1047(2)
C12_2 C 0.3569(7) 0.5474(7) 0.1181(4)
H7_2 H 0.4101 0.5528 0.1017
C13_2 C 0.3442(8) 0.6112(8) 0.1543(4)
H8_2 H 0.3872 0.6598 0.1617
C14_2 C 0.3115(5) 0.4079(5) 0.0648(2)
C15_3 C 0.3997(9) 0.8398(8) 0.5779(4)
H9_3 H 0.3743 0.8040 0.6036
H10_3 H 0.3755 0.9032 0.5784
C16_3 C 0.5042(9) 0.8411(10) 0.5883(8)
H11_3 H 0.5236 0.8586 0.6230
H12_3 H 0.5287 0.8876 0.5672
C17_3 C 0.6507(7) 0.6445(11) 0.5371(6)
H13_3 H 0.7008 0.6489 0.5162
H14_3 H 0.6675 0.5963 0.5621
C18_3 C 0.6380(8) 0.7387(15) 0.5626(7)
H15_3 H 0.6861 0.7451 0.5917
H16_3 H 0.6468 0.7890 0.5395
C19_3 C 0.5361(13) 0.6882(13) 0.6240(5)
H17_3 H 0.4721 0.6902 0.6314
H18_3 H 0.5782 0.7116 0.6522
H19_3 H 0.5527 0.6247 0.6174
N1_3 N 0.5442(8) 0.7477(6) 0.5786(3)
O1_2 O 0.3867(4) 0.6845(4) 0.44836(16)
O2_2 O 0.4347(4) 0.5387(3) 0.43367(16)
O3_2 O 0.2536(5) 0.6701(4) 0.21591(17)
O4_2 O 0.3854(4) 0.4150(4) 0.0463(2)
O6_3 O 0.3704(4) 0.7982(3) 0.52948(17)
O7_3 O 0.5616(3) 0.6222(4) 0.50690(18)
Cu1_5 Cu 0.5000 0.5000 0.5000
Cu2_2 Cu 0.45969(6) 0.70346(6) 0.51740(3)
C20_2 C 0.6063(5) 0.6135(5) 0.0801(2)
C21_2 C 0.6430(5) 0.6273(5) 0.1341(2)
C22_2 C 0.6286(7) 0.5600(6) 0.1691(3)
H20_2 H 0.5971 0.5048 0.1588
C23_2 C 0.6605(7) 0.5738(6) 0.2195(3)
H21_2 H 0.6474 0.5295 0.2429
C24_2 C 0.7100(6) 0.6502(6) 0.2347(2)
C25_2 C 0.7282(6) 0.7160(6) 0.2010(2)
H22_2 H 0.7642 0.7684 0.2118
C26_2 C 0.6936(5) 0.7057(5) 0.1506(2)
H23_2 H 0.7047 0.7522 0.1278
C27_2 C 0.7301(8) 0.6031(6) 0.3212(3)
C28_2 C 0.7956(8) 0.5343(7) 0.3329(3)
H24_2 H 0.8478 0.5297 0.3158
C29_2 C 0.7832(6) 0.4712(6) 0.3706(3)
H25_2 H 0.8286 0.4251 0.3794
C30_2 C 0.7054(5) 0.4758(5) 0.3953(2)
C31_2 C 0.6431(7) 0.5474(7) 0.3819(4)
H26_2 H 0.5899 0.5528 0.3983
C32_2 C 0.6558(8) 0.6112(8) 0.3457(4)
H27_2 H 0.6128 0.6598 0.3383
C33_2 C 0.6885(5) 0.4079(5) 0.4352(2)
C34_3 C 0.6003(9) 0.1602(8) 0.4221(4)
H28_3 H 0.6257 0.1960 0.3964
H29_3 H 0.6245 0.0968 0.4216
C35_3 C 0.4958(9) 0.1589(10) 0.4117(8)
H30_3 H 0.4764 0.1414 0.3770
H31_3 H 0.4713 0.1124 0.4328
C36_3 C 0.3493(7) 0.3555(11) 0.4629(6)
H32_3 H 0.2992 0.3511 0.4838
H33_3 H 0.3325 0.4037 0.4379
C37_3 C 0.3620(8) 0.2613(15) 0.4374(7)
H34_3 H 0.3139 0.2549 0.4083
H35_3 H 0.3532 0.2110 0.4605
C38_3 C 0.4639(13) 0.3118(13) 0.3760(5)
H36_3 H 0.5279 0.3098 0.3686
H37_3 H 0.4218 0.2884 0.3478
H38_3 H 0.4473 0.3753 0.3826
N2_3 N 0.4558(8) 0.2523(6) 0.4214(3)
O8_2 O 0.6133(4) 0.6845(4) 0.05164(16)
O11_2 O 0.5653(4) 0.5387(3) 0.06633(16)
O12_3 O 0.5653(4) 0.4613(3) 0.56633(16)
O13_2 O 0.7464(5) 0.6701(4) 0.28409(17)
O14_2 O 0.6146(4) 0.4150(4) 0.4537(2)
O15_3 O 0.3854(4) 0.5850(4) 0.5463(2)
O18_3 O 0.2511(4) 0.6532(4) 0.55313(17)
O21_3 O 0.4384(3) 0.3778(4) 0.49310(18)
Cu4_9 Cu 0.5000 0.5000 0.0000
Cu4_10 Cu 0.5000 0.5000 1.0000
Cu8_2 Cu 0.54031(6) 0.70346(6) 0.98260(3)
C34_4 C 0.3997(9) 0.1602(8) 0.0779(4)
H28_4 H 0.3743 0.1960 0.1036
H29_4 H 0.3755 0.0968 0.0784
C35_4 C 0.5042(9) 0.1589(10) 0.0883(8)
H30_4 H 0.5236 0.1414 0.1230
H31_4 H 0.5287 0.1124 0.0672
C36_4 C 0.6507(7) 0.3555(11) 0.0371(6)
H32_4 H 0.7008 0.3511 0.0162
H33_4 H 0.6675 0.4037 0.0621
C37_4 C 0.6380(8) 0.2613(15) 0.0626(7)
H34_4 H 0.6861 0.2549 0.0917
H35_4 H 0.6468 0.2110 0.0395
C38_4 C 0.5361(13) 0.3118(13) 0.1240(5)
H36_4 H 0.4721 0.3098 0.1314
H37_4 H 0.5782 0.2884 0.1522
H38_4 H 0.5527 0.3753 0.1174
N2_4 N 0.5442(8) 0.2523(6) 0.0786(3)
O21_4 O 0.5616(3) 0.3778(4) 0.00690(18)
C15_4 C 0.6003(9) 0.8398(8) 0.9221(4)
H9_4 H 0.6257 0.8040 0.8964
H10_4 H 0.6245 0.9032 0.9216
C16_4 C 0.4958(9) 0.8411(10) 0.9117(8)
H11_4 H 0.4764 0.8586 0.8770
H12_4 H 0.4713 0.8876 0.9328
C17_4 C 0.3493(7) 0.6445(11) 0.9629(6)
H13_4 H 0.2992 0.6489 0.9838
H14_4 H 0.3325 0.5963 0.9379
C18_4 C 0.3620(8) 0.7387(15) 0.9374(7)
H15_4 H 0.3139 0.7451 0.9083
H16_4 H 0.3532 0.7890 0.9605
C19_4 C 0.4639(13) 0.6882(13) 0.8760(5)
H17_4 H 0.5279 0.6902 0.8686
H18_4 H 0.4218 0.7116 0.8478
H19_4 H 0.4473 0.6247 0.8826
N1_4 N 0.4558(8) 0.7477(6) 0.9214(3)
O6_4 O 0.6296(4) 0.7982(3) 0.97052(17)
O7_4 O 0.4384(3) 0.6222(4) 0.99310(18)
O12_4 O 0.4347(4) 0.4613(3) 0.93367(16)
O15_4 O 0.6146(4) 0.5850(4) 0.9537(2)
O18_4 O 0.7489(4) 0.6532(4) 0.94687(17)
C10_3 C 0.2832(6) 0.0288(6) 0.8706(3)
H6_3 H 0.3286 0.0749 0.8794
C11_3 C 0.2054(5) 0.0242(5) 0.8953(2)
C14_3 C 0.1885(5) 0.0921(5) 0.9352(2)
C1_3 C 0.1063(5) 0.8865(5) 0.5801(2)
C2_3 C 0.1430(5) 0.8727(5) 0.6341(2)
C3_3 C 0.1286(7) 0.9400(6) 0.6691(3)
H1_3 H 0.0971 0.9952 0.6588
C4_3 C 0.1605(7) 0.9262(6) 0.7195(3)
H2_3 H 0.1474 0.9705 0.7429
C5_3 C 0.2100(6) 0.8498(6) 0.7347(2)
C6_3 C 0.2282(6) 0.7840(6) 0.7010(2)
H3_3 H 0.2642 0.7316 0.7118
C7_3 C 0.1936(5) 0.7943(5) 0.6506(2)
H4_3 H 0.2047 0.7478 0.6278
C8_3 C 0.2301(8) 0.8969(6) 0.8212(3)
C9_3 C 0.2956(8) 0.9657(7) 0.8329(3)
H5_3 H 0.3478 0.9703 0.8158
C12_3 C 0.1431(7) 0.9526(7) 0.8819(4)
H7_3 H 0.0899 0.9472 0.8983
C13_3 C 0.1558(8) 0.8888(8) 0.8457(4)
H8_3 H 0.1128 0.8402 0.8383
O3_3 O 0.2464(5) 0.8299(4) 0.78409(17)
C29_3 C 0.7168(6) 0.0288(6) 0.6294(3)
H25_3 H 0.6714 0.0749 0.6206
C30_3 C 0.7946(5) 0.0242(5) 0.6047(2)
C33_3 C 0.8115(5) 0.0921(5) 0.5648(2)
C20_3 C 0.8937(5) 0.8865(5) 0.9199(2)
C21_3 C 0.8570(5) 0.8727(5) 0.8659(2)
C22_3 C 0.8714(7) 0.9400(6) 0.8309(3)
H20_3 H 0.9029 0.9952 0.8412
C23_3 C 0.8395(7) 0.9262(6) 0.7805(3)
H21_3 H 0.8526 0.9705 0.7571
C24_3 C 0.7900(6) 0.8498(6) 0.7653(2)
C25_3 C 0.7718(6) 0.7840(6) 0.7990(2)
H22_3 H 0.7358 0.7316 0.7882
C26_3 C 0.8064(5) 0.7943(5) 0.8494(2)
H23_3 H 0.7953 0.7478 0.8722
C27_3 C 0.7699(8) 0.8969(6) 0.6788(3)
C28_3 C 0.7044(8) 0.9657(7) 0.6671(3)
H24_3 H 0.6522 0.9703 0.6842
C31_3 C 0.8569(7) 0.9526(7) 0.6181(4)
H26_3 H 0.9101 0.9472 0.6017
C32_3 C 0.8442(8) 0.8888(8) 0.6543(4)
H27_3 H 0.8872 0.8402 0.6617
O13_3 O 0.7536(5) 0.8299(4) 0.71591(17)
C1_4 C 0.6063(5) 0.3865(5) 0.5801(2)
C2_4 C 0.6430(5) 0.3727(5) 0.6341(2)
C3_4 C 0.6286(7) 0.4400(6) 0.6691(3)
H1_4 H 0.5971 0.4952 0.6588
C4_4 C 0.6605(7) 0.4262(6) 0.7195(3)
H2_4 H 0.6474 0.4705 0.7429
C5_4 C 0.7100(6) 0.3498(6) 0.7347(2)
C6_4 C 0.7282(6) 0.2840(6) 0.7010(2)
H3_4 H 0.7642 0.2316 0.7118
C7_4 C 0.6936(5) 0.2943(5) 0.6506(2)
H4_4 H 0.7047 0.2478 0.6278
C8_4 C 0.7301(8) 0.3969(6) 0.8212(3)
C9_4 C 0.7956(8) 0.4657(7) 0.8329(3)
H5_4 H 0.8478 0.4703 0.8158
C10_4 C 0.7832(6) 0.5288(6) 0.8706(3)
H6_4 H 0.8286 0.5749 0.8794
C11_4 C 0.7054(5) 0.5242(5) 0.8953(2)
C12_4 C 0.6431(7) 0.4526(7) 0.8819(4)
H7_4 H 0.5899 0.4472 0.8983
C13_4 C 0.6558(8) 0.3888(8) 0.8457(4)
H8_4 H 0.6128 0.3402 0.8383
C14_4 C 0.6885(5) 0.5921(5) 0.9352(2)
O3_4 O 0.7464(5) 0.3299(4) 0.78409(17)
C20_4 C 0.3937(5) 0.3865(5) 0.9199(2)
C21_4 C 0.3570(5) 0.3727(5) 0.8659(2)
C22_4 C 0.3714(7) 0.4400(6) 0.8309(3)
H20_4 H 0.4029 0.4952 0.8412
C23_4 C 0.3395(7) 0.4262(6) 0.7805(3)
H21_4 H 0.3526 0.4705 0.7571
C24_4 C 0.2900(6) 0.3498(6) 0.7653(2)
C25_4 C 0.2718(6) 0.2840(6) 0.7990(2)
H22_4 H 0.2358 0.2316 0.7882
C26_4 C 0.3064(5) 0.2943(5) 0.8494(2)
H23_4 H 0.2953 0.2478 0.8722
C27_4 C 0.2699(8) 0.3969(6) 0.6788(3)
C28_4 C 0.2044(8) 0.4657(7) 0.6671(3)
H24_4 H 0.1522 0.4703 0.6842
C29_4 C 0.2168(6) 0.5288(6) 0.6294(3)
H25_4 H 0.1714 0.5749 0.6206
C30_4 C 0.2946(5) 0.5242(5) 0.6047(2)
C31_4 C 0.3569(7) 0.4526(7) 0.6181(4)
H26_4 H 0.4101 0.4472 0.6017
C32_4 C 0.3442(8) 0.3888(8) 0.6543(4)
H27_4 H 0.3872 0.3402 0.6617
C33_4 C 0.3115(5) 0.5921(5) 0.5648(2)
O13_4 O 0.2536(5) 0.3299(4) 0.71591(17)
loop_
_geom_bond_atom_site_label_1
_geom_bond_atom_site_label_2
_geom_bond_site_symmetry_1
_geom_bond_site_symmetry_2
H11 C16 1_555 1_555
H12 C16 1_555 1_555
C17 H13 1_555 1_555
H14 C17 1_555 1_555
C18 C17 1_555 1_555
H15 C18 1_555 1_555
H16 C18 1_555 1_555
H18 C19 1_555 1_555
H19 C19 1_555 1_555
N1 C16 1_555 1_555
O7 C17 1_555 1_555
C20 C21 1_555 1_555
C21 C22 1_555 1_555
C22 H20 1_555 1_555
C23 C22 1_555 1_555
H21 C23 1_555 1_555
C24 C23 1_555 1_555
C25 C24 1_555 1_555
H22 C25 1_555 1_555
C26 C21 1_555 1_555
H23 C26 1_555 1_555
C27 C28 1_555 1_555
C28 H24 1_555 1_555
H26 C31 1_555 1_555
C32 C27 1_555 1_555
H27 C32 1_555 1_555
O8 C20 1_555 1_555
O11 C20 1_555 1_555
O13 C24 1_555 1_555
Cu10 O8 1_555 1_555
C18 N1 1_555 1_555
C19 N1 1_555 1_555
O7 Cu1 1_555 1_555
C25 C26 1_555 1_555
C27 O13 1_555 1_555
C31 C32 1_555 1_555
O11 Cu4 1_555 1_555
H25 C29 1_555 1_555
C30 C29 1_555 1_555
C33 C30 1_555 1_555
C34 H28 1_555 1_555
H29 C34 1_555 1_555
O10 Cu5 1_555 1_555
O12 Cu1_2 1_555 1_555
O14 Cu1_2 1_555 1_555
O16 C33 1_555 1_555
O19 C34 1_555 1_555
Cu11 O10 1_555 1_555
C33 O14 1_555 1_555
O14 Cu5 1_555 1_555
O16 Cu11 1_555 1_555
O19 Cu5 1_555 1_555
O19 Cu11 1_555 1_555
C1 C2 1_555 1_555
C2 C3 1_555 1_555
C3 H1 1_555 1_555
C4 C3 1_555 1_555
H2 C4 1_555 1_555
C5 C4 1_555 1_555
C6 C5 1_555 1_555
H3 C6 1_555 1_555
C7 C2 1_555 1_555
H4 C7 1_555 1_555
C8 C9 1_555 1_555
C9 H5 1_555 1_555
H7 C12 1_555 1_555
C13 C8 1_555 1_555
H8 C13 1_555 1_555
C15 H9 1_555 1_555
H10 C15 1_555 1_555
O1 C1 1_555 1_555
O2 C1 1_555 1_555
O3 C5 1_555 1_555
O6 C15 1_555 1_555
Cu1_3 O2 1_555 1_555
Cu3 O1 1_555 1_555
O9 Cu3 1_555 1_555
O15 Cu1_3 1_555 1_555
O17 Cu3 1_555 1_555
O18 Cu3 1_555 1_555
O20 Cu3 1_555 1_555
Cu7 O9 1_555 1_555
C6 C7 1_555 1_555
C8 O3 1_555 1_555
C12 C13 1_555 1_555
O1 Cu2 1_555 1_555
O6 Cu2 1_555 1_555
O6 Cu3 1_555 1_555
Cu2 O15 1_555 1_555
O20 Cu7 1_555 1_555
H6 C10 1_555 1_555
C11 C10 1_555 1_555
C14 C11 1_555 1_555
O4 C14 1_555 1_555
O5 C14 1_555 1_555
H30 C35 1_555 1_555
H31 C35 1_555 1_555
C36 H32 1_555 1_555
H33 C36 1_555 1_555
C37 C36 1_555 1_555
H34 C37 1_555 1_555
H35 C37 1_555 1_555
H37 C38 1_555 1_555
H38 C38 1_555 1_555
N2 C35 1_555 1_555
O21 Cu1_4 1_555 1_555
Cu4_7 O4 1_555 1_555
Cu6 O4 1_555 1_555
Cu9 O5 1_555 1_555
C36 O21 1_555 1_555
C37 N2 1_555 1_555
C38 N2 1_555 1_555
O17_2 Cu10 1_555 1_555
O20_2 Cu10 1_555 1_555
O20_2 Cu7_2 1_555 1_555
C15_2 H9_2 1_555 1_555
H10_2 C15_2 1_555 1_555
O6_2 C15_2 1_555 1_555
O9_2 Cu10_2 1_555 1_555
O15_2 Cu4_2 1_555 1_555
O18_2 Cu10_2 1_555 1_555
O6_2 Cu8 1_555 1_555
O6_2 Cu10_2 1_555 1_555
Cu8 O15_2 1_555 1_555
H30_2 C35_2 1_555 1_555
H31_2 C35_2 1_555 1_555
C36_2 H32_2 1_555 1_555
H33_2 C36_2 1_555 1_555
C37_2 C36_2 1_555 1_555
H34_2 C37_2 1_555 1_555
H35_2 C37_2 1_555 1_555
H37_2 C38_2 1_555 1_555
H38_2 C38_2 1_555 1_555
N2_2 C35_2 1_555 1_555
O21_2 Cu4_3 1_555 1_555
C36_2 O21_2 1_555 1_555
C37_2 N2_2 1_555 1_555
C38_2 N2_2 1_555 1_555
H11_2 C16_2 1_555 1_555
H12_2 C16_2 1_555 1_555
C17_2 H13_2 1_555 1_555
H14_2 C17_2 1_555 1_555
C18_2 C17_2 1_555 1_555
H15_2 C18_2 1_555 1_555
H16_2 C18_2 1_555 1_555
H18_2 C19_2 1_555 1_555
H19_2 C19_2 1_555 1_555
N1_2 C16_2 1_555 1_555
O7_2 C17_2 1_555 1_555
C18_2 N1_2 1_555 1_555
C19_2 N1_2 1_555 1_555
O7_2 Cu4_6 1_555 1_555
C34_2 H28_2 1_555 1_555
H29_2 C34_2 1_555 1_555
O19_2 C34_2 1_555 1_555
O19_2 Cu6 1_555 1_555
O19_2 Cu9 1_555 1_555
O12_2 Cu4_8 1_555 1_555
Cu9_2 O10_2 1_555 1_555
C1_2 C2_2 1_555 1_555
C2_2 C3_2 1_555 1_555
C3_2 H1_2 1_555 1_555
C4_2 C3_2 1_555 1_555
H2_2 C4_2 1_555 1_555
C5_2 C4_2 1_555 1_555
C6_2 C5_2 1_555 1_555
H3_2 C6_2 1_555 1_555
C7_2 C2_2 1_555 1_555
H4_2 C7_2 1_555 1_555
C8_2 C9_2 1_555 1_555
C9_2 H5_2 1_555 1_555
C10_2 C9_2 1_555 1_555
H6_2 C10_2 1_555 1_555
C11_2 C10_2 1_555 1_555
C12_2 C11_2 1_555 1_555
H7_2 C12_2 1_555 1_555
C13_2 C8_2 1_555 1_555
H8_2 C13_2 1_555 1_555
C14_2 C11_2 1_555 1_555
C15_3 H9_3 1_555 1_555
H10_3 C15_3 1_555 1_555
C16_3 C15_3 1_555 1_555
H11_3 C16_3 1_555 1_555
H12_3 C16_3 1_555 1_555
C17_3 H13_3 1_555 1_555
H14_3 C17_3 1_555 1_555
C18_3 C17_3 1_555 1_555
H15_3 C18_3 1_555 1_555
H16_3 C18_3 1_555 1_555
C19_3 H17_3 1_555 1_555
H18_3 C19_3 1_555 1_555
H19_3 C19_3 1_555 1_555
N1_3 C16_3 1_555 1_555
O1_2 C1_2 1_555 1_555
O2_2 C1_2 1_555 1_555
O3_2 C5_2 1_555 1_555
O4_2 C14_2 1_555 1_555
O17_2 C14_2 1_555 1_555
O6_3 C15_3 1_555 1_555
O7_3 C17_3 1_555 1_555
Cu1_5 O2_2 1_555 1_555
Cu2_2 N1_3 1_555 1_555
Cu11 O1_2 1_555 1_555
C20_2 C21_2 1_555 1_555
C21_2 C22_2 1_555 1_555
C22_2 H20_2 1_555 1_555
C23_2 C22_2 1_555 1_555
H21_2 C23_2 1_555 1_555
C24_2 C23_2 1_555 1_555
C25_2 C24_2 1_555 1_555
H22_2 C25_2 1_555 1_555
C26_2 C21_2 1_555 1_555
H23_2 C26_2 1_555 1_555
C27_2 C28_2 1_555 1_555
C28_2 H24_2 1_555 1_555
C29_2 C28_2 1_555 1_555
H25_2 C29_2 1_555 1_555
C30_2 C29_2 1_555 1_555
C31_2 C30_2 1_555 1_555
H26_2 C31_2 1_555 1_555
C32_2 C27_2 1_555 1_555
H27_2 C32_2 1_555 1_555
C33_2 C30_2 1_555 1_555
C34_3 H28_3 1_555 1_555
H29_3 C34_3 1_555 1_555
C35_3 C34_3 1_555 1_555
H30_3 C35_3 1_555 1_555
H31_3 C35_3 1_555 1_555
C36_3 H32_3 1_555 1_555
H33_3 C36_3 1_555 1_555
C37_3 C36_3 1_555 1_555
H34_3 C37_3 1_555 1_555
H35_3 C37_3 1_555 1_555
C38_3 H36_3 1_555 1_555
H37_3 C38_3 1_555 1_555
H38_3 C38_3 1_555 1_555
N2_3 C35_3 1_555 1_555
O8_2 C20_2 1_555 1_555
O11_2 C20_2 1_555 1_555
O12_3 Cu1_5 1_555 1_555
O13_2 C24_2 1_555 1_555
O14_2 Cu1_5 1_555 1_555
O15_3 Cu1_5 1_555 1_555
O17 C33_2 1_555 1_555
O18_3 Cu11 1_555 1_555
O20 C34_3 1_555 1_555
O21_3 Cu1_5 1_555 1_555
Cu4_9 O4_2 1_555 1_555
Cu7 N2_3 1_555 1_555
Cu7_2 O4_2 1_555 1_555
Cu9 O8_2 1_555 1_555
C6_2 C7_2 1_555 1_555
C8_2 O3_2 1_555 1_555
C12_2 C13_2 1_555 1_555
C18_3 N1_3 1_555 1_555
C19_3 N1_3 1_555 1_555
O1_2 Cu2_2 1_555 1_555
O6_3 Cu2_2 1_555 1_555
O6_3 Cu11 1_555 1_555
O7_3 Cu1_5 1_555 1_555
O7_3 Cu2_2 1_555 1_555
Cu2_2 O15_3 1_555 1_555
C25_2 C26_2 1_555 1_555
C27_2 O13_2 1_555 1_555
C31_2 C32_2 1_555 1_555
C33_2 O14_2 1_555 1_555
C36_3 O21_3 1_555 1_555
C37_3 N2_3 1_555 1_555
C38_3 N2_3 1_555 1_555
O11_2 Cu4_9 1_555 1_555
O14_2 Cu7 1_555 1_555
O21_3 Cu7 1_555 1_555
C34_4 H28_4 1_555 1_555
H29_4 C34_4 1_555 1_555
C35_4 C34_4 1_555 1_555
H30_4 C35_4 1_555 1_555
H31_4 C35_4 1_555 1_555
C36_4 H32_4 1_555 1_555
H33_4 C36_4 1_555 1_555
C37_4 C36_4 1_555 1_555
H34_4 C37_4 1_555 1_555
H35_4 C37_4 1_555 1_555
C38_4 H36_4 1_555 1_555
H37_4 C38_4 1_555 1_555
H38_4 C38_4 1_555 1_555
N2_4 C35_4 1_555 1_555
O20_2 C34_4 1_555 1_555
O21_4 Cu4_9 1_555 1_555
Cu7_2 N2_4 1_555 1_555
C36_4 O21_4 1_555 1_555
C37_4 N2_4 1_555 1_555
C38_4 N2_4 1_555 1_555
O21_4 Cu7_2 1_555 1_555
C15_4 H9_4 1_555 1_555
H10_4 C15_4 1_555 1_555
C16_4 C15_4 1_555 1_555
H11_4 C16_4 1_555 1_555
H12_4 C16_4 1_555 1_555
C17_4 H13_4 1_555 1_555
H14_4 C17_4 1_555 1_555
C18_4 C17_4 1_555 1_555
H15_4 C18_4 1_555 1_555
H16_4 C18_4 1_555 1_555
C19_4 H17_4 1_555 1_555
H18_4 C19_4 1_555 1_555
H19_4 C19_4 1_555 1_555
N1_4 C16_4 1_555 1_555
O6_4 C15_4 1_555 1_555
O7_4 C17_4 1_555 1_555
Cu8_2 N1_4 1_555 1_555
O12_4 Cu4_10 1_555 1_555
O15_4 Cu4_10 1_555 1_555
O18_4 Cu9_2 1_555 1_555
C18_4 N1_4 1_555 1_555
C19_4 N1_4 1_555 1_555
O6_4 Cu8_2 1_555 1_555
O6_4 Cu9_2 1_555 1_555
O7_4 Cu4_10 1_555 1_555
O7_4 Cu8_2 1_555 1_555
Cu8_2 O15_4 1_555 1_555
H6_3 C10_3 1_555 1_555
C11_3 C10_3 1_555 1_555
C14_3 C11_3 1_555 1_555
O15_2 C14_3 1_555 1_555
O18_2 C14_3 1_555 1_555
C1_3 C2_3 1_555 1_555
C2_3 C3_3 1_555 1_555
C3_3 H1_3 1_555 1_555
C4_3 C3_3 1_555 1_555
H2_3 C4_3 1_555 1_555
C5_3 C4_3 1_555 1_555
C6_3 C5_3 1_555 1_555
H3_3 C6_3 1_555 1_555
C7_3 C2_3 1_555 1_555
H4_3 C7_3 1_555 1_555
C8_3 C9_3 1_555 1_555
C9_3 H5_3 1_555 1_555
H7_3 C12_3 1_555 1_555
C13_3 C8_3 1_555 1_555
H8_3 C13_3 1_555 1_555
O10 C1_3 1_555 1_555
O12 C1_3 1_555 1_555
O3_3 C5_3 1_555 1_555
C6_3 C7_3 1_555 1_555
C8_3 O3_3 1_555 1_555
C12_3 C13_3 1_555 1_555
H25_3 C29_3 1_555 1_555
C30_3 C29_3 1_555 1_555
C33_3 C30_3 1_555 1_555
O18 C33_3 1_555 1_555
C33_3 O15 1_555 1_555
C20_3 C21_3 1_555 1_555
C21_3 C22_3 1_555 1_555
C22_3 H20_3 1_555 1_555
C23_3 C22_3 1_555 1_555
H21_3 C23_3 1_555 1_555
C24_3 C23_3 1_555 1_555
C25_3 C24_3 1_555 1_555
H22_3 C25_3 1_555 1_555
C26_3 C21_3 1_555 1_555
H23_3 C26_3 1_555 1_555
C27_3 C28_3 1_555 1_555
C28_3 H24_3 1_555 1_555
H26_3 C31_3 1_555 1_555
C32_3 C27_3 1_555 1_555
H27_3 C32_3 1_555 1_555
O10_2 C20_3 1_555 1_555
O12_2 C20_3 1_555 1_555
O13_3 C24_3 1_555 1_555
C25_3 C26_3 1_555 1_555
C27_3 O13_3 1_555 1_555
C31_3 C32_3 1_555 1_555
C1_4 C2_4 1_555 1_555
C2_4 C3_4 1_555 1_555
C3_4 H1_4 1_555 1_555
C4_4 C3_4 1_555 1_555
H2_4 C4_4 1_555 1_555
C5_4 C4_4 1_555 1_555
C6_4 C5_4 1_555 1_555
H3_4 C6_4 1_555 1_555
C7_4 C2_4 1_555 1_555
H4_4 C7_4 1_555 1_555
C8_4 C9_4 1_555 1_555
C9_4 H5_4 1_555 1_555
C10_4 C9_4 1_555 1_555
H6_4 C10_4 1_555 1_555
C11_4 C10_4 1_555 1_555
C12_4 C11_4 1_555 1_555
H7_4 C12_4 1_555 1_555
C13_4 C8_4 1_555 1_555
H8_4 C13_4 1_555 1_555
C14_4 C11_4 1_555 1_555
O9 C1_4 1_555 1_555
O12_3 C1_4 1_555 1_555
O3_4 C5_4 1_555 1_555
O15_4 C14_4 1_555 1_555
O18_4 C14_4 1_555 1_555
C20_4 C21_4 1_555 1_555
C21_4 C22_4 1_555 1_555
C22_4 H20_4 1_555 1_555
C23_4 C22_4 1_555 1_555
H21_4 C23_4 1_555 1_555
C24_4 C23_4 1_555 1_555
C25_4 C24_4 1_555 1_555
H22_4 C25_4 1_555 1_555
C26_4 C21_4 1_555 1_555
H23_4 C26_4 1_555 1_555
C27_4 C28_4 1_555 1_555
C28_4 H24_4 1_555 1_555
C29_4 C28_4 1_555 1_555
H25_4 C29_4 1_555 1_555
C30_4 C29_4 1_555 1_555
C31_4 C30_4 1_555 1_555
H26_4 C31_4 1_555 1_555
C32_4 C27_4 1_555 1_555
H27_4 C32_4 1_555 1_555
C33_4 C30_4 1_555 1_555
O9_2 C20_4 1_555 1_555
O12_4 C20_4 1_555 1_555
O13_4 C24_4 1_555 1_555
O18_3 C33_4 1_555 1_555
C6_4 C7_4 1_555 1_555
C8_4 O3_4 1_555 1_555
C12_4 C13_4 1_555 1_555
C25_4 C26_4 1_555 1_555
C27_4 O13_4 1_555 1_555
C31_4 C32_4 1_555 1_555
C33_4 O15_3 1_555 1_555

#END
