
###############################################################################
#
# This file contains modified crystal structure data generated from the
# MOF subset of the Cambridge Structural Database (CSD) v543 
# hosted by the Cambridge Crystallographic Data Centre (CCDC).
#
# This work is licensed under the Creative Commons
# Attribution-NonCommercial-ShareAlike 4.0 International License.
# To view a copy of this license, visit
# http://creativecommons.org/licenses/by-nc-sa/4.0/
# or send a letter to
# Creative Commons, PO Box 1866, Mountain View, CA 94042, USA.
#
# CIF created using the CSD Python API on 29 September 2022
# The structure has been converted into the P1 space group
# The structure has a 3D framework
# The original CSD entry LAZVOA is in the tetragonal crystal system
# The framework has been calculated to contain at least 10.0% void space
# The void calculation uses a probe of radius 1.32A, grid spacing 0.4
#
###############################################################################

data_LAZVOA
_chemical_formula_moiety         '(C200 H128 N8 O26 Zn5)n'
_symmetry_cell_setting           triclinic
_symmetry_space_group_name_H-M   'P 1'
_symmetry_Int_Tables_number      1
_space_group_name_Hall           'P 1'
loop_
_symmetry_equiv_pos_site_id
_symmetry_equiv_pos_as_xyz
1 x,y,z
_cell_length_a                   15.4030(4)
_cell_length_b                   15.4030(4)
_cell_length_c                   28.1736(7)
_cell_angle_alpha                90
_cell_angle_beta                 90
_cell_angle_gamma                90
_cell_volume                     6684.25
loop_
_atom_site_label
_atom_site_type_symbol
_atom_site_fract_x
_atom_site_fract_y
_atom_site_fract_z
C1 C 0.00342(11) 0.05434(11) 0.95919(6)
C2 C 0.01604(11) 0.11065(12) 0.91603(6)
C3 C 0.01384(12) 0.07338(13) 0.87118(7)
C5 C 0.03874(14) 0.19686(13) 0.92064(7)
H2 H 0.0401 0.2227 0.9513
C6 C 0.03253(13) 0.12286(15) 0.83093(7)
H3 H 0.0290 0.0976 0.8002
C10 C 0.05624(15) 0.20927(16) 0.83613(8)
H6 H 0.0702 0.2430 0.8089
C11 C 0.05965(16) 0.24652(14) 0.88094(8)
H7 H 0.0761 0.3056 0.8845
H9 H 0.0005 0.9863 0.1322
C17 C 0.12469(11) 0.85885(11) 0.00672(6)
C20 C 0.05645(11) 0.92876(11) 0.00415(6)
O4 O 0.15016(9) 0.83601(9) 0.04716(5)
Zn3 Zn 0.2500 0.7500 0.052818(9)
C12 C 0.05840(11) 0.98271(11) 0.96436(6)
H8 H 0.0987 0.9703 0.9398
O3 O 0.15281(9) 0.83124(9) 0.96775(5)
Zn6 Zn 0.2500 0.7500 0.947182(9)
Zn1 Zn 0.7500 0.2500 0.052818(9)
O1 O 0.84719(9) 0.16876(9) 0.03225(5)
C7 C 0.72259(15) 0.18040(14) 0.14936(7)
H4 H 0.7036 0.1306 0.1324
C8 C 0.72099(19) 0.17865(16) 0.19851(7)
H5 H 0.7001 0.1288 0.2148
N1 N 0.7500 0.2500 0.12493(9)
C13 C 0.7500 0.2500 0.22369(11)
C23 C 0.94160(11) 0.01729(11) 0.03564(6)
H14 H 0.9013 0.0297 0.0602
C24 C 0.77741(15) 0.31960(14) 0.14936(7)
H15 H 0.7964 0.3694 0.1324
C25 C 0.77901(19) 0.32135(16) 0.19851(7)
H16 H 0.7999 0.3712 0.2148
C26 C 0.68040(14) 0.22259(15) 0.35064(7)
H17 H 0.6306 0.2036 0.3676
C27 C 0.67865(16) 0.22099(19) 0.30149(7)
H18 H 0.6288 0.2001 0.2852
N2 N 0.7500 0.2500 0.37507(9)
C28 C 0.7500 0.2500 0.27631(11)
C29 C 0.81960(14) 0.27741(15) 0.35064(7)
H19 H 0.8694 0.2964 0.3676
C30 C 0.82135(16) 0.27901(19) 0.30149(7)
H20 H 0.8712 0.2999 0.2852
H27 H 0.5137 0.0005 0.1322
C44 C 0.64115(11) 0.12469(11) 0.00672(6)
C47 C 0.57124(11) 0.05645(11) 0.00415(6)
O8 O 0.66399(9) 0.15016(9) 0.04716(5)
Zn4 Zn 0.7500 0.2500 0.447182(9)
O9 O 0.65281(9) 0.33124(9) 0.03225(5)
O13 O 0.83601(9) 0.34984(9) 0.04716(5)
O2 O 0.84984(9) 0.16399(9) 0.95284(5)
H1 H 0.9995 0.0137 0.8678
C4 C 0.87531(11) 0.14115(11) 0.99328(6)
C9 C 0.94355(11) 0.07124(11) 0.99585(6)
C31 C 0.44566(11) 0.00342(11) 0.95919(6)
C32 C 0.38935(12) 0.01604(11) 0.91603(6)
C33 C 0.42662(13) 0.01384(12) 0.87118(7)
C35 C 0.30314(13) 0.03874(14) 0.92064(7)
H22 H 0.2773 0.0401 0.9513
C36 C 0.37714(15) 0.03253(13) 0.83093(7)
H23 H 0.4024 0.0290 0.8002
C38 C 0.29073(16) 0.05624(15) 0.83613(8)
H24 H 0.2570 0.0702 0.8089
C39 C 0.25348(14) 0.05965(16) 0.88094(8)
H25 H 0.1944 0.0761 0.8845
C40 C 0.51729(11) 0.05840(11) 0.96436(6)
H26 H 0.5297 0.0987 0.9398
O7 O 0.66876(9) 0.15281(9) 0.96775(5)
Zn7 Zn 0.7500 0.2500 0.947182(9)
C14 C 0.99658(11) 0.94566(11) 0.04081(6)
C15 C 0.98396(11) 0.88935(12) 0.08397(6)
C16 C 0.98616(12) 0.92662(13) 0.12882(7)
C18 C 0.96126(14) 0.80314(13) 0.07936(7)
H10 H 0.9599 0.7773 0.0487
C19 C 0.96747(13) 0.87714(15) 0.16907(7)
H11 H 0.9710 0.9024 0.1998
C21 C 0.94376(15) 0.79073(16) 0.16387(8)
H12 H 0.9298 0.7570 0.1911
C22 C 0.94035(16) 0.75348(14) 0.11906(8)
H13 H 0.9239 0.6944 0.1155
O5 O 0.33124(9) 0.84719(9) 0.03225(5)
C41 C 0.55434(11) 0.99658(11) 0.04081(6)
C42 C 0.61065(12) 0.98396(11) 0.08397(6)
C43 C 0.57338(13) 0.98616(12) 0.12882(7)
C45 C 0.69686(13) 0.96126(14) 0.07936(7)
H28 H 0.7227 0.9599 0.0487
C46 C 0.62286(15) 0.96747(13) 0.16907(7)
H29 H 0.5976 0.9710 0.1998
C48 C 0.70927(16) 0.94376(15) 0.16387(8)
H30 H 0.7430 0.9298 0.1911
C49 C 0.74652(14) 0.94035(16) 0.11906(8)
H31 H 0.8056 0.9239 0.1155
C50 C 0.48271(11) 0.94160(11) 0.03564(6)
H32 H 0.4703 0.9013 0.0602
O10 O 0.16876(9) 0.65281(9) 0.03225(5)
O12 O 0.34984(9) 0.66399(9) 0.04716(5)
N3 N 0.2500 0.7500 0.12493(9)
O6 O 0.33601(9) 0.84984(9) 0.95284(5)
H21 H 0.4863 0.9995 0.8678
C34 C 0.35885(11) 0.87531(11) 0.99328(6)
C37 C 0.42876(11) 0.94355(11) 0.99585(6)
C7_2 C 0.31960(14) 0.72259(15) 0.14936(7)
H4_2 H 0.3694 0.7036 0.1324
C8_2 C 0.32135(16) 0.72099(19) 0.19851(7)
H5_2 H 0.3712 0.7001 0.2148
C13_2 C 0.2500 0.7500 0.22369(11)
C24_2 C 0.18040(14) 0.77741(15) 0.14936(7)
H15_2 H 0.1306 0.7964 0.1324
C25_2 C 0.17865(16) 0.77901(19) 0.19851(7)
H16_2 H 0.1288 0.7999 0.2148
C26_2 C 0.27741(15) 0.68040(14) 0.35064(7)
H17_2 H 0.2964 0.6306 0.3676
C27_2 C 0.27901(19) 0.67865(16) 0.30149(7)
H18_2 H 0.2999 0.6288 0.2852
N2_2 N 0.2500 0.7500 0.37507(9)
C28_2 C 0.2500 0.7500 0.27631(11)
C29_2 C 0.22259(15) 0.81960(14) 0.35064(7)
H19_2 H 0.2036 0.8694 0.3676
C30_2 C 0.22099(19) 0.82135(16) 0.30149(7)
H20_2 H 0.2001 0.8712 0.2852
C41_2 C 0.50342(11) 0.55434(11) 0.04081(6)
C42_2 C 0.51604(11) 0.61065(12) 0.08397(6)
C43_2 C 0.51384(12) 0.57338(13) 0.12882(7)
H27_2 H 0.4995 0.5137 0.1322
C44_2 C 0.37531(11) 0.64115(11) 0.00672(6)
C45_2 C 0.53874(14) 0.69686(13) 0.07936(7)
H28_2 H 0.5401 0.7227 0.0487
C46_2 C 0.53253(13) 0.62286(15) 0.16907(7)
H29_2 H 0.5290 0.5976 0.1998
C47_2 C 0.44355(11) 0.57124(11) 0.00415(6)
C48_2 C 0.55624(15) 0.70927(16) 0.16387(8)
H30_2 H 0.5702 0.7430 0.1911
C49_2 C 0.55965(16) 0.74652(14) 0.11906(8)
H31_2 H 0.5761 0.8056 0.1155
C50_2 C 0.55840(11) 0.48271(11) 0.03564(6)
H32_2 H 0.5987 0.4703 0.0602
Zn4_2 Zn 0.2500 0.7500 0.447182(9)
O6_2 O 0.65016(9) 0.33601(9) 0.95284(5)
C31_2 C 0.49658(11) 0.44566(11) 0.95919(6)
C32_2 C 0.48396(11) 0.38935(12) 0.91603(6)
C33_2 C 0.48616(12) 0.42662(13) 0.87118(7)
H21_2 H 0.5005 0.4863 0.8678
C34_2 C 0.62469(11) 0.35885(11) 0.99328(6)
C35_2 C 0.46126(14) 0.30314(13) 0.92064(7)
H22_2 H 0.4599 0.2773 0.9513
C36_2 C 0.46747(13) 0.37714(15) 0.83093(7)
H23_2 H 0.4710 0.4024 0.8002
C37_2 C 0.55645(11) 0.42876(11) 0.99585(6)
C38_2 C 0.44376(15) 0.29073(16) 0.83613(8)
H24_2 H 0.4298 0.2570 0.8089
C39_2 C 0.44035(16) 0.25348(14) 0.88094(8)
H25_2 H 0.4239 0.1944 0.8845
C40_2 C 0.44160(11) 0.51729(11) 0.96436(6)
H26_2 H 0.4013 0.5297 0.9398
O7_2 O 0.34719(9) 0.66876(9) 0.96775(5)
C50_3 C 0.01729(11) 0.55840(11) 0.03564(6)
H32_3 H 0.0297 0.5987 0.0602
O6_3 O 0.16399(9) 0.65016(9) 0.95284(5)
C31_3 C 0.05434(11) 0.49658(11) 0.95919(6)
C32_3 C 0.11065(12) 0.48396(11) 0.91603(6)
C33_3 C 0.07338(13) 0.48616(12) 0.87118(7)
H21_3 H 0.0137 0.5005 0.8678
C34_3 C 0.14115(11) 0.62469(11) 0.99328(6)
C35_3 C 0.19686(13) 0.46126(14) 0.92064(7)
H22_3 H 0.2227 0.4599 0.9513
C36_3 C 0.12286(15) 0.46747(13) 0.83093(7)
H23_3 H 0.0976 0.4710 0.8002
C37_3 C 0.07124(11) 0.55645(11) 0.99585(6)
C38_3 C 0.20927(16) 0.44376(15) 0.83613(8)
H24_3 H 0.2430 0.4298 0.8089
C39_3 C 0.24652(14) 0.44035(16) 0.88094(8)
H25_3 H 0.3056 0.4239 0.8845
C41_3 C 0.94566(11) 0.50342(11) 0.04081(6)
C42_3 C 0.88935(12) 0.51604(11) 0.08397(6)
C43_3 C 0.92662(13) 0.51384(12) 0.12882(7)
H27_3 H 0.9863 0.4995 0.1322
C44_3 C 0.85885(11) 0.37531(11) 0.00672(6)
C45_3 C 0.80314(13) 0.53874(14) 0.07936(7)
H28_3 H 0.7773 0.5401 0.0487
C46_3 C 0.87714(15) 0.53253(13) 0.16907(7)
H29_3 H 0.9024 0.5290 0.1998
C47_3 C 0.92876(11) 0.44355(11) 0.00415(6)
C48_3 C 0.79073(16) 0.55624(15) 0.16387(8)
H30_3 H 0.7570 0.5702 0.1911
C49_3 C 0.75348(14) 0.55965(16) 0.11906(8)
H31_3 H 0.6944 0.5761 0.1155
C40_3 C 0.98271(11) 0.44160(11) 0.96436(6)
H26_3 H 0.9703 0.4013 0.9398
O7_3 O 0.83124(9) 0.34719(9) 0.96775(5)
C12_2 C 0.55840(11) 0.01729(11) 0.53564(6)
H8_2 H 0.5987 0.0297 0.5602
O3_2 O 0.65281(9) 0.16876(9) 0.53225(5)
C14_2 C 0.49658(11) 0.05434(11) 0.45919(6)
C15_2 C 0.48396(11) 0.11065(12) 0.41603(6)
C16_2 C 0.48616(12) 0.07338(13) 0.37118(7)
H9_2 H 0.5005 0.0137 0.3678
C17_2 C 0.62469(11) 0.14115(11) 0.49328(6)
C18_2 C 0.46126(14) 0.19686(13) 0.42064(7)
H10_2 H 0.4599 0.2227 0.4513
C19_2 C 0.46747(13) 0.12286(15) 0.33093(7)
H11_2 H 0.4710 0.0976 0.3002
C20_2 C 0.55645(11) 0.07124(11) 0.49585(6)
C21_2 C 0.44376(15) 0.20927(16) 0.33613(8)
H12_2 H 0.4298 0.2430 0.3089
C22_2 C 0.44035(16) 0.24652(14) 0.38094(8)
H13_2 H 0.4239 0.3056 0.3845
O4_2 O 0.65016(9) 0.16399(9) 0.45284(5)
C41_4 C 0.05434(11) 0.00342(11) 0.45919(6)
C42_4 C 0.11065(12) 0.01604(11) 0.41603(6)
C43_4 C 0.07338(13) 0.01384(12) 0.37118(7)
C45_4 C 0.19686(13) 0.03874(14) 0.42064(7)
H28_4 H 0.2227 0.0401 0.4513
C46_4 C 0.12286(15) 0.03253(13) 0.33093(7)
H29_4 H 0.0976 0.0290 0.3002
C48_4 C 0.20927(16) 0.05624(15) 0.33613(8)
H30_4 H 0.2430 0.0702 0.3089
C49_4 C 0.24652(14) 0.05965(16) 0.38094(8)
H31_4 H 0.3056 0.0761 0.3845
Zn6_2 Zn 0.7500 0.2500 0.552818(9)
O1_2 O 0.34719(9) 0.83124(9) 0.46775(5)
O2_2 O 0.34984(9) 0.83601(9) 0.54716(5)
C1_2 C 0.50342(11) 0.94566(11) 0.54081(6)
C2_2 C 0.51604(11) 0.88935(12) 0.58397(6)
C3_2 C 0.51384(12) 0.92662(13) 0.62882(7)
H1_2 H 0.4995 0.9863 0.6322
C4_2 C 0.37531(11) 0.85885(11) 0.50672(6)
C5_2 C 0.53874(14) 0.80314(13) 0.57936(7)
H2_2 H 0.5401 0.7773 0.5487
C6_2 C 0.53253(13) 0.87714(15) 0.66907(7)
H3_2 H 0.5290 0.9024 0.6998
C9_2 C 0.44355(11) 0.92876(11) 0.50415(6)
C10_2 C 0.55624(15) 0.79073(16) 0.66387(8)
H6_2 H 0.5702 0.7570 0.6911
C11_2 C 0.55965(16) 0.75348(14) 0.61906(8)
H7_2 H 0.5761 0.6944 0.6155
C23_2 C 0.44160(11) 0.98271(11) 0.46436(6)
H14_2 H 0.4013 0.9703 0.4398
C40_4 C 0.01729(11) 0.94160(11) 0.53564(6)
H26_4 H 0.0297 0.9013 0.5602
O7_4 O 0.16876(9) 0.84719(9) 0.53225(5)
H27_4 H 0.0137 0.9995 0.3678
C44_4 C 0.14115(11) 0.87531(11) 0.49328(6)
C47_4 C 0.07124(11) 0.94355(11) 0.49585(6)
O8_2 O 0.16399(9) 0.84984(9) 0.45284(5)
Zn7_2 Zn 0.2500 0.7500 0.552818(9)
O9_2 O 0.15281(9) 0.66876(9) 0.46775(5)
O13_2 O 0.33601(9) 0.65016(9) 0.45284(5)
O5_2 O 0.83124(9) 0.15281(9) 0.46775(5)
O6_4 O 0.83601(9) 0.15016(9) 0.54716(5)
H21_4 H 0.9863 0.0005 0.6322
C34_4 C 0.85885(11) 0.12469(11) 0.50672(6)
C37_4 C 0.92876(11) 0.05645(11) 0.50415(6)
C50_4 C 0.98271(11) 0.05840(11) 0.46436(6)
H32_4 H 0.9703 0.0987 0.4398
O10_2 O 0.66876(9) 0.34719(9) 0.46775(5)
O12_2 O 0.84984(9) 0.33601(9) 0.45284(5)
C31_4 C 0.94566(11) 0.99658(11) 0.54081(6)
C32_4 C 0.88935(12) 0.98396(11) 0.58397(6)
C33_4 C 0.92662(13) 0.98616(12) 0.62882(7)
C35_4 C 0.80314(13) 0.96126(14) 0.57936(7)
H22_4 H 0.7773 0.9599 0.5487
C36_4 C 0.87714(15) 0.96747(13) 0.66907(7)
H23_4 H 0.9024 0.9710 0.6998
C38_4 C 0.79073(16) 0.94376(15) 0.66387(8)
H24_4 H 0.7570 0.9298 0.6911
C39_4 C 0.75348(14) 0.94035(16) 0.61906(8)
H25_4 H 0.6944 0.9239 0.6155
O2_3 O 0.15016(9) 0.66399(9) 0.54716(5)
H1_3 H 0.0005 0.5137 0.6322
C4_3 C 0.12469(11) 0.64115(11) 0.50672(6)
C9_3 C 0.05645(11) 0.57124(11) 0.50415(6)
C14_3 C 0.00342(11) 0.44566(11) 0.45919(6)
C15_3 C 0.01604(11) 0.38935(12) 0.41603(6)
C16_3 C 0.01384(12) 0.42662(13) 0.37118(7)
C18_3 C 0.03874(14) 0.30314(13) 0.42064(7)
H10_3 H 0.0401 0.2773 0.4513
C19_3 C 0.03253(13) 0.37714(15) 0.33093(7)
H11_3 H 0.0290 0.4024 0.3002
C21_3 C 0.05624(15) 0.29073(16) 0.33613(8)
H12_3 H 0.0702 0.2570 0.3089
C22_3 C 0.05965(16) 0.25348(14) 0.38094(8)
H13_3 H 0.0761 0.1944 0.3845
C23_3 C 0.05840(11) 0.51729(11) 0.46436(6)
H14_3 H 0.0987 0.5297 0.4398
O6_5 O 0.66399(9) 0.34984(9) 0.54716(5)
C31_5 C 0.55434(11) 0.50342(11) 0.54081(6)
C32_5 C 0.61065(12) 0.51604(11) 0.58397(6)
C33_5 C 0.57338(13) 0.51384(12) 0.62882(7)
H21_5 H 0.5137 0.4995 0.6322
C34_5 C 0.64115(11) 0.37531(11) 0.50672(6)
C35_5 C 0.69686(13) 0.53874(14) 0.57936(7)
H22_5 H 0.7227 0.5401 0.5487
C36_5 C 0.62286(15) 0.53253(13) 0.66907(7)
H23_5 H 0.5976 0.5290 0.6998
C37_5 C 0.57124(11) 0.44355(11) 0.50415(6)
C38_5 C 0.70927(16) 0.55624(15) 0.66387(8)
H24_5 H 0.7430 0.5702 0.6911
C39_5 C 0.74652(14) 0.55965(16) 0.61906(8)
H25_5 H 0.8056 0.5761 0.6155
C40_5 C 0.48271(11) 0.55840(11) 0.53564(6)
H26_5 H 0.4703 0.5987 0.5602
O7_5 O 0.33124(9) 0.65281(9) 0.53225(5)
C41_5 C 0.44566(11) 0.49658(11) 0.45919(6)
C42_5 C 0.38935(12) 0.48396(11) 0.41603(6)
C43_5 C 0.42662(13) 0.48616(12) 0.37118(7)
H27_5 H 0.4863 0.5005 0.3678
C44_5 C 0.35885(11) 0.62469(11) 0.49328(6)
C45_5 C 0.30314(13) 0.46126(14) 0.42064(7)
H28_5 H 0.2773 0.4599 0.4513
C46_5 C 0.37714(15) 0.46747(13) 0.33093(7)
H29_5 H 0.4024 0.4710 0.3002
C47_5 C 0.42876(11) 0.55645(11) 0.49585(6)
C48_5 C 0.29073(16) 0.44376(15) 0.33613(8)
H30_5 H 0.2570 0.4298 0.3089
C49_5 C 0.25348(14) 0.44035(16) 0.38094(8)
H31_5 H 0.1944 0.4239 0.3845
C50_5 C 0.51729(11) 0.44160(11) 0.46436(6)
H32_5 H 0.5297 0.4013 0.4398
C1_3 C 0.99658(11) 0.55434(11) 0.54081(6)
C2_3 C 0.98396(11) 0.61065(12) 0.58397(6)
C3_3 C 0.98616(12) 0.57338(13) 0.62882(7)
C5_3 C 0.96126(14) 0.69686(13) 0.57936(7)
H2_3 H 0.9599 0.7227 0.5487
C6_3 C 0.96747(13) 0.62286(15) 0.66907(7)
H3_3 H 0.9710 0.5976 0.6998
C10_3 C 0.94376(15) 0.70927(16) 0.66387(8)
H6_3 H 0.9298 0.7430 0.6911
C11_3 C 0.94035(16) 0.74652(14) 0.61906(8)
H7_3 H 0.9239 0.8056 0.6155
C12_3 C 0.94160(11) 0.48271(11) 0.53564(6)
H8_3 H 0.9013 0.4703 0.5602
O3_3 O 0.84719(9) 0.33124(9) 0.53225(5)
H9_3 H 0.9995 0.4863 0.3678
C17_3 C 0.87531(11) 0.35885(11) 0.49328(6)
C20_3 C 0.94355(11) 0.42876(11) 0.49585(6)
N3_2 N 0.7500 0.2500 0.87507(9)
C7_3 C 0.27741(15) 0.81960(14) 0.85064(7)
H4_3 H 0.2964 0.8694 0.8676
C8_3 C 0.27901(19) 0.82135(16) 0.80149(7)
H5_3 H 0.2999 0.8712 0.7852
N1_2 N 0.2500 0.7500 0.87507(9)
C13_3 C 0.2500 0.7500 0.77631(11)
C24_3 C 0.22259(15) 0.68040(14) 0.85064(7)
H15_3 H 0.2036 0.6306 0.8676
C25_3 C 0.22099(19) 0.67865(16) 0.80149(7)
H16_3 H 0.2001 0.6288 0.7852
C26_3 C 0.31960(14) 0.77741(15) 0.64936(7)
H17_3 H 0.3694 0.7964 0.6324
C27_3 C 0.32135(16) 0.77901(19) 0.69851(7)
H18_3 H 0.3712 0.7999 0.7148
N2_3 N 0.2500 0.7500 0.62493(9)
C28_3 C 0.2500 0.7500 0.72369(11)
C29_3 C 0.18040(14) 0.72259(15) 0.64936(7)
H19_3 H 0.1306 0.7036 0.6324
C30_3 C 0.17865(16) 0.72099(19) 0.69851(7)
H20_3 H 0.1288 0.7001 0.7148
C7_4 C 0.68040(14) 0.27741(15) 0.85064(7)
H4_4 H 0.6306 0.2964 0.8676
C8_4 C 0.67865(16) 0.27901(19) 0.80149(7)
H5_4 H 0.6288 0.2999 0.7852
C13_4 C 0.7500 0.2500 0.77631(11)
C24_4 C 0.81960(14) 0.22259(15) 0.85064(7)
H15_4 H 0.8694 0.2036 0.8676
C25_4 C 0.82135(16) 0.22099(19) 0.80149(7)
H16_4 H 0.8712 0.2001 0.7852
C26_4 C 0.72259(15) 0.31960(14) 0.64936(7)
H17_4 H 0.7036 0.3694 0.6324
C27_4 C 0.72099(19) 0.32135(16) 0.69851(7)
H18_4 H 0.7001 0.3712 0.7148
N2_4 N 0.7500 0.2500 0.62493(9)
C28_4 C 0.7500 0.2500 0.72369(11)
C29_4 C 0.77741(15) 0.18040(14) 0.64936(7)
H19_4 H 0.7964 0.1306 0.6324
C30_4 C 0.77901(19) 0.17865(16) 0.69851(7)
H20_4 H 0.7999 0.1288 0.7148
loop_
_geom_bond_atom_site_label_1
_geom_bond_atom_site_label_2
_geom_bond_site_symmetry_1
_geom_bond_site_symmetry_2
C1 C2 1_555 1_555
C2 C3 1_555 1_555
C5 C2 1_555 1_555
H2 C5 1_555 1_555
C6 C3 1_555 1_555
H3 C6 1_555 1_555
C10 C6 1_555 1_555
H6 C10 1_555 1_555
C11 C5 1_555 1_555
H7 C11 1_555 1_555
C10 C11 1_555 1_555
C17 C20 1_555 1_555
O4 C17 1_555 1_555
Zn3 O4 1_555 1_555
H8 C12 1_555 1_555
Zn6 O3 1_555 1_555
Zn1 O1 1_555 1_555
C7 H4 1_555 1_555
C8 C7 1_555 1_555
H5 C8 1_555 1_555
N1 Zn1 1_555 1_555
C13 C8 1_555 1_555
H14 C23 1_555 1_555
C24 N1 1_555 1_555
H15 C24 1_555 1_555
C25 C13 1_555 1_555
H16 C25 1_555 1_555
C26 H17 1_555 1_555
C27 C26 1_555 1_555
H18 C27 1_555 1_555
N2 C26 1_555 1_555
C28 C13 1_555 1_555
C29 N2 1_555 1_555
H19 C29 1_555 1_555
C30 C28 1_555 1_555
H20 C30 1_555 1_555
C44 C47 1_555 1_555
O8 Zn1 1_555 1_555
Zn4 N2 1_555 1_555
O9 Zn1 1_555 1_555
O13 Zn1 1_555 1_555
C7 N1 1_555 1_555
C24 C25 1_555 1_555
C27 C28 1_555 1_555
C29 C30 1_555 1_555
C44 O8 1_555 1_555
O2 C4 1_555 1_555
C4 C9 1_555 1_555
C31 C32 1_555 1_555
C32 C33 1_555 1_555
C35 C32 1_555 1_555
H22 C35 1_555 1_555
C36 C33 1_555 1_555
H23 C36 1_555 1_555
C38 C36 1_555 1_555
H24 C38 1_555 1_555
C39 C35 1_555 1_555
H25 C39 1_555 1_555
C40 C31 1_555 1_555
H26 C40 1_555 1_555
Zn7 O2 1_555 1_555
C38 C39 1_555 1_555
O7 Zn7 1_555 1_555
C14 C15 1_555 1_555
C15 C16 1_555 1_555
C18 C15 1_555 1_555
H10 C18 1_555 1_555
C19 C16 1_555 1_555
H11 C19 1_555 1_555
C21 C19 1_555 1_555
H12 C21 1_555 1_555
C22 C18 1_555 1_555
H13 C22 1_555 1_555
Zn3 O5 1_555 1_555
C41 C42 1_555 1_555
C42 C43 1_555 1_555
C45 C42 1_555 1_555
H28 C45 1_555 1_555
C46 C43 1_555 1_555
H29 C46 1_555 1_555
C48 C46 1_555 1_555
H30 C48 1_555 1_555
C49 C45 1_555 1_555
H31 C49 1_555 1_555
H32 C50 1_555 1_555
O10 Zn3 1_555 1_555
O12 Zn3 1_555 1_555
N3 Zn3 1_555 1_555
C21 C22 1_555 1_555
C41 C50 1_555 1_555
C48 C49 1_555 1_555
O6 C34 1_555 1_555
C34 C37 1_555 1_555
Zn6 O6 1_555 1_555
C7_2 H4_2 1_555 1_555
C8_2 C7_2 1_555 1_555
H5_2 C8_2 1_555 1_555
C13_2 C8_2 1_555 1_555
C24_2 N3 1_555 1_555
H15_2 C24_2 1_555 1_555
C25_2 C13_2 1_555 1_555
H16_2 C25_2 1_555 1_555
C26_2 H17_2 1_555 1_555
C27_2 C26_2 1_555 1_555
H18_2 C27_2 1_555 1_555
N2_2 C26_2 1_555 1_555
C28_2 C13_2 1_555 1_555
C29_2 N2_2 1_555 1_555
H19_2 C29_2 1_555 1_555
C30_2 C28_2 1_555 1_555
H20_2 C30_2 1_555 1_555
C41_2 C42_2 1_555 1_555
C42_2 C43_2 1_555 1_555
C43_2 H27_2 1_555 1_555
C44_2 C47_2 1_555 1_555
C45_2 C42_2 1_555 1_555
H28_2 C45_2 1_555 1_555
C46_2 C43_2 1_555 1_555
H29_2 C46_2 1_555 1_555
C48_2 C46_2 1_555 1_555
H30_2 C48_2 1_555 1_555
C49_2 C45_2 1_555 1_555
H31_2 C49_2 1_555 1_555
H32_2 C50_2 1_555 1_555
Zn4_2 N2_2 1_555 1_555
C7_2 N3 1_555 1_555
C24_2 C25_2 1_555 1_555
C27_2 C28_2 1_555 1_555
C29_2 C30_2 1_555 1_555
C41_2 C47_2 1_555 1_555
C41_2 C50_2 1_555 1_555
C44_2 O12 1_555 1_555
C48_2 C49_2 1_555 1_555
O6_2 C34_2 1_555 1_555
C31_2 C32_2 1_555 1_555
C32_2 C33_2 1_555 1_555
C33_2 H21_2 1_555 1_555
C34_2 C37_2 1_555 1_555
C35_2 C32_2 1_555 1_555
H22_2 C35_2 1_555 1_555
C36_2 C33_2 1_555 1_555
H23_2 C36_2 1_555 1_555
C37_2 C31_2 1_555 1_555
C38_2 C36_2 1_555 1_555
H24_2 C38_2 1_555 1_555
C39_2 C35_2 1_555 1_555
H25_2 C39_2 1_555 1_555
C40_2 C31_2 1_555 1_555
H26_2 C40_2 1_555 1_555
Zn7 O6_2 1_555 1_555
C38_2 C39_2 1_555 1_555
O7_2 Zn6 1_555 1_555
H32_3 C50_3 1_555 1_555
O6_3 C34_3 1_555 1_555
C31_3 C32_3 1_555 1_555
C32_3 C33_3 1_555 1_555
C33_3 H21_3 1_555 1_555
C34_3 C37_3 1_555 1_555
C35_3 C32_3 1_555 1_555
H22_3 C35_3 1_555 1_555
C36_3 C33_3 1_555 1_555
H23_3 C36_3 1_555 1_555
C37_3 C31_3 1_555 1_555
C38_3 C36_3 1_555 1_555
H24_3 C38_3 1_555 1_555
C39_3 C35_3 1_555 1_555
H25_3 C39_3 1_555 1_555
Zn6 O6_3 1_555 1_555
C38_3 C39_3 1_555 1_555
C41_3 C42_3 1_555 1_555
C42_3 C43_3 1_555 1_555
C43_3 H27_3 1_555 1_555
C44_3 C47_3 1_555 1_555
C45_3 C42_3 1_555 1_555
H28_3 C45_3 1_555 1_555
C46_3 C43_3 1_555 1_555
H29_3 C46_3 1_555 1_555
C48_3 C46_3 1_555 1_555
H30_3 C48_3 1_555 1_555
C49_3 C45_3 1_555 1_555
H31_3 C49_3 1_555 1_555
C41_3 C47_3 1_555 1_555
C44_3 O13 1_555 1_555
C48_3 C49_3 1_555 1_555
H26_3 C40_3 1_555 1_555
O7_3 Zn7 1_555 1_555
H8_2 C12_2 1_555 1_555
O3_2 C17_2 1_555 1_555
C14_2 C15_2 1_555 1_555
C15_2 C16_2 1_555 1_555
C16_2 H9_2 1_555 1_555
C17_2 C20_2 1_555 1_555
C18_2 C15_2 1_555 1_555
H10_2 C18_2 1_555 1_555
C19_2 C16_2 1_555 1_555
H11_2 C19_2 1_555 1_555
C20_2 C12_2 1_555 1_555
C21_2 C19_2 1_555 1_555
H12_2 C21_2 1_555 1_555
C22_2 C18_2 1_555 1_555
H13_2 C22_2 1_555 1_555
O4_2 C17_2 1_555 1_555
C41_4 C42_4 1_555 1_555
C42_4 C43_4 1_555 1_555
C45_4 C42_4 1_555 1_555
H28_4 C45_4 1_555 1_555
C46_4 C43_4 1_555 1_555
H29_4 C46_4 1_555 1_555
C48_4 C46_4 1_555 1_555
H30_4 C48_4 1_555 1_555
C49_4 C45_4 1_555 1_555
H31_4 C49_4 1_555 1_555
Zn4 O4_2 1_555 1_555
Zn6_2 O3_2 1_555 1_555
C14_2 C20_2 1_555 1_555
C21_2 C22_2 1_555 1_555
C48_4 C49_4 1_555 1_555
Zn4_2 O1_2 1_555 1_555
O1_2 C4_2 1_555 1_555
O2_2 C4_2 1_555 1_555
C1_2 C2_2 1_555 1_555
C2_2 C3_2 1_555 1_555
C3_2 H1_2 1_555 1_555
C4_2 C9_2 1_555 1_555
C5_2 C2_2 1_555 1_555
H2_2 C5_2 1_555 1_555
C6_2 C3_2 1_555 1_555
H3_2 C6_2 1_555 1_555
C9_2 C1_2 1_555 1_555
C10_2 C6_2 1_555 1_555
H6_2 C10_2 1_555 1_555
C11_2 C5_2 1_555 1_555
H7_2 C11_2 1_555 1_555
C23_2 C9_2 1_555 1_555
H14_2 C23_2 1_555 1_555
H26_4 C40_4 1_555 1_555
O7_4 C44_4 1_555 1_555
C44_4 C47_4 1_555 1_555
C47_4 C40_4 1_555 1_555
O8_2 Zn4_2 1_555 1_555
Zn7_2 O2_2 1_555 1_555
O9_2 Zn4_2 1_555 1_555
O13_2 Zn4_2 1_555 1_555
C10_2 C11_2 1_555 1_555
O7_4 Zn7_2 1_555 1_555
C44_4 O8_2 1_555 1_555
Zn4 O5_2 1_555 1_555
O5_2 C34_4 1_555 1_555
O6_4 C34_4 1_555 1_555
C34_4 C37_4 1_555 1_555
C50_4 C37_4 1_555 1_555
H32_4 C50_4 1_555 1_555
Zn6_2 O6_4 1_555 1_555
O10_2 Zn4 1_555 1_555
O12_2 Zn4 1_555 1_555
C31_4 C32_4 1_555 1_555
C32_4 C33_4 1_555 1_555
C35_4 C32_4 1_555 1_555
H22_4 C35_4 1_555 1_555
C36_4 C33_4 1_555 1_555
H23_4 C36_4 1_555 1_555
C38_4 C36_4 1_555 1_555
H24_4 C38_4 1_555 1_555
C39_4 C35_4 1_555 1_555
H25_4 C39_4 1_555 1_555
C38_4 C39_4 1_555 1_555
O9_2 C4_3 1_555 1_555
O2_3 C4_3 1_555 1_555
C4_3 C9_3 1_555 1_555
C14_3 C15_3 1_555 1_555
C15_3 C16_3 1_555 1_555
C18_3 C15_3 1_555 1_555
H10_3 C18_3 1_555 1_555
C19_3 C16_3 1_555 1_555
H11_3 C19_3 1_555 1_555
C21_3 C19_3 1_555 1_555
H12_3 C21_3 1_555 1_555
C22_3 C18_3 1_555 1_555
H13_3 C22_3 1_555 1_555
C23_3 C9_3 1_555 1_555
H14_3 C23_3 1_555 1_555
O10_2 C34_5 1_555 1_555
O6_5 C34_5 1_555 1_555
C31_5 C32_5 1_555 1_555
C32_5 C33_5 1_555 1_555
C33_5 H21_5 1_555 1_555
C34_5 C37_5 1_555 1_555
C35_5 C32_5 1_555 1_555
H22_5 C35_5 1_555 1_555
C36_5 C33_5 1_555 1_555
H23_5 C36_5 1_555 1_555
C37_5 C31_5 1_555 1_555
C38_5 C36_5 1_555 1_555
H24_5 C38_5 1_555 1_555
C39_5 C35_5 1_555 1_555
H25_5 C39_5 1_555 1_555
C40_5 C31_5 1_555 1_555
H26_5 C40_5 1_555 1_555
O7_5 C44_5 1_555 1_555
C41_5 C42_5 1_555 1_555
C42_5 C43_5 1_555 1_555
C43_5 H27_5 1_555 1_555
C44_5 C47_5 1_555 1_555
C45_5 C42_5 1_555 1_555
H28_5 C45_5 1_555 1_555
C46_5 C43_5 1_555 1_555
H29_5 C46_5 1_555 1_555
C47_5 C40_5 1_555 1_555
C48_5 C46_5 1_555 1_555
H30_5 C48_5 1_555 1_555
C49_5 C45_5 1_555 1_555
H31_5 C49_5 1_555 1_555
C50_5 C37_5 1_555 1_555
H32_5 C50_5 1_555 1_555
Zn6_2 O6_5 1_555 1_555
Zn7_2 O2_3 1_555 1_555
C14_3 C23_3 1_555 1_555
C21_3 C22_3 1_555 1_555
C38_5 C39_5 1_555 1_555
O7_5 Zn7_2 1_555 1_555
C41_5 C47_5 1_555 1_555
C41_5 C50_5 1_555 1_555
C44_5 O13_2 1_555 1_555
C48_5 C49_5 1_555 1_555
C1_3 C2_3 1_555 1_555
C2_3 C3_3 1_555 1_555
C5_3 C2_3 1_555 1_555
H2_3 C5_3 1_555 1_555
C6_3 C3_3 1_555 1_555
H3_3 C6_3 1_555 1_555
C10_3 C6_3 1_555 1_555
H6_3 C10_3 1_555 1_555
C11_3 C5_3 1_555 1_555
H7_3 C11_3 1_555 1_555
C12_3 C1_3 1_555 1_555
H8_3 C12_3 1_555 1_555
O3_3 C17_3 1_555 1_555
C17_3 C20_3 1_555 1_555
C20_3 C12_3 1_555 1_555
O12_2 C17_3 1_555 1_555
Zn6_2 O3_3 1_555 1_555
C10_3 C11_3 1_555 1_555
N3_2 Zn7 1_555 1_555
C7_3 H4_3 1_555 1_555
C8_3 C7_3 1_555 1_555
H5_3 C8_3 1_555 1_555
N1_2 Zn6 1_555 1_555
C13_3 C8_3 1_555 1_555
C24_3 N1_2 1_555 1_555
H15_3 C24_3 1_555 1_555
C25_3 C13_3 1_555 1_555
H16_3 C25_3 1_555 1_555
C26_3 H17_3 1_555 1_555
C27_3 C26_3 1_555 1_555
H18_3 C27_3 1_555 1_555
N2_3 C26_3 1_555 1_555
C28_3 C13_3 1_555 1_555
C29_3 N2_3 1_555 1_555
H19_3 C29_3 1_555 1_555
C30_3 C28_3 1_555 1_555
H20_3 C30_3 1_555 1_555
Zn7_2 N2_3 1_555 1_555
C7_3 N1_2 1_555 1_555
C24_3 C25_3 1_555 1_555
C27_3 C28_3 1_555 1_555
C29_3 C30_3 1_555 1_555
C7_4 H4_4 1_555 1_555
C8_4 C7_4 1_555 1_555
H5_4 C8_4 1_555 1_555
C13_4 C8_4 1_555 1_555
C24_4 N3_2 1_555 1_555
H15_4 C24_4 1_555 1_555
C25_4 C13_4 1_555 1_555
H16_4 C25_4 1_555 1_555
C26_4 H17_4 1_555 1_555
C27_4 C26_4 1_555 1_555
H18_4 C27_4 1_555 1_555
N2_4 C26_4 1_555 1_555
C28_4 C13_4 1_555 1_555
C29_4 N2_4 1_555 1_555
H19_4 C29_4 1_555 1_555
C30_4 C28_4 1_555 1_555
H20_4 C30_4 1_555 1_555
Zn6_2 N2_4 1_555 1_555
C7_4 N3_2 1_555 1_555
C24_4 C25_4 1_555 1_555
C27_4 C28_4 1_555 1_555
C29_4 C30_4 1_555 1_555

#END
