
###############################################################################
#
# This file contains modified crystal structure data generated from the
# MOF subset of the Cambridge Structural Database (CSD) v543 
# hosted by the Cambridge Crystallographic Data Centre (CCDC).
#
# This work is licensed under the Creative Commons
# Attribution-NonCommercial-ShareAlike 4.0 International License.
# To view a copy of this license, visit
# http://creativecommons.org/licenses/by-nc-sa/4.0/
# or send a letter to
# Creative Commons, PO Box 1866, Mountain View, CA 94042, USA.
#
# CIF created using the CSD Python API on 29 September 2022
# The structure has been converted into the P1 space group
# The structure has a 3D framework
# The original CSD entry LAZXOB is in the orthorhombic crystal system
# The framework has been calculated to contain at least 10.0% void space
# The void calculation uses a probe of radius 1.32A, grid spacing 0.4
# H atom positions have been added when not included in the experimental data
# Generated hydrogen atom positions removed from atoms on special positions
#
###############################################################################

data_LAZXOB
_chemical_formula_moiety         '(C216 H264 Cu34 O130)n'
_symmetry_cell_setting           triclinic
_symmetry_space_group_name_H-M   'P 1'
_symmetry_Int_Tables_number      1
_space_group_name_Hall           'P 1'
loop_
_symmetry_equiv_pos_site_id
_symmetry_equiv_pos_as_xyz
1 x,y,z
_cell_length_a                   20.1311(16)
_cell_length_b                   20.1311(16)
_cell_length_c                   20.5559(16)
_cell_angle_alpha                90
_cell_angle_beta                 90
_cell_angle_gamma                90
_cell_volume                     8330.51
loop_
_atom_site_label
_atom_site_type_symbol
_atom_site_fract_x
_atom_site_fract_y
_atom_site_fract_z
Cu1 Cu 0.26360(13) 0.26608(11) 0.31076(9)
Cu3 Cu 0.0000 0.5656(2) 0.0000
O1 O 0.1689(7) 0.2605(5) 0.3157(5)
O3 O 0.2348(6) 0.3297(7) 0.1829(5)
O4 O 0.2543(8) 0.3603(7) 0.2813(8)
O5 O 0.0685(10) 0.5580(6) 0.0638(7)
O7 O 0.0000 0.6796(14) 0.0000
O8 O 0.1414(6) 0.2347(6) 0.2152(6)
O9 O 0.2781(10) 0.2896(14) 0.4128(8)
C1 C 0.0000 0.2432(16) 0.2675(13)
C2 C 0.2149(11) 0.4393(8) 0.2051(8)
C3 C 0.1662(16) 0.4384(7) 0.1590(11)
H1 H 0.1480 0.3976 0.1442
C4 C 0.0000 0.3010(12) 0.2135(14)
H2 H 0.0399 0.2972 0.1856
C5 C 0.0871(11) 0.5000 0.0873(15)
C6 C -0.0000 0.366(2) 0.248(5)
C7 C 0.358(2) 0.5000 0.216(2)
C8 C 0.2364(9) 0.3707(9) 0.2217(9)
C9 C 0.0592(9) 0.2136(9) 0.2933(10)
C10 C 0.2461(11) 0.5000 0.2265(13)
C11 C 0.1432(13) 0.5000 0.1337(15)
C12 C 0.0600(7) 0.1724(10) 0.3418(9)
H3 H 0.1002 0.1634 0.3643
C13 C -0.0000 0.1411(13) 0.3605(11)
C14 C -0.0000 0.0877(16) 0.4141(11)
C15 C 0.1277(7) 0.2397(8) 0.2689(8)
C16 C 0.3023(12) 0.5000 0.2692(18)
H4 H 0.3039 0.4598 0.2968
Cu7 Cu 0.23640(13) 0.23392(11) 0.18924(9)
Cu11 Cu 0.23640(13) 0.76608(11) 0.18924(9)
Cu12 Cu 0.26360(13) 0.73392(11) 0.31076(9)
Cu13 Cu 0.76360(13) 0.23392(11) 0.18924(9)
Cu14 Cu 0.73640(13) 0.26608(11) 0.31076(9)
Cu15 Cu 0.0660(2) 0.0000 0.5000
Cu16 Cu 0.4340(2) 0.5000 0.0000
Cu17 Cu 0.5660(2) 0.5000 0.0000
Cu18 Cu -0.0000 0.4344(2) 0.0000
O13 O 0.3311(7) 0.2395(5) 0.1843(5)
O14 O 0.6689(7) 0.2395(5) 0.1843(5)
O15 O 0.0548(8) 0.0673(8) 0.4316(6)
O20 O 0.4452(8) 0.4327(8) 0.0684(6)
O21 O 0.5548(8) 0.4327(8) 0.0684(6)
O23 O 0.2652(6) 0.1703(7) 0.3171(5)
O24 O 0.2348(6) 0.6703(7) 0.1829(5)
O27 O 0.2543(8) 0.6397(7) 0.2813(8)
O31 O 0.0685(10) 0.4420(6) 0.0638(7)
O38 O 0.3586(6) 0.2653(6) 0.2848(6)
O42 O 0.6414(6) 0.2653(6) 0.2848(6)
C18 C 0.5000 0.2568(16) 0.2325(13)
C19 C 0.2149(11) 0.5607(8) 0.2051(8)
C20 C 0.1662(16) 0.5616(7) 0.1590(11)
H5 H 0.1480 0.6024 0.1442
C22 C 0.5000 0.1990(12) 0.2865(14)
H9 H 0.5399 0.2028 0.3144
H10 H 0.4601 0.2028 0.3144
C24 C 0.5000 0.134(2) 0.252(5)
C25 C 0.2364(9) 0.6293(9) 0.2217(9)
C29 C 0.4408(9) 0.2864(9) 0.2067(10)
C30 C 0.5592(9) 0.2864(9) 0.2067(10)
C34 C 0.4400(7) 0.3276(10) 0.1582(9)
C35 C 0.5600(7) 0.3276(10) 0.1582(9)
H14 H 0.3998 0.3366 0.1357
H15 H 0.6002 0.3366 0.1357
C37 C 0.5000 0.3589(13) 0.1395(11)
C39 C 0.5000 0.4123(16) 0.0859(11)
C43 C 0.3723(7) 0.2603(8) 0.2311(8)
C44 C 0.6277(7) 0.2603(8) 0.2311(8)
H16 H 0.3039 0.5402 0.2968
H19 H 0.353104 0.544169 0.185792
H20 H 0.406518 0.5 0.239428
H21 H 0.353104 0.455831 0.185792
H24 H 0.0441687 0.369702 0.278371
H25 H 6.2459e-18 0.406155 0.212501
H34 H 0.544169 0.130298 0.221629
H35 H 0.5 0.0938451 0.287499
H36 H 0.455831 0.130298 0.221629
Cu3_2 Cu 0.0000 0.5656(2) 1.0000
O7_2 O 0.0000 0.6796(14) 1.0000
Cu16_2 Cu 0.4340(2) 0.5000 1.0000
Cu17_2 Cu 0.5660(2) 0.5000 1.0000
Cu18_2 Cu -0.0000 0.4344(2) 1.0000
O32 O 0.0685(10) 0.5580(6) 0.9362(7)
H27 H 0.0446049 0.696042 0.987112
Cu15_2 Cu 0.0660(2) 1.0000 0.5000
O11 O 0.1689(7) 0.7395(5) 0.3157(5)
O17 O 0.0548(8) 0.9327(8) 0.4316(6)
O22 O 0.2652(6) 0.8297(7) 0.3171(5)
O36 O 0.1414(6) 0.7653(6) 0.2152(6)
O40 O 0.3586(6) 0.7347(6) 0.2848(6)
O44 O 0.2781(10) 0.7104(14) 0.4128(8)
C17 C -0.0000 0.7568(16) 0.2675(13)
C21 C 0.0000 0.6990(12) 0.2135(14)
H7 H 0.0399 0.7028 0.1856
C23 C 0.0000 0.634(2) 0.248(5)
C27 C 0.0592(9) 0.7864(9) 0.2933(10)
C32 C 0.0600(7) 0.8276(10) 0.3418(9)
H12 H 0.1002 0.8366 0.3643
C36 C -0.0000 0.8589(13) 0.3605(11)
C38 C -0.0000 0.9123(16) 0.4141(11)
C41 C 0.1277(7) 0.7603(8) 0.2689(8)
H32 H -6.2459e-18 0.593845 0.212501
H33 H 0.0441687 0.630298 0.278371
Cu2 Cu 0.9340(2) 0.0000 0.5000
Cu3_3 Cu 1.0000 0.5656(2) 0.0000
O2 O 0.9452(8) 0.0673(8) 0.4316(6)
O6 O 0.8268(11) 0.0000 0.5000
O7_3 O 1.0000 0.6796(14) 0.0000
C1_2 C 1.0000 0.2432(16) 0.2675(13)
C4_2 C 1.0000 0.3010(12) 0.2135(14)
C6_2 C 1.0000 0.366(2) 0.248(5)
C13_2 C 1.0000 0.1411(13) 0.3605(11)
C14_2 C 1.0000 0.0877(16) 0.4141(11)
Cu18_3 Cu 1.0000 0.4344(2) 0.0000
O10 O 0.8311(7) 0.2605(5) 0.3157(5)
O19 O 0.9452(8) 0.0673(8) 0.5684(6)
O25 O 0.7348(6) 0.1703(7) 0.3171(5)
O28 O 0.7457(8) 0.3603(7) 0.2813(8)
O33 O 0.9315(10) 0.5580(6) 0.0638(7)
O35 O 0.8586(6) 0.2347(6) 0.2152(6)
O43 O 0.7219(10) 0.2896(14) 0.4128(8)
H6 H 0.9601 0.2972 0.1856
C26 C 0.9408(9) 0.2136(9) 0.2933(10)
C31 C 0.9400(7) 0.1724(10) 0.3418(9)
H11 H 0.8998 0.1634 0.3643
C40 C 0.8723(7) 0.2397(8) 0.2689(8)
H25_2 H 1 0.406155 0.212501
H26 H 0.955831 0.369702 0.278371
Cu3_4 Cu 1.0000 0.5656(2) 1.0000
O7_4 O 1.0000 0.6796(14) 1.0000
Cu18_4 Cu 1.0000 0.4344(2) 1.0000
O34 O 0.9315(10) 0.5580(6) 0.9362(7)
H28 H 0.966301 0.696042 0.968613
Cu2_2 Cu 0.9340(2) 1.0000 0.5000
O6_2 O 0.8268(11) 1.0000 0.5000
Cu6 Cu 0.73640(13) 0.73392(11) 0.31076(9)
Cu10 Cu 0.76360(13) 0.76608(11) 0.18924(9)
O12 O 0.8311(7) 0.7395(5) 0.3157(5)
O16 O 0.9452(8) 0.9327(8) 0.4316(6)
O18 O 0.9452(8) 0.9327(8) 0.5684(6)
O26 O 0.7348(6) 0.8297(7) 0.3171(5)
O30 O 0.7457(8) 0.6397(7) 0.2813(8)
O37 O 0.8586(6) 0.7653(6) 0.2152(6)
O41 O 0.6414(6) 0.7347(6) 0.2848(6)
O45 O 0.7219(10) 0.7104(14) 0.4128(8)
C17_2 C 1.0000 0.7568(16) 0.2675(13)
C21_2 C 1.0000 0.6990(12) 0.2135(14)
H8 H 0.9601 0.7028 0.1856
C23_2 C 1.0000 0.634(2) 0.248(5)
C28 C 0.9408(9) 0.7864(9) 0.2933(10)
C33 C 0.9400(7) 0.8276(10) 0.3418(9)
H13 H 0.8998 0.8366 0.3643
C36_2 C 1.0000 0.8589(13) 0.3605(11)
C38_2 C 1.0000 0.9123(16) 0.4141(11)
C42 C 0.8723(7) 0.7603(8) 0.2689(8)
H31 H 0.955831 0.630298 0.278371
H32_2 H 1 0.593845 0.212501
O6_3 O 0.1732(11) 0.0000 0.5000
O18_2 O 0.0548(8) 0.0673(8) 0.5684(6)
O6_4 O 0.1732(11) 1.0000 0.5000
O7_5 O -0.0000 0.3204(14) 0.0000
O19_2 O 0.0548(8) 0.9327(8) 0.5684(6)
O7_6 O -0.0000 0.3204(14) 1.0000
O34_2 O 0.0685(10) 0.4420(6) 0.9362(7)
H28_2 H 0.033699 0.303958 0.968613
O3_2 O 0.7652(6) 0.6703(7) 0.1829(5)
O5_2 O 0.9315(10) 0.4420(6) 0.0638(7)
O7_7 O 1.0000 0.3204(14) 0.0000
C2_2 C 0.7851(11) 0.5607(8) 0.2051(8)
C3_2 C 0.8338(16) 0.5616(7) 0.1590(11)
H1_2 H 0.8520 0.6024 0.1442
C5_2 C 0.9129(11) 0.5000 0.0873(15)
C7_2 C 0.642(2) 0.5000 0.216(2)
C8_2 C 0.7636(9) 0.6293(9) 0.2217(9)
C10_2 C 0.7539(11) 0.5000 0.2265(13)
C11_2 C 0.8568(13) 0.5000 0.1337(15)
C16_2 C 0.6977(12) 0.5000 0.2692(18)
H4_2 H 0.6961 0.5402 0.2968
O13_2 O 0.6689(7) 0.7605(5) 0.1843(5)
O14_2 O 0.3311(7) 0.7605(5) 0.1843(5)
O20_2 O 0.5548(8) 0.5673(8) 0.0684(6)
O21_2 O 0.4452(8) 0.5673(8) 0.0684(6)
O24_2 O 0.7652(6) 0.3297(7) 0.1829(5)
C18_2 C 0.5000 0.7432(16) 0.2325(13)
C19_2 C 0.7851(11) 0.4393(8) 0.2051(8)
C20_2 C 0.8338(16) 0.4384(7) 0.1590(11)
H5_2 H 0.8520 0.3976 0.1442
C22_2 C 0.5000 0.8010(12) 0.2865(14)
H9_2 H 0.4601 0.7972 0.3144
H10_2 H 0.5399 0.7972 0.3144
C24_2 C 0.5000 0.866(2) 0.252(5)
C25_2 C 0.7636(9) 0.3707(9) 0.2217(9)
C29_2 C 0.5592(9) 0.7136(9) 0.2067(10)
C30_2 C 0.4408(9) 0.7136(9) 0.2067(10)
C34_2 C 0.5600(7) 0.6724(10) 0.1582(9)
C35_2 C 0.4400(7) 0.6724(10) 0.1582(9)
H14_2 H 0.6002 0.6634 0.1357
H15_2 H 0.3998 0.6634 0.1357
C37_2 C 0.5000 0.6411(13) 0.1395(11)
C39_2 C 0.5000 0.5877(16) 0.0859(11)
C43_2 C 0.6277(7) 0.7397(8) 0.2311(8)
C44_2 C 0.3723(7) 0.7397(8) 0.2311(8)
H16_2 H 0.6961 0.4598 0.2968
H19_2 H 0.646896 0.455831 0.185792
H20_2 H 0.593482 0.5 0.239428
H21_2 H 0.646896 0.544169 0.185792
H34_2 H 0.455831 0.869702 0.221629
H35_2 H 0.5 0.906155 0.287499
H36_2 H 0.544169 0.869702 0.221629
O7_8 O 1.0000 0.3204(14) 1.0000
O32_2 O 0.9315(10) 0.4420(6) 0.9362(7)
H27_2 H 0.955395 0.303958 0.987112
Cu5 Cu 0.26360(13) 0.26608(11) 0.68924(9)
Cu9 Cu 0.23640(13) 0.23392(11) 0.81076(9)
O11_2 O 0.1689(7) 0.2605(5) 0.6843(5)
O22_2 O 0.2652(6) 0.1703(7) 0.6829(5)
O29 O 0.2543(8) 0.3603(7) 0.7187(8)
O36_2 O 0.1414(6) 0.2347(6) 0.7848(6)
O40_2 O 0.3586(6) 0.2653(6) 0.7152(6)
O44_2 O 0.2781(10) 0.2896(14) 0.5872(8)
C17_3 C -0.0000 0.2432(16) 0.7325(13)
C21_3 C -0.0000 0.3010(12) 0.7865(14)
H7_2 H 0.0399 0.2972 0.8144
C23_3 C -0.0000 0.366(2) 0.752(5)
C27_2 C 0.0592(9) 0.2136(9) 0.7067(10)
C32_2 C 0.0600(7) 0.1724(10) 0.6582(9)
H12_2 H 0.1002 0.1634 0.6357
C36_3 C -0.0000 0.1411(13) 0.6395(11)
C38_3 C -0.0000 0.0877(16) 0.5859(11)
C41_2 C 0.1277(7) 0.2397(8) 0.7311(8)
H32_3 H -6.2459e-18 0.406155 0.787499
H33_2 H 0.0441687 0.369702 0.721629
H27_3 H 0.0446049 0.303958 0.0128877
Cu1_2 Cu 0.26360(13) 0.73392(11) 0.68924(9)
O1_2 O 0.1689(7) 0.7395(5) 0.6843(5)
O3_3 O 0.2348(6) 0.6703(7) 0.8171(5)
O4_2 O 0.2543(8) 0.6397(7) 0.7187(8)
O8_2 O 0.1414(6) 0.7653(6) 0.7848(6)
O9_2 O 0.2781(10) 0.7104(14) 0.5872(8)
C1_3 C -0.0000 0.7568(16) 0.7325(13)
C2_3 C 0.2149(11) 0.5607(8) 0.7949(8)
C3_3 C 0.1662(16) 0.5616(7) 0.8410(11)
H1_3 H 0.1480 0.6024 0.8558
C4_3 C -0.0000 0.6990(12) 0.7865(14)
H2_2 H 0.0399 0.7028 0.8144
C5_3 C 0.0871(11) 0.5000 0.9127(15)
C6_3 C -0.0000 0.634(2) 0.752(5)
C7_3 C 0.358(2) 0.5000 0.784(2)
C8_3 C 0.2364(9) 0.6293(9) 0.7783(9)
C9_2 C 0.0592(9) 0.7864(9) 0.7067(10)
C10_3 C 0.2461(11) 0.5000 0.7735(13)
C11_3 C 0.1432(13) 0.5000 0.8663(15)
C12_2 C 0.0600(7) 0.8276(10) 0.6582(9)
H3_2 H 0.1002 0.8366 0.6357
C13_3 C -0.0000 0.8589(13) 0.6395(11)
C14_3 C -0.0000 0.9123(16) 0.5859(11)
C15_2 C 0.1277(7) 0.7603(8) 0.7311(8)
C16_3 C 0.3023(12) 0.5000 0.7308(18)
H4_3 H 0.3039 0.5402 0.7032
Cu7_2 Cu 0.23640(13) 0.76608(11) 0.81076(9)
Cu13_2 Cu 0.76360(13) 0.76608(11) 0.81076(9)
Cu14_2 Cu 0.73640(13) 0.73392(11) 0.68924(9)
O13_3 O 0.3311(7) 0.7605(5) 0.8157(5)
O14_3 O 0.6689(7) 0.7605(5) 0.8157(5)
O20_3 O 0.4452(8) 0.5673(8) 0.9316(6)
O21_3 O 0.5548(8) 0.5673(8) 0.9316(6)
O23_2 O 0.2652(6) 0.8297(7) 0.6829(5)
O24_3 O 0.2348(6) 0.3297(7) 0.8171(5)
O38_2 O 0.3586(6) 0.7347(6) 0.7152(6)
O42_2 O 0.6414(6) 0.7347(6) 0.7152(6)
C18_3 C 0.5000 0.7432(16) 0.7675(13)
C19_3 C 0.2149(11) 0.4393(8) 0.7949(8)
C20_3 C 0.1662(16) 0.4384(7) 0.8410(11)
H5_3 H 0.1480 0.3976 0.8558
C22_3 C 0.5000 0.8010(12) 0.7135(14)
H9_3 H 0.5399 0.7972 0.6856
H10_3 H 0.4601 0.7972 0.6856
C24_3 C 0.5000 0.866(2) 0.748(5)
C25_3 C 0.2364(9) 0.3707(9) 0.7783(9)
C29_3 C 0.4408(9) 0.7136(9) 0.7933(10)
C30_3 C 0.5592(9) 0.7136(9) 0.7933(10)
C34_3 C 0.4400(7) 0.6724(10) 0.8418(9)
C35_3 C 0.5600(7) 0.6724(10) 0.8418(9)
H14_3 H 0.3998 0.6634 0.8643
H15_3 H 0.6002 0.6634 0.8643
C37_3 C 0.5000 0.6411(13) 0.8605(11)
C39_3 C 0.5000 0.5877(16) 0.9141(11)
C43_3 C 0.3723(7) 0.7397(8) 0.7689(8)
C44_3 C 0.6277(7) 0.7397(8) 0.7689(8)
H16_3 H 0.3039 0.4598 0.7032
H19_3 H 0.353104 0.455831 0.814208
H20_3 H 0.406518 0.5 0.760572
H21_3 H 0.353104 0.544169 0.814208
H24_2 H 0.0441687 0.630298 0.721629
H25_3 H 6.2459e-18 0.593845 0.787499
H34_3 H 0.544169 0.869702 0.778371
H35_3 H 0.5 0.906155 0.712501
H36_3 H 0.455831 0.869702 0.778371
Cu6_2 Cu 0.73640(13) 0.26608(11) 0.68924(9)
Cu10_2 Cu 0.76360(13) 0.23392(11) 0.81076(9)
O12_2 O 0.8311(7) 0.2605(5) 0.6843(5)
O26_2 O 0.7348(6) 0.1703(7) 0.6829(5)
O30_2 O 0.7457(8) 0.3603(7) 0.7187(8)
O37_2 O 0.8586(6) 0.2347(6) 0.7848(6)
O41_2 O 0.6414(6) 0.2653(6) 0.7152(6)
O45_2 O 0.7219(10) 0.2896(14) 0.5872(8)
C17_4 C 1.0000 0.2432(16) 0.7325(13)
C21_4 C 1.0000 0.3010(12) 0.7865(14)
H8_2 H 0.9601 0.2972 0.8144
C23_4 C 1.0000 0.366(2) 0.752(5)
C28_2 C 0.9408(9) 0.2136(9) 0.7067(10)
C33_2 C 0.9400(7) 0.1724(10) 0.6582(9)
H13_2 H 0.8998 0.1634 0.6357
C36_4 C 1.0000 0.1411(13) 0.6395(11)
C38_4 C 1.0000 0.0877(16) 0.5859(11)
C42_2 C 0.8723(7) 0.2397(8) 0.7311(8)
H31_2 H 0.955831 0.369702 0.721629
H32_4 H 1 0.406155 0.787499
H28_3 H 0.966301 0.303958 0.0313868
C1_4 C 1.0000 0.7568(16) 0.7325(13)
C4_4 C 1.0000 0.6990(12) 0.7865(14)
C6_4 C 1.0000 0.634(2) 0.752(5)
C13_4 C 1.0000 0.8589(13) 0.6395(11)
C14_4 C 1.0000 0.9123(16) 0.5859(11)
O10_2 O 0.8311(7) 0.7395(5) 0.6843(5)
O25_2 O 0.7348(6) 0.8297(7) 0.6829(5)
O28_2 O 0.7457(8) 0.6397(7) 0.7187(8)
O35_2 O 0.8586(6) 0.7653(6) 0.7848(6)
O43_2 O 0.7219(10) 0.7104(14) 0.5872(8)
H6_2 H 0.9601 0.7028 0.8144
C26_2 C 0.9408(9) 0.7864(9) 0.7067(10)
C31_2 C 0.9400(7) 0.8276(10) 0.6582(9)
H11_2 H 0.8998 0.8366 0.6357
C40_2 C 0.8723(7) 0.7603(8) 0.7311(8)
H25_4 H 1 0.593845 0.787499
H26_2 H 0.955831 0.630298 0.721629
H28_4 H 0.033699 0.696042 0.0313868
H27_4 H 0.955395 0.696042 0.0128877
O3_4 O 0.7652(6) 0.3297(7) 0.8171(5)
C2_4 C 0.7851(11) 0.4393(8) 0.7949(8)
C3_4 C 0.8338(16) 0.4384(7) 0.8410(11)
H1_4 H 0.8520 0.3976 0.8558
C5_4 C 0.9129(11) 0.5000 0.9127(15)
C7_4 C 0.642(2) 0.5000 0.784(2)
C8_4 C 0.7636(9) 0.3707(9) 0.7783(9)
C10_4 C 0.7539(11) 0.5000 0.7735(13)
C11_4 C 0.8568(13) 0.5000 0.8663(15)
C16_4 C 0.6977(12) 0.5000 0.7308(18)
H4_4 H 0.6961 0.4598 0.7032
O13_4 O 0.6689(7) 0.2395(5) 0.8157(5)
O14_4 O 0.3311(7) 0.2395(5) 0.8157(5)
O20_4 O 0.5548(8) 0.4327(8) 0.9316(6)
O21_4 O 0.4452(8) 0.4327(8) 0.9316(6)
O24_4 O 0.7652(6) 0.6703(7) 0.8171(5)
C18_4 C 0.5000 0.2568(16) 0.7675(13)
C19_4 C 0.7851(11) 0.5607(8) 0.7949(8)
C20_4 C 0.8338(16) 0.5616(7) 0.8410(11)
H5_4 H 0.8520 0.6024 0.8558
C22_4 C 0.5000 0.1990(12) 0.7135(14)
H9_4 H 0.4601 0.2028 0.6856
H10_4 H 0.5399 0.2028 0.6856
C24_4 C 0.5000 0.134(2) 0.748(5)
C25_4 C 0.7636(9) 0.6293(9) 0.7783(9)
C29_4 C 0.5592(9) 0.2864(9) 0.7933(10)
C30_4 C 0.4408(9) 0.2864(9) 0.7933(10)
C34_4 C 0.5600(7) 0.3276(10) 0.8418(9)
C35_4 C 0.4400(7) 0.3276(10) 0.8418(9)
H14_4 H 0.6002 0.3366 0.8643
H15_4 H 0.3998 0.3366 0.8643
C37_4 C 0.5000 0.3589(13) 0.8605(11)
C39_4 C 0.5000 0.4123(16) 0.9141(11)
C43_4 C 0.6277(7) 0.2603(8) 0.7689(8)
C44_4 C 0.3723(7) 0.2603(8) 0.7689(8)
H16_4 H 0.6961 0.5402 0.7032
H19_4 H 0.646896 0.544169 0.814208
H20_4 H 0.593482 0.5 0.760572
H21_4 H 0.646896 0.455831 0.814208
H34_4 H 0.455831 0.130298 0.778371
H35_4 H 0.5 0.0938451 0.712501
H36_4 H 0.544169 0.130298 0.778371
Cu3_5 Cu 0.5000 0.0656(2) 0.5000
O5_3 O 0.5685(10) 0.0580(6) 0.5638(7)
O7_9 O 0.5000 0.1796(14) 0.5000
C5_5 C 0.5871(11) -0.0000 0.5873(15)
C7_5 C 0.858(2) -0.0000 0.716(2)
C10_5 C 0.7461(11) -0.0000 0.7265(13)
C11_5 C 0.6432(13) -0.0000 0.6337(15)
C16_5 C 0.8023(12) -0.0000 0.7692(18)
O27_2 O 0.7543(8) 0.1397(7) 0.7813(8)
O32_3 O 0.5685(10) 0.0580(6) 0.4362(7)
O33_2 O 0.4315(10) 0.0580(6) 0.5638(7)
O34_3 O 0.4315(10) 0.0580(6) 0.4362(7)
C19_5 C 0.7149(11) 0.0607(8) 0.7051(8)
C20_5 C 0.6662(16) 0.0616(7) 0.6590(11)
H5_5 H 0.6480 0.1024 0.6442
C25_5 C 0.7364(9) 0.1293(9) 0.7217(9)
H16_5 H 0.8039 0.0402 0.7968
H19_5 H 0.853104 0.0441687 0.685792
H20_5 H 0.906518 -5.55112e-17 0.739428
O6_5 O 0.3268(11) 0.5000 0.0000
O4_3 O 0.7543(8) 0.8603(7) 0.7813(8)
O6_6 O 0.3268(11) 0.5000 1.0000
O9_3 O 0.7781(10) 0.7896(14) 0.9128(8)
C2_5 C 0.7149(11) 0.9393(8) 0.7051(8)
C3_5 C 0.6662(16) 0.9384(7) 0.6590(11)
H1_5 H 0.6480 0.8976 0.6442
C5_6 C 0.5871(11) 1.0000 0.5873(15)
C7_6 C 0.858(2) 1.0000 0.716(2)
C8_5 C 0.7364(9) 0.8707(9) 0.7217(9)
C10_6 C 0.7461(11) 1.0000 0.7265(13)
C11_6 C 0.6432(13) 1.0000 0.6337(15)
C16_6 C 0.8023(12) 1.0000 0.7692(18)
H4_5 H 0.8039 0.9598 0.7968
Cu18_5 Cu 0.5000 0.9344(2) 0.5000
O28_3 O 0.2457(8) 0.8603(7) 0.7813(8)
O30_3 O 0.2457(8) 0.1397(7) 0.7813(8)
O31_2 O 0.5685(10) 0.9420(6) 0.5638(7)
O43_3 O 0.2219(10) 0.7896(14) 0.9128(8)
O44_3 O 0.7781(10) 0.2104(14) 0.9128(8)
O45_3 O 0.2219(10) 0.2104(14) 0.9128(8)
H20_6 H 0.906518 1 0.739428
H21_5 H 0.853104 0.955831 0.685792
O6_7 O 0.6732(11) 0.5000 0.0000
O6_8 O 0.6732(11) 0.5000 1.0000
C2_6 C 0.2851(11) 0.0607(8) 0.7051(8)
C3_6 C 0.3338(16) 0.0616(7) 0.6590(11)
H1_6 H 0.3520 0.1024 0.6442
C5_7 C 0.4129(11) 0.0000 0.5873(15)
C7_7 C 0.142(2) 0.0000 0.716(2)
C8_6 C 0.2636(9) 0.1293(9) 0.7217(9)
C10_7 C 0.2539(11) 0.0000 0.7265(13)
C11_7 C 0.3568(13) 0.0000 0.6337(15)
C16_7 C 0.1977(12) 0.0000 0.7692(18)
H4_6 H 0.1961 0.0402 0.7968
H20_7 H 0.0934817 5.55112e-17 0.739428
H21_6 H 0.146896 0.0441687 0.685792
O5_4 O 0.4315(10) 0.9420(6) 0.5638(7)
O7_10 O 0.5000 0.8204(14) 0.5000
C5_8 C 0.4129(11) 1.0000 0.5873(15)
C7_8 C 0.142(2) 1.0000 0.716(2)
C10_8 C 0.2539(11) 1.0000 0.7265(13)
C11_8 C 0.3568(13) 1.0000 0.6337(15)
C16_8 C 0.1977(12) 1.0000 0.7692(18)
O32_4 O 0.4315(10) 0.9420(6) 0.4362(7)
O34_4 O 0.5685(10) 0.9420(6) 0.4362(7)
C19_6 C 0.2851(11) 0.9393(8) 0.7051(8)
C20_6 C 0.3338(16) 0.9384(7) 0.6590(11)
H5_6 H 0.3520 0.8976 0.6442
C25_6 C 0.2636(9) 0.8707(9) 0.7217(9)
H16_6 H 0.1961 0.9598 0.7968
H19_6 H 0.146896 0.955831 0.685792
H20_8 H 0.0934817 1 0.739428
O4_4 O 0.7543(8) 0.1397(7) 0.2187(8)
O9_4 O 0.7781(10) 0.2104(14) 0.0872(8)
C2_7 C 0.7149(11) 0.0607(8) 0.2949(8)
C3_7 C 0.6662(16) 0.0616(7) 0.3410(11)
H1_7 H 0.6480 0.1024 0.3558
C5_9 C 0.5871(11) 0.0000 0.4127(15)
C7_9 C 0.858(2) 0.0000 0.284(2)
C8_7 C 0.7364(9) 0.1293(9) 0.2783(9)
C10_9 C 0.7461(11) 0.0000 0.2735(13)
C11_9 C 0.6432(13) 0.0000 0.3663(15)
C16_9 C 0.8023(12) 0.0000 0.2308(18)
H4_7 H 0.8039 0.0402 0.2032
O28_4 O 0.2457(8) 0.1397(7) 0.2187(8)
O29_2 O 0.7543(8) 0.8603(7) 0.2187(8)
O30_4 O 0.2457(8) 0.8603(7) 0.2187(8)
O43_4 O 0.2219(10) 0.2104(14) 0.0872(8)
O44_4 O 0.7781(10) 0.7896(14) 0.0872(8)
O45_4 O 0.2219(10) 0.7896(14) 0.0872(8)
H20_9 H 0.906518 5.55112e-17 0.260572
H21_7 H 0.853104 0.0441687 0.314208
C5_10 C 0.5871(11) 1.0000 0.4127(15)
C7_10 C 0.858(2) 1.0000 0.284(2)
C10_10 C 0.7461(11) 1.0000 0.2735(13)
C11_10 C 0.6432(13) 1.0000 0.3663(15)
C16_10 C 0.8023(12) 1.0000 0.2308(18)
C19_7 C 0.7149(11) 0.9393(8) 0.2949(8)
C20_7 C 0.6662(16) 0.9384(7) 0.3410(11)
H5_7 H 0.6480 0.8976 0.3558
C25_7 C 0.7364(9) 0.8707(9) 0.2783(9)
H16_7 H 0.8039 0.9598 0.2032
H19_7 H 0.853104 0.955831 0.314208
H20_10 H 0.906518 1 0.260572
C5_11 C 0.4129(11) -0.0000 0.4127(15)
C7_11 C 0.142(2) -0.0000 0.284(2)
C10_11 C 0.2539(11) -0.0000 0.2735(13)
C11_11 C 0.3568(13) -0.0000 0.3663(15)
C16_11 C 0.1977(12) -0.0000 0.2308(18)
C19_8 C 0.2851(11) 0.0607(8) 0.2949(8)
C20_8 C 0.3338(16) 0.0616(7) 0.3410(11)
H5_8 H 0.3520 0.1024 0.3558
C25_8 C 0.2636(9) 0.1293(9) 0.2783(9)
H16_8 H 0.1961 0.0402 0.2032
H19_8 H 0.146896 0.0441687 0.314208
H20_11 H 0.0934817 -5.55112e-17 0.260572
C2_8 C 0.2851(11) 0.9393(8) 0.2949(8)
C3_8 C 0.3338(16) 0.9384(7) 0.3410(11)
H1_8 H 0.3520 0.8976 0.3558
C5_12 C 0.4129(11) 1.0000 0.4127(15)
C7_12 C 0.142(2) 1.0000 0.284(2)
C8_8 C 0.2636(9) 0.8707(9) 0.2783(9)
C10_12 C 0.2539(11) 1.0000 0.2735(13)
C11_12 C 0.3568(13) 1.0000 0.3663(15)
C16_12 C 0.1977(12) 1.0000 0.2308(18)
H4_8 H 0.1961 0.9598 0.2032
H20_12 H 0.0934817 1 0.260572
H21_8 H 0.146896 0.955831 0.314208
H28_5 H 0.033699 0.303958 0.0313868
H27_5 H 0.955395 0.303958 0.0128877
H27_6 H 0.0446049 0.696042 0.0128877
H28_6 H 0.966301 0.696042 0.0313868
H28_7 H 0.033699 0.696042 0.968613
H27_7 H 0.955395 0.696042 0.987112
H27_8 H 0.0446049 0.303958 0.987112
H28_8 H 0.966301 0.303958 0.968613
loop_
_geom_bond_atom_site_label_1
_geom_bond_atom_site_label_2
_geom_bond_site_symmetry_1
_geom_bond_site_symmetry_2
Cu1 O1 1_555 1_555
Cu3 O5 1_555 1_555
O1 C15 1_555 1_555
O3 C8 1_555 1_555
O4 Cu1 1_555 1_555
O5 C5 1_555 1_555
O7 Cu3 1_555 1_555
O8 C15 1_555 1_555
O9 Cu1 1_555 1_555
C1 C4 1_555 1_555
C2 C3 1_555 1_555
C3 H1 1_555 1_555
C4 H2 1_555 1_555
C5 C11 1_555 1_555
C6 C4 1_555 1_555
C7 C16 1_555 1_555
C8 O4 1_555 1_555
C9 C1 1_555 1_555
C10 C2 1_555 1_555
C11 C3 1_555 1_555
C12 C9 1_555 1_555
H3 C12 1_555 1_555
C13 C12 1_555 1_555
C14 C13 1_555 1_555
C15 C9 1_555 1_555
C16 C10 1_555 1_555
H4 C16 1_555 1_555
Cu7 Cu1 1_555 1_555
Cu11 Cu12 1_555 1_555
Cu12 O27 1_555 1_555
Cu13 Cu14 1_555 1_555
Cu14 O42 1_555 1_555
Cu16 Cu17 1_555 1_555
Cu17 O21 1_555 1_555
Cu18 Cu3 1_555 1_555
O13 Cu7 1_555 1_555
O14 Cu13 1_555 1_555
O15 C14 1_555 1_555
O20 Cu16 1_555 1_555
O21 C39 1_555 1_555
O23 Cu1 1_555 1_555
O24 Cu11 1_555 1_555
O27 C25 1_555 1_555
O31 C5 1_555 1_555
O38 Cu1 1_555 1_555
O42 C44 1_555 1_555
C18 C22 1_555 1_555
C19 C10 1_555 1_555
C20 C11 1_555 1_555
H5 C20 1_555 1_555
C22 H9 1_555 1_555
H10 C22 1_555 1_555
C24 C22 1_555 1_555
C25 O24 1_555 1_555
C29 C18 1_555 1_555
C30 C18 1_555 1_555
C34 C29 1_555 1_555
C35 C30 1_555 1_555
H14 C34 1_555 1_555
H15 C35 1_555 1_555
C37 C34 1_555 1_555
C39 O20 1_555 1_555
C43 O13 1_555 1_555
C44 O14 1_555 1_555
H16 C16 1_555 1_555
O3 Cu7 1_555 1_555
O8 Cu7 1_555 1_555
C2 C8 1_555 1_555
Cu15 O15 1_555 1_555
Cu18 O31 1_555 1_555
O38 C43 1_555 1_555
C19 C20 1_555 1_555
C19 C25 1_555 1_555
C29 C43 1_555 1_555
C30 C44 1_555 1_555
C35 C37 1_555 1_555
C37 C39 1_555 1_555
C7 H19 1_555 1_555
C7 H20 1_555 1_555
C7 H21 1_555 1_555
C6 H24 1_555 1_555
C6 H25 1_555 1_555
C24 H34 1_555 1_555
C24 H35 1_555 1_555
C24 H36 1_555 1_555
O7_2 Cu3_2 1_555 1_555
Cu16_2 Cu17_2 1_555 1_555
Cu18_2 Cu3_2 1_555 1_555
O32 Cu3_2 1_555 1_555
O7_2 H27 1_555 1_555
Cu11 O36 1_555 1_555
O11 Cu12 1_555 1_555
O17 Cu15_2 1_555 1_555
O22 Cu12 1_555 1_555
O36 C41 1_555 1_555
O40 Cu12 1_555 1_555
O44 Cu12 1_555 1_555
C17 C21 1_555 1_555
C21 H7 1_555 1_555
C23 C21 1_555 1_555
C27 C17 1_555 1_555
C32 C27 1_555 1_555
H12 C32 1_555 1_555
C36 C32 1_555 1_555
C41 O11 1_555 1_555
O17 C38 1_555 1_555
C27 C41 1_555 1_555
C36 C38 1_555 1_555
C23 H32 1_555 1_555
C23 H33 1_555 1_555
Cu2 O2 1_555 1_555
O2 C14_2 1_555 1_555
O6 Cu2 1_555 1_555
O7_3 Cu3_3 1_555 1_555
C1_2 C4_2 1_555 1_555
C6_2 C4_2 1_555 1_555
C14_2 C13_2 1_555 1_555
Cu13 O35 1_555 1_555
Cu18_3 Cu3_3 1_555 1_555
O10 Cu14 1_555 1_555
O19 Cu2 1_555 1_555
O25 Cu14 1_555 1_555
O28 Cu14 1_555 1_555
O33 Cu3_3 1_555 1_555
O35 C40 1_555 1_555
O43 Cu14 1_555 1_555
H6 C4_2 1_555 1_555
C26 C1_2 1_555 1_555
C31 C13_2 1_555 1_555
H11 C31 1_555 1_555
C40 O10 1_555 1_555
C26 C31 1_555 1_555
C26 C40 1_555 1_555
C6_2 H25_2 1_555 1_555
C6_2 H26 1_555 1_555
O7_4 Cu3_4 1_555 1_555
Cu18_4 Cu3_4 1_555 1_555
O34 Cu3_4 1_555 1_555
O7_4 H28 1_555 1_555
O6_2 Cu2_2 1_555 1_555
Cu6 Cu10 1_555 1_555
Cu10 O37 1_555 1_555
O12 Cu6 1_555 1_555
O16 Cu2_2 1_555 1_555
O18 Cu2_2 1_555 1_555
O26 Cu6 1_555 1_555
O30 Cu6 1_555 1_555
O37 C42 1_555 1_555
O41 Cu6 1_555 1_555
O45 Cu6 1_555 1_555
C17_2 C21_2 1_555 1_555
H8 C21_2 1_555 1_555
C23_2 C21_2 1_555 1_555
C28 C17_2 1_555 1_555
C33 C28 1_555 1_555
H13 C33 1_555 1_555
C38_2 O16 1_555 1_555
C42 O12 1_555 1_555
C28 C42 1_555 1_555
C33 C36_2 1_555 1_555
C36_2 C38_2 1_555 1_555
C23_2 H31 1_555 1_555
C23_2 H32_2 1_555 1_555
O6_3 Cu15 1_555 1_555
O18_2 Cu15 1_555 1_555
O6_4 Cu15_2 1_555 1_555
O7_5 Cu18 1_555 1_555
O19_2 Cu15_2 1_555 1_555
O7_6 Cu18_2 1_555 1_555
O34_2 Cu18_2 1_555 1_555
O7_6 H28_2 1_555 1_555
Cu18_3 O5_2 1_555 1_555
O3_2 C8_2 1_555 1_555
O5_2 C5_2 1_555 1_555
O7_7 Cu18_3 1_555 1_555
C2_2 C3_2 1_555 1_555
C3_2 H1_2 1_555 1_555
C5_2 C11_2 1_555 1_555
C7_2 C16_2 1_555 1_555
C8_2 O30 1_555 1_555
C10_2 C2_2 1_555 1_555
C11_2 C3_2 1_555 1_555
C16_2 C10_2 1_555 1_555
H4_2 C16_2 1_555 1_555
Cu16 O21_2 1_555 1_555
O13_2 Cu10 1_555 1_555
O14_2 Cu11 1_555 1_555
O20_2 Cu17 1_555 1_555
O21_2 C39_2 1_555 1_555
O24_2 Cu13 1_555 1_555
O28 C25_2 1_555 1_555
O33 C5_2 1_555 1_555
O40 C44_2 1_555 1_555
C18_2 C22_2 1_555 1_555
C19_2 C10_2 1_555 1_555
C20_2 C11_2 1_555 1_555
H5_2 C20_2 1_555 1_555
C22_2 H9_2 1_555 1_555
H10_2 C22_2 1_555 1_555
C24_2 C22_2 1_555 1_555
C25_2 O24_2 1_555 1_555
C29_2 C18_2 1_555 1_555
C30_2 C18_2 1_555 1_555
C34_2 C29_2 1_555 1_555
C35_2 C30_2 1_555 1_555
H14_2 C34_2 1_555 1_555
H15_2 C35_2 1_555 1_555
C37_2 C34_2 1_555 1_555
C39_2 O20_2 1_555 1_555
C43_2 O13_2 1_555 1_555
C44_2 O14_2 1_555 1_555
H16_2 C16_2 1_555 1_555
O3_2 Cu10 1_555 1_555
C2_2 C8_2 1_555 1_555
O41 C43_2 1_555 1_555
C19_2 C20_2 1_555 1_555
C19_2 C25_2 1_555 1_555
C29_2 C43_2 1_555 1_555
C30_2 C44_2 1_555 1_555
C35_2 C37_2 1_555 1_555
C37_2 C39_2 1_555 1_555
C7_2 H19_2 1_555 1_555
C7_2 H20_2 1_555 1_555
C7_2 H21_2 1_555 1_555
C24_2 H34_2 1_555 1_555
C24_2 H35_2 1_555 1_555
C24_2 H36_2 1_555 1_555
O7_8 Cu18_4 1_555 1_555
O32_2 Cu18_4 1_555 1_555
O7_8 H27_2 1_555 1_555
Cu5 Cu9 1_555 1_555
Cu9 O36_2 1_555 1_555
O11_2 Cu5 1_555 1_555
O22_2 Cu5 1_555 1_555
O29 Cu5 1_555 1_555
O36_2 C41_2 1_555 1_555
O40_2 Cu5 1_555 1_555
O44_2 Cu5 1_555 1_555
C17_3 C21_3 1_555 1_555
C21_3 H7_2 1_555 1_555
C23_3 C21_3 1_555 1_555
C27_2 C17_3 1_555 1_555
C32_2 C27_2 1_555 1_555
H12_2 C32_2 1_555 1_555
C36_3 C32_2 1_555 1_555
C41_2 O11_2 1_555 1_555
O18_2 C38_3 1_555 1_555
C27_2 C41_2 1_555 1_555
C36_3 C38_3 1_555 1_555
C23_3 H32_3 1_555 1_555
C23_3 H33_2 1_555 1_555
O7_5 H27_3 1_555 1_555
Cu1_2 O1_2 1_555 1_555
O1_2 C15_2 1_555 1_555
O3_3 C8_3 1_555 1_555
O4_2 Cu1_2 1_555 1_555
O34_2 C5_3 1_555 1_555
O8_2 C15_2 1_555 1_555
O9_2 Cu1_2 1_555 1_555
C1_3 C4_3 1_555 1_555
C2_3 C3_3 1_555 1_555
C3_3 H1_3 1_555 1_555
C4_3 H2_2 1_555 1_555
C5_3 C11_3 1_555 1_555
C6_3 C4_3 1_555 1_555
C7_3 C16_3 1_555 1_555
C8_3 O4_2 1_555 1_555
C9_2 C1_3 1_555 1_555
C10_3 C2_3 1_555 1_555
C11_3 C3_3 1_555 1_555
C12_2 C9_2 1_555 1_555
H3_2 C12_2 1_555 1_555
C13_3 C12_2 1_555 1_555
C14_3 C13_3 1_555 1_555
C15_2 C9_2 1_555 1_555
C16_3 C10_3 1_555 1_555
H4_3 C16_3 1_555 1_555
Cu7_2 Cu1_2 1_555 1_555
Cu13_2 Cu14_2 1_555 1_555
Cu14_2 O42_2 1_555 1_555
Cu17_2 O21_3 1_555 1_555
O13_3 Cu7_2 1_555 1_555
O14_3 Cu13_2 1_555 1_555
O19_2 C14_3 1_555 1_555
O20_3 Cu16_2 1_555 1_555
O21_3 C39_3 1_555 1_555
O23_2 Cu1_2 1_555 1_555
O24_3 Cu9 1_555 1_555
O29 C25_3 1_555 1_555
O32 C5_3 1_555 1_555
O38_2 Cu1_2 1_555 1_555
O42_2 C44_3 1_555 1_555
C18_3 C22_3 1_555 1_555
C19_3 C10_3 1_555 1_555
C20_3 C11_3 1_555 1_555
H5_3 C20_3 1_555 1_555
C22_3 H9_3 1_555 1_555
H10_3 C22_3 1_555 1_555
C24_3 C22_3 1_555 1_555
C25_3 O24_3 1_555 1_555
C29_3 C18_3 1_555 1_555
C30_3 C18_3 1_555 1_555
C34_3 C29_3 1_555 1_555
C35_3 C30_3 1_555 1_555
H14_3 C34_3 1_555 1_555
H15_3 C35_3 1_555 1_555
C37_3 C34_3 1_555 1_555
C39_3 O20_3 1_555 1_555
C43_3 O13_3 1_555 1_555
C44_3 O14_3 1_555 1_555
H16_3 C16_3 1_555 1_555
O3_3 Cu7_2 1_555 1_555
O8_2 Cu7_2 1_555 1_555
C2_3 C8_3 1_555 1_555
O38_2 C43_3 1_555 1_555
C19_3 C20_3 1_555 1_555
C19_3 C25_3 1_555 1_555
C29_3 C43_3 1_555 1_555
C30_3 C44_3 1_555 1_555
C35_3 C37_3 1_555 1_555
C37_3 C39_3 1_555 1_555
C7_3 H19_3 1_555 1_555
C7_3 H20_3 1_555 1_555
C7_3 H21_3 1_555 1_555
C6_3 H24_2 1_555 1_555
C6_3 H25_3 1_555 1_555
C24_3 H34_3 1_555 1_555
C24_3 H35_3 1_555 1_555
C24_3 H36_3 1_555 1_555
Cu6_2 Cu10_2 1_555 1_555
Cu10_2 O37_2 1_555 1_555
O12_2 Cu6_2 1_555 1_555
O26_2 Cu6_2 1_555 1_555
O30_2 Cu6_2 1_555 1_555
O37_2 C42_2 1_555 1_555
O41_2 Cu6_2 1_555 1_555
O45_2 Cu6_2 1_555 1_555
C17_4 C21_4 1_555 1_555
H8_2 C21_4 1_555 1_555
C23_4 C21_4 1_555 1_555
C28_2 C17_4 1_555 1_555
C33_2 C28_2 1_555 1_555
H13_2 C33_2 1_555 1_555
C38_4 O19 1_555 1_555
C42_2 O12_2 1_555 1_555
C28_2 C42_2 1_555 1_555
C33_2 C36_4 1_555 1_555
C36_4 C38_4 1_555 1_555
C23_4 H31_2 1_555 1_555
C23_4 H32_4 1_555 1_555
O7_7 H28_3 1_555 1_555
O18 C14_4 1_555 1_555
C1_4 C4_4 1_555 1_555
C6_4 C4_4 1_555 1_555
C14_4 C13_4 1_555 1_555
Cu13_2 O35_2 1_555 1_555
O10_2 Cu14_2 1_555 1_555
O25_2 Cu14_2 1_555 1_555
O28_2 Cu14_2 1_555 1_555
O35_2 C40_2 1_555 1_555
O43_2 Cu14_2 1_555 1_555
H6_2 C4_4 1_555 1_555
C26_2 C1_4 1_555 1_555
C31_2 C13_4 1_555 1_555
H11_2 C31_2 1_555 1_555
C40_2 O10_2 1_555 1_555
C26_2 C31_2 1_555 1_555
C26_2 C40_2 1_555 1_555
C6_4 H25_4 1_555 1_555
C6_4 H26_2 1_555 1_555
O7 H28_4 1_555 1_555
O7_3 H27_4 1_555 1_555
O3_4 C8_4 1_555 1_555
O34 C5_4 1_555 1_555
C2_4 C3_4 1_555 1_555
C3_4 H1_4 1_555 1_555
C5_4 C11_4 1_555 1_555
C7_4 C16_4 1_555 1_555
C8_4 O30_2 1_555 1_555
C10_4 C2_4 1_555 1_555
C11_4 C3_4 1_555 1_555
C16_4 C10_4 1_555 1_555
H4_4 C16_4 1_555 1_555
Cu16_2 O21_4 1_555 1_555
O13_4 Cu10_2 1_555 1_555
O14_4 Cu9 1_555 1_555
O20_4 Cu17_2 1_555 1_555
O21_4 C39_4 1_555 1_555
O24_4 Cu13_2 1_555 1_555
O28_2 C25_4 1_555 1_555
O32_2 C5_4 1_555 1_555
O40_2 C44_4 1_555 1_555
C18_4 C22_4 1_555 1_555
C19_4 C10_4 1_555 1_555
C20_4 C11_4 1_555 1_555
H5_4 C20_4 1_555 1_555
C22_4 H9_4 1_555 1_555
H10_4 C22_4 1_555 1_555
C24_4 C22_4 1_555 1_555
C25_4 O24_4 1_555 1_555
C29_4 C18_4 1_555 1_555
C30_4 C18_4 1_555 1_555
C34_4 C29_4 1_555 1_555
C35_4 C30_4 1_555 1_555
H14_4 C34_4 1_555 1_555
H15_4 C35_4 1_555 1_555
C37_4 C34_4 1_555 1_555
C39_4 O20_4 1_555 1_555
C43_4 O13_4 1_555 1_555
C44_4 O14_4 1_555 1_555
H16_4 C16_4 1_555 1_555
O3_4 Cu10_2 1_555 1_555
C2_4 C8_4 1_555 1_555
O41_2 C43_4 1_555 1_555
C19_4 C20_4 1_555 1_555
C19_4 C25_4 1_555 1_555
C29_4 C43_4 1_555 1_555
C30_4 C44_4 1_555 1_555
C35_4 C37_4 1_555 1_555
C37_4 C39_4 1_555 1_555
C7_4 H19_4 1_555 1_555
C7_4 H20_4 1_555 1_555
C7_4 H21_4 1_555 1_555
C24_4 H34_4 1_555 1_555
C24_4 H35_4 1_555 1_555
C24_4 H36_4 1_555 1_555
Cu3_5 O5_3 1_555 1_555
O5_3 C5_5 1_555 1_555
O7_9 Cu3_5 1_555 1_555
C5_5 C11_5 1_555 1_555
C7_5 C16_5 1_555 1_555
C16_5 C10_5 1_555 1_555
Cu10_2 O27_2 1_555 1_555
O27_2 C25_5 1_555 1_555
O32_3 Cu3_5 1_555 1_555
O33_2 Cu3_5 1_555 1_555
O34_3 Cu3_5 1_555 1_555
C19_5 C10_5 1_555 1_555
C20_5 C11_5 1_555 1_555
H5_5 C20_5 1_555 1_555
C25_5 O26_2 1_555 1_555
H16_5 C16_5 1_555 1_555
C19_5 C20_5 1_555 1_555
C19_5 C25_5 1_555 1_555
C7_5 H19_5 1_555 1_555
C7_5 H20_5 1_555 1_555
O6_5 Cu16 1_555 1_555
O25_2 C8_5 1_555 1_555
O4_3 Cu13_2 1_555 1_555
O6_6 Cu16_2 1_555 1_555
O9_3 Cu13_2 1_555 1_555
C2_5 C3_5 1_555 1_555
C3_5 H1_5 1_555 1_555
C5_6 C11_6 1_555 1_555
C7_6 C16_6 1_555 1_555
C8_5 O4_3 1_555 1_555
C10_6 C2_5 1_555 1_555
C11_6 C3_5 1_555 1_555
C16_6 C10_6 1_555 1_555
H4_5 C16_6 1_555 1_555
O28_3 Cu7_2 1_555 1_555
O30_3 Cu9 1_555 1_555
O31_2 C5_6 1_555 1_555
O43_3 Cu7_2 1_555 1_555
O44_3 Cu10_2 1_555 1_555
O45_3 Cu9 1_555 1_555
C2_5 C8_5 1_555 1_555
Cu18_5 O31_2 1_555 1_555
C7_6 H20_6 1_555 1_555
C7_6 H21_5 1_555 1_555
O6_7 Cu17 1_555 1_555
O22_2 C8_6 1_555 1_555
O6_8 Cu17_2 1_555 1_555
C2_6 C3_6 1_555 1_555
C3_6 H1_6 1_555 1_555
C5_7 C11_7 1_555 1_555
C7_7 C16_7 1_555 1_555
C8_6 O30_3 1_555 1_555
C10_7 C2_6 1_555 1_555
C11_7 C3_6 1_555 1_555
C16_7 C10_7 1_555 1_555
H4_6 C16_7 1_555 1_555
O33_2 C5_7 1_555 1_555
C2_6 C8_6 1_555 1_555
C7_7 H20_7 1_555 1_555
C7_7 H21_6 1_555 1_555
Cu18_5 O5_4 1_555 1_555
O5_4 C5_8 1_555 1_555
O7_10 Cu18_5 1_555 1_555
C5_8 C11_8 1_555 1_555
C7_8 C16_8 1_555 1_555
C16_8 C10_8 1_555 1_555
O28_3 C25_6 1_555 1_555
O32_4 Cu18_5 1_555 1_555
O34_4 Cu18_5 1_555 1_555
C19_6 C10_8 1_555 1_555
C20_6 C11_8 1_555 1_555
H5_6 C20_6 1_555 1_555
C25_6 O23_2 1_555 1_555
H16_6 C16_8 1_555 1_555
C19_6 C20_6 1_555 1_555
C19_6 C25_6 1_555 1_555
C7_8 H19_6 1_555 1_555
C7_8 H20_8 1_555 1_555
O25 C8_7 1_555 1_555
O4_4 Cu13 1_555 1_555
O9_4 Cu13 1_555 1_555
C2_7 C3_7 1_555 1_555
C3_7 H1_7 1_555 1_555
C5_9 C11_9 1_555 1_555
C7_9 C16_9 1_555 1_555
C8_7 O4_4 1_555 1_555
C10_9 C2_7 1_555 1_555
C11_9 C3_7 1_555 1_555
C16_9 C10_9 1_555 1_555
H4_7 C16_9 1_555 1_555
O28_4 Cu7 1_555 1_555
O29_2 Cu10 1_555 1_555
O30_4 Cu11 1_555 1_555
O32_3 C5_9 1_555 1_555
O43_4 Cu7 1_555 1_555
O44_4 Cu10 1_555 1_555
O45_4 Cu11 1_555 1_555
C2_7 C8_7 1_555 1_555
C7_9 H20_9 1_555 1_555
C7_9 H21_7 1_555 1_555
O34_4 C5_10 1_555 1_555
C5_10 C11_10 1_555 1_555
C7_10 C16_10 1_555 1_555
C16_10 C10_10 1_555 1_555
O29_2 C25_7 1_555 1_555
C19_7 C10_10 1_555 1_555
C20_7 C11_10 1_555 1_555
H5_7 C20_7 1_555 1_555
C25_7 O26 1_555 1_555
H16_7 C16_10 1_555 1_555
C19_7 C20_7 1_555 1_555
C19_7 C25_7 1_555 1_555
C7_10 H19_7 1_555 1_555
C7_10 H20_10 1_555 1_555
O34_3 C5_11 1_555 1_555
C5_11 C11_11 1_555 1_555
C7_11 C16_11 1_555 1_555
C16_11 C10_11 1_555 1_555
O28_4 C25_8 1_555 1_555
C19_8 C10_11 1_555 1_555
C20_8 C11_11 1_555 1_555
H5_8 C20_8 1_555 1_555
C25_8 O23 1_555 1_555
H16_8 C16_11 1_555 1_555
C19_8 C20_8 1_555 1_555
C19_8 C25_8 1_555 1_555
C7_11 H19_8 1_555 1_555
C7_11 H20_11 1_555 1_555
O22 C8_8 1_555 1_555
C2_8 C3_8 1_555 1_555
C3_8 H1_8 1_555 1_555
C5_12 C11_12 1_555 1_555
C7_12 C16_12 1_555 1_555
C8_8 O30_4 1_555 1_555
C10_12 C2_8 1_555 1_555
C11_12 C3_8 1_555 1_555
C16_12 C10_12 1_555 1_555
H4_8 C16_12 1_555 1_555
O32_4 C5_12 1_555 1_555
C2_8 C8_8 1_555 1_555
C7_12 H20_12 1_555 1_555
C7_12 H21_8 1_555 1_555
O7_5 H28_5 1_555 1_555
O7_7 H27_5 1_555 1_555
O7 H27_6 1_555 1_555
O7_3 H28_6 1_555 1_555
O7_2 H28_7 1_555 1_555
O7_4 H27_7 1_555 1_555
O7_6 H27_8 1_555 1_555
O7_8 H28_8 1_555 1_555

#END
