
###############################################################################
#
# This file contains modified crystal structure data generated from the
# MOF subset of the Cambridge Structural Database (CSD) v543 
# hosted by the Cambridge Crystallographic Data Centre (CCDC).
#
# This work is licensed under the Creative Commons
# Attribution-NonCommercial-ShareAlike 4.0 International License.
# To view a copy of this license, visit
# http://creativecommons.org/licenses/by-nc-sa/4.0/
# or send a letter to
# Creative Commons, PO Box 1866, Mountain View, CA 94042, USA.
#
# CIF created using the CSD Python API on 29 September 2022
# The structure has been converted into the P1 space group
# The structure has a 3D framework
# The original CSD entry LEBQUH is in the tetragonal crystal system
# The original CSD entry LEBQUH is in a Sohncke space group
# The framework has been calculated to contain at least 10.0% void space
# The void calculation uses a probe of radius 1.32A, grid spacing 0.4
#
###############################################################################

data_LEBQUH
_chemical_formula_moiety         '(C280 H264 N16 O68 Zn8)n'
_symmetry_cell_setting           triclinic
_symmetry_space_group_name_H-M   'P 1'
_symmetry_Int_Tables_number      1
_space_group_name_Hall           'P 1'
loop_
_symmetry_equiv_pos_site_id
_symmetry_equiv_pos_as_xyz
1 x,y,z
_cell_length_a                   25.876(4)
_cell_length_b                   25.876(4)
_cell_length_c                   16.283(3)
_cell_angle_alpha                90
_cell_angle_beta                 90
_cell_angle_gamma                90
_cell_volume                     10902.6
loop_
_atom_site_label
_atom_site_type_symbol
_atom_site_fract_x
_atom_site_fract_y
_atom_site_fract_z
H32 H 0.0191 0.7362 0.5495
Zn1 Zn 0.95053(3) 0.67345(3) 0.48200(3)
N1 N 0.63860(15) 0.70267(15) 0.2319(2)
C1 C 0.4520(2) 0.5975(2) 0.4809(3)
H1 H 0.4483 0.6123 0.4278
O1 O 0.3818(2) 0.49694(18) 0.6990(3)
C2 C 0.73335(19) 0.71046(17) 0.2486(2)
O2 O 0.89575(15) 0.70451(17) 0.4158(2)
C3 C 0.8205(2) 0.6845(2) 0.3409(3)
O4 O 0.87376(19) 0.62205(17) 0.4080(3)
N2 N 0.56856(17) 0.61532(17) 0.4227(2)
H2 H 0.5436 0.6063 0.3780
C4 C 0.8152(2) 0.7330(2) 0.3093(3)
H3 H 0.8413 0.7581 0.3187
C5 C 0.7808(2) 0.6482(2) 0.3266(3)
H4 H 0.7836 0.6144 0.3489
C6 C 0.73766(19) 0.66131(19) 0.2806(3)
H5 H 0.7112 0.6365 0.2711
C7 C 0.7712(2) 0.74602(19) 0.2630(2)
H6 H 0.7678 0.7800 0.2414
C8 C 0.60774(19) 0.65269(18) 0.3879(3)
H7 H 0.6339 0.6603 0.4306
H8 H 0.6258 0.6359 0.3413
O5 O 0.3366(2) 0.5046(2) 0.5870(3)
C9 C 0.4967(2) 0.6054(2) 0.5254(3)
C10 C 0.4181(2) 0.5461(2) 0.5915(3)
C11 C 0.4123(2) 0.5679(2) 0.5141(3)
H9 H 0.3814 0.5625 0.4839
C12 C 0.6864(2) 0.7246(2) 0.1973(3)
H10 H 0.6832 0.7627 0.1947
H11 H 0.6912 0.7116 0.1407
C13 C 0.5845(2) 0.7028(2) 0.3587(3)
H12 H 0.5750 0.7244 0.4065
H13 H 0.5527 0.6957 0.3269
C14 C 0.4631(3) 0.5545(3) 0.6359(3)
H14 H 0.4666 0.5401 0.6893
C15 C 0.6096(2) 0.6653(2) 0.1005(3)
C16 C 0.8655(2) 0.6685(3) 0.3918(3)
C17 C 0.6158(2) 0.6825(2) 0.0209(3)
H15 H 0.6117 0.7182 0.0094
C18 C 0.5390(2) 0.6403(2) 0.4908(3)
H16 H 0.5231 0.6726 0.4703
H17 H 0.5632 0.6495 0.5355
C19 C 0.6233(2) 0.7319(2) 0.3047(3)
H18 H 0.6079 0.7651 0.2873
H19 H 0.6545 0.7398 0.3376
C20 C 0.5028(2) 0.5837(3) 0.6028(3)
H20 H 0.5339 0.5888 0.6327
C21 C 0.3754(3) 0.5143(3) 0.6279(4)
C24 C 0.5975(2) 0.7014(2) 0.1698(3)
H22 H 0.5924 0.7366 0.1477
H23 H 0.5648 0.6904 0.1962
C25 C 0.6262(3) 0.4848(3) 0.2636(5)
H24 H 0.6079 0.4650 0.2240
C27 C 0.6241(2) 0.5390(2) 0.3850(4)
C28 C 0.6262(3) 0.5786(2) 0.0529(3)
H25 H 0.6290 0.5426 0.0641
C29 C 0.5991(3) 0.5108(3) 0.3284(4)
H26 H 0.5626 0.5079 0.3314
C30 C 0.6146(3) 0.6127(3) 0.1163(3)
H27 H 0.6101 0.6001 0.1706
C31 C 0.7040(3) 0.5182(3) 0.3173(5)
H28 H 0.7404 0.5219 0.3147
C32 C 0.6773(3) 0.5432(2) 0.3808(6)
H29 H 0.6956 0.5629 0.4206
C33 C 0.6802(3) 0.4893(3) 0.2599(5)
C34 C 0.5945(2) 0.5664(2) 0.4504(3)
H30 H 0.6183 0.5748 0.4960
H31 H 0.5678 0.5427 0.4721
C35 C 0.7083(4) 0.4633(3) 0.1904(7)
O7 O 0.6846(4) 0.4369(5) 0.1420(6)
O8 O 0.7561(3) 0.4668(3) 0.1907(6)
O9 O 0.9933(2) 0.7342(3) 0.5079(5)
H33 H 0.9926 0.7668 0.4817
Zn2 Zn 0.32655(3) 0.45053(3) 0.73200(3)
O10 O 0.99694(18) 0.6182(2) 0.4490(3)
O11 O 0.9179(2) 0.6546(2) 0.5866(3)
N1_2 N 0.29733(15) 0.13860(15) 0.4819(2)
C2_2 C 0.28954(17) 0.23335(19) 0.4986(2)
O2_2 O 0.29549(17) 0.39575(15) 0.6658(2)
O3 O 0.4179(2) 0.1546(2) 0.0866(3)
C3_2 C 0.3155(2) 0.3205(2) 0.5909(3)
O4_2 O 0.37795(17) 0.37376(19) 0.6580(3)
N2_2 N 0.38468(17) 0.06856(17) 0.6727(2)
H2_2 H 0.3937 0.0436 0.6280
C4_2 C 0.2670(2) 0.3152(2) 0.5593(3)
H3_2 H 0.2419 0.3413 0.5687
C5_2 C 0.3518(2) 0.2808(2) 0.5766(3)
H4_2 H 0.3856 0.2836 0.5989
C6_2 C 0.33869(19) 0.23766(19) 0.5306(3)
H5_2 H 0.3635 0.2112 0.5211
C7_2 C 0.25398(19) 0.2712(2) 0.5130(2)
H6_2 H 0.2200 0.2678 0.4914
C8_2 C 0.34731(18) 0.10774(19) 0.6379(3)
H7_2 H 0.3397 0.1339 0.6806
H8_2 H 0.3641 0.1258 0.5913
C12_2 C 0.2754(2) 0.1864(2) 0.4473(3)
H10_2 H 0.2373 0.1832 0.4447
H11_2 H 0.2884 0.1912 0.3907
C13_2 C 0.2972(2) 0.0845(2) 0.6087(3)
H12_2 H 0.2756 0.0750 0.6565
H13_2 H 0.3043 0.0527 0.5769
C15_2 C 0.3347(2) 0.1096(2) 0.3505(3)
C16_2 C 0.3315(3) 0.3655(2) 0.6418(3)
C17_2 C 0.3175(2) 0.1158(2) 0.2709(3)
H15_2 H 0.2818 0.1117 0.2594
C18_2 C 0.3597(2) 0.0390(2) 0.7408(3)
H16_2 H 0.3274 0.0231 0.7203
H17_2 H 0.3505 0.0632 0.7855
C19_2 C 0.2681(2) 0.1233(2) 0.5547(3)
H18_2 H 0.2349 0.1079 0.5373
H19_2 H 0.2602 0.1545 0.5876
C20_2 C 0.4163(3) 0.0028(2) 0.8528(3)
H20_2 H 0.4112 0.0339 0.8827
C22 C 0.3505(2) 0.1275(2) 0.2083(3)
H21 H 0.3374 0.1316 0.1542
C23 C 0.4033(2) 0.1336(2) 0.2228(3)
C24_2 C 0.2986(2) 0.0975(2) 0.4198(3)
H22_2 H 0.2634 0.0924 0.3977
H23_2 H 0.3096 0.0648 0.4462
C25_2 C 0.5152(3) 0.1262(3) 0.5136(5)
H24_2 H 0.5350 0.1079 0.4740
C26 C 0.4382(3) 0.1483(3) 0.1540(4)
C27_2 C 0.4610(2) 0.1241(2) 0.6350(4)
C28_2 C 0.4214(2) 0.1262(3) 0.3029(3)
H25_2 H 0.4574 0.1290 0.3141
O6 O 0.4852(2) 0.1533(4) 0.1657(4)
C29_2 C 0.4892(3) 0.0991(3) 0.5784(4)
H26_2 H 0.4921 0.0626 0.5814
C30_2 C 0.3873(3) 0.1146(3) 0.3663(3)
H27_2 H 0.3999 0.1101 0.4206
C31_2 C 0.4818(3) 0.2040(3) 0.5673(5)
H28_2 H 0.4781 0.2404 0.5647
C32_2 C 0.4568(2) 0.1773(3) 0.6308(6)
H29_2 H 0.4371 0.1956 0.6706
C33_2 C 0.5107(3) 0.1802(3) 0.5099(5)
C34_2 C 0.4336(2) 0.0945(2) 0.7004(3)
H30_2 H 0.4252 0.1183 0.7460
H31_2 H 0.4573 0.0678 0.7221
C35_2 C 0.5367(3) 0.2083(4) 0.4404(7)
O7_2 O 0.5631(5) 0.1846(4) 0.3920(6)
O8_2 O 0.5332(3) 0.2561(3) 0.4407(6)
O9_2 O 0.2658(3) 0.4933(2) 0.7579(5)
H32_2 H 0.2638 0.5191 0.7995
H33_2 H 0.2332 0.4926 0.7317
O11_2 O 0.3454(2) 0.4179(2) 0.8366(3)
C22_2 C 0.3725(2) 0.3505(2) 0.9583(3)
H21_2 H 0.3684 0.3374 0.9042
C23_2 C 0.3664(2) 0.4033(2) 0.9728(3)
C26_2 C 0.3517(3) 0.4382(3) 0.9040(4)
O6_2 O 0.3467(4) 0.4852(2) 0.9157(4)
H17_3 H 0.0632 0.1495 0.0355
C20_3 C 0.0028(2) 0.0837(3) 0.1028(3)
H20_3 H 0.0339 0.0888 0.1327
O9_3 O 0.4933(2) 0.2342(3) 0.0079(5)
H32_3 H 0.5191 0.2362 0.0495
N1_3 N 0.79733(15) 0.63860(15) 0.9819(2)
C2_3 C 0.78954(17) 0.73335(19) 0.9986(2)
H6_3 H 0.7200 0.7678 0.9914
C12_3 C 0.7754(2) 0.6864(2) 0.9473(3)
H10_3 H 0.7373 0.6832 0.9447
H11_3 H 0.7884 0.6912 0.8907
C15_3 C 0.8347(2) 0.6096(2) 0.8505(3)
C17_3 C 0.8175(2) 0.6158(2) 0.7709(3)
H15_3 H 0.7818 0.6117 0.7594
C22_3 C 0.8505(2) 0.6275(2) 0.7083(3)
H21_3 H 0.8374 0.6316 0.6542
C23_3 C 0.9033(2) 0.6336(2) 0.7228(3)
C24_3 C 0.7986(2) 0.5975(2) 0.9198(3)
H22_3 H 0.7634 0.5924 0.8977
H23_3 H 0.8096 0.5648 0.9462
C26_3 C 0.9382(3) 0.6483(3) 0.6540(4)
C28_3 C 0.9214(2) 0.6262(3) 0.8029(3)
H25_3 H 0.9574 0.6290 0.8141
O6_3 O 0.9852(2) 0.6533(4) 0.6657(4)
C30_3 C 0.8873(3) 0.6146(3) 0.8663(3)
H27_3 H 0.8999 0.6101 0.9206
C25_3 C 0.9848(3) 0.3738(3) 0.0136(5)
C33_3 C 0.9893(3) 0.3198(3) 0.0099(5)
O3_2 O 0.6546(2) 0.5821(2) 0.8366(3)
C22_4 C 0.6275(2) 0.6495(2) 0.9583(3)
H21_4 H 0.6316 0.6626 0.9042
C23_4 C 0.6336(2) 0.5967(2) 0.9728(3)
C26_4 C 0.6483(3) 0.5618(3) 0.9040(4)
O6_4 O 0.6533(4) 0.5148(2) 0.9157(4)
Zn3 Zn 0.67345(3) 0.54947(3) 0.73200(3)
Zn1_2 Zn 0.04947(3) 0.32655(3) 0.48200(3)
N1_4 N 0.36140(15) 0.29733(15) 0.2319(2)
C1_2 C 0.5480(2) 0.4025(2) 0.4809(3)
H1_2 H 0.5517 0.3877 0.4278
O1_2 O 0.6182(2) 0.50306(18) 0.6990(3)
C2_4 C 0.26665(19) 0.28954(17) 0.2486(2)
O2_3 O 0.10425(15) 0.29549(17) 0.4158(2)
C3_3 C 0.1795(2) 0.3155(2) 0.3409(3)
O4_3 O 0.12624(19) 0.37795(17) 0.4080(3)
N2_3 N 0.43144(17) 0.38468(17) 0.4227(2)
H2_3 H 0.4564 0.3937 0.3780
C4_3 C 0.1848(2) 0.2670(2) 0.3093(3)
H3_3 H 0.1587 0.2419 0.3187
C5_3 C 0.2192(2) 0.3518(2) 0.3266(3)
H4_3 H 0.2164 0.3856 0.3489
C6_3 C 0.26234(19) 0.33869(19) 0.2806(3)
H5_3 H 0.2888 0.3635 0.2711
C7_3 C 0.2288(2) 0.25398(19) 0.2630(2)
H6_4 H 0.2322 0.2200 0.2414
C8_3 C 0.39226(19) 0.34731(18) 0.3879(3)
H7_3 H 0.3661 0.3397 0.4306
H8_3 H 0.3742 0.3641 0.3413
O5_2 O 0.6634(2) 0.4954(2) 0.5870(3)
C9_2 C 0.5033(2) 0.3946(2) 0.5254(3)
C10_2 C 0.5819(2) 0.4539(2) 0.5915(3)
C11_2 C 0.5877(2) 0.4321(2) 0.5141(3)
H9_2 H 0.6186 0.4375 0.4839
C12_4 C 0.3136(2) 0.2754(2) 0.1973(3)
H10_4 H 0.3168 0.2373 0.1947
H11_4 H 0.3088 0.2884 0.1407
C13_3 C 0.4155(2) 0.2972(2) 0.3587(3)
H12_3 H 0.4250 0.2756 0.4065
H13_3 H 0.4473 0.3043 0.3269
C14_2 C 0.5369(3) 0.4455(3) 0.6359(3)
H14_2 H 0.5334 0.4599 0.6893
C15_4 C 0.3904(2) 0.3347(2) 0.1005(3)
C16_3 C 0.1345(2) 0.3315(3) 0.3918(3)
C17_4 C 0.3842(2) 0.3175(2) 0.0209(3)
H15_4 H 0.3883 0.2818 0.0094
C18_3 C 0.4610(2) 0.3597(2) 0.4908(3)
H16_3 H 0.4769 0.3274 0.4703
H17_4 H 0.4368 0.3505 0.5355
C19_3 C 0.3767(2) 0.2681(2) 0.3047(3)
H18_3 H 0.3921 0.2349 0.2873
H19_3 H 0.3455 0.2602 0.3376
C20_4 C 0.4972(2) 0.4163(3) 0.6028(3)
H20_4 H 0.4661 0.4112 0.6327
C21_2 C 0.6246(3) 0.4857(3) 0.6279(4)
C24_4 C 0.4025(2) 0.2986(2) 0.1698(3)
H22_4 H 0.4076 0.2634 0.1477
H23_4 H 0.4352 0.3096 0.1962
C25_4 C 0.3738(3) 0.5152(3) 0.2636(5)
H24_3 H 0.3921 0.5350 0.2240
C27_3 C 0.3759(2) 0.4610(2) 0.3850(4)
C28_4 C 0.3738(3) 0.4214(2) 0.0529(3)
H25_4 H 0.3710 0.4574 0.0641
C29_3 C 0.4009(3) 0.4892(3) 0.3284(4)
H26_3 H 0.4374 0.4921 0.3314
C30_4 C 0.3854(3) 0.3873(3) 0.1163(3)
H27_4 H 0.3899 0.3999 0.1706
C31_3 C 0.2960(3) 0.4818(3) 0.3173(5)
H28_3 H 0.2596 0.4781 0.3147
C32_3 C 0.3227(3) 0.4568(2) 0.3808(6)
H29_3 H 0.3044 0.4371 0.4206
C33_4 C 0.3198(3) 0.5107(3) 0.2599(5)
C34_3 C 0.4055(2) 0.4336(2) 0.4504(3)
H30_3 H 0.3817 0.4252 0.4960
H31_3 H 0.4322 0.4573 0.4721
C35_3 C 0.2917(4) 0.5367(3) 0.1904(7)
O7_3 O 0.3154(4) 0.5631(5) 0.1420(6)
O8_3 O 0.2439(3) 0.5332(3) 0.1907(6)
O9_4 O 0.0067(2) 0.2658(3) 0.5079(5)
H33_3 H 0.0074 0.2332 0.4817
O10_2 O 0.00306(18) 0.3818(2) 0.4490(3)
O11_3 O 0.0821(2) 0.3454(2) 0.5866(3)
N1_5 N 0.70267(15) 0.86140(15) 0.4819(2)
C2_5 C 0.71046(17) 0.76665(19) 0.4986(2)
O2_4 O 0.70451(17) 0.60425(15) 0.6658(2)
O3_3 O 0.5821(2) 0.8454(2) 0.0866(3)
C3_4 C 0.6845(2) 0.6795(2) 0.5909(3)
O4_4 O 0.62205(17) 0.62624(19) 0.6580(3)
N2_4 N 0.61532(17) 0.93144(17) 0.6727(2)
H2_4 H 0.6063 0.9564 0.6280
C4_4 C 0.7330(2) 0.6848(2) 0.5593(3)
H3_4 H 0.7581 0.6587 0.5687
C5_4 C 0.6482(2) 0.7192(2) 0.5766(3)
H4_4 H 0.6144 0.7164 0.5989
C6_4 C 0.66131(19) 0.76234(19) 0.5306(3)
H5_4 H 0.6365 0.7888 0.5211
C7_4 C 0.74602(19) 0.7288(2) 0.5130(2)
H6_5 H 0.7800 0.7322 0.4914
C8_4 C 0.65269(18) 0.89226(19) 0.6379(3)
H7_4 H 0.6603 0.8661 0.6806
H8_4 H 0.6359 0.8742 0.5913
C12_5 C 0.7246(2) 0.8136(2) 0.4473(3)
H10_5 H 0.7627 0.8168 0.4447
H11_5 H 0.7116 0.8088 0.3907
C13_4 C 0.7028(2) 0.9155(2) 0.6087(3)
H12_4 H 0.7244 0.9250 0.6565
H13_4 H 0.6957 0.9473 0.5769
C15_5 C 0.6653(2) 0.8904(2) 0.3505(3)
C16_4 C 0.6685(3) 0.6345(2) 0.6418(3)
C17_5 C 0.6825(2) 0.8842(2) 0.2709(3)
H15_5 H 0.7182 0.8883 0.2594
C18_4 C 0.6403(2) 0.9610(2) 0.7408(3)
H16_4 H 0.6726 0.9769 0.7203
H17_5 H 0.6495 0.9368 0.7855
C19_4 C 0.7319(2) 0.8767(2) 0.5547(3)
H18_4 H 0.7651 0.8921 0.5373
H19_4 H 0.7398 0.8455 0.5876
C20_5 C 0.5837(3) 0.9972(2) 0.8528(3)
H20_5 H 0.5888 0.9661 0.8827
C22_5 C 0.6495(2) 0.8725(2) 0.2083(3)
H21_5 H 0.6626 0.8684 0.1542
C23_5 C 0.5967(2) 0.8664(2) 0.2228(3)
C24_5 C 0.7014(2) 0.9025(2) 0.4198(3)
H22_5 H 0.7366 0.9076 0.3977
H23_5 H 0.6904 0.9352 0.4462
C25_5 C 0.4848(3) 0.8738(3) 0.5136(5)
H24_4 H 0.4650 0.8921 0.4740
C26_5 C 0.5618(3) 0.8517(3) 0.1540(4)
C27_4 C 0.5390(2) 0.8759(2) 0.6350(4)
C28_5 C 0.5786(2) 0.8738(3) 0.3029(3)
H25_5 H 0.5426 0.8710 0.3141
O6_5 O 0.5148(2) 0.8467(4) 0.1657(4)
C29_4 C 0.5108(3) 0.9009(3) 0.5784(4)
H26_4 H 0.5079 0.9374 0.5814
C30_5 C 0.6127(3) 0.8854(3) 0.3663(3)
H27_5 H 0.6001 0.8899 0.4206
C31_4 C 0.5182(3) 0.7960(3) 0.5673(5)
H28_4 H 0.5219 0.7596 0.5647
C32_4 C 0.5432(2) 0.8227(3) 0.6308(6)
H29_4 H 0.5629 0.8044 0.6706
C33_5 C 0.4893(3) 0.8198(3) 0.5099(5)
C34_4 C 0.5664(2) 0.9055(2) 0.7004(3)
H30_4 H 0.5748 0.8817 0.7460
H31_4 H 0.5427 0.9322 0.7221
C35_4 C 0.4633(3) 0.7917(4) 0.4404(7)
O7_4 O 0.4369(5) 0.8154(4) 0.3920(6)
O8_4 O 0.4668(3) 0.7439(3) 0.4407(6)
O9_5 O 0.7342(3) 0.5067(2) 0.7579(5)
H32_4 H 0.7362 0.4809 0.7995
H33_4 H 0.7668 0.5074 0.7317
C25_6 C 0.0152(3) 0.6262(3) 0.0136(5)
C33_6 C 0.0107(3) 0.6802(3) 0.0099(5)
H17_6 H 0.9368 0.8505 0.0355
C20_6 C 0.9972(2) 0.9163(3) 0.1028(3)
H20_6 H 0.9661 0.9112 0.1327
O9_6 O 0.5067(2) 0.7658(3) 0.0079(5)
H32_5 H 0.4809 0.7638 0.0495
N1_6 N 0.20267(15) 0.36140(15) 0.9819(2)
C2_6 C 0.21046(17) 0.26665(19) 0.9986(2)
H6_6 H 0.2800 0.2322 0.9914
C12_6 C 0.2246(2) 0.3136(2) 0.9473(3)
H10_6 H 0.2627 0.3168 0.9447
H11_6 H 0.2116 0.3088 0.8907
C15_6 C 0.1653(2) 0.3904(2) 0.8505(3)
C17_6 C 0.1825(2) 0.3842(2) 0.7709(3)
H15_6 H 0.2182 0.3883 0.7594
C22_6 C 0.1495(2) 0.3725(2) 0.7083(3)
H21_6 H 0.1626 0.3684 0.6542
C23_6 C 0.0967(2) 0.3664(2) 0.7228(3)
C24_6 C 0.2014(2) 0.4025(2) 0.9198(3)
H22_6 H 0.2366 0.4076 0.8977
H23_6 H 0.1904 0.4352 0.9462
C26_6 C 0.0618(3) 0.3517(3) 0.6540(4)
C28_6 C 0.0786(2) 0.3738(3) 0.8029(3)
H25_6 H 0.0426 0.3710 0.8141
O6_6 O 0.0148(2) 0.3467(4) 0.6657(4)
C30_6 C 0.1127(3) 0.3854(3) 0.8663(3)
H27_6 H 0.1001 0.3899 0.9206
Zn3_2 Zn 0.45053(3) 0.17345(3) 0.98200(3)
C1_3 C 0.5975(2) 0.0480(2) 0.7309(3)
H1_3 H 0.6123 0.0517 0.6778
O1_3 O 0.49694(18) 0.1182(2) 0.9490(3)
O5_3 O 0.5046(2) 0.1634(2) 0.8370(3)
C9_3 C 0.6054(2) 0.0033(2) 0.7754(3)
C10_3 C 0.5461(2) 0.0819(2) 0.8415(3)
C11_3 C 0.5679(2) 0.0877(2) 0.7641(3)
H9_3 H 0.5625 0.1186 0.7339
C14_3 C 0.5545(3) 0.0369(3) 0.8859(3)
H14_3 H 0.5401 0.0334 0.9393
C21_3 C 0.5143(3) 0.1246(3) 0.8779(4)
N1_7 N 0.13860(15) 0.20267(15) 0.7319(2)
C2_7 C 0.23335(19) 0.21046(17) 0.7486(2)
O2_5 O 0.39575(15) 0.20451(17) 0.9158(2)
O3_4 O 0.1546(2) 0.0821(2) 0.3366(3)
C3_5 C 0.3205(2) 0.1845(2) 0.8409(3)
O4_5 O 0.37376(19) 0.12205(17) 0.9080(3)
N2_5 N 0.06856(17) 0.11532(17) 0.9227(2)
H2_5 H 0.0436 0.1063 0.8780
C4_5 C 0.3152(2) 0.2330(2) 0.8093(3)
H3_5 H 0.3413 0.2581 0.8187
C5_5 C 0.2808(2) 0.1482(2) 0.8266(3)
H4_5 H 0.2836 0.1144 0.8489
C6_5 C 0.23766(19) 0.16131(19) 0.7806(3)
H5_5 H 0.2112 0.1365 0.7711
C7_5 C 0.2712(2) 0.24602(19) 0.7630(2)
H6_7 H 0.2678 0.2800 0.7414
C8_5 C 0.10774(19) 0.15269(18) 0.8879(3)
H7_5 H 0.1339 0.1603 0.9306
H8_5 H 0.1258 0.1359 0.8413
C12_7 C 0.1864(2) 0.2246(2) 0.6973(3)
H10_7 H 0.1832 0.2627 0.6947
H11_7 H 0.1912 0.2116 0.6407
C13_5 C 0.0845(2) 0.2028(2) 0.8587(3)
H12_5 H 0.0750 0.2244 0.9065
H13_5 H 0.0527 0.1957 0.8269
C15_7 C 0.1096(2) 0.1653(2) 0.6005(3)
C16_5 C 0.3655(2) 0.1685(3) 0.8918(3)
C17_7 C 0.1158(2) 0.1825(2) 0.5209(3)
H15_7 H 0.1117 0.2182 0.5094
C18_5 C 0.0390(2) 0.1403(2) 0.9908(3)
H16_5 H 0.0231 0.1726 0.9703
C19_5 C 0.1233(2) 0.2319(2) 0.8047(3)
H18_5 H 0.1079 0.2651 0.7873
H19_5 H 0.1545 0.2398 0.8376
C22_7 C 0.1275(2) 0.1495(2) 0.4583(3)
H21_7 H 0.1316 0.1626 0.4042
C23_7 C 0.1336(2) 0.0967(2) 0.4728(3)
C24_7 C 0.0975(2) 0.2014(2) 0.6698(3)
H22_7 H 0.0924 0.2366 0.6477
H23_7 H 0.0648 0.1904 0.6962
C26_7 C 0.1483(3) 0.0618(3) 0.4040(4)
C27_5 C 0.1241(2) 0.0390(2) 0.8850(4)
C28_7 C 0.1262(3) 0.0786(2) 0.5529(3)
H25_7 H 0.1290 0.0426 0.5641
O6_7 O 0.1533(4) 0.0148(2) 0.4157(4)
C29_5 C 0.0991(3) 0.0108(3) 0.8284(4)
H26_5 H 0.0626 0.0079 0.8314
C30_7 C 0.1146(3) 0.1127(3) 0.6163(3)
H27_7 H 0.1101 0.1001 0.6706
C31_5 C 0.2040(3) 0.0182(3) 0.8173(5)
H28_5 H 0.2404 0.0219 0.8147
C32_5 C 0.1773(3) 0.0432(2) 0.8808(6)
H29_5 H 0.1956 0.0629 0.9206
C34_5 C 0.0945(2) 0.0664(2) 0.9504(3)
H30_5 H 0.1183 0.0748 0.9960
H31_5 H 0.0678 0.0427 0.9721
H33_5 H 0.4926 0.2668 0.9817
Zn3_3 Zn 0.17345(3) 0.04947(3) 0.23200(3)
O1_4 O 0.1182(2) 0.00306(18) 0.1990(3)
C1_4 C 0.0975(2) 0.5480(2) 0.2309(3)
H1_4 H 0.1123 0.5517 0.1778
O2_6 O 0.20451(17) 0.10425(15) 0.1658(2)
C3_6 C 0.1845(2) 0.1795(2) 0.0909(3)
O4_6 O 0.12205(17) 0.12624(19) 0.1580(3)
N2_6 N 0.11532(17) 0.43144(17) 0.1727(2)
H2_6 H 0.1063 0.4564 0.1280
C4_6 C 0.2330(2) 0.1848(2) 0.0593(3)
H3_6 H 0.2581 0.1587 0.0687
C5_6 C 0.1482(2) 0.2192(2) 0.0766(3)
H4_6 H 0.1144 0.2164 0.0989
C6_6 C 0.16131(19) 0.26234(19) 0.0306(3)
H5_6 H 0.1365 0.2888 0.0211
C7_6 C 0.24602(19) 0.2288(2) 0.0130(2)
C8_6 C 0.15269(18) 0.39226(19) 0.1379(3)
H7_6 H 0.1603 0.3661 0.1806
H8_6 H 0.1359 0.3742 0.0913
O5_4 O 0.0046(2) 0.6634(2) 0.3370(3)
C9_4 C 0.1054(2) 0.5033(2) 0.2754(3)
C10_4 C 0.0461(2) 0.5819(2) 0.3415(3)
C11_4 C 0.0679(2) 0.5877(2) 0.2641(3)
H9_4 H 0.0625 0.6186 0.2339
C13_6 C 0.2028(2) 0.4155(2) 0.1087(3)
H12_6 H 0.2244 0.4250 0.1565
H13_6 H 0.1957 0.4473 0.0769
C14_4 C 0.0545(3) 0.5369(3) 0.3859(3)
H14_4 H 0.0401 0.5334 0.4393
C16_6 C 0.1685(3) 0.1345(2) 0.1418(3)
C18_6 C 0.1403(2) 0.4610(2) 0.2408(3)
H16_6 H 0.1726 0.4769 0.2203
H17_7 H 0.1495 0.4368 0.2855
C19_6 C 0.2319(2) 0.3767(2) 0.0547(3)
H18_6 H 0.2651 0.3921 0.0373
H19_6 H 0.2398 0.3455 0.0876
C20_7 C 0.0837(3) 0.4972(2) 0.3528(3)
H20_7 H 0.0888 0.4661 0.3827
C21_4 C 0.0143(3) 0.6246(3) 0.3779(4)
C27_6 C 0.0390(2) 0.3759(2) 0.1350(4)
C29_6 C 0.0108(3) 0.4009(3) 0.0784(4)
H26_6 H 0.0079 0.4374 0.0814
C31_6 C 0.0182(3) 0.2960(3) 0.0673(5)
H28_6 H 0.0219 0.2596 0.0647
C32_6 C 0.0432(2) 0.3227(3) 0.1308(6)
H29_6 H 0.0629 0.3044 0.1706
C34_6 C 0.0664(2) 0.4055(2) 0.2004(3)
H30_6 H 0.0748 0.3817 0.2460
H31_6 H 0.0427 0.4322 0.2221
O9_7 O 0.2342(3) 0.0067(2) 0.2579(5)
H33_6 H 0.2668 0.0074 0.2317
C1_5 C 0.4025(2) 0.9520(2) 0.7309(3)
H1_5 H 0.3877 0.9483 0.6778
O1_5 O 0.50306(18) 0.8818(2) 0.9490(3)
O5_5 O 0.4954(2) 0.8366(2) 0.8370(3)
C9_5 C 0.3946(2) 0.9967(2) 0.7754(3)
C10_5 C 0.4539(2) 0.9181(2) 0.8415(3)
C11_5 C 0.4321(2) 0.9123(2) 0.7641(3)
H9_5 H 0.4375 0.8814 0.7339
C14_5 C 0.4455(3) 0.9631(3) 0.8859(3)
H14_5 H 0.4599 0.9666 0.9393
C21_5 C 0.4857(3) 0.8754(3) 0.8779(4)
Zn2_2 Zn 0.54947(3) 0.82655(3) 0.98200(3)
O1_6 O 0.8818(2) 0.99694(18) 0.1990(3)
Zn2_3 Zn 0.82655(3) 0.95053(3) 0.23200(3)
C1_6 C 0.9025(2) 0.4520(2) 0.2309(3)
H1_6 H 0.8877 0.4483 0.1778
O2_7 O 0.79549(17) 0.89575(15) 0.1658(2)
C3_7 C 0.8155(2) 0.8205(2) 0.0909(3)
O4_7 O 0.87795(17) 0.87376(19) 0.1580(3)
N2_7 N 0.88468(17) 0.56856(17) 0.1727(2)
H2_7 H 0.8937 0.5436 0.1280
C4_7 C 0.7670(2) 0.8152(2) 0.0593(3)
H3_7 H 0.7419 0.8413 0.0687
C5_7 C 0.8518(2) 0.7808(2) 0.0766(3)
H4_7 H 0.8856 0.7836 0.0989
C6_7 C 0.83869(19) 0.73766(19) 0.0306(3)
H5_7 H 0.8635 0.7112 0.0211
C7_7 C 0.75398(19) 0.7712(2) 0.0130(2)
C8_7 C 0.84731(18) 0.60774(19) 0.1379(3)
H7_7 H 0.8397 0.6339 0.1806
H8_7 H 0.8641 0.6258 0.0913
O5_6 O 0.9954(2) 0.3366(2) 0.3370(3)
C9_6 C 0.8946(2) 0.4967(2) 0.2754(3)
C10_6 C 0.9539(2) 0.4181(2) 0.3415(3)
C11_6 C 0.9321(2) 0.4123(2) 0.2641(3)
H9_6 H 0.9375 0.3814 0.2339
C13_7 C 0.7972(2) 0.5845(2) 0.1087(3)
H12_7 H 0.7756 0.5750 0.1565
H13_7 H 0.8043 0.5527 0.0769
C14_6 C 0.9455(3) 0.4631(3) 0.3859(3)
H14_6 H 0.9599 0.4666 0.4393
C16_7 C 0.8315(3) 0.8655(2) 0.1418(3)
C18_7 C 0.8597(2) 0.5390(2) 0.2408(3)
H16_7 H 0.8274 0.5231 0.2203
H17_8 H 0.8505 0.5632 0.2855
C19_7 C 0.7681(2) 0.6233(2) 0.0547(3)
H18_7 H 0.7349 0.6079 0.0373
H19_7 H 0.7602 0.6545 0.0876
C20_8 C 0.9163(3) 0.5028(2) 0.3528(3)
H20_8 H 0.9112 0.5339 0.3827
C21_6 C 0.9857(3) 0.3754(3) 0.3779(4)
C27_7 C 0.9610(2) 0.6241(2) 0.1350(4)
C29_7 C 0.9892(3) 0.5991(3) 0.0784(4)
H26_7 H 0.9921 0.5626 0.0814
C31_7 C 0.9818(3) 0.7040(3) 0.0673(5)
H28_7 H 0.9781 0.7404 0.0647
C32_7 C 0.9568(2) 0.6773(3) 0.1308(6)
H29_7 H 0.9371 0.6956 0.1706
C34_7 C 0.9336(2) 0.5945(2) 0.2004(3)
H30_7 H 0.9252 0.6183 0.2460
H31_7 H 0.9573 0.5678 0.2221
O9_8 O 0.7658(3) 0.9933(2) 0.2579(5)
H33_7 H 0.7332 0.9926 0.2317
O11_4 O 0.8454(2) 0.9179(2) 0.3366(3)
N1_8 N 0.86140(15) 0.79733(15) 0.7319(2)
C2_8 C 0.76665(19) 0.78954(17) 0.7486(2)
O2_8 O 0.60425(15) 0.79549(17) 0.9158(2)
C3_8 C 0.6795(2) 0.8155(2) 0.8409(3)
O4_8 O 0.62624(19) 0.87795(17) 0.9080(3)
N2_8 N 0.93144(17) 0.88468(17) 0.9227(2)
H2_8 H 0.9564 0.8937 0.8780
C4_8 C 0.6848(2) 0.7670(2) 0.8093(3)
H3_8 H 0.6587 0.7419 0.8187
C5_8 C 0.7192(2) 0.8518(2) 0.8266(3)
H4_8 H 0.7164 0.8856 0.8489
C6_8 C 0.76234(19) 0.83869(19) 0.7806(3)
H5_8 H 0.7888 0.8635 0.7711
C7_8 C 0.7288(2) 0.75398(19) 0.7630(2)
H6_8 H 0.7322 0.7200 0.7414
C8_8 C 0.89226(19) 0.84731(18) 0.8879(3)
H7_8 H 0.8661 0.8397 0.9306
H8_8 H 0.8742 0.8641 0.8413
C12_8 C 0.8136(2) 0.7754(2) 0.6973(3)
H10_8 H 0.8168 0.7373 0.6947
H11_8 H 0.8088 0.7884 0.6407
C13_8 C 0.9155(2) 0.7972(2) 0.8587(3)
H12_8 H 0.9250 0.7756 0.9065
H13_8 H 0.9473 0.8043 0.8269
C15_8 C 0.8904(2) 0.8347(2) 0.6005(3)
C16_8 C 0.6345(2) 0.8315(3) 0.8918(3)
C17_8 C 0.8842(2) 0.8175(2) 0.5209(3)
H15_8 H 0.8883 0.7818 0.5094
C18_8 C 0.9610(2) 0.8597(2) 0.9908(3)
H16_8 H 0.9769 0.8274 0.9703
C19_8 C 0.8767(2) 0.7681(2) 0.8047(3)
H18_8 H 0.8921 0.7349 0.7873
H19_8 H 0.8455 0.7602 0.8376
C22_8 C 0.8725(2) 0.8505(2) 0.4583(3)
H21_8 H 0.8684 0.8374 0.4042
C23_8 C 0.8664(2) 0.9033(2) 0.4728(3)
C24_8 C 0.9025(2) 0.7986(2) 0.6698(3)
H22_8 H 0.9076 0.7634 0.6477
H23_8 H 0.9352 0.8096 0.6962
C26_8 C 0.8517(3) 0.9382(3) 0.4040(4)
C27_8 C 0.8759(2) 0.9610(2) 0.8850(4)
C28_8 C 0.8738(3) 0.9214(2) 0.5529(3)
H25_8 H 0.8710 0.9574 0.5641
O6_8 O 0.8467(4) 0.9852(2) 0.4157(4)
C29_8 C 0.9009(3) 0.9892(3) 0.8284(4)
H26_8 H 0.9374 0.9921 0.8314
C30_8 C 0.8854(3) 0.8873(3) 0.6163(3)
H27_8 H 0.8899 0.8999 0.6706
C31_8 C 0.7960(3) 0.9818(3) 0.8173(5)
H28_8 H 0.7596 0.9781 0.8147
C32_8 C 0.8227(3) 0.9568(2) 0.8808(6)
H29_8 H 0.8044 0.9371 0.9206
C34_8 C 0.9055(2) 0.9336(2) 0.9504(3)
H30_8 H 0.8817 0.9252 0.9960
H31_8 H 0.9322 0.9573 0.9721
H33_8 H 0.5074 0.7332 0.9817
H32_6 H 0.9809 0.2638 0.5495
C25_7 C 0.1262(3) 0.9848(3) 0.7636(5)
H24_5 H 0.1079 0.9650 0.7240
C33_7 C 0.1802(3) 0.9893(3) 0.7599(5)
C35_5 C 0.2083(4) 0.9633(3) 0.6904(7)
O7_5 O 0.1846(4) 0.9369(5) 0.6420(6)
O8_5 O 0.2561(3) 0.9668(3) 0.6907(6)
O5_7 O 0.8366(2) 0.0046(2) 0.0870(3)
C9_7 C 0.9967(2) 0.1054(2) 0.0254(3)
C10_7 C 0.9181(2) 0.0461(2) 0.0915(3)
C11_7 C 0.9123(2) 0.0679(2) 0.0141(3)
C14_7 C 0.9631(3) 0.0545(3) 0.1359(3)
H14_7 H 0.9666 0.0401 0.1893
C21_7 C 0.8754(3) 0.0143(3) 0.1279(4)
C1_7 C 0.9520(2) 0.0975(2) 0.9809(3)
H1_7 H 0.9483 0.1123 0.9278
H9_7 H 0.8814 0.0625 0.9839
H24_6 H 0.0350 0.6079 0.9740
C35_6 C 0.0367(3) 0.7083(4) 0.9404(7)
O7_6 O 0.0631(5) 0.6846(4) 0.8920(6)
O8_6 O 0.0332(3) 0.7561(3) 0.9407(6)
H32_7 H 0.7638 0.0191 0.2995
O5_8 O 0.1634(2) 0.9954(2) 0.0870(3)
C9_8 C 0.0033(2) 0.8946(2) 0.0254(3)
C10_8 C 0.0819(2) 0.9539(2) 0.0915(3)
C11_8 C 0.0877(2) 0.9321(2) 0.0141(3)
C14_8 C 0.0369(3) 0.9455(3) 0.1359(3)
H14_8 H 0.0334 0.9599 0.1893
C21_8 C 0.1246(3) 0.9857(3) 0.1279(4)
C1_8 C 0.0480(2) 0.9025(2) 0.9809(3)
H1_8 H 0.0517 0.8877 0.9278
H9_8 H 0.1186 0.9375 0.9839
C25_8 C 0.8738(3) 0.0152(3) 0.7636(5)
H24_7 H 0.8921 0.0350 0.7240
C33_8 C 0.8198(3) 0.0107(3) 0.7599(5)
C35_7 C 0.7917(4) 0.0367(3) 0.6904(7)
O7_7 O 0.8154(4) 0.0631(5) 0.6420(6)
O8_7 O 0.7439(3) 0.0332(3) 0.6907(6)
H32_8 H 0.2362 0.9809 0.2995
H24_8 H 0.9650 0.3921 0.9740
C35_8 C 0.9633(3) 0.2917(4) 0.9404(7)
O7_8 O 0.9369(5) 0.3154(4) 0.8920(6)
O8_8 O 0.9668(3) 0.2439(3) 0.9407(6)
loop_
_geom_bond_atom_site_label_1
_geom_bond_atom_site_label_2
_geom_bond_site_symmetry_1
_geom_bond_site_symmetry_2
Zn1 O2 1_555 1_555
N1 C12 1_555 1_555
C1 H1 1_555 1_555
O1 C21 1_555 1_555
C2 C6 1_555 1_555
O2 C16 1_555 1_555
C3 C4 1_555 1_555
O4 C16 1_555 1_555
N2 H2 1_555 1_555
C4 H3 1_555 1_555
C5 C3 1_555 1_555
H4 C5 1_555 1_555
C6 C5 1_555 1_555
H5 C6 1_555 1_555
C7 C2 1_555 1_555
H6 C7 1_555 1_555
C8 N2 1_555 1_555
H7 C8 1_555 1_555
H8 C8 1_555 1_555
O5 C21 1_555 1_555
C9 C1 1_555 1_555
C10 C11 1_555 1_555
C11 C1 1_555 1_555
H9 C11 1_555 1_555
C12 C2 1_555 1_555
H10 C12 1_555 1_555
H11 C12 1_555 1_555
C13 C8 1_555 1_555
H12 C13 1_555 1_555
H13 C13 1_555 1_555
C14 C10 1_555 1_555
H14 C14 1_555 1_555
C15 C17 1_555 1_555
C16 C3 1_555 1_555
C17 H15 1_555 1_555
C18 N2 1_555 1_555
H16 C18 1_555 1_555
H17 C18 1_555 1_555
C19 N1 1_555 1_555
H18 C19 1_555 1_555
H19 C19 1_555 1_555
C20 C9 1_555 1_555
H20 C20 1_555 1_555
C21 C10 1_555 1_555
C24 N1 1_555 1_555
H22 C24 1_555 1_555
H23 C24 1_555 1_555
C25 H24 1_555 1_555
C27 C29 1_555 1_555
H25 C28 1_555 1_555
C29 C25 1_555 1_555
H26 C29 1_555 1_555
C30 C15 1_555 1_555
H27 C30 1_555 1_555
C31 H28 1_555 1_555
C32 C27 1_555 1_555
H29 C32 1_555 1_555
C33 C25 1_555 1_555
C34 N2 1_555 1_555
H30 C34 1_555 1_555
H31 C34 1_555 1_555
C35 C33 1_555 1_555
O7 C35 1_555 1_555
O8 C35 1_555 1_555
O9 Zn1 1_555 1_555
H33 O9 1_555 1_555
Zn2 O1 1_555 1_555
O10 Zn1 1_555 1_555
O11 Zn1 1_555 1_555
C4 C7 1_555 1_555
C9 C18 1_555 1_555
C13 C19 1_555 1_555
C14 C20 1_555 1_555
C15 C24 1_555 1_555
C27 C34 1_555 1_555
C28 C30 1_555 1_555
C31 C32 1_555 1_555
C31 C33 1_555 1_555
Zn2 O2_2 1_555 1_555
N1_2 C12_2 1_555 1_555
C2_2 C6_2 1_555 1_555
O2_2 C16_2 1_555 1_555
O3 C26 1_555 1_555
C3_2 C4_2 1_555 1_555
O4_2 C16_2 1_555 1_555
N2_2 H2_2 1_555 1_555
C4_2 H3_2 1_555 1_555
C5_2 C3_2 1_555 1_555
H4_2 C5_2 1_555 1_555
C6_2 C5_2 1_555 1_555
H5_2 C6_2 1_555 1_555
C7_2 C2_2 1_555 1_555
H6_2 C7_2 1_555 1_555
C8_2 N2_2 1_555 1_555
H7_2 C8_2 1_555 1_555
H8_2 C8_2 1_555 1_555
C12_2 C2_2 1_555 1_555
H10_2 C12_2 1_555 1_555
H11_2 C12_2 1_555 1_555
C13_2 C8_2 1_555 1_555
H12_2 C13_2 1_555 1_555
H13_2 C13_2 1_555 1_555
C15_2 C17_2 1_555 1_555
C16_2 C3_2 1_555 1_555
C17_2 H15_2 1_555 1_555
C18_2 N2_2 1_555 1_555
H16_2 C18_2 1_555 1_555
H17_2 C18_2 1_555 1_555
C19_2 N1_2 1_555 1_555
H18_2 C19_2 1_555 1_555
H19_2 C19_2 1_555 1_555
H20_2 C20_2 1_555 1_555
C22 C17_2 1_555 1_555
H21 C22 1_555 1_555
C23 C22 1_555 1_555
C24_2 N1_2 1_555 1_555
H22_2 C24_2 1_555 1_555
H23_2 C24_2 1_555 1_555
C25_2 H24_2 1_555 1_555
C26 C23 1_555 1_555
C27_2 C29_2 1_555 1_555
C28_2 C23 1_555 1_555
H25_2 C28_2 1_555 1_555
O6 C26 1_555 1_555
C29_2 C25_2 1_555 1_555
H26_2 C29_2 1_555 1_555
C30_2 C15_2 1_555 1_555
H27_2 C30_2 1_555 1_555
C31_2 H28_2 1_555 1_555
C32_2 C27_2 1_555 1_555
H29_2 C32_2 1_555 1_555
C33_2 C25_2 1_555 1_555
C34_2 N2_2 1_555 1_555
H30_2 C34_2 1_555 1_555
H31_2 C34_2 1_555 1_555
C35_2 C33_2 1_555 1_555
O7_2 C35_2 1_555 1_555
O8_2 C35_2 1_555 1_555
O9_2 Zn2 1_555 1_555
H32_2 O9_2 1_555 1_555
H33_2 O9_2 1_555 1_555
O11_2 Zn2 1_555 1_555
C4_2 C7_2 1_555 1_555
C13_2 C19_2 1_555 1_555
C15_2 C24_2 1_555 1_555
C27_2 C34_2 1_555 1_555
C28_2 C30_2 1_555 1_555
C31_2 C32_2 1_555 1_555
C31_2 C33_2 1_555 1_555
O11_2 C26_2 1_555 1_555
H21_2 C22_2 1_555 1_555
C23_2 C22_2 1_555 1_555
C26_2 C23_2 1_555 1_555
O6_2 C26_2 1_555 1_555
H20_3 C20_3 1_555 1_555
H32_3 O9_3 1_555 1_555
N1_3 C12_3 1_555 1_555
O11 C26_3 1_555 1_555
C12_3 C2_3 1_555 1_555
H10_3 C12_3 1_555 1_555
H11_3 C12_3 1_555 1_555
C15_3 C17_3 1_555 1_555
C17_3 H15_3 1_555 1_555
C22_3 C17_3 1_555 1_555
H21_3 C22_3 1_555 1_555
C23_3 C22_3 1_555 1_555
C24_3 N1_3 1_555 1_555
H22_3 C24_3 1_555 1_555
H23_3 C24_3 1_555 1_555
C26_3 C23_3 1_555 1_555
C28_3 C23_3 1_555 1_555
H25_3 C28_3 1_555 1_555
O6_3 C26_3 1_555 1_555
C30_3 C15_3 1_555 1_555
H27_3 C30_3 1_555 1_555
C15_3 C24_3 1_555 1_555
C28_3 C30_3 1_555 1_555
C33_3 C25_3 1_555 1_555
O3_2 C26_4 1_555 1_555
H21_4 C22_4 1_555 1_555
C23_4 C22_4 1_555 1_555
C26_4 C23_4 1_555 1_555
O6_4 C26_4 1_555 1_555
Zn3 O3_2 1_555 1_555
Zn1_2 O2_3 1_555 1_555
N1_4 C12_4 1_555 1_555
C1_2 H1_2 1_555 1_555
O1_2 C21_2 1_555 1_555
C2_4 C6_3 1_555 1_555
O2_3 C16_3 1_555 1_555
C3_3 C4_3 1_555 1_555
O4_3 C16_3 1_555 1_555
N2_3 H2_3 1_555 1_555
C4_3 H3_3 1_555 1_555
C5_3 C3_3 1_555 1_555
H4_3 C5_3 1_555 1_555
C6_3 C5_3 1_555 1_555
H5_3 C6_3 1_555 1_555
C7_3 C2_4 1_555 1_555
H6_4 C7_3 1_555 1_555
C8_3 N2_3 1_555 1_555
H7_3 C8_3 1_555 1_555
H8_3 C8_3 1_555 1_555
O5_2 C21_2 1_555 1_555
C9_2 C1_2 1_555 1_555
C10_2 C11_2 1_555 1_555
C11_2 C1_2 1_555 1_555
H9_2 C11_2 1_555 1_555
C12_4 C2_4 1_555 1_555
H10_4 C12_4 1_555 1_555
H11_4 C12_4 1_555 1_555
C13_3 C8_3 1_555 1_555
H12_3 C13_3 1_555 1_555
H13_3 C13_3 1_555 1_555
C14_2 C10_2 1_555 1_555
H14_2 C14_2 1_555 1_555
C15_4 C17_4 1_555 1_555
C16_3 C3_3 1_555 1_555
C17_4 H15_4 1_555 1_555
C18_3 N2_3 1_555 1_555
H16_3 C18_3 1_555 1_555
H17_4 C18_3 1_555 1_555
C19_3 N1_4 1_555 1_555
H18_3 C19_3 1_555 1_555
H19_3 C19_3 1_555 1_555
C20_4 C9_2 1_555 1_555
H20_4 C20_4 1_555 1_555
C21_2 C10_2 1_555 1_555
C24_4 N1_4 1_555 1_555
H22_4 C24_4 1_555 1_555
H23_4 C24_4 1_555 1_555
C25_4 H24_3 1_555 1_555
C27_3 C29_3 1_555 1_555
H25_4 C28_4 1_555 1_555
C29_3 C25_4 1_555 1_555
H26_3 C29_3 1_555 1_555
C30_4 C15_4 1_555 1_555
H27_4 C30_4 1_555 1_555
C31_3 H28_3 1_555 1_555
C32_3 C27_3 1_555 1_555
H29_3 C32_3 1_555 1_555
C33_4 C25_4 1_555 1_555
C34_3 N2_3 1_555 1_555
H30_3 C34_3 1_555 1_555
H31_3 C34_3 1_555 1_555
C35_3 C33_4 1_555 1_555
O7_3 C35_3 1_555 1_555
O8_3 C35_3 1_555 1_555
O9_4 Zn1_2 1_555 1_555
H33_3 O9_4 1_555 1_555
Zn3 O1_2 1_555 1_555
O10_2 Zn1_2 1_555 1_555
O11_3 Zn1_2 1_555 1_555
C4_3 C7_3 1_555 1_555
C9_2 C18_3 1_555 1_555
C13_3 C19_3 1_555 1_555
C14_2 C20_4 1_555 1_555
C15_4 C24_4 1_555 1_555
C27_3 C34_3 1_555 1_555
C28_4 C30_4 1_555 1_555
C31_3 C32_3 1_555 1_555
C31_3 C33_4 1_555 1_555
Zn3 O2_4 1_555 1_555
N1_5 C12_5 1_555 1_555
C2_5 C6_4 1_555 1_555
O2_4 C16_4 1_555 1_555
O3_3 C26_5 1_555 1_555
C3_4 C4_4 1_555 1_555
O4_4 C16_4 1_555 1_555
N2_4 H2_4 1_555 1_555
C4_4 H3_4 1_555 1_555
C5_4 C3_4 1_555 1_555
H4_4 C5_4 1_555 1_555
C6_4 C5_4 1_555 1_555
H5_4 C6_4 1_555 1_555
C7_4 C2_5 1_555 1_555
H6_5 C7_4 1_555 1_555
C8_4 N2_4 1_555 1_555
H7_4 C8_4 1_555 1_555
H8_4 C8_4 1_555 1_555
C12_5 C2_5 1_555 1_555
H10_5 C12_5 1_555 1_555
H11_5 C12_5 1_555 1_555
C13_4 C8_4 1_555 1_555
H12_4 C13_4 1_555 1_555
H13_4 C13_4 1_555 1_555
C15_5 C17_5 1_555 1_555
C16_4 C3_4 1_555 1_555
C17_5 H15_5 1_555 1_555
C18_4 N2_4 1_555 1_555
H16_4 C18_4 1_555 1_555
H17_5 C18_4 1_555 1_555
C19_4 N1_5 1_555 1_555
H18_4 C19_4 1_555 1_555
H19_4 C19_4 1_555 1_555
H20_5 C20_5 1_555 1_555
C22_5 C17_5 1_555 1_555
H21_5 C22_5 1_555 1_555
C23_5 C22_5 1_555 1_555
C24_5 N1_5 1_555 1_555
H22_5 C24_5 1_555 1_555
H23_5 C24_5 1_555 1_555
C25_5 H24_4 1_555 1_555
C26_5 C23_5 1_555 1_555
C27_4 C29_4 1_555 1_555
C28_5 C23_5 1_555 1_555
H25_5 C28_5 1_555 1_555
O6_5 C26_5 1_555 1_555
C29_4 C25_5 1_555 1_555
H26_4 C29_4 1_555 1_555
C30_5 C15_5 1_555 1_555
H27_5 C30_5 1_555 1_555
C31_4 H28_4 1_555 1_555
C32_4 C27_4 1_555 1_555
H29_4 C32_4 1_555 1_555
C33_5 C25_5 1_555 1_555
C34_4 N2_4 1_555 1_555
H30_4 C34_4 1_555 1_555
H31_4 C34_4 1_555 1_555
C35_4 C33_5 1_555 1_555
O7_4 C35_4 1_555 1_555
O8_4 C35_4 1_555 1_555
O9_5 Zn3 1_555 1_555
H32_4 O9_5 1_555 1_555
H33_4 O9_5 1_555 1_555
C4_4 C7_4 1_555 1_555
C13_4 C19_4 1_555 1_555
C15_5 C24_5 1_555 1_555
C27_4 C34_4 1_555 1_555
C28_5 C30_5 1_555 1_555
C31_4 C32_4 1_555 1_555
C31_4 C33_5 1_555 1_555
C33_6 C25_6 1_555 1_555
H20_6 C20_6 1_555 1_555
H32_5 O9_6 1_555 1_555
N1_6 C12_6 1_555 1_555
O11_3 C26_6 1_555 1_555
C12_6 C2_6 1_555 1_555
H10_6 C12_6 1_555 1_555
H11_6 C12_6 1_555 1_555
C15_6 C17_6 1_555 1_555
C17_6 H15_6 1_555 1_555
C22_6 C17_6 1_555 1_555
H21_6 C22_6 1_555 1_555
C23_6 C22_6 1_555 1_555
C24_6 N1_6 1_555 1_555
H22_6 C24_6 1_555 1_555
H23_6 C24_6 1_555 1_555
C26_6 C23_6 1_555 1_555
C28_6 C23_6 1_555 1_555
H25_6 C28_6 1_555 1_555
O6_6 C26_6 1_555 1_555
C30_6 C15_6 1_555 1_555
H27_6 C30_6 1_555 1_555
C15_6 C24_6 1_555 1_555
C28_6 C30_6 1_555 1_555
C1_3 H1_3 1_555 1_555
O1_3 C21_3 1_555 1_555
O5_3 C21_3 1_555 1_555
C9_3 C1_3 1_555 1_555
C10_3 C11_3 1_555 1_555
C11_3 C1_3 1_555 1_555
H9_3 C11_3 1_555 1_555
C14_3 C10_3 1_555 1_555
H14_3 C14_3 1_555 1_555
C21_3 C10_3 1_555 1_555
Zn3_2 O1_3 1_555 1_555
Zn3_2 O2_5 1_555 1_555
N1_7 C12_7 1_555 1_555
C2_7 C6_5 1_555 1_555
O2_5 C16_5 1_555 1_555
O3_4 C26_7 1_555 1_555
C3_5 C4_5 1_555 1_555
O4_5 C16_5 1_555 1_555
N2_5 H2_5 1_555 1_555
C4_5 H3_5 1_555 1_555
C5_5 C3_5 1_555 1_555
H4_5 C5_5 1_555 1_555
C6_5 C5_5 1_555 1_555
H5_5 C6_5 1_555 1_555
C7_5 C2_7 1_555 1_555
H6_7 C7_5 1_555 1_555
C8_5 N2_5 1_555 1_555
H7_5 C8_5 1_555 1_555
H8_5 C8_5 1_555 1_555
C12_7 C2_7 1_555 1_555
H10_7 C12_7 1_555 1_555
H11_7 C12_7 1_555 1_555
C13_5 C8_5 1_555 1_555
H12_5 C13_5 1_555 1_555
H13_5 C13_5 1_555 1_555
C15_7 C17_7 1_555 1_555
C16_5 C3_5 1_555 1_555
C17_7 H15_7 1_555 1_555
C18_5 N2_5 1_555 1_555
H16_5 C18_5 1_555 1_555
C19_5 N1_7 1_555 1_555
H18_5 C19_5 1_555 1_555
H19_5 C19_5 1_555 1_555
C22_7 C17_7 1_555 1_555
H21_7 C22_7 1_555 1_555
C23_7 C22_7 1_555 1_555
C24_7 N1_7 1_555 1_555
H22_7 C24_7 1_555 1_555
H23_7 C24_7 1_555 1_555
C26_7 C23_7 1_555 1_555
C27_5 C29_5 1_555 1_555
C28_7 C23_7 1_555 1_555
H25_7 C28_7 1_555 1_555
O6_7 C26_7 1_555 1_555
H26_5 C29_5 1_555 1_555
C30_7 C15_7 1_555 1_555
H27_7 C30_7 1_555 1_555
C31_5 H28_5 1_555 1_555
C32_5 C27_5 1_555 1_555
H29_5 C32_5 1_555 1_555
C34_5 N2_5 1_555 1_555
H30_5 C34_5 1_555 1_555
H31_5 C34_5 1_555 1_555
Zn3_3 O3_4 1_555 1_555
C4_5 C7_5 1_555 1_555
C13_5 C19_5 1_555 1_555
C15_7 C24_7 1_555 1_555
C27_5 C34_5 1_555 1_555
C28_7 C30_7 1_555 1_555
C31_5 C32_5 1_555 1_555
Zn3_3 O1_4 1_555 1_555
Zn3_3 O2_6 1_555 1_555
C1_4 H1_4 1_555 1_555
O2_6 C16_6 1_555 1_555
C3_6 C4_6 1_555 1_555
O4_6 C16_6 1_555 1_555
N2_6 H2_6 1_555 1_555
C4_6 H3_6 1_555 1_555
C5_6 C3_6 1_555 1_555
H4_6 C5_6 1_555 1_555
C6_6 C5_6 1_555 1_555
H5_6 C6_6 1_555 1_555
C8_6 N2_6 1_555 1_555
H7_6 C8_6 1_555 1_555
H8_6 C8_6 1_555 1_555
O5_4 C21_4 1_555 1_555
C9_4 C1_4 1_555 1_555
C10_4 C11_4 1_555 1_555
C11_4 C1_4 1_555 1_555
H9_4 C11_4 1_555 1_555
C13_6 C8_6 1_555 1_555
H12_6 C13_6 1_555 1_555
H13_6 C13_6 1_555 1_555
C14_4 C10_4 1_555 1_555
H14_4 C14_4 1_555 1_555
C16_6 C3_6 1_555 1_555
C18_6 N2_6 1_555 1_555
H16_6 C18_6 1_555 1_555
H17_7 C18_6 1_555 1_555
H18_6 C19_6 1_555 1_555
H19_6 C19_6 1_555 1_555
C20_7 C9_4 1_555 1_555
H20_7 C20_7 1_555 1_555
C21_4 C10_4 1_555 1_555
C27_6 C29_6 1_555 1_555
H26_6 C29_6 1_555 1_555
C31_6 H28_6 1_555 1_555
C32_6 C27_6 1_555 1_555
H29_6 C32_6 1_555 1_555
C34_6 N2_6 1_555 1_555
H30_6 C34_6 1_555 1_555
H31_6 C34_6 1_555 1_555
O9_7 Zn3_3 1_555 1_555
H33_6 O9_7 1_555 1_555
C4_6 C7_6 1_555 1_555
C9_4 C18_6 1_555 1_555
C13_6 C19_6 1_555 1_555
C14_4 C20_7 1_555 1_555
C27_6 C34_6 1_555 1_555
C31_6 C32_6 1_555 1_555
C1_5 H1_5 1_555 1_555
O1_5 C21_5 1_555 1_555
O5_5 C21_5 1_555 1_555
C9_5 C1_5 1_555 1_555
C10_5 C11_5 1_555 1_555
C11_5 C1_5 1_555 1_555
H9_5 C11_5 1_555 1_555
C14_5 C10_5 1_555 1_555
H14_5 C14_5 1_555 1_555
C21_5 C10_5 1_555 1_555
Zn2_2 O1_5 1_555 1_555
Zn2_3 O1_6 1_555 1_555
Zn2_3 O2_7 1_555 1_555
C1_6 H1_6 1_555 1_555
O2_7 C16_7 1_555 1_555
C3_7 C4_7 1_555 1_555
O4_7 C16_7 1_555 1_555
N2_7 H2_7 1_555 1_555
C4_7 H3_7 1_555 1_555
C5_7 C3_7 1_555 1_555
H4_7 C5_7 1_555 1_555
C6_7 C5_7 1_555 1_555
H5_7 C6_7 1_555 1_555
C8_7 N2_7 1_555 1_555
H7_7 C8_7 1_555 1_555
H8_7 C8_7 1_555 1_555
O5_6 C21_6 1_555 1_555
C9_6 C1_6 1_555 1_555
C10_6 C11_6 1_555 1_555
C11_6 C1_6 1_555 1_555
H9_6 C11_6 1_555 1_555
C13_7 C8_7 1_555 1_555
H12_7 C13_7 1_555 1_555
H13_7 C13_7 1_555 1_555
C14_6 C10_6 1_555 1_555
H14_6 C14_6 1_555 1_555
C16_7 C3_7 1_555 1_555
C18_7 N2_7 1_555 1_555
H16_7 C18_7 1_555 1_555
H17_8 C18_7 1_555 1_555
H18_7 C19_7 1_555 1_555
H19_7 C19_7 1_555 1_555
C20_8 C9_6 1_555 1_555
H20_8 C20_8 1_555 1_555
C21_6 C10_6 1_555 1_555
C27_7 C29_7 1_555 1_555
H26_7 C29_7 1_555 1_555
C31_7 H28_7 1_555 1_555
C32_7 C27_7 1_555 1_555
H29_7 C32_7 1_555 1_555
C34_7 N2_7 1_555 1_555
H30_7 C34_7 1_555 1_555
H31_7 C34_7 1_555 1_555
O9_8 Zn2_3 1_555 1_555
H33_7 O9_8 1_555 1_555
O11_4 Zn2_3 1_555 1_555
C4_7 C7_7 1_555 1_555
C9_6 C18_7 1_555 1_555
C13_7 C19_7 1_555 1_555
C14_6 C20_8 1_555 1_555
C27_7 C34_7 1_555 1_555
C31_7 C32_7 1_555 1_555
Zn2_2 O2_8 1_555 1_555
N1_8 C12_8 1_555 1_555
C2_8 C6_8 1_555 1_555
O2_8 C16_8 1_555 1_555
O11_4 C26_8 1_555 1_555
C3_8 C4_8 1_555 1_555
O4_8 C16_8 1_555 1_555
N2_8 H2_8 1_555 1_555
C4_8 H3_8 1_555 1_555
C5_8 C3_8 1_555 1_555
H4_8 C5_8 1_555 1_555
C6_8 C5_8 1_555 1_555
H5_8 C6_8 1_555 1_555
C7_8 C2_8 1_555 1_555
H6_8 C7_8 1_555 1_555
C8_8 N2_8 1_555 1_555
H7_8 C8_8 1_555 1_555
H8_8 C8_8 1_555 1_555
C12_8 C2_8 1_555 1_555
H10_8 C12_8 1_555 1_555
H11_8 C12_8 1_555 1_555
C13_8 C8_8 1_555 1_555
H12_8 C13_8 1_555 1_555
H13_8 C13_8 1_555 1_555
C15_8 C17_8 1_555 1_555
C16_8 C3_8 1_555 1_555
C17_8 H15_8 1_555 1_555
C18_8 N2_8 1_555 1_555
H16_8 C18_8 1_555 1_555
C19_8 N1_8 1_555 1_555
H18_8 C19_8 1_555 1_555
H19_8 C19_8 1_555 1_555
C22_8 C17_8 1_555 1_555
H21_8 C22_8 1_555 1_555
C23_8 C22_8 1_555 1_555
C24_8 N1_8 1_555 1_555
H22_8 C24_8 1_555 1_555
H23_8 C24_8 1_555 1_555
C26_8 C23_8 1_555 1_555
C27_8 C29_8 1_555 1_555
C28_8 C23_8 1_555 1_555
H25_8 C28_8 1_555 1_555
O6_8 C26_8 1_555 1_555
H26_8 C29_8 1_555 1_555
C30_8 C15_8 1_555 1_555
H27_8 C30_8 1_555 1_555
C31_8 H28_8 1_555 1_555
C32_8 C27_8 1_555 1_555
H29_8 C32_8 1_555 1_555
C34_8 N2_8 1_555 1_555
H30_8 C34_8 1_555 1_555
H31_8 C34_8 1_555 1_555
C4_8 C7_8 1_555 1_555
C13_8 C19_8 1_555 1_555
C15_8 C24_8 1_555 1_555
C27_8 C34_8 1_555 1_555
C28_8 C30_8 1_555 1_555
C31_8 C32_8 1_555 1_555
C25_7 H24_5 1_555 1_555
C33_7 C25_7 1_555 1_555
C35_5 C33_7 1_555 1_555
O7_5 C35_5 1_555 1_555
O8_5 C35_5 1_555 1_555
O5_7 C21_7 1_555 1_555
C10_7 C11_7 1_555 1_555
C14_7 C10_7 1_555 1_555
H14_7 C14_7 1_555 1_555
C21_7 C10_7 1_555 1_555
C1_7 H1_7 1_555 1_555
O7_6 C35_6 1_555 1_555
O8_6 C35_6 1_555 1_555
O5_8 C21_8 1_555 1_555
C10_8 C11_8 1_555 1_555
C14_8 C10_8 1_555 1_555
H14_8 C14_8 1_555 1_555
C21_8 C10_8 1_555 1_555
C1_8 H1_8 1_555 1_555
C25_8 H24_7 1_555 1_555
C33_8 C25_8 1_555 1_555
C35_7 C33_8 1_555 1_555
O7_7 C35_7 1_555 1_555
O8_7 C35_7 1_555 1_555
O7_8 C35_8 1_555 1_555
O8_8 C35_8 1_555 1_555

#END
