
###############################################################################
#
# This file contains modified crystal structure data generated from the
# MOF subset of the Cambridge Structural Database (CSD) v543 
# hosted by the Cambridge Crystallographic Data Centre (CCDC).
#
# This work is licensed under the Creative Commons
# Attribution-NonCommercial-ShareAlike 4.0 International License.
# To view a copy of this license, visit
# http://creativecommons.org/licenses/by-nc-sa/4.0/
# or send a letter to
# Creative Commons, PO Box 1866, Mountain View, CA 94042, USA.
#
# CIF created using the CSD Python API on 29 September 2022
# The structure has been converted into the P1 space group
# The structure has a 3D framework
# The original CSD entry LECFUW is in the rhombohedral crystal system
# The framework has been calculated to contain at least 10.0% void space
# The void calculation uses a probe of radius 1.32A, grid spacing 0.4
# The framework is charged, counterions have been retained in the structure
#
###############################################################################

data_LECFUW
_chemical_formula_moiety         '(C396 H252 Cu44 N119 O221)n'
_symmetry_cell_setting           triclinic
_symmetry_space_group_name_H-M   'P 1'
_symmetry_Int_Tables_number      1
_space_group_name_Hall           'P 1'
loop_
_symmetry_equiv_pos_site_id
_symmetry_equiv_pos_as_xyz
1 x,y,z
_cell_length_a                   32.2173(17)
_cell_length_b                   32.2173(17)
_cell_length_c                   16.9905(8)
_cell_angle_alpha                90
_cell_angle_beta                 90
_cell_angle_gamma                120
_cell_volume                     15272.7
loop_
_atom_site_label
_atom_site_type_symbol
_atom_site_fract_x
_atom_site_fract_y
_atom_site_fract_z
O13 O 0.0001 0.5000 -0.0000
C82 C 0.12774(9) 0.71542(13) 0.5940(2)
C87 C 0.08975(9) 0.67945(13) 0.6488(2)
C92 C 0.09630(9) 0.64466(13) 0.6874(2)
H54 H 0.1254 0.6444 0.6806
C97 C 0.06023(9) 0.61034(12) 0.73580(19)
C102 C 0.01666(9) 0.60972(13) 0.7443(2)
C107 C 0.01076(9) 0.64441(13) 0.70470(19)
C112 C 0.04689(10) 0.67973(13) 0.6581(2)
H64 H 0.0423 0.7036 0.6331
C117 C 0.06814(9) 0.57387(12) 0.77949(18)
Cu15 Cu 0.065490(14) 0.554900(10) 0.98726(2)
Cu20 Cu 0.018540(14) 0.481330(10) 0.86706(2)
Cu27 Cu 0.147997(10) 0.796123(10) 0.46627(2)
Cu41 Cu 0.213007(9) 0.742843(10) 0.49972(2)
Cu42 Cu 0.136830(13) 0.546340(9) 0.83361(2)
O13_2 O 0.0001 0.5000 1.0000
O23 O 0.08023(8) 0.51281(6) 0.92378(12)
O56 O 0.12342(7) 0.75022(10) 0.57129(16)
O59 O 0.03987(7) 0.45676(7) 0.76205(16)
O64 O 0.16062(7) 0.70669(10) 0.57457(16)
O73 O 0.03572(7) 0.54708(9) 0.82773(14)
O80 O 0.10653(7) 0.57368(9) 0.76546(15)
C12 C 0.74566(9) 0.79441(9) 0.0727(2)
C13 C 0.74364(9) 0.75642(9) 0.0179(2)
C18 C 0.70050(9) 0.71356(10) 0.0086(2)
H10 H 0.6721 0.7090 0.0336
C20 C 0.67089(15) 0.59259(16) 0.0687(3)
H11 H 0.6520 0.5640 0.1010
H12 H 0.6804 0.6213 0.1007
H13 H 0.6996 0.5928 0.0493
C21 C 0.64156(9) 0.59227(9) 0.0009(2)
Cu1 Cu 0.554900(10) 0.489410(10) 0.01274(2)
Cu3 Cu 0.546340(9) 0.409510(10) 0.16639(2)
O1 O 0.5000 0.5001 -0.0000
O2 O 0.51281(6) 0.43258(6) 0.07622(12)
O7 O 0.70654(7) 0.79009(7) 0.09538(16)
O8 O 0.78727(7) 0.82729(7) 0.09210(16)
C23 C 0.63086(9) 0.46466(13) 0.0666(2)
C24 C 0.53534(13) 0.16621(9) 0.0666(2)
C26 C 0.50046(9) 0.70247(9) 0.3999(2)
C28 C 0.68153(10) 0.47769(14) 0.0454(2)
C29 C 0.52231(14) 0.20385(10) 0.0454(2)
C31 C 0.46282(10) 0.65180(10) 0.3787(2)
C33 C 0.70664(10) 0.46230(14) 0.0932(2)
C34 C 0.53770(14) 0.24435(10) 0.0932(2)
C36 C 0.42232(10) 0.62669(10) 0.4265(2)
H15 H 0.6914 0.4426 0.1376
H16 H 0.5574 0.2489 0.1376
H18 H 0.4178 0.6419 0.4709
C38 C 0.75436(11) 0.47616(16) 0.0754(2)
C39 C 0.52384(16) 0.27821(11) 0.0754(2)
C41 C 0.38846(11) 0.57897(11) 0.4087(2)
C43 C 0.77686(10) 0.50503(14) 0.0100(2)
C44 C 0.49497(14) 0.27184(10) 0.0100(2)
C46 C 0.39483(10) 0.55647(10) 0.3433(2)
H23 H 0.3717 0.5244 0.3302
H24 H 0.1911 0.4860 0.0031
C51 C 0.43584(10) 0.58211(9) 0.2977(2)
C52 C 0.24878(9) 0.47960(13) 0.0356(2)
C56 C 0.47003(10) 0.62953(10) 0.3139(2)
C57 C 0.29620(10) 0.49283(14) 0.0194(2)
H28 H 0.4976 0.6463 0.2816
H29 H 0.3130 0.4820 0.0517
C58 C 0.78244(12) 0.46115(16) 0.1292(3)
C59 C 0.53885(16) 0.32130(11) 0.1292(3)
C61 C 0.34537(11) 0.55089(12) 0.4625(3)
C66 C 0.43098(18) 0.60083(17) 0.1188(4)
C67 C 0.26750(17) 0.50318(25) 0.2145(4)
H33 H 0.4291 0.5976 0.0614
H34 H 0.2643 0.5018 0.2719
H38 H 0.4003 0.5956 0.1394
H39 H 0.2623 0.5286 0.1939
H43 H 0.4565 0.6331 0.1331
H44 H 0.2998 0.5099 0.2002
C71 C 0.44178(11) 0.56452(10) 0.1534(2)
C72 C 0.23119(10) 0.45607(15) 0.1799(2)
C76 C 0.45548(9) 0.52244(10) 0.2398(2)
C77 C 0.18911(10) 0.40029(13) 0.0935(2)
H48 H 0.4594 0.5099 0.2881
H49 H 0.1766 0.3838 0.0452
C80 C 0.46108(9) 0.38208(13) 0.2606(2)
C81 C 0.71542(13) 0.58767(9) 0.4060(2)
C85 C 0.42309(9) 0.34611(13) 0.3154(2)
C86 C 0.67945(13) 0.58969(9) 0.3512(2)
C90 C 0.42964(9) 0.31132(13) 0.3540(2)
C91 C 0.64466(13) 0.54835(9) 0.3126(2)
H52 H 0.4588 0.3110 0.3472
H53 H 0.6444 0.5189 0.3194
C95 C 0.39357(9) 0.27700(12) 0.40246(19)
C96 C 0.61034(12) 0.55010(8) 0.26420(19)
C100 C 0.35000(9) 0.27638(13) 0.4109(2)
C101 C 0.60972(13) 0.59305(9) 0.2557(2)
H57 H 0.3252 0.2530 0.4429
H58 H 0.5864 0.5945 0.2237
C105 C 0.34410(9) 0.31107(13) 0.37136(19)
C106 C 0.64441(13) 0.63364(9) 0.29530(19)
C110 C 0.38023(10) 0.34639(13) 0.3247(2)
C111 C 0.67973(13) 0.63283(9) 0.3419(2)
H62 H 0.3757 0.3702 0.2997
H63 H 0.7036 0.6612 0.3669
C115 C 0.40148(9) 0.24053(12) 0.44615(18)
C116 C 0.57387(12) 0.50572(8) 0.22051(18)
C120 C 0.25926(16) 0.25503(22) 0.2646(3)
C121 C 0.58837(22) 0.66244(15) 0.4020(3)
H67 H 0.2307 0.2453 0.2323
H68 H 0.5787 0.6813 0.4343
H72 H 0.2880 0.2742 0.2326
H73 H 0.6076 0.6529 0.4340
H77 H 0.2595 0.2265 0.2840
H78 H 0.5599 0.6337 0.3826
C125 C 0.25894(9) 0.28404(13) 0.3324(2)
C126 C 0.61738(13) 0.69177(9) 0.3342(2)
C130 C 0.28767(10) 0.33606(13) 0.4275(2)
C131 C 0.66940(13) 0.71506(9) 0.2391(2)
H82 H 0.3086 0.3576 0.4664
H83 H 0.6910 0.7157 0.2002
Cu7 Cu 0.934510(14) 0.445100(10) 0.01274(2)
Cu8 Cu 0.177257(10) 0.398823(14) 0.34607(2)
Cu10 Cu 0.510590(10) 0.065490(14) 0.01274(2)
Cu11 Cu 0.156077(10) 0.267843(14) 0.32059(2)
Cu12 Cu 0.601177(14) 0.778433(10) 0.34607(2)
Cu14 Cu 0.732157(14) 0.888233(10) 0.32059(2)
Cu17 Cu 0.481330(10) 0.462790(10) 0.13294(2)
Cu18 Cu 0.685207(14) 0.814663(10) 0.20039(2)
Cu24 Cu 0.203877(10) 0.351873(14) 0.46627(2)
Cu25 Cu 0.351873(14) 0.147997(10) 0.53373(2)
Cu26 Cu 0.796123(10) 0.648127(14) 0.53373(2)
Cu29 Cu 0.129457(10) 0.314793(14) 0.20039(2)
Cu32 Cu 0.863170(13) 0.453660(9) 0.16639(2)
Cu33 Cu 0.803497(13) 0.879673(9) 0.16694(2)
Cu38 Cu 0.590490(10) 0.136830(13) 0.16639(2)
Cu39 Cu 0.470163(13) 0.213007(9) 0.50028(2)
Cu40 Cu 0.742843(10) 0.529837(13) 0.50028(2)
Cu44 Cu 0.529837(13) 0.786993(9) 0.49972(2)
Cu45 Cu 0.257157(10) 0.470163(13) 0.49972(2)
N10 N 0.46021(8) 0.50872(8) 0.16961(16)
N11 N 0.17539(8) 0.38184(11) 0.16372(16)
N12 N 0.61816(11) 0.79354(8) 0.16372(16)
N16 N 0.45138(9) 0.53469(8) 0.11409(17)
N17 N 0.20136(8) 0.41664(12) 0.21924(17)
N21 N 0.44401(8) 0.55773(8) 0.23242(17)
N22 N 0.22440(8) 0.44705(11) 0.10091(17)
N25 N 0.22554(8) 0.29358(11) 0.35435(17)
N26 N 0.62692(11) 0.73471(7) 0.31231(17)
N28 N 0.40138(7) 0.44113(8) 0.02102(17)
N30 N 0.10780(8) 0.37308(11) 0.31231(17)
N33 N 0.24401(8) 0.32703(11) 0.41421(17)
N34 N 0.66037(11) 0.74969(7) 0.25245(17)
N36 N 0.41636(7) 0.42266(8) 0.08088(17)
N40 N 0.29889(8) 0.31027(11) 0.37785(16)
N41 N 0.64361(11) 0.67805(7) 0.28881(16)
O14 O 0.1666 0.3332 0.3333
O19 O 0.74690(8) 0.84614(6) 0.25711(12)
O20 O 0.91977(8) 0.48719(6) 0.07622(12)
O21 O 0.23409(6) 0.41356(8) 0.40955(12)
O24 O 0.61335(8) 0.48543(11) 0.02691(19)
O25 O 0.51457(11) 0.12793(8) 0.02691(19)
O27 O 0.53874(8) 0.71998(8) 0.36024(19)
O29 O 0.87207(8) 0.38665(8) 0.02691(19)
O30 O 0.18124(11) 0.46126(8) 0.36024(19)
O31 O 0.61107(7) 0.43522(11) 0.12114(16)
O32 O 0.56478(11) 0.17586(8) 0.12114(16)
O34 O 0.49081(8) 0.72226(7) 0.45447(16)
O36 O 0.82414(8) 0.38893(7) 0.12114(16)
O37 O 0.84252(8) 0.94441(7) 0.21220(16)
O39 O 0.82459(7) 0.47427(10) 0.10626(16)
O40 O 0.52573(10) 0.35033(7) 0.10626(16)
O42 O 0.31634(7) 0.50874(7) 0.43959(16)
O45 O 0.84207(7) 0.85907(10) 0.22708(16)
O47 O 0.76411(11) 0.43913(16) 0.1902(2)
O48 O 0.56087(16) 0.32499(11) 0.1902(2)
O50 O 0.34168(11) 0.56922(11) 0.5235(2)
O54 O 0.45676(7) 0.41688(10) 0.23795(16)
O55 O 0.75022(10) 0.62679(7) 0.42871(16)
O62 O 0.49396(7) 0.37335(10) 0.24123(16)
O63 O 0.70669(10) 0.54606(7) 0.42543(16)
O67 O 0.87940(7) 0.50604(7) 0.24123(16)
O71 O 0.36906(7) 0.21374(9) 0.49439(14)
O72 O 0.54708(9) 0.51135(6) 0.17227(14)
O74 O 0.70239(7) 0.88041(9) 0.16106(14)
O78 O 0.43987(7) 0.24034(9) 0.43212(15)
O79 O 0.57368(9) 0.46714(6) 0.23454(15)
O83 O 0.89347(7) 0.42632(9) 0.23454(15)
O84 O 0.77320(7) 0.90701(9) 0.09879(15)
C1 C 0.49954(9) 0.29753(9) 0.6001(2)
C2 C 0.53718(10) 0.34820(10) 0.6213(2)
C3 C 0.57768(10) 0.37331(10) 0.5735(2)
H1 H 0.5822 0.3581 0.5291
C4 C 0.61154(11) 0.42103(11) 0.5913(2)
C5 C 0.60517(10) 0.44353(10) 0.6567(2)
H2 H 0.6283 0.4756 0.6698
C6 C 0.56416(10) 0.41789(9) 0.7023(2)
C7 C 0.52997(10) 0.37047(10) 0.6861(2)
H3 H 0.5024 0.3537 0.7184
C8 C 0.65463(11) 0.44911(12) 0.5375(3)
C9 C 0.56902(18) 0.39917(17) 0.8812(4)
H4 H 0.5709 0.4024 0.9386
H5 H 0.5997 0.4044 0.8606
H6 H 0.5435 0.3669 0.8669
C10 C 0.55822(11) 0.43548(10) 0.8466(2)
C11 C 0.54452(9) 0.47756(10) 0.7602(2)
H7 H 0.5406 0.4901 0.7119
C14 C 0.78498(9) 0.76297(9) 0.9793(2)
H8 H 0.8144 0.7921 0.9861
C15 C 0.78323(8) 0.72690(9) 0.93087(19)
C16 C 0.74028(9) 0.68333(9) 0.9224(2)
H9 H 0.7388 0.6585 0.8904
C17 C 0.69969(9) 0.67743(9) 0.96197(19)
C19 C 0.82761(8) 0.73481(9) 0.88718(18)
C22 C 0.61827(9) 0.62100(10) 0.9058(2)
H14 H 0.6176 0.6419 0.8669
Cu2 Cu 0.518670(10) 0.537210(10) 0.86706(2)
N1 N 0.53979(8) 0.49128(8) 0.83039(16)
N2 N 0.54862(9) 0.46531(8) 0.88591(17)
N3 N 0.55599(8) 0.44227(8) 0.76758(17)
N4 N 0.59862(7) 0.55887(8) 0.97898(17)
N5 N 0.58364(7) 0.57734(8) 0.91912(17)
N6 N 0.65528(7) 0.63222(8) 0.95548(16)
O1_2 O 0.5000 0.5001 1.0000
O3 O 0.46126(8) 0.28002(8) 0.63976(19)
O4 O 0.50919(8) 0.27774(7) 0.54553(16)
O5 O 0.68366(7) 0.49126(7) 0.56041(16)
O6 O 0.65832(11) 0.43078(11) 0.4765(2)
O9 O 0.82198(6) 0.70239(7) 0.83894(14)
O10 O 0.86619(6) 0.77320(7) 0.90121(15)
C25 C 0.79799(13) 0.50046(9) 0.6001(2)
C27 C 0.36914(9) 0.53534(13) 0.9334(2)
C30 C 0.81102(14) 0.46282(10) 0.6213(2)
C32 C 0.31847(10) 0.52231(14) 0.9546(2)
C35 C 0.79563(14) 0.42232(10) 0.5735(2)
C37 C 0.29336(10) 0.53770(14) 0.9068(2)
H17 H 0.7759 0.4178 0.5291
H19 H 0.3086 0.5574 0.8624
C40 C 0.80949(16) 0.38846(11) 0.5913(2)
C42 C 0.24564(11) 0.52384(16) 0.9246(2)
C45 C 0.83836(14) 0.39483(10) 0.6567(2)
C47 C 0.22314(10) 0.49497(14) 0.9900(2)
H20 H 0.8089 0.5140 0.9969
H21 H 0.4860 0.2950 0.9969
H22 H 0.8473 0.3717 0.6698
C48 C 0.75122(9) 0.52040(13) 0.9644(2)
C49 C 0.47960(13) 0.23083(10) 0.9644(2)
C50 C 0.85373(13) 0.43584(10) 0.7023(2)
C53 C 0.70380(10) 0.50717(14) 0.9806(2)
C54 C 0.49283(14) 0.19664(10) 0.9806(2)
C55 C 0.84050(14) 0.47003(10) 0.6861(2)
H25 H 0.6870 0.5180 0.9483
H26 H 0.4820 0.1691 0.9483
H27 H 0.8513 0.4976 0.7184
C60 C 0.79448(16) 0.34537(11) 0.5375(3)
C62 C 0.21756(12) 0.53885(16) 0.8708(3)
C63 C 0.73250(17) 0.49682(25) 0.7855(4)
C64 C 0.50318(25) 0.23569(18) 0.7855(4)
C65 C 0.83015(25) 0.43098(18) 0.8812(4)
H30 H 0.7357 0.4982 0.7281
H31 H 0.5018 0.2376 0.7281
H32 H 0.8315 0.4291 0.9386
H35 H 0.7377 0.4714 0.8061
H36 H 0.5286 0.2664 0.8061
H37 H 0.8047 0.4003 0.8606
H40 H 0.7002 0.4901 0.7998
H41 H 0.5099 0.2102 0.7998
H42 H 0.8234 0.4565 0.8669
C68 C 0.76881(10) 0.54393(15) 0.8201(2)
C69 C 0.45607(15) 0.22489(11) 0.8201(2)
C70 C 0.87726(15) 0.44178(11) 0.8466(2)
C73 C 0.81089(10) 0.59971(13) 0.9065(2)
C74 C 0.40029(13) 0.21119(9) 0.9065(2)
C75 C 0.93304(13) 0.45548(9) 0.7602(2)
H45 H 0.8234 0.6162 0.9548
H46 H 0.3838 0.2073 0.9548
H47 H 0.9495 0.4594 0.7119
C78 C 0.53892(9) 0.61792(13) 0.7394(2)
C79 C 0.28458(13) 0.41233(9) 0.5940(2)
C83 C 0.57691(9) 0.65389(13) 0.6846(2)
C84 C 0.32055(13) 0.41031(9) 0.6488(2)
C88 C 0.57036(9) 0.68868(13) 0.6460(2)
C89 C 0.35534(13) 0.45165(9) 0.6874(2)
H50 H 0.5412 0.6890 0.6528
H51 H 0.3556 0.4811 0.6806
C93 C 0.60643(9) 0.72300(12) 0.59754(19)
C94 C 0.38966(12) 0.44990(8) 0.73580(19)
C98 C 0.65000(9) 0.72362(13) 0.5891(2)
C99 C 0.39028(13) 0.40695(9) 0.7443(2)
H55 H 0.6748 0.7470 0.5571
H56 H 0.4136 0.4055 0.7763
H59 H 0.9918 0.5864 0.7763
C103 C 0.65590(9) 0.68893(13) 0.62864(19)
C104 C 0.35559(13) 0.36636(9) 0.70470(19)
C108 C 0.61977(10) 0.65361(13) 0.6753(2)
C109 C 0.32027(13) 0.36717(9) 0.6581(2)
H60 H 0.6243 0.6298 0.7003
H61 H 0.2964 0.3388 0.6331
C113 C 0.59852(9) 0.75947(12) 0.55385(18)
C114 C 0.42613(12) 0.49428(8) 0.77949(18)
C118 C 0.74074(16) 0.74497(22) 0.7354(3)
C119 C 0.41163(22) 0.33756(15) 0.5980(3)
C122 C 0.92592(16) 0.58837(22) 0.5980(3)
H65 H 0.7693 0.7547 0.7677
H66 H 0.4213 0.3187 0.5657
H69 H 0.8973 0.5787 0.5657
H70 H 0.7120 0.7258 0.7674
H71 H 0.3924 0.3471 0.5660
H74 H 0.9546 0.6076 0.5660
H75 H 0.7405 0.7735 0.7160
H76 H 0.4401 0.3663 0.6174
H79 H 0.9261 0.5599 0.6174
C123 C 0.74106(9) 0.71596(13) 0.6676(2)
C124 C 0.38262(13) 0.30823(9) 0.6658(2)
C127 C 0.92560(9) 0.61738(13) 0.6658(2)
C128 C 0.71233(10) 0.66394(13) 0.5725(2)
C129 C 0.33060(13) 0.28494(9) 0.7609(2)
C132 C 0.95433(10) 0.66940(13) 0.7609(2)
H80 H 0.6914 0.6424 0.5336
H81 H 0.3090 0.2843 0.7998
H84 H 0.9752 0.6910 0.7998
Cu4 Cu 0.822743(10) 0.601177(14) 0.65393(2)
Cu5 Cu 0.398823(14) 0.221567(10) 0.65393(2)
Cu6 Cu 0.445100(10) 0.510590(10) 0.98726(2)
Cu9 Cu 0.843923(10) 0.732157(14) 0.67941(2)
Cu13 Cu 0.267843(14) 0.111767(10) 0.67941(2)
Cu16 Cu 0.870543(10) 0.685207(14) 0.79961(2)
Cu19 Cu 0.314793(14) 0.185337(10) 0.79961(2)
Cu22 Cu 0.648127(14) 0.852003(10) 0.46627(2)
Cu34 Cu 0.923823(10) 0.803497(13) 0.83306(2)
Cu35 Cu 0.453660(9) 0.590490(10) 0.83361(2)
Cu43 Cu 0.786993(9) 0.257157(10) 0.50028(2)
N7 N 0.82461(8) 0.61816(11) 0.83628(16)
N8 N 0.38184(11) 0.20646(8) 0.83628(16)
N9 N 0.95149(11) 0.46021(8) 0.83039(16)
N13 N 0.79864(8) 0.58336(12) 0.78076(17)
N14 N 0.41664(12) 0.21529(9) 0.78076(17)
N15 N 0.91669(12) 0.45138(9) 0.88591(17)
N18 N 0.77560(8) 0.55295(11) 0.89909(17)
N19 N 0.44705(11) 0.22266(8) 0.89909(17)
N20 N 0.88628(11) 0.44401(8) 0.76758(17)
N23 N 0.77446(8) 0.70642(11) 0.64565(17)
N24 N 0.37308(11) 0.26529(7) 0.68769(17)
N27 N 0.89220(8) 0.62692(11) 0.68769(17)
N29 N 0.96025(11) 0.40138(7) 0.97898(17)
N31 N 0.75599(8) 0.67297(11) 0.58579(17)
N32 N 0.33963(11) 0.25031(7) 0.74755(17)
N35 N 0.91067(8) 0.66037(11) 0.74755(17)
N37 N 0.99370(11) 0.41636(7) 0.91912(17)
N38 N 0.70111(8) 0.68973(11) 0.62215(16)
N39 N 0.35639(11) 0.32195(7) 0.71119(16)
N42 N 0.96555(8) 0.64361(11) 0.71119(16)
O11 O 0.8334 0.6668 0.6667
O12 O 0.3332 0.1667 0.6667
O15 O 0.48719(6) 0.56742(6) 0.92378(12)
O16 O 0.76591(6) 0.58644(8) 0.59045(12)
O17 O 0.41356(8) 0.17948(6) 0.59045(12)
O18 O 0.90075(6) 0.74690(8) 0.74289(12)
O22 O 0.25310(8) 0.15386(6) 0.74289(12)
O26 O 0.81876(11) 0.53874(8) 0.63976(19)
O28 O 0.38665(8) 0.51457(11) 0.97309(19)
O33 O 0.76855(11) 0.49081(8) 0.54553(16)
O35 O 0.38893(7) 0.56478(11) 0.87886(16)
O38 O 0.89812(11) 0.84252(8) 0.78780(16)
O41 O 0.80760(10) 0.31634(7) 0.56041(16)
O43 O 0.17541(7) 0.52573(10) 0.89374(16)
O44 O 0.50874(7) 0.19240(10) 0.56041(16)
O46 O 0.98301(7) 0.84207(7) 0.77292(16)
O49 O 0.77246(16) 0.34168(11) 0.4765(2)
O51 O 0.23589(11) 0.56087(16) 0.8098(2)
O52 O 0.54324(7) 0.58312(10) 0.76205(16)
O53 O 0.24978(10) 0.37321(7) 0.57129(16)
O57 O 0.91645(10) 0.70654(7) 0.90462(16)
O58 O 0.29346(7) 0.20991(7) 0.90462(16)
O60 O 0.50604(7) 0.62665(10) 0.75877(16)
O61 O 0.29331(10) 0.45394(7) 0.57457(16)
O65 O 0.45394(7) 0.16062(7) 0.42543(16)
O68 O 0.95998(10) 0.78727(7) 0.90790(16)
O69 O 0.63094(7) 0.78626(9) 0.50561(14)
O70 O 0.45292(9) 0.48865(6) 0.82773(14)
O75 O 0.29761(7) 0.11959(9) 0.83894(14)
O76 O 0.56013(7) 0.75966(9) 0.56788(15)
O77 O 0.42632(9) 0.53286(6) 0.76546(15)
O82 O 0.80048(6) 0.56013(7) 0.43212(15)
C20_2 C 0.40741(16) 0.07830(22) 0.0687(3)
H11_2 H 0.4360 0.0880 0.1010
H12_2 H 0.3787 0.0591 0.1007
H13_2 H 0.4072 0.1068 0.0493
C21_2 C 0.40773(9) 0.04929(13) 0.0009(2)
O2_2 O 0.56742(6) 0.08023(8) 0.07622(12)
C24_2 C 0.83379(9) 0.36914(16) 0.0666(2)
C29_2 C 0.79615(10) 0.31847(17) 0.0454(2)
C34_2 C 0.75565(10) 0.29336(17) 0.0932(2)
H16_2 H 0.7511 0.3086 0.1376
C39_2 C 0.72179(11) 0.24564(19) 0.0754(2)
C44_2 C 0.72816(10) 0.22314(17) 0.0100(2)
C59_2 C 0.67870(11) 0.21756(19) 0.1292(3)
C80_2 C 0.61792(13) 0.07899(16) 0.2606(2)
C81_2 C 0.41233(9) 0.12774(16) 0.4060(2)
C85_2 C 0.65389(13) 0.07697(16) 0.3154(2)
C86_2 C 0.41031(9) 0.08975(16) 0.3512(2)
C90_2 C 0.68868(13) 0.11831(16) 0.3540(2)
C91_2 C 0.45165(9) 0.09630(16) 0.3126(2)
H52_2 H 0.6890 0.1477 0.3472
H53_2 H 0.4811 0.1254 0.3194
C95_2 C 0.72300(12) 0.11656(15) 0.40246(19)
C96_2 C 0.44990(8) 0.06023(14) 0.26420(19)
C100_2 C 0.72362(13) 0.07361(16) 0.4109(2)
C101_2 C 0.40695(9) 0.01666(16) 0.2557(2)
H57_2 H 0.7470 0.0721 0.4429
C105_2 C 0.68893(13) 0.03302(16) 0.37136(19)
C106_2 C 0.36636(9) 0.01076(16) 0.29530(19)
C110_2 C 0.65361(13) 0.03383(16) 0.3247(2)
C111_2 C 0.36717(9) 0.04689(16) 0.3419(2)
H62_2 H 0.6298 0.0054 0.2997
H63_2 H 0.3388 0.0423 0.3669
C115_2 C 0.75947(12) 0.16094(15) 0.44615(18)
C116_2 C 0.49428(8) 0.06814(14) 0.22051(18)
C120_2 C 0.74497(22) 0.00422(27) 0.2646(3)
H72_2 H 0.7258 0.0137 0.2326
H77_2 H 0.7735 0.0329 0.2840
Cu17_2 Cu 0.537210(10) 0.018540(14) 0.13294(2)
Cu25_2 Cu 0.852003(10) 0.203877(17) 0.53373(2)
O40_2 O 0.64967(7) 0.17541(12) 0.10626(16)
O48_2 O 0.67501(11) 0.23589(19) 0.1902(2)
O54_2 O 0.58312(10) 0.03987(12) 0.23795(16)
O55_2 O 0.37321(7) 0.12342(12) 0.42871(16)
O62_2 O 0.62665(10) 0.12060(12) 0.24123(16)
O71_2 O 0.78626(9) 0.15531(11) 0.49439(14)
O72_2 O 0.48865(6) 0.03572(11) 0.17227(14)
O78_2 O 0.75966(9) 0.19952(11) 0.43212(15)
O79_2 O 0.53286(6) 0.10653(11) 0.23454(15)
C1_2 C 0.70247(9) 0.20201(13) 0.6001(2)
C2_2 C 0.65180(10) 0.18898(14) 0.6213(2)
C3_2 C 0.62669(10) 0.20437(14) 0.5735(2)
H1_2 H 0.6419 0.2241 0.5291
C4_2 C 0.57897(11) 0.19051(16) 0.5913(2)
C5_2 C 0.55647(10) 0.16164(14) 0.6567(2)
H2_2 H 0.5244 0.1527 0.6698
C6_2 C 0.58211(9) 0.14627(13) 0.7023(2)
C7_2 C 0.62953(10) 0.15950(14) 0.6861(2)
H3_2 H 0.6463 0.1487 0.7184
C8_2 C 0.55089(12) 0.20552(16) 0.5375(3)
C9_2 C 0.60083(17) 0.16985(25) 0.8812(4)
H4_2 H 0.5976 0.1685 0.9386
H5_2 H 0.5956 0.1953 0.8606
H6_2 H 0.6331 0.1766 0.8669
C10_2 C 0.56452(10) 0.12274(15) 0.8466(2)
C11_2 C 0.52244(10) 0.06696(13) 0.7602(2)
H7_2 H 0.5099 0.0505 0.7119
C14_2 C 0.23703(9) 0.02201(13) 0.9793(2)
H8_2 H 0.2079 0.0223 0.9861
C15_2 C 0.27310(9) 0.05633(12) 0.93087(19)
C16_2 C 0.31667(9) 0.05695(13) 0.9224(2)
H9_2 H 0.3415 0.0803 0.8904
C17_2 C 0.32257(9) 0.02226(13) 0.96197(19)
C19_2 C 0.26519(9) 0.09280(12) 0.88718(18)
N1_2 N 0.50872(8) 0.04851(11) 0.83039(16)
N2_2 N 0.53469(8) 0.08331(12) 0.88591(17)
N3_2 N 0.55773(8) 0.11372(11) 0.76758(17)
N4_2 N 0.44113(8) 0.03975(11) 0.97898(17)
N5_2 N 0.42266(8) 0.00630(11) 0.91912(17)
N6_2 N 0.36778(8) 0.02306(11) 0.95548(16)
O3_2 O 0.71998(8) 0.18124(11) 0.63976(19)
O4_2 O 0.72226(7) 0.23145(11) 0.54553(16)
O6_2 O 0.56922(11) 0.22754(16) 0.4765(2)
O10_2 O 0.22680(7) 0.09299(9) 0.90121(15)
H21_2 H 0.7050 0.1911 0.9969
C49_2 C 0.76917(10) 0.24878(16) 0.9644(2)
C54_2 C 0.80336(10) 0.29620(17) 0.9806(2)
H26_2 H 0.8309 0.3130 0.9483
C64_2 C 0.76431(18) 0.26750(31) 0.7855(4)
H31_2 H 0.7624 0.2643 0.7281
H36_2 H 0.7336 0.2623 0.8061
H41_2 H 0.7898 0.2998 0.7998
C69_2 C 0.77511(11) 0.23119(19) 0.8201(2)
C74_2 C 0.78881(9) 0.18911(16) 0.9065(2)
H46_2 H 0.7927 0.1766 0.9548
H56_2 H 0.5945 0.0082 0.7763
C119_2 C 0.66244(15) 0.07408(27) 0.5980(3)
H65_2 H 0.2453 0.0147 0.7677
H66_2 H 0.6813 0.1027 0.5657
H71_2 H 0.6529 0.0454 0.5660
H76_2 H 0.6337 0.0739 0.6174
C123_2 C 0.28404(13) 0.02511(16) 0.6676(2)
C124_2 C 0.69177(9) 0.07440(16) 0.6658(2)
C128_2 C 0.33606(13) 0.04840(16) 0.5725(2)
C129_2 C 0.71506(9) 0.04567(16) 0.7609(2)
H80_2 H 0.3576 0.0491 0.5336
H81_2 H 0.7157 0.0248 0.7998
Cu5_2 Cu 0.778433(10) 0.177257(17) 0.65393(2)
Cu13_2 Cu 0.888233(10) 0.156077(17) 0.67941(2)
Cu19_2 Cu 0.814663(10) 0.129457(17) 0.79961(2)
Cu34_2 Cu 0.196503(13) 0.120327(16) 0.83306(2)
N8_2 N 0.79354(8) 0.17539(14) 0.83628(16)
N14_2 N 0.78471(9) 0.20136(15) 0.78076(17)
N19_2 N 0.77734(8) 0.22440(14) 0.89909(17)
N23_2 N 0.29358(11) 0.06805(14) 0.64565(17)
N24_2 N 0.73471(7) 0.10780(13) 0.68769(17)
N31_2 N 0.32703(11) 0.08303(14) 0.58579(17)
N32_2 N 0.74969(7) 0.08933(13) 0.74755(17)
N38_2 N 0.31027(11) 0.01139(14) 0.62215(16)
N39_2 N 0.67805(7) 0.03445(13) 0.71119(16)
O12_2 O 0.8333 0.1666 0.6667
O17_2 O 0.82052(6) 0.23409(10) 0.59045(12)
O22_2 O 0.84614(6) 0.09925(10) 0.74289(12)
O38_2 O 0.15748(8) 0.05559(14) 0.78780(16)
O46_2 O 0.15793(7) 0.14093(10) 0.77292(16)
O58_2 O 0.79009(7) 0.08355(10) 0.90462(16)
O65_2 O 0.83938(7) 0.29331(10) 0.42543(16)
O68_2 O 0.21273(7) 0.17271(12) 0.90790(16)
O75_2 O 0.88041(9) 0.17802(11) 0.83894(14)
C12_2 C 0.20559(9) 0.95125(13) 0.0727(2)
C13_2 C 0.24358(9) 0.98722(13) 0.0179(2)
C18_2 C 0.28644(10) 0.98694(13) 0.0086(2)
H10_2 H 0.2910 0.9631 0.0336
O1_3 O 0.4999 0.9999 -0.0000
O7_2 O 0.20991(7) 0.91645(10) 0.09538(16)
O8_2 O 0.17271(7) 0.95998(10) 0.09210(16)
C26_2 C 0.29753(9) 0.79799(13) 0.3999(2)
C31_2 C 0.34820(10) 0.81102(14) 0.3787(2)
C36_2 C 0.37331(10) 0.79563(14) 0.4265(2)
H18_2 H 0.3581 0.7759 0.4709
C41_2 C 0.42103(11) 0.80949(16) 0.4087(2)
C46_2 C 0.44353(10) 0.83836(14) 0.3433(2)
H23_2 H 0.4756 0.8473 0.3302
H24_2 H 0.5140 0.7050 0.0031
C51_2 C 0.41789(9) 0.85373(13) 0.2977(2)
C52_2 C 0.52040(13) 0.76917(16) 0.0356(2)
C56_2 C 0.37047(10) 0.84050(14) 0.3139(2)
C57_2 C 0.50717(14) 0.80336(17) 0.0194(2)
H28_2 H 0.3537 0.8513 0.2816
H29_2 H 0.5180 0.8309 0.0517
C61_2 C 0.44911(12) 0.79448(16) 0.4625(3)
C66_2 C 0.39917(17) 0.83015(25) 0.1188(4)
C67_2 C 0.49682(25) 0.76431(30) 0.2145(4)
H33_2 H 0.4024 0.8315 0.0614
H34_2 H 0.4982 0.7624 0.2719
H38_2 H 0.4044 0.8047 0.1394
H39_2 H 0.4714 0.7336 0.1939
H43_2 H 0.3669 0.8234 0.1331
H44_2 H 0.4901 0.7898 0.2002
C71_2 C 0.43548(10) 0.87726(15) 0.1534(2)
C72_2 C 0.54393(15) 0.77511(18) 0.1799(2)
C76_2 C 0.47756(10) 0.93304(13) 0.2398(2)
C77_2 C 0.59971(13) 0.78881(16) 0.0935(2)
H48_2 H 0.4901 0.9495 0.2881
H49_2 H 0.6162 0.7927 0.0452
H58_2 H 0.4055 0.9918 0.2237
C121_2 C 0.33756(15) 0.92592(27) 0.4020(3)
H67_2 H 0.7547 0.9853 0.2323
H68_2 H 0.3187 0.8973 0.4343
H73_2 H 0.3471 0.9546 0.4340
H78_2 H 0.3663 0.9261 0.3826
C125_2 C 0.71596(13) 0.97489(16) 0.3324(2)
C126_2 C 0.30823(9) 0.92560(16) 0.3342(2)
C130_2 C 0.66394(13) 0.95160(16) 0.4275(2)
C131_2 C 0.28494(9) 0.95433(16) 0.2391(2)
H82_2 H 0.6424 0.9509 0.4664
H83_2 H 0.2843 0.9752 0.2002
Cu12_2 Cu 0.221567(10) 0.822743(17) 0.34607(2)
Cu14_2 Cu 0.111767(10) 0.843923(17) 0.32059(2)
Cu18_2 Cu 0.185337(10) 0.870543(17) 0.20039(2)
Cu33_2 Cu 0.120327(9) 0.923823(16) 0.16694(2)
N10_2 N 0.49128(8) 0.95149(11) 0.16961(16)
N12_2 N 0.20646(8) 0.82461(14) 0.16372(16)
N16_2 N 0.46531(8) 0.91669(12) 0.11409(17)
N17_2 N 0.58336(12) 0.78471(14) 0.21924(17)
N21_2 N 0.44227(8) 0.88628(11) 0.23242(17)
N22_2 N 0.55295(11) 0.77734(14) 0.10091(17)
N25_2 N 0.70642(11) 0.93195(14) 0.35435(17)
N26_2 N 0.26529(7) 0.89220(13) 0.31231(17)
N28_2 N 0.55887(8) 0.96025(11) 0.02102(17)
N33_2 N 0.67297(11) 0.91697(14) 0.41421(17)
N34_2 N 0.25031(7) 0.91067(13) 0.25245(17)
N36_2 N 0.57734(8) 0.99370(11) 0.08088(17)
N40_2 N 0.68973(11) 0.98861(14) 0.37785(16)
N41_2 N 0.32195(7) 0.96555(13) 0.28881(16)
O14_2 O 0.6668 0.8333 0.3333
O19_2 O 0.15386(6) 0.90075(10) 0.25711(12)
O21_2 O 0.58644(8) 0.82052(10) 0.40955(12)
O27_2 O 0.28002(8) 0.81876(11) 0.36024(19)
O34_2 O 0.27774(7) 0.76855(11) 0.45447(16)
O37_2 O 0.05559(7) 0.89812(11) 0.21220(16)
O42_2 O 0.49126(7) 0.80760(10) 0.43959(16)
O45_2 O 0.14093(10) 0.98301(12) 0.22708(16)
O50_2 O 0.43078(11) 0.77246(16) 0.5235(2)
O74_2 O 0.11959(9) 0.82198(11) 0.16106(14)
O84_2 O 0.09299(9) 0.86619(11) 0.09879(15)
C22_2 C 0.37900(10) 0.99727(13) 0.9058(2)
H14_2 H 0.3581 0.9757 0.8669
Cu2_2 Cu 0.462790(10) 0.981460(14) 0.86706(2)
O1_4 O 0.4999 0.9999 1.0000
C27_2 C 0.46466(13) 0.83379(16) 0.9334(2)
C32_2 C 0.47769(14) 0.79615(17) 0.9546(2)
C37_2 C 0.46230(14) 0.75565(17) 0.9068(2)
H19_2 H 0.4426 0.7511 0.8624
C42_2 C 0.47616(16) 0.72179(19) 0.9246(2)
C47_2 C 0.50503(14) 0.72816(17) 0.9900(2)
C62_2 C 0.46115(16) 0.67870(20) 0.8708(3)
C78_2 C 0.38208(13) 0.92101(16) 0.7394(2)
C79_2 C 0.58767(9) 0.87226(16) 0.5940(2)
C83_2 C 0.34611(13) 0.92303(16) 0.6846(2)
C84_2 C 0.58969(9) 0.91025(16) 0.6488(2)
C88_2 C 0.31132(13) 0.88169(16) 0.6460(2)
C89_2 C 0.54835(9) 0.90370(16) 0.6874(2)
H50_2 H 0.3110 0.8523 0.6528
H51_2 H 0.5189 0.8746 0.6806
C93_2 C 0.27700(12) 0.88344(15) 0.59754(19)
C94_2 C 0.55010(8) 0.93977(14) 0.73580(19)
C98_2 C 0.27638(13) 0.92639(16) 0.5891(2)
C99_2 C 0.59305(9) 0.98334(16) 0.7443(2)
H55_2 H 0.2530 0.9279 0.5571
C103_2 C 0.31107(13) 0.96698(16) 0.62864(19)
C104_2 C 0.63364(9) 0.98924(16) 0.70470(19)
C108_2 C 0.34639(13) 0.96617(16) 0.6753(2)
C109_2 C 0.63283(9) 0.95311(16) 0.6581(2)
H60_2 H 0.3702 0.9946 0.7003
H61_2 H 0.6612 0.9577 0.6331
C113_2 C 0.24053(12) 0.83906(15) 0.55385(18)
C114_2 C 0.50572(8) 0.93186(14) 0.77949(18)
C118_2 C 0.25503(22) 0.99578(27) 0.7354(3)
H70_2 H 0.2742 0.9863 0.7674
H75_2 H 0.2265 0.9671 0.7160
Cu6_2 Cu 0.489410(10) 0.934510(14) 0.98726(2)
Cu35_2 Cu 0.409510(10) 0.863170(13) 0.83361(2)
O15_2 O 0.43258(6) 0.91977(8) 0.92378(12)
O28_2 O 0.48543(11) 0.87207(14) 0.97309(19)
O35_2 O 0.43522(11) 0.82414(13) 0.87886(16)
O43_2 O 0.47427(10) 0.64967(12) 0.89374(16)
O51_2 O 0.43913(16) 0.67501(19) 0.8098(2)
O52_2 O 0.41688(10) 0.96013(12) 0.76205(16)
O53_2 O 0.62679(7) 0.87658(12) 0.57129(16)
O60_2 O 0.37335(10) 0.87940(12) 0.75877(16)
O61_2 O 0.54606(7) 0.83938(12) 0.57457(16)
O69_2 O 0.21374(9) 0.84469(11) 0.50561(14)
O70_2 O 0.51135(6) 0.96428(11) 0.82773(14)
O76_2 O 0.24034(9) 0.80048(11) 0.56788(15)
O77_2 O 0.46714(6) 0.89347(11) 0.76546(15)
C12_3 C 0.04875(13) 0.25434(9) 0.0727(2)
C13_3 C 0.01278(13) 0.25636(9) 0.0179(2)
C18_3 C 0.01306(13) 0.29950(9) 0.0086(2)
H10_3 H 0.0369 0.3279 0.0336
O7_3 O 0.08355(10) 0.29346(7) 0.09538(16)
O8_3 O 0.04002(10) 0.21273(7) 0.09210(16)
C26_3 C 0.20201(13) 0.49954(9) 0.3999(2)
C31_3 C 0.18898(14) 0.53718(10) 0.3787(2)
C36_3 C 0.20437(14) 0.57768(10) 0.4265(2)
H18_3 H 0.2241 0.5822 0.4709
C41_3 C 0.19051(16) 0.61154(11) 0.4087(2)
C46_3 C 0.16164(14) 0.60517(10) 0.3433(2)
H23_3 H 0.1527 0.6283 0.3302
H24_3 H 0.2950 0.8089 0.0031
C51_3 C 0.14627(13) 0.56416(10) 0.2977(2)
C52_3 C 0.23083(16) 0.75122(9) 0.0356(2)
C56_3 C 0.15950(14) 0.52997(10) 0.3139(2)
C57_3 C 0.19664(17) 0.70380(10) 0.0194(2)
H28_3 H 0.1487 0.5024 0.2816
H29_3 H 0.1691 0.6870 0.0517
C61_3 C 0.20552(16) 0.65463(11) 0.4625(3)
C66_3 C 0.16985(25) 0.56902(18) 0.1188(4)
C67_3 C 0.23569(30) 0.73250(17) 0.2145(4)
H33_3 H 0.1685 0.5709 0.0614
H34_3 H 0.2376 0.7357 0.2719
H38_3 H 0.1953 0.5997 0.1394
H39_3 H 0.2664 0.7377 0.1939
H43_3 H 0.1766 0.5435 0.1331
H44_3 H 0.2102 0.7002 0.2002
C71_3 C 0.12274(15) 0.55822(11) 0.1534(2)
C72_3 C 0.22489(18) 0.76881(10) 0.1799(2)
C76_3 C 0.06696(13) 0.54452(9) 0.2398(2)
C77_3 C 0.21119(16) 0.81089(10) 0.0935(2)
H48_3 H 0.0505 0.5406 0.2881
H49_3 H 0.2073 0.8234 0.0452
H58_3 H 0.0082 0.4136 0.2237
C121_3 C 0.07408(27) 0.41163(22) 0.4020(3)
H67_3 H 0.0147 0.7693 0.2323
H68_3 H 0.1027 0.4213 0.4343
H73_3 H 0.0454 0.3924 0.4340
H78_3 H 0.0739 0.4401 0.3826
C125_3 C 0.02511(16) 0.74106(9) 0.3324(2)
C126_3 C 0.07440(16) 0.38262(13) 0.3342(2)
C130_3 C 0.04840(16) 0.71233(10) 0.4275(2)
C131_3 C 0.04567(16) 0.33060(13) 0.2391(2)
H82_3 H 0.0491 0.6914 0.4664
H83_3 H 0.0248 0.3090 0.2002
Cu33_3 Cu 0.076177(16) 0.196503(13) 0.16694(2)
N10_3 N 0.04851(11) 0.53979(8) 0.16961(16)
N16_3 N 0.08331(12) 0.54862(9) 0.11409(17)
N17_3 N 0.21529(14) 0.79864(8) 0.21924(17)
N21_3 N 0.11372(11) 0.55599(8) 0.23242(17)
N22_3 N 0.22266(14) 0.77560(8) 0.10091(17)
N25_3 N 0.06805(14) 0.77446(8) 0.35435(17)
N28_3 N 0.03975(11) 0.59862(7) 0.02102(17)
N33_3 N 0.08303(14) 0.75599(8) 0.41421(17)
N34_3 N 0.08933(13) 0.33963(11) 0.25245(17)
N36_3 N 0.00630(11) 0.58364(7) 0.08088(17)
N40_3 N 0.01139(14) 0.70111(8) 0.37785(16)
N41_3 N 0.03445(13) 0.35639(11) 0.28881(16)
O14_3 O 0.1667 0.8334 0.3333
O19_3 O 0.09925(10) 0.25310(8) 0.25711(12)
O21_3 O 0.17948(10) 0.76591(6) 0.40955(12)
O34_3 O 0.23145(11) 0.50919(8) 0.45447(16)
O37_3 O 0.10188(11) 0.15748(8) 0.21220(16)
O42_3 O 0.19240(10) 0.68366(7) 0.43959(16)
O45_3 O 0.01699(12) 0.15793(7) 0.22708(16)
O50_3 O 0.22754(16) 0.65832(11) 0.5235(2)
O74_3 O 0.17802(11) 0.29761(7) 0.16106(14)
O84_3 O 0.13381(11) 0.22680(7) 0.09879(15)
C22_3 C 0.00273(13) 0.38173(9) 0.9058(2)
H14_3 H 0.0243 0.3824 0.8669
C27_3 C 0.16621(16) 0.63086(9) 0.9334(2)
C32_3 C 0.20385(17) 0.68153(10) 0.9546(2)
C37_3 C 0.24435(17) 0.70664(10) 0.9068(2)
H19_3 H 0.2489 0.6914 0.8624
C42_3 C 0.27821(19) 0.75436(11) 0.9246(2)
C47_3 C 0.27184(17) 0.77686(10) 0.9900(2)
C62_3 C 0.32130(20) 0.78244(12) 0.8708(3)
C78_3 C 0.07899(16) 0.46108(9) 0.7394(2)
C83_3 C 0.07697(16) 0.42309(9) 0.6846(2)
C88_3 C 0.11831(16) 0.42964(9) 0.6460(2)
H50_3 H 0.1477 0.4588 0.6528
C93_3 C 0.11656(15) 0.39357(9) 0.59754(19)
C98_3 C 0.07361(16) 0.35000(9) 0.5891(2)
H55_3 H 0.0721 0.3252 0.5571
C103_3 C 0.03302(16) 0.34410(9) 0.62864(19)
C108_3 C 0.03383(16) 0.38023(10) 0.6753(2)
H60_3 H 0.0054 0.3757 0.7003
C113_3 C 0.16094(15) 0.40148(9) 0.55385(18)
C118_3 C 0.00422(27) 0.25926(16) 0.7354(3)
H70_3 H 0.0137 0.2880 0.7674
H75_3 H 0.0329 0.2595 0.7160
O28_3 O 0.12793(14) 0.61335(8) 0.97309(19)
O35_3 O 0.17586(13) 0.61107(7) 0.87886(16)
O43_3 O 0.35033(12) 0.82459(7) 0.89374(16)
O51_3 O 0.32499(19) 0.76411(11) 0.8098(2)
O60_3 O 0.12060(12) 0.49396(7) 0.75877(16)
O69_3 O 0.15531(11) 0.36906(7) 0.50561(14)
O76_3 O 0.19952(11) 0.43987(7) 0.56788(15)
C20_3 C 0.92170(22) 0.32911(15) 0.0687(3)
H11_3 H 0.9120 0.3480 0.1010
H12_3 H 0.9409 0.3196 0.1007
H13_3 H 0.8932 0.3004 0.0493
C21_3 C 0.95071(13) 0.35844(9) 0.0009(2)
C80_3 C 0.92101(16) 0.53892(9) 0.2606(2)
C81_3 C 0.87226(16) 0.28458(13) 0.4060(2)
C85_3 C 0.92303(16) 0.57691(9) 0.3154(2)
C86_3 C 0.91025(16) 0.32055(13) 0.3512(2)
C90_3 C 0.88169(16) 0.57036(9) 0.3540(2)
C91_3 C 0.90370(16) 0.35534(13) 0.3126(2)
H52_3 H 0.8523 0.5412 0.3472
H53_3 H 0.8746 0.3556 0.3194
C95_3 C 0.88344(15) 0.60643(9) 0.40246(19)
C96_3 C 0.93977(14) 0.38966(12) 0.26420(19)
C100_3 C 0.92639(16) 0.65000(9) 0.4109(2)
C101_3 C 0.98334(16) 0.39028(13) 0.2557(2)
H57_3 H 0.9279 0.6748 0.4429
C105_3 C 0.96698(16) 0.65590(9) 0.37136(19)
C106_3 C 0.98924(16) 0.35559(13) 0.29530(19)
C110_3 C 0.96617(16) 0.61977(10) 0.3247(2)
C111_3 C 0.95311(16) 0.32027(13) 0.3419(2)
H62_3 H 0.9946 0.6243 0.2997
H63_3 H 0.9577 0.2964 0.3669
C115_3 C 0.83906(15) 0.59852(9) 0.44615(18)
C116_3 C 0.93186(14) 0.42613(12) 0.22051(18)
C120_3 C 0.99578(27) 0.74074(16) 0.2646(3)
H72_3 H 0.9863 0.7120 0.2326
H77_3 H 0.9671 0.7405 0.2840
Cu17_3 Cu 0.981460(14) 0.518670(10) 0.13294(2)
O54_3 O 0.96013(12) 0.54324(7) 0.23795(16)
O55_3 O 0.87658(12) 0.24978(10) 0.42871(16)
O71_3 O 0.84469(11) 0.63094(7) 0.49439(14)
O72_3 O 0.96428(11) 0.45292(9) 0.17227(14)
C14_3 C 0.97799(13) 0.21502(9) 0.9793(2)
H8_3 H 0.9777 0.1856 0.9861
C15_3 C 0.94367(12) 0.21677(8) 0.93087(19)
C16_3 C 0.94305(13) 0.25972(9) 0.9224(2)
H9_3 H 0.9197 0.2612 0.8904
C17_3 C 0.97774(13) 0.30031(9) 0.96197(19)
C19_3 C 0.90720(12) 0.17239(8) 0.88718(18)
N6_3 N 0.97694(11) 0.34472(7) 0.95548(16)
O10_3 O 0.90701(9) 0.13381(6) 0.90121(15)
H65_3 H 0.9853 0.2307 0.7677
C123_3 C 0.97489(16) 0.25894(9) 0.6676(2)
C128_3 C 0.95160(16) 0.28767(10) 0.5725(2)
H80_3 H 0.9509 0.3086 0.5336
Cu34_3 Cu 0.879673(16) 0.076177(10) 0.83306(2)
N23_3 N 0.93195(14) 0.22554(8) 0.64565(17)
N31_3 N 0.91697(14) 0.24401(8) 0.58579(17)
N38_3 N 0.98861(14) 0.29889(8) 0.62215(16)
O38_3 O 0.94441(14) 0.10188(11) 0.78780(16)
O46_3 O 0.85907(10) 0.01699(7) 0.77292(16)
O68_3 O 0.82729(12) 0.04002(10) 0.90790(16)
C26_4 C 0.16713(9) 0.03580(9) 0.7332(2)
C132_2 C 0.62100(10) 0.00273(13) 0.0942(2)
H84_2 H 0.6419 0.0243 0.1331
N12_3 N 0.28482(11) 0.12688(8) 0.49706(16)
O11_2 O 0.5001 0.0001 -0.0000
O27_3 O 0.20541(8) 0.05331(8) 0.69357(19)
C82_2 C 0.79441(9) 0.04875(13) 0.9273(2)
C87_2 C 0.75642(9) 0.01278(13) 0.9821(2)
C112_2 C 0.71356(10) 0.01306(13) 0.9914(2)
H64_2 H 0.7090 0.0369 0.9664
O11_3 O 0.5001 0.0001 1.0000
C27_4 C 0.03580(9) 0.86868(13) 0.2668(2)
C31_4 C 0.12949(10) 0.98513(10) 0.7120(2)
C36_4 C 0.08899(10) 0.96002(10) 0.7598(2)
H18_4 H 0.0845 0.9752 0.8042
C41_4 C 0.05513(11) 0.91230(11) 0.7420(2)
C46_4 C 0.06150(10) 0.88980(10) 0.6766(2)
H23_4 H 0.0384 0.8577 0.6635
C51_4 C 0.10251(10) 0.91544(9) 0.6310(2)
C56_4 C 0.13670(10) 0.96286(10) 0.6472(2)
H28_4 H 0.1643 0.9796 0.6149
C61_4 C 0.01204(11) 0.88422(12) 0.7958(3)
C66_4 C 0.09765(18) 0.93416(17) 0.4521(4)
H33_4 H 0.0958 0.9309 0.3947
H38_4 H 0.0670 0.9289 0.4727
H43_4 H 0.1232 0.9664 0.4664
C71_4 C 0.10845(11) 0.89785(10) 0.4867(2)
C76_4 C 0.12215(9) 0.85577(10) 0.5731(2)
H48_4 H 0.1261 0.8432 0.6214
C89_3 C 0.02201(13) 0.78498(9) 0.0207(2)
C92_2 C 0.76297(9) 0.97799(13) 0.0207(2)
H51_3 H 0.0223 0.8144 0.0139
H54_2 H 0.7921 0.9777 0.0139
C94_3 C 0.05633(12) 0.78323(8) 0.06913(19)
C97_2 C 0.72690(9) 0.94367(12) 0.06913(19)
C99_3 C 0.05695(13) 0.74028(9) 0.0776(2)
C102_2 C 0.68333(9) 0.94305(13) 0.0776(2)
H56_3 H 0.0803 0.7388 0.1096
H59_2 H 0.6585 0.9197 0.1096
C104_3 C 0.02226(13) 0.69969(9) 0.03803(19)
C107_2 C 0.67743(9) 0.97774(13) 0.03803(19)
C114_3 C 0.09280(12) 0.82761(8) 0.11282(18)
C117_2 C 0.73481(9) 0.90720(12) 0.11282(18)
N10_4 N 0.12688(8) 0.84205(8) 0.50294(16)
N16_4 N 0.11805(9) 0.86802(8) 0.44742(17)
N21_4 N 0.11068(8) 0.89106(8) 0.56575(17)
N39_3 N 0.02306(11) 0.65528(7) 0.04452(16)
N42_2 N 0.63222(8) 0.97694(11) 0.04452(16)
O28_4 O 0.05331(8) 0.84791(11) 0.30643(19)
O50_4 O 0.00835(11) 0.90255(11) 0.8568(2)
C119_3 C 0.07830(22) 0.67089(15) 0.9313(3)
C122_2 C 0.59259(16) 0.92170(22) 0.9313(3)
H66_3 H 0.0880 0.6520 0.8990
H69_2 H 0.5640 0.9120 0.8990
H71_3 H 0.0591 0.6804 0.8993
H74_2 H 0.6213 0.9409 0.8993
H76_3 H 0.1068 0.6996 0.9507
H79_2 H 0.5928 0.8932 0.9507
C124_3 C 0.04929(13) 0.64156(9) 0.9991(2)
C127_2 C 0.59227(9) 0.95071(13) 0.9991(2)
C32_4 C 0.98513(10) 0.85565(14) 0.2880(2)
C37_4 C 0.96002(10) 0.87104(14) 0.2402(2)
H19_4 H 0.9752 0.8908 0.1958
C42_4 C 0.91230(11) 0.85718(16) 0.2580(2)
C47_4 C 0.88980(10) 0.82831(14) 0.3234(2)
H24_4 H 0.8577 0.8194 0.3365
C52_4 C 0.91544(9) 0.81294(13) 0.3690(2)
C57_4 C 0.96286(10) 0.82617(14) 0.3528(2)
H29_4 H 0.9796 0.8154 0.3851
C62_4 C 0.88422(12) 0.87219(16) 0.2042(3)
C67_4 C 0.93416(17) 0.83652(25) 0.5479(4)
H34_4 H 0.9309 0.8352 0.6053
H39_4 H 0.9289 0.8620 0.5273
H44_4 H 0.9664 0.8433 0.5336
C72_4 C 0.89785(10) 0.78941(15) 0.5133(2)
C77_4 C 0.85577(10) 0.73363(13) 0.4269(2)
H49_4 H 0.8432 0.7172 0.3786
C129_3 C 0.99727(13) 0.61827(9) 0.0942(2)
H81_3 H 0.9757 0.6176 0.1331
N11_2 N 0.84205(8) 0.71518(11) 0.49706(16)
N17_4 N 0.86802(8) 0.74998(12) 0.55258(17)
N22_4 N 0.89106(8) 0.78039(11) 0.43425(17)
O12_3 O 0.9999 0.5000 -0.0000
O30_2 O 0.84791(11) 0.79459(8) 0.69357(19)
O51_4 O 0.90255(11) 0.89421(16) 0.1432(2)
C79_3 C 0.95125(13) 0.74566(9) 0.9273(2)
C84_3 C 0.98722(13) 0.74364(9) 0.9821(2)
C109_3 C 0.98694(13) 0.70050(9) 0.9914(2)
H61_3 H 0.9631 0.6721 0.9664
O12_4 O 0.9999 0.5000 1.0000
C27_5 C 0.13132(13) 0.16713(16) 0.2668(2)
C31_5 C 0.01487(10) 0.14435(14) 0.7120(2)
C32_5 C 0.14435(14) 0.12949(17) 0.2880(2)
C36_5 C 0.03998(10) 0.12896(14) 0.7598(2)
C37_5 C 0.12896(14) 0.08899(17) 0.2402(2)
H18_5 H 0.0248 0.1092 0.8042
H19_5 H 0.1092 0.0845 0.1958
C41_5 C 0.08770(11) 0.14282(16) 0.7420(2)
C42_5 C 0.14282(16) 0.05513(19) 0.2580(2)
C46_5 C 0.11020(10) 0.17169(14) 0.6766(2)
C47_5 C 0.17169(14) 0.06150(17) 0.3234(2)
H23_5 H 0.1423 0.1806 0.6635
H24_5 H 0.1806 0.0384 0.3365
C51_5 C 0.08456(9) 0.18706(13) 0.6310(2)
C52_5 C 0.18706(13) 0.10251(16) 0.3690(2)
C56_5 C 0.03714(10) 0.17383(14) 0.6472(2)
C57_5 C 0.17383(14) 0.13670(17) 0.3528(2)
H28_5 H 0.0204 0.1846 0.6149
H29_5 H 0.1846 0.1643 0.3851
C61_5 C 0.11578(12) 0.12781(16) 0.7958(3)
C62_5 C 0.12781(16) 0.01204(20) 0.2042(3)
C66_5 C 0.06584(17) 0.16348(25) 0.4521(4)
C67_5 C 0.16348(25) 0.09765(30) 0.5479(4)
H33_5 H 0.0691 0.1648 0.3947
H34_5 H 0.1648 0.0958 0.6053
H38_5 H 0.0711 0.1380 0.4727
H39_5 H 0.1380 0.0670 0.5273
H43_5 H 0.0336 0.1567 0.4664
H44_5 H 0.1567 0.1232 0.5336
C71_5 C 0.10215(10) 0.21059(15) 0.4867(2)
C72_5 C 0.21059(15) 0.10845(18) 0.5133(2)
C76_5 C 0.14423(10) 0.26637(13) 0.5731(2)
C77_5 C 0.26637(13) 0.12215(16) 0.4269(2)
H48_5 H 0.1568 0.2828 0.6214
H49_5 H 0.2828 0.1261 0.3786
C89_4 C 0.21502(9) 0.23703(16) 0.0207(2)
H51_4 H 0.1856 0.2079 0.0139
C94_4 C 0.21677(8) 0.27310(14) 0.06913(19)
C99_4 C 0.25972(9) 0.31667(16) 0.0776(2)
H56_4 H 0.2612 0.3415 0.1096
C104_4 C 0.30031(9) 0.32257(16) 0.03803(19)
C114_4 C 0.17239(8) 0.26519(14) 0.11282(18)
C129_4 C 0.38173(9) 0.37900(16) 0.0942(2)
H81_4 H 0.3824 0.3581 0.1331
N10_5 N 0.15795(8) 0.28482(11) 0.50294(16)
N16_5 N 0.13198(8) 0.25002(12) 0.44742(17)
N17_5 N 0.25002(12) 0.11805(14) 0.55258(17)
N21_5 N 0.10894(8) 0.21961(11) 0.56575(17)
N22_5 N 0.21961(11) 0.11068(14) 0.43425(17)
N39_4 N 0.34472(7) 0.36778(13) 0.04452(16)
O28_5 O 0.15209(11) 0.20541(14) 0.30643(19)
O50_5 O 0.09745(11) 0.10579(16) 0.8568(2)
O51_5 O 0.10579(16) 0.00835(19) 0.1432(2)
C79_4 C 0.25434(9) 0.20559(16) 0.9273(2)
C84_4 C 0.25636(9) 0.24358(16) 0.9821(2)
C109_4 C 0.29950(9) 0.28644(16) 0.9914(2)
H61_4 H 0.3279 0.2910 0.9664
C119_4 C 0.32911(15) 0.40741(27) 0.9313(3)
H66_4 H 0.3480 0.4360 0.8990
H71_4 H 0.3196 0.3787 0.8993
H76_4 H 0.3004 0.4072 0.9507
C124_4 C 0.35844(9) 0.40773(16) 0.9991(2)
C26_5 C 0.96420(9) 0.13132(13) 0.7332(2)
N12_4 N 0.87312(8) 0.15795(14) 0.49706(16)
O27_4 O 0.94669(8) 0.15209(11) 0.69357(19)
C32_6 C 0.87051(17) 0.01487(10) 0.2880(2)
C37_6 C 0.91101(17) 0.03998(10) 0.2402(2)
H19_6 H 0.9155 0.0248 0.1958
C42_6 C 0.94487(19) 0.08770(11) 0.2580(2)
C47_6 C 0.93850(17) 0.11020(10) 0.3234(2)
H24_6 H 0.9616 0.1423 0.3365
C52_6 C 0.89749(16) 0.08456(9) 0.3690(2)
C57_6 C 0.86330(17) 0.03714(10) 0.3528(2)
H29_6 H 0.8357 0.0204 0.3851
C62_6 C 0.98796(20) 0.11578(12) 0.2042(3)
C67_6 C 0.90235(30) 0.06584(17) 0.5479(4)
H34_6 H 0.9042 0.0691 0.6053
H39_6 H 0.9330 0.0711 0.5273
H44_6 H 0.8768 0.0336 0.5336
C72_6 C 0.89155(18) 0.10215(10) 0.5133(2)
C77_6 C 0.87785(16) 0.14423(10) 0.4269(2)
H49_6 H 0.8739 0.1568 0.3786
N17_6 N 0.88195(14) 0.13198(8) 0.55258(17)
N22_6 N 0.88932(14) 0.10894(8) 0.43425(17)
O51_6 O 0.99165(19) 0.09745(11) 0.1432(2)
C26_6 C 0.86868(13) 0.83287(9) 0.7332(2)
C27_6 C 0.83287(16) 0.96420(9) 0.2668(2)
C31_6 C 0.85565(14) 0.87051(10) 0.7120(2)
C36_6 C 0.87104(14) 0.91101(10) 0.7598(2)
H18_6 H 0.8908 0.9155 0.8042
C41_6 C 0.85718(16) 0.94487(11) 0.7420(2)
C46_6 C 0.82831(14) 0.93850(10) 0.6766(2)
H23_6 H 0.8194 0.9616 0.6635
C51_6 C 0.81294(13) 0.89749(10) 0.6310(2)
C56_6 C 0.82617(14) 0.86330(10) 0.6472(2)
H28_6 H 0.8154 0.8357 0.6149
C61_6 C 0.87219(16) 0.98796(11) 0.7958(3)
C66_6 C 0.83652(25) 0.90235(18) 0.4521(4)
H33_6 H 0.8352 0.9042 0.3947
H38_6 H 0.8620 0.9330 0.4727
H43_6 H 0.8433 0.8768 0.4664
C71_6 C 0.78941(15) 0.89155(11) 0.4867(2)
C76_6 C 0.73363(13) 0.87785(9) 0.5731(2)
H48_6 H 0.7172 0.8739 0.6214
N10_6 N 0.71518(11) 0.87312(8) 0.50294(16)
N16_6 N 0.74998(12) 0.88195(9) 0.44742(17)
N21_6 N 0.78039(11) 0.88932(8) 0.56575(17)
O28_6 O 0.79459(14) 0.94669(8) 0.30643(19)
O50_6 O 0.89421(16) 0.99165(11) 0.8568(2)
N43 N 0.2481(2) 0.2273(2) 0.5693(4)
O85 O 0.23915(19) 0.2144(2) 0.4965(4)
O86 O 0.22521(19) 0.2062(2) 0.6320(4)
O87 O 0.28700(19) 0.2675(2) 0.5699(4)
N43_2 N 0.7727(2) 0.0208(3) 0.5693(4)
O85_2 O 0.7856(2) 0.02475(28) 0.4965(4)
O86_2 O 0.7938(2) 0.01901(28) 0.6320(4)
O87_2 O 0.7325(2) 0.01950(28) 0.5699(4)
N43_3 N 0.9792(3) 0.7519(2) 0.5693(4)
O85_3 O 0.97525(28) 0.76085(19) 0.4965(4)
O86_3 O 0.98099(28) 0.77479(19) 0.6320(4)
O87_3 O 0.98050(28) 0.71300(19) 0.5699(4)
N43_4 N 0.9148(2) 0.5606(2) 0.9026(4)
O85_4 O 0.90582(19) 0.5477(2) 0.8298(4)
O86_4 O 0.89188(19) 0.5395(2) 0.9653(4)
O87_4 O 0.95367(19) 0.6008(2) 0.9032(4)
N43_5 N 0.4394(2) 0.3541(3) 0.9026(4)
O85_5 O 0.4523(2) 0.35808(28) 0.8298(4)
O86_5 O 0.4605(2) 0.35234(28) 0.9653(4)
O87_5 O 0.3992(2) 0.35283(28) 0.9032(4)
N43_6 N 0.6459(3) 0.0852(2) 0.9026(4)
O85_6 O 0.64192(28) 0.09418(19) 0.8298(4)
O86_6 O 0.64766(28) 0.10812(19) 0.9653(4)
O87_6 O 0.64717(28) 0.04633(19) 0.9032(4)
N43_7 N 0.5814(2) 0.8940(2) 0.2360(4)
O85_7 O 0.57248(19) 0.8811(2) 0.1632(4)
O86_7 O 0.55854(19) 0.8729(2) 0.2987(4)
O87_7 O 0.62033(19) 0.9342(2) 0.2366(4)
N43_8 N 0.1060(2) 0.6875(3) 0.2360(4)
O85_8 O 0.1189(2) 0.69142(28) 0.1632(4)
O86_8 O 0.1271(2) 0.68568(28) 0.2987(4)
O87_8 O 0.0658(2) 0.68617(28) 0.2366(4)
N43_9 N 0.3125(3) 0.4186(2) 0.2360(4)
O85_9 O 0.30858(28) 0.42752(19) 0.1632(4)
O86_9 O 0.31432(28) 0.44146(19) 0.2987(4)
O87_9 O 0.31383(28) 0.37967(19) 0.2366(4)
N43_10 N 0.7519(2) 0.7727(2) 0.4307(4)
O85_10 O 0.76085(19) 0.7856(2) 0.5035(4)
O86_10 O 0.77479(19) 0.7938(2) 0.3680(4)
O87_10 O 0.71300(19) 0.7325(2) 0.4301(4)
N43_11 N 0.2273(2) 0.9792(3) 0.4307(4)
O85_11 O 0.2144(2) 0.97525(28) 0.5035(4)
O86_11 O 0.2062(2) 0.98099(28) 0.3680(4)
O87_11 O 0.2675(2) 0.98050(28) 0.4301(4)
N43_12 N 0.0208(3) 0.2481(2) 0.4307(4)
O85_12 O 0.02475(28) 0.23915(19) 0.5035(4)
O86_12 O 0.01901(28) 0.22521(19) 0.3680(4)
O87_12 O 0.01950(28) 0.28700(19) 0.4301(4)
N43_13 N 0.0852(2) 0.4394(2) 0.0974(4)
O85_13 O 0.09418(19) 0.4523(2) 0.1702(4)
O86_13 O 0.10812(19) 0.4605(2) 0.0347(4)
O87_13 O 0.04633(19) 0.3992(2) 0.0968(4)
N43_14 N 0.5606(2) 0.6459(3) 0.0974(4)
O85_14 O 0.5477(2) 0.64192(28) 0.1702(4)
O86_14 O 0.5395(2) 0.64766(28) 0.0347(4)
O87_14 O 0.6008(2) 0.64717(28) 0.0968(4)
N43_15 N 0.3541(3) 0.9148(2) 0.0974(4)
O85_15 O 0.35808(28) 0.90582(19) 0.1702(4)
O86_15 O 0.35234(28) 0.89188(19) 0.0347(4)
O87_15 O 0.35283(28) 0.95367(19) 0.0968(4)
N43_16 N 0.4186(2) 0.1060(2) 0.7640(4)
O85_16 O 0.42752(19) 0.1189(2) 0.8368(4)
O86_16 O 0.44146(19) 0.1271(2) 0.7013(4)
O87_16 O 0.37967(19) 0.0658(2) 0.7634(4)
N43_17 N 0.8940(2) 0.3125(3) 0.7640(4)
O85_17 O 0.8811(2) 0.30858(28) 0.8368(4)
O86_17 O 0.8729(2) 0.31432(28) 0.7013(4)
O87_17 O 0.9342(2) 0.31383(28) 0.7634(4)
N43_18 N 0.6875(3) 0.5814(2) 0.7640(4)
O85_18 O 0.69142(28) 0.57248(19) 0.8368(4)
O86_18 O 0.68568(28) 0.55854(19) 0.7013(4)
O87_18 O 0.68617(28) 0.62033(19) 0.7634(4)
loop_
_geom_bond_atom_site_label_1
_geom_bond_atom_site_label_2
_geom_bond_site_symmetry_1
_geom_bond_site_symmetry_2
C82 C87 1_555 1_555
C87 C92 1_555 1_555
C92 H54 1_555 1_555
C97 C92 1_555 1_555
C102 C97 1_555 1_555
C107 C102 1_555 1_555
C112 C87 1_555 1_555
H64 C112 1_555 1_555
C117 C97 1_555 1_555
Cu15 O13_2 1_555 1_555
Cu27 O56 1_555 1_555
Cu41 O64 1_555 1_555
Cu42 O23 1_555 1_555
O23 Cu15 1_555 1_555
O56 C82 1_555 1_555
O59 Cu20 1_555 1_555
O64 C82 1_555 1_555
O73 C117 1_555 1_555
O80 C117 1_555 1_555
C107 C112 1_555 1_555
Cu20 O23 1_555 1_555
Cu20 O73 1_555 1_555
Cu42 O80 1_555 1_555
C12 C13 1_555 1_555
C18 C13 1_555 1_555
H10 C18 1_555 1_555
C20 H11 1_555 1_555
H12 C20 1_555 1_555
H13 C20 1_555 1_555
C21 C20 1_555 1_555
Cu3 O2 1_555 1_555
O1 Cu1 1_555 1_555
O2 Cu1 1_555 1_555
O7 C12 1_555 1_555
O8 C12 1_555 1_555
C23 C28 1_555 1_555
C24 C29 1_555 1_555
C26 C31 1_555 1_555
C28 C33 1_555 1_555
C29 C34 1_555 1_555
C31 C36 1_555 1_555
C33 H15 1_555 1_555
C34 H16 1_555 1_555
C36 H18 1_555 1_555
C38 C33 1_555 1_555
C39 C34 1_555 1_555
C41 C36 1_555 1_555
C43 C38 1_555 1_555
C44 C39 1_555 1_555
C46 C41 1_555 1_555
H23 C46 1_555 1_555
C51 C46 1_555 1_555
C56 C31 1_555 1_555
H28 C56 1_555 1_555
H29 C57 1_555 1_555
C58 C38 1_555 1_555
C59 C39 1_555 1_555
C61 C41 1_555 1_555
C66 H33 1_555 1_555
C67 H34 1_555 1_555
H38 C66 1_555 1_555
H39 C67 1_555 1_555
H43 C66 1_555 1_555
H44 C67 1_555 1_555
C71 C66 1_555 1_555
C72 C67 1_555 1_555
C76 H48 1_555 1_555
C77 H49 1_555 1_555
C80 C85 1_555 1_555
C81 C86 1_555 1_555
C85 C90 1_555 1_555
C86 C91 1_555 1_555
C90 H52 1_555 1_555
C91 H53 1_555 1_555
C95 C90 1_555 1_555
C96 C91 1_555 1_555
C100 C95 1_555 1_555
C101 C96 1_555 1_555
H57 C100 1_555 1_555
H58 C101 1_555 1_555
C105 C100 1_555 1_555
C106 C101 1_555 1_555
C110 C85 1_555 1_555
C111 C86 1_555 1_555
H62 C110 1_555 1_555
H63 C111 1_555 1_555
C115 C95 1_555 1_555
C116 C96 1_555 1_555
C120 H67 1_555 1_555
C121 H68 1_555 1_555
H72 C120 1_555 1_555
H73 C121 1_555 1_555
H77 C120 1_555 1_555
H78 C121 1_555 1_555
C125 C120 1_555 1_555
C126 C121 1_555 1_555
C130 H82 1_555 1_555
C131 H83 1_555 1_555
Cu8 N17 1_555 1_555
Cu10 O25 1_555 1_555
Cu11 N25 1_555 1_555
Cu12 N26 1_555 1_555
Cu14 O19 1_555 1_555
Cu17 O2 1_555 1_555
Cu18 O7 1_555 1_555
Cu24 N33 1_555 1_555
Cu25 O71 1_555 1_555
Cu26 O55 1_555 1_555
Cu29 N11 1_555 1_555
Cu32 O20 1_555 1_555
Cu33 O8 1_555 1_555
Cu38 O32 1_555 1_555
Cu39 O78 1_555 1_555
Cu40 O63 1_555 1_555
Cu44 O34 1_555 1_555
Cu45 O21 1_555 1_555
N10 C76 1_555 1_555
N11 C77 1_555 1_555
N12 Cu18 1_555 1_555
N16 C71 1_555 1_555
N17 C72 1_555 1_555
N21 C51 1_555 1_555
N22 C52 1_555 1_555
N25 C125 1_555 1_555
N26 C126 1_555 1_555
N30 Cu8 1_555 1_555
N33 C130 1_555 1_555
N34 C131 1_555 1_555
N36 Cu17 1_555 1_555
N40 C105 1_555 1_555
N41 C106 1_555 1_555
O14 Cu8 1_555 1_555
O19 Cu18 1_555 1_555
O20 Cu7 1_555 1_555
O21 Cu8 1_555 1_555
O24 Cu1 1_555 1_555
O25 C24 1_555 1_555
O27 C26 1_555 1_555
O29 Cu7 1_555 1_555
O30 Cu8 1_555 1_555
O31 Cu3 1_555 1_555
O32 C24 1_555 1_555
O34 C26 1_555 1_555
O36 Cu32 1_555 1_555
O37 Cu33 1_555 1_555
O39 C58 1_555 1_555
O40 Cu3 1_555 1_555
O42 C61 1_555 1_555
O45 Cu33 1_555 1_555
O47 C58 1_555 1_555
O48 C59 1_555 1_555
O50 C61 1_555 1_555
O54 C80 1_555 1_555
O55 C81 1_555 1_555
O62 Cu3 1_555 1_555
O63 C81 1_555 1_555
O67 Cu32 1_555 1_555
O71 C115 1_555 1_555
O72 C116 1_555 1_555
O74 Cu18 1_555 1_555
O78 C115 1_555 1_555
O79 Cu3 1_555 1_555
O83 Cu32 1_555 1_555
O84 Cu33 1_555 1_555
C23 O24 1_555 1_555
C23 O31 1_555 1_555
C51 C56 1_555 1_555
C52 C57 1_555 1_555
C59 O40 1_555 1_555
C71 N21 1_555 1_555
C72 N22 1_555 1_555
C76 N21 1_555 1_555
C77 N22 1_555 1_555
C80 O62 1_555 1_555
C105 C110 1_555 1_555
C106 C111 1_555 1_555
C116 O79 1_555 1_555
C125 N40 1_555 1_555
C126 N41 1_555 1_555
C130 N40 1_555 1_555
C131 N41 1_555 1_555
Cu11 O14 1_555 1_555
Cu12 O27 1_555 1_555
Cu17 N10 1_555 1_555
Cu17 O54 1_555 1_555
Cu17 O72 1_555 1_555
Cu18 N34 1_555 1_555
Cu24 O21 1_555 1_555
Cu32 O39 1_555 1_555
Cu33 O19 1_555 1_555
Cu45 O42 1_555 1_555
N10 N16 1_555 1_555
N11 N17 1_555 1_555
N25 N33 1_555 1_555
N26 N34 1_555 1_555
N28 N36 1_555 1_555
C1 C2 1_555 1_555
C2 C3 1_555 1_555
C3 H1 1_555 1_555
C4 C3 1_555 1_555
C5 C4 1_555 1_555
H2 C5 1_555 1_555
C6 C5 1_555 1_555
C7 C2 1_555 1_555
H3 C7 1_555 1_555
C8 C4 1_555 1_555
C9 H4 1_555 1_555
H5 C9 1_555 1_555
H6 C9 1_555 1_555
C10 C9 1_555 1_555
C11 H7 1_555 1_555
C14 H8 1_555 1_555
C15 C14 1_555 1_555
C16 C15 1_555 1_555
H9 C16 1_555 1_555
C17 C16 1_555 1_555
C19 C15 1_555 1_555
C22 H14 1_555 1_555
Cu2 N1 1_555 1_555
N1 C11 1_555 1_555
N2 C10 1_555 1_555
N3 C6 1_555 1_555
N5 C22 1_555 1_555
N6 C17 1_555 1_555
O3 C1 1_555 1_555
O4 C1 1_555 1_555
O5 C8 1_555 1_555
O6 C8 1_555 1_555
O9 C19 1_555 1_555
O10 C19 1_555 1_555
C25 C30 1_555 1_555
C27 C32 1_555 1_555
C30 C35 1_555 1_555
C32 C37 1_555 1_555
C35 H17 1_555 1_555
C37 H19 1_555 1_555
C40 C35 1_555 1_555
C42 C37 1_555 1_555
C45 C40 1_555 1_555
C47 C42 1_555 1_555
H22 C45 1_555 1_555
C50 C45 1_555 1_555
C55 C30 1_555 1_555
H25 C53 1_555 1_555
H26 C54 1_555 1_555
H27 C55 1_555 1_555
C60 C40 1_555 1_555
C62 C42 1_555 1_555
C63 H30 1_555 1_555
C64 H31 1_555 1_555
C65 H32 1_555 1_555
H35 C63 1_555 1_555
H36 C64 1_555 1_555
H37 C65 1_555 1_555
H40 C63 1_555 1_555
H41 C64 1_555 1_555
H42 C65 1_555 1_555
C68 C63 1_555 1_555
C69 C64 1_555 1_555
C70 C65 1_555 1_555
C73 H45 1_555 1_555
C74 H46 1_555 1_555
C75 H47 1_555 1_555
C78 C83 1_555 1_555
C79 C84 1_555 1_555
C83 C88 1_555 1_555
C84 C89 1_555 1_555
C88 H50 1_555 1_555
C89 H51 1_555 1_555
C93 C88 1_555 1_555
C94 C89 1_555 1_555
C98 C93 1_555 1_555
C99 C94 1_555 1_555
H55 C98 1_555 1_555
H56 C99 1_555 1_555
C103 C98 1_555 1_555
C104 C99 1_555 1_555
C108 C83 1_555 1_555
C109 C84 1_555 1_555
H60 C108 1_555 1_555
H61 C109 1_555 1_555
C113 C93 1_555 1_555
C114 C94 1_555 1_555
C118 H65 1_555 1_555
C119 H66 1_555 1_555
C122 H69 1_555 1_555
H70 C118 1_555 1_555
H71 C119 1_555 1_555
H74 C122 1_555 1_555
H75 C118 1_555 1_555
H76 C119 1_555 1_555
H79 C122 1_555 1_555
C123 C118 1_555 1_555
C124 C119 1_555 1_555
C127 C122 1_555 1_555
C128 H80 1_555 1_555
C129 H81 1_555 1_555
C132 H84 1_555 1_555
Cu4 N13 1_555 1_555
Cu5 O3 1_555 1_555
Cu6 O1_2 1_555 1_555
Cu9 N23 1_555 1_555
Cu13 O12 1_555 1_555
Cu16 O9 1_555 1_555
Cu19 N8 1_555 1_555
Cu26 N31 1_555 1_555
Cu22 O69 1_555 1_555
Cu24 O53 1_555 1_555
Cu25 O17 1_555 1_555
Cu39 O4 1_555 1_555
Cu40 O5 1_555 1_555
Cu34 O10 1_555 1_555
Cu35 O15 1_555 1_555
Cu44 O76 1_555 1_555
Cu45 O61 1_555 1_555
Cu43 O41 1_555 1_555
Cu42 O43 1_555 1_555
N7 C73 1_555 1_555
N8 C74 1_555 1_555
N9 C75 1_555 1_555
N13 C68 1_555 1_555
N14 C69 1_555 1_555
N15 C70 1_555 1_555
N18 C48 1_555 1_555
N19 C49 1_555 1_555
N20 C50 1_555 1_555
N23 C123 1_555 1_555
N24 C124 1_555 1_555
N27 C127 1_555 1_555
N31 C128 1_555 1_555
N32 C129 1_555 1_555
N35 C132 1_555 1_555
N38 C103 1_555 1_555
N39 C104 1_555 1_555
O11 Cu4 1_555 1_555
O12 Cu5 1_555 1_555
O15 Cu2 1_555 1_555
O16 Cu4 1_555 1_555
O17 Cu5 1_555 1_555
O18 Cu9 1_555 1_555
O22 Cu13 1_555 1_555
O26 C25 1_555 1_555
O28 C27 1_555 1_555
O33 C25 1_555 1_555
O35 C27 1_555 1_555
O38 Cu34 1_555 1_555
O41 C60 1_555 1_555
O43 C62 1_555 1_555
O44 Cu39 1_555 1_555
O46 Cu34 1_555 1_555
O49 C60 1_555 1_555
O51 C62 1_555 1_555
O52 Cu2 1_555 1_555
O53 C79 1_555 1_555
O57 Cu16 1_555 1_555
O58 Cu19 1_555 1_555
O60 C78 1_555 1_555
O61 C79 1_555 1_555
O65 Cu39 1_555 1_555
O68 Cu34 1_555 1_555
O69 C113 1_555 1_555
O70 Cu2 1_555 1_555
O75 Cu19 1_555 1_555
O76 C113 1_555 1_555
O77 C114 1_555 1_555
O82 Cu40 1_555 1_555
C6 C7 1_555 1_555
C10 N3 1_555 1_555
C11 N3 1_555 1_555
C22 N6 1_555 1_555
Cu2 N5 1_555 1_555
N1 N2 1_555 1_555
N4 N5 1_555 1_555
C48 C53 1_555 1_555
C49 C54 1_555 1_555
C50 C55 1_555 1_555
C68 N18 1_555 1_555
C69 N19 1_555 1_555
C70 N20 1_555 1_555
C73 N18 1_555 1_555
C74 N19 1_555 1_555
C75 N20 1_555 1_555
C78 O52 1_555 1_555
C103 C108 1_555 1_555
C104 C109 1_555 1_555
C114 O70 1_555 1_555
C123 N38 1_555 1_555
C124 N39 1_555 1_555
C127 N42 1_555 1_555
C128 N38 1_555 1_555
C129 N39 1_555 1_555
C132 N42 1_555 1_555
Cu4 N27 1_555 1_555
Cu4 O26 1_555 1_555
Cu5 N14 1_555 1_555
Cu5 N24 1_555 1_555
Cu6 O15 1_555 1_555
Cu6 O28 1_555 1_555
Cu9 O11 1_555 1_555
Cu16 N7 1_555 1_555
Cu16 N35 1_555 1_555
Cu16 O18 1_555 1_555
Cu19 N32 1_555 1_555
Cu19 O22 1_555 1_555
Cu26 O16 1_555 1_555
Cu39 O17 1_555 1_555
Cu40 O16 1_555 1_555
Cu40 O33 1_555 1_555
Cu34 O18 1_555 1_555
Cu35 O35 1_555 1_555
Cu35 O60 1_555 1_555
Cu35 O77 1_555 1_555
N7 N13 1_555 1_555
N8 N14 1_555 1_555
N9 N15 1_555 1_555
N23 N31 1_555 1_555
N24 N32 1_555 1_555
N27 N35 1_555 1_555
N29 N37 1_555 1_555
C20_2 H11_2 1_555 1_555
H12_2 C20_2 1_555 1_555
H13_2 C20_2 1_555 1_555
C21_2 C20_2 1_555 1_555
Cu38 O2_2 1_555 1_555
O2_2 Cu10 1_555 1_555
C24_2 C29_2 1_555 1_555
C29_2 C34_2 1_555 1_555
C34_2 H16_2 1_555 1_555
C39_2 C34_2 1_555 1_555
C44_2 C39_2 1_555 1_555
C59_2 C39_2 1_555 1_555
C80_2 C85_2 1_555 1_555
C81_2 C86_2 1_555 1_555
C85_2 C90_2 1_555 1_555
C86_2 C91_2 1_555 1_555
C90_2 H52_2 1_555 1_555
C91_2 H53_2 1_555 1_555
C95_2 C90_2 1_555 1_555
C96_2 C91_2 1_555 1_555
C100_2 C95_2 1_555 1_555
C101_2 C96_2 1_555 1_555
H57_2 C100_2 1_555 1_555
C105_2 C100_2 1_555 1_555
C106_2 C101_2 1_555 1_555
C110_2 C85_2 1_555 1_555
C111_2 C86_2 1_555 1_555
H62_2 C110_2 1_555 1_555
H63_2 C111_2 1_555 1_555
C115_2 C95_2 1_555 1_555
C116_2 C96_2 1_555 1_555
H72_2 C120_2 1_555 1_555
H77_2 C120_2 1_555 1_555
Cu17_2 O2_2 1_555 1_555
Cu25_2 O71_2 1_555 1_555
Cu25 O55_2 1_555 1_555
Cu43 O78_2 1_555 1_555
O29 C24_2 1_555 1_555
O36 C24_2 1_555 1_555
O40_2 Cu38 1_555 1_555
O48_2 C59_2 1_555 1_555
O54_2 C80_2 1_555 1_555
O55_2 C81_2 1_555 1_555
O62_2 Cu38 1_555 1_555
O65 C81_2 1_555 1_555
O71_2 C115_2 1_555 1_555
O72_2 C116_2 1_555 1_555
O78_2 C115_2 1_555 1_555
O79_2 Cu38 1_555 1_555
C59_2 O40_2 1_555 1_555
C80_2 O62_2 1_555 1_555
C105_2 C110_2 1_555 1_555
C106_2 C111_2 1_555 1_555
C116_2 O79_2 1_555 1_555
Cu17_2 O54_2 1_555 1_555
Cu17_2 O72_2 1_555 1_555
C1_2 C2_2 1_555 1_555
C2_2 C3_2 1_555 1_555
C3_2 H1_2 1_555 1_555
C4_2 C3_2 1_555 1_555
C5_2 C4_2 1_555 1_555
H2_2 C5_2 1_555 1_555
C6_2 C5_2 1_555 1_555
C7_2 C2_2 1_555 1_555
H3_2 C7_2 1_555 1_555
C8_2 C4_2 1_555 1_555
C9_2 H4_2 1_555 1_555
H5_2 C9_2 1_555 1_555
H6_2 C9_2 1_555 1_555
C10_2 C9_2 1_555 1_555
C11_2 H7_2 1_555 1_555
C14_2 H8_2 1_555 1_555
C15_2 C14_2 1_555 1_555
C16_2 C15_2 1_555 1_555
H9_2 C16_2 1_555 1_555
C17_2 C16_2 1_555 1_555
C19_2 C15_2 1_555 1_555
N1_2 C11_2 1_555 1_555
N2_2 C10_2 1_555 1_555
N3_2 C6_2 1_555 1_555
N6_2 C17_2 1_555 1_555
O3_2 C1_2 1_555 1_555
O4_2 C1_2 1_555 1_555
O44 C8_2 1_555 1_555
O6_2 C8_2 1_555 1_555
O75 C19_2 1_555 1_555
O10_2 C19_2 1_555 1_555
H26_2 C54_2 1_555 1_555
C64_2 H31_2 1_555 1_555
H36_2 C64_2 1_555 1_555
H41_2 C64_2 1_555 1_555
C69_2 C64_2 1_555 1_555
C74_2 H46_2 1_555 1_555
C119_2 H66_2 1_555 1_555
H71_2 C119_2 1_555 1_555
H76_2 C119_2 1_555 1_555
C124_2 C119_2 1_555 1_555
C128_2 H80_2 1_555 1_555
C129_2 H81_2 1_555 1_555
Cu5_2 O3_2 1_555 1_555
Cu13 N23_2 1_555 1_555
Cu13_2 O12_2 1_555 1_555
Cu19_2 N8_2 1_555 1_555
Cu25 N31_2 1_555 1_555
Cu25_2 O17_2 1_555 1_555
Cu43 O4_2 1_555 1_555
Cu34_2 O10_2 1_555 1_555
N8_2 C74_2 1_555 1_555
N14_2 C69_2 1_555 1_555
N19_2 C49_2 1_555 1_555
N23_2 C123_2 1_555 1_555
N24_2 C124_2 1_555 1_555
N31_2 C128_2 1_555 1_555
N32_2 C129_2 1_555 1_555
O12_2 Cu5_2 1_555 1_555
O17_2 Cu5_2 1_555 1_555
O22_2 Cu13_2 1_555 1_555
O38_2 Cu34_2 1_555 1_555
O46_2 Cu34_2 1_555 1_555
O58_2 Cu19_2 1_555 1_555
O65_2 Cu43 1_555 1_555
O68_2 Cu34_2 1_555 1_555
O75_2 Cu19_2 1_555 1_555
C6_2 C7_2 1_555 1_555
C10_2 N3_2 1_555 1_555
C11_2 N3_2 1_555 1_555
N1_2 N2_2 1_555 1_555
N4_2 N5_2 1_555 1_555
C49_2 C54_2 1_555 1_555
C69_2 N19_2 1_555 1_555
C74_2 N19_2 1_555 1_555
C123_2 N38_2 1_555 1_555
C124_2 N39_2 1_555 1_555
C128_2 N38_2 1_555 1_555
C129_2 N39_2 1_555 1_555
Cu5_2 N14_2 1_555 1_555
Cu5_2 N24_2 1_555 1_555
Cu19_2 N32_2 1_555 1_555
Cu19_2 O22_2 1_555 1_555
Cu43 O17_2 1_555 1_555
Cu34_2 O22 1_555 1_555
N8_2 N14_2 1_555 1_555
N23_2 N31_2 1_555 1_555
N24_2 N32_2 1_555 1_555
C12_2 C13_2 1_555 1_555
C18_2 C13_2 1_555 1_555
H10_2 C18_2 1_555 1_555
O7_2 C12_2 1_555 1_555
O8_2 C12_2 1_555 1_555
C26_2 C31_2 1_555 1_555
C31_2 C36_2 1_555 1_555
C36_2 H18_2 1_555 1_555
C41_2 C36_2 1_555 1_555
C46_2 C41_2 1_555 1_555
H23_2 C46_2 1_555 1_555
C51_2 C46_2 1_555 1_555
C56_2 C31_2 1_555 1_555
H28_2 C56_2 1_555 1_555
H29_2 C57_2 1_555 1_555
C61_2 C41_2 1_555 1_555
C66_2 H33_2 1_555 1_555
C67_2 H34_2 1_555 1_555
H38_2 C66_2 1_555 1_555
H39_2 C67_2 1_555 1_555
H43_2 C66_2 1_555 1_555
H44_2 C67_2 1_555 1_555
C71_2 C66_2 1_555 1_555
C72_2 C67_2 1_555 1_555
C76_2 H48_2 1_555 1_555
C77_2 H49_2 1_555 1_555
C121_2 H68_2 1_555 1_555
H73_2 C121_2 1_555 1_555
H78_2 C121_2 1_555 1_555
C126_2 C121_2 1_555 1_555
C130_2 H82_2 1_555 1_555
C131_2 H83_2 1_555 1_555
Cu12 N17_2 1_555 1_555
Cu14 N25_2 1_555 1_555
Cu12_2 N26_2 1_555 1_555
Cu14_2 O19_2 1_555 1_555
Cu18_2 O7_2 1_555 1_555
Cu22 N33_2 1_555 1_555
Cu33_2 O8_2 1_555 1_555
Cu41 O34_2 1_555 1_555
Cu44 O21_2 1_555 1_555
N10_2 C76_2 1_555 1_555
N12 C77_2 1_555 1_555
N12_2 Cu18_2 1_555 1_555
N16_2 C71_2 1_555 1_555
N17_2 C72_2 1_555 1_555
N21_2 C51_2 1_555 1_555
N22_2 C52_2 1_555 1_555
N25_2 C125_2 1_555 1_555
N26_2 C126_2 1_555 1_555
N33_2 C130_2 1_555 1_555
N34_2 C131_2 1_555 1_555
O14_2 Cu12 1_555 1_555
O19_2 Cu18_2 1_555 1_555
O21_2 Cu12 1_555 1_555
O27_2 C26_2 1_555 1_555
O34_2 C26_2 1_555 1_555
O37_2 Cu33_2 1_555 1_555
O42_2 C61_2 1_555 1_555
O45_2 Cu33_2 1_555 1_555
O50_2 C61_2 1_555 1_555
O74_2 Cu18_2 1_555 1_555
O84_2 Cu33_2 1_555 1_555
C51_2 C56_2 1_555 1_555
C52_2 C57_2 1_555 1_555
C71_2 N21_2 1_555 1_555
C72_2 N22_2 1_555 1_555
C76_2 N21_2 1_555 1_555
C77_2 N22_2 1_555 1_555
C125_2 N40_2 1_555 1_555
C126_2 N41_2 1_555 1_555
C130_2 N40_2 1_555 1_555
C131_2 N41_2 1_555 1_555
Cu14 O14_2 1_555 1_555
Cu12_2 O27_2 1_555 1_555
Cu18_2 N34_2 1_555 1_555
Cu22 O21_2 1_555 1_555
Cu33_2 O19_2 1_555 1_555
Cu44 O42_2 1_555 1_555
N10_2 N16_2 1_555 1_555
N12 N17_2 1_555 1_555
N25_2 N33_2 1_555 1_555
N26_2 N34_2 1_555 1_555
N28_2 N36_2 1_555 1_555
C22_2 H14_2 1_555 1_555
C27_2 C32_2 1_555 1_555
C32_2 C37_2 1_555 1_555
C37_2 H19_2 1_555 1_555
C42_2 C37_2 1_555 1_555
C47_2 C42_2 1_555 1_555
C62_2 C42_2 1_555 1_555
C78_2 C83_2 1_555 1_555
C79_2 C84_2 1_555 1_555
C83_2 C88_2 1_555 1_555
C84_2 C89_2 1_555 1_555
C88_2 H50_2 1_555 1_555
C89_2 H51_2 1_555 1_555
C93_2 C88_2 1_555 1_555
C94_2 C89_2 1_555 1_555
C98_2 C93_2 1_555 1_555
C99_2 C94_2 1_555 1_555
H55_2 C98_2 1_555 1_555
C103_2 C98_2 1_555 1_555
C104_2 C99_2 1_555 1_555
C108_2 C83_2 1_555 1_555
C109_2 C84_2 1_555 1_555
H60_2 C108_2 1_555 1_555
H61_2 C109_2 1_555 1_555
C113_2 C93_2 1_555 1_555
C114_2 C94_2 1_555 1_555
H70_2 C118_2 1_555 1_555
H75_2 C118_2 1_555 1_555
Cu6_2 O1_4 1_555 1_555
Cu27 O69_2 1_555 1_555
Cu22 O53_2 1_555 1_555
Cu35_2 O15_2 1_555 1_555
Cu41 O76_2 1_555 1_555
Cu44 O61_2 1_555 1_555
Cu35 O43_2 1_555 1_555
O15_2 Cu2_2 1_555 1_555
O28_2 C27_2 1_555 1_555
O35_2 C27_2 1_555 1_555
O43_2 C62_2 1_555 1_555
O51_2 C62_2 1_555 1_555
O52_2 Cu2_2 1_555 1_555
O53_2 C79_2 1_555 1_555
O60_2 C78_2 1_555 1_555
O61_2 C79_2 1_555 1_555
O69_2 C113_2 1_555 1_555
O70_2 Cu2_2 1_555 1_555
O76_2 C113_2 1_555 1_555
O77_2 C114_2 1_555 1_555
C78_2 O52_2 1_555 1_555
C103_2 C108_2 1_555 1_555
C104_2 C109_2 1_555 1_555
C114_2 O70_2 1_555 1_555
Cu6_2 O15_2 1_555 1_555
Cu6_2 O28_2 1_555 1_555
Cu35_2 O35_2 1_555 1_555
Cu35_2 O60_2 1_555 1_555
Cu35_2 O77_2 1_555 1_555
C12_3 C13_3 1_555 1_555
C18_3 C13_3 1_555 1_555
H10_3 C18_3 1_555 1_555
O7_3 C12_3 1_555 1_555
O8_3 C12_3 1_555 1_555
C26_3 C31_3 1_555 1_555
C31_3 C36_3 1_555 1_555
C36_3 H18_3 1_555 1_555
C41_3 C36_3 1_555 1_555
C46_3 C41_3 1_555 1_555
H23_3 C46_3 1_555 1_555
C51_3 C46_3 1_555 1_555
C56_3 C31_3 1_555 1_555
H28_3 C56_3 1_555 1_555
H29_3 C57_3 1_555 1_555
C61_3 C41_3 1_555 1_555
C66_3 H33_3 1_555 1_555
C67_3 H34_3 1_555 1_555
H38_3 C66_3 1_555 1_555
H39_3 C67_3 1_555 1_555
H43_3 C66_3 1_555 1_555
H44_3 C67_3 1_555 1_555
C71_3 C66_3 1_555 1_555
C72_3 C67_3 1_555 1_555
C76_3 H48_3 1_555 1_555
C77_3 H49_3 1_555 1_555
C121_3 H68_3 1_555 1_555
H73_3 C121_3 1_555 1_555
H78_3 C121_3 1_555 1_555
C126_3 C121_3 1_555 1_555
C130_3 H82_3 1_555 1_555
C131_3 H83_3 1_555 1_555
Cu12_2 N17_3 1_555 1_555
Cu14_2 N25_3 1_555 1_555
Cu11 O19_3 1_555 1_555
Cu29 O7_3 1_555 1_555
Cu27 N33_3 1_555 1_555
Cu33_3 O8_3 1_555 1_555
Cu45 O34_3 1_555 1_555
Cu41 O21_3 1_555 1_555
N10_3 C76_3 1_555 1_555
N12_2 C77_3 1_555 1_555
N16_3 C71_3 1_555 1_555
N17_3 C72_3 1_555 1_555
N21_3 C51_3 1_555 1_555
N22_3 C52_3 1_555 1_555
N25_3 C125_3 1_555 1_555
N30 C126_3 1_555 1_555
N33_3 C130_3 1_555 1_555
N34_3 C131_3 1_555 1_555
O14_3 Cu12_2 1_555 1_555
O19_3 Cu29 1_555 1_555
O21_3 Cu12_2 1_555 1_555
O30 C26_3 1_555 1_555
O34_3 C26_3 1_555 1_555
O37_3 Cu33_3 1_555 1_555
O42_3 C61_3 1_555 1_555
O45_3 Cu33_3 1_555 1_555
O50_3 C61_3 1_555 1_555
O74_3 Cu29 1_555 1_555
O84_3 Cu33_3 1_555 1_555
C51_3 C56_3 1_555 1_555
C52_3 C57_3 1_555 1_555
C71_3 N21_3 1_555 1_555
C72_3 N22_3 1_555 1_555
C76_3 N21_3 1_555 1_555
C77_3 N22_3 1_555 1_555
C125_3 N40_3 1_555 1_555
C126_3 N41_3 1_555 1_555
C130_3 N40_3 1_555 1_555
C131_3 N41_3 1_555 1_555
Cu14_2 O14_3 1_555 1_555
Cu29 N34_3 1_555 1_555
Cu27 O21_3 1_555 1_555
Cu33_3 O19_3 1_555 1_555
Cu41 O42_3 1_555 1_555
N10_3 N16_3 1_555 1_555
N12_2 N17_3 1_555 1_555
N25_3 N33_3 1_555 1_555
N30 N34_3 1_555 1_555
N28_3 N36_3 1_555 1_555
C22_3 H14_3 1_555 1_555
C27_3 C32_3 1_555 1_555
C32_3 C37_3 1_555 1_555
C37_3 H19_3 1_555 1_555
C42_3 C37_3 1_555 1_555
C47_3 C42_3 1_555 1_555
C62_3 C42_3 1_555 1_555
C78_3 C83_3 1_555 1_555
C83_3 C88_3 1_555 1_555
C88_3 H50_3 1_555 1_555
C93_3 C88_3 1_555 1_555
C98_3 C93_3 1_555 1_555
H55_3 C98_3 1_555 1_555
C103_3 C98_3 1_555 1_555
C108_3 C83_3 1_555 1_555
H60_3 C108_3 1_555 1_555
C113_3 C93_3 1_555 1_555
H70_3 C118_3 1_555 1_555
H75_3 C118_3 1_555 1_555
Cu24 O69_3 1_555 1_555
Cu45 O76_3 1_555 1_555
Cu35_2 O43_3 1_555 1_555
O28_3 C27_3 1_555 1_555
O35_3 C27_3 1_555 1_555
O43_3 C62_3 1_555 1_555
O51_3 C62_3 1_555 1_555
O60_3 C78_3 1_555 1_555
O69_3 C113_3 1_555 1_555
O76_3 C113_3 1_555 1_555
C78_3 O59 1_555 1_555
C103_3 C108_3 1_555 1_555
Cu15 O28_3 1_555 1_555
Cu42 O35_3 1_555 1_555
Cu42 O60_3 1_555 1_555
C20_3 H11_3 1_555 1_555
H12_3 C20_3 1_555 1_555
H13_3 C20_3 1_555 1_555
C21_3 C20_3 1_555 1_555
C80_3 C85_3 1_555 1_555
C81_3 C86_3 1_555 1_555
C85_3 C90_3 1_555 1_555
C86_3 C91_3 1_555 1_555
C90_3 H52_3 1_555 1_555
C91_3 H53_3 1_555 1_555
C95_3 C90_3 1_555 1_555
C96_3 C91_3 1_555 1_555
C100_3 C95_3 1_555 1_555
C101_3 C96_3 1_555 1_555
H57_3 C100_3 1_555 1_555
C105_3 C100_3 1_555 1_555
C106_3 C101_3 1_555 1_555
C110_3 C85_3 1_555 1_555
C111_3 C86_3 1_555 1_555
H62_3 C110_3 1_555 1_555
H63_3 C111_3 1_555 1_555
C115_3 C95_3 1_555 1_555
C116_3 C96_3 1_555 1_555
H72_3 C120_3 1_555 1_555
H77_3 C120_3 1_555 1_555
Cu17_3 O20 1_555 1_555
Cu26 O71_3 1_555 1_555
Cu25_2 O55_3 1_555 1_555
O54_3 C80_3 1_555 1_555
O55_3 C81_3 1_555 1_555
O65_2 C81_3 1_555 1_555
O71_3 C115_3 1_555 1_555
O72_3 C116_3 1_555 1_555
O82 C115_3 1_555 1_555
C80_3 O67 1_555 1_555
C105_3 C110_3 1_555 1_555
C106_3 C111_3 1_555 1_555
C116_3 O83 1_555 1_555
Cu17_3 O54_3 1_555 1_555
Cu17_3 O72_3 1_555 1_555
C14_3 H8_3 1_555 1_555
C15_3 C14_3 1_555 1_555
C16_3 C15_3 1_555 1_555
H9_3 C16_3 1_555 1_555
C17_3 C16_3 1_555 1_555
C19_3 C15_3 1_555 1_555
N6_3 C17_3 1_555 1_555
O75_2 C19_3 1_555 1_555
O10_3 C19_3 1_555 1_555
C128_3 H80_3 1_555 1_555
Cu13_2 N23_3 1_555 1_555
Cu25_2 N31_3 1_555 1_555
Cu34_3 O10_3 1_555 1_555
N23_3 C123_3 1_555 1_555
N31_3 C128_3 1_555 1_555
O38_3 Cu34_3 1_555 1_555
O46_3 Cu34_3 1_555 1_555
O68_3 Cu34_3 1_555 1_555
C123_3 N38_3 1_555 1_555
C128_3 N38_3 1_555 1_555
Cu34_3 O22_2 1_555 1_555
N23_3 N31_3 1_555 1_555
C132_2 H84_2 1_555 1_555
N12_3 Cu25 1_555 1_555
O27_3 C26_4 1_555 1_555
O38_2 C26_4 1_555 1_555
Cu10 O11_2 1_555 1_555
Cu13 O27_3 1_555 1_555
C82_2 C87_2 1_555 1_555
C112_2 C87_2 1_555 1_555
H64_2 C112_2 1_555 1_555
O58_2 C82_2 1_555 1_555
O68_3 C82_2 1_555 1_555
C31_4 C36_4 1_555 1_555
C36_4 H18_4 1_555 1_555
C41_4 C36_4 1_555 1_555
C46_4 C41_4 1_555 1_555
H23_4 C46_4 1_555 1_555
C51_4 C46_4 1_555 1_555
C56_4 C31_4 1_555 1_555
H28_4 C56_4 1_555 1_555
C61_4 C41_4 1_555 1_555
C66_4 H33_4 1_555 1_555
H38_4 C66_4 1_555 1_555
H43_4 C66_4 1_555 1_555
C71_4 C66_4 1_555 1_555
C76_4 H48_4 1_555 1_555
C89_3 H51_3 1_555 1_555
C92_2 H54_2 1_555 1_555
C94_3 C89_3 1_555 1_555
C97_2 C92_2 1_555 1_555
C99_3 C94_3 1_555 1_555
C102_2 C97_2 1_555 1_555
H56_3 C99_3 1_555 1_555
H59_2 C102_2 1_555 1_555
C104_3 C99_3 1_555 1_555
C107_2 C102_2 1_555 1_555
C114_3 C94_3 1_555 1_555
C117_2 C97_2 1_555 1_555
N10_4 C76_4 1_555 1_555
N16_4 C71_4 1_555 1_555
N21_4 C51_4 1_555 1_555
N39_3 C104_3 1_555 1_555
N42_2 C107_2 1_555 1_555
O28_4 C27_4 1_555 1_555
O37_2 C27_4 1_555 1_555
O50_4 C61_4 1_555 1_555
O74 C117_2 1_555 1_555
O84_2 C114_3 1_555 1_555
O84 C117_2 1_555 1_555
C51_4 C56_4 1_555 1_555
C71_4 N21_4 1_555 1_555
C76_4 N21_4 1_555 1_555
C114_3 O74_2 1_555 1_555
Cu14_2 N16_4 1_555 1_555
Cu14_2 O28_4 1_555 1_555
Cu27 N10_4 1_555 1_555
N10_4 N16_4 1_555 1_555
C119_3 H66_3 1_555 1_555
C122_2 H69_2 1_555 1_555
H71_3 C119_3 1_555 1_555
H74_2 C122_2 1_555 1_555
H76_3 C119_3 1_555 1_555
H79_2 C122_2 1_555 1_555
C124_3 C119_3 1_555 1_555
C127_2 C122_2 1_555 1_555
C32_4 C37_4 1_555 1_555
C37_4 H19_4 1_555 1_555
C42_4 C37_4 1_555 1_555
C47_4 C42_4 1_555 1_555
H24_4 C47_4 1_555 1_555
C52_4 C47_4 1_555 1_555
C57_4 C32_4 1_555 1_555
H29_4 C57_4 1_555 1_555
C62_4 C42_4 1_555 1_555
C67_4 H34_4 1_555 1_555
H39_4 C67_4 1_555 1_555
H44_4 C67_4 1_555 1_555
C72_4 C67_4 1_555 1_555
C77_4 H49_4 1_555 1_555
C129_3 H81_3 1_555 1_555
Cu9 N17_4 1_555 1_555
Cu7 O12_3 1_555 1_555
Cu26 N11_2 1_555 1_555
N11_2 C77_4 1_555 1_555
N17_4 C72_4 1_555 1_555
N22_4 C52_4 1_555 1_555
O30_2 Cu9 1_555 1_555
O45 C62_4 1_555 1_555
O51_4 C62_4 1_555 1_555
C52_4 C57_4 1_555 1_555
C72_4 N22_4 1_555 1_555
C77_4 N22_4 1_555 1_555
N11_2 N17_4 1_555 1_555
C79_3 C84_3 1_555 1_555
C109_3 C84_3 1_555 1_555
H61_3 C109_3 1_555 1_555
O57 C79_3 1_555 1_555
O68 C79_3 1_555 1_555
C27_5 C32_5 1_555 1_555
C31_5 C36_5 1_555 1_555
C32_5 C37_5 1_555 1_555
C36_5 H18_5 1_555 1_555
C37_5 H19_5 1_555 1_555
C41_5 C36_5 1_555 1_555
C42_5 C37_5 1_555 1_555
C46_5 C41_5 1_555 1_555
C47_5 C42_5 1_555 1_555
H23_5 C46_5 1_555 1_555
H24_5 C47_5 1_555 1_555
C51_5 C46_5 1_555 1_555
C52_5 C47_5 1_555 1_555
C56_5 C31_5 1_555 1_555
C57_5 C32_5 1_555 1_555
H28_5 C56_5 1_555 1_555
H29_5 C57_5 1_555 1_555
C61_5 C41_5 1_555 1_555
C62_5 C42_5 1_555 1_555
C66_5 H33_5 1_555 1_555
C67_5 H34_5 1_555 1_555
H38_5 C66_5 1_555 1_555
H39_5 C67_5 1_555 1_555
H43_5 C66_5 1_555 1_555
H44_5 C67_5 1_555 1_555
C71_5 C66_5 1_555 1_555
C72_5 C67_5 1_555 1_555
C76_5 H48_5 1_555 1_555
C77_5 H49_5 1_555 1_555
C89_4 H51_4 1_555 1_555
C94_4 C89_4 1_555 1_555
C99_4 C94_4 1_555 1_555
H56_4 C99_4 1_555 1_555
C104_4 C99_4 1_555 1_555
C114_4 C94_4 1_555 1_555
C129_4 H81_4 1_555 1_555
Cu13 N17_5 1_555 1_555
N10_5 C76_5 1_555 1_555
N12_3 C77_5 1_555 1_555
N16_5 C71_5 1_555 1_555
N17_5 C72_5 1_555 1_555
N21_5 C51_5 1_555 1_555
N22_5 C52_5 1_555 1_555
N36 C129_4 1_555 1_555
N39_4 C104_4 1_555 1_555
O28_5 C27_5 1_555 1_555
O37_3 C27_5 1_555 1_555
O46_2 C61_5 1_555 1_555
O50_5 C61_5 1_555 1_555
O51_5 C62_5 1_555 1_555
O84_3 C114_4 1_555 1_555
C51_5 C56_5 1_555 1_555
C52_5 C57_5 1_555 1_555
C71_5 N21_5 1_555 1_555
C72_5 N22_5 1_555 1_555
C76_5 N21_5 1_555 1_555
C77_5 N22_5 1_555 1_555
C114_4 O74_3 1_555 1_555
C129_4 N39_4 1_555 1_555
Cu11 N16_5 1_555 1_555
Cu11 O28_5 1_555 1_555
Cu24 N10_5 1_555 1_555
N10_5 N16_5 1_555 1_555
N12_3 N17_5 1_555 1_555
C79_4 C84_4 1_555 1_555
C109_4 C84_4 1_555 1_555
H61_4 C109_4 1_555 1_555
C119_4 H66_4 1_555 1_555
H71_4 C119_4 1_555 1_555
H76_4 C119_4 1_555 1_555
C124_4 C119_4 1_555 1_555
O58 C79_4 1_555 1_555
O68_2 C79_4 1_555 1_555
N12_4 Cu25_2 1_555 1_555
O27_4 C26_5 1_555 1_555
O38_3 C26_5 1_555 1_555
Cu13_2 O27_4 1_555 1_555
C32_6 C37_6 1_555 1_555
C37_6 H19_6 1_555 1_555
C42_6 C37_6 1_555 1_555
C47_6 C42_6 1_555 1_555
H24_6 C47_6 1_555 1_555
C52_6 C47_6 1_555 1_555
C57_6 C32_6 1_555 1_555
H29_6 C57_6 1_555 1_555
C62_6 C42_6 1_555 1_555
C67_6 H34_6 1_555 1_555
H39_6 C67_6 1_555 1_555
H44_6 C67_6 1_555 1_555
C72_6 C67_6 1_555 1_555
C77_6 H49_6 1_555 1_555
Cu13_2 N17_6 1_555 1_555
N12_4 C77_6 1_555 1_555
N17_6 C72_6 1_555 1_555
N22_6 C52_6 1_555 1_555
O51_6 C62_6 1_555 1_555
C52_6 C57_6 1_555 1_555
C72_6 N22_6 1_555 1_555
C77_6 N22_6 1_555 1_555
N12_4 N17_6 1_555 1_555
C26_6 C31_6 1_555 1_555
C31_6 C36_6 1_555 1_555
C36_6 H18_6 1_555 1_555
C41_6 C36_6 1_555 1_555
C46_6 C41_6 1_555 1_555
H23_6 C46_6 1_555 1_555
C51_6 C46_6 1_555 1_555
C56_6 C31_6 1_555 1_555
H28_6 C56_6 1_555 1_555
C61_6 C41_6 1_555 1_555
C66_6 H33_6 1_555 1_555
H38_6 C66_6 1_555 1_555
H43_6 C66_6 1_555 1_555
C71_6 C66_6 1_555 1_555
C76_6 H48_6 1_555 1_555
N10_6 C76_6 1_555 1_555
N16_6 C71_6 1_555 1_555
N21_6 C51_6 1_555 1_555
O30_2 C26_6 1_555 1_555
O28_6 C27_6 1_555 1_555
O38 C26_6 1_555 1_555
O37 C27_6 1_555 1_555
O50_6 C61_6 1_555 1_555
C51_6 C56_6 1_555 1_555
C71_6 N21_6 1_555 1_555
C76_6 N21_6 1_555 1_555
Cu14 N16_6 1_555 1_555
Cu14 O28_6 1_555 1_555
Cu22 N10_6 1_555 1_555
N10_6 N16_6 1_555 1_555
N43 O85 1_555 1_555
O86 N43 1_555 1_555
O87 N43 1_555 1_555
N43_2 O85_2 1_555 1_555
O86_2 N43_2 1_555 1_555
O87_2 N43_2 1_555 1_555
N43_3 O85_3 1_555 1_555
O86_3 N43_3 1_555 1_555
O87_3 N43_3 1_555 1_555
N43_4 O85_4 1_555 1_555
O86_4 N43_4 1_555 1_555
O87_4 N43_4 1_555 1_555
N43_5 O85_5 1_555 1_555
O86_5 N43_5 1_555 1_555
O87_5 N43_5 1_555 1_555
N43_6 O85_6 1_555 1_555
O86_6 N43_6 1_555 1_555
O87_6 N43_6 1_555 1_555
N43_7 O85_7 1_555 1_555
O86_7 N43_7 1_555 1_555
O87_7 N43_7 1_555 1_555
N43_8 O85_8 1_555 1_555
O86_8 N43_8 1_555 1_555
O87_8 N43_8 1_555 1_555
N43_9 O85_9 1_555 1_555
O86_9 N43_9 1_555 1_555
O87_9 N43_9 1_555 1_555
N43_10 O85_10 1_555 1_555
O86_10 N43_10 1_555 1_555
O87_10 N43_10 1_555 1_555
N43_11 O85_11 1_555 1_555
O86_11 N43_11 1_555 1_555
O87_11 N43_11 1_555 1_555
N43_12 O85_12 1_555 1_555
O86_12 N43_12 1_555 1_555
O87_12 N43_12 1_555 1_555
N43_13 O85_13 1_555 1_555
O86_13 N43_13 1_555 1_555
O87_13 N43_13 1_555 1_555
N43_14 O85_14 1_555 1_555
O86_14 N43_14 1_555 1_555
O87_14 N43_14 1_555 1_555
N43_15 O85_15 1_555 1_555
O86_15 N43_15 1_555 1_555
O87_15 N43_15 1_555 1_555
N43_16 O85_16 1_555 1_555
O86_16 N43_16 1_555 1_555
O87_16 N43_16 1_555 1_555
N43_17 O85_17 1_555 1_555
O86_17 N43_17 1_555 1_555
O87_17 N43_17 1_555 1_555
N43_18 O85_18 1_555 1_555
O86_18 N43_18 1_555 1_555
O87_18 N43_18 1_555 1_555

#END
