
###############################################################################
#
# This file contains modified crystal structure data generated from the
# MOF subset of the Cambridge Structural Database (CSD) v543 
# hosted by the Cambridge Crystallographic Data Centre (CCDC).
#
# This work is licensed under the Creative Commons
# Attribution-NonCommercial-ShareAlike 4.0 International License.
# To view a copy of this license, visit
# http://creativecommons.org/licenses/by-nc-sa/4.0/
# or send a letter to
# Creative Commons, PO Box 1866, Mountain View, CA 94042, USA.
#
# CIF created using the CSD Python API on 29 September 2022
# The structure has been converted into the P1 space group
# The structure has a 3D framework
# The original CSD entry LECFAC is in the cubic crystal system
# The framework has been calculated to contain at least 10.0% void space
# The void calculation uses a probe of radius 1.32A, grid spacing 0.4
# H atom positions have been added when not included in the experimental data
# Generated hydrogen atom positions removed from atoms on special positions
#
###############################################################################

data_LECFAC
_chemical_formula_moiety         '(C240 H268 Cu46 N72 O155 S8)n'
_symmetry_cell_setting           triclinic
_symmetry_space_group_name_H-M   'P 1'
_symmetry_Int_Tables_number      1
_space_group_name_Hall           'P 1'
loop_
_symmetry_equiv_pos_site_id
_symmetry_equiv_pos_as_xyz
1 x,y,z
_cell_length_a                   25.8657(14)
_cell_length_b                   25.8657(14)
_cell_length_c                   25.8657(14)
_cell_angle_alpha                90
_cell_angle_beta                 90
_cell_angle_gamma                90
_cell_volume                     17305
loop_
_atom_site_label
_atom_site_type_symbol
_atom_site_fract_x
_atom_site_fract_y
_atom_site_fract_z
Cu35 Cu 0.44813(2) -0.0000 0.0000
Cu36 Cu 0.55187(2) -0.0000 0.0000
Cu39 Cu -0.0000 0.0000 0.44813(2)
Cu40 Cu 0.0000 0.0000 0.55187(2)
Cu35_2 Cu 0.44813(2) -0.0000 1.0000
Cu36_2 Cu 0.55187(2) -0.0000 1.0000
O8 O -0.0000 0.36521(16) 0.0000
Cu2 Cu 0.0000 0.44813(2) 0.0000
C10 C 0.18643(15) 0.3938(2) 0.18643(15)
C17 C 0.31357(15) 0.68643(15) 0.1062(2)
C18 C 0.6062(2) 0.81357(15) 0.18643(15)
C19 C 0.1062(2) 0.68643(15) 0.31357(15)
C20 C 0.18643(15) 0.81357(15) 0.6062(2)
C21 C 0.16650(14) 0.44479(19) 0.16650(14)
C28 C 0.33350(14) 0.66650(14) 0.05521(19)
C29 C 0.55521(19) 0.83350(14) 0.16650(14)
C30 C 0.05521(19) 0.66650(14) 0.33350(14)
C31 C 0.16650(14) 0.83350(14) 0.55521(19)
C32 C 0.12896(14) 0.44602(19) 0.12896(14)
C39 C 0.37104(14) 0.62896(14) 0.05398(19)
C40 C 0.55398(19) 0.87104(14) 0.12896(14)
C41 C 0.05398(19) 0.62896(14) 0.37104(14)
C42 C 0.12896(14) 0.87104(14) 0.55398(19)
H6 H 0.1152 0.4149 0.1152
H13 H 0.3848 0.6152 0.0851
H14 H 0.5851 0.8848 0.1152
H15 H 0.0851 0.6152 0.3848
H16 H 0.1152 0.8848 0.5851
C43 C 0.11053(11) 0.4963(2) 0.11053(11)
C50 C 0.38947(11) 0.61053(11) 0.0037(2)
C51 C 0.5037(2) 0.88947(11) 0.11053(11)
C52 C 0.0037(2) 0.61053(11) 0.38947(11)
C53 C 0.11053(11) 0.88947(11) 0.5037(2)
C54 C 0.13003(15) 0.54039(18) 0.13003(15)
C57 C 0.36997(15) 0.36997(15) 0.04039(18)
C62 C 0.45961(18) 0.86997(15) 0.13003(15)
C64 C 0.13003(15) 0.86997(15) 0.45961(18)
H17 H 0.1183 0.5731 0.1183
H20 H 0.3817 0.3817 0.0731
H25 H 0.4269 0.8817 0.1183
H27 H 0.1183 0.8817 0.4269
C65 C 0.16889(14) 0.53647(18) 0.16889(14)
C68 C 0.33111(14) 0.33111(14) 0.03647(18)
C73 C 0.46353(18) 0.83111(14) 0.16889(14)
C75 C 0.16889(14) 0.83111(14) 0.46353(18)
C76 C 0.18643(13) 0.4909(2) 0.18643(13)
C83 C 0.31357(13) 0.68643(13) 0.0091(2)
C84 C 0.5091(2) 0.81357(13) 0.18643(13)
C85 C 0.0091(2) 0.68643(13) 0.31357(13)
C86 C 0.18643(13) 0.81357(13) 0.5091(2)
H28 H 0.2124 0.4900 0.2124
H35 H 0.2876 0.7124 0.0100
H36 H 0.5100 0.7876 0.2124
H37 H 0.0100 0.7124 0.2876
H38 H 0.2124 0.7876 0.5100
C87 C 0.06949(12) 0.4962(2) 0.06949(12)
C94 C 0.43051(12) 0.56949(12) 0.0038(2)
C95 C 0.5038(2) 0.93051(12) 0.06949(12)
C96 C 0.0038(2) 0.56949(12) 0.43051(12)
C97 C 0.06949(12) 0.93051(12) 0.5038(2)
C99 C 0.23326(17) 0.60904(18) 0.17560(18)
C100 C 0.17560(18) 0.60904(18) 0.23326(17)
C105 C 0.32440(18) 0.26674(17) 0.10904(18)
C106 C 0.26674(17) 0.32440(18) 0.10904(18)
C115 C 0.39096(18) 0.76674(17) 0.17560(18)
C116 C 0.39096(18) 0.82440(18) 0.23326(17)
C119 C 0.17560(18) 0.76674(17) 0.39096(18)
C120 C 0.23326(17) 0.82440(18) 0.39096(18)
H40 H 0.2544 0.5987 0.1474
H41 H 0.1474 0.5987 0.2544
H46 H 0.3526 0.2456 0.0987
H47 H 0.2456 0.3526 0.0987
H56 H 0.4013 0.7456 0.1474
H57 H 0.4013 0.8526 0.2544
H60 H 0.1474 0.7456 0.4013
H61 H 0.2544 0.8526 0.4013
N4 N 0.24194(12) 0.64981(13) 0.20491(14)
N5 N 0.20491(14) 0.64981(13) 0.24194(12)
N10 N 0.29509(14) 0.25806(12) 0.14981(13)
N11 N 0.25806(12) 0.29509(14) 0.14981(13)
N20 N 0.35019(13) 0.75806(12) 0.20491(14)
N21 N 0.35019(13) 0.79509(14) 0.24194(12)
N24 N 0.20491(14) 0.75806(12) 0.35019(13)
N25 N 0.24194(12) 0.79509(14) 0.35019(13)
N31 N 0.14981(13) 0.29509(14) 0.25806(12)
N34 N 0.19100(12) 0.58450(17) 0.19100(12)
N37 N 0.30900(12) 0.30900(12) 0.08450(17)
N42 N 0.41550(17) 0.80900(12) 0.19100(12)
N44 N 0.19100(12) 0.80900(12) 0.41550(17)
O9 O 0.25583(14) 0.74417(14) 0.25583(14)
O13 O 0.24417(14) 0.24417(14) 0.24417(14)
O16 O 0.16722(10) 0.35322(13) 0.16722(10)
O23 O 0.33278(10) 0.66722(10) 0.14678(13)
O24 O 0.64678(13) 0.83278(10) 0.16722(10)
O25 O 0.14678(13) 0.66722(10) 0.33278(10)
O26 O 0.16722(10) 0.83278(10) 0.64678(13)
O31 O 0.22079(13) 0.39233(18) 0.22079(13)
O38 O 0.27921(13) 0.72079(13) 0.10767(18)
O39 O 0.60767(18) 0.77921(13) 0.22079(13)
O40 O 0.10767(18) 0.72079(13) 0.27921(13)
O41 O 0.22079(13) 0.77921(13) 0.60767(18)
O42 O 0.05398(10) 0.54107(12) 0.05398(10)
O45 O 0.44602(10) 0.44602(10) 0.04107(12)
O50 O 0.45893(12) 0.94602(10) 0.05398(10)
O52 O 0.05398(10) 0.94602(10) 0.45893(12)
O53 O 0.55398(10) 0.55398(10) 0.04107(12)
O57 O 0.05321(9) 0.45404(11) 0.05321(9)
O64 O 0.44679(9) 0.55321(9) 0.04596(11)
O65 O 0.54596(11) 0.94679(9) 0.05321(9)
O66 O 0.04596(11) 0.55321(9) 0.44679(9)
O67 O 0.05321(9) 0.94679(9) 0.54596(11)
O68 O 0.55321(9) 0.44679(9) 0.04596(11)
O69 O 0.45404(11) 0.05321(9) 0.05321(9)
O77 O 0.33897(12) 0.66103(19) 0.27249(12)
O78 O 0.33897(19) 0.72751(12) 0.33897(12)
O79 O 0.27249(12) 0.66103(19) 0.33897(12)
O87 O 0.16103(19) 0.22751(12) 0.16103(12)
O90 O 0.36068(15) 0.63932(15) 0.36068(15)
O93 O -0.0000 0.63479(16) 0.0000
O94 O 0.5000 0.5000 0.13479(16)
O95 O 0.36521(16) 0.0000 0.0000
S2 S 0.32772(6) 0.67228(6) 0.32772(6)
Cu4 Cu 0.298730(17) 0.70126(2) 0.206890(17)
Cu5 Cu 0.206890(17) 0.70126(2) 0.298730(17)
Cu11 Cu 0.20126(2) 0.293110(17) 0.201270(17)
Cu15 Cu 0.293110(17) 0.201270(17) 0.20126(2)
Cu20 Cu 0.298730(17) 0.793110(17) 0.29874(2)
Cu21 Cu 0.706890(17) 0.79874(2) 0.201270(17)
Cu23 Cu 0.201270(17) 0.79874(2) 0.706890(17)
Cu26 Cu -0.0000 0.55187(2) 0.0000
Cu27 Cu 0.5000 0.5000 0.05187(2)
Cu35_3 Cu 0.44813(2) 1.0000 0.0000
Cu36_3 Cu 0.55187(2) 1.0000 0.0000
Cu38 Cu 0.05187(2) 0.5000 0.5000
Cu39_2 Cu -0.0000 1.0000 0.44813(2)
Cu40_2 Cu 0.0000 1.0000 0.55187(2)
H62 H 0.2370(5) 0.7630(5) 0.2370(5)
H66 H 0.2630(5) 0.2630(5) 0.2630(5)
C1 C 0.18643(15) 0.6062(2) 0.81357(15)
C2 C 0.16650(14) 0.55521(19) 0.83350(14)
C3 C 0.12896(14) 0.55398(19) 0.87104(14)
H1 H 0.1152 0.5851 0.8848
C4 C 0.11053(11) 0.5037(2) 0.88947(11)
C5 C 0.13003(15) 0.45961(18) 0.86997(15)
H2 H 0.1183 0.4269 0.8817
C6 C 0.16889(14) 0.46353(18) 0.83111(14)
C7 C 0.18643(13) 0.5091(2) 0.81357(13)
H3 H 0.2124 0.5100 0.7876
C8 C 0.06949(12) 0.5038(2) 0.93051(12)
C9 C 0.23326(17) 0.39096(18) 0.82440(18)
H4 H 0.2544 0.4013 0.8526
N1 N 0.24194(12) 0.35019(13) 0.79509(14)
N2 N 0.19100(12) 0.41550(17) 0.80900(12)
O1 O 0.25583(14) 0.25583(14) 0.74417(14)
O2 O 0.16722(10) 0.64678(13) 0.83278(10)
O3 O 0.22079(13) 0.60767(18) 0.77921(13)
O4 O 0.05398(10) 0.45893(12) 0.94602(10)
O5 O 0.05321(9) 0.54596(11) 0.94679(9)
O6 O 0.33897(12) 0.33897(19) 0.72751(12)
O7 O 0.36068(15) 0.36068(15) 0.63932(15)
O8_2 O -0.0000 0.36521(16) 1.0000
S1 S 0.32772(6) 0.32772(6) 0.67228(6)
Cu1 Cu 0.298730(17) 0.29874(2) 0.793110(17)
Cu2_2 Cu 0.0000 0.44813(2) 1.0000
H5 H 0.2370(5) 0.2370(5) 0.7630(5)
C13 C 0.31357(15) 0.31357(15) 0.8938(2)
C14 C 0.6062(2) 0.18643(15) 0.81357(15)
C15 C 0.1062(2) 0.31357(15) 0.68643(15)
C16 C 0.18643(15) 0.18643(15) 0.3938(2)
C24 C 0.33350(14) 0.33350(14) 0.94479(19)
C25 C 0.55521(19) 0.16650(14) 0.83350(14)
C26 C 0.05521(19) 0.33350(14) 0.66650(14)
C27 C 0.16650(14) 0.16650(14) 0.44479(19)
C35 C 0.37104(14) 0.37104(14) 0.94602(19)
C36 C 0.55398(19) 0.12896(14) 0.87104(14)
C37 C 0.05398(19) 0.37104(14) 0.62896(14)
C38 C 0.12896(14) 0.12896(14) 0.44602(19)
H9 H 0.3848 0.3848 0.9149
H10 H 0.5851 0.1152 0.8848
H11 H 0.0851 0.3848 0.6152
H12 H 0.1152 0.1152 0.4149
C46 C 0.38947(11) 0.38947(11) 0.9963(2)
C47 C 0.5037(2) 0.11053(11) 0.88947(11)
C48 C 0.0037(2) 0.38947(11) 0.61053(11)
C49 C 0.11053(11) 0.11053(11) 0.4963(2)
C58 C 0.45961(18) 0.13003(15) 0.86997(15)
C60 C 0.13003(15) 0.13003(15) 0.54039(18)
C61 C 0.36997(15) 0.63003(15) 0.95961(18)
H21 H 0.4269 0.1183 0.8817
H23 H 0.1183 0.1183 0.5731
H24 H 0.3817 0.6183 0.9269
C69 C 0.46353(18) 0.16889(14) 0.83111(14)
C71 C 0.16889(14) 0.16889(14) 0.53647(18)
C72 C 0.33111(14) 0.66889(14) 0.96353(18)
C79 C 0.31357(13) 0.31357(13) 0.9909(2)
C80 C 0.5091(2) 0.18643(13) 0.81357(13)
C81 C 0.0091(2) 0.31357(13) 0.68643(13)
C82 C 0.18643(13) 0.18643(13) 0.4909(2)
H31 H 0.2876 0.2876 0.9900
H32 H 0.5100 0.2124 0.7876
H33 H 0.0100 0.2876 0.7124
H34 H 0.2124 0.2124 0.4900
C90 C 0.43051(12) 0.43051(12) 0.9962(2)
C91 C 0.5038(2) 0.06949(12) 0.93051(12)
C92 C 0.0038(2) 0.43051(12) 0.56949(12)
C93 C 0.06949(12) 0.06949(12) 0.4962(2)
C98 C 0.17560(18) 0.39096(18) 0.76674(17)
C107 C 0.39096(18) 0.23326(17) 0.82440(18)
C108 C 0.39096(18) 0.17560(18) 0.76674(17)
C111 C 0.17560(18) 0.23326(17) 0.60904(18)
C112 C 0.23326(17) 0.17560(18) 0.60904(18)
C113 C 0.32440(18) 0.73326(17) 0.89096(18)
C114 C 0.26674(17) 0.67560(18) 0.89096(18)
H39 H 0.1474 0.4013 0.7456
H48 H 0.4013 0.2544 0.8526
H49 H 0.4013 0.1474 0.7456
H52 H 0.1474 0.2544 0.5987
H53 H 0.2544 0.1474 0.5987
H54 H 0.3526 0.7544 0.9013
H55 H 0.2456 0.6474 0.9013
N3 N 0.20491(14) 0.35019(13) 0.75806(12)
N12 N 0.35019(13) 0.24194(12) 0.79509(14)
N13 N 0.35019(13) 0.20491(14) 0.75806(12)
N16 N 0.20491(14) 0.24194(12) 0.64981(13)
N17 N 0.24194(12) 0.20491(14) 0.64981(13)
N18 N 0.29509(14) 0.74194(12) 0.85019(13)
N19 N 0.25806(12) 0.70491(14) 0.85019(13)
N30 N 0.14981(13) 0.70491(14) 0.74194(12)
N38 N 0.41550(17) 0.19100(12) 0.80900(12)
N40 N 0.19100(12) 0.19100(12) 0.58450(17)
N41 N 0.30900(12) 0.69100(12) 0.91550(17)
O12 O 0.24417(14) 0.75583(14) 0.75583(14)
O19 O 0.33278(10) 0.33278(10) 0.85322(13)
O20 O 0.64678(13) 0.16722(10) 0.83278(10)
O21 O 0.14678(13) 0.33278(10) 0.66722(10)
O22 O 0.16722(10) 0.16722(10) 0.35322(13)
O34 O 0.27921(13) 0.27921(13) 0.89233(18)
O35 O 0.60767(18) 0.22079(13) 0.77921(13)
O36 O 0.10767(18) 0.27921(13) 0.72079(13)
O37 O 0.22079(13) 0.22079(13) 0.39233(18)
O46 O 0.45893(12) 0.05398(10) 0.94602(10)
O48 O 0.05398(10) 0.05398(10) 0.54107(12)
O49 O 0.44602(10) 0.55398(10) 0.95893(12)
O60 O 0.44679(9) 0.44679(9) 0.95404(11)
O61 O 0.54596(11) 0.05321(9) 0.94679(9)
O62 O 0.04596(11) 0.44679(9) 0.55321(9)
O63 O 0.05321(9) 0.05321(9) 0.45404(11)
O75 O 0.33897(19) 0.27249(12) 0.66103(12)
O76 O 0.27249(12) 0.33897(19) 0.66103(12)
O86 O 0.16103(19) 0.77249(12) 0.83897(12)
O93_2 O -0.0000 0.63479(16) 1.0000
O95_2 O 0.36521(16) 0.0000 1.0000
O97 O 0.0000 0.0000 0.63479(16)
Cu3 Cu 0.206890(17) 0.29874(2) 0.701270(17)
Cu10 Cu 0.20126(2) 0.706890(17) 0.798730(17)
Cu14 Cu 0.298730(17) 0.206890(17) 0.70126(2)
Cu16 Cu 0.706890(17) 0.20126(2) 0.798730(17)
Cu18 Cu 0.201270(17) 0.20126(2) 0.293110(17)
Cu19 Cu 0.293110(17) 0.798730(17) 0.79874(2)
Cu26_2 Cu -0.0000 0.55187(2) 1.0000
Cu31 Cu 0.5000 0.5000 0.94813(2)
Cu35_4 Cu 0.44813(2) 1.0000 1.0000
Cu36_4 Cu 0.55187(2) 1.0000 1.0000
H65 H 0.2630(5) 0.7370(5) 0.7370(5)
O95_3 O 0.36521(16) 1.0000 0.0000
O70 O 0.45404(11) 0.94679(9) 0.94679(9)
O95_4 O 0.36521(16) 1.0000 1.0000
O97_2 O -0.0000 1.0000 0.63479(16)
Cu39_3 Cu 1.0000 0.0000 0.44813(2)
Cu40_3 Cu 1.0000 0.0000 0.55187(2)
O8_3 O 1.0000 0.36521(16) 0.0000
Cu2_3 Cu 1.0000 0.44813(2) 0.0000
C11 C 0.81357(15) 0.6062(2) 0.18643(15)
C22 C 0.83350(14) 0.55521(19) 0.16650(14)
C33 C 0.87104(14) 0.55398(19) 0.12896(14)
H7 H 0.8848 0.5851 0.1152
C44 C 0.88947(11) 0.5037(2) 0.11053(11)
C55 C 0.86997(15) 0.45961(18) 0.13003(15)
C63 C 0.95961(18) 0.63003(15) 0.36997(15)
H18 H 0.8817 0.4269 0.1183
H26 H 0.9269 0.6183 0.3817
C66 C 0.83111(14) 0.46353(18) 0.16889(14)
C74 C 0.96353(18) 0.66889(14) 0.33111(14)
C77 C 0.81357(13) 0.5091(2) 0.18643(13)
H29 H 0.7876 0.5100 0.2124
C88 C 0.93051(12) 0.5038(2) 0.06949(12)
C101 C 0.76674(17) 0.39096(18) 0.17560(18)
C102 C 0.82440(18) 0.39096(18) 0.23326(17)
C117 C 0.89096(18) 0.73326(17) 0.32440(18)
C118 C 0.89096(18) 0.67560(18) 0.26674(17)
H42 H 0.7456 0.4013 0.1474
H43 H 0.8526 0.4013 0.2544
H58 H 0.9013 0.7544 0.3526
H59 H 0.9013 0.6474 0.2456
N6 N 0.75806(12) 0.35019(13) 0.20491(14)
N7 N 0.79509(14) 0.35019(13) 0.24194(12)
N22 N 0.85019(13) 0.74194(12) 0.29509(14)
N23 N 0.85019(13) 0.70491(14) 0.25806(12)
N26 N 0.64981(13) 0.24194(12) 0.20491(14)
N27 N 0.79509(14) 0.24194(12) 0.35019(13)
N32 N 0.74194(12) 0.70491(14) 0.14981(13)
N35 N 0.80900(12) 0.41550(17) 0.19100(12)
N43 N 0.91550(17) 0.69100(12) 0.30900(12)
O10 O 0.74417(14) 0.25583(14) 0.25583(14)
O14 O 0.75583(14) 0.75583(14) 0.24417(14)
O17 O 0.83278(10) 0.64678(13) 0.16722(10)
O27 O 0.66722(10) 0.33278(10) 0.14678(13)
O28 O 0.85322(13) 0.33278(10) 0.33278(10)
O32 O 0.77921(13) 0.60767(18) 0.22079(13)
O43 O 0.94602(10) 0.45893(12) 0.05398(10)
O51 O 0.95893(12) 0.55398(10) 0.44602(10)
O58 O 0.94679(9) 0.54596(11) 0.05321(9)
O80 O 0.66103(12) 0.33897(19) 0.27249(12)
O81 O 0.66103(19) 0.27249(12) 0.33897(12)
O82 O 0.72751(12) 0.33897(19) 0.33897(12)
O88 O 0.83897(19) 0.77249(12) 0.16103(12)
O91 O 0.63932(15) 0.36068(15) 0.36068(15)
O93_3 O 1.0000 0.63479(16) 0.0000
S3 S 0.67228(6) 0.32772(6) 0.32772(6)
Cu6 Cu 0.701270(17) 0.29874(2) 0.206890(17)
Cu7 Cu 0.793110(17) 0.29874(2) 0.298730(17)
Cu12 Cu 0.79874(2) 0.706890(17) 0.201270(17)
Cu22 Cu 0.79874(2) 0.798730(17) 0.293110(17)
Cu24 Cu 0.701270(17) 0.206890(17) 0.29874(2)
Cu26_3 Cu 1.0000 0.55187(2) 0.0000
Cu37 Cu 0.94813(2) 0.5000 0.5000
Cu39_4 Cu 1.0000 1.0000 0.44813(2)
Cu40_4 Cu 1.0000 1.0000 0.55187(2)
H63 H 0.7630(5) 0.2370(5) 0.2370(5)
H67 H 0.7370(5) 0.7370(5) 0.2630(5)
O8_4 O 1.0000 0.36521(16) 1.0000
Cu2_4 Cu 1.0000 0.44813(2) 1.0000
C12 C 0.81357(15) 0.3938(2) 0.81357(15)
C23 C 0.83350(14) 0.44479(19) 0.83350(14)
C34 C 0.87104(14) 0.44602(19) 0.87104(14)
H8 H 0.8848 0.4149 0.8848
C45 C 0.88947(11) 0.4963(2) 0.88947(11)
C56 C 0.86997(15) 0.54039(18) 0.86997(15)
C59 C 0.95961(18) 0.36997(15) 0.63003(15)
H19 H 0.8817 0.5731 0.8817
H22 H 0.9269 0.3817 0.6183
C67 C 0.83111(14) 0.53647(18) 0.83111(14)
C70 C 0.96353(18) 0.33111(14) 0.66889(14)
C78 C 0.81357(13) 0.4909(2) 0.81357(13)
H30 H 0.7876 0.4900 0.7876
C89 C 0.93051(12) 0.4962(2) 0.93051(12)
C103 C 0.76674(17) 0.60904(18) 0.82440(18)
C104 C 0.82440(18) 0.60904(18) 0.76674(17)
C109 C 0.89096(18) 0.26674(17) 0.67560(18)
C110 C 0.89096(18) 0.32440(18) 0.73326(17)
H44 H 0.7456 0.5987 0.8526
H45 H 0.8526 0.5987 0.7456
H50 H 0.9013 0.2456 0.6474
H51 H 0.9013 0.3526 0.7544
N8 N 0.75806(12) 0.64981(13) 0.79509(14)
N9 N 0.79509(14) 0.64981(13) 0.75806(12)
N14 N 0.85019(13) 0.25806(12) 0.70491(14)
N15 N 0.85019(13) 0.29509(14) 0.74194(12)
N28 N 0.64981(13) 0.75806(12) 0.79509(14)
N29 N 0.79509(14) 0.75806(12) 0.64981(13)
N33 N 0.74194(12) 0.29509(14) 0.85019(13)
N36 N 0.80900(12) 0.58450(17) 0.80900(12)
N39 N 0.91550(17) 0.30900(12) 0.69100(12)
O11 O 0.74417(14) 0.74417(14) 0.74417(14)
O15 O 0.75583(14) 0.24417(14) 0.75583(14)
O18 O 0.83278(10) 0.35322(13) 0.83278(10)
O29 O 0.66722(10) 0.66722(10) 0.85322(13)
O30 O 0.85322(13) 0.66722(10) 0.66722(10)
O33 O 0.77921(13) 0.39233(18) 0.77921(13)
O44 O 0.94602(10) 0.54107(12) 0.94602(10)
O47 O 0.95893(12) 0.44602(10) 0.55398(10)
O59 O 0.94679(9) 0.45404(11) 0.94679(9)
O71 O 0.95404(11) 0.44679(9) 0.44679(9)
O72 O 0.95404(11) 0.55321(9) 0.55321(9)
O73 O 0.94679(9) 0.05321(9) 0.54596(11)
O83 O 0.66103(12) 0.66103(19) 0.72751(12)
O84 O 0.66103(19) 0.72751(12) 0.66103(12)
O85 O 0.72751(12) 0.66103(19) 0.66103(12)
O89 O 0.83897(19) 0.22751(12) 0.83897(12)
O92 O 0.63932(15) 0.63932(15) 0.63932(15)
O93_4 O 1.0000 0.63479(16) 1.0000
O96 O 0.86521(16) 0.5000 0.5000
O97_3 O 1.0000 0.0000 0.63479(16)
S4 S 0.67228(6) 0.67228(6) 0.67228(6)
Cu8 Cu 0.701270(17) 0.70126(2) 0.793110(17)
Cu9 Cu 0.793110(17) 0.70126(2) 0.701270(17)
Cu13 Cu 0.79874(2) 0.293110(17) 0.798730(17)
Cu17 Cu 0.79874(2) 0.201270(17) 0.706890(17)
Cu25 Cu 0.701270(17) 0.793110(17) 0.70126(2)
Cu26_4 Cu 1.0000 0.55187(2) 1.0000
H64 H 0.7630(5) 0.7630(5) 0.7630(5)
H68 H 0.7370(5) 0.2630(5) 0.7370(5)
O56 O 0.94602(10) 0.94602(10) 0.54107(12)
O97_4 O 1.0000 1.0000 0.63479(16)
O97_5 O 0.0000 0.0000 0.36521(16)
O97_6 O -0.0000 1.0000 0.36521(16)
O53_2 O 0.55398(10) 0.44602(10) 0.95893(12)
O68_2 O 0.55321(9) 0.55321(9) 0.95404(11)
O94_2 O 0.5000 0.5000 0.86521(16)
O56_2 O 0.94602(10) 0.05398(10) 0.45893(12)
O97_7 O 1.0000 0.0000 0.36521(16)
O73_2 O 0.94679(9) 0.94679(9) 0.45404(11)
O97_8 O 1.0000 1.0000 0.36521(16)
C63_2 C 0.04039(18) 0.36997(15) 0.36997(15)
H26_2 H 0.0731 0.3817 0.3817
C74_2 C 0.03647(18) 0.33111(14) 0.33111(14)
C117_2 C 0.10904(18) 0.26674(17) 0.32440(18)
C118_2 C 0.10904(18) 0.32440(18) 0.26674(17)
H58_2 H 0.0987 0.2456 0.3526
H59_2 H 0.0987 0.3526 0.2456
N22_2 N 0.14981(13) 0.25806(12) 0.29509(14)
N43_2 N 0.08450(17) 0.30900(12) 0.30900(12)
O51_2 O 0.04107(12) 0.44602(10) 0.44602(10)
C59_2 C 0.04039(18) 0.63003(15) 0.63003(15)
H22_2 H 0.0731 0.6183 0.6183
C70_2 C 0.03647(18) 0.66889(14) 0.66889(14)
C109_2 C 0.10904(18) 0.73326(17) 0.67560(18)
C110_2 C 0.10904(18) 0.67560(18) 0.73326(17)
H50_2 H 0.0987 0.7544 0.6474
H51_2 H 0.0987 0.6474 0.7544
N14_2 N 0.14981(13) 0.74194(12) 0.70491(14)
N39_2 N 0.08450(17) 0.69100(12) 0.69100(12)
O47_2 O 0.04107(12) 0.55398(10) 0.55398(10)
O96_2 O 0.13479(16) 0.5000 0.5000
O54 O 0.54107(12) 0.05398(10) 0.05398(10)
O95_5 O 0.63479(16) 0.0000 0.0000
O95_6 O 0.63479(16) 0.0000 1.0000
C17_2 C 0.68643(15) 0.31357(15) 0.1062(2)
C18_2 C 0.3938(2) 0.18643(15) 0.18643(15)
C19_2 C 0.8938(2) 0.31357(15) 0.31357(15)
C20_2 C 0.81357(15) 0.18643(15) 0.6062(2)
C28_2 C 0.66650(14) 0.33350(14) 0.05521(19)
C29_2 C 0.44479(19) 0.16650(14) 0.16650(14)
C30_2 C 0.94479(19) 0.33350(14) 0.33350(14)
C31_2 C 0.83350(14) 0.16650(14) 0.55521(19)
C39_2 C 0.62896(14) 0.37104(14) 0.05398(19)
C40_2 C 0.44602(19) 0.12896(14) 0.12896(14)
C41_2 C 0.94602(19) 0.37104(14) 0.37104(14)
C42_2 C 0.87104(14) 0.12896(14) 0.55398(19)
H13_2 H 0.6152 0.3848 0.0851
H14_2 H 0.4149 0.1152 0.1152
H15_2 H 0.9149 0.3848 0.3848
H16_2 H 0.8848 0.1152 0.5851
C50_2 C 0.61053(11) 0.38947(11) 0.0037(2)
C51_2 C 0.4963(2) 0.11053(11) 0.11053(11)
C52_2 C 0.9963(2) 0.38947(11) 0.38947(11)
C53_2 C 0.88947(11) 0.11053(11) 0.5037(2)
C57_2 C 0.63003(15) 0.63003(15) 0.04039(18)
C62_2 C 0.54039(18) 0.13003(15) 0.13003(15)
C64_2 C 0.86997(15) 0.13003(15) 0.45961(18)
H20_2 H 0.6183 0.6183 0.0731
H25_2 H 0.5731 0.1183 0.1183
H27_2 H 0.8817 0.1183 0.4269
C68_2 C 0.66889(14) 0.66889(14) 0.03647(18)
C73_2 C 0.53647(18) 0.16889(14) 0.16889(14)
C75_2 C 0.83111(14) 0.16889(14) 0.46353(18)
C83_2 C 0.68643(13) 0.31357(13) 0.0091(2)
C84_2 C 0.4909(2) 0.18643(13) 0.18643(13)
C85_2 C 0.9909(2) 0.31357(13) 0.31357(13)
C86_2 C 0.81357(13) 0.18643(13) 0.5091(2)
H35_2 H 0.7124 0.2876 0.0100
H36_2 H 0.4900 0.2124 0.2124
H37_2 H 0.9900 0.2876 0.2876
H38_2 H 0.7876 0.2124 0.5100
C94_2 C 0.56949(12) 0.43051(12) 0.0038(2)
C95_2 C 0.4962(2) 0.06949(12) 0.06949(12)
C96_2 C 0.9962(2) 0.43051(12) 0.43051(12)
C97_2 C 0.93051(12) 0.06949(12) 0.5038(2)
C105_2 C 0.67560(18) 0.73326(17) 0.10904(18)
C106_2 C 0.73326(17) 0.67560(18) 0.10904(18)
C115_2 C 0.60904(18) 0.23326(17) 0.17560(18)
C116_2 C 0.60904(18) 0.17560(18) 0.23326(17)
C119_2 C 0.82440(18) 0.23326(17) 0.39096(18)
C120_2 C 0.76674(17) 0.17560(18) 0.39096(18)
H46_2 H 0.6474 0.7544 0.0987
H47_2 H 0.7544 0.6474 0.0987
H56_2 H 0.5987 0.2544 0.1474
H57_2 H 0.5987 0.1474 0.2544
H60_2 H 0.8526 0.2544 0.4013
H61_2 H 0.7456 0.1474 0.4013
N10_2 N 0.70491(14) 0.74194(12) 0.14981(13)
N21_2 N 0.64981(13) 0.20491(14) 0.24194(12)
N25_2 N 0.75806(12) 0.20491(14) 0.35019(13)
N37_2 N 0.69100(12) 0.69100(12) 0.08450(17)
N42_2 N 0.58450(17) 0.19100(12) 0.19100(12)
N44_2 N 0.80900(12) 0.19100(12) 0.41550(17)
O24_2 O 0.35322(13) 0.16722(10) 0.16722(10)
O26_2 O 0.83278(10) 0.16722(10) 0.64678(13)
O38_2 O 0.72079(13) 0.27921(13) 0.10767(18)
O39_2 O 0.39233(18) 0.22079(13) 0.22079(13)
O40_2 O 0.89233(18) 0.27921(13) 0.27921(13)
O41_2 O 0.77921(13) 0.22079(13) 0.60767(18)
O95_7 O 0.63479(16) 1.0000 0.0000
C13_2 C 0.68643(15) 0.68643(15) 0.8938(2)
C14_2 C 0.3938(2) 0.81357(15) 0.81357(15)
C15_2 C 0.8938(2) 0.68643(15) 0.68643(15)
C16_2 C 0.81357(15) 0.81357(15) 0.3938(2)
C24_2 C 0.66650(14) 0.66650(14) 0.94479(19)
C25_2 C 0.44479(19) 0.83350(14) 0.83350(14)
C26_2 C 0.94479(19) 0.66650(14) 0.66650(14)
C27_2 C 0.83350(14) 0.83350(14) 0.44479(19)
C35_2 C 0.62896(14) 0.62896(14) 0.94602(19)
C36_2 C 0.44602(19) 0.87104(14) 0.87104(14)
C37_2 C 0.94602(19) 0.62896(14) 0.62896(14)
C38_2 C 0.87104(14) 0.87104(14) 0.44602(19)
H9_2 H 0.6152 0.6152 0.9149
H10_2 H 0.4149 0.8848 0.8848
H11_2 H 0.9149 0.6152 0.6152
H12_2 H 0.8848 0.8848 0.4149
C46_2 C 0.61053(11) 0.61053(11) 0.9963(2)
C47_2 C 0.4963(2) 0.88947(11) 0.88947(11)
C48_2 C 0.9963(2) 0.61053(11) 0.61053(11)
C49_2 C 0.88947(11) 0.88947(11) 0.4963(2)
C58_2 C 0.54039(18) 0.86997(15) 0.86997(15)
C60_2 C 0.86997(15) 0.86997(15) 0.54039(18)
C61_2 C 0.63003(15) 0.36997(15) 0.95961(18)
H21_2 H 0.5731 0.8817 0.8817
H23_2 H 0.8817 0.8817 0.5731
H24_2 H 0.6183 0.3817 0.9269
C69_2 C 0.53647(18) 0.83111(14) 0.83111(14)
C71_2 C 0.83111(14) 0.83111(14) 0.53647(18)
C72_2 C 0.66889(14) 0.33111(14) 0.96353(18)
C79_2 C 0.68643(13) 0.68643(13) 0.9909(2)
C80_2 C 0.4909(2) 0.81357(13) 0.81357(13)
C81_2 C 0.9909(2) 0.68643(13) 0.68643(13)
C82_2 C 0.81357(13) 0.81357(13) 0.4909(2)
H31_2 H 0.7124 0.7124 0.9900
H32_2 H 0.4900 0.7876 0.7876
H33_2 H 0.9900 0.7124 0.7124
H34_2 H 0.7876 0.7876 0.4900
C90_2 C 0.56949(12) 0.56949(12) 0.9962(2)
C91_2 C 0.4962(2) 0.93051(12) 0.93051(12)
C92_2 C 0.9962(2) 0.56949(12) 0.56949(12)
C93_2 C 0.93051(12) 0.93051(12) 0.4962(2)
C107_2 C 0.60904(18) 0.76674(17) 0.82440(18)
C108_2 C 0.60904(18) 0.82440(18) 0.76674(17)
C111_2 C 0.82440(18) 0.76674(17) 0.60904(18)
C112_2 C 0.76674(17) 0.82440(18) 0.60904(18)
C113_2 C 0.67560(18) 0.26674(17) 0.89096(18)
C114_2 C 0.73326(17) 0.32440(18) 0.89096(18)
H48_2 H 0.5987 0.7456 0.8526
H49_2 H 0.5987 0.8526 0.7456
H52_2 H 0.8526 0.7456 0.5987
H53_2 H 0.7456 0.8526 0.5987
H54_2 H 0.6474 0.2456 0.9013
H55_2 H 0.7544 0.3526 0.9013
N13_2 N 0.64981(13) 0.79509(14) 0.75806(12)
N17_2 N 0.75806(12) 0.79509(14) 0.64981(13)
N18_2 N 0.70491(14) 0.25806(12) 0.85019(13)
N38_2 N 0.58450(17) 0.80900(12) 0.80900(12)
N40_2 N 0.80900(12) 0.80900(12) 0.58450(17)
N41_2 N 0.69100(12) 0.30900(12) 0.91550(17)
O20_2 O 0.35322(13) 0.83278(10) 0.83278(10)
O22_2 O 0.83278(10) 0.83278(10) 0.35322(13)
O34_2 O 0.72079(13) 0.72079(13) 0.89233(18)
O35_2 O 0.39233(18) 0.77921(13) 0.77921(13)
O36_2 O 0.89233(18) 0.72079(13) 0.72079(13)
O37_2 O 0.77921(13) 0.77921(13) 0.39233(18)
O46_2 O 0.54107(12) 0.94602(10) 0.94602(10)
O95_8 O 0.63479(16) 1.0000 1.0000
C59_3 C 0.36997(15) 0.04039(18) 0.36997(15)
H22_3 H 0.3817 0.0731 0.3817
C70_3 C 0.33111(14) 0.03647(18) 0.33111(14)
C109_3 C 0.26674(17) 0.10904(18) 0.32440(18)
C110_3 C 0.32440(18) 0.10904(18) 0.26674(17)
H50_3 H 0.2456 0.0987 0.3526
H51_3 H 0.3526 0.0987 0.2456
N14_3 N 0.25806(12) 0.14981(13) 0.29509(14)
N15_2 N 0.29509(14) 0.14981(13) 0.25806(12)
N39_3 N 0.30900(12) 0.08450(17) 0.30900(12)
O30_2 O 0.66722(10) 0.14678(13) 0.33278(10)
O47_3 O 0.44602(10) 0.04107(12) 0.44602(10)
O55 O 0.55398(10) 0.04107(12) 0.55398(10)
O71_2 O 0.44679(9) 0.04596(11) 0.55321(9)
O72_2 O 0.55321(9) 0.04596(11) 0.44679(9)
O89_2 O 0.22751(12) 0.16103(19) 0.16103(12)
O96_3 O 0.5000 0.13479(16) 0.5000
Cu29 Cu 0.5000 0.05187(2) 0.5000
C63_3 C 0.63003(15) 0.04039(18) 0.63003(15)
H26_3 H 0.6183 0.0731 0.6183
C74_3 C 0.66889(14) 0.03647(18) 0.66889(14)
C117_3 C 0.73326(17) 0.10904(18) 0.67560(18)
C118_3 C 0.67560(18) 0.10904(18) 0.73326(17)
H58_3 H 0.7544 0.0987 0.6474
H59_3 H 0.6474 0.0987 0.7544
N22_3 N 0.74194(12) 0.14981(13) 0.70491(14)
N23_2 N 0.70491(14) 0.14981(13) 0.74194(12)
N43_3 N 0.69100(12) 0.08450(17) 0.69100(12)
O28_2 O 0.33278(10) 0.14678(13) 0.66722(10)
O88_2 O 0.77249(12) 0.16103(19) 0.83897(12)
C15_3 C 0.31357(15) 0.8938(2) 0.31357(15)
C26_3 C 0.33350(14) 0.94479(19) 0.33350(14)
C37_3 C 0.37104(14) 0.94602(19) 0.37104(14)
H11_3 H 0.3848 0.9149 0.3848
C48_3 C 0.38947(11) 0.9963(2) 0.38947(11)
C81_3 C 0.31357(13) 0.9909(2) 0.31357(13)
H33_3 H 0.2876 0.9900 0.2876
C92_3 C 0.43051(12) 0.9962(2) 0.43051(12)
N30_2 N 0.70491(14) 0.85019(13) 0.25806(12)
O21_2 O 0.33278(10) 0.85322(13) 0.33278(10)
O36_3 O 0.27921(13) 0.89233(18) 0.27921(13)
O62_2 O 0.44679(9) 0.95404(11) 0.44679(9)
O86_2 O 0.77249(12) 0.83897(19) 0.16103(12)
Cu33 Cu 0.5000 0.94813(2) 0.5000
C19_3 C 0.68643(15) 0.8938(2) 0.68643(15)
C30_3 C 0.66650(14) 0.94479(19) 0.66650(14)
C41_3 C 0.62896(14) 0.94602(19) 0.62896(14)
H15_3 H 0.6152 0.9149 0.6152
C52_3 C 0.61053(11) 0.9963(2) 0.61053(11)
C85_3 C 0.68643(13) 0.9909(2) 0.68643(13)
H37_3 H 0.7124 0.9900 0.7124
C96_3 C 0.56949(12) 0.9962(2) 0.56949(12)
N31_2 N 0.29509(14) 0.85019(13) 0.74194(12)
O25_2 O 0.66722(10) 0.85322(13) 0.66722(10)
O40_3 O 0.72079(13) 0.89233(18) 0.72079(13)
O66_2 O 0.55321(9) 0.95404(11) 0.55321(9)
O87_2 O 0.22751(12) 0.83897(19) 0.83897(12)
C15_4 C 0.68643(15) 0.1062(2) 0.31357(15)
C26_4 C 0.66650(14) 0.05521(19) 0.33350(14)
C37_4 C 0.62896(14) 0.05398(19) 0.37104(14)
H11_4 H 0.6152 0.0851 0.3848
C48_4 C 0.61053(11) 0.0037(2) 0.38947(11)
C81_4 C 0.68643(13) 0.0091(2) 0.31357(13)
H33_4 H 0.7124 0.0100 0.2876
C92_4 C 0.56949(12) 0.0038(2) 0.43051(12)
O36_4 O 0.72079(13) 0.10767(18) 0.27921(13)
C19_4 C 0.31357(15) 0.1062(2) 0.68643(15)
C30_4 C 0.33350(14) 0.05521(19) 0.66650(14)
C41_4 C 0.37104(14) 0.05398(19) 0.62896(14)
H15_4 H 0.3848 0.0851 0.6152
C52_4 C 0.38947(11) 0.0037(2) 0.61053(11)
C85_4 C 0.31357(13) 0.0091(2) 0.68643(13)
H37_4 H 0.2876 0.0100 0.7124
C96_4 C 0.43051(12) 0.0038(2) 0.56949(12)
O40_4 O 0.27921(13) 0.10767(18) 0.72079(13)
C59_4 C 0.63003(15) 0.95961(18) 0.36997(15)
H22_4 H 0.6183 0.9269 0.3817
C70_4 C 0.66889(14) 0.96353(18) 0.33111(14)
C109_4 C 0.73326(17) 0.89096(18) 0.32440(18)
C110_4 C 0.67560(18) 0.89096(18) 0.26674(17)
H50_4 H 0.7544 0.9013 0.3526
H51_4 H 0.6474 0.9013 0.2456
N14_4 N 0.74194(12) 0.85019(13) 0.29509(14)
N39_4 N 0.69100(12) 0.91550(17) 0.30900(12)
O47_4 O 0.55398(10) 0.95893(12) 0.44602(10)
O55_2 O 0.44602(10) 0.95893(12) 0.55398(10)
O96_4 O 0.5000 0.86521(16) 0.5000
C63_4 C 0.36997(15) 0.95961(18) 0.63003(15)
H26_4 H 0.3817 0.9269 0.6183
C74_4 C 0.33111(14) 0.96353(18) 0.66889(14)
C117_4 C 0.26674(17) 0.89096(18) 0.67560(18)
C118_4 C 0.32440(18) 0.89096(18) 0.73326(17)
H58_4 H 0.2456 0.9013 0.6474
H59_4 H 0.3526 0.9013 0.7544
N22_4 N 0.25806(12) 0.85019(13) 0.70491(14)
N43_4 N 0.30900(12) 0.91550(17) 0.69100(12)
O87_3 O 0.16103(12) 0.16103(19) 0.22751(12)
O88_3 O 0.16103(12) 0.83897(19) 0.77249(12)
O86_3 O 0.83897(12) 0.16103(19) 0.77249(12)
O89_3 O 0.83897(12) 0.83897(19) 0.22751(12)
O90_2 O 0.86068(15) 0.13932(15) 0.86068(15)
O92_2 O 0.13932(15) 0.13932(15) 0.13932(15)
S2_2 S 0.82772(6) 0.17228(6) 0.82772(6)
S4_2 S 0.17228(6) 0.17228(6) 0.17228(6)
O7_2 O 0.86068(15) 0.86068(15) 0.13932(15)
S1_2 S 0.82772(6) 0.82772(6) 0.17228(6)
O91_2 O 0.13932(15) 0.86068(15) 0.86068(15)
S3_2 S 0.17228(6) 0.82772(6) 0.82772(6)
loop_
_geom_bond_atom_site_label_1
_geom_bond_atom_site_label_2
_geom_bond_site_symmetry_1
_geom_bond_site_symmetry_2
O8 Cu2 1_555 1_555
C10 C21 1_555 1_555
C17 C28 1_555 1_555
C18 C29 1_555 1_555
C19 C30 1_555 1_555
C20 C31 1_555 1_555
C21 C32 1_555 1_555
C28 C39 1_555 1_555
C29 C40 1_555 1_555
C30 C41 1_555 1_555
C31 C42 1_555 1_555
C32 H6 1_555 1_555
C39 H13 1_555 1_555
C40 H14 1_555 1_555
C41 H15 1_555 1_555
C42 H16 1_555 1_555
C43 C32 1_555 1_555
C50 C39 1_555 1_555
C51 C40 1_555 1_555
C52 C41 1_555 1_555
C53 C42 1_555 1_555
C54 C43 1_555 1_555
C62 C51 1_555 1_555
C64 C53 1_555 1_555
H17 C54 1_555 1_555
H20 C57 1_555 1_555
H25 C62 1_555 1_555
H27 C64 1_555 1_555
C65 C54 1_555 1_555
C68 C57 1_555 1_555
C73 C62 1_555 1_555
C75 C64 1_555 1_555
C76 C21 1_555 1_555
C83 C28 1_555 1_555
C84 C29 1_555 1_555
C85 C30 1_555 1_555
C86 C31 1_555 1_555
H28 C76 1_555 1_555
H35 C83 1_555 1_555
H36 C84 1_555 1_555
H37 C85 1_555 1_555
H38 C86 1_555 1_555
C87 C43 1_555 1_555
C94 C50 1_555 1_555
C95 C51 1_555 1_555
C96 C52 1_555 1_555
C97 C53 1_555 1_555
C99 H40 1_555 1_555
C100 H41 1_555 1_555
C105 H46 1_555 1_555
C106 H47 1_555 1_555
C115 H56 1_555 1_555
C116 H57 1_555 1_555
C119 H60 1_555 1_555
C120 H61 1_555 1_555
N4 C99 1_555 1_555
N5 C100 1_555 1_555
N10 C105 1_555 1_555
N11 C106 1_555 1_555
N20 C115 1_555 1_555
N21 C116 1_555 1_555
N24 C119 1_555 1_555
N25 C120 1_555 1_555
N31 Cu11 1_555 1_555
N34 C65 1_555 1_555
N37 C68 1_555 1_555
N42 C73 1_555 1_555
N44 C75 1_555 1_555
O9 Cu4 1_555 1_555
O13 Cu11 1_555 1_555
O16 C10 1_555 1_555
O23 C17 1_555 1_555
O24 C18 1_555 1_555
O25 C19 1_555 1_555
O26 C20 1_555 1_555
O31 C10 1_555 1_555
O38 C17 1_555 1_555
O39 C18 1_555 1_555
O40 C19 1_555 1_555
O41 C20 1_555 1_555
O42 C87 1_555 1_555
O50 C95 1_555 1_555
O52 C97 1_555 1_555
O53 Cu27 1_555 1_555
O57 Cu2 1_555 1_555
O64 C94 1_555 1_555
O65 C95 1_555 1_555
O66 C96 1_555 1_555
O67 C97 1_555 1_555
O68 Cu27 1_555 1_555
O69 Cu35 1_555 1_555
O77 S2 1_555 1_555
O78 S2 1_555 1_555
O79 S2 1_555 1_555
O87 Cu11 1_555 1_555
O90 S2 1_555 1_555
O93 Cu26 1_555 1_555
O94 Cu27 1_555 1_555
O95 Cu35 1_555 1_555
Cu4 N4 1_555 1_555
Cu5 N5 1_555 1_555
Cu11 N11 1_555 1_555
Cu15 N10 1_555 1_555
Cu20 N21 1_555 1_555
Cu21 O24 1_555 1_555
Cu23 O26 1_555 1_555
Cu27 O45 1_555 1_555
Cu35_3 O50 1_555 1_555
Cu36_3 O65 1_555 1_555
Cu38 O66 1_555 1_555
Cu39_2 O52 1_555 1_555
Cu40_2 O67 1_555 1_555
H62 O9 1_555 1_555
H66 O13 1_555 1_555
C65 C76 1_555 1_555
C73 C84 1_555 1_555
C75 C86 1_555 1_555
C87 O57 1_555 1_555
C99 N34 1_555 1_555
C100 N34 1_555 1_555
C105 N37 1_555 1_555
C106 N37 1_555 1_555
C115 N42 1_555 1_555
C116 N42 1_555 1_555
C119 N44 1_555 1_555
C120 N44 1_555 1_555
N4 N5 1_555 1_555
N10 N11 1_555 1_555
N20 N21 1_555 1_555
N20 Cu4 1_555 1_555
N24 N25 1_555 1_555
N24 Cu5 1_555 1_555
N25 Cu20 1_555 1_555
O9 Cu5 1_555 1_555
O9 Cu20 1_555 1_555
O13 Cu15 1_555 1_555
O16 Cu11 1_555 1_555
O23 Cu4 1_555 1_555
O25 Cu5 1_555 1_555
O42 Cu26 1_555 1_555
O64 Cu27 1_555 1_555
O77 Cu4 1_555 1_555
O78 Cu20 1_555 1_555
O79 Cu5 1_555 1_555
C1 C2 1_555 1_555
C2 C3 1_555 1_555
C3 H1 1_555 1_555
C4 C3 1_555 1_555
C5 C4 1_555 1_555
H2 C5 1_555 1_555
C6 C5 1_555 1_555
C7 C2 1_555 1_555
H3 C7 1_555 1_555
C8 C4 1_555 1_555
C9 H4 1_555 1_555
N1 C9 1_555 1_555
N2 C6 1_555 1_555
O1 Cu1 1_555 1_555
O2 C1 1_555 1_555
O3 C1 1_555 1_555
O4 C8 1_555 1_555
O5 C8 1_555 1_555
O6 S1 1_555 1_555
O7 S1 1_555 1_555
O8_2 Cu2_2 1_555 1_555
S1 O75 1_555 1_555
Cu1 N1 1_555 1_555
Cu2_2 O4 1_555 1_555
H5 O1 1_555 1_555
C13 C24 1_555 1_555
C14 C25 1_555 1_555
C15 C26 1_555 1_555
C16 C27 1_555 1_555
C24 C35 1_555 1_555
C25 C36 1_555 1_555
C26 C37 1_555 1_555
C27 C38 1_555 1_555
C35 H9 1_555 1_555
C36 H10 1_555 1_555
C37 H11 1_555 1_555
C38 H12 1_555 1_555
C46 C35 1_555 1_555
C47 C36 1_555 1_555
C48 C37 1_555 1_555
C49 C38 1_555 1_555
C58 C47 1_555 1_555
C60 C49 1_555 1_555
H21 C58 1_555 1_555
H23 C60 1_555 1_555
H24 C61 1_555 1_555
C69 C58 1_555 1_555
C71 C60 1_555 1_555
C72 C61 1_555 1_555
C79 C24 1_555 1_555
C80 C25 1_555 1_555
C81 C26 1_555 1_555
C82 C27 1_555 1_555
H31 C79 1_555 1_555
H32 C80 1_555 1_555
H33 C81 1_555 1_555
H34 C82 1_555 1_555
C90 C46 1_555 1_555
C91 C47 1_555 1_555
C92 C48 1_555 1_555
C93 C49 1_555 1_555
C98 N2 1_555 1_555
C107 H48 1_555 1_555
C108 H49 1_555 1_555
C111 H52 1_555 1_555
C112 H53 1_555 1_555
C113 H54 1_555 1_555
C114 H55 1_555 1_555
H39 C98 1_555 1_555
N3 N1 1_555 1_555
N12 Cu1 1_555 1_555
N13 C108 1_555 1_555
N16 C111 1_555 1_555
N17 C112 1_555 1_555
N18 C113 1_555 1_555
N19 C114 1_555 1_555
N30 Cu10 1_555 1_555
N38 C69 1_555 1_555
N40 C71 1_555 1_555
N41 C72 1_555 1_555
O12 Cu10 1_555 1_555
O19 Cu1 1_555 1_555
O20 C14 1_555 1_555
O21 C15 1_555 1_555
O22 C16 1_555 1_555
O34 C13 1_555 1_555
O35 C14 1_555 1_555
O36 C15 1_555 1_555
O37 C16 1_555 1_555
O46 C91 1_555 1_555
O48 C93 1_555 1_555
O60 C90 1_555 1_555
O61 C91 1_555 1_555
O62 C92 1_555 1_555
O63 C93 1_555 1_555
O75 Cu14 1_555 1_555
O76 S1 1_555 1_555
O86 Cu10 1_555 1_555
O93_2 Cu26_2 1_555 1_555
O95_2 Cu35_2 1_555 1_555
O97 Cu40 1_555 1_555
Cu3 O1 1_555 1_555
Cu10 O2 1_555 1_555
Cu14 O1 1_555 1_555
Cu16 O20 1_555 1_555
Cu18 O22 1_555 1_555
Cu19 N18 1_555 1_555
Cu26_2 O5 1_555 1_555
Cu35_2 O46 1_555 1_555
Cu40 O48 1_555 1_555
Cu31 O49 1_555 1_555
Cu36_2 O61 1_555 1_555
Cu38 O62 1_555 1_555
Cu39 O63 1_555 1_555
H65 O12 1_555 1_555
C6 C7 1_555 1_555
C9 N2 1_555 1_555
O6 Cu1 1_555 1_555
C13 O19 1_555 1_555
C69 C80 1_555 1_555
C71 C82 1_555 1_555
C98 N3 1_555 1_555
C107 N12 1_555 1_555
C107 N38 1_555 1_555
C108 N38 1_555 1_555
C111 N40 1_555 1_555
C112 N40 1_555 1_555
C113 N41 1_555 1_555
C114 N41 1_555 1_555
N3 Cu3 1_555 1_555
N12 N13 1_555 1_555
N13 Cu14 1_555 1_555
N16 N17 1_555 1_555
N16 Cu3 1_555 1_555
N17 Cu14 1_555 1_555
N18 N19 1_555 1_555
N19 Cu10 1_555 1_555
O12 Cu19 1_555 1_555
O21 Cu3 1_555 1_555
O60 Cu31 1_555 1_555
O76 Cu3 1_555 1_555
O95_3 Cu35_3 1_555 1_555
O70 Cu35_4 1_555 1_555
O95_4 Cu35_4 1_555 1_555
O97_2 Cu40_2 1_555 1_555
O8_3 Cu2_3 1_555 1_555
C11 C22 1_555 1_555
C22 C33 1_555 1_555
C33 H7 1_555 1_555
C44 C33 1_555 1_555
C55 C44 1_555 1_555
H18 C55 1_555 1_555
H26 C63 1_555 1_555
C66 C55 1_555 1_555
C74 C63 1_555 1_555
C77 C22 1_555 1_555
H29 C77 1_555 1_555
C88 C44 1_555 1_555
C101 H42 1_555 1_555
C102 H43 1_555 1_555
C117 H58 1_555 1_555
C118 H59 1_555 1_555
N6 C101 1_555 1_555
N7 C102 1_555 1_555
N22 C117 1_555 1_555
N23 C118 1_555 1_555
N26 Cu6 1_555 1_555
N27 Cu7 1_555 1_555
N32 Cu12 1_555 1_555
N35 C66 1_555 1_555
N43 C74 1_555 1_555
O10 Cu6 1_555 1_555
O14 Cu12 1_555 1_555
O17 C11 1_555 1_555
O27 Cu6 1_555 1_555
O28 Cu7 1_555 1_555
O32 C11 1_555 1_555
O43 Cu2_3 1_555 1_555
O58 C88 1_555 1_555
O80 S3 1_555 1_555
O81 S3 1_555 1_555
O82 S3 1_555 1_555
O88 Cu12 1_555 1_555
O91 S3 1_555 1_555
O93_3 Cu26_3 1_555 1_555
Cu6 N6 1_555 1_555
Cu7 N7 1_555 1_555
Cu12 N23 1_555 1_555
Cu22 N22 1_555 1_555
Cu24 O10 1_555 1_555
Cu37 O51 1_555 1_555
H63 O10 1_555 1_555
H67 O14 1_555 1_555
C66 C77 1_555 1_555
C88 O43 1_555 1_555
C101 N35 1_555 1_555
C102 N35 1_555 1_555
C117 N43 1_555 1_555
C118 N43 1_555 1_555
N6 N7 1_555 1_555
N22 N23 1_555 1_555
O10 Cu7 1_555 1_555
O14 Cu22 1_555 1_555
O17 Cu12 1_555 1_555
O58 Cu26_3 1_555 1_555
O80 Cu6 1_555 1_555
O81 Cu24 1_555 1_555
O82 Cu7 1_555 1_555
O8_4 Cu2_4 1_555 1_555
C12 C23 1_555 1_555
C23 C34 1_555 1_555
C34 H8 1_555 1_555
C45 C34 1_555 1_555
C56 C45 1_555 1_555
H19 C56 1_555 1_555
H22 C59 1_555 1_555
C67 C56 1_555 1_555
C70 C59 1_555 1_555
C78 C23 1_555 1_555
H30 C78 1_555 1_555
C89 C45 1_555 1_555
C103 H44 1_555 1_555
C104 H45 1_555 1_555
C109 H50 1_555 1_555
C110 H51 1_555 1_555
N8 C103 1_555 1_555
N9 C104 1_555 1_555
N14 C109 1_555 1_555
N15 C110 1_555 1_555
N28 Cu8 1_555 1_555
N29 Cu9 1_555 1_555
N33 Cu13 1_555 1_555
N36 C67 1_555 1_555
N39 C70 1_555 1_555
O11 Cu8 1_555 1_555
O15 Cu13 1_555 1_555
O18 C12 1_555 1_555
O29 Cu8 1_555 1_555
O30 Cu9 1_555 1_555
O33 C12 1_555 1_555
O44 C89 1_555 1_555
O59 Cu2_4 1_555 1_555
O71 Cu37 1_555 1_555
O72 Cu37 1_555 1_555
O73 Cu40_3 1_555 1_555
O83 S4 1_555 1_555
O84 S4 1_555 1_555
O85 S4 1_555 1_555
O89 Cu13 1_555 1_555
O92 S4 1_555 1_555
O93_4 Cu26_4 1_555 1_555
O96 Cu37 1_555 1_555
O97_3 Cu40_3 1_555 1_555
Cu8 N8 1_555 1_555
Cu9 N9 1_555 1_555
Cu13 N15 1_555 1_555
Cu17 N14 1_555 1_555
Cu25 O11 1_555 1_555
Cu37 O47 1_555 1_555
H64 O11 1_555 1_555
H68 O15 1_555 1_555
C67 C78 1_555 1_555
C89 O59 1_555 1_555
C103 N36 1_555 1_555
C104 N36 1_555 1_555
C109 N39 1_555 1_555
C110 N39 1_555 1_555
N8 N9 1_555 1_555
N14 N15 1_555 1_555
O11 Cu9 1_555 1_555
O15 Cu17 1_555 1_555
O18 Cu13 1_555 1_555
O44 Cu26_4 1_555 1_555
O83 Cu8 1_555 1_555
O84 Cu25 1_555 1_555
O85 Cu9 1_555 1_555
O56 Cu40_4 1_555 1_555
O97_4 Cu40_4 1_555 1_555
O97_5 Cu39 1_555 1_555
O97_6 Cu39_2 1_555 1_555
O53_2 Cu31 1_555 1_555
O68_2 Cu31 1_555 1_555
O94_2 Cu31 1_555 1_555
O56_2 Cu39_3 1_555 1_555
O97_7 Cu39_3 1_555 1_555
O73_2 Cu39_4 1_555 1_555
O97_8 Cu39_4 1_555 1_555
H26_2 C63_2 1_555 1_555
C74_2 C63_2 1_555 1_555
C117_2 H58_2 1_555 1_555
C118_2 H59_2 1_555 1_555
N22_2 C117_2 1_555 1_555
N31 C118_2 1_555 1_555
N43_2 C74_2 1_555 1_555
Cu18 N22_2 1_555 1_555
Cu38 O51_2 1_555 1_555
C117_2 N43_2 1_555 1_555
C118_2 N43_2 1_555 1_555
N22_2 N31 1_555 1_555
O13 Cu18 1_555 1_555
H22_2 C59_2 1_555 1_555
C70_2 C59_2 1_555 1_555
C109_2 H50_2 1_555 1_555
C110_2 H51_2 1_555 1_555
N14_2 C109_2 1_555 1_555
N30 C110_2 1_555 1_555
N39_2 C70_2 1_555 1_555
O96_2 Cu38 1_555 1_555
Cu23 N14_2 1_555 1_555
Cu38 O47_2 1_555 1_555
C109_2 N39_2 1_555 1_555
C110_2 N39_2 1_555 1_555
N14_2 N30 1_555 1_555
O12 Cu23 1_555 1_555
O54 Cu36 1_555 1_555
O95_5 Cu36 1_555 1_555
O95_6 Cu36_2 1_555 1_555
C17_2 C28_2 1_555 1_555
C18_2 C29_2 1_555 1_555
C19_2 C30_2 1_555 1_555
C20_2 C31_2 1_555 1_555
C28_2 C39_2 1_555 1_555
C29_2 C40_2 1_555 1_555
C30_2 C41_2 1_555 1_555
C31_2 C42_2 1_555 1_555
C39_2 H13_2 1_555 1_555
C40_2 H14_2 1_555 1_555
C41_2 H15_2 1_555 1_555
C42_2 H16_2 1_555 1_555
C50_2 C39_2 1_555 1_555
C51_2 C40_2 1_555 1_555
C52_2 C41_2 1_555 1_555
C53_2 C42_2 1_555 1_555
C62_2 C51_2 1_555 1_555
C64_2 C53_2 1_555 1_555
H20_2 C57_2 1_555 1_555
H25_2 C62_2 1_555 1_555
H27_2 C64_2 1_555 1_555
C68_2 C57_2 1_555 1_555
C73_2 C62_2 1_555 1_555
C75_2 C64_2 1_555 1_555
C83_2 C28_2 1_555 1_555
C84_2 C29_2 1_555 1_555
C85_2 C30_2 1_555 1_555
C86_2 C31_2 1_555 1_555
H35_2 C83_2 1_555 1_555
H36_2 C84_2 1_555 1_555
H37_2 C85_2 1_555 1_555
H38_2 C86_2 1_555 1_555
C94_2 C50_2 1_555 1_555
C95_2 C51_2 1_555 1_555
C96_2 C52_2 1_555 1_555
C97_2 C53_2 1_555 1_555
C105_2 H46_2 1_555 1_555
C106_2 H47_2 1_555 1_555
C115_2 H56_2 1_555 1_555
C116_2 H57_2 1_555 1_555
C119_2 H60_2 1_555 1_555
C120_2 H61_2 1_555 1_555
N10_2 C105_2 1_555 1_555
N32 C106_2 1_555 1_555
N26 C115_2 1_555 1_555
N21_2 C116_2 1_555 1_555
N27 C119_2 1_555 1_555
N25_2 C120_2 1_555 1_555
N37_2 C68_2 1_555 1_555
N42_2 C73_2 1_555 1_555
N44_2 C75_2 1_555 1_555
O27 C17_2 1_555 1_555
O24_2 C18_2 1_555 1_555
O28 C19_2 1_555 1_555
O26_2 C20_2 1_555 1_555
O38_2 C17_2 1_555 1_555
O39_2 C18_2 1_555 1_555
O40_2 C19_2 1_555 1_555
O41_2 C20_2 1_555 1_555
O54 C95_2 1_555 1_555
O56_2 C97_2 1_555 1_555
O68 C94_2 1_555 1_555
O69 C95_2 1_555 1_555
O71 C96_2 1_555 1_555
O73 C97_2 1_555 1_555
O95_7 Cu36_3 1_555 1_555
Cu21 N10_2 1_555 1_555
Cu24 N21_2 1_555 1_555
Cu15 O24_2 1_555 1_555
Cu17 O26_2 1_555 1_555
C73_2 C84_2 1_555 1_555
C75_2 C86_2 1_555 1_555
C105_2 N37_2 1_555 1_555
C106_2 N37_2 1_555 1_555
C115_2 N42_2 1_555 1_555
C116_2 N42_2 1_555 1_555
C119_2 N44_2 1_555 1_555
C120_2 N44_2 1_555 1_555
N10_2 N32 1_555 1_555
N26 N21_2 1_555 1_555
N27 N25_2 1_555 1_555
N25_2 Cu24 1_555 1_555
O14 Cu21 1_555 1_555
C13_2 C24_2 1_555 1_555
C14_2 C25_2 1_555 1_555
C15_2 C26_2 1_555 1_555
C16_2 C27_2 1_555 1_555
C24_2 C35_2 1_555 1_555
C25_2 C36_2 1_555 1_555
C26_2 C37_2 1_555 1_555
C27_2 C38_2 1_555 1_555
C35_2 H9_2 1_555 1_555
C36_2 H10_2 1_555 1_555
C37_2 H11_2 1_555 1_555
C38_2 H12_2 1_555 1_555
C46_2 C35_2 1_555 1_555
C47_2 C36_2 1_555 1_555
C48_2 C37_2 1_555 1_555
C49_2 C38_2 1_555 1_555
C58_2 C47_2 1_555 1_555
C60_2 C49_2 1_555 1_555
H21_2 C58_2 1_555 1_555
H23_2 C60_2 1_555 1_555
H24_2 C61_2 1_555 1_555
C69_2 C58_2 1_555 1_555
C71_2 C60_2 1_555 1_555
C72_2 C61_2 1_555 1_555
C79_2 C24_2 1_555 1_555
C80_2 C25_2 1_555 1_555
C81_2 C26_2 1_555 1_555
C82_2 C27_2 1_555 1_555
H31_2 C79_2 1_555 1_555
H32_2 C80_2 1_555 1_555
H33_2 C81_2 1_555 1_555
H34_2 C82_2 1_555 1_555
C90_2 C46_2 1_555 1_555
C91_2 C47_2 1_555 1_555
C92_2 C48_2 1_555 1_555
C93_2 C49_2 1_555 1_555
C107_2 H48_2 1_555 1_555
C108_2 H49_2 1_555 1_555
C111_2 H52_2 1_555 1_555
C112_2 H53_2 1_555 1_555
C113_2 H54_2 1_555 1_555
C114_2 H55_2 1_555 1_555
N13_2 C108_2 1_555 1_555
N29 C111_2 1_555 1_555
N17_2 C112_2 1_555 1_555
N18_2 C113_2 1_555 1_555
N33 C114_2 1_555 1_555
N38_2 C69_2 1_555 1_555
N40_2 C71_2 1_555 1_555
N41_2 C72_2 1_555 1_555
O20_2 C14_2 1_555 1_555
O30 C15_2 1_555 1_555
O22_2 C16_2 1_555 1_555
O34_2 C13_2 1_555 1_555
O35_2 C14_2 1_555 1_555
O36_2 C15_2 1_555 1_555
O37_2 C16_2 1_555 1_555
O46_2 C91_2 1_555 1_555
O56 C93_2 1_555 1_555
O68_2 C90_2 1_555 1_555
O70 C91_2 1_555 1_555
O72 C92_2 1_555 1_555
O73_2 C93_2 1_555 1_555
O95_8 Cu36_4 1_555 1_555
Cu19 O20_2 1_555 1_555
Cu22 O22_2 1_555 1_555
Cu16 N18_2 1_555 1_555
Cu36_4 O46_2 1_555 1_555
C13_2 O29 1_555 1_555
C69_2 C80_2 1_555 1_555
C71_2 C82_2 1_555 1_555
C107_2 N28 1_555 1_555
C107_2 N38_2 1_555 1_555
C108_2 N38_2 1_555 1_555
C111_2 N40_2 1_555 1_555
C112_2 N40_2 1_555 1_555
C113_2 N41_2 1_555 1_555
C114_2 N41_2 1_555 1_555
N28 N13_2 1_555 1_555
N13_2 Cu25 1_555 1_555
N29 N17_2 1_555 1_555
N17_2 Cu25 1_555 1_555
N18_2 N33 1_555 1_555
O15 Cu16 1_555 1_555
H22_3 C59_3 1_555 1_555
C70_3 C59_3 1_555 1_555
C109_3 H50_3 1_555 1_555
C110_3 H51_3 1_555 1_555
N14_3 C109_3 1_555 1_555
N15_2 C110_3 1_555 1_555
N39_3 C70_3 1_555 1_555
O30_2 Cu24 1_555 1_555
O55 Cu29 1_555 1_555
O71_2 Cu29 1_555 1_555
O72_2 Cu29 1_555 1_555
O89_2 Cu15 1_555 1_555
O96_3 Cu29 1_555 1_555
Cu15 N15_2 1_555 1_555
Cu18 N14_3 1_555 1_555
Cu29 O47_3 1_555 1_555
C109_3 N39_3 1_555 1_555
C110_3 N39_3 1_555 1_555
N14_3 N15_2 1_555 1_555
H26_3 C63_3 1_555 1_555
C74_3 C63_3 1_555 1_555
C117_3 H58_3 1_555 1_555
C118_3 H59_3 1_555 1_555
N22_3 C117_3 1_555 1_555
N23_2 C118_3 1_555 1_555
N43_3 C74_3 1_555 1_555
O28_2 Cu14 1_555 1_555
O88_2 Cu16 1_555 1_555
Cu16 N23_2 1_555 1_555
Cu17 N22_3 1_555 1_555
C117_3 N43_3 1_555 1_555
C118_3 N43_3 1_555 1_555
N22_3 N23_2 1_555 1_555
C15_3 C26_3 1_555 1_555
C26_3 C37_3 1_555 1_555
C37_3 H11_3 1_555 1_555
C48_3 C37_3 1_555 1_555
C81_3 C26_3 1_555 1_555
H33_3 C81_3 1_555 1_555
C92_3 C48_3 1_555 1_555
N30_2 Cu21 1_555 1_555
O21_2 C15_3 1_555 1_555
O36_3 C15_3 1_555 1_555
O62_2 C92_3 1_555 1_555
O86_2 Cu21 1_555 1_555
Cu33 O62_2 1_555 1_555
O21_2 Cu20 1_555 1_555
C19_3 C30_3 1_555 1_555
C30_3 C41_3 1_555 1_555
C41_3 H15_3 1_555 1_555
C52_3 C41_3 1_555 1_555
C85_3 C30_3 1_555 1_555
H37_3 C85_3 1_555 1_555
C96_3 C52_3 1_555 1_555
N31_2 Cu19 1_555 1_555
O25_2 C19_3 1_555 1_555
O40_3 C19_3 1_555 1_555
O66_2 C96_3 1_555 1_555
O87_2 Cu19 1_555 1_555
Cu33 O66_2 1_555 1_555
O25_2 Cu25 1_555 1_555
C15_4 C26_4 1_555 1_555
C26_4 C37_4 1_555 1_555
C37_4 H11_4 1_555 1_555
C48_4 C37_4 1_555 1_555
C81_4 C26_4 1_555 1_555
H33_4 C81_4 1_555 1_555
C92_4 C48_4 1_555 1_555
O30_2 C15_4 1_555 1_555
O36_4 C15_4 1_555 1_555
O72_2 C92_4 1_555 1_555
C19_4 C30_4 1_555 1_555
C30_4 C41_4 1_555 1_555
C41_4 H15_4 1_555 1_555
C52_4 C41_4 1_555 1_555
C85_4 C30_4 1_555 1_555
H37_4 C85_4 1_555 1_555
C96_4 C52_4 1_555 1_555
O28_2 C19_4 1_555 1_555
O40_4 C19_4 1_555 1_555
O71_2 C96_4 1_555 1_555
H22_4 C59_4 1_555 1_555
C70_4 C59_4 1_555 1_555
C109_4 H50_4 1_555 1_555
C110_4 H51_4 1_555 1_555
N14_4 C109_4 1_555 1_555
N30_2 C110_4 1_555 1_555
N39_4 C70_4 1_555 1_555
O55_2 Cu33 1_555 1_555
O96_4 Cu33 1_555 1_555
Cu22 N14_4 1_555 1_555
Cu33 O47_4 1_555 1_555
C109_4 N39_4 1_555 1_555
C110_4 N39_4 1_555 1_555
N14_4 N30_2 1_555 1_555
H26_4 C63_4 1_555 1_555
C74_4 C63_4 1_555 1_555
C117_4 H58_4 1_555 1_555
C118_4 H59_4 1_555 1_555
N22_4 C117_4 1_555 1_555
N31_2 C118_4 1_555 1_555
N43_4 C74_4 1_555 1_555
Cu23 N22_4 1_555 1_555
C117_4 N43_4 1_555 1_555
C118_4 N43_4 1_555 1_555
N22_4 N31_2 1_555 1_555
O87_3 Cu18 1_555 1_555
O88_3 Cu23 1_555 1_555
O86_3 Cu17 1_555 1_555
O89_3 Cu22 1_555 1_555
O86_3 S2_2 1_555 1_555
O89 S2_2 1_555 1_555
O88_2 S2_2 1_555 1_555
O87_3 S4_2 1_555 1_555
O87 S4_2 1_555 1_555
O89_2 S4_2 1_555 1_555
O90_2 S2_2 1_555 1_555
O92_2 S4_2 1_555 1_555
O89_3 S1_2 1_555 1_555
O7_2 S1_2 1_555 1_555
S1_2 O88 1_555 1_555
O86_2 S1_2 1_555 1_555
O88_3 S3_2 1_555 1_555
O86 S3_2 1_555 1_555
O87_2 S3_2 1_555 1_555
O91_2 S3_2 1_555 1_555

#END
