
###############################################################################
#
# This file contains modified crystal structure data generated from the
# MOF subset of the Cambridge Structural Database (CSD) v543 
# hosted by the Cambridge Crystallographic Data Centre (CCDC).
#
# This work is licensed under the Creative Commons
# Attribution-NonCommercial-ShareAlike 4.0 International License.
# To view a copy of this license, visit
# http://creativecommons.org/licenses/by-nc-sa/4.0/
# or send a letter to
# Creative Commons, PO Box 1866, Mountain View, CA 94042, USA.
#
# CIF created using the CSD Python API on 29 September 2022
# The structure has been converted into the P1 space group
# The structure has a 3D framework
# The original CSD entry LECGAD is in the triclinic crystal system
# The framework has been calculated to contain at least 10.0% void space
# The void calculation uses a probe of radius 1.32A, grid spacing 0.4
# H atom positions have been added when not included in the experimental data
# Generated hydrogen atom positions removed from atoms on special positions
#
###############################################################################

data_LECGAD
_chemical_formula_moiety         '(C30 H24 Cu4 N8 O10)n'
_symmetry_cell_setting           triclinic
_symmetry_space_group_name_H-M   'P 1'
_symmetry_Int_Tables_number      1
_space_group_name_Hall           'P 1'
loop_
_symmetry_equiv_pos_site_id
_symmetry_equiv_pos_as_xyz
1 x,y,z
_cell_length_a                   7.8292(11)
_cell_length_b                   9.3621(13)
_cell_length_c                   15.1467(19)
_cell_angle_alpha                94.703(11)
_cell_angle_beta                 102.889(10)
_cell_angle_gamma                101.231(11)
_cell_volume                     1052.35
loop_
_atom_site_label
_atom_site_type_symbol
_atom_site_fract_x
_atom_site_fract_y
_atom_site_fract_z
Cu3 Cu 0.0000 0.5000 0.0000
Cu3_2 Cu 0.0000 0.5000 1.0000
H6 H 0.2879 0.0399 0.0405
Cu7 Cu 0.0000 0.0000 0.5000
H5 H 0.2690 0.0543 0.8836
O12 O 0.1003(3) 0.1897(3) 0.57684(18)
H20 H 0.297833 0.0338517 0.407523
C14 C 0.1786(5) 0.8181(4) 0.0230(3)
H7 H 0.1902 0.8111 0.0862
Cu3_3 Cu 1.0000 0.5000 0.0000
Cu7_2 Cu 0.0000 1.0000 0.5000
O9 O 0.2230(3) 0.5219(3) 0.09706(18)
C1 C 0.6747(5) 0.5709(4) 0.8957(3)
C2 C 0.5213(5) 0.5391(4) 0.8113(3)
C3 C 0.4254(5) 0.6480(4) 0.7884(2)
H1 H 0.4606 0.7419 0.8241
C4 C 0.2790(5) 0.6182(4) 0.7135(2)
C5 C 0.2217(5) 0.4811(4) 0.6609(2)
H2 H 0.1171 0.4611 0.6119
C6 C 0.3193(5) 0.3733(4) 0.6808(3)
C7 C 0.4698(5) 0.4028(4) 0.7556(3)
H3 H 0.5374 0.3298 0.7686
C8 C 0.2652(5) 0.2260(4) 0.6218(3)
C9 C 0.1408(5) 0.7719(4) 0.6018(2)
H4 H 0.1563 0.7208 0.5484
C10 C 0.1388(5) 0.8371(4) 0.7431(2)
C11 C 0.1534(5) 0.8362(4) 0.8415(3)
C12 C 0.2275(6) 0.9635(4) 0.9039(3)
C13 C 0.2396(6) 0.9550(5) 0.9965(3)
C15 C 0.0922(5) 0.7059(4) 0.8739(3)
H8 H 0.0395 0.6199 0.8312
N1 N 0.1854(4) 0.7347(3) 0.6871(2)
N2 N 0.0732(4) 0.8889(3) 0.6042(2)
N3 N 0.0716(4) 0.9323(3) 0.6936(2)
N4 N 0.1045(4) 0.6965(3) 0.9628(2)
O1 O 0.6930(4) 0.6833(3) 0.9503(2)
O2 O 0.7770(3) 0.4781(3) 0.90294(18)
O3 O 0.3804(4) 0.1500(3) 0.6196(2)
Cu3_4 Cu 1.0000 0.5000 1.0000
O14 O 0.2878(9) 0.9842(9) 0.4622(5)
Cu7_3 Cu 1.0000 0.0000 0.5000
O5 O 0.7122(9) 0.0158(9) 0.5378(5)
N7 N 0.9268(4) 0.1111(3) 0.3958(2)
C16 C 0.3253(5) 0.4291(4) 0.1043(3)
C17 C 0.4787(5) 0.4609(4) 0.1887(3)
C18 C 0.5746(5) 0.3520(4) 0.2116(2)
H9 H 0.5394 0.2581 0.1759
C19 C 0.7210(5) 0.3818(4) 0.2865(2)
C20 C 0.7783(5) 0.5189(4) 0.3391(2)
H10 H 0.8829 0.5389 0.3881
C21 C 0.6807(5) 0.6267(4) 0.3192(3)
C22 C 0.5302(5) 0.5972(4) 0.2444(3)
H11 H 0.4626 0.6702 0.2314
C23 C 0.7348(5) 0.7740(4) 0.3782(3)
C24 C 0.8592(5) 0.2281(4) 0.3982(2)
H12 H 0.8437 0.2792 0.4516
C25 C 0.8612(5) 0.1629(4) 0.2569(2)
C26 C 0.8466(5) 0.1638(4) 0.1585(3)
C27 C 0.7725(6) 0.0365(4) 0.0961(3)
C28 C 0.7604(6) 0.0450(5) 0.0035(3)
C30 C 0.9078(5) 0.2941(4) 0.1261(3)
H16 H 0.9605 0.3801 0.1688
Cu7_4 Cu 1.0000 1.0000 0.5000
N5 N 0.8146(4) 0.2653(3) 0.3129(2)
N8 N 0.9284(4) 0.0677(3) 0.3064(2)
N9 N 0.8955(4) 0.3035(3) 0.0372(2)
O6 O 0.3070(4) 0.3167(3) 0.0497(2)
O10 O 0.6196(4) 0.8500(3) 0.3804(2)
O11 O 0.8997(3) 0.8103(3) 0.42316(18)
C29 C 0.8214(5) 0.1819(4) 0.9770(3)
H15 H 0.8098 0.1889 0.9138
H13 H 0.7310 0.9457 0.1164
H14 H 0.7121 0.9601 0.9595
H20_2 H 0.702167 0.966148 0.592477
loop_
_geom_bond_atom_site_label_1
_geom_bond_atom_site_label_2
_geom_bond_site_symmetry_1
_geom_bond_site_symmetry_2
O12 Cu7 1_555 1_555
H7 C14 1_555 1_555
O9 Cu3 1_555 1_555
C1 C2 1_555 1_555
C2 C3 1_555 1_555
C3 H1 1_555 1_555
C4 C3 1_555 1_555
C5 C4 1_555 1_555
H2 C5 1_555 1_555
C6 C5 1_555 1_555
C7 C2 1_555 1_555
H3 C7 1_555 1_555
C8 C6 1_555 1_555
C9 H4 1_555 1_555
C10 C11 1_555 1_555
C11 C12 1_555 1_555
C13 C12 1_555 1_555
C15 C11 1_555 1_555
H8 C15 1_555 1_555
Cu3_2 N4 1_555 1_555
Cu7_2 N2 1_555 1_555
N1 C4 1_555 1_555
N2 C9 1_555 1_555
N3 C10 1_555 1_555
O1 C1 1_555 1_555
O2 C1 1_555 1_555
O3 C8 1_555 1_555
O12 C8 1_555 1_555
Cu3_4 O2 1_555 1_555
O14 Cu7_2 1_555 1_555
C6 C7 1_555 1_555
C9 N1 1_555 1_555
C10 N1 1_555 1_555
C15 N4 1_555 1_555
N2 N3 1_555 1_555
O5 Cu7_3 1_555 1_555
N7 Cu7_3 1_555 1_555
C16 C17 1_555 1_555
C17 C18 1_555 1_555
C18 H9 1_555 1_555
C19 C18 1_555 1_555
C20 C19 1_555 1_555
H10 C20 1_555 1_555
C21 C20 1_555 1_555
C22 C17 1_555 1_555
H11 C22 1_555 1_555
C23 C21 1_555 1_555
C24 H12 1_555 1_555
C25 C26 1_555 1_555
C26 C27 1_555 1_555
C28 C27 1_555 1_555
C30 C26 1_555 1_555
H16 C30 1_555 1_555
Cu7_4 O11 1_555 1_555
N5 C19 1_555 1_555
N7 C24 1_555 1_555
N8 C25 1_555 1_555
N9 Cu3_3 1_555 1_555
O6 C16 1_555 1_555
O9 C16 1_555 1_555
O10 C23 1_555 1_555
O11 C23 1_555 1_555
C21 C22 1_555 1_555
C24 N5 1_555 1_555
C25 N5 1_555 1_555
C30 N9 1_555 1_555
N7 N8 1_555 1_555
H15 C29 1_555 1_555

#END
