
###############################################################################
#
# This file contains modified crystal structure data generated from the
# MOF subset of the Cambridge Structural Database (CSD) v543 
# hosted by the Cambridge Crystallographic Data Centre (CCDC).
#
# This work is licensed under the Creative Commons
# Attribution-NonCommercial-ShareAlike 4.0 International License.
# To view a copy of this license, visit
# http://creativecommons.org/licenses/by-nc-sa/4.0/
# or send a letter to
# Creative Commons, PO Box 1866, Mountain View, CA 94042, USA.
#
# CIF created using the CSD Python API on 29 September 2022
# The structure has been converted into the P1 space group
# The structure has a 3D framework
# The original CSD entry LECGEH is in the triclinic crystal system
# The framework has been calculated to contain at least 10.0% void space
# The void calculation uses a probe of radius 1.32A, grid spacing 0.4
#
###############################################################################

data_LECGEH
_chemical_formula_moiety         '(C30 H24 Co5 N8 O12)n'
_symmetry_cell_setting           triclinic
_symmetry_space_group_name_H-M   'P 1'
_symmetry_Int_Tables_number      1
_space_group_name_Hall           'P 1'
loop_
_symmetry_equiv_pos_site_id
_symmetry_equiv_pos_as_xyz
1 x,y,z
_cell_length_a                   8.0231(9)
_cell_length_b                   9.5304(10)
_cell_length_c                   15.4714(18)
_cell_angle_alpha                96.709(9)
_cell_angle_beta                 103.637(9)
_cell_angle_gamma                99.063(9)
_cell_volume                     1120.59
loop_
_atom_site_label
_atom_site_type_symbol
_atom_site_fract_x
_atom_site_fract_y
_atom_site_fract_z
Co6 Co -0.0000 0.0000 0.5000
Co1 Co -0.0000 0.5000 0.0000
H11 H 0.317(9) 0.031(8) 0.521(4)
Co6_2 Co -0.0000 1.0000 0.5000
O9 O 0.2385(3) 0.5184(3) 0.09318(17)
O13 O 0.1047(3) 0.1976(3) 0.58259(16)
Co1_2 Co 0.0000 0.5000 1.0000
N10 N 0.0919(5) 0.7056(3) 0.9629(2)
O14 O 0.1011(4) 0.3939(3) 0.89842(17)
H21 H 0.034(9) 0.329(6) 0.859(4)
H22 H 0.180(8) 0.358(8) 0.928(5)
O6 O 0.2453(3) 0.9872(3) 0.47262(17)
H12 H 0.269(10) 0.906(4) 0.463(5)
N7 N 0.0721(4) 0.8877(3) 0.61204(19)
H18 H 0.2643 0.0405 0.0440
Co6_3 Co 1.0000 0.0000 0.5000
H17 H 0.2382 0.0570 0.8889
C1 C 0.3405(5) 0.4278(4) 0.0969(2)
C2 C 0.4952(5) 0.4570(4) 0.1802(2)
C3 C 0.5885(5) 0.3490(4) 0.2019(2)
H1 H 0.5550 0.2561 0.1661
C4 C 0.7323(4) 0.3792(4) 0.2771(2)
C5 C 0.7855(5) 0.5141(4) 0.3296(2)
H2 H 0.8869 0.5335 0.3788
C6 C 0.6889(5) 0.6215(4) 0.3096(2)
C7 C 0.5431(5) 0.5916(4) 0.2353(2)
H3 H 0.4757 0.6636 0.2221
C8 C 0.7393(5) 0.7663(4) 0.3685(2)
C9 C 0.8619(5) 0.2285(4) 0.3887(2)
H4 H 0.8435 0.2810 0.4406
C10 C 0.8718(5) 0.1607(4) 0.2509(2)
C11 C 0.8617(5) 0.1591(4) 0.1546(2)
C12 C 0.7961(10) 0.0322(5) 0.0925(3)
C13 C 0.7830(14) 0.0423(6) 0.0009(4)
C15 C 0.9182(5) 0.2859(4) 0.1241(2)
H8 H 0.9663 0.3708 0.1673
Co1_3 Co 1.0000 0.5000 0.0000
N1 N 0.8227(4) 0.2646(3) 0.30392(18)
N2 N 0.9279(4) 0.1123(3) 0.38796(19)
N3 N 0.9359(4) 0.0675(3) 0.30041(19)
N4 N 0.9081(5) 0.2944(3) 0.0371(2)
O1 O 0.3264(4) 0.3204(3) 0.03862(19)
O3 O 0.6222(3) 0.8421(3) 0.36728(18)
O4 O 0.8953(3) 0.8024(3) 0.41741(16)
O5 O 0.8989(4) 0.6061(3) 0.10158(17)
H9 H 0.966(9) 0.671(6) 0.141(4)
H10 H 0.820(8) 0.642(8) 0.072(5)
C29 C 0.1614(11) 0.8285(6) 0.0227(3)
H19 H 0.1719 0.8244 0.0848
Co6_4 Co 1.0000 1.0000 0.5000
O15 O 0.7547(3) 0.0128(3) 0.52738(17)
H24 H 0.731(10) 0.094(4) 0.537(5)
C14 C 0.8386(11) 0.1715(6) 0.9773(3)
H7 H 0.8281 0.1756 0.9152
Co1_4 Co 1.0000 0.5000 1.0000
C16 C 0.6595(5) 0.5722(4) 0.9031(2)
C17 C 0.5048(5) 0.5430(4) 0.8198(2)
C18 C 0.4115(5) 0.6510(4) 0.7981(2)
H13 H 0.4450 0.7439 0.8339
C19 C 0.2677(4) 0.6208(4) 0.7229(2)
C20 C 0.2145(5) 0.4859(4) 0.6704(2)
H14 H 0.1131 0.4665 0.6212
C21 C 0.3111(5) 0.3785(4) 0.6904(2)
C22 C 0.4569(5) 0.4084(4) 0.7647(2)
H15 H 0.5243 0.3364 0.7779
C23 C 0.2607(5) 0.2337(4) 0.6315(2)
C24 C 0.1381(5) 0.7715(4) 0.6113(2)
H16 H 0.1565 0.7190 0.5594
C25 C 0.1282(5) 0.8393(4) 0.7491(2)
C26 C 0.1383(5) 0.8409(4) 0.8454(2)
C27 C 0.2039(10) 0.9678(5) 0.9075(3)
C28 C 0.2170(14) 0.9577(6) 0.9991(4)
C30 C 0.0818(5) 0.7141(4) 0.8759(2)
H20 H 0.0337 0.6292 0.8327
N5 N 0.1773(4) 0.7354(3) 0.69608(18)
N8 N 0.0641(4) 0.9325(3) 0.69959(19)
O7 O 0.6736(4) 0.6796(3) 0.96138(19)
O8 O 0.7615(3) 0.4816(3) 0.90682(17)
O10 O 0.3778(3) 0.1579(3) 0.63272(18)
H5 H 0.7618 0.9430 0.1111
H23 H 0.683(9) 0.969(8) 0.479(4)
H6 H 0.7357 0.9595 0.9560
loop_
_geom_bond_atom_site_label_1
_geom_bond_atom_site_label_2
_geom_bond_site_symmetry_1
_geom_bond_site_symmetry_2
O9 Co1 1_555 1_555
O13 Co6 1_555 1_555
N10 Co1_2 1_555 1_555
O14 Co1_2 1_555 1_555
H21 O14 1_555 1_555
H22 O14 1_555 1_555
O6 Co6_2 1_555 1_555
H12 O6 1_555 1_555
N7 Co6_2 1_555 1_555
C1 C2 1_555 1_555
C2 C3 1_555 1_555
C3 H1 1_555 1_555
C4 C3 1_555 1_555
C5 C4 1_555 1_555
H2 C5 1_555 1_555
C6 C5 1_555 1_555
C7 C2 1_555 1_555
H3 C7 1_555 1_555
C8 C6 1_555 1_555
C9 H4 1_555 1_555
C10 C11 1_555 1_555
C11 C12 1_555 1_555
C13 C12 1_555 1_555
C15 C11 1_555 1_555
H8 C15 1_555 1_555
Co1_3 N4 1_555 1_555
Co6_3 N2 1_555 1_555
N1 C4 1_555 1_555
N2 C9 1_555 1_555
N3 C10 1_555 1_555
O1 C1 1_555 1_555
O9 C1 1_555 1_555
O3 C8 1_555 1_555
O4 C8 1_555 1_555
O5 Co1_3 1_555 1_555
H9 O5 1_555 1_555
H10 O5 1_555 1_555
H19 C29 1_555 1_555
Co6_4 O4 1_555 1_555
O15 Co6_3 1_555 1_555
H24 O15 1_555 1_555
C6 C7 1_555 1_555
C9 N1 1_555 1_555
C10 N1 1_555 1_555
C15 N4 1_555 1_555
N2 N3 1_555 1_555
H7 C14 1_555 1_555
C16 C17 1_555 1_555
C17 C18 1_555 1_555
C18 H13 1_555 1_555
C19 C18 1_555 1_555
C20 C19 1_555 1_555
H14 C20 1_555 1_555
C21 C20 1_555 1_555
C22 C17 1_555 1_555
H15 C22 1_555 1_555
C23 C21 1_555 1_555
C24 H16 1_555 1_555
C25 C26 1_555 1_555
C26 C27 1_555 1_555
C28 C27 1_555 1_555
C30 C26 1_555 1_555
H20 C30 1_555 1_555
N5 C19 1_555 1_555
N7 C24 1_555 1_555
N8 C25 1_555 1_555
O7 C16 1_555 1_555
O8 Co1_4 1_555 1_555
O10 C23 1_555 1_555
O13 C23 1_555 1_555
C16 O8 1_555 1_555
C21 C22 1_555 1_555
C24 N5 1_555 1_555
C25 N5 1_555 1_555
C30 N10 1_555 1_555
N7 N8 1_555 1_555

#END
