
###############################################################################
#
# This file contains modified crystal structure data generated from the
# MOF subset of the Cambridge Structural Database (CSD) v543 
# hosted by the Cambridge Crystallographic Data Centre (CCDC).
#
# This work is licensed under the Creative Commons
# Attribution-NonCommercial-ShareAlike 4.0 International License.
# To view a copy of this license, visit
# http://creativecommons.org/licenses/by-nc-sa/4.0/
# or send a letter to
# Creative Commons, PO Box 1866, Mountain View, CA 94042, USA.
#
# CIF created using the CSD Python API on 29 September 2022
# The structure has been converted into the P1 space group
# The structure has a 3D framework
# The original CSD entry LECGIL is in the triclinic crystal system
# The framework has been calculated to contain at least 10.0% void space
# The void calculation uses a probe of radius 1.32A, grid spacing 0.4
# The framework is charged, counterions have been retained in the structure
# H atom positions have been added when not included in the experimental data
# Generated hydrogen atom positions removed from atoms on special positions
#
###############################################################################

data_LECGIL
_chemical_formula_moiety         '(C32 H56 Cu21 Mo24 N48 O89 P2 6+)n'
_symmetry_cell_setting           triclinic
_symmetry_space_group_name_H-M   'P 1'
_symmetry_Int_Tables_number      1
_space_group_name_Hall           'P 1'
loop_
_symmetry_equiv_pos_site_id
_symmetry_equiv_pos_as_xyz
1 x,y,z
_cell_length_a                   15.325(6)
_cell_length_b                   16.472(6)
_cell_length_c                   17.072(6)
_cell_angle_alpha                70.144(7)
_cell_angle_beta                 64.567(7)
_cell_angle_gamma                67.516(7)
_cell_volume                     3515.7
loop_
_atom_site_label
_atom_site_type_symbol
_atom_site_fract_x
_atom_site_fract_y
_atom_site_fract_z
Cu4 Cu 0.0000 0.0000 0.0000
Cu8 Cu 0.0000 0.0000 0.5000
N7 N 0.2077(5) 0.0838(5) 0.2156(5)
N8 N 0.1985(5) 0.0119(5) 0.2066(4)
N9 N 0.2334(5) 0.0074(5) 0.1239(5)
C5 C 0.2496(7) 0.1296(7) 0.1359(6)
H7 H 0.2645 0.1848 0.1221
C6 C 0.2667(7) 0.0806(6) 0.0778(6)
H8 H 0.2971 0.0957 0.0152
Cu17 Cu 0.14128(9) 0.12045(8) 0.33330(8)
N49 N 0.0045(5) 0.1068(5) 0.5113(5)
O12 O 0.0562(5) 0.0379(4) 0.3692(4)
Cu4_2 Cu 0.0000 0.0000 1.0000
N52 N 0.0153(5) 0.0105(5) 0.8767(5)
Cu4_3 Cu -0.0000 1.0000 0.0000
Cu5 Cu 0.12705(8) 0.93023(7) 0.31004(7)
Cu6 Cu 0.21084(7) 0.91790(7) 0.08345(7)
Cu7 Cu 0.35586(8) 0.69296(7) 0.06629(7)
Cu8_2 Cu -0.0000 1.0000 0.5000
N4 N 0.0480(6) 0.8577(5) 0.4167(5)
N10 N 0.0274(5) 0.9547(5) 0.2386(5)
N11 N 0.0618(5) 0.9618(5) 0.1517(5)
N14 N 0.1743(5) 0.8497(5) 0.0300(4)
N15 N 0.2217(5) 0.7645(5) 0.0249(5)
N16 N 0.2316(5) 0.8205(5) 0.2690(5)
N17 N 0.2526(6) 0.8098(5) 0.1891(5)
N18 N 0.3129(5) 0.7314(5) 0.1779(5)
H1 H 0.0024 0.9264 0.6512
C4 C 0.0260(7) 0.7789(7) 0.4350(7)
H6 H 0.0531 0.7380 0.3968
C11 C 0.2831(8) 0.7428(7) 0.3107(7)
H13 H 0.2834 0.7307 0.3691
C12 C 0.3334(7) 0.6865(7) 0.2542(6)
H14 H 0.3751 0.6270 0.2652
N57 N 0.3224(5) 0.5779(5) 0.1357(5)
H42 H 0.0187614 0.753064 0.733483
Cu4_4 Cu -0.0000 1.0000 1.0000
N13 N 0.1003(5) 0.8787(5) 0.9990(4)
N19 N 0.3562(5) 0.8850(5) 0.9999(5)
N20 N 0.4056(5) 0.8011(4) 0.9901(5)
N21 N 0.4900(5) 0.7964(5) 0.9240(5)
C9 C 0.1741(7) 0.7366(7) 0.9924(6)
H11 H 0.1893 0.6779 0.9839
C10 C 0.0979(7) 0.8120(7) 0.9740(7)
H12 H 0.0525 0.8150 0.9482
C13 C 0.4156(7) 0.9353(7) 0.9357(7)
H15 H 0.4015 0.9986 0.9261
C14 C 0.4972(7) 0.8819(6) 0.8882(7)
H16 H 0.5507 0.9001 0.8383
Cu14 Cu 0.56919(8) 0.68442(7) 0.87763(8)
O13 O 0.4571(4) 0.6321(4) 0.9665(4)
Cu4_5 Cu 1.0000 0.0000 0.0000
Cu8_3 Cu 1.0000 0.0000 0.5000
H9 H 0.8349 0.0177 0.1916
Cu20 Cu 0.87295(8) 0.06977(7) 0.68996(7)
N53 N 0.8997(5) 0.1213(5) 0.0010(4)
Cu4_6 Cu 1.0000 0.0000 1.0000
Cu1 Cu 0.5000 0.5000 0.0000
O2 O 0.5851(9) 0.5038(11) 0.0919(8)
Cu9 Cu 0.43081(8) 0.31558(7) 0.12237(8)
N25 N 0.2422(5) 0.1792(5) 0.3119(5)
N26 N 0.2803(6) 0.2289(5) 0.2323(5)
N27 N 0.3473(6) 0.2529(5) 0.2361(5)
N30 N 0.0614(6) 0.1595(6) 0.4493(5)
N46 N 0.3502(5) 0.4337(5) 0.1571(5)
N47 N 0.3798(5) 0.5050(5) 0.1013(5)
O6 O 0.3357(5) 0.3578(5) 0.0289(5)
O8 O 0.0414(6) 0.2581(6) 0.2647(6)
O10 O 0.5429(4) 0.3679(4) 0.0335(4)
H20 H 0.5842 0.3577 0.0699
C17 C 0.3583(7) 0.2189(8) 0.3165(8)
H21 H 0.4036 0.2272 0.3355
C18 C 0.2903(8) 0.1700(7) 0.3644(7)
H22 H 0.2795 0.1362 0.4236
C19 C 0.0422(7) 0.2295(7) 0.4814(7)
H23 H 0.0715 0.2780 0.4509
C23 C 0.0985(7) 0.0008(8) 0.8079(7)
C24 C 0.0713(7) 0.0223(7) 0.7357(6)
H28 H 0.1162 0.0209 0.6765
C31 C 0.2734(6) 0.4609(6) 0.2266(6)
H35 H 0.2379 0.4243 0.2774
C32 C 0.2551(6) 0.5514(6) 0.2113(6)
H36 H 0.2022 0.5896 0.2490
N55 N 0.5100(5) 0.2036(5) 0.0760(5)
H40 H 0.629038 0.60993 0.0305138
H43 H 0.26822 0.397822 0.0551494
H47 H 0.082557 0.277513 0.202071
Cu1_2 Cu 0.5000 0.5000 1.0000
Cu3 Cu 0.85872(9) 0.87955(8) 0.66670(8)
Cu4_7 Cu 1.0000 1.0000 0.0000
Cu8_4 Cu 1.0000 1.0000 0.5000
N1 N 0.7578(5) 0.8208(5) 0.6881(5)
N2 N 0.7197(6) 0.7711(5) 0.7677(5)
N3 N 0.6527(6) 0.7471(5) 0.7639(5)
N5 N 0.9955(5) 0.8932(5) 0.4887(5)
N6 N 0.9386(6) 0.8405(6) 0.5507(5)
N12 N 0.9847(5) 0.9895(5) 0.1233(5)
N22 N 0.6498(5) 0.5663(5) 0.8429(5)
N23 N 0.6202(5) 0.4950(5) 0.8987(5)
N24 N 0.6776(5) 0.4221(5) 0.8643(5)
O1 O 0.6643(5) 0.6422(5) 0.9711(5)
O3 O 0.9586(6) 0.7419(6) 0.7353(6)
O4 O 0.9438(5) 0.9621(4) 0.6308(4)
H2 H 0.4158 0.6423 0.9301
C1 C 0.6417(7) 0.7811(8) 0.6835(8)
H3 H 0.5964 0.7728 0.6645
C2 C 0.7097(8) 0.8300(7) 0.6356(7)
H4 H 0.7205 0.8638 0.5764
C3 C 0.9578(7) 0.7705(7) 0.5186(7)
H5 H 0.9285 0.7220 0.5491
C7 C 0.9015(7) 0.9992(8) 0.1921(7)
C8 C 0.9287(7) 0.9777(7) 0.2643(6)
H10 H 0.8838 0.9791 0.3235
C15 C 0.7266(6) 0.5391(6) 0.7734(6)
H17 H 0.7621 0.5757 0.7226
C16 C 0.7449(6) 0.4486(6) 0.7887(6)
H18 H 0.7978 0.4104 0.7510
O7 O 0.4149(9) 0.4962(11) 0.9081(8)
Cu22 Cu 0.64414(8) 0.30704(7) 0.93371(7)
N51 N 0.7923(5) 0.9162(5) 0.7844(5)
H39 H 0.671911 0.696811 0.977077
H41 H 0.980301 0.69405 0.702445
H44 H 0.370962 0.39007 0.969486
Cu4_8 Cu 1.0000 1.0000 1.0000
H27 H 0.1651 0.9823 0.8084
N43 N 0.6438(5) 0.1150(5) 0.0001(5)
N44 N 0.5944(5) 0.1989(4) 0.0099(5)
C25 C 0.8259(7) 0.2634(7) 0.0076(6)
H29 H 0.8107 0.3221 0.0161
C26 C 0.9021(7) 0.1880(7) 0.0260(7)
H30 H 0.9475 0.1850 0.0518
C29 C 0.5844(7) 0.0647(7) 0.0643(7)
H33 H 0.5985 0.0014 0.0739
C30 C 0.5028(7) 0.1181(6) 0.1118(7)
H34 H 0.4493 0.0999 0.1617
Cu12 Cu 0.78916(7) 0.08210(7) 0.91655(7)
N28 N 0.9520(6) 0.1423(5) 0.5833(5)
N34 N 0.9726(5) 0.0453(5) 0.7614(5)
N35 N 0.9382(5) 0.0382(5) 0.8483(5)
N38 N 0.8257(5) 0.1503(5) 0.9700(4)
N39 N 0.7783(5) 0.2355(5) 0.9751(5)
N40 N 0.7684(5) 0.1795(5) 0.7310(5)
N41 N 0.7474(6) 0.1902(5) 0.8109(5)
N42 N 0.6871(5) 0.2686(5) 0.8221(5)
H19 H 0.9976 0.0736 0.3488
C20 C 0.9740(7) 0.2211(7) 0.5650(7)
H24 H 0.9469 0.2620 0.6032
C27 C 0.7169(8) 0.2572(7) 0.6893(7)
H31 H 0.7166 0.2693 0.6309
C28 C 0.6666(7) 0.3135(7) 0.7458(6)
H32 H 0.6249 0.3730 0.7348
H48 H 0.981239 0.246936 0.266517
N32 N 0.8015(5) 0.9881(5) 0.7934(4)
N33 N 0.7666(5) 0.9926(5) 0.8761(5)
C21 C 0.7504(7) 0.8704(7) 0.8641(6)
H25 H 0.7355 0.8152 0.8779
C22 C 0.7333(7) 0.9194(6) 0.9222(6)
H26 H 0.7029 0.9043 0.9848
H39_2 H 0.328089 0.303189 0.0229229
H41_2 H 0.0196991 0.30595 0.297555
H43_2 H 0.73178 0.602178 0.944851
H47_2 H 0.917443 0.722487 0.797929
O47 O 0.1047(5) 0.3198(5) 0.0642(5)
Mo1 Mo 0.41486(6) 0.46130(7) 0.68018(7)
Mo2 Mo 0.46676(7) 0.26776(7) 0.59284(6)
Mo3 Mo 0.26729(7) 0.20415(6) 0.61134(6)
Mo4 Mo 0.01515(6) 0.29528(6) 0.76020(6)
Mo5 Mo 0.03560(6) 0.49845(6) 0.61874(6)
Mo7 Mo 0.17727(7) 0.54493(6) 0.82399(6)
Mo8 Mo 0.21250(6) 0.15379(6) 0.85164(6)
Mo9 Mo 0.22645(6) 0.59443(6) 0.59743(6)
Mo10 Mo 0.29870(6) 0.41202(6) 0.48762(6)
Mo11 Mo 0.14383(6) 0.32552(6) 0.95653(5)
Mo12 Mo 0.39510(6) 0.24299(6) 0.83115(6)
P1 P 0.21932(16) 0.37217(16) 0.72163(15)
O15 O 0.2845(5) 0.3313(5) 0.6390(5)
O16 O 0.2481(5) 0.4568(5) 0.7097(5)
O17 O 0.1079(5) 0.4004(5) 0.7318(5)
O18 O 0.2348(5) 0.3046(5) 0.8048(5)
O19 O 0.4094(5) 0.1867(6) 0.5896(6)
O20 O 0.1949(5) 0.0526(5) 0.9097(5)
O21 O 0.4911(5) 0.1855(6) 0.8660(5)
O22 O 0.2244(6) 0.6950(5) 0.5298(5)
O25 O 0.3192(6) 0.4433(6) 0.3787(5)
O26 O 0.5175(6) 0.4847(5) 0.6685(6)
O27 O 0.3194(6) 0.5258(6) 0.7762(5)
O28 O 0.2790(6) 0.1166(5) 0.5773(5)
O29 O 0.1293(5) 0.2491(6) 0.6637(4)
O30 O 0.0845(5) 0.2175(6) 0.8321(5)
O31 O 0.0310(5) 0.3864(5) 0.9256(5)
O32 O 0.2657(5) 0.1465(6) 0.7345(4)
O34 O 0.2942(5) 0.5093(5) 0.5174(5)
O35 O 0.1084(4) 0.5785(5) 0.6108(5)
O36 O 0.2912(5) 0.2751(5) 0.9350(5)
O37 O 0.0483(5) 0.5414(5) 0.8294(5)
O38 O 0.1532(5) 0.4489(5) 0.5354(5)
O39 O 0.1794(5) 0.4389(5) 0.9075(5)
O40 O 0.3356(5) 0.1454(5) 0.8565(5)
O41 O 0.5898(6) 0.2220(6) 0.5419(5)
O42 O 0.4133(5) 0.3558(5) 0.7806(5)
O43 O 0.4626(6) 0.3785(5) 0.6122(5)
O44 O 0.2787(6) 0.2926(6) 0.5103(6)
O45 O 0.3632(5) 0.5588(6) 0.6042(5)
O46 O 0.1482(5) 0.2123(5) 0.9516(5)
O48 O 0.1767(5) 0.6269(6) 0.7071(5)
O49 O 0.4514(6) 0.2230(5) 0.7114(5)
O52 O 0.1424(5) 0.6237(5) 0.8815(5)
O54 O 0.4284(6) 0.3467(6) 0.4914(6)
Mo6 Mo 0.96711(6) 0.47690(6) 0.84350(6)
O23 O 0.8549(6) 0.5231(6) 0.9123(5)
O24 O 0.9513(6) 0.5328(5) 0.7340(5)
O33 O 0.9858(5) 0.3994(5) 0.6648(5)
O50 O 0.9612(5) 0.5676(5) 0.5614(5)
O51 O 0.9314(5) 0.2474(5) 0.7717(5)
O53 O 0.9370(6) 0.3746(5) 0.8366(5)
Mo6_2 Mo 0.03289(6) 0.52310(6) 0.15650(6)
O23_2 O 0.1451(6) 0.4769(6) 0.0877(5)
O24_2 O 0.0487(6) 0.4672(5) 0.2660(5)
O33_2 O 0.0142(5) 0.6006(5) 0.3352(5)
O50_2 O 0.0388(5) 0.4324(5) 0.4386(5)
O51_2 O 0.0686(5) 0.7526(5) 0.2283(5)
O53_2 O 0.0630(6) 0.6254(5) 0.1634(5)
Mo1_2 Mo 0.58514(6) 0.53870(7) 0.31982(7)
Mo2_2 Mo 0.53324(7) 0.73224(7) 0.40716(6)
Mo3_2 Mo 0.73271(7) 0.79585(6) 0.38866(6)
Mo4_2 Mo 0.98485(6) 0.70472(6) 0.23980(6)
Mo5_2 Mo 0.96440(6) 0.50155(6) 0.38126(6)
Mo7_2 Mo 0.82273(7) 0.45507(6) 0.17601(6)
Mo8_2 Mo 0.78750(6) 0.84621(6) 0.14836(6)
Mo9_2 Mo 0.77355(6) 0.40557(6) 0.40257(6)
Mo10_2 Mo 0.70130(6) 0.58798(6) 0.51238(6)
Mo11_2 Mo 0.85617(6) 0.67448(6) 0.04347(5)
Mo12_2 Mo 0.60490(6) 0.75701(6) 0.16885(6)
P1_2 P 0.78068(16) 0.62783(16) 0.27837(15)
O15_2 O 0.7155(5) 0.6687(5) 0.3610(5)
O16_2 O 0.7519(5) 0.5432(5) 0.2903(5)
O17_2 O 0.8921(5) 0.5996(5) 0.2682(5)
O18_2 O 0.7652(5) 0.6954(5) 0.1952(5)
O19_2 O 0.5906(5) 0.8133(6) 0.4104(6)
O20_2 O 0.8051(5) 0.9474(5) 0.0903(5)
O21_2 O 0.5089(5) 0.8145(6) 0.1340(5)
O22_2 O 0.7756(6) 0.3050(5) 0.4702(5)
O25_2 O 0.6808(6) 0.5567(6) 0.6213(5)
O26_2 O 0.4825(6) 0.5153(5) 0.3315(6)
O27_2 O 0.6806(6) 0.4742(6) 0.2238(5)
O28_2 O 0.7210(6) 0.8834(5) 0.4227(5)
O29_2 O 0.8707(5) 0.7509(6) 0.3363(4)
O30_2 O 0.9155(5) 0.7825(6) 0.1679(5)
O31_2 O 0.9690(5) 0.6136(5) 0.0744(5)
O32_2 O 0.7343(5) 0.8535(6) 0.2655(4)
O34_2 O 0.7058(5) 0.4907(5) 0.4826(5)
O35_2 O 0.8916(4) 0.4215(5) 0.3892(5)
O36_2 O 0.7088(5) 0.7249(5) 0.0650(5)
O37_2 O 0.9517(5) 0.4586(5) 0.1706(5)
O38_2 O 0.8468(5) 0.5511(5) 0.4646(5)
O39_2 O 0.8206(5) 0.5611(5) 0.0925(5)
O40_2 O 0.6644(5) 0.8546(5) 0.1435(5)
O41_2 O 0.4102(6) 0.7780(6) 0.4581(5)
O42_2 O 0.5867(5) 0.6442(5) 0.2194(5)
O43_2 O 0.5374(6) 0.6215(5) 0.3878(5)
O44_2 O 0.7213(6) 0.7074(6) 0.4897(6)
O45_2 O 0.6368(5) 0.4412(6) 0.3958(5)
O46_2 O 0.8518(5) 0.7877(5) 0.0484(5)
O48_2 O 0.8233(5) 0.3731(6) 0.2929(5)
O49_2 O 0.5486(6) 0.7770(5) 0.2886(5)
O52_2 O 0.8576(5) 0.3763(5) 0.1185(5)
O54_2 O 0.5716(6) 0.6533(6) 0.5086(6)
O47_2 O 0.8953(5) 0.6802(5) 0.9358(5)
loop_
_geom_bond_atom_site_label_1
_geom_bond_atom_site_label_2
_geom_bond_site_symmetry_1
_geom_bond_site_symmetry_2
N7 N8 1_555 1_555
N9 N8 1_555 1_555
C5 N7 1_555 1_555
H7 C5 1_555 1_555
C6 N9 1_555 1_555
H8 C6 1_555 1_555
Cu17 N7 1_555 1_555
N49 Cu8 1_555 1_555
Cu8 O12 1_555 1_555
C5 C6 1_555 1_555
Cu17 O12 1_555 1_555
N52 Cu4_2 1_555 1_555
Cu5 N4 1_555 1_555
Cu7 N15 1_555 1_555
N10 Cu5 1_555 1_555
N11 Cu6 1_555 1_555
N14 Cu6 1_555 1_555
N15 N14 1_555 1_555
N16 Cu5 1_555 1_555
N17 Cu6 1_555 1_555
N18 Cu7 1_555 1_555
C4 N4 1_555 1_555
H6 C4 1_555 1_555
C11 N16 1_555 1_555
H13 C11 1_555 1_555
C12 N18 1_555 1_555
H14 C12 1_555 1_555
N57 Cu7 1_555 1_555
N10 N11 1_555 1_555
N16 N17 1_555 1_555
N17 N18 1_555 1_555
C11 C12 1_555 1_555
N13 Cu4_4 1_555 1_555
N21 N20 1_555 1_555
H11 C9 1_555 1_555
C10 N13 1_555 1_555
H12 C10 1_555 1_555
C13 N19 1_555 1_555
H15 C13 1_555 1_555
C14 N21 1_555 1_555
H16 C14 1_555 1_555
Cu14 N21 1_555 1_555
N19 N20 1_555 1_555
C9 C10 1_555 1_555
C13 C14 1_555 1_555
Cu14 O13 1_555 1_555
N53 Cu4_5 1_555 1_555
O2 Cu1 1_555 1_555
Cu9 N27 1_555 1_555
Cu17 N25 1_555 1_555
N25 N26 1_555 1_555
N26 N27 1_555 1_555
N27 C17 1_555 1_555
N49 N30 1_555 1_555
N30 Cu17 1_555 1_555
N46 Cu9 1_555 1_555
N47 Cu1 1_555 1_555
N57 N47 1_555 1_555
O6 Cu9 1_555 1_555
O8 Cu17 1_555 1_555
O10 Cu1 1_555 1_555
H20 O10 1_555 1_555
C17 H21 1_555 1_555
C18 N25 1_555 1_555
H22 C18 1_555 1_555
C19 N30 1_555 1_555
H23 C19 1_555 1_555
C23 N52 1_555 1_555
H28 C24 1_555 1_555
C31 N46 1_555 1_555
H35 C31 1_555 1_555
C32 N57 1_555 1_555
H36 C32 1_555 1_555
N55 Cu9 1_555 1_555
Cu9 O10 1_555 1_555
N46 N47 1_555 1_555
C17 C18 1_555 1_555
C23 C24 1_555 1_555
C31 C32 1_555 1_555
O6 H43 1_555 1_555
O8 H47 1_555 1_555
Cu1_2 N23 1_555 1_555
Cu14 N3 1_555 1_555
Cu3 N1 1_555 1_555
Cu4_7 N12 1_555 1_555
Cu8_4 N5 1_555 1_555
N1 N2 1_555 1_555
N2 N3 1_555 1_555
N3 C1 1_555 1_555
N5 N6 1_555 1_555
N6 Cu3 1_555 1_555
N22 Cu14 1_555 1_555
N23 N22 1_555 1_555
N24 N23 1_555 1_555
O1 Cu14 1_555 1_555
O3 Cu3 1_555 1_555
O4 Cu3 1_555 1_555
O13 Cu1_2 1_555 1_555
H2 O13 1_555 1_555
C1 H3 1_555 1_555
C2 N1 1_555 1_555
H4 C2 1_555 1_555
C3 N6 1_555 1_555
H5 C3 1_555 1_555
C7 N12 1_555 1_555
H10 C8 1_555 1_555
C15 N22 1_555 1_555
H17 C15 1_555 1_555
C16 N24 1_555 1_555
H18 C16 1_555 1_555
O7 Cu1_2 1_555 1_555
Cu22 N24 1_555 1_555
N51 Cu3 1_555 1_555
Cu8_4 O4 1_555 1_555
C1 C2 1_555 1_555
C7 C8 1_555 1_555
C15 C16 1_555 1_555
O1 H39 1_555 1_555
O3 H41 1_555 1_555
N55 N44 1_555 1_555
H29 C25 1_555 1_555
C26 N53 1_555 1_555
H30 C26 1_555 1_555
C29 N43 1_555 1_555
H33 C29 1_555 1_555
C30 N55 1_555 1_555
H34 C30 1_555 1_555
N43 N44 1_555 1_555
C25 C26 1_555 1_555
C29 C30 1_555 1_555
Cu20 N28 1_555 1_555
Cu22 N39 1_555 1_555
N34 Cu20 1_555 1_555
N35 Cu12 1_555 1_555
N38 Cu12 1_555 1_555
N39 N38 1_555 1_555
N40 Cu20 1_555 1_555
N41 Cu12 1_555 1_555
N42 Cu22 1_555 1_555
C20 N28 1_555 1_555
H24 C20 1_555 1_555
C27 N40 1_555 1_555
H31 C27 1_555 1_555
C28 N42 1_555 1_555
H32 C28 1_555 1_555
N34 N35 1_555 1_555
N40 N41 1_555 1_555
N41 N42 1_555 1_555
C27 C28 1_555 1_555
N51 N32 1_555 1_555
N33 N32 1_555 1_555
C21 N51 1_555 1_555
H25 C21 1_555 1_555
C22 N33 1_555 1_555
H26 C22 1_555 1_555
C21 C22 1_555 1_555
O6 H39_2 1_555 1_555
O8 H41_2 1_555 1_555
O1 H43_2 1_555 1_555
O3 H47_2 1_555 1_555
Mo1 O16 1_555 1_555
Mo2 O15 1_555 1_555
Mo3 O15 1_555 1_555
Mo4 O17 1_555 1_555
Mo5 O17 1_555 1_555
Mo7 O16 1_555 1_555
Mo8 O18 1_555 1_555
Mo9 O16 1_555 1_555
Mo10 O15 1_555 1_555
Mo11 O18 1_555 1_555
Mo12 O18 1_555 1_555
P1 O15 1_555 1_555
O16 P1 1_555 1_555
O17 P1 1_555 1_555
O18 P1 1_555 1_555
O19 Mo2 1_555 1_555
O20 Mo8 1_555 1_555
O21 Mo12 1_555 1_555
O22 Mo9 1_555 1_555
O25 Mo10 1_555 1_555
O26 Mo1 1_555 1_555
O27 Mo1 1_555 1_555
O28 Mo3 1_555 1_555
O29 Mo3 1_555 1_555
O30 Mo4 1_555 1_555
O32 Mo3 1_555 1_555
O34 Mo9 1_555 1_555
O35 Mo5 1_555 1_555
O36 Mo11 1_555 1_555
O38 Mo5 1_555 1_555
O39 Mo7 1_555 1_555
O40 Mo8 1_555 1_555
O41 Mo2 1_555 1_555
O42 Mo1 1_555 1_555
O43 Mo1 1_555 1_555
O44 Mo3 1_555 1_555
O45 Mo1 1_555 1_555
O46 Mo8 1_555 1_555
O48 Mo7 1_555 1_555
O49 Mo2 1_555 1_555
O52 Mo7 1_555 1_555
O54 Mo2 1_555 1_555
Mo2 O43 1_555 1_555
Mo3 O19 1_555 1_555
Mo4 O29 1_555 1_555
Mo7 O27 1_555 1_555
Mo7 O37 1_555 1_555
Mo8 O30 1_555 1_555
Mo8 O32 1_555 1_555
Mo9 O35 1_555 1_555
Mo9 O45 1_555 1_555
Mo9 O48 1_555 1_555
Mo10 O34 1_555 1_555
Mo10 O38 1_555 1_555
Mo10 O44 1_555 1_555
Mo10 O54 1_555 1_555
Mo11 O31 1_555 1_555
Mo11 O39 1_555 1_555
Mo11 O46 1_555 1_555
Mo12 O36 1_555 1_555
Mo12 O40 1_555 1_555
Mo12 O42 1_555 1_555
Mo12 O49 1_555 1_555
O23 Mo6 1_555 1_555
Mo6 O24 1_555 1_555
Mo6 O53 1_555 1_555
O23_2 Mo6_2 1_555 1_555
Mo6_2 O24_2 1_555 1_555
Mo6_2 O53_2 1_555 1_555
Mo1_2 O16_2 1_555 1_555
Mo2_2 O15_2 1_555 1_555
Mo3_2 O15_2 1_555 1_555
Mo4_2 O17_2 1_555 1_555
Mo5_2 O17_2 1_555 1_555
Mo7_2 O16_2 1_555 1_555
Mo8_2 O18_2 1_555 1_555
Mo9_2 O16_2 1_555 1_555
Mo10_2 O15_2 1_555 1_555
Mo11_2 O18_2 1_555 1_555
Mo12_2 O18_2 1_555 1_555
P1_2 O15_2 1_555 1_555
O16_2 P1_2 1_555 1_555
O17_2 P1_2 1_555 1_555
O18_2 P1_2 1_555 1_555
O19_2 Mo2_2 1_555 1_555
O20_2 Mo8_2 1_555 1_555
O21_2 Mo12_2 1_555 1_555
O22_2 Mo9_2 1_555 1_555
O25_2 Mo10_2 1_555 1_555
O26_2 Mo1_2 1_555 1_555
O27_2 Mo1_2 1_555 1_555
O28_2 Mo3_2 1_555 1_555
O29_2 Mo3_2 1_555 1_555
O30_2 Mo4_2 1_555 1_555
O32_2 Mo3_2 1_555 1_555
O34_2 Mo9_2 1_555 1_555
O35_2 Mo5_2 1_555 1_555
O36_2 Mo11_2 1_555 1_555
O38_2 Mo5_2 1_555 1_555
O39_2 Mo7_2 1_555 1_555
O40_2 Mo8_2 1_555 1_555
O41_2 Mo2_2 1_555 1_555
O42_2 Mo1_2 1_555 1_555
O43_2 Mo1_2 1_555 1_555
O44_2 Mo3_2 1_555 1_555
O45_2 Mo1_2 1_555 1_555
O46_2 Mo8_2 1_555 1_555
O48_2 Mo7_2 1_555 1_555
O49_2 Mo2_2 1_555 1_555
O52_2 Mo7_2 1_555 1_555
O54_2 Mo2_2 1_555 1_555
Mo2_2 O43_2 1_555 1_555
Mo3_2 O19_2 1_555 1_555
Mo4_2 O29_2 1_555 1_555
Mo7_2 O27_2 1_555 1_555
Mo7_2 O37_2 1_555 1_555
Mo8_2 O30_2 1_555 1_555
Mo8_2 O32_2 1_555 1_555
Mo9_2 O35_2 1_555 1_555
Mo9_2 O45_2 1_555 1_555
Mo9_2 O48_2 1_555 1_555
Mo10_2 O34_2 1_555 1_555
Mo10_2 O38_2 1_555 1_555
Mo10_2 O44_2 1_555 1_555
Mo10_2 O54_2 1_555 1_555
Mo11_2 O31_2 1_555 1_555
Mo11_2 O39_2 1_555 1_555
Mo11_2 O46_2 1_555 1_555
Mo12_2 O36_2 1_555 1_555
Mo12_2 O40_2 1_555 1_555
Mo12_2 O42_2 1_555 1_555
Mo12_2 O49_2 1_555 1_555

#END
