
###############################################################################
#
# This file contains modified crystal structure data generated from the
# MOF subset of the Cambridge Structural Database (CSD) v543 
# hosted by the Cambridge Crystallographic Data Centre (CCDC).
#
# This work is licensed under the Creative Commons
# Attribution-NonCommercial-ShareAlike 4.0 International License.
# To view a copy of this license, visit
# http://creativecommons.org/licenses/by-nc-sa/4.0/
# or send a letter to
# Creative Commons, PO Box 1866, Mountain View, CA 94042, USA.
#
# CIF created using the CSD Python API on 29 September 2022
# The structure has been converted into the P1 space group
# The structure has a 3D framework
# The original CSD entry LEDGIO is in the rhombohedral crystal system
# The framework has been calculated to contain at least 10.0% void space
# The void calculation uses a probe of radius 1.32A, grid spacing 0.4
# H atom positions have been added when not included in the experimental data
# Generated hydrogen atom positions removed from atoms on special positions
#
###############################################################################

data_LEDGIO
_chemical_formula_moiety         '(C580 H396 N72 Ni72 O383)n'
_symmetry_cell_setting           triclinic
_symmetry_space_group_name_H-M   'P 1'
_symmetry_Int_Tables_number      1
_space_group_name_Hall           'P 1'
loop_
_symmetry_equiv_pos_site_id
_symmetry_equiv_pos_as_xyz
1 x,y,z
_cell_length_a                   31.3566(3)
_cell_length_b                   31.3566(3)
_cell_length_c                   38.3643(5)
_cell_angle_alpha                90
_cell_angle_beta                 90
_cell_angle_gamma                120
_cell_volume                     32667.5
loop_
_atom_site_label
_atom_site_type_symbol
_atom_site_fract_x
_atom_site_fract_y
_atom_site_fract_z
Ni26 Ni 0.01503(3) 0.57025(2) 0.75359(2)
Ni1 Ni 0.53840(2) 0.52636(2) 0.71260(2)
Ni2 Ni 0.33236(2) 0.60242(2) 0.39906(2)
Ni3 Ni 0.42975(2) 0.44478(2) 0.75359(2)
Ni4 Ni 0.51801(2) 0.54845(2) 0.79756(2)
O1 O 0.333333 0.666667 0.39574(13)
O2 O 0.49449(9) 0.50744(9) 0.75437(7)
O3 O 0.76499(9) 0.38804(10) 0.63734(7)
O4 O 0.92770(9) 0.47034(10) 0.70361(7)
O5 O 0.58178(9) 0.72924(9) 0.55827(8)
O6 O 0.40949(9) 0.45550(10) 0.70415(7)
O7 O 0.57595(9) 0.78327(9) 0.52301(7)
O8 O 0.26546(9) 0.37663(10) 0.61920(7)
O9 O 0.72013(10) 0.42548(10) 0.64016(7)
O10 O 0.75454(9) 0.65127(11) 0.86435(7)
O11 O 0.59133(9) 0.56560(10) 0.79533(7)
O12 O 0.27707(9) 0.40951(10) 0.56562(7)
O13 O 0.81957(9) 0.65143(11) 0.83985(8)
O14 O 0.43051(9) 0.70838(9) 0.43645(7)
O15 O 0.59931(9) 0.54188(12) 0.74193(8)
O16 O 0.38294(11) 0.62675(10) 0.43866(8)
O17 O 0.48084(10) 0.51179(11) 0.68028(7)
O18 O 0.94519(9) 0.53855(10) 0.73314(9)
N1 N 0.43982(14) 0.56976(13) 0.57427(11)
O19 O 0.54217(13) 0.59246(14) 0.84295(9)
C1 C 0.75591(12) 0.41979(13) 0.64845(9)
O20 O 0.58475(14) 0.54793(15) 0.66765(10)
C2 C 0.36222(13) 0.44621(13) 0.63809(10)
H1 H 0.344791 0.419971 0.653257
C3 C 0.79030(13) 0.45544(14) 0.67560(10)
N2 N 0.42026(14) 0.57101(13) 0.54694(11)
C4 C 0.43544(12) 0.48317(12) 0.67995(9)
C5 C 0.56160(12) 0.74115(12) 0.53506(9)
O21 O 0.33185(14) 0.53472(12) 0.39969(12)
C6 C 0.83642(13) 0.46057(14) 0.68238(10)
H2 H 0.846353 0.441314 0.670290
C7 C 0.44482(13) 0.66454(14) 0.48055(10)
O22 O 0.36038(13) 0.37916(13) 0.75293(10)
C8 C 0.48913(13) 0.70414(13) 0.49217(10)
H3 H 0.502927 0.734031 0.480367
C9 C 0.40962(14) 0.48362(14) 0.64697(10)
C10 C 0.61444(12) 0.55893(13) 0.77110(10)
C11 C 0.74313(13) 0.60915(15) 0.81101(11)
C12 C 0.66666(13) 0.57072(15) 0.77853(10)
C13 C 0.69478(14) 0.59896(15) 0.80665(11)
H4 H 0.681177 0.611086 0.822635
C14 C 0.91832(13) 0.50135(14) 0.71556(10)
N3 N 0.79134(14) 0.54210(17) 0.74264(11)
C15 C 0.51296(13) 0.69927(13) 0.52138(10)
N4 N 0.75025(14) 0.53599(18) 0.73669(11)
C16 C 0.34106(13) 0.44806(13) 0.60673(10)
C17 C 0.29008(12) 0.40777(12) 0.59591(10)
C18 C 0.77554(13) 0.64014(13) 0.84101(9)
C19 C 0.41743(12) 0.66704(13) 0.44902(9)
C20 C 0.49240(15) 0.65563(14) 0.53958(11)
H5 H 0.508136 0.652303 0.559073
C21 C 0.86774(13) 0.49438(14) 0.70716(10)
C22 C 0.77527(14) 0.48264(17) 0.69456(11)
H6 H 0.744788 0.479717 0.689986
C23 C 0.44700(15) 0.61599(15) 0.52816(11)
C24 C 0.76381(14) 0.59077(18) 0.78778(12)
H7 H 0.796431 0.598534 0.790171
C25 C 0.36628(15) 0.48727(14) 0.58431(11)
H8 H 0.352315 0.488046 0.563101
C26 C 0.42453(15) 0.62040(14) 0.49887(11)
H9 H 0.395333 0.593524 0.491130
C27 C 0.43427(15) 0.52356(15) 0.62481(11)
H10 H 0.465369 0.549069 0.630872
C28 C 0.68714(15) 0.55207(18) 0.75545(12)
H11 H 0.669010 0.533859 0.736290
C29 C 0.80523(15) 0.51471(17) 0.72069(12)
C30 C 0.41294(15) 0.52588(15) 0.59354(12)
C31 C 0.73463(16) 0.56028(19) 0.76063(13)
C32 C 0.85159(14) 0.52081(16) 0.72627(12)
H12 H 0.872052 0.542976 0.743084
Ni5 Ni 0.47364(2) 0.01204(3) 0.71260(2)
O24 O 0.61196(10) 0.37695(13) 0.63734(7)
O25 O 0.52966(10) 0.45736(13) 0.70361(7)
O30 O 0.57452(10) 0.29465(14) 0.64016(7)
O31 O 0.34873(11) 0.10327(14) 0.86435(7)
O32 O 0.43440(10) 0.02573(13) 0.79533(7)
O34 O 0.34857(11) 0.16814(14) 0.83985(8)
O36 O 0.45812(12) 0.05743(15) 0.74193(8)
O39 O 0.46145(10) 0.40664(13) 0.73314(9)
C33 C 0.58021(13) 0.33612(18) 0.64845(9)
O41 O 0.45207(15) 0.03682(21) 0.66765(10)
C35 C 0.54456(14) 0.33486(19) 0.67560(10)
C38 C 0.53943(14) 0.37585(19) 0.68238(10)
H14 H 0.558686 0.405039 0.670290
C42 C 0.44107(13) 0.05551(18) 0.77110(10)
C43 C 0.39085(15) 0.13398(20) 0.81101(11)
C44 C 0.42928(15) 0.09594(20) 0.77853(10)
C45 C 0.40104(15) 0.09582(21) 0.80665(11)
H16 H 0.388914 0.070091 0.822635
C46 C 0.49865(14) 0.41697(19) 0.71556(10)
N7 N 0.45790(17) 0.24924(22) 0.74264(11)
N8 N 0.46401(18) 0.21426(23) 0.73669(11)
C50 C 0.35986(13) 0.13540(18) 0.84101(9)
C53 C 0.50562(14) 0.37336(19) 0.70716(10)
C54 C 0.51736(17) 0.29263(22) 0.69456(11)
H18 H 0.520283 0.265071 0.689986
C56 C 0.40923(18) 0.17304(23) 0.78778(12)
H19 H 0.401466 0.197897 0.790171
C60 C 0.44793(18) 0.13507(23) 0.75545(12)
H23 H 0.466141 0.135151 0.736290
C61 C 0.48529(17) 0.29052(23) 0.72069(12)
C63 C 0.43972(19) 0.17435(25) 0.76063(13)
C64 C 0.47919(16) 0.33078(21) 0.72627(12)
H24 H 0.457024 0.329076 0.743084
Ni10 Ni 0.27006(3) 0.66764(2) 0.39906(2)
Ni12 Ni 0.03044(3) 0.48199(2) 0.79756(2)
O44 O 0.01295(13) 0.50551(9) 0.75437(7)
O47 O 0.14746(13) 0.41822(9) 0.55827(8)
O48 O 0.04601(13) 0.59051(9) 0.70415(7)
O49 O 0.20732(13) 0.42405(9) 0.52301(7)
O50 O 0.11117(13) 0.73454(9) 0.61920(7)
O54 O 0.13244(13) 0.72293(9) 0.56562(7)
O56 O 0.27787(13) 0.56949(9) 0.43645(7)
O58 O 0.24381(15) 0.61706(11) 0.43866(8)
O59 O 0.03095(15) 0.51916(10) 0.68028(7)
N9 N 0.12994(19) 0.56018(14) 0.57427(11)
O61 O 0.05029(19) 0.45783(13) 0.84295(9)
C66 C 0.08399(18) 0.63778(13) 0.63809(10)
H25 H 0.075180 0.655209 0.653257
N10 N 0.15075(19) 0.57974(14) 0.54694(11)
C68 C 0.04773(17) 0.56456(12) 0.67995(9)
C69 C 0.17955(17) 0.43840(12) 0.53506(9)
O63 O 0.20287(18) 0.66815(14) 0.39969(12)
C71 C 0.21972(19) 0.55518(13) 0.48055(10)
O64 O 0.01878(18) 0.63962(13) 0.75293(10)
C72 C 0.21501(18) 0.51087(13) 0.49217(10)
H27 H 0.231104 0.497073 0.480367
C73 C 0.07400(20) 0.59038(14) 0.64697(10)
C79 C 0.18631(18) 0.48704(13) 0.52138(10)
C80 C 0.10700(18) 0.65894(13) 0.60673(10)
C81 C 0.11769(17) 0.70992(12) 0.59591(10)
C83 C 0.24961(18) 0.58257(12) 0.44902(9)
C84 C 0.16323(21) 0.50760(15) 0.53958(11)
H29 H 0.144167 0.491864 0.559073
C87 C 0.16899(21) 0.55300(15) 0.52816(11)
C89 C 0.12099(21) 0.63372(15) 0.58431(11)
H32 H 0.135731 0.647685 0.563101
C90 C 0.19587(21) 0.57547(15) 0.49887(11)
H33 H 0.198191 0.604667 0.491130
C91 C 0.08929(21) 0.56573(15) 0.62481(11)
H34 H 0.083700 0.534631 0.630872
C94 C 0.11294(21) 0.58706(15) 0.59354(12)
Ni14 Ni 0.98796(3) 0.46160(2) 0.71260(2)
Ni15 Ni 0.12827(2) 0.80697(2) 0.62073(2)
Ni16 Ni 0.19303(2) 0.32129(3) 0.62073(2)
Ni18 Ni 0.39758(2) 0.72994(3) 0.39906(2)
Ni20 Ni 0.66764(2) 0.39758(2) 0.60094(2)
Ni22 Ni 0.60242(2) 0.27006(3) 0.60094(2)
Ni24 Ni 0.72994(3) 0.33236(2) 0.60094(2)
Ni28 Ni 0.11145(2) 0.34836(3) 0.57974(2)
Ni29 Ni 0.65164(3) 0.76308(2) 0.57974(2)
Ni31 Ni 0.77811(2) 0.68170(3) 0.91308(2)
Ni32 Ni 0.31830(3) 0.09642(2) 0.91308(2)
Ni34 Ni 0.14866(2) 0.78488(2) 0.53577(2)
Ni35 Ni 0.21512(2) 0.36377(3) 0.53577(2)
Ni37 Ni 0.63623(3) 0.85134(2) 0.53577(2)
Ni39 Ni 0.88178(2) 0.69711(3) 0.86911(2)
Ni40 Ni 0.30289(3) 0.18468(2) 0.86911(2)
O66 O 0.23501(9) 0.61196(10) 0.36266(7)
O67 O 0.38804(10) 0.62305(13) 0.36266(7)
O70 O 0.54264(13) 0.07230(9) 0.70361(7)
O71 O 0.08489(9) 0.60409(9) 0.77506(8)
O72 O 0.39591(9) 0.48079(13) 0.77506(8)
O74 O 0.09072(9) 0.55006(9) 0.81032(7)
O75 O 0.44994(9) 0.54065(13) 0.81032(7)
O78 O 0.04330(10) 0.44450(13) 0.71413(7)
O79 O 0.55550(13) 0.59879(9) 0.71413(7)
O80 O 0.27987(10) 0.57452(10) 0.35984(7)
O82 O 0.29465(14) 0.72013(10) 0.35984(7)
O83 O 0.57879(9) 0.01540(11) 0.80232(7)
O85 O 0.43660(14) 0.42121(9) 0.80232(7)
O87 O 0.07618(10) 0.46577(13) 0.76771(7)
O88 O 0.53423(13) 0.61040(9) 0.76771(7)
O89 O 0.51376(9) 0.01524(11) 0.82682(8)
O91 O 0.50147(14) 0.48624(9) 0.82682(8)
O93 O 0.29162(9) 0.72213(13) 0.43645(7)
O95 O 0.59336(13) 0.05481(9) 0.73314(9)
H42 H 0.649477 0.0146777 0.74914
H43 H 0.416589 0.0264385 0.669386
H44 H 0.471848 0.0732909 0.666261
H45 H 0.0735101 0.486798 0.85704
H46 H 0.0203202 0.4367 0.856904
H49 H 0.0408767 0.660036 0.733781
H53 H 0.60985 0.583411 0.669386
H54 H 0.601443 0.528152 0.666261
H57 H 0.513202 0.586712 0.85704
H58 H 0.5633 0.58362 0.856904
H59 H 0.339964 0.38084 0.733781
H60 H 0.365201 0.350523 0.74914
Ni7 Ni 0.55522(2) 0.98497(3) 0.75359(2)
Ni8 Ni 0.45155(2) 0.96956(3) 0.79756(2)
O23 O 0.49256(9) 0.98705(13) 0.75437(7)
O26 O 0.27076(9) 0.85254(13) 0.55827(8)
O27 O 0.54450(10) 0.95399(13) 0.70415(7)
O28 O 0.21673(9) 0.79268(13) 0.52301(7)
O29 O 0.62337(10) 0.88883(13) 0.61920(7)
O33 O 0.59049(10) 0.86756(13) 0.56562(7)
O37 O 0.37325(10) 0.75619(15) 0.43866(8)
O38 O 0.48821(11) 0.96905(15) 0.68028(7)
N5 N 0.43024(13) 0.87006(19) 0.57427(11)
O40 O 0.40754(14) 0.94971(19) 0.84295(9)
C34 C 0.55379(13) 0.91601(18) 0.63809(10)
H13 H 0.580029 0.924820 0.653257
N6 N 0.42899(13) 0.84925(19) 0.54694(11)
C36 C 0.51683(12) 0.95227(17) 0.67995(9)
C37 C 0.25885(12) 0.82045(17) 0.53506(9)
O42 O 0.46528(12) 0.79713(18) 0.39969(12)
C39 C 0.33546(14) 0.78028(19) 0.48055(10)
O43 O 0.62084(13) 0.98122(18) 0.75293(10)
C40 C 0.29586(13) 0.78499(18) 0.49217(10)
H15 H 0.265969 0.768896 0.480367
C41 C 0.51638(14) 0.92600(20) 0.64697(10)
C47 C 0.30073(13) 0.81369(18) 0.52138(10)
C48 C 0.55194(13) 0.89300(18) 0.60673(10)
C49 C 0.59223(12) 0.88231(17) 0.59591(10)
C51 C 0.33296(13) 0.75039(18) 0.44902(9)
C52 C 0.34437(14) 0.83677(21) 0.53958(11)
H17 H 0.347697 0.855833 0.559073
C55 C 0.38401(15) 0.83101(21) 0.52816(11)
C57 C 0.51273(14) 0.87901(21) 0.58431(11)
H20 H 0.511954 0.864269 0.563101
C58 C 0.37960(14) 0.80413(21) 0.49887(11)
H21 H 0.406476 0.801809 0.491130
C59 C 0.47644(15) 0.91071(21) 0.62481(11)
H22 H 0.450931 0.916300 0.630872
C62 C 0.47412(15) 0.88706(21) 0.59354(12)
Ni17 Ni 0.67871(3) 0.87173(2) 0.62073(2)
Ni27 Ni 0.23692(2) 0.88855(2) 0.57974(2)
O68 O 0.37695(13) 0.76499(9) 0.36266(7)
O73 O 0.51921(13) 0.91511(9) 0.77506(8)
O76 O 0.45935(13) 0.90928(9) 0.81032(7)
O77 O 0.40121(9) 0.95670(10) 0.71413(7)
O81 O 0.42548(10) 0.70535(14) 0.35984(7)
O86 O 0.38960(9) 0.92382(10) 0.76771(7)
H37 H 0.413288 0.92649 0.85704
H38 H 0.41638 0.97968 0.856904
H41 H 0.61916 0.959123 0.733781
O45 O 0.62305(13) 0.23501(9) 0.63734(7)
O51 O 0.70535(14) 0.27987(10) 0.64016(7)
O52 O 0.89673(14) 0.24546(9) 0.86435(7)
O53 O 0.97427(13) 0.40867(9) 0.79533(7)
O55 O 0.83186(14) 0.18043(9) 0.83985(8)
O57 O 0.94257(15) 0.40069(9) 0.74193(8)
C65 C 0.66388(18) 0.24409(12) 0.64845(9)
O62 O 0.96318(21) 0.41525(14) 0.66765(10)
C67 C 0.66514(19) 0.20970(13) 0.67560(10)
C70 C 0.62415(19) 0.16358(13) 0.68238(10)
H26 H 0.594961 0.153647 0.670290
C74 C 0.94449(18) 0.38556(12) 0.77110(10)
C75 C 0.86602(20) 0.25687(13) 0.81101(11)
C76 C 0.90406(20) 0.33334(13) 0.77853(10)
C77 C 0.90418(21) 0.30522(14) 0.80665(11)
H28 H 0.929909 0.318823 0.822635
C78 C 0.58303(19) 0.08168(13) 0.71556(10)
N11 N 0.75076(22) 0.20866(14) 0.74264(11)
N12 N 0.78574(23) 0.24975(14) 0.73669(11)
C82 C 0.86460(18) 0.22446(13) 0.84101(9)
C85 C 0.62664(19) 0.13226(13) 0.70716(10)
C86 C 0.70737(22) 0.22473(14) 0.69456(11)
H30 H 0.734929 0.255212 0.689986
C88 C 0.82696(23) 0.23619(14) 0.78778(12)
H31 H 0.802103 0.203569 0.790171
C92 C 0.86493(23) 0.31286(15) 0.75545(12)
H35 H 0.864849 0.330990 0.736290
C93 C 0.70948(23) 0.19477(15) 0.72069(12)
C95 C 0.82565(25) 0.26537(16) 0.76063(13)
C96 C 0.66922(21) 0.14841(14) 0.72627(12)
H36 H 0.670924 0.127948 0.743084
Ni30 Ni 0.90358(2) 0.22189(2) 0.91308(2)
Ni38 Ni 0.81532(2) 0.11822(2) 0.86911(2)
O84 O 0.98460(11) 0.56340(14) 0.80232(7)
O90 O 0.98476(11) 0.49853(14) 0.82682(8)
H47 H 0.973561 0.39015 0.669386
H48 H 0.926709 0.398557 0.666261
H50 H 0.985322 0.634799 0.74914
Ni31_2 Ni 0.44478(2) 0.01503(3) 0.24641(2)
Ni39_2 Ni 0.54845(2) 0.03044(3) 0.20244(2)
O1_2 O -0.000000 0.000000 0.72907(13)
O5_2 O 0.24845(9) 0.06257(9) 0.89160(8)
O7_2 O 0.24262(9) 0.11660(9) 0.85634(7)
O14_2 O 0.09718(9) 0.04171(9) 0.76978(7)
C5_2 C 0.22827(12) 0.07448(12) 0.86839(9)
C8_2 C 0.15580(13) 0.03747(13) 0.82550(10)
H3_2 H 0.169594 0.067364 0.813700
C15_2 C 0.17963(13) 0.03260(13) 0.85471(10)
C19_2 C 0.08410(12) 0.00037(13) 0.78235(9)
Ni18_2 Ni 0.06425(2) 0.06327(3) 0.73239(2)
Ni1_2 Ni 0.20507(2) 0.85969(2) 0.04593(2)
Ni3_2 Ni 0.09642(2) 0.77811(2) 0.08692(2)
Ni4_2 Ni 0.18468(2) 0.88178(2) 0.13089(2)
O2_2 O 0.16116(9) 0.84077(9) 0.08770(7)
O4_2 O 0.59437(9) 0.80367(10) 0.03694(7)
O6_2 O 0.07616(9) 0.78883(10) 0.03748(7)
O10_2 O 0.42121(9) 0.98460(11) 0.19768(7)
O11_2 O 0.25800(9) 0.89893(10) 0.12866(7)
O13_2 O 0.48624(9) 0.98476(11) 0.17318(8)
O15_2 O 0.26598(9) 0.87521(12) 0.07526(8)
O17_2 O 0.14751(10) 0.84512(11) 0.01361(7)
O18_2 O 0.61186(9) 0.87188(10) 0.06647(9)
O19_2 O 0.20884(13) 0.92579(14) 0.17628(9)
O20_2 O 0.25142(14) 0.88126(15) 0.00098(10)
C3_2 C 0.45697(13) 0.78877(14) 0.00893(10)
C4_2 C 0.10211(12) 0.81650(12) 0.01328(9)
C6_2 C 0.50309(13) 0.79390(14) 0.01571(10)
H2_2 H 0.513020 0.774647 0.003623
O22_2 O 0.02705(13) 0.71249(13) 0.08626(10)
C10_2 C 0.28111(12) 0.89226(13) 0.10443(10)
C11_2 C 0.40980(13) 0.94248(15) 0.14434(11)
C12_2 C 0.33333(13) 0.90405(15) 0.11186(10)
C13_2 C 0.36145(14) 0.93229(15) 0.13998(11)
H4_2 H 0.347844 0.944419 0.155968
C14_2 C 0.58499(13) 0.83468(14) 0.04889(10)
N3_2 N 0.45801(14) 0.87543(17) 0.07597(11)
N4_2 N 0.41692(14) 0.86932(18) 0.07002(11)
C18_2 C 0.44221(13) 0.97347(13) 0.17434(9)
C21_2 C 0.53441(13) 0.82771(14) 0.04049(10)
C22_2 C 0.44194(14) 0.81597(17) 0.02789(11)
H6_2 H 0.411455 0.813050 0.023319
C24_2 C 0.43048(14) 0.92410(18) 0.12111(12)
H7_2 H 0.463098 0.931867 0.123504
C28_2 C 0.35381(15) 0.88540(18) 0.08878(12)
H11_2 H 0.335677 0.867192 0.069623
C29_2 C 0.47190(15) 0.84804(17) 0.05402(12)
C31_2 C 0.40130(16) 0.89361(19) 0.09396(13)
C32_2 C 0.51826(14) 0.85414(16) 0.05960(12)
H12_2 H 0.538719 0.876309 0.076417
Ni5_2 Ni 0.14031(2) 0.34537(3) 0.04593(2)
Ni7_2 Ni 0.22189(2) 0.31830(3) 0.08692(2)
Ni8_2 Ni 0.11822(2) 0.30289(3) 0.13089(2)
O23_2 O 0.15923(9) 0.32038(13) 0.08770(7)
O25_2 O 0.19633(10) 0.79069(13) 0.03694(7)
O27_2 O 0.21117(10) 0.28732(13) 0.03748(7)
O31_2 O 0.01540(11) 0.43660(14) 0.19768(7)
O32_2 O 0.10107(10) 0.35906(13) 0.12866(7)
O34_2 O 0.01524(11) 0.50147(14) 0.17318(8)
O36_2 O 0.12479(12) 0.39076(15) 0.07526(8)
O38_2 O 0.15488(11) 0.30238(15) 0.01361(7)
O39_2 O 0.12812(10) 0.73997(13) 0.06647(9)
O40_2 O 0.07421(14) 0.28304(19) 0.17628(9)
O41_2 O 0.11874(15) 0.37015(21) 0.00098(10)
C35_2 C 0.21123(14) 0.66819(19) 0.00893(10)
C36_2 C 0.18350(12) 0.28560(17) 0.01328(9)
C38_2 C 0.20610(14) 0.70918(19) 0.01571(10)
H14_2 H 0.225353 0.738372 0.003623
O43_2 O 0.28751(13) 0.31455(18) 0.08626(10)
C42_2 C 0.10774(13) 0.38884(18) 0.10443(10)
C43_2 C 0.05752(15) 0.46731(20) 0.14434(11)
C44_2 C 0.09595(15) 0.42927(20) 0.11186(10)
C45_2 C 0.06771(15) 0.42915(21) 0.13998(11)
H16_2 H 0.055581 0.403424 0.155968
C46_2 C 0.16532(14) 0.75030(19) 0.04889(10)
N7_2 N 0.12457(17) 0.58257(22) 0.07597(11)
N8_2 N 0.13068(18) 0.54759(23) 0.07002(11)
C50_2 C 0.02653(13) 0.46873(18) 0.17434(9)
C53_2 C 0.17229(14) 0.70669(19) 0.04049(10)
C54_2 C 0.18403(17) 0.62596(22) 0.02789(11)
H18_2 H 0.186950 0.598404 0.023319
C56_2 C 0.07590(18) 0.50637(23) 0.12111(12)
H19_2 H 0.068133 0.531230 0.123504
C60_2 C 0.11460(18) 0.46840(23) 0.08878(12)
H23_2 H 0.132808 0.468484 0.069623
C61_2 C 0.15196(17) 0.62385(23) 0.05402(12)
C63_2 C 0.10639(19) 0.50768(25) 0.09396(13)
C64_2 C 0.14586(16) 0.66411(21) 0.05960(12)
H24_2 H 0.123691 0.662409 0.076417
Ni14_2 Ni 0.65463(3) 0.79493(2) 0.04593(2)
Ni26_2 Ni 0.68170(3) 0.90358(2) 0.08692(2)
O70_2 O 0.20931(13) 0.40563(9) 0.03694(7)
O72_2 O 0.06257(9) 0.81413(13) 0.10840(8)
O73_2 O 0.18587(13) 0.24845(9) 0.10840(8)
O75_2 O 0.11660(9) 0.87399(13) 0.14366(7)
O76_2 O 0.12601(13) 0.24262(9) 0.14366(7)
O77_2 O 0.06787(9) 0.29004(10) 0.04747(7)
O79_2 O 0.22216(13) 0.93213(9) 0.04747(7)
O83_2 O 0.24546(9) 0.34873(11) 0.13565(7)
O85_2 O 0.10327(14) 0.75454(9) 0.13565(7)
O86_2 O 0.05626(9) 0.25716(10) 0.10105(7)
O88_2 O 0.20089(13) 0.94374(9) 0.10105(7)
O89_2 O 0.18043(9) 0.34857(11) 0.16015(8)
O91_2 O 0.16814(14) 0.81957(9) 0.16015(8)
O95_2 O 0.26003(13) 0.38814(9) 0.06647(9)
H37_2 H 0.0799549 0.259823 0.190373
H38_2 H 0.0830467 0.313013 0.190237
H41_2 H 0.285826 0.292457 0.0671142
H42_2 H 0.316143 0.348011 0.0824732
H43_2 H 0.0832554 0.359772 0.00271933
H53_2 H 0.276516 0.916745 0.00271933
H57_2 H 0.179868 0.920045 0.190373
H58_2 H 0.229966 0.916953 0.190237
H59_2 H 0.00663042 0.714174 0.0671142
H60_2 H 0.0318679 0.683857 0.0824732
O1_3 O -0.000000 1.000000 0.72907(13)
O3_2 O 0.43166(9) 0.72137(10) 0.97067(7)
O9_2 O 0.38680(10) 0.75881(10) 0.97349(7)
O16_2 O 0.04961(11) 0.96008(10) 0.77199(8)
N1_2 N 0.10649(14) 0.90309(13) 0.90760(11)
C1_2 C 0.42258(12) 0.75312(13) 0.98178(9)
C2_2 C 0.02889(13) 0.77954(13) 0.97142(10)
H1_2 H 0.011458 0.753304 0.986590
N2_2 N 0.08693(14) 0.90434(13) 0.88027(11)
C7_2 C 0.11149(13) 0.99787(14) 0.81388(10)
C9_2 C 0.07629(14) 0.81695(14) 0.98030(10)
C16_2 C 0.00773(13) 0.78139(13) 0.94006(10)
C20_2 C 0.15907(15) 0.98896(14) 0.87291(11)
H5_2 H 0.174803 0.985636 0.892406
C23_2 C 0.11367(15) 0.94932(15) 0.86149(11)
C25_2 C 0.03295(15) 0.82060(14) 0.91764(11)
H8_2 H 0.018982 0.821379 0.896434
C26_2 C 0.09120(15) 0.95373(14) 0.83220(11)
H9_2 H 0.062000 0.926857 0.824463
C27_2 C 0.10094(15) 0.85689(15) 0.95814(11)
H10_2 H 0.132036 0.882402 0.964205
C30_2 C 0.07961(15) 0.85921(15) 0.92687(12)
O24_2 O 0.27863(10) 0.71028(13) 0.97067(7)
O29_2 O 0.29004(10) 0.22216(13) 0.95253(7)
O30_2 O 0.24119(10) 0.62798(14) 0.97349(7)
O33_2 O 0.25716(10) 0.20089(13) 0.89895(7)
O37_2 O 0.03992(10) 0.08952(15) 0.77199(8)
N5_2 N 0.09691(13) 0.20339(19) 0.90760(11)
C33_2 C 0.24688(13) 0.66945(18) 0.98178(9)
C34_2 C 0.22046(13) 0.24934(18) 0.97142(10)
H13_2 H 0.246696 0.258153 0.986590
N6_2 N 0.09566(13) 0.18258(19) 0.88027(11)
O42_2 O 0.13195(12) 0.13046(18) 0.73302(12)
C39_2 C 0.00213(14) 0.11361(19) 0.81388(10)
C41_2 C 0.18305(14) 0.25933(20) 0.98030(10)
C48_2 C 0.21861(13) 0.22633(18) 0.94006(10)
C49_2 C 0.25890(12) 0.21564(17) 0.92924(10)
C52_2 C 0.01104(14) 0.17010(21) 0.87291(11)
H17_2 H 0.014364 0.189166 0.892406
C55_2 C 0.05068(15) 0.16434(21) 0.86149(11)
C57_2 C 0.17940(14) 0.21234(21) 0.91764(11)
H20_2 H 0.178621 0.197602 0.896434
C58_2 C 0.04627(14) 0.13746(21) 0.83220(11)
H21_2 H 0.073143 0.135142 0.824463
C59_2 C 0.14311(15) 0.24404(21) 0.95814(11)
H22_2 H 0.117598 0.249633 0.964205
C62_2 C 0.14079(15) 0.22039(21) 0.92687(12)
Ni17_2 Ni 0.34537(3) 0.20507(2) 0.95407(2)
Ni20_2 Ni 0.33431(2) 0.73091(2) 0.93427(2)
Ni22_2 Ni 0.26909(2) 0.60339(3) 0.93427(2)
Ni24_2 Ni 0.39661(3) 0.66569(2) 0.93427(2)
O67_2 O 0.05471(10) 0.95638(13) 0.69599(7)
O68_2 O 0.04362(13) 0.09832(9) 0.69599(7)
O81_2 O 0.09215(10) 0.03868(14) 0.69317(7)
H44_2 H 0.138514 0.406624 0.999594
H54_2 H 0.26811 0.861486 0.999594
H55 H 0.0302329 0.873044 0.723693
O1_4 O 1.000000 0.000000 0.72907(13)
Ni10_2 Ni 0.93673(3) 0.00097(2) 0.73239(2)
O50_2 O 0.77784(13) 0.06787(9) 0.95253(7)
O54_2 O 0.79911(13) 0.05626(9) 0.89895(7)
O63_2 O 0.86954(18) 0.00148(14) 0.73302(12)
C81_2 C 0.78436(17) 0.04325(12) 0.92924(10)
Ni15_2 Ni 0.79493(2) 0.14031(2) 0.95407(2)
O82_2 O 0.96132(14) 0.05346(10) 0.69317(7)
O93_2 O 0.95829(9) 0.05546(13) 0.76978(7)
Ni12_2 Ni 0.69711(3) 0.81532(2) 0.13089(2)
O44_2 O 0.67962(13) 0.83884(9) 0.08770(7)
O48_2 O 0.71268(13) 0.92384(9) 0.03748(7)
O52_2 O 0.56340(14) 0.57879(9) 0.19768(7)
O53_2 O 0.64094(13) 0.74200(9) 0.12866(7)
O55_2 O 0.49853(14) 0.51376(9) 0.17318(8)
O57_2 O 0.60924(15) 0.73402(9) 0.07526(8)
O59_2 O 0.69762(15) 0.85249(10) 0.01361(7)
O61_2 O 0.71696(19) 0.79116(13) 0.17628(9)
O62_2 O 0.62985(21) 0.74858(14) 0.00098(10)
C67_2 C 0.33181(19) 0.54303(13) 0.00893(10)
C68_2 C 0.71440(17) 0.89789(12) 0.01328(9)
C70_2 C 0.29082(19) 0.49691(13) 0.01571(10)
H26_2 H 0.261628 0.486980 0.003623
O64_2 O 0.68545(18) 0.97295(13) 0.08626(10)
C74_2 C 0.61116(18) 0.71889(12) 0.10443(10)
C75_2 C 0.53269(20) 0.59020(13) 0.14434(11)
C76_2 C 0.57073(20) 0.66667(13) 0.11186(10)
C77_2 C 0.57085(21) 0.63855(14) 0.13998(11)
H28_2 H 0.596576 0.652156 0.155968
C78_2 C 0.24970(19) 0.41501(13) 0.04889(10)
N11_2 N 0.41743(22) 0.54199(14) 0.07597(11)
N12_2 N 0.45241(23) 0.58308(14) 0.07002(11)
C82_2 C 0.53127(18) 0.55779(13) 0.17434(9)
C85_2 C 0.29331(19) 0.46559(13) 0.04049(10)
C86_2 C 0.37404(22) 0.55806(14) 0.02789(11)
H30_2 H 0.401596 0.588545 0.023319
C88_2 C 0.49363(23) 0.56952(14) 0.12111(12)
H31_2 H 0.468770 0.536902 0.123504
C92_2 C 0.53160(23) 0.64619(15) 0.08878(12)
H35_2 H 0.531516 0.664323 0.069623
C93_2 C 0.37615(23) 0.52810(15) 0.05402(12)
C95_2 C 0.49232(25) 0.59870(16) 0.09396(13)
C96_2 C 0.33589(21) 0.48174(14) 0.05960(12)
H36_2 H 0.337591 0.461281 0.076417
Ni30_2 Ni 0.57025(2) 0.55522(2) 0.24641(2)
Ni32_2 Ni 0.98497(3) 0.42975(2) 0.24641(2)
Ni38_2 Ni 0.48199(2) 0.45155(2) 0.20244(2)
Ni40_2 Ni 0.96956(3) 0.51801(2) 0.20244(2)
O71_2 O 0.75155(9) 0.93743(9) 0.10840(8)
O74_2 O 0.75738(9) 0.88340(9) 0.14366(7)
O78_2 O 0.70996(10) 0.77784(13) 0.04747(7)
O84_2 O 0.65127(11) 0.89673(14) 0.13565(7)
O87_2 O 0.74284(10) 0.79911(13) 0.10105(7)
O90_2 O 0.65143(11) 0.83186(14) 0.16015(8)
H45_2 H 0.740177 0.820132 0.190373
H46_2 H 0.686987 0.770034 0.190237
H47_2 H 0.640228 0.723484 0.00271933
H49_2 H 0.707543 0.99337 0.0671142
H50_2 H 0.651989 0.968132 0.0824732
Ni2_2 Ni 0.99903(2) 0.93575(2) 0.73239(2)
O1_5 O 1.000000 1.000000 0.72907(13)
O8_2 O 0.93213(9) 0.70996(10) 0.95253(7)
O12_2 O 0.94374(9) 0.74284(10) 0.89895(7)
O21_2 O 0.99852(14) 0.86805(12) 0.73302(12)
C17_2 C 0.95675(12) 0.74110(12) 0.92924(10)
O26_2 O 0.93743(9) 0.18587(13) 0.89160(8)
O28_2 O 0.88340(9) 0.12601(13) 0.85634(7)
C37_2 C 0.92552(12) 0.15378(17) 0.86839(9)
C40_2 C 0.96253(13) 0.11832(18) 0.82550(10)
H15_2 H 0.932636 0.102229 0.813700
C47_2 C 0.96740(13) 0.14702(18) 0.85471(10)
C51_2 C 0.99963(13) 0.08372(18) 0.78235(9)
O45_2 O 0.28972(13) 0.56834(9) 0.97067(7)
O47_2 O 0.81413(13) 0.75155(9) 0.89160(8)
O49_2 O 0.87399(13) 0.75738(9) 0.85634(7)
O51_2 O 0.37202(14) 0.61320(10) 0.97349(7)
O56_2 O 0.94454(13) 0.90282(9) 0.76978(7)
O58_2 O 0.91048(15) 0.95039(11) 0.77199(8)
N9_2 N 0.79661(19) 0.89351(14) 0.90760(11)
C65_2 C 0.33055(18) 0.57742(12) 0.98178(9)
C66_2 C 0.75066(18) 0.97111(13) 0.97142(10)
H25_2 H 0.741847 0.988542 0.986590
N10_2 N 0.81742(19) 0.91307(14) 0.88027(11)
C69_2 C 0.84622(17) 0.77173(12) 0.86839(9)
C71_2 C 0.88639(19) 0.88851(13) 0.81388(10)
C72_2 C 0.88168(18) 0.84420(13) 0.82550(10)
H27_2 H 0.897771 0.830406 0.813700
C73_2 C 0.74067(20) 0.92371(14) 0.98030(10)
C79_2 C 0.85298(18) 0.82037(13) 0.85471(10)
C80_2 C 0.77367(18) 0.99227(13) 0.94006(10)
C83_2 C 0.91628(18) 0.91590(12) 0.78235(9)
C84_2 C 0.82990(21) 0.84093(15) 0.87291(11)
H29_2 H 0.810834 0.825197 0.892406
C87_2 C 0.83566(21) 0.88633(15) 0.86149(11)
C89_2 C 0.78766(21) 0.96705(15) 0.91764(11)
H32_2 H 0.802398 0.981018 0.896434
C90_2 C 0.86254(21) 0.90880(15) 0.83220(11)
H33_2 H 0.864858 0.938000 0.824463
C91_2 C 0.75596(21) 0.89906(15) 0.95814(11)
H34_2 H 0.750367 0.867964 0.964205
C94_2 C 0.77961(21) 0.92039(15) 0.92687(12)
Ni16_2 Ni 0.85969(2) 0.65463(3) 0.95407(2)
O66_2 O 0.90168(9) 0.94529(10) 0.69599(7)
O80_2 O 0.94654(10) 0.90785(10) 0.69317(7)
H48_2 H 0.593376 0.73189 0.999594
H51 H 0.842811 0.969767 0.723693
O3_3 O 0.09832(9) 0.05471(10) 0.30401(7)
O4_3 O 0.26103(9) 0.13701(10) 0.37028(7)
O9_3 O 0.05346(10) 0.09215(10) 0.30683(7)
O10_3 O 0.08787(9) 0.31794(11) 0.53102(7)
O13_3 O 0.15290(9) 0.31810(11) 0.50652(8)
O18_3 O 0.27852(9) 0.20522(10) 0.39981(9)
C1_3 C 0.08924(12) 0.08646(13) 0.31512(9)
C3_3 C 0.12363(13) 0.12211(14) 0.34227(10)
C6_3 C 0.16975(13) 0.12724(14) 0.34905(10)
H2_3 H 0.179686 0.107981 0.336957
C11_3 C 0.07646(13) 0.27582(15) 0.47768(11)
C12_3 C -0.00001(13) 0.23739(15) 0.44520(10)
C13_3 C 0.02811(14) 0.26563(15) 0.47332(11)
H4_3 H 0.014510 0.277753 0.489302
C14_3 C 0.25165(13) 0.16802(14) 0.38223(10)
N3_3 N 0.12467(14) 0.20877(17) 0.40931(11)
N4_3 N 0.08358(14) 0.20266(18) 0.40336(11)
C18_3 C 0.10887(13) 0.30681(13) 0.50768(9)
C21_3 C 0.20107(13) 0.16105(14) 0.37383(10)
C22_3 C 0.10860(14) 0.14931(17) 0.36123(11)
H6_3 H 0.078121 0.146384 0.356653
C24_3 C 0.09714(14) 0.25744(18) 0.45445(12)
H7_3 H 0.129764 0.265201 0.456838
C28_3 C 0.02047(15) 0.21874(18) 0.42212(12)
H11_3 H 0.002343 0.200526 0.402957
C29_3 C 0.13856(15) 0.18138(17) 0.38736(12)
C31_3 C 0.06796(16) 0.22695(19) 0.42730(13)
C32_3 C 0.18492(14) 0.18748(16) 0.39294(12)
H12_3 H 0.205385 0.209643 0.409751
Ni14_3 Ni 0.32129(3) 0.12827(2) 0.37927(2)
Ni20_3 Ni 0.00097(2) 0.06425(2) 0.26761(2)
Ni26_3 Ni 0.34836(3) 0.23692(2) 0.42026(2)
Ni17_3 Ni 0.01204(3) 0.53840(2) 0.28740(2)
Ni24_3 Ni 0.06327(3) 0.99903(2) 0.26761(2)
Ni1_3 Ni 0.87173(2) 0.19303(2) 0.37927(2)
Ni2_3 Ni 0.66569(2) 0.26909(2) 0.06573(2)
Ni3_3 Ni 0.76308(2) 0.11145(2) 0.42026(2)
Ni4_3 Ni 0.85134(2) 0.21512(2) 0.46423(2)
O1_6 O 0.666666 0.333334 0.06241(13)
O2_3 O 0.82782(9) 0.17411(9) 0.42104(7)
O5_3 O 0.91511(9) 0.39591(9) 0.22494(8)
O6_3 O 0.74282(9) 0.12217(10) 0.37082(7)
O7_3 O 0.90928(9) 0.44994(9) 0.18968(7)
O8_3 O 0.59879(9) 0.04330(10) 0.28587(7)
O11_3 O 0.92466(9) 0.23227(10) 0.46200(7)
O12_3 O 0.61040(9) 0.07618(10) 0.23229(7)
O14_3 O 0.76384(9) 0.37505(9) 0.10312(7)
O15_3 O 0.93264(9) 0.20855(12) 0.40860(8)
O16_3 O 0.71627(11) 0.29342(10) 0.10533(8)
O17_3 O 0.81417(10) 0.17846(11) 0.34695(7)
N1_3 N 0.77315(14) 0.23643(13) 0.24094(11)
O19_3 O 0.87550(13) 0.25913(14) 0.50962(9)
O20_3 O 0.91808(14) 0.21460(15) 0.33432(10)
C2_3 C 0.69555(13) 0.11288(13) 0.30476(10)
H1_3 H 0.678124 0.086638 0.319924
N2_3 N 0.75359(14) 0.23768(13) 0.21361(11)
C4_3 C 0.76877(12) 0.14984(12) 0.34662(9)
C5_3 C 0.89493(12) 0.40782(12) 0.20173(9)
O21_3 O 0.66518(14) 0.20139(12) 0.06636(12)
C7_3 C 0.77815(13) 0.33121(14) 0.14722(10)
O22_3 O 0.69371(13) 0.04583(13) 0.41960(10)
C8_3 C 0.82246(13) 0.37081(13) 0.15884(10)
H3_3 H 0.836260 0.400698 0.147034
C9_3 C 0.74295(14) 0.15029(14) 0.31364(10)
C10_3 C 0.94777(12) 0.22560(13) 0.43777(10)
C12_4 C 0.99999(13) 0.23739(15) 0.44520(10)
C15_3 C 0.84629(13) 0.36594(13) 0.18805(10)
C16_3 C 0.67439(13) 0.11473(13) 0.27340(10)
C17_3 C 0.62341(12) 0.07444(12) 0.26258(10)
C19_3 C 0.75076(12) 0.33371(13) 0.11569(9)
C20_3 C 0.82573(15) 0.32230(14) 0.20625(11)
H5_3 H 0.841469 0.318970 0.225740
C23_3 C 0.78033(15) 0.28266(15) 0.19483(11)
C25_3 C 0.69961(15) 0.15394(14) 0.25098(11)
H8_3 H 0.685648 0.154713 0.229768
C26_3 C 0.75786(15) 0.28707(14) 0.16554(11)
H9_3 H 0.728666 0.260191 0.157797
C27_3 C 0.76760(15) 0.19023(15) 0.29148(11)
H10_3 H 0.798702 0.215736 0.297539
C30_3 C 0.74627(15) 0.19255(15) 0.26021(12)
O24_3 O 0.94529(10) 0.04362(13) 0.30401(7)
O25_3 O 0.86299(10) 0.12403(13) 0.37028(7)
O39_3 O 0.79478(10) 0.07331(13) 0.39981(9)
C33_3 C 0.91354(13) 0.00279(18) 0.31512(9)
C35_3 C 0.87789(14) 0.00153(19) 0.34227(10)
C38_3 C 0.87276(14) 0.04252(19) 0.34905(10)
H14_3 H 0.892019 0.071706 0.336957
C46_3 C 0.83198(14) 0.08364(19) 0.38223(10)
C53_3 C 0.83895(14) 0.04003(19) 0.37383(10)
Ni10_3 Ni 0.60339(3) 0.33431(2) 0.06573(2)
Ni12_3 Ni 0.36377(3) 0.14866(2) 0.46423(2)
O44_3 O 0.34628(13) 0.17218(9) 0.42104(7)
O47_3 O 0.48079(13) 0.08489(9) 0.22494(8)
O48_3 O 0.37934(13) 0.25718(9) 0.37082(7)
O49_3 O 0.54065(13) 0.09072(9) 0.18968(7)
O50_3 O 0.44450(13) 0.40121(9) 0.28587(7)
O53_3 O 0.30760(13) 0.07534(9) 0.46200(7)
O54_3 O 0.46577(13) 0.38960(9) 0.23229(7)
O56_3 O 0.61120(13) 0.23616(9) 0.10312(7)
O57_3 O 0.27590(15) 0.06736(9) 0.40860(8)
O58_3 O 0.57714(15) 0.28373(11) 0.10533(8)
O59_3 O 0.36428(15) 0.18583(10) 0.34695(7)
N9_3 N 0.46327(19) 0.22685(14) 0.24094(11)
O61_3 O 0.38362(19) 0.12450(13) 0.50962(9)
O62_3 O 0.29651(21) 0.08192(14) 0.33432(10)
C66_3 C 0.41732(18) 0.30445(13) 0.30476(10)
H25_3 H 0.408513 0.321876 0.319924
N10_3 N 0.48408(19) 0.24641(14) 0.21361(11)
C68_3 C 0.38106(17) 0.23123(12) 0.34662(9)
C69_3 C 0.51288(17) 0.10507(12) 0.20173(9)
O63_3 O 0.53620(18) 0.33482(14) 0.06636(12)
C71_3 C 0.55305(19) 0.22185(13) 0.14722(10)
O64_3 O 0.35211(18) 0.30629(13) 0.41960(10)
C72_3 C 0.54834(18) 0.17754(13) 0.15884(10)
H27_3 H 0.564437 0.163740 0.147034
C73_3 C 0.40733(20) 0.25705(14) 0.31364(10)
C74_3 C 0.27782(18) 0.05223(12) 0.43777(10)
C76_3 C 0.23739(20) 0.00001(13) 0.44520(10)
C79_3 C 0.51964(18) 0.15371(13) 0.18805(10)
C80_3 C 0.44033(18) 0.32561(13) 0.27340(10)
C81_3 C 0.45102(17) 0.37659(12) 0.26258(10)
C83_3 C 0.58294(18) 0.24924(12) 0.11569(9)
C84_3 C 0.49656(21) 0.17427(15) 0.20625(11)
H29_3 H 0.477500 0.158531 0.225740
C87_3 C 0.50232(21) 0.21967(15) 0.19483(11)
C89_3 C 0.45432(21) 0.30039(15) 0.25098(11)
H32_3 H 0.469064 0.314352 0.229768
C90_3 C 0.52920(21) 0.24214(15) 0.16554(11)
H33_3 H 0.531524 0.271334 0.157797
C91_3 C 0.42262(21) 0.23240(15) 0.29148(11)
H34_3 H 0.417033 0.201298 0.297539
C94_3 C 0.44627(21) 0.25373(15) 0.26021(12)
Ni15_3 Ni 0.46160(2) 0.47364(2) 0.28740(2)
Ni18_3 Ni 0.73091(2) 0.39661(3) 0.06573(2)
O66_3 O 0.56834(9) 0.27863(10) 0.02933(7)
O67_3 O 0.72137(10) 0.28972(13) 0.02933(7)
O71_3 O 0.41822(9) 0.27076(9) 0.44173(8)
O72_3 O 0.72924(9) 0.14746(13) 0.44173(8)
O74_3 O 0.42405(9) 0.21673(9) 0.47699(7)
O75_3 O 0.78327(9) 0.20732(13) 0.47699(7)
O78_3 O 0.37663(10) 0.11117(13) 0.38080(7)
O79_3 O 0.88883(13) 0.26546(9) 0.38080(7)
O80_3 O 0.61320(10) 0.24119(10) 0.02651(7)
O82_3 O 0.62798(14) 0.38680(10) 0.02651(7)
O84_3 O 0.31794(11) 0.23006(14) 0.46898(7)
O85_3 O 0.76994(14) 0.08787(9) 0.46898(7)
O87_3 O 0.40951(10) 0.13244(13) 0.43438(7)
O88_3 O 0.86756(13) 0.27707(9) 0.43438(7)
O90_3 O 0.31810(11) 0.16519(14) 0.49348(8)
O91_3 O 0.83481(14) 0.15290(9) 0.49348(8)
O93_3 O 0.62495(9) 0.38880(13) 0.10312(7)
H45_3 H 0.406843 0.153465 0.523706
H46_3 H 0.353654 0.103367 0.52357
H47_3 H 0.306895 0.0568168 0.336053
H48_3 H 0.260042 0.0652233 0.332927
H49_3 H 0.37421 0.326703 0.400447
H50_3 H 0.318656 0.301465 0.415807
H53_3 H 0.943183 0.250078 0.336053
H54_3 H 0.934777 0.194819 0.332927
H57_3 H 0.846535 0.253378 0.523706
H58_3 H 0.896633 0.250287 0.52357
H59_3 H 0.673297 0.0475071 0.400447
H60_3 H 0.698535 0.0171901 0.415807
Ni5_3 Ni 0.80697(2) 0.67871(3) 0.37927(2)
Ni7_3 Ni 0.88855(2) 0.65164(3) 0.42026(2)
Ni8_3 Ni 0.78488(2) 0.63623(3) 0.46423(2)
O23_3 O 0.82589(9) 0.65372(13) 0.42104(7)
O26_3 O 0.60409(9) 0.51921(13) 0.22494(8)
O27_3 O 0.87783(10) 0.62066(13) 0.37082(7)
O28_3 O 0.55006(9) 0.45935(13) 0.18968(7)
O29_3 O 0.95670(10) 0.55550(13) 0.28587(7)
O30_3 O 0.90785(10) 0.96132(14) 0.30683(7)
O31_3 O 0.68206(11) 0.76994(14) 0.53102(7)
O32_3 O 0.76773(10) 0.69240(13) 0.46200(7)
O33_3 O 0.92382(10) 0.53423(13) 0.23229(7)
O34_3 O 0.68190(11) 0.83481(14) 0.50652(8)
O36_3 O 0.79145(12) 0.72410(15) 0.40860(8)
O37_3 O 0.70658(10) 0.42286(15) 0.10533(8)
O38_3 O 0.82154(11) 0.63572(15) 0.34695(7)
N5_3 N 0.76357(13) 0.53673(19) 0.24094(11)
O40_3 O 0.74087(14) 0.61638(19) 0.50962(9)
O41_3 O 0.78540(15) 0.70349(21) 0.33432(10)
C34_3 C 0.88712(13) 0.58268(18) 0.30476(10)
H13_3 H 0.913362 0.591487 0.319924
N6_3 N 0.76232(13) 0.51592(19) 0.21361(11)
C36_3 C 0.85016(12) 0.61894(17) 0.34662(9)
C37_3 C 0.59218(12) 0.48712(17) 0.20173(9)
O42_3 O 0.79861(12) 0.46380(18) 0.06636(12)
C39_3 C 0.66879(14) 0.44695(19) 0.14722(10)
O43_3 O 0.95417(13) 0.64789(18) 0.41960(10)
C40_3 C 0.62919(13) 0.45166(18) 0.15884(10)
H15_3 H 0.599302 0.435563 0.147034
C41_3 C 0.84971(14) 0.59267(20) 0.31364(10)
C42_3 C 0.77440(13) 0.72218(18) 0.43777(10)
C43_3 C 0.72418(15) 0.80065(20) 0.47768(11)
C44_3 C 0.76261(15) 0.76261(20) 0.44520(10)
C45_3 C 0.73437(15) 0.76249(21) 0.47332(11)
H16_3 H 0.722247 0.736758 0.489302
N7_3 N 0.79123(17) 0.91591(22) 0.40931(11)
C47_3 C 0.63406(13) 0.48036(18) 0.18805(10)
N8_3 N 0.79734(18) 0.88093(23) 0.40336(11)
C48_3 C 0.88527(13) 0.55967(18) 0.27340(10)
C49_3 C 0.92556(12) 0.54898(17) 0.26258(10)
C50_3 C 0.69319(13) 0.80207(18) 0.50768(9)
C51_3 C 0.66629(13) 0.41706(18) 0.11569(9)
C52_3 C 0.67770(14) 0.50344(21) 0.20625(11)
H17_3 H 0.681030 0.522500 0.225740
C54_3 C 0.85069(17) 0.95930(22) 0.36123(11)
H18_3 H 0.853616 0.931738 0.356653
C55_3 C 0.71734(15) 0.49768(21) 0.19483(11)
C56_3 C 0.74256(18) 0.83971(23) 0.45445(12)
H19_3 H 0.734799 0.864564 0.456838
C57_3 C 0.84606(14) 0.54568(21) 0.25098(11)
H20_3 H 0.845287 0.530936 0.229768
C58_3 C 0.71293(14) 0.47080(21) 0.16554(11)
H21_3 H 0.739809 0.468476 0.157797
C59_3 C 0.80977(15) 0.57738(21) 0.29148(11)
H22_3 H 0.784264 0.582967 0.297539
C60_3 C 0.78126(18) 0.80174(23) 0.42212(12)
H23_3 H 0.799474 0.801818 0.402957
C61_3 C 0.81862(17) 0.95719(23) 0.38736(12)
C62_3 C 0.80745(15) 0.55373(21) 0.26021(12)
C63_3 C 0.77305(19) 0.84102(25) 0.42730(13)
C64_3 C 0.81252(16) 0.99745(21) 0.39294(12)
H24_3 H 0.790357 0.995743 0.409751
O51_3 O 0.03868(14) 0.94654(10) 0.30683(7)
O52_3 O 0.23006(14) 0.91213(9) 0.53102(7)
O55_3 O 0.16519(14) 0.84710(9) 0.50652(8)
C75_3 C 0.19935(20) 0.92354(13) 0.47768(11)
C76_4 C 0.23739(20) 1.00001(13) 0.44520(10)
C77_3 C 0.23751(21) 0.97189(14) 0.47332(11)
H28_3 H 0.263242 0.985490 0.489302
N11_3 N 0.08409(22) 0.87533(14) 0.40931(11)
N12_3 N 0.11907(23) 0.91642(14) 0.40336(11)
C82_3 C 0.19793(18) 0.89113(13) 0.50768(9)
C86_3 C 0.04070(22) 0.89140(14) 0.36123(11)
H30_3 H 0.068262 0.921879 0.356653
C88_3 C 0.16029(23) 0.90286(14) 0.45445(12)
H31_3 H 0.135436 0.870236 0.456838
C92_3 C 0.19826(23) 0.97953(15) 0.42212(12)
H35_3 H 0.198182 0.997657 0.402957
C93_3 C 0.04281(23) 0.86144(15) 0.38736(12)
C95_3 C 0.15898(25) 0.93204(16) 0.42730(13)
C96_3 C 0.00255(21) 0.81508(14) 0.39294(12)
H36_3 H 0.004257 0.794615 0.409751
Ni16_3 Ni 0.52636(2) 0.98796(3) 0.28740(2)
Ni22_3 Ni 0.93575(2) 0.93673(3) 0.26761(2)
O68_3 O 0.71028(13) 0.43166(9) 0.02933(7)
O70_3 O 0.87597(13) 0.73897(9) 0.37028(7)
O73_3 O 0.85254(13) 0.58178(9) 0.44173(8)
O76_3 O 0.79268(13) 0.57595(9) 0.47699(7)
O77_3 O 0.73454(9) 0.62337(10) 0.38080(7)
O81_3 O 0.75881(10) 0.37202(14) 0.02651(7)
O83_3 O 0.91213(9) 0.68206(11) 0.46898(7)
O86_3 O 0.72293(9) 0.59049(10) 0.43438(7)
O89_3 O 0.84710(9) 0.68190(11) 0.49348(8)
O95_3 O 0.92669(13) 0.72148(9) 0.39981(9)
H37_3 H 0.746622 0.593157 0.523706
H38_3 H 0.749713 0.646346 0.52357
H41_3 H 0.952493 0.62579 0.400447
H42_3 H 0.98281 0.681344 0.415807
H43_3 H 0.749922 0.693105 0.336053
H44_3 H 0.805181 0.739958 0.332927
O45_3 O 0.95638(13) 0.90168(9) 0.30401(7)
C65_3 C 0.99721(18) 0.91076(12) 0.31512(9)
C67_3 C 0.99847(19) 0.87637(13) 0.34227(10)
C70_3 C 0.95748(19) 0.83025(13) 0.34905(10)
H26_3 H 0.928294 0.820314 0.336957
C78_3 C 0.91636(19) 0.74835(13) 0.38223(10)
C85_3 C 0.95997(19) 0.79893(13) 0.37383(10)
O46 O 0.45736(13) 0.92770(9) 0.29639(7)
O53_4 O 0.02573(13) 0.59133(9) 0.20467(7)
O57_4 O 0.05743(15) 0.59931(9) 0.25807(8)
O60 O 0.40664(13) 0.94519(9) 0.26686(9)
C65_4 C 0.33612(18) 0.75591(12) 0.35155(9)
O62_4 O 0.03682(21) 0.58475(14) 0.33235(10)
C67_4 C 0.33486(19) 0.79030(13) 0.32440(10)
C70_4 C 0.37585(19) 0.83642(13) 0.31762(10)
H26_4 H 0.405039 0.846353 0.329710
C74_4 C 0.05551(18) 0.61444(12) 0.22890(10)
C75_4 C 0.13398(20) 0.74313(13) 0.18899(11)
C76_5 C 0.09594(20) 0.66666(13) 0.22147(10)
C77_4 C 0.09582(21) 0.69478(14) 0.19335(11)
H28_4 H 0.070091 0.681177 0.177365
C78_4 C 0.41697(19) 0.91832(13) 0.28444(10)
N11_4 N 0.24924(22) 0.79134(14) 0.25736(11)
N12_4 N 0.21426(23) 0.75025(14) 0.26331(11)
C82_4 C 0.13540(18) 0.77554(13) 0.15899(9)
C85_4 C 0.37336(19) 0.86774(13) 0.29284(10)
C86_4 C 0.29263(22) 0.77527(14) 0.30544(11)
H30_4 H 0.265071 0.744788 0.310014
C88_4 C 0.17304(23) 0.76381(14) 0.21222(12)
H31_4 H 0.197897 0.796431 0.209829
C92_4 C 0.13507(23) 0.68714(15) 0.24455(12)
H35_4 H 0.135151 0.669010 0.263710
C93_4 C 0.29052(23) 0.80523(15) 0.27931(12)
C95_4 C 0.17435(25) 0.73463(16) 0.23937(13)
C96_4 C 0.33078(21) 0.85159(14) 0.27373(12)
H36_4 H 0.329076 0.872052 0.256916
O69 O 0.07230(9) 0.52966(10) 0.29639(7)
O94 O 0.05481(9) 0.46145(10) 0.26686(9)
H47_4 H 0.0264385 0.60985 0.330614
H48_4 H 0.0732909 0.601443 0.333739
H50_4 H 0.0146777 0.365201 0.25086
O23_4 O 0.50744(9) 0.01295(13) 0.24563(7)
O27_4 O 0.45550(10) 0.04601(13) 0.29585(7)
O35 O 0.70838(9) 0.27787(13) 0.56355(7)
O37_4 O 0.62675(10) 0.24381(15) 0.56134(8)
O38_4 O 0.51179(11) 0.03095(15) 0.31972(7)
N5_4 N 0.56976(13) 0.12994(19) 0.42573(11)
O40_4 O 0.59246(14) 0.05029(19) 0.15705(9)
C34_4 C 0.44621(13) 0.08399(18) 0.36191(10)
H13_4 H 0.419971 0.075180 0.346743
N6_4 N 0.57101(13) 0.15075(19) 0.45306(11)
C36_4 C 0.48317(12) 0.04773(17) 0.32005(9)
C37_4 C 0.74115(12) 0.17955(17) 0.46494(9)
O42_4 O 0.53472(12) 0.20287(18) 0.60031(12)
C39_4 C 0.66454(14) 0.21972(19) 0.51945(10)
O43_4 O 0.37916(13) 0.01878(18) 0.24707(10)
C40_4 C 0.70414(13) 0.21501(18) 0.50783(10)
H15_4 H 0.734031 0.231104 0.519633
C41_4 C 0.48362(14) 0.07400(20) 0.35303(10)
C47_4 C 0.69927(13) 0.18631(18) 0.47862(10)
C48_4 C 0.44806(13) 0.10700(18) 0.39327(10)
C49_4 C 0.40777(12) 0.11769(17) 0.40409(10)
C51_4 C 0.66704(13) 0.24961(18) 0.55098(9)
C52_4 C 0.65563(14) 0.16323(21) 0.46042(11)
H17_4 H 0.652303 0.144167 0.440927
C55_4 C 0.61599(15) 0.16899(21) 0.47184(11)
C57_4 C 0.48727(14) 0.12099(21) 0.41569(11)
H20_4 H 0.488046 0.135731 0.436899
C58_4 C 0.62040(14) 0.19587(21) 0.50113(11)
H21_4 H 0.593524 0.198191 0.508870
C59_4 C 0.52356(15) 0.08929(21) 0.37519(11)
H22_4 H 0.549069 0.083700 0.369128
C62_4 C 0.52588(15) 0.11294(21) 0.40646(12)
O65 O 0.666667 0.333333 0.60426(13)
O92 O 0.56949(9) 0.29162(9) 0.56355(7)
H37_4 H 0.586712 0.0735101 0.14296
H38_4 H 0.58362 0.0203202 0.143096
H41_4 H 0.38084 0.0408767 0.266219
O2_4 O 0.50551(9) 0.49256(9) 0.24563(7)
O6_4 O 0.59051(9) 0.54450(10) 0.29585(7)
O11_4 O 0.40867(9) 0.43440(10) 0.20467(7)
O15_4 O 0.40069(9) 0.45812(12) 0.25807(8)
O16_4 O 0.61706(11) 0.37325(10) 0.56134(8)
O17_4 O 0.51916(10) 0.48821(11) 0.31972(7)
N1_4 N 0.56018(14) 0.43024(13) 0.42573(11)
O19_4 O 0.45783(13) 0.40754(14) 0.15705(9)
C1_4 C 0.24409(12) 0.58021(13) 0.35155(9)
O20_4 O 0.41525(14) 0.45207(15) 0.33235(10)
C2_4 C 0.63778(13) 0.55379(13) 0.36191(10)
H1_4 H 0.655209 0.580029 0.346743
C3_4 C 0.20970(13) 0.54456(14) 0.32440(10)
N2_4 N 0.57974(14) 0.42899(13) 0.45306(11)
C4_4 C 0.56456(12) 0.51683(12) 0.32005(9)
C5_4 C 0.43840(12) 0.25885(12) 0.46494(9)
O21_4 O 0.66815(14) 0.46528(12) 0.60031(12)
C6_4 C 0.16358(13) 0.53943(14) 0.31762(10)
H2_4 H 0.153647 0.558686 0.329710
C7_4 C 0.55518(13) 0.33546(14) 0.51945(10)
O22_4 O 0.63962(13) 0.62084(13) 0.24707(10)
C8_4 C 0.51087(13) 0.29586(13) 0.50783(10)
H3_4 H 0.497073 0.265969 0.519633
C9_4 C 0.59038(14) 0.51638(14) 0.35303(10)
C10_4 C 0.38556(12) 0.44107(13) 0.22890(10)
C11_4 C 0.25687(13) 0.39085(15) 0.18899(11)
C12_5 C 0.33334(13) 0.42928(15) 0.22147(10)
C13_4 C 0.30522(14) 0.40104(15) 0.19335(11)
H4_4 H 0.318823 0.388914 0.177365
C14_4 C 0.08168(13) 0.49865(14) 0.28444(10)
N3_4 N 0.20866(14) 0.45790(17) 0.25736(11)
C15_4 C 0.48704(13) 0.30073(13) 0.47862(10)
N4_4 N 0.24975(14) 0.46401(18) 0.26331(11)
C16_4 C 0.65894(13) 0.55194(13) 0.39327(10)
C17_4 C 0.70992(12) 0.59223(12) 0.40409(10)
C18_4 C 0.22446(13) 0.35986(13) 0.15899(9)
C19_4 C 0.58257(12) 0.33296(13) 0.55098(9)
C20_4 C 0.50760(15) 0.34437(14) 0.46042(11)
H5_4 H 0.491864 0.347697 0.440927
C21_4 C 0.13226(13) 0.50562(14) 0.29284(10)
C22_4 C 0.22473(14) 0.51736(17) 0.30544(11)
H6_4 H 0.255212 0.520283 0.310014
C23_4 C 0.55300(15) 0.38401(15) 0.47184(11)
C24_4 C 0.23619(14) 0.40923(18) 0.21222(12)
H7_4 H 0.203569 0.401466 0.209829
C25_4 C 0.63372(15) 0.51273(14) 0.41569(11)
H8_4 H 0.647685 0.511954 0.436899
C26_4 C 0.57547(15) 0.37960(14) 0.50113(11)
H9_4 H 0.604667 0.406476 0.508870
C27_4 C 0.56573(15) 0.47644(15) 0.37519(11)
H10_4 H 0.534631 0.450931 0.369128
C28_4 C 0.31286(15) 0.44793(18) 0.24455(12)
H11_4 H 0.330990 0.466141 0.263710
C29_4 C 0.19477(15) 0.48529(17) 0.27931(12)
C30_4 C 0.58706(15) 0.47412(15) 0.40646(12)
C31_4 C 0.26537(16) 0.43972(19) 0.23937(13)
C32_4 C 0.14841(14) 0.47919(16) 0.27373(12)
H12_4 H 0.127948 0.457024 0.256916
O25_4 O 0.47034(10) 0.54264(13) 0.29639(7)
O32_4 O 0.56560(10) 0.97427(13) 0.20467(7)
O36_4 O 0.54188(12) 0.94257(15) 0.25807(8)
O39_4 O 0.53855(10) 0.59336(13) 0.26686(9)
C33_4 C 0.41979(13) 0.66388(18) 0.35155(9)
O41_4 O 0.54793(15) 0.96318(21) 0.33235(10)
C35_4 C 0.45544(14) 0.66514(19) 0.32440(10)
C38_4 C 0.46057(14) 0.62415(19) 0.31762(10)
H14_4 H 0.441314 0.594961 0.329710
C42_4 C 0.55893(13) 0.94449(18) 0.22890(10)
C43_4 C 0.60915(15) 0.86602(20) 0.18899(11)
C44_4 C 0.57072(15) 0.90406(20) 0.22147(10)
C45_4 C 0.59896(15) 0.90418(21) 0.19335(11)
H16_4 H 0.611086 0.929909 0.177365
C46_4 C 0.50135(14) 0.58303(19) 0.28444(10)
N7_4 N 0.54210(17) 0.75076(22) 0.25736(11)
N8_4 N 0.53599(18) 0.78574(23) 0.26331(11)
C50_4 C 0.64014(13) 0.86460(18) 0.15899(9)
C53_4 C 0.49438(14) 0.62664(19) 0.29284(10)
C54_4 C 0.48264(17) 0.70737(22) 0.30544(11)
H18_4 H 0.479717 0.734929 0.310014
C56_4 C 0.59077(18) 0.82696(23) 0.21222(12)
H19_4 H 0.598534 0.802103 0.209829
C60_4 C 0.55207(18) 0.86493(23) 0.24455(12)
H23_4 H 0.533859 0.864849 0.263710
C61_4 C 0.51471(17) 0.70948(23) 0.27931(12)
C63_4 C 0.56028(19) 0.82565(25) 0.23937(13)
C64_4 C 0.52081(16) 0.66922(21) 0.27373(12)
H24_4 H 0.542976 0.670924 0.256916
O44_4 O 0.98705(13) 0.49449(9) 0.24563(7)
O48_4 O 0.95399(13) 0.40949(9) 0.29585(7)
O56_4 O 0.72213(13) 0.43051(9) 0.56355(7)
O58_4 O 0.75619(15) 0.38294(11) 0.56134(8)
O59_4 O 0.96905(15) 0.48084(10) 0.31972(7)
N9_4 N 0.87006(19) 0.43982(14) 0.42573(11)
O61_4 O 0.94971(19) 0.54217(13) 0.15705(9)
C66_4 C 0.91601(18) 0.36222(13) 0.36191(10)
H25_4 H 0.924820 0.344791 0.346743
N10_4 N 0.84925(19) 0.42026(14) 0.45306(11)
C68_4 C 0.95227(17) 0.43544(12) 0.32005(9)
C69_4 C 0.82045(17) 0.56160(12) 0.46494(9)
O63_4 O 0.79713(18) 0.33185(14) 0.60031(12)
C71_4 C 0.78028(19) 0.44482(13) 0.51945(10)
O64_4 O 0.98122(18) 0.36038(13) 0.24707(10)
C72_4 C 0.78499(18) 0.48913(13) 0.50783(10)
H27_4 H 0.768896 0.502927 0.519633
C73_4 C 0.92600(20) 0.40962(14) 0.35303(10)
C79_4 C 0.81369(18) 0.51296(13) 0.47862(10)
C80_4 C 0.89300(18) 0.34106(13) 0.39327(10)
C81_4 C 0.88231(17) 0.29008(12) 0.40409(10)
C83_4 C 0.75039(18) 0.41743(12) 0.55098(9)
C84_4 C 0.83677(21) 0.49240(15) 0.46042(11)
H29_4 H 0.855833 0.508136 0.440927
C87_4 C 0.83101(21) 0.44700(15) 0.47184(11)
C89_4 C 0.87901(21) 0.36628(15) 0.41569(11)
H32_4 H 0.864269 0.352315 0.436899
C90_4 C 0.80413(21) 0.42453(15) 0.50113(11)
H33_4 H 0.801809 0.395333 0.508870
C91_4 C 0.91071(21) 0.43427(15) 0.37519(11)
H34_4 H 0.916300 0.465369 0.369128
C94_4 C 0.88706(21) 0.41294(15) 0.40646(12)
H42_4 H 0.350523 0.985322 0.25086
H43_4 H 0.583411 0.973561 0.330614
H44_4 H 0.528152 0.926709 0.333739
H45_4 H 0.92649 0.513202 0.14296
H46_4 H 0.97968 0.5633 0.143096
H49_4 H 0.959123 0.339964 0.266219
H53_4 H 0.39015 0.416589 0.330614
H54_4 H 0.398557 0.471848 0.333739
H57_4 H 0.486798 0.413288 0.14296
H58_4 H 0.4367 0.41638 0.143096
H59_4 H 0.660036 0.61916 0.266219
H60_4 H 0.634799 0.649477 0.25086
O65_2 O 0.000000 -0.000000 0.27093(13)
O21_5 O 0.00148(14) 0.13195(12) 0.26698(12)
C17_5 C 0.04325(12) 0.25890(12) 0.07076(10)
O35_2 O 0.04171(9) 0.94454(13) 0.23022(7)
C37_5 C 0.07448(12) 0.84622(17) 0.13161(9)
C40_5 C 0.03747(13) 0.88168(18) 0.17450(10)
H15_5 H 0.067364 0.897771 0.186300
C47_5 C 0.03260(13) 0.85298(18) 0.14529(10)
C51_5 C 0.00037(13) 0.91628(18) 0.21765(9)
O56_5 O 0.05546(13) 0.09718(9) 0.23022(7)
O58_5 O 0.08952(15) 0.04961(11) 0.22801(8)
N9_5 N 0.20339(19) 0.10649(14) 0.09240(11)
C65_5 C 0.66945(18) 0.42258(12) 0.01822(9)
C66_5 C 0.24934(18) 0.02889(13) 0.02858(10)
H25_5 H 0.258153 0.011458 0.013410
N10_5 N 0.18258(19) 0.08693(14) 0.11973(11)
C69_5 C 0.15378(17) 0.22827(12) 0.13161(9)
C71_5 C 0.11361(19) 0.11149(13) 0.18612(10)
C72_5 C 0.11832(18) 0.15580(13) 0.17450(10)
H27_5 H 0.102229 0.169594 0.186300
C73_5 C 0.25933(20) 0.07629(14) 0.01970(10)
C79_5 C 0.14702(18) 0.17963(13) 0.14529(10)
C80_5 C 0.22633(18) 0.00773(13) 0.05994(10)
C83_5 C 0.08372(18) 0.08410(12) 0.21765(9)
C84_5 C 0.17010(21) 0.15907(15) 0.12709(11)
H29_5 H 0.189166 0.174803 0.107594
C87_5 C 0.16434(21) 0.11367(15) 0.13851(11)
C89_5 C 0.21234(21) 0.03295(15) 0.08236(11)
H32_5 H 0.197602 0.018982 0.103566
C90_5 C 0.13746(21) 0.09120(15) 0.16780(11)
H33_5 H 0.135142 0.062000 0.175537
C91_5 C 0.24404(21) 0.10094(15) 0.04186(11)
H34_5 H 0.249633 0.132036 0.035795
C94_5 C 0.22039(21) 0.07961(15) 0.07313(12)
O65_3 O 0.000000 1.000000 0.27093(13)
H48_5 H 0.406624 0.26811 0.000405914
H51_2 H 0.157189 0.030233 0.276307
O44_5 O 0.32038(13) 0.16116(9) 0.91230(7)
O46_2 O 0.79069(13) 0.59437(9) 0.96306(7)
O48_5 O 0.28732(13) 0.07616(9) 0.96252(7)
O53_5 O 0.35906(13) 0.25800(9) 0.87134(7)
O57_5 O 0.39076(15) 0.26598(9) 0.92474(8)
O59_5 O 0.30238(15) 0.14751(10) 0.98639(7)
O60_2 O 0.73997(13) 0.61186(9) 0.93353(9)
O61_5 O 0.28304(19) 0.20884(13) 0.82372(9)
O62_5 O 0.37015(21) 0.25142(14) 0.99902(10)
C67_5 C 0.66819(19) 0.45697(13) 0.99107(10)
C68_5 C 0.28560(17) 0.10211(12) 0.98672(9)
C70_5 C 0.70918(19) 0.50309(13) 0.98429(10)
H26_5 H 0.738372 0.513020 0.996377
O64_5 O 0.31455(18) 0.02705(13) 0.91374(10)
C74_5 C 0.38884(18) 0.28111(12) 0.89557(10)
C75_5 C 0.46731(20) 0.40980(13) 0.85566(11)
C76_6 C 0.42927(20) 0.33333(13) 0.88814(10)
C77_5 C 0.42915(21) 0.36145(14) 0.86002(11)
H28_5 H 0.403424 0.347844 0.844032
C78_5 C 0.75030(19) 0.58499(13) 0.95111(10)
N11_5 N 0.58257(22) 0.45801(14) 0.92403(11)
N12_5 N 0.54759(23) 0.41692(14) 0.92998(11)
C82_5 C 0.46873(18) 0.44221(13) 0.82566(9)
C85_5 C 0.70669(19) 0.53441(13) 0.95951(10)
C86_5 C 0.62596(22) 0.44194(14) 0.97211(11)
H30_5 H 0.598404 0.411455 0.976681
C88_5 C 0.50637(23) 0.43048(14) 0.87889(12)
H31_5 H 0.531230 0.463098 0.876496
C92_5 C 0.46840(23) 0.35381(15) 0.91122(12)
H35_5 H 0.468484 0.335677 0.930377
C93_5 C 0.62385(23) 0.47190(15) 0.94598(12)
C95_5 C 0.50768(25) 0.40130(16) 0.90604(13)
C96_5 C 0.66411(21) 0.51826(14) 0.94040(12)
H36_5 H 0.662409 0.538719 0.923583
O69_2 O 0.40563(9) 0.19633(10) 0.96306(7)
O94_2 O 0.38814(9) 0.12812(10) 0.93353(9)
H45_5 H 0.259823 0.179868 0.809627
H46_5 H 0.313013 0.229966 0.809763
H47_5 H 0.359772 0.276516 0.997281
H49_5 H 0.292457 0.00663042 0.932886
H50_5 H 0.348011 0.0318679 0.917527
O63_5 O 0.13046(18) 0.99852(14) 0.26698(12)
C81_5 C 0.21564(17) 0.95675(12) 0.07076(10)
O65_4 O 1.000000 -0.000000 0.27093(13)
O16_5 O 0.95039(11) 0.03992(10) 0.22801(8)
N1_5 N 0.89351(14) 0.09691(13) 0.09240(11)
C1_5 C 0.57742(12) 0.24688(13) 0.01822(9)
C2_5 C 0.97111(13) 0.22046(13) 0.02858(10)
H1_5 H 0.988542 0.246696 0.013410
N2_5 N 0.91307(14) 0.09566(13) 0.11973(11)
C7_5 C 0.88851(13) 0.00213(14) 0.18612(10)
C9_5 C 0.92371(14) 0.18305(14) 0.01970(10)
C16_5 C 0.99227(13) 0.21861(13) 0.05994(10)
C20_5 C 0.84093(15) 0.01104(14) 0.12709(11)
H5_5 H 0.825197 0.014364 0.107594
C23_5 C 0.88633(15) 0.05068(15) 0.13851(11)
C25_5 C 0.96705(15) 0.17940(14) 0.08236(11)
H8_5 H 0.981018 0.178621 0.103566
C26_5 C 0.90880(15) 0.04627(14) 0.16780(11)
H9_5 H 0.938000 0.073143 0.175537
C27_5 C 0.89906(15) 0.14311(15) 0.04186(11)
H10_5 H 0.867964 0.117598 0.035795
C30_5 C 0.92039(15) 0.14079(15) 0.07313(12)
O37_5 O 0.96008(10) 0.91048(15) 0.22801(8)
N5_5 N 0.90309(13) 0.79661(19) 0.09240(11)
C33_5 C 0.75312(13) 0.33055(18) 0.01822(9)
C34_5 C 0.77954(13) 0.75066(18) 0.02858(10)
H13_5 H 0.753304 0.741847 0.013410
N6_5 N 0.90434(13) 0.81742(19) 0.11973(11)
O42_5 O 0.86805(12) 0.86954(18) 0.26698(12)
C39_5 C 0.99787(14) 0.88639(19) 0.18612(10)
C41_5 C 0.81695(14) 0.74067(20) 0.01970(10)
C48_5 C 0.78139(13) 0.77367(18) 0.05994(10)
C49_5 C 0.74110(12) 0.78436(17) 0.07076(10)
C52_5 C 0.98896(14) 0.82990(21) 0.12709(11)
H17_5 H 0.985636 0.810834 0.107594
C55_5 C 0.94932(15) 0.83566(21) 0.13851(11)
C57_5 C 0.82060(14) 0.78766(21) 0.08236(11)
H20_5 H 0.821379 0.802398 0.103566
C58_5 C 0.95373(14) 0.86254(21) 0.16780(11)
H21_5 H 0.926857 0.864858 0.175537
C59_5 C 0.85689(15) 0.75596(21) 0.04186(11)
H22_5 H 0.882402 0.750367 0.035795
C62_5 C 0.85921(15) 0.77961(21) 0.07313(12)
O65_5 O 1.000000 1.000000 0.27093(13)
O92_2 O 0.90282(9) 0.95829(9) 0.23022(7)
H44_5 H 0.861486 0.593376 0.000405914
H54_5 H 0.73189 0.138514 0.000405914
H55_2 H 0.969767 0.126956 0.276307
O2_5 O 0.83884(9) 0.15923(9) 0.91230(7)
O6_5 O 0.92384(9) 0.21117(10) 0.96252(7)
O11_5 O 0.74200(9) 0.10107(10) 0.87134(7)
O15_5 O 0.73402(9) 0.12479(12) 0.92474(8)
O17_5 O 0.85249(10) 0.15488(11) 0.98639(7)
O19_5 O 0.79116(13) 0.07421(14) 0.82372(9)
O20_5 O 0.74858(14) 0.11874(15) 0.99902(10)
C3_5 C 0.54303(13) 0.21123(14) 0.99107(10)
C4_5 C 0.89789(12) 0.18350(12) 0.98672(9)
C6_5 C 0.49691(13) 0.20610(14) 0.98429(10)
H2_5 H 0.486980 0.225353 0.996377
O22_5 O 0.97295(13) 0.28751(13) 0.91374(10)
C10_5 C 0.71889(12) 0.10774(13) 0.89557(10)
C11_5 C 0.59020(13) 0.05752(15) 0.85566(11)
C12_6 C 0.66667(13) 0.09595(15) 0.88814(10)
C13_5 C 0.63855(14) 0.06771(15) 0.86002(11)
H4_5 H 0.652156 0.055581 0.844032
C14_5 C 0.41501(13) 0.16532(14) 0.95111(10)
N3_5 N 0.54199(14) 0.12457(17) 0.92403(11)
N4_5 N 0.58308(14) 0.13068(18) 0.92998(11)
C18_5 C 0.55779(13) 0.02653(13) 0.82566(9)
C21_5 C 0.46559(13) 0.17229(14) 0.95951(10)
C22_5 C 0.55806(14) 0.18403(17) 0.97211(11)
H6_5 H 0.588545 0.186950 0.976681
C24_5 C 0.56952(14) 0.07590(18) 0.87889(12)
H7_5 H 0.536902 0.068133 0.876496
C28_5 C 0.64619(15) 0.11460(18) 0.91122(12)
H11_5 H 0.664323 0.132808 0.930377
C29_5 C 0.52810(15) 0.15196(17) 0.94598(12)
C31_5 C 0.59870(16) 0.10639(19) 0.90604(13)
C32_5 C 0.48174(14) 0.14586(16) 0.94040(12)
H12_5 H 0.461281 0.123691 0.923583
O23_5 O 0.84077(9) 0.67962(13) 0.91230(7)
O25_5 O 0.80367(10) 0.20931(13) 0.96306(7)
O27_5 O 0.78883(10) 0.71268(13) 0.96252(7)
O32_5 O 0.89893(10) 0.64094(13) 0.87134(7)
O36_5 O 0.87521(12) 0.60924(15) 0.92474(8)
O38_5 O 0.84512(11) 0.69762(15) 0.98639(7)
O39_5 O 0.87188(10) 0.26003(13) 0.93353(9)
O40_5 O 0.92579(14) 0.71696(19) 0.82372(9)
O41_5 O 0.88126(15) 0.62985(21) 0.99902(10)
C35_5 C 0.78877(14) 0.33181(19) 0.99107(10)
C36_5 C 0.81650(12) 0.71440(17) 0.98672(9)
C38_5 C 0.79390(14) 0.29082(19) 0.98429(10)
H14_5 H 0.774647 0.261628 0.996377
O43_5 O 0.71249(13) 0.68545(18) 0.91374(10)
C42_5 C 0.89226(13) 0.61116(18) 0.89557(10)
C43_5 C 0.94248(15) 0.53269(20) 0.85566(11)
C44_5 C 0.90405(15) 0.57073(20) 0.88814(10)
C45_5 C 0.93229(15) 0.57085(21) 0.86002(11)
H16_5 H 0.944419 0.596576 0.844032
C46_5 C 0.83468(14) 0.24970(19) 0.95111(10)
N7_5 N 0.87543(17) 0.41743(22) 0.92403(11)
N8_5 N 0.86932(18) 0.45241(23) 0.92998(11)
C50_5 C 0.97347(13) 0.53127(18) 0.82566(9)
C53_5 C 0.82771(14) 0.29331(19) 0.95951(10)
C54_5 C 0.81597(17) 0.37404(22) 0.97211(11)
H18_5 H 0.813050 0.401596 0.976681
C56_5 C 0.92410(18) 0.49363(23) 0.87889(12)
H19_5 H 0.931867 0.468770 0.876496
C60_5 C 0.88540(18) 0.53160(23) 0.91122(12)
H23_5 H 0.867192 0.531516 0.930377
C61_5 C 0.84804(17) 0.37615(23) 0.94598(12)
C63_5 C 0.89361(19) 0.49232(25) 0.90604(13)
C64_5 C 0.85414(16) 0.33589(21) 0.94040(12)
H24_5 H 0.876309 0.337591 0.923583
H37_5 H 0.920045 0.740177 0.809627
H38_5 H 0.916953 0.686987 0.809763
H41_5 H 0.714174 0.707543 0.932886
H42_5 H 0.683857 0.651989 0.917527
H43_5 H 0.916745 0.640228 0.997281
H53_5 H 0.723484 0.0832554 0.997281
H57_5 H 0.820132 0.0799549 0.809627
H58_5 H 0.770034 0.0830467 0.809763
H59_5 H 0.99337 0.285826 0.932886
H60_5 H 0.968132 0.316143 0.917527
C5_5 C 0.77173(12) 0.92552(12) 0.13161(9)
C8_5 C 0.84420(13) 0.96253(13) 0.17450(10)
H3_5 H 0.830406 0.932636 0.186300
C15_5 C 0.82037(13) 0.96740(13) 0.14529(10)
C19_5 C 0.91590(12) 0.99963(13) 0.21765(9)
O46_3 O 0.12403(13) 0.26103(9) 0.62972(7)
O60_3 O 0.07331(13) 0.27852(9) 0.60019(9)
C65_6 C 0.00279(18) 0.08924(12) 0.68488(9)
C67_6 C 0.00153(19) 0.12363(13) 0.65773(10)
C70_6 C 0.04252(19) 0.16975(13) 0.65095(10)
H26_6 H 0.071706 0.179686 0.663043
C78_6 C 0.08364(19) 0.25165(13) 0.61777(10)
C85_6 C 0.04003(19) 0.20107(13) 0.62617(10)
O23_6 O 0.17411(9) 0.34628(13) 0.57896(7)
O27_6 O 0.12217(10) 0.37934(13) 0.62918(7)
O32_6 O 0.23227(10) 0.30760(13) 0.53800(7)
O35_3 O 0.37505(9) 0.61120(13) 0.89688(7)
O36_6 O 0.20855(12) 0.27590(15) 0.59140(8)
O37_6 O 0.29342(10) 0.57714(15) 0.89467(8)
O38_6 O 0.17846(11) 0.36428(15) 0.65305(7)
N5_6 N 0.23643(13) 0.46327(19) 0.75906(11)
O40_6 O 0.25913(14) 0.38362(19) 0.49038(9)
O41_6 O 0.21460(15) 0.29651(21) 0.66568(10)
C34_6 C 0.11288(13) 0.41732(18) 0.69524(10)
H13_6 H 0.086638 0.408513 0.680076
N6_6 N 0.23768(13) 0.48408(19) 0.78639(11)
C36_6 C 0.14984(12) 0.38106(17) 0.65338(9)
C37_6 C 0.40782(12) 0.51288(17) 0.79827(9)
O42_6 O 0.20139(12) 0.53620(18) 0.93364(12)
C39_6 C 0.33121(14) 0.55305(19) 0.85278(10)
O43_6 O 0.04583(13) 0.35211(18) 0.58040(10)
C40_6 C 0.37081(13) 0.54834(18) 0.84116(10)
H15_6 H 0.400698 0.564437 0.852966
C41_6 C 0.15029(14) 0.40733(20) 0.68636(10)
C42_6 C 0.22560(13) 0.27782(18) 0.56223(10)
C43_6 C 0.27582(15) 0.19935(20) 0.52232(11)
C44_6 C 0.23739(15) 0.23739(20) 0.55480(10)
C45_6 C 0.26563(15) 0.23751(21) 0.52668(11)
H16_6 H 0.277753 0.263242 0.510698
N7_6 N 0.20877(17) 0.08409(22) 0.59069(11)
C47_6 C 0.36594(13) 0.51964(18) 0.81195(10)
N8_6 N 0.20266(18) 0.11907(23) 0.59664(11)
C48_6 C 0.11473(13) 0.44033(18) 0.72660(10)
C49_6 C 0.07444(12) 0.45102(17) 0.73742(10)
C50_6 C 0.30681(13) 0.19793(18) 0.49232(9)
C51_6 C 0.33371(13) 0.58294(18) 0.88431(9)
C52_6 C 0.32230(14) 0.49656(21) 0.79375(11)
H17_6 H 0.318970 0.477500 0.774260
C54_6 C 0.14931(17) 0.04070(22) 0.63877(11)
H18_6 H 0.146384 0.068262 0.643347
C55_6 C 0.28266(15) 0.50232(21) 0.80517(11)
C56_6 C 0.25744(18) 0.16029(23) 0.54555(12)
H19_6 H 0.265201 0.135436 0.543162
C57_6 C 0.15394(14) 0.45432(21) 0.74902(11)
H20_6 H 0.154713 0.469064 0.770232
C58_6 C 0.28707(14) 0.52920(21) 0.83446(11)
H21_6 H 0.260191 0.531524 0.842203
C59_6 C 0.19023(15) 0.42262(21) 0.70852(11)
H22_6 H 0.215736 0.417033 0.702461
C60_6 C 0.21874(18) 0.19826(23) 0.57788(12)
H23_6 H 0.200526 0.198182 0.597043
C61_6 C 0.18138(17) 0.04281(23) 0.61264(12)
C62_6 C 0.19255(15) 0.44627(21) 0.73979(12)
C63_6 C 0.22695(19) 0.15898(25) 0.57270(13)
C64_6 C 0.18748(16) 0.00255(21) 0.60706(12)
H24_6 H 0.209643 0.004257 0.590249
C75_6 C 0.80065(20) 0.07646(13) 0.52232(11)
C76_7 C 0.76261(20) -0.00001(13) 0.55480(10)
C77_6 C 0.76249(21) 0.02811(14) 0.52668(11)
H28_6 H 0.736758 0.014510 0.510698
N11_6 N 0.91591(22) 0.12467(14) 0.59069(11)
N12_6 N 0.88093(23) 0.08358(14) 0.59664(11)
C82_6 C 0.80207(18) 0.10887(13) 0.49232(9)
C86_6 C 0.95930(22) 0.10860(14) 0.63877(11)
H30_6 H 0.931738 0.078121 0.643347
C88_6 C 0.83971(23) 0.09714(14) 0.54555(12)
H31_6 H 0.864564 0.129764 0.543162
C92_6 C 0.80174(23) 0.02047(15) 0.57788(12)
H35_6 H 0.801818 0.002343 0.597043
C93_6 C 0.95719(23) 0.13856(15) 0.61264(12)
C95_6 C 0.84102(25) 0.06796(16) 0.57270(13)
C96_6 C 0.99745(21) 0.18492(14) 0.60706(12)
H36_6 H 0.995743 0.205385 0.590249
O65_6 O 0.333334 0.666666 0.93759(13)
O92_3 O 0.23616(9) 0.62495(9) 0.89688(7)
H37_6 H 0.253378 0.406843 0.476294
H38_6 H 0.250287 0.353654 0.47643
H41_6 H 0.0475071 0.37421 0.599553
H42_6 H 0.0171901 0.318656 0.584193
H43_6 H 0.250078 0.306895 0.663947
H44_6 H 0.194819 0.260042 0.667073
O2_6 O 0.17218(9) 0.82589(9) 0.57896(7)
O6_6 O 0.25718(9) 0.87783(10) 0.62918(7)
O11_6 O 0.07534(9) 0.76773(10) 0.53800(7)
O15_6 O 0.06736(9) 0.79145(12) 0.59140(8)
O16_6 O 0.28373(11) 0.70658(10) 0.89467(8)
O17_6 O 0.18583(10) 0.82154(11) 0.65305(7)
N1_6 N 0.22685(14) 0.76357(13) 0.75906(11)
O19_6 O 0.12450(13) 0.74087(14) 0.49038(9)
O20_6 O 0.08192(14) 0.78540(15) 0.66568(10)
C2_6 C 0.30445(13) 0.88712(13) 0.69524(10)
H1_6 H 0.321876 0.913362 0.680076
N2_6 N 0.24641(14) 0.76232(13) 0.78639(11)
C4_6 C 0.23123(12) 0.85016(12) 0.65338(9)
C5_6 C 0.10507(12) 0.59218(12) 0.79827(9)
O21_6 O 0.33482(14) 0.79861(12) 0.93364(12)
C7_6 C 0.22185(13) 0.66879(14) 0.85278(10)
O22_6 O 0.30629(13) 0.95417(13) 0.58040(10)
C8_6 C 0.17754(13) 0.62919(13) 0.84116(10)
H3_6 H 0.163740 0.599302 0.852966
C9_6 C 0.25705(14) 0.84971(14) 0.68636(10)
C10_6 C 0.05223(12) 0.77440(13) 0.56223(10)
C12_7 C 0.00001(13) 0.76261(15) 0.55480(10)
C15_6 C 0.15371(13) 0.63406(13) 0.81195(10)
C16_6 C 0.32561(13) 0.88527(13) 0.72660(10)
C17_6 C 0.37659(12) 0.92556(12) 0.73742(10)
C19_6 C 0.24924(12) 0.66629(13) 0.88431(9)
C20_6 C 0.17427(15) 0.67770(14) 0.79375(11)
H5_6 H 0.158531 0.681030 0.774260
C23_6 C 0.21967(15) 0.71734(15) 0.80517(11)
C25_6 C 0.30039(15) 0.84606(14) 0.74902(11)
H8_6 H 0.314352 0.845287 0.770232
C26_6 C 0.24214(15) 0.71293(14) 0.83446(11)
H9_6 H 0.271334 0.739809 0.842203
C27_6 C 0.23240(15) 0.80977(15) 0.70852(11)
H10_6 H 0.201298 0.784264 0.702461
C30_6 C 0.25373(15) 0.80745(15) 0.73979(12)
O25_6 O 0.13701(10) 0.87597(13) 0.62972(7)
O39_6 O 0.20522(10) 0.92669(13) 0.60019(9)
C33_6 C 0.08646(13) 0.99721(18) 0.68488(9)
C35_6 C 0.12211(14) 0.99847(19) 0.65773(10)
C38_6 C 0.12724(14) 0.95748(19) 0.65095(10)
H14_6 H 0.107981 0.928294 0.663043
C46_6 C 0.16802(14) 0.91636(19) 0.61777(10)
C53_6 C 0.16105(14) 0.95997(19) 0.62617(10)
O44_6 O 0.65372(13) 0.82782(9) 0.57896(7)
O48_6 O 0.62066(13) 0.74282(9) 0.62918(7)
O53_6 O 0.69240(13) 0.92466(9) 0.53800(7)
O56_6 O 0.38880(13) 0.76384(9) 0.89688(7)
O57_6 O 0.72410(15) 0.93264(9) 0.59140(8)
O58_6 O 0.42286(15) 0.71627(11) 0.89467(8)
O59_6 O 0.63572(15) 0.81417(10) 0.65305(7)
N9_6 N 0.53673(19) 0.77315(14) 0.75906(11)
O61_6 O 0.61638(19) 0.87550(13) 0.49038(9)
O62_6 O 0.70349(21) 0.91808(14) 0.66568(10)
C66_6 C 0.58268(18) 0.69555(13) 0.69524(10)
H25_6 H 0.591487 0.678124 0.680076
N10_6 N 0.51592(19) 0.75359(14) 0.78639(11)
C68_6 C 0.61894(17) 0.76877(12) 0.65338(9)
C69_6 C 0.48712(17) 0.89493(12) 0.79827(9)
O63_6 O 0.46380(18) 0.66518(14) 0.93364(12)
C71_6 C 0.44695(19) 0.77815(13) 0.85278(10)
O64_6 O 0.64789(18) 0.69371(13) 0.58040(10)
C72_6 C 0.45166(18) 0.82246(13) 0.84116(10)
H27_6 H 0.435563 0.836260 0.852966
C73_6 C 0.59267(20) 0.74295(14) 0.68636(10)
C74_6 C 0.72218(18) 0.94777(12) 0.56223(10)
C76_8 C 0.76261(20) 0.99999(13) 0.55480(10)
C79_6 C 0.48036(18) 0.84629(13) 0.81195(10)
C80_6 C 0.55967(18) 0.67439(13) 0.72660(10)
C81_6 C 0.54898(17) 0.62341(12) 0.73742(10)
C83_6 C 0.41706(18) 0.75076(12) 0.88431(9)
C84_6 C 0.50344(21) 0.82573(15) 0.79375(11)
H29_6 H 0.522500 0.841469 0.774260
C87_6 C 0.49768(21) 0.78033(15) 0.80517(11)
C89_6 C 0.54568(21) 0.69961(15) 0.74902(11)
H32_6 H 0.530936 0.685648 0.770232
C90_6 C 0.47080(21) 0.75786(15) 0.83446(11)
H33_6 H 0.468476 0.728666 0.842203
C91_6 C 0.57738(21) 0.76760(15) 0.70852(11)
H34_6 H 0.582967 0.798702 0.702461
C94_6 C 0.55373(21) 0.74627(15) 0.73979(12)
O69_3 O 0.73897(9) 0.86299(10) 0.62972(7)
O94_3 O 0.72148(9) 0.79478(10) 0.60019(9)
H45_6 H 0.593157 0.846535 0.476294
H46_6 H 0.646346 0.896633 0.47643
H47_6 H 0.693105 0.943183 0.663947
H48_6 H 0.739958 0.934777 0.667073
H49_6 H 0.62579 0.673297 0.599553
H50_6 H 0.681344 0.698535 0.584193
H53_6 H 0.0568168 0.749922 0.663947
H54_6 H 0.0652233 0.805181 0.667073
H57_6 H 0.153465 0.746622 0.476294
H58_6 H 0.103367 0.749713 0.47643
H59_6 H 0.326703 0.952493 0.599553
H60_6 H 0.301465 0.98281 0.584193
C1_6 C 0.91076(12) 0.91354(13) 0.68488(9)
C3_6 C 0.87637(13) 0.87789(14) 0.65773(10)
C6_6 C 0.83025(13) 0.87276(14) 0.65095(10)
H2_6 H 0.820314 0.892019 0.663043
C11_6 C 0.92354(13) 0.72418(15) 0.52232(11)
C12_8 C 1.00001(13) 0.76261(15) 0.55480(10)
C13_6 C 0.97189(14) 0.73437(15) 0.52668(11)
H4_6 H 0.985490 0.722247 0.510698
C14_6 C 0.74835(13) 0.83198(14) 0.61777(10)
N3_6 N 0.87533(14) 0.79123(17) 0.59069(11)
N4_6 N 0.91642(14) 0.79734(18) 0.59664(11)
C18_6 C 0.89113(13) 0.69319(13) 0.49232(9)
C21_6 C 0.79893(13) 0.83895(14) 0.62617(10)
C22_6 C 0.89140(14) 0.85069(17) 0.63877(11)
H6_6 H 0.921879 0.853616 0.643347
C24_6 C 0.90286(14) 0.74256(18) 0.54555(12)
H7_6 H 0.870236 0.734799 0.543162
C28_6 C 0.97953(15) 0.78126(18) 0.57788(12)
H11_6 H 0.997657 0.799474 0.597043
C29_6 C 0.86144(15) 0.81862(17) 0.61264(12)
C31_6 C 0.93204(16) 0.77305(19) 0.57270(13)
C32_6 C 0.81508(14) 0.81252(16) 0.60706(12)
H12_6 H 0.794615 0.790357 0.590249
loop_
_geom_bond_atom_site_label_1
_geom_bond_atom_site_label_2
_geom_bond_site_symmetry_1
_geom_bond_site_symmetry_2
Ni1 O2 1_555 1_555
Ni2 O1 1_555 1_555
Ni3 O2 1_555 1_555
Ni4 O2 1_555 1_555
O1 Ni10 1_555 1_555
O3 C1 1_555 1_555
O4 C14 1_555 1_555
O5 C5 1_555 1_555
O6 Ni3 1_555 1_555
O7 C5 1_555 1_555
O8 C17 1_555 1_555
O9 C1 1_555 1_555
O10 C18 1_555 1_555
O11 Ni4 1_555 1_555
O12 C17 1_555 1_555
O13 C18 1_555 1_555
O14 C19 1_555 1_555
O15 Ni1 1_555 1_555
O16 Ni2 1_555 1_555
O17 Ni1 1_555 1_555
O18 C14 1_555 1_555
N1 N2 1_555 1_555
O19 Ni4 1_555 1_555
C1 C3 1_555 1_555
O20 Ni1 1_555 1_555
C2 H1 1_555 1_555
C3 C6 1_555 1_555
N2 C23 1_555 1_555
C4 O6 1_555 1_555
C5 C15 1_555 1_555
O21 Ni2 1_555 1_555
C6 H2 1_555 1_555
C7 C8 1_555 1_555
O22 Ni3 1_555 1_555
C8 H3 1_555 1_555
C9 C2 1_555 1_555
C10 O11 1_555 1_555
C11 C13 1_555 1_555
C12 C10 1_555 1_555
C13 C12 1_555 1_555
H4 C13 1_555 1_555
C14 C21 1_555 1_555
N3 N4 1_555 1_555
C15 C8 1_555 1_555
N4 C31 1_555 1_555
C16 C2 1_555 1_555
C17 C16 1_555 1_555
C18 C11 1_555 1_555
C19 O16 1_555 1_555
C20 C15 1_555 1_555
H5 C20 1_555 1_555
C21 C6 1_555 1_555
C22 C3 1_555 1_555
H6 C22 1_555 1_555
C23 C20 1_555 1_555
C24 C11 1_555 1_555
H7 C24 1_555 1_555
C25 C16 1_555 1_555
H8 C25 1_555 1_555
C26 C7 1_555 1_555
H9 C26 1_555 1_555
C27 C9 1_555 1_555
H10 C27 1_555 1_555
C28 C12 1_555 1_555
H11 C28 1_555 1_555
C29 N3 1_555 1_555
C30 N1 1_555 1_555
C31 C24 1_555 1_555
C32 C21 1_555 1_555
H12 C32 1_555 1_555
O24 C33 1_555 1_555
O25 Ni1 1_555 1_555
O30 C33 1_555 1_555
O31 C50 1_555 1_555
O34 C50 1_555 1_555
O36 Ni5 1_555 1_555
O39 Ni3 1_555 1_555
C33 C35 1_555 1_555
O41 Ni5 1_555 1_555
C35 C38 1_555 1_555
C38 H14 1_555 1_555
C42 O32 1_555 1_555
C43 C45 1_555 1_555
C44 C42 1_555 1_555
C45 C44 1_555 1_555
H16 C45 1_555 1_555
C46 O25 1_555 1_555
N7 N8 1_555 1_555
N8 C63 1_555 1_555
C50 C43 1_555 1_555
C53 C38 1_555 1_555
C54 C35 1_555 1_555
H18 C54 1_555 1_555
C56 C43 1_555 1_555
H19 C56 1_555 1_555
C60 C44 1_555 1_555
H23 C60 1_555 1_555
C61 N7 1_555 1_555
C63 C56 1_555 1_555
C64 C53 1_555 1_555
H24 C64 1_555 1_555
Ni10 O58 1_555 1_555
Ni26 O44 1_555 1_555
Ni12 O44 1_555 1_555
O47 C69 1_555 1_555
O48 Ni26 1_555 1_555
O49 C69 1_555 1_555
O50 C81 1_555 1_555
O54 C81 1_555 1_555
O56 Ni2 1_555 1_555
O58 C83 1_555 1_555
N9 N10 1_555 1_555
O61 Ni12 1_555 1_555
C66 H25 1_555 1_555
N10 C87 1_555 1_555
C68 O48 1_555 1_555
C69 C79 1_555 1_555
O63 Ni10 1_555 1_555
C71 C72 1_555 1_555
O64 Ni26 1_555 1_555
C72 H27 1_555 1_555
C73 C66 1_555 1_555
C79 C72 1_555 1_555
C80 C66 1_555 1_555
C81 C80 1_555 1_555
C83 O56 1_555 1_555
C84 C79 1_555 1_555
H29 C84 1_555 1_555
C87 C84 1_555 1_555
C89 C80 1_555 1_555
H32 C89 1_555 1_555
C90 C71 1_555 1_555
H33 C90 1_555 1_555
C91 C73 1_555 1_555
H34 C91 1_555 1_555
C94 N9 1_555 1_555
Ni14 O4 1_555 1_555
Ni15 O50 1_555 1_555
Ni16 O8 1_555 1_555
Ni18 O1 1_555 1_555
Ni20 O9 1_555 1_555
Ni22 O30 1_555 1_555
Ni24 O3 1_555 1_555
Ni28 O47 1_555 1_555
Ni29 O5 1_555 1_555
Ni31 O10 1_555 1_555
Ni32 O31 1_555 1_555
Ni34 O54 1_555 1_555
Ni35 O12 1_555 1_555
Ni37 O7 1_555 1_555
Ni39 O13 1_555 1_555
Ni40 O34 1_555 1_555
O66 Ni10 1_555 1_555
O67 Ni2 1_555 1_555
O70 Ni5 1_555 1_555
O71 Ni26 1_555 1_555
O72 Ni3 1_555 1_555
O74 Ni12 1_555 1_555
O75 Ni4 1_555 1_555
O79 Ni1 1_555 1_555
O80 Ni2 1_555 1_555
O82 Ni10 1_555 1_555
O85 Ni3 1_555 1_555
O87 Ni12 1_555 1_555
O88 Ni4 1_555 1_555
O91 Ni4 1_555 1_555
O93 Ni10 1_555 1_555
O14 Ni18 1_555 1_555
O15 C10 1_555 1_555
O17 C4 1_555 1_555
C4 C9 1_555 1_555
C7 C19 1_555 1_555
C22 C29 1_555 1_555
C23 C26 1_555 1_555
C25 C30 1_555 1_555
C27 C30 1_555 1_555
C28 C31 1_555 1_555
C29 C32 1_555 1_555
O24 Ni20 1_555 1_555
O36 C42 1_555 1_555
O39 C46 1_555 1_555
C46 C53 1_555 1_555
C54 C61 1_555 1_555
C60 C63 1_555 1_555
C61 C64 1_555 1_555
O49 Ni35 1_555 1_555
O59 C68 1_555 1_555
C68 C73 1_555 1_555
C71 C83 1_555 1_555
C87 C90 1_555 1_555
C89 C94 1_555 1_555
C91 C94 1_555 1_555
O41 H43 1_555 1_555
O41 H44 1_555 1_555
O61 H45 1_555 1_555
O61 H46 1_555 1_555
O64 H49 1_555 1_555
O20 H53 1_555 1_555
O20 H54 1_555 1_555
O19 H57 1_555 1_555
O19 H58 1_555 1_555
O22 H59 1_555 1_555
O22 H60 1_555 1_555
Ni18 O37 1_555 1_555
Ni7 O23 1_555 1_555
Ni8 O23 1_555 1_555
O26 C37 1_555 1_555
O27 Ni7 1_555 1_555
O28 C37 1_555 1_555
O29 C49 1_555 1_555
O33 C49 1_555 1_555
O93 C51 1_555 1_555
O37 C51 1_555 1_555
N5 N6 1_555 1_555
O40 Ni8 1_555 1_555
C34 H13 1_555 1_555
N6 C55 1_555 1_555
C36 O27 1_555 1_555
C37 C47 1_555 1_555
O42 Ni18 1_555 1_555
C39 C40 1_555 1_555
O43 Ni7 1_555 1_555
C40 H15 1_555 1_555
C41 C34 1_555 1_555
C47 C40 1_555 1_555
C48 C34 1_555 1_555
C49 C48 1_555 1_555
C51 C39 1_555 1_555
C52 C47 1_555 1_555
H17 C52 1_555 1_555
C55 C52 1_555 1_555
C57 C48 1_555 1_555
H20 C57 1_555 1_555
C58 C39 1_555 1_555
H21 C58 1_555 1_555
C59 C41 1_555 1_555
H22 C59 1_555 1_555
C62 N5 1_555 1_555
Ni17 O29 1_555 1_555
Ni27 O26 1_555 1_555
Ni34 O28 1_555 1_555
Ni37 O33 1_555 1_555
O68 Ni18 1_555 1_555
O73 Ni7 1_555 1_555
O76 Ni8 1_555 1_555
O81 Ni18 1_555 1_555
O86 Ni8 1_555 1_555
O38 C36 1_555 1_555
C36 C41 1_555 1_555
C55 C58 1_555 1_555
C57 C62 1_555 1_555
C59 C62 1_555 1_555
O40 H37 1_555 1_555
O40 H38 1_555 1_555
O43 H41 1_555 1_555
O45 C65 1_555 1_555
O70 C78 1_555 1_555
O51 C65 1_555 1_555
O52 C82 1_555 1_555
O55 C82 1_555 1_555
O57 Ni14 1_555 1_555
O95 C78 1_555 1_555
C65 C67 1_555 1_555
O62 Ni14 1_555 1_555
C67 C70 1_555 1_555
C70 H26 1_555 1_555
C74 O53 1_555 1_555
C75 C77 1_555 1_555
C76 C74 1_555 1_555
C77 C76 1_555 1_555
H28 C77 1_555 1_555
C78 C85 1_555 1_555
N11 N12 1_555 1_555
N12 C95 1_555 1_555
C82 C75 1_555 1_555
C85 C70 1_555 1_555
C86 C67 1_555 1_555
H30 C86 1_555 1_555
C88 C75 1_555 1_555
H31 C88 1_555 1_555
C92 C76 1_555 1_555
H35 C92 1_555 1_555
C93 N11 1_555 1_555
C95 C88 1_555 1_555
C96 C85 1_555 1_555
H36 C96 1_555 1_555
Ni22 O45 1_555 1_555
Ni24 O51 1_555 1_555
Ni30 O52 1_555 1_555
Ni38 O55 1_555 1_555
O57 C74 1_555 1_555
C86 C93 1_555 1_555
C92 C95 1_555 1_555
C93 C96 1_555 1_555
O62 H47 1_555 1_555
O62 H48 1_555 1_555
O5_2 C5_2 1_555 1_555
O7_2 C5_2 1_555 1_555
O14_2 C19_2 1_555 1_555
C5_2 C15_2 1_555 1_555
C8_2 H3_2 1_555 1_555
C15_2 C8_2 1_555 1_555
Ni18_2 O1_2 1_555 1_555
Ni32 O5_2 1_555 1_555
Ni40 O7_2 1_555 1_555
O14_2 Ni18_2 1_555 1_555
Ni1_2 O2_2 1_555 1_555
Ni3_2 O2_2 1_555 1_555
Ni4_2 O2_2 1_555 1_555
O4_2 C14_2 1_555 1_555
O6_2 Ni3_2 1_555 1_555
O10_2 C18_2 1_555 1_555
O11_2 Ni4_2 1_555 1_555
O13_2 C18_2 1_555 1_555
O15_2 Ni1_2 1_555 1_555
O17_2 Ni1_2 1_555 1_555
O18_2 C14_2 1_555 1_555
O19_2 Ni4_2 1_555 1_555
O20_2 Ni1_2 1_555 1_555
C3_2 C6_2 1_555 1_555
C4_2 O6_2 1_555 1_555
C6_2 H2_2 1_555 1_555
O22_2 Ni3_2 1_555 1_555
C10_2 O11_2 1_555 1_555
C11_2 C13_2 1_555 1_555
C12_2 C10_2 1_555 1_555
C13_2 C12_2 1_555 1_555
H4_2 C13_2 1_555 1_555
C14_2 C21_2 1_555 1_555
N3_2 N4_2 1_555 1_555
N4_2 C31_2 1_555 1_555
C18_2 C11_2 1_555 1_555
C21_2 C6_2 1_555 1_555
C22_2 C3_2 1_555 1_555
H6_2 C22_2 1_555 1_555
C24_2 C11_2 1_555 1_555
H7_2 C24_2 1_555 1_555
C28_2 C12_2 1_555 1_555
H11_2 C28_2 1_555 1_555
C29_2 N3_2 1_555 1_555
C31_2 C24_2 1_555 1_555
C32_2 C21_2 1_555 1_555
H12_2 C32_2 1_555 1_555
Ni5_2 O23_2 1_555 1_555
Ni7_2 O23_2 1_555 1_555
Ni8_2 O23_2 1_555 1_555
O25_2 Ni1_2 1_555 1_555
O27_2 Ni7_2 1_555 1_555
O31_2 C50_2 1_555 1_555
O32_2 Ni8_2 1_555 1_555
O34_2 C50_2 1_555 1_555
O36_2 Ni5_2 1_555 1_555
O38_2 Ni5_2 1_555 1_555
O39_2 Ni3_2 1_555 1_555
O40_2 Ni8_2 1_555 1_555
O41_2 Ni5_2 1_555 1_555
C35_2 C38_2 1_555 1_555
C36_2 O27_2 1_555 1_555
C38_2 H14_2 1_555 1_555
O43_2 Ni7_2 1_555 1_555
C42_2 O32_2 1_555 1_555
C43_2 C45_2 1_555 1_555
C44_2 C42_2 1_555 1_555
C45_2 C44_2 1_555 1_555
H16_2 C45_2 1_555 1_555
C46_2 O25_2 1_555 1_555
N7_2 N8_2 1_555 1_555
N8_2 C63_2 1_555 1_555
C50_2 C43_2 1_555 1_555
C53_2 C38_2 1_555 1_555
C54_2 C35_2 1_555 1_555
H18_2 C54_2 1_555 1_555
C56_2 C43_2 1_555 1_555
H19_2 C56_2 1_555 1_555
C60_2 C44_2 1_555 1_555
H23_2 C60_2 1_555 1_555
C61_2 N7_2 1_555 1_555
C63_2 C56_2 1_555 1_555
C64_2 C53_2 1_555 1_555
H24_2 C64_2 1_555 1_555
Ni14_2 O4_2 1_555 1_555
Ni26_2 O18_2 1_555 1_555
O70_2 Ni5_2 1_555 1_555
O72_2 Ni3_2 1_555 1_555
O73_2 Ni7_2 1_555 1_555
O75_2 Ni4_2 1_555 1_555
O76_2 Ni8_2 1_555 1_555
O77_2 Ni5_2 1_555 1_555
O79_2 Ni1_2 1_555 1_555
O83_2 Ni7_2 1_555 1_555
O85_2 Ni3_2 1_555 1_555
O86_2 Ni8_2 1_555 1_555
O88_2 Ni4_2 1_555 1_555
O89_2 Ni8_2 1_555 1_555
O91_2 Ni4_2 1_555 1_555
O95_2 Ni7_2 1_555 1_555
O15_2 C10_2 1_555 1_555
O17_2 C4_2 1_555 1_555
C22_2 C29_2 1_555 1_555
C28_2 C31_2 1_555 1_555
C29_2 C32_2 1_555 1_555
O36_2 C42_2 1_555 1_555
O38_2 C36_2 1_555 1_555
O39_2 C46_2 1_555 1_555
C46_2 C53_2 1_555 1_555
C54_2 C61_2 1_555 1_555
C60_2 C63_2 1_555 1_555
C61_2 C64_2 1_555 1_555
O40_2 H37_2 1_555 1_555
O40_2 H38_2 1_555 1_555
O43_2 H41_2 1_555 1_555
O43_2 H42_2 1_555 1_555
O41_2 H43_2 1_555 1_555
O20_2 H53_2 1_555 1_555
O19_2 H57_2 1_555 1_555
O19_2 H58_2 1_555 1_555
O22_2 H59_2 1_555 1_555
O22_2 H60_2 1_555 1_555
O3_2 C1_2 1_555 1_555
O9_2 C1_2 1_555 1_555
N1_2 N2_2 1_555 1_555
C2_2 H1_2 1_555 1_555
N2_2 C23_2 1_555 1_555
C9_2 C2_2 1_555 1_555
C16_2 C2_2 1_555 1_555
H5_2 C20_2 1_555 1_555
C23_2 C20_2 1_555 1_555
C25_2 C16_2 1_555 1_555
H8_2 C25_2 1_555 1_555
C26_2 C7_2 1_555 1_555
H9_2 C26_2 1_555 1_555
C27_2 C9_2 1_555 1_555
H10_2 C27_2 1_555 1_555
C30_2 N1_2 1_555 1_555
Ni18_2 O37_2 1_555 1_555
O24_2 C33_2 1_555 1_555
O29_2 C49_2 1_555 1_555
O30_2 C33_2 1_555 1_555
O33_2 C49_2 1_555 1_555
N5_2 N6_2 1_555 1_555
C34_2 H13_2 1_555 1_555
N6_2 C55_2 1_555 1_555
O42_2 Ni18_2 1_555 1_555
C41_2 C34_2 1_555 1_555
C48_2 C34_2 1_555 1_555
C49_2 C48_2 1_555 1_555
H17_2 C52_2 1_555 1_555
C55_2 C52_2 1_555 1_555
C57_2 C48_2 1_555 1_555
H20_2 C57_2 1_555 1_555
C58_2 C39_2 1_555 1_555
H21_2 C58_2 1_555 1_555
C59_2 C41_2 1_555 1_555
H22_2 C59_2 1_555 1_555
C62_2 N5_2 1_555 1_555
Ni17_2 O29_2 1_555 1_555
Ni20_2 O9_2 1_555 1_555
Ni22_2 O30_2 1_555 1_555
Ni24_2 O3_2 1_555 1_555
Ni40 O33_2 1_555 1_555
O68_2 Ni18_2 1_555 1_555
O81_2 Ni18_2 1_555 1_555
C23_2 C26_2 1_555 1_555
C25_2 C30_2 1_555 1_555
C27_2 C30_2 1_555 1_555
O24_2 Ni20_2 1_555 1_555
C55_2 C58_2 1_555 1_555
C57_2 C62_2 1_555 1_555
C59_2 C62_2 1_555 1_555
O1_4 Ni10_2 1_555 1_555
O50_2 C81_2 1_555 1_555
O54_2 C81_2 1_555 1_555
O63_2 Ni10_2 1_555 1_555
Ni15_2 O50_2 1_555 1_555
Ni38 O54_2 1_555 1_555
O82_2 Ni10_2 1_555 1_555
O93_2 Ni10_2 1_555 1_555
Ni14_2 O44_2 1_555 1_555
Ni26_2 O44_2 1_555 1_555
Ni12_2 O44_2 1_555 1_555
O70_2 C78_2 1_555 1_555
O48_2 Ni26_2 1_555 1_555
O52_2 C82_2 1_555 1_555
O53_2 Ni12_2 1_555 1_555
O55_2 C82_2 1_555 1_555
O57_2 Ni14_2 1_555 1_555
O59_2 Ni14_2 1_555 1_555
O95_2 C78_2 1_555 1_555
O61_2 Ni12_2 1_555 1_555
O62_2 Ni14_2 1_555 1_555
C67_2 C70_2 1_555 1_555
C68_2 O48_2 1_555 1_555
C70_2 H26_2 1_555 1_555
O64_2 Ni26_2 1_555 1_555
C74_2 O53_2 1_555 1_555
C75_2 C77_2 1_555 1_555
C76_2 C74_2 1_555 1_555
C77_2 C76_2 1_555 1_555
H28_2 C77_2 1_555 1_555
C78_2 C85_2 1_555 1_555
N11_2 N12_2 1_555 1_555
N12_2 C95_2 1_555 1_555
C82_2 C75_2 1_555 1_555
C85_2 C70_2 1_555 1_555
C86_2 C67_2 1_555 1_555
H30_2 C86_2 1_555 1_555
C88_2 C75_2 1_555 1_555
H31_2 C88_2 1_555 1_555
C92_2 C76_2 1_555 1_555
H35_2 C92_2 1_555 1_555
C93_2 N11_2 1_555 1_555
C95_2 C88_2 1_555 1_555
C96_2 C85_2 1_555 1_555
H36_2 C96_2 1_555 1_555
Ni30_2 O52_2 1_555 1_555
Ni38_2 O55_2 1_555 1_555
O71_2 Ni26_2 1_555 1_555
O74_2 Ni12_2 1_555 1_555
O78_2 Ni14_2 1_555 1_555
O84_2 Ni26_2 1_555 1_555
O87_2 Ni12_2 1_555 1_555
O90_2 Ni12_2 1_555 1_555
O57_2 C74_2 1_555 1_555
O59_2 C68_2 1_555 1_555
C86_2 C93_2 1_555 1_555
C92_2 C95_2 1_555 1_555
C93_2 C96_2 1_555 1_555
O61_2 H45_2 1_555 1_555
O61_2 H46_2 1_555 1_555
O62_2 H47_2 1_555 1_555
O64_2 H49_2 1_555 1_555
O64_2 H50_2 1_555 1_555
Ni2_2 O1_5 1_555 1_555
O8_2 C17_2 1_555 1_555
O12_2 C17_2 1_555 1_555
O21_2 Ni2_2 1_555 1_555
O26_2 C37_2 1_555 1_555
O28_2 C37_2 1_555 1_555
O93_2 C51_2 1_555 1_555
C37_2 C47_2 1_555 1_555
C40_2 H15_2 1_555 1_555
C47_2 C40_2 1_555 1_555
O45_2 C65_2 1_555 1_555
O47_2 C69_2 1_555 1_555
O49_2 C69_2 1_555 1_555
O51_2 C65_2 1_555 1_555
O56_2 Ni2_2 1_555 1_555
O58_2 C83_2 1_555 1_555
N9_2 N10_2 1_555 1_555
C66_2 H25_2 1_555 1_555
N10_2 C87_2 1_555 1_555
C69_2 C79_2 1_555 1_555
C71_2 C72_2 1_555 1_555
C72_2 H27_2 1_555 1_555
C73_2 C66_2 1_555 1_555
C79_2 C72_2 1_555 1_555
C80_2 C66_2 1_555 1_555
C83_2 O56_2 1_555 1_555
C84_2 C79_2 1_555 1_555
H29_2 C84_2 1_555 1_555
C87_2 C84_2 1_555 1_555
C89_2 C80_2 1_555 1_555
H32_2 C89_2 1_555 1_555
C90_2 C71_2 1_555 1_555
H33_2 C90_2 1_555 1_555
C91_2 C73_2 1_555 1_555
H34_2 C91_2 1_555 1_555
C94_2 N9_2 1_555 1_555
Ni16_2 O8_2 1_555 1_555
Ni22_2 O45_2 1_555 1_555
Ni24_2 O51_2 1_555 1_555
Ni30 O26_2 1_555 1_555
Ni31 O47_2 1_555 1_555
Ni38 O28_2 1_555 1_555
Ni39 O12_2 1_555 1_555
O80_2 Ni2_2 1_555 1_555
O49_2 Ni39 1_555 1_555
C71_2 C83_2 1_555 1_555
C87_2 C90_2 1_555 1_555
C89_2 C94_2 1_555 1_555
C91_2 C94_2 1_555 1_555
O3_3 C1_3 1_555 1_555
O4_3 C14_3 1_555 1_555
O9_3 C1_3 1_555 1_555
O10_3 C18_3 1_555 1_555
O13_3 C18_3 1_555 1_555
O18_3 C14_3 1_555 1_555
C1_3 C3_3 1_555 1_555
C3_3 C6_3 1_555 1_555
C6_3 H2_3 1_555 1_555
C11_3 C13_3 1_555 1_555
C13_3 C12_3 1_555 1_555
H4_3 C13_3 1_555 1_555
C14_3 C21_3 1_555 1_555
N3_3 N4_3 1_555 1_555
N4_3 C31_3 1_555 1_555
C18_3 C11_3 1_555 1_555
C21_3 C6_3 1_555 1_555
C22_3 C3_3 1_555 1_555
H6_3 C22_3 1_555 1_555
C24_3 C11_3 1_555 1_555
H7_3 C24_3 1_555 1_555
C28_3 C12_3 1_555 1_555
H11_3 C28_3 1_555 1_555
C29_3 N3_3 1_555 1_555
C31_3 C24_3 1_555 1_555
C32_3 C21_3 1_555 1_555
H12_3 C32_3 1_555 1_555
Ni14_3 O4_3 1_555 1_555
Ni20_3 O9_3 1_555 1_555
Ni26_3 O18_3 1_555 1_555
Ni28 O10_3 1_555 1_555
Ni35 O13_3 1_555 1_555
C22_3 C29_3 1_555 1_555
C28_3 C31_3 1_555 1_555
C29_3 C32_3 1_555 1_555
Ni1_3 O2_3 1_555 1_555
Ni2_3 O1_6 1_555 1_555
Ni3_3 O2_3 1_555 1_555
Ni4_3 O2_3 1_555 1_555
O1_6 Ni10_3 1_555 1_555
O5_3 C5_3 1_555 1_555
O6_3 Ni3_3 1_555 1_555
O7_3 C5_3 1_555 1_555
O8_3 C17_3 1_555 1_555
O11_3 Ni4_3 1_555 1_555
O12_3 C17_3 1_555 1_555
O14_3 C19_3 1_555 1_555
O15_3 Ni1_3 1_555 1_555
O16_3 Ni2_3 1_555 1_555
O17_3 Ni1_3 1_555 1_555
N1_3 N2_3 1_555 1_555
O19_3 Ni4_3 1_555 1_555
O20_3 Ni1_3 1_555 1_555
C2_3 H1_3 1_555 1_555
N2_3 C23_3 1_555 1_555
C4_3 O6_3 1_555 1_555
C5_3 C15_3 1_555 1_555
O21_3 Ni2_3 1_555 1_555
C7_3 C8_3 1_555 1_555
O22_3 Ni3_3 1_555 1_555
C8_3 H3_3 1_555 1_555
C9_3 C2_3 1_555 1_555
C10_3 O11_3 1_555 1_555
C12_4 C10_3 1_555 1_555
C15_3 C8_3 1_555 1_555
C16_3 C2_3 1_555 1_555
C17_3 C16_3 1_555 1_555
C19_3 O16_3 1_555 1_555
C20_3 C15_3 1_555 1_555
H5_3 C20_3 1_555 1_555
C23_3 C20_3 1_555 1_555
C25_3 C16_3 1_555 1_555
H8_3 C25_3 1_555 1_555
C26_3 C7_3 1_555 1_555
H9_3 C26_3 1_555 1_555
C27_3 C9_3 1_555 1_555
H10_3 C27_3 1_555 1_555
C30_3 N1_3 1_555 1_555
O24_3 C33_3 1_555 1_555
O25_3 Ni1_3 1_555 1_555
O39_3 Ni3_3 1_555 1_555
C33_3 C35_3 1_555 1_555
C35_3 C38_3 1_555 1_555
C38_3 H14_3 1_555 1_555
C46_3 O25_3 1_555 1_555
C53_3 C38_3 1_555 1_555
Ni14_3 O44_3 1_555 1_555
Ni10_3 O58_3 1_555 1_555
Ni26_3 O44_3 1_555 1_555
Ni12_3 O44_3 1_555 1_555
O47_3 C69_3 1_555 1_555
O48_3 Ni26_3 1_555 1_555
O49_3 C69_3 1_555 1_555
O50_3 C81_3 1_555 1_555
O53_3 Ni12_3 1_555 1_555
O54_3 C81_3 1_555 1_555
O56_3 Ni2_3 1_555 1_555
O57_3 Ni14_3 1_555 1_555
O58_3 C83_3 1_555 1_555
O59_3 Ni14_3 1_555 1_555
N9_3 N10_3 1_555 1_555
O61_3 Ni12_3 1_555 1_555
O62_3 Ni14_3 1_555 1_555
C66_3 H25_3 1_555 1_555
N10_3 C87_3 1_555 1_555
C68_3 O48_3 1_555 1_555
C69_3 C79_3 1_555 1_555
O63_3 Ni10_3 1_555 1_555
C71_3 C72_3 1_555 1_555
O64_3 Ni26_3 1_555 1_555
C72_3 H27_3 1_555 1_555
C73_3 C66_3 1_555 1_555
C74_3 O53_3 1_555 1_555
C76_3 C74_3 1_555 1_555
C79_3 C72_3 1_555 1_555
C80_3 C66_3 1_555 1_555
C81_3 C80_3 1_555 1_555
C83_3 O56_3 1_555 1_555
C84_3 C79_3 1_555 1_555
H29_3 C84_3 1_555 1_555
C87_3 C84_3 1_555 1_555
C89_3 C80_3 1_555 1_555
H32_3 C89_3 1_555 1_555
C90_3 C71_3 1_555 1_555
H33_3 C90_3 1_555 1_555
C91_3 C73_3 1_555 1_555
H34_3 C91_3 1_555 1_555
C94_3 N9_3 1_555 1_555
Ni15_3 O50_3 1_555 1_555
Ni18_3 O1_6 1_555 1_555
Ni31_2 O47_3 1_555 1_555
Ni32_2 O5_3 1_555 1_555
Ni38_2 O54_3 1_555 1_555
Ni39_2 O12_3 1_555 1_555
Ni40_2 O7_3 1_555 1_555
O66_3 Ni10_3 1_555 1_555
O67_3 Ni2_3 1_555 1_555
O71_3 Ni26_3 1_555 1_555
O72_3 Ni3_3 1_555 1_555
O74_3 Ni12_3 1_555 1_555
O75_3 Ni4_3 1_555 1_555
O78_3 Ni14_3 1_555 1_555
O79_3 Ni1_3 1_555 1_555
O80_3 Ni2_3 1_555 1_555
O82_3 Ni10_3 1_555 1_555
O84_3 Ni26_3 1_555 1_555
O85_3 Ni3_3 1_555 1_555
O87_3 Ni12_3 1_555 1_555
O88_3 Ni4_3 1_555 1_555
O90_3 Ni12_3 1_555 1_555
O91_3 Ni4_3 1_555 1_555
O93_3 Ni10_3 1_555 1_555
O14_3 Ni18_3 1_555 1_555
O15_3 C10_3 1_555 1_555
O17_3 C4_3 1_555 1_555
C4_3 C9_3 1_555 1_555
C7_3 C19_3 1_555 1_555
C23_3 C26_3 1_555 1_555
C25_3 C30_3 1_555 1_555
C27_3 C30_3 1_555 1_555
O39_3 C46_3 1_555 1_555
C46_3 C53_3 1_555 1_555
O49_3 Ni39_2 1_555 1_555
O57_3 C74_3 1_555 1_555
O59_3 C68_3 1_555 1_555
C68_3 C73_3 1_555 1_555
C71_3 C83_3 1_555 1_555
C87_3 C90_3 1_555 1_555
C89_3 C94_3 1_555 1_555
C91_3 C94_3 1_555 1_555
O61_3 H45_3 1_555 1_555
O61_3 H46_3 1_555 1_555
O62_3 H47_3 1_555 1_555
O62_3 H48_3 1_555 1_555
O64_3 H49_3 1_555 1_555
O64_3 H50_3 1_555 1_555
O20_3 H53_3 1_555 1_555
O20_3 H54_3 1_555 1_555
O19_3 H57_3 1_555 1_555
O19_3 H58_3 1_555 1_555
O22_3 H59_3 1_555 1_555
O22_3 H60_3 1_555 1_555
Ni5_3 O23_3 1_555 1_555
Ni18_3 O37_3 1_555 1_555
Ni7_3 O23_3 1_555 1_555
Ni8_3 O23_3 1_555 1_555
O26_3 C37_3 1_555 1_555
O27_3 Ni7_3 1_555 1_555
O28_3 C37_3 1_555 1_555
O29_3 C49_3 1_555 1_555
O31_3 C50_3 1_555 1_555
O32_3 Ni8_3 1_555 1_555
O33_3 C49_3 1_555 1_555
O34_3 C50_3 1_555 1_555
O93_3 C51_3 1_555 1_555
O36_3 Ni5_3 1_555 1_555
O37_3 C51_3 1_555 1_555
O38_3 Ni5_3 1_555 1_555
N5_3 N6_3 1_555 1_555
O40_3 Ni8_3 1_555 1_555
O41_3 Ni5_3 1_555 1_555
C34_3 H13_3 1_555 1_555
N6_3 C55_3 1_555 1_555
C36_3 O27_3 1_555 1_555
C37_3 C47_3 1_555 1_555
O42_3 Ni18_3 1_555 1_555
C39_3 C40_3 1_555 1_555
O43_3 Ni7_3 1_555 1_555
C40_3 H15_3 1_555 1_555
C41_3 C34_3 1_555 1_555
C42_3 O32_3 1_555 1_555
C43_3 C45_3 1_555 1_555
C44_3 C42_3 1_555 1_555
C45_3 C44_3 1_555 1_555
H16_3 C45_3 1_555 1_555
N7_3 N8_3 1_555 1_555
C47_3 C40_3 1_555 1_555
N8_3 C63_3 1_555 1_555
C48_3 C34_3 1_555 1_555
C49_3 C48_3 1_555 1_555
C50_3 C43_3 1_555 1_555
C51_3 C39_3 1_555 1_555
C52_3 C47_3 1_555 1_555
H17_3 C52_3 1_555 1_555
H18_3 C54_3 1_555 1_555
C55_3 C52_3 1_555 1_555
C56_3 C43_3 1_555 1_555
H19_3 C56_3 1_555 1_555
C57_3 C48_3 1_555 1_555
H20_3 C57_3 1_555 1_555
C58_3 C39_3 1_555 1_555
H21_3 C58_3 1_555 1_555
C59_3 C41_3 1_555 1_555
H22_3 C59_3 1_555 1_555
C60_3 C44_3 1_555 1_555
H23_3 C60_3 1_555 1_555
C61_3 N7_3 1_555 1_555
C62_3 N5_3 1_555 1_555
C63_3 C56_3 1_555 1_555
H24_3 C64_3 1_555 1_555
O52_3 C82_3 1_555 1_555
O55_3 C82_3 1_555 1_555
C75_3 C77_3 1_555 1_555
C77_3 C76_4 1_555 1_555
H28_3 C77_3 1_555 1_555
N11_3 N12_3 1_555 1_555
N12_3 C95_3 1_555 1_555
C82_3 C75_3 1_555 1_555
H30_3 C86_3 1_555 1_555
C88_3 C75_3 1_555 1_555
H31_3 C88_3 1_555 1_555
C92_3 C76_4 1_555 1_555
H35_3 C92_3 1_555 1_555
C93_3 N11_3 1_555 1_555
C95_3 C88_3 1_555 1_555
H36_3 C96_3 1_555 1_555
Ni22_3 O30_3 1_555 1_555
Ni24_3 O51_3 1_555 1_555
Ni30_2 O26_3 1_555 1_555
Ni27 O52_3 1_555 1_555
Ni29 O31_3 1_555 1_555
Ni38_2 O28_3 1_555 1_555
Ni40_2 O33_3 1_555 1_555
Ni34 O55_3 1_555 1_555
Ni37 O34_3 1_555 1_555
O68_3 Ni18_3 1_555 1_555
O70_3 Ni5_3 1_555 1_555
O73_3 Ni7_3 1_555 1_555
O76_3 Ni8_3 1_555 1_555
O77_3 Ni5_3 1_555 1_555
O81_3 Ni18_3 1_555 1_555
O83_3 Ni7_3 1_555 1_555
O86_3 Ni8_3 1_555 1_555
O89_3 Ni8_3 1_555 1_555
O95_3 Ni7_3 1_555 1_555
O36_3 C42_3 1_555 1_555
O38_3 C36_3 1_555 1_555
C36_3 C41_3 1_555 1_555
C54_3 C61_3 1_555 1_555
C55_3 C58_3 1_555 1_555
C57_3 C62_3 1_555 1_555
C59_3 C62_3 1_555 1_555
C60_3 C63_3 1_555 1_555
C61_3 C64_3 1_555 1_555
C86_3 C93_3 1_555 1_555
C92_3 C95_3 1_555 1_555
C93_3 C96_3 1_555 1_555
O40_3 H37_3 1_555 1_555
O40_3 H38_3 1_555 1_555
O43_3 H41_3 1_555 1_555
O43_3 H42_3 1_555 1_555
O41_3 H43_3 1_555 1_555
O41_3 H44_3 1_555 1_555
O45_3 C65_3 1_555 1_555
O70_3 C78_3 1_555 1_555
O95_3 C78_3 1_555 1_555
C65_3 C67_3 1_555 1_555
C67_3 C70_3 1_555 1_555
C70_3 H26_3 1_555 1_555
C78_3 C85_3 1_555 1_555
C85_3 C70_3 1_555 1_555
Ni22_3 O45_3 1_555 1_555
O68 C65_4 1_555 1_555
O46 C78_4 1_555 1_555
O82 C65_4 1_555 1_555
O85_2 C82_4 1_555 1_555
O91_2 C82_4 1_555 1_555
O57_4 Ni17_3 1_555 1_555
O60 C78_4 1_555 1_555
C65_4 C67_4 1_555 1_555
O62_4 Ni17_3 1_555 1_555
C67_4 C70_4 1_555 1_555
C70_4 H26_4 1_555 1_555
C74_4 O53_4 1_555 1_555
C75_4 C77_4 1_555 1_555
C76_5 C74_4 1_555 1_555
C77_4 C76_5 1_555 1_555
H28_4 C77_4 1_555 1_555
C78_4 C85_4 1_555 1_555
N11_4 N12_4 1_555 1_555
N12_4 C95_4 1_555 1_555
C82_4 C75_4 1_555 1_555
C85_4 C70_4 1_555 1_555
C86_4 C67_4 1_555 1_555
H30_4 C86_4 1_555 1_555
C88_4 C75_4 1_555 1_555
H31_4 C88_4 1_555 1_555
C92_4 C76_5 1_555 1_555
H35_4 C92_4 1_555 1_555
C93_4 N11_4 1_555 1_555
C95_4 C88_4 1_555 1_555
C96_4 C85_4 1_555 1_555
H36_4 C96_4 1_555 1_555
Ni16_3 O46 1_555 1_555
O69 Ni17_3 1_555 1_555
O57_4 C74_4 1_555 1_555
C86_4 C93_4 1_555 1_555
C92_4 C95_4 1_555 1_555
C93_4 C96_4 1_555 1_555
O62_4 H47_4 1_555 1_555
O62_4 H48_4 1_555 1_555
Ni22 O37_4 1_555 1_555
Ni31_2 O23_4 1_555 1_555
Ni39_2 O23_4 1_555 1_555
O72_3 C37_4 1_555 1_555
O27_4 Ni31_2 1_555 1_555
O75_3 C37_4 1_555 1_555
O78_3 C49_4 1_555 1_555
O87_3 C49_4 1_555 1_555
O35 C51_4 1_555 1_555
O37_4 C51_4 1_555 1_555
N5_4 N6_4 1_555 1_555
O40_4 Ni39_2 1_555 1_555
C34_4 H13_4 1_555 1_555
N6_4 C55_4 1_555 1_555
C36_4 O27_4 1_555 1_555
C37_4 C47_4 1_555 1_555
O42_4 Ni22 1_555 1_555
C39_4 C40_4 1_555 1_555
O43_4 Ni31_2 1_555 1_555
C40_4 H15_4 1_555 1_555
C41_4 C34_4 1_555 1_555
C47_4 C40_4 1_555 1_555
C48_4 C34_4 1_555 1_555
C49_4 C48_4 1_555 1_555
C51_4 C39_4 1_555 1_555
C52_4 C47_4 1_555 1_555
H17_4 C52_4 1_555 1_555
C55_4 C52_4 1_555 1_555
C57_4 C48_4 1_555 1_555
H20_4 C57_4 1_555 1_555
C58_4 C39_4 1_555 1_555
H21_4 C58_4 1_555 1_555
C59_4 C41_4 1_555 1_555
H22_4 C59_4 1_555 1_555
C62_4 N5_4 1_555 1_555
Ni24 O35 1_555 1_555
O65 Ni22 1_555 1_555
O92 Ni22 1_555 1_555
O38_4 C36_4 1_555 1_555
C36_4 C41_4 1_555 1_555
C55_4 C58_4 1_555 1_555
C57_4 C62_4 1_555 1_555
C59_4 C62_4 1_555 1_555
Ni24 O65 1_555 1_555
O40_4 H37_4 1_555 1_555
O40_4 H38_4 1_555 1_555
O43_4 H41_4 1_555 1_555
Ni15_3 O2_4 1_555 1_555
Ni20 O65 1_555 1_555
Ni30_2 O2_4 1_555 1_555
Ni38_2 O2_4 1_555 1_555
O66 C1_4 1_555 1_555
O69 C14_4 1_555 1_555
O71_3 C5_4 1_555 1_555
O6_4 Ni30_2 1_555 1_555
O74_3 C5_4 1_555 1_555
O77_3 C17_4 1_555 1_555
O80 C1_4 1_555 1_555
O83_2 C18_4 1_555 1_555
O11_4 Ni38_2 1_555 1_555
O86_3 C17_4 1_555 1_555
O89_2 C18_4 1_555 1_555
O92 C19_4 1_555 1_555
O15_4 Ni15_3 1_555 1_555
O16_4 Ni20 1_555 1_555
O17_4 Ni15_3 1_555 1_555
O94 C14_4 1_555 1_555
N1_4 N2_4 1_555 1_555
O19_4 Ni38_2 1_555 1_555
C1_4 C3_4 1_555 1_555
O20_4 Ni15_3 1_555 1_555
C2_4 H1_4 1_555 1_555
C3_4 C6_4 1_555 1_555
N2_4 C23_4 1_555 1_555
C4_4 O6_4 1_555 1_555
C5_4 C15_4 1_555 1_555
O21_4 Ni20 1_555 1_555
C6_4 H2_4 1_555 1_555
C7_4 C8_4 1_555 1_555
O22_4 Ni30_2 1_555 1_555
C8_4 H3_4 1_555 1_555
C9_4 C2_4 1_555 1_555
C10_4 O11_4 1_555 1_555
C11_4 C13_4 1_555 1_555
C12_5 C10_4 1_555 1_555
C13_4 C12_5 1_555 1_555
H4_4 C13_4 1_555 1_555
C14_4 C21_4 1_555 1_555
N3_4 N4_4 1_555 1_555
C15_4 C8_4 1_555 1_555
N4_4 C31_4 1_555 1_555
C16_4 C2_4 1_555 1_555
C17_4 C16_4 1_555 1_555
C18_4 C11_4 1_555 1_555
C19_4 O16_4 1_555 1_555
C20_4 C15_4 1_555 1_555
H5_4 C20_4 1_555 1_555
C21_4 C6_4 1_555 1_555
C22_4 C3_4 1_555 1_555
H6_4 C22_4 1_555 1_555
C23_4 C20_4 1_555 1_555
C24_4 C11_4 1_555 1_555
H7_4 C24_4 1_555 1_555
C25_4 C16_4 1_555 1_555
H8_4 C25_4 1_555 1_555
C26_4 C7_4 1_555 1_555
H9_4 C26_4 1_555 1_555
C27_4 C9_4 1_555 1_555
H10_4 C27_4 1_555 1_555
C28_4 C12_5 1_555 1_555
H11_4 C28_4 1_555 1_555
C29_4 N3_4 1_555 1_555
C30_4 N1_4 1_555 1_555
C31_4 C24_4 1_555 1_555
C32_4 C21_4 1_555 1_555
H12_4 C32_4 1_555 1_555
O67 C33_4 1_555 1_555
O25_4 Ni15_3 1_555 1_555
O81 C33_4 1_555 1_555
O84_2 C50_4 1_555 1_555
O90_2 C50_4 1_555 1_555
O36_4 Ni16_3 1_555 1_555
O39_4 Ni30_2 1_555 1_555
C33_4 C35_4 1_555 1_555
O41_4 Ni16_3 1_555 1_555
C35_4 C38_4 1_555 1_555
C38_4 H14_4 1_555 1_555
C42_4 O32_4 1_555 1_555
C43_4 C45_4 1_555 1_555
C44_4 C42_4 1_555 1_555
C45_4 C44_4 1_555 1_555
H16_4 C45_4 1_555 1_555
C46_4 O25_4 1_555 1_555
N7_4 N8_4 1_555 1_555
N8_4 C63_4 1_555 1_555
C50_4 C43_4 1_555 1_555
C53_4 C38_4 1_555 1_555
C54_4 C35_4 1_555 1_555
H18_4 C54_4 1_555 1_555
C56_4 C43_4 1_555 1_555
H19_4 C56_4 1_555 1_555
C60_4 C44_4 1_555 1_555
H23_4 C60_4 1_555 1_555
C61_4 N7_4 1_555 1_555
C63_4 C56_4 1_555 1_555
C64_4 C53_4 1_555 1_555
H24_4 C64_4 1_555 1_555
Ni24 O58_4 1_555 1_555
Ni32_2 O44_4 1_555 1_555
Ni40_2 O44_4 1_555 1_555
O73_3 C69_4 1_555 1_555
O48_4 Ni32_2 1_555 1_555
O76_3 C69_4 1_555 1_555
O79_3 C81_4 1_555 1_555
O88_3 C81_4 1_555 1_555
O56_4 Ni20 1_555 1_555
O58_4 C83_4 1_555 1_555
N9_4 N10_4 1_555 1_555
O61_4 Ni40_2 1_555 1_555
C66_4 H25_4 1_555 1_555
N10_4 C87_4 1_555 1_555
C68_4 O48_4 1_555 1_555
C69_4 C79_4 1_555 1_555
O63_4 Ni24 1_555 1_555
C71_4 C72_4 1_555 1_555
O64_4 Ni32_2 1_555 1_555
C72_4 H27_4 1_555 1_555
C73_4 C66_4 1_555 1_555
C79_4 C72_4 1_555 1_555
C80_4 C66_4 1_555 1_555
C81_4 C80_4 1_555 1_555
C83_4 O56_4 1_555 1_555
C84_4 C79_4 1_555 1_555
H29_4 C84_4 1_555 1_555
C87_4 C84_4 1_555 1_555
C89_4 C80_4 1_555 1_555
H32_4 C89_4 1_555 1_555
C90_4 C71_4 1_555 1_555
H33_4 C90_4 1_555 1_555
C91_4 C73_4 1_555 1_555
H34_4 C91_4 1_555 1_555
C94_4 N9_4 1_555 1_555
O15_4 C10_4 1_555 1_555
O17_4 C4_4 1_555 1_555
C4_4 C9_4 1_555 1_555
C7_4 C19_4 1_555 1_555
C22_4 C29_4 1_555 1_555
C23_4 C26_4 1_555 1_555
C25_4 C30_4 1_555 1_555
C27_4 C30_4 1_555 1_555
C28_4 C31_4 1_555 1_555
C29_4 C32_4 1_555 1_555
O36_4 C42_4 1_555 1_555
O39_4 C46_4 1_555 1_555
C46_4 C53_4 1_555 1_555
C54_4 C61_4 1_555 1_555
C60_4 C63_4 1_555 1_555
C61_4 C64_4 1_555 1_555
O59_4 C68_4 1_555 1_555
C68_4 C73_4 1_555 1_555
C71_4 C83_4 1_555 1_555
C87_4 C90_4 1_555 1_555
C89_4 C94_4 1_555 1_555
C91_4 C94_4 1_555 1_555
O41_4 H43_4 1_555 1_555
O41_4 H44_4 1_555 1_555
O61_4 H45_4 1_555 1_555
O61_4 H46_4 1_555 1_555
O64_4 H49_4 1_555 1_555
O20_4 H53_4 1_555 1_555
O20_4 H54_4 1_555 1_555
O19_4 H57_4 1_555 1_555
O19_4 H58_4 1_555 1_555
O22_4 H59_4 1_555 1_555
O22_4 H60_4 1_555 1_555
Ni20_3 O65_2 1_555 1_555
O77_2 C17_5 1_555 1_555
O86_2 C17_5 1_555 1_555
O21_5 Ni20_3 1_555 1_555
O72_2 C37_5 1_555 1_555
O75_2 C37_5 1_555 1_555
O35_2 C51_5 1_555 1_555
C37_5 C47_5 1_555 1_555
C40_5 H15_5 1_555 1_555
C47_5 C40_5 1_555 1_555
O68_3 C65_5 1_555 1_555
O73_2 C69_5 1_555 1_555
O76_2 C69_5 1_555 1_555
O82_3 C65_5 1_555 1_555
O56_5 Ni20_3 1_555 1_555
O58_5 C83_5 1_555 1_555
N9_5 N10_5 1_555 1_555
C66_5 H25_5 1_555 1_555
N10_5 C87_5 1_555 1_555
C69_5 C79_5 1_555 1_555
C71_5 C72_5 1_555 1_555
C72_5 H27_5 1_555 1_555
C73_5 C66_5 1_555 1_555
C79_5 C72_5 1_555 1_555
C80_5 C66_5 1_555 1_555
C83_5 O56_5 1_555 1_555
C84_5 C79_5 1_555 1_555
H29_5 C84_5 1_555 1_555
C87_5 C84_5 1_555 1_555
C89_5 C80_5 1_555 1_555
H32_5 C89_5 1_555 1_555
C90_5 C71_5 1_555 1_555
H33_5 C90_5 1_555 1_555
C91_5 C73_5 1_555 1_555
H34_5 C91_5 1_555 1_555
C94_5 N9_5 1_555 1_555
Ni24_3 O35_2 1_555 1_555
C71_5 C83_5 1_555 1_555
C87_5 C90_5 1_555 1_555
C89_5 C94_5 1_555 1_555
C91_5 C94_5 1_555 1_555
Ni24_3 O65_3 1_555 1_555
Ni17_2 O44_5 1_555 1_555
Ni32 O44_5 1_555 1_555
Ni40 O44_5 1_555 1_555
O46_2 C78_5 1_555 1_555
O48_5 Ni32 1_555 1_555
O85 C82_5 1_555 1_555
O53_5 Ni40 1_555 1_555
O91 C82_5 1_555 1_555
O57_5 Ni17_2 1_555 1_555
O59_5 Ni17_2 1_555 1_555
O60_2 C78_5 1_555 1_555
O61_5 Ni40 1_555 1_555
O62_5 Ni17_2 1_555 1_555
C67_5 C70_5 1_555 1_555
C68_5 O48_5 1_555 1_555
C70_5 H26_5 1_555 1_555
O64_5 Ni32 1_555 1_555
C74_5 O53_5 1_555 1_555
C75_5 C77_5 1_555 1_555
C76_6 C74_5 1_555 1_555
C77_5 C76_6 1_555 1_555
H28_5 C77_5 1_555 1_555
C78_5 C85_5 1_555 1_555
N11_5 N12_5 1_555 1_555
N12_5 C95_5 1_555 1_555
C82_5 C75_5 1_555 1_555
C85_5 C70_5 1_555 1_555
C86_5 C67_5 1_555 1_555
H30_5 C86_5 1_555 1_555
C88_5 C75_5 1_555 1_555
H31_5 C88_5 1_555 1_555
C92_5 C76_6 1_555 1_555
H35_5 C92_5 1_555 1_555
C93_5 N11_5 1_555 1_555
C95_5 C88_5 1_555 1_555
C96_5 C85_5 1_555 1_555
H36_5 C96_5 1_555 1_555
Ni16_2 O46_2 1_555 1_555
Ni31 O60_2 1_555 1_555
O69_2 Ni17_2 1_555 1_555
O94_2 Ni32 1_555 1_555
O57_5 C74_5 1_555 1_555
O59_5 C68_5 1_555 1_555
C86_5 C93_5 1_555 1_555
C92_5 C95_5 1_555 1_555
C93_5 C96_5 1_555 1_555
O61_5 H45_5 1_555 1_555
O61_5 H46_5 1_555 1_555
O62_5 H47_5 1_555 1_555
O64_5 H49_5 1_555 1_555
O64_5 H50_5 1_555 1_555
O79_2 C81_5 1_555 1_555
O88_2 C81_5 1_555 1_555
O63_5 Ni24_3 1_555 1_555
O66_3 C1_5 1_555 1_555
O80_3 C1_5 1_555 1_555
N1_5 N2_5 1_555 1_555
C2_5 H1_5 1_555 1_555
N2_5 C23_5 1_555 1_555
C9_5 C2_5 1_555 1_555
C16_5 C2_5 1_555 1_555
H5_5 C20_5 1_555 1_555
C23_5 C20_5 1_555 1_555
C25_5 C16_5 1_555 1_555
H8_5 C25_5 1_555 1_555
C26_5 C7_5 1_555 1_555
H9_5 C26_5 1_555 1_555
C27_5 C9_5 1_555 1_555
H10_5 C27_5 1_555 1_555
C30_5 N1_5 1_555 1_555
Ni22_3 O37_5 1_555 1_555
O67_3 C33_5 1_555 1_555
O78_2 C49_5 1_555 1_555
O81_3 C33_5 1_555 1_555
O87_2 C49_5 1_555 1_555
N5_5 N6_5 1_555 1_555
C34_5 H13_5 1_555 1_555
N6_5 C55_5 1_555 1_555
O42_5 Ni22_3 1_555 1_555
C41_5 C34_5 1_555 1_555
C48_5 C34_5 1_555 1_555
C49_5 C48_5 1_555 1_555
H17_5 C52_5 1_555 1_555
C55_5 C52_5 1_555 1_555
C57_5 C48_5 1_555 1_555
H20_5 C57_5 1_555 1_555
C58_5 C39_5 1_555 1_555
H21_5 C58_5 1_555 1_555
C59_5 C41_5 1_555 1_555
H22_5 C59_5 1_555 1_555
C62_5 N5_5 1_555 1_555
O65_5 Ni22_3 1_555 1_555
O92_2 Ni22_3 1_555 1_555
C23_5 C26_5 1_555 1_555
C25_5 C30_5 1_555 1_555
C27_5 C30_5 1_555 1_555
C55_5 C58_5 1_555 1_555
C57_5 C62_5 1_555 1_555
C59_5 C62_5 1_555 1_555
Ni15_2 O2_5 1_555 1_555
Ni30 O2_5 1_555 1_555
Ni38 O2_5 1_555 1_555
O69_2 C14_5 1_555 1_555
O6_5 Ni30 1_555 1_555
O83 C18_5 1_555 1_555
O11_5 Ni38 1_555 1_555
O89 C18_5 1_555 1_555
O15_5 Ni15_2 1_555 1_555
O17_5 Ni15_2 1_555 1_555
O94_2 C14_5 1_555 1_555
O19_5 Ni38 1_555 1_555
O20_5 Ni15_2 1_555 1_555
C3_5 C6_5 1_555 1_555
C4_5 O6_5 1_555 1_555
C6_5 H2_5 1_555 1_555
O22_5 Ni30 1_555 1_555
C10_5 O11_5 1_555 1_555
C11_5 C13_5 1_555 1_555
C12_6 C10_5 1_555 1_555
C13_5 C12_6 1_555 1_555
H4_5 C13_5 1_555 1_555
C14_5 C21_5 1_555 1_555
N3_5 N4_5 1_555 1_555
N4_5 C31_5 1_555 1_555
C18_5 C11_5 1_555 1_555
C21_5 C6_5 1_555 1_555
C22_5 C3_5 1_555 1_555
H6_5 C22_5 1_555 1_555
C24_5 C11_5 1_555 1_555
H7_5 C24_5 1_555 1_555
C28_5 C12_6 1_555 1_555
H11_5 C28_5 1_555 1_555
C29_5 N3_5 1_555 1_555
C31_5 C24_5 1_555 1_555
C32_5 C21_5 1_555 1_555
H12_5 C32_5 1_555 1_555
Ni16_2 O23_5 1_555 1_555
Ni31 O23_5 1_555 1_555
Ni39 O23_5 1_555 1_555
O25_5 Ni15_2 1_555 1_555
O27_5 Ni31 1_555 1_555
O84 C50_5 1_555 1_555
O32_5 Ni39 1_555 1_555
O90 C50_5 1_555 1_555
O36_5 Ni16_2 1_555 1_555
O38_5 Ni16_2 1_555 1_555
O39_5 Ni30 1_555 1_555
O40_5 Ni39 1_555 1_555
O41_5 Ni16_2 1_555 1_555
C35_5 C38_5 1_555 1_555
C36_5 O27_5 1_555 1_555
C38_5 H14_5 1_555 1_555
O43_5 Ni31 1_555 1_555
C42_5 O32_5 1_555 1_555
C43_5 C45_5 1_555 1_555
C44_5 C42_5 1_555 1_555
C45_5 C44_5 1_555 1_555
H16_5 C45_5 1_555 1_555
C46_5 O25_5 1_555 1_555
N7_5 N8_5 1_555 1_555
N8_5 C63_5 1_555 1_555
C50_5 C43_5 1_555 1_555
C53_5 C38_5 1_555 1_555
C54_5 C35_5 1_555 1_555
H18_5 C54_5 1_555 1_555
C56_5 C43_5 1_555 1_555
H19_5 C56_5 1_555 1_555
C60_5 C44_5 1_555 1_555
H23_5 C60_5 1_555 1_555
C61_5 N7_5 1_555 1_555
C63_5 C56_5 1_555 1_555
C64_5 C53_5 1_555 1_555
H24_5 C64_5 1_555 1_555
O15_5 C10_5 1_555 1_555
O17_5 C4_5 1_555 1_555
C22_5 C29_5 1_555 1_555
C28_5 C31_5 1_555 1_555
C29_5 C32_5 1_555 1_555
O36_5 C42_5 1_555 1_555
O38_5 C36_5 1_555 1_555
O39_5 C46_5 1_555 1_555
C46_5 C53_5 1_555 1_555
C54_5 C61_5 1_555 1_555
C60_5 C63_5 1_555 1_555
C61_5 C64_5 1_555 1_555
O40_5 H37_5 1_555 1_555
O40_5 H38_5 1_555 1_555
O43_5 H41_5 1_555 1_555
O43_5 H42_5 1_555 1_555
O41_5 H43_5 1_555 1_555
O20_5 H53_5 1_555 1_555
O19_5 H57_5 1_555 1_555
O19_5 H58_5 1_555 1_555
O22_5 H59_5 1_555 1_555
O22_5 H60_5 1_555 1_555
O71_2 C5_5 1_555 1_555
O74_2 C5_5 1_555 1_555
O92_2 C19_5 1_555 1_555
C5_5 C15_5 1_555 1_555
C8_5 H3_5 1_555 1_555
C15_5 C8_5 1_555 1_555
O68_2 C65_6 1_555 1_555
O46_3 C78_6 1_555 1_555
O60_3 C78_6 1_555 1_555
C65_6 C67_6 1_555 1_555
C67_6 C70_6 1_555 1_555
C70_6 H26_6 1_555 1_555
C78_6 C85_6 1_555 1_555
C85_6 C70_6 1_555 1_555
Ni16 O46_3 1_555 1_555
Ni28 O60_3 1_555 1_555
Ni16 O23_6 1_555 1_555
Ni22_2 O37_6 1_555 1_555
Ni28 O23_6 1_555 1_555
Ni35 O23_6 1_555 1_555
O72 C37_6 1_555 1_555
O27_6 Ni28 1_555 1_555
O75 C37_6 1_555 1_555
O78 C49_6 1_555 1_555
O84_3 C50_6 1_555 1_555
O32_6 Ni35 1_555 1_555
O87 C49_6 1_555 1_555
O90_3 C50_6 1_555 1_555
O35_3 C51_6 1_555 1_555
O36_6 Ni16 1_555 1_555
O37_6 C51_6 1_555 1_555
O38_6 Ni16 1_555 1_555
N5_6 N6_6 1_555 1_555
O40_6 Ni35 1_555 1_555
O41_6 Ni16 1_555 1_555
C34_6 H13_6 1_555 1_555
N6_6 C55_6 1_555 1_555
C36_6 O27_6 1_555 1_555
C37_6 C47_6 1_555 1_555
O42_6 Ni22_2 1_555 1_555
C39_6 C40_6 1_555 1_555
O43_6 Ni28 1_555 1_555
C40_6 H15_6 1_555 1_555
C41_6 C34_6 1_555 1_555
C42_6 O32_6 1_555 1_555
C43_6 C45_6 1_555 1_555
C44_6 C42_6 1_555 1_555
C45_6 C44_6 1_555 1_555
H16_6 C45_6 1_555 1_555
N7_6 N8_6 1_555 1_555
C47_6 C40_6 1_555 1_555
N8_6 C63_6 1_555 1_555
C48_6 C34_6 1_555 1_555
C49_6 C48_6 1_555 1_555
C50_6 C43_6 1_555 1_555
C51_6 C39_6 1_555 1_555
C52_6 C47_6 1_555 1_555
H17_6 C52_6 1_555 1_555
H18_6 C54_6 1_555 1_555
C55_6 C52_6 1_555 1_555
C56_6 C43_6 1_555 1_555
H19_6 C56_6 1_555 1_555
C57_6 C48_6 1_555 1_555
H20_6 C57_6 1_555 1_555
C58_6 C39_6 1_555 1_555
H21_6 C58_6 1_555 1_555
C59_6 C41_6 1_555 1_555
H22_6 C59_6 1_555 1_555
C60_6 C44_6 1_555 1_555
H23_6 C60_6 1_555 1_555
C61_6 N7_6 1_555 1_555
C62_6 N5_6 1_555 1_555
C63_6 C56_6 1_555 1_555
H24_6 C64_6 1_555 1_555
O85_3 C82_6 1_555 1_555
O91_3 C82_6 1_555 1_555
C75_6 C77_6 1_555 1_555
C77_6 C76_7 1_555 1_555
H28_6 C77_6 1_555 1_555
N11_6 N12_6 1_555 1_555
N12_6 C95_6 1_555 1_555
C82_6 C75_6 1_555 1_555
H30_6 C86_6 1_555 1_555
C88_6 C75_6 1_555 1_555
H31_6 C88_6 1_555 1_555
C92_6 C76_7 1_555 1_555
H35_6 C92_6 1_555 1_555
C93_6 N11_6 1_555 1_555
C95_6 C88_6 1_555 1_555
H36_6 C96_6 1_555 1_555
Ni24_2 O35_3 1_555 1_555
O65_6 Ni22_2 1_555 1_555
O92_3 Ni22_2 1_555 1_555
O36_6 C42_6 1_555 1_555
O38_6 C36_6 1_555 1_555
C36_6 C41_6 1_555 1_555
C54_6 C61_6 1_555 1_555
C55_6 C58_6 1_555 1_555
C57_6 C62_6 1_555 1_555
C59_6 C62_6 1_555 1_555
C60_6 C63_6 1_555 1_555
C61_6 C64_6 1_555 1_555
C86_6 C93_6 1_555 1_555
C92_6 C95_6 1_555 1_555
C93_6 C96_6 1_555 1_555
Ni24_2 O65_6 1_555 1_555
O40_6 H37_6 1_555 1_555
O40_6 H38_6 1_555 1_555
O43_6 H41_6 1_555 1_555
O43_6 H42_6 1_555 1_555
O41_6 H43_6 1_555 1_555
O41_6 H44_6 1_555 1_555
Ni15 O2_6 1_555 1_555
Ni20_2 O65_6 1_555 1_555
Ni27 O2_6 1_555 1_555
Ni34 O2_6 1_555 1_555
O71 C5_6 1_555 1_555
O6_6 Ni27 1_555 1_555
O74 C5_6 1_555 1_555
O77 C17_6 1_555 1_555
O11_6 Ni34 1_555 1_555
O86 C17_6 1_555 1_555
O92_3 C19_6 1_555 1_555
O15_6 Ni15 1_555 1_555
O16_6 Ni20_2 1_555 1_555
O17_6 Ni15 1_555 1_555
N1_6 N2_6 1_555 1_555
O19_6 Ni34 1_555 1_555
O20_6 Ni15 1_555 1_555
C2_6 H1_6 1_555 1_555
N2_6 C23_6 1_555 1_555
C4_6 O6_6 1_555 1_555
C5_6 C15_6 1_555 1_555
O21_6 Ni20_2 1_555 1_555
C7_6 C8_6 1_555 1_555
O22_6 Ni27 1_555 1_555
C8_6 H3_6 1_555 1_555
C9_6 C2_6 1_555 1_555
C10_6 O11_6 1_555 1_555
C12_7 C10_6 1_555 1_555
C15_6 C8_6 1_555 1_555
C16_6 C2_6 1_555 1_555
C17_6 C16_6 1_555 1_555
C19_6 O16_6 1_555 1_555
C20_6 C15_6 1_555 1_555
H5_6 C20_6 1_555 1_555
C23_6 C20_6 1_555 1_555
C25_6 C16_6 1_555 1_555
H8_6 C25_6 1_555 1_555
C26_6 C7_6 1_555 1_555
H9_6 C26_6 1_555 1_555
C27_6 C9_6 1_555 1_555
H10_6 C27_6 1_555 1_555
C30_6 N1_6 1_555 1_555
O67_2 C33_6 1_555 1_555
O25_6 Ni15 1_555 1_555
O39_6 Ni27 1_555 1_555
C33_6 C35_6 1_555 1_555
C35_6 C38_6 1_555 1_555
C38_6 H14_6 1_555 1_555
C46_6 O25_6 1_555 1_555
C53_6 C38_6 1_555 1_555
Ni17 O44_6 1_555 1_555
Ni24_2 O58_6 1_555 1_555
Ni29 O44_6 1_555 1_555
Ni37 O44_6 1_555 1_555
O73 C69_6 1_555 1_555
O48_6 Ni29 1_555 1_555
O76 C69_6 1_555 1_555
O79 C81_6 1_555 1_555
O53_6 Ni37 1_555 1_555
O88 C81_6 1_555 1_555
O56_6 Ni20_2 1_555 1_555
O57_6 Ni17 1_555 1_555
O58_6 C83_6 1_555 1_555
O59_6 Ni17 1_555 1_555
N9_6 N10_6 1_555 1_555
O61_6 Ni37 1_555 1_555
O62_6 Ni17 1_555 1_555
C66_6 H25_6 1_555 1_555
N10_6 C87_6 1_555 1_555
C68_6 O48_6 1_555 1_555
C69_6 C79_6 1_555 1_555
O63_6 Ni24_2 1_555 1_555
C71_6 C72_6 1_555 1_555
O64_6 Ni29 1_555 1_555
C72_6 H27_6 1_555 1_555
C73_6 C66_6 1_555 1_555
C74_6 O53_6 1_555 1_555
C76_8 C74_6 1_555 1_555
C79_6 C72_6 1_555 1_555
C80_6 C66_6 1_555 1_555
C81_6 C80_6 1_555 1_555
C83_6 O56_6 1_555 1_555
C84_6 C79_6 1_555 1_555
H29_6 C84_6 1_555 1_555
C87_6 C84_6 1_555 1_555
C89_6 C80_6 1_555 1_555
H32_6 C89_6 1_555 1_555
C90_6 C71_6 1_555 1_555
H33_6 C90_6 1_555 1_555
C91_6 C73_6 1_555 1_555
H34_6 C91_6 1_555 1_555
C94_6 N9_6 1_555 1_555
O69_3 Ni17 1_555 1_555
O94_3 Ni29 1_555 1_555
O15_6 C10_6 1_555 1_555
O17_6 C4_6 1_555 1_555
C4_6 C9_6 1_555 1_555
C7_6 C19_6 1_555 1_555
C23_6 C26_6 1_555 1_555
C25_6 C30_6 1_555 1_555
C27_6 C30_6 1_555 1_555
O39_6 C46_6 1_555 1_555
C46_6 C53_6 1_555 1_555
O57_6 C74_6 1_555 1_555
O59_6 C68_6 1_555 1_555
C68_6 C73_6 1_555 1_555
C71_6 C83_6 1_555 1_555
C87_6 C90_6 1_555 1_555
C89_6 C94_6 1_555 1_555
C91_6 C94_6 1_555 1_555
O61_6 H45_6 1_555 1_555
O61_6 H46_6 1_555 1_555
O62_6 H47_6 1_555 1_555
O62_6 H48_6 1_555 1_555
O64_6 H49_6 1_555 1_555
O64_6 H50_6 1_555 1_555
O20_6 H53_6 1_555 1_555
O20_6 H54_6 1_555 1_555
O19_6 H57_6 1_555 1_555
O19_6 H58_6 1_555 1_555
O22_6 H59_6 1_555 1_555
O22_6 H60_6 1_555 1_555
O66_2 C1_6 1_555 1_555
O69_3 C14_6 1_555 1_555
O80_2 C1_6 1_555 1_555
O83_3 C18_6 1_555 1_555
O89_3 C18_6 1_555 1_555
O94_3 C14_6 1_555 1_555
C1_6 C3_6 1_555 1_555
C3_6 C6_6 1_555 1_555
C6_6 H2_6 1_555 1_555
C11_6 C13_6 1_555 1_555
C13_6 C12_8 1_555 1_555
H4_6 C13_6 1_555 1_555
C14_6 C21_6 1_555 1_555
N3_6 N4_6 1_555 1_555
N4_6 C31_6 1_555 1_555
C18_6 C11_6 1_555 1_555
C21_6 C6_6 1_555 1_555
C22_6 C3_6 1_555 1_555
H6_6 C22_6 1_555 1_555
C24_6 C11_6 1_555 1_555
H7_6 C24_6 1_555 1_555
C28_6 C12_8 1_555 1_555
H11_6 C28_6 1_555 1_555
C29_6 N3_6 1_555 1_555
C31_6 C24_6 1_555 1_555
C32_6 C21_6 1_555 1_555
H12_6 C32_6 1_555 1_555
C22_6 C29_6 1_555 1_555
C28_6 C31_6 1_555 1_555
C29_6 C32_6 1_555 1_555

#END
