
###############################################################################
#
# This file contains modified crystal structure data generated from the
# MOF subset of the Cambridge Structural Database (CSD) v543 
# hosted by the Cambridge Crystallographic Data Centre (CCDC).
#
# This work is licensed under the Creative Commons
# Attribution-NonCommercial-ShareAlike 4.0 International License.
# To view a copy of this license, visit
# http://creativecommons.org/licenses/by-nc-sa/4.0/
# or send a letter to
# Creative Commons, PO Box 1866, Mountain View, CA 94042, USA.
#
# CIF created using the CSD Python API on 29 September 2022
# The structure has been converted into the P1 space group
# The structure has a 3D framework
# The original CSD entry LEDLAJ is in the tetragonal crystal system
# The framework has been calculated to contain at least 10.0% void space
# The void calculation uses a probe of radius 1.32A, grid spacing 0.4
#
###############################################################################

data_LEDLAJ
_chemical_formula_moiety         '(C464 H352 N48 O96 Zn16)n'
_symmetry_cell_setting           triclinic
_symmetry_space_group_name_H-M   'P 1'
_symmetry_Int_Tables_number      1
_space_group_name_Hall           'P 1'
loop_
_symmetry_equiv_pos_site_id
_symmetry_equiv_pos_as_xyz
1 x,y,z
_cell_length_a                   27.32(3)
_cell_length_b                   27.32(3)
_cell_length_c                   17.20(2)
_cell_angle_alpha                90
_cell_angle_beta                 90
_cell_angle_gamma                90
_cell_volume                     12837.8
loop_
_atom_site_label
_atom_site_type_symbol
_atom_site_fract_x
_atom_site_fract_y
_atom_site_fract_z
N5 N 0.1003(6) 0.0963(5) 0.1732(10)
C45 C 0.2700(4) 0.0159(4) 0.1871(6)
H34 H 0.2765 0.0462 0.1650
C46 C 0.2229(3) 0.0035(3) 0.2063(6)
C49 C 0.1814(3) 0.0356(3) 0.1958(7)
C50 C 0.1790(4) 0.0682(4) 0.1374(8)
H37 H 0.2052 0.0711 0.1032
C51 C 0.1380(6) 0.0977(4) 0.1272(10)
H38 H 0.1376 0.1194 0.0856
C52 C 0.1021(4) 0.0664(6) 0.2288(11)
H39 H 0.0754 0.0649 0.2622
C53 C 0.1430(5) 0.0341(4) 0.2444(8)
H40 H 0.1427 0.0130 0.2869
Zn2 Zn 0.35515(4) 0.89084(4) 0.24736(7)
O7 O 0.3329(3) 0.8570(3) 0.1538(5)
O8 O 0.3849(3) 0.9063(3) 0.1049(5)
O11 O 0.3783(3) 0.9264(2) 0.3393(4)
O13 O 0.3088(3) 0.8463(3) 0.3386(6)
H23 H 0.2845 0.8340 0.3196
H24 H 0.3050 0.8673 0.3751
N4 N 0.3015(3) 0.9384(3) 0.2304(5)
N7 N 0.4088(3) 0.8404(3) 0.2539(4)
C30 C 0.3561(5) 0.8724(5) 0.1003(9)
C31 C 0.3510(4) 0.8480(4) 0.0207(7)
C36 C 0.3204(4) 0.8106(4) 0.0124(7)
H28 H 0.3028 0.7986 0.0546
C44 C 0.3071(4) 0.9842(4) 0.2002(6)
H33 H 0.3386 0.9943 0.1878
C47 C 0.2170(4) 0.9564(4) 0.2392(7)
H35 H 0.1861 0.9458 0.2539
C48 C 0.2558(4) 0.9270(4) 0.2494(7)
H36 H 0.2503 0.8964 0.2713
Zn3 Zn 0.64084(4) 0.39485(4) 0.99736(7)
Zn1 Zn 0.35916(4) 0.10515(4) 0.99736(7)
O1 O 0.3930(3) 0.0829(3) 0.9038(5)
O2 O 0.3437(3) 0.1349(3) 0.8549(5)
O3 O 0.4666(3) 0.0871(3) 0.5583(5)
N1 N 0.3116(3) 0.0515(3) 0.9804(5)
C1 C 0.3776(5) 0.1061(5) 0.8503(9)
C2 C 0.4020(4) 0.1010(4) 0.7707(7)
C3 C 0.3832(4) 0.1244(4) 0.7073(10)
H3 H 0.3558 0.1443 0.7121
C4 C 0.4060(6) 0.1180(5) 0.6346(9)
H4 H 0.3940 0.1345 0.5912
C5 C 0.4426(6) 0.0900(6) 0.6281(8)
C6 C 0.4606(4) 0.0653(4) 0.6882(11)
H5 H 0.4873 0.0446 0.6813
C7 C 0.4394(4) 0.0704(4) 0.7624(7)
H6 H 0.4514 0.0528 0.8046
C8 C 0.4510(5) 0.0532(4) 0.5026(9)
C9 C 0.4194(4) 0.0168(4) 0.5210(7)
H7 H 0.4072 0.0128 0.5711
C12 C 0.4541(4) 0.0305(4) 0.3757(7)
H9 H 0.4656 0.0356 0.3254
C13 C 0.4688(5) 0.0610(4) 0.4319(7)
H10 H 0.4905 0.0865 0.4219
C15 C 0.2658(4) 0.0571(4) 0.9502(6)
H11 H 0.2557 0.0886 0.9378
C16 C 0.2341(4) 0.0200(4) 0.9371(6)
H12 H 0.2038 0.0265 0.9150
C19 C 0.3230(4) 0.0058(4) 0.9994(7)
C25 C 0.4002(3) 0.2028(4) 0.9886(6)
H19 H 0.3680 0.2105 0.9765
C26 C 0.4330(4) 0.2401(4) 0.9880(7)
H20 H 0.4226 0.2720 0.9797
C27 C 0.4816(3) 0.2302(3) 0.9999(5)
C54 C 0.5998(3) 0.2972(4) 0.9886(6)
H41 H 0.6320 0.2895 0.9765
C55 C 0.5670(4) 0.2599(4) 0.9880(7)
H42 H 0.5774 0.2280 0.9797
C56 C 0.5184(3) 0.2698(3) 0.9999(5)
O5 O 0.4222(3) 0.9673(3) 0.2562(5)
N2 N 0.1537(5) 0.8503(6) 0.9232(10)
C10 C 0.4064(3) 0.9866(4) 0.4618(7)
H8 H 0.3851 0.9609 0.4723
C11 C 0.4229(3) 0.9921(3) 0.3889(7)
C14 C 0.4075(4) 0.9604(4) 0.3253(8)
C17 C 0.2465(3) 0.9729(3) 0.9563(6)
C18 C 0.2936(4) 0.9670(4) 0.9892(7)
C20 C 0.2144(3) 0.9314(3) 0.9458(7)
C21 C 0.1818(4) 0.9290(4) 0.8874(8)
H15 H 0.1789 0.9552 0.8532
C22 C 0.1523(4) 0.8880(6) 0.8772(10)
H16 H 0.1306 0.8876 0.8356
C23 C 0.1836(6) 0.8521(4) 0.9788(11)
C24 C 0.2159(4) 0.8930(5) 0.9944(8)
Zn1_2 Zn 0.64485(4) 0.60916(4) 0.24736(7)
O1_2 O 0.6671(3) 0.6430(3) 0.1538(5)
O2_2 O 0.6151(3) 0.5937(3) 0.1049(5)
O6 O 0.6912(3) 0.6537(3) 0.3386(6)
H1 H 0.7155 0.6660 0.3196
H2 H 0.6950 0.6327 0.3751
N1_2 N 0.6985(3) 0.5616(3) 0.2304(5)
N2_2 N 0.8997(6) 0.4037(5) 0.1732(10)
N3 N 0.5912(3) 0.6596(3) 0.2539(4)
C1_2 C 0.6439(5) 0.6276(5) 0.1003(9)
C2_2 C 0.6490(4) 0.6520(4) 0.0207(7)
C7_2 C 0.6796(4) 0.6894(4) 0.0124(7)
H6_2 H 0.6972 0.7014 0.0546
C15_2 C 0.6929(4) 0.5158(4) 0.2002(6)
H11_2 H 0.6614 0.5057 0.1878
C16_2 C 0.7300(4) 0.4841(4) 0.1871(6)
H12_2 H 0.7235 0.4538 0.1650
C17_2 C 0.7771(3) 0.4965(3) 0.2063(6)
C18_2 C 0.7830(4) 0.5436(4) 0.2392(7)
H13 H 0.8139 0.5542 0.2539
C19_2 C 0.7442(4) 0.5730(4) 0.2494(7)
H14 H 0.7497 0.6036 0.2713
C20_2 C 0.8186(3) 0.4644(3) 0.1958(7)
C21_2 C 0.8210(4) 0.4318(4) 0.1374(8)
H15_2 H 0.7948 0.4289 0.1032
C22_2 C 0.8620(6) 0.4023(4) 0.1272(10)
H16_2 H 0.8624 0.3806 0.0856
C23_2 C 0.8979(4) 0.4336(6) 0.2288(11)
H17 H 0.9246 0.4351 0.2622
C24_2 C 0.8570(5) 0.4659(4) 0.2444(8)
H18 H 0.8573 0.4870 0.2869
C25_2 C 0.5472(4) 0.6502(3) 0.2386(6)
H19_2 H 0.5395 0.6180 0.2265
C26_2 C 0.5099(4) 0.6830(4) 0.2380(7)
H20_2 H 0.4780 0.6726 0.2297
C27_2 C 0.5198(3) 0.7316(3) 0.2499(5)
C28 C 0.5678(4) 0.7419(4) 0.2646(7)
H21 H 0.5774 0.7740 0.2745
C29 C 0.6010(4) 0.7062(4) 0.2648(7)
H22 H 0.6335 0.7149 0.2732
O7_2 O 0.6070(3) 0.4171(3) 0.9038(5)
O8_2 O 0.6563(3) 0.3651(3) 0.8549(5)
O9 O 0.5334(3) 0.4129(3) 0.5583(5)
O10 O 0.6217(3) 0.5736(2) 0.3393(4)
O12 O 0.5778(3) 0.5327(3) 0.2562(5)
N4_2 N 0.6884(3) 0.4485(3) 0.9804(5)
N5_2 N 0.8463(5) 0.6497(6) 0.9232(10)
C30_2 C 0.6224(5) 0.3939(5) 0.8503(9)
C31_2 C 0.5980(4) 0.3990(4) 0.7707(7)
C32 C 0.6168(4) 0.3756(4) 0.7073(10)
H25 H 0.6442 0.3557 0.7121
C33 C 0.5940(6) 0.3820(5) 0.6346(9)
H26 H 0.6060 0.3655 0.5912
C34 C 0.5574(6) 0.4100(6) 0.6281(8)
C35 C 0.5394(4) 0.4347(4) 0.6882(11)
H27 H 0.5127 0.4554 0.6813
C36_2 C 0.5606(4) 0.4296(4) 0.7624(7)
H28_2 H 0.5486 0.4472 0.8046
C37 C 0.5490(5) 0.4468(4) 0.5026(9)
C38 C 0.5806(4) 0.4832(4) 0.5210(7)
H29 H 0.5928 0.4872 0.5711
C39 C 0.5936(3) 0.5134(4) 0.4618(7)
H30 H 0.6149 0.5391 0.4723
C40 C 0.5771(3) 0.5079(3) 0.3889(7)
C41 C 0.5459(4) 0.4695(4) 0.3757(7)
H31 H 0.5344 0.4644 0.3254
C42 C 0.5312(5) 0.4390(4) 0.4319(7)
H32 H 0.5095 0.4135 0.4219
C43 C 0.5925(4) 0.5396(4) 0.3253(8)
C44_2 C 0.7342(4) 0.4429(4) 0.9502(6)
H33_2 H 0.7443 0.4114 0.9378
C45_2 C 0.7659(4) 0.4800(4) 0.9371(6)
H34_2 H 0.7962 0.4735 0.9150
C46_2 C 0.7535(3) 0.5271(3) 0.9563(6)
C47_2 C 0.7064(4) 0.5330(4) 0.9892(7)
C48_2 C 0.6770(4) 0.4942(4) 0.9994(7)
C49_2 C 0.7856(3) 0.5686(3) 0.9458(7)
C50_2 C 0.8182(4) 0.5710(4) 0.8874(8)
H37_2 H 0.8211 0.5448 0.8532
C51_2 C 0.8477(4) 0.6120(6) 0.8772(10)
H38_2 H 0.8694 0.6124 0.8356
C52_2 C 0.8164(6) 0.6479(4) 0.9788(11)
C53_2 C 0.7841(4) 0.6070(5) 0.9944(8)
C54_2 C 0.4528(4) 0.8498(3) 0.2386(6)
H41_2 H 0.4605 0.8820 0.2265
C55_2 C 0.4901(4) 0.8170(4) 0.2380(7)
H42_2 H 0.5220 0.8274 0.2297
C56_2 C 0.4802(3) 0.7684(3) 0.2499(5)
C57 C 0.4322(4) 0.7581(4) 0.2646(7)
H43 H 0.4226 0.7260 0.2745
C58 C 0.3990(4) 0.7938(4) 0.2648(7)
H44 H 0.3665 0.7851 0.2732
N2_3 N 0.3463(5) 0.1497(6) 0.4232(10)
C17_3 C 0.2535(3) 0.0271(3) 0.4563(6)
C18_3 C 0.2064(4) 0.0330(4) 0.4892(7)
H13_2 H 0.1958 0.0639 0.5039
C20_3 C 0.2856(3) 0.0686(3) 0.4458(7)
C21_3 C 0.3182(4) 0.0710(4) 0.3874(8)
H15_3 H 0.3211 0.0448 0.3532
C22_3 C 0.3477(4) 0.1120(6) 0.3772(10)
H16_3 H 0.3694 0.1124 0.3356
C23_3 C 0.3164(6) 0.1479(4) 0.4788(11)
H17_2 H 0.3149 0.1746 0.5122
C24_3 C 0.2841(4) 0.1070(5) 0.4944(8)
H18_2 H 0.2630 0.1073 0.5369
O4 O 0.1217(3) 0.0736(2) 0.8393(4)
O5_2 O 0.0778(3) 0.0327(3) 0.7562(5)
C10_2 C 0.0936(3) 0.0134(4) 0.9618(7)
H8_2 H 0.1149 0.0391 0.9723
C11_2 C 0.0771(3) 0.0079(3) 0.8889(7)
C14_2 C 0.0925(4) 0.0396(4) 0.8253(8)
Zn3_2 Zn 0.14485(4) 0.10916(4) 0.74736(7)
H20_3 H 0.0220 0.3274 0.7297
N6 N 0.0912(3) 0.1596(3) 0.7539(4)
C54_3 C 0.0472(4) 0.1502(3) 0.7386(6)
H41_3 H 0.0395 0.1180 0.7265
C55_3 C 0.0099(4) 0.1830(4) 0.7380(7)
C56_3 C 0.0198(3) 0.2316(3) 0.7499(5)
C57_2 C 0.0678(4) 0.2419(4) 0.7646(7)
H43_2 H 0.0774 0.2740 0.7745
C58_2 C 0.1010(4) 0.2062(4) 0.7648(7)
H44_2 H 0.1335 0.2149 0.7732
Zn1_3 Zn 0.85515(4) 0.39084(4) 0.74736(7)
O1_3 O 0.8329(3) 0.3570(3) 0.6538(5)
O2_3 O 0.8849(3) 0.4063(3) 0.6049(5)
O3_2 O 0.8371(3) 0.2834(3) 0.3083(5)
O4_2 O 0.6764(2) 0.3717(3) 0.0893(4)
O5_3 O 0.7173(3) 0.3278(3) 0.0062(5)
O6_2 O 0.8088(3) 0.3463(3) 0.8386(6)
H1_2 H 0.7845 0.3340 0.8196
H2_2 H 0.8050 0.3673 0.8751
N1_3 N 0.8015(3) 0.4384(3) 0.7304(5)
N2_4 N 0.6003(6) 0.5963(5) 0.6732(10)
N3_2 N 0.9088(3) 0.3404(3) 0.7539(4)
C1_3 C 0.8561(5) 0.3724(5) 0.6003(9)
C2_3 C 0.8510(4) 0.3480(4) 0.5207(7)
C3_2 C 0.8744(4) 0.3668(4) 0.4573(10)
H3_2 H 0.8943 0.3942 0.4621
C4_2 C 0.8680(5) 0.3440(6) 0.3846(9)
H4_2 H 0.8845 0.3560 0.3412
C5_2 C 0.8400(6) 0.3074(6) 0.3781(8)
C6_2 C 0.8153(4) 0.2894(4) 0.4382(11)
H5_2 H 0.7946 0.2627 0.4313
C7_3 C 0.8204(4) 0.3106(4) 0.5124(7)
H6_3 H 0.8028 0.2986 0.5546
C8_2 C 0.8032(4) 0.2990(5) 0.2526(9)
C9_2 C 0.7668(4) 0.3306(4) 0.2710(7)
H7_2 H 0.7628 0.3428 0.3211
C10_3 C 0.7366(4) 0.3436(3) 0.2118(7)
H8_3 H 0.7109 0.3649 0.2223
C11_3 C 0.7421(3) 0.3271(3) 0.1389(7)
C12_2 C 0.7805(4) 0.2959(4) 0.1257(7)
H9_2 H 0.7856 0.2844 0.0754
C13_2 C 0.8110(4) 0.2812(5) 0.1819(7)
H10_2 H 0.8365 0.2595 0.1719
C14_3 C 0.7104(4) 0.3425(4) 0.0753(8)
C15_3 C 0.8071(4) 0.4842(4) 0.7002(6)
H11_3 H 0.8386 0.4943 0.6878
C16_3 C 0.7700(4) 0.5159(4) 0.6871(6)
H12_3 H 0.7765 0.5462 0.6650
C17_4 C 0.7229(3) 0.5035(3) 0.7063(6)
C18_4 C 0.7170(4) 0.4564(4) 0.7392(7)
H13_3 H 0.6861 0.4458 0.7539
C19_3 C 0.7558(4) 0.4270(4) 0.7494(7)
H14_2 H 0.7503 0.3964 0.7713
C20_4 C 0.6814(3) 0.5356(3) 0.6958(7)
C21_4 C 0.6790(4) 0.5682(4) 0.6374(8)
H15_4 H 0.7052 0.5711 0.6032
C22_4 C 0.6380(6) 0.5977(4) 0.6272(10)
H16_4 H 0.6376 0.6194 0.5856
C23_4 C 0.6021(4) 0.5664(6) 0.7288(11)
H17_3 H 0.5754 0.5649 0.7622
C24_4 C 0.6430(5) 0.5341(4) 0.7444(8)
H18_3 H 0.6427 0.5130 0.7869
C25_3 C 0.9528(4) 0.3498(3) 0.7386(6)
H19_3 H 0.9605 0.3820 0.7265
C26_3 C 0.9901(4) 0.3170(4) 0.7380(7)
C27_3 C 0.9802(3) 0.2684(3) 0.7499(5)
C28_2 C 0.9322(4) 0.2581(4) 0.7646(7)
H21_2 H 0.9226 0.2260 0.7745
C29_2 C 0.8990(4) 0.2938(4) 0.7648(7)
H22_2 H 0.8665 0.2851 0.7732
O10_2 O 0.8783(3) 0.4264(2) 0.8393(4)
O12_2 O 0.9222(3) 0.4673(3) 0.7562(5)
C39_2 C 0.9064(3) 0.4866(4) 0.9618(7)
H30_2 H 0.8851 0.4609 0.9723
C40_2 C 0.9229(3) 0.4921(3) 0.8889(7)
C41_2 C 0.9541(4) 0.5305(4) 0.8757(7)
H31_2 H 0.9656 0.5356 0.8254
C42_2 C 0.9688(5) 0.5610(4) 0.9319(7)
H32_2 H 0.9905 0.5865 0.9219
C43_2 C 0.9075(4) 0.4604(4) 0.8253(8)
H42_3 H 0.9780 0.1726 0.7297
O6_3 O 0.4037(3) 0.0588(3) 0.0886(6)
H1_3 H 0.4160 0.0345 0.0696
H2_3 H 0.3827 0.0550 0.1251
N3_3 N 0.4096(3) 0.1588(3) 0.0039(4)
H14_3 H 0.3536 0.0003 0.0213
C28_3 C 0.4919(4) 0.1822(4) 0.0146(7)
H21_3 H 0.5240 0.1726 0.0245
C29_3 C 0.4562(4) 0.1490(4) 0.0148(7)
H22_3 H 0.4649 0.1165 0.0232
O7_3 O 0.1671(3) 0.1430(3) 0.6538(5)
O8_3 O 0.1151(3) 0.0937(3) 0.6049(5)
O9_2 O 0.1629(3) 0.2166(3) 0.3083(5)
O10_3 O 0.3236(2) 0.1283(3) 0.0893(4)
O12_3 O 0.2827(3) 0.1722(3) 0.0062(5)
O13_2 O 0.1912(3) 0.1537(3) 0.8386(6)
H23_2 H 0.2155 0.1660 0.8196
H24_2 H 0.1950 0.1327 0.8751
N4_3 N 0.1985(3) 0.0616(3) 0.7304(5)
N6_2 N 0.5904(3) 0.3412(3) 0.0039(4)
C30_3 C 0.1439(5) 0.1276(5) 0.6003(9)
C31_3 C 0.1490(4) 0.1520(4) 0.5207(7)
C32_2 C 0.1256(4) 0.1332(4) 0.4573(10)
H25_2 H 0.1057 0.1058 0.4621
C33_2 C 0.1320(5) 0.1560(6) 0.3846(9)
H26_2 H 0.1155 0.1440 0.3412
C34_2 C 0.1600(6) 0.1926(6) 0.3781(8)
C35_2 C 0.1847(4) 0.2106(4) 0.4382(11)
H27_2 H 0.2054 0.2373 0.4313
C36_3 C 0.1796(4) 0.1894(4) 0.5124(7)
H28_3 H 0.1972 0.2014 0.5546
C37_2 C 0.1968(4) 0.2010(5) 0.2526(9)
C38_2 C 0.2332(4) 0.1694(4) 0.2710(7)
H29_2 H 0.2372 0.1572 0.3211
C39_3 C 0.2634(4) 0.1564(3) 0.2118(7)
H30_3 H 0.2891 0.1351 0.2223
C40_3 C 0.2579(3) 0.1729(3) 0.1389(7)
C41_3 C 0.2195(4) 0.2041(4) 0.1257(7)
H31_3 H 0.2144 0.2156 0.0754
C42_3 C 0.1890(4) 0.2188(5) 0.1819(7)
H32_3 H 0.1635 0.2405 0.1719
C43_3 C 0.2896(4) 0.1575(4) 0.0753(8)
C44_3 C 0.1929(4) 0.0158(4) 0.7002(6)
H33_3 H 0.1614 0.0057 0.6878
C47_3 C 0.2830(4) 0.0436(4) 0.7392(7)
H35_2 H 0.3139 0.0542 0.7539
C48_3 C 0.2442(4) 0.0730(4) 0.7494(7)
H36_2 H 0.2497 0.1036 0.7713
C57_3 C 0.5081(4) 0.3178(4) 0.0146(7)
H43_3 H 0.4760 0.3274 0.0245
C58_3 C 0.5438(4) 0.3510(4) 0.0148(7)
H44_3 H 0.5351 0.3835 0.0232
O13_3 O 0.5963(3) 0.4412(3) 0.0886(6)
H23_3 H 0.5840 0.4655 0.0696
H24_3 H 0.6173 0.4450 0.1251
H35_3 H 0.6958 0.5639 0.0039
H36_3 H 0.6464 0.4997 0.0213
H39_2 H 0.8149 0.6746 0.0122
H40_2 H 0.7630 0.6073 0.0369
Zn1_4 Zn 0.14084(4) 0.89485(4) 0.49736(7)
O1_4 O 0.1070(3) 0.9171(3) 0.4038(5)
O2_4 O 0.1563(3) 0.8651(3) 0.3549(5)
O3_3 O 0.0334(3) 0.9129(3) 0.0583(5)
O6_4 O 0.0963(3) 0.9412(3) 0.5886(6)
H1_4 H 0.0840 0.9655 0.5696
H2_4 H 0.1173 0.9450 0.6251
N1_4 N 0.1884(3) 0.9485(3) 0.4804(5)
N3_4 N 0.0904(3) 0.8412(3) 0.5039(4)
C1_4 C 0.1224(5) 0.8939(5) 0.3503(9)
C2_4 C 0.0980(4) 0.8990(4) 0.2707(7)
C3_3 C 0.1168(4) 0.8756(4) 0.2073(10)
H3_3 H 0.1442 0.8557 0.2121
C4_3 C 0.0940(6) 0.8820(5) 0.1346(9)
H4_3 H 0.1060 0.8655 0.0912
C5_3 C 0.0574(6) 0.9100(6) 0.1281(8)
C6_3 C 0.0394(4) 0.9347(4) 0.1882(11)
H5_3 H 0.0127 0.9554 0.1813
C7_4 C 0.0606(4) 0.9296(4) 0.2624(7)
H6_4 H 0.0486 0.9472 0.3046
C8_3 C 0.0490(5) 0.9468(4) 0.0026(9)
C9_3 C 0.0806(4) 0.9832(4) 0.0210(7)
H7_3 H 0.0928 0.9872 0.0711
C15_4 C 0.2342(4) 0.9429(4) 0.4502(6)
H11_4 H 0.2443 0.9114 0.4378
C16_4 C 0.2659(4) 0.9800(4) 0.4371(6)
H12_4 H 0.2962 0.9735 0.4150
C19_4 C 0.1770(4) 0.9942(4) 0.4994(7)
H14_4 H 0.1464 0.9997 0.5213
C25_4 C 0.0998(3) 0.7972(4) 0.4886(6)
H19_4 H 0.1320 0.7895 0.4765
C26_4 C 0.0670(4) 0.7599(4) 0.4880(7)
H20_4 H 0.0774 0.7280 0.4797
C27_4 C 0.0184(3) 0.7698(3) 0.4999(5)
C28_4 C 0.0081(4) 0.8178(4) 0.5146(7)
C29_4 C 0.0438(4) 0.8510(4) 0.5148(7)
H22_4 H 0.0351 0.8835 0.5232
O9_3 O 0.3371(3) 0.7834(3) 0.8083(5)
O10_4 O 0.1764(2) 0.8717(3) 0.5893(4)
O12_4 O 0.2173(3) 0.8278(3) 0.5062(5)
C32_3 C 0.3744(4) 0.8668(4) 0.9573(10)
H25_3 H 0.3943 0.8942 0.9621
C33_3 C 0.3680(5) 0.8440(6) 0.8846(9)
H26_3 H 0.3845 0.8560 0.8412
C34_3 C 0.3400(6) 0.8074(6) 0.8781(8)
C35_3 C 0.3153(4) 0.7894(4) 0.9382(11)
H27_3 H 0.2946 0.7627 0.9313
C37_3 C 0.3032(4) 0.7990(5) 0.7526(9)
C38_3 C 0.2668(4) 0.8306(4) 0.7710(7)
H29_3 H 0.2628 0.8428 0.8211
C39_4 C 0.2366(4) 0.8436(3) 0.7118(7)
H30_4 H 0.2109 0.8649 0.7223
C40_4 C 0.2421(3) 0.8271(3) 0.6389(7)
C41_4 C 0.2805(4) 0.7959(4) 0.6257(7)
H31_4 H 0.2856 0.7844 0.5754
C42_4 C 0.3110(4) 0.7812(5) 0.6819(7)
H32_4 H 0.3365 0.7595 0.6719
C43_4 C 0.2104(4) 0.8425(4) 0.5753(8)
H43_4 H 0.0240 0.6726 0.5245
C12_3 C 0.0459(4) 0.9695(4) 0.8757(7)
H9_3 H 0.0344 0.9644 0.8254
C13_3 C 0.0312(5) 0.9390(4) 0.9319(7)
H10_3 H 0.0095 0.9135 0.9219
H13_4 H 0.3042 0.9361 0.0039
H17_4 H 0.1851 0.8254 0.0122
H18_4 H 0.2370 0.8927 0.0369
N5_3 N 0.3997(6) 0.9037(5) 0.6732(10)
C45_3 C 0.2300(4) 0.9841(4) 0.6871(6)
H34_3 H 0.2235 0.9538 0.6650
C46_3 C 0.2771(3) 0.9965(3) 0.7063(6)
C49_3 C 0.3186(3) 0.9644(3) 0.6958(7)
C50_3 C 0.3210(4) 0.9318(4) 0.6374(8)
H37_3 H 0.2948 0.9289 0.6032
C51_3 C 0.3620(6) 0.9023(4) 0.6272(10)
H38_3 H 0.3624 0.8806 0.5856
C52_3 C 0.3979(4) 0.9336(6) 0.7288(11)
H39_3 H 0.4246 0.9351 0.7622
C53_3 C 0.3570(5) 0.9659(4) 0.7444(8)
H40_3 H 0.3573 0.9870 0.7869
H21_4 H 0.9760 0.8274 0.5245
Zn4 Zn 0.85916(4) 0.60515(4) 0.49736(7)
N6_3 N 0.9096(3) 0.6588(3) 0.5039(4)
C54_4 C 0.9002(3) 0.7028(4) 0.4886(6)
H41_4 H 0.8680 0.7105 0.4765
C55_4 C 0.9330(4) 0.7401(4) 0.4880(7)
H42_4 H 0.9226 0.7720 0.4797
C56_4 C 0.9816(3) 0.7302(3) 0.4999(5)
C57_4 C 0.9919(4) 0.6822(4) 0.5146(7)
C58_4 C 0.9562(4) 0.6490(4) 0.5148(7)
H44_4 H 0.9649 0.6165 0.5232
O7_4 O 0.8930(3) 0.5829(3) 0.4038(5)
O8_4 O 0.8437(3) 0.6349(3) 0.3549(5)
O9_4 O 0.9666(3) 0.5871(3) 0.0583(5)
O11_2 O 0.8236(2) 0.6283(3) 0.5893(4)
O13_4 O 0.9037(3) 0.5588(3) 0.5886(6)
H23_4 H 0.9160 0.5345 0.5696
H24_4 H 0.8827 0.5550 0.6251
N4_4 N 0.8116(3) 0.5515(3) 0.4804(5)
N5_4 N 0.6537(5) 0.3503(6) 0.4232(10)
C30_4 C 0.8776(5) 0.6061(5) 0.3503(9)
C31_4 C 0.9020(4) 0.6010(4) 0.2707(7)
C32_4 C 0.8832(4) 0.6244(4) 0.2073(10)
H25_4 H 0.8558 0.6443 0.2121
C33_4 C 0.9060(6) 0.6180(5) 0.1346(9)
H26_4 H 0.8940 0.6345 0.0912
C34_4 C 0.9426(6) 0.5900(6) 0.1281(8)
C35_4 C 0.9606(4) 0.5653(4) 0.1882(11)
H27_4 H 0.9873 0.5446 0.1813
C36_4 C 0.9394(4) 0.5704(4) 0.2624(7)
H28_4 H 0.9514 0.5528 0.3046
C37_4 C 0.9510(5) 0.5532(4) 0.0026(9)
C38_4 C 0.9194(4) 0.5168(4) 0.0210(7)
H29_4 H 0.9072 0.5128 0.0711
C44_4 C 0.7658(4) 0.5571(4) 0.4502(6)
H33_4 H 0.7557 0.5886 0.4378
C45_4 C 0.7341(4) 0.5200(4) 0.4371(6)
H34_4 H 0.7038 0.5265 0.4150
C46_4 C 0.7465(3) 0.4729(3) 0.4563(6)
C47_4 C 0.7936(4) 0.4670(4) 0.4892(7)
H35_4 H 0.8042 0.4361 0.5039
C48_4 C 0.8230(4) 0.5058(4) 0.4994(7)
H36_4 H 0.8536 0.5003 0.5213
C49_4 C 0.7144(3) 0.4314(3) 0.4458(7)
C50_4 C 0.6818(4) 0.4290(4) 0.3874(8)
H37_4 H 0.6789 0.4552 0.3532
C51_4 C 0.6523(4) 0.3880(6) 0.3772(10)
H38_4 H 0.6306 0.3876 0.3356
C52_4 C 0.6836(6) 0.3521(4) 0.4788(11)
H39_4 H 0.6851 0.3254 0.5122
C53_4 C 0.7159(4) 0.3930(5) 0.4944(8)
H40_4 H 0.7370 0.3927 0.5369
O3_4 O 0.6629(3) 0.7166(3) 0.8083(5)
O5_4 O 0.7827(3) 0.6722(3) 0.5062(5)
C3_4 C 0.6256(4) 0.6332(4) 0.9573(10)
H3_4 H 0.6057 0.6058 0.9621
C4_4 C 0.6320(5) 0.6560(6) 0.8846(9)
H4_4 H 0.6155 0.6440 0.8412
C5_4 C 0.6600(6) 0.6926(6) 0.8781(8)
C6_4 C 0.6847(4) 0.7106(4) 0.9382(11)
H5_4 H 0.7054 0.7373 0.9313
C8_4 C 0.6968(4) 0.7010(5) 0.7526(9)
C9_4 C 0.7332(4) 0.6694(4) 0.7710(7)
H7_4 H 0.7372 0.6572 0.8211
C10_4 C 0.7634(4) 0.6564(3) 0.7118(7)
H8_4 H 0.7891 0.6351 0.7223
C11_4 C 0.7579(3) 0.6729(3) 0.6389(7)
C12_4 C 0.7195(4) 0.7041(4) 0.6257(7)
H9_4 H 0.7144 0.7156 0.5754
C13_4 C 0.6890(4) 0.7188(5) 0.6819(7)
H10_4 H 0.6635 0.7405 0.6719
C14_4 C 0.7896(4) 0.6575(4) 0.5753(8)
H21_5 H 0.0240 0.1726 0.4755
Zn4_2 Zn 0.14084(4) 0.39485(4) 0.50264(7)
N6_4 N 0.0904(3) 0.3412(3) 0.4961(4)
C54_5 C 0.0998(3) 0.2972(4) 0.5114(6)
H41_5 H 0.1320 0.2895 0.5235
C55_5 C 0.0670(4) 0.2599(4) 0.5120(7)
H42_5 H 0.0774 0.2280 0.5203
C56_5 C 0.0184(3) 0.2698(3) 0.5001(5)
C57_5 C 0.0081(4) 0.3178(4) 0.4854(7)
C58_5 C 0.0438(4) 0.3510(4) 0.4852(7)
H44_5 H 0.0351 0.3835 0.4768
O7_5 O 0.1070(3) 0.4171(3) 0.5962(5)
O8_5 O 0.1563(3) 0.3651(3) 0.6451(5)
O9_5 O 0.0334(3) 0.4129(3) 0.9417(5)
O11_3 O 0.1764(2) 0.3717(3) 0.4107(4)
O13_5 O 0.0963(3) 0.4412(3) 0.4114(6)
H23_5 H 0.0840 0.4655 0.4304
H24_5 H 0.1173 0.4450 0.3749
N4_5 N 0.1884(3) 0.4485(3) 0.5196(5)
N5_5 N 0.3463(5) 0.6497(6) 0.5768(10)
C30_5 C 0.1224(5) 0.3939(5) 0.6497(9)
C31_5 C 0.0980(4) 0.3990(4) 0.7293(7)
C32_5 C 0.1168(4) 0.3756(4) 0.7927(10)
H25_5 H 0.1442 0.3557 0.7879
C33_5 C 0.0940(6) 0.3820(5) 0.8654(9)
H26_5 H 0.1060 0.3655 0.9088
C34_5 C 0.0574(6) 0.4100(6) 0.8719(8)
C35_5 C 0.0394(4) 0.4347(4) 0.8118(11)
H27_5 H 0.0127 0.4554 0.8187
C36_5 C 0.0606(4) 0.4296(4) 0.7376(7)
H28_5 H 0.0486 0.4472 0.6954
C37_5 C 0.0490(5) 0.4468(4) 0.9974(9)
C38_5 C 0.0806(4) 0.4832(4) 0.9790(7)
H29_5 H 0.0928 0.4872 0.9289
C44_5 C 0.2342(4) 0.4429(4) 0.5498(6)
H33_5 H 0.2443 0.4114 0.5622
C45_5 C 0.2659(4) 0.4800(4) 0.5629(6)
H34_5 H 0.2962 0.4735 0.5850
C46_5 C 0.2535(3) 0.5271(3) 0.5437(6)
C47_5 C 0.2064(4) 0.5330(4) 0.5108(7)
H35_5 H 0.1958 0.5639 0.4961
C48_5 C 0.1770(4) 0.4942(4) 0.5006(7)
H36_5 H 0.1464 0.4997 0.4787
C49_5 C 0.2856(3) 0.5686(3) 0.5542(7)
C50_5 C 0.3182(4) 0.5710(4) 0.6126(8)
H37_5 H 0.3211 0.5448 0.6468
C51_5 C 0.3477(4) 0.6120(6) 0.6228(10)
H38_5 H 0.3694 0.6124 0.6644
C52_5 C 0.3164(6) 0.6479(4) 0.5212(11)
H39_5 H 0.3149 0.6746 0.4878
C53_5 C 0.2841(4) 0.6070(5) 0.5056(8)
H40_5 H 0.2630 0.6073 0.4631
O3_5 O 0.3371(3) 0.2834(3) 0.1917(5)
O5_5 O 0.2173(3) 0.3278(3) 0.4938(5)
C3_5 C 0.3744(4) 0.3668(4) 0.0427(10)
H3_5 H 0.3943 0.3942 0.0379
C4_5 C 0.3680(5) 0.3440(6) 0.1154(9)
H4_5 H 0.3845 0.3560 0.1588
C5_5 C 0.3400(6) 0.3074(6) 0.1219(8)
C6_5 C 0.3153(4) 0.2894(4) 0.0618(11)
H5_5 H 0.2946 0.2627 0.0687
C8_5 C 0.3032(4) 0.2990(5) 0.2474(9)
C9_5 C 0.2668(4) 0.3306(4) 0.2290(7)
H7_5 H 0.2628 0.3428 0.1789
C10_5 C 0.2366(4) 0.3436(3) 0.2882(7)
H8_5 H 0.2109 0.3649 0.2777
C11_5 C 0.2421(3) 0.3271(3) 0.3611(7)
C12_5 C 0.2805(4) 0.2959(4) 0.3743(7)
H9_5 H 0.2856 0.2844 0.4246
C13_5 C 0.3110(4) 0.2812(5) 0.3181(7)
H10_5 H 0.3365 0.2595 0.3281
C14_5 C 0.2104(4) 0.3425(4) 0.4247(8)
C12_6 C 0.9541(4) 0.0305(4) 0.1243(7)
H9_6 H 0.9656 0.0356 0.1746
C13_6 C 0.9688(5) 0.0610(4) 0.0681(7)
H10_6 H 0.9905 0.0865 0.0781
H13_5 H 0.6958 0.0639 0.9961
H17_5 H 0.8149 0.1746 0.9878
H18_5 H 0.7630 0.1073 0.9631
N5_6 N 0.6003(6) 0.0963(5) 0.3268(10)
C45_6 C 0.7700(4) 0.0159(4) 0.3129(6)
H34_6 H 0.7765 0.0462 0.3350
C46_6 C 0.7229(3) 0.0035(3) 0.2937(6)
C49_6 C 0.6814(3) 0.0356(3) 0.3042(7)
C50_6 C 0.6790(4) 0.0682(4) 0.3626(8)
H37_6 H 0.7052 0.0711 0.3968
C51_6 C 0.6380(6) 0.0977(4) 0.3728(10)
H38_6 H 0.6376 0.1194 0.4144
C52_6 C 0.6021(4) 0.0664(6) 0.2712(11)
H39_6 H 0.5754 0.0649 0.2378
C53_6 C 0.6430(5) 0.0341(4) 0.2556(8)
H40_6 H 0.6427 0.0130 0.2131
Zn1_5 Zn 0.85916(4) 0.10515(4) 0.50264(7)
O1_5 O 0.8930(3) 0.0829(3) 0.5962(5)
O2_5 O 0.8437(3) 0.1349(3) 0.6451(5)
O3_6 O 0.9666(3) 0.0871(3) 0.9417(5)
O6_5 O 0.9037(3) 0.0588(3) 0.4114(6)
H1_5 H 0.9160 0.0345 0.4304
H2_5 H 0.8827 0.0550 0.3749
N1_5 N 0.8116(3) 0.0515(3) 0.5196(5)
N3_5 N 0.9096(3) 0.1588(3) 0.4961(4)
C1_5 C 0.8776(5) 0.1061(5) 0.6497(9)
C2_5 C 0.9020(4) 0.1010(4) 0.7293(7)
C3_6 C 0.8832(4) 0.1244(4) 0.7927(10)
H3_6 H 0.8558 0.1443 0.7879
C4_6 C 0.9060(6) 0.1180(5) 0.8654(9)
H4_6 H 0.8940 0.1345 0.9088
C5_6 C 0.9426(6) 0.0900(6) 0.8719(8)
C6_6 C 0.9606(4) 0.0653(4) 0.8118(11)
H5_6 H 0.9873 0.0446 0.8187
C7_5 C 0.9394(4) 0.0704(4) 0.7376(7)
H6_5 H 0.9514 0.0528 0.6954
C8_6 C 0.9510(5) 0.0532(4) 0.9974(9)
C9_6 C 0.9194(4) 0.0168(4) 0.9790(7)
H7_6 H 0.9072 0.0128 0.9289
C15_5 C 0.7658(4) 0.0571(4) 0.5498(6)
H11_5 H 0.7557 0.0886 0.5622
C16_5 C 0.7341(4) 0.0200(4) 0.5629(6)
H12_5 H 0.7038 0.0265 0.5850
C19_5 C 0.8230(4) 0.0058(4) 0.5006(7)
H14_5 H 0.8536 0.0003 0.4787
C25_5 C 0.9002(3) 0.2028(4) 0.5114(6)
H19_5 H 0.8680 0.2105 0.5235
C26_5 C 0.9330(4) 0.2401(4) 0.5120(7)
H20_5 H 0.9226 0.2720 0.5203
C27_5 C 0.9816(3) 0.2302(3) 0.5001(5)
C28_5 C 0.9919(4) 0.1822(4) 0.4854(7)
C29_5 C 0.9562(4) 0.1490(4) 0.4852(7)
H22_5 H 0.9649 0.1165 0.4768
O9_6 O 0.6629(3) 0.2166(3) 0.1917(5)
O10_5 O 0.8236(2) 0.1283(3) 0.4107(4)
O12_5 O 0.7827(3) 0.1722(3) 0.4938(5)
C32_6 C 0.6256(4) 0.1332(4) 0.0427(10)
H25_6 H 0.6057 0.1058 0.0379
C33_6 C 0.6320(5) 0.1560(6) 0.1154(9)
H26_6 H 0.6155 0.1440 0.1588
C34_6 C 0.6600(6) 0.1926(6) 0.1219(8)
C35_6 C 0.6847(4) 0.2106(4) 0.0618(11)
H27_6 H 0.7054 0.2373 0.0687
C37_6 C 0.6968(4) 0.2010(5) 0.2474(9)
C38_6 C 0.7332(4) 0.1694(4) 0.2290(7)
H29_6 H 0.7372 0.1572 0.1789
C39_5 C 0.7634(4) 0.1564(3) 0.2882(7)
H30_5 H 0.7891 0.1351 0.2777
C40_5 C 0.7579(3) 0.1729(3) 0.3611(7)
C41_5 C 0.7195(4) 0.2041(4) 0.3743(7)
H31_5 H 0.7144 0.2156 0.4246
C42_5 C 0.6890(4) 0.2188(5) 0.3181(7)
H32_5 H 0.6635 0.2405 0.3281
C43_5 C 0.7896(4) 0.1575(4) 0.4247(8)
H43_5 H 0.9760 0.3274 0.4755
Zn2_2 Zn 0.64485(4) 0.10916(4) 0.75264(7)
O7_6 O 0.6671(3) 0.1430(3) 0.8462(5)
O8_6 O 0.6151(3) 0.0937(3) 0.8951(5)
O11_4 O 0.6217(3) 0.0736(2) 0.6607(4)
O13_6 O 0.6912(3) 0.1537(3) 0.6614(6)
H23_6 H 0.7155 0.1660 0.6804
H24_6 H 0.6950 0.1327 0.6249
N4_6 N 0.6985(3) 0.0616(3) 0.7696(5)
N7_2 N 0.5912(3) 0.1596(3) 0.7461(4)
C30_6 C 0.6439(5) 0.1276(5) 0.8997(9)
C31_6 C 0.6490(4) 0.1520(4) 0.9793(7)
C36_6 C 0.6796(4) 0.1894(4) 0.9876(7)
H28_6 H 0.6972 0.2014 0.9454
C44_6 C 0.6929(4) 0.0158(4) 0.7998(6)
H33_6 H 0.6614 0.0057 0.8122
C47_6 C 0.7830(4) 0.0436(4) 0.7608(7)
H35_6 H 0.8139 0.0542 0.7461
C48_6 C 0.7442(4) 0.0730(4) 0.7506(7)
H36_6 H 0.7497 0.1036 0.7287
N5_7 N 0.8997(6) 0.9037(5) 0.8268(10)
C45_7 C 0.7300(4) 0.9841(4) 0.8129(6)
H34_7 H 0.7235 0.9538 0.8350
C46_7 C 0.7771(3) 0.9965(3) 0.7937(6)
C49_7 C 0.8186(3) 0.9644(3) 0.8042(7)
C50_7 C 0.8210(4) 0.9318(4) 0.8626(8)
H37_7 H 0.7948 0.9289 0.8968
C51_7 C 0.8620(6) 0.9023(4) 0.8728(10)
H38_7 H 0.8624 0.8806 0.9144
C52_7 C 0.8979(4) 0.9336(6) 0.7712(11)
H39_7 H 0.9246 0.9351 0.7378
C53_7 C 0.8570(5) 0.9659(4) 0.7556(8)
H40_7 H 0.8573 0.9870 0.7131
Zn3_3 Zn 0.35916(4) 0.60515(4) 0.00264(7)
O5_6 O 0.5778(3) 0.0327(3) 0.7438(5)
N2_5 N 0.8463(5) 0.1497(6) 0.0768(10)
C10_6 C 0.5936(3) 0.0134(4) 0.5382(7)
H8_6 H 0.6149 0.0391 0.5277
C11_6 C 0.5771(3) 0.0079(3) 0.6111(7)
C14_6 C 0.5925(4) 0.0396(4) 0.6747(8)
C17_5 C 0.7535(3) 0.0271(3) 0.0437(6)
C18_5 C 0.7064(4) 0.0330(4) 0.0108(7)
C20_5 C 0.7856(3) 0.0686(3) 0.0542(7)
C21_5 C 0.8182(4) 0.0710(4) 0.1126(8)
H15_5 H 0.8211 0.0448 0.1468
C22_5 C 0.8477(4) 0.1120(6) 0.1228(10)
H16_5 H 0.8694 0.1124 0.1644
C23_5 C 0.8164(6) 0.1479(4) 0.0212(11)
C24_5 C 0.7841(4) 0.1070(5) 0.0056(8)
Zn1_6 Zn 0.64084(4) 0.89485(4) 0.00264(7)
O1_6 O 0.6070(3) 0.9171(3) 0.0962(5)
O2_6 O 0.6563(3) 0.8651(3) 0.1451(5)
O3_7 O 0.5334(3) 0.9129(3) 0.4417(5)
N1_6 N 0.6884(3) 0.9485(3) 0.0196(5)
C1_6 C 0.6224(5) 0.8939(5) 0.1497(9)
C2_6 C 0.5980(4) 0.8990(4) 0.2293(7)
C3_7 C 0.6168(4) 0.8756(4) 0.2927(10)
H3_7 H 0.6442 0.8557 0.2879
C4_7 C 0.5940(6) 0.8820(5) 0.3654(9)
H4_7 H 0.6060 0.8655 0.4088
C5_7 C 0.5574(6) 0.9100(6) 0.3719(8)
C6_7 C 0.5394(4) 0.9347(4) 0.3118(11)
H5_7 H 0.5127 0.9554 0.3187
C7_6 C 0.5606(4) 0.9296(4) 0.2376(7)
H6_6 H 0.5486 0.9472 0.1954
C8_7 C 0.5490(5) 0.9468(4) 0.4974(9)
C9_7 C 0.5806(4) 0.9832(4) 0.4790(7)
H7_7 H 0.5928 0.9872 0.4289
C12_7 C 0.5459(4) 0.9695(4) 0.6243(7)
H9_7 H 0.5344 0.9644 0.6746
C13_7 C 0.5312(5) 0.9390(4) 0.5681(7)
H10_7 H 0.5095 0.9135 0.5781
C15_6 C 0.7342(4) 0.9429(4) 0.0498(6)
H11_6 H 0.7443 0.9114 0.0622
C16_6 C 0.7659(4) 0.9800(4) 0.0629(6)
H12_6 H 0.7962 0.9735 0.0850
C19_6 C 0.6770(4) 0.9942(4) 0.0006(7)
C25_6 C 0.5998(3) 0.7972(4) 0.0114(6)
H19_6 H 0.6320 0.7895 0.0235
C26_6 C 0.5670(4) 0.7599(4) 0.0120(7)
H20_6 H 0.5774 0.7280 0.0203
C27_6 C 0.5184(3) 0.7698(3) 0.0001(5)
C54_6 C 0.4002(3) 0.7028(4) 0.0114(6)
H41_6 H 0.3680 0.7105 0.0235
C55_6 C 0.4330(4) 0.7401(4) 0.0120(7)
H42_6 H 0.4226 0.7720 0.0203
C56_6 C 0.4816(3) 0.7302(3) 0.0001(5)
Zn1_7 Zn 0.35515(4) 0.39084(4) 0.75264(7)
O1_7 O 0.3329(3) 0.3570(3) 0.8462(5)
O2_7 O 0.3849(3) 0.4063(3) 0.8951(5)
O6_6 O 0.3088(3) 0.3463(3) 0.6614(6)
H1_6 H 0.2845 0.3340 0.6804
H2_6 H 0.3050 0.3673 0.6249
N1_7 N 0.3015(3) 0.4384(3) 0.7696(5)
N2_6 N 0.1003(6) 0.5963(5) 0.8268(10)
N3_6 N 0.4088(3) 0.3404(3) 0.7461(4)
C1_7 C 0.3561(5) 0.3724(5) 0.8997(9)
C2_7 C 0.3510(4) 0.3480(4) 0.9793(7)
C7_7 C 0.3204(4) 0.3106(4) 0.9876(7)
H6_7 H 0.3028 0.2986 0.9454
C15_7 C 0.3071(4) 0.4842(4) 0.7998(6)
H11_7 H 0.3386 0.4943 0.8122
C16_7 C 0.2700(4) 0.5159(4) 0.8129(6)
H12_7 H 0.2765 0.5462 0.8350
C17_6 C 0.2229(3) 0.5035(3) 0.7937(6)
C18_6 C 0.2170(4) 0.4564(4) 0.7608(7)
H13_6 H 0.1861 0.4458 0.7461
C19_7 C 0.2558(4) 0.4270(4) 0.7506(7)
H14_6 H 0.2503 0.3964 0.7287
C20_6 C 0.1814(3) 0.5356(3) 0.8042(7)
C21_6 C 0.1790(4) 0.5682(4) 0.8626(8)
H15_6 H 0.2052 0.5711 0.8968
C22_6 C 0.1380(6) 0.5977(4) 0.8728(10)
H16_6 H 0.1376 0.6194 0.9144
C23_6 C 0.1021(4) 0.5664(6) 0.7712(11)
H17_6 H 0.0754 0.5649 0.7378
C24_6 C 0.1430(5) 0.5341(4) 0.7556(8)
H18_6 H 0.1427 0.5130 0.7131
C25_7 C 0.4528(4) 0.3498(3) 0.7614(6)
H19_7 H 0.4605 0.3820 0.7735
C26_7 C 0.4901(4) 0.3170(4) 0.7620(7)
H20_7 H 0.5220 0.3274 0.7703
C27_7 C 0.4802(3) 0.2684(3) 0.7501(5)
C28_6 C 0.4322(4) 0.2581(4) 0.7354(7)
H21_6 H 0.4226 0.2260 0.7255
C29_6 C 0.3990(4) 0.2938(4) 0.7352(7)
H22_6 H 0.3665 0.2851 0.7268
O7_7 O 0.3930(3) 0.5829(3) 0.0962(5)
O8_7 O 0.3437(3) 0.6349(3) 0.1451(5)
O9_7 O 0.4666(3) 0.5871(3) 0.4417(5)
O10_6 O 0.3783(3) 0.4264(2) 0.6607(4)
O12_6 O 0.4222(3) 0.4673(3) 0.7438(5)
N4_7 N 0.3116(3) 0.5515(3) 0.0196(5)
N5_8 N 0.1537(5) 0.3503(6) 0.0768(10)
C30_7 C 0.3776(5) 0.6061(5) 0.1497(9)
C31_7 C 0.4020(4) 0.6010(4) 0.2293(7)
C32_7 C 0.3832(4) 0.6244(4) 0.2927(10)
H25_7 H 0.3558 0.6443 0.2879
C33_7 C 0.4060(6) 0.6180(5) 0.3654(9)
H26_7 H 0.3940 0.6345 0.4088
C34_7 C 0.4426(6) 0.5900(6) 0.3719(8)
C35_7 C 0.4606(4) 0.5653(4) 0.3118(11)
H27_7 H 0.4873 0.5446 0.3187
C36_7 C 0.4394(4) 0.5704(4) 0.2376(7)
H28_7 H 0.4514 0.5528 0.1954
C37_7 C 0.4510(5) 0.5532(4) 0.4974(9)
C38_7 C 0.4194(4) 0.5168(4) 0.4790(7)
H29_7 H 0.4072 0.5128 0.4289
C39_6 C 0.4064(3) 0.4866(4) 0.5382(7)
H30_6 H 0.3851 0.4609 0.5277
C40_6 C 0.4229(3) 0.4921(3) 0.6111(7)
C41_6 C 0.4541(4) 0.5305(4) 0.6243(7)
H31_6 H 0.4656 0.5356 0.6746
C42_6 C 0.4688(5) 0.5610(4) 0.5681(7)
H32_6 H 0.4905 0.5865 0.5781
C43_6 C 0.4075(4) 0.4604(4) 0.6747(8)
C44_7 C 0.2658(4) 0.5571(4) 0.0498(6)
H33_7 H 0.2557 0.5886 0.0622
C45_8 C 0.2341(4) 0.5200(4) 0.0629(6)
H34_8 H 0.2038 0.5265 0.0850
C46_8 C 0.2465(3) 0.4729(3) 0.0437(6)
C47_7 C 0.2936(4) 0.4670(4) 0.0108(7)
C48_7 C 0.3230(4) 0.5058(4) 0.0006(7)
C49_8 C 0.2144(3) 0.4314(3) 0.0542(7)
C50_8 C 0.1818(4) 0.4290(4) 0.1126(8)
H37_8 H 0.1789 0.4552 0.1468
C51_8 C 0.1523(4) 0.3880(6) 0.1228(10)
H38_8 H 0.1306 0.3876 0.1644
C52_8 C 0.1836(6) 0.3521(4) 0.0212(11)
C53_8 C 0.2159(4) 0.3930(5) 0.0056(8)
C54_7 C 0.5472(4) 0.1502(3) 0.7614(6)
H41_7 H 0.5395 0.1180 0.7735
C55_7 C 0.5099(4) 0.1830(4) 0.7620(7)
H42_7 H 0.4780 0.1726 0.7703
C56_7 C 0.5198(3) 0.2316(3) 0.7501(5)
C57_6 C 0.5678(4) 0.2419(4) 0.7354(7)
H43_6 H 0.5774 0.2740 0.7255
C58_6 C 0.6010(4) 0.2062(4) 0.7352(7)
H44_6 H 0.6335 0.2149 0.7268
O4_3 O 0.8783(3) 0.9264(2) 0.1607(4)
O5_7 O 0.9222(3) 0.9673(3) 0.2438(5)
C10_7 C 0.9064(3) 0.9866(4) 0.0382(7)
H8_7 H 0.8851 0.9609 0.0277
C11_7 C 0.9229(3) 0.9921(3) 0.1111(7)
C14_7 C 0.9075(4) 0.9604(4) 0.1747(8)
Zn3_4 Zn 0.85515(4) 0.89084(4) 0.25264(7)
Zn1_8 Zn 0.14485(4) 0.60916(4) 0.25264(7)
O1_8 O 0.1671(3) 0.6430(3) 0.3462(5)
O2_8 O 0.1151(3) 0.5937(3) 0.3951(5)
O3_8 O 0.1629(3) 0.7166(3) 0.6917(5)
O4_4 O 0.3236(2) 0.6283(3) 0.9107(4)
O5_8 O 0.2827(3) 0.6722(3) 0.9938(5)
O6_7 O 0.1912(3) 0.6537(3) 0.1614(6)
H1_7 H 0.2155 0.6660 0.1804
H2_7 H 0.1950 0.6327 0.1249
N1_8 N 0.1985(3) 0.5616(3) 0.2696(5)
N2_7 N 0.3997(6) 0.4037(5) 0.3268(10)
N3_7 N 0.0912(3) 0.6596(3) 0.2461(4)
C1_8 C 0.1439(5) 0.6276(5) 0.3997(9)
C2_8 C 0.1490(4) 0.6520(4) 0.4793(7)
C3_8 C 0.1256(4) 0.6332(4) 0.5427(10)
H3_8 H 0.1057 0.6058 0.5379
C4_8 C 0.1320(5) 0.6560(6) 0.6154(9)
H4_8 H 0.1155 0.6440 0.6588
C5_8 C 0.1600(6) 0.6926(6) 0.6219(8)
C6_8 C 0.1847(4) 0.7106(4) 0.5618(11)
H5_8 H 0.2054 0.7373 0.5687
C7_8 C 0.1796(4) 0.6894(4) 0.4876(7)
H6_8 H 0.1972 0.7014 0.4454
C8_8 C 0.1968(4) 0.7010(5) 0.7474(9)
C9_8 C 0.2332(4) 0.6694(4) 0.7290(7)
H7_8 H 0.2372 0.6572 0.6789
C10_8 C 0.2634(4) 0.6564(3) 0.7882(7)
H8_8 H 0.2891 0.6351 0.7777
C11_8 C 0.2579(3) 0.6729(3) 0.8611(7)
C12_8 C 0.2195(4) 0.7041(4) 0.8743(7)
H9_8 H 0.2144 0.7156 0.9246
C13_8 C 0.1890(4) 0.7188(5) 0.8181(7)
H10_8 H 0.1635 0.7405 0.8281
C14_8 C 0.2896(4) 0.6575(4) 0.9247(8)
C15_8 C 0.1929(4) 0.5158(4) 0.2998(6)
H11_8 H 0.1614 0.5057 0.3122
C16_8 C 0.2300(4) 0.4841(4) 0.3129(6)
H12_8 H 0.2235 0.4538 0.3350
C17_7 C 0.2771(3) 0.4965(3) 0.2937(6)
C18_7 C 0.2830(4) 0.5436(4) 0.2608(7)
H13_7 H 0.3139 0.5542 0.2461
C19_8 C 0.2442(4) 0.5730(4) 0.2506(7)
H14_7 H 0.2497 0.6036 0.2287
C20_7 C 0.3186(3) 0.4644(3) 0.3042(7)
C21_7 C 0.3210(4) 0.4318(4) 0.3626(8)
H15_7 H 0.2948 0.4289 0.3968
C22_7 C 0.3620(6) 0.4023(4) 0.3728(10)
H16_7 H 0.3624 0.3806 0.4144
C23_7 C 0.3979(4) 0.4336(6) 0.2712(11)
H17_7 H 0.4246 0.4351 0.2378
C24_7 C 0.3570(5) 0.4659(4) 0.2556(8)
H18_7 H 0.3573 0.4870 0.2131
C25_8 C 0.0472(4) 0.6502(3) 0.2614(6)
H19_8 H 0.0395 0.6180 0.2735
C26_8 C 0.0099(4) 0.6830(4) 0.2620(7)
C27_8 C 0.0198(3) 0.7316(3) 0.2501(5)
C28_7 C 0.0678(4) 0.7419(4) 0.2354(7)
H21_7 H 0.0774 0.7740 0.2255
C29_7 C 0.1010(4) 0.7062(4) 0.2352(7)
H22_7 H 0.1335 0.7149 0.2268
O10_7 O 0.1217(3) 0.5736(2) 0.1607(4)
O12_7 O 0.0778(3) 0.5327(3) 0.2438(5)
C39_7 C 0.0936(3) 0.5134(4) 0.0382(7)
H30_7 H 0.1149 0.5391 0.0277
C40_7 C 0.0771(3) 0.5079(3) 0.1111(7)
C41_7 C 0.0459(4) 0.4695(4) 0.1243(7)
H31_7 H 0.0344 0.4644 0.1746
C42_7 C 0.0312(5) 0.4390(4) 0.0681(7)
H32_7 H 0.0095 0.4135 0.0781
C43_7 C 0.0925(4) 0.5396(4) 0.1747(8)
H42_8 H 0.0220 0.8274 0.2703
H20_8 H 0.9780 0.6726 0.2703
N6_5 N 0.9088(3) 0.8404(3) 0.2461(4)
C54_8 C 0.9528(4) 0.8498(3) 0.2614(6)
H41_8 H 0.9605 0.8820 0.2735
C55_8 C 0.9901(4) 0.8170(4) 0.2620(7)
C56_8 C 0.9802(3) 0.7684(3) 0.2501(5)
C57_7 C 0.9322(4) 0.7581(4) 0.2354(7)
H43_7 H 0.9226 0.7260 0.2255
C58_7 C 0.8990(4) 0.7938(4) 0.2352(7)
H44_7 H 0.8665 0.7851 0.2268
O6_8 O 0.5963(3) 0.9412(3) 0.9114(6)
H1_8 H 0.5840 0.9655 0.9304
H2_8 H 0.6173 0.9450 0.8749
N3_8 N 0.5904(3) 0.8412(3) 0.9961(4)
H14_8 H 0.6464 0.9997 0.9787
C28_8 C 0.5081(4) 0.8178(4) 0.9854(7)
H21_8 H 0.4760 0.8274 0.9755
C29_8 C 0.5438(4) 0.8510(4) 0.9852(7)
H22_8 H 0.5351 0.8835 0.9768
O7_8 O 0.8329(3) 0.8570(3) 0.3462(5)
O8_8 O 0.8849(3) 0.9063(3) 0.3951(5)
O9_8 O 0.8371(3) 0.7834(3) 0.6917(5)
O10_8 O 0.6764(2) 0.8717(3) 0.9107(4)
O12_8 O 0.7173(3) 0.8278(3) 0.9938(5)
O13_7 O 0.8088(3) 0.8463(3) 0.1614(6)
H23_7 H 0.7845 0.8340 0.1804
H24_7 H 0.8050 0.8673 0.1249
N4_8 N 0.8015(3) 0.9384(3) 0.2696(5)
N6_6 N 0.4096(3) 0.6588(3) 0.9961(4)
C30_8 C 0.8561(5) 0.8724(5) 0.3997(9)
C31_8 C 0.8510(4) 0.8480(4) 0.4793(7)
C32_8 C 0.8744(4) 0.8668(4) 0.5427(10)
H25_8 H 0.8943 0.8942 0.5379
C33_8 C 0.8680(5) 0.8440(6) 0.6154(9)
H26_8 H 0.8845 0.8560 0.6588
C34_8 C 0.8400(6) 0.8074(6) 0.6219(8)
C35_8 C 0.8153(4) 0.7894(4) 0.5618(11)
H27_8 H 0.7946 0.7627 0.5687
C36_8 C 0.8204(4) 0.8106(4) 0.4876(7)
H28_8 H 0.8028 0.7986 0.4454
C37_8 C 0.8032(4) 0.7990(5) 0.7474(9)
C38_8 C 0.7668(4) 0.8306(4) 0.7290(7)
H29_8 H 0.7628 0.8428 0.6789
C39_8 C 0.7366(4) 0.8436(3) 0.7882(7)
H30_8 H 0.7109 0.8649 0.7777
C40_8 C 0.7421(3) 0.8271(3) 0.8611(7)
C41_8 C 0.7805(4) 0.7959(4) 0.8743(7)
H31_8 H 0.7856 0.7844 0.9246
C42_8 C 0.8110(4) 0.7812(5) 0.8181(7)
H32_8 H 0.8365 0.7595 0.8281
C43_8 C 0.7104(4) 0.8425(4) 0.9247(8)
C44_8 C 0.8071(4) 0.9842(4) 0.2998(6)
H33_8 H 0.8386 0.9943 0.3122
C47_8 C 0.7170(4) 0.9564(4) 0.2608(7)
H35_7 H 0.6861 0.9458 0.2461
C48_8 C 0.7558(4) 0.9270(4) 0.2506(7)
H36_7 H 0.7503 0.8964 0.2287
C57_8 C 0.4919(4) 0.6822(4) 0.9854(7)
H43_8 H 0.5240 0.6726 0.9755
C58_8 C 0.4562(4) 0.6490(4) 0.9852(7)
H44_8 H 0.4649 0.6165 0.9768
O13_8 O 0.4037(3) 0.5588(3) 0.9114(6)
H23_8 H 0.4160 0.5345 0.9304
H24_8 H 0.3827 0.5550 0.8749
H35_8 H 0.3042 0.4361 0.9961
H36_8 H 0.3536 0.5003 0.9787
H39_8 H 0.1851 0.3254 0.9878
H40_8 H 0.2370 0.3927 0.9631
N2_8 N 0.6537(5) 0.8503(6) 0.5768(10)
C17_8 C 0.7465(3) 0.9729(3) 0.5437(6)
C18_8 C 0.7936(4) 0.9670(4) 0.5108(7)
H13_8 H 0.8042 0.9361 0.4961
C20_8 C 0.7144(3) 0.9314(3) 0.5542(7)
C21_8 C 0.6818(4) 0.9290(4) 0.6126(8)
H15_8 H 0.6789 0.9552 0.6468
C22_8 C 0.6523(4) 0.8880(6) 0.6228(10)
H16_8 H 0.6306 0.8876 0.6644
C23_8 C 0.6836(6) 0.8521(4) 0.5212(11)
H17_8 H 0.6851 0.8254 0.4878
C24_8 C 0.7159(4) 0.8930(5) 0.5056(8)
H18_8 H 0.7370 0.8927 0.4631
loop_
_geom_bond_atom_site_label_1
_geom_bond_atom_site_label_2
_geom_bond_site_symmetry_1
_geom_bond_site_symmetry_2
N5 C51 1_555 1_555
H34 C45 1_555 1_555
C46 C45 1_555 1_555
C49 C46 1_555 1_555
C50 C49 1_555 1_555
H37 C50 1_555 1_555
C51 C50 1_555 1_555
H38 C51 1_555 1_555
C52 N5 1_555 1_555
H39 C52 1_555 1_555
C53 C49 1_555 1_555
H40 C53 1_555 1_555
C52 C53 1_555 1_555
Zn2 O7 1_555 1_555
O7 C30 1_555 1_555
O8 C30 1_555 1_555
O11 Zn2 1_555 1_555
O13 Zn2 1_555 1_555
H23 O13 1_555 1_555
H24 O13 1_555 1_555
N4 Zn2 1_555 1_555
N7 Zn2 1_555 1_555
C30 C31 1_555 1_555
C36 C31 1_555 1_555
H28 C36 1_555 1_555
C44 N4 1_555 1_555
H33 C44 1_555 1_555
H35 C47 1_555 1_555
C48 N4 1_555 1_555
H36 C48 1_555 1_555
C47 C48 1_555 1_555
Zn1 O1 1_555 1_555
O1 C1 1_555 1_555
O2 C1 1_555 1_555
O3 C5 1_555 1_555
N1 Zn1 1_555 1_555
C1 C2 1_555 1_555
C2 C3 1_555 1_555
C3 H3 1_555 1_555
C4 C3 1_555 1_555
H4 C4 1_555 1_555
C5 C4 1_555 1_555
C6 C5 1_555 1_555
H5 C6 1_555 1_555
C7 C2 1_555 1_555
H6 C7 1_555 1_555
C8 O3 1_555 1_555
C9 C8 1_555 1_555
H7 C9 1_555 1_555
H9 C12 1_555 1_555
C13 C8 1_555 1_555
H10 C13 1_555 1_555
C15 N1 1_555 1_555
H11 C15 1_555 1_555
C16 C15 1_555 1_555
H12 C16 1_555 1_555
C19 N1 1_555 1_555
H19 C25 1_555 1_555
C26 C25 1_555 1_555
H20 C26 1_555 1_555
C27 C26 1_555 1_555
C54 H41 1_555 1_555
C55 C54 1_555 1_555
H42 C55 1_555 1_555
C56 C27 1_555 1_555
C6 C7 1_555 1_555
C12 C13 1_555 1_555
C55 C56 1_555 1_555
O11 C14 1_555 1_555
O5 C14 1_555 1_555
N2 C22 1_555 1_555
H8 C10 1_555 1_555
C11 C10 1_555 1_555
C14 C11 1_555 1_555
C18 C17 1_555 1_555
C20 C17 1_555 1_555
C21 C20 1_555 1_555
H15 C21 1_555 1_555
C22 C21 1_555 1_555
H16 C22 1_555 1_555
C23 N2 1_555 1_555
C24 C20 1_555 1_555
C23 C24 1_555 1_555
Zn1_2 O1_2 1_555 1_555
O1_2 C1_2 1_555 1_555
O2_2 C1_2 1_555 1_555
O6 Zn1_2 1_555 1_555
H1 O6 1_555 1_555
H2 O6 1_555 1_555
N1_2 Zn1_2 1_555 1_555
N2_2 C22_2 1_555 1_555
N3 Zn1_2 1_555 1_555
C1_2 C2_2 1_555 1_555
C7_2 C2_2 1_555 1_555
H6_2 C7_2 1_555 1_555
C15_2 N1_2 1_555 1_555
H11_2 C15_2 1_555 1_555
C16_2 C15_2 1_555 1_555
H12_2 C16_2 1_555 1_555
C17_2 C16_2 1_555 1_555
C18_2 C17_2 1_555 1_555
H13 C18_2 1_555 1_555
C19_2 N1_2 1_555 1_555
H14 C19_2 1_555 1_555
C20_2 C17_2 1_555 1_555
C21_2 C20_2 1_555 1_555
H15_2 C21_2 1_555 1_555
C22_2 C21_2 1_555 1_555
H16_2 C22_2 1_555 1_555
C23_2 N2_2 1_555 1_555
H17 C23_2 1_555 1_555
C24_2 C20_2 1_555 1_555
H18 C24_2 1_555 1_555
C25_2 N3 1_555 1_555
H19_2 C25_2 1_555 1_555
C26_2 C25_2 1_555 1_555
H20_2 C26_2 1_555 1_555
C27_2 C26_2 1_555 1_555
C28 C27_2 1_555 1_555
H21 C28 1_555 1_555
C29 N3 1_555 1_555
H22 C29 1_555 1_555
Zn3 O7_2 1_555 1_555
O7_2 C30_2 1_555 1_555
O8_2 C30_2 1_555 1_555
O9 C34 1_555 1_555
O10 Zn1_2 1_555 1_555
O12 C43 1_555 1_555
N4_2 Zn3 1_555 1_555
N5_2 C51_2 1_555 1_555
N7 C54_2 1_555 1_555
C30_2 C31_2 1_555 1_555
C31_2 C32 1_555 1_555
C32 H25 1_555 1_555
C33 C32 1_555 1_555
H26 C33 1_555 1_555
C34 C33 1_555 1_555
C35 C34 1_555 1_555
H27 C35 1_555 1_555
C36_2 C31_2 1_555 1_555
H28_2 C36_2 1_555 1_555
C37 O9 1_555 1_555
C38 C37 1_555 1_555
H29 C38 1_555 1_555
C39 C38 1_555 1_555
H30 C39 1_555 1_555
C40 C39 1_555 1_555
C41 C40 1_555 1_555
H31 C41 1_555 1_555
C42 C37 1_555 1_555
H32 C42 1_555 1_555
C43 O10 1_555 1_555
C44_2 N4_2 1_555 1_555
H33_2 C44_2 1_555 1_555
C45_2 C44_2 1_555 1_555
H34_2 C45_2 1_555 1_555
C46_2 C45_2 1_555 1_555
C47_2 C46_2 1_555 1_555
C48_2 N4_2 1_555 1_555
C49_2 C46_2 1_555 1_555
C50_2 C49_2 1_555 1_555
H37_2 C50_2 1_555 1_555
C51_2 C50_2 1_555 1_555
H38_2 C51_2 1_555 1_555
C52_2 N5_2 1_555 1_555
C53_2 C49_2 1_555 1_555
C54_2 H41_2 1_555 1_555
C55_2 C54_2 1_555 1_555
H42_2 C55_2 1_555 1_555
C56_2 C27_2 1_555 1_555
C57 C56_2 1_555 1_555
H43 C57 1_555 1_555
C58 N7 1_555 1_555
H44 C58 1_555 1_555
C18_2 C19_2 1_555 1_555
C23_2 C24_2 1_555 1_555
C28 C29 1_555 1_555
C35 C36_2 1_555 1_555
C40 C43 1_555 1_555
C41 C42 1_555 1_555
C47_2 C48_2 1_555 1_555
C52_2 C53_2 1_555 1_555
C55_2 C56_2 1_555 1_555
C57 C58 1_555 1_555
N2_3 C22_3 1_555 1_555
C18_3 C17_3 1_555 1_555
H13_2 C18_3 1_555 1_555
C20_3 C17_3 1_555 1_555
C21_3 C20_3 1_555 1_555
H15_3 C21_3 1_555 1_555
C22_3 C21_3 1_555 1_555
H16_3 C22_3 1_555 1_555
C23_3 N2_3 1_555 1_555
H17_2 C23_3 1_555 1_555
C24_3 C20_3 1_555 1_555
H18_2 C24_3 1_555 1_555
C23_3 C24_3 1_555 1_555
O4 C14_2 1_555 1_555
O5_2 C14_2 1_555 1_555
H8_2 C10_2 1_555 1_555
C11_2 C10_2 1_555 1_555
C14_2 C11_2 1_555 1_555
Zn3_2 O4 1_555 1_555
Zn3_2 N6 1_555 1_555
N6 C54_3 1_555 1_555
C54_3 H41_3 1_555 1_555
C55_3 C54_3 1_555 1_555
C57_2 C56_3 1_555 1_555
H43_2 C57_2 1_555 1_555
C58_2 N6 1_555 1_555
H44_2 C58_2 1_555 1_555
C55_3 C56_3 1_555 1_555
C57_2 C58_2 1_555 1_555
Zn1_3 O1_3 1_555 1_555
O1_3 C1_3 1_555 1_555
O2_3 C1_3 1_555 1_555
O3_2 C5_2 1_555 1_555
O4_2 C14_3 1_555 1_555
O5_3 C14_3 1_555 1_555
O6_2 Zn1_3 1_555 1_555
H1_2 O6_2 1_555 1_555
H2_2 O6_2 1_555 1_555
N1_3 Zn1_3 1_555 1_555
N2_4 C22_4 1_555 1_555
N3_2 Zn1_3 1_555 1_555
C1_3 C2_3 1_555 1_555
C2_3 C3_2 1_555 1_555
C3_2 H3_2 1_555 1_555
C4_2 C3_2 1_555 1_555
H4_2 C4_2 1_555 1_555
C5_2 C4_2 1_555 1_555
C6_2 C5_2 1_555 1_555
H5_2 C6_2 1_555 1_555
C7_3 C2_3 1_555 1_555
H6_3 C7_3 1_555 1_555
C8_2 O3_2 1_555 1_555
C9_2 C8_2 1_555 1_555
H7_2 C9_2 1_555 1_555
C10_3 C9_2 1_555 1_555
H8_3 C10_3 1_555 1_555
C11_3 C10_3 1_555 1_555
C12_2 C11_3 1_555 1_555
H9_2 C12_2 1_555 1_555
C13_2 C8_2 1_555 1_555
H10_2 C13_2 1_555 1_555
C14_3 C11_3 1_555 1_555
C15_3 N1_3 1_555 1_555
H11_3 C15_3 1_555 1_555
C16_3 C15_3 1_555 1_555
H12_3 C16_3 1_555 1_555
C17_4 C16_3 1_555 1_555
C18_4 C17_4 1_555 1_555
H13_3 C18_4 1_555 1_555
C19_3 N1_3 1_555 1_555
H14_2 C19_3 1_555 1_555
C20_4 C17_4 1_555 1_555
C21_4 C20_4 1_555 1_555
H15_4 C21_4 1_555 1_555
C22_4 C21_4 1_555 1_555
H16_4 C22_4 1_555 1_555
C23_4 N2_4 1_555 1_555
H17_3 C23_4 1_555 1_555
C24_4 C20_4 1_555 1_555
H18_3 C24_4 1_555 1_555
C25_3 N3_2 1_555 1_555
H19_3 C25_3 1_555 1_555
C26_3 C25_3 1_555 1_555
C27_3 C26_3 1_555 1_555
C28_2 C27_3 1_555 1_555
H21_2 C28_2 1_555 1_555
C29_2 N3_2 1_555 1_555
H22_2 C29_2 1_555 1_555
O10_2 Zn1_3 1_555 1_555
O12_2 C43_2 1_555 1_555
H30_2 C39_2 1_555 1_555
C40_2 C39_2 1_555 1_555
C41_2 C40_2 1_555 1_555
H31_2 C41_2 1_555 1_555
H32_2 C42_2 1_555 1_555
C43_2 O10_2 1_555 1_555
C6_2 C7_3 1_555 1_555
C12_2 C13_2 1_555 1_555
C18_4 C19_3 1_555 1_555
C23_4 C24_4 1_555 1_555
C28_2 C29_2 1_555 1_555
C40_2 C43_2 1_555 1_555
C41_2 C42_2 1_555 1_555
H1_3 O6_3 1_555 1_555
H2_3 O6_3 1_555 1_555
H21_3 C28_3 1_555 1_555
C29_3 N3_3 1_555 1_555
H22_3 C29_3 1_555 1_555
Zn3_2 O7_3 1_555 1_555
O7_3 C30_3 1_555 1_555
O8_3 C30_3 1_555 1_555
O9_2 C34_2 1_555 1_555
O12_3 C43_3 1_555 1_555
O13_2 Zn3_2 1_555 1_555
H23_2 O13_2 1_555 1_555
H24_2 O13_2 1_555 1_555
N4_3 Zn3_2 1_555 1_555
C30_3 C31_3 1_555 1_555
C31_3 C32_2 1_555 1_555
C32_2 H25_2 1_555 1_555
C33_2 C32_2 1_555 1_555
H26_2 C33_2 1_555 1_555
C34_2 C33_2 1_555 1_555
C35_2 C34_2 1_555 1_555
H27_2 C35_2 1_555 1_555
C36_3 C31_3 1_555 1_555
H28_3 C36_3 1_555 1_555
C37_2 O9_2 1_555 1_555
C38_2 C37_2 1_555 1_555
H29_2 C38_2 1_555 1_555
C39_3 C38_2 1_555 1_555
H30_3 C39_3 1_555 1_555
C40_3 C39_3 1_555 1_555
C41_3 C40_3 1_555 1_555
H31_3 C41_3 1_555 1_555
C42_3 C37_2 1_555 1_555
H32_3 C42_3 1_555 1_555
C43_3 O10_3 1_555 1_555
C44_3 N4_3 1_555 1_555
H33_3 C44_3 1_555 1_555
H35_2 C47_3 1_555 1_555
C48_3 N4_3 1_555 1_555
H36_2 C48_3 1_555 1_555
H43_3 C57_3 1_555 1_555
C58_3 N6_2 1_555 1_555
H44_3 C58_3 1_555 1_555
C28_3 C29_3 1_555 1_555
C35_2 C36_3 1_555 1_555
C40_3 C43_3 1_555 1_555
C41_3 C42_3 1_555 1_555
C47_3 C48_3 1_555 1_555
C57_3 C58_3 1_555 1_555
H23_3 O13_3 1_555 1_555
H24_3 O13_3 1_555 1_555
Zn1_4 O1_4 1_555 1_555
O1_4 C1_4 1_555 1_555
O2_4 C1_4 1_555 1_555
O3_3 C5_3 1_555 1_555
O6_4 Zn1_4 1_555 1_555
H1_4 O6_4 1_555 1_555
H2_4 O6_4 1_555 1_555
N1_4 Zn1_4 1_555 1_555
N3_4 Zn1_4 1_555 1_555
C1_4 C2_4 1_555 1_555
C2_4 C3_3 1_555 1_555
C3_3 H3_3 1_555 1_555
C4_3 C3_3 1_555 1_555
H4_3 C4_3 1_555 1_555
C5_3 C4_3 1_555 1_555
C6_3 C5_3 1_555 1_555
H5_3 C6_3 1_555 1_555
C7_4 C2_4 1_555 1_555
H6_4 C7_4 1_555 1_555
C8_3 O3_3 1_555 1_555
C9_3 C8_3 1_555 1_555
H7_3 C9_3 1_555 1_555
C15_4 N1_4 1_555 1_555
H11_4 C15_4 1_555 1_555
C16_4 C15_4 1_555 1_555
H12_4 C16_4 1_555 1_555
C19_4 N1_4 1_555 1_555
H14_4 C19_4 1_555 1_555
C25_4 N3_4 1_555 1_555
H19_4 C25_4 1_555 1_555
C26_4 C25_4 1_555 1_555
H20_4 C26_4 1_555 1_555
C27_4 C26_4 1_555 1_555
C28_4 C27_4 1_555 1_555
C29_4 N3_4 1_555 1_555
H22_4 C29_4 1_555 1_555
O9_3 C34_3 1_555 1_555
O10_4 Zn1_4 1_555 1_555
O12_4 C43_4 1_555 1_555
C32_3 H25_3 1_555 1_555
C33_3 C32_3 1_555 1_555
H26_3 C33_3 1_555 1_555
C34_3 C33_3 1_555 1_555
C35_3 C34_3 1_555 1_555
H27_3 C35_3 1_555 1_555
C37_3 O9_3 1_555 1_555
C38_3 C37_3 1_555 1_555
H29_3 C38_3 1_555 1_555
C39_4 C38_3 1_555 1_555
H30_4 C39_4 1_555 1_555
C40_4 C39_4 1_555 1_555
C41_4 C40_4 1_555 1_555
H31_4 C41_4 1_555 1_555
C42_4 C37_3 1_555 1_555
H32_4 C42_4 1_555 1_555
C43_4 O10_4 1_555 1_555
C6_3 C7_4 1_555 1_555
C28_4 C29_4 1_555 1_555
C40_4 C43_4 1_555 1_555
C41_4 C42_4 1_555 1_555
H9_3 C12_3 1_555 1_555
H10_3 C13_3 1_555 1_555
C12_3 C13_3 1_555 1_555
N5_3 C51_3 1_555 1_555
H34_3 C45_3 1_555 1_555
C46_3 C45_3 1_555 1_555
C49_3 C46_3 1_555 1_555
C50_3 C49_3 1_555 1_555
H37_3 C50_3 1_555 1_555
C51_3 C50_3 1_555 1_555
H38_3 C51_3 1_555 1_555
C52_3 N5_3 1_555 1_555
H39_3 C52_3 1_555 1_555
C53_3 C49_3 1_555 1_555
H40_3 C53_3 1_555 1_555
C52_3 C53_3 1_555 1_555
Zn4 N6_3 1_555 1_555
N6_3 C54_4 1_555 1_555
C54_4 H41_4 1_555 1_555
C55_4 C54_4 1_555 1_555
H42_4 C55_4 1_555 1_555
C57_4 C56_4 1_555 1_555
C58_4 N6_3 1_555 1_555
H44_4 C58_4 1_555 1_555
C55_4 C56_4 1_555 1_555
C57_4 C58_4 1_555 1_555
Zn4 O7_4 1_555 1_555
O7_4 C30_4 1_555 1_555
O8_4 C30_4 1_555 1_555
O9_4 C34_4 1_555 1_555
O11_2 Zn4 1_555 1_555
O13_4 Zn4 1_555 1_555
H23_4 O13_4 1_555 1_555
H24_4 O13_4 1_555 1_555
N4_4 Zn4 1_555 1_555
N5_4 C51_4 1_555 1_555
C30_4 C31_4 1_555 1_555
C31_4 C32_4 1_555 1_555
C32_4 H25_4 1_555 1_555
C33_4 C32_4 1_555 1_555
H26_4 C33_4 1_555 1_555
C34_4 C33_4 1_555 1_555
C35_4 C34_4 1_555 1_555
H27_4 C35_4 1_555 1_555
C36_4 C31_4 1_555 1_555
H28_4 C36_4 1_555 1_555
C37_4 O9_4 1_555 1_555
C38_4 C37_4 1_555 1_555
H29_4 C38_4 1_555 1_555
C44_4 N4_4 1_555 1_555
H33_4 C44_4 1_555 1_555
C45_4 C44_4 1_555 1_555
H34_4 C45_4 1_555 1_555
C46_4 C45_4 1_555 1_555
C47_4 C46_4 1_555 1_555
H35_4 C47_4 1_555 1_555
C48_4 N4_4 1_555 1_555
H36_4 C48_4 1_555 1_555
C49_4 C46_4 1_555 1_555
C50_4 C49_4 1_555 1_555
H37_4 C50_4 1_555 1_555
C51_4 C50_4 1_555 1_555
H38_4 C51_4 1_555 1_555
C52_4 N5_4 1_555 1_555
H39_4 C52_4 1_555 1_555
C53_4 C49_4 1_555 1_555
H40_4 C53_4 1_555 1_555
C35_4 C36_4 1_555 1_555
C47_4 C48_4 1_555 1_555
C52_4 C53_4 1_555 1_555
O3_4 C5_4 1_555 1_555
O11_2 C14_4 1_555 1_555
O5_4 C14_4 1_555 1_555
C3_4 H3_4 1_555 1_555
C4_4 C3_4 1_555 1_555
H4_4 C4_4 1_555 1_555
C5_4 C4_4 1_555 1_555
C6_4 C5_4 1_555 1_555
H5_4 C6_4 1_555 1_555
C8_4 O3_4 1_555 1_555
C9_4 C8_4 1_555 1_555
H7_4 C9_4 1_555 1_555
C10_4 C9_4 1_555 1_555
H8_4 C10_4 1_555 1_555
C11_4 C10_4 1_555 1_555
C12_4 C11_4 1_555 1_555
H9_4 C12_4 1_555 1_555
C13_4 C8_4 1_555 1_555
H10_4 C13_4 1_555 1_555
C14_4 C11_4 1_555 1_555
C12_4 C13_4 1_555 1_555
Zn4_2 N6_4 1_555 1_555
N6_4 C54_5 1_555 1_555
C54_5 H41_5 1_555 1_555
C55_5 C54_5 1_555 1_555
H42_5 C55_5 1_555 1_555
C57_5 C56_5 1_555 1_555
C58_5 N6_4 1_555 1_555
H44_5 C58_5 1_555 1_555
C55_5 C56_5 1_555 1_555
C57_5 C58_5 1_555 1_555
Zn4_2 O7_5 1_555 1_555
O7_5 C30_5 1_555 1_555
O8_5 C30_5 1_555 1_555
O9_5 C34_5 1_555 1_555
O11_3 Zn4_2 1_555 1_555
O13_5 Zn4_2 1_555 1_555
H23_5 O13_5 1_555 1_555
H24_5 O13_5 1_555 1_555
N4_5 Zn4_2 1_555 1_555
N5_5 C51_5 1_555 1_555
C30_5 C31_5 1_555 1_555
C31_5 C32_5 1_555 1_555
C32_5 H25_5 1_555 1_555
C33_5 C32_5 1_555 1_555
H26_5 C33_5 1_555 1_555
C34_5 C33_5 1_555 1_555
C35_5 C34_5 1_555 1_555
H27_5 C35_5 1_555 1_555
C36_5 C31_5 1_555 1_555
H28_5 C36_5 1_555 1_555
C37_5 O9_5 1_555 1_555
C38_5 C37_5 1_555 1_555
H29_5 C38_5 1_555 1_555
C44_5 N4_5 1_555 1_555
H33_5 C44_5 1_555 1_555
C45_5 C44_5 1_555 1_555
H34_5 C45_5 1_555 1_555
C46_5 C45_5 1_555 1_555
C47_5 C46_5 1_555 1_555
H35_5 C47_5 1_555 1_555
C48_5 N4_5 1_555 1_555
H36_5 C48_5 1_555 1_555
C49_5 C46_5 1_555 1_555
C50_5 C49_5 1_555 1_555
H37_5 C50_5 1_555 1_555
C51_5 C50_5 1_555 1_555
H38_5 C51_5 1_555 1_555
C52_5 N5_5 1_555 1_555
H39_5 C52_5 1_555 1_555
C53_5 C49_5 1_555 1_555
H40_5 C53_5 1_555 1_555
C35_5 C36_5 1_555 1_555
C47_5 C48_5 1_555 1_555
C52_5 C53_5 1_555 1_555
O3_5 C5_5 1_555 1_555
O11_3 C14_5 1_555 1_555
O5_5 C14_5 1_555 1_555
C3_5 H3_5 1_555 1_555
C4_5 C3_5 1_555 1_555
H4_5 C4_5 1_555 1_555
C5_5 C4_5 1_555 1_555
C6_5 C5_5 1_555 1_555
H5_5 C6_5 1_555 1_555
C8_5 O3_5 1_555 1_555
C9_5 C8_5 1_555 1_555
H7_5 C9_5 1_555 1_555
C10_5 C9_5 1_555 1_555
H8_5 C10_5 1_555 1_555
C11_5 C10_5 1_555 1_555
C12_5 C11_5 1_555 1_555
H9_5 C12_5 1_555 1_555
C13_5 C8_5 1_555 1_555
H10_5 C13_5 1_555 1_555
C14_5 C11_5 1_555 1_555
C12_5 C13_5 1_555 1_555
H9_6 C12_6 1_555 1_555
H10_6 C13_6 1_555 1_555
C12_6 C13_6 1_555 1_555
N5_6 C51_6 1_555 1_555
H34_6 C45_6 1_555 1_555
C46_6 C45_6 1_555 1_555
C49_6 C46_6 1_555 1_555
C50_6 C49_6 1_555 1_555
H37_6 C50_6 1_555 1_555
C51_6 C50_6 1_555 1_555
H38_6 C51_6 1_555 1_555
C52_6 N5_6 1_555 1_555
H39_6 C52_6 1_555 1_555
C53_6 C49_6 1_555 1_555
H40_6 C53_6 1_555 1_555
C52_6 C53_6 1_555 1_555
Zn1_5 O1_5 1_555 1_555
O1_5 C1_5 1_555 1_555
O2_5 C1_5 1_555 1_555
O3_6 C5_6 1_555 1_555
O6_5 Zn1_5 1_555 1_555
H1_5 O6_5 1_555 1_555
H2_5 O6_5 1_555 1_555
N1_5 Zn1_5 1_555 1_555
N3_5 Zn1_5 1_555 1_555
C1_5 C2_5 1_555 1_555
C2_5 C3_6 1_555 1_555
C3_6 H3_6 1_555 1_555
C4_6 C3_6 1_555 1_555
H4_6 C4_6 1_555 1_555
C5_6 C4_6 1_555 1_555
C6_6 C5_6 1_555 1_555
H5_6 C6_6 1_555 1_555
C7_5 C2_5 1_555 1_555
H6_5 C7_5 1_555 1_555
C8_6 O3_6 1_555 1_555
C9_6 C8_6 1_555 1_555
H7_6 C9_6 1_555 1_555
C15_5 N1_5 1_555 1_555
H11_5 C15_5 1_555 1_555
C16_5 C15_5 1_555 1_555
H12_5 C16_5 1_555 1_555
C19_5 N1_5 1_555 1_555
H14_5 C19_5 1_555 1_555
C25_5 N3_5 1_555 1_555
H19_5 C25_5 1_555 1_555
C26_5 C25_5 1_555 1_555
H20_5 C26_5 1_555 1_555
C27_5 C26_5 1_555 1_555
C28_5 C27_5 1_555 1_555
C29_5 N3_5 1_555 1_555
H22_5 C29_5 1_555 1_555
O9_6 C34_6 1_555 1_555
O10_5 Zn1_5 1_555 1_555
O12_5 C43_5 1_555 1_555
C32_6 H25_6 1_555 1_555
C33_6 C32_6 1_555 1_555
H26_6 C33_6 1_555 1_555
C34_6 C33_6 1_555 1_555
C35_6 C34_6 1_555 1_555
H27_6 C35_6 1_555 1_555
C37_6 O9_6 1_555 1_555
C38_6 C37_6 1_555 1_555
H29_6 C38_6 1_555 1_555
C39_5 C38_6 1_555 1_555
H30_5 C39_5 1_555 1_555
C40_5 C39_5 1_555 1_555
C41_5 C40_5 1_555 1_555
H31_5 C41_5 1_555 1_555
C42_5 C37_6 1_555 1_555
H32_5 C42_5 1_555 1_555
C43_5 O10_5 1_555 1_555
C6_6 C7_5 1_555 1_555
C28_5 C29_5 1_555 1_555
C40_5 C43_5 1_555 1_555
C41_5 C42_5 1_555 1_555
Zn2_2 O7_6 1_555 1_555
O7_6 C30_6 1_555 1_555
O8_6 C30_6 1_555 1_555
O11_4 Zn2_2 1_555 1_555
O13_6 Zn2_2 1_555 1_555
H23_6 O13_6 1_555 1_555
H24_6 O13_6 1_555 1_555
N4_6 Zn2_2 1_555 1_555
N7_2 Zn2_2 1_555 1_555
C30_6 C31_6 1_555 1_555
C36_6 C31_6 1_555 1_555
H28_6 C36_6 1_555 1_555
C44_6 N4_6 1_555 1_555
H33_6 C44_6 1_555 1_555
H35_6 C47_6 1_555 1_555
C48_6 N4_6 1_555 1_555
H36_6 C48_6 1_555 1_555
C47_6 C48_6 1_555 1_555
N5_7 C51_7 1_555 1_555
H34_7 C45_7 1_555 1_555
C46_7 C45_7 1_555 1_555
C49_7 C46_7 1_555 1_555
C50_7 C49_7 1_555 1_555
H37_7 C50_7 1_555 1_555
C51_7 C50_7 1_555 1_555
H38_7 C51_7 1_555 1_555
C52_7 N5_7 1_555 1_555
H39_7 C52_7 1_555 1_555
C53_7 C49_7 1_555 1_555
H40_7 C53_7 1_555 1_555
C52_7 C53_7 1_555 1_555
O11_4 C14_6 1_555 1_555
O5_6 C14_6 1_555 1_555
N2_5 C22_5 1_555 1_555
H8_6 C10_6 1_555 1_555
C11_6 C10_6 1_555 1_555
C14_6 C11_6 1_555 1_555
C18_5 C17_5 1_555 1_555
C20_5 C17_5 1_555 1_555
C21_5 C20_5 1_555 1_555
H15_5 C21_5 1_555 1_555
C22_5 C21_5 1_555 1_555
H16_5 C22_5 1_555 1_555
C23_5 N2_5 1_555 1_555
C24_5 C20_5 1_555 1_555
C23_5 C24_5 1_555 1_555
Zn1_6 O1_6 1_555 1_555
O1_6 C1_6 1_555 1_555
O2_6 C1_6 1_555 1_555
O3_7 C5_7 1_555 1_555
N1_6 Zn1_6 1_555 1_555
C1_6 C2_6 1_555 1_555
C2_6 C3_7 1_555 1_555
C3_7 H3_7 1_555 1_555
C4_7 C3_7 1_555 1_555
H4_7 C4_7 1_555 1_555
C5_7 C4_7 1_555 1_555
C6_7 C5_7 1_555 1_555
H5_7 C6_7 1_555 1_555
C7_6 C2_6 1_555 1_555
H6_6 C7_6 1_555 1_555
C8_7 O3_7 1_555 1_555
C9_7 C8_7 1_555 1_555
H7_7 C9_7 1_555 1_555
H9_7 C12_7 1_555 1_555
C13_7 C8_7 1_555 1_555
H10_7 C13_7 1_555 1_555
C15_6 N1_6 1_555 1_555
H11_6 C15_6 1_555 1_555
C16_6 C15_6 1_555 1_555
H12_6 C16_6 1_555 1_555
C19_6 N1_6 1_555 1_555
H19_6 C25_6 1_555 1_555
C26_6 C25_6 1_555 1_555
H20_6 C26_6 1_555 1_555
C27_6 C26_6 1_555 1_555
C54_6 H41_6 1_555 1_555
C55_6 C54_6 1_555 1_555
H42_6 C55_6 1_555 1_555
C56_6 C27_6 1_555 1_555
C6_7 C7_6 1_555 1_555
C12_7 C13_7 1_555 1_555
C55_6 C56_6 1_555 1_555
Zn1_7 O1_7 1_555 1_555
O1_7 C1_7 1_555 1_555
O2_7 C1_7 1_555 1_555
O6_6 Zn1_7 1_555 1_555
H1_6 O6_6 1_555 1_555
H2_6 O6_6 1_555 1_555
N1_7 Zn1_7 1_555 1_555
N2_6 C22_6 1_555 1_555
N3_6 Zn1_7 1_555 1_555
C1_7 C2_7 1_555 1_555
C7_7 C2_7 1_555 1_555
H6_7 C7_7 1_555 1_555
C15_7 N1_7 1_555 1_555
H11_7 C15_7 1_555 1_555
C16_7 C15_7 1_555 1_555
H12_7 C16_7 1_555 1_555
C17_6 C16_7 1_555 1_555
C18_6 C17_6 1_555 1_555
H13_6 C18_6 1_555 1_555
C19_7 N1_7 1_555 1_555
H14_6 C19_7 1_555 1_555
C20_6 C17_6 1_555 1_555
C21_6 C20_6 1_555 1_555
H15_6 C21_6 1_555 1_555
C22_6 C21_6 1_555 1_555
H16_6 C22_6 1_555 1_555
C23_6 N2_6 1_555 1_555
H17_6 C23_6 1_555 1_555
C24_6 C20_6 1_555 1_555
H18_6 C24_6 1_555 1_555
C25_7 N3_6 1_555 1_555
H19_7 C25_7 1_555 1_555
C26_7 C25_7 1_555 1_555
H20_7 C26_7 1_555 1_555
C27_7 C26_7 1_555 1_555
C28_6 C27_7 1_555 1_555
H21_6 C28_6 1_555 1_555
C29_6 N3_6 1_555 1_555
H22_6 C29_6 1_555 1_555
Zn3_3 O7_7 1_555 1_555
O7_7 C30_7 1_555 1_555
O8_7 C30_7 1_555 1_555
O9_7 C34_7 1_555 1_555
O10_6 Zn1_7 1_555 1_555
O12_6 C43_6 1_555 1_555
N4_7 Zn3_3 1_555 1_555
N5_8 C51_8 1_555 1_555
N7_2 C54_7 1_555 1_555
C30_7 C31_7 1_555 1_555
C31_7 C32_7 1_555 1_555
C32_7 H25_7 1_555 1_555
C33_7 C32_7 1_555 1_555
H26_7 C33_7 1_555 1_555
C34_7 C33_7 1_555 1_555
C35_7 C34_7 1_555 1_555
H27_7 C35_7 1_555 1_555
C36_7 C31_7 1_555 1_555
H28_7 C36_7 1_555 1_555
C37_7 O9_7 1_555 1_555
C38_7 C37_7 1_555 1_555
H29_7 C38_7 1_555 1_555
C39_6 C38_7 1_555 1_555
H30_6 C39_6 1_555 1_555
C40_6 C39_6 1_555 1_555
C41_6 C40_6 1_555 1_555
H31_6 C41_6 1_555 1_555
C42_6 C37_7 1_555 1_555
H32_6 C42_6 1_555 1_555
C43_6 O10_6 1_555 1_555
C44_7 N4_7 1_555 1_555
H33_7 C44_7 1_555 1_555
C45_8 C44_7 1_555 1_555
H34_8 C45_8 1_555 1_555
C46_8 C45_8 1_555 1_555
C47_7 C46_8 1_555 1_555
C48_7 N4_7 1_555 1_555
C49_8 C46_8 1_555 1_555
C50_8 C49_8 1_555 1_555
H37_8 C50_8 1_555 1_555
C51_8 C50_8 1_555 1_555
H38_8 C51_8 1_555 1_555
C52_8 N5_8 1_555 1_555
C53_8 C49_8 1_555 1_555
C54_7 H41_7 1_555 1_555
C55_7 C54_7 1_555 1_555
H42_7 C55_7 1_555 1_555
C56_7 C27_7 1_555 1_555
C57_6 C56_7 1_555 1_555
H43_6 C57_6 1_555 1_555
C58_6 N7_2 1_555 1_555
H44_6 C58_6 1_555 1_555
C18_6 C19_7 1_555 1_555
C23_6 C24_6 1_555 1_555
C28_6 C29_6 1_555 1_555
C35_7 C36_7 1_555 1_555
C40_6 C43_6 1_555 1_555
C41_6 C42_6 1_555 1_555
C47_7 C48_7 1_555 1_555
C52_8 C53_8 1_555 1_555
C55_7 C56_7 1_555 1_555
C57_6 C58_6 1_555 1_555
O4_3 C14_7 1_555 1_555
O5_7 C14_7 1_555 1_555
H8_7 C10_7 1_555 1_555
C11_7 C10_7 1_555 1_555
C14_7 C11_7 1_555 1_555
Zn3_4 O4_3 1_555 1_555
Zn1_8 O1_8 1_555 1_555
O1_8 C1_8 1_555 1_555
O2_8 C1_8 1_555 1_555
O3_8 C5_8 1_555 1_555
O4_4 C14_8 1_555 1_555
O5_8 C14_8 1_555 1_555
O6_7 Zn1_8 1_555 1_555
H1_7 O6_7 1_555 1_555
H2_7 O6_7 1_555 1_555
N1_8 Zn1_8 1_555 1_555
N2_7 C22_7 1_555 1_555
N3_7 Zn1_8 1_555 1_555
C1_8 C2_8 1_555 1_555
C2_8 C3_8 1_555 1_555
C3_8 H3_8 1_555 1_555
C4_8 C3_8 1_555 1_555
H4_8 C4_8 1_555 1_555
C5_8 C4_8 1_555 1_555
C6_8 C5_8 1_555 1_555
H5_8 C6_8 1_555 1_555
C7_8 C2_8 1_555 1_555
H6_8 C7_8 1_555 1_555
C8_8 O3_8 1_555 1_555
C9_8 C8_8 1_555 1_555
H7_8 C9_8 1_555 1_555
C10_8 C9_8 1_555 1_555
H8_8 C10_8 1_555 1_555
C11_8 C10_8 1_555 1_555
C12_8 C11_8 1_555 1_555
H9_8 C12_8 1_555 1_555
C13_8 C8_8 1_555 1_555
H10_8 C13_8 1_555 1_555
C14_8 C11_8 1_555 1_555
C15_8 N1_8 1_555 1_555
H11_8 C15_8 1_555 1_555
C16_8 C15_8 1_555 1_555
H12_8 C16_8 1_555 1_555
C17_7 C16_8 1_555 1_555
C18_7 C17_7 1_555 1_555
H13_7 C18_7 1_555 1_555
C19_8 N1_8 1_555 1_555
H14_7 C19_8 1_555 1_555
C20_7 C17_7 1_555 1_555
C21_7 C20_7 1_555 1_555
H15_7 C21_7 1_555 1_555
C22_7 C21_7 1_555 1_555
H16_7 C22_7 1_555 1_555
C23_7 N2_7 1_555 1_555
H17_7 C23_7 1_555 1_555
C24_7 C20_7 1_555 1_555
H18_7 C24_7 1_555 1_555
C25_8 N3_7 1_555 1_555
H19_8 C25_8 1_555 1_555
C26_8 C25_8 1_555 1_555
C27_8 C26_8 1_555 1_555
C28_7 C27_8 1_555 1_555
H21_7 C28_7 1_555 1_555
C29_7 N3_7 1_555 1_555
H22_7 C29_7 1_555 1_555
O10_7 Zn1_8 1_555 1_555
O12_7 C43_7 1_555 1_555
H30_7 C39_7 1_555 1_555
C40_7 C39_7 1_555 1_555
C41_7 C40_7 1_555 1_555
H31_7 C41_7 1_555 1_555
H32_7 C42_7 1_555 1_555
C43_7 O10_7 1_555 1_555
C6_8 C7_8 1_555 1_555
C12_8 C13_8 1_555 1_555
C18_7 C19_8 1_555 1_555
C23_7 C24_7 1_555 1_555
C28_7 C29_7 1_555 1_555
C40_7 C43_7 1_555 1_555
C41_7 C42_7 1_555 1_555
Zn3_4 N6_5 1_555 1_555
N6_5 C54_8 1_555 1_555
C54_8 H41_8 1_555 1_555
C55_8 C54_8 1_555 1_555
C57_7 C56_8 1_555 1_555
H43_7 C57_7 1_555 1_555
C58_7 N6_5 1_555 1_555
H44_7 C58_7 1_555 1_555
C55_8 C56_8 1_555 1_555
C57_7 C58_7 1_555 1_555
H1_8 O6_8 1_555 1_555
H2_8 O6_8 1_555 1_555
H21_8 C28_8 1_555 1_555
C29_8 N3_8 1_555 1_555
H22_8 C29_8 1_555 1_555
Zn3_4 O7_8 1_555 1_555
O7_8 C30_8 1_555 1_555
O8_8 C30_8 1_555 1_555
O9_8 C34_8 1_555 1_555
O12_8 C43_8 1_555 1_555
O13_7 Zn3_4 1_555 1_555
H23_7 O13_7 1_555 1_555
H24_7 O13_7 1_555 1_555
N4_8 Zn3_4 1_555 1_555
C30_8 C31_8 1_555 1_555
C31_8 C32_8 1_555 1_555
C32_8 H25_8 1_555 1_555
C33_8 C32_8 1_555 1_555
H26_8 C33_8 1_555 1_555
C34_8 C33_8 1_555 1_555
C35_8 C34_8 1_555 1_555
H27_8 C35_8 1_555 1_555
C36_8 C31_8 1_555 1_555
H28_8 C36_8 1_555 1_555
C37_8 O9_8 1_555 1_555
C38_8 C37_8 1_555 1_555
H29_8 C38_8 1_555 1_555
C39_8 C38_8 1_555 1_555
H30_8 C39_8 1_555 1_555
C40_8 C39_8 1_555 1_555
C41_8 C40_8 1_555 1_555
H31_8 C41_8 1_555 1_555
C42_8 C37_8 1_555 1_555
H32_8 C42_8 1_555 1_555
C43_8 O10_8 1_555 1_555
C44_8 N4_8 1_555 1_555
H33_8 C44_8 1_555 1_555
H35_7 C47_8 1_555 1_555
C48_8 N4_8 1_555 1_555
H36_7 C48_8 1_555 1_555
H43_8 C57_8 1_555 1_555
C58_8 N6_6 1_555 1_555
H44_8 C58_8 1_555 1_555
C28_8 C29_8 1_555 1_555
C35_8 C36_8 1_555 1_555
C40_8 C43_8 1_555 1_555
C41_8 C42_8 1_555 1_555
C47_8 C48_8 1_555 1_555
C57_8 C58_8 1_555 1_555
H23_8 O13_8 1_555 1_555
H24_8 O13_8 1_555 1_555
N2_8 C22_8 1_555 1_555
C18_8 C17_8 1_555 1_555
H13_8 C18_8 1_555 1_555
C20_8 C17_8 1_555 1_555
C21_8 C20_8 1_555 1_555
H15_8 C21_8 1_555 1_555
C22_8 C21_8 1_555 1_555
H16_8 C22_8 1_555 1_555
C23_8 N2_8 1_555 1_555
H17_8 C23_8 1_555 1_555
C24_8 C20_8 1_555 1_555
H18_8 C24_8 1_555 1_555
C23_8 C24_8 1_555 1_555

#END
