
###############################################################################
#
# This file contains modified crystal structure data generated from the
# MOF subset of the Cambridge Structural Database (CSD) v543 
# hosted by the Cambridge Crystallographic Data Centre (CCDC).
#
# This work is licensed under the Creative Commons
# Attribution-NonCommercial-ShareAlike 4.0 International License.
# To view a copy of this license, visit
# http://creativecommons.org/licenses/by-nc-sa/4.0/
# or send a letter to
# Creative Commons, PO Box 1866, Mountain View, CA 94042, USA.
#
# CIF created using the CSD Python API on 29 September 2022
# The structure has been converted into the P1 space group
# The structure has a 3D framework
# The original CSD entry LEGGOU is in the monoclinic crystal system
# The framework has been calculated to contain at least 10.0% void space
# The void calculation uses a probe of radius 1.32A, grid spacing 0.4
# H atom positions have been added when not included in the experimental data
#
###############################################################################

data_LEGGOU
_chemical_formula_moiety         '(C128 H96 N48 O56 Zn20)n'
_symmetry_cell_setting           triclinic
_symmetry_space_group_name_H-M   'P 1'
_symmetry_Int_Tables_number      1
_space_group_name_Hall           'P 1'
loop_
_symmetry_equiv_pos_site_id
_symmetry_equiv_pos_as_xyz
1 x,y,z
_cell_length_a                   10.192(2)
_cell_length_b                   17.764(4)
_cell_length_c                   24.437(5)
_cell_angle_alpha                90
_cell_angle_beta                 91.19(3)
_cell_angle_gamma                90
_cell_volume                     4423.38
loop_
_atom_site_label
_atom_site_type_symbol
_atom_site_fract_x
_atom_site_fract_y
_atom_site_fract_z
Zn12 Zn 0.14532(5) 0.04929(3) 0.09530(2)
Zn2 Zn 0.11253(5) 0.43746(3) 0.16669(2)
Zn3 Zn 0.13066(4) 0.24458(3) 0.12818(2)
N10 N 0.2909(4) 0.1700(2) 0.15601(16)
N11 N 0.2919(4) 0.0955(2) 0.14194(18)
N12 N 0.4738(4) 0.1190(2) 0.18961(17)
C7 C 0.4010(4) 0.1816(2) 0.18344(19)
H7 H 0.4262 0.2283 0.1972
C8 C 0.4019(5) 0.0673(3) 0.1627(3)
H8 H 0.4267 0.0172 0.1590
C17 C 0.1775(4) 0.1557(3) 0.01442(19)
C25 C 0.1009(4) 0.5804(3) 0.1226(2)
C26 C 0.1120(4) 0.6640(3) 0.12404(18)
C27 C 0.1269(5) 0.7019(3) 0.1738(2)
H17 H 0.1330 0.6746 0.2062
C28 C 0.1076(5) 0.7056(3) 0.0759(2)
H18 H 0.0993 0.6811 0.0424
C29 C 0.1326(5) 0.7793(3) 0.1753(2)
H19 H 0.1392 0.8040 0.2088
C30 C 0.1284(4) 0.8205(3) 0.1271(2)
C31 C 0.1156(5) 0.7831(3) 0.0775(2)
H20 H 0.1124 0.8105 0.0450
C32 C 0.1360(5) 0.9051(3) 0.1302(3)
O5 O 0.1490(4) 0.1998(2) 0.05103(15)
O6 O 0.1826(4) 0.0849(2) 0.02050(15)
O9 O 0.1244(4) 0.54650(17) 0.16856(15)
O10 O 0.0710(4) 0.54774(19) 0.07962(16)
O11 O 0.1465(4) 0.94038(19) 0.08543(19)
O12 O 0.1278(6) 0.9368(2) 0.1745(2)
Zn10 Zn 0.64863(5) 0.10195(3) 0.22525(2)
N13 N 0.2716(4) 0.3990(2) 0.12960(16)
N14 N 0.2750(3) 0.3255(2) 0.11264(16)
O15 O 0.0688(3) 0.40721(18) 0.24299(13)
O16 O 0.1132(3) 0.29596(19) 0.20843(14)
C18 C 0.2016(4) 0.1882(3) 0.95853(19)
C19 C 0.2107(5) 0.2658(3) 0.9533(2)
H13 H 0.2150 0.2959 0.9845
C20 C 0.2024(5) 0.1431(3) 0.9121(2)
H14 H 0.2010 0.0909 0.9152
C21 C 0.2052(6) 0.1768(3) 0.8611(2)
H15 H 0.2065 0.1466 0.8301
C22 C 0.2134(5) 0.2986(3) 0.9019(2)
H16 H 0.2201 0.3506 0.8987
C23 C 0.2061(5) 0.2540(3) 0.8551(2)
C24 C 0.1893(5) 0.2912(4) 0.7997(2)
O7 O 0.1886(4) 0.3631(3) 0.79967(16)
O8 O 0.1719(4) 0.2532(3) 0.75790(17)
Zn11 Zn 0.14863(5) 0.39805(3) 0.72525(2)
Zn1 Zn 0.61189(5) 0.39737(3) 0.03810(2)
N1 N 0.9647(4) 0.3930(2) 0.12225(16)
N2 N 0.9697(3) 0.3205(2) 0.10308(16)
N3 N 0.7849(3) 0.3732(2) 0.07278(16)
N4 N 0.9869(4) 0.1662(2) 0.14801(17)
N5 N 0.9878(4) 0.0915(2) 0.13282(17)
N6 N 0.8096(4) 0.1129(2) 0.18088(17)
N9 N 0.4492(3) 0.3833(2) 0.08061(16)
C1 C 0.8545(4) 0.4222(3) 0.1037(2)
H1 H 0.8275 0.4711 0.1111
C2 C 0.8610(4) 0.3110(3) 0.0738(2)
H2 H 0.8391 0.2665 0.0558
C3 C 0.8788(4) 0.1767(3) 0.1760(2)
H3 H 0.8538 0.2228 0.1906
C4 C 0.8815(5) 0.0620(3) 0.1533(2)
H4 H 0.8582 0.0117 0.1494
C5 C 0.3816(4) 0.3188(2) 0.08405(19)
H5 H 0.4076 0.2741 0.0678
C6 C 0.3764(4) 0.4314(3) 0.1099(2)
H6 H 0.3979 0.4817 0.1155
O13 O 0.6358(3) 0.51132(19) 0.03970(16)
O17 O 0.6886(4) 0.1369(3) 0.29967(16)
H23 H 0.713887 0.525211 0.0182621
H24 H 0.556635 0.535916 0.0234628
C9 C 0.5774(4) 0.1644(3) 0.74708(18)
C10 C 0.5507(4) 0.2013(3) 0.80091(18)
C11 C 0.5395(5) 0.1593(3) 0.84806(19)
H9 H 0.5320 0.1072 0.8460
C12 C 0.5519(5) 0.2793(3) 0.8039(2)
H10 H 0.5542 0.3078 0.7720
C13 C 0.5496(5) 0.3145(3) 0.8543(2)
H11 H 0.5482 0.3668 0.8562
C14 C 0.5394(5) 0.1950(3) 0.8988(2)
H12 H 0.5327 0.1668 0.9307
C15 C 0.5494(4) 0.2730(3) 0.9016(2)
C16 C 0.5682(4) 0.3105(3) 0.9564(2)
O1 O 0.5688(3) 0.09279(18) 0.74299(13)
O2 O 0.6132(3) 0.20404(19) 0.70843(14)
O3 O 0.5887(4) 0.2728(2) 0.99826(15)
O4 O 0.5687(3) 0.3835(2) 0.95803(14)
Zn7 Zn 0.61253(5) 0.06254(3) 0.66669(2)
Zn9 Zn 0.63066(4) 0.25542(3) 0.62818(2)
Zn1_2 Zn 0.11189(5) 0.10263(3) 0.53810(2)
Zn5 Zn 0.64532(5) 0.45071(3) 0.59530(2)
N1_2 N 0.4647(4) 0.1070(2) 0.62225(16)
N2_2 N 0.4697(3) 0.1795(2) 0.60308(16)
N3_2 N 0.2849(3) 0.1268(2) 0.57278(16)
N4_2 N 0.4869(4) 0.3338(2) 0.64801(17)
N5_2 N 0.4878(4) 0.4085(2) 0.63282(17)
N6_2 N 0.3096(4) 0.3871(2) 0.68088(17)
N10_2 N 0.7909(4) 0.3300(2) 0.65601(16)
N11_2 N 0.7919(4) 0.4045(2) 0.64194(18)
N12_2 N 0.9738(4) 0.3810(2) 0.68961(17)
C1_2 C 0.3545(4) 0.0778(3) 0.6037(2)
H1_2 H 0.3275 0.0289 0.6111
C2_2 C 0.3610(4) 0.1890(3) 0.5738(2)
H2_2 H 0.3391 0.2335 0.5558
C3_2 C 0.3788(4) 0.3233(3) 0.6760(2)
H3_2 H 0.3538 0.2772 0.6906
C4_2 C 0.3815(5) 0.4380(3) 0.6533(2)
H4_2 H 0.3582 0.4883 0.6494
C7_2 C 0.9010(4) 0.3184(2) 0.68344(19)
H7_2 H 0.9262 0.2717 0.6972
C8_2 C 0.9019(5) 0.4327(3) 0.6627(3)
H8_2 H 0.9267 0.4828 0.6590
C9_2 C 0.0774(4) 0.3356(3) 0.24708(18)
C10_2 C 0.0507(4) 0.2987(3) 0.30091(18)
C11_2 C 0.0395(5) 0.3407(3) 0.34806(19)
H9_2 H 0.0320 0.3928 0.3460
C12_2 C 0.0519(5) 0.2207(3) 0.3039(2)
H10_2 H 0.0542 0.1922 0.2720
C13_2 C 0.0496(5) 0.1855(3) 0.3543(2)
H11_2 H 0.0482 0.1332 0.3562
C14_2 C 0.0394(5) 0.3050(3) 0.3988(2)
H12_2 H 0.0327 0.3332 0.4307
C15_2 C 0.0494(4) 0.2270(3) 0.4016(2)
C16_2 C 0.0682(4) 0.1895(3) 0.4564(2)
C17_2 C 0.6775(4) 0.3443(3) 0.51442(19)
C18_2 C 0.7016(4) 0.3118(3) 0.45853(19)
C19_2 C 0.7107(5) 0.2342(3) 0.4533(2)
H13_2 H 0.7150 0.2041 0.4845
C20_2 C 0.7024(5) 0.3569(3) 0.4121(2)
H14_2 H 0.7010 0.4091 0.4152
C21_2 C 0.7052(6) 0.3232(3) 0.3611(2)
H15_2 H 0.7065 0.3534 0.3301
C22_2 C 0.7134(5) 0.2014(3) 0.4019(2)
H16_2 H 0.7201 0.1494 0.3987
C23_2 C 0.7061(5) 0.2460(3) 0.3551(2)
C24_2 C 0.6893(5) 0.2088(4) 0.2997(2)
O3_2 O 0.0887(4) 0.2272(2) 0.49826(15)
O4_2 O 0.0687(3) 0.1165(2) 0.45803(14)
O5_2 O 0.6490(4) 0.3002(2) 0.55103(15)
O6_2 O 0.6826(4) 0.4151(2) 0.52050(15)
O8_2 O 0.6719(4) 0.2468(3) 0.25790(17)
O14 O 0.1490(4) 0.5112(2) 0.73270(18)
N13_2 N 0.7716(4) 0.1010(2) 0.62960(16)
N14_2 N 0.7750(3) 0.1745(2) 0.61264(16)
O18 O 0.6465(4) 0.55962(19) 0.58543(19)
H21 H 0.231461 0.527567 0.751507
H22 H 0.0726657 0.527199 0.754462
C25_2 C 0.6009(4) 0.9196(3) 0.6226(2)
C26_2 C 0.6120(4) 0.8360(3) 0.62404(18)
C27_2 C 0.6269(5) 0.7981(3) 0.6738(2)
H17_2 H 0.6330 0.8254 0.7062
C28_2 C 0.6076(5) 0.7944(3) 0.5759(2)
H18_2 H 0.5993 0.8189 0.5424
C29_2 C 0.6326(5) 0.7207(3) 0.6753(2)
H19_2 H 0.6392 0.6960 0.7088
C30_2 C 0.6284(4) 0.6795(3) 0.6271(2)
C31_2 C 0.6156(5) 0.7169(3) 0.5775(2)
H20_2 H 0.6124 0.6895 0.5450
C32_2 C 0.6360(5) 0.5949(3) 0.6302(3)
O9_2 O 0.6244(4) 0.95350(17) 0.66856(15)
O10_2 O 0.5710(4) 0.95226(19) 0.57962(16)
O12_2 O 0.6278(6) 0.5632(2) 0.6745(2)
O13_2 O 0.1358(3) 0.98868(19) 0.53970(16)
H23_2 H 0.213887 0.974789 0.518262
H24_2 H 0.0566349 0.964084 0.523463
N9_2 N 0.9492(3) 0.1167(2) 0.58061(16)
C5_2 C 0.8816(4) 0.1812(2) 0.58405(19)
H5_2 H 0.9076 0.2259 0.5678
C6_2 C 0.8764(4) 0.0686(3) 0.6099(2)
H6_2 H 0.8979 0.0183 0.6155
O14_2 O 0.6490(4) 0.9888(2) 0.23270(18)
H21_2 H 0.731461 0.972433 0.251507
H22_2 H 0.572666 0.972801 0.254462
N7 N 0.2284(4) 0.8990(2) 0.37040(16)
N8 N 0.2250(3) 0.8255(2) 0.38736(16)
N9_3 N 0.0508(3) 0.8833(2) 0.41939(16)
C5_3 C 0.1184(4) 0.8188(2) 0.41595(19)
H5_3 H 0.0924 0.7741 0.4322
C6_3 C 0.1236(4) 0.9314(3) 0.3901(2)
H6_3 H 0.1021 0.9817 0.3845
Zn6 Zn 0.38747(5) 0.93746(3) 0.33331(2)
Zn8 Zn 0.36934(4) 0.74458(3) 0.37182(2)
N15 N 0.0262(4) 0.6190(2) 0.31039(17)
C25_3 C 0.3991(4) 0.0804(3) 0.3774(2)
C26_3 C 0.3880(4) 0.1640(3) 0.37596(18)
C27_3 C 0.3731(5) 0.2019(3) 0.3262(2)
H17_3 H 0.3670 0.1746 0.2938
C28_3 C 0.3924(5) 0.2056(3) 0.4241(2)
H18_3 H 0.4007 0.1811 0.4576
C29_3 C 0.3674(5) 0.2793(3) 0.3247(2)
H19_3 H 0.3608 0.3040 0.2912
C30_3 C 0.3716(4) 0.3205(3) 0.3729(2)
C31_3 C 0.3844(5) 0.2831(3) 0.4225(2)
H20_3 H 0.3876 0.3105 0.4550
C32_3 C 0.3640(5) 0.4051(3) 0.3698(3)
O9_3 O 0.3756(4) 0.04650(17) 0.33144(15)
O10_3 O 0.4290(4) 0.04774(19) 0.42038(16)
O11_2 O 0.3535(4) 0.44038(19) 0.41457(19)
O12_3 O 0.3722(6) 0.4368(2) 0.3255(2)
O13_3 O 0.8642(3) 0.01132(19) 0.46030(16)
Zn12_2 Zn 0.35468(5) 0.54929(3) 0.40470(2)
H23_3 H 0.786113 0.0252105 0.481738
H24_3 H 0.943365 0.0359158 0.476537
Zn1_3 Zn 0.88811(5) 0.89737(3) 0.46190(2)
Zn4 Zn 0.85137(5) 0.60195(3) 0.27475(2)
N1_3 N 0.5353(4) 0.8930(2) 0.37775(16)
N2_3 N 0.5303(3) 0.8205(2) 0.39692(16)
N3_3 N 0.7151(3) 0.8732(2) 0.42722(16)
N4_3 N 0.5131(4) 0.6662(2) 0.35199(17)
N5_3 N 0.5122(4) 0.5915(2) 0.36718(17)
N6_3 N 0.6904(4) 0.6129(2) 0.31912(17)
N10_3 N 0.2091(4) 0.6700(2) 0.34399(16)
N11_3 N 0.2081(4) 0.5955(2) 0.35806(18)
C1_3 C 0.6455(4) 0.9222(3) 0.3963(2)
H1_3 H 0.6725 0.9711 0.3889
C2_3 C 0.6390(4) 0.8110(3) 0.4262(2)
H2_3 H 0.6609 0.7665 0.4442
C3_3 C 0.6212(4) 0.6767(3) 0.3240(2)
H3_3 H 0.6462 0.7228 0.3094
C4_3 C 0.6185(5) 0.5620(3) 0.3467(2)
H4_3 H 0.6418 0.5117 0.3506
C7_3 C 0.0990(4) 0.6816(2) 0.31656(19)
H7_3 H 0.0738 0.7283 0.3028
C8_3 C 0.0981(5) 0.5673(3) 0.3373(3)
H8_3 H 0.0733 0.5172 0.3410
C9_3 C 0.9226(4) 0.6644(3) 0.75292(18)
C10_3 C 0.9493(4) 0.7013(3) 0.69909(18)
C11_3 C 0.9605(5) 0.6593(3) 0.65194(19)
H9_3 H 0.9680 0.6072 0.6540
C12_3 C 0.9481(5) 0.7793(3) 0.6961(2)
H10_3 H 0.9458 0.8078 0.7280
C13_3 C 0.9504(5) 0.8145(3) 0.6457(2)
H11_3 H 0.9518 0.8668 0.6438
C14_3 C 0.9606(5) 0.6950(3) 0.6012(2)
H12_3 H 0.9673 0.6668 0.5693
C15_3 C 0.9506(4) 0.7730(3) 0.5984(2)
C16_3 C 0.9318(4) 0.8105(3) 0.5436(2)
C17_3 C 0.3225(4) 0.6557(3) 0.48558(19)
C18_3 C 0.2984(4) 0.6882(3) 0.54147(19)
C19_3 C 0.2893(5) 0.7658(3) 0.5467(2)
H13_3 H 0.2850 0.7959 0.5155
C20_3 C 0.2976(5) 0.6431(3) 0.5879(2)
H14_3 H 0.2990 0.5909 0.5848
C21_3 C 0.2948(6) 0.6768(3) 0.6389(2)
H15_3 H 0.2935 0.6466 0.6699
C22_3 C 0.2866(5) 0.7986(3) 0.5981(2)
H16_3 H 0.2799 0.8506 0.6013
C23_3 C 0.2939(5) 0.7540(3) 0.6449(2)
C24_3 C 0.3107(5) 0.7912(4) 0.7003(2)
O1_2 O 0.9312(3) 0.59279(18) 0.75701(13)
O2_2 O 0.8868(3) 0.70404(19) 0.79157(14)
O3_3 O 0.9113(4) 0.7728(2) 0.50174(15)
O4_3 O 0.9313(3) 0.8835(2) 0.54197(14)
O5_3 O 0.3510(4) 0.6998(2) 0.44897(15)
O6_3 O 0.3174(4) 0.5849(2) 0.47950(15)
O7_2 O 0.3114(4) 0.8631(3) 0.70033(16)
O8_3 O 0.3281(4) 0.7532(3) 0.74210(17)
O14_3 O 0.8510(4) 0.4888(2) 0.26730(18)
Zn7_2 Zn 0.88747(5) 0.56254(3) 0.83331(2)
Zn9_2 Zn 0.86934(4) 0.75542(3) 0.87182(2)
Zn11_2 Zn 0.35137(5) 0.89805(3) 0.77475(2)
O15_2 O 0.4312(3) 0.90721(18) 0.25701(13)
O16_2 O 0.3868(3) 0.79596(19) 0.29157(14)
O17_2 O 0.8114(4) 0.6369(3) 0.20033(16)
H21_3 H 0.768539 0.472433 0.248493
H22_3 H 0.927334 0.472801 0.245538
C9_4 C 0.4226(4) 0.8356(3) 0.25292(18)
C10_4 C 0.4493(4) 0.7987(3) 0.19909(18)
C11_4 C 0.4605(5) 0.8407(3) 0.15194(19)
H9_4 H 0.4680 0.8928 0.1540
C12_4 C 0.4481(5) 0.7207(3) 0.1961(2)
H10_4 H 0.4458 0.6922 0.2280
C13_4 C 0.4504(5) 0.6855(3) 0.1457(2)
H11_4 H 0.4518 0.6332 0.1438
C14_4 C 0.4606(5) 0.8050(3) 0.1012(2)
H12_4 H 0.4673 0.8332 0.0693
C15_4 C 0.4506(4) 0.7270(3) 0.0984(2)
C16_4 C 0.4318(4) 0.6895(3) 0.0436(2)
O3_4 O 0.4113(4) 0.7272(2) 0.00174(15)
O4_4 O 0.4313(3) 0.6165(2) 0.04197(14)
Zn1_4 Zn 0.38811(5) 0.60263(3) 0.96190(2)
N1_4 N 0.0353(4) 0.6070(2) 0.87775(16)
N2_4 N 0.0303(3) 0.6795(2) 0.89692(16)
N3_4 N 0.2151(3) 0.6268(2) 0.92722(16)
N4_4 N 0.0131(4) 0.8338(2) 0.85199(17)
N5_4 N 0.0122(4) 0.9085(2) 0.86718(17)
N6_4 N 0.1904(4) 0.8871(2) 0.81912(17)
N7_2 N 0.7284(4) 0.6010(2) 0.87040(16)
N8_2 N 0.7250(3) 0.6745(2) 0.88736(16)
N9_4 N 0.5508(3) 0.6167(2) 0.91939(16)
C1_4 C 0.1455(4) 0.5778(3) 0.8963(2)
H1_4 H 0.1725 0.5289 0.8889
C2_4 C 0.1390(4) 0.6890(3) 0.9262(2)
H2_4 H 0.1609 0.7335 0.9442
C3_4 C 0.1212(4) 0.8233(3) 0.8240(2)
H3_4 H 0.1462 0.7772 0.8094
C4_4 C 0.1185(5) 0.9380(3) 0.8467(2)
H4_4 H 0.1418 0.9883 0.8506
C5_4 C 0.6184(4) 0.6812(2) 0.91595(19)
H5_4 H 0.5924 0.7259 0.9322
C6_4 C 0.6236(4) 0.5686(3) 0.8901(2)
H6_4 H 0.6021 0.5183 0.8845
O13_4 O 0.3642(3) 0.48868(19) 0.96030(16)
N15_2 N 0.5262(4) 0.8810(2) 0.81039(17)
H23_4 H 0.286113 0.474789 0.981738
H24_4 H 0.443365 0.464084 0.976537
O18_2 O 0.8535(4) 0.05962(19) 0.91457(19)
C18_4 C 0.7984(4) 0.8118(3) 0.04147(19)
C19_4 C 0.7893(5) 0.7342(3) 0.0467(2)
H13_4 H 0.7850 0.7041 0.0155
C20_4 C 0.7976(5) 0.8569(3) 0.0879(2)
H14_4 H 0.7990 0.9091 0.0848
C21_4 C 0.7948(6) 0.8232(3) 0.1389(2)
H15_4 H 0.7935 0.8534 0.1699
C22_4 C 0.7866(5) 0.7014(3) 0.0981(2)
H16_4 H 0.7799 0.6494 0.1013
C23_4 C 0.7939(5) 0.7460(3) 0.1449(2)
C24_4 C 0.8107(5) 0.7088(4) 0.2003(2)
O8_4 O 0.8281(4) 0.7468(3) 0.24210(17)
Zn5_2 Zn 0.85468(5) 0.95071(3) 0.90470(2)
N10_4 N 0.7091(4) 0.8300(2) 0.84399(16)
N11_4 N 0.7081(4) 0.9045(2) 0.85806(18)
C7_4 C 0.5990(4) 0.8184(2) 0.81656(19)
H7_4 H 0.5738 0.7717 0.8028
C8_4 C 0.5981(5) 0.9327(3) 0.8373(3)
H8_4 H 0.5733 0.9828 0.8410
C17_4 C 0.8225(4) 0.8443(3) 0.98558(19)
C25_4 C 0.8991(4) 0.4196(3) 0.8774(2)
C26_4 C 0.8880(4) 0.3360(3) 0.87596(18)
C27_4 C 0.8731(5) 0.2981(3) 0.8262(2)
H17_4 H 0.8670 0.3254 0.7938
C28_4 C 0.8924(5) 0.2944(3) 0.9241(2)
H18_4 H 0.9007 0.3189 0.9576
C29_4 C 0.8674(5) 0.2207(3) 0.8247(2)
H19_4 H 0.8608 0.1960 0.7912
C30_4 C 0.8716(4) 0.1795(3) 0.8729(2)
C31_4 C 0.8844(5) 0.2169(3) 0.9225(2)
H20_4 H 0.8876 0.1895 0.9550
C32_4 C 0.8640(5) 0.0949(3) 0.8698(3)
O5_4 O 0.8510(4) 0.8002(2) 0.94897(15)
O6_4 O 0.8174(4) 0.9151(2) 0.97950(15)
O9_4 O 0.8756(4) 0.45350(17) 0.83144(15)
O10_4 O 0.9290(4) 0.45226(19) 0.92038(16)
O12_4 O 0.8722(6) 0.0632(2) 0.8255(2)
O14_4 O 0.3510(4) 0.0112(2) 0.76730(18)
H21_4 H 0.268539 0.0275674 0.748493
H22_4 H 0.427334 0.0271989 0.745538
loop_
_geom_bond_atom_site_label_1
_geom_bond_atom_site_label_2
_geom_bond_site_symmetry_1
_geom_bond_site_symmetry_2
N10 Zn3 1_555 1_555
N11 Zn12 1_555 1_555
N12 C7 1_555 1_555
C7 N10 1_555 1_555
H7 C7 1_555 1_555
C8 N11 1_555 1_555
H8 C8 1_555 1_555
C25 C26 1_555 1_555
C26 C27 1_555 1_555
C27 H17 1_555 1_555
C28 C26 1_555 1_555
H18 C28 1_555 1_555
C29 C27 1_555 1_555
H19 C29 1_555 1_555
C30 C29 1_555 1_555
C31 C28 1_555 1_555
H20 C31 1_555 1_555
C32 C30 1_555 1_555
O5 Zn3 1_555 1_555
O6 Zn12 1_555 1_555
O9 Zn2 1_555 1_555
O10 C25 1_555 1_555
O11 C32 1_555 1_555
O12 C32 1_555 1_555
Zn10 N12 1_555 1_555
N13 Zn2 1_555 1_555
N14 Zn3 1_555 1_555
O15 Zn2 1_555 1_555
O16 Zn3 1_555 1_555
N10 N11 1_555 1_555
N12 C8 1_555 1_555
C17 O5 1_555 1_555
C17 O6 1_555 1_555
C25 O9 1_555 1_555
C30 C31 1_555 1_555
N13 N14 1_555 1_555
C18 C19 1_555 1_555
C19 H13 1_555 1_555
C20 C18 1_555 1_555
H14 C20 1_555 1_555
C21 C20 1_555 1_555
H15 C21 1_555 1_555
C22 C19 1_555 1_555
H16 C22 1_555 1_555
C23 C21 1_555 1_555
C24 C23 1_555 1_555
O7 C24 1_555 1_555
O8 C24 1_555 1_555
Zn11 O7 1_555 1_555
C22 C23 1_555 1_555
Zn1 N3 1_555 1_555
Zn10 N6 1_555 1_555
N1 N2 1_555 1_555
N2 C2 1_555 1_555
N3 C1 1_555 1_555
N5 N4 1_555 1_555
N6 C3 1_555 1_555
N14 C5 1_555 1_555
N9 Zn1 1_555 1_555
C1 N1 1_555 1_555
H1 C1 1_555 1_555
C2 N3 1_555 1_555
H2 C2 1_555 1_555
C3 N4 1_555 1_555
H3 C3 1_555 1_555
C4 N5 1_555 1_555
H4 C4 1_555 1_555
C5 N9 1_555 1_555
H5 C5 1_555 1_555
C6 N13 1_555 1_555
H6 C6 1_555 1_555
O13 Zn1 1_555 1_555
O17 Zn10 1_555 1_555
N6 C4 1_555 1_555
N9 C6 1_555 1_555
O13 H23 1_555 1_555
O13 H24 1_555 1_555
C9 C10 1_555 1_555
C10 C11 1_555 1_555
C11 H9 1_555 1_555
C12 C10 1_555 1_555
H10 C12 1_555 1_555
C13 C12 1_555 1_555
H11 C13 1_555 1_555
C14 C11 1_555 1_555
H12 C14 1_555 1_555
C15 C13 1_555 1_555
C16 C15 1_555 1_555
O1 C9 1_555 1_555
O2 C9 1_555 1_555
O3 C16 1_555 1_555
Zn7 O1 1_555 1_555
Zn9 O2 1_555 1_555
C14 C15 1_555 1_555
C16 O4 1_555 1_555
Zn1_2 N3_2 1_555 1_555
Zn7 N1_2 1_555 1_555
Zn9 N2_2 1_555 1_555
Zn11 N6_2 1_555 1_555
Zn5 N5_2 1_555 1_555
N1_2 N2_2 1_555 1_555
N2_2 C2_2 1_555 1_555
N3_2 C1_2 1_555 1_555
N4_2 Zn9 1_555 1_555
N5_2 N4_2 1_555 1_555
N6_2 C3_2 1_555 1_555
N10_2 Zn9 1_555 1_555
N11_2 Zn5 1_555 1_555
N12_2 C7_2 1_555 1_555
C1_2 N1_2 1_555 1_555
H1_2 C1_2 1_555 1_555
C2_2 N3_2 1_555 1_555
H2_2 C2_2 1_555 1_555
C3_2 N4_2 1_555 1_555
H3_2 C3_2 1_555 1_555
C4_2 N5_2 1_555 1_555
H4_2 C4_2 1_555 1_555
C7_2 N10_2 1_555 1_555
H7_2 C7_2 1_555 1_555
C8_2 N11_2 1_555 1_555
H8_2 C8_2 1_555 1_555
C9_2 C10_2 1_555 1_555
C10_2 C11_2 1_555 1_555
C11_2 H9_2 1_555 1_555
C12_2 C10_2 1_555 1_555
H10_2 C12_2 1_555 1_555
C13_2 C12_2 1_555 1_555
H11_2 C13_2 1_555 1_555
C14_2 C11_2 1_555 1_555
H12_2 C14_2 1_555 1_555
C15_2 C13_2 1_555 1_555
C16_2 C15_2 1_555 1_555
C17_2 C18_2 1_555 1_555
C18_2 C19_2 1_555 1_555
C19_2 H13_2 1_555 1_555
C20_2 C18_2 1_555 1_555
H14_2 C20_2 1_555 1_555
C21_2 C20_2 1_555 1_555
H15_2 C21_2 1_555 1_555
C22_2 C19_2 1_555 1_555
H16_2 C22_2 1_555 1_555
C23_2 C21_2 1_555 1_555
C24_2 C23_2 1_555 1_555
O15 C9_2 1_555 1_555
O16 C9_2 1_555 1_555
O3_2 C16_2 1_555 1_555
O4_2 Zn1_2 1_555 1_555
O5_2 Zn9 1_555 1_555
O6_2 Zn5 1_555 1_555
O17 C24_2 1_555 1_555
O8_2 C24_2 1_555 1_555
O14 Zn11 1_555 1_555
N13_2 Zn7 1_555 1_555
N14_2 Zn9 1_555 1_555
O18 Zn5 1_555 1_555
N6_2 C4_2 1_555 1_555
N10_2 N11_2 1_555 1_555
N12_2 C8_2 1_555 1_555
C14_2 C15_2 1_555 1_555
C16_2 O4_2 1_555 1_555
C17_2 O5_2 1_555 1_555
C17_2 O6_2 1_555 1_555
C22_2 C23_2 1_555 1_555
N13_2 N14_2 1_555 1_555
O14 H21 1_555 1_555
O14 H22 1_555 1_555
C25_2 C26_2 1_555 1_555
C26_2 C27_2 1_555 1_555
C27_2 H17_2 1_555 1_555
C28_2 C26_2 1_555 1_555
H18_2 C28_2 1_555 1_555
C29_2 C27_2 1_555 1_555
H19_2 C29_2 1_555 1_555
C30_2 C29_2 1_555 1_555
C31_2 C28_2 1_555 1_555
H20_2 C31_2 1_555 1_555
C32_2 C30_2 1_555 1_555
O10_2 C25_2 1_555 1_555
O18 C32_2 1_555 1_555
O12_2 C32_2 1_555 1_555
C25_2 O9_2 1_555 1_555
C30_2 C31_2 1_555 1_555
O13_2 H23_2 1_555 1_555
O13_2 H24_2 1_555 1_555
N14_2 C5_2 1_555 1_555
C5_2 N9_2 1_555 1_555
H5_2 C5_2 1_555 1_555
C6_2 N13_2 1_555 1_555
H6_2 C6_2 1_555 1_555
N9_2 C6_2 1_555 1_555
O14_2 H21_2 1_555 1_555
O14_2 H22_2 1_555 1_555
N7 N8 1_555 1_555
N8 C5_3 1_555 1_555
C5_3 N9_3 1_555 1_555
H5_3 C5_3 1_555 1_555
C6_3 N7 1_555 1_555
H6_3 C6_3 1_555 1_555
Zn6 N7 1_555 1_555
Zn8 N8 1_555 1_555
N9_3 C6_3 1_555 1_555
C25_3 C26_3 1_555 1_555
C26_3 C27_3 1_555 1_555
C27_3 H17_3 1_555 1_555
C28_3 C26_3 1_555 1_555
H18_3 C28_3 1_555 1_555
C29_3 C27_3 1_555 1_555
H19_3 C29_3 1_555 1_555
C30_3 C29_3 1_555 1_555
C31_3 C28_3 1_555 1_555
H20_3 C31_3 1_555 1_555
C32_3 C30_3 1_555 1_555
O10_3 C25_3 1_555 1_555
O11_2 C32_3 1_555 1_555
O12_3 C32_3 1_555 1_555
Zn12_2 O11_2 1_555 1_555
C25_3 O9_3 1_555 1_555
C30_3 C31_3 1_555 1_555
O13_3 H23_3 1_555 1_555
O13_3 H24_3 1_555 1_555
Zn1_3 N3_3 1_555 1_555
Zn6 N1_3 1_555 1_555
Zn8 N2_3 1_555 1_555
Zn4 N6_3 1_555 1_555
Zn12_2 N5_3 1_555 1_555
N1_3 N2_3 1_555 1_555
N2_3 C2_3 1_555 1_555
N3_3 C1_3 1_555 1_555
N4_3 Zn8 1_555 1_555
N5_3 N4_3 1_555 1_555
N6_3 C3_3 1_555 1_555
N10_3 Zn8 1_555 1_555
N11_3 Zn12_2 1_555 1_555
N15 C7_3 1_555 1_555
C1_3 N1_3 1_555 1_555
H1_3 C1_3 1_555 1_555
C2_3 N3_3 1_555 1_555
H2_3 C2_3 1_555 1_555
C3_3 N4_3 1_555 1_555
H3_3 C3_3 1_555 1_555
C4_3 N5_3 1_555 1_555
H4_3 C4_3 1_555 1_555
C7_3 N10_3 1_555 1_555
H7_3 C7_3 1_555 1_555
C8_3 N11_3 1_555 1_555
H8_3 C8_3 1_555 1_555
C9_3 C10_3 1_555 1_555
C10_3 C11_3 1_555 1_555
C11_3 H9_3 1_555 1_555
C12_3 C10_3 1_555 1_555
H10_3 C12_3 1_555 1_555
C13_3 C12_3 1_555 1_555
H11_3 C13_3 1_555 1_555
C14_3 C11_3 1_555 1_555
H12_3 C14_3 1_555 1_555
C15_3 C13_3 1_555 1_555
C16_3 C15_3 1_555 1_555
C17_3 C18_3 1_555 1_555
C18_3 C19_3 1_555 1_555
C19_3 H13_3 1_555 1_555
C20_3 C18_3 1_555 1_555
H14_3 C20_3 1_555 1_555
C21_3 C20_3 1_555 1_555
H15_3 C21_3 1_555 1_555
C22_3 C19_3 1_555 1_555
H16_3 C22_3 1_555 1_555
C23_3 C21_3 1_555 1_555
C24_3 C23_3 1_555 1_555
O1_2 C9_3 1_555 1_555
O2_2 C9_3 1_555 1_555
O3_3 C16_3 1_555 1_555
O4_3 Zn1_3 1_555 1_555
O5_3 Zn8 1_555 1_555
O6_3 Zn12_2 1_555 1_555
O7_2 C24_3 1_555 1_555
O8_3 C24_3 1_555 1_555
O14_3 Zn4 1_555 1_555
Zn7_2 O1_2 1_555 1_555
Zn9_2 O2_2 1_555 1_555
Zn11_2 O7_2 1_555 1_555
O15_2 Zn6 1_555 1_555
O16_2 Zn8 1_555 1_555
O17_2 Zn4 1_555 1_555
N6_3 C4_3 1_555 1_555
N10_3 N11_3 1_555 1_555
N15 C8_3 1_555 1_555
C14_3 C15_3 1_555 1_555
C16_3 O4_3 1_555 1_555
C17_3 O5_3 1_555 1_555
C17_3 O6_3 1_555 1_555
C22_3 C23_3 1_555 1_555
O14_3 H21_3 1_555 1_555
O14_3 H22_3 1_555 1_555
C9_4 C10_4 1_555 1_555
C10_4 C11_4 1_555 1_555
C11_4 H9_4 1_555 1_555
C12_4 C10_4 1_555 1_555
H10_4 C12_4 1_555 1_555
C13_4 C12_4 1_555 1_555
H11_4 C13_4 1_555 1_555
C14_4 C11_4 1_555 1_555
H12_4 C14_4 1_555 1_555
C15_4 C13_4 1_555 1_555
C16_4 C15_4 1_555 1_555
O15_2 C9_4 1_555 1_555
O16_2 C9_4 1_555 1_555
O3_4 C16_4 1_555 1_555
C14_4 C15_4 1_555 1_555
C16_4 O4_4 1_555 1_555
Zn1_4 N3_4 1_555 1_555
Zn11_2 N6_4 1_555 1_555
N1_4 N2_4 1_555 1_555
N2_4 C2_4 1_555 1_555
N3_4 C1_4 1_555 1_555
N5_4 N4_4 1_555 1_555
N6_4 C3_4 1_555 1_555
N7_2 N8_2 1_555 1_555
N8_2 C5_4 1_555 1_555
N9_4 Zn1_4 1_555 1_555
C1_4 N1_4 1_555 1_555
H1_4 C1_4 1_555 1_555
C2_4 N3_4 1_555 1_555
H2_4 C2_4 1_555 1_555
C3_4 N4_4 1_555 1_555
H3_4 C3_4 1_555 1_555
C4_4 N5_4 1_555 1_555
H4_4 C4_4 1_555 1_555
C5_4 N9_4 1_555 1_555
H5_4 C5_4 1_555 1_555
C6_4 N7_2 1_555 1_555
H6_4 C6_4 1_555 1_555
O13_4 Zn1_4 1_555 1_555
Zn7_2 N7_2 1_555 1_555
Zn9_2 N8_2 1_555 1_555
N15_2 Zn11_2 1_555 1_555
N6_4 C4_4 1_555 1_555
N9_4 C6_4 1_555 1_555
O13_4 H23_4 1_555 1_555
O13_4 H24_4 1_555 1_555
C18_4 C19_4 1_555 1_555
C19_4 H13_4 1_555 1_555
C20_4 C18_4 1_555 1_555
H14_4 C20_4 1_555 1_555
C21_4 C20_4 1_555 1_555
H15_4 C21_4 1_555 1_555
C22_4 C19_4 1_555 1_555
H16_4 C22_4 1_555 1_555
C23_4 C21_4 1_555 1_555
C24_4 C23_4 1_555 1_555
O17_2 C24_4 1_555 1_555
O8_4 C24_4 1_555 1_555
C22_4 C23_4 1_555 1_555
N10_4 Zn9_2 1_555 1_555
N11_4 Zn5_2 1_555 1_555
N15_2 C7_4 1_555 1_555
C7_4 N10_4 1_555 1_555
H7_4 C7_4 1_555 1_555
C8_4 N11_4 1_555 1_555
H8_4 C8_4 1_555 1_555
C25_4 C26_4 1_555 1_555
C26_4 C27_4 1_555 1_555
C27_4 H17_4 1_555 1_555
C28_4 C26_4 1_555 1_555
H18_4 C28_4 1_555 1_555
C29_4 C27_4 1_555 1_555
H19_4 C29_4 1_555 1_555
C30_4 C29_4 1_555 1_555
C31_4 C28_4 1_555 1_555
H20_4 C31_4 1_555 1_555
C32_4 C30_4 1_555 1_555
O5_4 Zn9_2 1_555 1_555
O6_4 Zn5_2 1_555 1_555
O9_4 Zn7_2 1_555 1_555
O10_4 C25_4 1_555 1_555
O18_2 C32_4 1_555 1_555
O12_4 C32_4 1_555 1_555
N10_4 N11_4 1_555 1_555
N15_2 C8_4 1_555 1_555
C17_4 O5_4 1_555 1_555
C17_4 O6_4 1_555 1_555
C25_4 O9_4 1_555 1_555
C30_4 C31_4 1_555 1_555
O14_4 H21_4 1_555 1_555
O14_4 H22_4 1_555 1_555

#END
