
###############################################################################
#
# This file contains modified crystal structure data generated from the
# MOF subset of the Cambridge Structural Database (CSD) v543 
# hosted by the Cambridge Crystallographic Data Centre (CCDC).
#
# This work is licensed under the Creative Commons
# Attribution-NonCommercial-ShareAlike 4.0 International License.
# To view a copy of this license, visit
# http://creativecommons.org/licenses/by-nc-sa/4.0/
# or send a letter to
# Creative Commons, PO Box 1866, Mountain View, CA 94042, USA.
#
# CIF created using the CSD Python API on 29 September 2022
# The structure has been converted into the P1 space group
# The structure has a 3D framework
# The original CSD entry LEGGIO is in the monoclinic crystal system
# The framework has been calculated to contain at least 10.0% void space
# The void calculation uses a probe of radius 1.32A, grid spacing 0.4
# H atom positions have been added when not included in the experimental data
#
###############################################################################

data_LEGGIO
_chemical_formula_moiety         '(C96 H80 N44 O40 Zn16)n'
_symmetry_cell_setting           triclinic
_symmetry_space_group_name_H-M   'P 1'
_symmetry_Int_Tables_number      1
_space_group_name_Hall           'P 1'
loop_
_symmetry_equiv_pos_site_id
_symmetry_equiv_pos_as_xyz
1 x,y,z
_cell_length_a                   13.475(3)
_cell_length_b                   26.949(5)
_cell_length_c                   13.509(3)
_cell_angle_alpha                90
_cell_angle_beta                 95.18(3)
_cell_angle_gamma                90
_cell_volume                     4885.59
loop_
_atom_site_label
_atom_site_type_symbol
_atom_site_fract_x
_atom_site_fract_y
_atom_site_fract_z
H8 H 0.0143 0.0316 0.1974
N10 N 0.0373(3) 0.97558(18) 0.2978(3)
Zn8 Zn 0.18891(5) 0.95608(2) 0.29313(4)
Zn1 Zn 0.77812(5) 0.02402(2) 0.13763(4)
Zn2 Zn 0.36711(4) 0.05428(2) 0.25738(4)
N1 N 0.5006(3) 0.02420(16) 0.2471(3)
N3 N 0.2631(3) 0.05094(16) 0.5369(3)
N6 N 0.3111(3) 0.04055(16) 0.3858(3)
N7 N 0.6473(4) 0.00991(17) 0.1922(3)
N11 N 0.2443(3) 0.00358(15) 0.4026(3)
O2 O 0.7313(6) 0.0952(2) 0.1096(7)
O3 O 0.3741(4) 0.12655(14) 0.2711(3)
O4 O 0.8448(3) 0.35934(14) 0.1557(3)
O5 O 0.6814(4) 0.35351(16) 0.1289(4)
O7 O 0.3325(3) 0.38742(15) 0.1488(4)
O8 O 0.4201(3) 0.12899(15) 0.1182(3)
O9 O 0.3873(4) 0.38411(16) 0.3077(4)
O10 O 0.8947(6) 0.1010(2) 0.0998(5)
C1 C 0.7949(6) 0.1765(2) 0.1011(5)
C3 C 0.3198(4) 0.0681(2) 0.4678(4)
H2 H 0.3613 0.0966 0.4764
C4 C 0.2185(4) 0.01073(19) 0.4931(4)
C6 C 0.7765(5) 0.2790(2) 0.1163(4)
C9 C 0.5661(4) 0.0374(2) 0.1834(4)
H7 H 0.5553 0.0638 0.1369
C10 C 0.7659(5) 0.3336(2) 0.1338(4)
C11 C 0.9847(4) 0.0069(2) 0.2357(4)
C12 C 0.3958(4) 0.20555(19) 0.2018(4)
C13 C 0.3800(5) 0.3084(2) 0.2165(5)
C14 C 0.3988(4) 0.1504(2) 0.1946(4)
C15 C 0.3667(5) 0.3637(2) 0.2272(5)
C16 C 0.3958(6) 0.2281(2) 0.2946(5)
H9 H 0.4004 0.2084 0.3533
C17 C 0.6916(6) 0.2490(2) 0.1125(6)
H10 H 0.6274 0.2634 0.1148
C18 C 0.3889(6) 0.2799(2) 0.3009(5)
H11 H 0.3904 0.2954 0.3642
C19 C 0.7023(6) 0.1975(3) 0.1053(6)
H12 H 0.6450 0.1768 0.1033
C20 C 0.8686(6) 0.2575(2) 0.1077(6)
H13 H 0.9260 0.2779 0.1074
C21 C 0.3892(7) 0.2353(2) 0.1177(5)
H14 H 0.3928 0.2205 0.0543
C22 C 0.8781(6) 0.2060(2) 0.0996(6)
H15 H 0.9414 0.1915 0.0932
C23 C 0.8069(8) 0.1202(3) 0.1050(6)
C24 C 0.3775(7) 0.2862(2) 0.1247(6)
H16 H 0.3678 0.3058 0.0661
Zn6 Zn 0.25765(4) 0.07575(2) 0.68431(4)
Zn7 Zn 0.75765(4) 0.42425(2) 0.18431(4)
Zn10 Zn 0.31109(5) 0.45608(2) 0.20687(4)
N14 N 0.2730(3) 0.02910(16) 0.1466(3)
Zn4 Zn 0.81109(5) 0.04392(2) 0.70687(4)
N9 N 0.7972(3) 0.00712(17) 0.8398(3)
O6 O 0.6600(3) 0.06760(17) 0.7297(3)
C8 C 0.8305(4) 0.0225(2) 0.9285(4)
H6 H 0.8797 0.0475 0.9408
N15 N 0.9627(3) 0.02442(18) 0.7022(3)
O13 O 0.8325(3) 0.11258(15) 0.6488(4)
H19 H 0.660699 0.0861407 0.793282
H20 H 0.634191 0.0894111 0.673965
Zn3 Zn 0.74235(4) 0.92425(2) 0.31569(4)
N2 N 0.7860(3) 0.99838(17) 0.0009(3)
N4 N 0.6340(3) 0.97524(16) 0.2661(3)
N5 N 0.8743(3) 0.96106(17) 0.2979(3)
N12 N 0.8870(3) 0.99965(16) 0.2337(3)
O1 O 0.7429(3) 0.90120(16) 0.1627(3)
C2 C 0.9655(4) 0.9478(2) 0.3340(4)
H1 H 0.9788 0.9216 0.3803
H3 H 0.1736 0.9899 0.5241
C5 C 0.5457(4) 0.98604(19) 0.2967(4)
H4 H 0.5173 0.9686 0.3483
N13 N 0.7369(3) 0.94906(16) 0.4631(3)
O11 O 0.6552(3) 0.85934(14) 0.3443(3)
O12 O 0.8186(4) 0.85351(16) 0.3711(4)
H17 H 0.761417 0.929763 0.121729
H18 H 0.792036 0.874032 0.157999
N8 N 0.7270(3) 0.97090(16) 0.8534(3)
C7 C 0.7230(4) 0.96727(19) 0.9497(4)
H5 H 0.6802 0.9450 0.9799
Zn5 Zn 0.63289(4) 0.94572(2) 0.74262(4)
N16 N 0.7557(3) 0.99642(15) 0.5974(3)
Zn2_2 Zn 0.13289(4) 0.55428(2) 0.24262(4)
N6_2 N 0.1889(3) 0.54055(16) 0.1142(3)
N11_2 N 0.2557(3) 0.50358(15) 0.0974(3)
O3_2 O 0.1259(4) 0.62655(14) 0.2289(3)
O7_2 O 0.1675(3) 0.88742(15) 0.3512(4)
O8_2 O 0.0799(3) 0.62899(15) 0.3818(3)
O9_2 O 0.1127(4) 0.88411(16) 0.1923(4)
C3_2 C 0.1802(4) 0.5681(2) 0.0322(4)
H2_2 H 0.1387 0.5966 0.0236
C4_2 C 0.2815(4) 0.51073(19) 0.0069(4)
C12_2 C 0.1042(4) 0.70555(19) 0.2982(4)
C13_2 C 0.1200(5) 0.8084(2) 0.2835(5)
C14_2 C 0.1012(4) 0.6504(2) 0.3054(4)
C15_2 C 0.1333(5) 0.8637(2) 0.2728(5)
C16_2 C 0.1042(6) 0.7281(2) 0.2054(5)
H9_2 H 0.0996 0.7084 0.1467
C18_2 C 0.1111(6) 0.7799(2) 0.1991(5)
H11_2 H 0.1096 0.7954 0.1358
C21_2 C 0.1108(7) 0.7353(2) 0.3823(5)
H14_2 H 0.1072 0.7205 0.4457
C24_2 C 0.1225(7) 0.7862(2) 0.3753(6)
H16_2 H 0.1322 0.8058 0.4339
N14_2 N 0.2270(3) 0.52910(16) 0.3534(3)
N3_2 N 0.2369(3) 0.55094(16) 0.9631(3)
H3_2 H 0.3264 0.4899 0.9759
Zn6_2 Zn 0.24235(4) 0.57575(2) 0.81569(4)
Zn1_2 Zn 0.72188(5) 0.52402(2) 0.36237(4)
Zn4_2 Zn 0.68891(5) 0.54392(2) 0.79313(4)
N1_2 N 0.9994(3) 0.52420(16) 0.2529(3)
N2_2 N 0.7140(3) 0.49838(17) 0.4991(3)
N4_2 N 0.8660(3) 0.47524(16) 0.2339(3)
N5_2 N 0.6257(3) 0.46106(17) 0.2021(3)
N7_2 N 0.8527(4) 0.50991(17) 0.3078(3)
N8_2 N 0.7730(3) 0.47090(16) 0.6466(3)
N9_2 N 0.7028(3) 0.50712(17) 0.6602(3)
N10_2 N 0.4627(3) 0.47558(18) 0.2022(3)
N12_2 N 0.6130(3) 0.49965(16) 0.2663(3)
O1_2 O 0.7571(3) 0.40120(16) 0.3373(3)
O2_2 O 0.7687(6) 0.5952(2) 0.3904(7)
O6_2 O 0.8400(3) 0.56760(17) 0.7703(3)
O10_2 O 0.6053(6) 0.6010(2) 0.4002(5)
C1_2 C 0.7051(6) 0.6765(2) 0.3989(5)
C2_2 C 0.5345(4) 0.4478(2) 0.1660(4)
H1_2 H 0.5212 0.4216 0.1197
C5_2 C 0.9543(4) 0.48604(19) 0.2033(4)
H4_2 H 0.9827 0.4686 0.1517
C6_2 C 0.7235(5) 0.7790(2) 0.3837(4)
C7_2 C 0.7770(4) 0.46727(19) 0.5503(4)
H5_2 H 0.8198 0.4450 0.5201
C8_2 C 0.6695(4) 0.5225(2) 0.5715(4)
H6_2 H 0.6203 0.5475 0.5592
C9_2 C 0.9339(4) 0.5374(2) 0.3166(4)
H7_2 H 0.9447 0.5638 0.3631
C10_2 C 0.7341(5) 0.8336(2) 0.3662(4)
C11_2 C 0.5153(4) 0.5069(2) 0.2643(4)
H8_2 H 0.4857 0.5316 0.3026
C17_2 C 0.8084(6) 0.7490(2) 0.3875(6)
H10_2 H 0.8726 0.7634 0.3852
C19_2 C 0.7977(6) 0.6975(3) 0.3947(6)
H12_2 H 0.8550 0.6768 0.3967
C20_2 C 0.6314(6) 0.7575(2) 0.3923(6)
H13_2 H 0.5740 0.7779 0.3926
C22_2 C 0.6219(6) 0.7060(2) 0.4004(6)
H15_2 H 0.5586 0.6915 0.4068
C23_2 C 0.6931(8) 0.6202(3) 0.3950(6)
Zn5_2 Zn 0.86711(4) 0.44572(2) 0.75738(4)
N13_2 N 0.7631(3) 0.44906(16) 0.0369(3)
N15_2 N 0.5373(3) 0.52442(18) 0.7978(3)
N16_2 N 0.7443(3) 0.49642(15) 0.9026(3)
O13_2 O 0.6675(3) 0.61258(15) 0.8512(4)
H17_2 H 0.738583 0.429763 0.378271
H18_2 H 0.707964 0.374032 0.342001
H19_2 H 0.839301 0.586141 0.706718
H20_2 H 0.865809 0.589411 0.826035
C7_3 C 0.2770(4) 0.03273(19) 0.0503(4)
H5_3 H 0.3198 0.0550 0.0201
N2_3 N 0.2140(3) 0.00162(17) 0.9991(3)
N4_3 N 0.3660(3) 0.02476(16) 0.7339(3)
N5_3 N 0.1257(3) 0.03894(17) 0.7021(3)
N12_3 N 0.1130(3) 0.00035(16) 0.7663(3)
O1_3 O 0.2571(3) 0.09880(16) 0.8373(3)
C2_3 C 0.0345(4) 0.0522(2) 0.6660(4)
H1_3 H 0.0212 0.0784 0.6197
H3_3 H 0.8264 0.0101 0.4759
C5_3 C 0.4543(4) 0.01396(19) 0.7033(4)
H4_3 H 0.4827 0.0314 0.6517
O11_2 O 0.3448(3) 0.14066(14) 0.6557(3)
O12_2 O 0.1814(4) 0.14649(16) 0.6289(4)
H17_3 H 0.238583 0.070237 0.878271
H18_3 H 0.207964 0.125968 0.842001
N9_3 N 0.2028(3) 0.99288(17) 0.1602(3)
O6_3 O 0.3400(3) 0.93240(17) 0.2703(3)
C8_3 C 0.1695(4) 0.9775(2) 0.0715(4)
H6_3 H 0.1203 0.9525 0.0592
H19_3 H 0.339301 0.913859 0.206718
H20_3 H 0.365809 0.910589 0.326035
Zn1_3 Zn 0.22188(5) 0.97598(2) 0.86237(4)
N1_3 N 0.4994(3) 0.97580(16) 0.7529(3)
N6_3 N 0.6889(3) 0.95945(16) 0.6142(3)
N7_3 N 0.3527(4) 0.99009(17) 0.8078(3)
O2_3 O 0.2687(6) 0.9048(2) 0.8904(7)
O3_3 O 0.6259(4) 0.87345(14) 0.7289(3)
O4_2 O 0.1552(3) 0.64066(14) 0.8443(3)
O5_2 O 0.3186(4) 0.64649(16) 0.8711(4)
O8_3 O 0.5799(3) 0.87101(15) 0.8818(3)
O9_3 O 0.6127(4) 0.61589(16) 0.6923(4)
O10_3 O 0.1053(6) 0.8990(2) 0.9002(5)
C1_3 C 0.2051(6) 0.8235(2) 0.8989(5)
C3_3 C 0.6802(4) 0.9319(2) 0.5322(4)
H2_3 H 0.6387 0.9034 0.5236
C4_3 C 0.7815(4) 0.98927(19) 0.5069(4)
C6_3 C 0.2235(5) 0.7210(2) 0.8837(4)
C9_3 C 0.4339(4) 0.9626(2) 0.8166(4)
H7_3 H 0.4447 0.9362 0.8631
C10_3 C 0.2341(5) 0.6664(2) 0.8662(4)
C11_3 C 0.0153(4) 0.9931(2) 0.7643(4)
C12_3 C 0.6042(4) 0.79445(19) 0.7982(4)
C13_3 C 0.6200(5) 0.6916(2) 0.7835(5)
C14_3 C 0.6012(4) 0.8496(2) 0.8054(4)
C15_3 C 0.6333(5) 0.6363(2) 0.7728(5)
C16_3 C 0.6042(6) 0.7719(2) 0.7054(5)
H9_3 H 0.5996 0.7916 0.6467
C17_3 C 0.3084(6) 0.7510(2) 0.8875(6)
H10_3 H 0.3726 0.7366 0.8852
C18_3 C 0.6111(6) 0.7201(2) 0.6991(5)
H11_3 H 0.6096 0.7046 0.6358
C19_3 C 0.2977(6) 0.8025(3) 0.8947(6)
H12_3 H 0.3550 0.8232 0.8967
C20_3 C 0.1314(6) 0.7425(2) 0.8923(6)
H13_3 H 0.0740 0.7221 0.8926
C21_3 C 0.6108(7) 0.7647(2) 0.8823(5)
H14_3 H 0.6072 0.7795 0.9457
C22_3 C 0.1219(6) 0.7940(2) 0.9004(6)
H15_3 H 0.0586 0.8085 0.9068
C23_3 C 0.1931(8) 0.8798(3) 0.8950(6)
C24_3 C 0.6225(7) 0.7138(2) 0.8753(6)
H16_3 H 0.6322 0.6942 0.9339
Zn1_4 Zn 0.27812(5) 0.47598(2) 0.63763(4)
N1_4 N 0.0006(3) 0.47580(16) 0.7471(3)
N2_4 N 0.2860(3) 0.50162(17) 0.5009(3)
N4_4 N 0.1340(3) 0.52476(16) 0.7661(3)
N5_4 N 0.3743(3) 0.53894(17) 0.7979(3)
N7_4 N 0.1473(4) 0.49009(17) 0.6922(3)
N9_4 N 0.2972(3) 0.49288(17) 0.3398(3)
N12_4 N 0.3870(3) 0.50035(16) 0.7337(3)
O1_4 O 0.2429(3) 0.59880(16) 0.6627(3)
O2_4 O 0.2313(6) 0.4048(2) 0.6096(7)
O6_4 O 0.1600(3) 0.43240(17) 0.2297(3)
O10_4 O 0.3947(6) 0.3990(2) 0.5998(5)
C1_4 C 0.2949(6) 0.3235(2) 0.6011(5)
C2_4 C 0.4655(4) 0.5522(2) 0.8340(4)
H1_4 H 0.4788 0.5784 0.8803
C5_4 C 0.0457(4) 0.51396(19) 0.7967(4)
H4_4 H 0.0173 0.5314 0.8483
C6_4 C 0.2765(5) 0.2210(2) 0.6163(4)
C7_4 C 0.2230(4) 0.53273(19) 0.4497(4)
H5_4 H 0.1802 0.5550 0.4799
C8_4 C 0.3305(4) 0.4775(2) 0.4285(4)
H6_4 H 0.3797 0.4525 0.4408
C9_4 C 0.0661(4) 0.4626(2) 0.6834(4)
H7_4 H 0.0553 0.4362 0.6369
C10_4 C 0.2659(5) 0.1664(2) 0.6338(4)
C11_4 C 0.4847(4) 0.4931(2) 0.7357(4)
H8_3 H 0.5143 0.4684 0.6974
C17_4 C 0.1916(6) 0.2510(2) 0.6125(6)
H10_4 H 0.1274 0.2366 0.6148
C19_4 C 0.2023(6) 0.3025(3) 0.6053(6)
H12_4 H 0.1450 0.3232 0.6033
C20_4 C 0.3686(6) 0.2425(2) 0.6077(6)
H13_4 H 0.4260 0.2221 0.6074
C22_4 C 0.3781(6) 0.2940(2) 0.5996(6)
H15_4 H 0.4414 0.3085 0.5932
C23_4 C 0.3069(8) 0.3798(3) 0.6050(6)
H17_4 H 0.261417 0.570237 0.621729
H18_4 H 0.292036 0.625968 0.657999
H19_4 H 0.160699 0.413859 0.293282
H20_4 H 0.134191 0.410589 0.173965
H3_4 H 0.6736 0.5101 0.0241
N6_4 N 0.8111(3) 0.45945(16) 0.8858(3)
O3_4 O 0.8741(4) 0.37345(14) 0.7711(3)
O8_4 O 0.9201(3) 0.37101(15) 0.6182(3)
O9_4 O 0.8873(4) 0.11589(16) 0.8077(4)
C3_4 C 0.8198(4) 0.4319(2) 0.9678(4)
H2_4 H 0.8613 0.4034 0.9764
C4_4 C 0.7185(4) 0.48927(19) 0.9931(4)
C12_4 C 0.8958(4) 0.29445(19) 0.7018(4)
C13_4 C 0.8800(5) 0.1916(2) 0.7165(5)
C14_4 C 0.8988(4) 0.3496(2) 0.6946(4)
C15_4 C 0.8667(5) 0.1363(2) 0.7272(5)
C16_4 C 0.8958(6) 0.2719(2) 0.7946(5)
H9_4 H 0.9004 0.2916 0.8533
C18_4 C 0.8889(6) 0.2201(2) 0.8009(5)
H11_4 H 0.8904 0.2046 0.8642
C21_4 C 0.8892(7) 0.2647(2) 0.6177(5)
H14_4 H 0.8928 0.2795 0.5543
C24_4 C 0.8775(7) 0.2138(2) 0.6247(6)
H16_4 H 0.8678 0.1942 0.5661
H8_4 H 0.9857 0.9684 0.8026
loop_
_geom_bond_atom_site_label_1
_geom_bond_atom_site_label_2
_geom_bond_site_symmetry_1
_geom_bond_site_symmetry_2
Zn8 N10 1_555 1_555
Zn2 N1 1_555 1_555
N3 C3 1_555 1_555
N6 Zn2 1_555 1_555
N7 Zn1 1_555 1_555
N11 N6 1_555 1_555
O2 Zn1 1_555 1_555
O3 Zn2 1_555 1_555
O4 C10 1_555 1_555
O5 C10 1_555 1_555
O7 C15 1_555 1_555
O8 C14 1_555 1_555
O9 C15 1_555 1_555
O10 C23 1_555 1_555
C1 C19 1_555 1_555
C3 N6 1_555 1_555
H2 C3 1_555 1_555
C4 N3 1_555 1_555
C6 C10 1_555 1_555
C9 N1 1_555 1_555
H7 C9 1_555 1_555
C12 C14 1_555 1_555
C13 C15 1_555 1_555
C14 O3 1_555 1_555
C16 C12 1_555 1_555
H9 C16 1_555 1_555
C17 C6 1_555 1_555
H10 C17 1_555 1_555
C18 C13 1_555 1_555
H11 C18 1_555 1_555
C19 C17 1_555 1_555
H12 C19 1_555 1_555
C20 C6 1_555 1_555
H13 C20 1_555 1_555
C21 C12 1_555 1_555
H14 C21 1_555 1_555
C22 C1 1_555 1_555
H15 C22 1_555 1_555
C23 O2 1_555 1_555
C24 C13 1_555 1_555
H16 C24 1_555 1_555
Zn6 N3 1_555 1_555
Zn7 O4 1_555 1_555
Zn10 O7 1_555 1_555
N14 Zn2 1_555 1_555
N7 C9 1_555 1_555
N11 C4 1_555 1_555
O5 Zn7 1_555 1_555
C1 C23 1_555 1_555
C16 C18 1_555 1_555
C20 C22 1_555 1_555
C21 C24 1_555 1_555
Zn4 N9 1_555 1_555
N9 C8 1_555 1_555
O6 Zn4 1_555 1_555
H6 C8 1_555 1_555
N15 Zn4 1_555 1_555
O13 Zn4 1_555 1_555
O6 H19 1_555 1_555
O6 H20 1_555 1_555
Zn3 N4 1_555 1_555
N5 Zn3 1_555 1_555
O1 Zn3 1_555 1_555
C2 N5 1_555 1_555
H1 C2 1_555 1_555
C5 N4 1_555 1_555
H4 C5 1_555 1_555
N13 Zn3 1_555 1_555
O11 Zn3 1_555 1_555
O12 Zn3 1_555 1_555
N5 N12 1_555 1_555
O1 H17 1_555 1_555
O1 H18 1_555 1_555
C7 N8 1_555 1_555
H5 C7 1_555 1_555
Zn5 N8 1_555 1_555
N6_2 Zn2_2 1_555 1_555
N11_2 N6_2 1_555 1_555
O3_2 Zn2_2 1_555 1_555
O7_2 C15_2 1_555 1_555
O8_2 C14_2 1_555 1_555
O9_2 C15_2 1_555 1_555
C3_2 N6_2 1_555 1_555
H2_2 C3_2 1_555 1_555
C12_2 C14_2 1_555 1_555
C13_2 C15_2 1_555 1_555
C14_2 O3_2 1_555 1_555
C16_2 C12_2 1_555 1_555
H9_2 C16_2 1_555 1_555
C18_2 C13_2 1_555 1_555
H11_2 C18_2 1_555 1_555
C21_2 C12_2 1_555 1_555
H14_2 C21_2 1_555 1_555
C24_2 C13_2 1_555 1_555
H16_2 C24_2 1_555 1_555
Zn10 N11_2 1_555 1_555
Zn8 O7_2 1_555 1_555
N14_2 Zn2_2 1_555 1_555
N11_2 C4_2 1_555 1_555
C16_2 C18_2 1_555 1_555
C21_2 C24_2 1_555 1_555
Zn6_2 N3_2 1_555 1_555
Zn1_2 N2_2 1_555 1_555
Zn7 N4_2 1_555 1_555
Zn4_2 N9_2 1_555 1_555
N1_2 C5_2 1_555 1_555
N2_2 C7_2 1_555 1_555
N4_2 N7_2 1_555 1_555
N5_2 Zn7 1_555 1_555
N7_2 Zn1_2 1_555 1_555
N8_2 N9_2 1_555 1_555
N9_2 C8_2 1_555 1_555
N10_2 C2_2 1_555 1_555
N12_2 Zn1_2 1_555 1_555
O1_2 Zn7 1_555 1_555
O2_2 Zn1_2 1_555 1_555
O11 C10_2 1_555 1_555
O12 C10_2 1_555 1_555
O6_2 Zn4_2 1_555 1_555
O10_2 C23_2 1_555 1_555
C1_2 C19_2 1_555 1_555
C2_2 N5_2 1_555 1_555
H1_2 C2_2 1_555 1_555
C5_2 N4_2 1_555 1_555
H4_2 C5_2 1_555 1_555
C6_2 C10_2 1_555 1_555
C7_2 N8_2 1_555 1_555
H5_2 C7_2 1_555 1_555
C8_2 N2_2 1_555 1_555
H6_2 C8_2 1_555 1_555
C9_2 N1_2 1_555 1_555
H7_2 C9_2 1_555 1_555
C11_2 N10_2 1_555 1_555
H8_2 C11_2 1_555 1_555
C17_2 C6_2 1_555 1_555
H10_2 C17_2 1_555 1_555
C19_2 C17_2 1_555 1_555
H12_2 C19_2 1_555 1_555
C20_2 C6_2 1_555 1_555
H13_2 C20_2 1_555 1_555
C22_2 C1_2 1_555 1_555
H15_2 C22_2 1_555 1_555
C23_2 O2_2 1_555 1_555
Zn5_2 N8_2 1_555 1_555
Zn10 N10_2 1_555 1_555
N13_2 Zn7 1_555 1_555
N15_2 Zn4_2 1_555 1_555
N16_2 Zn4_2 1_555 1_555
O13_2 Zn4_2 1_555 1_555
N5_2 N12_2 1_555 1_555
N7_2 C9_2 1_555 1_555
N12_2 C11_2 1_555 1_555
C1_2 C23_2 1_555 1_555
C20_2 C22_2 1_555 1_555
O1_2 H17_2 1_555 1_555
O1_2 H18_2 1_555 1_555
O6_2 H19_2 1_555 1_555
O6_2 H20_2 1_555 1_555
C7_3 N14 1_555 1_555
H5_3 C7_3 1_555 1_555
Zn6 N4_3 1_555 1_555
N5_3 Zn6 1_555 1_555
O1_3 Zn6 1_555 1_555
C2_3 N5_3 1_555 1_555
H1_3 C2_3 1_555 1_555
C5_3 N4_3 1_555 1_555
H4_3 C5_3 1_555 1_555
O11_2 Zn6 1_555 1_555
O12_2 Zn6 1_555 1_555
N5_3 N12_3 1_555 1_555
O1_3 H17_3 1_555 1_555
O1_3 H18_3 1_555 1_555
Zn8 N9_3 1_555 1_555
N9_3 C8_3 1_555 1_555
O6_3 Zn8 1_555 1_555
H6_3 C8_3 1_555 1_555
O6_3 H19_3 1_555 1_555
O6_3 H20_3 1_555 1_555
Zn5 N1_3 1_555 1_555
N13 C3_3 1_555 1_555
N6_3 Zn5 1_555 1_555
N7_3 Zn1_3 1_555 1_555
N16 N6_3 1_555 1_555
O2_3 Zn1_3 1_555 1_555
O3_3 Zn5 1_555 1_555
O4_2 C10_3 1_555 1_555
O5_2 C10_3 1_555 1_555
O13_2 C15_3 1_555 1_555
O8_3 C14_3 1_555 1_555
O9_3 C15_3 1_555 1_555
O10_3 C23_3 1_555 1_555
C1_3 C19_3 1_555 1_555
C3_3 N6_3 1_555 1_555
H2_3 C3_3 1_555 1_555
C4_3 N13 1_555 1_555
C6_3 C10_3 1_555 1_555
C9_3 N1_3 1_555 1_555
H7_3 C9_3 1_555 1_555
C12_3 C14_3 1_555 1_555
C13_3 C15_3 1_555 1_555
C14_3 O3_3 1_555 1_555
C16_3 C12_3 1_555 1_555
H9_3 C16_3 1_555 1_555
C17_3 C6_3 1_555 1_555
H10_3 C17_3 1_555 1_555
C18_3 C13_3 1_555 1_555
H11_3 C18_3 1_555 1_555
C19_3 C17_3 1_555 1_555
H12_3 C19_3 1_555 1_555
C20_3 C6_3 1_555 1_555
H13_3 C20_3 1_555 1_555
C21_3 C12_3 1_555 1_555
H14_3 C21_3 1_555 1_555
C22_3 C1_3 1_555 1_555
H15_3 C22_3 1_555 1_555
C23_3 O2_3 1_555 1_555
C24_3 C13_3 1_555 1_555
H16_3 C24_3 1_555 1_555
Zn6_2 O4_2 1_555 1_555
N7_3 C9_3 1_555 1_555
N16 C4_3 1_555 1_555
O5_2 Zn6_2 1_555 1_555
C1_3 C23_3 1_555 1_555
C16_3 C18_3 1_555 1_555
C20_3 C22_3 1_555 1_555
C21_3 C24_3 1_555 1_555
Zn1_4 N2_4 1_555 1_555
Zn6_2 N4_4 1_555 1_555
Zn10 N9_4 1_555 1_555
N1_4 C5_4 1_555 1_555
N2_4 C7_4 1_555 1_555
N4_4 N7_4 1_555 1_555
N5_4 Zn6_2 1_555 1_555
N7_4 Zn1_4 1_555 1_555
N14_2 N9_4 1_555 1_555
N9_4 C8_4 1_555 1_555
N15_2 C2_4 1_555 1_555
N12_4 Zn1_4 1_555 1_555
O1_4 Zn6_2 1_555 1_555
O2_4 Zn1_4 1_555 1_555
O11_2 C10_4 1_555 1_555
O12_2 C10_4 1_555 1_555
O6_4 Zn10 1_555 1_555
O10_4 C23_4 1_555 1_555
C1_4 C19_4 1_555 1_555
C2_4 N5_4 1_555 1_555
H1_4 C2_4 1_555 1_555
C5_4 N4_4 1_555 1_555
H4_4 C5_4 1_555 1_555
C6_4 C10_4 1_555 1_555
C7_4 N14_2 1_555 1_555
H5_4 C7_4 1_555 1_555
C8_4 N2_4 1_555 1_555
H6_4 C8_4 1_555 1_555
C9_4 N1_4 1_555 1_555
H7_4 C9_4 1_555 1_555
C11_4 N15_2 1_555 1_555
H8_3 C11_4 1_555 1_555
C17_4 C6_4 1_555 1_555
H10_4 C17_4 1_555 1_555
C19_4 C17_4 1_555 1_555
H12_4 C19_4 1_555 1_555
C20_4 C6_4 1_555 1_555
H13_4 C20_4 1_555 1_555
C22_4 C1_4 1_555 1_555
H15_4 C22_4 1_555 1_555
C23_4 O2_4 1_555 1_555
N5_4 N12_4 1_555 1_555
N7_4 C9_4 1_555 1_555
N12_4 C11_4 1_555 1_555
C1_4 C23_4 1_555 1_555
C20_4 C22_4 1_555 1_555
O1_4 H17_4 1_555 1_555
O1_4 H18_4 1_555 1_555
O6_4 H19_4 1_555 1_555
O6_4 H20_4 1_555 1_555
N6_4 Zn5_2 1_555 1_555
N16_2 N6_4 1_555 1_555
O3_4 Zn5_2 1_555 1_555
O13 C15_4 1_555 1_555
O8_4 C14_4 1_555 1_555
O9_4 C15_4 1_555 1_555
C3_4 N6_4 1_555 1_555
H2_4 C3_4 1_555 1_555
C12_4 C14_4 1_555 1_555
C13_4 C15_4 1_555 1_555
C14_4 O3_4 1_555 1_555
C16_4 C12_4 1_555 1_555
H9_4 C16_4 1_555 1_555
C18_4 C13_4 1_555 1_555
H11_4 C18_4 1_555 1_555
C21_4 C12_4 1_555 1_555
H14_4 C21_4 1_555 1_555
C24_4 C13_4 1_555 1_555
H16_4 C24_4 1_555 1_555
N16_2 C4_4 1_555 1_555
C16_4 C18_4 1_555 1_555
C21_4 C24_4 1_555 1_555

#END
