
###############################################################################
#
# This file contains modified crystal structure data generated from the
# MOF subset of the Cambridge Structural Database (CSD) v543 
# hosted by the Cambridge Crystallographic Data Centre (CCDC).
#
# This work is licensed under the Creative Commons
# Attribution-NonCommercial-ShareAlike 4.0 International License.
# To view a copy of this license, visit
# http://creativecommons.org/licenses/by-nc-sa/4.0/
# or send a letter to
# Creative Commons, PO Box 1866, Mountain View, CA 94042, USA.
#
# CIF created using the CSD Python API on 29 September 2022
# The structure has been converted into the P1 space group
# The structure has a 3D framework
# The original CSD entry LEHFOW is in the triclinic crystal system
# The framework has been calculated to contain at least 10.0% void space
# The void calculation uses a probe of radius 1.32A, grid spacing 0.4
# The framework is charged, counterions have been retained in the structure
#
###############################################################################

data_LEHFOW
_chemical_formula_moiety         '(C56 H48 N4 O40 Zn13 1+)n'
_symmetry_cell_setting           triclinic
_symmetry_space_group_name_H-M   'P 1'
_symmetry_Int_Tables_number      1
_space_group_name_Hall           'P 1'
loop_
_symmetry_equiv_pos_site_id
_symmetry_equiv_pos_as_xyz
1 x,y,z
_cell_length_a                   12.5412(9)
_cell_length_b                   12.9653(9)
_cell_length_c                   14.9803(10)
_cell_angle_alpha                113.869(2)
_cell_angle_beta                 95.216(2)
_cell_angle_gamma                90.096(2)
_cell_volume                     2216.27
loop_
_atom_site_label
_atom_site_type_symbol
_atom_site_fract_x
_atom_site_fract_y
_atom_site_fract_z
C1 C 0.2867(8) 0.9415(8) 0.3768(7)
H1 H 0.2226 0.9718 0.4063
H2 H 0.2733 0.9140 0.3067
H3 H 0.3427 0.9995 0.3999
C2 C 0.3602(7) 0.8754(7) 0.5048(6)
H4 H 0.4217 0.9263 0.5216
H5 H 0.3800 0.8087 0.5140
H6 H 0.3052 0.9115 0.5461
N1 N 0.3209(5) 0.8453(5) 0.4044(4)
H7 H 0.2651 0.7968 0.3897
H8 H 0.3718 0.8092 0.3671
C1_2 C 0.7133(8) 0.0585(8) 0.6232(7)
H1_2 H 0.7774 0.0282 0.5937
H2_2 H 0.7267 0.0860 0.6933
H3_2 H 0.6573 0.0005 0.6001
C2_2 C 0.6398(7) 0.1246(7) 0.4952(6)
H4_2 H 0.5783 0.0737 0.4784
H5_2 H 0.6200 0.1913 0.4860
H6_2 H 0.6948 0.0885 0.4539
N1_2 N 0.6791(5) 0.1547(5) 0.5956(4)
H7_2 H 0.7349 0.2032 0.6103
H8_2 H 0.6282 0.1908 0.6329
C3 C 0.1201(10) 0.3774(15) 0.7648(9)
H9 H 0.0633 0.4290 0.7845
H10 H 0.0902 0.3031 0.7240
H11 H 0.1666 0.4014 0.7287
C4 C 0.2266(12) 0.4761(9) 0.9097(9)
H12 H 0.2723 0.5006 0.8734
H13 H 0.2682 0.4708 0.9646
H14 H 0.1718 0.5295 0.9329
N2 N 0.1812(8) 0.3752(8) 0.8517(8)
H15 H 0.1378 0.3533 0.8852
H16 H 0.2319 0.3250 0.8332
C3_2 C 0.8799(10) 0.6226(15) 0.2352(9)
H9_2 H 0.9367 0.5710 0.2155
H10_2 H 0.9098 0.6969 0.2760
H11_2 H 0.8334 0.5986 0.2713
C4_2 C 0.7734(12) 0.5239(9) 0.0903(9)
H12_2 H 0.7277 0.4994 0.1266
H13_2 H 0.7318 0.5292 0.0354
H14_2 H 0.8282 0.4705 0.0671
N2_2 N 0.8188(8) 0.6248(8) 0.1483(8)
H15_2 H 0.8622 0.6467 0.1148
H16_2 H 0.7681 0.6750 0.1668
C17 C 0.1154(5) 0.0098(5) 0.1898(5)
C18 C 0.2099(5) 0.0877(5) 0.2196(4)
C19 C 0.2813(6) 0.1160(6) 0.1707(5)
H21 H 0.2787 0.0926 0.1031
C20 C 0.3615(6) 0.1882(6) 0.2417(5)
H22 H 0.4221 0.2199 0.2294
C21 C 0.3333(6) 0.2018(5) 0.3289(5)
C22 C 0.3842(6) 0.2664(5) 0.4294(5)
C23 C 0.3860(5) 0.5528(5) 0.3302(4)
C24 C 0.2865(5) 0.5312(5) 0.2650(4)
C25 C 0.2175(5) 0.4420(6) 0.2216(5)
H23 H 0.2200 0.3738 0.2284
C26 C 0.1384(6) 0.4736(6) 0.1620(5)
H24 H 0.0787 0.4301 0.1238
C27 C 0.1671(5) 0.5759(6) 0.1723(5)
C28 C 0.1163(6) 0.6536(7) 0.1318(5)
O12 O 0.0610(4) 0.0012(4) 0.2511(3)
O13 O 0.2415(4) 0.1407(3) 0.3187(3)
O14 O 0.3404(4) 0.2499(4) 0.4960(3)
O15 O 0.4669(4) 0.3256(4) 0.4415(3)
O16 O 0.4085(4) 0.4891(3) 0.3707(3)
O17 O 0.4419(3) 0.6405(3) 0.3386(3)
O18 O 0.2587(3) 0.6148(3) 0.2336(3)
O19 O 0.0328(5) 0.6211(5) 0.0762(4)
O20 O 0.1590(5) 0.7470(4) 0.1534(4)
Zn1 Zn 0.0000 0.0000 0.0000
Zn3 Zn 0.5000 0.5000 0.5000
Zn4 Zn 0.59599(6) 0.66358(6) 0.36991(5)
O41 O 0.3584(3) 0.5384(4) 0.5670(3)
O42 O 0.6416(3) 0.4616(4) 0.4330(3)
O43 O 0.6658(4) 0.5198(4) 0.3144(3)
O44 O 0.6499(4) 0.7385(4) 0.2914(3)
O47 O 0.6596(4) 0.7501(4) 0.5040(3)
O48 O 0.5331(4) 0.6744(4) 0.5585(3)
O49 O 0.5915(4) 0.5109(3) 0.6293(3)
Zn7 Zn 0.04561(6) 0.78938(6) 0.06299(5)
Zn16 Zn 0.40401(6) 0.33642(6) 0.63009(5)
Zn1_2 Zn 0.0000 -0.0000 1.0000
C35 C 0.1589(5) 0.1099(5) 0.9134(4)
C36 C 0.2537(5) 0.0853(5) 0.8569(5)
C37 C 0.3246(6) 0.0050(6) 0.8375(5)
C38 C 0.3949(6) 0.0229(6) 0.7744(5)
C39 C 0.3606(6) 0.1120(6) 0.7602(5)
C40 C 0.3981(6) 0.1736(6) 0.7019(5)
O26 O 0.1073(3) 0.1957(4) 0.9177(3)
O27 O 0.1377(3) 0.0427(4) 0.9501(3)
O28 O 0.2737(4) 0.1545(4) 0.8100(3)
O29 O 0.3501(4) 0.2615(4) 0.7086(3)
O30 O 0.4726(4) 0.1335(4) 0.6518(4)
O11 O 0.0991(3) 0.9485(3) 0.0959(3)
Zn1_3 Zn -0.0000 1.0000 0.0000
C5 C 0.3194(5) 0.5440(6) 0.6417(5)
C6 C 0.2437(6) 0.6364(5) 0.6817(4)
C7 C 0.2082(6) 0.7161(6) 0.6534(5)
H17 H 0.2280 0.7285 0.6001
C8 C 0.1344(6) 0.7786(6) 0.7194(5)
H18 H 0.0971 0.8398 0.7176
C9 C 0.1284(6) 0.7333(5) 0.7844(5)
C10 C 0.0721(5) 0.7669(5) 0.8731(4)
O2 O 0.3342(4) 0.4802(4) 0.6856(3)
O3 O 0.1957(4) 0.6453(4) 0.7640(3)
O4 O 0.0924(4) 0.7181(3) 0.9300(3)
O5 O 0.0085(4) 0.8436(4) 0.8865(3)
Zn1_4 Zn 0.0000 1.0000 1.0000
H27 H 0.3281 0.9482 0.8605
H28 H 0.4530 0.9803 0.7486
C47 C 0.6140(5) 0.4472(5) 0.6698(4)
C48 C 0.7135(5) 0.4688(5) 0.7350(4)
C49 C 0.7825(5) 0.5580(6) 0.7784(5)
H31 H 0.7800 0.6262 0.7716
C50 C 0.8616(6) 0.5264(6) 0.8380(5)
H32 H 0.9213 0.5699 0.8762
C51 C 0.8329(5) 0.4241(6) 0.8277(5)
C52 C 0.8837(6) 0.3464(7) 0.8682(5)
O37 O 0.5581(3) 0.3595(3) 0.6614(3)
O38 O 0.7413(3) 0.3852(3) 0.7664(3)
O39 O 0.9672(5) 0.3789(5) 0.9238(4)
O40 O 0.8410(5) 0.2530(4) 0.8466(4)
Zn8 Zn 0.95439(6) 0.21062(6) 0.93701(5)
H19 H 0.6719 0.0518 0.1395
H20 H 0.5470 0.0197 0.2514
Zn1_5 Zn 1.0000 0.0000 0.0000
C29 C 0.6806(5) 0.4560(6) 0.3583(5)
C30 C 0.7563(6) 0.3636(5) 0.3183(4)
C31 C 0.7918(6) 0.2839(6) 0.3466(5)
H25 H 0.7720 0.2715 0.3999
C32 C 0.8656(6) 0.2214(6) 0.2806(5)
H26 H 0.9029 0.1602 0.2824
C33 C 0.8716(6) 0.2667(5) 0.2156(5)
C34 C 0.9279(5) 0.2331(5) 0.1269(4)
O23 O 0.8043(4) 0.3547(4) 0.2360(3)
O24 O 0.9076(4) 0.2819(3) 0.0700(3)
O25 O 0.9915(4) 0.1564(4) 0.1135(3)
Zn1_6 Zn 1.0000 -0.0000 1.0000
O31 O 0.9009(3) 0.0515(3) 0.9041(3)
C11 C 0.8411(5) 0.8901(5) 0.0866(4)
C12 C 0.7463(5) 0.9147(5) 0.1431(5)
C13 C 0.6754(6) 0.9950(6) 0.1625(5)
C14 C 0.6051(6) 0.9771(6) 0.2256(5)
C15 C 0.6394(6) 0.8880(6) 0.2398(5)
C16 C 0.6019(6) 0.8264(6) 0.2981(5)
O6 O 0.8927(3) 0.8043(4) 0.0823(3)
O7 O 0.8623(3) 0.9573(4) 0.0499(3)
O8 O 0.7263(4) 0.8455(4) 0.1900(3)
O10 O 0.5274(4) 0.8665(4) 0.3482(4)
Zn1_7 Zn 1.0000 1.0000 0.0000
Zn1_8 Zn 1.0000 1.0000 1.0000
C41 C 0.8846(5) 0.9902(5) 0.8102(5)
C42 C 0.7901(5) 0.9123(5) 0.7804(4)
C43 C 0.7187(6) 0.8840(6) 0.8293(5)
H29 H 0.7213 0.9074 0.8969
C44 C 0.6385(6) 0.8118(6) 0.7583(5)
H30 H 0.5779 0.7801 0.7706
C45 C 0.6667(6) 0.7982(5) 0.6711(5)
C46 C 0.6158(6) 0.7336(5) 0.5706(5)
O32 O 0.9390(4) 0.9988(4) 0.7489(3)
O33 O 0.7585(4) 0.8593(3) 0.6813(3)
loop_
_geom_bond_atom_site_label_1
_geom_bond_atom_site_label_2
_geom_bond_site_symmetry_1
_geom_bond_site_symmetry_2
C1 H1 1_555 1_555
H2 C1 1_555 1_555
H3 C1 1_555 1_555
C2 H4 1_555 1_555
H5 C2 1_555 1_555
H6 C2 1_555 1_555
N1 C1 1_555 1_555
H7 N1 1_555 1_555
H8 N1 1_555 1_555
C2 N1 1_555 1_555
C1_2 H1_2 1_555 1_555
H2_2 C1_2 1_555 1_555
H3_2 C1_2 1_555 1_555
C2_2 H4_2 1_555 1_555
H5_2 C2_2 1_555 1_555
H6_2 C2_2 1_555 1_555
N1_2 C1_2 1_555 1_555
H7_2 N1_2 1_555 1_555
H8_2 N1_2 1_555 1_555
C2_2 N1_2 1_555 1_555
C3 H9 1_555 1_555
H10 C3 1_555 1_555
H11 C3 1_555 1_555
C4 H12 1_555 1_555
H13 C4 1_555 1_555
H14 C4 1_555 1_555
N2 C3 1_555 1_555
H15 N2 1_555 1_555
H16 N2 1_555 1_555
C4 N2 1_555 1_555
C3_2 H9_2 1_555 1_555
H10_2 C3_2 1_555 1_555
H11_2 C3_2 1_555 1_555
C4_2 H12_2 1_555 1_555
H13_2 C4_2 1_555 1_555
H14_2 C4_2 1_555 1_555
N2_2 C3_2 1_555 1_555
H15_2 N2_2 1_555 1_555
H16_2 N2_2 1_555 1_555
C4_2 N2_2 1_555 1_555
C17 C18 1_555 1_555
C18 C19 1_555 1_555
C19 H21 1_555 1_555
C20 C19 1_555 1_555
H22 C20 1_555 1_555
C21 C20 1_555 1_555
C22 C21 1_555 1_555
C23 C24 1_555 1_555
C24 C25 1_555 1_555
C25 H23 1_555 1_555
C26 C25 1_555 1_555
H24 C26 1_555 1_555
C27 C26 1_555 1_555
C28 C27 1_555 1_555
O12 C17 1_555 1_555
O13 C18 1_555 1_555
O14 C22 1_555 1_555
O15 C22 1_555 1_555
O16 C23 1_555 1_555
O17 C23 1_555 1_555
O18 C24 1_555 1_555
O19 C28 1_555 1_555
O20 C28 1_555 1_555
Zn3 O15 1_555 1_555
Zn4 O17 1_555 1_555
O41 Zn3 1_555 1_555
O42 Zn3 1_555 1_555
O43 Zn4 1_555 1_555
O44 Zn4 1_555 1_555
O47 Zn4 1_555 1_555
O48 Zn3 1_555 1_555
O49 Zn3 1_555 1_555
Zn7 O19 1_555 1_555
Zn16 O14 1_555 1_555
C21 O13 1_555 1_555
C27 O18 1_555 1_555
O16 Zn3 1_555 1_555
O20 Zn7 1_555 1_555
C35 C36 1_555 1_555
C36 C37 1_555 1_555
C38 C37 1_555 1_555
C39 C38 1_555 1_555
C40 C39 1_555 1_555
O26 C35 1_555 1_555
O27 Zn1_2 1_555 1_555
O28 C36 1_555 1_555
O29 C40 1_555 1_555
O30 C40 1_555 1_555
Zn16 O29 1_555 1_555
C35 O27 1_555 1_555
C39 O28 1_555 1_555
O11 Zn1_3 1_555 1_555
O11 Zn7 1_555 1_555
C5 C6 1_555 1_555
C6 C7 1_555 1_555
C7 H17 1_555 1_555
C8 C7 1_555 1_555
H18 C8 1_555 1_555
C9 C8 1_555 1_555
C10 C9 1_555 1_555
O41 C5 1_555 1_555
O2 C5 1_555 1_555
O3 C6 1_555 1_555
O4 C10 1_555 1_555
O5 C10 1_555 1_555
Zn1_4 O5 1_555 1_555
C47 C48 1_555 1_555
C48 C49 1_555 1_555
C49 H31 1_555 1_555
C50 C49 1_555 1_555
H32 C50 1_555 1_555
C51 C50 1_555 1_555
C52 C51 1_555 1_555
O49 C47 1_555 1_555
O37 C47 1_555 1_555
O38 C48 1_555 1_555
O39 C52 1_555 1_555
O40 C52 1_555 1_555
Zn16 O2 1_555 1_555
Zn8 O39 1_555 1_555
C9 O3 1_555 1_555
C51 O38 1_555 1_555
O37 Zn16 1_555 1_555
O40 Zn8 1_555 1_555
C29 C30 1_555 1_555
C30 C31 1_555 1_555
C31 H25 1_555 1_555
C32 C31 1_555 1_555
H26 C32 1_555 1_555
C33 C32 1_555 1_555
C34 C33 1_555 1_555
O42 C29 1_555 1_555
O43 C29 1_555 1_555
O23 C30 1_555 1_555
O24 C34 1_555 1_555
O25 Zn1_5 1_555 1_555
C33 O23 1_555 1_555
C34 O25 1_555 1_555
O31 Zn1_6 1_555 1_555
O31 Zn8 1_555 1_555
C11 C12 1_555 1_555
C12 C13 1_555 1_555
C14 C13 1_555 1_555
C15 C14 1_555 1_555
C16 C15 1_555 1_555
O6 C11 1_555 1_555
O7 C11 1_555 1_555
O8 C12 1_555 1_555
O44 C16 1_555 1_555
O10 C16 1_555 1_555
C15 O8 1_555 1_555
O7 Zn1_7 1_555 1_555
C41 C42 1_555 1_555
C42 C43 1_555 1_555
C43 H29 1_555 1_555
C44 C43 1_555 1_555
H30 C44 1_555 1_555
C45 C44 1_555 1_555
C46 C45 1_555 1_555
O32 C41 1_555 1_555
O33 C42 1_555 1_555
O47 C46 1_555 1_555
O48 C46 1_555 1_555
C45 O33 1_555 1_555

#END
