
###############################################################################
#
# This file contains modified crystal structure data generated from the
# MOF subset of the Cambridge Structural Database (CSD) v543 
# hosted by the Cambridge Crystallographic Data Centre (CCDC).
#
# This work is licensed under the Creative Commons
# Attribution-NonCommercial-ShareAlike 4.0 International License.
# To view a copy of this license, visit
# http://creativecommons.org/licenses/by-nc-sa/4.0/
# or send a letter to
# Creative Commons, PO Box 1866, Mountain View, CA 94042, USA.
#
# CIF created using the CSD Python API on 29 September 2022
# The structure has been converted into the P1 space group
# The structure has a 3D framework
# The original CSD entry LEJCEK is in the rhombohedral crystal system
# The framework has been calculated to contain at least 10.0% void space
# The void calculation uses a probe of radius 1.32A, grid spacing 0.4
#
###############################################################################

data_LEJCEK
_chemical_formula_moiety         '(C814 H720 O297 Zn42)n'
_symmetry_cell_setting           triclinic
_symmetry_space_group_name_H-M   'P 1'
_symmetry_Int_Tables_number      1
_space_group_name_Hall           'P 1'
loop_
_symmetry_equiv_pos_site_id
_symmetry_equiv_pos_as_xyz
1 x,y,z
_cell_length_a                   32.3599(13)
_cell_length_b                   32.3599(13)
_cell_length_c                   100.8246(11)
_cell_angle_alpha                90
_cell_angle_beta                 90
_cell_angle_gamma                120
_cell_volume                     91434.8
loop_
_atom_site_label
_atom_site_type_symbol
_atom_site_fract_x
_atom_site_fract_y
_atom_site_fract_z
Zn7 Zn 0.0001 0.0000 0.35937(5)
C11 C 0.6667 0.0206(7) 0.5833
C12 C 0.6852(6) 0.0555(5) 0.57071(15)
H8 H 0.7122 0.0865 0.5729
H9 H 0.6937 0.0417 0.5634
C13 C 0.6481(7) 0.0910(3) 0.55789(9)
C14 C 0.6909(5) 0.1166(5) 0.55106(15)
H10 H 0.7162 0.1115 0.5529
C15 C 0.6959(4) 0.1497(4) 0.54150(12)
H11 H 0.7245 0.1669 0.5369
C16 C 0.6581(6) 0.1572(3) 0.53877(9)
C17 C 0.6153(4) 0.1316(5) 0.54560(15)
H12 H 0.5899 0.1367 0.5438
C18 C 0.6103(4) 0.0985(4) 0.55516(12)
C19 C 0.5315(7) 0.0773(6) 0.56290(19)
H13 H 0.5082 0.0521 0.5684
H14 H 0.5185 0.0750 0.5542
H15 H 0.5397 0.1076 0.5667
C20 C 0.6643(6) 0.1943(6) 0.52801(15)
H16 H 0.6930 0.2127 0.5236
C21 C 0.6325(8) 0.1971(7) 0.52598(17)
H17 H 0.6025 0.1785 0.5297
C22 C 0.6463(9) 0.2366(12) 0.51614(18)
O2 O 0.6875(4) 0.2625(5) 0.50933(14)
O4 O 0.6118(4) 0.2444(5) 0.51052(16)
O7 O 0.6418(4) 0.0580(4) 0.56791(11)
O8 O 0.5749(7) 0.0727(5) 0.56196(15)
C44 C 0.8171(4) 0.0010(6) 0.6059(2)
H31 H 0.8470 0.0111 0.6022
C49 C 0.7815(8) 0.0018(11) 0.59836(9)
H36 H 0.7876 0.0125 0.5896
C69 C 0.7150(5) 0.0167(7) 0.58642(14)
H46 H 0.7235 0.0032 0.5790
H51 H 0.7421 0.0470 0.5890
C76 C 0.6481(6) 0.0370(8) 0.59596(15)
H56 H 0.6211 0.0410 0.5938
H61 H 0.6396 0.0147 0.6033
C81 C 0.6852(7) 0.1096(8) 0.60878(9)
C86 C 0.6424(5) 0.0924(7) 0.61561(15)
H66 H 0.6171 0.0620 0.6138
C91 C 0.6374(4) 0.1205(6) 0.62517(12)
H71 H 0.6088 0.1091 0.6298
C96 C 0.6752(6) 0.1658(7) 0.62790(9)
C101 C 0.7180(4) 0.1830(6) 0.62107(15)
H76 H 0.7434 0.2135 0.6229
C106 C 0.7230(4) 0.1549(6) 0.61151(12)
C111 C 0.8018(7) 0.2125(9) 0.60377(19)
H81 H 0.8251 0.2106 0.5983
H86 H 0.8148 0.2232 0.6125
H91 H 0.7936 0.2346 0.6000
C116 C 0.6690(6) 0.1967(8) 0.63866(15)
H96 H 0.6403 0.1864 0.6431
C121 C 0.7008(8) 0.2313(11) 0.64069(17)
H101 H 0.7308 0.2427 0.6370
C126 C 0.6870(9) 0.2570(15) 0.65053(18)
O19 O 0.6458(4) 0.2417(6) 0.65734(14)
O26 O 0.5750(6) 0.3125(4) 0.50933(14)
O35 O 0.5619(4) 0.2501(4) 0.48455(16)
O36 O 0.7215(4) 0.2993(6) 0.65615(16)
O46 O 0.6667 0.3334 0.4925(2)
O52 O 0.6915(4) 0.0829(6) 0.59876(11)
O57 O 0.7584(7) 0.1645(9) 0.60471(15)
Zn10 Zn 0.60529(9) 0.28616(9) 0.49908(2)
Zn19 Zn 0.71384(9) 0.31913(13) 0.49908(2)
Zn22 Zn 0.72804(9) 0.34754(13) 0.66759(2)
Zn23 Zn 0.61949(9) 0.27196(9) 0.66759(2)
C1 C 0.4271(8) 0.7505(8) 0.5272(3)
C2 C 0.4609(7) 0.7818(7) 0.53805(19)
H1 H 0.4498 0.7765 0.5467
C3 C 0.4985(7) 0.8111(6) 0.53616(16)
H2 H 0.5127 0.8152 0.5279
C4 C 0.5252(6) 0.8436(4) 0.54774(18)
C5 C 0.5162(4) 0.8505(5) 0.5608(2)
H3 H 0.4863 0.8307 0.5645
C6 C 0.5518(8) 0.8869(7) 0.56831(9)
H4 H 0.5457 0.8915 0.5771
C7 C 0.5964(6) 0.9164(4) 0.56277(19)
C8 C 0.6055(4) 0.9096(5) 0.5497(2)
C9 C 0.5698(8) 0.8732(7) 0.54220(9)
H5 H 0.5759 0.8686 0.5335
C10 C 0.6183(5) 0.9683(5) 0.58025(14)
H6 H 0.6098 0.9463 0.5877
H7 H 0.5912 0.9715 0.5777
O1 O 0.3854(5) 0.7174(4) 0.53245(11)
O3 O 0.4381(4) 0.7499(4) 0.51545(16)
O5 O 0.3333 0.6667 0.5075(2)
O6 O 0.6377(4) 0.9550(4) 0.56924(12)
O9 O 0.6540(5) 0.9313(5) 0.54402(18)
Zn1 Zn 0.3333 0.6667 0.52604(5)
Zn2 Zn 0.39471(9) 0.71384(9) 0.50092(2)
C23 C 0.6565(14) 0.9324(14) 0.5291(2)
H18 H 0.6892 0.9469 0.5264
H19 H 0.6427 0.9506 0.5258
H20 H 0.6390 0.9005 0.5258
C24 C 0.9062(8) 0.9901(11) 0.6395(3)
C27 C 0.6766(11) 0.4271(8) 0.4728(3)
C28 C 0.9162(8) 0.9062(8) 0.3605(3)
C29 C 0.8724(7) 0.9876(10) 0.62862(19)
C32 C 0.6791(10) 0.4609(7) 0.46195(19)
C33 C 0.8849(7) 0.8724(7) 0.37138(19)
H21 H 0.8835 0.9934 0.6200
H24 H 0.6733 0.4498 0.4533
H25 H 0.8902 0.8835 0.3800
C34 C 0.8348(7) 0.9793(9) 0.63051(16)
C37 C 0.6874(9) 0.4985(7) 0.46384(16)
C38 C 0.8556(6) 0.8348(7) 0.36949(16)
H26 H 0.8206 0.9692 0.6388
H29 H 0.6975 0.5127 0.4721
H30 H 0.8515 0.8206 0.3612
C39 C 0.8081(6) 0.9851(7) 0.61893(18)
C42 C 0.6816(7) 0.5252(6) 0.45226(18)
C43 C 0.8231(4) 0.8081(6) 0.38107(18)
C46 C 0.0010(6) 0.1838(5) 0.3941(2)
C47 C 0.6657(6) 0.5162(4) 0.4392(2)
C48 C 0.8162(5) 0.8171(4) 0.3941(2)
H33 H 0.0111 0.1640 0.3978
H34 H 0.6556 0.4863 0.4355
H35 H 0.8360 0.8470 0.3978
C51 C 0.0018(11) 0.2202(7) 0.40164(9)
C52 C 0.6649(11) 0.5518(8) 0.43169(9)
C53 C 0.7798(7) 0.7815(8) 0.40164(9)
H38 H 0.0125 0.2248 0.4104
H39 H 0.6542 0.5457 0.4229
H40 H 0.7752 0.7876 0.4104
C54 C 0.7369(6) 0.9867(7) 0.60390(19)
C57 C 0.6800(7) 0.5964(6) 0.43723(19)
C58 C 0.7503(4) 0.7369(6) 0.39610(19)
C59 C 0.7278(4) 0.9708(6) 0.6170(2)
C62 C 0.6959(6) 0.6055(4) 0.4503(2)
C63 C 0.7571(5) 0.7278(4) 0.3830(2)
C64 C 0.7635(8) 0.9701(11) 0.62447(9)
C67 C 0.6966(11) 0.5698(8) 0.45780(9)
C68 C 0.7935(7) 0.7635(8) 0.37553(9)
H41 H 0.7574 0.9594 0.6332
H44 H 0.7073 0.5759 0.4665
H45 H 0.7981 0.7574 0.3668
C71 C 0.0167(7) 0.3016(5) 0.41358(14)
C72 C 0.6500(7) 0.6183(5) 0.41975(14)
C73 C 0.6984(5) 0.7150(5) 0.41358(14)
H48 H 0.0032 0.2796 0.4210
H49 H 0.6635 0.6098 0.4123
H50 H 0.7204 0.7235 0.4210
H53 H 0.0470 0.3048 0.4110
H54 H 0.6197 0.5912 0.4223
H55 H 0.6952 0.7421 0.4110
C74 C 0.0206(7) 0.3539(7) 0.4167
C75 C 0.6461(7) 0.6667 0.4167
C77 C 0.0555(5) 0.3703(8) 0.42929(15)
C78 C 0.0370(8) 0.3888(5) 0.40404(15)
C79 C 0.6297(8) 0.6852(6) 0.42929(15)
C80 C 0.6112(5) 0.6481(6) 0.40404(15)
H57 H 0.0865 0.3743 0.4271
H58 H 0.0410 0.4198 0.4062
H59 H 0.6257 0.7122 0.4271
H60 H 0.5802 0.6211 0.4062
H62 H 0.0417 0.3480 0.4366
H63 H 0.0147 0.3750 0.3967
H64 H 0.6520 0.6937 0.4366
H65 H 0.6250 0.6396 0.3967
C82 C 0.0910(3) 0.4429(8) 0.44211(9)
C83 C 0.1096(8) 0.4243(3) 0.39122(9)
C84 C 0.5571(8) 0.6481(7) 0.44211(9)
C85 C 0.5757(3) 0.6852(7) 0.39122(9)
C87 C 0.1166(5) 0.4257(7) 0.44894(15)
C88 C 0.0924(7) 0.4499(5) 0.38439(15)
C89 C 0.5743(7) 0.6909(5) 0.44894(15)
C90 C 0.5501(5) 0.6424(5) 0.38439(15)
H67 H 0.1115 0.3953 0.4471
H68 H 0.0620 0.4448 0.3862
H69 H 0.6047 0.7162 0.4471
H70 H 0.5552 0.6171 0.3862
C92 C 0.1497(4) 0.4538(6) 0.45850(12)
C93 C 0.1205(6) 0.4830(4) 0.37483(12)
C94 C 0.5462(6) 0.6959(4) 0.45850(12)
C95 C 0.5170(4) 0.6374(4) 0.37483(12)
H72 H 0.1669 0.4424 0.4631
H73 H 0.1091 0.5002 0.3702
H74 H 0.5576 0.7245 0.4631
H75 H 0.4998 0.6088 0.3702
C97 C 0.1572(3) 0.4991(7) 0.46123(9)
C98 C 0.1658(7) 0.4905(3) 0.37210(9)
C99 C 0.5009(7) 0.6581(6) 0.46123(9)
C100 C 0.5095(3) 0.6752(6) 0.37210(9)
C102 C 0.1316(5) 0.5163(6) 0.45440(15)
C103 C 0.1830(6) 0.4649(5) 0.37893(15)
C104 C 0.4837(6) 0.6153(4) 0.45440(15)
C105 C 0.5351(5) 0.7180(4) 0.37893(15)
H77 H 0.1367 0.5468 0.4562
H78 H 0.2135 0.4700 0.3771
H79 H 0.4532 0.5899 0.4562
H80 H 0.5300 0.7434 0.3771
C107 C 0.0985(4) 0.4882(6) 0.44484(12)
C108 C 0.1549(6) 0.4318(4) 0.38849(12)
C109 C 0.5118(6) 0.6103(4) 0.44484(12)
C110 C 0.5682(4) 0.7230(4) 0.38849(12)
C112 C 0.0773(6) 0.5458(9) 0.43710(19)
C113 C 0.2125(9) 0.4106(6) 0.39623(19)
C114 C 0.4542(9) 0.5315(7) 0.43710(19)
C115 C 0.5894(6) 0.8018(7) 0.39623(19)
H82 H 0.0521 0.5439 0.4316
H83 H 0.2106 0.3854 0.4017
H84 H 0.4561 0.5082 0.4316
H85 H 0.6146 0.8251 0.4017
H87 H 0.0750 0.5565 0.4458
H88 H 0.2232 0.4083 0.3875
H89 H 0.4435 0.5185 0.4458
H90 H 0.5917 0.8148 0.3875
H92 H 0.1076 0.5679 0.4333
H93 H 0.2346 0.4409 0.4000
H94 H 0.4321 0.5397 0.4333
H95 H 0.5591 0.7936 0.4000
C117 C 0.1943(6) 0.5300(8) 0.47199(15)
C118 C 0.1967(8) 0.5276(6) 0.36134(15)
C119 C 0.4700(8) 0.6643(6) 0.47199(15)
C120 C 0.4724(6) 0.6690(6) 0.36134(15)
H97 H 0.2127 0.5197 0.4764
H98 H 0.1864 0.5460 0.3569
H99 H 0.4803 0.6930 0.4764
H100 H 0.4540 0.6403 0.3569
C122 C 0.1971(7) 0.5646(11) 0.47402(17)
C123 C 0.2313(11) 0.5304(7) 0.35931(17)
C124 C 0.4354(11) 0.6325(8) 0.47402(17)
C125 C 0.4696(7) 0.7008(8) 0.35931(17)
H102 H 0.1785 0.5760 0.4703
H103 H 0.2427 0.5118 0.3630
H104 H 0.4240 0.6025 0.4703
H105 H 0.4882 0.7308 0.3630
C127 C 0.2366(12) 0.5903(15) 0.48386(18)
C128 C 0.2570(15) 0.5699(12) 0.34947(18)
C129 C 0.4097(15) 0.6463(9) 0.48386(18)
C130 C 0.4301(12) 0.6870(9) 0.34947(18)
O10 O 0.9479(5) 0.9987(6) 0.63422(11)
O13 O 0.6680(6) 0.3854(5) 0.46755(11)
O14 O 0.9493(4) 0.9479(5) 0.36578(11)
O15 O 0.6146(5) 0.2826(4) 0.46755(11)
O16 O 0.7174(4) 0.3320(6) 0.46755(11)
O17 O 0.2826(4) 0.6680(6) 0.53245(11)
O18 O 0.3320(6) 0.6146(5) 0.53245(11)
O20 O 0.2625(5) 0.5750(6) 0.49067(14)
O21 O 0.2417(6) 0.5958(5) 0.34266(14)
O22 O 0.4250(6) 0.6875(4) 0.49067(14)
O23 O 0.4042(5) 0.6458(4) 0.34266(14)
O25 O 0.7375(5) 0.4250(6) 0.50933(14)
O27 O 0.3125(4) 0.7375(5) 0.49067(14)
O28 O 0.8952(4) 0.9785(6) 0.65122(16)
O31 O 0.6882(6) 0.4381(4) 0.48455(16)
O32 O 0.9168(4) 0.8952(4) 0.34878(16)
O33 O 0.2501(4) 0.6882(6) 0.51545(16)
O34 O 0.3118(6) 0.5619(4) 0.51545(16)
O37 O 0.2444(5) 0.6326(6) 0.48948(16)
O38 O 0.2993(6) 0.5777(5) 0.34385(16)
O39 O 0.3674(6) 0.6118(4) 0.48948(16)
O40 O 0.4223(5) 0.7215(4) 0.34385(16)
O42 O 0.6326(6) 0.3882(4) 0.51052(16)
O43 O 0.3882(4) 0.7556(5) 0.48948(16)
O47 O 0.6956(4) 0.9840(6) 0.59743(12)
O50 O 0.6827(6) 0.6377(4) 0.43076(12)
O51 O 0.7117(4) 0.6956(4) 0.40257(12)
O53 O 0.0580(4) 0.4162(6) 0.43209(11)
O54 O 0.0829(6) 0.3913(4) 0.40124(11)
O55 O 0.5838(6) 0.6418(4) 0.43209(11)
O56 O 0.6087(4) 0.6915(4) 0.40124(11)
O58 O 0.0727(5) 0.4978(9) 0.43804(15)
O59 O 0.1645(9) 0.4060(5) 0.39529(15)
O60 O 0.5022(9) 0.5749(7) 0.43804(15)
O61 O 0.5940(5) 0.7584(7) 0.39529(15)
O62 O 0.6793(5) 0.9440(7) 0.62265(18)
O65 O 0.7227(7) 0.6540(5) 0.45598(18)
O66 O 0.7354(5) 0.6793(5) 0.37735(18)
Zn3 Zn 0.6666 0.3333 0.47396(5)
Zn4 Zn 0.9999 1.0000 0.64063(5)
Zn8 Zn 0.28616(9) 0.68087(13) 0.50092(2)
Zn9 Zn 0.31913(13) 0.60529(9) 0.50092(2)
Zn12 Zn 0.68087(13) 0.39471(9) 0.49908(2)
Zn13 Zn 0.34754(13) 0.61949(9) 0.33241(2)
Zn14 Zn 0.27196(9) 0.65246(13) 0.33241(2)
Zn15 Zn 0.38051(9) 0.72804(9) 0.33241(2)
Zn16 Zn 0.93862(9) 0.98580(13) 0.66575(2)
Zn21 Zn 0.95283(9) 0.93862(9) 0.33425(2)
C131 C 0.6768(14) 0.9426(20) 0.6376(2)
C134 C 0.7241(20) 0.6565(14) 0.4709(2)
C135 C 0.7343(14) 0.6768(14) 0.3624(2)
H106 H 0.6441 0.9244 0.6403
H109 H 0.7423 0.6892 0.4736
H110 H 0.7198 0.6441 0.3597
H111 H 0.6906 0.9746 0.6409
H114 H 0.6921 0.6427 0.4742
H115 H 0.7161 0.6906 0.3591
H116 H 0.6943 0.9282 0.6409
H119 H 0.7385 0.6390 0.4742
H120 H 0.7662 0.6943 0.3591
C25 C 0.7505(8) 0.3234(11) 0.4728(3)
C26 C 0.9901(11) 0.0838(8) 0.3605(3)
C30 C 0.7818(7) 0.3209(10) 0.46195(19)
C31 C 0.9876(10) 0.1151(7) 0.37138(19)
H22 H 0.7765 0.3267 0.4533
H23 H 0.9934 0.1098 0.3800
C35 C 0.8111(6) 0.3126(9) 0.46384(16)
C36 C 0.9793(9) 0.1444(6) 0.36949(16)
H27 H 0.8152 0.3025 0.4721
H28 H 0.9692 0.1485 0.3612
C40 C 0.8436(4) 0.3184(7) 0.45226(18)
C41 C 0.9851(7) 0.1769(4) 0.38107(18)
C45 C 0.8505(5) 0.3343(6) 0.4392(2)
H32 H 0.8307 0.3444 0.4355
C50 C 0.8869(7) 0.3351(11) 0.43169(9)
H37 H 0.8915 0.3458 0.4229
C55 C 0.9164(4) 0.3200(7) 0.43723(19)
C56 C 0.9867(7) 0.2497(4) 0.39610(19)
C60 C 0.9096(5) 0.3041(6) 0.4503(2)
C61 C 0.9708(6) 0.2429(5) 0.3830(2)
C65 C 0.8732(7) 0.3034(11) 0.45780(9)
C66 C 0.9701(11) 0.2065(7) 0.37553(9)
H42 H 0.8686 0.2927 0.4665
H43 H 0.9594 0.2019 0.3668
C70 C 0.9683(5) 0.3500(7) 0.41975(14)
H47 H 0.9463 0.3365 0.4123
H52 H 0.9715 0.3803 0.4223
O12 O 0.9987(6) 0.0507(4) 0.36578(11)
O29 O 0.7499(4) 0.3118(6) 0.48455(16)
O30 O 0.9785(6) 0.0832(4) 0.34878(16)
O41 O 0.7556(5) 0.3674(6) 0.51052(16)
O48 O 0.9550(4) 0.3173(6) 0.43076(12)
O49 O 0.9840(6) 0.2883(4) 0.40257(12)
O63 O 0.9313(5) 0.2773(7) 0.45598(18)
O64 O 0.9440(7) 0.2646(5) 0.37735(18)
Zn20 Zn 0.98580(13) 0.04717(9) 0.33425(2)
C132 C 0.9324(14) 0.2759(20) 0.4709(2)
C133 C 0.9426(20) 0.2657(14) 0.3624(2)
H107 H 0.9469 0.2577 0.4736
H108 H 0.9244 0.2802 0.3597
H112 H 0.9506 0.3079 0.4742
H113 H 0.9746 0.2839 0.3591
H117 H 0.9005 0.2615 0.4742
H118 H 0.9282 0.2338 0.3591
C27_2 C 0.5729(8) 0.2495(14) 0.4728(3)
C28_2 C 0.0938(8) 0.0099(11) 0.3605(3)
C32_2 C 0.5391(7) 0.2182(12) 0.46195(19)
C33_2 C 0.1276(7) 0.0124(10) 0.37138(19)
H24_2 H 0.5502 0.2235 0.4533
H25_2 H 0.1165 0.0066 0.3800
C37_2 C 0.5015(7) 0.1889(11) 0.46384(16)
C38_2 C 0.1652(7) 0.0207(9) 0.36949(16)
H29_2 H 0.4873 0.1848 0.4721
H30_2 H 0.1794 0.0308 0.3612
C42_2 C 0.4748(6) 0.1564(9) 0.45226(18)
C43_2 C 0.1919(6) 0.0149(7) 0.38107(18)
C47_2 C 0.4838(4) 0.1495(7) 0.4392(2)
H34_2 H 0.5137 0.1693 0.4355
C52_2 C 0.4482(8) 0.1131(14) 0.43169(9)
H39_2 H 0.4543 0.1085 0.4229
C57_2 C 0.4036(6) 0.0836(9) 0.43723(19)
C58_2 C 0.2631(6) 0.0133(7) 0.39610(19)
C62_2 C 0.3945(4) 0.0904(7) 0.4503(2)
C63_2 C 0.2722(4) 0.0292(6) 0.3830(2)
C67_2 C 0.4302(8) 0.1268(14) 0.45780(9)
C68_2 C 0.2365(8) 0.0299(11) 0.37553(9)
H44_2 H 0.4241 0.1314 0.4665
H45_2 H 0.2426 0.0406 0.3668
C72_2 C 0.3817(5) 0.0317(9) 0.41975(14)
H49_2 H 0.3902 0.0537 0.4123
H54_2 H 0.4088 0.0285 0.4223
O14_2 O 0.0521(5) 0.0013(6) 0.36578(11)
O32_2 O 0.1048(4) 0.0215(6) 0.34878(16)
O50_2 O 0.3623(4) 0.0450(7) 0.43076(12)
O51_2 O 0.3044(4) 0.0160(6) 0.40257(12)
O65_2 O 0.3460(5) 0.0687(9) 0.45598(18)
O66_2 O 0.3207(5) 0.0560(7) 0.37735(18)
Zn6 Zn 1.0000 0.0000 0.35937(5)
Zn21_2 Zn 0.06138(9) 0.01420(13) 0.33425(2)
C134_2 C 0.3435(14) 0.0676(24) 0.4709(2)
C135_2 C 0.3232(14) 0.0574(20) 0.3624(2)
H109_2 H 0.3108 0.0531 0.4736
H110_2 H 0.3559 0.0756 0.3597
H114_2 H 0.3573 0.0494 0.4742
H115_2 H 0.3094 0.0254 0.3591
H119_2 H 0.3610 0.0995 0.4742
H120_2 H 0.3057 0.0718 0.3591
C1_2 C 0.2495(8) 0.6766(11) 0.5272(3)
C2_2 C 0.2182(7) 0.6791(10) 0.53805(19)
H1_2 H 0.2235 0.6733 0.5467
C3_2 C 0.1889(6) 0.6874(9) 0.53616(16)
H2_2 H 0.1848 0.6975 0.5279
C4_2 C 0.1564(4) 0.6816(7) 0.54774(18)
C5_2 C 0.1495(5) 0.6657(6) 0.5608(2)
H3_2 H 0.1693 0.6556 0.5645
C6_2 C 0.1131(7) 0.6649(11) 0.56831(9)
H4_2 H 0.1085 0.6542 0.5771
C7_2 C 0.0836(4) 0.6800(7) 0.56277(19)
C8_2 C 0.0904(5) 0.6959(6) 0.5497(2)
C9_2 C 0.1268(7) 0.6966(11) 0.54220(9)
H5_2 H 0.1314 0.7073 0.5335
C10_2 C 0.0317(5) 0.6500(7) 0.58025(14)
H6_2 H 0.0537 0.6635 0.5877
H7_2 H 0.0285 0.6197 0.5777
O6_2 O 0.0450(4) 0.6827(6) 0.56924(12)
O9_2 O 0.0687(5) 0.7227(7) 0.54402(18)
C23_2 C 0.0676(14) 0.7241(20) 0.5291(2)
H18_2 H 0.0531 0.7423 0.5264
H19_2 H 0.0494 0.6921 0.5258
H20_2 H 0.0995 0.7385 0.5258
C24_2 C 0.0099(11) 0.9162(14) 0.6395(3)
C29_2 C 0.0124(10) 0.8849(12) 0.62862(19)
H21_2 H 0.0066 0.8902 0.6200
C34_2 C 0.0207(9) 0.8556(11) 0.63051(16)
H26_2 H 0.0308 0.8515 0.6388
C39_2 C 0.0149(7) 0.8231(9) 0.61893(18)
C48_2 C 0.1829(4) 0.9990(6) 0.3941(2)
H35_2 H 0.1530 0.9889 0.3978
C53_2 C 0.2185(8) 0.9982(11) 0.40164(9)
H40_2 H 0.2124 0.9875 0.4104
C54_2 C 0.0133(7) 0.7503(9) 0.60390(19)
C59_2 C 0.0292(6) 0.7571(7) 0.6170(2)
C64_2 C 0.0299(11) 0.7935(14) 0.62447(9)
H41_2 H 0.0406 0.7981 0.6332
C73_2 C 0.2850(5) 0.9833(7) 0.41358(14)
H50_2 H 0.2765 0.9968 0.4210
H55_2 H 0.2579 0.9530 0.4110
C75_2 C 0.3333 0.9794(7) 0.4167
C79_2 C 0.3148(6) 0.9445(10) 0.42929(15)
C80_2 C 0.3519(6) 0.9630(8) 0.40404(15)
H59_2 H 0.2878 0.9135 0.4271
H60_2 H 0.3789 0.9590 0.4062
H64_2 H 0.3063 0.9583 0.4366
H65_2 H 0.3604 0.9853 0.3967
C84_2 C 0.3519(7) 0.9090(11) 0.44211(9)
C85_2 C 0.3148(7) 0.8904(8) 0.39122(9)
C89_2 C 0.3091(5) 0.8834(9) 0.44894(15)
C90_2 C 0.3576(5) 0.9076(7) 0.38439(15)
H69_2 H 0.2838 0.8885 0.4471
H70_2 H 0.3829 0.9380 0.3862
C94_2 C 0.3041(4) 0.8503(7) 0.45850(12)
C95_2 C 0.3626(4) 0.8795(6) 0.37483(12)
H74_2 H 0.2755 0.8331 0.4631
H75_2 H 0.3912 0.8909 0.3702
C99_2 C 0.3419(6) 0.8428(9) 0.46123(9)
C100_2 C 0.3248(6) 0.8342(7) 0.37210(9)
C104_2 C 0.3847(4) 0.8684(7) 0.45440(15)
C105_2 C 0.2820(4) 0.8170(6) 0.37893(15)
H79_2 H 0.4101 0.8633 0.4562
H80_2 H 0.2566 0.7865 0.3771
C109_2 C 0.3897(4) 0.9015(7) 0.44484(12)
C110_2 C 0.2770(4) 0.8451(6) 0.38849(12)
C114_2 C 0.4685(7) 0.9227(11) 0.43710(19)
C115_2 C 0.1982(7) 0.7875(9) 0.39623(19)
H84_2 H 0.4918 0.9479 0.4316
H85_2 H 0.1749 0.7894 0.4017
H89_2 H 0.4815 0.9250 0.4458
H90_2 H 0.1852 0.7768 0.3875
H94_2 H 0.4603 0.8924 0.4333
H95_2 H 0.2064 0.7654 0.4000
C119_2 C 0.3357(6) 0.8057(10) 0.47199(15)
C120_2 C 0.3310(6) 0.8033(8) 0.36134(15)
H99_2 H 0.3070 0.7873 0.4764
H100_2 H 0.3597 0.8136 0.3569
C124_2 C 0.3675(8) 0.8029(14) 0.47402(17)
C125_2 C 0.2992(8) 0.7687(11) 0.35931(17)
H104_2 H 0.3975 0.8215 0.4703
H105_2 H 0.2692 0.7573 0.3630
C129_2 C 0.3537(9) 0.7634(17) 0.48386(18)
C130_2 C 0.3130(9) 0.7430(15) 0.34947(18)
O10_2 O 0.0013(6) 0.9493(8) 0.63422(11)
O23_2 O 0.3542(4) 0.7583(6) 0.34266(14)
O28_2 O 0.0215(6) 0.9168(7) 0.65122(16)
O40_2 O 0.2785(4) 0.7007(6) 0.34385(16)
O47_2 O 0.0160(6) 0.7117(7) 0.59743(12)
O55_2 O 0.3582(4) 0.9420(7) 0.43209(11)
O56_2 O 0.3085(4) 0.9171(6) 0.40124(11)
O60_2 O 0.4251(7) 0.9273(11) 0.43804(15)
O61_2 O 0.2416(7) 0.8355(9) 0.39529(15)
O62_2 O 0.0560(7) 0.7354(9) 0.62265(18)
Zn4_2 Zn 0.0000 1.0000 0.64063(5)
Zn16_2 Zn 0.01420(13) 0.95283(16) 0.66575(2)
C131_2 C 0.0574(20) 0.7343(24) 0.6376(2)
H106_2 H 0.0756 0.7198 0.6403
H111_2 H 0.0254 0.7161 0.6409
H116_2 H 0.0718 0.7662 0.6409
C11_2 C 0.9794(7) 0.6461(7) 0.5833
C12_2 C 0.9445(5) 0.6297(8) 0.57071(15)
H8_2 H 0.9135 0.6257 0.5729
H9_2 H 0.9583 0.6520 0.5634
C13_2 C 0.9090(3) 0.5571(8) 0.55789(9)
C14_2 C 0.8834(5) 0.5743(7) 0.55106(15)
H10_2 H 0.8885 0.6047 0.5529
C15_2 C 0.8503(4) 0.5462(6) 0.54150(12)
H11_2 H 0.8331 0.5576 0.5369
C16_2 C 0.8428(3) 0.5009(7) 0.53877(9)
C17_2 C 0.8684(5) 0.4837(6) 0.54560(15)
H12_2 H 0.8633 0.4532 0.5438
C18_2 C 0.9015(4) 0.5118(6) 0.55516(12)
C19_2 C 0.9227(6) 0.4542(9) 0.56290(19)
H13_2 H 0.9479 0.4561 0.5684
H14_2 H 0.9250 0.4435 0.5542
H15_2 H 0.8924 0.4321 0.5667
C20_2 C 0.8057(6) 0.4700(8) 0.52801(15)
H16_2 H 0.7873 0.4803 0.5236
C21_2 C 0.8029(7) 0.4354(11) 0.52598(17)
H17_2 H 0.8215 0.4240 0.5297
C22_2 C 0.7634(12) 0.4097(15) 0.51614(18)
O7_2 O 0.9420(4) 0.5838(6) 0.56791(11)
O8_2 O 0.9273(5) 0.5022(9) 0.56196(15)
C44_2 C 0.9990(6) 0.8162(7) 0.6059(2)
H31_2 H 0.9889 0.8360 0.6022
C49_2 C 0.9982(11) 0.7798(14) 0.59836(9)
H36_2 H 0.9875 0.7752 0.5896
C69_2 C 0.9833(7) 0.6984(9) 0.58642(14)
H46_2 H 0.9968 0.7204 0.5790
H51_2 H 0.9530 0.6952 0.5890
C76_2 C 0.9630(8) 0.6112(10) 0.59596(15)
H56_2 H 0.9590 0.5802 0.5938
H61_2 H 0.9853 0.6250 0.6033
C81_2 C 0.8904(8) 0.5757(11) 0.60878(9)
C86_2 C 0.9076(7) 0.5501(9) 0.61561(15)
H66_2 H 0.9380 0.5552 0.6138
C91_2 C 0.8795(6) 0.5170(7) 0.62517(12)
H71_2 H 0.8909 0.4998 0.6298
C96_2 C 0.8342(7) 0.5095(9) 0.62790(9)
C101_2 C 0.8170(6) 0.5351(7) 0.62107(15)
H76_2 H 0.7865 0.5300 0.6229
C106_2 C 0.8451(6) 0.5682(7) 0.61151(12)
C111_2 C 0.7875(9) 0.5894(11) 0.60377(19)
H81_2 H 0.7894 0.6146 0.5983
H86_2 H 0.7768 0.5917 0.6125
H91_2 H 0.7654 0.5591 0.6000
C116_2 C 0.8033(8) 0.4724(10) 0.63866(15)
H96_2 H 0.8136 0.4540 0.6431
C121_2 C 0.7687(11) 0.4696(14) 0.64069(17)
H101_2 H 0.7573 0.4882 0.6370
C126_2 C 0.7430(15) 0.4301(17) 0.65053(18)
O19_2 O 0.7583(6) 0.4042(7) 0.65734(14)
O36_2 O 0.7007(6) 0.4223(7) 0.65615(16)
O52_2 O 0.9171(6) 0.6087(7) 0.59876(11)
O57_2 O 0.8355(9) 0.5940(11) 0.60471(15)
Zn22_2 Zn 0.65246(13) 0.38051(16) 0.66759(2)
C1_3 C 0.3234(11) 0.5729(8) 0.5272(3)
C2_3 C 0.3209(10) 0.5391(7) 0.53805(19)
H1_3 H 0.3267 0.5502 0.5467
C3_3 C 0.3126(9) 0.5015(7) 0.53616(16)
H2_3 H 0.3025 0.4873 0.5279
C4_3 C 0.3184(7) 0.4748(6) 0.54774(18)
C5_3 C 0.3343(6) 0.4838(4) 0.5608(2)
H3_3 H 0.3444 0.5137 0.5645
C6_3 C 0.3351(11) 0.4482(8) 0.56831(9)
H4_3 H 0.3458 0.4543 0.5771
C7_3 C 0.3200(7) 0.4036(6) 0.56277(19)
C8_3 C 0.3041(6) 0.3945(4) 0.5497(2)
C9_3 C 0.3034(11) 0.4302(8) 0.54220(9)
H5_3 H 0.2927 0.4241 0.5335
C10_3 C 0.3500(7) 0.3817(5) 0.58025(14)
H6_3 H 0.3365 0.3902 0.5877
H7_3 H 0.3803 0.4088 0.5777
C11_3 C 0.3539(7) 0.3333 0.5833
C12_3 C 0.3703(8) 0.3148(6) 0.57071(15)
H8_3 H 0.3743 0.2878 0.5729
H9_3 H 0.3480 0.3063 0.5634
C13_3 C 0.4429(8) 0.3519(7) 0.55789(9)
C14_3 C 0.4257(7) 0.3091(5) 0.55106(15)
H10_3 H 0.3953 0.2838 0.5529
C15_3 C 0.4538(6) 0.3041(4) 0.54150(12)
H11_3 H 0.4424 0.2755 0.5369
C16_3 C 0.4991(7) 0.3419(6) 0.53877(9)
C17_3 C 0.5163(6) 0.3847(4) 0.54560(15)
H12_3 H 0.5468 0.4101 0.5438
C18_3 C 0.4882(6) 0.3897(4) 0.55516(12)
C19_3 C 0.5458(9) 0.4685(7) 0.56290(19)
H13_3 H 0.5439 0.4918 0.5684
H14_3 H 0.5565 0.4815 0.5542
H15_3 H 0.5679 0.4603 0.5667
C20_3 C 0.5300(8) 0.3357(6) 0.52801(15)
H16_3 H 0.5197 0.3070 0.5236
C21_3 C 0.5646(11) 0.3675(8) 0.52598(17)
H17_3 H 0.5760 0.3975 0.5297
C22_3 C 0.5903(15) 0.3537(9) 0.51614(18)
O6_3 O 0.3173(6) 0.3623(4) 0.56924(12)
O7_3 O 0.4162(6) 0.3582(4) 0.56791(11)
O8_3 O 0.4978(9) 0.4251(7) 0.56196(15)
O9_3 O 0.2773(7) 0.3460(5) 0.54402(18)
C23_3 C 0.2759(20) 0.3435(14) 0.5291(2)
H18_3 H 0.2577 0.3108 0.5264
H19_3 H 0.3079 0.3573 0.5258
H20_3 H 0.2615 0.3610 0.5258
C24_3 C 0.0838(14) 0.0938(8) 0.6395(3)
C29_3 C 0.1151(12) 0.1276(7) 0.62862(19)
H21_3 H 0.1098 0.1165 0.6200
C34_3 C 0.1444(11) 0.1652(7) 0.63051(16)
H26_3 H 0.1485 0.1794 0.6388
C39_3 C 0.1769(9) 0.1919(6) 0.61893(18)
C44_3 C 0.1838(7) 0.1829(4) 0.6059(2)
H31_3 H 0.1640 0.1530 0.6022
C49_3 C 0.2202(14) 0.2185(8) 0.59836(9)
H36_3 H 0.2248 0.2124 0.5896
C54_3 C 0.2497(9) 0.2631(6) 0.60390(19)
C59_3 C 0.2429(7) 0.2722(4) 0.6170(2)
C64_3 C 0.2065(14) 0.2365(8) 0.62447(9)
H41_3 H 0.2019 0.2426 0.6332
C69_3 C 0.3016(9) 0.2850(5) 0.58642(14)
H46_3 H 0.2796 0.2765 0.5790
H51_3 H 0.3048 0.2579 0.5890
C76_3 C 0.3888(10) 0.3519(6) 0.59596(15)
H56_3 H 0.4198 0.3789 0.5938
H61_3 H 0.3750 0.3604 0.6033
C81_3 C 0.4243(11) 0.3148(7) 0.60878(9)
C86_3 C 0.4499(9) 0.3576(5) 0.61561(15)
H66_3 H 0.4448 0.3829 0.6138
C91_3 C 0.4830(7) 0.3626(4) 0.62517(12)
H71_3 H 0.5002 0.3912 0.6298
C96_3 C 0.4905(9) 0.3248(6) 0.62790(9)
C101_3 C 0.4649(7) 0.2820(4) 0.62107(15)
H76_3 H 0.4700 0.2566 0.6229
C106_3 C 0.4318(7) 0.2770(4) 0.61151(12)
C111_3 C 0.4106(11) 0.1982(7) 0.60377(19)
H81_3 H 0.3854 0.1749 0.5983
H86_3 H 0.4083 0.1852 0.6125
H91_3 H 0.4409 0.2064 0.6000
C116_3 C 0.5276(10) 0.3310(6) 0.63866(15)
H96_3 H 0.5460 0.3597 0.6431
C121_3 C 0.5304(14) 0.2992(8) 0.64069(17)
H101_3 H 0.5118 0.2692 0.6370
C126_3 C 0.5699(17) 0.3130(9) 0.65053(18)
O10_3 O 0.0507(8) 0.0521(5) 0.63422(11)
O19_3 O 0.5958(7) 0.3542(4) 0.65734(14)
O28_3 O 0.0832(7) 0.1048(4) 0.65122(16)
O36_3 O 0.5777(7) 0.2785(4) 0.65615(16)
O47_3 O 0.2883(7) 0.3044(4) 0.59743(12)
O52_3 O 0.3913(7) 0.3085(4) 0.59876(11)
O57_3 O 0.4060(11) 0.2416(7) 0.60471(15)
O62_3 O 0.2646(9) 0.3207(5) 0.62265(18)
Zn4_3 Zn 0.0000 0.0001 0.64063(5)
Zn16_3 Zn 0.04717(16) 0.06138(9) 0.66575(2)
C131_3 C 0.2657(24) 0.3232(14) 0.6376(2)
H106_3 H 0.2802 0.3559 0.6403
H111_3 H 0.2839 0.3094 0.6409
H116_3 H 0.2338 0.3057 0.6409
Zn6_2 Zn 1.0000 0.9999 0.35937(5)
C27_3 C 0.2495(14) 0.5729(8) 0.0272(3)
C28_3 C 0.0099(11) 0.0938(8) 0.1395(3)
C32_3 C 0.2182(12) 0.5391(7) 0.03805(19)
C33_3 C 0.0124(10) 0.1276(7) 0.12862(19)
H24_3 H 0.2235 0.5502 0.0467
H25_3 H 0.0066 0.1165 0.1200
C37_3 C 0.1889(11) 0.5015(7) 0.03616(16)
C38_3 C 0.0207(9) 0.1652(7) 0.13051(16)
H29_3 H 0.1848 0.4873 0.0279
H30_3 H 0.0308 0.1794 0.1388
C42_3 C 0.1564(9) 0.4748(6) 0.04774(18)
C43_3 C 0.0149(7) 0.1919(6) 0.11893(18)
C47_3 C 0.1495(7) 0.4838(4) 0.0608(2)
H34_3 H 0.1693 0.5137 0.0645
C52_3 C 0.1131(14) 0.4482(8) 0.06831(9)
H39_3 H 0.1085 0.4543 0.0771
C57_3 C 0.0836(9) 0.4036(6) 0.06277(19)
C58_3 C 0.0133(7) 0.2631(6) 0.10390(19)
C62_3 C 0.0904(7) 0.3945(4) 0.0497(2)
C63_3 C 0.0292(6) 0.2722(4) 0.1170(2)
C67_3 C 0.1268(14) 0.4302(8) 0.04220(9)
C68_3 C 0.0299(11) 0.2365(8) 0.12447(9)
H44_3 H 0.1314 0.4241 0.0335
H45_3 H 0.0406 0.2426 0.1332
C72_3 C 0.0317(9) 0.3817(5) 0.08025(14)
H49_3 H 0.0537 0.3902 0.0877
H54_3 H 0.0285 0.4088 0.0777
O13_2 O 0.2826(8) 0.6146(5) 0.03245(11)
O14_3 O 0.0013(6) 0.0521(5) 0.13422(11)
O15_2 O 0.3320(6) 0.7174(4) 0.03245(11)
O16_2 O 0.3854(7) 0.6680(6) 0.03245(11)
O31_2 O 0.2501(7) 0.5619(4) 0.01545(16)
O32_3 O 0.0215(6) 0.1048(4) 0.15122(16)
O44 O 0.3333 0.6667 0.0075(2)
O50_3 O 0.0450(7) 0.3623(4) 0.06924(12)
O51_3 O 0.0160(6) 0.3044(4) 0.09743(12)
O65_3 O 0.0687(9) 0.3460(5) 0.04402(18)
O66_3 O 0.0560(7) 0.3207(5) 0.12265(18)
Zn3_2 Zn 0.3333 0.6667 0.02604(5)
Zn6_3 Zn 0.0000 1.0000 0.14063(5)
Zn12_2 Zn 0.28616(16) 0.60529(9) 0.00092(2)
Zn17 Zn 0.31913(13) 0.71384(9) 0.00092(2)
Zn18 Zn 0.39471(16) 0.68087(13) 0.00092(2)
Zn21_3 Zn 0.01420(13) 0.06138(9) 0.16575(2)
C134_3 C 0.0676(24) 0.3435(14) 0.0291(2)
C135_3 C 0.0574(20) 0.3232(14) 0.1376(2)
H109_3 H 0.0531 0.3108 0.0264
H110_3 H 0.0756 0.3559 0.1403
H114_3 H 0.0494 0.3573 0.0258
H115_3 H 0.0254 0.3094 0.1409
H119_3 H 0.0995 0.3610 0.0258
H120_3 H 0.0718 0.3057 0.1409
O25_2 O 0.3125(8) 0.5750(6) 0.99067(14)
O42_2 O 0.2444(7) 0.6118(4) 0.98948(16)
C25_2 C 0.4271(14) 0.6766(11) 0.0272(3)
C26_2 C 0.9062(14) 0.9162(8) 0.1395(3)
C30_2 C 0.4609(12) 0.6791(10) 0.03805(19)
C31_2 C 0.8724(12) 0.8849(7) 0.12862(19)
H22_2 H 0.4498 0.6733 0.0467
H23_2 H 0.8835 0.8902 0.1200
C35_2 C 0.4985(11) 0.6874(9) 0.03616(16)
C36_2 C 0.8348(11) 0.8556(6) 0.13051(16)
H27_2 H 0.5127 0.6975 0.0279
H28_2 H 0.8206 0.8515 0.1388
C40_2 C 0.5252(8) 0.6816(7) 0.04774(18)
C41_2 C 0.8081(8) 0.8231(4) 0.11893(18)
C45_2 C 0.5162(8) 0.6657(6) 0.0608(2)
C46_2 C 0.8171(8) 0.8162(5) 0.1059(2)
C48_3 C 0.9990(6) 0.1829(4) 0.1059(2)
H32_2 H 0.4863 0.6556 0.0645
H33_2 H 0.8470 0.8360 0.1022
H35_3 H 0.9889 0.1530 0.1022
C50_2 C 0.5518(13) 0.6649(11) 0.06831(9)
C51_2 C 0.7815(13) 0.7798(7) 0.09836(9)
C53_3 C 0.9982(11) 0.2185(8) 0.09836(9)
H37_2 H 0.5457 0.6542 0.0771
H38_2 H 0.7876 0.7752 0.0896
H40_3 H 0.9875 0.2124 0.0896
C55_2 C 0.5964(8) 0.6800(7) 0.06277(19)
C56_2 C 0.7369(8) 0.7503(4) 0.10390(19)
C60_2 C 0.6055(8) 0.6959(6) 0.0497(2)
C61_2 C 0.7278(8) 0.7571(5) 0.1170(2)
C65_2 C 0.5698(13) 0.6966(11) 0.04220(9)
C66_2 C 0.7635(13) 0.7935(7) 0.12447(9)
H42_2 H 0.5759 0.7073 0.0335
H43_2 H 0.7574 0.7981 0.1332
C70_2 C 0.6183(9) 0.6500(7) 0.08025(14)
C71_2 C 0.7150(9) 0.6984(5) 0.08642(14)
C73_3 C 0.9833(7) 0.2850(5) 0.08642(14)
H47_2 H 0.6098 0.6635 0.0877
H48_2 H 0.7235 0.7204 0.0790
H50_3 H 0.9968 0.2765 0.0790
H52_2 H 0.5912 0.6197 0.0777
H53_2 H 0.7421 0.6952 0.0890
H55_3 H 0.9530 0.2579 0.0890
C74_2 C 0.6667(10) 0.6461(7) 0.0833
C75_3 C 0.9794(7) 0.3333 0.0833
C77_2 C 0.6852(9) 0.6297(8) 0.07071(15)
C78_2 C 0.6481(9) 0.6112(5) 0.09596(15)
C79_3 C 0.9445(10) 0.3148(6) 0.07071(15)
C80_3 C 0.9630(8) 0.3519(6) 0.09596(15)
H57_2 H 0.7122 0.6257 0.0729
H58_2 H 0.6211 0.5802 0.0938
H59_3 H 0.9135 0.2878 0.0729
H60_3 H 0.9590 0.3789 0.0938
H62_2 H 0.6937 0.6520 0.0634
H63_2 H 0.6396 0.6250 0.1033
H64_3 H 0.9583 0.3063 0.0634
H65_3 H 0.9853 0.3604 0.1033
C82_2 C 0.6481(9) 0.5571(8) 0.05789(9)
C83_2 C 0.6852(9) 0.5757(3) 0.10878(9)
C84_3 C 0.9090(11) 0.3519(7) 0.05789(9)
C85_3 C 0.8904(8) 0.3148(7) 0.10878(9)
C87_2 C 0.6909(9) 0.5743(7) 0.05106(15)
C88_2 C 0.6424(9) 0.5501(5) 0.11561(15)
C89_3 C 0.8834(9) 0.3091(5) 0.05106(15)
C90_3 C 0.9076(7) 0.3576(5) 0.11561(15)
H67_2 H 0.7162 0.6047 0.0529
H68_2 H 0.6171 0.5552 0.1138
H69_3 H 0.8885 0.2838 0.0529
H70_3 H 0.9380 0.3829 0.1138
C92_2 C 0.6959(7) 0.5462(6) 0.04150(12)
C93_2 C 0.6374(7) 0.5170(4) 0.12517(12)
C94_3 C 0.8503(7) 0.3041(4) 0.04150(12)
C95_3 C 0.8795(6) 0.3626(4) 0.12517(12)
H72_2 H 0.7245 0.5576 0.0369
H73_2 H 0.6088 0.4998 0.1298
H74_3 H 0.8331 0.2755 0.0369
H75_3 H 0.8909 0.3912 0.1298
C97_2 C 0.6581(8) 0.5009(7) 0.03877(9)
C98_2 C 0.6752(8) 0.5095(3) 0.12790(9)
C99_3 C 0.8428(9) 0.3419(6) 0.03877(9)
C100_3 C 0.8342(7) 0.3248(6) 0.12790(9)
C102_2 C 0.6153(8) 0.4837(6) 0.04560(15)
C103_2 C 0.7180(8) 0.5351(5) 0.12107(15)
C104_3 C 0.8684(7) 0.3847(4) 0.04560(15)
C105_3 C 0.8170(6) 0.2820(4) 0.12107(15)
H77_2 H 0.5899 0.4532 0.0438
H78_2 H 0.7434 0.5300 0.1229
H79_3 H 0.8633 0.4101 0.0438
H80_3 H 0.7865 0.2566 0.1229
C107_2 C 0.6103(7) 0.5118(6) 0.05516(12)
C108_2 C 0.7230(7) 0.5682(4) 0.11151(12)
C109_3 C 0.9015(7) 0.3897(4) 0.05516(12)
C110_3 C 0.8451(6) 0.2770(4) 0.11151(12)
C112_2 C 0.5315(11) 0.4542(9) 0.06290(19)
C113_2 C 0.8018(11) 0.5894(6) 0.10377(19)
C114_3 C 0.9227(11) 0.4685(7) 0.06290(19)
C115_3 C 0.7875(9) 0.1982(7) 0.10377(19)
H82_2 H 0.5082 0.4561 0.0684
H83_2 H 0.8251 0.6146 0.0983
H84_3 H 0.9479 0.4918 0.0684
H85_3 H 0.7894 0.1749 0.0983
H87_2 H 0.5185 0.4435 0.0542
H88_2 H 0.8148 0.5917 0.1125
H89_3 H 0.9250 0.4815 0.0542
H90_3 H 0.7768 0.1852 0.1125
H92_2 H 0.5397 0.4321 0.0667
H93_2 H 0.7936 0.5591 0.1000
H94_3 H 0.8924 0.4603 0.0667
H95_3 H 0.7654 0.2064 0.1000
C117_2 C 0.6643(10) 0.4700(8) 0.02801(15)
C118_2 C 0.6690(10) 0.4724(6) 0.13866(15)
C119_3 C 0.8057(10) 0.3357(6) 0.02801(15)
C120_3 C 0.8033(8) 0.3310(6) 0.13866(15)
H97_2 H 0.6930 0.4803 0.0236
H98_2 H 0.6403 0.4540 0.1431
H99_3 H 0.7873 0.3070 0.0236
H100_3 H 0.8136 0.3597 0.1431
C122_2 C 0.6325(13) 0.4354(11) 0.02598(17)
C123_2 C 0.7008(13) 0.4696(7) 0.14069(17)
C124_3 C 0.8029(14) 0.3675(8) 0.02598(17)
C125_3 C 0.7687(11) 0.2992(8) 0.14069(17)
H102_2 H 0.6025 0.4240 0.0297
H103_2 H 0.7308 0.4882 0.1370
H104_3 H 0.8215 0.3975 0.0297
H105_3 H 0.7573 0.2692 0.1370
C127_2 C 0.6463(19) 0.4097(15) 0.01614(18)
C128_2 C 0.6870(19) 0.4301(12) 0.15053(18)
C129_3 C 0.7634(17) 0.3537(9) 0.01614(18)
C130_3 C 0.7430(15) 0.3130(9) 0.15053(18)
O12_2 O 0.9479(7) 0.9493(4) 0.13422(11)
O20_2 O 0.6875(8) 0.4250(6) 0.00933(14)
O21_2 O 0.6458(8) 0.4042(5) 0.15734(14)
O22_2 O 0.7375(7) 0.3125(4) 0.00933(14)
O23_3 O 0.7583(6) 0.3542(4) 0.15734(14)
O27_2 O 0.5750(6) 0.2625(5) 0.00933(14)
O29_2 O 0.4381(7) 0.6882(6) 0.01545(16)
O30_2 O 0.8952(7) 0.9168(4) 0.15122(16)
O37_2 O 0.6118(8) 0.3674(6) 0.01052(16)
O38_2 O 0.7215(8) 0.4223(5) 0.15615(16)
O39_2 O 0.7556(7) 0.3882(4) 0.01052(16)
O40_3 O 0.7007(6) 0.2785(4) 0.15615(16)
O43_2 O 0.6326(6) 0.2444(5) 0.01052(16)
O48_2 O 0.6377(7) 0.6827(6) 0.06924(12)
O49_2 O 0.6956(7) 0.7117(4) 0.09743(12)
O53_2 O 0.6418(7) 0.5838(6) 0.06791(11)
O54_2 O 0.6915(7) 0.6087(4) 0.09876(11)
O55_3 O 0.9420(7) 0.3582(4) 0.06791(11)
O56_3 O 0.9171(6) 0.3085(4) 0.09876(11)
O58_2 O 0.5749(10) 0.5022(9) 0.06196(15)
O59_2 O 0.7584(10) 0.5940(5) 0.10471(15)
O60_3 O 0.9273(11) 0.4251(7) 0.06196(15)
O61_3 O 0.8355(9) 0.2416(7) 0.10471(15)
O63_2 O 0.6540(9) 0.7227(7) 0.04402(18)
O64_2 O 0.6793(9) 0.7354(5) 0.12265(18)
Zn13_2 Zn 0.72804(16) 0.38051(9) 0.16759(2)
Zn14_2 Zn 0.61949(16) 0.34754(13) 0.16759(2)
Zn15_2 Zn 0.65246(13) 0.27196(9) 0.16759(2)
Zn20_2 Zn 0.93862(16) 0.95283(9) 0.16575(2)
C132_2 C 0.6565(24) 0.7241(20) 0.0291(2)
C133_2 C 0.6768(24) 0.7343(14) 0.1376(2)
H107_2 H 0.6892 0.7423 0.0264
H108_2 H 0.6441 0.7198 0.1403
H112_2 H 0.6427 0.6921 0.0258
H113_2 H 0.6906 0.7161 0.1409
H117_2 H 0.6390 0.7385 0.0258
H118_2 H 0.6943 0.7662 0.1409
C1_4 C 0.6766(11) 0.2495(8) 0.9728(3)
C2_4 C 0.6791(10) 0.2182(7) 0.96195(19)
H1_4 H 0.6733 0.2235 0.9533
C3_4 C 0.6874(9) 0.1889(6) 0.96384(16)
H2_4 H 0.6975 0.1848 0.9721
C4_4 C 0.6816(7) 0.1564(4) 0.95226(18)
C5_4 C 0.6657(6) 0.1495(5) 0.9392(2)
H3_4 H 0.6556 0.1693 0.9355
C6_4 C 0.6649(11) 0.1131(7) 0.93169(9)
H4_4 H 0.6542 0.1085 0.9229
C7_4 C 0.6800(7) 0.0836(4) 0.93723(19)
C8_4 C 0.6959(6) 0.0904(5) 0.9503(2)
C9_4 C 0.6966(11) 0.1268(7) 0.95780(9)
H5_4 H 0.7073 0.1314 0.9665
C10_4 C 0.6500(7) 0.0317(5) 0.91975(14)
H6_4 H 0.6635 0.0537 0.9123
H7_4 H 0.6197 0.0285 0.9223
O1_2 O 0.6680(6) 0.2826(4) 0.96755(11)
O3_2 O 0.6882(6) 0.2501(4) 0.98455(16)
O5_2 O 0.6666 0.3333 0.9925(2)
O6_4 O 0.6827(6) 0.0450(4) 0.93076(12)
O9_4 O 0.7227(7) 0.0687(5) 0.95598(18)
Zn1_2 Zn 0.6666 0.3333 0.97396(5)
Zn2_2 Zn 0.68087(13) 0.28616(9) 0.99908(2)
C23_4 C 0.7241(20) 0.0676(14) 0.9709(2)
H18_4 H 0.7423 0.0531 0.9736
H19_4 H 0.6921 0.0494 0.9742
H20_4 H 0.7385 0.0995 0.9742
C24_4 C 0.9162(14) 0.0099(11) 0.8605(3)
C29_4 C 0.8849(12) 0.0124(10) 0.87138(19)
H21_4 H 0.8902 0.0066 0.8800
C34_4 C 0.8556(11) 0.0207(9) 0.86949(16)
H26_4 H 0.8515 0.0308 0.8612
C39_4 C 0.8231(9) 0.0149(7) 0.88107(18)
C54_4 C 0.7503(9) 0.0133(7) 0.89610(19)
C59_4 C 0.7571(7) 0.0292(6) 0.8830(2)
C64_4 C 0.7935(14) 0.0299(11) 0.87553(9)
H41_4 H 0.7981 0.0406 0.8668
O10_4 O 0.9493(8) 0.0013(6) 0.86578(11)
O17_2 O 0.6146(7) 0.3320(6) 0.96755(11)
O18_2 O 0.7174(8) 0.3854(5) 0.96755(11)
O24 O 0.4250(6) 0.7375(5) 0.99067(14)
O28_4 O 0.9168(7) 0.0215(6) 0.84878(16)
O33_2 O 0.5619(7) 0.3118(6) 0.98455(16)
O34_2 O 0.7499(7) 0.4381(4) 0.98455(16)
O41_2 O 0.3882(8) 0.6326(6) 0.98948(16)
O47_4 O 0.7117(7) 0.0160(6) 0.90257(12)
O62_4 O 0.7354(9) 0.0560(7) 0.87735(18)
Zn4_4 Zn 1.0000 0.0000 0.85937(5)
Zn8_2 Zn 0.60529(16) 0.31913(13) 0.99908(2)
Zn9_2 Zn 0.71384(16) 0.39471(9) 0.99908(2)
Zn16_4 Zn 0.95283(16) 0.01420(13) 0.83425(2)
C131_4 C 0.7343(24) 0.0574(20) 0.8624(2)
H106_4 H 0.7198 0.0756 0.8597
H111_4 H 0.7161 0.0254 0.8591
H116_4 H 0.7662 0.0718 0.8591
O35_2 O 0.3118(6) 0.7499(4) 0.01545(16)
C11_4 C 0.6461(7) 0.9794(7) 0.9167
C12_4 C 0.6297(8) 0.9445(5) 0.92929(15)
H8_4 H 0.6257 0.9135 0.9271
H9_4 H 0.6520 0.9583 0.9366
C13_4 C 0.5571(8) 0.9090(3) 0.94211(9)
C14_4 C 0.5743(7) 0.8834(5) 0.94894(15)
H10_4 H 0.6047 0.8885 0.9471
C15_4 C 0.5462(6) 0.8503(4) 0.95850(12)
H11_4 H 0.5576 0.8331 0.9631
C16_4 C 0.5009(7) 0.8428(3) 0.96123(9)
C17_4 C 0.4837(6) 0.8684(5) 0.95440(15)
H12_4 H 0.4532 0.8633 0.9562
C18_4 C 0.5118(6) 0.9015(4) 0.94484(12)
C19_4 C 0.4542(9) 0.9227(6) 0.93710(19)
H13_4 H 0.4561 0.9479 0.9316
H14_4 H 0.4435 0.9250 0.9458
H15_4 H 0.4321 0.8924 0.9333
C20_4 C 0.4700(8) 0.8057(6) 0.97199(15)
H16_4 H 0.4803 0.7873 0.9764
C21_4 C 0.4354(11) 0.8029(7) 0.97402(17)
H17_4 H 0.4240 0.8215 0.9703
C22_4 C 0.4097(15) 0.7634(12) 0.98386(18)
O4_2 O 0.3674(6) 0.7556(5) 0.98948(16)
O7_4 O 0.5838(6) 0.9420(4) 0.93209(11)
O8_4 O 0.5022(9) 0.9273(5) 0.93804(15)
C44_4 C 0.8162(7) 0.9990(6) 0.8941(2)
H31_4 H 0.8360 0.9889 0.8978
C49_4 C 0.7798(14) 0.9982(11) 0.90164(9)
H36_4 H 0.7752 0.9875 0.9104
C69_4 C 0.6984(9) 0.9833(7) 0.91358(14)
H46_4 H 0.7204 0.9968 0.9210
H51_4 H 0.6952 0.9530 0.9110
C76_4 C 0.6112(10) 0.9630(8) 0.90404(15)
H56_4 H 0.5802 0.9590 0.9062
H61_4 H 0.6250 0.9853 0.8967
C81_4 C 0.5757(11) 0.8904(8) 0.89122(9)
C86_4 C 0.5501(9) 0.9076(7) 0.88439(15)
H66_4 H 0.5552 0.9380 0.8862
C91_4 C 0.5170(7) 0.8795(6) 0.87483(12)
H71_4 H 0.4998 0.8909 0.8702
C96_4 C 0.5095(9) 0.8342(7) 0.87210(9)
C101_4 C 0.5351(7) 0.8170(6) 0.87893(15)
H76_4 H 0.5300 0.7865 0.8771
C106_4 C 0.5682(7) 0.8451(6) 0.88849(12)
C111_4 C 0.5894(11) 0.7875(9) 0.89623(19)
H81_4 H 0.6146 0.7894 0.9017
H86_4 H 0.5917 0.7768 0.8875
H91_4 H 0.5591 0.7654 0.9000
C116_4 C 0.4724(10) 0.8033(8) 0.86134(15)
H96_4 H 0.4540 0.8136 0.8569
C121_4 C 0.4696(14) 0.7687(11) 0.85931(17)
H101_4 H 0.4882 0.7573 0.8630
C126_4 C 0.4301(17) 0.7430(15) 0.84947(18)
O19_4 O 0.4042(7) 0.7583(6) 0.84266(14)
O26_2 O 0.2625(7) 0.6875(4) 0.99067(14)
O36_4 O 0.4223(7) 0.7007(6) 0.84385(16)
O52_4 O 0.6087(7) 0.9171(6) 0.90124(11)
O57_4 O 0.5940(11) 0.8355(9) 0.89529(15)
Zn22_3 Zn 0.38051(16) 0.65246(13) 0.83241(2)
Zn23_2 Zn 0.34754(13) 0.72804(9) 0.83241(2)
C48_4 C 0.1838(5) 0.0010(6) 0.1059(2)
H35_4 H 0.1640 0.0111 0.1022
C53_4 C 0.2202(7) 0.0018(11) 0.09836(9)
H40_4 H 0.2248 0.0125 0.0896
C73_4 C 0.3016(5) 0.0167(7) 0.08642(14)
H50_4 H 0.2796 0.0032 0.0790
H55_4 H 0.3048 0.0470 0.0890
C75_4 C 0.3539(7) 0.0206(7) 0.0833
C79_4 C 0.3703(8) 0.0555(10) 0.07071(15)
C80_4 C 0.3888(5) 0.0370(8) 0.09596(15)
H59_4 H 0.3743 0.0865 0.0729
H60_4 H 0.4198 0.0410 0.0938
H64_4 H 0.3480 0.0417 0.0634
H65_4 H 0.3750 0.0147 0.1033
C84_4 C 0.4429(8) 0.0910(11) 0.05789(9)
C85_4 C 0.4243(3) 0.1096(8) 0.10878(9)
C89_4 C 0.4257(7) 0.1166(9) 0.05106(15)
C90_4 C 0.4499(5) 0.0924(7) 0.11561(15)
H69_4 H 0.3953 0.1115 0.0529
H70_4 H 0.4448 0.0620 0.1138
C94_4 C 0.4538(6) 0.1497(7) 0.04150(12)
C95_4 C 0.4830(4) 0.1205(6) 0.12517(12)
H74_4 H 0.4424 0.1669 0.0369
H75_4 H 0.5002 0.1091 0.1298
C99_4 C 0.4991(7) 0.1572(9) 0.03877(9)
C100_4 C 0.4905(3) 0.1658(7) 0.12790(9)
C104_4 C 0.5163(6) 0.1316(7) 0.04560(15)
C105_4 C 0.4649(5) 0.1830(6) 0.12107(15)
H79_4 H 0.5468 0.1367 0.0438
H80_4 H 0.4700 0.2135 0.1229
C109_4 C 0.4882(6) 0.0985(7) 0.05516(12)
C110_4 C 0.4318(4) 0.1549(6) 0.11151(12)
C114_4 C 0.5458(9) 0.0773(11) 0.06290(19)
C115_4 C 0.4106(6) 0.2125(9) 0.10377(19)
H84_4 H 0.5439 0.0521 0.0684
H85_4 H 0.3854 0.2106 0.0983
H89_4 H 0.5565 0.0750 0.0542
H90_4 H 0.4083 0.2232 0.1125
H94_4 H 0.5679 0.1076 0.0667
H95_4 H 0.4409 0.2346 0.1000
C119_4 C 0.5300(8) 0.1943(10) 0.02801(15)
C120_4 C 0.5276(6) 0.1967(8) 0.13866(15)
H99_4 H 0.5197 0.2127 0.0236
H100_4 H 0.5460 0.1864 0.1431
C124_4 C 0.5646(11) 0.1971(14) 0.02598(17)
C125_4 C 0.5304(7) 0.2313(11) 0.14069(17)
H104_4 H 0.5760 0.1785 0.0297
H105_4 H 0.5118 0.2427 0.1370
C129_4 C 0.5903(15) 0.2366(17) 0.01614(18)
C130_4 C 0.5699(12) 0.2570(15) 0.15053(18)
O23_4 O 0.5958(5) 0.2417(6) 0.15734(14)
O40_4 O 0.5777(5) 0.2993(6) 0.15615(16)
O55_4 O 0.4162(6) 0.0580(7) 0.06791(11)
O56_4 O 0.3913(4) 0.0829(6) 0.09876(11)
O60_4 O 0.4978(9) 0.0727(11) 0.06196(15)
O61_4 O 0.4060(5) 0.1645(9) 0.10471(15)
C1_5 C 0.5729(8) 0.3234(11) 0.9728(3)
C2_5 C 0.5391(7) 0.3209(10) 0.96195(19)
H1_5 H 0.5502 0.3267 0.9533
C3_5 C 0.5015(7) 0.3126(9) 0.96384(16)
H2_5 H 0.4873 0.3025 0.9721
C4_5 C 0.4748(6) 0.3184(7) 0.95226(18)
C5_5 C 0.4838(4) 0.3343(6) 0.9392(2)
H3_5 H 0.5137 0.3444 0.9355
C6_5 C 0.4482(8) 0.3351(11) 0.93169(9)
H4_5 H 0.4543 0.3458 0.9229
C7_5 C 0.4036(6) 0.3200(7) 0.93723(19)
C8_5 C 0.3945(4) 0.3041(6) 0.9503(2)
C9_5 C 0.4302(8) 0.3034(11) 0.95780(9)
H5_5 H 0.4241 0.2927 0.9665
C10_5 C 0.3817(5) 0.3500(7) 0.91975(14)
H6_5 H 0.3902 0.3365 0.9123
H7_5 H 0.4088 0.3803 0.9223
C11_5 C 0.3333 0.3539(7) 0.9167
C12_5 C 0.3148(6) 0.3703(8) 0.92929(15)
H8_5 H 0.2878 0.3743 0.9271
H9_5 H 0.3063 0.3480 0.9366
C13_5 C 0.3519(7) 0.4429(8) 0.94211(9)
C14_5 C 0.3091(5) 0.4257(7) 0.94894(15)
H10_5 H 0.2838 0.3953 0.9471
C15_5 C 0.3041(4) 0.4538(6) 0.95850(12)
H11_5 H 0.2755 0.4424 0.9631
C16_5 C 0.3419(6) 0.4991(7) 0.96123(9)
C17_5 C 0.3847(4) 0.5163(6) 0.95440(15)
H12_5 H 0.4101 0.5468 0.9562
C18_5 C 0.3897(4) 0.4882(6) 0.94484(12)
C19_5 C 0.4685(7) 0.5458(9) 0.93710(19)
H13_5 H 0.4918 0.5439 0.9316
H14_5 H 0.4815 0.5565 0.9458
H15_5 H 0.4603 0.5679 0.9333
C20_5 C 0.3357(6) 0.5300(8) 0.97199(15)
H16_5 H 0.3070 0.5197 0.9764
C21_5 C 0.3675(8) 0.5646(11) 0.97402(17)
H17_5 H 0.3975 0.5760 0.9703
C22_5 C 0.3537(9) 0.5903(15) 0.98386(18)
O6_5 O 0.3623(4) 0.3173(6) 0.93076(12)
O7_5 O 0.3582(4) 0.4162(6) 0.93209(11)
O8_5 O 0.4251(7) 0.4978(9) 0.93804(15)
O9_5 O 0.3460(5) 0.2773(7) 0.95598(18)
C23_5 C 0.3435(14) 0.2759(20) 0.9709(2)
H18_5 H 0.3108 0.2577 0.9736
H19_5 H 0.3573 0.3079 0.9742
H20_5 H 0.3610 0.2615 0.9742
C24_5 C 0.0938(8) 0.0838(14) 0.8605(3)
C29_5 C 0.1276(7) 0.1151(12) 0.87138(19)
H21_5 H 0.1165 0.1098 0.8800
C34_5 C 0.1652(7) 0.1444(11) 0.86949(16)
H26_5 H 0.1794 0.1485 0.8612
C39_5 C 0.1919(6) 0.1769(9) 0.88107(18)
C44_5 C 0.1829(4) 0.1838(7) 0.8941(2)
H31_5 H 0.1530 0.1640 0.8978
C49_5 C 0.2185(8) 0.2202(14) 0.90164(9)
H36_5 H 0.2124 0.2248 0.9104
C54_5 C 0.2631(6) 0.2497(9) 0.89610(19)
C59_5 C 0.2722(4) 0.2429(7) 0.8830(2)
C64_5 C 0.2365(8) 0.2065(14) 0.87553(9)
H41_5 H 0.2426 0.2019 0.8668
C69_5 C 0.2850(5) 0.3016(9) 0.91358(14)
H46_5 H 0.2765 0.2796 0.9210
H51_5 H 0.2579 0.3048 0.9110
C76_5 C 0.3519(6) 0.3888(10) 0.90404(15)
H56_5 H 0.3789 0.4198 0.9062
H61_5 H 0.3604 0.3750 0.8967
C81_5 C 0.3148(7) 0.4243(11) 0.89122(9)
C86_5 C 0.3576(5) 0.4499(9) 0.88439(15)
H66_5 H 0.3829 0.4448 0.8862
C91_5 C 0.3626(4) 0.4830(7) 0.87483(12)
H71_5 H 0.3912 0.5002 0.8702
C96_5 C 0.3248(6) 0.4905(9) 0.87210(9)
C101_5 C 0.2820(4) 0.4649(7) 0.87893(15)
H76_5 H 0.2566 0.4700 0.8771
C106_5 C 0.2770(4) 0.4318(7) 0.88849(12)
C111_5 C 0.1982(7) 0.4106(11) 0.89623(19)
H81_5 H 0.1749 0.3854 0.9017
H86_5 H 0.1852 0.4083 0.8875
H91_5 H 0.2064 0.4409 0.9000
C116_5 C 0.3310(6) 0.5276(10) 0.86134(15)
H96_5 H 0.3597 0.5460 0.8569
C121_5 C 0.2992(8) 0.5304(14) 0.85931(17)
H101_5 H 0.2692 0.5118 0.8630
C126_5 C 0.3130(9) 0.5699(17) 0.84947(18)
O10_5 O 0.0521(5) 0.0507(8) 0.86578(11)
O19_5 O 0.3542(4) 0.5958(7) 0.84266(14)
O28_5 O 0.1048(4) 0.0832(7) 0.84878(16)
O36_5 O 0.2785(4) 0.5777(7) 0.84385(16)
O47_5 O 0.3044(4) 0.2883(7) 0.90257(12)
O52_5 O 0.3085(4) 0.3913(7) 0.90124(11)
O57_5 O 0.2416(7) 0.4060(11) 0.89529(15)
O62_5 O 0.3207(5) 0.2646(9) 0.87735(18)
Zn4_5 Zn 0.0001 0.0000 0.85937(5)
Zn16_5 Zn 0.06138(9) 0.04717(16) 0.83425(2)
Zn22_4 Zn 0.27196(9) 0.61949(16) 0.83241(2)
C131_5 C 0.3232(14) 0.2657(24) 0.8624(2)
H106_5 H 0.3559 0.2802 0.8597
H111_5 H 0.3094 0.2839 0.8591
H116_5 H 0.3057 0.2338 0.8591
C27_4 C 0.3234(11) 0.7505(14) 0.0272(3)
C28_4 C 0.0838(8) 0.9901(11) 0.1395(3)
C32_4 C 0.3209(10) 0.7818(12) 0.03805(19)
C33_4 C 0.1151(7) 0.9876(10) 0.12862(19)
H24_4 H 0.3267 0.7765 0.0467
H25_4 H 0.1098 0.9934 0.1200
C37_4 C 0.3126(9) 0.8111(11) 0.03616(16)
C38_4 C 0.1444(6) 0.9793(9) 0.13051(16)
H29_4 H 0.3025 0.8152 0.0279
H30_4 H 0.1485 0.9692 0.1388
C42_4 C 0.3184(7) 0.8436(9) 0.04774(18)
C43_4 C 0.1769(4) 0.9851(7) 0.11893(18)
C47_4 C 0.3343(6) 0.8505(7) 0.0608(2)
H34_4 H 0.3444 0.8307 0.0645
C52_4 C 0.3351(11) 0.8869(14) 0.06831(9)
H39_4 H 0.3458 0.8915 0.0771
C57_4 C 0.3200(7) 0.9164(9) 0.06277(19)
C58_4 C 0.2497(4) 0.9867(7) 0.10390(19)
C62_4 C 0.3041(6) 0.9096(7) 0.0497(2)
C63_4 C 0.2429(5) 0.9708(6) 0.1170(2)
C67_4 C 0.3034(11) 0.8732(14) 0.04220(9)
C68_4 C 0.2065(7) 0.9701(11) 0.12447(9)
H44_4 H 0.2927 0.8686 0.0335
H45_4 H 0.2019 0.9594 0.1332
C72_4 C 0.3500(7) 0.9683(9) 0.08025(14)
H49_4 H 0.3365 0.9463 0.0877
H54_4 H 0.3803 0.9715 0.0777
O14_4 O 0.0507(4) 0.9987(6) 0.13422(11)
O32_4 O 0.0832(4) 0.9785(6) 0.15122(16)
O50_4 O 0.3173(6) 0.9550(7) 0.06924(12)
O51_4 O 0.2883(4) 0.9840(6) 0.09743(12)
O65_4 O 0.2773(7) 0.9313(9) 0.04402(18)
O66_4 O 0.2646(5) 0.9440(7) 0.12265(18)
Zn6_4 Zn 0.9999 1.0000 0.14063(5)
Zn21_4 Zn 0.04717(9) 0.98580(13) 0.16575(2)
C134_4 C 0.2759(20) 0.9324(24) 0.0291(2)
C135_4 C 0.2657(14) 0.9426(20) 0.1376(2)
H109_4 H 0.2577 0.9469 0.0264
H110_4 H 0.2802 0.9244 0.1403
H114_4 H 0.3079 0.9506 0.0258
H115_4 H 0.2839 0.9746 0.1409
H119_4 H 0.2615 0.9005 0.0258
H120_4 H 0.2338 0.9282 0.1409
Zn7_2 Zn 0.0000 0.0001 0.14063(5)
C11_6 C 0.0206(7) 0.6667 0.9167
C12_6 C 0.0555(5) 0.6852(6) 0.92929(15)
H8_6 H 0.0865 0.7122 0.9271
H9_6 H 0.0417 0.6937 0.9366
C13_6 C 0.0910(3) 0.6481(7) 0.94211(9)
C14_6 C 0.1166(5) 0.6909(5) 0.94894(15)
H10_6 H 0.1115 0.7162 0.9471
C15_6 C 0.1497(4) 0.6959(4) 0.95850(12)
H11_6 H 0.1669 0.7245 0.9631
C16_6 C 0.1572(3) 0.6581(6) 0.96123(9)
C17_6 C 0.1316(5) 0.6153(4) 0.95440(15)
H12_6 H 0.1367 0.5899 0.9562
C18_6 C 0.0985(4) 0.6103(4) 0.94484(12)
C19_6 C 0.0773(6) 0.5315(7) 0.93710(19)
H13_6 H 0.0521 0.5082 0.9316
H14_6 H 0.0750 0.5185 0.9458
H15_6 H 0.1076 0.5397 0.9333
C20_6 C 0.1943(6) 0.6643(6) 0.97199(15)
H16_6 H 0.2127 0.6930 0.9764
C21_6 C 0.1971(7) 0.6325(8) 0.97402(17)
H17_6 H 0.1785 0.6025 0.9703
C22_6 C 0.2366(12) 0.6463(9) 0.98386(18)
O7_6 O 0.0580(4) 0.6418(4) 0.93209(11)
O8_6 O 0.0727(5) 0.5749(7) 0.93804(15)
C44_6 C 0.0010(6) 0.8171(4) 0.8941(2)
H31_6 H 0.0111 0.8470 0.8978
C49_6 C 0.0018(11) 0.7815(8) 0.90164(9)
H36_6 H 0.0125 0.7876 0.9104
C69_6 C 0.0167(7) 0.7150(5) 0.91358(14)
H46_6 H 0.0032 0.7235 0.9210
H51_6 H 0.0470 0.7421 0.9110
C76_6 C 0.0370(8) 0.6481(6) 0.90404(15)
H56_6 H 0.0410 0.6211 0.9062
H61_6 H 0.0147 0.6396 0.8967
C81_6 C 0.1096(8) 0.6852(7) 0.89122(9)
C86_6 C 0.0924(7) 0.6424(5) 0.88439(15)
H66_6 H 0.0620 0.6171 0.8862
C91_6 C 0.1205(6) 0.6374(4) 0.87483(12)
H71_6 H 0.1091 0.6088 0.8702
C96_6 C 0.1658(7) 0.6752(6) 0.87210(9)
C101_6 C 0.1830(6) 0.7180(4) 0.87893(15)
H76_6 H 0.2135 0.7434 0.8771
C106_6 C 0.1549(6) 0.7230(4) 0.88849(12)
C111_6 C 0.2125(9) 0.8018(7) 0.89623(19)
H81_6 H 0.2106 0.8251 0.9017
H86_6 H 0.2232 0.8148 0.8875
H91_6 H 0.2346 0.7936 0.9000
C116_6 C 0.1967(8) 0.6690(6) 0.86134(15)
H96_6 H 0.1864 0.6403 0.8569
C121_6 C 0.2313(11) 0.7008(8) 0.85931(17)
H101_6 H 0.2427 0.7308 0.8630
C126_6 C 0.2570(15) 0.6870(9) 0.84947(18)
O19_6 O 0.2417(6) 0.6458(4) 0.84266(14)
O36_6 O 0.2993(6) 0.7215(4) 0.84385(16)
O52_6 O 0.0829(6) 0.6915(4) 0.90124(11)
O57_6 O 0.1645(9) 0.7584(7) 0.89529(15)
C1_6 C 0.7505(8) 0.4271(8) 0.9728(3)
C2_6 C 0.7818(7) 0.4609(7) 0.96195(19)
H1_6 H 0.7765 0.4498 0.9533
C3_6 C 0.8111(6) 0.4985(7) 0.96384(16)
H2_6 H 0.8152 0.5127 0.9721
C4_6 C 0.8436(4) 0.5252(6) 0.95226(18)
C5_6 C 0.8505(5) 0.5162(4) 0.9392(2)
H3_6 H 0.8307 0.4863 0.9355
C6_6 C 0.8869(7) 0.5518(8) 0.93169(9)
H4_6 H 0.8915 0.5457 0.9229
C7_6 C 0.9164(4) 0.5964(6) 0.93723(19)
C8_6 C 0.9096(5) 0.6055(4) 0.9503(2)
C9_6 C 0.8732(7) 0.5698(8) 0.95780(9)
H5_6 H 0.8686 0.5759 0.9665
C10_6 C 0.9683(5) 0.6183(5) 0.91975(14)
H6_6 H 0.9463 0.6098 0.9123
H7_6 H 0.9715 0.5912 0.9223
O6_6 O 0.9550(4) 0.6377(4) 0.93076(12)
O9_6 O 0.9313(5) 0.6540(5) 0.95598(18)
C23_6 C 0.9324(14) 0.6565(14) 0.9709(2)
H18_6 H 0.9469 0.6892 0.9736
H19_6 H 0.9506 0.6427 0.9742
H20_6 H 0.9005 0.6390 0.9742
C24_6 C 0.9901(11) 0.9062(8) 0.8605(3)
C29_6 C 0.9876(10) 0.8724(7) 0.87138(19)
H21_6 H 0.9934 0.8835 0.8800
C34_6 C 0.9793(9) 0.8348(7) 0.86949(16)
H26_6 H 0.9692 0.8206 0.8612
C39_6 C 0.9851(7) 0.8081(6) 0.88107(18)
C54_6 C 0.9867(7) 0.7369(6) 0.89610(19)
C59_6 C 0.9708(6) 0.7278(4) 0.8830(2)
C64_6 C 0.9701(11) 0.7635(8) 0.87553(9)
H41_6 H 0.9594 0.7574 0.8668
O10_6 O 0.9987(6) 0.9479(5) 0.86578(11)
O28_6 O 0.9785(6) 0.8952(4) 0.84878(16)
O47_6 O 0.9840(6) 0.6956(4) 0.90257(12)
O62_6 O 0.9440(7) 0.6793(5) 0.87735(18)
Zn4_6 Zn 1.0000 0.9999 0.85937(5)
Zn16_6 Zn 0.98580(13) 0.93862(9) 0.83425(2)
C131_6 C 0.9426(20) 0.6768(14) 0.8624(2)
H106_6 H 0.9244 0.6441 0.8597
H111_6 H 0.9746 0.6906 0.8591
H116_6 H 0.9282 0.6943 0.8591
C28_5 C 0.5828(8) 0.2396(8) 0.6939(3)
C33_5 C 0.5515(7) 0.2058(7) 0.70472(19)
H25_5 H 0.5568 0.2169 0.7134
C38_5 C 0.5222(6) 0.1682(7) 0.70283(16)
H30_5 H 0.5181 0.1540 0.6946
C43_5 C 0.4897(4) 0.1415(6) 0.71441(18)
C48_5 C 0.4828(5) 0.1505(4) 0.7275(2)
H35_5 H 0.5026 0.1804 0.7312
C53_5 C 0.4464(7) 0.1149(8) 0.73498(9)
H40_5 H 0.4418 0.1210 0.7438
C58_5 C 0.4169(4) 0.0703(6) 0.72944(19)
C63_5 C 0.4237(5) 0.0612(4) 0.7164(2)
C68_5 C 0.4601(7) 0.0969(8) 0.70887(9)
H45_5 H 0.4647 0.0908 0.7002
C73_5 C 0.3650(5) 0.0484(5) 0.74692(14)
H50_5 H 0.3870 0.0569 0.7544
H55_5 H 0.3618 0.0755 0.7444
C75_5 C 0.3128(7) 0.0000 0.7500
C79_5 C 0.2964(8) 0.0185(6) 0.76262(15)
H59_5 H 0.2924 0.0455 0.7604
H64_5 H 0.3187 0.0270 0.7699
C85_5 C 0.2423(3) 0.0186(7) 0.72456(9)
C89_5 C 0.2410(7) 0.0242(5) 0.78227(15)
H69_5 H 0.2714 0.0495 0.7804
C94_5 C 0.2129(6) 0.0292(4) 0.79183(12)
H74_5 H 0.2243 0.0578 0.7964
C100_5 C 0.1761(3) 0.0086(6) 0.70544(9)
C105_5 C 0.2017(5) 0.0514(4) 0.71227(15)
H80_5 H 0.1966 0.0768 0.7105
C110_5 C 0.2348(4) 0.0564(4) 0.72183(12)
C115_5 C 0.2560(6) 0.1352(7) 0.72957(19)
H85_5 H 0.2812 0.1585 0.7351
H90_5 H 0.2583 0.1482 0.7209
H95_5 H 0.2257 0.1270 0.7334
C120_5 C 0.1390(6) 0.0024(6) 0.69468(15)
H99_5 H 0.1470 0.0263 0.8097
C125_5 C 0.1362(7) 0.0342(8) 0.69265(17)
H105_5 H 0.1548 0.0642 0.6964
C130_5 C 0.0967(12) 0.0204(9) 0.68281(18)
O14_5 O 0.6159(4) 0.2813(5) 0.69912(11)
O22_3 O 0.0917(6) 0.0208(4) 0.82400(14)
O32_5 O 0.5834(4) 0.2286(4) 0.68212(16)
O35_3 O 0.2286(4) 0.5834(4) 0.81788(16)
O40_5 O 0.0889(5) 0.0549(4) 0.67719(16)
O43_3 O 0.0549(4) 0.0889(5) 0.82281(16)
O46_2 O 0.3334 0.6667 0.8258(2)
O51_5 O 0.3783(4) 0.0290(4) 0.73591(12)
O56_5 O 0.2753(4) 0.0249(4) 0.73458(11)
O61_5 O 0.2606(5) 0.0918(7) 0.72863(15)
O66_5 O 0.4020(5) 0.0127(5) 0.71069(18)
Zn7_3 Zn 0.6667 0.3334 0.69271(5)
C135_5 C 0.4009(14) 0.0102(14) 0.6958(2)
H109_5 H 0.4090 0.0225 0.8069
H115_5 H 0.3827 0.0240 0.6925
H120_5 H 0.4328 0.0277 0.6925
C27_5 C 0.3433(11) 0.7604(8) 0.8061(3)
C32_5 C 0.3458(10) 0.7942(7) 0.79528(19)
H24_5 H 0.3400 0.7831 0.7866
C37_5 C 0.3541(9) 0.8318(7) 0.79717(16)
H29_5 H 0.3642 0.8460 0.8054
C42_5 C 0.3483(7) 0.8585(6) 0.78559(18)
C47_5 C 0.3324(6) 0.8495(4) 0.7725(2)
H34_5 H 0.3223 0.8196 0.7688
C52_5 C 0.3316(11) 0.8851(8) 0.76502(9)
H39_5 H 0.3209 0.8790 0.7562
C57_5 C 0.3467(7) 0.9297(6) 0.77056(19)
C62_5 C 0.3626(6) 0.9388(4) 0.7836(2)
C67_5 C 0.3633(11) 0.9031(8) 0.79113(9)
H44_5 H 0.3740 0.9092 0.7998
C72_5 C 0.3167(7) 0.9516(5) 0.75308(14)
H49_5 H 0.3302 0.9431 0.7456
H54_5 H 0.2864 0.9245 0.7556
C80_5 C 0.2778(5) 0.9815(6) 0.73738(15)
H60_5 H 0.2468 0.9545 0.7396
H65_5 H 0.2916 0.9730 0.7301
C84_5 C 0.2238(8) 0.9814(7) 0.77544(9)
C90_5 C 0.2167(5) 0.9758(5) 0.71773(15)
H70_5 H 0.2218 0.9505 0.7196
C95_5 C 0.1836(4) 0.9708(4) 0.70817(12)
H75_5 H 0.1664 0.9422 0.7036
C99_5 C 0.1676(7) 0.9914(6) 0.79456(9)
C104_5 C 0.1504(6) 0.9486(4) 0.78773(15)
H79_5 H 0.1199 0.9232 0.7895
C109_5 C 0.1785(6) 0.9436(4) 0.77817(12)
C114_5 C 0.1209(9) 0.8648(7) 0.77043(19)
H84_5 H 0.1228 0.8415 0.7649
H89_5 H 0.1102 0.8518 0.7791
H94_5 H 0.0988 0.8730 0.7666
C119_5 C 0.1367(8) 0.9976(6) 0.80532(15)
H100_5 H 0.1206 0.9737 0.6903
C124_5 C 0.1021(11) 0.9658(8) 0.80735(17)
H104_5 H 0.0907 0.9358 0.8036
C129_5 C 0.0764(15) 0.9796(9) 0.81719(18)
O13_3 O 0.3347(6) 0.7187(5) 0.80088(11)
O15_3 O 0.2813(5) 0.6159(4) 0.80088(11)
O16_3 O 0.3841(4) 0.6653(6) 0.80088(11)
O23_5 O 0.0708(5) 0.9792(4) 0.67600(14)
O31_3 O 0.3549(6) 0.7714(4) 0.81788(16)
O39_3 O 0.0341(6) 0.9451(4) 0.82281(16)
O50_5 O 0.3494(6) 0.9710(4) 0.76409(12)
O55_5 O 0.2505(6) 0.9751(4) 0.76542(11)
O60_5 O 0.1689(9) 0.9082(7) 0.77137(15)
O65_5 O 0.3894(7) 0.9873(5) 0.78931(18)
Zn3_3 Zn 0.3333 0.6666 0.80729(5)
C134_5 C 0.3908(20) 0.9898(14) 0.8042(2)
H110_5 H 0.3864 0.9775 0.6931
H114_5 H 0.3588 0.9760 0.8075
H119_5 H 0.4052 0.9723 0.8075
O5_3 O 1.0000 0.0000 0.8408(2)
O27_3 O 0.9792(4) 0.0708(5) 0.82400(14)
C25_3 C 0.4172(8) 0.6567(11) 0.8061(3)
C26_3 C 0.6567(11) 0.4172(8) 0.6939(3)
C30_3 C 0.4485(7) 0.6542(10) 0.79528(19)
C31_3 C 0.6542(10) 0.4485(7) 0.70472(19)
H22_3 H 0.4432 0.6600 0.7866
H23_3 H 0.6600 0.4432 0.7134
C35_3 C 0.4778(6) 0.6459(9) 0.79717(16)
C36_3 C 0.6459(9) 0.4778(6) 0.70283(16)
H27_3 H 0.4819 0.6358 0.8054
H28_3 H 0.6358 0.4819 0.6946
C40_3 C 0.5103(4) 0.6517(7) 0.78559(18)
C41_3 C 0.6517(7) 0.5103(4) 0.71441(18)
C45_3 C 0.5172(5) 0.6676(6) 0.7725(2)
C46_3 C 0.6676(6) 0.5172(5) 0.7275(2)
H32_3 H 0.4974 0.6777 0.7688
H33_3 H 0.6777 0.4974 0.7312
C50_3 C 0.5536(7) 0.6684(11) 0.76502(9)
C51_3 C 0.6684(11) 0.5536(7) 0.73498(9)
H37_3 H 0.5582 0.6791 0.7562
H38_3 H 0.6791 0.5582 0.7438
C55_3 C 0.5831(4) 0.6533(7) 0.77056(19)
C56_3 C 0.6533(7) 0.5831(4) 0.72944(19)
C60_3 C 0.5763(5) 0.6374(6) 0.7836(2)
C61_3 C 0.6374(6) 0.5763(5) 0.7164(2)
C65_3 C 0.5399(7) 0.6367(11) 0.79113(9)
C66_3 C 0.6367(11) 0.5399(7) 0.70887(9)
H42_3 H 0.5353 0.6260 0.7998
H43_3 H 0.6260 0.5353 0.7002
C70_3 C 0.6350(5) 0.6833(7) 0.75308(14)
C71_3 C 0.6833(7) 0.6350(5) 0.74692(14)
H47_3 H 0.6130 0.6698 0.7456
H48_3 H 0.6698 0.6130 0.7544
H52_3 H 0.6382 0.7136 0.7556
H53_3 H 0.7136 0.6382 0.7444
C74_3 C 0.6873(7) 0.6872(7) 0.7500
C77_3 C 0.7222(5) 0.7036(8) 0.76262(15)
C78_3 C 0.7036(8) 0.7222(5) 0.73738(15)
H57_3 H 0.7532 0.7076 0.7604
H58_3 H 0.7076 0.7532 0.7396
H62_3 H 0.7084 0.6813 0.7699
H63_3 H 0.6813 0.7084 0.7301
C82_3 C 0.7577(3) 0.7762(8) 0.77544(9)
C83_3 C 0.7762(8) 0.7577(3) 0.72456(9)
C87_3 C 0.7833(5) 0.7590(7) 0.78227(15)
C88_3 C 0.7590(7) 0.7833(5) 0.71773(15)
H67_3 H 0.7782 0.7286 0.7804
H68_3 H 0.7286 0.7782 0.7196
C92_3 C 0.8164(4) 0.7871(6) 0.79183(12)
C93_3 C 0.7871(6) 0.8164(4) 0.70817(12)
H72_3 H 0.8336 0.7757 0.7964
H73_3 H 0.7757 0.8336 0.7036
C97_3 C 0.8239(3) 0.8324(7) 0.79456(9)
C98_3 C 0.8324(7) 0.8239(3) 0.70544(9)
C102_3 C 0.7983(5) 0.8496(6) 0.78773(15)
C103_3 C 0.8496(6) 0.7983(5) 0.71227(15)
H77_3 H 0.8034 0.8801 0.7895
H78_3 H 0.8801 0.8034 0.7105
C107_3 C 0.7652(4) 0.8215(6) 0.77817(12)
C108_3 C 0.8215(6) 0.7652(4) 0.72183(12)
C112_3 C 0.7440(6) 0.8791(9) 0.77043(19)
C113_3 C 0.8791(9) 0.7440(6) 0.72957(19)
H82_3 H 0.7188 0.8772 0.7649
H83_3 H 0.8772 0.7188 0.7351
H87_3 H 0.7417 0.8898 0.7791
H88_3 H 0.8898 0.7417 0.7209
H92_3 H 0.7743 0.9012 0.7666
H93_3 H 0.9012 0.7743 0.7334
C117_3 C 0.8610(6) 0.8633(8) 0.80532(15)
C118_3 C 0.8633(8) 0.8610(6) 0.69468(15)
H97_3 H 0.8794 0.8530 0.8097
H98_3 H 0.8530 0.8794 0.6903
C122_3 C 0.8638(7) 0.8979(11) 0.80735(17)
C123_3 C 0.8979(11) 0.8638(7) 0.69265(17)
H102_3 H 0.8452 0.9093 0.8036
H103_3 H 0.9093 0.8452 0.6964
C127_3 C 0.9033(12) 0.9236(15) 0.81719(18)
C128_3 C 0.9236(15) 0.9033(12) 0.68281(18)
O12_3 O 0.6653(6) 0.3841(4) 0.69912(11)
O20_3 O 0.9292(5) 0.9083(6) 0.82400(14)
O21_3 O 0.9083(6) 0.9292(5) 0.67600(14)
O29_3 O 0.4166(4) 0.6451(6) 0.81788(16)
O30_3 O 0.6451(6) 0.4166(4) 0.68212(16)
O37_3 O 0.9111(5) 0.9659(6) 0.82281(16)
O38_3 O 0.9659(6) 0.9111(5) 0.67719(16)
O48_3 O 0.6217(4) 0.6506(6) 0.76409(12)
O49_3 O 0.6506(6) 0.6217(4) 0.73591(12)
O53_3 O 0.7247(4) 0.7495(6) 0.76542(11)
O54_3 O 0.7495(6) 0.7247(4) 0.73458(11)
O58_3 O 0.7394(5) 0.8311(9) 0.77137(15)
O59_3 O 0.8311(9) 0.7394(5) 0.72863(15)
O63_3 O 0.5980(5) 0.6106(7) 0.78931(18)
O64_3 O 0.6106(7) 0.5980(5) 0.71069(18)
C132_3 C 0.5991(14) 0.6092(20) 0.8042(2)
C133_3 C 0.6092(20) 0.5991(14) 0.6958(2)
H107_3 H 0.6136 0.5910 0.8069
H108_3 H 0.5910 0.6136 0.6931
H112_3 H 0.6173 0.6412 0.8075
H113_3 H 0.6412 0.6173 0.6925
H117_3 H 0.5672 0.5948 0.8075
H118_3 H 0.5948 0.5672 0.6925
C27_6 C 0.2396(8) 0.5828(14) 0.8061(3)
C32_6 C 0.2058(7) 0.5515(12) 0.79528(19)
H24_6 H 0.2169 0.5568 0.7866
C37_6 C 0.1682(7) 0.5222(11) 0.79717(16)
H29_6 H 0.1540 0.5181 0.8054
C42_6 C 0.1415(6) 0.4897(9) 0.78559(18)
C47_6 C 0.1505(4) 0.4828(7) 0.7725(2)
H34_6 H 0.1804 0.5026 0.7688
C52_6 C 0.1149(8) 0.4464(14) 0.76502(9)
H39_6 H 0.1210 0.4418 0.7562
C57_6 C 0.0703(6) 0.4169(9) 0.77056(19)
C62_6 C 0.0612(4) 0.4237(7) 0.7836(2)
C67_6 C 0.0969(8) 0.4601(14) 0.79113(9)
H44_6 H 0.0908 0.4647 0.7998
C72_6 C 0.0484(5) 0.3650(9) 0.75308(14)
H49_6 H 0.0569 0.3870 0.7456
H54_6 H 0.0755 0.3618 0.7556
C80_6 C 0.0185(6) 0.2964(8) 0.73738(15)
H60_6 H 0.0455 0.2924 0.7396
H65_6 H 0.0270 0.3187 0.7301
C84_6 C 0.0186(7) 0.2423(11) 0.77544(9)
C90_6 C 0.0242(5) 0.2410(7) 0.71773(15)
H70_6 H 0.0495 0.2714 0.7196
C95_6 C 0.0292(4) 0.2129(6) 0.70817(12)
H75_6 H 0.0578 0.2243 0.7036
C99_6 C 0.0086(6) 0.1761(9) 0.79456(9)
C104_6 C 0.0514(4) 0.2017(7) 0.78773(15)
H79_6 H 0.0768 0.1966 0.7895
C109_6 C 0.0564(4) 0.2348(7) 0.77817(12)
C114_6 C 0.1352(7) 0.2560(11) 0.77043(19)
H84_6 H 0.1585 0.2812 0.7649
H89_6 H 0.1482 0.2583 0.7791
H94_6 H 0.1270 0.2257 0.7666
C119_6 C 0.0024(6) 0.1390(10) 0.80532(15)
H100_6 H 0.0263 0.1470 0.6903
C124_6 C 0.0342(8) 0.1362(14) 0.80735(17)
H104_6 H 0.0642 0.1548 0.8036
C129_6 C 0.0204(9) 0.0967(17) 0.81719(18)
O23_6 O 0.0208(4) 0.0917(6) 0.67600(14)
O50_6 O 0.0290(4) 0.3783(7) 0.76409(12)
O55_6 O 0.0249(4) 0.2753(7) 0.76542(11)
O60_6 O 0.0918(7) 0.2606(11) 0.77137(15)
O65_6 O 0.0127(5) 0.4020(9) 0.78931(18)
C134_6 C 0.0102(14) 0.4009(24) 0.8042(2)
H110_6 H 0.0225 0.4090 0.6931
H114_6 H 0.0240 0.3827 0.8075
H119_6 H 0.0277 0.4328 0.8075
C28_6 C 0.7604(8) 0.3433(11) 0.6939(3)
C33_6 C 0.7942(7) 0.3458(10) 0.70472(19)
H25_6 H 0.7831 0.3400 0.7134
C38_6 C 0.8318(7) 0.3541(9) 0.70283(16)
H30_6 H 0.8460 0.3642 0.6946
C43_6 C 0.8585(6) 0.3483(7) 0.71441(18)
C48_6 C 0.8495(4) 0.3324(6) 0.7275(2)
H35_6 H 0.8196 0.3223 0.7312
C53_6 C 0.8851(8) 0.3316(11) 0.73498(9)
H40_6 H 0.8790 0.3209 0.7438
C58_6 C 0.9297(6) 0.3467(7) 0.72944(19)
C63_6 C 0.9388(4) 0.3626(6) 0.7164(2)
C68_6 C 0.9031(8) 0.3633(11) 0.70887(9)
H45_6 H 0.9092 0.3740 0.7002
C73_6 C 0.9516(5) 0.3167(7) 0.74692(14)
H50_6 H 0.9431 0.3302 0.7544
H55_6 H 0.9245 0.2864 0.7444
C75_6 C 1.0000 0.3127(7) 0.7500
C79_6 C 0.9815(6) 0.2778(10) 0.76262(15)
H59_6 H 0.9545 0.2468 0.7604
H64_6 H 0.9730 0.2916 0.7699
C85_6 C 0.9814(7) 0.2238(8) 0.72456(9)
C89_6 C 0.9758(5) 0.2167(9) 0.78227(15)
H69_6 H 0.9505 0.2218 0.7804
C94_6 C 0.9708(4) 0.1836(7) 0.79183(12)
H74_6 H 0.9422 0.1664 0.7964
C100_6 C 0.9914(6) 0.1676(7) 0.70544(9)
C105_6 C 0.9486(4) 0.1504(6) 0.71227(15)
H80_6 H 0.9232 0.1199 0.7105
C110_6 C 0.9436(4) 0.1785(6) 0.72183(12)
C115_6 C 0.8648(7) 0.1209(9) 0.72957(19)
H85_6 H 0.8415 0.1228 0.7351
H90_6 H 0.8518 0.1102 0.7209
H95_6 H 0.8730 0.0988 0.7334
C120_6 C 0.9976(6) 0.1367(8) 0.69468(15)
H99_6 H 0.9737 0.1206 0.8097
C125_6 C 0.9658(8) 0.1021(11) 0.69265(17)
H105_6 H 0.9358 0.0907 0.6964
C130_6 C 0.9796(9) 0.0764(15) 0.68281(18)
O14_6 O 0.7187(5) 0.3347(6) 0.69912(11)
O32_6 O 0.7714(4) 0.3549(6) 0.68212(16)
O40_6 O 0.9451(4) 0.0341(6) 0.67719(16)
O51_6 O 0.9710(4) 0.3494(6) 0.73591(12)
O56_6 O 0.9751(4) 0.2505(6) 0.73458(11)
O61_6 O 0.9082(7) 0.1689(9) 0.72863(15)
O66_6 O 0.9873(5) 0.3894(7) 0.71069(18)
C135_6 C 0.9898(14) 0.3908(20) 0.6958(2)
H109_6 H 0.9775 0.3864 0.8069
H115_6 H 0.9760 0.3588 0.6925
H120_6 H 0.9723 0.4052 0.6925
O5_4 O 1.0000 0.9999 0.8408(2)
O5_5 O 0.0001 0.0000 0.8408(2)
O24_2 O 0.0917(6) 0.0708(5) 0.32400(14)
O44_2 O 1.0000 0.0000 0.3408(2)
O45 O 0.0001 0.0000 0.3408(2)
C1_7 C 0.3433(11) 0.5828(8) 0.3061(3)
C2_7 C 0.3458(10) 0.5515(7) 0.29528(19)
H1_7 H 0.3400 0.5568 0.2866
C3_7 C 0.3541(9) 0.5222(6) 0.29717(16)
H2_7 H 0.3642 0.5181 0.3054
C4_7 C 0.3483(7) 0.4897(4) 0.28559(18)
C5_7 C 0.3324(6) 0.4828(5) 0.2725(2)
H3_7 H 0.3223 0.5026 0.2688
C6_7 C 0.3316(11) 0.4464(7) 0.26502(9)
H4_7 H 0.3209 0.4418 0.2562
C7_7 C 0.3467(7) 0.4169(4) 0.27056(19)
C8_7 C 0.3626(6) 0.4237(5) 0.2836(2)
C9_7 C 0.3633(11) 0.4601(7) 0.29113(9)
H5_7 H 0.3740 0.4647 0.2998
C10_7 C 0.3167(7) 0.3650(5) 0.25308(14)
H6_7 H 0.3302 0.3870 0.2456
H7_7 H 0.2864 0.3618 0.2556
C11_7 C 0.3128(7) 0.3127(7) 0.2500
C12_7 C 0.2964(8) 0.2778(5) 0.26262(15)
H8_7 H 0.2924 0.2468 0.2604
H9_7 H 0.3187 0.2916 0.2699
C13_7 C 0.2238(8) 0.2423(3) 0.27544(9)
C14_7 C 0.2410(7) 0.2167(5) 0.28227(15)
H10_7 H 0.2714 0.2218 0.2804
C15_7 C 0.2129(6) 0.1836(4) 0.29183(12)
H11_7 H 0.2243 0.1664 0.2964
C16_7 C 0.1676(7) 0.1761(3) 0.29456(9)
C17_7 C 0.1504(6) 0.2017(5) 0.28773(15)
H12_7 H 0.1199 0.1966 0.2895
C18_7 C 0.1785(6) 0.2348(4) 0.27817(12)
C19_7 C 0.1209(9) 0.2560(6) 0.27043(19)
H13_7 H 0.1228 0.2812 0.2649
H14_7 H 0.1102 0.2583 0.2791
H15_7 H 0.0988 0.2257 0.2666
C20_7 C 0.1367(8) 0.1390(6) 0.30532(15)
H16_7 H 0.1470 0.1206 0.3097
C21_7 C 0.1021(11) 0.1362(7) 0.30735(17)
H17_7 H 0.0907 0.1548 0.3036
C22_7 C 0.0764(15) 0.0967(12) 0.31719(18)
O1_3 O 0.3347(6) 0.6159(4) 0.30088(11)
O3_3 O 0.3549(6) 0.5834(4) 0.31788(16)
O4_3 O 0.0341(6) 0.0889(5) 0.32281(16)
O5_6 O 0.3333 0.6666 0.3258(2)
O6_7 O 0.3494(6) 0.3783(4) 0.26409(12)
O7_7 O 0.2505(6) 0.2753(4) 0.26542(11)
O8_7 O 0.1689(9) 0.2606(5) 0.27137(15)
O9_7 O 0.3894(7) 0.4020(5) 0.28931(18)
Zn1_3 Zn 0.3333 0.6666 0.30729(5)
C23_7 C 0.3908(20) 0.4009(14) 0.3042(2)
H18_7 H 0.4090 0.3864 0.3069
H19_7 H 0.3588 0.3827 0.3075
H20_7 H 0.4052 0.4328 0.3075
C24_7 C 0.5828(14) 0.3433(11) 0.1939(3)
C29_7 C 0.5515(12) 0.3458(10) 0.20472(19)
H21_7 H 0.5568 0.3400 0.2134
C34_7 C 0.5222(11) 0.3541(9) 0.20283(16)
H26_7 H 0.5181 0.3642 0.1946
C39_7 C 0.4897(9) 0.3483(7) 0.21441(18)
C44_7 C 0.4828(7) 0.3324(6) 0.2275(2)
H31_7 H 0.5026 0.3223 0.2312
C49_7 C 0.4464(14) 0.3316(11) 0.23498(9)
H36_7 H 0.4418 0.3209 0.2438
C54_7 C 0.4169(9) 0.3467(7) 0.22944(19)
C59_7 C 0.4237(7) 0.3626(6) 0.2164(2)
C64_7 C 0.4601(14) 0.3633(11) 0.20887(9)
H41_7 H 0.4647 0.3740 0.2002
C69_7 C 0.3650(9) 0.3167(7) 0.24692(14)
H46_7 H 0.3870 0.3302 0.2544
H51_7 H 0.3618 0.2864 0.2444
C76_7 C 0.2778(10) 0.2964(8) 0.23738(15)
H56_7 H 0.2468 0.2924 0.2396
H61_7 H 0.2916 0.3187 0.2301
C81_7 C 0.2423(11) 0.2238(8) 0.22456(9)
C86_7 C 0.2167(9) 0.2410(7) 0.21773(15)
H66_7 H 0.2218 0.2714 0.2196
C91_7 C 0.1836(7) 0.2129(6) 0.20817(12)
H71_7 H 0.1664 0.2243 0.2036
C96_7 C 0.1761(9) 0.1676(7) 0.20544(9)
C101_7 C 0.2017(7) 0.1504(6) 0.21227(15)
H76_7 H 0.1966 0.1199 0.2105
C106_7 C 0.2348(7) 0.1785(6) 0.22183(12)
C111_7 C 0.2560(11) 0.1209(9) 0.22957(19)
H81_7 H 0.2812 0.1228 0.2351
H86_7 H 0.2583 0.1102 0.2209
H91_7 H 0.2257 0.0988 0.2334
C116_7 C 0.1390(10) 0.1367(8) 0.19468(15)
H96_7 H 0.1206 0.1470 0.1903
C121_7 C 0.1362(14) 0.1021(11) 0.19265(17)
H101_7 H 0.1548 0.0907 0.1964
C126_7 C 0.0967(17) 0.0764(15) 0.18281(18)
O10_7 O 0.6159(8) 0.3347(6) 0.19912(11)
O17_3 O 0.2813(7) 0.6653(6) 0.30088(11)
O18_3 O 0.3841(8) 0.7187(5) 0.30088(11)
O19_7 O 0.0708(7) 0.0917(6) 0.17600(14)
O25_3 O 0.9792(8) 0.9083(6) 0.32400(14)
O28_7 O 0.5834(7) 0.3549(6) 0.18212(16)
O33_3 O 0.2286(7) 0.6451(6) 0.31788(16)
O34_3 O 0.4166(7) 0.7714(4) 0.31788(16)
O36_7 O 0.0889(7) 0.0341(6) 0.17719(16)
O41_3 O 0.0549(8) 0.9659(6) 0.32281(16)
O42_3 O 0.9111(7) 0.9451(4) 0.32281(16)
O47_7 O 0.3783(7) 0.3494(6) 0.23591(12)
O52_7 O 0.2753(7) 0.2505(6) 0.23458(11)
O57_7 O 0.2606(11) 0.1689(9) 0.22863(15)
O62_7 O 0.4020(9) 0.3894(7) 0.21069(18)
Zn4_7 Zn 0.6666 0.3334 0.19271(5)
C131_7 C 0.4009(24) 0.3908(20) 0.1958(2)
H106_7 H 0.3864 0.4090 0.1931
H111_7 H 0.3827 0.3588 0.1925
H116_7 H 0.4328 0.4052 0.1925
O26_3 O 0.9292(7) 0.0208(4) 0.32400(14)
O46_3 O 1.0000 0.9999 0.3408(2)
C1_8 C 0.2396(8) 0.6567(11) 0.3061(3)
C2_8 C 0.2058(7) 0.6542(10) 0.29528(19)
H1_8 H 0.2169 0.6600 0.2866
C3_8 C 0.1682(7) 0.6459(9) 0.29717(16)
H2_8 H 0.1540 0.6358 0.3054
C4_8 C 0.1415(6) 0.6517(7) 0.28559(18)
C5_8 C 0.1505(4) 0.6676(6) 0.2725(2)
H3_8 H 0.1804 0.6777 0.2688
C6_8 C 0.1149(8) 0.6684(11) 0.26502(9)
H4_8 H 0.1210 0.6791 0.2562
C7_8 C 0.0703(6) 0.6533(7) 0.27056(19)
C8_8 C 0.0612(4) 0.6374(6) 0.2836(2)
C9_8 C 0.0969(8) 0.6367(11) 0.29113(9)
H5_8 H 0.0908 0.6260 0.2998
C10_8 C 0.0484(5) 0.6833(7) 0.25308(14)
H6_8 H 0.0569 0.6698 0.2456
H7_8 H 0.0755 0.7136 0.2556
C13_8 C 0.0186(7) 0.7762(8) 0.27544(9)
C16_8 C 0.0086(6) 0.8324(7) 0.29456(9)
C17_8 C 0.0514(4) 0.8496(6) 0.28773(15)
H12_8 H 0.0768 0.8801 0.2895
C18_8 C 0.0564(4) 0.8215(6) 0.27817(12)
C19_8 C 0.1352(7) 0.8791(9) 0.27043(19)
H13_8 H 0.1585 0.8772 0.2649
H14_8 H 0.1482 0.8898 0.2791
H15_8 H 0.1270 0.9012 0.2666
C20_8 C 0.0024(6) 0.8633(8) 0.30532(15)
C21_8 C 0.0342(8) 0.8979(11) 0.30735(17)
H17_8 H 0.0642 0.9093 0.3036
C22_8 C 0.0204(9) 0.9236(15) 0.31719(18)
O6_8 O 0.0290(4) 0.6506(6) 0.26409(12)
O7_8 O 0.0249(4) 0.7495(6) 0.26542(11)
O8_8 O 0.0918(7) 0.8311(9) 0.27137(15)
O9_8 O 0.0127(5) 0.6106(7) 0.28931(18)
C23_8 C 0.0102(14) 0.6092(20) 0.3042(2)
H19_8 H 0.0240 0.6412 0.3075
H20_8 H 0.0277 0.5948 0.3075
C76_8 C 0.0185(6) 0.7222(10) 0.23738(15)
H56_8 H 0.0455 0.7532 0.2396
H61_8 H 0.0270 0.7084 0.2301
C86_8 C 0.0242(5) 0.7833(9) 0.21773(15)
H66_8 H 0.0495 0.7782 0.2196
C91_8 C 0.0292(4) 0.8164(7) 0.20817(12)
H71_8 H 0.0578 0.8336 0.2036
H96_8 H 0.0263 0.8794 0.1903
O19_8 O 0.0208(4) 0.9292(7) 0.17600(14)
H106_8 H 0.0225 0.6136 0.1931
C11_8 C 1.0000 0.6872(7) 0.2500
C12_8 C 0.9815(6) 0.7036(8) 0.26262(15)
H8_8 H 0.9545 0.7076 0.2604
H9_8 H 0.9730 0.6813 0.2699
C14_8 C 0.9758(5) 0.7590(7) 0.28227(15)
H10_8 H 0.9505 0.7286 0.2804
C15_8 C 0.9708(4) 0.7871(6) 0.29183(12)
H11_8 H 0.9422 0.7757 0.2964
H16_8 H 0.9737 0.8530 0.3097
H18_8 H 0.9775 0.5910 0.3069
C24_8 C 0.7604(8) 0.4172(14) 0.1939(3)
C29_8 C 0.7942(7) 0.4485(12) 0.20472(19)
H21_8 H 0.7831 0.4432 0.2134
C34_8 C 0.8318(7) 0.4778(11) 0.20283(16)
H26_8 H 0.8460 0.4819 0.1946
C39_8 C 0.8585(6) 0.5103(9) 0.21441(18)
C44_8 C 0.8495(4) 0.5172(7) 0.2275(2)
H31_8 H 0.8196 0.4974 0.2312
C49_8 C 0.8851(8) 0.5536(14) 0.23498(9)
H36_8 H 0.8790 0.5582 0.2438
C54_8 C 0.9297(6) 0.5831(9) 0.22944(19)
C59_8 C 0.9388(4) 0.5763(7) 0.2164(2)
C64_8 C 0.9031(8) 0.5399(14) 0.20887(9)
H41_8 H 0.9092 0.5353 0.2002
C69_8 C 0.9516(5) 0.6350(9) 0.24692(14)
H46_8 H 0.9431 0.6130 0.2544
H51_8 H 0.9245 0.6382 0.2444
C81_8 C 0.9814(7) 0.7577(11) 0.22456(9)
C96_8 C 0.9914(6) 0.8239(9) 0.20544(9)
C101_8 C 0.9486(4) 0.7983(7) 0.21227(15)
H76_8 H 0.9232 0.8034 0.2105
C106_8 C 0.9436(4) 0.7652(7) 0.22183(12)
C111_8 C 0.8648(7) 0.7440(11) 0.22957(19)
H81_8 H 0.8415 0.7188 0.2351
H86_8 H 0.8518 0.7417 0.2209
H91_8 H 0.8730 0.7743 0.2334
C116_8 C 0.9976(6) 0.8610(10) 0.19468(15)
C121_8 C 0.9658(8) 0.8638(14) 0.19265(17)
H101_8 H 0.9358 0.8452 0.1964
C126_8 C 0.9796(9) 0.9033(17) 0.18281(18)
O10_8 O 0.7187(5) 0.3841(8) 0.19912(11)
O28_8 O 0.7714(4) 0.4166(7) 0.18212(16)
O36_8 O 0.9451(4) 0.9111(7) 0.17719(16)
O47_8 O 0.9710(4) 0.6217(7) 0.23591(12)
O52_8 O 0.9751(4) 0.7247(7) 0.23458(11)
O57_8 O 0.9082(7) 0.7394(11) 0.22863(15)
O62_8 O 0.9873(5) 0.5980(9) 0.21069(18)
C131_8 C 0.9898(14) 0.5991(24) 0.1958(2)
H111_8 H 0.9760 0.6173 0.1925
H116_8 H 0.9723 0.5672 0.1925
C11_9 C 0.6873(7) 0.0000 0.2500
C12_9 C 0.7222(5) 0.0185(6) 0.26262(15)
H8_9 H 0.7532 0.0455 0.2604
H9_9 H 0.7084 0.0270 0.2699
C14_9 C 0.7833(5) 0.0242(5) 0.28227(15)
H10_9 H 0.7782 0.0495 0.2804
C15_9 C 0.8164(4) 0.0292(4) 0.29183(12)
H11_9 H 0.8336 0.0578 0.2964
H16_9 H 0.8794 0.0263 0.3097
H18_9 H 0.6136 0.0225 0.3069
C24_9 C 0.6567(11) 0.2396(8) 0.1939(3)
C29_9 C 0.6542(10) 0.2058(7) 0.20472(19)
H21_9 H 0.6600 0.2169 0.2134
C34_9 C 0.6459(9) 0.1682(7) 0.20283(16)
H26_9 H 0.6358 0.1540 0.1946
C39_9 C 0.6517(7) 0.1415(6) 0.21441(18)
C44_9 C 0.6676(6) 0.1505(4) 0.2275(2)
H31_9 H 0.6777 0.1804 0.2312
C49_9 C 0.6684(11) 0.1149(8) 0.23498(9)
H36_9 H 0.6791 0.1210 0.2438
C54_9 C 0.6533(7) 0.0703(6) 0.22944(19)
C59_9 C 0.6374(6) 0.0612(4) 0.2164(2)
C64_9 C 0.6367(11) 0.0969(8) 0.20887(9)
H41_9 H 0.6260 0.0908 0.2002
C69_9 C 0.6833(7) 0.0484(5) 0.24692(14)
H46_9 H 0.6698 0.0569 0.2544
H51_9 H 0.7136 0.0755 0.2444
C81_9 C 0.7762(8) 0.0186(7) 0.22456(9)
C96_9 C 0.8324(7) 0.0086(6) 0.20544(9)
C101_9 C 0.8496(6) 0.0514(4) 0.21227(15)
H76_9 H 0.8801 0.0768 0.2105
C106_9 C 0.8215(6) 0.0564(4) 0.22183(12)
C111_9 C 0.8791(9) 0.1352(7) 0.22957(19)
H81_9 H 0.8772 0.1585 0.2351
H86_9 H 0.8898 0.1482 0.2209
H91_9 H 0.9012 0.1270 0.2334
C116_9 C 0.8633(8) 0.0024(6) 0.19468(15)
C121_9 C 0.8979(11) 0.0342(8) 0.19265(17)
H101_9 H 0.9093 0.0642 0.1964
C126_9 C 0.9236(15) 0.0204(9) 0.18281(18)
O10_9 O 0.6653(6) 0.2813(5) 0.19912(11)
O28_9 O 0.6451(6) 0.2286(4) 0.18212(16)
O36_9 O 0.9659(6) 0.0549(4) 0.17719(16)
O47_9 O 0.6506(6) 0.0290(4) 0.23591(12)
O52_9 O 0.7495(6) 0.0249(4) 0.23458(11)
O57_9 O 0.8311(9) 0.0918(7) 0.22863(15)
O62_9 O 0.6106(7) 0.0127(5) 0.21069(18)
C131_9 C 0.6092(20) 0.0102(14) 0.1958(2)
H111_9 H 0.6412 0.0240 0.1925
H116_9 H 0.5948 0.0277 0.1925
C1_9 C 0.4172(8) 0.7604(8) 0.3061(3)
C2_9 C 0.4485(7) 0.7942(7) 0.29528(19)
H1_9 H 0.4432 0.7831 0.2866
C3_9 C 0.4778(6) 0.8318(7) 0.29717(16)
H2_9 H 0.4819 0.8460 0.3054
C4_9 C 0.5103(4) 0.8585(6) 0.28559(18)
C5_9 C 0.5172(5) 0.8495(4) 0.2725(2)
H3_9 H 0.4974 0.8196 0.2688
C6_9 C 0.5536(7) 0.8851(8) 0.26502(9)
H4_9 H 0.5582 0.8790 0.2562
C7_9 C 0.5831(4) 0.9297(6) 0.27056(19)
C8_9 C 0.5763(5) 0.9388(4) 0.2836(2)
C9_9 C 0.5399(7) 0.9031(8) 0.29113(9)
H5_9 H 0.5353 0.9092 0.2998
C10_9 C 0.6350(5) 0.9516(5) 0.25308(14)
H6_9 H 0.6130 0.9431 0.2456
H7_9 H 0.6382 0.9245 0.2556
C13_9 C 0.7577(3) 0.9814(7) 0.27544(9)
C16_9 C 0.8239(3) 0.9914(6) 0.29456(9)
C17_9 C 0.7983(5) 0.9486(4) 0.28773(15)
H12_9 H 0.8034 0.9232 0.2895
C18_9 C 0.7652(4) 0.9436(4) 0.27817(12)
C19_9 C 0.7440(6) 0.8648(7) 0.27043(19)
H13_9 H 0.7188 0.8415 0.2649
H14_9 H 0.7417 0.8518 0.2791
H15_9 H 0.7743 0.8730 0.2666
C20_9 C 0.8610(6) 0.9976(6) 0.30532(15)
C21_9 C 0.8638(7) 0.9658(8) 0.30735(17)
H17_9 H 0.8452 0.9358 0.3036
C22_9 C 0.9033(12) 0.9796(9) 0.31719(18)
O6_9 O 0.6217(4) 0.9710(4) 0.26409(12)
O7_9 O 0.7247(4) 0.9751(4) 0.26542(11)
O8_9 O 0.7394(5) 0.9082(7) 0.27137(15)
O9_9 O 0.5980(5) 0.9873(5) 0.28931(18)
C23_9 C 0.5991(14) 0.9898(14) 0.3042(2)
H19_9 H 0.6173 0.9760 0.3075
H20_9 H 0.5672 0.9723 0.3075
C76_9 C 0.7036(8) 0.9815(6) 0.23738(15)
H56_9 H 0.7076 0.9545 0.2396
H61_9 H 0.6813 0.9730 0.2301
C86_9 C 0.7590(7) 0.9758(5) 0.21773(15)
H66_9 H 0.7286 0.9505 0.2196
C91_9 C 0.7871(6) 0.9708(4) 0.20817(12)
H71_9 H 0.7757 0.9422 0.2036
H96_9 H 0.8530 0.9737 0.1903
O19_9 O 0.9083(6) 0.9792(4) 0.17600(14)
H106_9 H 0.5910 0.9775 0.1931
O46_4 O 0.0000 0.0001 0.1592(2)
C11_10 C 0.0000 0.6873(7) 0.2500
O5_7 O 0.6666 0.3334 0.1742(2)
O44_3 O 0.9999 1.0000 0.1592(2)
O45_2 O 0.0000 1.0000 0.1592(2)
C11_11 C 0.6872(7) 1.0000 0.2500
C74_4 C 0.0000(10) 0.3128(7) 0.7500
O44_4 O 0.6666 0.3334 0.6742(2)
C75_7 C 0.3127(7) 1.0000 0.7500
O5_8 O 0.9999 1.0000 0.6592(2)
O5_9 O 0.0000 0.0001 0.6592(2)
O5_10 O 0.0000 1.0000 0.6592(2)
loop_
_geom_bond_atom_site_label_1
_geom_bond_atom_site_label_2
_geom_bond_site_symmetry_1
_geom_bond_site_symmetry_2
C12 C11 1_555 1_555
H8 C12 1_555 1_555
H9 C12 1_555 1_555
C13 C14 1_555 1_555
C14 H10 1_555 1_555
C15 C14 1_555 1_555
H11 C15 1_555 1_555
C16 C15 1_555 1_555
C17 C16 1_555 1_555
H12 C17 1_555 1_555
C18 C13 1_555 1_555
C19 H13 1_555 1_555
H14 C19 1_555 1_555
H15 C19 1_555 1_555
C20 C16 1_555 1_555
H16 C20 1_555 1_555
C21 C20 1_555 1_555
H17 C21 1_555 1_555
C22 C21 1_555 1_555
O2 C22 1_555 1_555
O4 C22 1_555 1_555
O7 C12 1_555 1_555
O8 C18 1_555 1_555
H31 C44 1_555 1_555
C49 C44 1_555 1_555
H36 C49 1_555 1_555
C69 C11 1_555 1_555
H46 C69 1_555 1_555
H51 C69 1_555 1_555
C76 C11 1_555 1_555
H56 C76 1_555 1_555
H61 C76 1_555 1_555
C81 C86 1_555 1_555
C86 H66 1_555 1_555
C91 C86 1_555 1_555
H71 C91 1_555 1_555
C96 C91 1_555 1_555
C101 C96 1_555 1_555
H76 C101 1_555 1_555
C106 C81 1_555 1_555
C111 H81 1_555 1_555
H86 C111 1_555 1_555
H91 C111 1_555 1_555
C116 C96 1_555 1_555
H96 C116 1_555 1_555
C121 C116 1_555 1_555
H101 C121 1_555 1_555
C126 C121 1_555 1_555
O19 C126 1_555 1_555
O26 Zn10 1_555 1_555
O35 Zn10 1_555 1_555
O36 C126 1_555 1_555
O46 Zn10 1_555 1_555
O52 C76 1_555 1_555
O57 C106 1_555 1_555
Zn10 O4 1_555 1_555
Zn19 O2 1_555 1_555
Zn22 O36 1_555 1_555
Zn23 O19 1_555 1_555
C13 O7 1_555 1_555
C17 C18 1_555 1_555
C19 O8 1_555 1_555
C81 O52 1_555 1_555
C101 C106 1_555 1_555
C111 O57 1_555 1_555
O46 Zn19 1_555 1_555
C1 C2 1_555 1_555
C2 H1 1_555 1_555
C3 C2 1_555 1_555
H2 C3 1_555 1_555
C4 C3 1_555 1_555
C5 C4 1_555 1_555
H3 C5 1_555 1_555
C6 C5 1_555 1_555
H4 C6 1_555 1_555
C7 C6 1_555 1_555
C8 C7 1_555 1_555
C9 C4 1_555 1_555
H5 C9 1_555 1_555
C10 H6 1_555 1_555
H7 C10 1_555 1_555
O1 C1 1_555 1_555
O3 C1 1_555 1_555
O5 Zn1 1_555 1_555
O6 C7 1_555 1_555
O9 C8 1_555 1_555
Zn1 O1 1_555 1_555
Zn2 O3 1_555 1_555
C23 O9 1_555 1_555
H18 C23 1_555 1_555
H19 C23 1_555 1_555
H20 C23 1_555 1_555
C24 C29 1_555 1_555
C27 C32 1_555 1_555
C28 C33 1_555 1_555
C29 H21 1_555 1_555
C32 H24 1_555 1_555
C33 H25 1_555 1_555
C34 C29 1_555 1_555
C37 C32 1_555 1_555
C38 C33 1_555 1_555
H26 C34 1_555 1_555
H29 C37 1_555 1_555
H30 C38 1_555 1_555
C39 C34 1_555 1_555
C42 C37 1_555 1_555
C43 C38 1_555 1_555
C47 C42 1_555 1_555
C48 C43 1_555 1_555
H33 C46 1_555 1_555
H34 C47 1_555 1_555
H35 C48 1_555 1_555
C51 C46 1_555 1_555
C52 C47 1_555 1_555
C53 C48 1_555 1_555
H38 C51 1_555 1_555
H39 C52 1_555 1_555
H40 C53 1_555 1_555
C57 C52 1_555 1_555
C58 C53 1_555 1_555
C59 C54 1_555 1_555
C62 C57 1_555 1_555
C63 C58 1_555 1_555
C64 C39 1_555 1_555
C67 C42 1_555 1_555
C68 C43 1_555 1_555
H41 C64 1_555 1_555
H44 C67 1_555 1_555
H45 C68 1_555 1_555
C71 H48 1_555 1_555
C72 H49 1_555 1_555
C73 H50 1_555 1_555
H53 C71 1_555 1_555
H54 C72 1_555 1_555
H55 C73 1_555 1_555
C75 C72 1_555 1_555
C77 C74 1_555 1_555
C78 C74 1_555 1_555
C79 C75 1_555 1_555
C80 C75 1_555 1_555
H57 C77 1_555 1_555
H58 C78 1_555 1_555
H59 C79 1_555 1_555
H60 C80 1_555 1_555
H62 C77 1_555 1_555
H63 C78 1_555 1_555
H64 C79 1_555 1_555
H65 C80 1_555 1_555
C82 C87 1_555 1_555
C83 C88 1_555 1_555
C84 C89 1_555 1_555
C85 C90 1_555 1_555
C87 H67 1_555 1_555
C88 H68 1_555 1_555
C89 H69 1_555 1_555
C90 H70 1_555 1_555
C92 C87 1_555 1_555
C93 C88 1_555 1_555
C94 C89 1_555 1_555
C95 C90 1_555 1_555
H72 C92 1_555 1_555
H73 C93 1_555 1_555
H74 C94 1_555 1_555
H75 C95 1_555 1_555
C97 C92 1_555 1_555
C98 C93 1_555 1_555
C99 C94 1_555 1_555
C100 C95 1_555 1_555
C102 C97 1_555 1_555
C103 C98 1_555 1_555
C104 C99 1_555 1_555
C105 C100 1_555 1_555
H77 C102 1_555 1_555
H78 C103 1_555 1_555
H79 C104 1_555 1_555
H80 C105 1_555 1_555
C107 C82 1_555 1_555
C108 C83 1_555 1_555
C109 C84 1_555 1_555
C110 C85 1_555 1_555
C112 H82 1_555 1_555
C113 H83 1_555 1_555
C114 H84 1_555 1_555
C115 H85 1_555 1_555
H87 C112 1_555 1_555
H88 C113 1_555 1_555
H89 C114 1_555 1_555
H90 C115 1_555 1_555
H92 C112 1_555 1_555
H93 C113 1_555 1_555
H94 C114 1_555 1_555
H95 C115 1_555 1_555
C117 C97 1_555 1_555
C118 C98 1_555 1_555
C119 C99 1_555 1_555
C120 C100 1_555 1_555
H97 C117 1_555 1_555
H98 C118 1_555 1_555
H99 C119 1_555 1_555
H100 C120 1_555 1_555
C122 C117 1_555 1_555
C123 C118 1_555 1_555
C124 C119 1_555 1_555
C125 C120 1_555 1_555
H102 C122 1_555 1_555
H103 C123 1_555 1_555
H104 C124 1_555 1_555
H105 C125 1_555 1_555
C127 C122 1_555 1_555
C128 C123 1_555 1_555
C129 C124 1_555 1_555
C130 C125 1_555 1_555
O10 C24 1_555 1_555
O13 C27 1_555 1_555
O14 C28 1_555 1_555
O15 Zn3 1_555 1_555
O16 Zn3 1_555 1_555
O17 Zn1 1_555 1_555
O18 Zn1 1_555 1_555
O20 C127 1_555 1_555
O21 C128 1_555 1_555
O22 Zn2 1_555 1_555
O23 C130 1_555 1_555
O25 Zn12 1_555 1_555
O27 Zn8 1_555 1_555
O28 C24 1_555 1_555
O31 C27 1_555 1_555
O32 C28 1_555 1_555
O33 Zn8 1_555 1_555
O34 Zn9 1_555 1_555
O37 C127 1_555 1_555
O38 C128 1_555 1_555
O39 C129 1_555 1_555
O40 C130 1_555 1_555
O42 Zn12 1_555 1_555
O43 Zn2 1_555 1_555
O46 Zn3 1_555 1_555
O47 C54 1_555 1_555
O50 C57 1_555 1_555
O51 C58 1_555 1_555
O53 C77 1_555 1_555
O54 C78 1_555 1_555
O55 C79 1_555 1_555
O56 C80 1_555 1_555
O58 C107 1_555 1_555
O59 C108 1_555 1_555
O60 C109 1_555 1_555
O61 C110 1_555 1_555
O62 C59 1_555 1_555
O65 C62 1_555 1_555
O66 C63 1_555 1_555
Zn3 O13 1_555 1_555
Zn4 O10 1_555 1_555
Zn8 O5 1_555 1_555
Zn9 O5 1_555 1_555
Zn12 O31 1_555 1_555
Zn13 O23 1_555 1_555
Zn14 O21 1_555 1_555
Zn15 O40 1_555 1_555
Zn16 O28 1_555 1_555
Zn21 O32 1_555 1_555
C131 O62 1_555 1_555
C134 O65 1_555 1_555
C135 O66 1_555 1_555
H106 C131 1_555 1_555
H109 C134 1_555 1_555
H110 C135 1_555 1_555
H111 C131 1_555 1_555
H114 C134 1_555 1_555
H115 C135 1_555 1_555
H116 C131 1_555 1_555
H119 C134 1_555 1_555
H120 C135 1_555 1_555
C8 C9 1_555 1_555
C10 O6 1_555 1_555
O5 Zn2 1_555 1_555
C59 C64 1_555 1_555
C62 C67 1_555 1_555
C63 C68 1_555 1_555
C71 C74 1_555 1_555
C72 O50 1_555 1_555
C73 C75 1_555 1_555
C73 O51 1_555 1_555
C82 O53 1_555 1_555
C83 O54 1_555 1_555
C84 O55 1_555 1_555
C85 O56 1_555 1_555
C102 C107 1_555 1_555
C103 C108 1_555 1_555
C104 C109 1_555 1_555
C105 C110 1_555 1_555
C112 O58 1_555 1_555
C113 O59 1_555 1_555
C114 O60 1_555 1_555
C115 O61 1_555 1_555
C129 O22 1_555 1_555
O20 Zn9 1_555 1_555
O37 Zn8 1_555 1_555
O38 Zn13 1_555 1_555
O39 Zn9 1_555 1_555
O46 Zn12 1_555 1_555
C25 C30 1_555 1_555
C26 C31 1_555 1_555
C30 H22 1_555 1_555
C31 H23 1_555 1_555
C35 C30 1_555 1_555
C36 C31 1_555 1_555
H27 C35 1_555 1_555
H28 C36 1_555 1_555
C40 C35 1_555 1_555
C41 C36 1_555 1_555
C45 C40 1_555 1_555
H32 C45 1_555 1_555
C50 C45 1_555 1_555
H37 C50 1_555 1_555
C55 C50 1_555 1_555
C60 C55 1_555 1_555
C61 C56 1_555 1_555
C65 C40 1_555 1_555
C66 C41 1_555 1_555
H42 C65 1_555 1_555
H43 C66 1_555 1_555
C70 H47 1_555 1_555
H52 C70 1_555 1_555
O16 C25 1_555 1_555
O12 C26 1_555 1_555
O29 C25 1_555 1_555
O30 C26 1_555 1_555
O41 Zn19 1_555 1_555
O48 C55 1_555 1_555
O49 C56 1_555 1_555
O63 C60 1_555 1_555
O64 C61 1_555 1_555
Zn19 O29 1_555 1_555
Zn20 O30 1_555 1_555
C132 O63 1_555 1_555
C133 O64 1_555 1_555
H107 C132 1_555 1_555
H108 C133 1_555 1_555
H112 C132 1_555 1_555
H113 C133 1_555 1_555
H117 C132 1_555 1_555
H118 C133 1_555 1_555
C60 C65 1_555 1_555
C61 C66 1_555 1_555
C70 O48 1_555 1_555
C27_2 C32_2 1_555 1_555
C28_2 C33_2 1_555 1_555
C32_2 H24_2 1_555 1_555
C33_2 H25_2 1_555 1_555
C37_2 C32_2 1_555 1_555
C38_2 C33_2 1_555 1_555
H29_2 C37_2 1_555 1_555
H30_2 C38_2 1_555 1_555
C42_2 C37_2 1_555 1_555
C43_2 C38_2 1_555 1_555
C47_2 C42_2 1_555 1_555
H34_2 C47_2 1_555 1_555
C52_2 C47_2 1_555 1_555
H39_2 C52_2 1_555 1_555
C57_2 C52_2 1_555 1_555
C62_2 C57_2 1_555 1_555
C63_2 C58_2 1_555 1_555
C67_2 C42_2 1_555 1_555
C68_2 C43_2 1_555 1_555
H44_2 C67_2 1_555 1_555
H45_2 C68_2 1_555 1_555
C72_2 H49_2 1_555 1_555
H54_2 C72_2 1_555 1_555
O15 C27_2 1_555 1_555
O14_2 C28_2 1_555 1_555
O35 C27_2 1_555 1_555
O32_2 C28_2 1_555 1_555
O50_2 C57_2 1_555 1_555
O51_2 C58_2 1_555 1_555
O65_2 C62_2 1_555 1_555
O66_2 C63_2 1_555 1_555
Zn21_2 O32_2 1_555 1_555
C134_2 O65_2 1_555 1_555
C135_2 O66_2 1_555 1_555
H109_2 C134_2 1_555 1_555
H110_2 C135_2 1_555 1_555
H114_2 C134_2 1_555 1_555
H115_2 C135_2 1_555 1_555
H119_2 C134_2 1_555 1_555
H120_2 C135_2 1_555 1_555
C62_2 C67_2 1_555 1_555
C63_2 C68_2 1_555 1_555
C72_2 O50_2 1_555 1_555
C1_2 C2_2 1_555 1_555
C2_2 H1_2 1_555 1_555
C3_2 C2_2 1_555 1_555
H2_2 C3_2 1_555 1_555
C4_2 C3_2 1_555 1_555
C5_2 C4_2 1_555 1_555
H3_2 C5_2 1_555 1_555
C6_2 C5_2 1_555 1_555
H4_2 C6_2 1_555 1_555
C7_2 C6_2 1_555 1_555
C8_2 C7_2 1_555 1_555
C9_2 C4_2 1_555 1_555
H5_2 C9_2 1_555 1_555
C10_2 H6_2 1_555 1_555
H7_2 C10_2 1_555 1_555
O17 C1_2 1_555 1_555
O33 C1_2 1_555 1_555
O6_2 C7_2 1_555 1_555
O9_2 C8_2 1_555 1_555
C23_2 O9_2 1_555 1_555
H18_2 C23_2 1_555 1_555
H19_2 C23_2 1_555 1_555
H20_2 C23_2 1_555 1_555
C24_2 C29_2 1_555 1_555
C29_2 H21_2 1_555 1_555
C34_2 C29_2 1_555 1_555
H26_2 C34_2 1_555 1_555
C39_2 C34_2 1_555 1_555
H35_2 C48_2 1_555 1_555
C53_2 C48_2 1_555 1_555
H40_2 C53_2 1_555 1_555
C59_2 C54_2 1_555 1_555
C64_2 C39_2 1_555 1_555
H41_2 C64_2 1_555 1_555
C73_2 H50_2 1_555 1_555
H55_2 C73_2 1_555 1_555
C79_2 C75_2 1_555 1_555
C80_2 C75_2 1_555 1_555
H59_2 C79_2 1_555 1_555
H60_2 C80_2 1_555 1_555
H64_2 C79_2 1_555 1_555
H65_2 C80_2 1_555 1_555
C84_2 C89_2 1_555 1_555
C85_2 C90_2 1_555 1_555
C89_2 H69_2 1_555 1_555
C90_2 H70_2 1_555 1_555
C94_2 C89_2 1_555 1_555
C95_2 C90_2 1_555 1_555
H74_2 C94_2 1_555 1_555
H75_2 C95_2 1_555 1_555
C99_2 C94_2 1_555 1_555
C100_2 C95_2 1_555 1_555
C104_2 C99_2 1_555 1_555
C105_2 C100_2 1_555 1_555
H79_2 C104_2 1_555 1_555
H80_2 C105_2 1_555 1_555
C109_2 C84_2 1_555 1_555
C110_2 C85_2 1_555 1_555
C114_2 H84_2 1_555 1_555
C115_2 H85_2 1_555 1_555
H89_2 C114_2 1_555 1_555
H90_2 C115_2 1_555 1_555
H94_2 C114_2 1_555 1_555
H95_2 C115_2 1_555 1_555
C119_2 C99_2 1_555 1_555
C120_2 C100_2 1_555 1_555
H99_2 C119_2 1_555 1_555
H100_2 C120_2 1_555 1_555
C124_2 C119_2 1_555 1_555
C125_2 C120_2 1_555 1_555
H104_2 C124_2 1_555 1_555
H105_2 C125_2 1_555 1_555
C129_2 C124_2 1_555 1_555
C130_2 C125_2 1_555 1_555
O10_2 C24_2 1_555 1_555
O23_2 C130_2 1_555 1_555
O28_2 C24_2 1_555 1_555
O43 C129_2 1_555 1_555
O40_2 C130_2 1_555 1_555
O47_2 C54_2 1_555 1_555
O55_2 C79_2 1_555 1_555
O56_2 C80_2 1_555 1_555
O60_2 C109_2 1_555 1_555
O61_2 C110_2 1_555 1_555
O62_2 C59_2 1_555 1_555
Zn4_2 O10_2 1_555 1_555
Zn15 O23_2 1_555 1_555
Zn14 O40_2 1_555 1_555
Zn16_2 O28_2 1_555 1_555
C131_2 O62_2 1_555 1_555
H106_2 C131_2 1_555 1_555
H111_2 C131_2 1_555 1_555
H116_2 C131_2 1_555 1_555
C8_2 C9_2 1_555 1_555
C10_2 O6_2 1_555 1_555
C59_2 C64_2 1_555 1_555
C73_2 C75_2 1_555 1_555
C84_2 O55_2 1_555 1_555
C85_2 O56_2 1_555 1_555
C104_2 C109_2 1_555 1_555
C105_2 C110_2 1_555 1_555
C114_2 O60_2 1_555 1_555
C115_2 O61_2 1_555 1_555
C129_2 O27 1_555 1_555
C12_2 C11_2 1_555 1_555
H8_2 C12_2 1_555 1_555
H9_2 C12_2 1_555 1_555
C13_2 C14_2 1_555 1_555
C14_2 H10_2 1_555 1_555
C15_2 C14_2 1_555 1_555
H11_2 C15_2 1_555 1_555
C16_2 C15_2 1_555 1_555
C17_2 C16_2 1_555 1_555
H12_2 C17_2 1_555 1_555
C18_2 C13_2 1_555 1_555
C19_2 H13_2 1_555 1_555
H14_2 C19_2 1_555 1_555
H15_2 C19_2 1_555 1_555
C20_2 C16_2 1_555 1_555
H16_2 C20_2 1_555 1_555
C21_2 C20_2 1_555 1_555
H17_2 C21_2 1_555 1_555
C22_2 C21_2 1_555 1_555
O25 C22_2 1_555 1_555
O41 C22_2 1_555 1_555
O7_2 C12_2 1_555 1_555
O8_2 C18_2 1_555 1_555
H31_2 C44_2 1_555 1_555
C49_2 C44_2 1_555 1_555
H36_2 C49_2 1_555 1_555
C69_2 C11_2 1_555 1_555
H46_2 C69_2 1_555 1_555
H51_2 C69_2 1_555 1_555
C76_2 C11_2 1_555 1_555
H56_2 C76_2 1_555 1_555
H61_2 C76_2 1_555 1_555
C81_2 C86_2 1_555 1_555
C86_2 H66_2 1_555 1_555
C91_2 C86_2 1_555 1_555
H71_2 C91_2 1_555 1_555
C96_2 C91_2 1_555 1_555
C101_2 C96_2 1_555 1_555
H76_2 C101_2 1_555 1_555
C106_2 C81_2 1_555 1_555
C111_2 H81_2 1_555 1_555
H86_2 C111_2 1_555 1_555
H91_2 C111_2 1_555 1_555
C116_2 C96_2 1_555 1_555
H96_2 C116_2 1_555 1_555
C121_2 C116_2 1_555 1_555
H101_2 C121_2 1_555 1_555
C126_2 C121_2 1_555 1_555
O19_2 C126_2 1_555 1_555
O36_2 C126_2 1_555 1_555
O52_2 C76_2 1_555 1_555
O57_2 C106_2 1_555 1_555
Zn22_2 O36_2 1_555 1_555
Zn22 O19_2 1_555 1_555
C13_2 O7_2 1_555 1_555
C17_2 C18_2 1_555 1_555
C19_2 O8_2 1_555 1_555
C81_2 O52_2 1_555 1_555
C101_2 C106_2 1_555 1_555
C111_2 O57_2 1_555 1_555
C1_3 C2_3 1_555 1_555
C2_3 H1_3 1_555 1_555
C3_3 C2_3 1_555 1_555
H2_3 C3_3 1_555 1_555
C4_3 C3_3 1_555 1_555
C5_3 C4_3 1_555 1_555
H3_3 C5_3 1_555 1_555
C6_3 C5_3 1_555 1_555
H4_3 C6_3 1_555 1_555
C7_3 C6_3 1_555 1_555
C8_3 C7_3 1_555 1_555
C9_3 C4_3 1_555 1_555
H5_3 C9_3 1_555 1_555
C10_3 H6_3 1_555 1_555
H7_3 C10_3 1_555 1_555
C11_3 C10_3 1_555 1_555
C12_3 C11_3 1_555 1_555
H8_3 C12_3 1_555 1_555
H9_3 C12_3 1_555 1_555
C13_3 C14_3 1_555 1_555
C14_3 H10_3 1_555 1_555
C15_3 C14_3 1_555 1_555
H11_3 C15_3 1_555 1_555
C16_3 C15_3 1_555 1_555
C17_3 C16_3 1_555 1_555
H12_3 C17_3 1_555 1_555
C18_3 C13_3 1_555 1_555
C19_3 H13_3 1_555 1_555
H14_3 C19_3 1_555 1_555
H15_3 C19_3 1_555 1_555
C20_3 C16_3 1_555 1_555
H16_3 C20_3 1_555 1_555
C21_3 C20_3 1_555 1_555
H17_3 C21_3 1_555 1_555
C22_3 C21_3 1_555 1_555
O18 C1_3 1_555 1_555
O26 C22_3 1_555 1_555
O34 C1_3 1_555 1_555
O42 C22_3 1_555 1_555
O6_3 C7_3 1_555 1_555
O7_3 C12_3 1_555 1_555
O8_3 C18_3 1_555 1_555
O9_3 C8_3 1_555 1_555
C23_3 O9_3 1_555 1_555
H18_3 C23_3 1_555 1_555
H19_3 C23_3 1_555 1_555
H20_3 C23_3 1_555 1_555
C24_3 C29_3 1_555 1_555
C29_3 H21_3 1_555 1_555
C34_3 C29_3 1_555 1_555
H26_3 C34_3 1_555 1_555
C39_3 C34_3 1_555 1_555
C44_3 C39_3 1_555 1_555
H31_3 C44_3 1_555 1_555
C49_3 C44_3 1_555 1_555
H36_3 C49_3 1_555 1_555
C54_3 C49_3 1_555 1_555
C59_3 C54_3 1_555 1_555
C64_3 C39_3 1_555 1_555
H41_3 C64_3 1_555 1_555
C69_3 C11_3 1_555 1_555
H46_3 C69_3 1_555 1_555
H51_3 C69_3 1_555 1_555
C76_3 C11_3 1_555 1_555
H56_3 C76_3 1_555 1_555
H61_3 C76_3 1_555 1_555
C81_3 C86_3 1_555 1_555
C86_3 H66_3 1_555 1_555
C91_3 C86_3 1_555 1_555
H71_3 C91_3 1_555 1_555
C96_3 C91_3 1_555 1_555
C101_3 C96_3 1_555 1_555
H76_3 C101_3 1_555 1_555
C106_3 C81_3 1_555 1_555
C111_3 H81_3 1_555 1_555
H86_3 C111_3 1_555 1_555
H91_3 C111_3 1_555 1_555
C116_3 C96_3 1_555 1_555
H96_3 C116_3 1_555 1_555
C121_3 C116_3 1_555 1_555
H101_3 C121_3 1_555 1_555
C126_3 C121_3 1_555 1_555
O10_3 C24_3 1_555 1_555
O19_3 C126_3 1_555 1_555
O28_3 C24_3 1_555 1_555
O36_3 C126_3 1_555 1_555
O47_3 C54_3 1_555 1_555
O52_3 C76_3 1_555 1_555
O57_3 C106_3 1_555 1_555
O62_3 C59_3 1_555 1_555
Zn4_3 O10_3 1_555 1_555
Zn16_3 O28_3 1_555 1_555
Zn23 O36_3 1_555 1_555
Zn22_2 O19_3 1_555 1_555
C131_3 O62_3 1_555 1_555
H106_3 C131_3 1_555 1_555
H111_3 C131_3 1_555 1_555
H116_3 C131_3 1_555 1_555
C8_3 C9_3 1_555 1_555
C10_3 O6_3 1_555 1_555
C13_3 O7_3 1_555 1_555
C17_3 C18_3 1_555 1_555
C19_3 O8_3 1_555 1_555
C59_3 C64_3 1_555 1_555
C69_3 O47_3 1_555 1_555
C81_3 O52_3 1_555 1_555
C101_3 C106_3 1_555 1_555
C111_3 O57_3 1_555 1_555
C27_3 C32_3 1_555 1_555
C28_3 C33_3 1_555 1_555
C32_3 H24_3 1_555 1_555
C33_3 H25_3 1_555 1_555
C37_3 C32_3 1_555 1_555
C38_3 C33_3 1_555 1_555
H29_3 C37_3 1_555 1_555
H30_3 C38_3 1_555 1_555
C42_3 C37_3 1_555 1_555
C43_3 C38_3 1_555 1_555
C47_3 C42_3 1_555 1_555
H34_3 C47_3 1_555 1_555
C52_3 C47_3 1_555 1_555
H39_3 C52_3 1_555 1_555
C57_3 C52_3 1_555 1_555
C62_3 C57_3 1_555 1_555
C63_3 C58_3 1_555 1_555
C67_3 C42_3 1_555 1_555
C68_3 C43_3 1_555 1_555
H44_3 C67_3 1_555 1_555
H45_3 C68_3 1_555 1_555
C72_3 H49_3 1_555 1_555
H54_3 C72_3 1_555 1_555
O13_2 C27_3 1_555 1_555
O14_3 C28_3 1_555 1_555
O15_2 Zn3_2 1_555 1_555
O16_2 Zn3_2 1_555 1_555
O31_2 C27_3 1_555 1_555
O32_3 C28_3 1_555 1_555
O44 Zn3_2 1_555 1_555
O50_3 C57_3 1_555 1_555
O51_3 C58_3 1_555 1_555
O65_3 C62_3 1_555 1_555
O66_3 C63_3 1_555 1_555
Zn3_2 O13_2 1_555 1_555
Zn12_2 O31_2 1_555 1_555
Zn17 O44 1_555 1_555
Zn18 O44 1_555 1_555
Zn21_3 O32_3 1_555 1_555
C134_3 O65_3 1_555 1_555
C135_3 O66_3 1_555 1_555
H109_3 C134_3 1_555 1_555
H110_3 C135_3 1_555 1_555
H114_3 C134_3 1_555 1_555
H115_3 C135_3 1_555 1_555
H119_3 C134_3 1_555 1_555
H120_3 C135_3 1_555 1_555
C62_3 C67_3 1_555 1_555
C63_3 C68_3 1_555 1_555
C72_3 O50_3 1_555 1_555
O44 Zn12_2 1_555 1_555
C25_2 C30_2 1_555 1_555
C26_2 C31_2 1_555 1_555
C30_2 H22_2 1_555 1_555
C31_2 H23_2 1_555 1_555
C35_2 C30_2 1_555 1_555
C36_2 C31_2 1_555 1_555
H27_2 C35_2 1_555 1_555
H28_2 C36_2 1_555 1_555
C40_2 C35_2 1_555 1_555
C41_2 C36_2 1_555 1_555
C45_2 C40_2 1_555 1_555
C46_2 C41_2 1_555 1_555
H32_2 C45_2 1_555 1_555
H33_2 C46_2 1_555 1_555
H35_3 C48_3 1_555 1_555
C50_2 C45_2 1_555 1_555
C51_2 C46_2 1_555 1_555
C53_3 C48_3 1_555 1_555
H37_2 C50_2 1_555 1_555
H38_2 C51_2 1_555 1_555
H40_3 C53_3 1_555 1_555
C55_2 C50_2 1_555 1_555
C56_2 C51_2 1_555 1_555
C60_2 C55_2 1_555 1_555
C61_2 C56_2 1_555 1_555
C65_2 C40_2 1_555 1_555
C66_2 C41_2 1_555 1_555
H42_2 C65_2 1_555 1_555
H43_2 C66_2 1_555 1_555
C70_2 H47_2 1_555 1_555
C71_2 H48_2 1_555 1_555
C73_3 H50_3 1_555 1_555
H52_2 C70_2 1_555 1_555
H53_2 C71_2 1_555 1_555
H55_3 C73_3 1_555 1_555
C74_2 C70_2 1_555 1_555
C77_2 C74_2 1_555 1_555
C78_2 C74_2 1_555 1_555
C79_3 C75_3 1_555 1_555
C80_3 C75_3 1_555 1_555
H57_2 C77_2 1_555 1_555
H58_2 C78_2 1_555 1_555
H59_3 C79_3 1_555 1_555
H60_3 C80_3 1_555 1_555
H62_2 C77_2 1_555 1_555
H63_2 C78_2 1_555 1_555
H64_3 C79_3 1_555 1_555
H65_3 C80_3 1_555 1_555
C82_2 C87_2 1_555 1_555
C83_2 C88_2 1_555 1_555
C84_3 C89_3 1_555 1_555
C85_3 C90_3 1_555 1_555
C87_2 H67_2 1_555 1_555
C88_2 H68_2 1_555 1_555
C89_3 H69_3 1_555 1_555
C90_3 H70_3 1_555 1_555
C92_2 C87_2 1_555 1_555
C93_2 C88_2 1_555 1_555
C94_3 C89_3 1_555 1_555
C95_3 C90_3 1_555 1_555
H72_2 C92_2 1_555 1_555
H73_2 C93_2 1_555 1_555
H74_3 C94_3 1_555 1_555
H75_3 C95_3 1_555 1_555
C97_2 C92_2 1_555 1_555
C98_2 C93_2 1_555 1_555
C99_3 C94_3 1_555 1_555
C100_3 C95_3 1_555 1_555
C102_2 C97_2 1_555 1_555
C103_2 C98_2 1_555 1_555
C104_3 C99_3 1_555 1_555
C105_3 C100_3 1_555 1_555
H77_2 C102_2 1_555 1_555
H78_2 C103_2 1_555 1_555
H79_3 C104_3 1_555 1_555
H80_3 C105_3 1_555 1_555
C107_2 C82_2 1_555 1_555
C108_2 C83_2 1_555 1_555
C109_3 C84_3 1_555 1_555
C110_3 C85_3 1_555 1_555
C112_2 H82_2 1_555 1_555
C113_2 H83_2 1_555 1_555
C114_3 H84_3 1_555 1_555
C115_3 H85_3 1_555 1_555
H87_2 C112_2 1_555 1_555
H88_2 C113_2 1_555 1_555
H89_3 C114_3 1_555 1_555
H90_3 C115_3 1_555 1_555
H92_2 C112_2 1_555 1_555
H93_2 C113_2 1_555 1_555
H94_3 C114_3 1_555 1_555
H95_3 C115_3 1_555 1_555
C117_2 C97_2 1_555 1_555
C118_2 C98_2 1_555 1_555
C119_3 C99_3 1_555 1_555
C120_3 C100_3 1_555 1_555
H97_2 C117_2 1_555 1_555
H98_2 C118_2 1_555 1_555
H99_3 C119_3 1_555 1_555
H100_3 C120_3 1_555 1_555
C122_2 C117_2 1_555 1_555
C123_2 C118_2 1_555 1_555
C124_3 C119_3 1_555 1_555
C125_3 C120_3 1_555 1_555
H102_2 C122_2 1_555 1_555
H103_2 C123_2 1_555 1_555
H104_3 C124_3 1_555 1_555
H105_3 C125_3 1_555 1_555
C127_2 C122_2 1_555 1_555
C128_2 C123_2 1_555 1_555
C129_3 C124_3 1_555 1_555
C130_3 C125_3 1_555 1_555
O16_2 C25_2 1_555 1_555
O12_2 C26_2 1_555 1_555
O20_2 C127_2 1_555 1_555
O21_2 C128_2 1_555 1_555
O23_3 C130_3 1_555 1_555
O29_2 C25_2 1_555 1_555
O30_2 C26_2 1_555 1_555
O37_2 C127_2 1_555 1_555
O38_2 C128_2 1_555 1_555
O39_2 C129_3 1_555 1_555
O40_3 C130_3 1_555 1_555
O48_2 C55_2 1_555 1_555
O49_2 C56_2 1_555 1_555
O53_2 C77_2 1_555 1_555
O54_2 C78_2 1_555 1_555
O55_3 C79_3 1_555 1_555
O56_3 C80_3 1_555 1_555
O58_2 C107_2 1_555 1_555
O59_2 C108_2 1_555 1_555
O60_3 C109_3 1_555 1_555
O61_3 C110_3 1_555 1_555
O63_2 C60_2 1_555 1_555
O64_2 C61_2 1_555 1_555
Zn18 O29_2 1_555 1_555
Zn13_2 O23_3 1_555 1_555
Zn14_2 O21_2 1_555 1_555
Zn15_2 O40_3 1_555 1_555
Zn20_2 O30_2 1_555 1_555
C132_2 O63_2 1_555 1_555
C133_2 O64_2 1_555 1_555
H107_2 C132_2 1_555 1_555
H108_2 C133_2 1_555 1_555
H112_2 C132_2 1_555 1_555
H113_2 C133_2 1_555 1_555
H117_2 C132_2 1_555 1_555
H118_2 C133_2 1_555 1_555
C60_2 C65_2 1_555 1_555
C61_2 C66_2 1_555 1_555
C70_2 O48_2 1_555 1_555
C71_2 C74_2 1_555 1_555
C71_2 O49_2 1_555 1_555
C73_3 C75_3 1_555 1_555
C82_2 O53_2 1_555 1_555
C83_2 O54_2 1_555 1_555
C84_3 O55_3 1_555 1_555
C85_3 O56_3 1_555 1_555
C102_2 C107_2 1_555 1_555
C103_2 C108_2 1_555 1_555
C104_3 C109_3 1_555 1_555
C105_3 C110_3 1_555 1_555
C112_2 O58_2 1_555 1_555
C113_2 O59_2 1_555 1_555
C114_3 O60_3 1_555 1_555
C115_3 O61_3 1_555 1_555
C129_3 O22_2 1_555 1_555
O38_2 Zn13_2 1_555 1_555
C1_4 C2_4 1_555 1_555
C2_4 H1_4 1_555 1_555
C3_4 C2_4 1_555 1_555
H2_4 C3_4 1_555 1_555
C4_4 C3_4 1_555 1_555
C5_4 C4_4 1_555 1_555
H3_4 C5_4 1_555 1_555
C6_4 C5_4 1_555 1_555
H4_4 C6_4 1_555 1_555
C7_4 C6_4 1_555 1_555
C8_4 C7_4 1_555 1_555
C9_4 C4_4 1_555 1_555
H5_4 C9_4 1_555 1_555
C10_4 H6_4 1_555 1_555
H7_4 C10_4 1_555 1_555
O1_2 C1_4 1_555 1_555
O3_2 C1_4 1_555 1_555
O5_2 Zn1_2 1_555 1_555
O6_4 C7_4 1_555 1_555
O9_4 C8_4 1_555 1_555
Zn1_2 O1_2 1_555 1_555
Zn2_2 O3_2 1_555 1_555
C23_4 O9_4 1_555 1_555
H18_4 C23_4 1_555 1_555
H19_4 C23_4 1_555 1_555
H20_4 C23_4 1_555 1_555
C24_4 C29_4 1_555 1_555
C29_4 H21_4 1_555 1_555
C34_4 C29_4 1_555 1_555
H26_4 C34_4 1_555 1_555
C39_4 C34_4 1_555 1_555
C59_4 C54_4 1_555 1_555
C64_4 C39_4 1_555 1_555
H41_4 C64_4 1_555 1_555
O10_4 C24_4 1_555 1_555
O17_2 Zn1_2 1_555 1_555
O18_2 Zn1_2 1_555 1_555
O28_4 C24_4 1_555 1_555
O33_2 Zn8_2 1_555 1_555
O34_2 Zn9_2 1_555 1_555
O47_4 C54_4 1_555 1_555
O62_4 C59_4 1_555 1_555
Zn4_4 O10_4 1_555 1_555
Zn8_2 O5_2 1_555 1_555
Zn9_2 O5_2 1_555 1_555
Zn16_4 O28_4 1_555 1_555
C131_4 O62_4 1_555 1_555
H106_4 C131_4 1_555 1_555
H111_4 C131_4 1_555 1_555
H116_4 C131_4 1_555 1_555
C8_4 C9_4 1_555 1_555
C10_4 O6_4 1_555 1_555
O5_2 Zn2_2 1_555 1_555
C59_4 C64_4 1_555 1_555
O35_2 Zn17 1_555 1_555
C12_4 C11_4 1_555 1_555
H8_4 C12_4 1_555 1_555
H9_4 C12_4 1_555 1_555
C13_4 C14_4 1_555 1_555
C14_4 H10_4 1_555 1_555
C15_4 C14_4 1_555 1_555
H11_4 C15_4 1_555 1_555
C16_4 C15_4 1_555 1_555
C17_4 C16_4 1_555 1_555
H12_4 C17_4 1_555 1_555
C18_4 C13_4 1_555 1_555
C19_4 H13_4 1_555 1_555
H14_4 C19_4 1_555 1_555
H15_4 C19_4 1_555 1_555
C20_4 C16_4 1_555 1_555
H16_4 C20_4 1_555 1_555
C21_4 C20_4 1_555 1_555
H17_4 C21_4 1_555 1_555
C22_4 C21_4 1_555 1_555
O24 C22_4 1_555 1_555
O4_2 C22_4 1_555 1_555
O7_4 C12_4 1_555 1_555
O8_4 C18_4 1_555 1_555
H31_4 C44_4 1_555 1_555
C49_4 C44_4 1_555 1_555
H36_4 C49_4 1_555 1_555
C69_4 C11_4 1_555 1_555
H46_4 C69_4 1_555 1_555
H51_4 C69_4 1_555 1_555
C76_4 C11_4 1_555 1_555
H56_4 C76_4 1_555 1_555
H61_4 C76_4 1_555 1_555
C81_4 C86_4 1_555 1_555
C86_4 H66_4 1_555 1_555
C91_4 C86_4 1_555 1_555
H71_4 C91_4 1_555 1_555
C96_4 C91_4 1_555 1_555
C101_4 C96_4 1_555 1_555
H76_4 C101_4 1_555 1_555
C106_4 C81_4 1_555 1_555
C111_4 H81_4 1_555 1_555
H86_4 C111_4 1_555 1_555
H91_4 C111_4 1_555 1_555
C116_4 C96_4 1_555 1_555
H96_4 C116_4 1_555 1_555
C121_4 C116_4 1_555 1_555
H101_4 C121_4 1_555 1_555
C126_4 C121_4 1_555 1_555
O19_4 C126_4 1_555 1_555
O36_4 C126_4 1_555 1_555
O52_4 C76_4 1_555 1_555
O57_4 C106_4 1_555 1_555
Zn22_3 O36_4 1_555 1_555
Zn23_2 O19_4 1_555 1_555
C13_4 O7_4 1_555 1_555
C17_4 C18_4 1_555 1_555
C19_4 O8_4 1_555 1_555
C81_4 O52_4 1_555 1_555
C101_4 C106_4 1_555 1_555
C111_4 O57_4 1_555 1_555
H35_4 C48_4 1_555 1_555
C53_4 C48_4 1_555 1_555
H40_4 C53_4 1_555 1_555
C73_4 H50_4 1_555 1_555
H55_4 C73_4 1_555 1_555
C79_4 C75_4 1_555 1_555
C80_4 C75_4 1_555 1_555
H59_4 C79_4 1_555 1_555
H60_4 C80_4 1_555 1_555
H64_4 C79_4 1_555 1_555
H65_4 C80_4 1_555 1_555
C84_4 C89_4 1_555 1_555
C85_4 C90_4 1_555 1_555
C89_4 H69_4 1_555 1_555
C90_4 H70_4 1_555 1_555
C94_4 C89_4 1_555 1_555
C95_4 C90_4 1_555 1_555
H74_4 C94_4 1_555 1_555
H75_4 C95_4 1_555 1_555
C99_4 C94_4 1_555 1_555
C100_4 C95_4 1_555 1_555
C104_4 C99_4 1_555 1_555
C105_4 C100_4 1_555 1_555
H79_4 C104_4 1_555 1_555
H80_4 C105_4 1_555 1_555
C109_4 C84_4 1_555 1_555
C110_4 C85_4 1_555 1_555
C114_4 H84_4 1_555 1_555
C115_4 H85_4 1_555 1_555
H89_4 C114_4 1_555 1_555
H90_4 C115_4 1_555 1_555
H94_4 C114_4 1_555 1_555
H95_4 C115_4 1_555 1_555
C119_4 C99_4 1_555 1_555
C120_4 C100_4 1_555 1_555
H99_4 C119_4 1_555 1_555
H100_4 C120_4 1_555 1_555
C124_4 C119_4 1_555 1_555
C125_4 C120_4 1_555 1_555
H104_4 C124_4 1_555 1_555
H105_4 C125_4 1_555 1_555
C129_4 C124_4 1_555 1_555
C130_4 C125_4 1_555 1_555
O23_4 C130_4 1_555 1_555
O43_2 C129_4 1_555 1_555
O40_4 C130_4 1_555 1_555
O55_4 C79_4 1_555 1_555
O56_4 C80_4 1_555 1_555
O60_4 C109_4 1_555 1_555
O61_4 C110_4 1_555 1_555
Zn15_2 O23_4 1_555 1_555
Zn14_2 O40_4 1_555 1_555
C73_4 C75_4 1_555 1_555
C84_4 O55_4 1_555 1_555
C85_4 O56_4 1_555 1_555
C104_4 C109_4 1_555 1_555
C105_4 C110_4 1_555 1_555
C114_4 O60_4 1_555 1_555
C115_4 O61_4 1_555 1_555
C129_4 O27_2 1_555 1_555
C1_5 C2_5 1_555 1_555
C2_5 H1_5 1_555 1_555
C3_5 C2_5 1_555 1_555
H2_5 C3_5 1_555 1_555
C4_5 C3_5 1_555 1_555
C5_5 C4_5 1_555 1_555
H3_5 C5_5 1_555 1_555
C6_5 C5_5 1_555 1_555
H4_5 C6_5 1_555 1_555
C7_5 C6_5 1_555 1_555
C8_5 C7_5 1_555 1_555
C9_5 C4_5 1_555 1_555
H5_5 C9_5 1_555 1_555
C10_5 H6_5 1_555 1_555
H7_5 C10_5 1_555 1_555
C11_5 C10_5 1_555 1_555
C12_5 C11_5 1_555 1_555
H8_5 C12_5 1_555 1_555
H9_5 C12_5 1_555 1_555
C13_5 C14_5 1_555 1_555
C14_5 H10_5 1_555 1_555
C15_5 C14_5 1_555 1_555
H11_5 C15_5 1_555 1_555
C16_5 C15_5 1_555 1_555
C17_5 C16_5 1_555 1_555
H12_5 C17_5 1_555 1_555
C18_5 C13_5 1_555 1_555
C19_5 H13_5 1_555 1_555
H14_5 C19_5 1_555 1_555
H15_5 C19_5 1_555 1_555
C20_5 C16_5 1_555 1_555
H16_5 C20_5 1_555 1_555
C21_5 C20_5 1_555 1_555
H17_5 C21_5 1_555 1_555
C22_5 C21_5 1_555 1_555
O17_2 C1_5 1_555 1_555
O25_2 C22_5 1_555 1_555
O33_2 C1_5 1_555 1_555
O41_2 C22_5 1_555 1_555
O6_5 C7_5 1_555 1_555
O7_5 C12_5 1_555 1_555
O8_5 C18_5 1_555 1_555
O9_5 C8_5 1_555 1_555
C23_5 O9_5 1_555 1_555
H18_5 C23_5 1_555 1_555
H19_5 C23_5 1_555 1_555
H20_5 C23_5 1_555 1_555
C24_5 C29_5 1_555 1_555
C29_5 H21_5 1_555 1_555
C34_5 C29_5 1_555 1_555
H26_5 C34_5 1_555 1_555
C39_5 C34_5 1_555 1_555
C44_5 C39_5 1_555 1_555
H31_5 C44_5 1_555 1_555
C49_5 C44_5 1_555 1_555
H36_5 C49_5 1_555 1_555
C54_5 C49_5 1_555 1_555
C59_5 C54_5 1_555 1_555
C64_5 C39_5 1_555 1_555
H41_5 C64_5 1_555 1_555
C69_5 C11_5 1_555 1_555
H46_5 C69_5 1_555 1_555
H51_5 C69_5 1_555 1_555
C76_5 C11_5 1_555 1_555
H56_5 C76_5 1_555 1_555
H61_5 C76_5 1_555 1_555
C81_5 C86_5 1_555 1_555
C86_5 H66_5 1_555 1_555
C91_5 C86_5 1_555 1_555
H71_5 C91_5 1_555 1_555
C96_5 C91_5 1_555 1_555
C101_5 C96_5 1_555 1_555
H76_5 C101_5 1_555 1_555
C106_5 C81_5 1_555 1_555
C111_5 H81_5 1_555 1_555
H86_5 C111_5 1_555 1_555
H91_5 C111_5 1_555 1_555
C116_5 C96_5 1_555 1_555
H96_5 C116_5 1_555 1_555
C121_5 C116_5 1_555 1_555
H101_5 C121_5 1_555 1_555
C126_5 C121_5 1_555 1_555
O10_5 C24_5 1_555 1_555
O19_5 C126_5 1_555 1_555
O28_5 C24_5 1_555 1_555
O36_5 C126_5 1_555 1_555
O47_5 C54_5 1_555 1_555
O52_5 C76_5 1_555 1_555
O57_5 C106_5 1_555 1_555
O62_5 C59_5 1_555 1_555
Zn4_5 O10_5 1_555 1_555
Zn16_5 O28_5 1_555 1_555
Zn22_4 O36_5 1_555 1_555
Zn22_3 O19_5 1_555 1_555
C131_5 O62_5 1_555 1_555
H106_5 C131_5 1_555 1_555
H111_5 C131_5 1_555 1_555
H116_5 C131_5 1_555 1_555
C8_5 C9_5 1_555 1_555
C10_5 O6_5 1_555 1_555
C13_5 O7_5 1_555 1_555
C17_5 C18_5 1_555 1_555
C19_5 O8_5 1_555 1_555
C59_5 C64_5 1_555 1_555
C69_5 O47_5 1_555 1_555
C81_5 O52_5 1_555 1_555
C101_5 C106_5 1_555 1_555
C111_5 O57_5 1_555 1_555
C27_4 C32_4 1_555 1_555
C28_4 C33_4 1_555 1_555
C32_4 H24_4 1_555 1_555
C33_4 H25_4 1_555 1_555
C37_4 C32_4 1_555 1_555
C38_4 C33_4 1_555 1_555
H29_4 C37_4 1_555 1_555
H30_4 C38_4 1_555 1_555
C42_4 C37_4 1_555 1_555
C43_4 C38_4 1_555 1_555
C47_4 C42_4 1_555 1_555
H34_4 C47_4 1_555 1_555
C52_4 C47_4 1_555 1_555
H39_4 C52_4 1_555 1_555
C57_4 C52_4 1_555 1_555
C62_4 C57_4 1_555 1_555
C63_4 C58_4 1_555 1_555
C67_4 C42_4 1_555 1_555
C68_4 C43_4 1_555 1_555
H44_4 C67_4 1_555 1_555
H45_4 C68_4 1_555 1_555
C72_4 H49_4 1_555 1_555
H54_4 C72_4 1_555 1_555
O15_2 C27_4 1_555 1_555
O14_4 C28_4 1_555 1_555
O35_2 C27_4 1_555 1_555
O32_4 C28_4 1_555 1_555
O50_4 C57_4 1_555 1_555
O51_4 C58_4 1_555 1_555
O65_4 C62_4 1_555 1_555
O66_4 C63_4 1_555 1_555
Zn21_4 O32_4 1_555 1_555
C134_4 O65_4 1_555 1_555
C135_4 O66_4 1_555 1_555
H109_4 C134_4 1_555 1_555
H110_4 C135_4 1_555 1_555
H114_4 C134_4 1_555 1_555
H115_4 C135_4 1_555 1_555
H119_4 C134_4 1_555 1_555
H120_4 C135_4 1_555 1_555
C62_4 C67_4 1_555 1_555
C63_4 C68_4 1_555 1_555
C72_4 O50_4 1_555 1_555
C12_6 C11_6 1_555 1_555
H8_6 C12_6 1_555 1_555
H9_6 C12_6 1_555 1_555
C13_6 C14_6 1_555 1_555
C14_6 H10_6 1_555 1_555
C15_6 C14_6 1_555 1_555
H11_6 C15_6 1_555 1_555
C16_6 C15_6 1_555 1_555
C17_6 C16_6 1_555 1_555
H12_6 C17_6 1_555 1_555
C18_6 C13_6 1_555 1_555
C19_6 H13_6 1_555 1_555
H14_6 C19_6 1_555 1_555
H15_6 C19_6 1_555 1_555
C20_6 C16_6 1_555 1_555
H16_6 C20_6 1_555 1_555
C21_6 C20_6 1_555 1_555
H17_6 C21_6 1_555 1_555
C22_6 C21_6 1_555 1_555
O26_2 C22_6 1_555 1_555
O42_2 C22_6 1_555 1_555
O7_6 C12_6 1_555 1_555
O8_6 C18_6 1_555 1_555
H31_6 C44_6 1_555 1_555
C49_6 C44_6 1_555 1_555
H36_6 C49_6 1_555 1_555
C69_6 C11_6 1_555 1_555
H46_6 C69_6 1_555 1_555
H51_6 C69_6 1_555 1_555
C76_6 C11_6 1_555 1_555
H56_6 C76_6 1_555 1_555
H61_6 C76_6 1_555 1_555
C81_6 C86_6 1_555 1_555
C86_6 H66_6 1_555 1_555
C91_6 C86_6 1_555 1_555
H71_6 C91_6 1_555 1_555
C96_6 C91_6 1_555 1_555
C101_6 C96_6 1_555 1_555
H76_6 C101_6 1_555 1_555
C106_6 C81_6 1_555 1_555
C111_6 H81_6 1_555 1_555
H86_6 C111_6 1_555 1_555
H91_6 C111_6 1_555 1_555
C116_6 C96_6 1_555 1_555
H96_6 C116_6 1_555 1_555
C121_6 C116_6 1_555 1_555
H101_6 C121_6 1_555 1_555
C126_6 C121_6 1_555 1_555
O19_6 C126_6 1_555 1_555
O36_6 C126_6 1_555 1_555
O52_6 C76_6 1_555 1_555
O57_6 C106_6 1_555 1_555
Zn23_2 O36_6 1_555 1_555
Zn22_4 O19_6 1_555 1_555
C13_6 O7_6 1_555 1_555
C17_6 C18_6 1_555 1_555
C19_6 O8_6 1_555 1_555
C81_6 O52_6 1_555 1_555
C101_6 C106_6 1_555 1_555
C111_6 O57_6 1_555 1_555
C1_6 C2_6 1_555 1_555
C2_6 H1_6 1_555 1_555
C3_6 C2_6 1_555 1_555
H2_6 C3_6 1_555 1_555
C4_6 C3_6 1_555 1_555
C5_6 C4_6 1_555 1_555
H3_6 C5_6 1_555 1_555
C6_6 C5_6 1_555 1_555
H4_6 C6_6 1_555 1_555
C7_6 C6_6 1_555 1_555
C8_6 C7_6 1_555 1_555
C9_6 C4_6 1_555 1_555
H5_6 C9_6 1_555 1_555
C10_6 H6_6 1_555 1_555
H7_6 C10_6 1_555 1_555
O18_2 C1_6 1_555 1_555
O34_2 C1_6 1_555 1_555
O6_6 C7_6 1_555 1_555
O9_6 C8_6 1_555 1_555
C23_6 O9_6 1_555 1_555
H18_6 C23_6 1_555 1_555
H19_6 C23_6 1_555 1_555
H20_6 C23_6 1_555 1_555
C24_6 C29_6 1_555 1_555
C29_6 H21_6 1_555 1_555
C34_6 C29_6 1_555 1_555
H26_6 C34_6 1_555 1_555
C39_6 C34_6 1_555 1_555
C59_6 C54_6 1_555 1_555
C64_6 C39_6 1_555 1_555
H41_6 C64_6 1_555 1_555
O10_6 C24_6 1_555 1_555
O28_6 C24_6 1_555 1_555
O47_6 C54_6 1_555 1_555
O62_6 C59_6 1_555 1_555
Zn4_6 O10_6 1_555 1_555
Zn16_6 O28_6 1_555 1_555
C131_6 O62_6 1_555 1_555
H106_6 C131_6 1_555 1_555
H111_6 C131_6 1_555 1_555
H116_6 C131_6 1_555 1_555
C8_6 C9_6 1_555 1_555
C10_6 O6_6 1_555 1_555
C59_6 C64_6 1_555 1_555
C28_5 C33_5 1_555 1_555
C33_5 H25_5 1_555 1_555
C38_5 C33_5 1_555 1_555
H30_5 C38_5 1_555 1_555
C43_5 C38_5 1_555 1_555
C48_5 C43_5 1_555 1_555
H35_5 C48_5 1_555 1_555
C53_5 C48_5 1_555 1_555
H40_5 C53_5 1_555 1_555
C58_5 C53_5 1_555 1_555
C63_5 C58_5 1_555 1_555
C68_5 C43_5 1_555 1_555
H45_5 C68_5 1_555 1_555
C73_5 H50_5 1_555 1_555
H55_5 C73_5 1_555 1_555
C79_5 C75_5 1_555 1_555
H59_5 C79_5 1_555 1_555
H64_5 C79_5 1_555 1_555
C89_5 H69_5 1_555 1_555
C94_5 C89_5 1_555 1_555
H74_5 C94_5 1_555 1_555
C105_5 C100_5 1_555 1_555
H80_5 C105_5 1_555 1_555
C110_5 C85_5 1_555 1_555
C115_5 H85_5 1_555 1_555
H90_5 C115_5 1_555 1_555
H95_5 C115_5 1_555 1_555
C120_5 C100_5 1_555 1_555
C125_5 C120_5 1_555 1_555
H105_5 C125_5 1_555 1_555
C130_5 C125_5 1_555 1_555
O14_5 C28_5 1_555 1_555
O22_3 Zn16_5 1_555 1_555
O32_5 C28_5 1_555 1_555
O35_3 Zn22_4 1_555 1_555
O40_5 C130_5 1_555 1_555
O43_3 Zn16_5 1_555 1_555
O46_2 Zn22_4 1_555 1_555
O51_5 C58_5 1_555 1_555
O61_5 C110_5 1_555 1_555
O66_5 C63_5 1_555 1_555
Zn7_3 O14_5 1_555 1_555
Zn16_3 O40_5 1_555 1_555
Zn23 O32_5 1_555 1_555
C135_5 O66_5 1_555 1_555
H115_5 C135_5 1_555 1_555
H120_5 C135_5 1_555 1_555
C63_5 C68_5 1_555 1_555
C73_5 C75_5 1_555 1_555
C73_5 O51_5 1_555 1_555
C85_5 O56_5 1_555 1_555
C105_5 C110_5 1_555 1_555
C115_5 O61_5 1_555 1_555
O46_2 Zn22_3 1_555 1_555
C27_5 C32_5 1_555 1_555
C32_5 H24_5 1_555 1_555
C37_5 C32_5 1_555 1_555
H29_5 C37_5 1_555 1_555
C42_5 C37_5 1_555 1_555
C47_5 C42_5 1_555 1_555
H34_5 C47_5 1_555 1_555
C52_5 C47_5 1_555 1_555
H39_5 C52_5 1_555 1_555
C57_5 C52_5 1_555 1_555
C62_5 C57_5 1_555 1_555
C67_5 C42_5 1_555 1_555
H44_5 C67_5 1_555 1_555
C72_5 H49_5 1_555 1_555
H54_5 C72_5 1_555 1_555
H60_5 C80_5 1_555 1_555
H65_5 C80_5 1_555 1_555
C90_5 H70_5 1_555 1_555
C95_5 C90_5 1_555 1_555
H75_5 C95_5 1_555 1_555
C104_5 C99_5 1_555 1_555
H79_5 C104_5 1_555 1_555
C109_5 C84_5 1_555 1_555
C114_5 H84_5 1_555 1_555
H89_5 C114_5 1_555 1_555
H94_5 C114_5 1_555 1_555
C119_5 C99_5 1_555 1_555
C124_5 C119_5 1_555 1_555
H104_5 C124_5 1_555 1_555
C129_5 C124_5 1_555 1_555
O13_3 C27_5 1_555 1_555
O15_3 Zn3_3 1_555 1_555
O16_3 Zn3_3 1_555 1_555
O31_3 C27_5 1_555 1_555
O39_3 C129_5 1_555 1_555
O46_2 Zn3_3 1_555 1_555
O50_5 C57_5 1_555 1_555
O60_5 C109_5 1_555 1_555
O65_5 C62_5 1_555 1_555
Zn3_3 O13_3 1_555 1_555
Zn23_2 O31_3 1_555 1_555
Zn16_2 O23_5 1_555 1_555
C134_5 O65_5 1_555 1_555
H114_5 C134_5 1_555 1_555
H119_5 C134_5 1_555 1_555
C62_5 C67_5 1_555 1_555
C72_5 O50_5 1_555 1_555
C84_5 O55_5 1_555 1_555
C104_5 C109_5 1_555 1_555
C114_5 O60_5 1_555 1_555
O46_2 Zn23_2 1_555 1_555
O5_3 Zn4_4 1_555 1_555
O27_3 Zn16_4 1_555 1_555
Zn16_4 O5_3 1_555 1_555
C25_3 C30_3 1_555 1_555
C26_3 C31_3 1_555 1_555
C30_3 H22_3 1_555 1_555
C31_3 H23_3 1_555 1_555
C35_3 C30_3 1_555 1_555
C36_3 C31_3 1_555 1_555
H27_3 C35_3 1_555 1_555
H28_3 C36_3 1_555 1_555
C40_3 C35_3 1_555 1_555
C41_3 C36_3 1_555 1_555
C45_3 C40_3 1_555 1_555
C46_3 C41_3 1_555 1_555
H32_3 C45_3 1_555 1_555
H33_3 C46_3 1_555 1_555
C50_3 C45_3 1_555 1_555
C51_3 C46_3 1_555 1_555
H37_3 C50_3 1_555 1_555
H38_3 C51_3 1_555 1_555
C55_3 C50_3 1_555 1_555
C56_3 C51_3 1_555 1_555
C60_3 C55_3 1_555 1_555
C61_3 C56_3 1_555 1_555
C65_3 C40_3 1_555 1_555
C66_3 C41_3 1_555 1_555
H42_3 C65_3 1_555 1_555
H43_3 C66_3 1_555 1_555
C70_3 H47_3 1_555 1_555
C71_3 H48_3 1_555 1_555
H52_3 C70_3 1_555 1_555
H53_3 C71_3 1_555 1_555
C74_3 C70_3 1_555 1_555
C77_3 C74_3 1_555 1_555
C78_3 C74_3 1_555 1_555
H57_3 C77_3 1_555 1_555
H58_3 C78_3 1_555 1_555
H62_3 C77_3 1_555 1_555
H63_3 C78_3 1_555 1_555
C82_3 C87_3 1_555 1_555
C83_3 C88_3 1_555 1_555
C87_3 H67_3 1_555 1_555
C88_3 H68_3 1_555 1_555
C92_3 C87_3 1_555 1_555
C93_3 C88_3 1_555 1_555
H72_3 C92_3 1_555 1_555
H73_3 C93_3 1_555 1_555
C97_3 C92_3 1_555 1_555
C98_3 C93_3 1_555 1_555
C102_3 C97_3 1_555 1_555
C103_3 C98_3 1_555 1_555
H77_3 C102_3 1_555 1_555
H78_3 C103_3 1_555 1_555
C107_3 C82_3 1_555 1_555
C108_3 C83_3 1_555 1_555
C112_3 H82_3 1_555 1_555
C113_3 H83_3 1_555 1_555
H87_3 C112_3 1_555 1_555
H88_3 C113_3 1_555 1_555
H92_3 C112_3 1_555 1_555
H93_3 C113_3 1_555 1_555
C117_3 C97_3 1_555 1_555
C118_3 C98_3 1_555 1_555
H97_3 C117_3 1_555 1_555
H98_3 C118_3 1_555 1_555
C122_3 C117_3 1_555 1_555
C123_3 C118_3 1_555 1_555
H102_3 C122_3 1_555 1_555
H103_3 C123_3 1_555 1_555
C127_3 C122_3 1_555 1_555
C128_3 C123_3 1_555 1_555
O16_3 C25_3 1_555 1_555
O12_3 C26_3 1_555 1_555
O20_3 C127_3 1_555 1_555
O21_3 C128_3 1_555 1_555
O29_3 C25_3 1_555 1_555
O30_3 C26_3 1_555 1_555
O37_3 C127_3 1_555 1_555
O38_3 C128_3 1_555 1_555
O48_3 C55_3 1_555 1_555
O49_3 C56_3 1_555 1_555
O53_3 C77_3 1_555 1_555
O54_3 C78_3 1_555 1_555
O58_3 C107_3 1_555 1_555
O59_3 C108_3 1_555 1_555
O63_3 C60_3 1_555 1_555
O64_3 C61_3 1_555 1_555
Zn7_3 O12_3 1_555 1_555
Zn22_3 O29_3 1_555 1_555
Zn16 O21_3 1_555 1_555
Zn22_2 O30_3 1_555 1_555
C132_3 O63_3 1_555 1_555
C133_3 O64_3 1_555 1_555
H107_3 C132_3 1_555 1_555
H108_3 C133_3 1_555 1_555
H112_3 C132_3 1_555 1_555
H113_3 C133_3 1_555 1_555
H117_3 C132_3 1_555 1_555
H118_3 C133_3 1_555 1_555
C60_3 C65_3 1_555 1_555
C61_3 C66_3 1_555 1_555
C70_3 O48_3 1_555 1_555
C71_3 C74_3 1_555 1_555
C71_3 O49_3 1_555 1_555
C82_3 O53_3 1_555 1_555
C83_3 O54_3 1_555 1_555
C102_3 C107_3 1_555 1_555
C103_3 C108_3 1_555 1_555
C112_3 O58_3 1_555 1_555
C113_3 O59_3 1_555 1_555
O20_3 Zn16_6 1_555 1_555
C27_6 C32_6 1_555 1_555
C32_6 H24_6 1_555 1_555
C37_6 C32_6 1_555 1_555
H29_6 C37_6 1_555 1_555
C42_6 C37_6 1_555 1_555
C47_6 C42_6 1_555 1_555
H34_6 C47_6 1_555 1_555
C52_6 C47_6 1_555 1_555
H39_6 C52_6 1_555 1_555
C57_6 C52_6 1_555 1_555
C62_6 C57_6 1_555 1_555
C67_6 C42_6 1_555 1_555
H44_6 C67_6 1_555 1_555
C72_6 H49_6 1_555 1_555
H54_6 C72_6 1_555 1_555
H60_6 C80_6 1_555 1_555
H65_6 C80_6 1_555 1_555
C90_6 H70_6 1_555 1_555
C95_6 C90_6 1_555 1_555
H75_6 C95_6 1_555 1_555
C104_6 C99_6 1_555 1_555
H79_6 C104_6 1_555 1_555
C109_6 C84_6 1_555 1_555
C114_6 H84_6 1_555 1_555
H89_6 C114_6 1_555 1_555
H94_6 C114_6 1_555 1_555
C119_6 C99_6 1_555 1_555
C124_6 C119_6 1_555 1_555
H104_6 C124_6 1_555 1_555
C129_6 C124_6 1_555 1_555
O15_3 C27_6 1_555 1_555
O35_3 C27_6 1_555 1_555
O43_3 C129_6 1_555 1_555
O50_6 C57_6 1_555 1_555
O60_6 C109_6 1_555 1_555
O65_6 C62_6 1_555 1_555
Zn16_3 O23_6 1_555 1_555
C134_6 O65_6 1_555 1_555
H114_6 C134_6 1_555 1_555
H119_6 C134_6 1_555 1_555
C62_6 C67_6 1_555 1_555
C72_6 O50_6 1_555 1_555
C84_6 O55_6 1_555 1_555
C104_6 C109_6 1_555 1_555
C114_6 O60_6 1_555 1_555
C28_6 C33_6 1_555 1_555
C33_6 H25_6 1_555 1_555
C38_6 C33_6 1_555 1_555
H30_6 C38_6 1_555 1_555
C43_6 C38_6 1_555 1_555
C48_6 C43_6 1_555 1_555
H35_6 C48_6 1_555 1_555
C53_6 C48_6 1_555 1_555
H40_6 C53_6 1_555 1_555
C58_6 C53_6 1_555 1_555
C63_6 C58_6 1_555 1_555
C68_6 C43_6 1_555 1_555
H45_6 C68_6 1_555 1_555
C73_6 H50_6 1_555 1_555
H55_6 C73_6 1_555 1_555
C79_6 C75_6 1_555 1_555
H59_6 C79_6 1_555 1_555
H64_6 C79_6 1_555 1_555
C89_6 H69_6 1_555 1_555
C94_6 C89_6 1_555 1_555
H74_6 C94_6 1_555 1_555
C105_6 C100_6 1_555 1_555
H80_6 C105_6 1_555 1_555
C110_6 C85_6 1_555 1_555
C115_6 H85_6 1_555 1_555
H90_6 C115_6 1_555 1_555
H95_6 C115_6 1_555 1_555
C120_6 C100_6 1_555 1_555
C125_6 C120_6 1_555 1_555
H105_6 C125_6 1_555 1_555
C130_6 C125_6 1_555 1_555
O14_6 C28_6 1_555 1_555
O32_6 C28_6 1_555 1_555
O40_6 C130_6 1_555 1_555
O51_6 C58_6 1_555 1_555
O61_6 C110_6 1_555 1_555
O66_6 C63_6 1_555 1_555
Zn7_3 O14_6 1_555 1_555
Zn22 O32_6 1_555 1_555
C135_6 O66_6 1_555 1_555
H115_6 C135_6 1_555 1_555
H120_6 C135_6 1_555 1_555
C63_6 C68_6 1_555 1_555
C73_6 C75_6 1_555 1_555
C73_6 O51_6 1_555 1_555
C85_6 O56_6 1_555 1_555
C105_6 C110_6 1_555 1_555
C115_6 O61_6 1_555 1_555
O5_4 Zn4_6 1_555 1_555
Zn16_6 O5_4 1_555 1_555
O5_5 Zn4_5 1_555 1_555
Zn16_5 O5_5 1_555 1_555
O12 Zn6 1_555 1_555
O24_2 Zn21_2 1_555 1_555
O44_2 Zn6 1_555 1_555
O45 Zn7 1_555 1_555
Zn7 O14_2 1_555 1_555
Zn20 O44_2 1_555 1_555
O45 Zn21_2 1_555 1_555
C1_7 C2_7 1_555 1_555
C2_7 H1_7 1_555 1_555
C3_7 C2_7 1_555 1_555
H2_7 C3_7 1_555 1_555
C4_7 C3_7 1_555 1_555
C5_7 C4_7 1_555 1_555
H3_7 C5_7 1_555 1_555
C6_7 C5_7 1_555 1_555
H4_7 C6_7 1_555 1_555
C7_7 C6_7 1_555 1_555
C8_7 C7_7 1_555 1_555
C9_7 C4_7 1_555 1_555
H5_7 C9_7 1_555 1_555
C10_7 H6_7 1_555 1_555
H7_7 C10_7 1_555 1_555
C11_7 C10_7 1_555 1_555
C12_7 C11_7 1_555 1_555
H8_7 C12_7 1_555 1_555
H9_7 C12_7 1_555 1_555
C13_7 C14_7 1_555 1_555
C14_7 H10_7 1_555 1_555
C15_7 C14_7 1_555 1_555
H11_7 C15_7 1_555 1_555
C16_7 C15_7 1_555 1_555
C17_7 C16_7 1_555 1_555
H12_7 C17_7 1_555 1_555
C18_7 C13_7 1_555 1_555
C19_7 H13_7 1_555 1_555
H14_7 C19_7 1_555 1_555
H15_7 C19_7 1_555 1_555
C20_7 C16_7 1_555 1_555
H16_7 C20_7 1_555 1_555
C21_7 C20_7 1_555 1_555
H17_7 C21_7 1_555 1_555
C22_7 C21_7 1_555 1_555
O1_3 C1_7 1_555 1_555
O24_2 C22_7 1_555 1_555
O3_3 C1_7 1_555 1_555
O4_3 C22_7 1_555 1_555
O5_6 Zn1_3 1_555 1_555
O6_7 C7_7 1_555 1_555
O7_7 C12_7 1_555 1_555
O8_7 C18_7 1_555 1_555
O9_7 C8_7 1_555 1_555
Zn1_3 O1_3 1_555 1_555
Zn13 O3_3 1_555 1_555
C23_7 O9_7 1_555 1_555
H18_7 C23_7 1_555 1_555
H19_7 C23_7 1_555 1_555
H20_7 C23_7 1_555 1_555
C24_7 C29_7 1_555 1_555
C29_7 H21_7 1_555 1_555
C34_7 C29_7 1_555 1_555
H26_7 C34_7 1_555 1_555
C39_7 C34_7 1_555 1_555
C44_7 C39_7 1_555 1_555
H31_7 C44_7 1_555 1_555
C49_7 C44_7 1_555 1_555
H36_7 C49_7 1_555 1_555
C54_7 C49_7 1_555 1_555
C59_7 C54_7 1_555 1_555
C64_7 C39_7 1_555 1_555
H41_7 C64_7 1_555 1_555
C69_7 C11_7 1_555 1_555
H46_7 C69_7 1_555 1_555
H51_7 C69_7 1_555 1_555
C76_7 C11_7 1_555 1_555
H56_7 C76_7 1_555 1_555
H61_7 C76_7 1_555 1_555
C81_7 C86_7 1_555 1_555
C86_7 H66_7 1_555 1_555
C91_7 C86_7 1_555 1_555
H71_7 C91_7 1_555 1_555
C96_7 C91_7 1_555 1_555
C101_7 C96_7 1_555 1_555
H76_7 C101_7 1_555 1_555
C106_7 C81_7 1_555 1_555
C111_7 H81_7 1_555 1_555
H86_7 C111_7 1_555 1_555
H91_7 C111_7 1_555 1_555
C116_7 C96_7 1_555 1_555
H96_7 C116_7 1_555 1_555
C121_7 C116_7 1_555 1_555
H101_7 C121_7 1_555 1_555
C126_7 C121_7 1_555 1_555
O10_7 C24_7 1_555 1_555
O17_3 Zn1_3 1_555 1_555
O18_3 Zn1_3 1_555 1_555
O19_7 C126_7 1_555 1_555
O25_3 Zn21 1_555 1_555
O28_7 C24_7 1_555 1_555
O33_3 Zn14 1_555 1_555
O34_3 Zn15 1_555 1_555
O36_7 C126_7 1_555 1_555
O42_3 Zn21 1_555 1_555
O47_7 C54_7 1_555 1_555
O52_7 C76_7 1_555 1_555
O57_7 C106_7 1_555 1_555
O62_7 C59_7 1_555 1_555
Zn4_7 O10_7 1_555 1_555
Zn14 O5_6 1_555 1_555
Zn15 O5_6 1_555 1_555
Zn14_2 O28_7 1_555 1_555
Zn21_3 O19_7 1_555 1_555
C131_7 O62_7 1_555 1_555
H106_7 C131_7 1_555 1_555
H111_7 C131_7 1_555 1_555
H116_7 C131_7 1_555 1_555
C8_7 C9_7 1_555 1_555
C10_7 O6_7 1_555 1_555
C13_7 O7_7 1_555 1_555
C17_7 C18_7 1_555 1_555
C19_7 O8_7 1_555 1_555
O5_6 Zn13 1_555 1_555
C59_7 C64_7 1_555 1_555
C69_7 O47_7 1_555 1_555
C81_7 O52_7 1_555 1_555
C101_7 C106_7 1_555 1_555
C111_7 O57_7 1_555 1_555
O26_3 Zn20 1_555 1_555
C1_8 C2_8 1_555 1_555
C2_8 H1_8 1_555 1_555
C3_8 C2_8 1_555 1_555
H2_8 C3_8 1_555 1_555
C4_8 C3_8 1_555 1_555
C5_8 C4_8 1_555 1_555
H3_8 C5_8 1_555 1_555
C6_8 C5_8 1_555 1_555
H4_8 C6_8 1_555 1_555
C7_8 C6_8 1_555 1_555
C8_8 C7_8 1_555 1_555
C9_8 C4_8 1_555 1_555
H5_8 C9_8 1_555 1_555
C10_8 H6_8 1_555 1_555
H7_8 C10_8 1_555 1_555
C17_8 C16_8 1_555 1_555
H12_8 C17_8 1_555 1_555
C18_8 C13_8 1_555 1_555
C19_8 H13_8 1_555 1_555
H14_8 C19_8 1_555 1_555
H15_8 C19_8 1_555 1_555
C20_8 C16_8 1_555 1_555
C21_8 C20_8 1_555 1_555
H17_8 C21_8 1_555 1_555
C22_8 C21_8 1_555 1_555
O17_3 C1_8 1_555 1_555
O33_3 C1_8 1_555 1_555
O41_3 C22_8 1_555 1_555
O6_8 C7_8 1_555 1_555
O8_8 C18_8 1_555 1_555
O9_8 C8_8 1_555 1_555
C23_8 O9_8 1_555 1_555
H19_8 C23_8 1_555 1_555
H20_8 C23_8 1_555 1_555
H56_8 C76_8 1_555 1_555
H61_8 C76_8 1_555 1_555
C86_8 H66_8 1_555 1_555
C91_8 C86_8 1_555 1_555
H71_8 C91_8 1_555 1_555
O46_3 Zn6_2 1_555 1_555
Zn6_2 O14 1_555 1_555
Zn21_4 O19_8 1_555 1_555
C8_8 C9_8 1_555 1_555
C10_8 O6_8 1_555 1_555
C13_8 O7_8 1_555 1_555
C17_8 C18_8 1_555 1_555
C19_8 O8_8 1_555 1_555
O46_3 Zn21 1_555 1_555
C12_8 C11_8 1_555 1_555
H8_8 C12_8 1_555 1_555
H9_8 C12_8 1_555 1_555
C14_8 H10_8 1_555 1_555
C15_8 C14_8 1_555 1_555
H11_8 C15_8 1_555 1_555
C24_8 C29_8 1_555 1_555
C29_8 H21_8 1_555 1_555
C34_8 C29_8 1_555 1_555
H26_8 C34_8 1_555 1_555
C39_8 C34_8 1_555 1_555
C44_8 C39_8 1_555 1_555
H31_8 C44_8 1_555 1_555
C49_8 C44_8 1_555 1_555
H36_8 C49_8 1_555 1_555
C54_8 C49_8 1_555 1_555
C59_8 C54_8 1_555 1_555
C64_8 C39_8 1_555 1_555
H41_8 C64_8 1_555 1_555
C69_8 C11_8 1_555 1_555
H46_8 C69_8 1_555 1_555
H51_8 C69_8 1_555 1_555
C101_8 C96_8 1_555 1_555
H76_8 C101_8 1_555 1_555
C106_8 C81_8 1_555 1_555
C111_8 H81_8 1_555 1_555
H86_8 C111_8 1_555 1_555
H91_8 C111_8 1_555 1_555
C116_8 C96_8 1_555 1_555
C121_8 C116_8 1_555 1_555
H101_8 C121_8 1_555 1_555
C126_8 C121_8 1_555 1_555
O10_8 C24_8 1_555 1_555
O28_8 C24_8 1_555 1_555
O36_8 C126_8 1_555 1_555
O47_8 C54_8 1_555 1_555
O57_8 C106_8 1_555 1_555
O62_8 C59_8 1_555 1_555
Zn4_7 O10_8 1_555 1_555
Zn13_2 O28_8 1_555 1_555
Zn20_2 O36_8 1_555 1_555
C131_8 O62_8 1_555 1_555
H111_8 C131_8 1_555 1_555
H116_8 C131_8 1_555 1_555
C59_8 C64_8 1_555 1_555
C69_8 O47_8 1_555 1_555
C81_8 O52_8 1_555 1_555
C101_8 C106_8 1_555 1_555
C111_8 O57_8 1_555 1_555
C12_9 C11_9 1_555 1_555
H8_9 C12_9 1_555 1_555
H9_9 C12_9 1_555 1_555
C14_9 H10_9 1_555 1_555
C15_9 C14_9 1_555 1_555
H11_9 C15_9 1_555 1_555
C24_9 C29_9 1_555 1_555
C29_9 H21_9 1_555 1_555
C34_9 C29_9 1_555 1_555
H26_9 C34_9 1_555 1_555
C39_9 C34_9 1_555 1_555
C44_9 C39_9 1_555 1_555
H31_9 C44_9 1_555 1_555
C49_9 C44_9 1_555 1_555
H36_9 C49_9 1_555 1_555
C54_9 C49_9 1_555 1_555
C59_9 C54_9 1_555 1_555
C64_9 C39_9 1_555 1_555
H41_9 C64_9 1_555 1_555
C69_9 C11_9 1_555 1_555
H46_9 C69_9 1_555 1_555
H51_9 C69_9 1_555 1_555
C101_9 C96_9 1_555 1_555
H76_9 C101_9 1_555 1_555
C106_9 C81_9 1_555 1_555
C111_9 H81_9 1_555 1_555
H86_9 C111_9 1_555 1_555
H91_9 C111_9 1_555 1_555
C116_9 C96_9 1_555 1_555
C121_9 C116_9 1_555 1_555
H101_9 C121_9 1_555 1_555
C126_9 C121_9 1_555 1_555
O10_9 C24_9 1_555 1_555
O28_9 C24_9 1_555 1_555
O36_9 C126_9 1_555 1_555
O47_9 C54_9 1_555 1_555
O57_9 C106_9 1_555 1_555
O62_9 C59_9 1_555 1_555
Zn4_7 O10_9 1_555 1_555
Zn15_2 O28_9 1_555 1_555
C131_9 O62_9 1_555 1_555
H111_9 C131_9 1_555 1_555
H116_9 C131_9 1_555 1_555
C59_9 C64_9 1_555 1_555
C69_9 O47_9 1_555 1_555
C81_9 O52_9 1_555 1_555
C101_9 C106_9 1_555 1_555
C111_9 O57_9 1_555 1_555
C1_9 C2_9 1_555 1_555
C2_9 H1_9 1_555 1_555
C3_9 C2_9 1_555 1_555
H2_9 C3_9 1_555 1_555
C4_9 C3_9 1_555 1_555
C5_9 C4_9 1_555 1_555
H3_9 C5_9 1_555 1_555
C6_9 C5_9 1_555 1_555
H4_9 C6_9 1_555 1_555
C7_9 C6_9 1_555 1_555
C8_9 C7_9 1_555 1_555
C9_9 C4_9 1_555 1_555
H5_9 C9_9 1_555 1_555
C10_9 H6_9 1_555 1_555
H7_9 C10_9 1_555 1_555
C17_9 C16_9 1_555 1_555
H12_9 C17_9 1_555 1_555
C18_9 C13_9 1_555 1_555
C19_9 H13_9 1_555 1_555
H14_9 C19_9 1_555 1_555
H15_9 C19_9 1_555 1_555
C20_9 C16_9 1_555 1_555
C21_9 C20_9 1_555 1_555
H17_9 C21_9 1_555 1_555
C22_9 C21_9 1_555 1_555
O18_3 C1_9 1_555 1_555
O34_3 C1_9 1_555 1_555
O42_3 C22_9 1_555 1_555
O6_9 C7_9 1_555 1_555
O8_9 C18_9 1_555 1_555
O9_9 C8_9 1_555 1_555
C23_9 O9_9 1_555 1_555
H19_9 C23_9 1_555 1_555
H20_9 C23_9 1_555 1_555
H56_9 C76_9 1_555 1_555
H61_9 C76_9 1_555 1_555
C86_9 H66_9 1_555 1_555
C91_9 C86_9 1_555 1_555
H71_9 C91_9 1_555 1_555
Zn20_2 O19_9 1_555 1_555
C8_9 C9_9 1_555 1_555
C10_9 O6_9 1_555 1_555
C13_9 O7_9 1_555 1_555
C17_9 C18_9 1_555 1_555
C19_9 O8_9 1_555 1_555
C76_8 C11_10 1_555 1_555
C10_8 C11_10 1_555 1_555
O5_7 Zn4_7 1_555 1_555
Zn14_2 O5_7 1_555 1_555
Zn15_2 O5_7 1_555 1_555
O5_7 Zn13_2 1_555 1_555
O12_2 Zn6_4 1_555 1_555
O44_3 Zn6_4 1_555 1_555
O45_2 Zn6_3 1_555 1_555
Zn6_3 O14_4 1_555 1_555
Zn20_2 O44_3 1_555 1_555
O45_2 Zn21_4 1_555 1_555
O46_4 Zn7_2 1_555 1_555
Zn7_2 O14_3 1_555 1_555
O46_4 Zn21_3 1_555 1_555
C76_9 C11_11 1_555 1_555
C10_9 C11_11 1_555 1_555
C80_6 C74_4 1_555 1_555
O44_4 Zn7_3 1_555 1_555
Zn22_2 O44_4 1_555 1_555
Zn22 O44_4 1_555 1_555
C72_6 C74_4 1_555 1_555
O44_4 Zn23 1_555 1_555
C80_5 C75_7 1_555 1_555
C72_5 C75_7 1_555 1_555
O5_8 Zn4 1_555 1_555
Zn16 O5_8 1_555 1_555
O5_9 Zn4_3 1_555 1_555
Zn16_3 O5_9 1_555 1_555
O5_10 Zn4_2 1_555 1_555
Zn16_2 O5_10 1_555 1_555

#END
