
###############################################################################
#
# This file contains modified crystal structure data generated from the
# MOF subset of the Cambridge Structural Database (CSD) v543 
# hosted by the Cambridge Crystallographic Data Centre (CCDC).
#
# This work is licensed under the Creative Commons
# Attribution-NonCommercial-ShareAlike 4.0 International License.
# To view a copy of this license, visit
# http://creativecommons.org/licenses/by-nc-sa/4.0/
# or send a letter to
# Creative Commons, PO Box 1866, Mountain View, CA 94042, USA.
#
# CIF created using the CSD Python API on 29 September 2022
# The structure has been converted into the P1 space group
# The structure has a 3D framework
# The original CSD entry LEJCAG is in the rhombohedral crystal system
# The framework has been calculated to contain at least 10.0% void space
# The void calculation uses a probe of radius 1.32A, grid spacing 0.4
#
###############################################################################

data_LEJCAG
_chemical_formula_moiety         '(C670 H576 O299 Zn46)n'
_symmetry_cell_setting           triclinic
_symmetry_space_group_name_H-M   'P 1'
_symmetry_Int_Tables_number      1
_space_group_name_Hall           'P 1'
loop_
_symmetry_equiv_pos_site_id
_symmetry_equiv_pos_as_xyz
1 x,y,z
_cell_length_a                   26.880(3)
_cell_length_b                   26.880(3)
_cell_length_c                   85.169(4)
_cell_angle_alpha                90
_cell_angle_beta                 90
_cell_angle_gamma                120
_cell_volume                     53293.1
loop_
_atom_site_label
_atom_site_type_symbol
_atom_site_fract_x
_atom_site_fract_y
_atom_site_fract_z
Zn1 Zn 0.0000 -0.0000 0.138519(7)
Zn2 Zn 0.063799(18) 0.072106(18) 0.168696(4)
O1 O 0.0000 -0.0000 0.16131(3)
C1 C 0.3526(2) 0.3333 0.0833
O2 O 0.27162(13) 0.29296(11) 0.10128(3)
C2 C 0.2282(2) 0.2470(2) 0.10880(6)
O3 O 0.10400(13) 0.12227(12) 0.15142(3)
C3 C 0.29452(16) 0.28117(15) 0.08721(4)
H1 H 0.2682 0.2729 0.0785
H2 H 0.2989 0.2479 0.0889
O4 O 0.39489(12) 0.30186(15) 0.10155(3)
C4 C 0.1446(2) 0.1602(2) 0.12689(6)
O5 O 0.58849(14) 0.36896(13) 0.15225(3)
C5 C 0.5106(3) 0.3148(3) 0.13505(6)
C6 C 0.39175(17) 0.35183(18) 0.09742(4)
H3 H 0.3759 0.3633 0.1059
H4 H 0.4295 0.3836 0.0948
C7 C 0.4762(2) 0.2655(2) 0.12761(7)
H5 H 0.4789 0.2331 0.1298
C8 C 0.4337(3) 0.3089(3) 0.11284(6)
C9 C 0.5061(2) 0.3627(3) 0.13187(6)
H6 H 0.5287 0.3971 0.1371
C10 C 0.4373(3) 0.2617(3) 0.11683(7)
C11 C 0.1938(2) 0.1952(3) 0.10268(5)
H7 H 0.1990 0.1877 0.0923
C12 C 0.4669(3) 0.3582(2) 0.12048(7)
H8 H 0.4637 0.3902 0.1181
O6 O 0.2552(2) 0.3095(2) 0.12973(5)
C13 C 0.1505(2) 0.15257(19) 0.11148(6)
H9 H 0.1249 0.1179 0.1067
C14 C 0.2189(3) 0.2529(3) 0.12421(8)
C15 C 0.5539(3) 0.3199(3) 0.14655(7)
C16 C 0.1790(3) 0.2111(3) 0.13318(6)
H10 H 0.1755 0.2177 0.1437
O7 O 0.55396(13) 0.27390(16) 0.15041(4)
O8 O 0.06531(13) 0.06733(14) 0.12990(3)
O9 O 0.4009(2) 0.21263(18) 0.10892(5)
C17 C 0.0998(2) 0.1139(2) 0.13668(6)
C18 C 0.4224(4) 0.1669(4) 0.10833(10)
H11 H 0.3959 0.1342 0.1022
H12 H 0.4598 0.1842 0.1035
H13 H 0.4244 0.1548 0.1188
C19 C 0.2504(5) 0.3232(3) 0.14580(10)
H14 H 0.2772 0.3630 0.1477
H15 H 0.2586 0.2999 0.1527
H16 H 0.2121 0.3158 0.1477
Zn4 Zn 0.3333 0.6667 0.028148(7)
Zn7 Zn 0.3333 0.6667 0.305186(7)
Zn10 Zn 0.602868(18) 0.261227(18) 0.164637(4)
Zn15 Zn 0.072106(18) 0.063799(18) 0.331304(4)
Zn19 Zn 0.658360(25) 0.397132(18) 0.164637(4)
Zn20 Zn 0.674974(25) 0.405439(18) 0.002029(4)
Zn21 Zn 0.594561(18) 0.269534(18) 0.002029(4)
Zn23 Zn 0.261227(18) 0.602868(18) 0.335363(4)
O12 O 0.6667 0.3333 0.17202(3)
C20 C -0.0000 0.3140(2) 0.2500
O13 O 0.31199(17) 0.37371(11) 0.06539(3)
O15 O 0.04037(11) 0.39505(13) 0.26795(3)
C22 C 0.3145(3) 0.4197(2) 0.05787(6)
C24 C 0.0863(2) 0.4385(2) 0.27547(6)
O18 O 0.31506(18) 0.54440(12) 0.01525(3)
O20 O 0.21106(12) 0.56267(13) 0.31809(3)
O25 O 0.56267(13) 0.21106(12) 0.18191(3)
C27 C 0.34668(22) 0.38550(15) 0.07946(4)
C29 C 0.05216(15) 0.37215(16) 0.25388(4)
H17 H 0.3286 0.3938 0.0882
H19 H 0.0604 0.3985 0.2452
H22 H 0.3843 0.4188 0.0778
H24 H 0.0854 0.3678 0.2556
O26 O 0.42636(19) 0.36481(15) 0.06512(3)
O28 O 0.03147(15) 0.27178(12) 0.26822(3)
C32 C 0.3177(3) 0.5065(2) 0.03978(6)
C34 C 0.1731(2) 0.5221(2) 0.29356(6)
O31 O 0.55286(19) 0.29771(13) 0.01442(3)
O32 O 0.03563(13) 0.11380(19) 0.18108(3)
O37 O 0.63104(13) 0.21953(19) 0.15225(3)
C37 C 0.5291(4) 0.3519(3) 0.03162(6)
C39 C 0.0185(3) 0.1561(3) 0.30172(6)
C42 C 0.37325(25) 0.31484(18) 0.06925(4)
C43 C 0.01850(18) 0.29341(25) 0.23591(4)
H27 H 0.3459 0.3034 0.0608
H28 H 0.0300 0.3207 0.2274
H32 H 0.3792 0.2831 0.0719
H33 H 0.0503 0.2874 0.2385
C47 C 0.5440(3) 0.4012(2) 0.03906(7)
C49 C 0.0678(2) 0.1905(2) 0.29428(7)
H37 H 0.5791 0.4336 0.0369
H39 H 0.1002 0.1878 0.2965
C52 C 0.4581(4) 0.3578(3) 0.05383(6)
C54 C 0.0244(3) 0.2330(3) 0.27951(6)
C57 C 0.4767(4) 0.3040(3) 0.03480(6)
C58 C 0.0294(3) 0.1899(4) 0.20146(6)
H42 H 0.4649 0.2696 0.0296
H43 H 0.0638 0.2017 0.1962
C62 C 0.5089(4) 0.4050(3) 0.04984(7)
C64 C 0.0716(3) 0.2294(3) 0.28350(7)
C67 C 0.3319(4) 0.4715(3) 0.06399(5)
C69 C 0.1381(3) 0.4729(2) 0.26935(5)
H47 H 0.3446 0.4790 0.0744
H49 H 0.1456 0.4677 0.2590
C72 C 0.4420(4) 0.3085(2) 0.04619(7)
C73 C 0.0249(2) 0.2246(4) 0.21285(7)
H52 H 0.4068 0.2765 0.0486
H53 H 0.0569 0.2598 0.2152
O40 O 0.2790(3) 0.3572(2) 0.03694(5)
O42 O 0.0238(2) 0.4115(2) 0.29640(5)
C77 C 0.33126(28) 0.51410(19) 0.05519(6)
C79 C 0.18076(19) 0.5162(2) 0.27815(6)
H57 H 0.3403 0.5488 0.0600
H59 H 0.2154 0.5418 0.2734
C82 C 0.2993(4) 0.4138(3) 0.04246(8)
C84 C 0.0804(3) 0.4478(3) 0.29088(8)
C87 C 0.5673(4) 0.3468(3) 0.02012(7)
C89 C 0.0134(3) 0.1128(3) 0.31322(7)
C92 C 0.3012(4) 0.4556(3) 0.03349(6)
C94 C 0.1222(3) 0.4877(3) 0.29985(6)
H62 H 0.2911 0.4490 0.0230
H64 H 0.1156 0.4912 0.3104
O45 O 0.61339(21) 0.39277(16) 0.01626(4)
O47 O 0.05943(16) 0.11271(13) 0.31708(4)
O52 O 0.11271(13) 0.05943(16) 0.18292(4)
O53 O 0.33131(19) 0.59934(14) 0.03677(3)
O55 O 0.26600(14) 0.60136(13) 0.29657(3)
O62 O 0.52160(27) 0.45404(18) 0.05775(5)
O64 O 0.12070(18) 0.2658(2) 0.27559(5)
C97 C 0.3192(3) 0.5528(2) 0.02999(6)
C99 C 0.2194(2) 0.5669(2) 0.30335(6)
C102 C 0.5888(6) 0.4998(4) 0.05834(10)
C104 C 0.1664(4) 0.2443(4) 0.27500(10)
H67 H 0.5950 0.5325 0.0645
H69 H 0.1991 0.2708 0.2689
H72 H 0.6089 0.4825 0.0632
H74 H 0.1491 0.2069 0.2702
H77 H 0.6029 0.5119 0.0479
H79 H 0.1785 0.2423 0.2855
C107 C 0.2605(6) 0.3435(3) 0.02087(10)
C109 C 0.0101(3) 0.4163(5) 0.31247(10)
H82 H 0.2475 0.3037 0.0190
H83 H 0.0297 0.4191 0.1856
H87 H 0.2920 0.3668 0.0140
H89 H 0.0334 0.4081 0.3194
H92 H 0.2296 0.3509 0.0190
H94 H 0.0175 0.4546 0.3144
Zn16 Zn 0.325026(25) 0.594561(18) 0.997971(4)
Zn1_2 Zn -0.0000 1.0000 0.138519(7)
O1_2 O -0.0000 1.0000 0.16131(3)
Zn9 Zn 0.008307(25) 0.936201(18) 0.168696(4)
O23 O 0.01827(18) 0.89600(13) 0.15142(3)
O39 O 0.07818(14) 0.96437(13) 0.18108(3)
O60 O 0.00202(19) 0.93469(13) 0.12990(3)
Zn1_3 Zn 1.0000 -0.0000 0.138519(7)
O1_3 O 1.0000 -0.0000 0.16131(3)
Zn5 Zn 0.6667 0.3333 0.194814(7)
Zn11 Zn 0.738773(18) 0.341640(25) 0.164637(4)
Zn14 Zn 0.936201(18) 0.008307(25) 0.331304(4)
C20_2 C 1.0000 0.3140(2) 0.2500
O14 O 0.95963(11) 0.35467(17) 0.23205(3)
C23 C 0.9137(2) 0.3521(3) 0.22453(6)
O19 O 0.78894(12) 0.35160(18) 0.18191(3)
C28 C 0.94784(15) 0.31998(22) 0.24612(4)
H18 H 0.9396 0.3380 0.2548
H23 H 0.9146 0.2823 0.2444
O27 O 0.96853(15) 0.24030(19) 0.23178(3)
C33 C 0.8269(2) 0.3489(3) 0.20644(6)
O33 O 0.96437(13) 0.07818(14) 0.31892(3)
O38 O 0.78047(19) 0.41151(14) 0.15225(3)
C38 C 0.9815(3) 0.1375(4) 0.19828(6)
C44 C 0.98150(18) 0.27492(17) 0.26409(4)
H29 H 0.9700 0.2908 0.2726
H34 H 0.9497 0.2372 0.2615
C48 C 0.9322(2) 0.1226(3) 0.20572(7)
H38 H 0.8998 0.0875 0.2035
C53 C 0.9756(3) 0.2085(4) 0.22049(6)
C59 C 0.9706(3) 0.1606(2) 0.29854(6)
H44 H 0.9362 0.1380 0.3038
C63 C 0.9284(3) 0.1577(4) 0.21650(7)
C68 C 0.8619(3) 0.3347(4) 0.23065(5)
H48 H 0.8544 0.3220 0.2410
C74 C 0.9751(2) 0.1998(3) 0.28715(7)
H54 H 0.9431 0.2030 0.2848
O41 O 0.9762(2) 0.3876(3) 0.20360(5)
C78 C 0.81924(19) 0.33540(28) 0.22185(6)
H58 H 0.7846 0.3263 0.2266
C83 C 0.9196(3) 0.3673(4) 0.20912(8)
C88 C 0.9866(3) 0.0993(4) 0.18678(7)
C93 C 0.8778(3) 0.3654(4) 0.20015(6)
H63 H 0.8844 0.3755 0.1896
O46 O 0.94057(16) 0.05327(21) 0.18292(4)
O51 O 0.72610(16) 0.28006(21) 0.15041(4)
O54 O 0.73400(14) 0.33535(19) 0.20343(3)
O63 O 0.87930(18) 0.14506(27) 0.22441(5)
C98 C 0.7806(2) 0.3474(3) 0.19665(6)
C103 C 0.8336(4) 0.0778(6) 0.22500(10)
H68 H 0.8009 0.0716 0.2311
H73 H 0.8509 0.0577 0.2298
H78 H 0.8215 0.0637 0.2145
C108 C 0.9899(3) 0.4061(6) 0.18753(10)
H84 H 0.9703 0.3895 0.3144
H88 H 0.9666 0.3746 0.1806
H93 H 0.9825 0.4370 0.1856
Zn1_4 Zn 1.0000 1.0000 0.138519(7)
O1_4 O 1.0000 1.0000 0.16131(3)
Zn8 Zn 0.927894(18) 0.991693(25) 0.168696(4)
Zn13 Zn 0.991693(25) 0.927894(18) 0.331304(4)
Zn22 Zn 0.397132(18) 0.658360(25) 0.335363(4)
C21 C 0.6860(2) 0.6859(2) 0.2500
O16 O 0.64533(17) 0.60495(13) 0.23205(3)
O17 O 0.60495(13) 0.64533(17) 0.26795(3)
C25 C 0.6479(3) 0.5615(2) 0.22453(6)
C26 C 0.5615(2) 0.6479(3) 0.27547(6)
O21 O 0.64840(18) 0.43733(13) 0.18191(3)
O22 O 0.43733(13) 0.64840(18) 0.31809(3)
O24 O 0.87773(12) 0.98173(18) 0.15142(3)
C30 C 0.68002(22) 0.62785(16) 0.24612(4)
C31 C 0.62785(16) 0.68002(22) 0.25388(4)
H20 H 0.6620 0.6015 0.2548
H21 H 0.6015 0.6620 0.2452
H25 H 0.7177 0.6322 0.2444
H26 H 0.6322 0.7177 0.2556
O29 O 0.75970(19) 0.72822(12) 0.23178(3)
O30 O 0.72822(12) 0.75970(19) 0.26822(3)
C35 C 0.6511(3) 0.4779(2) 0.20644(6)
C36 C 0.4779(2) 0.6511(3) 0.29356(6)
O34 O 0.88620(19) 0.92182(14) 0.18108(3)
O35 O 0.92182(14) 0.88620(19) 0.31892(3)
C40 C 0.8625(4) 0.8439(3) 0.19828(6)
C41 C 0.8439(3) 0.8625(4) 0.30172(6)
C45 C 0.70659(25) 0.72508(17) 0.23591(4)
C46 C 0.72508(17) 0.70659(25) 0.26409(4)
H30 H 0.6793 0.7092 0.2274
H31 H 0.7092 0.6793 0.2726
H35 H 0.7126 0.7628 0.2385
H36 H 0.7628 0.7126 0.2615
C50 C 0.8774(3) 0.8095(2) 0.20572(7)
C51 C 0.8095(2) 0.8774(3) 0.29428(7)
H40 H 0.9125 0.8122 0.2035
H41 H 0.8122 0.9125 0.2965
C55 C 0.7915(4) 0.7670(3) 0.22049(6)
C56 C 0.7670(3) 0.7915(4) 0.27951(6)
C60 C 0.8101(4) 0.8394(2) 0.20146(6)
C61 C 0.8394(2) 0.8101(4) 0.29854(6)
H45 H 0.7983 0.8620 0.1962
H46 H 0.8620 0.7983 0.3038
C65 C 0.8423(4) 0.7706(3) 0.21650(7)
C66 C 0.7706(3) 0.8423(4) 0.28350(7)
C70 C 0.6653(4) 0.5271(2) 0.23065(5)
C71 C 0.5271(2) 0.6653(4) 0.26935(5)
H50 H 0.6780 0.5323 0.2410
H51 H 0.5323 0.6780 0.2590
C75 C 0.7754(4) 0.8002(3) 0.21285(7)
C76 C 0.8002(3) 0.7754(4) 0.28715(7)
H55 H 0.7402 0.7970 0.2152
H56 H 0.7970 0.7402 0.2848
O43 O 0.6124(3) 0.5885(2) 0.20360(5)
O44 O 0.5885(2) 0.6124(3) 0.29640(5)
C80 C 0.66460(28) 0.4838(2) 0.22185(6)
C81 C 0.4838(2) 0.66460(28) 0.27815(6)
H60 H 0.6737 0.4582 0.2266
H61 H 0.4582 0.6737 0.2734
C85 C 0.6327(4) 0.5522(3) 0.20912(8)
C86 C 0.5522(3) 0.6327(4) 0.29088(8)
C90 C 0.9007(4) 0.8872(3) 0.18678(7)
C91 C 0.8872(3) 0.9007(4) 0.31322(7)
C95 C 0.6346(4) 0.5123(3) 0.20015(6)
C96 C 0.5123(3) 0.6346(4) 0.29985(6)
H65 H 0.6245 0.5088 0.1896
H66 H 0.5088 0.6245 0.3104
O48 O 0.94673(21) 0.88729(13) 0.18292(4)
O49 O 0.88729(13) 0.94673(21) 0.31708(4)
O50 O 0.71994(21) 0.44604(13) 0.15041(4)
O56 O 0.66465(19) 0.39864(13) 0.20343(3)
O57 O 0.39864(13) 0.66465(19) 0.29657(3)
O58 O 0.60136(13) 0.26600(14) 0.20343(3)
O61 O 0.93267(14) 0.99798(19) 0.12990(3)
O65 O 0.85494(27) 0.7342(2) 0.22441(5)
O66 O 0.7342(2) 0.85494(27) 0.27559(5)
C100 C 0.6526(3) 0.4331(2) 0.19665(6)
C101 C 0.4331(2) 0.6526(3) 0.30335(6)
C105 C 0.9222(6) 0.7557(4) 0.22500(10)
C106 C 0.7557(4) 0.9222(6) 0.27500(10)
H70 H 0.9284 0.7292 0.2311
H71 H 0.7292 0.9284 0.2689
H75 H 0.9423 0.7931 0.2298
H76 H 0.7931 0.9423 0.2702
H80 H 0.9363 0.7577 0.2145
H81 H 0.7577 0.9363 0.2855
C110 C 0.5939(6) 0.5837(5) 0.18753(10)
C111 C 0.5837(5) 0.5939(6) 0.31247(10)
H85 H 0.5809 0.6105 0.1856
H86 H 0.6105 0.5809 0.3144
H90 H 0.6254 0.5919 0.1806
H91 H 0.5919 0.6254 0.3194
H95 H 0.5630 0.5454 0.1856
H96 H 0.5454 0.5630 0.3144
C21_2 C 0.3141(2) 0.0000(3) 0.2500
O16_2 O 0.39505(13) 0.04037(21) 0.23205(3)
C25_2 C 0.4385(2) 0.0863(4) 0.22453(6)
C30_2 C 0.37215(16) 0.05216(27) 0.24612(4)
H20_2 H 0.3985 0.0604 0.2548
H25_2 H 0.3678 0.0854 0.2444
O29_2 O 0.27178(12) 0.03147(22) 0.23178(3)
C35_2 C 0.5221(2) 0.1731(4) 0.20644(6)
O35_2 O 0.11380(19) 0.03563(24) 0.31892(3)
C40_2 C 0.1561(3) 0.0185(5) 0.19828(6)
C46_2 C 0.29341(25) 0.01850(30) 0.26409(4)
H31_2 H 0.3207 0.0300 0.2726
H36_2 H 0.2874 0.0503 0.2615
C50_2 C 0.1905(2) 0.0678(4) 0.20572(7)
H40_2 H 0.1878 0.1002 0.2035
C55_2 C 0.2330(3) 0.0244(5) 0.22049(6)
C61_2 C 0.1899(4) 0.0294(4) 0.29854(6)
H46_2 H 0.2017 0.0638 0.3038
C65_2 C 0.2294(3) 0.0716(5) 0.21650(7)
C70_2 C 0.4729(2) 0.1381(4) 0.23065(5)
H50_2 H 0.4677 0.1456 0.2410
C76_2 C 0.2246(4) 0.0249(5) 0.28715(7)
H56_2 H 0.2598 0.0569 0.2848
O43_2 O 0.4115(2) 0.0238(4) 0.20360(5)
C80_2 C 0.5162(2) 0.18076(34) 0.22185(6)
H60_2 H 0.5418 0.2154 0.2266
C85_2 C 0.4478(3) 0.0804(5) 0.20912(8)
C90_2 C 0.1128(3) 0.0134(5) 0.18678(7)
C95_2 C 0.4877(3) 0.1222(5) 0.20015(6)
H65_2 H 0.4912 0.1156 0.1896
O65_2 O 0.2658(2) 0.12070(34) 0.22441(5)
C100_2 C 0.5669(2) 0.2194(4) 0.19665(6)
C105_2 C 0.2443(4) 0.1664(7) 0.22500(10)
H70_2 H 0.2708 0.1991 0.2311
H75_2 H 0.2069 0.1491 0.2298
H80_2 H 0.2423 0.1785 0.2145
C110_2 C 0.4163(5) 0.0101(8) 0.18753(10)
H86_2 H 0.4191 0.0297 0.3144
H90_2 H 0.4081 0.0334 0.1806
H95_2 H 0.4546 0.0175 0.1856
Zn22_2 Zn 0.341640(25) 0.738773(31) 0.335363(4)
C21_3 C 0.3141(2) 1.0000(3) 0.2500
O17_2 O 0.35467(17) 0.95963(21) 0.26795(3)
C26_2 C 0.3521(3) 0.9137(4) 0.27547(6)
O22_2 O 0.35160(18) 0.78894(22) 0.31809(3)
C31_2 C 0.31998(22) 0.94784(27) 0.25388(4)
H21_2 H 0.3380 0.9396 0.2452
H26_2 H 0.2823 0.9146 0.2556
O30_2 O 0.24030(19) 0.96853(22) 0.26822(3)
C36_2 C 0.3489(3) 0.8269(4) 0.29356(6)
C41_2 C 0.1375(4) 0.9815(5) 0.30172(6)
C45_2 C 0.27492(17) 0.98150(30) 0.23591(4)
H30_2 H 0.2908 0.9700 0.2274
H35_2 H 0.2372 0.9497 0.2385
C51_2 C 0.1226(3) 0.9322(4) 0.29428(7)
H41_2 H 0.0875 0.8998 0.2965
C56_2 C 0.2085(4) 0.9756(5) 0.27951(6)
C60_2 C 0.1606(2) 0.9706(4) 0.20146(6)
H45_2 H 0.1380 0.9362 0.1962
C66_2 C 0.1577(4) 0.9284(5) 0.28350(7)
C71_2 C 0.3347(4) 0.8619(4) 0.26935(5)
H51_2 H 0.3220 0.8544 0.2590
C75_2 C 0.1998(3) 0.9751(5) 0.21285(7)
H55_2 H 0.2030 0.9431 0.2152
O44_2 O 0.3876(3) 0.9762(4) 0.29640(5)
C81_2 C 0.33540(28) 0.81924(34) 0.27815(6)
H61_2 H 0.3263 0.7846 0.2734
C86_2 C 0.3673(4) 0.9196(5) 0.29088(8)
C91_2 C 0.0993(4) 0.9866(5) 0.31322(7)
C96_2 C 0.3654(4) 0.8778(5) 0.29985(6)
H66_2 H 0.3755 0.8844 0.3104
O49_2 O 0.05327(21) 0.94057(25) 0.31708(4)
O57_2 O 0.33535(19) 0.73400(23) 0.29657(3)
O66_2 O 0.14506(27) 0.87930(34) 0.27559(5)
C101_2 C 0.3474(3) 0.7806(4) 0.30335(6)
C106_2 C 0.0778(6) 0.8336(7) 0.27500(10)
H71_2 H 0.0716 0.8009 0.2689
H76_2 H 0.0577 0.8509 0.2702
H81_2 H 0.0637 0.8215 0.2855
C111_2 C 0.4061(6) 0.9899(8) 0.31247(10)
H85_2 H 0.3895 0.9703 0.1856
H91_2 H 0.3746 0.9666 0.3194
H96_2 H 0.4370 0.9825 0.3144
C1_2 C 0.6667 0.0193(2) 0.0833
C3_2 C 0.71883(15) 0.01335(22) 0.08721(4)
H2_2 H 0.7521 0.0510 0.0889
O4_2 O 0.69814(15) 0.09303(19) 0.10155(3)
C5_2 C 0.6852(3) 0.1958(4) 0.13505(6)
C6_2 C 0.64817(18) 0.03992(25) 0.09742(4)
H3_2 H 0.6367 0.0126 0.1059
H4_2 H 0.6164 0.0459 0.0948
C7_2 C 0.7345(2) 0.2107(3) 0.12761(7)
H5_2 H 0.7669 0.2458 0.1298
C8_2 C 0.6911(3) 0.1248(4) 0.11284(6)
C9_2 C 0.6373(3) 0.1434(4) 0.13187(6)
H6_2 H 0.6029 0.1316 0.1371
C10_2 C 0.7383(3) 0.1756(4) 0.11683(7)
H7_2 H 0.8123 0.0113 0.0923
C12_2 C 0.6418(2) 0.1087(4) 0.12048(7)
H8_2 H 0.6098 0.0735 0.1181
H9_2 H 0.8821 0.0070 0.1067
C15_2 C 0.6801(3) 0.2340(4) 0.14655(7)
O9_2 O 0.78737(18) 0.18827(27) 0.10892(5)
C18_2 C 0.8331(4) 0.2555(6) 0.10833(10)
H11_2 H 0.8658 0.2617 0.1022
H12_2 H 0.8158 0.2756 0.1035
H13_2 H 0.8452 0.2696 0.1188
Zn21_2 Zn 0.730466(18) 0.325026(25) 0.002029(4)
O26_2 O 0.63519(15) 0.06156(24) 0.06512(3)
O31_2 O 0.70229(13) 0.25516(23) 0.01442(3)
C37_2 C 0.6481(3) 0.1773(5) 0.03162(6)
C42_2 C 0.68516(18) 0.05842(31) 0.06925(4)
H27_2 H 0.6966 0.0426 0.0608
H32_2 H 0.7169 0.0962 0.0719
C47_2 C 0.5988(2) 0.1429(4) 0.03906(7)
H37_2 H 0.5664 0.1456 0.0369
C52_2 C 0.6422(3) 0.1004(5) 0.05383(6)
C57_2 C 0.6960(3) 0.1728(5) 0.03480(6)
H42_2 H 0.7304 0.1954 0.0296
C62_2 C 0.5950(3) 0.1040(5) 0.04984(7)
C72_2 C 0.6915(2) 0.1336(4) 0.04619(7)
H52_2 H 0.7235 0.1304 0.0486
C87_2 C 0.6532(3) 0.2206(5) 0.02012(7)
O45_2 O 0.60723(16) 0.22063(26) 0.01626(4)
O62_2 O 0.54596(18) 0.06757(32) 0.05775(5)
C102_2 C 0.5002(4) 0.0891(7) 0.05834(10)
H67_2 H 0.4675 0.0626 0.0645
H72_2 H 0.5175 0.1265 0.0632
H77_2 H 0.4881 0.0911 0.0479
O2_2 O 0.70704(11) 0.97866(17) 0.10128(3)
C2_2 C 0.7530(2) 0.9812(3) 0.10880(6)
H1_2 H 0.7271 0.9953 0.0785
C4_2 C 0.8398(2) 0.9844(3) 0.12689(6)
C11_2 C 0.8048(3) 0.9986(4) 0.10268(5)
O6_2 O 0.6905(2) 0.9457(3) 0.12973(5)
C13_2 C 0.84743(19) 0.99793(28) 0.11148(6)
C14_2 C 0.7471(3) 0.9660(4) 0.12421(8)
C16_2 C 0.7889(3) 0.9679(4) 0.13318(6)
H10_2 H 0.7823 0.9578 0.1437
C17_2 C 0.8861(2) 0.9859(3) 0.13668(6)
C19_2 C 0.6768(3) 0.9272(6) 0.14580(10)
H14_2 H 0.6370 0.9142 0.1477
H15_2 H 0.7001 0.9587 0.1527
H16_2 H 0.6842 0.8963 0.1477
O13_2 O 0.62629(11) 0.93829(20) 0.06539(3)
C22_2 C 0.5803(2) 0.8949(4) 0.05787(6)
O18_2 O 0.45560(12) 0.77067(22) 0.01525(3)
C27_2 C 0.61450(15) 0.96119(27) 0.07946(4)
H17_2 H 0.6062 0.9349 0.0882
H22_2 H 0.5812 0.9656 0.0778
C32_2 C 0.4935(2) 0.8113(4) 0.03978(6)
C67_2 C 0.5285(3) 0.8605(5) 0.06399(5)
H47_2 H 0.5210 0.8657 0.0744
O40_2 O 0.6428(2) 0.9219(4) 0.03694(5)
C77_2 C 0.48590(19) 0.81717(34) 0.05519(6)
H57_2 H 0.4512 0.7916 0.0600
C82_2 C 0.5862(3) 0.8856(5) 0.04246(8)
C92_2 C 0.5444(3) 0.8457(5) 0.03349(6)
H62_2 H 0.5510 0.8422 0.0230
O53_2 O 0.40066(14) 0.73198(24) 0.03677(3)
C97_2 C 0.4472(2) 0.7665(4) 0.02999(6)
C107_2 C 0.6565(3) 0.9171(7) 0.02087(10)
H82_2 H 0.6963 0.9439 0.0190
H87_2 H 0.6332 0.9253 0.0140
H92_2 H 0.6491 0.8788 0.0190
Zn16_2 Zn 0.405439(18) 0.730466(31) 0.997971(4)
O2_3 O 0.02134(17) 0.72838(13) 0.10128(3)
C2_3 C 0.0188(3) 0.7718(2) 0.10880(6)
H1_3 H 0.0047 0.7318 0.0785
C4_3 C 0.0156(3) 0.8554(2) 0.12689(6)
C11_3 C 0.0014(4) 0.8062(2) 0.10268(5)
O6_3 O 0.0543(3) 0.7448(2) 0.12973(5)
C13_3 C 0.00207(28) 0.8495(2) 0.11148(6)
C14_3 C 0.0340(4) 0.7811(3) 0.12421(8)
C16_3 C 0.0321(4) 0.8210(3) 0.13318(6)
H10_3 H 0.0422 0.8245 0.1437
C17_3 C 0.0141(3) 0.9002(2) 0.13668(6)
C19_3 C 0.0728(6) 0.7496(5) 0.14580(10)
H14_3 H 0.0858 0.7228 0.1477
H15_3 H 0.0413 0.7414 0.1527
H16_3 H 0.1037 0.7879 0.1477
O13_3 O 0.06171(20) 0.68801(17) 0.06539(3)
C22_3 C 0.1051(4) 0.6855(3) 0.05787(6)
O18_3 O 0.22933(22) 0.68494(18) 0.01525(3)
C27_3 C 0.03881(27) 0.65332(22) 0.07946(4)
H17_3 H 0.0651 0.6714 0.0882
H22_3 H 0.0344 0.6157 0.0778
C32_3 C 0.1887(4) 0.6823(3) 0.03978(6)
C67_3 C 0.1395(5) 0.6681(4) 0.06399(5)
H47_3 H 0.1343 0.6554 0.0744
O40_3 O 0.0781(4) 0.7210(3) 0.03694(5)
C77_3 C 0.18283(34) 0.66874(28) 0.05519(6)
H57_3 H 0.2084 0.6597 0.0600
C82_3 C 0.1144(5) 0.7007(4) 0.04246(8)
C92_3 C 0.1543(5) 0.6988(4) 0.03349(6)
H62_3 H 0.1578 0.7089 0.0230
O53_3 O 0.26802(24) 0.66869(19) 0.03677(3)
C97_3 C 0.2335(4) 0.6808(3) 0.02999(6)
C107_3 C 0.0829(7) 0.7395(6) 0.02087(10)
H82_3 H 0.0561 0.7525 0.0190
H87_3 H 0.0747 0.7080 0.0140
H92_3 H 0.1212 0.7704 0.0190
Zn16_3 Zn 0.269534(31) 0.674974(25) 0.997971(4)
C1_3 C 0.9807(2) 0.6474(2) 0.0833
C3_3 C 0.98665(22) 0.70548(16) 0.08721(4)
H2_3 H 0.9490 0.7011 0.0889
O4_3 O 0.90697(19) 0.60511(12) 0.10155(3)
C5_3 C 0.8042(4) 0.4894(3) 0.13505(6)
C6_3 C 0.96008(25) 0.60825(17) 0.09742(4)
H3_3 H 0.9874 0.6241 0.1059
H4_3 H 0.9541 0.5705 0.0948
C7_3 C 0.7893(3) 0.5238(2) 0.12761(7)
H5_3 H 0.7542 0.5211 0.1298
C8_3 C 0.8752(4) 0.5663(3) 0.11284(6)
C9_3 C 0.8566(4) 0.4939(2) 0.13187(6)
H6_3 H 0.8684 0.4713 0.1371
C10_3 C 0.8244(4) 0.5627(3) 0.11683(7)
H7_3 H 0.9887 0.8010 0.0923
C12_3 C 0.8913(4) 0.5331(3) 0.12048(7)
H8_3 H 0.9265 0.5363 0.1181
H9_3 H 0.9930 0.8751 0.1067
C15_3 C 0.7660(4) 0.4461(3) 0.14655(7)
O9_3 O 0.81173(27) 0.5991(2) 0.10892(5)
C18_3 C 0.7445(6) 0.5776(4) 0.10833(10)
H11_3 H 0.7383 0.6041 0.1022
H12_3 H 0.7244 0.5402 0.1035
H13_3 H 0.7304 0.5756 0.1188
O26_3 O 0.93844(24) 0.57364(19) 0.06512(3)
O31_3 O 0.74484(23) 0.44714(19) 0.01442(3)
C37_3 C 0.8227(5) 0.4709(4) 0.03162(6)
C42_3 C 0.94158(31) 0.62675(25) 0.06925(4)
H27_3 H 0.9574 0.6541 0.0608
H32_3 H 0.9038 0.6208 0.0719
C47_3 C 0.8571(4) 0.4560(3) 0.03906(7)
H37_3 H 0.8544 0.4209 0.0369
C52_3 C 0.8996(5) 0.5419(4) 0.05383(6)
C57_3 C 0.8272(5) 0.5233(4) 0.03480(6)
H42_3 H 0.8046 0.5351 0.0296
C62_3 C 0.8960(5) 0.4911(4) 0.04984(7)
C72_3 C 0.8664(4) 0.5580(4) 0.04619(7)
H52_3 H 0.8696 0.5932 0.0486
C87_3 C 0.7794(5) 0.4327(4) 0.02012(7)
O45_3 O 0.77937(26) 0.38661(21) 0.01626(4)
O62_3 O 0.93243(32) 0.47840(27) 0.05775(5)
C102_3 C 0.9109(7) 0.4112(6) 0.05834(10)
H67_3 H 0.9374 0.4050 0.0645
H72_3 H 0.8735 0.3911 0.0632
H77_3 H 0.9089 0.3971 0.0479
Zn1_5 Zn 0.0000 -0.0000 0.361481(7)
O1_5 O 0.0000 0.0000 0.33869(3)
O10 O 0.3333 0.6667 0.32798(3)
O23_2 O 0.12227(22) 0.10400(13) 0.34858(3)
O36 O 0.21953(19) 0.63104(13) 0.34775(3)
O50_2 O 0.27390(25) 0.55396(13) 0.34959(4)
O60_2 O 0.06733(23) 0.06531(13) 0.37010(3)
Zn1_6 Zn 0.0000 1.0000 0.361481(7)
O1_6 O 0.0000 1.0000 0.33869(3)
C1_4 C 0.0193(2) 0.6667 0.4167
C3_4 C 0.01335(22) 0.71883(15) 0.41279(4)
H2_4 H 0.0510 0.7521 0.4111
O4_4 O 0.09303(19) 0.69814(15) 0.39845(3)
C5_4 C 0.1958(4) 0.6852(3) 0.36495(6)
C6_4 C 0.03992(25) 0.64817(18) 0.40258(4)
H3_4 H 0.0126 0.6367 0.3941
H4_4 H 0.0459 0.6164 0.4052
C7_4 C 0.2107(3) 0.7345(2) 0.37239(7)
H5_4 H 0.2458 0.7669 0.3702
C8_4 C 0.1248(4) 0.6911(3) 0.38716(6)
C9_4 C 0.1434(4) 0.6373(3) 0.36813(6)
H6_4 H 0.1316 0.6029 0.3629
C10_4 C 0.1756(4) 0.7383(3) 0.38317(7)
H7_4 H 0.0113 0.8123 0.4077
C12_4 C 0.1087(4) 0.6418(2) 0.37952(7)
H8_4 H 0.0735 0.6098 0.3819
H9_4 H 0.0070 0.8821 0.3933
C15_4 C 0.2340(4) 0.6801(3) 0.35345(7)
O7_2 O 0.28006(21) 0.72610(16) 0.34959(4)
O9_4 O 0.18827(27) 0.78737(18) 0.39108(5)
C18_4 C 0.2555(6) 0.8331(4) 0.39167(10)
H11_4 H 0.2617 0.8658 0.3978
H12_4 H 0.2756 0.8158 0.3965
H13_4 H 0.2696 0.8452 0.3812
Zn20_2 Zn 0.269534(31) 0.594561(18) 0.497971(4)
Zn21_3 Zn 0.325026(25) 0.730466(18) 0.497971(4)
O26_4 O 0.06156(24) 0.63519(15) 0.43488(3)
O31_4 O 0.25516(23) 0.70229(13) 0.48558(3)
O37_2 O 0.41151(23) 0.78047(19) 0.34775(3)
C37_4 C 0.1773(5) 0.6481(3) 0.46838(6)
C42_4 C 0.05842(31) 0.68516(18) 0.43075(4)
H27_4 H 0.0426 0.6966 0.4392
H32_4 H 0.0962 0.7169 0.4281
C47_4 C 0.1429(4) 0.5988(2) 0.46094(7)
H37_4 H 0.1456 0.5664 0.4631
C52_4 C 0.1004(5) 0.6422(3) 0.44617(6)
C57_4 C 0.1728(5) 0.6960(3) 0.46520(6)
H42_4 H 0.1954 0.7304 0.4704
C62_4 C 0.1040(5) 0.5950(3) 0.45016(7)
C72_4 C 0.1336(4) 0.6915(2) 0.45381(7)
H52_4 H 0.1304 0.7235 0.4514
C87_4 C 0.2206(5) 0.6532(3) 0.47988(7)
O45_4 O 0.22063(26) 0.60723(16) 0.48374(4)
O62_4 O 0.06757(32) 0.54596(18) 0.44225(5)
C102_4 C 0.0891(7) 0.5002(4) 0.44166(10)
H67_4 H 0.0626 0.4675 0.4355
H72_4 H 0.1265 0.5175 0.4368
H77_4 H 0.0911 0.4881 0.4521
Zn1_7 Zn 1.0000 -0.0000 0.361481(7)
O1_7 O 1.0000 0.0000 0.33869(3)
O24_2 O 0.89600(22) 0.01827(18) 0.34858(3)
O61_2 O 0.93469(24) 0.00202(19) 0.37010(3)
Zn1_8 Zn 1.0000 1.0000 0.361481(7)
O1_8 O 1.0000 1.0000 0.33869(3)
O2_4 O 0.97866(17) 0.70704(11) 0.39872(3)
C2_4 C 0.9812(3) 0.7530(2) 0.39120(6)
O3_2 O 0.98173(18) 0.87773(12) 0.34858(3)
H1_4 H 0.9953 0.7271 0.4215
C4_4 C 0.9844(3) 0.8398(2) 0.37311(6)
C11_4 C 0.9986(4) 0.8048(3) 0.39732(5)
O6_4 O 0.9457(3) 0.6905(2) 0.37027(5)
C13_4 C 0.99793(28) 0.84743(19) 0.38852(6)
C14_4 C 0.9660(4) 0.7471(3) 0.37579(8)
C16_4 C 0.9679(4) 0.7889(3) 0.36682(6)
H10_4 H 0.9578 0.7823 0.3563
O8_2 O 0.99798(19) 0.93267(14) 0.37010(3)
C17_4 C 0.9859(3) 0.8861(2) 0.36332(6)
C19_4 C 0.9272(6) 0.6768(3) 0.35420(10)
H14_4 H 0.9142 0.6370 0.3523
H15_4 H 0.9587 0.7001 0.3473
H16_4 H 0.8963 0.6842 0.3523
Zn4_2 Zn 0.6667 0.3333 0.471852(7)
Zn16_4 Zn 0.730466(31) 0.405439(18) 0.502029(4)
O13_4 O 0.93829(20) 0.62629(11) 0.43461(3)
C22_4 C 0.8949(4) 0.5803(2) 0.44213(6)
O18_4 O 0.77067(22) 0.45560(12) 0.48475(3)
C27_4 C 0.96119(27) 0.61450(15) 0.42054(4)
H17_4 H 0.9349 0.6062 0.4118
H22_4 H 0.9656 0.5812 0.4222
C32_4 C 0.8113(4) 0.4935(2) 0.46022(6)
O38_2 O 0.36896(24) 0.58849(14) 0.34775(3)
C67_4 C 0.8605(5) 0.5285(3) 0.43601(5)
H47_4 H 0.8657 0.5210 0.4256
O40_4 O 0.9219(4) 0.6428(2) 0.46306(5)
C77_4 C 0.81717(34) 0.48590(19) 0.44481(6)
H57_4 H 0.7916 0.4512 0.4400
C82_4 C 0.8856(5) 0.5862(3) 0.45754(8)
C92_4 C 0.8457(5) 0.5444(3) 0.46651(6)
H62_4 H 0.8422 0.5510 0.4770
O51_2 O 0.44604(26) 0.71994(21) 0.34959(4)
O53_4 O 0.73198(24) 0.40066(14) 0.46323(3)
C97_4 C 0.7665(4) 0.4472(2) 0.47001(6)
C107_4 C 0.9171(7) 0.6565(3) 0.47913(10)
H82_4 H 0.9439 0.6963 0.4810
H87_4 H 0.9253 0.6332 0.4860
H92_4 H 0.8788 0.6491 0.4810
O2_5 O 0.72838(13) 0.02134(17) 0.39872(3)
C2_5 C 0.7718(2) 0.0188(3) 0.39120(6)
H1_5 H 0.7318 0.0047 0.4215
C4_5 C 0.8554(2) 0.0156(3) 0.37311(6)
C11_5 C 0.8062(2) 0.0014(4) 0.39732(5)
O6_5 O 0.7448(2) 0.0543(3) 0.37027(5)
C13_5 C 0.8495(2) 0.00207(28) 0.38852(6)
C14_5 C 0.7811(3) 0.0340(4) 0.37579(8)
C16_5 C 0.8210(3) 0.0321(4) 0.36682(6)
H10_5 H 0.8245 0.0422 0.3563
C17_5 C 0.9002(2) 0.0141(3) 0.36332(6)
C19_5 C 0.7496(5) 0.0728(6) 0.35420(10)
H14_5 H 0.7228 0.0858 0.3523
H15_5 H 0.7414 0.0413 0.3473
H16_5 H 0.7879 0.1037 0.3523
Zn16_5 Zn 0.674974(25) 0.269534(31) 0.502029(4)
O13_5 O 0.68801(17) 0.06171(20) 0.43461(3)
C22_5 C 0.6855(3) 0.1051(4) 0.44213(6)
O18_5 O 0.68494(18) 0.22933(22) 0.48475(3)
C27_5 C 0.65332(22) 0.03881(27) 0.42054(4)
H17_5 H 0.6714 0.0651 0.4118
H22_5 H 0.6157 0.0344 0.4222
C32_5 C 0.6823(3) 0.1887(4) 0.46022(6)
C67_5 C 0.6681(4) 0.1395(5) 0.43601(5)
H47_5 H 0.6554 0.1343 0.4256
O40_5 O 0.7210(3) 0.0781(4) 0.46306(5)
C77_5 C 0.66874(28) 0.18283(34) 0.44481(6)
H57_5 H 0.6597 0.2084 0.4400
C82_5 C 0.7007(4) 0.1144(5) 0.45754(8)
C92_5 C 0.6988(4) 0.1543(5) 0.46651(6)
H62_5 H 0.7089 0.1578 0.4770
O53_5 O 0.66869(19) 0.26802(24) 0.46323(3)
C97_5 C 0.6808(3) 0.2335(4) 0.47001(6)
C107_5 C 0.7395(6) 0.0829(7) 0.47913(10)
H82_5 H 0.7525 0.0561 0.4810
H87_5 H 0.7080 0.0747 0.4860
H92_5 H 0.7704 0.1212 0.4810
C1_5 C 0.6474(2) 0.9807(2) 0.4167
C3_5 C 0.70548(16) 0.98665(22) 0.41279(4)
H2_5 H 0.7011 0.9490 0.4111
O4_5 O 0.60511(12) 0.90697(19) 0.39845(3)
C5_5 C 0.4894(3) 0.8042(4) 0.36495(6)
C6_5 C 0.60825(17) 0.96008(25) 0.40258(4)
H3_5 H 0.6241 0.9874 0.3941
H4_5 H 0.5705 0.9541 0.4052
C7_5 C 0.5238(2) 0.7893(3) 0.37239(7)
H5_5 H 0.5211 0.7542 0.3702
C8_5 C 0.5663(3) 0.8752(4) 0.38716(6)
C9_5 C 0.4939(2) 0.8566(4) 0.36813(6)
H6_5 H 0.4713 0.8684 0.3629
C10_5 C 0.5627(3) 0.8244(4) 0.38317(7)
H7_5 H 0.8010 0.9887 0.4077
C12_5 C 0.5331(3) 0.8913(4) 0.37952(7)
H8_5 H 0.5363 0.9265 0.3819
H9_5 H 0.8751 0.9930 0.3933
C15_5 C 0.4461(3) 0.7660(4) 0.35345(7)
O9_5 O 0.5991(2) 0.81173(27) 0.39108(5)
C18_5 C 0.5776(4) 0.7445(6) 0.39167(10)
H11_5 H 0.6041 0.7383 0.3978
H12_5 H 0.5402 0.7244 0.3965
H13_5 H 0.5756 0.7304 0.3812
Zn21_4 Zn 0.405439(18) 0.674974(25) 0.497971(4)
O26_5 O 0.57364(19) 0.93844(24) 0.43488(3)
O31_5 O 0.44714(19) 0.74484(23) 0.48558(3)
C37_5 C 0.4709(4) 0.8227(5) 0.46838(6)
C42_5 C 0.62675(25) 0.94158(31) 0.43075(4)
H27_5 H 0.6541 0.9574 0.4392
H32_5 H 0.6208 0.9038 0.4281
C47_5 C 0.4560(3) 0.8571(4) 0.46094(7)
H37_5 H 0.4209 0.8544 0.4631
C52_5 C 0.5419(4) 0.8996(5) 0.44617(6)
C57_5 C 0.5233(4) 0.8272(5) 0.46520(6)
H42_5 H 0.5351 0.8046 0.4704
C62_5 C 0.4911(4) 0.8960(5) 0.45016(7)
C72_5 C 0.5580(4) 0.8664(4) 0.45381(7)
H52_5 H 0.5932 0.8696 0.4514
C87_5 C 0.4327(4) 0.7794(5) 0.47988(7)
O45_5 O 0.38661(21) 0.77937(26) 0.48374(4)
O62_5 O 0.47840(27) 0.93243(32) 0.44225(5)
C102_5 C 0.4112(6) 0.9109(7) 0.44166(10)
H67_5 H 0.4050 0.9374 0.4355
H72_5 H 0.3911 0.8735 0.4368
H77_5 H 0.3971 0.9089 0.4521
C1_6 C 0.3333 0.3526(2) 0.4167
O2_6 O 0.29296(11) 0.27162(13) 0.39872(3)
C2_6 C 0.2470(2) 0.2282(2) 0.39120(6)
C3_6 C 0.28117(15) 0.29452(16) 0.41279(4)
H1_6 H 0.2729 0.2682 0.4215
H2_6 H 0.2479 0.2989 0.4111
O4_6 O 0.30186(15) 0.39489(12) 0.39845(3)
C4_6 C 0.1602(2) 0.1446(2) 0.37311(6)
C5_6 C 0.3148(3) 0.5106(3) 0.36495(6)
C6_6 C 0.35183(18) 0.39175(17) 0.40258(4)
H3_6 H 0.3633 0.3759 0.3941
H4_6 H 0.3836 0.4295 0.4052
C7_6 C 0.2655(2) 0.4762(2) 0.37239(7)
H5_6 H 0.2331 0.4789 0.3702
C8_6 C 0.3089(3) 0.4337(3) 0.38716(6)
C9_6 C 0.3627(3) 0.5061(2) 0.36813(6)
H6_6 H 0.3971 0.5287 0.3629
C10_6 C 0.2617(3) 0.4373(3) 0.38317(7)
C11_6 C 0.1952(3) 0.1938(2) 0.39732(5)
H7_6 H 0.1877 0.1990 0.4077
C12_6 C 0.3582(2) 0.4669(3) 0.37952(7)
H8_6 H 0.3902 0.4637 0.3819
O6_6 O 0.3095(2) 0.2552(2) 0.37027(5)
C13_6 C 0.15257(19) 0.1505(2) 0.38852(6)
H9_6 H 0.1179 0.1249 0.3933
C14_6 C 0.2529(3) 0.2189(3) 0.37579(8)
C15_6 C 0.3199(3) 0.5539(3) 0.35345(7)
C16_6 C 0.2111(3) 0.1790(3) 0.36682(6)
H10_6 H 0.2177 0.1755 0.3563
O9_6 O 0.21263(18) 0.4009(2) 0.39108(5)
C17_6 C 0.1139(2) 0.0998(2) 0.36332(6)
C18_6 C 0.1669(4) 0.4224(4) 0.39167(10)
H11_6 H 0.1342 0.3959 0.3978
H12_6 H 0.1842 0.4598 0.3965
H13_6 H 0.1548 0.4244 0.3812
C19_6 C 0.3232(3) 0.2504(5) 0.35420(10)
H14_6 H 0.3630 0.2772 0.3523
H15_6 H 0.2999 0.2586 0.3473
H16_6 H 0.3158 0.2121 0.3523
Zn16_6 Zn 0.594561(18) 0.325026(25) 0.502029(4)
O13_6 O 0.37371(11) 0.31199(17) 0.43461(3)
C22_6 C 0.4197(2) 0.3145(3) 0.44213(6)
O18_6 O 0.54440(12) 0.31506(18) 0.48475(3)
C27_6 C 0.38550(15) 0.34668(22) 0.42054(4)
H17_6 H 0.3938 0.3286 0.4118
H22_6 H 0.4188 0.3843 0.4222
O26_6 O 0.36481(15) 0.42636(19) 0.43488(3)
C32_6 C 0.5065(2) 0.3177(3) 0.46022(6)
O31_6 O 0.29771(13) 0.55286(19) 0.48558(3)
C37_6 C 0.3519(3) 0.5291(4) 0.46838(6)
C42_6 C 0.31484(18) 0.37325(25) 0.43075(4)
H27_6 H 0.3034 0.3459 0.4392
H32_6 H 0.2831 0.3792 0.4281
C47_6 C 0.4012(2) 0.5440(3) 0.46094(7)
H37_6 H 0.4336 0.5791 0.4631
C52_6 C 0.3578(3) 0.4581(4) 0.44617(6)
C57_6 C 0.3040(3) 0.4767(4) 0.46520(6)
H42_6 H 0.2696 0.4649 0.4704
C62_6 C 0.4050(3) 0.5089(4) 0.45016(7)
C67_6 C 0.4715(3) 0.3319(4) 0.43601(5)
H47_6 H 0.4790 0.3446 0.4256
C72_6 C 0.3085(2) 0.4420(4) 0.45381(7)
H52_6 H 0.2765 0.4068 0.4514
O40_6 O 0.3572(2) 0.2790(3) 0.46306(5)
C77_6 C 0.51410(19) 0.33126(28) 0.44481(6)
H57_6 H 0.5488 0.3403 0.4400
C82_6 C 0.4138(3) 0.2993(4) 0.45754(8)
C87_6 C 0.3468(3) 0.5673(4) 0.47988(7)
C92_6 C 0.4556(3) 0.3012(4) 0.46651(6)
H62_6 H 0.4490 0.2911 0.4770
O45_6 O 0.39277(16) 0.61339(21) 0.48374(4)
O53_6 O 0.59934(14) 0.33131(19) 0.46323(3)
O62_6 O 0.45404(18) 0.52160(27) 0.44225(5)
C97_6 C 0.5528(2) 0.3192(3) 0.47001(6)
C102_6 C 0.4998(4) 0.5888(6) 0.44166(10)
H67_6 H 0.5325 0.5950 0.4355
H72_6 H 0.4825 0.6089 0.4368
H77_6 H 0.5119 0.6029 0.4521
C107_6 C 0.3435(3) 0.2605(6) 0.47913(10)
H82_6 H 0.3037 0.2475 0.4810
H87_6 H 0.3668 0.2920 0.4860
H92_6 H 0.3509 0.2296 0.4810
Zn7_2 Zn 0.0000 0.0000 0.638519(7)
Zn7_3 Zn 0.0000 1.0000 0.638519(7)
O12_2 O 0.3333 0.6667 0.50536(3)
O25_2 O 0.22933(13) 0.54440(12) 0.51525(3)
Zn7_4 Zn 1.0000 0.0000 0.638519(7)
O1_9 O 0.6667 0.3333 0.49464(3)
Zn5_2 Zn 0.3333 0.6667 0.528148(7)
Zn7_5 Zn 1.0000 1.0000 0.638519(7)
Zn13_2 Zn 0.658360(25) 0.261227(18) 0.664637(4)
Zn14_2 Zn 0.602868(18) 0.341640(25) 0.664637(4)
Zn15_2 Zn 0.738773(18) 0.397132(18) 0.664637(4)
Zn23_2 Zn 0.927894(18) 0.936201(18) 0.668696(4)
C20_3 C 0.6666 0.6474(2) 0.5834
C21_4 C 0.3526(2) 0.0193(2) 0.5834
O14_2 O 0.62629(11) 0.68801(17) 0.56539(3)
O15_2 O 0.70704(11) 0.72838(13) 0.60128(3)
C23_2 C 0.5803(2) 0.6855(3) 0.55787(6)
C24_2 C 0.7530(2) 0.7718(2) 0.60880(6)
O19_2 O 0.45560(12) 0.68494(18) 0.51525(3)
O20_2 O 0.87773(12) 0.89600(13) 0.65142(3)
C28_2 C 0.61450(15) 0.65332(22) 0.57946(4)
C29_2 C 0.71883(15) 0.70548(16) 0.58721(4)
C31_3 C 0.29452(16) 0.01335(22) 0.58721(4)
H18_2 H 0.6062 0.6714 0.5882
H19_2 H 0.7271 0.7318 0.5785
H23_2 H 0.5812 0.6157 0.5778
H24_2 H 0.7521 0.7011 0.5889
H26_3 H 0.2989 0.0510 0.5889
O27_2 O 0.63519(15) 0.57364(19) 0.56512(3)
O28_2 O 0.69814(15) 0.60511(12) 0.60155(3)
O29_3 O 0.42636(19) 0.06156(12) 0.56512(3)
O30_3 O 0.39489(12) 0.09303(19) 0.60155(3)
C33_2 C 0.4935(2) 0.6823(3) 0.53978(6)
C34_2 C 0.8398(2) 0.8554(2) 0.62689(6)
O32_2 O 0.70229(13) 0.44714(19) 0.51442(3)
O33_2 O 0.63104(13) 0.41151(14) 0.65225(3)
O34_2 O 0.55286(19) 0.25516(14) 0.51442(3)
O35_3 O 0.58849(14) 0.21953(19) 0.65225(3)
O39_2 O 0.74484(14) 0.29771(13) 0.51442(3)
C38_2 C 0.6481(3) 0.4709(4) 0.53162(6)
C39_2 C 0.6852(3) 0.4894(3) 0.63505(6)
C40_3 C 0.5291(4) 0.1773(3) 0.53162(6)
C41_3 C 0.5106(3) 0.1958(4) 0.63505(6)
C43_2 C 0.68516(18) 0.62675(25) 0.56925(4)
C44_2 C 0.64817(18) 0.60825(17) 0.59742(4)
C45_3 C 0.37325(25) 0.05842(17) 0.56925(4)
C46_3 C 0.39175(17) 0.03992(25) 0.59742(4)
H28_2 H 0.6966 0.6541 0.5608
H29_2 H 0.6367 0.6241 0.6059
H30_3 H 0.3459 0.0426 0.5608
H31_3 H 0.3759 0.0126 0.6059
H33_2 H 0.7169 0.6208 0.5719
H34_2 H 0.6164 0.5705 0.5948
H35_3 H 0.3792 0.0962 0.5719
H36_3 H 0.4295 0.0459 0.5948
C48_2 C 0.5988(2) 0.4560(3) 0.53906(7)
C49_2 C 0.7345(2) 0.5238(2) 0.62761(7)
C50_3 C 0.5440(3) 0.1429(2) 0.53906(7)
C51_3 C 0.4762(2) 0.2107(3) 0.62761(7)
H38_2 H 0.5664 0.4209 0.5369
H39_2 H 0.7669 0.5211 0.6298
H40_3 H 0.5791 0.1456 0.5369
H41_3 H 0.4789 0.2458 0.6298
C53_2 C 0.6422(3) 0.5419(4) 0.55383(6)
C54_2 C 0.6911(3) 0.5663(3) 0.61284(6)
C55_3 C 0.4581(4) 0.1004(3) 0.55383(6)
C56_3 C 0.4337(3) 0.1248(4) 0.61284(6)
C58_2 C 0.6960(3) 0.5233(4) 0.53480(6)
C59_2 C 0.6373(3) 0.4939(2) 0.63187(6)
C60_3 C 0.4767(4) 0.1728(2) 0.53480(6)
C61_3 C 0.5061(2) 0.1434(4) 0.63187(6)
H43_2 H 0.7304 0.5351 0.5296
H44_2 H 0.6029 0.4713 0.6371
H45_3 H 0.4649 0.1954 0.5296
H46_3 H 0.5287 0.1316 0.6371
C63_2 C 0.5950(3) 0.4911(4) 0.54984(7)
C64_2 C 0.7383(3) 0.5627(3) 0.61683(7)
C65_3 C 0.5089(4) 0.1040(3) 0.54984(7)
C66_3 C 0.4373(3) 0.1756(4) 0.61683(7)
C68_2 C 0.5285(3) 0.6681(4) 0.56399(5)
C69_2 C 0.8048(3) 0.8062(2) 0.60268(5)
H48_2 H 0.5210 0.6554 0.5744
H49_2 H 0.8123 0.8010 0.5923
H51_3 H 0.1990 0.0113 0.5923
C73_2 C 0.6915(2) 0.5580(4) 0.54619(7)
C74_2 C 0.6418(2) 0.5331(3) 0.62048(7)
C75_3 C 0.4420(4) 0.1336(3) 0.54619(7)
C76_3 C 0.4669(3) 0.1087(4) 0.62048(7)
H53_2 H 0.7235 0.5932 0.5486
H54_2 H 0.6098 0.5363 0.6181
H55_3 H 0.4068 0.1304 0.5486
H56_3 H 0.4637 0.0735 0.6181
O41_2 O 0.6428(2) 0.7210(3) 0.53694(5)
O42_2 O 0.6905(2) 0.7448(2) 0.62973(5)
C78_2 C 0.48590(19) 0.66874(28) 0.55519(6)
C79_2 C 0.84743(19) 0.8495(2) 0.61148(6)
H58_2 H 0.4512 0.6597 0.5600
H59_2 H 0.8821 0.8751 0.6067
H61_3 H 0.1249 0.0070 0.6067
C83_2 C 0.5862(3) 0.7007(4) 0.54246(8)
C84_2 C 0.7471(3) 0.7811(3) 0.62421(8)
C88_2 C 0.6532(3) 0.4327(4) 0.52012(7)
C89_2 C 0.6801(3) 0.4461(3) 0.64655(7)
C90_3 C 0.5673(4) 0.2206(3) 0.52012(7)
C91_3 C 0.5539(3) 0.2340(4) 0.64655(7)
C93_2 C 0.5444(3) 0.6988(4) 0.53349(6)
C94_2 C 0.7889(3) 0.8210(3) 0.63318(6)
H63_2 H 0.5510 0.7089 0.5230
H64_2 H 0.7823 0.8245 0.6437
O46_2 O 0.60723(16) 0.38661(21) 0.51626(4)
O47_2 O 0.72610(16) 0.44604(13) 0.65041(4)
O48_2 O 0.61339(21) 0.22063(13) 0.51626(4)
O49_3 O 0.55396(13) 0.28006(21) 0.65041(4)
O52_2 O 0.77937(13) 0.39277(16) 0.51626(4)
O54_2 O 0.40066(14) 0.66869(19) 0.53677(3)
O55_2 O 0.93267(14) 0.93469(13) 0.62990(3)
O63_2 O 0.54596(18) 0.47840(27) 0.55775(5)
O64_2 O 0.78737(18) 0.5991(2) 0.60892(5)
O65_3 O 0.52160(27) 0.0676(2) 0.55775(5)
O66_3 O 0.4009(2) 0.18827(27) 0.60892(5)
C98_2 C 0.4472(2) 0.6808(3) 0.52999(6)
C99_2 C 0.8861(2) 0.9002(2) 0.63668(6)
C103_2 C 0.5002(4) 0.4112(6) 0.55834(10)
C104_2 C 0.8331(4) 0.5776(4) 0.60833(10)
C105_3 C 0.5888(6) 0.0891(4) 0.55834(10)
C106_3 C 0.4224(4) 0.2555(6) 0.60833(10)
H68_2 H 0.4675 0.4050 0.5645
H69_2 H 0.8658 0.6041 0.6022
H70_3 H 0.5950 0.0626 0.5645
H71_3 H 0.3959 0.2617 0.6022
H73_2 H 0.5175 0.3911 0.5632
H74_2 H 0.8158 0.5402 0.6035
H75_3 H 0.6089 0.1265 0.5632
H76_3 H 0.4598 0.2756 0.6035
H78_2 H 0.4881 0.3971 0.5479
H79_2 H 0.8452 0.5756 0.6188
H80_3 H 0.6029 0.0911 0.5479
H81_3 H 0.4244 0.2696 0.6188
C108_2 C 0.6565(3) 0.7395(6) 0.52087(10)
C109_2 C 0.6768(3) 0.7496(5) 0.64580(10)
H83_2 H 0.6963 0.7525 0.5190
H84_2 H 0.6370 0.7228 0.6477
H88_2 H 0.6332 0.7080 0.5140
H89_2 H 0.7001 0.7414 0.6527
H93_2 H 0.6491 0.7704 0.5190
H94_2 H 0.6842 0.7879 0.6477
Zn22_3 Zn 0.063799(18) 0.991693(25) 0.668696(4)
O16_3 O 0.31199(17) 0.93829(13) 0.56539(3)
O17_3 O 0.27162(13) 0.97866(17) 0.60128(3)
C25_3 C 0.3145(3) 0.8949(2) 0.55787(6)
C26_3 C 0.2282(2) 0.9812(3) 0.60880(6)
O21_2 O 0.31506(18) 0.77067(13) 0.51525(3)
O22_3 O 0.10400(13) 0.98173(18) 0.65142(3)
C30_3 C 0.34668(22) 0.96119(16) 0.57946(4)
H20_3 H 0.3286 0.9349 0.5882
H21_3 H 0.2682 0.9953 0.5785
H25_3 H 0.3843 0.9656 0.5778
C35_3 C 0.3177(3) 0.8113(2) 0.53978(6)
C36_3 C 0.1446(2) 0.9844(3) 0.62689(6)
C70_3 C 0.3319(4) 0.8605(2) 0.56399(5)
C71_3 C 0.1938(2) 0.9986(4) 0.60268(5)
H50_3 H 0.3446 0.8657 0.5744
O43_3 O 0.2790(3) 0.9219(2) 0.53694(5)
O44_3 O 0.2552(2) 0.9457(3) 0.62973(5)
C80_3 C 0.33126(28) 0.8172(2) 0.55519(6)
C81_3 C 0.1505(2) 0.99793(28) 0.61148(6)
H60_3 H 0.3403 0.7916 0.5600
C85_3 C 0.2993(4) 0.8856(3) 0.54246(8)
C86_3 C 0.2189(3) 0.9660(4) 0.62421(8)
C95_3 C 0.3012(4) 0.8457(3) 0.53349(6)
C96_3 C 0.1790(3) 0.9679(4) 0.63318(6)
H65_3 H 0.2911 0.8422 0.5230
H66_3 H 0.1755 0.9578 0.6437
O56_2 O 0.33131(19) 0.73198(13) 0.53677(3)
O57_3 O 0.06531(13) 0.99798(19) 0.62990(3)
O58_2 O 0.26802(13) 0.59934(14) 0.53677(3)
C100_3 C 0.3192(3) 0.7665(2) 0.52999(6)
C101_3 C 0.0998(2) 0.9859(3) 0.63668(6)
C110_3 C 0.2605(6) 0.9171(5) 0.52087(10)
C111_3 C 0.2504(5) 0.9272(6) 0.64580(10)
H85_3 H 0.2475 0.9439 0.5190
H86_3 H 0.2772 0.9142 0.6477
H90_3 H 0.2920 0.9253 0.5140
H91_3 H 0.2586 0.9587 0.6527
H95_3 H 0.2296 0.8788 0.5190
H96_3 H 0.2121 0.8963 0.6477
Zn22_4 Zn 0.008307(25) 0.072106(31) 0.668696(4)
O16_4 O 0.06171(13) 0.37371(21) 0.56539(3)
O17_4 O 0.02134(17) 0.29296(21) 0.60128(3)
C25_4 C 0.1051(2) 0.4197(4) 0.55787(6)
C26_4 C 0.0188(3) 0.2470(4) 0.60880(6)
O22_4 O 0.01827(18) 0.12227(22) 0.65142(3)
C30_4 C 0.03881(16) 0.38550(27) 0.57946(4)
H20_4 H 0.0651 0.3938 0.5882
H21_4 H 0.0047 0.2729 0.5785
H25_4 H 0.0344 0.4188 0.5778
C35_4 C 0.1887(2) 0.5065(4) 0.53978(6)
C36_4 C 0.0156(3) 0.1602(4) 0.62689(6)
C70_4 C 0.1395(2) 0.4715(4) 0.56399(5)
C71_4 C 0.0014(4) 0.1952(4) 0.60268(5)
H50_4 H 0.1343 0.4790 0.5744
O43_4 O 0.0781(2) 0.3572(4) 0.53694(5)
O44_4 O 0.0543(3) 0.3095(4) 0.62973(5)
C80_4 C 0.1828(2) 0.51410(34) 0.55519(6)
C81_4 C 0.00207(28) 0.15257(34) 0.61148(6)
H60_4 H 0.2084 0.5488 0.5600
C85_4 C 0.1144(3) 0.4138(5) 0.54246(8)
C86_4 C 0.0340(4) 0.2529(5) 0.62421(8)
C95_4 C 0.1543(3) 0.4556(5) 0.53349(6)
C96_4 C 0.0321(4) 0.2111(5) 0.63318(6)
H65_4 H 0.1578 0.4490 0.5230
H66_4 H 0.0422 0.2177 0.6437
O57_4 O 0.00202(19) 0.06733(23) 0.62990(3)
C100_4 C 0.2335(2) 0.5528(4) 0.52999(6)
C101_4 C 0.0141(3) 0.1139(4) 0.63668(6)
C110_4 C 0.0829(5) 0.3435(8) 0.52087(10)
C111_4 C 0.0728(6) 0.3232(8) 0.64580(10)
H85_4 H 0.0561 0.3037 0.5190
H86_4 H 0.0858 0.3630 0.6477
H90_4 H 0.0747 0.3668 0.5140
H91_4 H 0.0413 0.2999 0.6527
H95_4 H 0.1212 0.3509 0.5190
H96_4 H 0.1037 0.3158 0.6477
C21_5 C 0.9807(2) 0.3334(3) 0.5834
C31_4 C 0.98665(22) 0.28117(27) 0.58721(4)
H26_4 H 0.9490 0.2479 0.5889
O29_4 O 0.93844(12) 0.36481(22) 0.56512(3)
O30_4 O 0.90697(19) 0.30186(22) 0.60155(3)
O35_4 O 0.78047(19) 0.36896(24) 0.65225(3)
C40_4 C 0.8227(3) 0.3519(5) 0.53162(6)
C41_4 C 0.8042(4) 0.3148(5) 0.63505(6)
C45_4 C 0.94158(17) 0.31484(30) 0.56925(4)
C46_4 C 0.96008(25) 0.35183(30) 0.59742(4)
H30_4 H 0.9574 0.3034 0.5608
H31_4 H 0.9874 0.3633 0.6059
H35_4 H 0.9038 0.2831 0.5719
H36_4 H 0.9541 0.3836 0.5948
C50_4 C 0.8571(2) 0.4012(4) 0.53906(7)
C51_4 C 0.7893(3) 0.2655(4) 0.62761(7)
H40_4 H 0.8544 0.4336 0.5369
H41_4 H 0.7542 0.2331 0.6298
C55_4 C 0.8996(3) 0.3578(5) 0.55383(6)
C56_4 C 0.8752(4) 0.3089(5) 0.61284(6)
C60_4 C 0.8272(2) 0.3040(4) 0.53480(6)
C61_4 C 0.8566(4) 0.3627(4) 0.63187(6)
H45_4 H 0.8046 0.2696 0.5296
H46_4 H 0.8684 0.3971 0.6371
C65_4 C 0.8960(3) 0.4050(5) 0.54984(7)
C66_4 C 0.8244(4) 0.2617(5) 0.61683(7)
H51_4 H 0.9887 0.1877 0.5923
C75_4 C 0.8664(3) 0.3085(5) 0.54619(7)
C76_4 C 0.8913(4) 0.3582(5) 0.62048(7)
H55_4 H 0.8696 0.2765 0.5486
H56_4 H 0.9265 0.3902 0.6181
H61_4 H 0.9930 0.1179 0.6067
C90_4 C 0.7794(3) 0.3468(5) 0.52012(7)
C91_4 C 0.7660(4) 0.3199(5) 0.64655(7)
O49_4 O 0.71994(21) 0.27390(25) 0.65041(4)
O65_4 O 0.9324(2) 0.45404(34) 0.55775(5)
O66_4 O 0.81173(27) 0.21263(34) 0.60892(5)
C105_4 C 0.9109(4) 0.4998(7) 0.55834(10)
C106_4 C 0.7445(6) 0.1669(7) 0.60833(10)
H70_4 H 0.9374 0.5325 0.5645
H71_4 H 0.7383 0.1342 0.6022
H75_4 H 0.8735 0.4825 0.5632
H76_4 H 0.7244 0.1842 0.6035
H80_4 H 0.9089 0.5119 0.5479
H81_4 H 0.7304 0.1548 0.6188
O10_2 O 0.0000 -0.0000 0.66131(3)
O10_3 O 0.0000 1.0000 0.66131(3)
O37_3 O 0.07818(23) 0.11380(19) 0.68108(3)
O10_4 O 1.0000 -0.0000 0.66131(3)
Zn1_9 Zn 0.6667 0.3333 0.694814(7)
O1_10 O 0.6667 0.3333 0.67202(3)
C1_7 C 0.6860(2) 0.0000 0.7500
O2_7 O 0.64533(17) 0.04037(11) 0.73205(3)
C2_7 C 0.6479(3) 0.0863(2) 0.72453(6)
O3_3 O 0.64840(18) 0.21106(12) 0.68191(3)
C3_7 C 0.68002(22) 0.05216(15) 0.74612(4)
H1_7 H 0.6620 0.0604 0.7548
H2_7 H 0.7177 0.0854 0.7444
O4_7 O 0.75970(19) 0.03147(15) 0.73178(3)
C4_7 C 0.6511(3) 0.1731(2) 0.70644(6)
C5_7 C 0.8625(4) 0.0185(3) 0.69828(6)
C7_7 C 0.8774(3) 0.0678(2) 0.70572(7)
H5_7 H 0.9125 0.1002 0.7035
C8_7 C 0.7915(4) 0.0244(3) 0.72049(6)
C10_7 C 0.8423(4) 0.0716(3) 0.71650(7)
C11_7 C 0.6653(4) 0.1381(3) 0.73065(5)
H7_7 H 0.6780 0.1456 0.7410
O6_7 O 0.6124(3) 0.0238(2) 0.70360(5)
C13_7 C 0.66460(28) 0.18076(19) 0.72185(6)
H9_7 H 0.6737 0.2154 0.7266
C14_7 C 0.6327(4) 0.0804(3) 0.70912(8)
C15_7 C 0.9007(4) 0.0134(3) 0.68678(7)
C16_7 C 0.6346(4) 0.1222(3) 0.70015(6)
H10_7 H 0.6245 0.1156 0.6896
O7_3 O 0.94673(21) 0.05943(16) 0.68292(4)
O8_3 O 0.66465(19) 0.26600(14) 0.70343(3)
O9_7 O 0.85494(27) 0.12070(18) 0.72441(5)
C17_7 C 0.6526(3) 0.2194(2) 0.69665(6)
C18_7 C 0.9222(6) 0.1664(4) 0.72500(10)
H11_7 H 0.9284 0.1991 0.7311
H12_7 H 0.9423 0.1491 0.7298
H13_7 H 0.9363 0.1785 0.7145
C19_7 C 0.5939(6) 0.0101(3) 0.68753(10)
H15_7 H 0.6254 0.0334 0.6806
H16_7 H 0.5630 0.0175 0.6856
Zn21_5 Zn 0.991693(25) 0.063799(18) 0.831304(4)
O10_5 O 1.0000 1.0000 0.66131(3)
O23_3 O 0.78894(22) 0.43733(13) 0.68191(3)
O24_3 O 0.56267(22) 0.35160(18) 0.68191(3)
O31_7 O 0.92182(23) 0.03563(13) 0.81892(3)
O36_2 O 0.88620(19) 0.96437(13) 0.68108(3)
C42_7 C 0.72508(31) 0.01850(18) 0.76409(4)
H27_7 H 0.7092 0.0300 0.7726
H32_7 H 0.7628 0.0503 0.7615
C57_7 C 0.8394(5) 0.0294(3) 0.79854(6)
H42_7 H 0.8620 0.0638 0.8038
C72_7 C 0.8002(4) 0.0249(2) 0.78715(7)
H52_7 H 0.7970 0.0569 0.7848
O50_3 O 0.94057(25) 0.88729(13) 0.68292(4)
O51_3 O 0.11271(26) 0.05327(21) 0.68292(4)
O60_3 O 0.73400(23) 0.39864(13) 0.70343(3)
O61_3 O 0.60136(24) 0.33535(19) 0.70343(3)
H82_7 H 0.6105 0.0297 0.8144
C1_8 C 0.6860(2) 1.0000 0.7500
C6_7 C 0.70659(25) 0.98150(18) 0.73591(4)
H3_7 H 0.6793 0.9700 0.7274
H4_7 H 0.7126 0.9497 0.7385
C9_7 C 0.8101(4) 0.9706(3) 0.70146(6)
H6_7 H 0.7983 0.9362 0.6962
C12_7 C 0.7754(4) 0.9751(2) 0.71285(7)
H8_7 H 0.7402 0.9431 0.7152
H14_7 H 0.5809 0.9703 0.6856
Zn4_3 Zn 0.3333 0.6667 0.805186(7)
Zn16_7 Zn 0.397132(31) 0.738773(18) 0.835363(4)
Zn20_3 Zn 0.936201(31) 0.927894(18) 0.831304(4)
O13_7 O 0.60495(20) 0.95963(11) 0.76795(3)
C22_7 C 0.5615(4) 0.9137(2) 0.77547(6)
O18_7 O 0.43733(22) 0.78894(12) 0.81809(3)
C27_7 C 0.62785(27) 0.94784(15) 0.75388(4)
H17_7 H 0.6015 0.9396 0.7452
H22_7 H 0.6322 0.9146 0.7556
O26_7 O 0.72822(24) 0.96853(15) 0.76822(3)
C32_7 C 0.4779(4) 0.8269(2) 0.79356(6)
O38_3 O 0.03563(24) 0.92182(14) 0.68108(3)
C37_7 C 0.8439(5) 0.9815(3) 0.80172(6)
C47_7 C 0.8095(4) 0.9322(2) 0.79428(7)
H37_7 H 0.8122 0.8998 0.7965
C52_7 C 0.7670(5) 0.9756(3) 0.77951(6)
C62_7 C 0.7706(5) 0.9284(3) 0.78350(7)
C67_7 C 0.5271(5) 0.8619(3) 0.76935(5)
H47_7 H 0.5323 0.8544 0.7590
O40_7 O 0.5885(4) 0.9762(2) 0.79640(5)
C77_7 C 0.48383(34) 0.81924(19) 0.77815(6)
H57_7 H 0.4582 0.7846 0.7734
C82_7 C 0.5522(5) 0.9196(3) 0.79088(8)
C87_7 C 0.8872(5) 0.9866(3) 0.81322(7)
C92_7 C 0.5123(5) 0.8778(3) 0.79985(6)
H62_7 H 0.5088 0.8844 0.8104
O45_7 O 0.88729(26) 0.94057(16) 0.81708(4)
O53_7 O 0.39864(24) 0.73400(14) 0.79657(3)
O62_7 O 0.73423(32) 0.87930(18) 0.77559(5)
C97_7 C 0.4331(4) 0.7806(2) 0.80335(6)
C102_7 C 0.7557(7) 0.8336(4) 0.77500(10)
H67_7 H 0.7292 0.8009 0.7689
H72_7 H 0.7931 0.8509 0.7702
H77_7 H 0.7577 0.8215 0.7855
C107_7 C 0.5837(7) 0.9899(3) 0.81247(10)
H87_7 H 0.5919 0.9666 0.8194
H92_7 H 0.5454 0.9825 0.8144
C1_9 C 0.3141(2) 0.3140(2) 0.7500
O2_8 O 0.39505(13) 0.35467(17) 0.73205(3)
C2_8 C 0.4385(2) 0.3521(3) 0.72453(6)
C3_8 C 0.37215(16) 0.31998(22) 0.74612(4)
H1_8 H 0.3985 0.3380 0.7548
H2_8 H 0.3678 0.2823 0.7444
O4_8 O 0.27178(12) 0.24030(19) 0.73178(3)
C4_8 C 0.5221(2) 0.3489(3) 0.70644(6)
C5_8 C 0.1561(3) 0.1375(4) 0.69828(6)
C6_8 C 0.27492(17) 0.29341(25) 0.73591(4)
H3_8 H 0.2908 0.3207 0.7274
H4_8 H 0.2372 0.2874 0.7385
C7_8 C 0.1905(2) 0.1226(3) 0.70572(7)
H5_8 H 0.1878 0.0875 0.7035
C8_8 C 0.2330(3) 0.2085(4) 0.72049(6)
C9_8 C 0.1606(2) 0.1899(4) 0.70146(6)
H6_8 H 0.1380 0.2017 0.6962
C10_8 C 0.2294(3) 0.1577(4) 0.71650(7)
C11_8 C 0.4729(2) 0.3347(4) 0.73065(5)
H7_8 H 0.4677 0.3220 0.7410
C12_8 C 0.1998(3) 0.2246(4) 0.71285(7)
H8_8 H 0.2030 0.2598 0.7152
O6_8 O 0.4115(2) 0.3876(3) 0.70360(5)
C13_8 C 0.5162(2) 0.33540(28) 0.72185(6)
H9_8 H 0.5418 0.3263 0.7266
C14_8 C 0.4478(3) 0.3673(4) 0.70912(8)
C15_8 C 0.1128(3) 0.0993(4) 0.68678(7)
C16_8 C 0.4877(3) 0.3654(4) 0.70015(6)
H10_8 H 0.4912 0.3755 0.6896
O9_8 O 0.2658(2) 0.14506(27) 0.72441(5)
C17_8 C 0.5669(2) 0.3474(3) 0.69665(6)
C18_8 C 0.2443(4) 0.0778(6) 0.72500(10)
H11_8 H 0.2708 0.0716 0.7311
H12_8 H 0.2069 0.0577 0.7298
H13_8 H 0.2423 0.0637 0.7145
C19_8 C 0.4163(5) 0.4061(6) 0.68753(10)
H14_8 H 0.3895 0.4191 0.6856
H15_8 H 0.4081 0.3746 0.6806
H16_8 H 0.4546 0.4370 0.6856
Zn16_8 Zn 0.341640(25) 0.602868(31) 0.835363(4)
Zn21_6 Zn 0.072106(18) 0.008307(25) 0.831304(4)
O13_8 O 0.35467(17) 0.39505(20) 0.76795(3)
C22_8 C 0.3521(3) 0.4385(4) 0.77547(6)
O18_8 O 0.35160(18) 0.56267(22) 0.81809(3)
C27_8 C 0.31998(22) 0.37215(27) 0.75388(4)
H17_8 H 0.3380 0.3985 0.7452
H22_8 H 0.2823 0.3678 0.7556
O26_8 O 0.24030(19) 0.27178(24) 0.76822(3)
C32_8 C 0.3489(3) 0.5221(4) 0.79356(6)
O31_8 O 0.11380(19) 0.07818(23) 0.81892(3)
C37_8 C 0.1375(4) 0.1561(5) 0.80172(6)
C42_8 C 0.29341(25) 0.27492(31) 0.76409(4)
H27_8 H 0.3207 0.2908 0.7726
H32_8 H 0.2874 0.2372 0.7615
C47_8 C 0.1226(3) 0.1905(4) 0.79428(7)
H37_8 H 0.0875 0.1878 0.7965
C52_8 C 0.2085(4) 0.2330(5) 0.77951(6)
C57_8 C 0.1899(4) 0.1606(5) 0.79854(6)
H42_8 H 0.2017 0.1380 0.8038
C62_8 C 0.1577(4) 0.2294(5) 0.78350(7)
C67_8 C 0.3347(4) 0.4729(5) 0.76935(5)
H47_8 H 0.3220 0.4677 0.7590
C72_8 C 0.2246(4) 0.1998(4) 0.78715(7)
H52_8 H 0.2598 0.2030 0.7848
O40_8 O 0.3876(3) 0.4115(4) 0.79640(5)
C77_8 C 0.33540(28) 0.51617(34) 0.77815(6)
H57_8 H 0.3263 0.5418 0.7734
C82_8 C 0.3673(4) 0.4478(5) 0.79088(8)
C87_8 C 0.0993(4) 0.1128(5) 0.81322(7)
C92_8 C 0.3654(4) 0.4877(5) 0.79985(6)
H62_8 H 0.3755 0.4912 0.8104
O45_8 O 0.05327(21) 0.11271(26) 0.81708(4)
O53_8 O 0.33535(19) 0.60136(24) 0.79657(3)
O62_8 O 0.14506(27) 0.26577(32) 0.77559(5)
C97_8 C 0.3474(3) 0.5669(4) 0.80335(6)
C102_8 C 0.0778(6) 0.2443(7) 0.77500(10)
H67_8 H 0.0716 0.2708 0.7689
H72_8 H 0.0577 0.2069 0.7702
H77_8 H 0.0637 0.2423 0.7855
C107_8 C 0.4061(6) 0.4163(7) 0.81247(10)
H82_8 H 0.4191 0.3895 0.8144
H87_8 H 0.3746 0.4081 0.8194
H92_8 H 0.4370 0.4546 0.8144
C1_10 C -0.0000 0.6859(2) 0.7500
C6_9 C 0.01850(18) 0.72508(17) 0.73591(4)
H3_9 H 0.0300 0.7092 0.7274
H4_9 H 0.0503 0.7628 0.7385
C9_9 C 0.0294(3) 0.8394(2) 0.70146(6)
H6_9 H 0.0638 0.8620 0.6962
C12_9 C 0.0249(2) 0.8002(3) 0.71285(7)
H8_9 H 0.0569 0.7970 0.7152
H14_9 H 0.0297 0.6105 0.6856
Zn16_9 Zn 0.261227(18) 0.658360(25) 0.835363(4)
O13_9 O 0.04037(11) 0.64533(17) 0.76795(3)
C22_9 C 0.0863(2) 0.6479(3) 0.77547(6)
O18_9 O 0.21106(12) 0.64840(18) 0.81809(3)
C27_9 C 0.05216(15) 0.68002(22) 0.75388(4)
H17_9 H 0.0604 0.6620 0.7452
H22_9 H 0.0854 0.7177 0.7556
O26_9 O 0.03147(15) 0.75970(19) 0.76822(3)
C32_9 C 0.1731(2) 0.6511(3) 0.79356(6)
C37_9 C 0.0185(3) 0.8625(4) 0.80172(6)
C47_9 C 0.0678(2) 0.8774(3) 0.79428(7)
H37_9 H 0.1002 0.9125 0.7965
C52_9 C 0.0244(3) 0.7915(4) 0.77951(6)
C62_9 C 0.0716(3) 0.8423(4) 0.78350(7)
C67_9 C 0.1381(3) 0.6653(4) 0.76935(5)
H47_9 H 0.1456 0.6780 0.7590
O40_9 O 0.0238(2) 0.6124(3) 0.79640(5)
C77_9 C 0.18076(19) 0.66460(28) 0.77815(6)
H57_9 H 0.2154 0.6737 0.7734
C82_9 C 0.0804(3) 0.6327(4) 0.79088(8)
C87_9 C 0.0134(3) 0.9007(4) 0.81322(7)
C92_9 C 0.1222(3) 0.6346(4) 0.79985(6)
H62_9 H 0.1156 0.6245 0.8104
O45_9 O 0.05943(16) 0.94673(21) 0.81708(4)
O53_9 O 0.26600(14) 0.66465(19) 0.79657(3)
O62_9 O 0.12070(18) 0.85494(27) 0.77559(5)
C97_9 C 0.2194(2) 0.6526(3) 0.80335(6)
C102_9 C 0.1664(4) 0.9222(6) 0.77500(10)
H67_9 H 0.1991 0.9284 0.7689
H72_9 H 0.1491 0.9423 0.7702
H77_9 H 0.1785 0.9363 0.7855
C107_9 C 0.0101(3) 0.5939(6) 0.81247(10)
H87_9 H 0.0334 0.6254 0.8194
H92_9 H 0.0175 0.5630 0.8144
C1_11 C 1.0000 0.6859(2) 0.7500
O2_9 O 0.95963(11) 0.60495(13) 0.73205(3)
C2_9 C 0.9137(2) 0.5615(2) 0.72453(6)
C3_9 C 0.94784(15) 0.62785(16) 0.74612(4)
H1_9 H 0.9396 0.6015 0.7548
H2_9 H 0.9146 0.6322 0.7444
O4_9 O 0.96853(15) 0.72822(12) 0.73178(3)
C4_9 C 0.8269(2) 0.4779(2) 0.70644(6)
C5_9 C 0.9815(3) 0.8439(3) 0.69828(6)
C7_9 C 0.9322(2) 0.8095(2) 0.70572(7)
H5_9 H 0.8998 0.8122 0.7035
C8_9 C 0.9756(3) 0.7670(3) 0.72049(6)
C10_9 C 0.9284(3) 0.7706(3) 0.71650(7)
C11_9 C 0.8619(3) 0.5271(2) 0.73065(5)
H7_9 H 0.8544 0.5323 0.7410
O6_9 O 0.9762(2) 0.5885(2) 0.70360(5)
C13_9 C 0.81924(19) 0.4838(2) 0.72185(6)
H9_9 H 0.7846 0.4582 0.7266
C14_9 C 0.9196(3) 0.5522(3) 0.70912(8)
C15_9 C 0.9866(3) 0.8872(3) 0.68678(7)
C16_9 C 0.8778(3) 0.5123(3) 0.70015(6)
H10_9 H 0.8844 0.5088 0.6896
O9_9 O 0.87930(18) 0.7342(2) 0.72441(5)
C17_9 C 0.7806(2) 0.4331(2) 0.69665(6)
C18_9 C 0.8336(4) 0.7557(4) 0.72500(10)
H11_9 H 0.8009 0.7292 0.7311
H12_9 H 0.8509 0.7931 0.7298
H13_9 H 0.8215 0.7577 0.7145
C19_9 C 0.9899(3) 0.5837(5) 0.68753(10)
H15_9 H 0.9666 0.5919 0.6806
H16_9 H 0.9825 0.5454 0.6856
O31_9 O 0.96437(13) 0.88620(19) 0.81892(3)
C42_9 C 0.98150(18) 0.70659(25) 0.76409(4)
H27_9 H 0.9700 0.6793 0.7726
H32_9 H 0.9497 0.7126 0.7615
C57_9 C 0.9706(3) 0.8101(4) 0.79854(6)
H42_9 H 0.9362 0.7983 0.8038
C72_9 C 0.9751(2) 0.7754(4) 0.78715(7)
H52_9 H 0.9431 0.7402 0.7848
H82_9 H 0.9703 0.5809 0.8144
O12_3 O -0.0000 -0.0000 0.83869(3)
O12_4 O -0.0000 1.0000 0.83869(3)
Zn5_3 Zn 0.0000 0.0000 0.861481(7)
Zn7_6 Zn 0.6667 0.3333 0.971852(7)
O12_5 O 1.0000 -0.0000 0.83869(3)
O14_3 O 0.29296(11) 0.02134(17) 0.89872(3)
O15_3 O 0.37371(11) 0.06171(13) 0.93461(3)
C23_3 C 0.2470(2) 0.0188(3) 0.89120(6)
C24_3 C 0.4197(2) 0.1051(2) 0.94213(6)
O19_3 O 0.12227(12) 0.01827(18) 0.84858(3)
O20_3 O 0.54440(12) 0.22933(13) 0.98475(3)
C29_3 C 0.38550(15) 0.03881(16) 0.92054(4)
H18_3 H 0.2729 0.0047 0.9215
H19_3 H 0.3938 0.0651 0.9118
H24_3 H 0.4188 0.0344 0.9222
C33_3 C 0.1602(2) 0.0156(3) 0.87311(6)
C34_3 C 0.5065(2) 0.1887(2) 0.96022(6)
C68_3 C 0.1952(3) 0.0014(4) 0.89732(5)
C69_3 C 0.4715(3) 0.1395(2) 0.93601(5)
H49_3 H 0.4790 0.1343 0.9256
O41_3 O 0.3095(2) 0.0543(3) 0.87027(5)
O42_3 O 0.3572(2) 0.0781(2) 0.96306(5)
C78_3 C 0.15257(19) 0.00207(28) 0.88852(6)
C79_3 C 0.51410(19) 0.1828(2) 0.94481(6)
H59_3 H 0.5488 0.2084 0.9400
C83_3 C 0.2529(3) 0.0340(4) 0.87579(8)
C84_3 C 0.4138(3) 0.1144(3) 0.95754(8)
C93_3 C 0.2111(3) 0.0321(4) 0.86682(6)
C94_3 C 0.4556(3) 0.1543(3) 0.96651(6)
H63_3 H 0.2177 0.0422 0.8563
H64_3 H 0.4490 0.1578 0.9770
O54_3 O 0.06733(14) 0.00202(19) 0.87010(3)
O55_3 O 0.59934(14) 0.26802(13) 0.96323(3)
C98_3 C 0.1139(2) 0.0141(3) 0.86332(6)
C99_3 C 0.5528(2) 0.2335(2) 0.97001(6)
C108_3 C 0.3232(3) 0.0728(6) 0.85420(10)
C109_3 C 0.3435(3) 0.0829(5) 0.97913(10)
H83_3 H 0.3630 0.0858 0.8523
H84_3 H 0.3037 0.0561 0.9810
H88_3 H 0.2999 0.0413 0.8473
H89_3 H 0.3668 0.0747 0.9860
H93_3 H 0.3158 0.1037 0.8523
H94_3 H 0.3509 0.1212 0.9810
O1_11 O 0.3333 0.6667 0.82798(3)
Zn5_4 Zn 0.0000 1.0000 0.861481(7)
O12_6 O 1.0000 1.0000 0.83869(3)
C20_4 C 0.3333 0.9807(2) 0.9167
C21_6 C 0.0193(2) 0.3526(2) 0.9167
O25_3 O 0.89600(13) 0.87773(12) 0.84858(3)
C28_3 C 0.28117(15) 0.98665(22) 0.91279(4)
C30_5 C 0.01335(22) 0.29452(16) 0.91279(4)
H23_3 H 0.2479 0.9490 0.9111
H25_5 H 0.0510 0.2989 0.9111
O27_3 O 0.30186(15) 0.90697(19) 0.89845(3)
O28_3 O 0.36481(15) 0.93844(12) 0.93488(3)
O29_5 O 0.09303(19) 0.39489(12) 0.89845(3)
O30_5 O 0.06156(12) 0.42636(19) 0.93488(3)
O32_3 O 0.36896(13) 0.78047(19) 0.84775(3)
O33_3 O 0.29771(13) 0.74484(14) 0.98558(3)
O34_3 O 0.21953(19) 0.58849(14) 0.84775(3)
O35_5 O 0.25516(14) 0.55286(19) 0.98558(3)
O39_3 O 0.41151(14) 0.63104(13) 0.84775(3)
C38_3 C 0.3148(3) 0.8042(4) 0.86495(6)
C39_3 C 0.3519(3) 0.8227(3) 0.96838(6)
C40_5 C 0.1958(4) 0.5106(3) 0.86495(6)
C41_5 C 0.1773(3) 0.5291(4) 0.96838(6)
C43_3 C 0.35183(18) 0.96008(25) 0.90258(4)
C44_3 C 0.31484(18) 0.94158(17) 0.93075(4)
C45_5 C 0.03992(25) 0.39175(17) 0.90258(4)
C46_5 C 0.05842(17) 0.37325(25) 0.93075(4)
H28_3 H 0.3633 0.9874 0.8941
H29_3 H 0.3034 0.9574 0.9392
H30_5 H 0.0126 0.3759 0.8941
H31_5 H 0.0426 0.3459 0.9392
H33_3 H 0.3836 0.9541 0.9052
H34_3 H 0.2831 0.9038 0.9281
H35_5 H 0.0459 0.4295 0.9052
H36_5 H 0.0962 0.3792 0.9281
C48_3 C 0.2655(2) 0.7893(3) 0.87239(7)
C49_3 C 0.4012(2) 0.8571(2) 0.96094(7)
C50_5 C 0.2107(3) 0.4762(2) 0.87239(7)
C51_5 C 0.1429(2) 0.5440(3) 0.96094(7)
H38_3 H 0.2331 0.7542 0.8702
H39_3 H 0.4336 0.8544 0.9631
H40_5 H 0.2458 0.4789 0.8702
H41_5 H 0.1456 0.5791 0.9631
C53_3 C 0.3089(3) 0.8752(4) 0.88716(6)
C54_3 C 0.3578(3) 0.8996(3) 0.94617(6)
C55_5 C 0.1248(4) 0.4337(3) 0.88716(6)
C56_5 C 0.1004(3) 0.4581(4) 0.94617(6)
C58_3 C 0.3627(3) 0.8566(4) 0.86813(6)
C59_3 C 0.3040(3) 0.8272(2) 0.96520(6)
C60_5 C 0.1434(4) 0.5061(2) 0.86813(6)
C61_5 C 0.1728(2) 0.4767(4) 0.96520(6)
H43_3 H 0.3971 0.8684 0.8629
H44_3 H 0.2696 0.8046 0.9704
H45_5 H 0.1316 0.5287 0.8629
H46_5 H 0.1954 0.4649 0.9704
C63_3 C 0.2617(3) 0.8244(4) 0.88317(7)
C64_3 C 0.4050(3) 0.8960(3) 0.95016(7)
C65_5 C 0.1756(4) 0.4373(3) 0.88317(7)
C66_5 C 0.1040(3) 0.5089(4) 0.95016(7)
H48_3 H 0.1877 0.9887 0.9077
H50_5 H 0.0113 0.1990 0.9077
C73_3 C 0.3582(2) 0.8913(4) 0.87952(7)
C74_3 C 0.3085(2) 0.8664(3) 0.95381(7)
C75_5 C 0.1087(4) 0.4669(3) 0.87952(7)
C76_5 C 0.1336(3) 0.4420(4) 0.95381(7)
H53_3 H 0.3902 0.9265 0.8819
H54_3 H 0.2765 0.8696 0.9514
H55_5 H 0.0735 0.4637 0.8819
H56_5 H 0.1304 0.4068 0.9514
H58_3 H 0.1179 0.9930 0.8933
H60_5 H 0.0070 0.1249 0.8933
C88_3 C 0.3199(3) 0.7660(4) 0.85345(7)
C89_3 C 0.3468(3) 0.7794(3) 0.97988(7)
C90_5 C 0.2340(4) 0.5539(3) 0.85345(7)
C91_5 C 0.2206(3) 0.5673(4) 0.97988(7)
O46_3 O 0.27390(16) 0.71994(21) 0.84959(4)
O47_3 O 0.39277(16) 0.77937(13) 0.98374(4)
O48_3 O 0.28006(21) 0.55396(13) 0.84959(4)
O49_5 O 0.22063(13) 0.61339(21) 0.98374(4)
O52_3 O 0.44604(13) 0.72610(16) 0.84959(4)
O63_3 O 0.21263(18) 0.81173(27) 0.89108(5)
O64_3 O 0.45404(18) 0.9324(2) 0.94225(5)
O65_5 O 0.18827(27) 0.4009(2) 0.89108(5)
O66_5 O 0.0676(2) 0.52160(27) 0.94225(5)
C103_3 C 0.1669(4) 0.7445(6) 0.89167(10)
C104_3 C 0.4998(4) 0.9109(4) 0.94166(10)
C105_5 C 0.2555(6) 0.4224(4) 0.89167(10)
C106_5 C 0.0891(4) 0.5888(6) 0.94166(10)
H68_3 H 0.1342 0.7383 0.8978
H69_3 H 0.5325 0.9374 0.9355
H70_5 H 0.2617 0.3959 0.8978
H71_5 H 0.0626 0.5950 0.9355
H73_3 H 0.1842 0.7244 0.8965
H74_3 H 0.4825 0.8735 0.9368
H75_5 H 0.2756 0.4598 0.8965
H76_5 H 0.1265 0.6089 0.9368
H78_3 H 0.1548 0.7304 0.8812
H79_3 H 0.5119 0.9089 0.9521
H80_5 H 0.2696 0.4244 0.8812
H81_5 H 0.0911 0.6029 0.9521
Zn5_5 Zn 1.0000 0.0000 0.861481(7)
Zn5_6 Zn 1.0000 1.0000 0.861481(7)
O16_5 O 0.97866(17) 0.27162(13) 0.89872(3)
O17_5 O 0.93829(13) 0.31199(17) 0.93461(3)
C25_5 C 0.9812(3) 0.2282(2) 0.89120(6)
C26_5 C 0.8949(2) 0.3145(3) 0.94213(6)
O21_3 O 0.98173(18) 0.10400(13) 0.84858(3)
O22_5 O 0.77067(13) 0.31506(18) 0.98475(3)
C31_5 C 0.96119(16) 0.34668(22) 0.92054(4)
H20_5 H 0.9953 0.2682 0.9215
H21_5 H 0.9349 0.3286 0.9118
H26_5 H 0.9656 0.3843 0.9222
C35_5 C 0.9844(3) 0.1446(2) 0.87311(6)
C36_5 C 0.8113(2) 0.3177(3) 0.96022(6)
C70_5 C 0.9986(4) 0.1938(2) 0.89732(5)
C71_5 C 0.8605(2) 0.3319(4) 0.93601(5)
H51_5 H 0.8657 0.3446 0.9256
O43_5 O 0.9457(3) 0.2552(2) 0.87027(5)
O44_5 O 0.9219(2) 0.2790(3) 0.96306(5)
C80_5 C 0.99793(28) 0.1505(2) 0.88852(6)
C81_5 C 0.8172(2) 0.33126(28) 0.94481(6)
H61_5 H 0.7916 0.3403 0.9400
C85_5 C 0.9660(4) 0.2189(3) 0.87579(8)
C86_5 C 0.8856(3) 0.2993(4) 0.95754(8)
C95_5 C 0.9679(4) 0.1790(3) 0.86682(6)
C96_5 C 0.8457(3) 0.3012(4) 0.96651(6)
H65_5 H 0.9578 0.1755 0.8563
H66_5 H 0.8422 0.2911 0.9770
O56_3 O 0.99798(19) 0.06531(13) 0.87010(3)
O57_5 O 0.73198(13) 0.33131(19) 0.96323(3)
C100_5 C 0.9859(3) 0.0998(2) 0.86332(6)
C101_5 C 0.7665(2) 0.3192(3) 0.97001(6)
C110_5 C 0.9272(6) 0.2504(5) 0.85420(10)
C111_5 C 0.9171(5) 0.2605(6) 0.97913(10)
H85_5 H 0.9142 0.2772 0.8523
H86_5 H 0.9439 0.2475 0.9810
H90_5 H 0.9587 0.2586 0.8473
H91_5 H 0.9253 0.2920 0.9860
H95_5 H 0.8963 0.2121 0.8523
H96_5 H 0.8788 0.2296 0.9810
O58_3 O 0.93469(13) 0.93267(14) 0.87010(3)
C21_7 C 0.6474(2) 0.6667(3) 0.9167
O16_6 O 0.72838(13) 0.70704(21) 0.89872(3)
O17_6 O 0.68801(17) 0.62629(21) 0.93461(3)
C25_6 C 0.7718(2) 0.7530(4) 0.89120(6)
C26_6 C 0.6855(3) 0.5803(4) 0.94213(6)
O22_6 O 0.68494(18) 0.45560(22) 0.98475(3)
C30_6 C 0.70548(16) 0.71883(27) 0.91279(4)
C31_6 C 0.65332(22) 0.61450(27) 0.92054(4)
H20_6 H 0.7318 0.7271 0.9215
H21_6 H 0.6714 0.6062 0.9118
H25_6 H 0.7011 0.7521 0.9111
H26_6 H 0.6157 0.5812 0.9222
O29_6 O 0.60511(12) 0.69814(22) 0.89845(3)
O30_6 O 0.57364(19) 0.63519(22) 0.93488(3)
C35_6 C 0.8554(2) 0.8398(4) 0.87311(6)
C36_6 C 0.6823(3) 0.4935(4) 0.96022(6)
O35_6 O 0.44714(19) 0.70229(24) 0.98558(3)
C40_6 C 0.4894(3) 0.6852(5) 0.86495(6)
C41_6 C 0.4709(4) 0.6481(5) 0.96838(6)
C45_6 C 0.60825(17) 0.64817(30) 0.90258(4)
C46_6 C 0.62675(25) 0.68516(30) 0.93075(4)
H30_6 H 0.6241 0.6367 0.8941
H31_6 H 0.6541 0.6966 0.9392
H35_6 H 0.5705 0.6164 0.9052
H36_6 H 0.6208 0.7169 0.9281
C50_6 C 0.5238(2) 0.7345(4) 0.87239(7)
C51_6 C 0.4560(3) 0.5988(4) 0.96094(7)
H40_6 H 0.5211 0.7669 0.8702
H41_6 H 0.4209 0.5664 0.9631
C55_6 C 0.5663(3) 0.6911(5) 0.88716(6)
C56_6 C 0.5419(4) 0.6422(5) 0.94617(6)
C60_6 C 0.4939(2) 0.6373(4) 0.86813(6)
C61_6 C 0.5233(4) 0.6960(4) 0.96520(6)
H45_6 H 0.4713 0.6029 0.8629
H46_6 H 0.5351 0.7304 0.9704
C65_6 C 0.5627(3) 0.7383(5) 0.88317(7)
C66_6 C 0.4911(4) 0.5950(5) 0.95016(7)
C70_6 C 0.8062(2) 0.8048(4) 0.89732(5)
C71_6 C 0.6681(4) 0.5285(4) 0.93601(5)
H50_6 H 0.8010 0.8123 0.9077
H51_6 H 0.6554 0.5210 0.9256
C75_6 C 0.5331(3) 0.6418(5) 0.87952(7)
C76_6 C 0.5580(4) 0.6915(5) 0.95381(7)
H55_6 H 0.5363 0.6098 0.8819
H56_6 H 0.5932 0.7235 0.9514
O43_6 O 0.7448(2) 0.6905(4) 0.87027(5)
O44_6 O 0.7210(3) 0.6428(4) 0.96306(5)
C80_6 C 0.8495(2) 0.84743(34) 0.88852(6)
C81_6 C 0.66874(28) 0.48590(34) 0.94481(6)
H60_6 H 0.8751 0.8821 0.8933
H61_6 H 0.6597 0.4512 0.9400
C85_6 C 0.7811(3) 0.7471(5) 0.87579(8)
C86_6 C 0.7007(4) 0.5862(5) 0.95754(8)
C90_6 C 0.4461(3) 0.6801(5) 0.85345(7)
C91_6 C 0.4327(4) 0.6532(5) 0.97988(7)
C95_6 C 0.8210(3) 0.7889(5) 0.86682(6)
C96_6 C 0.6988(4) 0.5444(5) 0.96651(6)
H65_6 H 0.8245 0.7823 0.8563
H66_6 H 0.7089 0.5510 0.9770
O49_6 O 0.38661(21) 0.60723(25) 0.98374(4)
O57_6 O 0.66869(19) 0.40066(23) 0.96323(3)
O65_6 O 0.5991(2) 0.78737(34) 0.89108(5)
O66_6 O 0.47840(27) 0.54596(34) 0.94225(5)
C100_6 C 0.9002(2) 0.8861(4) 0.86332(6)
C101_6 C 0.6808(3) 0.4472(4) 0.97001(6)
C105_6 C 0.5776(4) 0.8331(7) 0.89167(10)
C106_6 C 0.4112(6) 0.5002(7) 0.94166(10)
H70_6 H 0.6041 0.8658 0.8978
H71_6 H 0.4050 0.4675 0.9355
H75_6 H 0.5402 0.8158 0.8965
H76_6 H 0.3911 0.5175 0.9368
H80_6 H 0.5756 0.8452 0.8812
H81_6 H 0.3971 0.4881 0.9521
C110_6 C 0.7496(5) 0.6768(8) 0.85420(10)
C111_6 C 0.7395(6) 0.6565(8) 0.97913(10)
H85_6 H 0.7228 0.6370 0.8523
H86_6 H 0.7525 0.6963 0.9810
H90_6 H 0.7414 0.7001 0.8473
H91_6 H 0.7080 0.6332 0.9860
H95_6 H 0.7879 0.6842 0.8523
H96_6 H 0.7704 0.6491 0.9810
O10_6 O 0.6667 0.3333 0.99464(3)
O1_12 O 0.3333 0.6667 0.00536(3)
loop_
_geom_bond_atom_site_label_1
_geom_bond_atom_site_label_2
_geom_bond_site_symmetry_1
_geom_bond_site_symmetry_2
Zn1 O1 1_555 1_555
Zn2 O1 1_555 1_555
C1 C3 1_555 1_555
O2 C2 1_555 1_555
C2 C11 1_555 1_555
O3 Zn2 1_555 1_555
C3 O2 1_555 1_555
H1 C3 1_555 1_555
H2 C3 1_555 1_555
O4 C6 1_555 1_555
C4 C13 1_555 1_555
O5 C15 1_555 1_555
C5 C7 1_555 1_555
C6 C1 1_555 1_555
H3 C6 1_555 1_555
H4 C6 1_555 1_555
C7 H5 1_555 1_555
C8 O4 1_555 1_555
C9 C5 1_555 1_555
H6 C9 1_555 1_555
C10 C7 1_555 1_555
C11 H7 1_555 1_555
C12 C8 1_555 1_555
H8 C12 1_555 1_555
O6 C14 1_555 1_555
C13 C11 1_555 1_555
H9 C13 1_555 1_555
C14 C2 1_555 1_555
C15 C5 1_555 1_555
C16 C4 1_555 1_555
H10 C16 1_555 1_555
O7 C15 1_555 1_555
O8 Zn1 1_555 1_555
O9 C10 1_555 1_555
C17 O3 1_555 1_555
C18 O9 1_555 1_555
H11 C18 1_555 1_555
H12 C18 1_555 1_555
H13 C18 1_555 1_555
C19 O6 1_555 1_555
H14 C19 1_555 1_555
H15 C19 1_555 1_555
H16 C19 1_555 1_555
Zn4 O53 1_555 1_555
Zn7 O55 1_555 1_555
Zn10 O7 1_555 1_555
Zn15 O47 1_555 1_555
Zn19 O5 1_555 1_555
Zn20 O45 1_555 1_555
Zn21 O31 1_555 1_555
Zn23 O20 1_555 1_555
O12 Zn10 1_555 1_555
O13 C22 1_555 1_555
O15 C24 1_555 1_555
C22 C67 1_555 1_555
C24 C69 1_555 1_555
O18 C97 1_555 1_555
O20 C99 1_555 1_555
O25 Zn10 1_555 1_555
C27 C1 1_555 1_555
C29 C20 1_555 1_555
H17 C27 1_555 1_555
H19 C29 1_555 1_555
H22 C27 1_555 1_555
H24 C29 1_555 1_555
O26 C42 1_555 1_555
C32 C77 1_555 1_555
C34 C79 1_555 1_555
O31 C87 1_555 1_555
O32 Zn2 1_555 1_555
O37 Zn10 1_555 1_555
C37 C47 1_555 1_555
C39 C49 1_555 1_555
C42 C1 1_555 1_555
C43 C20 1_555 1_555
H27 C42 1_555 1_555
H28 C43 1_555 1_555
H32 C42 1_555 1_555
H33 C43 1_555 1_555
C47 H37 1_555 1_555
C49 H39 1_555 1_555
C52 O26 1_555 1_555
C54 O28 1_555 1_555
C57 C37 1_555 1_555
H42 C57 1_555 1_555
H43 C58 1_555 1_555
C62 C47 1_555 1_555
C64 C49 1_555 1_555
C67 H47 1_555 1_555
C69 H49 1_555 1_555
C72 C52 1_555 1_555
H52 C72 1_555 1_555
H53 C73 1_555 1_555
O40 C82 1_555 1_555
O42 C84 1_555 1_555
C77 C67 1_555 1_555
C79 C69 1_555 1_555
H57 C77 1_555 1_555
H59 C79 1_555 1_555
C82 C22 1_555 1_555
C84 C24 1_555 1_555
C87 C37 1_555 1_555
C89 C39 1_555 1_555
C92 C32 1_555 1_555
C94 C34 1_555 1_555
H62 C92 1_555 1_555
H64 C94 1_555 1_555
O45 C87 1_555 1_555
O47 C89 1_555 1_555
O52 Zn2 1_555 1_555
O53 C97 1_555 1_555
O55 C99 1_555 1_555
O62 C62 1_555 1_555
O64 C64 1_555 1_555
C97 C32 1_555 1_555
C99 C34 1_555 1_555
C102 O62 1_555 1_555
C104 O64 1_555 1_555
H67 C102 1_555 1_555
H69 C104 1_555 1_555
H72 C102 1_555 1_555
H74 C104 1_555 1_555
H77 C102 1_555 1_555
H79 C104 1_555 1_555
C107 O40 1_555 1_555
C109 O42 1_555 1_555
H82 C107 1_555 1_555
H87 C107 1_555 1_555
H89 C109 1_555 1_555
H92 C107 1_555 1_555
H94 C109 1_555 1_555
C4 C17 1_555 1_555
C8 C10 1_555 1_555
C9 C12 1_555 1_555
C14 C16 1_555 1_555
O8 C17 1_555 1_555
Zn19 O12 1_555 1_555
O13 C27 1_555 1_555
O15 C29 1_555 1_555
C52 C62 1_555 1_555
C54 C64 1_555 1_555
C57 C72 1_555 1_555
C58 C73 1_555 1_555
C82 C92 1_555 1_555
C84 C94 1_555 1_555
Zn1_2 O1_2 1_555 1_555
Zn9 O1_2 1_555 1_555
O23 Zn9 1_555 1_555
O39 Zn9 1_555 1_555
O60 Zn1_2 1_555 1_555
Zn1_3 O1_3 1_555 1_555
Zn5 O12 1_555 1_555
Zn11 O12 1_555 1_555
Zn14 O33 1_555 1_555
C20_2 C28 1_555 1_555
O14 C23 1_555 1_555
C23 C68 1_555 1_555
O19 Zn11 1_555 1_555
C28 O14 1_555 1_555
H18 C28 1_555 1_555
H23 C28 1_555 1_555
C33 C78 1_555 1_555
O38 Zn11 1_555 1_555
C38 C48 1_555 1_555
C44 C20_2 1_555 1_555
H29 C44 1_555 1_555
H34 C44 1_555 1_555
C48 H38 1_555 1_555
C53 O27 1_555 1_555
H44 C59 1_555 1_555
C63 C48 1_555 1_555
C68 H48 1_555 1_555
H54 C74 1_555 1_555
O41 C83 1_555 1_555
C78 C68 1_555 1_555
H58 C78 1_555 1_555
C83 C23 1_555 1_555
C93 C33 1_555 1_555
H63 C93 1_555 1_555
O51 Zn11 1_555 1_555
O54 Zn5 1_555 1_555
O63 C63 1_555 1_555
C98 O19 1_555 1_555
C103 O63 1_555 1_555
H68 C103 1_555 1_555
H73 C103 1_555 1_555
H78 C103 1_555 1_555
C108 O41 1_555 1_555
H88 C108 1_555 1_555
H93 C108 1_555 1_555
C33 C98 1_555 1_555
C38 C88 1_555 1_555
C53 C63 1_555 1_555
C59 C74 1_555 1_555
C83 C93 1_555 1_555
C88 O46 1_555 1_555
O54 C98 1_555 1_555
Zn1_4 O1_4 1_555 1_555
O1_4 Zn8 1_555 1_555
Zn7 O57 1_555 1_555
Zn8 O24 1_555 1_555
Zn13 O35 1_555 1_555
Zn22 O22 1_555 1_555
C21 C30 1_555 1_555
O16 C25 1_555 1_555
O17 C26 1_555 1_555
C25 C70 1_555 1_555
C26 C71 1_555 1_555
O21 Zn19 1_555 1_555
O22 C101 1_555 1_555
C30 O16 1_555 1_555
C31 C21 1_555 1_555
H20 C30 1_555 1_555
H21 C31 1_555 1_555
H25 C30 1_555 1_555
H26 C31 1_555 1_555
O29 C45 1_555 1_555
O30 C46 1_555 1_555
C35 C80 1_555 1_555
C36 C81 1_555 1_555
O34 Zn8 1_555 1_555
O35 C91 1_555 1_555
C40 C50 1_555 1_555
C41 C51 1_555 1_555
C45 C21 1_555 1_555
C46 C21 1_555 1_555
H30 C45 1_555 1_555
H31 C46 1_555 1_555
H35 C45 1_555 1_555
H36 C46 1_555 1_555
C50 H40 1_555 1_555
C51 H41 1_555 1_555
C55 O29 1_555 1_555
C56 O30 1_555 1_555
C60 C40 1_555 1_555
C61 C41 1_555 1_555
H45 C60 1_555 1_555
H46 C61 1_555 1_555
C65 C50 1_555 1_555
C66 C51 1_555 1_555
C70 H50 1_555 1_555
C71 H51 1_555 1_555
C75 C55 1_555 1_555
C76 C56 1_555 1_555
H55 C75 1_555 1_555
H56 C76 1_555 1_555
O43 C85 1_555 1_555
O44 C86 1_555 1_555
C80 C70 1_555 1_555
C81 C71 1_555 1_555
H60 C80 1_555 1_555
H61 C81 1_555 1_555
C85 C25 1_555 1_555
C86 C26 1_555 1_555
C90 O34 1_555 1_555
C91 C41 1_555 1_555
C95 C35 1_555 1_555
C96 C36 1_555 1_555
H65 C95 1_555 1_555
H66 C96 1_555 1_555
O50 Zn19 1_555 1_555
O56 Zn5 1_555 1_555
O57 C101 1_555 1_555
O58 Zn5 1_555 1_555
O61 Zn1_4 1_555 1_555
O65 C65 1_555 1_555
O66 C66 1_555 1_555
C100 O21 1_555 1_555
C101 C36 1_555 1_555
C105 O65 1_555 1_555
C106 O66 1_555 1_555
H70 C105 1_555 1_555
H71 C106 1_555 1_555
H75 C105 1_555 1_555
H76 C106 1_555 1_555
H80 C105 1_555 1_555
H81 C106 1_555 1_555
C110 O43 1_555 1_555
C111 O44 1_555 1_555
H85 C110 1_555 1_555
H86 C111 1_555 1_555
H90 C110 1_555 1_555
H91 C111 1_555 1_555
H95 C110 1_555 1_555
H96 C111 1_555 1_555
O17 C31 1_555 1_555
C35 C100 1_555 1_555
C40 C90 1_555 1_555
C55 C65 1_555 1_555
C56 C66 1_555 1_555
C60 C75 1_555 1_555
C61 C76 1_555 1_555
C85 C95 1_555 1_555
C86 C96 1_555 1_555
C90 O48 1_555 1_555
C91 O49 1_555 1_555
O56 C100 1_555 1_555
Zn15 O35_2 1_555 1_555
C21_2 C30_2 1_555 1_555
O16_2 C25_2 1_555 1_555
C25_2 C70_2 1_555 1_555
C30_2 O16_2 1_555 1_555
H20_2 C30_2 1_555 1_555
H25_2 C30_2 1_555 1_555
C35_2 C80_2 1_555 1_555
C40_2 C50_2 1_555 1_555
C46_2 C21_2 1_555 1_555
H31_2 C46_2 1_555 1_555
H36_2 C46_2 1_555 1_555
C50_2 H40_2 1_555 1_555
C55_2 O29_2 1_555 1_555
H46_2 C61_2 1_555 1_555
C65_2 C50_2 1_555 1_555
C70_2 H50_2 1_555 1_555
H56_2 C76_2 1_555 1_555
O43_2 C85_2 1_555 1_555
C80_2 C70_2 1_555 1_555
H60_2 C80_2 1_555 1_555
C85_2 C25_2 1_555 1_555
C95_2 C35_2 1_555 1_555
H65_2 C95_2 1_555 1_555
O65_2 C65_2 1_555 1_555
C100_2 O25 1_555 1_555
C105_2 O65_2 1_555 1_555
H70_2 C105_2 1_555 1_555
H75_2 C105_2 1_555 1_555
H80_2 C105_2 1_555 1_555
C110_2 O43_2 1_555 1_555
H90_2 C110_2 1_555 1_555
H95_2 C110_2 1_555 1_555
C35_2 C100_2 1_555 1_555
C40_2 C90_2 1_555 1_555
C55_2 C65_2 1_555 1_555
C61_2 C76_2 1_555 1_555
C85_2 C95_2 1_555 1_555
C90_2 O52 1_555 1_555
O58 C100_2 1_555 1_555
Zn7 O57_2 1_555 1_555
Zn22_2 O22_2 1_555 1_555
O17_2 C26_2 1_555 1_555
C26_2 C71_2 1_555 1_555
O22_2 C101_2 1_555 1_555
C31_2 C21_3 1_555 1_555
H21_2 C31_2 1_555 1_555
H26_2 C31_2 1_555 1_555
C36_2 C81_2 1_555 1_555
C41_2 C51_2 1_555 1_555
C45_2 C21_3 1_555 1_555
H30_2 C45_2 1_555 1_555
H35_2 C45_2 1_555 1_555
C51_2 H41_2 1_555 1_555
C56_2 O30_2 1_555 1_555
H45_2 C60_2 1_555 1_555
C66_2 C51_2 1_555 1_555
C71_2 H51_2 1_555 1_555
H55_2 C75_2 1_555 1_555
O44_2 C86_2 1_555 1_555
C81_2 C71_2 1_555 1_555
H61_2 C81_2 1_555 1_555
C86_2 C26_2 1_555 1_555
C91_2 C41_2 1_555 1_555
C96_2 C36_2 1_555 1_555
H66_2 C96_2 1_555 1_555
O57_2 C101_2 1_555 1_555
O66_2 C66_2 1_555 1_555
C101_2 C36_2 1_555 1_555
C106_2 O66_2 1_555 1_555
H71_2 C106_2 1_555 1_555
H76_2 C106_2 1_555 1_555
H81_2 C106_2 1_555 1_555
C111_2 O44_2 1_555 1_555
H91_2 C111_2 1_555 1_555
H96_2 C111_2 1_555 1_555
O17_2 C31_2 1_555 1_555
C56_2 C66_2 1_555 1_555
C60_2 C75_2 1_555 1_555
C86_2 C96_2 1_555 1_555
C91_2 O49_2 1_555 1_555
C1_2 C3_2 1_555 1_555
H2_2 C3_2 1_555 1_555
O4_2 C6_2 1_555 1_555
O37 C15_2 1_555 1_555
C5_2 C7_2 1_555 1_555
C6_2 C1_2 1_555 1_555
H3_2 C6_2 1_555 1_555
H4_2 C6_2 1_555 1_555
C7_2 H5_2 1_555 1_555
C8_2 O4_2 1_555 1_555
C9_2 C5_2 1_555 1_555
H6_2 C9_2 1_555 1_555
C10_2 C7_2 1_555 1_555
C12_2 C8_2 1_555 1_555
H8_2 C12_2 1_555 1_555
C15_2 C5_2 1_555 1_555
O51 C15_2 1_555 1_555
O9_2 C10_2 1_555 1_555
C18_2 O9_2 1_555 1_555
H11_2 C18_2 1_555 1_555
H12_2 C18_2 1_555 1_555
H13_2 C18_2 1_555 1_555
Zn21 O45_2 1_555 1_555
Zn21_2 O31_2 1_555 1_555
O26_2 C42_2 1_555 1_555
O31_2 C87_2 1_555 1_555
C37_2 C47_2 1_555 1_555
C42_2 C1_2 1_555 1_555
H27_2 C42_2 1_555 1_555
H32_2 C42_2 1_555 1_555
C47_2 H37_2 1_555 1_555
C52_2 O26_2 1_555 1_555
C57_2 C37_2 1_555 1_555
H42_2 C57_2 1_555 1_555
C62_2 C47_2 1_555 1_555
C72_2 C52_2 1_555 1_555
H52_2 C72_2 1_555 1_555
C87_2 C37_2 1_555 1_555
O45_2 C87_2 1_555 1_555
O62_2 C62_2 1_555 1_555
C102_2 O62_2 1_555 1_555
H67_2 C102_2 1_555 1_555
H72_2 C102_2 1_555 1_555
H77_2 C102_2 1_555 1_555
C8_2 C10_2 1_555 1_555
C9_2 C12_2 1_555 1_555
C52_2 C62_2 1_555 1_555
C57_2 C72_2 1_555 1_555
O2_2 C2_2 1_555 1_555
C2_2 C11_2 1_555 1_555
C4_2 C13_2 1_555 1_555
O6_2 C14_2 1_555 1_555
C13_2 C11_2 1_555 1_555
C14_2 C2_2 1_555 1_555
C16_2 C4_2 1_555 1_555
H10_2 C16_2 1_555 1_555
C17_2 O24 1_555 1_555
C19_2 O6_2 1_555 1_555
H14_2 C19_2 1_555 1_555
H15_2 C19_2 1_555 1_555
H16_2 C19_2 1_555 1_555
Zn4 O53_2 1_555 1_555
O13_2 C22_2 1_555 1_555
C22_2 C67_2 1_555 1_555
O18_2 C97_2 1_555 1_555
H17_2 C27_2 1_555 1_555
H22_2 C27_2 1_555 1_555
C32_2 C77_2 1_555 1_555
C67_2 H47_2 1_555 1_555
O40_2 C82_2 1_555 1_555
C77_2 C67_2 1_555 1_555
H57_2 C77_2 1_555 1_555
C82_2 C22_2 1_555 1_555
C92_2 C32_2 1_555 1_555
H62_2 C92_2 1_555 1_555
O53_2 C97_2 1_555 1_555
C97_2 C32_2 1_555 1_555
C107_2 O40_2 1_555 1_555
H82_2 C107_2 1_555 1_555
H87_2 C107_2 1_555 1_555
H92_2 C107_2 1_555 1_555
C4_2 C17_2 1_555 1_555
C14_2 C16_2 1_555 1_555
O61 C17_2 1_555 1_555
O13_2 C27_2 1_555 1_555
C82_2 C92_2 1_555 1_555
O2_3 C2_3 1_555 1_555
C2_3 C11_3 1_555 1_555
C4_3 C13_3 1_555 1_555
O6_3 C14_3 1_555 1_555
C13_3 C11_3 1_555 1_555
C14_3 C2_3 1_555 1_555
C16_3 C4_3 1_555 1_555
H10_3 C16_3 1_555 1_555
C17_3 O23 1_555 1_555
C19_3 O6_3 1_555 1_555
H14_3 C19_3 1_555 1_555
H15_3 C19_3 1_555 1_555
H16_3 C19_3 1_555 1_555
Zn4 O53_3 1_555 1_555
O13_3 C22_3 1_555 1_555
C22_3 C67_3 1_555 1_555
O18_3 C97_3 1_555 1_555
H17_3 C27_3 1_555 1_555
H22_3 C27_3 1_555 1_555
C32_3 C77_3 1_555 1_555
C67_3 H47_3 1_555 1_555
O40_3 C82_3 1_555 1_555
C77_3 C67_3 1_555 1_555
H57_3 C77_3 1_555 1_555
C82_3 C22_3 1_555 1_555
C92_3 C32_3 1_555 1_555
H62_3 C92_3 1_555 1_555
O53_3 C97_3 1_555 1_555
C97_3 C32_3 1_555 1_555
C107_3 O40_3 1_555 1_555
H82_3 C107_3 1_555 1_555
H87_3 C107_3 1_555 1_555
H92_3 C107_3 1_555 1_555
C4_3 C17_3 1_555 1_555
C14_3 C16_3 1_555 1_555
O60 C17_3 1_555 1_555
O13_3 C27_3 1_555 1_555
C82_3 C92_3 1_555 1_555
C1_3 C3_3 1_555 1_555
H2_3 C3_3 1_555 1_555
O4_3 C6_3 1_555 1_555
O38 C15_3 1_555 1_555
C5_3 C7_3 1_555 1_555
C6_3 C1_3 1_555 1_555
H3_3 C6_3 1_555 1_555
H4_3 C6_3 1_555 1_555
C7_3 H5_3 1_555 1_555
C8_3 O4_3 1_555 1_555
C9_3 C5_3 1_555 1_555
H6_3 C9_3 1_555 1_555
C10_3 C7_3 1_555 1_555
C12_3 C8_3 1_555 1_555
H8_3 C12_3 1_555 1_555
C15_3 C5_3 1_555 1_555
O50 C15_3 1_555 1_555
O9_3 C10_3 1_555 1_555
C18_3 O9_3 1_555 1_555
H11_3 C18_3 1_555 1_555
H12_3 C18_3 1_555 1_555
H13_3 C18_3 1_555 1_555
Zn21_2 O45_3 1_555 1_555
Zn20 O31_3 1_555 1_555
O26_3 C42_3 1_555 1_555
O31_3 C87_3 1_555 1_555
C37_3 C47_3 1_555 1_555
C42_3 C1_3 1_555 1_555
H27_3 C42_3 1_555 1_555
H32_3 C42_3 1_555 1_555
C47_3 H37_3 1_555 1_555
C52_3 O26_3 1_555 1_555
C57_3 C37_3 1_555 1_555
H42_3 C57_3 1_555 1_555
C62_3 C47_3 1_555 1_555
C72_3 C52_3 1_555 1_555
H52_3 C72_3 1_555 1_555
C87_3 C37_3 1_555 1_555
O45_3 C87_3 1_555 1_555
O62_3 C62_3 1_555 1_555
C102_3 O62_3 1_555 1_555
H67_3 C102_3 1_555 1_555
H72_3 C102_3 1_555 1_555
H77_3 C102_3 1_555 1_555
C8_3 C10_3 1_555 1_555
C9_3 C12_3 1_555 1_555
C52_3 C62_3 1_555 1_555
C57_3 C72_3 1_555 1_555
Zn1_5 O1_5 1_555 1_555
Zn7 O10 1_555 1_555
Zn15 O1_5 1_555 1_555
Zn23 O10 1_555 1_555
Zn22_2 O10 1_555 1_555
Zn22 O10 1_555 1_555
O23_2 Zn15 1_555 1_555
O36 Zn23 1_555 1_555
O50_2 Zn23 1_555 1_555
O60_2 Zn1_5 1_555 1_555
Zn1_6 O1_6 1_555 1_555
C1_4 C3_4 1_555 1_555
H2_4 C3_4 1_555 1_555
O4_4 C6_4 1_555 1_555
O36 C15_4 1_555 1_555
C5_4 C7_4 1_555 1_555
C6_4 C1_4 1_555 1_555
H3_4 C6_4 1_555 1_555
H4_4 C6_4 1_555 1_555
C7_4 H5_4 1_555 1_555
C8_4 O4_4 1_555 1_555
C9_4 C5_4 1_555 1_555
H6_4 C9_4 1_555 1_555
C10_4 C7_4 1_555 1_555
C12_4 C8_4 1_555 1_555
H8_4 C12_4 1_555 1_555
C15_4 C5_4 1_555 1_555
O7_2 C15_4 1_555 1_555
O9_4 C10_4 1_555 1_555
C18_4 O9_4 1_555 1_555
H11_4 C18_4 1_555 1_555
H12_4 C18_4 1_555 1_555
H13_4 C18_4 1_555 1_555
Zn22_2 O7_2 1_555 1_555
Zn20_2 O45_4 1_555 1_555
Zn21_3 O31_4 1_555 1_555
O26_4 C42_4 1_555 1_555
O31_4 C87_4 1_555 1_555
O37_2 Zn22_2 1_555 1_555
C37_4 C47_4 1_555 1_555
C42_4 C1_4 1_555 1_555
H27_4 C42_4 1_555 1_555
H32_4 C42_4 1_555 1_555
C47_4 H37_4 1_555 1_555
C52_4 O26_4 1_555 1_555
C57_4 C37_4 1_555 1_555
H42_4 C57_4 1_555 1_555
C62_4 C47_4 1_555 1_555
C72_4 C52_4 1_555 1_555
H52_4 C72_4 1_555 1_555
C87_4 C37_4 1_555 1_555
O45_4 C87_4 1_555 1_555
O62_4 C62_4 1_555 1_555
C102_4 O62_4 1_555 1_555
H67_4 C102_4 1_555 1_555
H72_4 C102_4 1_555 1_555
H77_4 C102_4 1_555 1_555
C8_4 C10_4 1_555 1_555
C9_4 C12_4 1_555 1_555
C52_4 C62_4 1_555 1_555
C57_4 C72_4 1_555 1_555
Zn1_7 O1_7 1_555 1_555
O1_7 Zn14 1_555 1_555
Zn14 O24_2 1_555 1_555
O61_2 Zn1_7 1_555 1_555
Zn1_8 O1_8 1_555 1_555
Zn13 O1_8 1_555 1_555
O2_4 C2_4 1_555 1_555
C2_4 C11_4 1_555 1_555
O3_2 Zn13 1_555 1_555
C4_4 C13_4 1_555 1_555
O6_4 C14_4 1_555 1_555
C13_4 C11_4 1_555 1_555
C14_4 C2_4 1_555 1_555
C16_4 C4_4 1_555 1_555
H10_4 C16_4 1_555 1_555
O8_2 Zn1_8 1_555 1_555
C17_4 O3_2 1_555 1_555
C19_4 O6_4 1_555 1_555
H14_4 C19_4 1_555 1_555
H15_4 C19_4 1_555 1_555
H16_4 C19_4 1_555 1_555
Zn4_2 O53_4 1_555 1_555
Zn16_4 O18_4 1_555 1_555
O13_4 C22_4 1_555 1_555
C22_4 C67_4 1_555 1_555
O18_4 C97_4 1_555 1_555
H17_4 C27_4 1_555 1_555
H22_4 C27_4 1_555 1_555
C32_4 C77_4 1_555 1_555
O38_2 Zn22 1_555 1_555
C67_4 H47_4 1_555 1_555
O40_4 C82_4 1_555 1_555
C77_4 C67_4 1_555 1_555
H57_4 C77_4 1_555 1_555
C82_4 C22_4 1_555 1_555
C92_4 C32_4 1_555 1_555
H62_4 C92_4 1_555 1_555
O51_2 Zn22 1_555 1_555
O53_4 C97_4 1_555 1_555
C97_4 C32_4 1_555 1_555
C107_4 O40_4 1_555 1_555
H82_4 C107_4 1_555 1_555
H87_4 C107_4 1_555 1_555
H92_4 C107_4 1_555 1_555
C4_4 C17_4 1_555 1_555
C14_4 C16_4 1_555 1_555
O8_2 C17_4 1_555 1_555
O13_4 C27_4 1_555 1_555
C82_4 C92_4 1_555 1_555
O2_5 C2_5 1_555 1_555
C2_5 C11_5 1_555 1_555
C4_5 C13_5 1_555 1_555
O6_5 C14_5 1_555 1_555
C13_5 C11_5 1_555 1_555
C14_5 C2_5 1_555 1_555
C16_5 C4_5 1_555 1_555
H10_5 C16_5 1_555 1_555
C17_5 O24_2 1_555 1_555
C19_5 O6_5 1_555 1_555
H14_5 C19_5 1_555 1_555
H15_5 C19_5 1_555 1_555
H16_5 C19_5 1_555 1_555
Zn4_2 O53_5 1_555 1_555
Zn16_5 O18_5 1_555 1_555
O13_5 C22_5 1_555 1_555
C22_5 C67_5 1_555 1_555
O18_5 C97_5 1_555 1_555
H17_5 C27_5 1_555 1_555
H22_5 C27_5 1_555 1_555
C32_5 C77_5 1_555 1_555
C67_5 H47_5 1_555 1_555
O40_5 C82_5 1_555 1_555
C77_5 C67_5 1_555 1_555
H57_5 C77_5 1_555 1_555
C82_5 C22_5 1_555 1_555
C92_5 C32_5 1_555 1_555
H62_5 C92_5 1_555 1_555
O53_5 C97_5 1_555 1_555
C97_5 C32_5 1_555 1_555
C107_5 O40_5 1_555 1_555
H82_5 C107_5 1_555 1_555
H87_5 C107_5 1_555 1_555
H92_5 C107_5 1_555 1_555
C4_5 C17_5 1_555 1_555
C14_5 C16_5 1_555 1_555
O61_2 C17_5 1_555 1_555
O13_5 C27_5 1_555 1_555
C82_5 C92_5 1_555 1_555
C1_5 C3_5 1_555 1_555
H2_5 C3_5 1_555 1_555
O4_5 C6_5 1_555 1_555
O37_2 C15_5 1_555 1_555
C5_5 C7_5 1_555 1_555
C6_5 C1_5 1_555 1_555
H3_5 C6_5 1_555 1_555
H4_5 C6_5 1_555 1_555
C7_5 H5_5 1_555 1_555
C8_5 O4_5 1_555 1_555
C9_5 C5_5 1_555 1_555
H6_5 C9_5 1_555 1_555
C10_5 C7_5 1_555 1_555
C12_5 C8_5 1_555 1_555
H8_5 C12_5 1_555 1_555
C15_5 C5_5 1_555 1_555
O51_2 C15_5 1_555 1_555
O9_5 C10_5 1_555 1_555
C18_5 O9_5 1_555 1_555
H11_5 C18_5 1_555 1_555
H12_5 C18_5 1_555 1_555
H13_5 C18_5 1_555 1_555
Zn21_3 O45_5 1_555 1_555
Zn21_4 O31_5 1_555 1_555
O26_5 C42_5 1_555 1_555
O31_5 C87_5 1_555 1_555
C37_5 C47_5 1_555 1_555
C42_5 C1_5 1_555 1_555
H27_5 C42_5 1_555 1_555
H32_5 C42_5 1_555 1_555
C47_5 H37_5 1_555 1_555
C52_5 O26_5 1_555 1_555
C57_5 C37_5 1_555 1_555
H42_5 C57_5 1_555 1_555
C62_5 C47_5 1_555 1_555
C72_5 C52_5 1_555 1_555
H52_5 C72_5 1_555 1_555
C87_5 C37_5 1_555 1_555
O45_5 C87_5 1_555 1_555
O62_5 C62_5 1_555 1_555
C102_5 O62_5 1_555 1_555
H67_5 C102_5 1_555 1_555
H72_5 C102_5 1_555 1_555
H77_5 C102_5 1_555 1_555
C8_5 C10_5 1_555 1_555
C9_5 C12_5 1_555 1_555
C52_5 C62_5 1_555 1_555
C57_5 C72_5 1_555 1_555
C1_6 C3_6 1_555 1_555
O2_6 C2_6 1_555 1_555
C2_6 C11_6 1_555 1_555
C3_6 O2_6 1_555 1_555
H1_6 C3_6 1_555 1_555
H2_6 C3_6 1_555 1_555
O4_6 C6_6 1_555 1_555
C4_6 C13_6 1_555 1_555
O38_2 C15_6 1_555 1_555
C5_6 C7_6 1_555 1_555
C6_6 C1_6 1_555 1_555
H3_6 C6_6 1_555 1_555
H4_6 C6_6 1_555 1_555
C7_6 H5_6 1_555 1_555
C8_6 O4_6 1_555 1_555
C9_6 C5_6 1_555 1_555
H6_6 C9_6 1_555 1_555
C10_6 C7_6 1_555 1_555
C11_6 H7_6 1_555 1_555
C12_6 C8_6 1_555 1_555
H8_6 C12_6 1_555 1_555
O6_6 C14_6 1_555 1_555
C13_6 C11_6 1_555 1_555
H9_6 C13_6 1_555 1_555
C14_6 C2_6 1_555 1_555
C15_6 C5_6 1_555 1_555
C16_6 C4_6 1_555 1_555
H10_6 C16_6 1_555 1_555
O50_2 C15_6 1_555 1_555
O9_6 C10_6 1_555 1_555
C17_6 O23_2 1_555 1_555
C18_6 O9_6 1_555 1_555
H11_6 C18_6 1_555 1_555
H12_6 C18_6 1_555 1_555
H13_6 C18_6 1_555 1_555
C19_6 O6_6 1_555 1_555
H14_6 C19_6 1_555 1_555
H15_6 C19_6 1_555 1_555
H16_6 C19_6 1_555 1_555
Zn4_2 O53_6 1_555 1_555
Zn16_6 O18_6 1_555 1_555
Zn21_4 O45_6 1_555 1_555
Zn20_2 O31_6 1_555 1_555
O13_6 C22_6 1_555 1_555
C22_6 C67_6 1_555 1_555
O18_6 C97_6 1_555 1_555
C27_6 C1_6 1_555 1_555
H17_6 C27_6 1_555 1_555
H22_6 C27_6 1_555 1_555
O26_6 C42_6 1_555 1_555
C32_6 C77_6 1_555 1_555
O31_6 C87_6 1_555 1_555
C37_6 C47_6 1_555 1_555
C42_6 C1_6 1_555 1_555
H27_6 C42_6 1_555 1_555
H32_6 C42_6 1_555 1_555
C47_6 H37_6 1_555 1_555
C52_6 O26_6 1_555 1_555
C57_6 C37_6 1_555 1_555
H42_6 C57_6 1_555 1_555
C62_6 C47_6 1_555 1_555
C67_6 H47_6 1_555 1_555
C72_6 C52_6 1_555 1_555
H52_6 C72_6 1_555 1_555
O40_6 C82_6 1_555 1_555
C77_6 C67_6 1_555 1_555
H57_6 C77_6 1_555 1_555
C82_6 C22_6 1_555 1_555
C87_6 C37_6 1_555 1_555
C92_6 C32_6 1_555 1_555
H62_6 C92_6 1_555 1_555
O45_6 C87_6 1_555 1_555
O53_6 C97_6 1_555 1_555
O62_6 C62_6 1_555 1_555
C97_6 C32_6 1_555 1_555
C102_6 O62_6 1_555 1_555
H67_6 C102_6 1_555 1_555
H72_6 C102_6 1_555 1_555
H77_6 C102_6 1_555 1_555
C107_6 O40_6 1_555 1_555
H82_6 C107_6 1_555 1_555
H87_6 C107_6 1_555 1_555
H92_6 C107_6 1_555 1_555
C4_6 C17_6 1_555 1_555
C8_6 C10_6 1_555 1_555
C9_6 C12_6 1_555 1_555
C14_6 C16_6 1_555 1_555
O60_2 C17_6 1_555 1_555
O13_6 C27_6 1_555 1_555
C52_6 C62_6 1_555 1_555
C57_6 C72_6 1_555 1_555
C82_6 C92_6 1_555 1_555
O12_2 Zn20_2 1_555 1_555
O25_2 Zn20_2 1_555 1_555
Zn21_3 O12_2 1_555 1_555
Zn4_2 O1_9 1_555 1_555
Zn16_4 O1_9 1_555 1_555
O1_9 Zn16_6 1_555 1_555
Zn5_2 O12_2 1_555 1_555
Zn7_5 O55_2 1_555 1_555
Zn16_5 O1_9 1_555 1_555
Zn21_4 O12_2 1_555 1_555
Zn13_2 O35_3 1_555 1_555
Zn14_2 O33_2 1_555 1_555
Zn15_2 O47_2 1_555 1_555
Zn23_2 O20_2 1_555 1_555
C20_3 C28_2 1_555 1_555
O14_2 C23_2 1_555 1_555
O15_2 C24_2 1_555 1_555
C23_2 C68_2 1_555 1_555
C24_2 C69_2 1_555 1_555
O19_2 Zn21_4 1_555 1_555
O20_2 C99_2 1_555 1_555
C28_2 O14_2 1_555 1_555
C29_2 C20_3 1_555 1_555
C31_3 C21_4 1_555 1_555
H18_2 C28_2 1_555 1_555
H19_2 C29_2 1_555 1_555
H23_2 C28_2 1_555 1_555
H24_2 C29_2 1_555 1_555
H26_3 C31_3 1_555 1_555
O27_2 C43_2 1_555 1_555
O28_2 C44_2 1_555 1_555
O29_3 C45_3 1_555 1_555
O30_3 C46_3 1_555 1_555
C33_2 C78_2 1_555 1_555
C34_2 C79_2 1_555 1_555
O32_2 Zn16_4 1_555 1_555
O33_2 C89_2 1_555 1_555
O34_2 Zn16_6 1_555 1_555
O35_3 C91_3 1_555 1_555
O39_2 Zn16_5 1_555 1_555
C38_2 C48_2 1_555 1_555
C39_2 C49_2 1_555 1_555
C40_3 C50_3 1_555 1_555
C41_3 C51_3 1_555 1_555
C43_2 C20_3 1_555 1_555
C44_2 C20_3 1_555 1_555
C45_3 C21_4 1_555 1_555
C46_3 C21_4 1_555 1_555
H28_2 C43_2 1_555 1_555
H29_2 C44_2 1_555 1_555
H30_3 C45_3 1_555 1_555
H31_3 C46_3 1_555 1_555
H33_2 C43_2 1_555 1_555
H34_2 C44_2 1_555 1_555
H35_3 C45_3 1_555 1_555
H36_3 C46_3 1_555 1_555
C48_2 H38_2 1_555 1_555
C49_2 H39_2 1_555 1_555
C50_3 H40_3 1_555 1_555
C51_3 H41_3 1_555 1_555
C53_2 O27_2 1_555 1_555
C54_2 O28_2 1_555 1_555
C55_3 O29_3 1_555 1_555
C56_3 O30_3 1_555 1_555
C58_2 C38_2 1_555 1_555
C59_2 C39_2 1_555 1_555
C60_3 C40_3 1_555 1_555
C61_3 C41_3 1_555 1_555
H43_2 C58_2 1_555 1_555
H44_2 C59_2 1_555 1_555
H45_3 C60_3 1_555 1_555
H46_3 C61_3 1_555 1_555
C63_2 C48_2 1_555 1_555
C64_2 C49_2 1_555 1_555
C65_3 C50_3 1_555 1_555
C66_3 C51_3 1_555 1_555
C68_2 H48_2 1_555 1_555
C69_2 H49_2 1_555 1_555
C73_2 C53_2 1_555 1_555
C74_2 C54_2 1_555 1_555
C75_3 C55_3 1_555 1_555
C76_3 C56_3 1_555 1_555
H53_2 C73_2 1_555 1_555
H54_2 C74_2 1_555 1_555
H55_3 C75_3 1_555 1_555
H56_3 C76_3 1_555 1_555
O41_2 C83_2 1_555 1_555
O42_2 C84_2 1_555 1_555
C78_2 C68_2 1_555 1_555
C79_2 C69_2 1_555 1_555
H58_2 C78_2 1_555 1_555
H59_2 C79_2 1_555 1_555
C83_2 C23_2 1_555 1_555
C84_2 C24_2 1_555 1_555
C88_2 O32_2 1_555 1_555
C89_2 C39_2 1_555 1_555
C90_3 O34_2 1_555 1_555
C91_3 C41_3 1_555 1_555
C93_2 C33_2 1_555 1_555
C94_2 C34_2 1_555 1_555
H63_2 C93_2 1_555 1_555
H64_2 C94_2 1_555 1_555
O46_2 Zn16_6 1_555 1_555
O47_2 C89_2 1_555 1_555
O48_2 Zn16_5 1_555 1_555
O49_3 Zn14_2 1_555 1_555
O52_2 Zn16_4 1_555 1_555
O54_2 Zn5_2 1_555 1_555
O55_2 C99_2 1_555 1_555
O63_2 C63_2 1_555 1_555
O64_2 C64_2 1_555 1_555
O65_3 C65_3 1_555 1_555
O66_3 C66_3 1_555 1_555
C98_2 O19_2 1_555 1_555
C99_2 C34_2 1_555 1_555
C103_2 O63_2 1_555 1_555
C104_2 O64_2 1_555 1_555
C105_3 O65_3 1_555 1_555
C106_3 O66_3 1_555 1_555
H68_2 C103_2 1_555 1_555
H69_2 C104_2 1_555 1_555
H70_3 C105_3 1_555 1_555
H71_3 C106_3 1_555 1_555
H73_2 C103_2 1_555 1_555
H74_2 C104_2 1_555 1_555
H75_3 C105_3 1_555 1_555
H76_3 C106_3 1_555 1_555
H78_2 C103_2 1_555 1_555
H79_2 C104_2 1_555 1_555
H80_3 C105_3 1_555 1_555
H81_3 C106_3 1_555 1_555
C108_2 O41_2 1_555 1_555
C109_2 O42_2 1_555 1_555
H83_2 C108_2 1_555 1_555
H84_2 C109_2 1_555 1_555
H88_2 C108_2 1_555 1_555
H89_2 C109_2 1_555 1_555
H93_2 C108_2 1_555 1_555
H94_2 C109_2 1_555 1_555
O15_2 C29_2 1_555 1_555
C33_2 C98_2 1_555 1_555
C38_2 C88_2 1_555 1_555
C40_3 C90_3 1_555 1_555
C53_2 C63_2 1_555 1_555
C54_2 C64_2 1_555 1_555
C55_3 C65_3 1_555 1_555
C56_3 C66_3 1_555 1_555
C58_2 C73_2 1_555 1_555
C59_2 C74_2 1_555 1_555
C60_3 C75_3 1_555 1_555
C61_3 C76_3 1_555 1_555
C83_2 C93_2 1_555 1_555
C84_2 C94_2 1_555 1_555
C88_2 O46_2 1_555 1_555
C90_3 O48_2 1_555 1_555
C91_3 O49_3 1_555 1_555
O54_2 C98_2 1_555 1_555
Zn7_3 O57_3 1_555 1_555
Zn22_3 O22_3 1_555 1_555
O16_3 C25_3 1_555 1_555
O17_3 C26_3 1_555 1_555
C25_3 C70_3 1_555 1_555
C26_3 C71_3 1_555 1_555
O21_2 Zn21_3 1_555 1_555
O22_3 C101_3 1_555 1_555
C30_3 O16_3 1_555 1_555
H20_3 C30_3 1_555 1_555
H25_3 C30_3 1_555 1_555
C35_3 C80_3 1_555 1_555
C36_3 C81_3 1_555 1_555
C70_3 H50_3 1_555 1_555
O43_3 C85_3 1_555 1_555
O44_3 C86_3 1_555 1_555
C80_3 C70_3 1_555 1_555
C81_3 C71_3 1_555 1_555
H60_3 C80_3 1_555 1_555
C85_3 C25_3 1_555 1_555
C86_3 C26_3 1_555 1_555
C95_3 C35_3 1_555 1_555
C96_3 C36_3 1_555 1_555
H65_3 C95_3 1_555 1_555
H66_3 C96_3 1_555 1_555
O56_2 Zn5_2 1_555 1_555
O57_3 C101_3 1_555 1_555
O58_2 Zn5_2 1_555 1_555
C100_3 O21_2 1_555 1_555
C101_3 C36_3 1_555 1_555
C110_3 O43_3 1_555 1_555
C111_3 O44_3 1_555 1_555
H85_3 C110_3 1_555 1_555
H86_3 C111_3 1_555 1_555
H90_3 C110_3 1_555 1_555
H91_3 C111_3 1_555 1_555
H95_3 C110_3 1_555 1_555
H96_3 C111_3 1_555 1_555
C35_3 C100_3 1_555 1_555
C85_3 C95_3 1_555 1_555
C86_3 C96_3 1_555 1_555
O56_2 C100_3 1_555 1_555
Zn7_2 O57_4 1_555 1_555
Zn22_4 O22_4 1_555 1_555
O16_4 C25_4 1_555 1_555
O17_4 C26_4 1_555 1_555
C25_4 C70_4 1_555 1_555
C26_4 C71_4 1_555 1_555
O22_4 C101_4 1_555 1_555
C30_4 O16_4 1_555 1_555
H20_4 C30_4 1_555 1_555
H25_4 C30_4 1_555 1_555
C35_4 C80_4 1_555 1_555
C36_4 C81_4 1_555 1_555
C70_4 H50_4 1_555 1_555
O43_4 C85_4 1_555 1_555
O44_4 C86_4 1_555 1_555
C80_4 C70_4 1_555 1_555
C81_4 C71_4 1_555 1_555
H60_4 C80_4 1_555 1_555
C85_4 C25_4 1_555 1_555
C86_4 C26_4 1_555 1_555
C95_4 C35_4 1_555 1_555
C96_4 C36_4 1_555 1_555
H65_4 C95_4 1_555 1_555
H66_4 C96_4 1_555 1_555
O57_4 C101_4 1_555 1_555
C100_4 O25_2 1_555 1_555
C101_4 C36_4 1_555 1_555
C110_4 O43_4 1_555 1_555
C111_4 O44_4 1_555 1_555
H85_4 C110_4 1_555 1_555
H86_4 C111_4 1_555 1_555
H90_4 C110_4 1_555 1_555
H91_4 C111_4 1_555 1_555
H95_4 C110_4 1_555 1_555
H96_4 C111_4 1_555 1_555
C35_4 C100_4 1_555 1_555
C85_4 C95_4 1_555 1_555
C86_4 C96_4 1_555 1_555
O58_2 C100_4 1_555 1_555
Zn15_2 O35_4 1_555 1_555
C31_4 C21_5 1_555 1_555
H26_4 C31_4 1_555 1_555
O29_4 C45_4 1_555 1_555
O30_4 C46_4 1_555 1_555
O35_4 C91_4 1_555 1_555
C40_4 C50_4 1_555 1_555
C41_4 C51_4 1_555 1_555
C45_4 C21_5 1_555 1_555
C46_4 C21_5 1_555 1_555
H30_4 C45_4 1_555 1_555
H31_4 C46_4 1_555 1_555
H35_4 C45_4 1_555 1_555
H36_4 C46_4 1_555 1_555
C50_4 H40_4 1_555 1_555
C51_4 H41_4 1_555 1_555
C55_4 O29_4 1_555 1_555
C56_4 O30_4 1_555 1_555
C60_4 C40_4 1_555 1_555
C61_4 C41_4 1_555 1_555
H45_4 C60_4 1_555 1_555
H46_4 C61_4 1_555 1_555
C65_4 C50_4 1_555 1_555
C66_4 C51_4 1_555 1_555
C75_4 C55_4 1_555 1_555
C76_4 C56_4 1_555 1_555
H55_4 C75_4 1_555 1_555
H56_4 C76_4 1_555 1_555
C90_4 O39_2 1_555 1_555
C91_4 C41_4 1_555 1_555
O49_4 Zn13_2 1_555 1_555
O65_4 C65_4 1_555 1_555
O66_4 C66_4 1_555 1_555
C105_4 O65_4 1_555 1_555
C106_4 O66_4 1_555 1_555
H70_4 C105_4 1_555 1_555
H71_4 C106_4 1_555 1_555
H75_4 C105_4 1_555 1_555
H76_4 C106_4 1_555 1_555
H80_4 C105_4 1_555 1_555
H81_4 C106_4 1_555 1_555
C40_4 C90_4 1_555 1_555
C55_4 C65_4 1_555 1_555
C56_4 C66_4 1_555 1_555
C60_4 C75_4 1_555 1_555
C61_4 C76_4 1_555 1_555
C90_4 O52_2 1_555 1_555
C91_4 O49_4 1_555 1_555
Zn7_2 O10_2 1_555 1_555
Zn22_4 O10_2 1_555 1_555
Zn7_3 O10_3 1_555 1_555
Zn22_3 O10_3 1_555 1_555
O37_3 Zn22_4 1_555 1_555
Zn7_4 O10_4 1_555 1_555
Zn1_9 O1_10 1_555 1_555
Zn13_2 O1_10 1_555 1_555
O1_10 Zn14_2 1_555 1_555
C1_7 C3_7 1_555 1_555
O2_7 C2_7 1_555 1_555
C2_7 C11_7 1_555 1_555
O3_3 Zn13_2 1_555 1_555
C3_7 O2_7 1_555 1_555
H1_7 C3_7 1_555 1_555
H2_7 C3_7 1_555 1_555
C4_7 C13_7 1_555 1_555
C5_7 C7_7 1_555 1_555
C7_7 H5_7 1_555 1_555
C8_7 O4_7 1_555 1_555
C10_7 C7_7 1_555 1_555
C11_7 H7_7 1_555 1_555
O6_7 C14_7 1_555 1_555
C13_7 C11_7 1_555 1_555
H9_7 C13_7 1_555 1_555
C14_7 C2_7 1_555 1_555
C15_7 C5_7 1_555 1_555
C16_7 C4_7 1_555 1_555
H10_7 C16_7 1_555 1_555
O7_3 C15_7 1_555 1_555
O8_3 Zn1_9 1_555 1_555
O9_7 C10_7 1_555 1_555
C17_7 O3_3 1_555 1_555
C18_7 O9_7 1_555 1_555
H11_7 C18_7 1_555 1_555
H12_7 C18_7 1_555 1_555
H13_7 C18_7 1_555 1_555
C19_7 O6_7 1_555 1_555
H15_7 C19_7 1_555 1_555
H16_7 C19_7 1_555 1_555
Zn7_5 O10_5 1_555 1_555
Zn14_2 O24_3 1_555 1_555
Zn15_2 O1_10 1_555 1_555
Zn23_2 O10_5 1_555 1_555
Zn21_5 O31_7 1_555 1_555
O23_3 Zn15_2 1_555 1_555
O36_2 Zn23_2 1_555 1_555
C42_7 C1_7 1_555 1_555
H27_7 C42_7 1_555 1_555
H32_7 C42_7 1_555 1_555
H42_7 C57_7 1_555 1_555
H52_7 C72_7 1_555 1_555
O50_3 Zn23_2 1_555 1_555
O60_3 Zn1_9 1_555 1_555
O61_3 Zn1_9 1_555 1_555
C4_7 C17_7 1_555 1_555
C8_7 C10_7 1_555 1_555
C14_7 C16_7 1_555 1_555
O8_3 C17_7 1_555 1_555
C57_7 C72_7 1_555 1_555
C6_7 C1_8 1_555 1_555
H3_7 C6_7 1_555 1_555
H4_7 C6_7 1_555 1_555
H6_7 C9_7 1_555 1_555
H8_7 C12_7 1_555 1_555
Zn4_3 O53_7 1_555 1_555
Zn16_7 O18_7 1_555 1_555
Zn20_3 O45_7 1_555 1_555
O13_7 C22_7 1_555 1_555
C22_7 C67_7 1_555 1_555
O18_7 C97_7 1_555 1_555
C27_7 C1_8 1_555 1_555
H17_7 C27_7 1_555 1_555
H22_7 C27_7 1_555 1_555
C32_7 C77_7 1_555 1_555
O38_3 Zn22_3 1_555 1_555
C37_7 C47_7 1_555 1_555
C47_7 H37_7 1_555 1_555
C52_7 O26_7 1_555 1_555
C62_7 C47_7 1_555 1_555
C67_7 H47_7 1_555 1_555
O40_7 C82_7 1_555 1_555
C77_7 C67_7 1_555 1_555
H57_7 C77_7 1_555 1_555
C82_7 C22_7 1_555 1_555
C87_7 C37_7 1_555 1_555
C92_7 C32_7 1_555 1_555
H62_7 C92_7 1_555 1_555
O45_7 C87_7 1_555 1_555
O53_7 C97_7 1_555 1_555
O62_7 C62_7 1_555 1_555
C97_7 C32_7 1_555 1_555
C102_7 O62_7 1_555 1_555
H67_7 C102_7 1_555 1_555
H72_7 C102_7 1_555 1_555
H77_7 C102_7 1_555 1_555
C107_7 O40_7 1_555 1_555
H87_7 C107_7 1_555 1_555
H92_7 C107_7 1_555 1_555
C9_7 C12_7 1_555 1_555
O13_7 C27_7 1_555 1_555
C52_7 C62_7 1_555 1_555
C82_7 C92_7 1_555 1_555
C1_9 C3_8 1_555 1_555
O2_8 C2_8 1_555 1_555
C2_8 C11_8 1_555 1_555
C3_8 O2_8 1_555 1_555
H1_8 C3_8 1_555 1_555
H2_8 C3_8 1_555 1_555
O4_8 C6_8 1_555 1_555
C4_8 C13_8 1_555 1_555
O37_3 C15_8 1_555 1_555
C5_8 C7_8 1_555 1_555
C6_8 C1_9 1_555 1_555
H3_8 C6_8 1_555 1_555
H4_8 C6_8 1_555 1_555
C7_8 H5_8 1_555 1_555
C8_8 O4_8 1_555 1_555
C9_8 C5_8 1_555 1_555
H6_8 C9_8 1_555 1_555
C10_8 C7_8 1_555 1_555
C11_8 H7_8 1_555 1_555
C12_8 C8_8 1_555 1_555
H8_8 C12_8 1_555 1_555
O6_8 C14_8 1_555 1_555
C13_8 C11_8 1_555 1_555
H9_8 C13_8 1_555 1_555
C14_8 C2_8 1_555 1_555
C15_8 C5_8 1_555 1_555
C16_8 C4_8 1_555 1_555
H10_8 C16_8 1_555 1_555
O51_3 C15_8 1_555 1_555
O9_8 C10_8 1_555 1_555
C17_8 O24_3 1_555 1_555
C18_8 O9_8 1_555 1_555
H11_8 C18_8 1_555 1_555
H12_8 C18_8 1_555 1_555
H13_8 C18_8 1_555 1_555
C19_8 O6_8 1_555 1_555
H14_8 C19_8 1_555 1_555
H15_8 C19_8 1_555 1_555
H16_8 C19_8 1_555 1_555
Zn4_3 O53_8 1_555 1_555
Zn16_8 O18_8 1_555 1_555
Zn21_6 O31_8 1_555 1_555
O13_8 C22_8 1_555 1_555
C22_8 C67_8 1_555 1_555
O18_8 C97_8 1_555 1_555
C27_8 C1_9 1_555 1_555
H17_8 C27_8 1_555 1_555
H22_8 C27_8 1_555 1_555
O26_8 C42_8 1_555 1_555
C32_8 C77_8 1_555 1_555
O31_8 C87_8 1_555 1_555
C37_8 C47_8 1_555 1_555
C42_8 C1_9 1_555 1_555
H27_8 C42_8 1_555 1_555
H32_8 C42_8 1_555 1_555
C47_8 H37_8 1_555 1_555
C52_8 O26_8 1_555 1_555
C57_8 C37_8 1_555 1_555
H42_8 C57_8 1_555 1_555
C62_8 C47_8 1_555 1_555
C67_8 H47_8 1_555 1_555
C72_8 C52_8 1_555 1_555
H52_8 C72_8 1_555 1_555
O40_8 C82_8 1_555 1_555
C77_8 C67_8 1_555 1_555
H57_8 C77_8 1_555 1_555
C82_8 C22_8 1_555 1_555
C87_8 C37_8 1_555 1_555
C92_8 C32_8 1_555 1_555
H62_8 C92_8 1_555 1_555
O45_8 C87_8 1_555 1_555
O53_8 C97_8 1_555 1_555
O62_8 C62_8 1_555 1_555
C97_8 C32_8 1_555 1_555
C102_8 O62_8 1_555 1_555
H67_8 C102_8 1_555 1_555
H72_8 C102_8 1_555 1_555
H77_8 C102_8 1_555 1_555
C107_8 O40_8 1_555 1_555
H82_8 C107_8 1_555 1_555
H87_8 C107_8 1_555 1_555
H92_8 C107_8 1_555 1_555
C4_8 C17_8 1_555 1_555
C8_8 C10_8 1_555 1_555
C9_8 C12_8 1_555 1_555
C14_8 C16_8 1_555 1_555
O61_3 C17_8 1_555 1_555
O13_8 C27_8 1_555 1_555
C52_8 C62_8 1_555 1_555
C57_8 C72_8 1_555 1_555
C82_8 C92_8 1_555 1_555
C6_9 C1_10 1_555 1_555
H3_9 C6_9 1_555 1_555
H4_9 C6_9 1_555 1_555
H6_9 C9_9 1_555 1_555
H8_9 C12_9 1_555 1_555
Zn4_3 O53_9 1_555 1_555
Zn16_9 O18_9 1_555 1_555
O13_9 C22_9 1_555 1_555
C22_9 C67_9 1_555 1_555
O18_9 C97_9 1_555 1_555
C27_9 C1_10 1_555 1_555
H17_9 C27_9 1_555 1_555
H22_9 C27_9 1_555 1_555
C32_9 C77_9 1_555 1_555
C37_9 C47_9 1_555 1_555
C47_9 H37_9 1_555 1_555
C52_9 O26_9 1_555 1_555
C62_9 C47_9 1_555 1_555
C67_9 H47_9 1_555 1_555
O40_9 C82_9 1_555 1_555
C77_9 C67_9 1_555 1_555
H57_9 C77_9 1_555 1_555
C82_9 C22_9 1_555 1_555
C87_9 C37_9 1_555 1_555
C92_9 C32_9 1_555 1_555
H62_9 C92_9 1_555 1_555
O45_9 C87_9 1_555 1_555
O53_9 C97_9 1_555 1_555
O62_9 C62_9 1_555 1_555
C97_9 C32_9 1_555 1_555
C102_9 O62_9 1_555 1_555
H67_9 C102_9 1_555 1_555
H72_9 C102_9 1_555 1_555
H77_9 C102_9 1_555 1_555
C107_9 O40_9 1_555 1_555
H87_9 C107_9 1_555 1_555
H92_9 C107_9 1_555 1_555
C9_9 C12_9 1_555 1_555
O13_9 C27_9 1_555 1_555
C52_9 C62_9 1_555 1_555
C82_9 C92_9 1_555 1_555
C1_11 C3_9 1_555 1_555
O2_9 C2_9 1_555 1_555
C2_9 C11_9 1_555 1_555
C3_9 O2_9 1_555 1_555
H1_9 C3_9 1_555 1_555
H2_9 C3_9 1_555 1_555
C4_9 C13_9 1_555 1_555
C5_9 C7_9 1_555 1_555
C7_9 H5_9 1_555 1_555
C8_9 O4_9 1_555 1_555
C10_9 C7_9 1_555 1_555
C11_9 H7_9 1_555 1_555
O6_9 C14_9 1_555 1_555
C13_9 C11_9 1_555 1_555
H9_9 C13_9 1_555 1_555
C14_9 C2_9 1_555 1_555
C15_9 C5_9 1_555 1_555
C16_9 C4_9 1_555 1_555
H10_9 C16_9 1_555 1_555
O50_3 C15_9 1_555 1_555
O9_9 C10_9 1_555 1_555
C17_9 O23_3 1_555 1_555
C18_9 O9_9 1_555 1_555
H11_9 C18_9 1_555 1_555
H12_9 C18_9 1_555 1_555
H13_9 C18_9 1_555 1_555
C19_9 O6_9 1_555 1_555
H15_9 C19_9 1_555 1_555
H16_9 C19_9 1_555 1_555
Zn20_3 O31_9 1_555 1_555
C42_9 C1_11 1_555 1_555
H27_9 C42_9 1_555 1_555
H32_9 C42_9 1_555 1_555
H42_9 C57_9 1_555 1_555
H52_9 C72_9 1_555 1_555
C4_9 C17_9 1_555 1_555
C8_9 C10_9 1_555 1_555
C14_9 C16_9 1_555 1_555
O60_3 C17_9 1_555 1_555
C57_9 C72_9 1_555 1_555
Zn5_3 O12_3 1_555 1_555
Zn7_6 O55_3 1_555 1_555
Zn21_6 O12_3 1_555 1_555
O14_3 C23_3 1_555 1_555
O15_3 C24_3 1_555 1_555
C23_3 C68_3 1_555 1_555
C24_3 C69_3 1_555 1_555
O19_3 Zn21_6 1_555 1_555
O20_3 C99_3 1_555 1_555
H19_3 C29_3 1_555 1_555
H24_3 C29_3 1_555 1_555
C33_3 C78_3 1_555 1_555
C34_3 C79_3 1_555 1_555
C69_3 H49_3 1_555 1_555
O41_3 C83_3 1_555 1_555
O42_3 C84_3 1_555 1_555
C78_3 C68_3 1_555 1_555
C79_3 C69_3 1_555 1_555
H59_3 C79_3 1_555 1_555
C83_3 C23_3 1_555 1_555
C84_3 C24_3 1_555 1_555
C93_3 C33_3 1_555 1_555
C94_3 C34_3 1_555 1_555
H63_3 C93_3 1_555 1_555
H64_3 C94_3 1_555 1_555
O54_3 Zn5_3 1_555 1_555
O55_3 C99_3 1_555 1_555
C98_3 O19_3 1_555 1_555
C99_3 C34_3 1_555 1_555
C108_3 O41_3 1_555 1_555
C109_3 O42_3 1_555 1_555
H83_3 C108_3 1_555 1_555
H84_3 C109_3 1_555 1_555
H88_3 C108_3 1_555 1_555
H89_3 C109_3 1_555 1_555
H93_3 C108_3 1_555 1_555
H94_3 C109_3 1_555 1_555
Zn21_5 O12_5 1_555 1_555
O15_3 C29_3 1_555 1_555
C33_3 C98_3 1_555 1_555
C83_3 C93_3 1_555 1_555
C84_3 C94_3 1_555 1_555
O54_3 C98_3 1_555 1_555
Zn4_3 O1_11 1_555 1_555
Zn16_7 O1_11 1_555 1_555
O1_11 Zn16_9 1_555 1_555
Zn5_4 O12_4 1_555 1_555
Zn16_8 O1_11 1_555 1_555
Zn16 O35_5 1_555 1_555
Zn16_3 O33_3 1_555 1_555
Zn16_2 O47_3 1_555 1_555
O12_6 Zn20_3 1_555 1_555
C20_4 C28_3 1_555 1_555
C21_6 C30_5 1_555 1_555
O25_3 Zn20_3 1_555 1_555
H23_3 C28_3 1_555 1_555
H25_5 C30_5 1_555 1_555
O27_3 C43_3 1_555 1_555
O28_3 C44_3 1_555 1_555
O29_5 C45_5 1_555 1_555
O30_5 C46_5 1_555 1_555
O32_3 Zn16_7 1_555 1_555
O33_3 C89_3 1_555 1_555
O34_3 Zn16_9 1_555 1_555
O35_5 C91_5 1_555 1_555
O39_3 Zn16_8 1_555 1_555
C38_3 C48_3 1_555 1_555
C39_3 C49_3 1_555 1_555
C40_5 C50_5 1_555 1_555
C41_5 C51_5 1_555 1_555
C43_3 C20_4 1_555 1_555
C44_3 C20_4 1_555 1_555
C45_5 C21_6 1_555 1_555
C46_5 C21_6 1_555 1_555
H28_3 C43_3 1_555 1_555
H29_3 C44_3 1_555 1_555
H30_5 C45_5 1_555 1_555
H31_5 C46_5 1_555 1_555
H33_3 C43_3 1_555 1_555
H34_3 C44_3 1_555 1_555
H35_5 C45_5 1_555 1_555
H36_5 C46_5 1_555 1_555
C48_3 H38_3 1_555 1_555
C49_3 H39_3 1_555 1_555
C50_5 H40_5 1_555 1_555
C51_5 H41_5 1_555 1_555
C53_3 O27_3 1_555 1_555
C54_3 O28_3 1_555 1_555
C55_5 O29_5 1_555 1_555
C56_5 O30_5 1_555 1_555
C58_3 C38_3 1_555 1_555
C59_3 C39_3 1_555 1_555
C60_5 C40_5 1_555 1_555
C61_5 C41_5 1_555 1_555
H43_3 C58_3 1_555 1_555
H44_3 C59_3 1_555 1_555
H45_5 C60_5 1_555 1_555
H46_5 C61_5 1_555 1_555
C63_3 C48_3 1_555 1_555
C64_3 C49_3 1_555 1_555
C65_5 C50_5 1_555 1_555
C66_5 C51_5 1_555 1_555
C73_3 C53_3 1_555 1_555
C74_3 C54_3 1_555 1_555
C75_5 C55_5 1_555 1_555
C76_5 C56_5 1_555 1_555
H53_3 C73_3 1_555 1_555
H54_3 C74_3 1_555 1_555
H55_5 C75_5 1_555 1_555
H56_5 C76_5 1_555 1_555
C88_3 O32_3 1_555 1_555
C89_3 C39_3 1_555 1_555
C90_5 O34_3 1_555 1_555
C91_5 C41_5 1_555 1_555
O46_3 Zn16_9 1_555 1_555
O47_3 C89_3 1_555 1_555
O48_3 Zn16_8 1_555 1_555
O49_5 Zn16_3 1_555 1_555
O52_3 Zn16_7 1_555 1_555
O63_3 C63_3 1_555 1_555
O64_3 C64_3 1_555 1_555
O65_5 C65_5 1_555 1_555
O66_5 C66_5 1_555 1_555
C103_3 O63_3 1_555 1_555
C104_3 O64_3 1_555 1_555
C105_5 O65_5 1_555 1_555
C106_5 O66_5 1_555 1_555
H68_3 C103_3 1_555 1_555
H69_3 C104_3 1_555 1_555
H70_5 C105_5 1_555 1_555
H71_5 C106_5 1_555 1_555
H73_3 C103_3 1_555 1_555
H74_3 C104_3 1_555 1_555
H75_5 C105_5 1_555 1_555
H76_5 C106_5 1_555 1_555
H78_3 C103_3 1_555 1_555
H79_3 C104_3 1_555 1_555
H80_5 C105_5 1_555 1_555
H81_5 C106_5 1_555 1_555
C38_3 C88_3 1_555 1_555
C40_5 C90_5 1_555 1_555
C53_3 C63_3 1_555 1_555
C54_3 C64_3 1_555 1_555
C55_5 C65_5 1_555 1_555
C56_5 C66_5 1_555 1_555
C58_3 C73_3 1_555 1_555
C59_3 C74_3 1_555 1_555
C60_5 C75_5 1_555 1_555
C61_5 C76_5 1_555 1_555
C88_3 O46_3 1_555 1_555
C90_5 O48_3 1_555 1_555
C91_5 O49_5 1_555 1_555
Zn5_5 O12_5 1_555 1_555
Zn5_6 O12_6 1_555 1_555
Zn7_6 O57_5 1_555 1_555
O16_5 C25_5 1_555 1_555
O17_5 C26_5 1_555 1_555
C25_5 C70_5 1_555 1_555
C26_5 C71_5 1_555 1_555
O21_3 Zn21_5 1_555 1_555
O22_5 C101_5 1_555 1_555
H21_5 C31_5 1_555 1_555
H26_5 C31_5 1_555 1_555
C35_5 C80_5 1_555 1_555
C36_5 C81_5 1_555 1_555
C71_5 H51_5 1_555 1_555
O43_5 C85_5 1_555 1_555
O44_5 C86_5 1_555 1_555
C80_5 C70_5 1_555 1_555
C81_5 C71_5 1_555 1_555
H61_5 C81_5 1_555 1_555
C85_5 C25_5 1_555 1_555
C86_5 C26_5 1_555 1_555
C95_5 C35_5 1_555 1_555
C96_5 C36_5 1_555 1_555
H65_5 C95_5 1_555 1_555
H66_5 C96_5 1_555 1_555
O56_3 Zn5_5 1_555 1_555
O57_5 C101_5 1_555 1_555
C100_5 O21_3 1_555 1_555
C101_5 C36_5 1_555 1_555
C110_5 O43_5 1_555 1_555
C111_5 O44_5 1_555 1_555
H85_5 C110_5 1_555 1_555
H86_5 C111_5 1_555 1_555
H90_5 C110_5 1_555 1_555
H91_5 C111_5 1_555 1_555
H95_5 C110_5 1_555 1_555
H96_5 C111_5 1_555 1_555
O17_5 C31_5 1_555 1_555
C35_5 C100_5 1_555 1_555
C85_5 C95_5 1_555 1_555
C86_5 C96_5 1_555 1_555
O56_3 C100_5 1_555 1_555
O58_3 Zn5_6 1_555 1_555
Zn7_6 O57_6 1_555 1_555
Zn16_2 O35_6 1_555 1_555
C21_7 C30_6 1_555 1_555
O16_6 C25_6 1_555 1_555
O17_6 C26_6 1_555 1_555
C25_6 C70_6 1_555 1_555
C26_6 C71_6 1_555 1_555
O22_6 C101_6 1_555 1_555
C30_6 O16_6 1_555 1_555
C31_6 C21_7 1_555 1_555
H20_6 C30_6 1_555 1_555
H21_6 C31_6 1_555 1_555
H25_6 C30_6 1_555 1_555
H26_6 C31_6 1_555 1_555
O29_6 C45_6 1_555 1_555
O30_6 C46_6 1_555 1_555
C35_6 C80_6 1_555 1_555
C36_6 C81_6 1_555 1_555
O35_6 C91_6 1_555 1_555
C40_6 C50_6 1_555 1_555
C41_6 C51_6 1_555 1_555
C45_6 C21_7 1_555 1_555
C46_6 C21_7 1_555 1_555
H30_6 C45_6 1_555 1_555
H31_6 C46_6 1_555 1_555
H35_6 C45_6 1_555 1_555
H36_6 C46_6 1_555 1_555
C50_6 H40_6 1_555 1_555
C51_6 H41_6 1_555 1_555
C55_6 O29_6 1_555 1_555
C56_6 O30_6 1_555 1_555
C60_6 C40_6 1_555 1_555
C61_6 C41_6 1_555 1_555
H45_6 C60_6 1_555 1_555
H46_6 C61_6 1_555 1_555
C65_6 C50_6 1_555 1_555
C66_6 C51_6 1_555 1_555
C70_6 H50_6 1_555 1_555
C71_6 H51_6 1_555 1_555
C75_6 C55_6 1_555 1_555
C76_6 C56_6 1_555 1_555
H55_6 C75_6 1_555 1_555
H56_6 C76_6 1_555 1_555
O43_6 C85_6 1_555 1_555
O44_6 C86_6 1_555 1_555
C80_6 C70_6 1_555 1_555
C81_6 C71_6 1_555 1_555
H60_6 C80_6 1_555 1_555
H61_6 C81_6 1_555 1_555
C85_6 C25_6 1_555 1_555
C86_6 C26_6 1_555 1_555
C90_6 O39_3 1_555 1_555
C91_6 C41_6 1_555 1_555
C95_6 C35_6 1_555 1_555
C96_6 C36_6 1_555 1_555
H65_6 C95_6 1_555 1_555
H66_6 C96_6 1_555 1_555
O49_6 Zn16 1_555 1_555
O57_6 C101_6 1_555 1_555
O65_6 C65_6 1_555 1_555
O66_6 C66_6 1_555 1_555
C100_6 O25_3 1_555 1_555
C101_6 C36_6 1_555 1_555
C105_6 O65_6 1_555 1_555
C106_6 O66_6 1_555 1_555
H70_6 C105_6 1_555 1_555
H71_6 C106_6 1_555 1_555
H75_6 C105_6 1_555 1_555
H76_6 C106_6 1_555 1_555
H80_6 C105_6 1_555 1_555
H81_6 C106_6 1_555 1_555
C110_6 O43_6 1_555 1_555
C111_6 O44_6 1_555 1_555
H85_6 C110_6 1_555 1_555
H86_6 C111_6 1_555 1_555
H90_6 C110_6 1_555 1_555
H91_6 C111_6 1_555 1_555
H95_6 C110_6 1_555 1_555
H96_6 C111_6 1_555 1_555
O17_6 C31_6 1_555 1_555
C35_6 C100_6 1_555 1_555
C40_6 C90_6 1_555 1_555
C55_6 C65_6 1_555 1_555
C56_6 C66_6 1_555 1_555
C60_6 C75_6 1_555 1_555
C61_6 C76_6 1_555 1_555
C85_6 C95_6 1_555 1_555
C86_6 C96_6 1_555 1_555
C90_6 O52_3 1_555 1_555
C91_6 O49_6 1_555 1_555
O58_3 C100_6 1_555 1_555
Zn7_6 O10_6 1_555 1_555
Zn4 O1_12 1_555 1_555

#END
