
###############################################################################
#
# This file contains modified crystal structure data generated from the
# MOF subset of the Cambridge Structural Database (CSD) v543 
# hosted by the Cambridge Crystallographic Data Centre (CCDC).
#
# This work is licensed under the Creative Commons
# Attribution-NonCommercial-ShareAlike 4.0 International License.
# To view a copy of this license, visit
# http://creativecommons.org/licenses/by-nc-sa/4.0/
# or send a letter to
# Creative Commons, PO Box 1866, Mountain View, CA 94042, USA.
#
# CIF created using the CSD Python API on 29 September 2022
# The structure has been converted into the P1 space group
# The structure has a 3D framework
# The original CSD entry LEJCIO is in the rhombohedral crystal system
# The framework has been calculated to contain at least 10.0% void space
# The void calculation uses a probe of radius 1.32A, grid spacing 0.4
#
###############################################################################

data_LEJCIO
_chemical_formula_moiety         '(C894 H576 O233 Zn49)n'
_symmetry_cell_setting           triclinic
_symmetry_space_group_name_H-M   'P 1'
_symmetry_Int_Tables_number      1
_space_group_name_Hall           'P 1'
loop_
_symmetry_equiv_pos_site_id
_symmetry_equiv_pos_as_xyz
1 x,y,z
_cell_length_a                   33.139(6)
_cell_length_b                   33.139(6)
_cell_length_c                   96.086(18)
_cell_angle_alpha                90
_cell_angle_beta                 90
_cell_angle_gamma                120
_cell_volume                     91383.9
loop_
_atom_site_label
_atom_site_type_symbol
_atom_site_fract_x
_atom_site_fract_y
_atom_site_fract_z
Zn4 Zn -0.00001(4) -0.00000(3) 0.632893(7)
Zn7 Zn 0.00001(4) 0.00000(3) 0.367107(7)
Zn4_2 Zn -0.00001(4) 1.00000(3) 0.632893(7)
Zn7_2 Zn 0.00001(4) 1.00000(3) 0.367107(7)
C13 C 0.6667 0.0421(3) 0.5833
C14 C 0.6742(3) 0.0704(3) 0.56998(5)
H9 H 0.6810 0.0554 0.5624
H10 H 0.7010 0.1012 0.5712
C15 C 0.6386(2) 0.1015(3) 0.55739(5)
C16 C 0.5980(3) 0.10293(18) 0.55487(6)
H11 H 0.5714 0.0845 0.5601
C17 C 0.59732(16) 0.13205(16) 0.54457(7)
H12 H 0.5702 0.1330 0.5429
C18 C 0.63720(18) 0.1597(2) 0.53680(5)
C19 C 0.6777(2) 0.15824(16) 0.53932(5)
C20 C 0.67845(14) 0.12918(18) 0.54962(6)
H13 H 0.7056 0.1282 0.5513
C21 C 0.70804(3) 0.18623(3) 0.530381(7)
H14 H 0.7363 0.1867 0.5308
C22 C 0.70711(3) 0.21576(3) 0.520277(7)
H15 H 0.7336 0.2343 0.5150
C23 C 0.66667(3) 0.21773(3) 0.518089(7)
C24 C 0.62715(3) 0.19016(3) 0.526006(7)
H16 H 0.5995 0.1905 0.5248
C25 C 0.66793(3) 0.25584(3) 0.510296(7)
O2 O 0.70441(3) 0.27687(3) 0.504098(7)
O4 O 0.63121(3) 0.24609(3) 0.506549(7)
O6 O 0.63699(3) 0.07459(3) 0.566519(7)
C26 C 0.9150(3) 0.0018(4) 0.63130(9)
C31 C 0.8789(4) 0.0054(6) 0.62324(12)
C36 C 0.8908(3) 0.0233(5) 0.60975(16)
H17 H 0.9199 0.0314 0.6062
C41 C 0.8585(6) 0.0288(8) 0.60172(12)
H22 H 0.8688 0.0430 0.5931
C46 C 0.8106(7) 0.0146(10) 0.60539(11)
C71 C 0.7331(4) 0.0014(6) 0.60485(16)
C76 C 0.7747(5) 0.0177(6) 0.59860(13)
H42 H 0.7797 0.0309 0.5898
C81 C 0.7068(2) 0.0325(3) 0.58613(5)
H47 H 0.7098 0.0160 0.5782
H52 H 0.7356 0.0620 0.5869
C88 C 0.6591(3) 0.0629(4) 0.59669(5)
H57 H 0.6523 0.0411 0.6043
H62 H 0.6323 0.0669 0.5955
C93 C 0.6947(2) 0.1296(4) 0.60928(5)
C98 C 0.7353(3) 0.17160(35) 0.61180(6)
H67 H 0.7619 0.1798 0.6066
C103 C 0.73601(16) 0.20140(23) 0.62210(7)
H72 H 0.7631 0.2295 0.6238
C108 C 0.69613(18) 0.18917(27) 0.62987(5)
C113 C 0.6556(2) 0.14721(26) 0.62735(5)
C118 C 0.65488(14) 0.11740(23) 0.61705(6)
H77 H 0.6277 0.0893 0.6154
C123 C 0.62529(3) 0.14486(4) 0.636286(7)
H82 H 0.5970 0.1171 0.6359
C128 C 0.62622(3) 0.17532(4) 0.646390(7)
H87 H 0.5997 0.1674 0.6517
C133 C 0.66666(3) 0.21773(4) 0.648578(7)
C138 C 0.70618(3) 0.22968(4) 0.640661(7)
H92 H 0.7338 0.2577 0.6419
C143 C 0.66540(3) 0.25458(4) 0.656371(7)
O8 O 0.95011(3) 0.00822(4) 0.624995(7)
O17 O 0.62892(3) 0.23913(4) 0.662569(7)
O23 O 0.57246(4) 0.29559(3) 0.504098(7)
O31 O 0.75505(3) 0.32802(4) 0.477494(7)
O34 O 0.57297(3) 0.24495(3) 0.477494(7)
O35 O 0.70212(3) 0.28155(4) 0.660118(7)
O41 O 0.75391(3) 0.38512(4) 0.506549(7)
O44 O 0.66667(3) 0.33334(4) 0.486531(7)
O45 O 0.69634(3) 0.10427(4) 0.600148(7)
O50 O 0.70088(3) 0.00604(4) 0.598319(7)
Zn4_3 Zn 0.99999(4) -0.00000(3) 0.632893(7)
Zn7_3 Zn 1.00001(4) 0.00000(3) 0.367107(7)
Zn11 Zn 0.72200(4) 0.33399(3) 0.493200(7)
Zn12 Zn 0.61199(3) 0.27800(4) 0.493200(7)
Zn16 Zn 0.94532(3) 0.00066(3) 0.659867(7)
Zn22 Zn 0.61133(4) 0.27866(3) 0.673467(7)
Zn23 Zn 0.72134(3) 0.33268(3) 0.673467(7)
C1 C 0.4183(3) 0.7534(3) 0.53537(9)
C2 C 0.4544(4) 0.7931(4) 0.54343(12)
C3 C 0.4425(3) 0.7991(4) 0.55692(16)
H1 H 0.4134 0.7781 0.5605
C4 C 0.4748(6) 0.8369(6) 0.56495(12)
H2 H 0.4645 0.8408 0.5736
C5 C 0.5227(7) 0.8706(7) 0.56128(11)
C6 C 0.5297(4) 0.8594(4) 0.5472(2)
C7 C 0.4963(6) 0.8228(5) 0.53837(9)
H3 H 0.5040 0.8200 0.5293
C8 C 0.5732(6) 0.8875(5) 0.54103(9)
H4 H 0.5783 0.8814 0.5319
C9 C 0.6080(3) 0.9236(4) 0.54814(13)
H5 H 0.6372 0.9411 0.5440
C10 C 0.6002(4) 0.9349(4) 0.56182(16)
C11 C 0.5586(5) 0.9096(4) 0.56807(13)
H6 H 0.5536 0.9178 0.5769
C12 C 0.6265(2) 0.9923(2) 0.58054(5)
H7 H 0.6235 0.9728 0.5885
H8 H 0.5977 0.9930 0.5798
O1 O 0.38322(3) 0.72477(3) 0.541672(7)
O3 O 0.42703(3) 0.75505(3) 0.522506(7)
O5 O 0.33333(3) 0.66667(3) 0.513469(7)
O7 O 0.63245(3) 0.97182(3) 0.568348(7)
Zn1 Zn 0.33333(3) 0.66667(3) 0.533774(7)
Zn2 Zn 0.33399(3) 0.61199(3) 0.506800(7)
C28 C 0.0018(4) 0.0867(3) 0.36870(9)
C29 C 0.6649(4) 0.4183(3) 0.46463(9)
C30 C 0.9133(3) 0.9150(3) 0.36870(9)
C33 C 0.0054(6) 0.1264(4) 0.37676(12)
C34 C 0.6613(6) 0.4544(4) 0.45657(12)
C35 C 0.8736(4) 0.8789(4) 0.37676(12)
C38 C 0.0233(5) 0.1324(4) 0.39025(16)
C39 C 0.6434(5) 0.4425(3) 0.44308(16)
C40 C 0.8676(4) 0.8908(3) 0.39025(16)
H19 H 0.0314 0.1114 0.3938
H20 H 0.6353 0.4134 0.4395
H21 H 0.8886 0.9199 0.3938
C43 C 0.0288(8) 0.1702(6) 0.39828(12)
C44 C 0.6379(8) 0.4748(6) 0.43505(12)
C45 C 0.8298(6) 0.8585(6) 0.39828(12)
H24 H 0.0430 0.1741 0.4069
H25 H 0.6237 0.4645 0.4264
H26 H 0.8259 0.8688 0.4069
C48 C 0.0146(10) 0.2039(7) 0.39461(11)
C49 C 0.6521(10) 0.5227(7) 0.43872(11)
C50 C 0.7961(7) 0.8106(7) 0.39461(11)
C51 C 0.8036(4) 0.9964(6) 0.6195(2)
C54 C 0.6703(6) 0.5297(4) 0.4528(2)
C55 C 0.8073(4) 0.8036(4) 0.3805(2)
C56 C 0.8370(6) 0.9932(8) 0.62830(9)
C59 C 0.6735(8) 0.4963(6) 0.46163(9)
C60 C 0.8439(5) 0.8370(6) 0.37170(9)
H27 H 0.8293 0.9827 0.6374
H30 H 0.6840 0.5040 0.4707
H31 H 0.8467 0.8293 0.3626
C61 C 0.7601(6) 0.9810(8) 0.62564(9)
C64 C 0.6857(8) 0.5732(6) 0.45897(9)
C65 C 0.7792(5) 0.7601(6) 0.37436(9)
H32 H 0.7550 0.9698 0.6348
H35 H 0.6969 0.5783 0.4681
H36 H 0.7853 0.7550 0.3652
C66 C 0.7253(3) 0.9823(5) 0.61853(13)
C69 C 0.6844(5) 0.6080(3) 0.45186(13)
C70 C 0.7431(4) 0.7253(3) 0.38147(13)
H37 H 0.6961 0.9706 0.6227
H40 H 0.6961 0.6372 0.4560
H41 H 0.7256 0.6961 0.3773
C73 C 0.0014(6) 0.2682(4) 0.39515(16)
C74 C 0.6653(6) 0.6002(4) 0.43818(16)
C75 C 0.7318(4) 0.7331(4) 0.39515(16)
C78 C 0.0177(6) 0.2429(4) 0.40140(13)
C79 C 0.6490(6) 0.5586(5) 0.43193(13)
C80 C 0.7571(4) 0.7747(5) 0.40140(13)
H44 H 0.0309 0.2511 0.4102
H45 H 0.6358 0.5536 0.4231
H46 H 0.7489 0.7797 0.4102
C83 C 0.0325(3) 0.3256(2) 0.41387(5)
C84 C 0.6342(3) 0.6265(2) 0.41946(5)
C85 C 0.6744(2) 0.7068(2) 0.41387(5)
H49 H 0.0160 0.3061 0.4218
H50 H 0.6507 0.6235 0.4115
H51 H 0.6939 0.7098 0.4218
H54 H 0.0620 0.3263 0.4131
H55 H 0.6047 0.5977 0.4202
H56 H 0.6737 0.7356 0.4131
C86 C 0.0421(3) 0.3754(3) 0.4167
C87 C 0.6246(3) 0.6667 0.4167
C89 C 0.0704(3) 0.3962(4) 0.43002(5)
C90 C 0.0629(4) 0.4037(3) 0.40331(5)
C91 C 0.6038(4) 0.6742(3) 0.43002(5)
C92 C 0.5963(3) 0.6591(3) 0.40331(5)
H58 H 0.0554 0.3744 0.4376
H59 H 0.0411 0.3887 0.3957
H60 H 0.6256 0.6810 0.4376
H61 H 0.6113 0.6523 0.3957
H63 H 0.1012 0.4002 0.4288
H64 H 0.0669 0.4345 0.4045
H65 H 0.5998 0.7010 0.4288
H66 H 0.5655 0.6323 0.4045
C94 C 0.1015(3) 0.4629(4) 0.44261(5)
C95 C 0.1296(4) 0.4348(3) 0.39072(5)
C96 C 0.5371(4) 0.6386(2) 0.44261(5)
C97 C 0.5652(3) 0.6947(2) 0.39072(5)
C99 C 0.10293(18) 0.50493(35) 0.44513(6)
C100 C 0.17160(35) 0.43626(18) 0.38820(6)
C101 C 0.49507(35) 0.5980(3) 0.44513(6)
C102 C 0.56374(18) 0.7353(3) 0.38820(6)
H68 H 0.0845 0.5131 0.4399
H69 H 0.1798 0.4178 0.3934
H70 H 0.4869 0.5714 0.4399
H71 H 0.5822 0.7619 0.3934
C104 C 0.13205(16) 0.53473(23) 0.45543(7)
C105 C 0.20140(23) 0.46538(16) 0.37790(7)
C106 C 0.46527(23) 0.59732(16) 0.45543(7)
C107 C 0.53462(16) 0.73601(16) 0.37790(7)
H73 H 0.1330 0.5628 0.4571
H74 H 0.2295 0.4663 0.3762
H75 H 0.4372 0.5702 0.4571
H76 H 0.5337 0.7631 0.3762
C109 C 0.1597(2) 0.52250(27) 0.46320(5)
C110 C 0.18917(27) 0.4930(2) 0.37013(5)
C111 C 0.47750(27) 0.63720(18) 0.46320(5)
C112 C 0.5070(2) 0.69613(18) 0.37013(5)
C114 C 0.15824(16) 0.48054(26) 0.46068(5)
C115 C 0.14721(26) 0.49157(16) 0.37265(5)
C116 C 0.51946(26) 0.6777(2) 0.46068(5)
C117 C 0.50843(16) 0.6556(2) 0.37265(5)
C119 C 0.12918(18) 0.45073(23) 0.45038(6)
C120 C 0.11740(23) 0.46251(18) 0.38295(6)
C121 C 0.54927(23) 0.67845(14) 0.45038(6)
C122 C 0.53749(18) 0.65488(14) 0.38295(6)
H78 H 0.1282 0.4226 0.4487
H79 H 0.0893 0.4615 0.3846
H80 H 0.5774 0.7056 0.4487
H81 H 0.5385 0.6277 0.3846
C124 C 0.18623(3) 0.47819(4) 0.469619(7)
C125 C 0.14486(4) 0.51956(3) 0.363714(7)
C126 C 0.52181(4) 0.70804(3) 0.469619(7)
C127 C 0.48044(3) 0.62529(3) 0.363714(7)
H83 H 0.1867 0.4504 0.4692
H84 H 0.1171 0.5200 0.3641
H85 H 0.5496 0.7363 0.4692
H86 H 0.4800 0.5970 0.3641
C129 C 0.21576(3) 0.50865(4) 0.479723(7)
C130 C 0.17532(4) 0.54909(3) 0.353610(7)
C131 C 0.49135(4) 0.70711(3) 0.479723(7)
C132 C 0.45091(3) 0.62622(3) 0.353610(7)
H88 H 0.2343 0.5007 0.4850
H89 H 0.1674 0.5676 0.3483
H90 H 0.4993 0.7336 0.4850
H91 H 0.4324 0.5997 0.3483
C134 C 0.21773(3) 0.55106(4) 0.481911(7)
C135 C 0.21773(4) 0.55106(3) 0.351422(7)
C136 C 0.44894(4) 0.66667(3) 0.481911(7)
C137 C 0.44894(3) 0.66666(3) 0.351422(7)
C139 C 0.19016(3) 0.56301(4) 0.473994(7)
C140 C 0.22968(4) 0.52349(3) 0.359339(7)
C141 C 0.43699(4) 0.62715(3) 0.473994(7)
C142 C 0.47651(3) 0.70618(3) 0.359339(7)
H93 H 0.1905 0.5910 0.4752
H94 H 0.2577 0.5238 0.3581
H95 H 0.4090 0.5995 0.4752
H96 H 0.4762 0.7338 0.3581
C144 C 0.25584(3) 0.58791(4) 0.489704(7)
C145 C 0.25458(4) 0.58917(3) 0.343629(7)
C146 C 0.41209(4) 0.66793(3) 0.489704(7)
C147 C 0.41083(3) 0.66540(3) 0.343629(7)
O10 O 0.00822(4) 0.05810(3) 0.375005(7)
O11 O 0.65845(4) 0.38322(3) 0.458328(7)
O12 O 0.94190(3) 0.95011(3) 0.375005(7)
O13 O 0.61678(3) 0.27523(3) 0.458328(7)
O14 O 0.72477(3) 0.34155(4) 0.458328(7)
O15 O 0.27523(3) 0.65845(4) 0.541672(7)
O16 O 0.34155(4) 0.61678(3) 0.541672(7)
O18 O 0.27687(3) 0.57246(4) 0.495902(7)
O19 O 0.23913(4) 0.61020(3) 0.337431(7)
O20 O 0.42754(4) 0.70441(3) 0.495902(7)
O21 O 0.38980(3) 0.62892(3) 0.337431(7)
O24 O 0.29559(3) 0.72313(3) 0.495902(7)
O25 O 0.90630(3) 0.99469(4) 0.644161(7)
O28 O 0.67198(4) 0.42703(3) 0.477494(7)
O29 O 0.91162(3) 0.90630(3) 0.355839(7)
O32 O 0.24495(3) 0.67198(4) 0.522506(7)
O33 O 0.32802(4) 0.57297(3) 0.522506(7)
O36 O 0.24609(3) 0.61488(4) 0.493451(7)
O37 O 0.28155(4) 0.57942(3) 0.339882(7)
O38 O 0.38512(4) 0.63121(3) 0.493451(7)
O39 O 0.42058(3) 0.70212(3) 0.339882(7)
O42 O 0.36879(3) 0.75391(3) 0.493451(7)
O46 O 0.07459(3) 0.43760(4) 0.433481(7)
O47 O 0.10427(4) 0.40792(3) 0.399852(7)
O48 O 0.56240(4) 0.63699(3) 0.433481(7)
O49 O 0.59208(3) 0.69634(3) 0.399852(7)
O52 O 0.00604(4) 0.30515(3) 0.401681(7)
O53 O 0.66063(4) 0.63245(3) 0.431652(7)
O54 O 0.69485(3) 0.70088(3) 0.401681(7)
Zn3 Zn 0.66666(4) 0.33333(3) 0.466226(7)
Zn4_4 Zn 0.99999(4) 1.00000(3) 0.632893(7)
Zn7_4 Zn 1.00001(4) 1.00000(3) 0.367107(7)
Zn8 Zn 0.38801(3) 0.72200(4) 0.506800(7)
Zn9 Zn 0.27800(4) 0.66601(3) 0.506800(7)
Zn13 Zn 0.38867(4) 0.72134(3) 0.326533(7)
Zn14 Zn 0.33268(3) 0.61133(4) 0.326533(7)
Zn15 Zn 0.27866(3) 0.66732(3) 0.326533(7)
Zn17 Zn 0.66601(3) 0.38801(3) 0.493200(7)
Zn20 Zn 0.94467(4) 0.94532(3) 0.340133(7)
Zn21 Zn 0.00066(3) 0.05533(4) 0.340133(7)
C27 C 0.7534(3) 0.3351(4) 0.46463(9)
C32 C 0.7931(4) 0.3387(6) 0.45657(12)
C37 C 0.7991(4) 0.3566(5) 0.44308(16)
H18 H 0.7781 0.3647 0.4395
C42 C 0.8369(6) 0.3621(8) 0.43505(12)
H23 H 0.8408 0.3763 0.4264
C47 C 0.8706(7) 0.3479(10) 0.43872(11)
C52 C 0.8594(4) 0.3297(6) 0.4528(2)
C53 C 0.9964(6) 0.1927(4) 0.3805(2)
C57 C 0.8228(5) 0.3265(8) 0.46163(9)
C58 C 0.9932(8) 0.1561(5) 0.37170(9)
H28 H 0.8200 0.3160 0.4707
H29 H 0.9827 0.1533 0.3626
C62 C 0.8875(5) 0.3143(8) 0.45897(9)
C63 C 0.9810(8) 0.2208(5) 0.37436(9)
H33 H 0.8814 0.3031 0.4681
H34 H 0.9698 0.2147 0.3652
C67 C 0.9236(4) 0.3156(5) 0.45186(13)
C68 C 0.9823(5) 0.2569(4) 0.38147(13)
H38 H 0.9411 0.3039 0.4560
H39 H 0.9706 0.2744 0.3773
C72 C 0.9349(4) 0.3347(6) 0.43818(16)
C77 C 0.9096(4) 0.3510(6) 0.43193(13)
H43 H 0.9178 0.3642 0.4231
C82 C 0.9923(2) 0.3658(3) 0.41946(5)
H48 H 0.9728 0.3493 0.4115
H53 H 0.9930 0.3953 0.4202
O27 O 0.99469(4) 0.08838(3) 0.355839(7)
O51 O 0.97182(3) 0.33937(4) 0.431652(7)
C29_2 C 0.5817(3) 0.2466(5) 0.46463(9)
C34_2 C 0.5456(4) 0.2069(7) 0.45657(12)
C39_2 C 0.5575(3) 0.2009(6) 0.44308(16)
H20_2 H 0.5866 0.2219 0.4395
C44_2 C 0.5252(6) 0.1631(10) 0.43505(12)
H25_2 H 0.5355 0.1592 0.4264
C49_2 C 0.4773(7) 0.1294(12) 0.43872(11)
C54_2 C 0.4703(4) 0.1406(7) 0.4528(2)
C55_2 C 0.1964(4) 0.0036(6) 0.3805(2)
C59_2 C 0.5037(6) 0.1772(10) 0.46163(9)
C60_2 C 0.1630(6) 0.0068(8) 0.37170(9)
H30_2 H 0.4960 0.1800 0.4707
H31_2 H 0.1707 0.0173 0.3626
C64_2 C 0.4268(6) 0.1125(10) 0.45897(9)
C65_2 C 0.2399(6) 0.0190(8) 0.37436(9)
H35_2 H 0.4217 0.1186 0.4681
H36_2 H 0.2450 0.0302 0.3652
C69_2 C 0.3920(3) 0.0764(6) 0.45186(13)
C70_2 C 0.2747(3) 0.0177(5) 0.38147(13)
H40_2 H 0.3628 0.0589 0.4560
H41_2 H 0.3039 0.0294 0.3773
C74_2 C 0.3998(4) 0.0651(7) 0.43818(16)
C79_2 C 0.4414(5) 0.0904(8) 0.43193(13)
H45_2 H 0.4464 0.0822 0.4231
C84_2 C 0.3735(2) 0.0077(4) 0.41946(5)
H50_2 H 0.3765 0.0272 0.4115
H55_2 H 0.4023 0.0070 0.4202
O22 O 0.72313(3) 0.42754(4) 0.504098(7)
O29_2 O 0.09370(3) 0.00531(4) 0.355839(7)
O40 O 0.61488(4) 0.36879(5) 0.506549(7)
O53_2 O 0.36755(3) 0.02818(5) 0.431652(7)
C1_2 C 0.2466(3) 0.6649(4) 0.53537(9)
C2_2 C 0.2069(4) 0.6613(6) 0.54343(12)
C3_2 C 0.2009(4) 0.6434(5) 0.55692(16)
H1_2 H 0.2219 0.6353 0.5605
C4_2 C 0.1631(6) 0.6379(8) 0.56495(12)
H2_2 H 0.1592 0.6237 0.5736
C5_2 C 0.1294(7) 0.6521(10) 0.56128(11)
C6_2 C 0.1406(4) 0.6703(6) 0.5472(2)
C7_2 C 0.1772(5) 0.6735(8) 0.53837(9)
H3_2 H 0.1800 0.6840 0.5293
C8_2 C 0.1125(5) 0.6857(8) 0.54103(9)
H4_2 H 0.1186 0.6969 0.5319
C9_2 C 0.0764(4) 0.6844(5) 0.54814(13)
H5_2 H 0.0589 0.6961 0.5440
C10_2 C 0.0651(4) 0.6653(6) 0.56182(16)
C11_2 C 0.0904(4) 0.6490(6) 0.56807(13)
H6_2 H 0.0822 0.6358 0.5769
C12_2 C 0.0077(2) 0.6342(3) 0.58054(5)
H7_2 H 0.0272 0.6507 0.5885
H8_2 H 0.0070 0.6047 0.5798
O7_2 O 0.02818(3) 0.66063(4) 0.568348(7)
C30_2 C 0.0850(3) 0.9982(4) 0.36870(9)
C35_2 C 0.1211(4) 0.9946(6) 0.37676(12)
C40_2 C 0.1092(3) 0.9767(5) 0.39025(16)
H21_2 H 0.0801 0.9686 0.3938
C45_2 C 0.1415(6) 0.9712(8) 0.39828(12)
H26_2 H 0.1312 0.9570 0.4069
C50_2 C 0.1894(7) 0.9854(10) 0.39461(11)
C51_2 C 0.0036(6) 0.8073(7) 0.6195(2)
C56_2 C 0.0068(8) 0.8439(10) 0.62830(9)
H27_2 H 0.0173 0.8467 0.6374
C61_2 C 0.0190(8) 0.7792(10) 0.62564(9)
H32_2 H 0.0302 0.7853 0.6348
C66_2 C 0.0177(5) 0.7431(6) 0.61853(13)
H37_2 H 0.0294 0.7256 0.6227
C75_2 C 0.2669(4) 0.9986(6) 0.39515(16)
C80_2 C 0.2253(5) 0.9823(6) 0.40140(13)
H46_2 H 0.2203 0.9691 0.4102
C85_2 C 0.2932(2) 0.9675(3) 0.41387(5)
H51_2 H 0.2902 0.9840 0.4218
H56_2 H 0.2644 0.9380 0.4131
C87_2 C 0.3333 0.9579(3) 0.4167
C91_2 C 0.3258(3) 0.9296(5) 0.43002(5)
C92_2 C 0.3409(3) 0.9371(4) 0.40331(5)
H60_2 H 0.3190 0.9446 0.4376
H61_2 H 0.3477 0.9589 0.3957
H65_2 H 0.2990 0.8988 0.4288
H66_2 H 0.3677 0.9331 0.4045
C96_2 C 0.3614(2) 0.8985(4) 0.44261(5)
C97_2 C 0.3053(2) 0.8704(4) 0.39072(5)
C101_2 C 0.4020(3) 0.89707(46) 0.44513(6)
C102_2 C 0.2647(3) 0.82840(35) 0.38820(6)
H70_2 H 0.4286 0.9155 0.4399
H71_2 H 0.2381 0.8202 0.3934
C106_2 C 0.40268(16) 0.86795(28) 0.45543(7)
C107_2 C 0.26399(16) 0.79860(23) 0.37790(7)
H75_2 H 0.4298 0.8670 0.4571
H76_2 H 0.2369 0.7705 0.3762
C111_2 C 0.36280(18) 0.84030(32) 0.46320(5)
C112_2 C 0.30387(18) 0.81083(27) 0.37013(5)
C116_2 C 0.3223(2) 0.84176(33) 0.46068(5)
C117_2 C 0.3444(2) 0.85279(26) 0.37265(5)
C121_2 C 0.32155(14) 0.87082(27) 0.45038(6)
C122_2 C 0.34512(14) 0.88260(23) 0.38295(6)
H80_2 H 0.2944 0.8718 0.4487
H81_2 H 0.3723 0.9107 0.3846
C126_2 C 0.29196(3) 0.81377(5) 0.469619(7)
C127_2 C 0.37471(3) 0.85514(4) 0.363714(7)
H85_2 H 0.2637 0.8133 0.4692
H86_2 H 0.4030 0.8829 0.3641
C131_2 C 0.29289(3) 0.78424(5) 0.479723(7)
C132_2 C 0.37378(3) 0.82468(4) 0.353610(7)
H90_2 H 0.2664 0.7657 0.4850
H91_2 H 0.4003 0.8326 0.3483
C136_2 C 0.33333(3) 0.78227(5) 0.481911(7)
C137_2 C 0.33334(3) 0.78227(4) 0.351422(7)
C141_2 C 0.37285(3) 0.80984(5) 0.473994(7)
C142_2 C 0.29382(3) 0.77032(4) 0.359339(7)
H95_2 H 0.4005 0.8095 0.4752
H96_2 H 0.2662 0.7423 0.3581
C146_2 C 0.33207(3) 0.74416(5) 0.489704(7)
C147_2 C 0.33460(3) 0.74542(4) 0.343629(7)
O12_2 O 0.04989(3) 0.99178(4) 0.375005(7)
O21_2 O 0.37108(3) 0.76087(4) 0.337431(7)
O25_2 O 0.00531(4) 0.91162(5) 0.644161(7)
O39_2 O 0.29788(3) 0.71845(4) 0.339882(7)
O48_2 O 0.36301(3) 0.92541(5) 0.433481(7)
O49_2 O 0.30366(3) 0.89573(4) 0.399852(7)
O54_2 O 0.29912(3) 0.99396(4) 0.401681(7)
Zn20_2 Zn 0.05468(3) 0.99934(5) 0.340133(7)
C13_2 C 0.9579(3) 0.6246(3) 0.5833
C14_2 C 0.9296(3) 0.6038(4) 0.56998(5)
H9_2 H 0.9446 0.6256 0.5624
H10_2 H 0.8988 0.5998 0.5712
C15_2 C 0.8985(3) 0.5371(4) 0.55739(5)
C16_2 C 0.89707(18) 0.49507(35) 0.55487(6)
H11_2 H 0.9155 0.4869 0.5601
C17_2 C 0.86795(16) 0.46527(23) 0.54457(7)
H12_2 H 0.8670 0.4372 0.5429
C18_2 C 0.8403(2) 0.47750(27) 0.53680(5)
C19_2 C 0.84176(16) 0.51946(26) 0.53932(5)
C20_2 C 0.87082(18) 0.54927(23) 0.54962(6)
H13_2 H 0.8718 0.5774 0.5513
C21_2 C 0.81377(3) 0.52181(4) 0.530381(7)
H14_2 H 0.8133 0.5496 0.5308
C22_2 C 0.78424(3) 0.49135(4) 0.520277(7)
H15_2 H 0.7657 0.4993 0.5150
C23_2 C 0.78227(3) 0.44894(4) 0.518089(7)
C24_2 C 0.80984(3) 0.43699(4) 0.526006(7)
H16_2 H 0.8095 0.4090 0.5248
C25_2 C 0.74416(3) 0.41209(4) 0.510296(7)
O6_2 O 0.92541(3) 0.56240(4) 0.566519(7)
C26_2 C 0.9982(4) 0.9133(5) 0.63130(9)
C31_2 C 0.9946(6) 0.8736(7) 0.62324(12)
C36_2 C 0.9767(5) 0.8676(6) 0.60975(16)
H17_2 H 0.9686 0.8886 0.6062
C41_2 C 0.9712(8) 0.8298(10) 0.60172(12)
H22_2 H 0.9570 0.8259 0.5931
C46_2 C 0.9854(10) 0.7961(12) 0.60539(11)
C71_2 C 0.9986(6) 0.7318(7) 0.60485(16)
C76_2 C 0.9823(6) 0.7571(8) 0.59860(13)
H42_2 H 0.9691 0.7489 0.5898
C81_2 C 0.9675(3) 0.6744(4) 0.58613(5)
H47_2 H 0.9840 0.6939 0.5782
H52_2 H 0.9380 0.6737 0.5869
C88_2 C 0.9371(4) 0.5963(5) 0.59669(5)
H57_2 H 0.9589 0.6113 0.6043
H62_2 H 0.9331 0.5655 0.5955
C93_2 C 0.8704(4) 0.5652(4) 0.60928(5)
C98_2 C 0.82840(35) 0.56374(46) 0.61180(6)
H67_2 H 0.8202 0.5822 0.6066
C103_2 C 0.79860(23) 0.53462(28) 0.62210(7)
H72_2 H 0.7705 0.5337 0.6238
C108_2 C 0.81083(27) 0.50697(32) 0.62987(5)
C113_2 C 0.85279(26) 0.50843(33) 0.62735(5)
C118_2 C 0.88260(23) 0.53749(27) 0.61705(6)
H77_2 H 0.9107 0.5385 0.6154
C123_2 C 0.85514(4) 0.48044(5) 0.636286(7)
H82_2 H 0.8829 0.4800 0.6359
C128_2 C 0.82468(4) 0.45091(5) 0.646390(7)
H87_2 H 0.8326 0.4324 0.6517
C133_2 C 0.78227(4) 0.44894(5) 0.648578(7)
C138_2 C 0.77032(4) 0.47651(5) 0.640661(7)
H92_2 H 0.7423 0.4762 0.6419
C143_2 C 0.74542(4) 0.41083(5) 0.656371(7)
O8_2 O 0.99178(4) 0.94190(5) 0.624995(7)
O17_2 O 0.76087(4) 0.38980(5) 0.662569(7)
O35_2 O 0.71845(4) 0.42058(5) 0.660118(7)
O45_2 O 0.89573(4) 0.59208(5) 0.600148(7)
O50_2 O 0.99396(4) 0.69485(5) 0.598319(7)
Zn16_2 Zn 0.99934(3) 0.94467(4) 0.659867(7)
Zn23_2 Zn 0.66732(3) 0.38867(4) 0.673467(7)
C1_3 C 0.3351(4) 0.5817(3) 0.53537(9)
C2_3 C 0.3387(6) 0.5456(4) 0.54343(12)
C3_3 C 0.3566(5) 0.5575(3) 0.55692(16)
H1_3 H 0.3647 0.5866 0.5605
C4_3 C 0.3621(8) 0.5252(6) 0.56495(12)
H2_3 H 0.3763 0.5355 0.5736
C5_3 C 0.3479(10) 0.4773(7) 0.56128(11)
C6_3 C 0.3297(6) 0.4703(4) 0.5472(2)
C7_3 C 0.3265(8) 0.5037(6) 0.53837(9)
H3_3 H 0.3160 0.4960 0.5293
C8_3 C 0.3143(8) 0.4268(6) 0.54103(9)
H4_3 H 0.3031 0.4217 0.5319
C9_3 C 0.3156(5) 0.3920(3) 0.54814(13)
H5_3 H 0.3039 0.3628 0.5440
C10_3 C 0.3347(6) 0.3998(4) 0.56182(16)
C11_3 C 0.3510(6) 0.4414(5) 0.56807(13)
H6_3 H 0.3642 0.4464 0.5769
C12_3 C 0.3658(3) 0.3735(2) 0.58054(5)
H7_3 H 0.3493 0.3765 0.5885
H8_3 H 0.3953 0.4023 0.5798
C13_3 C 0.3754(3) 0.3333 0.5833
C14_3 C 0.3962(4) 0.3258(3) 0.56998(5)
H9_3 H 0.3744 0.3190 0.5624
H10_3 H 0.4002 0.2990 0.5712
C15_3 C 0.4629(4) 0.3614(2) 0.55739(5)
C16_3 C 0.50493(35) 0.4020(3) 0.55487(6)
H11_3 H 0.5131 0.4286 0.5601
C17_3 C 0.53473(23) 0.40268(16) 0.54457(7)
H12_3 H 0.5628 0.4298 0.5429
C18_3 C 0.52250(27) 0.36280(18) 0.53680(5)
C19_3 C 0.48054(26) 0.3223(2) 0.53932(5)
C20_3 C 0.45073(23) 0.32155(14) 0.54962(6)
H13_3 H 0.4226 0.2944 0.5513
C21_3 C 0.47819(4) 0.29196(3) 0.530381(7)
H14_3 H 0.4504 0.2637 0.5308
C22_3 C 0.50865(4) 0.29289(3) 0.520277(7)
H15_3 H 0.5007 0.2664 0.5150
C23_3 C 0.55106(4) 0.33333(3) 0.518089(7)
C24_3 C 0.56301(4) 0.37285(3) 0.526006(7)
H16_3 H 0.5910 0.4005 0.5248
C25_3 C 0.58791(4) 0.33207(3) 0.510296(7)
O6_3 O 0.43760(4) 0.36301(3) 0.566519(7)
O7_3 O 0.33937(4) 0.36755(3) 0.568348(7)
C26_3 C 0.0867(5) 0.0850(3) 0.63130(9)
C31_3 C 0.1264(7) 0.1211(4) 0.62324(12)
C36_3 C 0.1324(6) 0.1092(3) 0.60975(16)
H17_3 H 0.1114 0.0801 0.6062
C41_3 C 0.1702(10) 0.1415(6) 0.60172(12)
H22_3 H 0.1741 0.1312 0.5931
C46_3 C 0.2039(12) 0.1894(7) 0.60539(11)
C51_3 C 0.1927(7) 0.1964(4) 0.6195(2)
C56_3 C 0.1561(10) 0.1630(6) 0.62830(9)
H27_3 H 0.1533 0.1707 0.6374
C61_3 C 0.2208(10) 0.2399(6) 0.62564(9)
H32_3 H 0.2147 0.2450 0.6348
C66_3 C 0.2569(6) 0.2747(3) 0.61853(13)
H37_3 H 0.2744 0.3039 0.6227
C71_3 C 0.2682(7) 0.2669(4) 0.60485(16)
C76_3 C 0.2429(8) 0.2253(5) 0.59860(13)
H42_3 H 0.2511 0.2203 0.5898
C81_3 C 0.3256(4) 0.2932(2) 0.58613(5)
H47_3 H 0.3061 0.2902 0.5782
H52_3 H 0.3263 0.2644 0.5869
C88_3 C 0.4037(5) 0.3409(3) 0.59669(5)
H57_3 H 0.3887 0.3477 0.6043
H62_3 H 0.4345 0.3677 0.5955
C93_3 C 0.4348(4) 0.3053(2) 0.60928(5)
C98_3 C 0.43626(46) 0.2647(3) 0.61180(6)
H67_3 H 0.4178 0.2381 0.6066
C103_3 C 0.46538(28) 0.26399(16) 0.62210(7)
H72_3 H 0.4663 0.2369 0.6238
C108_3 C 0.49303(32) 0.30387(18) 0.62987(5)
C113_3 C 0.49157(33) 0.3444(2) 0.62735(5)
C118_3 C 0.46251(27) 0.34512(14) 0.61705(6)
H77_3 H 0.4615 0.3723 0.6154
C123_3 C 0.51956(5) 0.37471(3) 0.636286(7)
H82_3 H 0.5200 0.4030 0.6359
C128_3 C 0.54909(5) 0.37378(3) 0.646390(7)
H87_3 H 0.5676 0.4003 0.6517
C133_3 C 0.55106(5) 0.33334(3) 0.648578(7)
C138_3 C 0.52349(5) 0.29382(3) 0.640661(7)
H92_3 H 0.5238 0.2662 0.6419
C143_3 C 0.58917(5) 0.33460(3) 0.656371(7)
O8_3 O 0.05810(5) 0.04989(3) 0.624995(7)
O17_3 O 0.61020(5) 0.37108(3) 0.662569(7)
O25_3 O 0.08838(5) 0.09370(3) 0.644161(7)
O35_3 O 0.57942(5) 0.29788(3) 0.660118(7)
O45_3 O 0.40792(5) 0.30366(3) 0.600148(7)
O50_3 O 0.30515(5) 0.29912(3) 0.598319(7)
Zn16_3 Zn 0.05533(4) 0.05468(3) 0.659867(7)
Zn6 Zn 0.00000(5) -0.00000(3) 0.132893(7)
C29_3 C 0.2466(5) 0.5817(3) 0.03537(9)
C34_3 C 0.2069(7) 0.5456(4) 0.04343(12)
C39_3 C 0.2009(6) 0.5575(3) 0.05692(16)
H20_3 H 0.2219 0.5866 0.0605
C44_3 C 0.1631(10) 0.5252(6) 0.06495(12)
H25_3 H 0.1592 0.5355 0.0736
C49_3 C 0.1294(12) 0.4773(7) 0.06128(11)
C54_3 C 0.1406(7) 0.4703(4) 0.0472(2)
C55_3 C 0.0036(6) 0.1964(4) 0.1195(2)
C59_3 C 0.1772(10) 0.5037(6) 0.03837(9)
C60_3 C 0.0068(8) 0.1630(6) 0.12830(9)
H30_3 H 0.1800 0.4960 0.0293
H31_3 H 0.0173 0.1707 0.1374
C64_3 C 0.1125(10) 0.4268(6) 0.04103(9)
C65_3 C 0.0190(8) 0.2399(6) 0.12564(9)
H35_3 H 0.1186 0.4217 0.0319
H36_3 H 0.0302 0.2450 0.1348
C69_3 C 0.0764(6) 0.3920(3) 0.04814(13)
C70_3 C 0.0177(5) 0.2747(3) 0.11853(13)
H40_3 H 0.0589 0.3628 0.0440
H41_3 H 0.0294 0.3039 0.1227
C74_3 C 0.0651(7) 0.3998(4) 0.06182(16)
C79_3 C 0.0904(8) 0.4414(5) 0.06807(13)
H45_3 H 0.0822 0.4464 0.0769
C84_3 C 0.0077(4) 0.3735(2) 0.08054(5)
H50_3 H 0.0272 0.3765 0.0885
H55_3 H 0.0070 0.4023 0.0798
O11_2 O 0.27523(5) 0.61678(3) 0.041672(7)
O13_2 O 0.34155(4) 0.72477(3) 0.041672(7)
O14_2 O 0.38322(5) 0.65845(4) 0.041672(7)
O28_2 O 0.24495(5) 0.57297(3) 0.022506(7)
O29_3 O 0.00531(4) 0.09370(3) 0.144161(7)
O30 O 0.42703(5) 0.67198(4) 0.022506(7)
O43 O 0.33333(5) 0.66667(3) 0.013469(7)
O53_3 O 0.02818(5) 0.36755(3) 0.068348(7)
Zn3_2 Zn 0.33333(5) 0.66667(3) 0.033774(7)
Zn6_2 Zn 0.00000(5) 1.00000(3) 0.132893(7)
Zn10 Zn 0.38801(5) 0.66601(3) 0.006800(7)
Zn17_2 Zn 0.27800(4) 0.61199(3) 0.006800(7)
Zn18 Zn 0.33399(5) 0.72200(4) 0.006800(7)
O22_2 O 0.42754(4) 0.72313(3) 0.995902(7)
O40_2 O 0.36879(5) 0.61488(4) 0.993451(7)
Zn4_5 Zn -0.00000(5) 0.00000(3) 0.867107(7)
Zn4_6 Zn -0.00000(5) 1.00000(3) 0.867107(7)
Zn6_3 Zn 1.00000(5) -0.00000(3) 0.132893(7)
C27_2 C 0.4183(5) 0.6649(4) 0.03537(9)
C28_2 C 0.9150(5) 0.9133(3) 0.13130(9)
C30_3 C 0.9982(4) 0.0850(3) 0.13130(9)
C32_2 C 0.4544(7) 0.6613(6) 0.04343(12)
C33_2 C 0.8789(7) 0.8736(4) 0.12324(12)
C35_3 C 0.9946(6) 0.1211(4) 0.12324(12)
C37_2 C 0.4425(6) 0.6434(5) 0.05692(16)
C38_2 C 0.8908(6) 0.8676(4) 0.10975(16)
C40_3 C 0.9767(5) 0.1092(3) 0.10975(16)
H18_2 H 0.4134 0.6353 0.0605
H19_2 H 0.9199 0.8886 0.1062
H21_3 H 0.9686 0.0801 0.1062
C42_2 C 0.4748(10) 0.6379(8) 0.06495(12)
C43_2 C 0.8585(10) 0.8298(6) 0.10172(12)
C45_3 C 0.9712(8) 0.1415(6) 0.10172(12)
H23_2 H 0.4645 0.6237 0.0736
H24_2 H 0.8688 0.8259 0.0931
H26_3 H 0.9570 0.1312 0.0931
C47_2 C 0.5227(12) 0.6521(10) 0.06128(11)
C48_2 C 0.8106(12) 0.7961(7) 0.10539(11)
C50_3 C 0.9854(10) 0.1894(7) 0.10539(11)
C52_2 C 0.5297(7) 0.6703(6) 0.0472(2)
C53_2 C 0.8036(7) 0.8073(4) 0.1195(2)
C57_2 C 0.4963(9) 0.6735(8) 0.03837(9)
C58_2 C 0.8370(9) 0.8439(5) 0.12830(9)
H28_2 H 0.5040 0.6840 0.0293
H29_2 H 0.8293 0.8467 0.1374
C62_2 C 0.5732(9) 0.6857(8) 0.04103(9)
C63_2 C 0.7601(9) 0.7792(5) 0.12564(9)
H33_2 H 0.5783 0.6969 0.0319
H34_2 H 0.7550 0.7853 0.1348
C67_2 C 0.6080(6) 0.6844(5) 0.04814(13)
C68_2 C 0.7253(6) 0.7431(4) 0.11853(13)
H38_2 H 0.6372 0.6961 0.0440
H39_2 H 0.6961 0.7256 0.1227
C72_2 C 0.6002(7) 0.6653(6) 0.06182(16)
C73_2 C 0.7331(7) 0.7318(4) 0.10485(16)
C75_3 C 0.9986(6) 0.2669(4) 0.10485(16)
C77_2 C 0.5586(7) 0.6490(6) 0.06807(13)
C78_2 C 0.7747(7) 0.7571(4) 0.09860(13)
C80_3 C 0.9823(6) 0.2253(5) 0.09860(13)
H43_2 H 0.5536 0.6358 0.0769
H44_2 H 0.7797 0.7489 0.0898
H46_3 H 0.9691 0.2203 0.0898
C82_2 C 0.6265(4) 0.6342(3) 0.08054(5)
C83_2 C 0.7068(4) 0.6744(2) 0.08613(5)
C85_3 C 0.9675(3) 0.2932(2) 0.08613(5)
H48_2 H 0.6235 0.6507 0.0885
H49_2 H 0.7098 0.6939 0.0782
H51_3 H 0.9840 0.2902 0.0782
H53_2 H 0.5977 0.6047 0.0798
H54_2 H 0.7356 0.6737 0.0869
H56_3 H 0.9380 0.2644 0.0869
C86_2 C 0.6667(4) 0.6246(3) 0.0833
C87_3 C 0.9579(3) 0.3333 0.0833
C89_2 C 0.6742(5) 0.6038(4) 0.06998(5)
C90_2 C 0.6591(5) 0.5963(3) 0.09669(5)
C91_3 C 0.9296(5) 0.3258(3) 0.06998(5)
C92_3 C 0.9371(4) 0.3409(3) 0.09669(5)
H58_2 H 0.6810 0.6256 0.0624
H59_2 H 0.6523 0.6113 0.1043
H60_3 H 0.9446 0.3190 0.0624
H61_3 H 0.9589 0.3477 0.1043
H63_2 H 0.7010 0.5998 0.0712
H64_2 H 0.6323 0.5655 0.0955
H65_3 H 0.8988 0.2990 0.0712
H66_3 H 0.9331 0.3677 0.0955
C94_2 C 0.6386(5) 0.5371(4) 0.05739(5)
C95_2 C 0.6947(5) 0.5652(3) 0.10928(5)
C96_3 C 0.8985(4) 0.3614(2) 0.05739(5)
C97_3 C 0.8704(4) 0.3053(2) 0.10928(5)
C99_2 C 0.59800(39) 0.49507(35) 0.05487(6)
C100_2 C 0.73533(39) 0.56374(18) 0.11180(6)
C101_3 C 0.89707(46) 0.4020(3) 0.05487(6)
C102_3 C 0.82840(35) 0.2647(3) 0.11180(6)
H68_2 H 0.5714 0.4869 0.0601
H69_2 H 0.7619 0.5822 0.1066
H70_3 H 0.9155 0.4286 0.0601
H71_3 H 0.8202 0.2381 0.1066
C104_2 C 0.59732(28) 0.46527(23) 0.04457(7)
C105_2 C 0.73601(28) 0.53462(16) 0.12210(7)
C106_3 C 0.86795(28) 0.40268(16) 0.04457(7)
C107_3 C 0.79860(23) 0.26399(16) 0.12210(7)
H73_2 H 0.5702 0.4372 0.0429
H74_2 H 0.7631 0.5337 0.1238
H75_3 H 0.8670 0.4298 0.0429
H76_3 H 0.7705 0.2369 0.1238
C109_2 C 0.63720(34) 0.47750(27) 0.03680(5)
C110_2 C 0.69613(34) 0.5070(2) 0.12987(5)
C111_3 C 0.84030(32) 0.36280(18) 0.03680(5)
C112_3 C 0.81083(27) 0.30387(18) 0.12987(5)
C114_2 C 0.67770(31) 0.51946(26) 0.03932(5)
C115_2 C 0.65563(31) 0.50843(16) 0.12735(5)
C116_3 C 0.84176(33) 0.3223(2) 0.03932(5)
C117_3 C 0.85279(26) 0.3444(2) 0.12735(5)
C119_2 C 0.67845(29) 0.54927(23) 0.04962(6)
C120_2 C 0.65488(29) 0.53749(18) 0.11705(6)
C121_3 C 0.87082(27) 0.32155(14) 0.04962(6)
C122_3 C 0.88260(23) 0.34512(14) 0.11705(6)
H78_2 H 0.7056 0.5774 0.0513
H79_2 H 0.6277 0.5385 0.1154
H80_3 H 0.8718 0.2944 0.0513
H81_3 H 0.9107 0.3723 0.1154
C124_2 C 0.70804(5) 0.52181(4) 0.030381(7)
C125_2 C 0.62529(5) 0.48044(3) 0.136286(7)
C126_3 C 0.81377(5) 0.29196(3) 0.030381(7)
C127_3 C 0.85514(4) 0.37471(3) 0.136286(7)
H83_2 H 0.7363 0.5496 0.0308
H84_2 H 0.5970 0.4800 0.1359
H85_3 H 0.8133 0.2637 0.0308
H86_3 H 0.8829 0.4030 0.1359
C129_2 C 0.70711(5) 0.49135(4) 0.020277(7)
C130_2 C 0.62622(5) 0.45091(3) 0.146390(7)
C131_3 C 0.78424(5) 0.29289(3) 0.020277(7)
C132_3 C 0.82468(4) 0.37378(3) 0.146390(7)
H88_2 H 0.7336 0.4993 0.0150
H89_2 H 0.5997 0.4324 0.1517
H90_3 H 0.7657 0.2664 0.0150
H91_3 H 0.8326 0.4003 0.1517
C134_2 C 0.66667(5) 0.44894(4) 0.018089(7)
C135_2 C 0.66666(5) 0.44894(3) 0.148578(7)
C136_3 C 0.78227(5) 0.33333(3) 0.018089(7)
C137_3 C 0.78227(4) 0.33334(3) 0.148578(7)
C139_2 C 0.62715(5) 0.43699(4) 0.026006(7)
C140_2 C 0.70618(5) 0.47651(3) 0.140661(7)
C141_3 C 0.80984(5) 0.37285(3) 0.026006(7)
C142_3 C 0.77032(4) 0.29382(3) 0.140661(7)
H93_2 H 0.5995 0.4090 0.0248
H94_2 H 0.7338 0.4762 0.1419
H95_3 H 0.8095 0.4005 0.0248
H96_3 H 0.7423 0.2662 0.1419
C144_2 C 0.66793(5) 0.41209(4) 0.010296(7)
C145_2 C 0.66540(5) 0.41083(3) 0.156371(7)
C146_3 C 0.74416(5) 0.33207(3) 0.010296(7)
C147_3 C 0.74542(4) 0.33460(3) 0.156371(7)
O10_2 O 0.95011(5) 0.94190(3) 0.124995(7)
O12_3 O 0.99178(4) 0.04989(3) 0.124995(7)
O18_2 O 0.70441(5) 0.42754(4) 0.004098(7)
O19_2 O 0.62892(5) 0.38980(3) 0.162569(7)
O20_2 O 0.72313(5) 0.29559(3) 0.004098(7)
O21_3 O 0.76087(4) 0.37108(3) 0.162569(7)
O24_2 O 0.57246(4) 0.27687(3) 0.004098(7)
O27_2 O 0.90630(5) 0.91162(3) 0.144161(7)
O36_2 O 0.63121(5) 0.38512(4) 0.006549(7)
O37_2 O 0.70212(5) 0.42058(3) 0.160118(7)
O38_2 O 0.75391(5) 0.36879(3) 0.006549(7)
O39_3 O 0.71845(4) 0.29788(3) 0.160118(7)
O42_2 O 0.61488(4) 0.24609(3) 0.006549(7)
O46_2 O 0.63699(5) 0.56240(4) 0.066519(7)
O47_2 O 0.69634(5) 0.59208(3) 0.100148(7)
O48_3 O 0.92541(5) 0.36301(3) 0.066519(7)
O49_3 O 0.89573(4) 0.30366(3) 0.100148(7)
O51_2 O 0.63245(5) 0.66063(4) 0.068348(7)
O52_2 O 0.70088(5) 0.69485(3) 0.098319(7)
O54_3 O 0.99396(4) 0.29912(3) 0.098319(7)
Zn6_4 Zn 1.00000(5) 1.00000(3) 0.132893(7)
Zn13_2 Zn 0.66732(5) 0.27866(3) 0.173467(7)
Zn14_2 Zn 0.72134(5) 0.38867(4) 0.173467(7)
Zn15_2 Zn 0.61133(4) 0.33268(3) 0.173467(7)
Zn20_3 Zn 0.99934(5) 0.05468(3) 0.159867(7)
Zn21_2 Zn 0.94532(5) 0.94467(4) 0.159867(7)
C1_4 C 0.6649(4) 0.2466(3) 0.96463(9)
C2_4 C 0.6613(6) 0.2069(4) 0.95657(12)
C3_4 C 0.6434(5) 0.2009(4) 0.94308(16)
H1_4 H 0.6353 0.2219 0.9395
C4_4 C 0.6379(8) 0.1631(6) 0.93505(12)
H2_4 H 0.6237 0.1592 0.9264
C5_4 C 0.6521(10) 0.1294(7) 0.93872(11)
C6_4 C 0.6703(6) 0.1406(4) 0.9528(2)
C7_4 C 0.6735(8) 0.1772(5) 0.96163(9)
H3_4 H 0.6840 0.1800 0.9707
C8_4 C 0.6857(8) 0.1125(5) 0.95897(9)
H4_4 H 0.6969 0.1186 0.9681
C9_4 C 0.6844(5) 0.0764(4) 0.95186(13)
H5_4 H 0.6961 0.0589 0.9560
C10_4 C 0.6653(6) 0.0651(4) 0.93818(16)
C11_4 C 0.6490(6) 0.0904(4) 0.93193(13)
H6_4 H 0.6358 0.0822 0.9231
C12_4 C 0.6342(3) 0.0077(2) 0.91946(5)
H7_4 H 0.6507 0.0272 0.9115
H8_4 H 0.6047 0.0070 0.9202
O1_2 O 0.65845(4) 0.27523(3) 0.958328(7)
O3_2 O 0.67198(4) 0.24495(3) 0.977494(7)
O5_2 O 0.66666(4) 0.33333(3) 0.986531(7)
O7_4 O 0.66063(4) 0.02818(3) 0.931652(7)
Zn1_2 Zn 0.66666(4) 0.33333(3) 0.966226(7)
Zn2_2 Zn 0.72200(4) 0.38801(3) 0.993200(7)
C51_4 C 0.8073(7) 0.0036(6) 0.8805(2)
C56_4 C 0.8439(10) 0.0068(8) 0.87170(9)
H27_4 H 0.8467 0.0173 0.8626
C61_4 C 0.7792(10) 0.0190(8) 0.87436(9)
H32_4 H 0.7853 0.0302 0.8652
C66_4 C 0.7431(6) 0.0177(5) 0.88147(13)
H37_4 H 0.7256 0.0294 0.8773
O15_2 O 0.61678(5) 0.34155(4) 0.958328(7)
O16_2 O 0.72477(5) 0.38322(3) 0.958328(7)
O25_4 O 0.91162(5) 0.00531(4) 0.855839(7)
O32_2 O 0.57297(5) 0.32802(4) 0.977494(7)
O33_2 O 0.75505(5) 0.42703(3) 0.977494(7)
Zn4_7 Zn 1.00000(5) 0.00000(3) 0.867107(7)
Zn8_2 Zn 0.66601(5) 0.27800(4) 0.993200(7)
Zn9_2 Zn 0.61199(5) 0.33399(3) 0.993200(7)
O34_2 O 0.32802(4) 0.75505(3) 0.022506(7)
C13_4 C 0.6246(3) 0.9579(3) 0.9167
C14_4 C 0.6038(4) 0.9296(3) 0.93002(5)
H9_4 H 0.6256 0.9446 0.9376
H10_4 H 0.5998 0.8988 0.9288
C15_4 C 0.5371(4) 0.8985(3) 0.94261(5)
C16_4 C 0.49507(35) 0.89707(18) 0.94513(6)
H11_4 H 0.4869 0.9155 0.9399
C17_4 C 0.46527(23) 0.86795(16) 0.95543(7)
H12_4 H 0.4372 0.8670 0.9571
C18_4 C 0.47750(27) 0.8403(2) 0.96320(5)
C19_4 C 0.51946(26) 0.84176(16) 0.96068(5)
C20_4 C 0.54927(23) 0.87082(18) 0.95038(6)
H13_4 H 0.5774 0.8718 0.9487
C21_4 C 0.52181(4) 0.81377(3) 0.969619(7)
H14_4 H 0.5496 0.8133 0.9692
C22_4 C 0.49135(4) 0.78424(3) 0.979723(7)
H15_4 H 0.4993 0.7657 0.9850
C23_4 C 0.44894(4) 0.78227(3) 0.981911(7)
C24_4 C 0.43699(4) 0.80984(3) 0.973994(7)
H16_4 H 0.4090 0.8095 0.9752
C25_4 C 0.41209(4) 0.74416(3) 0.989704(7)
O4_2 O 0.38512(4) 0.75391(3) 0.993451(7)
O6_4 O 0.56240(4) 0.92541(3) 0.933481(7)
C26_4 C 0.9133(5) 0.9982(4) 0.86870(9)
C31_4 C 0.8736(7) 0.9946(6) 0.87676(12)
C36_4 C 0.8676(6) 0.9767(5) 0.89025(16)
H17_4 H 0.8886 0.9686 0.8938
C41_4 C 0.8298(10) 0.9712(8) 0.89828(12)
H22_4 H 0.8259 0.9570 0.9069
C46_4 C 0.7961(12) 0.9854(10) 0.89461(11)
C71_4 C 0.7318(7) 0.9986(6) 0.89515(16)
C76_4 C 0.7571(8) 0.9823(6) 0.90140(13)
H42_4 H 0.7489 0.9691 0.9102
C81_4 C 0.6744(4) 0.9675(3) 0.91387(5)
H47_4 H 0.6939 0.9840 0.9218
H52_4 H 0.6737 0.9380 0.9131
C88_4 C 0.5963(5) 0.9371(4) 0.90331(5)
H57_4 H 0.6113 0.9589 0.8957
H62_4 H 0.5655 0.9331 0.9045
C93_4 C 0.5652(4) 0.8704(4) 0.89072(5)
C98_4 C 0.56374(46) 0.82840(35) 0.88820(6)
H67_4 H 0.5822 0.8202 0.8934
C103_4 C 0.53462(28) 0.79860(23) 0.87790(7)
H72_4 H 0.5337 0.7705 0.8762
C108_4 C 0.50697(32) 0.81083(27) 0.87013(5)
C113_4 C 0.50843(33) 0.85279(26) 0.87265(5)
C118_4 C 0.53749(27) 0.88260(23) 0.88295(6)
H77_4 H 0.5385 0.9107 0.8846
C123_4 C 0.48044(5) 0.85514(4) 0.863714(7)
H82_4 H 0.4800 0.8829 0.8641
C128_4 C 0.45091(5) 0.82468(4) 0.853610(7)
H87_4 H 0.4324 0.8326 0.8483
C133_4 C 0.44894(5) 0.78227(4) 0.851422(7)
C138_4 C 0.47651(5) 0.77032(4) 0.859339(7)
H92_4 H 0.4762 0.7423 0.8581
C143_4 C 0.41083(5) 0.74542(4) 0.843629(7)
O8_4 O 0.94190(5) 0.99178(4) 0.875005(7)
O17_4 O 0.38980(5) 0.76087(4) 0.837431(7)
O23_2 O 0.27687(5) 0.70441(3) 0.995902(7)
O35_4 O 0.42058(5) 0.71845(4) 0.839882(7)
O45_4 O 0.59208(5) 0.89573(4) 0.899852(7)
O50_4 O 0.69485(5) 0.99396(4) 0.901681(7)
Zn4_8 Zn 1.00000(5) 1.00000(3) 0.867107(7)
Zn16_4 Zn 0.94467(4) 0.99934(3) 0.840133(7)
Zn22_2 Zn 0.33268(5) 0.72134(3) 0.826533(7)
Zn23_3 Zn 0.38867(4) 0.66732(3) 0.826533(7)
C30_4 C 0.0867(3) 0.0018(4) 0.13130(9)
C35_4 C 0.1264(4) 0.0054(6) 0.12324(12)
C40_4 C 0.1324(4) 0.0233(5) 0.10975(16)
H21_4 H 0.1114 0.0314 0.1062
C45_4 C 0.1702(6) 0.0288(8) 0.10172(12)
H26_4 H 0.1741 0.0430 0.0931
C50_4 C 0.2039(7) 0.0146(10) 0.10539(11)
C75_4 C 0.2682(4) 0.0014(6) 0.10485(16)
C80_4 C 0.2429(4) 0.0177(6) 0.09860(13)
H46_4 H 0.2511 0.0309 0.0898
C85_4 C 0.3256(2) 0.0325(3) 0.08613(5)
H51_4 H 0.3061 0.0160 0.0782
H56_4 H 0.3263 0.0620 0.0869
C87_4 C 0.3754(3) 0.0421(3) 0.0833
C91_4 C 0.3962(4) 0.0704(5) 0.06998(5)
C92_4 C 0.4037(3) 0.0629(4) 0.09669(5)
H60_4 H 0.3744 0.0554 0.0624
H61_4 H 0.3887 0.0411 0.1043
H65_4 H 0.4002 0.1012 0.0712
H66_4 H 0.4345 0.0669 0.0955
C96_4 C 0.4629(4) 0.1015(4) 0.05739(5)
C97_4 C 0.4348(3) 0.1296(4) 0.10928(5)
C101_4 C 0.50493(35) 0.10293(46) 0.05487(6)
C102_4 C 0.43626(18) 0.17160(35) 0.11180(6)
H70_4 H 0.5131 0.0845 0.0601
H71_4 H 0.4178 0.1798 0.1066
C106_4 C 0.53473(23) 0.13205(28) 0.04457(7)
C107_4 C 0.46538(16) 0.20140(23) 0.12210(7)
H75_4 H 0.5628 0.1330 0.0429
H76_4 H 0.4663 0.2295 0.1238
C111_4 C 0.52250(27) 0.15970(32) 0.03680(5)
C112_4 C 0.4930(2) 0.18917(27) 0.12987(5)
C116_4 C 0.48054(26) 0.15824(33) 0.03932(5)
C117_4 C 0.49157(16) 0.14721(26) 0.12735(5)
C121_4 C 0.45073(23) 0.12918(27) 0.04962(6)
C122_4 C 0.46251(18) 0.11740(23) 0.11705(6)
H80_4 H 0.4226 0.1282 0.0513
H81_4 H 0.4615 0.0893 0.1154
C126_4 C 0.47819(4) 0.18623(5) 0.030381(7)
C127_4 C 0.51956(3) 0.14486(4) 0.136286(7)
H85_4 H 0.4504 0.1867 0.0308
H86_4 H 0.5200 0.1171 0.1359
C131_4 C 0.50865(4) 0.21576(5) 0.020277(7)
C132_4 C 0.54909(3) 0.17532(4) 0.146390(7)
H90_4 H 0.5007 0.2343 0.0150
H91_4 H 0.5676 0.1674 0.1517
C136_4 C 0.55106(4) 0.21773(5) 0.018089(7)
C137_4 C 0.55106(3) 0.21773(4) 0.148578(7)
C141_4 C 0.56301(4) 0.19016(5) 0.026006(7)
C142_4 C 0.52349(3) 0.22968(4) 0.140661(7)
H95_4 H 0.5910 0.1905 0.0248
H96_4 H 0.5238 0.2577 0.1419
C146_4 C 0.58791(4) 0.25584(5) 0.010296(7)
C147_4 C 0.58917(3) 0.25458(4) 0.156371(7)
O12_4 O 0.05810(3) 0.00822(4) 0.124995(7)
O21_4 O 0.61020(3) 0.23913(4) 0.162569(7)
O39_4 O 0.57942(3) 0.28155(4) 0.160118(7)
O48_4 O 0.43760(4) 0.07459(5) 0.066519(7)
O49_4 O 0.40792(3) 0.10427(4) 0.100148(7)
O54_4 O 0.30515(3) 0.00604(4) 0.098319(7)
Zn20_4 Zn 0.05533(4) 0.00066(5) 0.159867(7)
C1_5 C 0.5817(3) 0.3351(4) 0.96463(9)
C2_5 C 0.5456(4) 0.3387(6) 0.95657(12)
C3_5 C 0.5575(3) 0.3566(5) 0.94308(16)
H1_5 H 0.5866 0.3647 0.9395
C4_5 C 0.5252(6) 0.3621(8) 0.93505(12)
H2_5 H 0.5355 0.3763 0.9264
C5_5 C 0.4773(7) 0.3479(10) 0.93872(11)
C6_5 C 0.4703(4) 0.3297(6) 0.9528(2)
C7_5 C 0.5037(6) 0.3265(8) 0.96163(9)
H3_5 H 0.4960 0.3160 0.9707
C8_5 C 0.4268(6) 0.3143(8) 0.95897(9)
H4_5 H 0.4217 0.3031 0.9681
C9_5 C 0.3920(3) 0.3156(5) 0.95186(13)
H5_5 H 0.3628 0.3039 0.9560
C10_5 C 0.3998(4) 0.3347(6) 0.93818(16)
C11_5 C 0.4414(5) 0.3510(6) 0.93193(13)
H6_5 H 0.4464 0.3642 0.9231
C12_5 C 0.3735(2) 0.3658(3) 0.91946(5)
H7_5 H 0.3765 0.3493 0.9115
H8_5 H 0.4023 0.3953 0.9202
C13_5 C 0.3333 0.3754(3) 0.9167
C14_5 C 0.3258(3) 0.3962(4) 0.93002(5)
H9_5 H 0.3190 0.3744 0.9376
H10_5 H 0.2990 0.4002 0.9288
C15_5 C 0.3614(2) 0.4629(4) 0.94261(5)
C16_5 C 0.4020(3) 0.50493(35) 0.94513(6)
H11_5 H 0.4286 0.5131 0.9399
C17_5 C 0.40268(16) 0.53473(23) 0.95543(7)
H12_5 H 0.4298 0.5628 0.9571
C18_5 C 0.36280(18) 0.52250(27) 0.96320(5)
C19_5 C 0.3223(2) 0.48054(26) 0.96068(5)
C20_5 C 0.32155(14) 0.45073(23) 0.95038(6)
H13_5 H 0.2944 0.4226 0.9487
C21_5 C 0.29196(3) 0.47819(4) 0.969619(7)
H14_5 H 0.2637 0.4504 0.9692
C22_5 C 0.29289(3) 0.50865(4) 0.979723(7)
H15_5 H 0.2664 0.5007 0.9850
C23_5 C 0.33333(3) 0.55106(4) 0.981911(7)
C24_5 C 0.37285(3) 0.56301(4) 0.973994(7)
H16_5 H 0.4005 0.5910 0.9752
C25_5 C 0.33207(3) 0.58791(4) 0.989704(7)
O2_2 O 0.29559(3) 0.57246(4) 0.995902(7)
O6_5 O 0.36301(3) 0.43760(4) 0.933481(7)
O7_5 O 0.36755(3) 0.33937(4) 0.931652(7)
C26_5 C 0.0850(3) 0.0867(5) 0.86870(9)
C31_5 C 0.1211(4) 0.1264(7) 0.87676(12)
C36_5 C 0.1092(3) 0.1324(6) 0.89025(16)
H17_5 H 0.0801 0.1114 0.8938
C41_5 C 0.1415(6) 0.1702(10) 0.89828(12)
H22_5 H 0.1312 0.1741 0.9069
C46_5 C 0.1894(7) 0.2039(12) 0.89461(11)
C51_5 C 0.1964(4) 0.1927(7) 0.8805(2)
C56_5 C 0.1630(6) 0.1561(10) 0.87170(9)
H27_5 H 0.1707 0.1533 0.8626
C61_5 C 0.2399(6) 0.2208(10) 0.87436(9)
H32_5 H 0.2450 0.2147 0.8652
C66_5 C 0.2747(3) 0.2569(6) 0.88147(13)
H37_5 H 0.3039 0.2744 0.8773
C71_5 C 0.2669(4) 0.2682(7) 0.89515(16)
C76_5 C 0.2253(5) 0.2429(8) 0.90140(13)
H42_5 H 0.2203 0.2511 0.9102
C81_5 C 0.2932(2) 0.3256(4) 0.91387(5)
H47_5 H 0.2902 0.3061 0.9218
H52_5 H 0.2644 0.3263 0.9131
C88_5 C 0.3409(3) 0.4037(5) 0.90331(5)
H57_5 H 0.3477 0.3887 0.8957
H62_5 H 0.3677 0.4345 0.9045
C93_5 C 0.3053(2) 0.4348(4) 0.89072(5)
C98_5 C 0.2647(3) 0.43626(46) 0.88820(6)
H67_5 H 0.2381 0.4178 0.8934
C103_5 C 0.26399(16) 0.46538(28) 0.87790(7)
H72_5 H 0.2369 0.4663 0.8762
C108_5 C 0.30387(18) 0.49303(32) 0.87013(5)
C113_5 C 0.3444(2) 0.49157(33) 0.87265(5)
C118_5 C 0.34512(14) 0.46251(27) 0.88295(6)
H77_5 H 0.3723 0.4615 0.8846
C123_5 C 0.37471(3) 0.51956(5) 0.863714(7)
H82_5 H 0.4030 0.5200 0.8641
C128_5 C 0.37378(3) 0.54909(5) 0.853610(7)
H87_5 H 0.4003 0.5676 0.8483
C133_5 C 0.33334(3) 0.55106(5) 0.851422(7)
C138_5 C 0.29382(3) 0.52349(5) 0.859339(7)
H92_5 H 0.2662 0.5238 0.8581
C143_5 C 0.33460(3) 0.58917(5) 0.843629(7)
O8_5 O 0.04989(3) 0.05810(5) 0.875005(7)
O17_5 O 0.37108(3) 0.61020(5) 0.837431(7)
O25_5 O 0.09370(3) 0.08838(5) 0.855839(7)
O35_5 O 0.29788(3) 0.57942(5) 0.839882(7)
O41_2 O 0.24609(3) 0.63121(5) 0.993451(7)
O45_5 O 0.30366(3) 0.40792(5) 0.899852(7)
O50_5 O 0.29912(3) 0.30515(5) 0.901681(7)
Zn16_5 Zn 0.05468(3) 0.05533(4) 0.840133(7)
Zn23_4 Zn 0.27866(3) 0.61133(4) 0.826533(7)
C29_4 C 0.3351(4) 0.7534(5) 0.03537(9)
C34_4 C 0.3387(6) 0.7931(7) 0.04343(12)
C39_4 C 0.3566(5) 0.7991(6) 0.05692(16)
H20_4 H 0.3647 0.7781 0.0605
C44_4 C 0.3621(8) 0.8369(10) 0.06495(12)
H25_4 H 0.3763 0.8408 0.0736
C49_4 C 0.3479(10) 0.8706(12) 0.06128(11)
C54_4 C 0.3297(6) 0.8594(7) 0.0472(2)
C55_4 C 0.1927(4) 0.9964(6) 0.1195(2)
C59_4 C 0.3265(8) 0.8228(10) 0.03837(9)
C60_4 C 0.1561(5) 0.9932(8) 0.12830(9)
H30_4 H 0.3160 0.8200 0.0293
H31_4 H 0.1533 0.9827 0.1374
C64_4 C 0.3143(8) 0.8875(10) 0.04103(9)
C65_4 C 0.2208(5) 0.9810(8) 0.12564(9)
H35_4 H 0.3031 0.8814 0.0319
H36_4 H 0.2147 0.9698 0.1348
C69_4 C 0.3156(5) 0.9236(6) 0.04814(13)
C70_4 C 0.2569(4) 0.9823(5) 0.11853(13)
H40_4 H 0.3039 0.9411 0.0440
H41_4 H 0.2744 0.9706 0.1227
C74_4 C 0.3347(6) 0.9349(7) 0.06182(16)
C79_4 C 0.3510(6) 0.9096(8) 0.06807(13)
H45_4 H 0.3642 0.9178 0.0769
C84_4 C 0.3658(3) 0.9923(4) 0.08054(5)
H50_4 H 0.3493 0.9728 0.0885
H55_4 H 0.3953 0.9930 0.0798
O29_4 O 0.08838(3) 0.99469(4) 0.144161(7)
O53_4 O 0.33937(4) 0.97182(5) 0.068348(7)
C13_6 C 0.0421(3) 0.6667 0.9167
C14_6 C 0.0704(3) 0.6742(3) 0.93002(5)
H9_6 H 0.0554 0.6810 0.9376
H10_6 H 0.1012 0.7010 0.9288
C15_6 C 0.1015(3) 0.6386(2) 0.94261(5)
C16_6 C 0.10293(18) 0.5980(3) 0.94513(6)
H11_6 H 0.0845 0.5714 0.9399
C17_6 C 0.13205(16) 0.59732(16) 0.95543(7)
H12_6 H 0.1330 0.5702 0.9571
C18_6 C 0.1597(2) 0.63720(18) 0.96320(5)
C19_6 C 0.15824(16) 0.6777(2) 0.96068(5)
C20_6 C 0.12918(18) 0.67845(14) 0.95038(6)
H13_6 H 0.1282 0.7056 0.9487
C21_6 C 0.18623(3) 0.70804(3) 0.969619(7)
H14_6 H 0.1867 0.7363 0.9692
C22_6 C 0.21576(3) 0.70711(3) 0.979723(7)
H15_6 H 0.2343 0.7336 0.9850
C23_6 C 0.21773(3) 0.66667(3) 0.981911(7)
C24_6 C 0.19016(3) 0.62715(3) 0.973994(7)
H16_6 H 0.1905 0.5995 0.9752
C25_6 C 0.25584(3) 0.66793(3) 0.989704(7)
O6_6 O 0.07459(3) 0.63699(3) 0.933481(7)
C26_6 C 0.0018(4) 0.9150(3) 0.86870(9)
C31_6 C 0.0054(6) 0.8789(4) 0.87676(12)
C36_6 C 0.0233(5) 0.8908(3) 0.89025(16)
H17_6 H 0.0314 0.9199 0.8938
C41_6 C 0.0288(8) 0.8585(6) 0.89828(12)
H22_6 H 0.0430 0.8688 0.9069
C46_6 C 0.0146(10) 0.8106(7) 0.89461(11)
C71_6 C 0.0014(6) 0.7331(4) 0.89515(16)
C76_6 C 0.0177(6) 0.7747(5) 0.90140(13)
H42_6 H 0.0309 0.7797 0.9102
C81_6 C 0.0325(3) 0.7068(2) 0.91387(5)
H47_6 H 0.0160 0.7098 0.9218
H52_6 H 0.0620 0.7356 0.9131
C88_6 C 0.0629(4) 0.6591(3) 0.90331(5)
H57_6 H 0.0411 0.6523 0.8957
H62_6 H 0.0669 0.6323 0.9045
C93_6 C 0.1296(4) 0.6947(2) 0.89072(5)
C98_6 C 0.17160(35) 0.7353(3) 0.88820(6)
H67_6 H 0.1798 0.7619 0.8934
C103_6 C 0.20140(23) 0.73601(16) 0.87790(7)
H72_6 H 0.2295 0.7631 0.8762
C108_6 C 0.18917(27) 0.69613(18) 0.87013(5)
C113_6 C 0.14721(26) 0.6556(2) 0.87265(5)
C118_6 C 0.11740(23) 0.65488(14) 0.88295(6)
H77_6 H 0.0893 0.6277 0.8846
C123_6 C 0.14486(4) 0.62529(3) 0.863714(7)
H82_6 H 0.1171 0.5970 0.8641
C128_6 C 0.17532(4) 0.62622(3) 0.853610(7)
H87_6 H 0.1674 0.5997 0.8483
C133_6 C 0.21773(4) 0.66666(3) 0.851422(7)
C138_6 C 0.22968(4) 0.70618(3) 0.859339(7)
H92_6 H 0.2577 0.7338 0.8581
C143_6 C 0.25458(4) 0.66540(3) 0.843629(7)
O8_6 O 0.00822(4) 0.95011(3) 0.875005(7)
O17_6 O 0.23913(4) 0.62892(3) 0.837431(7)
O35_6 O 0.28155(4) 0.70212(3) 0.839882(7)
O45_6 O 0.10427(4) 0.69634(3) 0.899852(7)
O50_6 O 0.00604(4) 0.70088(3) 0.901681(7)
Zn16_6 Zn 0.00066(3) 0.94532(3) 0.840133(7)
C1_6 C 0.7534(3) 0.4183(3) 0.96463(9)
C2_6 C 0.7931(4) 0.4544(4) 0.95657(12)
C3_6 C 0.7991(4) 0.4425(3) 0.94308(16)
H1_6 H 0.7781 0.4134 0.9395
C4_6 C 0.8369(6) 0.4748(6) 0.93505(12)
H2_6 H 0.8408 0.4645 0.9264
C5_6 C 0.8706(7) 0.5227(7) 0.93872(11)
C6_6 C 0.8594(4) 0.5297(4) 0.9528(2)
C7_6 C 0.8228(5) 0.4963(6) 0.96163(9)
H3_6 H 0.8200 0.5040 0.9707
C8_6 C 0.8875(5) 0.5732(6) 0.95897(9)
H4_6 H 0.8814 0.5783 0.9681
C9_6 C 0.9236(4) 0.6080(3) 0.95186(13)
H5_6 H 0.9411 0.6372 0.9560
C10_6 C 0.9349(4) 0.6002(4) 0.93818(16)
C11_6 C 0.9096(4) 0.5586(5) 0.93193(13)
H6_6 H 0.9178 0.5536 0.9231
C12_6 C 0.9923(2) 0.6265(2) 0.91946(5)
H7_6 H 0.9728 0.6235 0.9115
H8_6 H 0.9930 0.5977 0.9202
O7_6 O 0.97182(3) 0.63245(3) 0.931652(7)
C51_6 C 0.9964(6) 0.8036(4) 0.8805(2)
C56_6 C 0.9932(8) 0.8370(6) 0.87170(9)
H27_6 H 0.9827 0.8293 0.8626
C61_6 C 0.9810(8) 0.7601(6) 0.87436(9)
H32_6 H 0.9698 0.7550 0.8652
C66_6 C 0.9823(5) 0.7253(3) 0.88147(13)
H37_6 H 0.9706 0.6961 0.8773
O25_6 O 0.99469(4) 0.90630(3) 0.855839(7)
O5_3 O -0.00000(3) 0.00000(3) 0.846802(7)
C30_5 C 0.5799(3) 0.2484(3) 0.70204(9)
C35_5 C 0.5402(4) 0.2123(4) 0.71010(12)
C40_5 C 0.5342(4) 0.2242(3) 0.72359(16)
H21_5 H 0.5552 0.2533 0.7272
C45_5 C 0.4964(6) 0.1919(6) 0.73162(12)
H26_5 H 0.4925 0.2022 0.7403
C50_5 C 0.4627(7) 0.1440(7) 0.72795(11)
C55_5 C 0.4739(4) 0.1370(4) 0.7139(2)
C60_5 C 0.5105(5) 0.1704(6) 0.70504(9)
H31_5 H 0.5133 0.1627 0.6960
C65_5 C 0.4458(5) 0.0935(6) 0.70770(9)
H36_5 H 0.4519 0.0884 0.6986
C70_5 C 0.4097(4) 0.0587(3) 0.71481(13)
H41_5 H 0.3922 0.0295 0.7107
C75_5 C 0.3984(4) 0.0665(4) 0.72849(16)
C80_5 C 0.4237(4) 0.1081(5) 0.73474(13)
H46_5 H 0.4155 0.1131 0.7436
C85_5 C 0.3410(2) 0.0402(2) 0.74721(5)
H51_5 H 0.3605 0.0432 0.7552
H56_5 H 0.3403 0.0690 0.7465
C87_5 C 0.2913(3) 0.0000 0.7500
C91_5 C 0.2705(4) 0.0075(3) 0.76335(5)
H60_5 H 0.2923 0.0143 0.7709
H65_5 H 0.2665 0.0343 0.7621
C97_5 C 0.2318(3) 0.0281(2) 0.72406(5)
C102_5 C 0.23040(18) 0.0687(3) 0.72154(6)
H71_5 H 0.2488 0.0953 0.7268
C107_5 C 0.20128(16) 0.06935(16) 0.71124(7)
H76_5 H 0.2003 0.0965 0.7096
C112_5 C 0.1736(2) 0.02947(18) 0.70347(5)
C116_5 C 0.18613(26) 0.0110(2) 0.79401(5)
C121_5 C 0.21594(23) 0.01178(14) 0.78371(6)
H80_5 H 0.2441 0.0389 0.7820
C126_5 C 0.18848(4) 0.04137(3) 0.802952(7)
H85_5 H 0.2163 0.0696 0.8025
C131_5 C 0.15802(4) 0.04044(3) 0.813056(7)
H90_5 H 0.1660 0.0669 0.8183
C136_5 C 0.11561(4) 0.00000(3) 0.815244(7)
C137_5 C 0.11560(3) -0.00000(3) 0.684756(7)
C142_5 C 0.14317(3) 0.03952(3) 0.692673(7)
H96_5 H 0.1428 0.0672 0.6915
C146_5 C 0.07876(4) 0.00126(3) 0.823037(7)
O12_5 O 0.60856(3) 0.28345(3) 0.708339(7)
O20_3 O 0.09421(4) 0.03774(3) 0.829235(7)
O29_5 O 0.57828(3) 0.23964(3) 0.689173(7)
O31_2 O 0.42172(3) 0.66135(4) 0.810827(7)
O34_3 O 0.23964(3) 0.57828(3) 0.810827(7)
O39_5 O 0.08724(3) 0.03546(3) 0.673216(7)
O42_3 O 0.03546(3) 0.08724(3) 0.826784(7)
O44_2 O 0.33334(3) 0.66667(4) 0.819864(7)
O49_5 O 0.25874(3) 0.02968(3) 0.733186(7)
O54_5 O 0.36151(3) 0.03422(3) 0.735015(7)
Zn7_5 Zn 0.66667(4) 0.33334(3) 0.700441(7)
O5_4 O -0.00000(3) 1.00000(3) 0.846802(7)
C29_5 C 0.3316(4) 0.7516(3) 0.79796(9)
C34_5 C 0.3280(6) 0.7877(4) 0.78990(12)
C39_5 C 0.3101(5) 0.7758(3) 0.77641(16)
H20_5 H 0.3020 0.7467 0.7728
C44_5 C 0.3046(8) 0.8081(6) 0.76838(12)
H25_5 H 0.2904 0.7978 0.7597
C49_5 C 0.3188(10) 0.8560(7) 0.77205(11)
C54_5 C 0.3370(6) 0.8630(4) 0.7861(2)
C59_5 C 0.3402(8) 0.8296(6) 0.79496(9)
H30_5 H 0.3507 0.8373 0.8040
C64_5 C 0.3524(8) 0.9065(6) 0.79230(9)
H35_5 H 0.3636 0.9116 0.8014
C69_5 C 0.3511(5) 0.9413(3) 0.78519(13)
H40_5 H 0.3628 0.9705 0.7893
C74_5 C 0.3320(6) 0.9335(4) 0.77151(16)
C79_5 C 0.3157(6) 0.8919(5) 0.76526(13)
H45_5 H 0.3025 0.8869 0.7564
C84_5 C 0.3009(3) 0.9598(2) 0.75279(5)
H50_5 H 0.3174 0.9568 0.7448
H55_5 H 0.2714 0.9310 0.7535
C92_5 C 0.2629(3) 0.9925(3) 0.73665(5)
H61_5 H 0.2779 0.9857 0.7291
H66_5 H 0.2321 0.9657 0.7379
C96_5 C 0.2038(4) 0.9719(2) 0.77594(5)
C101_5 C 0.16174(35) 0.9313(3) 0.77846(6)
H70_5 H 0.1536 0.9047 0.7732
C106_5 C 0.13194(23) 0.93065(16) 0.78876(7)
H75_5 H 0.1039 0.9035 0.7904
C111_5 C 0.14417(27) 0.97053(18) 0.79653(5)
C117_5 C 0.17509(16) 0.9890(2) 0.70599(5)
C122_5 C 0.20415(18) 0.98822(14) 0.71629(6)
H81_5 H 0.2051 0.9611 0.7180
C127_5 C 0.14710(3) 0.95863(3) 0.697048(7)
H86_5 H 0.1466 0.9304 0.6975
C132_5 C 0.11757(3) 0.95956(3) 0.686944(7)
H91_5 H 0.0990 0.9331 0.6817
C136_6 C 0.11561(4) 1.00000(3) 0.815244(7)
C137_6 C 0.11560(3) 1.00000(3) 0.684756(7)
C141_5 C 0.10366(4) 0.96048(3) 0.807327(7)
H95_5 H 0.0757 0.9328 0.8085
C147_5 C 0.07749(3) 0.99874(3) 0.676963(7)
O11_3 O 0.32512(4) 0.71655(3) 0.791661(7)
O13_3 O 0.28345(3) 0.60856(3) 0.791661(7)
O14_3 O 0.39144(3) 0.67488(4) 0.791661(7)
O21_5 O 0.05646(3) 0.96226(3) 0.670765(7)
O28_3 O 0.33865(4) 0.76036(3) 0.810827(7)
O38_3 O 0.05179(4) 0.96454(3) 0.826784(7)
O48_5 O 0.22907(4) 0.97032(3) 0.766814(7)
O53_5 O 0.32730(4) 0.96578(3) 0.764985(7)
Zn3_3 Zn 0.33333(4) 0.66666(3) 0.799559(7)
O5_5 O 1.00000(3) 0.00000(3) 0.846802(7)
O24_3 O 0.96226(3) 0.05646(3) 0.829235(7)
O5_6 O 1.00000(3) 1.00000(3) 0.846802(7)
C27_3 C 0.4201(3) 0.6684(4) 0.79796(9)
C28_3 C 0.6684(4) 0.4201(3) 0.70204(9)
C32_3 C 0.4598(4) 0.6720(6) 0.78990(12)
C33_3 C 0.6720(6) 0.4598(4) 0.71010(12)
C37_3 C 0.4658(4) 0.6899(5) 0.77641(16)
C38_3 C 0.6899(5) 0.4658(4) 0.72359(16)
H18_3 H 0.4448 0.6980 0.7728
H19_3 H 0.6980 0.4448 0.7272
C42_3 C 0.5036(6) 0.6954(8) 0.76838(12)
C43_3 C 0.6954(8) 0.5036(6) 0.73162(12)
H23_3 H 0.5075 0.7096 0.7597
H24_3 H 0.7096 0.5075 0.7403
C47_3 C 0.5373(7) 0.6812(10) 0.77205(11)
C48_3 C 0.6812(10) 0.5373(7) 0.72795(11)
C52_3 C 0.5261(4) 0.6630(6) 0.7861(2)
C53_3 C 0.6630(6) 0.5261(4) 0.7139(2)
C57_3 C 0.4895(5) 0.6598(8) 0.79496(9)
C58_3 C 0.6598(8) 0.4895(5) 0.70504(9)
H28_3 H 0.4867 0.6493 0.8040
H29_3 H 0.6493 0.4867 0.6960
C62_3 C 0.5542(5) 0.6476(8) 0.79230(9)
C63_3 C 0.6476(8) 0.5542(5) 0.70770(9)
H33_3 H 0.5481 0.6364 0.8014
H34_3 H 0.6364 0.5481 0.6986
C67_3 C 0.5903(4) 0.6489(5) 0.78519(13)
C68_3 C 0.6489(5) 0.5903(4) 0.71481(13)
H38_3 H 0.6078 0.6372 0.7893
H39_3 H 0.6372 0.6078 0.7107
C72_3 C 0.6016(4) 0.6680(6) 0.77151(16)
C73_3 C 0.6680(6) 0.6016(4) 0.72849(16)
C77_3 C 0.5763(4) 0.6843(6) 0.76526(13)
C78_3 C 0.6843(6) 0.5763(4) 0.73474(13)
H43_3 H 0.5845 0.6975 0.7564
H44_3 H 0.6975 0.5845 0.7436
C82_3 C 0.6590(2) 0.6991(3) 0.75279(5)
C83_3 C 0.6991(3) 0.6590(2) 0.74721(5)
H48_3 H 0.6395 0.6826 0.7448
H49_3 H 0.6826 0.6395 0.7552
H53_3 H 0.6597 0.7286 0.7535
H54_3 H 0.7286 0.6597 0.7465
C86_3 C 0.7088(3) 0.7087(3) 0.7500
C89_3 C 0.7371(3) 0.7295(4) 0.76335(5)
C90_3 C 0.7295(4) 0.7371(3) 0.73665(5)
H58_3 H 0.7221 0.7077 0.7709
H59_3 H 0.7077 0.7221 0.7291
H63_3 H 0.7679 0.7335 0.7621
H64_3 H 0.7335 0.7679 0.7379
C94_3 C 0.7682(3) 0.7962(4) 0.77594(5)
C95_3 C 0.7962(4) 0.7682(3) 0.72406(5)
C99_3 C 0.76960(18) 0.83826(35) 0.77846(6)
C100_3 C 0.83826(35) 0.76960(18) 0.72154(6)
H68_3 H 0.7512 0.8464 0.7732
H69_3 H 0.8464 0.7512 0.7268
C104_3 C 0.79872(16) 0.86806(23) 0.78876(7)
C105_3 C 0.86806(23) 0.79872(16) 0.71124(7)
H73_3 H 0.7997 0.8961 0.7904
H74_3 H 0.8961 0.7997 0.7096
C109_3 C 0.8264(2) 0.85583(27) 0.79653(5)
C110_3 C 0.85583(27) 0.8264(2) 0.70347(5)
C114_3 C 0.82491(16) 0.81387(26) 0.79401(5)
C115_3 C 0.81387(26) 0.82491(16) 0.70599(5)
C119_3 C 0.79585(18) 0.78406(23) 0.78371(6)
C120_3 C 0.78406(23) 0.79585(18) 0.71629(6)
H78_3 H 0.7949 0.7559 0.7820
H79_3 H 0.7559 0.7949 0.7180
C124_3 C 0.85290(3) 0.81152(4) 0.802952(7)
C125_3 C 0.81152(4) 0.85290(3) 0.697048(7)
H83_3 H 0.8534 0.7837 0.8025
H84_3 H 0.7837 0.8534 0.6975
C129_3 C 0.88243(3) 0.84198(4) 0.813056(7)
C130_3 C 0.84198(4) 0.88243(3) 0.686944(7)
H88_3 H 0.9010 0.8340 0.8183
H89_3 H 0.8340 0.9010 0.6817
C134_3 C 0.88440(3) 0.88439(4) 0.815244(7)
C135_3 C 0.88439(4) 0.88440(3) 0.684756(7)
C139_3 C 0.85683(3) 0.89634(4) 0.807327(7)
C140_3 C 0.89634(4) 0.85683(3) 0.692673(7)
H93_3 H 0.8572 0.9243 0.8085
H94_3 H 0.9243 0.8572 0.6915
C144_3 C 0.92251(3) 0.92124(4) 0.823037(7)
C145_3 C 0.92124(4) 0.92251(3) 0.676963(7)
O10_3 O 0.67488(4) 0.39144(3) 0.708339(7)
O18_3 O 0.94354(3) 0.90579(4) 0.829235(7)
O19_3 O 0.90579(4) 0.94354(3) 0.670765(7)
O27_3 O 0.66135(4) 0.42172(3) 0.689173(7)
O36_3 O 0.91276(3) 0.94821(4) 0.826784(7)
O37_3 O 0.94821(4) 0.91276(3) 0.673216(7)
O46_3 O 0.74126(3) 0.77093(4) 0.766814(7)
O47_3 O 0.77093(4) 0.74126(3) 0.733186(7)
O51_3 O 0.63849(3) 0.67270(4) 0.764985(7)
O52_3 O 0.67270(4) 0.63849(3) 0.735015(7)
C29_6 C 0.2484(3) 0.5799(5) 0.79796(9)
C34_6 C 0.2123(4) 0.5402(7) 0.78990(12)
C39_6 C 0.2242(3) 0.5342(6) 0.77641(16)
H20_6 H 0.2533 0.5552 0.7728
C44_6 C 0.1919(6) 0.4964(10) 0.76838(12)
H25_6 H 0.2022 0.4925 0.7597
C49_6 C 0.1440(7) 0.4627(12) 0.77205(11)
C54_6 C 0.1370(4) 0.4739(7) 0.7861(2)
C59_6 C 0.1704(6) 0.5105(10) 0.79496(9)
H30_6 H 0.1627 0.5133 0.8040
C64_6 C 0.0935(6) 0.4458(10) 0.79230(9)
H35_6 H 0.0884 0.4519 0.8014
C69_6 C 0.0587(3) 0.4097(6) 0.78519(13)
H40_6 H 0.0295 0.3922 0.7893
C74_6 C 0.0665(4) 0.3984(7) 0.77151(16)
C79_6 C 0.1081(5) 0.4237(8) 0.76526(13)
H45_6 H 0.1131 0.4155 0.7564
C84_6 C 0.0402(2) 0.3410(4) 0.75279(5)
H50_6 H 0.0432 0.3605 0.7448
H55_6 H 0.0690 0.3403 0.7535
C92_6 C 0.0075(3) 0.2705(4) 0.73665(5)
H61_6 H 0.0143 0.2923 0.7291
H66_6 H 0.0343 0.2665 0.7379
C96_6 C 0.0281(2) 0.2318(4) 0.77594(5)
C101_6 C 0.0687(3) 0.23040(46) 0.77846(6)
H70_6 H 0.0953 0.2488 0.7732
C106_6 C 0.06935(16) 0.20128(28) 0.78876(7)
H75_6 H 0.0965 0.2003 0.7904
C111_6 C 0.02947(18) 0.17363(32) 0.79653(5)
C117_6 C 0.0110(2) 0.18613(26) 0.70599(5)
C122_6 C 0.01178(14) 0.21594(23) 0.71629(6)
H81_6 H 0.0389 0.2441 0.7180
C127_6 C 0.04137(3) 0.18848(4) 0.697048(7)
H86_6 H 0.0696 0.2163 0.6975
C132_6 C 0.04044(3) 0.15802(4) 0.686944(7)
H91_6 H 0.0669 0.1660 0.6817
C136_7 C -0.00000(3) 0.11560(5) 0.815244(7)
C137_7 C 0.00000(3) 0.11561(4) 0.684756(7)
C141_6 C 0.03952(3) 0.14317(5) 0.807327(7)
H95_6 H 0.0672 0.1428 0.8085
C147_6 C 0.00126(3) 0.07876(4) 0.676963(7)
O21_6 O 0.03774(3) 0.09421(4) 0.670765(7)
O48_6 O 0.02968(3) 0.25874(5) 0.766814(7)
O53_6 O 0.03422(3) 0.36151(5) 0.764985(7)
C30_6 C 0.7516(3) 0.3316(4) 0.70204(9)
C35_6 C 0.7877(4) 0.3280(6) 0.71010(12)
C40_6 C 0.7758(3) 0.3101(5) 0.72359(16)
H21_6 H 0.7467 0.3020 0.7272
C45_6 C 0.8081(6) 0.3046(8) 0.73162(12)
H26_6 H 0.7978 0.2904 0.7403
C50_6 C 0.8560(7) 0.3188(10) 0.72795(11)
C55_6 C 0.8630(4) 0.3370(6) 0.7139(2)
C60_6 C 0.8296(6) 0.3402(8) 0.70504(9)
H31_6 H 0.8373 0.3507 0.6960
C65_6 C 0.9065(6) 0.3524(8) 0.70770(9)
H36_6 H 0.9116 0.3636 0.6986
C70_6 C 0.9413(3) 0.3511(5) 0.71481(13)
H41_6 H 0.9705 0.3628 0.7107
C75_6 C 0.9335(4) 0.3320(6) 0.72849(16)
C80_6 C 0.8919(5) 0.3157(6) 0.73474(13)
H46_6 H 0.8869 0.3025 0.7436
C85_6 C 0.9598(2) 0.3009(3) 0.74721(5)
H51_6 H 0.9568 0.3174 0.7552
H56_6 H 0.9310 0.2714 0.7465
C87_6 C 1.0000 0.2912(3) 0.7500
C91_6 C 0.9925(3) 0.2629(5) 0.76335(5)
H60_6 H 0.9857 0.2779 0.7709
H65_6 H 0.9657 0.2321 0.7621
C97_6 C 0.9719(2) 0.2038(4) 0.72406(5)
C102_6 C 0.9313(3) 0.16174(35) 0.72154(6)
H71_6 H 0.9047 0.1536 0.7268
C107_6 C 0.93065(16) 0.13194(23) 0.71124(7)
H76_6 H 0.9035 0.1039 0.7096
C112_6 C 0.97053(18) 0.14417(27) 0.70347(5)
C116_6 C 0.9890(2) 0.17509(33) 0.79401(5)
C121_6 C 0.98822(14) 0.20415(27) 0.78371(6)
H80_6 H 0.9611 0.2051 0.7820
C126_6 C 0.95863(3) 0.14710(5) 0.802952(7)
H85_6 H 0.9304 0.1466 0.8025
C131_6 C 0.95956(3) 0.11757(5) 0.813056(7)
H90_6 H 0.9331 0.0990 0.8183
C136_8 C 1.00000(3) 0.11560(5) 0.815244(7)
C137_8 C 1.00000(3) 0.11561(4) 0.684756(7)
C142_6 C 0.96048(3) 0.10366(4) 0.692673(7)
H96_6 H 0.9328 0.0757 0.6915
C146_6 C 0.99874(3) 0.07749(5) 0.823037(7)
O12_6 O 0.71655(3) 0.32512(4) 0.708339(7)
O29_6 O 0.76036(3) 0.33865(4) 0.689173(7)
O39_6 O 0.96454(3) 0.05179(4) 0.673216(7)
O49_6 O 0.97032(3) 0.22907(4) 0.733186(7)
O54_6 O 0.96578(3) 0.32730(4) 0.735015(7)
O22_3 O 0.09421(4) 0.05646(3) 0.329235(7)
O43_2 O -0.00000(5) 0.00000(3) 0.346802(7)
O40_3 O 0.03546(5) 0.94821(4) 0.326784(7)
O43_3 O -0.00000(5) 1.00000(3) 0.346802(7)
O43_4 O 1.00000(5) 0.00000(3) 0.346802(7)
C1_7 C 0.3316(4) 0.5799(3) 0.29796(9)
C2_7 C 0.3280(6) 0.5402(4) 0.28990(12)
C3_7 C 0.3101(5) 0.5342(4) 0.27641(16)
H1_7 H 0.3020 0.5552 0.2728
C4_7 C 0.3046(8) 0.4964(6) 0.26838(12)
H2_7 H 0.2904 0.4925 0.2597
C5_7 C 0.3188(10) 0.4627(7) 0.27205(11)
C6_7 C 0.3370(6) 0.4739(4) 0.2861(2)
C7_7 C 0.3402(8) 0.5105(5) 0.29496(9)
H3_7 H 0.3507 0.5133 0.3040
C8_7 C 0.3524(8) 0.4458(5) 0.29230(9)
H4_7 H 0.3636 0.4519 0.3014
C9_7 C 0.3511(5) 0.4097(4) 0.28519(13)
H5_7 H 0.3628 0.3922 0.2893
C10_7 C 0.3320(6) 0.3984(4) 0.27151(16)
C11_7 C 0.3157(6) 0.4237(4) 0.26526(13)
H6_7 H 0.3025 0.4155 0.2564
C12_7 C 0.3009(3) 0.3410(2) 0.25279(5)
H7_7 H 0.3174 0.3605 0.2448
H8_7 H 0.2714 0.3403 0.2535
C13_7 C 0.2913(3) 0.2912(3) 0.2500
C14_7 C 0.2705(4) 0.2629(3) 0.26335(5)
H9_7 H 0.2923 0.2779 0.2709
H10_7 H 0.2665 0.2321 0.2621
C15_7 C 0.2038(4) 0.2318(3) 0.27594(5)
C16_7 C 0.16174(35) 0.23040(18) 0.27846(6)
H11_7 H 0.1536 0.2488 0.2732
C17_7 C 0.13194(23) 0.20128(16) 0.28876(7)
H12_7 H 0.1039 0.2003 0.2904
C18_7 C 0.14417(27) 0.1736(2) 0.29653(5)
C19_7 C 0.18613(26) 0.17509(16) 0.29401(5)
C20_7 C 0.21594(23) 0.20415(18) 0.28371(6)
H13_7 H 0.2441 0.2051 0.2820
C21_7 C 0.18848(4) 0.14710(3) 0.302952(7)
H14_7 H 0.2163 0.1466 0.3025
C22_7 C 0.15802(4) 0.11757(3) 0.313056(7)
H15_7 H 0.1660 0.0990 0.3183
C23_7 C 0.11561(4) 0.11560(3) 0.315244(7)
C24_7 C 0.10366(4) 0.14317(3) 0.307327(7)
H16_7 H 0.0757 0.1428 0.3085
C25_7 C 0.07876(4) 0.07749(3) 0.323037(7)
O1_3 O 0.32512(4) 0.60856(3) 0.291661(7)
O3_3 O 0.33865(4) 0.57828(3) 0.310827(7)
O4_3 O 0.05179(4) 0.08724(3) 0.326784(7)
O5_7 O 0.33333(4) 0.66666(3) 0.319864(7)
O6_7 O 0.22907(4) 0.25874(3) 0.266814(7)
O7_7 O 0.32730(4) 0.36151(3) 0.264985(7)
Zn1_3 Zn 0.33333(4) 0.66666(3) 0.299559(7)
C26_7 C 0.5799(5) 0.3316(4) 0.20204(9)
C31_7 C 0.5402(7) 0.3280(6) 0.21010(12)
C36_7 C 0.5342(6) 0.3101(5) 0.22359(16)
H17_7 H 0.5552 0.3020 0.2272
C41_7 C 0.4964(10) 0.3046(8) 0.23162(12)
H22_7 H 0.4925 0.2904 0.2403
C46_7 C 0.4627(12) 0.3188(10) 0.22795(11)
C51_7 C 0.4739(7) 0.3370(6) 0.2139(2)
C56_7 C 0.5105(10) 0.3402(8) 0.20504(9)
H27_7 H 0.5133 0.3507 0.1960
C61_7 C 0.4458(10) 0.3524(8) 0.20770(9)
H32_7 H 0.4519 0.3636 0.1986
C66_7 C 0.4097(6) 0.3511(5) 0.21481(13)
H37_7 H 0.3922 0.3628 0.2107
C71_7 C 0.3984(7) 0.3320(6) 0.22849(16)
C76_7 C 0.4237(8) 0.3157(6) 0.23474(13)
H42_7 H 0.4155 0.3025 0.2436
C81_7 C 0.3410(4) 0.3009(3) 0.24721(5)
H47_7 H 0.3605 0.3174 0.2552
H52_7 H 0.3403 0.2714 0.2465
C88_7 C 0.2629(5) 0.2705(4) 0.23665(5)
H57_7 H 0.2779 0.2923 0.2291
H62_7 H 0.2321 0.2665 0.2379
C93_7 C 0.2318(4) 0.2038(4) 0.22406(5)
C98_7 C 0.23040(46) 0.16174(35) 0.22154(6)
H67_7 H 0.2488 0.1536 0.2268
C103_7 C 0.20128(28) 0.13194(23) 0.21124(7)
H72_7 H 0.2003 0.1039 0.2096
C108_7 C 0.17363(32) 0.14417(27) 0.20347(5)
C113_7 C 0.17509(33) 0.18613(26) 0.20599(5)
C118_7 C 0.20415(27) 0.21594(23) 0.21629(6)
H77_7 H 0.2051 0.2441 0.2180
C123_7 C 0.14710(5) 0.18848(4) 0.197048(7)
H82_7 H 0.1466 0.2163 0.1975
C128_7 C 0.11757(5) 0.15802(4) 0.186944(7)
H87_7 H 0.0990 0.1660 0.1817
C133_7 C 0.11560(5) 0.11561(4) 0.184756(7)
C138_7 C 0.14317(5) 0.10366(4) 0.192673(7)
H92_7 H 0.1428 0.0757 0.1915
C143_7 C 0.07749(5) 0.07876(4) 0.176963(7)
O8_7 O 0.60856(5) 0.32512(4) 0.208339(7)
O15_3 O 0.28345(5) 0.67488(4) 0.291661(7)
O16_3 O 0.39144(5) 0.71655(3) 0.291661(7)
O17_7 O 0.05646(5) 0.09421(4) 0.170765(7)
O25_7 O 0.57828(5) 0.33865(4) 0.189173(7)
O32_3 O 0.23964(5) 0.66135(4) 0.310827(7)
O33_3 O 0.42172(5) 0.76036(3) 0.310827(7)
O35_7 O 0.08724(5) 0.05179(4) 0.173216(7)
O43_5 O 1.00000(5) 1.00000(3) 0.346802(7)
O45_7 O 0.25874(5) 0.22907(4) 0.233186(7)
O50_7 O 0.36151(5) 0.32730(4) 0.235015(7)
Zn4_9 Zn 0.66666(5) 0.33334(3) 0.200441(7)
O23_3 O 0.94354(5) 0.03774(3) 0.329235(7)
C1_8 C 0.2484(3) 0.6684(4) 0.29796(9)
C2_8 C 0.2123(4) 0.6720(6) 0.28990(12)
C3_8 C 0.2242(3) 0.6899(5) 0.27641(16)
H1_8 H 0.2533 0.6980 0.2728
C4_8 C 0.1919(6) 0.6954(8) 0.26838(12)
H2_8 H 0.2022 0.7096 0.2597
C5_8 C 0.1440(7) 0.6812(10) 0.27205(11)
C6_8 C 0.1370(4) 0.6630(6) 0.2861(2)
C7_8 C 0.1704(6) 0.6598(8) 0.29496(9)
H3_8 H 0.1627 0.6493 0.3040
C8_8 C 0.0935(6) 0.6476(8) 0.29230(9)
H4_8 H 0.0884 0.6364 0.3014
C9_8 C 0.0587(3) 0.6489(5) 0.28519(13)
H5_8 H 0.0295 0.6372 0.2893
C10_8 C 0.0665(4) 0.6680(6) 0.27151(16)
C11_8 C 0.1081(5) 0.6843(6) 0.26526(13)
H6_8 H 0.1131 0.6975 0.2564
C12_8 C 0.0402(2) 0.6991(3) 0.25279(5)
H7_8 H 0.0432 0.6826 0.2448
H8_8 H 0.0690 0.7286 0.2535
C15_8 C 0.0281(2) 0.7962(4) 0.27594(5)
C16_8 C 0.0687(3) 0.83826(35) 0.27846(6)
H11_8 H 0.0953 0.8464 0.2732
C17_8 C 0.06935(16) 0.86806(23) 0.28876(7)
H12_8 H 0.0965 0.8961 0.2904
C18_8 C 0.02947(18) 0.85583(27) 0.29653(5)
C23_8 C -0.00000(3) 0.88439(4) 0.315244(7)
C24_8 C 0.03952(3) 0.89634(4) 0.307327(7)
H16_8 H 0.0672 0.9243 0.3085
O6_8 O 0.02968(3) 0.77093(4) 0.266814(7)
O7_8 O 0.03422(3) 0.67270(4) 0.264985(7)
C88_8 C 0.0075(3) 0.7371(5) 0.23665(5)
H57_8 H 0.0143 0.7221 0.2291
H62_8 H 0.0343 0.7679 0.2379
C113_8 C 0.0110(2) 0.82491(33) 0.20599(5)
C118_8 C 0.01178(14) 0.79585(27) 0.21629(6)
H77_8 H 0.0389 0.7949 0.2180
C123_8 C 0.04137(3) 0.85290(5) 0.197048(7)
H82_8 H 0.0696 0.8534 0.1975
C128_8 C 0.04044(3) 0.88243(5) 0.186944(7)
H87_8 H 0.0669 0.9010 0.1817
C133_8 C 0.00000(3) 0.88440(5) 0.184756(7)
C143_8 C 0.00126(3) 0.92251(5) 0.176963(7)
O17_8 O 0.03774(3) 0.94354(5) 0.170765(7)
C13_8 C 1.0000 0.7087(3) 0.2500
C14_8 C 0.9925(3) 0.7295(4) 0.26335(5)
H9_8 H 0.9857 0.7077 0.2709
H10_8 H 0.9657 0.7335 0.2621
C19_8 C 0.9890(2) 0.81387(26) 0.29401(5)
C20_8 C 0.98822(14) 0.78406(23) 0.28371(6)
H13_8 H 0.9611 0.7559 0.2820
C21_8 C 0.95863(3) 0.81152(4) 0.302952(7)
H14_8 H 0.9304 0.7837 0.3025
C22_8 C 0.95956(3) 0.84198(4) 0.313056(7)
H15_8 H 0.9331 0.8340 0.3183
C23_9 C 1.00000(3) 0.88439(4) 0.315244(7)
C25_8 C 0.99874(3) 0.92124(4) 0.323037(7)
O2_3 O 0.96226(3) 0.90579(4) 0.329235(7)
C26_8 C 0.7516(3) 0.4201(5) 0.20204(9)
C31_8 C 0.7877(4) 0.4598(7) 0.21010(12)
C36_8 C 0.7758(3) 0.4658(6) 0.22359(16)
H17_8 H 0.7467 0.4448 0.2272
C41_8 C 0.8081(6) 0.5036(10) 0.23162(12)
H22_8 H 0.7978 0.5075 0.2403
C46_8 C 0.8560(7) 0.5373(12) 0.22795(11)
C51_8 C 0.8630(4) 0.5261(7) 0.2139(2)
C56_8 C 0.8296(6) 0.4895(10) 0.20504(9)
H27_8 H 0.8373 0.4867 0.1960
C61_8 C 0.9065(6) 0.5542(10) 0.20770(9)
H32_8 H 0.9116 0.5481 0.1986
C66_8 C 0.9413(3) 0.5903(6) 0.21481(13)
H37_8 H 0.9705 0.6078 0.2107
C71_8 C 0.9335(4) 0.6016(7) 0.22849(16)
C76_8 C 0.8919(5) 0.5763(8) 0.23474(13)
H42_8 H 0.8869 0.5845 0.2436
C81_8 C 0.9598(2) 0.6590(4) 0.24721(5)
H47_8 H 0.9568 0.6395 0.2552
H52_8 H 0.9310 0.6597 0.2465
C93_8 C 0.9719(2) 0.7682(4) 0.22406(5)
C98_8 C 0.9313(3) 0.76960(46) 0.22154(6)
H67_8 H 0.9047 0.7512 0.2268
C103_8 C 0.93065(16) 0.79872(28) 0.21124(7)
H72_8 H 0.9035 0.7997 0.2096
C108_8 C 0.97053(18) 0.82637(32) 0.20347(5)
C133_9 C 1.00000(3) 0.88440(5) 0.184756(7)
C138_8 C 0.96048(3) 0.85683(5) 0.192673(7)
H92_8 H 0.9328 0.8572 0.1915
O8_8 O 0.71655(3) 0.39144(5) 0.208339(7)
O25_8 O 0.76036(3) 0.42172(5) 0.189173(7)
O35_8 O 0.96454(3) 0.91276(5) 0.173216(7)
O41_3 O 0.91276(3) 0.96454(5) 0.326784(7)
O45_8 O 0.97032(3) 0.74126(5) 0.233186(7)
O50_8 O 0.96578(3) 0.63849(5) 0.235015(7)
C13_9 C 0.7088(3) 0.0000 0.2500
C14_9 C 0.7371(3) 0.0075(3) 0.26335(5)
H9_9 H 0.7221 0.0143 0.2709
H10_9 H 0.7679 0.0343 0.2621
C19_9 C 0.82491(16) 0.0110(2) 0.29401(5)
C20_9 C 0.79585(18) 0.01178(14) 0.28371(6)
H13_9 H 0.7949 0.0389 0.2820
C21_9 C 0.85290(3) 0.04137(3) 0.302952(7)
H14_9 H 0.8534 0.0696 0.3025
C22_9 C 0.88243(3) 0.04044(3) 0.313056(7)
H15_9 H 0.9010 0.0669 0.3183
C23_10 C 0.88440(3) 0.00000(3) 0.315244(7)
C25_9 C 0.92251(3) 0.00126(3) 0.323037(7)
C26_9 C 0.6684(4) 0.2484(3) 0.20204(9)
C31_9 C 0.6720(6) 0.2123(4) 0.21010(12)
C36_9 C 0.6899(5) 0.2242(3) 0.22359(16)
H17_9 H 0.6980 0.2533 0.2272
C41_9 C 0.6954(8) 0.1919(6) 0.23162(12)
H22_9 H 0.7096 0.2022 0.2403
C46_9 C 0.6812(10) 0.1440(7) 0.22795(11)
C51_9 C 0.6630(6) 0.1370(4) 0.2139(2)
C56_9 C 0.6598(8) 0.1704(6) 0.20504(9)
H27_9 H 0.6493 0.1627 0.1960
C61_9 C 0.6476(8) 0.0935(6) 0.20770(9)
H32_9 H 0.6364 0.0884 0.1986
C66_9 C 0.6489(5) 0.0587(3) 0.21481(13)
H37_9 H 0.6372 0.0295 0.2107
C71_9 C 0.6680(6) 0.0665(4) 0.22849(16)
C76_9 C 0.6843(6) 0.1081(5) 0.23474(13)
H42_9 H 0.6975 0.1131 0.2436
C81_9 C 0.6991(3) 0.0402(2) 0.24721(5)
H47_9 H 0.6826 0.0432 0.2552
H52_9 H 0.7286 0.0690 0.2465
C93_9 C 0.7962(4) 0.0281(2) 0.22406(5)
C98_9 C 0.83826(35) 0.0687(3) 0.22154(6)
H67_9 H 0.8464 0.0953 0.2268
C103_9 C 0.86806(23) 0.06935(16) 0.21124(7)
H72_9 H 0.8961 0.0965 0.2096
C108_9 C 0.85583(27) 0.02947(18) 0.20347(5)
C133_10 C 0.88439(4) -0.00000(3) 0.184756(7)
C138_9 C 0.89634(4) 0.03952(3) 0.192673(7)
H92_9 H 0.9243 0.0672 0.1915
O8_9 O 0.67488(4) 0.28345(3) 0.208339(7)
O25_9 O 0.66135(4) 0.23964(3) 0.189173(7)
O35_9 O 0.94821(4) 0.03546(3) 0.173216(7)
O45_9 O 0.77093(4) 0.02968(3) 0.233186(7)
O50_9 O 0.67270(4) 0.03422(3) 0.235015(7)
C1_9 C 0.4201(3) 0.7516(3) 0.29796(9)
C2_9 C 0.4598(4) 0.7877(4) 0.28990(12)
C3_9 C 0.4658(4) 0.7758(3) 0.27641(16)
H1_9 H 0.4448 0.7467 0.2728
C4_9 C 0.5036(6) 0.8081(6) 0.26838(12)
H2_9 H 0.5075 0.7978 0.2597
C5_9 C 0.5373(7) 0.8560(7) 0.27205(11)
C6_9 C 0.5261(4) 0.8630(4) 0.2861(2)
C7_9 C 0.4895(5) 0.8296(6) 0.29496(9)
H3_9 H 0.4867 0.8373 0.3040
C8_9 C 0.5542(5) 0.9065(6) 0.29230(9)
H4_9 H 0.5481 0.9116 0.3014
C9_9 C 0.5903(4) 0.9413(3) 0.28519(13)
H5_9 H 0.6078 0.9705 0.2893
C10_9 C 0.6016(4) 0.9335(4) 0.27151(16)
C11_9 C 0.5763(4) 0.8919(5) 0.26526(13)
H6_9 H 0.5845 0.8869 0.2564
C12_9 C 0.6590(2) 0.9598(2) 0.25279(5)
H7_9 H 0.6395 0.9568 0.2448
H8_9 H 0.6597 0.9310 0.2535
C15_9 C 0.7682(3) 0.9719(2) 0.27594(5)
C16_9 C 0.76960(18) 0.9313(3) 0.27846(6)
H11_9 H 0.7512 0.9047 0.2732
C17_9 C 0.79872(16) 0.93065(16) 0.28876(7)
H12_9 H 0.7997 0.9035 0.2904
C18_9 C 0.8264(2) 0.97053(18) 0.29653(5)
C23_11 C 0.88440(3) 1.00000(3) 0.315244(7)
C24_9 C 0.85683(3) 0.96048(3) 0.307327(7)
H16_9 H 0.8572 0.9328 0.3085
O6_9 O 0.74126(3) 0.97032(3) 0.266814(7)
O7_9 O 0.63849(3) 0.96578(3) 0.264985(7)
C88_9 C 0.7295(4) 0.9925(3) 0.23665(5)
H57_9 H 0.7077 0.9857 0.2291
H62_9 H 0.7335 0.9657 0.2379
C113_9 C 0.81387(26) 0.9890(2) 0.20599(5)
C118_9 C 0.78406(23) 0.98822(14) 0.21629(6)
H77_9 H 0.7559 0.9611 0.2180
C123_9 C 0.81152(4) 0.95863(3) 0.197048(7)
H82_9 H 0.7837 0.9304 0.1975
C128_9 C 0.84198(4) 0.95956(3) 0.186944(7)
H87_9 H 0.8340 0.9331 0.1817
C133_11 C 0.88439(4) 1.00000(3) 0.184756(7)
C143_9 C 0.92124(4) 0.99874(3) 0.176963(7)
O17_9 O 0.90579(4) 0.96226(3) 0.170765(7)
O44_3 O 0.00000(3) 0.00001(4) 0.153198(7)
C13_10 C 0.0000 0.7088(3) 0.2500
O44_4 O 0.00000(3) 1.00001(4) 0.153198(7)
O44_5 O 1.00000(3) 0.00001(4) 0.153198(7)
O5_8 O 0.66666(3) 0.33334(3) 0.180136(7)
O44_6 O 1.00000(3) 1.00001(4) 0.153198(7)
C13_11 C 0.7087(3) 1.0000 0.2500
O5_9 O -0.00001(4) -0.00000(3) 0.653198(7)
C86_4 C 0.0000(4) 0.2913(3) 0.7500
O43_6 O 0.66666(5) 0.33334(3) 0.680136(7)
O5_10 O -0.00001(4) 1.00000(3) 0.653198(7)
C87_7 C 0.2912(3) 1.0000 0.7500
O5_11 O 0.99999(4) -0.00000(3) 0.653198(7)
O5_12 O 0.99999(4) 1.00000(3) 0.653198(7)
loop_
_geom_bond_atom_site_label_1
_geom_bond_atom_site_label_2
_geom_bond_site_symmetry_1
_geom_bond_site_symmetry_2
C14 C13 1_555 1_555
H9 C14 1_555 1_555
H10 C14 1_555 1_555
C15 C16 1_555 1_555
C16 H11 1_555 1_555
C17 C16 1_555 1_555
H12 C17 1_555 1_555
C18 C17 1_555 1_555
C19 C18 1_555 1_555
C20 C15 1_555 1_555
H13 C20 1_555 1_555
C21 C19 1_555 1_555
H14 C21 1_555 1_555
C22 C21 1_555 1_555
H15 C22 1_555 1_555
C23 C22 1_555 1_555
C24 C18 1_555 1_555
H16 C24 1_555 1_555
C25 C23 1_555 1_555
O2 C25 1_555 1_555
O4 C25 1_555 1_555
O6 C14 1_555 1_555
C26 C31 1_555 1_555
C31 C36 1_555 1_555
C36 H17 1_555 1_555
C41 C36 1_555 1_555
H22 C41 1_555 1_555
C46 C41 1_555 1_555
C76 C46 1_555 1_555
H42 C76 1_555 1_555
C81 C13 1_555 1_555
H47 C81 1_555 1_555
H52 C81 1_555 1_555
C88 C13 1_555 1_555
H57 C88 1_555 1_555
H62 C88 1_555 1_555
C93 C98 1_555 1_555
C98 H67 1_555 1_555
C103 C98 1_555 1_555
H72 C103 1_555 1_555
C108 C103 1_555 1_555
C113 C108 1_555 1_555
C118 C93 1_555 1_555
H77 C118 1_555 1_555
C123 C113 1_555 1_555
H82 C123 1_555 1_555
C128 C123 1_555 1_555
H87 C128 1_555 1_555
C133 C128 1_555 1_555
C138 C108 1_555 1_555
H92 C138 1_555 1_555
C143 C133 1_555 1_555
O8 C26 1_555 1_555
O17 C143 1_555 1_555
O23 Zn12 1_555 1_555
O31 Zn11 1_555 1_555
O34 Zn12 1_555 1_555
O35 C143 1_555 1_555
O41 Zn11 1_555 1_555
O44 Zn11 1_555 1_555
O45 C88 1_555 1_555
O50 C71 1_555 1_555
Zn4_3 O8 1_555 1_555
Zn11 O2 1_555 1_555
Zn12 O4 1_555 1_555
Zn22 O17 1_555 1_555
Zn23 O35 1_555 1_555
C15 O6 1_555 1_555
C19 C20 1_555 1_555
C23 C24 1_555 1_555
C71 C76 1_555 1_555
C81 O50 1_555 1_555
C93 O45 1_555 1_555
C113 C118 1_555 1_555
C133 C138 1_555 1_555
O44 Zn12 1_555 1_555
C1 C2 1_555 1_555
C2 C3 1_555 1_555
C3 H1 1_555 1_555
C4 C3 1_555 1_555
H2 C4 1_555 1_555
C5 C4 1_555 1_555
C6 C5 1_555 1_555
C7 C2 1_555 1_555
H3 C7 1_555 1_555
C8 C6 1_555 1_555
H4 C8 1_555 1_555
C9 C8 1_555 1_555
H5 C9 1_555 1_555
C10 C9 1_555 1_555
C11 C5 1_555 1_555
H6 C11 1_555 1_555
C12 H7 1_555 1_555
H8 C12 1_555 1_555
O1 C1 1_555 1_555
O3 C1 1_555 1_555
O5 Zn1 1_555 1_555
O7 C10 1_555 1_555
Zn1 O1 1_555 1_555
Zn2 O5 1_555 1_555
C28 C33 1_555 1_555
C29 C34 1_555 1_555
C30 C35 1_555 1_555
C33 C38 1_555 1_555
C34 C39 1_555 1_555
C35 C40 1_555 1_555
C38 H19 1_555 1_555
C39 H20 1_555 1_555
C40 H21 1_555 1_555
C43 C38 1_555 1_555
C44 C39 1_555 1_555
C45 C40 1_555 1_555
H24 C43 1_555 1_555
H25 C44 1_555 1_555
H26 C45 1_555 1_555
C48 C43 1_555 1_555
C49 C44 1_555 1_555
C50 C45 1_555 1_555
C54 C49 1_555 1_555
C55 C50 1_555 1_555
C59 C34 1_555 1_555
C60 C35 1_555 1_555
H27 C56 1_555 1_555
H30 C59 1_555 1_555
H31 C60 1_555 1_555
C61 C51 1_555 1_555
C64 C54 1_555 1_555
C65 C55 1_555 1_555
H32 C61 1_555 1_555
H35 C64 1_555 1_555
H36 C65 1_555 1_555
C66 C61 1_555 1_555
C69 C64 1_555 1_555
C70 C65 1_555 1_555
H37 C66 1_555 1_555
H40 C69 1_555 1_555
H41 C70 1_555 1_555
C74 C69 1_555 1_555
C75 C70 1_555 1_555
C78 C48 1_555 1_555
C79 C49 1_555 1_555
C80 C50 1_555 1_555
H44 C78 1_555 1_555
H45 C79 1_555 1_555
H46 C80 1_555 1_555
C83 H49 1_555 1_555
C84 H50 1_555 1_555
C85 H51 1_555 1_555
H54 C83 1_555 1_555
H55 C84 1_555 1_555
H56 C85 1_555 1_555
C87 C84 1_555 1_555
C89 C86 1_555 1_555
C90 C86 1_555 1_555
C91 C87 1_555 1_555
C92 C87 1_555 1_555
H58 C89 1_555 1_555
H59 C90 1_555 1_555
H60 C91 1_555 1_555
H61 C92 1_555 1_555
H63 C89 1_555 1_555
H64 C90 1_555 1_555
H65 C91 1_555 1_555
H66 C92 1_555 1_555
C94 C99 1_555 1_555
C95 C100 1_555 1_555
C96 C101 1_555 1_555
C97 C102 1_555 1_555
C99 H68 1_555 1_555
C100 H69 1_555 1_555
C101 H70 1_555 1_555
C102 H71 1_555 1_555
C104 C99 1_555 1_555
C105 C100 1_555 1_555
C106 C101 1_555 1_555
C107 C102 1_555 1_555
H73 C104 1_555 1_555
H74 C105 1_555 1_555
H75 C106 1_555 1_555
H76 C107 1_555 1_555
C109 C104 1_555 1_555
C110 C105 1_555 1_555
C111 C106 1_555 1_555
C112 C107 1_555 1_555
C114 C109 1_555 1_555
C115 C110 1_555 1_555
C116 C111 1_555 1_555
C117 C112 1_555 1_555
C119 C94 1_555 1_555
C120 C95 1_555 1_555
C121 C96 1_555 1_555
C122 C97 1_555 1_555
H78 C119 1_555 1_555
H79 C120 1_555 1_555
H80 C121 1_555 1_555
H81 C122 1_555 1_555
C124 C114 1_555 1_555
C125 C115 1_555 1_555
C126 C116 1_555 1_555
C127 C117 1_555 1_555
H83 C124 1_555 1_555
H84 C125 1_555 1_555
H85 C126 1_555 1_555
H86 C127 1_555 1_555
C129 C124 1_555 1_555
C130 C125 1_555 1_555
C131 C126 1_555 1_555
C132 C127 1_555 1_555
H88 C129 1_555 1_555
H89 C130 1_555 1_555
H90 C131 1_555 1_555
H91 C132 1_555 1_555
C134 C129 1_555 1_555
C135 C130 1_555 1_555
C136 C131 1_555 1_555
C137 C132 1_555 1_555
C139 C109 1_555 1_555
C140 C110 1_555 1_555
C141 C111 1_555 1_555
C142 C112 1_555 1_555
H93 C139 1_555 1_555
H94 C140 1_555 1_555
H95 C141 1_555 1_555
H96 C142 1_555 1_555
C144 C134 1_555 1_555
C145 C135 1_555 1_555
C146 C136 1_555 1_555
C147 C137 1_555 1_555
O10 C28 1_555 1_555
O11 C29 1_555 1_555
O12 C30 1_555 1_555
O13 Zn3 1_555 1_555
O14 Zn3 1_555 1_555
O15 Zn1 1_555 1_555
O16 Zn1 1_555 1_555
O18 Zn2 1_555 1_555
O19 C145 1_555 1_555
O20 C146 1_555 1_555
O21 C147 1_555 1_555
O24 Zn9 1_555 1_555
O28 C29 1_555 1_555
O29 C30 1_555 1_555
O32 Zn9 1_555 1_555
O33 Zn2 1_555 1_555
O36 C144 1_555 1_555
O37 C145 1_555 1_555
O38 Zn2 1_555 1_555
O39 C147 1_555 1_555
O42 Zn8 1_555 1_555
O44 Zn3 1_555 1_555
O46 C89 1_555 1_555
O47 C90 1_555 1_555
O48 C91 1_555 1_555
O49 C92 1_555 1_555
O52 C73 1_555 1_555
O53 C74 1_555 1_555
O54 C75 1_555 1_555
Zn3 O11 1_555 1_555
Zn7 O10 1_555 1_555
Zn7_4 O12 1_555 1_555
Zn8 O3 1_555 1_555
Zn9 O5 1_555 1_555
Zn13 O39 1_555 1_555
Zn14 O21 1_555 1_555
Zn15 O19 1_555 1_555
Zn17 O28 1_555 1_555
Zn20 O29 1_555 1_555
C6 C7 1_555 1_555
C10 C11 1_555 1_555
C12 O7 1_555 1_555
O5 Zn8 1_555 1_555
C51 C56 1_555 1_555
C54 C59 1_555 1_555
C55 C60 1_555 1_555
C73 C78 1_555 1_555
C74 C79 1_555 1_555
C75 C80 1_555 1_555
C83 C86 1_555 1_555
C83 O52 1_555 1_555
C84 O53 1_555 1_555
C85 C87 1_555 1_555
C85 O54 1_555 1_555
C94 O46 1_555 1_555
C95 O47 1_555 1_555
C96 O48 1_555 1_555
C97 O49 1_555 1_555
C114 C119 1_555 1_555
C115 C120 1_555 1_555
C116 C121 1_555 1_555
C117 C122 1_555 1_555
C134 C139 1_555 1_555
C135 C140 1_555 1_555
C136 C141 1_555 1_555
C137 C142 1_555 1_555
C144 O18 1_555 1_555
C146 O38 1_555 1_555
O20 Zn8 1_555 1_555
O36 Zn9 1_555 1_555
O37 Zn14 1_555 1_555
O44 Zn17 1_555 1_555
C27 C32 1_555 1_555
C32 C37 1_555 1_555
C37 H18 1_555 1_555
C42 C37 1_555 1_555
H23 C42 1_555 1_555
C47 C42 1_555 1_555
C52 C47 1_555 1_555
C57 C32 1_555 1_555
H28 C57 1_555 1_555
H29 C58 1_555 1_555
C62 C52 1_555 1_555
C63 C53 1_555 1_555
H33 C62 1_555 1_555
H34 C63 1_555 1_555
C67 C62 1_555 1_555
C68 C63 1_555 1_555
H38 C67 1_555 1_555
H39 C68 1_555 1_555
C72 C67 1_555 1_555
C77 C47 1_555 1_555
H43 C77 1_555 1_555
C82 H48 1_555 1_555
H53 C82 1_555 1_555
O14 C27 1_555 1_555
O31 C27 1_555 1_555
O51 C72 1_555 1_555
C52 C57 1_555 1_555
C53 C58 1_555 1_555
C72 C77 1_555 1_555
C82 O51 1_555 1_555
C29_2 C34_2 1_555 1_555
C34_2 C39_2 1_555 1_555
C39_2 H20_2 1_555 1_555
C44_2 C39_2 1_555 1_555
H25_2 C44_2 1_555 1_555
C49_2 C44_2 1_555 1_555
C54_2 C49_2 1_555 1_555
C59_2 C34_2 1_555 1_555
H30_2 C59_2 1_555 1_555
H31_2 C60_2 1_555 1_555
C64_2 C54_2 1_555 1_555
C65_2 C55_2 1_555 1_555
H35_2 C64_2 1_555 1_555
H36_2 C65_2 1_555 1_555
C69_2 C64_2 1_555 1_555
C70_2 C65_2 1_555 1_555
H40_2 C69_2 1_555 1_555
H41_2 C70_2 1_555 1_555
C74_2 C69_2 1_555 1_555
C79_2 C49_2 1_555 1_555
H45_2 C79_2 1_555 1_555
C84_2 H50_2 1_555 1_555
H55_2 C84_2 1_555 1_555
O13 C29_2 1_555 1_555
O22 Zn17 1_555 1_555
O34 C29_2 1_555 1_555
O40 Zn17 1_555 1_555
O53_2 C74_2 1_555 1_555
C54_2 C59_2 1_555 1_555
C55_2 C60_2 1_555 1_555
C74_2 C79_2 1_555 1_555
C84_2 O53_2 1_555 1_555
C1_2 C2_2 1_555 1_555
C2_2 C3_2 1_555 1_555
C3_2 H1_2 1_555 1_555
C4_2 C3_2 1_555 1_555
H2_2 C4_2 1_555 1_555
C5_2 C4_2 1_555 1_555
C6_2 C5_2 1_555 1_555
C7_2 C2_2 1_555 1_555
H3_2 C7_2 1_555 1_555
C8_2 C6_2 1_555 1_555
H4_2 C8_2 1_555 1_555
C9_2 C8_2 1_555 1_555
H5_2 C9_2 1_555 1_555
C10_2 C9_2 1_555 1_555
C11_2 C5_2 1_555 1_555
H6_2 C11_2 1_555 1_555
C12_2 H7_2 1_555 1_555
H8_2 C12_2 1_555 1_555
O15 C1_2 1_555 1_555
O32 C1_2 1_555 1_555
O7_2 C10_2 1_555 1_555
C30_2 C35_2 1_555 1_555
C35_2 C40_2 1_555 1_555
C40_2 H21_2 1_555 1_555
C45_2 C40_2 1_555 1_555
H26_2 C45_2 1_555 1_555
C50_2 C45_2 1_555 1_555
H27_2 C56_2 1_555 1_555
C61_2 C51_2 1_555 1_555
H32_2 C61_2 1_555 1_555
C66_2 C61_2 1_555 1_555
H37_2 C66_2 1_555 1_555
C80_2 C50_2 1_555 1_555
H46_2 C80_2 1_555 1_555
C85_2 H51_2 1_555 1_555
H56_2 C85_2 1_555 1_555
C91_2 C87_2 1_555 1_555
C92_2 C87_2 1_555 1_555
H60_2 C91_2 1_555 1_555
H61_2 C92_2 1_555 1_555
H65_2 C91_2 1_555 1_555
H66_2 C92_2 1_555 1_555
C96_2 C101_2 1_555 1_555
C97_2 C102_2 1_555 1_555
C101_2 H70_2 1_555 1_555
C102_2 H71_2 1_555 1_555
C106_2 C101_2 1_555 1_555
C107_2 C102_2 1_555 1_555
H75_2 C106_2 1_555 1_555
H76_2 C107_2 1_555 1_555
C111_2 C106_2 1_555 1_555
C112_2 C107_2 1_555 1_555
C116_2 C111_2 1_555 1_555
C117_2 C112_2 1_555 1_555
C121_2 C96_2 1_555 1_555
C122_2 C97_2 1_555 1_555
H80_2 C121_2 1_555 1_555
H81_2 C122_2 1_555 1_555
C126_2 C116_2 1_555 1_555
C127_2 C117_2 1_555 1_555
H85_2 C126_2 1_555 1_555
H86_2 C127_2 1_555 1_555
C131_2 C126_2 1_555 1_555
C132_2 C127_2 1_555 1_555
H90_2 C131_2 1_555 1_555
H91_2 C132_2 1_555 1_555
C136_2 C131_2 1_555 1_555
C137_2 C132_2 1_555 1_555
C141_2 C111_2 1_555 1_555
C142_2 C112_2 1_555 1_555
H95_2 C141_2 1_555 1_555
H96_2 C142_2 1_555 1_555
C146_2 C136_2 1_555 1_555
C147_2 C137_2 1_555 1_555
O12_2 C30_2 1_555 1_555
O24 C146_2 1_555 1_555
O21_2 C147_2 1_555 1_555
O39_2 C147_2 1_555 1_555
O48_2 C91_2 1_555 1_555
O49_2 C92_2 1_555 1_555
O54_2 C75_2 1_555 1_555
Zn7_2 O12_2 1_555 1_555
Zn15 O39_2 1_555 1_555
Zn13 O21_2 1_555 1_555
C6_2 C7_2 1_555 1_555
C10_2 C11_2 1_555 1_555
C12_2 O7_2 1_555 1_555
C51_2 C56_2 1_555 1_555
C75_2 C80_2 1_555 1_555
C85_2 C87_2 1_555 1_555
C85_2 O54_2 1_555 1_555
C96_2 O48_2 1_555 1_555
C97_2 O49_2 1_555 1_555
C116_2 C121_2 1_555 1_555
C117_2 C122_2 1_555 1_555
C136_2 C141_2 1_555 1_555
C137_2 C142_2 1_555 1_555
C146_2 O42 1_555 1_555
C14_2 C13_2 1_555 1_555
H9_2 C14_2 1_555 1_555
H10_2 C14_2 1_555 1_555
C15_2 C16_2 1_555 1_555
C16_2 H11_2 1_555 1_555
C17_2 C16_2 1_555 1_555
H12_2 C17_2 1_555 1_555
C18_2 C17_2 1_555 1_555
C19_2 C18_2 1_555 1_555
C20_2 C15_2 1_555 1_555
H13_2 C20_2 1_555 1_555
C21_2 C19_2 1_555 1_555
H14_2 C21_2 1_555 1_555
C22_2 C21_2 1_555 1_555
H15_2 C22_2 1_555 1_555
C23_2 C22_2 1_555 1_555
C24_2 C18_2 1_555 1_555
H16_2 C24_2 1_555 1_555
C25_2 C23_2 1_555 1_555
O22 C25_2 1_555 1_555
O41 C25_2 1_555 1_555
O6_2 C14_2 1_555 1_555
C26_2 C31_2 1_555 1_555
C31_2 C36_2 1_555 1_555
C36_2 H17_2 1_555 1_555
C41_2 C36_2 1_555 1_555
H22_2 C41_2 1_555 1_555
C46_2 C41_2 1_555 1_555
C76_2 C46_2 1_555 1_555
H42_2 C76_2 1_555 1_555
C81_2 C13_2 1_555 1_555
H47_2 C81_2 1_555 1_555
H52_2 C81_2 1_555 1_555
C88_2 C13_2 1_555 1_555
H57_2 C88_2 1_555 1_555
H62_2 C88_2 1_555 1_555
C93_2 C98_2 1_555 1_555
C98_2 H67_2 1_555 1_555
C103_2 C98_2 1_555 1_555
H72_2 C103_2 1_555 1_555
C108_2 C103_2 1_555 1_555
C113_2 C108_2 1_555 1_555
C118_2 C93_2 1_555 1_555
H77_2 C118_2 1_555 1_555
C123_2 C113_2 1_555 1_555
H82_2 C123_2 1_555 1_555
C128_2 C123_2 1_555 1_555
H87_2 C128_2 1_555 1_555
C133_2 C128_2 1_555 1_555
C138_2 C108_2 1_555 1_555
H92_2 C138_2 1_555 1_555
C143_2 C133_2 1_555 1_555
O8_2 C26_2 1_555 1_555
O17_2 C143_2 1_555 1_555
O35_2 C143_2 1_555 1_555
O45_2 C88_2 1_555 1_555
O50_2 C71_2 1_555 1_555
Zn4_4 O8_2 1_555 1_555
Zn23 O17_2 1_555 1_555
Zn23_2 O35_2 1_555 1_555
C15_2 O6_2 1_555 1_555
C19_2 C20_2 1_555 1_555
C23_2 C24_2 1_555 1_555
C71_2 C76_2 1_555 1_555
C81_2 O50_2 1_555 1_555
C93_2 O45_2 1_555 1_555
C113_2 C118_2 1_555 1_555
C133_2 C138_2 1_555 1_555
C1_3 C2_3 1_555 1_555
C2_3 C3_3 1_555 1_555
C3_3 H1_3 1_555 1_555
C4_3 C3_3 1_555 1_555
H2_3 C4_3 1_555 1_555
C5_3 C4_3 1_555 1_555
C6_3 C5_3 1_555 1_555
C7_3 C2_3 1_555 1_555
H3_3 C7_3 1_555 1_555
C8_3 C6_3 1_555 1_555
H4_3 C8_3 1_555 1_555
C9_3 C8_3 1_555 1_555
H5_3 C9_3 1_555 1_555
C10_3 C9_3 1_555 1_555
C11_3 C5_3 1_555 1_555
H6_3 C11_3 1_555 1_555
C12_3 H7_3 1_555 1_555
H8_3 C12_3 1_555 1_555
C13_3 C12_3 1_555 1_555
C14_3 C13_3 1_555 1_555
H9_3 C14_3 1_555 1_555
H10_3 C14_3 1_555 1_555
C15_3 C16_3 1_555 1_555
C16_3 H11_3 1_555 1_555
C17_3 C16_3 1_555 1_555
H12_3 C17_3 1_555 1_555
C18_3 C17_3 1_555 1_555
C19_3 C18_3 1_555 1_555
C20_3 C15_3 1_555 1_555
H13_3 C20_3 1_555 1_555
C21_3 C19_3 1_555 1_555
H14_3 C21_3 1_555 1_555
C22_3 C21_3 1_555 1_555
H15_3 C22_3 1_555 1_555
C23_3 C22_3 1_555 1_555
C24_3 C18_3 1_555 1_555
H16_3 C24_3 1_555 1_555
C25_3 C23_3 1_555 1_555
O16 C1_3 1_555 1_555
O23 C25_3 1_555 1_555
O33 C1_3 1_555 1_555
O40 C25_3 1_555 1_555
O6_3 C14_3 1_555 1_555
O7_3 C10_3 1_555 1_555
C26_3 C31_3 1_555 1_555
C31_3 C36_3 1_555 1_555
C36_3 H17_3 1_555 1_555
C41_3 C36_3 1_555 1_555
H22_3 C41_3 1_555 1_555
C46_3 C41_3 1_555 1_555
C51_3 C46_3 1_555 1_555
C56_3 C31_3 1_555 1_555
H27_3 C56_3 1_555 1_555
C61_3 C51_3 1_555 1_555
H32_3 C61_3 1_555 1_555
C66_3 C61_3 1_555 1_555
H37_3 C66_3 1_555 1_555
C71_3 C66_3 1_555 1_555
C76_3 C46_3 1_555 1_555
H42_3 C76_3 1_555 1_555
C81_3 C13_3 1_555 1_555
H47_3 C81_3 1_555 1_555
H52_3 C81_3 1_555 1_555
C88_3 C13_3 1_555 1_555
H57_3 C88_3 1_555 1_555
H62_3 C88_3 1_555 1_555
C93_3 C98_3 1_555 1_555
C98_3 H67_3 1_555 1_555
C103_3 C98_3 1_555 1_555
H72_3 C103_3 1_555 1_555
C108_3 C103_3 1_555 1_555
C113_3 C108_3 1_555 1_555
C118_3 C93_3 1_555 1_555
H77_3 C118_3 1_555 1_555
C123_3 C113_3 1_555 1_555
H82_3 C123_3 1_555 1_555
C128_3 C123_3 1_555 1_555
H87_3 C128_3 1_555 1_555
C133_3 C128_3 1_555 1_555
C138_3 C108_3 1_555 1_555
H92_3 C138_3 1_555 1_555
C143_3 C133_3 1_555 1_555
O8_3 C26_3 1_555 1_555
O17_3 C143_3 1_555 1_555
O25_3 C26_3 1_555 1_555
O35_3 C143_3 1_555 1_555
O45_3 C88_3 1_555 1_555
O50_3 C71_3 1_555 1_555
Zn4 O8_3 1_555 1_555
Zn16_3 O25_3 1_555 1_555
Zn23_2 O17_3 1_555 1_555
Zn22 O35_3 1_555 1_555
C6_3 C7_3 1_555 1_555
C10_3 C11_3 1_555 1_555
C12_3 O7_3 1_555 1_555
C15_3 O6_3 1_555 1_555
C19_3 C20_3 1_555 1_555
C23_3 C24_3 1_555 1_555
C51_3 C56_3 1_555 1_555
C71_3 C76_3 1_555 1_555
C81_3 O50_3 1_555 1_555
C93_3 O45_3 1_555 1_555
C113_3 C118_3 1_555 1_555
C133_3 C138_3 1_555 1_555
C29_3 C34_3 1_555 1_555
C34_3 C39_3 1_555 1_555
C39_3 H20_3 1_555 1_555
C44_3 C39_3 1_555 1_555
H25_3 C44_3 1_555 1_555
C49_3 C44_3 1_555 1_555
C54_3 C49_3 1_555 1_555
C59_3 C34_3 1_555 1_555
H30_3 C59_3 1_555 1_555
H31_3 C60_3 1_555 1_555
C64_3 C54_3 1_555 1_555
C65_3 C55_3 1_555 1_555
H35_3 C64_3 1_555 1_555
H36_3 C65_3 1_555 1_555
C69_3 C64_3 1_555 1_555
C70_3 C65_3 1_555 1_555
H40_3 C69_3 1_555 1_555
H41_3 C70_3 1_555 1_555
C74_3 C69_3 1_555 1_555
C79_3 C49_3 1_555 1_555
H45_3 C79_3 1_555 1_555
C84_3 H50_3 1_555 1_555
H55_3 C84_3 1_555 1_555
O11_2 C29_3 1_555 1_555
O13_2 Zn3_2 1_555 1_555
O14_2 Zn3_2 1_555 1_555
O28_2 C29_3 1_555 1_555
O30 Zn10 1_555 1_555
O43 Zn3_2 1_555 1_555
O53_3 C74_3 1_555 1_555
Zn3_2 O11_2 1_555 1_555
Zn10 O43 1_555 1_555
Zn17_2 O28_2 1_555 1_555
Zn18 O43 1_555 1_555
C54_3 C59_3 1_555 1_555
C55_3 C60_3 1_555 1_555
C74_3 C79_3 1_555 1_555
C84_3 O53_3 1_555 1_555
O43 Zn17_2 1_555 1_555
C27_2 C32_2 1_555 1_555
C28_2 C33_2 1_555 1_555
C30_3 C35_3 1_555 1_555
C32_2 C37_2 1_555 1_555
C33_2 C38_2 1_555 1_555
C35_3 C40_3 1_555 1_555
C37_2 H18_2 1_555 1_555
C38_2 H19_2 1_555 1_555
C40_3 H21_3 1_555 1_555
C42_2 C37_2 1_555 1_555
C43_2 C38_2 1_555 1_555
C45_3 C40_3 1_555 1_555
H23_2 C42_2 1_555 1_555
H24_2 C43_2 1_555 1_555
H26_3 C45_3 1_555 1_555
C47_2 C42_2 1_555 1_555
C48_2 C43_2 1_555 1_555
C50_3 C45_3 1_555 1_555
C52_2 C47_2 1_555 1_555
C53_2 C48_2 1_555 1_555
C57_2 C32_2 1_555 1_555
C58_2 C33_2 1_555 1_555
H28_2 C57_2 1_555 1_555
H29_2 C58_2 1_555 1_555
C62_2 C52_2 1_555 1_555
C63_2 C53_2 1_555 1_555
H33_2 C62_2 1_555 1_555
H34_2 C63_2 1_555 1_555
C67_2 C62_2 1_555 1_555
C68_2 C63_2 1_555 1_555
H38_2 C67_2 1_555 1_555
H39_2 C68_2 1_555 1_555
C72_2 C67_2 1_555 1_555
C73_2 C68_2 1_555 1_555
C77_2 C47_2 1_555 1_555
C78_2 C48_2 1_555 1_555
C80_3 C50_3 1_555 1_555
H43_2 C77_2 1_555 1_555
H44_2 C78_2 1_555 1_555
H46_3 C80_3 1_555 1_555
C82_2 H48_2 1_555 1_555
C83_2 H49_2 1_555 1_555
C85_3 H51_3 1_555 1_555
H53_2 C82_2 1_555 1_555
H54_2 C83_2 1_555 1_555
H56_3 C85_3 1_555 1_555
C86_2 C82_2 1_555 1_555
C89_2 C86_2 1_555 1_555
C90_2 C86_2 1_555 1_555
C91_3 C87_3 1_555 1_555
C92_3 C87_3 1_555 1_555
H58_2 C89_2 1_555 1_555
H59_2 C90_2 1_555 1_555
H60_3 C91_3 1_555 1_555
H61_3 C92_3 1_555 1_555
H63_2 C89_2 1_555 1_555
H64_2 C90_2 1_555 1_555
H65_3 C91_3 1_555 1_555
H66_3 C92_3 1_555 1_555
C94_2 C99_2 1_555 1_555
C95_2 C100_2 1_555 1_555
C96_3 C101_3 1_555 1_555
C97_3 C102_3 1_555 1_555
C99_2 H68_2 1_555 1_555
C100_2 H69_2 1_555 1_555
C101_3 H70_3 1_555 1_555
C102_3 H71_3 1_555 1_555
C104_2 C99_2 1_555 1_555
C105_2 C100_2 1_555 1_555
C106_3 C101_3 1_555 1_555
C107_3 C102_3 1_555 1_555
H73_2 C104_2 1_555 1_555
H74_2 C105_2 1_555 1_555
H75_3 C106_3 1_555 1_555
H76_3 C107_3 1_555 1_555
C109_2 C104_2 1_555 1_555
C110_2 C105_2 1_555 1_555
C111_3 C106_3 1_555 1_555
C112_3 C107_3 1_555 1_555
C114_2 C109_2 1_555 1_555
C115_2 C110_2 1_555 1_555
C116_3 C111_3 1_555 1_555
C117_3 C112_3 1_555 1_555
C119_2 C94_2 1_555 1_555
C120_2 C95_2 1_555 1_555
C121_3 C96_3 1_555 1_555
C122_3 C97_3 1_555 1_555
H78_2 C119_2 1_555 1_555
H79_2 C120_2 1_555 1_555
H80_3 C121_3 1_555 1_555
H81_3 C122_3 1_555 1_555
C124_2 C114_2 1_555 1_555
C125_2 C115_2 1_555 1_555
C126_3 C116_3 1_555 1_555
C127_3 C117_3 1_555 1_555
H83_2 C124_2 1_555 1_555
H84_2 C125_2 1_555 1_555
H85_3 C126_3 1_555 1_555
H86_3 C127_3 1_555 1_555
C129_2 C124_2 1_555 1_555
C130_2 C125_2 1_555 1_555
C131_3 C126_3 1_555 1_555
C132_3 C127_3 1_555 1_555
H88_2 C129_2 1_555 1_555
H89_2 C130_2 1_555 1_555
H90_3 C131_3 1_555 1_555
H91_3 C132_3 1_555 1_555
C134_2 C129_2 1_555 1_555
C135_2 C130_2 1_555 1_555
C136_3 C131_3 1_555 1_555
C137_3 C132_3 1_555 1_555
C139_2 C109_2 1_555 1_555
C140_2 C110_2 1_555 1_555
C141_3 C111_3 1_555 1_555
C142_3 C112_3 1_555 1_555
H93_2 C139_2 1_555 1_555
H94_2 C140_2 1_555 1_555
H95_3 C141_3 1_555 1_555
H96_3 C142_3 1_555 1_555
C144_2 C134_2 1_555 1_555
C145_2 C135_2 1_555 1_555
C146_3 C136_3 1_555 1_555
C147_3 C137_3 1_555 1_555
O14_2 C27_2 1_555 1_555
O10_2 C28_2 1_555 1_555
O12_3 C30_3 1_555 1_555
O19_2 C145_2 1_555 1_555
O20_2 C146_3 1_555 1_555
O21_3 C147_3 1_555 1_555
O30 C27_2 1_555 1_555
O27_2 C28_2 1_555 1_555
O36_2 C144_2 1_555 1_555
O37_2 C145_2 1_555 1_555
O39_3 C147_3 1_555 1_555
O46_2 C89_2 1_555 1_555
O47_2 C90_2 1_555 1_555
O48_3 C91_3 1_555 1_555
O49_3 C92_3 1_555 1_555
O51_2 C72_2 1_555 1_555
O52_2 C73_2 1_555 1_555
O54_3 C75_3 1_555 1_555
Zn6_4 O10_2 1_555 1_555
Zn6_3 O12_3 1_555 1_555
Zn13_2 O39_3 1_555 1_555
Zn14_2 O21_3 1_555 1_555
Zn15_2 O19_2 1_555 1_555
Zn21_2 O27_2 1_555 1_555
C52_2 C57_2 1_555 1_555
C53_2 C58_2 1_555 1_555
C72_2 C77_2 1_555 1_555
C73_2 C78_2 1_555 1_555
C75_3 C80_3 1_555 1_555
C82_2 O51_2 1_555 1_555
C83_2 C86_2 1_555 1_555
C83_2 O52_2 1_555 1_555
C85_3 C87_3 1_555 1_555
C85_3 O54_3 1_555 1_555
C94_2 O46_2 1_555 1_555
C95_2 O47_2 1_555 1_555
C96_3 O48_3 1_555 1_555
C97_3 O49_3 1_555 1_555
C114_2 C119_2 1_555 1_555
C115_2 C120_2 1_555 1_555
C116_3 C121_3 1_555 1_555
C117_3 C122_3 1_555 1_555
C134_2 C139_2 1_555 1_555
C135_2 C140_2 1_555 1_555
C136_3 C141_3 1_555 1_555
C137_3 C142_3 1_555 1_555
C144_2 O18_2 1_555 1_555
C146_3 O38_2 1_555 1_555
O37_2 Zn14_2 1_555 1_555
C1_4 C2_4 1_555 1_555
C2_4 C3_4 1_555 1_555
C3_4 H1_4 1_555 1_555
C4_4 C3_4 1_555 1_555
H2_4 C4_4 1_555 1_555
C5_4 C4_4 1_555 1_555
C6_4 C5_4 1_555 1_555
C7_4 C2_4 1_555 1_555
H3_4 C7_4 1_555 1_555
C8_4 C6_4 1_555 1_555
H4_4 C8_4 1_555 1_555
C9_4 C8_4 1_555 1_555
H5_4 C9_4 1_555 1_555
C10_4 C9_4 1_555 1_555
C11_4 C5_4 1_555 1_555
H6_4 C11_4 1_555 1_555
C12_4 H7_4 1_555 1_555
H8_4 C12_4 1_555 1_555
O1_2 C1_4 1_555 1_555
O3_2 C1_4 1_555 1_555
O5_2 Zn1_2 1_555 1_555
O7_4 C10_4 1_555 1_555
Zn1_2 O1_2 1_555 1_555
Zn2_2 O5_2 1_555 1_555
H27_4 C56_4 1_555 1_555
C61_4 C51_4 1_555 1_555
H32_4 C61_4 1_555 1_555
C66_4 C61_4 1_555 1_555
H37_4 C66_4 1_555 1_555
O15_2 Zn1_2 1_555 1_555
O16_2 Zn1_2 1_555 1_555
O32_2 Zn9_2 1_555 1_555
O33_2 Zn2_2 1_555 1_555
Zn8_2 O3_2 1_555 1_555
Zn9_2 O5_2 1_555 1_555
C6_4 C7_4 1_555 1_555
C10_4 C11_4 1_555 1_555
C12_4 O7_4 1_555 1_555
O5_2 Zn8_2 1_555 1_555
C51_4 C56_4 1_555 1_555
O34_2 Zn18 1_555 1_555
C14_4 C13_4 1_555 1_555
H9_4 C14_4 1_555 1_555
H10_4 C14_4 1_555 1_555
C15_4 C16_4 1_555 1_555
C16_4 H11_4 1_555 1_555
C17_4 C16_4 1_555 1_555
H12_4 C17_4 1_555 1_555
C18_4 C17_4 1_555 1_555
C19_4 C18_4 1_555 1_555
C20_4 C15_4 1_555 1_555
H13_4 C20_4 1_555 1_555
C21_4 C19_4 1_555 1_555
H14_4 C21_4 1_555 1_555
C22_4 C21_4 1_555 1_555
H15_4 C22_4 1_555 1_555
C23_4 C22_4 1_555 1_555
C24_4 C18_4 1_555 1_555
H16_4 C24_4 1_555 1_555
C25_4 C23_4 1_555 1_555
O22_2 C25_4 1_555 1_555
O4_2 C25_4 1_555 1_555
O6_4 C14_4 1_555 1_555
C26_4 C31_4 1_555 1_555
C31_4 C36_4 1_555 1_555
C36_4 H17_4 1_555 1_555
C41_4 C36_4 1_555 1_555
H22_4 C41_4 1_555 1_555
C46_4 C41_4 1_555 1_555
C76_4 C46_4 1_555 1_555
H42_4 C76_4 1_555 1_555
C81_4 C13_4 1_555 1_555
H47_4 C81_4 1_555 1_555
H52_4 C81_4 1_555 1_555
C88_4 C13_4 1_555 1_555
H57_4 C88_4 1_555 1_555
H62_4 C88_4 1_555 1_555
C93_4 C98_4 1_555 1_555
C98_4 H67_4 1_555 1_555
C103_4 C98_4 1_555 1_555
H72_4 C103_4 1_555 1_555
C108_4 C103_4 1_555 1_555
C113_4 C108_4 1_555 1_555
C118_4 C93_4 1_555 1_555
H77_4 C118_4 1_555 1_555
C123_4 C113_4 1_555 1_555
H82_4 C123_4 1_555 1_555
C128_4 C123_4 1_555 1_555
H87_4 C128_4 1_555 1_555
C133_4 C128_4 1_555 1_555
C138_4 C108_4 1_555 1_555
H92_4 C138_4 1_555 1_555
C143_4 C133_4 1_555 1_555
O8_4 C26_4 1_555 1_555
O17_4 C143_4 1_555 1_555
O35_4 C143_4 1_555 1_555
O45_4 C88_4 1_555 1_555
O50_4 C71_4 1_555 1_555
Zn4_8 O8_4 1_555 1_555
Zn22_2 O17_4 1_555 1_555
Zn23_3 O35_4 1_555 1_555
C15_4 O6_4 1_555 1_555
C19_4 C20_4 1_555 1_555
C23_4 C24_4 1_555 1_555
C71_4 C76_4 1_555 1_555
C81_4 O50_4 1_555 1_555
C93_4 O45_4 1_555 1_555
C113_4 C118_4 1_555 1_555
C133_4 C138_4 1_555 1_555
C30_4 C35_4 1_555 1_555
C35_4 C40_4 1_555 1_555
C40_4 H21_4 1_555 1_555
C45_4 C40_4 1_555 1_555
H26_4 C45_4 1_555 1_555
C50_4 C45_4 1_555 1_555
C80_4 C50_4 1_555 1_555
H46_4 C80_4 1_555 1_555
C85_4 H51_4 1_555 1_555
H56_4 C85_4 1_555 1_555
C91_4 C87_4 1_555 1_555
C92_4 C87_4 1_555 1_555
H60_4 C91_4 1_555 1_555
H61_4 C92_4 1_555 1_555
H65_4 C91_4 1_555 1_555
H66_4 C92_4 1_555 1_555
C96_4 C101_4 1_555 1_555
C97_4 C102_4 1_555 1_555
C101_4 H70_4 1_555 1_555
C102_4 H71_4 1_555 1_555
C106_4 C101_4 1_555 1_555
C107_4 C102_4 1_555 1_555
H75_4 C106_4 1_555 1_555
H76_4 C107_4 1_555 1_555
C111_4 C106_4 1_555 1_555
C112_4 C107_4 1_555 1_555
C116_4 C111_4 1_555 1_555
C117_4 C112_4 1_555 1_555
C121_4 C96_4 1_555 1_555
C122_4 C97_4 1_555 1_555
H80_4 C121_4 1_555 1_555
H81_4 C122_4 1_555 1_555
C126_4 C116_4 1_555 1_555
C127_4 C117_4 1_555 1_555
H85_4 C126_4 1_555 1_555
H86_4 C127_4 1_555 1_555
C131_4 C126_4 1_555 1_555
C132_4 C127_4 1_555 1_555
H90_4 C131_4 1_555 1_555
H91_4 C132_4 1_555 1_555
C136_4 C131_4 1_555 1_555
C137_4 C132_4 1_555 1_555
C141_4 C111_4 1_555 1_555
C142_4 C112_4 1_555 1_555
H95_4 C141_4 1_555 1_555
H96_4 C142_4 1_555 1_555
C146_4 C136_4 1_555 1_555
C147_4 C137_4 1_555 1_555
O12_4 C30_4 1_555 1_555
O24_2 C146_4 1_555 1_555
O21_4 C147_4 1_555 1_555
O39_4 C147_4 1_555 1_555
O48_4 C91_4 1_555 1_555
O49_4 C92_4 1_555 1_555
O54_4 C75_4 1_555 1_555
Zn6 O12_4 1_555 1_555
Zn15_2 O39_4 1_555 1_555
Zn13_2 O21_4 1_555 1_555
C75_4 C80_4 1_555 1_555
C85_4 C87_4 1_555 1_555
C85_4 O54_4 1_555 1_555
C96_4 O48_4 1_555 1_555
C97_4 O49_4 1_555 1_555
C116_4 C121_4 1_555 1_555
C117_4 C122_4 1_555 1_555
C136_4 C141_4 1_555 1_555
C137_4 C142_4 1_555 1_555
C146_4 O42_2 1_555 1_555
C1_5 C2_5 1_555 1_555
C2_5 C3_5 1_555 1_555
C3_5 H1_5 1_555 1_555
C4_5 C3_5 1_555 1_555
H2_5 C4_5 1_555 1_555
C5_5 C4_5 1_555 1_555
C6_5 C5_5 1_555 1_555
C7_5 C2_5 1_555 1_555
H3_5 C7_5 1_555 1_555
C8_5 C6_5 1_555 1_555
H4_5 C8_5 1_555 1_555
C9_5 C8_5 1_555 1_555
H5_5 C9_5 1_555 1_555
C10_5 C9_5 1_555 1_555
C11_5 C5_5 1_555 1_555
H6_5 C11_5 1_555 1_555
C12_5 H7_5 1_555 1_555
H8_5 C12_5 1_555 1_555
C13_5 C12_5 1_555 1_555
C14_5 C13_5 1_555 1_555
H9_5 C14_5 1_555 1_555
H10_5 C14_5 1_555 1_555
C15_5 C16_5 1_555 1_555
C16_5 H11_5 1_555 1_555
C17_5 C16_5 1_555 1_555
H12_5 C17_5 1_555 1_555
C18_5 C17_5 1_555 1_555
C19_5 C18_5 1_555 1_555
C20_5 C15_5 1_555 1_555
H13_5 C20_5 1_555 1_555
C21_5 C19_5 1_555 1_555
H14_5 C21_5 1_555 1_555
C22_5 C21_5 1_555 1_555
H15_5 C22_5 1_555 1_555
C23_5 C22_5 1_555 1_555
C24_5 C18_5 1_555 1_555
H16_5 C24_5 1_555 1_555
C25_5 C23_5 1_555 1_555
O15_2 C1_5 1_555 1_555
O2_2 C25_5 1_555 1_555
O32_2 C1_5 1_555 1_555
O40_2 C25_5 1_555 1_555
O6_5 C14_5 1_555 1_555
O7_5 C10_5 1_555 1_555
C26_5 C31_5 1_555 1_555
C31_5 C36_5 1_555 1_555
C36_5 H17_5 1_555 1_555
C41_5 C36_5 1_555 1_555
H22_5 C41_5 1_555 1_555
C46_5 C41_5 1_555 1_555
C51_5 C46_5 1_555 1_555
C56_5 C31_5 1_555 1_555
H27_5 C56_5 1_555 1_555
C61_5 C51_5 1_555 1_555
H32_5 C61_5 1_555 1_555
C66_5 C61_5 1_555 1_555
H37_5 C66_5 1_555 1_555
C71_5 C66_5 1_555 1_555
C76_5 C46_5 1_555 1_555
H42_5 C76_5 1_555 1_555
C81_5 C13_5 1_555 1_555
H47_5 C81_5 1_555 1_555
H52_5 C81_5 1_555 1_555
C88_5 C13_5 1_555 1_555
H57_5 C88_5 1_555 1_555
H62_5 C88_5 1_555 1_555
C93_5 C98_5 1_555 1_555
C98_5 H67_5 1_555 1_555
C103_5 C98_5 1_555 1_555
H72_5 C103_5 1_555 1_555
C108_5 C103_5 1_555 1_555
C113_5 C108_5 1_555 1_555
C118_5 C93_5 1_555 1_555
H77_5 C118_5 1_555 1_555
C123_5 C113_5 1_555 1_555
H82_5 C123_5 1_555 1_555
C128_5 C123_5 1_555 1_555
H87_5 C128_5 1_555 1_555
C133_5 C128_5 1_555 1_555
C138_5 C108_5 1_555 1_555
H92_5 C138_5 1_555 1_555
C143_5 C133_5 1_555 1_555
O8_5 C26_5 1_555 1_555
O17_5 C143_5 1_555 1_555
O25_5 C26_5 1_555 1_555
O35_5 C143_5 1_555 1_555
O45_5 C88_5 1_555 1_555
O50_5 C71_5 1_555 1_555
Zn4_5 O8_5 1_555 1_555
Zn16_5 O25_5 1_555 1_555
Zn23_3 O17_5 1_555 1_555
Zn23_4 O35_5 1_555 1_555
C6_5 C7_5 1_555 1_555
C10_5 C11_5 1_555 1_555
C12_5 O7_5 1_555 1_555
C15_5 O6_5 1_555 1_555
C19_5 C20_5 1_555 1_555
C23_5 C24_5 1_555 1_555
C51_5 C56_5 1_555 1_555
C71_5 C76_5 1_555 1_555
C81_5 O50_5 1_555 1_555
C93_5 O45_5 1_555 1_555
C113_5 C118_5 1_555 1_555
C133_5 C138_5 1_555 1_555
C29_4 C34_4 1_555 1_555
C34_4 C39_4 1_555 1_555
C39_4 H20_4 1_555 1_555
C44_4 C39_4 1_555 1_555
H25_4 C44_4 1_555 1_555
C49_4 C44_4 1_555 1_555
C54_4 C49_4 1_555 1_555
C59_4 C34_4 1_555 1_555
H30_4 C59_4 1_555 1_555
H31_4 C60_4 1_555 1_555
C64_4 C54_4 1_555 1_555
C65_4 C55_4 1_555 1_555
H35_4 C64_4 1_555 1_555
H36_4 C65_4 1_555 1_555
C69_4 C64_4 1_555 1_555
C70_4 C65_4 1_555 1_555
H40_4 C69_4 1_555 1_555
H41_4 C70_4 1_555 1_555
C74_4 C69_4 1_555 1_555
C79_4 C49_4 1_555 1_555
H45_4 C79_4 1_555 1_555
C84_4 H50_4 1_555 1_555
H55_4 C84_4 1_555 1_555
O13_2 C29_4 1_555 1_555
O34_2 C29_4 1_555 1_555
O53_4 C74_4 1_555 1_555
C54_4 C59_4 1_555 1_555
C55_4 C60_4 1_555 1_555
C74_4 C79_4 1_555 1_555
C84_4 O53_4 1_555 1_555
C14_6 C13_6 1_555 1_555
H9_6 C14_6 1_555 1_555
H10_6 C14_6 1_555 1_555
C15_6 C16_6 1_555 1_555
C16_6 H11_6 1_555 1_555
C17_6 C16_6 1_555 1_555
H12_6 C17_6 1_555 1_555
C18_6 C17_6 1_555 1_555
C19_6 C18_6 1_555 1_555
C20_6 C15_6 1_555 1_555
H13_6 C20_6 1_555 1_555
C21_6 C19_6 1_555 1_555
H14_6 C21_6 1_555 1_555
C22_6 C21_6 1_555 1_555
H15_6 C22_6 1_555 1_555
C23_6 C22_6 1_555 1_555
C24_6 C18_6 1_555 1_555
H16_6 C24_6 1_555 1_555
C25_6 C23_6 1_555 1_555
O23_2 C25_6 1_555 1_555
O41_2 C25_6 1_555 1_555
O6_6 C14_6 1_555 1_555
C26_6 C31_6 1_555 1_555
C31_6 C36_6 1_555 1_555
C36_6 H17_6 1_555 1_555
C41_6 C36_6 1_555 1_555
H22_6 C41_6 1_555 1_555
C46_6 C41_6 1_555 1_555
C76_6 C46_6 1_555 1_555
H42_6 C76_6 1_555 1_555
C81_6 C13_6 1_555 1_555
H47_6 C81_6 1_555 1_555
H52_6 C81_6 1_555 1_555
C88_6 C13_6 1_555 1_555
H57_6 C88_6 1_555 1_555
H62_6 C88_6 1_555 1_555
C93_6 C98_6 1_555 1_555
C98_6 H67_6 1_555 1_555
C103_6 C98_6 1_555 1_555
H72_6 C103_6 1_555 1_555
C108_6 C103_6 1_555 1_555
C113_6 C108_6 1_555 1_555
C118_6 C93_6 1_555 1_555
H77_6 C118_6 1_555 1_555
C123_6 C113_6 1_555 1_555
H82_6 C123_6 1_555 1_555
C128_6 C123_6 1_555 1_555
H87_6 C128_6 1_555 1_555
C133_6 C128_6 1_555 1_555
C138_6 C108_6 1_555 1_555
H92_6 C138_6 1_555 1_555
C143_6 C133_6 1_555 1_555
O8_6 C26_6 1_555 1_555
O17_6 C143_6 1_555 1_555
O35_6 C143_6 1_555 1_555
O45_6 C88_6 1_555 1_555
O50_6 C71_6 1_555 1_555
Zn4_6 O8_6 1_555 1_555
Zn23_4 O17_6 1_555 1_555
Zn22_2 O35_6 1_555 1_555
C15_6 O6_6 1_555 1_555
C19_6 C20_6 1_555 1_555
C23_6 C24_6 1_555 1_555
C71_6 C76_6 1_555 1_555
C81_6 O50_6 1_555 1_555
C93_6 O45_6 1_555 1_555
C113_6 C118_6 1_555 1_555
C133_6 C138_6 1_555 1_555
C1_6 C2_6 1_555 1_555
C2_6 C3_6 1_555 1_555
C3_6 H1_6 1_555 1_555
C4_6 C3_6 1_555 1_555
H2_6 C4_6 1_555 1_555
C5_6 C4_6 1_555 1_555
C6_6 C5_6 1_555 1_555
C7_6 C2_6 1_555 1_555
H3_6 C7_6 1_555 1_555
C8_6 C6_6 1_555 1_555
H4_6 C8_6 1_555 1_555
C9_6 C8_6 1_555 1_555
H5_6 C9_6 1_555 1_555
C10_6 C9_6 1_555 1_555
C11_6 C5_6 1_555 1_555
H6_6 C11_6 1_555 1_555
C12_6 H7_6 1_555 1_555
H8_6 C12_6 1_555 1_555
O16_2 C1_6 1_555 1_555
O33_2 C1_6 1_555 1_555
O7_6 C10_6 1_555 1_555
H27_6 C56_6 1_555 1_555
C61_6 C51_6 1_555 1_555
H32_6 C61_6 1_555 1_555
C66_6 C61_6 1_555 1_555
H37_6 C66_6 1_555 1_555
C6_6 C7_6 1_555 1_555
C10_6 C11_6 1_555 1_555
C12_6 O7_6 1_555 1_555
C51_6 C56_6 1_555 1_555
O5_3 Zn4_5 1_555 1_555
C30_5 C35_5 1_555 1_555
C35_5 C40_5 1_555 1_555
C40_5 H21_5 1_555 1_555
C45_5 C40_5 1_555 1_555
H26_5 C45_5 1_555 1_555
C50_5 C45_5 1_555 1_555
C55_5 C50_5 1_555 1_555
C60_5 C35_5 1_555 1_555
H31_5 C60_5 1_555 1_555
C65_5 C55_5 1_555 1_555
H36_5 C65_5 1_555 1_555
C70_5 C65_5 1_555 1_555
H41_5 C70_5 1_555 1_555
C75_5 C70_5 1_555 1_555
C80_5 C50_5 1_555 1_555
H46_5 C80_5 1_555 1_555
C85_5 H51_5 1_555 1_555
H56_5 C85_5 1_555 1_555
C91_5 C87_5 1_555 1_555
H60_5 C91_5 1_555 1_555
H65_5 C91_5 1_555 1_555
C97_5 C102_5 1_555 1_555
C102_5 H71_5 1_555 1_555
C107_5 C102_5 1_555 1_555
H76_5 C107_5 1_555 1_555
C112_5 C107_5 1_555 1_555
H80_5 C121_5 1_555 1_555
C126_5 C116_5 1_555 1_555
H85_5 C126_5 1_555 1_555
C131_5 C126_5 1_555 1_555
H90_5 C131_5 1_555 1_555
C136_5 C131_5 1_555 1_555
C142_5 C112_5 1_555 1_555
H96_5 C142_5 1_555 1_555
C146_5 C136_5 1_555 1_555
O12_5 C30_5 1_555 1_555
O20_3 C146_5 1_555 1_555
O29_5 C30_5 1_555 1_555
O31_2 Zn23_3 1_555 1_555
O34_3 Zn23_4 1_555 1_555
O42_3 Zn16_5 1_555 1_555
O44_2 Zn23_3 1_555 1_555
O54_5 C75_5 1_555 1_555
Zn7_5 O12_5 1_555 1_555
Zn16_3 O39_5 1_555 1_555
Zn22 O29_5 1_555 1_555
O5_3 Zn16_5 1_555 1_555
C55_5 C60_5 1_555 1_555
C75_5 C80_5 1_555 1_555
C85_5 C87_5 1_555 1_555
C85_5 O54_5 1_555 1_555
C97_5 O49_5 1_555 1_555
C116_5 C121_5 1_555 1_555
C137_5 C142_5 1_555 1_555
O20_3 Zn16_5 1_555 1_555
O44_2 Zn23_4 1_555 1_555
O5_4 Zn4_6 1_555 1_555
Zn16_6 O5_4 1_555 1_555
C29_5 C34_5 1_555 1_555
C34_5 C39_5 1_555 1_555
C39_5 H20_5 1_555 1_555
C44_5 C39_5 1_555 1_555
H25_5 C44_5 1_555 1_555
C49_5 C44_5 1_555 1_555
C54_5 C49_5 1_555 1_555
C59_5 C34_5 1_555 1_555
H30_5 C59_5 1_555 1_555
C64_5 C54_5 1_555 1_555
H35_5 C64_5 1_555 1_555
C69_5 C64_5 1_555 1_555
H40_5 C69_5 1_555 1_555
C74_5 C69_5 1_555 1_555
C79_5 C49_5 1_555 1_555
H45_5 C79_5 1_555 1_555
C84_5 H50_5 1_555 1_555
H55_5 C84_5 1_555 1_555
H61_5 C92_5 1_555 1_555
H66_5 C92_5 1_555 1_555
C96_5 C101_5 1_555 1_555
C101_5 H70_5 1_555 1_555
C106_5 C101_5 1_555 1_555
H75_5 C106_5 1_555 1_555
C111_5 C106_5 1_555 1_555
H81_5 C122_5 1_555 1_555
C127_5 C117_5 1_555 1_555
H86_5 C127_5 1_555 1_555
C132_5 C127_5 1_555 1_555
H91_5 C132_5 1_555 1_555
C137_6 C132_5 1_555 1_555
C141_5 C111_5 1_555 1_555
H95_5 C141_5 1_555 1_555
C147_5 C137_6 1_555 1_555
O11_3 C29_5 1_555 1_555
O13_3 Zn3_3 1_555 1_555
O14_3 Zn3_3 1_555 1_555
O21_5 C147_5 1_555 1_555
O28_3 C29_5 1_555 1_555
O38_3 Zn16_6 1_555 1_555
O44_2 Zn3_3 1_555 1_555
O53_5 C74_5 1_555 1_555
Zn3_3 O11_3 1_555 1_555
Zn22_2 O28_3 1_555 1_555
C54_5 C59_5 1_555 1_555
C74_5 C79_5 1_555 1_555
C84_5 O53_5 1_555 1_555
C96_5 O48_5 1_555 1_555
C117_5 C122_5 1_555 1_555
C136_6 C141_5 1_555 1_555
O44_2 Zn22_2 1_555 1_555
O5_5 Zn4_7 1_555 1_555
O5_6 Zn4_8 1_555 1_555
C27_3 C32_3 1_555 1_555
C28_3 C33_3 1_555 1_555
C32_3 C37_3 1_555 1_555
C33_3 C38_3 1_555 1_555
C37_3 H18_3 1_555 1_555
C38_3 H19_3 1_555 1_555
C42_3 C37_3 1_555 1_555
C43_3 C38_3 1_555 1_555
H23_3 C42_3 1_555 1_555
H24_3 C43_3 1_555 1_555
C47_3 C42_3 1_555 1_555
C48_3 C43_3 1_555 1_555
C52_3 C47_3 1_555 1_555
C53_3 C48_3 1_555 1_555
C57_3 C32_3 1_555 1_555
C58_3 C33_3 1_555 1_555
H28_3 C57_3 1_555 1_555
H29_3 C58_3 1_555 1_555
C62_3 C52_3 1_555 1_555
C63_3 C53_3 1_555 1_555
H33_3 C62_3 1_555 1_555
H34_3 C63_3 1_555 1_555
C67_3 C62_3 1_555 1_555
C68_3 C63_3 1_555 1_555
H38_3 C67_3 1_555 1_555
H39_3 C68_3 1_555 1_555
C72_3 C67_3 1_555 1_555
C73_3 C68_3 1_555 1_555
C77_3 C47_3 1_555 1_555
C78_3 C48_3 1_555 1_555
H43_3 C77_3 1_555 1_555
H44_3 C78_3 1_555 1_555
C82_3 H48_3 1_555 1_555
C83_3 H49_3 1_555 1_555
H53_3 C82_3 1_555 1_555
H54_3 C83_3 1_555 1_555
C86_3 C82_3 1_555 1_555
C89_3 C86_3 1_555 1_555
C90_3 C86_3 1_555 1_555
H58_3 C89_3 1_555 1_555
H59_3 C90_3 1_555 1_555
H63_3 C89_3 1_555 1_555
H64_3 C90_3 1_555 1_555
C94_3 C99_3 1_555 1_555
C95_3 C100_3 1_555 1_555
C99_3 H68_3 1_555 1_555
C100_3 H69_3 1_555 1_555
C104_3 C99_3 1_555 1_555
C105_3 C100_3 1_555 1_555
H73_3 C104_3 1_555 1_555
H74_3 C105_3 1_555 1_555
C109_3 C104_3 1_555 1_555
C110_3 C105_3 1_555 1_555
C114_3 C109_3 1_555 1_555
C115_3 C110_3 1_555 1_555
C119_3 C94_3 1_555 1_555
C120_3 C95_3 1_555 1_555
H78_3 C119_3 1_555 1_555
H79_3 C120_3 1_555 1_555
C124_3 C114_3 1_555 1_555
C125_3 C115_3 1_555 1_555
H83_3 C124_3 1_555 1_555
H84_3 C125_3 1_555 1_555
C129_3 C124_3 1_555 1_555
C130_3 C125_3 1_555 1_555
H88_3 C129_3 1_555 1_555
H89_3 C130_3 1_555 1_555
C134_3 C129_3 1_555 1_555
C135_3 C130_3 1_555 1_555
C139_3 C109_3 1_555 1_555
C140_3 C110_3 1_555 1_555
H93_3 C139_3 1_555 1_555
H94_3 C140_3 1_555 1_555
C144_3 C134_3 1_555 1_555
C145_3 C135_3 1_555 1_555
O14_3 C27_3 1_555 1_555
O10_3 C28_3 1_555 1_555
O19_3 C145_3 1_555 1_555
O31_2 C27_3 1_555 1_555
O27_3 C28_3 1_555 1_555
O36_3 C144_3 1_555 1_555
O37_3 C145_3 1_555 1_555
O46_3 C89_3 1_555 1_555
O47_3 C90_3 1_555 1_555
O51_3 C72_3 1_555 1_555
O52_3 C73_3 1_555 1_555
Zn7_5 O10_3 1_555 1_555
Zn16_4 O5_6 1_555 1_555
Zn23_2 O27_3 1_555 1_555
C52_3 C57_3 1_555 1_555
C53_3 C58_3 1_555 1_555
C72_3 C77_3 1_555 1_555
C73_3 C78_3 1_555 1_555
C82_3 O51_3 1_555 1_555
C83_3 C86_3 1_555 1_555
C83_3 O52_3 1_555 1_555
C94_3 O46_3 1_555 1_555
C95_3 O47_3 1_555 1_555
C114_3 C119_3 1_555 1_555
C115_3 C120_3 1_555 1_555
C134_3 C139_3 1_555 1_555
C135_3 C140_3 1_555 1_555
C144_3 O18_3 1_555 1_555
O36_3 Zn16_4 1_555 1_555
O37_3 Zn16_2 1_555 1_555
C29_6 C34_6 1_555 1_555
C34_6 C39_6 1_555 1_555
C39_6 H20_6 1_555 1_555
C44_6 C39_6 1_555 1_555
H25_6 C44_6 1_555 1_555
C49_6 C44_6 1_555 1_555
C54_6 C49_6 1_555 1_555
C59_6 C34_6 1_555 1_555
H30_6 C59_6 1_555 1_555
C64_6 C54_6 1_555 1_555
H35_6 C64_6 1_555 1_555
C69_6 C64_6 1_555 1_555
H40_6 C69_6 1_555 1_555
C74_6 C69_6 1_555 1_555
C79_6 C49_6 1_555 1_555
H45_6 C79_6 1_555 1_555
C84_6 H50_6 1_555 1_555
H55_6 C84_6 1_555 1_555
H61_6 C92_6 1_555 1_555
H66_6 C92_6 1_555 1_555
C96_6 C101_6 1_555 1_555
C101_6 H70_6 1_555 1_555
C106_6 C101_6 1_555 1_555
H75_6 C106_6 1_555 1_555
C111_6 C106_6 1_555 1_555
H81_6 C122_6 1_555 1_555
C127_6 C117_6 1_555 1_555
H86_6 C127_6 1_555 1_555
C132_6 C127_6 1_555 1_555
H91_6 C132_6 1_555 1_555
C137_7 C132_6 1_555 1_555
C141_6 C111_6 1_555 1_555
H95_6 C141_6 1_555 1_555
C147_6 C137_7 1_555 1_555
O13_3 C29_6 1_555 1_555
O21_6 C147_6 1_555 1_555
O34_3 C29_6 1_555 1_555
O53_6 C74_6 1_555 1_555
Zn16_3 O21_6 1_555 1_555
C54_6 C59_6 1_555 1_555
C74_6 C79_6 1_555 1_555
C84_6 O53_6 1_555 1_555
C96_6 O48_6 1_555 1_555
C117_6 C122_6 1_555 1_555
C136_7 C141_6 1_555 1_555
C30_6 C35_6 1_555 1_555
C35_6 C40_6 1_555 1_555
C40_6 H21_6 1_555 1_555
C45_6 C40_6 1_555 1_555
H26_6 C45_6 1_555 1_555
C50_6 C45_6 1_555 1_555
C55_6 C50_6 1_555 1_555
C60_6 C35_6 1_555 1_555
H31_6 C60_6 1_555 1_555
C65_6 C55_6 1_555 1_555
H36_6 C65_6 1_555 1_555
C70_6 C65_6 1_555 1_555
H41_6 C70_6 1_555 1_555
C75_6 C70_6 1_555 1_555
C80_6 C50_6 1_555 1_555
H46_6 C80_6 1_555 1_555
C85_6 H51_6 1_555 1_555
H56_6 C85_6 1_555 1_555
C91_6 C87_6 1_555 1_555
H60_6 C91_6 1_555 1_555
H65_6 C91_6 1_555 1_555
C97_6 C102_6 1_555 1_555
C102_6 H71_6 1_555 1_555
C107_6 C102_6 1_555 1_555
H76_6 C107_6 1_555 1_555
C112_6 C107_6 1_555 1_555
H80_6 C121_6 1_555 1_555
C126_6 C116_6 1_555 1_555
H85_6 C126_6 1_555 1_555
C131_6 C126_6 1_555 1_555
H90_6 C131_6 1_555 1_555
C136_8 C131_6 1_555 1_555
C142_6 C112_6 1_555 1_555
H96_6 C142_6 1_555 1_555
C146_6 C136_8 1_555 1_555
O12_6 C30_6 1_555 1_555
O24_3 C146_6 1_555 1_555
O29_6 C30_6 1_555 1_555
O54_6 C75_6 1_555 1_555
Zn7_5 O12_6 1_555 1_555
Zn16 O39_6 1_555 1_555
Zn23 O29_6 1_555 1_555
C55_6 C60_6 1_555 1_555
C75_6 C80_6 1_555 1_555
C85_6 C87_6 1_555 1_555
C85_6 O54_6 1_555 1_555
C97_6 O49_6 1_555 1_555
C116_6 C121_6 1_555 1_555
C137_8 C142_6 1_555 1_555
O43_2 Zn7 1_555 1_555
Zn21 O43_2 1_555 1_555
O40_3 Zn20_2 1_555 1_555
O43_3 Zn7_2 1_555 1_555
Zn20_2 O43_3 1_555 1_555
O43_4 Zn7_3 1_555 1_555
C1_7 C2_7 1_555 1_555
C2_7 C3_7 1_555 1_555
C3_7 H1_7 1_555 1_555
C4_7 C3_7 1_555 1_555
H2_7 C4_7 1_555 1_555
C5_7 C4_7 1_555 1_555
C6_7 C5_7 1_555 1_555
C7_7 C2_7 1_555 1_555
H3_7 C7_7 1_555 1_555
C8_7 C6_7 1_555 1_555
H4_7 C8_7 1_555 1_555
C9_7 C8_7 1_555 1_555
H5_7 C9_7 1_555 1_555
C10_7 C9_7 1_555 1_555
C11_7 C5_7 1_555 1_555
H6_7 C11_7 1_555 1_555
C12_7 H7_7 1_555 1_555
H8_7 C12_7 1_555 1_555
C13_7 C12_7 1_555 1_555
C14_7 C13_7 1_555 1_555
H9_7 C14_7 1_555 1_555
H10_7 C14_7 1_555 1_555
C15_7 C16_7 1_555 1_555
C16_7 H11_7 1_555 1_555
C17_7 C16_7 1_555 1_555
H12_7 C17_7 1_555 1_555
C18_7 C17_7 1_555 1_555
C19_7 C18_7 1_555 1_555
C20_7 C15_7 1_555 1_555
H13_7 C20_7 1_555 1_555
C21_7 C19_7 1_555 1_555
H14_7 C21_7 1_555 1_555
C22_7 C21_7 1_555 1_555
H15_7 C22_7 1_555 1_555
C23_7 C22_7 1_555 1_555
C24_7 C18_7 1_555 1_555
H16_7 C24_7 1_555 1_555
C25_7 C23_7 1_555 1_555
O1_3 C1_7 1_555 1_555
O22_3 C25_7 1_555 1_555
O3_3 C1_7 1_555 1_555
O4_3 C25_7 1_555 1_555
O5_7 Zn1_3 1_555 1_555
O6_7 C14_7 1_555 1_555
O7_7 C10_7 1_555 1_555
Zn1_3 O1_3 1_555 1_555
Zn13 O5_7 1_555 1_555
C26_7 C31_7 1_555 1_555
C31_7 C36_7 1_555 1_555
C36_7 H17_7 1_555 1_555
C41_7 C36_7 1_555 1_555
H22_7 C41_7 1_555 1_555
C46_7 C41_7 1_555 1_555
C51_7 C46_7 1_555 1_555
C56_7 C31_7 1_555 1_555
H27_7 C56_7 1_555 1_555
C61_7 C51_7 1_555 1_555
H32_7 C61_7 1_555 1_555
C66_7 C61_7 1_555 1_555
H37_7 C66_7 1_555 1_555
C71_7 C66_7 1_555 1_555
C76_7 C46_7 1_555 1_555
H42_7 C76_7 1_555 1_555
C81_7 C13_7 1_555 1_555
H47_7 C81_7 1_555 1_555
H52_7 C81_7 1_555 1_555
C88_7 C13_7 1_555 1_555
H57_7 C88_7 1_555 1_555
H62_7 C88_7 1_555 1_555
C93_7 C98_7 1_555 1_555
C98_7 H67_7 1_555 1_555
C103_7 C98_7 1_555 1_555
H72_7 C103_7 1_555 1_555
C108_7 C103_7 1_555 1_555
C113_7 C108_7 1_555 1_555
C118_7 C93_7 1_555 1_555
H77_7 C118_7 1_555 1_555
C123_7 C113_7 1_555 1_555
H82_7 C123_7 1_555 1_555
C128_7 C123_7 1_555 1_555
H87_7 C128_7 1_555 1_555
C133_7 C128_7 1_555 1_555
C138_7 C108_7 1_555 1_555
H92_7 C138_7 1_555 1_555
C143_7 C133_7 1_555 1_555
O8_7 C26_7 1_555 1_555
O15_3 Zn1_3 1_555 1_555
O16_3 Zn1_3 1_555 1_555
O17_7 C143_7 1_555 1_555
O25_7 C26_7 1_555 1_555
O32_3 Zn15 1_555 1_555
O33_3 Zn13 1_555 1_555
O35_7 C143_7 1_555 1_555
O43_5 Zn7_4 1_555 1_555
O45_7 C88_7 1_555 1_555
O50_7 C71_7 1_555 1_555
Zn4_9 O8_7 1_555 1_555
Zn14 O3_3 1_555 1_555
Zn15 O5_7 1_555 1_555
Zn21 O4_3 1_555 1_555
Zn15_2 O25_7 1_555 1_555
Zn20_4 O35_7 1_555 1_555
C6_7 C7_7 1_555 1_555
C10_7 C11_7 1_555 1_555
C12_7 O7_7 1_555 1_555
C15_7 O6_7 1_555 1_555
C19_7 C20_7 1_555 1_555
C23_7 C24_7 1_555 1_555
O5_7 Zn14 1_555 1_555
C51_7 C56_7 1_555 1_555
C71_7 C76_7 1_555 1_555
C81_7 O50_7 1_555 1_555
C93_7 O45_7 1_555 1_555
C113_7 C118_7 1_555 1_555
C133_7 C138_7 1_555 1_555
O43_5 Zn20 1_555 1_555
C1_8 C2_8 1_555 1_555
C2_8 C3_8 1_555 1_555
C3_8 H1_8 1_555 1_555
C4_8 C3_8 1_555 1_555
H2_8 C4_8 1_555 1_555
C5_8 C4_8 1_555 1_555
C6_8 C5_8 1_555 1_555
C7_8 C2_8 1_555 1_555
H3_8 C7_8 1_555 1_555
C8_8 C6_8 1_555 1_555
H4_8 C8_8 1_555 1_555
C9_8 C8_8 1_555 1_555
H5_8 C9_8 1_555 1_555
C10_8 C9_8 1_555 1_555
C11_8 C5_8 1_555 1_555
H6_8 C11_8 1_555 1_555
C12_8 H7_8 1_555 1_555
H8_8 C12_8 1_555 1_555
C15_8 C16_8 1_555 1_555
C16_8 H11_8 1_555 1_555
C17_8 C16_8 1_555 1_555
H12_8 C17_8 1_555 1_555
C18_8 C17_8 1_555 1_555
C24_8 C18_8 1_555 1_555
H16_8 C24_8 1_555 1_555
O15_3 C1_8 1_555 1_555
O32_3 C1_8 1_555 1_555
O7_8 C10_8 1_555 1_555
H57_8 C88_8 1_555 1_555
H62_8 C88_8 1_555 1_555
H77_8 C118_8 1_555 1_555
C123_8 C113_8 1_555 1_555
H82_8 C123_8 1_555 1_555
C128_8 C123_8 1_555 1_555
H87_8 C128_8 1_555 1_555
C133_8 C128_8 1_555 1_555
C143_8 C133_8 1_555 1_555
O17_8 C143_8 1_555 1_555
C6_8 C7_8 1_555 1_555
C10_8 C11_8 1_555 1_555
C12_8 O7_8 1_555 1_555
C15_8 O6_8 1_555 1_555
C23_8 C24_8 1_555 1_555
C113_8 C118_8 1_555 1_555
C14_8 C13_8 1_555 1_555
H9_8 C14_8 1_555 1_555
H10_8 C14_8 1_555 1_555
H13_8 C20_8 1_555 1_555
C21_8 C19_8 1_555 1_555
H14_8 C21_8 1_555 1_555
C22_8 C21_8 1_555 1_555
H15_8 C22_8 1_555 1_555
C23_9 C22_8 1_555 1_555
C25_8 C23_9 1_555 1_555
O2_3 C25_8 1_555 1_555
C26_8 C31_8 1_555 1_555
C31_8 C36_8 1_555 1_555
C36_8 H17_8 1_555 1_555
C41_8 C36_8 1_555 1_555
H22_8 C41_8 1_555 1_555
C46_8 C41_8 1_555 1_555
C51_8 C46_8 1_555 1_555
C56_8 C31_8 1_555 1_555
H27_8 C56_8 1_555 1_555
C61_8 C51_8 1_555 1_555
H32_8 C61_8 1_555 1_555
C66_8 C61_8 1_555 1_555
H37_8 C66_8 1_555 1_555
C71_8 C66_8 1_555 1_555
C76_8 C46_8 1_555 1_555
H42_8 C76_8 1_555 1_555
C81_8 C13_8 1_555 1_555
H47_8 C81_8 1_555 1_555
H52_8 C81_8 1_555 1_555
C93_8 C98_8 1_555 1_555
C98_8 H67_8 1_555 1_555
C103_8 C98_8 1_555 1_555
H72_8 C103_8 1_555 1_555
C108_8 C103_8 1_555 1_555
C138_8 C108_8 1_555 1_555
H92_8 C138_8 1_555 1_555
O8_8 C26_8 1_555 1_555
O25_8 C26_8 1_555 1_555
O41_3 Zn20 1_555 1_555
O50_8 C71_8 1_555 1_555
Zn4_9 O8_8 1_555 1_555
Zn20 O2_3 1_555 1_555
Zn14_2 O25_8 1_555 1_555
Zn21_2 O35_8 1_555 1_555
C19_8 C20_8 1_555 1_555
C51_8 C56_8 1_555 1_555
C71_8 C76_8 1_555 1_555
C81_8 O50_8 1_555 1_555
C93_8 O45_8 1_555 1_555
C133_9 C138_8 1_555 1_555
C14_9 C13_9 1_555 1_555
H9_9 C14_9 1_555 1_555
H10_9 C14_9 1_555 1_555
H13_9 C20_9 1_555 1_555
C21_9 C19_9 1_555 1_555
H14_9 C21_9 1_555 1_555
C22_9 C21_9 1_555 1_555
H15_9 C22_9 1_555 1_555
C23_10 C22_9 1_555 1_555
C25_9 C23_10 1_555 1_555
O23_3 C25_9 1_555 1_555
C26_9 C31_9 1_555 1_555
C31_9 C36_9 1_555 1_555
C36_9 H17_9 1_555 1_555
C41_9 C36_9 1_555 1_555
H22_9 C41_9 1_555 1_555
C46_9 C41_9 1_555 1_555
C51_9 C46_9 1_555 1_555
C56_9 C31_9 1_555 1_555
H27_9 C56_9 1_555 1_555
C61_9 C51_9 1_555 1_555
H32_9 C61_9 1_555 1_555
C66_9 C61_9 1_555 1_555
H37_9 C66_9 1_555 1_555
C71_9 C66_9 1_555 1_555
C76_9 C46_9 1_555 1_555
H42_9 C76_9 1_555 1_555
C81_9 C13_9 1_555 1_555
H47_9 C81_9 1_555 1_555
H52_9 C81_9 1_555 1_555
C93_9 C98_9 1_555 1_555
C98_9 H67_9 1_555 1_555
C103_9 C98_9 1_555 1_555
H72_9 C103_9 1_555 1_555
C108_9 C103_9 1_555 1_555
C138_9 C108_9 1_555 1_555
H92_9 C138_9 1_555 1_555
O8_9 C26_9 1_555 1_555
O25_9 C26_9 1_555 1_555
O50_9 C71_9 1_555 1_555
Zn4_9 O8_9 1_555 1_555
Zn13_2 O25_9 1_555 1_555
Zn20_3 O35_9 1_555 1_555
C19_9 C20_9 1_555 1_555
C51_9 C56_9 1_555 1_555
C71_9 C76_9 1_555 1_555
C81_9 O50_9 1_555 1_555
C93_9 O45_9 1_555 1_555
C133_10 C138_9 1_555 1_555
C1_9 C2_9 1_555 1_555
C2_9 C3_9 1_555 1_555
C3_9 H1_9 1_555 1_555
C4_9 C3_9 1_555 1_555
H2_9 C4_9 1_555 1_555
C5_9 C4_9 1_555 1_555
C6_9 C5_9 1_555 1_555
C7_9 C2_9 1_555 1_555
H3_9 C7_9 1_555 1_555
C8_9 C6_9 1_555 1_555
H4_9 C8_9 1_555 1_555
C9_9 C8_9 1_555 1_555
H5_9 C9_9 1_555 1_555
C10_9 C9_9 1_555 1_555
C11_9 C5_9 1_555 1_555
H6_9 C11_9 1_555 1_555
C12_9 H7_9 1_555 1_555
H8_9 C12_9 1_555 1_555
C15_9 C16_9 1_555 1_555
C16_9 H11_9 1_555 1_555
C17_9 C16_9 1_555 1_555
H12_9 C17_9 1_555 1_555
C18_9 C17_9 1_555 1_555
C24_9 C18_9 1_555 1_555
H16_9 C24_9 1_555 1_555
O16_3 C1_9 1_555 1_555
O33_3 C1_9 1_555 1_555
O7_9 C10_9 1_555 1_555
H57_9 C88_9 1_555 1_555
H62_9 C88_9 1_555 1_555
H77_9 C118_9 1_555 1_555
C123_9 C113_9 1_555 1_555
H82_9 C123_9 1_555 1_555
C128_9 C123_9 1_555 1_555
H87_9 C128_9 1_555 1_555
C133_11 C128_9 1_555 1_555
C143_9 C133_11 1_555 1_555
O17_9 C143_9 1_555 1_555
Zn21_2 O17_9 1_555 1_555
C6_9 C7_9 1_555 1_555
C10_9 C11_9 1_555 1_555
C12_9 O7_9 1_555 1_555
C15_9 O6_9 1_555 1_555
C23_11 C24_9 1_555 1_555
C113_9 C118_9 1_555 1_555
O44_3 Zn20_4 1_555 1_555
C88_8 C13_10 1_555 1_555
C12_8 C13_10 1_555 1_555
O44_3 Zn6 1_555 1_555
O44_4 Zn6_2 1_555 1_555
O5_8 Zn4_9 1_555 1_555
Zn13_2 O5_8 1_555 1_555
O44_5 Zn6_3 1_555 1_555
Zn15_2 O5_8 1_555 1_555
O5_8 Zn14_2 1_555 1_555
O44_5 Zn20_3 1_555 1_555
O44_6 Zn21_2 1_555 1_555
O44_6 Zn6_4 1_555 1_555
C88_9 C13_11 1_555 1_555
C12_9 C13_11 1_555 1_555
O5_9 Zn4 1_555 1_555
Zn16_3 O5_9 1_555 1_555
C92_6 C86_4 1_555 1_555
O43_6 Zn7_5 1_555 1_555
Zn23 O43_6 1_555 1_555
Zn23_2 O43_6 1_555 1_555
C84_6 C86_4 1_555 1_555
O43_6 Zn22 1_555 1_555
O5_10 Zn4_2 1_555 1_555
C92_5 C87_7 1_555 1_555
C84_5 C87_7 1_555 1_555
O5_11 Zn4_3 1_555 1_555
Zn16 O5_11 1_555 1_555
O5_12 Zn4_4 1_555 1_555
O5_12 Zn16_2 1_555 1_555

#END
