
###############################################################################
#
# This file contains modified crystal structure data generated from the
# MOF subset of the Cambridge Structural Database (CSD) v543 
# hosted by the Cambridge Crystallographic Data Centre (CCDC).
#
# This work is licensed under the Creative Commons
# Attribution-NonCommercial-ShareAlike 4.0 International License.
# To view a copy of this license, visit
# http://creativecommons.org/licenses/by-nc-sa/4.0/
# or send a letter to
# Creative Commons, PO Box 1866, Mountain View, CA 94042, USA.
#
# CIF created using the CSD Python API on 29 September 2022
# The structure has been converted into the P1 space group
# The structure has a 3D framework
# The original CSD entry LEJDUD is in the cubic crystal system
# The original CSD entry LEJDUD is in a Sohncke space group
# The framework has been calculated to contain at least 10.0% void space
# The void calculation uses a probe of radius 1.32A, grid spacing 0.4
# H atom positions have been added when not included in the experimental data
#
###############################################################################

data_LEJDUD
_chemical_formula_moiety         '(C816 H824 N192 O104 Zn58)n'
_symmetry_cell_setting           triclinic
_symmetry_space_group_name_H-M   'P 1'
_symmetry_Int_Tables_number      1
_space_group_name_Hall           'P 1'
loop_
_symmetry_equiv_pos_site_id
_symmetry_equiv_pos_as_xyz
1 x,y,z
_cell_length_a                   33.6958(2)
_cell_length_b                   33.6958(2)
_cell_length_c                   33.6958(2)
_cell_angle_alpha                90
_cell_angle_beta                 90
_cell_angle_gamma                90
_cell_volume                     38258.4
loop_
_atom_site_label
_atom_site_type_symbol
_atom_site_fract_x
_atom_site_fract_y
_atom_site_fract_z
O2 O 0.00160(8) 0.34000(7) 0.38261(9)
H6 H 0.003954 0.412179 0.472754
C18 C 0.01381(13) 0.26007(9) 0.37644(14)
C19 C 0.02884(16) 0.28257(7) 0.40758(15)
C20 C 0.05221(19) 0.26473(12) 0.43651(15)
H19 H 0.062264 0.279785 0.457346
C21 C 0.06055(18) 0.22439(12) 0.43432(16)
H20 H 0.076183 0.212456 0.453679
C22 C 0.04552(17) 0.20189(8) 0.40318(18)
C23 C 0.02215(15) 0.21972(9) 0.37424(15)
H21 H 0.012097 0.204669 0.353410
C24 C 0.0218(2) 0.32530(15) 0.4067(2)
O3 O 0.0318(2) 0.34620(11) 0.43707(16)
C28 C 0.0570(2) 0.09490(13) 0.43335(17)
H31 H 0.053645 0.079976 0.456323
C29 C 0.06981(19) 0.07671(9) 0.39862(19)
C30 C 0.07479(16) 0.09902(13) 0.36428(16)
H32 H 0.083374 0.086851 0.341039
C31 C 0.06693(17) 0.13951(12) 0.36466(16)
H33 H 0.070262 0.154438 0.341688
C32 C 0.05410(19) 0.15770(9) 0.39939(18)
C33 C 0.0491(2) 0.13540(14) 0.43374(16)
H34 H 0.040533 0.147565 0.456972
O4 O 0.0663(3) 0.01314(15) 0.4276(3)
C34 C 0.0786(3) 0.03343(19) 0.3991(4)
O5 O 0.09429(19) 0.01877(12) 0.3719(2)
N10 N 0.06950(7) 0.61523(8) 0.52802(8)
N16 N 0.08241(10) 0.59645(14) 0.56045(10)
H35 H 0.107067 0.592672 0.565831
C38 C 0.03009(9) 0.61560(11) 0.53179(10)
C42 C 0.01843(10) 0.59847(10) 0.56685(10)
C50 C 0.05300(12) 0.58435(18) 0.58330(13)
C51 C 0.00496(13) 0.63525(18) 0.50069(15)
H48 H 0.012948 0.662449 0.497816
H50 H 0.008268 0.621705 0.475848
C61 C 0.05968(18) 0.5594(3) 0.6217(2)
H61 H 0.079910 0.539946 0.616957
H62 H 0.035403 0.546381 0.628882
H63 H 0.067844 0.576651 0.642875
Zn7 Zn 0.11505(2) 0.63495(2) 0.375000
Zn8 Zn 0.10571(2) 0.62100(2) 0.48065(2)
O10 O 0.16000(7) 0.61739(9) 0.50160(8)
N17 N 0.07608(8) 0.64823(8) 0.29504(8)
N18 N 0.02802(8) 0.43050(7) 0.38477(8)
N19 N 0.09612(7) 0.57856(8) 0.44086(8)
N22 N 0.10520(9) 0.58346(8) 0.40108(8)
N23 N 0.07205(8) 0.64155(12) 0.33460(9)
C69 C 0.03964(9) 0.65411(10) 0.27940(10)
C70 C 0.08119(10) 0.52209(9) 0.40903(10)
C71 C 0.08135(10) 0.54179(10) 0.44578(10)
N24 N 0.06045(10) 0.41759(10) 0.40355(14)
H68 H 0.065831 0.392933 0.407328
C72 C 0.03179(10) 0.46991(9) 0.38440(11)
C75 C 0.01170(10) 0.65132(12) 0.30975(11)
C76 C 0.06685(10) 0.48157(10) 0.40153(10)
C78 C 0.09628(12) 0.54940(10) 0.38215(10)
C79 C 0.03377(11) 0.64356(18) 0.34321(12)
C80 C 0.03460(12) 0.66254(16) 0.23647(11)
H69 H 0.050549 0.685019 0.229274
H70 H 0.007207 0.668203 0.231058
H71 H 0.042779 0.639844 0.221316
C81 C 0.06653(17) 0.52692(13) 0.48502(12)
H72 H 0.087821 0.527246 0.503954
H73 H 0.056872 0.500286 0.482051
H74 H 0.045421 0.543716 0.494183
C84 C 0.08330(13) 0.44700(12) 0.41565(18)
C85 C 0.00069(15) 0.49504(13) 0.36475(18)
H82 H 0.008524 0.522413 0.365825
C86 C 0.23993(9) 0.62356(14) 0.51381(13)
H84 H 0.228000 0.642923 0.498179
C87 C 0.21743(7) 0.59242(15) 0.52884(16)
C88 C 0.23527(12) 0.56349(15) 0.55221(19)
H85 H 0.220215 0.542654 0.562264
C89 C 0.27561(12) 0.56568(16) 0.56055(18)
H86 H 0.287544 0.546321 0.576183
C90 C 0.29811(8) 0.59682(18) 0.54552(17)
C91 C 0.28028(9) 0.62576(15) 0.52215(15)
H87 H 0.295331 0.646590 0.512097
C92 C 0.17470(15) 0.5933(2) 0.5218(2)
C93 C 0.10168(19) 0.54502(14) 0.33841(13)
H88 H 0.085001 0.563733 0.324867
H89 H 0.094591 0.518566 0.330567
H90 H 0.128915 0.549954 0.331665
C94 C 0.02013(14) 0.6384(3) 0.38497(14)
H91 H 0.026368 0.612103 0.393837
H93 H 0.033275 0.657445 0.401642
O11 O 0.15380(11) 0.56293(16) 0.5318(2)
C95 C 0.1217(2) 0.44032(18) 0.4406(3)
H94 H 0.116957 0.420090 0.460054
H95 H 0.128882 0.464597 0.453619
H96 H 0.142875 0.432156 0.423349
C96 C 0.40510(13) 0.56665(17) 0.5570(2)
H97 H 0.420024 0.543677 0.553645
C97 C 0.42329(9) 0.60138(19) 0.56981(19)
C98 C 0.40098(13) 0.63572(16) 0.57479(16)
H98 H 0.413149 0.658961 0.583374
C99 C 0.36049(12) 0.63534(16) 0.56693(17)
H99 H 0.345562 0.658312 0.570262
C100 C 0.34230(9) 0.60061(18) 0.55410(19)
C101 C 0.36460(14) 0.56626(16) 0.5491(2)
H100 H 0.352435 0.543028 0.540533
O12 O 0.48686(15) 0.5724(3) 0.5663(3)
C102 C 0.46657(19) 0.6009(4) 0.5786(3)
O13 O 0.48123(12) 0.6281(2) 0.59429(19)
C114 C 0.01353(11) 0.41254(16) 0.28460(12)
H103 H 0.020726 0.435019 0.300549
H104 H 0.018942 0.418203 0.257207
H105 H 0.028684 0.389844 0.292779
H114 H 0.007662 0.351872 0.175897
O19 O 0.34000(7) 0.38261(9) 0.00160(8)
H148 H 0.412179 0.472754 0.003954
C155 C 0.26007(9) 0.37644(14) 0.01381(13)
C156 C 0.28257(7) 0.40758(15) 0.02884(16)
C157 C 0.26473(12) 0.43651(15) 0.05221(19)
H155 H 0.279785 0.457346 0.062264
C158 C 0.22439(12) 0.43432(16) 0.06055(18)
H156 H 0.212456 0.453679 0.076183
C159 C 0.20189(8) 0.40318(18) 0.04552(17)
C160 C 0.21972(9) 0.37424(15) 0.02215(15)
H157 H 0.204669 0.353410 0.012097
C161 C 0.32530(15) 0.4067(2) 0.0218(2)
O20 O 0.34620(11) 0.43707(16) 0.0318(2)
C164 C 0.09490(13) 0.43335(17) 0.0570(2)
H164 H 0.079976 0.456323 0.053645
C165 C 0.07671(9) 0.39862(19) 0.06981(19)
C166 C 0.09902(13) 0.36428(16) 0.07479(16)
H165 H 0.086851 0.341039 0.083374
C167 C 0.13951(12) 0.36466(16) 0.06693(17)
H166 H 0.154438 0.341688 0.070262
C168 C 0.15770(9) 0.39939(18) 0.05410(19)
C169 C 0.13540(14) 0.43374(16) 0.0491(2)
H167 H 0.147565 0.456972 0.040533
O21 O 0.01314(15) 0.4276(3) 0.0663(3)
C170 C 0.03343(19) 0.3991(4) 0.0786(3)
O22 O 0.01877(12) 0.3719(2) 0.09429(19)
C201 C 0.28460(12) 0.01353(11) 0.41254(16)
H189 H 0.300549 0.020726 0.435019
H190 H 0.257207 0.018942 0.418203
H191 H 0.292779 0.028684 0.389844
H197 H 0.175897 0.007662 0.351872
Zn24 Zn 0.12900(2) 0.64429(2) 0.26935(2)
Zn29 Zn 0.53819(2) 0.61369(2) 0.59761(2)
N51 N 0.10177(8) 0.67392(8) 0.45496(8)
N53 N 0.43050(7) 0.38477(8) 0.02802(8)
N60 N 0.16654(8) 0.64480(9) 0.34892(8)
N62 N 0.10845(12) 0.67795(8) 0.41540(9)
H201 H 0.354653 0.451582 0.00758413
H202 H 0.145347 0.548418 0.507584
Zn13 Zn 0.39429(2) 0.37900(2) 0.98065(2)
N37 N 0.47198(8) 0.56950(7) 0.88477(8)
N38 N 0.40388(7) 0.42144(8) 0.94086(8)
N39 N 0.39480(9) 0.41654(8) 0.90108(8)
C147 C 0.41881(10) 0.47791(9) 0.90903(10)
C148 C 0.41865(10) 0.45821(10) 0.94578(10)
N40 N 0.43955(10) 0.58241(10) 0.90355(14)
H147 H 0.434169 0.607067 0.907328
C149 C 0.46821(10) 0.53009(9) 0.88440(11)
C150 C 0.43315(10) 0.51843(10) 0.90153(10)
C151 C 0.40372(12) 0.45060(10) 0.88215(10)
C152 C 0.43347(17) 0.47308(13) 0.98502(12)
H149 H 0.443128 0.499714 0.982051
H150 H 0.454579 0.456284 0.994183
C153 C 0.41670(13) 0.55300(12) 0.91565(18)
C154 C 0.49931(15) 0.50496(13) 0.86475(18)
H151 H 0.502184 0.512948 0.837551
H152 H 0.491476 0.477587 0.865825
H153 H 0.524152 0.508268 0.878295
H154 H 0.272000 0.357077 0.998179
C162 C 0.39832(19) 0.45498(14) 0.83841(13)
H158 H 0.414999 0.436267 0.824867
H159 H 0.405409 0.481434 0.830567
H160 H 0.371085 0.450046 0.831665
C163 C 0.3783(2) 0.55968(18) 0.9406(3)
H161 H 0.383043 0.579910 0.960054
H162 H 0.371118 0.535403 0.953619
H163 H 0.357125 0.567844 0.923349
Zn19 Zn 0.38495(2) 0.36505(2) 0.875000
Zn20 Zn 0.51935(2) 0.60571(2) 0.87900(2)
N52 N 0.39823(8) 0.32608(8) 0.95496(8)
Zn15 Zn 0.09761(2) 0.96181(2) 0.38631(2)
N45 N 0.32608(8) 0.95496(8) 0.39823(8)
N46 N 0.15983(8) 0.92673(8) 0.43414(8)
N47 N 0.15325(8) 0.94964(8) 0.40087(8)
N48 N 0.32205(8) 0.91540(9) 0.39155(12)
C195 C 0.28964(9) 0.97060(10) 0.40411(10)
C196 C 0.19869(9) 0.92168(10) 0.43815(12)
C197 C 0.21867(10) 0.94145(11) 0.40802(12)
C198 C 0.26170(10) 0.94025(11) 0.40132(12)
C199 C 0.18850(10) 0.95944(12) 0.38534(11)
C200 C 0.28377(11) 0.90679(12) 0.39356(18)
C202 C 0.21592(13) 0.89858(18) 0.47110(19)
H192 H 0.204622 0.907329 0.495748
H193 H 0.244137 0.902458 0.471678
H194 H 0.210204 0.870930 0.467315
C203 C 0.19239(15) 0.98458(18) 0.34920(15)
H195 H 0.184220 0.969672 0.326337
H196 H 0.219541 0.992618 0.346095
C204 C 0.27013(14) 0.86503(14) 0.3884(3)
H198 H 0.276368 0.856163 0.362103
H199 H 0.241964 0.863681 0.392506
H200 H 0.283275 0.848358 0.407445
Zn17 Zn 0.36505(2) 0.875000 0.38495(2)
Zn21 Zn 0.37900(2) 0.98065(2) 0.39429(2)
Zn30 Zn 0.11369(2) 0.90239(2) 0.46181(2)
O28 O 0.07154(6) 0.92846(6) 0.42846(6)
N57 N 0.07327(8) 0.93414(8) 0.34017(8)
Zn32 Zn 0.88631(2) 0.40239(2) 0.03819(2)
Zn1 Zn 0.875000 0.38495(2) 0.36505(2)
Zn2 Zn 0.98065(2) 0.39429(2) 0.37900(2)
Zn3 Zn 0.78819(2) 0.65239(2) 0.36369(2)
O1 O 0.82154(6) 0.67846(6) 0.32154(6)
H1 H 0.804749 0.695252 0.304748
N1 N 0.79504(8) 0.42392(8) 0.35177(8)
N2 N 0.88477(8) 0.47198(8) 0.56950(7)
N3 N 0.94086(8) 0.40388(7) 0.42144(8)
N4 N 0.82327(8) 0.59017(8) 0.31586(8)
N5 N 0.80036(8) 0.59675(8) 0.34913(8)
N6 N 0.90108(8) 0.39480(9) 0.41654(8)
N7 N 0.83460(9) 0.42795(8) 0.35845(12)
C1 C 0.77940(10) 0.46036(9) 0.34589(10)
C2 C 0.90903(10) 0.41881(10) 0.47791(9)
C3 C 0.94578(10) 0.41865(10) 0.45821(10)
N8 N 0.90355(14) 0.43955(10) 0.58241(10)
H2 H 0.907328 0.434169 0.607067
C4 C 0.88440(11) 0.46821(10) 0.53009(9)
C5 C 0.82832(10) 0.55131(9) 0.31185(12)
C6 C 0.80855(11) 0.53133(10) 0.34198(12)
C7 C 0.80975(11) 0.48830(10) 0.34868(12)
C8 C 0.90153(10) 0.43315(10) 0.51843(10)
C9 C 0.79056(12) 0.56150(10) 0.36466(11)
C10 C 0.88215(10) 0.40372(12) 0.45060(10)
C11 C 0.84321(12) 0.46623(11) 0.35644(18)
C12 C 0.73647(11) 0.46540(12) 0.33746(16)
H3 H 0.729274 0.449451 0.314981
H4 H 0.731058 0.492793 0.331797
H5 H 0.721316 0.457221 0.360156
C13 C 0.98502(12) 0.43347(17) 0.47308(13)
H7 H 0.982051 0.443128 0.499714
H8 H 0.994183 0.454579 0.456284
C14 C 0.85142(18) 0.53408(13) 0.27890(19)
H9 H 0.842671 0.545378 0.254252
H10 H 0.847542 0.505863 0.278322
H11 H 0.879070 0.539796 0.282685
C15 C 0.76542(18) 0.55761(15) 0.40080(15)
H12 H 0.780328 0.565780 0.423663
H13 H 0.757382 0.530459 0.403905
H14 H 0.742338 0.574103 0.398128
C16 C 0.91565(18) 0.41670(13) 0.55300(12)
C17 C 0.86475(18) 0.49931(15) 0.50496(13)
H15 H 0.837551 0.502184 0.512948
H16 H 0.865825 0.491476 0.477587
H17 H 0.878295 0.524152 0.508268
H18 H 0.998179 0.272000 0.357077
C25 C 0.83841(13) 0.39832(19) 0.45498(14)
H22 H 0.824867 0.414999 0.436267
H23 H 0.830567 0.405409 0.481434
H24 H 0.831665 0.371085 0.450046
C26 C 0.88497(14) 0.47987(14) 0.3616(3)
H25 H 0.893837 0.473632 0.387897
H26 H 0.886319 0.508036 0.357494
H27 H 0.901642 0.466725 0.342555
C27 C 0.9406(3) 0.3783(2) 0.55968(18)
H28 H 0.960054 0.383043 0.579910
H29 H 0.953619 0.371118 0.535403
H30 H 0.923349 0.357125 0.567844
Zn4 Zn 0.86505(2) 0.625000 0.61505(2)
Zn5 Zn 0.87900(2) 0.51935(2) 0.60571(2)
Zn6 Zn 0.86369(2) 0.71181(2) 0.34761(2)
O6 O 0.88261(9) 0.49840(8) 0.66000(7)
N9 N 0.85177(8) 0.70496(8) 0.57608(8)
N11 N 0.92144(8) 0.55914(8) 0.59612(7)
N12 N 0.81586(8) 0.67673(8) 0.40983(8)
N13 N 0.84913(8) 0.69964(8) 0.40325(8)
N14 N 0.91654(8) 0.59892(8) 0.60520(9)
N15 N 0.85845(12) 0.66540(9) 0.57205(8)
C35 C 0.84589(10) 0.72060(10) 0.53964(9)
C36 C 0.97791(9) 0.59097(10) 0.58119(10)
C37 C 0.95821(10) 0.55422(10) 0.58135(10)
C39 C 0.81185(12) 0.67168(10) 0.44869(9)
C40 C 0.84198(12) 0.69145(11) 0.46867(10)
C41 C 0.84868(12) 0.69025(11) 0.51170(10)
C43 C 0.86466(11) 0.70944(12) 0.43850(10)
C44 C 0.95060(10) 0.61785(10) 0.59628(12)
C45 C 0.85644(18) 0.65679(12) 0.53377(11)
C46 C 0.83746(16) 0.76353(11) 0.53460(12)
H36 H 0.814981 0.770726 0.550549
H37 H 0.831797 0.768942 0.507207
H38 H 0.860156 0.778684 0.542779
C47 C 0.97308(13) 0.51498(12) 0.56653(17)
H39 H 0.972754 0.496046 0.587821
H40 H 0.999714 0.517949 0.556872
H41 H 0.956284 0.505817 0.545421
C48 C 0.77890(19) 0.64858(18) 0.46592(13)
H42 H 0.754252 0.657329 0.454622
H43 H 0.778322 0.652458 0.494137
H44 H 0.782685 0.620930 0.460204
C49 C 0.90080(15) 0.73458(18) 0.44239(15)
H45 H 0.923663 0.719672 0.434220
H46 H 0.903905 0.742618 0.469541
H47 H 0.898128 0.757662 0.425897
H49 H 0.977587 0.634175 0.508524
C52 C 0.87644(14) 0.48619(13) 0.73993(9)
H51 H 0.857077 0.501821 0.728000
C53 C 0.90758(15) 0.47116(16) 0.71743(7)
C54 C 0.93651(15) 0.44779(19) 0.73527(12)
H52 H 0.957346 0.437736 0.720215
C55 C 0.93432(16) 0.43945(18) 0.77561(12)
H53 H 0.953679 0.423817 0.787544
C56 C 0.90318(18) 0.45448(17) 0.79811(8)
C57 C 0.87424(15) 0.47785(15) 0.78028(9)
H54 H 0.853410 0.487903 0.795331
C58 C 0.9067(2) 0.4782(2) 0.67470(15)
C59 C 0.95498(14) 0.66159(13) 0.60168(19)
H55 H 0.936267 0.675133 0.585001
H56 H 0.981434 0.669433 0.594591
H57 H 0.950046 0.668335 0.628915
C60 C 0.8616(3) 0.61503(14) 0.52013(14)
H58 H 0.887897 0.606163 0.526368
H59 H 0.857494 0.613681 0.491964
H60 H 0.842555 0.598358 0.533275
O7 O 0.93707(16) 0.4682(2) 0.65380(11)
C62 C 0.93335(17) 0.4430(2) 0.90510(13)
H64 H 0.956323 0.446355 0.920024
C63 C 0.89862(19) 0.43019(19) 0.92329(9)
C64 C 0.86428(16) 0.42521(16) 0.90098(13)
H65 H 0.841039 0.416626 0.913149
C65 C 0.86466(16) 0.43307(17) 0.86049(12)
H66 H 0.841688 0.429738 0.845562
C66 C 0.89939(18) 0.44590(19) 0.84230(9)
C67 C 0.93374(16) 0.4509(2) 0.86460(14)
H67 H 0.956972 0.459467 0.852435
O8 O 0.9276(3) 0.4337(3) 0.98686(15)
C68 C 0.8991(4) 0.4214(3) 0.96657(19)
O9 O 0.8719(2) 0.40571(19) 0.98123(12)
Zn9 Zn 0.84761(2) 0.63631(2) 0.28819(2)
N20 N 0.90983(8) 0.68414(8) 0.32327(8)
N21 N 0.90325(8) 0.65087(8) 0.30036(8)
C73 C 0.94869(9) 0.68815(12) 0.32832(10)
C74 C 0.96867(10) 0.65802(12) 0.30855(11)
C77 C 0.93850(10) 0.63534(11) 0.29056(12)
C82 C 0.96592(13) 0.72110(19) 0.35142(18)
H75 H 0.954622 0.745748 0.342671
H76 H 0.994137 0.721678 0.347542
H77 H 0.960204 0.717315 0.379070
C83 C 0.94239(15) 0.59920(15) 0.26542(18)
H78 H 0.934220 0.576337 0.280328
H79 H 0.969541 0.596095 0.257382
H80 H 0.925897 0.601872 0.242338
H81 H 0.997816 0.487052 0.337551
H83 H 0.975848 0.491732 0.378295
H92 H 0.991964 0.642506 0.386319
Zn10 Zn 0.76935(2) 0.37100(2) 0.35571(2)
Zn11 Zn 0.96181(2) 0.38631(2) 0.09761(2)
O14 O 0.92846(6) 0.42846(6) 0.07154(6)
H101 H 0.945252 0.445251 0.054748
O15 O 0.74840(8) 0.36739(9) 0.41000(7)
N25 N 0.95496(8) 0.39823(8) 0.32608(8)
N26 N 0.86523(8) 0.18050(7) 0.27802(8)
N27 N 0.80914(8) 0.32856(8) 0.34612(7)
N28 N 0.92673(8) 0.43414(8) 0.15983(8)
N29 N 0.94964(8) 0.40087(8) 0.15325(8)
N30 N 0.84892(8) 0.33346(8) 0.35520(9)
N31 N 0.91540(9) 0.39155(12) 0.32205(8)
C103 C 0.97060(10) 0.40411(10) 0.28964(9)
C104 C 0.84097(10) 0.27209(9) 0.33119(10)
C105 C 0.80422(10) 0.29179(10) 0.33135(10)
N32 N 0.84645(14) 0.16759(10) 0.31045(10)
H102 H 0.842672 0.142933 0.315831
C106 C 0.86560(11) 0.21991(9) 0.28179(10)
C107 C 0.92168(10) 0.43815(12) 0.19869(9)
C108 C 0.94145(11) 0.40802(12) 0.21867(10)
C109 C 0.94025(11) 0.40132(12) 0.26170(10)
C110 C 0.84847(10) 0.23157(10) 0.31685(10)
C111 C 0.95944(12) 0.38534(11) 0.18850(10)
C112 C 0.86785(10) 0.29940(10) 0.34628(12)
C113 C 0.90679(12) 0.39356(18) 0.28377(11)
C115 C 0.76498(12) 0.27692(13) 0.31653(17)
H106 H 0.746046 0.277246 0.337821
H107 H 0.767949 0.250286 0.306872
H108 H 0.755817 0.293716 0.295421
C116 C 0.89858(18) 0.47110(19) 0.21592(13)
H109 H 0.907329 0.495748 0.204622
H110 H 0.902458 0.471678 0.244137
H111 H 0.870930 0.467315 0.210204
C117 C 0.98458(18) 0.34920(15) 0.19239(15)
H112 H 0.969672 0.326337 0.184220
H113 H 0.992618 0.346095 0.219541
C118 C 0.83435(18) 0.19700(12) 0.33330(13)
C119 C 0.88525(18) 0.24504(13) 0.25069(15)
H115 H 0.912449 0.237052 0.247816
H116 H 0.884175 0.272413 0.258524
H117 H 0.871705 0.241732 0.225848
C120 C 0.73619(13) 0.37356(14) 0.48993(9)
H118 H 0.751821 0.392923 0.478000
C121 C 0.72116(16) 0.34242(15) 0.46743(7)
C122 C 0.69779(19) 0.31349(15) 0.48527(12)
H119 H 0.687736 0.292654 0.470215
C123 C 0.68945(18) 0.31568(16) 0.52561(12)
H120 H 0.673817 0.296321 0.537544
C124 C 0.70448(17) 0.34682(18) 0.54811(8)
C125 C 0.72785(15) 0.37576(15) 0.53028(9)
H121 H 0.737903 0.396590 0.545331
C126 C 0.7282(2) 0.3433(2) 0.42470(15)
C127 C 0.91159(13) 0.29502(14) 0.35168(19)
H122 H 0.925133 0.313733 0.335001
H123 H 0.919433 0.268566 0.344591
H124 H 0.918335 0.299954 0.378915
C128 C 0.86503(14) 0.3884(3) 0.27013(14)
H125 H 0.856163 0.362103 0.276368
H126 H 0.863681 0.392506 0.241964
H127 H 0.848358 0.407445 0.283275
O16 O 0.7182(2) 0.31293(16) 0.40380(11)
C129 C 0.8094(3) 0.19032(18) 0.3717(2)
H128 H 0.789946 0.170090 0.366957
H129 H 0.796381 0.214597 0.378882
H130 H 0.826651 0.182156 0.392875
C130 C 0.6930(2) 0.31665(17) 0.65510(13)
H131 H 0.696355 0.293677 0.670024
C131 C 0.68019(19) 0.35138(19) 0.67329(9)
C132 C 0.67521(16) 0.38572(16) 0.65098(13)
H132 H 0.666626 0.408961 0.663149
C133 C 0.68307(17) 0.38534(16) 0.61049(12)
H133 H 0.679738 0.408312 0.595562
C134 C 0.69590(19) 0.35061(18) 0.59230(9)
C135 C 0.7009(2) 0.31626(16) 0.61460(14)
H134 H 0.709467 0.293028 0.602435
O17 O 0.6837(3) 0.3224(3) 0.73686(15)
C136 C 0.6714(3) 0.3509(4) 0.71657(19)
O18 O 0.65571(19) 0.3781(2) 0.73123(12)
Zn12 Zn 0.65239(2) 0.36369(2) 0.78819(2)
N33 N 0.42392(8) 0.35177(8) 0.79504(8)
N34 N 0.59017(8) 0.31586(8) 0.82327(8)
N35 N 0.59675(8) 0.34913(8) 0.80036(8)
N36 N 0.42795(8) 0.35845(12) 0.83460(9)
C137 C 0.46036(9) 0.34589(10) 0.77940(10)
C138 C 0.55131(9) 0.31185(12) 0.82832(10)
C139 C 0.53133(10) 0.34198(12) 0.80855(11)
C140 C 0.48830(10) 0.34868(12) 0.80975(11)
C141 C 0.56150(10) 0.36466(11) 0.79056(12)
C142 C 0.46623(11) 0.35644(18) 0.84321(12)
C143 C 0.46540(12) 0.33746(16) 0.73647(11)
H135 H 0.449451 0.314981 0.729274
H136 H 0.492793 0.331797 0.731058
H137 H 0.457221 0.360156 0.721316
C144 C 0.53408(13) 0.27890(19) 0.85142(18)
H138 H 0.545378 0.254252 0.842671
H139 H 0.505863 0.278322 0.847542
H140 H 0.539796 0.282685 0.879070
C145 C 0.55761(15) 0.40080(15) 0.76542(18)
H141 H 0.565780 0.423663 0.780328
H142 H 0.530459 0.403905 0.757382
H143 H 0.574103 0.398128 0.742338
C146 C 0.47987(14) 0.3616(3) 0.88497(14)
H144 H 0.473632 0.387897 0.893837
H145 H 0.508036 0.357494 0.886319
H146 H 0.466725 0.342555 0.901642
Zn14 Zn 0.35571(2) 0.76935(2) 0.37100(2)
O23 O 0.41000(7) 0.74840(8) 0.36739(9)
N41 N 0.27802(8) 0.86523(8) 0.18050(7)
N42 N 0.34612(7) 0.80914(8) 0.32856(8)
N43 N 0.35520(9) 0.84892(8) 0.33346(8)
C171 C 0.33119(10) 0.84097(10) 0.27209(9)
C172 C 0.33135(10) 0.80422(10) 0.29179(10)
N44 N 0.31045(10) 0.84645(14) 0.16759(10)
H168 H 0.315831 0.842672 0.142933
C173 C 0.28179(10) 0.86560(11) 0.21991(9)
C174 C 0.31685(10) 0.84847(10) 0.23157(10)
C175 C 0.34628(12) 0.86785(10) 0.29940(10)
C176 C 0.31653(17) 0.76498(12) 0.27692(13)
H169 H 0.337821 0.746046 0.277246
H170 H 0.306872 0.767949 0.250286
H171 H 0.295421 0.755817 0.293716
C177 C 0.33330(13) 0.83435(18) 0.19700(12)
C178 C 0.25069(15) 0.88525(18) 0.24504(13)
H172 H 0.247816 0.912449 0.237052
H173 H 0.258524 0.884175 0.272413
H174 H 0.225848 0.871705 0.241732
C179 C 0.48993(9) 0.73619(13) 0.37356(14)
H175 H 0.478000 0.751821 0.392923
C180 C 0.46743(7) 0.72116(16) 0.34242(15)
C181 C 0.48527(12) 0.69779(19) 0.31349(15)
H176 H 0.470215 0.687736 0.292654
C182 C 0.52561(12) 0.68945(18) 0.31568(16)
H177 H 0.537544 0.673817 0.296321
C183 C 0.54811(8) 0.70448(17) 0.34682(18)
C184 C 0.53028(9) 0.72785(15) 0.37576(15)
H178 H 0.545331 0.737903 0.396590
C185 C 0.42470(15) 0.7282(2) 0.3433(2)
C186 C 0.35168(19) 0.91159(13) 0.29502(14)
H179 H 0.335001 0.925133 0.313733
H180 H 0.344591 0.919433 0.268566
H181 H 0.378915 0.918335 0.299954
O24 O 0.40380(11) 0.7182(2) 0.31293(16)
C187 C 0.3717(2) 0.8094(3) 0.19032(18)
H182 H 0.366957 0.789946 0.170090
H183 H 0.378882 0.796381 0.214597
H184 H 0.392875 0.826651 0.182156
C188 C 0.65510(13) 0.6930(2) 0.31665(17)
H185 H 0.670024 0.696355 0.293677
C189 C 0.67329(9) 0.68019(19) 0.35138(19)
C190 C 0.65098(13) 0.67521(16) 0.38572(16)
H186 H 0.663149 0.666626 0.408961
C191 C 0.61049(12) 0.68307(17) 0.38534(16)
H187 H 0.595562 0.679738 0.408312
C192 C 0.59230(9) 0.69590(19) 0.35061(18)
C193 C 0.61460(14) 0.7009(2) 0.31626(16)
H188 H 0.602435 0.709467 0.293028
O25 O 0.73686(15) 0.6837(3) 0.3224(3)
C194 C 0.71657(19) 0.6714(3) 0.3509(4)
O26 O 0.73123(12) 0.65571(19) 0.3781(2)
Zn22 Zn 0.85571(2) 0.73065(2) 0.62900(2)
Zn23 Zn 0.23065(2) 0.87100(2) 0.14429(2)
Zn25 Zn 0.87100(2) 0.14429(2) 0.23065(2)
Zn26 Zn 0.37100(2) 0.35571(2) 0.76935(2)
Zn27 Zn 0.63631(2) 0.28819(2) 0.84761(2)
Zn28 Zn 0.90239(2) 0.46181(2) 0.11369(2)
O27 O 0.67846(6) 0.32154(6) 0.82154(6)
N49 N 0.35177(8) 0.79504(8) 0.42392(8)
N50 N 0.82608(8) 0.54504(8) 0.60177(8)
N54 N 0.72198(8) 0.36523(8) 0.31950(7)
N55 N 0.31950(7) 0.72198(8) 0.36523(8)
N56 N 0.67673(8) 0.40983(8) 0.81586(8)
N58 N 0.93414(8) 0.34017(8) 0.07327(8)
N59 N 0.85520(9) 0.65108(8) 0.66654(8)
N61 N 0.82205(8) 0.58460(9) 0.60845(12)
O29 O 0.8163(3) 0.6776(3) 0.23686(15)
O30 O 0.8224(3) 0.76314(15) 0.3163(3)
O31 O 0.84429(19) 0.6219(2) 0.23123(12)
O32 O 0.8781(2) 0.76877(12) 0.34429(19)
Zn14_2 Zn 0.14429(2) 0.23065(2) 0.87100(2)
O23_2 O 0.09000(7) 0.25160(8) 0.86739(9)
N41_2 N 0.22198(8) 0.13477(8) 0.68050(7)
N42_2 N 0.15388(7) 0.19086(8) 0.82856(8)
N43_2 N 0.14480(9) 0.15108(8) 0.83346(8)
C171_2 C 0.16881(10) 0.15903(10) 0.77209(9)
C172_2 C 0.16865(10) 0.19578(10) 0.79179(10)
N44_2 N 0.18955(10) 0.15355(14) 0.66759(10)
H168_2 H 0.184169 0.157328 0.642933
C173_2 C 0.21821(10) 0.13440(11) 0.71991(9)
C174_2 C 0.18315(10) 0.15153(10) 0.73157(10)
C175_2 C 0.15372(12) 0.13215(10) 0.79940(10)
C176_2 C 0.18347(17) 0.23502(12) 0.77692(13)
H169_2 H 0.162179 0.253954 0.777246
H170_2 H 0.193128 0.232051 0.750286
H171_2 H 0.204579 0.244183 0.793716
C177_2 C 0.16670(13) 0.16565(18) 0.69700(12)
C178_2 C 0.24931(15) 0.11475(18) 0.74504(13)
H172_2 H 0.252184 0.087551 0.737052
H173_2 H 0.241476 0.115825 0.772413
H174_2 H 0.274152 0.128295 0.741732
C179_2 C 0.01007(9) 0.26381(13) 0.87356(14)
H175_2 H 0.022000 0.248179 0.892923
C180_2 C 0.03257(7) 0.27884(16) 0.84242(15)
C181_2 C 0.01473(12) 0.30221(19) 0.81349(15)
H176_2 H 0.029785 0.312264 0.792654
C185_2 C 0.07530(15) 0.2718(2) 0.8433(2)
C186_2 C 0.14832(19) 0.08841(13) 0.79502(14)
H179_2 H 0.164999 0.074867 0.813733
H180_2 H 0.155409 0.080567 0.768566
H181_2 H 0.121085 0.081665 0.799954
O24_2 O 0.09620(11) 0.2818(2) 0.81293(16)
C187_2 C 0.1283(2) 0.1906(3) 0.69032(18)
H182_2 H 0.133043 0.210054 0.670090
H183_2 H 0.121118 0.203619 0.714597
H184_2 H 0.107125 0.173349 0.682156
Zn16 Zn 0.13495(2) 0.125000 0.88495(2)
Zn23_2 Zn 0.26935(2) 0.12900(2) 0.64429(2)
N49_2 N 0.14823(8) 0.20496(8) 0.92392(8)
N55_2 N 0.18050(7) 0.27802(8) 0.86523(8)
Zn15_2 Zn 0.40239(2) 0.03819(2) 0.88631(2)
N45_2 N 0.17392(8) 0.04504(8) 0.89823(8)
N46_2 N 0.34017(8) 0.07327(8) 0.93414(8)
N47_2 N 0.34675(8) 0.05036(8) 0.90087(8)
N48_2 N 0.17795(8) 0.08460(9) 0.89155(12)
C195_2 C 0.21036(9) 0.02940(10) 0.90411(10)
C196_2 C 0.30131(9) 0.07832(10) 0.93815(12)
C197_2 C 0.28133(10) 0.05855(11) 0.90802(12)
C198_2 C 0.23830(10) 0.05975(11) 0.90132(12)
C199_2 C 0.31150(10) 0.04056(12) 0.88534(11)
C200_2 C 0.21623(11) 0.09321(12) 0.89356(18)
C202_2 C 0.28408(13) 0.10142(18) 0.97110(19)
H192_2 H 0.295378 0.092671 0.995748
H193_2 H 0.255863 0.097542 0.971678
H194_2 H 0.289796 0.129070 0.967315
C203_2 C 0.30761(15) 0.01542(18) 0.84920(15)
H195_2 H 0.315780 0.030328 0.826337
H196_2 H 0.280459 0.007382 0.846095
C204_2 C 0.22987(14) 0.13497(14) 0.8884(3)
H198_2 H 0.223632 0.143837 0.862103
H199_2 H 0.258036 0.136319 0.892506
H200_2 H 0.216725 0.151642 0.907445
Zn21_2 Zn 0.12100(2) 0.01935(2) 0.89429(2)
Zn30_2 Zn 0.38631(2) 0.09761(2) 0.96181(2)
O28_2 O 0.42846(6) 0.07154(6) 0.92846(6)
N57_2 N 0.42673(8) 0.06586(8) 0.84017(8)
N2_2 N 0.61523(8) 0.52802(8) 0.06950(7)
N8_2 N 0.59645(14) 0.56045(10) 0.08241(10)
H2_2 H 0.592672 0.565831 0.107067
C4_2 C 0.61560(11) 0.53179(10) 0.03009(9)
C8_2 C 0.59847(10) 0.56685(10) 0.01843(10)
C16_2 C 0.58435(18) 0.58330(13) 0.05300(12)
C17_2 C 0.63525(18) 0.50069(15) 0.00496(13)
H15_2 H 0.662449 0.497816 0.012948
H17_2 H 0.621705 0.475848 0.008268
C27_2 C 0.5594(3) 0.6217(2) 0.05968(18)
H28_2 H 0.539946 0.616957 0.079910
H29_2 H 0.546381 0.628882 0.035403
H30_2 H 0.576651 0.642875 0.067844
Zn4_2 Zn 0.63495(2) 0.375000 0.11505(2)
Zn5_2 Zn 0.62100(2) 0.48065(2) 0.10571(2)
O6_2 O 0.61739(9) 0.50160(8) 0.16000(7)
N9_2 N 0.64823(8) 0.29504(8) 0.07608(8)
N11_2 N 0.57856(8) 0.44086(8) 0.09612(7)
N14_2 N 0.58346(8) 0.40108(8) 0.10520(9)
N15_2 N 0.64155(12) 0.33460(9) 0.07205(8)
C35_2 C 0.65411(10) 0.27940(10) 0.03964(9)
C36_2 C 0.52209(9) 0.40903(10) 0.08119(10)
C37_2 C 0.54179(10) 0.44578(10) 0.08135(10)
N16_2 N 0.41759(10) 0.40355(14) 0.06045(10)
H35_2 H 0.392933 0.407328 0.065831
C38_2 C 0.46991(9) 0.38440(11) 0.03179(10)
C41_2 C 0.65132(12) 0.30975(11) 0.01170(10)
C42_2 C 0.48157(10) 0.40153(10) 0.06685(10)
C44_2 C 0.54940(10) 0.38215(10) 0.09628(12)
C45_2 C 0.64356(18) 0.34321(12) 0.03377(11)
C46_2 C 0.66254(16) 0.23647(11) 0.03460(12)
H36_2 H 0.685019 0.229274 0.050549
H37_2 H 0.668203 0.231058 0.007207
H38_2 H 0.639844 0.221316 0.042779
C47_2 C 0.52692(13) 0.48502(12) 0.06653(17)
H39_2 H 0.527246 0.503954 0.087821
H40_2 H 0.500286 0.482051 0.056872
H41_2 H 0.543716 0.494183 0.045421
C50_2 C 0.44700(12) 0.41565(18) 0.08330(13)
C51_2 C 0.49504(13) 0.36475(18) 0.00069(15)
H49_2 H 0.522413 0.365825 0.008524
C52_2 C 0.62356(14) 0.51381(13) 0.23993(9)
H51_2 H 0.642923 0.498179 0.228000
C53_2 C 0.59242(15) 0.52884(16) 0.21743(7)
C54_2 C 0.56349(15) 0.55221(19) 0.23527(12)
H52_2 H 0.542654 0.562264 0.220215
C55_2 C 0.56568(16) 0.56055(18) 0.27561(12)
H53_2 H 0.546321 0.576183 0.287544
C56_2 C 0.59682(18) 0.54552(17) 0.29811(8)
C57_2 C 0.62576(15) 0.52215(15) 0.28028(9)
H54_2 H 0.646590 0.512097 0.295331
C58_2 C 0.5933(2) 0.5218(2) 0.17470(15)
C59_2 C 0.54502(14) 0.33841(13) 0.10168(19)
H55_2 H 0.563733 0.324867 0.085001
H56_2 H 0.518566 0.330567 0.094591
H57_2 H 0.549954 0.331665 0.128915
C60_2 C 0.6384(3) 0.38497(14) 0.02013(14)
H58_2 H 0.612103 0.393837 0.026368
H60_2 H 0.657445 0.401642 0.033275
O7_2 O 0.56293(16) 0.5318(2) 0.15380(11)
C61_2 C 0.44032(18) 0.4406(3) 0.1217(2)
H61_2 H 0.420090 0.460054 0.116957
H62_2 H 0.464597 0.453619 0.128882
H63_2 H 0.432156 0.423349 0.142875
C62_2 C 0.56665(17) 0.5570(2) 0.40510(13)
H64_2 H 0.543677 0.553645 0.420024
C63_2 C 0.60138(19) 0.56981(19) 0.42329(9)
C64_2 C 0.63572(16) 0.57479(16) 0.40098(13)
H65_2 H 0.658961 0.583374 0.413149
C65_2 C 0.63534(16) 0.56693(17) 0.36049(12)
H66_2 H 0.658312 0.570262 0.345562
C66_2 C 0.60061(18) 0.55410(19) 0.34230(9)
C67_2 C 0.56626(16) 0.5491(2) 0.36460(14)
H67_2 H 0.543028 0.540533 0.352435
O8_2 O 0.5724(3) 0.5663(3) 0.48686(15)
C68_2 C 0.6009(4) 0.5786(3) 0.46657(19)
O9_2 O 0.6281(2) 0.59429(19) 0.48123(12)
C123_2 C 0.81055(18) 0.68432(16) 0.02561(12)
H120_2 H 0.826183 0.703679 0.037544
C124_2 C 0.79552(17) 0.65318(18) 0.04811(8)
C125_2 C 0.77215(15) 0.62424(15) 0.03028(9)
H121_2 H 0.762097 0.603410 0.045331
C130_2 C 0.8070(2) 0.68335(17) 0.15510(13)
H131_2 H 0.803645 0.706323 0.170024
C131_2 C 0.81981(19) 0.64862(19) 0.17329(9)
C132_2 C 0.82479(16) 0.61428(16) 0.15098(13)
H132_2 H 0.833374 0.591039 0.163149
C133_2 C 0.81693(17) 0.61466(16) 0.11049(12)
H133_2 H 0.820262 0.591688 0.095562
C134_2 C 0.80410(19) 0.64939(18) 0.09230(9)
C135_2 C 0.7991(2) 0.68374(16) 0.11460(14)
H134_2 H 0.790533 0.706972 0.102435
C136_2 C 0.8286(3) 0.6491(4) 0.21657(19)
Zn22_2 Zn 0.64429(2) 0.26935(2) 0.12900(2)
Zn32_2 Zn 0.61369(2) 0.59761(2) 0.53819(2)
N50_2 N 0.67392(8) 0.45496(8) 0.10177(8)
N59_2 N 0.64480(9) 0.34892(8) 0.16654(8)
N61_2 N 0.67795(8) 0.41540(9) 0.10845(12)
Zn1_2 Zn 0.625000 0.61505(2) 0.86505(2)
Zn3_2 Zn 0.71181(2) 0.34761(2) 0.86369(2)
H1_2 H 0.695251 0.304748 0.804748
O2_2 O 0.49840(8) 0.66000(7) 0.88261(9)
N1_2 N 0.70496(8) 0.57608(8) 0.85177(8)
N3_2 N 0.55914(8) 0.59612(7) 0.92144(8)
N5_2 N 0.69964(8) 0.40325(8) 0.84913(8)
N6_2 N 0.59892(8) 0.60520(9) 0.91654(8)
N7_2 N 0.66540(9) 0.57205(8) 0.85845(12)
C1_2 C 0.72060(10) 0.53964(9) 0.84589(10)
C2_2 C 0.59097(10) 0.58119(10) 0.97791(9)
C3_2 C 0.55422(10) 0.58135(10) 0.95821(10)
C5_2 C 0.67168(10) 0.44869(9) 0.81185(12)
C6_2 C 0.69145(11) 0.46867(10) 0.84198(12)
C7_2 C 0.69025(11) 0.51170(10) 0.84868(12)
C9_2 C 0.70944(12) 0.43850(10) 0.86466(11)
C10_2 C 0.61785(10) 0.59628(12) 0.95060(10)
C11_2 C 0.65679(12) 0.53377(11) 0.85644(18)
C12_2 C 0.76353(11) 0.53460(12) 0.83746(16)
H3_2 H 0.770726 0.550549 0.814981
H4_2 H 0.768942 0.507207 0.831797
H5_2 H 0.778684 0.542779 0.860156
C13_2 C 0.51498(12) 0.56653(17) 0.97308(13)
H6_2 H 0.496046 0.587821 0.972754
H7_2 H 0.517949 0.556872 0.999714
H8_2 H 0.505817 0.545421 0.956284
C14_2 C 0.64858(18) 0.46592(13) 0.77890(19)
H9_2 H 0.657329 0.454622 0.754252
H10_2 H 0.652458 0.494137 0.778322
H11_2 H 0.620930 0.460204 0.782685
C15_2 C 0.73458(18) 0.44239(15) 0.90080(15)
H12_2 H 0.719672 0.434220 0.923663
H13_2 H 0.742618 0.469541 0.903905
H14_2 H 0.757662 0.425897 0.898128
H16_2 H 0.634175 0.508524 0.977587
C18_2 C 0.48619(13) 0.73993(9) 0.87644(14)
H18_2 H 0.501821 0.728000 0.857077
C19_2 C 0.47116(16) 0.71743(7) 0.90758(15)
C20_2 C 0.44779(19) 0.73527(12) 0.93651(15)
H19_2 H 0.437736 0.720215 0.957346
C21_2 C 0.43945(18) 0.77561(12) 0.93432(16)
H20_2 H 0.423817 0.787544 0.953679
C22_2 C 0.45448(17) 0.79811(8) 0.90318(18)
C23_2 C 0.47785(15) 0.78028(9) 0.87424(15)
H21_2 H 0.487903 0.795331 0.853410
C24_2 C 0.4782(2) 0.67470(15) 0.9067(2)
C25_2 C 0.66159(13) 0.60168(19) 0.95498(14)
H22_2 H 0.675133 0.585001 0.936267
H23_2 H 0.669433 0.594591 0.981434
H24_2 H 0.668335 0.628915 0.950046
C26_2 C 0.61503(14) 0.52013(14) 0.8616(3)
H25_2 H 0.606163 0.526368 0.887897
H26_2 H 0.613681 0.491964 0.857494
H27_2 H 0.598358 0.533275 0.842555
O3_2 O 0.4682(2) 0.65380(11) 0.93707(16)
C28_2 C 0.4430(2) 0.90510(13) 0.93335(17)
H31_2 H 0.446355 0.920024 0.956323
C29_2 C 0.43019(19) 0.92329(9) 0.89862(19)
C30_2 C 0.42521(16) 0.90098(13) 0.86428(16)
H32_2 H 0.416626 0.913149 0.841039
C31_2 C 0.43307(17) 0.86049(12) 0.86466(16)
H33_2 H 0.429738 0.845562 0.841688
C32_2 C 0.44590(19) 0.84230(9) 0.89939(18)
C33_2 C 0.4509(2) 0.86460(14) 0.93374(16)
H34_2 H 0.459467 0.852435 0.956972
O4_2 O 0.4337(3) 0.98686(15) 0.9276(3)
C34_2 C 0.4214(3) 0.96657(19) 0.8991(4)
O5_2 O 0.40571(19) 0.98123(12) 0.8719(2)
N12_2 N 0.68414(8) 0.32327(8) 0.90983(8)
N13_2 N 0.65087(8) 0.30036(8) 0.90325(8)
C39_2 C 0.68815(12) 0.32832(10) 0.94869(9)
C40_2 C 0.65802(12) 0.30855(11) 0.96867(10)
C43_2 C 0.63534(11) 0.29056(12) 0.93850(10)
C48_2 C 0.72110(19) 0.35142(18) 0.96592(13)
H42_2 H 0.745748 0.342671 0.954622
H43_2 H 0.721678 0.347542 0.994137
H44_2 H 0.717315 0.379070 0.960204
C49_2 C 0.59920(15) 0.26542(18) 0.94239(15)
H45_2 H 0.576337 0.280328 0.934220
H46_2 H 0.596095 0.257382 0.969541
H47_2 H 0.601872 0.242338 0.925897
H48_2 H 0.487052 0.337551 0.997816
H50_2 H 0.491732 0.378295 0.975848
H59_2 H 0.642506 0.386319 0.991964
Zn10_2 Zn 0.73065(2) 0.62900(2) 0.85571(2)
O14_2 O 0.57154(6) 0.57154(6) 0.57154(6)
H101_2 H 0.554748 0.554749 0.554748
O15_2 O 0.75160(8) 0.63261(9) 0.91000(7)
N25_2 N 0.54504(8) 0.60177(8) 0.82608(8)
N26_2 N 0.63477(8) 0.81950(7) 0.77802(8)
N27_2 N 0.69086(8) 0.67144(8) 0.84612(7)
N28_2 N 0.57327(8) 0.56586(8) 0.65983(8)
N29_2 N 0.55036(8) 0.59913(8) 0.65325(8)
N30_2 N 0.65108(8) 0.66654(8) 0.85520(9)
N31_2 N 0.58460(9) 0.60845(12) 0.82205(8)
C103_2 C 0.52940(10) 0.59589(10) 0.78964(9)
C104_2 C 0.65903(10) 0.72791(9) 0.83119(10)
C105_2 C 0.69578(10) 0.70821(10) 0.83135(10)
N32_2 N 0.65355(14) 0.83241(10) 0.81045(10)
H102_2 H 0.657328 0.857067 0.815831
C106_2 C 0.63440(11) 0.78009(9) 0.78179(10)
C107_2 C 0.57832(10) 0.56185(12) 0.69869(9)
C108_2 C 0.55855(11) 0.59198(12) 0.71867(10)
C109_2 C 0.55975(11) 0.59868(12) 0.76170(10)
C110_2 C 0.65153(10) 0.76843(10) 0.81685(10)
C111_2 C 0.54056(12) 0.61466(11) 0.68850(10)
C112_2 C 0.63215(10) 0.70060(10) 0.84628(12)
C113_2 C 0.59321(12) 0.60644(18) 0.78377(11)
C114_2 C 0.48647(11) 0.58746(16) 0.78460(12)
H103_2 H 0.479274 0.564981 0.800549
H104_2 H 0.481058 0.581797 0.757207
H105_2 H 0.471316 0.610156 0.792779
C115_2 C 0.73502(12) 0.72308(13) 0.81653(17)
H106_2 H 0.753954 0.722754 0.837821
H107_2 H 0.732051 0.749714 0.806872
H108_2 H 0.744183 0.706284 0.795421
C116_2 C 0.60142(18) 0.52890(19) 0.71592(13)
H109_2 H 0.592671 0.504252 0.704622
H110_2 H 0.597542 0.528322 0.744137
H111_2 H 0.629070 0.532685 0.710204
C117_2 C 0.51542(18) 0.65080(15) 0.69239(15)
H112_2 H 0.530328 0.673663 0.684220
H113_2 H 0.507382 0.653905 0.719541
H114_2 H 0.492338 0.648128 0.675897
C118_2 C 0.66565(18) 0.80300(12) 0.83330(13)
C119_2 C 0.61475(18) 0.75496(13) 0.75069(15)
H115_2 H 0.587551 0.762948 0.747816
H116_2 H 0.615825 0.727587 0.758524
H117_2 H 0.628295 0.758268 0.725848
C120_2 C 0.76381(13) 0.62644(14) 0.98993(9)
H118_2 H 0.748179 0.607077 0.978000
C121_2 C 0.77884(16) 0.65758(15) 0.96743(7)
C122_2 C 0.80221(19) 0.68651(15) 0.98527(12)
H119_2 H 0.812264 0.707346 0.970215
C126_2 C 0.7718(2) 0.6567(2) 0.92470(15)
C127_2 C 0.58841(13) 0.70498(14) 0.85168(19)
H122_2 H 0.574867 0.686267 0.835001
H123_2 H 0.580567 0.731434 0.844591
H124_2 H 0.581665 0.700046 0.878915
C128_2 C 0.63497(14) 0.6116(3) 0.77013(14)
H125_2 H 0.643837 0.637897 0.776368
H126_2 H 0.636319 0.607494 0.741964
H127_2 H 0.651642 0.592555 0.783275
O16_2 O 0.7818(2) 0.68707(16) 0.90380(11)
C129_2 C 0.6906(3) 0.80968(18) 0.8717(2)
H128_2 H 0.710054 0.829910 0.866957
H129_2 H 0.703619 0.785403 0.878882
H130_2 H 0.673349 0.817844 0.892875
C182_2 C 0.97439(12) 0.31055(18) 0.81568(16)
H177_2 H 0.962456 0.326183 0.796321
C183_2 C 0.95189(8) 0.29552(17) 0.84682(18)
C184_2 C 0.96972(9) 0.27215(15) 0.87576(15)
H178_2 H 0.954669 0.262097 0.896590
C188_2 C 0.84490(13) 0.3070(2) 0.81665(17)
H185_2 H 0.829976 0.303645 0.793677
C189_2 C 0.82671(9) 0.31981(19) 0.85138(19)
C190_2 C 0.84902(13) 0.32479(16) 0.88572(16)
H186_2 H 0.836851 0.333374 0.908961
C191_2 C 0.88951(12) 0.31693(17) 0.88534(16)
H187_2 H 0.904438 0.320262 0.908312
C192_2 C 0.90770(9) 0.30410(19) 0.85061(18)
C193_2 C 0.88540(14) 0.2991(2) 0.81626(16)
H188_2 H 0.897565 0.290533 0.793028
O25_2 O 0.76314(15) 0.3163(3) 0.8224(3)
C194_2 C 0.78343(19) 0.3286(3) 0.8509(4)
O26_2 O 0.76877(12) 0.34429(19) 0.8781(2)
C201_2 C 0.21540(12) 0.98647(11) 0.91254(16)
H189_2 H 0.199451 0.979274 0.935019
H190_2 H 0.242793 0.981058 0.918203
H191_2 H 0.207221 0.971316 0.889844
H197_2 H 0.324103 0.992338 0.851872
Zn25_2 Zn 0.62900(2) 0.85571(2) 0.73065(2)
Zn28_2 Zn 0.59761(2) 0.53819(2) 0.61369(2)
N54_2 N 0.77802(8) 0.63477(8) 0.81950(7)
N58_2 N 0.56586(8) 0.65983(8) 0.57327(8)
N60_2 N 0.33346(8) 0.35520(9) 0.84892(8)
N62_2 N 0.39155(12) 0.32205(8) 0.91540(9)
O30_2 O 0.6776(3) 0.23686(15) 0.8163(3)
O32_2 O 0.6219(2) 0.23123(12) 0.84429(19)
Zn3_3 Zn 0.21181(2) 0.15239(2) 0.13631(2)
O1_2 O 0.17846(6) 0.17846(6) 0.17846(6)
H1_3 H 0.195251 0.195252 0.195252
N4_2 N 0.17673(8) 0.09017(8) 0.18414(8)
N5_3 N 0.19964(8) 0.09675(8) 0.15087(8)
C5_3 C 0.17168(10) 0.05131(9) 0.18815(12)
C6_3 C 0.19145(11) 0.03133(10) 0.15802(12)
C9_3 C 0.20944(12) 0.06150(10) 0.13534(11)
C14_3 C 0.14858(18) 0.03408(13) 0.22110(19)
H9_3 H 0.157329 0.045378 0.245748
H10_3 H 0.152458 0.005863 0.221678
H11_3 H 0.120930 0.039796 0.217315
C15_3 C 0.23458(18) 0.05761(15) 0.09920(15)
H12_3 H 0.219672 0.065780 0.076337
H13_3 H 0.242618 0.030459 0.096095
H14_3 H 0.257662 0.074103 0.101872
H26_3 H 0.113681 0.008036 0.142506
Zn6_2 Zn 0.13631(2) 0.21181(2) 0.15239(2)
N12_3 N 0.18414(8) 0.17673(8) 0.09017(8)
N13_3 N 0.15087(8) 0.19964(8) 0.09675(8)
C39_3 C 0.18815(12) 0.17168(10) 0.05131(9)
C40_3 C 0.15802(12) 0.19145(11) 0.03133(10)
C43_3 C 0.13534(11) 0.20944(12) 0.06150(10)
C48_3 C 0.22110(19) 0.14858(18) 0.03408(13)
H42_3 H 0.245748 0.157329 0.045378
H43_3 H 0.221678 0.152458 0.005863
H44_3 H 0.217315 0.120930 0.039796
C49_3 C 0.09920(15) 0.23458(18) 0.05761(15)
H45_3 H 0.076337 0.219672 0.065780
H46_3 H 0.096095 0.242618 0.030459
H47_3 H 0.101872 0.257662 0.074103
H59_3 H 0.142506 0.113681 0.008036
Zn9_2 Zn 0.15239(2) 0.13631(2) 0.21181(2)
N20_2 N 0.09017(8) 0.18414(8) 0.17673(8)
N21_2 N 0.09675(8) 0.15087(8) 0.19964(8)
C73_2 C 0.05131(9) 0.18815(12) 0.17168(10)
C74_2 C 0.03133(10) 0.15802(12) 0.19145(11)
C77_2 C 0.06150(10) 0.13534(11) 0.20944(12)
C82_2 C 0.03408(13) 0.22110(19) 0.14858(18)
H75_2 H 0.045378 0.245748 0.157329
H76_2 H 0.005863 0.221678 0.152458
H77_2 H 0.039796 0.217315 0.120930
C83_2 C 0.05761(15) 0.09920(15) 0.23458(18)
H78_2 H 0.065780 0.076337 0.219672
H79_2 H 0.030459 0.096095 0.242618
H80_2 H 0.074103 0.101872 0.257662
H92_2 H 0.008036 0.142506 0.113681
O23_3 O 0.59000(7) 0.24840(8) 0.13261(9)
N42_3 N 0.65388(7) 0.30914(8) 0.17144(8)
C171_3 C 0.66881(10) 0.34097(10) 0.22791(9)
C172_3 C 0.66865(10) 0.30422(10) 0.20821(10)
N44_3 N 0.68955(10) 0.34645(14) 0.33241(10)
H168_3 H 0.684169 0.342672 0.357067
C173_3 C 0.71821(10) 0.36560(11) 0.28009(9)
C174_3 C 0.68315(10) 0.34847(10) 0.26843(10)
C175_3 C 0.65372(12) 0.36785(10) 0.20060(10)
C176_3 C 0.68347(17) 0.26498(12) 0.22308(13)
H169_3 H 0.662179 0.246046 0.222754
H170_3 H 0.693128 0.267949 0.249714
H171_3 H 0.704579 0.255817 0.206284
C177_3 C 0.66670(13) 0.33435(18) 0.30300(12)
C178_3 C 0.74931(15) 0.38525(18) 0.25496(13)
H172_3 H 0.752184 0.412449 0.262948
H173_3 H 0.741476 0.384175 0.227587
H174_3 H 0.774152 0.371705 0.258268
C179_3 C 0.51007(9) 0.23619(13) 0.12644(14)
H175_3 H 0.522000 0.251821 0.107077
C180_3 C 0.53257(7) 0.22116(16) 0.15758(15)
C181_3 C 0.51473(12) 0.19779(19) 0.18651(15)
H176_3 H 0.529785 0.187736 0.207346
C182_3 C 0.47439(12) 0.18945(18) 0.18432(16)
H177_3 H 0.462456 0.173817 0.203679
C183_3 C 0.45189(8) 0.20448(17) 0.15318(18)
C184_3 C 0.46972(9) 0.22785(15) 0.12424(15)
H178_3 H 0.454669 0.237903 0.103410
C185_3 C 0.57530(15) 0.2282(2) 0.1567(2)
C186_3 C 0.64832(19) 0.41159(13) 0.20498(14)
H179_3 H 0.664999 0.425133 0.186267
H180_3 H 0.655409 0.419433 0.231434
H181_3 H 0.621085 0.418335 0.200046
O24_3 O 0.59620(11) 0.2182(2) 0.18707(16)
C187_3 C 0.6283(2) 0.3094(3) 0.30968(18)
H182_3 H 0.633043 0.289946 0.329910
H183_3 H 0.621118 0.296381 0.285403
H184_3 H 0.607125 0.326651 0.317844
C188_3 C 0.34490(13) 0.1930(2) 0.18335(17)
H185_3 H 0.329976 0.196355 0.206323
C189_3 C 0.32671(9) 0.18019(19) 0.14862(19)
C190_3 C 0.34902(13) 0.17521(16) 0.11428(16)
H186_3 H 0.336851 0.166626 0.091039
C191_3 C 0.38951(12) 0.18307(17) 0.11466(16)
H187_3 H 0.404438 0.179738 0.091688
C192_3 C 0.40770(9) 0.19590(19) 0.14939(18)
C193_3 C 0.38540(14) 0.2009(2) 0.18374(16)
H188_3 H 0.397565 0.209467 0.206972
O25_3 O 0.26314(15) 0.1837(3) 0.1776(3)
C194_3 C 0.28343(19) 0.1714(3) 0.1491(4)
O26_3 O 0.26877(12) 0.15571(19) 0.1219(2)
N55_3 N 0.68050(7) 0.22198(8) 0.13477(8)
O29_2 O 0.1837(3) 0.1776(3) 0.26314(15)
O30_3 O 0.1776(3) 0.26314(15) 0.1837(3)
O31_2 O 0.15571(19) 0.1219(2) 0.26877(12)
O32_3 O 0.1219(2) 0.26877(12) 0.15571(19)
H15_3 H 0.162449 0.002184 0.987052
H17_3 H 0.121705 0.024152 0.991732
N11_3 N 0.07856(8) 0.05914(8) 0.90388(7)
N14_3 N 0.08346(8) 0.09892(8) 0.89480(9)
N15_3 N 0.14155(12) 0.16540(9) 0.92795(8)
C35_3 C 0.15411(10) 0.22060(10) 0.96036(9)
C36_3 C 0.02209(9) 0.09097(10) 0.91881(10)
C37_3 C 0.04179(10) 0.05422(10) 0.91865(10)
C41_3 C 0.15132(12) 0.19025(11) 0.98830(10)
C44_3 C 0.04940(10) 0.11785(10) 0.90372(12)
C45_3 C 0.14356(18) 0.15679(12) 0.96623(11)
C46_3 C 0.16254(16) 0.26353(11) 0.96540(12)
H36_3 H 0.185019 0.270726 0.949451
H37_3 H 0.168203 0.268942 0.992793
H38_3 H 0.139844 0.278684 0.957221
C47_3 C 0.02692(13) 0.01498(12) 0.93347(17)
H40_3 H 0.000286 0.017949 0.943128
H41_3 H 0.043716 0.005817 0.954579
H49_3 H 0.022413 0.134175 0.991476
H51_3 H 0.142923 0.001821 0.772000
C59_3 C 0.04502(14) 0.16159(13) 0.89832(19)
H55_3 H 0.063733 0.175133 0.914999
H56_3 H 0.018566 0.169433 0.905409
H57_3 H 0.049954 0.168335 0.871085
C60_3 C 0.1384(3) 0.11503(14) 0.97987(14)
H58_3 H 0.112103 0.106163 0.973632
H60_3 H 0.157445 0.098358 0.966725
Zn1_3 Zn 0.125000 0.88495(2) 0.13495(2)
Zn2_2 Zn 0.01935(2) 0.89429(2) 0.12100(2)
N1_3 N 0.20496(8) 0.92392(8) 0.14823(8)
N3_3 N 0.05914(8) 0.90388(7) 0.07856(8)
N6_3 N 0.09892(8) 0.89480(9) 0.08346(8)
N7_3 N 0.16540(9) 0.92795(8) 0.14155(12)
C1_3 C 0.22060(10) 0.96036(9) 0.15411(10)
C2_3 C 0.09097(10) 0.91881(10) 0.02209(9)
C3_3 C 0.05422(10) 0.91865(10) 0.04179(10)
C7_3 C 0.19025(11) 0.98830(10) 0.15132(12)
C10_3 C 0.11785(10) 0.90372(12) 0.04940(10)
C11_3 C 0.15679(12) 0.96623(11) 0.14356(18)
C12_3 C 0.26353(11) 0.96540(12) 0.16254(16)
H3_3 H 0.270726 0.949451 0.185019
H4_3 H 0.268942 0.992793 0.168203
H5_3 H 0.278684 0.957221 0.139844
C13_3 C 0.01498(12) 0.93347(17) 0.02692(13)
H7_3 H 0.017949 0.943128 0.000286
H8_3 H 0.005817 0.954579 0.043716
H16_3 H 0.134175 0.991476 0.022413
H18_3 H 0.001821 0.772000 0.142923
C25_3 C 0.16159(13) 0.89832(19) 0.04502(14)
H22_3 H 0.175133 0.914999 0.063733
H23_3 H 0.169433 0.905409 0.018566
H24_3 H 0.168335 0.871085 0.049954
C26_3 C 0.11503(14) 0.97987(14) 0.1384(3)
H25_3 H 0.106163 0.973632 0.112103
H27_3 H 0.098358 0.966725 0.157445
H81_2 H 0.002184 0.987052 0.162449
H83_2 H 0.024152 0.991732 0.121705
Zn11_2 Zn 0.03819(2) 0.88631(2) 0.40239(2)
H101_3 H 0.054748 0.945251 0.445252
O15_3 O 0.25160(8) 0.86739(9) 0.09000(7)
N25_3 N 0.04504(8) 0.89823(8) 0.17392(8)
N26_3 N 0.13477(8) 0.68050(7) 0.22198(8)
N27_3 N 0.19086(8) 0.82856(8) 0.15388(7)
N29_3 N 0.05036(8) 0.90087(8) 0.34675(8)
N30_3 N 0.15108(8) 0.83346(8) 0.14480(9)
N31_3 N 0.08460(9) 0.89155(12) 0.17795(8)
C103_3 C 0.02940(10) 0.90411(10) 0.21036(9)
C104_3 C 0.15903(10) 0.77209(9) 0.16881(10)
C105_3 C 0.19578(10) 0.79179(10) 0.16865(10)
N32_3 N 0.15355(14) 0.66759(10) 0.18955(10)
H102_3 H 0.157328 0.642933 0.184169
C106_3 C 0.13440(11) 0.71991(9) 0.21821(10)
C107_3 C 0.07832(10) 0.93815(12) 0.30131(9)
C108_3 C 0.05855(11) 0.90802(12) 0.28133(10)
C109_3 C 0.05975(11) 0.90132(12) 0.23830(10)
C110_3 C 0.15153(10) 0.73157(10) 0.18315(10)
C111_3 C 0.04056(12) 0.88534(11) 0.31150(10)
C112_3 C 0.13215(10) 0.79940(10) 0.15372(12)
C113_3 C 0.09321(12) 0.89356(18) 0.21623(11)
C115_3 C 0.23502(12) 0.77692(13) 0.18347(17)
H106_3 H 0.253954 0.777246 0.162179
H107_3 H 0.232051 0.750286 0.193128
H108_3 H 0.244183 0.793716 0.204579
C116_3 C 0.10142(18) 0.97110(19) 0.28408(13)
H109_3 H 0.092671 0.995748 0.295378
H110_3 H 0.097542 0.971678 0.255863
H111_3 H 0.129070 0.967315 0.289796
C117_3 C 0.01542(18) 0.84920(15) 0.30761(15)
H112_3 H 0.030328 0.826337 0.315780
H113_3 H 0.007382 0.846095 0.280459
C118_3 C 0.16565(18) 0.69700(12) 0.16670(13)
C119_3 C 0.11475(18) 0.74504(13) 0.24931(15)
H115_3 H 0.087551 0.737052 0.252184
H116_3 H 0.115825 0.772413 0.241476
H117_3 H 0.128295 0.741732 0.274152
C120_3 C 0.26381(13) 0.87356(14) 0.01007(9)
H118_3 H 0.248179 0.892923 0.022000
C121_3 C 0.27884(16) 0.84242(15) 0.03257(7)
C122_3 C 0.30221(19) 0.81349(15) 0.01473(12)
H119_3 H 0.312264 0.792654 0.029785
C126_3 C 0.2718(2) 0.8433(2) 0.07530(15)
C127_3 C 0.08841(13) 0.79502(14) 0.14832(19)
H122_3 H 0.074867 0.813733 0.164999
H123_3 H 0.080567 0.768566 0.155409
H124_3 H 0.081665 0.799954 0.121085
C128_3 C 0.13497(14) 0.8884(3) 0.22987(14)
H125_3 H 0.143837 0.862103 0.223632
H126_3 H 0.136319 0.892506 0.258036
H127_3 H 0.151642 0.907445 0.216725
O16_3 O 0.2818(2) 0.81293(16) 0.09620(11)
C129_3 C 0.1906(3) 0.69032(18) 0.1283(2)
H128_3 H 0.210054 0.670090 0.133043
H129_3 H 0.203619 0.714597 0.121118
H130_3 H 0.173349 0.682156 0.107125
N58_3 N 0.06586(8) 0.84017(8) 0.42673(8)
N2_3 N 0.11523(8) 0.97198(8) 0.93050(7)
N8_3 N 0.09645(14) 0.93955(10) 0.91759(10)
H2_3 H 0.092672 0.934169 0.892933
C4_3 C 0.11560(11) 0.96821(10) 0.96991(9)
C8_3 C 0.09847(10) 0.93315(10) 0.98157(10)
C16_3 C 0.08435(18) 0.91670(13) 0.94700(12)
C17_3 C 0.13525(18) 0.99931(15) 0.99504(13)
C27_3 C 0.0594(3) 0.8783(2) 0.94032(18)
H28_3 H 0.039946 0.883043 0.920090
H29_3 H 0.046381 0.871118 0.964597
H30_3 H 0.076651 0.857125 0.932156
O6_3 O 0.11739(9) 0.99840(8) 0.84000(7)
H39_3 H 0.027246 0.996046 0.912179
C52_3 C 0.12356(14) 0.98619(13) 0.76007(9)
C53_3 C 0.09242(15) 0.97116(16) 0.78257(7)
C54_3 C 0.06349(15) 0.94779(19) 0.76473(12)
H52_3 H 0.042654 0.937736 0.779785
C55_3 C 0.06568(16) 0.93945(18) 0.72439(12)
H53_3 H 0.046321 0.923817 0.712456
C56_3 C 0.09682(18) 0.95448(17) 0.70189(8)
C57_3 C 0.12576(15) 0.97785(15) 0.71972(9)
H54_3 H 0.146590 0.987903 0.704669
C58_3 C 0.0933(2) 0.9782(2) 0.82530(15)
O7_3 O 0.06293(16) 0.9682(2) 0.84620(11)
C62_3 C 0.06665(17) 0.9430(2) 0.59490(13)
H64_3 H 0.043677 0.946355 0.579976
C63_3 C 0.10138(19) 0.93019(19) 0.57671(9)
C64_3 C 0.13572(16) 0.92521(16) 0.59902(13)
H65_3 H 0.158961 0.916626 0.586851
C65_3 C 0.13534(16) 0.93307(17) 0.63951(12)
H66_3 H 0.158312 0.929738 0.654438
C66_3 C 0.10061(18) 0.94590(19) 0.65770(9)
C67_3 C 0.06626(16) 0.9509(2) 0.63540(14)
H67_3 H 0.043028 0.959467 0.647565
O8_3 O 0.0724(3) 0.9337(3) 0.51314(15)
C68_3 C 0.1009(4) 0.9214(3) 0.53343(19)
O9_3 O 0.1281(2) 0.90571(19) 0.51877(12)
C123_3 C 0.31055(18) 0.81568(16) 0.97439(12)
H120_3 H 0.326183 0.796321 0.962456
C124_3 C 0.29552(17) 0.84682(18) 0.95189(8)
C125_3 C 0.27215(15) 0.87576(15) 0.96972(9)
H121_3 H 0.262097 0.896590 0.954669
C130_3 C 0.3070(2) 0.81665(17) 0.84490(13)
H131_3 H 0.303645 0.793677 0.829976
C131_3 C 0.31981(19) 0.85138(19) 0.82671(9)
C132_3 C 0.32479(16) 0.88572(16) 0.84902(13)
H132_3 H 0.333374 0.908961 0.836851
C133_3 C 0.31693(17) 0.88534(16) 0.88951(12)
H133_3 H 0.320262 0.908312 0.904438
C134_3 C 0.30410(19) 0.85061(18) 0.90770(9)
C135_3 C 0.2991(2) 0.81626(16) 0.88540(14)
H134_3 H 0.290533 0.793028 0.897565
O17_2 O 0.3163(3) 0.8224(3) 0.76314(15)
C136_3 C 0.3286(3) 0.8509(4) 0.78343(19)
O18_2 O 0.34429(19) 0.8781(2) 0.76877(12)
Zn12_2 Zn 0.34761(2) 0.86369(2) 0.71181(2)
N33_2 N 0.57608(8) 0.85177(8) 0.70496(8)
N34_2 N 0.40983(8) 0.81586(8) 0.67673(8)
N35_2 N 0.40325(8) 0.84913(8) 0.69964(8)
N36_2 N 0.57205(8) 0.85845(12) 0.66540(9)
C137_2 C 0.53964(9) 0.84589(10) 0.72060(10)
C138_2 C 0.44869(9) 0.81185(12) 0.67168(10)
C139_2 C 0.46867(10) 0.84198(12) 0.69145(11)
C140_2 C 0.51170(10) 0.84868(12) 0.69025(11)
C141_2 C 0.43850(10) 0.86466(11) 0.70944(12)
C142_2 C 0.53377(11) 0.85644(18) 0.65679(12)
C143_2 C 0.53460(12) 0.83746(16) 0.76353(11)
H135_2 H 0.550549 0.814981 0.770726
H136_2 H 0.507207 0.831797 0.768942
H137_2 H 0.542779 0.860156 0.778684
C144_2 C 0.46592(13) 0.77890(19) 0.64858(18)
H138_2 H 0.454622 0.754252 0.657329
H139_2 H 0.494137 0.778322 0.652458
H140_2 H 0.460204 0.782685 0.620930
C145_2 C 0.44239(15) 0.90080(15) 0.73458(18)
H141_2 H 0.434220 0.923663 0.719672
H142_2 H 0.469541 0.903905 0.742618
H143_2 H 0.425897 0.898128 0.757662
C146_2 C 0.52013(14) 0.8616(3) 0.61503(14)
H144_2 H 0.526368 0.887897 0.606163
H145_2 H 0.491964 0.857494 0.613681
H146_2 H 0.533275 0.842555 0.598358
Zn18 Zn 0.61505(2) 0.86505(2) 0.625000
Zn27_2 Zn 0.36369(2) 0.78819(2) 0.65239(2)
O27_2 O 0.32154(6) 0.82154(6) 0.67846(6)
N56_2 N 0.32327(8) 0.90983(8) 0.68414(8)
H48_3 H 0.987052 0.162449 0.002184
H50_3 H 0.991732 0.121705 0.024152
Zn7_2 Zn 0.88495(2) 0.13495(2) 0.125000
Zn8_2 Zn 0.89429(2) 0.12100(2) 0.01935(2)
N17_2 N 0.92392(8) 0.14823(8) 0.20496(8)
N19_2 N 0.90388(7) 0.07856(8) 0.05914(8)
N22_2 N 0.89480(9) 0.08346(8) 0.09892(8)
N23_2 N 0.92795(8) 0.14155(12) 0.16540(9)
C69_2 C 0.96036(9) 0.15411(10) 0.22060(10)
C70_2 C 0.91881(10) 0.02209(9) 0.09097(10)
C71_2 C 0.91865(10) 0.04179(10) 0.05422(10)
C75_2 C 0.98830(10) 0.15132(12) 0.19025(11)
C78_2 C 0.90372(12) 0.04940(10) 0.11785(10)
C79_2 C 0.96623(11) 0.14356(18) 0.15679(12)
C80_2 C 0.96540(12) 0.16254(16) 0.26353(11)
H69_2 H 0.949451 0.185019 0.270726
H70_2 H 0.992793 0.168203 0.268942
H71_2 H 0.957221 0.139844 0.278684
C81_2 C 0.93347(17) 0.02692(13) 0.01498(12)
H73_2 H 0.943128 0.000286 0.017949
H74_2 H 0.954579 0.043716 0.005817
H82_2 H 0.991476 0.022413 0.134175
H84_2 H 0.772000 0.142923 0.001821
C93_2 C 0.89832(19) 0.04502(14) 0.16159(13)
H88_2 H 0.914999 0.063733 0.175133
H89_2 H 0.905409 0.018566 0.169433
H90_2 H 0.871085 0.049954 0.168335
C94_2 C 0.97987(14) 0.1384(3) 0.11503(14)
H91_2 H 0.973632 0.112103 0.106163
H93_2 H 0.966725 0.157445 0.098358
N37_2 N 0.52802(8) 0.06950(7) 0.61523(8)
N40_2 N 0.56045(10) 0.08241(10) 0.59645(14)
H147_2 H 0.565831 0.107067 0.592672
C149_2 C 0.53179(10) 0.03009(9) 0.61560(11)
C150_2 C 0.56685(10) 0.01843(10) 0.59847(10)
C153_2 C 0.58330(13) 0.05300(12) 0.58435(18)
C154_2 C 0.50069(15) 0.00496(13) 0.63525(18)
H151_2 H 0.497816 0.012948 0.662449
H153_2 H 0.475848 0.008268 0.621705
C163_2 C 0.6217(2) 0.05968(18) 0.5594(3)
H161_2 H 0.616957 0.079910 0.539946
H162_2 H 0.628882 0.035403 0.546381
H163_2 H 0.642875 0.067844 0.576651
Zn20_2 Zn 0.48065(2) 0.10571(2) 0.62100(2)
N51_2 N 0.89823(8) 0.17392(8) 0.04504(8)
N60_3 N 0.83346(8) 0.14480(9) 0.15108(8)
N62_3 N 0.89155(12) 0.17795(8) 0.08460(9)
N10_2 N 0.93050(7) 0.11523(8) 0.97198(8)
N16_3 N 0.91759(10) 0.09645(14) 0.93955(10)
H35_3 H 0.892933 0.092672 0.934169
C38_3 C 0.96991(9) 0.11560(11) 0.96821(10)
C42_3 C 0.98157(10) 0.09847(10) 0.93315(10)
C50_3 C 0.94700(12) 0.08435(18) 0.91670(13)
C51_3 C 0.99504(13) 0.13525(18) 0.99931(15)
C61_3 C 0.94032(18) 0.0594(3) 0.8783(2)
H61_3 H 0.920090 0.039946 0.883043
H62_3 H 0.964597 0.046381 0.871118
H63_3 H 0.932156 0.076651 0.857125
O10_2 O 0.84000(7) 0.11739(9) 0.99840(8)
H72_2 H 0.912179 0.027246 0.996046
C86_2 C 0.76007(9) 0.12356(14) 0.98619(13)
C87_2 C 0.78257(7) 0.09242(15) 0.97116(16)
C88_2 C 0.76473(12) 0.06349(15) 0.94779(19)
H85_2 H 0.779785 0.042654 0.937736
C89_2 C 0.72439(12) 0.06568(16) 0.93945(18)
H86_2 H 0.712456 0.046321 0.923817
C90_2 C 0.70189(8) 0.09682(18) 0.95448(17)
C91_2 C 0.71972(9) 0.12576(15) 0.97785(15)
H87_2 H 0.704669 0.146590 0.987903
C92_2 C 0.82530(15) 0.0933(2) 0.9782(2)
O11_2 O 0.84620(11) 0.06293(16) 0.9682(2)
C96_2 C 0.59490(13) 0.06665(17) 0.9430(2)
H97_2 H 0.579976 0.043677 0.946355
C97_2 C 0.57671(9) 0.10138(19) 0.93019(19)
C98_2 C 0.59902(13) 0.13572(16) 0.92521(16)
H98_2 H 0.586851 0.158961 0.916626
C99_2 C 0.63951(12) 0.13534(16) 0.93307(17)
H99_2 H 0.654438 0.158312 0.929738
C100_2 C 0.65770(9) 0.10061(18) 0.94590(19)
C101_2 C 0.63540(14) 0.06626(16) 0.9509(2)
H100_2 H 0.647565 0.043028 0.959467
O12_2 O 0.51314(15) 0.0724(3) 0.9337(3)
C102_2 C 0.53343(19) 0.1009(4) 0.9214(3)
O13_2 O 0.51877(12) 0.1281(2) 0.90571(19)
Zn29_2 Zn 0.46181(2) 0.11369(2) 0.90239(2)
H202_2 H 0.854653 0.0484183 0.992416
O2_3 O 0.99840(8) 0.84000(7) 0.11739(9)
H6_3 H 0.996046 0.912179 0.027246
C18_3 C 0.98619(13) 0.76007(9) 0.12356(14)
C19_3 C 0.97116(16) 0.78257(7) 0.09242(15)
C20_3 C 0.94779(19) 0.76473(12) 0.06349(15)
H19_3 H 0.937736 0.779785 0.042654
C21_3 C 0.93945(18) 0.72439(12) 0.06568(16)
H20_3 H 0.923817 0.712456 0.046321
C22_3 C 0.95448(17) 0.70189(8) 0.09682(18)
C23_3 C 0.97785(15) 0.71972(9) 0.12576(15)
H21_3 H 0.987903 0.704669 0.146590
C24_3 C 0.9782(2) 0.82530(15) 0.0933(2)
O3_3 O 0.9682(2) 0.84620(11) 0.06293(16)
C28_3 C 0.9430(2) 0.59490(13) 0.06665(17)
H31_3 H 0.946355 0.579976 0.043677
C29_3 C 0.93019(19) 0.57671(9) 0.10138(19)
C30_3 C 0.92521(16) 0.59902(13) 0.13572(16)
H32_3 H 0.916626 0.586851 0.158961
C31_3 C 0.93307(17) 0.63951(12) 0.13534(16)
H33_3 H 0.929738 0.654438 0.158312
C32_3 C 0.94590(19) 0.65770(9) 0.10061(18)
C33_3 C 0.9509(2) 0.63540(14) 0.06626(16)
H34_3 H 0.959467 0.647565 0.043028
O4_3 O 0.9337(3) 0.51314(15) 0.0724(3)
C34_3 C 0.9214(3) 0.53343(19) 0.1009(4)
O5_3 O 0.90571(19) 0.51877(12) 0.1281(2)
N18_2 N 0.97198(8) 0.93050(7) 0.11523(8)
N24_2 N 0.93955(10) 0.91759(10) 0.09645(14)
H68_2 H 0.934169 0.892933 0.092672
C72_2 C 0.96821(10) 0.96991(9) 0.11560(11)
C76_2 C 0.93315(10) 0.98157(10) 0.09847(10)
C84_2 C 0.91670(13) 0.94700(12) 0.08435(18)
C85_2 C 0.99931(15) 0.99504(13) 0.13525(18)
C95_2 C 0.8783(2) 0.94032(18) 0.0594(3)
H94_2 H 0.883043 0.920090 0.039946
H95_2 H 0.871118 0.964597 0.046381
H96_2 H 0.857125 0.932156 0.076651
C114_3 C 0.98647(11) 0.91254(16) 0.21540(12)
H103_3 H 0.979274 0.935019 0.199451
H104_3 H 0.981058 0.918203 0.242793
H105_3 H 0.971316 0.889844 0.207221
H114_3 H 0.992338 0.851872 0.324103
Zn13_2 Zn 0.60571(2) 0.87900(2) 0.51935(2)
O19_2 O 0.66000(7) 0.88261(9) 0.49840(8)
N38_2 N 0.59612(7) 0.92144(8) 0.55914(8)
N39_2 N 0.60520(9) 0.91654(8) 0.59892(8)
C147_2 C 0.58119(10) 0.97791(9) 0.59097(10)
C148_2 C 0.58135(10) 0.95821(10) 0.55422(10)
C151_2 C 0.59628(12) 0.95060(10) 0.61785(10)
C152_2 C 0.56653(17) 0.97308(13) 0.51498(12)
H148_2 H 0.587821 0.972754 0.496046
H149_2 H 0.556872 0.999714 0.517949
H150_2 H 0.545421 0.956284 0.505817
H152_2 H 0.508524 0.977587 0.634175
C155_2 C 0.73993(9) 0.87644(14) 0.48619(13)
H154_2 H 0.728000 0.857077 0.501821
C156_2 C 0.71743(7) 0.90758(15) 0.47116(16)
C157_2 C 0.73527(12) 0.93651(15) 0.44779(19)
H155_2 H 0.720215 0.957346 0.437736
C158_2 C 0.77561(12) 0.93432(16) 0.43945(18)
H156_2 H 0.787544 0.953679 0.423817
C159_2 C 0.79811(8) 0.90318(18) 0.45448(17)
C160_2 C 0.78028(9) 0.87424(15) 0.47785(15)
H157_2 H 0.795331 0.853410 0.487903
C161_2 C 0.67470(15) 0.9067(2) 0.4782(2)
C162_2 C 0.60168(19) 0.95498(14) 0.66159(13)
H158_2 H 0.585001 0.936267 0.675133
H159_2 H 0.594591 0.981434 0.669433
H160_2 H 0.628915 0.950046 0.668335
O20_2 O 0.65380(11) 0.93707(16) 0.4682(2)
C164_2 C 0.90510(13) 0.93335(17) 0.4430(2)
H164_2 H 0.920024 0.956323 0.446355
C165_2 C 0.92329(9) 0.89862(19) 0.43019(19)
C166_2 C 0.90098(13) 0.86428(16) 0.42521(16)
H165_2 H 0.913149 0.841039 0.416626
C167_2 C 0.86049(12) 0.86466(16) 0.43307(17)
H166_2 H 0.845562 0.841688 0.429738
C168_2 C 0.84230(9) 0.89939(18) 0.44590(19)
C169_2 C 0.86460(14) 0.93374(16) 0.4509(2)
H167_2 H 0.852435 0.956972 0.459467
O21_2 O 0.98686(15) 0.9276(3) 0.4337(3)
C170_2 C 0.96657(19) 0.8991(4) 0.4214(3)
O22_2 O 0.98123(12) 0.8719(2) 0.40571(19)
N46_3 N 0.84017(8) 0.42673(8) 0.06586(8)
N47_3 N 0.84675(8) 0.44964(8) 0.09913(8)
C195_3 C 0.71036(9) 0.47060(10) 0.09589(10)
C196_3 C 0.80131(9) 0.42168(10) 0.06185(12)
C197_3 C 0.78133(10) 0.44145(11) 0.09198(12)
C198_3 C 0.73830(10) 0.44025(11) 0.09868(12)
C199_3 C 0.81150(10) 0.45944(12) 0.11466(11)
C200_3 C 0.71623(11) 0.40679(12) 0.10644(18)
C201_3 C 0.71540(12) 0.51353(11) 0.08746(16)
H189_3 H 0.699451 0.520726 0.064981
H190_3 H 0.742793 0.518942 0.081797
H191_3 H 0.707221 0.528684 0.110156
C202_3 C 0.78408(13) 0.39858(18) 0.02890(19)
H192_3 H 0.795378 0.407329 0.004252
H193_3 H 0.755863 0.402458 0.028322
H194_3 H 0.789796 0.370930 0.032685
C203_3 C 0.80761(15) 0.48458(18) 0.15080(15)
H195_3 H 0.815780 0.469672 0.173663
H196_3 H 0.780459 0.492618 0.153905
H197_3 H 0.824103 0.507662 0.148128
C204_3 C 0.72987(14) 0.36503(14) 0.1116(3)
H198_3 H 0.723632 0.356163 0.137897
H199_3 H 0.758036 0.363681 0.107494
H200_3 H 0.716725 0.348358 0.092555
N52_2 N 0.60177(8) 0.82608(8) 0.54504(8)
N53_2 N 0.56950(7) 0.88477(8) 0.47198(8)
H201_2 H 0.645347 0.951582 0.492416
Zn1_4 Zn 0.375000 0.11505(2) 0.63495(2)
O2_4 O 0.50160(8) 0.16000(7) 0.61739(9)
N1_4 N 0.29504(8) 0.07608(8) 0.64823(8)
N2_4 N 0.38477(8) 0.02802(8) 0.43050(7)
N3_4 N 0.44086(8) 0.09612(7) 0.57856(8)
N6_4 N 0.40108(8) 0.10520(9) 0.58346(8)
N7_4 N 0.33460(9) 0.07205(8) 0.64155(12)
C1_4 C 0.27940(10) 0.03964(9) 0.65411(10)
C2_4 C 0.40903(10) 0.08119(10) 0.52209(9)
C3_4 C 0.44578(10) 0.08135(10) 0.54179(10)
N8_4 N 0.40355(14) 0.06045(10) 0.41759(10)
H2_4 H 0.407328 0.065831 0.392933
C4_4 C 0.38440(11) 0.03179(10) 0.46991(9)
C7_4 C 0.30975(11) 0.01170(10) 0.65132(12)
C8_4 C 0.40153(10) 0.06685(10) 0.48157(10)
C10_4 C 0.38215(10) 0.09628(12) 0.54940(10)
C11_4 C 0.34321(12) 0.03377(11) 0.64356(18)
C12_4 C 0.23647(11) 0.03460(12) 0.66254(16)
H3_4 H 0.229274 0.050549 0.685019
H4_4 H 0.231058 0.007207 0.668203
H5_4 H 0.221316 0.042779 0.639844
C13_4 C 0.48502(12) 0.06653(17) 0.52692(13)
H6_4 H 0.503954 0.087821 0.527246
H7_4 H 0.482051 0.056872 0.500286
H8_4 H 0.494183 0.045421 0.543716
C16_4 C 0.41565(18) 0.08330(13) 0.44700(12)
C17_4 C 0.36475(18) 0.00069(15) 0.49504(13)
H16_4 H 0.365825 0.008524 0.522413
C18_4 C 0.51381(13) 0.23993(9) 0.62356(14)
H18_4 H 0.498179 0.228000 0.642923
C19_4 C 0.52884(16) 0.21743(7) 0.59242(15)
C20_4 C 0.55221(19) 0.23527(12) 0.56349(15)
H19_4 H 0.562264 0.220215 0.542654
C21_4 C 0.56055(18) 0.27561(12) 0.56568(16)
H20_4 H 0.576183 0.287544 0.546321
C22_4 C 0.54552(17) 0.29811(8) 0.59682(18)
C23_4 C 0.52215(15) 0.28028(9) 0.62576(15)
H21_4 H 0.512097 0.295331 0.646590
C24_4 C 0.5218(2) 0.17470(15) 0.5933(2)
C25_4 C 0.33841(13) 0.10168(19) 0.54502(14)
H22_4 H 0.324867 0.085001 0.563733
H23_4 H 0.330567 0.094591 0.518566
H24_4 H 0.331665 0.128915 0.549954
C26_4 C 0.38497(14) 0.02013(14) 0.6384(3)
H25_4 H 0.393837 0.026368 0.612103
H27_4 H 0.401642 0.033275 0.657445
O3_4 O 0.5318(2) 0.15380(11) 0.56293(16)
C27_4 C 0.4406(3) 0.1217(2) 0.44032(18)
H28_4 H 0.460054 0.116957 0.420090
H29_4 H 0.453619 0.128882 0.464597
H30_4 H 0.423349 0.142875 0.432156
C28_4 C 0.5570(2) 0.40510(13) 0.56665(17)
H31_4 H 0.553645 0.420024 0.543677
C29_4 C 0.56981(19) 0.42329(9) 0.60138(19)
C30_4 C 0.57479(16) 0.40098(13) 0.63572(16)
H32_4 H 0.583374 0.413149 0.658961
C31_4 C 0.56693(17) 0.36049(12) 0.63534(16)
H33_4 H 0.570262 0.345562 0.658312
C32_4 C 0.55410(19) 0.34230(9) 0.60061(18)
C33_4 C 0.5491(2) 0.36460(14) 0.56626(16)
H34_4 H 0.540533 0.352435 0.543028
O4_4 O 0.5663(3) 0.48686(15) 0.5724(3)
C34_4 C 0.5786(3) 0.46657(19) 0.6009(4)
O5_4 O 0.59429(19) 0.48123(12) 0.6281(2)
O6_4 O 0.38261(9) 0.00160(8) 0.34000(7)
H39_4 H 0.472754 0.003954 0.412179
C52_4 C 0.37644(14) 0.01381(13) 0.26007(9)
C53_4 C 0.40758(15) 0.02884(16) 0.28257(7)
C54_4 C 0.43651(15) 0.05221(19) 0.26473(12)
H52_4 H 0.457346 0.062264 0.279785
C55_4 C 0.43432(16) 0.06055(18) 0.22439(12)
H53_4 H 0.453679 0.076183 0.212456
C56_4 C 0.40318(18) 0.04552(17) 0.20189(8)
C57_4 C 0.37424(15) 0.02215(15) 0.21972(9)
H54_4 H 0.353410 0.012097 0.204669
C58_4 C 0.4067(2) 0.0218(2) 0.32530(15)
O7_4 O 0.43707(16) 0.0318(2) 0.34620(11)
C62_4 C 0.43335(17) 0.0570(2) 0.09490(13)
H64_4 H 0.456323 0.053645 0.079976
C63_4 C 0.39862(19) 0.06981(19) 0.07671(9)
C64_4 C 0.36428(16) 0.07479(16) 0.09902(13)
H65_4 H 0.341039 0.083374 0.086851
C65_4 C 0.36466(16) 0.06693(17) 0.13951(12)
H66_4 H 0.341688 0.070262 0.154438
C66_4 C 0.39939(18) 0.05410(19) 0.15770(9)
C67_4 C 0.43374(16) 0.0491(2) 0.13540(14)
H67_4 H 0.456972 0.040533 0.147565
O8_4 O 0.4276(3) 0.0663(3) 0.01314(15)
C68_4 C 0.3991(4) 0.0786(3) 0.03343(19)
O9_4 O 0.3719(2) 0.09429(19) 0.01877(12)
H101_4 H 0.445252 0.054749 0.945252
O15_4 O 0.24840(8) 0.13261(9) 0.59000(7)
N25_4 N 0.45496(8) 0.10177(8) 0.67392(8)
N26_4 N 0.36523(8) 0.31950(7) 0.72198(8)
N27_4 N 0.30914(8) 0.17144(8) 0.65388(7)
N29_4 N 0.44964(8) 0.09913(8) 0.84675(8)
N30_4 N 0.34892(8) 0.16654(8) 0.64480(9)
N31_4 N 0.41540(9) 0.10845(12) 0.67795(8)
C103_4 C 0.47060(10) 0.09589(10) 0.71036(9)
C104_4 C 0.34097(10) 0.22791(9) 0.66881(10)
C105_4 C 0.30422(10) 0.20821(10) 0.66865(10)
N32_4 N 0.34645(14) 0.33241(10) 0.68955(10)
H102_4 H 0.342672 0.357067 0.684169
C106_4 C 0.36560(11) 0.28009(9) 0.71821(10)
C107_4 C 0.42168(10) 0.06185(12) 0.80131(9)
C108_4 C 0.44145(11) 0.09198(12) 0.78133(10)
C109_4 C 0.44025(11) 0.09868(12) 0.73830(10)
C110_4 C 0.34847(10) 0.26843(10) 0.68315(10)
C111_4 C 0.45944(12) 0.11466(11) 0.81150(10)
C112_4 C 0.36785(10) 0.20060(10) 0.65372(12)
C113_4 C 0.40679(12) 0.10644(18) 0.71623(11)
C114_4 C 0.51353(11) 0.08746(16) 0.71540(12)
H103_4 H 0.520726 0.064981 0.699451
H104_4 H 0.518942 0.081797 0.742793
H105_4 H 0.528684 0.110156 0.707221
C115_4 C 0.26498(12) 0.22308(13) 0.68347(17)
H106_4 H 0.246046 0.222754 0.662179
H107_4 H 0.267949 0.249714 0.693128
H108_4 H 0.255817 0.206284 0.704579
C116_4 C 0.39858(18) 0.02890(19) 0.78408(13)
H109_4 H 0.407329 0.004252 0.795378
H110_4 H 0.402458 0.028322 0.755863
H111_4 H 0.370930 0.032685 0.789796
C117_4 C 0.48458(18) 0.15080(15) 0.80761(15)
H112_4 H 0.469672 0.173663 0.815780
H113_4 H 0.492618 0.153905 0.780459
H114_4 H 0.507662 0.148128 0.824103
C118_4 C 0.33435(18) 0.30300(12) 0.66670(13)
C119_4 C 0.38525(18) 0.25496(13) 0.74931(15)
H115_4 H 0.412449 0.262948 0.752184
H116_4 H 0.384175 0.227587 0.741476
H117_4 H 0.371705 0.258268 0.774152
C120_4 C 0.23619(13) 0.12644(14) 0.51007(9)
H118_4 H 0.251821 0.107077 0.522000
C121_4 C 0.22116(16) 0.15758(15) 0.53257(7)
C122_4 C 0.19779(19) 0.18651(15) 0.51473(12)
H119_4 H 0.187736 0.207346 0.529785
C123_4 C 0.18945(18) 0.18432(16) 0.47439(12)
H120_4 H 0.173817 0.203679 0.462456
C124_4 C 0.20448(17) 0.15318(18) 0.45189(8)
C125_4 C 0.22785(15) 0.12424(15) 0.46972(9)
H121_4 H 0.237903 0.103410 0.454669
C126_4 C 0.2282(2) 0.1567(2) 0.57530(15)
C127_4 C 0.41159(13) 0.20498(14) 0.64832(19)
H122_4 H 0.425133 0.186267 0.664999
H123_4 H 0.419433 0.231434 0.655409
H124_4 H 0.418335 0.200046 0.621085
C128_4 C 0.36503(14) 0.1116(3) 0.72987(14)
H125_4 H 0.356163 0.137897 0.723632
H126_4 H 0.363681 0.107494 0.758036
H127_4 H 0.348358 0.092555 0.716725
O16_4 O 0.2182(2) 0.18707(16) 0.59620(11)
C129_4 C 0.3094(3) 0.30968(18) 0.6283(2)
H128_4 H 0.289946 0.329910 0.633043
H129_4 H 0.296381 0.285403 0.621118
H130_4 H 0.326651 0.317844 0.607125
C130_4 C 0.1930(2) 0.18335(17) 0.34490(13)
H131_4 H 0.196355 0.206323 0.329976
C131_4 C 0.18019(19) 0.14862(19) 0.32671(9)
C132_4 C 0.17521(16) 0.11428(16) 0.34902(13)
H132_4 H 0.166626 0.091039 0.336851
C133_4 C 0.18307(17) 0.11466(16) 0.38951(12)
H133_4 H 0.179738 0.091688 0.404438
C134_4 C 0.19590(19) 0.14939(18) 0.40770(9)
C135_4 C 0.2009(2) 0.18374(16) 0.38540(14)
H134_4 H 0.209467 0.206972 0.397565
C136_4 C 0.1714(3) 0.1491(4) 0.28343(19)
N46_4 N 0.65983(8) 0.57327(8) 0.56586(8)
N47_4 N 0.65325(8) 0.55036(8) 0.59913(8)
C195_4 C 0.78964(9) 0.52940(10) 0.59589(10)
C196_4 C 0.69869(9) 0.57832(10) 0.56185(12)
C197_4 C 0.71867(10) 0.55855(11) 0.59198(12)
C198_4 C 0.76170(10) 0.55975(11) 0.59868(12)
C199_4 C 0.68850(10) 0.54056(12) 0.61466(11)
C200_4 C 0.78377(11) 0.59321(12) 0.60644(18)
C201_4 C 0.78460(12) 0.48647(11) 0.58746(16)
H189_4 H 0.800549 0.479274 0.564981
H190_4 H 0.757207 0.481058 0.581797
H191_4 H 0.792779 0.471316 0.610156
C202_4 C 0.71592(13) 0.60142(18) 0.52890(19)
H192_4 H 0.704622 0.592671 0.504252
H193_4 H 0.744137 0.597542 0.528322
H194_4 H 0.710204 0.629070 0.532685
C203_4 C 0.69239(15) 0.51542(18) 0.65080(15)
H195_4 H 0.684220 0.530328 0.673663
H196_4 H 0.719541 0.507382 0.653905
H197_4 H 0.675897 0.492338 0.648128
C204_4 C 0.77013(14) 0.63497(14) 0.6116(3)
H198_4 H 0.776368 0.643837 0.637897
H199_4 H 0.741964 0.636319 0.607494
H200_4 H 0.783275 0.651642 0.592555
N58_4 N 0.43414(8) 0.15983(8) 0.92673(8)
Zn3_4 Zn 0.28819(2) 0.84761(2) 0.63631(2)
H1_4 H 0.304749 0.804748 0.695252
N5_4 N 0.30036(8) 0.90325(8) 0.65087(8)
C5_4 C 0.32832(10) 0.94869(9) 0.68815(12)
C6_4 C 0.30855(11) 0.96867(10) 0.65802(12)
C9_4 C 0.29056(12) 0.93850(10) 0.63534(11)
C14_4 C 0.35142(18) 0.96592(13) 0.72110(19)
H9_4 H 0.342671 0.954622 0.745748
H10_4 H 0.347542 0.994137 0.721678
H11_4 H 0.379070 0.960204 0.717315
C15_4 C 0.26542(18) 0.94239(15) 0.59920(15)
H12_4 H 0.280328 0.934220 0.576337
H13_4 H 0.257382 0.969541 0.596095
H14_4 H 0.242338 0.925897 0.601872
H15_4 H 0.337551 0.997816 0.487052
H17_4 H 0.378295 0.975848 0.491732
H26_4 H 0.386319 0.991964 0.642506
N11_4 N 0.42144(8) 0.94086(8) 0.40388(7)
N12_4 N 0.31586(8) 0.82327(8) 0.59017(8)
N13_4 N 0.34913(8) 0.80036(8) 0.59675(8)
N14_4 N 0.41654(8) 0.90108(8) 0.39480(9)
N15_4 N 0.35845(12) 0.83460(9) 0.42795(8)
C35_4 C 0.34589(10) 0.77940(10) 0.46036(9)
C36_4 C 0.47791(9) 0.90903(10) 0.41881(10)
C37_4 C 0.45821(10) 0.94578(10) 0.41865(10)
N16_4 N 0.58241(10) 0.90355(14) 0.43955(10)
H35_4 H 0.607067 0.907328 0.434169
C38_4 C 0.53009(9) 0.88440(11) 0.46821(10)
C39_4 C 0.31185(12) 0.82832(10) 0.55131(9)
C40_4 C 0.34198(12) 0.80855(11) 0.53133(10)
C41_4 C 0.34868(12) 0.80975(11) 0.48830(10)
C42_4 C 0.51843(10) 0.90153(10) 0.43315(10)
C43_4 C 0.36466(11) 0.79056(12) 0.56150(10)
C44_4 C 0.45060(10) 0.88215(10) 0.40372(12)
C45_4 C 0.35644(18) 0.84321(12) 0.46623(11)
C46_4 C 0.33746(16) 0.73647(11) 0.46540(12)
H36_4 H 0.314981 0.729274 0.449451
H37_4 H 0.331797 0.731058 0.492793
H38_4 H 0.360156 0.721316 0.457221
C47_4 C 0.47308(13) 0.98502(12) 0.43347(17)
H40_4 H 0.499714 0.982051 0.443128
H41_4 H 0.456284 0.994183 0.454579
C48_4 C 0.27890(19) 0.85142(18) 0.53408(13)
H42_4 H 0.254252 0.842671 0.545378
H43_4 H 0.278322 0.847542 0.505863
H44_4 H 0.282685 0.879070 0.539796
C49_4 C 0.40080(15) 0.76542(18) 0.55761(15)
H45_4 H 0.423663 0.780328 0.565780
H46_4 H 0.403905 0.757382 0.530459
H47_4 H 0.398128 0.742338 0.574103
C50_4 C 0.55300(12) 0.91565(18) 0.41670(13)
C51_4 C 0.50496(13) 0.86475(18) 0.49931(15)
H48_4 H 0.512948 0.837551 0.502184
H49_4 H 0.477587 0.865825 0.491476
H50_4 H 0.508268 0.878295 0.524152
H51_4 H 0.357077 0.998179 0.272000
C59_4 C 0.45498(14) 0.83841(13) 0.39832(19)
H55_4 H 0.436267 0.824867 0.414999
H56_4 H 0.481434 0.830567 0.405409
H57_4 H 0.450046 0.831665 0.371085
C60_4 C 0.3616(3) 0.88497(14) 0.47987(14)
H58_4 H 0.387897 0.893837 0.473632
H59_4 H 0.357494 0.886319 0.508036
H60_4 H 0.342555 0.901642 0.466725
C61_4 C 0.55968(18) 0.9406(3) 0.3783(2)
H61_4 H 0.579910 0.960054 0.383043
H62_4 H 0.535403 0.953619 0.371118
H63_4 H 0.567844 0.923349 0.357125
C182_4 C 0.02561(12) 0.81055(18) 0.68432(16)
H177_4 H 0.037544 0.826183 0.703679
C183_4 C 0.04811(8) 0.79552(17) 0.65318(18)
C184_4 C 0.03028(9) 0.77215(15) 0.62424(15)
H178_4 H 0.045331 0.762097 0.603410
C188_4 C 0.15510(13) 0.8070(2) 0.68335(17)
H185_4 H 0.170024 0.803645 0.706323
C189_4 C 0.17329(9) 0.81981(19) 0.64862(19)
C190_4 C 0.15098(13) 0.82479(16) 0.61428(16)
H186_4 H 0.163149 0.833374 0.591039
C191_4 C 0.11049(12) 0.81693(17) 0.61466(16)
H187_4 H 0.095562 0.820262 0.591688
C192_4 C 0.09230(9) 0.80410(19) 0.64939(18)
C193_4 C 0.11460(14) 0.7991(2) 0.68374(16)
H188_4 H 0.102435 0.790533 0.706972
O25_4 O 0.23686(15) 0.8163(3) 0.6776(3)
C194_4 C 0.21657(19) 0.8286(3) 0.6491(4)
O26_4 O 0.23123(12) 0.84429(19) 0.6219(2)
N60_4 N 0.66654(8) 0.85520(9) 0.65108(8)
N62_4 N 0.60845(12) 0.82205(8) 0.58460(9)
O30_4 O 0.3224(3) 0.73686(15) 0.6837(3)
O32_4 O 0.3781(2) 0.73123(12) 0.65571(19)
O23_4 O 0.91000(7) 0.75160(8) 0.63261(9)
N42_4 N 0.84612(7) 0.69086(8) 0.67144(8)
C171_4 C 0.83119(10) 0.65903(10) 0.72791(9)
C172_4 C 0.83135(10) 0.69578(10) 0.70821(10)
N44_4 N 0.81045(10) 0.65355(14) 0.83241(10)
H168_4 H 0.815831 0.657328 0.857067
C173_4 C 0.78179(10) 0.63440(11) 0.78009(9)
C174_4 C 0.81685(10) 0.65153(10) 0.76843(10)
C175_4 C 0.84628(12) 0.63215(10) 0.70060(10)
C176_4 C 0.81653(17) 0.73502(12) 0.72308(13)
H169_4 H 0.837821 0.753954 0.722754
H170_4 H 0.806872 0.732051 0.749714
H171_4 H 0.795421 0.744183 0.706284
C177_4 C 0.83330(13) 0.66565(18) 0.80300(12)
C178_4 C 0.75069(15) 0.61475(18) 0.75496(13)
H172_4 H 0.747816 0.587551 0.762948
H173_4 H 0.758524 0.615825 0.727587
H174_4 H 0.725848 0.628295 0.758268
C179_4 C 0.98993(9) 0.76381(13) 0.62644(14)
H175_4 H 0.978000 0.748179 0.607077
C180_4 C 0.96743(7) 0.77884(16) 0.65758(15)
C181_4 C 0.98527(12) 0.80221(19) 0.68651(15)
H176_4 H 0.970215 0.812264 0.707346
C185_4 C 0.92470(15) 0.7718(2) 0.6567(2)
C186_4 C 0.85168(19) 0.58841(13) 0.70498(14)
H179_4 H 0.835001 0.574867 0.686267
H180_4 H 0.844591 0.580567 0.731434
H181_4 H 0.878915 0.581665 0.700046
O24_4 O 0.90380(11) 0.7818(2) 0.68707(16)
C187_4 C 0.8717(2) 0.6906(3) 0.80968(18)
H182_4 H 0.866957 0.710054 0.829910
H183_4 H 0.878882 0.703619 0.785403
H184_4 H 0.892875 0.673349 0.817844
N55_4 N 0.81950(7) 0.77802(8) 0.63477(8)
C201_5 C 0.41254(16) 0.28460(12) 0.01353(11)
H189_5 H 0.435019 0.300549 0.020726
H190_5 H 0.418203 0.257207 0.018942
H191_5 H 0.389844 0.292779 0.028684
H197_5 H 0.351872 0.175897 0.007662
H201_3 H 0.00758413 0.354653 0.451582
H202_3 H 0.507584 0.145347 0.548418
N47_5 N 0.40087(8) 0.15325(8) 0.94964(8)
C195_5 C 0.40411(10) 0.28964(9) 0.97060(10)
C196_5 C 0.43815(12) 0.19869(9) 0.92168(10)
C197_5 C 0.40802(12) 0.21867(10) 0.94145(11)
C198_5 C 0.40132(12) 0.26170(10) 0.94025(11)
C199_5 C 0.38534(11) 0.18850(10) 0.95944(12)
C200_5 C 0.39356(18) 0.28377(11) 0.90679(12)
C202_5 C 0.47110(19) 0.21592(13) 0.89858(18)
H192_5 H 0.495748 0.204622 0.907329
H193_5 H 0.471678 0.244137 0.902458
H194_5 H 0.467315 0.210204 0.870930
C203_5 C 0.34920(15) 0.19239(15) 0.98458(18)
H195_5 H 0.326337 0.184220 0.969672
H196_5 H 0.346095 0.219541 0.992618
C204_5 C 0.3884(3) 0.27013(14) 0.86503(14)
H198_5 H 0.362103 0.276368 0.856163
H199_5 H 0.392506 0.241964 0.863681
H200_5 H 0.407445 0.283275 0.848358
O23_5 O 0.36739(9) 0.41000(7) 0.74840(8)
N42_5 N 0.32856(8) 0.34612(7) 0.80914(8)
C171_5 C 0.27209(9) 0.33119(10) 0.84097(10)
C172_5 C 0.29179(10) 0.33135(10) 0.80422(10)
N44_5 N 0.16759(10) 0.31045(10) 0.84645(14)
H168_5 H 0.142933 0.315831 0.842672
C173_5 C 0.21991(9) 0.28179(10) 0.86560(11)
C174_5 C 0.23157(10) 0.31685(10) 0.84847(10)
C175_5 C 0.29940(10) 0.34628(12) 0.86785(10)
C176_5 C 0.27692(13) 0.31653(17) 0.76498(12)
H169_5 H 0.277246 0.337821 0.746046
H170_5 H 0.250286 0.306872 0.767949
H171_5 H 0.293716 0.295421 0.755817
C177_5 C 0.19700(12) 0.33330(13) 0.83435(18)
C178_5 C 0.24504(13) 0.25069(15) 0.88525(18)
H172_5 H 0.237052 0.247816 0.912449
H173_5 H 0.272413 0.258524 0.884175
H174_5 H 0.241732 0.225848 0.871705
C179_5 C 0.37356(14) 0.48993(9) 0.73619(13)
H175_5 H 0.392923 0.478000 0.751821
C180_5 C 0.34242(15) 0.46743(7) 0.72116(16)
C181_5 C 0.31349(15) 0.48527(12) 0.69779(19)
H176_5 H 0.292654 0.470215 0.687736
C182_5 C 0.31568(16) 0.52561(12) 0.68945(18)
H177_5 H 0.296321 0.537544 0.673817
C183_5 C 0.34682(18) 0.54811(8) 0.70448(17)
C184_5 C 0.37576(15) 0.53028(9) 0.72785(15)
H178_5 H 0.396590 0.545331 0.737903
C185_5 C 0.3433(2) 0.42470(15) 0.7282(2)
C186_5 C 0.29502(14) 0.35168(19) 0.91159(13)
H179_5 H 0.313733 0.335001 0.925133
H180_5 H 0.268566 0.344591 0.919433
H181_5 H 0.299954 0.378915 0.918335
O24_5 O 0.31293(16) 0.40380(11) 0.7182(2)
C187_5 C 0.19032(18) 0.3717(2) 0.8094(3)
H182_5 H 0.170090 0.366957 0.789946
H183_5 H 0.214597 0.378882 0.796381
H184_5 H 0.182156 0.392875 0.826651
C188_5 C 0.31665(17) 0.65510(13) 0.6930(2)
H185_5 H 0.293677 0.670024 0.696355
C189_5 C 0.35138(19) 0.67329(9) 0.68019(19)
C190_5 C 0.38572(16) 0.65098(13) 0.67521(16)
H186_5 H 0.408961 0.663149 0.666626
C191_5 C 0.38534(16) 0.61049(12) 0.68307(17)
H187_5 H 0.408312 0.595562 0.679738
C192_5 C 0.35061(18) 0.59230(9) 0.69590(19)
C193_5 C 0.31626(16) 0.61460(14) 0.7009(2)
H188_5 H 0.293028 0.602435 0.709467
C194_5 C 0.3509(4) 0.71657(19) 0.6714(3)
O23_6 O 0.86739(9) 0.09000(7) 0.25160(8)
N42_6 N 0.82856(8) 0.15388(7) 0.19086(8)
C171_6 C 0.77209(9) 0.16881(10) 0.15903(10)
C172_6 C 0.79179(10) 0.16865(10) 0.19578(10)
N44_6 N 0.66759(10) 0.18955(10) 0.15355(14)
H168_6 H 0.642933 0.184169 0.157328
C173_6 C 0.71991(9) 0.21821(10) 0.13440(11)
C174_6 C 0.73157(10) 0.18315(10) 0.15153(10)
C175_6 C 0.79940(10) 0.15372(12) 0.13215(10)
C176_6 C 0.77692(13) 0.18347(17) 0.23502(12)
H169_6 H 0.777246 0.162179 0.253954
H170_6 H 0.750286 0.193128 0.232051
H171_6 H 0.793716 0.204579 0.244183
C177_6 C 0.69700(12) 0.16670(13) 0.16565(18)
C178_6 C 0.74504(13) 0.24931(15) 0.11475(18)
H172_6 H 0.737052 0.252184 0.087551
H173_6 H 0.772413 0.241476 0.115825
H174_6 H 0.741732 0.274152 0.128295
C179_6 C 0.87356(14) 0.01007(9) 0.26381(13)
H175_6 H 0.892923 0.022000 0.248179
C180_6 C 0.84242(15) 0.03257(7) 0.27884(16)
C181_6 C 0.81349(15) 0.01473(12) 0.30221(19)
H176_6 H 0.792654 0.029785 0.312264
C185_6 C 0.8433(2) 0.07530(15) 0.2718(2)
C186_6 C 0.79502(14) 0.14832(19) 0.08841(13)
H179_6 H 0.813733 0.164999 0.074867
H180_6 H 0.768566 0.155409 0.080567
H181_6 H 0.799954 0.121085 0.081665
O24_6 O 0.81293(16) 0.09620(11) 0.2818(2)
C187_6 C 0.69032(18) 0.1283(2) 0.1906(3)
H182_6 H 0.670090 0.133043 0.210054
H183_6 H 0.714597 0.121118 0.203619
H184_6 H 0.682156 0.107125 0.173349
N47_6 N 0.90087(8) 0.34675(8) 0.05036(8)
C195_6 C 0.90411(10) 0.21036(9) 0.02940(10)
C196_6 C 0.93815(12) 0.30131(9) 0.07832(10)
C197_6 C 0.90802(12) 0.28133(10) 0.05855(11)
C198_6 C 0.90132(12) 0.23830(10) 0.05975(11)
C199_6 C 0.88534(11) 0.31150(10) 0.04056(12)
C200_6 C 0.89356(18) 0.21623(11) 0.09321(12)
C202_6 C 0.97110(19) 0.28408(13) 0.10142(18)
H192_6 H 0.995748 0.295378 0.092671
H193_6 H 0.971678 0.255863 0.097542
H194_6 H 0.967315 0.289796 0.129070
C203_6 C 0.84920(15) 0.30761(15) 0.01542(18)
H195_6 H 0.826337 0.315780 0.030328
H196_6 H 0.846095 0.280459 0.007382
C204_6 C 0.8884(3) 0.22987(14) 0.13497(14)
H198_6 H 0.862103 0.223632 0.143837
H199_6 H 0.892506 0.258036 0.136319
H200_6 H 0.907445 0.216725 0.151642
C182_6 C 0.81568(16) 0.97439(12) 0.31055(18)
H177_6 H 0.796321 0.962456 0.326183
C183_6 C 0.84682(18) 0.95189(8) 0.29552(17)
C184_6 C 0.87576(15) 0.96972(9) 0.27215(15)
H178_6 H 0.896590 0.954669 0.262097
C188_6 C 0.81665(17) 0.84490(13) 0.3070(2)
H185_6 H 0.793677 0.829976 0.303645
C189_6 C 0.85138(19) 0.82671(9) 0.31981(19)
C190_6 C 0.88572(16) 0.84902(13) 0.32479(16)
H186_6 H 0.908961 0.836851 0.333374
C191_6 C 0.88534(16) 0.88951(12) 0.31693(17)
H187_6 H 0.908312 0.904438 0.320262
C192_6 C 0.85061(18) 0.90770(9) 0.30410(19)
C193_6 C 0.81626(16) 0.88540(14) 0.2991(2)
H188_6 H 0.793028 0.897565 0.290533
C194_6 C 0.8509(4) 0.78343(19) 0.3286(3)
C201_6 C 0.91254(16) 0.21540(12) 0.98647(11)
H189_6 H 0.935019 0.199451 0.979274
H190_6 H 0.918203 0.242793 0.981058
H191_6 H 0.889844 0.207221 0.971316
H197_6 H 0.851872 0.324103 0.992338
O23_7 O 0.13261(9) 0.59000(7) 0.24840(8)
N42_7 N 0.17144(8) 0.65388(7) 0.30914(8)
C171_7 C 0.22791(9) 0.66881(10) 0.34097(10)
C172_7 C 0.20821(10) 0.66865(10) 0.30422(10)
N44_7 N 0.33241(10) 0.68955(10) 0.34645(14)
H168_7 H 0.357067 0.684169 0.342672
C173_7 C 0.28009(9) 0.71821(10) 0.36560(11)
C174_7 C 0.26843(10) 0.68315(10) 0.34847(10)
C175_7 C 0.20060(10) 0.65372(12) 0.36785(10)
C176_7 C 0.22308(13) 0.68347(17) 0.26498(12)
H169_7 H 0.222754 0.662179 0.246046
H170_7 H 0.249714 0.693128 0.267949
H171_7 H 0.206284 0.704579 0.255817
C177_7 C 0.30300(12) 0.66670(13) 0.33435(18)
C178_7 C 0.25496(13) 0.74931(15) 0.38525(18)
H172_7 H 0.262948 0.752184 0.412449
H173_7 H 0.227587 0.741476 0.384175
H174_7 H 0.258268 0.774152 0.371705
C179_7 C 0.12644(14) 0.51007(9) 0.23619(13)
H175_7 H 0.107077 0.522000 0.251821
C180_7 C 0.15758(15) 0.53257(7) 0.22116(16)
C181_7 C 0.18651(15) 0.51473(12) 0.19779(19)
H176_7 H 0.207346 0.529785 0.187736
C182_7 C 0.18432(16) 0.47439(12) 0.18945(18)
H177_7 H 0.203679 0.462456 0.173817
C183_7 C 0.15318(18) 0.45189(8) 0.20448(17)
C184_7 C 0.12424(15) 0.46972(9) 0.22785(15)
H178_7 H 0.103410 0.454669 0.237903
C185_7 C 0.1567(2) 0.57530(15) 0.2282(2)
C186_7 C 0.20498(14) 0.64832(19) 0.41159(13)
H179_7 H 0.186267 0.664999 0.425133
H180_7 H 0.231434 0.655409 0.419433
H181_7 H 0.200046 0.621085 0.418335
O24_7 O 0.18707(16) 0.59620(11) 0.2182(2)
C187_7 C 0.30968(18) 0.6283(2) 0.3094(3)
H182_7 H 0.329910 0.633043 0.289946
H183_7 H 0.285403 0.621118 0.296381
H184_7 H 0.317844 0.607125 0.326651
C188_7 C 0.18335(17) 0.34490(13) 0.1930(2)
H185_7 H 0.206323 0.329976 0.196355
C189_7 C 0.14862(19) 0.32671(9) 0.18019(19)
C190_7 C 0.11428(16) 0.34902(13) 0.17521(16)
H186_7 H 0.091039 0.336851 0.166626
C191_7 C 0.11466(16) 0.38951(12) 0.18307(17)
H187_7 H 0.091688 0.404438 0.179738
C192_7 C 0.14939(18) 0.40770(9) 0.19590(19)
C193_7 C 0.18374(16) 0.38540(14) 0.2009(2)
H188_7 H 0.206972 0.397565 0.209467
C194_7 C 0.1491(4) 0.28343(19) 0.1714(3)
N47_7 N 0.09913(8) 0.84675(8) 0.44964(8)
C195_7 C 0.09589(10) 0.71036(9) 0.47060(10)
C196_7 C 0.06185(12) 0.80131(9) 0.42168(10)
C197_7 C 0.09198(12) 0.78133(10) 0.44145(11)
C198_7 C 0.09868(12) 0.73830(10) 0.44025(11)
C199_7 C 0.11466(11) 0.81150(10) 0.45944(12)
C200_7 C 0.10644(18) 0.71623(11) 0.40679(12)
C201_7 C 0.08746(16) 0.71540(12) 0.51353(11)
H189_7 H 0.064981 0.699451 0.520726
H190_7 H 0.081797 0.742793 0.518942
H191_7 H 0.110156 0.707221 0.528684
C202_7 C 0.02890(19) 0.78408(13) 0.39858(18)
H192_7 H 0.004252 0.795378 0.407329
H193_7 H 0.028322 0.755863 0.402458
H194_7 H 0.032685 0.789796 0.370930
C203_7 C 0.15080(15) 0.80761(15) 0.48458(18)
H195_7 H 0.173663 0.815780 0.469672
H196_7 H 0.153905 0.780459 0.492618
H197_7 H 0.148128 0.824103 0.507662
C204_7 C 0.1116(3) 0.72987(14) 0.36503(14)
H198_7 H 0.137897 0.723632 0.356163
H199_7 H 0.107494 0.758036 0.363681
H200_7 H 0.092555 0.716725 0.348358
H201_4 H 0.492416 0.645347 0.951582
H202_4 H 0.992416 0.854653 0.0484183
N47_8 N 0.59913(8) 0.65325(8) 0.55036(8)
C195_8 C 0.59589(10) 0.78964(9) 0.52940(10)
C196_8 C 0.56185(12) 0.69869(9) 0.57832(10)
C197_8 C 0.59198(12) 0.71867(10) 0.55855(11)
C198_8 C 0.59868(12) 0.76170(10) 0.55975(11)
C199_8 C 0.61466(11) 0.68850(10) 0.54056(12)
C200_8 C 0.60644(18) 0.78377(11) 0.59321(12)
C201_8 C 0.58746(16) 0.78460(12) 0.48647(11)
H189_8 H 0.564981 0.800549 0.479274
H190_8 H 0.581797 0.757207 0.481058
H191_8 H 0.610156 0.792779 0.471316
C202_8 C 0.52890(19) 0.71592(13) 0.60142(18)
H192_8 H 0.504252 0.704622 0.592671
H193_8 H 0.528322 0.744137 0.597542
H194_8 H 0.532685 0.710204 0.629070
C203_8 C 0.65080(15) 0.69239(15) 0.51542(18)
H195_8 H 0.673663 0.684220 0.530328
H196_8 H 0.653905 0.719541 0.507382
H197_8 H 0.648128 0.675897 0.492338
C204_8 C 0.6116(3) 0.77013(14) 0.63497(14)
H198_8 H 0.637897 0.776368 0.643837
H199_8 H 0.607494 0.741964 0.636319
H200_8 H 0.592555 0.783275 0.651642
C182_8 C 0.68432(16) 0.02561(12) 0.81055(18)
H177_8 H 0.703679 0.037544 0.826183
C183_8 C 0.65318(18) 0.04811(8) 0.79552(17)
C184_8 C 0.62424(15) 0.03028(9) 0.77215(15)
H178_8 H 0.603410 0.045331 0.762097
C188_8 C 0.68335(17) 0.15510(13) 0.8070(2)
H185_8 H 0.706323 0.170024 0.803645
C189_8 C 0.64862(19) 0.17329(9) 0.81981(19)
C190_8 C 0.61428(16) 0.15098(13) 0.82479(16)
H186_8 H 0.591039 0.163149 0.833374
C191_8 C 0.61466(16) 0.11049(12) 0.81693(17)
H187_8 H 0.591688 0.095562 0.820262
C192_8 C 0.64939(18) 0.09230(9) 0.80410(19)
C193_8 C 0.68374(16) 0.11460(14) 0.7991(2)
H188_8 H 0.706972 0.102435 0.790533
C194_8 C 0.6491(4) 0.21657(19) 0.8286(3)
O23_8 O 0.63261(9) 0.91000(7) 0.75160(8)
N42_8 N 0.67144(8) 0.84612(7) 0.69086(8)
C171_8 C 0.72791(9) 0.83119(10) 0.65903(10)
C172_8 C 0.70821(10) 0.83135(10) 0.69578(10)
N44_8 N 0.83241(10) 0.81045(10) 0.65355(14)
H168_8 H 0.857067 0.815831 0.657328
C173_8 C 0.78009(9) 0.78179(10) 0.63440(11)
C174_8 C 0.76843(10) 0.81685(10) 0.65153(10)
C175_8 C 0.70060(10) 0.84628(12) 0.63215(10)
C176_8 C 0.72308(13) 0.81653(17) 0.73502(12)
H169_8 H 0.722754 0.837821 0.753954
H170_8 H 0.749714 0.806872 0.732051
H171_8 H 0.706284 0.795421 0.744183
C177_8 C 0.80300(12) 0.83330(13) 0.66565(18)
C178_8 C 0.75496(13) 0.75069(15) 0.61475(18)
H172_8 H 0.762948 0.747816 0.587551
H173_8 H 0.727587 0.758524 0.615825
H174_8 H 0.758268 0.725848 0.628295
C179_8 C 0.62644(14) 0.98993(9) 0.76381(13)
H175_8 H 0.607077 0.978000 0.748179
C180_8 C 0.65758(15) 0.96743(7) 0.77884(16)
C181_8 C 0.68651(15) 0.98527(12) 0.80221(19)
H176_8 H 0.707346 0.970215 0.812264
C185_8 C 0.6567(2) 0.92470(15) 0.7718(2)
C186_8 C 0.70498(14) 0.85168(19) 0.58841(13)
H179_8 H 0.686267 0.835001 0.574867
H180_8 H 0.731434 0.844591 0.580567
H181_8 H 0.700046 0.878915 0.581665
O24_8 O 0.68707(16) 0.90380(11) 0.7818(2)
C187_8 C 0.80968(18) 0.8717(2) 0.6906(3)
H182_8 H 0.829910 0.866957 0.710054
H183_8 H 0.785403 0.878882 0.703619
H184_8 H 0.817844 0.892875 0.673349
H201_5 H 0.451582 0.00758413 0.354653
H202_5 H 0.548418 0.507584 0.145347
H202_6 H 0.0484183 0.992416 0.854653
H201_6 H 0.951582 0.492416 0.645347
H201_7 H 0.201582 0.604653 0.242416
H202_7 H 0.298418 0.395347 0.742416
H202_8 H 0.798418 0.104653 0.257584
H201_8 H 0.701582 0.895347 0.757584
H201_9 H 0.104653 0.257584 0.798418
H202_9 H 0.895347 0.757584 0.701582
H201_10 H 0.395347 0.742416 0.298418
H202_10 H 0.604653 0.242416 0.201582
H202_11 H 0.257584 0.798418 0.104653
H201_11 H 0.757584 0.701582 0.895347
H201_12 H 0.242416 0.201582 0.604653
H202_12 H 0.742416 0.298418 0.395347
loop_
_geom_bond_atom_site_label_1
_geom_bond_atom_site_label_2
_geom_bond_site_symmetry_1
_geom_bond_site_symmetry_2
O2 C24 1_555 1_555
C19 C18 1_555 1_555
C20 C19 1_555 1_555
H19 C20 1_555 1_555
C21 C20 1_555 1_555
H20 C21 1_555 1_555
C22 C21 1_555 1_555
C23 C18 1_555 1_555
H21 C23 1_555 1_555
C24 C19 1_555 1_555
O3 C24 1_555 1_555
C28 H31 1_555 1_555
C29 C28 1_555 1_555
C30 C29 1_555 1_555
H32 C30 1_555 1_555
C31 C30 1_555 1_555
H33 C31 1_555 1_555
C32 C22 1_555 1_555
C33 C28 1_555 1_555
H34 C33 1_555 1_555
O4 C34 1_555 1_555
C34 C29 1_555 1_555
O5 C34 1_555 1_555
N10 N16 1_555 1_555
N16 H35 1_555 1_555
C38 N10 1_555 1_555
C50 N16 1_555 1_555
C51 C38 1_555 1_555
H48 C51 1_555 1_555
H50 C51 1_555 1_555
C61 C50 1_555 1_555
H61 C61 1_555 1_555
H62 C61 1_555 1_555
H63 C61 1_555 1_555
Zn7 N22 1_555 1_555
Zn8 N10 1_555 1_555
O10 Zn8 1_555 1_555
N17 N23 1_555 1_555
N19 Zn8 1_555 1_555
N22 N19 1_555 1_555
N23 Zn7 1_555 1_555
C69 N17 1_555 1_555
C70 C71 1_555 1_555
C71 N19 1_555 1_555
N24 N18 1_555 1_555
H68 N24 1_555 1_555
C72 N18 1_555 1_555
C75 C69 1_555 1_555
C76 C70 1_555 1_555
C78 N22 1_555 1_555
C79 N23 1_555 1_555
C80 C69 1_555 1_555
H69 C80 1_555 1_555
H70 C80 1_555 1_555
H71 C80 1_555 1_555
C81 C71 1_555 1_555
H72 C81 1_555 1_555
H73 C81 1_555 1_555
H74 C81 1_555 1_555
C84 N24 1_555 1_555
C85 C72 1_555 1_555
H82 C85 1_555 1_555
C86 H84 1_555 1_555
C87 C86 1_555 1_555
C88 C87 1_555 1_555
H85 C88 1_555 1_555
C89 C88 1_555 1_555
H86 C89 1_555 1_555
C90 C89 1_555 1_555
C91 C86 1_555 1_555
H87 C91 1_555 1_555
C92 O10 1_555 1_555
C93 C78 1_555 1_555
H88 C93 1_555 1_555
H89 C93 1_555 1_555
H90 C93 1_555 1_555
C94 C79 1_555 1_555
H91 C94 1_555 1_555
H93 C94 1_555 1_555
O11 C92 1_555 1_555
C95 C84 1_555 1_555
H94 C95 1_555 1_555
H95 C95 1_555 1_555
H96 C95 1_555 1_555
C96 H97 1_555 1_555
C97 C96 1_555 1_555
C98 C97 1_555 1_555
H98 C98 1_555 1_555
C99 C98 1_555 1_555
H99 C99 1_555 1_555
C100 C90 1_555 1_555
C101 C96 1_555 1_555
H100 C101 1_555 1_555
O12 C102 1_555 1_555
C102 C97 1_555 1_555
O13 C102 1_555 1_555
H103 C114 1_555 1_555
H104 C114 1_555 1_555
H105 C114 1_555 1_555
O19 C161 1_555 1_555
C156 C155 1_555 1_555
C157 C156 1_555 1_555
H155 C157 1_555 1_555
C158 C157 1_555 1_555
H156 C158 1_555 1_555
C159 C158 1_555 1_555
C160 C155 1_555 1_555
H157 C160 1_555 1_555
C161 C156 1_555 1_555
O20 C161 1_555 1_555
C164 H164 1_555 1_555
C165 C164 1_555 1_555
C166 C165 1_555 1_555
H165 C166 1_555 1_555
C167 C166 1_555 1_555
H166 C167 1_555 1_555
C168 C159 1_555 1_555
C169 C164 1_555 1_555
H167 C169 1_555 1_555
C170 C165 1_555 1_555
H189 C201 1_555 1_555
H190 C201 1_555 1_555
H191 C201 1_555 1_555
Zn24 N17 1_555 1_555
Zn29 O12 1_555 1_555
N51 Zn8 1_555 1_555
N60 Zn7 1_555 1_555
N62 Zn7 1_555 1_555
C22 C23 1_555 1_555
C31 C32 1_555 1_555
C32 C33 1_555 1_555
C38 C42 1_555 1_555
C42 C50 1_555 1_555
C70 C78 1_555 1_555
C72 C76 1_555 1_555
C75 C79 1_555 1_555
C76 C84 1_555 1_555
C87 C92 1_555 1_555
C90 C91 1_555 1_555
C99 C100 1_555 1_555
C100 C101 1_555 1_555
O13 Zn29 1_555 1_555
C159 C160 1_555 1_555
C167 C168 1_555 1_555
C168 C169 1_555 1_555
O21 C170 1_555 1_555
C170 O22 1_555 1_555
N51 N62 1_555 1_555
O20 H201 1_555 1_555
O11 H202 1_555 1_555
N37 N40 1_555 1_555
N38 Zn13 1_555 1_555
N39 N38 1_555 1_555
C147 C148 1_555 1_555
C148 N38 1_555 1_555
N40 H147 1_555 1_555
C149 N37 1_555 1_555
C150 C147 1_555 1_555
C151 N39 1_555 1_555
C152 C148 1_555 1_555
H149 C152 1_555 1_555
H150 C152 1_555 1_555
C153 N40 1_555 1_555
C154 C149 1_555 1_555
H151 C154 1_555 1_555
H152 C154 1_555 1_555
H153 C154 1_555 1_555
C162 C151 1_555 1_555
H158 C162 1_555 1_555
H159 C162 1_555 1_555
H160 C162 1_555 1_555
C163 C153 1_555 1_555
H161 C163 1_555 1_555
H162 C163 1_555 1_555
H163 C163 1_555 1_555
Zn19 N39 1_555 1_555
Zn20 N37 1_555 1_555
N52 Zn13 1_555 1_555
C147 C151 1_555 1_555
C149 C150 1_555 1_555
C150 C153 1_555 1_555
N45 N48 1_555 1_555
N46 N47 1_555 1_555
N47 Zn15 1_555 1_555
N48 C200 1_555 1_555
C195 N45 1_555 1_555
C196 N46 1_555 1_555
C197 C196 1_555 1_555
C198 C195 1_555 1_555
C199 N47 1_555 1_555
C200 C198 1_555 1_555
C202 C196 1_555 1_555
H192 C202 1_555 1_555
H193 C202 1_555 1_555
H194 C202 1_555 1_555
C203 C199 1_555 1_555
H195 C203 1_555 1_555
H196 C203 1_555 1_555
C204 C200 1_555 1_555
H198 C204 1_555 1_555
H199 C204 1_555 1_555
H200 C204 1_555 1_555
Zn17 N48 1_555 1_555
Zn21 N45 1_555 1_555
Zn30 N46 1_555 1_555
O28 Zn15 1_555 1_555
N57 Zn15 1_555 1_555
C197 C198 1_555 1_555
C197 C199 1_555 1_555
Zn30 O28 1_555 1_555
Zn1 N6 1_555 1_555
Zn3 O1 1_555 1_555
O1 H1 1_555 1_555
N1 N7 1_555 1_555
N2 N8 1_555 1_555
N3 Zn2 1_555 1_555
N4 N5 1_555 1_555
N5 Zn3 1_555 1_555
N6 N3 1_555 1_555
N7 Zn1 1_555 1_555
C1 N1 1_555 1_555
C2 C3 1_555 1_555
C3 N3 1_555 1_555
N8 H2 1_555 1_555
C4 N2 1_555 1_555
C5 N4 1_555 1_555
C6 C5 1_555 1_555
C7 C1 1_555 1_555
C8 C2 1_555 1_555
C9 N5 1_555 1_555
C10 N6 1_555 1_555
C11 N7 1_555 1_555
C12 C1 1_555 1_555
H3 C12 1_555 1_555
H4 C12 1_555 1_555
H5 C12 1_555 1_555
C13 C3 1_555 1_555
H7 C13 1_555 1_555
H8 C13 1_555 1_555
C14 C5 1_555 1_555
H9 C14 1_555 1_555
H10 C14 1_555 1_555
H11 C14 1_555 1_555
C15 C9 1_555 1_555
H12 C15 1_555 1_555
H13 C15 1_555 1_555
H14 C15 1_555 1_555
C16 N8 1_555 1_555
C17 C4 1_555 1_555
H15 C17 1_555 1_555
H16 C17 1_555 1_555
H17 C17 1_555 1_555
C25 C10 1_555 1_555
H22 C25 1_555 1_555
H23 C25 1_555 1_555
H24 C25 1_555 1_555
C26 C11 1_555 1_555
H25 C26 1_555 1_555
H26 C26 1_555 1_555
H27 C26 1_555 1_555
C27 C16 1_555 1_555
H28 C27 1_555 1_555
H29 C27 1_555 1_555
H30 C27 1_555 1_555
Zn4 N14 1_555 1_555
Zn5 N2 1_555 1_555
Zn6 O1 1_555 1_555
O6 Zn5 1_555 1_555
N9 N15 1_555 1_555
N11 Zn5 1_555 1_555
N12 Zn3 1_555 1_555
N13 Zn6 1_555 1_555
N14 N11 1_555 1_555
N15 Zn4 1_555 1_555
C35 N9 1_555 1_555
C36 C37 1_555 1_555
C37 N11 1_555 1_555
C39 N12 1_555 1_555
C40 C39 1_555 1_555
C41 C35 1_555 1_555
C43 N13 1_555 1_555
C44 N14 1_555 1_555
C45 N15 1_555 1_555
C46 C35 1_555 1_555
H36 C46 1_555 1_555
H37 C46 1_555 1_555
H38 C46 1_555 1_555
C47 C37 1_555 1_555
H39 C47 1_555 1_555
H40 C47 1_555 1_555
H41 C47 1_555 1_555
C48 C39 1_555 1_555
H42 C48 1_555 1_555
H43 C48 1_555 1_555
H44 C48 1_555 1_555
C49 C43 1_555 1_555
H45 C49 1_555 1_555
H46 C49 1_555 1_555
H47 C49 1_555 1_555
C52 H51 1_555 1_555
C53 C52 1_555 1_555
C54 C53 1_555 1_555
H52 C54 1_555 1_555
C55 C54 1_555 1_555
H53 C55 1_555 1_555
C56 C55 1_555 1_555
C57 C52 1_555 1_555
H54 C57 1_555 1_555
C58 O6 1_555 1_555
C59 C44 1_555 1_555
H55 C59 1_555 1_555
H56 C59 1_555 1_555
H57 C59 1_555 1_555
C60 C45 1_555 1_555
H58 C60 1_555 1_555
H59 C60 1_555 1_555
H60 C60 1_555 1_555
O7 C58 1_555 1_555
C62 H64 1_555 1_555
C63 C62 1_555 1_555
C64 C63 1_555 1_555
H65 C64 1_555 1_555
C65 C64 1_555 1_555
H66 C65 1_555 1_555
C66 C56 1_555 1_555
C67 C62 1_555 1_555
H67 C67 1_555 1_555
O8 C68 1_555 1_555
C68 C63 1_555 1_555
O9 C68 1_555 1_555
Zn9 O1 1_555 1_555
N20 Zn6 1_555 1_555
N21 Zn9 1_555 1_555
C73 N20 1_555 1_555
C74 C73 1_555 1_555
C77 N21 1_555 1_555
C82 C73 1_555 1_555
H75 C82 1_555 1_555
H76 C82 1_555 1_555
H77 C82 1_555 1_555
C83 C77 1_555 1_555
H78 C83 1_555 1_555
H79 C83 1_555 1_555
H80 C83 1_555 1_555
Zn10 N1 1_555 1_555
Zn11 O14 1_555 1_555
O14 H101 1_555 1_555
O15 Zn10 1_555 1_555
N25 Zn2 1_555 1_555
N26 N32 1_555 1_555
N27 Zn10 1_555 1_555
N28 N29 1_555 1_555
N29 Zn11 1_555 1_555
N30 Zn1 1_555 1_555
N31 Zn1 1_555 1_555
C103 N25 1_555 1_555
C104 C105 1_555 1_555
C105 N27 1_555 1_555
N32 H102 1_555 1_555
C106 N26 1_555 1_555
C107 N28 1_555 1_555
C108 C107 1_555 1_555
C109 C103 1_555 1_555
C110 C104 1_555 1_555
C111 N29 1_555 1_555
C112 N30 1_555 1_555
C113 N31 1_555 1_555
C115 C105 1_555 1_555
H106 C115 1_555 1_555
H107 C115 1_555 1_555
H108 C115 1_555 1_555
C116 C107 1_555 1_555
H109 C116 1_555 1_555
H110 C116 1_555 1_555
H111 C116 1_555 1_555
C117 C111 1_555 1_555
H112 C117 1_555 1_555
H113 C117 1_555 1_555
C118 N32 1_555 1_555
C119 C106 1_555 1_555
H115 C119 1_555 1_555
H116 C119 1_555 1_555
H117 C119 1_555 1_555
C120 H118 1_555 1_555
C121 C120 1_555 1_555
C122 C121 1_555 1_555
H119 C122 1_555 1_555
C123 C122 1_555 1_555
H120 C123 1_555 1_555
C124 C123 1_555 1_555
C125 C120 1_555 1_555
H121 C125 1_555 1_555
C126 O15 1_555 1_555
C127 C112 1_555 1_555
H122 C127 1_555 1_555
H123 C127 1_555 1_555
H124 C127 1_555 1_555
C128 C113 1_555 1_555
H125 C128 1_555 1_555
H126 C128 1_555 1_555
H127 C128 1_555 1_555
O16 C126 1_555 1_555
C129 C118 1_555 1_555
H128 C129 1_555 1_555
H129 C129 1_555 1_555
H130 C129 1_555 1_555
C130 H131 1_555 1_555
C131 C130 1_555 1_555
C132 C131 1_555 1_555
H132 C132 1_555 1_555
C133 C132 1_555 1_555
H133 C133 1_555 1_555
C134 C124 1_555 1_555
C135 C130 1_555 1_555
H134 C135 1_555 1_555
O17 C136 1_555 1_555
C136 C131 1_555 1_555
O18 C136 1_555 1_555
Zn12 O17 1_555 1_555
N33 N36 1_555 1_555
N34 N35 1_555 1_555
N35 Zn12 1_555 1_555
N36 C142 1_555 1_555
C137 N33 1_555 1_555
C138 N34 1_555 1_555
C139 C138 1_555 1_555
C140 C137 1_555 1_555
C141 N35 1_555 1_555
C142 C140 1_555 1_555
C143 C137 1_555 1_555
H135 C143 1_555 1_555
H136 C143 1_555 1_555
H137 C143 1_555 1_555
C144 C138 1_555 1_555
H138 C144 1_555 1_555
H139 C144 1_555 1_555
H140 C144 1_555 1_555
C145 C141 1_555 1_555
H141 C145 1_555 1_555
H142 C145 1_555 1_555
H143 C145 1_555 1_555
C146 C142 1_555 1_555
H144 C146 1_555 1_555
H145 C146 1_555 1_555
H146 C146 1_555 1_555
Zn14 O23 1_555 1_555
O23 C185 1_555 1_555
N41 N44 1_555 1_555
N42 Zn14 1_555 1_555
N43 N42 1_555 1_555
C171 C172 1_555 1_555
C172 N42 1_555 1_555
N44 H168 1_555 1_555
C173 N41 1_555 1_555
C174 C171 1_555 1_555
C175 N43 1_555 1_555
C176 C172 1_555 1_555
H169 C176 1_555 1_555
H170 C176 1_555 1_555
H171 C176 1_555 1_555
C177 N44 1_555 1_555
C178 C173 1_555 1_555
H172 C178 1_555 1_555
H173 C178 1_555 1_555
H174 C178 1_555 1_555
C179 H175 1_555 1_555
C180 C179 1_555 1_555
C181 C180 1_555 1_555
H176 C181 1_555 1_555
C182 C181 1_555 1_555
H177 C182 1_555 1_555
C183 C182 1_555 1_555
C184 C179 1_555 1_555
H178 C184 1_555 1_555
C185 C180 1_555 1_555
C186 C175 1_555 1_555
H179 C186 1_555 1_555
H180 C186 1_555 1_555
H181 C186 1_555 1_555
O24 C185 1_555 1_555
C187 C177 1_555 1_555
H182 C187 1_555 1_555
H183 C187 1_555 1_555
H184 C187 1_555 1_555
C188 H185 1_555 1_555
C189 C188 1_555 1_555
C190 C189 1_555 1_555
H186 C190 1_555 1_555
C191 C190 1_555 1_555
H187 C191 1_555 1_555
C192 C183 1_555 1_555
C193 C188 1_555 1_555
H188 C193 1_555 1_555
O25 Zn3 1_555 1_555
C194 C189 1_555 1_555
O26 Zn3 1_555 1_555
Zn17 N43 1_555 1_555
Zn19 N36 1_555 1_555
Zn22 N9 1_555 1_555
Zn23 N41 1_555 1_555
Zn25 N26 1_555 1_555
Zn26 N33 1_555 1_555
Zn27 N34 1_555 1_555
Zn28 O14 1_555 1_555
Zn32 O14 1_555 1_555
O27 Zn12 1_555 1_555
N49 Zn14 1_555 1_555
N50 Zn5 1_555 1_555
N54 Zn10 1_555 1_555
N55 Zn14 1_555 1_555
N56 Zn12 1_555 1_555
N58 Zn11 1_555 1_555
N59 Zn4 1_555 1_555
N61 Zn4 1_555 1_555
O29 Zn9 1_555 1_555
O30 Zn6 1_555 1_555
O31 Zn9 1_555 1_555
O32 Zn6 1_555 1_555
N4 Zn9 1_555 1_555
C2 C10 1_555 1_555
C4 C8 1_555 1_555
C6 C7 1_555 1_555
C6 C9 1_555 1_555
C7 C11 1_555 1_555
C8 C16 1_555 1_555
N12 N13 1_555 1_555
C36 C44 1_555 1_555
C40 C41 1_555 1_555
C40 C43 1_555 1_555
C41 C45 1_555 1_555
C53 C58 1_555 1_555
C56 C57 1_555 1_555
C65 C66 1_555 1_555
C66 C67 1_555 1_555
N20 N21 1_555 1_555
C74 C77 1_555 1_555
N25 N31 1_555 1_555
N27 N30 1_555 1_555
N28 Zn28 1_555 1_555
C104 C112 1_555 1_555
C106 C110 1_555 1_555
C108 C109 1_555 1_555
C108 C111 1_555 1_555
C109 C113 1_555 1_555
C110 C118 1_555 1_555
C121 C126 1_555 1_555
C124 C125 1_555 1_555
C133 C134 1_555 1_555
C134 C135 1_555 1_555
O18 Zn12 1_555 1_555
C139 C140 1_555 1_555
C139 C141 1_555 1_555
C171 C175 1_555 1_555
C173 C174 1_555 1_555
C174 C177 1_555 1_555
C183 C184 1_555 1_555
C191 C192 1_555 1_555
C192 C193 1_555 1_555
O25 C194 1_555 1_555
C194 O26 1_555 1_555
Zn27 O27 1_555 1_555
N50 N61 1_555 1_555
Zn14_2 O23_2 1_555 1_555
O23_2 C185_2 1_555 1_555
N41_2 N44_2 1_555 1_555
N42_2 Zn14_2 1_555 1_555
N43_2 N42_2 1_555 1_555
C171_2 C172_2 1_555 1_555
C172_2 N42_2 1_555 1_555
N44_2 H168_2 1_555 1_555
C173_2 N41_2 1_555 1_555
C174_2 C171_2 1_555 1_555
C175_2 N43_2 1_555 1_555
C176_2 C172_2 1_555 1_555
H169_2 C176_2 1_555 1_555
H170_2 C176_2 1_555 1_555
H171_2 C176_2 1_555 1_555
C177_2 N44_2 1_555 1_555
C178_2 C173_2 1_555 1_555
H172_2 C178_2 1_555 1_555
H173_2 C178_2 1_555 1_555
H174_2 C178_2 1_555 1_555
C179_2 H175_2 1_555 1_555
C180_2 C179_2 1_555 1_555
C181_2 C180_2 1_555 1_555
H176_2 C181_2 1_555 1_555
C185_2 C180_2 1_555 1_555
C186_2 C175_2 1_555 1_555
H179_2 C186_2 1_555 1_555
H180_2 C186_2 1_555 1_555
H181_2 C186_2 1_555 1_555
O24_2 C185_2 1_555 1_555
C187_2 C177_2 1_555 1_555
H182_2 C187_2 1_555 1_555
H183_2 C187_2 1_555 1_555
H184_2 C187_2 1_555 1_555
Zn16 N43_2 1_555 1_555
Zn23_2 N41_2 1_555 1_555
N49_2 Zn14_2 1_555 1_555
N55_2 Zn14_2 1_555 1_555
C171_2 C175_2 1_555 1_555
C173_2 C174_2 1_555 1_555
C174_2 C177_2 1_555 1_555
N45_2 N48_2 1_555 1_555
N46_2 N47_2 1_555 1_555
N47_2 Zn15_2 1_555 1_555
N48_2 C200_2 1_555 1_555
C195_2 N45_2 1_555 1_555
C196_2 N46_2 1_555 1_555
C197_2 C196_2 1_555 1_555
C198_2 C195_2 1_555 1_555
C199_2 N47_2 1_555 1_555
C200_2 C198_2 1_555 1_555
C202_2 C196_2 1_555 1_555
H192_2 C202_2 1_555 1_555
H193_2 C202_2 1_555 1_555
H194_2 C202_2 1_555 1_555
C203_2 C199_2 1_555 1_555
H195_2 C203_2 1_555 1_555
H196_2 C203_2 1_555 1_555
C204_2 C200_2 1_555 1_555
H198_2 C204_2 1_555 1_555
H199_2 C204_2 1_555 1_555
H200_2 C204_2 1_555 1_555
Zn16 N48_2 1_555 1_555
Zn21_2 N45_2 1_555 1_555
Zn30_2 N46_2 1_555 1_555
O28_2 Zn15_2 1_555 1_555
N57_2 Zn15_2 1_555 1_555
C197_2 C198_2 1_555 1_555
C197_2 C199_2 1_555 1_555
Zn30_2 O28_2 1_555 1_555
N2_2 N8_2 1_555 1_555
N8_2 H2_2 1_555 1_555
C4_2 N2_2 1_555 1_555
C16_2 N8_2 1_555 1_555
C17_2 C4_2 1_555 1_555
H15_2 C17_2 1_555 1_555
H17_2 C17_2 1_555 1_555
C27_2 C16_2 1_555 1_555
H28_2 C27_2 1_555 1_555
H29_2 C27_2 1_555 1_555
H30_2 C27_2 1_555 1_555
Zn4_2 N14_2 1_555 1_555
Zn5_2 N2_2 1_555 1_555
O6_2 Zn5_2 1_555 1_555
N9_2 N15_2 1_555 1_555
N53 N16_2 1_555 1_555
N11_2 Zn5_2 1_555 1_555
N14_2 N11_2 1_555 1_555
N15_2 Zn4_2 1_555 1_555
C35_2 N9_2 1_555 1_555
C36_2 C37_2 1_555 1_555
C37_2 N11_2 1_555 1_555
N16_2 H35_2 1_555 1_555
C38_2 N53 1_555 1_555
C41_2 C35_2 1_555 1_555
C42_2 C36_2 1_555 1_555
C44_2 N14_2 1_555 1_555
C45_2 N15_2 1_555 1_555
C46_2 C35_2 1_555 1_555
H36_2 C46_2 1_555 1_555
H37_2 C46_2 1_555 1_555
H38_2 C46_2 1_555 1_555
C47_2 C37_2 1_555 1_555
H39_2 C47_2 1_555 1_555
H40_2 C47_2 1_555 1_555
H41_2 C47_2 1_555 1_555
C50_2 N16_2 1_555 1_555
C51_2 C38_2 1_555 1_555
H49_2 C51_2 1_555 1_555
C52_2 H51_2 1_555 1_555
C53_2 C52_2 1_555 1_555
C54_2 C53_2 1_555 1_555
H52_2 C54_2 1_555 1_555
C55_2 C54_2 1_555 1_555
H53_2 C55_2 1_555 1_555
C56_2 C55_2 1_555 1_555
C57_2 C52_2 1_555 1_555
H54_2 C57_2 1_555 1_555
C58_2 O6_2 1_555 1_555
C59_2 C44_2 1_555 1_555
H55_2 C59_2 1_555 1_555
H56_2 C59_2 1_555 1_555
H57_2 C59_2 1_555 1_555
C60_2 C45_2 1_555 1_555
H58_2 C60_2 1_555 1_555
H60_2 C60_2 1_555 1_555
O7_2 C58_2 1_555 1_555
C61_2 C50_2 1_555 1_555
H61_2 C61_2 1_555 1_555
H62_2 C61_2 1_555 1_555
H63_2 C61_2 1_555 1_555
C62_2 H64_2 1_555 1_555
C63_2 C62_2 1_555 1_555
C64_2 C63_2 1_555 1_555
H65_2 C64_2 1_555 1_555
C65_2 C64_2 1_555 1_555
H66_2 C65_2 1_555 1_555
C66_2 C56_2 1_555 1_555
C67_2 C62_2 1_555 1_555
H67_2 C67_2 1_555 1_555
O8_2 C68_2 1_555 1_555
C68_2 C63_2 1_555 1_555
O9_2 C68_2 1_555 1_555
H120_2 C123_2 1_555 1_555
C124_2 C123_2 1_555 1_555
H121_2 C125_2 1_555 1_555
C130_2 H131_2 1_555 1_555
C131_2 C130_2 1_555 1_555
C132_2 C131_2 1_555 1_555
H132_2 C132_2 1_555 1_555
C133_2 C132_2 1_555 1_555
H133_2 C133_2 1_555 1_555
C134_2 C124_2 1_555 1_555
C135_2 C130_2 1_555 1_555
H134_2 C135_2 1_555 1_555
O29 C136_2 1_555 1_555
C136_2 C131_2 1_555 1_555
O31 C136_2 1_555 1_555
Zn22_2 N9_2 1_555 1_555
Zn32_2 O8_2 1_555 1_555
N50_2 Zn5_2 1_555 1_555
N59_2 Zn4_2 1_555 1_555
N61_2 Zn4_2 1_555 1_555
C4_2 C8_2 1_555 1_555
C8_2 C16_2 1_555 1_555
C36_2 C44_2 1_555 1_555
C38_2 C42_2 1_555 1_555
C41_2 C45_2 1_555 1_555
C42_2 C50_2 1_555 1_555
C53_2 C58_2 1_555 1_555
C56_2 C57_2 1_555 1_555
C65_2 C66_2 1_555 1_555
C66_2 C67_2 1_555 1_555
O9_2 Zn32_2 1_555 1_555
C124_2 C125_2 1_555 1_555
C133_2 C134_2 1_555 1_555
C134_2 C135_2 1_555 1_555
N50_2 N61_2 1_555 1_555
Zn1_2 N6_2 1_555 1_555
Zn20 O2_2 1_555 1_555
Zn3_2 O27 1_555 1_555
O27 H1_2 1_555 1_555
O2_2 C24_2 1_555 1_555
N1_2 N7_2 1_555 1_555
N3_2 Zn20 1_555 1_555
N56 N5_2 1_555 1_555
N5_2 Zn3_2 1_555 1_555
N6_2 N3_2 1_555 1_555
N7_2 Zn1_2 1_555 1_555
C1_2 N1_2 1_555 1_555
C2_2 C3_2 1_555 1_555
C3_2 N3_2 1_555 1_555
C5_2 N56 1_555 1_555
C6_2 C5_2 1_555 1_555
C7_2 C1_2 1_555 1_555
C9_2 N5_2 1_555 1_555
C10_2 N6_2 1_555 1_555
C11_2 N7_2 1_555 1_555
C12_2 C1_2 1_555 1_555
H3_2 C12_2 1_555 1_555
H4_2 C12_2 1_555 1_555
H5_2 C12_2 1_555 1_555
C13_2 C3_2 1_555 1_555
H6_2 C13_2 1_555 1_555
H7_2 C13_2 1_555 1_555
H8_2 C13_2 1_555 1_555
C14_2 C5_2 1_555 1_555
H9_2 C14_2 1_555 1_555
H10_2 C14_2 1_555 1_555
H11_2 C14_2 1_555 1_555
C15_2 C9_2 1_555 1_555
H12_2 C15_2 1_555 1_555
H13_2 C15_2 1_555 1_555
H14_2 C15_2 1_555 1_555
C18_2 H18_2 1_555 1_555
C19_2 C18_2 1_555 1_555
C20_2 C19_2 1_555 1_555
H19_2 C20_2 1_555 1_555
C21_2 C20_2 1_555 1_555
H20_2 C21_2 1_555 1_555
C22_2 C21_2 1_555 1_555
C23_2 C18_2 1_555 1_555
H21_2 C23_2 1_555 1_555
C24_2 C19_2 1_555 1_555
C25_2 C10_2 1_555 1_555
H22_2 C25_2 1_555 1_555
H23_2 C25_2 1_555 1_555
H24_2 C25_2 1_555 1_555
C26_2 C11_2 1_555 1_555
H25_2 C26_2 1_555 1_555
H26_2 C26_2 1_555 1_555
H27_2 C26_2 1_555 1_555
O3_2 C24_2 1_555 1_555
C28_2 H31_2 1_555 1_555
C29_2 C28_2 1_555 1_555
C30_2 C29_2 1_555 1_555
H32_2 C30_2 1_555 1_555
C31_2 C30_2 1_555 1_555
H33_2 C31_2 1_555 1_555
C32_2 C22_2 1_555 1_555
C33_2 C28_2 1_555 1_555
H34_2 C33_2 1_555 1_555
O4_2 C34_2 1_555 1_555
C34_2 C29_2 1_555 1_555
O5_2 C34_2 1_555 1_555
N12_2 Zn3_2 1_555 1_555
N13_2 Zn27 1_555 1_555
C39_2 N12_2 1_555 1_555
C40_2 C39_2 1_555 1_555
C43_2 N13_2 1_555 1_555
C48_2 C39_2 1_555 1_555
H42_2 C48_2 1_555 1_555
H43_2 C48_2 1_555 1_555
H44_2 C48_2 1_555 1_555
C49_2 C43_2 1_555 1_555
H45_2 C49_2 1_555 1_555
H46_2 C49_2 1_555 1_555
H47_2 C49_2 1_555 1_555
Zn10_2 N1_2 1_555 1_555
Zn29 O14_2 1_555 1_555
O14_2 H101_2 1_555 1_555
O15_2 Zn10_2 1_555 1_555
N25_2 Zn20 1_555 1_555
N26_2 N32_2 1_555 1_555
N27_2 Zn10_2 1_555 1_555
N28_2 N29_2 1_555 1_555
N29_2 Zn29 1_555 1_555
N30_2 Zn1_2 1_555 1_555
N31_2 Zn1_2 1_555 1_555
C103_2 N25_2 1_555 1_555
C104_2 C105_2 1_555 1_555
C105_2 N27_2 1_555 1_555
N32_2 H102_2 1_555 1_555
C106_2 N26_2 1_555 1_555
C107_2 N28_2 1_555 1_555
C108_2 C107_2 1_555 1_555
C109_2 C103_2 1_555 1_555
C110_2 C104_2 1_555 1_555
C111_2 N29_2 1_555 1_555
C112_2 N30_2 1_555 1_555
C113_2 N31_2 1_555 1_555
C114_2 C103_2 1_555 1_555
H103_2 C114_2 1_555 1_555
H104_2 C114_2 1_555 1_555
H105_2 C114_2 1_555 1_555
C115_2 C105_2 1_555 1_555
H106_2 C115_2 1_555 1_555
H107_2 C115_2 1_555 1_555
H108_2 C115_2 1_555 1_555
C116_2 C107_2 1_555 1_555
H109_2 C116_2 1_555 1_555
H110_2 C116_2 1_555 1_555
H111_2 C116_2 1_555 1_555
C117_2 C111_2 1_555 1_555
H112_2 C117_2 1_555 1_555
H113_2 C117_2 1_555 1_555
H114_2 C117_2 1_555 1_555
C118_2 N32_2 1_555 1_555
C119_2 C106_2 1_555 1_555
H115_2 C119_2 1_555 1_555
H116_2 C119_2 1_555 1_555
H117_2 C119_2 1_555 1_555
C120_2 H118_2 1_555 1_555
C121_2 C120_2 1_555 1_555
C122_2 C121_2 1_555 1_555
H119_2 C122_2 1_555 1_555
C126_2 O15_2 1_555 1_555
C127_2 C112_2 1_555 1_555
H122_2 C127_2 1_555 1_555
H123_2 C127_2 1_555 1_555
H124_2 C127_2 1_555 1_555
C128_2 C113_2 1_555 1_555
H125_2 C128_2 1_555 1_555
H126_2 C128_2 1_555 1_555
H127_2 C128_2 1_555 1_555
O16_2 C126_2 1_555 1_555
C129_2 C118_2 1_555 1_555
H128_2 C129_2 1_555 1_555
H129_2 C129_2 1_555 1_555
H130_2 C129_2 1_555 1_555
H177_2 C182_2 1_555 1_555
C183_2 C182_2 1_555 1_555
H178_2 C184_2 1_555 1_555
C188_2 H185_2 1_555 1_555
C189_2 C188_2 1_555 1_555
C190_2 C189_2 1_555 1_555
H186_2 C190_2 1_555 1_555
C191_2 C190_2 1_555 1_555
H187_2 C191_2 1_555 1_555
C192_2 C183_2 1_555 1_555
C193_2 C188_2 1_555 1_555
H188_2 C193_2 1_555 1_555
O25_2 Zn3_2 1_555 1_555
C194_2 C189_2 1_555 1_555
O26_2 Zn3_2 1_555 1_555
H189_2 C201_2 1_555 1_555
H190_2 C201_2 1_555 1_555
H191_2 C201_2 1_555 1_555
Zn25_2 N26_2 1_555 1_555
Zn28_2 O14_2 1_555 1_555
Zn32_2 O14_2 1_555 1_555
N54_2 Zn10_2 1_555 1_555
N58_2 Zn29 1_555 1_555
N60_2 Zn19 1_555 1_555
N62_2 Zn19 1_555 1_555
O30_2 Zn27 1_555 1_555
O32_2 Zn27 1_555 1_555
C2_2 C10_2 1_555 1_555
C6_2 C7_2 1_555 1_555
C6_2 C9_2 1_555 1_555
C7_2 C11_2 1_555 1_555
C22_2 C23_2 1_555 1_555
C31_2 C32_2 1_555 1_555
C32_2 C33_2 1_555 1_555
N12_2 N13_2 1_555 1_555
C40_2 C43_2 1_555 1_555
N25_2 N31_2 1_555 1_555
N27_2 N30_2 1_555 1_555
N28_2 Zn28_2 1_555 1_555
C104_2 C112_2 1_555 1_555
C106_2 C110_2 1_555 1_555
C108_2 C109_2 1_555 1_555
C108_2 C111_2 1_555 1_555
C109_2 C113_2 1_555 1_555
C110_2 C118_2 1_555 1_555
C121_2 C126_2 1_555 1_555
C183_2 C184_2 1_555 1_555
C191_2 C192_2 1_555 1_555
C192_2 C193_2 1_555 1_555
O25_2 C194_2 1_555 1_555
C194_2 O26_2 1_555 1_555
N52 N62_2 1_555 1_555
Zn3_3 O1_2 1_555 1_555
O1_2 H1_3 1_555 1_555
N4_2 N5_3 1_555 1_555
N5_3 Zn3_3 1_555 1_555
C5_3 N4_2 1_555 1_555
C6_3 C5_3 1_555 1_555
C9_3 N5_3 1_555 1_555
C14_3 C5_3 1_555 1_555
H9_3 C14_3 1_555 1_555
H10_3 C14_3 1_555 1_555
H11_3 C14_3 1_555 1_555
C15_3 C9_3 1_555 1_555
H12_3 C15_3 1_555 1_555
H13_3 C15_3 1_555 1_555
H14_3 C15_3 1_555 1_555
Zn6_2 O1_2 1_555 1_555
N12_3 Zn3_3 1_555 1_555
N13_3 Zn6_2 1_555 1_555
C39_3 N12_3 1_555 1_555
C40_3 C39_3 1_555 1_555
C43_3 N13_3 1_555 1_555
C48_3 C39_3 1_555 1_555
H42_3 C48_3 1_555 1_555
H43_3 C48_3 1_555 1_555
H44_3 C48_3 1_555 1_555
C49_3 C43_3 1_555 1_555
H45_3 C49_3 1_555 1_555
H46_3 C49_3 1_555 1_555
H47_3 C49_3 1_555 1_555
Zn9_2 O1_2 1_555 1_555
N20_2 Zn6_2 1_555 1_555
N21_2 Zn9_2 1_555 1_555
C73_2 N20_2 1_555 1_555
C74_2 C73_2 1_555 1_555
C77_2 N21_2 1_555 1_555
C82_2 C73_2 1_555 1_555
H75_2 C82_2 1_555 1_555
H76_2 C82_2 1_555 1_555
H77_2 C82_2 1_555 1_555
C83_2 C77_2 1_555 1_555
H78_2 C83_2 1_555 1_555
H79_2 C83_2 1_555 1_555
H80_2 C83_2 1_555 1_555
Zn22_2 O23_3 1_555 1_555
O23_3 C185_3 1_555 1_555
N54 N44_3 1_555 1_555
N42_3 Zn22_2 1_555 1_555
N59_2 N42_3 1_555 1_555
C171_3 C172_3 1_555 1_555
C172_3 N42_3 1_555 1_555
N44_3 H168_3 1_555 1_555
C173_3 N54 1_555 1_555
C174_3 C171_3 1_555 1_555
C175_3 N59_2 1_555 1_555
C176_3 C172_3 1_555 1_555
H169_3 C176_3 1_555 1_555
H170_3 C176_3 1_555 1_555
H171_3 C176_3 1_555 1_555
C177_3 N44_3 1_555 1_555
C178_3 C173_3 1_555 1_555
H172_3 C178_3 1_555 1_555
H173_3 C178_3 1_555 1_555
H174_3 C178_3 1_555 1_555
C179_3 H175_3 1_555 1_555
C180_3 C179_3 1_555 1_555
C181_3 C180_3 1_555 1_555
H176_3 C181_3 1_555 1_555
C182_3 C181_3 1_555 1_555
H177_3 C182_3 1_555 1_555
C183_3 C182_3 1_555 1_555
C184_3 C179_3 1_555 1_555
H178_3 C184_3 1_555 1_555
C185_3 C180_3 1_555 1_555
C186_3 C175_3 1_555 1_555
H179_3 C186_3 1_555 1_555
H180_3 C186_3 1_555 1_555
H181_3 C186_3 1_555 1_555
O24_3 C185_3 1_555 1_555
C187_3 C177_3 1_555 1_555
H182_3 C187_3 1_555 1_555
H183_3 C187_3 1_555 1_555
H184_3 C187_3 1_555 1_555
C188_3 H185_3 1_555 1_555
C189_3 C188_3 1_555 1_555
C190_3 C189_3 1_555 1_555
H186_3 C190_3 1_555 1_555
C191_3 C190_3 1_555 1_555
H187_3 C191_3 1_555 1_555
C192_3 C183_3 1_555 1_555
C193_3 C188_3 1_555 1_555
H188_3 C193_3 1_555 1_555
O25_3 Zn3_3 1_555 1_555
C194_3 C189_3 1_555 1_555
O26_3 Zn3_3 1_555 1_555
N55_3 Zn22_2 1_555 1_555
O29_2 Zn9_2 1_555 1_555
O30_3 Zn6_2 1_555 1_555
O31_2 Zn9_2 1_555 1_555
O32_3 Zn6_2 1_555 1_555
N4_2 Zn9_2 1_555 1_555
C6_3 C9_3 1_555 1_555
N12_3 N13_3 1_555 1_555
C40_3 C43_3 1_555 1_555
N20_2 N21_2 1_555 1_555
C74_2 C77_2 1_555 1_555
C171_3 C175_3 1_555 1_555
C173_3 C174_3 1_555 1_555
C174_3 C177_3 1_555 1_555
C183_3 C184_3 1_555 1_555
C191_3 C192_3 1_555 1_555
C192_3 C193_3 1_555 1_555
O25_3 C194_3 1_555 1_555
C194_3 O26_3 1_555 1_555
Zn16 N14_3 1_555 1_555
N49_2 N15_3 1_555 1_555
N11_3 Zn21_2 1_555 1_555
N14_3 N11_3 1_555 1_555
N15_3 Zn16 1_555 1_555
C35_3 N49_2 1_555 1_555
C36_3 C37_3 1_555 1_555
C37_3 N11_3 1_555 1_555
C41_3 C35_3 1_555 1_555
C44_3 N14_3 1_555 1_555
C45_3 N15_3 1_555 1_555
C46_3 C35_3 1_555 1_555
H36_3 C46_3 1_555 1_555
H37_3 C46_3 1_555 1_555
H38_3 C46_3 1_555 1_555
C47_3 C37_3 1_555 1_555
H40_3 C47_3 1_555 1_555
H41_3 C47_3 1_555 1_555
C59_3 C44_3 1_555 1_555
H55_3 C59_3 1_555 1_555
H56_3 C59_3 1_555 1_555
H57_3 C59_3 1_555 1_555
C60_3 C45_3 1_555 1_555
H58_3 C60_3 1_555 1_555
H60_3 C60_3 1_555 1_555
C36_3 C44_3 1_555 1_555
C41_3 C45_3 1_555 1_555
Zn1_3 N6_3 1_555 1_555
N1_3 N7_3 1_555 1_555
N3_3 Zn2_2 1_555 1_555
N6_3 N3_3 1_555 1_555
N7_3 Zn1_3 1_555 1_555
C1_3 N1_3 1_555 1_555
C2_3 C3_3 1_555 1_555
C3_3 N3_3 1_555 1_555
C7_3 C1_3 1_555 1_555
C10_3 N6_3 1_555 1_555
C11_3 N7_3 1_555 1_555
C12_3 C1_3 1_555 1_555
H3_3 C12_3 1_555 1_555
H4_3 C12_3 1_555 1_555
H5_3 C12_3 1_555 1_555
C13_3 C3_3 1_555 1_555
H7_3 C13_3 1_555 1_555
H8_3 C13_3 1_555 1_555
C25_3 C10_3 1_555 1_555
H22_3 C25_3 1_555 1_555
H23_3 C25_3 1_555 1_555
H24_3 C25_3 1_555 1_555
C26_3 C11_3 1_555 1_555
H25_3 C26_3 1_555 1_555
H27_3 C26_3 1_555 1_555
Zn23 N1_3 1_555 1_555
Zn11_2 O28 1_555 1_555
O28 H101_3 1_555 1_555
O15_3 Zn23 1_555 1_555
N25_3 Zn2_2 1_555 1_555
N26_3 N32_3 1_555 1_555
N27_3 Zn23 1_555 1_555
N57 N29_3 1_555 1_555
N29_3 Zn11_2 1_555 1_555
N30_3 Zn1_3 1_555 1_555
N31_3 Zn1_3 1_555 1_555
C103_3 N25_3 1_555 1_555
C104_3 C105_3 1_555 1_555
C105_3 N27_3 1_555 1_555
N32_3 H102_3 1_555 1_555
C106_3 N26_3 1_555 1_555
C107_3 N57 1_555 1_555
C108_3 C107_3 1_555 1_555
C109_3 C103_3 1_555 1_555
C110_3 C104_3 1_555 1_555
C111_3 N29_3 1_555 1_555
C112_3 N30_3 1_555 1_555
C113_3 N31_3 1_555 1_555
C115_3 C105_3 1_555 1_555
H106_3 C115_3 1_555 1_555
H107_3 C115_3 1_555 1_555
H108_3 C115_3 1_555 1_555
C116_3 C107_3 1_555 1_555
H109_3 C116_3 1_555 1_555
H110_3 C116_3 1_555 1_555
H111_3 C116_3 1_555 1_555
C117_3 C111_3 1_555 1_555
H112_3 C117_3 1_555 1_555
H113_3 C117_3 1_555 1_555
C118_3 N32_3 1_555 1_555
C119_3 C106_3 1_555 1_555
H115_3 C119_3 1_555 1_555
H116_3 C119_3 1_555 1_555
H117_3 C119_3 1_555 1_555
C120_3 H118_3 1_555 1_555
C121_3 C120_3 1_555 1_555
C122_3 C121_3 1_555 1_555
H119_3 C122_3 1_555 1_555
C126_3 O15_3 1_555 1_555
C127_3 C112_3 1_555 1_555
H122_3 C127_3 1_555 1_555
H123_3 C127_3 1_555 1_555
H124_3 C127_3 1_555 1_555
C128_3 C113_3 1_555 1_555
H125_3 C128_3 1_555 1_555
H126_3 C128_3 1_555 1_555
H127_3 C128_3 1_555 1_555
O16_3 C126_3 1_555 1_555
C129_3 C118_3 1_555 1_555
H128_3 C129_3 1_555 1_555
H129_3 C129_3 1_555 1_555
H130_3 C129_3 1_555 1_555
Zn24 N26_3 1_555 1_555
N58_3 Zn11_2 1_555 1_555
C2_3 C10_3 1_555 1_555
C7_3 C11_3 1_555 1_555
N25_3 N31_3 1_555 1_555
N27_3 N30_3 1_555 1_555
C104_3 C112_3 1_555 1_555
C106_3 C110_3 1_555 1_555
C108_3 C109_3 1_555 1_555
C108_3 C111_3 1_555 1_555
C109_3 C113_3 1_555 1_555
C110_3 C118_3 1_555 1_555
C121_3 C126_3 1_555 1_555
N2_3 N8_3 1_555 1_555
N8_3 H2_3 1_555 1_555
C4_3 N2_3 1_555 1_555
C16_3 N8_3 1_555 1_555
C17_3 C4_3 1_555 1_555
C27_3 C16_3 1_555 1_555
H28_3 C27_3 1_555 1_555
H29_3 C27_3 1_555 1_555
H30_3 C27_3 1_555 1_555
C53_3 C52_3 1_555 1_555
C54_3 C53_3 1_555 1_555
H52_3 C54_3 1_555 1_555
C55_3 C54_3 1_555 1_555
H53_3 C55_3 1_555 1_555
C56_3 C55_3 1_555 1_555
C57_3 C52_3 1_555 1_555
H54_3 C57_3 1_555 1_555
C58_3 O6_3 1_555 1_555
O7_3 C58_3 1_555 1_555
C62_3 H64_3 1_555 1_555
C63_3 C62_3 1_555 1_555
C64_3 C63_3 1_555 1_555
H65_3 C64_3 1_555 1_555
C65_3 C64_3 1_555 1_555
H66_3 C65_3 1_555 1_555
C66_3 C56_3 1_555 1_555
C67_3 C62_3 1_555 1_555
H67_3 C67_3 1_555 1_555
O8_3 C68_3 1_555 1_555
C68_3 C63_3 1_555 1_555
O9_3 C68_3 1_555 1_555
H120_3 C123_3 1_555 1_555
C124_3 C123_3 1_555 1_555
H121_3 C125_3 1_555 1_555
C130_3 H131_3 1_555 1_555
C131_3 C130_3 1_555 1_555
C132_3 C131_3 1_555 1_555
H132_3 C132_3 1_555 1_555
C133_3 C132_3 1_555 1_555
H133_3 C133_3 1_555 1_555
C134_3 C124_3 1_555 1_555
C135_3 C130_3 1_555 1_555
H134_3 C135_3 1_555 1_555
O17_2 C136_3 1_555 1_555
C136_3 C131_3 1_555 1_555
O18_2 C136_3 1_555 1_555
Zn12_2 O17_2 1_555 1_555
N33_2 N36_2 1_555 1_555
N34_2 N35_2 1_555 1_555
N35_2 Zn12_2 1_555 1_555
N36_2 C142_2 1_555 1_555
C137_2 N33_2 1_555 1_555
C138_2 N34_2 1_555 1_555
C139_2 C138_2 1_555 1_555
C140_2 C137_2 1_555 1_555
C141_2 N35_2 1_555 1_555
C142_2 C140_2 1_555 1_555
C143_2 C137_2 1_555 1_555
H135_2 C143_2 1_555 1_555
H136_2 C143_2 1_555 1_555
H137_2 C143_2 1_555 1_555
C144_2 C138_2 1_555 1_555
H138_2 C144_2 1_555 1_555
H139_2 C144_2 1_555 1_555
H140_2 C144_2 1_555 1_555
C145_2 C141_2 1_555 1_555
H141_2 C145_2 1_555 1_555
H142_2 C145_2 1_555 1_555
H143_2 C145_2 1_555 1_555
C146_2 C142_2 1_555 1_555
H144_2 C146_2 1_555 1_555
H145_2 C146_2 1_555 1_555
H146_2 C146_2 1_555 1_555
Zn18 N36_2 1_555 1_555
Zn25_2 N33_2 1_555 1_555
Zn27_2 N34_2 1_555 1_555
Zn30 O8_3 1_555 1_555
O27_2 Zn12_2 1_555 1_555
N56_2 Zn12_2 1_555 1_555
C4_3 C8_3 1_555 1_555
C8_3 C16_3 1_555 1_555
C53_3 C58_3 1_555 1_555
C56_3 C57_3 1_555 1_555
C65_3 C66_3 1_555 1_555
C66_3 C67_3 1_555 1_555
O9_3 Zn30 1_555 1_555
C124_3 C125_3 1_555 1_555
C133_3 C134_3 1_555 1_555
C134_3 C135_3 1_555 1_555
O18_2 Zn12_2 1_555 1_555
C139_2 C140_2 1_555 1_555
C139_2 C141_2 1_555 1_555
Zn27_2 O27_2 1_555 1_555
Zn7_2 N22_2 1_555 1_555
N17_2 N23_2 1_555 1_555
N19_2 Zn8_2 1_555 1_555
N22_2 N19_2 1_555 1_555
N23_2 Zn7_2 1_555 1_555
C69_2 N17_2 1_555 1_555
C70_2 C71_2 1_555 1_555
C71_2 N19_2 1_555 1_555
C75_2 C69_2 1_555 1_555
C78_2 N22_2 1_555 1_555
C79_2 N23_2 1_555 1_555
C80_2 C69_2 1_555 1_555
H69_2 C80_2 1_555 1_555
H70_2 C80_2 1_555 1_555
H71_2 C80_2 1_555 1_555
C81_2 C71_2 1_555 1_555
H73_2 C81_2 1_555 1_555
H74_2 C81_2 1_555 1_555
C93_2 C78_2 1_555 1_555
H88_2 C93_2 1_555 1_555
H89_2 C93_2 1_555 1_555
H90_2 C93_2 1_555 1_555
C94_2 C79_2 1_555 1_555
H91_2 C94_2 1_555 1_555
H93_2 C94_2 1_555 1_555
N37_2 N40_2 1_555 1_555
N40_2 H147_2 1_555 1_555
C149_2 N37_2 1_555 1_555
C153_2 N40_2 1_555 1_555
C154_2 C149_2 1_555 1_555
H151_2 C154_2 1_555 1_555
H153_2 C154_2 1_555 1_555
C163_2 C153_2 1_555 1_555
H161_2 C163_2 1_555 1_555
H162_2 C163_2 1_555 1_555
H163_2 C163_2 1_555 1_555
Zn20_2 N37_2 1_555 1_555
Zn25 N17_2 1_555 1_555
N51_2 Zn8_2 1_555 1_555
N60_3 Zn7_2 1_555 1_555
N62_3 Zn7_2 1_555 1_555
C70_2 C78_2 1_555 1_555
C75_2 C79_2 1_555 1_555
C149_2 C150_2 1_555 1_555
C150_2 C153_2 1_555 1_555
N51_2 N62_3 1_555 1_555
N10_2 N16_3 1_555 1_555
N16_3 H35_3 1_555 1_555
C38_3 N10_2 1_555 1_555
C50_3 N16_3 1_555 1_555
C51_3 C38_3 1_555 1_555
C61_3 C50_3 1_555 1_555
H61_3 C61_3 1_555 1_555
H62_3 C61_3 1_555 1_555
H63_3 C61_3 1_555 1_555
C87_2 C86_2 1_555 1_555
C88_2 C87_2 1_555 1_555
H85_2 C88_2 1_555 1_555
C89_2 C88_2 1_555 1_555
H86_2 C89_2 1_555 1_555
C90_2 C89_2 1_555 1_555
C91_2 C86_2 1_555 1_555
H87_2 C91_2 1_555 1_555
C92_2 O10_2 1_555 1_555
O11_2 C92_2 1_555 1_555
C96_2 H97_2 1_555 1_555
C97_2 C96_2 1_555 1_555
C98_2 C97_2 1_555 1_555
H98_2 C98_2 1_555 1_555
C99_2 C98_2 1_555 1_555
H99_2 C99_2 1_555 1_555
C100_2 C90_2 1_555 1_555
C101_2 C96_2 1_555 1_555
H100_2 C101_2 1_555 1_555
O12_2 C102_2 1_555 1_555
C102_2 C97_2 1_555 1_555
O13_2 C102_2 1_555 1_555
Zn29_2 O12_2 1_555 1_555
C38_3 C42_3 1_555 1_555
C42_3 C50_3 1_555 1_555
C87_2 C92_2 1_555 1_555
C90_2 C91_2 1_555 1_555
C99_2 C100_2 1_555 1_555
C100_2 C101_2 1_555 1_555
O13_2 Zn29_2 1_555 1_555
O11_2 H202_2 1_555 1_555
O2_3 C24_3 1_555 1_555
C19_3 C18_3 1_555 1_555
C20_3 C19_3 1_555 1_555
H19_3 C20_3 1_555 1_555
C21_3 C20_3 1_555 1_555
H20_3 C21_3 1_555 1_555
C22_3 C21_3 1_555 1_555
C23_3 C18_3 1_555 1_555
H21_3 C23_3 1_555 1_555
C24_3 C19_3 1_555 1_555
O3_3 C24_3 1_555 1_555
C28_3 H31_3 1_555 1_555
C29_3 C28_3 1_555 1_555
C30_3 C29_3 1_555 1_555
H32_3 C30_3 1_555 1_555
C31_3 C30_3 1_555 1_555
H33_3 C31_3 1_555 1_555
C32_3 C22_3 1_555 1_555
C33_3 C28_3 1_555 1_555
H34_3 C33_3 1_555 1_555
O4_3 C34_3 1_555 1_555
C34_3 C29_3 1_555 1_555
O5_3 C34_3 1_555 1_555
N24_2 N18_2 1_555 1_555
H68_2 N24_2 1_555 1_555
C72_2 N18_2 1_555 1_555
C84_2 N24_2 1_555 1_555
C85_2 C72_2 1_555 1_555
C95_2 C84_2 1_555 1_555
H94_2 C95_2 1_555 1_555
H95_2 C95_2 1_555 1_555
H96_2 C95_2 1_555 1_555
H103_3 C114_3 1_555 1_555
H104_3 C114_3 1_555 1_555
H105_3 C114_3 1_555 1_555
Zn13_2 O19_2 1_555 1_555
O19_2 C161_2 1_555 1_555
N38_2 Zn13_2 1_555 1_555
N39_2 N38_2 1_555 1_555
C147_2 C148_2 1_555 1_555
C148_2 N38_2 1_555 1_555
C151_2 N39_2 1_555 1_555
C152_2 C148_2 1_555 1_555
H148_2 C152_2 1_555 1_555
H149_2 C152_2 1_555 1_555
H150_2 C152_2 1_555 1_555
C155_2 H154_2 1_555 1_555
C156_2 C155_2 1_555 1_555
C157_2 C156_2 1_555 1_555
H155_2 C157_2 1_555 1_555
C158_2 C157_2 1_555 1_555
H156_2 C158_2 1_555 1_555
C159_2 C158_2 1_555 1_555
C160_2 C155_2 1_555 1_555
H157_2 C160_2 1_555 1_555
C161_2 C156_2 1_555 1_555
C162_2 C151_2 1_555 1_555
H158_2 C162_2 1_555 1_555
H159_2 C162_2 1_555 1_555
H160_2 C162_2 1_555 1_555
O20_2 C161_2 1_555 1_555
C164_2 H164_2 1_555 1_555
C165_2 C164_2 1_555 1_555
C166_2 C165_2 1_555 1_555
H165_2 C166_2 1_555 1_555
C167_2 C166_2 1_555 1_555
H166_2 C167_2 1_555 1_555
C168_2 C159_2 1_555 1_555
C169_2 C164_2 1_555 1_555
H167_2 C169_2 1_555 1_555
C170_2 C165_2 1_555 1_555
Zn28 O4_3 1_555 1_555
N46_3 N47_3 1_555 1_555
N47_3 Zn28 1_555 1_555
N61_2 C200_3 1_555 1_555
C195_3 N50_2 1_555 1_555
C196_3 N46_3 1_555 1_555
C197_3 C196_3 1_555 1_555
C198_3 C195_3 1_555 1_555
C199_3 N47_3 1_555 1_555
C200_3 C198_3 1_555 1_555
C201_3 C195_3 1_555 1_555
H189_3 C201_3 1_555 1_555
H190_3 C201_3 1_555 1_555
H191_3 C201_3 1_555 1_555
C202_3 C196_3 1_555 1_555
H192_3 C202_3 1_555 1_555
H193_3 C202_3 1_555 1_555
H194_3 C202_3 1_555 1_555
C203_3 C199_3 1_555 1_555
H195_3 C203_3 1_555 1_555
H196_3 C203_3 1_555 1_555
H197_3 C203_3 1_555 1_555
C204_3 C200_3 1_555 1_555
H198_3 C204_3 1_555 1_555
H199_3 C204_3 1_555 1_555
H200_3 C204_3 1_555 1_555
Zn18 N39_2 1_555 1_555
Zn32 N46_3 1_555 1_555
N52_2 Zn13_2 1_555 1_555
N53_2 Zn13_2 1_555 1_555
C22_3 C23_3 1_555 1_555
C31_3 C32_3 1_555 1_555
C32_3 C33_3 1_555 1_555
O5_3 Zn28 1_555 1_555
C72_2 C76_2 1_555 1_555
C76_2 C84_2 1_555 1_555
C147_2 C151_2 1_555 1_555
C159_2 C160_2 1_555 1_555
C167_2 C168_2 1_555 1_555
C168_2 C169_2 1_555 1_555
O21_2 C170_2 1_555 1_555
C170_2 O22_2 1_555 1_555
C197_3 C198_3 1_555 1_555
C197_3 C199_3 1_555 1_555
O20_2 H201_2 1_555 1_555
Zn1_4 N6_4 1_555 1_555
Zn20_2 O2_4 1_555 1_555
O2_4 C24_4 1_555 1_555
N1_4 N7_4 1_555 1_555
N2_4 N8_4 1_555 1_555
N3_4 Zn20_2 1_555 1_555
N6_4 N3_4 1_555 1_555
N7_4 Zn1_4 1_555 1_555
C1_4 N1_4 1_555 1_555
C2_4 C3_4 1_555 1_555
C3_4 N3_4 1_555 1_555
N8_4 H2_4 1_555 1_555
C4_4 N2_4 1_555 1_555
C7_4 C1_4 1_555 1_555
C8_4 C2_4 1_555 1_555
C10_4 N6_4 1_555 1_555
C11_4 N7_4 1_555 1_555
C12_4 C1_4 1_555 1_555
H3_4 C12_4 1_555 1_555
H4_4 C12_4 1_555 1_555
H5_4 C12_4 1_555 1_555
C13_4 C3_4 1_555 1_555
H6_4 C13_4 1_555 1_555
H7_4 C13_4 1_555 1_555
H8_4 C13_4 1_555 1_555
C16_4 N8_4 1_555 1_555
C17_4 C4_4 1_555 1_555
H16_4 C17_4 1_555 1_555
C18_4 H18_4 1_555 1_555
C19_4 C18_4 1_555 1_555
C20_4 C19_4 1_555 1_555
H19_4 C20_4 1_555 1_555
C21_4 C20_4 1_555 1_555
H20_4 C21_4 1_555 1_555
C22_4 C21_4 1_555 1_555
C23_4 C18_4 1_555 1_555
H21_4 C23_4 1_555 1_555
C24_4 C19_4 1_555 1_555
C25_4 C10_4 1_555 1_555
H22_4 C25_4 1_555 1_555
H23_4 C25_4 1_555 1_555
H24_4 C25_4 1_555 1_555
C26_4 C11_4 1_555 1_555
H25_4 C26_4 1_555 1_555
H27_4 C26_4 1_555 1_555
O3_4 C24_4 1_555 1_555
C27_4 C16_4 1_555 1_555
H28_4 C27_4 1_555 1_555
H29_4 C27_4 1_555 1_555
H30_4 C27_4 1_555 1_555
C28_4 H31_4 1_555 1_555
C29_4 C28_4 1_555 1_555
C30_4 C29_4 1_555 1_555
H32_4 C30_4 1_555 1_555
C31_4 C30_4 1_555 1_555
H33_4 C31_4 1_555 1_555
C32_4 C22_4 1_555 1_555
C33_4 C28_4 1_555 1_555
H34_4 C33_4 1_555 1_555
O4_4 C34_4 1_555 1_555
C34_4 C29_4 1_555 1_555
O5_4 C34_4 1_555 1_555
C53_4 C52_4 1_555 1_555
C54_4 C53_4 1_555 1_555
H52_4 C54_4 1_555 1_555
C55_4 C54_4 1_555 1_555
H53_4 C55_4 1_555 1_555
C56_4 C55_4 1_555 1_555
C57_4 C52_4 1_555 1_555
H54_4 C57_4 1_555 1_555
C58_4 O6_4 1_555 1_555
O7_4 C58_4 1_555 1_555
C62_4 H64_4 1_555 1_555
C63_4 C62_4 1_555 1_555
C64_4 C63_4 1_555 1_555
H65_4 C64_4 1_555 1_555
C65_4 C64_4 1_555 1_555
H66_4 C65_4 1_555 1_555
C66_4 C56_4 1_555 1_555
C67_4 C62_4 1_555 1_555
H67_4 C67_4 1_555 1_555
O8_4 C68_4 1_555 1_555
C68_4 C63_4 1_555 1_555
O9_4 C68_4 1_555 1_555
Zn23_2 N1_4 1_555 1_555
Zn29_2 O28_2 1_555 1_555
O28_2 H101_4 1_555 1_555
O15_4 Zn23_2 1_555 1_555
N25_4 Zn20_2 1_555 1_555
N26_4 N32_4 1_555 1_555
N27_4 Zn23_2 1_555 1_555
N57_2 N29_4 1_555 1_555
N29_4 Zn29_2 1_555 1_555
N30_4 Zn1_4 1_555 1_555
N31_4 Zn1_4 1_555 1_555
C103_4 N25_4 1_555 1_555
C104_4 C105_4 1_555 1_555
C105_4 N27_4 1_555 1_555
N32_4 H102_4 1_555 1_555
C106_4 N26_4 1_555 1_555
C107_4 N57_2 1_555 1_555
C108_4 C107_4 1_555 1_555
C109_4 C103_4 1_555 1_555
C110_4 C104_4 1_555 1_555
C111_4 N29_4 1_555 1_555
C112_4 N30_4 1_555 1_555
C113_4 N31_4 1_555 1_555
C114_4 C103_4 1_555 1_555
H103_4 C114_4 1_555 1_555
H104_4 C114_4 1_555 1_555
H105_4 C114_4 1_555 1_555
C115_4 C105_4 1_555 1_555
H106_4 C115_4 1_555 1_555
H107_4 C115_4 1_555 1_555
H108_4 C115_4 1_555 1_555
C116_4 C107_4 1_555 1_555
H109_4 C116_4 1_555 1_555
H110_4 C116_4 1_555 1_555
H111_4 C116_4 1_555 1_555
C117_4 C111_4 1_555 1_555
H112_4 C117_4 1_555 1_555
H113_4 C117_4 1_555 1_555
H114_4 C117_4 1_555 1_555
C118_4 N32_4 1_555 1_555
C119_4 C106_4 1_555 1_555
H115_4 C119_4 1_555 1_555
H116_4 C119_4 1_555 1_555
H117_4 C119_4 1_555 1_555
C120_4 H118_4 1_555 1_555
C121_4 C120_4 1_555 1_555
C122_4 C121_4 1_555 1_555
H119_4 C122_4 1_555 1_555
C123_4 C122_4 1_555 1_555
H120_4 C123_4 1_555 1_555
C124_4 C123_4 1_555 1_555
C125_4 C120_4 1_555 1_555
H121_4 C125_4 1_555 1_555
C126_4 O15_4 1_555 1_555
C127_4 C112_4 1_555 1_555
H122_4 C127_4 1_555 1_555
H123_4 C127_4 1_555 1_555
H124_4 C127_4 1_555 1_555
C128_4 C113_4 1_555 1_555
H125_4 C128_4 1_555 1_555
H126_4 C128_4 1_555 1_555
H127_4 C128_4 1_555 1_555
O16_4 C126_4 1_555 1_555
C129_4 C118_4 1_555 1_555
H128_4 C129_4 1_555 1_555
H129_4 C129_4 1_555 1_555
H130_4 C129_4 1_555 1_555
C130_4 H131_4 1_555 1_555
C131_4 C130_4 1_555 1_555
C132_4 C131_4 1_555 1_555
H132_4 C132_4 1_555 1_555
C133_4 C132_4 1_555 1_555
H133_4 C133_4 1_555 1_555
C134_4 C124_4 1_555 1_555
C135_4 C130_4 1_555 1_555
H134_4 C135_4 1_555 1_555
O29_2 C136_4 1_555 1_555
C136_4 C131_4 1_555 1_555
O31_2 C136_4 1_555 1_555
Zn28_2 O4_4 1_555 1_555
N46_4 N47_4 1_555 1_555
N47_4 Zn28_2 1_555 1_555
N61 C200_4 1_555 1_555
C195_4 N50 1_555 1_555
C196_4 N46_4 1_555 1_555
C197_4 C196_4 1_555 1_555
C198_4 C195_4 1_555 1_555
C199_4 N47_4 1_555 1_555
C200_4 C198_4 1_555 1_555
C201_4 C195_4 1_555 1_555
H189_4 C201_4 1_555 1_555
H190_4 C201_4 1_555 1_555
H191_4 C201_4 1_555 1_555
C202_4 C196_4 1_555 1_555
H192_4 C202_4 1_555 1_555
H193_4 C202_4 1_555 1_555
H194_4 C202_4 1_555 1_555
C203_4 C199_4 1_555 1_555
H195_4 C203_4 1_555 1_555
H196_4 C203_4 1_555 1_555
H197_4 C203_4 1_555 1_555
C204_4 C200_4 1_555 1_555
H198_4 C204_4 1_555 1_555
H199_4 C204_4 1_555 1_555
H200_4 C204_4 1_555 1_555
Zn26 N26_4 1_555 1_555
Zn32_2 N46_4 1_555 1_555
N58_4 Zn29_2 1_555 1_555
C2_4 C10_4 1_555 1_555
C4_4 C8_4 1_555 1_555
C7_4 C11_4 1_555 1_555
C8_4 C16_4 1_555 1_555
C22_4 C23_4 1_555 1_555
C31_4 C32_4 1_555 1_555
C32_4 C33_4 1_555 1_555
O5_4 Zn28_2 1_555 1_555
C53_4 C58_4 1_555 1_555
C56_4 C57_4 1_555 1_555
C65_4 C66_4 1_555 1_555
C66_4 C67_4 1_555 1_555
N25_4 N31_4 1_555 1_555
N27_4 N30_4 1_555 1_555
C104_4 C112_4 1_555 1_555
C106_4 C110_4 1_555 1_555
C108_4 C109_4 1_555 1_555
C108_4 C111_4 1_555 1_555
C109_4 C113_4 1_555 1_555
C110_4 C118_4 1_555 1_555
C121_4 C126_4 1_555 1_555
C124_4 C125_4 1_555 1_555
C133_4 C134_4 1_555 1_555
C134_4 C135_4 1_555 1_555
C197_4 C198_4 1_555 1_555
C197_4 C199_4 1_555 1_555
Zn3_4 O27_2 1_555 1_555
O27_2 H1_4 1_555 1_555
N56_2 N5_4 1_555 1_555
N5_4 Zn3_4 1_555 1_555
C5_4 N56_2 1_555 1_555
C6_4 C5_4 1_555 1_555
C9_4 N5_4 1_555 1_555
C14_4 C5_4 1_555 1_555
H9_4 C14_4 1_555 1_555
H10_4 C14_4 1_555 1_555
H11_4 C14_4 1_555 1_555
C15_4 C9_4 1_555 1_555
H12_4 C15_4 1_555 1_555
H13_4 C15_4 1_555 1_555
H14_4 C15_4 1_555 1_555
Zn17 N14_4 1_555 1_555
N49 N15_4 1_555 1_555
N53_2 N16_4 1_555 1_555
N11_4 Zn21 1_555 1_555
N12_4 Zn3_4 1_555 1_555
N13_4 Zn27_2 1_555 1_555
N14_4 N11_4 1_555 1_555
N15_4 Zn17 1_555 1_555
C35_4 N49 1_555 1_555
C36_4 C37_4 1_555 1_555
C37_4 N11_4 1_555 1_555
N16_4 H35_4 1_555 1_555
C38_4 N53_2 1_555 1_555
C39_4 N12_4 1_555 1_555
C40_4 C39_4 1_555 1_555
C41_4 C35_4 1_555 1_555
C42_4 C36_4 1_555 1_555
C43_4 N13_4 1_555 1_555
C44_4 N14_4 1_555 1_555
C45_4 N15_4 1_555 1_555
C46_4 C35_4 1_555 1_555
H36_4 C46_4 1_555 1_555
H37_4 C46_4 1_555 1_555
H38_4 C46_4 1_555 1_555
C47_4 C37_4 1_555 1_555
H40_4 C47_4 1_555 1_555
H41_4 C47_4 1_555 1_555
C48_4 C39_4 1_555 1_555
H42_4 C48_4 1_555 1_555
H43_4 C48_4 1_555 1_555
H44_4 C48_4 1_555 1_555
C49_4 C43_4 1_555 1_555
H45_4 C49_4 1_555 1_555
H46_4 C49_4 1_555 1_555
H47_4 C49_4 1_555 1_555
C50_4 N16_4 1_555 1_555
C51_4 C38_4 1_555 1_555
H48_4 C51_4 1_555 1_555
H49_4 C51_4 1_555 1_555
H50_4 C51_4 1_555 1_555
C59_4 C44_4 1_555 1_555
H55_4 C59_4 1_555 1_555
H56_4 C59_4 1_555 1_555
H57_4 C59_4 1_555 1_555
C60_4 C45_4 1_555 1_555
H58_4 C60_4 1_555 1_555
H59_4 C60_4 1_555 1_555
H60_4 C60_4 1_555 1_555
C61_4 C50_4 1_555 1_555
H61_4 C61_4 1_555 1_555
H62_4 C61_4 1_555 1_555
H63_4 C61_4 1_555 1_555
H177_4 C182_4 1_555 1_555
C183_4 C182_4 1_555 1_555
H178_4 C184_4 1_555 1_555
C188_4 H185_4 1_555 1_555
C189_4 C188_4 1_555 1_555
C190_4 C189_4 1_555 1_555
H186_4 C190_4 1_555 1_555
C191_4 C190_4 1_555 1_555
H187_4 C191_4 1_555 1_555
C192_4 C183_4 1_555 1_555
C193_4 C188_4 1_555 1_555
H188_4 C193_4 1_555 1_555
O25_4 Zn3_4 1_555 1_555
C194_4 C189_4 1_555 1_555
O26_4 Zn3_4 1_555 1_555
N60_4 Zn18 1_555 1_555
N62_4 Zn18 1_555 1_555
O30_4 Zn27_2 1_555 1_555
O32_4 Zn27_2 1_555 1_555
C6_4 C9_4 1_555 1_555
N12_4 N13_4 1_555 1_555
C36_4 C44_4 1_555 1_555
C38_4 C42_4 1_555 1_555
C40_4 C41_4 1_555 1_555
C40_4 C43_4 1_555 1_555
C41_4 C45_4 1_555 1_555
C42_4 C50_4 1_555 1_555
C183_4 C184_4 1_555 1_555
C191_4 C192_4 1_555 1_555
C192_4 C193_4 1_555 1_555
O25_4 C194_4 1_555 1_555
C194_4 O26_4 1_555 1_555
N52_2 N62_4 1_555 1_555
Zn22 O23_4 1_555 1_555
O23_4 C185_4 1_555 1_555
N54_2 N44_4 1_555 1_555
N42_4 Zn22 1_555 1_555
N59 N42_4 1_555 1_555
C171_4 C172_4 1_555 1_555
C172_4 N42_4 1_555 1_555
N44_4 H168_4 1_555 1_555
C173_4 N54_2 1_555 1_555
C174_4 C171_4 1_555 1_555
C175_4 N59 1_555 1_555
C176_4 C172_4 1_555 1_555
H169_4 C176_4 1_555 1_555
H170_4 C176_4 1_555 1_555
H171_4 C176_4 1_555 1_555
C177_4 N44_4 1_555 1_555
C178_4 C173_4 1_555 1_555
H172_4 C178_4 1_555 1_555
H173_4 C178_4 1_555 1_555
H174_4 C178_4 1_555 1_555
C179_4 H175_4 1_555 1_555
C180_4 C179_4 1_555 1_555
C181_4 C180_4 1_555 1_555
H176_4 C181_4 1_555 1_555
C185_4 C180_4 1_555 1_555
C186_4 C175_4 1_555 1_555
H179_4 C186_4 1_555 1_555
H180_4 C186_4 1_555 1_555
H181_4 C186_4 1_555 1_555
O24_4 C185_4 1_555 1_555
C187_4 C177_4 1_555 1_555
H182_4 C187_4 1_555 1_555
H183_4 C187_4 1_555 1_555
H184_4 C187_4 1_555 1_555
N55_4 Zn22 1_555 1_555
C171_4 C175_4 1_555 1_555
C173_4 C174_4 1_555 1_555
C174_4 C177_4 1_555 1_555
H189_5 C201_5 1_555 1_555
H190_5 C201_5 1_555 1_555
H191_5 C201_5 1_555 1_555
O3 H201_3 1_555 1_555
O3_4 H202_3 1_555 1_555
N58_4 N47_5 1_555 1_555
N47_5 Zn30_2 1_555 1_555
N62_2 C200_5 1_555 1_555
C195_5 N52 1_555 1_555
C196_5 N58_4 1_555 1_555
C197_5 C196_5 1_555 1_555
C198_5 C195_5 1_555 1_555
C199_5 N47_5 1_555 1_555
C200_5 C198_5 1_555 1_555
C202_5 C196_5 1_555 1_555
H192_5 C202_5 1_555 1_555
H193_5 C202_5 1_555 1_555
H194_5 C202_5 1_555 1_555
C203_5 C199_5 1_555 1_555
H195_5 C203_5 1_555 1_555
H196_5 C203_5 1_555 1_555
C204_5 C200_5 1_555 1_555
H198_5 C204_5 1_555 1_555
H199_5 C204_5 1_555 1_555
H200_5 C204_5 1_555 1_555
C197_5 C198_5 1_555 1_555
C197_5 C199_5 1_555 1_555
Zn26 O23_5 1_555 1_555
O23_5 C185_5 1_555 1_555
N55_2 N44_5 1_555 1_555
N42_5 Zn26 1_555 1_555
N60_2 N42_5 1_555 1_555
C171_5 C172_5 1_555 1_555
C172_5 N42_5 1_555 1_555
N44_5 H168_5 1_555 1_555
C173_5 N55_2 1_555 1_555
C174_5 C171_5 1_555 1_555
C175_5 N60_2 1_555 1_555
C176_5 C172_5 1_555 1_555
H169_5 C176_5 1_555 1_555
H170_5 C176_5 1_555 1_555
H171_5 C176_5 1_555 1_555
C177_5 N44_5 1_555 1_555
C178_5 C173_5 1_555 1_555
H172_5 C178_5 1_555 1_555
H173_5 C178_5 1_555 1_555
H174_5 C178_5 1_555 1_555
C179_5 H175_5 1_555 1_555
C180_5 C179_5 1_555 1_555
C181_5 C180_5 1_555 1_555
H176_5 C181_5 1_555 1_555
C182_5 C181_5 1_555 1_555
H177_5 C182_5 1_555 1_555
C183_5 C182_5 1_555 1_555
C184_5 C179_5 1_555 1_555
H178_5 C184_5 1_555 1_555
C185_5 C180_5 1_555 1_555
C186_5 C175_5 1_555 1_555
H179_5 C186_5 1_555 1_555
H180_5 C186_5 1_555 1_555
H181_5 C186_5 1_555 1_555
O24_5 C185_5 1_555 1_555
C187_5 C177_5 1_555 1_555
H182_5 C187_5 1_555 1_555
H183_5 C187_5 1_555 1_555
H184_5 C187_5 1_555 1_555
C188_5 H185_5 1_555 1_555
C189_5 C188_5 1_555 1_555
C190_5 C189_5 1_555 1_555
H186_5 C190_5 1_555 1_555
C191_5 C190_5 1_555 1_555
H187_5 C191_5 1_555 1_555
C192_5 C183_5 1_555 1_555
C193_5 C188_5 1_555 1_555
H188_5 C193_5 1_555 1_555
C194_5 C189_5 1_555 1_555
C171_5 C175_5 1_555 1_555
C173_5 C174_5 1_555 1_555
C174_5 C177_5 1_555 1_555
C183_5 C184_5 1_555 1_555
C191_5 C192_5 1_555 1_555
C192_5 C193_5 1_555 1_555
O30_4 C194_5 1_555 1_555
C194_5 O32_4 1_555 1_555
Zn25 O23_6 1_555 1_555
O23_6 C185_6 1_555 1_555
N55_3 N44_6 1_555 1_555
N42_6 Zn25 1_555 1_555
N60_3 N42_6 1_555 1_555
C171_6 C172_6 1_555 1_555
C172_6 N42_6 1_555 1_555
N44_6 H168_6 1_555 1_555
C173_6 N55_3 1_555 1_555
C174_6 C171_6 1_555 1_555
C175_6 N60_3 1_555 1_555
C176_6 C172_6 1_555 1_555
H169_6 C176_6 1_555 1_555
H170_6 C176_6 1_555 1_555
H171_6 C176_6 1_555 1_555
C177_6 N44_6 1_555 1_555
C178_6 C173_6 1_555 1_555
H172_6 C178_6 1_555 1_555
H173_6 C178_6 1_555 1_555
H174_6 C178_6 1_555 1_555
C179_6 H175_6 1_555 1_555
C180_6 C179_6 1_555 1_555
C181_6 C180_6 1_555 1_555
H176_6 C181_6 1_555 1_555
C185_6 C180_6 1_555 1_555
C186_6 C175_6 1_555 1_555
H179_6 C186_6 1_555 1_555
H180_6 C186_6 1_555 1_555
H181_6 C186_6 1_555 1_555
O24_6 C185_6 1_555 1_555
C187_6 C177_6 1_555 1_555
H182_6 C187_6 1_555 1_555
H183_6 C187_6 1_555 1_555
H184_6 C187_6 1_555 1_555
C171_6 C175_6 1_555 1_555
C173_6 C174_6 1_555 1_555
C174_6 C177_6 1_555 1_555
N58 N47_6 1_555 1_555
N47_6 Zn32 1_555 1_555
N62_3 C200_6 1_555 1_555
C195_6 N51_2 1_555 1_555
C196_6 N58 1_555 1_555
C197_6 C196_6 1_555 1_555
C198_6 C195_6 1_555 1_555
C199_6 N47_6 1_555 1_555
C200_6 C198_6 1_555 1_555
C202_6 C196_6 1_555 1_555
H192_6 C202_6 1_555 1_555
H193_6 C202_6 1_555 1_555
H194_6 C202_6 1_555 1_555
C203_6 C199_6 1_555 1_555
H195_6 C203_6 1_555 1_555
H196_6 C203_6 1_555 1_555
C204_6 C200_6 1_555 1_555
H198_6 C204_6 1_555 1_555
H199_6 C204_6 1_555 1_555
H200_6 C204_6 1_555 1_555
C197_6 C198_6 1_555 1_555
C197_6 C199_6 1_555 1_555
H177_6 C182_6 1_555 1_555
C183_6 C182_6 1_555 1_555
H178_6 C184_6 1_555 1_555
C188_6 H185_6 1_555 1_555
C189_6 C188_6 1_555 1_555
C190_6 C189_6 1_555 1_555
H186_6 C190_6 1_555 1_555
C191_6 C190_6 1_555 1_555
H187_6 C191_6 1_555 1_555
C192_6 C183_6 1_555 1_555
C193_6 C188_6 1_555 1_555
H188_6 C193_6 1_555 1_555
C194_6 C189_6 1_555 1_555
H189_6 C201_6 1_555 1_555
H190_6 C201_6 1_555 1_555
H191_6 C201_6 1_555 1_555
C183_6 C184_6 1_555 1_555
C191_6 C192_6 1_555 1_555
C192_6 C193_6 1_555 1_555
O30 C194_6 1_555 1_555
C194_6 O32 1_555 1_555
Zn24 O23_7 1_555 1_555
O23_7 C185_7 1_555 1_555
N55 N44_7 1_555 1_555
N42_7 Zn24 1_555 1_555
N60 N42_7 1_555 1_555
C171_7 C172_7 1_555 1_555
C172_7 N42_7 1_555 1_555
N44_7 H168_7 1_555 1_555
C173_7 N55 1_555 1_555
C174_7 C171_7 1_555 1_555
C175_7 N60 1_555 1_555
C176_7 C172_7 1_555 1_555
H169_7 C176_7 1_555 1_555
H170_7 C176_7 1_555 1_555
H171_7 C176_7 1_555 1_555
C177_7 N44_7 1_555 1_555
C178_7 C173_7 1_555 1_555
H172_7 C178_7 1_555 1_555
H173_7 C178_7 1_555 1_555
H174_7 C178_7 1_555 1_555
C179_7 H175_7 1_555 1_555
C180_7 C179_7 1_555 1_555
C181_7 C180_7 1_555 1_555
H176_7 C181_7 1_555 1_555
C182_7 C181_7 1_555 1_555
H177_7 C182_7 1_555 1_555
C183_7 C182_7 1_555 1_555
C184_7 C179_7 1_555 1_555
H178_7 C184_7 1_555 1_555
C185_7 C180_7 1_555 1_555
C186_7 C175_7 1_555 1_555
H179_7 C186_7 1_555 1_555
H180_7 C186_7 1_555 1_555
H181_7 C186_7 1_555 1_555
O24_7 C185_7 1_555 1_555
C187_7 C177_7 1_555 1_555
H182_7 C187_7 1_555 1_555
H183_7 C187_7 1_555 1_555
H184_7 C187_7 1_555 1_555
C188_7 H185_7 1_555 1_555
C189_7 C188_7 1_555 1_555
C190_7 C189_7 1_555 1_555
H186_7 C190_7 1_555 1_555
C191_7 C190_7 1_555 1_555
H187_7 C191_7 1_555 1_555
C192_7 C183_7 1_555 1_555
C193_7 C188_7 1_555 1_555
H188_7 C193_7 1_555 1_555
C194_7 C189_7 1_555 1_555
C171_7 C175_7 1_555 1_555
C173_7 C174_7 1_555 1_555
C174_7 C177_7 1_555 1_555
C183_7 C184_7 1_555 1_555
C191_7 C192_7 1_555 1_555
C192_7 C193_7 1_555 1_555
O30_3 C194_7 1_555 1_555
C194_7 O32_3 1_555 1_555
N58_3 N47_7 1_555 1_555
N47_7 Zn30 1_555 1_555
N62 C200_7 1_555 1_555
C195_7 N51 1_555 1_555
C196_7 N58_3 1_555 1_555
C197_7 C196_7 1_555 1_555
C198_7 C195_7 1_555 1_555
C199_7 N47_7 1_555 1_555
C200_7 C198_7 1_555 1_555
C201_7 C195_7 1_555 1_555
H189_7 C201_7 1_555 1_555
H190_7 C201_7 1_555 1_555
H191_7 C201_7 1_555 1_555
C202_7 C196_7 1_555 1_555
H192_7 C202_7 1_555 1_555
H193_7 C202_7 1_555 1_555
H194_7 C202_7 1_555 1_555
C203_7 C199_7 1_555 1_555
H195_7 C203_7 1_555 1_555
H196_7 C203_7 1_555 1_555
H197_7 C203_7 1_555 1_555
C204_7 C200_7 1_555 1_555
H198_7 C204_7 1_555 1_555
H199_7 C204_7 1_555 1_555
H200_7 C204_7 1_555 1_555
C197_7 C198_7 1_555 1_555
C197_7 C199_7 1_555 1_555
O3_2 H201_4 1_555 1_555
O3_3 H202_4 1_555 1_555
N58_2 N47_8 1_555 1_555
N47_8 Zn32_2 1_555 1_555
N62_4 C200_8 1_555 1_555
C195_8 N52_2 1_555 1_555
C196_8 N58_2 1_555 1_555
C197_8 C196_8 1_555 1_555
C198_8 C195_8 1_555 1_555
C199_8 N47_8 1_555 1_555
C200_8 C198_8 1_555 1_555
C201_8 C195_8 1_555 1_555
H189_8 C201_8 1_555 1_555
H190_8 C201_8 1_555 1_555
H191_8 C201_8 1_555 1_555
C202_8 C196_8 1_555 1_555
H192_8 C202_8 1_555 1_555
H193_8 C202_8 1_555 1_555
H194_8 C202_8 1_555 1_555
C203_8 C199_8 1_555 1_555
H195_8 C203_8 1_555 1_555
H196_8 C203_8 1_555 1_555
H197_8 C203_8 1_555 1_555
C204_8 C200_8 1_555 1_555
H198_8 C204_8 1_555 1_555
H199_8 C204_8 1_555 1_555
H200_8 C204_8 1_555 1_555
C197_8 C198_8 1_555 1_555
C197_8 C199_8 1_555 1_555
H177_8 C182_8 1_555 1_555
C183_8 C182_8 1_555 1_555
H178_8 C184_8 1_555 1_555
C188_8 H185_8 1_555 1_555
C189_8 C188_8 1_555 1_555
C190_8 C189_8 1_555 1_555
H186_8 C190_8 1_555 1_555
C191_8 C190_8 1_555 1_555
H187_8 C191_8 1_555 1_555
C192_8 C183_8 1_555 1_555
C193_8 C188_8 1_555 1_555
H188_8 C193_8 1_555 1_555
C194_8 C189_8 1_555 1_555
C183_8 C184_8 1_555 1_555
C191_8 C192_8 1_555 1_555
C192_8 C193_8 1_555 1_555
O30_2 C194_8 1_555 1_555
C194_8 O32_2 1_555 1_555
Zn25_2 O23_8 1_555 1_555
O23_8 C185_8 1_555 1_555
N55_4 N44_8 1_555 1_555
N42_8 Zn25_2 1_555 1_555
N60_4 N42_8 1_555 1_555
C171_8 C172_8 1_555 1_555
C172_8 N42_8 1_555 1_555
N44_8 H168_8 1_555 1_555
C173_8 N55_4 1_555 1_555
C174_8 C171_8 1_555 1_555
C175_8 N60_4 1_555 1_555
C176_8 C172_8 1_555 1_555
H169_8 C176_8 1_555 1_555
H170_8 C176_8 1_555 1_555
H171_8 C176_8 1_555 1_555
C177_8 N44_8 1_555 1_555
C178_8 C173_8 1_555 1_555
H172_8 C178_8 1_555 1_555
H173_8 C178_8 1_555 1_555
H174_8 C178_8 1_555 1_555
C179_8 H175_8 1_555 1_555
C180_8 C179_8 1_555 1_555
C181_8 C180_8 1_555 1_555
H176_8 C181_8 1_555 1_555
C185_8 C180_8 1_555 1_555
C186_8 C175_8 1_555 1_555
H179_8 C186_8 1_555 1_555
H180_8 C186_8 1_555 1_555
H181_8 C186_8 1_555 1_555
O24_8 C185_8 1_555 1_555
C187_8 C177_8 1_555 1_555
H182_8 C187_8 1_555 1_555
H183_8 C187_8 1_555 1_555
H184_8 C187_8 1_555 1_555
C171_8 C175_8 1_555 1_555
C173_8 C174_8 1_555 1_555
C174_8 C177_8 1_555 1_555
O7_4 H201_5 1_555 1_555
O7_2 H202_5 1_555 1_555
O7_3 H202_6 1_555 1_555
O7 H201_6 1_555 1_555
O24_7 H201_7 1_555 1_555
O24_5 H202_7 1_555 1_555
O24_6 H202_8 1_555 1_555
O24_8 H201_8 1_555 1_555
O24_2 H201_9 1_555 1_555
O24_4 H202_9 1_555 1_555
O24 H201_10 1_555 1_555
O24_3 H202_10 1_555 1_555
O16_3 H202_11 1_555 1_555
O16_2 H201_11 1_555 1_555
O16_4 H201_12 1_555 1_555
O16 H202_12 1_555 1_555

#END
