
###############################################################################
#
# This file contains modified crystal structure data generated from the
# MOF subset of the Cambridge Structural Database (CSD) v543 
# hosted by the Cambridge Crystallographic Data Centre (CCDC).
#
# This work is licensed under the Creative Commons
# Attribution-NonCommercial-ShareAlike 4.0 International License.
# To view a copy of this license, visit
# http://creativecommons.org/licenses/by-nc-sa/4.0/
# or send a letter to
# Creative Commons, PO Box 1866, Mountain View, CA 94042, USA.
#
# CIF created using the CSD Python API on 29 September 2022
# The structure has been converted into the P1 space group
# The structure has a 3D framework
# The original CSD entry LEJDOX is in the cubic crystal system
# The original CSD entry LEJDOX is in a Sohncke space group
# The framework has been calculated to contain at least 10.0% void space
# The void calculation uses a probe of radius 1.32A, grid spacing 0.4
# H atom positions have been added when not included in the experimental data
#
###############################################################################

data_LEJDOX
_chemical_formula_moiety         '(C768 H776 N192 O104 Zn57)n'
_symmetry_cell_setting           triclinic
_symmetry_space_group_name_H-M   'P 1'
_symmetry_Int_Tables_number      1
_space_group_name_Hall           'P 1'
loop_
_symmetry_equiv_pos_site_id
_symmetry_equiv_pos_as_xyz
1 x,y,z
_cell_length_a                   31.5208(3)
_cell_length_b                   31.5208(3)
_cell_length_c                   31.5208(3)
_cell_angle_alpha                90
_cell_angle_beta                 90
_cell_angle_gamma                90
_cell_volume                     31317.8
loop_
_atom_site_label
_atom_site_type_symbol
_atom_site_fract_x
_atom_site_fract_y
_atom_site_fract_z
H96 H 0.008233 0.300133 0.065072
H21 H 0.010118 0.366340 0.479894
H23 H 0.012902 0.415990 0.479084
Zn7 Zn 0.10847(4) 0.91418(4) 0.47336(3)
Zn8 Zn 0.12779(4) 0.61484(5) 0.48776(5)
O10 O 0.05940(19) 0.94060(19) 0.44060(19)
H64 H 0.041447 0.958553 0.458553
N17 N 0.05761(18) 0.8445(2) 0.4425(2)
N18 N 0.1124(2) 0.6680(3) 0.4614(2)
O11 O 0.1865(2) 0.6106(3) 0.5052(3)
N20 N 0.1141(2) 0.6741(3) 0.4205(4)
O12 O 0.4646(3) 0.6118(4) 0.5832(4)
C65 C 0.1056(3) 0.7076(5) 0.4766(4)
N21 N 0.0952(2) 0.8533(3) 0.4590(2)
N22 N 0.0894(2) 0.6048(3) 0.5400(3)
C66 C 0.1037(3) 0.7378(4) 0.4444(4)
C67 C 0.1073(3) 0.7178(3) 0.4098(4)
C68 C 0.0553(2) 0.8019(3) 0.4380(3)
C69 C 0.0148(4) 0.7840(3) 0.4233(5)
H66 H 0.012618 0.755043 0.432549
H67 H 0.013657 0.785045 0.392896
C70 C 0.1182(3) 0.8163(3) 0.4634(3)
C71 C 0.0913(3) 0.7840(3) 0.4511(3)
N24 N 0.1066(3) 0.5975(5) 0.5779(3)
H68 H 0.133126 0.599366 0.583969
C73 C 0.0373(4) 0.5918(5) 0.5811(4)
C74 C 0.0499(3) 0.6008(3) 0.5428(3)
C76 C 0.1090(5) 0.7351(4) 0.3649(3)
H69 H 0.131289 0.755814 0.362873
H70 H 0.082383 0.748188 0.358016
H71 H 0.114507 0.712361 0.345446
C77 C 0.0215(3) 0.6087(4) 0.5023(4)
H73 H 0.024348 0.585121 0.483152
H74 H 0.030560 0.634195 0.488313
C79 C 0.0997(5) 0.7134(4) 0.5256(3)
H78 H 0.075630 0.731243 0.530898
H79 H 0.124685 0.726209 0.537363
H80 H 0.095206 0.686172 0.538573
C80 C 0.0750(4) 0.5867(9) 0.6058(5)
C82 C 0.1618(4) 0.8145(4) 0.4792(4)
H81 H 0.181104 0.814024 0.455665
H82 H 0.165496 0.789266 0.495876
H83 H 0.167365 0.838962 0.496443
H85 H 0.020044 0.502921 0.607364
C84 C 0.0861(5) 0.5670(7) 0.6472(4)
H87 H 0.105983 0.544344 0.642644
H88 H 0.060978 0.555970 0.660332
H89 H 0.098700 0.587992 0.665345
C85 C 0.2732(2) 0.6047(3) 0.5237(3)
H90 H 0.260599 0.582684 0.508601
C86 C 0.2479(3) 0.6381(3) 0.5399(3)
C87 C 0.2671(3) 0.6717(3) 0.5629(3)
H91 H 0.250570 0.693689 0.573585
C88 C 0.3116(2) 0.6717(3) 0.5697(4)
H92 H 0.324210 0.693726 0.584827
C89 C 0.3369(2) 0.6383(3) 0.5535(2)
C90 C 0.3177(2) 0.6047(2) 0.5305(3)
C91 C 0.3430(3) 0.5711(3) 0.5143(4)
H93 H 0.330408 0.549110 0.499218
C92 C 0.3875(3) 0.5712(4) 0.5211(4)
H94 H 0.404065 0.549268 0.510456
C93 C 0.4067(3) 0.6048(3) 0.5441(3)
C94 C 0.3814(3) 0.6383(3) 0.5603(3)
H95 H 0.393982 0.660347 0.575364
C95 C 0.1998(4) 0.6371(3) 0.5318(3)
C96 C 0.4534(4) 0.6051(4) 0.5504(4)
O13 O 0.4692(5) 0.5977(8) 0.5147(5)
O14 O 0.1769(3) 0.6623(5) 0.5517(6)
N27 N 0.0731(3) 0.0950(3) 0.8859(3)
N31 N 0.0669(3) 0.0522(3) 0.8826(2)
C104 C 0.0353(4) 0.1122(5) 0.9001(5)
C107 C 0.0062(4) 0.0825(4) 0.9035(3)
H103 H 0.007633 0.111480 0.989354
C110 C 0.0345(4) 0.1635(5) 0.9039(5)
H106 H 0.048961 0.171989 0.929327
H107 H 0.005670 0.173141 0.904871
H108 H 0.048509 0.175635 0.879729
C113 C 0.0251(4) 0.0438(4) 0.8942(3)
C115 C 0.0104(5) 0.0028(5) 0.8921(6)
Zn18 Zn 0.08582(4) 0.97336(3) 0.39153(4)
Zn19 Zn 0.52664(3) 0.60847(4) 0.58582(4)
Zn20 Zn 0.02664(3) 0.89153(4) 0.41418(4)
Zn22 Zn 0.12915(4) 0.125000 0.87915(4)
Zn25 Zn 0.12085(4) 0.62915(4) 0.375000
Zn30 Zn 0.11484(5) 0.01224(5) 0.87221(4)
N50 N 0.1555(2) 0.9425(2) 0.44239(18)
O30 O 0.1118(4) 0.9168(4) 0.5354(3)
N64 N 0.1174(2) 0.5669(3) 0.4478(3)
H189 H 0.486905 0.571688 0.51624
H115 H 0.020106 0.989882 0.866340
H117 H 0.020916 0.987098 0.915990
H52 H 0.479894 0.010118 0.366340
H54 H 0.479084 0.012902 0.415990
Zn17 Zn 0.41418(4) 0.02664(3) 0.89153(4)
Zn9 Zn 0.89153(4) 0.41418(4) 0.02664(3)
Zn10 Zn 0.87221(4) 0.11484(5) 0.01224(5)
N25 N 0.94239(18) 0.3445(2) 0.0575(2)
N26 N 0.8876(2) 0.1680(3) 0.0386(2)
N28 N 0.8859(2) 0.1741(3) 0.0795(4)
C97 C 0.8944(3) 0.2076(5) 0.0234(4)
N29 N 0.9048(2) 0.3533(3) 0.0410(2)
C98 C 0.8963(3) 0.2378(4) 0.0556(4)
C99 C 0.8927(3) 0.2178(3) 0.0902(4)
C100 C 0.9447(2) 0.3019(3) 0.0620(3)
C101 C 0.9852(4) 0.2840(3) 0.0767(5)
H97 H 0.987382 0.255043 0.067451
H98 H 0.986343 0.285045 0.107104
C102 C 0.8818(3) 0.3163(3) 0.0366(3)
C103 C 0.9087(3) 0.2840(3) 0.0489(3)
C108 C 0.8910(5) 0.2351(4) 0.1351(3)
H100 H 0.868711 0.255814 0.137127
H101 H 0.917617 0.248188 0.141984
H102 H 0.885493 0.212361 0.154554
H104 H 0.975652 0.085121 0.016848
H105 H 0.969440 0.134195 0.011687
C114 C 0.8382(4) 0.3145(4) 0.0208(4)
H112 H 0.818896 0.314024 0.044335
H113 H 0.834504 0.289266 0.004124
H114 H 0.832635 0.338962 0.003557
H124 H 0.669592 0.049110 0.000782
H146 H 0.366340 0.479894 0.010118
H148 H 0.415990 0.479084 0.012902
Zn21 Zn 0.97336(3) 0.39153(4) 0.08582(4)
Zn26 Zn 0.87915(4) 0.12915(4) 0.125000
O27 O 0.94060(19) 0.44060(19) 0.05940(19)
N49 N 0.8445(2) 0.4425(2) 0.05761(18)
N63 N 0.8826(2) 0.0669(3) 0.0522(3)
Zn1 Zn 0.58582(4) 0.52664(3) 0.60847(4)
Zn2 Zn 0.87085(4) 0.625000 0.62085(4)
Zn3 Zn 0.88516(5) 0.51224(5) 0.62779(4)
O1 O 0.55940(19) 0.55940(19) 0.55940(19)
H1 H 0.541447 0.541447 0.541447
N1 N 0.6555(2) 0.5575(2) 0.55761(18)
N2 N 0.8320(3) 0.5386(2) 0.6124(2)
N3 N 0.9050(3) 0.3859(3) 0.4269(3)
O2 O 0.8894(3) 0.4948(3) 0.6865(2)
N4 N 0.8259(3) 0.5795(4) 0.6141(2)
O3 O 0.8882(4) 0.4168(4) 0.9646(3)
C1 C 0.7924(5) 0.5234(4) 0.6056(3)
N5 N 0.6467(3) 0.5410(2) 0.5952(2)
N6 N 0.8952(3) 0.4600(3) 0.5894(2)
C2 C 0.7622(4) 0.5556(4) 0.6037(3)
C3 C 0.7822(3) 0.5902(4) 0.6073(3)
N7 N 0.9478(3) 0.3826(2) 0.4331(3)
C4 C 0.6981(3) 0.5620(3) 0.5553(2)
C5 C 0.7160(3) 0.5767(5) 0.5148(4)
H2 H 0.699867 0.565072 0.491767
H3 H 0.744957 0.567451 0.512618
H4 H 0.714955 0.607104 0.513657
C6 C 0.6837(3) 0.5366(3) 0.6182(3)
C7 C 0.7160(3) 0.5489(3) 0.5913(3)
C8 C 0.8878(5) 0.4001(5) 0.4647(4)
N8 N 0.9025(5) 0.4221(3) 0.6066(3)
H5 H 0.900634 0.416031 0.633126
C9 C 0.9082(5) 0.4189(4) 0.5373(4)
C10 C 0.8992(3) 0.4572(3) 0.5499(3)
C11 C 0.9175(4) 0.4035(3) 0.4938(4)
C12 C 0.7649(4) 0.6351(3) 0.6090(5)
H6 H 0.744186 0.637127 0.631289
H7 H 0.751812 0.641984 0.582383
H8 H 0.787639 0.654554 0.614507
C13 C 0.8913(4) 0.4977(4) 0.5215(3)
H9 H 0.888520 0.489354 0.492367
H10 H 0.914879 0.516848 0.524348
H11 H 0.865805 0.511687 0.530560
C14 C 0.8365(5) 0.4039(5) 0.4655(4)
H12 H 0.828011 0.429327 0.451039
H13 H 0.826859 0.404871 0.494330
H14 H 0.824365 0.379729 0.451491
C15 C 0.7866(4) 0.4744(3) 0.5997(5)
H15 H 0.768757 0.469102 0.575630
H16 H 0.773791 0.462637 0.624685
H17 H 0.813828 0.461427 0.595206
C16 C 0.9133(9) 0.3942(5) 0.5750(4)
C17 C 0.9562(4) 0.3942(3) 0.4749(4)
C18 C 0.6855(4) 0.5208(4) 0.6618(4)
H18 H 0.685976 0.544335 0.681104
H19 H 0.710734 0.504124 0.665496
H20 H 0.661038 0.503557 0.667365
C19 C 0.9972(5) 0.3921(6) 0.4896(5)
H22 H 0.997079 0.392636 0.520044
C20 C 0.9330(7) 0.3528(4) 0.5861(5)
H24 H 0.955656 0.357356 0.605983
H25 H 0.944030 0.339668 0.560978
H26 H 0.912008 0.334655 0.598700
C21 C 0.8953(3) 0.4763(3) 0.7732(2)
H27 H 0.917316 0.491399 0.760599
C22 C 0.8619(3) 0.4601(3) 0.7479(3)
C23 C 0.8283(3) 0.4371(3) 0.7671(3)
H28 H 0.806311 0.426415 0.750570
C24 C 0.8283(3) 0.4303(4) 0.8116(2)
H29 H 0.806274 0.415173 0.824210
C25 C 0.8617(3) 0.4465(2) 0.8369(2)
C26 C 0.8953(2) 0.4695(3) 0.8177(2)
C27 C 0.9289(3) 0.4857(4) 0.8430(3)
H30 H 0.950890 0.500782 0.830408
C28 C 0.9288(4) 0.4789(4) 0.8875(3)
H31 H 0.950732 0.489544 0.904065
C29 C 0.8952(3) 0.4559(3) 0.9067(3)
C30 C 0.8617(3) 0.4397(3) 0.8814(3)
H32 H 0.839653 0.424636 0.893982
C31 C 0.8629(3) 0.4682(3) 0.6998(4)
C32 C 0.8949(4) 0.4496(4) 0.9534(4)
O4 O 0.9023(8) 0.4853(5) 0.9692(5)
O5 O 0.8377(5) 0.4483(6) 0.6769(3)
Zn4 Zn 0.60847(4) 0.58582(4) 0.52664(3)
Zn5 Zn 0.62085(4) 0.87085(4) 0.625000
Zn6 Zn 0.62779(4) 0.88516(5) 0.51224(5)
N9 N 0.55761(18) 0.6555(2) 0.5575(2)
N10 N 0.6124(2) 0.8320(3) 0.5386(2)
N11 N 0.4269(3) 0.9050(3) 0.3859(3)
O6 O 0.6865(2) 0.8894(3) 0.4948(3)
N12 N 0.6141(2) 0.8259(3) 0.5795(4)
O7 O 0.9646(3) 0.8882(4) 0.4168(4)
C33 C 0.6056(3) 0.7924(5) 0.5234(4)
N13 N 0.5952(2) 0.6467(3) 0.5410(2)
N14 N 0.5894(2) 0.8952(3) 0.4600(3)
C34 C 0.6037(3) 0.7622(4) 0.5556(4)
C35 C 0.6073(3) 0.7822(3) 0.5902(4)
N15 N 0.4331(3) 0.9478(3) 0.3826(2)
C36 C 0.5553(2) 0.6981(3) 0.5620(3)
C37 C 0.5148(4) 0.7160(3) 0.5767(5)
H33 H 0.491767 0.699867 0.565072
H34 H 0.512618 0.744957 0.567451
H35 H 0.513657 0.714955 0.607104
C38 C 0.6182(3) 0.6837(3) 0.5366(3)
C39 C 0.5913(3) 0.7160(3) 0.5489(3)
C40 C 0.4647(4) 0.8878(5) 0.4001(5)
N16 N 0.6066(3) 0.9025(5) 0.4221(3)
H36 H 0.633126 0.900634 0.416031
C41 C 0.5373(4) 0.9082(5) 0.4189(4)
C42 C 0.5499(3) 0.8992(3) 0.4572(3)
C43 C 0.4938(4) 0.9175(4) 0.4035(3)
C44 C 0.6090(5) 0.7649(4) 0.6351(3)
H37 H 0.631289 0.744186 0.637127
H38 H 0.582383 0.751812 0.641984
H39 H 0.614507 0.787639 0.654554
C45 C 0.5215(3) 0.8913(4) 0.4977(4)
H40 H 0.492367 0.888520 0.489354
H41 H 0.524348 0.914879 0.516848
H42 H 0.530560 0.865805 0.511687
C46 C 0.4655(4) 0.8365(5) 0.4039(5)
H43 H 0.451039 0.828011 0.429327
H44 H 0.494330 0.826859 0.404871
H45 H 0.451491 0.824365 0.379729
C47 C 0.5997(5) 0.7866(4) 0.4744(3)
H46 H 0.575630 0.768757 0.469102
H47 H 0.624685 0.773791 0.462637
H48 H 0.595206 0.813828 0.461427
C48 C 0.5750(4) 0.9133(9) 0.3942(5)
C49 C 0.4749(4) 0.9562(4) 0.3942(3)
C50 C 0.6618(4) 0.6855(4) 0.5208(4)
H49 H 0.681104 0.685976 0.544335
H50 H 0.665496 0.710734 0.504124
H51 H 0.667365 0.661038 0.503557
C51 C 0.4896(5) 0.9972(5) 0.3921(6)
H53 H 0.520044 0.997079 0.392636
C52 C 0.5861(5) 0.9330(7) 0.3528(4)
H55 H 0.605983 0.955656 0.357356
H56 H 0.560978 0.944030 0.339668
H57 H 0.598700 0.912008 0.334655
C53 C 0.7732(2) 0.8953(3) 0.4763(3)
H58 H 0.760599 0.917316 0.491399
C54 C 0.7479(3) 0.8619(3) 0.4601(3)
C55 C 0.7671(3) 0.8283(3) 0.4371(3)
H59 H 0.750570 0.806311 0.426415
C56 C 0.8116(2) 0.8283(3) 0.4303(4)
H60 H 0.824210 0.806274 0.415173
C57 C 0.8369(2) 0.8617(3) 0.4465(2)
C58 C 0.8177(2) 0.8953(2) 0.4695(3)
C59 C 0.8430(3) 0.9289(3) 0.4857(4)
H61 H 0.830408 0.950890 0.500782
C60 C 0.8875(3) 0.9288(4) 0.4789(4)
H62 H 0.904065 0.950732 0.489544
C61 C 0.9067(3) 0.8952(3) 0.4559(3)
C62 C 0.8814(3) 0.8617(3) 0.4397(3)
H63 H 0.893982 0.839653 0.424636
C63 C 0.6998(4) 0.8629(3) 0.4682(3)
C64 C 0.9534(4) 0.8949(4) 0.4496(4)
O8 O 0.9692(5) 0.9023(8) 0.4853(5)
O9 O 0.6769(3) 0.8377(5) 0.4483(6)
N19 N 0.9269(3) 0.5950(3) 0.6141(3)
N23 N 0.9331(3) 0.5522(3) 0.6174(2)
H65 H 0.991767 0.800133 0.434928
C72 C 0.9647(4) 0.6122(5) 0.5999(5)
C75 C 0.9938(4) 0.5825(4) 0.5965(3)
H72 H 0.992367 0.611480 0.510646
C78 C 0.9655(4) 0.6635(5) 0.5961(5)
H75 H 0.951039 0.671989 0.570673
H76 H 0.994330 0.673141 0.595129
H77 H 0.951491 0.675635 0.620271
C81 C 0.9749(4) 0.5438(4) 0.6058(3)
C83 C 0.9896(5) 0.5028(5) 0.6079(6)
H84 H 0.979894 0.489882 0.633660
H86 H 0.979084 0.487098 0.584010
O15 O 0.8135(2) 0.1106(3) 0.9948(3)
O16 O 0.5354(3) 0.1118(4) 0.9168(4)
N30 N 0.9106(2) 0.1048(3) 0.9600(3)
N32 N 0.8934(3) 0.0975(5) 0.9221(3)
H99 H 0.866874 0.099366 0.916031
C105 C 0.9627(4) 0.0918(5) 0.9189(4)
C106 C 0.9501(3) 0.1008(3) 0.9572(3)
C109 C 0.9785(3) 0.1087(4) 0.9977(4)
C111 C 0.9003(5) 0.2134(4) 0.9744(3)
H109 H 0.924370 0.231243 0.969102
H110 H 0.875315 0.226209 0.962637
H111 H 0.904794 0.186172 0.961427
C112 C 0.9250(4) 0.0867(9) 0.8942(5)
H116 H 0.979956 0.002921 0.892636
C116 C 0.9139(5) 0.0670(7) 0.8528(4)
H118 H 0.894017 0.044344 0.857356
H119 H 0.939022 0.055970 0.839668
H120 H 0.901300 0.087992 0.834655
C117 C 0.7268(2) 0.1047(3) 0.9763(3)
H121 H 0.739401 0.082684 0.991399
C118 C 0.7521(3) 0.1381(3) 0.9601(3)
C119 C 0.7329(3) 0.1717(3) 0.9371(3)
H122 H 0.749430 0.193689 0.926415
C120 C 0.6884(2) 0.1717(3) 0.9303(4)
H123 H 0.675790 0.193726 0.915173
C121 C 0.6631(2) 0.1383(3) 0.9465(2)
C122 C 0.6823(2) 0.1047(2) 0.9695(3)
C123 C 0.6570(3) 0.0711(3) 0.9857(4)
C124 C 0.6125(3) 0.0712(4) 0.9789(4)
H125 H 0.595935 0.049268 0.989544
C125 C 0.5933(3) 0.1048(3) 0.9559(3)
C126 C 0.6186(3) 0.1383(3) 0.9397(3)
H126 H 0.606018 0.160347 0.924636
C127 C 0.8002(4) 0.1371(3) 0.9682(3)
C128 C 0.5466(4) 0.1051(4) 0.9496(4)
O17 O 0.5308(5) 0.0977(8) 0.9853(5)
O18 O 0.8231(3) 0.1623(5) 0.9483(6)
Zn12 Zn 0.51224(5) 0.62779(4) 0.88516(5)
N33 N 0.5575(2) 0.55761(18) 0.6555(2)
N34 N 0.5386(2) 0.6124(2) 0.8320(3)
N35 N 0.3859(3) 0.4269(3) 0.9050(3)
O19 O 0.4948(3) 0.6865(2) 0.8894(3)
N36 N 0.5795(4) 0.6141(2) 0.8259(3)
O20 O 0.4168(4) 0.9646(3) 0.8882(4)
C129 C 0.5234(4) 0.6056(3) 0.7924(5)
N37 N 0.5410(2) 0.5952(2) 0.6467(3)
N38 N 0.4600(3) 0.5894(2) 0.8952(3)
C130 C 0.5556(4) 0.6037(3) 0.7622(4)
C131 C 0.5902(4) 0.6073(3) 0.7822(3)
N39 N 0.3826(2) 0.4331(3) 0.9478(3)
C132 C 0.5620(3) 0.5553(2) 0.6981(3)
C133 C 0.5767(5) 0.5148(4) 0.7160(3)
H127 H 0.565072 0.491767 0.699867
H128 H 0.567451 0.512618 0.744957
H129 H 0.607104 0.513657 0.714955
C134 C 0.5366(3) 0.6182(3) 0.6837(3)
C135 C 0.5489(3) 0.5913(3) 0.7160(3)
C136 C 0.4001(5) 0.4647(4) 0.8878(5)
N40 N 0.4221(3) 0.6066(3) 0.9025(5)
H130 H 0.416031 0.633126 0.900634
C137 C 0.4189(4) 0.5373(4) 0.9082(5)
C138 C 0.4572(3) 0.5499(3) 0.8992(3)
C139 C 0.4035(3) 0.4938(4) 0.9175(4)
C140 C 0.6351(3) 0.6090(5) 0.7649(4)
H131 H 0.637127 0.631289 0.744186
H132 H 0.641984 0.582383 0.751812
H133 H 0.654554 0.614507 0.787639
C141 C 0.4977(4) 0.5215(3) 0.8913(4)
H134 H 0.489354 0.492367 0.888520
H135 H 0.516848 0.524348 0.914879
H136 H 0.511687 0.530560 0.865805
C142 C 0.4039(5) 0.4655(4) 0.8365(5)
H137 H 0.429327 0.451039 0.828011
H138 H 0.404871 0.494330 0.826859
H139 H 0.379729 0.451491 0.824365
C143 C 0.4744(3) 0.5997(5) 0.7866(4)
H140 H 0.469102 0.575630 0.768757
H141 H 0.462637 0.624685 0.773791
H142 H 0.461427 0.595206 0.813828
C144 C 0.3942(5) 0.5750(4) 0.9133(9)
C145 C 0.3942(3) 0.4749(4) 0.9562(4)
C146 C 0.5208(4) 0.6618(4) 0.6855(4)
H143 H 0.544335 0.681104 0.685976
H144 H 0.504124 0.665496 0.710734
H145 H 0.503557 0.667365 0.661038
C147 C 0.3921(6) 0.4896(5) 0.9972(5)
H147 H 0.392636 0.520044 0.997079
C148 C 0.3528(4) 0.5861(5) 0.9330(7)
H149 H 0.357356 0.605983 0.955656
H150 H 0.339668 0.560978 0.944030
H151 H 0.334655 0.598700 0.912008
C149 C 0.4763(3) 0.7732(2) 0.8953(3)
H152 H 0.491399 0.760599 0.917316
C150 C 0.4601(3) 0.7479(3) 0.8619(3)
C151 C 0.4371(3) 0.7671(3) 0.8283(3)
H153 H 0.426415 0.750570 0.806311
C152 C 0.4303(4) 0.8116(2) 0.8283(3)
H154 H 0.415173 0.824210 0.806274
C153 C 0.4465(2) 0.8369(2) 0.8617(3)
C154 C 0.4695(3) 0.8177(2) 0.8953(2)
C155 C 0.4857(4) 0.8430(3) 0.9289(3)
H155 H 0.500782 0.830408 0.950890
C156 C 0.4789(4) 0.8875(3) 0.9288(4)
H156 H 0.489544 0.904065 0.950732
C157 C 0.4559(3) 0.9067(3) 0.8952(3)
C158 C 0.4397(3) 0.8814(3) 0.8617(3)
H157 H 0.424636 0.893982 0.839653
C159 C 0.4682(3) 0.6998(4) 0.8629(3)
C160 C 0.4496(4) 0.9534(4) 0.8949(4)
O21 O 0.4853(5) 0.9692(5) 0.9023(8)
O22 O 0.4483(6) 0.6769(3) 0.8377(5)
Zn13 Zn 0.47336(3) 0.10847(4) 0.91418(4)
Zn14 Zn 0.48776(5) 0.12779(4) 0.61484(5)
N41 N 0.4425(2) 0.05761(18) 0.8445(2)
N42 N 0.4614(2) 0.1124(2) 0.6680(3)
O23 O 0.5052(3) 0.1865(2) 0.6106(3)
N44 N 0.4205(4) 0.1141(2) 0.6741(3)
O24 O 0.5832(4) 0.4646(3) 0.6118(4)
C161 C 0.4766(4) 0.1056(3) 0.7076(5)
N45 N 0.4590(2) 0.0952(2) 0.8533(3)
N46 N 0.5400(3) 0.0894(2) 0.6048(3)
C162 C 0.4444(4) 0.1037(3) 0.7378(4)
C163 C 0.4098(4) 0.1073(3) 0.7178(3)
C164 C 0.4380(3) 0.0553(2) 0.8019(3)
C165 C 0.4233(5) 0.0148(4) 0.7840(3)
H159 H 0.432549 0.012618 0.755043
H160 H 0.392896 0.013657 0.785045
C166 C 0.4634(3) 0.1182(3) 0.8163(3)
C167 C 0.4511(3) 0.0913(3) 0.7840(3)
N48 N 0.5779(3) 0.1066(3) 0.5975(5)
H161 H 0.583969 0.133126 0.599366
C169 C 0.5811(4) 0.0373(4) 0.5918(5)
C170 C 0.5428(3) 0.0499(3) 0.6008(3)
C172 C 0.3649(3) 0.1090(5) 0.7351(4)
H162 H 0.362873 0.131289 0.755814
H163 H 0.358016 0.082383 0.748188
H164 H 0.345446 0.114507 0.712361
C173 C 0.5023(4) 0.0215(3) 0.6087(4)
H166 H 0.483152 0.024348 0.585121
H167 H 0.488313 0.030560 0.634195
C175 C 0.5256(3) 0.0997(5) 0.7134(4)
H171 H 0.530898 0.075630 0.731243
H172 H 0.537363 0.124685 0.726209
H173 H 0.538573 0.095206 0.686172
C176 C 0.6058(5) 0.0750(4) 0.5867(9)
C178 C 0.4792(4) 0.1618(4) 0.8145(4)
H174 H 0.455665 0.181104 0.814024
H175 H 0.495876 0.165496 0.789266
H176 H 0.496443 0.167365 0.838962
H178 H 0.607364 0.020044 0.502921
C180 C 0.6472(4) 0.0861(5) 0.5670(7)
H180 H 0.642644 0.105983 0.544344
H181 H 0.660332 0.060978 0.555970
H182 H 0.665345 0.098700 0.587992
C181 C 0.5237(3) 0.2732(2) 0.6047(3)
H183 H 0.508601 0.260599 0.582684
C182 C 0.5399(3) 0.2479(3) 0.6381(3)
C183 C 0.5629(3) 0.2671(3) 0.6717(3)
H184 H 0.573585 0.250570 0.693689
C184 C 0.5697(4) 0.3116(2) 0.6717(3)
H185 H 0.584827 0.324210 0.693726
C185 C 0.5535(2) 0.3369(2) 0.6383(3)
C186 C 0.5305(3) 0.3177(2) 0.6047(2)
C187 C 0.5143(4) 0.3430(3) 0.5711(3)
H186 H 0.499218 0.330408 0.549110
C188 C 0.5211(4) 0.3875(3) 0.5712(4)
H187 H 0.510456 0.404065 0.549268
C189 C 0.5441(3) 0.4067(3) 0.6048(3)
C190 C 0.5603(3) 0.3814(3) 0.6383(3)
H188 H 0.575364 0.393982 0.660347
C191 C 0.5318(3) 0.1998(4) 0.6371(3)
C192 C 0.5504(4) 0.4534(4) 0.6051(4)
O25 O 0.5147(5) 0.4692(5) 0.5977(8)
O26 O 0.5517(6) 0.1769(3) 0.6623(5)
Zn15 Zn 0.875000 0.37915(4) 0.37085(4)
Zn23 Zn 0.37085(4) 0.875000 0.37915(4)
Zn27 Zn 0.37915(4) 0.37085(4) 0.875000
Zn28 Zn 0.625000 0.62085(4) 0.87085(4)
Zn29 Zn 0.375000 0.12085(4) 0.62915(4)
Zn31 Zn 0.38516(5) 0.98776(5) 0.37221(4)
Zn33 Zn 0.37221(4) 0.38516(5) 0.98776(5)
Zn34 Zn 0.98776(5) 0.37221(4) 0.38516(5)
O28 O 0.44060(19) 0.05940(19) 0.94060(19)
N51 N 0.44239(18) 0.1555(2) 0.9425(2)
N52 N 0.6141(3) 0.9269(3) 0.5950(3)
N53 N 0.8641(3) 0.6550(3) 0.6769(3)
N54 N 0.8450(3) 0.3231(3) 0.3641(3)
N55 N 0.6769(3) 0.8641(3) 0.6550(3)
N56 N 0.9205(4) 0.3859(2) 0.3259(3)
N57 N 0.8295(4) 0.4241(3) 0.3641(2)
N58 N 0.5759(3) 0.8641(2) 0.6705(4)
N59 N 0.8641(2) 0.6705(4) 0.5759(3)
O29 O 0.6118(4) 0.5832(4) 0.4646(3)
N60 N 0.5522(3) 0.6174(2) 0.9331(3)
N61 N 0.4478(3) 0.1174(2) 0.5669(3)
N62 N 0.6174(2) 0.9331(3) 0.5522(3)
H190 H 0.48376 0.986905 0.928312
H158 H 0.434928 0.991767 0.800133
C168 C 0.5999(5) 0.9647(4) 0.6122(5)
C171 C 0.5965(3) 0.9938(4) 0.5825(4)
H165 H 0.510646 0.992367 0.611480
C174 C 0.5961(5) 0.9655(4) 0.6635(5)
H168 H 0.570673 0.951039 0.671989
H169 H 0.595129 0.994330 0.673141
H170 H 0.620271 0.951491 0.675635
C177 C 0.6058(3) 0.9749(4) 0.5438(4)
C179 C 0.6079(6) 0.9896(5) 0.5028(5)
H177 H 0.633660 0.979894 0.489882
H179 H 0.584010 0.979084 0.487098
H158_2 H 0.065072 0.008233 0.300133
N35_2 N 0.1141(3) 0.5731(3) 0.4050(3)
O19_2 O 0.0052(3) 0.3135(2) 0.3894(3)
O20_2 O 0.0832(4) 0.0354(3) 0.3882(4)
N38_2 N 0.0400(3) 0.4106(2) 0.3952(3)
C136_2 C 0.0999(5) 0.5353(4) 0.3878(5)
N40_2 N 0.0779(3) 0.3934(3) 0.4025(5)
H130_2 H 0.083969 0.366874 0.400634
C137_2 C 0.0811(4) 0.4627(4) 0.4082(5)
C138_2 C 0.0428(3) 0.4501(3) 0.3992(3)
C139_2 C 0.0965(3) 0.5062(4) 0.4175(4)
C141_2 C 0.0023(4) 0.4785(3) 0.3913(4)
H134_2 H 0.010646 0.507633 0.388520
C142_2 C 0.0961(5) 0.5345(4) 0.3365(5)
H137_2 H 0.070673 0.548961 0.328011
H138_2 H 0.095129 0.505670 0.326859
H139_2 H 0.120271 0.548509 0.324365
C143_2 C 0.0256(3) 0.4003(5) 0.2866(4)
H140_2 H 0.030898 0.424370 0.268757
H141_2 H 0.037363 0.375315 0.273791
H142_2 H 0.038573 0.404794 0.313828
C144_2 C 0.1058(5) 0.4250(4) 0.4133(9)
C145_2 C 0.1058(3) 0.5251(4) 0.4562(4)
C147_2 C 0.1079(6) 0.5104(5) 0.4972(5)
H146_2 H 0.133660 0.520106 0.510118
H147_2 H 0.107364 0.479956 0.497079
H148_2 H 0.084010 0.520916 0.512902
C148_2 C 0.1472(4) 0.4139(5) 0.4330(7)
H149_2 H 0.142644 0.394017 0.455656
H150_2 H 0.160332 0.439022 0.444030
H151_2 H 0.165345 0.401300 0.412008
C149_2 C 0.0237(3) 0.2268(2) 0.3953(3)
H152_2 H 0.008601 0.239401 0.417316
C150_2 C 0.0399(3) 0.2521(3) 0.3619(3)
C151_2 C 0.0629(3) 0.2329(3) 0.3283(3)
H153_2 H 0.073585 0.249430 0.306311
C152_2 C 0.0697(4) 0.1884(2) 0.3283(3)
H154_2 H 0.084827 0.175790 0.306274
C153_2 C 0.0535(2) 0.1631(2) 0.3617(3)
C154_2 C 0.0305(3) 0.1823(2) 0.3953(2)
C155_2 C 0.0143(4) 0.1570(3) 0.4289(3)
C156_2 C 0.0211(4) 0.1125(3) 0.4288(4)
H156_2 H 0.010456 0.095935 0.450732
C157_2 C 0.0441(3) 0.0933(3) 0.3952(3)
C158_2 C 0.0603(3) 0.1186(3) 0.3617(3)
H157_2 H 0.075364 0.106018 0.339653
C159_2 C 0.0318(3) 0.3002(4) 0.3629(3)
C160_2 C 0.0504(4) 0.0466(4) 0.3949(4)
O21_2 O 0.0147(5) 0.0308(5) 0.4023(8)
O22_2 O 0.0517(6) 0.3231(3) 0.3377(5)
Zn14_2 Zn 0.01224(5) 0.87221(4) 0.11484(5)
N41_2 N 0.0575(2) 0.94239(18) 0.3445(2)
N42_2 N 0.0386(2) 0.8876(2) 0.1680(3)
N44_2 N 0.0795(4) 0.8859(2) 0.1741(3)
C161_2 C 0.0234(4) 0.8944(3) 0.2076(5)
N45_2 N 0.0410(2) 0.9048(2) 0.3533(3)
C162_2 C 0.0556(4) 0.8963(3) 0.2378(4)
C163_2 C 0.0902(4) 0.8927(3) 0.2178(3)
C164_2 C 0.0620(3) 0.9447(2) 0.3019(3)
C165_2 C 0.0767(5) 0.9852(4) 0.2840(3)
H159_2 H 0.067451 0.987382 0.255043
H160_2 H 0.107104 0.986343 0.285045
C166_2 C 0.0366(3) 0.8818(3) 0.3163(3)
C167_2 C 0.0489(3) 0.9087(3) 0.2840(3)
C172_2 C 0.1351(3) 0.8910(5) 0.2351(4)
H162_2 H 0.137127 0.868711 0.255814
H163_2 H 0.141984 0.917617 0.248188
H164_2 H 0.154554 0.885493 0.212361
H166_2 H 0.016848 0.975652 0.085121
H167_2 H 0.011687 0.969440 0.134195
C178_2 C 0.0208(4) 0.8382(4) 0.3145(4)
H174_2 H 0.044335 0.818896 0.314024
H175_2 H 0.004124 0.834504 0.289266
H176_2 H 0.003557 0.832635 0.338962
H186_2 H 0.000782 0.669592 0.049110
Zn29_2 Zn 0.125000 0.87915(4) 0.12915(4)
O31 O 0.0354(3) 0.3882(4) 0.0832(4)
N61_2 N 0.0522(3) 0.8826(2) 0.0669(3)
H190_2 H 0.0162395 0.0130953 0.428312
N43 N 0.8859(3) 0.0731(3) 0.0950(3)
C168_2 C 0.9001(5) 0.0353(4) 0.1122(5)
C171_2 C 0.9035(3) 0.0062(4) 0.0825(4)
H165_2 H 0.989354 0.007633 0.111480
C174_2 C 0.9039(5) 0.0345(4) 0.1635(5)
H168_2 H 0.929327 0.048961 0.171989
H169_2 H 0.904871 0.005670 0.173141
H170_2 H 0.879729 0.048509 0.175635
C177_2 C 0.8942(3) 0.0251(4) 0.0438(4)
C179_2 C 0.8921(6) 0.0104(5) 0.0028(5)
H177_2 H 0.866340 0.020106 0.989882
H179_2 H 0.915990 0.020916 0.987098
Zn1_2 Zn 0.91418(4) 0.47336(3) 0.10847(4)
Zn2_2 Zn 0.62915(4) 0.375000 0.12085(4)
Zn3_2 Zn 0.61484(5) 0.48776(5) 0.12779(4)
H1_2 H 0.958553 0.458553 0.041447
N2_2 N 0.6680(3) 0.4614(2) 0.1124(2)
O2_2 O 0.6106(3) 0.5052(3) 0.1865(2)
N4_2 N 0.6741(3) 0.4205(4) 0.1141(2)
C1_2 C 0.7076(5) 0.4766(4) 0.1056(3)
N5_2 N 0.8533(3) 0.4590(2) 0.0952(2)
N6_2 N 0.6048(3) 0.5400(3) 0.0894(2)
C2_2 C 0.7378(4) 0.4444(4) 0.1037(3)
C3_2 C 0.7178(3) 0.4098(4) 0.1073(3)
C4_2 C 0.8019(3) 0.4380(3) 0.0553(2)
C5_2 C 0.7840(3) 0.4233(5) 0.0148(4)
H3_2 H 0.755043 0.432549 0.012618
H4_2 H 0.785045 0.392896 0.013657
C6_2 C 0.8163(3) 0.4634(3) 0.1182(3)
C7_2 C 0.7840(3) 0.4511(3) 0.0913(3)
N8_2 N 0.5975(5) 0.5779(3) 0.1066(3)
H5_2 H 0.599366 0.583969 0.133126
C9_2 C 0.5918(5) 0.5811(4) 0.0373(4)
C10_2 C 0.6008(3) 0.5428(3) 0.0499(3)
C12_2 C 0.7351(4) 0.3649(3) 0.1090(5)
H6_2 H 0.755814 0.362873 0.131289
H7_2 H 0.748188 0.358016 0.082383
H8_2 H 0.712361 0.345446 0.114507
C13_2 C 0.6087(4) 0.5023(4) 0.0215(3)
H10_2 H 0.585121 0.483152 0.024348
H11_2 H 0.634195 0.488313 0.030560
C15_2 C 0.7134(4) 0.5256(3) 0.0997(5)
H15_2 H 0.731243 0.530898 0.075630
H16_2 H 0.726209 0.537363 0.124685
H17_2 H 0.686172 0.538573 0.095206
C16_2 C 0.5867(9) 0.6058(5) 0.0750(4)
C18_2 C 0.8145(4) 0.4792(4) 0.1618(4)
H18_2 H 0.814024 0.455665 0.181104
H19_2 H 0.789266 0.495876 0.165496
H20_2 H 0.838962 0.496443 0.167365
H22_2 H 0.502921 0.607364 0.020044
C20_2 C 0.5670(7) 0.6472(4) 0.0861(5)
H24_2 H 0.544344 0.642644 0.105983
H25_2 H 0.555970 0.660332 0.060978
H26_2 H 0.587992 0.665345 0.098700
C21_2 C 0.6047(3) 0.5237(3) 0.2732(2)
H27_2 H 0.582684 0.508601 0.260599
C22_2 C 0.6381(3) 0.5399(3) 0.2479(3)
C23_2 C 0.6717(3) 0.5629(3) 0.2671(3)
H28_2 H 0.693689 0.573585 0.250570
C24_2 C 0.6717(3) 0.5697(4) 0.3116(2)
H29_2 H 0.693726 0.584827 0.324210
C25_2 C 0.6383(3) 0.5535(2) 0.3369(2)
C26_2 C 0.6047(2) 0.5305(3) 0.3177(2)
C27_2 C 0.5711(3) 0.5143(4) 0.3430(3)
H30_2 H 0.549110 0.499218 0.330408
C28_2 C 0.5712(4) 0.5211(4) 0.3875(3)
H31_2 H 0.549268 0.510456 0.404065
C29_2 C 0.6048(3) 0.5441(3) 0.4067(3)
C30_2 C 0.6383(3) 0.5603(3) 0.3814(3)
H32_2 H 0.660347 0.575364 0.393982
C31_2 C 0.6371(3) 0.5318(3) 0.1998(4)
C32_2 C 0.6051(4) 0.5504(4) 0.4534(4)
O4_2 O 0.5977(8) 0.5147(5) 0.4692(5)
O5_2 O 0.6623(5) 0.5517(6) 0.1769(3)
N19_2 N 0.5731(3) 0.4050(3) 0.1141(3)
O11_2 O 0.3135(2) 0.3894(3) 0.0052(3)
N22_2 N 0.4106(2) 0.3952(3) 0.0400(3)
N23_2 N 0.5669(3) 0.4478(3) 0.1174(2)
C72_2 C 0.5353(4) 0.3878(5) 0.0999(5)
N24_2 N 0.3934(3) 0.4025(5) 0.0779(3)
H68_2 H 0.366874 0.400634 0.083969
C73_2 C 0.4627(4) 0.4082(5) 0.0811(4)
C74_2 C 0.4501(3) 0.3992(3) 0.0428(3)
C75_2 C 0.5062(4) 0.4175(4) 0.0965(3)
C77_2 C 0.4785(3) 0.3913(4) 0.0023(4)
H72_2 H 0.507633 0.388520 0.010646
C78_2 C 0.5345(4) 0.3365(5) 0.0961(5)
H75_2 H 0.548961 0.328011 0.070673
H76_2 H 0.505670 0.326859 0.095129
H77_2 H 0.548509 0.324365 0.120271
C79_2 C 0.4003(5) 0.2866(4) 0.0256(3)
H78_2 H 0.424370 0.268757 0.030898
H79_2 H 0.375315 0.273791 0.037363
H80_2 H 0.404794 0.313828 0.038573
C80_2 C 0.4250(4) 0.4133(9) 0.1058(5)
C81_2 C 0.5251(4) 0.4562(4) 0.1058(3)
C83_2 C 0.5104(5) 0.4972(5) 0.1079(6)
H84_2 H 0.520106 0.510118 0.133660
H85_2 H 0.479956 0.497079 0.107364
H86_2 H 0.520916 0.512902 0.084010
C84_2 C 0.4139(5) 0.4330(7) 0.1472(4)
H87_2 H 0.394017 0.455656 0.142644
H88_2 H 0.439022 0.444030 0.160332
H89_2 H 0.401300 0.412008 0.165345
C85_2 C 0.2268(2) 0.3953(3) 0.0237(3)
H90_2 H 0.239401 0.417316 0.008601
C86_2 C 0.2521(3) 0.3619(3) 0.0399(3)
C87_2 C 0.2329(3) 0.3283(3) 0.0629(3)
H91_2 H 0.249430 0.306311 0.073585
C88_2 C 0.1884(2) 0.3283(3) 0.0697(4)
H92_2 H 0.175790 0.306274 0.084827
C89_2 C 0.1631(2) 0.3617(3) 0.0535(2)
C90_2 C 0.1823(2) 0.3953(2) 0.0305(3)
C91_2 C 0.1570(3) 0.4289(3) 0.0143(4)
C92_2 C 0.1125(3) 0.4288(4) 0.0211(4)
H94_2 H 0.095935 0.450732 0.010456
C93_2 C 0.0933(3) 0.3952(3) 0.0441(3)
C94_2 C 0.1186(3) 0.3617(3) 0.0603(3)
H95_2 H 0.106018 0.339653 0.075364
C95_2 C 0.3002(4) 0.3629(3) 0.0318(3)
C96_2 C 0.0466(4) 0.3949(4) 0.0504(4)
O13_2 O 0.0308(5) 0.4023(8) 0.0147(5)
O14_2 O 0.3231(3) 0.3377(5) 0.0517(6)
N33_2 N 0.9425(2) 0.44239(18) 0.1555(2)
N34_2 N 0.9614(2) 0.3876(2) 0.3320(3)
C129_2 C 0.9766(4) 0.3944(3) 0.2924(5)
N37_2 N 0.9590(2) 0.4048(2) 0.1467(3)
C130_2 C 0.9444(4) 0.3963(3) 0.2622(4)
C131_2 C 0.9098(4) 0.3927(3) 0.2822(3)
C132_2 C 0.9380(3) 0.4447(2) 0.1981(3)
C133_2 C 0.9233(5) 0.4852(4) 0.2160(3)
H127_2 H 0.934928 0.508233 0.199867
H128_2 H 0.932549 0.487382 0.244957
H129_2 H 0.892896 0.486343 0.214955
C134_2 C 0.9634(3) 0.3818(3) 0.1837(3)
C135_2 C 0.9511(3) 0.4087(3) 0.2160(3)
C140_2 C 0.8649(3) 0.3910(5) 0.2649(4)
H131_2 H 0.862873 0.368711 0.244186
H132_2 H 0.858016 0.417617 0.251812
H133_2 H 0.845446 0.385493 0.287639
H135_2 H 0.983152 0.475652 0.414879
H136_2 H 0.988313 0.469440 0.365805
C146_2 C 0.9792(4) 0.3382(4) 0.1855(4)
H143_2 H 0.955665 0.318896 0.185976
H144_2 H 0.995876 0.334504 0.210734
H145_2 H 0.996443 0.332635 0.161038
H155_2 H 0.999218 0.169592 0.450890
O23_2 O 0.9948(3) 0.8135(2) 0.1106(3)
O24_2 O 0.9168(4) 0.5354(3) 0.1118(4)
N46_2 N 0.9600(3) 0.9106(2) 0.1048(3)
N48_2 N 0.9221(3) 0.8934(3) 0.0975(5)
H161_2 H 0.916031 0.866874 0.099366
C169_2 C 0.9189(4) 0.9627(4) 0.0918(5)
C170_2 C 0.9572(3) 0.9501(3) 0.1008(3)
C173_2 C 0.9977(4) 0.9785(3) 0.1087(4)
C175_2 C 0.9744(3) 0.9003(5) 0.2134(4)
H171_2 H 0.969102 0.924370 0.231243
H172_2 H 0.962637 0.875315 0.226209
H173_2 H 0.961427 0.904794 0.186172
C176_2 C 0.8942(5) 0.9250(4) 0.0867(9)
H178_2 H 0.892636 0.979956 0.002921
C180_2 C 0.8528(4) 0.9139(5) 0.0670(7)
H180_2 H 0.857356 0.894017 0.044344
H181_2 H 0.839668 0.939022 0.055970
H182_2 H 0.834655 0.901300 0.087992
C181_2 C 0.9763(3) 0.7268(2) 0.1047(3)
H183_2 H 0.991399 0.739401 0.082684
C182_2 C 0.9601(3) 0.7521(3) 0.1381(3)
C183_2 C 0.9371(3) 0.7329(3) 0.1717(3)
H184_2 H 0.926415 0.749430 0.193689
C184_2 C 0.9303(4) 0.6884(2) 0.1717(3)
H185_2 H 0.915173 0.675790 0.193726
C185_2 C 0.9465(2) 0.6631(2) 0.1383(3)
C186_2 C 0.9695(3) 0.6823(2) 0.1047(2)
C187_2 C 0.9857(4) 0.6570(3) 0.0711(3)
C188_2 C 0.9789(4) 0.6125(3) 0.0712(4)
H187_2 H 0.989544 0.595935 0.049268
C189_2 C 0.9559(3) 0.5933(3) 0.1048(3)
C190_2 C 0.9397(3) 0.6186(3) 0.1383(3)
H188_2 H 0.924636 0.606018 0.160347
C191_2 C 0.9682(3) 0.8002(4) 0.1371(3)
C192_2 C 0.9496(4) 0.5466(4) 0.1051(4)
O25_2 O 0.9853(5) 0.5308(5) 0.0977(8)
O26_2 O 0.9483(6) 0.8231(3) 0.1623(5)
N53_2 N 0.6359(3) 0.3450(3) 0.1769(3)
N55_2 N 0.8231(3) 0.1359(3) 0.1550(3)
N58_2 N 0.9241(3) 0.1359(2) 0.1705(4)
N59_2 N 0.6359(2) 0.3295(4) 0.0759(3)
O30_2 O 0.3882(4) 0.0832(4) 0.0354(3)
H189_2 H 0.0130953 0.428312 0.0162395
N3_2 N 0.5950(3) 0.6141(3) 0.9269(3)
H2_2 H 0.800133 0.434928 0.991767
C8_2 C 0.6122(5) 0.5999(5) 0.9647(4)
C11_2 C 0.5825(4) 0.5965(3) 0.9938(4)
H9_2 H 0.611480 0.510646 0.992367
C14_2 C 0.6635(5) 0.5961(5) 0.9655(4)
H12_2 H 0.671989 0.570673 0.951039
H13_2 H 0.673141 0.595129 0.994330
H14_2 H 0.675635 0.620271 0.951491
C17_2 C 0.5438(4) 0.6058(3) 0.9749(4)
C19_2 C 0.5028(5) 0.6079(6) 0.9896(5)
H21_2 H 0.489882 0.633660 0.979894
H23_2 H 0.487098 0.584010 0.979084
Zn7_2 Zn 0.39153(4) 0.08582(4) 0.97336(3)
H64_2 H 0.458553 0.041447 0.958553
N18_2 N 0.3876(2) 0.3320(3) 0.9614(2)
N20_2 N 0.3859(2) 0.3259(3) 0.9205(4)
C65_2 C 0.3944(3) 0.2924(5) 0.9766(4)
N21_2 N 0.4048(2) 0.1467(3) 0.9590(2)
C66_2 C 0.3963(3) 0.2622(4) 0.9444(4)
C67_2 C 0.3927(3) 0.2822(3) 0.9098(4)
C68_2 C 0.4447(2) 0.1981(3) 0.9380(3)
C69_2 C 0.4852(4) 0.2160(3) 0.9233(5)
H65_2 H 0.508233 0.199867 0.934928
H66_2 H 0.487382 0.244957 0.932549
H67_2 H 0.486343 0.214955 0.892896
C70_2 C 0.3818(3) 0.1837(3) 0.9634(3)
C71_2 C 0.4087(3) 0.2160(3) 0.9511(3)
C76_2 C 0.3910(5) 0.2649(4) 0.8649(3)
H69_2 H 0.368711 0.244186 0.862873
H70_2 H 0.417617 0.251812 0.858016
H71_2 H 0.385493 0.287639 0.845446
H73_2 H 0.475652 0.414879 0.983152
H74_2 H 0.469440 0.365805 0.988313
C82_2 C 0.3382(4) 0.1855(4) 0.9792(4)
H81_2 H 0.318896 0.185976 0.955665
H82_2 H 0.334504 0.210734 0.995876
H83_2 H 0.332635 0.161038 0.996443
H93_2 H 0.169592 0.450890 0.999218
N50_2 N 0.3445(2) 0.0575(2) 0.94239(18)
N54_2 N 0.6550(3) 0.6769(3) 0.8641(3)
N57_2 N 0.6705(4) 0.5759(3) 0.8641(2)
H2_3 H 0.300133 0.065072 0.008233
N2_3 N 0.1680(3) 0.0386(2) 0.8876(2)
N4_3 N 0.1741(3) 0.0795(4) 0.8859(2)
C1_3 C 0.2076(5) 0.0234(4) 0.8944(3)
N5_3 N 0.3533(3) 0.0410(2) 0.9048(2)
C2_3 C 0.2378(4) 0.0556(4) 0.8963(3)
C3_3 C 0.2178(3) 0.0902(4) 0.8927(3)
C4_3 C 0.3019(3) 0.0620(3) 0.9447(2)
C5_3 C 0.2840(3) 0.0767(5) 0.9852(4)
H3_3 H 0.255043 0.067451 0.987382
H4_3 H 0.285045 0.107104 0.986343
C6_3 C 0.3163(3) 0.0366(3) 0.8818(3)
C7_3 C 0.2840(3) 0.0489(3) 0.9087(3)
C12_3 C 0.2351(4) 0.1351(3) 0.8910(5)
H6_3 H 0.255814 0.137127 0.868711
H7_3 H 0.248188 0.141984 0.917617
H8_3 H 0.212361 0.154554 0.885493
H10_3 H 0.085121 0.016848 0.975652
H11_3 H 0.134195 0.011687 0.969440
C18_3 C 0.3145(4) 0.0208(4) 0.8382(4)
H18_3 H 0.314024 0.044335 0.818896
H19_3 H 0.289266 0.004124 0.834504
H20_3 H 0.338962 0.003557 0.832635
H30_3 H 0.049110 0.000782 0.669592
N53_3 N 0.1359(3) 0.1550(3) 0.8231(3)
N55_3 N 0.3231(3) 0.3641(3) 0.8450(3)
N58_3 N 0.4241(3) 0.3641(2) 0.8295(4)
N59_3 N 0.1359(2) 0.1705(4) 0.9241(3)
H190_3 H 0.51624 0.486905 0.571688
N3_3 N 0.0950(3) 0.8859(3) 0.0731(3)
C8_3 C 0.1122(5) 0.9001(5) 0.0353(4)
C11_3 C 0.0825(4) 0.9035(3) 0.0062(4)
H9_3 H 0.111480 0.989354 0.007633
C14_3 C 0.1635(5) 0.9039(5) 0.0345(4)
H12_3 H 0.171989 0.929327 0.048961
H13_3 H 0.173141 0.904871 0.005670
H14_3 H 0.175635 0.879729 0.048509
C17_3 C 0.0438(4) 0.8942(3) 0.0251(4)
C19_3 C 0.0028(5) 0.8921(6) 0.0104(5)
N54_3 N 0.1550(3) 0.8231(3) 0.1359(3)
N57_3 N 0.1705(4) 0.9241(3) 0.1359(2)
O2_3 O 0.1106(3) 0.9948(3) 0.8135(2)
N6_3 N 0.1048(3) 0.9600(3) 0.9106(2)
N8_3 N 0.0975(5) 0.9221(3) 0.8934(3)
H5_3 H 0.099366 0.916031 0.866874
C9_3 C 0.0918(5) 0.9189(4) 0.9627(4)
C10_3 C 0.1008(3) 0.9572(3) 0.9501(3)
C13_3 C 0.1087(4) 0.9977(4) 0.9785(3)
C15_3 C 0.2134(4) 0.9744(3) 0.9003(5)
H15_3 H 0.231243 0.969102 0.924370
H16_3 H 0.226209 0.962637 0.875315
H17_3 H 0.186172 0.961427 0.904794
C16_3 C 0.0867(9) 0.8942(5) 0.9250(4)
H22_3 H 0.002921 0.892636 0.979956
C20_3 C 0.0670(7) 0.8528(4) 0.9139(5)
H24_3 H 0.044344 0.857356 0.894017
H25_3 H 0.055970 0.839668 0.939022
H26_3 H 0.087992 0.834655 0.901300
C21_3 C 0.1047(3) 0.9763(3) 0.7268(2)
H27_3 H 0.082684 0.991399 0.739401
C22_3 C 0.1381(3) 0.9601(3) 0.7521(3)
C23_3 C 0.1717(3) 0.9371(3) 0.7329(3)
H28_3 H 0.193689 0.926415 0.749430
C24_3 C 0.1717(3) 0.9303(4) 0.6884(2)
H29_3 H 0.193726 0.915173 0.675790
C25_3 C 0.1383(3) 0.9465(2) 0.6631(2)
C26_3 C 0.1047(2) 0.9695(3) 0.6823(2)
C27_3 C 0.0711(3) 0.9857(4) 0.6570(3)
C28_3 C 0.0712(4) 0.9789(4) 0.6125(3)
H31_3 H 0.049268 0.989544 0.595935
C29_3 C 0.1048(3) 0.9559(3) 0.5933(3)
C30_3 C 0.1383(3) 0.9397(3) 0.6186(3)
H32_3 H 0.160347 0.924636 0.606018
C31_3 C 0.1371(3) 0.9682(3) 0.8002(4)
C32_3 C 0.1051(4) 0.9496(4) 0.5466(4)
O4_3 O 0.0977(8) 0.9853(5) 0.5308(5)
O5_3 O 0.1623(5) 0.9483(6) 0.8231(3)
H189_3 H 0.513095 0.0716882 0.98376
H21_3 H 0.989882 0.866340 0.020106
H23_3 H 0.987098 0.915990 0.020916
N3_4 N 0.4050(3) 0.1141(3) 0.5731(3)
O2_4 O 0.3894(3) 0.0052(3) 0.3135(2)
N6_4 N 0.3952(3) 0.0400(3) 0.4106(2)
C8_4 C 0.3878(5) 0.0999(5) 0.5353(4)
N8_4 N 0.4025(5) 0.0779(3) 0.3934(3)
H5_4 H 0.400634 0.083969 0.366874
C9_4 C 0.4082(5) 0.0811(4) 0.4627(4)
C10_4 C 0.3992(3) 0.0428(3) 0.4501(3)
C11_4 C 0.4175(4) 0.0965(3) 0.5062(4)
C13_4 C 0.3913(4) 0.0023(4) 0.4785(3)
H9_4 H 0.388520 0.010646 0.507633
C14_4 C 0.3365(5) 0.0961(5) 0.5345(4)
H12_4 H 0.328011 0.070673 0.548961
H13_4 H 0.326859 0.095129 0.505670
H14_4 H 0.324365 0.120271 0.548509
C15_4 C 0.2866(4) 0.0256(3) 0.4003(5)
H15_4 H 0.268757 0.030898 0.424370
H16_4 H 0.273791 0.037363 0.375315
H17_4 H 0.313828 0.038573 0.404794
C16_4 C 0.4133(9) 0.1058(5) 0.4250(4)
C17_4 C 0.4562(4) 0.1058(3) 0.5251(4)
C19_4 C 0.4972(5) 0.1079(6) 0.5104(5)
H21_4 H 0.510118 0.133660 0.520106
H22_4 H 0.497079 0.107364 0.479956
H23_4 H 0.512902 0.084010 0.520916
C20_4 C 0.4330(7) 0.1472(4) 0.4139(5)
H24_4 H 0.455656 0.142644 0.394017
H25_4 H 0.444030 0.160332 0.439022
H26_4 H 0.412008 0.165345 0.401300
C21_4 C 0.3953(3) 0.0237(3) 0.2268(2)
H27_4 H 0.417316 0.008601 0.239401
C22_4 C 0.3619(3) 0.0399(3) 0.2521(3)
C23_4 C 0.3283(3) 0.0629(3) 0.2329(3)
H28_4 H 0.306311 0.073585 0.249430
C24_4 C 0.3283(3) 0.0697(4) 0.1884(2)
H29_4 H 0.306274 0.084827 0.175790
C25_4 C 0.3617(3) 0.0535(2) 0.1631(2)
C26_4 C 0.3953(2) 0.0305(3) 0.1823(2)
C27_4 C 0.4289(3) 0.0143(4) 0.1570(3)
C28_4 C 0.4288(4) 0.0211(4) 0.1125(3)
H31_4 H 0.450732 0.010456 0.095935
C29_4 C 0.3952(3) 0.0441(3) 0.0933(3)
C30_4 C 0.3617(3) 0.0603(3) 0.1186(3)
H32_4 H 0.339653 0.075364 0.106018
C31_4 C 0.3629(3) 0.0318(3) 0.3002(4)
C32_4 C 0.3949(4) 0.0504(4) 0.0466(4)
O4_4 O 0.4023(8) 0.0147(5) 0.0308(5)
O5_4 O 0.3377(5) 0.0517(6) 0.3231(3)
N54_4 N 0.3450(3) 0.1769(3) 0.6359(3)
N57_4 N 0.3295(4) 0.0759(3) 0.6359(2)
N2_4 N 0.3320(3) 0.9614(2) 0.3876(2)
N4_4 N 0.3259(3) 0.9205(4) 0.3859(2)
C1_4 C 0.2924(5) 0.9766(4) 0.3944(3)
N5_4 N 0.1467(3) 0.9590(2) 0.4048(2)
C2_4 C 0.2622(4) 0.9444(4) 0.3963(3)
C3_4 C 0.2822(3) 0.9098(4) 0.3927(3)
C4_4 C 0.1981(3) 0.9380(3) 0.4447(2)
C5_4 C 0.2160(3) 0.9233(5) 0.4852(4)
H2_4 H 0.199867 0.934928 0.508233
H3_4 H 0.244957 0.932549 0.487382
H4_4 H 0.214955 0.892896 0.486343
C6_4 C 0.1837(3) 0.9634(3) 0.3818(3)
C7_4 C 0.2160(3) 0.9511(3) 0.4087(3)
C12_4 C 0.2649(4) 0.8649(3) 0.3910(5)
H6_4 H 0.244186 0.862873 0.368711
H7_4 H 0.251812 0.858016 0.417617
H8_4 H 0.287639 0.845446 0.385493
H10_4 H 0.414879 0.983152 0.475652
H11_4 H 0.365805 0.988313 0.469440
C18_4 C 0.1855(4) 0.9792(4) 0.3382(4)
H18_4 H 0.185976 0.955665 0.318896
H19_4 H 0.210734 0.995876 0.334504
H20_4 H 0.161038 0.996443 0.332635
H30_4 H 0.450890 0.999218 0.169592
N53_4 N 0.3641(3) 0.8450(3) 0.3231(3)
N55_4 N 0.1769(3) 0.6359(3) 0.3450(3)
N58_4 N 0.0759(3) 0.6359(2) 0.3295(4)
N59_4 N 0.3641(2) 0.8295(4) 0.4241(3)
H189_4 H 0.986905 0.928312 0.48376
H190_4 H 0.98376 0.513095 0.0716882
H190_5 H 0.928312 0.48376 0.986905
H190_6 H 0.428312 0.0162395 0.0130953
H190_7 H 0.571688 0.51624 0.486905
H190_8 H 0.0716882 0.98376 0.513095
Zn3_3 Zn 0.26224(5) 0.13516(5) 0.62221(4)
N2_5 N 0.2886(2) 0.0820(3) 0.6376(2)
O2_5 O 0.2448(3) 0.1394(3) 0.5635(2)
O3_2 O 0.1668(4) 0.1382(4) 0.2854(3)
C1_5 C 0.2734(4) 0.0424(5) 0.6444(3)
N6_5 N 0.2100(3) 0.1452(3) 0.6606(2)
C2_5 C 0.3056(4) 0.0122(4) 0.6463(3)
C3_5 C 0.3402(4) 0.0322(3) 0.6427(3)
N7_2 N 0.1326(2) 0.1978(3) 0.8169(3)
C8_5 C 0.1501(5) 0.1378(5) 0.7853(4)
N8_5 N 0.1721(3) 0.1525(5) 0.6434(3)
H5_5 H 0.166031 0.150634 0.616874
C9_5 C 0.1689(4) 0.1582(5) 0.7127(4)
C10_5 C 0.2072(3) 0.1492(3) 0.7001(3)
C11_5 C 0.1535(3) 0.1675(4) 0.7562(4)
C12_5 C 0.3851(3) 0.0149(4) 0.6410(5)
H7_5 H 0.391984 0.001812 0.667617
H8_5 H 0.404554 0.037639 0.635493
C13_5 C 0.2477(4) 0.1413(4) 0.7285(3)
H9_5 H 0.239354 0.138520 0.757633
H10_5 H 0.266848 0.164879 0.725652
H11_5 H 0.261687 0.115805 0.719440
C14_5 C 0.1539(5) 0.0865(5) 0.7845(4)
H12_5 H 0.179327 0.078011 0.798961
H13_5 H 0.154871 0.076859 0.755670
H14_5 H 0.129729 0.074365 0.798509
C15_5 C 0.2244(3) 0.0366(4) 0.6503(5)
H15_5 H 0.219102 0.018757 0.674370
H16_5 H 0.212637 0.023791 0.625315
H17_5 H 0.211427 0.063828 0.654794
C16_5 C 0.1442(5) 0.1633(9) 0.6750(4)
C17_5 C 0.1442(3) 0.2062(4) 0.7751(4)
C19_5 C 0.1421(6) 0.2472(5) 0.7604(5)
H21_5 H 0.116340 0.260118 0.770106
H22_5 H 0.142636 0.247079 0.729956
H23_5 H 0.165990 0.262902 0.770916
C20_5 C 0.1028(4) 0.1830(7) 0.6639(5)
H24_5 H 0.107356 0.205656 0.644017
H25_5 H 0.089668 0.194030 0.689022
H26_5 H 0.084655 0.162008 0.651300
C21_5 C 0.2263(3) 0.1453(3) 0.4768(2)
H27_5 H 0.241399 0.167316 0.489401
C22_5 C 0.2101(3) 0.1119(3) 0.5021(3)
C23_5 C 0.1871(3) 0.0783(3) 0.4829(3)
H28_5 H 0.176415 0.056311 0.499430
C24_5 C 0.1803(4) 0.0783(3) 0.4384(2)
H29_5 H 0.165173 0.056274 0.425790
C25_5 C 0.1965(2) 0.1117(3) 0.4131(2)
C26_5 C 0.2195(3) 0.1453(2) 0.4323(2)
C27_5 C 0.2357(4) 0.1789(3) 0.4070(3)
H30_5 H 0.250782 0.200890 0.419592
C28_5 C 0.2289(4) 0.1788(4) 0.3625(3)
H31_5 H 0.239544 0.200732 0.345935
C29_5 C 0.2059(3) 0.1452(3) 0.3433(3)
C30_5 C 0.1897(3) 0.1117(3) 0.3686(3)
H32_5 H 0.174636 0.089653 0.356018
C31_5 C 0.2182(3) 0.1129(3) 0.5502(4)
C32_5 C 0.1996(4) 0.1449(4) 0.2966(4)
O4_5 O 0.2353(5) 0.1523(8) 0.2808(5)
O5_5 O 0.1983(6) 0.0877(5) 0.5731(3)
O7_2 O 0.6382(4) 0.2146(3) 0.8332(4)
C53_2 C 0.6453(3) 0.0232(2) 0.7737(3)
H58_2 H 0.667316 0.010599 0.758601
C55_2 C 0.5783(3) 0.0171(3) 0.8129(3)
H59_2 H 0.556311 0.000570 0.823585
C56_2 C 0.5783(3) 0.0616(2) 0.8197(4)
H60_2 H 0.556274 0.074210 0.834827
C57_2 C 0.6117(3) 0.0869(2) 0.8035(2)
C58_2 C 0.6453(2) 0.0677(2) 0.7805(3)
C59_2 C 0.6789(3) 0.0930(3) 0.7643(4)
H61_2 H 0.700890 0.080408 0.749218
C60_2 C 0.6788(4) 0.1375(3) 0.7711(4)
H62_2 H 0.700732 0.154065 0.760456
C61_2 C 0.6452(3) 0.1567(3) 0.7941(3)
C62_2 C 0.6117(3) 0.1314(3) 0.8103(3)
H63_2 H 0.589653 0.143982 0.825364
C64_2 C 0.6449(4) 0.2034(4) 0.8004(4)
O8_2 O 0.6523(8) 0.2192(5) 0.7647(5)
Zn7_3 Zn 0.66418(4) 0.35847(4) 0.77664(3)
Zn8_2 Zn 0.36484(5) 0.37779(4) 0.76224(5)
O10_2 O 0.69060(19) 0.30940(19) 0.80940(19)
H64_3 H 0.708553 0.291447 0.791447
N17_2 N 0.5945(2) 0.30761(18) 0.8075(2)
N18_3 N 0.4180(3) 0.3624(2) 0.7886(2)
O11_3 O 0.3606(3) 0.4365(2) 0.7448(3)
O12_2 O 0.3618(4) 0.7146(3) 0.6668(4)
C65_3 C 0.4576(5) 0.3556(3) 0.7734(4)
N21_3 N 0.6033(3) 0.3452(2) 0.7910(2)
N22_3 N 0.3548(3) 0.3394(2) 0.7100(3)
C66_3 C 0.4878(4) 0.3537(3) 0.8056(4)
C67_3 C 0.4678(3) 0.3573(3) 0.8402(4)
N23_3 N 0.3022(3) 0.1831(3) 0.6326(2)
C68_3 C 0.5519(3) 0.3053(2) 0.8120(3)
C69_3 C 0.5340(3) 0.2648(4) 0.8267(5)
H65_3 H 0.550133 0.241767 0.815072
H66_3 H 0.505043 0.262618 0.817451
H67_3 H 0.535045 0.263657 0.857104
C70_3 C 0.5663(3) 0.3682(3) 0.7866(3)
C71_3 C 0.5340(3) 0.3413(3) 0.7989(3)
C72_3 C 0.3622(5) 0.2147(4) 0.6501(5)
N24_3 N 0.3475(5) 0.3566(3) 0.6721(3)
H68_3 H 0.349366 0.383126 0.666031
C73_3 C 0.3418(5) 0.2873(4) 0.6689(4)
C74_3 C 0.3508(3) 0.2999(3) 0.7072(3)
C75_3 C 0.3325(4) 0.2438(4) 0.6535(3)
C76_3 C 0.4851(4) 0.3590(5) 0.8851(3)
H69_3 H 0.505814 0.381289 0.887127
H70_3 H 0.498188 0.332383 0.891984
H71_3 H 0.462361 0.364507 0.904554
C77_3 C 0.3587(4) 0.2715(3) 0.7477(4)
H72_3 H 0.361480 0.242367 0.739354
H73_3 H 0.335121 0.274348 0.766848
H74_3 H 0.384195 0.280560 0.761687
C78_3 C 0.4135(5) 0.2155(4) 0.6539(5)
H75_3 H 0.421989 0.201039 0.679327
H76_3 H 0.423141 0.244330 0.654871
H77_3 H 0.425635 0.201491 0.629729
C79_3 C 0.4634(4) 0.3497(5) 0.7244(3)
H78_3 H 0.481243 0.325630 0.719102
H79_3 H 0.476209 0.374685 0.712637
H80_3 H 0.436172 0.345206 0.711427
C80_3 C 0.3367(9) 0.3250(4) 0.6442(5)
C81_3 C 0.2938(4) 0.2249(4) 0.6442(3)
C82_3 C 0.5645(4) 0.4118(4) 0.7708(4)
H81_3 H 0.564024 0.431104 0.794335
H82_3 H 0.539266 0.415496 0.754124
H83_3 H 0.588962 0.417365 0.753557
C83_3 C 0.2528(5) 0.2396(5) 0.6421(6)
H84_3 H 0.239882 0.229894 0.616340
H85_3 H 0.252921 0.270044 0.642636
H86_3 H 0.237098 0.229084 0.665990
C84_3 C 0.3170(7) 0.3361(5) 0.6028(4)
H87_3 H 0.294344 0.355983 0.607356
H88_3 H 0.305970 0.310978 0.589668
H89_3 H 0.337992 0.348700 0.584655
C85_3 C 0.3547(3) 0.5232(2) 0.7263(3)
H90_3 H 0.332684 0.510599 0.741399
C86_3 C 0.3881(3) 0.4979(3) 0.7101(3)
C87_3 C 0.4217(3) 0.5171(3) 0.6871(3)
H91_3 H 0.443689 0.500570 0.676415
C88_3 C 0.4217(3) 0.5616(2) 0.6803(4)
H92_3 H 0.443726 0.574210 0.665173
C89_3 C 0.3883(3) 0.5869(2) 0.6965(2)
C90_3 C 0.3547(2) 0.5677(2) 0.7195(3)
C91_3 C 0.3211(3) 0.5930(3) 0.7357(4)
H93_3 H 0.299110 0.580408 0.750782
C92_3 C 0.3212(4) 0.6375(3) 0.7289(4)
H94_3 H 0.299268 0.654065 0.739544
C93_3 C 0.3548(3) 0.6567(3) 0.7059(3)
C94_3 C 0.3883(3) 0.6314(3) 0.6897(3)
H95_3 H 0.410347 0.643982 0.674636
C95_3 C 0.3871(3) 0.4498(4) 0.7182(3)
C96_3 C 0.3551(4) 0.7034(4) 0.6996(4)
O13_3 O 0.3477(8) 0.7192(5) 0.7353(5)
O14_3 O 0.4123(5) 0.4269(3) 0.6983(6)
Zn9_2 Zn 0.16418(4) 0.14153(4) 0.22336(3)
N25_2 N 0.0945(2) 0.19239(18) 0.1925(2)
N29_2 N 0.1033(3) 0.1548(2) 0.2090(2)
C100_2 C 0.0519(3) 0.1947(2) 0.1880(3)
C101_2 C 0.0340(3) 0.2352(4) 0.1733(5)
H96_2 H 0.050133 0.258233 0.184928
H97_2 H 0.005043 0.237382 0.182549
H98_2 H 0.035045 0.236343 0.142896
C102_2 C 0.0663(3) 0.1318(3) 0.2134(3)
C103_2 C 0.0340(3) 0.1587(3) 0.2011(3)
H100_2 H 0.005814 0.118711 0.112873
C114_2 C 0.0645(4) 0.0882(4) 0.2292(4)
H112_2 H 0.064024 0.068896 0.205665
H113_2 H 0.039266 0.084504 0.245876
H114_2 H 0.088962 0.082635 0.246443
Zn18_2 Zn 0.72336(3) 0.33582(4) 0.85847(4)
Zn19_2 Zn 0.35847(4) 0.77664(3) 0.66418(4)
Zn20_2 Zn 0.64153(4) 0.27664(3) 0.83582(4)
Zn21_2 Zn 0.14153(4) 0.22336(3) 0.16418(4)
Zn34_2 Zn 0.12221(4) 0.23776(5) 0.86484(5)
O27_2 O 0.19060(19) 0.19060(19) 0.19060(19)
N49_2 N 0.1925(2) 0.0945(2) 0.19239(18)
N50_3 N 0.6925(2) 0.4055(2) 0.80761(18)
O30_3 O 0.6668(4) 0.3618(4) 0.7146(3)
N64_2 N 0.3169(3) 0.3674(2) 0.8022(3)
H189_5 H 0.321688 0.736905 0.73376
Zn1_3 Zn 0.27664(3) 0.83582(4) 0.64153(4)
O1_2 O 0.30940(19) 0.80940(19) 0.69060(19)
H1_3 H 0.291447 0.791447 0.708553
N1_2 N 0.3075(2) 0.9055(2) 0.69239(18)
N5_5 N 0.2910(2) 0.8967(3) 0.6548(2)
C4_5 C 0.3120(3) 0.9481(3) 0.6947(2)
C5_5 C 0.3267(5) 0.9660(3) 0.7352(4)
H2_5 H 0.315072 0.949867 0.758233
H3_5 H 0.317451 0.994957 0.737382
H4_5 H 0.357104 0.964955 0.736343
C6_5 C 0.2866(3) 0.9337(3) 0.6318(3)
C7_5 C 0.2989(3) 0.9660(3) 0.6587(3)
H6_5 H 0.387127 0.994186 0.618711
C18_5 C 0.2708(4) 0.9355(4) 0.5882(4)
H18_5 H 0.294335 0.935976 0.568896
H19_5 H 0.254124 0.960734 0.584504
H20_5 H 0.253557 0.911038 0.582635
Zn4_2 Zn 0.33582(4) 0.85847(4) 0.72336(3)
Zn6_2 Zn 0.63516(5) 0.87779(4) 0.73776(5)
N9_2 N 0.4055(2) 0.80761(18) 0.6925(2)
N10_2 N 0.5820(3) 0.8624(2) 0.7114(2)
O6_2 O 0.6394(3) 0.9365(2) 0.7552(3)
C33_2 C 0.5424(5) 0.8556(3) 0.7266(4)
N13_2 N 0.3967(3) 0.8452(2) 0.7090(2)
N14_2 N 0.6452(3) 0.8394(2) 0.7900(3)
C34_2 C 0.5122(4) 0.8537(3) 0.6944(4)
C35_2 C 0.5322(3) 0.8573(3) 0.6598(4)
N15_2 N 0.6978(3) 0.6831(3) 0.8674(2)
C36_2 C 0.4481(3) 0.8053(2) 0.6880(3)
C37_2 C 0.4660(3) 0.7648(4) 0.6733(5)
H33_2 H 0.449867 0.741767 0.684928
H34_2 H 0.494957 0.762618 0.682549
H35_2 H 0.464955 0.763657 0.642896
C38_2 C 0.4337(3) 0.8682(3) 0.7134(3)
C39_2 C 0.4660(3) 0.8413(3) 0.7011(3)
C40_2 C 0.6378(5) 0.7147(4) 0.8499(5)
N16_2 N 0.6525(5) 0.8566(3) 0.8279(3)
H36_2 H 0.650634 0.883126 0.833969
C41_2 C 0.6582(5) 0.7873(4) 0.8311(4)
C42_2 C 0.6492(3) 0.7999(3) 0.7928(3)
C43_2 C 0.6675(4) 0.7438(4) 0.8465(3)
C44_2 C 0.5149(4) 0.8590(5) 0.6149(3)
H37_2 H 0.494186 0.881289 0.612873
H38_2 H 0.501812 0.832383 0.608016
H39_2 H 0.537639 0.864507 0.595446
C45_2 C 0.6413(4) 0.7715(3) 0.7523(4)
H40_2 H 0.638520 0.742367 0.760646
H41_2 H 0.664879 0.774348 0.733152
H42_2 H 0.615805 0.780560 0.738313
C46_2 C 0.5865(5) 0.7155(4) 0.8461(5)
H43_2 H 0.578011 0.701039 0.820673
H44_2 H 0.576859 0.744330 0.845129
H45_2 H 0.574365 0.701491 0.870271
C47_2 C 0.5366(4) 0.8497(5) 0.7756(3)
H46_2 H 0.518757 0.825630 0.780898
H47_2 H 0.523791 0.874685 0.787363
H48_2 H 0.563828 0.845206 0.788573
C48_2 C 0.6633(9) 0.8250(4) 0.8558(5)
C49_2 C 0.7062(4) 0.7249(4) 0.8558(3)
C50_2 C 0.4355(4) 0.9118(4) 0.7292(4)
H49_2 H 0.435976 0.931104 0.705665
H50_2 H 0.460734 0.915496 0.745876
H51_2 H 0.411038 0.917365 0.746443
C51_2 C 0.7472(5) 0.7396(5) 0.8579(6)
H52_2 H 0.760118 0.729894 0.883660
H53_2 H 0.747079 0.770044 0.857364
H54_2 H 0.762902 0.729084 0.834010
C52_2 C 0.6830(7) 0.8361(5) 0.8972(4)
H55_2 H 0.705656 0.855983 0.892644
H56_2 H 0.694030 0.810978 0.910332
H57_2 H 0.662008 0.848700 0.915345
C54_2 C 0.6119(3) 0.9979(3) 0.7899(3)
C63_2 C 0.6129(3) 0.9498(4) 0.7818(3)
O9_2 O 0.5877(5) 0.9269(3) 0.8017(6)
Zn12_2 Zn 0.37779(4) 0.76224(5) 0.36484(5)
N33_3 N 0.30761(18) 0.8075(2) 0.5945(2)
N34_3 N 0.3624(2) 0.7886(2) 0.4180(3)
O19_3 O 0.4365(2) 0.7448(3) 0.3606(3)
O20_3 O 0.7146(3) 0.6668(4) 0.3618(4)
C129_3 C 0.3556(3) 0.7734(4) 0.4576(5)
N37_3 N 0.3452(2) 0.7910(2) 0.6033(3)
N38_3 N 0.3394(2) 0.7100(3) 0.3548(3)
C130_3 C 0.3537(3) 0.8056(4) 0.4878(4)
C131_3 C 0.3573(3) 0.8402(4) 0.4678(3)
N39_2 N 0.1831(3) 0.6326(2) 0.3022(3)
C132_3 C 0.3053(2) 0.8120(3) 0.5519(3)
C133_3 C 0.2648(4) 0.8267(5) 0.5340(3)
H127_3 H 0.241767 0.815072 0.550133
H128_3 H 0.262618 0.817451 0.505043
H129_3 H 0.263657 0.857104 0.535045
C134_3 C 0.3682(3) 0.7866(3) 0.5663(3)
C135_3 C 0.3413(3) 0.7989(3) 0.5340(3)
C136_3 C 0.2147(4) 0.6501(5) 0.3622(5)
N40_3 N 0.3566(3) 0.6721(3) 0.3475(5)
H130_3 H 0.383126 0.666031 0.349366
C137_3 C 0.2873(4) 0.6689(4) 0.3418(5)
C138_3 C 0.2999(3) 0.7072(3) 0.3508(3)
C139_3 C 0.2438(4) 0.6535(3) 0.3325(4)
C140_3 C 0.3590(5) 0.8851(3) 0.4851(4)
H131_3 H 0.381289 0.887127 0.505814
H132_3 H 0.332383 0.891984 0.498188
H133_3 H 0.364507 0.904554 0.462361
C141_3 C 0.2715(3) 0.7477(4) 0.3587(4)
H134_3 H 0.242367 0.739354 0.361480
H135_3 H 0.274348 0.766848 0.335121
H136_3 H 0.280560 0.761687 0.384195
C142_3 C 0.2155(4) 0.6539(5) 0.4135(5)
H137_3 H 0.201039 0.679327 0.421989
H138_3 H 0.244330 0.654871 0.423141
H139_3 H 0.201491 0.629729 0.425635
C143_3 C 0.3497(5) 0.7244(3) 0.4634(4)
H140_3 H 0.325630 0.719102 0.481243
H141_3 H 0.374685 0.712637 0.476209
H142_3 H 0.345206 0.711427 0.436172
C144_3 C 0.3250(4) 0.6442(5) 0.3367(9)
C145_3 C 0.2249(4) 0.6442(3) 0.2938(4)
C146_3 C 0.4118(4) 0.7708(4) 0.5645(4)
H143_3 H 0.431104 0.794335 0.564024
H144_3 H 0.415496 0.754124 0.539266
H145_3 H 0.417365 0.753557 0.588962
C147_3 C 0.2396(5) 0.6421(6) 0.2528(5)
H146_3 H 0.229894 0.616340 0.239882
H147_3 H 0.270044 0.642636 0.252921
H148_3 H 0.229084 0.665990 0.237098
C148_3 C 0.3361(5) 0.6028(4) 0.3170(7)
H149_3 H 0.355983 0.607356 0.294344
H150_3 H 0.310978 0.589668 0.305970
H151_3 H 0.348700 0.584655 0.337992
C149_3 C 0.5232(2) 0.7263(3) 0.3547(3)
H152_3 H 0.510599 0.741399 0.332684
C150_3 C 0.4979(3) 0.7101(3) 0.3881(3)
C151_3 C 0.5171(3) 0.6871(3) 0.4217(3)
H153_3 H 0.500570 0.676415 0.443689
C152_3 C 0.5616(2) 0.6803(4) 0.4217(3)
H154_3 H 0.574210 0.665173 0.443726
C153_3 C 0.5869(2) 0.6965(2) 0.3883(3)
C154_3 C 0.5677(2) 0.7195(3) 0.3547(2)
C155_3 C 0.5930(3) 0.7357(4) 0.3211(3)
H155_3 H 0.580408 0.750782 0.299110
C156_3 C 0.6375(3) 0.7289(4) 0.3212(4)
H156_3 H 0.654065 0.739544 0.299268
C157_3 C 0.6567(3) 0.7059(3) 0.3548(3)
C158_3 C 0.6314(3) 0.6897(3) 0.3883(3)
H157_3 H 0.643982 0.674636 0.410347
C159_3 C 0.4498(4) 0.7182(3) 0.3871(3)
C160_3 C 0.7034(4) 0.6996(4) 0.3551(4)
O21_3 O 0.7192(5) 0.7353(5) 0.3477(8)
O22_3 O 0.4269(3) 0.6983(6) 0.4123(5)
O24_3 O 0.2146(3) 0.8332(4) 0.6382(4)
C181_3 C 0.0232(2) 0.7737(3) 0.6453(3)
H183_3 H 0.010599 0.758601 0.667316
C183_3 C 0.0171(3) 0.8129(3) 0.5783(3)
H184_3 H 0.000570 0.823585 0.556311
C184_3 C 0.0616(2) 0.8197(4) 0.5783(3)
H185_3 H 0.074210 0.834827 0.556274
C185_3 C 0.0869(2) 0.8035(2) 0.6117(3)
C186_3 C 0.0677(2) 0.7805(3) 0.6453(2)
C187_3 C 0.0930(3) 0.7643(4) 0.6789(3)
H186_3 H 0.080408 0.749218 0.700890
C188_3 C 0.1375(3) 0.7711(4) 0.6788(4)
H187_3 H 0.154065 0.760456 0.700732
C189_3 C 0.1567(3) 0.7941(3) 0.6452(3)
C190_3 C 0.1314(3) 0.8103(3) 0.6117(3)
H188_3 H 0.143982 0.825364 0.589653
C192_3 C 0.2034(4) 0.8004(4) 0.6449(4)
O25_3 O 0.2192(5) 0.7647(5) 0.6523(8)
Zn17_2 Zn 0.77664(3) 0.66418(4) 0.35847(4)
Zn31_2 Zn 0.73776(5) 0.63516(5) 0.87779(4)
Zn33_2 Zn 0.13516(5) 0.62221(4) 0.26224(5)
O29_2 O 0.3332(4) 0.8618(4) 0.7854(3)
N60_2 N 0.3674(2) 0.8022(3) 0.3169(3)
N62_2 N 0.6831(3) 0.8674(2) 0.6978(3)
H190_9 H 0.736905 0.73376 0.321688
Zn10_2 Zn 0.86484(5) 0.12221(4) 0.23776(5)
N26_2 N 0.9180(3) 0.1376(2) 0.2114(2)
O15_2 O 0.8606(3) 0.0635(2) 0.2552(3)
C97_2 C 0.9576(5) 0.1444(3) 0.2266(4)
N30_2 N 0.8548(3) 0.1606(2) 0.2900(3)
C98_2 C 0.9878(4) 0.1463(3) 0.1944(4)
C99_2 C 0.9678(3) 0.1427(3) 0.1598(4)
N31_2 N 0.8022(3) 0.3169(3) 0.3674(2)
C104_2 C 0.8622(5) 0.2853(4) 0.3499(5)
N32_2 N 0.8475(5) 0.1434(3) 0.3279(3)
H99_2 H 0.849366 0.116874 0.333969
C105_2 C 0.8418(5) 0.2127(4) 0.3311(4)
C106_2 C 0.8508(3) 0.2001(3) 0.2928(3)
C107_2 C 0.8325(4) 0.2562(4) 0.3465(3)
C108_2 C 0.9851(4) 0.1410(5) 0.1149(3)
H101_2 H 0.998188 0.167617 0.108016
H102_2 H 0.962361 0.135493 0.095446
C109_2 C 0.8587(4) 0.2285(3) 0.2523(4)
H103_2 H 0.861480 0.257633 0.260646
H104_2 H 0.835121 0.225652 0.233152
H105_2 H 0.884195 0.219440 0.238313
C110_2 C 0.9135(5) 0.2845(4) 0.3461(5)
H106_2 H 0.921989 0.298961 0.320673
H107_2 H 0.923141 0.255670 0.345129
H108_2 H 0.925635 0.298509 0.370271
C111_2 C 0.9634(4) 0.1503(5) 0.2756(3)
H109_2 H 0.981243 0.174370 0.280898
H110_2 H 0.976209 0.125315 0.287363
H111_2 H 0.936172 0.154794 0.288573
C112_2 C 0.8367(9) 0.1750(4) 0.3558(5)
C113_2 C 0.7938(4) 0.2751(4) 0.3558(3)
C115_2 C 0.7528(5) 0.2604(5) 0.3579(6)
H115_2 H 0.739882 0.270106 0.383660
H116_2 H 0.752921 0.229956 0.357364
H117_2 H 0.737098 0.270916 0.334010
C116_2 C 0.8170(7) 0.1639(5) 0.3972(4)
H118_2 H 0.794344 0.144017 0.392644
H119_2 H 0.805970 0.189022 0.410332
H120_2 H 0.837992 0.151300 0.415345
C118_2 C 0.8881(3) 0.0021(3) 0.2899(3)
C127_2 C 0.8871(3) 0.0502(4) 0.2818(3)
O18_2 O 0.9123(5) 0.0731(3) 0.3017(6)
Zn30_2 Zn 0.76224(5) 0.36484(5) 0.37779(4)
N63_2 N 0.8169(3) 0.1326(2) 0.1978(3)
O16_2 O 0.8618(4) 0.7854(3) 0.3332(4)
C117_2 C 0.8547(3) 0.9768(2) 0.2737(3)
H121_2 H 0.832684 0.989401 0.258601
C119_2 C 0.9217(3) 0.9829(3) 0.3129(3)
H122_2 H 0.943689 0.999430 0.323585
C120_2 C 0.9217(3) 0.9384(2) 0.3197(4)
H123_2 H 0.943726 0.925790 0.334827
C121_2 C 0.8883(3) 0.9131(2) 0.3035(2)
C122_2 C 0.8547(2) 0.9323(2) 0.2805(3)
C123_2 C 0.8211(3) 0.9070(3) 0.2643(4)
H124_2 H 0.799110 0.919592 0.249218
C124_2 C 0.8212(4) 0.8625(3) 0.2711(4)
H125_2 H 0.799268 0.845935 0.260456
C125_2 C 0.8548(3) 0.8433(3) 0.2941(3)
C126_2 C 0.8883(3) 0.8686(3) 0.3103(3)
H126_2 H 0.910347 0.856018 0.325364
C128_2 C 0.8551(4) 0.7966(4) 0.3004(4)
O17_2 O 0.8477(8) 0.7808(5) 0.2647(5)
Zn13_2 Zn 0.85847(4) 0.72336(3) 0.33582(4)
Zn14_3 Zn 0.87779(4) 0.73776(5) 0.63516(5)
N41_3 N 0.80761(18) 0.6925(2) 0.4055(2)
N42_3 N 0.8624(2) 0.7114(2) 0.5820(3)
O23_3 O 0.9365(2) 0.7552(3) 0.6394(3)
C161_3 C 0.8556(3) 0.7266(4) 0.5424(5)
N45_3 N 0.8452(2) 0.7090(2) 0.3967(3)
N46_3 N 0.8394(2) 0.7900(3) 0.6452(3)
C162_3 C 0.8537(3) 0.6944(4) 0.5122(4)
C163_3 C 0.8573(3) 0.6598(4) 0.5322(3)
C164_3 C 0.8053(2) 0.6880(3) 0.4481(3)
C165_3 C 0.7648(4) 0.6733(5) 0.4660(3)
H158_3 H 0.741767 0.684928 0.449867
H159_3 H 0.762618 0.682549 0.494957
H160_3 H 0.763657 0.642896 0.464955
C166_3 C 0.8682(3) 0.7134(3) 0.4337(3)
C167_3 C 0.8413(3) 0.7011(3) 0.4660(3)
C168_3 C 0.7147(4) 0.8499(5) 0.6378(5)
N48_3 N 0.8566(3) 0.8279(3) 0.6525(5)
H161_3 H 0.883126 0.833969 0.650634
C169_3 C 0.7873(4) 0.8311(4) 0.6582(5)
C170_3 C 0.7999(3) 0.7928(3) 0.6492(3)
C171_3 C 0.7438(4) 0.8465(3) 0.6675(4)
C172_3 C 0.8590(5) 0.6149(3) 0.5149(4)
H162_3 H 0.881289 0.612873 0.494186
H163_3 H 0.832383 0.608016 0.501812
H164_3 H 0.864507 0.595446 0.537639
C173_3 C 0.7715(3) 0.7523(4) 0.6413(4)
H165_3 H 0.742367 0.760646 0.638520
H166_3 H 0.774348 0.733152 0.664879
H167_3 H 0.780560 0.738313 0.615805
C174_3 C 0.7155(4) 0.8461(5) 0.5865(5)
H168_3 H 0.701039 0.820673 0.578011
H169_3 H 0.744330 0.845129 0.576859
H170_3 H 0.701491 0.870271 0.574365
C175_3 C 0.8497(5) 0.7756(3) 0.5366(4)
H171_3 H 0.825630 0.780898 0.518757
H172_3 H 0.874685 0.787363 0.523791
H173_3 H 0.845206 0.788573 0.563828
C176_3 C 0.8250(4) 0.8558(5) 0.6633(9)
C177_3 C 0.7249(4) 0.8558(3) 0.7062(4)
C178_3 C 0.9118(4) 0.7292(4) 0.4355(4)
H174_3 H 0.931104 0.705665 0.435976
H175_3 H 0.915496 0.745876 0.460734
H176_3 H 0.917365 0.746443 0.411038
C179_3 C 0.7396(5) 0.8579(6) 0.7472(5)
H177_3 H 0.729894 0.883660 0.760118
H178_3 H 0.770044 0.857364 0.747079
H179_3 H 0.729084 0.834010 0.762902
C180_3 C 0.8361(5) 0.8972(4) 0.6830(7)
H180_3 H 0.855983 0.892644 0.705656
H181_3 H 0.810978 0.910332 0.694030
H182_3 H 0.848700 0.915345 0.662008
C182_3 C 0.9979(3) 0.7899(3) 0.6119(3)
C191_3 C 0.9498(4) 0.7818(3) 0.6129(3)
O26_3 O 0.9269(3) 0.8017(6) 0.5877(5)
O28_2 O 0.80940(19) 0.69060(19) 0.30940(19)
N51_2 N 0.9055(2) 0.69239(18) 0.3075(2)
N61_3 N 0.8674(2) 0.6978(3) 0.6831(3)
Zn1_4 Zn 0.22336(3) 0.16418(4) 0.14153(4)
H1_4 H 0.208553 0.208553 0.208553
N5_6 N 0.2090(2) 0.1033(3) 0.1548(2)
C4_6 C 0.1880(3) 0.0519(3) 0.1947(2)
C5_6 C 0.1733(5) 0.0340(3) 0.2352(4)
H2_6 H 0.184928 0.050133 0.258233
H3_6 H 0.182549 0.005043 0.237382
H4_6 H 0.142896 0.035045 0.236343
C6_6 C 0.2134(3) 0.0663(3) 0.1318(3)
C7_6 C 0.2011(3) 0.0340(3) 0.1587(3)
H6_6 H 0.112873 0.005814 0.118711
C18_6 C 0.2292(4) 0.0645(4) 0.0882(4)
H18_6 H 0.205665 0.064024 0.068896
H19_6 H 0.245876 0.039266 0.084504
H20_6 H 0.246443 0.088962 0.082635
N33_4 N 0.19239(18) 0.1925(2) 0.0945(2)
N37_4 N 0.1548(2) 0.2090(2) 0.1033(3)
C132_4 C 0.1947(2) 0.1880(3) 0.0519(3)
C133_4 C 0.2352(4) 0.1733(5) 0.0340(3)
H127_4 H 0.258233 0.184928 0.050133
H128_4 H 0.237382 0.182549 0.005043
H129_4 H 0.236343 0.142896 0.035045
C134_4 C 0.1318(3) 0.2134(3) 0.0663(3)
C135_4 C 0.1587(3) 0.2011(3) 0.0340(3)
H131_4 H 0.118711 0.112873 0.005814
C146_4 C 0.0882(4) 0.2292(4) 0.0645(4)
H143_4 H 0.068896 0.205665 0.064024
H144_4 H 0.084504 0.245876 0.039266
H145_4 H 0.082635 0.246443 0.088962
Zn14_4 Zn 0.62221(4) 0.26224(5) 0.13516(5)
N42_4 N 0.6376(2) 0.2886(2) 0.0820(3)
O23_4 O 0.5635(2) 0.2448(3) 0.1394(3)
O24_4 O 0.2854(3) 0.1668(4) 0.1382(4)
C161_4 C 0.6444(3) 0.2734(4) 0.0424(5)
N46_4 N 0.6606(2) 0.2100(3) 0.1452(3)
C162_4 C 0.6463(3) 0.3056(4) 0.0122(4)
C163_4 C 0.6427(3) 0.3402(4) 0.0322(3)
C168_4 C 0.7853(4) 0.1501(5) 0.1378(5)
N48_4 N 0.6434(3) 0.1721(3) 0.1525(5)
H161_4 H 0.616874 0.166031 0.150634
C169_4 C 0.7127(4) 0.1689(4) 0.1582(5)
C170_4 C 0.7001(3) 0.2072(3) 0.1492(3)
C171_4 C 0.7562(4) 0.1535(3) 0.1675(4)
C172_4 C 0.6410(5) 0.3851(3) 0.0149(4)
H163_4 H 0.667617 0.391984 0.001812
H164_4 H 0.635493 0.404554 0.037639
C173_4 C 0.7285(3) 0.2477(4) 0.1413(4)
H165_4 H 0.757633 0.239354 0.138520
H166_4 H 0.725652 0.266848 0.164879
H167_4 H 0.719440 0.261687 0.115805
C174_4 C 0.7845(4) 0.1539(5) 0.0865(5)
H168_4 H 0.798961 0.179327 0.078011
H169_4 H 0.755670 0.154871 0.076859
H170_4 H 0.798509 0.129729 0.074365
C175_4 C 0.6503(5) 0.2244(3) 0.0366(4)
H171_4 H 0.674370 0.219102 0.018757
H172_4 H 0.625315 0.212637 0.023791
H173_4 H 0.654794 0.211427 0.063828
C176_4 C 0.6750(4) 0.1442(5) 0.1633(9)
C177_4 C 0.7751(4) 0.1442(3) 0.2062(4)
C179_4 C 0.7604(5) 0.1421(6) 0.2472(5)
H177_4 H 0.770106 0.116340 0.260118
H178_4 H 0.729956 0.142636 0.247079
H179_4 H 0.770916 0.165990 0.262902
C180_4 C 0.6639(5) 0.1028(4) 0.1830(7)
H180_4 H 0.644017 0.107356 0.205656
H181_4 H 0.689022 0.089668 0.194030
H182_4 H 0.651300 0.084655 0.162008
C181_4 C 0.4768(2) 0.2263(3) 0.1453(3)
H183_4 H 0.489401 0.241399 0.167316
C182_4 C 0.5021(3) 0.2101(3) 0.1119(3)
C183_4 C 0.4829(3) 0.1871(3) 0.0783(3)
H184_4 H 0.499430 0.176415 0.056311
C184_4 C 0.4384(2) 0.1803(4) 0.0783(3)
H185_4 H 0.425790 0.165173 0.056274
C185_4 C 0.4131(2) 0.1965(2) 0.1117(3)
C186_4 C 0.4323(2) 0.2195(3) 0.1453(2)
C187_4 C 0.4070(3) 0.2357(4) 0.1789(3)
H186_4 H 0.419592 0.250782 0.200890
C188_4 C 0.3625(3) 0.2289(4) 0.1788(4)
H187_4 H 0.345935 0.239544 0.200732
C189_4 C 0.3433(3) 0.2059(3) 0.1452(3)
C190_4 C 0.3686(3) 0.1897(3) 0.1117(3)
H188_4 H 0.356018 0.174636 0.089653
C191_4 C 0.5502(4) 0.2182(3) 0.1129(3)
C192_4 C 0.2966(4) 0.1996(4) 0.1449(4)
O25_4 O 0.2808(5) 0.2353(5) 0.1523(8)
O26_4 O 0.5731(3) 0.1983(6) 0.0877(5)
O31_2 O 0.1382(4) 0.2854(3) 0.1668(4)
N61_4 N 0.6326(2) 0.3022(3) 0.1831(3)
N34_4 N 0.1376(2) 0.2114(2) 0.9180(3)
O19_4 O 0.0635(2) 0.2552(3) 0.8606(3)
C129_4 C 0.1444(3) 0.2266(4) 0.9576(5)
N38_4 N 0.1606(2) 0.2900(3) 0.8548(3)
C130_4 C 0.1463(3) 0.1944(4) 0.9878(4)
C131_4 C 0.1427(3) 0.1598(4) 0.9678(3)
C136_4 C 0.2853(4) 0.3499(5) 0.8622(5)
N40_4 N 0.1434(3) 0.3279(3) 0.8475(5)
H130_4 H 0.116874 0.333969 0.849366
C137_4 C 0.2127(4) 0.3311(4) 0.8418(5)
C138_4 C 0.2001(3) 0.2928(3) 0.8508(3)
C139_4 C 0.2562(4) 0.3465(3) 0.8325(4)
C140_4 C 0.1410(5) 0.1149(3) 0.9851(4)
H132_4 H 0.167617 0.108016 0.998188
H133_4 H 0.135493 0.095446 0.962361
C141_4 C 0.2285(3) 0.2523(4) 0.8587(4)
H134_4 H 0.257633 0.260646 0.861480
H135_4 H 0.225652 0.233152 0.835121
H136_4 H 0.219440 0.238313 0.884195
C142_4 C 0.2845(4) 0.3461(5) 0.9135(5)
H137_4 H 0.298961 0.320673 0.921989
H138_4 H 0.255670 0.345129 0.923141
H139_4 H 0.298509 0.370271 0.925635
C143_4 C 0.1503(5) 0.2756(3) 0.9634(4)
H140_4 H 0.174370 0.280898 0.981243
H141_4 H 0.125315 0.287363 0.976209
H142_4 H 0.154794 0.288573 0.936172
C144_4 C 0.1750(4) 0.3558(5) 0.8367(9)
C145_4 C 0.2751(4) 0.3558(3) 0.7938(4)
C147_4 C 0.2604(5) 0.3579(6) 0.7528(5)
H146_4 H 0.270106 0.383660 0.739882
H147_4 H 0.229956 0.357364 0.752921
H148_4 H 0.270916 0.334010 0.737098
C148_4 C 0.1639(5) 0.3972(4) 0.8170(7)
H149_4 H 0.144017 0.392644 0.794344
H150_4 H 0.189022 0.410332 0.805970
H151_4 H 0.151300 0.415345 0.837992
C150_4 C 0.0021(3) 0.2899(3) 0.8881(3)
C159_4 C 0.0502(4) 0.2818(3) 0.8871(3)
O22_4 O 0.0731(3) 0.3017(6) 0.9123(5)
N41_4 N 0.69239(18) 0.3075(2) 0.9055(2)
N45_4 N 0.6548(2) 0.2910(2) 0.8967(3)
C164_4 C 0.6947(2) 0.3120(3) 0.9481(3)
C165_4 C 0.7352(4) 0.3267(5) 0.9660(3)
H158_4 H 0.758233 0.315072 0.949867
H159_4 H 0.737382 0.317451 0.994957
H160_4 H 0.736343 0.357104 0.964955
C166_4 C 0.6318(3) 0.2866(3) 0.9337(3)
C167_4 C 0.6587(3) 0.2989(3) 0.9660(3)
H162_4 H 0.618711 0.387127 0.994186
C178_4 C 0.5882(4) 0.2708(4) 0.9355(4)
H174_4 H 0.568896 0.294335 0.935976
H175_4 H 0.584504 0.254124 0.960734
H176_4 H 0.582635 0.253557 0.911038
Zn3_4 Zn 0.23776(5) 0.86484(5) 0.12221(4)
N2_6 N 0.2114(2) 0.9180(3) 0.1376(2)
O2_6 O 0.2552(3) 0.8606(3) 0.0635(2)
C1_6 C 0.2266(4) 0.9576(5) 0.1444(3)
N6_6 N 0.2900(3) 0.8548(3) 0.1606(2)
C2_6 C 0.1944(4) 0.9878(4) 0.1463(3)
C3_6 C 0.1598(4) 0.9678(3) 0.1427(3)
C8_6 C 0.3499(5) 0.8622(5) 0.2853(4)
N8_6 N 0.3279(3) 0.8475(5) 0.1434(3)
H5_6 H 0.333969 0.849366 0.116874
C9_6 C 0.3311(4) 0.8418(5) 0.2127(4)
C10_6 C 0.2928(3) 0.8508(3) 0.2001(3)
C11_6 C 0.3465(3) 0.8325(4) 0.2562(4)
C12_6 C 0.1149(3) 0.9851(4) 0.1410(5)
H7_6 H 0.108016 0.998188 0.167617
H8_6 H 0.095446 0.962361 0.135493
C13_6 C 0.2523(4) 0.8587(4) 0.2285(3)
H9_6 H 0.260646 0.861480 0.257633
H10_6 H 0.233152 0.835121 0.225652
H11_6 H 0.238313 0.884195 0.219440
C14_6 C 0.3461(5) 0.9135(5) 0.2845(4)
H12_6 H 0.320673 0.921989 0.298961
H13_6 H 0.345129 0.923141 0.255670
H14_6 H 0.370271 0.925635 0.298509
C15_6 C 0.2756(3) 0.9634(4) 0.1503(5)
H15_6 H 0.280898 0.981243 0.174370
H16_6 H 0.287363 0.976209 0.125315
H17_6 H 0.288573 0.936172 0.154794
C16_6 C 0.3558(5) 0.8367(9) 0.1750(4)
C17_6 C 0.3558(3) 0.7938(4) 0.2751(4)
C19_6 C 0.3579(6) 0.7528(5) 0.2604(5)
H21_6 H 0.383660 0.739882 0.270106
H22_6 H 0.357364 0.752921 0.229956
H23_6 H 0.334010 0.737098 0.270916
C20_6 C 0.3972(4) 0.8170(7) 0.1639(5)
H24_6 H 0.392644 0.794344 0.144017
H25_6 H 0.410332 0.805970 0.189022
H26_6 H 0.415345 0.837992 0.151300
C22_6 C 0.2899(3) 0.8881(3) 0.0021(3)
C31_6 C 0.2818(3) 0.8871(3) 0.0502(4)
O5_6 O 0.3017(6) 0.9123(5) 0.0731(3)
N18_4 N 0.0820(3) 0.6376(2) 0.2886(2)
O11_4 O 0.1394(3) 0.5635(2) 0.2448(3)
C65_4 C 0.0424(5) 0.6444(3) 0.2734(4)
N22_4 N 0.1452(3) 0.6606(2) 0.2100(3)
C66_4 C 0.0122(4) 0.6463(3) 0.3056(4)
C67_4 C 0.0322(3) 0.6427(3) 0.3402(4)
N23_4 N 0.1978(3) 0.8169(3) 0.1326(2)
C72_4 C 0.1378(5) 0.7853(4) 0.1501(5)
N24_4 N 0.1525(5) 0.6434(3) 0.1721(3)
H68_4 H 0.150634 0.616874 0.166031
C73_4 C 0.1582(5) 0.7127(4) 0.1689(4)
C74_4 C 0.1492(3) 0.7001(3) 0.2072(3)
C75_4 C 0.1675(4) 0.7562(4) 0.1535(3)
C76_4 C 0.0149(4) 0.6410(5) 0.3851(3)
H70_4 H 0.001812 0.667617 0.391984
H71_4 H 0.037639 0.635493 0.404554
C77_4 C 0.1413(4) 0.7285(3) 0.2477(4)
H72_4 H 0.138520 0.757633 0.239354
H73_4 H 0.164879 0.725652 0.266848
H74_4 H 0.115805 0.719440 0.261687
C78_4 C 0.0865(5) 0.7845(4) 0.1539(5)
H75_4 H 0.078011 0.798961 0.179327
H76_4 H 0.076859 0.755670 0.154871
H77_4 H 0.074365 0.798509 0.129729
C79_4 C 0.0366(4) 0.6503(5) 0.2244(3)
H78_4 H 0.018757 0.674370 0.219102
H79_4 H 0.023791 0.625315 0.212637
H80_4 H 0.063828 0.654794 0.211427
C80_4 C 0.1633(9) 0.6750(4) 0.1442(5)
C81_4 C 0.2062(4) 0.7751(4) 0.1442(3)
C83_4 C 0.2472(5) 0.7604(5) 0.1421(6)
H84_4 H 0.260118 0.770106 0.116340
H85_4 H 0.247079 0.729956 0.142636
H86_4 H 0.262902 0.770916 0.165990
C84_4 C 0.1830(7) 0.6639(5) 0.1028(4)
H87_4 H 0.205656 0.644017 0.107356
H88_4 H 0.194030 0.689022 0.089668
H89_4 H 0.162008 0.651300 0.084655
C85_4 C 0.1453(3) 0.4768(2) 0.2263(3)
H90_4 H 0.167316 0.489401 0.241399
C86_4 C 0.1119(3) 0.5021(3) 0.2101(3)
C87_4 C 0.0783(3) 0.4829(3) 0.1871(3)
H91_4 H 0.056311 0.499430 0.176415
C88_4 C 0.0783(3) 0.4384(2) 0.1803(4)
H92_4 H 0.056274 0.425790 0.165173
C89_4 C 0.1117(3) 0.4131(2) 0.1965(2)
C90_4 C 0.1453(2) 0.4323(2) 0.2195(3)
C91_4 C 0.1789(3) 0.4070(3) 0.2357(4)
H93_4 H 0.200890 0.419592 0.250782
C92_4 C 0.1788(4) 0.3625(3) 0.2289(4)
H94_4 H 0.200732 0.345935 0.239544
C93_4 C 0.1452(3) 0.3433(3) 0.2059(3)
C94_4 C 0.1117(3) 0.3686(3) 0.1897(3)
H95_4 H 0.089653 0.356018 0.174636
C95_4 C 0.1129(3) 0.5502(4) 0.2182(3)
C96_4 C 0.1449(4) 0.2966(4) 0.1996(4)
O13_4 O 0.1523(8) 0.2808(5) 0.2353(5)
O14_4 O 0.0877(5) 0.5731(3) 0.1983(6)
H189_6 H 0.178312 0.263095 0.23376
C21_6 C 0.2737(3) 0.8547(3) 0.9768(2)
H27_6 H 0.258601 0.832684 0.989401
C23_6 C 0.3129(3) 0.9217(3) 0.9829(3)
H28_6 H 0.323585 0.943689 0.999430
C24_6 C 0.3197(4) 0.9217(3) 0.9384(2)
H29_6 H 0.334827 0.943726 0.925790
C25_6 C 0.3035(2) 0.8883(3) 0.9131(2)
C26_6 C 0.2805(3) 0.8547(2) 0.9323(2)
C27_6 C 0.2643(4) 0.8211(3) 0.9070(3)
H30_6 H 0.249218 0.799110 0.919592
C28_6 C 0.2711(4) 0.8212(4) 0.8625(3)
H31_6 H 0.260456 0.799268 0.845935
C29_6 C 0.2941(3) 0.8548(3) 0.8433(3)
C30_6 C 0.3103(3) 0.8883(3) 0.8686(3)
H32_6 H 0.325364 0.910347 0.856018
C32_6 C 0.3004(4) 0.8551(4) 0.7966(4)
O4_6 O 0.2647(5) 0.8477(8) 0.7808(5)
O20_4 O 0.7854(3) 0.3332(4) 0.8618(4)
C149_4 C 0.9768(2) 0.2737(3) 0.8547(3)
H152_4 H 0.989401 0.258601 0.832684
C151_4 C 0.9829(3) 0.3129(3) 0.9217(3)
H153_4 H 0.999430 0.323585 0.943689
C152_4 C 0.9384(2) 0.3197(4) 0.9217(3)
H154_4 H 0.925790 0.334827 0.943726
C153_4 C 0.9131(2) 0.3035(2) 0.8883(3)
C154_4 C 0.9323(2) 0.2805(3) 0.8547(2)
C155_4 C 0.9070(3) 0.2643(4) 0.8211(3)
H155_4 H 0.919592 0.249218 0.799110
C156_4 C 0.8625(3) 0.2711(4) 0.8212(4)
H156_4 H 0.845935 0.260456 0.799268
C157_4 C 0.8433(3) 0.2941(3) 0.8548(3)
C158_4 C 0.8686(3) 0.3103(3) 0.8883(3)
H157_4 H 0.856018 0.325364 0.910347
C160_4 C 0.7966(4) 0.3004(4) 0.8551(4)
O21_4 O 0.7808(5) 0.2647(5) 0.8477(8)
H190_10 H 0.763095 0.26624 0.821688
Zn7_4 Zn 0.83582(4) 0.64153(4) 0.27664(3)
H64_4 H 0.791447 0.708553 0.291447
N21_4 N 0.8967(3) 0.6548(2) 0.2910(2)
C68_4 C 0.9481(3) 0.6947(2) 0.3120(3)
C69_4 C 0.9660(3) 0.7352(4) 0.3267(5)
H65_4 H 0.949867 0.758233 0.315072
H66_4 H 0.994957 0.737382 0.317451
H67_4 H 0.964955 0.736343 0.357104
C70_4 C 0.9337(3) 0.6318(3) 0.2866(3)
C71_4 C 0.9660(3) 0.6587(3) 0.2989(3)
H69_4 H 0.994186 0.618711 0.387127
C82_4 C 0.9355(4) 0.5882(4) 0.2708(4)
H81_4 H 0.935976 0.568896 0.294335
H82_4 H 0.960734 0.584504 0.254124
H83_4 H 0.911038 0.582635 0.253557
N50_4 N 0.8075(2) 0.5945(2) 0.30761(18)
O30_4 O 0.8332(4) 0.6382(4) 0.2146(3)
H190_11 H 0.236905 0.76624 0.678312
N2_7 N 0.7886(2) 0.4180(3) 0.3624(2)
O2_7 O 0.7448(3) 0.3606(3) 0.4365(2)
C1_7 C 0.7734(4) 0.4576(5) 0.3556(3)
N5_7 N 0.7910(2) 0.6033(3) 0.3452(2)
N6_7 N 0.7100(3) 0.3548(3) 0.3394(2)
C2_7 C 0.8056(4) 0.4878(4) 0.3537(3)
C3_7 C 0.8402(4) 0.4678(3) 0.3573(3)
C4_7 C 0.8120(3) 0.5519(3) 0.3053(2)
C5_7 C 0.8267(5) 0.5340(3) 0.2648(4)
H2_7 H 0.815072 0.550133 0.241767
H3_7 H 0.817451 0.505043 0.262618
H4_7 H 0.857104 0.535045 0.263657
C6_7 C 0.7866(3) 0.5663(3) 0.3682(3)
C7_7 C 0.7989(3) 0.5340(3) 0.3413(3)
C8_7 C 0.6501(5) 0.3622(5) 0.2147(4)
N8_7 N 0.6721(3) 0.3475(5) 0.3566(3)
H5_7 H 0.666031 0.349366 0.383126
C9_7 C 0.6689(4) 0.3418(5) 0.2873(4)
C10_7 C 0.7072(3) 0.3508(3) 0.2999(3)
C11_7 C 0.6535(3) 0.3325(4) 0.2438(4)
C12_7 C 0.8851(3) 0.4851(4) 0.3590(5)
H6_7 H 0.887127 0.505814 0.381289
H7_7 H 0.891984 0.498188 0.332383
H8_7 H 0.904554 0.462361 0.364507
C13_7 C 0.7477(4) 0.3587(4) 0.2715(3)
H9_7 H 0.739354 0.361480 0.242367
H10_7 H 0.766848 0.335121 0.274348
H11_7 H 0.761687 0.384195 0.280560
C14_7 C 0.6539(5) 0.4135(5) 0.2155(4)
H12_7 H 0.679327 0.421989 0.201039
H13_7 H 0.654871 0.423141 0.244330
H14_7 H 0.629729 0.425635 0.201491
C15_7 C 0.7244(3) 0.4634(4) 0.3497(5)
H15_7 H 0.719102 0.481243 0.325630
H16_7 H 0.712637 0.476209 0.374685
H17_7 H 0.711427 0.436172 0.345206
C16_7 C 0.6442(5) 0.3367(9) 0.3250(4)
C17_7 C 0.6442(3) 0.2938(4) 0.2249(4)
C18_7 C 0.7708(4) 0.5645(4) 0.4118(4)
H18_7 H 0.794335 0.564024 0.431104
H19_7 H 0.754124 0.539266 0.415496
H20_7 H 0.753557 0.588962 0.417365
C19_7 C 0.6421(6) 0.2528(5) 0.2396(5)
H21_7 H 0.616340 0.239882 0.229894
H22_7 H 0.642636 0.252921 0.270044
H23_7 H 0.665990 0.237098 0.229084
C20_7 C 0.6028(4) 0.3170(7) 0.3361(5)
H24_7 H 0.607356 0.294344 0.355983
H25_7 H 0.589668 0.305970 0.310978
H26_7 H 0.584655 0.337992 0.348700
C21_7 C 0.7263(3) 0.3547(3) 0.5232(2)
H27_7 H 0.741399 0.332684 0.510599
C22_7 C 0.7101(3) 0.3881(3) 0.4979(3)
C23_7 C 0.6871(3) 0.4217(3) 0.5171(3)
H28_7 H 0.676415 0.443689 0.500570
C24_7 C 0.6803(4) 0.4217(3) 0.5616(2)
H29_7 H 0.665173 0.443726 0.574210
C25_7 C 0.6965(2) 0.3883(3) 0.5869(2)
C26_7 C 0.7195(3) 0.3547(2) 0.5677(2)
C27_7 C 0.7357(4) 0.3211(3) 0.5930(3)
H30_7 H 0.750782 0.299110 0.580408
C28_7 C 0.7289(4) 0.3212(4) 0.6375(3)
H31_7 H 0.739544 0.299268 0.654065
C29_7 C 0.7059(3) 0.3548(3) 0.6567(3)
C30_7 C 0.6897(3) 0.3883(3) 0.6314(3)
H32_7 H 0.674636 0.410347 0.643982
C31_7 C 0.7182(3) 0.3871(3) 0.4498(4)
C32_7 C 0.6996(4) 0.3551(4) 0.7034(4)
O4_7 O 0.7353(5) 0.3477(8) 0.7192(5)
O5_7 O 0.6983(6) 0.4123(5) 0.4269(3)
H189_7 H 0.821688 0.763095 0.26624
H189_8 H 0.678312 0.236905 0.76624
C21_8 C 0.7737(3) 0.6453(3) 0.0232(2)
H27_8 H 0.758601 0.667316 0.010599
C23_8 C 0.8129(3) 0.5783(3) 0.0171(3)
H28_8 H 0.823585 0.556311 0.000570
C24_8 C 0.8197(4) 0.5783(3) 0.0616(2)
H29_8 H 0.834827 0.556274 0.074210
C25_8 C 0.8035(2) 0.6117(3) 0.0869(2)
C26_8 C 0.7805(3) 0.6453(2) 0.0677(2)
C27_8 C 0.7643(4) 0.6789(3) 0.0930(3)
H30_8 H 0.749218 0.700890 0.080408
C28_8 C 0.7711(4) 0.6788(4) 0.1375(3)
H31_8 H 0.760456 0.700732 0.154065
C29_8 C 0.7941(3) 0.6452(3) 0.1567(3)
C30_8 C 0.8103(3) 0.6117(3) 0.1314(3)
H32_8 H 0.825364 0.589653 0.143982
C32_8 C 0.8004(4) 0.6449(4) 0.2034(4)
O4_8 O 0.7647(5) 0.6523(8) 0.2192(5)
H190_12 H 0.263095 0.23376 0.178312
N2_8 N 0.7114(2) 0.5820(3) 0.8624(2)
O2_8 O 0.7552(3) 0.6394(3) 0.9365(2)
C1_8 C 0.7266(4) 0.5424(5) 0.8556(3)
N5_8 N 0.7090(2) 0.3967(3) 0.8452(2)
N6_8 N 0.7900(3) 0.6452(3) 0.8394(2)
C2_8 C 0.6944(4) 0.5122(4) 0.8537(3)
C3_8 C 0.6598(4) 0.5322(3) 0.8573(3)
C4_8 C 0.6880(3) 0.4481(3) 0.8053(2)
C5_8 C 0.6733(5) 0.4660(3) 0.7648(4)
H2_8 H 0.684928 0.449867 0.741767
H3_8 H 0.682549 0.494957 0.762618
H4_8 H 0.642896 0.464955 0.763657
C6_8 C 0.7134(3) 0.4337(3) 0.8682(3)
C7_8 C 0.7011(3) 0.4660(3) 0.8413(3)
C8_8 C 0.8499(5) 0.6378(5) 0.7147(4)
N8_8 N 0.8279(3) 0.6525(5) 0.8566(3)
H5_8 H 0.833969 0.650634 0.883126
C9_8 C 0.8311(4) 0.6582(5) 0.7873(4)
C10_8 C 0.7928(3) 0.6492(3) 0.7999(3)
C11_8 C 0.8465(3) 0.6675(4) 0.7438(4)
C12_8 C 0.6149(3) 0.5149(4) 0.8590(5)
H6_8 H 0.612873 0.494186 0.881289
H7_8 H 0.608016 0.501812 0.832383
H8_8 H 0.595446 0.537639 0.864507
C13_8 C 0.7523(4) 0.6413(4) 0.7715(3)
H9_8 H 0.760646 0.638520 0.742367
H10_8 H 0.733152 0.664879 0.774348
H11_8 H 0.738313 0.615805 0.780560
C14_8 C 0.8461(5) 0.5865(5) 0.7155(4)
H12_8 H 0.820673 0.578011 0.701039
H13_8 H 0.845129 0.576859 0.744330
H14_8 H 0.870271 0.574365 0.701491
C15_8 C 0.7756(3) 0.5366(4) 0.8497(5)
H15_8 H 0.780898 0.518757 0.825630
H16_8 H 0.787363 0.523791 0.874685
H17_8 H 0.788573 0.563828 0.845206
C16_8 C 0.8558(5) 0.6633(9) 0.8250(4)
C17_8 C 0.8558(3) 0.7062(4) 0.7249(4)
C18_8 C 0.7292(4) 0.4355(4) 0.9118(4)
H18_8 H 0.705665 0.435976 0.931104
H19_8 H 0.745876 0.460734 0.915496
H20_8 H 0.746443 0.411038 0.917365
C19_8 C 0.8579(6) 0.7472(5) 0.7396(5)
H21_8 H 0.883660 0.760118 0.729894
H22_8 H 0.857364 0.747079 0.770044
H23_8 H 0.834010 0.762902 0.729084
C20_8 C 0.8972(4) 0.6830(7) 0.8361(5)
H24_8 H 0.892644 0.705656 0.855983
H25_8 H 0.910332 0.694030 0.810978
H26_8 H 0.915345 0.662008 0.848700
C22_8 C 0.7899(3) 0.6119(3) 0.9979(3)
C31_8 C 0.7818(3) 0.6129(3) 0.9498(4)
O5_8 O 0.8017(6) 0.5877(5) 0.9269(3)
H190_13 H 0.23376 0.178312 0.263095
H190_14 H 0.76624 0.678312 0.236905
H190_15 H 0.26624 0.821688 0.763095
H190_16 H 0.73376 0.321688 0.736905
loop_
_geom_bond_atom_site_label_1
_geom_bond_atom_site_label_2
_geom_bond_site_symmetry_1
_geom_bond_site_symmetry_2
Zn7 O10 1_555 1_555
Zn8 N18 1_555 1_555
O10 H64 1_555 1_555
N17 N21 1_555 1_555
N18 N20 1_555 1_555
O11 Zn8 1_555 1_555
N20 C67 1_555 1_555
O12 C96 1_555 1_555
C65 N18 1_555 1_555
N21 Zn7 1_555 1_555
N22 Zn8 1_555 1_555
C66 C65 1_555 1_555
C67 C66 1_555 1_555
C68 N17 1_555 1_555
C69 C68 1_555 1_555
H66 C69 1_555 1_555
H67 C69 1_555 1_555
C70 N21 1_555 1_555
C71 C66 1_555 1_555
N24 N22 1_555 1_555
H68 N24 1_555 1_555
C73 C74 1_555 1_555
C74 N22 1_555 1_555
C76 C67 1_555 1_555
H69 C76 1_555 1_555
H70 C76 1_555 1_555
H71 C76 1_555 1_555
C77 C74 1_555 1_555
H73 C77 1_555 1_555
H74 C77 1_555 1_555
C79 C65 1_555 1_555
H78 C79 1_555 1_555
H79 C79 1_555 1_555
H80 C79 1_555 1_555
C80 N24 1_555 1_555
C82 C70 1_555 1_555
H81 C82 1_555 1_555
H82 C82 1_555 1_555
H83 C82 1_555 1_555
C84 C80 1_555 1_555
H87 C84 1_555 1_555
H88 C84 1_555 1_555
H89 C84 1_555 1_555
C85 H90 1_555 1_555
C86 C85 1_555 1_555
C87 C86 1_555 1_555
H91 C87 1_555 1_555
C88 C87 1_555 1_555
H92 C88 1_555 1_555
C89 C88 1_555 1_555
C90 C85 1_555 1_555
C91 C90 1_555 1_555
H93 C91 1_555 1_555
C92 C91 1_555 1_555
H94 C92 1_555 1_555
C93 C92 1_555 1_555
C94 C89 1_555 1_555
H95 C94 1_555 1_555
C95 O11 1_555 1_555
C96 C93 1_555 1_555
O13 C96 1_555 1_555
O14 C95 1_555 1_555
N27 N31 1_555 1_555
N31 C113 1_555 1_555
C104 N27 1_555 1_555
C107 C104 1_555 1_555
C110 C104 1_555 1_555
H106 C110 1_555 1_555
H107 C110 1_555 1_555
H108 C110 1_555 1_555
C113 C107 1_555 1_555
C115 C113 1_555 1_555
Zn18 O10 1_555 1_555
Zn19 O12 1_555 1_555
Zn22 N27 1_555 1_555
Zn25 N20 1_555 1_555
Zn30 N31 1_555 1_555
N50 Zn7 1_555 1_555
O30 Zn7 1_555 1_555
N64 Zn8 1_555 1_555
O10 Zn20 1_555 1_555
N17 Zn20 1_555 1_555
C68 C71 1_555 1_555
C70 C71 1_555 1_555
C73 C80 1_555 1_555
C86 C95 1_555 1_555
C89 C90 1_555 1_555
C93 C94 1_555 1_555
O13 H189 1_555 1_555
Zn10 N26 1_555 1_555
N25 N29 1_555 1_555
N26 N28 1_555 1_555
N28 C99 1_555 1_555
C97 N26 1_555 1_555
N29 Zn9 1_555 1_555
C98 C97 1_555 1_555
C99 C98 1_555 1_555
C100 N25 1_555 1_555
C101 C100 1_555 1_555
H97 C101 1_555 1_555
H98 C101 1_555 1_555
C102 N29 1_555 1_555
C103 C98 1_555 1_555
C108 C99 1_555 1_555
H100 C108 1_555 1_555
H101 C108 1_555 1_555
H102 C108 1_555 1_555
C114 C102 1_555 1_555
H112 C114 1_555 1_555
H113 C114 1_555 1_555
H114 C114 1_555 1_555
Zn21 N25 1_555 1_555
Zn26 N28 1_555 1_555
O27 Zn9 1_555 1_555
N49 Zn9 1_555 1_555
N63 Zn10 1_555 1_555
C100 C103 1_555 1_555
C102 C103 1_555 1_555
Zn21 O27 1_555 1_555
Zn1 O1 1_555 1_555
Zn2 N4 1_555 1_555
Zn3 N2 1_555 1_555
O1 H1 1_555 1_555
N1 N5 1_555 1_555
N2 N4 1_555 1_555
N3 N7 1_555 1_555
O2 Zn3 1_555 1_555
N4 C3 1_555 1_555
O3 C32 1_555 1_555
C1 N2 1_555 1_555
N5 Zn1 1_555 1_555
N6 Zn3 1_555 1_555
C2 C1 1_555 1_555
C3 C2 1_555 1_555
N7 C17 1_555 1_555
C4 N1 1_555 1_555
C5 C4 1_555 1_555
H2 C5 1_555 1_555
H3 C5 1_555 1_555
H4 C5 1_555 1_555
C6 N5 1_555 1_555
C7 C2 1_555 1_555
C8 N3 1_555 1_555
N8 N6 1_555 1_555
H5 N8 1_555 1_555
C9 C10 1_555 1_555
C10 N6 1_555 1_555
C11 C8 1_555 1_555
C12 C3 1_555 1_555
H6 C12 1_555 1_555
H7 C12 1_555 1_555
H8 C12 1_555 1_555
C13 C10 1_555 1_555
H9 C13 1_555 1_555
H10 C13 1_555 1_555
H11 C13 1_555 1_555
C14 C8 1_555 1_555
H12 C14 1_555 1_555
H13 C14 1_555 1_555
H14 C14 1_555 1_555
C15 C1 1_555 1_555
H15 C15 1_555 1_555
H16 C15 1_555 1_555
H17 C15 1_555 1_555
C16 N8 1_555 1_555
C17 C11 1_555 1_555
C18 C6 1_555 1_555
H18 C18 1_555 1_555
H19 C18 1_555 1_555
H20 C18 1_555 1_555
C19 C17 1_555 1_555
H22 C19 1_555 1_555
C20 C16 1_555 1_555
H24 C20 1_555 1_555
H25 C20 1_555 1_555
H26 C20 1_555 1_555
C21 H27 1_555 1_555
C22 C21 1_555 1_555
C23 C22 1_555 1_555
H28 C23 1_555 1_555
C24 C23 1_555 1_555
H29 C24 1_555 1_555
C25 C24 1_555 1_555
C26 C21 1_555 1_555
C27 C26 1_555 1_555
H30 C27 1_555 1_555
C28 C27 1_555 1_555
H31 C28 1_555 1_555
C29 C28 1_555 1_555
C30 C25 1_555 1_555
H32 C30 1_555 1_555
C31 O2 1_555 1_555
C32 C29 1_555 1_555
O4 C32 1_555 1_555
O5 C31 1_555 1_555
Zn4 O1 1_555 1_555
Zn5 N12 1_555 1_555
Zn6 N10 1_555 1_555
N9 N13 1_555 1_555
N10 N12 1_555 1_555
N11 N15 1_555 1_555
O6 Zn6 1_555 1_555
N12 C35 1_555 1_555
O7 C64 1_555 1_555
C33 N10 1_555 1_555
N13 Zn4 1_555 1_555
N14 Zn6 1_555 1_555
C34 C33 1_555 1_555
C35 C34 1_555 1_555
N15 C49 1_555 1_555
C36 N9 1_555 1_555
C37 C36 1_555 1_555
H33 C37 1_555 1_555
H34 C37 1_555 1_555
H35 C37 1_555 1_555
C38 N13 1_555 1_555
C39 C34 1_555 1_555
C40 N11 1_555 1_555
N16 N14 1_555 1_555
H36 N16 1_555 1_555
C41 C42 1_555 1_555
C42 N14 1_555 1_555
C43 C40 1_555 1_555
C44 C35 1_555 1_555
H37 C44 1_555 1_555
H38 C44 1_555 1_555
H39 C44 1_555 1_555
C45 C42 1_555 1_555
H40 C45 1_555 1_555
H41 C45 1_555 1_555
H42 C45 1_555 1_555
C46 C40 1_555 1_555
H43 C46 1_555 1_555
H44 C46 1_555 1_555
H45 C46 1_555 1_555
C47 C33 1_555 1_555
H46 C47 1_555 1_555
H47 C47 1_555 1_555
H48 C47 1_555 1_555
C48 N16 1_555 1_555
C49 C43 1_555 1_555
C50 C38 1_555 1_555
H49 C50 1_555 1_555
H50 C50 1_555 1_555
H51 C50 1_555 1_555
C51 C49 1_555 1_555
H53 C51 1_555 1_555
C52 C48 1_555 1_555
H55 C52 1_555 1_555
H56 C52 1_555 1_555
H57 C52 1_555 1_555
C53 H58 1_555 1_555
C54 C53 1_555 1_555
C55 C54 1_555 1_555
H59 C55 1_555 1_555
C56 C55 1_555 1_555
H60 C56 1_555 1_555
C57 C56 1_555 1_555
C58 C53 1_555 1_555
C59 C58 1_555 1_555
H61 C59 1_555 1_555
C60 C59 1_555 1_555
H62 C60 1_555 1_555
C61 C60 1_555 1_555
C62 C57 1_555 1_555
H63 C62 1_555 1_555
C63 O6 1_555 1_555
C64 C61 1_555 1_555
O8 C64 1_555 1_555
O9 C63 1_555 1_555
N19 Zn2 1_555 1_555
N23 Zn3 1_555 1_555
C72 N19 1_555 1_555
C75 C72 1_555 1_555
C78 C72 1_555 1_555
H75 C78 1_555 1_555
H76 C78 1_555 1_555
H77 C78 1_555 1_555
C81 N23 1_555 1_555
C83 C81 1_555 1_555
H84 C83 1_555 1_555
H86 C83 1_555 1_555
O16 C128 1_555 1_555
N32 N30 1_555 1_555
H99 N32 1_555 1_555
C105 C106 1_555 1_555
C106 N30 1_555 1_555
C109 C106 1_555 1_555
H109 C111 1_555 1_555
H110 C111 1_555 1_555
H111 C111 1_555 1_555
C112 N32 1_555 1_555
C116 C112 1_555 1_555
H118 C116 1_555 1_555
H119 C116 1_555 1_555
H120 C116 1_555 1_555
C117 H121 1_555 1_555
C118 C117 1_555 1_555
C119 C118 1_555 1_555
H122 C119 1_555 1_555
C120 C119 1_555 1_555
H123 C120 1_555 1_555
C121 C120 1_555 1_555
C122 C117 1_555 1_555
C123 C122 1_555 1_555
C124 C123 1_555 1_555
H125 C124 1_555 1_555
C125 C124 1_555 1_555
C126 C121 1_555 1_555
H126 C126 1_555 1_555
C127 O15 1_555 1_555
C128 C125 1_555 1_555
O17 C128 1_555 1_555
O18 C127 1_555 1_555
Zn19 O1 1_555 1_555
Zn12 N34 1_555 1_555
N33 Zn1 1_555 1_555
N34 N36 1_555 1_555
N35 N39 1_555 1_555
O19 Zn12 1_555 1_555
N36 C131 1_555 1_555
O20 C160 1_555 1_555
C129 N34 1_555 1_555
N37 Zn19 1_555 1_555
N38 Zn12 1_555 1_555
C130 C129 1_555 1_555
C131 C130 1_555 1_555
N39 C145 1_555 1_555
C132 N33 1_555 1_555
C133 C132 1_555 1_555
H127 C133 1_555 1_555
H128 C133 1_555 1_555
H129 C133 1_555 1_555
C134 N37 1_555 1_555
C135 C130 1_555 1_555
C136 N35 1_555 1_555
N40 N38 1_555 1_555
H130 N40 1_555 1_555
C137 C138 1_555 1_555
C138 N38 1_555 1_555
C139 C136 1_555 1_555
C140 C131 1_555 1_555
H131 C140 1_555 1_555
H132 C140 1_555 1_555
H133 C140 1_555 1_555
C141 C138 1_555 1_555
H134 C141 1_555 1_555
H135 C141 1_555 1_555
H136 C141 1_555 1_555
C142 C136 1_555 1_555
H137 C142 1_555 1_555
H138 C142 1_555 1_555
H139 C142 1_555 1_555
C143 C129 1_555 1_555
H140 C143 1_555 1_555
H141 C143 1_555 1_555
H142 C143 1_555 1_555
C144 N40 1_555 1_555
C145 C139 1_555 1_555
C146 C134 1_555 1_555
H143 C146 1_555 1_555
H144 C146 1_555 1_555
H145 C146 1_555 1_555
C147 C145 1_555 1_555
H147 C147 1_555 1_555
C148 C144 1_555 1_555
H149 C148 1_555 1_555
H150 C148 1_555 1_555
H151 C148 1_555 1_555
C149 H152 1_555 1_555
C150 C149 1_555 1_555
C151 C150 1_555 1_555
H153 C151 1_555 1_555
C152 C151 1_555 1_555
H154 C152 1_555 1_555
C153 C152 1_555 1_555
C154 C149 1_555 1_555
C155 C154 1_555 1_555
H155 C155 1_555 1_555
C156 C155 1_555 1_555
H156 C156 1_555 1_555
C157 C156 1_555 1_555
C158 C153 1_555 1_555
H157 C158 1_555 1_555
C159 O19 1_555 1_555
C160 C157 1_555 1_555
O21 C160 1_555 1_555
O22 C159 1_555 1_555
Zn13 O16 1_555 1_555
Zn14 N42 1_555 1_555
N41 N45 1_555 1_555
N42 N44 1_555 1_555
O23 Zn14 1_555 1_555
N44 C163 1_555 1_555
O24 Zn1 1_555 1_555
C161 N42 1_555 1_555
N45 Zn13 1_555 1_555
N46 Zn14 1_555 1_555
C162 C161 1_555 1_555
C163 C162 1_555 1_555
C164 N41 1_555 1_555
C165 C164 1_555 1_555
H159 C165 1_555 1_555
H160 C165 1_555 1_555
C166 N45 1_555 1_555
C167 C162 1_555 1_555
N48 N46 1_555 1_555
H161 N48 1_555 1_555
C169 C170 1_555 1_555
C170 N46 1_555 1_555
C172 C163 1_555 1_555
H162 C172 1_555 1_555
H163 C172 1_555 1_555
H164 C172 1_555 1_555
C173 C170 1_555 1_555
H166 C173 1_555 1_555
H167 C173 1_555 1_555
C175 C161 1_555 1_555
H171 C175 1_555 1_555
H172 C175 1_555 1_555
H173 C175 1_555 1_555
C176 N48 1_555 1_555
C178 C166 1_555 1_555
H174 C178 1_555 1_555
H175 C178 1_555 1_555
H176 C178 1_555 1_555
C180 C176 1_555 1_555
H180 C180 1_555 1_555
H181 C180 1_555 1_555
H182 C180 1_555 1_555
C181 H183 1_555 1_555
C182 C181 1_555 1_555
C183 C182 1_555 1_555
H184 C183 1_555 1_555
C184 C183 1_555 1_555
H185 C184 1_555 1_555
C185 C184 1_555 1_555
C186 C181 1_555 1_555
C187 C186 1_555 1_555
H186 C187 1_555 1_555
C188 C187 1_555 1_555
H187 C188 1_555 1_555
C189 C188 1_555 1_555
C190 C185 1_555 1_555
H188 C190 1_555 1_555
C191 O23 1_555 1_555
C192 O24 1_555 1_555
O25 C192 1_555 1_555
O26 C191 1_555 1_555
Zn15 N3 1_555 1_555
Zn17 N41 1_555 1_555
Zn23 N11 1_555 1_555
Zn27 N35 1_555 1_555
Zn28 N36 1_555 1_555
Zn29 N44 1_555 1_555
Zn31 N15 1_555 1_555
Zn33 N39 1_555 1_555
Zn34 N7 1_555 1_555
O28 Zn13 1_555 1_555
N51 Zn13 1_555 1_555
N52 Zn5 1_555 1_555
N53 Zn2 1_555 1_555
N54 Zn15 1_555 1_555
N55 Zn5 1_555 1_555
N56 Zn15 1_555 1_555
N57 Zn15 1_555 1_555
N58 Zn5 1_555 1_555
N59 Zn2 1_555 1_555
O29 Zn4 1_555 1_555
N60 Zn12 1_555 1_555
N61 Zn14 1_555 1_555
N62 Zn6 1_555 1_555
N1 Zn4 1_555 1_555
C4 C7 1_555 1_555
C6 C7 1_555 1_555
C9 C11 1_555 1_555
C9 C16 1_555 1_555
C22 C31 1_555 1_555
C25 C26 1_555 1_555
C29 C30 1_555 1_555
N9 Zn19 1_555 1_555
C36 C39 1_555 1_555
C38 C39 1_555 1_555
C41 C43 1_555 1_555
C41 C48 1_555 1_555
C54 C63 1_555 1_555
C57 C58 1_555 1_555
C61 C62 1_555 1_555
N19 N23 1_555 1_555
C75 C81 1_555 1_555
C105 C112 1_555 1_555
C118 C127 1_555 1_555
C121 C122 1_555 1_555
C125 C126 1_555 1_555
N33 N37 1_555 1_555
C132 C135 1_555 1_555
C134 C135 1_555 1_555
C137 C139 1_555 1_555
C137 C144 1_555 1_555
C150 C159 1_555 1_555
C153 C154 1_555 1_555
C157 C158 1_555 1_555
C164 C167 1_555 1_555
C166 C167 1_555 1_555
C169 C176 1_555 1_555
C182 C191 1_555 1_555
C185 C186 1_555 1_555
C189 C190 1_555 1_555
C189 C192 1_555 1_555
Zn17 O28 1_555 1_555
N52 N62 1_555 1_555
O21 H190 1_555 1_555
N62 C177 1_555 1_555
C168 N52 1_555 1_555
C171 C168 1_555 1_555
C174 C168 1_555 1_555
H168 C174 1_555 1_555
H169 C174 1_555 1_555
H170 C174 1_555 1_555
C177 C171 1_555 1_555
C179 C177 1_555 1_555
H177 C179 1_555 1_555
H179 C179 1_555 1_555
N35_2 N64 1_555 1_555
O20_2 C160_2 1_555 1_555
N64 C145_2 1_555 1_555
C136_2 N35_2 1_555 1_555
N40_2 N38_2 1_555 1_555
H130_2 N40_2 1_555 1_555
C137_2 C138_2 1_555 1_555
C138_2 N38_2 1_555 1_555
C139_2 C136_2 1_555 1_555
C141_2 C138_2 1_555 1_555
H134_2 C141_2 1_555 1_555
C142_2 C136_2 1_555 1_555
H137_2 C142_2 1_555 1_555
H138_2 C142_2 1_555 1_555
H139_2 C142_2 1_555 1_555
H140_2 C143_2 1_555 1_555
H141_2 C143_2 1_555 1_555
H142_2 C143_2 1_555 1_555
C144_2 N40_2 1_555 1_555
C145_2 C139_2 1_555 1_555
C147_2 C145_2 1_555 1_555
H146_2 C147_2 1_555 1_555
H147_2 C147_2 1_555 1_555
H148_2 C147_2 1_555 1_555
C148_2 C144_2 1_555 1_555
H149_2 C148_2 1_555 1_555
H150_2 C148_2 1_555 1_555
H151_2 C148_2 1_555 1_555
C149_2 H152_2 1_555 1_555
C150_2 C149_2 1_555 1_555
C151_2 C150_2 1_555 1_555
H153_2 C151_2 1_555 1_555
C152_2 C151_2 1_555 1_555
H154_2 C152_2 1_555 1_555
C153_2 C152_2 1_555 1_555
C154_2 C149_2 1_555 1_555
C155_2 C154_2 1_555 1_555
C156_2 C155_2 1_555 1_555
H156_2 C156_2 1_555 1_555
C157_2 C156_2 1_555 1_555
C158_2 C153_2 1_555 1_555
H157_2 C158_2 1_555 1_555
C159_2 O19_2 1_555 1_555
C160_2 C157_2 1_555 1_555
O21_2 C160_2 1_555 1_555
O22_2 C159_2 1_555 1_555
Zn14_2 N42_2 1_555 1_555
N41_2 N45_2 1_555 1_555
N42_2 N44_2 1_555 1_555
N44_2 C163_2 1_555 1_555
C161_2 N42_2 1_555 1_555
N45_2 Zn20 1_555 1_555
C162_2 C161_2 1_555 1_555
C163_2 C162_2 1_555 1_555
C164_2 N41_2 1_555 1_555
C165_2 C164_2 1_555 1_555
H159_2 C165_2 1_555 1_555
H160_2 C165_2 1_555 1_555
C166_2 N45_2 1_555 1_555
C167_2 C162_2 1_555 1_555
C172_2 C163_2 1_555 1_555
H162_2 C172_2 1_555 1_555
H163_2 C172_2 1_555 1_555
H164_2 C172_2 1_555 1_555
C178_2 C166_2 1_555 1_555
H174_2 C178_2 1_555 1_555
H175_2 C178_2 1_555 1_555
H176_2 C178_2 1_555 1_555
Zn18 N41_2 1_555 1_555
Zn25 N35_2 1_555 1_555
Zn29_2 N44_2 1_555 1_555
N61_2 Zn14_2 1_555 1_555
C137_2 C139_2 1_555 1_555
C137_2 C144_2 1_555 1_555
C150_2 C159_2 1_555 1_555
C153_2 C154_2 1_555 1_555
C157_2 C158_2 1_555 1_555
C164_2 C167_2 1_555 1_555
C166_2 C167_2 1_555 1_555
O21_2 H190_2 1_555 1_555
N43 N63 1_555 1_555
N63 C177_2 1_555 1_555
C168_2 N43 1_555 1_555
C171_2 C168_2 1_555 1_555
C174_2 C168_2 1_555 1_555
H168_2 C174_2 1_555 1_555
H169_2 C174_2 1_555 1_555
H170_2 C174_2 1_555 1_555
C177_2 C171_2 1_555 1_555
C179_2 C177_2 1_555 1_555
Zn26 N43 1_555 1_555
Zn1_2 O27 1_555 1_555
Zn2_2 N4_2 1_555 1_555
Zn3_2 N2_2 1_555 1_555
O27 H1_2 1_555 1_555
N49 N5_2 1_555 1_555
N2_2 N4_2 1_555 1_555
O2_2 Zn3_2 1_555 1_555
N4_2 C3_2 1_555 1_555
O29 C32_2 1_555 1_555
C1_2 N2_2 1_555 1_555
N5_2 Zn1_2 1_555 1_555
N6_2 Zn3_2 1_555 1_555
C2_2 C1_2 1_555 1_555
C3_2 C2_2 1_555 1_555
C4_2 N49 1_555 1_555
C5_2 C4_2 1_555 1_555
H3_2 C5_2 1_555 1_555
H4_2 C5_2 1_555 1_555
C6_2 N5_2 1_555 1_555
C7_2 C2_2 1_555 1_555
N8_2 N6_2 1_555 1_555
H5_2 N8_2 1_555 1_555
C9_2 C10_2 1_555 1_555
C10_2 N6_2 1_555 1_555
C12_2 C3_2 1_555 1_555
H6_2 C12_2 1_555 1_555
H7_2 C12_2 1_555 1_555
H8_2 C12_2 1_555 1_555
C13_2 C10_2 1_555 1_555
H10_2 C13_2 1_555 1_555
H11_2 C13_2 1_555 1_555
C15_2 C1_2 1_555 1_555
H15_2 C15_2 1_555 1_555
H16_2 C15_2 1_555 1_555
H17_2 C15_2 1_555 1_555
C16_2 N8_2 1_555 1_555
C18_2 C6_2 1_555 1_555
H18_2 C18_2 1_555 1_555
H19_2 C18_2 1_555 1_555
H20_2 C18_2 1_555 1_555
C20_2 C16_2 1_555 1_555
H24_2 C20_2 1_555 1_555
H25_2 C20_2 1_555 1_555
H26_2 C20_2 1_555 1_555
C21_2 H27_2 1_555 1_555
C22_2 C21_2 1_555 1_555
C23_2 C22_2 1_555 1_555
H28_2 C23_2 1_555 1_555
C24_2 C23_2 1_555 1_555
H29_2 C24_2 1_555 1_555
C25_2 C24_2 1_555 1_555
C26_2 C21_2 1_555 1_555
C27_2 C26_2 1_555 1_555
H30_2 C27_2 1_555 1_555
C28_2 C27_2 1_555 1_555
H31_2 C28_2 1_555 1_555
C29_2 C28_2 1_555 1_555
C30_2 C25_2 1_555 1_555
H32_2 C30_2 1_555 1_555
C31_2 O2_2 1_555 1_555
C32_2 C29_2 1_555 1_555
O4_2 C32_2 1_555 1_555
O5_2 C31_2 1_555 1_555
N19_2 Zn2_2 1_555 1_555
O31 C96_2 1_555 1_555
N23_2 Zn3_2 1_555 1_555
C72_2 N19_2 1_555 1_555
N24_2 N22_2 1_555 1_555
H68_2 N24_2 1_555 1_555
C73_2 C74_2 1_555 1_555
C74_2 N22_2 1_555 1_555
C75_2 C72_2 1_555 1_555
C77_2 C74_2 1_555 1_555
H72_2 C77_2 1_555 1_555
C78_2 C72_2 1_555 1_555
H75_2 C78_2 1_555 1_555
H76_2 C78_2 1_555 1_555
H77_2 C78_2 1_555 1_555
H78_2 C79_2 1_555 1_555
H79_2 C79_2 1_555 1_555
H80_2 C79_2 1_555 1_555
C80_2 N24_2 1_555 1_555
C81_2 N23_2 1_555 1_555
C83_2 C81_2 1_555 1_555
H84_2 C83_2 1_555 1_555
H85_2 C83_2 1_555 1_555
H86_2 C83_2 1_555 1_555
C84_2 C80_2 1_555 1_555
H87_2 C84_2 1_555 1_555
H88_2 C84_2 1_555 1_555
H89_2 C84_2 1_555 1_555
C85_2 H90_2 1_555 1_555
C86_2 C85_2 1_555 1_555
C87_2 C86_2 1_555 1_555
H91_2 C87_2 1_555 1_555
C88_2 C87_2 1_555 1_555
H92_2 C88_2 1_555 1_555
C89_2 C88_2 1_555 1_555
C90_2 C85_2 1_555 1_555
C91_2 C90_2 1_555 1_555
C92_2 C91_2 1_555 1_555
H94_2 C92_2 1_555 1_555
C93_2 C92_2 1_555 1_555
C94_2 C89_2 1_555 1_555
H95_2 C94_2 1_555 1_555
C95_2 O11_2 1_555 1_555
C96_2 C93_2 1_555 1_555
O13_2 C96_2 1_555 1_555
O14_2 C95_2 1_555 1_555
Zn34 N34_2 1_555 1_555
N33_2 Zn1_2 1_555 1_555
N34_2 N56 1_555 1_555
N56 C131_2 1_555 1_555
C129_2 N34_2 1_555 1_555
N37_2 Zn21 1_555 1_555
C130_2 C129_2 1_555 1_555
C131_2 C130_2 1_555 1_555
C132_2 N33_2 1_555 1_555
C133_2 C132_2 1_555 1_555
H127_2 C133_2 1_555 1_555
H128_2 C133_2 1_555 1_555
H129_2 C133_2 1_555 1_555
C134_2 N37_2 1_555 1_555
C135_2 C130_2 1_555 1_555
C140_2 C131_2 1_555 1_555
H131_2 C140_2 1_555 1_555
H132_2 C140_2 1_555 1_555
H133_2 C140_2 1_555 1_555
C146_2 C134_2 1_555 1_555
H143_2 C146_2 1_555 1_555
H144_2 C146_2 1_555 1_555
H145_2 C146_2 1_555 1_555
O24_2 Zn1_2 1_555 1_555
N48_2 N46_2 1_555 1_555
H161_2 N48_2 1_555 1_555
C169_2 C170_2 1_555 1_555
C170_2 N46_2 1_555 1_555
C173_2 C170_2 1_555 1_555
H171_2 C175_2 1_555 1_555
H172_2 C175_2 1_555 1_555
H173_2 C175_2 1_555 1_555
C176_2 N48_2 1_555 1_555
C180_2 C176_2 1_555 1_555
H180_2 C180_2 1_555 1_555
H181_2 C180_2 1_555 1_555
H182_2 C180_2 1_555 1_555
C181_2 H183_2 1_555 1_555
C182_2 C181_2 1_555 1_555
C183_2 C182_2 1_555 1_555
H184_2 C183_2 1_555 1_555
C184_2 C183_2 1_555 1_555
H185_2 C184_2 1_555 1_555
C185_2 C184_2 1_555 1_555
C186_2 C181_2 1_555 1_555
C187_2 C186_2 1_555 1_555
C188_2 C187_2 1_555 1_555
H187_2 C188_2 1_555 1_555
C189_2 C188_2 1_555 1_555
C190_2 C185_2 1_555 1_555
H188_2 C190_2 1_555 1_555
C191_2 O23_2 1_555 1_555
C192_2 O24_2 1_555 1_555
O25_2 C192_2 1_555 1_555
O26_2 C191_2 1_555 1_555
N53_2 Zn2_2 1_555 1_555
N55_2 Zn26 1_555 1_555
N58_2 Zn26 1_555 1_555
N59_2 Zn2_2 1_555 1_555
C4_2 C7_2 1_555 1_555
C6_2 C7_2 1_555 1_555
C9_2 C16_2 1_555 1_555
C22_2 C31_2 1_555 1_555
C25_2 C26_2 1_555 1_555
C29_2 C30_2 1_555 1_555
N19_2 N23_2 1_555 1_555
C73_2 C75_2 1_555 1_555
C73_2 C80_2 1_555 1_555
C75_2 C81_2 1_555 1_555
C86_2 C95_2 1_555 1_555
C89_2 C90_2 1_555 1_555
C93_2 C94_2 1_555 1_555
N33_2 N37_2 1_555 1_555
C132_2 C135_2 1_555 1_555
C134_2 C135_2 1_555 1_555
C169_2 C176_2 1_555 1_555
C182_2 C191_2 1_555 1_555
C185_2 C186_2 1_555 1_555
C189_2 C190_2 1_555 1_555
C189_2 C192_2 1_555 1_555
O13_2 H189_2 1_555 1_555
N3_2 N60 1_555 1_555
N60 C17_2 1_555 1_555
C8_2 N3_2 1_555 1_555
C11_2 C8_2 1_555 1_555
C14_2 C8_2 1_555 1_555
H12_2 C14_2 1_555 1_555
H13_2 C14_2 1_555 1_555
H14_2 C14_2 1_555 1_555
C17_2 C11_2 1_555 1_555
C19_2 C17_2 1_555 1_555
H21_2 C19_2 1_555 1_555
H23_2 C19_2 1_555 1_555
Zn7_2 O28 1_555 1_555
Zn33 N18_2 1_555 1_555
O28 H64_2 1_555 1_555
N51 N21_2 1_555 1_555
N18_2 N20_2 1_555 1_555
N20_2 C67_2 1_555 1_555
C65_2 N18_2 1_555 1_555
N21_2 Zn7_2 1_555 1_555
C66_2 C65_2 1_555 1_555
C67_2 C66_2 1_555 1_555
C68_2 N51 1_555 1_555
C69_2 C68_2 1_555 1_555
H65_2 C69_2 1_555 1_555
H66_2 C69_2 1_555 1_555
H67_2 C69_2 1_555 1_555
C70_2 N21_2 1_555 1_555
C71_2 C66_2 1_555 1_555
C76_2 C67_2 1_555 1_555
H69_2 C76_2 1_555 1_555
H70_2 C76_2 1_555 1_555
H71_2 C76_2 1_555 1_555
C82_2 C70_2 1_555 1_555
H81_2 C82_2 1_555 1_555
H82_2 C82_2 1_555 1_555
H83_2 C82_2 1_555 1_555
Zn28 N3_2 1_555 1_555
Zn27 N20_2 1_555 1_555
N50_2 Zn7_2 1_555 1_555
N54_2 Zn28 1_555 1_555
N57_2 Zn28 1_555 1_555
C68_2 C71_2 1_555 1_555
C70_2 C71_2 1_555 1_555
Zn22 N4_3 1_555 1_555
Zn30 N2_3 1_555 1_555
N50_2 N5_3 1_555 1_555
N2_3 N4_3 1_555 1_555
N4_3 C3_3 1_555 1_555
C1_3 N2_3 1_555 1_555
N5_3 Zn17 1_555 1_555
C2_3 C1_3 1_555 1_555
C3_3 C2_3 1_555 1_555
C4_3 N50_2 1_555 1_555
C5_3 C4_3 1_555 1_555
H3_3 C5_3 1_555 1_555
H4_3 C5_3 1_555 1_555
C6_3 N5_3 1_555 1_555
C7_3 C2_3 1_555 1_555
C12_3 C3_3 1_555 1_555
H6_3 C12_3 1_555 1_555
H7_3 C12_3 1_555 1_555
H8_3 C12_3 1_555 1_555
C18_3 C6_3 1_555 1_555
H18_3 C18_3 1_555 1_555
H19_3 C18_3 1_555 1_555
H20_3 C18_3 1_555 1_555
N53_3 Zn22 1_555 1_555
N55_3 Zn27 1_555 1_555
N58_3 Zn27 1_555 1_555
N59_3 Zn22 1_555 1_555
C4_3 C7_3 1_555 1_555
C6_3 C7_3 1_555 1_555
O25 H190_3 1_555 1_555
N3_3 N61_2 1_555 1_555
N61_2 C17_3 1_555 1_555
C8_3 N3_3 1_555 1_555
C11_3 C8_3 1_555 1_555
C14_3 C8_3 1_555 1_555
H12_3 C14_3 1_555 1_555
H13_3 C14_3 1_555 1_555
H14_3 C14_3 1_555 1_555
C17_3 C11_3 1_555 1_555
C19_3 C17_3 1_555 1_555
Zn29_2 N3_3 1_555 1_555
N54_3 Zn29_2 1_555 1_555
N57_3 Zn29_2 1_555 1_555
O30 C32_3 1_555 1_555
N8_3 N6_3 1_555 1_555
H5_3 N8_3 1_555 1_555
C9_3 C10_3 1_555 1_555
C10_3 N6_3 1_555 1_555
C13_3 C10_3 1_555 1_555
H15_3 C15_3 1_555 1_555
H16_3 C15_3 1_555 1_555
H17_3 C15_3 1_555 1_555
C16_3 N8_3 1_555 1_555
C20_3 C16_3 1_555 1_555
H24_3 C20_3 1_555 1_555
H25_3 C20_3 1_555 1_555
H26_3 C20_3 1_555 1_555
C21_3 H27_3 1_555 1_555
C22_3 C21_3 1_555 1_555
C23_3 C22_3 1_555 1_555
H28_3 C23_3 1_555 1_555
C24_3 C23_3 1_555 1_555
H29_3 C24_3 1_555 1_555
C25_3 C24_3 1_555 1_555
C26_3 C21_3 1_555 1_555
C27_3 C26_3 1_555 1_555
C28_3 C27_3 1_555 1_555
H31_3 C28_3 1_555 1_555
C29_3 C28_3 1_555 1_555
C30_3 C25_3 1_555 1_555
H32_3 C30_3 1_555 1_555
C31_3 O2_3 1_555 1_555
C32_3 C29_3 1_555 1_555
O4_3 C32_3 1_555 1_555
O5_3 C31_3 1_555 1_555
C9_3 C16_3 1_555 1_555
C22_3 C31_3 1_555 1_555
C25_3 C26_3 1_555 1_555
C29_3 C30_3 1_555 1_555
O17 H189_3 1_555 1_555
N3_4 N61 1_555 1_555
O30_2 C32_4 1_555 1_555
N61 C17_4 1_555 1_555
C8_4 N3_4 1_555 1_555
N8_4 N6_4 1_555 1_555
H5_4 N8_4 1_555 1_555
C9_4 C10_4 1_555 1_555
C10_4 N6_4 1_555 1_555
C11_4 C8_4 1_555 1_555
C13_4 C10_4 1_555 1_555
H9_4 C13_4 1_555 1_555
C14_4 C8_4 1_555 1_555
H12_4 C14_4 1_555 1_555
H13_4 C14_4 1_555 1_555
H14_4 C14_4 1_555 1_555
H15_4 C15_4 1_555 1_555
H16_4 C15_4 1_555 1_555
H17_4 C15_4 1_555 1_555
C16_4 N8_4 1_555 1_555
C17_4 C11_4 1_555 1_555
C19_4 C17_4 1_555 1_555
H21_4 C19_4 1_555 1_555
H22_4 C19_4 1_555 1_555
H23_4 C19_4 1_555 1_555
C20_4 C16_4 1_555 1_555
H24_4 C20_4 1_555 1_555
H25_4 C20_4 1_555 1_555
H26_4 C20_4 1_555 1_555
C21_4 H27_4 1_555 1_555
C22_4 C21_4 1_555 1_555
C23_4 C22_4 1_555 1_555
H28_4 C23_4 1_555 1_555
C24_4 C23_4 1_555 1_555
H29_4 C24_4 1_555 1_555
C25_4 C24_4 1_555 1_555
C26_4 C21_4 1_555 1_555
C27_4 C26_4 1_555 1_555
C28_4 C27_4 1_555 1_555
H31_4 C28_4 1_555 1_555
C29_4 C28_4 1_555 1_555
C30_4 C25_4 1_555 1_555
H32_4 C30_4 1_555 1_555
C31_4 O2_4 1_555 1_555
C32_4 C29_4 1_555 1_555
O4_4 C32_4 1_555 1_555
O5_4 C31_4 1_555 1_555
Zn29 N3_4 1_555 1_555
N54_4 Zn29 1_555 1_555
N57_4 Zn29 1_555 1_555
C9_4 C11_4 1_555 1_555
C9_4 C16_4 1_555 1_555
C22_4 C31_4 1_555 1_555
C25_4 C26_4 1_555 1_555
C29_4 C30_4 1_555 1_555
Zn23 N4_4 1_555 1_555
Zn31 N2_4 1_555 1_555
N50 N5_4 1_555 1_555
N2_4 N4_4 1_555 1_555
N4_4 C3_4 1_555 1_555
C1_4 N2_4 1_555 1_555
N5_4 Zn18 1_555 1_555
C2_4 C1_4 1_555 1_555
C3_4 C2_4 1_555 1_555
C4_4 N50 1_555 1_555
C5_4 C4_4 1_555 1_555
H2_4 C5_4 1_555 1_555
H3_4 C5_4 1_555 1_555
H4_4 C5_4 1_555 1_555
C6_4 N5_4 1_555 1_555
C7_4 C2_4 1_555 1_555
C12_4 C3_4 1_555 1_555
H6_4 C12_4 1_555 1_555
H7_4 C12_4 1_555 1_555
H8_4 C12_4 1_555 1_555
C18_4 C6_4 1_555 1_555
H18_4 C18_4 1_555 1_555
H19_4 C18_4 1_555 1_555
H20_4 C18_4 1_555 1_555
N53_4 Zn23 1_555 1_555
N55_4 Zn25 1_555 1_555
N58_4 Zn25 1_555 1_555
N59_4 Zn23 1_555 1_555
C4_4 C7_4 1_555 1_555
C6_4 C7_4 1_555 1_555
O8 H189_4 1_555 1_555
O25_2 H190_4 1_555 1_555
O4 H190_5 1_555 1_555
O4_4 H190_6 1_555 1_555
O4_2 H190_7 1_555 1_555
O4_3 H190_8 1_555 1_555
Zn3_3 N2_5 1_555 1_555
N2_5 N57_4 1_555 1_555
N53_3 N7_2 1_555 1_555
O2_5 Zn3_3 1_555 1_555
N57_4 C3_5 1_555 1_555
O3_2 C32_5 1_555 1_555
C1_5 N2_5 1_555 1_555
N6_5 Zn3_3 1_555 1_555
C2_5 C1_5 1_555 1_555
C3_5 C2_5 1_555 1_555
N7_2 C17_5 1_555 1_555
C8_5 N53_3 1_555 1_555
N8_5 N6_5 1_555 1_555
H5_5 N8_5 1_555 1_555
C9_5 C10_5 1_555 1_555
C10_5 N6_5 1_555 1_555
C11_5 C8_5 1_555 1_555
C12_5 C3_5 1_555 1_555
H7_5 C12_5 1_555 1_555
H8_5 C12_5 1_555 1_555
C13_5 C10_5 1_555 1_555
H9_5 C13_5 1_555 1_555
H10_5 C13_5 1_555 1_555
H11_5 C13_5 1_555 1_555
C14_5 C8_5 1_555 1_555
H12_5 C14_5 1_555 1_555
H13_5 C14_5 1_555 1_555
H14_5 C14_5 1_555 1_555
C15_5 C1_5 1_555 1_555
H15_5 C15_5 1_555 1_555
H16_5 C15_5 1_555 1_555
H17_5 C15_5 1_555 1_555
C16_5 N8_5 1_555 1_555
C17_5 C11_5 1_555 1_555
C19_5 C17_5 1_555 1_555
H21_5 C19_5 1_555 1_555
H22_5 C19_5 1_555 1_555
H23_5 C19_5 1_555 1_555
C20_5 C16_5 1_555 1_555
H24_5 C20_5 1_555 1_555
H25_5 C20_5 1_555 1_555
H26_5 C20_5 1_555 1_555
C21_5 H27_5 1_555 1_555
C22_5 C21_5 1_555 1_555
C23_5 C22_5 1_555 1_555
H28_5 C23_5 1_555 1_555
C24_5 C23_5 1_555 1_555
H29_5 C24_5 1_555 1_555
C25_5 C24_5 1_555 1_555
C26_5 C21_5 1_555 1_555
C27_5 C26_5 1_555 1_555
H30_5 C27_5 1_555 1_555
C28_5 C27_5 1_555 1_555
H31_5 C28_5 1_555 1_555
C29_5 C28_5 1_555 1_555
C30_5 C25_5 1_555 1_555
H32_5 C30_5 1_555 1_555
C31_5 O2_5 1_555 1_555
C32_5 C29_5 1_555 1_555
O4_5 C32_5 1_555 1_555
O5_5 C31_5 1_555 1_555
O7_2 C64_2 1_555 1_555
C53_2 H58_2 1_555 1_555
H59_2 C55_2 1_555 1_555
C56_2 C55_2 1_555 1_555
H60_2 C56_2 1_555 1_555
C57_2 C56_2 1_555 1_555
C58_2 C53_2 1_555 1_555
C59_2 C58_2 1_555 1_555
H61_2 C59_2 1_555 1_555
C60_2 C59_2 1_555 1_555
H62_2 C60_2 1_555 1_555
C61_2 C60_2 1_555 1_555
C62_2 C57_2 1_555 1_555
H63_2 C62_2 1_555 1_555
C64_2 C61_2 1_555 1_555
O8_2 C64_2 1_555 1_555
Zn7_3 O10_2 1_555 1_555
Zn8_2 N18_3 1_555 1_555
O10_2 H64_3 1_555 1_555
N17_2 N21_3 1_555 1_555
N18_3 N58_3 1_555 1_555
O11_3 Zn8_2 1_555 1_555
N58_3 C67_3 1_555 1_555
O12_2 C96_3 1_555 1_555
C65_3 N18_3 1_555 1_555
N21_3 Zn7_3 1_555 1_555
N22_3 Zn8_2 1_555 1_555
C66_3 C65_3 1_555 1_555
C67_3 C66_3 1_555 1_555
N23_3 Zn3_3 1_555 1_555
C68_3 N17_2 1_555 1_555
C69_3 C68_3 1_555 1_555
H65_3 C69_3 1_555 1_555
H66_3 C69_3 1_555 1_555
H67_3 C69_3 1_555 1_555
C70_3 N21_3 1_555 1_555
C71_3 C66_3 1_555 1_555
C72_3 N54_4 1_555 1_555
N24_3 N22_3 1_555 1_555
H68_3 N24_3 1_555 1_555
C73_3 C74_3 1_555 1_555
C74_3 N22_3 1_555 1_555
C75_3 C72_3 1_555 1_555
C76_3 C67_3 1_555 1_555
H69_3 C76_3 1_555 1_555
H70_3 C76_3 1_555 1_555
H71_3 C76_3 1_555 1_555
C77_3 C74_3 1_555 1_555
H72_3 C77_3 1_555 1_555
H73_3 C77_3 1_555 1_555
H74_3 C77_3 1_555 1_555
C78_3 C72_3 1_555 1_555
H75_3 C78_3 1_555 1_555
H76_3 C78_3 1_555 1_555
H77_3 C78_3 1_555 1_555
C79_3 C65_3 1_555 1_555
H78_3 C79_3 1_555 1_555
H79_3 C79_3 1_555 1_555
H80_3 C79_3 1_555 1_555
C80_3 N24_3 1_555 1_555
C81_3 N23_3 1_555 1_555
C82_3 C70_3 1_555 1_555
H81_3 C82_3 1_555 1_555
H82_3 C82_3 1_555 1_555
H83_3 C82_3 1_555 1_555
C83_3 C81_3 1_555 1_555
H84_3 C83_3 1_555 1_555
H85_3 C83_3 1_555 1_555
H86_3 C83_3 1_555 1_555
C84_3 C80_3 1_555 1_555
H87_3 C84_3 1_555 1_555
H88_3 C84_3 1_555 1_555
H89_3 C84_3 1_555 1_555
C85_3 H90_3 1_555 1_555
C86_3 C85_3 1_555 1_555
C87_3 C86_3 1_555 1_555
H91_3 C87_3 1_555 1_555
C88_3 C87_3 1_555 1_555
H92_3 C88_3 1_555 1_555
C89_3 C88_3 1_555 1_555
C90_3 C85_3 1_555 1_555
C91_3 C90_3 1_555 1_555
H93_3 C91_3 1_555 1_555
C92_3 C91_3 1_555 1_555
H94_3 C92_3 1_555 1_555
C93_3 C92_3 1_555 1_555
C94_3 C89_3 1_555 1_555
H95_3 C94_3 1_555 1_555
C95_3 O11_3 1_555 1_555
C96_3 C93_3 1_555 1_555
O13_3 C96_3 1_555 1_555
O14_3 C95_3 1_555 1_555
Zn9_2 O3_2 1_555 1_555
N25_2 N29_2 1_555 1_555
N29_2 Zn9_2 1_555 1_555
C100_2 N25_2 1_555 1_555
C101_2 C100_2 1_555 1_555
H96_2 C101_2 1_555 1_555
H97_2 C101_2 1_555 1_555
H98_2 C101_2 1_555 1_555
C102_2 N29_2 1_555 1_555
C114_2 C102_2 1_555 1_555
H112_2 C114_2 1_555 1_555
H113_2 C114_2 1_555 1_555
H114_2 C114_2 1_555 1_555
Zn18_2 O10_2 1_555 1_555
Zn19_2 O12_2 1_555 1_555
Zn20_2 O7_2 1_555 1_555
Zn21_2 N25_2 1_555 1_555
Zn34_2 N7_2 1_555 1_555
O27_2 Zn9_2 1_555 1_555
N49_2 Zn9_2 1_555 1_555
N50_3 Zn7_3 1_555 1_555
O30_3 Zn7_3 1_555 1_555
N64_2 Zn8_2 1_555 1_555
C9_5 C11_5 1_555 1_555
C9_5 C16_5 1_555 1_555
C22_5 C31_5 1_555 1_555
C25_5 C26_5 1_555 1_555
C29_5 C30_5 1_555 1_555
C57_2 C58_2 1_555 1_555
C61_2 C62_2 1_555 1_555
O10_2 Zn20_2 1_555 1_555
N17_2 Zn20_2 1_555 1_555
N54_4 N23_3 1_555 1_555
C68_3 C71_3 1_555 1_555
C70_3 C71_3 1_555 1_555
C73_3 C75_3 1_555 1_555
C73_3 C80_3 1_555 1_555
C75_3 C81_3 1_555 1_555
C86_3 C95_3 1_555 1_555
C89_3 C90_3 1_555 1_555
C93_3 C94_3 1_555 1_555
C100_2 C103_2 1_555 1_555
C102_2 C103_2 1_555 1_555
Zn21_2 O27_2 1_555 1_555
O13_3 H189_5 1_555 1_555
Zn1_3 O1_2 1_555 1_555
O1_2 H1_3 1_555 1_555
N1_2 N5_5 1_555 1_555
N5_5 Zn1_3 1_555 1_555
C4_5 N1_2 1_555 1_555
C5_5 C4_5 1_555 1_555
H2_5 C5_5 1_555 1_555
H3_5 C5_5 1_555 1_555
H4_5 C5_5 1_555 1_555
C6_5 N5_5 1_555 1_555
C18_5 C6_5 1_555 1_555
H18_5 C18_5 1_555 1_555
H19_5 C18_5 1_555 1_555
H20_5 C18_5 1_555 1_555
Zn4_2 O1_2 1_555 1_555
Zn6_2 N10_2 1_555 1_555
N9_2 N13_2 1_555 1_555
N10_2 N58 1_555 1_555
N54_2 N15_2 1_555 1_555
O6_2 Zn6_2 1_555 1_555
N58 C35_2 1_555 1_555
C33_2 N10_2 1_555 1_555
N13_2 Zn4_2 1_555 1_555
N14_2 Zn6_2 1_555 1_555
C34_2 C33_2 1_555 1_555
C35_2 C34_2 1_555 1_555
N15_2 C49_2 1_555 1_555
C36_2 N9_2 1_555 1_555
C37_2 C36_2 1_555 1_555
H33_2 C37_2 1_555 1_555
H34_2 C37_2 1_555 1_555
H35_2 C37_2 1_555 1_555
C38_2 N13_2 1_555 1_555
C39_2 C34_2 1_555 1_555
C40_2 N54_2 1_555 1_555
N16_2 N14_2 1_555 1_555
H36_2 N16_2 1_555 1_555
C41_2 C42_2 1_555 1_555
C42_2 N14_2 1_555 1_555
C43_2 C40_2 1_555 1_555
C44_2 C35_2 1_555 1_555
H37_2 C44_2 1_555 1_555
H38_2 C44_2 1_555 1_555
H39_2 C44_2 1_555 1_555
C45_2 C42_2 1_555 1_555
H40_2 C45_2 1_555 1_555
H41_2 C45_2 1_555 1_555
H42_2 C45_2 1_555 1_555
C46_2 C40_2 1_555 1_555
H43_2 C46_2 1_555 1_555
H44_2 C46_2 1_555 1_555
H45_2 C46_2 1_555 1_555
C47_2 C33_2 1_555 1_555
H46_2 C47_2 1_555 1_555
H47_2 C47_2 1_555 1_555
H48_2 C47_2 1_555 1_555
C48_2 N16_2 1_555 1_555
C49_2 C43_2 1_555 1_555
C50_2 C38_2 1_555 1_555
H49_2 C50_2 1_555 1_555
H50_2 C50_2 1_555 1_555
H51_2 C50_2 1_555 1_555
C51_2 C49_2 1_555 1_555
H52_2 C51_2 1_555 1_555
H53_2 C51_2 1_555 1_555
H54_2 C51_2 1_555 1_555
C52_2 C48_2 1_555 1_555
H55_2 C52_2 1_555 1_555
H56_2 C52_2 1_555 1_555
H57_2 C52_2 1_555 1_555
C63_2 O6_2 1_555 1_555
O9_2 C63_2 1_555 1_555
Zn19_2 O1_2 1_555 1_555
Zn12_2 N34_3 1_555 1_555
N33_3 Zn1_3 1_555 1_555
N34_3 N59_4 1_555 1_555
N55_4 N39_2 1_555 1_555
O19_3 Zn12_2 1_555 1_555
N59_4 C131_3 1_555 1_555
O20_3 C160_3 1_555 1_555
C129_3 N34_3 1_555 1_555
N37_3 Zn19_2 1_555 1_555
N38_3 Zn12_2 1_555 1_555
C130_3 C129_3 1_555 1_555
C131_3 C130_3 1_555 1_555
N39_2 C145_3 1_555 1_555
C132_3 N33_3 1_555 1_555
C133_3 C132_3 1_555 1_555
H127_3 C133_3 1_555 1_555
H128_3 C133_3 1_555 1_555
H129_3 C133_3 1_555 1_555
C134_3 N37_3 1_555 1_555
C135_3 C130_3 1_555 1_555
C136_3 N55_4 1_555 1_555
N40_3 N38_3 1_555 1_555
H130_3 N40_3 1_555 1_555
C137_3 C138_3 1_555 1_555
C138_3 N38_3 1_555 1_555
C139_3 C136_3 1_555 1_555
C140_3 C131_3 1_555 1_555
H131_3 C140_3 1_555 1_555
H132_3 C140_3 1_555 1_555
H133_3 C140_3 1_555 1_555
C141_3 C138_3 1_555 1_555
H134_3 C141_3 1_555 1_555
H135_3 C141_3 1_555 1_555
H136_3 C141_3 1_555 1_555
C142_3 C136_3 1_555 1_555
H137_3 C142_3 1_555 1_555
H138_3 C142_3 1_555 1_555
H139_3 C142_3 1_555 1_555
C143_3 C129_3 1_555 1_555
H140_3 C143_3 1_555 1_555
H141_3 C143_3 1_555 1_555
H142_3 C143_3 1_555 1_555
C144_3 N40_3 1_555 1_555
C145_3 C139_3 1_555 1_555
C146_3 C134_3 1_555 1_555
H143_3 C146_3 1_555 1_555
H144_3 C146_3 1_555 1_555
H145_3 C146_3 1_555 1_555
C147_3 C145_3 1_555 1_555
H146_3 C147_3 1_555 1_555
H147_3 C147_3 1_555 1_555
H148_3 C147_3 1_555 1_555
C148_3 C144_3 1_555 1_555
H149_3 C148_3 1_555 1_555
H150_3 C148_3 1_555 1_555
H151_3 C148_3 1_555 1_555
C149_3 H152_3 1_555 1_555
C150_3 C149_3 1_555 1_555
C151_3 C150_3 1_555 1_555
H153_3 C151_3 1_555 1_555
C152_3 C151_3 1_555 1_555
H154_3 C152_3 1_555 1_555
C153_3 C152_3 1_555 1_555
C154_3 C149_3 1_555 1_555
C155_3 C154_3 1_555 1_555
H155_3 C155_3 1_555 1_555
C156_3 C155_3 1_555 1_555
H156_3 C156_3 1_555 1_555
C157_3 C156_3 1_555 1_555
C158_3 C153_3 1_555 1_555
H157_3 C158_3 1_555 1_555
C159_3 O19_3 1_555 1_555
C160_3 C157_3 1_555 1_555
O21_3 C160_3 1_555 1_555
O22_3 C159_3 1_555 1_555
O24_3 Zn1_3 1_555 1_555
C181_3 H183_3 1_555 1_555
H184_3 C183_3 1_555 1_555
C184_3 C183_3 1_555 1_555
H185_3 C184_3 1_555 1_555
C185_3 C184_3 1_555 1_555
C186_3 C181_3 1_555 1_555
C187_3 C186_3 1_555 1_555
H186_3 C187_3 1_555 1_555
C188_3 C187_3 1_555 1_555
H187_3 C188_3 1_555 1_555
C189_3 C188_3 1_555 1_555
C190_3 C185_3 1_555 1_555
H188_3 C190_3 1_555 1_555
C192_3 O24_3 1_555 1_555
O25_3 C192_3 1_555 1_555
Zn17_2 O20_3 1_555 1_555
Zn31_2 N15_2 1_555 1_555
Zn33_2 N39_2 1_555 1_555
O29_2 Zn4_2 1_555 1_555
N60_2 Zn12_2 1_555 1_555
N62_2 Zn6_2 1_555 1_555
N1_2 Zn4_2 1_555 1_555
C4_5 C7_5 1_555 1_555
C6_5 C7_5 1_555 1_555
N9_2 Zn19_2 1_555 1_555
C36_2 C39_2 1_555 1_555
C38_2 C39_2 1_555 1_555
C41_2 C43_2 1_555 1_555
C41_2 C48_2 1_555 1_555
C54_2 C63_2 1_555 1_555
N33_3 N37_3 1_555 1_555
C132_3 C135_3 1_555 1_555
C134_3 C135_3 1_555 1_555
C137_3 C139_3 1_555 1_555
C137_3 C144_3 1_555 1_555
C150_3 C159_3 1_555 1_555
C153_3 C154_3 1_555 1_555
C157_3 C158_3 1_555 1_555
C185_3 C186_3 1_555 1_555
C189_3 C190_3 1_555 1_555
C189_3 C192_3 1_555 1_555
N55 N62_2 1_555 1_555
O21_3 H190_9 1_555 1_555
Zn10_2 N26_2 1_555 1_555
N26_2 N58_2 1_555 1_555
N54 N31_2 1_555 1_555
O15_2 Zn10_2 1_555 1_555
N58_2 C99_2 1_555 1_555
C97_2 N26_2 1_555 1_555
N30_2 Zn10_2 1_555 1_555
C98_2 C97_2 1_555 1_555
C99_2 C98_2 1_555 1_555
N31_2 C113_2 1_555 1_555
C104_2 N54 1_555 1_555
N32_2 N30_2 1_555 1_555
H99_2 N32_2 1_555 1_555
C105_2 C106_2 1_555 1_555
C106_2 N30_2 1_555 1_555
C107_2 C104_2 1_555 1_555
C108_2 C99_2 1_555 1_555
H101_2 C108_2 1_555 1_555
H102_2 C108_2 1_555 1_555
C109_2 C106_2 1_555 1_555
H103_2 C109_2 1_555 1_555
H104_2 C109_2 1_555 1_555
H105_2 C109_2 1_555 1_555
C110_2 C104_2 1_555 1_555
H106_2 C110_2 1_555 1_555
H107_2 C110_2 1_555 1_555
H108_2 C110_2 1_555 1_555
C111_2 C97_2 1_555 1_555
H109_2 C111_2 1_555 1_555
H110_2 C111_2 1_555 1_555
H111_2 C111_2 1_555 1_555
C112_2 N32_2 1_555 1_555
C113_2 C107_2 1_555 1_555
C115_2 C113_2 1_555 1_555
H115_2 C115_2 1_555 1_555
H116_2 C115_2 1_555 1_555
H117_2 C115_2 1_555 1_555
C116_2 C112_2 1_555 1_555
H118_2 C116_2 1_555 1_555
H119_2 C116_2 1_555 1_555
H120_2 C116_2 1_555 1_555
C127_2 O15_2 1_555 1_555
O18_2 C127_2 1_555 1_555
Zn30_2 N31_2 1_555 1_555
N63_2 Zn10_2 1_555 1_555
C105_2 C107_2 1_555 1_555
C105_2 C112_2 1_555 1_555
C118_2 C127_2 1_555 1_555
O16_2 C128_2 1_555 1_555
C117_2 H121_2 1_555 1_555
H122_2 C119_2 1_555 1_555
C120_2 C119_2 1_555 1_555
H123_2 C120_2 1_555 1_555
C121_2 C120_2 1_555 1_555
C122_2 C117_2 1_555 1_555
C123_2 C122_2 1_555 1_555
H124_2 C123_2 1_555 1_555
C124_2 C123_2 1_555 1_555
H125_2 C124_2 1_555 1_555
C125_2 C124_2 1_555 1_555
C126_2 C121_2 1_555 1_555
H126_2 C126_2 1_555 1_555
C128_2 C125_2 1_555 1_555
O17_2 C128_2 1_555 1_555
Zn13_2 O16_2 1_555 1_555
Zn14_3 N42_3 1_555 1_555
N41_3 N45_3 1_555 1_555
N42_3 N59 1_555 1_555
O23_3 Zn14_3 1_555 1_555
N59 C163_3 1_555 1_555
C161_3 N42_3 1_555 1_555
N45_3 Zn13_2 1_555 1_555
N46_3 Zn14_3 1_555 1_555
C162_3 C161_3 1_555 1_555
C163_3 C162_3 1_555 1_555
N62_2 C177_3 1_555 1_555
C164_3 N41_3 1_555 1_555
C165_3 C164_3 1_555 1_555
H158_3 C165_3 1_555 1_555
H159_3 C165_3 1_555 1_555
H160_3 C165_3 1_555 1_555
C166_3 N45_3 1_555 1_555
C167_3 C162_3 1_555 1_555
C168_3 N55 1_555 1_555
N48_3 N46_3 1_555 1_555
H161_3 N48_3 1_555 1_555
C169_3 C170_3 1_555 1_555
C170_3 N46_3 1_555 1_555
C171_3 C168_3 1_555 1_555
C172_3 C163_3 1_555 1_555
H162_3 C172_3 1_555 1_555
H163_3 C172_3 1_555 1_555
H164_3 C172_3 1_555 1_555
C173_3 C170_3 1_555 1_555
H165_3 C173_3 1_555 1_555
H166_3 C173_3 1_555 1_555
H167_3 C173_3 1_555 1_555
C174_3 C168_3 1_555 1_555
H168_3 C174_3 1_555 1_555
H169_3 C174_3 1_555 1_555
H170_3 C174_3 1_555 1_555
C175_3 C161_3 1_555 1_555
H171_3 C175_3 1_555 1_555
H172_3 C175_3 1_555 1_555
H173_3 C175_3 1_555 1_555
C176_3 N48_3 1_555 1_555
C177_3 C171_3 1_555 1_555
C178_3 C166_3 1_555 1_555
H174_3 C178_3 1_555 1_555
H175_3 C178_3 1_555 1_555
H176_3 C178_3 1_555 1_555
C179_3 C177_3 1_555 1_555
H177_3 C179_3 1_555 1_555
H178_3 C179_3 1_555 1_555
H179_3 C179_3 1_555 1_555
C180_3 C176_3 1_555 1_555
H180_3 C180_3 1_555 1_555
H181_3 C180_3 1_555 1_555
H182_3 C180_3 1_555 1_555
C191_3 O23_3 1_555 1_555
O26_3 C191_3 1_555 1_555
Zn17_2 N41_3 1_555 1_555
O28_2 Zn13_2 1_555 1_555
N51_2 Zn13_2 1_555 1_555
N61_3 Zn14_3 1_555 1_555
C121_2 C122_2 1_555 1_555
C125_2 C126_2 1_555 1_555
C164_3 C167_3 1_555 1_555
C166_3 C167_3 1_555 1_555
C169_3 C171_3 1_555 1_555
C169_3 C176_3 1_555 1_555
C182_3 C191_3 1_555 1_555
Zn17_2 O28_2 1_555 1_555
Zn1_4 O27_2 1_555 1_555
O27_2 H1_4 1_555 1_555
N49_2 N5_6 1_555 1_555
N5_6 Zn1_4 1_555 1_555
C4_6 N49_2 1_555 1_555
C5_6 C4_6 1_555 1_555
H2_6 C5_6 1_555 1_555
H3_6 C5_6 1_555 1_555
H4_6 C5_6 1_555 1_555
C6_6 N5_6 1_555 1_555
C18_6 C6_6 1_555 1_555
H18_6 C18_6 1_555 1_555
H19_6 C18_6 1_555 1_555
H20_6 C18_6 1_555 1_555
N33_4 Zn1_4 1_555 1_555
N37_4 Zn21_2 1_555 1_555
C132_4 N33_4 1_555 1_555
C133_4 C132_4 1_555 1_555
H127_4 C133_4 1_555 1_555
H128_4 C133_4 1_555 1_555
H129_4 C133_4 1_555 1_555
C134_4 N37_4 1_555 1_555
C146_4 C134_4 1_555 1_555
H143_4 C146_4 1_555 1_555
H144_4 C146_4 1_555 1_555
H145_4 C146_4 1_555 1_555
Zn14_4 N42_4 1_555 1_555
N42_4 N59_2 1_555 1_555
N55_2 N63_2 1_555 1_555
O23_4 Zn14_4 1_555 1_555
N59_2 C163_4 1_555 1_555
O24_4 Zn1_4 1_555 1_555
C161_4 N42_4 1_555 1_555
N46_4 Zn14_4 1_555 1_555
C162_4 C161_4 1_555 1_555
C163_4 C162_4 1_555 1_555
N63_2 C177_4 1_555 1_555
C168_4 N55_2 1_555 1_555
N48_4 N46_4 1_555 1_555
H161_4 N48_4 1_555 1_555
C169_4 C170_4 1_555 1_555
C170_4 N46_4 1_555 1_555
C171_4 C168_4 1_555 1_555
C172_4 C163_4 1_555 1_555
H163_4 C172_4 1_555 1_555
H164_4 C172_4 1_555 1_555
C173_4 C170_4 1_555 1_555
H165_4 C173_4 1_555 1_555
H166_4 C173_4 1_555 1_555
H167_4 C173_4 1_555 1_555
C174_4 C168_4 1_555 1_555
H168_4 C174_4 1_555 1_555
H169_4 C174_4 1_555 1_555
H170_4 C174_4 1_555 1_555
C175_4 C161_4 1_555 1_555
H171_4 C175_4 1_555 1_555
H172_4 C175_4 1_555 1_555
H173_4 C175_4 1_555 1_555
C176_4 N48_4 1_555 1_555
C177_4 C171_4 1_555 1_555
C179_4 C177_4 1_555 1_555
H177_4 C179_4 1_555 1_555
H178_4 C179_4 1_555 1_555
H179_4 C179_4 1_555 1_555
C180_4 C176_4 1_555 1_555
H180_4 C180_4 1_555 1_555
H181_4 C180_4 1_555 1_555
H182_4 C180_4 1_555 1_555
C181_4 H183_4 1_555 1_555
C182_4 C181_4 1_555 1_555
C183_4 C182_4 1_555 1_555
H184_4 C183_4 1_555 1_555
C184_4 C183_4 1_555 1_555
H185_4 C184_4 1_555 1_555
C185_4 C184_4 1_555 1_555
C186_4 C181_4 1_555 1_555
C187_4 C186_4 1_555 1_555
H186_4 C187_4 1_555 1_555
C188_4 C187_4 1_555 1_555
H187_4 C188_4 1_555 1_555
C189_4 C188_4 1_555 1_555
C190_4 C185_4 1_555 1_555
H188_4 C190_4 1_555 1_555
C191_4 O23_4 1_555 1_555
C192_4 O24_4 1_555 1_555
O25_4 C192_4 1_555 1_555
O26_4 C191_4 1_555 1_555
O31_2 Zn21_2 1_555 1_555
N61_4 Zn14_4 1_555 1_555
C4_6 C7_6 1_555 1_555
C6_6 C7_6 1_555 1_555
N33_4 N37_4 1_555 1_555
C132_4 C135_4 1_555 1_555
C134_4 C135_4 1_555 1_555
C169_4 C171_4 1_555 1_555
C169_4 C176_4 1_555 1_555
C182_4 C191_4 1_555 1_555
C185_4 C186_4 1_555 1_555
C189_4 C190_4 1_555 1_555
C189_4 C192_4 1_555 1_555
Zn34_2 N34_4 1_555 1_555
N34_4 N59_3 1_555 1_555
N55_3 N64_2 1_555 1_555
O19_4 Zn34_2 1_555 1_555
N59_3 C131_4 1_555 1_555
C129_4 N34_4 1_555 1_555
N38_4 Zn34_2 1_555 1_555
C130_4 C129_4 1_555 1_555
C131_4 C130_4 1_555 1_555
N64_2 C145_4 1_555 1_555
C136_4 N55_3 1_555 1_555
N40_4 N38_4 1_555 1_555
H130_4 N40_4 1_555 1_555
C137_4 C138_4 1_555 1_555
C138_4 N38_4 1_555 1_555
C139_4 C136_4 1_555 1_555
C140_4 C131_4 1_555 1_555
H132_4 C140_4 1_555 1_555
H133_4 C140_4 1_555 1_555
C141_4 C138_4 1_555 1_555
H134_4 C141_4 1_555 1_555
H135_4 C141_4 1_555 1_555
H136_4 C141_4 1_555 1_555
C142_4 C136_4 1_555 1_555
H137_4 C142_4 1_555 1_555
H138_4 C142_4 1_555 1_555
H139_4 C142_4 1_555 1_555
C143_4 C129_4 1_555 1_555
H140_4 C143_4 1_555 1_555
H141_4 C143_4 1_555 1_555
H142_4 C143_4 1_555 1_555
C144_4 N40_4 1_555 1_555
C145_4 C139_4 1_555 1_555
C147_4 C145_4 1_555 1_555
H146_4 C147_4 1_555 1_555
H147_4 C147_4 1_555 1_555
H148_4 C147_4 1_555 1_555
C148_4 C144_4 1_555 1_555
H149_4 C148_4 1_555 1_555
H150_4 C148_4 1_555 1_555
H151_4 C148_4 1_555 1_555
C159_4 O19_4 1_555 1_555
O22_4 C159_4 1_555 1_555
N41_4 N45_4 1_555 1_555
N45_4 Zn20_2 1_555 1_555
C164_4 N41_4 1_555 1_555
C165_4 C164_4 1_555 1_555
H158_4 C165_4 1_555 1_555
H159_4 C165_4 1_555 1_555
H160_4 C165_4 1_555 1_555
C166_4 N45_4 1_555 1_555
C178_4 C166_4 1_555 1_555
H174_4 C178_4 1_555 1_555
H175_4 C178_4 1_555 1_555
H176_4 C178_4 1_555 1_555
Zn18_2 N41_4 1_555 1_555
C137_4 C139_4 1_555 1_555
C137_4 C144_4 1_555 1_555
C150_4 C159_4 1_555 1_555
C164_4 C167_4 1_555 1_555
C166_4 C167_4 1_555 1_555
Zn3_4 N2_6 1_555 1_555
N2_6 N57_3 1_555 1_555
N53_4 N60_2 1_555 1_555
O2_6 Zn3_4 1_555 1_555
N57_3 C3_6 1_555 1_555
C1_6 N2_6 1_555 1_555
N6_6 Zn3_4 1_555 1_555
C2_6 C1_6 1_555 1_555
C3_6 C2_6 1_555 1_555
N60_2 C17_6 1_555 1_555
C8_6 N53_4 1_555 1_555
N8_6 N6_6 1_555 1_555
H5_6 N8_6 1_555 1_555
C9_6 C10_6 1_555 1_555
C10_6 N6_6 1_555 1_555
C11_6 C8_6 1_555 1_555
C12_6 C3_6 1_555 1_555
H7_6 C12_6 1_555 1_555
H8_6 C12_6 1_555 1_555
C13_6 C10_6 1_555 1_555
H9_6 C13_6 1_555 1_555
H10_6 C13_6 1_555 1_555
H11_6 C13_6 1_555 1_555
C14_6 C8_6 1_555 1_555
H12_6 C14_6 1_555 1_555
H13_6 C14_6 1_555 1_555
H14_6 C14_6 1_555 1_555
C15_6 C1_6 1_555 1_555
H15_6 C15_6 1_555 1_555
H16_6 C15_6 1_555 1_555
H17_6 C15_6 1_555 1_555
C16_6 N8_6 1_555 1_555
C17_6 C11_6 1_555 1_555
C19_6 C17_6 1_555 1_555
H21_6 C19_6 1_555 1_555
H22_6 C19_6 1_555 1_555
H23_6 C19_6 1_555 1_555
C20_6 C16_6 1_555 1_555
H24_6 C20_6 1_555 1_555
H25_6 C20_6 1_555 1_555
H26_6 C20_6 1_555 1_555
C31_6 O2_6 1_555 1_555
O5_6 C31_6 1_555 1_555
Zn33_2 N18_4 1_555 1_555
N18_4 N58_4 1_555 1_555
O11_4 Zn33_2 1_555 1_555
N58_4 C67_4 1_555 1_555
O31_2 C96_4 1_555 1_555
C65_4 N18_4 1_555 1_555
N22_4 Zn33_2 1_555 1_555
C66_4 C65_4 1_555 1_555
C67_4 C66_4 1_555 1_555
N23_4 Zn3_4 1_555 1_555
C72_4 N54_3 1_555 1_555
N24_4 N22_4 1_555 1_555
H68_4 N24_4 1_555 1_555
C73_4 C74_4 1_555 1_555
C74_4 N22_4 1_555 1_555
C75_4 C72_4 1_555 1_555
C76_4 C67_4 1_555 1_555
H70_4 C76_4 1_555 1_555
H71_4 C76_4 1_555 1_555
C77_4 C74_4 1_555 1_555
H72_4 C77_4 1_555 1_555
H73_4 C77_4 1_555 1_555
H74_4 C77_4 1_555 1_555
C78_4 C72_4 1_555 1_555
H75_4 C78_4 1_555 1_555
H76_4 C78_4 1_555 1_555
H77_4 C78_4 1_555 1_555
C79_4 C65_4 1_555 1_555
H78_4 C79_4 1_555 1_555
H79_4 C79_4 1_555 1_555
H80_4 C79_4 1_555 1_555
C80_4 N24_4 1_555 1_555
C81_4 N23_4 1_555 1_555
C83_4 C81_4 1_555 1_555
H84_4 C83_4 1_555 1_555
H85_4 C83_4 1_555 1_555
H86_4 C83_4 1_555 1_555
C84_4 C80_4 1_555 1_555
H87_4 C84_4 1_555 1_555
H88_4 C84_4 1_555 1_555
H89_4 C84_4 1_555 1_555
C85_4 H90_4 1_555 1_555
C86_4 C85_4 1_555 1_555
C87_4 C86_4 1_555 1_555
H91_4 C87_4 1_555 1_555
C88_4 C87_4 1_555 1_555
H92_4 C88_4 1_555 1_555
C89_4 C88_4 1_555 1_555
C90_4 C85_4 1_555 1_555
C91_4 C90_4 1_555 1_555
H93_4 C91_4 1_555 1_555
C92_4 C91_4 1_555 1_555
H94_4 C92_4 1_555 1_555
C93_4 C92_4 1_555 1_555
C94_4 C89_4 1_555 1_555
H95_4 C94_4 1_555 1_555
C95_4 O11_4 1_555 1_555
C96_4 C93_4 1_555 1_555
O13_4 C96_4 1_555 1_555
O14_4 C95_4 1_555 1_555
C9_6 C11_6 1_555 1_555
C9_6 C16_6 1_555 1_555
C22_6 C31_6 1_555 1_555
N54_3 N23_4 1_555 1_555
C73_4 C75_4 1_555 1_555
C73_4 C80_4 1_555 1_555
C75_4 C81_4 1_555 1_555
C86_4 C95_4 1_555 1_555
C89_4 C90_4 1_555 1_555
C93_4 C94_4 1_555 1_555
O13_4 H189_6 1_555 1_555
O29_2 C32_6 1_555 1_555
C21_6 H27_6 1_555 1_555
H28_6 C23_6 1_555 1_555
C24_6 C23_6 1_555 1_555
H29_6 C24_6 1_555 1_555
C25_6 C24_6 1_555 1_555
C26_6 C21_6 1_555 1_555
C27_6 C26_6 1_555 1_555
H30_6 C27_6 1_555 1_555
C28_6 C27_6 1_555 1_555
H31_6 C28_6 1_555 1_555
C29_6 C28_6 1_555 1_555
C30_6 C25_6 1_555 1_555
H32_6 C30_6 1_555 1_555
C32_6 C29_6 1_555 1_555
O4_6 C32_6 1_555 1_555
C25_6 C26_6 1_555 1_555
C29_6 C30_6 1_555 1_555
O20_4 C160_4 1_555 1_555
C149_4 H152_4 1_555 1_555
H153_4 C151_4 1_555 1_555
C152_4 C151_4 1_555 1_555
H154_4 C152_4 1_555 1_555
C153_4 C152_4 1_555 1_555
C154_4 C149_4 1_555 1_555
C155_4 C154_4 1_555 1_555
H155_4 C155_4 1_555 1_555
C156_4 C155_4 1_555 1_555
H156_4 C156_4 1_555 1_555
C157_4 C156_4 1_555 1_555
C158_4 C153_4 1_555 1_555
H157_4 C158_4 1_555 1_555
C160_4 C157_4 1_555 1_555
O21_4 C160_4 1_555 1_555
Zn18_2 O20_4 1_555 1_555
C153_4 C154_4 1_555 1_555
C157_4 C158_4 1_555 1_555
O21_4 H190_10 1_555 1_555
Zn7_4 O28_2 1_555 1_555
O28_2 H64_4 1_555 1_555
N51_2 N21_4 1_555 1_555
N21_4 Zn7_4 1_555 1_555
C68_4 N51_2 1_555 1_555
C69_4 C68_4 1_555 1_555
H65_4 C69_4 1_555 1_555
H66_4 C69_4 1_555 1_555
H67_4 C69_4 1_555 1_555
C70_4 N21_4 1_555 1_555
C82_4 C70_4 1_555 1_555
H81_4 C82_4 1_555 1_555
H82_4 C82_4 1_555 1_555
H83_4 C82_4 1_555 1_555
N50_4 Zn7_4 1_555 1_555
O30_4 Zn7_4 1_555 1_555
C68_4 C71_4 1_555 1_555
C70_4 C71_4 1_555 1_555
O25_3 H190_11 1_555 1_555
Zn30_2 N2_7 1_555 1_555
N50_4 N5_7 1_555 1_555
N2_7 N57 1_555 1_555
N53_2 N61_4 1_555 1_555
O2_7 Zn30_2 1_555 1_555
N57 C3_7 1_555 1_555
O30_3 C32_7 1_555 1_555
C1_7 N2_7 1_555 1_555
N5_7 Zn17_2 1_555 1_555
N6_7 Zn30_2 1_555 1_555
C2_7 C1_7 1_555 1_555
C3_7 C2_7 1_555 1_555
N61_4 C17_7 1_555 1_555
C4_7 N50_4 1_555 1_555
C5_7 C4_7 1_555 1_555
H2_7 C5_7 1_555 1_555
H3_7 C5_7 1_555 1_555
H4_7 C5_7 1_555 1_555
C6_7 N5_7 1_555 1_555
C7_7 C2_7 1_555 1_555
C8_7 N53_2 1_555 1_555
N8_7 N6_7 1_555 1_555
H5_7 N8_7 1_555 1_555
C9_7 C10_7 1_555 1_555
C10_7 N6_7 1_555 1_555
C11_7 C8_7 1_555 1_555
C12_7 C3_7 1_555 1_555
H6_7 C12_7 1_555 1_555
H7_7 C12_7 1_555 1_555
H8_7 C12_7 1_555 1_555
C13_7 C10_7 1_555 1_555
H9_7 C13_7 1_555 1_555
H10_7 C13_7 1_555 1_555
H11_7 C13_7 1_555 1_555
C14_7 C8_7 1_555 1_555
H12_7 C14_7 1_555 1_555
H13_7 C14_7 1_555 1_555
H14_7 C14_7 1_555 1_555
C15_7 C1_7 1_555 1_555
H15_7 C15_7 1_555 1_555
H16_7 C15_7 1_555 1_555
H17_7 C15_7 1_555 1_555
C16_7 N8_7 1_555 1_555
C17_7 C11_7 1_555 1_555
C18_7 C6_7 1_555 1_555
H18_7 C18_7 1_555 1_555
H19_7 C18_7 1_555 1_555
H20_7 C18_7 1_555 1_555
C19_7 C17_7 1_555 1_555
H21_7 C19_7 1_555 1_555
H22_7 C19_7 1_555 1_555
H23_7 C19_7 1_555 1_555
C20_7 C16_7 1_555 1_555
H24_7 C20_7 1_555 1_555
H25_7 C20_7 1_555 1_555
H26_7 C20_7 1_555 1_555
C21_7 H27_7 1_555 1_555
C22_7 C21_7 1_555 1_555
C23_7 C22_7 1_555 1_555
H28_7 C23_7 1_555 1_555
C24_7 C23_7 1_555 1_555
H29_7 C24_7 1_555 1_555
C25_7 C24_7 1_555 1_555
C26_7 C21_7 1_555 1_555
C27_7 C26_7 1_555 1_555
H30_7 C27_7 1_555 1_555
C28_7 C27_7 1_555 1_555
H31_7 C28_7 1_555 1_555
C29_7 C28_7 1_555 1_555
C30_7 C25_7 1_555 1_555
H32_7 C30_7 1_555 1_555
C31_7 O2_7 1_555 1_555
C32_7 C29_7 1_555 1_555
O4_7 C32_7 1_555 1_555
O5_7 C31_7 1_555 1_555
C4_7 C7_7 1_555 1_555
C6_7 C7_7 1_555 1_555
C9_7 C11_7 1_555 1_555
C9_7 C16_7 1_555 1_555
C22_7 C31_7 1_555 1_555
C25_7 C26_7 1_555 1_555
C29_7 C30_7 1_555 1_555
O17_2 H189_7 1_555 1_555
O8_2 H189_8 1_555 1_555
O30_4 C32_8 1_555 1_555
C21_8 H27_8 1_555 1_555
H28_8 C23_8 1_555 1_555
C24_8 C23_8 1_555 1_555
H29_8 C24_8 1_555 1_555
C25_8 C24_8 1_555 1_555
C26_8 C21_8 1_555 1_555
C27_8 C26_8 1_555 1_555
H30_8 C27_8 1_555 1_555
C28_8 C27_8 1_555 1_555
H31_8 C28_8 1_555 1_555
C29_8 C28_8 1_555 1_555
C30_8 C25_8 1_555 1_555
H32_8 C30_8 1_555 1_555
C32_8 C29_8 1_555 1_555
O4_8 C32_8 1_555 1_555
C25_8 C26_8 1_555 1_555
C29_8 C30_8 1_555 1_555
O25_4 H190_12 1_555 1_555
Zn31_2 N2_8 1_555 1_555
N50_3 N5_8 1_555 1_555
N2_8 N57_2 1_555 1_555
N53 N61_3 1_555 1_555
O2_8 Zn31_2 1_555 1_555
N57_2 C3_8 1_555 1_555
C1_8 N2_8 1_555 1_555
N5_8 Zn18_2 1_555 1_555
N6_8 Zn31_2 1_555 1_555
C2_8 C1_8 1_555 1_555
C3_8 C2_8 1_555 1_555
N61_3 C17_8 1_555 1_555
C4_8 N50_3 1_555 1_555
C5_8 C4_8 1_555 1_555
H2_8 C5_8 1_555 1_555
H3_8 C5_8 1_555 1_555
H4_8 C5_8 1_555 1_555
C6_8 N5_8 1_555 1_555
C7_8 C2_8 1_555 1_555
C8_8 N53 1_555 1_555
N8_8 N6_8 1_555 1_555
H5_8 N8_8 1_555 1_555
C9_8 C10_8 1_555 1_555
C10_8 N6_8 1_555 1_555
C11_8 C8_8 1_555 1_555
C12_8 C3_8 1_555 1_555
H6_8 C12_8 1_555 1_555
H7_8 C12_8 1_555 1_555
H8_8 C12_8 1_555 1_555
C13_8 C10_8 1_555 1_555
H9_8 C13_8 1_555 1_555
H10_8 C13_8 1_555 1_555
H11_8 C13_8 1_555 1_555
C14_8 C8_8 1_555 1_555
H12_8 C14_8 1_555 1_555
H13_8 C14_8 1_555 1_555
H14_8 C14_8 1_555 1_555
C15_8 C1_8 1_555 1_555
H15_8 C15_8 1_555 1_555
H16_8 C15_8 1_555 1_555
H17_8 C15_8 1_555 1_555
C16_8 N8_8 1_555 1_555
C17_8 C11_8 1_555 1_555
C18_8 C6_8 1_555 1_555
H18_8 C18_8 1_555 1_555
H19_8 C18_8 1_555 1_555
H20_8 C18_8 1_555 1_555
C19_8 C17_8 1_555 1_555
H21_8 C19_8 1_555 1_555
H22_8 C19_8 1_555 1_555
H23_8 C19_8 1_555 1_555
C20_8 C16_8 1_555 1_555
H24_8 C20_8 1_555 1_555
H25_8 C20_8 1_555 1_555
H26_8 C20_8 1_555 1_555
C31_8 O2_8 1_555 1_555
O5_8 C31_8 1_555 1_555
C4_8 C7_8 1_555 1_555
C6_8 C7_8 1_555 1_555
C9_8 C11_8 1_555 1_555
C9_8 C16_8 1_555 1_555
C22_8 C31_8 1_555 1_555
O4_5 H190_13 1_555 1_555
O4_8 H190_14 1_555 1_555
O4_6 H190_15 1_555 1_555
O4_7 H190_16 1_555 1_555

#END
