
###############################################################################
#
# This file contains modified crystal structure data generated from the
# MOF subset of the Cambridge Structural Database (CSD) v543 
# hosted by the Cambridge Crystallographic Data Centre (CCDC).
#
# This work is licensed under the Creative Commons
# Attribution-NonCommercial-ShareAlike 4.0 International License.
# To view a copy of this license, visit
# http://creativecommons.org/licenses/by-nc-sa/4.0/
# or send a letter to
# Creative Commons, PO Box 1866, Mountain View, CA 94042, USA.
#
# CIF created using the CSD Python API on 29 September 2022
# The structure has been converted into the P1 space group
# The structure has a 3D framework
# The original CSD entry LEJFAL is in the cubic crystal system
# The original CSD entry LEJFAL is in a Sohncke space group
# The framework has been calculated to contain at least 10.0% void space
# The void calculation uses a probe of radius 1.32A, grid spacing 0.4
# H atom positions have been added when not included in the experimental data
#
###############################################################################

data_LEJFAL
_chemical_formula_moiety         '(C816 H870 N240 O102 Zn55)n'
_symmetry_cell_setting           triclinic
_symmetry_space_group_name_H-M   'P 1'
_symmetry_Int_Tables_number      1
_space_group_name_Hall           'P 1'
loop_
_symmetry_equiv_pos_site_id
_symmetry_equiv_pos_as_xyz
1 x,y,z
_cell_length_a                   33.90010(10)
_cell_length_b                   33.90010(10)
_cell_length_c                   33.90010(10)
_cell_angle_alpha                90
_cell_angle_beta                 90
_cell_angle_gamma                90
_cell_volume                     38958.6
loop_
_atom_site_label
_atom_site_type_symbol
_atom_site_fract_x
_atom_site_fract_y
_atom_site_fract_z
Zn10 Zn 0.15142(2) 0.27029(2) 0.37870(2)
O14 O 0.09737(8) 0.24975(10) 0.37344(11)
N31 N 0.15475(9) 0.35015(9) 0.34332(9)
N33 N 0.15944(8) 0.31055(8) 0.33629(8)
N35 N 0.22593(9) 0.36973(9) 0.18963(8)
C103 C 0.17533(11) 0.34212(11) 0.28127(10)
C105 C 0.18849(11) 0.35152(12) 0.24118(9)
C107 C 0.17170(12) 0.30631(12) 0.29945(10)
C108 C 0.22401(12) 0.36711(13) 0.22920(9)
C109 C 0.16424(13) 0.36891(11) 0.30967(10)
N38 N 0.19091(10) 0.35477(16) 0.17699(10)
H107 H 0.183495 0.354308 0.152732
C118 C 0.1811(3) 0.26597(15) 0.28235(14)
H117 H 0.206128 0.257112 0.292313
H118 H 0.182328 0.267733 0.254113
H119 H 0.160945 0.247583 0.289824
C119 C 0.16919(14) 0.3407(2) 0.20742(14)
C121 C 0.03971(8) 0.21303(12) 0.36475(14)
C122 C 0.01481(10) 0.24544(11) 0.36800(16)
H123 H 0.025344 0.270552 0.371315
C126 C 0.02396(11) 0.17549(11) 0.35979(15)
H125 H 0.040614 0.153806 0.357613
C127 C 0.2555(2) 0.3844(3) 0.25341(14)
H126 H 0.279472 0.369900 0.249396
H127 H 0.248120 0.383070 0.280734
H128 H 0.259359 0.411399 0.245954
C128 C 0.1610(3) 0.41302(15) 0.30672(15)
H129 H 0.134954 0.421092 0.314485
H130 H 0.165761 0.421072 0.279997
H131 H 0.180078 0.425067 0.323786
C129 C 0.08286(16) 0.21799(16) 0.36547(14)
C136 C 0.1306(2) 0.3196(3) 0.2006(2)
H135 H 0.128843 0.297259 0.217907
H136 H 0.129267 0.310811 0.173696
H137 H 0.109104 0.337288 0.205803
O16 O 0.10400(15) 0.18844(16) 0.3574(3)
Zn13 Zn 0.14490(2) 0.28123(2) 0.65803(2)
N52 N 0.15696(9) 0.29455(9) 0.43155(8)
N54 N 0.19398(10) 0.31796(8) 0.59787(9)
N56 N 0.15967(9) 0.29590(9) 0.60280(8)
N57 N 0.15186(11) 0.33388(10) 0.43650(9)
C172 C 0.16319(13) 0.27802(11) 0.46697(10)
C174 C 0.16199(13) 0.30792(12) 0.49584(11)
C178 C 0.16819(12) 0.30504(12) 0.53838(11)
C179 C 0.19843(14) 0.32285(11) 0.55975(10)
C180 C 0.15465(15) 0.34214(13) 0.47507(10)
O23 O 0.13143(17) 0.22421(13) 0.65367(16)
C181 C 0.14489(12) 0.28815(12) 0.56811(10)
C182 C 0.16872(19) 0.23485(12) 0.47200(13)
H178 H 0.169376 0.222390 0.446576
H179 H 0.147249 0.224281 0.487139
H180 H 0.193114 0.229967 0.485533
C183 C 0.23393(17) 0.34362(18) 0.54340(14)
H181 H 0.226383 0.369250 0.534021
H182 H 0.244667 0.328516 0.521981
H183 H 0.253452 0.346371 0.563724
C184 C 0.1485(2) 0.38275(15) 0.49089(15)
H184 H 0.173650 0.394808 0.495916
H185 H 0.133730 0.381358 0.514995
H186 H 0.134257 0.398209 0.471934
C185 C 0.1545(2) 0.2087(2) 0.67827(18)
C188 C 0.10765(19) 0.2648(2) 0.56279(15)
H190 H 0.105922 0.245024 0.583002
H191 H 0.107897 0.252283 0.537374
H192 H 0.085306 0.282090 0.564572
C191 C 0.13370(17) 0.02584(10) 0.74032(12)
H194 H 0.131527 0.042498 0.762012
C192 C 0.13866(13) 0.04159(8) 0.70279(13)
C193 C 0.14191(13) 0.01669(11) 0.67038(11)
C198 C 0.14199(15) 0.08487(10) 0.69698(13)
C199 C 0.11130(13) 0.10605(12) 0.67993(14)
C200 C 0.11509(15) 0.14644(12) 0.67397(14)
H202 H 0.094559 0.160613 0.662562
C201 C 0.14958(16) 0.16565(10) 0.68506(14)
C202 C 0.18027(15) 0.14447(13) 0.70210(17)
H203 H 0.203345 0.157316 0.709523
C203 C 0.17647(14) 0.10408(13) 0.70807(17)
H204 H 0.197008 0.089904 0.719472
N59 N 0.0743(3) 0.0866(2) 0.6679(3)
H208 H 0.055624 0.100276 0.657381
H209 H 0.071336 0.061670 0.671289
N60 N 0.1467(2) 0.03201(19) 0.6329(3)
H210 H 0.149711 0.016713 0.612887
H211 H 0.147541 0.057183 0.629867
O25 O 0.17986(19) 0.22617(15) 0.69628(18)
Zn20 Zn 0.14509(2) 0.375000 0.39509(2)
Zn24 Zn 0.21877(2) 0.34197(2) 0.64490(2)
Zn28 Zn 0.27029(2) 0.37870(2) 0.15142(2)
O28 O 0.18633(7) 0.31367(7) 0.68633(7)
N68 N 0.09787(9) 0.30602(10) 0.68204(8)
N74 N 0.18963(8) 0.22593(9) 0.36973(9)
H214 H 0.121345 0.182325 0.380198
Zn1 Zn 0.10491(2) 0.85491(2) 0.875000
N2 N 0.06845(8) 0.84304(9) 0.79455(9)
N7 N 0.06350(9) 0.84814(11) 0.83388(10)
C2 C 0.03303(10) 0.83681(13) 0.77802(11)
C4 C 0.00416(11) 0.83801(13) 0.80792(12)
C10 C 0.02493(10) 0.84535(15) 0.84214(13)
C12 C 0.02800(13) 0.83128(19) 0.73485(12)
H3 H 0.053424 0.830624 0.722390
H4 H 0.012861 0.852751 0.724281
H5 H 0.014467 0.806886 0.729967
C14 C 0.00911(15) 0.8515(2) 0.88275(15)
H9 H 0.004084 0.826350 0.894808
H11 H 0.028066 0.865743 0.898209
Zn7 Zn 0.28123(2) 0.65803(2) 0.14490(2)
N22 N 0.29455(9) 0.43155(8) 0.15696(9)
N24 N 0.31796(8) 0.59787(9) 0.19398(10)
N26 N 0.29590(9) 0.60280(8) 0.15967(9)
N27 N 0.33388(10) 0.43650(9) 0.15186(11)
C70 C 0.27802(11) 0.46697(10) 0.16319(13)
C72 C 0.30792(12) 0.49584(11) 0.16199(13)
C76 C 0.30504(12) 0.53838(11) 0.16819(12)
C77 C 0.32285(11) 0.55975(10) 0.19843(14)
C78 C 0.34214(13) 0.47507(10) 0.15465(15)
O11 O 0.22421(13) 0.65367(16) 0.13143(17)
C79 C 0.28815(12) 0.56811(10) 0.14489(12)
C80 C 0.23485(12) 0.47200(13) 0.16872(19)
H73 H 0.222390 0.446576 0.169376
H74 H 0.224281 0.487139 0.147249
H75 H 0.229967 0.485533 0.193114
C81 C 0.34362(18) 0.54340(14) 0.23393(17)
H76 H 0.369250 0.534021 0.226383
H77 H 0.328516 0.521981 0.244667
H78 H 0.346371 0.563724 0.253452
C82 C 0.38275(15) 0.49089(15) 0.1485(2)
H79 H 0.394808 0.495916 0.173650
H80 H 0.381358 0.514995 0.133730
H81 H 0.398209 0.471934 0.134257
C83 C 0.2087(2) 0.67827(18) 0.1545(2)
C86 C 0.2648(2) 0.56279(15) 0.10765(19)
H85 H 0.245024 0.583002 0.105922
H86 H 0.252283 0.537374 0.107897
H87 H 0.282090 0.564572 0.085306
C89 C 0.02584(10) 0.74032(12) 0.13370(17)
H89 H 0.042498 0.762012 0.131527
C90 C 0.04159(8) 0.70279(13) 0.13866(13)
C91 C 0.01669(11) 0.67038(11) 0.14191(13)
C96 C 0.08487(10) 0.69698(13) 0.14199(15)
C97 C 0.10605(12) 0.67993(14) 0.11130(13)
C98 C 0.14644(12) 0.67397(14) 0.11509(15)
H97 H 0.160613 0.662562 0.094559
C99 C 0.16565(10) 0.68506(14) 0.14958(16)
C100 C 0.14447(13) 0.70210(17) 0.18027(15)
H98 H 0.157316 0.709523 0.203345
C101 C 0.10408(13) 0.70807(17) 0.17647(14)
H99 H 0.089904 0.719472 0.197008
N29 N 0.0866(2) 0.6679(3) 0.0743(3)
H103 H 0.100276 0.657381 0.055624
H104 H 0.061670 0.671289 0.071336
N30 N 0.03201(19) 0.6329(3) 0.1467(2)
H105 H 0.016713 0.612887 0.149711
H106 H 0.057183 0.629867 0.147541
O13 O 0.22617(15) 0.69628(18) 0.17986(19)
Zn14 Zn 0.12130(2) 0.84858(2) 0.77029(2)
O22 O 0.12656(11) 0.90263(8) 0.74975(10)
N51 N 0.15668(9) 0.84525(9) 0.85015(9)
N53 N 0.16371(8) 0.84056(8) 0.81055(8)
N55 N 0.31037(8) 0.77407(9) 0.86973(9)
C171 C 0.21873(10) 0.82467(11) 0.84212(11)
C173 C 0.25882(9) 0.81151(11) 0.85152(12)
C175 C 0.20055(10) 0.82830(12) 0.80631(12)
C176 C 0.27080(9) 0.77599(12) 0.86711(13)
C177 C 0.19033(10) 0.83576(13) 0.86891(11)
N58 N 0.32301(10) 0.80909(10) 0.85477(16)
H177 H 0.347268 0.816505 0.854308
C186 C 0.21765(14) 0.8189(3) 0.76597(15)
H187 H 0.207687 0.793872 0.757112
H188 H 0.245887 0.817672 0.767733
H189 H 0.210176 0.839055 0.747583
C187 C 0.29258(14) 0.83081(14) 0.8407(2)
C189 C 0.13525(14) 0.96029(8) 0.71303(12)
C190 C 0.13200(16) 0.98519(10) 0.74544(11)
H193 H 0.128685 0.974656 0.770552
C194 C 0.14021(15) 0.97604(11) 0.67549(11)
H195 H 0.142387 0.959386 0.653806
C195 C 0.24659(14) 0.7445(2) 0.8844(3)
H196 H 0.250604 0.720528 0.869900
H197 H 0.219266 0.751880 0.883070
H198 H 0.254046 0.740641 0.911399
C196 C 0.19328(15) 0.8390(3) 0.91302(15)
H199 H 0.185515 0.865046 0.921092
H200 H 0.220003 0.834239 0.921072
H201 H 0.176214 0.819922 0.925067
C197 C 0.13453(14) 0.91714(16) 0.71799(16)
C204 C 0.2994(2) 0.8694(2) 0.8196(3)
H205 H 0.282093 0.871157 0.797259
H206 H 0.326304 0.870733 0.810811
H207 H 0.294197 0.890896 0.837288
O24 O 0.1426(3) 0.89600(15) 0.68844(16)
O26 O 0.31367(7) 0.68633(7) 0.18633(7)
H212 H 0.296977 0.703024 0.203023
Zn17 Zn 0.375000 0.39509(2) 0.14509(2)
Zn23 Zn 0.34197(2) 0.64490(2) 0.21877(2)
Zn25 Zn 0.35510(2) 0.71877(2) 0.15803(2)
Zn30 Zn 0.34858(2) 0.72971(2) 0.87870(2)
N64 N 0.09525(9) 0.90668(9) 0.89985(9)
N69 N 0.30602(10) 0.68204(8) 0.09787(9)
N72 N 0.13027(9) 0.81037(8) 0.72593(9)
N76 N 0.09814(11) 0.81350(9) 0.91612(10)
Zn4 Zn 0.875000 0.10491(2) 0.85491(2)
N12 N 0.79455(9) 0.06845(8) 0.84304(9)
N17 N 0.83388(10) 0.06350(9) 0.84814(11)
C36 C 0.77802(11) 0.03303(10) 0.83681(13)
C38 C 0.80792(12) 0.00416(11) 0.83801(13)
C44 C 0.84214(13) 0.02493(10) 0.84535(15)
C46 C 0.73485(12) 0.02800(13) 0.83128(19)
H38 H 0.722390 0.053424 0.830624
H39 H 0.724281 0.012861 0.852751
H40 H 0.729967 0.014467 0.806886
C48 C 0.88275(15) 0.00911(15) 0.8515(2)
H44 H 0.894808 0.004084 0.826350
H46 H 0.898209 0.028066 0.865743
Zn9 Zn 0.71877(2) 0.15803(2) 0.35510(2)
N34 N 0.68204(8) 0.09787(9) 0.30602(10)
N36 N 0.70410(9) 0.10280(8) 0.34033(9)
C110 C 0.69496(12) 0.03838(11) 0.33181(12)
C111 C 0.67715(11) 0.05975(10) 0.30157(14)
O15 O 0.77579(13) 0.15367(16) 0.36857(17)
C113 C 0.71185(12) 0.06811(10) 0.35511(12)
C115 C 0.65638(18) 0.04340(14) 0.26607(17)
H111 H 0.630750 0.034021 0.273617
H112 H 0.671484 0.021981 0.255333
H113 H 0.653629 0.063724 0.246548
H115 H 0.618642 0.014995 0.366270
C117 C 0.7913(2) 0.17827(18) 0.3455(2)
C120 C 0.7352(2) 0.06279(15) 0.39235(19)
H120 H 0.754976 0.083002 0.394078
H121 H 0.747717 0.037374 0.392103
H122 H 0.717910 0.064572 0.414694
C123 C 0.97416(10) 0.24032(12) 0.36630(17)
H124 H 0.957502 0.262012 0.368473
C124 C 0.95841(8) 0.20279(13) 0.36134(13)
C125 C 0.98331(11) 0.17038(11) 0.35809(13)
C130 C 0.91513(10) 0.19698(13) 0.35801(15)
C131 C 0.89395(12) 0.17993(14) 0.38870(13)
C132 C 0.85356(12) 0.17397(14) 0.38491(15)
H132 H 0.839387 0.162562 0.405441
C133 C 0.83435(10) 0.18506(14) 0.35042(16)
C134 C 0.85553(13) 0.20210(17) 0.31973(15)
H133 H 0.842684 0.209523 0.296655
C135 C 0.89592(13) 0.20807(17) 0.32353(14)
H134 H 0.910096 0.219472 0.302992
N39 N 0.9134(2) 0.1679(3) 0.4257(3)
H138 H 0.899724 0.157381 0.444376
H139 H 0.938330 0.171289 0.428664
N40 N 0.96799(19) 0.1329(3) 0.3533(2)
H140 H 0.983287 0.112887 0.350289
H141 H 0.942817 0.129867 0.352459
O17 O 0.77383(15) 0.19628(18) 0.32014(19)
Zn22 Zn 0.65803(2) 0.14490(2) 0.28123(2)
Zn26 Zn 0.77029(2) 0.12130(2) 0.84858(2)
O27 O 0.68633(7) 0.18633(7) 0.31367(7)
N61 N 0.85015(9) 0.15668(9) 0.84525(9)
N62 N 0.89985(9) 0.09525(9) 0.90668(9)
N70 N 0.69398(10) 0.18204(8) 0.40213(9)
N78 N 0.91612(10) 0.09814(11) 0.81350(9)
N42 N 0.84304(9) 0.79455(9) 0.06845(8)
N47 N 0.84814(11) 0.83388(10) 0.06350(9)
C138 C 0.83681(13) 0.77802(11) 0.03303(10)
C140 C 0.83801(13) 0.80792(12) 0.00416(11)
C146 C 0.84535(15) 0.84214(13) 0.02493(10)
C148 C 0.83128(19) 0.73485(12) 0.02800(13)
H143 H 0.830624 0.722390 0.053424
H144 H 0.852751 0.724281 0.012861
H145 H 0.806886 0.729967 0.014467
C150 C 0.8515(2) 0.88275(15) 0.00911(15)
H149 H 0.826350 0.894808 0.004084
H151 H 0.865743 0.898209 0.028066
Zn19 Zn 0.85491(2) 0.875000 0.10491(2)
Zn31 Zn 0.84858(2) 0.77029(2) 0.12130(2)
Zn2 Zn 0.84197(2) 0.85510(2) 0.78123(2)
Zn3 Zn 0.72971(2) 0.87870(2) 0.34858(2)
O1 O 0.81367(7) 0.81367(7) 0.81367(7)
H1 H 0.796977 0.796976 0.796977
O2 O 0.75025(10) 0.87344(11) 0.40263(8)
N1 N 0.64985(9) 0.84332(9) 0.34525(9)
N3 N 0.68945(8) 0.83629(8) 0.34056(8)
N4 N 0.90213(9) 0.80602(10) 0.81796(8)
N5 N 0.63027(9) 0.68963(8) 0.27407(9)
N6 N 0.89720(8) 0.84033(9) 0.79590(9)
C1 C 0.65788(11) 0.78127(10) 0.32467(11)
C3 C 0.64848(12) 0.74118(9) 0.31151(11)
C5 C 0.69369(12) 0.79945(10) 0.32830(12)
C6 C 0.63289(13) 0.72920(9) 0.27599(12)
C7 C 0.63109(11) 0.80967(10) 0.33576(13)
N8 N 0.64523(16) 0.67699(10) 0.30909(10)
H2 H 0.645692 0.652732 0.316505
C8 C 0.96162(11) 0.83181(12) 0.80504(12)
C9 C 0.94025(10) 0.80157(14) 0.82285(11)
O3 O 0.84633(16) 0.86857(17) 0.72421(13)
C11 C 0.93189(10) 0.85511(12) 0.78815(12)
C13 C 0.95660(14) 0.76607(17) 0.84362(18)
H6 H 0.965979 0.773617 0.869250
H7 H 0.978019 0.755333 0.828516
H8 H 0.936276 0.746548 0.846371
H10 H 0.985005 0.866270 0.881358
C15 C 0.82173(18) 0.8455(2) 0.7087(2)
C16 C 0.73403(15) 0.78235(14) 0.3189(3)
H12 H 0.742888 0.792313 0.293872
H13 H 0.732267 0.754113 0.317672
H14 H 0.752417 0.789824 0.339055
C17 C 0.6593(2) 0.70742(14) 0.33081(14)
C18 C 0.93721(15) 0.89235(19) 0.7648(2)
H15 H 0.916998 0.894078 0.745024
H16 H 0.962626 0.892103 0.752283
H17 H 0.935428 0.914694 0.782090
C19 C 0.78697(12) 0.86475(14) 0.46029(8)
C20 C 0.75456(11) 0.86800(16) 0.48519(10)
H18 H 0.729448 0.871315 0.474656
C21 C 0.75968(12) 0.86630(17) 0.52584(10)
H19 H 0.737988 0.868473 0.542498
C22 C 0.79721(13) 0.86134(13) 0.54159(8)
C23 C 0.82962(11) 0.85809(13) 0.51669(11)
C24 C 0.82451(11) 0.85979(15) 0.47604(11)
H20 H 0.846194 0.857613 0.459386
C25 C 0.6156(3) 0.75341(14) 0.2445(2)
H21 H 0.630100 0.749396 0.220528
H22 H 0.616930 0.780734 0.251880
H23 H 0.588601 0.745954 0.240641
C26 C 0.58698(15) 0.80672(15) 0.3390(3)
H24 H 0.578908 0.814485 0.365046
H25 H 0.578928 0.779997 0.334239
H26 H 0.574933 0.823786 0.319922
C27 C 0.78201(16) 0.86547(14) 0.41714(16)
C28 C 0.80302(13) 0.85801(15) 0.58487(10)
C29 C 0.82007(14) 0.88870(13) 0.60605(12)
C30 C 0.82603(14) 0.88491(15) 0.64644(12)
H27 H 0.837438 0.905441 0.660613
C31 C 0.81494(14) 0.85042(16) 0.66565(10)
C32 C 0.79790(17) 0.81973(15) 0.64447(13)
H28 H 0.790477 0.796655 0.657316
C33 C 0.79193(17) 0.82353(14) 0.60408(13)
H29 H 0.780528 0.802992 0.589904
C34 C 0.6804(3) 0.7006(2) 0.3694(2)
H30 H 0.702741 0.717907 0.371157
H31 H 0.689189 0.673696 0.370733
H32 H 0.662712 0.705803 0.390896
N9 N 0.8321(3) 0.9257(3) 0.5866(2)
H33 H 0.842619 0.944376 0.600276
H34 H 0.828711 0.928664 0.561670
O4 O 0.81156(16) 0.8574(3) 0.39600(15)
N10 N 0.8671(3) 0.8533(2) 0.53201(19)
H35 H 0.887113 0.850289 0.516713
H36 H 0.870133 0.852459 0.557183
O5 O 0.80372(18) 0.82014(19) 0.72617(15)
Zn5 Zn 0.78123(2) 0.84197(2) 0.85510(2)
O6 O 0.40263(8) 0.75025(10) 0.87344(11)
N11 N 0.34525(9) 0.64985(9) 0.84332(9)
N13 N 0.34056(8) 0.68945(8) 0.83629(8)
N14 N 0.81796(8) 0.90213(9) 0.80602(10)
N15 N 0.27407(9) 0.63027(9) 0.68963(8)
N16 N 0.79590(9) 0.89720(8) 0.84033(9)
C35 C 0.32467(11) 0.65788(11) 0.78127(10)
C37 C 0.31151(11) 0.64848(12) 0.74118(9)
C39 C 0.32830(12) 0.69369(12) 0.79945(10)
C40 C 0.27599(12) 0.63289(13) 0.72920(9)
C41 C 0.33576(13) 0.63109(11) 0.80967(10)
N18 N 0.30909(10) 0.64523(16) 0.67699(10)
H37 H 0.316505 0.645692 0.652732
C42 C 0.80504(12) 0.96162(11) 0.83181(12)
C43 C 0.82285(11) 0.94025(10) 0.80157(14)
O7 O 0.72421(13) 0.84633(16) 0.86857(17)
C45 C 0.78815(12) 0.93189(10) 0.85511(12)
C47 C 0.84362(18) 0.95660(14) 0.76607(17)
H41 H 0.869250 0.965979 0.773617
H42 H 0.828516 0.978019 0.755333
H43 H 0.846371 0.936276 0.746548
H45 H 0.881358 0.985005 0.866270
C49 C 0.7087(2) 0.82173(18) 0.8455(2)
C50 C 0.3189(3) 0.73403(15) 0.78235(14)
H47 H 0.293872 0.742888 0.792313
H48 H 0.317672 0.732267 0.754113
H49 H 0.339055 0.752417 0.789824
C51 C 0.33081(14) 0.6593(2) 0.70742(14)
C52 C 0.7648(2) 0.93721(15) 0.89235(19)
H50 H 0.745024 0.916998 0.894078
H51 H 0.752283 0.962626 0.892103
H52 H 0.782090 0.935428 0.914694
C53 C 0.46029(8) 0.78697(12) 0.86475(14)
C54 C 0.48519(10) 0.75456(11) 0.86800(16)
H53 H 0.474656 0.729448 0.871315
C55 C 0.52584(10) 0.75968(12) 0.86630(17)
H54 H 0.542498 0.737988 0.868473
C56 C 0.54159(8) 0.79721(13) 0.86134(13)
C57 C 0.51669(11) 0.82962(11) 0.85809(13)
C58 C 0.47604(11) 0.82451(11) 0.85979(15)
H55 H 0.459386 0.846194 0.857613
C59 C 0.2445(2) 0.6156(3) 0.75341(14)
H56 H 0.220528 0.630100 0.749396
H57 H 0.251880 0.616930 0.780734
H58 H 0.240641 0.588601 0.745954
C60 C 0.3390(3) 0.58698(15) 0.80672(15)
H59 H 0.365046 0.578908 0.814485
H60 H 0.334239 0.578928 0.779997
H61 H 0.319922 0.574933 0.823786
C61 C 0.41714(16) 0.78201(16) 0.86547(14)
C62 C 0.58487(10) 0.80302(13) 0.85801(15)
C63 C 0.60605(12) 0.82007(14) 0.88870(13)
C64 C 0.64644(12) 0.82603(14) 0.88491(15)
H62 H 0.660613 0.837438 0.905441
C65 C 0.66565(10) 0.81494(14) 0.85042(16)
C66 C 0.64447(13) 0.79790(17) 0.81973(15)
H63 H 0.657316 0.790477 0.796655
C67 C 0.60408(13) 0.79193(17) 0.82353(14)
H64 H 0.589904 0.780528 0.802992
C68 C 0.3694(2) 0.6804(3) 0.7006(2)
H65 H 0.371157 0.702741 0.717907
H66 H 0.370733 0.689189 0.673696
H67 H 0.390896 0.662712 0.705803
N19 N 0.5866(2) 0.8321(3) 0.9257(3)
H68 H 0.600276 0.842619 0.944376
H69 H 0.561670 0.828711 0.928664
O8 O 0.39600(15) 0.81156(16) 0.8574(3)
N20 N 0.53201(19) 0.8671(3) 0.8533(2)
H70 H 0.516713 0.887113 0.850289
H71 H 0.557183 0.870133 0.852459
O9 O 0.72617(15) 0.80372(18) 0.82014(19)
O10 O 0.90263(8) 0.74975(10) 0.12656(11)
N21 N 0.84525(9) 0.85015(9) 0.15668(9)
N23 N 0.84056(8) 0.81055(8) 0.16371(8)
N25 N 0.77407(9) 0.86973(9) 0.31037(8)
C69 C 0.82467(11) 0.84212(11) 0.21873(10)
C71 C 0.81151(11) 0.85152(12) 0.25882(9)
C73 C 0.82830(12) 0.80631(12) 0.20055(10)
C74 C 0.77599(12) 0.86711(13) 0.27080(9)
C75 C 0.83576(13) 0.86891(11) 0.19033(10)
N28 N 0.80909(10) 0.85477(16) 0.32301(10)
H72 H 0.816505 0.854308 0.347268
C84 C 0.8189(3) 0.76597(15) 0.21765(14)
H82 H 0.793872 0.757112 0.207687
H83 H 0.817672 0.767733 0.245887
H84 H 0.839055 0.747583 0.210176
C85 C 0.83081(14) 0.8407(2) 0.29258(14)
C87 C 0.96029(8) 0.71303(12) 0.13525(14)
C88 C 0.98519(10) 0.74544(11) 0.13200(16)
H88 H 0.974656 0.770552 0.128685
C92 C 0.97604(11) 0.67549(11) 0.14021(15)
H90 H 0.959386 0.653806 0.142387
C93 C 0.7445(2) 0.8844(3) 0.24659(14)
H91 H 0.720528 0.869900 0.250604
H92 H 0.751880 0.883070 0.219266
H93 H 0.740641 0.911399 0.254046
C94 C 0.8390(3) 0.91302(15) 0.19328(15)
H94 H 0.865046 0.921092 0.185515
H95 H 0.834239 0.921072 0.220003
H96 H 0.819922 0.925067 0.176214
C95 C 0.91714(16) 0.71799(16) 0.13453(14)
C102 C 0.8694(2) 0.8196(3) 0.2994(2)
H100 H 0.871157 0.797259 0.282093
H101 H 0.870733 0.810811 0.326304
H102 H 0.890896 0.837288 0.294197
O12 O 0.89600(15) 0.68844(16) 0.1426(3)
N32 N 0.70545(9) 0.93155(8) 0.34304(9)
N37 N 0.66612(10) 0.93650(9) 0.34814(11)
C104 C 0.72198(11) 0.96697(10) 0.33681(13)
C106 C 0.69208(12) 0.99584(11) 0.33801(13)
C112 C 0.65786(13) 0.97507(10) 0.34535(15)
C114 C 0.76515(12) 0.97200(13) 0.33128(19)
H108 H 0.777610 0.946576 0.330624
H109 H 0.775719 0.987139 0.352751
H110 H 0.770033 0.985533 0.306886
C116 C 0.61725(15) 0.99089(15) 0.3515(2)
H114 H 0.605192 0.995916 0.326350
H116 H 0.601791 0.971934 0.365743
Zn11 Zn 0.85510(2) 0.78123(2) 0.84197(2)
Zn12 Zn 0.87870(2) 0.34858(2) 0.72971(2)
O18 O 0.87344(11) 0.40263(8) 0.75025(10)
N41 N 0.84332(9) 0.34525(9) 0.64985(9)
N43 N 0.83629(8) 0.34056(8) 0.68945(8)
N44 N 0.80602(10) 0.81796(8) 0.90213(9)
N45 N 0.68963(8) 0.27407(9) 0.63027(9)
N46 N 0.84033(9) 0.79590(9) 0.89720(8)
C137 C 0.78127(10) 0.32467(11) 0.65788(11)
C139 C 0.74118(9) 0.31151(11) 0.64848(12)
C141 C 0.79945(10) 0.32830(12) 0.69369(12)
C142 C 0.72920(9) 0.27599(12) 0.63289(13)
C143 C 0.80967(10) 0.33576(13) 0.63109(11)
N48 N 0.67699(10) 0.30909(10) 0.64523(16)
H142 H 0.652732 0.316505 0.645692
C144 C 0.83181(12) 0.80504(12) 0.96162(11)
C145 C 0.80157(14) 0.82285(11) 0.94025(10)
O19 O 0.86857(17) 0.72421(13) 0.84633(16)
C147 C 0.85511(12) 0.78815(12) 0.93189(10)
C149 C 0.76607(17) 0.84362(18) 0.95660(14)
H146 H 0.773617 0.869250 0.965979
H147 H 0.755333 0.828516 0.978019
H148 H 0.746548 0.846371 0.936276
H150 H 0.866270 0.881358 0.985005
C151 C 0.8455(2) 0.7087(2) 0.82173(18)
C152 C 0.78235(14) 0.3189(3) 0.73403(15)
H152 H 0.792313 0.293872 0.742888
H153 H 0.754113 0.317672 0.732267
H154 H 0.789824 0.339055 0.752417
C153 C 0.70742(14) 0.33081(14) 0.6593(2)
C154 C 0.89235(19) 0.7648(2) 0.93721(15)
H155 H 0.894078 0.745024 0.916998
H156 H 0.892103 0.752283 0.962626
H157 H 0.914694 0.782090 0.935428
C155 C 0.86475(14) 0.46029(8) 0.78697(12)
C156 C 0.86800(16) 0.48519(10) 0.75456(11)
H158 H 0.871315 0.474656 0.729448
C157 C 0.86630(17) 0.52584(10) 0.75968(12)
H159 H 0.868473 0.542498 0.737988
C158 C 0.86134(13) 0.54159(8) 0.79721(13)
C159 C 0.85809(13) 0.51669(11) 0.82962(11)
C160 C 0.85979(15) 0.47604(11) 0.82451(11)
H160 H 0.857613 0.459386 0.846194
C161 C 0.75341(14) 0.2445(2) 0.6156(3)
H161 H 0.749396 0.220528 0.630100
H162 H 0.780734 0.251880 0.616930
H163 H 0.745954 0.240641 0.588601
C162 C 0.80672(15) 0.3390(3) 0.58698(15)
H164 H 0.814485 0.365046 0.578908
H165 H 0.779997 0.334239 0.578928
H166 H 0.823786 0.319922 0.574933
C163 C 0.86547(14) 0.41714(16) 0.78201(16)
C164 C 0.85801(15) 0.58487(10) 0.80302(13)
C165 C 0.88870(13) 0.60605(12) 0.82007(14)
C166 C 0.88491(15) 0.64644(12) 0.82603(14)
H167 H 0.905441 0.660613 0.837438
C167 C 0.85042(16) 0.66565(10) 0.81494(14)
C168 C 0.81973(15) 0.64447(13) 0.79790(17)
H168 H 0.796655 0.657316 0.790477
C169 C 0.82353(14) 0.60408(13) 0.79193(17)
H169 H 0.802992 0.589904 0.780528
C170 C 0.7006(2) 0.3694(2) 0.6804(3)
H170 H 0.717907 0.371157 0.702741
H171 H 0.673696 0.370733 0.689189
H172 H 0.705803 0.390896 0.662712
N49 N 0.9257(3) 0.5866(2) 0.8321(3)
H173 H 0.944376 0.600276 0.842619
H174 H 0.928664 0.561670 0.828711
O20 O 0.8574(3) 0.39600(15) 0.81156(16)
N50 N 0.8533(2) 0.53201(19) 0.8671(3)
H175 H 0.850289 0.516713 0.887113
H176 H 0.852459 0.557183 0.870133
O21 O 0.82014(19) 0.72617(15) 0.80372(18)
Zn15 Zn 0.625000 0.89509(2) 0.35491(2)
Zn16 Zn 0.89509(2) 0.35491(2) 0.625000
Zn21 Zn 0.35491(2) 0.625000 0.89509(2)
Zn29 Zn 0.22971(2) 0.62130(2) 0.65142(2)
Zn32 Zn 0.65142(2) 0.22971(2) 0.62130(2)
Zn33 Zn 0.62130(2) 0.65142(2) 0.22971(2)
N63 N 0.60015(9) 0.90475(9) 0.40668(9)
N65 N 0.93155(8) 0.34304(9) 0.70545(9)
N67 N 0.34304(9) 0.70545(9) 0.93155(8)
N71 N 0.86973(9) 0.31037(8) 0.77407(9)
N75 N 0.81037(8) 0.72593(9) 0.13027(9)
N77 N 0.58388(10) 0.90186(11) 0.31350(9)
H213 H 0.817675 0.880198 0.378655
Zn1_2 Zn 0.39509(2) 0.14509(2) 0.375000
H1_2 H 0.703023 0.203024 0.296977
N2_2 N 0.43155(8) 0.15696(9) 0.29455(9)
N4_2 N 0.59787(9) 0.19398(10) 0.31796(8)
N6_2 N 0.60280(8) 0.15967(9) 0.29590(9)
N7_2 N 0.43650(9) 0.15186(11) 0.33388(10)
C2_2 C 0.46697(10) 0.16319(13) 0.27802(11)
C4_2 C 0.49584(11) 0.16199(13) 0.30792(12)
C8_2 C 0.53838(11) 0.16819(12) 0.30504(12)
C9_2 C 0.55975(10) 0.19843(14) 0.32285(11)
C10_2 C 0.47507(10) 0.15465(15) 0.34214(13)
O3_2 O 0.65367(16) 0.13143(17) 0.22421(13)
C11_2 C 0.56811(10) 0.14489(12) 0.28815(12)
C12_2 C 0.47200(13) 0.16872(19) 0.23485(12)
H3_2 H 0.446576 0.169376 0.222390
H4_2 H 0.487139 0.147249 0.224281
H5_2 H 0.485533 0.193114 0.229967
C13_2 C 0.54340(14) 0.23393(17) 0.34362(18)
H6_2 H 0.534021 0.226383 0.369250
H7_2 H 0.521981 0.244667 0.328516
H8_2 H 0.563724 0.253452 0.346371
C14_2 C 0.49089(15) 0.1485(2) 0.38275(15)
H9_2 H 0.495916 0.173650 0.394808
H10_2 H 0.514995 0.133730 0.381358
H11_2 H 0.471934 0.134257 0.398209
C15_2 C 0.67827(18) 0.1545(2) 0.2087(2)
C18_2 C 0.56279(15) 0.10765(19) 0.2648(2)
H15_2 H 0.583002 0.105922 0.245024
H16_2 H 0.537374 0.107897 0.252283
H17_2 H 0.564572 0.085306 0.282090
C21_2 C 0.74032(12) 0.13370(17) 0.02584(10)
H19_2 H 0.762012 0.131527 0.042498
C22_2 C 0.70279(13) 0.13866(13) 0.04159(8)
C23_2 C 0.67038(11) 0.14191(13) 0.01669(11)
C28_2 C 0.69698(13) 0.14199(15) 0.08487(10)
C29_2 C 0.67993(14) 0.11130(13) 0.10605(12)
C30_2 C 0.67397(14) 0.11509(15) 0.14644(12)
H27_2 H 0.662562 0.094559 0.160613
C31_2 C 0.68506(14) 0.14958(16) 0.16565(10)
C32_2 C 0.70210(17) 0.18027(15) 0.14447(13)
H28_2 H 0.709523 0.203345 0.157316
C33_2 C 0.70807(17) 0.17647(14) 0.10408(13)
H29_2 H 0.719472 0.197008 0.089904
N9_2 N 0.6679(3) 0.0743(3) 0.0866(2)
H33_2 H 0.657381 0.055624 0.100276
H34_2 H 0.671289 0.071336 0.061670
N10_2 N 0.6329(3) 0.1467(2) 0.03201(19)
H35_2 H 0.612887 0.149711 0.016713
H36_2 H 0.629867 0.147541 0.057183
O5_2 O 0.69628(18) 0.17986(19) 0.22617(15)
Zn11_2 Zn 0.64490(2) 0.21877(2) 0.34197(2)
O18_2 O 0.62656(11) 0.59737(8) 0.25025(10)
N41_2 N 0.65668(9) 0.65475(9) 0.14985(9)
N42_2 N 0.65696(9) 0.20545(9) 0.56845(8)
N43_2 N 0.66371(8) 0.65944(8) 0.18945(8)
N46_2 N 0.65967(9) 0.20410(9) 0.39720(8)
N47_2 N 0.65186(11) 0.16612(10) 0.56350(9)
C137_2 C 0.71873(10) 0.67533(11) 0.15788(11)
C138_2 C 0.66319(13) 0.22198(11) 0.53303(10)
C139_2 C 0.75882(9) 0.68849(11) 0.14848(12)
C140_2 C 0.66199(13) 0.19208(12) 0.50416(11)
C141_2 C 0.70055(10) 0.67170(12) 0.19369(12)
C142_2 C 0.77080(9) 0.72401(12) 0.13289(13)
C143_2 C 0.69033(10) 0.66424(13) 0.13109(11)
N48_2 N 0.82301(10) 0.69091(10) 0.14523(16)
H142_2 H 0.847268 0.683495 0.145692
C144_2 C 0.66819(12) 0.19496(12) 0.46162(11)
C145_2 C 0.69843(14) 0.17715(11) 0.44025(10)
C146_2 C 0.65465(15) 0.15786(13) 0.52493(10)
O19_2 O 0.63143(17) 0.27579(13) 0.34633(16)
C147_2 C 0.64489(12) 0.21185(12) 0.43189(10)
C148_2 C 0.66872(19) 0.26515(12) 0.52800(13)
H143_2 H 0.669376 0.277610 0.553424
H144_2 H 0.647249 0.275719 0.512861
H145_2 H 0.693114 0.270033 0.514467
C149_2 C 0.73393(17) 0.15638(18) 0.45660(14)
H146_2 H 0.726383 0.130750 0.465979
H147_2 H 0.744667 0.171484 0.478019
H148_2 H 0.753452 0.153629 0.436276
C150_2 C 0.6485(2) 0.11725(15) 0.50911(15)
H149_2 H 0.673650 0.105192 0.504084
H150_2 H 0.633730 0.118642 0.485005
H151_2 H 0.634257 0.101791 0.528066
C151_2 C 0.6545(2) 0.2913(2) 0.32173(18)
C152_2 C 0.71765(14) 0.6811(3) 0.23403(15)
H152_2 H 0.707687 0.706128 0.242888
H153_2 H 0.745887 0.682328 0.232267
H154_2 H 0.710176 0.660945 0.252417
C153_2 C 0.79258(14) 0.66919(14) 0.1593(2)
C154_2 C 0.60765(19) 0.2352(2) 0.43721(15)
H155_2 H 0.605922 0.254976 0.416998
H156_2 H 0.607897 0.247717 0.462626
H157_2 H 0.585306 0.217910 0.435428
C155_2 C 0.63525(14) 0.53971(8) 0.28697(12)
C156_2 C 0.63200(16) 0.51481(10) 0.25456(11)
H158_2 H 0.628685 0.525344 0.229448
C157_2 C 0.63370(17) 0.47416(10) 0.25968(12)
H159_2 H 0.631527 0.457502 0.237988
C158_2 C 0.63866(13) 0.45841(8) 0.29721(13)
C159_2 C 0.64191(13) 0.48331(11) 0.32962(11)
C160_2 C 0.64021(15) 0.52396(11) 0.32451(11)
H160_2 H 0.642387 0.540614 0.346194
C161_2 C 0.74659(14) 0.7555(2) 0.1156(3)
H161_2 H 0.750604 0.779472 0.130100
H162_2 H 0.719266 0.748120 0.116930
H163_2 H 0.754046 0.759359 0.088601
C162_2 C 0.69328(15) 0.6610(3) 0.08698(15)
H164_2 H 0.685515 0.634954 0.078908
H165_2 H 0.720003 0.665761 0.078928
H166_2 H 0.676214 0.680078 0.074933
C163_2 C 0.63453(14) 0.58286(16) 0.28201(16)
C164_2 C 0.64199(15) 0.41513(10) 0.30302(13)
C165_2 C 0.61130(13) 0.39395(12) 0.32007(14)
C166_2 C 0.61509(15) 0.35356(12) 0.32603(14)
H167_2 H 0.594559 0.339387 0.337438
C167_2 C 0.64958(16) 0.33435(10) 0.31494(14)
C168_2 C 0.68027(15) 0.35553(13) 0.29790(17)
H168_2 H 0.703345 0.342684 0.290477
C169_2 C 0.67647(14) 0.39592(13) 0.29193(17)
H169_2 H 0.697008 0.410096 0.280528
C170_2 C 0.7994(2) 0.6306(2) 0.1804(3)
H170_2 H 0.782093 0.628843 0.202741
H171_2 H 0.826304 0.629267 0.189189
H172_2 H 0.794197 0.609104 0.162712
N49_2 N 0.5743(3) 0.4134(2) 0.3321(3)
H173_2 H 0.555624 0.399724 0.342619
H174_2 H 0.571336 0.438330 0.328711
O20_2 O 0.6426(3) 0.60400(15) 0.31156(16)
N50_2 N 0.6467(2) 0.46799(19) 0.3671(3)
H175_2 H 0.649711 0.483287 0.387113
H176_2 H 0.647541 0.442817 0.370133
O21_2 O 0.67986(19) 0.27383(15) 0.30372(18)
Zn14_2 Zn 0.37870(2) 0.15142(2) 0.27029(2)
O22_2 O 0.37344(11) 0.09737(8) 0.24975(10)
N51_2 N 0.34332(9) 0.15475(9) 0.35015(9)
N53_2 N 0.33629(8) 0.15944(8) 0.31055(8)
C171_2 C 0.28127(10) 0.17533(11) 0.34212(11)
C173_2 C 0.24118(9) 0.18849(11) 0.35152(12)
C175_2 C 0.29945(10) 0.17170(12) 0.30631(12)
C176_2 C 0.22920(9) 0.22401(12) 0.36711(13)
C177_2 C 0.30967(10) 0.16424(13) 0.36891(11)
N58_2 N 0.17699(10) 0.19091(10) 0.35477(16)
H177_2 H 0.152732 0.183495 0.354308
C186_2 C 0.28235(14) 0.1811(3) 0.26597(15)
H187_2 H 0.292313 0.206128 0.257112
H188_2 H 0.254113 0.182328 0.267733
H189_2 H 0.289824 0.160945 0.247583
C187_2 C 0.20742(14) 0.16919(14) 0.3407(2)
C189_2 C 0.36475(14) 0.03971(8) 0.21303(12)
C190_2 C 0.36800(16) 0.01481(10) 0.24544(11)
H193_2 H 0.371315 0.025344 0.270552
C194_2 C 0.35979(15) 0.02396(11) 0.17549(11)
H195_2 H 0.357613 0.040614 0.153806
C195_2 C 0.25341(14) 0.2555(2) 0.3844(3)
H196_2 H 0.249396 0.279472 0.369900
H197_2 H 0.280734 0.248120 0.383070
H198_2 H 0.245954 0.259359 0.411399
C196_2 C 0.30672(15) 0.1610(3) 0.41302(15)
H199_2 H 0.314485 0.134954 0.421092
H200_2 H 0.279997 0.165761 0.421072
H201_2 H 0.323786 0.180078 0.425067
C197_2 C 0.36547(14) 0.08286(16) 0.21799(16)
C204_2 C 0.2006(2) 0.1306(2) 0.3196(3)
H205_2 H 0.217907 0.128843 0.297259
H206_2 H 0.173696 0.129267 0.310811
H207_2 H 0.205803 0.109104 0.337288
O24_2 O 0.3574(3) 0.10400(15) 0.18844(16)
Zn16_2 Zn 0.60491(2) 0.64509(2) 0.125000
Zn19_2 Zn 0.64509(2) 0.125000 0.60491(2)
N64_2 N 0.40475(9) 0.09332(9) 0.39985(9)
N65_2 N 0.56845(8) 0.65696(9) 0.20545(9)
N72_2 N 0.36973(9) 0.18963(8) 0.22593(9)
N76_2 N 0.40186(11) 0.18650(9) 0.41612(10)
O2_2 O 0.74975(10) 0.12656(11) 0.90263(8)
N3_2 N 0.81055(8) 0.16371(8) 0.84056(8)
C1_2 C 0.84212(11) 0.21873(10) 0.82467(11)
C3_2 C 0.85152(12) 0.25882(9) 0.81151(11)
C5_2 C 0.80631(12) 0.20055(10) 0.82830(12)
C6_2 C 0.86711(13) 0.27080(9) 0.77599(12)
C7_2 C 0.86891(11) 0.19033(10) 0.83576(13)
N8_2 N 0.85477(16) 0.32301(10) 0.80909(10)
H2_2 H 0.854308 0.347268 0.816505
C16_2 C 0.76597(15) 0.21765(14) 0.8189(3)
H12_2 H 0.757112 0.207687 0.793872
H13_2 H 0.767733 0.245887 0.817672
H14_2 H 0.747583 0.210176 0.839055
C17_2 C 0.8407(2) 0.29258(14) 0.83081(14)
C19_2 C 0.71303(12) 0.13525(14) 0.96029(8)
C20_2 C 0.74544(11) 0.13200(16) 0.98519(10)
H18_2 H 0.770552 0.128685 0.974656
C24_2 C 0.67549(11) 0.14021(15) 0.97604(11)
H20_2 H 0.653806 0.142387 0.959386
C25_2 C 0.8844(3) 0.24659(14) 0.7445(2)
H21_2 H 0.869900 0.250604 0.720528
H22_2 H 0.883070 0.219266 0.751880
H23_2 H 0.911399 0.254046 0.740641
C26_2 C 0.91302(15) 0.19328(15) 0.8390(3)
H24_2 H 0.921092 0.185515 0.865046
H25_2 H 0.921072 0.220003 0.834239
H26_2 H 0.925067 0.176214 0.819922
C27_2 C 0.71799(16) 0.13453(14) 0.91714(16)
C34_2 C 0.8196(3) 0.2994(2) 0.8694(2)
H30_2 H 0.797259 0.282093 0.871157
H31_2 H 0.810811 0.326304 0.870733
H32_2 H 0.837288 0.294197 0.890896
O4_2 O 0.68844(16) 0.1426(3) 0.89600(15)
O10_2 O 0.59737(8) 0.25025(10) 0.62656(11)
N21_2 N 0.65475(9) 0.14985(9) 0.65668(9)
N22_2 N 0.20545(9) 0.56845(8) 0.65696(9)
N23_2 N 0.65944(8) 0.18945(8) 0.66371(8)
N24_2 N 0.18204(8) 0.40213(9) 0.69398(10)
N25_2 N 0.72593(9) 0.13027(9) 0.81037(8)
N26_2 N 0.20410(9) 0.39720(8) 0.65967(9)
N27_2 N 0.16612(10) 0.56350(9) 0.65186(11)
C69_2 C 0.67533(11) 0.15788(11) 0.71873(10)
C70_2 C 0.22198(11) 0.53303(10) 0.66319(13)
C71_2 C 0.68849(11) 0.14848(12) 0.75882(9)
C72_2 C 0.19208(12) 0.50416(11) 0.66199(13)
C73_2 C 0.67170(12) 0.19369(12) 0.70055(10)
C74_2 C 0.72401(12) 0.13289(13) 0.77080(9)
C75_2 C 0.66424(13) 0.13109(11) 0.69033(10)
N28_2 N 0.69091(10) 0.14523(16) 0.82301(10)
H72_2 H 0.683495 0.145692 0.847268
C76_2 C 0.19496(12) 0.46162(11) 0.66819(12)
C77_2 C 0.17715(11) 0.44025(10) 0.69843(14)
C78_2 C 0.15786(13) 0.52493(10) 0.65465(15)
O11_2 O 0.27579(13) 0.34633(16) 0.63143(17)
C79_2 C 0.21185(12) 0.43189(10) 0.64489(12)
C80_2 C 0.26515(12) 0.52800(13) 0.66872(19)
H73_2 H 0.277610 0.553424 0.669376
H74_2 H 0.275719 0.512861 0.647249
H75_2 H 0.270033 0.514467 0.693114
C81_2 C 0.15638(18) 0.45660(14) 0.73393(17)
H76_2 H 0.130750 0.465979 0.726383
H77_2 H 0.171484 0.478019 0.744667
H78_2 H 0.153629 0.436276 0.753452
C82_2 C 0.11725(15) 0.50911(15) 0.6485(2)
H79_2 H 0.105192 0.504084 0.673650
H80_2 H 0.118642 0.485005 0.633730
H81_2 H 0.101791 0.528066 0.634257
C83_2 C 0.2913(2) 0.32173(18) 0.6545(2)
C84_2 C 0.6811(3) 0.23403(15) 0.71765(14)
H82_2 H 0.706128 0.242888 0.707687
H83_2 H 0.682328 0.232267 0.745887
H84_2 H 0.660945 0.252417 0.710176
C85_2 C 0.66919(14) 0.1593(2) 0.79258(14)
C86_2 C 0.2352(2) 0.43721(15) 0.60765(19)
H85_2 H 0.254976 0.416998 0.605922
H86_2 H 0.247717 0.462626 0.607897
H87_2 H 0.217910 0.435428 0.585306
C87_2 C 0.53971(8) 0.28697(12) 0.63525(14)
C88_2 C 0.51481(10) 0.25456(11) 0.63200(16)
H88_2 H 0.525344 0.229448 0.628685
C89_2 C 0.47416(10) 0.25968(12) 0.63370(17)
H89_2 H 0.457502 0.237988 0.631527
C90_2 C 0.45841(8) 0.29721(13) 0.63866(13)
C91_2 C 0.48331(11) 0.32962(11) 0.64191(13)
C92_2 C 0.52396(11) 0.32451(11) 0.64021(15)
H90_2 H 0.540614 0.346194 0.642387
C93_2 C 0.7555(2) 0.1156(3) 0.74659(14)
H91_2 H 0.779472 0.130100 0.750604
H92_2 H 0.748120 0.116930 0.719266
H93_2 H 0.759359 0.088601 0.754046
C94_2 C 0.6610(3) 0.08698(15) 0.69328(15)
H94_2 H 0.634954 0.078908 0.685515
H95_2 H 0.665761 0.078928 0.720003
H96_2 H 0.680078 0.074933 0.676214
C95_2 C 0.58286(16) 0.28201(16) 0.63453(14)
C96_2 C 0.41513(10) 0.30302(13) 0.64199(15)
C97_2 C 0.39395(12) 0.32007(14) 0.61130(13)
C98_2 C 0.35356(12) 0.32603(14) 0.61509(15)
H97_2 H 0.339387 0.337438 0.594559
C99_2 C 0.33435(10) 0.31494(14) 0.64958(16)
C100_2 C 0.35553(13) 0.29790(17) 0.68027(15)
H98_2 H 0.342684 0.290477 0.703345
C101_2 C 0.39592(13) 0.29193(17) 0.67647(14)
H99_2 H 0.410096 0.280528 0.697008
C102_2 C 0.6306(2) 0.1804(3) 0.7994(2)
H100_2 H 0.628843 0.202741 0.782093
H101_2 H 0.629267 0.189189 0.826304
H102_2 H 0.609104 0.162712 0.794197
N29_2 N 0.4134(2) 0.3321(3) 0.5743(3)
H103_2 H 0.399724 0.342619 0.555624
H104_2 H 0.438330 0.328711 0.571336
O12_2 O 0.60400(15) 0.31156(16) 0.6426(3)
N30_2 N 0.46799(19) 0.3671(3) 0.6467(2)
H105_2 H 0.483287 0.387113 0.649711
H106_2 H 0.442817 0.370133 0.647541
O13_2 O 0.27383(15) 0.30372(18) 0.67986(19)
H212_2 H 0.203023 0.296976 0.703023
Zn17_2 Zn 0.125000 0.60491(2) 0.64509(2)
Zn23_2 Zn 0.15803(2) 0.35510(2) 0.71877(2)
H213_2 H 0.682325 0.119802 0.878655
N56_2 N 0.34033(9) 0.70410(9) 0.10280(8)
C178_2 C 0.33181(12) 0.69496(12) 0.03838(11)
C179_2 C 0.30157(14) 0.67715(11) 0.05975(10)
O23_2 O 0.36857(17) 0.77579(13) 0.15367(16)
C181_2 C 0.35511(12) 0.71185(12) 0.06811(10)
C183_2 C 0.26607(17) 0.65638(18) 0.04340(14)
H181_2 H 0.273617 0.630750 0.034021
H182_2 H 0.255333 0.671484 0.021981
H183_2 H 0.246548 0.653629 0.063724
H185_2 H 0.366270 0.618642 0.014995
C185_2 C 0.3455(2) 0.7913(2) 0.17827(18)
C188_2 C 0.39235(19) 0.7352(2) 0.06279(15)
H190_2 H 0.394078 0.754976 0.083002
H191_2 H 0.392103 0.747717 0.037374
H192_2 H 0.414694 0.717910 0.064572
C191_2 C 0.36630(17) 0.97416(10) 0.24032(12)
H194_2 H 0.368473 0.957502 0.262012
C192_2 C 0.36134(13) 0.95841(8) 0.20279(13)
C193_2 C 0.35809(13) 0.98331(11) 0.17038(11)
C198_2 C 0.35801(15) 0.91513(10) 0.19698(13)
C199_2 C 0.38870(13) 0.89395(12) 0.17993(14)
C200_2 C 0.38491(15) 0.85356(12) 0.17397(14)
H202_2 H 0.405441 0.839387 0.162562
C201_2 C 0.35042(16) 0.83435(10) 0.18506(14)
C202_2 C 0.31973(15) 0.85553(13) 0.20210(17)
H203_2 H 0.296655 0.842684 0.209523
C203_2 C 0.32353(14) 0.89592(13) 0.20807(17)
H204_2 H 0.302992 0.910096 0.219472
N59_2 N 0.4257(3) 0.9134(2) 0.1679(3)
H208_2 H 0.444376 0.899724 0.157381
H209_2 H 0.428664 0.938330 0.171289
N60_2 N 0.3533(2) 0.96799(19) 0.1329(3)
H210_2 H 0.350289 0.983287 0.112887
H211_2 H 0.352459 0.942817 0.129867
O25_2 O 0.32014(19) 0.77383(15) 0.19628(18)
N68_2 N 0.40213(9) 0.69398(10) 0.18204(8)
N57_2 N 0.34814(11) 0.66612(10) 0.93650(9)
C172_2 C 0.33681(13) 0.72198(11) 0.96697(10)
C174_2 C 0.33801(13) 0.69208(12) 0.99584(11)
C180_2 C 0.34535(15) 0.65786(13) 0.97507(10)
C182_2 C 0.33128(19) 0.76515(12) 0.97200(13)
H178_2 H 0.330624 0.777610 0.946576
H179_2 H 0.352751 0.775719 0.987139
H180_2 H 0.306886 0.770033 0.985533
C184_2 C 0.3515(2) 0.61725(15) 0.99089(15)
H184_2 H 0.326350 0.605192 0.995916
H186_2 H 0.365743 0.601791 0.971934
H214_2 H 0.378655 0.817675 0.880198
O2_3 O 0.24975(10) 0.37344(11) 0.09737(8)
N1_2 N 0.35015(9) 0.34332(9) 0.15475(9)
N3_3 N 0.31055(8) 0.33629(8) 0.15944(8)
C1_3 C 0.34212(11) 0.28127(10) 0.17533(11)
C3_3 C 0.35152(12) 0.24118(9) 0.18849(11)
C5_3 C 0.30631(12) 0.29945(10) 0.17170(12)
C6_3 C 0.36711(13) 0.22920(9) 0.22401(12)
C7_3 C 0.36891(11) 0.30967(10) 0.16424(13)
N8_3 N 0.35477(16) 0.17699(10) 0.19091(10)
H2_3 H 0.354308 0.152732 0.183495
C16_3 C 0.26597(15) 0.28235(14) 0.1811(3)
H12_3 H 0.257112 0.292313 0.206128
H13_3 H 0.267733 0.254113 0.182328
H14_3 H 0.247583 0.289824 0.160945
C17_3 C 0.3407(2) 0.20742(14) 0.16919(14)
C19_3 C 0.21303(12) 0.36475(14) 0.03971(8)
C20_3 C 0.24544(11) 0.36800(16) 0.01481(10)
H18_3 H 0.270552 0.371315 0.025344
C24_3 C 0.17549(11) 0.35979(15) 0.02396(11)
H20_3 H 0.153806 0.357613 0.040614
C25_3 C 0.3844(3) 0.25341(14) 0.2555(2)
H21_3 H 0.369900 0.249396 0.279472
H22_3 H 0.383070 0.280734 0.248120
H23_3 H 0.411399 0.245954 0.259359
C26_3 C 0.41302(15) 0.30672(15) 0.1610(3)
H24_3 H 0.421092 0.314485 0.134954
H25_3 H 0.421072 0.279997 0.165761
H26_3 H 0.425067 0.323786 0.180078
C27_3 C 0.21799(16) 0.36547(14) 0.08286(16)
C34_3 C 0.3196(3) 0.2006(2) 0.1306(2)
H30_3 H 0.297259 0.217907 0.128843
H31_3 H 0.310811 0.173696 0.129267
H32_3 H 0.337288 0.205803 0.109104
O4_3 O 0.18844(16) 0.3574(3) 0.10400(15)
N63_2 N 0.39985(9) 0.40475(9) 0.09332(9)
N77_2 N 0.41612(10) 0.40186(11) 0.18650(9)
H213_3 H 0.182325 0.380198 0.121345
N6_3 N 0.10280(8) 0.34033(9) 0.70410(9)
C8_3 C 0.03838(11) 0.33181(12) 0.69496(12)
C9_3 C 0.05975(10) 0.30157(14) 0.67715(11)
O3_3 O 0.15367(16) 0.36857(17) 0.77579(13)
C11_3 C 0.06811(10) 0.35511(12) 0.71185(12)
C13_3 C 0.04340(14) 0.26607(17) 0.65638(18)
H6_3 H 0.034021 0.273617 0.630750
H7_3 H 0.021981 0.255333 0.671484
H8_3 H 0.063724 0.246548 0.653629
H10_3 H 0.014995 0.366270 0.618642
C15_3 C 0.17827(18) 0.3455(2) 0.7913(2)
C18_3 C 0.06279(15) 0.39235(19) 0.7352(2)
H15_3 H 0.083002 0.394078 0.754976
H16_3 H 0.037374 0.392103 0.747717
H17_3 H 0.064572 0.414694 0.717910
C21_3 C 0.24032(12) 0.36630(17) 0.97416(10)
H19_3 H 0.262012 0.368473 0.957502
C22_3 C 0.20279(13) 0.36134(13) 0.95841(8)
C23_3 C 0.17038(11) 0.35809(13) 0.98331(11)
C28_3 C 0.19698(13) 0.35801(15) 0.91513(10)
C29_3 C 0.17993(14) 0.38870(13) 0.89395(12)
C30_3 C 0.17397(14) 0.38491(15) 0.85356(12)
H27_3 H 0.162562 0.405441 0.839387
C31_3 C 0.18506(14) 0.35042(16) 0.83435(10)
C32_3 C 0.20210(17) 0.31973(15) 0.85553(13)
H28_3 H 0.209523 0.296655 0.842684
C33_3 C 0.20807(17) 0.32353(14) 0.89592(13)
H29_3 H 0.219472 0.302992 0.910096
N9_3 N 0.1679(3) 0.4257(3) 0.9134(2)
H33_3 H 0.157381 0.444376 0.899724
H34_3 H 0.171289 0.428664 0.938330
N10_3 N 0.1329(3) 0.3533(2) 0.96799(19)
H35_3 H 0.112887 0.350289 0.983287
H36_3 H 0.129867 0.352459 0.942817
O5_3 O 0.19628(18) 0.32014(19) 0.77383(15)
N61_2 N 0.14985(9) 0.65668(9) 0.65475(9)
N62_2 N 0.10015(9) 0.59525(9) 0.59332(9)
N78_2 N 0.08388(10) 0.59814(11) 0.68650(9)
H214_3 H 0.878655 0.682325 0.119802
N7_3 N 0.93650(9) 0.34814(11) 0.66612(10)
C2_3 C 0.96697(10) 0.33681(13) 0.72198(11)
C4_3 C 0.99584(11) 0.33801(13) 0.69208(12)
C10_3 C 0.97507(10) 0.34535(15) 0.65786(13)
C12_3 C 0.97200(13) 0.33128(19) 0.76515(12)
H3_3 H 0.946576 0.330624 0.777610
H4_3 H 0.987139 0.352751 0.775719
H5_3 H 0.985533 0.306886 0.770033
C14_3 C 0.99089(15) 0.3515(2) 0.61725(15)
H9_3 H 0.995916 0.326350 0.605192
H11_3 H 0.971934 0.365743 0.601791
N64_3 N 0.90475(9) 0.40668(9) 0.60015(9)
N76_3 N 0.90186(11) 0.31350(9) 0.58388(10)
O2_4 O 0.25025(10) 0.62656(11) 0.59737(8)
N3_4 N 0.18945(8) 0.66371(8) 0.65944(8)
N6_4 N 0.39720(8) 0.65967(9) 0.20410(9)
N7_4 N 0.56350(9) 0.65186(11) 0.16612(10)
C1_4 C 0.15788(11) 0.71873(10) 0.67533(11)
C2_4 C 0.53303(10) 0.66319(13) 0.22198(11)
C3_4 C 0.14848(12) 0.75882(9) 0.68849(11)
C4_4 C 0.50416(11) 0.66199(13) 0.19208(12)
C5_4 C 0.19369(12) 0.70055(10) 0.67170(12)
C6_4 C 0.13289(13) 0.77080(9) 0.72401(12)
C7_4 C 0.13109(11) 0.69033(10) 0.66424(13)
N8_4 N 0.14523(16) 0.82301(10) 0.69091(10)
H2_4 H 0.145692 0.847268 0.683495
C8_4 C 0.46162(11) 0.66819(12) 0.19496(12)
C9_4 C 0.44025(10) 0.69843(14) 0.17715(11)
C10_4 C 0.52493(10) 0.65465(15) 0.15786(13)
O3_4 O 0.34633(16) 0.63143(17) 0.27579(13)
C11_4 C 0.43189(10) 0.64489(12) 0.21185(12)
C12_4 C 0.52800(13) 0.66872(19) 0.26515(12)
H3_4 H 0.553424 0.669376 0.277610
H4_4 H 0.512861 0.647249 0.275719
H5_4 H 0.514467 0.693114 0.270033
C13_4 C 0.45660(14) 0.73393(17) 0.15638(18)
H6_4 H 0.465979 0.726383 0.130750
H7_4 H 0.478019 0.744667 0.171484
H8_4 H 0.436276 0.753452 0.153629
C14_4 C 0.50911(15) 0.6485(2) 0.11725(15)
H9_4 H 0.504084 0.673650 0.105192
H10_4 H 0.485005 0.633730 0.118642
H11_4 H 0.528066 0.634257 0.101791
C15_4 C 0.32173(18) 0.6545(2) 0.2913(2)
C16_4 C 0.23403(15) 0.71765(14) 0.6811(3)
H12_4 H 0.242888 0.707687 0.706128
H13_4 H 0.232267 0.745887 0.682328
H14_4 H 0.252417 0.710176 0.660945
C17_4 C 0.1593(2) 0.79258(14) 0.66919(14)
C18_4 C 0.43721(15) 0.60765(19) 0.2352(2)
H15_4 H 0.416998 0.605922 0.254976
H16_4 H 0.462626 0.607897 0.247717
H17_4 H 0.435428 0.585306 0.217910
C19_4 C 0.28697(12) 0.63525(14) 0.53971(8)
C20_4 C 0.25456(11) 0.63200(16) 0.51481(10)
H18_4 H 0.229448 0.628685 0.525344
C21_4 C 0.25968(12) 0.63370(17) 0.47416(10)
H19_4 H 0.237988 0.631527 0.457502
C22_4 C 0.29721(13) 0.63866(13) 0.45841(8)
C23_4 C 0.32962(11) 0.64191(13) 0.48331(11)
C24_4 C 0.32451(11) 0.64021(15) 0.52396(11)
H20_4 H 0.346194 0.642387 0.540614
C25_4 C 0.1156(3) 0.74659(14) 0.7555(2)
H21_4 H 0.130100 0.750604 0.779472
H22_4 H 0.116930 0.719266 0.748120
H23_4 H 0.088601 0.754046 0.759359
C26_4 C 0.08698(15) 0.69328(15) 0.6610(3)
H24_4 H 0.078908 0.685515 0.634954
H25_4 H 0.078928 0.720003 0.665761
H26_4 H 0.074933 0.676214 0.680078
C27_4 C 0.28201(16) 0.63453(14) 0.58286(16)
C28_4 C 0.30302(13) 0.64199(15) 0.41513(10)
C29_4 C 0.32007(14) 0.61130(13) 0.39395(12)
C30_4 C 0.32603(14) 0.61509(15) 0.35356(12)
H27_4 H 0.337438 0.594559 0.339387
C31_4 C 0.31494(14) 0.64958(16) 0.33435(10)
C32_4 C 0.29790(17) 0.68027(15) 0.35553(13)
H28_4 H 0.290477 0.703345 0.342684
C33_4 C 0.29193(17) 0.67647(14) 0.39592(13)
H29_4 H 0.280528 0.697008 0.410096
C34_4 C 0.1804(3) 0.7994(2) 0.6306(2)
H30_4 H 0.202741 0.782093 0.628843
H31_4 H 0.189189 0.826304 0.629267
H32_4 H 0.162712 0.794197 0.609104
N9_4 N 0.3321(3) 0.5743(3) 0.4134(2)
H33_4 H 0.342619 0.555624 0.399724
H34_4 H 0.328711 0.571336 0.438330
O4_4 O 0.31156(16) 0.6426(3) 0.60400(15)
N10_4 N 0.3671(3) 0.6467(2) 0.46799(19)
H35_4 H 0.387113 0.649711 0.483287
H36_4 H 0.370133 0.647541 0.442817
O5_4 O 0.30372(18) 0.67986(19) 0.27383(15)
N64_4 N 0.59525(9) 0.59332(9) 0.10015(9)
N76_4 N 0.59814(11) 0.68650(9) 0.08388(10)
H213_4 H 0.317675 0.619802 0.621345
H214_4 H 0.621345 0.317675 0.619802
H214_5 H 0.380198 0.121345 0.182325
N62_3 N 0.90668(9) 0.89985(9) 0.09525(9)
N78_3 N 0.81350(9) 0.91612(10) 0.09814(11)
N63_3 N 0.40668(9) 0.60015(9) 0.90475(9)
N77_3 N 0.31350(9) 0.58388(10) 0.90186(11)
H214_6 H 0.880198 0.378655 0.817675
N63_4 N 0.09332(9) 0.39985(9) 0.40475(9)
N77_4 N 0.18650(9) 0.41612(10) 0.40186(11)
H214_7 H 0.119802 0.878655 0.682325
N62_4 N 0.59332(9) 0.10015(9) 0.59525(9)
N78_4 N 0.68650(9) 0.08388(10) 0.59814(11)
H214_8 H 0.619802 0.621345 0.317675
C127_2 C 0.6344(3) 0.0055(2) 0.49659(14)
H126_2 H 0.619900 0.029472 0.500604
H128_2 H 0.661399 0.009359 0.504046
H183_3 H 0.596371 0.003452 0.186276
Zn28_2 Zn 0.62870(2) 0.02029(2) 0.59858(2)
N55_2 N 0.02407(9) 0.06037(8) 0.88027(9)
C173_3 C 0.06151(11) 0.00882(9) 0.89848(12)
C176_3 C 0.02599(12) 0.02080(9) 0.88289(13)
N58_3 N 0.05909(10) 0.07301(10) 0.89523(16)
H177_3 H 0.066505 0.097268 0.895692
C187_3 C 0.08081(14) 0.04258(14) 0.9093(2)
C204_3 C 0.1194(2) 0.0494(2) 0.9304(3)
H205_3 H 0.121157 0.032093 0.952741
H206_3 H 0.120733 0.076304 0.939189
H207_3 H 0.140896 0.044197 0.912712
Zn3_2 Zn 0.12870(2) 0.47971(2) 0.40142(2)
O2_5 O 0.12344(11) 0.50025(10) 0.34737(8)
N3_5 N 0.08629(8) 0.43945(8) 0.40944(8)
C1_5 C 0.03127(10) 0.40788(11) 0.42533(11)
C5_5 C 0.04945(10) 0.44369(12) 0.42170(12)
C7_5 C 0.05967(10) 0.38109(11) 0.41424(13)
O3_5 O 0.11857(17) 0.59633(16) 0.02579(13)
C12_5 C 0.08128(19) 0.77800(13) 0.01515(12)
H3_5 H 0.080624 0.803424 0.027610
H4_5 H 0.102751 0.762861 0.025719
H5_5 H 0.056886 0.764467 0.020033
C15_5 C 0.0955(2) 0.57173(18) 0.0413(2)
C16_5 C 0.03235(14) 0.48403(15) 0.4311(3)
H12_5 H 0.042313 0.492888 0.456128
H13_5 H 0.004113 0.482267 0.432328
H14_5 H 0.039824 0.502417 0.410945
H15_5 H 0.144078 0.666998 0.004976
C19_5 C 0.11475(14) 0.53697(12) 0.28971(8)
C20_5 C 0.11800(16) 0.50456(11) 0.26481(10)
H18_5 H 0.121315 0.479448 0.275344
C21_5 C 0.11630(17) 0.50968(12) 0.22416(10)
H19_5 H 0.118473 0.487988 0.207502
C22_5 C 0.11134(13) 0.54721(13) 0.20841(8)
C23_5 C 0.10809(13) 0.57962(11) 0.23331(11)
C24_5 C 0.10979(15) 0.57451(11) 0.27396(11)
H20_5 H 0.107613 0.596194 0.290614
C25_5 C 0.00341(14) 0.3656(3) 0.5055(2)
H22_5 H 0.030734 0.366930 0.498120
C26_5 C 0.05672(15) 0.33698(15) 0.4110(3)
H24_5 H 0.064485 0.328908 0.384954
H25_5 H 0.029997 0.328928 0.415761
H26_5 H 0.073786 0.324933 0.430078
C27_5 C 0.11547(14) 0.53201(16) 0.33286(16)
C28_5 C 0.10801(15) 0.55302(13) 0.16513(10)
C29_5 C 0.13870(13) 0.57007(14) 0.14395(12)
C30_5 C 0.13491(15) 0.57603(14) 0.10356(12)
H27_5 H 0.155441 0.587438 0.089387
C31_5 C 0.10042(16) 0.56494(14) 0.08435(10)
C32_5 C 0.06973(15) 0.54790(17) 0.10553(13)
H28_5 H 0.046655 0.540477 0.092684
C33_5 C 0.07353(14) 0.54193(17) 0.14592(13)
H29_5 H 0.052992 0.530528 0.160096
N9_5 N 0.1757(3) 0.5821(3) 0.1634(2)
H33_5 H 0.194376 0.592619 0.149724
H34_5 H 0.178664 0.578711 0.188330
O4_5 O 0.1074(3) 0.56156(16) 0.35400(15)
N10_5 N 0.1033(2) 0.6171(3) 0.21799(19)
H35_5 H 0.100289 0.637113 0.233287
H36_5 H 0.102459 0.620133 0.192817
O5_5 O 0.07014(19) 0.55372(18) 0.02383(15)
H43_2 H 0.186276 0.596371 0.003452
Zn8 Zn 0.02029(2) 0.59858(2) 0.62870(2)
N23_3 N 0.06055(8) 0.59056(8) 0.58629(8)
N25_3 N 0.11973(9) 0.52407(9) 0.43963(8)
C69_3 C 0.09212(11) 0.57467(11) 0.53127(10)
C71_3 C 0.10152(12) 0.56151(11) 0.49118(9)
C73_3 C 0.05631(12) 0.57830(12) 0.54945(10)
C74_3 C 0.11711(13) 0.52599(12) 0.47920(9)
C75_3 C 0.11891(11) 0.58576(13) 0.55967(10)
N28_3 N 0.10477(16) 0.55909(10) 0.42699(10)
H72_3 H 0.104308 0.566505 0.402732
C84_3 C 0.01597(15) 0.5689(3) 0.53235(14)
H82_3 H 0.007112 0.543872 0.542313
H83_3 H 0.017733 0.567672 0.504113
C85_3 C 0.0907(2) 0.58081(14) 0.45742(14)
H88_3 H 0.020552 0.724656 0.621315
H89_3 H 0.012012 0.792498 0.618473
C93_3 C 0.1344(3) 0.4945(2) 0.50341(14)
H91_3 H 0.119900 0.470528 0.499396
H92_3 H 0.133070 0.501880 0.530734
H93_3 H 0.161399 0.490641 0.495954
C94_3 C 0.16302(15) 0.5890(3) 0.55672(15)
H94_3 H 0.171092 0.615046 0.564485
H95_3 H 0.171072 0.584239 0.529997
H96_3 H 0.175067 0.569922 0.573786
C102_3 C 0.0696(3) 0.6194(2) 0.4506(2)
H100_3 H 0.047259 0.621157 0.467907
H101_3 H 0.060811 0.620733 0.423696
H102_3 H 0.087288 0.640896 0.455803
Zn9_2 Zn 0.40803(2) 0.46877(2) 0.39490(2)
Zn10_2 Zn 0.52029(2) 0.90142(2) 0.37130(2)
O14_2 O 0.49975(10) 0.84737(8) 0.37656(11)
N32_2 N 0.18155(8) 0.45545(9) 0.40696(9)
N33_2 N 0.56055(8) 0.90944(8) 0.41371(8)
N34_2 N 0.34787(9) 0.43204(8) 0.44398(10)
N35_2 N 0.61973(9) 0.97593(9) 0.56037(8)
N36_2 N 0.35280(8) 0.45410(9) 0.40967(9)
C103_2 C 0.59212(11) 0.92533(11) 0.46873(10)
C104_2 C 0.21697(10) 0.47198(11) 0.41319(13)
C105_2 C 0.60152(12) 0.93849(11) 0.50882(9)
C106_2 C 0.24584(11) 0.44208(12) 0.41199(13)
C107_2 C 0.55631(12) 0.92170(12) 0.45055(10)
C108_2 C 0.61711(13) 0.97401(12) 0.52080(9)
C109_2 C 0.61891(11) 0.91424(13) 0.44033(10)
N38_2 N 0.60477(16) 0.94091(10) 0.57301(10)
H107_2 H 0.604308 0.933495 0.597268
C110_2 C 0.28838(11) 0.44496(12) 0.41819(12)
C111_2 C 0.30975(10) 0.42715(11) 0.44843(14)
C112_2 C 0.22507(10) 0.40786(13) 0.40465(15)
O15_2 O 0.40367(16) 0.52579(13) 0.38143(17)
C113_2 C 0.31811(10) 0.46185(12) 0.39489(12)
C114_2 C 0.22200(13) 0.51515(12) 0.41872(19)
H108_2 H 0.196576 0.527610 0.419376
H109_2 H 0.237139 0.525719 0.397249
H110_2 H 0.235533 0.520033 0.443114
C115_2 C 0.29340(14) 0.40638(18) 0.48393(17)
H111_2 H 0.284021 0.380750 0.476383
H112_2 H 0.271981 0.421484 0.494667
H113_2 H 0.313724 0.403629 0.503452
C116_2 C 0.24089(15) 0.36725(15) 0.3985(2)
H114_2 H 0.245916 0.355192 0.423650
H115_2 H 0.264995 0.368642 0.383730
H116_2 H 0.221934 0.351791 0.384257
C117_2 C 0.42827(18) 0.5413(2) 0.4045(2)
C118_2 C 0.51597(15) 0.9311(3) 0.46765(14)
H117_2 H 0.507112 0.956128 0.457687
H118_2 H 0.517733 0.932328 0.495887
H119_2 H 0.497583 0.910945 0.460176
C119_2 C 0.5907(2) 0.91919(14) 0.54258(14)
C120_2 C 0.31279(15) 0.4852(2) 0.35765(19)
H120_2 H 0.333002 0.504976 0.355922
H121_2 H 0.287374 0.497717 0.357897
H122_2 H 0.314572 0.467910 0.335306
C121_2 C 0.46303(12) 0.78971(8) 0.38525(14)
C122_2 C 0.49544(11) 0.76481(10) 0.38200(16)
H123_2 H 0.520552 0.775344 0.378685
C123_2 C 0.49032(12) 0.72416(10) 0.38370(17)
H124_2 H 0.512012 0.707502 0.381527
C124_2 C 0.45279(13) 0.70841(8) 0.38866(13)
C125_2 C 0.42038(11) 0.73331(11) 0.39191(13)
C126_2 C 0.42549(11) 0.77396(11) 0.39021(15)
H125_2 H 0.403806 0.790614 0.392387
H127_2 H 0.633070 0.998120 0.469266
C128_2 C 0.66302(15) 0.9110(3) 0.44328(15)
H129_2 H 0.671092 0.884954 0.435515
H130_2 H 0.671072 0.915761 0.470003
H131_2 H 0.675067 0.930078 0.426214
C129_2 C 0.46799(16) 0.83286(16) 0.38453(14)
C130_2 C 0.44698(13) 0.66513(10) 0.39199(15)
C131_2 C 0.42993(14) 0.64395(12) 0.36130(13)
C132_2 C 0.42397(14) 0.60356(12) 0.36509(15)
H132_2 H 0.412562 0.589387 0.344559
C133_2 C 0.43506(14) 0.58435(10) 0.39958(16)
C134_2 C 0.45210(17) 0.60553(13) 0.43027(15)
H133_2 H 0.459523 0.592684 0.453345
C135_2 C 0.45807(17) 0.64592(13) 0.42647(14)
H134_2 H 0.469472 0.660096 0.447008
C136_2 C 0.5696(3) 0.8806(2) 0.5494(2)
H135_2 H 0.547259 0.878843 0.532093
H136_2 H 0.560811 0.879267 0.576304
H137_2 H 0.587288 0.859104 0.544197
N39_2 N 0.4179(3) 0.6634(2) 0.3243(3)
H138_2 H 0.407381 0.649724 0.305624
H139_2 H 0.421289 0.688330 0.321336
O16_2 O 0.43844(16) 0.85400(15) 0.3926(3)
N40_2 N 0.3829(3) 0.71799(19) 0.3967(2)
H140_2 H 0.362887 0.733287 0.399711
H141_2 H 0.379867 0.692817 0.397541
O17_2 O 0.44628(18) 0.52383(15) 0.42986(19)
Zn13_2 Zn 0.53123(2) 0.89490(2) 0.09197(2)
O22_3 O 0.15263(8) 0.87656(11) 0.00025(10)
N52_2 N 0.54455(9) 0.90696(9) 0.31845(8)
N54_2 N 0.56796(8) 0.94398(10) 0.15213(9)
N56_3 N 0.54590(9) 0.90967(9) 0.14720(8)
C172_3 C 0.52802(11) 0.91319(13) 0.28303(10)
C174_3 C 0.55792(12) 0.91199(13) 0.25416(11)
C178_3 C 0.55504(12) 0.91819(12) 0.21162(11)
C179_3 C 0.57285(11) 0.94843(14) 0.19025(10)
C180_3 C 0.59214(13) 0.90465(15) 0.27493(10)
O23_3 O 0.47421(13) 0.88143(17) 0.09633(16)
C181_3 C 0.53815(12) 0.89489(12) 0.18189(10)
C182_3 C 0.48485(12) 0.91872(19) 0.27800(13)
H178_3 H 0.472390 0.919376 0.303424
H179_3 H 0.474281 0.897249 0.262861
H180_3 H 0.479967 0.943114 0.264467
C183_3 C 0.59362(18) 0.98393(17) 0.20660(14)
H181_3 H 0.619250 0.976383 0.215979
H182_3 H 0.578516 0.994667 0.228019
C184_3 C 0.63275(15) 0.8985(2) 0.25911(15)
H184_3 H 0.644808 0.923650 0.254084
H185_3 H 0.631358 0.883730 0.235005
H186_3 H 0.648209 0.884257 0.278066
C185_3 C 0.4587(2) 0.9045(2) 0.07173(18)
H189_3 H 0.089055 0.960176 0.002417
C188_3 C 0.5148(2) 0.85765(19) 0.18721(15)
H190_3 H 0.495024 0.855922 0.166998
H191_3 H 0.502283 0.857897 0.212626
H192_3 H 0.532090 0.835306 0.185428
C189_3 C 0.21029(8) 0.88525(14) 0.03697(12)
C190_3 C 0.23519(10) 0.88200(16) 0.00456(11)
C191_3 C 0.27584(10) 0.88370(17) 0.00968(12)
C192_3 C 0.29159(8) 0.88866(13) 0.04721(13)
C193_3 C 0.26669(11) 0.89191(13) 0.07962(11)
C194_3 C 0.22604(11) 0.89021(15) 0.07451(11)
H195_3 H 0.209386 0.892387 0.096194
C197_3 C 0.16714(16) 0.88453(14) 0.03201(16)
C198_3 C 0.33487(10) 0.89199(15) 0.05302(13)
C199_3 C 0.35605(12) 0.86130(13) 0.07007(14)
C200_3 C 0.39644(12) 0.86509(15) 0.07603(14)
H202_3 H 0.410613 0.844559 0.087438
C201_3 C 0.41565(10) 0.89958(16) 0.06494(14)
C202_3 C 0.39447(13) 0.93027(15) 0.04790(17)
H203_3 H 0.407316 0.953345 0.040477
C203_3 C 0.35408(13) 0.92647(14) 0.04193(17)
H204_3 H 0.339904 0.947008 0.030528
N59_3 N 0.3366(2) 0.8243(3) 0.0821(3)
H208_3 H 0.350276 0.805624 0.092619
H209_3 H 0.311670 0.821336 0.078711
O24_3 O 0.14600(15) 0.8926(3) 0.06156(16)
N60_3 N 0.28201(19) 0.8967(2) 0.1171(3)
H210_3 H 0.266713 0.899711 0.137113
H211_3 H 0.307183 0.897541 0.120133
O25_3 O 0.47617(15) 0.92986(19) 0.05372(18)
Zn22_2 Zn 0.39490(2) 0.40803(2) 0.46877(2)
Zn24_2 Zn 0.59197(2) 0.96877(2) 0.10510(2)
O27_2 O 0.43633(7) 0.43633(7) 0.43633(7)
O28_2 O 0.56367(7) 0.93633(7) 0.06367(7)
N66 N 0.04455(9) 0.59304(9) 0.68155(8)
N68_3 N 0.55602(10) 0.84787(9) 0.06796(8)
N70_2 N 0.43204(8) 0.44398(10) 0.34787(9)
N72_3 N 0.06037(8) 0.88027(9) 0.02407(9)
N74_2 N 0.47593(9) 0.93963(8) 0.38027(9)
H213_5 H 0.130198 0.567675 0.371345
H214_9 H 0.432325 0.871345 0.369802
Zn2_2 Zn 0.10510(2) 0.59197(2) 0.96877(2)
O1_2 O 0.06367(7) 0.56367(7) 0.93633(7)
H1_3 H 0.046976 0.546977 0.953023
N2_3 N 0.09304(9) 0.81845(8) 0.95545(9)
N4_3 N 0.05602(10) 0.65213(9) 0.93204(8)
N6_5 N 0.09033(9) 0.64720(8) 0.95410(9)
C2_5 C 0.08681(13) 0.78303(10) 0.97198(11)
C4_5 C 0.08801(13) 0.75416(11) 0.94208(12)
C8_5 C 0.08181(12) 0.71162(11) 0.94496(12)
C9_5 C 0.05157(14) 0.69025(10) 0.92715(11)
C10_5 C 0.09535(15) 0.77493(10) 0.90786(13)
C11_5 C 0.10511(12) 0.68189(10) 0.96185(12)
C13_5 C 0.01607(17) 0.70660(14) 0.90638(18)
H6_5 H 0.023617 0.715979 0.880750
H7_5 H 0.005333 0.728019 0.921484
C14_5 C 0.1015(2) 0.75911(15) 0.86725(15)
H9_5 H 0.076350 0.754084 0.855192
H10_5 H 0.116270 0.735005 0.868642
H11_5 H 0.115743 0.778066 0.851791
C18_5 C 0.14235(19) 0.68721(15) 0.9852(2)
H16_5 H 0.142103 0.712626 0.997717
H17_5 H 0.164694 0.685428 0.967910
Zn5_2 Zn 0.09197(2) 0.53123(2) 0.89490(2)
O6_2 O 0.00025(10) 0.15263(8) 0.87656(11)
N12_2 N 0.31845(8) 0.54455(9) 0.90696(9)
N14_2 N 0.15213(9) 0.56796(8) 0.94398(10)
N16_2 N 0.14720(8) 0.54590(9) 0.90967(9)
C36_2 C 0.28303(10) 0.52802(11) 0.91319(13)
C38_2 C 0.25416(11) 0.55792(12) 0.91199(13)
C42_2 C 0.21162(11) 0.55504(12) 0.91819(12)
C43_2 C 0.19025(10) 0.57285(11) 0.94843(14)
C44_2 C 0.27493(10) 0.59214(13) 0.90465(15)
O7_2 O 0.09633(16) 0.47421(13) 0.88143(17)
C45_2 C 0.18189(10) 0.53815(12) 0.89489(12)
C46_2 C 0.27800(13) 0.48485(12) 0.91872(19)
H38_2 H 0.303424 0.472390 0.919376
H39_2 H 0.262861 0.474281 0.897249
H40_2 H 0.264467 0.479967 0.943114
C47_2 C 0.20660(14) 0.59362(18) 0.98393(17)
H41_2 H 0.215979 0.619250 0.976383
H42_2 H 0.228019 0.578516 0.994667
C48_2 C 0.25911(15) 0.63275(15) 0.8985(2)
H44_2 H 0.254084 0.644808 0.923650
H45_2 H 0.235005 0.631358 0.883730
H46_2 H 0.278066 0.648209 0.884257
C49_2 C 0.07173(18) 0.4587(2) 0.9045(2)
H49_2 H 0.002417 0.089055 0.960176
C52_2 C 0.18721(15) 0.5148(2) 0.85765(19)
H50_2 H 0.166998 0.495024 0.855922
H51_2 H 0.212626 0.502283 0.857897
H52_2 H 0.185428 0.532090 0.835306
C53_2 C 0.03697(12) 0.21029(8) 0.88525(14)
C54_2 C 0.00456(11) 0.23519(10) 0.88200(16)
C55_2 C 0.00968(12) 0.27584(10) 0.88370(17)
C56_2 C 0.04721(13) 0.29159(8) 0.88866(13)
C57_2 C 0.07962(11) 0.26669(11) 0.89191(13)
C58_2 C 0.07451(11) 0.22604(11) 0.89021(15)
H55_2 H 0.096194 0.209386 0.892387
C61_2 C 0.03201(16) 0.16714(16) 0.88453(14)
C62_2 C 0.05302(13) 0.33487(10) 0.89199(15)
C63_2 C 0.07007(14) 0.35605(12) 0.86130(13)
C64_2 C 0.07603(14) 0.39644(12) 0.86509(15)
H62_2 H 0.087438 0.410613 0.844559
C65_2 C 0.06494(14) 0.41565(10) 0.89958(16)
C66_2 C 0.04790(17) 0.39447(13) 0.93027(15)
H63_2 H 0.040477 0.407316 0.953345
C67_2 C 0.04193(17) 0.35408(13) 0.92647(14)
H64_2 H 0.030528 0.339904 0.947008
N19_2 N 0.0821(3) 0.3366(2) 0.8243(3)
H68_2 H 0.092619 0.350276 0.805624
H69_2 H 0.078711 0.311670 0.821336
O8_2 O 0.06156(16) 0.14600(15) 0.8926(3)
N20_2 N 0.1171(3) 0.28201(19) 0.8967(2)
H70_2 H 0.137113 0.266713 0.899711
H71_2 H 0.120133 0.307183 0.897541
O9_2 O 0.05372(18) 0.47617(15) 0.92986(19)
Zn11_3 Zn 0.03123(2) 0.60510(2) 0.90803(2)
N44_2 N 0.06796(8) 0.55602(10) 0.84787(9)
N46_3 N 0.04590(9) 0.59033(9) 0.85280(8)
C138_3 C 0.02802(11) 0.58681(13) 0.71697(10)
C140_3 C 0.05792(12) 0.58801(13) 0.74584(11)
C144_3 C 0.05504(12) 0.58181(12) 0.78838(11)
C145_3 C 0.07285(11) 0.55157(14) 0.80975(10)
C146_3 C 0.09214(13) 0.59535(15) 0.72507(10)
C147_3 C 0.03815(12) 0.60511(12) 0.81811(10)
C149_3 C 0.09362(18) 0.51607(17) 0.79340(14)
H146_3 H 0.119250 0.523617 0.784021
H147_3 H 0.078516 0.505333 0.771981
H148_3 H 0.096371 0.496548 0.813724
C150_3 C 0.13275(15) 0.6015(2) 0.74089(15)
H149_3 H 0.144808 0.576350 0.745916
H150_3 H 0.131358 0.616270 0.764995
H151_3 H 0.148209 0.615743 0.721934
C154_3 C 0.0148(2) 0.64235(19) 0.81279(15)
H156_3 H 0.002283 0.642103 0.787374
H157_3 H 0.032090 0.664694 0.814572
Zn14_3 Zn 0.09858(2) 0.87130(2) 0.97971(2)
N53_3 N 0.09056(8) 0.91371(8) 0.93945(8)
C171_3 C 0.07467(11) 0.96873(10) 0.90788(11)
C175_3 C 0.07830(12) 0.95055(10) 0.94369(12)
C177_3 C 0.08576(13) 0.94033(10) 0.88109(11)
C186_3 C 0.0689(3) 0.96765(14) 0.98403(15)
H187_3 H 0.043872 0.957687 0.992888
H188_3 H 0.067672 0.995887 0.982267
H193_3 H 0.224656 0.878685 0.979448
H194_3 H 0.292498 0.881527 0.987988
H197_3 H 0.001880 0.969266 0.866930
C196_3 C 0.0890(3) 0.94328(15) 0.83698(15)
H199_3 H 0.115046 0.935515 0.828908
H200_3 H 0.084239 0.970003 0.828928
H201_3 H 0.069922 0.926214 0.824933
Zn26_2 Zn 0.37130(2) 0.52029(2) 0.90142(2)
Zn7_2 Zn 0.90803(2) 0.03123(2) 0.60510(2)
N22_3 N 0.68155(8) 0.04455(9) 0.59304(9)
N24_3 N 0.84787(9) 0.06796(8) 0.55602(10)
N26_3 N 0.85280(8) 0.04590(9) 0.59033(9)
C70_3 C 0.71697(10) 0.02802(11) 0.58681(13)
C72_3 C 0.74584(11) 0.05792(12) 0.58801(13)
C76_3 C 0.78838(11) 0.05504(12) 0.58181(12)
C77_3 C 0.80975(10) 0.07285(11) 0.55157(14)
C78_3 C 0.72507(10) 0.09214(13) 0.59535(15)
C79_3 C 0.81811(10) 0.03815(12) 0.60511(12)
C81_3 C 0.79340(14) 0.09362(18) 0.51607(17)
H76_3 H 0.784021 0.119250 0.523617
H77_3 H 0.771981 0.078516 0.505333
H78_3 H 0.813724 0.096371 0.496548
C82_3 C 0.74089(15) 0.13275(15) 0.6015(2)
H79_3 H 0.745916 0.144808 0.576350
H80_3 H 0.764995 0.131358 0.616270
H81_3 H 0.721934 0.148209 0.615743
C86_3 C 0.81279(15) 0.0148(2) 0.64235(19)
H86_3 H 0.787374 0.002283 0.642103
H87_3 H 0.814572 0.032090 0.664694
O26_2 O 0.93633(7) 0.06367(7) 0.56367(7)
H212_3 H 0.953024 0.046977 0.546977
Zn23_3 Zn 0.89490(2) 0.09197(2) 0.53123(2)
Zn25_2 Zn 0.96877(2) 0.10510(2) 0.59197(2)
N69_2 N 0.93204(8) 0.05602(10) 0.65213(9)
H196_3 H 0.970528 0.000604 0.880100
H198_3 H 0.990641 0.004046 0.838601
Zn30_2 Zn 0.97971(2) 0.09858(2) 0.87130(2)
N5_2 N 0.93963(8) 0.38027(9) 0.47593(9)
C3_5 C 0.99118(9) 0.39848(12) 0.43849(11)
C6_5 C 0.97920(9) 0.38289(13) 0.47401(12)
N8_5 N 0.92699(10) 0.39523(16) 0.44091(10)
H2_5 H 0.902732 0.395692 0.433495
C17_5 C 0.95742(14) 0.4093(2) 0.41919(14)
H21_5 H 0.999396 0.380100 0.529472
H23_5 H 0.995954 0.338601 0.509359
C34_5 C 0.9506(2) 0.4304(3) 0.3806(2)
H30_5 H 0.967907 0.452741 0.378843
H31_5 H 0.923696 0.439189 0.379267
H32_5 H 0.955803 0.412712 0.359104
N15_2 N 0.88027(9) 0.02407(9) 0.06037(8)
C37_2 C 0.89848(12) 0.06151(11) 0.00882(9)
C40_2 C 0.88289(13) 0.02599(12) 0.02080(9)
N18_2 N 0.89523(16) 0.05909(10) 0.07301(10)
H37_2 H 0.895692 0.066505 0.097268
C51_2 C 0.9093(2) 0.08081(14) 0.04258(14)
C68_2 C 0.9304(3) 0.1194(2) 0.0494(2)
H65_2 H 0.952741 0.121157 0.032093
H66_2 H 0.939189 0.120733 0.076304
H67_2 H 0.912712 0.140896 0.044197
O10_3 O 0.99975(10) 0.65263(8) 0.62344(11)
O11_3 O 0.90367(16) 0.97421(13) 0.61857(17)
C80_3 C 0.72200(13) 0.98485(12) 0.58128(19)
H73_3 H 0.696576 0.972390 0.580624
H74_3 H 0.737139 0.974281 0.602751
H75_3 H 0.735533 0.979967 0.556886
C83_3 C 0.92827(18) 0.9587(2) 0.5955(2)
H84_3 H 0.997583 0.589055 0.539824
H85_3 H 0.833002 0.995024 0.644078
C87_3 C 0.96303(12) 0.71029(8) 0.61475(14)
C88_3 C 0.99544(11) 0.73519(10) 0.61800(16)
C89_3 C 0.99032(12) 0.77584(10) 0.61630(17)
C90_3 C 0.95279(13) 0.79159(8) 0.61134(13)
C91_3 C 0.92038(11) 0.76669(11) 0.60809(13)
C92_3 C 0.92549(11) 0.72604(11) 0.60979(15)
H90_3 H 0.903806 0.709386 0.607613
C95_3 C 0.96799(16) 0.66714(16) 0.61547(14)
C96_3 C 0.94698(13) 0.83487(10) 0.60801(15)
C97_3 C 0.92993(14) 0.85605(12) 0.63870(13)
C98_3 C 0.92397(14) 0.89644(12) 0.63491(15)
H97_3 H 0.912562 0.910613 0.655441
C99_3 C 0.93506(14) 0.91565(10) 0.60042(16)
C100_3 C 0.95210(17) 0.89447(13) 0.56973(15)
H98_3 H 0.959523 0.907316 0.546655
C101_3 C 0.95807(17) 0.85408(13) 0.57353(14)
H99_3 H 0.969472 0.839904 0.552992
N29_3 N 0.9179(3) 0.8366(2) 0.6757(3)
H103_3 H 0.907381 0.850276 0.694376
H104_3 H 0.921289 0.811670 0.678664
O12_3 O 0.93844(16) 0.64600(15) 0.6074(3)
N30_3 N 0.8829(3) 0.78201(19) 0.6033(2)
H105_3 H 0.862887 0.766713 0.600289
H106_3 H 0.879867 0.807183 0.602459
O13_3 O 0.94628(18) 0.97617(15) 0.57014(19)
Zn12_2 Zn 0.59858(2) 0.62870(2) 0.02029(2)
N43_3 N 0.59056(8) 0.58629(8) 0.06055(8)
N45_2 N 0.52407(9) 0.43963(8) 0.11973(9)
C137_3 C 0.57467(11) 0.53127(10) 0.09212(11)
C139_3 C 0.56151(11) 0.49118(9) 0.10152(12)
C141_3 C 0.57830(12) 0.54945(10) 0.05631(12)
C142_3 C 0.52599(12) 0.47920(9) 0.11711(13)
C143_3 C 0.58576(13) 0.55967(10) 0.11891(11)
N48_3 N 0.55909(10) 0.42699(10) 0.10477(16)
H142_3 H 0.566505 0.402732 0.104308
C152_3 C 0.5689(3) 0.53235(14) 0.01597(15)
H152_3 H 0.543872 0.542313 0.007112
H153_3 H 0.567672 0.504113 0.017733
C153_3 C 0.58081(14) 0.45742(14) 0.0907(2)
H158_3 H 0.724656 0.621315 0.020552
H159_3 H 0.792498 0.618473 0.012012
C161_3 C 0.4945(2) 0.50341(14) 0.1344(3)
H161_3 H 0.470528 0.499396 0.119900
H162_3 H 0.501880 0.530734 0.133070
H163_3 H 0.490641 0.495954 0.161399
C162_3 C 0.5890(3) 0.55672(15) 0.16302(15)
H164_3 H 0.615046 0.564485 0.171092
H165_3 H 0.584239 0.529997 0.171072
H166_3 H 0.569922 0.573786 0.175067
C170_3 C 0.6194(2) 0.4506(2) 0.0696(3)
H170_3 H 0.621157 0.467907 0.047259
H171_3 H 0.620733 0.423696 0.060811
H172_3 H 0.640896 0.455803 0.087288
Zn32_2 Zn 0.47971(2) 0.40142(2) 0.12870(2)
Zn33_2 Zn 0.90142(2) 0.37130(2) 0.52029(2)
N65_3 N 0.59304(9) 0.68155(8) 0.04455(9)
N75_2 N 0.97593(9) 0.56037(8) 0.61973(9)
H8_5 H 0.996548 0.686276 0.903629
N13_2 N 0.93945(8) 0.09056(8) 0.91371(8)
C35_2 C 0.90788(11) 0.07467(11) 0.96873(10)
C39_2 C 0.94369(12) 0.07830(12) 0.95055(10)
C41_2 C 0.88109(11) 0.08576(13) 0.94033(10)
C50_2 C 0.98403(15) 0.0689(3) 0.96765(14)
H47_2 H 0.992888 0.043872 0.957687
H48_2 H 0.982267 0.067672 0.995887
H53_2 H 0.979448 0.224656 0.878685
H54_2 H 0.987988 0.292498 0.881527
H57_2 H 0.866930 0.001880 0.969266
C60_2 C 0.83698(15) 0.0890(3) 0.94328(15)
H59_2 H 0.828908 0.115046 0.935515
H60_2 H 0.828928 0.084239 0.970003
H61_2 H 0.824933 0.069922 0.926214
O18_3 O 0.65263(8) 0.62344(11) 0.99975(10)
O19_3 O 0.97421(13) 0.61857(17) 0.90367(16)
C148_3 C 0.98485(12) 0.58128(19) 0.72200(13)
H143_3 H 0.972390 0.580624 0.696576
H144_3 H 0.974281 0.602751 0.737139
H145_3 H 0.979967 0.556886 0.735533
C151_3 C 0.9587(2) 0.5955(2) 0.92827(18)
H154_3 H 0.589055 0.539824 0.997583
H155_3 H 0.995024 0.644078 0.833002
C155_3 C 0.71029(8) 0.61475(14) 0.96303(12)
C156_3 C 0.73519(10) 0.61800(16) 0.99544(11)
C157_3 C 0.77584(10) 0.61630(17) 0.99032(12)
C158_3 C 0.79159(8) 0.61134(13) 0.95279(13)
C159_3 C 0.76669(11) 0.60809(13) 0.92038(11)
C160_3 C 0.72604(11) 0.60979(15) 0.92549(11)
H160_3 H 0.709386 0.607613 0.903806
C163_3 C 0.66714(16) 0.61547(14) 0.96799(16)
C164_3 C 0.83487(10) 0.60801(15) 0.94698(13)
C165_3 C 0.85605(12) 0.63870(13) 0.92993(14)
C166_3 C 0.89644(12) 0.63491(15) 0.92397(14)
H167_3 H 0.910613 0.655441 0.912562
C167_3 C 0.91565(10) 0.60042(16) 0.93506(14)
C168_3 C 0.89447(13) 0.56973(15) 0.95210(17)
H168_3 H 0.907316 0.546655 0.959523
C169_3 C 0.85408(13) 0.57353(14) 0.95807(17)
H169_3 H 0.839904 0.552992 0.969472
N49_3 N 0.8366(2) 0.6757(3) 0.9179(3)
H173_3 H 0.850276 0.694376 0.907381
H174_3 H 0.811670 0.678664 0.921289
O20_3 O 0.64600(15) 0.6074(3) 0.93844(16)
N50_3 N 0.78201(19) 0.6033(2) 0.8829(3)
H175_3 H 0.766713 0.600289 0.862887
H176_3 H 0.807183 0.602459 0.879867
O21_3 O 0.97617(15) 0.57014(19) 0.94628(18)
C195_3 C 0.9945(2) 0.99659(14) 0.8656(3)
N67_2 N 0.95545(9) 0.09304(9) 0.81845(8)
N71_2 N 0.56037(8) 0.61973(9) 0.97593(9)
H56_2 H 0.880100 0.970528 0.000604
H58_2 H 0.838601 0.990641 0.004046
Zn29_2 Zn 0.87130(2) 0.97971(2) 0.09858(2)
C59_2 C 0.8656(3) 0.9945(2) 0.99659(14)
C161_4 C 0.0055(2) 0.49659(14) 0.6344(3)
H161_4 H 0.029472 0.500604 0.619900
H163_4 H 0.009359 0.504046 0.661399
C25_6 C 0.49659(14) 0.6344(3) 0.0055(2)
H21_6 H 0.500604 0.619900 0.029472
H23_6 H 0.504046 0.661399 0.009359
O10_4 O 0.50025(10) 0.34737(8) 0.12344(11)
N23_4 N 0.43945(8) 0.40944(8) 0.08629(8)
C69_4 C 0.40788(11) 0.42533(11) 0.03127(10)
C73_4 C 0.44369(12) 0.42170(12) 0.04945(10)
C75_4 C 0.38109(11) 0.41424(13) 0.05967(10)
O11_4 O 0.59633(16) 0.02579(13) 0.11857(17)
C80_4 C 0.77800(13) 0.01515(12) 0.08128(19)
H73_4 H 0.803424 0.027610 0.080624
H74_4 H 0.762861 0.025719 0.102751
H75_4 H 0.764467 0.020033 0.056886
C83_4 C 0.57173(18) 0.0413(2) 0.0955(2)
C84_4 C 0.48403(15) 0.4311(3) 0.03235(14)
H82_4 H 0.492888 0.456128 0.042313
H83_4 H 0.482267 0.432328 0.004113
H84_4 H 0.502417 0.410945 0.039824
H85_4 H 0.666998 0.004976 0.144078
C87_4 C 0.53697(12) 0.28971(8) 0.11475(14)
C88_4 C 0.50456(11) 0.26481(10) 0.11800(16)
H88_4 H 0.479448 0.275344 0.121315
C89_4 C 0.50968(12) 0.22416(10) 0.11630(17)
H89_4 H 0.487988 0.207502 0.118473
C90_4 C 0.54721(13) 0.20841(8) 0.11134(13)
C91_4 C 0.57962(11) 0.23331(11) 0.10809(13)
C92_4 C 0.57451(11) 0.27396(11) 0.10979(15)
H90_4 H 0.596194 0.290614 0.107613
C93_4 C 0.3656(3) 0.5055(2) 0.00341(14)
H92_4 H 0.366930 0.498120 0.030734
C94_4 C 0.33698(15) 0.4110(3) 0.05672(15)
H94_4 H 0.328908 0.384954 0.064485
H95_4 H 0.328928 0.415761 0.029997
H96_4 H 0.324933 0.430078 0.073786
C95_4 C 0.53201(16) 0.33286(16) 0.11547(14)
C96_4 C 0.55302(13) 0.16513(10) 0.10801(15)
C97_4 C 0.57007(14) 0.14395(12) 0.13870(13)
C98_4 C 0.57603(14) 0.10356(12) 0.13491(15)
H97_4 H 0.587438 0.089387 0.155441
C99_4 C 0.56494(14) 0.08435(10) 0.10042(16)
C100_4 C 0.54790(17) 0.10553(13) 0.06973(15)
H98_4 H 0.540477 0.092684 0.046655
C101_4 C 0.54193(17) 0.14592(13) 0.07353(14)
H99_4 H 0.530528 0.160096 0.052992
N29_4 N 0.5821(3) 0.1634(2) 0.1757(3)
H103_4 H 0.592619 0.149724 0.194376
H104_4 H 0.578711 0.188330 0.178664
O12_4 O 0.56156(16) 0.35400(15) 0.1074(3)
N30_4 N 0.6171(3) 0.21799(19) 0.1033(2)
H105_4 H 0.637113 0.233287 0.100289
H106_4 H 0.620133 0.192817 0.102459
O13_4 O 0.55372(18) 0.02383(15) 0.07014(19)
N66_2 N 0.45545(9) 0.40696(9) 0.18155(8)
H1_4 H 0.453024 0.453023 0.453023
O2_6 O 0.37656(11) 0.49975(10) 0.84737(8)
N2_4 N 0.40696(9) 0.18155(8) 0.45545(9)
N3_6 N 0.41371(8) 0.56055(8) 0.90944(8)
N4_4 N 0.44398(10) 0.34787(9) 0.43204(8)
N6_6 N 0.40967(9) 0.35280(8) 0.45410(9)
C1_6 C 0.46873(10) 0.59212(11) 0.92533(11)
C2_6 C 0.41319(13) 0.21697(10) 0.47198(11)
C3_6 C 0.50882(9) 0.60152(12) 0.93849(11)
C4_6 C 0.41199(13) 0.24584(11) 0.44208(12)
C5_6 C 0.45055(10) 0.55631(12) 0.92170(12)
C6_6 C 0.52080(9) 0.61711(13) 0.97401(12)
C7_6 C 0.44033(10) 0.61891(11) 0.91424(13)
N8_6 N 0.57301(10) 0.60477(16) 0.94091(10)
H2_6 H 0.597268 0.604308 0.933495
C8_6 C 0.41819(12) 0.28838(11) 0.44496(12)
C9_6 C 0.44843(14) 0.30975(10) 0.42715(11)
C10_6 C 0.40465(15) 0.22507(10) 0.40786(13)
O3_6 O 0.38143(17) 0.40367(16) 0.52579(13)
C11_6 C 0.39489(12) 0.31811(10) 0.46185(12)
C12_6 C 0.41872(19) 0.22200(13) 0.51515(12)
H3_6 H 0.419376 0.196576 0.527610
H4_6 H 0.397249 0.237139 0.525719
H5_6 H 0.443114 0.235533 0.520033
C13_6 C 0.48393(17) 0.29340(14) 0.40638(18)
H6_6 H 0.476383 0.284021 0.380750
H7_6 H 0.494667 0.271981 0.421484
H8_6 H 0.503452 0.313724 0.403629
C14_6 C 0.3985(2) 0.24089(15) 0.36725(15)
H9_6 H 0.423650 0.245916 0.355192
H10_6 H 0.383730 0.264995 0.368642
H11_6 H 0.384257 0.221934 0.351791
C15_6 C 0.4045(2) 0.42827(18) 0.5413(2)
C16_6 C 0.46765(14) 0.51597(15) 0.9311(3)
H12_6 H 0.457687 0.507112 0.956128
H13_6 H 0.495887 0.517733 0.932328
H14_6 H 0.460176 0.497583 0.910945
C17_6 C 0.54258(14) 0.5907(2) 0.91919(14)
C18_6 C 0.35765(19) 0.31279(15) 0.4852(2)
H15_6 H 0.355922 0.333002 0.504976
H16_6 H 0.357897 0.287374 0.497717
H17_6 H 0.335306 0.314572 0.467910
C19_6 C 0.38525(14) 0.46303(12) 0.78971(8)
C20_6 C 0.38200(16) 0.49544(11) 0.76481(10)
H18_6 H 0.378685 0.520552 0.775344
C21_6 C 0.38370(17) 0.49032(12) 0.72416(10)
H19_6 H 0.381527 0.512012 0.707502
C22_6 C 0.38866(13) 0.45279(13) 0.70841(8)
C23_6 C 0.39191(13) 0.42038(11) 0.73331(11)
C24_6 C 0.39021(15) 0.42549(11) 0.77396(11)
H20_6 H 0.392387 0.403806 0.790614
H22_6 H 0.469266 0.633070 0.998120
C26_6 C 0.44328(15) 0.66302(15) 0.9110(3)
H24_6 H 0.435515 0.671092 0.884954
H25_6 H 0.470003 0.671072 0.915761
H26_6 H 0.426214 0.675067 0.930078
C27_6 C 0.38453(14) 0.46799(16) 0.83286(16)
C28_6 C 0.39199(15) 0.44698(13) 0.66513(10)
C29_6 C 0.36130(13) 0.42993(14) 0.64395(12)
C30_6 C 0.36509(15) 0.42397(14) 0.60356(12)
H27_6 H 0.344559 0.412562 0.589387
C31_6 C 0.39958(16) 0.43506(14) 0.58435(10)
C32_6 C 0.43027(15) 0.45210(17) 0.60553(13)
H28_6 H 0.453345 0.459523 0.592684
C33_6 C 0.42647(14) 0.45807(17) 0.64592(13)
H29_6 H 0.447008 0.469472 0.660096
C34_6 C 0.5494(2) 0.5696(3) 0.8806(2)
H30_6 H 0.532093 0.547259 0.878843
H31_6 H 0.576304 0.560811 0.879267
H32_6 H 0.544197 0.587288 0.859104
N9_6 N 0.3243(3) 0.4179(3) 0.6634(2)
H33_6 H 0.305624 0.407381 0.649724
H34_6 H 0.321336 0.421289 0.688330
O4_6 O 0.3926(3) 0.43844(16) 0.85400(15)
N10_6 N 0.3967(2) 0.3829(3) 0.71799(19)
H35_6 H 0.399711 0.362887 0.733287
H36_6 H 0.397541 0.379867 0.692817
O5_6 O 0.42986(19) 0.44628(18) 0.52383(15)
N25_4 N 0.38027(9) 0.47593(9) 0.93963(8)
C71_4 C 0.39848(12) 0.43849(11) 0.99118(9)
C74_4 C 0.38289(13) 0.47401(12) 0.97920(9)
N28_4 N 0.39523(16) 0.44091(10) 0.92699(10)
H72_4 H 0.395692 0.433495 0.902732
C85_4 C 0.4093(2) 0.41919(14) 0.95742(14)
H91_4 H 0.380100 0.529472 0.999396
H93_4 H 0.338601 0.509359 0.995954
C102_4 C 0.4304(3) 0.3806(2) 0.9506(2)
H100_4 H 0.452741 0.378843 0.967907
H101_4 H 0.439189 0.379267 0.923696
H102_4 H 0.412712 0.359104 0.955803
Zn11_4 Zn 0.46877(2) 0.39490(2) 0.40803(2)
O18_4 O 0.84737(8) 0.37656(11) 0.49975(10)
N43_4 N 0.90944(8) 0.41371(8) 0.56055(8)
N46_4 N 0.45410(9) 0.40967(9) 0.35280(8)
C137_4 C 0.92533(11) 0.46873(10) 0.59212(11)
C138_4 C 0.47198(11) 0.41319(13) 0.21697(10)
C139_4 C 0.93849(11) 0.50882(9) 0.60152(12)
C140_4 C 0.44208(12) 0.41199(13) 0.24584(11)
C141_4 C 0.92170(12) 0.45055(10) 0.55631(12)
C142_4 C 0.97401(12) 0.52080(9) 0.61711(13)
C143_4 C 0.91424(13) 0.44033(10) 0.61891(11)
N48_4 N 0.94091(10) 0.57301(10) 0.60477(16)
H142_4 H 0.933495 0.597268 0.604308
C144_4 C 0.44496(12) 0.41819(12) 0.28838(11)
C145_4 C 0.42715(11) 0.44843(14) 0.30975(10)
C146_4 C 0.40786(13) 0.40465(15) 0.22507(10)
O19_4 O 0.52579(13) 0.38143(17) 0.40367(16)
C147_4 C 0.46185(12) 0.39489(12) 0.31811(10)
C148_4 C 0.51515(12) 0.41872(19) 0.22200(13)
H143_4 H 0.527610 0.419376 0.196576
H144_4 H 0.525719 0.397249 0.237139
H145_4 H 0.520033 0.443114 0.235533
C149_4 C 0.40638(18) 0.48393(17) 0.29340(14)
H146_4 H 0.380750 0.476383 0.284021
H147_4 H 0.421484 0.494667 0.271981
H148_4 H 0.403629 0.503452 0.313724
C150_4 C 0.36725(15) 0.3985(2) 0.24089(15)
H149_4 H 0.355192 0.423650 0.245916
H150_4 H 0.368642 0.383730 0.264995
H151_4 H 0.351791 0.384257 0.221934
C151_4 C 0.5413(2) 0.4045(2) 0.42827(18)
C152_4 C 0.9311(3) 0.46765(14) 0.51597(15)
H152_4 H 0.956128 0.457687 0.507112
H153_4 H 0.932328 0.495887 0.517733
H154_4 H 0.910945 0.460176 0.497583
C153_4 C 0.91919(14) 0.54258(14) 0.5907(2)
C154_4 C 0.4852(2) 0.35765(19) 0.31279(15)
H155_4 H 0.504976 0.355922 0.333002
H156_4 H 0.497717 0.357897 0.287374
H157_4 H 0.467910 0.335306 0.314572
C155_4 C 0.78971(8) 0.38525(14) 0.46303(12)
C156_4 C 0.76481(10) 0.38200(16) 0.49544(11)
H158_4 H 0.775344 0.378685 0.520552
C157_4 C 0.72416(10) 0.38370(17) 0.49032(12)
H159_4 H 0.707502 0.381527 0.512012
C158_4 C 0.70841(8) 0.38866(13) 0.45279(13)
C159_4 C 0.73331(11) 0.39191(13) 0.42038(11)
C160_4 C 0.77396(11) 0.39021(15) 0.42549(11)
H160_4 H 0.790614 0.392387 0.403806
H162_4 H 0.998120 0.469266 0.633070
C162_4 C 0.9110(3) 0.44328(15) 0.66302(15)
H164_4 H 0.884954 0.435515 0.671092
H165_4 H 0.915761 0.470003 0.671072
H166_4 H 0.930078 0.426214 0.675067
C163_4 C 0.83286(16) 0.38453(14) 0.46799(16)
C164_4 C 0.66513(10) 0.39199(15) 0.44698(13)
C165_4 C 0.64395(12) 0.36130(13) 0.42993(14)
C166_4 C 0.60356(12) 0.36509(15) 0.42397(14)
H167_4 H 0.589387 0.344559 0.412562
C167_4 C 0.58435(10) 0.39958(16) 0.43506(14)
C168_4 C 0.60553(13) 0.43027(15) 0.45210(17)
H168_4 H 0.592684 0.453345 0.459523
C169_4 C 0.64592(13) 0.42647(14) 0.45807(17)
H169_4 H 0.660096 0.447008 0.469472
C170_4 C 0.8806(2) 0.5494(2) 0.5696(3)
H170_4 H 0.878843 0.532093 0.547259
H171_4 H 0.879267 0.576304 0.560811
H172_4 H 0.859104 0.544197 0.587288
N49_4 N 0.6634(2) 0.3243(3) 0.4179(3)
H173_4 H 0.649724 0.305624 0.407381
H174_4 H 0.688330 0.321336 0.421289
O20_4 O 0.85400(15) 0.3926(3) 0.43844(16)
N50_4 N 0.71799(19) 0.3967(2) 0.3829(3)
H175_4 H 0.733287 0.399711 0.362887
H176_4 H 0.692817 0.397541 0.379867
O21_4 O 0.52383(15) 0.42986(19) 0.44628(18)
Zn14_4 Zn 0.40142(2) 0.12870(2) 0.47971(2)
O22_4 O 0.34737(8) 0.12344(11) 0.50025(10)
N53_4 N 0.40944(8) 0.08629(8) 0.43945(8)
C171_4 C 0.42533(11) 0.03127(10) 0.40788(11)
C175_4 C 0.42170(12) 0.04945(10) 0.44369(12)
C177_4 C 0.41424(13) 0.05967(10) 0.38109(11)
O23_4 O 0.02579(13) 0.11857(17) 0.59633(16)
C182_4 C 0.01515(12) 0.08128(19) 0.77800(13)
H178_4 H 0.027610 0.080624 0.803424
H179_4 H 0.025719 0.102751 0.762861
H180_4 H 0.020033 0.056886 0.764467
C185_4 C 0.0413(2) 0.0955(2) 0.57173(18)
C186_4 C 0.4311(3) 0.03235(14) 0.48403(15)
H187_4 H 0.456128 0.042313 0.492888
H188_4 H 0.432328 0.004113 0.482267
H189_4 H 0.410945 0.039824 0.502417
H190_4 H 0.004976 0.144078 0.666998
C189_4 C 0.28971(8) 0.11475(14) 0.53697(12)
C190_4 C 0.26481(10) 0.11800(16) 0.50456(11)
H193_4 H 0.275344 0.121315 0.479448
C191_4 C 0.22416(10) 0.11630(17) 0.50968(12)
H194_4 H 0.207502 0.118473 0.487988
C192_4 C 0.20841(8) 0.11134(13) 0.54721(13)
C193_4 C 0.23331(11) 0.10809(13) 0.57962(11)
C194_4 C 0.27396(11) 0.10979(15) 0.57451(11)
H195_4 H 0.290614 0.107613 0.596194
C195_4 C 0.5055(2) 0.00341(14) 0.3656(3)
H197_4 H 0.498120 0.030734 0.366930
C196_4 C 0.4110(3) 0.05672(15) 0.33698(15)
H199_4 H 0.384954 0.064485 0.328908
H200_4 H 0.415761 0.029997 0.328928
H201_4 H 0.430078 0.073786 0.324933
C197_4 C 0.33286(16) 0.11547(14) 0.53201(16)
C198_4 C 0.16513(10) 0.10801(15) 0.55302(13)
C199_4 C 0.14395(12) 0.13870(13) 0.57007(14)
C200_4 C 0.10356(12) 0.13491(15) 0.57603(14)
H202_4 H 0.089387 0.155441 0.587438
C201_4 C 0.08435(10) 0.10042(16) 0.56494(14)
C202_4 C 0.10553(13) 0.06973(15) 0.54790(17)
H203_4 H 0.092684 0.046655 0.540477
C203_4 C 0.14592(13) 0.07353(14) 0.54193(17)
H204_4 H 0.160096 0.052992 0.530528
N59_4 N 0.1634(2) 0.1757(3) 0.5821(3)
H208_4 H 0.149724 0.194376 0.592619
H209_4 H 0.188330 0.178664 0.578711
O24_4 O 0.35400(15) 0.1074(3) 0.56156(16)
N60_4 N 0.21799(19) 0.1033(2) 0.6171(3)
H210_4 H 0.233287 0.100289 0.637113
H211_4 H 0.192817 0.102459 0.620133
O25_4 O 0.02383(15) 0.07014(19) 0.55372(18)
N65_4 N 0.90696(9) 0.31845(8) 0.54455(9)
N72_4 N 0.43963(8) 0.11973(9) 0.52407(9)
H213_6 H 0.369802 0.432325 0.871345
H214_10 H 0.0676753 0.128655 0.869802
N22_4 N 0.81845(8) 0.95545(9) 0.09304(9)
N24_4 N 0.65213(9) 0.93204(8) 0.05602(10)
N26_4 N 0.64720(8) 0.95410(9) 0.09033(9)
C70_4 C 0.78303(10) 0.97198(11) 0.08681(13)
C72_4 C 0.75416(11) 0.94208(12) 0.08801(13)
C76_4 C 0.71162(11) 0.94496(12) 0.08181(12)
C77_4 C 0.69025(10) 0.92715(11) 0.05157(14)
C78_4 C 0.77493(10) 0.90786(13) 0.09535(15)
C79_4 C 0.68189(10) 0.96185(12) 0.10511(12)
C81_4 C 0.70660(14) 0.90638(18) 0.01607(17)
H76_4 H 0.715979 0.880750 0.023617
H77_4 H 0.728019 0.921484 0.005333
C82_4 C 0.75911(15) 0.86725(15) 0.1015(2)
H79_4 H 0.754084 0.855192 0.076350
H80_4 H 0.735005 0.868642 0.116270
H81_4 H 0.778066 0.851791 0.115743
C86_4 C 0.68721(15) 0.9852(2) 0.14235(19)
H86_4 H 0.712626 0.997717 0.142103
H87_4 H 0.685428 0.967910 0.164694
H212_4 H 0.546976 0.953023 0.046977
Zn23_4 Zn 0.60510(2) 0.90803(2) 0.03123(2)
H78_4 H 0.686276 0.903629 0.996548
C173_4 C 0.43849(11) 0.99118(9) 0.39848(12)
C176_4 C 0.47401(12) 0.97920(9) 0.38289(13)
N58_4 N 0.44091(10) 0.92699(10) 0.39523(16)
H177_4 H 0.433495 0.902732 0.395692
C187_4 C 0.41919(14) 0.95742(14) 0.4093(2)
H196_4 H 0.529472 0.999396 0.380100
H198_4 H 0.509359 0.995954 0.338601
C204_4 C 0.3806(2) 0.9506(2) 0.4304(3)
H205_4 H 0.378843 0.967907 0.452741
H206_4 H 0.379267 0.923696 0.439189
H207_4 H 0.359104 0.955803 0.412712
N56_4 N 0.95410(9) 0.09033(9) 0.64720(8)
C172_4 C 0.97198(11) 0.08681(13) 0.78303(10)
C174_4 C 0.94208(12) 0.08801(13) 0.75416(11)
C178_4 C 0.94496(12) 0.08181(12) 0.71162(11)
C179_4 C 0.92715(11) 0.05157(14) 0.69025(10)
C180_4 C 0.90786(13) 0.09535(15) 0.77493(10)
C181_4 C 0.96185(12) 0.10511(12) 0.68189(10)
C183_4 C 0.90638(18) 0.01607(17) 0.70660(14)
H181_4 H 0.880750 0.023617 0.715979
H182_4 H 0.921484 0.005333 0.728019
C184_4 C 0.86725(15) 0.1015(2) 0.75911(15)
H184_4 H 0.855192 0.076350 0.754084
H185_4 H 0.868642 0.116270 0.735005
H186_4 H 0.851791 0.115743 0.778066
C188_4 C 0.9852(2) 0.14235(19) 0.68721(15)
H191_4 H 0.997717 0.142103 0.712626
H192_4 H 0.967910 0.164694 0.685428
N68_4 N 0.94398(10) 0.15213(9) 0.56796(8)
H183_4 H 0.903629 0.996548 0.686276
N3_7 N 0.58629(8) 0.06055(8) 0.59056(8)
C1_7 C 0.53127(10) 0.09212(11) 0.57467(11)
C3_7 C 0.49118(9) 0.10152(12) 0.56151(11)
C5_7 C 0.54945(10) 0.05631(12) 0.57830(12)
C6_7 C 0.47920(9) 0.11711(13) 0.52599(12)
C7_7 C 0.55967(10) 0.11891(11) 0.58576(13)
N8_7 N 0.42699(10) 0.10477(16) 0.55909(10)
H2_7 H 0.402732 0.104308 0.566505
C16_7 C 0.53235(14) 0.01597(15) 0.5689(3)
H12_7 H 0.542313 0.007112 0.543872
H13_7 H 0.504113 0.017733 0.567672
C17_7 C 0.45742(14) 0.0907(2) 0.58081(14)
H18_7 H 0.621315 0.020552 0.724656
H19_7 H 0.618473 0.012012 0.792498
C25_7 C 0.50341(14) 0.1344(3) 0.4945(2)
H21_7 H 0.499396 0.119900 0.470528
H22_7 H 0.530734 0.133070 0.501880
H23_7 H 0.495954 0.161399 0.490641
C26_7 C 0.55672(15) 0.16302(15) 0.5890(3)
H24_7 H 0.564485 0.171092 0.615046
H25_7 H 0.529997 0.171072 0.584239
H26_7 H 0.573786 0.175067 0.569922
C34_7 C 0.4506(2) 0.0696(3) 0.6194(2)
H30_7 H 0.467907 0.047259 0.621157
H31_7 H 0.423696 0.060811 0.620733
H32_7 H 0.455803 0.087288 0.640896
N6_7 N 0.59033(9) 0.85280(8) 0.04590(9)
C2_7 C 0.58681(13) 0.71697(10) 0.02802(11)
C4_7 C 0.58801(13) 0.74584(11) 0.05792(12)
C8_7 C 0.58181(12) 0.78838(11) 0.05504(12)
C9_7 C 0.55157(14) 0.80975(10) 0.07285(11)
C10_7 C 0.59535(15) 0.72507(10) 0.09214(13)
C11_7 C 0.60511(12) 0.81811(10) 0.03815(12)
C13_7 C 0.51607(17) 0.79340(14) 0.09362(18)
H6_7 H 0.523617 0.784021 0.119250
H7_7 H 0.505333 0.771981 0.078516
H8_7 H 0.496548 0.813724 0.096371
C14_7 C 0.6015(2) 0.74089(15) 0.13275(15)
H9_7 H 0.576350 0.745916 0.144808
H10_7 H 0.616270 0.764995 0.131358
H11_7 H 0.615743 0.721934 0.148209
C18_7 C 0.64235(19) 0.81279(15) 0.0148(2)
H16_7 H 0.642103 0.787374 0.002283
H17_7 H 0.664694 0.814572 0.032090
O2_7 O 0.62344(11) 0.99975(10) 0.65263(8)
O3_7 O 0.61857(17) 0.90367(16) 0.97421(13)
C12_7 C 0.58128(19) 0.72200(13) 0.98485(12)
H3_7 H 0.580624 0.696576 0.972390
H4_7 H 0.602751 0.737139 0.974281
H5_7 H 0.556886 0.735533 0.979967
C15_7 C 0.5955(2) 0.92827(18) 0.9587(2)
H14_7 H 0.539824 0.997583 0.589055
H15_7 H 0.644078 0.833002 0.995024
C19_7 C 0.61475(14) 0.96303(12) 0.71029(8)
C20_7 C 0.61800(16) 0.99544(11) 0.73519(10)
C21_7 C 0.61630(17) 0.99032(12) 0.77584(10)
C22_7 C 0.61134(13) 0.95279(13) 0.79159(8)
C23_7 C 0.60809(13) 0.92038(11) 0.76669(11)
C24_7 C 0.60979(15) 0.92549(11) 0.72604(11)
H20_7 H 0.607613 0.903806 0.709386
C27_7 C 0.61547(14) 0.96799(16) 0.66714(16)
C28_7 C 0.60801(15) 0.94698(13) 0.83487(10)
C29_7 C 0.63870(13) 0.92993(14) 0.85605(12)
C30_7 C 0.63491(15) 0.92397(14) 0.89644(12)
H27_7 H 0.655441 0.912562 0.910613
C31_7 C 0.60042(16) 0.93506(14) 0.91565(10)
C32_7 C 0.56973(15) 0.95210(17) 0.89447(13)
H28_7 H 0.546655 0.959523 0.907316
C33_7 C 0.57353(14) 0.95807(17) 0.85408(13)
H29_7 H 0.552992 0.969472 0.839904
N9_7 N 0.6757(3) 0.9179(3) 0.8366(2)
H33_7 H 0.694376 0.907381 0.850276
H34_7 H 0.678664 0.921289 0.811670
O4_7 O 0.6074(3) 0.93844(16) 0.64600(15)
N10_7 N 0.6033(2) 0.8829(3) 0.78201(19)
H35_7 H 0.600289 0.862887 0.766713
H36_7 H 0.602459 0.879867 0.807183
O5_7 O 0.57014(19) 0.94628(18) 0.97617(15)
H213_7 H 0.630198 0.932325 0.628655
H214_11 H 0.932325 0.628655 0.630198
H8_8 H 0.003452 0.186276 0.596371
C3_8 C 0.00882(9) 0.89848(12) 0.06151(11)
C6_8 C 0.02080(9) 0.88289(13) 0.02599(12)
N8_8 N 0.07301(10) 0.89523(16) 0.05909(10)
H2_8 H 0.097268 0.895692 0.066505
C17_8 C 0.04258(14) 0.9093(2) 0.08081(14)
C34_8 C 0.0494(2) 0.9304(3) 0.1194(2)
H30_8 H 0.032093 0.952741 0.121157
H31_8 H 0.076304 0.939189 0.120733
H32_8 H 0.044197 0.912712 0.140896
H21_8 H 0.000604 0.880100 0.970528
H23_8 H 0.004046 0.838601 0.990641
O2_8 O 0.87656(11) 0.00025(10) 0.15263(8)
N6_8 N 0.90967(9) 0.14720(8) 0.54590(9)
C2_8 C 0.91319(13) 0.28303(10) 0.52802(11)
C4_8 C 0.91199(13) 0.25416(11) 0.55792(12)
C8_8 C 0.91819(12) 0.21162(11) 0.55504(12)
C9_8 C 0.94843(14) 0.19025(10) 0.57285(11)
C10_8 C 0.90465(15) 0.27493(10) 0.59214(13)
O3_8 O 0.88143(17) 0.09633(16) 0.47421(13)
C11_8 C 0.89489(12) 0.18189(10) 0.53815(12)
C12_8 C 0.91872(19) 0.27800(13) 0.48485(12)
H3_8 H 0.919376 0.303424 0.472390
H4_8 H 0.897249 0.262861 0.474281
H5_8 H 0.943114 0.264467 0.479967
C13_8 C 0.98393(17) 0.20660(14) 0.59362(18)
H6_8 H 0.976383 0.215979 0.619250
H7_8 H 0.994667 0.228019 0.578516
C14_8 C 0.8985(2) 0.25911(15) 0.63275(15)
H9_8 H 0.923650 0.254084 0.644808
H10_8 H 0.883730 0.235005 0.631358
H11_8 H 0.884257 0.278066 0.648209
C15_8 C 0.9045(2) 0.07173(18) 0.4587(2)
H14_8 H 0.960176 0.002417 0.089055
C18_8 C 0.85765(19) 0.18721(15) 0.5148(2)
H15_8 H 0.855922 0.166998 0.495024
H16_8 H 0.857897 0.212626 0.502283
H17_8 H 0.835306 0.185428 0.532090
C19_8 C 0.88525(14) 0.03697(12) 0.21029(8)
C20_8 C 0.88200(16) 0.00456(11) 0.23519(10)
C21_8 C 0.88370(17) 0.00968(12) 0.27584(10)
C22_8 C 0.88866(13) 0.04721(13) 0.29159(8)
C23_8 C 0.89191(13) 0.07962(11) 0.26669(11)
C24_8 C 0.89021(15) 0.07451(11) 0.22604(11)
H20_8 H 0.892387 0.096194 0.209386
C27_8 C 0.88453(14) 0.03201(16) 0.16714(16)
C28_8 C 0.89199(15) 0.05302(13) 0.33487(10)
C29_8 C 0.86130(13) 0.07007(14) 0.35605(12)
C30_8 C 0.86509(15) 0.07603(14) 0.39644(12)
H27_8 H 0.844559 0.087438 0.410613
C31_8 C 0.89958(16) 0.06494(14) 0.41565(10)
C32_8 C 0.93027(15) 0.04790(17) 0.39447(13)
H28_8 H 0.953345 0.040477 0.407316
C33_8 C 0.92647(14) 0.04193(17) 0.35408(13)
H29_8 H 0.947008 0.030528 0.339904
N9_8 N 0.8243(3) 0.0821(3) 0.3366(2)
H33_8 H 0.805624 0.092619 0.350276
H34_8 H 0.821336 0.078711 0.311670
O4_8 O 0.8926(3) 0.06156(16) 0.14600(15)
N10_8 N 0.8967(2) 0.1171(3) 0.28201(19)
H35_8 H 0.899711 0.137113 0.266713
H36_8 H 0.897541 0.120133 0.307183
O5_8 O 0.92986(19) 0.05372(18) 0.47617(15)
H213_8 H 0.869802 0.0676753 0.128655
H214_12 H 0.567675 0.371345 0.130198
N3_8 N 0.91371(8) 0.93945(8) 0.09056(8)
C1_8 C 0.96873(10) 0.90788(11) 0.07467(11)
C5_8 C 0.95055(10) 0.94369(12) 0.07830(12)
C7_8 C 0.94033(10) 0.88109(11) 0.08576(13)
C16_8 C 0.96765(14) 0.98403(15) 0.0689(3)
H12_8 H 0.957687 0.992888 0.043872
H13_8 H 0.995887 0.982267 0.067672
H18_8 H 0.878685 0.979448 0.224656
H19_8 H 0.881527 0.987988 0.292498
H22_8 H 0.969266 0.866930 0.001880
C26_8 C 0.94328(15) 0.83698(15) 0.0890(3)
H24_8 H 0.935515 0.828908 0.115046
H25_8 H 0.970003 0.828928 0.084239
H26_8 H 0.926214 0.824933 0.069922
C25_8 C 0.99659(14) 0.8656(3) 0.9945(2)
H214_13 H 0.371345 0.130198 0.567675
H214_14 H 0.628655 0.630198 0.932325
H214_15 H 0.128655 0.869802 0.0676753
H214_16 H 0.871345 0.369802 0.432325
loop_
_geom_bond_atom_site_label_1
_geom_bond_atom_site_label_2
_geom_bond_site_symmetry_1
_geom_bond_site_symmetry_2
Zn10 O14 1_555 1_555
O14 C129 1_555 1_555
N31 N33 1_555 1_555
N33 Zn10 1_555 1_555
N35 C108 1_555 1_555
C103 C105 1_555 1_555
C105 C108 1_555 1_555
C107 N33 1_555 1_555
C108 C127 1_555 1_555
C109 N31 1_555 1_555
N38 N35 1_555 1_555
H107 N38 1_555 1_555
C118 C107 1_555 1_555
H117 C118 1_555 1_555
H118 C118 1_555 1_555
H119 C118 1_555 1_555
C119 C105 1_555 1_555
C121 C122 1_555 1_555
C122 H123 1_555 1_555
C126 C121 1_555 1_555
H125 C126 1_555 1_555
C127 H126 1_555 1_555
H127 C127 1_555 1_555
H128 C127 1_555 1_555
C128 C109 1_555 1_555
H129 C128 1_555 1_555
H130 C128 1_555 1_555
H131 C128 1_555 1_555
C129 C121 1_555 1_555
C136 C119 1_555 1_555
H135 C136 1_555 1_555
H136 C136 1_555 1_555
H137 C136 1_555 1_555
O16 C129 1_555 1_555
Zn13 N56 1_555 1_555
N52 Zn10 1_555 1_555
N54 N56 1_555 1_555
N56 C181 1_555 1_555
N57 N52 1_555 1_555
C172 N52 1_555 1_555
C174 C172 1_555 1_555
C178 C174 1_555 1_555
C179 N54 1_555 1_555
C180 N57 1_555 1_555
O23 Zn13 1_555 1_555
C181 C178 1_555 1_555
C182 C172 1_555 1_555
H178 C182 1_555 1_555
H179 C182 1_555 1_555
H180 C182 1_555 1_555
C183 C179 1_555 1_555
H181 C183 1_555 1_555
H182 C183 1_555 1_555
H183 C183 1_555 1_555
C184 C180 1_555 1_555
H184 C184 1_555 1_555
H185 C184 1_555 1_555
H186 C184 1_555 1_555
C185 O23 1_555 1_555
C188 C181 1_555 1_555
H190 C188 1_555 1_555
H191 C188 1_555 1_555
H192 C188 1_555 1_555
H194 C191 1_555 1_555
C192 C191 1_555 1_555
C193 C192 1_555 1_555
C198 C192 1_555 1_555
C199 C198 1_555 1_555
C200 C199 1_555 1_555
H202 C200 1_555 1_555
C201 C185 1_555 1_555
C202 C201 1_555 1_555
H203 C202 1_555 1_555
C203 C198 1_555 1_555
H204 C203 1_555 1_555
N59 C199 1_555 1_555
H208 N59 1_555 1_555
H209 N59 1_555 1_555
N60 C193 1_555 1_555
H210 N60 1_555 1_555
H211 N60 1_555 1_555
O25 Zn13 1_555 1_555
Zn20 N31 1_555 1_555
Zn24 N54 1_555 1_555
Zn28 N35 1_555 1_555
O28 Zn13 1_555 1_555
N68 Zn13 1_555 1_555
N74 Zn10 1_555 1_555
C103 C107 1_555 1_555
C103 C109 1_555 1_555
N38 C119 1_555 1_555
N57 Zn20 1_555 1_555
C174 C180 1_555 1_555
C178 C179 1_555 1_555
C185 O25 1_555 1_555
C200 C201 1_555 1_555
C202 C203 1_555 1_555
Zn24 O28 1_555 1_555
O16 H214 1_555 1_555
Zn1 N7 1_555 1_555
N2 N7 1_555 1_555
N7 C10 1_555 1_555
C2 N2 1_555 1_555
C4 C2 1_555 1_555
C10 C4 1_555 1_555
C12 C2 1_555 1_555
H3 C12 1_555 1_555
H4 C12 1_555 1_555
H5 C12 1_555 1_555
C14 C10 1_555 1_555
H9 C14 1_555 1_555
H11 C14 1_555 1_555
Zn7 N26 1_555 1_555
N22 N27 1_555 1_555
N24 N26 1_555 1_555
N26 C79 1_555 1_555
N27 C78 1_555 1_555
C70 N22 1_555 1_555
C72 C70 1_555 1_555
C76 C72 1_555 1_555
C77 N24 1_555 1_555
C78 C72 1_555 1_555
O11 Zn7 1_555 1_555
C79 C76 1_555 1_555
C80 C70 1_555 1_555
H73 C80 1_555 1_555
H74 C80 1_555 1_555
H75 C80 1_555 1_555
C81 C77 1_555 1_555
H76 C81 1_555 1_555
H77 C81 1_555 1_555
H78 C81 1_555 1_555
C82 C78 1_555 1_555
H79 C82 1_555 1_555
H80 C82 1_555 1_555
H81 C82 1_555 1_555
C83 O11 1_555 1_555
C86 C79 1_555 1_555
H85 C86 1_555 1_555
H86 C86 1_555 1_555
H87 C86 1_555 1_555
H89 C89 1_555 1_555
C90 C89 1_555 1_555
C91 C90 1_555 1_555
C96 C90 1_555 1_555
C97 C96 1_555 1_555
C98 C97 1_555 1_555
H97 C98 1_555 1_555
C99 C83 1_555 1_555
C100 C99 1_555 1_555
H98 C100 1_555 1_555
C101 C96 1_555 1_555
H99 C101 1_555 1_555
N29 C97 1_555 1_555
H103 N29 1_555 1_555
H104 N29 1_555 1_555
N30 C91 1_555 1_555
H105 N30 1_555 1_555
H106 N30 1_555 1_555
O13 Zn7 1_555 1_555
Zn14 N2 1_555 1_555
O22 Zn14 1_555 1_555
N51 Zn1 1_555 1_555
N53 Zn14 1_555 1_555
N55 C176 1_555 1_555
C171 C173 1_555 1_555
C173 C176 1_555 1_555
C175 N53 1_555 1_555
C176 C195 1_555 1_555
C177 N51 1_555 1_555
N58 N55 1_555 1_555
H177 N58 1_555 1_555
C186 C175 1_555 1_555
H187 C186 1_555 1_555
H188 C186 1_555 1_555
H189 C186 1_555 1_555
C187 C173 1_555 1_555
C189 C190 1_555 1_555
C190 H193 1_555 1_555
C194 C189 1_555 1_555
H195 C194 1_555 1_555
C195 H196 1_555 1_555
H197 C195 1_555 1_555
H198 C195 1_555 1_555
C196 C177 1_555 1_555
H199 C196 1_555 1_555
H200 C196 1_555 1_555
H201 C196 1_555 1_555
C197 O22 1_555 1_555
C204 C187 1_555 1_555
H205 C204 1_555 1_555
H206 C204 1_555 1_555
H207 C204 1_555 1_555
O24 C197 1_555 1_555
O26 Zn7 1_555 1_555
H212 O26 1_555 1_555
Zn17 N27 1_555 1_555
Zn23 N24 1_555 1_555
Zn25 O26 1_555 1_555
Zn28 N22 1_555 1_555
Zn30 N55 1_555 1_555
N64 Zn1 1_555 1_555
N69 Zn7 1_555 1_555
N72 Zn14 1_555 1_555
N76 Zn1 1_555 1_555
C76 C77 1_555 1_555
C83 O13 1_555 1_555
C98 C99 1_555 1_555
C100 C101 1_555 1_555
N51 N53 1_555 1_555
C171 C175 1_555 1_555
C171 C177 1_555 1_555
N58 C187 1_555 1_555
C189 C197 1_555 1_555
O26 Zn23 1_555 1_555
Zn4 N17 1_555 1_555
N12 N17 1_555 1_555
N17 C44 1_555 1_555
C36 N12 1_555 1_555
C38 C36 1_555 1_555
C44 C38 1_555 1_555
C46 C36 1_555 1_555
H38 C46 1_555 1_555
H39 C46 1_555 1_555
H40 C46 1_555 1_555
C48 C44 1_555 1_555
H44 C48 1_555 1_555
H46 C48 1_555 1_555
Zn9 N36 1_555 1_555
N34 N36 1_555 1_555
N36 C113 1_555 1_555
C111 N34 1_555 1_555
O15 Zn9 1_555 1_555
C113 C110 1_555 1_555
C115 C111 1_555 1_555
H111 C115 1_555 1_555
H112 C115 1_555 1_555
H113 C115 1_555 1_555
C117 O15 1_555 1_555
C120 C113 1_555 1_555
H120 C120 1_555 1_555
H121 C120 1_555 1_555
H122 C120 1_555 1_555
H124 C123 1_555 1_555
C124 C123 1_555 1_555
C125 C124 1_555 1_555
C130 C124 1_555 1_555
C131 C130 1_555 1_555
C132 C131 1_555 1_555
H132 C132 1_555 1_555
C133 C117 1_555 1_555
C134 C133 1_555 1_555
H133 C134 1_555 1_555
C135 C130 1_555 1_555
H134 C135 1_555 1_555
N39 C131 1_555 1_555
H138 N39 1_555 1_555
H139 N39 1_555 1_555
N40 C125 1_555 1_555
H140 N40 1_555 1_555
H141 N40 1_555 1_555
O17 Zn9 1_555 1_555
Zn22 N34 1_555 1_555
Zn26 N12 1_555 1_555
O27 Zn9 1_555 1_555
N61 Zn4 1_555 1_555
N62 Zn4 1_555 1_555
N70 Zn9 1_555 1_555
N78 Zn4 1_555 1_555
C110 C111 1_555 1_555
C117 O17 1_555 1_555
C132 C133 1_555 1_555
C134 C135 1_555 1_555
Zn22 O27 1_555 1_555
N42 N47 1_555 1_555
N47 C146 1_555 1_555
C138 N42 1_555 1_555
C140 C138 1_555 1_555
C146 C140 1_555 1_555
C148 C138 1_555 1_555
H143 C148 1_555 1_555
H144 C148 1_555 1_555
H145 C148 1_555 1_555
C150 C146 1_555 1_555
H149 C150 1_555 1_555
H151 C150 1_555 1_555
Zn19 N47 1_555 1_555
Zn31 N42 1_555 1_555
Zn2 O1 1_555 1_555
Zn3 O2 1_555 1_555
O1 H1 1_555 1_555
O2 C27 1_555 1_555
N1 N3 1_555 1_555
N3 Zn3 1_555 1_555
N4 N6 1_555 1_555
N5 C6 1_555 1_555
N6 Zn2 1_555 1_555
C1 C3 1_555 1_555
C3 C6 1_555 1_555
C5 N3 1_555 1_555
C6 C25 1_555 1_555
C7 N1 1_555 1_555
N8 N5 1_555 1_555
H2 N8 1_555 1_555
C9 N4 1_555 1_555
O3 Zn2 1_555 1_555
C11 N6 1_555 1_555
C13 C9 1_555 1_555
H6 C13 1_555 1_555
H7 C13 1_555 1_555
H8 C13 1_555 1_555
C15 O3 1_555 1_555
C16 C5 1_555 1_555
H12 C16 1_555 1_555
H13 C16 1_555 1_555
H14 C16 1_555 1_555
C17 C3 1_555 1_555
C18 C11 1_555 1_555
H15 C18 1_555 1_555
H16 C18 1_555 1_555
H17 C18 1_555 1_555
C19 C20 1_555 1_555
C20 H18 1_555 1_555
C21 C20 1_555 1_555
H19 C21 1_555 1_555
C22 C21 1_555 1_555
C23 C22 1_555 1_555
C24 C19 1_555 1_555
H20 C24 1_555 1_555
C25 H21 1_555 1_555
H22 C25 1_555 1_555
H23 C25 1_555 1_555
C26 C7 1_555 1_555
H24 C26 1_555 1_555
H25 C26 1_555 1_555
H26 C26 1_555 1_555
C27 C19 1_555 1_555
C28 C22 1_555 1_555
C29 C28 1_555 1_555
C30 C29 1_555 1_555
H27 C30 1_555 1_555
C31 C15 1_555 1_555
C32 C31 1_555 1_555
H28 C32 1_555 1_555
C33 C28 1_555 1_555
H29 C33 1_555 1_555
C34 C17 1_555 1_555
H30 C34 1_555 1_555
H31 C34 1_555 1_555
H32 C34 1_555 1_555
N9 C29 1_555 1_555
H33 N9 1_555 1_555
H34 N9 1_555 1_555
O4 C27 1_555 1_555
N10 C23 1_555 1_555
H35 N10 1_555 1_555
H36 N10 1_555 1_555
O5 Zn2 1_555 1_555
Zn5 O1 1_555 1_555
Zn30 O6 1_555 1_555
O6 C61 1_555 1_555
N11 N13 1_555 1_555
N13 Zn30 1_555 1_555
N14 Zn2 1_555 1_555
N15 C40 1_555 1_555
N16 Zn5 1_555 1_555
C35 C37 1_555 1_555
C37 C40 1_555 1_555
C39 N13 1_555 1_555
C40 C59 1_555 1_555
C41 N11 1_555 1_555
N18 N15 1_555 1_555
H37 N18 1_555 1_555
C43 N14 1_555 1_555
O7 Zn5 1_555 1_555
C45 N16 1_555 1_555
C47 C43 1_555 1_555
H41 C47 1_555 1_555
H42 C47 1_555 1_555
H43 C47 1_555 1_555
C49 O7 1_555 1_555
C50 C39 1_555 1_555
H47 C50 1_555 1_555
H48 C50 1_555 1_555
H49 C50 1_555 1_555
C51 C37 1_555 1_555
C52 C45 1_555 1_555
H50 C52 1_555 1_555
H51 C52 1_555 1_555
H52 C52 1_555 1_555
C53 C54 1_555 1_555
C54 H53 1_555 1_555
C55 C54 1_555 1_555
H54 C55 1_555 1_555
C56 C55 1_555 1_555
C57 C56 1_555 1_555
C58 C53 1_555 1_555
H55 C58 1_555 1_555
C59 H56 1_555 1_555
H57 C59 1_555 1_555
H58 C59 1_555 1_555
C60 C41 1_555 1_555
H59 C60 1_555 1_555
H60 C60 1_555 1_555
H61 C60 1_555 1_555
C61 C53 1_555 1_555
C62 C56 1_555 1_555
C63 C62 1_555 1_555
C64 C63 1_555 1_555
H62 C64 1_555 1_555
C65 C49 1_555 1_555
C66 C65 1_555 1_555
H63 C66 1_555 1_555
C67 C62 1_555 1_555
H64 C67 1_555 1_555
C68 C51 1_555 1_555
H65 C68 1_555 1_555
H66 C68 1_555 1_555
H67 C68 1_555 1_555
N19 C63 1_555 1_555
H68 N19 1_555 1_555
H69 N19 1_555 1_555
O8 C61 1_555 1_555
N20 C57 1_555 1_555
H70 N20 1_555 1_555
H71 N20 1_555 1_555
O9 Zn5 1_555 1_555
Zn31 O10 1_555 1_555
O10 C95 1_555 1_555
N21 N23 1_555 1_555
N23 Zn31 1_555 1_555
N25 Zn3 1_555 1_555
C69 C71 1_555 1_555
C71 C74 1_555 1_555
C73 N23 1_555 1_555
C74 N25 1_555 1_555
C75 N21 1_555 1_555
N28 N25 1_555 1_555
H72 N28 1_555 1_555
C84 C73 1_555 1_555
H82 C84 1_555 1_555
H83 C84 1_555 1_555
H84 C84 1_555 1_555
C85 C71 1_555 1_555
C87 C88 1_555 1_555
C88 H88 1_555 1_555
C92 C87 1_555 1_555
H90 C92 1_555 1_555
C93 C74 1_555 1_555
H91 C93 1_555 1_555
H92 C93 1_555 1_555
H93 C93 1_555 1_555
C94 C75 1_555 1_555
H94 C94 1_555 1_555
H95 C94 1_555 1_555
H96 C94 1_555 1_555
C95 C87 1_555 1_555
C102 C85 1_555 1_555
H100 C102 1_555 1_555
H101 C102 1_555 1_555
H102 C102 1_555 1_555
O12 C95 1_555 1_555
N32 Zn3 1_555 1_555
N37 N32 1_555 1_555
C104 N32 1_555 1_555
C106 C104 1_555 1_555
C112 N37 1_555 1_555
C114 C104 1_555 1_555
H108 C114 1_555 1_555
H109 C114 1_555 1_555
H110 C114 1_555 1_555
C116 C112 1_555 1_555
H114 C116 1_555 1_555
H116 C116 1_555 1_555
Zn11 O1 1_555 1_555
Zn12 O18 1_555 1_555
O18 C163 1_555 1_555
N41 N43 1_555 1_555
N43 Zn12 1_555 1_555
N44 Zn5 1_555 1_555
N45 C142 1_555 1_555
N46 Zn11 1_555 1_555
C137 C139 1_555 1_555
C139 C142 1_555 1_555
C141 N43 1_555 1_555
C142 C161 1_555 1_555
C143 N41 1_555 1_555
N48 N45 1_555 1_555
H142 N48 1_555 1_555
C145 N44 1_555 1_555
O19 Zn11 1_555 1_555
C147 N46 1_555 1_555
C149 C145 1_555 1_555
H146 C149 1_555 1_555
H147 C149 1_555 1_555
H148 C149 1_555 1_555
C151 O19 1_555 1_555
C152 C141 1_555 1_555
H152 C152 1_555 1_555
H153 C152 1_555 1_555
H154 C152 1_555 1_555
C153 C139 1_555 1_555
C154 C147 1_555 1_555
H155 C154 1_555 1_555
H156 C154 1_555 1_555
H157 C154 1_555 1_555
C155 C156 1_555 1_555
C156 H158 1_555 1_555
C157 C156 1_555 1_555
H159 C157 1_555 1_555
C158 C157 1_555 1_555
C159 C158 1_555 1_555
C160 C155 1_555 1_555
H160 C160 1_555 1_555
C161 H161 1_555 1_555
H162 C161 1_555 1_555
H163 C161 1_555 1_555
C162 C143 1_555 1_555
H164 C162 1_555 1_555
H165 C162 1_555 1_555
H166 C162 1_555 1_555
C163 C155 1_555 1_555
C164 C158 1_555 1_555
C165 C164 1_555 1_555
C166 C165 1_555 1_555
H167 C166 1_555 1_555
C167 C151 1_555 1_555
C168 C167 1_555 1_555
H168 C168 1_555 1_555
C169 C164 1_555 1_555
H169 C169 1_555 1_555
C170 C153 1_555 1_555
H170 C170 1_555 1_555
H171 C170 1_555 1_555
H172 C170 1_555 1_555
N49 C165 1_555 1_555
H173 N49 1_555 1_555
H174 N49 1_555 1_555
O20 C163 1_555 1_555
N50 C159 1_555 1_555
H175 N50 1_555 1_555
H176 N50 1_555 1_555
O21 Zn11 1_555 1_555
Zn15 N1 1_555 1_555
Zn16 N41 1_555 1_555
Zn19 N21 1_555 1_555
Zn21 N11 1_555 1_555
Zn29 N15 1_555 1_555
Zn32 N45 1_555 1_555
Zn33 N5 1_555 1_555
N63 Zn15 1_555 1_555
N65 Zn12 1_555 1_555
N67 Zn30 1_555 1_555
N71 Zn12 1_555 1_555
N75 Zn31 1_555 1_555
N77 Zn15 1_555 1_555
N4 Zn11 1_555 1_555
C1 C5 1_555 1_555
C1 C7 1_555 1_555
N8 C17 1_555 1_555
C8 C9 1_555 1_555
C8 C11 1_555 1_555
C15 O5 1_555 1_555
C23 C24 1_555 1_555
C30 C31 1_555 1_555
C32 C33 1_555 1_555
N14 N16 1_555 1_555
C35 C39 1_555 1_555
C35 C41 1_555 1_555
N18 C51 1_555 1_555
C42 C43 1_555 1_555
C42 C45 1_555 1_555
C49 O9 1_555 1_555
C57 C58 1_555 1_555
C64 C65 1_555 1_555
C66 C67 1_555 1_555
C69 C73 1_555 1_555
C69 C75 1_555 1_555
N28 C85 1_555 1_555
N37 Zn15 1_555 1_555
C106 C112 1_555 1_555
N44 N46 1_555 1_555
C137 C141 1_555 1_555
C137 C143 1_555 1_555
N48 C153 1_555 1_555
C144 C145 1_555 1_555
C144 C147 1_555 1_555
C151 O21 1_555 1_555
C159 C160 1_555 1_555
C166 C167 1_555 1_555
C168 C169 1_555 1_555
O4 H213 1_555 1_555
Zn1_2 N7_2 1_555 1_555
O27 H1_2 1_555 1_555
N2_2 N7_2 1_555 1_555
N4_2 N6_2 1_555 1_555
N6_2 Zn22 1_555 1_555
N7_2 C10_2 1_555 1_555
C2_2 N2_2 1_555 1_555
C4_2 C2_2 1_555 1_555
C8_2 C4_2 1_555 1_555
C9_2 N4_2 1_555 1_555
C10_2 C4_2 1_555 1_555
O3_2 Zn22 1_555 1_555
C11_2 N6_2 1_555 1_555
C12_2 C2_2 1_555 1_555
H3_2 C12_2 1_555 1_555
H4_2 C12_2 1_555 1_555
H5_2 C12_2 1_555 1_555
C13_2 C9_2 1_555 1_555
H6_2 C13_2 1_555 1_555
H7_2 C13_2 1_555 1_555
H8_2 C13_2 1_555 1_555
C14_2 C10_2 1_555 1_555
H9_2 C14_2 1_555 1_555
H10_2 C14_2 1_555 1_555
H11_2 C14_2 1_555 1_555
C15_2 O3_2 1_555 1_555
C18_2 C11_2 1_555 1_555
H15_2 C18_2 1_555 1_555
H16_2 C18_2 1_555 1_555
H17_2 C18_2 1_555 1_555
H19_2 C21_2 1_555 1_555
C22_2 C21_2 1_555 1_555
C23_2 C22_2 1_555 1_555
C28_2 C22_2 1_555 1_555
C29_2 C28_2 1_555 1_555
C30_2 C29_2 1_555 1_555
H27_2 C30_2 1_555 1_555
C31_2 C15_2 1_555 1_555
C32_2 C31_2 1_555 1_555
H28_2 C32_2 1_555 1_555
C33_2 C28_2 1_555 1_555
H29_2 C33_2 1_555 1_555
N9_2 C29_2 1_555 1_555
H33_2 N9_2 1_555 1_555
H34_2 N9_2 1_555 1_555
N10_2 C23_2 1_555 1_555
H35_2 N10_2 1_555 1_555
H36_2 N10_2 1_555 1_555
O5_2 Zn22 1_555 1_555
Zn11_2 O27 1_555 1_555
Zn33 O18_2 1_555 1_555
O18_2 C163_2 1_555 1_555
N41_2 N43_2 1_555 1_555
N42_2 N47_2 1_555 1_555
N43_2 Zn33 1_555 1_555
N75 C142_2 1_555 1_555
N46_2 Zn11_2 1_555 1_555
N47_2 C146_2 1_555 1_555
C137_2 C139_2 1_555 1_555
C138_2 N42_2 1_555 1_555
C139_2 C142_2 1_555 1_555
C140_2 C138_2 1_555 1_555
C141_2 N43_2 1_555 1_555
C142_2 C161_2 1_555 1_555
C143_2 N41_2 1_555 1_555
N48_2 N75 1_555 1_555
H142_2 N48_2 1_555 1_555
C144_2 C140_2 1_555 1_555
C145_2 N70 1_555 1_555
C146_2 C140_2 1_555 1_555
O19_2 Zn11_2 1_555 1_555
C147_2 N46_2 1_555 1_555
C148_2 C138_2 1_555 1_555
H143_2 C148_2 1_555 1_555
H144_2 C148_2 1_555 1_555
H145_2 C148_2 1_555 1_555
C149_2 C145_2 1_555 1_555
H146_2 C149_2 1_555 1_555
H147_2 C149_2 1_555 1_555
H148_2 C149_2 1_555 1_555
C150_2 C146_2 1_555 1_555
H149_2 C150_2 1_555 1_555
H150_2 C150_2 1_555 1_555
H151_2 C150_2 1_555 1_555
C151_2 O19_2 1_555 1_555
C152_2 C141_2 1_555 1_555
H152_2 C152_2 1_555 1_555
H153_2 C152_2 1_555 1_555
H154_2 C152_2 1_555 1_555
C153_2 C139_2 1_555 1_555
C154_2 C147_2 1_555 1_555
H155_2 C154_2 1_555 1_555
H156_2 C154_2 1_555 1_555
H157_2 C154_2 1_555 1_555
C155_2 C156_2 1_555 1_555
C156_2 H158_2 1_555 1_555
C157_2 C156_2 1_555 1_555
H159_2 C157_2 1_555 1_555
C158_2 C157_2 1_555 1_555
C159_2 C158_2 1_555 1_555
C160_2 C155_2 1_555 1_555
H160_2 C160_2 1_555 1_555
C161_2 H161_2 1_555 1_555
H162_2 C161_2 1_555 1_555
H163_2 C161_2 1_555 1_555
C162_2 C143_2 1_555 1_555
H164_2 C162_2 1_555 1_555
H165_2 C162_2 1_555 1_555
H166_2 C162_2 1_555 1_555
C163_2 C155_2 1_555 1_555
C164_2 C158_2 1_555 1_555
C165_2 C164_2 1_555 1_555
C166_2 C165_2 1_555 1_555
H167_2 C166_2 1_555 1_555
C167_2 C151_2 1_555 1_555
C168_2 C167_2 1_555 1_555
H168_2 C168_2 1_555 1_555
C169_2 C164_2 1_555 1_555
H169_2 C169_2 1_555 1_555
C170_2 C153_2 1_555 1_555
H170_2 C170_2 1_555 1_555
H171_2 C170_2 1_555 1_555
H172_2 C170_2 1_555 1_555
N49_2 C165_2 1_555 1_555
H173_2 N49_2 1_555 1_555
H174_2 N49_2 1_555 1_555
O20_2 C163_2 1_555 1_555
N50_2 C159_2 1_555 1_555
H175_2 N50_2 1_555 1_555
H176_2 N50_2 1_555 1_555
O21_2 Zn11_2 1_555 1_555
Zn14_2 N2_2 1_555 1_555
O22_2 Zn14_2 1_555 1_555
N51_2 Zn1_2 1_555 1_555
N53_2 Zn14_2 1_555 1_555
N74 C176_2 1_555 1_555
C171_2 C173_2 1_555 1_555
C173_2 C176_2 1_555 1_555
C175_2 N53_2 1_555 1_555
C176_2 C195_2 1_555 1_555
C177_2 N51_2 1_555 1_555
N58_2 N74 1_555 1_555
H177_2 N58_2 1_555 1_555
C186_2 C175_2 1_555 1_555
H187_2 C186_2 1_555 1_555
H188_2 C186_2 1_555 1_555
H189_2 C186_2 1_555 1_555
C187_2 C173_2 1_555 1_555
C189_2 C190_2 1_555 1_555
C190_2 H193_2 1_555 1_555
C194_2 C189_2 1_555 1_555
H195_2 C194_2 1_555 1_555
C195_2 H196_2 1_555 1_555
H197_2 C195_2 1_555 1_555
H198_2 C195_2 1_555 1_555
C196_2 C177_2 1_555 1_555
H199_2 C196_2 1_555 1_555
H200_2 C196_2 1_555 1_555
H201_2 C196_2 1_555 1_555
C197_2 O22_2 1_555 1_555
C204_2 C187_2 1_555 1_555
H205_2 C204_2 1_555 1_555
H206_2 C204_2 1_555 1_555
H207_2 C204_2 1_555 1_555
O24_2 C197_2 1_555 1_555
Zn16_2 N41_2 1_555 1_555
Zn19_2 N47_2 1_555 1_555
Zn32 N42_2 1_555 1_555
N64_2 Zn1_2 1_555 1_555
N65_2 Zn33 1_555 1_555
N72_2 Zn14_2 1_555 1_555
N76_2 Zn1_2 1_555 1_555
N4_2 Zn11_2 1_555 1_555
C8_2 C9_2 1_555 1_555
C8_2 C11_2 1_555 1_555
C15_2 O5_2 1_555 1_555
C30_2 C31_2 1_555 1_555
C32_2 C33_2 1_555 1_555
N70 N46_2 1_555 1_555
C137_2 C141_2 1_555 1_555
C137_2 C143_2 1_555 1_555
N48_2 C153_2 1_555 1_555
C144_2 C145_2 1_555 1_555
C144_2 C147_2 1_555 1_555
C151_2 O21_2 1_555 1_555
C159_2 C160_2 1_555 1_555
C166_2 C167_2 1_555 1_555
C168_2 C169_2 1_555 1_555
N51_2 N53_2 1_555 1_555
C171_2 C175_2 1_555 1_555
C171_2 C177_2 1_555 1_555
N58_2 C187_2 1_555 1_555
C189_2 C197_2 1_555 1_555
Zn26 O2_2 1_555 1_555
O2_2 C27_2 1_555 1_555
N61 N3_2 1_555 1_555
N3_2 Zn26 1_555 1_555
N71 C6_2 1_555 1_555
C1_2 C3_2 1_555 1_555
C3_2 C6_2 1_555 1_555
C5_2 N3_2 1_555 1_555
C6_2 C25_2 1_555 1_555
C7_2 N61 1_555 1_555
N8_2 N71 1_555 1_555
H2_2 N8_2 1_555 1_555
C16_2 C5_2 1_555 1_555
H12_2 C16_2 1_555 1_555
H13_2 C16_2 1_555 1_555
H14_2 C16_2 1_555 1_555
C17_2 C3_2 1_555 1_555
C19_2 C20_2 1_555 1_555
C20_2 H18_2 1_555 1_555
C24_2 C19_2 1_555 1_555
H20_2 C24_2 1_555 1_555
C25_2 H21_2 1_555 1_555
H22_2 C25_2 1_555 1_555
H23_2 C25_2 1_555 1_555
C26_2 C7_2 1_555 1_555
H24_2 C26_2 1_555 1_555
H25_2 C26_2 1_555 1_555
H26_2 C26_2 1_555 1_555
C27_2 C19_2 1_555 1_555
C34_2 C17_2 1_555 1_555
H30_2 C34_2 1_555 1_555
H31_2 C34_2 1_555 1_555
H32_2 C34_2 1_555 1_555
O4_2 C27_2 1_555 1_555
Zn24 N26_2 1_555 1_555
Zn32 O10_2 1_555 1_555
O10_2 C95_2 1_555 1_555
N21_2 N23_2 1_555 1_555
N22_2 N27_2 1_555 1_555
N23_2 Zn32 1_555 1_555
N24_2 N26_2 1_555 1_555
N25_2 Zn26 1_555 1_555
N26_2 C79_2 1_555 1_555
N27_2 C78_2 1_555 1_555
C69_2 C71_2 1_555 1_555
C70_2 N22_2 1_555 1_555
C71_2 C74_2 1_555 1_555
C72_2 C70_2 1_555 1_555
C73_2 N23_2 1_555 1_555
C74_2 N25_2 1_555 1_555
C75_2 N21_2 1_555 1_555
N28_2 N25_2 1_555 1_555
H72_2 N28_2 1_555 1_555
C76_2 C72_2 1_555 1_555
C77_2 N24_2 1_555 1_555
C78_2 C72_2 1_555 1_555
O11_2 Zn24 1_555 1_555
C79_2 C76_2 1_555 1_555
C80_2 C70_2 1_555 1_555
H73_2 C80_2 1_555 1_555
H74_2 C80_2 1_555 1_555
H75_2 C80_2 1_555 1_555
C81_2 C77_2 1_555 1_555
H76_2 C81_2 1_555 1_555
H77_2 C81_2 1_555 1_555
H78_2 C81_2 1_555 1_555
C82_2 C78_2 1_555 1_555
H79_2 C82_2 1_555 1_555
H80_2 C82_2 1_555 1_555
H81_2 C82_2 1_555 1_555
C83_2 O11_2 1_555 1_555
C84_2 C73_2 1_555 1_555
H82_2 C84_2 1_555 1_555
H83_2 C84_2 1_555 1_555
H84_2 C84_2 1_555 1_555
C85_2 C71_2 1_555 1_555
C86_2 C79_2 1_555 1_555
H85_2 C86_2 1_555 1_555
H86_2 C86_2 1_555 1_555
H87_2 C86_2 1_555 1_555
C87_2 C88_2 1_555 1_555
C88_2 H88_2 1_555 1_555
C89_2 C88_2 1_555 1_555
H89_2 C89_2 1_555 1_555
C90_2 C89_2 1_555 1_555
C91_2 C90_2 1_555 1_555
C92_2 C87_2 1_555 1_555
H90_2 C92_2 1_555 1_555
C93_2 C74_2 1_555 1_555
H91_2 C93_2 1_555 1_555
H92_2 C93_2 1_555 1_555
H93_2 C93_2 1_555 1_555
C94_2 C75_2 1_555 1_555
H94_2 C94_2 1_555 1_555
H95_2 C94_2 1_555 1_555
H96_2 C94_2 1_555 1_555
C95_2 C87_2 1_555 1_555
C96_2 C90_2 1_555 1_555
C97_2 C96_2 1_555 1_555
C98_2 C97_2 1_555 1_555
H97_2 C98_2 1_555 1_555
C99_2 C83_2 1_555 1_555
C100_2 C99_2 1_555 1_555
H98_2 C100_2 1_555 1_555
C101_2 C96_2 1_555 1_555
H99_2 C101_2 1_555 1_555
C102_2 C85_2 1_555 1_555
H100_2 C102_2 1_555 1_555
H101_2 C102_2 1_555 1_555
H102_2 C102_2 1_555 1_555
N29_2 C97_2 1_555 1_555
H103_2 N29_2 1_555 1_555
H104_2 N29_2 1_555 1_555
O12_2 C95_2 1_555 1_555
N30_2 C91_2 1_555 1_555
H105_2 N30_2 1_555 1_555
H106_2 N30_2 1_555 1_555
O13_2 Zn24 1_555 1_555
H212_2 O28 1_555 1_555
Zn17_2 N27_2 1_555 1_555
Zn19_2 N21_2 1_555 1_555
Zn23_2 N24_2 1_555 1_555
Zn29 N22_2 1_555 1_555
C1_2 C5_2 1_555 1_555
C1_2 C7_2 1_555 1_555
N8_2 C17_2 1_555 1_555
C69_2 C73_2 1_555 1_555
C69_2 C75_2 1_555 1_555
N28_2 C85_2 1_555 1_555
C76_2 C77_2 1_555 1_555
C83_2 O13_2 1_555 1_555
C91_2 C92_2 1_555 1_555
C98_2 C99_2 1_555 1_555
C100_2 C101_2 1_555 1_555
O28 Zn23_2 1_555 1_555
O4_2 H213_2 1_555 1_555
Zn25 N56_2 1_555 1_555
N69 N56_2 1_555 1_555
N56_2 C181_2 1_555 1_555
C179_2 N69 1_555 1_555
O23_2 Zn25 1_555 1_555
C181_2 C178_2 1_555 1_555
C183_2 C179_2 1_555 1_555
H181_2 C183_2 1_555 1_555
H182_2 C183_2 1_555 1_555
H183_2 C183_2 1_555 1_555
C185_2 O23_2 1_555 1_555
C188_2 C181_2 1_555 1_555
H190_2 C188_2 1_555 1_555
H191_2 C188_2 1_555 1_555
H192_2 C188_2 1_555 1_555
H194_2 C191_2 1_555 1_555
C192_2 C191_2 1_555 1_555
C193_2 C192_2 1_555 1_555
C198_2 C192_2 1_555 1_555
C199_2 C198_2 1_555 1_555
C200_2 C199_2 1_555 1_555
H202_2 C200_2 1_555 1_555
C201_2 C185_2 1_555 1_555
C202_2 C201_2 1_555 1_555
H203_2 C202_2 1_555 1_555
C203_2 C198_2 1_555 1_555
H204_2 C203_2 1_555 1_555
N59_2 C199_2 1_555 1_555
H208_2 N59_2 1_555 1_555
H209_2 N59_2 1_555 1_555
N60_2 C193_2 1_555 1_555
H210_2 N60_2 1_555 1_555
H211_2 N60_2 1_555 1_555
O25_2 Zn25 1_555 1_555
N68_2 Zn25 1_555 1_555
C178_2 C179_2 1_555 1_555
C185_2 O25_2 1_555 1_555
C200_2 C201_2 1_555 1_555
C202_2 C203_2 1_555 1_555
N57_2 N67 1_555 1_555
C172_2 N67 1_555 1_555
C174_2 C172_2 1_555 1_555
C180_2 N57_2 1_555 1_555
C182_2 C172_2 1_555 1_555
H178_2 C182_2 1_555 1_555
H179_2 C182_2 1_555 1_555
H180_2 C182_2 1_555 1_555
C184_2 C180_2 1_555 1_555
H184_2 C184_2 1_555 1_555
H186_2 C184_2 1_555 1_555
N57_2 Zn21 1_555 1_555
C174_2 C180_2 1_555 1_555
O8 H214_2 1_555 1_555
Zn28 O2_3 1_555 1_555
O2_3 C27_3 1_555 1_555
N1_2 N3_3 1_555 1_555
N3_3 Zn28 1_555 1_555
N72_2 C6_3 1_555 1_555
C1_3 C3_3 1_555 1_555
C3_3 C6_3 1_555 1_555
C5_3 N3_3 1_555 1_555
C6_3 C25_3 1_555 1_555
C7_3 N1_2 1_555 1_555
N8_3 N72_2 1_555 1_555
H2_3 N8_3 1_555 1_555
C16_3 C5_3 1_555 1_555
H12_3 C16_3 1_555 1_555
H13_3 C16_3 1_555 1_555
H14_3 C16_3 1_555 1_555
C17_3 C3_3 1_555 1_555
C19_3 C20_3 1_555 1_555
C20_3 H18_3 1_555 1_555
C24_3 C19_3 1_555 1_555
H20_3 C24_3 1_555 1_555
C25_3 H21_3 1_555 1_555
H22_3 C25_3 1_555 1_555
H23_3 C25_3 1_555 1_555
C26_3 C7_3 1_555 1_555
H24_3 C26_3 1_555 1_555
H25_3 C26_3 1_555 1_555
H26_3 C26_3 1_555 1_555
C27_3 C19_3 1_555 1_555
C34_3 C17_3 1_555 1_555
H30_3 C34_3 1_555 1_555
H31_3 C34_3 1_555 1_555
H32_3 C34_3 1_555 1_555
O4_3 C27_3 1_555 1_555
Zn17 N1_2 1_555 1_555
N63_2 Zn17 1_555 1_555
N77_2 Zn17 1_555 1_555
C1_3 C5_3 1_555 1_555
C1_3 C7_3 1_555 1_555
N8_3 C17_3 1_555 1_555
O4_3 H213_3 1_555 1_555
N68 N6_3 1_555 1_555
N6_3 Zn23_2 1_555 1_555
C9_3 N68 1_555 1_555
O3_3 Zn23_2 1_555 1_555
C11_3 N6_3 1_555 1_555
C13_3 C9_3 1_555 1_555
H6_3 C13_3 1_555 1_555
H7_3 C13_3 1_555 1_555
H8_3 C13_3 1_555 1_555
C15_3 O3_3 1_555 1_555
C18_3 C11_3 1_555 1_555
H15_3 C18_3 1_555 1_555
H16_3 C18_3 1_555 1_555
H17_3 C18_3 1_555 1_555
H19_3 C21_3 1_555 1_555
C22_3 C21_3 1_555 1_555
C23_3 C22_3 1_555 1_555
C28_3 C22_3 1_555 1_555
C29_3 C28_3 1_555 1_555
C30_3 C29_3 1_555 1_555
H27_3 C30_3 1_555 1_555
C31_3 C15_3 1_555 1_555
C32_3 C31_3 1_555 1_555
H28_3 C32_3 1_555 1_555
C33_3 C28_3 1_555 1_555
H29_3 C33_3 1_555 1_555
N9_3 C29_3 1_555 1_555
H33_3 N9_3 1_555 1_555
H34_3 N9_3 1_555 1_555
N10_3 C23_3 1_555 1_555
H35_3 N10_3 1_555 1_555
H36_3 N10_3 1_555 1_555
O5_3 Zn23_2 1_555 1_555
N61_2 Zn17_2 1_555 1_555
N62_2 Zn17_2 1_555 1_555
N78_2 Zn17_2 1_555 1_555
C8_3 C9_3 1_555 1_555
C8_3 C11_3 1_555 1_555
C15_3 O5_3 1_555 1_555
C30_3 C31_3 1_555 1_555
C32_3 C33_3 1_555 1_555
O12 H214_3 1_555 1_555
Zn16 N7_3 1_555 1_555
N65 N7_3 1_555 1_555
N7_3 C10_3 1_555 1_555
C2_3 N65 1_555 1_555
C4_3 C2_3 1_555 1_555
C10_3 C4_3 1_555 1_555
C12_3 C2_3 1_555 1_555
H3_3 C12_3 1_555 1_555
H4_3 C12_3 1_555 1_555
H5_3 C12_3 1_555 1_555
C14_3 C10_3 1_555 1_555
H9_3 C14_3 1_555 1_555
H11_3 C14_3 1_555 1_555
N64_3 Zn16 1_555 1_555
N76_3 Zn16 1_555 1_555
Zn16_2 N7_4 1_555 1_555
Zn29 O2_4 1_555 1_555
O2_4 C27_4 1_555 1_555
N61_2 N3_4 1_555 1_555
N65_2 N7_4 1_555 1_555
N3_4 Zn29 1_555 1_555
N68_2 N6_4 1_555 1_555
N72 C6_4 1_555 1_555
N6_4 Zn23 1_555 1_555
N7_4 C10_4 1_555 1_555
C1_4 C3_4 1_555 1_555
C2_4 N65_2 1_555 1_555
C3_4 C6_4 1_555 1_555
C4_4 C2_4 1_555 1_555
C5_4 N3_4 1_555 1_555
C6_4 C25_4 1_555 1_555
C7_4 N61_2 1_555 1_555
N8_4 N72 1_555 1_555
H2_4 N8_4 1_555 1_555
C8_4 C4_4 1_555 1_555
C9_4 N68_2 1_555 1_555
C10_4 C4_4 1_555 1_555
O3_4 Zn23 1_555 1_555
C11_4 N6_4 1_555 1_555
C12_4 C2_4 1_555 1_555
H3_4 C12_4 1_555 1_555
H4_4 C12_4 1_555 1_555
H5_4 C12_4 1_555 1_555
C13_4 C9_4 1_555 1_555
H6_4 C13_4 1_555 1_555
H7_4 C13_4 1_555 1_555
H8_4 C13_4 1_555 1_555
C14_4 C10_4 1_555 1_555
H9_4 C14_4 1_555 1_555
H10_4 C14_4 1_555 1_555
H11_4 C14_4 1_555 1_555
C15_4 O3_4 1_555 1_555
C16_4 C5_4 1_555 1_555
H12_4 C16_4 1_555 1_555
H13_4 C16_4 1_555 1_555
H14_4 C16_4 1_555 1_555
C17_4 C3_4 1_555 1_555
C18_4 C11_4 1_555 1_555
H15_4 C18_4 1_555 1_555
H16_4 C18_4 1_555 1_555
H17_4 C18_4 1_555 1_555
C19_4 C20_4 1_555 1_555
C20_4 H18_4 1_555 1_555
C21_4 C20_4 1_555 1_555
H19_4 C21_4 1_555 1_555
C22_4 C21_4 1_555 1_555
C23_4 C22_4 1_555 1_555
C24_4 C19_4 1_555 1_555
H20_4 C24_4 1_555 1_555
C25_4 H21_4 1_555 1_555
H22_4 C25_4 1_555 1_555
H23_4 C25_4 1_555 1_555
C26_4 C7_4 1_555 1_555
H24_4 C26_4 1_555 1_555
H25_4 C26_4 1_555 1_555
H26_4 C26_4 1_555 1_555
C27_4 C19_4 1_555 1_555
C28_4 C22_4 1_555 1_555
C29_4 C28_4 1_555 1_555
C30_4 C29_4 1_555 1_555
H27_4 C30_4 1_555 1_555
C31_4 C15_4 1_555 1_555
C32_4 C31_4 1_555 1_555
H28_4 C32_4 1_555 1_555
C33_4 C28_4 1_555 1_555
H29_4 C33_4 1_555 1_555
C34_4 C17_4 1_555 1_555
H30_4 C34_4 1_555 1_555
H31_4 C34_4 1_555 1_555
H32_4 C34_4 1_555 1_555
N9_4 C29_4 1_555 1_555
H33_4 N9_4 1_555 1_555
H34_4 N9_4 1_555 1_555
O4_4 C27_4 1_555 1_555
N10_4 C23_4 1_555 1_555
H35_4 N10_4 1_555 1_555
H36_4 N10_4 1_555 1_555
O5_4 Zn23 1_555 1_555
N64_4 Zn16_2 1_555 1_555
N76_4 Zn16_2 1_555 1_555
C1_4 C5_4 1_555 1_555
C1_4 C7_4 1_555 1_555
N8_4 C17_4 1_555 1_555
C8_4 C9_4 1_555 1_555
C8_4 C11_4 1_555 1_555
C15_4 O5_4 1_555 1_555
C23_4 C24_4 1_555 1_555
C30_4 C31_4 1_555 1_555
C32_4 C33_4 1_555 1_555
O4_4 H213_4 1_555 1_555
O12_2 H214_4 1_555 1_555
O24_2 H214_5 1_555 1_555
N62_3 Zn19 1_555 1_555
N78_3 Zn19 1_555 1_555
N63_3 Zn21 1_555 1_555
N77_3 Zn21 1_555 1_555
O20 H214_6 1_555 1_555
N63_4 Zn20 1_555 1_555
N77_4 Zn20 1_555 1_555
O24 H214_7 1_555 1_555
N62_4 Zn19_2 1_555 1_555
N78_4 Zn19_2 1_555 1_555
O20_2 H214_8 1_555 1_555
C127_2 H126_2 1_555 1_555
H128_2 C127_2 1_555 1_555
N55_2 C176_3 1_555 1_555
C173_3 C176_3 1_555 1_555
N58_3 N55_2 1_555 1_555
H177_3 N58_3 1_555 1_555
C187_3 C173_3 1_555 1_555
C204_3 C187_3 1_555 1_555
H205_3 C204_3 1_555 1_555
H206_3 C204_3 1_555 1_555
H207_3 C204_3 1_555 1_555
N58_3 C187_3 1_555 1_555
Zn3_2 O2_5 1_555 1_555
O2_5 C27_5 1_555 1_555
N63_4 N3_5 1_555 1_555
N3_5 Zn3_2 1_555 1_555
C5_5 N3_5 1_555 1_555
C7_5 N63_4 1_555 1_555
H3_5 C12_5 1_555 1_555
H4_5 C12_5 1_555 1_555
H5_5 C12_5 1_555 1_555
C15_5 O3_5 1_555 1_555
C16_5 C5_5 1_555 1_555
H12_5 C16_5 1_555 1_555
H13_5 C16_5 1_555 1_555
H14_5 C16_5 1_555 1_555
C19_5 C20_5 1_555 1_555
C20_5 H18_5 1_555 1_555
C21_5 C20_5 1_555 1_555
H19_5 C21_5 1_555 1_555
C22_5 C21_5 1_555 1_555
C23_5 C22_5 1_555 1_555
C24_5 C19_5 1_555 1_555
H20_5 C24_5 1_555 1_555
H22_5 C25_5 1_555 1_555
C26_5 C7_5 1_555 1_555
H24_5 C26_5 1_555 1_555
H25_5 C26_5 1_555 1_555
H26_5 C26_5 1_555 1_555
C27_5 C19_5 1_555 1_555
C28_5 C22_5 1_555 1_555
C29_5 C28_5 1_555 1_555
C30_5 C29_5 1_555 1_555
H27_5 C30_5 1_555 1_555
C31_5 C15_5 1_555 1_555
C32_5 C31_5 1_555 1_555
H28_5 C32_5 1_555 1_555
C33_5 C28_5 1_555 1_555
H29_5 C33_5 1_555 1_555
N9_5 C29_5 1_555 1_555
H33_5 N9_5 1_555 1_555
H34_5 N9_5 1_555 1_555
O4_5 C27_5 1_555 1_555
N10_5 C23_5 1_555 1_555
H35_5 N10_5 1_555 1_555
H36_5 N10_5 1_555 1_555
N62_2 N23_3 1_555 1_555
N23_3 Zn8 1_555 1_555
N25_3 Zn3_2 1_555 1_555
C69_3 C71_3 1_555 1_555
C71_3 C74_3 1_555 1_555
C73_3 N23_3 1_555 1_555
C74_3 N25_3 1_555 1_555
C75_3 N62_2 1_555 1_555
N28_3 N25_3 1_555 1_555
H72_3 N28_3 1_555 1_555
C84_3 C73_3 1_555 1_555
H82_3 C84_3 1_555 1_555
H83_3 C84_3 1_555 1_555
C85_3 C71_3 1_555 1_555
C93_3 C74_3 1_555 1_555
H91_3 C93_3 1_555 1_555
H92_3 C93_3 1_555 1_555
H93_3 C93_3 1_555 1_555
C94_3 C75_3 1_555 1_555
H94_3 C94_3 1_555 1_555
H95_3 C94_3 1_555 1_555
H96_3 C94_3 1_555 1_555
C102_3 C85_3 1_555 1_555
H100_3 C102_3 1_555 1_555
H101_3 C102_3 1_555 1_555
H102_3 C102_3 1_555 1_555
Zn9_2 N36_2 1_555 1_555
Zn10_2 O14_2 1_555 1_555
O14_2 C129_2 1_555 1_555
N63 N33_2 1_555 1_555
N32_2 Zn3_2 1_555 1_555
N33_2 Zn10_2 1_555 1_555
N34_2 N36_2 1_555 1_555
N35_2 C108_2 1_555 1_555
N36_2 C113_2 1_555 1_555
N77_4 N32_2 1_555 1_555
C103_2 C105_2 1_555 1_555
C104_2 N32_2 1_555 1_555
C105_2 C108_2 1_555 1_555
C106_2 C104_2 1_555 1_555
C107_2 N33_2 1_555 1_555
C109_2 N63 1_555 1_555
N38_2 N35_2 1_555 1_555
H107_2 N38_2 1_555 1_555
C110_2 C106_2 1_555 1_555
C111_2 N34_2 1_555 1_555
C112_2 N77_4 1_555 1_555
O15_2 Zn9_2 1_555 1_555
C113_2 C110_2 1_555 1_555
C114_2 C104_2 1_555 1_555
H108_2 C114_2 1_555 1_555
H109_2 C114_2 1_555 1_555
H110_2 C114_2 1_555 1_555
C115_2 C111_2 1_555 1_555
H111_2 C115_2 1_555 1_555
H112_2 C115_2 1_555 1_555
H113_2 C115_2 1_555 1_555
C116_2 C112_2 1_555 1_555
H114_2 C116_2 1_555 1_555
H115_2 C116_2 1_555 1_555
H116_2 C116_2 1_555 1_555
C117_2 O15_2 1_555 1_555
C118_2 C107_2 1_555 1_555
H117_2 C118_2 1_555 1_555
H118_2 C118_2 1_555 1_555
H119_2 C118_2 1_555 1_555
C119_2 C105_2 1_555 1_555
C120_2 C113_2 1_555 1_555
H120_2 C120_2 1_555 1_555
H121_2 C120_2 1_555 1_555
H122_2 C120_2 1_555 1_555
C121_2 C122_2 1_555 1_555
C122_2 H123_2 1_555 1_555
C123_2 C122_2 1_555 1_555
H124_2 C123_2 1_555 1_555
C124_2 C123_2 1_555 1_555
C125_2 C124_2 1_555 1_555
C126_2 C121_2 1_555 1_555
H125_2 C126_2 1_555 1_555
C128_2 C109_2 1_555 1_555
H129_2 C128_2 1_555 1_555
H130_2 C128_2 1_555 1_555
H131_2 C128_2 1_555 1_555
C129_2 C121_2 1_555 1_555
C130_2 C124_2 1_555 1_555
C131_2 C130_2 1_555 1_555
C132_2 C131_2 1_555 1_555
H132_2 C132_2 1_555 1_555
C133_2 C117_2 1_555 1_555
C134_2 C133_2 1_555 1_555
H133_2 C134_2 1_555 1_555
C135_2 C130_2 1_555 1_555
H134_2 C135_2 1_555 1_555
C136_2 C119_2 1_555 1_555
H135_2 C136_2 1_555 1_555
H136_2 C136_2 1_555 1_555
H137_2 C136_2 1_555 1_555
N39_2 C131_2 1_555 1_555
H138_2 N39_2 1_555 1_555
H139_2 N39_2 1_555 1_555
O16_2 C129_2 1_555 1_555
N40_2 C125_2 1_555 1_555
H140_2 N40_2 1_555 1_555
H141_2 N40_2 1_555 1_555
O17_2 Zn9_2 1_555 1_555
Zn13_2 N56_3 1_555 1_555
N52_2 Zn10_2 1_555 1_555
N54_2 N56_3 1_555 1_555
N56_3 C181_3 1_555 1_555
N77 N52_2 1_555 1_555
C172_3 N52_2 1_555 1_555
C174_3 C172_3 1_555 1_555
C178_3 C174_3 1_555 1_555
C179_3 N54_2 1_555 1_555
C180_3 N77 1_555 1_555
O23_3 Zn13_2 1_555 1_555
C181_3 C178_3 1_555 1_555
C182_3 C172_3 1_555 1_555
H178_3 C182_3 1_555 1_555
H179_3 C182_3 1_555 1_555
H180_3 C182_3 1_555 1_555
C183_3 C179_3 1_555 1_555
H181_3 C183_3 1_555 1_555
H182_3 C183_3 1_555 1_555
C184_3 C180_3 1_555 1_555
H184_3 C184_3 1_555 1_555
H185_3 C184_3 1_555 1_555
H186_3 C184_3 1_555 1_555
C185_3 O23_3 1_555 1_555
C188_3 C181_3 1_555 1_555
H190_3 C188_3 1_555 1_555
H191_3 C188_3 1_555 1_555
H192_3 C188_3 1_555 1_555
C189_3 C190_3 1_555 1_555
C191_3 C190_3 1_555 1_555
C192_3 C191_3 1_555 1_555
C193_3 C192_3 1_555 1_555
C194_3 C189_3 1_555 1_555
H195_3 C194_3 1_555 1_555
C197_3 O22_3 1_555 1_555
C198_3 C192_3 1_555 1_555
C199_3 C198_3 1_555 1_555
C200_3 C199_3 1_555 1_555
H202_3 C200_3 1_555 1_555
C201_3 C185_3 1_555 1_555
C202_3 C201_3 1_555 1_555
H203_3 C202_3 1_555 1_555
C203_3 C198_3 1_555 1_555
H204_3 C203_3 1_555 1_555
N59_3 C199_3 1_555 1_555
H208_3 N59_3 1_555 1_555
H209_3 N59_3 1_555 1_555
O24_3 C197_3 1_555 1_555
N60_3 C193_3 1_555 1_555
H210_3 N60_3 1_555 1_555
H211_3 N60_3 1_555 1_555
O25_3 Zn13_2 1_555 1_555
Zn22_2 N34_2 1_555 1_555
Zn24_2 N54_2 1_555 1_555
O27_2 Zn9_2 1_555 1_555
O28_2 Zn13_2 1_555 1_555
N66 Zn8 1_555 1_555
N68_3 Zn13_2 1_555 1_555
N70_2 Zn9_2 1_555 1_555
N74_2 Zn10_2 1_555 1_555
C1_5 C5_5 1_555 1_555
C1_5 C7_5 1_555 1_555
C15_5 O5_5 1_555 1_555
C23_5 C24_5 1_555 1_555
C30_5 C31_5 1_555 1_555
C32_5 C33_5 1_555 1_555
C69_3 C73_3 1_555 1_555
C69_3 C75_3 1_555 1_555
N28_3 C85_3 1_555 1_555
C103_2 C107_2 1_555 1_555
C103_2 C109_2 1_555 1_555
C106_2 C112_2 1_555 1_555
N38_2 C119_2 1_555 1_555
C110_2 C111_2 1_555 1_555
C117_2 O17_2 1_555 1_555
C125_2 C126_2 1_555 1_555
C132_2 C133_2 1_555 1_555
C134_2 C135_2 1_555 1_555
C174_3 C180_3 1_555 1_555
C178_3 C179_3 1_555 1_555
C185_3 O25_3 1_555 1_555
C189_3 C197_3 1_555 1_555
C193_3 C194_3 1_555 1_555
C200_3 C201_3 1_555 1_555
C202_3 C203_3 1_555 1_555
Zn22_2 O27_2 1_555 1_555
Zn24_2 O28_2 1_555 1_555
O4_5 H213_5 1_555 1_555
O16_2 H214_9 1_555 1_555
Zn2_2 O1_2 1_555 1_555
O1_2 H1_3 1_555 1_555
N2_3 N76 1_555 1_555
N4_3 N6_5 1_555 1_555
N6_5 Zn2_2 1_555 1_555
N76 C10_5 1_555 1_555
C2_5 N2_3 1_555 1_555
C4_5 C2_5 1_555 1_555
C8_5 C4_5 1_555 1_555
C9_5 N4_3 1_555 1_555
C10_5 C4_5 1_555 1_555
C11_5 N6_5 1_555 1_555
C13_5 C9_5 1_555 1_555
H6_5 C13_5 1_555 1_555
H7_5 C13_5 1_555 1_555
C14_5 C10_5 1_555 1_555
H9_5 C14_5 1_555 1_555
H10_5 C14_5 1_555 1_555
H11_5 C14_5 1_555 1_555
C18_5 C11_5 1_555 1_555
H16_5 C18_5 1_555 1_555
H17_5 C18_5 1_555 1_555
Zn5_2 O1_2 1_555 1_555
O6_2 C61_2 1_555 1_555
N12_2 N77_3 1_555 1_555
N14_2 Zn2_2 1_555 1_555
N16_2 Zn5_2 1_555 1_555
N77_3 C44_2 1_555 1_555
C36_2 N12_2 1_555 1_555
C38_2 C36_2 1_555 1_555
C42_2 C38_2 1_555 1_555
C43_2 N14_2 1_555 1_555
C44_2 C38_2 1_555 1_555
O7_2 Zn5_2 1_555 1_555
C45_2 N16_2 1_555 1_555
C46_2 C36_2 1_555 1_555
H38_2 C46_2 1_555 1_555
H39_2 C46_2 1_555 1_555
H40_2 C46_2 1_555 1_555
C47_2 C43_2 1_555 1_555
H41_2 C47_2 1_555 1_555
H42_2 C47_2 1_555 1_555
C48_2 C44_2 1_555 1_555
H44_2 C48_2 1_555 1_555
H45_2 C48_2 1_555 1_555
H46_2 C48_2 1_555 1_555
C49_2 O7_2 1_555 1_555
C52_2 C45_2 1_555 1_555
H50_2 C52_2 1_555 1_555
H51_2 C52_2 1_555 1_555
H52_2 C52_2 1_555 1_555
C53_2 C54_2 1_555 1_555
C55_2 C54_2 1_555 1_555
C56_2 C55_2 1_555 1_555
C57_2 C56_2 1_555 1_555
C58_2 C53_2 1_555 1_555
H55_2 C58_2 1_555 1_555
C61_2 C53_2 1_555 1_555
C62_2 C56_2 1_555 1_555
C63_2 C62_2 1_555 1_555
C64_2 C63_2 1_555 1_555
H62_2 C64_2 1_555 1_555
C65_2 C49_2 1_555 1_555
C66_2 C65_2 1_555 1_555
H63_2 C66_2 1_555 1_555
C67_2 C62_2 1_555 1_555
H64_2 C67_2 1_555 1_555
N19_2 C63_2 1_555 1_555
H68_2 N19_2 1_555 1_555
H69_2 N19_2 1_555 1_555
O8_2 C61_2 1_555 1_555
N20_2 C57_2 1_555 1_555
H70_2 N20_2 1_555 1_555
H71_2 N20_2 1_555 1_555
O9_2 Zn5_2 1_555 1_555
Zn11_3 O1_2 1_555 1_555
N66 N78_2 1_555 1_555
N44_2 Zn5_2 1_555 1_555
N46_3 Zn11_3 1_555 1_555
N78_2 C146_3 1_555 1_555
C138_3 N66 1_555 1_555
C140_3 C138_3 1_555 1_555
C144_3 C140_3 1_555 1_555
C145_3 N44_2 1_555 1_555
C146_3 C140_3 1_555 1_555
C147_3 N46_3 1_555 1_555
C149_3 C145_3 1_555 1_555
H146_3 C149_3 1_555 1_555
H147_3 C149_3 1_555 1_555
H148_3 C149_3 1_555 1_555
C150_3 C146_3 1_555 1_555
H149_3 C150_3 1_555 1_555
H150_3 C150_3 1_555 1_555
H151_3 C150_3 1_555 1_555
C154_3 C147_3 1_555 1_555
H156_3 C154_3 1_555 1_555
H157_3 C154_3 1_555 1_555
Zn14_3 N2_3 1_555 1_555
N53_3 Zn14_3 1_555 1_555
C175_3 N53_3 1_555 1_555
C177_3 N64 1_555 1_555
C186_3 C175_3 1_555 1_555
H187_3 C186_3 1_555 1_555
H188_3 C186_3 1_555 1_555
C196_3 C177_3 1_555 1_555
H199_3 C196_3 1_555 1_555
H200_3 C196_3 1_555 1_555
H201_3 C196_3 1_555 1_555
Zn26_2 N12_2 1_555 1_555
N4_3 Zn11_3 1_555 1_555
C8_5 C9_5 1_555 1_555
C8_5 C11_5 1_555 1_555
N14_2 N16_2 1_555 1_555
C42_2 C43_2 1_555 1_555
C42_2 C45_2 1_555 1_555
C49_2 O9_2 1_555 1_555
C57_2 C58_2 1_555 1_555
C64_2 C65_2 1_555 1_555
C66_2 C67_2 1_555 1_555
N44_2 N46_3 1_555 1_555
C144_3 C145_3 1_555 1_555
C144_3 C147_3 1_555 1_555
N64 N53_3 1_555 1_555
C171_3 C175_3 1_555 1_555
C171_3 C177_3 1_555 1_555
Zn7_2 N26_3 1_555 1_555
N22_3 N78_4 1_555 1_555
N24_3 N26_3 1_555 1_555
N26_3 C79_3 1_555 1_555
N78_4 C78_3 1_555 1_555
C70_3 N22_3 1_555 1_555
C72_3 C70_3 1_555 1_555
C76_3 C72_3 1_555 1_555
C77_3 N24_3 1_555 1_555
C78_3 C72_3 1_555 1_555
C79_3 C76_3 1_555 1_555
C81_3 C77_3 1_555 1_555
H76_3 C81_3 1_555 1_555
H77_3 C81_3 1_555 1_555
H78_3 C81_3 1_555 1_555
C82_3 C78_3 1_555 1_555
H79_3 C82_3 1_555 1_555
H80_3 C82_3 1_555 1_555
H81_3 C82_3 1_555 1_555
C86_3 C79_3 1_555 1_555
H86_3 C86_3 1_555 1_555
H87_3 C86_3 1_555 1_555
O26_2 Zn7_2 1_555 1_555
H212_3 O26_2 1_555 1_555
Zn23_3 N24_3 1_555 1_555
Zn25_2 O26_2 1_555 1_555
Zn28_2 N22_3 1_555 1_555
N69_2 Zn7_2 1_555 1_555
C76_3 C77_3 1_555 1_555
O26_2 Zn23_3 1_555 1_555
N5_2 C6_5 1_555 1_555
C3_5 C6_5 1_555 1_555
N8_5 N5_2 1_555 1_555
H2_5 N8_5 1_555 1_555
C17_5 C3_5 1_555 1_555
C34_5 C17_5 1_555 1_555
H30_5 C34_5 1_555 1_555
H31_5 C34_5 1_555 1_555
H32_5 C34_5 1_555 1_555
N15_2 C40_2 1_555 1_555
C37_2 C40_2 1_555 1_555
N18_2 N15_2 1_555 1_555
H37_2 N18_2 1_555 1_555
C51_2 C37_2 1_555 1_555
C68_2 C51_2 1_555 1_555
H65_2 C68_2 1_555 1_555
H66_2 C68_2 1_555 1_555
H67_2 C68_2 1_555 1_555
O10_3 C95_3 1_555 1_555
H73_3 C80_3 1_555 1_555
H74_3 C80_3 1_555 1_555
H75_3 C80_3 1_555 1_555
C83_3 O11_3 1_555 1_555
C87_3 C88_3 1_555 1_555
C89_3 C88_3 1_555 1_555
C90_3 C89_3 1_555 1_555
C91_3 C90_3 1_555 1_555
C92_3 C87_3 1_555 1_555
H90_3 C92_3 1_555 1_555
C95_3 C87_3 1_555 1_555
C96_3 C90_3 1_555 1_555
C97_3 C96_3 1_555 1_555
C98_3 C97_3 1_555 1_555
H97_3 C98_3 1_555 1_555
C99_3 C83_3 1_555 1_555
C100_3 C99_3 1_555 1_555
H98_3 C100_3 1_555 1_555
C101_3 C96_3 1_555 1_555
H99_3 C101_3 1_555 1_555
N29_3 C97_3 1_555 1_555
H103_3 N29_3 1_555 1_555
H104_3 N29_3 1_555 1_555
O12_3 C95_3 1_555 1_555
N30_3 C91_3 1_555 1_555
H105_3 N30_3 1_555 1_555
H106_3 N30_3 1_555 1_555
N64_4 N43_3 1_555 1_555
N43_3 Zn12_2 1_555 1_555
N45_2 C142_3 1_555 1_555
C137_3 C139_3 1_555 1_555
C139_3 C142_3 1_555 1_555
C141_3 N43_3 1_555 1_555
C142_3 C161_3 1_555 1_555
C143_3 N64_4 1_555 1_555
N48_3 N45_2 1_555 1_555
H142_3 N48_3 1_555 1_555
C152_3 C141_3 1_555 1_555
H152_3 C152_3 1_555 1_555
H153_3 C152_3 1_555 1_555
C153_3 C139_3 1_555 1_555
C161_3 H161_3 1_555 1_555
H162_3 C161_3 1_555 1_555
H163_3 C161_3 1_555 1_555
C162_3 C143_3 1_555 1_555
H164_3 C162_3 1_555 1_555
H165_3 C162_3 1_555 1_555
H166_3 C162_3 1_555 1_555
C170_3 C153_3 1_555 1_555
H170_3 C170_3 1_555 1_555
H171_3 C170_3 1_555 1_555
H172_3 C170_3 1_555 1_555
Zn32_2 N45_2 1_555 1_555
Zn33_2 N5_2 1_555 1_555
N65_3 Zn12_2 1_555 1_555
N8_5 C17_5 1_555 1_555
N18_2 C51_2 1_555 1_555
C83_3 O13_3 1_555 1_555
C91_3 C92_3 1_555 1_555
C98_3 C99_3 1_555 1_555
C100_3 C101_3 1_555 1_555
C137_3 C141_3 1_555 1_555
C137_3 C143_3 1_555 1_555
N48_3 C153_3 1_555 1_555
N62 N13_2 1_555 1_555
N13_2 Zn30_2 1_555 1_555
C39_2 N13_2 1_555 1_555
C41_2 N62 1_555 1_555
C50_2 C39_2 1_555 1_555
H47_2 C50_2 1_555 1_555
H48_2 C50_2 1_555 1_555
C60_2 C41_2 1_555 1_555
H59_2 C60_2 1_555 1_555
H60_2 C60_2 1_555 1_555
H61_2 C60_2 1_555 1_555
O18_3 C163_3 1_555 1_555
H143_3 C148_3 1_555 1_555
H144_3 C148_3 1_555 1_555
H145_3 C148_3 1_555 1_555
C151_3 O19_3 1_555 1_555
C155_3 C156_3 1_555 1_555
C157_3 C156_3 1_555 1_555
C158_3 C157_3 1_555 1_555
C159_3 C158_3 1_555 1_555
C160_3 C155_3 1_555 1_555
H160_3 C160_3 1_555 1_555
C163_3 C155_3 1_555 1_555
C164_3 C158_3 1_555 1_555
C165_3 C164_3 1_555 1_555
C166_3 C165_3 1_555 1_555
H167_3 C166_3 1_555 1_555
C167_3 C151_3 1_555 1_555
C168_3 C167_3 1_555 1_555
H168_3 C168_3 1_555 1_555
C169_3 C164_3 1_555 1_555
H169_3 C169_3 1_555 1_555
N49_3 C165_3 1_555 1_555
H173_3 N49_3 1_555 1_555
H174_3 N49_3 1_555 1_555
O20_3 C163_3 1_555 1_555
N50_3 C159_3 1_555 1_555
H175_3 N50_3 1_555 1_555
H176_3 N50_3 1_555 1_555
N67_2 Zn30_2 1_555 1_555
C35_2 C39_2 1_555 1_555
C35_2 C41_2 1_555 1_555
C151_3 O21_3 1_555 1_555
C159_3 C160_3 1_555 1_555
C166_3 C167_3 1_555 1_555
C168_3 C169_3 1_555 1_555
C161_4 H161_4 1_555 1_555
H163_4 C161_4 1_555 1_555
C25_6 H21_6 1_555 1_555
H23_6 C25_6 1_555 1_555
Zn32_2 O10_4 1_555 1_555
O10_4 C95_4 1_555 1_555
N63_2 N23_4 1_555 1_555
N23_4 Zn32_2 1_555 1_555
C73_4 N23_4 1_555 1_555
C75_4 N63_2 1_555 1_555
H73_4 C80_4 1_555 1_555
H74_4 C80_4 1_555 1_555
H75_4 C80_4 1_555 1_555
C83_4 O11_4 1_555 1_555
C84_4 C73_4 1_555 1_555
H82_4 C84_4 1_555 1_555
H83_4 C84_4 1_555 1_555
H84_4 C84_4 1_555 1_555
C87_4 C88_4 1_555 1_555
C88_4 H88_4 1_555 1_555
C89_4 C88_4 1_555 1_555
H89_4 C89_4 1_555 1_555
C90_4 C89_4 1_555 1_555
C91_4 C90_4 1_555 1_555
C92_4 C87_4 1_555 1_555
H90_4 C92_4 1_555 1_555
H92_4 C93_4 1_555 1_555
C94_4 C75_4 1_555 1_555
H94_4 C94_4 1_555 1_555
H95_4 C94_4 1_555 1_555
H96_4 C94_4 1_555 1_555
C95_4 C87_4 1_555 1_555
C96_4 C90_4 1_555 1_555
C97_4 C96_4 1_555 1_555
C98_4 C97_4 1_555 1_555
H97_4 C98_4 1_555 1_555
C99_4 C83_4 1_555 1_555
C100_4 C99_4 1_555 1_555
H98_4 C100_4 1_555 1_555
C101_4 C96_4 1_555 1_555
H99_4 C101_4 1_555 1_555
N29_4 C97_4 1_555 1_555
H103_4 N29_4 1_555 1_555
H104_4 N29_4 1_555 1_555
O12_4 C95_4 1_555 1_555
N30_4 C91_4 1_555 1_555
H105_4 N30_4 1_555 1_555
H106_4 N30_4 1_555 1_555
N66_2 Zn32_2 1_555 1_555
C69_4 C73_4 1_555 1_555
C69_4 C75_4 1_555 1_555
C83_4 O13_4 1_555 1_555
C91_4 C92_4 1_555 1_555
C98_4 C99_4 1_555 1_555
C100_4 C101_4 1_555 1_555
Zn26_2 O2_6 1_555 1_555
O27_2 H1_4 1_555 1_555
O2_6 C27_6 1_555 1_555
N63_3 N3_6 1_555 1_555
N2_4 N76_2 1_555 1_555
N3_6 Zn26_2 1_555 1_555
N4_4 N6_6 1_555 1_555
N71_2 C6_6 1_555 1_555
N6_6 Zn22_2 1_555 1_555
N76_2 C10_6 1_555 1_555
C1_6 C3_6 1_555 1_555
C2_6 N2_4 1_555 1_555
C3_6 C6_6 1_555 1_555
C4_6 C2_6 1_555 1_555
C5_6 N3_6 1_555 1_555
C7_6 N63_3 1_555 1_555
N8_6 N71_2 1_555 1_555
H2_6 N8_6 1_555 1_555
C8_6 C4_6 1_555 1_555
C9_6 N4_4 1_555 1_555
C10_6 C4_6 1_555 1_555
O3_6 Zn22_2 1_555 1_555
C11_6 N6_6 1_555 1_555
C12_6 C2_6 1_555 1_555
H3_6 C12_6 1_555 1_555
H4_6 C12_6 1_555 1_555
H5_6 C12_6 1_555 1_555
C13_6 C9_6 1_555 1_555
H6_6 C13_6 1_555 1_555
H7_6 C13_6 1_555 1_555
H8_6 C13_6 1_555 1_555
C14_6 C10_6 1_555 1_555
H9_6 C14_6 1_555 1_555
H10_6 C14_6 1_555 1_555
H11_6 C14_6 1_555 1_555
C15_6 O3_6 1_555 1_555
C16_6 C5_6 1_555 1_555
H12_6 C16_6 1_555 1_555
H13_6 C16_6 1_555 1_555
H14_6 C16_6 1_555 1_555
C17_6 C3_6 1_555 1_555
C18_6 C11_6 1_555 1_555
H15_6 C18_6 1_555 1_555
H16_6 C18_6 1_555 1_555
H17_6 C18_6 1_555 1_555
C19_6 C20_6 1_555 1_555
C20_6 H18_6 1_555 1_555
C21_6 C20_6 1_555 1_555
H19_6 C21_6 1_555 1_555
C22_6 C21_6 1_555 1_555
C23_6 C22_6 1_555 1_555
C24_6 C19_6 1_555 1_555
H20_6 C24_6 1_555 1_555
C26_6 C7_6 1_555 1_555
H24_6 C26_6 1_555 1_555
H25_6 C26_6 1_555 1_555
H26_6 C26_6 1_555 1_555
C27_6 C19_6 1_555 1_555
C28_6 C22_6 1_555 1_555
C29_6 C28_6 1_555 1_555
C30_6 C29_6 1_555 1_555
H27_6 C30_6 1_555 1_555
C31_6 C15_6 1_555 1_555
C32_6 C31_6 1_555 1_555
H28_6 C32_6 1_555 1_555
C33_6 C28_6 1_555 1_555
H29_6 C33_6 1_555 1_555
C34_6 C17_6 1_555 1_555
H30_6 C34_6 1_555 1_555
H31_6 C34_6 1_555 1_555
H32_6 C34_6 1_555 1_555
N9_6 C29_6 1_555 1_555
H33_6 N9_6 1_555 1_555
H34_6 N9_6 1_555 1_555
O4_6 C27_6 1_555 1_555
N10_6 C23_6 1_555 1_555
H35_6 N10_6 1_555 1_555
H36_6 N10_6 1_555 1_555
O5_6 Zn22_2 1_555 1_555
N25_4 Zn26_2 1_555 1_555
C71_4 C74_4 1_555 1_555
C74_4 N25_4 1_555 1_555
N28_4 N25_4 1_555 1_555
H72_4 N28_4 1_555 1_555
C85_4 C71_4 1_555 1_555
C102_4 C85_4 1_555 1_555
H100_4 C102_4 1_555 1_555
H101_4 C102_4 1_555 1_555
H102_4 C102_4 1_555 1_555
Zn11_4 O27_2 1_555 1_555
Zn33_2 O18_4 1_555 1_555
O18_4 C163_4 1_555 1_555
N64_3 N43_4 1_555 1_555
N66_2 N77_2 1_555 1_555
N43_4 Zn33_2 1_555 1_555
N75_2 C142_4 1_555 1_555
N46_4 Zn11_4 1_555 1_555
N77_2 C146_4 1_555 1_555
C137_4 C139_4 1_555 1_555
C138_4 N66_2 1_555 1_555
C139_4 C142_4 1_555 1_555
C140_4 C138_4 1_555 1_555
C141_4 N43_4 1_555 1_555
C143_4 N64_3 1_555 1_555
N48_4 N75_2 1_555 1_555
H142_4 N48_4 1_555 1_555
C144_4 C140_4 1_555 1_555
C145_4 N70_2 1_555 1_555
C146_4 C140_4 1_555 1_555
O19_4 Zn11_4 1_555 1_555
C147_4 N46_4 1_555 1_555
C148_4 C138_4 1_555 1_555
H143_4 C148_4 1_555 1_555
H144_4 C148_4 1_555 1_555
H145_4 C148_4 1_555 1_555
C149_4 C145_4 1_555 1_555
H146_4 C149_4 1_555 1_555
H147_4 C149_4 1_555 1_555
H148_4 C149_4 1_555 1_555
C150_4 C146_4 1_555 1_555
H149_4 C150_4 1_555 1_555
H150_4 C150_4 1_555 1_555
H151_4 C150_4 1_555 1_555
C151_4 O19_4 1_555 1_555
C152_4 C141_4 1_555 1_555
H152_4 C152_4 1_555 1_555
H153_4 C152_4 1_555 1_555
H154_4 C152_4 1_555 1_555
C153_4 C139_4 1_555 1_555
C154_4 C147_4 1_555 1_555
H155_4 C154_4 1_555 1_555
H156_4 C154_4 1_555 1_555
H157_4 C154_4 1_555 1_555
C155_4 C156_4 1_555 1_555
C156_4 H158_4 1_555 1_555
C157_4 C156_4 1_555 1_555
H159_4 C157_4 1_555 1_555
C158_4 C157_4 1_555 1_555
C159_4 C158_4 1_555 1_555
C160_4 C155_4 1_555 1_555
H160_4 C160_4 1_555 1_555
C162_4 C143_4 1_555 1_555
H164_4 C162_4 1_555 1_555
H165_4 C162_4 1_555 1_555
H166_4 C162_4 1_555 1_555
C163_4 C155_4 1_555 1_555
C164_4 C158_4 1_555 1_555
C165_4 C164_4 1_555 1_555
C166_4 C165_4 1_555 1_555
H167_4 C166_4 1_555 1_555
C167_4 C151_4 1_555 1_555
C168_4 C167_4 1_555 1_555
H168_4 C168_4 1_555 1_555
C169_4 C164_4 1_555 1_555
H169_4 C169_4 1_555 1_555
C170_4 C153_4 1_555 1_555
H170_4 C170_4 1_555 1_555
H171_4 C170_4 1_555 1_555
H172_4 C170_4 1_555 1_555
N49_4 C165_4 1_555 1_555
H173_4 N49_4 1_555 1_555
H174_4 N49_4 1_555 1_555
O20_4 C163_4 1_555 1_555
N50_4 C159_4 1_555 1_555
H175_4 N50_4 1_555 1_555
H176_4 N50_4 1_555 1_555
O21_4 Zn11_4 1_555 1_555
Zn14_4 N2_4 1_555 1_555
O22_4 Zn14_4 1_555 1_555
N53_4 Zn14_4 1_555 1_555
C175_4 N53_4 1_555 1_555
C177_4 N64_2 1_555 1_555
H178_4 C182_4 1_555 1_555
H179_4 C182_4 1_555 1_555
H180_4 C182_4 1_555 1_555
C185_4 O23_4 1_555 1_555
C186_4 C175_4 1_555 1_555
H187_4 C186_4 1_555 1_555
H188_4 C186_4 1_555 1_555
H189_4 C186_4 1_555 1_555
C189_4 C190_4 1_555 1_555
C190_4 H193_4 1_555 1_555
C191_4 C190_4 1_555 1_555
H194_4 C191_4 1_555 1_555
C192_4 C191_4 1_555 1_555
C193_4 C192_4 1_555 1_555
C194_4 C189_4 1_555 1_555
H195_4 C194_4 1_555 1_555
H197_4 C195_4 1_555 1_555
C196_4 C177_4 1_555 1_555
H199_4 C196_4 1_555 1_555
H200_4 C196_4 1_555 1_555
H201_4 C196_4 1_555 1_555
C197_4 O22_4 1_555 1_555
C198_4 C192_4 1_555 1_555
C199_4 C198_4 1_555 1_555
C200_4 C199_4 1_555 1_555
H202_4 C200_4 1_555 1_555
C201_4 C185_4 1_555 1_555
C202_4 C201_4 1_555 1_555
H203_4 C202_4 1_555 1_555
C203_4 C198_4 1_555 1_555
H204_4 C203_4 1_555 1_555
N59_4 C199_4 1_555 1_555
H208_4 N59_4 1_555 1_555
H209_4 N59_4 1_555 1_555
O24_4 C197_4 1_555 1_555
N60_4 C193_4 1_555 1_555
H210_4 N60_4 1_555 1_555
H211_4 N60_4 1_555 1_555
N65_4 Zn33_2 1_555 1_555
N72_4 Zn14_4 1_555 1_555
N4_4 Zn11_4 1_555 1_555
C1_6 C5_6 1_555 1_555
C1_6 C7_6 1_555 1_555
N8_6 C17_6 1_555 1_555
C8_6 C9_6 1_555 1_555
C8_6 C11_6 1_555 1_555
C15_6 O5_6 1_555 1_555
C23_6 C24_6 1_555 1_555
C30_6 C31_6 1_555 1_555
C32_6 C33_6 1_555 1_555
N28_4 C85_4 1_555 1_555
N70_2 N46_4 1_555 1_555
C137_4 C141_4 1_555 1_555
C137_4 C143_4 1_555 1_555
N48_4 C153_4 1_555 1_555
C144_4 C145_4 1_555 1_555
C144_4 C147_4 1_555 1_555
C151_4 O21_4 1_555 1_555
C159_4 C160_4 1_555 1_555
C166_4 C167_4 1_555 1_555
C168_4 C169_4 1_555 1_555
N64_2 N53_4 1_555 1_555
C171_4 C175_4 1_555 1_555
C171_4 C177_4 1_555 1_555
C185_4 O25_4 1_555 1_555
C189_4 C197_4 1_555 1_555
C193_4 C194_4 1_555 1_555
C200_4 C201_4 1_555 1_555
C202_4 C203_4 1_555 1_555
O4_6 H213_6 1_555 1_555
O8_2 H214_10 1_555 1_555
Zn24_2 N26_4 1_555 1_555
N22_4 N78_3 1_555 1_555
N24_4 N26_4 1_555 1_555
N26_4 C79_4 1_555 1_555
N78_3 C78_4 1_555 1_555
C70_4 N22_4 1_555 1_555
C72_4 C70_4 1_555 1_555
C76_4 C72_4 1_555 1_555
C77_4 N24_4 1_555 1_555
C78_4 C72_4 1_555 1_555
C79_4 C76_4 1_555 1_555
C81_4 C77_4 1_555 1_555
H76_4 C81_4 1_555 1_555
H77_4 C81_4 1_555 1_555
C82_4 C78_4 1_555 1_555
H79_4 C82_4 1_555 1_555
H80_4 C82_4 1_555 1_555
H81_4 C82_4 1_555 1_555
C86_4 C79_4 1_555 1_555
H86_4 C86_4 1_555 1_555
H87_4 C86_4 1_555 1_555
H212_4 O28_2 1_555 1_555
Zn23_4 N24_4 1_555 1_555
Zn29_2 N22_4 1_555 1_555
C76_4 C77_4 1_555 1_555
O28_2 Zn23_4 1_555 1_555
N74_2 C176_4 1_555 1_555
C173_4 C176_4 1_555 1_555
N58_4 N74_2 1_555 1_555
H177_4 N58_4 1_555 1_555
C187_4 C173_4 1_555 1_555
C204_4 C187_4 1_555 1_555
H205_4 C204_4 1_555 1_555
H206_4 C204_4 1_555 1_555
H207_4 C204_4 1_555 1_555
N58_4 C187_4 1_555 1_555
Zn25_2 N56_4 1_555 1_555
N69_2 N56_4 1_555 1_555
N56_4 C181_4 1_555 1_555
N78 N67_2 1_555 1_555
C172_4 N67_2 1_555 1_555
C174_4 C172_4 1_555 1_555
C178_4 C174_4 1_555 1_555
C179_4 N69_2 1_555 1_555
C180_4 N78 1_555 1_555
C181_4 C178_4 1_555 1_555
C183_4 C179_4 1_555 1_555
H181_4 C183_4 1_555 1_555
H182_4 C183_4 1_555 1_555
C184_4 C180_4 1_555 1_555
H184_4 C184_4 1_555 1_555
H185_4 C184_4 1_555 1_555
H186_4 C184_4 1_555 1_555
C188_4 C181_4 1_555 1_555
H191_4 C188_4 1_555 1_555
H192_4 C188_4 1_555 1_555
N68_4 Zn25_2 1_555 1_555
C174_4 C180_4 1_555 1_555
C178_4 C179_4 1_555 1_555
N62_4 N3_7 1_555 1_555
N3_7 Zn28_2 1_555 1_555
N72_4 C6_7 1_555 1_555
C1_7 C3_7 1_555 1_555
C3_7 C6_7 1_555 1_555
C5_7 N3_7 1_555 1_555
C6_7 C25_7 1_555 1_555
C7_7 N62_4 1_555 1_555
N8_7 N72_4 1_555 1_555
H2_7 N8_7 1_555 1_555
C16_7 C5_7 1_555 1_555
H12_7 C16_7 1_555 1_555
H13_7 C16_7 1_555 1_555
C17_7 C3_7 1_555 1_555
C25_7 H21_7 1_555 1_555
H22_7 C25_7 1_555 1_555
H23_7 C25_7 1_555 1_555
C26_7 C7_7 1_555 1_555
H24_7 C26_7 1_555 1_555
H25_7 C26_7 1_555 1_555
H26_7 C26_7 1_555 1_555
C34_7 C17_7 1_555 1_555
H30_7 C34_7 1_555 1_555
H31_7 C34_7 1_555 1_555
H32_7 C34_7 1_555 1_555
C1_7 C5_7 1_555 1_555
C1_7 C7_7 1_555 1_555
N8_7 C17_7 1_555 1_555
N65_3 N76_4 1_555 1_555
N68_3 N6_7 1_555 1_555
N6_7 Zn23_4 1_555 1_555
N76_4 C10_7 1_555 1_555
C2_7 N65_3 1_555 1_555
C4_7 C2_7 1_555 1_555
C8_7 C4_7 1_555 1_555
C9_7 N68_3 1_555 1_555
C10_7 C4_7 1_555 1_555
C11_7 N6_7 1_555 1_555
C13_7 C9_7 1_555 1_555
H6_7 C13_7 1_555 1_555
H7_7 C13_7 1_555 1_555
H8_7 C13_7 1_555 1_555
C14_7 C10_7 1_555 1_555
H9_7 C14_7 1_555 1_555
H10_7 C14_7 1_555 1_555
H11_7 C14_7 1_555 1_555
C18_7 C11_7 1_555 1_555
H16_7 C18_7 1_555 1_555
H17_7 C18_7 1_555 1_555
C8_7 C9_7 1_555 1_555
C8_7 C11_7 1_555 1_555
O2_7 C27_7 1_555 1_555
H3_7 C12_7 1_555 1_555
H4_7 C12_7 1_555 1_555
H5_7 C12_7 1_555 1_555
C15_7 O3_7 1_555 1_555
C19_7 C20_7 1_555 1_555
C21_7 C20_7 1_555 1_555
C22_7 C21_7 1_555 1_555
C23_7 C22_7 1_555 1_555
C24_7 C19_7 1_555 1_555
H20_7 C24_7 1_555 1_555
C27_7 C19_7 1_555 1_555
C28_7 C22_7 1_555 1_555
C29_7 C28_7 1_555 1_555
C30_7 C29_7 1_555 1_555
H27_7 C30_7 1_555 1_555
C31_7 C15_7 1_555 1_555
C32_7 C31_7 1_555 1_555
H28_7 C32_7 1_555 1_555
C33_7 C28_7 1_555 1_555
H29_7 C33_7 1_555 1_555
N9_7 C29_7 1_555 1_555
H33_7 N9_7 1_555 1_555
H34_7 N9_7 1_555 1_555
O4_7 C27_7 1_555 1_555
N10_7 C23_7 1_555 1_555
H35_7 N10_7 1_555 1_555
H36_7 N10_7 1_555 1_555
C15_7 O5_7 1_555 1_555
C23_7 C24_7 1_555 1_555
C30_7 C31_7 1_555 1_555
C32_7 C33_7 1_555 1_555
O4_7 H213_7 1_555 1_555
O12_3 H214_11 1_555 1_555
N72_3 C6_8 1_555 1_555
C3_8 C6_8 1_555 1_555
N8_8 N72_3 1_555 1_555
H2_8 N8_8 1_555 1_555
C17_8 C3_8 1_555 1_555
C34_8 C17_8 1_555 1_555
H30_8 C34_8 1_555 1_555
H31_8 C34_8 1_555 1_555
H32_8 C34_8 1_555 1_555
N8_8 C17_8 1_555 1_555
O2_8 C27_8 1_555 1_555
N65_4 N76_3 1_555 1_555
N68_4 N6_8 1_555 1_555
N6_8 Zn23_3 1_555 1_555
N76_3 C10_8 1_555 1_555
C2_8 N65_4 1_555 1_555
C4_8 C2_8 1_555 1_555
C8_8 C4_8 1_555 1_555
C9_8 N68_4 1_555 1_555
C10_8 C4_8 1_555 1_555
O3_8 Zn23_3 1_555 1_555
C11_8 N6_8 1_555 1_555
C12_8 C2_8 1_555 1_555
H3_8 C12_8 1_555 1_555
H4_8 C12_8 1_555 1_555
H5_8 C12_8 1_555 1_555
C13_8 C9_8 1_555 1_555
H6_8 C13_8 1_555 1_555
H7_8 C13_8 1_555 1_555
C14_8 C10_8 1_555 1_555
H9_8 C14_8 1_555 1_555
H10_8 C14_8 1_555 1_555
H11_8 C14_8 1_555 1_555
C15_8 O3_8 1_555 1_555
C18_8 C11_8 1_555 1_555
H15_8 C18_8 1_555 1_555
H16_8 C18_8 1_555 1_555
H17_8 C18_8 1_555 1_555
C19_8 C20_8 1_555 1_555
C21_8 C20_8 1_555 1_555
C22_8 C21_8 1_555 1_555
C23_8 C22_8 1_555 1_555
C24_8 C19_8 1_555 1_555
H20_8 C24_8 1_555 1_555
C27_8 C19_8 1_555 1_555
C28_8 C22_8 1_555 1_555
C29_8 C28_8 1_555 1_555
C30_8 C29_8 1_555 1_555
H27_8 C30_8 1_555 1_555
C31_8 C15_8 1_555 1_555
C32_8 C31_8 1_555 1_555
H28_8 C32_8 1_555 1_555
C33_8 C28_8 1_555 1_555
H29_8 C33_8 1_555 1_555
N9_8 C29_8 1_555 1_555
H33_8 N9_8 1_555 1_555
H34_8 N9_8 1_555 1_555
O4_8 C27_8 1_555 1_555
N10_8 C23_8 1_555 1_555
H35_8 N10_8 1_555 1_555
H36_8 N10_8 1_555 1_555
O5_8 Zn23_3 1_555 1_555
C8_8 C9_8 1_555 1_555
C8_8 C11_8 1_555 1_555
C15_8 O5_8 1_555 1_555
C23_8 C24_8 1_555 1_555
C30_8 C31_8 1_555 1_555
C32_8 C33_8 1_555 1_555
O4_8 H213_8 1_555 1_555
O12_4 H214_12 1_555 1_555
N62_3 N3_8 1_555 1_555
N3_8 Zn29_2 1_555 1_555
C5_8 N3_8 1_555 1_555
C7_8 N62_3 1_555 1_555
C16_8 C5_8 1_555 1_555
H12_8 C16_8 1_555 1_555
H13_8 C16_8 1_555 1_555
C26_8 C7_8 1_555 1_555
H24_8 C26_8 1_555 1_555
H25_8 C26_8 1_555 1_555
H26_8 C26_8 1_555 1_555
C1_8 C5_8 1_555 1_555
C1_8 C7_8 1_555 1_555
O24_4 H214_13 1_555 1_555
O20_3 H214_14 1_555 1_555
O24_3 H214_15 1_555 1_555
O20_4 H214_16 1_555 1_555

#END
