
###############################################################################
#
# This file contains modified crystal structure data generated from the
# MOF subset of the Cambridge Structural Database (CSD) v543 
# hosted by the Cambridge Crystallographic Data Centre (CCDC).
#
# This work is licensed under the Creative Commons
# Attribution-NonCommercial-ShareAlike 4.0 International License.
# To view a copy of this license, visit
# http://creativecommons.org/licenses/by-nc-sa/4.0/
# or send a letter to
# Creative Commons, PO Box 1866, Mountain View, CA 94042, USA.
#
# CIF created using the CSD Python API on 29 September 2022
# The structure has been converted into the P1 space group
# The structure has a 3D framework
# The original CSD entry LEJFIT is in the cubic crystal system
# The original CSD entry LEJFIT is in a Sohncke space group
# The framework has been calculated to contain at least 10.0% void space
# The void calculation uses a probe of radius 1.32A, grid spacing 0.4
# H atom positions have been added when not included in the experimental data
#
###############################################################################

data_LEJFIT
_chemical_formula_moiety         '(C864 H944 N192 O152 Zn60)n'
_symmetry_cell_setting           triclinic
_symmetry_space_group_name_H-M   'P 1'
_symmetry_Int_Tables_number      1
_space_group_name_Hall           'P 1'
loop_
_symmetry_equiv_pos_site_id
_symmetry_equiv_pos_as_xyz
1 x,y,z
_cell_length_a                   33.8475(5)
_cell_length_b                   33.8475(5)
_cell_length_c                   33.8475(5)
_cell_angle_alpha                90
_cell_angle_beta                 90
_cell_angle_gamma                90
_cell_volume                     38777.5
loop_
_atom_site_label
_atom_site_type_symbol
_atom_site_fract_x
_atom_site_fract_y
_atom_site_fract_z
Zn1 Zn 0.60753(2) 0.59304(2) 0.53286(2)
Zn2 Zn 0.62722(2) 0.48081(2) 0.10054(2)
Zn3 Zn 0.64333(2) 0.375000 0.10667(2)
O1 O 0.56595(9) 0.56595(9) 0.56595(9)
H1 H 0.549237 0.549237 0.549237
O2 O 0.6235(2) 0.50150(16) 0.15527(14)
N1 N 0.65793(11) 0.30940(12) 0.16430(11)
N2 N 0.68018(11) 0.45543(11) 0.09442(12)
N3 N 0.65426(15) 0.35023(13) 0.15835(12)
N4 N 0.72444(13) 0.36895(13) 0.31211(12)
N5 N 0.84676(12) 0.43085(13) 0.05925(12)
N6 N 0.85190(12) 0.45360(12) 0.09199(12)
N7 N 0.68953(13) 0.35551(18) 0.32304(13)
H2 H 0.681964 0.354745 0.347284
N8 N 0.68475(14) 0.41598(13) 0.1002(2)
C1 C 0.6720(3) 0.3052(3) 0.20162(19)
C2 C 0.71502(17) 0.47215(19) 0.0903(2)
C3 C 0.6742(3) 0.3404(3) 0.21989(19)
O3 O 0.61769(17) 0.59045(16) 0.47760(13)
C4 C 0.6872(3) 0.3492(3) 0.26094(19)
C5 C 0.74466(17) 0.44267(19) 0.0889(2)
C6 C 0.78690(17) 0.44562(19) 0.0835(2)
C7 C 0.7218(3) 0.3656(3) 0.27206(19)
C8 C 0.81604(16) 0.46241(19) 0.1076(2)
C9 C 0.80760(17) 0.4272(2) 0.0545(2)
C10 C 0.6639(3) 0.3679(3) 0.19193(19)
C11 C 0.72015(17) 0.51570(19) 0.0813(2)
H3 H 0.699653 0.524189 0.063634
H4 H 0.745438 0.519941 0.069187
H5 H 0.718604 0.530560 0.105413
C12 C 0.72370(17) 0.40881(19) 0.0961(2)
C13 C 0.6671(3) 0.3432(3) 0.29323(19)
C14 C 0.6232(2) 0.50676(12) 0.23731(12)
H6 H 0.629405 0.482167 0.226772
C15 C 0.6174(2) 0.53891(14) 0.21242(9)
C16 C 0.6081(2) 0.57567(13) 0.22818(12)
H7 H 0.604245 0.597182 0.211520
C17 C 0.6045(2) 0.58027(12) 0.26882(12)
H8 H 0.598242 0.604867 0.279365
C18 C 0.6102(2) 0.54812(14) 0.29372(9)
C19 C 0.6196(2) 0.51136(13) 0.27796(11)
C20 C 0.6804(3) 0.2658(2) 0.21867(19)
H9 H 0.668709 0.245803 0.202340
H10 H 0.669400 0.264330 0.244783
H11 H 0.708423 0.261852 0.219959
C21 C 0.6175(3) 0.5343(2) 0.1688(2)
C22 C 0.59366(18) 0.56778(16) 0.46310(17)
C23 C 0.81068(17) 0.4875(2) 0.1461(2)
H12 H 0.821287 0.473222 0.168175
H13 H 0.783084 0.492399 0.150346
H14 H 0.824379 0.512134 0.143246
C24 C 0.79168(17) 0.4063(2) 0.0171(2)
H15 H 0.813422 0.398555 0.000621
H16 H 0.774769 0.423977 0.002816
H17 H 0.776971 0.383241 0.024745
C25 C 0.7564(3) 0.3803(3) 0.24776(19)
H18 H 0.775164 0.393011 0.264759
H19 H 0.747141 0.398756 0.228333
H20 H 0.768763 0.358305 0.234764
O4 O 0.56741(17) 0.54897(17) 0.47937(13)
C26 C 0.60585(15) 0.55383(15) 0.33665(9)
C27 C 0.57093(13) 0.54281(14) 0.35524(11)
C28 C 0.56699(13) 0.54733(14) 0.39587(11)
H21 H 0.543623 0.539954 0.408308
C29 C 0.59796(15) 0.56287(14) 0.41790(9)
C30 C 0.63288(14) 0.57389(15) 0.39931(12)
H22 H 0.653603 0.584291 0.414047
C31 C 0.63682(14) 0.56937(18) 0.35868(12)
H23 H 0.660183 0.576745 0.346239
C32 C 0.73774(17) 0.36672(19) 0.0974(2)
H24 H 0.753326 0.362631 0.120716
H25 H 0.753499 0.361331 0.074419
H26 H 0.715361 0.349297 0.097782
O5 O 0.6252(2) 0.47935(19) 0.30563(15)
C33 C 0.6267(3) 0.3258(3) 0.3004(2)
H27 H 0.625686 0.299628 0.289620
H28 H 0.607094 0.342010 0.287811
H29 H 0.621674 0.324826 0.328274
C34 C 0.6640(3) 0.4124(3) 0.1929(2)
H30 H 0.687214 0.422090 0.179712
H31 H 0.664061 0.421300 0.219818
H32 H 0.640899 0.422227 0.179721
O6 O 0.6151(2) 0.56565(17) 0.14930(15)
C35 C 0.6351(3) 0.4436(3) 0.2941(2)
H33 H 0.652266 0.443815 0.271490
H34 H 0.611386 0.429495 0.287860
H35 H 0.648266 0.430945 0.315830
O7 O 0.5411(2) 0.52793(19) 0.33378(15)
C36 C 0.5047(3) 0.5322(3) 0.3502(2)
H36 H 0.498848 0.509556 0.366215
H37 H 0.485287 0.534496 0.329620
H38 H 0.504263 0.555554 0.366248
Zn4 Zn 0.53286(2) 0.60753(2) 0.59304(2)
Zn5 Zn 0.10054(2) 0.62722(2) 0.48081(2)
Zn6 Zn 0.10667(2) 0.64333(2) 0.375000
O8 O 0.15527(14) 0.6235(2) 0.50150(16)
N9 N 0.16430(11) 0.65793(11) 0.30940(12)
N10 N 0.09442(12) 0.68018(11) 0.45543(11)
N11 N 0.15835(12) 0.65426(15) 0.35023(13)
N12 N 0.31211(12) 0.72444(13) 0.36895(13)
N13 N 0.05925(12) 0.84676(12) 0.43085(13)
N14 N 0.09199(12) 0.85190(12) 0.45360(12)
N15 N 0.32304(13) 0.68953(13) 0.35551(18)
H39 H 0.347284 0.681964 0.354745
N16 N 0.1002(2) 0.68475(14) 0.41598(13)
C37 C 0.20162(19) 0.6720(3) 0.3052(3)
C38 C 0.0903(2) 0.71502(17) 0.47215(19)
C39 C 0.21989(19) 0.6742(3) 0.3404(3)
O9 O 0.47760(13) 0.61769(17) 0.59045(16)
C40 C 0.26094(19) 0.6872(3) 0.3492(3)
C41 C 0.0889(2) 0.74466(17) 0.44267(19)
C42 C 0.0835(2) 0.78690(17) 0.44562(19)
C43 C 0.27206(19) 0.7218(3) 0.3656(3)
C44 C 0.1076(2) 0.81604(16) 0.46241(19)
C45 C 0.0545(2) 0.80760(17) 0.4272(2)
C46 C 0.19193(19) 0.6639(3) 0.3679(3)
C47 C 0.0813(2) 0.72015(17) 0.51570(19)
H40 H 0.063634 0.699653 0.524189
H41 H 0.069187 0.745438 0.519941
H42 H 0.105413 0.718604 0.530560
C48 C 0.0961(2) 0.72370(17) 0.40881(19)
C49 C 0.29323(19) 0.6671(3) 0.3432(3)
C50 C 0.23731(12) 0.6232(2) 0.50676(12)
H43 H 0.226772 0.629405 0.482167
C51 C 0.21242(9) 0.6174(2) 0.53891(14)
C52 C 0.22818(12) 0.6081(2) 0.57567(13)
H44 H 0.211520 0.604245 0.597182
C53 C 0.26882(12) 0.6045(2) 0.58027(12)
H45 H 0.279365 0.598242 0.604867
C54 C 0.29372(9) 0.6102(2) 0.54812(14)
C55 C 0.27796(11) 0.6196(2) 0.51136(13)
C56 C 0.21867(19) 0.6804(3) 0.2658(2)
H46 H 0.202340 0.668709 0.245803
H47 H 0.244783 0.669400 0.264330
H48 H 0.219959 0.708423 0.261852
C57 C 0.1688(2) 0.6175(3) 0.5343(2)
C58 C 0.46310(17) 0.59366(18) 0.56778(16)
C59 C 0.1461(2) 0.81068(17) 0.4875(2)
H49 H 0.168175 0.821287 0.473222
H50 H 0.150346 0.783084 0.492399
H51 H 0.143246 0.824379 0.512134
C60 C 0.0171(2) 0.79168(17) 0.4063(2)
H52 H 0.000621 0.813422 0.398555
H53 H 0.002816 0.774769 0.423977
H54 H 0.024745 0.776971 0.383241
C61 C 0.24776(19) 0.7564(3) 0.3803(3)
H55 H 0.264759 0.775164 0.393011
H56 H 0.228333 0.747141 0.398756
H57 H 0.234764 0.768763 0.358305
O10 O 0.47937(13) 0.56741(17) 0.54897(17)
C62 C 0.33665(9) 0.60585(15) 0.55383(15)
C63 C 0.35524(11) 0.57093(13) 0.54281(14)
C64 C 0.39587(11) 0.56699(13) 0.54733(14)
H58 H 0.408308 0.543623 0.539954
C65 C 0.41790(9) 0.59796(15) 0.56287(14)
C66 C 0.39931(12) 0.63288(14) 0.57389(15)
H59 H 0.414047 0.653603 0.584291
C67 C 0.35868(12) 0.63682(14) 0.56937(18)
H60 H 0.346239 0.660183 0.576745
C68 C 0.0974(2) 0.73774(17) 0.36672(19)
H61 H 0.120716 0.753326 0.362631
H62 H 0.074419 0.753499 0.361331
H63 H 0.097782 0.715361 0.349297
O11 O 0.30563(15) 0.6252(2) 0.47935(19)
C69 C 0.3004(2) 0.6267(3) 0.3258(3)
H64 H 0.289620 0.625686 0.299628
H65 H 0.287811 0.607094 0.342010
H66 H 0.328274 0.621674 0.324826
C70 C 0.1929(2) 0.6640(3) 0.4124(3)
H67 H 0.179712 0.687214 0.422090
H68 H 0.219818 0.664061 0.421300
H69 H 0.179721 0.640899 0.422227
O12 O 0.14930(15) 0.6151(2) 0.56565(17)
C71 C 0.2941(2) 0.6351(3) 0.4436(3)
H70 H 0.271490 0.652266 0.443815
H71 H 0.287860 0.611386 0.429495
H72 H 0.315830 0.648266 0.430945
O13 O 0.33378(15) 0.5411(2) 0.52793(19)
C72 C 0.3502(2) 0.5047(3) 0.5322(3)
H73 H 0.366215 0.498848 0.509556
H74 H 0.329620 0.485287 0.534496
H75 H 0.366248 0.504263 0.555554
Zn7 Zn 0.59304(2) 0.53286(2) 0.60753(2)
Zn8 Zn 0.48081(2) 0.10054(2) 0.62722(2)
Zn9 Zn 0.375000 0.10667(2) 0.64333(2)
O14 O 0.50150(16) 0.15527(14) 0.6235(2)
N17 N 0.30940(12) 0.16430(11) 0.65793(11)
N18 N 0.45543(11) 0.09442(12) 0.68018(11)
N19 N 0.35023(13) 0.15835(12) 0.65426(15)
N20 N 0.36895(13) 0.31211(12) 0.72444(13)
N21 N 0.43085(13) 0.05925(12) 0.84676(12)
N22 N 0.45360(12) 0.09199(12) 0.85190(12)
N23 N 0.35551(18) 0.32304(13) 0.68953(13)
H76 H 0.354745 0.347284 0.681964
N24 N 0.41598(13) 0.1002(2) 0.68475(14)
C73 C 0.3052(3) 0.20162(19) 0.6720(3)
C74 C 0.47215(19) 0.0903(2) 0.71502(17)
C75 C 0.3404(3) 0.21989(19) 0.6742(3)
O15 O 0.59045(16) 0.47760(13) 0.61769(17)
C76 C 0.3492(3) 0.26094(19) 0.6872(3)
C77 C 0.44267(19) 0.0889(2) 0.74466(17)
C78 C 0.44562(19) 0.0835(2) 0.78690(17)
C79 C 0.3656(3) 0.27206(19) 0.7218(3)
C80 C 0.46241(19) 0.1076(2) 0.81604(16)
C81 C 0.4272(2) 0.0545(2) 0.80760(17)
C82 C 0.3679(3) 0.19193(19) 0.6639(3)
C83 C 0.51570(19) 0.0813(2) 0.72015(17)
H77 H 0.524189 0.063634 0.699653
H78 H 0.519941 0.069187 0.745438
H79 H 0.530560 0.105413 0.718604
C84 C 0.40881(19) 0.0961(2) 0.72370(17)
C85 C 0.3432(3) 0.29323(19) 0.6671(3)
C86 C 0.50676(12) 0.23731(12) 0.6232(2)
H80 H 0.482167 0.226772 0.629405
C87 C 0.53891(14) 0.21242(9) 0.6174(2)
C88 C 0.57567(13) 0.22818(12) 0.6081(2)
H81 H 0.597182 0.211520 0.604245
C89 C 0.58027(12) 0.26882(12) 0.6045(2)
H82 H 0.604867 0.279365 0.598242
C90 C 0.54812(14) 0.29372(9) 0.6102(2)
C91 C 0.51136(13) 0.27796(11) 0.6196(2)
C92 C 0.2658(2) 0.21867(19) 0.6804(3)
H83 H 0.245803 0.202340 0.668709
H84 H 0.264330 0.244783 0.669400
H85 H 0.261852 0.219959 0.708423
C93 C 0.5343(2) 0.1688(2) 0.6175(3)
C94 C 0.56778(16) 0.46310(17) 0.59366(18)
C95 C 0.4875(2) 0.1461(2) 0.81068(17)
H86 H 0.473222 0.168175 0.821287
H87 H 0.492399 0.150346 0.783084
H88 H 0.512134 0.143246 0.824379
C96 C 0.4063(2) 0.0171(2) 0.79168(17)
H89 H 0.398555 0.000621 0.813422
H90 H 0.423977 0.002816 0.774769
H91 H 0.383241 0.024745 0.776971
C97 C 0.3803(3) 0.24776(19) 0.7564(3)
H92 H 0.393011 0.264759 0.775164
H93 H 0.398756 0.228333 0.747141
H94 H 0.358305 0.234764 0.768763
O16 O 0.54897(17) 0.47937(13) 0.56741(17)
C98 C 0.55383(15) 0.33665(9) 0.60585(15)
C99 C 0.54281(14) 0.35524(11) 0.57093(13)
C100 C 0.54733(14) 0.39587(11) 0.56699(13)
H95 H 0.539954 0.408308 0.543623
C101 C 0.56287(14) 0.41790(9) 0.59796(15)
C102 C 0.57389(15) 0.39931(12) 0.63288(14)
H96 H 0.584291 0.414047 0.653603
C103 C 0.56937(18) 0.35868(12) 0.63682(14)
H97 H 0.576745 0.346239 0.660183
C104 C 0.36672(19) 0.0974(2) 0.73774(17)
H98 H 0.362631 0.120716 0.753326
H99 H 0.361331 0.074419 0.753499
H100 H 0.349297 0.097782 0.715361
O17 O 0.47935(19) 0.30563(15) 0.6252(2)
C105 C 0.3258(3) 0.3004(2) 0.6267(3)
H101 H 0.299628 0.289620 0.625686
H102 H 0.342010 0.287811 0.607094
H103 H 0.324826 0.328274 0.621674
C106 C 0.4124(3) 0.1929(2) 0.6640(3)
H104 H 0.422090 0.179712 0.687214
H105 H 0.421300 0.219818 0.664061
H106 H 0.422227 0.179721 0.640899
O18 O 0.56565(17) 0.14930(15) 0.6151(2)
C107 C 0.4436(3) 0.2941(2) 0.6351(3)
H107 H 0.443815 0.271490 0.652266
H108 H 0.429495 0.287860 0.611386
H109 H 0.430945 0.315830 0.648266
O19 O 0.52793(19) 0.33378(15) 0.5411(2)
C108 C 0.5322(3) 0.3502(2) 0.5047(3)
H110 H 0.509556 0.366215 0.498848
H111 H 0.534496 0.329620 0.485287
H112 H 0.555554 0.366248 0.504263
Zn10 Zn 0.21714(2) 0.15696(2) 0.14247(2)
Zn11 Zn 0.64946(2) 0.26919(2) 0.12278(2)
O20 O 0.18405(9) 0.18405(9) 0.18405(9)
H113 H 0.200763 0.200763 0.200763
O21 O 0.59473(14) 0.24850(16) 0.1265(2)
N25 N 0.58570(11) 0.44060(12) 0.09207(11)
N26 N 0.65558(12) 0.29457(11) 0.06982(11)
N27 N 0.59165(12) 0.39977(13) 0.09574(15)
N28 N 0.43789(12) 0.38105(13) 0.02556(13)
N31 N 0.42696(13) 0.39449(18) 0.06047(13)
H114 H 0.402716 0.395255 0.068036
N32 N 0.6498(2) 0.33402(13) 0.06525(14)
C109 C 0.54838(19) 0.4448(3) 0.0780(3)
C110 C 0.6597(2) 0.27785(19) 0.03498(17)
C111 C 0.53011(19) 0.4096(3) 0.0758(3)
O22 O 0.27240(13) 0.15955(16) 0.13231(17)
C112 C 0.48906(19) 0.4008(3) 0.0628(3)
C113 C 0.6611(2) 0.30733(19) 0.00534(17)
C115 C 0.47794(19) 0.3844(3) 0.0282(3)
C118 C 0.55807(19) 0.3821(3) 0.0861(3)
C119 C 0.6687(2) 0.23430(19) 0.02985(17)
H115 H 0.686366 0.225811 0.050347
H116 H 0.680813 0.230059 0.004562
H117 H 0.644587 0.219440 0.031396
C120 C 0.6539(2) 0.34119(19) 0.02630(17)
C121 C 0.45677(19) 0.4068(3) 0.0829(3)
C122 C 0.51269(12) 0.24324(12) 0.1268(2)
H118 H 0.523228 0.267833 0.120595
C123 C 0.53758(9) 0.21109(14) 0.1326(2)
C124 C 0.52182(12) 0.17433(13) 0.1419(2)
H119 H 0.538480 0.152818 0.145755
C125 C 0.48118(12) 0.16973(12) 0.1455(2)
H120 H 0.470635 0.145133 0.151758
C126 C 0.45628(9) 0.20188(14) 0.1398(2)
C127 C 0.47204(11) 0.23864(13) 0.1304(2)
C128 C 0.53133(19) 0.4842(2) 0.0696(3)
H121 H 0.547660 0.504197 0.081291
H122 H 0.505217 0.485670 0.080600
H123 H 0.530041 0.488148 0.041577
C129 C 0.5812(2) 0.2157(2) 0.1325(3)
C130 C 0.28690(17) 0.18222(16) 0.15634(18)
H131 H 0.521667 0.351244 0.002859
O23 O 0.27063(13) 0.20103(17) 0.18259(17)
C134 C 0.41335(9) 0.19617(15) 0.14415(15)
C135 C 0.39476(11) 0.20719(14) 0.17907(13)
C136 C 0.35413(11) 0.20267(14) 0.18301(13)
H133 H 0.341692 0.210046 0.206377
C137 C 0.33210(9) 0.18713(14) 0.15204(15)
C138 C 0.35069(12) 0.17611(15) 0.11712(14)
H134 H 0.335953 0.165709 0.096397
C139 C 0.39132(12) 0.18063(18) 0.11318(14)
H135 H 0.403761 0.173255 0.089817
C140 C 0.6526(2) 0.38328(19) 0.01226(17)
H138 H 0.652218 0.400703 0.034639
O24 O 0.44437(15) 0.27065(19) 0.1248(2)
C141 C 0.4496(2) 0.4242(3) 0.1233(3)
H139 H 0.460380 0.450372 0.124314
H140 H 0.462189 0.407990 0.142906
H141 H 0.421726 0.425174 0.128326
C142 C 0.5571(2) 0.3376(3) 0.0860(3)
H142 H 0.570288 0.327910 0.062786
H143 H 0.530182 0.328700 0.085939
H144 H 0.570279 0.327773 0.109101
O25 O 0.60070(15) 0.18435(17) 0.1349(2)
C143 C 0.4559(2) 0.3064(3) 0.1149(3)
H145 H 0.478510 0.306185 0.097734
H146 H 0.462140 0.320505 0.138614
H147 H 0.434170 0.319055 0.101734
O26 O 0.41622(15) 0.22207(19) 0.2089(2)
C144 C 0.3998(2) 0.2178(3) 0.2453(3)
H148 H 0.383785 0.240444 0.251152
H149 H 0.420380 0.215504 0.264713
H150 H 0.383752 0.194446 0.245737
Zn12 Zn 0.15696(2) 0.14247(2) 0.21714(2)
Zn13 Zn 0.26919(2) 0.12278(2) 0.64946(2)
O27 O 0.24850(16) 0.1265(2) 0.59473(14)
N33 N 0.44060(12) 0.09207(11) 0.58570(11)
N34 N 0.29457(11) 0.06982(11) 0.65558(12)
N35 N 0.39977(13) 0.09574(15) 0.59165(12)
N36 N 0.38105(13) 0.02556(13) 0.43789(12)
N39 N 0.39449(18) 0.06047(13) 0.42696(13)
H151 H 0.395255 0.068036 0.402716
N40 N 0.33402(13) 0.06525(14) 0.6498(2)
C145 C 0.4448(3) 0.0780(3) 0.54838(19)
C146 C 0.27785(19) 0.03498(17) 0.6597(2)
C147 C 0.4096(3) 0.0758(3) 0.53011(19)
O28 O 0.15955(16) 0.13231(17) 0.27240(13)
C148 C 0.4008(3) 0.0628(3) 0.48906(19)
C149 C 0.30733(19) 0.00534(17) 0.6611(2)
C151 C 0.3844(3) 0.0282(3) 0.47794(19)
C154 C 0.3821(3) 0.0861(3) 0.55807(19)
C155 C 0.23430(19) 0.02985(17) 0.6687(2)
H152 H 0.225811 0.050347 0.686366
H153 H 0.230059 0.004562 0.680813
H154 H 0.219440 0.031396 0.644587
C156 C 0.34119(19) 0.02630(17) 0.6539(2)
C157 C 0.4068(3) 0.0829(3) 0.45677(19)
C158 C 0.24324(12) 0.1268(2) 0.51269(12)
H155 H 0.267833 0.120595 0.523228
C159 C 0.21109(14) 0.1326(2) 0.53758(9)
C160 C 0.17433(13) 0.1419(2) 0.52182(12)
H156 H 0.152818 0.145755 0.538480
C161 C 0.16973(12) 0.1455(2) 0.48118(12)
H157 H 0.145133 0.151758 0.470635
C162 C 0.20188(14) 0.1398(2) 0.45628(9)
C163 C 0.23864(13) 0.1304(2) 0.47204(11)
C164 C 0.4842(2) 0.0696(3) 0.53133(19)
H158 H 0.504197 0.081291 0.547660
H159 H 0.485670 0.080600 0.505217
H160 H 0.488148 0.041577 0.530041
C165 C 0.2157(2) 0.1325(3) 0.5812(2)
C166 C 0.18222(16) 0.15634(18) 0.28690(17)
H168 H 0.351244 0.002859 0.521667
O29 O 0.20103(17) 0.18259(17) 0.27063(13)
C170 C 0.19617(15) 0.14415(15) 0.41335(9)
C171 C 0.20719(14) 0.17907(13) 0.39476(11)
C172 C 0.20267(14) 0.18301(13) 0.35413(11)
H170 H 0.210046 0.206377 0.341692
C173 C 0.18713(14) 0.15204(15) 0.33210(9)
C174 C 0.17611(15) 0.11712(14) 0.35069(12)
H171 H 0.165709 0.096397 0.335953
C175 C 0.18063(18) 0.11318(14) 0.39132(12)
H172 H 0.173255 0.089817 0.403761
C176 C 0.38328(19) 0.01226(17) 0.6526(2)
H175 H 0.400703 0.034639 0.652218
O30 O 0.27065(19) 0.1248(2) 0.44437(15)
C177 C 0.4242(3) 0.1233(3) 0.4496(2)
H176 H 0.450372 0.124314 0.460380
H177 H 0.407990 0.142906 0.462189
H178 H 0.425174 0.128326 0.421726
C178 C 0.3376(3) 0.0860(3) 0.5571(2)
H179 H 0.327910 0.062786 0.570288
H180 H 0.328700 0.085939 0.530182
H181 H 0.327773 0.109101 0.570279
O31 O 0.18435(17) 0.1349(2) 0.60070(15)
C179 C 0.3064(3) 0.1149(3) 0.4559(2)
H182 H 0.306185 0.097734 0.478510
H183 H 0.320505 0.138614 0.462140
H184 H 0.319055 0.101734 0.434170
O32 O 0.22207(19) 0.2089(2) 0.41622(15)
C180 C 0.2178(3) 0.2453(3) 0.3998(2)
H185 H 0.240444 0.251152 0.383785
H186 H 0.215504 0.264713 0.420380
H187 H 0.194446 0.245737 0.383752
Zn14 Zn 0.14247(2) 0.21714(2) 0.15696(2)
Zn15 Zn 0.12278(2) 0.64946(2) 0.26919(2)
O33 O 0.1265(2) 0.59473(14) 0.24850(16)
N41 N 0.09207(11) 0.58570(11) 0.44060(12)
N42 N 0.06982(11) 0.65558(12) 0.29457(11)
N43 N 0.09574(15) 0.59165(12) 0.39977(13)
N44 N 0.02556(13) 0.43789(12) 0.38105(13)
N47 N 0.06047(13) 0.42696(13) 0.39449(18)
H188 H 0.068036 0.402716 0.395255
N48 N 0.06525(14) 0.6498(2) 0.33402(13)
C181 C 0.0780(3) 0.54838(19) 0.4448(3)
C182 C 0.03498(17) 0.6597(2) 0.27785(19)
C183 C 0.0758(3) 0.53011(19) 0.4096(3)
O34 O 0.13231(17) 0.27240(13) 0.15955(16)
C184 C 0.0628(3) 0.48906(19) 0.4008(3)
C185 C 0.00534(17) 0.6611(2) 0.30733(19)
C187 C 0.0282(3) 0.47794(19) 0.3844(3)
C190 C 0.0861(3) 0.55807(19) 0.3821(3)
C191 C 0.02985(17) 0.6687(2) 0.23430(19)
H189 H 0.050347 0.686366 0.225811
H190 H 0.004562 0.680813 0.230059
H191 H 0.031396 0.644587 0.219440
C192 C 0.02630(17) 0.6539(2) 0.34119(19)
C193 C 0.0829(3) 0.45677(19) 0.4068(3)
C194 C 0.1268(2) 0.51269(12) 0.24324(12)
H192 H 0.120595 0.523228 0.267833
C195 C 0.1326(2) 0.53758(9) 0.21109(14)
C196 C 0.1419(2) 0.52182(12) 0.17433(13)
H193 H 0.145755 0.538480 0.152818
C197 C 0.1455(2) 0.48118(12) 0.16973(12)
H194 H 0.151758 0.470635 0.145133
C198 C 0.1398(2) 0.45628(9) 0.20188(14)
C199 C 0.1304(2) 0.47204(11) 0.23864(13)
C200 C 0.0696(3) 0.53133(19) 0.4842(2)
H195 H 0.081291 0.547660 0.504197
H196 H 0.080600 0.505217 0.485670
H197 H 0.041577 0.530041 0.488148
C201 C 0.1325(3) 0.5812(2) 0.2157(2)
C202 C 0.15634(18) 0.28690(17) 0.18222(16)
H205 H 0.002859 0.521667 0.351244
O35 O 0.18259(17) 0.27063(13) 0.20103(17)
C206 C 0.14415(15) 0.41335(9) 0.19617(15)
C207 C 0.17907(13) 0.39476(11) 0.20719(14)
C208 C 0.18301(13) 0.35413(11) 0.20267(14)
H207 H 0.206377 0.341692 0.210046
C209 C 0.15204(15) 0.33210(9) 0.18713(14)
C210 C 0.11712(14) 0.35069(12) 0.17611(15)
H208 H 0.096397 0.335953 0.165709
C211 C 0.11318(14) 0.39132(12) 0.18063(18)
H209 H 0.089817 0.403761 0.173255
C212 C 0.01226(17) 0.6526(2) 0.38328(19)
H212 H 0.034639 0.652218 0.400703
O36 O 0.1248(2) 0.44437(15) 0.27065(19)
C213 C 0.1233(3) 0.4496(2) 0.4242(3)
H213 H 0.124314 0.460380 0.450372
H214 H 0.142906 0.462189 0.407990
H215 H 0.128326 0.421726 0.425174
C214 C 0.0860(3) 0.5571(2) 0.3376(3)
H216 H 0.062786 0.570288 0.327910
H217 H 0.085939 0.530182 0.328700
H218 H 0.109101 0.570279 0.327773
O37 O 0.1349(2) 0.60070(15) 0.18435(17)
C215 C 0.1149(3) 0.4559(2) 0.3064(3)
H219 H 0.097734 0.478510 0.306185
H220 H 0.138614 0.462140 0.320505
H221 H 0.101734 0.434170 0.319055
O38 O 0.2089(2) 0.41622(15) 0.22207(19)
C216 C 0.2453(3) 0.3998(2) 0.2178(3)
H222 H 0.251152 0.383785 0.240444
H223 H 0.264713 0.420380 0.215504
H224 H 0.245737 0.383752 0.194446
Zn16 Zn 0.89247(2) 0.40696(2) 0.03286(2)
Zn17 Zn 0.10753(2) 0.90696(2) 0.46714(2)
Zn18 Zn 0.03286(2) 0.89247(2) 0.40696(2)
Zn19 Zn 0.46714(2) 0.10753(2) 0.90696(2)
Zn20 Zn 0.40696(2) 0.03286(2) 0.89247(2)
Zn21 Zn 0.90696(2) 0.46714(2) 0.10753(2)
Zn31 Zn 0.76919(2) 0.37722(2) 0.35054(2)
Zn32 Zn 0.37722(2) 0.35054(2) 0.76919(2)
Zn33 Zn 0.35054(2) 0.76919(2) 0.37722(2)
N49 N 0.22444(13) 0.13105(13) 0.68789(12)
N50 N 0.68789(12) 0.22444(13) 0.13105(13)
N51 N 0.13105(13) 0.68789(12) 0.22444(13)
N52 N 0.61895(13) 0.52556(13) 0.06211(12)
N53 N 0.52556(13) 0.06211(12) 0.61895(13)
N54 N 0.06211(12) 0.61895(13) 0.52556(13)
N55 N 0.65324(12) 0.56915(13) 0.55925(12)
N56 N 0.55925(12) 0.65324(12) 0.56915(13)
N57 N 0.56915(13) 0.55925(12) 0.65324(12)
N58 N 0.18085(13) 0.09676(12) 0.19075(12)
N59 N 0.09676(12) 0.19075(12) 0.18085(13)
N60 N 0.19075(12) 0.18085(13) 0.09676(12)
N61 N 0.64810(12) 0.54640(12) 0.59199(12)
N62 N 0.59199(12) 0.64810(12) 0.54640(12)
N63 N 0.54640(12) 0.59199(12) 0.64810(12)
N64 N 0.20360(12) 0.10190(12) 0.15801(12)
N65 N 0.10190(12) 0.15801(12) 0.20360(12)
N66 N 0.15801(12) 0.20360(12) 0.10190(12)
H225 H 0.56353 0.13005 0.593063
H226 H 0.20113 0.257416 0.182527
N29 N 0.69075(12) 0.31915(13) 0.90324(12)
N30 N 0.65801(12) 0.29640(12) 0.89810(12)
C114 C 0.6665(2) 0.30438(19) 0.96310(17)
C116 C 0.6424(2) 0.28759(19) 0.93396(16)
C117 C 0.6955(2) 0.3228(2) 0.94240(17)
C131 C 0.6039(2) 0.2625(2) 0.93932(17)
H124 H 0.581825 0.276778 0.928713
H125 H 0.599654 0.257601 0.966916
H126 H 0.606754 0.237866 0.925621
C132 C 0.7329(2) 0.3437(2) 0.95832(17)
H127 H 0.749379 0.351445 0.936578
H128 H 0.747184 0.326023 0.975231
H129 H 0.725255 0.366759 0.973029
C133 C 0.50224(19) 0.3697(3) 0.9936(3)
H130 H 0.485241 0.356989 0.974836
H132 H 0.515236 0.391695 0.981237
H136 H 0.629284 0.387369 0.996674
H137 H 0.675581 0.388669 0.996501
Zn24 Zn 0.64247(2) 0.28286(2) 0.84304(2)
Zn27 Zn 0.71714(2) 0.34304(2) 0.85753(2)
Zn29 Zn 0.39946(2) 0.37278(2) 0.98081(2)
N37 N 0.31915(13) 0.90324(12) 0.69075(12)
N38 N 0.29640(12) 0.89810(12) 0.65801(12)
C150 C 0.30438(19) 0.96310(17) 0.6665(2)
C152 C 0.28759(19) 0.93396(16) 0.6424(2)
C153 C 0.3228(2) 0.94240(17) 0.6955(2)
C167 C 0.2625(2) 0.93932(17) 0.6039(2)
H161 H 0.276778 0.928713 0.581825
H162 H 0.257601 0.966916 0.599654
H163 H 0.237866 0.925621 0.606754
C168 C 0.3437(2) 0.95832(17) 0.7329(2)
H164 H 0.351445 0.936578 0.749379
H165 H 0.326023 0.975231 0.747184
H166 H 0.366759 0.973029 0.725255
C169 C 0.3697(3) 0.9936(3) 0.50224(19)
H167 H 0.356989 0.974836 0.485241
H169 H 0.391695 0.981237 0.515236
H173 H 0.387369 0.996674 0.629284
H174 H 0.388669 0.996501 0.675581
Zn22 Zn 0.34304(2) 0.85753(2) 0.71714(2)
Zn26 Zn 0.28286(2) 0.84304(2) 0.64247(2)
Zn28 Zn 0.37278(2) 0.98081(2) 0.39946(2)
N45 N 0.90324(12) 0.69075(12) 0.31915(13)
N46 N 0.89810(12) 0.65801(12) 0.29640(12)
C186 C 0.96310(17) 0.6665(2) 0.30438(19)
C188 C 0.93396(16) 0.6424(2) 0.28759(19)
C189 C 0.94240(17) 0.6955(2) 0.3228(2)
C203 C 0.93932(17) 0.6039(2) 0.2625(2)
H198 H 0.928713 0.581825 0.276778
H199 H 0.966916 0.599654 0.257601
H200 H 0.925621 0.606754 0.237866
C204 C 0.95832(17) 0.7329(2) 0.3437(2)
H201 H 0.936578 0.749379 0.351445
H202 H 0.975231 0.747184 0.326023
H203 H 0.973029 0.725255 0.366759
C205 C 0.9936(3) 0.50224(19) 0.3697(3)
H204 H 0.974836 0.485241 0.356989
H206 H 0.981237 0.515236 0.391695
H210 H 0.996674 0.629284 0.387369
H211 H 0.996501 0.675581 0.388669
Zn23 Zn 0.84304(2) 0.64247(2) 0.28286(2)
Zn25 Zn 0.85753(2) 0.71714(2) 0.34304(2)
Zn30 Zn 0.98081(2) 0.39946(2) 0.37278(2)
C150_2 C 0.19562(19) 0.03690(17) 0.1665(2)
C152_2 C 0.21241(19) 0.06604(16) 0.1424(2)
C153_2 C 0.1772(2) 0.05760(17) 0.1955(2)
C167_2 C 0.2375(2) 0.06068(17) 0.1039(2)
H161_2 H 0.223222 0.071287 0.081825
H162_2 H 0.242399 0.033084 0.099654
H163_2 H 0.262134 0.074379 0.106754
C168_2 C 0.1563(2) 0.04168(17) 0.2329(2)
H164_2 H 0.148555 0.063422 0.249379
H165_2 H 0.173977 0.024769 0.247184
H166_2 H 0.133241 0.026971 0.225255
C169_2 C 0.1303(3) 0.0064(3) 0.00224(19)
H169_2 H 0.108305 0.018763 0.015236
H173_2 H 0.112631 0.003326 0.129284
H174_2 H 0.111331 0.003499 0.175581
H167_2 H 0.143011 0.025164 0.985241
Zn28_2 Zn 0.12722(2) 0.01919(2) 0.89946(2)
O8_2 O 0.34473(14) 0.3765(2) 0.00150(16)
O9_2 O 0.02240(13) 0.38231(17) 0.09045(16)
C47_2 C 0.4187(2) 0.27985(17) 0.01570(19)
H40_2 H 0.436366 0.300347 0.024189
H41_2 H 0.430813 0.254562 0.019941
H42_2 H 0.394587 0.281396 0.030560
C50_2 C 0.26269(12) 0.3768(2) 0.00676(12)
C51_2 C 0.28758(9) 0.3826(2) 0.03891(14)
C52_2 C 0.27182(12) 0.3919(2) 0.07567(13)
H44_2 H 0.288480 0.395755 0.097182
C53_2 C 0.23118(12) 0.3955(2) 0.08027(12)
H45_2 H 0.220635 0.401758 0.104867
C54_2 C 0.20628(9) 0.3898(2) 0.04812(14)
C55_2 C 0.22204(11) 0.3804(2) 0.01136(13)
C57_2 C 0.3312(2) 0.3825(3) 0.0343(2)
C58_2 C 0.03690(17) 0.40634(18) 0.06778(16)
H51_2 H 0.356754 0.175621 0.012134
O10_2 O 0.02063(13) 0.43259(17) 0.04897(17)
C62_2 C 0.16335(9) 0.39415(15) 0.05383(15)
C63_2 C 0.14476(11) 0.42907(13) 0.04281(14)
C64_2 C 0.10413(11) 0.43301(13) 0.04733(14)
H58_2 H 0.091692 0.456377 0.039954
C65_2 C 0.08210(9) 0.40204(15) 0.06287(14)
C66_2 C 0.10069(12) 0.36712(14) 0.07389(15)
H59_2 H 0.085953 0.346397 0.084291
C67_2 C 0.14132(12) 0.36318(14) 0.06937(18)
H60_2 H 0.153761 0.339817 0.076745
O12_2 O 0.35070(15) 0.3849(2) 0.06565(17)
O13_2 O 0.16622(15) 0.4589(2) 0.02793(19)
C72_2 C 0.1498(2) 0.4953(3) 0.0322(3)
H73_2 H 0.133785 0.501152 0.009556
H74_2 H 0.170380 0.514713 0.034496
H75_2 H 0.133752 0.495737 0.055554
Zn8_2 Zn 0.01919(2) 0.89946(2) 0.12722(2)
Zn9_2 Zn 0.125000 0.89333(2) 0.14333(2)
N17_2 N 0.19060(12) 0.83570(11) 0.15793(11)
N18_2 N 0.04457(11) 0.90558(12) 0.18018(11)
N19_2 N 0.14977(13) 0.84165(12) 0.15426(15)
N21_2 N 0.06915(13) 0.94075(12) 0.34676(12)
N22_2 N 0.04640(12) 0.90801(12) 0.35190(12)
N23_2 N 0.14449(18) 0.67696(13) 0.18953(13)
H76_2 H 0.145255 0.652716 0.181964
N24_2 N 0.08402(13) 0.8998(2) 0.18475(14)
C73_2 C 0.1948(3) 0.79838(19) 0.1720(3)
C74_2 C 0.02785(19) 0.9097(2) 0.21502(17)
C75_2 C 0.1596(3) 0.78011(19) 0.1742(3)
C76_2 C 0.1508(3) 0.73906(19) 0.1872(3)
C77_2 C 0.05733(19) 0.9111(2) 0.24466(17)
C78_2 C 0.05438(19) 0.9165(2) 0.28690(17)
C79_2 C 0.1344(3) 0.72794(19) 0.2218(3)
C80_2 C 0.03759(19) 0.8924(2) 0.31604(16)
C81_2 C 0.0728(2) 0.9455(2) 0.30760(17)
C82_2 C 0.1321(3) 0.80807(19) 0.1639(3)
C84_2 C 0.09119(19) 0.9039(2) 0.22370(17)
C85_2 C 0.1568(3) 0.70677(19) 0.1671(3)
H80_2 H 0.017833 0.773228 0.129405
C92_2 C 0.2342(2) 0.78133(19) 0.1804(3)
H83_2 H 0.254197 0.797660 0.168709
H84_2 H 0.235670 0.755217 0.169400
H85_2 H 0.238148 0.780041 0.208423
C95_2 C 0.0125(2) 0.8539(2) 0.31068(17)
H86_2 H 0.026778 0.831825 0.321287
H87_2 H 0.007601 0.849654 0.283084
C96_2 C 0.0937(2) 0.9829(2) 0.29168(17)
H89_2 H 0.101445 0.999379 0.313422
H90_2 H 0.076023 0.997184 0.274769
H91_2 H 0.116759 0.975255 0.276971
C97_2 C 0.1197(3) 0.75224(19) 0.2564(3)
H92_2 H 0.106989 0.735241 0.275164
H93_2 H 0.101244 0.771667 0.247141
H94_2 H 0.141695 0.765236 0.268763
C104_2 C 0.13328(19) 0.9026(2) 0.23774(17)
H98_2 H 0.137369 0.879284 0.253326
H99_2 H 0.138669 0.925581 0.253499
H100_2 H 0.150703 0.902218 0.215361
O17_2 O 0.02065(19) 0.69437(15) 0.1252(2)
C105_2 C 0.1742(3) 0.6996(2) 0.1267(3)
H101_2 H 0.200372 0.710380 0.125686
H102_2 H 0.157990 0.712189 0.107094
H103_2 H 0.175174 0.671726 0.121674
C106_2 C 0.0876(3) 0.8071(2) 0.1640(3)
H104_2 H 0.077910 0.820288 0.187214
H105_2 H 0.078700 0.780182 0.164061
H106_2 H 0.077773 0.820279 0.140899
C107_2 C 0.0564(3) 0.7059(2) 0.1351(3)
H107_2 H 0.056185 0.728510 0.152266
H108_2 H 0.070505 0.712140 0.111386
H109_2 H 0.069055 0.684170 0.148266
Zn13_2 Zn 0.23081(2) 0.87722(2) 0.14946(2)
O27_2 O 0.25150(16) 0.8735(2) 0.09473(14)
N33_2 N 0.05940(12) 0.90793(11) 0.08570(11)
N34_2 N 0.20543(11) 0.93018(11) 0.15558(12)
N35_2 N 0.10023(13) 0.90426(15) 0.09165(12)
N40_2 N 0.16598(13) 0.93475(14) 0.1498(2)
C145_2 C 0.0552(3) 0.9220(3) 0.04838(19)
C146_2 C 0.22215(19) 0.96502(17) 0.1597(2)
C147_2 C 0.0904(3) 0.9242(3) 0.03011(19)
C149_2 C 0.19267(19) 0.99466(17) 0.1611(2)
C154_2 C 0.1179(3) 0.9139(3) 0.05807(19)
C155_2 C 0.26570(19) 0.97015(17) 0.1687(2)
H152_2 H 0.274189 0.949653 0.186366
H153_2 H 0.269941 0.995438 0.180813
H154_2 H 0.280560 0.968604 0.144587
C156_2 C 0.15881(19) 0.97370(17) 0.1539(2)
C158_2 C 0.25676(12) 0.8732(2) 0.01269(12)
H155_2 H 0.232167 0.879405 0.023228
C159_2 C 0.28891(14) 0.8674(2) 0.03758(9)
C160_2 C 0.32567(13) 0.8581(2) 0.02182(12)
H156_2 H 0.347182 0.854245 0.038480
C164_2 C 0.0158(2) 0.9304(3) 0.03133(19)
H159_2 H 0.014330 0.919400 0.005217
H160_2 H 0.011852 0.958423 0.030041
C165_2 C 0.2843(2) 0.8675(3) 0.0812(2)
H168_2 H 0.148756 0.997141 0.021667
C176_2 C 0.11672(19) 0.98774(17) 0.1526(2)
H175_2 H 0.099297 0.965361 0.152218
C178_2 C 0.1624(3) 0.9140(3) 0.0571(2)
H179_2 H 0.172090 0.937214 0.070288
H180_2 H 0.171300 0.914061 0.030182
H181_2 H 0.172227 0.890899 0.070279
O31_2 O 0.31565(17) 0.8651(2) 0.10070(15)
H195_2 H 0.418709 0.452340 0.004197
Zn20_2 Zn 0.09304(2) 0.96714(2) 0.39247(2)
N49_2 N 0.27556(13) 0.86895(13) 0.18789(12)
H36_2 H 0.001152 0.490444 0.866215
H37_2 H 0.014713 0.465504 0.829620
Zn6_2 Zn 0.39333(2) 0.35667(2) 0.875000
N9_2 N 0.33570(11) 0.34207(11) 0.80940(12)
N10_2 N 0.40558(12) 0.31982(11) 0.95543(11)
N11_2 N 0.34165(12) 0.34574(15) 0.85023(13)
N12_2 N 0.18789(12) 0.27556(13) 0.86895(13)
N13_2 N 0.44075(12) 0.15324(12) 0.93085(13)
N14_2 N 0.40801(12) 0.14810(12) 0.95360(12)
N15_2 N 0.17696(13) 0.31047(13) 0.85551(18)
H39_2 H 0.152716 0.318036 0.854745
N16_2 N 0.3998(2) 0.31525(14) 0.91598(13)
C37_2 C 0.29838(19) 0.3280(3) 0.8052(3)
C38_2 C 0.4097(2) 0.28498(17) 0.97215(19)
C39_2 C 0.28011(19) 0.3258(3) 0.8404(3)
C40_2 C 0.23906(19) 0.3128(3) 0.8492(3)
C41_2 C 0.4111(2) 0.25534(17) 0.94267(19)
C42_2 C 0.4165(2) 0.21310(17) 0.94562(19)
C43_2 C 0.22794(19) 0.2782(3) 0.8656(3)
C44_2 C 0.3924(2) 0.18396(16) 0.96241(19)
C45_2 C 0.4455(2) 0.19240(17) 0.9272(2)
C46_2 C 0.30807(19) 0.3361(3) 0.8679(3)
C48_2 C 0.4039(2) 0.27630(17) 0.90881(19)
C49_2 C 0.20677(19) 0.3329(3) 0.8432(3)
H43_2 H 0.273228 0.370595 0.982167
C56_2 C 0.28133(19) 0.3196(3) 0.7658(2)
H46_2 H 0.297660 0.331291 0.745803
H47_2 H 0.255217 0.330600 0.764330
H48_2 H 0.280041 0.291577 0.761852
C59_2 C 0.3539(2) 0.18932(17) 0.9875(2)
H49_2 H 0.331825 0.178713 0.973222
H50_2 H 0.349654 0.216916 0.992399
C60_2 C 0.4829(2) 0.20832(17) 0.9063(2)
H52_2 H 0.499379 0.186578 0.898555
H53_2 H 0.497184 0.225231 0.923977
H54_2 H 0.475255 0.223029 0.883241
C61_2 C 0.25224(19) 0.2436(3) 0.8803(3)
H55_2 H 0.235241 0.224836 0.893011
H56_2 H 0.271667 0.252859 0.898756
H57_2 H 0.265236 0.231237 0.858305
C68_2 C 0.4026(2) 0.26226(17) 0.86672(19)
H61_2 H 0.379284 0.246674 0.862631
H62_2 H 0.425581 0.246501 0.861331
H63_2 H 0.402218 0.284639 0.849297
O11_2 O 0.19437(15) 0.3748(2) 0.97935(19)
C69_2 C 0.1996(2) 0.3733(3) 0.8258(3)
H64_2 H 0.210380 0.374314 0.799628
H65_2 H 0.212189 0.392906 0.842010
H66_2 H 0.171726 0.378326 0.824826
C70_2 C 0.3071(2) 0.3360(3) 0.9124(3)
H67_2 H 0.320288 0.312786 0.922090
H68_2 H 0.280182 0.335939 0.921300
H69_2 H 0.320279 0.359101 0.922227
C71_2 C 0.2059(2) 0.3649(3) 0.9436(3)
H70_2 H 0.228510 0.347734 0.943815
H71_2 H 0.212140 0.388614 0.929495
H72_2 H 0.184170 0.351734 0.930945
O20_2 O 0.31595(9) 0.81595(9) 0.68405(9)
H113_2 H 0.299237 0.799237 0.700763
N31_2 N 0.07304(13) 0.60551(18) 0.56047(13)
H114_2 H 0.097284 0.604745 0.568036
O22_2 O 0.22760(13) 0.84045(16) 0.63231(17)
C112_2 C 0.01094(19) 0.5992(3) 0.5628(3)
C115_2 C 0.02206(19) 0.6156(3) 0.5282(3)
C121_2 C 0.04323(19) 0.5932(3) 0.5829(3)
C125_2 C 0.01882(12) 0.83027(12) 0.6455(2)
H120_2 H 0.029365 0.854867 0.651758
C126_2 C 0.04372(9) 0.79812(14) 0.6398(2)
C127_2 C 0.02796(11) 0.76136(13) 0.6304(2)
C130_2 C 0.21310(17) 0.81778(16) 0.65634(18)
H130_2 H 0.014759 0.643011 0.474836
O23_2 O 0.22937(13) 0.79897(17) 0.68259(17)
C134_2 C 0.08665(9) 0.80383(15) 0.64415(15)
C135_2 C 0.10524(11) 0.79281(14) 0.67907(13)
C136_2 C 0.14587(11) 0.79733(14) 0.68301(13)
H133_2 H 0.158308 0.789954 0.706377
C137_2 C 0.16790(9) 0.81287(14) 0.65204(15)
C138_2 C 0.14931(12) 0.82389(15) 0.61712(14)
H134_2 H 0.164047 0.834291 0.596397
C139_2 C 0.10868(12) 0.81937(18) 0.61318(14)
H135_2 H 0.096239 0.826745 0.589817
O24_2 O 0.05563(15) 0.72935(19) 0.6248(2)
C141_2 C 0.0504(2) 0.5758(3) 0.6233(3)
H139_2 H 0.039620 0.549628 0.624314
H140_2 H 0.037811 0.592010 0.642906
H141_2 H 0.078274 0.574826 0.628326
C143_2 C 0.0441(2) 0.6936(3) 0.6149(3)
H145_2 H 0.021490 0.693815 0.597734
H146_2 H 0.037860 0.679495 0.638614
H147_2 H 0.065830 0.680945 0.601734
O26_2 O 0.08378(15) 0.77793(19) 0.7089(2)
C144_2 C 0.1002(2) 0.7822(3) 0.7453(3)
H148_2 H 0.116215 0.759556 0.751152
H149_2 H 0.079620 0.784496 0.764713
H150_2 H 0.116248 0.805554 0.745737
N36_2 N 0.11895(13) 0.97444(13) 0.93789(12)
N39_2 N 0.10551(18) 0.93953(13) 0.92696(13)
H151_2 H 0.104745 0.931964 0.902716
O28_2 O 0.34045(16) 0.86769(17) 0.77240(13)
C148_2 C 0.0992(3) 0.9372(3) 0.98906(19)
C151_2 C 0.1156(3) 0.9718(3) 0.97794(19)
C157_2 C 0.0932(3) 0.9171(3) 0.95677(19)
C161_2 C 0.33027(12) 0.8545(2) 0.98118(12)
H157_2 H 0.354867 0.848242 0.970635
C162_2 C 0.29812(14) 0.8602(2) 0.95628(9)
C163_2 C 0.26136(13) 0.8696(2) 0.97204(11)
C166_2 C 0.31778(16) 0.84366(18) 0.78690(17)
O29_2 O 0.29897(17) 0.81741(17) 0.77063(13)
C170_2 C 0.30383(15) 0.85585(15) 0.91335(9)
C171_2 C 0.29281(14) 0.82093(13) 0.89476(11)
C172_2 C 0.29733(14) 0.81699(13) 0.85413(11)
H170_2 H 0.289954 0.793623 0.841692
C173_2 C 0.31287(14) 0.84796(15) 0.83210(9)
C174_2 C 0.32389(15) 0.88288(14) 0.85069(12)
H171_2 H 0.334291 0.903603 0.835953
C175_2 C 0.31937(18) 0.88682(14) 0.89132(12)
H172_2 H 0.326745 0.910183 0.903761
O30_2 O 0.22935(19) 0.8752(2) 0.94437(15)
C177_2 C 0.0758(3) 0.8767(3) 0.9496(2)
H176_2 H 0.049628 0.875686 0.960380
H177_2 H 0.092010 0.857094 0.962189
H178_2 H 0.074826 0.871674 0.921726
C179_2 C 0.1936(3) 0.8851(3) 0.9559(2)
H182_2 H 0.193815 0.902266 0.978510
H183_2 H 0.179495 0.861386 0.962140
H184_2 H 0.180945 0.898266 0.934170
O32_2 O 0.27793(19) 0.7911(2) 0.91622(15)
C180_2 C 0.2822(3) 0.7547(3) 0.8998(2)
H185_2 H 0.259556 0.748848 0.883785
H186_2 H 0.284496 0.735287 0.920380
H187_2 H 0.305554 0.754263 0.883752
Zn14_2 Zn 0.35753(2) 0.78286(2) 0.65696(2)
O33_2 O 0.3735(2) 0.40527(14) 0.74850(16)
N41_2 N 0.40793(11) 0.41430(11) 0.94060(12)
N42_2 N 0.43018(11) 0.34442(12) 0.79457(11)
N43_2 N 0.40426(15) 0.40835(12) 0.89977(13)
N44_2 N 0.47444(13) 0.56211(12) 0.88105(13)
N45_2 N 0.59676(12) 0.30925(12) 0.81915(13)
N46_2 N 0.60190(12) 0.34199(12) 0.79640(12)
N47_2 N 0.43953(13) 0.57304(13) 0.89449(18)
H188_2 H 0.431964 0.597284 0.895255
N48_2 N 0.43475(14) 0.3502(2) 0.83402(13)
C181_2 C 0.4220(3) 0.45162(19) 0.9448(3)
C182_2 C 0.46502(17) 0.3403(2) 0.77785(19)
C183_2 C 0.4242(3) 0.46989(19) 0.9096(3)
O34_2 O 0.36769(17) 0.72760(13) 0.65955(16)
C184_2 C 0.4372(3) 0.51094(19) 0.9008(3)
C185_2 C 0.49466(17) 0.3389(2) 0.80733(19)
C186_2 C 0.53690(17) 0.3335(2) 0.80438(19)
C187_2 C 0.4718(3) 0.52206(19) 0.8844(3)
C188_2 C 0.56604(16) 0.3576(2) 0.78759(19)
C189_2 C 0.55760(17) 0.3045(2) 0.8228(2)
C190_2 C 0.4139(3) 0.44193(19) 0.8821(3)
C191_2 C 0.47015(17) 0.3313(2) 0.73430(19)
H189_2 H 0.449653 0.313634 0.725811
H190_2 H 0.495438 0.319187 0.730059
H191_2 H 0.468604 0.355413 0.719440
C192_2 C 0.47370(17) 0.3461(2) 0.84119(19)
C193_2 C 0.4171(3) 0.54323(19) 0.9068(3)
C194_2 C 0.3732(2) 0.48731(12) 0.74324(12)
H192_2 H 0.379405 0.476772 0.767833
C195_2 C 0.3674(2) 0.46242(9) 0.71109(14)
C196_2 C 0.3581(2) 0.47818(12) 0.67433(13)
H193_2 H 0.354245 0.461520 0.652818
C197_2 C 0.3545(2) 0.51882(12) 0.66973(12)
H194_2 H 0.348242 0.529365 0.645133
C198_2 C 0.3602(2) 0.54372(9) 0.70188(14)
C199_2 C 0.3696(2) 0.52796(11) 0.73864(13)
C200_2 C 0.4304(3) 0.46867(19) 0.9842(2)
H196_2 H 0.419400 0.494783 0.985670
H197_2 H 0.458423 0.469959 0.988148
C201_2 C 0.3675(3) 0.4188(2) 0.7157(2)
C202_2 C 0.34366(18) 0.71310(17) 0.68222(16)
C203_2 C 0.56068(17) 0.3961(2) 0.7625(2)
H198_2 H 0.571287 0.418175 0.776778
H199_2 H 0.533084 0.400346 0.757601
H200_2 H 0.574379 0.393246 0.737866
C204_2 C 0.54168(17) 0.2671(2) 0.8437(2)
H201_2 H 0.563422 0.250621 0.851445
H202_2 H 0.524769 0.252816 0.826023
H203_2 H 0.526971 0.274745 0.866759
C205_2 C 0.5064(3) 0.49776(19) 0.8697(3)
H204_2 H 0.525164 0.514759 0.856989
H205_2 H 0.497141 0.478333 0.851244
H206_2 H 0.518763 0.484764 0.891695
O35_2 O 0.31741(17) 0.72937(13) 0.70103(17)
C206_2 C 0.35585(15) 0.58665(9) 0.69617(15)
C207_2 C 0.32093(13) 0.60524(11) 0.70719(14)
C208_2 C 0.31699(13) 0.64587(11) 0.70267(14)
H207_2 H 0.293623 0.658308 0.710046
C209_2 C 0.34796(15) 0.66790(9) 0.68713(14)
C210_2 C 0.38288(14) 0.64931(12) 0.67611(15)
H208_2 H 0.403603 0.664047 0.665709
C211_2 C 0.38682(14) 0.60868(12) 0.68063(18)
H209_2 H 0.410183 0.596239 0.673255
C212_2 C 0.48774(17) 0.3474(2) 0.88328(19)
H210_2 H 0.503326 0.370716 0.887369
H211_2 H 0.503499 0.324419 0.888669
H212_2 H 0.465361 0.347782 0.900703
O36_2 O 0.3752(2) 0.55563(15) 0.77065(19)
C213_2 C 0.3767(3) 0.5504(2) 0.9242(3)
H213_2 H 0.375686 0.539620 0.950372
H214_2 H 0.357094 0.537811 0.907990
H215_2 H 0.371674 0.578274 0.925174
C214_2 C 0.4140(3) 0.4429(2) 0.8376(3)
H216_2 H 0.437214 0.429712 0.827910
H217_2 H 0.414061 0.469818 0.828700
H218_2 H 0.390899 0.429721 0.827773
O37_2 O 0.3651(2) 0.39930(15) 0.68435(17)
C215_2 C 0.3851(3) 0.5441(2) 0.8064(3)
H219_2 H 0.402266 0.521490 0.806185
H220_2 H 0.361386 0.537860 0.820505
H221_2 H 0.398266 0.565830 0.819055
O38_2 O 0.2911(2) 0.58378(15) 0.72207(19)
C216_2 C 0.2547(3) 0.6002(2) 0.7178(3)
H222_2 H 0.248848 0.616215 0.740444
H223_2 H 0.235287 0.579620 0.715504
H224_2 H 0.254263 0.616248 0.694446
Zn17_2 Zn 0.39247(2) 0.09304(2) 0.96714(2)
Zn23_2 Zn 0.65696(2) 0.35753(2) 0.78286(2)
Zn30_2 Zn 0.51919(2) 0.60054(2) 0.87278(2)
Zn33_2 Zn 0.14946(2) 0.23081(2) 0.87722(2)
N59_2 N 0.40324(12) 0.80925(12) 0.68085(13)
N60_2 N 0.30925(12) 0.81915(13) 0.59676(12)
N65_2 N 0.39810(12) 0.84199(12) 0.70360(12)
N66_2 N 0.34199(12) 0.79640(12) 0.60190(12)
H226_2 H 0.29887 0.742584 0.682527
O1_2 O 0.93405(9) 0.43405(9) 0.06595(9)
H1_2 H 0.950763 0.450763 0.049237
Zn4_2 Zn 0.96714(2) 0.39247(2) 0.09304(2)
O14_2 O 0.99850(16) 0.84473(14) 0.1235(2)
O15_2 O 0.90955(16) 0.52240(13) 0.11769(17)
C83_2 C 0.98430(19) 0.9187(2) 0.22015(17)
H77_2 H 0.975811 0.936366 0.199653
H78_2 H 0.980059 0.930813 0.245438
H79_2 H 0.969440 0.894587 0.218604
C86_2 C 0.99324(12) 0.76269(12) 0.1232(2)
C87_2 C 0.96109(14) 0.78758(9) 0.1174(2)
C88_2 C 0.92433(13) 0.77182(12) 0.1081(2)
H81_2 H 0.902818 0.788480 0.104245
C89_2 C 0.91973(12) 0.73118(12) 0.1045(2)
H82_2 H 0.895133 0.720635 0.098242
C90_2 C 0.95188(14) 0.70628(9) 0.1102(2)
C91_2 C 0.98864(13) 0.72204(11) 0.1196(2)
C93_2 C 0.9657(2) 0.8312(2) 0.1175(3)
C94_2 C 0.93222(16) 0.53690(17) 0.09366(18)
H88_2 H 0.987866 0.856754 0.324379
O16_2 O 0.95103(17) 0.52063(13) 0.06741(17)
C98_2 C 0.94617(15) 0.66335(9) 0.10585(15)
C99_2 C 0.95719(14) 0.64476(11) 0.07093(13)
C100_2 C 0.95267(14) 0.60413(11) 0.06699(13)
H95_2 H 0.960046 0.591692 0.043623
C101_2 C 0.93713(14) 0.58210(9) 0.09796(15)
C102_2 C 0.92611(15) 0.60069(12) 0.13288(14)
H96_2 H 0.915709 0.585953 0.153603
C103_2 C 0.93063(18) 0.64132(12) 0.13682(14)
H97_2 H 0.923255 0.653761 0.160183
O18_2 O 0.93435(17) 0.85070(15) 0.1151(2)
O19_2 O 0.97207(19) 0.66622(15) 0.0411(2)
C108_2 C 0.9678(3) 0.6498(2) 0.0047(3)
H112_2 H 0.944446 0.633752 0.004263
H158_2 H 0.995803 0.918709 0.047660
N53_2 N 0.97444(13) 0.93789(12) 0.11895(13)
N56_2 N 0.94075(12) 0.34676(12) 0.06915(13)
N57_2 N 0.93085(13) 0.44075(12) 0.15324(12)
N62_2 N 0.90801(12) 0.35190(12) 0.04640(12)
N63_2 N 0.95360(12) 0.40801(12) 0.14810(12)
H225_2 H 0.93647 0.86995 0.0930629
Zn2_2 Zn 0.87278(2) 0.51919(2) 0.60054(2)
Zn3_2 Zn 0.85667(2) 0.625000 0.60667(2)
O2_2 O 0.8765(2) 0.49850(16) 0.65527(14)
N1_2 N 0.84207(11) 0.69060(12) 0.66430(11)
N2_2 N 0.81982(11) 0.54457(11) 0.59442(12)
N3_2 N 0.84574(15) 0.64977(13) 0.65835(12)
N4_2 N 0.77556(13) 0.63105(13) 0.81211(12)
N7_2 N 0.81047(13) 0.64449(18) 0.82304(13)
H2_2 H 0.818036 0.645255 0.847284
N8_2 N 0.81525(14) 0.58402(13) 0.6002(2)
C1_2 C 0.8280(3) 0.6948(3) 0.70162(19)
C2_2 C 0.78498(17) 0.52785(19) 0.5903(2)
C3_2 C 0.8258(3) 0.6596(3) 0.71989(19)
O3_2 O 0.88231(17) 0.40955(16) 0.97760(13)
C4_2 C 0.8128(3) 0.6508(3) 0.76094(19)
C5_2 C 0.75534(17) 0.55733(19) 0.5889(2)
C6_2 C 0.71310(17) 0.55438(19) 0.5835(2)
C7_2 C 0.7782(3) 0.6344(3) 0.77206(19)
C8_2 C 0.68396(16) 0.53759(19) 0.6076(2)
C9_2 C 0.69240(17) 0.5728(2) 0.5545(2)
C10_2 C 0.8361(3) 0.6321(3) 0.69193(19)
C11_2 C 0.77985(17) 0.48430(19) 0.5813(2)
H3_2 H 0.800347 0.475811 0.563634
H4_2 H 0.754562 0.480059 0.569187
H5_2 H 0.781396 0.469440 0.605413
C12_2 C 0.77630(17) 0.59119(19) 0.5961(2)
C13_2 C 0.8329(3) 0.6568(3) 0.79323(19)
C14_2 C 0.8768(2) 0.49324(12) 0.73731(12)
H6_2 H 0.870595 0.517833 0.726772
C15_2 C 0.8826(2) 0.46109(14) 0.71242(9)
C16_2 C 0.8919(2) 0.42433(13) 0.72818(12)
H7_2 H 0.895755 0.402818 0.711520
C17_2 C 0.8955(2) 0.41973(12) 0.76882(12)
H8_2 H 0.901758 0.395133 0.779365
C18_2 C 0.8898(2) 0.45188(14) 0.79372(9)
C19_2 C 0.8804(2) 0.48864(13) 0.77796(11)
C20_2 C 0.8196(3) 0.7342(2) 0.71867(19)
H9_2 H 0.831291 0.754197 0.702340
H10_2 H 0.830600 0.735670 0.744783
H11_2 H 0.791577 0.738148 0.719959
C21_2 C 0.8825(3) 0.4657(2) 0.6688(2)
C22_2 C 0.90634(18) 0.43222(16) 0.96310(17)
C23_2 C 0.68932(17) 0.5125(2) 0.6461(2)
H12_2 H 0.678713 0.526778 0.668175
H13_2 H 0.716916 0.507601 0.650346
H14_2 H 0.675621 0.487866 0.643246
C24_2 C 0.70832(17) 0.5937(2) 0.5171(2)
H15_2 H 0.686578 0.601445 0.500621
H16_2 H 0.725231 0.576023 0.502816
H17_2 H 0.723029 0.616759 0.524745
C25_2 C 0.7436(3) 0.6197(3) 0.74776(19)
H18_2 H 0.724836 0.606989 0.764759
H19_2 H 0.752859 0.601244 0.728333
H20_2 H 0.731237 0.641695 0.734764
O4_2 O 0.93259(17) 0.45103(17) 0.97937(13)
C26_2 C 0.89415(15) 0.44617(15) 0.83665(9)
C27_2 C 0.92907(13) 0.45719(14) 0.85524(11)
C28_2 C 0.93301(13) 0.45267(14) 0.89587(11)
H21_2 H 0.956377 0.460046 0.908308
C29_2 C 0.90204(15) 0.43713(14) 0.91790(9)
C30_2 C 0.86712(14) 0.42611(15) 0.89931(12)
H22_2 H 0.846397 0.415709 0.914047
C31_2 C 0.86318(14) 0.43063(18) 0.85868(12)
H23_2 H 0.839817 0.423255 0.846239
C32_2 C 0.76226(17) 0.63328(19) 0.5974(2)
H24_2 H 0.746674 0.637369 0.620716
H25_2 H 0.746501 0.638669 0.574419
H26_2 H 0.784639 0.650703 0.597782
O5_2 O 0.8748(2) 0.52065(19) 0.80563(15)
C33_2 C 0.8733(3) 0.6742(3) 0.8004(2)
H27_2 H 0.874314 0.700372 0.789620
H28_2 H 0.892906 0.657990 0.787811
H29_2 H 0.878326 0.675174 0.828274
C34_2 C 0.8360(3) 0.5876(3) 0.6929(2)
H30_2 H 0.812786 0.577910 0.679712
H31_2 H 0.835939 0.578700 0.719818
H32_2 H 0.859101 0.577773 0.679721
O6_2 O 0.8849(2) 0.43435(17) 0.64930(15)
C35_2 C 0.8649(3) 0.5564(3) 0.7941(2)
H33_2 H 0.847734 0.556185 0.771490
H34_2 H 0.888614 0.570505 0.787860
H35_2 H 0.851734 0.569055 0.815830
O7_2 O 0.9589(2) 0.47207(19) 0.83378(15)
C36_2 C 0.9953(3) 0.4678(3) 0.8502(2)
H38_2 H 0.995737 0.444446 0.866248
H110_2 H 0.990444 0.633785 0.998848
H111_2 H 0.965504 0.670380 0.985287
Zn11_2 Zn 0.85054(2) 0.73081(2) 0.62278(2)
O21_2 O 0.90527(14) 0.75150(16) 0.6265(2)
N25_2 N 0.91430(11) 0.55940(12) 0.59207(11)
N26_2 N 0.84442(12) 0.70543(11) 0.56982(11)
N27_2 N 0.90835(12) 0.60023(13) 0.59574(15)
N29_2 N 0.80925(12) 0.68085(13) 0.40324(12)
N30_2 N 0.84199(12) 0.70360(12) 0.39810(12)
N32_2 N 0.8502(2) 0.66598(13) 0.56525(14)
C109_2 C 0.95162(19) 0.5552(3) 0.5780(3)
C110_2 C 0.8403(2) 0.72215(19) 0.53498(17)
C111_2 C 0.96989(19) 0.5904(3) 0.5758(3)
C113_2 C 0.8389(2) 0.69267(19) 0.50534(17)
C114_2 C 0.8335(2) 0.69562(19) 0.46310(17)
C116_2 C 0.8576(2) 0.71241(19) 0.43396(16)
C117_2 C 0.8045(2) 0.6772(2) 0.44240(17)
C118_2 C 0.94193(19) 0.6179(3) 0.5861(3)
C119_2 C 0.8313(2) 0.76570(19) 0.52985(17)
H115_2 H 0.813634 0.774189 0.550347
H116_2 H 0.819187 0.769941 0.504562
H117_2 H 0.855413 0.780560 0.531396
C120_2 C 0.8461(2) 0.65881(19) 0.52630(17)
C122_2 C 0.98731(12) 0.75676(12) 0.6268(2)
H118_2 H 0.976772 0.732167 0.620595
C123_2 C 0.96242(9) 0.78891(14) 0.6326(2)
C124_2 C 0.97818(12) 0.82567(13) 0.6419(2)
H119_2 H 0.961520 0.847182 0.645755
C128_2 C 0.96867(19) 0.5158(2) 0.5696(3)
H121_2 H 0.952340 0.495803 0.581291
H122_2 H 0.994783 0.514330 0.580600
H123_2 H 0.969959 0.511852 0.541577
C129_2 C 0.9188(2) 0.7843(2) 0.6325(3)
C131_2 C 0.8961(2) 0.7375(2) 0.43932(17)
H124_2 H 0.918175 0.723222 0.428713
H125_2 H 0.900346 0.742399 0.466916
H126_2 H 0.893246 0.762134 0.425621
C132_2 C 0.7671(2) 0.6563(2) 0.45832(17)
H127_2 H 0.750621 0.648555 0.436578
H128_2 H 0.752816 0.673977 0.475231
H129_2 H 0.774745 0.633241 0.473029
C133_2 C 0.99776(19) 0.6303(3) 0.4936(3)
H131_2 H 0.978333 0.648756 0.502859
H132_2 H 0.984764 0.608305 0.481237
C140_2 C 0.8474(2) 0.61672(19) 0.51226(17)
H136_2 H 0.870716 0.612631 0.496674
H137_2 H 0.824419 0.611331 0.496501
H138_2 H 0.847782 0.599297 0.534639
C142_2 C 0.9429(2) 0.6624(3) 0.5860(3)
H142_2 H 0.929712 0.672090 0.562786
H143_2 H 0.969818 0.671300 0.585939
H144_2 H 0.929721 0.672227 0.609101
O25_2 O 0.89930(15) 0.81565(17) 0.6349(2)
Zn27_2 Zn 0.78286(2) 0.65696(2) 0.35753(2)
Zn31_2 Zn 0.73081(2) 0.62278(2) 0.85054(2)
N50_2 N 0.81211(12) 0.77556(13) 0.63105(13)
N52_2 N 0.88105(13) 0.47444(13) 0.56211(12)
C186_3 C 0.03690(17) 0.1665(2) 0.19562(19)
C188_3 C 0.06604(16) 0.1424(2) 0.21241(19)
C189_3 C 0.05760(17) 0.1955(2) 0.1772(2)
C203_3 C 0.06068(17) 0.1039(2) 0.2375(2)
H198_3 H 0.071287 0.081825 0.223222
H199_3 H 0.033084 0.099654 0.242399
H200_3 H 0.074379 0.106754 0.262134
C204_3 C 0.04168(17) 0.2329(2) 0.1563(2)
H201_3 H 0.063422 0.249379 0.148555
H202_3 H 0.024769 0.247184 0.173977
H203_3 H 0.026971 0.225255 0.133241
C205_3 C 0.0064(3) 0.00224(19) 0.1303(3)
H206_3 H 0.018763 0.015236 0.108305
H210_3 H 0.003326 0.129284 0.112631
H211_3 H 0.003499 0.175581 0.111331
H204_3 H 0.025164 0.985241 0.143011
O2_3 O 0.3765(2) 0.00150(16) 0.34473(14)
O3_3 O 0.38231(17) 0.09045(16) 0.02240(13)
C11_3 C 0.27985(17) 0.01570(19) 0.4187(2)
H3_3 H 0.300347 0.024189 0.436366
H4_3 H 0.254562 0.019941 0.430813
H5_3 H 0.281396 0.030560 0.394587
C14_3 C 0.3768(2) 0.00676(12) 0.26269(12)
C15_3 C 0.3826(2) 0.03891(14) 0.28758(9)
C16_3 C 0.3919(2) 0.07567(13) 0.27182(12)
H7_3 H 0.395755 0.097182 0.288480
C17_3 C 0.3955(2) 0.08027(12) 0.23118(12)
H8_3 H 0.401758 0.104867 0.220635
C18_3 C 0.3898(2) 0.04812(14) 0.20628(9)
C19_3 C 0.3804(2) 0.01136(13) 0.22204(11)
C21_3 C 0.3825(3) 0.0343(2) 0.3312(2)
C22_3 C 0.40634(18) 0.06778(16) 0.03690(17)
H14_3 H 0.175621 0.012134 0.356754
O4_3 O 0.43259(17) 0.04897(17) 0.02063(13)
C26_3 C 0.39415(15) 0.05383(15) 0.16335(9)
C27_3 C 0.42907(13) 0.04281(14) 0.14476(11)
C28_3 C 0.43301(13) 0.04733(14) 0.10413(11)
H21_3 H 0.456377 0.039954 0.091692
C29_3 C 0.40204(15) 0.06287(14) 0.08210(9)
C30_3 C 0.36712(14) 0.07389(15) 0.10069(12)
H22_3 H 0.346397 0.084291 0.085953
C31_3 C 0.36318(14) 0.06937(18) 0.14132(12)
H23_3 H 0.339817 0.076745 0.153761
O6_3 O 0.3849(2) 0.06565(17) 0.35070(15)
O7_3 O 0.4589(2) 0.02793(19) 0.16622(15)
C36_3 C 0.4953(3) 0.0322(3) 0.1498(2)
H36_3 H 0.501152 0.009556 0.133785
H37_3 H 0.514713 0.034496 0.170380
H38_3 H 0.495737 0.055554 0.133752
Zn5_2 Zn 0.89946(2) 0.12722(2) 0.01919(2)
Zn6_3 Zn 0.89333(2) 0.14333(2) 0.125000
N9_3 N 0.83570(11) 0.15793(11) 0.19060(12)
N10_3 N 0.90558(12) 0.18018(11) 0.04457(11)
N11_3 N 0.84165(12) 0.15426(15) 0.14977(13)
N15_3 N 0.67696(13) 0.18953(13) 0.14449(18)
H39_3 H 0.652716 0.181964 0.145255
N16_3 N 0.8998(2) 0.18475(14) 0.08402(13)
C37_3 C 0.79838(19) 0.1720(3) 0.1948(3)
C38_3 C 0.9097(2) 0.21502(17) 0.02785(19)
C39_3 C 0.78011(19) 0.1742(3) 0.1596(3)
C40_3 C 0.73906(19) 0.1872(3) 0.1508(3)
C41_3 C 0.9111(2) 0.24466(17) 0.05733(19)
C42_3 C 0.9165(2) 0.28690(17) 0.05438(19)
C43_3 C 0.72794(19) 0.2218(3) 0.1344(3)
C44_3 C 0.8924(2) 0.31604(16) 0.03759(19)
C45_3 C 0.9455(2) 0.30760(17) 0.0728(2)
C46_3 C 0.80807(19) 0.1639(3) 0.1321(3)
C48_3 C 0.9039(2) 0.22370(17) 0.09119(19)
C49_3 C 0.70677(19) 0.1671(3) 0.1568(3)
H43_3 H 0.773228 0.129405 0.017833
C56_3 C 0.78133(19) 0.1804(3) 0.2342(2)
H46_3 H 0.797660 0.168709 0.254197
H47_3 H 0.755217 0.169400 0.235670
H48_3 H 0.780041 0.208423 0.238148
C59_3 C 0.8539(2) 0.31068(17) 0.0125(2)
H49_3 H 0.831825 0.321287 0.026778
H50_3 H 0.849654 0.283084 0.007601
C60_3 C 0.9829(2) 0.29168(17) 0.0937(2)
H52_3 H 0.999379 0.313422 0.101445
H53_3 H 0.997184 0.274769 0.076023
H54_3 H 0.975255 0.276971 0.116759
C61_3 C 0.75224(19) 0.2564(3) 0.1197(3)
H55_3 H 0.735241 0.275164 0.106989
H56_3 H 0.771667 0.247141 0.101244
H57_3 H 0.765236 0.268763 0.141695
C68_3 C 0.9026(2) 0.23774(17) 0.13328(19)
H61_3 H 0.879284 0.253326 0.137369
H62_3 H 0.925581 0.253499 0.138669
H63_3 H 0.902218 0.215361 0.150703
O11_3 O 0.69437(15) 0.1252(2) 0.02065(19)
C69_3 C 0.6996(2) 0.1267(3) 0.1742(3)
H64_3 H 0.710380 0.125686 0.200372
H65_3 H 0.712189 0.107094 0.157990
H66_3 H 0.671726 0.121674 0.175174
C70_3 C 0.8071(2) 0.1640(3) 0.0876(3)
H67_3 H 0.820288 0.187214 0.077910
H68_3 H 0.780182 0.164061 0.078700
H69_3 H 0.820279 0.140899 0.077773
C71_3 C 0.7059(2) 0.1351(3) 0.0564(3)
H70_3 H 0.728510 0.152266 0.056185
H71_3 H 0.712140 0.111386 0.070505
H72_3 H 0.684170 0.148266 0.069055
H121_3 H 0.452340 0.004197 0.418709
Zn15_2 Zn 0.87722(2) 0.14946(2) 0.23081(2)
O33_3 O 0.8735(2) 0.09473(14) 0.25150(16)
N41_3 N 0.90793(11) 0.08570(11) 0.05940(12)
N42_3 N 0.93018(11) 0.15558(12) 0.20543(11)
N43_3 N 0.90426(15) 0.09165(12) 0.10023(13)
N48_3 N 0.93475(14) 0.1498(2) 0.16598(13)
C181_3 C 0.9220(3) 0.04838(19) 0.0552(3)
C182_3 C 0.96502(17) 0.1597(2) 0.22215(19)
C183_3 C 0.9242(3) 0.03011(19) 0.0904(3)
C185_3 C 0.99466(17) 0.1611(2) 0.19267(19)
C190_3 C 0.9139(3) 0.05807(19) 0.1179(3)
C191_3 C 0.97015(17) 0.1687(2) 0.26570(19)
H189_3 H 0.949653 0.186366 0.274189
H190_3 H 0.995438 0.180813 0.269941
H191_3 H 0.968604 0.144587 0.280560
C192_3 C 0.97370(17) 0.1539(2) 0.15881(19)
C194_3 C 0.8732(2) 0.01269(12) 0.25676(12)
H192_3 H 0.879405 0.023228 0.232167
C195_3 C 0.8674(2) 0.03758(9) 0.28891(14)
C196_3 C 0.8581(2) 0.02182(12) 0.32567(13)
H193_3 H 0.854245 0.038480 0.347182
C200_3 C 0.9304(3) 0.03133(19) 0.0158(2)
H196_3 H 0.919400 0.005217 0.014330
H197_3 H 0.958423 0.030041 0.011852
C201_3 C 0.8675(3) 0.0812(2) 0.2843(2)
H205_3 H 0.997141 0.021667 0.148756
C212_3 C 0.98774(17) 0.1526(2) 0.11672(19)
H212_3 H 0.965361 0.152218 0.099297
C214_3 C 0.9140(3) 0.0571(2) 0.1624(3)
H216_3 H 0.937214 0.070288 0.172090
H217_3 H 0.914061 0.030182 0.171300
H218_3 H 0.890899 0.070279 0.172227
O37_3 O 0.8651(2) 0.10070(15) 0.31565(17)
N51_2 N 0.86895(13) 0.18789(12) 0.27556(13)
O1_3 O 0.43405(9) 0.06595(9) 0.93405(9)
H1_3 H 0.450763 0.049237 0.950763
O8_3 O 0.84473(14) 0.1235(2) 0.99850(16)
O9_3 O 0.52240(13) 0.11769(17) 0.90955(16)
C47_3 C 0.9187(2) 0.22015(17) 0.98430(19)
H40_3 H 0.936366 0.199653 0.975811
H41_3 H 0.930813 0.245438 0.980059
H42_3 H 0.894587 0.218604 0.969440
C50_3 C 0.76269(12) 0.1232(2) 0.99324(12)
C51_3 C 0.78758(9) 0.1174(2) 0.96109(14)
C52_3 C 0.77182(12) 0.1081(2) 0.92433(13)
H44_3 H 0.788480 0.104245 0.902818
C53_3 C 0.73118(12) 0.1045(2) 0.91973(12)
H45_3 H 0.720635 0.098242 0.895133
C54_3 C 0.70628(9) 0.1102(2) 0.95188(14)
C55_3 C 0.72204(11) 0.1196(2) 0.98864(13)
C57_3 C 0.8312(2) 0.1175(3) 0.9657(2)
C58_3 C 0.53690(17) 0.09366(18) 0.93222(16)
H51_3 H 0.856754 0.324379 0.987866
O10_3 O 0.52063(13) 0.06741(17) 0.95103(17)
C62_3 C 0.66335(9) 0.10585(15) 0.94617(15)
C63_3 C 0.64476(11) 0.07093(13) 0.95719(14)
C64_3 C 0.60413(11) 0.06699(13) 0.95267(14)
H58_3 H 0.591692 0.043623 0.960046
C65_3 C 0.58210(9) 0.09796(15) 0.93713(14)
C66_3 C 0.60069(12) 0.13288(14) 0.92611(15)
H59_3 H 0.585953 0.153603 0.915709
C67_3 C 0.64132(12) 0.13682(14) 0.93063(18)
H60_3 H 0.653761 0.160183 0.923255
O12_3 O 0.85070(15) 0.1151(2) 0.93435(17)
O13_3 O 0.66622(15) 0.0411(2) 0.97207(19)
C72_3 C 0.6498(2) 0.0047(3) 0.9678(3)
H75_3 H 0.633752 0.004263 0.944446
H195_3 H 0.918709 0.047660 0.995803
N54_2 N 0.93789(12) 0.11895(13) 0.97444(13)
N55_2 N 0.34676(12) 0.06915(13) 0.94075(12)
N61_2 N 0.35190(12) 0.04640(12) 0.90801(12)
Zn3_3 Zn 0.35667(2) 0.875000 0.39333(2)
N1_3 N 0.34207(11) 0.80940(12) 0.33570(11)
N2_3 N 0.31982(11) 0.95543(11) 0.40558(12)
N3_3 N 0.34574(15) 0.85023(13) 0.34165(12)
N5_2 N 0.15324(12) 0.93085(13) 0.44075(12)
N6_2 N 0.14810(12) 0.95360(12) 0.40801(12)
N7_3 N 0.31047(13) 0.85551(18) 0.17696(13)
H2_3 H 0.318036 0.854745 0.152716
N8_3 N 0.31525(14) 0.91598(13) 0.3998(2)
C1_3 C 0.3280(3) 0.8052(3) 0.29838(19)
C2_3 C 0.28498(17) 0.97215(19) 0.4097(2)
C3_3 C 0.3258(3) 0.8404(3) 0.28011(19)
C4_3 C 0.3128(3) 0.8492(3) 0.23906(19)
C5_3 C 0.25534(17) 0.94267(19) 0.4111(2)
C6_3 C 0.21310(17) 0.94562(19) 0.4165(2)
C7_3 C 0.2782(3) 0.8656(3) 0.22794(19)
C8_3 C 0.18396(16) 0.96241(19) 0.3924(2)
C9_3 C 0.19240(17) 0.9272(2) 0.4455(2)
C10_3 C 0.3361(3) 0.8679(3) 0.30807(19)
C12_3 C 0.27630(17) 0.90881(19) 0.4039(2)
C13_3 C 0.3329(3) 0.8432(3) 0.20677(19)
H6_3 H 0.370595 0.982167 0.273228
C20_3 C 0.3196(3) 0.7658(2) 0.28133(19)
H9_3 H 0.331291 0.745803 0.297660
H10_3 H 0.330600 0.764330 0.255217
H11_3 H 0.291577 0.761852 0.280041
C23_3 C 0.18932(17) 0.9875(2) 0.3539(2)
H12_3 H 0.178713 0.973222 0.331825
H13_3 H 0.216916 0.992399 0.349654
C24_3 C 0.20832(17) 0.9063(2) 0.4829(2)
H15_3 H 0.186578 0.898555 0.499379
H16_3 H 0.225231 0.923977 0.497184
H17_3 H 0.223029 0.883241 0.475255
C25_3 C 0.2436(3) 0.8803(3) 0.25224(19)
H18_3 H 0.224836 0.893011 0.235241
H19_3 H 0.252859 0.898756 0.271667
H20_3 H 0.231237 0.858305 0.265236
C32_3 C 0.26226(17) 0.86672(19) 0.4026(2)
H24_3 H 0.246674 0.862631 0.379284
H25_3 H 0.246501 0.861331 0.425581
H26_3 H 0.284639 0.849297 0.402218
O5_3 O 0.3748(2) 0.97935(19) 0.19437(15)
C33_3 C 0.3733(3) 0.8258(3) 0.1996(2)
H27_3 H 0.374314 0.799628 0.210380
H28_3 H 0.392906 0.842010 0.212189
H29_3 H 0.378326 0.824826 0.171726
C34_3 C 0.3360(3) 0.9124(3) 0.3071(2)
H30_3 H 0.312786 0.922090 0.320288
H31_3 H 0.335939 0.921300 0.280182
H32_3 H 0.359101 0.922227 0.320279
C35_3 C 0.3649(3) 0.9436(3) 0.2059(2)
H33_3 H 0.347734 0.943815 0.228510
H34_3 H 0.388614 0.929495 0.212140
H35_3 H 0.351734 0.930945 0.184170
H110_3 H 0.490444 0.866215 0.001152
H111_3 H 0.465504 0.829620 0.014713
O20_3 O 0.81595(9) 0.68405(9) 0.31595(9)
H113_3 H 0.799237 0.700763 0.299237
O21_3 O 0.40527(14) 0.74850(16) 0.3735(2)
N25_3 N 0.41430(11) 0.94060(12) 0.40793(11)
N26_3 N 0.34442(12) 0.79457(11) 0.43018(11)
N27_3 N 0.40835(12) 0.89977(13) 0.40426(15)
N28_2 N 0.56211(12) 0.88105(13) 0.47444(13)
N31_3 N 0.57304(13) 0.89449(18) 0.43953(13)
H114_3 H 0.597284 0.895255 0.431964
N32_3 N 0.3502(2) 0.83402(13) 0.43475(14)
C109_3 C 0.45162(19) 0.9448(3) 0.4220(3)
C110_3 C 0.3403(2) 0.77785(19) 0.46502(17)
C111_3 C 0.46989(19) 0.9096(3) 0.4242(3)
O22_3 O 0.72760(13) 0.65955(16) 0.36769(17)
C112_3 C 0.51094(19) 0.9008(3) 0.4372(3)
C113_3 C 0.3389(2) 0.80733(19) 0.49466(17)
C114_3 C 0.3335(2) 0.80438(19) 0.53690(17)
C115_3 C 0.52206(19) 0.8844(3) 0.4718(3)
C116_3 C 0.3576(2) 0.78759(19) 0.56604(16)
C117_3 C 0.3045(2) 0.8228(2) 0.55760(17)
C118_3 C 0.44193(19) 0.8821(3) 0.4139(3)
C119_3 C 0.3313(2) 0.73430(19) 0.47015(17)
H115_3 H 0.313634 0.725811 0.449653
H116_3 H 0.319187 0.730059 0.495438
H117_3 H 0.355413 0.719440 0.468604
C120_3 C 0.3461(2) 0.84119(19) 0.47370(17)
C121_3 C 0.54323(19) 0.9068(3) 0.4171(3)
C122_3 C 0.48731(12) 0.74324(12) 0.3732(2)
H118_3 H 0.476772 0.767833 0.379405
C123_3 C 0.46242(9) 0.71109(14) 0.3674(2)
C124_3 C 0.47818(12) 0.67433(13) 0.3581(2)
H119_3 H 0.461520 0.652818 0.354245
C125_3 C 0.51882(12) 0.66973(12) 0.3545(2)
H120_3 H 0.529365 0.645133 0.348242
C126_3 C 0.54372(9) 0.70188(14) 0.3602(2)
C127_3 C 0.52796(11) 0.73864(13) 0.3696(2)
C128_3 C 0.46867(19) 0.9842(2) 0.4304(3)
H122_3 H 0.494783 0.985670 0.419400
H123_3 H 0.469959 0.988148 0.458423
C129_3 C 0.4188(2) 0.7157(2) 0.3675(3)
C130_3 C 0.71310(17) 0.68222(16) 0.34366(18)
C131_3 C 0.3961(2) 0.7625(2) 0.56068(17)
H124_3 H 0.418175 0.776778 0.571287
H125_3 H 0.400346 0.757601 0.533084
H126_3 H 0.393246 0.737866 0.574379
C132_3 C 0.2671(2) 0.8437(2) 0.54168(17)
H127_3 H 0.250621 0.851445 0.563422
H128_3 H 0.252816 0.826023 0.524769
H129_3 H 0.274745 0.866759 0.526971
C133_3 C 0.49776(19) 0.8697(3) 0.5064(3)
H130_3 H 0.514759 0.856989 0.525164
H131_3 H 0.478333 0.851244 0.497141
H132_3 H 0.484764 0.891695 0.518763
O23_3 O 0.72937(13) 0.70103(17) 0.31741(17)
C134_3 C 0.58665(9) 0.69617(15) 0.35585(15)
C135_3 C 0.60524(11) 0.70719(14) 0.32093(13)
C136_3 C 0.64587(11) 0.70267(14) 0.31699(13)
H133_3 H 0.658308 0.710046 0.293623
C137_3 C 0.66790(9) 0.68713(14) 0.34796(15)
C138_3 C 0.64931(12) 0.67611(15) 0.38288(14)
H134_3 H 0.664047 0.665709 0.403603
C139_3 C 0.60868(12) 0.68063(18) 0.38682(14)
H135_3 H 0.596239 0.673255 0.410183
C140_3 C 0.3474(2) 0.88328(19) 0.48774(17)
H136_3 H 0.370716 0.887369 0.503326
H137_3 H 0.324419 0.888669 0.503499
H138_3 H 0.347782 0.900703 0.465361
O24_3 O 0.55563(15) 0.77065(19) 0.3752(2)
C141_3 C 0.5504(2) 0.9242(3) 0.3767(3)
H139_3 H 0.539620 0.950372 0.375686
H140_3 H 0.537811 0.907990 0.357094
H141_3 H 0.578274 0.925174 0.371674
C142_3 C 0.4429(2) 0.8376(3) 0.4140(3)
H142_3 H 0.429712 0.827910 0.437214
H143_3 H 0.469818 0.828700 0.414061
H144_3 H 0.429721 0.827773 0.390899
O25_3 O 0.39930(15) 0.68435(17) 0.3651(2)
C143_3 C 0.5441(2) 0.8064(3) 0.3851(3)
H145_3 H 0.521490 0.806185 0.402266
H146_3 H 0.537860 0.820505 0.361386
H147_3 H 0.565830 0.819055 0.398266
O26_3 O 0.58378(15) 0.72207(19) 0.2911(2)
C144_3 C 0.6002(2) 0.7178(3) 0.2547(3)
H148_3 H 0.616215 0.740444 0.248848
H149_3 H 0.579620 0.715504 0.235287
H150_3 H 0.616248 0.694446 0.254263
N39_3 N 0.60551(18) 0.56047(13) 0.07304(13)
H151_3 H 0.604745 0.568036 0.097284
O28_3 O 0.84045(16) 0.63231(17) 0.22760(13)
C148_3 C 0.5992(3) 0.5628(3) 0.01094(19)
C151_3 C 0.6156(3) 0.5282(3) 0.02206(19)
C157_3 C 0.5932(3) 0.5829(3) 0.04323(19)
C161_3 C 0.83027(12) 0.6455(2) 0.01882(12)
H157_3 H 0.854867 0.651758 0.029365
C162_3 C 0.79812(14) 0.6398(2) 0.04372(9)
C163_3 C 0.76136(13) 0.6304(2) 0.02796(11)
C166_3 C 0.81778(16) 0.65634(18) 0.21310(17)
H167_3 H 0.643011 0.474836 0.014759
O29_3 O 0.79897(17) 0.68259(17) 0.22937(13)
C170_3 C 0.80383(15) 0.64415(15) 0.08665(9)
C171_3 C 0.79281(14) 0.67907(13) 0.10524(11)
C172_3 C 0.79733(14) 0.68301(13) 0.14587(11)
H170_3 H 0.789954 0.706377 0.158308
C173_3 C 0.81287(14) 0.65204(15) 0.16790(9)
C174_3 C 0.82389(15) 0.61712(14) 0.14931(12)
H171_3 H 0.834291 0.596397 0.164047
C175_3 C 0.81937(18) 0.61318(14) 0.10868(12)
H172_3 H 0.826745 0.589817 0.096239
O30_3 O 0.72935(19) 0.6248(2) 0.05563(15)
C177_3 C 0.5758(3) 0.6233(3) 0.0504(2)
H176_3 H 0.549628 0.624314 0.039620
H177_3 H 0.592010 0.642906 0.037811
H178_3 H 0.574826 0.628326 0.078274
C179_3 C 0.6936(3) 0.6149(3) 0.0441(2)
H182_3 H 0.693815 0.597734 0.021490
H183_3 H 0.679495 0.638614 0.037860
H184_3 H 0.680945 0.601734 0.065830
O32_3 O 0.77793(19) 0.7089(2) 0.08378(15)
C180_3 C 0.7822(3) 0.7453(3) 0.1002(2)
H185_3 H 0.759556 0.751152 0.116215
H186_3 H 0.784496 0.764713 0.079620
H187_3 H 0.805554 0.745737 0.116248
N47_3 N 0.93953(13) 0.92696(13) 0.10551(18)
H188_3 H 0.931964 0.902716 0.104745
O34_3 O 0.86769(17) 0.77240(13) 0.34045(16)
C184_3 C 0.9372(3) 0.98906(19) 0.0992(3)
C187_3 C 0.9718(3) 0.97794(19) 0.1156(3)
C193_3 C 0.9171(3) 0.95677(19) 0.0932(3)
C197_3 C 0.8545(2) 0.98118(12) 0.33027(12)
H194_3 H 0.848242 0.970635 0.354867
C198_3 C 0.8602(2) 0.95628(9) 0.29812(14)
C199_3 C 0.8696(2) 0.97204(11) 0.26136(13)
C202_3 C 0.84366(18) 0.78690(17) 0.31778(16)
O35_3 O 0.81741(17) 0.77063(13) 0.29897(17)
C206_3 C 0.85585(15) 0.91335(9) 0.30383(15)
C207_3 C 0.82093(13) 0.89476(11) 0.29281(14)
C208_3 C 0.81699(13) 0.85413(11) 0.29733(14)
H207_3 H 0.793623 0.841692 0.289954
C209_3 C 0.84796(15) 0.83210(9) 0.31287(14)
C210_3 C 0.88288(14) 0.85069(12) 0.32389(15)
H208_3 H 0.903603 0.835953 0.334291
C211_3 C 0.88682(14) 0.89132(12) 0.31937(18)
H209_3 H 0.910183 0.903761 0.326745
O36_3 O 0.8752(2) 0.94437(15) 0.22935(19)
C213_3 C 0.8767(3) 0.9496(2) 0.0758(3)
H213_3 H 0.875686 0.960380 0.049628
H214_3 H 0.857094 0.962189 0.092010
H215_3 H 0.871674 0.921726 0.074826
C215_3 C 0.8851(3) 0.9559(2) 0.1936(3)
H219_3 H 0.902266 0.978510 0.193815
H220_3 H 0.861386 0.962140 0.179495
H221_3 H 0.898266 0.934170 0.180945
O38_3 O 0.7911(2) 0.91622(15) 0.27793(19)
C216_3 C 0.7547(3) 0.8998(2) 0.2822(3)
H222_3 H 0.748848 0.883785 0.259556
H223_3 H 0.735287 0.920380 0.284496
H224_3 H 0.754263 0.883752 0.305554
Zn29_2 Zn 0.60054(2) 0.87278(2) 0.51919(2)
N58_2 N 0.81915(13) 0.59676(12) 0.30925(12)
N64_2 N 0.79640(12) 0.60190(12) 0.34199(12)
H226_3 H 0.79887 0.757416 0.317473
H73_3 H 0.633785 0.998848 0.990444
H74_3 H 0.670380 0.985287 0.965504
Zn9_3 Zn 0.625000 0.60667(2) 0.85667(2)
O14_3 O 0.49850(16) 0.65527(14) 0.8765(2)
N17_3 N 0.69060(12) 0.66430(11) 0.84207(11)
N18_3 N 0.54457(11) 0.59442(12) 0.81982(11)
N19_3 N 0.64977(13) 0.65835(12) 0.84574(15)
N20_2 N 0.63105(13) 0.81211(12) 0.77556(13)
N23_3 N 0.64449(18) 0.82304(13) 0.81047(13)
H76_3 H 0.645255 0.847284 0.818036
N24_3 N 0.58402(13) 0.6002(2) 0.81525(14)
C73_3 C 0.6948(3) 0.70162(19) 0.8280(3)
C74_3 C 0.52785(19) 0.5903(2) 0.78498(17)
C75_3 C 0.6596(3) 0.71989(19) 0.8258(3)
O15_3 O 0.40955(16) 0.97760(13) 0.88231(17)
C76_3 C 0.6508(3) 0.76094(19) 0.8128(3)
C77_3 C 0.55733(19) 0.5889(2) 0.75534(17)
C78_3 C 0.55438(19) 0.5835(2) 0.71310(17)
C79_3 C 0.6344(3) 0.77206(19) 0.7782(3)
C80_3 C 0.53759(19) 0.6076(2) 0.68396(16)
C81_3 C 0.5728(2) 0.5545(2) 0.69240(17)
C82_3 C 0.6321(3) 0.69193(19) 0.8361(3)
C83_3 C 0.48430(19) 0.5813(2) 0.77985(17)
H77_3 H 0.475811 0.563634 0.800347
H78_3 H 0.480059 0.569187 0.754562
H79_3 H 0.469440 0.605413 0.781396
C84_3 C 0.59119(19) 0.5961(2) 0.77630(17)
C85_3 C 0.6568(3) 0.79323(19) 0.8329(3)
C86_3 C 0.49324(12) 0.73731(12) 0.8768(2)
H80_3 H 0.517833 0.726772 0.870595
C87_3 C 0.46109(14) 0.71242(9) 0.8826(2)
C88_3 C 0.42433(13) 0.72818(12) 0.8919(2)
H81_3 H 0.402818 0.711520 0.895755
C89_3 C 0.41973(12) 0.76882(12) 0.8955(2)
H82_3 H 0.395133 0.779365 0.901758
C90_3 C 0.45188(14) 0.79372(9) 0.8898(2)
C91_3 C 0.48864(13) 0.77796(11) 0.8804(2)
C92_3 C 0.7342(2) 0.71867(19) 0.8196(3)
H83_3 H 0.754197 0.702340 0.831291
H84_3 H 0.735670 0.744783 0.830600
H85_3 H 0.738148 0.719959 0.791577
C93_3 C 0.4657(2) 0.6688(2) 0.8825(3)
C94_3 C 0.43222(16) 0.96310(17) 0.90634(18)
C95_3 C 0.5125(2) 0.6461(2) 0.68932(17)
H86_3 H 0.526778 0.668175 0.678713
H87_3 H 0.507601 0.650346 0.716916
H88_3 H 0.487866 0.643246 0.675621
C96_3 C 0.5937(2) 0.5171(2) 0.70832(17)
H89_3 H 0.601445 0.500621 0.686578
H90_3 H 0.576023 0.502816 0.725231
H91_3 H 0.616759 0.524745 0.723029
C97_3 C 0.6197(3) 0.74776(19) 0.7436(3)
H92_3 H 0.606989 0.764759 0.724836
H93_3 H 0.601244 0.728333 0.752859
H94_3 H 0.641695 0.734764 0.731237
O16_3 O 0.45103(17) 0.97937(13) 0.93259(17)
C98_3 C 0.44617(15) 0.83665(9) 0.89415(15)
C99_3 C 0.45719(14) 0.85524(11) 0.92907(13)
C100_3 C 0.45267(14) 0.89587(11) 0.93301(13)
H95_3 H 0.460046 0.908308 0.956377
C101_3 C 0.43713(14) 0.91790(9) 0.90204(15)
C102_3 C 0.42611(15) 0.89931(12) 0.86712(14)
H96_3 H 0.415709 0.914047 0.846397
C103_3 C 0.43063(18) 0.85868(12) 0.86318(14)
H97_3 H 0.423255 0.846239 0.839817
C104_3 C 0.63328(19) 0.5974(2) 0.76226(17)
H98_3 H 0.637369 0.620716 0.746674
H99_3 H 0.638669 0.574419 0.746501
H100_3 H 0.650703 0.597782 0.784639
O17_3 O 0.52065(19) 0.80563(15) 0.8748(2)
C105_3 C 0.6742(3) 0.8004(2) 0.8733(3)
H101_3 H 0.700372 0.789620 0.874314
H102_3 H 0.657990 0.787811 0.892906
H103_3 H 0.675174 0.828274 0.878326
C106_3 C 0.5876(3) 0.6929(2) 0.8360(3)
H104_3 H 0.577910 0.679712 0.812786
H105_3 H 0.578700 0.719818 0.835939
H106_3 H 0.577773 0.679721 0.859101
O18_3 O 0.43435(17) 0.64930(15) 0.8849(2)
C107_3 C 0.5564(3) 0.7941(2) 0.8649(3)
H107_3 H 0.556185 0.771490 0.847734
H108_3 H 0.570505 0.787860 0.888614
H109_3 H 0.569055 0.815830 0.851734
O19_3 O 0.47207(19) 0.83378(15) 0.9589(2)
C108_3 C 0.4678(3) 0.8502(2) 0.9953(3)
H112_3 H 0.444446 0.866248 0.995737
O27_3 O 0.75150(16) 0.6265(2) 0.90527(14)
N33_3 N 0.55940(12) 0.59207(11) 0.91430(11)
N34_3 N 0.70543(11) 0.56982(11) 0.84442(12)
N35_3 N 0.60023(13) 0.59574(15) 0.90835(12)
N37_2 N 0.68085(13) 0.40324(12) 0.80925(12)
N38_2 N 0.70360(12) 0.39810(12) 0.84199(12)
N40_3 N 0.66598(13) 0.56525(14) 0.8502(2)
C145_3 C 0.5552(3) 0.5780(3) 0.95162(19)
C146_3 C 0.72215(19) 0.53498(17) 0.8403(2)
C147_3 C 0.5904(3) 0.5758(3) 0.96989(19)
C149_3 C 0.69267(19) 0.50534(17) 0.8389(2)
C150_3 C 0.69562(19) 0.46310(17) 0.8335(2)
C152_3 C 0.71241(19) 0.43396(16) 0.8576(2)
C153_3 C 0.6772(2) 0.44240(17) 0.8045(2)
C154_3 C 0.6179(3) 0.5861(3) 0.94193(19)
C155_3 C 0.76570(19) 0.52985(17) 0.8313(2)
H152_3 H 0.774189 0.550347 0.813634
H153_3 H 0.769941 0.504562 0.819187
H154_3 H 0.780560 0.531396 0.855413
C156_3 C 0.65881(19) 0.52630(17) 0.8461(2)
C158_3 C 0.75676(12) 0.6268(2) 0.98731(12)
H155_3 H 0.732167 0.620595 0.976772
C159_3 C 0.78891(14) 0.6326(2) 0.96242(9)
C160_3 C 0.82567(13) 0.6419(2) 0.97818(12)
H156_3 H 0.847182 0.645755 0.961520
C164_3 C 0.5158(2) 0.5696(3) 0.96867(19)
H158_3 H 0.495803 0.581291 0.952340
H159_3 H 0.514330 0.580600 0.994783
H160_3 H 0.511852 0.541577 0.969959
C165_3 C 0.7843(2) 0.6325(3) 0.9188(2)
C167_3 C 0.7375(2) 0.43932(17) 0.8961(2)
H161_3 H 0.723222 0.428713 0.918175
H162_3 H 0.742399 0.466916 0.900346
H163_3 H 0.762134 0.425621 0.893246
C168_3 C 0.6563(2) 0.45832(17) 0.7671(2)
H164_3 H 0.648555 0.436578 0.750621
H165_3 H 0.673977 0.475231 0.752816
H166_3 H 0.633241 0.473029 0.774745
C169_3 C 0.6303(3) 0.4936(3) 0.99776(19)
H168_3 H 0.648756 0.502859 0.978333
H169_3 H 0.608305 0.481237 0.984764
C176_3 C 0.61672(19) 0.51226(17) 0.8474(2)
H173_3 H 0.612631 0.496674 0.870716
H174_3 H 0.611331 0.496501 0.824419
H175_3 H 0.599297 0.534639 0.847782
C178_3 C 0.6624(3) 0.5860(3) 0.9429(2)
H179_3 H 0.672090 0.562786 0.929712
H180_3 H 0.671300 0.585939 0.969818
H181_3 H 0.672227 0.609101 0.929721
O31_3 O 0.81565(17) 0.6349(2) 0.89930(15)
Zn32_2 Zn 0.62278(2) 0.85054(2) 0.73081(2)
H225_3 H 0.43647 0.63005 0.906937
C114_4 C 0.1665(2) 0.19562(19) 0.03690(17)
C116_4 C 0.1424(2) 0.21241(19) 0.06604(16)
C117_4 C 0.1955(2) 0.1772(2) 0.05760(17)
C131_4 C 0.1039(2) 0.2375(2) 0.06068(17)
H124_4 H 0.081825 0.223222 0.071287
H125_4 H 0.099654 0.242399 0.033084
H126_4 H 0.106754 0.262134 0.074379
C132_4 C 0.2329(2) 0.1563(2) 0.04168(17)
H127_4 H 0.249379 0.148555 0.063422
H128_4 H 0.247184 0.173977 0.024769
H129_4 H 0.225255 0.133241 0.026971
C133_4 C 0.00224(19) 0.1303(3) 0.0064(3)
H132_4 H 0.015236 0.108305 0.018763
H136_4 H 0.129284 0.112631 0.003326
H137_4 H 0.175581 0.111331 0.003499
Zn3_4 Zn 0.14333(2) 0.125000 0.89333(2)
N1_4 N 0.15793(11) 0.19060(12) 0.83570(11)
N2_4 N 0.18018(11) 0.04457(11) 0.90558(12)
N3_4 N 0.15426(15) 0.14977(13) 0.84165(12)
N7_4 N 0.18953(13) 0.14449(18) 0.67696(13)
H2_4 H 0.181964 0.145255 0.652716
N8_4 N 0.18475(14) 0.08402(13) 0.8998(2)
C1_4 C 0.1720(3) 0.1948(3) 0.79838(19)
C2_4 C 0.21502(17) 0.02785(19) 0.9097(2)
C3_4 C 0.1742(3) 0.1596(3) 0.78011(19)
C4_4 C 0.1872(3) 0.1508(3) 0.73906(19)
C5_4 C 0.24466(17) 0.05733(19) 0.9111(2)
C6_4 C 0.28690(17) 0.05438(19) 0.9165(2)
C7_4 C 0.2218(3) 0.1344(3) 0.72794(19)
C8_4 C 0.31604(16) 0.03759(19) 0.8924(2)
C9_4 C 0.30760(17) 0.0728(2) 0.9455(2)
C10_4 C 0.1639(3) 0.1321(3) 0.80807(19)
C12_4 C 0.22370(17) 0.09119(19) 0.9039(2)
C13_4 C 0.1671(3) 0.1568(3) 0.70677(19)
H6_4 H 0.129405 0.017833 0.773228
C20_4 C 0.1804(3) 0.2342(2) 0.78133(19)
H9_4 H 0.168709 0.254197 0.797660
H10_4 H 0.169400 0.235670 0.755217
H11_4 H 0.208423 0.238148 0.780041
C23_4 C 0.31068(17) 0.0125(2) 0.8539(2)
H12_4 H 0.321287 0.026778 0.831825
H13_4 H 0.283084 0.007601 0.849654
C24_4 C 0.29168(17) 0.0937(2) 0.9829(2)
H15_4 H 0.313422 0.101445 0.999379
H16_4 H 0.274769 0.076023 0.997184
H17_4 H 0.276971 0.116759 0.975255
C25_4 C 0.2564(3) 0.1197(3) 0.75224(19)
H18_4 H 0.275164 0.106989 0.735241
H19_4 H 0.247141 0.101244 0.771667
H20_4 H 0.268763 0.141695 0.765236
C32_4 C 0.23774(17) 0.13328(19) 0.9026(2)
H24_4 H 0.253326 0.137369 0.879284
H25_4 H 0.253499 0.138669 0.925581
H26_4 H 0.215361 0.150703 0.902218
O5_4 O 0.1252(2) 0.02065(19) 0.69437(15)
C33_4 C 0.1267(3) 0.1742(3) 0.6996(2)
H27_4 H 0.125686 0.200372 0.710380
H28_4 H 0.107094 0.157990 0.712189
H29_4 H 0.121674 0.175174 0.671726
C34_4 C 0.1640(3) 0.0876(3) 0.8071(2)
H30_4 H 0.187214 0.077910 0.820288
H31_4 H 0.164061 0.078700 0.780182
H32_4 H 0.140899 0.077773 0.820279
C35_4 C 0.1351(3) 0.0564(3) 0.7059(2)
H33_4 H 0.152266 0.056185 0.728510
H34_4 H 0.111386 0.070505 0.712140
H35_4 H 0.148266 0.069055 0.684170
O14_4 O 0.00150(16) 0.34473(14) 0.3765(2)
O15_4 O 0.09045(16) 0.02240(13) 0.38231(17)
C83_4 C 0.01570(19) 0.4187(2) 0.27985(17)
H77_4 H 0.024189 0.436366 0.300347
H78_4 H 0.019941 0.430813 0.254562
H79_4 H 0.030560 0.394587 0.281396
C86_4 C 0.00676(12) 0.26269(12) 0.3768(2)
C87_4 C 0.03891(14) 0.28758(9) 0.3826(2)
C88_4 C 0.07567(13) 0.27182(12) 0.3919(2)
H81_4 H 0.097182 0.288480 0.395755
C89_4 C 0.08027(12) 0.23118(12) 0.3955(2)
H82_4 H 0.104867 0.220635 0.401758
C90_4 C 0.04812(14) 0.20628(9) 0.3898(2)
C91_4 C 0.01136(13) 0.22204(11) 0.3804(2)
C93_4 C 0.0343(2) 0.3312(2) 0.3825(3)
C94_4 C 0.06778(16) 0.03690(17) 0.40634(18)
H88_4 H 0.012134 0.356754 0.175621
O16_4 O 0.04897(17) 0.02063(13) 0.43259(17)
C98_4 C 0.05383(15) 0.16335(9) 0.39415(15)
C99_4 C 0.04281(14) 0.14476(11) 0.42907(13)
C100_4 C 0.04733(14) 0.10413(11) 0.43301(13)
H95_4 H 0.039954 0.091692 0.456377
C101_4 C 0.06287(14) 0.08210(9) 0.40204(15)
C102_4 C 0.07389(15) 0.10069(12) 0.36712(14)
H96_4 H 0.084291 0.085953 0.346397
C103_4 C 0.06937(18) 0.14132(12) 0.36318(14)
H97_4 H 0.076745 0.153761 0.339817
O18_4 O 0.06565(17) 0.35070(15) 0.3849(2)
O19_4 O 0.02793(19) 0.16622(15) 0.4589(2)
C108_4 C 0.0322(3) 0.1498(2) 0.4953(3)
H110_4 H 0.009556 0.133785 0.501152
H111_4 H 0.034496 0.170380 0.514713
H112_4 H 0.055554 0.133752 0.495737
O21_4 O 0.09473(14) 0.25150(16) 0.8735(2)
N25_4 N 0.08570(11) 0.05940(12) 0.90793(11)
N26_4 N 0.15558(12) 0.20543(11) 0.93018(11)
N27_4 N 0.09165(12) 0.10023(13) 0.90426(15)
N32_4 N 0.1498(2) 0.16598(13) 0.93475(14)
C109_4 C 0.04838(19) 0.0552(3) 0.9220(3)
C110_4 C 0.1597(2) 0.22215(19) 0.96502(17)
C111_4 C 0.03011(19) 0.0904(3) 0.9242(3)
C113_4 C 0.1611(2) 0.19267(19) 0.99466(17)
C118_4 C 0.05807(19) 0.1179(3) 0.9139(3)
C119_4 C 0.1687(2) 0.26570(19) 0.97015(17)
H115_4 H 0.186366 0.274189 0.949653
H116_4 H 0.180813 0.269941 0.995438
H117_4 H 0.144587 0.280560 0.968604
C120_4 C 0.1539(2) 0.15881(19) 0.97370(17)
C122_4 C 0.01269(12) 0.25676(12) 0.8732(2)
H118_4 H 0.023228 0.232167 0.879405
C123_4 C 0.03758(9) 0.28891(14) 0.8674(2)
C124_4 C 0.02182(12) 0.32567(13) 0.8581(2)
H119_4 H 0.038480 0.347182 0.854245
C128_4 C 0.03133(19) 0.0158(2) 0.9304(3)
H122_4 H 0.005217 0.014330 0.919400
H123_4 H 0.030041 0.011852 0.958423
C129_4 C 0.0812(2) 0.2843(2) 0.8675(3)
H131_4 H 0.021667 0.148756 0.997141
C140_4 C 0.1526(2) 0.11672(19) 0.98774(17)
H138_4 H 0.152218 0.099297 0.965361
C142_4 C 0.0571(2) 0.1624(3) 0.9140(3)
H142_4 H 0.070288 0.172090 0.937214
H143_4 H 0.030182 0.171300 0.914061
H144_4 H 0.070279 0.172227 0.890899
O25_4 O 0.10070(15) 0.31565(17) 0.8651(2)
H158_4 H 0.004197 0.418709 0.452340
H225_4 H 0.0635302 0.36995 0.406937
O1_4 O 0.06595(9) 0.93405(9) 0.43405(9)
H1_4 H 0.049237 0.950763 0.450763
O2_4 O 0.1235(2) 0.99850(16) 0.84473(14)
O3_4 O 0.11769(17) 0.90955(16) 0.52240(13)
C11_4 C 0.22015(17) 0.98430(19) 0.9187(2)
H3_4 H 0.199653 0.975811 0.936366
H4_4 H 0.245438 0.980059 0.930813
H5_4 H 0.218604 0.969440 0.894587
C14_4 C 0.1232(2) 0.99324(12) 0.76269(12)
C15_4 C 0.1174(2) 0.96109(14) 0.78758(9)
C16_4 C 0.1081(2) 0.92433(13) 0.77182(12)
H7_4 H 0.104245 0.902818 0.788480
C17_4 C 0.1045(2) 0.91973(12) 0.73118(12)
H8_4 H 0.098242 0.895133 0.720635
C18_4 C 0.1102(2) 0.95188(14) 0.70628(9)
C19_4 C 0.1196(2) 0.98864(13) 0.72204(11)
C21_4 C 0.1175(3) 0.9657(2) 0.8312(2)
C22_4 C 0.09366(18) 0.93222(16) 0.53690(17)
H14_4 H 0.324379 0.987866 0.856754
O4_4 O 0.06741(17) 0.95103(17) 0.52063(13)
C26_4 C 0.10585(15) 0.94617(15) 0.66335(9)
C27_4 C 0.07093(13) 0.95719(14) 0.64476(11)
C28_4 C 0.06699(13) 0.95267(14) 0.60413(11)
H21_4 H 0.043623 0.960046 0.591692
C29_4 C 0.09796(15) 0.93713(14) 0.58210(9)
C30_4 C 0.13288(14) 0.92611(15) 0.60069(12)
H22_4 H 0.153603 0.915709 0.585953
C31_4 C 0.13682(14) 0.93063(18) 0.64132(12)
H23_4 H 0.160183 0.923255 0.653761
O6_4 O 0.1151(2) 0.93435(17) 0.85070(15)
O7_4 O 0.0411(2) 0.97207(19) 0.66622(15)
C36_4 C 0.0047(3) 0.9678(3) 0.6498(2)
H38_4 H 0.004263 0.944446 0.633752
H121_4 H 0.047660 0.995803 0.918709
H130_4 H 0.985241 0.143011 0.025164
H73_4 H 0.866215 0.001152 0.490444
H74_4 H 0.829620 0.014713 0.465504
Zn9_4 Zn 0.875000 0.39333(2) 0.35667(2)
N17_4 N 0.80940(12) 0.33570(11) 0.34207(11)
N18_4 N 0.95543(11) 0.40558(12) 0.31982(11)
N19_4 N 0.85023(13) 0.34165(12) 0.34574(15)
N23_4 N 0.85551(18) 0.17696(13) 0.31047(13)
H76_4 H 0.854745 0.152716 0.318036
N24_4 N 0.91598(13) 0.3998(2) 0.31525(14)
C73_4 C 0.8052(3) 0.29838(19) 0.3280(3)
C74_4 C 0.97215(19) 0.4097(2) 0.28498(17)
C75_4 C 0.8404(3) 0.28011(19) 0.3258(3)
C76_4 C 0.8492(3) 0.23906(19) 0.3128(3)
C77_4 C 0.94267(19) 0.4111(2) 0.25534(17)
C78_4 C 0.94562(19) 0.4165(2) 0.21310(17)
C79_4 C 0.8656(3) 0.22794(19) 0.2782(3)
C80_4 C 0.96241(19) 0.3924(2) 0.18396(16)
C81_4 C 0.9272(2) 0.4455(2) 0.19240(17)
C82_4 C 0.8679(3) 0.30807(19) 0.3361(3)
C84_4 C 0.90881(19) 0.4039(2) 0.27630(17)
C85_4 C 0.8432(3) 0.20677(19) 0.3329(3)
H80_4 H 0.982167 0.273228 0.370595
C92_4 C 0.7658(2) 0.28133(19) 0.3196(3)
H83_4 H 0.745803 0.297660 0.331291
H84_4 H 0.764330 0.255217 0.330600
H85_4 H 0.761852 0.280041 0.291577
C95_4 C 0.9875(2) 0.3539(2) 0.18932(17)
H86_4 H 0.973222 0.331825 0.178713
H87_4 H 0.992399 0.349654 0.216916
C96_4 C 0.9063(2) 0.4829(2) 0.20832(17)
H89_4 H 0.898555 0.499379 0.186578
H90_4 H 0.923977 0.497184 0.225231
H91_4 H 0.883241 0.475255 0.223029
C97_4 C 0.8803(3) 0.25224(19) 0.2436(3)
H92_4 H 0.893011 0.235241 0.224836
H93_4 H 0.898756 0.271667 0.252859
H94_4 H 0.858305 0.265236 0.231237
C104_4 C 0.86672(19) 0.4026(2) 0.26226(17)
H98_4 H 0.862631 0.379284 0.246674
H99_4 H 0.861331 0.425581 0.246501
H100_4 H 0.849297 0.402218 0.284639
O17_4 O 0.97935(19) 0.19437(15) 0.3748(2)
C105_4 C 0.8258(3) 0.1996(2) 0.3733(3)
H101_4 H 0.799628 0.210380 0.374314
H102_4 H 0.842010 0.212189 0.392906
H103_4 H 0.824826 0.171726 0.378326
C106_4 C 0.9124(3) 0.3071(2) 0.3360(3)
H104_4 H 0.922090 0.320288 0.312786
H105_4 H 0.921300 0.280182 0.335939
H106_4 H 0.922227 0.320279 0.359101
C107_4 C 0.9436(3) 0.2059(2) 0.3649(3)
H107_4 H 0.943815 0.228510 0.347734
H108_4 H 0.929495 0.212140 0.388614
H109_4 H 0.930945 0.184170 0.351734
O20_4 O 0.68405(9) 0.31595(9) 0.81595(9)
H113_4 H 0.700763 0.299237 0.799237
N31_4 N 0.92696(13) 0.10551(18) 0.93953(13)
H114_4 H 0.902716 0.104745 0.931964
O22_4 O 0.77240(13) 0.34045(16) 0.86769(17)
C112_4 C 0.98906(19) 0.0992(3) 0.9372(3)
C115_4 C 0.97794(19) 0.1156(3) 0.9718(3)
C121_4 C 0.95677(19) 0.0932(3) 0.9171(3)
C125_4 C 0.98118(12) 0.33027(12) 0.8545(2)
H120_4 H 0.970635 0.354867 0.848242
C126_4 C 0.95628(9) 0.29812(14) 0.8602(2)
C127_4 C 0.97204(11) 0.26136(13) 0.8696(2)
C130_4 C 0.78690(17) 0.31778(16) 0.84366(18)
O23_4 O 0.77063(13) 0.29897(17) 0.81741(17)
C134_4 C 0.91335(9) 0.30383(15) 0.85585(15)
C135_4 C 0.89476(11) 0.29281(14) 0.82093(13)
C136_4 C 0.85413(11) 0.29733(14) 0.81699(13)
H133_4 H 0.841692 0.289954 0.793623
C137_4 C 0.83210(9) 0.31287(14) 0.84796(15)
C138_4 C 0.85069(12) 0.32389(15) 0.88288(14)
H134_4 H 0.835953 0.334291 0.903603
C139_4 C 0.89132(12) 0.31937(18) 0.88682(14)
H135_4 H 0.903761 0.326745 0.910183
O24_4 O 0.94437(15) 0.22935(19) 0.8752(2)
C141_4 C 0.9496(2) 0.0758(3) 0.8767(3)
H139_4 H 0.960380 0.049628 0.875686
H140_4 H 0.962189 0.092010 0.857094
H141_4 H 0.921726 0.074826 0.871674
C143_4 C 0.9559(2) 0.1936(3) 0.8851(3)
H145_4 H 0.978510 0.193815 0.902266
H146_4 H 0.962140 0.179495 0.861386
H147_4 H 0.934170 0.180945 0.898266
O26_4 O 0.91622(15) 0.27793(19) 0.7911(2)
C144_4 C 0.8998(2) 0.2822(3) 0.7547(3)
H148_4 H 0.883785 0.259556 0.748848
H149_4 H 0.920380 0.284496 0.735287
H150_4 H 0.883752 0.305554 0.754263
O27_4 O 0.74850(16) 0.3735(2) 0.40527(14)
N33_4 N 0.94060(12) 0.40793(11) 0.41430(11)
N34_4 N 0.79457(11) 0.43018(11) 0.34442(12)
N35_4 N 0.89977(13) 0.40426(15) 0.40835(12)
N39_4 N 0.89449(18) 0.43953(13) 0.57304(13)
H151_4 H 0.895255 0.431964 0.597284
N40_4 N 0.83402(13) 0.43475(14) 0.3502(2)
C145_4 C 0.9448(3) 0.4220(3) 0.45162(19)
C146_4 C 0.77785(19) 0.46502(17) 0.3403(2)
C147_4 C 0.9096(3) 0.4242(3) 0.46989(19)
O28_4 O 0.65955(16) 0.36769(17) 0.72760(13)
C148_4 C 0.9008(3) 0.4372(3) 0.51094(19)
C149_4 C 0.80733(19) 0.49466(17) 0.3389(2)
C150_4 C 0.80438(19) 0.53690(17) 0.3335(2)
C151_4 C 0.8844(3) 0.4718(3) 0.52206(19)
C152_4 C 0.78759(19) 0.56604(16) 0.3576(2)
C153_4 C 0.8228(2) 0.55760(17) 0.3045(2)
C154_4 C 0.8821(3) 0.4139(3) 0.44193(19)
C155_4 C 0.73430(19) 0.47015(17) 0.3313(2)
H152_4 H 0.725811 0.449653 0.313634
H153_4 H 0.730059 0.495438 0.319187
H154_4 H 0.719440 0.468604 0.355413
C156_4 C 0.84119(19) 0.47370(17) 0.3461(2)
C157_4 C 0.9068(3) 0.4171(3) 0.54323(19)
C158_4 C 0.74324(12) 0.3732(2) 0.48731(12)
H155_4 H 0.767833 0.379405 0.476772
C159_4 C 0.71109(14) 0.3674(2) 0.46242(9)
C160_4 C 0.67433(13) 0.3581(2) 0.47818(12)
H156_4 H 0.652818 0.354245 0.461520
C161_4 C 0.66973(12) 0.3545(2) 0.51882(12)
H157_4 H 0.645133 0.348242 0.529365
C162_4 C 0.70188(14) 0.3602(2) 0.54372(9)
C163_4 C 0.73864(13) 0.3696(2) 0.52796(11)
C164_4 C 0.9842(2) 0.4304(3) 0.46867(19)
H159_4 H 0.985670 0.419400 0.494783
H160_4 H 0.988148 0.458423 0.469959
C165_4 C 0.7157(2) 0.3675(3) 0.4188(2)
C166_4 C 0.68222(16) 0.34366(18) 0.71310(17)
C167_4 C 0.7625(2) 0.56068(17) 0.3961(2)
H161_4 H 0.776778 0.571287 0.418175
H162_4 H 0.757601 0.533084 0.400346
H163_4 H 0.737866 0.574379 0.393246
C168_4 C 0.8437(2) 0.54168(17) 0.2671(2)
H164_4 H 0.851445 0.563422 0.250621
H165_4 H 0.826023 0.524769 0.252816
H166_4 H 0.866759 0.526971 0.274745
C169_4 C 0.8697(3) 0.5064(3) 0.49776(19)
H167_4 H 0.856989 0.525164 0.514759
H168_4 H 0.851244 0.497141 0.478333
H169_4 H 0.891695 0.518763 0.484764
O29_4 O 0.70103(17) 0.31741(17) 0.72937(13)
C170_4 C 0.69617(15) 0.35585(15) 0.58665(9)
C171_4 C 0.70719(14) 0.32093(13) 0.60524(11)
C172_4 C 0.70267(14) 0.31699(13) 0.64587(11)
H170_4 H 0.710046 0.293623 0.658308
C173_4 C 0.68713(14) 0.34796(15) 0.66790(9)
C174_4 C 0.67611(15) 0.38288(14) 0.64931(12)
H171_4 H 0.665709 0.403603 0.664047
C175_4 C 0.68063(18) 0.38682(14) 0.60868(12)
H172_4 H 0.673255 0.410183 0.596239
C176_4 C 0.88328(19) 0.48774(17) 0.3474(2)
H173_4 H 0.887369 0.503326 0.370716
H174_4 H 0.888669 0.503499 0.324419
H175_4 H 0.900703 0.465361 0.347782
O30_4 O 0.77065(19) 0.3752(2) 0.55563(15)
C177_4 C 0.9242(3) 0.3767(3) 0.5504(2)
H176_4 H 0.950372 0.375686 0.539620
H177_4 H 0.907990 0.357094 0.537811
H178_4 H 0.925174 0.371674 0.578274
C178_4 C 0.8376(3) 0.4140(3) 0.4429(2)
H179_4 H 0.827910 0.437214 0.429712
H180_4 H 0.828700 0.414061 0.469818
H181_4 H 0.827773 0.390899 0.429721
O31_4 O 0.68435(17) 0.3651(2) 0.39930(15)
C179_4 C 0.8064(3) 0.3851(3) 0.5441(2)
H182_4 H 0.806185 0.402266 0.521490
H183_4 H 0.820505 0.361386 0.537860
H184_4 H 0.819055 0.398266 0.565830
O32_4 O 0.72207(19) 0.2911(2) 0.58378(15)
C180_4 C 0.7178(3) 0.2547(3) 0.6002(2)
H185_4 H 0.740444 0.248848 0.616215
H186_4 H 0.715504 0.235287 0.579620
H187_4 H 0.694446 0.254263 0.616248
N47_4 N 0.56047(13) 0.07304(13) 0.60551(18)
H188_4 H 0.568036 0.097284 0.604745
O34_4 O 0.63231(17) 0.22760(13) 0.84045(16)
C184_4 C 0.5628(3) 0.01094(19) 0.5992(3)
C187_4 C 0.5282(3) 0.02206(19) 0.6156(3)
C193_4 C 0.5829(3) 0.04323(19) 0.5932(3)
C197_4 C 0.6455(2) 0.01882(12) 0.83027(12)
H194_4 H 0.651758 0.029365 0.854867
C198_4 C 0.6398(2) 0.04372(9) 0.79812(14)
C199_4 C 0.6304(2) 0.02796(11) 0.76136(13)
C202_4 C 0.65634(18) 0.21310(17) 0.81778(16)
H204_4 H 0.474836 0.014759 0.643011
O35_4 O 0.68259(17) 0.22937(13) 0.79897(17)
C206_4 C 0.64415(15) 0.08665(9) 0.80383(15)
C207_4 C 0.67907(13) 0.10524(11) 0.79281(14)
C208_4 C 0.68301(13) 0.14587(11) 0.79733(14)
H207_4 H 0.706377 0.158308 0.789954
C209_4 C 0.65204(15) 0.16790(9) 0.81287(14)
C210_4 C 0.61712(14) 0.14931(12) 0.82389(15)
H208_4 H 0.596397 0.164047 0.834291
C211_4 C 0.61318(14) 0.10868(12) 0.81937(18)
H209_4 H 0.589817 0.096239 0.826745
O36_4 O 0.6248(2) 0.05563(15) 0.72935(19)
C213_4 C 0.6233(3) 0.0504(2) 0.5758(3)
H213_4 H 0.624314 0.039620 0.549628
H214_4 H 0.642906 0.037811 0.592010
H215_4 H 0.628326 0.078274 0.574826
C215_4 C 0.6149(3) 0.0441(2) 0.6936(3)
H219_4 H 0.597734 0.021490 0.693815
H220_4 H 0.638614 0.037860 0.679495
H221_4 H 0.601734 0.065830 0.680945
O38_4 O 0.7089(2) 0.08378(15) 0.77793(19)
C216_4 C 0.7453(3) 0.1002(2) 0.7822(3)
H222_4 H 0.751152 0.116215 0.759556
H223_4 H 0.764713 0.079620 0.784496
H224_4 H 0.745737 0.116248 0.805554
H226_4 H 0.70113 0.242584 0.817473
H36_4 H 0.998848 0.990444 0.633785
H37_4 H 0.985287 0.965504 0.670380
Zn6_4 Zn 0.60667(2) 0.85667(2) 0.625000
O8_4 O 0.65527(14) 0.8765(2) 0.49850(16)
N9_4 N 0.66430(11) 0.84207(11) 0.69060(12)
N10_4 N 0.59442(12) 0.81982(11) 0.54457(11)
N11_4 N 0.65835(12) 0.84574(15) 0.64977(13)
N15_4 N 0.82304(13) 0.81047(13) 0.64449(18)
H39_4 H 0.847284 0.818036 0.645255
N16_4 N 0.6002(2) 0.81525(14) 0.58402(13)
C37_4 C 0.70162(19) 0.8280(3) 0.6948(3)
C38_4 C 0.5903(2) 0.78498(17) 0.52785(19)
C39_4 C 0.71989(19) 0.8258(3) 0.6596(3)
O9_4 O 0.97760(13) 0.88231(17) 0.40955(16)
C40_4 C 0.76094(19) 0.8128(3) 0.6508(3)
C41_4 C 0.5889(2) 0.75534(17) 0.55733(19)
C42_4 C 0.5835(2) 0.71310(17) 0.55438(19)
C43_4 C 0.77206(19) 0.7782(3) 0.6344(3)
C44_4 C 0.6076(2) 0.68396(16) 0.53759(19)
C45_4 C 0.5545(2) 0.69240(17) 0.5728(2)
C46_4 C 0.69193(19) 0.8361(3) 0.6321(3)
C47_4 C 0.5813(2) 0.77985(17) 0.48430(19)
H40_4 H 0.563634 0.800347 0.475811
H41_4 H 0.569187 0.754562 0.480059
H42_4 H 0.605413 0.781396 0.469440
C48_4 C 0.5961(2) 0.77630(17) 0.59119(19)
C49_4 C 0.79323(19) 0.8329(3) 0.6568(3)
C50_4 C 0.73731(12) 0.8768(2) 0.49324(12)
H43_4 H 0.726772 0.870595 0.517833
C51_4 C 0.71242(9) 0.8826(2) 0.46109(14)
C52_4 C 0.72818(12) 0.8919(2) 0.42433(13)
H44_4 H 0.711520 0.895755 0.402818
C53_4 C 0.76882(12) 0.8955(2) 0.41973(12)
H45_4 H 0.779365 0.901758 0.395133
C54_4 C 0.79372(9) 0.8898(2) 0.45188(14)
C55_4 C 0.77796(11) 0.8804(2) 0.48864(13)
C56_4 C 0.71867(19) 0.8196(3) 0.7342(2)
H46_4 H 0.702340 0.831291 0.754197
H47_4 H 0.744783 0.830600 0.735670
H48_4 H 0.719959 0.791577 0.738148
C57_4 C 0.6688(2) 0.8825(3) 0.4657(2)
C58_4 C 0.96310(17) 0.90634(18) 0.43222(16)
C59_4 C 0.6461(2) 0.68932(17) 0.5125(2)
H49_4 H 0.668175 0.678713 0.526778
H50_4 H 0.650346 0.716916 0.507601
H51_4 H 0.643246 0.675621 0.487866
C60_4 C 0.5171(2) 0.70832(17) 0.5937(2)
H52_4 H 0.500621 0.686578 0.601445
H53_4 H 0.502816 0.725231 0.576023
H54_4 H 0.524745 0.723029 0.616759
C61_4 C 0.74776(19) 0.7436(3) 0.6197(3)
H55_4 H 0.764759 0.724836 0.606989
H56_4 H 0.728333 0.752859 0.601244
H57_4 H 0.734764 0.731237 0.641695
O10_4 O 0.97937(13) 0.93259(17) 0.45103(17)
C62_4 C 0.83665(9) 0.89415(15) 0.44617(15)
C63_4 C 0.85524(11) 0.92907(13) 0.45719(14)
C64_4 C 0.89587(11) 0.93301(13) 0.45267(14)
H58_4 H 0.908308 0.956377 0.460046
C65_4 C 0.91790(9) 0.90204(15) 0.43713(14)
C66_4 C 0.89931(12) 0.86712(14) 0.42611(15)
H59_4 H 0.914047 0.846397 0.415709
C67_4 C 0.85868(12) 0.86318(14) 0.43063(18)
H60_4 H 0.846239 0.839817 0.423255
C68_4 C 0.5974(2) 0.76226(17) 0.63328(19)
H61_4 H 0.620716 0.746674 0.637369
H62_4 H 0.574419 0.746501 0.638669
H63_4 H 0.597782 0.784639 0.650703
O11_4 O 0.80563(15) 0.8748(2) 0.52065(19)
C69_4 C 0.8004(2) 0.8733(3) 0.6742(3)
H64_4 H 0.789620 0.874314 0.700372
H65_4 H 0.787811 0.892906 0.657990
H66_4 H 0.828274 0.878326 0.675174
C70_4 C 0.6929(2) 0.8360(3) 0.5876(3)
H67_4 H 0.679712 0.812786 0.577910
H68_4 H 0.719818 0.835939 0.578700
H69_4 H 0.679721 0.859101 0.577773
O12_4 O 0.64930(15) 0.8849(2) 0.43435(17)
C71_4 C 0.7941(2) 0.8649(3) 0.5564(3)
H70_4 H 0.771490 0.847734 0.556185
H71_4 H 0.787860 0.888614 0.570505
H72_4 H 0.815830 0.851734 0.569055
O13_4 O 0.83378(15) 0.9589(2) 0.47207(19)
C72_4 C 0.8502(2) 0.9953(3) 0.4678(3)
H75_4 H 0.866248 0.995737 0.444446
O33_4 O 0.6265(2) 0.90527(14) 0.75150(16)
N41_4 N 0.59207(11) 0.91430(11) 0.55940(12)
N42_4 N 0.56982(11) 0.84442(12) 0.70543(11)
N43_4 N 0.59574(15) 0.90835(12) 0.60023(13)
N48_4 N 0.56525(14) 0.8502(2) 0.66598(13)
C181_4 C 0.5780(3) 0.95162(19) 0.5552(3)
C182_4 C 0.53498(17) 0.8403(2) 0.72215(19)
C183_4 C 0.5758(3) 0.96989(19) 0.5904(3)
C185_4 C 0.50534(17) 0.8389(2) 0.69267(19)
C186_4 C 0.46310(17) 0.8335(2) 0.69562(19)
C188_4 C 0.43396(16) 0.8576(2) 0.71241(19)
C189_4 C 0.44240(17) 0.8045(2) 0.6772(2)
C190_4 C 0.5861(3) 0.94193(19) 0.6179(3)
C191_4 C 0.52985(17) 0.8313(2) 0.76570(19)
H189_4 H 0.550347 0.813634 0.774189
H190_4 H 0.504562 0.819187 0.769941
H191_4 H 0.531396 0.855413 0.780560
C192_4 C 0.52630(17) 0.8461(2) 0.65881(19)
C194_4 C 0.6268(2) 0.98731(12) 0.75676(12)
H192_4 H 0.620595 0.976772 0.732167
C195_4 C 0.6326(2) 0.96242(9) 0.78891(14)
C196_4 C 0.6419(2) 0.97818(12) 0.82567(13)
H193_4 H 0.645755 0.961520 0.847182
C200_4 C 0.5696(3) 0.96867(19) 0.5158(2)
H195_4 H 0.581291 0.952340 0.495803
H196_4 H 0.580600 0.994783 0.514330
H197_4 H 0.541577 0.969959 0.511852
C201_4 C 0.6325(3) 0.9188(2) 0.7843(2)
C203_4 C 0.43932(17) 0.8961(2) 0.7375(2)
H198_4 H 0.428713 0.918175 0.723222
H199_4 H 0.466916 0.900346 0.742399
H200_4 H 0.425621 0.893246 0.762134
C204_4 C 0.45832(17) 0.7671(2) 0.6563(2)
H201_4 H 0.436578 0.750621 0.648555
H202_4 H 0.475231 0.752816 0.673977
H203_4 H 0.473029 0.774745 0.633241
C205_4 C 0.4936(3) 0.99776(19) 0.6303(3)
H205_4 H 0.502859 0.978333 0.648756
H206_4 H 0.481237 0.984764 0.608305
C212_4 C 0.51226(17) 0.8474(2) 0.61672(19)
H210_4 H 0.496674 0.870716 0.612631
H211_4 H 0.496501 0.824419 0.611331
H212_4 H 0.534639 0.847782 0.599297
C214_4 C 0.5860(3) 0.9429(2) 0.6624(3)
H216_4 H 0.562786 0.929712 0.672090
H217_4 H 0.585939 0.969818 0.671300
H218_4 H 0.609101 0.929721 0.672227
O37_4 O 0.6349(2) 0.89930(15) 0.81565(17)
H225_5 H 0.593063 0.56353 0.13005
H226_5 H 0.182527 0.20113 0.257416
H225_6 H 0.0930629 0.93647 0.86995
H226_6 H 0.682527 0.29887 0.742584
H226_7 H 0.317473 0.79887 0.757416
H225_7 H 0.906937 0.43647 0.63005
H225_8 H 0.406937 0.0635302 0.36995
H226_8 H 0.817473 0.70113 0.242584
H225_9 H 0.13005 0.593063 0.56353
H226_9 H 0.257416 0.182527 0.20113
H225_10 H 0.86995 0.0930629 0.93647
H226_10 H 0.742584 0.682527 0.29887
H226_11 H 0.757416 0.317473 0.79887
H225_11 H 0.63005 0.906937 0.43647
H225_12 H 0.36995 0.406937 0.0635302
H226_12 H 0.242584 0.817473 0.70113
H226_13 H 0.00741569 0.45113 0.0674729
H225_13 H 0.88005 0.81353 0.656937
H225_14 H 0.61995 0.18647 0.156937
H226_14 H 0.492584 0.54887 0.567473
H226_15 H 0.507416 0.0488705 0.932527
H225_15 H 0.38005 0.68647 0.343063
H225_16 H 0.11995 0.31353 0.843063
H226_16 H 0.992584 0.95113 0.432527
H225_17 H 0.31353 0.843063 0.11995
H226_17 H 0.95113 0.432527 0.992584
H226_18 H 0.0488705 0.932527 0.507416
H225_18 H 0.68647 0.343063 0.38005
H225_19 H 0.18647 0.156937 0.61995
H226_19 H 0.54887 0.567473 0.492584
H226_20 H 0.45113 0.0674729 0.00741569
H225_20 H 0.81353 0.656937 0.88005
H225_21 H 0.343063 0.38005 0.68647
H226_21 H 0.932527 0.507416 0.0488705
H225_22 H 0.843063 0.11995 0.31353
H226_22 H 0.432527 0.992584 0.95113
H226_23 H 0.0674729 0.00741569 0.45113
H225_23 H 0.656937 0.88005 0.81353
H225_24 H 0.156937 0.61995 0.18647
H226_24 H 0.567473 0.492584 0.54887
loop_
_geom_bond_atom_site_label_1
_geom_bond_atom_site_label_2
_geom_bond_site_symmetry_1
_geom_bond_site_symmetry_2
Zn1 O1 1_555 1_555
Zn2 O2 1_555 1_555
Zn3 N3 1_555 1_555
O1 H1 1_555 1_555
O2 C21 1_555 1_555
N1 N3 1_555 1_555
N2 Zn2 1_555 1_555
N3 C10 1_555 1_555
N4 N7 1_555 1_555
N5 N6 1_555 1_555
N6 C8 1_555 1_555
N7 H2 1_555 1_555
N8 Zn3 1_555 1_555
C1 N1 1_555 1_555
C2 N2 1_555 1_555
C3 C1 1_555 1_555
O3 Zn1 1_555 1_555
C4 C3 1_555 1_555
C5 C2 1_555 1_555
C6 C5 1_555 1_555
C7 N4 1_555 1_555
C8 C6 1_555 1_555
C9 N5 1_555 1_555
C10 C3 1_555 1_555
C11 C2 1_555 1_555
H3 C11 1_555 1_555
H4 C11 1_555 1_555
H5 C11 1_555 1_555
C12 N8 1_555 1_555
C13 N7 1_555 1_555
C14 H6 1_555 1_555
C15 C14 1_555 1_555
C16 C15 1_555 1_555
H7 C16 1_555 1_555
C17 C16 1_555 1_555
H8 C17 1_555 1_555
C18 C17 1_555 1_555
C19 C14 1_555 1_555
C20 C1 1_555 1_555
H9 C20 1_555 1_555
H10 C20 1_555 1_555
H11 C20 1_555 1_555
C21 C15 1_555 1_555
C22 O3 1_555 1_555
C23 C8 1_555 1_555
H12 C23 1_555 1_555
H13 C23 1_555 1_555
H14 C23 1_555 1_555
C24 C9 1_555 1_555
H15 C24 1_555 1_555
H16 C24 1_555 1_555
H17 C24 1_555 1_555
C25 C7 1_555 1_555
H18 C25 1_555 1_555
H19 C25 1_555 1_555
H20 C25 1_555 1_555
O4 C22 1_555 1_555
C26 C18 1_555 1_555
C27 C26 1_555 1_555
C28 C27 1_555 1_555
H21 C28 1_555 1_555
C29 C22 1_555 1_555
C30 C29 1_555 1_555
H22 C30 1_555 1_555
C31 C26 1_555 1_555
H23 C31 1_555 1_555
C32 C12 1_555 1_555
H24 C32 1_555 1_555
H25 C32 1_555 1_555
H26 C32 1_555 1_555
O5 C19 1_555 1_555
C33 C13 1_555 1_555
H27 C33 1_555 1_555
H28 C33 1_555 1_555
H29 C33 1_555 1_555
C34 C10 1_555 1_555
H30 C34 1_555 1_555
H31 C34 1_555 1_555
H32 C34 1_555 1_555
O6 C21 1_555 1_555
C35 O5 1_555 1_555
H33 C35 1_555 1_555
H34 C35 1_555 1_555
H35 C35 1_555 1_555
O7 C27 1_555 1_555
C36 O7 1_555 1_555
H36 C36 1_555 1_555
H37 C36 1_555 1_555
H38 C36 1_555 1_555
Zn4 O1 1_555 1_555
Zn5 O8 1_555 1_555
Zn6 N11 1_555 1_555
O8 C57 1_555 1_555
N9 N11 1_555 1_555
N10 Zn5 1_555 1_555
N11 C46 1_555 1_555
N12 N15 1_555 1_555
N13 N14 1_555 1_555
N14 C44 1_555 1_555
N15 H39 1_555 1_555
N16 Zn6 1_555 1_555
C37 N9 1_555 1_555
C38 N10 1_555 1_555
C39 C37 1_555 1_555
O9 Zn4 1_555 1_555
C40 C39 1_555 1_555
C41 C38 1_555 1_555
C42 C41 1_555 1_555
C43 N12 1_555 1_555
C44 C42 1_555 1_555
C45 N13 1_555 1_555
C46 C39 1_555 1_555
C47 C38 1_555 1_555
H40 C47 1_555 1_555
H41 C47 1_555 1_555
H42 C47 1_555 1_555
C48 N16 1_555 1_555
C49 N15 1_555 1_555
C50 H43 1_555 1_555
C51 C50 1_555 1_555
C52 C51 1_555 1_555
H44 C52 1_555 1_555
C53 C52 1_555 1_555
H45 C53 1_555 1_555
C54 C53 1_555 1_555
C55 C50 1_555 1_555
C56 C37 1_555 1_555
H46 C56 1_555 1_555
H47 C56 1_555 1_555
H48 C56 1_555 1_555
C57 C51 1_555 1_555
C58 O9 1_555 1_555
C59 C44 1_555 1_555
H49 C59 1_555 1_555
H50 C59 1_555 1_555
H51 C59 1_555 1_555
C60 C45 1_555 1_555
H52 C60 1_555 1_555
H53 C60 1_555 1_555
H54 C60 1_555 1_555
C61 C43 1_555 1_555
H55 C61 1_555 1_555
H56 C61 1_555 1_555
H57 C61 1_555 1_555
O10 C58 1_555 1_555
C62 C54 1_555 1_555
C63 C62 1_555 1_555
C64 C63 1_555 1_555
H58 C64 1_555 1_555
C65 C58 1_555 1_555
C66 C65 1_555 1_555
H59 C66 1_555 1_555
C67 C62 1_555 1_555
H60 C67 1_555 1_555
C68 C48 1_555 1_555
H61 C68 1_555 1_555
H62 C68 1_555 1_555
H63 C68 1_555 1_555
O11 C55 1_555 1_555
C69 C49 1_555 1_555
H64 C69 1_555 1_555
H65 C69 1_555 1_555
H66 C69 1_555 1_555
C70 C46 1_555 1_555
H67 C70 1_555 1_555
H68 C70 1_555 1_555
H69 C70 1_555 1_555
O12 C57 1_555 1_555
C71 O11 1_555 1_555
H70 C71 1_555 1_555
H71 C71 1_555 1_555
H72 C71 1_555 1_555
O13 C63 1_555 1_555
C72 O13 1_555 1_555
H73 C72 1_555 1_555
H74 C72 1_555 1_555
H75 C72 1_555 1_555
Zn7 O1 1_555 1_555
Zn8 O14 1_555 1_555
Zn9 N19 1_555 1_555
O14 C93 1_555 1_555
N17 N19 1_555 1_555
N18 Zn8 1_555 1_555
N19 C82 1_555 1_555
N20 N23 1_555 1_555
N21 N22 1_555 1_555
N22 C80 1_555 1_555
N23 H76 1_555 1_555
N24 Zn9 1_555 1_555
C73 N17 1_555 1_555
C74 N18 1_555 1_555
C75 C73 1_555 1_555
O15 Zn7 1_555 1_555
C76 C75 1_555 1_555
C77 C74 1_555 1_555
C78 C77 1_555 1_555
C79 N20 1_555 1_555
C80 C78 1_555 1_555
C81 N21 1_555 1_555
C82 C75 1_555 1_555
C83 C74 1_555 1_555
H77 C83 1_555 1_555
H78 C83 1_555 1_555
H79 C83 1_555 1_555
C84 N24 1_555 1_555
C85 N23 1_555 1_555
C86 H80 1_555 1_555
C87 C86 1_555 1_555
C88 C87 1_555 1_555
H81 C88 1_555 1_555
C89 C88 1_555 1_555
H82 C89 1_555 1_555
C90 C89 1_555 1_555
C91 C86 1_555 1_555
C92 C73 1_555 1_555
H83 C92 1_555 1_555
H84 C92 1_555 1_555
H85 C92 1_555 1_555
C93 C87 1_555 1_555
C94 O15 1_555 1_555
C95 C80 1_555 1_555
H86 C95 1_555 1_555
H87 C95 1_555 1_555
H88 C95 1_555 1_555
C96 C81 1_555 1_555
H89 C96 1_555 1_555
H90 C96 1_555 1_555
H91 C96 1_555 1_555
C97 C79 1_555 1_555
H92 C97 1_555 1_555
H93 C97 1_555 1_555
H94 C97 1_555 1_555
O16 C94 1_555 1_555
C98 C90 1_555 1_555
C99 C98 1_555 1_555
C100 C99 1_555 1_555
H95 C100 1_555 1_555
C101 C94 1_555 1_555
C102 C101 1_555 1_555
H96 C102 1_555 1_555
C103 C98 1_555 1_555
H97 C103 1_555 1_555
C104 C84 1_555 1_555
H98 C104 1_555 1_555
H99 C104 1_555 1_555
H100 C104 1_555 1_555
O17 C91 1_555 1_555
C105 C85 1_555 1_555
H101 C105 1_555 1_555
H102 C105 1_555 1_555
H103 C105 1_555 1_555
C106 C82 1_555 1_555
H104 C106 1_555 1_555
H105 C106 1_555 1_555
H106 C106 1_555 1_555
O18 C93 1_555 1_555
C107 O17 1_555 1_555
H107 C107 1_555 1_555
H108 C107 1_555 1_555
H109 C107 1_555 1_555
O19 C99 1_555 1_555
C108 O19 1_555 1_555
H110 C108 1_555 1_555
H111 C108 1_555 1_555
H112 C108 1_555 1_555
Zn10 O20 1_555 1_555
Zn11 N1 1_555 1_555
O20 H113 1_555 1_555
O21 Zn11 1_555 1_555
N25 Zn2 1_555 1_555
N26 Zn11 1_555 1_555
N27 Zn3 1_555 1_555
N28 N31 1_555 1_555
N31 H114 1_555 1_555
N32 Zn3 1_555 1_555
C109 N25 1_555 1_555
C110 N26 1_555 1_555
C111 C109 1_555 1_555
O22 Zn10 1_555 1_555
C112 C111 1_555 1_555
C113 C110 1_555 1_555
C115 N28 1_555 1_555
C118 N27 1_555 1_555
C119 C110 1_555 1_555
H115 C119 1_555 1_555
H116 C119 1_555 1_555
H117 C119 1_555 1_555
C120 N32 1_555 1_555
C121 N31 1_555 1_555
C122 H118 1_555 1_555
C123 C122 1_555 1_555
C124 C123 1_555 1_555
H119 C124 1_555 1_555
C125 C124 1_555 1_555
H120 C125 1_555 1_555
C126 C125 1_555 1_555
C127 C122 1_555 1_555
C128 C109 1_555 1_555
H121 C128 1_555 1_555
H122 C128 1_555 1_555
H123 C128 1_555 1_555
C129 O21 1_555 1_555
C130 O22 1_555 1_555
O23 C130 1_555 1_555
C134 C126 1_555 1_555
C135 C134 1_555 1_555
C136 C135 1_555 1_555
H133 C136 1_555 1_555
C137 C130 1_555 1_555
C138 C137 1_555 1_555
H134 C138 1_555 1_555
C139 C134 1_555 1_555
H135 C139 1_555 1_555
C140 C120 1_555 1_555
H138 C140 1_555 1_555
O24 C127 1_555 1_555
C141 C121 1_555 1_555
H139 C141 1_555 1_555
H140 C141 1_555 1_555
H141 C141 1_555 1_555
C142 C118 1_555 1_555
H142 C142 1_555 1_555
H143 C142 1_555 1_555
H144 C142 1_555 1_555
O25 C129 1_555 1_555
C143 O24 1_555 1_555
H145 C143 1_555 1_555
H146 C143 1_555 1_555
H147 C143 1_555 1_555
O26 C135 1_555 1_555
C144 O26 1_555 1_555
H148 C144 1_555 1_555
H149 C144 1_555 1_555
H150 C144 1_555 1_555
Zn12 O20 1_555 1_555
Zn13 N17 1_555 1_555
O27 Zn13 1_555 1_555
N33 Zn8 1_555 1_555
N34 Zn13 1_555 1_555
N35 Zn9 1_555 1_555
N36 N39 1_555 1_555
N39 H151 1_555 1_555
N40 Zn9 1_555 1_555
C145 N33 1_555 1_555
C146 N34 1_555 1_555
C147 C145 1_555 1_555
O28 Zn12 1_555 1_555
C148 C147 1_555 1_555
C149 C146 1_555 1_555
C151 N36 1_555 1_555
C154 N35 1_555 1_555
C155 C146 1_555 1_555
H152 C155 1_555 1_555
H153 C155 1_555 1_555
H154 C155 1_555 1_555
C156 N40 1_555 1_555
C157 N39 1_555 1_555
C158 H155 1_555 1_555
C159 C158 1_555 1_555
C160 C159 1_555 1_555
H156 C160 1_555 1_555
C161 C160 1_555 1_555
H157 C161 1_555 1_555
C162 C161 1_555 1_555
C163 C158 1_555 1_555
C164 C145 1_555 1_555
H158 C164 1_555 1_555
H159 C164 1_555 1_555
H160 C164 1_555 1_555
C165 O27 1_555 1_555
C166 O28 1_555 1_555
O29 C166 1_555 1_555
C170 C162 1_555 1_555
C171 C170 1_555 1_555
C172 C171 1_555 1_555
H170 C172 1_555 1_555
C173 C166 1_555 1_555
C174 C173 1_555 1_555
H171 C174 1_555 1_555
C175 C170 1_555 1_555
H172 C175 1_555 1_555
C176 C156 1_555 1_555
H175 C176 1_555 1_555
O30 C163 1_555 1_555
C177 C157 1_555 1_555
H176 C177 1_555 1_555
H177 C177 1_555 1_555
H178 C177 1_555 1_555
C178 C154 1_555 1_555
H179 C178 1_555 1_555
H180 C178 1_555 1_555
H181 C178 1_555 1_555
O31 C165 1_555 1_555
C179 O30 1_555 1_555
H182 C179 1_555 1_555
H183 C179 1_555 1_555
H184 C179 1_555 1_555
O32 C171 1_555 1_555
C180 O32 1_555 1_555
H185 C180 1_555 1_555
H186 C180 1_555 1_555
H187 C180 1_555 1_555
Zn14 O20 1_555 1_555
Zn15 N9 1_555 1_555
O33 Zn15 1_555 1_555
N41 Zn5 1_555 1_555
N42 Zn15 1_555 1_555
N43 Zn6 1_555 1_555
N44 N47 1_555 1_555
N47 H188 1_555 1_555
N48 Zn6 1_555 1_555
C181 N41 1_555 1_555
C182 N42 1_555 1_555
C183 C181 1_555 1_555
O34 Zn14 1_555 1_555
C184 C183 1_555 1_555
C185 C182 1_555 1_555
C187 N44 1_555 1_555
C190 N43 1_555 1_555
C191 C182 1_555 1_555
H189 C191 1_555 1_555
H190 C191 1_555 1_555
H191 C191 1_555 1_555
C192 N48 1_555 1_555
C193 N47 1_555 1_555
C194 H192 1_555 1_555
C195 C194 1_555 1_555
C196 C195 1_555 1_555
H193 C196 1_555 1_555
C197 C196 1_555 1_555
H194 C197 1_555 1_555
C198 C197 1_555 1_555
C199 C194 1_555 1_555
C200 C181 1_555 1_555
H195 C200 1_555 1_555
H196 C200 1_555 1_555
H197 C200 1_555 1_555
C201 O33 1_555 1_555
C202 O34 1_555 1_555
O35 C202 1_555 1_555
C206 C198 1_555 1_555
C207 C206 1_555 1_555
C208 C207 1_555 1_555
H207 C208 1_555 1_555
C209 C202 1_555 1_555
C210 C209 1_555 1_555
H208 C210 1_555 1_555
C211 C206 1_555 1_555
H209 C211 1_555 1_555
C212 C192 1_555 1_555
H212 C212 1_555 1_555
O36 C199 1_555 1_555
C213 C193 1_555 1_555
H213 C213 1_555 1_555
H214 C213 1_555 1_555
H215 C213 1_555 1_555
C214 C190 1_555 1_555
H216 C214 1_555 1_555
H217 C214 1_555 1_555
H218 C214 1_555 1_555
O37 C201 1_555 1_555
C215 O36 1_555 1_555
H219 C215 1_555 1_555
H220 C215 1_555 1_555
H221 C215 1_555 1_555
O38 C207 1_555 1_555
C216 O38 1_555 1_555
H222 C216 1_555 1_555
H223 C216 1_555 1_555
H224 C216 1_555 1_555
Zn16 N5 1_555 1_555
Zn17 N14 1_555 1_555
Zn18 N13 1_555 1_555
Zn19 N22 1_555 1_555
Zn20 N21 1_555 1_555
Zn21 N6 1_555 1_555
Zn31 N4 1_555 1_555
Zn32 N20 1_555 1_555
Zn33 N12 1_555 1_555
N49 Zn13 1_555 1_555
N50 Zn11 1_555 1_555
N51 Zn15 1_555 1_555
N52 Zn2 1_555 1_555
N53 Zn8 1_555 1_555
N54 Zn5 1_555 1_555
N55 Zn1 1_555 1_555
N56 Zn4 1_555 1_555
N57 Zn7 1_555 1_555
N58 Zn12 1_555 1_555
N59 Zn14 1_555 1_555
N60 Zn10 1_555 1_555
N61 Zn7 1_555 1_555
N62 Zn1 1_555 1_555
N63 Zn4 1_555 1_555
N64 Zn10 1_555 1_555
N65 Zn12 1_555 1_555
N66 Zn14 1_555 1_555
N2 N8 1_555 1_555
C4 C7 1_555 1_555
C4 C13 1_555 1_555
C5 C12 1_555 1_555
C6 C9 1_555 1_555
C18 C19 1_555 1_555
C28 C29 1_555 1_555
C30 C31 1_555 1_555
N10 N16 1_555 1_555
C40 C43 1_555 1_555
C40 C49 1_555 1_555
C41 C48 1_555 1_555
C42 C45 1_555 1_555
C54 C55 1_555 1_555
C64 C65 1_555 1_555
C66 C67 1_555 1_555
N18 N24 1_555 1_555
C76 C79 1_555 1_555
C76 C85 1_555 1_555
C77 C84 1_555 1_555
C78 C81 1_555 1_555
C90 C91 1_555 1_555
C100 C101 1_555 1_555
C102 C103 1_555 1_555
N25 N27 1_555 1_555
N26 N32 1_555 1_555
C111 C118 1_555 1_555
C112 C115 1_555 1_555
C112 C121 1_555 1_555
C113 C120 1_555 1_555
C123 C129 1_555 1_555
C126 C127 1_555 1_555
C136 C137 1_555 1_555
C138 C139 1_555 1_555
N33 N35 1_555 1_555
N34 N40 1_555 1_555
C147 C154 1_555 1_555
C148 C151 1_555 1_555
C148 C157 1_555 1_555
C149 C156 1_555 1_555
C159 C165 1_555 1_555
C162 C163 1_555 1_555
C172 C173 1_555 1_555
C174 C175 1_555 1_555
N41 N43 1_555 1_555
N42 N48 1_555 1_555
C183 C190 1_555 1_555
C184 C187 1_555 1_555
C184 C193 1_555 1_555
C185 C192 1_555 1_555
C195 C201 1_555 1_555
C198 C199 1_555 1_555
C208 C209 1_555 1_555
C210 C211 1_555 1_555
N55 N61 1_555 1_555
N56 N62 1_555 1_555
N57 N63 1_555 1_555
N58 N64 1_555 1_555
N59 N65 1_555 1_555
N60 N66 1_555 1_555
O18 H225 1_555 1_555
O35 H226 1_555 1_555
N29 N30 1_555 1_555
N30 C116 1_555 1_555
C116 C114 1_555 1_555
C117 N29 1_555 1_555
C131 C116 1_555 1_555
H124 C131 1_555 1_555
H125 C131 1_555 1_555
H126 C131 1_555 1_555
C132 C117 1_555 1_555
H127 C132 1_555 1_555
H128 C132 1_555 1_555
H129 C132 1_555 1_555
H130 C133 1_555 1_555
H132 C133 1_555 1_555
Zn24 N30 1_555 1_555
Zn27 N29 1_555 1_555
C114 C117 1_555 1_555
N37 N38 1_555 1_555
N38 C152 1_555 1_555
C152 C150 1_555 1_555
C153 N37 1_555 1_555
C167 C152 1_555 1_555
H161 C167 1_555 1_555
H162 C167 1_555 1_555
H163 C167 1_555 1_555
C168 C153 1_555 1_555
H164 C168 1_555 1_555
H165 C168 1_555 1_555
H166 C168 1_555 1_555
H167 C169 1_555 1_555
H169 C169 1_555 1_555
Zn22 N37 1_555 1_555
Zn26 N38 1_555 1_555
C150 C153 1_555 1_555
N45 N46 1_555 1_555
N46 C188 1_555 1_555
C188 C186 1_555 1_555
C189 N45 1_555 1_555
C203 C188 1_555 1_555
H198 C203 1_555 1_555
H199 C203 1_555 1_555
H200 C203 1_555 1_555
C204 C189 1_555 1_555
H201 C204 1_555 1_555
H202 C204 1_555 1_555
H203 C204 1_555 1_555
H204 C205 1_555 1_555
H206 C205 1_555 1_555
Zn23 N46 1_555 1_555
Zn25 N45 1_555 1_555
C186 C189 1_555 1_555
N64 C152_2 1_555 1_555
C152_2 C150_2 1_555 1_555
C153_2 N58 1_555 1_555
C167_2 C152_2 1_555 1_555
H161_2 C167_2 1_555 1_555
H162_2 C167_2 1_555 1_555
H163_2 C167_2 1_555 1_555
C168_2 C153_2 1_555 1_555
H164_2 C168_2 1_555 1_555
H165_2 C168_2 1_555 1_555
H166_2 C168_2 1_555 1_555
H169_2 C169_2 1_555 1_555
C150_2 C153_2 1_555 1_555
O8_2 C57_2 1_555 1_555
H40_2 C47_2 1_555 1_555
H41_2 C47_2 1_555 1_555
H42_2 C47_2 1_555 1_555
C51_2 C50_2 1_555 1_555
C52_2 C51_2 1_555 1_555
H44_2 C52_2 1_555 1_555
C53_2 C52_2 1_555 1_555
H45_2 C53_2 1_555 1_555
C54_2 C53_2 1_555 1_555
C55_2 C50_2 1_555 1_555
C57_2 C51_2 1_555 1_555
C58_2 O9_2 1_555 1_555
O10_2 C58_2 1_555 1_555
C62_2 C54_2 1_555 1_555
C63_2 C62_2 1_555 1_555
C64_2 C63_2 1_555 1_555
H58_2 C64_2 1_555 1_555
C65_2 C58_2 1_555 1_555
C66_2 C65_2 1_555 1_555
H59_2 C66_2 1_555 1_555
C67_2 C62_2 1_555 1_555
H60_2 C67_2 1_555 1_555
O12_2 C57_2 1_555 1_555
O13_2 C63_2 1_555 1_555
C72_2 O13_2 1_555 1_555
H73_2 C72_2 1_555 1_555
H74_2 C72_2 1_555 1_555
H75_2 C72_2 1_555 1_555
Zn9_2 N19_2 1_555 1_555
N17_2 N19_2 1_555 1_555
N18_2 Zn8_2 1_555 1_555
N19_2 C82_2 1_555 1_555
N51 N23_2 1_555 1_555
N21_2 N22_2 1_555 1_555
N22_2 C80_2 1_555 1_555
N23_2 H76_2 1_555 1_555
N24_2 Zn9_2 1_555 1_555
C73_2 N17_2 1_555 1_555
C74_2 N18_2 1_555 1_555
C75_2 C73_2 1_555 1_555
C76_2 C75_2 1_555 1_555
C77_2 C74_2 1_555 1_555
C78_2 C77_2 1_555 1_555
C79_2 N51 1_555 1_555
C80_2 C78_2 1_555 1_555
C81_2 N21_2 1_555 1_555
C82_2 C75_2 1_555 1_555
C84_2 N24_2 1_555 1_555
C85_2 N23_2 1_555 1_555
C92_2 C73_2 1_555 1_555
H83_2 C92_2 1_555 1_555
H84_2 C92_2 1_555 1_555
H85_2 C92_2 1_555 1_555
C95_2 C80_2 1_555 1_555
H86_2 C95_2 1_555 1_555
H87_2 C95_2 1_555 1_555
C96_2 C81_2 1_555 1_555
H89_2 C96_2 1_555 1_555
H90_2 C96_2 1_555 1_555
H91_2 C96_2 1_555 1_555
C97_2 C79_2 1_555 1_555
H92_2 C97_2 1_555 1_555
H93_2 C97_2 1_555 1_555
H94_2 C97_2 1_555 1_555
C104_2 C84_2 1_555 1_555
H98_2 C104_2 1_555 1_555
H99_2 C104_2 1_555 1_555
H100_2 C104_2 1_555 1_555
C105_2 C85_2 1_555 1_555
H101_2 C105_2 1_555 1_555
H102_2 C105_2 1_555 1_555
H103_2 C105_2 1_555 1_555
C106_2 C82_2 1_555 1_555
H104_2 C106_2 1_555 1_555
H105_2 C106_2 1_555 1_555
H106_2 C106_2 1_555 1_555
C107_2 O17_2 1_555 1_555
H107_2 C107_2 1_555 1_555
H108_2 C107_2 1_555 1_555
H109_2 C107_2 1_555 1_555
Zn13_2 N17_2 1_555 1_555
O27_2 Zn13_2 1_555 1_555
N33_2 Zn8_2 1_555 1_555
N34_2 Zn13_2 1_555 1_555
N35_2 Zn9_2 1_555 1_555
N40_2 Zn9_2 1_555 1_555
C145_2 N33_2 1_555 1_555
C146_2 N34_2 1_555 1_555
C147_2 C145_2 1_555 1_555
C149_2 C146_2 1_555 1_555
C154_2 N35_2 1_555 1_555
C155_2 C146_2 1_555 1_555
H152_2 C155_2 1_555 1_555
H153_2 C155_2 1_555 1_555
H154_2 C155_2 1_555 1_555
C156_2 N40_2 1_555 1_555
C158_2 H155_2 1_555 1_555
C159_2 C158_2 1_555 1_555
C160_2 C159_2 1_555 1_555
H156_2 C160_2 1_555 1_555
C164_2 C145_2 1_555 1_555
H159_2 C164_2 1_555 1_555
H160_2 C164_2 1_555 1_555
C165_2 O27_2 1_555 1_555
C176_2 C156_2 1_555 1_555
H175_2 C176_2 1_555 1_555
C178_2 C154_2 1_555 1_555
H179_2 C178_2 1_555 1_555
H180_2 C178_2 1_555 1_555
H181_2 C178_2 1_555 1_555
O31_2 C165_2 1_555 1_555
Zn18 N22_2 1_555 1_555
Zn20_2 N21_2 1_555 1_555
N49_2 Zn13_2 1_555 1_555
C54_2 C55_2 1_555 1_555
C64_2 C65_2 1_555 1_555
C66_2 C67_2 1_555 1_555
N18_2 N24_2 1_555 1_555
C76_2 C79_2 1_555 1_555
C76_2 C85_2 1_555 1_555
C77_2 C84_2 1_555 1_555
C78_2 C81_2 1_555 1_555
N33_2 N35_2 1_555 1_555
N34_2 N40_2 1_555 1_555
C147_2 C154_2 1_555 1_555
C149_2 C156_2 1_555 1_555
C159_2 C165_2 1_555 1_555
Zn6_2 N11_2 1_555 1_555
N9_2 N11_2 1_555 1_555
N10_2 Zn29 1_555 1_555
N11_2 C46_2 1_555 1_555
N12_2 N15_2 1_555 1_555
N13_2 N14_2 1_555 1_555
N14_2 C44_2 1_555 1_555
N15_2 H39_2 1_555 1_555
N16_2 Zn6_2 1_555 1_555
C37_2 N9_2 1_555 1_555
C38_2 N10_2 1_555 1_555
C39_2 C37_2 1_555 1_555
C40_2 C39_2 1_555 1_555
C41_2 C38_2 1_555 1_555
C42_2 C41_2 1_555 1_555
C43_2 N12_2 1_555 1_555
C44_2 C42_2 1_555 1_555
C45_2 N13_2 1_555 1_555
C46_2 C39_2 1_555 1_555
C48_2 N16_2 1_555 1_555
C49_2 N15_2 1_555 1_555
C56_2 C37_2 1_555 1_555
H46_2 C56_2 1_555 1_555
H47_2 C56_2 1_555 1_555
H48_2 C56_2 1_555 1_555
C59_2 C44_2 1_555 1_555
H49_2 C59_2 1_555 1_555
H50_2 C59_2 1_555 1_555
C60_2 C45_2 1_555 1_555
H52_2 C60_2 1_555 1_555
H53_2 C60_2 1_555 1_555
H54_2 C60_2 1_555 1_555
C61_2 C43_2 1_555 1_555
H55_2 C61_2 1_555 1_555
H56_2 C61_2 1_555 1_555
H57_2 C61_2 1_555 1_555
C68_2 C48_2 1_555 1_555
H61_2 C68_2 1_555 1_555
H62_2 C68_2 1_555 1_555
H63_2 C68_2 1_555 1_555
C69_2 C49_2 1_555 1_555
H64_2 C69_2 1_555 1_555
H65_2 C69_2 1_555 1_555
H66_2 C69_2 1_555 1_555
C70_2 C46_2 1_555 1_555
H67_2 C70_2 1_555 1_555
H68_2 C70_2 1_555 1_555
H69_2 C70_2 1_555 1_555
C71_2 O11_2 1_555 1_555
H70_2 C71_2 1_555 1_555
H71_2 C71_2 1_555 1_555
H72_2 C71_2 1_555 1_555
Zn26 O20_2 1_555 1_555
O20_2 H113_2 1_555 1_555
N54 N31_2 1_555 1_555
N31_2 H114_2 1_555 1_555
O22_2 Zn26 1_555 1_555
C115_2 N54 1_555 1_555
C121_2 N31_2 1_555 1_555
H120_2 C125_2 1_555 1_555
C126_2 C125_2 1_555 1_555
C130_2 O22_2 1_555 1_555
O23_2 C130_2 1_555 1_555
C134_2 C126_2 1_555 1_555
C135_2 C134_2 1_555 1_555
C136_2 C135_2 1_555 1_555
H133_2 C136_2 1_555 1_555
C137_2 C130_2 1_555 1_555
C138_2 C137_2 1_555 1_555
H134_2 C138_2 1_555 1_555
C139_2 C134_2 1_555 1_555
H135_2 C139_2 1_555 1_555
O24_2 C127_2 1_555 1_555
C141_2 C121_2 1_555 1_555
H139_2 C141_2 1_555 1_555
H140_2 C141_2 1_555 1_555
H141_2 C141_2 1_555 1_555
C143_2 O24_2 1_555 1_555
H145_2 C143_2 1_555 1_555
H146_2 C143_2 1_555 1_555
H147_2 C143_2 1_555 1_555
O26_2 C135_2 1_555 1_555
C144_2 O26_2 1_555 1_555
H148_2 C144_2 1_555 1_555
H149_2 C144_2 1_555 1_555
H150_2 C144_2 1_555 1_555
Zn22 O20_2 1_555 1_555
N36_2 N39_2 1_555 1_555
N39_2 H151_2 1_555 1_555
O28_2 Zn22 1_555 1_555
C151_2 N36_2 1_555 1_555
C157_2 N39_2 1_555 1_555
H157_2 C161_2 1_555 1_555
C162_2 C161_2 1_555 1_555
C166_2 O28_2 1_555 1_555
O29_2 C166_2 1_555 1_555
C170_2 C162_2 1_555 1_555
C171_2 C170_2 1_555 1_555
C172_2 C171_2 1_555 1_555
H170_2 C172_2 1_555 1_555
C173_2 C166_2 1_555 1_555
C174_2 C173_2 1_555 1_555
H171_2 C174_2 1_555 1_555
C175_2 C170_2 1_555 1_555
H172_2 C175_2 1_555 1_555
O30_2 C163_2 1_555 1_555
C177_2 C157_2 1_555 1_555
H176_2 C177_2 1_555 1_555
H177_2 C177_2 1_555 1_555
H178_2 C177_2 1_555 1_555
C179_2 O30_2 1_555 1_555
H182_2 C179_2 1_555 1_555
H183_2 C179_2 1_555 1_555
H184_2 C179_2 1_555 1_555
O32_2 C171_2 1_555 1_555
C180_2 O32_2 1_555 1_555
H185_2 C180_2 1_555 1_555
H186_2 C180_2 1_555 1_555
H187_2 C180_2 1_555 1_555
Zn14_2 O20_2 1_555 1_555
Zn32 N9_2 1_555 1_555
O33_2 Zn32 1_555 1_555
N41_2 Zn29 1_555 1_555
N42_2 Zn32 1_555 1_555
N43_2 Zn6_2 1_555 1_555
N44_2 N47_2 1_555 1_555
N45_2 N46_2 1_555 1_555
N46_2 C188_2 1_555 1_555
N47_2 H188_2 1_555 1_555
N48_2 Zn6_2 1_555 1_555
C181_2 N41_2 1_555 1_555
C182_2 N42_2 1_555 1_555
C183_2 C181_2 1_555 1_555
O34_2 Zn14_2 1_555 1_555
C184_2 C183_2 1_555 1_555
C185_2 C182_2 1_555 1_555
C186_2 C185_2 1_555 1_555
C187_2 N44_2 1_555 1_555
C188_2 C186_2 1_555 1_555
C189_2 N45_2 1_555 1_555
C190_2 N43_2 1_555 1_555
C191_2 C182_2 1_555 1_555
H189_2 C191_2 1_555 1_555
H190_2 C191_2 1_555 1_555
H191_2 C191_2 1_555 1_555
C192_2 N48_2 1_555 1_555
C193_2 N47_2 1_555 1_555
C194_2 H192_2 1_555 1_555
C195_2 C194_2 1_555 1_555
C196_2 C195_2 1_555 1_555
H193_2 C196_2 1_555 1_555
C197_2 C196_2 1_555 1_555
H194_2 C197_2 1_555 1_555
C198_2 C197_2 1_555 1_555
C199_2 C194_2 1_555 1_555
C200_2 C181_2 1_555 1_555
H196_2 C200_2 1_555 1_555
H197_2 C200_2 1_555 1_555
C201_2 O33_2 1_555 1_555
C202_2 O34_2 1_555 1_555
C203_2 C188_2 1_555 1_555
H198_2 C203_2 1_555 1_555
H199_2 C203_2 1_555 1_555
H200_2 C203_2 1_555 1_555
C204_2 C189_2 1_555 1_555
H201_2 C204_2 1_555 1_555
H202_2 C204_2 1_555 1_555
H203_2 C204_2 1_555 1_555
C205_2 C187_2 1_555 1_555
H204_2 C205_2 1_555 1_555
H205_2 C205_2 1_555 1_555
H206_2 C205_2 1_555 1_555
O35_2 C202_2 1_555 1_555
C206_2 C198_2 1_555 1_555
C207_2 C206_2 1_555 1_555
C208_2 C207_2 1_555 1_555
H207_2 C208_2 1_555 1_555
C209_2 C202_2 1_555 1_555
C210_2 C209_2 1_555 1_555
H208_2 C210_2 1_555 1_555
C211_2 C206_2 1_555 1_555
H209_2 C211_2 1_555 1_555
C212_2 C192_2 1_555 1_555
H210_2 C212_2 1_555 1_555
H211_2 C212_2 1_555 1_555
H212_2 C212_2 1_555 1_555
O36_2 C199_2 1_555 1_555
C213_2 C193_2 1_555 1_555
H213_2 C213_2 1_555 1_555
H214_2 C213_2 1_555 1_555
H215_2 C213_2 1_555 1_555
C214_2 C190_2 1_555 1_555
H216_2 C214_2 1_555 1_555
H217_2 C214_2 1_555 1_555
H218_2 C214_2 1_555 1_555
O37_2 C201_2 1_555 1_555
C215_2 O36_2 1_555 1_555
H219_2 C215_2 1_555 1_555
H220_2 C215_2 1_555 1_555
H221_2 C215_2 1_555 1_555
O38_2 C207_2 1_555 1_555
C216_2 O38_2 1_555 1_555
H222_2 C216_2 1_555 1_555
H223_2 C216_2 1_555 1_555
H224_2 C216_2 1_555 1_555
Zn17_2 N14_2 1_555 1_555
Zn19 N13_2 1_555 1_555
Zn23_2 N46_2 1_555 1_555
Zn24 N45_2 1_555 1_555
Zn30_2 N44_2 1_555 1_555
Zn33_2 N12_2 1_555 1_555
N59_2 Zn14_2 1_555 1_555
N60_2 Zn26 1_555 1_555
N65_2 Zn22 1_555 1_555
N66_2 Zn14_2 1_555 1_555
N10_2 N16_2 1_555 1_555
C40_2 C43_2 1_555 1_555
C40_2 C49_2 1_555 1_555
C41_2 C48_2 1_555 1_555
C42_2 C45_2 1_555 1_555
C112_2 C115_2 1_555 1_555
C112_2 C121_2 1_555 1_555
C126_2 C127_2 1_555 1_555
C136_2 C137_2 1_555 1_555
C138_2 C139_2 1_555 1_555
C148_2 C151_2 1_555 1_555
C148_2 C157_2 1_555 1_555
C162_2 C163_2 1_555 1_555
C172_2 C173_2 1_555 1_555
C174_2 C175_2 1_555 1_555
N41_2 N43_2 1_555 1_555
N42_2 N48_2 1_555 1_555
C183_2 C190_2 1_555 1_555
C184_2 C187_2 1_555 1_555
C184_2 C193_2 1_555 1_555
C185_2 C192_2 1_555 1_555
C186_2 C189_2 1_555 1_555
C195_2 C201_2 1_555 1_555
C198_2 C199_2 1_555 1_555
C208_2 C209_2 1_555 1_555
C210_2 C211_2 1_555 1_555
N59_2 N65_2 1_555 1_555
N60_2 N66_2 1_555 1_555
O35_2 H226_2 1_555 1_555
Zn16 O1_2 1_555 1_555
O1_2 H1_2 1_555 1_555
Zn4_2 O1_2 1_555 1_555
Zn21 O1_2 1_555 1_555
O14_2 C93_2 1_555 1_555
O15_2 Zn21 1_555 1_555
H77_2 C83_2 1_555 1_555
H78_2 C83_2 1_555 1_555
H79_2 C83_2 1_555 1_555
C87_2 C86_2 1_555 1_555
C88_2 C87_2 1_555 1_555
H81_2 C88_2 1_555 1_555
C89_2 C88_2 1_555 1_555
H82_2 C89_2 1_555 1_555
C90_2 C89_2 1_555 1_555
C91_2 C86_2 1_555 1_555
C93_2 C87_2 1_555 1_555
C94_2 O15_2 1_555 1_555
O16_2 C94_2 1_555 1_555
C98_2 C90_2 1_555 1_555
C99_2 C98_2 1_555 1_555
C100_2 C99_2 1_555 1_555
H95_2 C100_2 1_555 1_555
C101_2 C94_2 1_555 1_555
C102_2 C101_2 1_555 1_555
H96_2 C102_2 1_555 1_555
C103_2 C98_2 1_555 1_555
H97_2 C103_2 1_555 1_555
O18_2 C93_2 1_555 1_555
O19_2 C99_2 1_555 1_555
C108_2 O19_2 1_555 1_555
H112_2 C108_2 1_555 1_555
N56_2 Zn4_2 1_555 1_555
N57_2 Zn21 1_555 1_555
N62_2 Zn16 1_555 1_555
N63_2 Zn4_2 1_555 1_555
C90_2 C91_2 1_555 1_555
C100_2 C101_2 1_555 1_555
C102_2 C103_2 1_555 1_555
N56_2 N62_2 1_555 1_555
N57_2 N63_2 1_555 1_555
O18_2 H225_2 1_555 1_555
Zn2_2 O2_2 1_555 1_555
Zn3_2 N3_2 1_555 1_555
O2_2 C21_2 1_555 1_555
N1_2 N3_2 1_555 1_555
N2_2 Zn2_2 1_555 1_555
N3_2 C10_2 1_555 1_555
N4_2 N7_2 1_555 1_555
N61 C8_2 1_555 1_555
N7_2 H2_2 1_555 1_555
N8_2 Zn3_2 1_555 1_555
C1_2 N1_2 1_555 1_555
C2_2 N2_2 1_555 1_555
C3_2 C1_2 1_555 1_555
C4_2 C3_2 1_555 1_555
C5_2 C2_2 1_555 1_555
C6_2 C5_2 1_555 1_555
C7_2 N4_2 1_555 1_555
C8_2 C6_2 1_555 1_555
C9_2 N55 1_555 1_555
C10_2 C3_2 1_555 1_555
C11_2 C2_2 1_555 1_555
H3_2 C11_2 1_555 1_555
H4_2 C11_2 1_555 1_555
H5_2 C11_2 1_555 1_555
C12_2 N8_2 1_555 1_555
C13_2 N7_2 1_555 1_555
C14_2 H6_2 1_555 1_555
C15_2 C14_2 1_555 1_555
C16_2 C15_2 1_555 1_555
H7_2 C16_2 1_555 1_555
C17_2 C16_2 1_555 1_555
H8_2 C17_2 1_555 1_555
C18_2 C17_2 1_555 1_555
C19_2 C14_2 1_555 1_555
C20_2 C1_2 1_555 1_555
H9_2 C20_2 1_555 1_555
H10_2 C20_2 1_555 1_555
H11_2 C20_2 1_555 1_555
C21_2 C15_2 1_555 1_555
C22_2 O3_2 1_555 1_555
C23_2 C8_2 1_555 1_555
H12_2 C23_2 1_555 1_555
H13_2 C23_2 1_555 1_555
H14_2 C23_2 1_555 1_555
C24_2 C9_2 1_555 1_555
H15_2 C24_2 1_555 1_555
H16_2 C24_2 1_555 1_555
H17_2 C24_2 1_555 1_555
C25_2 C7_2 1_555 1_555
H18_2 C25_2 1_555 1_555
H19_2 C25_2 1_555 1_555
H20_2 C25_2 1_555 1_555
O4_2 C22_2 1_555 1_555
C26_2 C18_2 1_555 1_555
C27_2 C26_2 1_555 1_555
C28_2 C27_2 1_555 1_555
H21_2 C28_2 1_555 1_555
C29_2 C22_2 1_555 1_555
C30_2 C29_2 1_555 1_555
H22_2 C30_2 1_555 1_555
C31_2 C26_2 1_555 1_555
H23_2 C31_2 1_555 1_555
C32_2 C12_2 1_555 1_555
H24_2 C32_2 1_555 1_555
H25_2 C32_2 1_555 1_555
H26_2 C32_2 1_555 1_555
O5_2 C19_2 1_555 1_555
C33_2 C13_2 1_555 1_555
H27_2 C33_2 1_555 1_555
H28_2 C33_2 1_555 1_555
H29_2 C33_2 1_555 1_555
C34_2 C10_2 1_555 1_555
H30_2 C34_2 1_555 1_555
H31_2 C34_2 1_555 1_555
H32_2 C34_2 1_555 1_555
O6_2 C21_2 1_555 1_555
C35_2 O5_2 1_555 1_555
H33_2 C35_2 1_555 1_555
H34_2 C35_2 1_555 1_555
H35_2 C35_2 1_555 1_555
O7_2 C27_2 1_555 1_555
C36_2 O7_2 1_555 1_555
H38_2 C36_2 1_555 1_555
Zn11_2 N1_2 1_555 1_555
O21_2 Zn11_2 1_555 1_555
N25_2 Zn2_2 1_555 1_555
N26_2 Zn11_2 1_555 1_555
N27_2 Zn3_2 1_555 1_555
N29_2 N30_2 1_555 1_555
N30_2 C116_2 1_555 1_555
N32_2 Zn3_2 1_555 1_555
C109_2 N25_2 1_555 1_555
C110_2 N26_2 1_555 1_555
C111_2 C109_2 1_555 1_555
C113_2 C110_2 1_555 1_555
C114_2 C113_2 1_555 1_555
C116_2 C114_2 1_555 1_555
C117_2 N29_2 1_555 1_555
C118_2 N27_2 1_555 1_555
C119_2 C110_2 1_555 1_555
H115_2 C119_2 1_555 1_555
H116_2 C119_2 1_555 1_555
H117_2 C119_2 1_555 1_555
C120_2 N32_2 1_555 1_555
C122_2 H118_2 1_555 1_555
C123_2 C122_2 1_555 1_555
C124_2 C123_2 1_555 1_555
H119_2 C124_2 1_555 1_555
C128_2 C109_2 1_555 1_555
H121_2 C128_2 1_555 1_555
H122_2 C128_2 1_555 1_555
H123_2 C128_2 1_555 1_555
C129_2 O21_2 1_555 1_555
C131_2 C116_2 1_555 1_555
H124_2 C131_2 1_555 1_555
H125_2 C131_2 1_555 1_555
H126_2 C131_2 1_555 1_555
C132_2 C117_2 1_555 1_555
H127_2 C132_2 1_555 1_555
H128_2 C132_2 1_555 1_555
H129_2 C132_2 1_555 1_555
H131_2 C133_2 1_555 1_555
H132_2 C133_2 1_555 1_555
C140_2 C120_2 1_555 1_555
H136_2 C140_2 1_555 1_555
H137_2 C140_2 1_555 1_555
H138_2 C140_2 1_555 1_555
C142_2 C118_2 1_555 1_555
H142_2 C142_2 1_555 1_555
H143_2 C142_2 1_555 1_555
H144_2 C142_2 1_555 1_555
O25_2 C129_2 1_555 1_555
Zn25 N30_2 1_555 1_555
Zn27_2 N29_2 1_555 1_555
Zn31_2 N4_2 1_555 1_555
N50_2 Zn11_2 1_555 1_555
N52_2 Zn2_2 1_555 1_555
N2_2 N8_2 1_555 1_555
C4_2 C7_2 1_555 1_555
C4_2 C13_2 1_555 1_555
C5_2 C12_2 1_555 1_555
C6_2 C9_2 1_555 1_555
C18_2 C19_2 1_555 1_555
C28_2 C29_2 1_555 1_555
C30_2 C31_2 1_555 1_555
N25_2 N27_2 1_555 1_555
N26_2 N32_2 1_555 1_555
C111_2 C118_2 1_555 1_555
C113_2 C120_2 1_555 1_555
C114_2 C117_2 1_555 1_555
C123_2 C129_2 1_555 1_555
N65 C188_3 1_555 1_555
C188_3 C186_3 1_555 1_555
C189_3 N59 1_555 1_555
C203_3 C188_3 1_555 1_555
H198_3 C203_3 1_555 1_555
H199_3 C203_3 1_555 1_555
H200_3 C203_3 1_555 1_555
C204_3 C189_3 1_555 1_555
H201_3 C204_3 1_555 1_555
H202_3 C204_3 1_555 1_555
H203_3 C204_3 1_555 1_555
H206_3 C205_3 1_555 1_555
C186_3 C189_3 1_555 1_555
O2_3 C21_3 1_555 1_555
H3_3 C11_3 1_555 1_555
H4_3 C11_3 1_555 1_555
H5_3 C11_3 1_555 1_555
C15_3 C14_3 1_555 1_555
C16_3 C15_3 1_555 1_555
H7_3 C16_3 1_555 1_555
C17_3 C16_3 1_555 1_555
H8_3 C17_3 1_555 1_555
C18_3 C17_3 1_555 1_555
C19_3 C14_3 1_555 1_555
C21_3 C15_3 1_555 1_555
C22_3 O3_3 1_555 1_555
O4_3 C22_3 1_555 1_555
C26_3 C18_3 1_555 1_555
C27_3 C26_3 1_555 1_555
C28_3 C27_3 1_555 1_555
H21_3 C28_3 1_555 1_555
C29_3 C22_3 1_555 1_555
C30_3 C29_3 1_555 1_555
H22_3 C30_3 1_555 1_555
C31_3 C26_3 1_555 1_555
H23_3 C31_3 1_555 1_555
O6_3 C21_3 1_555 1_555
O7_3 C27_3 1_555 1_555
C36_3 O7_3 1_555 1_555
H36_3 C36_3 1_555 1_555
H37_3 C36_3 1_555 1_555
H38_3 C36_3 1_555 1_555
Zn6_3 N11_3 1_555 1_555
N9_3 N11_3 1_555 1_555
N10_3 Zn5_2 1_555 1_555
N11_3 C46_3 1_555 1_555
N50 N15_3 1_555 1_555
N62_2 C44_3 1_555 1_555
N15_3 H39_3 1_555 1_555
N16_3 Zn6_3 1_555 1_555
C37_3 N9_3 1_555 1_555
C38_3 N10_3 1_555 1_555
C39_3 C37_3 1_555 1_555
C40_3 C39_3 1_555 1_555
C41_3 C38_3 1_555 1_555
C42_3 C41_3 1_555 1_555
C43_3 N50 1_555 1_555
C44_3 C42_3 1_555 1_555
C45_3 N56_2 1_555 1_555
C46_3 C39_3 1_555 1_555
C48_3 N16_3 1_555 1_555
C49_3 N15_3 1_555 1_555
C56_3 C37_3 1_555 1_555
H46_3 C56_3 1_555 1_555
H47_3 C56_3 1_555 1_555
H48_3 C56_3 1_555 1_555
C59_3 C44_3 1_555 1_555
H49_3 C59_3 1_555 1_555
H50_3 C59_3 1_555 1_555
C60_3 C45_3 1_555 1_555
H52_3 C60_3 1_555 1_555
H53_3 C60_3 1_555 1_555
H54_3 C60_3 1_555 1_555
C61_3 C43_3 1_555 1_555
H55_3 C61_3 1_555 1_555
H56_3 C61_3 1_555 1_555
H57_3 C61_3 1_555 1_555
C68_3 C48_3 1_555 1_555
H61_3 C68_3 1_555 1_555
H62_3 C68_3 1_555 1_555
H63_3 C68_3 1_555 1_555
C69_3 C49_3 1_555 1_555
H64_3 C69_3 1_555 1_555
H65_3 C69_3 1_555 1_555
H66_3 C69_3 1_555 1_555
C70_3 C46_3 1_555 1_555
H67_3 C70_3 1_555 1_555
H68_3 C70_3 1_555 1_555
H69_3 C70_3 1_555 1_555
C71_3 O11_3 1_555 1_555
H70_3 C71_3 1_555 1_555
H71_3 C71_3 1_555 1_555
H72_3 C71_3 1_555 1_555
Zn15_2 N9_3 1_555 1_555
O33_3 Zn15_2 1_555 1_555
N41_3 Zn5_2 1_555 1_555
N42_3 Zn15_2 1_555 1_555
N43_3 Zn6_3 1_555 1_555
N48_3 Zn6_3 1_555 1_555
C181_3 N41_3 1_555 1_555
C182_3 N42_3 1_555 1_555
C183_3 C181_3 1_555 1_555
C185_3 C182_3 1_555 1_555
C190_3 N43_3 1_555 1_555
C191_3 C182_3 1_555 1_555
H189_3 C191_3 1_555 1_555
H190_3 C191_3 1_555 1_555
H191_3 C191_3 1_555 1_555
C192_3 N48_3 1_555 1_555
C194_3 H192_3 1_555 1_555
C195_3 C194_3 1_555 1_555
C196_3 C195_3 1_555 1_555
H193_3 C196_3 1_555 1_555
C200_3 C181_3 1_555 1_555
H196_3 C200_3 1_555 1_555
H197_3 C200_3 1_555 1_555
C201_3 O33_3 1_555 1_555
C212_3 C192_3 1_555 1_555
H212_3 C212_3 1_555 1_555
C214_3 C190_3 1_555 1_555
H216_3 C214_3 1_555 1_555
H217_3 C214_3 1_555 1_555
H218_3 C214_3 1_555 1_555
O37_3 C201_3 1_555 1_555
N51_2 Zn15_2 1_555 1_555
C18_3 C19_3 1_555 1_555
C28_3 C29_3 1_555 1_555
C30_3 C31_3 1_555 1_555
N10_3 N16_3 1_555 1_555
C40_3 C43_3 1_555 1_555
C40_3 C49_3 1_555 1_555
C41_3 C48_3 1_555 1_555
C42_3 C45_3 1_555 1_555
N41_3 N43_3 1_555 1_555
N42_3 N48_3 1_555 1_555
C183_3 C190_3 1_555 1_555
C185_3 C192_3 1_555 1_555
C195_3 C201_3 1_555 1_555
Zn17_2 O1_3 1_555 1_555
O1_3 H1_3 1_555 1_555
Zn19 O1_3 1_555 1_555
O8_3 C57_3 1_555 1_555
O9_3 Zn19 1_555 1_555
H40_3 C47_3 1_555 1_555
H41_3 C47_3 1_555 1_555
H42_3 C47_3 1_555 1_555
C51_3 C50_3 1_555 1_555
C52_3 C51_3 1_555 1_555
H44_3 C52_3 1_555 1_555
C53_3 C52_3 1_555 1_555
H45_3 C53_3 1_555 1_555
C54_3 C53_3 1_555 1_555
C55_3 C50_3 1_555 1_555
C57_3 C51_3 1_555 1_555
C58_3 O9_3 1_555 1_555
O10_3 C58_3 1_555 1_555
C62_3 C54_3 1_555 1_555
C63_3 C62_3 1_555 1_555
C64_3 C63_3 1_555 1_555
H58_3 C64_3 1_555 1_555
C65_3 C58_3 1_555 1_555
C66_3 C65_3 1_555 1_555
H59_3 C66_3 1_555 1_555
C67_3 C62_3 1_555 1_555
H60_3 C67_3 1_555 1_555
O12_3 C57_3 1_555 1_555
O13_3 C63_3 1_555 1_555
C72_3 O13_3 1_555 1_555
H75_3 C72_3 1_555 1_555
Zn20 O1_3 1_555 1_555
N55_2 Zn17_2 1_555 1_555
N61_2 Zn20 1_555 1_555
C54_3 C55_3 1_555 1_555
C64_3 C65_3 1_555 1_555
C66_3 C67_3 1_555 1_555
N55_2 N61_2 1_555 1_555
Zn3_3 N3_3 1_555 1_555
N1_3 N3_3 1_555 1_555
N2_3 Zn28 1_555 1_555
N3_3 C10_3 1_555 1_555
N49_2 N7_3 1_555 1_555
N5_2 N6_2 1_555 1_555
N6_2 C8_3 1_555 1_555
N7_3 H2_3 1_555 1_555
N8_3 Zn3_3 1_555 1_555
C1_3 N1_3 1_555 1_555
C2_3 N2_3 1_555 1_555
C3_3 C1_3 1_555 1_555
C4_3 C3_3 1_555 1_555
C5_3 C2_3 1_555 1_555
C6_3 C5_3 1_555 1_555
C7_3 N49_2 1_555 1_555
C8_3 C6_3 1_555 1_555
C9_3 N5_2 1_555 1_555
C10_3 C3_3 1_555 1_555
C12_3 N8_3 1_555 1_555
C13_3 N7_3 1_555 1_555
C20_3 C1_3 1_555 1_555
H9_3 C20_3 1_555 1_555
H10_3 C20_3 1_555 1_555
H11_3 C20_3 1_555 1_555
C23_3 C8_3 1_555 1_555
H12_3 C23_3 1_555 1_555
H13_3 C23_3 1_555 1_555
C24_3 C9_3 1_555 1_555
H15_3 C24_3 1_555 1_555
H16_3 C24_3 1_555 1_555
H17_3 C24_3 1_555 1_555
C25_3 C7_3 1_555 1_555
H18_3 C25_3 1_555 1_555
H19_3 C25_3 1_555 1_555
H20_3 C25_3 1_555 1_555
C32_3 C12_3 1_555 1_555
H24_3 C32_3 1_555 1_555
H25_3 C32_3 1_555 1_555
H26_3 C32_3 1_555 1_555
C33_3 C13_3 1_555 1_555
H27_3 C33_3 1_555 1_555
H28_3 C33_3 1_555 1_555
H29_3 C33_3 1_555 1_555
C34_3 C10_3 1_555 1_555
H30_3 C34_3 1_555 1_555
H31_3 C34_3 1_555 1_555
H32_3 C34_3 1_555 1_555
C35_3 O5_3 1_555 1_555
H33_3 C35_3 1_555 1_555
H34_3 C35_3 1_555 1_555
H35_3 C35_3 1_555 1_555
Zn27_2 O20_3 1_555 1_555
Zn33 N1_3 1_555 1_555
O20_3 H113_3 1_555 1_555
O21_3 Zn33 1_555 1_555
N25_3 Zn28 1_555 1_555
N26_3 Zn33 1_555 1_555
N27_3 Zn3_3 1_555 1_555
N28_2 N31_3 1_555 1_555
N66_2 C116_3 1_555 1_555
N31_3 H114_3 1_555 1_555
N32_3 Zn3_3 1_555 1_555
C109_3 N25_3 1_555 1_555
C110_3 N26_3 1_555 1_555
C111_3 C109_3 1_555 1_555
O22_3 Zn27_2 1_555 1_555
C112_3 C111_3 1_555 1_555
C113_3 C110_3 1_555 1_555
C114_3 C113_3 1_555 1_555
C115_3 N28_2 1_555 1_555
C116_3 C114_3 1_555 1_555
C117_3 N60_2 1_555 1_555
C118_3 N27_3 1_555 1_555
C119_3 C110_3 1_555 1_555
H115_3 C119_3 1_555 1_555
H116_3 C119_3 1_555 1_555
H117_3 C119_3 1_555 1_555
C120_3 N32_3 1_555 1_555
C121_3 N31_3 1_555 1_555
C122_3 H118_3 1_555 1_555
C123_3 C122_3 1_555 1_555
C124_3 C123_3 1_555 1_555
H119_3 C124_3 1_555 1_555
C125_3 C124_3 1_555 1_555
H120_3 C125_3 1_555 1_555
C126_3 C125_3 1_555 1_555
C127_3 C122_3 1_555 1_555
C128_3 C109_3 1_555 1_555
H122_3 C128_3 1_555 1_555
H123_3 C128_3 1_555 1_555
C129_3 O21_3 1_555 1_555
C130_3 O22_3 1_555 1_555
C131_3 C116_3 1_555 1_555
H124_3 C131_3 1_555 1_555
H125_3 C131_3 1_555 1_555
H126_3 C131_3 1_555 1_555
C132_3 C117_3 1_555 1_555
H127_3 C132_3 1_555 1_555
H128_3 C132_3 1_555 1_555
H129_3 C132_3 1_555 1_555
C133_3 C115_3 1_555 1_555
H130_3 C133_3 1_555 1_555
H131_3 C133_3 1_555 1_555
H132_3 C133_3 1_555 1_555
O23_3 C130_3 1_555 1_555
C134_3 C126_3 1_555 1_555
C135_3 C134_3 1_555 1_555
C136_3 C135_3 1_555 1_555
H133_3 C136_3 1_555 1_555
C137_3 C130_3 1_555 1_555
C138_3 C137_3 1_555 1_555
H134_3 C138_3 1_555 1_555
C139_3 C134_3 1_555 1_555
H135_3 C139_3 1_555 1_555
C140_3 C120_3 1_555 1_555
H136_3 C140_3 1_555 1_555
H137_3 C140_3 1_555 1_555
H138_3 C140_3 1_555 1_555
O24_3 C127_3 1_555 1_555
C141_3 C121_3 1_555 1_555
H139_3 C141_3 1_555 1_555
H140_3 C141_3 1_555 1_555
H141_3 C141_3 1_555 1_555
C142_3 C118_3 1_555 1_555
H142_3 C142_3 1_555 1_555
H143_3 C142_3 1_555 1_555
H144_3 C142_3 1_555 1_555
O25_3 C129_3 1_555 1_555
C143_3 O24_3 1_555 1_555
H145_3 C143_3 1_555 1_555
H146_3 C143_3 1_555 1_555
H147_3 C143_3 1_555 1_555
O26_3 C135_3 1_555 1_555
C144_3 O26_3 1_555 1_555
H148_3 C144_3 1_555 1_555
H149_3 C144_3 1_555 1_555
H150_3 C144_3 1_555 1_555
Zn23 O20_3 1_555 1_555
N52 N39_3 1_555 1_555
N39_3 H151_3 1_555 1_555
O28_3 Zn23 1_555 1_555
C151_3 N52 1_555 1_555
C157_3 N39_3 1_555 1_555
H157_3 C161_3 1_555 1_555
C162_3 C161_3 1_555 1_555
C166_3 O28_3 1_555 1_555
O29_3 C166_3 1_555 1_555
C170_3 C162_3 1_555 1_555
C171_3 C170_3 1_555 1_555
C172_3 C171_3 1_555 1_555
H170_3 C172_3 1_555 1_555
C173_3 C166_3 1_555 1_555
C174_3 C173_3 1_555 1_555
H171_3 C174_3 1_555 1_555
C175_3 C170_3 1_555 1_555
H172_3 C175_3 1_555 1_555
O30_3 C163_3 1_555 1_555
C177_3 C157_3 1_555 1_555
H176_3 C177_3 1_555 1_555
H177_3 C177_3 1_555 1_555
H178_3 C177_3 1_555 1_555
C179_3 O30_3 1_555 1_555
H182_3 C179_3 1_555 1_555
H183_3 C179_3 1_555 1_555
H184_3 C179_3 1_555 1_555
O32_3 C171_3 1_555 1_555
C180_3 O32_3 1_555 1_555
H185_3 C180_3 1_555 1_555
H186_3 C180_3 1_555 1_555
H187_3 C180_3 1_555 1_555
Zn25 O20_3 1_555 1_555
N53_2 N47_3 1_555 1_555
N47_3 H188_3 1_555 1_555
O34_3 Zn25 1_555 1_555
C187_3 N53_2 1_555 1_555
C193_3 N47_3 1_555 1_555
H194_3 C197_3 1_555 1_555
C198_3 C197_3 1_555 1_555
C202_3 O34_3 1_555 1_555
O35_3 C202_3 1_555 1_555
C206_3 C198_3 1_555 1_555
C207_3 C206_3 1_555 1_555
C208_3 C207_3 1_555 1_555
H207_3 C208_3 1_555 1_555
C209_3 C202_3 1_555 1_555
C210_3 C209_3 1_555 1_555
H208_3 C210_3 1_555 1_555
C211_3 C206_3 1_555 1_555
H209_3 C211_3 1_555 1_555
O36_3 C199_3 1_555 1_555
C213_3 C193_3 1_555 1_555
H213_3 C213_3 1_555 1_555
H214_3 C213_3 1_555 1_555
H215_3 C213_3 1_555 1_555
C215_3 O36_3 1_555 1_555
H219_3 C215_3 1_555 1_555
H220_3 C215_3 1_555 1_555
H221_3 C215_3 1_555 1_555
O38_3 C207_3 1_555 1_555
C216_3 O38_3 1_555 1_555
H222_3 C216_3 1_555 1_555
H223_3 C216_3 1_555 1_555
H224_3 C216_3 1_555 1_555
Zn17 N5_2 1_555 1_555
Zn20_2 N6_2 1_555 1_555
Zn29_2 N28_2 1_555 1_555
N58_2 Zn23 1_555 1_555
N64_2 Zn27_2 1_555 1_555
N2_3 N8_3 1_555 1_555
C4_3 C7_3 1_555 1_555
C4_3 C13_3 1_555 1_555
C5_3 C12_3 1_555 1_555
C6_3 C9_3 1_555 1_555
N25_3 N27_3 1_555 1_555
N26_3 N32_3 1_555 1_555
C111_3 C118_3 1_555 1_555
C112_3 C115_3 1_555 1_555
C112_3 C121_3 1_555 1_555
C113_3 C120_3 1_555 1_555
C114_3 C117_3 1_555 1_555
C123_3 C129_3 1_555 1_555
C126_3 C127_3 1_555 1_555
C136_3 C137_3 1_555 1_555
C138_3 C139_3 1_555 1_555
C148_3 C151_3 1_555 1_555
C148_3 C157_3 1_555 1_555
C162_3 C163_3 1_555 1_555
C172_3 C173_3 1_555 1_555
C174_3 C175_3 1_555 1_555
C184_3 C187_3 1_555 1_555
C184_3 C193_3 1_555 1_555
C198_3 C199_3 1_555 1_555
C208_3 C209_3 1_555 1_555
C210_3 C211_3 1_555 1_555
N58_2 N64_2 1_555 1_555
O35_3 H226_3 1_555 1_555
Zn30_2 O14_3 1_555 1_555
Zn9_3 N19_3 1_555 1_555
O14_3 C93_3 1_555 1_555
N17_3 N19_3 1_555 1_555
N18_3 Zn30_2 1_555 1_555
N19_3 C82_3 1_555 1_555
N20_2 N23_3 1_555 1_555
N63 C80_3 1_555 1_555
N23_3 H76_3 1_555 1_555
N24_3 Zn9_3 1_555 1_555
C73_3 N17_3 1_555 1_555
C74_3 N18_3 1_555 1_555
C75_3 C73_3 1_555 1_555
C76_3 C75_3 1_555 1_555
C77_3 C74_3 1_555 1_555
C78_3 C77_3 1_555 1_555
C79_3 N20_2 1_555 1_555
C80_3 C78_3 1_555 1_555
C81_3 N57 1_555 1_555
C82_3 C75_3 1_555 1_555
C83_3 C74_3 1_555 1_555
H77_3 C83_3 1_555 1_555
H78_3 C83_3 1_555 1_555
H79_3 C83_3 1_555 1_555
C84_3 N24_3 1_555 1_555
C85_3 N23_3 1_555 1_555
C86_3 H80_3 1_555 1_555
C87_3 C86_3 1_555 1_555
C88_3 C87_3 1_555 1_555
H81_3 C88_3 1_555 1_555
C89_3 C88_3 1_555 1_555
H82_3 C89_3 1_555 1_555
C90_3 C89_3 1_555 1_555
C91_3 C86_3 1_555 1_555
C92_3 C73_3 1_555 1_555
H83_3 C92_3 1_555 1_555
H84_3 C92_3 1_555 1_555
H85_3 C92_3 1_555 1_555
C93_3 C87_3 1_555 1_555
C94_3 O15_3 1_555 1_555
C95_3 C80_3 1_555 1_555
H86_3 C95_3 1_555 1_555
H87_3 C95_3 1_555 1_555
H88_3 C95_3 1_555 1_555
C96_3 C81_3 1_555 1_555
H89_3 C96_3 1_555 1_555
H90_3 C96_3 1_555 1_555
H91_3 C96_3 1_555 1_555
C97_3 C79_3 1_555 1_555
H92_3 C97_3 1_555 1_555
H93_3 C97_3 1_555 1_555
H94_3 C97_3 1_555 1_555
O16_3 C94_3 1_555 1_555
C98_3 C90_3 1_555 1_555
C99_3 C98_3 1_555 1_555
C100_3 C99_3 1_555 1_555
H95_3 C100_3 1_555 1_555
C101_3 C94_3 1_555 1_555
C102_3 C101_3 1_555 1_555
H96_3 C102_3 1_555 1_555
C103_3 C98_3 1_555 1_555
H97_3 C103_3 1_555 1_555
C104_3 C84_3 1_555 1_555
H98_3 C104_3 1_555 1_555
H99_3 C104_3 1_555 1_555
H100_3 C104_3 1_555 1_555
O17_3 C91_3 1_555 1_555
C105_3 C85_3 1_555 1_555
H101_3 C105_3 1_555 1_555
H102_3 C105_3 1_555 1_555
H103_3 C105_3 1_555 1_555
C106_3 C82_3 1_555 1_555
H104_3 C106_3 1_555 1_555
H105_3 C106_3 1_555 1_555
H106_3 C106_3 1_555 1_555
O18_3 C93_3 1_555 1_555
C107_3 O17_3 1_555 1_555
H107_3 C107_3 1_555 1_555
H108_3 C107_3 1_555 1_555
H109_3 C107_3 1_555 1_555
O19_3 C99_3 1_555 1_555
C108_3 O19_3 1_555 1_555
H112_3 C108_3 1_555 1_555
Zn31_2 N17_3 1_555 1_555
O27_3 Zn31_2 1_555 1_555
N33_3 Zn30_2 1_555 1_555
N34_3 Zn31_2 1_555 1_555
N35_3 Zn9_3 1_555 1_555
N37_2 N38_2 1_555 1_555
N38_2 C152_3 1_555 1_555
N40_3 Zn9_3 1_555 1_555
C145_3 N33_3 1_555 1_555
C146_3 N34_3 1_555 1_555
C147_3 C145_3 1_555 1_555
C149_3 C146_3 1_555 1_555
C150_3 C149_3 1_555 1_555
C152_3 C150_3 1_555 1_555
C153_3 N37_2 1_555 1_555
C154_3 N35_3 1_555 1_555
C155_3 C146_3 1_555 1_555
H152_3 C155_3 1_555 1_555
H153_3 C155_3 1_555 1_555
H154_3 C155_3 1_555 1_555
C156_3 N40_3 1_555 1_555
C158_3 H155_3 1_555 1_555
C159_3 C158_3 1_555 1_555
C160_3 C159_3 1_555 1_555
H156_3 C160_3 1_555 1_555
C164_3 C145_3 1_555 1_555
H158_3 C164_3 1_555 1_555
H159_3 C164_3 1_555 1_555
H160_3 C164_3 1_555 1_555
C165_3 O27_3 1_555 1_555
C167_3 C152_3 1_555 1_555
H161_3 C167_3 1_555 1_555
H162_3 C167_3 1_555 1_555
H163_3 C167_3 1_555 1_555
C168_3 C153_3 1_555 1_555
H164_3 C168_3 1_555 1_555
H165_3 C168_3 1_555 1_555
H166_3 C168_3 1_555 1_555
H168_3 C169_3 1_555 1_555
H169_3 C169_3 1_555 1_555
C176_3 C156_3 1_555 1_555
H173_3 C176_3 1_555 1_555
H174_3 C176_3 1_555 1_555
H175_3 C176_3 1_555 1_555
C178_3 C154_3 1_555 1_555
H179_3 C178_3 1_555 1_555
H180_3 C178_3 1_555 1_555
H181_3 C178_3 1_555 1_555
O31_3 C165_3 1_555 1_555
Zn23_2 N37_2 1_555 1_555
Zn27 N38_2 1_555 1_555
Zn32_2 N20_2 1_555 1_555
N18_3 N24_3 1_555 1_555
C76_3 C79_3 1_555 1_555
C76_3 C85_3 1_555 1_555
C77_3 C84_3 1_555 1_555
C78_3 C81_3 1_555 1_555
C90_3 C91_3 1_555 1_555
C100_3 C101_3 1_555 1_555
C102_3 C103_3 1_555 1_555
N33_3 N35_3 1_555 1_555
N34_3 N40_3 1_555 1_555
C147_3 C154_3 1_555 1_555
C149_3 C156_3 1_555 1_555
C150_3 C153_3 1_555 1_555
C159_3 C165_3 1_555 1_555
O18_3 H225_3 1_555 1_555
N66 C116_4 1_555 1_555
C116_4 C114_4 1_555 1_555
C117_4 N60 1_555 1_555
C131_4 C116_4 1_555 1_555
H124_4 C131_4 1_555 1_555
H125_4 C131_4 1_555 1_555
H126_4 C131_4 1_555 1_555
C132_4 C117_4 1_555 1_555
H127_4 C132_4 1_555 1_555
H128_4 C132_4 1_555 1_555
H129_4 C132_4 1_555 1_555
H132_4 C133_4 1_555 1_555
C114_4 C117_4 1_555 1_555
Zn3_4 N3_4 1_555 1_555
N1_4 N3_4 1_555 1_555
N2_4 Zn28_2 1_555 1_555
N3_4 C10_4 1_555 1_555
N49 N7_4 1_555 1_555
N61_2 C8_4 1_555 1_555
N7_4 H2_4 1_555 1_555
N8_4 Zn3_4 1_555 1_555
C1_4 N1_4 1_555 1_555
C2_4 N2_4 1_555 1_555
C3_4 C1_4 1_555 1_555
C4_4 C3_4 1_555 1_555
C5_4 C2_4 1_555 1_555
C6_4 C5_4 1_555 1_555
C7_4 N49 1_555 1_555
C8_4 C6_4 1_555 1_555
C9_4 N55_2 1_555 1_555
C10_4 C3_4 1_555 1_555
C12_4 N8_4 1_555 1_555
C13_4 N7_4 1_555 1_555
C20_4 C1_4 1_555 1_555
H9_4 C20_4 1_555 1_555
H10_4 C20_4 1_555 1_555
H11_4 C20_4 1_555 1_555
C23_4 C8_4 1_555 1_555
H12_4 C23_4 1_555 1_555
H13_4 C23_4 1_555 1_555
C24_4 C9_4 1_555 1_555
H15_4 C24_4 1_555 1_555
H16_4 C24_4 1_555 1_555
H17_4 C24_4 1_555 1_555
C25_4 C7_4 1_555 1_555
H18_4 C25_4 1_555 1_555
H19_4 C25_4 1_555 1_555
H20_4 C25_4 1_555 1_555
C32_4 C12_4 1_555 1_555
H24_4 C32_4 1_555 1_555
H25_4 C32_4 1_555 1_555
H26_4 C32_4 1_555 1_555
C33_4 C13_4 1_555 1_555
H27_4 C33_4 1_555 1_555
H28_4 C33_4 1_555 1_555
H29_4 C33_4 1_555 1_555
C34_4 C10_4 1_555 1_555
H30_4 C34_4 1_555 1_555
H31_4 C34_4 1_555 1_555
H32_4 C34_4 1_555 1_555
C35_4 O5_4 1_555 1_555
H33_4 C35_4 1_555 1_555
H34_4 C35_4 1_555 1_555
H35_4 C35_4 1_555 1_555
O14_4 C93_4 1_555 1_555
H77_4 C83_4 1_555 1_555
H78_4 C83_4 1_555 1_555
H79_4 C83_4 1_555 1_555
C87_4 C86_4 1_555 1_555
C88_4 C87_4 1_555 1_555
H81_4 C88_4 1_555 1_555
C89_4 C88_4 1_555 1_555
H82_4 C89_4 1_555 1_555
C90_4 C89_4 1_555 1_555
C91_4 C86_4 1_555 1_555
C93_4 C87_4 1_555 1_555
C94_4 O15_4 1_555 1_555
O16_4 C94_4 1_555 1_555
C98_4 C90_4 1_555 1_555
C99_4 C98_4 1_555 1_555
C100_4 C99_4 1_555 1_555
H95_4 C100_4 1_555 1_555
C101_4 C94_4 1_555 1_555
C102_4 C101_4 1_555 1_555
H96_4 C102_4 1_555 1_555
C103_4 C98_4 1_555 1_555
H97_4 C103_4 1_555 1_555
O18_4 C93_4 1_555 1_555
O19_4 C99_4 1_555 1_555
C108_4 O19_4 1_555 1_555
H110_4 C108_4 1_555 1_555
H111_4 C108_4 1_555 1_555
H112_4 C108_4 1_555 1_555
Zn33_2 N1_4 1_555 1_555
O21_4 Zn33_2 1_555 1_555
N25_4 Zn28_2 1_555 1_555
N26_4 Zn33_2 1_555 1_555
N27_4 Zn3_4 1_555 1_555
N32_4 Zn3_4 1_555 1_555
C109_4 N25_4 1_555 1_555
C110_4 N26_4 1_555 1_555
C111_4 C109_4 1_555 1_555
C113_4 C110_4 1_555 1_555
C118_4 N27_4 1_555 1_555
C119_4 C110_4 1_555 1_555
H115_4 C119_4 1_555 1_555
H116_4 C119_4 1_555 1_555
H117_4 C119_4 1_555 1_555
C120_4 N32_4 1_555 1_555
C122_4 H118_4 1_555 1_555
C123_4 C122_4 1_555 1_555
C124_4 C123_4 1_555 1_555
H119_4 C124_4 1_555 1_555
C128_4 C109_4 1_555 1_555
H122_4 C128_4 1_555 1_555
H123_4 C128_4 1_555 1_555
C129_4 O21_4 1_555 1_555
C140_4 C120_4 1_555 1_555
H138_4 C140_4 1_555 1_555
C142_4 C118_4 1_555 1_555
H142_4 C142_4 1_555 1_555
H143_4 C142_4 1_555 1_555
H144_4 C142_4 1_555 1_555
O25_4 C129_4 1_555 1_555
N2_4 N8_4 1_555 1_555
C4_4 C7_4 1_555 1_555
C4_4 C13_4 1_555 1_555
C5_4 C12_4 1_555 1_555
C6_4 C9_4 1_555 1_555
C90_4 C91_4 1_555 1_555
C100_4 C101_4 1_555 1_555
C102_4 C103_4 1_555 1_555
N25_4 N27_4 1_555 1_555
N26_4 N32_4 1_555 1_555
C111_4 C118_4 1_555 1_555
C113_4 C120_4 1_555 1_555
C123_4 C129_4 1_555 1_555
O18_4 H225_4 1_555 1_555
Zn17 O1_4 1_555 1_555
O1_4 H1_4 1_555 1_555
O2_4 C21_4 1_555 1_555
O3_4 Zn17 1_555 1_555
H3_4 C11_4 1_555 1_555
H4_4 C11_4 1_555 1_555
H5_4 C11_4 1_555 1_555
C15_4 C14_4 1_555 1_555
C16_4 C15_4 1_555 1_555
H7_4 C16_4 1_555 1_555
C17_4 C16_4 1_555 1_555
H8_4 C17_4 1_555 1_555
C18_4 C17_4 1_555 1_555
C19_4 C14_4 1_555 1_555
C21_4 C15_4 1_555 1_555
C22_4 O3_4 1_555 1_555
O4_4 C22_4 1_555 1_555
C26_4 C18_4 1_555 1_555
C27_4 C26_4 1_555 1_555
C28_4 C27_4 1_555 1_555
H21_4 C28_4 1_555 1_555
C29_4 C22_4 1_555 1_555
C30_4 C29_4 1_555 1_555
H22_4 C30_4 1_555 1_555
C31_4 C26_4 1_555 1_555
H23_4 C31_4 1_555 1_555
O6_4 C21_4 1_555 1_555
O7_4 C27_4 1_555 1_555
C36_4 O7_4 1_555 1_555
H38_4 C36_4 1_555 1_555
Zn18 O1_4 1_555 1_555
Zn20_2 O1_4 1_555 1_555
C18_4 C19_4 1_555 1_555
C28_4 C29_4 1_555 1_555
C30_4 C31_4 1_555 1_555
Zn9_4 N19_4 1_555 1_555
N17_4 N19_4 1_555 1_555
N18_4 Zn30 1_555 1_555
N19_4 C82_4 1_555 1_555
N51_2 N23_4 1_555 1_555
N63_2 C80_4 1_555 1_555
N23_4 H76_4 1_555 1_555
N24_4 Zn9_4 1_555 1_555
C73_4 N17_4 1_555 1_555
C74_4 N18_4 1_555 1_555
C75_4 C73_4 1_555 1_555
C76_4 C75_4 1_555 1_555
C77_4 C74_4 1_555 1_555
C78_4 C77_4 1_555 1_555
C79_4 N51_2 1_555 1_555
C80_4 C78_4 1_555 1_555
C81_4 N57_2 1_555 1_555
C82_4 C75_4 1_555 1_555
C84_4 N24_4 1_555 1_555
C85_4 N23_4 1_555 1_555
C92_4 C73_4 1_555 1_555
H83_4 C92_4 1_555 1_555
H84_4 C92_4 1_555 1_555
H85_4 C92_4 1_555 1_555
C95_4 C80_4 1_555 1_555
H86_4 C95_4 1_555 1_555
H87_4 C95_4 1_555 1_555
C96_4 C81_4 1_555 1_555
H89_4 C96_4 1_555 1_555
H90_4 C96_4 1_555 1_555
H91_4 C96_4 1_555 1_555
C97_4 C79_4 1_555 1_555
H92_4 C97_4 1_555 1_555
H93_4 C97_4 1_555 1_555
H94_4 C97_4 1_555 1_555
C104_4 C84_4 1_555 1_555
H98_4 C104_4 1_555 1_555
H99_4 C104_4 1_555 1_555
H100_4 C104_4 1_555 1_555
C105_4 C85_4 1_555 1_555
H101_4 C105_4 1_555 1_555
H102_4 C105_4 1_555 1_555
H103_4 C105_4 1_555 1_555
C106_4 C82_4 1_555 1_555
H104_4 C106_4 1_555 1_555
H105_4 C106_4 1_555 1_555
H106_4 C106_4 1_555 1_555
C107_4 O17_4 1_555 1_555
H107_4 C107_4 1_555 1_555
H108_4 C107_4 1_555 1_555
H109_4 C107_4 1_555 1_555
Zn27 O20_4 1_555 1_555
O20_4 H113_4 1_555 1_555
N54_2 N31_4 1_555 1_555
N31_4 H114_4 1_555 1_555
O22_4 Zn27 1_555 1_555
C115_4 N54_2 1_555 1_555
C121_4 N31_4 1_555 1_555
H120_4 C125_4 1_555 1_555
C126_4 C125_4 1_555 1_555
C130_4 O22_4 1_555 1_555
O23_4 C130_4 1_555 1_555
C134_4 C126_4 1_555 1_555
C135_4 C134_4 1_555 1_555
C136_4 C135_4 1_555 1_555
H133_4 C136_4 1_555 1_555
C137_4 C130_4 1_555 1_555
C138_4 C137_4 1_555 1_555
H134_4 C138_4 1_555 1_555
C139_4 C134_4 1_555 1_555
H135_4 C139_4 1_555 1_555
O24_4 C127_4 1_555 1_555
C141_4 C121_4 1_555 1_555
H139_4 C141_4 1_555 1_555
H140_4 C141_4 1_555 1_555
H141_4 C141_4 1_555 1_555
C143_4 O24_4 1_555 1_555
H145_4 C143_4 1_555 1_555
H146_4 C143_4 1_555 1_555
H147_4 C143_4 1_555 1_555
O26_4 C135_4 1_555 1_555
C144_4 O26_4 1_555 1_555
H148_4 C144_4 1_555 1_555
H149_4 C144_4 1_555 1_555
H150_4 C144_4 1_555 1_555
Zn23_2 O20_4 1_555 1_555
Zn31 N17_4 1_555 1_555
O27_4 Zn31 1_555 1_555
N33_4 Zn30 1_555 1_555
N34_4 Zn31 1_555 1_555
N35_4 Zn9_4 1_555 1_555
N52_2 N39_4 1_555 1_555
N64_2 C152_4 1_555 1_555
N39_4 H151_4 1_555 1_555
N40_4 Zn9_4 1_555 1_555
C145_4 N33_4 1_555 1_555
C146_4 N34_4 1_555 1_555
C147_4 C145_4 1_555 1_555
O28_4 Zn23_2 1_555 1_555
C148_4 C147_4 1_555 1_555
C149_4 C146_4 1_555 1_555
C150_4 C149_4 1_555 1_555
C151_4 N52_2 1_555 1_555
C152_4 C150_4 1_555 1_555
C153_4 N58_2 1_555 1_555
C154_4 N35_4 1_555 1_555
C155_4 C146_4 1_555 1_555
H152_4 C155_4 1_555 1_555
H153_4 C155_4 1_555 1_555
H154_4 C155_4 1_555 1_555
C156_4 N40_4 1_555 1_555
C157_4 N39_4 1_555 1_555
C158_4 H155_4 1_555 1_555
C159_4 C158_4 1_555 1_555
C160_4 C159_4 1_555 1_555
H156_4 C160_4 1_555 1_555
C161_4 C160_4 1_555 1_555
H157_4 C161_4 1_555 1_555
C162_4 C161_4 1_555 1_555
C163_4 C158_4 1_555 1_555
C164_4 C145_4 1_555 1_555
H159_4 C164_4 1_555 1_555
H160_4 C164_4 1_555 1_555
C165_4 O27_4 1_555 1_555
C166_4 O28_4 1_555 1_555
C167_4 C152_4 1_555 1_555
H161_4 C167_4 1_555 1_555
H162_4 C167_4 1_555 1_555
H163_4 C167_4 1_555 1_555
C168_4 C153_4 1_555 1_555
H164_4 C168_4 1_555 1_555
H165_4 C168_4 1_555 1_555
H166_4 C168_4 1_555 1_555
C169_4 C151_4 1_555 1_555
H167_4 C169_4 1_555 1_555
H168_4 C169_4 1_555 1_555
H169_4 C169_4 1_555 1_555
O29_4 C166_4 1_555 1_555
C170_4 C162_4 1_555 1_555
C171_4 C170_4 1_555 1_555
C172_4 C171_4 1_555 1_555
H170_4 C172_4 1_555 1_555
C173_4 C166_4 1_555 1_555
C174_4 C173_4 1_555 1_555
H171_4 C174_4 1_555 1_555
C175_4 C170_4 1_555 1_555
H172_4 C175_4 1_555 1_555
C176_4 C156_4 1_555 1_555
H173_4 C176_4 1_555 1_555
H174_4 C176_4 1_555 1_555
H175_4 C176_4 1_555 1_555
O30_4 C163_4 1_555 1_555
C177_4 C157_4 1_555 1_555
H176_4 C177_4 1_555 1_555
H177_4 C177_4 1_555 1_555
H178_4 C177_4 1_555 1_555
C178_4 C154_4 1_555 1_555
H179_4 C178_4 1_555 1_555
H180_4 C178_4 1_555 1_555
H181_4 C178_4 1_555 1_555
O31_4 C165_4 1_555 1_555
C179_4 O30_4 1_555 1_555
H182_4 C179_4 1_555 1_555
H183_4 C179_4 1_555 1_555
H184_4 C179_4 1_555 1_555
O32_4 C171_4 1_555 1_555
C180_4 O32_4 1_555 1_555
H185_4 C180_4 1_555 1_555
H186_4 C180_4 1_555 1_555
H187_4 C180_4 1_555 1_555
Zn24 O20_4 1_555 1_555
N53 N47_4 1_555 1_555
N47_4 H188_4 1_555 1_555
O34_4 Zn24 1_555 1_555
C187_4 N53 1_555 1_555
C193_4 N47_4 1_555 1_555
H194_4 C197_4 1_555 1_555
C198_4 C197_4 1_555 1_555
C202_4 O34_4 1_555 1_555
O35_4 C202_4 1_555 1_555
C206_4 C198_4 1_555 1_555
C207_4 C206_4 1_555 1_555
C208_4 C207_4 1_555 1_555
H207_4 C208_4 1_555 1_555
C209_4 C202_4 1_555 1_555
C210_4 C209_4 1_555 1_555
H208_4 C210_4 1_555 1_555
C211_4 C206_4 1_555 1_555
H209_4 C211_4 1_555 1_555
O36_4 C199_4 1_555 1_555
C213_4 C193_4 1_555 1_555
H213_4 C213_4 1_555 1_555
H214_4 C213_4 1_555 1_555
H215_4 C213_4 1_555 1_555
C215_4 O36_4 1_555 1_555
H219_4 C215_4 1_555 1_555
H220_4 C215_4 1_555 1_555
H221_4 C215_4 1_555 1_555
O38_4 C207_4 1_555 1_555
C216_4 O38_4 1_555 1_555
H222_4 C216_4 1_555 1_555
H223_4 C216_4 1_555 1_555
H224_4 C216_4 1_555 1_555
N18_4 N24_4 1_555 1_555
C76_4 C79_4 1_555 1_555
C76_4 C85_4 1_555 1_555
C77_4 C84_4 1_555 1_555
C78_4 C81_4 1_555 1_555
C112_4 C115_4 1_555 1_555
C112_4 C121_4 1_555 1_555
C126_4 C127_4 1_555 1_555
C136_4 C137_4 1_555 1_555
C138_4 C139_4 1_555 1_555
N33_4 N35_4 1_555 1_555
N34_4 N40_4 1_555 1_555
C147_4 C154_4 1_555 1_555
C148_4 C151_4 1_555 1_555
C148_4 C157_4 1_555 1_555
C149_4 C156_4 1_555 1_555
C150_4 C153_4 1_555 1_555
C159_4 C165_4 1_555 1_555
C162_4 C163_4 1_555 1_555
C172_4 C173_4 1_555 1_555
C174_4 C175_4 1_555 1_555
C184_4 C187_4 1_555 1_555
C184_4 C193_4 1_555 1_555
C198_4 C199_4 1_555 1_555
C208_4 C209_4 1_555 1_555
C210_4 C211_4 1_555 1_555
O35_4 H226_4 1_555 1_555
Zn29_2 O8_4 1_555 1_555
Zn6_4 N11_4 1_555 1_555
O8_4 C57_4 1_555 1_555
N9_4 N11_4 1_555 1_555
N10_4 Zn29_2 1_555 1_555
N11_4 C46_4 1_555 1_555
N50_2 N15_4 1_555 1_555
N62 C44_4 1_555 1_555
N15_4 H39_4 1_555 1_555
N16_4 Zn6_4 1_555 1_555
C37_4 N9_4 1_555 1_555
C38_4 N10_4 1_555 1_555
C39_4 C37_4 1_555 1_555
C40_4 C39_4 1_555 1_555
C41_4 C38_4 1_555 1_555
C42_4 C41_4 1_555 1_555
C43_4 N50_2 1_555 1_555
C44_4 C42_4 1_555 1_555
C45_4 N56 1_555 1_555
C46_4 C39_4 1_555 1_555
C47_4 C38_4 1_555 1_555
H40_4 C47_4 1_555 1_555
H41_4 C47_4 1_555 1_555
H42_4 C47_4 1_555 1_555
C48_4 N16_4 1_555 1_555
C49_4 N15_4 1_555 1_555
C50_4 H43_4 1_555 1_555
C51_4 C50_4 1_555 1_555
C52_4 C51_4 1_555 1_555
H44_4 C52_4 1_555 1_555
C53_4 C52_4 1_555 1_555
H45_4 C53_4 1_555 1_555
C54_4 C53_4 1_555 1_555
C55_4 C50_4 1_555 1_555
C56_4 C37_4 1_555 1_555
H46_4 C56_4 1_555 1_555
H47_4 C56_4 1_555 1_555
H48_4 C56_4 1_555 1_555
C57_4 C51_4 1_555 1_555
C58_4 O9_4 1_555 1_555
C59_4 C44_4 1_555 1_555
H49_4 C59_4 1_555 1_555
H50_4 C59_4 1_555 1_555
H51_4 C59_4 1_555 1_555
C60_4 C45_4 1_555 1_555
H52_4 C60_4 1_555 1_555
H53_4 C60_4 1_555 1_555
H54_4 C60_4 1_555 1_555
C61_4 C43_4 1_555 1_555
H55_4 C61_4 1_555 1_555
H56_4 C61_4 1_555 1_555
H57_4 C61_4 1_555 1_555
O10_4 C58_4 1_555 1_555
C62_4 C54_4 1_555 1_555
C63_4 C62_4 1_555 1_555
C64_4 C63_4 1_555 1_555
H58_4 C64_4 1_555 1_555
C65_4 C58_4 1_555 1_555
C66_4 C65_4 1_555 1_555
H59_4 C66_4 1_555 1_555
C67_4 C62_4 1_555 1_555
H60_4 C67_4 1_555 1_555
C68_4 C48_4 1_555 1_555
H61_4 C68_4 1_555 1_555
H62_4 C68_4 1_555 1_555
H63_4 C68_4 1_555 1_555
O11_4 C55_4 1_555 1_555
C69_4 C49_4 1_555 1_555
H64_4 C69_4 1_555 1_555
H65_4 C69_4 1_555 1_555
H66_4 C69_4 1_555 1_555
C70_4 C46_4 1_555 1_555
H67_4 C70_4 1_555 1_555
H68_4 C70_4 1_555 1_555
H69_4 C70_4 1_555 1_555
O12_4 C57_4 1_555 1_555
C71_4 O11_4 1_555 1_555
H70_4 C71_4 1_555 1_555
H71_4 C71_4 1_555 1_555
H72_4 C71_4 1_555 1_555
O13_4 C63_4 1_555 1_555
C72_4 O13_4 1_555 1_555
H75_4 C72_4 1_555 1_555
Zn32_2 N9_4 1_555 1_555
O33_4 Zn32_2 1_555 1_555
N41_4 Zn29_2 1_555 1_555
N42_4 Zn32_2 1_555 1_555
N43_4 Zn6_4 1_555 1_555
N65_2 C188_4 1_555 1_555
N48_4 Zn6_4 1_555 1_555
C181_4 N41_4 1_555 1_555
C182_4 N42_4 1_555 1_555
C183_4 C181_4 1_555 1_555
C185_4 C182_4 1_555 1_555
C186_4 C185_4 1_555 1_555
C188_4 C186_4 1_555 1_555
C189_4 N59_2 1_555 1_555
C190_4 N43_4 1_555 1_555
C191_4 C182_4 1_555 1_555
H189_4 C191_4 1_555 1_555
H190_4 C191_4 1_555 1_555
H191_4 C191_4 1_555 1_555
C192_4 N48_4 1_555 1_555
C194_4 H192_4 1_555 1_555
C195_4 C194_4 1_555 1_555
C196_4 C195_4 1_555 1_555
H193_4 C196_4 1_555 1_555
C200_4 C181_4 1_555 1_555
H195_4 C200_4 1_555 1_555
H196_4 C200_4 1_555 1_555
H197_4 C200_4 1_555 1_555
C201_4 O33_4 1_555 1_555
C203_4 C188_4 1_555 1_555
H198_4 C203_4 1_555 1_555
H199_4 C203_4 1_555 1_555
H200_4 C203_4 1_555 1_555
C204_4 C189_4 1_555 1_555
H201_4 C204_4 1_555 1_555
H202_4 C204_4 1_555 1_555
H203_4 C204_4 1_555 1_555
H205_4 C205_4 1_555 1_555
H206_4 C205_4 1_555 1_555
C212_4 C192_4 1_555 1_555
H210_4 C212_4 1_555 1_555
H211_4 C212_4 1_555 1_555
H212_4 C212_4 1_555 1_555
C214_4 C190_4 1_555 1_555
H216_4 C214_4 1_555 1_555
H217_4 C214_4 1_555 1_555
H218_4 C214_4 1_555 1_555
O37_4 C201_4 1_555 1_555
N10_4 N16_4 1_555 1_555
C40_4 C43_4 1_555 1_555
C40_4 C49_4 1_555 1_555
C41_4 C48_4 1_555 1_555
C42_4 C45_4 1_555 1_555
C54_4 C55_4 1_555 1_555
C64_4 C65_4 1_555 1_555
C66_4 C67_4 1_555 1_555
N41_4 N43_4 1_555 1_555
N42_4 N48_4 1_555 1_555
C183_4 C190_4 1_555 1_555
C185_4 C192_4 1_555 1_555
C186_4 C189_4 1_555 1_555
C195_4 C201_4 1_555 1_555
O6 H225_5 1_555 1_555
O29 H226_5 1_555 1_555
O6_4 H225_6 1_555 1_555
O29_4 H226_6 1_555 1_555
O29_2 H226_7 1_555 1_555
O6_2 H225_7 1_555 1_555
O6_3 H225_8 1_555 1_555
O29_3 H226_8 1_555 1_555
O12 H225_9 1_555 1_555
O23 H226_9 1_555 1_555
O12_3 H225_10 1_555 1_555
O23_3 H226_10 1_555 1_555
O23_4 H226_11 1_555 1_555
O12_4 H225_11 1_555 1_555
O12_2 H225_12 1_555 1_555
O23_2 H226_12 1_555 1_555
O10_2 H226_13 1_555 1_555
O25_2 H225_13 1_555 1_555
O25 H225_14 1_555 1_555
O10 H226_14 1_555 1_555
O10_3 H226_15 1_555 1_555
O25_3 H225_15 1_555 1_555
O25_4 H225_16 1_555 1_555
O10_4 H226_16 1_555 1_555
O31_2 H225_17 1_555 1_555
O4_2 H226_17 1_555 1_555
O4_4 H226_18 1_555 1_555
O31_4 H225_18 1_555 1_555
O31 H225_19 1_555 1_555
O4 H226_19 1_555 1_555
O4_3 H226_20 1_555 1_555
O31_3 H225_20 1_555 1_555
O37_2 H225_21 1_555 1_555
O16_2 H226_21 1_555 1_555
O37_3 H225_22 1_555 1_555
O16_3 H226_22 1_555 1_555
O16_4 H226_23 1_555 1_555
O37_4 H225_23 1_555 1_555
O37 H225_24 1_555 1_555
O16 H226_24 1_555 1_555

#END
