
###############################################################################
#
# This file contains modified crystal structure data generated from the
# MOF subset of the Cambridge Structural Database (CSD) v543 
# hosted by the Cambridge Crystallographic Data Centre (CCDC).
#
# This work is licensed under the Creative Commons
# Attribution-NonCommercial-ShareAlike 4.0 International License.
# To view a copy of this license, visit
# http://creativecommons.org/licenses/by-nc-sa/4.0/
# or send a letter to
# Creative Commons, PO Box 1866, Mountain View, CA 94042, USA.
#
# CIF created using the CSD Python API on 29 September 2022
# The structure has been converted into the P1 space group
# The structure has a 3D framework
# The original CSD entry LEJRIC is in the rhombohedral crystal system
# The framework has been calculated to contain at least 10.0% void space
# The void calculation uses a probe of radius 1.32A, grid spacing 0.4
# H atom positions have been added when not included in the experimental data
#
###############################################################################

data_LEJRIC
_chemical_formula_moiety         '(C72 H72 Ni12 O63)n'
_symmetry_cell_setting           triclinic
_symmetry_space_group_name_H-M   'P 1'
_symmetry_Int_Tables_number      1
_space_group_name_Hall           'P 1'
loop_
_symmetry_equiv_pos_site_id
_symmetry_equiv_pos_as_xyz
1 x,y,z
_cell_length_a                   25.9783(7)
_cell_length_b                   25.9783(7)
_cell_length_c                   6.6883(2)
_cell_angle_alpha                90
_cell_angle_beta                 90
_cell_angle_gamma                120
_cell_volume                     3909.02
loop_
_atom_site_label
_atom_site_type_symbol
_atom_site_fract_x
_atom_site_fract_y
_atom_site_fract_z
C1 C 0.6005(15) 0.5847(16) 0.264(5)
C2 C 0.5484(17) 0.5431(18) 0.111(5)
C4 C 0.5065(16) 0.4892(16) 0.188(5)
Ni1 Ni 0.7161(2) 0.7012(2) 0.3167(7)
O1 O 0.5943(9) 0.5600(10) 0.440(3)
O2 O 0.6384(9) 0.6299(10) 0.201(3)
O4 O 0.7877(9) 0.7727(8) 0.457(3)
H1 H 0.506(5) 0.482(5) 0.38(2)
C7 C 0.4548(17) 0.4467(17) 0.078(6)
Ni4 Ni 0.6518(3) 0.6172(2) 0.6500(7)
Ni7 Ni 0.3679(2) 0.3184(3) 0.0166(7)
Ni8 Ni 0.3482(3) 0.3828(2) 0.3500(7)
O6 O 0.7733(10) 0.7010(13) 0.107(3)
O9 O 0.6582(13) 0.6949(9) 0.534(3)
O11 O 0.4169(9) 0.3931(8) 0.171(4)
O12 O 0.7264(8) 0.6429(12) 0.496(4)
O14 O 0.6905(12) 0.7502(9) 0.162(4)
H3 H 0.791804 0.761201 0.595136
H4 H 0.824669 0.784033 0.380796
C3 C 0.5452(17) 0.5533(17) 0.922(6)
O3 O 0.5831(9) 0.6069(8) 0.829(4)
C5 C 0.3995(15) 0.4153(16) 0.736(5)
C6 C 0.4516(17) 0.4569(18) 0.889(5)
C8 C 0.4935(16) 0.5108(16) 0.812(5)
Ni3 Ni 0.6321(2) 0.6816(3) 0.9834(7)
Ni6 Ni 0.2839(2) 0.2988(2) 0.6833(7)
O5 O 0.4057(9) 0.4400(10) 0.560(3)
O7 O 0.2267(10) 0.2990(13) 0.893(3)
O8 O 0.3616(9) 0.3701(10) 0.799(3)
O10 O 0.3418(13) 0.3051(9) 0.466(3)
O13 O 0.2736(8) 0.3571(12) 0.504(4)
O15 O 0.3095(12) 0.2498(9) 0.838(4)
O16 O 0.2123(9) 0.2273(8) 0.543(3)
H2 H 0.494(5) 0.518(5) 0.62(2)
H5 H 0.22819 0.337992 0.891017
H6 H 0.185605 0.266859 0.863
C1_2 C 0.4153(16) 0.0158(22) 0.264(5)
C2_2 C 0.4569(18) 0.0053(25) 0.111(5)
C4_2 C 0.5108(16) 0.0173(23) 0.188(5)
Ni1_2 Ni 0.2988(2) 0.0149(3) 0.3167(7)
O1_2 O 0.4400(10) 0.0343(13) 0.440(3)
O2_2 O 0.3701(10) 0.0085(13) 0.201(3)
O4_2 O 0.2273(8) 0.0150(12) 0.457(3)
H1_2 H 0.518(5) 0.024(7) 0.38(2)
C7_2 C 0.5533(17) 0.0081(24) 0.078(6)
Ni4_2 Ni 0.3828(2) 0.0345(4) 0.6500(7)
Ni7_2 Ni 0.6816(3) 0.0494(4) 0.0166(7)
O6_2 O 0.2990(13) 0.0724(16) 0.107(3)
O11_2 O 0.6069(8) 0.0238(12) 0.171(4)
O12_2 O 0.3571(12) 0.0836(14) 0.496(4)
H3_2 H 0.238799 0.0306036 0.595136
H4_2 H 0.215967 0.0406363 0.380796
O10_2 O 0.6949(9) 0.0368(16) 0.466(3)
O15_2 O 0.7502(9) 0.0598(15) 0.838(4)
Ni8_2 Ni 0.6172(2) 0.9655(4) 0.3500(7)
O9_2 O 0.3051(9) 0.9632(16) 0.534(3)
O14_2 O 0.2498(9) 0.9402(15) 0.162(4)
C3_2 C 0.4467(17) 0.9919(24) 0.922(6)
O3_2 O 0.3931(8) 0.9762(12) 0.829(4)
C5_2 C 0.5847(16) 0.9842(22) 0.736(5)
C6_2 C 0.5431(18) 0.9947(25) 0.889(5)
C8_2 C 0.4892(16) 0.9827(23) 0.812(5)
Ni3_2 Ni 0.3184(3) 0.9506(4) 0.9834(7)
Ni6_2 Ni 0.7012(2) 0.9851(3) 0.6833(7)
O5_2 O 0.5600(10) 0.9657(13) 0.560(3)
O7_2 O 0.7010(13) 0.9276(16) 0.893(3)
O8_2 O 0.6299(10) 0.9915(13) 0.799(3)
O13_2 O 0.6429(12) 0.9164(14) 0.504(4)
O16_2 O 0.7727(8) 0.9850(12) 0.543(3)
H2_2 H 0.482(5) 0.976(7) 0.62(2)
H5_2 H 0.662008 0.890198 0.891017
H6_2 H 0.733141 0.918747 0.863
Ni8_3 Ni 0.0345(4) 0.6518(3) 0.3500(7)
O9_3 O 0.0368(16) 0.3418(13) 0.534(3)
O14_3 O 0.0598(15) 0.3095(12) 0.162(4)
C3_3 C 0.0081(24) 0.4548(17) 0.922(6)
O3_3 O 0.0238(12) 0.4169(9) 0.829(4)
C5_3 C 0.0158(22) 0.6005(15) 0.736(5)
C6_3 C 0.0053(25) 0.5484(17) 0.889(5)
C8_3 C 0.0173(23) 0.5065(16) 0.812(5)
Ni3_3 Ni 0.0494(4) 0.3679(2) 0.9834(7)
Ni6_3 Ni 0.0149(3) 0.7161(2) 0.6833(7)
O5_3 O 0.0343(13) 0.5943(9) 0.560(3)
O7_3 O 0.0724(16) 0.7733(10) 0.893(3)
O8_3 O 0.0085(13) 0.6384(9) 0.799(3)
O13_3 O 0.0836(14) 0.7264(8) 0.504(4)
O16_3 O 0.0150(12) 0.7877(9) 0.543(3)
H2_3 H 0.024(7) 0.506(5) 0.62(2)
H5_3 H 0.109802 0.77181 0.891017
H6_3 H 0.0812533 0.814395 0.863
C1_3 C 0.9842(22) 0.3995(15) 0.264(5)
C2_3 C 0.9947(25) 0.4516(17) 0.111(5)
C4_3 C 0.9827(23) 0.4935(16) 0.188(5)
Ni1_3 Ni 0.9851(3) 0.2839(2) 0.3167(7)
O1_3 O 0.9657(13) 0.4057(9) 0.440(3)
O2_3 O 0.9915(13) 0.3616(9) 0.201(3)
O4_3 O 0.9850(12) 0.2123(9) 0.457(3)
H1_3 H 0.976(7) 0.494(5) 0.38(2)
C7_3 C 0.9919(24) 0.5452(17) 0.078(6)
Ni4_3 Ni 0.9655(4) 0.3482(3) 0.6500(7)
Ni7_3 Ni 0.9506(4) 0.6321(2) 0.0166(7)
O6_3 O 0.9276(16) 0.2267(10) 0.107(3)
O11_3 O 0.9762(12) 0.5831(9) 0.171(4)
O12_3 O 0.9164(14) 0.2736(8) 0.496(4)
H3_3 H 0.969396 0.208196 0.595136
H4_3 H 0.959364 0.175331 0.380796
O10_3 O 0.9632(16) 0.6582(13) 0.466(3)
O15_3 O 0.9402(15) 0.6905(12) 0.838(4)
O4_4 O 0.4544(9) 0.1060(8) 0.790(3)
O9_4 O 0.3248(13) 0.0283(9) 0.868(3)
H3_4 H 0.458471 0.094534 0.92847
H4_4 H 0.491336 0.117366 0.714129
C1_4 C 0.2672(15) 0.9180(16) 0.597(5)
C2_4 C 0.2151(17) 0.8764(18) 0.444(5)
C3_4 C 0.2119(17) 0.8866(17) 0.255(6)
C4_4 C 0.1732(16) 0.8225(16) 0.521(5)
O1_4 O 0.2610(9) 0.8933(10) 0.773(3)
H1_4 H 0.173(5) 0.815(5) 0.71(2)
C5_4 C 0.0662(15) 0.7486(16) 0.069(5)
C6_4 C 0.1183(17) 0.7902(18) 0.222(5)
C7_4 C 0.1215(17) 0.7800(17) 0.411(6)
C8_4 C 0.1602(16) 0.8441(16) 0.145(5)
O8_4 O 0.0283(9) 0.7034(10) 0.132(3)
H2_4 H 0.161(5) 0.851(5) 0.95(2)
O7_4 O 0.8933(10) 0.6324(13) 0.227(3)
H5_4 H 0.894857 0.671325 0.22435
H6_4 H 0.852272 0.600192 0.196333
O16_4 O 0.8790(9) 0.5606(8) 0.876(3)
C1_5 C 0.0820(16) 0.3491(22) 0.597(5)
C2_5 C 0.1236(18) 0.3386(25) 0.444(5)
C3_5 C 0.1134(17) 0.3252(24) 0.255(6)
C4_5 C 0.1775(16) 0.3506(23) 0.521(5)
O1_5 O 0.1067(10) 0.3676(13) 0.773(3)
H1_5 H 0.185(5) 0.357(7) 0.71(2)
C5_5 C 0.2514(16) 0.3175(22) 0.069(5)
C6_5 C 0.2098(18) 0.3280(25) 0.222(5)
C7_5 C 0.2200(17) 0.3414(24) 0.411(6)
C8_5 C 0.1559(16) 0.3160(23) 0.145(5)
O7_5 O 0.3676(13) 0.2610(16) 0.227(3)
O8_5 O 0.2966(10) 0.3248(13) 0.132(3)
H5_5 H 0.328675 0.223532 0.22435
H6_5 H 0.399808 0.25208 0.196333
O16_5 O 0.4394(8) 0.3183(12) 0.876(3)
H2_5 H 0.149(5) 0.309(7) 0.95(2)
O4_5 O 0.8940(8) 0.3483(12) 0.790(3)
O9_5 O 0.9717(9) 0.2966(16) 0.868(3)
H3_5 H 0.905466 0.363937 0.92847
H4_5 H 0.882634 0.37397 0.714129
O7_6 O 0.7390(16) 0.1067(10) 0.227(3)
H5_6 H 0.776468 0.105143 0.22435
H6_6 H 0.74792 0.147728 0.196333
O16_6 O 0.6817(12) 0.1210(9) 0.876(3)
C1_6 C 0.6509(22) 0.7328(15) 0.597(5)
C2_6 C 0.6614(25) 0.7849(17) 0.444(5)
C3_6 C 0.6748(24) 0.7881(17) 0.255(6)
C4_6 C 0.6494(23) 0.8268(16) 0.521(5)
O1_6 O 0.6324(13) 0.7390(9) 0.773(3)
O4_6 O 0.6517(12) 0.5456(9) 0.790(3)
H1_6 H 0.643(7) 0.827(5) 0.71(2)
C5_6 C 0.6825(22) 0.9338(15) 0.069(5)
C6_6 C 0.6720(25) 0.8817(17) 0.222(5)
C7_6 C 0.6586(24) 0.8785(17) 0.411(6)
C8_6 C 0.6840(23) 0.8398(16) 0.145(5)
O8_6 O 0.6752(13) 0.9717(9) 0.132(3)
O9_6 O 0.7034(16) 0.6752(13) 0.868(3)
H3_6 H 0.636063 0.541529 0.92847
H4_6 H 0.62603 0.508664 0.714129
H2_6 H 0.691(7) 0.839(5) 0.95(2)
O4_7 O 0.1210(9) 0.4394(8) 0.124(3)
H3_7 H 0.125138 0.427867 0.261803
H4_7 H 0.158002 0.450699 0.0474625
H1_7 H 0.839(5) 0.149(5) 0.05(2)
C1_7 C 0.9338(15) 0.2514(16) 0.931(5)
C2_7 C 0.8817(17) 0.2098(18) 0.778(5)
C3_7 C 0.8785(17) 0.2200(17) 0.589(6)
C4_7 C 0.8398(16) 0.1559(16) 0.855(5)
C5_7 C 0.7328(15) 0.0820(16) 0.403(5)
C6_7 C 0.7849(17) 0.1236(18) 0.556(5)
C7_7 C 0.7881(17) 0.1134(17) 0.745(6)
C8_7 C 0.8268(16) 0.1775(16) 0.479(5)
H2_7 H 0.827(5) 0.185(5) 0.29(2)
H5_7 H 0.561524 0.00465865 0.557684
O16_7 O 0.5456(9) 0.8940(8) 0.210(3)
H6_7 H 0.518939 0.933525 0.529666
O16_8 O 0.1060(8) 0.6517(12) 0.210(3)
H6_8 H 0.0664746 0.585413 0.529666
O4_8 O 0.5606(8) 0.6817(12) 0.124(3)
H1_8 H 0.851(5) 0.691(7) 0.05(2)
H3_8 H 0.572133 0.69727 0.261803
H4_8 H 0.549301 0.707303 0.0474625
C1_8 C 0.7486(16) 0.6825(22) 0.931(5)
C2_8 C 0.7902(18) 0.6720(25) 0.778(5)
C3_8 C 0.7800(17) 0.6586(24) 0.589(6)
C4_8 C 0.8441(16) 0.6840(23) 0.855(5)
C5_8 C 0.9180(16) 0.6509(22) 0.403(5)
C6_8 C 0.8764(18) 0.6614(25) 0.556(5)
C7_8 C 0.8866(17) 0.6748(24) 0.745(6)
C8_8 C 0.8225(16) 0.6494(23) 0.479(5)
H2_8 H 0.815(5) 0.643(7) 0.29(2)
H5_8 H 0.995341 0.556865 0.557684
H1_9 H 0.309(7) 0.161(5) 0.05(2)
C1_9 C 0.3175(22) 0.0662(15) 0.931(5)
C2_9 C 0.3280(25) 0.1183(17) 0.778(5)
C3_9 C 0.3414(24) 0.1215(17) 0.589(6)
C4_9 C 0.3160(23) 0.1602(16) 0.855(5)
C5_9 C 0.3491(22) 0.2672(15) 0.403(5)
C6_9 C 0.3386(25) 0.2151(17) 0.556(5)
C7_9 C 0.3252(24) 0.2119(17) 0.745(6)
C8_9 C 0.3506(23) 0.1732(16) 0.479(5)
O16_9 O 0.3483(12) 0.4544(9) 0.210(3)
H2_9 H 0.357(7) 0.173(5) 0.29(2)
H5_9 H 0.443135 0.438476 0.557684
H6_9 H 0.414587 0.481061 0.529666
O4_9 O 0.3183(12) 0.8790(9) 0.124(3)
H3_9 H 0.30273 0.874862 0.261803
H4_9 H 0.292697 0.841998 0.0474625
H5_10 H 0.77181 0.662008 0.108983
H6_10 H 0.814395 0.733141 0.137
H3_10 H 0.208196 0.238799 0.404864
H4_10 H 0.175331 0.215967 0.619204
H5_11 H 0.337992 0.109802 0.108983
H6_11 H 0.266859 0.0812533 0.137
H3_11 H 0.761201 0.969396 0.404864
H4_11 H 0.784033 0.959364 0.619204
H3_12 H 0.0306036 0.791804 0.404864
H4_12 H 0.0406363 0.824669 0.619204
H5_12 H 0.890198 0.22819 0.108983
H6_12 H 0.918747 0.185605 0.137
H5_13 H 0.105143 0.328675 0.77565
H6_13 H 0.147728 0.399808 0.803667
H3_13 H 0.541529 0.905466 0.0715302
H4_13 H 0.508664 0.882634 0.285871
H3_14 H 0.094534 0.636063 0.0715302
H4_14 H 0.117366 0.62603 0.285871
H5_14 H 0.671325 0.776468 0.77565
H6_14 H 0.600192 0.74792 0.803667
H3_15 H 0.363937 0.458471 0.0715302
H4_15 H 0.37397 0.491336 0.285871
H5_15 H 0.223532 0.894857 0.77565
H6_15 H 0.25208 0.852272 0.803667
H6_16 H 0.481061 0.0664746 0.470334
H5_16 H 0.438476 0.995341 0.442316
H3_16 H 0.874862 0.572133 0.738197
H4_16 H 0.841998 0.549301 0.952538
H5_17 H 0.00465865 0.443135 0.442316
H3_17 H 0.427867 0.30273 0.738197
H4_17 H 0.450699 0.292697 0.952538
H6_17 H 0.933525 0.414587 0.470334
H3_18 H 0.69727 0.125138 0.738197
H4_18 H 0.707303 0.158002 0.952538
H5_18 H 0.556865 0.561524 0.442316
H6_18 H 0.585413 0.518939 0.470334
loop_
_geom_bond_atom_site_label_1
_geom_bond_atom_site_label_2
_geom_bond_site_symmetry_1
_geom_bond_site_symmetry_2
C1 C2 1_555 1_555
C4 C2 1_555 1_555
Ni1 O2 1_555 1_555
O1 C1 1_555 1_555
O2 C1 1_555 1_555
O4 Ni1 1_555 1_555
H1 C4 1_555 1_555
C7 C4 1_555 1_555
Ni4 O1 1_555 1_555
Ni8 O11 1_555 1_555
O6 Ni1 1_555 1_555
O9 Ni1 1_555 1_555
O11 C7 1_555 1_555
O12 Ni1 1_555 1_555
O14 Ni1 1_555 1_555
Ni4 O9 1_555 1_555
Ni4 O12 1_555 1_555
Ni7 O11 1_555 1_555
O4 H3 1_555 1_555
O4 H4 1_555 1_555
C3 O3 1_555 1_555
O3 Ni3 1_555 1_555
C5 C6 1_555 1_555
C8 C3 1_555 1_555
Ni8 O5 1_555 1_555
Ni4 O3 1_555 1_555
Ni6 O7 1_555 1_555
O5 C5 1_555 1_555
O8 C5 1_555 1_555
O10 Ni8 1_555 1_555
O13 Ni8 1_555 1_555
O15 Ni6 1_555 1_555
O16 Ni6 1_555 1_555
H2 C8 1_555 1_555
C6 C8 1_555 1_555
Ni6 O8 1_555 1_555
Ni6 O10 1_555 1_555
Ni6 O13 1_555 1_555
O7 H5 1_555 1_555
O7 H6 1_555 1_555
C1_2 C2_2 1_555 1_555
C4_2 C2_2 1_555 1_555
Ni1_2 O2_2 1_555 1_555
O1_2 C1_2 1_555 1_555
O2_2 C1_2 1_555 1_555
O4_2 Ni1_2 1_555 1_555
H1_2 C4_2 1_555 1_555
C7_2 C4_2 1_555 1_555
Ni4_2 O1_2 1_555 1_555
O6_2 Ni1_2 1_555 1_555
O11_2 C7_2 1_555 1_555
O12_2 Ni1_2 1_555 1_555
Ni4_2 O12_2 1_555 1_555
Ni7_2 O11_2 1_555 1_555
O4_2 H3_2 1_555 1_555
O4_2 H4_2 1_555 1_555
C3_2 O3_2 1_555 1_555
O3_2 Ni3_2 1_555 1_555
C5_2 C6_2 1_555 1_555
C8_2 C3_2 1_555 1_555
Ni8_2 O5_2 1_555 1_555
Ni6_2 O7_2 1_555 1_555
O5_2 C5_2 1_555 1_555
O8_2 C5_2 1_555 1_555
O13_2 Ni8_2 1_555 1_555
O16_2 Ni6_2 1_555 1_555
H2_2 C8_2 1_555 1_555
C6_2 C8_2 1_555 1_555
Ni6_2 O8_2 1_555 1_555
Ni6_2 O13_2 1_555 1_555
O7_2 H5_2 1_555 1_555
O7_2 H6_2 1_555 1_555
C3_3 O3_3 1_555 1_555
O3_3 Ni3_3 1_555 1_555
C5_3 C6_3 1_555 1_555
C8_3 C3_3 1_555 1_555
Ni8_3 O5_3 1_555 1_555
Ni6_3 O7_3 1_555 1_555
O5_3 C5_3 1_555 1_555
O8_3 C5_3 1_555 1_555
O13_3 Ni8_3 1_555 1_555
O16_3 Ni6_3 1_555 1_555
H2_3 C8_3 1_555 1_555
C6_3 C8_3 1_555 1_555
Ni6_3 O8_3 1_555 1_555
Ni6_3 O13_3 1_555 1_555
O7_3 H5_3 1_555 1_555
O7_3 H6_3 1_555 1_555
C1_3 C2_3 1_555 1_555
C4_3 C2_3 1_555 1_555
Ni1_3 O2_3 1_555 1_555
O1_3 C1_3 1_555 1_555
O2_3 C1_3 1_555 1_555
O4_3 Ni1_3 1_555 1_555
H1_3 C4_3 1_555 1_555
C7_3 C4_3 1_555 1_555
Ni4_3 O1_3 1_555 1_555
O6_3 Ni1_3 1_555 1_555
O11_3 C7_3 1_555 1_555
O12_3 Ni1_3 1_555 1_555
Ni4_3 O12_3 1_555 1_555
Ni7_3 O11_3 1_555 1_555
O4_3 H3_3 1_555 1_555
O4_3 H4_3 1_555 1_555
O4_4 Ni4_2 1_555 1_555
O9_4 Ni4_2 1_555 1_555
O4_4 H3_4 1_555 1_555
O4_4 H4_4 1_555 1_555
C1_4 C2_4 1_555 1_555
C2_4 C3_4 1_555 1_555
C3_4 O14_2 1_555 1_555
C4_4 C2_4 1_555 1_555
O1_4 C1_4 1_555 1_555
O9_2 C1_4 1_555 1_555
H1_4 C4_4 1_555 1_555
C5_4 C6_4 1_555 1_555
C6_4 C7_4 1_555 1_555
C7_4 C4_4 1_555 1_555
C8_4 C3_4 1_555 1_555
Ni3_2 O1_4 1_555 1_555
Ni8_3 O8_4 1_555 1_555
O8_4 C5_4 1_555 1_555
O13_3 C7_4 1_555 1_555
C6_4 C8_4 1_555 1_555
Ni7_3 O7_4 1_555 1_555
O7_4 H5_4 1_555 1_555
O7_4 H6_4 1_555 1_555
C1_5 C2_5 1_555 1_555
C2_5 C3_5 1_555 1_555
C3_5 O14_3 1_555 1_555
C4_5 C2_5 1_555 1_555
O1_5 C1_5 1_555 1_555
O9_3 C1_5 1_555 1_555
H1_5 C4_5 1_555 1_555
C5_5 C6_5 1_555 1_555
C6_5 C7_5 1_555 1_555
C7_5 C4_5 1_555 1_555
C8_5 C3_5 1_555 1_555
Ni3_3 O1_5 1_555 1_555
Ni7 O7_5 1_555 1_555
Ni8 O8_5 1_555 1_555
O8_5 C5_5 1_555 1_555
O13 C7_5 1_555 1_555
C6_5 C8_5 1_555 1_555
Ni7 O8_5 1_555 1_555
O7_5 H5_5 1_555 1_555
O7_5 H6_5 1_555 1_555
O4_5 Ni4_3 1_555 1_555
O9_5 Ni4_3 1_555 1_555
O4_5 H3_5 1_555 1_555
O4_5 H4_5 1_555 1_555
Ni7_2 O7_6 1_555 1_555
O7_6 H5_6 1_555 1_555
O7_6 H6_6 1_555 1_555
C1_6 C2_6 1_555 1_555
C2_6 C3_6 1_555 1_555
C3_6 O14 1_555 1_555
C4_6 C2_6 1_555 1_555
O1_6 C1_6 1_555 1_555
O9 C1_6 1_555 1_555
O4_6 Ni4 1_555 1_555
H1_6 C4_6 1_555 1_555
C5_6 C6_6 1_555 1_555
C6_6 C7_6 1_555 1_555
C7_6 C4_6 1_555 1_555
C8_6 C3_6 1_555 1_555
Ni3 O1_6 1_555 1_555
Ni8_2 O8_6 1_555 1_555
O8_6 C5_6 1_555 1_555
O9_6 Ni4 1_555 1_555
O13_2 C7_6 1_555 1_555
C6_6 C8_6 1_555 1_555
Ni3 O9_6 1_555 1_555
O4_6 H3_6 1_555 1_555
O4_6 H4_6 1_555 1_555
O4_7 H3_7 1_555 1_555
O4_7 H4_7 1_555 1_555
C1_7 C2_7 1_555 1_555
C2_7 C3_7 1_555 1_555
C3_7 O12_3 1_555 1_555
C4_7 C2_7 1_555 1_555
O9_5 C1_7 1_555 1_555
C5_7 C6_7 1_555 1_555
C6_7 C7_7 1_555 1_555
C7_7 C4_7 1_555 1_555
C8_7 C3_7 1_555 1_555
O7_6 C5_7 1_555 1_555
O10_2 C5_7 1_555 1_555
O15_2 C7_7 1_555 1_555
H2_7 C8_7 1_555 1_555
C6_7 C8_7 1_555 1_555
O16_7 Ni8_2 1_555 1_555
O5_2 H6_7 1_555 1_555
O16_8 Ni8_3 1_555 1_555
O5_3 H6_8 1_555 1_555
O4_8 H3_8 1_555 1_555
O4_8 H4_8 1_555 1_555
C1_8 C2_8 1_555 1_555
C2_8 C3_8 1_555 1_555
C3_8 O12 1_555 1_555
C4_8 C2_8 1_555 1_555
O9_6 C1_8 1_555 1_555
C5_8 C6_8 1_555 1_555
C6_8 C7_8 1_555 1_555
C7_8 C4_8 1_555 1_555
C8_8 C3_8 1_555 1_555
O7_4 C5_8 1_555 1_555
O10_3 C5_8 1_555 1_555
O15_3 C7_8 1_555 1_555
H2_8 C8_8 1_555 1_555
C6_8 C8_8 1_555 1_555
C1_9 C2_9 1_555 1_555
C2_9 C3_9 1_555 1_555
C3_9 O12_2 1_555 1_555
C4_9 C2_9 1_555 1_555
O9_4 C1_9 1_555 1_555
C5_9 C6_9 1_555 1_555
C6_9 C7_9 1_555 1_555
C7_9 C4_9 1_555 1_555
C8_9 C3_9 1_555 1_555
O7_5 C5_9 1_555 1_555
O10 C5_9 1_555 1_555
O15 C7_9 1_555 1_555
O16_9 Ni8 1_555 1_555
H2_9 C8_9 1_555 1_555
C6_9 C8_9 1_555 1_555
O5 H5_9 1_555 1_555
O5 H6_9 1_555 1_555
O4_9 H3_9 1_555 1_555
O4_9 H4_9 1_555 1_555
O6 H5_10 1_555 1_555
O6 H6_10 1_555 1_555
O16 H3_10 1_555 1_555
O16 H4_10 1_555 1_555
O6_2 H5_11 1_555 1_555
O6_2 H6_11 1_555 1_555
O16_2 H3_11 1_555 1_555
O16_2 H4_11 1_555 1_555
O16_3 H3_12 1_555 1_555
O16_3 H4_12 1_555 1_555
O6_3 H5_12 1_555 1_555
O6_3 H6_12 1_555 1_555
O1_5 H5_13 1_555 1_555
O1_5 H6_13 1_555 1_555
O16_7 H3_13 1_555 1_555
O16_7 H4_13 1_555 1_555
O16_8 H3_14 1_555 1_555
O16_8 H4_14 1_555 1_555
O1_6 H5_14 1_555 1_555
O1_6 H6_14 1_555 1_555
O16_9 H3_15 1_555 1_555
O16_9 H4_15 1_555 1_555
O1_4 H5_15 1_555 1_555
O1_4 H6_15 1_555 1_555
O1_2 H6_16 1_555 1_555
O16_4 H3_16 1_555 1_555
O16_4 H4_16 1_555 1_555
O16_5 H3_17 1_555 1_555
O16_5 H4_17 1_555 1_555
O1_3 H6_17 1_555 1_555
O16_6 H3_18 1_555 1_555
O16_6 H4_18 1_555 1_555
O1 H5_18 1_555 1_555
O1 H6_18 1_555 1_555

#END
