
###############################################################################
#
# This file contains modified crystal structure data generated from the
# MOF subset of the Cambridge Structural Database (CSD) v543 
# hosted by the Cambridge Crystallographic Data Centre (CCDC).
#
# This work is licensed under the Creative Commons
# Attribution-NonCommercial-ShareAlike 4.0 International License.
# To view a copy of this license, visit
# http://creativecommons.org/licenses/by-nc-sa/4.0/
# or send a letter to
# Creative Commons, PO Box 1866, Mountain View, CA 94042, USA.
#
# CIF created using the CSD Python API on 29 September 2022
# The structure has been converted into the P1 space group
# The structure has a 3D framework
# The original CSD entry LEJVAB is in the tetragonal crystal system
# The framework has been calculated to contain at least 10.0% void space
# The void calculation uses a probe of radius 1.32A, grid spacing 0.4
#
###############################################################################

data_LEJVAB
_chemical_formula_moiety         '(C720 H400 Eu16 N64 O202)n'
_symmetry_cell_setting           triclinic
_symmetry_space_group_name_H-M   'P 1'
_symmetry_Int_Tables_number      1
_space_group_name_Hall           'P 1'
loop_
_symmetry_equiv_pos_site_id
_symmetry_equiv_pos_as_xyz
1 x,y,z
_cell_length_a                   38.2925(7)
_cell_length_b                   38.2925(7)
_cell_length_c                   16.4164(4)
_cell_angle_alpha                90
_cell_angle_beta                 90
_cell_angle_gamma                90
_cell_volume                     24071.6
loop_
_atom_site_label
_atom_site_type_symbol
_atom_site_fract_x
_atom_site_fract_y
_atom_site_fract_z
Eu6 Eu 0.76418(2) 0.47227(2) 0.02516(2)
Eu1 Eu 0.73582(2) 0.02773(2) 0.47484(2)
O1 O 0.69989(10) 0.02351(10) 0.3627(2)
O2 O 0.71722(10) 0.01424(11) 0.2354(2)
O4 O 0.55977(11) 0.05036(13) 0.3208(3)
O5 O 0.76808(12) 0.07152(10) 0.2738(2)
O6 O 0.76164(11) 0.07381(10) 0.4089(2)
O7 O 0.72029(12) 0.19172(11) 0.4351(3)
O8 O 0.83321(13) 0.20989(12) 0.5140(3)
O9 O 0.66514(15) 0.32369(14) 0.7065(3)
O10 O 0.77378(14) 0.32514(11) 0.8180(3)
O11 O 0.76221(10) 0.45240(10) 0.7625(2)
O12 O 0.74921(9) 0.47169(9) 0.8845(2)
O13 O 0.71231(12) 0.08062(11) 0.5323(2)
N2 N 0.77716(14) 0.20205(12) 0.4709(3)
N3 N 0.72101(16) 0.32723(13) 0.7555(3)
N4 N 0.67446(13) 0.12413(13) 0.5627(3)
C1 C 0.69492(14) 0.01450(14) 0.2899(3)
C2 C 0.65885(14) 0.00227(15) 0.2691(3)
C7 C 0.63185(14) 0.00475(16) 0.3244(3)
H4 H 0.6357 0.0152 0.3762
C11 C 0.52178(14) 0.02784(17) 0.4216(4)
C12 C 0.55147(15) 0.02616(18) 0.3657(4)
C13 C 0.50174(16) 0.05756(18) 0.4261(4)
H5 H 0.5070 0.0769 0.3919
C15 C 0.77075(17) 0.08622(15) 0.3423(4)
C16 C 0.78453(16) 0.12292(14) 0.3429(3)
C17 C 0.80632(16) 0.13542(15) 0.2794(3)
H7 H 0.8119 0.1207 0.2346
C18 C 0.81937(18) 0.16904(16) 0.2828(4)
H8 H 0.8349 0.1770 0.2416
C19 C 0.81007(17) 0.19103(16) 0.3452(4)
H9 H 0.8181 0.2145 0.3459
C20 C 0.78884(18) 0.17856(15) 0.4074(4)
C21 C 0.77708(15) 0.14444(14) 0.4067(3)
H10 H 0.7637 0.1359 0.4511
C22 C 0.74062(18) 0.20748(15) 0.4783(4)
C23 C 0.8026(2) 0.21678(16) 0.5216(4)
C24 C 0.78993(18) 0.24100(15) 0.5860(4)
C25 C 0.75354(18) 0.24931(14) 0.5888(4)
C26 C 0.72901(18) 0.23398(15) 0.5379(4)
C27 C 0.69446(18) 0.24296(15) 0.5420(4)
H11 H 0.6780 0.2317 0.5077
C28 C 0.68335(19) 0.26898(15) 0.5971(4)
H12 H 0.6595 0.2758 0.5980
C29 C 0.70645(17) 0.28440(15) 0.6492(4)
C30 C 0.74182(18) 0.27467(15) 0.6474(3)
C31 C 0.7665(2) 0.28915(15) 0.7021(4)
C32 C 0.8018(2) 0.27973(16) 0.6989(4)
H13 H 0.8180 0.2896 0.7362
C33 C 0.81309(19) 0.25535(16) 0.6397(4)
H14 H 0.8370 0.2489 0.6373
C34 C 0.7550(2) 0.31495(16) 0.7639(4)
C35 C 0.6944(2) 0.31307(17) 0.7050(4)
C36 C 0.71185(19) 0.35762(16) 0.8051(4)
C37 C 0.68610(19) 0.35620(18) 0.8624(4)
H15 H 0.6726 0.3356 0.8691
C38 C 0.67980(18) 0.38525(17) 0.9107(4)
H16 H 0.6616 0.3846 0.9500
C39 C 0.69960(16) 0.41492(15) 0.9023(3)
H17 H 0.6958 0.4342 0.9377
C40 C 0.72511(15) 0.41697(13) 0.8423(3)
C41 C 0.74687(14) 0.44813(13) 0.8288(3)
C42 C 0.73070(17) 0.38812(15) 0.7927(3)
H18 H 0.7475 0.3893 0.7502
C43 C 0.69511(16) 0.10716(17) 0.5130(4)
H19 H 0.6972 0.1155 0.4587
C44 C 0.66873(19) 0.1137(2) 0.6453(4)
H20 H 0.6440 0.1082 0.6531
H21 H 0.6754 0.1328 0.6819
H22 H 0.6829 0.0930 0.6574
C45 C 0.6550(2) 0.1539(2) 0.5356(5)
H23 H 0.6606 0.1588 0.4785
H24 H 0.6610 0.1742 0.5692
H25 H 0.6299 0.1491 0.5407
O16 O 0.41883(13) 0.06052(14) 0.5970(3)
N5 N 0.42932(12) 0.00517(14) 0.6371(3)
C48 C 0.34718(15) 0.01260(16) 0.8077(3)
H26 H 0.3288 0.0139 0.8463
C49 C 0.38026(16) 0.02541(18) 0.8273(4)
H27 H 0.3845 0.0353 0.8795
C50 C 0.40696(16) 0.02366(18) 0.7701(4)
H28 H 0.4292 0.0332 0.7824
C51 C 0.40122(15) 0.00815(17) 0.6960(3)
C53 C 0.43637(17) 0.0350(2) 0.5905(4)
C54 C 0.46563(15) 0.03203(17) 0.5317(4)
C55 C 0.48557(15) 0.00095(17) 0.5278(4)
C59 C 0.47358(17) 0.05971(18) 0.4809(4)
H31 H 0.4599 0.0804 0.4830
Eu5 Eu 0.77773(2) 0.01418(2) 0.22484(2)
Eu7 Eu 0.77773(2) 0.51418(2) 0.77516(2)
O28 O 0.26424(11) 0.03278(10) 0.5146(2)
O29 O 0.67848(10) 0.01808(12) 0.5238(2)
O32 O 0.79760(10) 0.01221(10) 0.4875(2)
O34 O 0.22169(9) 0.00079(9) 0.6345(2)
O35 O 0.75079(9) 0.02831(9) 0.6155(2)
O3 O 0.58117(13) 0.93948(14) 0.4030(3)
N1 N 0.57068(12) 0.99483(14) 0.3629(3)
C3 C 0.65282(15) 0.98740(16) 0.1923(3)
H1 H 0.6712 0.9861 0.1537
C4 C 0.61974(16) 0.97459(18) 0.1727(4)
H2 H 0.6155 0.9647 0.1205
C5 C 0.59304(16) 0.97634(18) 0.2299(4)
H3 H 0.5708 0.9668 0.2176
C6 C 0.59878(15) 0.99185(17) 0.3040(3)
C8 C 0.56363(17) 0.9650(2) 0.4095(4)
C9 C 0.53437(15) 0.96797(17) 0.4683(4)
C10 C 0.51443(15) 0.99905(17) 0.4722(4)
C14 C 0.52642(17) 0.94029(18) 0.5191(4)
H6 H 0.5401 0.9196 0.5170
O14 O 0.30011(10) 0.97649(10) 0.6373(2)
O15 O 0.28278(10) 0.98576(11) 0.7646(2)
O17 O 0.44023(11) 0.94964(13) 0.6792(3)
C46 C 0.30508(14) 0.98550(14) 0.7101(3)
C47 C 0.34115(14) 0.99773(15) 0.7309(3)
C52 C 0.36815(14) 0.99525(16) 0.6756(3)
H29 H 0.3643 0.9848 0.6238
C56 C 0.47822(14) 0.97216(17) 0.5784(4)
C57 C 0.44853(15) 0.97384(18) 0.6343(4)
C58 C 0.49826(16) 0.94244(18) 0.5739(4)
H30 H 0.4930 0.9231 0.6081
Eu2 Eu 0.26418(2) 0.97227(2) 0.52516(2)
O18 O 0.23192(12) 0.92848(10) 0.7262(2)
O19 O 0.23836(11) 0.92619(10) 0.5911(2)
O20 O 0.27971(12) 0.80828(11) 0.5649(3)
O21 O 0.16679(13) 0.79011(12) 0.4860(3)
O22 O 0.33486(15) 0.67631(14) 0.2935(3)
O23 O 0.22622(14) 0.67486(11) 0.1820(3)
O24 O 0.23779(10) 0.54760(10) 0.2375(2)
O25 O 0.25079(9) 0.52831(9) 0.1155(2)
O26 O 0.28769(12) 0.91938(11) 0.4677(2)
N6 N 0.22284(14) 0.79795(12) 0.5291(3)
N7 N 0.27899(16) 0.67277(13) 0.2445(3)
N8 N 0.32554(13) 0.87587(13) 0.4373(3)
C60 C 0.22925(17) 0.91378(15) 0.6577(4)
C61 C 0.21547(16) 0.87708(14) 0.6571(3)
C62 C 0.19368(16) 0.86458(15) 0.7206(3)
H32 H 0.1881 0.8793 0.7654
C63 C 0.18063(18) 0.83096(16) 0.7172(4)
H33 H 0.1651 0.8230 0.7584
C64 C 0.18993(17) 0.80897(16) 0.6548(4)
H34 H 0.1819 0.7855 0.6541
C65 C 0.21116(18) 0.82144(15) 0.5926(4)
C66 C 0.22292(15) 0.85556(14) 0.5933(3)
H35 H 0.2363 0.8641 0.5489
C67 C 0.25938(18) 0.79252(15) 0.5217(4)
C68 C 0.1974(2) 0.78322(16) 0.4784(4)
C69 C 0.21007(18) 0.75900(15) 0.4140(4)
C70 C 0.24646(18) 0.75069(14) 0.4112(4)
C71 C 0.27099(18) 0.76602(15) 0.4621(4)
C72 C 0.30554(18) 0.75704(15) 0.4580(4)
H36 H 0.3220 0.7683 0.4923
C73 C 0.31665(19) 0.73102(15) 0.4029(4)
H37 H 0.3405 0.7242 0.4020
C74 C 0.29355(17) 0.71560(15) 0.3508(4)
C75 C 0.25818(18) 0.72533(15) 0.3526(3)
C76 C 0.2335(2) 0.71085(15) 0.2979(4)
C77 C 0.1982(2) 0.72027(16) 0.3011(4)
H38 H 0.1820 0.7104 0.2638
C78 C 0.18691(19) 0.74465(16) 0.3603(4)
H39 H 0.1630 0.7511 0.3627
C79 C 0.2450(2) 0.68505(16) 0.2361(4)
C80 C 0.3056(2) 0.68693(17) 0.2950(4)
C81 C 0.28815(19) 0.64238(16) 0.1949(4)
C82 C 0.31390(19) 0.64380(18) 0.1376(4)
H40 H 0.3274 0.6644 0.1309
C83 C 0.32020(18) 0.61475(17) 0.0893(4)
H41 H 0.3384 0.6154 0.0500
C84 C 0.30040(16) 0.58508(15) 0.0977(3)
H42 H 0.3042 0.5658 0.0623
C85 C 0.27489(15) 0.58303(13) 0.1577(3)
C86 C 0.25313(14) 0.55187(13) 0.1712(3)
C87 C 0.26930(17) 0.61188(15) 0.2073(3)
H43 H 0.2525 0.6107 0.2498
C88 C 0.30489(16) 0.89284(17) 0.4870(4)
H44 H 0.3028 0.8845 0.5413
C89 C 0.33127(19) 0.8863(2) 0.3547(4)
H45 H 0.3560 0.8918 0.3469
H46 H 0.3246 0.8672 0.3181
H47 H 0.3171 0.9070 0.3426
C90 C 0.3450(2) 0.8461(2) 0.4644(5)
H48 H 0.3394 0.8412 0.5215
H49 H 0.3390 0.8258 0.4308
H50 H 0.3701 0.8509 0.4593
Eu4 Eu 0.22227(2) 0.48582(2) 0.22484(2)
Eu8 Eu 0.22227(2) 0.98582(2) 0.77516(2)
O27 O 0.73576(11) 0.96722(10) 0.4854(2)
O30 O 0.32152(10) 0.98192(12) 0.4762(2)
O31 O 0.20240(10) 0.98779(10) 0.5125(2)
O33 O 0.24921(9) 0.97169(9) 0.3845(2)
O36 O 0.77831(9) 0.99921(9) 0.3655(2)
Eu3 Eu 0.23582(2) 0.52773(2) 0.97484(2)
O22_2 O 0.07369(14) 0.58486(15) 0.5435(3)
O23_2 O 0.07514(11) 0.47622(14) 0.4320(3)
O24_2 O 0.20240(10) 0.48779(10) 0.4875(2)
O25_2 O 0.22169(9) 0.50079(9) 0.3655(2)
N7_2 N 0.07723(13) 0.52899(16) 0.4945(3)
C73_2 C 0.01898(15) 0.56665(19) 0.6529(4)
H37_2 H 0.0258 0.5905 0.6520
C74_2 C 0.03440(15) 0.54355(17) 0.6008(4)
C75_2 C 0.02467(15) 0.50818(18) 0.6026(3)
C76_2 C 0.03915(15) 0.4835(2) 0.5479(4)
C77_2 C 0.02973(16) 0.4482(2) 0.5511(4)
H38_2 H 0.0396 0.4320 0.5138
C78_2 C 0.00535(16) 0.43691(19) 0.6103(4)
C79_2 C 0.06495(16) 0.4950(2) 0.4861(4)
C80_2 C 0.06307(17) 0.5556(2) 0.5450(4)
C81_2 C 0.10762(16) 0.53815(19) 0.4449(4)
C82_2 C 0.10620(18) 0.56390(19) 0.3876(4)
H40_2 H 0.0856 0.5774 0.3809
C83_2 C 0.13525(17) 0.57020(18) 0.3393(4)
H41_2 H 0.1346 0.5884 0.3000
C84_2 C 0.16492(15) 0.55040(16) 0.3477(3)
H42_2 H 0.1842 0.5542 0.3123
C85_2 C 0.16697(13) 0.52489(15) 0.4077(3)
C86_2 C 0.19813(13) 0.50313(14) 0.4212(3)
C87_2 C 0.13812(15) 0.51930(17) 0.4573(3)
H43_2 H 0.1393 0.5025 0.4998
Eu4_2 Eu 0.26418(2) 0.47227(2) 0.47484(2)
O10_2 O 0.42486(11) 0.02378(14) 0.0680(3)
O11_2 O 0.29760(10) 0.01221(10) 0.0125(2)
C34_2 C 0.43505(16) 0.0050(2) 0.0139(4)
Eu6_2 Eu 0.27773(2) 0.01418(2) 0.27516(2)
Eu7_2 Eu 0.23582(2) 0.02773(2) 0.02516(2)
O6_2 O 0.67619(10) 0.01164(11) 0.6589(2)
O8_2 O 0.54011(12) 0.08321(13) 0.7640(3)
N2_2 N 0.54795(12) 0.02716(14) 0.7209(3)
C15_2 C 0.66378(15) 0.02075(17) 0.5923(4)
C16_2 C 0.62708(14) 0.03453(16) 0.5929(3)
C17_2 C 0.61458(15) 0.05632(16) 0.5294(3)
H7_2 H 0.6293 0.0619 0.4846
C18_2 C 0.58096(16) 0.06937(18) 0.5328(4)
H8_2 H 0.5730 0.0849 0.4916
C19_2 C 0.55897(16) 0.06007(17) 0.5952(4)
H9_2 H 0.5355 0.0681 0.5959
C20_2 C 0.57144(15) 0.03884(18) 0.6574(4)
C21_2 C 0.60556(14) 0.02708(15) 0.6567(3)
H10_2 H 0.6141 0.0137 0.7011
C23_2 C 0.53322(16) 0.0526(2) 0.7716(4)
C24_2 C 0.50900(15) 0.03993(18) 0.8360(4)
C25_2 C 0.50069(14) 0.00354(18) 0.8388(4)
C31_2 C 0.46085(15) 0.0165(2) 0.9521(4)
C32_2 C 0.47027(16) 0.0518(2) 0.9489(4)
H13_2 H 0.4604 0.0680 0.9862
C33_2 C 0.49465(16) 0.06309(19) 0.8897(4)
H14_2 H 0.5011 0.0870 0.8873
O32_2 O 0.73779(10) 0.04760(10) 0.7375(2)
O35_2 O 0.72169(9) 0.00079(9) 0.8655(2)
O12_2 O 0.27831(9) 0.99921(9) 0.1345(2)
N3_2 N 0.42277(13) 0.97101(16) 0.0055(3)
C36_2 C 0.39238(16) 0.96185(19) 0.0551(4)
C37_2 C 0.39380(18) 0.93610(19) 0.1124(4)
H15_2 H 0.4144 0.9226 0.1191
C38_2 C 0.36475(17) 0.92980(18) 0.1607(4)
H16_2 H 0.3654 0.9116 0.2000
C39_2 C 0.33508(15) 0.94960(16) 0.1523(3)
H17_2 H 0.3158 0.9458 0.1877
C40_2 C 0.33303(13) 0.97511(15) 0.0923(3)
C41_2 C 0.30187(13) 0.99687(14) 0.0788(3)
C42_2 C 0.36188(15) 0.98070(17) 0.0427(3)
H18_2 H 0.3607 0.9975 0.0002
O15_2 O 0.76424(11) 0.53278(10) 0.0146(2)
C48_2 C 0.73740(16) 0.59718(15) 0.0577(3)
H26_2 H 0.7361 0.5788 0.0963
C49_2 C 0.72459(18) 0.63026(16) 0.0773(4)
H27_2 H 0.7147 0.6345 0.1295
C50_2 C 0.72634(18) 0.65696(16) 0.0201(4)
H28_2 H 0.7168 0.6792 0.0324
H32_2 H 0.8707 0.4381 0.0154
H33_2 H 0.9270 0.4151 0.0084
Eu1_2 Eu 0.72227(2) 0.98582(2) 0.72484(2)
O1_2 O 0.72649(10) 0.94989(10) 0.6127(2)
O3_2 O 0.81052(14) 0.83117(13) 0.6530(3)
O4_2 O 0.69964(13) 0.80977(11) 0.5708(3)
O7_2 O 0.55828(11) 0.97029(12) 0.6851(3)
O9_2 O 0.42631(14) 0.91514(15) 0.9565(3)
O13_2 O 0.66938(11) 0.96231(12) 0.7823(2)
N1_2 N 0.75517(14) 0.82068(12) 0.6129(3)
N4_2 N 0.62587(13) 0.92446(13) 0.8127(3)
C1_2 C 0.73550(14) 0.94492(14) 0.5399(3)
C2_2 C 0.74773(15) 0.90885(14) 0.5191(3)
C3_2 C 0.76260(16) 0.90282(15) 0.4423(3)
H1_2 H 0.7639 0.9212 0.4037
C4_2 C 0.77541(18) 0.86974(16) 0.4227(4)
H2_2 H 0.7853 0.8655 0.3705
C5_2 C 0.77366(18) 0.84304(16) 0.4799(4)
H3_2 H 0.7832 0.8208 0.4676
C6_2 C 0.75815(17) 0.84878(15) 0.5540(3)
C7_2 C 0.74525(16) 0.88185(14) 0.5744(3)
H4_2 H 0.7348 0.8857 0.6262
C8_2 C 0.7850(2) 0.81363(17) 0.6595(4)
C9_2 C 0.78203(17) 0.78437(15) 0.7183(4)
C10_2 C 0.75095(17) 0.76443(15) 0.7222(4)
C11_2 C 0.72216(17) 0.77178(14) 0.6716(4)
C12_2 C 0.72384(18) 0.80147(15) 0.6157(4)
C13_2 C 0.69244(18) 0.75174(16) 0.6761(4)
H5_2 H 0.6731 0.7570 0.6419
C14_2 C 0.80971(18) 0.77642(17) 0.7691(4)
H6_2 H 0.8304 0.7901 0.7670
C22_2 C 0.54252(15) 0.99062(18) 0.7283(4)
C26_2 C 0.51602(15) 0.97901(18) 0.7879(4)
C27_2 C 0.50704(15) 0.94446(18) 0.7920(4)
H11_2 H 0.5183 0.9280 0.7577
C28_2 C 0.48102(15) 0.93335(19) 0.8471(4)
H12_2 H 0.4742 0.9095 0.8480
C29_2 C 0.46560(15) 0.95645(17) 0.8992(4)
C30_2 C 0.47533(15) 0.99182(18) 0.8974(3)
C35_2 C 0.43693(17) 0.9444(2) 0.9550(4)
C43_2 C 0.64284(17) 0.94511(16) 0.7630(4)
H19_2 H 0.6345 0.9472 0.7087
C44_2 C 0.6363(2) 0.91873(19) 0.8953(4)
H20_2 H 0.6418 0.8940 0.9031
H21_2 H 0.6172 0.9254 0.9319
H22_2 H 0.6570 0.9329 0.9074
C45_2 C 0.5961(2) 0.9050(2) 0.7856(5)
H23_2 H 0.5912 0.9106 0.7285
H24_2 H 0.5758 0.9110 0.8192
H25_2 H 0.6009 0.8799 0.7907
O14_2 O 0.77351(10) 0.55011(10) 0.8873(2)
O16_2 O 0.68948(14) 0.66883(13) 0.8470(3)
O17_2 O 0.80036(13) 0.69023(11) 0.9292(3)
N5_2 N 0.74483(14) 0.67932(12) 0.8871(3)
C46_2 C 0.76450(14) 0.55508(14) 0.9601(3)
C47_2 C 0.75227(15) 0.59115(14) 0.9809(3)
C51_2 C 0.74185(17) 0.65122(15) 0.9460(3)
C52_2 C 0.75475(16) 0.61815(14) 0.9256(3)
H29_2 H 0.7652 0.6143 0.8738
C53_2 C 0.7150(2) 0.68637(17) 0.8405(4)
C54_2 C 0.71797(17) 0.71563(15) 0.7817(4)
C55_2 C 0.74905(17) 0.73557(15) 0.7778(4)
C56_2 C 0.77784(17) 0.72822(14) 0.8284(4)
C57_2 C 0.77616(18) 0.69853(15) 0.8843(4)
C58_2 C 0.80756(18) 0.74826(16) 0.8239(4)
H30_2 H 0.8269 0.7430 0.8581
C59_2 C 0.69029(18) 0.72358(17) 0.7309(4)
H31_2 H 0.6696 0.7099 0.7330
O18_2 O 0.82152(10) 0.48192(12) 0.9762(2)
O19_2 O 0.82381(10) 0.48836(11) 0.8411(2)
O20_2 O 0.94172(11) 0.52971(12) 0.8149(3)
O21_2 O 0.95989(12) 0.41679(13) 0.7360(3)
O26_2 O 0.83062(11) 0.53769(12) 0.7177(2)
N6_2 N 0.95205(12) 0.47284(14) 0.7791(3)
N8_2 N 0.87413(13) 0.57554(13) 0.6873(3)
C60_2 C 0.83622(15) 0.47925(17) 0.9077(4)
C61_2 C 0.87292(14) 0.46547(16) 0.9071(3)
C62_2 C 0.88542(15) 0.44368(16) 0.9706(3)
C63_2 C 0.91904(16) 0.43063(18) 0.9672(4)
C64_2 C 0.94103(16) 0.43993(17) 0.9048(4)
H34_2 H 0.9645 0.4319 0.9041
C65_2 C 0.92856(15) 0.46116(18) 0.8426(4)
C66_2 C 0.89444(14) 0.47292(15) 0.8433(3)
H35_2 H 0.8859 0.4863 0.7989
C67_2 C 0.95748(15) 0.50938(18) 0.7717(4)
C68_2 C 0.96678(16) 0.4474(2) 0.7284(4)
C69_2 C 0.99100(15) 0.46007(18) 0.6640(4)
C70_2 C 0.99931(14) 0.49646(18) 0.6612(4)
C71_2 C 0.98398(15) 0.52099(18) 0.7121(4)
C72_2 C 0.99296(15) 0.55554(18) 0.7080(4)
H36_2 H 0.9817 0.5720 0.7423
H39_2 H 0.9989 0.4130 0.6127
C88_2 C 0.85716(17) 0.55489(16) 0.7370(4)
H44_2 H 0.8655 0.5528 0.7913
C89_2 C 0.8637(2) 0.58127(19) 0.6047(4)
H45_2 H 0.8582 0.6060 0.5969
H46_2 H 0.8828 0.5746 0.5681
H47_2 H 0.8430 0.5671 0.5926
C90_2 C 0.9039(2) 0.5950(2) 0.7144(5)
H48_2 H 0.9088 0.5894 0.7715
H49_2 H 0.9242 0.5890 0.6808
H50_2 H 0.8991 0.6201 0.7093
O27_2 O 0.78278(10) 0.98576(11) 0.7354(2)
O28_2 O 0.71722(10) 0.51424(11) 0.7646(2)
O29_2 O 0.73192(12) 0.92848(10) 0.7738(2)
O30_2 O 0.76808(12) 0.57152(10) 0.7262(2)
O33_2 O 0.77831(9) 0.49921(9) 0.6345(2)
O1_3 O 0.30011(10) 0.47649(10) 0.3627(2)
O2_2 O 0.28278(10) 0.48576(11) 0.2354(2)
O3_3 O 0.41883(13) 0.56052(14) 0.4030(3)
O4_3 O 0.44023(11) 0.44964(13) 0.3208(3)
O5_2 O 0.23192(12) 0.42848(10) 0.2738(2)
O6_3 O 0.23836(11) 0.42619(10) 0.4089(2)
O7_3 O 0.27971(12) 0.30828(11) 0.4351(3)
O8_3 O 0.16679(13) 0.29011(12) 0.5140(3)
O9_3 O 0.33486(15) 0.17631(14) 0.7065(3)
O10_3 O 0.22622(14) 0.17486(11) 0.8180(3)
O11_3 O 0.23779(10) 0.04760(10) 0.7625(2)
O12_3 O 0.25079(9) 0.02831(9) 0.8845(2)
O13_3 O 0.28769(12) 0.41938(11) 0.5323(2)
N1_3 N 0.42932(12) 0.50517(14) 0.3629(3)
N2_3 N 0.22284(14) 0.29795(12) 0.4709(3)
N3_3 N 0.27899(16) 0.17277(13) 0.7555(3)
N4_3 N 0.32554(13) 0.37587(13) 0.5627(3)
C1_3 C 0.30508(14) 0.48550(14) 0.2899(3)
C2_3 C 0.34115(14) 0.49773(15) 0.2691(3)
C3_3 C 0.34718(15) 0.51260(16) 0.1923(3)
H1_3 H 0.3288 0.5139 0.1537
C4_3 C 0.38026(16) 0.52541(18) 0.1727(4)
H2_3 H 0.3845 0.5353 0.1205
C5_3 C 0.40696(16) 0.52366(18) 0.2299(4)
H3_3 H 0.4292 0.5332 0.2176
C6_3 C 0.40122(15) 0.50815(17) 0.3040(3)
C7_3 C 0.36815(14) 0.49525(16) 0.3244(3)
H4_3 H 0.3643 0.4848 0.3762
C8_3 C 0.43637(17) 0.5350(2) 0.4095(4)
C9_3 C 0.46563(15) 0.53203(17) 0.4683(4)
C10_3 C 0.48557(15) 0.50095(17) 0.4722(4)
C11_3 C 0.47822(14) 0.47216(17) 0.4216(4)
C12_3 C 0.44853(15) 0.47384(18) 0.3657(4)
C13_3 C 0.49826(16) 0.44244(18) 0.4261(4)
H5_3 H 0.4930 0.4231 0.3919
C14_3 C 0.47358(17) 0.55971(18) 0.5191(4)
H6_3 H 0.4599 0.5804 0.5170
C15_3 C 0.22925(17) 0.41378(15) 0.3423(4)
C16_3 C 0.21547(16) 0.37708(14) 0.3429(3)
C17_3 C 0.19368(16) 0.36458(15) 0.2794(3)
H7_3 H 0.1881 0.3793 0.2346
C18_3 C 0.18063(18) 0.33096(16) 0.2828(4)
H8_3 H 0.1651 0.3230 0.2416
C19_3 C 0.18993(17) 0.30897(16) 0.3452(4)
H9_3 H 0.1819 0.2855 0.3459
C20_3 C 0.21116(18) 0.32144(15) 0.4074(4)
C21_3 C 0.22292(15) 0.35556(14) 0.4067(3)
H10_3 H 0.2363 0.3641 0.4511
C22_3 C 0.25938(18) 0.29252(15) 0.4783(4)
C23_3 C 0.1974(2) 0.28322(16) 0.5216(4)
C24_3 C 0.21007(18) 0.25900(15) 0.5860(4)
C25_3 C 0.24646(18) 0.25069(14) 0.5888(4)
C26_3 C 0.27099(18) 0.26602(15) 0.5379(4)
C27_3 C 0.30554(18) 0.25704(15) 0.5420(4)
H11_3 H 0.3220 0.2683 0.5077
C28_3 C 0.31665(19) 0.23102(15) 0.5971(4)
H12_3 H 0.3405 0.2242 0.5980
C29_3 C 0.29355(17) 0.21560(15) 0.6492(4)
C30_3 C 0.25818(18) 0.22533(15) 0.6474(3)
C31_3 C 0.2335(2) 0.21085(15) 0.7021(4)
C32_3 C 0.1982(2) 0.22027(16) 0.6989(4)
H13_3 H 0.1820 0.2104 0.7362
C33_3 C 0.18691(19) 0.24465(16) 0.6397(4)
H14_3 H 0.1630 0.2511 0.6373
C34_3 C 0.2450(2) 0.18505(16) 0.7639(4)
C35_3 C 0.3056(2) 0.18693(17) 0.7050(4)
C36_3 C 0.28815(19) 0.14238(16) 0.8051(4)
C37_3 C 0.31390(19) 0.14380(18) 0.8624(4)
H15_3 H 0.3274 0.1644 0.8691
C38_3 C 0.32020(18) 0.11475(17) 0.9107(4)
H16_3 H 0.3384 0.1154 0.9500
C39_3 C 0.30040(16) 0.08508(15) 0.9023(3)
H17_3 H 0.3042 0.0658 0.9377
C40_3 C 0.27489(15) 0.08303(13) 0.8423(3)
C41_3 C 0.25313(14) 0.05187(13) 0.8288(3)
C42_3 C 0.26930(17) 0.11188(15) 0.7927(3)
H18_3 H 0.2525 0.1107 0.7502
C43_3 C 0.30489(16) 0.39284(17) 0.5130(4)
H19_3 H 0.3028 0.3845 0.4587
C44_3 C 0.33127(19) 0.3863(2) 0.6453(4)
H20_3 H 0.3560 0.3918 0.6531
H21_3 H 0.3246 0.3672 0.6819
H22_3 H 0.3171 0.4070 0.6574
C45_3 C 0.3450(2) 0.3461(2) 0.5356(5)
H23_3 H 0.3394 0.3412 0.4785
H24_3 H 0.3390 0.3258 0.5692
H25_3 H 0.3701 0.3509 0.5407
O14_3 O 0.69989(10) 0.52351(10) 0.6373(2)
O16_3 O 0.58117(13) 0.43948(14) 0.5970(3)
O17_3 O 0.55977(11) 0.55036(13) 0.6792(3)
N5_3 N 0.57068(12) 0.49483(14) 0.6371(3)
C46_3 C 0.69492(14) 0.51450(14) 0.7101(3)
C47_3 C 0.65885(14) 0.50227(15) 0.7309(3)
C48_3 C 0.65282(15) 0.48740(16) 0.8077(3)
H26_3 H 0.6712 0.4861 0.8463
C49_3 C 0.61974(16) 0.47459(18) 0.8273(4)
H27_3 H 0.6155 0.4647 0.8795
C50_3 C 0.59304(16) 0.47634(18) 0.7701(4)
H28_3 H 0.5708 0.4668 0.7824
C51_3 C 0.59878(15) 0.49185(17) 0.6960(3)
C52_3 C 0.63185(14) 0.50475(16) 0.6756(3)
H29_3 H 0.6357 0.5152 0.6238
C53_3 C 0.56363(17) 0.4650(2) 0.5905(4)
C54_3 C 0.53437(15) 0.46797(17) 0.5317(4)
C55_3 C 0.51443(15) 0.49905(17) 0.5278(4)
C56_3 C 0.52178(14) 0.52784(17) 0.5784(4)
C57_3 C 0.55147(15) 0.52616(18) 0.6343(4)
C58_3 C 0.50174(16) 0.55756(18) 0.5739(4)
H30_3 H 0.5070 0.5769 0.6081
C59_3 C 0.52642(17) 0.44029(18) 0.4809(4)
H31_3 H 0.5401 0.4196 0.4830
Eu2_2 Eu 0.73582(2) 0.52773(2) 0.52516(2)
O19_3 O 0.76164(11) 0.57381(10) 0.5911(2)
O20_3 O 0.72029(12) 0.69172(11) 0.5649(3)
O21_3 O 0.83321(13) 0.70989(12) 0.4860(3)
O22_3 O 0.66514(15) 0.82369(14) 0.2935(3)
O23_3 O 0.77378(14) 0.82514(11) 0.1820(3)
O24_3 O 0.76221(10) 0.95240(10) 0.2375(2)
O25_3 O 0.74921(9) 0.97169(9) 0.1155(2)
O26_3 O 0.71231(12) 0.58062(11) 0.4677(2)
N6_3 N 0.77716(14) 0.70205(12) 0.5291(3)
N7_3 N 0.72101(16) 0.82723(13) 0.2445(3)
N8_3 N 0.67446(13) 0.62413(13) 0.4373(3)
C60_3 C 0.77075(17) 0.58622(15) 0.6577(4)
C61_3 C 0.78453(16) 0.62292(14) 0.6571(3)
C62_3 C 0.80632(16) 0.63542(15) 0.7206(3)
H32_3 H 0.8119 0.6207 0.7654
C63_3 C 0.81937(18) 0.66904(16) 0.7172(4)
H33_3 H 0.8349 0.6770 0.7584
C64_3 C 0.81007(17) 0.69103(16) 0.6548(4)
H34_3 H 0.8181 0.7145 0.6541
C65_3 C 0.78884(18) 0.67856(15) 0.5926(4)
C66_3 C 0.77708(15) 0.64444(14) 0.5933(3)
H35_3 H 0.7637 0.6359 0.5489
C67_3 C 0.74062(18) 0.70748(15) 0.5217(4)
C68_3 C 0.8026(2) 0.71678(16) 0.4784(4)
C69_3 C 0.78993(18) 0.74100(15) 0.4140(4)
C70_3 C 0.75354(18) 0.74931(14) 0.4112(4)
C71_3 C 0.72901(18) 0.73398(15) 0.4621(4)
C72_3 C 0.69446(18) 0.74296(15) 0.4580(4)
H36_3 H 0.6780 0.7317 0.4923
C73_3 C 0.68335(19) 0.76898(15) 0.4029(4)
H37_3 H 0.6595 0.7758 0.4020
C74_3 C 0.70645(17) 0.78440(15) 0.3508(4)
C75_3 C 0.74182(18) 0.77467(15) 0.3526(3)
C76_3 C 0.7665(2) 0.78915(15) 0.2979(4)
C77_3 C 0.8018(2) 0.77973(16) 0.3011(4)
H38_3 H 0.8180 0.7896 0.2638
C78_3 C 0.81309(19) 0.75535(16) 0.3603(4)
H39_3 H 0.8370 0.7489 0.3627
C79_3 C 0.7550(2) 0.81495(16) 0.2361(4)
C80_3 C 0.6944(2) 0.81307(17) 0.2950(4)
C81_3 C 0.71185(19) 0.85762(16) 0.1949(4)
C82_3 C 0.68610(19) 0.85620(18) 0.1376(4)
H40_3 H 0.6726 0.8356 0.1309
C83_3 C 0.67980(18) 0.88525(17) 0.0893(4)
H41_3 H 0.6616 0.8846 0.0500
C84_3 C 0.69960(16) 0.91492(15) 0.0977(3)
H42_3 H 0.6958 0.9342 0.0623
C85_3 C 0.72511(15) 0.91697(13) 0.1577(3)
C86_3 C 0.74687(14) 0.94813(13) 0.1712(3)
C87_3 C 0.73070(17) 0.88812(15) 0.2073(3)
H43_3 H 0.7475 0.8893 0.2498
C88_3 C 0.69511(16) 0.60716(17) 0.4870(4)
H44_3 H 0.6972 0.6155 0.5413
C89_3 C 0.66873(19) 0.6137(2) 0.3547(4)
H45_3 H 0.6440 0.6082 0.3469
H46_3 H 0.6754 0.6328 0.3181
H47_3 H 0.6829 0.5930 0.3426
C90_3 C 0.6550(2) 0.6539(2) 0.4644(5)
H48_3 H 0.6606 0.6588 0.5215
H49_3 H 0.6610 0.6742 0.4308
H50_3 H 0.6299 0.6491 0.4593
O27_3 O 0.26424(11) 0.53278(10) 0.4854(2)
O28_3 O 0.73576(11) 0.46722(10) 0.5146(2)
O29_3 O 0.32152(10) 0.48192(12) 0.5238(2)
O30_3 O 0.67848(10) 0.51808(12) 0.4762(2)
O31_2 O 0.79760(10) 0.51221(10) 0.5125(2)
O33_3 O 0.75079(9) 0.52831(9) 0.3845(2)
O35_3 O 0.24921(9) 0.47169(9) 0.6155(2)
Eu3_2 Eu 0.76418(2) 0.97227(2) 0.97484(2)
H32_4 H 0.1293 0.0619 0.0154
H33_4 H 0.0730 0.0849 0.0084
O18_3 O 0.17848(10) 0.01808(12) 0.9762(2)
O19_4 O 0.17619(10) 0.01164(11) 0.8411(2)
O21_4 O 0.04011(12) 0.08321(13) 0.7360(3)
N6_4 N 0.04795(12) 0.02716(14) 0.7791(3)
C60_4 C 0.16378(15) 0.02075(17) 0.9077(4)
C61_4 C 0.12708(14) 0.03453(16) 0.9071(3)
C62_4 C 0.11458(15) 0.05632(16) 0.9706(3)
C63_4 C 0.08096(16) 0.06937(18) 0.9672(4)
C64_4 C 0.05897(16) 0.06007(17) 0.9048(4)
H34_4 H 0.0355 0.0681 0.9041
C65_4 C 0.07144(15) 0.03884(18) 0.8426(4)
C66_4 C 0.10556(14) 0.02708(15) 0.8433(3)
H35_4 H 0.1141 0.0137 0.7989
C68_4 C 0.03322(16) 0.0526(2) 0.7284(4)
C69_4 C 0.00900(15) 0.03993(18) 0.6640(4)
C70_4 C 0.00069(14) 0.00354(18) 0.6612(4)
H39_4 H 0.0011 0.0870 0.6127
O10_4 O 0.57514(11) 0.47622(14) 0.0680(3)
O11_4 O 0.70240(10) 0.48779(10) 0.0125(2)
O12_4 O 0.72169(9) 0.50079(9) 0.1345(2)
N3_4 N 0.57723(13) 0.52899(16) 0.0055(3)
C34_4 C 0.56495(16) 0.4950(2) 0.0139(4)
C36_4 C 0.60762(16) 0.53815(19) 0.0551(4)
C37_4 C 0.60620(18) 0.56390(19) 0.1124(4)
H15_4 H 0.5856 0.5774 0.1191
C38_4 C 0.63525(17) 0.57020(18) 0.1607(4)
H16_4 H 0.6346 0.5884 0.2000
C39_4 C 0.66492(15) 0.55040(16) 0.1523(3)
H17_4 H 0.6842 0.5542 0.1877
C40_4 C 0.66697(13) 0.52489(15) 0.0923(3)
C41_4 C 0.69813(13) 0.50313(14) 0.0788(3)
C42_4 C 0.63812(15) 0.51930(17) 0.0427(3)
H18_4 H 0.6393 0.5025 0.0002
O15_3 O 0.23576(11) 0.96722(10) 0.0146(2)
C48_4 C 0.26260(16) 0.90282(15) 0.0577(3)
H26_4 H 0.2639 0.9212 0.0963
C49_4 C 0.27541(18) 0.86974(16) 0.0773(4)
H27_4 H 0.2853 0.8655 0.1295
C50_4 C 0.27366(18) 0.84304(16) 0.0201(4)
H28_4 H 0.2832 0.8208 0.0324
Eu6_3 Eu 0.72227(2) 0.48582(2) 0.27516(2)
Eu1_3 Eu 0.27773(2) 0.51418(2) 0.72484(2)
O1_4 O 0.27351(10) 0.55011(10) 0.6127(2)
O3_4 O 0.18948(14) 0.66883(13) 0.6530(3)
O4_4 O 0.30036(13) 0.69023(11) 0.5708(3)
O6_4 O 0.32381(10) 0.48836(11) 0.6589(2)
O7_4 O 0.44172(11) 0.52971(12) 0.6851(3)
O8_4 O 0.45989(12) 0.41679(13) 0.7640(3)
O9_4 O 0.57369(14) 0.58486(15) 0.9565(3)
O13_4 O 0.33062(11) 0.53769(12) 0.7823(2)
N1_4 N 0.24483(14) 0.67932(12) 0.6129(3)
N2_4 N 0.45205(12) 0.47284(14) 0.7209(3)
N4_4 N 0.37413(13) 0.57554(13) 0.8127(3)
C1_4 C 0.26450(14) 0.55508(14) 0.5399(3)
C2_4 C 0.25227(15) 0.59115(14) 0.5191(3)
C3_4 C 0.23740(16) 0.59718(15) 0.4423(3)
H1_4 H 0.2361 0.5788 0.4037
C4_4 C 0.22459(18) 0.63026(16) 0.4227(4)
H2_4 H 0.2147 0.6345 0.3705
C5_4 C 0.22634(18) 0.65696(16) 0.4799(4)
H3_4 H 0.2168 0.6792 0.4676
C6_4 C 0.24185(17) 0.65122(15) 0.5540(3)
C7_4 C 0.25475(16) 0.61815(14) 0.5744(3)
H4_4 H 0.2652 0.6143 0.6262
C8_4 C 0.2150(2) 0.68637(17) 0.6595(4)
C9_4 C 0.21797(17) 0.71563(15) 0.7183(4)
C10_4 C 0.24905(17) 0.73557(15) 0.7222(4)
C11_4 C 0.27784(17) 0.72822(14) 0.6716(4)
C12_4 C 0.27616(18) 0.69853(15) 0.6157(4)
C13_4 C 0.30756(18) 0.74826(16) 0.6761(4)
H5_4 H 0.3269 0.7430 0.6419
C14_4 C 0.19029(18) 0.72358(17) 0.7691(4)
H6_4 H 0.1696 0.7099 0.7670
C15_4 C 0.33622(15) 0.47925(17) 0.5923(4)
C16_4 C 0.37292(14) 0.46547(16) 0.5929(3)
C17_4 C 0.38542(15) 0.44368(16) 0.5294(3)
H7_4 H 0.3707 0.4381 0.4846
C18_4 C 0.41904(16) 0.43063(18) 0.5328(4)
H8_4 H 0.4270 0.4151 0.4916
C19_4 C 0.44103(16) 0.43993(17) 0.5952(4)
H9_4 H 0.4645 0.4319 0.5959
C20_4 C 0.42856(15) 0.46116(18) 0.6574(4)
C21_4 C 0.39444(14) 0.47292(15) 0.6567(3)
H10_4 H 0.3859 0.4863 0.7011
C22_4 C 0.45748(15) 0.50938(18) 0.7283(4)
C23_4 C 0.46678(16) 0.4474(2) 0.7716(4)
C24_4 C 0.49100(15) 0.46007(18) 0.8360(4)
C25_4 C 0.49931(14) 0.49646(18) 0.8388(4)
C26_4 C 0.48398(15) 0.52099(18) 0.7879(4)
C27_4 C 0.49296(15) 0.55554(18) 0.7920(4)
H11_4 H 0.4817 0.5720 0.7577
C28_4 C 0.51898(15) 0.56665(19) 0.8471(4)
H12_4 H 0.5258 0.5905 0.8480
C29_4 C 0.53440(15) 0.54355(17) 0.8992(4)
C30_4 C 0.52467(15) 0.50818(18) 0.8974(3)
C31_4 C 0.53915(15) 0.4835(2) 0.9521(4)
C32_4 C 0.52973(16) 0.4482(2) 0.9489(4)
H13_4 H 0.5396 0.4320 0.9862
C33_4 C 0.50535(16) 0.43691(19) 0.8897(4)
H14_4 H 0.4989 0.4130 0.8873
C35_4 C 0.56307(17) 0.5556(2) 0.9550(4)
C43_4 C 0.35716(17) 0.55489(16) 0.7630(4)
H19_4 H 0.3655 0.5528 0.7087
C44_4 C 0.3637(2) 0.58127(19) 0.8953(4)
H20_4 H 0.3582 0.6060 0.9031
H21_4 H 0.3828 0.5746 0.9319
H22_4 H 0.3430 0.5671 0.9074
C45_4 C 0.4039(2) 0.5950(2) 0.7856(5)
H23_4 H 0.4088 0.5894 0.7285
H24_4 H 0.4242 0.5890 0.8192
H25_4 H 0.3991 0.6201 0.7907
O14_4 O 0.22649(10) 0.94989(10) 0.8873(2)
O16_4 O 0.31052(14) 0.83117(13) 0.8470(3)
O17_4 O 0.19964(13) 0.80977(11) 0.9292(3)
N5_4 N 0.25517(14) 0.82068(12) 0.8871(3)
C46_4 C 0.23550(14) 0.94492(14) 0.9601(3)
C47_4 C 0.24773(15) 0.90885(14) 0.9809(3)
C51_4 C 0.25815(17) 0.84878(15) 0.9460(3)
C52_4 C 0.24525(16) 0.88185(14) 0.9256(3)
H29_4 H 0.2348 0.8857 0.8738
C53_4 C 0.2850(2) 0.81363(17) 0.8405(4)
C54_4 C 0.28203(17) 0.78437(15) 0.7817(4)
C55_4 C 0.25095(17) 0.76443(15) 0.7778(4)
C56_4 C 0.22216(17) 0.77178(14) 0.8284(4)
C57_4 C 0.22384(18) 0.80147(15) 0.8843(4)
C58_4 C 0.19244(18) 0.75174(16) 0.8239(4)
H30_4 H 0.1731 0.7570 0.8581
C59_4 C 0.30971(18) 0.77642(17) 0.7309(4)
H31_4 H 0.3304 0.7901 0.7330
O20_4 O 0.05828(11) 0.97029(12) 0.8149(3)
O26_4 O 0.16938(11) 0.96231(12) 0.7177(2)
N8_4 N 0.12587(13) 0.92446(13) 0.6873(3)
C67_4 C 0.04252(15) 0.99062(18) 0.7717(4)
C71_4 C 0.01602(15) 0.97901(18) 0.7121(4)
C72_4 C 0.00704(15) 0.94446(18) 0.7080(4)
H36_4 H 0.0183 0.9280 0.7423
C88_4 C 0.14284(17) 0.94511(16) 0.7370(4)
H44_4 H 0.1345 0.9472 0.7913
C89_4 C 0.1363(2) 0.91873(19) 0.6047(4)
H45_4 H 0.1418 0.8940 0.5969
H46_4 H 0.1172 0.9254 0.5681
H47_4 H 0.1570 0.9329 0.5926
C90_4 C 0.0961(2) 0.9050(2) 0.7144(5)
H48_4 H 0.0912 0.9106 0.7715
H49_4 H 0.0758 0.9110 0.6808
H50_4 H 0.1009 0.8799 0.7093
O27_4 O 0.21722(10) 0.51424(11) 0.7354(2)
O29_4 O 0.26808(12) 0.57152(10) 0.7738(2)
O32_3 O 0.26221(10) 0.45240(10) 0.7375(2)
O35_4 O 0.27831(9) 0.49921(9) 0.8655(2)
O23_4 O 0.92486(11) 0.02378(14) 0.4320(3)
C76_4 C 0.96085(15) 0.0165(2) 0.5479(4)
C77_4 C 0.97027(16) 0.0518(2) 0.5511(4)
H38_4 H 0.9604 0.0680 0.5138
C78_4 C 0.99465(16) 0.06309(19) 0.6103(4)
C79_4 C 0.93505(16) 0.0050(2) 0.4861(4)
O22_4 O 0.92631(14) 0.91514(15) 0.5435(3)
N7_4 N 0.92277(13) 0.97101(16) 0.4945(3)
C73_4 C 0.98102(15) 0.93335(19) 0.6529(4)
H37_4 H 0.9742 0.9095 0.6520
C74_4 C 0.96560(15) 0.95645(17) 0.6008(4)
C75_4 C 0.97533(15) 0.99182(18) 0.6026(3)
C80_4 C 0.93693(17) 0.9444(2) 0.5450(4)
C81_4 C 0.89238(16) 0.96185(19) 0.4449(4)
C82_4 C 0.89380(18) 0.93610(19) 0.3876(4)
H40_4 H 0.9144 0.9226 0.3809
C83_4 C 0.86475(17) 0.92980(18) 0.3393(4)
H41_4 H 0.8654 0.9116 0.3000
C84_4 C 0.83508(15) 0.94960(16) 0.3477(3)
H42_4 H 0.8158 0.9458 0.3123
C85_4 C 0.83303(13) 0.97511(15) 0.4077(3)
C86_4 C 0.80187(13) 0.99687(14) 0.4212(3)
C87_4 C 0.86188(15) 0.98070(17) 0.4573(3)
H43_4 H 0.8607 0.9975 0.4998
O8_5 O 0.33321(13) 0.70989(12) 0.0140(3)
O9_5 O 0.16514(15) 0.82369(14) 0.2065(3)
O10_5 O 0.27378(14) 0.82514(11) 0.3180(3)
O11_5 O 0.26221(10) 0.95240(10) 0.2625(2)
O13_5 O 0.21231(12) 0.58062(11) 0.0323(2)
N3_5 N 0.22101(16) 0.82723(13) 0.2555(3)
N4_5 N 0.17446(13) 0.62413(13) 0.0627(3)
C14_5 C 0.02642(17) 0.44029(18) 0.0191(4)
H6_5 H 0.0401 0.4196 0.0170
C23_5 C 0.3026(2) 0.71678(16) 0.0216(4)
C24_5 C 0.28993(18) 0.74100(15) 0.0860(4)
C25_5 C 0.25354(18) 0.74931(14) 0.0888(4)
C26_5 C 0.22901(18) 0.73398(15) 0.0379(4)
C27_5 C 0.19446(18) 0.74296(15) 0.0420(4)
H11_5 H 0.1780 0.7317 0.0077
C28_5 C 0.18335(19) 0.76898(15) 0.0971(4)
H12_5 H 0.1595 0.7758 0.0980
C29_5 C 0.20645(17) 0.78440(15) 0.1492(4)
C30_5 C 0.24182(18) 0.77467(15) 0.1474(3)
C31_5 C 0.2665(2) 0.78915(15) 0.2021(4)
C32_5 C 0.3018(2) 0.77973(16) 0.1989(4)
H13_5 H 0.3180 0.7896 0.2362
C33_5 C 0.31309(19) 0.75535(16) 0.1397(4)
H14_5 H 0.3370 0.7489 0.1373
C34_5 C 0.2550(2) 0.81495(16) 0.2639(4)
C35_5 C 0.1944(2) 0.81307(17) 0.2050(4)
C36_5 C 0.21185(19) 0.85762(16) 0.3051(4)
C37_5 C 0.18610(19) 0.85620(18) 0.3624(4)
H15_5 H 0.1726 0.8356 0.3691
C38_5 C 0.17980(18) 0.88525(17) 0.4107(4)
H16_5 H 0.1616 0.8846 0.4500
C39_5 C 0.19960(16) 0.91492(15) 0.4023(3)
H17_5 H 0.1958 0.9342 0.4377
C40_5 C 0.22511(15) 0.91697(13) 0.3423(3)
C41_5 C 0.24687(14) 0.94813(13) 0.3288(3)
C42_5 C 0.23070(17) 0.88812(15) 0.2927(3)
H18_5 H 0.2475 0.8893 0.2502
C43_5 C 0.19511(16) 0.60716(17) 0.0130(4)
C44_5 C 0.16873(19) 0.6137(2) 0.1453(4)
H20_5 H 0.1440 0.6082 0.1531
H21_5 H 0.1754 0.6328 0.1819
H22_5 H 0.1829 0.5930 0.1574
C45_5 C 0.1550(2) 0.6539(2) 0.0356(5)
H24_5 H 0.1610 0.6742 0.0692
H25_5 H 0.1299 0.6491 0.0407
O29_5 O 0.17848(10) 0.51808(12) 0.0238(2)
O1_5 O 0.19989(10) 0.52351(10) 0.8627(2)
O3_5 O 0.08117(13) 0.43948(14) 0.9030(3)
O4_5 O 0.05977(11) 0.55036(13) 0.8208(3)
O6_5 O 0.26164(11) 0.57381(10) 0.9089(2)
O7_5 O 0.22029(12) 0.69172(11) 0.9351(3)
N1_5 N 0.07068(12) 0.49483(14) 0.8629(3)
N2_5 N 0.27716(14) 0.70205(12) 0.9709(3)
C1_5 C 0.19492(14) 0.51450(14) 0.7899(3)
C2_5 C 0.15885(14) 0.50227(15) 0.7691(3)
C3_5 C 0.15282(15) 0.48740(16) 0.6923(3)
H1_5 H 0.1712 0.4861 0.6537
C4_5 C 0.11974(16) 0.47459(18) 0.6727(4)
H2_5 H 0.1155 0.4647 0.6205
C5_5 C 0.09304(16) 0.47634(18) 0.7299(4)
H3_5 H 0.0708 0.4668 0.7176
C6_5 C 0.09878(15) 0.49185(17) 0.8040(3)
C7_5 C 0.13185(14) 0.50475(16) 0.8244(3)
H4_5 H 0.1357 0.5152 0.8762
C8_5 C 0.06363(17) 0.4650(2) 0.9095(4)
C9_5 C 0.03437(15) 0.46797(17) 0.9683(4)
C10_5 C 0.01443(15) 0.49905(17) 0.9722(4)
C11_5 C 0.02178(14) 0.52784(17) 0.9216(4)
C12_5 C 0.05147(15) 0.52616(18) 0.8657(4)
C13_5 C 0.00174(16) 0.55756(18) 0.9261(4)
H5_5 H 0.0070 0.5769 0.8919
C15_5 C 0.27075(17) 0.58622(15) 0.8423(4)
C16_5 C 0.28453(16) 0.62292(14) 0.8429(3)
C17_5 C 0.30632(16) 0.63542(15) 0.7794(3)
H7_5 H 0.3119 0.6207 0.7346
C18_5 C 0.31937(18) 0.66904(16) 0.7828(4)
H8_5 H 0.3349 0.6770 0.7416
C19_5 C 0.31007(17) 0.69103(16) 0.8452(4)
H9_5 H 0.3181 0.7145 0.8459
C20_5 C 0.28884(18) 0.67856(15) 0.9074(4)
C21_5 C 0.27708(15) 0.64444(14) 0.9067(3)
H10_5 H 0.2637 0.6359 0.9511
C22_5 C 0.24062(18) 0.70748(15) 0.9783(4)
H19_5 H 0.1972 0.6155 0.9587
H23_5 H 0.1606 0.6588 0.9785
O27_5 O 0.23576(11) 0.46722(10) 0.9854(2)
O32_4 O 0.29760(10) 0.51221(10) 0.9875(2)
O14_5 O 0.80011(10) 0.47649(10) 0.1373(2)
O15_4 O 0.78278(10) 0.48576(11) 0.2646(2)
O16_5 O 0.91883(13) 0.56052(14) 0.0970(3)
O17_5 O 0.94023(11) 0.44964(13) 0.1792(3)
N5_5 N 0.92932(12) 0.50517(14) 0.1371(3)
C46_5 C 0.80508(14) 0.48550(14) 0.2101(3)
C47_5 C 0.84115(14) 0.49773(15) 0.2309(3)
C48_5 C 0.84718(15) 0.51260(16) 0.3077(3)
H26_5 H 0.8288 0.5139 0.3463
C49_5 C 0.88026(16) 0.52541(18) 0.3273(4)
H27_5 H 0.8845 0.5353 0.3795
C50_5 C 0.90696(16) 0.52366(18) 0.2701(4)
H28_5 H 0.9292 0.5332 0.2824
C51_5 C 0.90122(15) 0.50815(17) 0.1960(3)
C52_5 C 0.86815(14) 0.49525(16) 0.1756(3)
H29_5 H 0.8643 0.4848 0.1238
C53_5 C 0.93637(17) 0.5350(2) 0.0905(4)
C54_5 C 0.96563(15) 0.53203(17) 0.0317(4)
C55_5 C 0.98557(15) 0.50095(17) 0.0278(4)
C56_5 C 0.97822(14) 0.47216(17) 0.0784(4)
C57_5 C 0.94853(15) 0.47384(18) 0.1343(4)
C58_5 C 0.99826(16) 0.44244(18) 0.0739(4)
H30_5 H 0.9930 0.4231 0.1081
O18_4 O 0.73192(12) 0.42848(10) 0.2262(2)
O19_5 O 0.73836(11) 0.42619(10) 0.0911(2)
O20_5 O 0.77971(12) 0.30828(11) 0.0649(3)
N6_5 N 0.72284(14) 0.29795(12) 0.0291(3)
C60_5 C 0.72925(17) 0.41378(15) 0.1577(4)
C61_5 C 0.71547(16) 0.37708(14) 0.1571(3)
C62_5 C 0.69368(16) 0.36458(15) 0.2206(3)
H32_5 H 0.6881 0.3793 0.2654
C63_5 C 0.68063(18) 0.33096(16) 0.2172(4)
H33_5 H 0.6651 0.3230 0.2584
C64_5 C 0.68993(17) 0.30897(16) 0.1548(4)
H34_5 H 0.6819 0.2855 0.1541
C65_5 C 0.71116(18) 0.32144(15) 0.0926(4)
C66_5 C 0.72292(15) 0.35556(14) 0.0933(3)
H35_5 H 0.7363 0.3641 0.0489
C67_5 C 0.75938(18) 0.29252(15) 0.0217(4)
H44_5 H 0.8028 0.3845 0.0413
H48_5 H 0.8394 0.3412 0.0215
C59_5 C 0.97358(17) 0.55971(18) 0.9809(4)
H31_5 H 0.9599 0.5804 0.9830
O21_5 O 0.66679(13) 0.29011(12) 0.9860(3)
O22_5 O 0.83486(15) 0.17631(14) 0.7935(3)
O23_5 O 0.72622(14) 0.17486(11) 0.6820(3)
O26_5 O 0.78769(12) 0.41938(11) 0.9677(2)
N7_5 N 0.77899(16) 0.17277(13) 0.7445(3)
N8_5 N 0.82554(13) 0.37587(13) 0.9373(3)
C68_5 C 0.6974(2) 0.28322(16) 0.9784(4)
C69_5 C 0.71007(18) 0.25900(15) 0.9140(4)
C70_5 C 0.74646(18) 0.25069(14) 0.9112(4)
C71_5 C 0.77099(18) 0.26602(15) 0.9621(4)
C72_5 C 0.80554(18) 0.25704(15) 0.9580(4)
H36_5 H 0.8220 0.2683 0.9923
C73_5 C 0.81665(19) 0.23102(15) 0.9029(4)
H37_5 H 0.8405 0.2242 0.9020
C74_5 C 0.79355(17) 0.21560(15) 0.8508(4)
C75_5 C 0.75818(18) 0.22533(15) 0.8526(3)
C76_5 C 0.7335(2) 0.21085(15) 0.7979(4)
C77_5 C 0.6982(2) 0.22027(16) 0.8011(4)
H38_5 H 0.6820 0.2104 0.7638
C78_5 C 0.68691(19) 0.24465(16) 0.8603(4)
H39_5 H 0.6630 0.2511 0.8627
C79_5 C 0.7450(2) 0.18505(16) 0.7361(4)
C80_5 C 0.8056(2) 0.18693(17) 0.7950(4)
C81_5 C 0.78815(19) 0.14238(16) 0.6949(4)
C82_5 C 0.81390(19) 0.14380(18) 0.6376(4)
H40_5 H 0.8274 0.1644 0.6309
C83_5 C 0.82020(18) 0.11475(17) 0.5893(4)
H41_5 H 0.8384 0.1154 0.5500
C84_5 C 0.80040(16) 0.08508(15) 0.5977(3)
H42_5 H 0.8042 0.0658 0.5623
C85_5 C 0.77489(15) 0.08303(13) 0.6577(3)
C86_5 C 0.75313(14) 0.05187(13) 0.6712(3)
C87_5 C 0.76930(17) 0.11188(15) 0.7073(3)
H43_5 H 0.7525 0.1107 0.7498
C88_5 C 0.80489(16) 0.39284(17) 0.9870(4)
C89_5 C 0.83127(19) 0.3863(2) 0.8547(4)
H45_5 H 0.8560 0.3918 0.8469
H46_5 H 0.8246 0.3672 0.8181
H47_5 H 0.8171 0.4070 0.8426
C90_5 C 0.8450(2) 0.3461(2) 0.9644(5)
H49_5 H 0.8390 0.3258 0.9308
H50_5 H 0.8701 0.3509 0.9593
O1_6 O 0.22649(10) 0.44989(10) 0.1127(2)
O3_6 O 0.31052(14) 0.33117(13) 0.1530(3)
O4_6 O 0.19964(13) 0.30977(11) 0.0708(3)
O6_6 O 0.17619(10) 0.51164(11) 0.1589(2)
O7_6 O 0.05828(11) 0.47029(12) 0.1851(3)
O8_6 O 0.04011(12) 0.58321(13) 0.2640(3)
O13_6 O 0.16938(11) 0.46231(12) 0.2823(2)
N1_6 N 0.25517(14) 0.32068(12) 0.1129(3)
N2_6 N 0.04795(12) 0.52716(14) 0.2209(3)
N4_6 N 0.12587(13) 0.42446(13) 0.3127(3)
C1_6 C 0.23550(14) 0.44492(14) 0.0399(3)
C2_6 C 0.24773(15) 0.40885(14) 0.0191(3)
C6_6 C 0.25815(17) 0.34878(15) 0.0540(3)
C7_6 C 0.24525(16) 0.38185(14) 0.0744(3)
H4_6 H 0.2348 0.3857 0.1262
C8_6 C 0.2850(2) 0.31363(17) 0.1595(4)
C9_6 C 0.28203(17) 0.28437(15) 0.2183(4)
C10_6 C 0.25095(17) 0.26443(15) 0.2222(4)
C11_6 C 0.22216(17) 0.27178(14) 0.1716(4)
C12_6 C 0.22384(18) 0.30147(15) 0.1157(4)
C13_6 C 0.19244(18) 0.25174(16) 0.1761(4)
H5_6 H 0.1731 0.2570 0.1419
C14_6 C 0.30971(18) 0.27642(17) 0.2691(4)
H6_6 H 0.3304 0.2901 0.2670
C15_6 C 0.16378(15) 0.52075(17) 0.0923(4)
C16_6 C 0.12708(14) 0.53453(16) 0.0929(3)
C17_6 C 0.11458(15) 0.55632(16) 0.0294(3)
C18_6 C 0.08096(16) 0.56937(18) 0.0328(4)
C19_6 C 0.05897(16) 0.56007(17) 0.0952(4)
H9_6 H 0.0355 0.5681 0.0959
C20_6 C 0.07144(15) 0.53884(18) 0.1574(4)
C21_6 C 0.10556(14) 0.52708(15) 0.1567(3)
H10_6 H 0.1141 0.5137 0.2011
C22_6 C 0.04252(15) 0.49062(18) 0.2283(4)
C23_6 C 0.03322(16) 0.5526(2) 0.2716(4)
C24_6 C 0.00900(15) 0.53993(18) 0.3360(4)
C25_6 C 0.00069(14) 0.50354(18) 0.3388(4)
C26_6 C 0.01602(15) 0.47901(18) 0.2879(4)
C27_6 C 0.00704(15) 0.44446(18) 0.2920(4)
H11_6 H 0.0183 0.4280 0.2577
H14_6 H 0.0011 0.5870 0.3873
C43_6 C 0.14284(17) 0.44511(16) 0.2630(4)
H19_6 H 0.1345 0.4472 0.2087
C44_6 C 0.1363(2) 0.41873(19) 0.3953(4)
H20_6 H 0.1418 0.3940 0.4031
H21_6 H 0.1172 0.4254 0.4319
H22_6 H 0.1570 0.4329 0.4074
C45_6 C 0.0961(2) 0.4050(2) 0.2856(5)
H23_6 H 0.0912 0.4106 0.2285
H24_6 H 0.0758 0.4110 0.3192
H25_6 H 0.1009 0.3799 0.2907
O14_6 O 0.27351(10) 0.05011(10) 0.3873(2)
O16_6 O 0.18948(14) 0.16883(13) 0.3470(3)
O17_6 O 0.30036(13) 0.19023(11) 0.4292(3)
N5_6 N 0.24483(14) 0.17932(12) 0.3871(3)
C46_6 C 0.26450(14) 0.05508(14) 0.4601(3)
C47_6 C 0.25227(15) 0.09115(14) 0.4809(3)
C48_6 C 0.23740(16) 0.09718(15) 0.5577(3)
H26_6 H 0.2361 0.0788 0.5963
C49_6 C 0.22459(18) 0.13026(16) 0.5773(4)
H27_6 H 0.2147 0.1345 0.6295
C50_6 C 0.22634(18) 0.15696(16) 0.5201(4)
H28_6 H 0.2168 0.1792 0.5324
C51_6 C 0.24185(17) 0.15122(15) 0.4460(3)
C52_6 C 0.25475(16) 0.11815(14) 0.4256(3)
H29_6 H 0.2652 0.1143 0.3738
C53_6 C 0.2150(2) 0.18637(17) 0.3405(4)
C54_6 C 0.21797(17) 0.21563(15) 0.2817(4)
C55_6 C 0.24905(17) 0.23557(15) 0.2778(4)
C56_6 C 0.27784(17) 0.22822(14) 0.3284(4)
C57_6 C 0.27616(18) 0.19853(15) 0.3843(4)
C58_6 C 0.30756(18) 0.24826(16) 0.3239(4)
H30_6 H 0.3269 0.2430 0.3581
C59_6 C 0.19029(18) 0.22358(17) 0.2309(4)
H31_6 H 0.1696 0.2099 0.2330
O20_6 O 0.44172(11) 0.02971(12) 0.3149(3)
O22_6 O 0.57369(14) 0.08486(15) 0.0435(3)
O26_6 O 0.33062(11) 0.03769(12) 0.2177(2)
N8_6 N 0.37413(13) 0.07554(13) 0.1873(3)
C67_6 C 0.45748(15) 0.00938(18) 0.2717(4)
C71_6 C 0.48398(15) 0.02099(18) 0.2121(4)
C72_6 C 0.49296(15) 0.05554(18) 0.2080(4)
H36_6 H 0.4817 0.0720 0.2423
C73_6 C 0.51898(15) 0.06665(19) 0.1529(4)
H37_6 H 0.5258 0.0905 0.1520
C74_6 C 0.53440(15) 0.04355(17) 0.1008(4)
C75_6 C 0.52467(15) 0.00818(18) 0.1026(3)
C80_6 C 0.56307(17) 0.0556(2) 0.0450(4)
C88_6 C 0.35716(17) 0.05489(16) 0.2370(4)
H44_6 H 0.3655 0.0528 0.2913
C89_6 C 0.3637(2) 0.08127(19) 0.1047(4)
H45_6 H 0.3582 0.1060 0.0969
H46_6 H 0.3828 0.0746 0.0681
H47_6 H 0.3430 0.0671 0.0926
C90_6 C 0.4039(2) 0.0950(2) 0.2144(5)
H48_6 H 0.4088 0.0894 0.2715
H49_6 H 0.4242 0.0890 0.1808
H50_6 H 0.3991 0.1201 0.2093
O28_4 O 0.21722(10) 0.01424(11) 0.2646(2)
O30_4 O 0.26808(12) 0.07152(10) 0.2262(2)
C3_6 C 0.26260(16) 0.40282(15) 0.9423(3)
H1_6 H 0.2639 0.4212 0.9037
C4_6 C 0.27541(18) 0.36974(16) 0.9227(4)
H2_6 H 0.2853 0.3655 0.8705
C5_6 C 0.27366(18) 0.34304(16) 0.9799(4)
H3_6 H 0.2832 0.3208 0.9676
H7_6 H 0.1293 0.5619 0.9846
H8_6 H 0.0730 0.5849 0.9916
N7_6 N 0.57723(13) 0.02899(16) 0.9945(3)
C81_6 C 0.60762(16) 0.03815(19) 0.9449(4)
C82_6 C 0.60620(18) 0.06390(19) 0.8876(4)
H40_6 H 0.5856 0.0774 0.8809
C83_6 C 0.63525(17) 0.07020(18) 0.8393(4)
H41_6 H 0.6346 0.0884 0.8000
C84_6 C 0.66492(15) 0.05040(16) 0.8477(3)
H42_6 H 0.6842 0.0542 0.8123
C85_6 C 0.66697(13) 0.02489(15) 0.9077(3)
C86_6 C 0.69813(13) 0.00313(14) 0.9212(3)
C87_6 C 0.63812(15) 0.01930(17) 0.9573(3)
H43_6 H 0.6393 0.0025 0.9998
O19_6 O 0.32381(10) 0.98836(11) 0.3411(2)
O21_6 O 0.45989(12) 0.91679(13) 0.2360(3)
N6_6 N 0.45205(12) 0.97284(14) 0.2791(3)
C60_6 C 0.33622(15) 0.97925(17) 0.4077(4)
C61_6 C 0.37292(14) 0.96547(16) 0.4071(3)
C62_6 C 0.38542(15) 0.94368(16) 0.4706(3)
H32_6 H 0.3707 0.9381 0.5154
C63_6 C 0.41904(16) 0.93063(18) 0.4672(4)
H33_6 H 0.4270 0.9151 0.5084
C64_6 C 0.44103(16) 0.93993(17) 0.4048(4)
H34_6 H 0.4645 0.9319 0.4041
C65_6 C 0.42856(15) 0.96116(18) 0.3426(4)
C66_6 C 0.39444(14) 0.97292(15) 0.3433(3)
H35_6 H 0.3859 0.9863 0.2989
C68_6 C 0.46678(16) 0.9474(2) 0.2284(4)
C69_6 C 0.49100(15) 0.96007(18) 0.1640(4)
C70_6 C 0.49931(14) 0.99646(18) 0.1612(4)
C76_6 C 0.53915(15) 0.9835(2) 0.0479(4)
C77_6 C 0.52973(16) 0.9482(2) 0.0511(4)
H38_6 H 0.5396 0.9320 0.0138
C78_6 C 0.50535(16) 0.93691(19) 0.1103(4)
H39_6 H 0.4989 0.9130 0.1127
O23_6 O 0.57514(11) 0.97622(14) 0.9320(3)
O24_4 O 0.70240(10) 0.98779(10) 0.9875(2)
C79_6 C 0.56495(16) 0.9950(2) 0.9861(4)
O9_6 O 0.92631(14) 0.41514(15) 0.4565(3)
O10_6 O 0.92486(11) 0.52378(14) 0.5680(3)
N3_6 N 0.92277(13) 0.47101(16) 0.5055(3)
C28_6 C 0.98102(15) 0.43335(19) 0.3471(4)
H12_6 H 0.9742 0.4095 0.3480
C29_6 C 0.96560(15) 0.45645(17) 0.3992(4)
C30_6 C 0.97533(15) 0.49182(18) 0.3974(3)
C31_6 C 0.96085(15) 0.5165(2) 0.4521(4)
C32_6 C 0.97027(16) 0.5518(2) 0.4489(4)
H13_6 H 0.9604 0.5680 0.4862
C33_6 C 0.99465(16) 0.56309(19) 0.3897(4)
C34_6 C 0.93505(16) 0.5050(2) 0.5139(4)
C35_6 C 0.93693(17) 0.4444(2) 0.4550(4)
C36_6 C 0.89238(16) 0.46185(19) 0.5551(4)
C37_6 C 0.89380(18) 0.43610(19) 0.6124(4)
H15_6 H 0.9144 0.4226 0.6191
C38_6 C 0.86475(17) 0.42980(18) 0.6607(4)
H16_6 H 0.8654 0.4116 0.7000
C39_6 C 0.83508(15) 0.44960(16) 0.6523(3)
H17_6 H 0.8158 0.4458 0.6877
C40_6 C 0.83303(13) 0.47511(15) 0.5923(3)
C41_6 C 0.80187(13) 0.49687(14) 0.5788(3)
C42_6 C 0.86188(15) 0.48070(17) 0.5427(3)
H18_6 H 0.8607 0.4975 0.5002
O14_7 O 0.19989(10) 0.02351(10) 0.1373(2)
O17_7 O 0.05977(11) 0.05036(13) 0.1792(3)
C46_7 C 0.19492(14) 0.01450(14) 0.2101(3)
C47_7 C 0.15885(14) 0.00227(15) 0.2309(3)
C52_7 C 0.13185(14) 0.00475(16) 0.1756(3)
H29_7 H 0.1357 0.0152 0.1238
C56_7 C 0.02178(14) 0.02784(17) 0.0784(4)
C57_7 C 0.05147(15) 0.02616(18) 0.1343(4)
C58_7 C 0.00174(16) 0.05756(18) 0.0739(4)
H30_7 H 0.0070 0.0769 0.1081
O19_7 O 0.26164(11) 0.07381(10) 0.0911(2)
O20_7 O 0.22029(12) 0.19172(11) 0.0649(3)
N6_7 N 0.27716(14) 0.20205(12) 0.0291(3)
C60_7 C 0.27075(17) 0.08622(15) 0.1577(4)
C61_7 C 0.28453(16) 0.12292(14) 0.1571(3)
C62_7 C 0.30632(16) 0.13542(15) 0.2206(3)
H32_7 H 0.3119 0.1207 0.2654
C63_7 C 0.31937(18) 0.16904(16) 0.2172(4)
H33_7 H 0.3349 0.1770 0.2584
C64_7 C 0.31007(17) 0.19103(16) 0.1548(4)
H34_7 H 0.3181 0.2145 0.1541
C65_7 C 0.28884(18) 0.17856(15) 0.0926(4)
C66_7 C 0.27708(15) 0.14444(14) 0.0933(3)
H35_7 H 0.2637 0.1359 0.0489
C67_7 C 0.24062(18) 0.20748(15) 0.0217(4)
H44_7 H 0.1972 0.1155 0.0413
H48_7 H 0.1606 0.1588 0.0215
O21_7 O 0.33321(13) 0.20989(12) 0.9860(3)
O22_7 O 0.16514(15) 0.32369(14) 0.7935(3)
O23_7 O 0.27378(14) 0.32514(11) 0.6820(3)
O26_7 O 0.21231(12) 0.08062(11) 0.9677(2)
N7_7 N 0.22101(16) 0.32723(13) 0.7445(3)
N8_7 N 0.17446(13) 0.12413(13) 0.9373(3)
C68_7 C 0.3026(2) 0.21678(16) 0.9784(4)
C69_7 C 0.28993(18) 0.24100(15) 0.9140(4)
C70_7 C 0.25354(18) 0.24931(14) 0.9112(4)
C71_7 C 0.22901(18) 0.23398(15) 0.9621(4)
C72_7 C 0.19446(18) 0.24296(15) 0.9580(4)
H36_7 H 0.1780 0.2317 0.9923
C73_7 C 0.18335(19) 0.26898(15) 0.9029(4)
H37_7 H 0.1595 0.2758 0.9020
C74_7 C 0.20645(17) 0.28440(15) 0.8508(4)
C75_7 C 0.24182(18) 0.27467(15) 0.8526(3)
C76_7 C 0.2665(2) 0.28915(15) 0.7979(4)
C77_7 C 0.3018(2) 0.27973(16) 0.8011(4)
H38_7 H 0.3180 0.2896 0.7638
C78_7 C 0.31309(19) 0.25535(16) 0.8603(4)
H39_7 H 0.3370 0.2489 0.8627
C79_7 C 0.2550(2) 0.31495(16) 0.7361(4)
C80_7 C 0.1944(2) 0.31307(17) 0.7950(4)
C81_7 C 0.21185(19) 0.35762(16) 0.6949(4)
C82_7 C 0.18610(19) 0.35620(18) 0.6376(4)
H40_7 H 0.1726 0.3356 0.6309
C83_7 C 0.17980(18) 0.38525(17) 0.5893(4)
H41_7 H 0.1616 0.3846 0.5500
C84_7 C 0.19960(16) 0.41492(15) 0.5977(3)
H42_7 H 0.1958 0.4342 0.5623
C85_7 C 0.22511(15) 0.41697(13) 0.6577(3)
C86_7 C 0.24687(14) 0.44813(13) 0.6712(3)
C87_7 C 0.23070(17) 0.38812(15) 0.7073(3)
H43_7 H 0.2475 0.3893 0.7498
C88_7 C 0.19511(16) 0.10716(17) 0.9870(4)
C89_7 C 0.16873(19) 0.1137(2) 0.8547(4)
H45_7 H 0.1440 0.1082 0.8469
H46_7 H 0.1754 0.1328 0.8181
H47_7 H 0.1829 0.0930 0.8426
C90_7 C 0.1550(2) 0.1539(2) 0.9644(5)
H49_7 H 0.1610 0.1742 0.9308
H50_7 H 0.1299 0.1491 0.9593
O16_7 O 0.08117(13) 0.93948(14) 0.0970(3)
N5_7 N 0.07068(12) 0.99483(14) 0.1371(3)
C48_7 C 0.15282(15) 0.98740(16) 0.3077(3)
H26_7 H 0.1712 0.9861 0.3463
C49_7 C 0.11974(16) 0.97459(18) 0.3273(4)
H27_7 H 0.1155 0.9647 0.3795
C50_7 C 0.09304(16) 0.97634(18) 0.2701(4)
H28_7 H 0.0708 0.9668 0.2824
C51_7 C 0.09878(15) 0.99185(17) 0.1960(3)
C53_7 C 0.06363(17) 0.9650(2) 0.0905(4)
C54_7 C 0.03437(15) 0.96797(17) 0.0317(4)
C55_7 C 0.01443(15) 0.99905(17) 0.0278(4)
O3_7 O 0.91883(13) 0.06052(14) 0.9030(3)
N1_7 N 0.92932(12) 0.00517(14) 0.8629(3)
C3_7 C 0.84718(15) 0.01260(16) 0.6923(3)
H1_7 H 0.8288 0.0139 0.6537
C4_7 C 0.88026(16) 0.02541(18) 0.6727(4)
H2_7 H 0.8845 0.0353 0.6205
C5_7 C 0.90696(16) 0.02366(18) 0.7299(4)
H3_7 H 0.9292 0.0332 0.7176
C6_7 C 0.90122(15) 0.00815(17) 0.8040(3)
C8_7 C 0.93637(17) 0.0350(2) 0.9095(4)
C9_7 C 0.96563(15) 0.03203(17) 0.9683(4)
C10_7 C 0.98557(15) 0.00095(17) 0.9722(4)
O27_6 O 0.76424(11) 0.03278(10) 0.9854(2)
O8_7 O 0.66679(13) 0.79011(12) 0.0140(3)
O9_7 O 0.83486(15) 0.67631(14) 0.2065(3)
O10_7 O 0.72622(14) 0.67486(11) 0.3180(3)
O11_6 O 0.73779(10) 0.54760(10) 0.2625(2)
O13_7 O 0.78769(12) 0.91938(11) 0.0323(2)
N3_7 N 0.77899(16) 0.67277(13) 0.2555(3)
N4_7 N 0.82554(13) 0.87587(13) 0.0627(3)
C23_7 C 0.6974(2) 0.78322(16) 0.0216(4)
C24_7 C 0.71007(18) 0.75900(15) 0.0860(4)
C25_7 C 0.74646(18) 0.75069(14) 0.0888(4)
C26_7 C 0.77099(18) 0.76602(15) 0.0379(4)
C27_7 C 0.80554(18) 0.75704(15) 0.0420(4)
H11_7 H 0.8220 0.7683 0.0077
C28_7 C 0.81665(19) 0.73102(15) 0.0971(4)
H12_7 H 0.8405 0.7242 0.0980
C29_7 C 0.79355(17) 0.71560(15) 0.1492(4)
C30_7 C 0.75818(18) 0.72533(15) 0.1474(3)
C31_7 C 0.7335(2) 0.71085(15) 0.2021(4)
C32_7 C 0.6982(2) 0.72027(16) 0.1989(4)
H13_7 H 0.6820 0.7104 0.2362
C33_7 C 0.68691(19) 0.74465(16) 0.1397(4)
H14_7 H 0.6630 0.7511 0.1373
C34_7 C 0.7450(2) 0.68505(16) 0.2639(4)
C35_7 C 0.8056(2) 0.68693(17) 0.2050(4)
C36_7 C 0.78815(19) 0.64238(16) 0.3051(4)
C37_7 C 0.81390(19) 0.64380(18) 0.3624(4)
H15_7 H 0.8274 0.6644 0.3691
C38_7 C 0.82020(18) 0.61475(17) 0.4107(4)
H16_7 H 0.8384 0.6154 0.4500
C39_7 C 0.80040(16) 0.58508(15) 0.4023(3)
H17_7 H 0.8042 0.5658 0.4377
C40_7 C 0.77489(15) 0.58303(13) 0.3423(3)
C41_7 C 0.75313(14) 0.55187(13) 0.3288(3)
C42_7 C 0.76930(17) 0.61188(15) 0.2927(3)
H18_7 H 0.7525 0.6107 0.2502
C43_7 C 0.80489(16) 0.89284(17) 0.0130(4)
C44_7 C 0.83127(19) 0.8863(2) 0.1453(4)
H20_7 H 0.8560 0.8918 0.1531
H21_7 H 0.8246 0.8672 0.1819
H22_7 H 0.8171 0.9070 0.1574
C45_7 C 0.8450(2) 0.8461(2) 0.0356(5)
H24_7 H 0.8390 0.8258 0.0692
H25_7 H 0.8701 0.8509 0.0407
O29_6 O 0.82152(10) 0.98192(12) 0.0238(2)
O1_7 O 0.80011(10) 0.97649(10) 0.8627(2)
O4_7 O 0.94023(11) 0.94964(13) 0.8208(3)
O6_7 O 0.73836(11) 0.92619(10) 0.9089(2)
O7_7 O 0.77971(12) 0.80828(11) 0.9351(3)
N2_7 N 0.72284(14) 0.79795(12) 0.9709(3)
C1_7 C 0.80508(14) 0.98550(14) 0.7899(3)
C2_7 C 0.84115(14) 0.99773(15) 0.7691(3)
C7_7 C 0.86815(14) 0.99525(16) 0.8244(3)
H4_7 H 0.8643 0.9848 0.8762
C11_7 C 0.97822(14) 0.97216(17) 0.9216(4)
C12_7 C 0.94853(15) 0.97384(18) 0.8657(4)
C13_7 C 0.99826(16) 0.94244(18) 0.9261(4)
H5_7 H 0.9930 0.9231 0.8919
C15_7 C 0.72925(17) 0.91378(15) 0.8423(4)
C16_7 C 0.71547(16) 0.87708(14) 0.8429(3)
C17_7 C 0.69368(16) 0.86458(15) 0.7794(3)
H7_7 H 0.6881 0.8793 0.7346
C18_7 C 0.68063(18) 0.83096(16) 0.7828(4)
H8_7 H 0.6651 0.8230 0.7416
C19_7 C 0.68993(17) 0.80897(16) 0.8452(4)
H9_7 H 0.6819 0.7855 0.8459
C20_7 C 0.71116(18) 0.82144(15) 0.9074(4)
C21_7 C 0.72292(15) 0.85556(14) 0.9067(3)
H10_7 H 0.7363 0.8641 0.9511
C22_7 C 0.75938(18) 0.79252(15) 0.9783(4)
H19_7 H 0.8028 0.8845 0.9587
H23_7 H 0.8394 0.8412 0.9785
O9_8 O 0.07369(14) 0.08486(15) 0.4565(3)
N3_8 N 0.07723(13) 0.02899(16) 0.5055(3)
C28_8 C 0.01898(15) 0.06665(19) 0.3471(4)
H12_8 H 0.0258 0.0905 0.3480
C29_8 C 0.03440(15) 0.04355(17) 0.3992(4)
C30_8 C 0.02467(15) 0.00818(18) 0.3974(3)
C35_8 C 0.06307(17) 0.0556(2) 0.4550(4)
C36_8 C 0.10762(16) 0.03815(19) 0.5551(4)
C37_8 C 0.10620(18) 0.06390(19) 0.6124(4)
H15_8 H 0.0856 0.0774 0.6191
C38_8 C 0.13525(17) 0.07020(18) 0.6607(4)
H16_8 H 0.1346 0.0884 0.7000
C39_8 C 0.16492(15) 0.05040(16) 0.6523(3)
H17_8 H 0.1842 0.0542 0.6877
C40_8 C 0.16697(13) 0.02489(15) 0.5923(3)
C41_8 C 0.19813(13) 0.00313(14) 0.5788(3)
C42_8 C 0.13812(15) 0.01930(17) 0.5427(3)
H18_8 H 0.1393 0.0025 0.5002
O10_8 O 0.07514(11) 0.97622(14) 0.5680(3)
C31_8 C 0.03915(15) 0.9835(2) 0.4521(4)
C32_8 C 0.02973(16) 0.9482(2) 0.4489(4)
H13_8 H 0.0396 0.9320 0.4862
C33_8 C 0.00535(16) 0.93691(19) 0.3897(4)
C34_8 C 0.06495(16) 0.9950(2) 0.5139(4)
O1_8 O 0.77351(10) 0.05011(10) 0.1127(2)
O3_8 O 0.68948(14) 0.16883(13) 0.1530(3)
O4_8 O 0.80036(13) 0.19023(11) 0.0708(3)
O7_8 O 0.94172(11) 0.02971(12) 0.1851(3)
O13_8 O 0.83062(11) 0.03769(12) 0.2823(2)
N1_8 N 0.74483(14) 0.17932(12) 0.1129(3)
N4_8 N 0.87413(13) 0.07554(13) 0.3127(3)
C1_8 C 0.76450(14) 0.05508(14) 0.0399(3)
C2_8 C 0.75227(15) 0.09115(14) 0.0191(3)
C6_8 C 0.74185(17) 0.15122(15) 0.0540(3)
C7_8 C 0.75475(16) 0.11815(14) 0.0744(3)
H4_8 H 0.7652 0.1143 0.1262
C8_8 C 0.7150(2) 0.18637(17) 0.1595(4)
C9_8 C 0.71797(17) 0.21563(15) 0.2183(4)
C10_8 C 0.74905(17) 0.23557(15) 0.2222(4)
C11_8 C 0.77784(17) 0.22822(14) 0.1716(4)
C12_8 C 0.77616(18) 0.19853(15) 0.1157(4)
C13_8 C 0.80756(18) 0.24826(16) 0.1761(4)
H5_8 H 0.8269 0.2430 0.1419
C14_7 C 0.69029(18) 0.22358(17) 0.2691(4)
H6_7 H 0.6696 0.2099 0.2670
C22_8 C 0.95748(15) 0.00938(18) 0.2283(4)
C26_8 C 0.98398(15) 0.02099(18) 0.2879(4)
C27_8 C 0.99296(15) 0.05554(18) 0.2920(4)
H11_8 H 0.9817 0.0720 0.2577
C43_8 C 0.85716(17) 0.05489(16) 0.2630(4)
H19_8 H 0.8655 0.0528 0.2087
C44_8 C 0.8637(2) 0.08127(19) 0.3953(4)
H20_8 H 0.8582 0.1060 0.4031
H21_8 H 0.8828 0.0746 0.4319
H22_8 H 0.8430 0.0671 0.4074
C45_8 C 0.9039(2) 0.0950(2) 0.2856(5)
H23_8 H 0.9088 0.0894 0.2285
H24_8 H 0.9242 0.0890 0.3192
H25_8 H 0.8991 0.1201 0.2907
O14_8 O 0.72649(10) 0.44989(10) 0.3873(2)
O16_8 O 0.81052(14) 0.33117(13) 0.3470(3)
O17_8 O 0.69964(13) 0.30977(11) 0.4292(3)
N5_8 N 0.75517(14) 0.32068(12) 0.3871(3)
C46_8 C 0.73550(14) 0.44492(14) 0.4601(3)
C47_8 C 0.74773(15) 0.40885(14) 0.4809(3)
C48_8 C 0.76260(16) 0.40282(15) 0.5577(3)
H26_8 H 0.7639 0.4212 0.5963
C49_8 C 0.77541(18) 0.36974(16) 0.5773(4)
H27_8 H 0.7853 0.3655 0.6295
C50_8 C 0.77366(18) 0.34304(16) 0.5201(4)
H28_8 H 0.7832 0.3208 0.5324
C51_8 C 0.75815(17) 0.34878(15) 0.4460(3)
C52_8 C 0.74525(16) 0.38185(14) 0.4256(3)
H29_8 H 0.7348 0.3857 0.3738
C53_8 C 0.7850(2) 0.31363(17) 0.3405(4)
C54_8 C 0.78203(17) 0.28437(15) 0.2817(4)
C55_8 C 0.75095(17) 0.26443(15) 0.2778(4)
C56_8 C 0.72216(17) 0.27178(14) 0.3284(4)
C57_8 C 0.72384(18) 0.30147(15) 0.3843(4)
C58_8 C 0.69244(18) 0.25174(16) 0.3239(4)
H30_8 H 0.6731 0.2570 0.3581
C59_7 C 0.80971(18) 0.27642(17) 0.2309(4)
H31_7 H 0.8304 0.2901 0.2330
O19_8 O 0.67619(10) 0.51164(11) 0.3411(2)
O20_8 O 0.55828(11) 0.47029(12) 0.3149(3)
O21_8 O 0.54011(12) 0.58321(13) 0.2360(3)
O22_8 O 0.42631(14) 0.41514(15) 0.0435(3)
O26_8 O 0.66938(11) 0.46231(12) 0.2177(2)
N6_8 N 0.54795(12) 0.52716(14) 0.2791(3)
N8_8 N 0.62587(13) 0.42446(13) 0.1873(3)
C60_8 C 0.66378(15) 0.52075(17) 0.4077(4)
C61_8 C 0.62708(14) 0.53453(16) 0.4071(3)
C62_8 C 0.61458(15) 0.55632(16) 0.4706(3)
H32_8 H 0.6293 0.5619 0.5154
C63_8 C 0.58096(16) 0.56937(18) 0.4672(4)
H33_8 H 0.5730 0.5849 0.5084
C64_8 C 0.55897(16) 0.56007(17) 0.4048(4)
H34_8 H 0.5355 0.5681 0.4041
C65_8 C 0.57144(15) 0.53884(18) 0.3426(4)
C66_8 C 0.60556(14) 0.52708(15) 0.3433(3)
H35_8 H 0.6141 0.5137 0.2989
C67_8 C 0.54252(15) 0.49062(18) 0.2717(4)
C68_8 C 0.53322(16) 0.5526(2) 0.2284(4)
C69_8 C 0.50900(15) 0.53993(18) 0.1640(4)
C70_8 C 0.50069(14) 0.50354(18) 0.1612(4)
C71_8 C 0.51602(15) 0.47901(18) 0.2121(4)
C72_8 C 0.50704(15) 0.44446(18) 0.2080(4)
H36_8 H 0.5183 0.4280 0.2423
C73_8 C 0.48102(15) 0.43335(19) 0.1529(4)
H37_8 H 0.4742 0.4095 0.1520
C74_8 C 0.46560(15) 0.45645(17) 0.1008(4)
C75_8 C 0.47533(15) 0.49182(18) 0.1026(3)
C76_8 C 0.46085(15) 0.5165(2) 0.0479(4)
C77_8 C 0.47027(16) 0.5518(2) 0.0511(4)
H38_8 H 0.4604 0.5680 0.0138
C78_8 C 0.49465(16) 0.56309(19) 0.1103(4)
H39_8 H 0.5011 0.5870 0.1127
C80_8 C 0.43693(17) 0.4444(2) 0.0450(4)
C88_8 C 0.64284(17) 0.44511(16) 0.2370(4)
H44_8 H 0.6345 0.4472 0.2913
C89_8 C 0.6363(2) 0.41873(19) 0.1047(4)
H45_8 H 0.6418 0.3940 0.0969
H46_8 H 0.6172 0.4254 0.0681
H47_8 H 0.6570 0.4329 0.0926
C90_8 C 0.5961(2) 0.4050(2) 0.2144(5)
H48_8 H 0.5912 0.4106 0.2715
H49_8 H 0.5758 0.4110 0.1808
H50_8 H 0.6009 0.3799 0.2093
C3_8 C 0.73740(16) 0.09718(15) 0.9423(3)
H1_8 H 0.7361 0.0788 0.9037
C4_8 C 0.72459(18) 0.13026(16) 0.9227(4)
H2_8 H 0.7147 0.1345 0.8705
C5_8 C 0.72634(18) 0.15696(16) 0.9799(4)
H3_8 H 0.7168 0.1792 0.9676
O23_8 O 0.42486(11) 0.52378(14) 0.9320(3)
N7_8 N 0.42277(13) 0.47101(16) 0.9945(3)
C79_8 C 0.43505(16) 0.5050(2) 0.9861(4)
C81_8 C 0.39238(16) 0.46185(19) 0.9449(4)
C82_8 C 0.39380(18) 0.43610(19) 0.8876(4)
H40_8 H 0.4144 0.4226 0.8809
C83_8 C 0.36475(17) 0.42980(18) 0.8393(4)
H41_8 H 0.3654 0.4116 0.8000
C84_8 C 0.33508(15) 0.44960(16) 0.8477(3)
H42_8 H 0.3158 0.4458 0.8123
C85_8 C 0.33303(13) 0.47511(15) 0.9077(3)
C86_8 C 0.30187(13) 0.49687(14) 0.9212(3)
C87_8 C 0.36188(15) 0.48070(17) 0.9573(3)
H43_8 H 0.3607 0.4975 0.9998
O6_8 O 0.82381(10) 0.98836(11) 0.1589(2)
O8_8 O 0.95989(12) 0.91679(13) 0.2640(3)
N2_8 N 0.95205(12) 0.97284(14) 0.2209(3)
C15_8 C 0.83622(15) 0.97925(17) 0.0923(4)
C16_8 C 0.87292(14) 0.96547(16) 0.0929(3)
C17_8 C 0.88542(15) 0.94368(16) 0.0294(3)
C18_8 C 0.91904(16) 0.93063(18) 0.0328(4)
C19_8 C 0.94103(16) 0.93993(17) 0.0952(4)
H9_8 H 0.9645 0.9319 0.0959
C20_8 C 0.92856(15) 0.96116(18) 0.1574(4)
C21_8 C 0.89444(14) 0.97292(15) 0.1567(3)
H10_8 H 0.8859 0.9863 0.2011
C23_8 C 0.96678(16) 0.9474(2) 0.2716(4)
C24_8 C 0.99100(15) 0.96007(18) 0.3360(4)
C25_8 C 0.99931(14) 0.99646(18) 0.3388(4)
H14_8 H 0.9989 0.9130 0.3873
H7_8 H 0.8707 0.9381 0.9846
H8_8 H 0.9270 0.9151 0.9916
C59_8 C 0.02642(17) 0.94029(18) 0.9809(4)
H31_8 H 0.0401 0.9196 0.9830
C14_8 C 0.97358(17) 0.05971(18) 0.0191(4)
H6_8 H 0.9599 0.0804 0.0170
loop_
_geom_bond_atom_site_label_1
_geom_bond_atom_site_label_2
_geom_bond_site_symmetry_1
_geom_bond_site_symmetry_2
Eu1 O1 1_555 1_555
O1 C1 1_555 1_555
O2 C1 1_555 1_555
O4 C12 1_555 1_555
O5 C15 1_555 1_555
O6 Eu1 1_555 1_555
O7 C22 1_555 1_555
O8 C23 1_555 1_555
O9 C35 1_555 1_555
O10 C34 1_555 1_555
O11 C41 1_555 1_555
O12 C41 1_555 1_555
O13 Eu1 1_555 1_555
N2 C20 1_555 1_555
N3 C34 1_555 1_555
N4 C43 1_555 1_555
C1 C2 1_555 1_555
C7 C2 1_555 1_555
H4 C7 1_555 1_555
C13 C11 1_555 1_555
H5 C13 1_555 1_555
C15 O6 1_555 1_555
C16 C15 1_555 1_555
C17 C16 1_555 1_555
H7 C17 1_555 1_555
C18 C17 1_555 1_555
H8 C18 1_555 1_555
C19 C18 1_555 1_555
H9 C19 1_555 1_555
C20 C19 1_555 1_555
C21 C16 1_555 1_555
H10 C21 1_555 1_555
C22 N2 1_555 1_555
C23 N2 1_555 1_555
C24 C23 1_555 1_555
C25 C24 1_555 1_555
C26 C22 1_555 1_555
C27 C26 1_555 1_555
H11 C27 1_555 1_555
C28 C27 1_555 1_555
H12 C28 1_555 1_555
C29 C28 1_555 1_555
C30 C25 1_555 1_555
C31 C30 1_555 1_555
C32 C31 1_555 1_555
H13 C32 1_555 1_555
C33 C24 1_555 1_555
H14 C33 1_555 1_555
C34 C31 1_555 1_555
C35 N3 1_555 1_555
C36 N3 1_555 1_555
C37 C36 1_555 1_555
H15 C37 1_555 1_555
C38 C37 1_555 1_555
H16 C38 1_555 1_555
C39 C38 1_555 1_555
H17 C39 1_555 1_555
C40 C39 1_555 1_555
C41 C40 1_555 1_555
C42 C36 1_555 1_555
H18 C42 1_555 1_555
C43 O13 1_555 1_555
H19 C43 1_555 1_555
C44 N4 1_555 1_555
H20 C44 1_555 1_555
H21 C44 1_555 1_555
H22 C44 1_555 1_555
C45 N4 1_555 1_555
H23 C45 1_555 1_555
H24 C45 1_555 1_555
H25 C45 1_555 1_555
O16 C53 1_555 1_555
N5 C51 1_555 1_555
C48 H26 1_555 1_555
C49 C48 1_555 1_555
H27 C49 1_555 1_555
C50 C49 1_555 1_555
H28 C50 1_555 1_555
C51 C50 1_555 1_555
C53 N5 1_555 1_555
C54 C53 1_555 1_555
C59 C13 1_555 1_555
H31 C59 1_555 1_555
Eu5 O2 1_555 1_555
Eu7 O11 1_555 1_555
O29 Eu1 1_555 1_555
O32 Eu1 1_555 1_555
O35 Eu1 1_555 1_555
O5 Eu5 1_555 1_555
O12 Eu7 1_555 1_555
C11 C12 1_555 1_555
C20 C21 1_555 1_555
C25 C26 1_555 1_555
C29 C30 1_555 1_555
C29 C35 1_555 1_555
C32 C33 1_555 1_555
C40 C42 1_555 1_555
C54 C55 1_555 1_555
C54 C59 1_555 1_555
O3 C8 1_555 1_555
N1 C6 1_555 1_555
C3 H1 1_555 1_555
C4 C3 1_555 1_555
H2 C4 1_555 1_555
C5 C4 1_555 1_555
H3 C5 1_555 1_555
C6 C5 1_555 1_555
C8 N1 1_555 1_555
C9 C8 1_555 1_555
C10 C9 1_555 1_555
C14 C9 1_555 1_555
H6 C14 1_555 1_555
O14 C46 1_555 1_555
O15 C46 1_555 1_555
O17 C57 1_555 1_555
C46 C47 1_555 1_555
C52 C47 1_555 1_555
H29 C52 1_555 1_555
C58 C14 1_555 1_555
H30 C58 1_555 1_555
Eu2 O14 1_555 1_555
O18 C60 1_555 1_555
O19 Eu2 1_555 1_555
O20 C67 1_555 1_555
O21 C68 1_555 1_555
O22 C80 1_555 1_555
O23 C79 1_555 1_555
O24 C86 1_555 1_555
O25 C86 1_555 1_555
O26 Eu2 1_555 1_555
N6 C65 1_555 1_555
N7 C79 1_555 1_555
N8 C88 1_555 1_555
C60 O19 1_555 1_555
C61 C60 1_555 1_555
C62 C61 1_555 1_555
H32 C62 1_555 1_555
C63 C62 1_555 1_555
H33 C63 1_555 1_555
C64 C63 1_555 1_555
H34 C64 1_555 1_555
C65 C64 1_555 1_555
C66 C61 1_555 1_555
H35 C66 1_555 1_555
C67 N6 1_555 1_555
C68 N6 1_555 1_555
C69 C68 1_555 1_555
C70 C69 1_555 1_555
C71 C67 1_555 1_555
C72 C71 1_555 1_555
H36 C72 1_555 1_555
C73 C72 1_555 1_555
H37 C73 1_555 1_555
C74 C73 1_555 1_555
C75 C70 1_555 1_555
C76 C75 1_555 1_555
C77 C76 1_555 1_555
H38 C77 1_555 1_555
C78 C69 1_555 1_555
H39 C78 1_555 1_555
C79 C76 1_555 1_555
C80 N7 1_555 1_555
C81 N7 1_555 1_555
C82 C81 1_555 1_555
H40 C82 1_555 1_555
C83 C82 1_555 1_555
H41 C83 1_555 1_555
C84 C83 1_555 1_555
H42 C84 1_555 1_555
C85 C84 1_555 1_555
C86 C85 1_555 1_555
C87 C81 1_555 1_555
H43 C87 1_555 1_555
C88 O26 1_555 1_555
H44 C88 1_555 1_555
C89 N8 1_555 1_555
H45 C89 1_555 1_555
H46 C89 1_555 1_555
H47 C89 1_555 1_555
C90 N8 1_555 1_555
H48 C90 1_555 1_555
H49 C90 1_555 1_555
H50 C90 1_555 1_555
Eu4 O24 1_555 1_555
Eu8 O15 1_555 1_555
O30 Eu2 1_555 1_555
O31 Eu2 1_555 1_555
O33 Eu2 1_555 1_555
C56 C57 1_555 1_555
C56 C58 1_555 1_555
O18 Eu8 1_555 1_555
O25 Eu4 1_555 1_555
C65 C66 1_555 1_555
C70 C71 1_555 1_555
C74 C75 1_555 1_555
C74 C80 1_555 1_555
C77 C78 1_555 1_555
C85 C87 1_555 1_555
O22_2 C80_2 1_555 1_555
O23_2 C79_2 1_555 1_555
O24_2 C86_2 1_555 1_555
O25_2 C86_2 1_555 1_555
N7_2 C79_2 1_555 1_555
H37_2 C73_2 1_555 1_555
C74_2 C73_2 1_555 1_555
C76_2 C75_2 1_555 1_555
C77_2 C76_2 1_555 1_555
H38_2 C77_2 1_555 1_555
C79_2 C76_2 1_555 1_555
C80_2 N7_2 1_555 1_555
C81_2 N7_2 1_555 1_555
C82_2 C81_2 1_555 1_555
H40_2 C82_2 1_555 1_555
C83_2 C82_2 1_555 1_555
H41_2 C83_2 1_555 1_555
C84_2 C83_2 1_555 1_555
H42_2 C84_2 1_555 1_555
C85_2 C84_2 1_555 1_555
C86_2 C85_2 1_555 1_555
C87_2 C81_2 1_555 1_555
H43_2 C87_2 1_555 1_555
Eu4 O25_2 1_555 1_555
Eu4_2 O24_2 1_555 1_555
O25_2 Eu4_2 1_555 1_555
C74_2 C75_2 1_555 1_555
C74_2 C80_2 1_555 1_555
C77_2 C78_2 1_555 1_555
C85_2 C87_2 1_555 1_555
O10_2 C34_2 1_555 1_555
Eu7_2 O11_2 1_555 1_555
O29 C15_2 1_555 1_555
O8_2 C23_2 1_555 1_555
N2_2 C20_2 1_555 1_555
C15_2 O6_2 1_555 1_555
C16_2 C15_2 1_555 1_555
C17_2 C16_2 1_555 1_555
H7_2 C17_2 1_555 1_555
C18_2 C17_2 1_555 1_555
H8_2 C18_2 1_555 1_555
C19_2 C18_2 1_555 1_555
H9_2 C19_2 1_555 1_555
C20_2 C19_2 1_555 1_555
C21_2 C16_2 1_555 1_555
H10_2 C21_2 1_555 1_555
C23_2 N2_2 1_555 1_555
C24_2 C23_2 1_555 1_555
C25_2 C24_2 1_555 1_555
C32_2 C31_2 1_555 1_555
H13_2 C32_2 1_555 1_555
C33_2 C24_2 1_555 1_555
H14_2 C33_2 1_555 1_555
C20_2 C21_2 1_555 1_555
C32_2 C33_2 1_555 1_555
O12_2 C41_2 1_555 1_555
C36_2 N3_2 1_555 1_555
C37_2 C36_2 1_555 1_555
H15_2 C37_2 1_555 1_555
C38_2 C37_2 1_555 1_555
H16_2 C38_2 1_555 1_555
C39_2 C38_2 1_555 1_555
H17_2 C39_2 1_555 1_555
C40_2 C39_2 1_555 1_555
C41_2 C40_2 1_555 1_555
C42_2 C36_2 1_555 1_555
H18_2 C42_2 1_555 1_555
C48_2 H26_2 1_555 1_555
C49_2 C48_2 1_555 1_555
H27_2 C49_2 1_555 1_555
C50_2 C49_2 1_555 1_555
H28_2 C50_2 1_555 1_555
Eu6 O15_2 1_555 1_555
C40_2 C42_2 1_555 1_555
Eu1_2 O1_2 1_555 1_555
O1_2 C1_2 1_555 1_555
O27 C1_2 1_555 1_555
O3_2 C8_2 1_555 1_555
O4_2 C12_2 1_555 1_555
O7_2 C22_2 1_555 1_555
O9_2 C35_2 1_555 1_555
O13_2 Eu1_2 1_555 1_555
N1_2 C6_2 1_555 1_555
N4_2 C43_2 1_555 1_555
C1_2 C2_2 1_555 1_555
C2_2 C3_2 1_555 1_555
C3_2 H1_2 1_555 1_555
C4_2 C3_2 1_555 1_555
H2_2 C4_2 1_555 1_555
C5_2 C4_2 1_555 1_555
H3_2 C5_2 1_555 1_555
C6_2 C5_2 1_555 1_555
C7_2 C2_2 1_555 1_555
H4_2 C7_2 1_555 1_555
C8_2 N1_2 1_555 1_555
C9_2 C8_2 1_555 1_555
C10_2 C9_2 1_555 1_555
C11_2 C10_2 1_555 1_555
C12_2 N1_2 1_555 1_555
C13_2 C11_2 1_555 1_555
H5_2 C13_2 1_555 1_555
C14_2 C9_2 1_555 1_555
H6_2 C14_2 1_555 1_555
C26_2 C22_2 1_555 1_555
C27_2 C26_2 1_555 1_555
H11_2 C27_2 1_555 1_555
C28_2 C27_2 1_555 1_555
H12_2 C28_2 1_555 1_555
C29_2 C28_2 1_555 1_555
C43_2 O13_2 1_555 1_555
H19_2 C43_2 1_555 1_555
C44_2 N4_2 1_555 1_555
H20_2 C44_2 1_555 1_555
H21_2 C44_2 1_555 1_555
H22_2 C44_2 1_555 1_555
C45_2 N4_2 1_555 1_555
H23_2 C45_2 1_555 1_555
H24_2 C45_2 1_555 1_555
H25_2 C45_2 1_555 1_555
O14_2 C46_2 1_555 1_555
O16_2 C53_2 1_555 1_555
O17_2 C57_2 1_555 1_555
N5_2 C51_2 1_555 1_555
C46_2 C47_2 1_555 1_555
C52_2 C47_2 1_555 1_555
H29_2 C52_2 1_555 1_555
C53_2 N5_2 1_555 1_555
C54_2 C53_2 1_555 1_555
C55_2 C10_2 1_555 1_555
C56_2 C55_2 1_555 1_555
C57_2 N5_2 1_555 1_555
C58_2 C14_2 1_555 1_555
H30_2 C58_2 1_555 1_555
C59_2 C13_2 1_555 1_555
H31_2 C59_2 1_555 1_555
Eu7 O14_2 1_555 1_555
O18_2 C60_2 1_555 1_555
O19_2 Eu7 1_555 1_555
O20_2 C67_2 1_555 1_555
O21_2 C68_2 1_555 1_555
O26_2 Eu7 1_555 1_555
N6_2 C65_2 1_555 1_555
N8_2 C88_2 1_555 1_555
C60_2 O19_2 1_555 1_555
C61_2 C60_2 1_555 1_555
C62_2 C61_2 1_555 1_555
C63_2 C62_2 1_555 1_555
C64_2 C63_2 1_555 1_555
H34_2 C64_2 1_555 1_555
C65_2 C64_2 1_555 1_555
C66_2 C61_2 1_555 1_555
H35_2 C66_2 1_555 1_555
C67_2 N6_2 1_555 1_555
C68_2 N6_2 1_555 1_555
C69_2 C68_2 1_555 1_555
C70_2 C69_2 1_555 1_555
C71_2 C67_2 1_555 1_555
C72_2 C71_2 1_555 1_555
H36_2 C72_2 1_555 1_555
C88_2 O26_2 1_555 1_555
H44_2 C88_2 1_555 1_555
C89_2 N8_2 1_555 1_555
H45_2 C89_2 1_555 1_555
H46_2 C89_2 1_555 1_555
H47_2 C89_2 1_555 1_555
C90_2 N8_2 1_555 1_555
H48_2 C90_2 1_555 1_555
H49_2 C90_2 1_555 1_555
H50_2 C90_2 1_555 1_555
O27_2 Eu1_2 1_555 1_555
O28_2 Eu7 1_555 1_555
O29_2 Eu1_2 1_555 1_555
O30_2 Eu7 1_555 1_555
O33_2 Eu7 1_555 1_555
C6_2 C7_2 1_555 1_555
C11_2 C12_2 1_555 1_555
C29_2 C30_2 1_555 1_555
C29_2 C35_2 1_555 1_555
C51_2 C52_2 1_555 1_555
C54_2 C55_2 1_555 1_555
C54_2 C59_2 1_555 1_555
C56_2 C57_2 1_555 1_555
C56_2 C58_2 1_555 1_555
C65_2 C66_2 1_555 1_555
C70_2 C71_2 1_555 1_555
Eu4_2 O1_3 1_555 1_555
O1_3 C1_3 1_555 1_555
O2_2 C1_3 1_555 1_555
O3_3 C8_3 1_555 1_555
O4_3 C12_3 1_555 1_555
O5_2 C15_3 1_555 1_555
O6_3 Eu4_2 1_555 1_555
O7_3 C22_3 1_555 1_555
O8_3 C23_3 1_555 1_555
O9_3 C35_3 1_555 1_555
O10_3 C34_3 1_555 1_555
O11_3 C41_3 1_555 1_555
O12_3 C41_3 1_555 1_555
O13_3 Eu4_2 1_555 1_555
N1_3 C6_3 1_555 1_555
N2_3 C20_3 1_555 1_555
N3_3 C34_3 1_555 1_555
N4_3 C43_3 1_555 1_555
C1_3 C2_3 1_555 1_555
C2_3 C3_3 1_555 1_555
C3_3 H1_3 1_555 1_555
C4_3 C3_3 1_555 1_555
H2_3 C4_3 1_555 1_555
C5_3 C4_3 1_555 1_555
H3_3 C5_3 1_555 1_555
C6_3 C5_3 1_555 1_555
C7_3 C2_3 1_555 1_555
H4_3 C7_3 1_555 1_555
C8_3 N1_3 1_555 1_555
C9_3 C8_3 1_555 1_555
C10_3 C9_3 1_555 1_555
C11_3 C10_3 1_555 1_555
C12_3 N1_3 1_555 1_555
C13_3 C11_3 1_555 1_555
H5_3 C13_3 1_555 1_555
C14_3 C9_3 1_555 1_555
H6_3 C14_3 1_555 1_555
C15_3 O6_3 1_555 1_555
C16_3 C15_3 1_555 1_555
C17_3 C16_3 1_555 1_555
H7_3 C17_3 1_555 1_555
C18_3 C17_3 1_555 1_555
H8_3 C18_3 1_555 1_555
C19_3 C18_3 1_555 1_555
H9_3 C19_3 1_555 1_555
C20_3 C19_3 1_555 1_555
C21_3 C16_3 1_555 1_555
H10_3 C21_3 1_555 1_555
C22_3 N2_3 1_555 1_555
C23_3 N2_3 1_555 1_555
C24_3 C23_3 1_555 1_555
C25_3 C24_3 1_555 1_555
C26_3 C22_3 1_555 1_555
C27_3 C26_3 1_555 1_555
H11_3 C27_3 1_555 1_555
C28_3 C27_3 1_555 1_555
H12_3 C28_3 1_555 1_555
C29_3 C28_3 1_555 1_555
C30_3 C25_3 1_555 1_555
C31_3 C30_3 1_555 1_555
C32_3 C31_3 1_555 1_555
H13_3 C32_3 1_555 1_555
C33_3 C24_3 1_555 1_555
H14_3 C33_3 1_555 1_555
C34_3 C31_3 1_555 1_555
C35_3 N3_3 1_555 1_555
C36_3 N3_3 1_555 1_555
C37_3 C36_3 1_555 1_555
H15_3 C37_3 1_555 1_555
C38_3 C37_3 1_555 1_555
H16_3 C38_3 1_555 1_555
C39_3 C38_3 1_555 1_555
H17_3 C39_3 1_555 1_555
C40_3 C39_3 1_555 1_555
C41_3 C40_3 1_555 1_555
C42_3 C36_3 1_555 1_555
H18_3 C42_3 1_555 1_555
C43_3 O13_3 1_555 1_555
H19_3 C43_3 1_555 1_555
C44_3 N4_3 1_555 1_555
H20_3 C44_3 1_555 1_555
H21_3 C44_3 1_555 1_555
H22_3 C44_3 1_555 1_555
C45_3 N4_3 1_555 1_555
H23_3 C45_3 1_555 1_555
H24_3 C45_3 1_555 1_555
H25_3 C45_3 1_555 1_555
O14_3 C46_3 1_555 1_555
O28_2 C46_3 1_555 1_555
O16_3 C53_3 1_555 1_555
O17_3 C57_3 1_555 1_555
N5_3 C51_3 1_555 1_555
C46_3 C47_3 1_555 1_555
C47_3 C48_3 1_555 1_555
C48_3 H26_3 1_555 1_555
C49_3 C48_3 1_555 1_555
H27_3 C49_3 1_555 1_555
C50_3 C49_3 1_555 1_555
H28_3 C50_3 1_555 1_555
C51_3 C50_3 1_555 1_555
C52_3 C47_3 1_555 1_555
H29_3 C52_3 1_555 1_555
C53_3 N5_3 1_555 1_555
C54_3 C53_3 1_555 1_555
C55_3 C10_3 1_555 1_555
C56_3 C55_3 1_555 1_555
C57_3 N5_3 1_555 1_555
C58_3 C14_3 1_555 1_555
H30_3 C58_3 1_555 1_555
C59_3 C13_3 1_555 1_555
H31_3 C59_3 1_555 1_555
Eu2_2 O14_3 1_555 1_555
O30_2 C60_3 1_555 1_555
O19_3 Eu2_2 1_555 1_555
O20_3 C67_3 1_555 1_555
O21_3 C68_3 1_555 1_555
O22_3 C80_3 1_555 1_555
O23_3 C79_3 1_555 1_555
O24_3 C86_3 1_555 1_555
O25_3 C86_3 1_555 1_555
O26_3 Eu2_2 1_555 1_555
N6_3 C65_3 1_555 1_555
N7_3 C79_3 1_555 1_555
N8_3 C88_3 1_555 1_555
C60_3 O19_3 1_555 1_555
C61_3 C60_3 1_555 1_555
C62_3 C61_3 1_555 1_555
H32_3 C62_3 1_555 1_555
C63_3 C62_3 1_555 1_555
H33_3 C63_3 1_555 1_555
C64_3 C63_3 1_555 1_555
H34_3 C64_3 1_555 1_555
C65_3 C64_3 1_555 1_555
C66_3 C61_3 1_555 1_555
H35_3 C66_3 1_555 1_555
C67_3 N6_3 1_555 1_555
C68_3 N6_3 1_555 1_555
C69_3 C68_3 1_555 1_555
C70_3 C69_3 1_555 1_555
C71_3 C67_3 1_555 1_555
C72_3 C71_3 1_555 1_555
H36_3 C72_3 1_555 1_555
C73_3 C72_3 1_555 1_555
H37_3 C73_3 1_555 1_555
C74_3 C73_3 1_555 1_555
C75_3 C70_3 1_555 1_555
C76_3 C75_3 1_555 1_555
C77_3 C76_3 1_555 1_555
H38_3 C77_3 1_555 1_555
C78_3 C69_3 1_555 1_555
H39_3 C78_3 1_555 1_555
C79_3 C76_3 1_555 1_555
C80_3 N7_3 1_555 1_555
C81_3 N7_3 1_555 1_555
C82_3 C81_3 1_555 1_555
H40_3 C82_3 1_555 1_555
C83_3 C82_3 1_555 1_555
H41_3 C83_3 1_555 1_555
C84_3 C83_3 1_555 1_555
H42_3 C84_3 1_555 1_555
C85_3 C84_3 1_555 1_555
C86_3 C85_3 1_555 1_555
C87_3 C81_3 1_555 1_555
H43_3 C87_3 1_555 1_555
C88_3 O26_3 1_555 1_555
H44_3 C88_3 1_555 1_555
C89_3 N8_3 1_555 1_555
H45_3 C89_3 1_555 1_555
H46_3 C89_3 1_555 1_555
H47_3 C89_3 1_555 1_555
C90_3 N8_3 1_555 1_555
H48_3 C90_3 1_555 1_555
H49_3 C90_3 1_555 1_555
H50_3 C90_3 1_555 1_555
Eu4 O2_2 1_555 1_555
O27_3 Eu4_2 1_555 1_555
O28_3 Eu2_2 1_555 1_555
O29_3 Eu4_2 1_555 1_555
O30_3 Eu2_2 1_555 1_555
O31_2 Eu2_2 1_555 1_555
O33_3 Eu2_2 1_555 1_555
O33_2 Eu2_2 1_555 1_555
O35_3 Eu4_2 1_555 1_555
O5_2 Eu4 1_555 1_555
C6_3 C7_3 1_555 1_555
C11_3 C12_3 1_555 1_555
C20_3 C21_3 1_555 1_555
C25_3 C26_3 1_555 1_555
C29_3 C30_3 1_555 1_555
C29_3 C35_3 1_555 1_555
C32_3 C33_3 1_555 1_555
C40_3 C42_3 1_555 1_555
C51_3 C52_3 1_555 1_555
C54_3 C55_3 1_555 1_555
C54_3 C59_3 1_555 1_555
C56_3 C57_3 1_555 1_555
C56_3 C58_3 1_555 1_555
C65_3 C66_3 1_555 1_555
C70_3 C71_3 1_555 1_555
C74_3 C75_3 1_555 1_555
C74_3 C80_3 1_555 1_555
C77_3 C78_3 1_555 1_555
C85_3 C87_3 1_555 1_555
O18_3 C60_4 1_555 1_555
O21_4 C68_4 1_555 1_555
N6_4 C65_4 1_555 1_555
C60_4 O19_4 1_555 1_555
C61_4 C60_4 1_555 1_555
C62_4 C61_4 1_555 1_555
C63_4 C62_4 1_555 1_555
C64_4 C63_4 1_555 1_555
H34_4 C64_4 1_555 1_555
C65_4 C64_4 1_555 1_555
C66_4 C61_4 1_555 1_555
H35_4 C66_4 1_555 1_555
C68_4 N6_4 1_555 1_555
C69_4 C68_4 1_555 1_555
C70_4 C69_4 1_555 1_555
C65_4 C66_4 1_555 1_555
O10_4 C34_4 1_555 1_555
O11_4 C41_4 1_555 1_555
O12_4 C41_4 1_555 1_555
N3_4 C34_4 1_555 1_555
C36_4 N3_4 1_555 1_555
C37_4 C36_4 1_555 1_555
H15_4 C37_4 1_555 1_555
C38_4 C37_4 1_555 1_555
H16_4 C38_4 1_555 1_555
C39_4 C38_4 1_555 1_555
H17_4 C39_4 1_555 1_555
C40_4 C39_4 1_555 1_555
C41_4 C40_4 1_555 1_555
C42_4 C36_4 1_555 1_555
H18_4 C42_4 1_555 1_555
C48_4 H26_4 1_555 1_555
C49_4 C48_4 1_555 1_555
H27_4 C49_4 1_555 1_555
C50_4 C49_4 1_555 1_555
H28_4 C50_4 1_555 1_555
Eu6_3 O12_4 1_555 1_555
Eu6 O11_4 1_555 1_555
O12_4 Eu6 1_555 1_555
C40_4 C42_4 1_555 1_555
Eu1_3 O1_4 1_555 1_555
O1_4 C1_4 1_555 1_555
O27_3 C1_4 1_555 1_555
O3_4 C8_4 1_555 1_555
O4_4 C12_4 1_555 1_555
O29_3 C15_4 1_555 1_555
O6_4 Eu1_3 1_555 1_555
O7_4 C22_4 1_555 1_555
O8_4 C23_4 1_555 1_555
O9_4 C35_4 1_555 1_555
O13_4 Eu1_3 1_555 1_555
N1_4 C6_4 1_555 1_555
N2_4 C20_4 1_555 1_555
N4_4 C43_4 1_555 1_555
C1_4 C2_4 1_555 1_555
C2_4 C3_4 1_555 1_555
C3_4 H1_4 1_555 1_555
C4_4 C3_4 1_555 1_555
H2_4 C4_4 1_555 1_555
C5_4 C4_4 1_555 1_555
H3_4 C5_4 1_555 1_555
C6_4 C5_4 1_555 1_555
C7_4 C2_4 1_555 1_555
H4_4 C7_4 1_555 1_555
C8_4 N1_4 1_555 1_555
C9_4 C8_4 1_555 1_555
C10_4 C9_4 1_555 1_555
C11_4 C10_4 1_555 1_555
C12_4 N1_4 1_555 1_555
C13_4 C11_4 1_555 1_555
H5_4 C13_4 1_555 1_555
C14_4 C9_4 1_555 1_555
H6_4 C14_4 1_555 1_555
C15_4 O6_4 1_555 1_555
C16_4 C15_4 1_555 1_555
C17_4 C16_4 1_555 1_555
H7_4 C17_4 1_555 1_555
C18_4 C17_4 1_555 1_555
H8_4 C18_4 1_555 1_555
C19_4 C18_4 1_555 1_555
H9_4 C19_4 1_555 1_555
C20_4 C19_4 1_555 1_555
C21_4 C16_4 1_555 1_555
H10_4 C21_4 1_555 1_555
C22_4 N2_4 1_555 1_555
C23_4 N2_4 1_555 1_555
C24_4 C23_4 1_555 1_555
C25_4 C24_4 1_555 1_555
C26_4 C22_4 1_555 1_555
C27_4 C26_4 1_555 1_555
H11_4 C27_4 1_555 1_555
C28_4 C27_4 1_555 1_555
H12_4 C28_4 1_555 1_555
C29_4 C28_4 1_555 1_555
C30_4 C25_4 1_555 1_555
C31_4 C30_4 1_555 1_555
C32_4 C31_4 1_555 1_555
H13_4 C32_4 1_555 1_555
C33_4 C24_4 1_555 1_555
H14_4 C33_4 1_555 1_555
C43_4 O13_4 1_555 1_555
H19_4 C43_4 1_555 1_555
C44_4 N4_4 1_555 1_555
H20_4 C44_4 1_555 1_555
H21_4 C44_4 1_555 1_555
H22_4 C44_4 1_555 1_555
C45_4 N4_4 1_555 1_555
H23_4 C45_4 1_555 1_555
H24_4 C45_4 1_555 1_555
H25_4 C45_4 1_555 1_555
O14_4 C46_4 1_555 1_555
O16_4 C53_4 1_555 1_555
O17_4 C57_4 1_555 1_555
N5_4 C51_4 1_555 1_555
C46_4 C47_4 1_555 1_555
C52_4 C47_4 1_555 1_555
H29_4 C52_4 1_555 1_555
C53_4 N5_4 1_555 1_555
C54_4 C53_4 1_555 1_555
C55_4 C10_4 1_555 1_555
C56_4 C55_4 1_555 1_555
C57_4 N5_4 1_555 1_555
C58_4 C14_4 1_555 1_555
H30_4 C58_4 1_555 1_555
C59_4 C13_4 1_555 1_555
H31_4 C59_4 1_555 1_555
Eu8 O14_4 1_555 1_555
O20_4 C67_4 1_555 1_555
O26_4 Eu8 1_555 1_555
N8_4 C88_4 1_555 1_555
C71_4 C67_4 1_555 1_555
C72_4 C71_4 1_555 1_555
H36_4 C72_4 1_555 1_555
C88_4 O26_4 1_555 1_555
H44_4 C88_4 1_555 1_555
C89_4 N8_4 1_555 1_555
H45_4 C89_4 1_555 1_555
H46_4 C89_4 1_555 1_555
H47_4 C89_4 1_555 1_555
C90_4 N8_4 1_555 1_555
H48_4 C90_4 1_555 1_555
H49_4 C90_4 1_555 1_555
H50_4 C90_4 1_555 1_555
O27_4 Eu1_3 1_555 1_555
O29_4 Eu1_3 1_555 1_555
O32_3 Eu1_3 1_555 1_555
O35_4 Eu1_3 1_555 1_555
O35_3 Eu1_3 1_555 1_555
C6_4 C7_4 1_555 1_555
C11_4 C12_4 1_555 1_555
C20_4 C21_4 1_555 1_555
C25_4 C26_4 1_555 1_555
C29_4 C30_4 1_555 1_555
C29_4 C35_4 1_555 1_555
C32_4 C33_4 1_555 1_555
C51_4 C52_4 1_555 1_555
C54_4 C55_4 1_555 1_555
C54_4 C59_4 1_555 1_555
C56_4 C57_4 1_555 1_555
C56_4 C58_4 1_555 1_555
O23_4 C79_4 1_555 1_555
C77_4 C76_4 1_555 1_555
H38_4 C77_4 1_555 1_555
C79_4 C76_4 1_555 1_555
C77_4 C78_4 1_555 1_555
O22_4 C80_4 1_555 1_555
O36 C86_4 1_555 1_555
H37_4 C73_4 1_555 1_555
C74_4 C73_4 1_555 1_555
C80_4 N7_4 1_555 1_555
C81_4 N7_4 1_555 1_555
C82_4 C81_4 1_555 1_555
H40_4 C82_4 1_555 1_555
C83_4 C82_4 1_555 1_555
H41_4 C83_4 1_555 1_555
C84_4 C83_4 1_555 1_555
H42_4 C84_4 1_555 1_555
C85_4 C84_4 1_555 1_555
C86_4 C85_4 1_555 1_555
C87_4 C81_4 1_555 1_555
H43_4 C87_4 1_555 1_555
C74_4 C75_4 1_555 1_555
C74_4 C80_4 1_555 1_555
C85_4 C87_4 1_555 1_555
O8_5 C23_5 1_555 1_555
O9_5 C35_5 1_555 1_555
O10_5 C34_5 1_555 1_555
O11_5 C41_5 1_555 1_555
O33 C41_5 1_555 1_555
N3_5 C34_5 1_555 1_555
N4_5 C43_5 1_555 1_555
H6_5 C14_5 1_555 1_555
C24_5 C23_5 1_555 1_555
C25_5 C24_5 1_555 1_555
C27_5 C26_5 1_555 1_555
H11_5 C27_5 1_555 1_555
C28_5 C27_5 1_555 1_555
H12_5 C28_5 1_555 1_555
C29_5 C28_5 1_555 1_555
C30_5 C25_5 1_555 1_555
C31_5 C30_5 1_555 1_555
C32_5 C31_5 1_555 1_555
H13_5 C32_5 1_555 1_555
C33_5 C24_5 1_555 1_555
H14_5 C33_5 1_555 1_555
C34_5 C31_5 1_555 1_555
C35_5 N3_5 1_555 1_555
C36_5 N3_5 1_555 1_555
C37_5 C36_5 1_555 1_555
H15_5 C37_5 1_555 1_555
C38_5 C37_5 1_555 1_555
H16_5 C38_5 1_555 1_555
C39_5 C38_5 1_555 1_555
H17_5 C39_5 1_555 1_555
C40_5 C39_5 1_555 1_555
C41_5 C40_5 1_555 1_555
C42_5 C36_5 1_555 1_555
H18_5 C42_5 1_555 1_555
C43_5 O13_5 1_555 1_555
C44_5 N4_5 1_555 1_555
H20_5 C44_5 1_555 1_555
H21_5 C44_5 1_555 1_555
H22_5 C44_5 1_555 1_555
C45_5 N4_5 1_555 1_555
H24_5 C45_5 1_555 1_555
H25_5 C45_5 1_555 1_555
C25_5 C26_5 1_555 1_555
C29_5 C30_5 1_555 1_555
C29_5 C35_5 1_555 1_555
C32_5 C33_5 1_555 1_555
C40_5 C42_5 1_555 1_555
Eu3 O1_5 1_555 1_555
O1_5 C1_5 1_555 1_555
O27_4 C1_5 1_555 1_555
O3_5 C8_5 1_555 1_555
O4_5 C12_5 1_555 1_555
O29_4 C15_5 1_555 1_555
O6_5 Eu3 1_555 1_555
O7_5 C22_5 1_555 1_555
N1_5 C6_5 1_555 1_555
N2_5 C20_5 1_555 1_555
C1_5 C2_5 1_555 1_555
C2_5 C3_5 1_555 1_555
C3_5 H1_5 1_555 1_555
C4_5 C3_5 1_555 1_555
H2_5 C4_5 1_555 1_555
C5_5 C4_5 1_555 1_555
H3_5 C5_5 1_555 1_555
C6_5 C5_5 1_555 1_555
C7_5 C2_5 1_555 1_555
H4_5 C7_5 1_555 1_555
C8_5 N1_5 1_555 1_555
C9_5 C8_5 1_555 1_555
C10_5 C9_5 1_555 1_555
C11_5 C10_5 1_555 1_555
C12_5 N1_5 1_555 1_555
C13_5 C11_5 1_555 1_555
H5_5 C13_5 1_555 1_555
C15_5 O6_5 1_555 1_555
C16_5 C15_5 1_555 1_555
C17_5 C16_5 1_555 1_555
H7_5 C17_5 1_555 1_555
C18_5 C17_5 1_555 1_555
H8_5 C18_5 1_555 1_555
C19_5 C18_5 1_555 1_555
H9_5 C19_5 1_555 1_555
C20_5 C19_5 1_555 1_555
C21_5 C16_5 1_555 1_555
H10_5 C21_5 1_555 1_555
C22_5 N2_5 1_555 1_555
O27_5 Eu3 1_555 1_555
O32_4 Eu3 1_555 1_555
O35_4 Eu3 1_555 1_555
C6_5 C7_5 1_555 1_555
C11_5 C12_5 1_555 1_555
C20_5 C21_5 1_555 1_555
O14_5 C46_5 1_555 1_555
O15_4 C46_5 1_555 1_555
O16_5 C53_5 1_555 1_555
O17_5 C57_5 1_555 1_555
N5_5 C51_5 1_555 1_555
C46_5 C47_5 1_555 1_555
C47_5 C48_5 1_555 1_555
C48_5 H26_5 1_555 1_555
C49_5 C48_5 1_555 1_555
H27_5 C49_5 1_555 1_555
C50_5 C49_5 1_555 1_555
H28_5 C50_5 1_555 1_555
C51_5 C50_5 1_555 1_555
C52_5 C47_5 1_555 1_555
H29_5 C52_5 1_555 1_555
C53_5 N5_5 1_555 1_555
C54_5 C53_5 1_555 1_555
C56_5 C55_5 1_555 1_555
C57_5 N5_5 1_555 1_555
H30_5 C58_5 1_555 1_555
Eu6 O14_5 1_555 1_555
O18_4 C60_5 1_555 1_555
O19_5 Eu6 1_555 1_555
O20_5 C67_5 1_555 1_555
N6_5 C65_5 1_555 1_555
C60_5 O19_5 1_555 1_555
C61_5 C60_5 1_555 1_555
C62_5 C61_5 1_555 1_555
H32_5 C62_5 1_555 1_555
C63_5 C62_5 1_555 1_555
H33_5 C63_5 1_555 1_555
C64_5 C63_5 1_555 1_555
H34_5 C64_5 1_555 1_555
C65_5 C64_5 1_555 1_555
C66_5 C61_5 1_555 1_555
H35_5 C66_5 1_555 1_555
C67_5 N6_5 1_555 1_555
Eu6_3 O15_4 1_555 1_555
C51_5 C52_5 1_555 1_555
C54_5 C55_5 1_555 1_555
C56_5 C57_5 1_555 1_555
C56_5 C58_5 1_555 1_555
O18_4 Eu6_3 1_555 1_555
C65_5 C66_5 1_555 1_555
H31_5 C59_5 1_555 1_555
O21_5 C68_5 1_555 1_555
O22_5 C80_5 1_555 1_555
O23_5 C79_5 1_555 1_555
O32_2 C86_5 1_555 1_555
O35 C86_5 1_555 1_555
N7_5 C79_5 1_555 1_555
N8_5 C88_5 1_555 1_555
C69_5 C68_5 1_555 1_555
C70_5 C69_5 1_555 1_555
C72_5 C71_5 1_555 1_555
H36_5 C72_5 1_555 1_555
C73_5 C72_5 1_555 1_555
H37_5 C73_5 1_555 1_555
C74_5 C73_5 1_555 1_555
C75_5 C70_5 1_555 1_555
C76_5 C75_5 1_555 1_555
C77_5 C76_5 1_555 1_555
H38_5 C77_5 1_555 1_555
C78_5 C69_5 1_555 1_555
H39_5 C78_5 1_555 1_555
C79_5 C76_5 1_555 1_555
C80_5 N7_5 1_555 1_555
C81_5 N7_5 1_555 1_555
C82_5 C81_5 1_555 1_555
H40_5 C82_5 1_555 1_555
C83_5 C82_5 1_555 1_555
H41_5 C83_5 1_555 1_555
C84_5 C83_5 1_555 1_555
H42_5 C84_5 1_555 1_555
C85_5 C84_5 1_555 1_555
C86_5 C85_5 1_555 1_555
C87_5 C81_5 1_555 1_555
H43_5 C87_5 1_555 1_555
C88_5 O26_5 1_555 1_555
C89_5 N8_5 1_555 1_555
H45_5 C89_5 1_555 1_555
H46_5 C89_5 1_555 1_555
H47_5 C89_5 1_555 1_555
C90_5 N8_5 1_555 1_555
H49_5 C90_5 1_555 1_555
H50_5 C90_5 1_555 1_555
C70_5 C71_5 1_555 1_555
C74_5 C75_5 1_555 1_555
C74_5 C80_5 1_555 1_555
C77_5 C78_5 1_555 1_555
C85_5 C87_5 1_555 1_555
Eu4 O1_6 1_555 1_555
O1_6 C1_6 1_555 1_555
O3_6 C8_6 1_555 1_555
O4_6 C12_6 1_555 1_555
O29_5 C15_6 1_555 1_555
O6_6 Eu4 1_555 1_555
O7_6 C22_6 1_555 1_555
O8_6 C23_6 1_555 1_555
O13_6 Eu4 1_555 1_555
N1_6 C6_6 1_555 1_555
N2_6 C20_6 1_555 1_555
N4_6 C43_6 1_555 1_555
C1_6 C2_6 1_555 1_555
C7_6 C2_6 1_555 1_555
H4_6 C7_6 1_555 1_555
C8_6 N1_6 1_555 1_555
C9_6 C8_6 1_555 1_555
C10_6 C9_6 1_555 1_555
C11_6 C10_6 1_555 1_555
C12_6 N1_6 1_555 1_555
C13_6 C11_6 1_555 1_555
H5_6 C13_6 1_555 1_555
C14_6 C9_6 1_555 1_555
H6_6 C14_6 1_555 1_555
C15_6 O6_6 1_555 1_555
C16_6 C15_6 1_555 1_555
C17_6 C16_6 1_555 1_555
C18_6 C17_6 1_555 1_555
C19_6 C18_6 1_555 1_555
H9_6 C19_6 1_555 1_555
C20_6 C19_6 1_555 1_555
C21_6 C16_6 1_555 1_555
H10_6 C21_6 1_555 1_555
C22_6 N2_6 1_555 1_555
C23_6 N2_6 1_555 1_555
C24_6 C23_6 1_555 1_555
C25_6 C24_6 1_555 1_555
C26_6 C22_6 1_555 1_555
C27_6 C26_6 1_555 1_555
H11_6 C27_6 1_555 1_555
C43_6 O13_6 1_555 1_555
H19_6 C43_6 1_555 1_555
C44_6 N4_6 1_555 1_555
H20_6 C44_6 1_555 1_555
H21_6 C44_6 1_555 1_555
H22_6 C44_6 1_555 1_555
C45_6 N4_6 1_555 1_555
H23_6 C45_6 1_555 1_555
H24_6 C45_6 1_555 1_555
H25_6 C45_6 1_555 1_555
O14_6 C46_6 1_555 1_555
O28 C46_6 1_555 1_555
O16_6 C53_6 1_555 1_555
O17_6 C57_6 1_555 1_555
N5_6 C51_6 1_555 1_555
C46_6 C47_6 1_555 1_555
C47_6 C48_6 1_555 1_555
C48_6 H26_6 1_555 1_555
C49_6 C48_6 1_555 1_555
H27_6 C49_6 1_555 1_555
C50_6 C49_6 1_555 1_555
H28_6 C50_6 1_555 1_555
C51_6 C50_6 1_555 1_555
C52_6 C47_6 1_555 1_555
H29_6 C52_6 1_555 1_555
C53_6 N5_6 1_555 1_555
C54_6 C53_6 1_555 1_555
C55_6 C10_6 1_555 1_555
C56_6 C55_6 1_555 1_555
C57_6 N5_6 1_555 1_555
C58_6 C14_6 1_555 1_555
H30_6 C58_6 1_555 1_555
C59_6 C13_6 1_555 1_555
H31_6 C59_6 1_555 1_555
Eu6_2 O14_6 1_555 1_555
O20_6 C67_6 1_555 1_555
O22_6 C80_6 1_555 1_555
O26_6 Eu6_2 1_555 1_555
N8_6 C88_6 1_555 1_555
C71_6 C67_6 1_555 1_555
C72_6 C71_6 1_555 1_555
H36_6 C72_6 1_555 1_555
C73_6 C72_6 1_555 1_555
H37_6 C73_6 1_555 1_555
C74_6 C73_6 1_555 1_555
C88_6 O26_6 1_555 1_555
H44_6 C88_6 1_555 1_555
C89_6 N8_6 1_555 1_555
H45_6 C89_6 1_555 1_555
H46_6 C89_6 1_555 1_555
H47_6 C89_6 1_555 1_555
C90_6 N8_6 1_555 1_555
H48_6 C90_6 1_555 1_555
H49_6 C90_6 1_555 1_555
H50_6 C90_6 1_555 1_555
O28_4 Eu6_2 1_555 1_555
O30_4 Eu6_2 1_555 1_555
C6_6 C7_6 1_555 1_555
C11_6 C12_6 1_555 1_555
C20_6 C21_6 1_555 1_555
C25_6 C26_6 1_555 1_555
C51_6 C52_6 1_555 1_555
C54_6 C55_6 1_555 1_555
C54_6 C59_6 1_555 1_555
C56_6 C57_6 1_555 1_555
C56_6 C58_6 1_555 1_555
C74_6 C75_6 1_555 1_555
C74_6 C80_6 1_555 1_555
C3_6 H1_6 1_555 1_555
C4_6 C3_6 1_555 1_555
H2_6 C4_6 1_555 1_555
C5_6 C4_6 1_555 1_555
H3_6 C5_6 1_555 1_555
O35_2 C86_6 1_555 1_555
C81_6 N7_6 1_555 1_555
C82_6 C81_6 1_555 1_555
H40_6 C82_6 1_555 1_555
C83_6 C82_6 1_555 1_555
H41_6 C83_6 1_555 1_555
C84_6 C83_6 1_555 1_555
H42_6 C84_6 1_555 1_555
C85_6 C84_6 1_555 1_555
C86_6 C85_6 1_555 1_555
C87_6 C81_6 1_555 1_555
H43_6 C87_6 1_555 1_555
C85_6 C87_6 1_555 1_555
O30 C60_6 1_555 1_555
O21_6 C68_6 1_555 1_555
N6_6 C65_6 1_555 1_555
C60_6 O19_6 1_555 1_555
C61_6 C60_6 1_555 1_555
C62_6 C61_6 1_555 1_555
H32_6 C62_6 1_555 1_555
C63_6 C62_6 1_555 1_555
H33_6 C63_6 1_555 1_555
C64_6 C63_6 1_555 1_555
H34_6 C64_6 1_555 1_555
C65_6 C64_6 1_555 1_555
C66_6 C61_6 1_555 1_555
H35_6 C66_6 1_555 1_555
C68_6 N6_6 1_555 1_555
C69_6 C68_6 1_555 1_555
C70_6 C69_6 1_555 1_555
C77_6 C76_6 1_555 1_555
H38_6 C77_6 1_555 1_555
C78_6 C69_6 1_555 1_555
H39_6 C78_6 1_555 1_555
C65_6 C66_6 1_555 1_555
C77_6 C78_6 1_555 1_555
O23_6 C79_6 1_555 1_555
Eu3_2 O24_4 1_555 1_555
O9_6 C35_6 1_555 1_555
O10_6 C34_6 1_555 1_555
O31_2 C41_6 1_555 1_555
O33_2 C41_6 1_555 1_555
N3_6 C34_6 1_555 1_555
H12_6 C28_6 1_555 1_555
C29_6 C28_6 1_555 1_555
C31_6 C30_6 1_555 1_555
C32_6 C31_6 1_555 1_555
H13_6 C32_6 1_555 1_555
C34_6 C31_6 1_555 1_555
C35_6 N3_6 1_555 1_555
C36_6 N3_6 1_555 1_555
C37_6 C36_6 1_555 1_555
H15_6 C37_6 1_555 1_555
C38_6 C37_6 1_555 1_555
H16_6 C38_6 1_555 1_555
C39_6 C38_6 1_555 1_555
H17_6 C39_6 1_555 1_555
C40_6 C39_6 1_555 1_555
C41_6 C40_6 1_555 1_555
C42_6 C36_6 1_555 1_555
H18_6 C42_6 1_555 1_555
C29_6 C30_6 1_555 1_555
C29_6 C35_6 1_555 1_555
C32_6 C33_6 1_555 1_555
C40_6 C42_6 1_555 1_555
O14_7 C46_7 1_555 1_555
O28_4 C46_7 1_555 1_555
O17_7 C57_7 1_555 1_555
C46_7 C47_7 1_555 1_555
C52_7 C47_7 1_555 1_555
H29_7 C52_7 1_555 1_555
H30_7 C58_7 1_555 1_555
Eu7_2 O14_7 1_555 1_555
O30_4 C60_7 1_555 1_555
O19_7 Eu7_2 1_555 1_555
O20_7 C67_7 1_555 1_555
N6_7 C65_7 1_555 1_555
C60_7 O19_7 1_555 1_555
C61_7 C60_7 1_555 1_555
C62_7 C61_7 1_555 1_555
H32_7 C62_7 1_555 1_555
C63_7 C62_7 1_555 1_555
H33_7 C63_7 1_555 1_555
C64_7 C63_7 1_555 1_555
H34_7 C64_7 1_555 1_555
C65_7 C64_7 1_555 1_555
C66_7 C61_7 1_555 1_555
H35_7 C66_7 1_555 1_555
C67_7 N6_7 1_555 1_555
C56_7 C57_7 1_555 1_555
C56_7 C58_7 1_555 1_555
C65_7 C66_7 1_555 1_555
O21_7 C68_7 1_555 1_555
O22_7 C80_7 1_555 1_555
O23_7 C79_7 1_555 1_555
O32_3 C86_7 1_555 1_555
O35_3 C86_7 1_555 1_555
N7_7 C79_7 1_555 1_555
N8_7 C88_7 1_555 1_555
C69_7 C68_7 1_555 1_555
C70_7 C69_7 1_555 1_555
C72_7 C71_7 1_555 1_555
H36_7 C72_7 1_555 1_555
C73_7 C72_7 1_555 1_555
H37_7 C73_7 1_555 1_555
C74_7 C73_7 1_555 1_555
C75_7 C70_7 1_555 1_555
C76_7 C75_7 1_555 1_555
C77_7 C76_7 1_555 1_555
H38_7 C77_7 1_555 1_555
C78_7 C69_7 1_555 1_555
H39_7 C78_7 1_555 1_555
C79_7 C76_7 1_555 1_555
C80_7 N7_7 1_555 1_555
C81_7 N7_7 1_555 1_555
C82_7 C81_7 1_555 1_555
H40_7 C82_7 1_555 1_555
C83_7 C82_7 1_555 1_555
H41_7 C83_7 1_555 1_555
C84_7 C83_7 1_555 1_555
H42_7 C84_7 1_555 1_555
C85_7 C84_7 1_555 1_555
C86_7 C85_7 1_555 1_555
C87_7 C81_7 1_555 1_555
H43_7 C87_7 1_555 1_555
C88_7 O26_7 1_555 1_555
C89_7 N8_7 1_555 1_555
H45_7 C89_7 1_555 1_555
H46_7 C89_7 1_555 1_555
H47_7 C89_7 1_555 1_555
C90_7 N8_7 1_555 1_555
H49_7 C90_7 1_555 1_555
H50_7 C90_7 1_555 1_555
C70_7 C71_7 1_555 1_555
C74_7 C75_7 1_555 1_555
C74_7 C80_7 1_555 1_555
C77_7 C78_7 1_555 1_555
C85_7 C87_7 1_555 1_555
O16_7 C53_7 1_555 1_555
N5_7 C51_7 1_555 1_555
C48_7 H26_7 1_555 1_555
C49_7 C48_7 1_555 1_555
H27_7 C49_7 1_555 1_555
C50_7 C49_7 1_555 1_555
H28_7 C50_7 1_555 1_555
C51_7 C50_7 1_555 1_555
C53_7 N5_7 1_555 1_555
C54_7 C53_7 1_555 1_555
C54_7 C55_7 1_555 1_555
O3_7 C8_7 1_555 1_555
N1_7 C6_7 1_555 1_555
C3_7 H1_7 1_555 1_555
C4_7 C3_7 1_555 1_555
H2_7 C4_7 1_555 1_555
C5_7 C4_7 1_555 1_555
H3_7 C5_7 1_555 1_555
C6_7 C5_7 1_555 1_555
C8_7 N1_7 1_555 1_555
C9_7 C8_7 1_555 1_555
C10_7 C9_7 1_555 1_555
O8_7 C23_7 1_555 1_555
O9_7 C35_7 1_555 1_555
O10_7 C34_7 1_555 1_555
O11_6 C41_7 1_555 1_555
O33_3 C41_7 1_555 1_555
N3_7 C34_7 1_555 1_555
N4_7 C43_7 1_555 1_555
C24_7 C23_7 1_555 1_555
C25_7 C24_7 1_555 1_555
C27_7 C26_7 1_555 1_555
H11_7 C27_7 1_555 1_555
C28_7 C27_7 1_555 1_555
H12_7 C28_7 1_555 1_555
C29_7 C28_7 1_555 1_555
C30_7 C25_7 1_555 1_555
C31_7 C30_7 1_555 1_555
C32_7 C31_7 1_555 1_555
H13_7 C32_7 1_555 1_555
C33_7 C24_7 1_555 1_555
H14_7 C33_7 1_555 1_555
C34_7 C31_7 1_555 1_555
C35_7 N3_7 1_555 1_555
C36_7 N3_7 1_555 1_555
C37_7 C36_7 1_555 1_555
H15_7 C37_7 1_555 1_555
C38_7 C37_7 1_555 1_555
H16_7 C38_7 1_555 1_555
C39_7 C38_7 1_555 1_555
H17_7 C39_7 1_555 1_555
C40_7 C39_7 1_555 1_555
C41_7 C40_7 1_555 1_555
C42_7 C36_7 1_555 1_555
H18_7 C42_7 1_555 1_555
C43_7 O13_7 1_555 1_555
C44_7 N4_7 1_555 1_555
H20_7 C44_7 1_555 1_555
H21_7 C44_7 1_555 1_555
H22_7 C44_7 1_555 1_555
C45_7 N4_7 1_555 1_555
H24_7 C45_7 1_555 1_555
H25_7 C45_7 1_555 1_555
Eu6_3 O11_6 1_555 1_555
O33_3 Eu6_3 1_555 1_555
C25_7 C26_7 1_555 1_555
C29_7 C30_7 1_555 1_555
C29_7 C35_7 1_555 1_555
C32_7 C33_7 1_555 1_555
C40_7 C42_7 1_555 1_555
Eu3_2 O1_7 1_555 1_555
O1_7 C1_7 1_555 1_555
O27_2 C1_7 1_555 1_555
O4_7 C12_7 1_555 1_555
O29_2 C15_7 1_555 1_555
O6_7 Eu3_2 1_555 1_555
O7_7 C22_7 1_555 1_555
N2_7 C20_7 1_555 1_555
C1_7 C2_7 1_555 1_555
C7_7 C2_7 1_555 1_555
H4_7 C7_7 1_555 1_555
C13_7 C11_7 1_555 1_555
H5_7 C13_7 1_555 1_555
C15_7 O6_7 1_555 1_555
C16_7 C15_7 1_555 1_555
C17_7 C16_7 1_555 1_555
H7_7 C17_7 1_555 1_555
C18_7 C17_7 1_555 1_555
H8_7 C18_7 1_555 1_555
C19_7 C18_7 1_555 1_555
H9_7 C19_7 1_555 1_555
C20_7 C19_7 1_555 1_555
C21_7 C16_7 1_555 1_555
H10_7 C21_7 1_555 1_555
C22_7 N2_7 1_555 1_555
C11_7 C12_7 1_555 1_555
C20_7 C21_7 1_555 1_555
O9_8 C35_8 1_555 1_555
O34 C41_8 1_555 1_555
H12_8 C28_8 1_555 1_555
C29_8 C28_8 1_555 1_555
C35_8 N3_8 1_555 1_555
C36_8 N3_8 1_555 1_555
C37_8 C36_8 1_555 1_555
H15_8 C37_8 1_555 1_555
C38_8 C37_8 1_555 1_555
H16_8 C38_8 1_555 1_555
C39_8 C38_8 1_555 1_555
H17_8 C39_8 1_555 1_555
C40_8 C39_8 1_555 1_555
C41_8 C40_8 1_555 1_555
C42_8 C36_8 1_555 1_555
H18_8 C42_8 1_555 1_555
C29_8 C30_8 1_555 1_555
C29_8 C35_8 1_555 1_555
C40_8 C42_8 1_555 1_555
O10_8 C34_8 1_555 1_555
C32_8 C31_8 1_555 1_555
H13_8 C32_8 1_555 1_555
C34_8 C31_8 1_555 1_555
C32_8 C33_8 1_555 1_555
Eu5 O1_8 1_555 1_555
O1_8 C1_8 1_555 1_555
O3_8 C8_8 1_555 1_555
O4_8 C12_8 1_555 1_555
O7_8 C22_8 1_555 1_555
O13_8 Eu5 1_555 1_555
N1_8 C6_8 1_555 1_555
N4_8 C43_8 1_555 1_555
C1_8 C2_8 1_555 1_555
C7_8 C2_8 1_555 1_555
H4_8 C7_8 1_555 1_555
C8_8 N1_8 1_555 1_555
C9_8 C8_8 1_555 1_555
C10_8 C9_8 1_555 1_555
C11_8 C10_8 1_555 1_555
C12_8 N1_8 1_555 1_555
C13_8 C11_8 1_555 1_555
H5_8 C13_8 1_555 1_555
C14_7 C9_8 1_555 1_555
H6_7 C14_7 1_555 1_555
C26_8 C22_8 1_555 1_555
C27_8 C26_8 1_555 1_555
H11_8 C27_8 1_555 1_555
C43_8 O13_8 1_555 1_555
H19_8 C43_8 1_555 1_555
C44_8 N4_8 1_555 1_555
H20_8 C44_8 1_555 1_555
H21_8 C44_8 1_555 1_555
H22_8 C44_8 1_555 1_555
C45_8 N4_8 1_555 1_555
H23_8 C45_8 1_555 1_555
H24_8 C45_8 1_555 1_555
H25_8 C45_8 1_555 1_555
O14_8 C46_8 1_555 1_555
O28_3 C46_8 1_555 1_555
O16_8 C53_8 1_555 1_555
O17_8 C57_8 1_555 1_555
N5_8 C51_8 1_555 1_555
C46_8 C47_8 1_555 1_555
C47_8 C48_8 1_555 1_555
C48_8 H26_8 1_555 1_555
C49_8 C48_8 1_555 1_555
H27_8 C49_8 1_555 1_555
C50_8 C49_8 1_555 1_555
H28_8 C50_8 1_555 1_555
C51_8 C50_8 1_555 1_555
C52_8 C47_8 1_555 1_555
H29_8 C52_8 1_555 1_555
C53_8 N5_8 1_555 1_555
C54_8 C53_8 1_555 1_555
C55_8 C10_8 1_555 1_555
C56_8 C55_8 1_555 1_555
C57_8 N5_8 1_555 1_555
C58_8 C14_7 1_555 1_555
H30_8 C58_8 1_555 1_555
C59_7 C13_8 1_555 1_555
H31_7 C59_7 1_555 1_555
Eu6_3 O14_8 1_555 1_555
O30_3 C60_8 1_555 1_555
O19_8 Eu6_3 1_555 1_555
O20_8 C67_8 1_555 1_555
O21_8 C68_8 1_555 1_555
O22_8 C80_8 1_555 1_555
O26_8 Eu6_3 1_555 1_555
N6_8 C65_8 1_555 1_555
N8_8 C88_8 1_555 1_555
C60_8 O19_8 1_555 1_555
C61_8 C60_8 1_555 1_555
C62_8 C61_8 1_555 1_555
H32_8 C62_8 1_555 1_555
C63_8 C62_8 1_555 1_555
H33_8 C63_8 1_555 1_555
C64_8 C63_8 1_555 1_555
H34_8 C64_8 1_555 1_555
C65_8 C64_8 1_555 1_555
C66_8 C61_8 1_555 1_555
H35_8 C66_8 1_555 1_555
C67_8 N6_8 1_555 1_555
C68_8 N6_8 1_555 1_555
C69_8 C68_8 1_555 1_555
C70_8 C69_8 1_555 1_555
C71_8 C67_8 1_555 1_555
C72_8 C71_8 1_555 1_555
H36_8 C72_8 1_555 1_555
C73_8 C72_8 1_555 1_555
H37_8 C73_8 1_555 1_555
C74_8 C73_8 1_555 1_555
C75_8 C70_8 1_555 1_555
C76_8 C75_8 1_555 1_555
C77_8 C76_8 1_555 1_555
H38_8 C77_8 1_555 1_555
C78_8 C69_8 1_555 1_555
H39_8 C78_8 1_555 1_555
C88_8 O26_8 1_555 1_555
H44_8 C88_8 1_555 1_555
C89_8 N8_8 1_555 1_555
H45_8 C89_8 1_555 1_555
H46_8 C89_8 1_555 1_555
H47_8 C89_8 1_555 1_555
C90_8 N8_8 1_555 1_555
H48_8 C90_8 1_555 1_555
H49_8 C90_8 1_555 1_555
H50_8 C90_8 1_555 1_555
C6_8 C7_8 1_555 1_555
C11_8 C12_8 1_555 1_555
C51_8 C52_8 1_555 1_555
C54_8 C55_8 1_555 1_555
C54_8 C59_7 1_555 1_555
C56_8 C57_8 1_555 1_555
C56_8 C58_8 1_555 1_555
C65_8 C66_8 1_555 1_555
C70_8 C71_8 1_555 1_555
C74_8 C75_8 1_555 1_555
C74_8 C80_8 1_555 1_555
C77_8 C78_8 1_555 1_555
C3_8 H1_8 1_555 1_555
C4_8 C3_8 1_555 1_555
H2_8 C4_8 1_555 1_555
C5_8 C4_8 1_555 1_555
H3_8 C5_8 1_555 1_555
O23_8 C79_8 1_555 1_555
O32_4 C86_8 1_555 1_555
O35_4 C86_8 1_555 1_555
N7_8 C79_8 1_555 1_555
C81_8 N7_8 1_555 1_555
C82_8 C81_8 1_555 1_555
H40_8 C82_8 1_555 1_555
C83_8 C82_8 1_555 1_555
H41_8 C83_8 1_555 1_555
C84_8 C83_8 1_555 1_555
H42_8 C84_8 1_555 1_555
C85_8 C84_8 1_555 1_555
C86_8 C85_8 1_555 1_555
C87_8 C81_8 1_555 1_555
H43_8 C87_8 1_555 1_555
C85_8 C87_8 1_555 1_555
O29_6 C15_8 1_555 1_555
O8_8 C23_8 1_555 1_555
N2_8 C20_8 1_555 1_555
C15_8 O6_8 1_555 1_555
C16_8 C15_8 1_555 1_555
C17_8 C16_8 1_555 1_555
C18_8 C17_8 1_555 1_555
C19_8 C18_8 1_555 1_555
H9_8 C19_8 1_555 1_555
C20_8 C19_8 1_555 1_555
C21_8 C16_8 1_555 1_555
H10_8 C21_8 1_555 1_555
C23_8 N2_8 1_555 1_555
C24_8 C23_8 1_555 1_555
C25_8 C24_8 1_555 1_555
C20_8 C21_8 1_555 1_555
H31_8 C59_8 1_555 1_555
H6_8 C14_8 1_555 1_555

#END
