
###############################################################################
#
# This file contains modified crystal structure data generated from the
# MOF subset of the Cambridge Structural Database (CSD) v543 
# hosted by the Cambridge Crystallographic Data Centre (CCDC).
#
# This work is licensed under the Creative Commons
# Attribution-NonCommercial-ShareAlike 4.0 International License.
# To view a copy of this license, visit
# http://creativecommons.org/licenses/by-nc-sa/4.0/
# or send a letter to
# Creative Commons, PO Box 1866, Mountain View, CA 94042, USA.
#
# CIF created using the CSD Python API on 29 September 2022
# The structure has been converted into the P1 space group
# The structure has a 3D framework
# The original CSD entry LEKBUB is in the monoclinic crystal system
# The framework has been calculated to contain at least 10.0% void space
# The void calculation uses a probe of radius 1.32A, grid spacing 0.4
#
###############################################################################

data_LEKBUB
_chemical_formula_moiety         '(C162 H150 Br4 Mn7 N28 O22 Rh2)n'
_symmetry_cell_setting           triclinic
_symmetry_space_group_name_H-M   'P 1'
_symmetry_Int_Tables_number      1
_space_group_name_Hall           'P 1'
loop_
_symmetry_equiv_pos_site_id
_symmetry_equiv_pos_as_xyz
1 x,y,z
_cell_length_a                   12.4308(13)
_cell_length_b                   33.598(2)
_cell_length_c                   12.9366(9)
_cell_angle_alpha                90
_cell_angle_beta                 99.737(7)
_cell_angle_gamma                90
_cell_volume                     5325.14
loop_
_atom_site_label
_atom_site_type_symbol
_atom_site_fract_x
_atom_site_fract_y
_atom_site_fract_z
Br1 Br 0.38611(11) 0.2500 0.85134(8)
Br1_2 Br 0.61389(11) 0.7500 0.14866(8)
Mn1 Mn 0.0000 0.0000 0.5000
O10 O 0.0526(3) 0.12051(11) 0.6013(3)
O11 O 0.0253(3) 0.05560(10) 0.5981(3)
Mn7 Mn 0.0000 0.5000 0.5000
Mn11 Mn 0.19824(6) 0.06934(2) 0.60857(6)
O17 O 0.1057(4) 0.02299(11) 0.3979(3)
Mn1_2 Mn 0.0000 1.0000 0.5000
O21 O 0.1306(3) 0.97249(11) 0.5999(3)
H64 H 0.3404 0.1498 0.0600
C73 C 0.1894(5) 0.08095(16) 0.0605(4)
C74 C 0.1768(7) 0.1099(2) 0.1322(5)
H69 H 0.1787 0.1370 0.1113
C75 C 0.1620(6) 0.10189(18) 0.2310(5)
H70 H 0.1533 0.1235 0.2762
C76 C 0.1590(5) 0.06388(15) 0.2688(4)
C77 C 0.1749(6) 0.03368(19) 0.1994(5)
H71 H 0.1733 0.0068 0.2218
C78 C 0.1932(6) 0.04171(19) 0.0975(5)
H72 H 0.2083 0.0205 0.0535
C79 C 0.1467(4) 0.05536(16) 0.3790(4)
O13 O 0.1821(3) 0.08111(11) 0.4457(3)
Rh1 Rh 0.27003(5) 0.2500 0.30876(5)
Br2 Br 0.13563(10) 0.2500 0.11597(10)
Mn1_3 Mn 1.0000 0.0000 0.5000
C2 C 0.4063(7) 0.2500 0.1261(6)
H3 H 0.4487 0.2500 0.0678
H4 H 0.3277 0.2500 0.0958
N5 N 0.4332(4) 0.21459(11) 0.1917(3)
N6 N 0.3738(4) 0.20744(12) 0.2692(3)
C27 C 0.4154(5) 0.17320(15) 0.3140(4)
C28 C 0.4996(5) 0.15956(16) 0.2641(4)
C29 C 0.5115(4) 0.18690(15) 0.1874(4)
C30 C 0.5892(5) 0.18821(17) 0.1131(5)
H25 H 0.5520 0.1981 0.0451
H26 H 0.6173 0.1614 0.1044
H27 H 0.6499 0.2060 0.1403
C31 C 0.3789(6) 0.15498(17) 0.4090(5)
H28 H 0.4301 0.1624 0.4722
H29 H 0.3771 0.1259 0.4020
H30 H 0.3058 0.1647 0.4145
C32 C 0.5672(5) 0.12339(14) 0.2892(4)
C33 C 0.5237(5) 0.08536(15) 0.2746(5)
H31 H 0.4480 0.0820 0.2490
C34 C 0.5893(5) 0.05242(16) 0.2970(4)
H32 H 0.5584 0.0267 0.2844
C35 C 0.6998(5) 0.05599(15) 0.3378(4)
C36 C 0.7433(5) 0.09385(17) 0.3500(5)
H33 H 0.8191 0.0972 0.3749
C37 C 0.6767(5) 0.12716(17) 0.3262(6)
H34 H 0.7080 0.1530 0.3358
C38 C 0.7711(5) 0.02017(16) 0.3682(4)
O6 O 0.8694(3) 0.02751(11) 0.4001(3)
C39 C 0.3606(10) 0.2500 0.4566(8)
O7 O 0.4580(7) 0.2500 0.4691(6)
C40 C 0.2948(10) 0.2500 0.5441(8)
H35 H 0.2169 0.2500 0.5145
H36 H 0.3124 0.2262 0.5874
N7 N 0.1579(4) 0.20871(14) 0.3424(4)
C41 C 0.0936(6) 0.1924(2) 0.3585(6)
H39 H 0.0239 0.1460 0.4258
H40 H 0.3124 0.2738 0.5874
N8 N 0.4332(4) 0.28541(11) 0.1917(3)
N9 N 0.3738(4) 0.29256(12) 0.2692(3)
C43 C 0.4154(5) 0.32680(15) 0.3140(4)
C44 C 0.4996(5) 0.34044(16) 0.2641(4)
C45 C 0.5115(4) 0.31310(15) 0.1874(4)
C46 C 0.5892(5) 0.31179(17) 0.1131(5)
H41 H 0.5520 0.3019 0.0451
H42 H 0.6173 0.3386 0.1044
H43 H 0.6499 0.2940 0.1403
C47 C 0.3789(6) 0.34502(17) 0.4090(5)
H44 H 0.4301 0.3376 0.4722
H45 H 0.3771 0.3741 0.4020
H46 H 0.3058 0.3353 0.4145
C48 C 0.5672(5) 0.37661(14) 0.2892(4)
C49 C 0.5237(5) 0.41464(15) 0.2746(5)
H47 H 0.4480 0.4180 0.2490
C50 C 0.5893(5) 0.44758(16) 0.2970(4)
H48 H 0.5584 0.4733 0.2844
C51 C 0.6998(5) 0.44401(15) 0.3378(4)
C52 C 0.7433(5) 0.40615(17) 0.3500(5)
H49 H 0.8191 0.4028 0.3749
C53 C 0.6767(5) 0.37284(17) 0.3262(6)
H50 H 0.7080 0.3470 0.3358
C54 C 0.7711(5) 0.47983(16) 0.3682(4)
O8 O 0.7279(3) 0.51335(10) 0.3571(3)
O9 O 0.8694(3) 0.47249(11) 0.4001(3)
C55 C 0.2991(4) 0.14697(14) 0.7473(4)
H51 H 0.3249 0.1719 0.7840
H52 H 0.2378 0.1537 0.6907
N10 N 0.3592(3) 0.09941(12) 0.6311(3)
N11 N 0.3870(3) 0.12952(12) 0.7021(3)
C56 C 0.4969(4) 0.13667(16) 0.7185(4)
C57 C 0.5413(4) 0.10976(16) 0.6556(4)
C58 C 0.4534(4) 0.08665(15) 0.6042(4)
C59 C 0.4558(5) 0.05412(16) 0.5279(5)
H53 H 0.3889 0.0549 0.4755
H54 H 0.5193 0.0574 0.4929
H55 H 0.4607 0.0285 0.5646
C60 C 0.5513(5) 0.1661(2) 0.7951(6)
H56 H 0.5324 0.1607 0.8643
H57 H 0.6306 0.1642 0.7991
H58 H 0.5269 0.1930 0.7725
C61 C 0.6560(4) 0.10599(16) 0.6441(4)
C62 C 0.7183(5) 0.13910(18) 0.6252(5)
H59 H 0.6864 0.1649 0.6209
C63 C 0.8268(5) 0.13440(17) 0.6127(5)
H60 H 0.8684 0.1571 0.6006
C64 C 0.8751(4) 0.09674(16) 0.6176(4)
C65 C 0.8127(4) 0.06390(16) 0.6357(4)
H61 H 0.8436 0.0380 0.6383
C66 C 0.7054(4) 0.06890(16) 0.6498(4)
H62 H 0.6646 0.0462 0.6639
C67 C 0.9896(4) 0.09123(16) 0.6038(4)
N12 N 0.2079(3) 0.08618(12) 0.7805(3)
N13 N 0.2608(3) 0.11998(12) 0.8209(3)
C68 C 0.2610(4) 0.12300(16) 0.9239(4)
C69 C 0.2088(5) 0.09012(16) 0.9543(4)
C70 C 0.1759(4) 0.06785(15) 0.8617(4)
C71 C 0.3170(7) 0.1579(2) 0.9870(5)
H63 H 0.2657 0.1802 0.9843
H65 H 0.3807 0.1663 0.9570
C72 C 0.1152(6) 0.02907(18) 0.8464(5)
H66 H 0.1664 0.0070 0.8649
H67 H 0.0593 0.0284 0.8914
H68 H 0.0804 0.0265 0.7729
N14 N 0.1579(4) 0.29129(14) 0.3424(4)
C80 C 0.0936(6) 0.3076(2) 0.3585(6)
H75 H 0.0239 0.3540 0.4258
Mn7_2 Mn 1.0000 0.5000 0.5000
Mn12 Mn 0.80176(6) 0.56934(2) 0.39143(6)
O20 O 0.2721(3) 0.01335(10) 0.6429(3)
C1 C 0.7009(4) 0.85303(14) 0.2527(4)
H1 H 0.6751 0.8281 0.2160
H2 H 0.7622 0.8463 0.3093
Mn1_4 Mn 1.0000 1.0000 0.5000
Mn2 Mn 0.80176(6) 0.93066(2) 0.39143(6)
N1 N 0.6408(3) 0.90059(12) 0.3689(3)
N2 N 0.6130(3) 0.87048(12) 0.2979(3)
C3 C 0.5031(4) 0.86333(16) 0.2815(4)
C4 C 0.4587(4) 0.89024(16) 0.3444(4)
C5 C 0.5466(4) 0.91335(15) 0.3958(4)
C6 C 0.5442(5) 0.94588(16) 0.4721(5)
H5 H 0.6111 0.9451 0.5245
H6 H 0.4807 0.9426 0.5071
H7 H 0.5393 0.9715 0.4354
C7 C 0.4487(5) 0.8339(2) 0.2049(6)
H8 H 0.4676 0.8393 0.1357
H9 H 0.3694 0.8358 0.2009
H10 H 0.4731 0.8070 0.2275
C8 C 0.3440(4) 0.89401(16) 0.3559(4)
C9 C 0.2817(5) 0.86090(18) 0.3748(5)
H11 H 0.3136 0.8351 0.3791
C10 C 0.1732(5) 0.86560(17) 0.3873(5)
H12 H 0.1316 0.8429 0.3994
C11 C 0.1249(4) 0.90326(16) 0.3824(4)
C12 C 0.1873(4) 0.93610(16) 0.3643(4)
H13 H 0.1564 0.9620 0.3617
C13 C 0.2946(4) 0.93110(16) 0.3502(4)
H14 H 0.3354 0.9538 0.3361
C14 C 0.0104(4) 0.90877(16) 0.3962(4)
N3 N 0.7921(3) 0.91382(12) 0.2195(3)
N4 N 0.7392(3) 0.88002(12) 0.1791(3)
C15 C 0.7390(4) 0.87700(16) 0.0761(4)
C16 C 0.7912(5) 0.90988(16) 0.0457(4)
C17 C 0.8241(4) 0.93215(15) 0.1383(4)
C18 C 0.6830(7) 0.8421(2) 0.0130(5)
H15 H 0.7343 0.8198 0.0157
H17 H 0.6193 0.8337 0.0430
C19 C 0.8848(6) 0.97093(18) 0.1536(5)
H18 H 0.8336 0.9930 0.1351
H19 H 0.9407 0.9716 0.1086
H20 H 0.9196 0.9735 0.2271
O5 O 0.7279(3) 0.98665(10) 0.3571(3)
O14 O 0.9747(3) 0.94440(10) 0.4019(3)
O16 O 0.8943(4) 0.97701(11) 0.6021(3)
O18 O 0.8179(3) 0.91889(11) 0.5543(3)
H16 H 0.6596 0.8502 0.9400
C20 C 0.8106(5) 0.91905(16) 0.9395(4)
C21 C 0.8232(7) 0.8901(2) 0.8678(5)
H21 H 0.8213 0.8630 0.8887
C22 C 0.8380(6) 0.89811(18) 0.7690(5)
H22 H 0.8467 0.8765 0.7238
C23 C 0.8410(5) 0.93612(15) 0.7312(4)
C24 C 0.8251(6) 0.96632(19) 0.8006(5)
H23 H 0.8267 0.9932 0.7782
C25 C 0.8068(6) 0.95829(19) 0.9025(5)
H24 H 0.7917 0.9795 0.9465
C26 C 0.8533(4) 0.94464(16) 0.6210(4)
C42 C 0.9979(7) 0.1681(3) 0.3786(8)
H37 H 0.9591 0.1575 0.3121
H38 H 0.9485 0.1848 0.4111
C81 C 0.9979(7) 0.3319(3) 0.3786(8)
H73 H 0.9591 0.3425 0.3121
H74 H 0.9485 0.3152 0.4111
O1 O 0.9474(3) 0.87949(11) 0.3987(3)
O1_2 O 0.0526(3) 0.37949(11) 0.6013(3)
O2 O 0.0253(3) 0.44440(10) 0.5981(3)
C42_2 C 0.0021(7) 0.6681(3) 0.6214(8)
H37_2 H 0.0409 0.6575 0.6879
H38_2 H 0.0515 0.6848 0.5889
C81_2 C 0.0021(7) 0.8319(3) 0.6214(8)
H73_2 H 0.0409 0.8425 0.6879
H74_2 H 0.0515 0.8152 0.5889
Mn8 Mn 0.19824(6) 0.43066(2) 0.60857(6)
H16_2 H 0.3404 0.3502 0.0600
C20_2 C 0.1894(5) 0.41905(16) 0.0605(4)
C21_2 C 0.1768(7) 0.3901(2) 0.1322(5)
H21_2 H 0.1787 0.3630 0.1113
C22_2 C 0.1620(6) 0.39811(18) 0.2310(5)
H22_2 H 0.1533 0.3765 0.2762
C23_2 C 0.1590(5) 0.43612(15) 0.2688(4)
C24_2 C 0.1749(6) 0.46632(19) 0.1994(5)
H23_2 H 0.1733 0.4932 0.2218
C25_2 C 0.1932(6) 0.45829(19) 0.0975(5)
H24_2 H 0.2083 0.4795 0.0535
C26_2 C 0.1467(4) 0.44464(16) 0.3790(4)
O3 O 0.1057(4) 0.47701(11) 0.3979(3)
O4 O 0.1821(3) 0.41889(11) 0.4457(3)
Rh1_2 Rh 0.72997(5) 0.7500 0.69124(5)
Br2_2 Br 0.86437(10) 0.7500 0.88403(10)
C1_2 C 0.2991(4) 0.35303(14) 0.7473(4)
H1_2 H 0.3249 0.3281 0.7840
H2_2 H 0.2378 0.3463 0.6907
C2_2 C 0.5937(7) 0.7500 0.8739(6)
H3_2 H 0.5513 0.7500 0.9322
H4_2 H 0.6723 0.7500 0.9042
N1_2 N 0.3592(3) 0.40059(12) 0.6311(3)
N2_2 N 0.3870(3) 0.37048(12) 0.7021(3)
C3_2 C 0.4969(4) 0.36333(16) 0.7185(4)
C4_2 C 0.5413(4) 0.39024(16) 0.6556(4)
C5_2 C 0.4534(4) 0.41335(15) 0.6042(4)
C6_2 C 0.4558(5) 0.44588(16) 0.5279(5)
H5_2 H 0.3889 0.4451 0.4755
H6_2 H 0.5193 0.4426 0.4929
H7_2 H 0.4607 0.4715 0.5646
C7_2 C 0.5513(5) 0.3339(2) 0.7951(6)
H8_2 H 0.5324 0.3393 0.8643
H9_2 H 0.6306 0.3358 0.7991
H10_2 H 0.5269 0.3070 0.7725
C8_2 C 0.6560(4) 0.39401(16) 0.6441(4)
C9_2 C 0.7183(5) 0.36090(18) 0.6252(5)
H11_2 H 0.6864 0.3351 0.6209
C10_2 C 0.8268(5) 0.36560(17) 0.6127(5)
H12_2 H 0.8684 0.3429 0.6006
C11_2 C 0.8751(4) 0.40326(16) 0.6176(4)
C12_2 C 0.8127(4) 0.43610(16) 0.6357(4)
H13_2 H 0.8436 0.4620 0.6383
C13_2 C 0.7054(4) 0.43110(16) 0.6498(4)
H14_2 H 0.6646 0.4538 0.6639
C14_2 C 0.9896(4) 0.40877(16) 0.6038(4)
N3_2 N 0.2079(3) 0.41382(12) 0.7805(3)
N4_2 N 0.2608(3) 0.38002(12) 0.8209(3)
C15_2 C 0.2610(4) 0.37700(16) 0.9239(4)
C16_2 C 0.2088(5) 0.40988(16) 0.9543(4)
C17_2 C 0.1759(4) 0.43215(15) 0.8617(4)
C18_2 C 0.3170(7) 0.3421(2) 0.9870(5)
H15_2 H 0.2657 0.3198 0.9843
H17_2 H 0.3807 0.3337 0.9570
C19_2 C 0.1152(6) 0.47093(18) 0.8464(5)
H18_2 H 0.1664 0.4930 0.8649
H19_2 H 0.0593 0.4716 0.8914
H20_2 H 0.0804 0.4735 0.7729
N5_2 N 0.5668(4) 0.71459(11) 0.8083(3)
N6_2 N 0.6262(4) 0.70744(12) 0.7308(3)
C27_2 C 0.5846(5) 0.67320(15) 0.6860(4)
C28_2 C 0.5004(5) 0.65956(16) 0.7359(4)
C29_2 C 0.4885(4) 0.68690(15) 0.8126(4)
C30_2 C 0.4108(5) 0.68821(17) 0.8869(5)
H25_2 H 0.4480 0.6981 0.9549
H26_2 H 0.3827 0.6614 0.8956
H27_2 H 0.3501 0.7060 0.8597
C31_2 C 0.6211(6) 0.65498(17) 0.5910(5)
H28_2 H 0.5699 0.6624 0.5278
H29_2 H 0.6229 0.6259 0.5980
H30_2 H 0.6942 0.6647 0.5855
C32_2 C 0.4328(5) 0.62339(14) 0.7108(4)
C33_2 C 0.4763(5) 0.58536(15) 0.7254(5)
H31_2 H 0.5520 0.5820 0.7510
C34_2 C 0.4107(5) 0.55242(16) 0.7030(4)
H32_2 H 0.4416 0.5267 0.7156
C35_2 C 0.3002(5) 0.55599(15) 0.6622(4)
C36_2 C 0.2567(5) 0.59385(17) 0.6500(5)
H33_2 H 0.1809 0.5972 0.6251
C37_2 C 0.3233(5) 0.62716(17) 0.6738(6)
H34_2 H 0.2920 0.6530 0.6642
C38_2 C 0.2289(5) 0.52017(16) 0.6318(4)
O5_2 O 0.2721(3) 0.48665(10) 0.6429(3)
O6_2 O 0.1306(3) 0.52751(11) 0.5999(3)
C39_2 C 0.6394(10) 0.7500 0.5434(8)
O7_2 O 0.5420(7) 0.7500 0.5309(6)
C40_2 C 0.7052(10) 0.7500 0.4559(8)
H35_2 H 0.7831 0.7500 0.4855
H36_2 H 0.6876 0.7262 0.4126
N7_2 N 0.8421(4) 0.70871(14) 0.6576(4)
C41_2 C 0.9064(6) 0.6924(2) 0.6415(6)
H39_2 H 0.9761 0.6460 0.5742
H40_2 H 0.6876 0.7738 0.4126
N8_2 N 0.5668(4) 0.78541(11) 0.8083(3)
N9_2 N 0.6262(4) 0.79256(12) 0.7308(3)
C43_2 C 0.5846(5) 0.82680(15) 0.6860(4)
C44_2 C 0.5004(5) 0.84044(16) 0.7359(4)
C45_2 C 0.4885(4) 0.81310(15) 0.8126(4)
C46_2 C 0.4108(5) 0.81179(17) 0.8869(5)
H41_2 H 0.4480 0.8019 0.9549
H42_2 H 0.3827 0.8386 0.8956
H43_2 H 0.3501 0.7940 0.8597
C47_2 C 0.6211(6) 0.84502(17) 0.5910(5)
H44_2 H 0.5699 0.8376 0.5278
H45_2 H 0.6229 0.8741 0.5980
H46_2 H 0.6942 0.8353 0.5855
C48_2 C 0.4328(5) 0.87661(14) 0.7108(4)
C49_2 C 0.4763(5) 0.91464(15) 0.7254(5)
H47_2 H 0.5520 0.9180 0.7510
C50_2 C 0.4107(5) 0.94758(16) 0.7030(4)
H48_2 H 0.4416 0.9733 0.7156
C51_2 C 0.3002(5) 0.94401(15) 0.6622(4)
C52_2 C 0.2567(5) 0.90615(17) 0.6500(5)
H49_2 H 0.1809 0.9028 0.6251
C53_2 C 0.3233(5) 0.87284(17) 0.6738(6)
H50_2 H 0.2920 0.8470 0.6642
C54_2 C 0.2289(5) 0.97983(16) 0.6318(4)
C55_2 C 0.7009(4) 0.64697(14) 0.2527(4)
H51_2 H 0.6751 0.6719 0.2160
H52_2 H 0.7622 0.6537 0.3093
N10_2 N 0.6408(3) 0.59941(12) 0.3689(3)
N11_2 N 0.6130(3) 0.62952(12) 0.2979(3)
C56_2 C 0.5031(4) 0.63667(16) 0.2815(4)
C57_2 C 0.4587(4) 0.60976(16) 0.3444(4)
C58_2 C 0.5466(4) 0.58665(15) 0.3958(4)
C59_2 C 0.5442(5) 0.55412(16) 0.4721(5)
H53_2 H 0.6111 0.5549 0.5245
H54_2 H 0.4807 0.5574 0.5071
H55_2 H 0.5393 0.5285 0.4354
C60_2 C 0.4487(5) 0.6661(2) 0.2049(6)
H56_2 H 0.4676 0.6607 0.1357
H57_2 H 0.3694 0.6642 0.2009
H58_2 H 0.4731 0.6930 0.2275
C61_2 C 0.3440(4) 0.60599(16) 0.3559(4)
C62_2 C 0.2817(5) 0.63910(18) 0.3748(5)
H59_2 H 0.3136 0.6649 0.3791
C63_2 C 0.1732(5) 0.63440(17) 0.3873(5)
H60_2 H 0.1316 0.6571 0.3994
C64_2 C 0.1249(4) 0.59674(16) 0.3824(4)
C65_2 C 0.1873(4) 0.56390(16) 0.3643(4)
H61_2 H 0.1564 0.5380 0.3617
C66_2 C 0.2946(4) 0.56890(16) 0.3502(4)
H62_2 H 0.3354 0.5462 0.3361
C67_2 C 0.0104(4) 0.59123(16) 0.3962(4)
N12_2 N 0.7921(3) 0.58618(12) 0.2195(3)
N13_2 N 0.7392(3) 0.61998(12) 0.1791(3)
C68_2 C 0.7390(4) 0.62300(16) 0.0761(4)
C69_2 C 0.7912(5) 0.59012(16) 0.0457(4)
C70_2 C 0.8241(4) 0.56785(15) 0.1383(4)
C71_2 C 0.6830(7) 0.6579(2) 0.0130(5)
H63_2 H 0.7343 0.6802 0.0157
H65_2 H 0.6193 0.6663 0.0430
C72_2 C 0.8848(6) 0.52907(18) 0.1536(5)
H66_2 H 0.8336 0.5070 0.1351
H67_2 H 0.9407 0.5284 0.1086
H68_2 H 0.9196 0.5265 0.2271
N14_2 N 0.8421(4) 0.79129(14) 0.6576(4)
C80_2 C 0.9064(6) 0.8076(2) 0.6415(6)
H75_2 H 0.9761 0.8540 0.5742
O15 O 0.9747(3) 0.55560(10) 0.4019(3)
O19 O 0.8179(3) 0.58111(11) 0.5543(3)
H64_2 H 0.6596 0.6498 0.9400
C73_2 C 0.8106(5) 0.58095(16) 0.9395(4)
C74_2 C 0.8232(7) 0.6099(2) 0.8678(5)
H69_2 H 0.8213 0.6370 0.8887
C75_2 C 0.8380(6) 0.60189(18) 0.7690(5)
H70_2 H 0.8467 0.6235 0.7238
C76_2 C 0.8410(5) 0.56388(15) 0.7312(4)
C77_2 C 0.8251(6) 0.53368(19) 0.8006(5)
H71_2 H 0.8267 0.5068 0.7782
C78_2 C 0.8068(6) 0.54171(19) 0.9025(5)
H72_2 H 0.7917 0.5205 0.9465
C79_2 C 0.8533(4) 0.55536(16) 0.6210(4)
O12 O 0.8943(4) 0.52299(11) 0.6021(3)
O10_2 O 0.9474(3) 0.62051(11) 0.3987(3)
loop_
_geom_bond_atom_site_label_1
_geom_bond_atom_site_label_2
_geom_bond_site_symmetry_1
_geom_bond_site_symmetry_2
O11 Mn1 1_555 1_555
Mn11 O11 1_555 1_555
O17 Mn1 1_555 1_555
O21 Mn1_2 1_555 1_555
C74 C73 1_555 1_555
H69 C74 1_555 1_555
C75 C74 1_555 1_555
H70 C75 1_555 1_555
C76 C75 1_555 1_555
C77 C76 1_555 1_555
H71 C77 1_555 1_555
C78 C73 1_555 1_555
H72 C78 1_555 1_555
C79 C76 1_555 1_555
O17 C79 1_555 1_555
O13 C79 1_555 1_555
Mn11 O13 1_555 1_555
C77 C78 1_555 1_555
Rh1 Br2 1_555 1_555
Mn1_3 O6 1_555 1_555
C2 H3 1_555 1_555
H4 C2 1_555 1_555
N5 C2 1_555 1_555
N6 Rh1 1_555 1_555
C27 N6 1_555 1_555
C28 C27 1_555 1_555
C29 N5 1_555 1_555
C30 C29 1_555 1_555
H25 C30 1_555 1_555
H26 C30 1_555 1_555
H27 C30 1_555 1_555
C31 C27 1_555 1_555
H28 C31 1_555 1_555
H29 C31 1_555 1_555
H30 C31 1_555 1_555
C32 C28 1_555 1_555
C33 C32 1_555 1_555
H31 C33 1_555 1_555
C34 C33 1_555 1_555
H32 C34 1_555 1_555
C35 C34 1_555 1_555
C36 C35 1_555 1_555
H33 C36 1_555 1_555
C37 C32 1_555 1_555
H34 C37 1_555 1_555
C38 C35 1_555 1_555
O6 C38 1_555 1_555
C39 Rh1 1_555 1_555
O7 C39 1_555 1_555
C40 C39 1_555 1_555
H35 C40 1_555 1_555
H36 C40 1_555 1_555
N7 Rh1 1_555 1_555
C41 N7 1_555 1_555
H40 C40 1_555 1_555
N8 C2 1_555 1_555
N9 Rh1 1_555 1_555
C43 N9 1_555 1_555
C44 C43 1_555 1_555
C45 N8 1_555 1_555
C46 C45 1_555 1_555
H41 C46 1_555 1_555
H42 C46 1_555 1_555
H43 C46 1_555 1_555
C47 C43 1_555 1_555
H44 C47 1_555 1_555
H45 C47 1_555 1_555
H46 C47 1_555 1_555
C48 C44 1_555 1_555
C49 C48 1_555 1_555
H47 C49 1_555 1_555
C50 C49 1_555 1_555
H48 C50 1_555 1_555
C51 C50 1_555 1_555
C52 C51 1_555 1_555
H49 C52 1_555 1_555
C53 C48 1_555 1_555
H50 C53 1_555 1_555
C54 C51 1_555 1_555
O8 C54 1_555 1_555
O9 C54 1_555 1_555
C55 H51 1_555 1_555
H52 C55 1_555 1_555
Mn11 N10 1_555 1_555
N10 N11 1_555 1_555
N11 C55 1_555 1_555
C56 N11 1_555 1_555
C57 C56 1_555 1_555
C58 N10 1_555 1_555
C59 C58 1_555 1_555
H53 C59 1_555 1_555
H54 C59 1_555 1_555
H55 C59 1_555 1_555
C60 C56 1_555 1_555
H56 C60 1_555 1_555
H57 C60 1_555 1_555
H58 C60 1_555 1_555
C61 C57 1_555 1_555
C62 C61 1_555 1_555
H59 C62 1_555 1_555
C63 C62 1_555 1_555
H60 C63 1_555 1_555
C64 C63 1_555 1_555
C65 C64 1_555 1_555
H61 C65 1_555 1_555
C66 C61 1_555 1_555
H62 C66 1_555 1_555
C67 C64 1_555 1_555
N12 Mn11 1_555 1_555
N13 C55 1_555 1_555
C68 N13 1_555 1_555
C69 C68 1_555 1_555
C70 N12 1_555 1_555
C71 C68 1_555 1_555
H63 C71 1_555 1_555
H65 C71 1_555 1_555
C72 C70 1_555 1_555
H66 C72 1_555 1_555
H67 C72 1_555 1_555
H68 C72 1_555 1_555
N14 Rh1 1_555 1_555
C80 N14 1_555 1_555
Mn7_2 O9 1_555 1_555
Mn12 O8 1_555 1_555
O20 Mn11 1_555 1_555
N5 N6 1_555 1_555
C28 C29 1_555 1_555
C36 C37 1_555 1_555
N8 N9 1_555 1_555
C44 C45 1_555 1_555
C52 C53 1_555 1_555
C57 C58 1_555 1_555
C65 C66 1_555 1_555
N12 N13 1_555 1_555
C69 C70 1_555 1_555
C1 H1 1_555 1_555
H2 C1 1_555 1_555
Mn2 N1 1_555 1_555
N1 N2 1_555 1_555
N2 C1 1_555 1_555
C3 N2 1_555 1_555
C4 C3 1_555 1_555
C5 N1 1_555 1_555
C6 C5 1_555 1_555
H5 C6 1_555 1_555
H6 C6 1_555 1_555
H7 C6 1_555 1_555
C7 C3 1_555 1_555
H8 C7 1_555 1_555
H9 C7 1_555 1_555
H10 C7 1_555 1_555
C8 C4 1_555 1_555
C9 C8 1_555 1_555
H11 C9 1_555 1_555
C10 C9 1_555 1_555
H12 C10 1_555 1_555
C11 C10 1_555 1_555
C12 C11 1_555 1_555
H13 C12 1_555 1_555
C13 C8 1_555 1_555
H14 C13 1_555 1_555
C14 C11 1_555 1_555
N3 Mn2 1_555 1_555
N4 C1 1_555 1_555
C15 N4 1_555 1_555
C16 C15 1_555 1_555
C17 N3 1_555 1_555
C18 C15 1_555 1_555
H15 C18 1_555 1_555
H17 C18 1_555 1_555
C19 C17 1_555 1_555
H18 C19 1_555 1_555
H19 C19 1_555 1_555
H20 C19 1_555 1_555
O5 Mn2 1_555 1_555
O14 Mn1_4 1_555 1_555
O16 Mn1_4 1_555 1_555
O18 Mn2 1_555 1_555
Mn2 O14 1_555 1_555
C4 C5 1_555 1_555
C12 C13 1_555 1_555
N3 N4 1_555 1_555
C16 C17 1_555 1_555
C21 C20 1_555 1_555
H21 C21 1_555 1_555
C22 C21 1_555 1_555
H22 C22 1_555 1_555
C23 C22 1_555 1_555
C24 C23 1_555 1_555
H23 C24 1_555 1_555
C25 C20 1_555 1_555
H24 C25 1_555 1_555
C26 C23 1_555 1_555
O16 C26 1_555 1_555
O18 C26 1_555 1_555
C24 C25 1_555 1_555
H37 C42 1_555 1_555
H38 C42 1_555 1_555
H73 C81 1_555 1_555
H74 C81 1_555 1_555
H37_2 C42_2 1_555 1_555
H38_2 C42_2 1_555 1_555
H73_2 C81_2 1_555 1_555
H74_2 C81_2 1_555 1_555
Mn7 O2 1_555 1_555
Mn8 O2 1_555 1_555
C21_2 C20_2 1_555 1_555
H21_2 C21_2 1_555 1_555
C22_2 C21_2 1_555 1_555
H22_2 C22_2 1_555 1_555
C23_2 C22_2 1_555 1_555
C24_2 C23_2 1_555 1_555
H23_2 C24_2 1_555 1_555
C25_2 C20_2 1_555 1_555
H24_2 C25_2 1_555 1_555
C26_2 C23_2 1_555 1_555
O3 C26_2 1_555 1_555
O4 C26_2 1_555 1_555
Mn7 O3 1_555 1_555
Mn8 O4 1_555 1_555
C24_2 C25_2 1_555 1_555
Rh1_2 Br2_2 1_555 1_555
C1_2 H1_2 1_555 1_555
H2_2 C1_2 1_555 1_555
Mn7 O6_2 1_555 1_555
C2_2 H3_2 1_555 1_555
H4_2 C2_2 1_555 1_555
Mn8 N1_2 1_555 1_555
N1_2 N2_2 1_555 1_555
N2_2 C1_2 1_555 1_555
C3_2 N2_2 1_555 1_555
C4_2 C3_2 1_555 1_555
C5_2 N1_2 1_555 1_555
C6_2 C5_2 1_555 1_555
H5_2 C6_2 1_555 1_555
H6_2 C6_2 1_555 1_555
H7_2 C6_2 1_555 1_555
C7_2 C3_2 1_555 1_555
H8_2 C7_2 1_555 1_555
H9_2 C7_2 1_555 1_555
H10_2 C7_2 1_555 1_555
C8_2 C4_2 1_555 1_555
C9_2 C8_2 1_555 1_555
H11_2 C9_2 1_555 1_555
C10_2 C9_2 1_555 1_555
H12_2 C10_2 1_555 1_555
C11_2 C10_2 1_555 1_555
C12_2 C11_2 1_555 1_555
H13_2 C12_2 1_555 1_555
C13_2 C8_2 1_555 1_555
H14_2 C13_2 1_555 1_555
C14_2 C11_2 1_555 1_555
N3_2 Mn8 1_555 1_555
N4_2 C1_2 1_555 1_555
C15_2 N4_2 1_555 1_555
C16_2 C15_2 1_555 1_555
C17_2 N3_2 1_555 1_555
C18_2 C15_2 1_555 1_555
H15_2 C18_2 1_555 1_555
H17_2 C18_2 1_555 1_555
C19_2 C17_2 1_555 1_555
H18_2 C19_2 1_555 1_555
H19_2 C19_2 1_555 1_555
H20_2 C19_2 1_555 1_555
N5_2 C2_2 1_555 1_555
N6_2 Rh1_2 1_555 1_555
C27_2 N6_2 1_555 1_555
C28_2 C27_2 1_555 1_555
C29_2 N5_2 1_555 1_555
C30_2 C29_2 1_555 1_555
H25_2 C30_2 1_555 1_555
H26_2 C30_2 1_555 1_555
H27_2 C30_2 1_555 1_555
C31_2 C27_2 1_555 1_555
H28_2 C31_2 1_555 1_555
H29_2 C31_2 1_555 1_555
H30_2 C31_2 1_555 1_555
C32_2 C28_2 1_555 1_555
C33_2 C32_2 1_555 1_555
H31_2 C33_2 1_555 1_555
C34_2 C33_2 1_555 1_555
H32_2 C34_2 1_555 1_555
C35_2 C34_2 1_555 1_555
C36_2 C35_2 1_555 1_555
H33_2 C36_2 1_555 1_555
C37_2 C32_2 1_555 1_555
H34_2 C37_2 1_555 1_555
C38_2 C35_2 1_555 1_555
O5_2 Mn8 1_555 1_555
O6_2 C38_2 1_555 1_555
C39_2 Rh1_2 1_555 1_555
O7_2 C39_2 1_555 1_555
C40_2 C39_2 1_555 1_555
H35_2 C40_2 1_555 1_555
H36_2 C40_2 1_555 1_555
N7_2 Rh1_2 1_555 1_555
C41_2 N7_2 1_555 1_555
H40_2 C40_2 1_555 1_555
N8_2 C2_2 1_555 1_555
N9_2 Rh1_2 1_555 1_555
C43_2 N9_2 1_555 1_555
C44_2 C43_2 1_555 1_555
C45_2 N8_2 1_555 1_555
C46_2 C45_2 1_555 1_555
H41_2 C46_2 1_555 1_555
H42_2 C46_2 1_555 1_555
H43_2 C46_2 1_555 1_555
C47_2 C43_2 1_555 1_555
H44_2 C47_2 1_555 1_555
H45_2 C47_2 1_555 1_555
H46_2 C47_2 1_555 1_555
C48_2 C44_2 1_555 1_555
C49_2 C48_2 1_555 1_555
H47_2 C49_2 1_555 1_555
C50_2 C49_2 1_555 1_555
H48_2 C50_2 1_555 1_555
C51_2 C50_2 1_555 1_555
C52_2 C51_2 1_555 1_555
H49_2 C52_2 1_555 1_555
C53_2 C48_2 1_555 1_555
H50_2 C53_2 1_555 1_555
C54_2 C51_2 1_555 1_555
O21 C54_2 1_555 1_555
C55_2 H51_2 1_555 1_555
H52_2 C55_2 1_555 1_555
Mn12 N10_2 1_555 1_555
N10_2 N11_2 1_555 1_555
N11_2 C55_2 1_555 1_555
C56_2 N11_2 1_555 1_555
C57_2 C56_2 1_555 1_555
C58_2 N10_2 1_555 1_555
C59_2 C58_2 1_555 1_555
H53_2 C59_2 1_555 1_555
H54_2 C59_2 1_555 1_555
H55_2 C59_2 1_555 1_555
C60_2 C56_2 1_555 1_555
H56_2 C60_2 1_555 1_555
H57_2 C60_2 1_555 1_555
H58_2 C60_2 1_555 1_555
C61_2 C57_2 1_555 1_555
C62_2 C61_2 1_555 1_555
H59_2 C62_2 1_555 1_555
C63_2 C62_2 1_555 1_555
H60_2 C63_2 1_555 1_555
C64_2 C63_2 1_555 1_555
C65_2 C64_2 1_555 1_555
H61_2 C65_2 1_555 1_555
C66_2 C61_2 1_555 1_555
H62_2 C66_2 1_555 1_555
C67_2 C64_2 1_555 1_555
N12_2 Mn12 1_555 1_555
N13_2 C55_2 1_555 1_555
C68_2 N13_2 1_555 1_555
C69_2 C68_2 1_555 1_555
C70_2 N12_2 1_555 1_555
C71_2 C68_2 1_555 1_555
H63_2 C71_2 1_555 1_555
H65_2 C71_2 1_555 1_555
C72_2 C70_2 1_555 1_555
H66_2 C72_2 1_555 1_555
H67_2 C72_2 1_555 1_555
H68_2 C72_2 1_555 1_555
N14_2 Rh1_2 1_555 1_555
C80_2 N14_2 1_555 1_555
O15 Mn12 1_555 1_555
O19 Mn12 1_555 1_555
C4_2 C5_2 1_555 1_555
C12_2 C13_2 1_555 1_555
N3_2 N4_2 1_555 1_555
C16_2 C17_2 1_555 1_555
N5_2 N6_2 1_555 1_555
C28_2 C29_2 1_555 1_555
C36_2 C37_2 1_555 1_555
C38_2 O5_2 1_555 1_555
N8_2 N9_2 1_555 1_555
C44_2 C45_2 1_555 1_555
C52_2 C53_2 1_555 1_555
C57_2 C58_2 1_555 1_555
C65_2 C66_2 1_555 1_555
N12_2 N13_2 1_555 1_555
C69_2 C70_2 1_555 1_555
Mn7_2 O15 1_555 1_555
C74_2 C73_2 1_555 1_555
H69_2 C74_2 1_555 1_555
C75_2 C74_2 1_555 1_555
H70_2 C75_2 1_555 1_555
C76_2 C75_2 1_555 1_555
C77_2 C76_2 1_555 1_555
H71_2 C77_2 1_555 1_555
C78_2 C73_2 1_555 1_555
H72_2 C78_2 1_555 1_555
C79_2 C76_2 1_555 1_555
O12 C79_2 1_555 1_555
O19 C79_2 1_555 1_555
Mn7_2 O12 1_555 1_555
C77_2 C78_2 1_555 1_555

#END
