
###############################################################################
#
# This file contains modified crystal structure data generated from the
# MOF subset of the Cambridge Structural Database (CSD) v543 
# hosted by the Cambridge Crystallographic Data Centre (CCDC).
#
# This work is licensed under the Creative Commons
# Attribution-NonCommercial-ShareAlike 4.0 International License.
# To view a copy of this license, visit
# http://creativecommons.org/licenses/by-nc-sa/4.0/
# or send a letter to
# Creative Commons, PO Box 1866, Mountain View, CA 94042, USA.
#
# CIF created using the CSD Python API on 29 September 2022
# The structure has been converted into the P1 space group
# The structure has a 3D framework
# The original CSD entry LEKMEW is in the monoclinic crystal system
# The framework has been calculated to contain at least 10.0% void space
# The void calculation uses a probe of radius 1.32A, grid spacing 0.4
# H atom positions have been added when not included in the experimental data
# Generated hydrogen atom positions removed from atoms on special positions
#
###############################################################################

data_LEKMEW
_chemical_formula_moiety         '(C168 H142 In11 O64 P8 4+)n'
_symmetry_cell_setting           triclinic
_symmetry_space_group_name_H-M   'P 1'
_symmetry_Int_Tables_number      1
_space_group_name_Hall           'P 1'
loop_
_symmetry_equiv_pos_site_id
_symmetry_equiv_pos_as_xyz
1 x,y,z
_cell_length_a                   28.825(6)
_cell_length_b                   11.472(2)
_cell_length_c                   18.905(4)
_cell_angle_alpha                90
_cell_angle_beta                 106.62(3)
_cell_angle_gamma                90
_cell_volume                     5990.34
loop_
_atom_site_label
_atom_site_type_symbol
_atom_site_fract_x
_atom_site_fract_y
_atom_site_fract_z
In10 In 0.5000 0.0000 0.0000
In10_2 In 0.5000 0.0000 1.0000
In12 In 0.5000 0.0000 0.5000
O4 O 0.3442(2) 0.2410(5) 0.0327(3)
H2 H 0.3228 0.1943 0.0390
In7 In 0.611407(14) 0.84755(3) 0.02071(2)
In10_3 In 0.5000 1.0000 0.0000
O21 O 0.40560(18) 0.0379(4) 0.0752(3)
O26 O 0.50882(18) 0.1537(4) 0.0681(3)
O27 O 0.44644(16) 0.2756(4) 0.0292(3)
H30 H 0.328203 0.307794 0.00185182
In1 In 0.388593(14) 0.15245(3) 0.97929(2)
P1 P 0.37275(5) 0.34262(12) 0.82562(8)
O1 O 0.36609(16) 0.2718(4) 0.8883(2)
O2 O 0.43576(14) 0.0651(4) 0.9309(2)
H1 H 0.4440 0.1185 0.8965
O5 O 0.17192(17) 0.5472(5) 0.5781(3)
O6 O 0.13796(18) 0.4282(5) 0.6423(4)
O7 O 0.46183(18) 0.0925(4) 0.5674(3)
O8 O 0.49118(18) 0.8463(4) 0.9319(3)
O9 O 0.55356(16) 0.7244(4) 0.9708(3)
C1 C 0.3147(2) 0.3923(5) 0.7712(3)
C2 C 0.2738(2) 0.3487(6) 0.7869(4)
H3 H 0.2768 0.3016 0.8280
C3 C 0.2277(2) 0.3764(7) 0.7398(5)
H4 H 0.2002 0.3464 0.7497
C4 C 0.2228(2) 0.4474(6) 0.6792(4)
C5 C 0.2638(3) 0.4924(7) 0.6648(4)
H5 H 0.2606 0.5417 0.6246
C6 C 0.3097(2) 0.4647(7) 0.7100(4)
H6 H 0.3371 0.4942 0.6995
C7 C 0.1731(2) 0.4745(6) 0.6296(4)
C8 C 0.4127(2) 0.4635(5) 0.8564(3)
C9 C 0.4619(2) 0.4424(5) 0.8873(3)
H7 H 0.4737 0.3665 0.8899
C10 C 0.4935(2) 0.5338(6) 0.9141(3)
H8 H 0.5264 0.5191 0.9339
C11 C 0.4764(2) 0.6466(5) 0.9117(3)
C12 C 0.4272(2) 0.6680(6) 0.8821(4)
H9 H 0.4155 0.7438 0.8804
C13 C 0.3954(2) 0.5771(6) 0.8550(4)
H10 H 0.3624 0.5919 0.8358
C14 C 0.5099(2) 0.7457(5) 0.9406(3)
C15 C 0.3952(2) 0.2580(5) 0.7625(3)
C16 C 0.3750(3) 0.1482(6) 0.7440(5)
H11 H 0.3536 0.1187 0.7682
C17 C 0.3863(3) 0.0828(6) 0.6908(4)
H12 H 0.3727 0.0092 0.6793
C18 C 0.4178(2) 0.1253(6) 0.6538(4)
C19 C 0.4389(3) 0.2343(7) 0.6731(5)
H13 H 0.4608 0.2625 0.6496
C20 C 0.4276(3) 0.3010(7) 0.7265(4)
H14 H 0.4416 0.3741 0.7386
C21 C 0.4297(2) 0.0542(6) 0.5942(4)
In3 In 0.611407(14) 0.15245(3) 0.52071(2)
P2 P 0.62725(5) 0.34262(12) 0.67438(8)
O10 O 0.63391(16) 0.2718(4) 0.6117(2)
O11 O 0.56424(14) 0.0651(4) 0.5691(2)
H15 H 0.5560 0.1185 0.6035
O13 O 0.6558(2) 0.2410(5) 0.4673(3)
H16 H 0.6772 0.1943 0.4610
O14 O 0.82808(17) 0.5472(5) 0.9219(3)
O15 O 0.86204(18) 0.4282(5) 0.8577(4)
O16 O 0.53817(18) 0.0925(4) 0.9326(3)
O17 O 0.50882(18) 0.8463(4) 0.5681(3)
O18 O 0.44644(16) 0.7244(4) 0.5292(3)
C22 C 0.6853(2) 0.3923(5) 0.7288(3)
C23 C 0.7262(2) 0.3487(6) 0.7131(4)
H17 H 0.7232 0.3016 0.6720
C24 C 0.7723(2) 0.3764(7) 0.7602(5)
H18 H 0.7998 0.3464 0.7503
C25 C 0.7772(2) 0.4474(6) 0.8208(4)
C26 C 0.7362(3) 0.4924(7) 0.8352(4)
H19 H 0.7394 0.5417 0.8754
C27 C 0.6903(2) 0.4647(7) 0.7900(4)
H20 H 0.6629 0.4942 0.8005
C28 C 0.8269(2) 0.4745(6) 0.8704(4)
C29 C 0.5873(2) 0.4635(5) 0.6436(3)
C30 C 0.5381(2) 0.4424(5) 0.6127(3)
H21 H 0.5263 0.3665 0.6101
C31 C 0.5065(2) 0.5338(6) 0.5859(3)
H22 H 0.4736 0.5191 0.5661
C32 C 0.5236(2) 0.6466(5) 0.5883(3)
C33 C 0.5728(2) 0.6680(6) 0.6179(4)
H23 H 0.5845 0.7438 0.6196
C34 C 0.6046(2) 0.5771(6) 0.6450(4)
H24 H 0.6376 0.5919 0.6642
C35 C 0.4901(2) 0.7457(5) 0.5594(3)
C36 C 0.6048(2) 0.2580(5) 0.7375(3)
C37 C 0.6250(3) 0.1482(6) 0.7560(5)
H25 H 0.6464 0.1187 0.7318
C38 C 0.6137(3) 0.0828(6) 0.8092(4)
H26 H 0.6273 0.0092 0.8207
C39 C 0.5822(2) 0.1253(6) 0.8462(4)
C40 C 0.5611(3) 0.2343(7) 0.8269(5)
H27 H 0.5392 0.2625 0.8504
C41 C 0.5724(3) 0.3010(7) 0.7735(4)
H28 H 0.5584 0.3741 0.7614
C42 C 0.5703(2) 0.0542(6) 0.9058(4)
In4 In 0.888593(14) 0.65245(3) 0.97929(2)
In5 In 0.111407(14) 0.65245(3) 0.52071(2)
In9 In 0.388593(14) 0.84755(3) 0.47929(2)
In10_4 In 0.5000 1.0000 1.0000
In12_2 In 0.5000 1.0000 0.5000
O20 O 0.59440(18) 0.0379(4) 0.4248(3)
O22 O 0.67192(17) 0.0472(5) 0.5781(3)
O23 O 0.32808(17) 0.0472(5) 0.9219(3)
O28 O 0.55356(16) 0.2756(4) 0.4708(3)
H31 H 0.671797 0.307794 0.498148
O19 O 0.56424(14) 0.9349(4) 0.0691(2)
O24 O 0.46183(18) 0.9075(4) 0.0674(3)
O3 O 0.40560(18) 0.9621(4) 0.5752(3)
O12 O 0.59440(18) 0.9621(4) 0.9248(3)
O26_2 O 0.49118(18) 0.1537(4) 0.4319(3)
O19_2 O 0.43576(14) 0.9349(4) 0.4309(2)
O24_2 O 0.53817(18) 0.9075(4) 0.4326(3)
In7_2 In 0.111407(14) 0.34755(3) 0.02071(2)
In10_5 In -0.0000 0.5000 0.0000
O9_2 O 0.05356(16) 0.2244(4) 0.9708(3)
H8_2 H 0.0264 0.0191 0.9339
C14_2 C 0.0099(2) 0.2457(5) 0.9406(3)
O17_2 O 0.00882(18) 0.3463(4) 0.5681(3)
H19_2 H 0.2394 0.0417 0.8754
C31_2 C 0.0065(2) 0.0338(6) 0.5859(3)
C32_2 C 0.0236(2) 0.1466(5) 0.5883(3)
C33_2 C 0.0728(2) 0.1680(6) 0.6179(4)
H23_2 H 0.0845 0.2438 0.6196
C34_2 C 0.1046(2) 0.0771(6) 0.6450(4)
H24_2 H 0.1376 0.0919 0.6642
In10_6 In -0.0000 0.5000 1.0000
In12_3 In 0.0000 0.5000 0.5000
O19_3 O 0.06424(14) 0.4349(4) 0.0691(2)
O26_3 O 0.00882(18) 0.6537(4) 0.0681(3)
P2_2 P 0.12725(5) 0.84262(12) 0.67438(8)
O10_2 O 0.13391(16) 0.7718(4) 0.6117(2)
O11_2 O 0.06424(14) 0.5651(4) 0.5691(2)
H15_2 H 0.0560 0.6185 0.6035
O12_2 O 0.09440(18) 0.4621(4) 0.9248(3)
O13_2 O 0.1558(2) 0.7410(5) 0.4673(3)
H16_2 H 0.1772 0.6943 0.4610
O15_2 O 0.36204(18) 0.9282(5) 0.8577(4)
O16_2 O 0.03817(18) 0.5925(4) 0.9326(3)
C22_2 C 0.1853(2) 0.8923(5) 0.7288(3)
C23_2 C 0.2262(2) 0.8487(6) 0.7131(4)
H17_2 H 0.2232 0.8016 0.6720
C24_2 C 0.2723(2) 0.8764(7) 0.7602(5)
H18_2 H 0.2998 0.8464 0.7503
C25_2 C 0.2772(2) 0.9474(6) 0.8208(4)
C26_2 C 0.2362(3) 0.9924(7) 0.8352(4)
C27_2 C 0.1903(2) 0.9647(7) 0.7900(4)
H20_2 H 0.1629 0.9942 0.8005
C28_2 C 0.3269(2) 0.9745(6) 0.8704(4)
C29_2 C 0.0873(2) 0.9635(5) 0.6436(3)
C30_2 C 0.0381(2) 0.9424(5) 0.6127(3)
H21_2 H 0.0263 0.8665 0.6101
C36_2 C 0.1048(2) 0.7580(5) 0.7375(3)
C37_2 C 0.1250(3) 0.6482(6) 0.7560(5)
H25_2 H 0.1464 0.6187 0.7318
C38_2 C 0.1137(3) 0.5828(6) 0.8092(4)
H26_2 H 0.1273 0.5092 0.8207
C39_2 C 0.0822(2) 0.6253(6) 0.8462(4)
C40_2 C 0.0611(3) 0.7343(7) 0.8269(5)
H27_2 H 0.0392 0.7625 0.8504
C41_2 C 0.0724(3) 0.8010(7) 0.7735(4)
H28_2 H 0.0584 0.8741 0.7614
C42_2 C 0.0703(2) 0.5542(6) 0.9058(4)
O20_2 O 0.09440(18) 0.5379(4) 0.4248(3)
O28_2 O 0.05356(16) 0.7756(4) 0.4708(3)
H31_2 H 0.171797 0.807794 0.498148
In10_7 In 1.0000 0.5000 0.0000
O8_2 O 0.99118(18) 0.3463(4) 0.9319(3)
H5_2 H 0.7606 0.0417 0.6246
C10_2 C 0.9935(2) 0.0338(6) 0.9141(3)
C11_2 C 0.9764(2) 0.1466(5) 0.9117(3)
C12_2 C 0.9272(2) 0.1680(6) 0.8821(4)
H9_2 H 0.9155 0.2438 0.8804
C13_2 C 0.8954(2) 0.0771(6) 0.8550(4)
H10_2 H 0.8624 0.0919 0.8358
O18_2 O 0.94644(16) 0.2244(4) 0.5292(3)
H22_2 H 0.9736 0.0191 0.5661
C35_2 C 0.9901(2) 0.2457(5) 0.5594(3)
In9_2 In 0.888593(14) 0.34755(3) 0.47929(2)
In10_8 In 1.0000 0.5000 1.0000
In12_4 In 1.0000 0.5000 0.5000
O4_2 O 0.8442(2) 0.7410(5) 0.0327(3)
H2_2 H 0.8228 0.6943 0.0390
O21_2 O 0.90560(18) 0.5379(4) 0.0752(3)
O24_3 O 0.96183(18) 0.4075(4) 0.0674(3)
O27_2 O 0.94644(16) 0.7756(4) 0.0292(3)
H30_2 H 0.828203 0.807794 0.00185182
P1_2 P 0.87275(5) 0.84262(12) 0.82562(8)
O1_2 O 0.86609(16) 0.7718(4) 0.8883(2)
O2_2 O 0.93576(14) 0.5651(4) 0.9309(2)
H1_2 H 0.9440 0.6185 0.8965
O3_2 O 0.90560(18) 0.4621(4) 0.5752(3)
O6_2 O 0.63796(18) 0.9282(5) 0.6423(4)
O7_2 O 0.96183(18) 0.5925(4) 0.5674(3)
C1_2 C 0.8147(2) 0.8923(5) 0.7712(3)
C2_2 C 0.7738(2) 0.8487(6) 0.7869(4)
H3_2 H 0.7768 0.8016 0.8280
C3_2 C 0.7277(2) 0.8764(7) 0.7398(5)
H4_2 H 0.7002 0.8464 0.7497
C4_2 C 0.7228(2) 0.9474(6) 0.6792(4)
C5_2 C 0.7638(3) 0.9924(7) 0.6648(4)
C6_2 C 0.8097(2) 0.9647(7) 0.7100(4)
H6_2 H 0.8371 0.9942 0.6995
C7_2 C 0.6731(2) 0.9745(6) 0.6296(4)
C8_2 C 0.9127(2) 0.9635(5) 0.8564(3)
C9_2 C 0.9619(2) 0.9424(5) 0.8873(3)
H7_2 H 0.9737 0.8665 0.8899
C15_2 C 0.8952(2) 0.7580(5) 0.7625(3)
C16_2 C 0.8750(3) 0.6482(6) 0.7440(5)
H11_2 H 0.8536 0.6187 0.7682
C17_2 C 0.8863(3) 0.5828(6) 0.6908(4)
H12_2 H 0.8727 0.5092 0.6793
C18_2 C 0.9178(2) 0.6253(6) 0.6538(4)
C19_2 C 0.9389(3) 0.7343(7) 0.6731(5)
H13_2 H 0.9608 0.7625 0.6496
C20_2 C 0.9276(3) 0.8010(7) 0.7265(4)
H14_2 H 0.9416 0.8741 0.7386
C21_2 C 0.9297(2) 0.5542(6) 0.5942(4)
O24_4 O 0.03817(18) 0.4075(4) 0.4326(3)
O19_4 O 0.93576(14) 0.4349(4) 0.4309(2)
O26_4 O 0.99118(18) 0.6537(4) 0.4319(3)
P1_3 P 0.62725(5) 0.65738(12) 0.17438(8)
O1_3 O 0.63391(16) 0.7282(4) 0.1117(2)
H1_3 H 0.5560 0.8815 0.1035
O5_2 O 0.82808(17) 0.4528(5) 0.4219(3)
O6_3 O 0.86204(18) 0.5718(5) 0.3577(4)
C1_3 C 0.6853(2) 0.6077(5) 0.2288(3)
C2_3 C 0.7262(2) 0.6513(6) 0.2131(4)
H3_3 H 0.7232 0.6984 0.1720
C3_3 C 0.7723(2) 0.6236(7) 0.2602(5)
H4_3 H 0.7998 0.6536 0.2503
C4_3 C 0.7772(2) 0.5526(6) 0.3208(4)
C5_3 C 0.7362(3) 0.5076(7) 0.3352(4)
H5_3 H 0.7394 0.4583 0.3754
C6_3 C 0.6903(2) 0.5353(7) 0.2900(4)
H6_3 H 0.6629 0.5058 0.3005
C7_3 C 0.8269(2) 0.5255(6) 0.3704(4)
C8_3 C 0.5873(2) 0.5365(5) 0.1436(3)
C9_3 C 0.5381(2) 0.5576(5) 0.1127(3)
H7_3 H 0.5263 0.6335 0.1101
C10_3 C 0.5065(2) 0.4662(6) 0.0859(3)
H8_3 H 0.4736 0.4809 0.0661
C11_3 C 0.5236(2) 0.3534(5) 0.0883(3)
C12_3 C 0.5728(2) 0.3320(6) 0.1179(4)
H9_3 H 0.5845 0.2562 0.1196
C13_3 C 0.6046(2) 0.4229(6) 0.1450(4)
H10_3 H 0.6376 0.4081 0.1642
C14_3 C 0.4901(2) 0.2543(5) 0.0594(3)
C15_3 C 0.6048(2) 0.7420(5) 0.2375(3)
C16_3 C 0.6250(3) 0.8518(6) 0.2560(5)
H11_3 H 0.6464 0.8813 0.2318
C17_3 C 0.6137(3) 0.9172(6) 0.3092(4)
H12_3 H 0.6273 0.9908 0.3207
C18_3 C 0.5822(2) 0.8747(6) 0.3462(4)
C19_3 C 0.5611(3) 0.7657(7) 0.3269(5)
H13_3 H 0.5392 0.7375 0.3504
C20_3 C 0.5724(3) 0.6990(7) 0.2735(4)
H14_3 H 0.5584 0.6259 0.2614
C21_3 C 0.5703(2) 0.9458(6) 0.4058(4)
P2_3 P 0.37275(5) 0.65738(12) 0.32562(8)
O10_3 O 0.36609(16) 0.7282(4) 0.3883(2)
H15_3 H 0.4440 0.8815 0.3965
O13_3 O 0.3442(2) 0.7590(5) 0.5327(3)
H16_3 H 0.3228 0.8057 0.5390
O14_2 O 0.17192(17) 0.4528(5) 0.0781(3)
O15_3 O 0.13796(18) 0.5718(5) 0.1423(4)
C22_3 C 0.3147(2) 0.6077(5) 0.2712(3)
C23_3 C 0.2738(2) 0.6513(6) 0.2869(4)
H17_3 H 0.2768 0.6984 0.3280
C24_3 C 0.2277(2) 0.6236(7) 0.2398(5)
H18_3 H 0.2002 0.6536 0.2497
C25_3 C 0.2228(2) 0.5526(6) 0.1792(4)
C26_3 C 0.2638(3) 0.5076(7) 0.1648(4)
H19_3 H 0.2606 0.4583 0.1246
C27_3 C 0.3097(2) 0.5353(7) 0.2100(4)
H20_3 H 0.3371 0.5058 0.1995
C28_3 C 0.1731(2) 0.5255(6) 0.1296(4)
C29_3 C 0.4127(2) 0.5365(5) 0.3564(3)
C30_3 C 0.4619(2) 0.5576(5) 0.3873(3)
H21_3 H 0.4737 0.6335 0.3899
C31_3 C 0.4935(2) 0.4662(6) 0.4141(3)
H22_3 H 0.5264 0.4809 0.4339
C32_3 C 0.4764(2) 0.3534(5) 0.4117(3)
C33_3 C 0.4272(2) 0.3320(6) 0.3821(4)
H23_3 H 0.4155 0.2562 0.3804
C34_3 C 0.3954(2) 0.4229(6) 0.3550(4)
H24_3 H 0.3624 0.4081 0.3358
C35_3 C 0.5099(2) 0.2543(5) 0.4406(3)
C36_3 C 0.3952(2) 0.7420(5) 0.2625(3)
C37_3 C 0.3750(3) 0.8518(6) 0.2440(5)
H25_3 H 0.3536 0.8813 0.2682
C38_3 C 0.3863(3) 0.9172(6) 0.1908(4)
H26_3 H 0.3727 0.9908 0.1793
C39_3 C 0.4178(2) 0.8747(6) 0.1538(4)
C40_3 C 0.4389(3) 0.7657(7) 0.1731(5)
H27_3 H 0.4608 0.7375 0.1496
C41_3 C 0.4276(3) 0.6990(7) 0.2265(4)
H28_3 H 0.4416 0.6259 0.2386
C42_3 C 0.4297(2) 0.9458(6) 0.0942(4)
O22_2 O 0.32808(17) 0.9528(5) 0.4219(3)
O23_2 O 0.67192(17) 0.9528(5) 0.0781(3)
H31_3 H 0.328203 0.692206 0.501852
O4_3 O 0.6558(2) 0.7590(5) 0.9673(3)
H2_3 H 0.6772 0.8057 0.9610
H30_3 H 0.671797 0.692206 0.998148
P1_4 P 0.12725(5) 0.15738(12) 0.17438(8)
O1_4 O 0.13391(16) 0.2282(4) 0.1117(2)
H1_4 H 0.0560 0.3815 0.1035
O6_4 O 0.36204(18) 0.0718(5) 0.3577(4)
C1_4 C 0.1853(2) 0.1077(5) 0.2288(3)
C2_4 C 0.2262(2) 0.1513(6) 0.2131(4)
H3_4 H 0.2232 0.1984 0.1720
C3_4 C 0.2723(2) 0.1236(7) 0.2602(5)
H4_4 H 0.2998 0.1536 0.2503
C4_4 C 0.2772(2) 0.0526(6) 0.3208(4)
C5_4 C 0.2362(3) 0.0076(7) 0.3352(4)
C6_4 C 0.1903(2) 0.0353(7) 0.2900(4)
H6_4 H 0.1629 0.0058 0.3005
C7_4 C 0.3269(2) 0.0255(6) 0.3704(4)
C8_4 C 0.0873(2) 0.0365(5) 0.1436(3)
C9_4 C 0.0381(2) 0.0576(5) 0.1127(3)
H7_4 H 0.0263 0.1335 0.1101
C15_4 C 0.1048(2) 0.2420(5) 0.2375(3)
C16_4 C 0.1250(3) 0.3518(6) 0.2560(5)
H11_4 H 0.1464 0.3813 0.2318
C17_4 C 0.1137(3) 0.4172(6) 0.3092(4)
H12_4 H 0.1273 0.4908 0.3207
C18_4 C 0.0822(2) 0.3747(6) 0.3462(4)
C19_4 C 0.0611(3) 0.2657(7) 0.3269(5)
H13_4 H 0.0392 0.2375 0.3504
C20_4 C 0.0724(3) 0.1990(7) 0.2735(4)
H14_4 H 0.0584 0.1259 0.2614
C21_4 C 0.0703(2) 0.4458(6) 0.4058(4)
O4_4 O 0.1558(2) 0.2590(5) 0.9673(3)
H2_4 H 0.1772 0.3057 0.9610
H30_4 H 0.171797 0.192206 0.998148
H5_4 H 0.2394 0.9583 0.3754
C10_4 C 0.0065(2) 0.9662(6) 0.0859(3)
C11_4 C 0.0236(2) 0.8534(5) 0.0883(3)
C12_4 C 0.0728(2) 0.8320(6) 0.1179(4)
H9_4 H 0.0845 0.7562 0.1196
C13_4 C 0.1046(2) 0.9229(6) 0.1450(4)
H10_4 H 0.1376 0.9081 0.1642
H22_4 H 0.0264 0.9809 0.4339
C35_4 C 0.0099(2) 0.7543(5) 0.4406(3)
P2_4 P 0.87275(5) 0.15738(12) 0.32562(8)
O10_4 O 0.86609(16) 0.2282(4) 0.3883(2)
H15_4 H 0.9440 0.3815 0.3965
O13_4 O 0.8442(2) 0.2590(5) 0.5327(3)
H16_4 H 0.8228 0.3057 0.5390
O15_4 O 0.63796(18) 0.0718(5) 0.1423(4)
C22_4 C 0.8147(2) 0.1077(5) 0.2712(3)
C23_4 C 0.7738(2) 0.1513(6) 0.2869(4)
H17_4 H 0.7768 0.1984 0.3280
C24_4 C 0.7277(2) 0.1236(7) 0.2398(5)
H18_4 H 0.7002 0.1536 0.2497
C25_4 C 0.7228(2) 0.0526(6) 0.1792(4)
C26_4 C 0.7638(3) 0.0076(7) 0.1648(4)
C27_4 C 0.8097(2) 0.0353(7) 0.2100(4)
H20_4 H 0.8371 0.0058 0.1995
C28_4 C 0.6731(2) 0.0255(6) 0.1296(4)
C29_4 C 0.9127(2) 0.0365(5) 0.3564(3)
C30_4 C 0.9619(2) 0.0576(5) 0.3873(3)
H21_4 H 0.9737 0.1335 0.3899
C36_4 C 0.8952(2) 0.2420(5) 0.2625(3)
C37_4 C 0.8750(3) 0.3518(6) 0.2440(5)
H25_4 H 0.8536 0.3813 0.2682
C38_4 C 0.8863(3) 0.4172(6) 0.1908(4)
H26_4 H 0.8727 0.4908 0.1793
C39_4 C 0.9178(2) 0.3747(6) 0.1538(4)
C40_4 C 0.9389(3) 0.2657(7) 0.1731(5)
H27_4 H 0.9608 0.2375 0.1496
C41_4 C 0.9276(3) 0.1990(7) 0.2265(4)
H28_4 H 0.9416 0.1259 0.2386
C42_4 C 0.9297(2) 0.4458(6) 0.0942(4)
H31_4 H 0.828203 0.192206 0.501852
H8_4 H 0.9736 0.9809 0.0661
C14_4 C 0.9901(2) 0.7543(5) 0.0594(3)
H19_4 H 0.7606 0.9583 0.1246
C31_4 C 0.9935(2) 0.9662(6) 0.4141(3)
C32_4 C 0.9764(2) 0.8534(5) 0.4117(3)
C33_4 C 0.9272(2) 0.8320(6) 0.3821(4)
H23_4 H 0.9155 0.7562 0.3804
C34_4 C 0.8954(2) 0.9229(6) 0.3550(4)
H24_4 H 0.8624 0.9081 0.3358
O29 O -0.0000 0.762(2) 0.2500
O29_2 O 1.0000 0.762(2) 0.2500
O29_3 O 0.5000 0.262(2) 0.2500
O29_4 O 0.0000 0.238(2) 0.7500
O29_5 O 1.0000 0.238(2) 0.7500
O29_6 O 0.5000 0.738(2) 0.7500
loop_
_geom_bond_atom_site_label_1
_geom_bond_atom_site_label_2
_geom_bond_site_symmetry_1
_geom_bond_site_symmetry_2
H2 O4 1_555 1_555
O26 In10 1_555 1_555
O4 H30 1_555 1_555
In1 O1 1_555 1_555
In10_2 O2 1_555 1_555
P1 O1 1_555 1_555
O2 In1 1_555 1_555
H1 O2 1_555 1_555
O5 C7 1_555 1_555
O6 C7 1_555 1_555
O7 C21 1_555 1_555
O8 C14 1_555 1_555
O9 C14 1_555 1_555
C1 P1 1_555 1_555
C2 C1 1_555 1_555
H3 C2 1_555 1_555
C3 C2 1_555 1_555
H4 C3 1_555 1_555
C4 C3 1_555 1_555
C5 C4 1_555 1_555
H5 C5 1_555 1_555
C6 C1 1_555 1_555
H6 C6 1_555 1_555
C7 C4 1_555 1_555
C8 P1 1_555 1_555
C9 C8 1_555 1_555
H7 C9 1_555 1_555
C10 C9 1_555 1_555
H8 C10 1_555 1_555
C11 C10 1_555 1_555
C12 C11 1_555 1_555
H9 C12 1_555 1_555
C13 C8 1_555 1_555
H10 C13 1_555 1_555
C14 C11 1_555 1_555
C15 P1 1_555 1_555
C16 C15 1_555 1_555
H11 C16 1_555 1_555
C17 C16 1_555 1_555
H12 C17 1_555 1_555
C18 C17 1_555 1_555
C19 C18 1_555 1_555
H13 C19 1_555 1_555
C20 C15 1_555 1_555
H14 C20 1_555 1_555
C21 C18 1_555 1_555
In3 O10 1_555 1_555
P2 O10 1_555 1_555
O11 In3 1_555 1_555
H15 O11 1_555 1_555
O13 In3 1_555 1_555
H16 O13 1_555 1_555
O14 C28 1_555 1_555
O15 C28 1_555 1_555
O16 In10_2 1_555 1_555
O17 C35 1_555 1_555
O18 C35 1_555 1_555
C22 P2 1_555 1_555
C23 C22 1_555 1_555
H17 C23 1_555 1_555
C24 C23 1_555 1_555
H18 C24 1_555 1_555
C25 C24 1_555 1_555
C26 C25 1_555 1_555
H19 C26 1_555 1_555
C27 C22 1_555 1_555
H20 C27 1_555 1_555
C28 C25 1_555 1_555
C29 P2 1_555 1_555
C30 C29 1_555 1_555
H21 C30 1_555 1_555
C31 C30 1_555 1_555
H22 C31 1_555 1_555
C32 C31 1_555 1_555
C33 C32 1_555 1_555
H23 C33 1_555 1_555
C34 C29 1_555 1_555
H24 C34 1_555 1_555
C35 C32 1_555 1_555
C36 P2 1_555 1_555
C37 C36 1_555 1_555
H25 C37 1_555 1_555
C38 C37 1_555 1_555
H26 C38 1_555 1_555
C39 C38 1_555 1_555
C40 C39 1_555 1_555
H27 C40 1_555 1_555
C41 C36 1_555 1_555
H28 C41 1_555 1_555
C42 O16 1_555 1_555
In4 O14 1_555 1_555
In5 O5 1_555 1_555
In9 O18 1_555 1_555
In10_4 O8 1_555 1_555
In12 O7 1_555 1_555
In12_2 O17 1_555 1_555
O20 In3 1_555 1_555
O22 In3 1_555 1_555
O23 In1 1_555 1_555
O28 In3 1_555 1_555
C5 C6 1_555 1_555
C12 C13 1_555 1_555
C19 C20 1_555 1_555
O11 In12 1_555 1_555
C26 C27 1_555 1_555
C33 C34 1_555 1_555
C39 C42 1_555 1_555
C40 C41 1_555 1_555
O13 H31 1_555 1_555
O19 In10_3 1_555 1_555
O24 In10_3 1_555 1_555
In7 O19 1_555 1_555
In9 O3 1_555 1_555
O26_2 In12 1_555 1_555
O19_2 In12_2 1_555 1_555
O24_2 In12_2 1_555 1_555
In9 O19_2 1_555 1_555
O9_2 C14_2 1_555 1_555
C32_2 C31_2 1_555 1_555
C33_2 C32_2 1_555 1_555
H23_2 C33_2 1_555 1_555
H24_2 C34_2 1_555 1_555
In12_3 O17_2 1_555 1_555
C33_2 C34_2 1_555 1_555
O19_3 In10_5 1_555 1_555
O26_3 In10_5 1_555 1_555
In7_2 O19_3 1_555 1_555
In5 O10_2 1_555 1_555
P2_2 O10_2 1_555 1_555
O11_2 In5 1_555 1_555
H15_2 O11_2 1_555 1_555
O12_2 C42_2 1_555 1_555
O13_2 In5 1_555 1_555
H16_2 O13_2 1_555 1_555
O15_2 C28_2 1_555 1_555
O16_2 In10_6 1_555 1_555
C22_2 P2_2 1_555 1_555
C23_2 C22_2 1_555 1_555
H17_2 C23_2 1_555 1_555
C24_2 C23_2 1_555 1_555
H18_2 C24_2 1_555 1_555
C25_2 C24_2 1_555 1_555
C26_2 C25_2 1_555 1_555
C27_2 C22_2 1_555 1_555
H20_2 C27_2 1_555 1_555
C28_2 C25_2 1_555 1_555
C29_2 P2_2 1_555 1_555
C30_2 C29_2 1_555 1_555
H21_2 C30_2 1_555 1_555
C36_2 P2_2 1_555 1_555
C37_2 C36_2 1_555 1_555
H25_2 C37_2 1_555 1_555
C38_2 C37_2 1_555 1_555
H26_2 C38_2 1_555 1_555
C39_2 C38_2 1_555 1_555
C40_2 C39_2 1_555 1_555
H27_2 C40_2 1_555 1_555
C41_2 C36_2 1_555 1_555
H28_2 C41_2 1_555 1_555
C42_2 O16_2 1_555 1_555
O20_2 In5 1_555 1_555
O28_2 In5 1_555 1_555
O11_2 In12_3 1_555 1_555
C26_2 C27_2 1_555 1_555
C39_2 C42_2 1_555 1_555
C40_2 C41_2 1_555 1_555
O13_2 H31_2 1_555 1_555
C11_2 C10_2 1_555 1_555
C12_2 C11_2 1_555 1_555
H9_2 C12_2 1_555 1_555
H10_2 C13_2 1_555 1_555
O18_2 C35_2 1_555 1_555
In9_2 O18_2 1_555 1_555
In10_8 O8_2 1_555 1_555
C12_2 C13_2 1_555 1_555
H2_2 O4_2 1_555 1_555
O24_3 In10_7 1_555 1_555
O4_2 H30_2 1_555 1_555
In4 O1_2 1_555 1_555
In10_8 O2_2 1_555 1_555
P1_2 O1_2 1_555 1_555
O2_2 In4 1_555 1_555
H1_2 O2_2 1_555 1_555
O3_2 C21_2 1_555 1_555
O6_2 C7_2 1_555 1_555
O7_2 C21_2 1_555 1_555
C1_2 P1_2 1_555 1_555
C2_2 C1_2 1_555 1_555
H3_2 C2_2 1_555 1_555
C3_2 C2_2 1_555 1_555
H4_2 C3_2 1_555 1_555
C4_2 C3_2 1_555 1_555
C5_2 C4_2 1_555 1_555
C6_2 C1_2 1_555 1_555
H6_2 C6_2 1_555 1_555
C7_2 C4_2 1_555 1_555
C8_2 P1_2 1_555 1_555
C9_2 C8_2 1_555 1_555
H7_2 C9_2 1_555 1_555
C15_2 P1_2 1_555 1_555
C16_2 C15_2 1_555 1_555
H11_2 C16_2 1_555 1_555
C17_2 C16_2 1_555 1_555
H12_2 C17_2 1_555 1_555
C18_2 C17_2 1_555 1_555
C19_2 C18_2 1_555 1_555
H13_2 C19_2 1_555 1_555
C20_2 C15_2 1_555 1_555
H14_2 C20_2 1_555 1_555
C21_2 C18_2 1_555 1_555
In9_2 O3_2 1_555 1_555
In12_4 O7_2 1_555 1_555
C5_2 C6_2 1_555 1_555
C19_2 C20_2 1_555 1_555
O24_4 In12_3 1_555 1_555
O19_4 In12_4 1_555 1_555
O26_4 In12_4 1_555 1_555
In9_2 O19_4 1_555 1_555
In7 O1_3 1_555 1_555
P1_3 O1_3 1_555 1_555
H1_3 O19 1_555 1_555
O5_2 C7_3 1_555 1_555
O6_3 C7_3 1_555 1_555
O24_2 C21_3 1_555 1_555
O26 C14_3 1_555 1_555
O27 C14_3 1_555 1_555
C1_3 P1_3 1_555 1_555
C2_3 C1_3 1_555 1_555
H3_3 C2_3 1_555 1_555
C3_3 C2_3 1_555 1_555
H4_3 C3_3 1_555 1_555
C4_3 C3_3 1_555 1_555
C5_3 C4_3 1_555 1_555
H5_3 C5_3 1_555 1_555
C6_3 C1_3 1_555 1_555
H6_3 C6_3 1_555 1_555
C7_3 C4_3 1_555 1_555
C8_3 P1_3 1_555 1_555
C9_3 C8_3 1_555 1_555
H7_3 C9_3 1_555 1_555
C10_3 C9_3 1_555 1_555
H8_3 C10_3 1_555 1_555
C11_3 C10_3 1_555 1_555
C12_3 C11_3 1_555 1_555
H9_3 C12_3 1_555 1_555
C13_3 C8_3 1_555 1_555
H10_3 C13_3 1_555 1_555
C14_3 C11_3 1_555 1_555
C15_3 P1_3 1_555 1_555
C16_3 C15_3 1_555 1_555
H11_3 C16_3 1_555 1_555
C17_3 C16_3 1_555 1_555
H12_3 C17_3 1_555 1_555
C18_3 C17_3 1_555 1_555
C19_3 C18_3 1_555 1_555
H13_3 C19_3 1_555 1_555
C20_3 C15_3 1_555 1_555
H14_3 C20_3 1_555 1_555
C21_3 C18_3 1_555 1_555
In9 O10_3 1_555 1_555
P2_3 O10_3 1_555 1_555
H15_3 O19_2 1_555 1_555
O13_3 In9 1_555 1_555
H16_3 O13_3 1_555 1_555
O14_2 C28_3 1_555 1_555
O15_3 C28_3 1_555 1_555
O26_2 C35_3 1_555 1_555
O28 C35_3 1_555 1_555
C22_3 P2_3 1_555 1_555
C23_3 C22_3 1_555 1_555
H17_3 C23_3 1_555 1_555
C24_3 C23_3 1_555 1_555
H18_3 C24_3 1_555 1_555
C25_3 C24_3 1_555 1_555
C26_3 C25_3 1_555 1_555
H19_3 C26_3 1_555 1_555
C27_3 C22_3 1_555 1_555
H20_3 C27_3 1_555 1_555
C28_3 C25_3 1_555 1_555
C29_3 P2_3 1_555 1_555
C30_3 C29_3 1_555 1_555
H21_3 C30_3 1_555 1_555
C31_3 C30_3 1_555 1_555
H22_3 C31_3 1_555 1_555
C32_3 C31_3 1_555 1_555
C33_3 C32_3 1_555 1_555
H23_3 C33_3 1_555 1_555
C34_3 C29_3 1_555 1_555
H24_3 C34_3 1_555 1_555
C35_3 C32_3 1_555 1_555
C36_3 P2_3 1_555 1_555
C37_3 C36_3 1_555 1_555
H25_3 C37_3 1_555 1_555
C38_3 C37_3 1_555 1_555
H26_3 C38_3 1_555 1_555
C39_3 C38_3 1_555 1_555
C40_3 C39_3 1_555 1_555
H27_3 C40_3 1_555 1_555
C41_3 C36_3 1_555 1_555
H28_3 C41_3 1_555 1_555
C42_3 O24 1_555 1_555
In7_2 O14_2 1_555 1_555
In9_2 O5_2 1_555 1_555
O22_2 In9 1_555 1_555
O23_2 In7 1_555 1_555
C5_3 C6_3 1_555 1_555
C12_3 C13_3 1_555 1_555
C19_3 C20_3 1_555 1_555
C26_3 C27_3 1_555 1_555
C33_3 C34_3 1_555 1_555
C39_3 C42_3 1_555 1_555
C40_3 C41_3 1_555 1_555
O13_3 H31_3 1_555 1_555
H2_3 O4_3 1_555 1_555
O4_3 H30_3 1_555 1_555
In7_2 O1_4 1_555 1_555
P1_4 O1_4 1_555 1_555
H1_4 O19_3 1_555 1_555
O20_2 C21_4 1_555 1_555
O6_4 C7_4 1_555 1_555
O24_4 C21_4 1_555 1_555
C1_4 P1_4 1_555 1_555
C2_4 C1_4 1_555 1_555
H3_4 C2_4 1_555 1_555
C3_4 C2_4 1_555 1_555
H4_4 C3_4 1_555 1_555
C4_4 C3_4 1_555 1_555
C5_4 C4_4 1_555 1_555
C6_4 C1_4 1_555 1_555
H6_4 C6_4 1_555 1_555
C7_4 C4_4 1_555 1_555
C8_4 P1_4 1_555 1_555
C9_4 C8_4 1_555 1_555
H7_4 C9_4 1_555 1_555
C15_4 P1_4 1_555 1_555
C16_4 C15_4 1_555 1_555
H11_4 C16_4 1_555 1_555
C17_4 C16_4 1_555 1_555
H12_4 C17_4 1_555 1_555
C18_4 C17_4 1_555 1_555
C19_4 C18_4 1_555 1_555
H13_4 C19_4 1_555 1_555
C20_4 C15_4 1_555 1_555
H14_4 C20_4 1_555 1_555
C21_4 C18_4 1_555 1_555
C5_4 C6_4 1_555 1_555
C19_4 C20_4 1_555 1_555
H2_4 O4_4 1_555 1_555
O4_4 H30_4 1_555 1_555
C11_4 C10_4 1_555 1_555
C12_4 C11_4 1_555 1_555
H9_4 C12_4 1_555 1_555
H10_4 C13_4 1_555 1_555
O28_2 C35_4 1_555 1_555
C12_4 C13_4 1_555 1_555
In9_2 O10_4 1_555 1_555
P2_4 O10_4 1_555 1_555
H15_4 O19_4 1_555 1_555
O21_2 C42_4 1_555 1_555
O13_4 In9_2 1_555 1_555
H16_4 O13_4 1_555 1_555
O15_4 C28_4 1_555 1_555
C22_4 P2_4 1_555 1_555
C23_4 C22_4 1_555 1_555
H17_4 C23_4 1_555 1_555
C24_4 C23_4 1_555 1_555
H18_4 C24_4 1_555 1_555
C25_4 C24_4 1_555 1_555
C26_4 C25_4 1_555 1_555
C27_4 C22_4 1_555 1_555
H20_4 C27_4 1_555 1_555
C28_4 C25_4 1_555 1_555
C29_4 P2_4 1_555 1_555
C30_4 C29_4 1_555 1_555
H21_4 C30_4 1_555 1_555
C36_4 P2_4 1_555 1_555
C37_4 C36_4 1_555 1_555
H25_4 C37_4 1_555 1_555
C38_4 C37_4 1_555 1_555
H26_4 C38_4 1_555 1_555
C39_4 C38_4 1_555 1_555
C40_4 C39_4 1_555 1_555
H27_4 C40_4 1_555 1_555
C41_4 C36_4 1_555 1_555
H28_4 C41_4 1_555 1_555
C42_4 O24_3 1_555 1_555
C26_4 C27_4 1_555 1_555
C39_4 C42_4 1_555 1_555
C40_4 C41_4 1_555 1_555
O13_4 H31_4 1_555 1_555
O27_2 C14_4 1_555 1_555
C32_4 C31_4 1_555 1_555
C33_4 C32_4 1_555 1_555
H23_4 C33_4 1_555 1_555
H24_4 C34_4 1_555 1_555
C33_4 C34_4 1_555 1_555

#END
