
###############################################################################
#
# This file contains modified crystal structure data generated from the
# MOF subset of the Cambridge Structural Database (CSD) v543 
# hosted by the Cambridge Crystallographic Data Centre (CCDC).
#
# This work is licensed under the Creative Commons
# Attribution-NonCommercial-ShareAlike 4.0 International License.
# To view a copy of this license, visit
# http://creativecommons.org/licenses/by-nc-sa/4.0/
# or send a letter to
# Creative Commons, PO Box 1866, Mountain View, CA 94042, USA.
#
# CIF created using the CSD Python API on 29 September 2022
# The structure has been converted into the P1 space group
# The structure has a 3D framework
# The original CSD entry LEKNOH is in the monoclinic crystal system
# The framework has been calculated to contain at least 10.0% void space
# The void calculation uses a probe of radius 1.32A, grid spacing 0.4
# H atom positions have been added when not included in the experimental data
# Generated hydrogen atom positions removed from atoms on special positions
#
###############################################################################

data_LEKNOH
_chemical_formula_moiety         '(C208 H192 Cd22 N32 O112)n'
_symmetry_cell_setting           triclinic
_symmetry_space_group_name_H-M   'P 1'
_symmetry_Int_Tables_number      1
_space_group_name_Hall           'P 1'
loop_
_symmetry_equiv_pos_site_id
_symmetry_equiv_pos_as_xyz
1 x,y,z
_cell_length_a                   16.039(7)
_cell_length_b                   13.034(6)
_cell_length_c                   42.157(18)
_cell_angle_alpha                90
_cell_angle_beta                 100.927(14)
_cell_angle_gamma                90
_cell_volume                     8653.23
loop_
_atom_site_label
_atom_site_type_symbol
_atom_site_fract_x
_atom_site_fract_y
_atom_site_fract_z
H10 H 0.0172 0.9704 0.3102
H11 H 0.0059 0.8606 0.3239
C4 C 0.6988(12) 0.0260(15) 0.2639(4)
C5 C 0.7244(13) 0.1262(17) 0.2731(5)
H2 H 0.6833 0.1771 0.2685
C6 C 0.8010(11) 0.1557(15) 0.2878(6)
H3 H 0.8115 0.2237 0.2940
C7 C 0.8631(12) 0.0855(15) 0.2935(4)
H4 H 0.9183 0.1048 0.3024
C8 C 0.6129(10) 0.0125(15) 0.2480(4)
H5 H 0.5778 0.0699 0.2453
C18 C 0.0273(8) 0.0351(11) 0.0306(3)
H13 H 0.0451 0.0606 0.0514
H39 H 0.33796 0.0294996 0.0831879
Cd1 Cd 0.2500 0.72723(12) 0.0000
Cd2 Cd 0.27450(6) 0.81042(9) 0.08184(2)
Cd3 Cd 0.63637(7) 0.75868(10) 0.23553(2)
O1 O 0.9027(6) 0.9092(9) 0.2928(2)
O2 O 0.7538(6) 0.8516(10) 0.2616(2)
O3 O 0.4864(8) 0.7639(11) 0.2123(3)
O4 O 0.5932(11) 0.6416(15) 0.2757(3)
O5 O 0.5530(17) 0.7829(18) 0.2921(5)
O6 O 0.5081(13) 0.655(2) 0.3119(5)
O7 O 0.6539(13) 0.8092(10) 0.1796(3)
O8 O 0.2002(5) 0.8602(8) 0.0273(2)
O9 O 0.1619(6) 0.9285(8) 0.07057(19)
O14 O 0.3724(6) 0.9657(12) 0.0852(3)
N1 N 0.5802(8) 0.9259(12) 0.2369(3)
N2 N 0.4947(8) 0.9331(12) 0.2205(3)
H1 H 0.4689 0.9913 0.2187
N3 N 0.2789(8) 0.8360(11) 0.1375(3)
N4 N 0.5541(15) 0.689(2) 0.2942(6)
C2 C 0.8443(10) 0.9858(14) 0.2860(3)
C3 C 0.7671(10) 0.9496(16) 0.2704(3)
C9 C 0.4567(10) 0.8525(17) 0.2085(4)
C10 C 0.3696(9) 0.8686(14) 0.1891(3)
C11 C 0.3534(8) 0.8241(12) 0.1576(3)
H6 H 0.3958 0.7859 0.1508
C12 C 0.2166(10) 0.8845(15) 0.1499(4)
H7 H 0.1617 0.8891 0.1379
C13 C 0.2366(17) 0.926(2) 0.1804(5)
H8 H 0.1945 0.9646 0.1874
C14 C 0.3075(12) 0.9176(17) 0.2000(4)
H9 H 0.3154 0.9440 0.2209
C15 C 0.9786(14) 0.9253(19) 0.3181(5)
H12 H 0.9621 0.9554 0.3368
C16 C 0.1509(8) 0.9112(10) 0.0398(3)
C17 C 0.0713(7) 0.9587(11) 0.0205(3)
O26 O 0.1786(7) 0.6206(9) 0.0257(2)
O27 O 0.1760(6) 0.6859(9) 0.0753(2)
C47 C 0.0026(10) 0.3946(13) 0.0375(3)
C48 C 0.0653(9) 0.4651(13) 0.0345(3)
H34 H 0.0923 0.4594 0.0169
C49 C 0.0895(8) 0.5418(12) 0.0559(3)
C50 C 0.0524(11) 0.5407(15) 0.0840(3)
H35 H 0.0719 0.5871 0.1005
C52 C 0.1521(9) 0.6228(14) 0.0522(4)
Cd8 Cd 0.7500 0.27277(12) 0.0000
Cd12 Cd 0.86363(7) 0.74132(10) 0.26447(2)
O29 O 0.5973(6) 0.5908(9) 0.2072(2)
O31 O 0.7462(6) 0.6484(10) 0.2384(2)
O35 O 0.3839(6) 0.6886(8) 0.0977(2)
O37 O 0.3614(5) 0.7301(8) 0.0451(2)
H37 H 0.710161 0.785697 0.175891
H38 H 0.608363 0.776869 0.16345
H40 H 0.412355 0.965452 0.106304
C1 C 0.5365(8) 0.3951(12) 0.9354(3)
Cd1_2 Cd 0.2500 0.72723(12) 1.0000
O10 O 0.6161(6) 0.3114(8) 0.9023(2)
O11 O 0.6386(5) 0.2699(8) 0.9549(2)
O12 O 0.3214(7) 0.6206(9) 0.9743(2)
O13 O 0.3240(6) 0.6859(9) 0.9247(2)
C19 C 0.0432(9) 0.9221(12) 0.9886(3)
H14 H 0.0724 0.8694 0.9806
C20 C 0.6001(8) 0.3219(13) 0.9311(3)
C21 C 0.4974(10) 0.3946(13) 0.9625(3)
H15 H 0.5139 0.3463 0.9788
C22 C 0.4347(9) 0.4651(13) 0.9655(3)
H16 H 0.4077 0.4594 0.9831
C23 C 0.4105(8) 0.5418(12) 0.9441(3)
C24 C 0.4476(11) 0.5407(15) 0.9160(3)
H17 H 0.4281 0.5871 0.8995
C25 C 0.5126(10) 0.4722(13) 0.9123(3)
H18 H 0.5396 0.4780 0.8947
C26 C 0.3479(9) 0.6228(14) 0.9478(4)
Cd4 Cd 0.22550(6) 0.81042(9) 0.91816(2)
O19 O 0.0136(8) 0.7639(11) 0.7877(3)
O28 O 0.1276(6) 0.9657(12) 0.9148(3)
N6 N 0.0053(8) 0.9331(12) 0.7795(3)
H21 H 0.0311 0.9913 0.7813
N7 N 0.2211(8) 0.8360(11) 0.8625(3)
C39 C 0.0433(10) 0.8525(17) 0.7915(4)
C40 C 0.1304(9) 0.8686(14) 0.8109(3)
C41 C 0.1466(8) 0.8241(12) 0.8424(3)
H26 H 0.1042 0.7859 0.8492
C42 C 0.2834(10) 0.8845(15) 0.8501(4)
H27 H 0.3383 0.8891 0.8621
C43 C 0.2634(17) 0.926(2) 0.8196(5)
H28 H 0.3055 0.9646 0.8126
C44 C 0.1925(12) 0.9176(17) 0.8000(4)
H29 H 0.1846 0.9440 0.7791
Cd8_2 Cd 0.7500 0.27277(12) 1.0000
Cd10 Cd 0.72550(6) 0.18958(9) 0.91816(2)
O33 O 0.2998(5) 0.8602(8) 0.9727(2)
O34 O 0.3381(6) 0.9285(8) 0.92943(19)
O36 O 0.1161(6) 0.6886(8) 0.9023(2)
O38 O 0.1386(5) 0.7301(8) 0.9549(2)
H42 H 0.0708637 0.947614 0.902085
C30 C 0.9568(9) 0.0779(12) 0.0114(3)
H20 H 0.9276 0.1306 0.0194
O15 O 0.7998(5) 0.1398(8) 0.9727(2)
O16 O 0.8381(6) 0.0715(8) 0.92943(19)
C27 C 0.8491(8) 0.0888(10) 0.9602(3)
C28 C 0.9287(7) 0.0413(11) 0.9795(3)
C34 C 0.8012(12) 0.0260(15) 0.7361(4)
C35 C 0.7756(13) 0.1262(17) 0.7269(5)
H22 H 0.8167 0.1771 0.7315
C36 C 0.6990(11) 0.1557(15) 0.7122(6)
H23 H 0.6885 0.2237 0.7060
C37 C 0.6369(12) 0.0855(15) 0.7065(4)
H24 H 0.5817 0.1048 0.6976
C38 C 0.8871(10) 0.0125(15) 0.7520(4)
H25 H 0.9222 0.0699 0.7547
C31 C 0.9635(8) 0.3951(12) 0.0646(3)
O24 O 0.8839(6) 0.3114(8) 0.0977(2)
O25 O 0.8614(5) 0.2699(8) 0.0451(2)
C46 C 0.8999(8) 0.3219(13) 0.0689(3)
H33 H 0.9861 0.3463 0.0212
C51 C 0.9874(10) 0.4722(13) 0.0877(3)
H36 H 0.9604 0.4780 0.1053
Cd11 Cd 0.77450(6) 0.18958(9) 0.08184(2)
C29 C 0.9727(8) 0.9649(11) 0.9694(3)
H19 H 0.9549 0.9394 0.9486
Cd5 Cd 0.86363(7) 0.75868(10) 0.76447(2)
O17 O 0.5973(6) 0.9092(9) 0.7072(2)
O18 O 0.7462(6) 0.8516(10) 0.7384(2)
O20 O 0.9068(11) 0.6416(15) 0.7243(3)
O21 O 0.9470(17) 0.7829(18) 0.7079(5)
O22 O 0.9919(13) 0.655(2) 0.6881(5)
O23 O 0.8461(13) 0.8092(10) 0.8204(3)
N5 N 0.9198(8) 0.9259(12) 0.7631(3)
N8 N 0.9459(15) 0.689(2) 0.7058(6)
C32 C 0.6557(10) 0.9858(14) 0.7140(3)
C33 C 0.7329(10) 0.9496(16) 0.7296(3)
C45 C 0.5214(14) 0.9253(19) 0.6819(5)
H30 H 0.4828 0.9704 0.6898
H31 H 0.4941 0.8606 0.6761
H32 H 0.5379 0.9554 0.6632
Cd13 Cd 0.63637(7) 0.74132(10) 0.73553(2)
O30 O 0.9027(6) 0.5908(9) 0.7928(2)
O32 O 0.7538(6) 0.6484(10) 0.7616(2)
H43 H 0.789839 0.785697 0.824109
H44 H 0.891637 0.776869 0.83655
O15_2 O 0.7002(5) 0.1398(8) 0.0273(2)
O16_2 O 0.6619(6) 0.0715(8) 0.07057(19)
C27_2 C 0.6509(8) 0.0888(10) 0.0398(3)
C28_2 C 0.5713(7) 0.0413(11) 0.0205(3)
H41 H 0.348022 0.0232306 0.0959123
C18_2 C 0.4727(8) 0.0351(11) 0.9694(3)
H13_2 H 0.4549 0.0606 0.9486
C30_2 C 0.5432(9) 0.0779(12) 0.9886(3)
H20_2 H 0.5724 0.1306 0.9806
H39_2 H 0.16204 0.0294996 0.916812
C19_2 C 0.4568(9) 0.9221(12) 0.0114(3)
H14_2 H 0.4276 0.8694 0.0194
C29_2 C 0.5273(8) 0.9649(11) 0.0306(3)
H19_2 H 0.5451 0.9394 0.0514
H42_2 H 0.429136 0.947614 0.0979147
C16_2 C 0.3491(8) 0.9112(10) 0.9602(3)
C17_2 C 0.4287(7) 0.9587(11) 0.9795(3)
H40_2 H 0.0876446 0.965452 0.893696
Cd3_2 Cd 0.13637(7) 0.25868(10) 0.73553(2)
O1_2 O 0.4027(6) 0.4092(9) 0.7928(2)
O2_2 O 0.2538(6) 0.3516(10) 0.7616(2)
O4_2 O 0.0932(11) 0.1416(15) 0.7757(3)
O5_2 O 0.0530(17) 0.2829(18) 0.7921(5)
O6_2 O 0.0081(13) 0.155(2) 0.8119(5)
O7_2 O 0.1539(13) 0.3092(10) 0.6796(3)
N1_2 N 0.0802(8) 0.4259(12) 0.7369(3)
N4_2 N 0.0541(15) 0.189(2) 0.7942(6)
C2_2 C 0.3443(10) 0.4858(14) 0.7860(3)
C3_2 C 0.2671(10) 0.4496(16) 0.7704(3)
C4_2 C 0.1988(12) 0.5260(15) 0.7639(4)
C5_2 C 0.2244(13) 0.6262(17) 0.7731(5)
H2_2 H 0.1833 0.6771 0.7685
C6_2 C 0.3010(11) 0.6557(15) 0.7878(6)
H3_2 H 0.3115 0.7237 0.7940
C7_2 C 0.3631(12) 0.5855(15) 0.7935(4)
H4_2 H 0.4183 0.6048 0.8024
C8_2 C 0.1129(10) 0.5125(15) 0.7480(4)
H5_2 H 0.0778 0.5699 0.7453
C15_2 C 0.4786(14) 0.4253(19) 0.8181(5)
H10_2 H 0.5172 0.4704 0.8102
H11_2 H 0.5059 0.3606 0.8239
H12_2 H 0.4621 0.4554 0.8368
Cd12_2 Cd 0.36363(7) 0.24132(10) 0.76447(2)
O29_2 O 0.0973(6) 0.0908(9) 0.7072(2)
O31_2 O 0.2462(6) 0.1484(10) 0.7384(2)
H37_2 H 0.210161 0.285697 0.675891
H38_2 H 0.108363 0.276869 0.66345
C1_2 C 0.0365(8) 0.8951(12) 0.4354(3)
O10_2 O 0.1161(6) 0.8114(8) 0.4023(2)
O11_2 O 0.1386(5) 0.7699(8) 0.4549(2)
C20_2 C 0.1001(8) 0.8219(13) 0.4311(3)
H15_2 H 0.0139 0.8463 0.4788
C25_2 C 0.0126(10) 0.9722(13) 0.4123(3)
H18_2 H 0.0396 0.9780 0.3947
Cd8_3 Cd 0.2500 0.77277(12) 0.5000
Cd10_2 Cd 0.22550(6) 0.68958(9) 0.41816(2)
Cd1_3 Cd 0.7500 0.22723(12) 0.5000
Cd2_2 Cd 0.77450(6) 0.31042(9) 0.58184(2)
O3_2 O 0.9864(8) 0.2639(11) 0.7123(3)
O8_2 O 0.7002(5) 0.3602(8) 0.5273(2)
O9_2 O 0.6619(6) 0.4285(8) 0.57057(19)
O12_2 O 0.8214(7) 0.1206(9) 0.4743(2)
O13_2 O 0.8240(6) 0.1859(9) 0.4247(2)
O14_2 O 0.8724(6) 0.4657(12) 0.5852(3)
N2_2 N 0.9947(8) 0.4331(12) 0.7205(3)
H1_2 H 0.9689 0.4913 0.7187
N3_2 N 0.7789(8) 0.3360(11) 0.6375(3)
C9_2 C 0.9567(10) 0.3525(17) 0.7085(4)
C10_2 C 0.8696(9) 0.3686(14) 0.6891(3)
C11_2 C 0.8534(8) 0.3241(12) 0.6576(3)
H6_2 H 0.8958 0.2859 0.6508
C12_2 C 0.7166(10) 0.3845(15) 0.6499(4)
H7_2 H 0.6617 0.3891 0.6379
C13_2 C 0.7366(17) 0.426(2) 0.6804(5)
H8_2 H 0.6945 0.4646 0.6874
C14_2 C 0.8075(12) 0.4176(17) 0.7000(4)
H9_2 H 0.8154 0.4440 0.7209
C16_3 C 0.6509(8) 0.4112(10) 0.5398(3)
C17_3 C 0.5713(7) 0.4587(11) 0.5205(3)
C18_3 C 0.5273(8) 0.5351(11) 0.5306(3)
H13_3 H 0.5451 0.5606 0.5514
C19_3 C 0.5432(9) 0.4221(12) 0.4886(3)
H14_3 H 0.5724 0.3694 0.4806
C23_2 C 0.9105(8) 0.0418(12) 0.4441(3)
C24_2 C 0.9476(11) 0.0407(15) 0.4160(3)
H17_2 H 0.9281 0.0871 0.3995
C26_2 C 0.8479(9) 0.1228(14) 0.4478(4)
O15_3 O 0.2998(5) 0.6398(8) 0.4727(2)
O16_3 O 0.3381(6) 0.5715(8) 0.42943(19)
C27_3 C 0.3491(8) 0.5888(10) 0.4602(3)
C28_3 C 0.4287(7) 0.5413(11) 0.4795(3)
C29_3 C 0.4727(8) 0.4649(11) 0.4694(3)
H19_3 H 0.4549 0.4394 0.4486
C30_3 C 0.4568(9) 0.5779(12) 0.5114(3)
H20_3 H 0.4276 0.6306 0.5194
Cd4_2 Cd 0.72550(6) 0.31042(9) 0.41816(2)
Cd5_2 Cd 0.36363(7) 0.25868(10) 0.26447(2)
O17_2 O 0.0973(6) 0.4092(9) 0.2072(2)
O18_2 O 0.2462(6) 0.3516(10) 0.2384(2)
O19_2 O 0.5136(8) 0.2639(11) 0.2877(3)
O20_2 O 0.4068(11) 0.1416(15) 0.2243(3)
O21_2 O 0.4470(17) 0.2829(18) 0.2079(5)
O22_2 O 0.4919(13) 0.155(2) 0.1881(5)
O23_2 O 0.3461(13) 0.3092(10) 0.3204(3)
O26_2 O 0.6786(7) 0.1206(9) 0.5257(2)
O27_2 O 0.6760(6) 0.1859(9) 0.5753(2)
O28_2 O 0.6276(6) 0.4657(12) 0.4148(3)
N5_2 N 0.4198(8) 0.4259(12) 0.2631(3)
N6_2 N 0.5053(8) 0.4331(12) 0.2795(3)
H21_2 H 0.5311 0.4913 0.2813
N7_2 N 0.7211(8) 0.3360(11) 0.3625(3)
N8_2 N 0.4459(15) 0.189(2) 0.2058(6)
C32_2 C 0.1557(10) 0.4858(14) 0.2140(3)
C33_2 C 0.2329(10) 0.4496(16) 0.2296(3)
C34_2 C 0.3012(12) 0.5260(15) 0.2361(4)
C35_2 C 0.2756(13) 0.6262(17) 0.2269(5)
H22_2 H 0.3167 0.6771 0.2315
C36_2 C 0.1990(11) 0.6557(15) 0.2122(6)
H23_2 H 0.1885 0.7237 0.2060
C37_2 C 0.1369(12) 0.5855(15) 0.2065(4)
H24_2 H 0.0817 0.6048 0.1976
C38_2 C 0.3871(10) 0.5125(15) 0.2520(4)
H25_2 H 0.4222 0.5699 0.2547
C39_2 C 0.5433(10) 0.3525(17) 0.2915(4)
C40_2 C 0.6304(9) 0.3686(14) 0.3109(3)
C41_2 C 0.6466(8) 0.3241(12) 0.3424(3)
H26_2 H 0.6042 0.2859 0.3492
C42_2 C 0.7834(10) 0.3845(15) 0.3501(4)
H27_2 H 0.8383 0.3891 0.3621
C43_2 C 0.7634(17) 0.426(2) 0.3196(5)
H28_2 H 0.8055 0.4646 0.3126
C44_2 C 0.6925(12) 0.4176(17) 0.3000(4)
H29_2 H 0.6846 0.4440 0.2791
C45_2 C 0.0214(14) 0.4253(19) 0.1819(5)
H32_2 H 0.0379 0.4554 0.1632
C49_2 C 0.5895(8) 0.0418(12) 0.5559(3)
C50_2 C 0.5524(11) 0.0407(15) 0.5840(3)
H35_2 H 0.5719 0.0871 0.6005
C52_2 C 0.6521(9) 0.1228(14) 0.5522(4)
Cd13_2 Cd 0.13637(7) 0.24132(10) 0.23553(2)
O30_2 O 0.4027(6) 0.0908(9) 0.2928(2)
O32_2 O 0.2538(6) 0.1484(10) 0.2616(2)
O33_2 O 0.7998(5) 0.3602(8) 0.4727(2)
O34_2 O 0.8381(6) 0.4285(8) 0.42943(19)
O35_2 O 0.8839(6) 0.1886(8) 0.5977(2)
O36_2 O 0.6161(6) 0.1886(8) 0.4023(2)
O37_2 O 0.8614(5) 0.2301(8) 0.5451(2)
O38_2 O 0.6386(5) 0.2301(8) 0.4549(2)
H43_2 H 0.289839 0.285697 0.324109
H44_2 H 0.391637 0.276869 0.33655
C21_2 C 0.9974(10) 0.8946(13) 0.4625(3)
C22_2 C 0.9347(9) 0.9651(13) 0.4655(3)
H16_2 H 0.9077 0.9594 0.4831
C31_2 C 0.4635(8) 0.8951(12) 0.5646(3)
O24_2 O 0.3839(6) 0.8114(8) 0.5977(2)
O25_2 O 0.3614(5) 0.7699(8) 0.5451(2)
C46_2 C 0.3999(8) 0.8219(13) 0.5689(3)
C47_2 C 0.5026(10) 0.8946(13) 0.5375(3)
H33_2 H 0.4861 0.8463 0.5212
C48_2 C 0.5653(9) 0.9651(13) 0.5345(3)
H34_2 H 0.5923 0.9594 0.5169
C51_2 C 0.4874(10) 0.9722(13) 0.5877(3)
H36_2 H 0.4604 0.9780 0.6053
Cd11_2 Cd 0.27450(6) 0.68958(9) 0.58184(2)
O15_4 O 0.2002(5) 0.6398(8) 0.5273(2)
O16_4 O 0.1619(6) 0.5715(8) 0.57057(19)
C27_4 C 0.1509(8) 0.5888(10) 0.5398(3)
C28_4 C 0.0713(7) 0.5413(11) 0.5205(3)
C29_4 C 0.0273(8) 0.4649(11) 0.5306(3)
H19_4 H 0.0451 0.4394 0.5514
C30_4 C 0.0432(9) 0.5779(12) 0.4886(3)
H20_4 H 0.0724 0.6306 0.4806
C16_4 C 0.8491(8) 0.4112(10) 0.4602(3)
C17_4 C 0.9287(7) 0.4587(11) 0.4795(3)
C18_4 C 0.9727(8) 0.5351(11) 0.4694(3)
H13_4 H 0.9549 0.5606 0.4486
C19_4 C 0.9568(9) 0.4221(12) 0.5114(3)
H14_4 H 0.9276 0.3694 0.5194
O20_3 O 0.0932(11) 0.3584(15) 0.2757(3)
O21_3 O 0.0530(17) 0.2171(18) 0.2921(5)
O22_3 O 0.0081(13) 0.345(2) 0.3119(5)
O23_3 O 0.1539(13) 0.1908(10) 0.1796(3)
N5_3 N 0.0802(8) 0.0741(12) 0.2369(3)
N8_3 N 0.0541(15) 0.311(2) 0.2942(6)
C32_3 C 0.3443(10) 0.0142(14) 0.2860(3)
C33_3 C 0.2671(10) 0.0504(16) 0.2704(3)
C45_3 C 0.4786(14) 0.0747(19) 0.3181(5)
H30_2 H 0.5172 0.0296 0.3102
H31_2 H 0.5059 0.1394 0.3239
H32_3 H 0.4621 0.0446 0.3368
H43_3 H 0.210161 0.214303 0.175891
H44_3 H 0.108363 0.223131 0.16345
C31_3 C 0.0365(8) 0.6049(12) 0.9354(3)
C46_3 C 0.1001(8) 0.6781(13) 0.9311(3)
H33_3 H 0.0139 0.6537 0.9788
C51_3 C 0.0126(10) 0.5278(13) 0.9123(3)
H36_3 H 0.0396 0.5220 0.8947
C34_3 C 0.1988(12) 0.9740(15) 0.2639(4)
C35_3 C 0.2244(13) 0.8738(17) 0.2731(5)
H22_3 H 0.1833 0.8229 0.2685
C36_3 C 0.3010(11) 0.8443(15) 0.2878(6)
H23_3 H 0.3115 0.7763 0.2940
C37_3 C 0.3631(12) 0.9145(15) 0.2935(4)
H24_3 H 0.4183 0.8952 0.3024
C38_3 C 0.1129(10) 0.9875(15) 0.2480(4)
H25_3 H 0.0778 0.9301 0.2453
C1_3 C 0.4635(8) 0.6049(12) 0.0646(3)
O12_3 O 0.6786(7) 0.3794(9) 0.0257(2)
O13_3 O 0.6760(6) 0.3141(9) 0.0753(2)
C20_3 C 0.3999(8) 0.6781(13) 0.0689(3)
C21_3 C 0.5026(10) 0.6054(13) 0.0375(3)
H15_3 H 0.4861 0.6537 0.0212
C22_3 C 0.5653(9) 0.5349(13) 0.0345(3)
H16_3 H 0.5923 0.5406 0.0169
C23_3 C 0.5895(8) 0.4582(12) 0.0559(3)
C24_3 C 0.5524(11) 0.4593(15) 0.0840(3)
H17_3 H 0.5719 0.4129 0.1005
C25_3 C 0.4874(10) 0.5278(13) 0.0877(3)
H18_3 H 0.4604 0.5220 0.1053
C26_3 C 0.6521(9) 0.3772(14) 0.0522(4)
O19_3 O 0.9864(8) 0.2361(11) 0.2123(3)
O28_3 O 0.8724(6) 0.0343(12) 0.0852(3)
N6_3 N 0.9947(8) 0.0669(12) 0.2205(3)
H21_3 H 0.9689 0.0087 0.2187
N7_3 N 0.7789(8) 0.1640(11) 0.1375(3)
C39_3 C 0.9567(10) 0.1475(17) 0.2085(4)
C40_3 C 0.8696(9) 0.1314(14) 0.1891(3)
C41_3 C 0.8534(8) 0.1759(12) 0.1576(3)
H26_3 H 0.8958 0.2141 0.1508
C42_3 C 0.7166(10) 0.1155(15) 0.1499(4)
H27_3 H 0.6617 0.1109 0.1379
C43_3 C 0.7366(17) 0.074(2) 0.1804(5)
H28_3 H 0.6945 0.0354 0.1874
C44_3 C 0.8075(12) 0.0824(17) 0.2000(4)
H29_3 H 0.8154 0.0560 0.2209
H42_3 H 0.929136 0.052386 0.0979147
O3_3 O 0.5136(8) 0.2361(11) 0.7877(3)
O4_3 O 0.4068(11) 0.3584(15) 0.7243(3)
O5_3 O 0.4470(17) 0.2171(18) 0.7079(5)
O6_3 O 0.4919(13) 0.345(2) 0.6881(5)
O7_3 O 0.3461(13) 0.1908(10) 0.8204(3)
O14_3 O 0.6276(6) 0.0343(12) 0.9148(3)
N1_3 N 0.4198(8) 0.0741(12) 0.7631(3)
N2_3 N 0.5053(8) 0.0669(12) 0.7795(3)
H1_3 H 0.5311 0.0087 0.7813
N3_3 N 0.7211(8) 0.1640(11) 0.8625(3)
N4_3 N 0.4459(15) 0.311(2) 0.7058(6)
C2_3 C 0.1557(10) 0.0142(14) 0.7140(3)
C3_3 C 0.2329(10) 0.0504(16) 0.7296(3)
C9_3 C 0.5433(10) 0.1475(17) 0.7915(4)
C10_3 C 0.6304(9) 0.1314(14) 0.8109(3)
C11_3 C 0.6466(8) 0.1759(12) 0.8424(3)
H6_3 H 0.6042 0.2141 0.8492
C12_3 C 0.7834(10) 0.1155(15) 0.8501(4)
H7_3 H 0.8383 0.1109 0.8621
C13_3 C 0.7634(17) 0.074(2) 0.8196(5)
H8_3 H 0.8055 0.0354 0.8126
C14_3 C 0.6925(12) 0.0824(17) 0.8000(4)
H9_3 H 0.6846 0.0560 0.7791
C15_3 C 0.0214(14) 0.0747(19) 0.6819(5)
H12_3 H 0.0379 0.0446 0.6632
O26_3 O 0.8214(7) 0.3794(9) 0.9743(2)
O27_3 O 0.8240(6) 0.3141(9) 0.9247(2)
C47_3 C 0.9974(10) 0.6054(13) 0.9625(3)
C48_3 C 0.9347(9) 0.5349(13) 0.9655(3)
H34_3 H 0.9077 0.5406 0.9831
C49_3 C 0.9105(8) 0.4582(12) 0.9441(3)
C50_3 C 0.9476(11) 0.4593(15) 0.9160(3)
H35_3 H 0.9281 0.4129 0.8995
C52_3 C 0.8479(9) 0.3772(14) 0.9478(4)
H37_3 H 0.289839 0.214303 0.824109
H38_3 H 0.391637 0.223131 0.83655
H40_3 H 0.587645 0.034548 0.893696
C4_3 C 0.3012(12) 0.9740(15) 0.7361(4)
C5_3 C 0.2756(13) 0.8738(17) 0.7269(5)
H2_3 H 0.3167 0.8229 0.7315
C6_3 C 0.1990(11) 0.8443(15) 0.7122(6)
H3_3 H 0.1885 0.7763 0.7060
C7_3 C 0.1369(12) 0.9145(15) 0.7065(4)
H4_3 H 0.0817 0.8952 0.6976
C8_3 C 0.3871(10) 0.9875(15) 0.7520(4)
H5_3 H 0.4222 0.9301 0.7547
H39_3 H 0.66204 0.9705 0.916812
H40_4 H 0.912355 0.034548 0.106304
H42_4 H 0.570864 0.052386 0.902085
H39_4 H 0.83796 0.9705 0.0831879
H41_2 H 0.651978 0.976769 0.904088
C21_4 C 0.0026(10) 0.1054(13) 0.5375(3)
C22_4 C 0.0653(9) 0.0349(13) 0.5345(3)
H16_4 H 0.0923 0.0406 0.5169
C31_4 C 0.5365(8) 0.1049(12) 0.4354(3)
C46_4 C 0.6001(8) 0.1781(13) 0.4311(3)
C47_4 C 0.4974(10) 0.1054(13) 0.4625(3)
H33_4 H 0.5139 0.1537 0.4788
C48_4 C 0.4347(9) 0.0349(13) 0.4655(3)
H34_4 H 0.4077 0.0406 0.4831
C51_4 C 0.5126(10) 0.0278(13) 0.4123(3)
H36_4 H 0.5396 0.0220 0.3947
O3_4 O 0.0136(8) 0.7361(11) 0.2877(3)
O12_4 O 0.1786(7) 0.8794(9) 0.5257(2)
O13_4 O 0.1760(6) 0.8141(9) 0.5753(2)
O14_4 O 0.1276(6) 0.5343(12) 0.4148(3)
N2_4 N 0.0053(8) 0.5669(12) 0.2795(3)
H1_4 H 0.0311 0.5087 0.2813
N3_4 N 0.2211(8) 0.6640(11) 0.3625(3)
C9_4 C 0.0433(10) 0.6475(17) 0.2915(4)
C10_4 C 0.1304(9) 0.6314(14) 0.3109(3)
C11_4 C 0.1466(8) 0.6759(12) 0.3424(3)
H6_4 H 0.1042 0.7141 0.3492
C12_4 C 0.2834(10) 0.6155(15) 0.3501(4)
H7_4 H 0.3383 0.6109 0.3621
C13_4 C 0.2634(17) 0.574(2) 0.3196(5)
H8_4 H 0.3055 0.5354 0.3126
C14_4 C 0.1925(12) 0.5824(17) 0.3000(4)
H9_4 H 0.1846 0.5560 0.2791
C23_4 C 0.0895(8) 0.9582(12) 0.5559(3)
C24_4 C 0.0524(11) 0.9593(15) 0.5840(3)
H17_4 H 0.0719 0.9129 0.6005
C26_4 C 0.1521(9) 0.8772(14) 0.5522(4)
O19_4 O 0.4864(8) 0.7361(11) 0.7123(3)
O20_4 O 0.5932(11) 0.8584(15) 0.7757(3)
O21_4 O 0.5530(17) 0.7171(18) 0.7921(5)
O22_4 O 0.5081(13) 0.845(2) 0.8119(5)
O23_4 O 0.6539(13) 0.6908(10) 0.6796(3)
O26_4 O 0.3214(7) 0.8794(9) 0.4743(2)
O27_4 O 0.3240(6) 0.8141(9) 0.4247(2)
O28_4 O 0.3724(6) 0.5343(12) 0.5852(3)
N5_4 N 0.5802(8) 0.5741(12) 0.7369(3)
N6_4 N 0.4947(8) 0.5669(12) 0.7205(3)
H21_4 H 0.4689 0.5087 0.7187
N7_4 N 0.2789(8) 0.6640(11) 0.6375(3)
N8_4 N 0.5541(15) 0.811(2) 0.7942(6)
C32_4 C 0.8443(10) 0.5142(14) 0.7860(3)
C33_4 C 0.7671(10) 0.5504(16) 0.7704(3)
C34_4 C 0.6988(12) 0.4740(15) 0.7639(4)
C35_4 C 0.7244(13) 0.3738(17) 0.7731(5)
H22_4 H 0.6833 0.3229 0.7685
C36_4 C 0.8010(11) 0.3443(15) 0.7878(6)
H23_4 H 0.8115 0.2763 0.7940
C37_4 C 0.8631(12) 0.4145(15) 0.7935(4)
H24_4 H 0.9183 0.3952 0.8024
C38_4 C 0.6129(10) 0.4875(15) 0.7480(4)
H25_4 H 0.5778 0.4301 0.7453
C39_4 C 0.4567(10) 0.6475(17) 0.7085(4)
C40_4 C 0.3696(9) 0.6314(14) 0.6891(3)
C41_4 C 0.3534(8) 0.6759(12) 0.6576(3)
H26_4 H 0.3958 0.7141 0.6508
C42_4 C 0.2166(10) 0.6155(15) 0.6499(4)
H27_4 H 0.1617 0.6109 0.6379
C43_4 C 0.2366(17) 0.574(2) 0.6804(5)
H28_4 H 0.1945 0.5354 0.6874
C44_4 C 0.3075(12) 0.5824(17) 0.7000(4)
H29_4 H 0.3154 0.5560 0.7209
C45_4 C 0.9786(14) 0.5747(19) 0.8181(5)
H32_4 H 0.9621 0.5446 0.8368
C49_4 C 0.4105(8) 0.9582(12) 0.4441(3)
C50_4 C 0.4476(11) 0.9593(15) 0.4160(3)
H35_4 H 0.4281 0.9129 0.3995
C52_4 C 0.3479(9) 0.8772(14) 0.4478(4)
H43_4 H 0.710161 0.714303 0.675891
H44_4 H 0.608363 0.723131 0.66345
C1_4 C 0.9635(8) 0.1049(12) 0.5646(3)
C20_4 C 0.8999(8) 0.1781(13) 0.5689(3)
H15_4 H 0.9861 0.1537 0.5212
C25_4 C 0.9874(10) 0.0278(13) 0.5877(3)
H18_4 H 0.9604 0.0220 0.6053
O4_4 O 0.9068(11) 0.8584(15) 0.2243(3)
O5_4 O 0.9470(17) 0.7171(18) 0.2079(5)
O6_4 O 0.9919(13) 0.845(2) 0.1881(5)
O7_4 O 0.8461(13) 0.6908(10) 0.3204(3)
N1_4 N 0.9198(8) 0.5741(12) 0.2631(3)
N4_4 N 0.9459(15) 0.811(2) 0.2058(6)
C2_4 C 0.6557(10) 0.5142(14) 0.2140(3)
C3_4 C 0.7329(10) 0.5504(16) 0.2296(3)
C4_4 C 0.8012(12) 0.4740(15) 0.2361(4)
C5_4 C 0.7756(13) 0.3738(17) 0.2269(5)
H2_4 H 0.8167 0.3229 0.2315
C6_4 C 0.6990(11) 0.3443(15) 0.2122(6)
H3_4 H 0.6885 0.2763 0.2060
C7_4 C 0.6369(12) 0.4145(15) 0.2065(4)
H4_4 H 0.5817 0.3952 0.1976
C8_4 C 0.8871(10) 0.4875(15) 0.2520(4)
H5_4 H 0.9222 0.4301 0.2547
C15_4 C 0.5214(14) 0.5747(19) 0.1819(5)
H10_3 H 0.4828 0.5296 0.1898
H11_3 H 0.4941 0.6394 0.1761
H12_4 H 0.5379 0.5446 0.1632
H37_4 H 0.789839 0.714303 0.324109
H38_4 H 0.891637 0.723131 0.33655
H41_3 H 0.151978 0.0232306 0.904088
H30_3 H 0.9828 0.4704 0.1898
H31_3 H 0.9941 0.3606 0.1761
H41_4 H 0.848022 0.976769 0.0959123
H10_4 H 0.9828 0.0296 0.6898
H11_4 H 0.9941 0.1394 0.6761
H30_4 H 0.0172 0.5296 0.8102
H31_4 H 0.0059 0.6394 0.8239
loop_
_geom_bond_atom_site_label_1
_geom_bond_atom_site_label_2
_geom_bond_site_symmetry_1
_geom_bond_site_symmetry_2
C4 C5 1_555 1_555
C5 H2 1_555 1_555
C6 C5 1_555 1_555
H3 C6 1_555 1_555
H4 C7 1_555 1_555
H5 C8 1_555 1_555
H13 C18 1_555 1_555
C4 C8 1_555 1_555
C6 C7 1_555 1_555
Cd1 O8 1_555 1_555
Cd2 O8 1_555 1_555
Cd3 O2 1_555 1_555
O1 C2 1_555 1_555
O2 C3 1_555 1_555
O3 Cd3 1_555 1_555
O4 Cd3 1_555 1_555
O5 N4 1_555 1_555
O6 N4 1_555 1_555
O7 Cd3 1_555 1_555
O8 C16 1_555 1_555
O9 Cd2 1_555 1_555
O14 Cd2 1_555 1_555
N1 Cd3 1_555 1_555
N2 N1 1_555 1_555
H1 N2 1_555 1_555
N3 Cd2 1_555 1_555
N4 O4 1_555 1_555
C2 C3 1_555 1_555
C9 O3 1_555 1_555
C10 C9 1_555 1_555
C11 N3 1_555 1_555
H6 C11 1_555 1_555
C12 N3 1_555 1_555
H7 C12 1_555 1_555
C13 C12 1_555 1_555
H8 C13 1_555 1_555
C14 C10 1_555 1_555
H9 C14 1_555 1_555
C15 O1 1_555 1_555
H12 C15 1_555 1_555
C16 O9 1_555 1_555
C17 C16 1_555 1_555
O26 Cd1 1_555 1_555
O27 Cd2 1_555 1_555
C48 C47 1_555 1_555
H34 C48 1_555 1_555
C49 C48 1_555 1_555
C50 C49 1_555 1_555
H35 C50 1_555 1_555
C52 O26 1_555 1_555
Cd12 O1 1_555 1_555
O29 Cd3 1_555 1_555
O31 Cd3 1_555 1_555
O35 Cd2 1_555 1_555
O37 Cd1 1_555 1_555
Cd2 O37 1_555 1_555
O2 Cd12 1_555 1_555
N2 C9 1_555 1_555
C10 C11 1_555 1_555
C13 C14 1_555 1_555
O27 C52 1_555 1_555
C49 C52 1_555 1_555
Cd12 O31 1_555 1_555
O7 H37 1_555 1_555
O7 H38 1_555 1_555
O14 H40 1_555 1_555
C1 C20 1_555 1_555
O10 C20 1_555 1_555
O11 C20 1_555 1_555
O12 Cd1_2 1_555 1_555
O13 C26 1_555 1_555
H14 C19 1_555 1_555
C21 C1 1_555 1_555
H15 C21 1_555 1_555
C22 C21 1_555 1_555
H16 C22 1_555 1_555
C23 C22 1_555 1_555
C24 C23 1_555 1_555
H17 C24 1_555 1_555
C25 C1 1_555 1_555
H18 C25 1_555 1_555
C26 O12 1_555 1_555
Cd4 O13 1_555 1_555
O28 Cd4 1_555 1_555
H21 N6 1_555 1_555
N7 Cd4 1_555 1_555
C39 O19 1_555 1_555
C40 C39 1_555 1_555
C41 N7 1_555 1_555
H26 C41 1_555 1_555
C42 N7 1_555 1_555
H27 C42 1_555 1_555
C43 C42 1_555 1_555
H28 C43 1_555 1_555
C44 C40 1_555 1_555
H29 C44 1_555 1_555
Cd8_2 O11 1_555 1_555
Cd10 O10 1_555 1_555
O33 Cd1_2 1_555 1_555
O34 Cd4 1_555 1_555
O36 Cd4 1_555 1_555
O38 Cd1_2 1_555 1_555
O11 Cd10 1_555 1_555
C23 C26 1_555 1_555
C24 C25 1_555 1_555
Cd4 O33 1_555 1_555
Cd4 O38 1_555 1_555
N6 C39 1_555 1_555
C40 C41 1_555 1_555
C43 C44 1_555 1_555
O28 H42 1_555 1_555
H20 C30 1_555 1_555
O15 C27 1_555 1_555
O16 C27 1_555 1_555
C27 C28 1_555 1_555
C34 C35 1_555 1_555
C35 H22 1_555 1_555
C36 C35 1_555 1_555
H23 C36 1_555 1_555
H24 C37 1_555 1_555
H25 C38 1_555 1_555
Cd8_2 O15 1_555 1_555
Cd10 O15 1_555 1_555
O16 Cd10 1_555 1_555
C34 C38 1_555 1_555
C36 C37 1_555 1_555
C31 C46 1_555 1_555
O24 C46 1_555 1_555
O25 C46 1_555 1_555
C51 C31 1_555 1_555
H36 C51 1_555 1_555
Cd8 O25 1_555 1_555
Cd11 O24 1_555 1_555
O25 Cd11 1_555 1_555
H19 C29 1_555 1_555
Cd5 O18 1_555 1_555
O17 C32 1_555 1_555
O18 C33 1_555 1_555
O20 Cd5 1_555 1_555
O21 N8 1_555 1_555
O22 N8 1_555 1_555
O23 Cd5 1_555 1_555
N5 Cd5 1_555 1_555
N8 O20 1_555 1_555
C32 C33 1_555 1_555
C45 O17 1_555 1_555
H30 C45 1_555 1_555
H31 C45 1_555 1_555
H32 C45 1_555 1_555
Cd13 O17 1_555 1_555
O30 Cd5 1_555 1_555
O32 Cd5 1_555 1_555
O18 Cd13 1_555 1_555
Cd13 O32 1_555 1_555
O23 H43 1_555 1_555
O23 H44 1_555 1_555
O15_2 C27_2 1_555 1_555
O16_2 C27_2 1_555 1_555
C27_2 C28_2 1_555 1_555
Cd8 O15_2 1_555 1_555
Cd11 O15_2 1_555 1_555
O16_2 Cd11 1_555 1_555
H13_2 C18_2 1_555 1_555
C30_2 C18_2 1_555 1_555
H20_2 C30_2 1_555 1_555
H14_2 C19_2 1_555 1_555
C29_2 C19_2 1_555 1_555
H19_2 C29_2 1_555 1_555
O14 H42_2 1_555 1_555
O33 C16_2 1_555 1_555
C16_2 O34 1_555 1_555
C17_2 C16_2 1_555 1_555
O28 H40_2 1_555 1_555
Cd3_2 O2_2 1_555 1_555
O1_2 C2_2 1_555 1_555
O2_2 C3_2 1_555 1_555
O4_2 Cd3_2 1_555 1_555
O5_2 N4_2 1_555 1_555
O6_2 N4_2 1_555 1_555
O7_2 Cd3_2 1_555 1_555
N1_2 Cd3_2 1_555 1_555
N4_2 O4_2 1_555 1_555
C2_2 C3_2 1_555 1_555
C3_2 C4_2 1_555 1_555
C4_2 C5_2 1_555 1_555
C5_2 H2_2 1_555 1_555
C6_2 C5_2 1_555 1_555
H3_2 C6_2 1_555 1_555
C7_2 C2_2 1_555 1_555
H4_2 C7_2 1_555 1_555
C8_2 N1_2 1_555 1_555
H5_2 C8_2 1_555 1_555
C15_2 O1_2 1_555 1_555
H10_2 C15_2 1_555 1_555
H11_2 C15_2 1_555 1_555
H12_2 C15_2 1_555 1_555
Cd12_2 O1_2 1_555 1_555
O29_2 Cd3_2 1_555 1_555
O31_2 Cd3_2 1_555 1_555
O2_2 Cd12_2 1_555 1_555
C4_2 C8_2 1_555 1_555
C6_2 C7_2 1_555 1_555
Cd12_2 O31_2 1_555 1_555
O7_2 H37_2 1_555 1_555
O7_2 H38_2 1_555 1_555
C1_2 C20_2 1_555 1_555
O10_2 C20_2 1_555 1_555
O11_2 C20_2 1_555 1_555
C25_2 C1_2 1_555 1_555
H18_2 C25_2 1_555 1_555
Cd8_3 O11_2 1_555 1_555
Cd10_2 O10_2 1_555 1_555
O11_2 Cd10_2 1_555 1_555
Cd1_3 O8_2 1_555 1_555
Cd2_2 O8_2 1_555 1_555
O8_2 C16_3 1_555 1_555
O9_2 Cd2_2 1_555 1_555
O12_2 Cd1_3 1_555 1_555
O13_2 C26_2 1_555 1_555
O14_2 Cd2_2 1_555 1_555
H1_2 N2_2 1_555 1_555
N3_2 Cd2_2 1_555 1_555
C9_2 O3_2 1_555 1_555
C10_2 C9_2 1_555 1_555
C11_2 N3_2 1_555 1_555
H6_2 C11_2 1_555 1_555
C12_2 N3_2 1_555 1_555
H7_2 C12_2 1_555 1_555
C13_2 C12_2 1_555 1_555
H8_2 C13_2 1_555 1_555
C14_2 C10_2 1_555 1_555
H9_2 C14_2 1_555 1_555
C16_3 O9_2 1_555 1_555
C17_3 C16_3 1_555 1_555
C18_3 C17_3 1_555 1_555
H13_3 C18_3 1_555 1_555
C19_3 C17_3 1_555 1_555
H14_3 C19_3 1_555 1_555
C24_2 C23_2 1_555 1_555
H17_2 C24_2 1_555 1_555
C26_2 O12_2 1_555 1_555
O15_3 C27_3 1_555 1_555
O16_3 C27_3 1_555 1_555
C27_3 C28_3 1_555 1_555
C28_3 C29_3 1_555 1_555
C29_3 C19_3 1_555 1_555
H19_3 C29_3 1_555 1_555
C30_3 C18_3 1_555 1_555
H20_3 C30_3 1_555 1_555
Cd4_2 O13_2 1_555 1_555
Cd5_2 O18_2 1_555 1_555
O17_2 C32_2 1_555 1_555
O18_2 C33_2 1_555 1_555
O19_2 Cd5_2 1_555 1_555
O20_2 Cd5_2 1_555 1_555
O21_2 N8_2 1_555 1_555
O22_2 N8_2 1_555 1_555
O23_2 Cd5_2 1_555 1_555
O26_2 Cd1_3 1_555 1_555
O27_2 Cd2_2 1_555 1_555
O28_2 Cd4_2 1_555 1_555
N5_2 Cd5_2 1_555 1_555
N6_2 N5_2 1_555 1_555
H21_2 N6_2 1_555 1_555
N7_2 Cd4_2 1_555 1_555
N8_2 O20_2 1_555 1_555
C32_2 C33_2 1_555 1_555
C33_2 C34_2 1_555 1_555
C34_2 C35_2 1_555 1_555
C35_2 H22_2 1_555 1_555
C36_2 C35_2 1_555 1_555
H23_2 C36_2 1_555 1_555
C37_2 C32_2 1_555 1_555
H24_2 C37_2 1_555 1_555
C38_2 N5_2 1_555 1_555
H25_2 C38_2 1_555 1_555
C39_2 O19_2 1_555 1_555
C40_2 C39_2 1_555 1_555
C41_2 N7_2 1_555 1_555
H26_2 C41_2 1_555 1_555
C42_2 N7_2 1_555 1_555
H27_2 C42_2 1_555 1_555
C43_2 C42_2 1_555 1_555
H28_2 C43_2 1_555 1_555
C44_2 C40_2 1_555 1_555
H29_2 C44_2 1_555 1_555
C45_2 O17_2 1_555 1_555
H32_2 C45_2 1_555 1_555
C50_2 C49_2 1_555 1_555
H35_2 C50_2 1_555 1_555
C52_2 O26_2 1_555 1_555
Cd8_3 O15_3 1_555 1_555
Cd10_2 O15_3 1_555 1_555
Cd13_2 O17_2 1_555 1_555
O30_2 Cd5_2 1_555 1_555
O32_2 Cd5_2 1_555 1_555
O33_2 Cd1_3 1_555 1_555
O34_2 Cd4_2 1_555 1_555
O35_2 Cd2_2 1_555 1_555
O36_2 Cd4_2 1_555 1_555
O37_2 Cd1_3 1_555 1_555
O38_2 Cd1_3 1_555 1_555
Cd2_2 O37_2 1_555 1_555
N2_2 C9_2 1_555 1_555
C10_2 C11_2 1_555 1_555
C13_2 C14_2 1_555 1_555
C23_2 C26_2 1_555 1_555
O16_3 Cd10_2 1_555 1_555
C28_3 C30_3 1_555 1_555
Cd4_2 O33_2 1_555 1_555
Cd4_2 O38_2 1_555 1_555
O18_2 Cd13_2 1_555 1_555
O27_2 C52_2 1_555 1_555
N6_2 C39_2 1_555 1_555
C34_2 C38_2 1_555 1_555
C36_2 C37_2 1_555 1_555
C40_2 C41_2 1_555 1_555
C43_2 C44_2 1_555 1_555
C49_2 C52_2 1_555 1_555
Cd13_2 O32_2 1_555 1_555
O23_2 H43_2 1_555 1_555
O23_2 H44_2 1_555 1_555
C22_2 C21_2 1_555 1_555
H16_2 C22_2 1_555 1_555
C31_2 C46_2 1_555 1_555
O24_2 C46_2 1_555 1_555
O25_2 C46_2 1_555 1_555
C47_2 C31_2 1_555 1_555
H33_2 C47_2 1_555 1_555
C48_2 C47_2 1_555 1_555
H34_2 C48_2 1_555 1_555
C51_2 C31_2 1_555 1_555
H36_2 C51_2 1_555 1_555
Cd8_3 O25_2 1_555 1_555
Cd11_2 O24_2 1_555 1_555
O25_2 Cd11_2 1_555 1_555
O15_4 C27_4 1_555 1_555
O16_4 C27_4 1_555 1_555
C27_4 C28_4 1_555 1_555
C28_4 C29_4 1_555 1_555
H19_4 C29_4 1_555 1_555
H20_4 C30_4 1_555 1_555
Cd8_3 O15_4 1_555 1_555
Cd11_2 O15_4 1_555 1_555
O16_4 Cd11_2 1_555 1_555
C28_4 C30_4 1_555 1_555
O33_2 C16_4 1_555 1_555
C16_4 O34_2 1_555 1_555
C17_4 C16_4 1_555 1_555
C18_4 C17_4 1_555 1_555
H13_4 C18_4 1_555 1_555
C19_4 C17_4 1_555 1_555
H14_4 C19_4 1_555 1_555
O30_2 C32_3 1_555 1_555
O32_2 C33_3 1_555 1_555
O20_3 Cd13_2 1_555 1_555
O21_3 N8_3 1_555 1_555
O22_3 N8_3 1_555 1_555
O23_3 Cd13_2 1_555 1_555
N5_3 Cd13_2 1_555 1_555
N8_3 O20_3 1_555 1_555
C32_3 C33_3 1_555 1_555
C45_3 O30_2 1_555 1_555
H30_2 C45_3 1_555 1_555
H31_2 C45_3 1_555 1_555
H32_3 C45_3 1_555 1_555
O23_3 H43_3 1_555 1_555
O23_3 H44_3 1_555 1_555
C31_3 C46_3 1_555 1_555
O36 C46_3 1_555 1_555
O38 C46_3 1_555 1_555
C51_3 C31_3 1_555 1_555
H36_3 C51_3 1_555 1_555
C34_3 C35_3 1_555 1_555
C35_3 H22_3 1_555 1_555
C36_3 C35_3 1_555 1_555
H23_3 C36_3 1_555 1_555
H24_3 C37_3 1_555 1_555
H25_3 C38_3 1_555 1_555
C34_3 C38_3 1_555 1_555
C36_3 C37_3 1_555 1_555
C1_3 C20_3 1_555 1_555
O35 C20_3 1_555 1_555
O37 C20_3 1_555 1_555
O12_3 Cd8 1_555 1_555
O13_3 C26_3 1_555 1_555
C21_3 C1_3 1_555 1_555
H15_3 C21_3 1_555 1_555
C22_3 C21_3 1_555 1_555
H16_3 C22_3 1_555 1_555
C23_3 C22_3 1_555 1_555
C24_3 C23_3 1_555 1_555
H17_3 C24_3 1_555 1_555
C25_3 C1_3 1_555 1_555
H18_3 C25_3 1_555 1_555
C26_3 O12_3 1_555 1_555
Cd11 O13_3 1_555 1_555
O28_3 Cd11 1_555 1_555
H21_3 N6_3 1_555 1_555
N7_3 Cd11 1_555 1_555
C39_3 O19_3 1_555 1_555
C40_3 C39_3 1_555 1_555
C41_3 N7_3 1_555 1_555
H26_3 C41_3 1_555 1_555
C42_3 N7_3 1_555 1_555
H27_3 C42_3 1_555 1_555
C43_3 C42_3 1_555 1_555
H28_3 C43_3 1_555 1_555
C44_3 C40_3 1_555 1_555
H29_3 C44_3 1_555 1_555
C23_3 C26_3 1_555 1_555
C24_3 C25_3 1_555 1_555
N6_3 C39_3 1_555 1_555
C40_3 C41_3 1_555 1_555
C43_3 C44_3 1_555 1_555
O28_3 H42_3 1_555 1_555
O29_2 C2_3 1_555 1_555
O31_2 C3_3 1_555 1_555
O3_3 Cd12_2 1_555 1_555
O4_3 Cd12_2 1_555 1_555
O5_3 N4_3 1_555 1_555
O6_3 N4_3 1_555 1_555
O7_3 Cd12_2 1_555 1_555
O14_3 Cd10 1_555 1_555
N1_3 Cd12_2 1_555 1_555
N2_3 N1_3 1_555 1_555
H1_3 N2_3 1_555 1_555
N3_3 Cd10 1_555 1_555
N4_3 O4_3 1_555 1_555
C2_3 C3_3 1_555 1_555
C9_3 O3_3 1_555 1_555
C10_3 C9_3 1_555 1_555
C11_3 N3_3 1_555 1_555
H6_3 C11_3 1_555 1_555
C12_3 N3_3 1_555 1_555
H7_3 C12_3 1_555 1_555
C13_3 C12_3 1_555 1_555
H8_3 C13_3 1_555 1_555
C14_3 C10_3 1_555 1_555
H9_3 C14_3 1_555 1_555
C15_3 O29_2 1_555 1_555
H12_3 C15_3 1_555 1_555
O26_3 Cd8_2 1_555 1_555
O27_3 Cd10 1_555 1_555
C48_3 C47_3 1_555 1_555
H34_3 C48_3 1_555 1_555
C49_3 C48_3 1_555 1_555
C50_3 C49_3 1_555 1_555
H35_3 C50_3 1_555 1_555
C52_3 O26_3 1_555 1_555
N2_3 C9_3 1_555 1_555
C10_3 C11_3 1_555 1_555
C13_3 C14_3 1_555 1_555
O27_3 C52_3 1_555 1_555
C49_3 C52_3 1_555 1_555
O7_3 H37_3 1_555 1_555
O7_3 H38_3 1_555 1_555
O14_3 H40_3 1_555 1_555
C4_3 C5_3 1_555 1_555
C5_3 H2_3 1_555 1_555
C6_3 C5_3 1_555 1_555
H3_3 C6_3 1_555 1_555
H4_3 C7_3 1_555 1_555
H5_3 C8_3 1_555 1_555
C4_3 C8_3 1_555 1_555
C6_3 C7_3 1_555 1_555
O28_3 H40_4 1_555 1_555
O14_3 H42_4 1_555 1_555
C22_4 C21_4 1_555 1_555
H16_4 C22_4 1_555 1_555
C31_4 C46_4 1_555 1_555
O36_2 C46_4 1_555 1_555
O38_2 C46_4 1_555 1_555
C47_4 C31_4 1_555 1_555
H33_4 C47_4 1_555 1_555
C48_4 C47_4 1_555 1_555
H34_4 C48_4 1_555 1_555
C51_4 C31_4 1_555 1_555
H36_4 C51_4 1_555 1_555
O12_4 Cd8_3 1_555 1_555
O13_4 C26_4 1_555 1_555
O14_4 Cd10_2 1_555 1_555
H1_4 N2_4 1_555 1_555
N3_4 Cd10_2 1_555 1_555
C9_4 O3_4 1_555 1_555
C10_4 C9_4 1_555 1_555
C11_4 N3_4 1_555 1_555
H6_4 C11_4 1_555 1_555
C12_4 N3_4 1_555 1_555
H7_4 C12_4 1_555 1_555
C13_4 C12_4 1_555 1_555
H8_4 C13_4 1_555 1_555
C14_4 C10_4 1_555 1_555
H9_4 C14_4 1_555 1_555
C24_4 C23_4 1_555 1_555
H17_4 C24_4 1_555 1_555
C26_4 O12_4 1_555 1_555
Cd11_2 O13_4 1_555 1_555
O30 C32_4 1_555 1_555
O32 C33_4 1_555 1_555
O19_4 Cd13 1_555 1_555
O20_4 Cd13 1_555 1_555
O21_4 N8_4 1_555 1_555
O22_4 N8_4 1_555 1_555
O23_4 Cd13 1_555 1_555
O26_4 Cd8_3 1_555 1_555
O27_4 Cd10_2 1_555 1_555
O28_4 Cd11_2 1_555 1_555
N5_4 Cd13 1_555 1_555
N6_4 N5_4 1_555 1_555
H21_4 N6_4 1_555 1_555
N7_4 Cd11_2 1_555 1_555
N8_4 O20_4 1_555 1_555
C32_4 C33_4 1_555 1_555
C33_4 C34_4 1_555 1_555
C34_4 C35_4 1_555 1_555
C35_4 H22_4 1_555 1_555
C36_4 C35_4 1_555 1_555
H23_4 C36_4 1_555 1_555
C37_4 C32_4 1_555 1_555
H24_4 C37_4 1_555 1_555
C38_4 N5_4 1_555 1_555
H25_4 C38_4 1_555 1_555
C39_4 O19_4 1_555 1_555
C40_4 C39_4 1_555 1_555
C41_4 N7_4 1_555 1_555
H26_4 C41_4 1_555 1_555
C42_4 N7_4 1_555 1_555
H27_4 C42_4 1_555 1_555
C43_4 C42_4 1_555 1_555
H28_4 C43_4 1_555 1_555
C44_4 C40_4 1_555 1_555
H29_4 C44_4 1_555 1_555
C45_4 O30 1_555 1_555
H32_4 C45_4 1_555 1_555
C50_4 C49_4 1_555 1_555
H35_4 C50_4 1_555 1_555
C52_4 O26_4 1_555 1_555
N2_4 C9_4 1_555 1_555
C10_4 C11_4 1_555 1_555
C13_4 C14_4 1_555 1_555
C23_4 C26_4 1_555 1_555
O27_4 C52_4 1_555 1_555
N6_4 C39_4 1_555 1_555
C34_4 C38_4 1_555 1_555
C36_4 C37_4 1_555 1_555
C40_4 C41_4 1_555 1_555
C43_4 C44_4 1_555 1_555
C49_4 C52_4 1_555 1_555
O23_4 H43_4 1_555 1_555
O23_4 H44_4 1_555 1_555
C1_4 C20_4 1_555 1_555
O35_2 C20_4 1_555 1_555
O37_2 C20_4 1_555 1_555
C25_4 C1_4 1_555 1_555
H18_4 C25_4 1_555 1_555
O29 C2_4 1_555 1_555
O31 C3_4 1_555 1_555
O4_4 Cd12 1_555 1_555
O5_4 N4_4 1_555 1_555
O6_4 N4_4 1_555 1_555
O7_4 Cd12 1_555 1_555
N1_4 Cd12 1_555 1_555
N4_4 O4_4 1_555 1_555
C2_4 C3_4 1_555 1_555
C3_4 C4_4 1_555 1_555
C4_4 C5_4 1_555 1_555
C5_4 H2_4 1_555 1_555
C6_4 C5_4 1_555 1_555
H3_4 C6_4 1_555 1_555
C7_4 C2_4 1_555 1_555
H4_4 C7_4 1_555 1_555
C8_4 N1_4 1_555 1_555
H5_4 C8_4 1_555 1_555
C15_4 O29 1_555 1_555
H10_3 C15_4 1_555 1_555
H11_3 C15_4 1_555 1_555
H12_4 C15_4 1_555 1_555
C4_4 C8_4 1_555 1_555
C6_4 C7_4 1_555 1_555
O7_4 H37_4 1_555 1_555
O7_4 H38_4 1_555 1_555

#END
