
###############################################################################
#
# This file contains modified crystal structure data generated from the
# MOF subset of the Cambridge Structural Database (CSD) v543 
# hosted by the Cambridge Crystallographic Data Centre (CCDC).
#
# This work is licensed under the Creative Commons
# Attribution-NonCommercial-ShareAlike 4.0 International License.
# To view a copy of this license, visit
# http://creativecommons.org/licenses/by-nc-sa/4.0/
# or send a letter to
# Creative Commons, PO Box 1866, Mountain View, CA 94042, USA.
#
# CIF created using the CSD Python API on 29 September 2022
# The structure has been converted into the P1 space group
# The structure has a 3D framework
# The original CSD entry LEKNUN is in the orthorhombic crystal system
# The framework has been calculated to contain at least 10.0% void space
# The void calculation uses a probe of radius 1.32A, grid spacing 0.4
#
###############################################################################

data_LEKNUN
_chemical_formula_moiety         '(C168 H104 O52 P8 Zn8)n'
_symmetry_cell_setting           triclinic
_symmetry_space_group_name_H-M   'P 1'
_symmetry_Int_Tables_number      1
_space_group_name_Hall           'P 1'
loop_
_symmetry_equiv_pos_site_id
_symmetry_equiv_pos_as_xyz
1 x,y,z
_cell_length_a                   16.3342(12)
_cell_length_b                   23.5757(17)
_cell_length_c                   14.5771(11)
_cell_angle_alpha                90
_cell_angle_beta                 90
_cell_angle_gamma                90
_cell_volume                     5613.5
loop_
_atom_site_label
_atom_site_type_symbol
_atom_site_fract_x
_atom_site_fract_y
_atom_site_fract_z
Zn1 Zn 0.067463(19) 0.146787(14) 0.18369(2)
P1 P 0.23577(4) 0.11085(3) 0.07586(5)
O6 O 0.4517(2) 0.05911(16) 0.4617(2)
O7 O 0.16686(13) 0.14727(8) 0.10917(15)
C1 C 0.30006(18) 0.15480(12) 0.0065(2)
C2 C 0.3842(2) 0.15626(15) 0.0132(3)
H2 H 0.4115 0.1311 0.0517
C8 C 0.19902(17) 0.05271(12) 0.0086(2)
C13 C 0.1410(2) 0.01681(14) 0.0486(2)
H9 H 0.1287 0.0201 0.1106
C15 C 0.29560(18) 0.08344(13) 0.1693(2)
C16 C 0.3323(2) 0.03042(16) 0.1670(2)
H10 H 0.3263 0.0074 0.1156
C17 C 0.3780(2) 0.01166(17) 0.2414(3)
C18 C 0.3875(2) 0.04613(18) 0.3171(2)
C19 C 0.3512(3) 0.0988(2) 0.3205(3)
H12 H 0.3577 0.1216 0.3720
C20 C 0.3047(3) 0.11783(17) 0.2468(3)
H13 H 0.2798 0.1533 0.2490
C21 C 0.4361(2) 0.0257(2) 0.3994(3)
O8 O 0.00940(14) 0.21571(10) 0.12962(18)
O9 O 0.10443(15) 0.19761(10) 0.28908(17)
O10 O 0.09890(14) 0.07848(9) 0.26424(15)
O1 O 0.50940(14) 0.28429(10) 0.87038(18)
O2 O 0.39557(15) 0.30239(10) 0.78908(17)
C3 C 0.4282(2) 0.19595(18) 0.9616(3)
H3 H 0.4849 0.1974 0.9667
C4 C 0.38905(18) 0.23270(13) 0.9036(2)
C5 C 0.3043(2) 0.22926(19) 0.8951(3)
H4 H 0.2770 0.2529 0.8542
C6 C 0.2611(2) 0.19115(18) 0.9467(3)
H5 H 0.2044 0.1897 0.9414
C7 C 0.43447(19) 0.27639(14) 0.8488(2)
C9 C 0.2186(2) 0.04612(15) 0.9167(2)
H6 H 0.2579 0.0694 0.8898
C10 C 0.1797(2) 0.00480(15) 0.8646(2)
H7 H 0.1938 0.0002 0.8033
Zn2 Zn 0.432537(19) 0.353213(14) 0.68369(2)
Zn3 Zn 0.567463(19) 0.353213(14) 0.81631(2)
O3 O 0.09890(14) 0.92152(9) 0.76424(15)
O4 O 0.01586(13) 0.90251(9) 0.88261(15)
C11 C 0.12008(18) 0.97047(13) 0.9030(2)
C12 C 0.1021(2) 0.97646(14) 0.9955(2)
C14 C 0.07512(18) 0.92817(13) 0.8450(2)
Zn5 Zn 0.067463(19) 0.853213(14) 0.68369(2)
O11 O 0.98414(13) 0.09749(9) 0.11739(15)
Zn4 Zn 0.932537(19) 0.853213(14) 0.81631(2)
P1_2 P 0.26423(4) 0.38915(3) 0.57586(5)
O3_2 O 0.40110(14) 0.57848(9) 0.26424(15)
O4_2 O 0.48414(13) 0.59749(9) 0.38261(15)
O5 O 0.0413(2) 0.52644(15) 0.8970(2)
H1 H 0.0155 0.5340 0.9437
O6_2 O 0.0483(2) 0.44089(16) 0.9617(2)
O7_2 O 0.33314(13) 0.35273(8) 0.60917(15)
C1_2 C 0.19994(18) 0.34520(12) 0.5065(2)
C2_2 C 0.1158(2) 0.34374(15) 0.5132(3)
H2_2 H 0.0885 0.3689 0.5517
C3_2 C 0.0718(2) 0.30405(18) 0.4616(3)
H3_2 H 0.0151 0.3026 0.4667
C4_2 C 0.11095(18) 0.26730(13) 0.4036(2)
C5_2 C 0.1957(2) 0.27074(19) 0.3951(3)
H4_2 H 0.2230 0.2471 0.3542
C6_2 C 0.2389(2) 0.30885(18) 0.4467(3)
H5_2 H 0.2956 0.3103 0.4414
C7_2 C 0.06553(19) 0.22361(14) 0.3488(2)
C8_2 C 0.30098(17) 0.44729(12) 0.5086(2)
C9_2 C 0.2814(2) 0.45388(15) 0.4167(2)
H6_2 H 0.2421 0.4306 0.3898
C10_2 C 0.3203(2) 0.49520(15) 0.3646(2)
H7_2 H 0.3062 0.4998 0.3033
C11_2 C 0.37992(18) 0.52953(13) 0.4030(2)
C12_2 C 0.3979(2) 0.52354(14) 0.4955(2)
H8 H 0.4367 0.5471 0.5223
C13_2 C 0.3590(2) 0.48319(14) 0.5486(2)
H9_2 H 0.3713 0.4799 0.6106
C14_2 C 0.42488(18) 0.57183(13) 0.3450(2)
C15_2 C 0.20440(18) 0.41656(13) 0.6693(2)
C16_2 C 0.1677(2) 0.46958(16) 0.6670(2)
H10_2 H 0.1737 0.4926 0.6156
C17_2 C 0.1220(2) 0.48834(17) 0.7414(3)
H11 H 0.0979 0.5241 0.7402
C18_2 C 0.1125(2) 0.45387(18) 0.8171(2)
C19_2 C 0.1488(3) 0.4012(2) 0.8205(3)
H12_2 H 0.1423 0.3784 0.8720
C20_2 C 0.1953(3) 0.38217(17) 0.7468(3)
H13_2 H 0.2202 0.3467 0.7490
C21_2 C 0.0639(2) 0.4743(2) 0.8994(3)
Zn4_2 Zn 0.567463(19) 0.646787(14) 0.31631(2)
Zn5_2 Zn 0.432537(19) 0.646787(14) 0.18369(2)
O8_2 O 0.49060(14) 0.28429(10) 0.62962(18)
O10_2 O 0.40110(14) 0.42152(9) 0.76424(15)
O11_2 O 0.51586(13) 0.40251(9) 0.61739(15)
O1_2 O 0.99060(14) 0.21571(10) 0.37038(18)
Zn3_2 Zn 0.932537(19) 0.146787(14) 0.31631(2)
O2_2 O 0.89557(15) 0.19761(10) 0.21092(17)
O3_3 O 0.59890(14) 0.57848(9) 0.23576(15)
O4_3 O 0.51586(13) 0.59749(9) 0.11739(15)
C3_3 C 0.9282(2) 0.30405(18) 0.0384(3)
H3_3 H 0.9849 0.3026 0.0333
C4_3 C 0.88905(18) 0.26730(13) 0.0964(2)
C5_3 C 0.8043(2) 0.27074(19) 0.1049(3)
H4_3 H 0.7770 0.2471 0.1458
C6_3 C 0.7611(2) 0.30885(18) 0.0533(3)
H5_3 H 0.7044 0.3103 0.0586
C7_3 C 0.93447(19) 0.22361(14) 0.1512(2)
C9_3 C 0.7186(2) 0.45388(15) 0.0833(2)
H6_3 H 0.7579 0.4306 0.1102
C10_3 C 0.6797(2) 0.49520(15) 0.1354(2)
H7_3 H 0.6938 0.4998 0.1967
C11_3 C 0.62008(18) 0.52953(13) 0.0970(2)
C12_3 C 0.6021(2) 0.52354(14) 0.0045(2)
C14_3 C 0.57512(18) 0.57183(13) 0.1550(2)
P1_3 P 0.73577(4) 0.38915(3) 0.92414(5)
O5_2 O 0.9587(2) 0.52644(15) 0.6030(2)
H1_2 H 0.9845 0.5340 0.5563
O6_3 O 0.9517(2) 0.44089(16) 0.5383(2)
O7_3 O 0.66686(13) 0.35273(8) 0.89083(15)
C1_3 C 0.80006(18) 0.34520(12) 0.9935(2)
C2_3 C 0.8842(2) 0.34374(15) 0.9868(3)
H2_3 H 0.9115 0.3689 0.9483
C8_3 C 0.69902(17) 0.44729(12) 0.9914(2)
H8_2 H 0.5633 0.5471 0.9777
C13_3 C 0.6410(2) 0.48319(14) 0.9514(2)
H9_3 H 0.6287 0.4799 0.8894
C15_3 C 0.79560(18) 0.41656(13) 0.8307(2)
C16_3 C 0.8323(2) 0.46958(16) 0.8330(2)
H10_3 H 0.8263 0.4926 0.8844
C17_3 C 0.8780(2) 0.48834(17) 0.7586(3)
H11_2 H 0.9021 0.5241 0.7598
C18_3 C 0.8875(2) 0.45387(18) 0.6829(2)
C19_3 C 0.8512(3) 0.4012(2) 0.6795(3)
H12_3 H 0.8577 0.3784 0.6280
C20_3 C 0.8047(3) 0.38217(17) 0.7532(3)
H13_3 H 0.7798 0.3467 0.7510
C21_3 C 0.9361(2) 0.4743(2) 0.6006(3)
O9_2 O 0.60443(15) 0.30239(10) 0.71092(17)
O10_3 O 0.59890(14) 0.42152(9) 0.73576(15)
O11_3 O 0.48414(13) 0.40251(9) 0.88261(15)
O11_4 O 0.01586(13) 0.09749(9) 0.38261(15)
P1_4 P 0.76423(4) 0.11085(3) 0.42414(5)
O6_4 O 0.5483(2) 0.05911(16) 0.0383(2)
O7_4 O 0.83314(13) 0.14727(8) 0.39083(15)
C1_4 C 0.69994(18) 0.15480(12) 0.4935(2)
C2_4 C 0.6158(2) 0.15626(15) 0.4868(3)
H2_4 H 0.5885 0.1311 0.4483
C3_4 C 0.5718(2) 0.19595(18) 0.5384(3)
H3_4 H 0.5151 0.1974 0.5333
C4_4 C 0.61095(18) 0.23270(13) 0.5964(2)
C5_4 C 0.6957(2) 0.22926(19) 0.6049(3)
H4_4 H 0.7230 0.2529 0.6458
C6_4 C 0.7389(2) 0.19115(18) 0.5533(3)
H5_4 H 0.7956 0.1897 0.5586
C7_4 C 0.56553(19) 0.27639(14) 0.6512(2)
C8_4 C 0.80098(17) 0.05271(12) 0.4914(2)
C9_4 C 0.7814(2) 0.04612(15) 0.5833(2)
H6_4 H 0.7421 0.0694 0.6102
C10_4 C 0.8203(2) 0.00480(15) 0.6354(2)
H7_4 H 0.8062 0.0002 0.6967
C13_4 C 0.8590(2) 0.01681(14) 0.4514(2)
H9_4 H 0.8713 0.0201 0.3894
C15_4 C 0.70440(18) 0.08344(13) 0.3307(2)
C16_4 C 0.6677(2) 0.03042(16) 0.3330(2)
H10_4 H 0.6737 0.0074 0.3844
C17_4 C 0.6220(2) 0.01166(17) 0.2586(3)
C18_4 C 0.6125(2) 0.04613(18) 0.1829(2)
C19_4 C 0.6488(3) 0.0988(2) 0.1795(3)
H12_4 H 0.6423 0.1216 0.1280
C20_4 C 0.6953(3) 0.11783(17) 0.2532(3)
H13_4 H 0.7202 0.1533 0.2510
C21_4 C 0.5639(2) 0.0257(2) 0.1006(3)
O10_4 O 0.90110(14) 0.07848(9) 0.23576(15)
O3_4 O 0.90110(14) 0.92152(9) 0.73576(15)
O4_4 O 0.98414(13) 0.90251(9) 0.61739(15)
O5_3 O 0.5413(2) 0.97356(15) 0.1030(2)
H1_3 H 0.5155 0.9660 0.0563
C11_4 C 0.87992(18) 0.97047(13) 0.5970(2)
C12_4 C 0.8979(2) 0.97646(14) 0.5045(2)
H8_3 H 0.9367 0.9529 0.4777
C14_4 C 0.92488(18) 0.92817(13) 0.6550(2)
H11_3 H 0.5979 0.9759 0.2598
C11_5 C 0.87992(18) 0.02953(13) 0.0970(2)
C12_5 C 0.8979(2) 0.02354(14) 0.0045(2)
C14_5 C 0.92488(18) 0.07183(13) 0.1550(2)
O1_3 O 0.49060(14) 0.71571(10) 0.12962(18)
O2_3 O 0.60443(15) 0.69761(10) 0.21092(17)
C3_5 C 0.5718(2) 0.80405(18) 0.0384(3)
H3_5 H 0.5151 0.8026 0.0333
C4_5 C 0.61095(18) 0.76730(13) 0.0964(2)
C5_5 C 0.6957(2) 0.77074(19) 0.1049(3)
H4_5 H 0.7230 0.7471 0.1458
C6_5 C 0.7389(2) 0.80885(18) 0.0533(3)
H5_5 H 0.7956 0.8103 0.0586
C7_5 C 0.56553(19) 0.72361(14) 0.1512(2)
C9_5 C 0.7814(2) 0.95388(15) 0.0833(2)
H6_5 H 0.7421 0.9306 0.1102
C10_5 C 0.8203(2) 0.99520(15) 0.1354(2)
H7_5 H 0.8062 0.9998 0.1967
P1_5 P 0.76423(4) 0.88915(3) 0.92414(5)
O6_5 O 0.5483(2) 0.94089(16) 0.5383(2)
O7_5 O 0.83314(13) 0.85273(8) 0.89083(15)
C1_5 C 0.69994(18) 0.84520(12) 0.9935(2)
C2_5 C 0.6158(2) 0.84374(15) 0.9868(3)
H2_5 H 0.5885 0.8689 0.9483
C8_5 C 0.80098(17) 0.94729(12) 0.9914(2)
C13_5 C 0.8590(2) 0.98319(14) 0.9514(2)
H9_5 H 0.8713 0.9799 0.8894
C15_5 C 0.70440(18) 0.91656(13) 0.8307(2)
C16_5 C 0.6677(2) 0.96958(16) 0.8330(2)
H10_5 H 0.6737 0.9926 0.8844
C17_5 C 0.6220(2) 0.98834(17) 0.7586(3)
C18_5 C 0.6125(2) 0.95387(18) 0.6829(2)
C19_5 C 0.6488(3) 0.9012(2) 0.6795(3)
H12_5 H 0.6423 0.8784 0.6280
C20_5 C 0.6953(3) 0.88217(17) 0.7532(3)
H13_5 H 0.7202 0.8467 0.7510
C21_5 C 0.5639(2) 0.9743(2) 0.6006(3)
O8_3 O 0.99060(14) 0.78429(10) 0.87038(18)
O9_3 O 0.89557(15) 0.80239(10) 0.71092(17)
O1_4 O 0.00940(14) 0.78429(10) 0.62962(18)
P1_6 P 0.73577(4) 0.61085(3) 0.42414(5)
O5_4 O 0.9587(2) 0.47356(15) 0.1030(2)
H1_4 H 0.9845 0.4660 0.0563
O6_6 O 0.9517(2) 0.55911(16) 0.0383(2)
O7_6 O 0.66686(13) 0.64727(8) 0.39083(15)
C1_6 C 0.80006(18) 0.65480(12) 0.4935(2)
C2_6 C 0.8842(2) 0.65626(15) 0.4868(3)
H2_6 H 0.9115 0.6311 0.4483
C3_6 C 0.9282(2) 0.69595(18) 0.5384(3)
H3_6 H 0.9849 0.6974 0.5333
C4_6 C 0.88905(18) 0.73270(13) 0.5964(2)
C5_6 C 0.8043(2) 0.72926(19) 0.6049(3)
H4_6 H 0.7770 0.7529 0.6458
C6_6 C 0.7611(2) 0.69115(18) 0.5533(3)
H5_6 H 0.7044 0.6897 0.5586
C7_6 C 0.93447(19) 0.77639(14) 0.6512(2)
C8_6 C 0.69902(17) 0.55271(12) 0.4914(2)
C9_6 C 0.7186(2) 0.54612(15) 0.5833(2)
H6_6 H 0.7579 0.5694 0.6102
C10_6 C 0.6797(2) 0.50480(15) 0.6354(2)
H7_6 H 0.6938 0.5002 0.6967
C11_6 C 0.62008(18) 0.47047(13) 0.5970(2)
C12_6 C 0.6021(2) 0.47646(14) 0.5045(2)
H8_4 H 0.5633 0.4529 0.4777
C13_6 C 0.6410(2) 0.51681(14) 0.4514(2)
H9_6 H 0.6287 0.5201 0.3894
C14_6 C 0.57512(18) 0.42817(13) 0.6550(2)
C15_6 C 0.79560(18) 0.58344(13) 0.3307(2)
C16_6 C 0.8323(2) 0.53042(16) 0.3330(2)
H10_6 H 0.8263 0.5074 0.3844
C17_6 C 0.8780(2) 0.51166(17) 0.2586(3)
H11_4 H 0.9021 0.4759 0.2598
C18_6 C 0.8875(2) 0.54613(18) 0.1829(2)
C19_6 C 0.8512(3) 0.5988(2) 0.1795(3)
H12_6 H 0.8577 0.6216 0.1280
C20_6 C 0.8047(3) 0.61783(17) 0.2532(3)
H13_6 H 0.7798 0.6533 0.2510
C21_6 C 0.9361(2) 0.5257(2) 0.1006(3)
O8_4 O 0.50940(14) 0.71571(10) 0.37038(18)
P1_7 P 0.26423(4) 0.61085(3) 0.07586(5)
O5_5 O 0.0413(2) 0.47356(15) 0.3970(2)
H1_5 H 0.0155 0.4660 0.4437
O6_7 O 0.0483(2) 0.55911(16) 0.4617(2)
O7_7 O 0.33314(13) 0.64727(8) 0.10917(15)
C1_7 C 0.19994(18) 0.65480(12) 0.0065(2)
C2_7 C 0.1158(2) 0.65626(15) 0.0132(3)
H2_7 H 0.0885 0.6311 0.0517
C8_7 C 0.30098(17) 0.55271(12) 0.0086(2)
H8_5 H 0.4367 0.4529 0.0223
C13_7 C 0.3590(2) 0.51681(14) 0.0486(2)
H9_7 H 0.3713 0.5201 0.1106
C15_7 C 0.20440(18) 0.58344(13) 0.1693(2)
C16_7 C 0.1677(2) 0.53042(16) 0.1670(2)
H10_7 H 0.1737 0.5074 0.1156
C17_7 C 0.1220(2) 0.51166(17) 0.2414(3)
H11_5 H 0.0979 0.4759 0.2402
C18_7 C 0.1125(2) 0.54613(18) 0.3171(2)
C19_7 C 0.1488(3) 0.5988(2) 0.3205(3)
H12_7 H 0.1423 0.6216 0.3720
C20_7 C 0.1953(3) 0.61783(17) 0.2468(3)
H13_7 H 0.2202 0.6533 0.2490
C21_7 C 0.0639(2) 0.5257(2) 0.3994(3)
O9_4 O 0.39557(15) 0.69761(10) 0.28908(17)
O2_4 O 0.10443(15) 0.80239(10) 0.78908(17)
C3_7 C 0.0718(2) 0.69595(18) 0.9616(3)
H3_7 H 0.0151 0.6974 0.9667
C4_7 C 0.11095(18) 0.73270(13) 0.9036(2)
C5_7 C 0.1957(2) 0.72926(19) 0.8951(3)
H4_7 H 0.2230 0.7529 0.8542
C6_7 C 0.2389(2) 0.69115(18) 0.9467(3)
H5_7 H 0.2956 0.6897 0.9414
C7_7 C 0.06553(19) 0.77639(14) 0.8488(2)
C9_7 C 0.2814(2) 0.54612(15) 0.9167(2)
H6_7 H 0.2421 0.5694 0.8898
C10_7 C 0.3203(2) 0.50480(15) 0.8646(2)
H7_7 H 0.3062 0.5002 0.8033
C11_7 C 0.37992(18) 0.47047(13) 0.9030(2)
C12_7 C 0.3979(2) 0.47646(14) 0.9955(2)
C14_7 C 0.42488(18) 0.42817(13) 0.8450(2)
O5_6 O 0.4587(2) 0.02644(15) 0.8970(2)
H1_6 H 0.4845 0.0340 0.9437
C11_8 C 0.12008(18) 0.02953(13) 0.4030(2)
C12_8 C 0.1021(2) 0.02354(14) 0.4955(2)
H8_6 H 0.0633 0.0471 0.5223
C14_8 C 0.07512(18) 0.07183(13) 0.3450(2)
H11_6 H 0.4021 0.0241 0.7402
P1_8 P 0.23577(4) 0.88915(3) 0.57586(5)
O6_8 O 0.4517(2) 0.94089(16) 0.9617(2)
O7_8 O 0.16686(13) 0.85273(8) 0.60917(15)
C1_8 C 0.30006(18) 0.84520(12) 0.5065(2)
C2_8 C 0.3842(2) 0.84374(15) 0.5132(3)
H2_8 H 0.4115 0.8689 0.5517
C3_8 C 0.4282(2) 0.80405(18) 0.4616(3)
H3_8 H 0.4849 0.8026 0.4667
C4_8 C 0.38905(18) 0.76730(13) 0.4036(2)
C5_8 C 0.3043(2) 0.77074(19) 0.3951(3)
H4_8 H 0.2770 0.7471 0.3542
C6_8 C 0.2611(2) 0.80885(18) 0.4467(3)
H5_8 H 0.2044 0.8103 0.4414
C7_8 C 0.43447(19) 0.72361(14) 0.3488(2)
C8_8 C 0.19902(17) 0.94729(12) 0.5086(2)
C9_8 C 0.2186(2) 0.95388(15) 0.4167(2)
H6_8 H 0.2579 0.9306 0.3898
C10_8 C 0.1797(2) 0.99520(15) 0.3646(2)
H7_8 H 0.1938 0.9998 0.3033
C13_8 C 0.1410(2) 0.98319(14) 0.5486(2)
H9_8 H 0.1287 0.9799 0.6106
C15_8 C 0.29560(18) 0.91656(13) 0.6693(2)
C16_8 C 0.3323(2) 0.96958(16) 0.6670(2)
H10_8 H 0.3263 0.9926 0.6156
C17_8 C 0.3780(2) 0.98834(17) 0.7414(3)
C18_8 C 0.3875(2) 0.95387(18) 0.8171(2)
C19_8 C 0.3512(3) 0.9012(2) 0.8205(3)
H12_8 H 0.3577 0.8784 0.8720
C20_8 C 0.3047(3) 0.88217(17) 0.7468(3)
H13_8 H 0.2798 0.8467 0.7490
C21_8 C 0.4361(2) 0.9743(2) 0.8994(3)
O5_7 O 0.4587(2) 0.97356(15) 0.3970(2)
H1_7 H 0.4845 0.9660 0.4437
H8_7 H 0.0633 0.9529 0.0223
H11_7 H 0.4021 0.9759 0.2402
O5_8 O 0.5413(2) 0.02644(15) 0.6030(2)
H1_8 H 0.5155 0.0340 0.5563
H8_8 H 0.9367 0.0471 0.9777
H11_8 H 0.5979 0.0241 0.7598
loop_
_geom_bond_atom_site_label_1
_geom_bond_atom_site_label_2
_geom_bond_site_symmetry_1
_geom_bond_site_symmetry_2
Zn1 O7 1_555 1_555
P1 O7 1_555 1_555
O6 C21 1_555 1_555
C1 P1 1_555 1_555
C2 C1 1_555 1_555
H2 C2 1_555 1_555
C8 P1 1_555 1_555
C13 C8 1_555 1_555
H9 C13 1_555 1_555
C15 P1 1_555 1_555
C16 C15 1_555 1_555
H10 C16 1_555 1_555
C17 C16 1_555 1_555
C18 C17 1_555 1_555
C19 C18 1_555 1_555
H12 C19 1_555 1_555
C20 C15 1_555 1_555
H13 C20 1_555 1_555
O8 Zn1 1_555 1_555
O9 Zn1 1_555 1_555
O10 Zn1 1_555 1_555
C18 C21 1_555 1_555
C19 C20 1_555 1_555
O1 C7 1_555 1_555
O2 C7 1_555 1_555
H3 C3 1_555 1_555
C4 C3 1_555 1_555
C5 C4 1_555 1_555
H4 C5 1_555 1_555
H5 C6 1_555 1_555
C7 C4 1_555 1_555
H6 C9 1_555 1_555
C10 C9 1_555 1_555
H7 C10 1_555 1_555
Zn2 O2 1_555 1_555
Zn3 O1 1_555 1_555
C5 C6 1_555 1_555
O3 C14 1_555 1_555
O4 C14 1_555 1_555
C12 C11 1_555 1_555
C14 C11 1_555 1_555
Zn5 O3 1_555 1_555
Zn2 O7_2 1_555 1_555
P1_2 O7_2 1_555 1_555
O9 C7_2 1_555 1_555
O3_2 C14_2 1_555 1_555
O4_2 C14_2 1_555 1_555
O5 H1 1_555 1_555
O6_2 C21_2 1_555 1_555
C1_2 P1_2 1_555 1_555
C2_2 C1_2 1_555 1_555
H2_2 C2_2 1_555 1_555
C3_2 C2_2 1_555 1_555
H3_2 C3_2 1_555 1_555
C4_2 C3_2 1_555 1_555
C5_2 C4_2 1_555 1_555
H4_2 C5_2 1_555 1_555
C6_2 C1_2 1_555 1_555
H5_2 C6_2 1_555 1_555
C7_2 C4_2 1_555 1_555
C8_2 P1_2 1_555 1_555
C9_2 C8_2 1_555 1_555
H6_2 C9_2 1_555 1_555
C10_2 C9_2 1_555 1_555
H7_2 C10_2 1_555 1_555
C11_2 C10_2 1_555 1_555
C12_2 C11_2 1_555 1_555
H8 C12_2 1_555 1_555
C13_2 C8_2 1_555 1_555
H9_2 C13_2 1_555 1_555
C14_2 C11_2 1_555 1_555
C15_2 P1_2 1_555 1_555
C16_2 C15_2 1_555 1_555
H10_2 C16_2 1_555 1_555
C17_2 C16_2 1_555 1_555
H11 C17_2 1_555 1_555
C18_2 C17_2 1_555 1_555
C19_2 C18_2 1_555 1_555
H12_2 C19_2 1_555 1_555
C20_2 C15_2 1_555 1_555
H13_2 C20_2 1_555 1_555
C21_2 O5 1_555 1_555
Zn4_2 O4_2 1_555 1_555
Zn5_2 O3_2 1_555 1_555
O8_2 Zn2 1_555 1_555
O10_2 Zn2 1_555 1_555
O11_2 Zn2 1_555 1_555
C5_2 C6_2 1_555 1_555
C12_2 C13_2 1_555 1_555
C18_2 C21_2 1_555 1_555
C19_2 C20_2 1_555 1_555
Zn3_2 O1_2 1_555 1_555
O2_2 C7_3 1_555 1_555
O3_3 C14_3 1_555 1_555
O4_3 C14_3 1_555 1_555
H3_3 C3_3 1_555 1_555
C4_3 C3_3 1_555 1_555
C5_3 C4_3 1_555 1_555
H4_3 C5_3 1_555 1_555
H5_3 C6_3 1_555 1_555
C7_3 C4_3 1_555 1_555
H6_3 C9_3 1_555 1_555
C10_3 C9_3 1_555 1_555
H7_3 C10_3 1_555 1_555
C11_3 C10_3 1_555 1_555
C12_3 C11_3 1_555 1_555
C14_3 C11_3 1_555 1_555
Zn3_2 O2_2 1_555 1_555
Zn5_2 O4_3 1_555 1_555
Zn4_2 O3_3 1_555 1_555
C5_3 C6_3 1_555 1_555
Zn3 O7_3 1_555 1_555
P1_3 O7_3 1_555 1_555
O5_2 H1_2 1_555 1_555
O6_3 C21_3 1_555 1_555
C1_3 P1_3 1_555 1_555
C2_3 C1_3 1_555 1_555
H2_3 C2_3 1_555 1_555
C8_3 P1_3 1_555 1_555
C13_3 C8_3 1_555 1_555
H9_3 C13_3 1_555 1_555
C15_3 P1_3 1_555 1_555
C16_3 C15_3 1_555 1_555
H10_3 C16_3 1_555 1_555
C17_3 C16_3 1_555 1_555
H11_2 C17_3 1_555 1_555
C18_3 C17_3 1_555 1_555
C19_3 C18_3 1_555 1_555
H12_3 C19_3 1_555 1_555
C20_3 C15_3 1_555 1_555
H13_3 C20_3 1_555 1_555
C21_3 O5_2 1_555 1_555
O9_2 Zn3 1_555 1_555
O10_3 Zn3 1_555 1_555
O11_3 Zn3 1_555 1_555
C18_3 C21_3 1_555 1_555
C19_3 C20_3 1_555 1_555
Zn3_2 O7_4 1_555 1_555
P1_4 O7_4 1_555 1_555
O8_2 C7_4 1_555 1_555
O9_2 C7_4 1_555 1_555
O6_4 C21_4 1_555 1_555
C1_4 P1_4 1_555 1_555
C2_4 C1_4 1_555 1_555
H2_4 C2_4 1_555 1_555
C3_4 C2_4 1_555 1_555
H3_4 C3_4 1_555 1_555
C4_4 C3_4 1_555 1_555
C5_4 C4_4 1_555 1_555
H4_4 C5_4 1_555 1_555
C6_4 C1_4 1_555 1_555
H5_4 C6_4 1_555 1_555
C7_4 C4_4 1_555 1_555
C8_4 P1_4 1_555 1_555
C9_4 C8_4 1_555 1_555
H6_4 C9_4 1_555 1_555
C10_4 C9_4 1_555 1_555
H7_4 C10_4 1_555 1_555
C13_4 C8_4 1_555 1_555
H9_4 C13_4 1_555 1_555
C15_4 P1_4 1_555 1_555
C16_4 C15_4 1_555 1_555
H10_4 C16_4 1_555 1_555
C17_4 C16_4 1_555 1_555
C18_4 C17_4 1_555 1_555
C19_4 C18_4 1_555 1_555
H12_4 C19_4 1_555 1_555
C20_4 C15_4 1_555 1_555
H13_4 C20_4 1_555 1_555
O10_4 Zn3_2 1_555 1_555
C5_4 C6_4 1_555 1_555
C18_4 C21_4 1_555 1_555
C19_4 C20_4 1_555 1_555
O3_4 C14_4 1_555 1_555
O4_4 C14_4 1_555 1_555
O5_3 H1_3 1_555 1_555
C12_4 C11_4 1_555 1_555
H8_3 C12_4 1_555 1_555
C14_4 C11_4 1_555 1_555
Zn4 O3_4 1_555 1_555
O10_4 C14_5 1_555 1_555
O11 C14_5 1_555 1_555
C12_5 C11_5 1_555 1_555
C14_5 C11_5 1_555 1_555
O1_3 C7_5 1_555 1_555
O2_3 C7_5 1_555 1_555
H3_5 C3_5 1_555 1_555
C4_5 C3_5 1_555 1_555
C5_5 C4_5 1_555 1_555
H4_5 C5_5 1_555 1_555
H5_5 C6_5 1_555 1_555
C7_5 C4_5 1_555 1_555
H6_5 C9_5 1_555 1_555
C10_5 C9_5 1_555 1_555
H7_5 C10_5 1_555 1_555
Zn4_2 O2_3 1_555 1_555
Zn5_2 O1_3 1_555 1_555
C5_5 C6_5 1_555 1_555
Zn4 O7_5 1_555 1_555
P1_5 O7_5 1_555 1_555
O6_5 C21_5 1_555 1_555
C1_5 P1_5 1_555 1_555
C2_5 C1_5 1_555 1_555
H2_5 C2_5 1_555 1_555
C8_5 P1_5 1_555 1_555
C13_5 C8_5 1_555 1_555
H9_5 C13_5 1_555 1_555
C15_5 P1_5 1_555 1_555
C16_5 C15_5 1_555 1_555
H10_5 C16_5 1_555 1_555
C17_5 C16_5 1_555 1_555
C18_5 C17_5 1_555 1_555
C19_5 C18_5 1_555 1_555
H12_5 C19_5 1_555 1_555
C20_5 C15_5 1_555 1_555
H13_5 C20_5 1_555 1_555
O8_3 Zn4 1_555 1_555
O9_3 Zn4 1_555 1_555
C18_5 C21_5 1_555 1_555
C19_5 C20_5 1_555 1_555
Zn5 O1_4 1_555 1_555
Zn4_2 O7_6 1_555 1_555
P1_6 O7_6 1_555 1_555
O9_3 C7_6 1_555 1_555
O10_3 C14_6 1_555 1_555
O11_2 C14_6 1_555 1_555
O5_4 H1_4 1_555 1_555
O6_6 C21_6 1_555 1_555
C1_6 P1_6 1_555 1_555
C2_6 C1_6 1_555 1_555
H2_6 C2_6 1_555 1_555
C3_6 C2_6 1_555 1_555
H3_6 C3_6 1_555 1_555
C4_6 C3_6 1_555 1_555
C5_6 C4_6 1_555 1_555
H4_6 C5_6 1_555 1_555
C6_6 C1_6 1_555 1_555
H5_6 C6_6 1_555 1_555
C7_6 C4_6 1_555 1_555
C8_6 P1_6 1_555 1_555
C9_6 C8_6 1_555 1_555
H6_6 C9_6 1_555 1_555
C10_6 C9_6 1_555 1_555
H7_6 C10_6 1_555 1_555
C11_6 C10_6 1_555 1_555
C12_6 C11_6 1_555 1_555
H8_4 C12_6 1_555 1_555
C13_6 C8_6 1_555 1_555
H9_6 C13_6 1_555 1_555
C14_6 C11_6 1_555 1_555
C15_6 P1_6 1_555 1_555
C16_6 C15_6 1_555 1_555
H10_6 C16_6 1_555 1_555
C17_6 C16_6 1_555 1_555
H11_4 C17_6 1_555 1_555
C18_6 C17_6 1_555 1_555
C19_6 C18_6 1_555 1_555
H12_6 C19_6 1_555 1_555
C20_6 C15_6 1_555 1_555
H13_6 C20_6 1_555 1_555
C21_6 O5_4 1_555 1_555
O8_4 Zn4_2 1_555 1_555
C5_6 C6_6 1_555 1_555
C12_6 C13_6 1_555 1_555
C18_6 C21_6 1_555 1_555
C19_6 C20_6 1_555 1_555
Zn5_2 O7_7 1_555 1_555
P1_7 O7_7 1_555 1_555
O5_5 H1_5 1_555 1_555
O6_7 C21_7 1_555 1_555
C1_7 P1_7 1_555 1_555
C2_7 C1_7 1_555 1_555
H2_7 C2_7 1_555 1_555
C8_7 P1_7 1_555 1_555
C13_7 C8_7 1_555 1_555
H9_7 C13_7 1_555 1_555
C15_7 P1_7 1_555 1_555
C16_7 C15_7 1_555 1_555
H10_7 C16_7 1_555 1_555
C17_7 C16_7 1_555 1_555
H11_5 C17_7 1_555 1_555
C18_7 C17_7 1_555 1_555
C19_7 C18_7 1_555 1_555
H12_7 C19_7 1_555 1_555
C20_7 C15_7 1_555 1_555
H13_7 C20_7 1_555 1_555
C21_7 O5_5 1_555 1_555
O9_4 Zn5_2 1_555 1_555
C18_7 C21_7 1_555 1_555
C19_7 C20_7 1_555 1_555
O2_4 C7_7 1_555 1_555
O10_2 C14_7 1_555 1_555
O11_3 C14_7 1_555 1_555
H3_7 C3_7 1_555 1_555
C4_7 C3_7 1_555 1_555
C5_7 C4_7 1_555 1_555
H4_7 C5_7 1_555 1_555
H5_7 C6_7 1_555 1_555
C7_7 C4_7 1_555 1_555
H6_7 C9_7 1_555 1_555
C10_7 C9_7 1_555 1_555
H7_7 C10_7 1_555 1_555
C11_7 C10_7 1_555 1_555
C12_7 C11_7 1_555 1_555
C14_7 C11_7 1_555 1_555
Zn5 O2_4 1_555 1_555
C5_7 C6_7 1_555 1_555
O10 C14_8 1_555 1_555
O11_4 C14_8 1_555 1_555
O5_6 H1_6 1_555 1_555
C12_8 C11_8 1_555 1_555
H8_6 C12_8 1_555 1_555
C14_8 C11_8 1_555 1_555
Zn5 O7_8 1_555 1_555
P1_8 O7_8 1_555 1_555
O8_4 C7_8 1_555 1_555
O9_4 C7_8 1_555 1_555
O6_8 C21_8 1_555 1_555
C1_8 P1_8 1_555 1_555
C2_8 C1_8 1_555 1_555
H2_8 C2_8 1_555 1_555
C3_8 C2_8 1_555 1_555
H3_8 C3_8 1_555 1_555
C4_8 C3_8 1_555 1_555
C5_8 C4_8 1_555 1_555
H4_8 C5_8 1_555 1_555
C6_8 C1_8 1_555 1_555
H5_8 C6_8 1_555 1_555
C7_8 C4_8 1_555 1_555
C8_8 P1_8 1_555 1_555
C9_8 C8_8 1_555 1_555
H6_8 C9_8 1_555 1_555
C10_8 C9_8 1_555 1_555
H7_8 C10_8 1_555 1_555
C13_8 C8_8 1_555 1_555
H9_8 C13_8 1_555 1_555
C15_8 P1_8 1_555 1_555
C16_8 C15_8 1_555 1_555
H10_8 C16_8 1_555 1_555
C17_8 C16_8 1_555 1_555
C18_8 C17_8 1_555 1_555
C19_8 C18_8 1_555 1_555
H12_8 C19_8 1_555 1_555
C20_8 C15_8 1_555 1_555
H13_8 C20_8 1_555 1_555
C5_8 C6_8 1_555 1_555
C18_8 C21_8 1_555 1_555
C19_8 C20_8 1_555 1_555
O5_7 H1_7 1_555 1_555
O5_8 H1_8 1_555 1_555

#END
