
###############################################################################
#
# This file contains modified crystal structure data generated from the
# MOF subset of the Cambridge Structural Database (CSD) v543 
# hosted by the Cambridge Crystallographic Data Centre (CCDC).
#
# This work is licensed under the Creative Commons
# Attribution-NonCommercial-ShareAlike 4.0 International License.
# To view a copy of this license, visit
# http://creativecommons.org/licenses/by-nc-sa/4.0/
# or send a letter to
# Creative Commons, PO Box 1866, Mountain View, CA 94042, USA.
#
# CIF created using the CSD Python API on 29 September 2022
# The structure has been converted into the P1 space group
# The structure has a 3D framework
# The original CSD entry LEKPAV is in the cubic crystal system
# The framework has been calculated to contain at least 10.0% void space
# The void calculation uses a probe of radius 1.32A, grid spacing 0.4
#
###############################################################################

data_LEKPAV
_chemical_formula_moiety         '(C336 H192 O120 P16 Zn24)n'
_symmetry_cell_setting           triclinic
_symmetry_space_group_name_H-M   'P 1'
_symmetry_Int_Tables_number      1
_space_group_name_Hall           'P 1'
loop_
_symmetry_equiv_pos_site_id
_symmetry_equiv_pos_as_xyz
1 x,y,z
_cell_length_a                   22.93350(10)
_cell_length_b                   22.93350(10)
_cell_length_c                   22.93350(10)
_cell_angle_alpha                90
_cell_angle_beta                 90
_cell_angle_gamma                90
_cell_volume                     12061.8
loop_
_atom_site_label
_atom_site_type_symbol
_atom_site_fract_x
_atom_site_fract_y
_atom_site_fract_z
Zn1 Zn 0.22611(2) 0.28853(2) 0.17541(2)
P1 P 0.36078(5) 0.63922(5) 0.13922(5)
O1 O 0.24693(17) 0.37026(14) 0.17226(17)
O2 O 0.33997(19) 0.34552(16) 0.1731(2)
O3 O 0.32371(14) 0.67629(14) 0.17629(14)
O4 O 0.10871(13) 0.26316(14) 0.25205(15)
O5 O 0.14110(13) 0.30089(14) 0.16811(14)
O7 O 0.24791(12) 0.24791(12) 0.24791(12)
C1 C 0.3454(2) 0.5630(2) 0.14820(19)
C2 C 0.3887(2) 0.5214(2) 0.1591(3)
H1 H 0.4275 0.5328 0.1618
C3 C 0.3736(2) 0.4630(2) 0.1661(3)
H2 H 0.4027 0.4355 0.1731
C4 C 0.3171(2) 0.4456(2) 0.1627(2)
C5 C 0.2741(2) 0.4866(2) 0.1516(2)
H3 H 0.2354 0.4749 0.1486
C6 C 0.2883(2) 0.5446(2) 0.1448(2)
H4 H 0.2590 0.5717 0.1379
C7 C 0.3010(3) 0.3820(2) 0.1701(2)
C10 C 0.0269(2) 0.3261(2) 0.1344(2)
H6 H 0.0558 0.3296 0.1062
C11 C 0.04090(19) 0.3070(2) 0.1894(2)
H7 H 0.0070 0.2909 0.2688
C14 C 0.10168(19) 0.2893(2) 0.2040(2)
C15 C 0.35180(19) 0.6546(2) 0.0630(2)
C16 C 0.3409(3) 0.6113(2) 0.0214(2)
H9 H 0.3382 0.5725 0.0328
C20 C 0.3552(2) 0.7117(2) 0.0446(2)
H12 H 0.3621 0.7410 0.0717
O10 O 0.62974(14) 0.67226(17) 0.25307(17)
O11 O 0.65448(16) 0.6731(2) 0.16003(19)
C22 C 0.4370(2) 0.64820(19) 0.1546(2)
C23 C 0.4786(2) 0.6591(3) 0.1113(2)
H13 H 0.4672 0.6618 0.0725
C24 C 0.5370(2) 0.6661(3) 0.1264(2)
H14 H 0.5645 0.6731 0.0973
C25 C 0.5544(2) 0.6627(2) 0.1829(2)
C26 C 0.5134(2) 0.6516(2) 0.2259(2)
H15 H 0.5251 0.6486 0.2646
C27 C 0.4554(2) 0.6448(2) 0.2117(2)
H16 H 0.4283 0.6379 0.2410
C28 C 0.6180(2) 0.6701(2) 0.1990(3)
Zn2 Zn 0.17541(2) 0.22611(2) 0.28853(2)
Zn3 Zn 0.28853(2) 0.17541(2) 0.22611(2)
Zn8 Zn 0.71147(2) 0.67541(2) 0.27389(2)
O16 O 0.17226(17) 0.24693(17) 0.37026(14)
O17 O 0.37026(14) 0.17226(17) 0.24693(17)
O18 O 0.25205(15) 0.10871(13) 0.26316(14)
O19 O 0.26316(14) 0.25205(15) 0.10871(13)
O20 O 0.16811(14) 0.14110(13) 0.30089(14)
O21 O 0.30089(14) 0.16811(14) 0.14110(13)
O8 O 0.32774(17) 0.75307(17) 0.87026(14)
O9 O 0.3269(2) 0.66003(19) 0.84552(16)
C17 C 0.3339(3) 0.6264(2) 0.9630(2)
H10 H 0.3269 0.5973 0.9355
C18 C 0.3373(2) 0.6829(2) 0.9456(2)
C19 C 0.3484(2) 0.7259(2) 0.9866(2)
H11 H 0.3514 0.7646 0.9749
C21 C 0.3299(2) 0.6990(3) 0.8820(2)
Zn5 Zn 0.32459(2) 0.77389(2) 0.78853(2)
P2 P 0.85007(5) 0.35007(5) 0.14993(5)
O6 O 0.81289(14) 0.31289(14) 0.18711(14)
C8 C 0.92583(18) 0.33665(18) 0.16309(18)
C9 C 0.9694(2) 0.3403(2) 0.1211(2)
H5 H 0.9600 0.3523 0.0835
C12 C 0.9975(2) 0.3034(2) 0.2314(2)
C13 C 0.9406(2) 0.3181(2) 0.2190(2)
H8 H 0.9121 0.3156 0.2478
O12 O 0.83189(14) 0.64110(13) 0.19911(14)
C29 C 0.83691(18) 0.42583(18) 0.16335(18)
C30 C 0.8789(2) 0.4694(2) 0.1597(2)
H17 H 0.9165 0.4600 0.1477
C31 C 0.8656(2) 0.5269(2) 0.1739(2)
H18 H 0.8938 0.5558 0.1704
C32 C 0.8106(2) 0.54090(19) 0.1930(2)
C33 C 0.7686(2) 0.4975(2) 0.1966(2)
H19 H 0.7312 0.5070 0.2091
C34 C 0.7810(2) 0.4406(2) 0.1819(2)
H20 H 0.7522 0.4121 0.1844
C35 C 0.7960(2) 0.60168(19) 0.2107(2)
O13 O 0.74795(15) 0.60871(13) 0.23684(14)
C36 C 0.83665(18) 0.33691(18) 0.07417(18)
C37 C 0.8403(2) 0.3789(2) 0.0306(2)
H21 H 0.8523 0.4165 0.0400
C40 C 0.8034(2) 0.2686(2) 0.0025(2)
C41 C 0.8181(2) 0.2810(2) 0.0594(2)
H24 H 0.8156 0.2522 0.0879
Zn6 Zn 0.82459(2) 0.72611(2) 0.21147(2)
O14 O 0.80089(14) 0.33189(14) 0.85890(13)
C38 C 0.8261(2) 0.3656(2) 0.9731(2)
H22 H 0.8296 0.3938 0.9442
C39 C 0.8070(2) 0.3106(2) 0.95910(19)
H23 H 0.7909 0.2312 0.9930
C42 C 0.7893(2) 0.2960(2) 0.89832(19)
O15 O 0.76316(14) 0.24795(15) 0.89129(13)
Zn4 Zn 0.72611(2) 0.21147(2) 0.82459(2)
Zn9 Zn 0.78853(2) 0.32459(2) 0.77389(2)
Zn1_2 Zn 0.27389(2) 0.71147(2) 0.67541(2)
P1_2 P 0.13922(5) 0.36078(5) 0.63922(5)
P2_2 P 0.64993(5) 0.64993(5) 0.64993(5)
O1_2 O 0.25307(17) 0.62974(14) 0.67226(17)
O2_2 O 0.16003(19) 0.65448(16) 0.6731(2)
O3_2 O 0.17629(14) 0.32371(14) 0.67629(14)
O4_2 O 0.39129(13) 0.73684(14) 0.75205(15)
O5_2 O 0.35890(13) 0.69911(14) 0.66811(14)
O6_2 O 0.68711(14) 0.68711(14) 0.68711(14)
O7_2 O 0.25209(12) 0.75209(12) 0.74791(12)
C1_2 C 0.1546(2) 0.4370(2) 0.64820(19)
C2_2 C 0.1113(2) 0.4786(2) 0.6591(3)
H1_2 H 0.0725 0.4672 0.6618
C3_2 C 0.1264(2) 0.5370(2) 0.6661(3)
H2_2 H 0.0973 0.5645 0.6731
C4_2 C 0.1829(2) 0.5544(2) 0.6627(2)
C5_2 C 0.2259(2) 0.5134(2) 0.6516(2)
H3_2 H 0.2646 0.5251 0.6486
C6_2 C 0.2117(2) 0.4554(2) 0.6448(2)
H4_2 H 0.2410 0.4283 0.6379
C7_2 C 0.1990(3) 0.6180(2) 0.6701(2)
C8_2 C 0.57417(18) 0.66335(18) 0.66309(18)
C9_2 C 0.5306(2) 0.6597(2) 0.6211(2)
H5_2 H 0.5400 0.6477 0.5835
C10_2 C 0.4731(2) 0.6739(2) 0.6344(2)
H6_2 H 0.4442 0.6704 0.6062
C11_2 C 0.45910(19) 0.6930(2) 0.6894(2)
C12_2 C 0.5025(2) 0.6966(2) 0.7314(2)
H7_2 H 0.4930 0.7091 0.7688
C13_2 C 0.5594(2) 0.6819(2) 0.7190(2)
H8_2 H 0.5879 0.6844 0.7478
C14_2 C 0.39832(19) 0.7107(2) 0.7040(2)
O9_2 O 0.1731(2) 0.33997(19) 0.34552(16)
C15_2 C 0.14820(19) 0.3454(2) 0.5630(2)
C16_2 C 0.1591(3) 0.3887(2) 0.5214(2)
H9_2 H 0.1618 0.4275 0.5328
C17_2 C 0.1661(3) 0.3736(2) 0.4630(2)
H10_2 H 0.1731 0.4027 0.4355
C18_2 C 0.1627(2) 0.3171(2) 0.4456(2)
C19_2 C 0.1516(2) 0.2741(2) 0.4866(2)
H11_2 H 0.1486 0.2354 0.4749
C20_2 C 0.1448(2) 0.2883(2) 0.5446(2)
H12_2 H 0.1379 0.2590 0.5717
C21_2 C 0.1701(2) 0.3010(3) 0.3820(2)
C22_2 C 0.0630(2) 0.35180(19) 0.6546(2)
C23_2 C 0.0214(2) 0.3409(3) 0.6113(2)
H13_2 H 0.0328 0.3382 0.5725
C27_2 C 0.0446(2) 0.3552(2) 0.7117(2)
H16_2 H 0.0717 0.3621 0.7410
O12_2 O 0.66811(14) 0.35890(13) 0.69911(14)
C29_2 C 0.66309(18) 0.57417(18) 0.66335(18)
C30_2 C 0.6211(2) 0.5306(2) 0.6597(2)
H17_2 H 0.5835 0.5400 0.6477
C31_2 C 0.6344(2) 0.4731(2) 0.6739(2)
H18_2 H 0.6062 0.4442 0.6704
C32_2 C 0.6894(2) 0.45910(19) 0.6930(2)
C33_2 C 0.7314(2) 0.5025(2) 0.6966(2)
H19_2 H 0.7688 0.4930 0.7091
C34_2 C 0.7190(2) 0.5594(2) 0.6819(2)
H20_2 H 0.7478 0.5879 0.6844
C35_2 C 0.7040(2) 0.39832(19) 0.7107(2)
O13_2 O 0.75205(15) 0.39129(13) 0.73684(14)
O14_2 O 0.69911(14) 0.66811(14) 0.35890(13)
C36_2 C 0.66335(18) 0.66309(18) 0.57417(18)
C37_2 C 0.6597(2) 0.6211(2) 0.5306(2)
H21_2 H 0.6477 0.5835 0.5400
C38_2 C 0.6739(2) 0.6344(2) 0.4731(2)
H22_2 H 0.6704 0.6062 0.4442
C39_2 C 0.6930(2) 0.6894(2) 0.45910(19)
C40_2 C 0.6966(2) 0.7314(2) 0.5025(2)
H23_2 H 0.7091 0.7688 0.4930
C41_2 C 0.6819(2) 0.7190(2) 0.5594(2)
H24_2 H 0.6844 0.7478 0.5879
C42_2 C 0.7107(2) 0.7040(2) 0.39832(19)
O15_2 O 0.73684(14) 0.75205(15) 0.39129(13)
Zn3_2 Zn 0.21147(2) 0.82459(2) 0.72611(2)
Zn4_2 Zn 0.77389(2) 0.78853(2) 0.32459(2)
Zn6_2 Zn 0.67541(2) 0.27389(2) 0.71147(2)
O17_2 O 0.12974(14) 0.82774(17) 0.74693(17)
O18_2 O 0.24795(15) 0.89129(13) 0.76316(14)
O19_2 O 0.23684(14) 0.74795(15) 0.60871(13)
O20_2 O 0.33189(14) 0.85890(13) 0.80089(14)
O21_2 O 0.19911(14) 0.83189(14) 0.64110(13)
O10_2 O 0.87026(14) 0.32774(17) 0.75307(17)
O11_2 O 0.84552(16) 0.3269(2) 0.66003(19)
C24_2 C 0.9630(2) 0.3339(3) 0.6264(2)
H14_2 H 0.9355 0.3269 0.5973
C25_2 C 0.9456(2) 0.3373(2) 0.6829(2)
C26_2 C 0.9866(2) 0.3484(2) 0.7259(2)
H15_2 H 0.9749 0.3514 0.7646
C28_2 C 0.8820(2) 0.3299(2) 0.6990(3)
C31_3 C 0.1344(2) 0.0269(2) 0.3261(2)
H18_3 H 0.1062 0.0558 0.3296
C32_3 C 0.1894(2) 0.04090(19) 0.3070(2)
H19_3 H 0.2688 0.0070 0.2909
C35_3 C 0.2040(2) 0.10168(19) 0.2893(2)
P2_3 P 0.14993(5) 0.85007(5) 0.35007(5)
O6_3 O 0.18711(14) 0.81289(14) 0.31289(14)
C8_3 C 0.07417(18) 0.83665(18) 0.33691(18)
C9_3 C 0.0306(2) 0.8403(2) 0.3789(2)
H5_3 H 0.0400 0.8523 0.4165
C12_3 C 0.0025(2) 0.8034(2) 0.2686(2)
C13_3 C 0.0594(2) 0.8181(2) 0.2810(2)
H8_3 H 0.0879 0.8156 0.2522
C29_3 C 0.16309(18) 0.92583(18) 0.33665(18)
C30_3 C 0.1211(2) 0.9694(2) 0.3403(2)
H17_3 H 0.0835 0.9600 0.3523
C33_3 C 0.2314(2) 0.9975(2) 0.3034(2)
C34_3 C 0.2190(2) 0.9406(2) 0.3181(2)
H20_3 H 0.2478 0.9121 0.3156
C36_3 C 0.16335(18) 0.83691(18) 0.42583(18)
C37_3 C 0.1597(2) 0.8789(2) 0.4694(2)
H21_3 H 0.1477 0.9165 0.4600
C38_3 C 0.1739(2) 0.8656(2) 0.5269(2)
H22_3 H 0.1704 0.8938 0.5558
C39_3 C 0.1930(2) 0.8106(2) 0.54090(19)
C40_3 C 0.1966(2) 0.7686(2) 0.4975(2)
H23_3 H 0.2091 0.7312 0.5070
C41_3 C 0.1819(2) 0.7810(2) 0.4406(2)
H24_3 H 0.1844 0.7522 0.4121
C42_3 C 0.2107(2) 0.7960(2) 0.60168(19)
P1_3 P 0.63922(5) 0.13922(5) 0.36078(5)
O3_3 O 0.67629(14) 0.17629(14) 0.32371(14)
C1_3 C 0.6546(2) 0.0630(2) 0.35180(19)
C2_3 C 0.6113(2) 0.0214(2) 0.3409(3)
H1_3 H 0.5725 0.0328 0.3382
C6_3 C 0.7117(2) 0.0446(2) 0.3552(2)
H4_3 H 0.7410 0.0717 0.3621
O8_2 O 0.67226(17) 0.25307(17) 0.62974(14)
O9_3 O 0.6731(2) 0.16003(19) 0.65448(16)
C15_3 C 0.64820(19) 0.1546(2) 0.4370(2)
C16_3 C 0.6591(3) 0.1113(2) 0.4786(2)
H9_3 H 0.6618 0.0725 0.4672
C17_3 C 0.6661(3) 0.1264(2) 0.5370(2)
H10_3 H 0.6731 0.0973 0.5645
C18_3 C 0.6627(2) 0.1829(2) 0.5544(2)
C19_3 C 0.6516(2) 0.2259(2) 0.5134(2)
H11_3 H 0.6486 0.2646 0.5251
C20_3 C 0.6448(2) 0.2117(2) 0.4554(2)
H12_3 H 0.6379 0.2410 0.4283
C21_3 C 0.6701(2) 0.1990(3) 0.6180(2)
O11_3 O 0.34552(16) 0.1731(2) 0.33997(19)
C22_3 C 0.5630(2) 0.14820(19) 0.3454(2)
C23_3 C 0.5214(2) 0.1591(3) 0.3887(2)
H13_3 H 0.5328 0.1618 0.4275
C24_3 C 0.4630(2) 0.1661(3) 0.3736(2)
H14_3 H 0.4355 0.1731 0.4027
C25_3 C 0.4456(2) 0.1627(2) 0.3171(2)
C26_3 C 0.4866(2) 0.1516(2) 0.2741(2)
H15_3 H 0.4749 0.1486 0.2354
C27_3 C 0.5446(2) 0.1448(2) 0.2883(2)
H16_3 H 0.5717 0.1379 0.2590
C28_3 C 0.3820(2) 0.1701(2) 0.3010(3)
O1_3 O 0.75307(17) 0.87026(14) 0.32774(17)
O2_3 O 0.66003(19) 0.84552(16) 0.3269(2)
O4_3 O 0.89129(13) 0.76316(14) 0.24795(15)
O5_3 O 0.85890(13) 0.80089(14) 0.33189(14)
O7_3 O 0.75209(12) 0.74791(12) 0.25209(12)
C3_3 C 0.6264(2) 0.9630(2) 0.3339(3)
H2_3 H 0.5973 0.9355 0.3269
C4_3 C 0.6829(2) 0.9456(2) 0.3373(2)
C5_3 C 0.7259(2) 0.9866(2) 0.3484(2)
H3_3 H 0.7646 0.9749 0.3514
C7_3 C 0.6990(3) 0.8820(2) 0.3299(2)
C10_3 C 0.9731(2) 0.8261(2) 0.3656(2)
H6_3 H 0.9442 0.8296 0.3938
C11_3 C 0.95910(19) 0.8070(2) 0.3106(2)
H7_3 H 0.9930 0.7909 0.2312
C14_3 C 0.89832(19) 0.7893(2) 0.2960(2)
O16_2 O 0.82774(17) 0.74693(17) 0.12974(14)
O11_4 O 0.15448(16) 0.8269(2) 0.83997(19)
C24_4 C 0.0370(2) 0.8339(3) 0.8736(2)
H14_4 H 0.0645 0.8269 0.9027
C25_4 C 0.0544(2) 0.8373(2) 0.8171(2)
C26_4 C 0.0134(2) 0.8484(2) 0.7741(2)
H15_4 H 0.0251 0.8514 0.7354
C28_4 C 0.1180(2) 0.8299(2) 0.8010(3)
C38_4 C 0.3261(2) 0.1344(2) 0.0269(2)
H22_4 H 0.3296 0.1062 0.0558
C39_4 C 0.3070(2) 0.1894(2) 0.04090(19)
H23_4 H 0.2909 0.2688 0.0070
C42_4 C 0.2893(2) 0.2040(2) 0.10168(19)
P2_4 P 0.35007(5) 0.14993(5) 0.85007(5)
O1_4 O 0.74693(17) 0.12974(14) 0.82774(17)
O2_4 O 0.83997(19) 0.15448(16) 0.8269(2)
O4_4 O 0.60871(13) 0.23684(14) 0.74795(15)
O5_4 O 0.64110(13) 0.19911(14) 0.83189(14)
O6_4 O 0.31289(14) 0.18711(14) 0.81289(14)
O7_4 O 0.74791(12) 0.25209(12) 0.75209(12)
C3_4 C 0.8736(2) 0.0370(2) 0.8339(3)
H2_4 H 0.9027 0.0645 0.8269
C4_4 C 0.8171(2) 0.0544(2) 0.8373(2)
C5_4 C 0.7741(2) 0.0134(2) 0.8484(2)
H3_4 H 0.7354 0.0251 0.8514
C7_4 C 0.8010(3) 0.1180(2) 0.8299(2)
C8_4 C 0.42583(18) 0.16335(18) 0.83691(18)
C9_4 C 0.4694(2) 0.1597(2) 0.8789(2)
H5_4 H 0.4600 0.1477 0.9165
C10_4 C 0.5269(2) 0.1739(2) 0.8656(2)
H6_4 H 0.5558 0.1704 0.8938
C11_4 C 0.54090(19) 0.1930(2) 0.8106(2)
C12_4 C 0.4975(2) 0.1966(2) 0.7686(2)
H7_4 H 0.5070 0.2091 0.7312
C13_4 C 0.4406(2) 0.1819(2) 0.7810(2)
H8_4 H 0.4121 0.1844 0.7522
C14_4 C 0.60168(19) 0.2107(2) 0.7960(2)
C29_4 C 0.33691(18) 0.07417(18) 0.83665(18)
C30_4 C 0.3789(2) 0.0306(2) 0.8403(2)
H17_4 H 0.4165 0.0400 0.8523
C33_4 C 0.2686(2) 0.0025(2) 0.8034(2)
C34_4 C 0.2810(2) 0.0594(2) 0.8181(2)
H20_4 H 0.2522 0.0879 0.8156
C36_4 C 0.33665(18) 0.16309(18) 0.92583(18)
C37_4 C 0.3403(2) 0.1211(2) 0.9694(2)
H21_4 H 0.3523 0.0835 0.9600
C40_4 C 0.3034(2) 0.2314(2) 0.9975(2)
C41_4 C 0.3181(2) 0.2190(2) 0.9406(2)
H24_4 H 0.3156 0.2478 0.9121
O9_4 O 0.8269(2) 0.83997(19) 0.15448(16)
C17_4 C 0.8339(3) 0.8736(2) 0.0370(2)
H10_4 H 0.8269 0.9027 0.0645
C18_4 C 0.8373(2) 0.8171(2) 0.0544(2)
C19_4 C 0.8484(2) 0.7741(2) 0.0134(2)
H11_4 H 0.8514 0.7354 0.0251
C21_4 C 0.8299(2) 0.8010(3) 0.1180(2)
P1_4 P 0.86078(5) 0.86078(5) 0.86078(5)
O3_4 O 0.82371(14) 0.82371(14) 0.82371(14)
C1_4 C 0.8454(2) 0.9370(2) 0.85180(19)
C2_4 C 0.8887(2) 0.9786(2) 0.8409(3)
H1_4 H 0.9275 0.9672 0.8382
C6_4 C 0.7883(2) 0.9554(2) 0.8552(2)
H4_4 H 0.7590 0.9283 0.8621
C15_4 C 0.85180(19) 0.8454(2) 0.9370(2)
C16_4 C 0.8409(3) 0.8887(2) 0.9786(2)
H9_4 H 0.8382 0.9275 0.9672
C20_4 C 0.8552(2) 0.7883(2) 0.9554(2)
H12_4 H 0.8621 0.7590 0.9283
C22_4 C 0.9370(2) 0.85180(19) 0.8454(2)
C23_4 C 0.9786(2) 0.8409(3) 0.8887(2)
H13_4 H 0.9672 0.8382 0.9275
C27_4 C 0.9554(2) 0.8552(2) 0.7883(2)
H16_4 H 0.9283 0.8621 0.7590
C31_4 C 0.3656(2) 0.9731(2) 0.8261(2)
H18_4 H 0.3938 0.9442 0.8296
C32_4 C 0.3106(2) 0.95910(19) 0.8070(2)
H19_4 H 0.2312 0.9930 0.7909
C35_4 C 0.2960(2) 0.89832(19) 0.7893(2)
O14_3 O 0.19911(14) 0.66811(14) 0.14110(13)
C38_5 C 0.1739(2) 0.6344(2) 0.0269(2)
H22_5 H 0.1704 0.6062 0.0558
C39_5 C 0.1930(2) 0.6894(2) 0.04090(19)
H23_5 H 0.2091 0.7688 0.0070
C42_5 C 0.2107(2) 0.7040(2) 0.10168(19)
O15_3 O 0.23684(14) 0.75205(15) 0.10871(13)
Zn4_3 Zn 0.27389(2) 0.78853(2) 0.17541(2)
Zn9_2 Zn 0.21147(2) 0.67541(2) 0.22611(2)
P2_5 P 0.14993(5) 0.64993(5) 0.85007(5)
O6_5 O 0.18711(14) 0.68711(14) 0.81289(14)
C8_5 C 0.07417(18) 0.66335(18) 0.83691(18)
C9_5 C 0.0306(2) 0.6597(2) 0.8789(2)
H5_5 H 0.0400 0.6477 0.9165
C12_5 C 0.0025(2) 0.6966(2) 0.7686(2)
C13_5 C 0.0594(2) 0.6819(2) 0.7810(2)
H8_5 H 0.0879 0.6844 0.7522
O12_3 O 0.16811(14) 0.35890(13) 0.80089(14)
C29_5 C 0.16309(18) 0.57417(18) 0.83665(18)
C30_5 C 0.1211(2) 0.5306(2) 0.8403(2)
H17_5 H 0.0835 0.5400 0.8523
C31_5 C 0.1344(2) 0.4731(2) 0.8261(2)
H18_5 H 0.1062 0.4442 0.8296
C32_5 C 0.1894(2) 0.45910(19) 0.8070(2)
C33_5 C 0.2314(2) 0.5025(2) 0.8034(2)
H19_5 H 0.2688 0.4930 0.7909
C34_5 C 0.2190(2) 0.5594(2) 0.8181(2)
H20_5 H 0.2478 0.5879 0.8156
C35_5 C 0.2040(2) 0.39832(19) 0.7893(2)
O13_3 O 0.25205(15) 0.39129(13) 0.76316(14)
C36_5 C 0.16335(18) 0.66309(18) 0.92583(18)
C37_5 C 0.1597(2) 0.6211(2) 0.9694(2)
H21_5 H 0.1477 0.5835 0.9600
C40_5 C 0.1966(2) 0.7314(2) 0.9975(2)
C41_5 C 0.1819(2) 0.7190(2) 0.9406(2)
H24_5 H 0.1844 0.7478 0.9121
Zn6_3 Zn 0.17541(2) 0.27389(2) 0.78853(2)
Zn7 Zn 0.28853(2) 0.32459(2) 0.72611(2)
O8_3 O 0.67226(17) 0.24693(17) 0.12974(14)
O9_5 O 0.6731(2) 0.33997(19) 0.15448(16)
C17_5 C 0.6661(3) 0.3736(2) 0.0370(2)
H10_5 H 0.6731 0.4027 0.0645
C18_5 C 0.6627(2) 0.3171(2) 0.0544(2)
C19_5 C 0.6516(2) 0.2741(2) 0.0134(2)
H11_5 H 0.6486 0.2354 0.0251
C21_5 C 0.6701(2) 0.3010(3) 0.1180(2)
Zn5_2 Zn 0.67541(2) 0.22611(2) 0.21147(2)
Zn1_3 Zn 0.77389(2) 0.71147(2) 0.82459(2)
P1_5 P 0.63922(5) 0.36078(5) 0.86078(5)
O1_5 O 0.75307(17) 0.62974(14) 0.82774(17)
O2_5 O 0.66003(19) 0.65448(16) 0.8269(2)
O3_5 O 0.67629(14) 0.32371(14) 0.82371(14)
O4_5 O 0.89129(13) 0.73684(14) 0.74795(15)
O5_5 O 0.85890(13) 0.69911(14) 0.83189(14)
O7_5 O 0.75209(12) 0.75209(12) 0.75209(12)
C1_5 C 0.6546(2) 0.4370(2) 0.85180(19)
C2_5 C 0.6113(2) 0.4786(2) 0.8409(3)
H1_5 H 0.5725 0.4672 0.8382
C3_5 C 0.6264(2) 0.5370(2) 0.8339(3)
H2_5 H 0.5973 0.5645 0.8269
C4_5 C 0.6829(2) 0.5544(2) 0.8373(2)
C5_5 C 0.7259(2) 0.5134(2) 0.8484(2)
H3_5 H 0.7646 0.5251 0.8514
C6_5 C 0.7117(2) 0.4554(2) 0.8552(2)
H4_5 H 0.7410 0.4283 0.8621
C7_5 C 0.6990(3) 0.6180(2) 0.8299(2)
C10_5 C 0.9731(2) 0.6739(2) 0.8656(2)
H6_5 H 0.9442 0.6704 0.8938
C11_5 C 0.95910(19) 0.6930(2) 0.8106(2)
H7_5 H 0.9930 0.7091 0.7312
C14_5 C 0.89832(19) 0.7107(2) 0.7960(2)
C15_5 C 0.64820(19) 0.3454(2) 0.9370(2)
C16_5 C 0.6591(3) 0.3887(2) 0.9786(2)
H9_5 H 0.6618 0.4275 0.9672
C20_5 C 0.6448(2) 0.2883(2) 0.9554(2)
H12_5 H 0.6379 0.2590 0.9283
O10_3 O 0.37026(14) 0.32774(17) 0.74693(17)
O11_5 O 0.34552(16) 0.3269(2) 0.83997(19)
C22_5 C 0.5630(2) 0.35180(19) 0.8454(2)
C23_5 C 0.5214(2) 0.3409(3) 0.8887(2)
H13_5 H 0.5328 0.3382 0.9275
C24_5 C 0.4630(2) 0.3339(3) 0.8736(2)
H14_5 H 0.4355 0.3269 0.9027
C25_5 C 0.4456(2) 0.3373(2) 0.8171(2)
C26_5 C 0.4866(2) 0.3484(2) 0.7741(2)
H15_5 H 0.4749 0.3514 0.7354
C27_5 C 0.5446(2) 0.3552(2) 0.7883(2)
H16_5 H 0.5717 0.3621 0.7590
C28_5 C 0.3820(2) 0.3299(2) 0.8010(3)
Zn2_2 Zn 0.82459(2) 0.77389(2) 0.71147(2)
Zn3_3 Zn 0.71147(2) 0.82459(2) 0.77389(2)
O16_3 O 0.82774(17) 0.75307(17) 0.62974(14)
O17_3 O 0.62974(14) 0.82774(17) 0.75307(17)
O18_3 O 0.74795(15) 0.89129(13) 0.73684(14)
O19_3 O 0.73684(14) 0.74795(15) 0.89129(13)
O20_3 O 0.83189(14) 0.85890(13) 0.69911(14)
O21_3 O 0.69911(14) 0.83189(14) 0.85890(13)
O10_4 O 0.12974(14) 0.67226(17) 0.24693(17)
O11_6 O 0.15448(16) 0.6731(2) 0.33997(19)
C24_6 C 0.0370(2) 0.6661(3) 0.3736(2)
H14_6 H 0.0645 0.6731 0.4027
C25_6 C 0.0544(2) 0.6627(2) 0.3171(2)
C26_6 C 0.0134(2) 0.6516(2) 0.2741(2)
H15_6 H 0.0251 0.6486 0.2354
C28_6 C 0.1180(2) 0.6701(2) 0.3010(3)
Zn1_4 Zn 0.72611(2) 0.28853(2) 0.32459(2)
P1_6 P 0.86078(5) 0.63922(5) 0.36078(5)
P2_6 P 0.35007(5) 0.35007(5) 0.35007(5)
O1_6 O 0.74693(17) 0.37026(14) 0.32774(17)
O2_6 O 0.83997(19) 0.34552(16) 0.3269(2)
O3_6 O 0.82371(14) 0.67629(14) 0.32371(14)
O4_6 O 0.60871(13) 0.26316(14) 0.24795(15)
O5_6 O 0.64110(13) 0.30089(14) 0.33189(14)
O6_6 O 0.31289(14) 0.31289(14) 0.31289(14)
O7_6 O 0.74791(12) 0.24791(12) 0.25209(12)
C1_6 C 0.8454(2) 0.5630(2) 0.35180(19)
C2_6 C 0.8887(2) 0.5214(2) 0.3409(3)
H1_6 H 0.9275 0.5328 0.3382
C3_6 C 0.8736(2) 0.4630(2) 0.3339(3)
H2_6 H 0.9027 0.4355 0.3269
C4_6 C 0.8171(2) 0.4456(2) 0.3373(2)
C5_6 C 0.7741(2) 0.4866(2) 0.3484(2)
H3_6 H 0.7354 0.4749 0.3514
C6_6 C 0.7883(2) 0.5446(2) 0.3552(2)
H4_6 H 0.7590 0.5717 0.3621
C7_6 C 0.8010(3) 0.3820(2) 0.3299(2)
C8_6 C 0.42583(18) 0.33665(18) 0.33691(18)
C9_6 C 0.4694(2) 0.3403(2) 0.3789(2)
H5_6 H 0.4600 0.3523 0.4165
C10_6 C 0.5269(2) 0.3261(2) 0.3656(2)
H6_6 H 0.5558 0.3296 0.3938
C11_6 C 0.54090(19) 0.3070(2) 0.3106(2)
C12_6 C 0.4975(2) 0.3034(2) 0.2686(2)
H7_6 H 0.5070 0.2909 0.2312
C13_6 C 0.4406(2) 0.3181(2) 0.2810(2)
H8_6 H 0.4121 0.3156 0.2522
C14_6 C 0.60168(19) 0.2893(2) 0.2960(2)
O9_6 O 0.8269(2) 0.66003(19) 0.65448(16)
C15_6 C 0.85180(19) 0.6546(2) 0.4370(2)
C16_6 C 0.8409(3) 0.6113(2) 0.4786(2)
H9_6 H 0.8382 0.5725 0.4672
C17_6 C 0.8339(3) 0.6264(2) 0.5370(2)
H10_6 H 0.8269 0.5973 0.5645
C18_6 C 0.8373(2) 0.6829(2) 0.5544(2)
C19_6 C 0.8484(2) 0.7259(2) 0.5134(2)
H11_6 H 0.8514 0.7646 0.5251
C20_6 C 0.8552(2) 0.7117(2) 0.4554(2)
H12_6 H 0.8621 0.7410 0.4283
C21_6 C 0.8299(2) 0.6990(3) 0.6180(2)
C22_6 C 0.9370(2) 0.64820(19) 0.3454(2)
C23_6 C 0.9786(2) 0.6591(3) 0.3887(2)
H13_6 H 0.9672 0.6618 0.4275
C27_6 C 0.9554(2) 0.6448(2) 0.2883(2)
H16_6 H 0.9283 0.6379 0.2590
O12_4 O 0.33189(14) 0.64110(13) 0.30089(14)
C29_6 C 0.33691(18) 0.42583(18) 0.33665(18)
C30_6 C 0.3789(2) 0.4694(2) 0.3403(2)
H17_6 H 0.4165 0.4600 0.3523
C31_6 C 0.3656(2) 0.5269(2) 0.3261(2)
H18_6 H 0.3938 0.5558 0.3296
C32_6 C 0.3106(2) 0.54090(19) 0.3070(2)
C33_6 C 0.2686(2) 0.4975(2) 0.3034(2)
H19_6 H 0.2312 0.5070 0.2909
C34_6 C 0.2810(2) 0.4406(2) 0.3181(2)
H20_6 H 0.2522 0.4121 0.3156
C35_6 C 0.2960(2) 0.60168(19) 0.2893(2)
O13_4 O 0.24795(15) 0.60871(13) 0.26316(14)
O14_4 O 0.30089(14) 0.33189(14) 0.64110(13)
C36_6 C 0.33665(18) 0.33691(18) 0.42583(18)
C37_6 C 0.3403(2) 0.3789(2) 0.4694(2)
H21_6 H 0.3523 0.4165 0.4600
C38_6 C 0.3261(2) 0.3656(2) 0.5269(2)
H22_6 H 0.3296 0.3938 0.5558
C39_6 C 0.3070(2) 0.3106(2) 0.54090(19)
C40_6 C 0.3034(2) 0.2686(2) 0.4975(2)
H23_6 H 0.2909 0.2312 0.5070
C41_6 C 0.3181(2) 0.2810(2) 0.4406(2)
H24_6 H 0.3156 0.2522 0.4121
C42_6 C 0.2893(2) 0.2960(2) 0.60168(19)
O15_4 O 0.26316(14) 0.24795(15) 0.60871(13)
Zn3_4 Zn 0.78853(2) 0.17541(2) 0.27389(2)
Zn4_4 Zn 0.22611(2) 0.21147(2) 0.67541(2)
Zn6_4 Zn 0.32459(2) 0.72611(2) 0.28853(2)
O17_4 O 0.87026(14) 0.17226(17) 0.25307(17)
O18_4 O 0.75205(15) 0.10871(13) 0.23684(14)
O19_4 O 0.76316(14) 0.25205(15) 0.39129(13)
O20_4 O 0.66811(14) 0.14110(13) 0.19911(14)
O21_4 O 0.80089(14) 0.16811(14) 0.35890(13)
O1_7 O 0.24693(17) 0.12974(14) 0.67226(17)
O2_7 O 0.33997(19) 0.15448(16) 0.6731(2)
O4_7 O 0.10871(13) 0.23684(14) 0.75205(15)
O5_7 O 0.14110(13) 0.19911(14) 0.66811(14)
O7_7 O 0.24791(12) 0.25209(12) 0.74791(12)
C3_7 C 0.3736(2) 0.0370(2) 0.6661(3)
H2_7 H 0.4027 0.0645 0.6731
C4_7 C 0.3171(2) 0.0544(2) 0.6627(2)
C5_7 C 0.2741(2) 0.0134(2) 0.6516(2)
H3_7 H 0.2354 0.0251 0.6486
C7_7 C 0.3010(3) 0.1180(2) 0.6701(2)
C10_7 C 0.0269(2) 0.1739(2) 0.6344(2)
H6_7 H 0.0558 0.1704 0.6062
C11_7 C 0.04090(19) 0.1930(2) 0.6894(2)
H7_7 H 0.0070 0.2091 0.7688
C14_7 C 0.10168(19) 0.2107(2) 0.7040(2)
O16_4 O 0.17226(17) 0.25307(17) 0.87026(14)
P1_7 P 0.36078(5) 0.86078(5) 0.63922(5)
O3_7 O 0.32371(14) 0.82371(14) 0.67629(14)
C1_7 C 0.3454(2) 0.9370(2) 0.64820(19)
C2_7 C 0.3887(2) 0.9786(2) 0.6591(3)
H1_7 H 0.4275 0.9672 0.6618
C6_7 C 0.2883(2) 0.9554(2) 0.6448(2)
H4_7 H 0.2590 0.9283 0.6379
O8_4 O 0.32774(17) 0.74693(17) 0.37026(14)
O9_7 O 0.3269(2) 0.83997(19) 0.34552(16)
C15_7 C 0.35180(19) 0.8454(2) 0.5630(2)
C16_7 C 0.3409(3) 0.8887(2) 0.5214(2)
H9_7 H 0.3382 0.9275 0.5328
C17_7 C 0.3339(3) 0.8736(2) 0.4630(2)
H10_7 H 0.3269 0.9027 0.4355
C18_7 C 0.3373(2) 0.8171(2) 0.4456(2)
C19_7 C 0.3484(2) 0.7741(2) 0.4866(2)
H11_7 H 0.3514 0.7354 0.4749
C20_7 C 0.3552(2) 0.7883(2) 0.5446(2)
H12_7 H 0.3621 0.7590 0.5717
C21_7 C 0.3299(2) 0.8010(3) 0.3820(2)
O11_7 O 0.65448(16) 0.8269(2) 0.66003(19)
C22_7 C 0.4370(2) 0.85180(19) 0.6546(2)
C23_7 C 0.4786(2) 0.8409(3) 0.6113(2)
H13_7 H 0.4672 0.8382 0.5725
C24_7 C 0.5370(2) 0.8339(3) 0.6264(2)
H14_7 H 0.5645 0.8269 0.5973
C25_7 C 0.5544(2) 0.8373(2) 0.6829(2)
C26_7 C 0.5134(2) 0.8484(2) 0.7259(2)
H15_7 H 0.5251 0.8514 0.7646
C27_7 C 0.4554(2) 0.8552(2) 0.7117(2)
H16_7 H 0.4283 0.8621 0.7410
C28_7 C 0.6180(2) 0.8299(2) 0.6990(3)
P2_7 P 0.85007(5) 0.14993(5) 0.64993(5)
O6_7 O 0.81289(14) 0.18711(14) 0.68711(14)
C8_7 C 0.92583(18) 0.16335(18) 0.66309(18)
C9_7 C 0.9694(2) 0.1597(2) 0.6211(2)
H5_7 H 0.9600 0.1477 0.5835
C12_7 C 0.9975(2) 0.1966(2) 0.7314(2)
C13_7 C 0.9406(2) 0.1819(2) 0.7190(2)
H8_7 H 0.9121 0.1844 0.7478
C29_7 C 0.83691(18) 0.07417(18) 0.66335(18)
C30_7 C 0.8789(2) 0.0306(2) 0.6597(2)
H17_7 H 0.9165 0.0400 0.6477
C33_7 C 0.7686(2) 0.0025(2) 0.6966(2)
C34_7 C 0.7810(2) 0.0594(2) 0.6819(2)
H20_7 H 0.7522 0.0879 0.6844
C36_7 C 0.83665(18) 0.16309(18) 0.57417(18)
C37_7 C 0.8403(2) 0.1211(2) 0.5306(2)
H21_7 H 0.8523 0.0835 0.5400
C38_7 C 0.8261(2) 0.1344(2) 0.4731(2)
H22_7 H 0.8296 0.1062 0.4442
C39_7 C 0.8070(2) 0.1894(2) 0.45910(19)
C40_7 C 0.8034(2) 0.2314(2) 0.5025(2)
H23_7 H 0.7909 0.2688 0.4930
C41_7 C 0.8181(2) 0.2190(2) 0.5594(2)
H24_7 H 0.8156 0.2478 0.5879
C42_7 C 0.7893(2) 0.2040(2) 0.39832(19)
C31_7 C 0.8656(2) 0.9731(2) 0.6739(2)
H18_7 H 0.8938 0.9442 0.6704
C32_7 C 0.8106(2) 0.95910(19) 0.6930(2)
H19_7 H 0.7312 0.9930 0.7091
C35_7 C 0.7960(2) 0.89832(19) 0.7107(2)
P1_8 P 0.13922(5) 0.13922(5) 0.13922(5)
O3_8 O 0.17629(14) 0.17629(14) 0.17629(14)
C1_8 C 0.1546(2) 0.0630(2) 0.14820(19)
C2_8 C 0.1113(2) 0.0214(2) 0.1591(3)
H1_8 H 0.0725 0.0328 0.1618
C6_8 C 0.2117(2) 0.0446(2) 0.1448(2)
H4_8 H 0.2410 0.0717 0.1379
C15_8 C 0.14820(19) 0.1546(2) 0.0630(2)
C16_8 C 0.1591(3) 0.1113(2) 0.0214(2)
H9_8 H 0.1618 0.0725 0.0328
C20_8 C 0.1448(2) 0.2117(2) 0.0446(2)
H12_8 H 0.1379 0.2410 0.0717
C22_8 C 0.0630(2) 0.14820(19) 0.1546(2)
C23_8 C 0.0214(2) 0.1591(3) 0.1113(2)
H13_8 H 0.0328 0.1618 0.0725
C27_8 C 0.0446(2) 0.1448(2) 0.2117(2)
H16_8 H 0.0717 0.1379 0.2410
C31_8 C 0.6344(2) 0.0269(2) 0.1739(2)
H18_8 H 0.6062 0.0558 0.1704
C32_8 C 0.6894(2) 0.04090(19) 0.1930(2)
H19_8 H 0.7688 0.0070 0.2091
C35_8 C 0.7040(2) 0.10168(19) 0.2107(2)
O9_8 O 0.1731(2) 0.16003(19) 0.84552(16)
C17_8 C 0.1661(3) 0.1264(2) 0.9630(2)
H10_8 H 0.1731 0.0973 0.9355
C18_8 C 0.1627(2) 0.1829(2) 0.9456(2)
C19_8 C 0.1516(2) 0.2259(2) 0.9866(2)
H11_8 H 0.1486 0.2646 0.9749
C21_8 C 0.1701(2) 0.1990(3) 0.8820(2)
P2_8 P 0.64993(5) 0.85007(5) 0.14993(5)
O1_8 O 0.25307(17) 0.87026(14) 0.17226(17)
O2_8 O 0.16003(19) 0.84552(16) 0.1731(2)
O4_8 O 0.39129(13) 0.76316(14) 0.25205(15)
O5_8 O 0.35890(13) 0.80089(14) 0.16811(14)
O6_8 O 0.68711(14) 0.81289(14) 0.18711(14)
O7_8 O 0.25209(12) 0.74791(12) 0.24791(12)
C3_8 C 0.1264(2) 0.9630(2) 0.1661(3)
H2_8 H 0.0973 0.9355 0.1731
C4_8 C 0.1829(2) 0.9456(2) 0.1627(2)
C5_8 C 0.2259(2) 0.9866(2) 0.1516(2)
H3_8 H 0.2646 0.9749 0.1486
C7_8 C 0.1990(3) 0.8820(2) 0.1701(2)
C8_8 C 0.57417(18) 0.83665(18) 0.16309(18)
C9_8 C 0.5306(2) 0.8403(2) 0.1211(2)
H5_8 H 0.5400 0.8523 0.0835
C10_8 C 0.4731(2) 0.8261(2) 0.1344(2)
H6_8 H 0.4442 0.8296 0.1062
C11_8 C 0.45910(19) 0.8070(2) 0.1894(2)
C12_8 C 0.5025(2) 0.8034(2) 0.2314(2)
H7_8 H 0.4930 0.7909 0.2688
C13_8 C 0.5594(2) 0.8181(2) 0.2190(2)
H8_8 H 0.5879 0.8156 0.2478
C14_8 C 0.39832(19) 0.7893(2) 0.2040(2)
C29_8 C 0.66309(18) 0.92583(18) 0.16335(18)
C30_8 C 0.6211(2) 0.9694(2) 0.1597(2)
H17_8 H 0.5835 0.9600 0.1477
C33_8 C 0.7314(2) 0.9975(2) 0.1966(2)
C34_8 C 0.7190(2) 0.9406(2) 0.1819(2)
H20_8 H 0.7478 0.9121 0.1844
C36_8 C 0.66335(18) 0.83691(18) 0.07417(18)
C37_8 C 0.6597(2) 0.8789(2) 0.0306(2)
H21_8 H 0.6477 0.9165 0.0400
C40_8 C 0.6966(2) 0.7686(2) 0.0025(2)
C41_8 C 0.6819(2) 0.7810(2) 0.0594(2)
H24_8 H 0.6844 0.7522 0.0879
C38_8 C 0.6739(2) 0.8656(2) 0.9731(2)
H22_8 H 0.6704 0.8938 0.9442
C39_8 C 0.6930(2) 0.8106(2) 0.95910(19)
H23_8 H 0.7091 0.7312 0.9930
C42_8 C 0.7107(2) 0.7960(2) 0.89832(19)
O11_8 O 0.84552(16) 0.1731(2) 0.16003(19)
C24_8 C 0.9630(2) 0.1661(3) 0.1264(2)
H14_8 H 0.9355 0.1731 0.0973
C25_8 C 0.9456(2) 0.1627(2) 0.1829(2)
C26_8 C 0.9866(2) 0.1516(2) 0.2259(2)
H15_8 H 0.9749 0.1486 0.2646
C28_8 C 0.8820(2) 0.1701(2) 0.1990(3)
loop_
_geom_bond_atom_site_label_1
_geom_bond_atom_site_label_2
_geom_bond_site_symmetry_1
_geom_bond_site_symmetry_2
Zn1 O1 1_555 1_555
P1 O3 1_555 1_555
O1 C7 1_555 1_555
O2 C7 1_555 1_555
O4 C14 1_555 1_555
O5 Zn1 1_555 1_555
O7 Zn1 1_555 1_555
C1 P1 1_555 1_555
C2 C1 1_555 1_555
H1 C2 1_555 1_555
C3 C2 1_555 1_555
H2 C3 1_555 1_555
C4 C3 1_555 1_555
C5 C4 1_555 1_555
H3 C5 1_555 1_555
C6 C1 1_555 1_555
H4 C6 1_555 1_555
C7 C4 1_555 1_555
H6 C10 1_555 1_555
C11 C10 1_555 1_555
C14 O5 1_555 1_555
C15 P1 1_555 1_555
C16 C15 1_555 1_555
H9 C16 1_555 1_555
C20 C15 1_555 1_555
H12 C20 1_555 1_555
O10 C28 1_555 1_555
O11 C28 1_555 1_555
C22 P1 1_555 1_555
C23 C22 1_555 1_555
H13 C23 1_555 1_555
C24 C23 1_555 1_555
H14 C24 1_555 1_555
C25 C24 1_555 1_555
C26 C25 1_555 1_555
H15 C26 1_555 1_555
C27 C22 1_555 1_555
H16 C27 1_555 1_555
C28 C25 1_555 1_555
Zn2 O4 1_555 1_555
Zn3 O7 1_555 1_555
Zn8 O10 1_555 1_555
O16 Zn2 1_555 1_555
O17 Zn3 1_555 1_555
O18 Zn3 1_555 1_555
O19 Zn1 1_555 1_555
O20 Zn2 1_555 1_555
O21 Zn3 1_555 1_555
O7 Zn2 1_555 1_555
C5 C6 1_555 1_555
C11 C14 1_555 1_555
C26 C27 1_555 1_555
O8 C21 1_555 1_555
O9 C21 1_555 1_555
H10 C17 1_555 1_555
C18 C17 1_555 1_555
C19 C18 1_555 1_555
H11 C19 1_555 1_555
C21 C18 1_555 1_555
Zn5 O8 1_555 1_555
P2 O6 1_555 1_555
C8 P2 1_555 1_555
C9 C8 1_555 1_555
H5 C9 1_555 1_555
C13 C8 1_555 1_555
H8 C13 1_555 1_555
O12 C35 1_555 1_555
C29 P2 1_555 1_555
C30 C29 1_555 1_555
H17 C30 1_555 1_555
C31 C30 1_555 1_555
H18 C31 1_555 1_555
C32 C31 1_555 1_555
C33 C32 1_555 1_555
H19 C33 1_555 1_555
C34 C29 1_555 1_555
H20 C34 1_555 1_555
C35 C32 1_555 1_555
O13 C35 1_555 1_555
C36 P2 1_555 1_555
C37 C36 1_555 1_555
H21 C37 1_555 1_555
C41 C36 1_555 1_555
H24 C41 1_555 1_555
Zn6 O12 1_555 1_555
Zn8 O13 1_555 1_555
C12 C13 1_555 1_555
C33 C34 1_555 1_555
C40 C41 1_555 1_555
O14 C42 1_555 1_555
H22 C38 1_555 1_555
C39 C38 1_555 1_555
C42 C39 1_555 1_555
O15 C42 1_555 1_555
Zn4 O15 1_555 1_555
Zn9 O14 1_555 1_555
Zn1_2 O1_2 1_555 1_555
P1_2 O3_2 1_555 1_555
P2_2 O6_2 1_555 1_555
O1_2 C7_2 1_555 1_555
O2_2 C7_2 1_555 1_555
O4_2 C14_2 1_555 1_555
O5_2 Zn1_2 1_555 1_555
O7_2 Zn1_2 1_555 1_555
C1_2 P1_2 1_555 1_555
C2_2 C1_2 1_555 1_555
H1_2 C2_2 1_555 1_555
C3_2 C2_2 1_555 1_555
H2_2 C3_2 1_555 1_555
C4_2 C3_2 1_555 1_555
C5_2 C4_2 1_555 1_555
H3_2 C5_2 1_555 1_555
C6_2 C1_2 1_555 1_555
H4_2 C6_2 1_555 1_555
C7_2 C4_2 1_555 1_555
C8_2 P2_2 1_555 1_555
C9_2 C8_2 1_555 1_555
H5_2 C9_2 1_555 1_555
C10_2 C9_2 1_555 1_555
H6_2 C10_2 1_555 1_555
C11_2 C10_2 1_555 1_555
C12_2 C11_2 1_555 1_555
H7_2 C12_2 1_555 1_555
C13_2 C8_2 1_555 1_555
H8_2 C13_2 1_555 1_555
C14_2 O5_2 1_555 1_555
O16 C21_2 1_555 1_555
O9_2 C21_2 1_555 1_555
C15_2 P1_2 1_555 1_555
C16_2 C15_2 1_555 1_555
H9_2 C16_2 1_555 1_555
C17_2 C16_2 1_555 1_555
H10_2 C17_2 1_555 1_555
C18_2 C17_2 1_555 1_555
C19_2 C18_2 1_555 1_555
H11_2 C19_2 1_555 1_555
C20_2 C15_2 1_555 1_555
H12_2 C20_2 1_555 1_555
C21_2 C18_2 1_555 1_555
C22_2 P1_2 1_555 1_555
C23_2 C22_2 1_555 1_555
H13_2 C23_2 1_555 1_555
C27_2 C22_2 1_555 1_555
H16_2 C27_2 1_555 1_555
O12_2 C35_2 1_555 1_555
C29_2 P2_2 1_555 1_555
C30_2 C29_2 1_555 1_555
H17_2 C30_2 1_555 1_555
C31_2 C30_2 1_555 1_555
H18_2 C31_2 1_555 1_555
C32_2 C31_2 1_555 1_555
C33_2 C32_2 1_555 1_555
H19_2 C33_2 1_555 1_555
C34_2 C29_2 1_555 1_555
H20_2 C34_2 1_555 1_555
C35_2 C32_2 1_555 1_555
O13_2 C35_2 1_555 1_555
O14_2 C42_2 1_555 1_555
C36_2 P2_2 1_555 1_555
C37_2 C36_2 1_555 1_555
H21_2 C37_2 1_555 1_555
C38_2 C37_2 1_555 1_555
H22_2 C38_2 1_555 1_555
C39_2 C38_2 1_555 1_555
C40_2 C39_2 1_555 1_555
H23_2 C40_2 1_555 1_555
C41_2 C36_2 1_555 1_555
H24_2 C41_2 1_555 1_555
C42_2 C39_2 1_555 1_555
O15_2 C42_2 1_555 1_555
Zn5 O4_2 1_555 1_555
Zn3_2 O7_2 1_555 1_555
Zn4_2 O15_2 1_555 1_555
Zn6_2 O12_2 1_555 1_555
Zn9 O13_2 1_555 1_555
Zn8 O14_2 1_555 1_555
O17_2 Zn3_2 1_555 1_555
O18_2 Zn3_2 1_555 1_555
O19_2 Zn1_2 1_555 1_555
O20_2 Zn5 1_555 1_555
O21_2 Zn3_2 1_555 1_555
O7_2 Zn5 1_555 1_555
C5_2 C6_2 1_555 1_555
C11_2 C14_2 1_555 1_555
C12_2 C13_2 1_555 1_555
C19_2 C20_2 1_555 1_555
C33_2 C34_2 1_555 1_555
C40_2 C41_2 1_555 1_555
O10_2 C28_2 1_555 1_555
O11_2 C28_2 1_555 1_555
H14_2 C24_2 1_555 1_555
C25_2 C24_2 1_555 1_555
C26_2 C25_2 1_555 1_555
H15_2 C26_2 1_555 1_555
C28_2 C25_2 1_555 1_555
Zn9 O10_2 1_555 1_555
O20 C35_3 1_555 1_555
H18_3 C31_3 1_555 1_555
C32_3 C31_3 1_555 1_555
C35_3 C32_3 1_555 1_555
O18 C35_3 1_555 1_555
P2_3 O6_3 1_555 1_555
C8_3 P2_3 1_555 1_555
C9_3 C8_3 1_555 1_555
H5_3 C9_3 1_555 1_555
C13_3 C8_3 1_555 1_555
H8_3 C13_3 1_555 1_555
C29_3 P2_3 1_555 1_555
C30_3 C29_3 1_555 1_555
H17_3 C30_3 1_555 1_555
C34_3 C29_3 1_555 1_555
H20_3 C34_3 1_555 1_555
O21_2 C42_3 1_555 1_555
C36_3 P2_3 1_555 1_555
C37_3 C36_3 1_555 1_555
H21_3 C37_3 1_555 1_555
C38_3 C37_3 1_555 1_555
H22_3 C38_3 1_555 1_555
C39_3 C38_3 1_555 1_555
C40_3 C39_3 1_555 1_555
H23_3 C40_3 1_555 1_555
C41_3 C36_3 1_555 1_555
H24_3 C41_3 1_555 1_555
C42_3 C39_3 1_555 1_555
O19_2 C42_3 1_555 1_555
C12_3 C13_3 1_555 1_555
C33_3 C34_3 1_555 1_555
C40_3 C41_3 1_555 1_555
P1_3 O3_3 1_555 1_555
C1_3 P1_3 1_555 1_555
C2_3 C1_3 1_555 1_555
H1_3 C2_3 1_555 1_555
C6_3 C1_3 1_555 1_555
H4_3 C6_3 1_555 1_555
O8_2 C21_3 1_555 1_555
O9_3 C21_3 1_555 1_555
C15_3 P1_3 1_555 1_555
C16_3 C15_3 1_555 1_555
H9_3 C16_3 1_555 1_555
C17_3 C16_3 1_555 1_555
H10_3 C17_3 1_555 1_555
C18_3 C17_3 1_555 1_555
C19_3 C18_3 1_555 1_555
H11_3 C19_3 1_555 1_555
C20_3 C15_3 1_555 1_555
H12_3 C20_3 1_555 1_555
C21_3 C18_3 1_555 1_555
O17 C28_3 1_555 1_555
O11_3 C28_3 1_555 1_555
C22_3 P1_3 1_555 1_555
C23_3 C22_3 1_555 1_555
H13_3 C23_3 1_555 1_555
C24_3 C23_3 1_555 1_555
H14_3 C24_3 1_555 1_555
C25_3 C24_3 1_555 1_555
C26_3 C25_3 1_555 1_555
H15_3 C26_3 1_555 1_555
C27_3 C22_3 1_555 1_555
H16_3 C27_3 1_555 1_555
C28_3 C25_3 1_555 1_555
Zn6_2 O8_2 1_555 1_555
C19_3 C20_3 1_555 1_555
C26_3 C27_3 1_555 1_555
Zn4_2 O1_3 1_555 1_555
O1_3 C7_3 1_555 1_555
O2_3 C7_3 1_555 1_555
O4_3 C14_3 1_555 1_555
O5_3 Zn4_2 1_555 1_555
O7_3 Zn4_2 1_555 1_555
H2_3 C3_3 1_555 1_555
C4_3 C3_3 1_555 1_555
C5_3 C4_3 1_555 1_555
H3_3 C5_3 1_555 1_555
C7_3 C4_3 1_555 1_555
H6_3 C10_3 1_555 1_555
C11_3 C10_3 1_555 1_555
C14_3 O5_3 1_555 1_555
Zn6 O4_3 1_555 1_555
Zn8 O7_3 1_555 1_555
O16_2 Zn6 1_555 1_555
O7_3 Zn6 1_555 1_555
C11_3 C14_3 1_555 1_555
O17_2 C28_4 1_555 1_555
O11_4 C28_4 1_555 1_555
H14_4 C24_4 1_555 1_555
C25_4 C24_4 1_555 1_555
C26_4 C25_4 1_555 1_555
H15_4 C26_4 1_555 1_555
C28_4 C25_4 1_555 1_555
O21 C42_4 1_555 1_555
H22_4 C38_4 1_555 1_555
C39_4 C38_4 1_555 1_555
C42_4 C39_4 1_555 1_555
O19 C42_4 1_555 1_555
Zn4 O1_4 1_555 1_555
P2_4 O6_4 1_555 1_555
O1_4 C7_4 1_555 1_555
O2_4 C7_4 1_555 1_555
O4_4 C14_4 1_555 1_555
O5_4 Zn4 1_555 1_555
O7_4 Zn4 1_555 1_555
H2_4 C3_4 1_555 1_555
C4_4 C3_4 1_555 1_555
C5_4 C4_4 1_555 1_555
H3_4 C5_4 1_555 1_555
C7_4 C4_4 1_555 1_555
C8_4 P2_4 1_555 1_555
C9_4 C8_4 1_555 1_555
H5_4 C9_4 1_555 1_555
C10_4 C9_4 1_555 1_555
H6_4 C10_4 1_555 1_555
C11_4 C10_4 1_555 1_555
C12_4 C11_4 1_555 1_555
H7_4 C12_4 1_555 1_555
C13_4 C8_4 1_555 1_555
H8_4 C13_4 1_555 1_555
C14_4 O5_4 1_555 1_555
C29_4 P2_4 1_555 1_555
C30_4 C29_4 1_555 1_555
H17_4 C30_4 1_555 1_555
C34_4 C29_4 1_555 1_555
H20_4 C34_4 1_555 1_555
C36_4 P2_4 1_555 1_555
C37_4 C36_4 1_555 1_555
H21_4 C37_4 1_555 1_555
C41_4 C36_4 1_555 1_555
H24_4 C41_4 1_555 1_555
Zn6_2 O4_4 1_555 1_555
Zn9 O7_4 1_555 1_555
O7_4 Zn6_2 1_555 1_555
C11_4 C14_4 1_555 1_555
C12_4 C13_4 1_555 1_555
C33_4 C34_4 1_555 1_555
C40_4 C41_4 1_555 1_555
O16_2 C21_4 1_555 1_555
O9_4 C21_4 1_555 1_555
H10_4 C17_4 1_555 1_555
C18_4 C17_4 1_555 1_555
C19_4 C18_4 1_555 1_555
H11_4 C19_4 1_555 1_555
C21_4 C18_4 1_555 1_555
P1_4 O3_4 1_555 1_555
C1_4 P1_4 1_555 1_555
C2_4 C1_4 1_555 1_555
H1_4 C2_4 1_555 1_555
C6_4 C1_4 1_555 1_555
H4_4 C6_4 1_555 1_555
C15_4 P1_4 1_555 1_555
C16_4 C15_4 1_555 1_555
H9_4 C16_4 1_555 1_555
C20_4 C15_4 1_555 1_555
H12_4 C20_4 1_555 1_555
C22_4 P1_4 1_555 1_555
C23_4 C22_4 1_555 1_555
H13_4 C23_4 1_555 1_555
C27_4 C22_4 1_555 1_555
H16_4 C27_4 1_555 1_555
O20_2 C35_4 1_555 1_555
H18_4 C31_4 1_555 1_555
C32_4 C31_4 1_555 1_555
C35_4 C32_4 1_555 1_555
O18_2 C35_4 1_555 1_555
O14_3 C42_5 1_555 1_555
H22_5 C38_5 1_555 1_555
C39_5 C38_5 1_555 1_555
C42_5 C39_5 1_555 1_555
O15_3 C42_5 1_555 1_555
Zn4_3 O15_3 1_555 1_555
Zn9_2 O14_3 1_555 1_555
P2_5 O6_5 1_555 1_555
C8_5 P2_5 1_555 1_555
C9_5 C8_5 1_555 1_555
H5_5 C9_5 1_555 1_555
C13_5 C8_5 1_555 1_555
H8_5 C13_5 1_555 1_555
O12_3 C35_5 1_555 1_555
C29_5 P2_5 1_555 1_555
C30_5 C29_5 1_555 1_555
H17_5 C30_5 1_555 1_555
C31_5 C30_5 1_555 1_555
H18_5 C31_5 1_555 1_555
C32_5 C31_5 1_555 1_555
C33_5 C32_5 1_555 1_555
H19_5 C33_5 1_555 1_555
C34_5 C29_5 1_555 1_555
H20_5 C34_5 1_555 1_555
C35_5 C32_5 1_555 1_555
O13_3 C35_5 1_555 1_555
C36_5 P2_5 1_555 1_555
C37_5 C36_5 1_555 1_555
H21_5 C37_5 1_555 1_555
C41_5 C36_5 1_555 1_555
H24_5 C41_5 1_555 1_555
Zn6_3 O12_3 1_555 1_555
Zn7 O13_3 1_555 1_555
C12_5 C13_5 1_555 1_555
C33_5 C34_5 1_555 1_555
C40_5 C41_5 1_555 1_555
O8_3 C21_5 1_555 1_555
O9_5 C21_5 1_555 1_555
H10_5 C17_5 1_555 1_555
C18_5 C17_5 1_555 1_555
C19_5 C18_5 1_555 1_555
H11_5 C19_5 1_555 1_555
C21_5 C18_5 1_555 1_555
Zn5_2 O8_3 1_555 1_555
Zn1_3 O1_5 1_555 1_555
P1_5 O3_5 1_555 1_555
O1_5 C7_5 1_555 1_555
O2_5 C7_5 1_555 1_555
O4_5 C14_5 1_555 1_555
O5_5 Zn1_3 1_555 1_555
O7_5 Zn1_3 1_555 1_555
C1_5 P1_5 1_555 1_555
C2_5 C1_5 1_555 1_555
H1_5 C2_5 1_555 1_555
C3_5 C2_5 1_555 1_555
H2_5 C3_5 1_555 1_555
C4_5 C3_5 1_555 1_555
C5_5 C4_5 1_555 1_555
H3_5 C5_5 1_555 1_555
C6_5 C1_5 1_555 1_555
H4_5 C6_5 1_555 1_555
C7_5 C4_5 1_555 1_555
H6_5 C10_5 1_555 1_555
C11_5 C10_5 1_555 1_555
C14_5 O5_5 1_555 1_555
C15_5 P1_5 1_555 1_555
C16_5 C15_5 1_555 1_555
H9_5 C16_5 1_555 1_555
C20_5 C15_5 1_555 1_555
H12_5 C20_5 1_555 1_555
O10_3 C28_5 1_555 1_555
O11_5 C28_5 1_555 1_555
C22_5 P1_5 1_555 1_555
C23_5 C22_5 1_555 1_555
H13_5 C23_5 1_555 1_555
C24_5 C23_5 1_555 1_555
H14_5 C24_5 1_555 1_555
C25_5 C24_5 1_555 1_555
C26_5 C25_5 1_555 1_555
H15_5 C26_5 1_555 1_555
C27_5 C22_5 1_555 1_555
H16_5 C27_5 1_555 1_555
C28_5 C25_5 1_555 1_555
Zn2_2 O4_5 1_555 1_555
Zn3_3 O7_5 1_555 1_555
Zn7 O10_3 1_555 1_555
O16_3 Zn2_2 1_555 1_555
O17_3 Zn3_3 1_555 1_555
O18_3 Zn3_3 1_555 1_555
O19_3 Zn1_3 1_555 1_555
O20_3 Zn2_2 1_555 1_555
O21_3 Zn3_3 1_555 1_555
O7_5 Zn2_2 1_555 1_555
C5_5 C6_5 1_555 1_555
C11_5 C14_5 1_555 1_555
C26_5 C27_5 1_555 1_555
O10_4 C28_6 1_555 1_555
O11_6 C28_6 1_555 1_555
H14_6 C24_6 1_555 1_555
C25_6 C24_6 1_555 1_555
C26_6 C25_6 1_555 1_555
H15_6 C26_6 1_555 1_555
C28_6 C25_6 1_555 1_555
Zn9_2 O10_4 1_555 1_555
Zn1_4 O1_6 1_555 1_555
P1_6 O3_6 1_555 1_555
P2_6 O6_6 1_555 1_555
O1_6 C7_6 1_555 1_555
O2_6 C7_6 1_555 1_555
O4_6 C14_6 1_555 1_555
O5_6 Zn1_4 1_555 1_555
O7_6 Zn1_4 1_555 1_555
C1_6 P1_6 1_555 1_555
C2_6 C1_6 1_555 1_555
H1_6 C2_6 1_555 1_555
C3_6 C2_6 1_555 1_555
H2_6 C3_6 1_555 1_555
C4_6 C3_6 1_555 1_555
C5_6 C4_6 1_555 1_555
H3_6 C5_6 1_555 1_555
C6_6 C1_6 1_555 1_555
H4_6 C6_6 1_555 1_555
C7_6 C4_6 1_555 1_555
C8_6 P2_6 1_555 1_555
C9_6 C8_6 1_555 1_555
H5_6 C9_6 1_555 1_555
C10_6 C9_6 1_555 1_555
H6_6 C10_6 1_555 1_555
C11_6 C10_6 1_555 1_555
C12_6 C11_6 1_555 1_555
H7_6 C12_6 1_555 1_555
C13_6 C8_6 1_555 1_555
H8_6 C13_6 1_555 1_555
C14_6 O5_6 1_555 1_555
O16_3 C21_6 1_555 1_555
O9_6 C21_6 1_555 1_555
C15_6 P1_6 1_555 1_555
C16_6 C15_6 1_555 1_555
H9_6 C16_6 1_555 1_555
C17_6 C16_6 1_555 1_555
H10_6 C17_6 1_555 1_555
C18_6 C17_6 1_555 1_555
C19_6 C18_6 1_555 1_555
H11_6 C19_6 1_555 1_555
C20_6 C15_6 1_555 1_555
H12_6 C20_6 1_555 1_555
C21_6 C18_6 1_555 1_555
C22_6 P1_6 1_555 1_555
C23_6 C22_6 1_555 1_555
H13_6 C23_6 1_555 1_555
C27_6 C22_6 1_555 1_555
H16_6 C27_6 1_555 1_555
O12_4 C35_6 1_555 1_555
C29_6 P2_6 1_555 1_555
C30_6 C29_6 1_555 1_555
H17_6 C30_6 1_555 1_555
C31_6 C30_6 1_555 1_555
H18_6 C31_6 1_555 1_555
C32_6 C31_6 1_555 1_555
C33_6 C32_6 1_555 1_555
H19_6 C33_6 1_555 1_555
C34_6 C29_6 1_555 1_555
H20_6 C34_6 1_555 1_555
C35_6 C32_6 1_555 1_555
O13_4 C35_6 1_555 1_555
O14_4 C42_6 1_555 1_555
C36_6 P2_6 1_555 1_555
C37_6 C36_6 1_555 1_555
H21_6 C37_6 1_555 1_555
C38_6 C37_6 1_555 1_555
H22_6 C38_6 1_555 1_555
C39_6 C38_6 1_555 1_555
C40_6 C39_6 1_555 1_555
H23_6 C40_6 1_555 1_555
C41_6 C36_6 1_555 1_555
H24_6 C41_6 1_555 1_555
C42_6 C39_6 1_555 1_555
O15_4 C42_6 1_555 1_555
Zn5_2 O4_6 1_555 1_555
Zn3_4 O7_6 1_555 1_555
Zn4_4 O15_4 1_555 1_555
Zn6_4 O12_4 1_555 1_555
Zn9_2 O13_4 1_555 1_555
Zn7 O14_4 1_555 1_555
O17_4 Zn3_4 1_555 1_555
O18_4 Zn3_4 1_555 1_555
O19_4 Zn1_4 1_555 1_555
O20_4 Zn5_2 1_555 1_555
O21_4 Zn3_4 1_555 1_555
O7_6 Zn5_2 1_555 1_555
C5_6 C6_6 1_555 1_555
C11_6 C14_6 1_555 1_555
C12_6 C13_6 1_555 1_555
C19_6 C20_6 1_555 1_555
C33_6 C34_6 1_555 1_555
C40_6 C41_6 1_555 1_555
Zn4_4 O1_7 1_555 1_555
O1_7 C7_7 1_555 1_555
O2_7 C7_7 1_555 1_555
O4_7 C14_7 1_555 1_555
O5_7 Zn4_4 1_555 1_555
O7_7 Zn4_4 1_555 1_555
H2_7 C3_7 1_555 1_555
C4_7 C3_7 1_555 1_555
C5_7 C4_7 1_555 1_555
H3_7 C5_7 1_555 1_555
C7_7 C4_7 1_555 1_555
H6_7 C10_7 1_555 1_555
C11_7 C10_7 1_555 1_555
C14_7 O5_7 1_555 1_555
Zn6_3 O4_7 1_555 1_555
Zn7 O7_7 1_555 1_555
O16_4 Zn6_3 1_555 1_555
O7_7 Zn6_3 1_555 1_555
C11_7 C14_7 1_555 1_555
P1_7 O3_7 1_555 1_555
C1_7 P1_7 1_555 1_555
C2_7 C1_7 1_555 1_555
H1_7 C2_7 1_555 1_555
C6_7 C1_7 1_555 1_555
H4_7 C6_7 1_555 1_555
O8_4 C21_7 1_555 1_555
O9_7 C21_7 1_555 1_555
C15_7 P1_7 1_555 1_555
C16_7 C15_7 1_555 1_555
H9_7 C16_7 1_555 1_555
C17_7 C16_7 1_555 1_555
H10_7 C17_7 1_555 1_555
C18_7 C17_7 1_555 1_555
C19_7 C18_7 1_555 1_555
H11_7 C19_7 1_555 1_555
C20_7 C15_7 1_555 1_555
H12_7 C20_7 1_555 1_555
C21_7 C18_7 1_555 1_555
O17_3 C28_7 1_555 1_555
O11_7 C28_7 1_555 1_555
C22_7 P1_7 1_555 1_555
C23_7 C22_7 1_555 1_555
H13_7 C23_7 1_555 1_555
C24_7 C23_7 1_555 1_555
H14_7 C24_7 1_555 1_555
C25_7 C24_7 1_555 1_555
C26_7 C25_7 1_555 1_555
H15_7 C26_7 1_555 1_555
C27_7 C22_7 1_555 1_555
H16_7 C27_7 1_555 1_555
C28_7 C25_7 1_555 1_555
Zn6_4 O8_4 1_555 1_555
C19_7 C20_7 1_555 1_555
C26_7 C27_7 1_555 1_555
P2_7 O6_7 1_555 1_555
C8_7 P2_7 1_555 1_555
C9_7 C8_7 1_555 1_555
H5_7 C9_7 1_555 1_555
C13_7 C8_7 1_555 1_555
H8_7 C13_7 1_555 1_555
C29_7 P2_7 1_555 1_555
C30_7 C29_7 1_555 1_555
H17_7 C30_7 1_555 1_555
C34_7 C29_7 1_555 1_555
H20_7 C34_7 1_555 1_555
O21_4 C42_7 1_555 1_555
C36_7 P2_7 1_555 1_555
C37_7 C36_7 1_555 1_555
H21_7 C37_7 1_555 1_555
C38_7 C37_7 1_555 1_555
H22_7 C38_7 1_555 1_555
C39_7 C38_7 1_555 1_555
C40_7 C39_7 1_555 1_555
H23_7 C40_7 1_555 1_555
C41_7 C36_7 1_555 1_555
H24_7 C41_7 1_555 1_555
C42_7 C39_7 1_555 1_555
O19_4 C42_7 1_555 1_555
C12_7 C13_7 1_555 1_555
C33_7 C34_7 1_555 1_555
C40_7 C41_7 1_555 1_555
O20_3 C35_7 1_555 1_555
H18_7 C31_7 1_555 1_555
C32_7 C31_7 1_555 1_555
C35_7 C32_7 1_555 1_555
O18_3 C35_7 1_555 1_555
P1_8 O3_8 1_555 1_555
C1_8 P1_8 1_555 1_555
C2_8 C1_8 1_555 1_555
H1_8 C2_8 1_555 1_555
C6_8 C1_8 1_555 1_555
H4_8 C6_8 1_555 1_555
C15_8 P1_8 1_555 1_555
C16_8 C15_8 1_555 1_555
H9_8 C16_8 1_555 1_555
C20_8 C15_8 1_555 1_555
H12_8 C20_8 1_555 1_555
C22_8 P1_8 1_555 1_555
C23_8 C22_8 1_555 1_555
H13_8 C23_8 1_555 1_555
C27_8 C22_8 1_555 1_555
H16_8 C27_8 1_555 1_555
O20_4 C35_8 1_555 1_555
H18_8 C31_8 1_555 1_555
C32_8 C31_8 1_555 1_555
C35_8 C32_8 1_555 1_555
O18_4 C35_8 1_555 1_555
O16_4 C21_8 1_555 1_555
O9_8 C21_8 1_555 1_555
H10_8 C17_8 1_555 1_555
C18_8 C17_8 1_555 1_555
C19_8 C18_8 1_555 1_555
H11_8 C19_8 1_555 1_555
C21_8 C18_8 1_555 1_555
Zn4_3 O1_8 1_555 1_555
P2_8 O6_8 1_555 1_555
O1_8 C7_8 1_555 1_555
O2_8 C7_8 1_555 1_555
O4_8 C14_8 1_555 1_555
O5_8 Zn4_3 1_555 1_555
O7_8 Zn4_3 1_555 1_555
H2_8 C3_8 1_555 1_555
C4_8 C3_8 1_555 1_555
C5_8 C4_8 1_555 1_555
H3_8 C5_8 1_555 1_555
C7_8 C4_8 1_555 1_555
C8_8 P2_8 1_555 1_555
C9_8 C8_8 1_555 1_555
H5_8 C9_8 1_555 1_555
C10_8 C9_8 1_555 1_555
H6_8 C10_8 1_555 1_555
C11_8 C10_8 1_555 1_555
C12_8 C11_8 1_555 1_555
H7_8 C12_8 1_555 1_555
C13_8 C8_8 1_555 1_555
H8_8 C13_8 1_555 1_555
C14_8 O5_8 1_555 1_555
C29_8 P2_8 1_555 1_555
C30_8 C29_8 1_555 1_555
H17_8 C30_8 1_555 1_555
C34_8 C29_8 1_555 1_555
H20_8 C34_8 1_555 1_555
C36_8 P2_8 1_555 1_555
C37_8 C36_8 1_555 1_555
H21_8 C37_8 1_555 1_555
C41_8 C36_8 1_555 1_555
H24_8 C41_8 1_555 1_555
Zn6_4 O4_8 1_555 1_555
Zn9_2 O7_8 1_555 1_555
O7_8 Zn6_4 1_555 1_555
C11_8 C14_8 1_555 1_555
C12_8 C13_8 1_555 1_555
C33_8 C34_8 1_555 1_555
C40_8 C41_8 1_555 1_555
O21_3 C42_8 1_555 1_555
H22_8 C38_8 1_555 1_555
C39_8 C38_8 1_555 1_555
C42_8 C39_8 1_555 1_555
O19_3 C42_8 1_555 1_555
O17_4 C28_8 1_555 1_555
O11_8 C28_8 1_555 1_555
H14_8 C24_8 1_555 1_555
C25_8 C24_8 1_555 1_555
C26_8 C25_8 1_555 1_555
H15_8 C26_8 1_555 1_555
C28_8 C25_8 1_555 1_555

#END
