
###############################################################################
#
# This file contains modified crystal structure data generated from the
# MOF subset of the Cambridge Structural Database (CSD) v543 
# hosted by the Cambridge Crystallographic Data Centre (CCDC).
#
# This work is licensed under the Creative Commons
# Attribution-NonCommercial-ShareAlike 4.0 International License.
# To view a copy of this license, visit
# http://creativecommons.org/licenses/by-nc-sa/4.0/
# or send a letter to
# Creative Commons, PO Box 1866, Mountain View, CA 94042, USA.
#
# CIF created using the CSD Python API on 29 September 2022
# The structure has been converted into the P1 space group
# The structure has a 3D framework
# The original CSD entry LELDUD is in the cubic crystal system
# The framework has been calculated to contain at least 10.0% void space
# The void calculation uses a probe of radius 1.32A, grid spacing 0.4
# H atom positions have been added when not included in the experimental data
#
###############################################################################

data_LELDUD
_chemical_formula_moiety         '(C816 H480 Cu48 N48 O240)n'
_symmetry_cell_setting           triclinic
_symmetry_space_group_name_H-M   'P 1'
_symmetry_Int_Tables_number      1
_space_group_name_Hall           'P 1'
loop_
_symmetry_equiv_pos_site_id
_symmetry_equiv_pos_as_xyz
1 x,y,z
_cell_length_a                   39.4840(16)
_cell_length_b                   39.4840(16)
_cell_length_c                   39.4840(16)
_cell_angle_alpha                90
_cell_angle_beta                 90
_cell_angle_gamma                90
_cell_volume                     61555
loop_
_atom_site_label
_atom_site_type_symbol
_atom_site_fract_x
_atom_site_fract_y
_atom_site_fract_z
Cu1 Cu 0.035426(12) 0.540868(12) 0.263812(12)
Cu2 Cu 0.025540(11) 0.529290(11) 0.328529(11)
O1 O 0.03368(7) 0.48148(7) 0.31775(7)
O2 O 0.03498(7) 0.49361(8) 0.25905(7)
O3 O 0.03757(7) 0.33318(7) 0.42595(6)
O4 O 0.03980(7) 0.27697(7) 0.41716(7)
O5 O 0.03806(7) 0.23948(7) 0.01362(7)
O6 O 0.02368(7) 0.18560(7) 0.02104(7)
O9 O 0.04623(9) 0.55063(9) 0.21026(9)
O10 O 0.01798(9) 0.51909(9) 0.38141(9)
N1 N 0.03599(12) 0.33305(14) 0.26581(13)
N2 N 0.01403(12) 0.23230(14) 0.16940(14)
C1 C 0.03351(9) 0.47190(12) 0.28511(14)
C2 C 0.03578(6) 0.41161(10) 0.30746(9)
H1 H 0.0367 0.4192 0.3303
C3 C 0.03405(7) 0.43666(15) 0.28085(14)
C4 C 0.03270(13) 0.42581(17) 0.24561(15)
H2 H 0.0318 0.4418 0.2277
C5 C 0.03285(14) 0.3870(2) 0.2384(2)
H3 H 0.0318 0.3776 0.2162
C6 C 0.03479(15) 0.3663(2) 0.2698(2)
C7 C 0.03616(11) 0.37971(15) 0.30174(15)
C8 C 0.03789(11) 0.35183(14) 0.32261(14)
C9 C 0.03763(12) 0.32013(14) 0.30081(14)
C10 C 0.03828(14) 0.2892(2) 0.3137(2)
H4 H 0.0374 0.2705 0.2985
C11 C 0.04015(14) 0.2825(2) 0.3482(2)
H5 H 0.0409 0.2601 0.3570
C12 C 0.04083(11) 0.31170(12) 0.36964(13)
C13 C 0.03965(9) 0.34512(10) 0.35678(10)
H6 H 0.0401 0.3635 0.3722
C14 C 0.04232(11) 0.30735(13) 0.40728(13)
C15 C 0.03132(13) 0.30949(16) 0.24360(16)
C16 C 0.0055(2) 0.3098(2) 0.22100(19)
C17 C 0.0033(3) 0.2856(2) 0.1964(2)
C18 C 0.02271(14) 0.26142(15) 0.19141(13)
C19 C 0.05031(18) 0.25899(18) 0.21330(18)
H9 H 0.0659 0.2408 0.2105
C20 C 0.0558(2) 0.2828(2) 0.2396(2)
H10 H 0.0750 0.2813 0.2540
C21 C 0.01186(6) 0.19913(13) 0.12500(13)
C22 C 0.01795(9) 0.2310(2) 0.1374(2)
C23 C 0.02820(9) 0.26016(14) 0.11403(15)
H11 H 0.0325 0.2822 0.1228
C24 C 0.03077(11) 0.25416(13) 0.08320(13)
H12 H 0.0370 0.2718 0.0681
C25 C 0.02433(10) 0.22051(12) 0.07009(12)
C26 C 0.01505(9) 0.19351(11) 0.09076(11)
H13 H 0.0110 0.1717 0.0814
C27 C 0.02848(9) 0.21431(10) 0.03194(9)
C29 C 0.00359(12) 0.18012(17) 0.15188(16)
C30 C 0.00483(14) 0.2025(2) 0.1825(2)
Cu3 Cu 0.040868(12) 0.263812(12) 0.464574(12)
Cu6 Cu 0.029290(11) 0.328529(11) 0.474460(11)
O11 O 0.07405(6) 0.53757(7) 0.33318(7)
O12 O 0.08284(7) 0.53980(7) 0.27697(7)
O15 O 0.01582(8) 0.57866(8) 0.33131(8)
O16 O 0.03374(8) 0.58733(9) 0.27783(9)
H17 H 0.0387509 0.50863 0.390983
H18 H 0.0131 0.540605 0.393484
H19 H 0.0277947 0.541028 0.196103
H20 H 0.0477145 0.575436 0.206394
Cu4 Cu 0.040868(12) 0.236188(12) 0.964574(12)
Cu7 Cu 0.029290(11) 0.171471(11) 0.974460(11)
O7 O 0.98418(8) 0.07866(8) 0.16869(8)
O8 O 0.96626(8) 0.08733(9) 0.22217(9)
H7 H 0.9888 0.3271 0.2223
H8 H 0.9847 0.2875 0.1812
C28 C 0.99445(11) 0.14671(13) 0.15848(14)
H14 H 0.9934 0.1321 0.1394
C31 C 0.99702(14) 0.18691(18) 0.21381(19)
H15 H 0.9979 0.2004 0.2337
C32 C 0.98904(11) 0.15622(13) 0.21676(13)
H16 H 0.9841 0.1480 0.2388
C33 C 0.98688(10) 0.13237(11) 0.18860(11)
C34 C 0.97838(11) 0.09916(13) 0.19289(12)
Cu5 Cu 0.964574(12) 0.040868(12) 0.236188(12)
Cu8 Cu 0.974460(11) 0.029290(11) 0.171471(11)
O13 O 0.98638(7) 0.53806(7) 0.26052(7)
O14 O 0.97896(7) 0.52368(7) 0.31440(7)
Cu1_2 Cu 0.263812(12) 0.035426(12) 0.540868(12)
Cu2_2 Cu 0.328529(11) 0.025540(11) 0.529290(11)
O1_2 O 0.31775(7) 0.03368(7) 0.48148(7)
O2_2 O 0.25905(7) 0.03498(7) 0.49361(8)
O3_2 O 0.42595(6) 0.03757(7) 0.33318(7)
O4_2 O 0.41716(7) 0.03980(7) 0.27697(7)
O5_2 O 0.01362(7) 0.03806(7) 0.23948(7)
O6_2 O 0.02104(7) 0.02368(7) 0.18560(7)
O9_2 O 0.21026(9) 0.04623(9) 0.55063(9)
O10_2 O 0.38141(9) 0.01798(9) 0.51909(9)
N1_2 N 0.26581(13) 0.03599(12) 0.33305(14)
N2_2 N 0.16940(14) 0.01403(12) 0.23230(14)
C1_2 C 0.28511(14) 0.03351(9) 0.47190(12)
C2_2 C 0.30746(9) 0.03578(6) 0.41161(10)
H1_2 H 0.3303 0.0367 0.4192
C3_2 C 0.28085(14) 0.03405(7) 0.43666(15)
C4_2 C 0.24561(15) 0.03270(13) 0.42581(17)
H2_2 H 0.2277 0.0318 0.4418
C5_2 C 0.2384(2) 0.03285(14) 0.3870(2)
H3_2 H 0.2162 0.0318 0.3776
C6_2 C 0.2698(2) 0.03479(15) 0.3663(2)
C7_2 C 0.30174(15) 0.03616(11) 0.37971(15)
C8_2 C 0.32261(14) 0.03789(11) 0.35183(14)
C9_2 C 0.30081(14) 0.03763(12) 0.32013(14)
C10_2 C 0.3137(2) 0.03828(14) 0.2892(2)
H4_2 H 0.2985 0.0374 0.2705
C11_2 C 0.3482(2) 0.04015(14) 0.2825(2)
H5_2 H 0.3570 0.0409 0.2601
C12_2 C 0.36964(13) 0.04083(11) 0.31170(12)
C13_2 C 0.35678(10) 0.03965(9) 0.34512(10)
H6_2 H 0.3722 0.0401 0.3635
C14_2 C 0.40728(13) 0.04232(11) 0.30735(13)
C15_2 C 0.24360(16) 0.03132(13) 0.30949(16)
C16_2 C 0.22100(19) 0.0055(2) 0.3098(2)
C17_2 C 0.1964(2) 0.0033(3) 0.2856(2)
C18_2 C 0.19141(13) 0.02271(14) 0.26142(15)
C19_2 C 0.21330(18) 0.05031(18) 0.25899(18)
H9_2 H 0.2105 0.0659 0.2408
C20_2 C 0.2396(2) 0.0558(2) 0.2828(2)
H10_2 H 0.2540 0.0750 0.2813
C21_2 C 0.12500(13) 0.01186(6) 0.19913(13)
C22_2 C 0.1374(2) 0.01795(9) 0.2310(2)
C23_2 C 0.11403(15) 0.02820(9) 0.26016(14)
H11_2 H 0.1228 0.0325 0.2822
C24_2 C 0.08320(13) 0.03077(11) 0.25416(13)
H12_2 H 0.0681 0.0370 0.2718
C25_2 C 0.07009(12) 0.02433(10) 0.22051(12)
C26_2 C 0.09076(11) 0.01505(9) 0.19351(11)
H13_2 H 0.0814 0.0110 0.1717
C27_2 C 0.03194(9) 0.02848(9) 0.21431(10)
C29_2 C 0.15188(16) 0.00359(12) 0.18012(17)
C30_2 C 0.1825(2) 0.00483(14) 0.2025(2)
Cu3_2 Cu 0.464574(12) 0.040868(12) 0.263812(12)
Cu6_2 Cu 0.474460(11) 0.029290(11) 0.328529(11)
O11_2 O 0.33318(7) 0.07405(6) 0.53757(7)
O12_2 O 0.27697(7) 0.08284(7) 0.53980(7)
O15_2 O 0.33131(8) 0.01582(8) 0.57866(8)
O16_2 O 0.27783(9) 0.03374(8) 0.58733(9)
H17_2 H 0.390983 0.0387509 0.50863
H18_2 H 0.393484 0.0131 0.540605
H19_2 H 0.196103 0.0277947 0.541028
H20_2 H 0.206394 0.0477145 0.575436
O7_2 O 0.16869(8) 0.98418(8) 0.07866(8)
O8_2 O 0.22217(9) 0.96626(8) 0.08733(9)
H7_2 H 0.2223 0.9888 0.3271
H8_2 H 0.1812 0.9847 0.2875
C28_2 C 0.15848(14) 0.99445(11) 0.14671(13)
H14_2 H 0.1394 0.9934 0.1321
C31_2 C 0.21381(19) 0.99702(14) 0.18691(18)
H15_2 H 0.2337 0.9979 0.2004
C32_2 C 0.21676(13) 0.98904(11) 0.15622(13)
H16_2 H 0.2388 0.9841 0.1480
C33_2 C 0.18860(11) 0.98688(10) 0.13237(11)
C34_2 C 0.19289(12) 0.97838(11) 0.09916(13)
Cu5_2 Cu 0.236188(12) 0.964574(12) 0.040868(12)
Cu8_2 Cu 0.171471(11) 0.974460(11) 0.029290(11)
O13_2 O 0.26052(7) 0.98638(7) 0.53806(7)
O14_2 O 0.31440(7) 0.97896(7) 0.52368(7)
Cu1_3 Cu 0.540868(12) 0.263812(12) 0.035426(12)
Cu2_3 Cu 0.529290(11) 0.328529(11) 0.025540(11)
O1_3 O 0.48148(7) 0.31775(7) 0.03368(7)
O2_3 O 0.49361(8) 0.25905(7) 0.03498(7)
O3_3 O 0.33318(7) 0.42595(6) 0.03757(7)
O4_3 O 0.27697(7) 0.41716(7) 0.03980(7)
O5_3 O 0.23948(7) 0.01362(7) 0.03806(7)
O6_3 O 0.18560(7) 0.02104(7) 0.02368(7)
O9_3 O 0.55063(9) 0.21026(9) 0.04623(9)
O10_3 O 0.51909(9) 0.38141(9) 0.01798(9)
N1_3 N 0.33305(14) 0.26581(13) 0.03599(12)
N2_3 N 0.23230(14) 0.16940(14) 0.01403(12)
C1_3 C 0.47190(12) 0.28511(14) 0.03351(9)
C2_3 C 0.41161(10) 0.30746(9) 0.03578(6)
H1_3 H 0.4192 0.3303 0.0367
C3_3 C 0.43666(15) 0.28085(14) 0.03405(7)
C4_3 C 0.42581(17) 0.24561(15) 0.03270(13)
H2_3 H 0.4418 0.2277 0.0318
C5_3 C 0.3870(2) 0.2384(2) 0.03285(14)
H3_3 H 0.3776 0.2162 0.0318
C6_3 C 0.3663(2) 0.2698(2) 0.03479(15)
C7_3 C 0.37971(15) 0.30174(15) 0.03616(11)
C8_3 C 0.35183(14) 0.32261(14) 0.03789(11)
C9_3 C 0.32013(14) 0.30081(14) 0.03763(12)
C10_3 C 0.2892(2) 0.3137(2) 0.03828(14)
H4_3 H 0.2705 0.2985 0.0374
C11_3 C 0.2825(2) 0.3482(2) 0.04015(14)
H5_3 H 0.2601 0.3570 0.0409
C12_3 C 0.31170(12) 0.36964(13) 0.04083(11)
C13_3 C 0.34512(10) 0.35678(10) 0.03965(9)
H6_3 H 0.3635 0.3722 0.0401
C14_3 C 0.30735(13) 0.40728(13) 0.04232(11)
C15_3 C 0.30949(16) 0.24360(16) 0.03132(13)
C16_3 C 0.3098(2) 0.22100(19) 0.0055(2)
C17_3 C 0.2856(2) 0.1964(2) 0.0033(3)
C18_3 C 0.26142(15) 0.19141(13) 0.02271(14)
C19_3 C 0.25899(18) 0.21330(18) 0.05031(18)
H9_3 H 0.2408 0.2105 0.0659
C20_3 C 0.2828(2) 0.2396(2) 0.0558(2)
H10_3 H 0.2813 0.2540 0.0750
C21_3 C 0.19913(13) 0.12500(13) 0.01186(6)
C22_3 C 0.2310(2) 0.1374(2) 0.01795(9)
C23_3 C 0.26016(14) 0.11403(15) 0.02820(9)
H11_3 H 0.2822 0.1228 0.0325
C24_3 C 0.25416(13) 0.08320(13) 0.03077(11)
H12_3 H 0.2718 0.0681 0.0370
C25_3 C 0.22051(12) 0.07009(12) 0.02433(10)
C26_3 C 0.19351(11) 0.09076(11) 0.01505(9)
H13_3 H 0.1717 0.0814 0.0110
C27_3 C 0.21431(10) 0.03194(9) 0.02848(9)
C29_3 C 0.18012(17) 0.15188(16) 0.00359(12)
C30_3 C 0.2025(2) 0.1825(2) 0.00483(14)
Cu3_3 Cu 0.263812(12) 0.464574(12) 0.040868(12)
Cu6_3 Cu 0.328529(11) 0.474460(11) 0.029290(11)
O11_3 O 0.53757(7) 0.33318(7) 0.07405(6)
O12_3 O 0.53980(7) 0.27697(7) 0.08284(7)
O15_3 O 0.57866(8) 0.33131(8) 0.01582(8)
O16_3 O 0.58733(9) 0.27783(9) 0.03374(8)
H17_3 H 0.50863 0.390983 0.0387509
H18_3 H 0.540605 0.393484 0.0131
H19_3 H 0.541028 0.196103 0.0277947
H20_3 H 0.575436 0.206394 0.0477145
O7_3 O 0.07866(8) 0.16869(8) 0.98418(8)
O8_3 O 0.08733(9) 0.22217(9) 0.96626(8)
H7_3 H 0.3271 0.2223 0.9888
H8_3 H 0.2875 0.1812 0.9847
C28_3 C 0.14671(13) 0.15848(14) 0.99445(11)
H14_3 H 0.1321 0.1394 0.9934
C31_3 C 0.18691(18) 0.21381(19) 0.99702(14)
H15_3 H 0.2004 0.2337 0.9979
C32_3 C 0.15622(13) 0.21676(13) 0.98904(11)
H16_3 H 0.1480 0.2388 0.9841
C33_3 C 0.13237(11) 0.18860(11) 0.98688(10)
C34_3 C 0.09916(13) 0.19289(12) 0.97838(11)
O13_3 O 0.53806(7) 0.26052(7) 0.98638(7)
O14_3 O 0.52368(7) 0.31440(7) 0.97896(7)
O1_4 O 0.01852(7) 0.68225(7) 0.53368(7)
O2_4 O 0.00639(8) 0.74095(7) 0.53498(7)
O3_4 O 0.16682(7) 0.57405(6) 0.53757(7)
O4_4 O 0.22303(7) 0.58284(7) 0.53980(7)
O7_4 O 0.42134(8) 0.83131(8) 0.48418(8)
O8_4 O 0.41267(9) 0.77783(9) 0.46626(8)
N1_4 N 0.16695(14) 0.73419(13) 0.53599(12)
N2_4 N 0.26770(14) 0.83060(14) 0.51403(12)
C1_4 C 0.02810(12) 0.71489(14) 0.53351(9)
C2_4 C 0.08839(10) 0.69254(9) 0.53578(6)
H1_4 H 0.0808 0.6697 0.5367
C3_4 C 0.06334(15) 0.71915(14) 0.53405(7)
C4_4 C 0.07419(17) 0.75439(15) 0.53270(13)
H2_4 H 0.0582 0.7723 0.5318
C5_4 C 0.1130(2) 0.7616(2) 0.53285(14)
H3_4 H 0.1224 0.7838 0.5318
C6_4 C 0.1337(2) 0.7302(2) 0.53479(15)
C7_4 C 0.12029(15) 0.69826(15) 0.53616(11)
C8_4 C 0.14817(14) 0.67739(14) 0.53789(11)
C9_4 C 0.17987(14) 0.69919(14) 0.53763(12)
C10_4 C 0.2108(2) 0.6863(2) 0.53828(14)
H4_4 H 0.2295 0.7015 0.5374
C11_4 C 0.2175(2) 0.6518(2) 0.54015(14)
H5_4 H 0.2399 0.6430 0.5409
C12_4 C 0.18830(12) 0.63036(13) 0.54083(11)
C13_4 C 0.15488(10) 0.64322(10) 0.53965(9)
H6_4 H 0.1365 0.6278 0.5401
C14_4 C 0.19265(13) 0.59272(13) 0.54232(11)
C15_4 C 0.19051(16) 0.75640(16) 0.53132(13)
C16_4 C 0.1902(2) 0.77900(19) 0.5055(2)
H7_4 H 0.1729 0.7777 0.4888
C17_4 C 0.2144(2) 0.8036(2) 0.5033(3)
H8_4 H 0.2125 0.8188 0.4847
C18_4 C 0.23858(15) 0.80859(13) 0.52271(14)
C19_4 C 0.24101(18) 0.78670(18) 0.55031(18)
H9_4 H 0.2592 0.7895 0.5659
C20_4 C 0.2172(2) 0.7604(2) 0.5558(2)
H10_4 H 0.2187 0.7460 0.5750
C21_4 C 0.30087(13) 0.87500(13) 0.51186(6)
C22_4 C 0.2690(2) 0.8626(2) 0.51795(9)
C23_4 C 0.23984(14) 0.88597(15) 0.52820(9)
H11_4 H 0.2178 0.8772 0.5325
C24_4 C 0.24584(13) 0.91680(13) 0.53077(11)
H12_4 H 0.2282 0.9319 0.5370
C25_4 C 0.27949(12) 0.92991(12) 0.52433(10)
C26_4 C 0.30649(11) 0.90924(11) 0.51505(9)
H13_4 H 0.3283 0.9186 0.5110
C27_4 C 0.28569(10) 0.96806(9) 0.52848(9)
C28_4 C 0.35329(13) 0.84152(14) 0.49445(11)
H14_4 H 0.3679 0.8606 0.4934
C29_4 C 0.31988(17) 0.84812(16) 0.50359(12)
C30_4 C 0.2975(2) 0.8175(2) 0.50483(14)
C31_4 C 0.31309(18) 0.78619(19) 0.49702(14)
H15_4 H 0.2996 0.7663 0.4979
C32_4 C 0.34378(13) 0.78324(13) 0.48904(11)
H16_4 H 0.3520 0.7612 0.4841
C33_4 C 0.36763(11) 0.81140(11) 0.48688(10)
C34_4 C 0.40084(13) 0.80711(12) 0.47838(11)
Cu3_4 Cu 0.236188(12) 0.535426(12) 0.540868(12)
Cu5_3 Cu 0.459132(12) 0.763812(12) 0.464574(12)
Cu6_4 Cu 0.171471(11) 0.525540(11) 0.529290(11)
Cu8_3 Cu 0.470710(11) 0.828529(11) 0.474460(11)
Cu1_4 Cu 0.959132(12) 0.736188(12) 0.535426(12)
Cu2_4 Cu 0.970710(11) 0.671471(11) 0.525540(11)
O9_4 O 0.94937(9) 0.78974(9) 0.54623(9)
O10_4 O 0.98091(9) 0.61859(9) 0.51798(9)
O11_4 O 0.96243(7) 0.66682(7) 0.57405(6)
O12_4 O 0.96020(7) 0.72303(7) 0.58284(7)
O13_4 O 0.96194(7) 0.73948(7) 0.48638(7)
O14_4 O 0.97632(7) 0.68560(7) 0.47896(7)
O15_4 O 0.92134(8) 0.66869(8) 0.51582(8)
O16_4 O 0.91267(9) 0.72217(9) 0.53374(8)
H17_4 H 0.99137 0.609017 0.538751
H18_4 H 0.959395 0.606516 0.5131
H19_4 H 0.958972 0.803897 0.527795
H20_4 H 0.924564 0.793606 0.547714
Cu1_5 Cu 0.763812(12) 0.464574(12) 0.459132(12)
Cu2_5 Cu 0.828529(11) 0.474460(11) 0.470710(11)
O1_5 O 0.81775(7) 0.46632(7) 0.51852(7)
O2_5 O 0.75905(7) 0.46502(7) 0.50639(8)
O3_5 O 0.92595(6) 0.46243(7) 0.66682(7)
O4_5 O 0.91716(7) 0.46020(7) 0.72303(7)
O5_4 O 0.51362(7) 0.46194(7) 0.76052(7)
O6_4 O 0.52104(7) 0.47632(7) 0.81440(7)
O7_5 O 0.66869(8) 0.51582(8) 0.92134(8)
O8_5 O 0.72217(9) 0.53374(8) 0.91267(9)
O9_5 O 0.71026(9) 0.45377(9) 0.44937(9)
O10_5 O 0.88141(9) 0.48202(9) 0.48091(9)
N1_5 N 0.76581(13) 0.46401(12) 0.66695(14)
N2_5 N 0.66940(14) 0.48597(12) 0.76770(14)
C1_5 C 0.78511(14) 0.46649(9) 0.52810(12)
C2_5 C 0.80746(9) 0.46422(6) 0.58839(10)
H1_5 H 0.8303 0.4633 0.5808
C3_5 C 0.78085(14) 0.46595(7) 0.56334(15)
C4_5 C 0.74561(15) 0.46730(13) 0.57419(17)
H2_5 H 0.7277 0.4682 0.5582
C5_5 C 0.7384(2) 0.46715(14) 0.6130(2)
H3_5 H 0.7162 0.4682 0.6224
C6_5 C 0.7698(2) 0.46521(15) 0.6337(2)
C7_5 C 0.80174(15) 0.46384(11) 0.62029(15)
C8_5 C 0.82261(14) 0.46211(11) 0.64817(14)
C9_5 C 0.80081(14) 0.46237(12) 0.67987(14)
C10_5 C 0.8137(2) 0.46172(14) 0.7108(2)
H4_5 H 0.7985 0.4626 0.7295
C11_5 C 0.8482(2) 0.45985(14) 0.7175(2)
H5_5 H 0.8570 0.4591 0.7399
C12_5 C 0.86964(13) 0.45917(11) 0.68830(12)
C13_5 C 0.85678(10) 0.46035(9) 0.65488(10)
H6_5 H 0.8722 0.4599 0.6365
C14_5 C 0.90728(13) 0.45768(11) 0.69265(13)
C15_5 C 0.74360(16) 0.46868(13) 0.69051(16)
C16_5 C 0.72100(19) 0.4945(2) 0.6902(2)
H7_5 H 0.7223 0.5112 0.6729
C17_5 C 0.6964(2) 0.4967(3) 0.7144(2)
H8_5 H 0.6812 0.5153 0.7125
C18_5 C 0.69141(13) 0.47729(14) 0.73858(15)
C19_5 C 0.71330(18) 0.44969(18) 0.74101(18)
H9_5 H 0.7105 0.4341 0.7592
C20_5 C 0.7396(2) 0.4442(2) 0.7172(2)
H10_5 H 0.7540 0.4250 0.7187
C21_5 C 0.62500(13) 0.48814(6) 0.80087(13)
C22_5 C 0.6374(2) 0.48205(9) 0.7690(2)
C23_5 C 0.61403(15) 0.47180(9) 0.73984(14)
H11_5 H 0.6228 0.4675 0.7178
C24_5 C 0.58320(13) 0.46923(11) 0.74584(13)
H12_5 H 0.5681 0.4630 0.7282
C25_5 C 0.57009(12) 0.47567(10) 0.77949(12)
C26_5 C 0.59076(11) 0.48495(9) 0.80649(11)
H13_5 H 0.5814 0.4890 0.8283
C27_5 C 0.53194(9) 0.47152(9) 0.78569(10)
C28_5 C 0.65848(14) 0.50555(11) 0.85329(13)
H14_5 H 0.6394 0.5066 0.8679
C29_5 C 0.65188(16) 0.49641(12) 0.81988(17)
C30_5 C 0.6825(2) 0.49517(14) 0.7975(2)
C31_5 C 0.71381(19) 0.50298(14) 0.81309(18)
H15_5 H 0.7337 0.5021 0.7996
C32_5 C 0.71676(13) 0.51096(11) 0.84378(13)
H16_5 H 0.7388 0.5159 0.8520
C33_5 C 0.68860(11) 0.51312(10) 0.86763(11)
C34_5 C 0.69289(12) 0.52162(11) 0.90084(13)
Cu3_5 Cu 0.964574(12) 0.459132(12) 0.736188(12)
Cu4_2 Cu 0.464574(12) 0.459132(12) 0.763812(12)
Cu5_4 Cu 0.736188(12) 0.535426(12) 0.959132(12)
Cu6_5 Cu 0.974460(11) 0.470710(11) 0.671471(11)
Cu7_2 Cu 0.474460(11) 0.470710(11) 0.828529(11)
Cu8_4 Cu 0.671471(11) 0.525540(11) 0.970710(11)
O11_5 O 0.83318(7) 0.42595(6) 0.46243(7)
O12_5 O 0.77697(7) 0.41716(7) 0.46020(7)
O13_5 O 0.76052(7) 0.51362(7) 0.46194(7)
O14_5 O 0.81440(7) 0.52104(7) 0.47632(7)
O15_5 O 0.83131(8) 0.48418(8) 0.42134(8)
O16_5 O 0.77783(9) 0.46626(8) 0.41267(9)
H17_5 H 0.890983 0.461249 0.49137
H18_5 H 0.893484 0.4869 0.459395
H19_5 H 0.696103 0.472205 0.458972
H20_5 H 0.706394 0.452286 0.424564
O1_6 O 0.51852(7) 0.81775(7) 0.46632(7)
O2_6 O 0.50639(8) 0.75905(7) 0.46502(7)
O3_6 O 0.66682(7) 0.92595(6) 0.46243(7)
O4_6 O 0.72303(7) 0.91716(7) 0.46020(7)
O9_6 O 0.44937(9) 0.71026(9) 0.45377(9)
O10_6 O 0.48091(9) 0.88141(9) 0.48202(9)
N1_6 N 0.66695(14) 0.76581(13) 0.46401(12)
N2_6 N 0.76770(14) 0.66940(14) 0.48597(12)
C1_6 C 0.52810(12) 0.78511(14) 0.46649(9)
C2_6 C 0.58839(10) 0.80746(9) 0.46422(6)
H1_6 H 0.5808 0.8303 0.4633
C3_6 C 0.56334(15) 0.78085(14) 0.46595(7)
C4_6 C 0.57419(17) 0.74561(15) 0.46730(13)
H2_6 H 0.5582 0.7277 0.4682
C5_6 C 0.6130(2) 0.7384(2) 0.46715(14)
H3_6 H 0.6224 0.7162 0.4682
C6_6 C 0.6337(2) 0.7698(2) 0.46521(15)
C7_6 C 0.62029(15) 0.80174(15) 0.46384(11)
C8_6 C 0.64817(14) 0.82261(14) 0.46211(11)
C9_6 C 0.67987(14) 0.80081(14) 0.46237(12)
C10_6 C 0.7108(2) 0.8137(2) 0.46172(14)
H4_6 H 0.7295 0.7985 0.4626
C11_6 C 0.7175(2) 0.8482(2) 0.45985(14)
H5_6 H 0.7399 0.8570 0.4591
C12_6 C 0.68830(12) 0.86964(13) 0.45917(11)
C13_6 C 0.65488(10) 0.85678(10) 0.46035(9)
H6_6 H 0.6365 0.8722 0.4599
C14_6 C 0.69265(13) 0.90728(13) 0.45768(11)
C15_6 C 0.69051(16) 0.74360(16) 0.46868(13)
C16_6 C 0.6902(2) 0.72100(19) 0.4945(2)
H7_6 H 0.6729 0.7223 0.5112
C17_6 C 0.7144(2) 0.6964(2) 0.4967(3)
H8_6 H 0.7125 0.6812 0.5153
C18_6 C 0.73858(15) 0.69141(13) 0.47729(14)
C19_6 C 0.74101(18) 0.71330(18) 0.44969(18)
H9_6 H 0.7592 0.7105 0.4341
C20_6 C 0.7172(2) 0.7396(2) 0.4442(2)
H10_6 H 0.7187 0.7540 0.4250
C21_6 C 0.80087(13) 0.62500(13) 0.48814(6)
C22_6 C 0.7690(2) 0.6374(2) 0.48205(9)
C23_6 C 0.73984(14) 0.61403(15) 0.47180(9)
H11_6 H 0.7178 0.6228 0.4675
C24_6 C 0.74584(13) 0.58320(13) 0.46923(11)
H12_6 H 0.7282 0.5681 0.4630
C25_6 C 0.77949(12) 0.57009(12) 0.47567(10)
C26_6 C 0.80649(11) 0.59076(11) 0.48495(9)
H13_6 H 0.8283 0.5814 0.4890
C27_6 C 0.78569(10) 0.53194(9) 0.47152(9)
C28_6 C 0.85329(13) 0.65848(14) 0.50555(11)
H14_6 H 0.8679 0.6394 0.5066
C29_6 C 0.81988(17) 0.65188(16) 0.49641(12)
C30_6 C 0.7975(2) 0.6825(2) 0.49517(14)
C31_6 C 0.81309(18) 0.71381(19) 0.50298(14)
H15_6 H 0.7996 0.7337 0.5021
C32_6 C 0.84378(13) 0.71676(13) 0.51096(11)
H16_6 H 0.8520 0.7388 0.5159
C33_6 C 0.86763(11) 0.68860(11) 0.51312(10)
C34_6 C 0.90084(13) 0.69289(12) 0.52162(11)
Cu3_6 Cu 0.736188(12) 0.964574(12) 0.459132(12)
Cu6_6 Cu 0.671471(11) 0.974460(11) 0.470710(11)
O11_6 O 0.46243(7) 0.83318(7) 0.42595(6)
O12_6 O 0.46020(7) 0.77697(7) 0.41716(7)
O13_6 O 0.46194(7) 0.76052(7) 0.51362(7)
O14_6 O 0.47632(7) 0.81440(7) 0.52104(7)
H17_6 H 0.49137 0.890983 0.461249
H18_6 H 0.459395 0.893484 0.4869
H19_6 H 0.458972 0.696103 0.472205
H20_6 H 0.424564 0.706394 0.452286
H7_7 H 0.2777 0.0112 0.8271
H8_7 H 0.3188 0.0153 0.7875
C28_7 C 0.34152(14) 0.00555(11) 0.64671(13)
H14_7 H 0.3606 0.0066 0.6321
C31_7 C 0.28619(19) 0.00298(14) 0.68691(18)
H15_7 H 0.2663 0.0021 0.7004
C32_7 C 0.28324(13) 0.01096(11) 0.65622(13)
H16_7 H 0.2612 0.0159 0.6480
C33_7 C 0.31140(11) 0.01312(10) 0.63237(11)
C34_7 C 0.30711(12) 0.02162(11) 0.59916(13)
O9_7 O 0.28974(9) 0.95377(9) 0.05063(9)
O10_7 O 0.11859(9) 0.98202(9) 0.01909(9)
O11_7 O 0.16682(7) 0.92595(6) 0.03757(7)
O12_7 O 0.22303(7) 0.91716(7) 0.03980(7)
H17_7 H 0.109017 0.961249 0.00862984
H18_7 H 0.106516 0.9869 0.0406052
H19_7 H 0.303897 0.972205 0.0410276
H20_7 H 0.293606 0.952286 0.0754361
O1_7 O 0.18225(7) 0.96632(7) 0.98148(7)
O2_7 O 0.24095(7) 0.96502(7) 0.99361(8)
O3_7 O 0.07405(6) 0.96243(7) 0.83318(7)
O4_7 O 0.08284(7) 0.96020(7) 0.77697(7)
O5_5 O 0.48638(7) 0.96194(7) 0.73948(7)
O6_5 O 0.47896(7) 0.97632(7) 0.68560(7)
N1_7 N 0.23419(13) 0.96401(12) 0.83305(14)
N2_7 N 0.33060(14) 0.98597(12) 0.73230(14)
C1_7 C 0.21489(14) 0.96649(9) 0.97190(12)
C2_7 C 0.19254(9) 0.96422(6) 0.91161(10)
H1_7 H 0.1697 0.9633 0.9192
C3_7 C 0.21915(14) 0.96595(7) 0.93666(15)
C4_7 C 0.25439(15) 0.96730(13) 0.92581(17)
H2_7 H 0.2723 0.9682 0.9418
C5_7 C 0.2616(2) 0.96715(14) 0.8870(2)
H3_7 H 0.2838 0.9682 0.8776
C6_7 C 0.2302(2) 0.96521(15) 0.8663(2)
C7_7 C 0.19826(15) 0.96384(11) 0.87971(15)
C8_7 C 0.17739(14) 0.96211(11) 0.85183(14)
C9_7 C 0.19919(14) 0.96237(12) 0.82013(14)
C10_7 C 0.1863(2) 0.96172(14) 0.7892(2)
H4_7 H 0.2015 0.9626 0.7705
C11_7 C 0.1518(2) 0.95985(14) 0.7825(2)
H5_7 H 0.1430 0.9591 0.7601
C12_7 C 0.13036(13) 0.95917(11) 0.81170(12)
C13_7 C 0.14322(10) 0.96035(9) 0.84512(10)
H6_7 H 0.1278 0.9599 0.8635
C14_7 C 0.09272(13) 0.95768(11) 0.80735(13)
C15_7 C 0.25640(16) 0.96868(13) 0.80949(16)
C16_7 C 0.27900(19) 0.9945(2) 0.8098(2)
C17_7 C 0.3036(2) 0.9967(3) 0.7856(2)
C18_7 C 0.30859(13) 0.97729(14) 0.76142(15)
C19_7 C 0.28670(18) 0.94969(18) 0.75899(18)
H9_7 H 0.2895 0.9341 0.7408
C20_7 C 0.2604(2) 0.9442(2) 0.7828(2)
H10_7 H 0.2460 0.9250 0.7813
C21_7 C 0.37500(13) 0.98814(6) 0.69913(13)
C22_7 C 0.3626(2) 0.98205(9) 0.7310(2)
C23_7 C 0.38597(15) 0.97180(9) 0.76016(14)
H11_7 H 0.3772 0.9675 0.7822
C24_7 C 0.41680(13) 0.96923(11) 0.75416(13)
H12_7 H 0.4319 0.9630 0.7718
C25_7 C 0.42991(12) 0.97567(10) 0.72051(12)
C26_7 C 0.40924(11) 0.98495(9) 0.69351(11)
H13_7 H 0.4186 0.9890 0.6717
C27_7 C 0.46806(9) 0.97152(9) 0.71431(10)
C29_7 C 0.34812(16) 0.99641(12) 0.68012(17)
C30_7 C 0.3175(2) 0.99517(14) 0.7025(2)
Cu3_7 Cu 0.035426(12) 0.959132(12) 0.763812(12)
Cu4_3 Cu 0.535426(12) 0.959132(12) 0.736188(12)
Cu6_7 Cu 0.025540(11) 0.970710(11) 0.828529(11)
Cu7_3 Cu 0.525540(11) 0.970710(11) 0.671471(11)
O1_8 O 0.68225(7) 0.53368(7) 0.01852(7)
O2_8 O 0.74095(7) 0.53498(7) 0.00639(8)
O3_8 O 0.57405(6) 0.53757(7) 0.16682(7)
O4_8 O 0.58284(7) 0.53980(7) 0.22303(7)
N1_8 N 0.73419(13) 0.53599(12) 0.16695(14)
N2_8 N 0.83060(14) 0.51403(12) 0.26770(14)
C1_8 C 0.71489(14) 0.53351(9) 0.02810(12)
C2_8 C 0.69254(9) 0.53578(6) 0.08839(10)
H1_8 H 0.6697 0.5367 0.0808
C3_8 C 0.71915(14) 0.53405(7) 0.06334(15)
C4_8 C 0.75439(15) 0.53270(13) 0.07419(17)
H2_8 H 0.7723 0.5318 0.0582
C5_8 C 0.7616(2) 0.53285(14) 0.1130(2)
H3_8 H 0.7838 0.5318 0.1224
C6_8 C 0.7302(2) 0.53479(15) 0.1337(2)
C7_8 C 0.69826(15) 0.53616(11) 0.12029(15)
C8_8 C 0.67739(14) 0.53789(11) 0.14817(14)
C9_8 C 0.69919(14) 0.53763(12) 0.17987(14)
C10_8 C 0.6863(2) 0.53828(14) 0.2108(2)
H4_8 H 0.7015 0.5374 0.2295
C11_8 C 0.6518(2) 0.54015(14) 0.2175(2)
H5_8 H 0.6430 0.5409 0.2399
C12_8 C 0.63036(13) 0.54083(11) 0.18830(12)
C13_8 C 0.64322(10) 0.53965(9) 0.15488(10)
H6_8 H 0.6278 0.5401 0.1365
C14_8 C 0.59272(13) 0.54232(11) 0.19265(13)
C15_8 C 0.75640(16) 0.53132(13) 0.19051(16)
C16_8 C 0.77900(19) 0.5055(2) 0.1902(2)
H7_8 H 0.7777 0.4888 0.1729
C17_8 C 0.8036(2) 0.5033(3) 0.2144(2)
H8_8 H 0.8188 0.4847 0.2125
C18_8 C 0.80859(13) 0.52271(14) 0.23858(15)
C19_8 C 0.78670(18) 0.55031(18) 0.24101(18)
H9_8 H 0.7895 0.5659 0.2592
C20_8 C 0.7604(2) 0.5558(2) 0.2172(2)
H10_8 H 0.7460 0.5750 0.2187
C21_8 C 0.87500(13) 0.51186(6) 0.30087(13)
C22_8 C 0.8626(2) 0.51795(9) 0.2690(2)
C23_8 C 0.88597(15) 0.52820(9) 0.23984(14)
H11_8 H 0.8772 0.5325 0.2178
C24_8 C 0.91680(13) 0.53077(11) 0.24584(13)
H12_8 H 0.9319 0.5370 0.2282
C25_8 C 0.92991(12) 0.52433(10) 0.27949(12)
C26_8 C 0.90924(11) 0.51505(9) 0.30649(11)
H13_8 H 0.9186 0.5110 0.3283
C27_8 C 0.96806(9) 0.52848(9) 0.28569(10)
C28_8 C 0.84152(14) 0.49445(11) 0.35329(13)
H14_8 H 0.8606 0.4934 0.3679
C29_8 C 0.84812(16) 0.50359(12) 0.31988(17)
C30_8 C 0.8175(2) 0.50483(14) 0.2975(2)
C31_8 C 0.78619(19) 0.49702(14) 0.31309(18)
H15_8 H 0.7663 0.4979 0.2996
C32_8 C 0.78324(13) 0.48904(11) 0.34378(13)
H16_8 H 0.7612 0.4841 0.3520
C33_8 C 0.81140(11) 0.48688(10) 0.36763(11)
C34_8 C 0.80711(12) 0.47838(11) 0.40084(13)
Cu3_8 Cu 0.535426(12) 0.540868(12) 0.236188(12)
Cu6_8 Cu 0.525540(11) 0.529290(11) 0.171471(11)
O9_8 O 0.78974(9) 0.54623(9) 0.94937(9)
O10_8 O 0.61859(9) 0.51798(9) 0.98091(9)
O11_8 O 0.66682(7) 0.57405(6) 0.96243(7)
O12_8 O 0.72303(7) 0.58284(7) 0.96020(7)
O13_7 O 0.73948(7) 0.48638(7) 0.96194(7)
O14_7 O 0.68560(7) 0.47896(7) 0.97632(7)
H17_8 H 0.609017 0.538751 0.99137
H18_8 H 0.606516 0.5131 0.959395
H19_8 H 0.803897 0.527795 0.958972
H20_8 H 0.793606 0.547714 0.924564
O9_9 O 0.05063(9) 0.28974(9) 0.95377(9)
O10_9 O 0.01909(9) 0.11859(9) 0.98202(9)
O11_9 O 0.03757(7) 0.16682(7) 0.92595(6)
O12_9 O 0.03980(7) 0.22303(7) 0.91716(7)
H17_9 H 0.00862984 0.109017 0.961249
H18_9 H 0.0406052 0.106516 0.9869
H19_9 H 0.0410276 0.303897 0.972205
H20_9 H 0.0754361 0.293606 0.952286
H7_9 H 0.8271 0.2777 0.0112
H8_9 H 0.7875 0.3188 0.0153
C28_9 C 0.64671(13) 0.34152(14) 0.00555(11)
H14_9 H 0.6321 0.3606 0.0066
C31_9 C 0.68691(18) 0.28619(19) 0.00298(14)
H15_9 H 0.7004 0.2663 0.0021
C32_9 C 0.65622(13) 0.28324(13) 0.01096(11)
H16_9 H 0.6480 0.2612 0.0159
C33_9 C 0.63237(11) 0.31140(11) 0.01312(10)
C34_9 C 0.59916(13) 0.30711(12) 0.02162(11)
O1_9 O 0.98148(7) 0.18225(7) 0.96632(7)
O2_9 O 0.99361(8) 0.24095(7) 0.96502(7)
O3_9 O 0.83318(7) 0.07405(6) 0.96243(7)
O4_9 O 0.77697(7) 0.08284(7) 0.96020(7)
N1_9 N 0.83305(14) 0.23419(13) 0.96401(12)
N2_9 N 0.73230(14) 0.33060(14) 0.98597(12)
C1_9 C 0.97190(12) 0.21489(14) 0.96649(9)
C2_9 C 0.91161(10) 0.19254(9) 0.96422(6)
H1_9 H 0.9192 0.1697 0.9633
C3_9 C 0.93666(15) 0.21915(14) 0.96595(7)
C4_9 C 0.92581(17) 0.25439(15) 0.96730(13)
H2_9 H 0.9418 0.2723 0.9682
C5_9 C 0.8870(2) 0.2616(2) 0.96715(14)
H3_9 H 0.8776 0.2838 0.9682
C6_9 C 0.8663(2) 0.2302(2) 0.96521(15)
C7_9 C 0.87971(15) 0.19826(15) 0.96384(11)
C8_9 C 0.85183(14) 0.17739(14) 0.96211(11)
C9_9 C 0.82013(14) 0.19919(14) 0.96237(12)
C10_9 C 0.7892(2) 0.1863(2) 0.96172(14)
H4_9 H 0.7705 0.2015 0.9626
C11_9 C 0.7825(2) 0.1518(2) 0.95985(14)
H5_9 H 0.7601 0.1430 0.9591
C12_9 C 0.81170(12) 0.13036(13) 0.95917(11)
C13_9 C 0.84512(10) 0.14322(10) 0.96035(9)
H6_9 H 0.8635 0.1278 0.9599
C14_9 C 0.80735(13) 0.09272(13) 0.95768(11)
C15_9 C 0.80949(16) 0.25640(16) 0.96868(13)
C16_9 C 0.8098(2) 0.27900(19) 0.9945(2)
C17_9 C 0.7856(2) 0.3036(2) 0.9967(3)
C18_9 C 0.76142(15) 0.30859(13) 0.97729(14)
C19_9 C 0.75899(18) 0.28670(18) 0.94969(18)
H9_9 H 0.7408 0.2895 0.9341
C20_9 C 0.7828(2) 0.2604(2) 0.9442(2)
H10_9 H 0.7813 0.2460 0.9250
C21_9 C 0.69913(13) 0.37500(13) 0.98814(6)
C22_9 C 0.7310(2) 0.3626(2) 0.98205(9)
C23_9 C 0.76016(14) 0.38597(15) 0.97180(9)
H11_9 H 0.7822 0.3772 0.9675
C24_9 C 0.75416(13) 0.41680(13) 0.96923(11)
H12_9 H 0.7718 0.4319 0.9630
C25_9 C 0.72051(12) 0.42991(12) 0.97567(10)
C26_9 C 0.69351(11) 0.40924(11) 0.98495(9)
H13_9 H 0.6717 0.4186 0.9890
C27_9 C 0.71431(10) 0.46806(9) 0.97152(9)
C29_9 C 0.68012(17) 0.34812(16) 0.99641(12)
C30_9 C 0.7025(2) 0.3175(2) 0.99517(14)
Cu3_9 Cu 0.763812(12) 0.035426(12) 0.959132(12)
Cu6_9 Cu 0.828529(11) 0.025540(11) 0.970710(11)
O1_10 O 0.46632(7) 0.51852(7) 0.81775(7)
O2_10 O 0.46502(7) 0.50639(8) 0.75905(7)
O3_10 O 0.46243(7) 0.66682(7) 0.92595(6)
O4_10 O 0.46020(7) 0.72303(7) 0.91716(7)
O7_6 O 0.51582(8) 0.92134(8) 0.66869(8)
O8_6 O 0.53374(8) 0.91267(9) 0.72217(9)
O9_10 O 0.45377(9) 0.44937(9) 0.71026(9)
O10_10 O 0.48202(9) 0.48091(9) 0.88141(9)
N1_10 N 0.46401(12) 0.66695(14) 0.76581(13)
N2_10 N 0.48597(12) 0.76770(14) 0.66940(14)
C1_10 C 0.46649(9) 0.52810(12) 0.78511(14)
C2_10 C 0.46422(6) 0.58839(10) 0.80746(9)
H1_10 H 0.4633 0.5808 0.8303
C3_10 C 0.46595(7) 0.56334(15) 0.78085(14)
C4_10 C 0.46730(13) 0.57419(17) 0.74561(15)
H2_10 H 0.4682 0.5582 0.7277
C5_10 C 0.46715(14) 0.6130(2) 0.7384(2)
H3_10 H 0.4682 0.6224 0.7162
C6_10 C 0.46521(15) 0.6337(2) 0.7698(2)
C7_10 C 0.46384(11) 0.62029(15) 0.80174(15)
C8_10 C 0.46211(11) 0.64817(14) 0.82261(14)
C9_10 C 0.46237(12) 0.67987(14) 0.80081(14)
C10_10 C 0.46172(14) 0.7108(2) 0.8137(2)
H4_10 H 0.4626 0.7295 0.7985
C11_10 C 0.45985(14) 0.7175(2) 0.8482(2)
H5_10 H 0.4591 0.7399 0.8570
C12_10 C 0.45917(11) 0.68830(12) 0.86964(13)
C13_10 C 0.46035(9) 0.65488(10) 0.85678(10)
H6_10 H 0.4599 0.6365 0.8722
C14_10 C 0.45768(11) 0.69265(13) 0.90728(13)
C15_10 C 0.46868(13) 0.69051(16) 0.74360(16)
C16_10 C 0.4945(2) 0.6902(2) 0.72100(19)
H7_10 H 0.5112 0.6729 0.7223
C17_10 C 0.4967(3) 0.7144(2) 0.6964(2)
H8_10 H 0.5153 0.7125 0.6812
C18_10 C 0.47729(14) 0.73858(15) 0.69141(13)
C19_10 C 0.44969(18) 0.74101(18) 0.71330(18)
H9_10 H 0.4341 0.7592 0.7105
C20_10 C 0.4442(2) 0.7172(2) 0.7396(2)
H10_10 H 0.4250 0.7187 0.7540
C21_10 C 0.48814(6) 0.80087(13) 0.62500(13)
C22_10 C 0.48205(9) 0.7690(2) 0.6374(2)
C23_10 C 0.47180(9) 0.73984(14) 0.61403(15)
H11_10 H 0.4675 0.7178 0.6228
C24_10 C 0.46923(11) 0.74584(13) 0.58320(13)
H12_10 H 0.4630 0.7282 0.5681
C25_10 C 0.47567(10) 0.77949(12) 0.57009(12)
C26_10 C 0.48495(9) 0.80649(11) 0.59076(11)
H13_10 H 0.4890 0.8283 0.5814
C27_10 C 0.47152(9) 0.78569(10) 0.53194(9)
C28_10 C 0.50555(11) 0.85329(13) 0.65848(14)
H14_10 H 0.5066 0.8679 0.6394
C29_10 C 0.49641(12) 0.81988(17) 0.65188(16)
C30_10 C 0.49517(14) 0.7975(2) 0.6825(2)
C31_10 C 0.50298(14) 0.81309(18) 0.71381(19)
H15_10 H 0.5021 0.7996 0.7337
C32_10 C 0.51096(11) 0.84378(13) 0.71676(13)
H16_10 H 0.5159 0.8520 0.7388
C33_10 C 0.51312(10) 0.86763(11) 0.68860(11)
C34_10 C 0.52162(11) 0.90084(13) 0.69289(12)
Cu3_10 Cu 0.459132(12) 0.736188(12) 0.964574(12)
Cu6_10 Cu 0.470710(11) 0.671471(11) 0.974460(11)
O11_10 O 0.42595(6) 0.46243(7) 0.83318(7)
O12_10 O 0.41716(7) 0.46020(7) 0.77697(7)
O15_6 O 0.48418(8) 0.42134(8) 0.83131(8)
O16_6 O 0.46626(8) 0.41267(9) 0.77783(9)
H17_10 H 0.461249 0.49137 0.890983
H18_10 H 0.4869 0.459395 0.893484
H19_10 H 0.472205 0.458972 0.696103
H20_10 H 0.452286 0.424564 0.706394
O1_11 O 0.53368(7) 0.01852(7) 0.68225(7)
O2_11 O 0.53498(7) 0.00639(8) 0.74095(7)
O3_11 O 0.53757(7) 0.16682(7) 0.57405(6)
O4_11 O 0.53980(7) 0.22303(7) 0.58284(7)
N1_11 N 0.53599(12) 0.16695(14) 0.73419(13)
N2_11 N 0.51403(12) 0.26770(14) 0.83060(14)
C1_11 C 0.53351(9) 0.02810(12) 0.71489(14)
C2_11 C 0.53578(6) 0.08839(10) 0.69254(9)
H1_11 H 0.5367 0.0808 0.6697
C3_11 C 0.53405(7) 0.06334(15) 0.71915(14)
C4_11 C 0.53270(13) 0.07419(17) 0.75439(15)
H2_11 H 0.5318 0.0582 0.7723
C5_11 C 0.53285(14) 0.1130(2) 0.7616(2)
H3_11 H 0.5318 0.1224 0.7838
C6_11 C 0.53479(15) 0.1337(2) 0.7302(2)
C7_11 C 0.53616(11) 0.12029(15) 0.69826(15)
C8_11 C 0.53789(11) 0.14817(14) 0.67739(14)
C9_11 C 0.53763(12) 0.17987(14) 0.69919(14)
C10_11 C 0.53828(14) 0.2108(2) 0.6863(2)
H4_11 H 0.5374 0.2295 0.7015
C11_11 C 0.54015(14) 0.2175(2) 0.6518(2)
H5_11 H 0.5409 0.2399 0.6430
C12_11 C 0.54083(11) 0.18830(12) 0.63036(13)
C13_11 C 0.53965(9) 0.15488(10) 0.64322(10)
H6_11 H 0.5401 0.1365 0.6278
C14_11 C 0.54232(11) 0.19265(13) 0.59272(13)
C15_11 C 0.53132(13) 0.19051(16) 0.75640(16)
C16_11 C 0.5055(2) 0.1902(2) 0.77900(19)
H7_11 H 0.4888 0.1729 0.7777
C17_11 C 0.5033(3) 0.2144(2) 0.8036(2)
H8_11 H 0.4847 0.2125 0.8188
C18_11 C 0.52271(14) 0.23858(15) 0.80859(13)
C19_11 C 0.55031(18) 0.24101(18) 0.78670(18)
H9_11 H 0.5659 0.2592 0.7895
C20_11 C 0.5558(2) 0.2172(2) 0.7604(2)
H10_11 H 0.5750 0.2187 0.7460
C21_11 C 0.51186(6) 0.30087(13) 0.87500(13)
C22_11 C 0.51795(9) 0.2690(2) 0.8626(2)
C23_11 C 0.52820(9) 0.23984(14) 0.88597(15)
H11_11 H 0.5325 0.2178 0.8772
C24_11 C 0.53077(11) 0.24584(13) 0.91680(13)
H12_11 H 0.5370 0.2282 0.9319
C25_11 C 0.52433(10) 0.27949(12) 0.92991(12)
C26_11 C 0.51505(9) 0.30649(11) 0.90924(11)
H13_11 H 0.5110 0.3283 0.9186
C27_11 C 0.52848(9) 0.28569(10) 0.96806(9)
C28_11 C 0.49445(11) 0.35329(13) 0.84152(14)
H14_11 H 0.4934 0.3679 0.8606
C29_11 C 0.50359(12) 0.31988(17) 0.84812(16)
C30_11 C 0.50483(14) 0.2975(2) 0.8175(2)
C31_11 C 0.49702(14) 0.31309(18) 0.78619(19)
H15_11 H 0.4979 0.2996 0.7663
C32_11 C 0.48904(11) 0.34378(13) 0.78324(13)
H16_11 H 0.4841 0.3520 0.7612
C33_11 C 0.48688(10) 0.36763(11) 0.81140(11)
C34_11 C 0.47838(11) 0.40084(13) 0.80711(12)
Cu3_11 Cu 0.540868(12) 0.236188(12) 0.535426(12)
Cu6_11 Cu 0.529290(11) 0.171471(11) 0.525540(11)
O9_11 O 0.54623(9) 0.94937(9) 0.78974(9)
O10_11 O 0.51798(9) 0.98091(9) 0.61859(9)
O11_11 O 0.57405(6) 0.96243(7) 0.66682(7)
O12_11 O 0.58284(7) 0.96020(7) 0.72303(7)
H17_11 H 0.538751 0.99137 0.609017
H18_11 H 0.5131 0.959395 0.606516
H19_11 H 0.527795 0.958972 0.803897
H20_11 H 0.547714 0.924564 0.793606
H7_12 H 0.0112 0.8271 0.2777
H8_12 H 0.0153 0.7875 0.3188
C28_12 C 0.00555(11) 0.64671(13) 0.34152(14)
H14_12 H 0.0066 0.6321 0.3606
C31_12 C 0.00298(14) 0.68691(18) 0.28619(19)
H15_12 H 0.0021 0.7004 0.2663
C32_12 C 0.01096(11) 0.65622(13) 0.28324(13)
H16_12 H 0.0159 0.6480 0.2612
C33_12 C 0.01312(10) 0.63237(11) 0.31140(11)
C34_12 C 0.02162(11) 0.59916(13) 0.30711(12)
O9_12 O 0.95377(9) 0.05063(9) 0.28974(9)
O10_12 O 0.98202(9) 0.01909(9) 0.11859(9)
O11_12 O 0.92595(6) 0.03757(7) 0.16682(7)
O12_12 O 0.91716(7) 0.03980(7) 0.22303(7)
H17_12 H 0.961249 0.00862984 0.109017
H18_12 H 0.9869 0.0406052 0.106516
H19_12 H 0.972205 0.0410276 0.303897
H20_12 H 0.952286 0.0754361 0.293606
O1_12 O 0.96632(7) 0.98148(7) 0.18225(7)
O2_12 O 0.96502(7) 0.99361(8) 0.24095(7)
O3_12 O 0.96243(7) 0.83318(7) 0.07405(6)
O4_12 O 0.96020(7) 0.77697(7) 0.08284(7)
N1_12 N 0.96401(12) 0.83305(14) 0.23419(13)
N2_12 N 0.98597(12) 0.73230(14) 0.33060(14)
C1_12 C 0.96649(9) 0.97190(12) 0.21489(14)
C2_12 C 0.96422(6) 0.91161(10) 0.19254(9)
H1_12 H 0.9633 0.9192 0.1697
C3_12 C 0.96595(7) 0.93666(15) 0.21915(14)
C4_12 C 0.96730(13) 0.92581(17) 0.25439(15)
H2_12 H 0.9682 0.9418 0.2723
C5_12 C 0.96715(14) 0.8870(2) 0.2616(2)
H3_12 H 0.9682 0.8776 0.2838
C6_12 C 0.96521(15) 0.8663(2) 0.2302(2)
C7_12 C 0.96384(11) 0.87971(15) 0.19826(15)
C8_12 C 0.96211(11) 0.85183(14) 0.17739(14)
C9_12 C 0.96237(12) 0.82013(14) 0.19919(14)
C10_12 C 0.96172(14) 0.7892(2) 0.1863(2)
H4_12 H 0.9626 0.7705 0.2015
C11_12 C 0.95985(14) 0.7825(2) 0.1518(2)
H5_12 H 0.9591 0.7601 0.1430
C12_12 C 0.95917(11) 0.81170(12) 0.13036(13)
C13_12 C 0.96035(9) 0.84512(10) 0.14322(10)
H6_12 H 0.9599 0.8635 0.1278
C14_12 C 0.95768(11) 0.80735(13) 0.09272(13)
C15_12 C 0.96868(13) 0.80949(16) 0.25640(16)
C16_12 C 0.9945(2) 0.8098(2) 0.27900(19)
C17_12 C 0.9967(3) 0.7856(2) 0.3036(2)
C18_12 C 0.97729(14) 0.76142(15) 0.30859(13)
C19_12 C 0.94969(18) 0.75899(18) 0.28670(18)
H9_12 H 0.9341 0.7408 0.2895
C20_12 C 0.9442(2) 0.7828(2) 0.2604(2)
H10_12 H 0.9250 0.7813 0.2460
C21_12 C 0.98814(6) 0.69913(13) 0.37500(13)
C22_12 C 0.98205(9) 0.7310(2) 0.3626(2)
C23_12 C 0.97180(9) 0.76016(14) 0.38597(15)
H11_12 H 0.9675 0.7822 0.3772
C24_12 C 0.96923(11) 0.75416(13) 0.41680(13)
H12_12 H 0.9630 0.7718 0.4319
C25_12 C 0.97567(10) 0.72051(12) 0.42991(12)
C26_12 C 0.98495(9) 0.69351(11) 0.40924(11)
H13_12 H 0.9890 0.6717 0.4186
C27_12 C 0.97152(9) 0.71431(10) 0.46806(9)
C29_12 C 0.99641(12) 0.68012(17) 0.34812(16)
C30_12 C 0.99517(14) 0.7025(2) 0.3175(2)
Cu3_12 Cu 0.959132(12) 0.763812(12) 0.035426(12)
Cu6_12 Cu 0.970710(11) 0.828529(11) 0.025540(11)
O7_7 O 0.01582(8) 0.92134(8) 0.83131(8)
O8_7 O 0.03374(8) 0.91267(9) 0.77783(9)
H7_13 H 0.0112 0.6729 0.7777
H8_13 H 0.0153 0.7125 0.8188
C28_13 C 0.00555(11) 0.85329(13) 0.84152(14)
H14_13 H 0.0066 0.8679 0.8606
C31_13 C 0.00298(14) 0.81309(18) 0.78619(19)
H15_13 H 0.0021 0.7996 0.7663
C32_13 C 0.01096(11) 0.84378(13) 0.78324(13)
H16_13 H 0.0159 0.8520 0.7612
C33_13 C 0.01312(10) 0.86763(11) 0.81140(11)
C34_13 C 0.02162(11) 0.90084(13) 0.80711(12)
O13_8 O 0.01362(7) 0.46194(7) 0.73948(7)
O14_8 O 0.02104(7) 0.47632(7) 0.68560(7)
O1_13 O 0.96632(7) 0.51852(7) 0.68225(7)
O2_13 O 0.96502(7) 0.50639(8) 0.74095(7)
O5_6 O 0.96194(7) 0.76052(7) 0.98638(7)
O6_6 O 0.97632(7) 0.81440(7) 0.97896(7)
O9_13 O 0.95377(9) 0.44937(9) 0.78974(9)
O10_13 O 0.98202(9) 0.48091(9) 0.61859(9)
N1_13 N 0.96401(12) 0.66695(14) 0.73419(13)
N2_13 N 0.98597(12) 0.76770(14) 0.83060(14)
C1_13 C 0.96649(9) 0.52810(12) 0.71489(14)
C2_13 C 0.96422(6) 0.58839(10) 0.69254(9)
H1_13 H 0.9633 0.5808 0.6697
C3_13 C 0.96595(7) 0.56334(15) 0.71915(14)
C4_13 C 0.96730(13) 0.57419(17) 0.75439(15)
H2_13 H 0.9682 0.5582 0.7723
C5_13 C 0.96715(14) 0.6130(2) 0.7616(2)
H3_13 H 0.9682 0.6224 0.7838
C6_13 C 0.96521(15) 0.6337(2) 0.7302(2)
C7_13 C 0.96384(11) 0.62029(15) 0.69826(15)
C8_13 C 0.96211(11) 0.64817(14) 0.67739(14)
C9_13 C 0.96237(12) 0.67987(14) 0.69919(14)
C10_13 C 0.96172(14) 0.7108(2) 0.6863(2)
H4_13 H 0.9626 0.7295 0.7015
C11_13 C 0.95985(14) 0.7175(2) 0.6518(2)
H5_13 H 0.9591 0.7399 0.6430
C12_13 C 0.95917(11) 0.68830(12) 0.63036(13)
C13_13 C 0.96035(9) 0.65488(10) 0.64322(10)
H6_13 H 0.9599 0.6365 0.6278
C14_13 C 0.95768(11) 0.69265(13) 0.59272(13)
C15_13 C 0.96868(13) 0.69051(16) 0.75640(16)
C16_13 C 0.9945(2) 0.6902(2) 0.77900(19)
C17_13 C 0.9967(3) 0.7144(2) 0.8036(2)
C18_13 C 0.97729(14) 0.73858(15) 0.80859(13)
C19_13 C 0.94969(18) 0.74101(18) 0.78670(18)
H9_13 H 0.9341 0.7592 0.7895
C20_13 C 0.9442(2) 0.7172(2) 0.7604(2)
H10_13 H 0.9250 0.7187 0.7460
C21_13 C 0.98814(6) 0.80087(13) 0.87500(13)
C22_13 C 0.98205(9) 0.7690(2) 0.8626(2)
C23_13 C 0.97180(9) 0.73984(14) 0.88597(15)
H11_13 H 0.9675 0.7178 0.8772
C24_13 C 0.96923(11) 0.74584(13) 0.91680(13)
H12_13 H 0.9630 0.7282 0.9319
C25_13 C 0.97567(10) 0.77949(12) 0.92991(12)
C26_13 C 0.98495(9) 0.80649(11) 0.90924(11)
H13_13 H 0.9890 0.8283 0.9186
C27_13 C 0.97152(9) 0.78569(10) 0.96806(9)
C29_13 C 0.99641(12) 0.81988(17) 0.84812(16)
C30_13 C 0.99517(14) 0.7975(2) 0.8175(2)
O15_7 O 0.98418(8) 0.42134(8) 0.66869(8)
O16_7 O 0.96626(8) 0.41267(9) 0.72217(9)
H17_13 H 0.961249 0.49137 0.609017
H18_13 H 0.9869 0.459395 0.606516
H19_13 H 0.972205 0.458972 0.803897
H20_13 H 0.952286 0.424564 0.793606
O7_8 O 0.83131(8) 0.01582(8) 0.92134(8)
O8_8 O 0.77783(9) 0.03374(8) 0.91267(9)
H7_14 H 0.7777 0.0112 0.6729
H8_14 H 0.8188 0.0153 0.7125
C28_14 C 0.84152(14) 0.00555(11) 0.85329(13)
H14_14 H 0.8606 0.0066 0.8679
C31_14 C 0.78619(19) 0.00298(14) 0.81309(18)
H15_14 H 0.7663 0.0021 0.7996
C32_14 C 0.78324(13) 0.01096(11) 0.84378(13)
H16_14 H 0.7612 0.0159 0.8520
C33_14 C 0.81140(11) 0.01312(10) 0.86763(11)
C34_14 C 0.80711(12) 0.02162(11) 0.90084(13)
O13_9 O 0.73948(7) 0.01362(7) 0.46194(7)
O14_9 O 0.68560(7) 0.02104(7) 0.47632(7)
O1_14 O 0.68225(7) 0.96632(7) 0.51852(7)
O2_14 O 0.74095(7) 0.96502(7) 0.50639(8)
O5_7 O 0.98638(7) 0.96194(7) 0.76052(7)
O6_7 O 0.97896(7) 0.97632(7) 0.81440(7)
O9_14 O 0.78974(9) 0.95377(9) 0.44937(9)
O10_14 O 0.61859(9) 0.98202(9) 0.48091(9)
N1_14 N 0.73419(13) 0.96401(12) 0.66695(14)
N2_14 N 0.83060(14) 0.98597(12) 0.76770(14)
C1_14 C 0.71489(14) 0.96649(9) 0.52810(12)
C2_14 C 0.69254(9) 0.96422(6) 0.58839(10)
H1_14 H 0.6697 0.9633 0.5808
C3_14 C 0.71915(14) 0.96595(7) 0.56334(15)
C4_14 C 0.75439(15) 0.96730(13) 0.57419(17)
H2_14 H 0.7723 0.9682 0.5582
C5_14 C 0.7616(2) 0.96715(14) 0.6130(2)
H3_14 H 0.7838 0.9682 0.6224
C6_14 C 0.7302(2) 0.96521(15) 0.6337(2)
C7_14 C 0.69826(15) 0.96384(11) 0.62029(15)
C8_14 C 0.67739(14) 0.96211(11) 0.64817(14)
C9_14 C 0.69919(14) 0.96237(12) 0.67987(14)
C10_14 C 0.6863(2) 0.96172(14) 0.7108(2)
H4_14 H 0.7015 0.9626 0.7295
C11_14 C 0.6518(2) 0.95985(14) 0.7175(2)
H5_14 H 0.6430 0.9591 0.7399
C12_14 C 0.63036(13) 0.95917(11) 0.68830(12)
C13_14 C 0.64322(10) 0.96035(9) 0.65488(10)
H6_14 H 0.6278 0.9599 0.6365
C14_14 C 0.59272(13) 0.95768(11) 0.69265(13)
C15_14 C 0.75640(16) 0.96868(13) 0.69051(16)
C16_14 C 0.77900(19) 0.9945(2) 0.6902(2)
C17_14 C 0.8036(2) 0.9967(3) 0.7144(2)
C18_14 C 0.80859(13) 0.97729(14) 0.73858(15)
C19_14 C 0.78670(18) 0.94969(18) 0.74101(18)
H9_14 H 0.7895 0.9341 0.7592
C20_14 C 0.7604(2) 0.9442(2) 0.7172(2)
H10_14 H 0.7460 0.9250 0.7187
C21_14 C 0.87500(13) 0.98814(6) 0.80087(13)
C22_14 C 0.8626(2) 0.98205(9) 0.7690(2)
C23_14 C 0.88597(15) 0.97180(9) 0.73984(14)
H11_14 H 0.8772 0.9675 0.7178
C24_14 C 0.91680(13) 0.96923(11) 0.74584(13)
H12_14 H 0.9319 0.9630 0.7282
C25_14 C 0.92991(12) 0.97567(10) 0.77949(12)
C26_14 C 0.90924(11) 0.98495(9) 0.80649(11)
H13_14 H 0.9186 0.9890 0.8283
C27_14 C 0.96806(9) 0.97152(9) 0.78569(10)
C29_14 C 0.84812(16) 0.99641(12) 0.81988(17)
C30_14 C 0.8175(2) 0.99517(14) 0.7975(2)
O15_8 O 0.66869(8) 0.98418(8) 0.42134(8)
O16_8 O 0.72217(9) 0.96626(8) 0.41267(9)
H17_14 H 0.609017 0.961249 0.49137
H18_14 H 0.606516 0.9869 0.459395
H19_14 H 0.803897 0.972205 0.458972
H20_14 H 0.793606 0.952286 0.424564
O7_9 O 0.92134(8) 0.83131(8) 0.01582(8)
O8_9 O 0.91267(9) 0.77783(9) 0.03374(8)
H7_15 H 0.6729 0.7777 0.0112
H8_15 H 0.7125 0.8188 0.0153
C28_15 C 0.85329(13) 0.84152(14) 0.00555(11)
H14_15 H 0.8679 0.8606 0.0066
C31_15 C 0.81309(18) 0.78619(19) 0.00298(14)
H15_15 H 0.7996 0.7663 0.0021
C32_15 C 0.84378(13) 0.78324(13) 0.01096(11)
H16_15 H 0.8520 0.7612 0.0159
C33_15 C 0.86763(11) 0.81140(11) 0.01312(10)
C34_15 C 0.90084(13) 0.80711(12) 0.02162(11)
O13_10 O 0.46194(7) 0.73948(7) 0.01362(7)
O14_10 O 0.47632(7) 0.68560(7) 0.02104(7)
O1_15 O 0.51852(7) 0.68225(7) 0.96632(7)
O2_15 O 0.50639(8) 0.74095(7) 0.96502(7)
O5_8 O 0.76052(7) 0.98638(7) 0.96194(7)
O6_8 O 0.81440(7) 0.97896(7) 0.97632(7)
O9_15 O 0.44937(9) 0.78974(9) 0.95377(9)
O10_15 O 0.48091(9) 0.61859(9) 0.98202(9)
N1_15 N 0.66695(14) 0.73419(13) 0.96401(12)
N2_15 N 0.76770(14) 0.83060(14) 0.98597(12)
C1_15 C 0.52810(12) 0.71489(14) 0.96649(9)
C2_15 C 0.58839(10) 0.69254(9) 0.96422(6)
H1_15 H 0.5808 0.6697 0.9633
C3_15 C 0.56334(15) 0.71915(14) 0.96595(7)
C4_15 C 0.57419(17) 0.75439(15) 0.96730(13)
H2_15 H 0.5582 0.7723 0.9682
C5_15 C 0.6130(2) 0.7616(2) 0.96715(14)
H3_15 H 0.6224 0.7838 0.9682
C6_15 C 0.6337(2) 0.7302(2) 0.96521(15)
C7_15 C 0.62029(15) 0.69826(15) 0.96384(11)
C8_15 C 0.64817(14) 0.67739(14) 0.96211(11)
C9_15 C 0.67987(14) 0.69919(14) 0.96237(12)
C10_15 C 0.7108(2) 0.6863(2) 0.96172(14)
H4_15 H 0.7295 0.7015 0.9626
C11_15 C 0.7175(2) 0.6518(2) 0.95985(14)
H5_15 H 0.7399 0.6430 0.9591
C12_15 C 0.68830(12) 0.63036(13) 0.95917(11)
C13_15 C 0.65488(10) 0.64322(10) 0.96035(9)
H6_15 H 0.6365 0.6278 0.9599
C14_15 C 0.69265(13) 0.59272(13) 0.95768(11)
C15_15 C 0.69051(16) 0.75640(16) 0.96868(13)
C16_15 C 0.6902(2) 0.77900(19) 0.9945(2)
C17_15 C 0.7144(2) 0.8036(2) 0.9967(3)
C18_15 C 0.73858(15) 0.80859(13) 0.97729(14)
C19_15 C 0.74101(18) 0.78670(18) 0.94969(18)
H9_15 H 0.7592 0.7895 0.9341
C20_15 C 0.7172(2) 0.7604(2) 0.9442(2)
H10_15 H 0.7187 0.7460 0.9250
C21_15 C 0.80087(13) 0.87500(13) 0.98814(6)
C22_15 C 0.7690(2) 0.8626(2) 0.98205(9)
C23_15 C 0.73984(14) 0.88597(15) 0.97180(9)
H11_15 H 0.7178 0.8772 0.9675
C24_15 C 0.74584(13) 0.91680(13) 0.96923(11)
H12_15 H 0.7282 0.9319 0.9630
C25_15 C 0.77949(12) 0.92991(12) 0.97567(10)
C26_15 C 0.80649(11) 0.90924(11) 0.98495(9)
H13_15 H 0.8283 0.9186 0.9890
C27_15 C 0.78569(10) 0.96806(9) 0.97152(9)
C29_15 C 0.81988(17) 0.84812(16) 0.99641(12)
C30_15 C 0.7975(2) 0.8175(2) 0.99517(14)
O15_9 O 0.42134(8) 0.66869(8) 0.98418(8)
O16_9 O 0.41267(9) 0.72217(9) 0.96626(8)
H17_15 H 0.49137 0.609017 0.961249
H18_15 H 0.459395 0.606516 0.9869
H19_15 H 0.458972 0.803897 0.972205
H20_15 H 0.424564 0.793606 0.952286
O9_16 O 0.05063(9) 0.21026(9) 0.45377(9)
O10_16 O 0.01909(9) 0.38141(9) 0.48202(9)
O13_11 O 0.03806(7) 0.26052(7) 0.51362(7)
O14_11 O 0.02368(7) 0.31440(7) 0.52104(7)
O15_10 O 0.07866(8) 0.33131(8) 0.48418(8)
O16_10 O 0.08733(9) 0.27783(9) 0.46626(8)
H17_16 H 0.00862984 0.390983 0.461249
H18_16 H 0.0406052 0.393484 0.4869
H19_16 H 0.0410276 0.196103 0.472205
H20_16 H 0.0754361 0.206394 0.452286
O1_16 O 0.98148(7) 0.31775(7) 0.46632(7)
O2_16 O 0.99361(8) 0.25905(7) 0.46502(7)
O7_10 O 0.57866(8) 0.16869(8) 0.51582(8)
O8_10 O 0.58733(9) 0.22217(9) 0.53374(8)
N1_16 N 0.83305(14) 0.26581(13) 0.46401(12)
N2_16 N 0.73230(14) 0.16940(14) 0.48597(12)
C1_16 C 0.97190(12) 0.28511(14) 0.46649(9)
C2_16 C 0.91161(10) 0.30746(9) 0.46422(6)
H1_16 H 0.9192 0.3303 0.4633
C3_16 C 0.93666(15) 0.28085(14) 0.46595(7)
C4_16 C 0.92581(17) 0.24561(15) 0.46730(13)
H2_16 H 0.9418 0.2277 0.4682
C5_16 C 0.8870(2) 0.2384(2) 0.46715(14)
H3_16 H 0.8776 0.2162 0.4682
C6_16 C 0.8663(2) 0.2698(2) 0.46521(15)
C7_16 C 0.87971(15) 0.30174(15) 0.46384(11)
C8_16 C 0.85183(14) 0.32261(14) 0.46211(11)
C9_16 C 0.82013(14) 0.30081(14) 0.46237(12)
C10_16 C 0.7892(2) 0.3137(2) 0.46172(14)
H4_16 H 0.7705 0.2985 0.4626
C11_16 C 0.7825(2) 0.3482(2) 0.45985(14)
H5_16 H 0.7601 0.3570 0.4591
C12_16 C 0.81170(12) 0.36964(13) 0.45917(11)
C13_16 C 0.84512(10) 0.35678(10) 0.46035(9)
H6_16 H 0.8635 0.3722 0.4599
C14_16 C 0.80735(13) 0.40728(13) 0.45768(11)
C15_16 C 0.80949(16) 0.24360(16) 0.46868(13)
C16_16 C 0.8098(2) 0.22100(19) 0.4945(2)
H7_16 H 0.8271 0.2223 0.5112
C17_16 C 0.7856(2) 0.1964(2) 0.4967(3)
H8_16 H 0.7875 0.1812 0.5153
C18_16 C 0.76142(15) 0.19141(13) 0.47729(14)
C19_16 C 0.75899(18) 0.21330(18) 0.44969(18)
H9_16 H 0.7408 0.2105 0.4341
C20_16 C 0.7828(2) 0.2396(2) 0.4442(2)
H10_16 H 0.7813 0.2540 0.4250
C21_16 C 0.69913(13) 0.12500(13) 0.48814(6)
C22_16 C 0.7310(2) 0.1374(2) 0.48205(9)
C23_16 C 0.76016(14) 0.11403(15) 0.47180(9)
H11_16 H 0.7822 0.1228 0.4675
C24_16 C 0.75416(13) 0.08320(13) 0.46923(11)
H12_16 H 0.7718 0.0681 0.4630
C25_16 C 0.72051(12) 0.07009(12) 0.47567(10)
C26_16 C 0.69351(11) 0.09076(11) 0.48495(9)
H13_16 H 0.6717 0.0814 0.4890
C27_16 C 0.71431(10) 0.03194(9) 0.47152(9)
C28_16 C 0.64671(13) 0.15848(14) 0.50555(11)
H14_16 H 0.6321 0.1394 0.5066
C29_16 C 0.68012(17) 0.15188(16) 0.49641(12)
C30_16 C 0.7025(2) 0.1825(2) 0.49517(14)
C31_16 C 0.68691(18) 0.21381(19) 0.50298(14)
H15_16 H 0.7004 0.2337 0.5021
C32_16 C 0.65622(13) 0.21676(13) 0.51096(11)
H16_16 H 0.6480 0.2388 0.5159
C33_16 C 0.63237(11) 0.18860(11) 0.51312(10)
C34_16 C 0.59916(13) 0.19289(12) 0.52162(11)
O1_17 O 0.18225(7) 0.53368(7) 0.48148(7)
O2_17 O 0.24095(7) 0.53498(7) 0.49361(8)
O5_9 O 0.48638(7) 0.53806(7) 0.23948(7)
O6_9 O 0.47896(7) 0.52368(7) 0.18560(7)
O7_11 O 0.33131(8) 0.48418(8) 0.07866(8)
O8_11 O 0.27783(9) 0.46626(8) 0.08733(9)
O9_17 O 0.28974(9) 0.54623(9) 0.55063(9)
O10_17 O 0.11859(9) 0.51798(9) 0.51909(9)
N1_17 N 0.23419(13) 0.53599(12) 0.33305(14)
N2_17 N 0.33060(14) 0.51403(12) 0.23230(14)
C1_17 C 0.21489(14) 0.53351(9) 0.47190(12)
C2_17 C 0.19254(9) 0.53578(6) 0.41161(10)
H1_17 H 0.1697 0.5367 0.4192
C3_17 C 0.21915(14) 0.53405(7) 0.43666(15)
C4_17 C 0.25439(15) 0.53270(13) 0.42581(17)
H2_17 H 0.2723 0.5318 0.4418
C5_17 C 0.2616(2) 0.53285(14) 0.3870(2)
H3_17 H 0.2838 0.5318 0.3776
C6_17 C 0.2302(2) 0.53479(15) 0.3663(2)
C7_17 C 0.19826(15) 0.53616(11) 0.37971(15)
C8_17 C 0.17739(14) 0.53789(11) 0.35183(14)
C9_17 C 0.19919(14) 0.53763(12) 0.32013(14)
C10_17 C 0.1863(2) 0.53828(14) 0.2892(2)
H4_17 H 0.2015 0.5374 0.2705
C11_17 C 0.1518(2) 0.54015(14) 0.2825(2)
H5_17 H 0.1430 0.5409 0.2601
C12_17 C 0.13036(13) 0.54083(11) 0.31170(12)
C13_17 C 0.14322(10) 0.53965(9) 0.34512(10)
H6_17 H 0.1278 0.5401 0.3635
C14_17 C 0.09272(13) 0.54232(11) 0.30735(13)
C15_17 C 0.25640(16) 0.53132(13) 0.30949(16)
C16_17 C 0.27900(19) 0.5055(2) 0.3098(2)
H7_17 H 0.2777 0.4888 0.3271
C17_17 C 0.3036(2) 0.5033(3) 0.2856(2)
H8_17 H 0.3188 0.4847 0.2875
C18_17 C 0.30859(13) 0.52271(14) 0.26142(15)
C19_17 C 0.28670(18) 0.55031(18) 0.25899(18)
H9_17 H 0.2895 0.5659 0.2408
C20_17 C 0.2604(2) 0.5558(2) 0.2828(2)
H10_17 H 0.2460 0.5750 0.2813
C21_17 C 0.37500(13) 0.51186(6) 0.19913(13)
C22_17 C 0.3626(2) 0.51795(9) 0.2310(2)
C23_17 C 0.38597(15) 0.52820(9) 0.26016(14)
H11_17 H 0.3772 0.5325 0.2822
C24_17 C 0.41680(13) 0.53077(11) 0.25416(13)
H12_17 H 0.4319 0.5370 0.2718
C25_17 C 0.42991(12) 0.52433(10) 0.22051(12)
C26_17 C 0.40924(11) 0.51505(9) 0.19351(11)
H13_17 H 0.4186 0.5110 0.1717
C27_17 C 0.46806(9) 0.52848(9) 0.21431(10)
C28_17 C 0.34152(14) 0.49445(11) 0.14671(13)
H14_17 H 0.3606 0.4934 0.1321
C29_17 C 0.34812(16) 0.50359(12) 0.18012(17)
C30_17 C 0.3175(2) 0.50483(14) 0.2025(2)
C31_17 C 0.28619(19) 0.49702(14) 0.18691(18)
H15_17 H 0.2663 0.4979 0.2004
C32_17 C 0.28324(13) 0.48904(11) 0.15622(13)
H16_17 H 0.2612 0.4841 0.1480
C33_17 C 0.31140(11) 0.48688(10) 0.13237(11)
C34_17 C 0.30711(12) 0.47838(11) 0.09916(13)
O13_12 O 0.23948(7) 0.48638(7) 0.53806(7)
O14_12 O 0.18560(7) 0.47896(7) 0.52368(7)
O15_11 O 0.16869(8) 0.51582(8) 0.57866(8)
O16_11 O 0.22217(9) 0.53374(8) 0.58733(9)
H17_17 H 0.109017 0.538751 0.50863
H18_17 H 0.106516 0.5131 0.540605
H19_17 H 0.303897 0.527795 0.541028
H20_17 H 0.293606 0.547714 0.575436
O1_18 O 0.48148(7) 0.18225(7) 0.53368(7)
O2_18 O 0.49361(8) 0.24095(7) 0.53498(7)
O9_18 O 0.55063(9) 0.28974(9) 0.54623(9)
O10_18 O 0.51909(9) 0.11859(9) 0.51798(9)
N1_18 N 0.33305(14) 0.23419(13) 0.53599(12)
N2_18 N 0.23230(14) 0.33060(14) 0.51403(12)
C1_18 C 0.47190(12) 0.21489(14) 0.53351(9)
C2_18 C 0.41161(10) 0.19254(9) 0.53578(6)
H1_18 H 0.4192 0.1697 0.5367
C3_18 C 0.43666(15) 0.21915(14) 0.53405(7)
C4_18 C 0.42581(17) 0.25439(15) 0.53270(13)
H2_18 H 0.4418 0.2723 0.5318
C5_18 C 0.3870(2) 0.2616(2) 0.53285(14)
H3_18 H 0.3776 0.2838 0.5318
C6_18 C 0.3663(2) 0.2302(2) 0.53479(15)
C7_18 C 0.37971(15) 0.19826(15) 0.53616(11)
C8_18 C 0.35183(14) 0.17739(14) 0.53789(11)
C9_18 C 0.32013(14) 0.19919(14) 0.53763(12)
C10_18 C 0.2892(2) 0.1863(2) 0.53828(14)
H4_18 H 0.2705 0.2015 0.5374
C11_18 C 0.2825(2) 0.1518(2) 0.54015(14)
H5_18 H 0.2601 0.1430 0.5409
C12_18 C 0.31170(12) 0.13036(13) 0.54083(11)
C13_18 C 0.34512(10) 0.14322(10) 0.53965(9)
H6_18 H 0.3635 0.1278 0.5401
C14_18 C 0.30735(13) 0.09272(13) 0.54232(11)
C15_18 C 0.30949(16) 0.25640(16) 0.53132(13)
C16_18 C 0.3098(2) 0.27900(19) 0.5055(2)
H7_18 H 0.3271 0.2777 0.4888
C17_18 C 0.2856(2) 0.3036(2) 0.5033(3)
H8_18 H 0.2875 0.3188 0.4847
C18_18 C 0.26142(15) 0.30859(13) 0.52271(14)
C19_18 C 0.25899(18) 0.28670(18) 0.55031(18)
H9_18 H 0.2408 0.2895 0.5659
C20_18 C 0.2828(2) 0.2604(2) 0.5558(2)
H10_18 H 0.2813 0.2460 0.5750
C21_18 C 0.19913(13) 0.37500(13) 0.51186(6)
C22_18 C 0.2310(2) 0.3626(2) 0.51795(9)
C23_18 C 0.26016(14) 0.38597(15) 0.52820(9)
H11_18 H 0.2822 0.3772 0.5325
C24_18 C 0.25416(13) 0.41680(13) 0.53077(11)
H12_18 H 0.2718 0.4319 0.5370
C25_18 C 0.22051(12) 0.42991(12) 0.52433(10)
C26_18 C 0.19351(11) 0.40924(11) 0.51505(9)
H13_18 H 0.1717 0.4186 0.5110
C27_18 C 0.21431(10) 0.46806(9) 0.52848(9)
C28_18 C 0.14671(13) 0.34152(14) 0.49445(11)
H14_18 H 0.1321 0.3606 0.4934
C29_18 C 0.18012(17) 0.34812(16) 0.50359(12)
C30_18 C 0.2025(2) 0.3175(2) 0.50483(14)
C31_18 C 0.18691(18) 0.28619(19) 0.49702(14)
H15_18 H 0.2004 0.2663 0.4979
C32_18 C 0.15622(13) 0.28324(13) 0.48904(11)
H16_18 H 0.1480 0.2612 0.4841
C33_18 C 0.13237(11) 0.31140(11) 0.48688(10)
C34_18 C 0.09916(13) 0.30711(12) 0.47838(11)
O13_13 O 0.53806(7) 0.23948(7) 0.48638(7)
O14_13 O 0.52368(7) 0.18560(7) 0.47896(7)
H17_18 H 0.50863 0.109017 0.538751
H18_18 H 0.540605 0.106516 0.5131
H19_18 H 0.541028 0.303897 0.527795
H20_18 H 0.575436 0.293606 0.547714
O1_19 O 0.81775(7) 0.03368(7) 0.01852(7)
O2_19 O 0.75905(7) 0.03498(7) 0.00639(8)
O5_10 O 0.51362(7) 0.03806(7) 0.26052(7)
O6_10 O 0.52104(7) 0.02368(7) 0.31440(7)
N1_19 N 0.76581(13) 0.03599(12) 0.16695(14)
N2_19 N 0.66940(14) 0.01403(12) 0.26770(14)
C1_19 C 0.78511(14) 0.03351(9) 0.02810(12)
C2_19 C 0.80746(9) 0.03578(6) 0.08839(10)
H1_19 H 0.8303 0.0367 0.0808
C3_19 C 0.78085(14) 0.03405(7) 0.06334(15)
C4_19 C 0.74561(15) 0.03270(13) 0.07419(17)
H2_19 H 0.7277 0.0318 0.0582
C5_19 C 0.7384(2) 0.03285(14) 0.1130(2)
H3_19 H 0.7162 0.0318 0.1224
C6_19 C 0.7698(2) 0.03479(15) 0.1337(2)
C7_19 C 0.80174(15) 0.03616(11) 0.12029(15)
C8_19 C 0.82261(14) 0.03789(11) 0.14817(14)
C9_19 C 0.80081(14) 0.03763(12) 0.17987(14)
C10_19 C 0.8137(2) 0.03828(14) 0.2108(2)
H4_19 H 0.7985 0.0374 0.2295
C11_19 C 0.8482(2) 0.04015(14) 0.2175(2)
H5_19 H 0.8570 0.0409 0.2399
C12_19 C 0.86964(13) 0.04083(11) 0.18830(12)
C13_19 C 0.85678(10) 0.03965(9) 0.15488(10)
H6_19 H 0.8722 0.0401 0.1365
C14_19 C 0.90728(13) 0.04232(11) 0.19265(13)
C15_19 C 0.74360(16) 0.03132(13) 0.19051(16)
C16_19 C 0.72100(19) 0.0055(2) 0.1902(2)
C17_19 C 0.6964(2) 0.0033(3) 0.2144(2)
C18_19 C 0.69141(13) 0.02271(14) 0.23858(15)
C19_19 C 0.71330(18) 0.05031(18) 0.24101(18)
H9_19 H 0.7105 0.0659 0.2592
C20_19 C 0.7396(2) 0.0558(2) 0.2172(2)
H10_19 H 0.7540 0.0750 0.2187
C21_19 C 0.62500(13) 0.01186(6) 0.30087(13)
C22_19 C 0.6374(2) 0.01795(9) 0.2690(2)
C23_19 C 0.61403(15) 0.02820(9) 0.23984(14)
H11_19 H 0.6228 0.0325 0.2178
C24_19 C 0.58320(13) 0.03077(11) 0.24584(13)
H12_19 H 0.5681 0.0370 0.2282
C25_19 C 0.57009(12) 0.02433(10) 0.27949(12)
C26_19 C 0.59076(11) 0.01505(9) 0.30649(11)
H13_19 H 0.5814 0.0110 0.3283
C27_19 C 0.53194(9) 0.02848(9) 0.28569(10)
C29_19 C 0.65188(16) 0.00359(12) 0.31988(17)
C30_19 C 0.6825(2) 0.00483(14) 0.2975(2)
O9_19 O 0.71026(9) 0.04623(9) 0.94937(9)
O10_19 O 0.88141(9) 0.01798(9) 0.98091(9)
H17_19 H 0.890983 0.0387509 0.99137
H18_19 H 0.893484 0.0131 0.959395
H19_19 H 0.696103 0.0277947 0.958972
H20_19 H 0.706394 0.0477145 0.924564
H7_19 H 0.7223 0.9888 0.1729
H8_19 H 0.6812 0.9847 0.2125
C28_19 C 0.65848(14) 0.99445(11) 0.35329(13)
H14_19 H 0.6394 0.9934 0.3679
C31_19 C 0.71381(19) 0.99702(14) 0.31309(18)
H15_19 H 0.7337 0.9979 0.2996
C32_19 C 0.71676(13) 0.98904(11) 0.34378(13)
H16_19 H 0.7388 0.9841 0.3520
C33_19 C 0.68860(11) 0.98688(10) 0.36763(11)
C34_19 C 0.69289(12) 0.97838(11) 0.40084(13)
O9_20 O 0.21026(9) 0.45377(9) 0.05063(9)
O10_20 O 0.38141(9) 0.48202(9) 0.01909(9)
O13_14 O 0.26052(7) 0.51362(7) 0.03806(7)
O14_14 O 0.31440(7) 0.52104(7) 0.02368(7)
H17_20 H 0.390983 0.461249 0.00862984
H18_20 H 0.393484 0.4869 0.0406052
H19_20 H 0.196103 0.472205 0.0410276
H20_20 H 0.206394 0.452286 0.0754361
O1_20 O 0.31775(7) 0.46632(7) 0.98148(7)
O2_20 O 0.25905(7) 0.46502(7) 0.99361(8)
N1_20 N 0.26581(13) 0.46401(12) 0.83305(14)
N2_20 N 0.16940(14) 0.48597(12) 0.73230(14)
C1_20 C 0.28511(14) 0.46649(9) 0.97190(12)
C2_20 C 0.30746(9) 0.46422(6) 0.91161(10)
H1_20 H 0.3303 0.4633 0.9192
C3_20 C 0.28085(14) 0.46595(7) 0.93666(15)
C4_20 C 0.24561(15) 0.46730(13) 0.92581(17)
H2_20 H 0.2277 0.4682 0.9418
C5_20 C 0.2384(2) 0.46715(14) 0.8870(2)
H3_20 H 0.2162 0.4682 0.8776
C6_20 C 0.2698(2) 0.46521(15) 0.8663(2)
C7_20 C 0.30174(15) 0.46384(11) 0.87971(15)
C8_20 C 0.32261(14) 0.46211(11) 0.85183(14)
C9_20 C 0.30081(14) 0.46237(12) 0.82013(14)
C10_20 C 0.3137(2) 0.46172(14) 0.7892(2)
H4_20 H 0.2985 0.4626 0.7705
C11_20 C 0.3482(2) 0.45985(14) 0.7825(2)
H5_20 H 0.3570 0.4591 0.7601
C12_20 C 0.36964(13) 0.45917(11) 0.81170(12)
C13_20 C 0.35678(10) 0.46035(9) 0.84512(10)
H6_20 H 0.3722 0.4599 0.8635
C14_20 C 0.40728(13) 0.45768(11) 0.80735(13)
C15_20 C 0.24360(16) 0.46868(13) 0.80949(16)
C16_20 C 0.22100(19) 0.4945(2) 0.8098(2)
H7_20 H 0.2223 0.5112 0.8271
C17_20 C 0.1964(2) 0.4967(3) 0.7856(2)
H8_20 H 0.1812 0.5153 0.7875
C18_20 C 0.19141(13) 0.47729(14) 0.76142(15)
C19_20 C 0.21330(18) 0.44969(18) 0.75899(18)
H9_20 H 0.2105 0.4341 0.7408
C20_20 C 0.2396(2) 0.4442(2) 0.7828(2)
H10_20 H 0.2540 0.4250 0.7813
C21_20 C 0.12500(13) 0.48814(6) 0.69913(13)
C22_20 C 0.1374(2) 0.48205(9) 0.7310(2)
C23_20 C 0.11403(15) 0.47180(9) 0.76016(14)
H11_20 H 0.1228 0.4675 0.7822
C24_20 C 0.08320(13) 0.46923(11) 0.75416(13)
H12_20 H 0.0681 0.4630 0.7718
C25_20 C 0.07009(12) 0.47567(10) 0.72051(12)
C26_20 C 0.09076(11) 0.48495(9) 0.69351(11)
H13_20 H 0.0814 0.4890 0.6717
C27_20 C 0.03194(9) 0.47152(9) 0.71431(10)
C28_20 C 0.15848(14) 0.50555(11) 0.64671(13)
H14_20 H 0.1394 0.5066 0.6321
C29_20 C 0.15188(16) 0.49641(12) 0.68012(17)
C30_20 C 0.1825(2) 0.49517(14) 0.7025(2)
C31_20 C 0.21381(19) 0.50298(14) 0.68691(18)
H15_20 H 0.2337 0.5021 0.7004
C32_20 C 0.21676(13) 0.51096(11) 0.65622(13)
H16_20 H 0.2388 0.5159 0.6480
C33_20 C 0.18860(11) 0.51312(10) 0.63237(11)
C34_20 C 0.19289(12) 0.52162(11) 0.59916(13)
O1_21 O 0.01852(7) 0.81775(7) 0.03368(7)
O2_21 O 0.00639(8) 0.75905(7) 0.03498(7)
N1_21 N 0.16695(14) 0.76581(13) 0.03599(12)
N2_21 N 0.26770(14) 0.66940(14) 0.01403(12)
C1_21 C 0.02810(12) 0.78511(14) 0.03351(9)
C2_21 C 0.08839(10) 0.80746(9) 0.03578(6)
H1_21 H 0.0808 0.8303 0.0367
C3_21 C 0.06334(15) 0.78085(14) 0.03405(7)
C4_21 C 0.07419(17) 0.74561(15) 0.03270(13)
H2_21 H 0.0582 0.7277 0.0318
C5_21 C 0.1130(2) 0.7384(2) 0.03285(14)
H3_21 H 0.1224 0.7162 0.0318
C6_21 C 0.1337(2) 0.7698(2) 0.03479(15)
C7_21 C 0.12029(15) 0.80174(15) 0.03616(11)
C8_21 C 0.14817(14) 0.82261(14) 0.03789(11)
C9_21 C 0.17987(14) 0.80081(14) 0.03763(12)
C10_21 C 0.2108(2) 0.8137(2) 0.03828(14)
H4_21 H 0.2295 0.7985 0.0374
C11_21 C 0.2175(2) 0.8482(2) 0.04015(14)
H5_21 H 0.2399 0.8570 0.0409
C12_21 C 0.18830(12) 0.86964(13) 0.04083(11)
C13_21 C 0.15488(10) 0.85678(10) 0.03965(9)
H6_21 H 0.1365 0.8722 0.0401
C14_21 C 0.19265(13) 0.90728(13) 0.04232(11)
C15_21 C 0.19051(16) 0.74360(16) 0.03132(13)
C16_21 C 0.1902(2) 0.72100(19) 0.0055(2)
C17_21 C 0.2144(2) 0.6964(2) 0.0033(3)
C18_21 C 0.23858(15) 0.69141(13) 0.02271(14)
C19_21 C 0.24101(18) 0.71330(18) 0.05031(18)
H9_21 H 0.2592 0.7105 0.0659
C20_21 C 0.2172(2) 0.7396(2) 0.0558(2)
H10_21 H 0.2187 0.7540 0.0750
C21_21 C 0.30087(13) 0.62500(13) 0.01186(6)
C22_21 C 0.2690(2) 0.6374(2) 0.01795(9)
C23_21 C 0.23984(14) 0.61403(15) 0.02820(9)
H11_21 H 0.2178 0.6228 0.0325
C24_21 C 0.24584(13) 0.58320(13) 0.03077(11)
H12_21 H 0.2282 0.5681 0.0370
C25_21 C 0.27949(12) 0.57009(12) 0.02433(10)
C26_21 C 0.30649(11) 0.59076(11) 0.01505(9)
H13_21 H 0.3283 0.5814 0.0110
C27_21 C 0.28569(10) 0.53194(9) 0.02848(9)
C29_21 C 0.31988(17) 0.65188(16) 0.00359(12)
C30_21 C 0.2975(2) 0.6825(2) 0.00483(14)
H7_21 H 0.1729 0.7223 0.9888
H8_21 H 0.2125 0.6812 0.9847
C28_21 C 0.35329(13) 0.65848(14) 0.99445(11)
H14_21 H 0.3679 0.6394 0.9934
C31_21 C 0.31309(18) 0.71381(19) 0.99702(14)
H15_21 H 0.2996 0.7337 0.9979
C32_21 C 0.34378(13) 0.71676(13) 0.98904(11)
H16_21 H 0.3520 0.7388 0.9841
C33_21 C 0.36763(11) 0.68860(11) 0.98688(10)
C34_21 C 0.40084(13) 0.69289(12) 0.97838(11)
O9_21 O 0.94937(9) 0.71026(9) 0.04623(9)
O10_21 O 0.98091(9) 0.88141(9) 0.01798(9)
H17_21 H 0.99137 0.890983 0.0387509
H18_21 H 0.959395 0.893484 0.0131
H19_21 H 0.958972 0.696103 0.0277947
H20_21 H 0.924564 0.706394 0.0477145
O1_22 O 0.53368(7) 0.48148(7) 0.18225(7)
O2_22 O 0.53498(7) 0.49361(8) 0.24095(7)
O7_12 O 0.48418(8) 0.07866(8) 0.33131(8)
O8_12 O 0.46626(8) 0.08733(9) 0.27783(9)
O9_22 O 0.54623(9) 0.55063(9) 0.28974(9)
O10_22 O 0.51798(9) 0.51909(9) 0.11859(9)
N1_22 N 0.53599(12) 0.33305(14) 0.23419(13)
N2_22 N 0.51403(12) 0.23230(14) 0.33060(14)
C1_22 C 0.53351(9) 0.47190(12) 0.21489(14)
C2_22 C 0.53578(6) 0.41161(10) 0.19254(9)
H1_22 H 0.5367 0.4192 0.1697
C3_22 C 0.53405(7) 0.43666(15) 0.21915(14)
C4_22 C 0.53270(13) 0.42581(17) 0.25439(15)
H2_22 H 0.5318 0.4418 0.2723
C5_22 C 0.53285(14) 0.3870(2) 0.2616(2)
H3_22 H 0.5318 0.3776 0.2838
C6_22 C 0.53479(15) 0.3663(2) 0.2302(2)
C7_22 C 0.53616(11) 0.37971(15) 0.19826(15)
C8_22 C 0.53789(11) 0.35183(14) 0.17739(14)
C9_22 C 0.53763(12) 0.32013(14) 0.19919(14)
C10_22 C 0.53828(14) 0.2892(2) 0.1863(2)
H4_22 H 0.5374 0.2705 0.2015
C11_22 C 0.54015(14) 0.2825(2) 0.1518(2)
H5_22 H 0.5409 0.2601 0.1430
C12_22 C 0.54083(11) 0.31170(12) 0.13036(13)
C13_22 C 0.53965(9) 0.34512(10) 0.14322(10)
H6_22 H 0.5401 0.3635 0.1278
C14_22 C 0.54232(11) 0.30735(13) 0.09272(13)
C15_22 C 0.53132(13) 0.30949(16) 0.25640(16)
C16_22 C 0.5055(2) 0.3098(2) 0.27900(19)
H7_22 H 0.4888 0.3271 0.2777
C17_22 C 0.5033(3) 0.2856(2) 0.3036(2)
H8_22 H 0.4847 0.2875 0.3188
C18_22 C 0.52271(14) 0.26142(15) 0.30859(13)
C19_22 C 0.55031(18) 0.25899(18) 0.28670(18)
H9_22 H 0.5659 0.2408 0.2895
C20_22 C 0.5558(2) 0.2828(2) 0.2604(2)
H10_22 H 0.5750 0.2813 0.2460
C21_22 C 0.51186(6) 0.19913(13) 0.37500(13)
C22_22 C 0.51795(9) 0.2310(2) 0.3626(2)
C23_22 C 0.52820(9) 0.26016(14) 0.38597(15)
H11_22 H 0.5325 0.2822 0.3772
C24_22 C 0.53077(11) 0.25416(13) 0.41680(13)
H12_22 H 0.5370 0.2718 0.4319
C25_22 C 0.52433(10) 0.22051(12) 0.42991(12)
C26_22 C 0.51505(9) 0.19351(11) 0.40924(11)
H13_22 H 0.5110 0.1717 0.4186
C27_22 C 0.52848(9) 0.21431(10) 0.46806(9)
C28_22 C 0.49445(11) 0.14671(13) 0.34152(14)
H14_22 H 0.4934 0.1321 0.3606
C29_22 C 0.50359(12) 0.18012(17) 0.34812(16)
C30_22 C 0.50483(14) 0.2025(2) 0.3175(2)
C31_22 C 0.49702(14) 0.18691(18) 0.28619(19)
H15_22 H 0.4979 0.2004 0.2663
C32_22 C 0.48904(11) 0.15622(13) 0.28324(13)
H16_22 H 0.4841 0.1480 0.2612
C33_22 C 0.48688(10) 0.13237(11) 0.31140(11)
C34_22 C 0.47838(11) 0.09916(13) 0.30711(12)
O15_12 O 0.51582(8) 0.57866(8) 0.16869(8)
O16_12 O 0.53374(8) 0.58733(9) 0.22217(9)
H17_22 H 0.538751 0.50863 0.109017
H18_22 H 0.5131 0.540605 0.106516
H19_22 H 0.527795 0.541028 0.303897
H20_22 H 0.547714 0.575436 0.293606
O9_23 O 0.45377(9) 0.05063(9) 0.21026(9)
O10_23 O 0.48202(9) 0.01909(9) 0.38141(9)
H17_23 H 0.461249 0.00862984 0.390983
H18_23 H 0.4869 0.0406052 0.393484
H19_23 H 0.472205 0.0410276 0.196103
H20_23 H 0.452286 0.0754361 0.206394
O1_23 O 0.46632(7) 0.98148(7) 0.31775(7)
O2_23 O 0.46502(7) 0.99361(8) 0.25905(7)
N1_23 N 0.46401(12) 0.83305(14) 0.26581(13)
N2_23 N 0.48597(12) 0.73230(14) 0.16940(14)
C1_23 C 0.46649(9) 0.97190(12) 0.28511(14)
C2_23 C 0.46422(6) 0.91161(10) 0.30746(9)
H1_23 H 0.4633 0.9192 0.3303
C3_23 C 0.46595(7) 0.93666(15) 0.28085(14)
C4_23 C 0.46730(13) 0.92581(17) 0.24561(15)
H2_23 H 0.4682 0.9418 0.2277
C5_23 C 0.46715(14) 0.8870(2) 0.2384(2)
H3_23 H 0.4682 0.8776 0.2162
C6_23 C 0.46521(15) 0.8663(2) 0.2698(2)
C7_23 C 0.46384(11) 0.87971(15) 0.30174(15)
C8_23 C 0.46211(11) 0.85183(14) 0.32261(14)
C9_23 C 0.46237(12) 0.82013(14) 0.30081(14)
C10_23 C 0.46172(14) 0.7892(2) 0.3137(2)
H4_23 H 0.4626 0.7705 0.2985
C11_23 C 0.45985(14) 0.7825(2) 0.3482(2)
H5_23 H 0.4591 0.7601 0.3570
C12_23 C 0.45917(11) 0.81170(12) 0.36964(13)
C13_23 C 0.46035(9) 0.84512(10) 0.35678(10)
H6_23 H 0.4599 0.8635 0.3722
C14_23 C 0.45768(11) 0.80735(13) 0.40728(13)
C15_23 C 0.46868(13) 0.80949(16) 0.24360(16)
C16_23 C 0.4945(2) 0.8098(2) 0.22100(19)
H7_23 H 0.5112 0.8271 0.2223
C17_23 C 0.4967(3) 0.7856(2) 0.1964(2)
H8_23 H 0.5153 0.7875 0.1812
C18_23 C 0.47729(14) 0.76142(15) 0.19141(13)
C19_23 C 0.44969(18) 0.75899(18) 0.21330(18)
H9_23 H 0.4341 0.7408 0.2105
C20_23 C 0.4442(2) 0.7828(2) 0.2396(2)
H10_23 H 0.4250 0.7813 0.2540
C21_23 C 0.48814(6) 0.69913(13) 0.12500(13)
C22_23 C 0.48205(9) 0.7310(2) 0.1374(2)
C23_23 C 0.47180(9) 0.76016(14) 0.11403(15)
H11_23 H 0.4675 0.7822 0.1228
C24_23 C 0.46923(11) 0.75416(13) 0.08320(13)
H12_23 H 0.4630 0.7718 0.0681
C25_23 C 0.47567(10) 0.72051(12) 0.07009(12)
C26_23 C 0.48495(9) 0.69351(11) 0.09076(11)
H13_23 H 0.4890 0.6717 0.0814
C27_23 C 0.47152(9) 0.71431(10) 0.03194(9)
C28_23 C 0.50555(11) 0.64671(13) 0.15848(14)
H14_23 H 0.5066 0.6321 0.1394
C29_23 C 0.49641(12) 0.68012(17) 0.15188(16)
C30_23 C 0.49517(14) 0.7025(2) 0.1825(2)
C31_23 C 0.50298(14) 0.68691(18) 0.21381(19)
H15_23 H 0.5021 0.7004 0.2337
C32_23 C 0.51096(11) 0.65622(13) 0.21676(13)
H16_23 H 0.5159 0.6480 0.2388
C33_23 C 0.51312(10) 0.63237(11) 0.18860(11)
C34_23 C 0.52162(11) 0.59916(13) 0.19289(12)
O1_24 O 0.03368(7) 0.01852(7) 0.81775(7)
O2_24 O 0.03498(7) 0.00639(8) 0.75905(7)
N1_24 N 0.03599(12) 0.16695(14) 0.76581(13)
N2_24 N 0.01403(12) 0.26770(14) 0.66940(14)
C1_24 C 0.03351(9) 0.02810(12) 0.78511(14)
C2_24 C 0.03578(6) 0.08839(10) 0.80746(9)
H1_24 H 0.0367 0.0808 0.8303
C3_24 C 0.03405(7) 0.06334(15) 0.78085(14)
C4_24 C 0.03270(13) 0.07419(17) 0.74561(15)
H2_24 H 0.0318 0.0582 0.7277
C5_24 C 0.03285(14) 0.1130(2) 0.7384(2)
H3_24 H 0.0318 0.1224 0.7162
C6_24 C 0.03479(15) 0.1337(2) 0.7698(2)
C7_24 C 0.03616(11) 0.12029(15) 0.80174(15)
C8_24 C 0.03789(11) 0.14817(14) 0.82261(14)
C9_24 C 0.03763(12) 0.17987(14) 0.80081(14)
C10_24 C 0.03828(14) 0.2108(2) 0.8137(2)
H4_24 H 0.0374 0.2295 0.7985
C11_24 C 0.04015(14) 0.2175(2) 0.8482(2)
H5_24 H 0.0409 0.2399 0.8570
C12_24 C 0.04083(11) 0.18830(12) 0.86964(13)
C13_24 C 0.03965(9) 0.15488(10) 0.85678(10)
H6_24 H 0.0401 0.1365 0.8722
C14_24 C 0.04232(11) 0.19265(13) 0.90728(13)
C15_24 C 0.03132(13) 0.19051(16) 0.74360(16)
C16_24 C 0.0055(2) 0.1902(2) 0.72100(19)
C17_24 C 0.0033(3) 0.2144(2) 0.6964(2)
C18_24 C 0.02271(14) 0.23858(15) 0.69141(13)
C19_24 C 0.05031(18) 0.24101(18) 0.71330(18)
H9_24 H 0.0659 0.2592 0.7105
C20_24 C 0.0558(2) 0.2172(2) 0.7396(2)
H10_24 H 0.0750 0.2187 0.7540
C21_24 C 0.01186(6) 0.30087(13) 0.62500(13)
C22_24 C 0.01795(9) 0.2690(2) 0.6374(2)
C23_24 C 0.02820(9) 0.23984(14) 0.61403(15)
H11_24 H 0.0325 0.2178 0.6228
C24_24 C 0.03077(11) 0.24584(13) 0.58320(13)
H12_24 H 0.0370 0.2282 0.5681
C25_24 C 0.02433(10) 0.27949(12) 0.57009(12)
C26_24 C 0.01505(9) 0.30649(11) 0.59076(11)
H13_24 H 0.0110 0.3283 0.5814
C27_24 C 0.02848(9) 0.28569(10) 0.53194(9)
C29_24 C 0.00359(12) 0.31988(17) 0.65188(16)
C30_24 C 0.00483(14) 0.2975(2) 0.6825(2)
O9_24 O 0.04623(9) 0.94937(9) 0.71026(9)
O10_24 O 0.01798(9) 0.98091(9) 0.88141(9)
H17_24 H 0.0387509 0.99137 0.890983
H18_24 H 0.0131 0.959395 0.893484
H19_24 H 0.0277947 0.958972 0.696103
H20_24 H 0.0477145 0.924564 0.706394
H7_24 H 0.9888 0.1729 0.7223
H8_24 H 0.9847 0.2125 0.6812
C28_24 C 0.99445(11) 0.35329(13) 0.65848(14)
H14_24 H 0.9934 0.3679 0.6394
C31_24 C 0.99702(14) 0.31309(18) 0.71381(19)
H15_24 H 0.9979 0.2996 0.7337
C32_24 C 0.98904(11) 0.34378(13) 0.71676(13)
H16_24 H 0.9841 0.3520 0.7388
C33_24 C 0.98688(10) 0.36763(11) 0.68860(11)
C34_24 C 0.97838(11) 0.40084(13) 0.69289(12)
loop_
_geom_bond_atom_site_label_1
_geom_bond_atom_site_label_2
_geom_bond_site_symmetry_1
_geom_bond_site_symmetry_2
Cu1 O2 1_555 1_555
Cu2 O1 1_555 1_555
O1 C1 1_555 1_555
O2 C1 1_555 1_555
O3 C14 1_555 1_555
O4 C14 1_555 1_555
O5 C27 1_555 1_555
O6 C27 1_555 1_555
O9 Cu1 1_555 1_555
O10 Cu2 1_555 1_555
N1 C6 1_555 1_555
N2 C18 1_555 1_555
C1 C3 1_555 1_555
C2 H1 1_555 1_555
C3 C2 1_555 1_555
C4 C3 1_555 1_555
H2 C4 1_555 1_555
C5 C4 1_555 1_555
H3 C5 1_555 1_555
C6 C5 1_555 1_555
C7 C2 1_555 1_555
C8 C7 1_555 1_555
C9 N1 1_555 1_555
C10 C9 1_555 1_555
H4 C10 1_555 1_555
C11 C10 1_555 1_555
H5 C11 1_555 1_555
C12 C11 1_555 1_555
C13 C8 1_555 1_555
H6 C13 1_555 1_555
C14 C12 1_555 1_555
C15 N1 1_555 1_555
C16 C15 1_555 1_555
C17 C16 1_555 1_555
C18 C17 1_555 1_555
C19 C18 1_555 1_555
H9 C19 1_555 1_555
C20 C15 1_555 1_555
H10 C20 1_555 1_555
C21 C22 1_555 1_555
C22 N2 1_555 1_555
C23 C22 1_555 1_555
H11 C23 1_555 1_555
C24 C23 1_555 1_555
H12 C24 1_555 1_555
C25 C24 1_555 1_555
C26 C21 1_555 1_555
H13 C26 1_555 1_555
C27 C25 1_555 1_555
C29 C21 1_555 1_555
C30 N2 1_555 1_555
Cu3 O4 1_555 1_555
Cu6 O3 1_555 1_555
O11 Cu2 1_555 1_555
O12 Cu1 1_555 1_555
O15 Cu2 1_555 1_555
O16 Cu1 1_555 1_555
C6 C7 1_555 1_555
C8 C9 1_555 1_555
C12 C13 1_555 1_555
C19 C20 1_555 1_555
C25 C26 1_555 1_555
C29 C30 1_555 1_555
O10 H17 1_555 1_555
O10 H18 1_555 1_555
O9 H19 1_555 1_555
O9 H20 1_555 1_555
O7 C34 1_555 1_555
O8 C34 1_555 1_555
C28 H14 1_555 1_555
H15 C31 1_555 1_555
C32 C31 1_555 1_555
H16 C32 1_555 1_555
C33 C28 1_555 1_555
C34 C33 1_555 1_555
Cu5 O8 1_555 1_555
Cu8 O7 1_555 1_555
C32 C33 1_555 1_555
Cu1_2 O2_2 1_555 1_555
Cu2_2 O1_2 1_555 1_555
O1_2 C1_2 1_555 1_555
O2_2 C1_2 1_555 1_555
O3_2 C14_2 1_555 1_555
O4_2 C14_2 1_555 1_555
O5_2 C27_2 1_555 1_555
O6_2 C27_2 1_555 1_555
O9_2 Cu1_2 1_555 1_555
O10_2 Cu2_2 1_555 1_555
N1_2 C6_2 1_555 1_555
N2_2 C18_2 1_555 1_555
C1_2 C3_2 1_555 1_555
C2_2 H1_2 1_555 1_555
C3_2 C2_2 1_555 1_555
C4_2 C3_2 1_555 1_555
H2_2 C4_2 1_555 1_555
C5_2 C4_2 1_555 1_555
H3_2 C5_2 1_555 1_555
C6_2 C5_2 1_555 1_555
C7_2 C2_2 1_555 1_555
C8_2 C7_2 1_555 1_555
C9_2 N1_2 1_555 1_555
C10_2 C9_2 1_555 1_555
H4_2 C10_2 1_555 1_555
C11_2 C10_2 1_555 1_555
H5_2 C11_2 1_555 1_555
C12_2 C11_2 1_555 1_555
C13_2 C8_2 1_555 1_555
H6_2 C13_2 1_555 1_555
C14_2 C12_2 1_555 1_555
C15_2 N1_2 1_555 1_555
C16_2 C15_2 1_555 1_555
C17_2 C16_2 1_555 1_555
C18_2 C17_2 1_555 1_555
C19_2 C18_2 1_555 1_555
H9_2 C19_2 1_555 1_555
C20_2 C15_2 1_555 1_555
H10_2 C20_2 1_555 1_555
C21_2 C22_2 1_555 1_555
C22_2 N2_2 1_555 1_555
C23_2 C22_2 1_555 1_555
H11_2 C23_2 1_555 1_555
C24_2 C23_2 1_555 1_555
H12_2 C24_2 1_555 1_555
C25_2 C24_2 1_555 1_555
C26_2 C21_2 1_555 1_555
H13_2 C26_2 1_555 1_555
C27_2 C25_2 1_555 1_555
C29_2 C21_2 1_555 1_555
C30_2 N2_2 1_555 1_555
Cu3_2 O4_2 1_555 1_555
Cu6_2 O3_2 1_555 1_555
O11_2 Cu2_2 1_555 1_555
O12_2 Cu1_2 1_555 1_555
O15_2 Cu2_2 1_555 1_555
O16_2 Cu1_2 1_555 1_555
C6_2 C7_2 1_555 1_555
C8_2 C9_2 1_555 1_555
C12_2 C13_2 1_555 1_555
C19_2 C20_2 1_555 1_555
C25_2 C26_2 1_555 1_555
C29_2 C30_2 1_555 1_555
O10_2 H17_2 1_555 1_555
O10_2 H18_2 1_555 1_555
O9_2 H19_2 1_555 1_555
O9_2 H20_2 1_555 1_555
O7_2 C34_2 1_555 1_555
O8_2 C34_2 1_555 1_555
C28_2 H14_2 1_555 1_555
H15_2 C31_2 1_555 1_555
C32_2 C31_2 1_555 1_555
H16_2 C32_2 1_555 1_555
C33_2 C28_2 1_555 1_555
C34_2 C33_2 1_555 1_555
Cu5_2 O8_2 1_555 1_555
Cu8_2 O7_2 1_555 1_555
C32_2 C33_2 1_555 1_555
Cu1_3 O2_3 1_555 1_555
Cu2_3 O1_3 1_555 1_555
O1_3 C1_3 1_555 1_555
O2_3 C1_3 1_555 1_555
O3_3 C14_3 1_555 1_555
O4_3 C14_3 1_555 1_555
O5_3 C27_3 1_555 1_555
O6_3 C27_3 1_555 1_555
O9_3 Cu1_3 1_555 1_555
O10_3 Cu2_3 1_555 1_555
N1_3 C6_3 1_555 1_555
N2_3 C18_3 1_555 1_555
C1_3 C3_3 1_555 1_555
C2_3 H1_3 1_555 1_555
C3_3 C2_3 1_555 1_555
C4_3 C3_3 1_555 1_555
H2_3 C4_3 1_555 1_555
C5_3 C4_3 1_555 1_555
H3_3 C5_3 1_555 1_555
C6_3 C5_3 1_555 1_555
C7_3 C2_3 1_555 1_555
C8_3 C7_3 1_555 1_555
C9_3 N1_3 1_555 1_555
C10_3 C9_3 1_555 1_555
H4_3 C10_3 1_555 1_555
C11_3 C10_3 1_555 1_555
H5_3 C11_3 1_555 1_555
C12_3 C11_3 1_555 1_555
C13_3 C8_3 1_555 1_555
H6_3 C13_3 1_555 1_555
C14_3 C12_3 1_555 1_555
C15_3 N1_3 1_555 1_555
C16_3 C15_3 1_555 1_555
C17_3 C16_3 1_555 1_555
C18_3 C17_3 1_555 1_555
C19_3 C18_3 1_555 1_555
H9_3 C19_3 1_555 1_555
C20_3 C15_3 1_555 1_555
H10_3 C20_3 1_555 1_555
C21_3 C22_3 1_555 1_555
C22_3 N2_3 1_555 1_555
C23_3 C22_3 1_555 1_555
H11_3 C23_3 1_555 1_555
C24_3 C23_3 1_555 1_555
H12_3 C24_3 1_555 1_555
C25_3 C24_3 1_555 1_555
C26_3 C21_3 1_555 1_555
H13_3 C26_3 1_555 1_555
C27_3 C25_3 1_555 1_555
C29_3 C21_3 1_555 1_555
C30_3 N2_3 1_555 1_555
Cu3_3 O4_3 1_555 1_555
Cu6_3 O3_3 1_555 1_555
O11_3 Cu2_3 1_555 1_555
O12_3 Cu1_3 1_555 1_555
O15_3 Cu2_3 1_555 1_555
O16_3 Cu1_3 1_555 1_555
C6_3 C7_3 1_555 1_555
C8_3 C9_3 1_555 1_555
C12_3 C13_3 1_555 1_555
C19_3 C20_3 1_555 1_555
C25_3 C26_3 1_555 1_555
C29_3 C30_3 1_555 1_555
O10_3 H17_3 1_555 1_555
O10_3 H18_3 1_555 1_555
O9_3 H19_3 1_555 1_555
O9_3 H20_3 1_555 1_555
O7_3 C34_3 1_555 1_555
O8_3 C34_3 1_555 1_555
C28_3 H14_3 1_555 1_555
H15_3 C31_3 1_555 1_555
C32_3 C31_3 1_555 1_555
H16_3 C32_3 1_555 1_555
C33_3 C28_3 1_555 1_555
C34_3 C33_3 1_555 1_555
Cu4 O8_3 1_555 1_555
Cu7 O7_3 1_555 1_555
C32_3 C33_3 1_555 1_555
O1_4 C1_4 1_555 1_555
O2_4 C1_4 1_555 1_555
O3_4 C14_4 1_555 1_555
O4_4 C14_4 1_555 1_555
O13_2 C27_4 1_555 1_555
O14_2 C27_4 1_555 1_555
O7_4 C34_4 1_555 1_555
O8_4 C34_4 1_555 1_555
N1_4 C6_4 1_555 1_555
N2_4 C18_4 1_555 1_555
C1_4 C3_4 1_555 1_555
C2_4 H1_4 1_555 1_555
C3_4 C2_4 1_555 1_555
C4_4 C3_4 1_555 1_555
H2_4 C4_4 1_555 1_555
C5_4 C4_4 1_555 1_555
H3_4 C5_4 1_555 1_555
C6_4 C5_4 1_555 1_555
C7_4 C2_4 1_555 1_555
C8_4 C7_4 1_555 1_555
C9_4 N1_4 1_555 1_555
C10_4 C9_4 1_555 1_555
H4_4 C10_4 1_555 1_555
C11_4 C10_4 1_555 1_555
H5_4 C11_4 1_555 1_555
C12_4 C11_4 1_555 1_555
C13_4 C8_4 1_555 1_555
H6_4 C13_4 1_555 1_555
C14_4 C12_4 1_555 1_555
C15_4 N1_4 1_555 1_555
C16_4 C15_4 1_555 1_555
H7_4 C16_4 1_555 1_555
C17_4 C16_4 1_555 1_555
H8_4 C17_4 1_555 1_555
C18_4 C17_4 1_555 1_555
C19_4 C18_4 1_555 1_555
H9_4 C19_4 1_555 1_555
C20_4 C15_4 1_555 1_555
H10_4 C20_4 1_555 1_555
C21_4 C22_4 1_555 1_555
C22_4 N2_4 1_555 1_555
C23_4 C22_4 1_555 1_555
H11_4 C23_4 1_555 1_555
C24_4 C23_4 1_555 1_555
H12_4 C24_4 1_555 1_555
C25_4 C24_4 1_555 1_555
C26_4 C21_4 1_555 1_555
H13_4 C26_4 1_555 1_555
C27_4 C25_4 1_555 1_555
C28_4 H14_4 1_555 1_555
C29_4 C21_4 1_555 1_555
C30_4 N2_4 1_555 1_555
C31_4 C30_4 1_555 1_555
H15_4 C31_4 1_555 1_555
C32_4 C31_4 1_555 1_555
H16_4 C32_4 1_555 1_555
C33_4 C28_4 1_555 1_555
C34_4 C33_4 1_555 1_555
Cu3_4 O4_4 1_555 1_555
Cu5_3 O8_4 1_555 1_555
Cu6_4 O3_4 1_555 1_555
Cu8_3 O7_4 1_555 1_555
C6_4 C7_4 1_555 1_555
C8_4 C9_4 1_555 1_555
C12_4 C13_4 1_555 1_555
C19_4 C20_4 1_555 1_555
C25_4 C26_4 1_555 1_555
C28_4 C29_4 1_555 1_555
C29_4 C30_4 1_555 1_555
C32_4 C33_4 1_555 1_555
O9_4 Cu1_4 1_555 1_555
O10_4 Cu2_4 1_555 1_555
O11_4 Cu2_4 1_555 1_555
O12_4 Cu1_4 1_555 1_555
O13_4 Cu1_4 1_555 1_555
O14_4 Cu2_4 1_555 1_555
O15_4 Cu2_4 1_555 1_555
O16_4 Cu1_4 1_555 1_555
O10_4 H17_4 1_555 1_555
O10_4 H18_4 1_555 1_555
O9_4 H19_4 1_555 1_555
O9_4 H20_4 1_555 1_555
Cu1_5 O2_5 1_555 1_555
Cu2_5 O1_5 1_555 1_555
O1_5 C1_5 1_555 1_555
O2_5 C1_5 1_555 1_555
O3_5 C14_5 1_555 1_555
O4_5 C14_5 1_555 1_555
O5_4 C27_5 1_555 1_555
O6_4 C27_5 1_555 1_555
O7_5 C34_5 1_555 1_555
O8_5 C34_5 1_555 1_555
O9_5 Cu1_5 1_555 1_555
O10_5 Cu2_5 1_555 1_555
N1_5 C6_5 1_555 1_555
N2_5 C18_5 1_555 1_555
C1_5 C3_5 1_555 1_555
C2_5 H1_5 1_555 1_555
C3_5 C2_5 1_555 1_555
C4_5 C3_5 1_555 1_555
H2_5 C4_5 1_555 1_555
C5_5 C4_5 1_555 1_555
H3_5 C5_5 1_555 1_555
C6_5 C5_5 1_555 1_555
C7_5 C2_5 1_555 1_555
C8_5 C7_5 1_555 1_555
C9_5 N1_5 1_555 1_555
C10_5 C9_5 1_555 1_555
H4_5 C10_5 1_555 1_555
C11_5 C10_5 1_555 1_555
H5_5 C11_5 1_555 1_555
C12_5 C11_5 1_555 1_555
C13_5 C8_5 1_555 1_555
H6_5 C13_5 1_555 1_555
C14_5 C12_5 1_555 1_555
C15_5 N1_5 1_555 1_555
C16_5 C15_5 1_555 1_555
H7_5 C16_5 1_555 1_555
C17_5 C16_5 1_555 1_555
H8_5 C17_5 1_555 1_555
C18_5 C17_5 1_555 1_555
C19_5 C18_5 1_555 1_555
H9_5 C19_5 1_555 1_555
C20_5 C15_5 1_555 1_555
H10_5 C20_5 1_555 1_555
C21_5 C22_5 1_555 1_555
C22_5 N2_5 1_555 1_555
C23_5 C22_5 1_555 1_555
H11_5 C23_5 1_555 1_555
C24_5 C23_5 1_555 1_555
H12_5 C24_5 1_555 1_555
C25_5 C24_5 1_555 1_555
C26_5 C21_5 1_555 1_555
H13_5 C26_5 1_555 1_555
C27_5 C25_5 1_555 1_555
C28_5 H14_5 1_555 1_555
C29_5 C21_5 1_555 1_555
C30_5 N2_5 1_555 1_555
C31_5 C30_5 1_555 1_555
H15_5 C31_5 1_555 1_555
C32_5 C31_5 1_555 1_555
H16_5 C32_5 1_555 1_555
C33_5 C28_5 1_555 1_555
C34_5 C33_5 1_555 1_555
Cu3_5 O4_5 1_555 1_555
Cu4_2 O5_4 1_555 1_555
Cu5_4 O8_5 1_555 1_555
Cu6_5 O3_5 1_555 1_555
Cu7_2 O6_4 1_555 1_555
Cu8_4 O7_5 1_555 1_555
O11_5 Cu2_5 1_555 1_555
O12_5 Cu1_5 1_555 1_555
O13_5 Cu1_5 1_555 1_555
O14_5 Cu2_5 1_555 1_555
O15_5 Cu2_5 1_555 1_555
O16_5 Cu1_5 1_555 1_555
C6_5 C7_5 1_555 1_555
C8_5 C9_5 1_555 1_555
C12_5 C13_5 1_555 1_555
C19_5 C20_5 1_555 1_555
C25_5 C26_5 1_555 1_555
C28_5 C29_5 1_555 1_555
C29_5 C30_5 1_555 1_555
C32_5 C33_5 1_555 1_555
O10_5 H17_5 1_555 1_555
O10_5 H18_5 1_555 1_555
O9_5 H19_5 1_555 1_555
O9_5 H20_5 1_555 1_555
Cu5_3 O2_6 1_555 1_555
Cu8_3 O1_6 1_555 1_555
O1_6 C1_6 1_555 1_555
O2_6 C1_6 1_555 1_555
O3_6 C14_6 1_555 1_555
O4_6 C14_6 1_555 1_555
O13_5 C27_6 1_555 1_555
O14_5 C27_6 1_555 1_555
O15_4 C34_6 1_555 1_555
O16_4 C34_6 1_555 1_555
O9_6 Cu5_3 1_555 1_555
O10_6 Cu8_3 1_555 1_555
N1_6 C6_6 1_555 1_555
N2_6 C18_6 1_555 1_555
C1_6 C3_6 1_555 1_555
C2_6 H1_6 1_555 1_555
C3_6 C2_6 1_555 1_555
C4_6 C3_6 1_555 1_555
H2_6 C4_6 1_555 1_555
C5_6 C4_6 1_555 1_555
H3_6 C5_6 1_555 1_555
C6_6 C5_6 1_555 1_555
C7_6 C2_6 1_555 1_555
C8_6 C7_6 1_555 1_555
C9_6 N1_6 1_555 1_555
C10_6 C9_6 1_555 1_555
H4_6 C10_6 1_555 1_555
C11_6 C10_6 1_555 1_555
H5_6 C11_6 1_555 1_555
C12_6 C11_6 1_555 1_555
C13_6 C8_6 1_555 1_555
H6_6 C13_6 1_555 1_555
C14_6 C12_6 1_555 1_555
C15_6 N1_6 1_555 1_555
C16_6 C15_6 1_555 1_555
H7_6 C16_6 1_555 1_555
C17_6 C16_6 1_555 1_555
H8_6 C17_6 1_555 1_555
C18_6 C17_6 1_555 1_555
C19_6 C18_6 1_555 1_555
H9_6 C19_6 1_555 1_555
C20_6 C15_6 1_555 1_555
H10_6 C20_6 1_555 1_555
C21_6 C22_6 1_555 1_555
C22_6 N2_6 1_555 1_555
C23_6 C22_6 1_555 1_555
H11_6 C23_6 1_555 1_555
C24_6 C23_6 1_555 1_555
H12_6 C24_6 1_555 1_555
C25_6 C24_6 1_555 1_555
C26_6 C21_6 1_555 1_555
H13_6 C26_6 1_555 1_555
C27_6 C25_6 1_555 1_555
C28_6 H14_6 1_555 1_555
C29_6 C21_6 1_555 1_555
C30_6 N2_6 1_555 1_555
C31_6 C30_6 1_555 1_555
H15_6 C31_6 1_555 1_555
C32_6 C31_6 1_555 1_555
H16_6 C32_6 1_555 1_555
C33_6 C28_6 1_555 1_555
C34_6 C33_6 1_555 1_555
Cu3_6 O4_6 1_555 1_555
Cu6_6 O3_6 1_555 1_555
O11_6 Cu8_3 1_555 1_555
O12_6 Cu5_3 1_555 1_555
O13_6 Cu5_3 1_555 1_555
O14_6 Cu8_3 1_555 1_555
C6_6 C7_6 1_555 1_555
C8_6 C9_6 1_555 1_555
C12_6 C13_6 1_555 1_555
C19_6 C20_6 1_555 1_555
C25_6 C26_6 1_555 1_555
C28_6 C29_6 1_555 1_555
C29_6 C30_6 1_555 1_555
C32_6 C33_6 1_555 1_555
O10_6 H17_6 1_555 1_555
O10_6 H18_6 1_555 1_555
O9_6 H19_6 1_555 1_555
O9_6 H20_6 1_555 1_555
O15_2 C34_7 1_555 1_555
O16_2 C34_7 1_555 1_555
C28_7 H14_7 1_555 1_555
H15_7 C31_7 1_555 1_555
C32_7 C31_7 1_555 1_555
H16_7 C32_7 1_555 1_555
C33_7 C28_7 1_555 1_555
C34_7 C33_7 1_555 1_555
C32_7 C33_7 1_555 1_555
O9_7 Cu5_2 1_555 1_555
O10_7 Cu8_2 1_555 1_555
O11_7 Cu8_2 1_555 1_555
O12_7 Cu5_2 1_555 1_555
O10_7 H17_7 1_555 1_555
O10_7 H18_7 1_555 1_555
O9_7 H19_7 1_555 1_555
O9_7 H20_7 1_555 1_555
O1_7 C1_7 1_555 1_555
O2_7 C1_7 1_555 1_555
O3_7 C14_7 1_555 1_555
O4_7 C14_7 1_555 1_555
O5_5 C27_7 1_555 1_555
O6_5 C27_7 1_555 1_555
N1_7 C6_7 1_555 1_555
N2_7 C18_7 1_555 1_555
C1_7 C3_7 1_555 1_555
C2_7 H1_7 1_555 1_555
C3_7 C2_7 1_555 1_555
C4_7 C3_7 1_555 1_555
H2_7 C4_7 1_555 1_555
C5_7 C4_7 1_555 1_555
H3_7 C5_7 1_555 1_555
C6_7 C5_7 1_555 1_555
C7_7 C2_7 1_555 1_555
C8_7 C7_7 1_555 1_555
C9_7 N1_7 1_555 1_555
C10_7 C9_7 1_555 1_555
H4_7 C10_7 1_555 1_555
C11_7 C10_7 1_555 1_555
H5_7 C11_7 1_555 1_555
C12_7 C11_7 1_555 1_555
C13_7 C8_7 1_555 1_555
H6_7 C13_7 1_555 1_555
C14_7 C12_7 1_555 1_555
C15_7 N1_7 1_555 1_555
C16_7 C15_7 1_555 1_555
C17_7 C16_7 1_555 1_555
C18_7 C17_7 1_555 1_555
C19_7 C18_7 1_555 1_555
H9_7 C19_7 1_555 1_555
C20_7 C15_7 1_555 1_555
H10_7 C20_7 1_555 1_555
C21_7 C22_7 1_555 1_555
C22_7 N2_7 1_555 1_555
C23_7 C22_7 1_555 1_555
H11_7 C23_7 1_555 1_555
C24_7 C23_7 1_555 1_555
H12_7 C24_7 1_555 1_555
C25_7 C24_7 1_555 1_555
C26_7 C21_7 1_555 1_555
H13_7 C26_7 1_555 1_555
C27_7 C25_7 1_555 1_555
C29_7 C21_7 1_555 1_555
C30_7 N2_7 1_555 1_555
Cu3_7 O4_7 1_555 1_555
Cu4_3 O5_5 1_555 1_555
Cu6_7 O3_7 1_555 1_555
Cu7_3 O6_5 1_555 1_555
C6_7 C7_7 1_555 1_555
C8_7 C9_7 1_555 1_555
C12_7 C13_7 1_555 1_555
C19_7 C20_7 1_555 1_555
C25_7 C26_7 1_555 1_555
C29_7 C30_7 1_555 1_555
O1_8 C1_8 1_555 1_555
O2_8 C1_8 1_555 1_555
O3_8 C14_8 1_555 1_555
O4_8 C14_8 1_555 1_555
O13 C27_8 1_555 1_555
O14 C27_8 1_555 1_555
O15_5 C34_8 1_555 1_555
O16_5 C34_8 1_555 1_555
N1_8 C6_8 1_555 1_555
N2_8 C18_8 1_555 1_555
C1_8 C3_8 1_555 1_555
C2_8 H1_8 1_555 1_555
C3_8 C2_8 1_555 1_555
C4_8 C3_8 1_555 1_555
H2_8 C4_8 1_555 1_555
C5_8 C4_8 1_555 1_555
H3_8 C5_8 1_555 1_555
C6_8 C5_8 1_555 1_555
C7_8 C2_8 1_555 1_555
C8_8 C7_8 1_555 1_555
C9_8 N1_8 1_555 1_555
C10_8 C9_8 1_555 1_555
H4_8 C10_8 1_555 1_555
C11_8 C10_8 1_555 1_555
H5_8 C11_8 1_555 1_555
C12_8 C11_8 1_555 1_555
C13_8 C8_8 1_555 1_555
H6_8 C13_8 1_555 1_555
C14_8 C12_8 1_555 1_555
C15_8 N1_8 1_555 1_555
C16_8 C15_8 1_555 1_555
H7_8 C16_8 1_555 1_555
C17_8 C16_8 1_555 1_555
H8_8 C17_8 1_555 1_555
C18_8 C17_8 1_555 1_555
C19_8 C18_8 1_555 1_555
H9_8 C19_8 1_555 1_555
C20_8 C15_8 1_555 1_555
H10_8 C20_8 1_555 1_555
C21_8 C22_8 1_555 1_555
C22_8 N2_8 1_555 1_555
C23_8 C22_8 1_555 1_555
H11_8 C23_8 1_555 1_555
C24_8 C23_8 1_555 1_555
H12_8 C24_8 1_555 1_555
C25_8 C24_8 1_555 1_555
C26_8 C21_8 1_555 1_555
H13_8 C26_8 1_555 1_555
C27_8 C25_8 1_555 1_555
C28_8 H14_8 1_555 1_555
C29_8 C21_8 1_555 1_555
C30_8 N2_8 1_555 1_555
C31_8 C30_8 1_555 1_555
H15_8 C31_8 1_555 1_555
C32_8 C31_8 1_555 1_555
H16_8 C32_8 1_555 1_555
C33_8 C28_8 1_555 1_555
C34_8 C33_8 1_555 1_555
Cu3_8 O4_8 1_555 1_555
Cu6_8 O3_8 1_555 1_555
C6_8 C7_8 1_555 1_555
C8_8 C9_8 1_555 1_555
C12_8 C13_8 1_555 1_555
C19_8 C20_8 1_555 1_555
C25_8 C26_8 1_555 1_555
C28_8 C29_8 1_555 1_555
C29_8 C30_8 1_555 1_555
C32_8 C33_8 1_555 1_555
O9_8 Cu5_4 1_555 1_555
O10_8 Cu8_4 1_555 1_555
O11_8 Cu8_4 1_555 1_555
O12_8 Cu5_4 1_555 1_555
O13_7 Cu5_4 1_555 1_555
O14_7 Cu8_4 1_555 1_555
O10_8 H17_8 1_555 1_555
O10_8 H18_8 1_555 1_555
O9_8 H19_8 1_555 1_555
O9_8 H20_8 1_555 1_555
O9_9 Cu4 1_555 1_555
O10_9 Cu7 1_555 1_555
O11_9 Cu7 1_555 1_555
O12_9 Cu4 1_555 1_555
O10_9 H17_9 1_555 1_555
O10_9 H18_9 1_555 1_555
O9_9 H19_9 1_555 1_555
O9_9 H20_9 1_555 1_555
O15_3 C34_9 1_555 1_555
O16_3 C34_9 1_555 1_555
C28_9 H14_9 1_555 1_555
H15_9 C31_9 1_555 1_555
C32_9 C31_9 1_555 1_555
H16_9 C32_9 1_555 1_555
C33_9 C28_9 1_555 1_555
C34_9 C33_9 1_555 1_555
C32_9 C33_9 1_555 1_555
O1_9 C1_9 1_555 1_555
O2_9 C1_9 1_555 1_555
O3_9 C14_9 1_555 1_555
O4_9 C14_9 1_555 1_555
O13_7 C27_9 1_555 1_555
O14_7 C27_9 1_555 1_555
N1_9 C6_9 1_555 1_555
N2_9 C18_9 1_555 1_555
C1_9 C3_9 1_555 1_555
C2_9 H1_9 1_555 1_555
C3_9 C2_9 1_555 1_555
C4_9 C3_9 1_555 1_555
H2_9 C4_9 1_555 1_555
C5_9 C4_9 1_555 1_555
H3_9 C5_9 1_555 1_555
C6_9 C5_9 1_555 1_555
C7_9 C2_9 1_555 1_555
C8_9 C7_9 1_555 1_555
C9_9 N1_9 1_555 1_555
C10_9 C9_9 1_555 1_555
H4_9 C10_9 1_555 1_555
C11_9 C10_9 1_555 1_555
H5_9 C11_9 1_555 1_555
C12_9 C11_9 1_555 1_555
C13_9 C8_9 1_555 1_555
H6_9 C13_9 1_555 1_555
C14_9 C12_9 1_555 1_555
C15_9 N1_9 1_555 1_555
C16_9 C15_9 1_555 1_555
C17_9 C16_9 1_555 1_555
C18_9 C17_9 1_555 1_555
C19_9 C18_9 1_555 1_555
H9_9 C19_9 1_555 1_555
C20_9 C15_9 1_555 1_555
H10_9 C20_9 1_555 1_555
C21_9 C22_9 1_555 1_555
C22_9 N2_9 1_555 1_555
C23_9 C22_9 1_555 1_555
H11_9 C23_9 1_555 1_555
C24_9 C23_9 1_555 1_555
H12_9 C24_9 1_555 1_555
C25_9 C24_9 1_555 1_555
C26_9 C21_9 1_555 1_555
H13_9 C26_9 1_555 1_555
C27_9 C25_9 1_555 1_555
C29_9 C21_9 1_555 1_555
C30_9 N2_9 1_555 1_555
Cu3_9 O4_9 1_555 1_555
Cu6_9 O3_9 1_555 1_555
C6_9 C7_9 1_555 1_555
C8_9 C9_9 1_555 1_555
C12_9 C13_9 1_555 1_555
C19_9 C20_9 1_555 1_555
C25_9 C26_9 1_555 1_555
C29_9 C30_9 1_555 1_555
Cu4_2 O2_10 1_555 1_555
Cu7_2 O1_10 1_555 1_555
O1_10 C1_10 1_555 1_555
O2_10 C1_10 1_555 1_555
O3_10 C14_10 1_555 1_555
O4_10 C14_10 1_555 1_555
O13_6 C27_10 1_555 1_555
O14_6 C27_10 1_555 1_555
O7_6 C34_10 1_555 1_555
O8_6 C34_10 1_555 1_555
O9_10 Cu4_2 1_555 1_555
O10_10 Cu7_2 1_555 1_555
N1_10 C6_10 1_555 1_555
N2_10 C18_10 1_555 1_555
C1_10 C3_10 1_555 1_555
C2_10 H1_10 1_555 1_555
C3_10 C2_10 1_555 1_555
C4_10 C3_10 1_555 1_555
H2_10 C4_10 1_555 1_555
C5_10 C4_10 1_555 1_555
H3_10 C5_10 1_555 1_555
C6_10 C5_10 1_555 1_555
C7_10 C2_10 1_555 1_555
C8_10 C7_10 1_555 1_555
C9_10 N1_10 1_555 1_555
C10_10 C9_10 1_555 1_555
H4_10 C10_10 1_555 1_555
C11_10 C10_10 1_555 1_555
H5_10 C11_10 1_555 1_555
C12_10 C11_10 1_555 1_555
C13_10 C8_10 1_555 1_555
H6_10 C13_10 1_555 1_555
C14_10 C12_10 1_555 1_555
C15_10 N1_10 1_555 1_555
C16_10 C15_10 1_555 1_555
H7_10 C16_10 1_555 1_555
C17_10 C16_10 1_555 1_555
H8_10 C17_10 1_555 1_555
C18_10 C17_10 1_555 1_555
C19_10 C18_10 1_555 1_555
H9_10 C19_10 1_555 1_555
C20_10 C15_10 1_555 1_555
H10_10 C20_10 1_555 1_555
C21_10 C22_10 1_555 1_555
C22_10 N2_10 1_555 1_555
C23_10 C22_10 1_555 1_555
H11_10 C23_10 1_555 1_555
C24_10 C23_10 1_555 1_555
H12_10 C24_10 1_555 1_555
C25_10 C24_10 1_555 1_555
C26_10 C21_10 1_555 1_555
H13_10 C26_10 1_555 1_555
C27_10 C25_10 1_555 1_555
C28_10 H14_10 1_555 1_555
C29_10 C21_10 1_555 1_555
C30_10 N2_10 1_555 1_555
C31_10 C30_10 1_555 1_555
H15_10 C31_10 1_555 1_555
C32_10 C31_10 1_555 1_555
H16_10 C32_10 1_555 1_555
C33_10 C28_10 1_555 1_555
C34_10 C33_10 1_555 1_555
Cu3_10 O4_10 1_555 1_555
Cu4_3 O8_6 1_555 1_555
Cu6_10 O3_10 1_555 1_555
Cu7_3 O7_6 1_555 1_555
O11_10 Cu7_2 1_555 1_555
O12_10 Cu4_2 1_555 1_555
O15_6 Cu7_2 1_555 1_555
O16_6 Cu4_2 1_555 1_555
C6_10 C7_10 1_555 1_555
C8_10 C9_10 1_555 1_555
C12_10 C13_10 1_555 1_555
C19_10 C20_10 1_555 1_555
C25_10 C26_10 1_555 1_555
C28_10 C29_10 1_555 1_555
C29_10 C30_10 1_555 1_555
C32_10 C33_10 1_555 1_555
O10_10 H17_10 1_555 1_555
O10_10 H18_10 1_555 1_555
O9_10 H19_10 1_555 1_555
O9_10 H20_10 1_555 1_555
O1_11 C1_11 1_555 1_555
O2_11 C1_11 1_555 1_555
O3_11 C14_11 1_555 1_555
O4_11 C14_11 1_555 1_555
O13_3 C27_11 1_555 1_555
O14_3 C27_11 1_555 1_555
O15_6 C34_11 1_555 1_555
O16_6 C34_11 1_555 1_555
N1_11 C6_11 1_555 1_555
N2_11 C18_11 1_555 1_555
C1_11 C3_11 1_555 1_555
C2_11 H1_11 1_555 1_555
C3_11 C2_11 1_555 1_555
C4_11 C3_11 1_555 1_555
H2_11 C4_11 1_555 1_555
C5_11 C4_11 1_555 1_555
H3_11 C5_11 1_555 1_555
C6_11 C5_11 1_555 1_555
C7_11 C2_11 1_555 1_555
C8_11 C7_11 1_555 1_555
C9_11 N1_11 1_555 1_555
C10_11 C9_11 1_555 1_555
H4_11 C10_11 1_555 1_555
C11_11 C10_11 1_555 1_555
H5_11 C11_11 1_555 1_555
C12_11 C11_11 1_555 1_555
C13_11 C8_11 1_555 1_555
H6_11 C13_11 1_555 1_555
C14_11 C12_11 1_555 1_555
C15_11 N1_11 1_555 1_555
C16_11 C15_11 1_555 1_555
H7_11 C16_11 1_555 1_555
C17_11 C16_11 1_555 1_555
H8_11 C17_11 1_555 1_555
C18_11 C17_11 1_555 1_555
C19_11 C18_11 1_555 1_555
H9_11 C19_11 1_555 1_555
C20_11 C15_11 1_555 1_555
H10_11 C20_11 1_555 1_555
C21_11 C22_11 1_555 1_555
C22_11 N2_11 1_555 1_555
C23_11 C22_11 1_555 1_555
H11_11 C23_11 1_555 1_555
C24_11 C23_11 1_555 1_555
H12_11 C24_11 1_555 1_555
C25_11 C24_11 1_555 1_555
C26_11 C21_11 1_555 1_555
H13_11 C26_11 1_555 1_555
C27_11 C25_11 1_555 1_555
C28_11 H14_11 1_555 1_555
C29_11 C21_11 1_555 1_555
C30_11 N2_11 1_555 1_555
C31_11 C30_11 1_555 1_555
H15_11 C31_11 1_555 1_555
C32_11 C31_11 1_555 1_555
H16_11 C32_11 1_555 1_555
C33_11 C28_11 1_555 1_555
C34_11 C33_11 1_555 1_555
Cu3_11 O4_11 1_555 1_555
Cu6_11 O3_11 1_555 1_555
C6_11 C7_11 1_555 1_555
C8_11 C9_11 1_555 1_555
C12_11 C13_11 1_555 1_555
C19_11 C20_11 1_555 1_555
C25_11 C26_11 1_555 1_555
C28_11 C29_11 1_555 1_555
C29_11 C30_11 1_555 1_555
C32_11 C33_11 1_555 1_555
O9_11 Cu4_3 1_555 1_555
O10_11 Cu7_3 1_555 1_555
O11_11 Cu7_3 1_555 1_555
O12_11 Cu4_3 1_555 1_555
O10_11 H17_11 1_555 1_555
O10_11 H18_11 1_555 1_555
O9_11 H19_11 1_555 1_555
O9_11 H20_11 1_555 1_555
O15 C34_12 1_555 1_555
O16 C34_12 1_555 1_555
C28_12 H14_12 1_555 1_555
H15_12 C31_12 1_555 1_555
C32_12 C31_12 1_555 1_555
H16_12 C32_12 1_555 1_555
C33_12 C28_12 1_555 1_555
C34_12 C33_12 1_555 1_555
C32_12 C33_12 1_555 1_555
O9_12 Cu5 1_555 1_555
O10_12 Cu8 1_555 1_555
O11_12 Cu8 1_555 1_555
O12_12 Cu5 1_555 1_555
O10_12 H17_12 1_555 1_555
O10_12 H18_12 1_555 1_555
O9_12 H19_12 1_555 1_555
O9_12 H20_12 1_555 1_555
O1_12 C1_12 1_555 1_555
O2_12 C1_12 1_555 1_555
O3_12 C14_12 1_555 1_555
O4_12 C14_12 1_555 1_555
O13_4 C27_12 1_555 1_555
O14_4 C27_12 1_555 1_555
N1_12 C6_12 1_555 1_555
N2_12 C18_12 1_555 1_555
C1_12 C3_12 1_555 1_555
C2_12 H1_12 1_555 1_555
C3_12 C2_12 1_555 1_555
C4_12 C3_12 1_555 1_555
H2_12 C4_12 1_555 1_555
C5_12 C4_12 1_555 1_555
H3_12 C5_12 1_555 1_555
C6_12 C5_12 1_555 1_555
C7_12 C2_12 1_555 1_555
C8_12 C7_12 1_555 1_555
C9_12 N1_12 1_555 1_555
C10_12 C9_12 1_555 1_555
H4_12 C10_12 1_555 1_555
C11_12 C10_12 1_555 1_555
H5_12 C11_12 1_555 1_555
C12_12 C11_12 1_555 1_555
C13_12 C8_12 1_555 1_555
H6_12 C13_12 1_555 1_555
C14_12 C12_12 1_555 1_555
C15_12 N1_12 1_555 1_555
C16_12 C15_12 1_555 1_555
C17_12 C16_12 1_555 1_555
C18_12 C17_12 1_555 1_555
C19_12 C18_12 1_555 1_555
H9_12 C19_12 1_555 1_555
C20_12 C15_12 1_555 1_555
H10_12 C20_12 1_555 1_555
C21_12 C22_12 1_555 1_555
C22_12 N2_12 1_555 1_555
C23_12 C22_12 1_555 1_555
H11_12 C23_12 1_555 1_555
C24_12 C23_12 1_555 1_555
H12_12 C24_12 1_555 1_555
C25_12 C24_12 1_555 1_555
C26_12 C21_12 1_555 1_555
H13_12 C26_12 1_555 1_555
C27_12 C25_12 1_555 1_555
C29_12 C21_12 1_555 1_555
C30_12 N2_12 1_555 1_555
Cu3_12 O4_12 1_555 1_555
Cu6_12 O3_12 1_555 1_555
C6_12 C7_12 1_555 1_555
C8_12 C9_12 1_555 1_555
C12_12 C13_12 1_555 1_555
C19_12 C20_12 1_555 1_555
C25_12 C26_12 1_555 1_555
C29_12 C30_12 1_555 1_555
O7_7 C34_13 1_555 1_555
O8_7 C34_13 1_555 1_555
C28_13 H14_13 1_555 1_555
H15_13 C31_13 1_555 1_555
C32_13 C31_13 1_555 1_555
H16_13 C32_13 1_555 1_555
C33_13 C28_13 1_555 1_555
C34_13 C33_13 1_555 1_555
Cu3_7 O8_7 1_555 1_555
Cu6_7 O7_7 1_555 1_555
C32_13 C33_13 1_555 1_555
Cu3_5 O2_13 1_555 1_555
Cu6_5 O1_13 1_555 1_555
O1_13 C1_13 1_555 1_555
O2_13 C1_13 1_555 1_555
O11_4 C14_13 1_555 1_555
O12_4 C14_13 1_555 1_555
O5_6 C27_13 1_555 1_555
O6_6 C27_13 1_555 1_555
O9_13 Cu3_5 1_555 1_555
O10_13 Cu6_5 1_555 1_555
N1_13 C6_13 1_555 1_555
N2_13 C18_13 1_555 1_555
C1_13 C3_13 1_555 1_555
C2_13 H1_13 1_555 1_555
C3_13 C2_13 1_555 1_555
C4_13 C3_13 1_555 1_555
H2_13 C4_13 1_555 1_555
C5_13 C4_13 1_555 1_555
H3_13 C5_13 1_555 1_555
C6_13 C5_13 1_555 1_555
C7_13 C2_13 1_555 1_555
C8_13 C7_13 1_555 1_555
C9_13 N1_13 1_555 1_555
C10_13 C9_13 1_555 1_555
H4_13 C10_13 1_555 1_555
C11_13 C10_13 1_555 1_555
H5_13 C11_13 1_555 1_555
C12_13 C11_13 1_555 1_555
C13_13 C8_13 1_555 1_555
H6_13 C13_13 1_555 1_555
C14_13 C12_13 1_555 1_555
C15_13 N1_13 1_555 1_555
C16_13 C15_13 1_555 1_555
C17_13 C16_13 1_555 1_555
C18_13 C17_13 1_555 1_555
C19_13 C18_13 1_555 1_555
H9_13 C19_13 1_555 1_555
C20_13 C15_13 1_555 1_555
H10_13 C20_13 1_555 1_555
C21_13 C22_13 1_555 1_555
C22_13 N2_13 1_555 1_555
C23_13 C22_13 1_555 1_555
H11_13 C23_13 1_555 1_555
C24_13 C23_13 1_555 1_555
H12_13 C24_13 1_555 1_555
C25_13 C24_13 1_555 1_555
C26_13 C21_13 1_555 1_555
H13_13 C26_13 1_555 1_555
C27_13 C25_13 1_555 1_555
C29_13 C21_13 1_555 1_555
C30_13 N2_13 1_555 1_555
O15_7 Cu6_5 1_555 1_555
O16_7 Cu3_5 1_555 1_555
C6_13 C7_13 1_555 1_555
C8_13 C9_13 1_555 1_555
C12_13 C13_13 1_555 1_555
C19_13 C20_13 1_555 1_555
C25_13 C26_13 1_555 1_555
C29_13 C30_13 1_555 1_555
O10_13 H17_13 1_555 1_555
O10_13 H18_13 1_555 1_555
O9_13 H19_13 1_555 1_555
O9_13 H20_13 1_555 1_555
O7_8 C34_14 1_555 1_555
O8_8 C34_14 1_555 1_555
C28_14 H14_14 1_555 1_555
H15_14 C31_14 1_555 1_555
C32_14 C31_14 1_555 1_555
H16_14 C32_14 1_555 1_555
C33_14 C28_14 1_555 1_555
C34_14 C33_14 1_555 1_555
Cu3_9 O8_8 1_555 1_555
Cu6_9 O7_8 1_555 1_555
C32_14 C33_14 1_555 1_555
Cu3_6 O2_14 1_555 1_555
Cu6_6 O1_14 1_555 1_555
O1_14 C1_14 1_555 1_555
O2_14 C1_14 1_555 1_555
O11_11 C14_14 1_555 1_555
O12_11 C14_14 1_555 1_555
O5_7 C27_14 1_555 1_555
O6_7 C27_14 1_555 1_555
O9_14 Cu3_6 1_555 1_555
O10_14 Cu6_6 1_555 1_555
N1_14 C6_14 1_555 1_555
N2_14 C18_14 1_555 1_555
C1_14 C3_14 1_555 1_555
C2_14 H1_14 1_555 1_555
C3_14 C2_14 1_555 1_555
C4_14 C3_14 1_555 1_555
H2_14 C4_14 1_555 1_555
C5_14 C4_14 1_555 1_555
H3_14 C5_14 1_555 1_555
C6_14 C5_14 1_555 1_555
C7_14 C2_14 1_555 1_555
C8_14 C7_14 1_555 1_555
C9_14 N1_14 1_555 1_555
C10_14 C9_14 1_555 1_555
H4_14 C10_14 1_555 1_555
C11_14 C10_14 1_555 1_555
H5_14 C11_14 1_555 1_555
C12_14 C11_14 1_555 1_555
C13_14 C8_14 1_555 1_555
H6_14 C13_14 1_555 1_555
C14_14 C12_14 1_555 1_555
C15_14 N1_14 1_555 1_555
C16_14 C15_14 1_555 1_555
C17_14 C16_14 1_555 1_555
C18_14 C17_14 1_555 1_555
C19_14 C18_14 1_555 1_555
H9_14 C19_14 1_555 1_555
C20_14 C15_14 1_555 1_555
H10_14 C20_14 1_555 1_555
C21_14 C22_14 1_555 1_555
C22_14 N2_14 1_555 1_555
C23_14 C22_14 1_555 1_555
H11_14 C23_14 1_555 1_555
C24_14 C23_14 1_555 1_555
H12_14 C24_14 1_555 1_555
C25_14 C24_14 1_555 1_555
C26_14 C21_14 1_555 1_555
H13_14 C26_14 1_555 1_555
C27_14 C25_14 1_555 1_555
C29_14 C21_14 1_555 1_555
C30_14 N2_14 1_555 1_555
O15_8 Cu6_6 1_555 1_555
O16_8 Cu3_6 1_555 1_555
C6_14 C7_14 1_555 1_555
C8_14 C9_14 1_555 1_555
C12_14 C13_14 1_555 1_555
C19_14 C20_14 1_555 1_555
C25_14 C26_14 1_555 1_555
C29_14 C30_14 1_555 1_555
O10_14 H17_14 1_555 1_555
O10_14 H18_14 1_555 1_555
O9_14 H19_14 1_555 1_555
O9_14 H20_14 1_555 1_555
O7_9 C34_15 1_555 1_555
O8_9 C34_15 1_555 1_555
C28_15 H14_15 1_555 1_555
H15_15 C31_15 1_555 1_555
C32_15 C31_15 1_555 1_555
H16_15 C32_15 1_555 1_555
C33_15 C28_15 1_555 1_555
C34_15 C33_15 1_555 1_555
Cu3_12 O8_9 1_555 1_555
Cu6_12 O7_9 1_555 1_555
C32_15 C33_15 1_555 1_555
Cu3_10 O2_15 1_555 1_555
Cu6_10 O1_15 1_555 1_555
O1_15 C1_15 1_555 1_555
O2_15 C1_15 1_555 1_555
O11_8 C14_15 1_555 1_555
O12_8 C14_15 1_555 1_555
O5_8 C27_15 1_555 1_555
O6_8 C27_15 1_555 1_555
O9_15 Cu3_10 1_555 1_555
O10_15 Cu6_10 1_555 1_555
N1_15 C6_15 1_555 1_555
N2_15 C18_15 1_555 1_555
C1_15 C3_15 1_555 1_555
C2_15 H1_15 1_555 1_555
C3_15 C2_15 1_555 1_555
C4_15 C3_15 1_555 1_555
H2_15 C4_15 1_555 1_555
C5_15 C4_15 1_555 1_555
H3_15 C5_15 1_555 1_555
C6_15 C5_15 1_555 1_555
C7_15 C2_15 1_555 1_555
C8_15 C7_15 1_555 1_555
C9_15 N1_15 1_555 1_555
C10_15 C9_15 1_555 1_555
H4_15 C10_15 1_555 1_555
C11_15 C10_15 1_555 1_555
H5_15 C11_15 1_555 1_555
C12_15 C11_15 1_555 1_555
C13_15 C8_15 1_555 1_555
H6_15 C13_15 1_555 1_555
C14_15 C12_15 1_555 1_555
C15_15 N1_15 1_555 1_555
C16_15 C15_15 1_555 1_555
C17_15 C16_15 1_555 1_555
C18_15 C17_15 1_555 1_555
C19_15 C18_15 1_555 1_555
H9_15 C19_15 1_555 1_555
C20_15 C15_15 1_555 1_555
H10_15 C20_15 1_555 1_555
C21_15 C22_15 1_555 1_555
C22_15 N2_15 1_555 1_555
C23_15 C22_15 1_555 1_555
H11_15 C23_15 1_555 1_555
C24_15 C23_15 1_555 1_555
H12_15 C24_15 1_555 1_555
C25_15 C24_15 1_555 1_555
C26_15 C21_15 1_555 1_555
H13_15 C26_15 1_555 1_555
C27_15 C25_15 1_555 1_555
C29_15 C21_15 1_555 1_555
C30_15 N2_15 1_555 1_555
O15_9 Cu6_10 1_555 1_555
O16_9 Cu3_10 1_555 1_555
C6_15 C7_15 1_555 1_555
C8_15 C9_15 1_555 1_555
C12_15 C13_15 1_555 1_555
C19_15 C20_15 1_555 1_555
C25_15 C26_15 1_555 1_555
C29_15 C30_15 1_555 1_555
O10_15 H17_15 1_555 1_555
O10_15 H18_15 1_555 1_555
O9_15 H19_15 1_555 1_555
O9_15 H20_15 1_555 1_555
O9_16 Cu3 1_555 1_555
O10_16 Cu6 1_555 1_555
O13_11 Cu3 1_555 1_555
O14_11 Cu6 1_555 1_555
O15_10 Cu6 1_555 1_555
O16_10 Cu3 1_555 1_555
O10_16 H17_16 1_555 1_555
O10_16 H18_16 1_555 1_555
O9_16 H19_16 1_555 1_555
O9_16 H20_16 1_555 1_555
O1_16 C1_16 1_555 1_555
O2_16 C1_16 1_555 1_555
O11_5 C14_16 1_555 1_555
O12_5 C14_16 1_555 1_555
O13_9 C27_16 1_555 1_555
O14_9 C27_16 1_555 1_555
O7_10 C34_16 1_555 1_555
O8_10 C34_16 1_555 1_555
N1_16 C6_16 1_555 1_555
N2_16 C18_16 1_555 1_555
C1_16 C3_16 1_555 1_555
C2_16 H1_16 1_555 1_555
C3_16 C2_16 1_555 1_555
C4_16 C3_16 1_555 1_555
H2_16 C4_16 1_555 1_555
C5_16 C4_16 1_555 1_555
H3_16 C5_16 1_555 1_555
C6_16 C5_16 1_555 1_555
C7_16 C2_16 1_555 1_555
C8_16 C7_16 1_555 1_555
C9_16 N1_16 1_555 1_555
C10_16 C9_16 1_555 1_555
H4_16 C10_16 1_555 1_555
C11_16 C10_16 1_555 1_555
H5_16 C11_16 1_555 1_555
C12_16 C11_16 1_555 1_555
C13_16 C8_16 1_555 1_555
H6_16 C13_16 1_555 1_555
C14_16 C12_16 1_555 1_555
C15_16 N1_16 1_555 1_555
C16_16 C15_16 1_555 1_555
H7_16 C16_16 1_555 1_555
C17_16 C16_16 1_555 1_555
H8_16 C17_16 1_555 1_555
C18_16 C17_16 1_555 1_555
C19_16 C18_16 1_555 1_555
H9_16 C19_16 1_555 1_555
C20_16 C15_16 1_555 1_555
H10_16 C20_16 1_555 1_555
C21_16 C22_16 1_555 1_555
C22_16 N2_16 1_555 1_555
C23_16 C22_16 1_555 1_555
H11_16 C23_16 1_555 1_555
C24_16 C23_16 1_555 1_555
H12_16 C24_16 1_555 1_555
C25_16 C24_16 1_555 1_555
C26_16 C21_16 1_555 1_555
H13_16 C26_16 1_555 1_555
C27_16 C25_16 1_555 1_555
C28_16 H14_16 1_555 1_555
C29_16 C21_16 1_555 1_555
C30_16 N2_16 1_555 1_555
C31_16 C30_16 1_555 1_555
H15_16 C31_16 1_555 1_555
C32_16 C31_16 1_555 1_555
H16_16 C32_16 1_555 1_555
C33_16 C28_16 1_555 1_555
C34_16 C33_16 1_555 1_555
Cu3_11 O8_10 1_555 1_555
Cu6_11 O7_10 1_555 1_555
C6_16 C7_16 1_555 1_555
C8_16 C9_16 1_555 1_555
C12_16 C13_16 1_555 1_555
C19_16 C20_16 1_555 1_555
C25_16 C26_16 1_555 1_555
C28_16 C29_16 1_555 1_555
C29_16 C30_16 1_555 1_555
C32_16 C33_16 1_555 1_555
Cu3_4 O2_17 1_555 1_555
Cu6_4 O1_17 1_555 1_555
O1_17 C1_17 1_555 1_555
O2_17 C1_17 1_555 1_555
O11 C14_17 1_555 1_555
O12 C14_17 1_555 1_555
O5_9 C27_17 1_555 1_555
O6_9 C27_17 1_555 1_555
O7_11 C34_17 1_555 1_555
O8_11 C34_17 1_555 1_555
O9_17 Cu3_4 1_555 1_555
O10_17 Cu6_4 1_555 1_555
N1_17 C6_17 1_555 1_555
N2_17 C18_17 1_555 1_555
C1_17 C3_17 1_555 1_555
C2_17 H1_17 1_555 1_555
C3_17 C2_17 1_555 1_555
C4_17 C3_17 1_555 1_555
H2_17 C4_17 1_555 1_555
C5_17 C4_17 1_555 1_555
H3_17 C5_17 1_555 1_555
C6_17 C5_17 1_555 1_555
C7_17 C2_17 1_555 1_555
C8_17 C7_17 1_555 1_555
C9_17 N1_17 1_555 1_555
C10_17 C9_17 1_555 1_555
H4_17 C10_17 1_555 1_555
C11_17 C10_17 1_555 1_555
H5_17 C11_17 1_555 1_555
C12_17 C11_17 1_555 1_555
C13_17 C8_17 1_555 1_555
H6_17 C13_17 1_555 1_555
C14_17 C12_17 1_555 1_555
C15_17 N1_17 1_555 1_555
C16_17 C15_17 1_555 1_555
H7_17 C16_17 1_555 1_555
C17_17 C16_17 1_555 1_555
H8_17 C17_17 1_555 1_555
C18_17 C17_17 1_555 1_555
C19_17 C18_17 1_555 1_555
H9_17 C19_17 1_555 1_555
C20_17 C15_17 1_555 1_555
H10_17 C20_17 1_555 1_555
C21_17 C22_17 1_555 1_555
C22_17 N2_17 1_555 1_555
C23_17 C22_17 1_555 1_555
H11_17 C23_17 1_555 1_555
C24_17 C23_17 1_555 1_555
H12_17 C24_17 1_555 1_555
C25_17 C24_17 1_555 1_555
C26_17 C21_17 1_555 1_555
H13_17 C26_17 1_555 1_555
C27_17 C25_17 1_555 1_555
C28_17 H14_17 1_555 1_555
C29_17 C21_17 1_555 1_555
C30_17 N2_17 1_555 1_555
C31_17 C30_17 1_555 1_555
H15_17 C31_17 1_555 1_555
C32_17 C31_17 1_555 1_555
H16_17 C32_17 1_555 1_555
C33_17 C28_17 1_555 1_555
C34_17 C33_17 1_555 1_555
Cu3_8 O5_9 1_555 1_555
Cu3_3 O8_11 1_555 1_555
Cu6_8 O6_9 1_555 1_555
Cu6_3 O7_11 1_555 1_555
O13_12 Cu3_4 1_555 1_555
O14_12 Cu6_4 1_555 1_555
O15_11 Cu6_4 1_555 1_555
O16_11 Cu3_4 1_555 1_555
C6_17 C7_17 1_555 1_555
C8_17 C9_17 1_555 1_555
C12_17 C13_17 1_555 1_555
C19_17 C20_17 1_555 1_555
C25_17 C26_17 1_555 1_555
C28_17 C29_17 1_555 1_555
C29_17 C30_17 1_555 1_555
C32_17 C33_17 1_555 1_555
O10_17 H17_17 1_555 1_555
O10_17 H18_17 1_555 1_555
O9_17 H19_17 1_555 1_555
O9_17 H20_17 1_555 1_555
Cu3_11 O2_18 1_555 1_555
Cu6_11 O1_18 1_555 1_555
O1_18 C1_18 1_555 1_555
O2_18 C1_18 1_555 1_555
O11_2 C14_18 1_555 1_555
O12_2 C14_18 1_555 1_555
O13_12 C27_18 1_555 1_555
O14_12 C27_18 1_555 1_555
O15_10 C34_18 1_555 1_555
O16_10 C34_18 1_555 1_555
O9_18 Cu3_11 1_555 1_555
O10_18 Cu6_11 1_555 1_555
N1_18 C6_18 1_555 1_555
N2_18 C18_18 1_555 1_555
C1_18 C3_18 1_555 1_555
C2_18 H1_18 1_555 1_555
C3_18 C2_18 1_555 1_555
C4_18 C3_18 1_555 1_555
H2_18 C4_18 1_555 1_555
C5_18 C4_18 1_555 1_555
H3_18 C5_18 1_555 1_555
C6_18 C5_18 1_555 1_555
C7_18 C2_18 1_555 1_555
C8_18 C7_18 1_555 1_555
C9_18 N1_18 1_555 1_555
C10_18 C9_18 1_555 1_555
H4_18 C10_18 1_555 1_555
C11_18 C10_18 1_555 1_555
H5_18 C11_18 1_555 1_555
C12_18 C11_18 1_555 1_555
C13_18 C8_18 1_555 1_555
H6_18 C13_18 1_555 1_555
C14_18 C12_18 1_555 1_555
C15_18 N1_18 1_555 1_555
C16_18 C15_18 1_555 1_555
H7_18 C16_18 1_555 1_555
C17_18 C16_18 1_555 1_555
H8_18 C17_18 1_555 1_555
C18_18 C17_18 1_555 1_555
C19_18 C18_18 1_555 1_555
H9_18 C19_18 1_555 1_555
C20_18 C15_18 1_555 1_555
H10_18 C20_18 1_555 1_555
C21_18 C22_18 1_555 1_555
C22_18 N2_18 1_555 1_555
C23_18 C22_18 1_555 1_555
H11_18 C23_18 1_555 1_555
C24_18 C23_18 1_555 1_555
H12_18 C24_18 1_555 1_555
C25_18 C24_18 1_555 1_555
C26_18 C21_18 1_555 1_555
H13_18 C26_18 1_555 1_555
C27_18 C25_18 1_555 1_555
C28_18 H14_18 1_555 1_555
C29_18 C21_18 1_555 1_555
C30_18 N2_18 1_555 1_555
C31_18 C30_18 1_555 1_555
H15_18 C31_18 1_555 1_555
C32_18 C31_18 1_555 1_555
H16_18 C32_18 1_555 1_555
C33_18 C28_18 1_555 1_555
C34_18 C33_18 1_555 1_555
O13_13 Cu3_11 1_555 1_555
O14_13 Cu6_11 1_555 1_555
C6_18 C7_18 1_555 1_555
C8_18 C9_18 1_555 1_555
C12_18 C13_18 1_555 1_555
C19_18 C20_18 1_555 1_555
C25_18 C26_18 1_555 1_555
C28_18 C29_18 1_555 1_555
C29_18 C30_18 1_555 1_555
C32_18 C33_18 1_555 1_555
O10_18 H17_18 1_555 1_555
O10_18 H18_18 1_555 1_555
O9_18 H19_18 1_555 1_555
O9_18 H20_18 1_555 1_555
O1_19 C1_19 1_555 1_555
O2_19 C1_19 1_555 1_555
O11_12 C14_19 1_555 1_555
O12_12 C14_19 1_555 1_555
O5_10 C27_19 1_555 1_555
O6_10 C27_19 1_555 1_555
N1_19 C6_19 1_555 1_555
N2_19 C18_19 1_555 1_555
C1_19 C3_19 1_555 1_555
C2_19 H1_19 1_555 1_555
C3_19 C2_19 1_555 1_555
C4_19 C3_19 1_555 1_555
H2_19 C4_19 1_555 1_555
C5_19 C4_19 1_555 1_555
H3_19 C5_19 1_555 1_555
C6_19 C5_19 1_555 1_555
C7_19 C2_19 1_555 1_555
C8_19 C7_19 1_555 1_555
C9_19 N1_19 1_555 1_555
C10_19 C9_19 1_555 1_555
H4_19 C10_19 1_555 1_555
C11_19 C10_19 1_555 1_555
H5_19 C11_19 1_555 1_555
C12_19 C11_19 1_555 1_555
C13_19 C8_19 1_555 1_555
H6_19 C13_19 1_555 1_555
C14_19 C12_19 1_555 1_555
C15_19 N1_19 1_555 1_555
C16_19 C15_19 1_555 1_555
C17_19 C16_19 1_555 1_555
C18_19 C17_19 1_555 1_555
C19_19 C18_19 1_555 1_555
H9_19 C19_19 1_555 1_555
C20_19 C15_19 1_555 1_555
H10_19 C20_19 1_555 1_555
C21_19 C22_19 1_555 1_555
C22_19 N2_19 1_555 1_555
C23_19 C22_19 1_555 1_555
H11_19 C23_19 1_555 1_555
C24_19 C23_19 1_555 1_555
H12_19 C24_19 1_555 1_555
C25_19 C24_19 1_555 1_555
C26_19 C21_19 1_555 1_555
H13_19 C26_19 1_555 1_555
C27_19 C25_19 1_555 1_555
C29_19 C21_19 1_555 1_555
C30_19 N2_19 1_555 1_555
Cu3_2 O5_10 1_555 1_555
Cu6_2 O6_10 1_555 1_555
C6_19 C7_19 1_555 1_555
C8_19 C9_19 1_555 1_555
C12_19 C13_19 1_555 1_555
C19_19 C20_19 1_555 1_555
C25_19 C26_19 1_555 1_555
C29_19 C30_19 1_555 1_555
O9_19 Cu3_9 1_555 1_555
O10_19 Cu6_9 1_555 1_555
O10_19 H17_19 1_555 1_555
O10_19 H18_19 1_555 1_555
O9_19 H19_19 1_555 1_555
O9_19 H20_19 1_555 1_555
O15_8 C34_19 1_555 1_555
O16_8 C34_19 1_555 1_555
C28_19 H14_19 1_555 1_555
H15_19 C31_19 1_555 1_555
C32_19 C31_19 1_555 1_555
H16_19 C32_19 1_555 1_555
C33_19 C28_19 1_555 1_555
C34_19 C33_19 1_555 1_555
C32_19 C33_19 1_555 1_555
O9_20 Cu3_3 1_555 1_555
O10_20 Cu6_3 1_555 1_555
O13_14 Cu3_3 1_555 1_555
O14_14 Cu6_3 1_555 1_555
O10_20 H17_20 1_555 1_555
O10_20 H18_20 1_555 1_555
O9_20 H19_20 1_555 1_555
O9_20 H20_20 1_555 1_555
O1_20 C1_20 1_555 1_555
O2_20 C1_20 1_555 1_555
O11_10 C14_20 1_555 1_555
O12_10 C14_20 1_555 1_555
O13_8 C27_20 1_555 1_555
O14_8 C27_20 1_555 1_555
O15_11 C34_20 1_555 1_555
O16_11 C34_20 1_555 1_555
N1_20 C6_20 1_555 1_555
N2_20 C18_20 1_555 1_555
C1_20 C3_20 1_555 1_555
C2_20 H1_20 1_555 1_555
C3_20 C2_20 1_555 1_555
C4_20 C3_20 1_555 1_555
H2_20 C4_20 1_555 1_555
C5_20 C4_20 1_555 1_555
H3_20 C5_20 1_555 1_555
C6_20 C5_20 1_555 1_555
C7_20 C2_20 1_555 1_555
C8_20 C7_20 1_555 1_555
C9_20 N1_20 1_555 1_555
C10_20 C9_20 1_555 1_555
H4_20 C10_20 1_555 1_555
C11_20 C10_20 1_555 1_555
H5_20 C11_20 1_555 1_555
C12_20 C11_20 1_555 1_555
C13_20 C8_20 1_555 1_555
H6_20 C13_20 1_555 1_555
C14_20 C12_20 1_555 1_555
C15_20 N1_20 1_555 1_555
C16_20 C15_20 1_555 1_555
H7_20 C16_20 1_555 1_555
C17_20 C16_20 1_555 1_555
H8_20 C17_20 1_555 1_555
C18_20 C17_20 1_555 1_555
C19_20 C18_20 1_555 1_555
H9_20 C19_20 1_555 1_555
C20_20 C15_20 1_555 1_555
H10_20 C20_20 1_555 1_555
C21_20 C22_20 1_555 1_555
C22_20 N2_20 1_555 1_555
C23_20 C22_20 1_555 1_555
H11_20 C23_20 1_555 1_555
C24_20 C23_20 1_555 1_555
H12_20 C24_20 1_555 1_555
C25_20 C24_20 1_555 1_555
C26_20 C21_20 1_555 1_555
H13_20 C26_20 1_555 1_555
C27_20 C25_20 1_555 1_555
C28_20 H14_20 1_555 1_555
C29_20 C21_20 1_555 1_555
C30_20 N2_20 1_555 1_555
C31_20 C30_20 1_555 1_555
H15_20 C31_20 1_555 1_555
C32_20 C31_20 1_555 1_555
H16_20 C32_20 1_555 1_555
C33_20 C28_20 1_555 1_555
C34_20 C33_20 1_555 1_555
C6_20 C7_20 1_555 1_555
C8_20 C9_20 1_555 1_555
C12_20 C13_20 1_555 1_555
C19_20 C20_20 1_555 1_555
C25_20 C26_20 1_555 1_555
C28_20 C29_20 1_555 1_555
C29_20 C30_20 1_555 1_555
C32_20 C33_20 1_555 1_555
O1_21 C1_21 1_555 1_555
O2_21 C1_21 1_555 1_555
O11_7 C14_21 1_555 1_555
O12_7 C14_21 1_555 1_555
O13_14 C27_21 1_555 1_555
O14_14 C27_21 1_555 1_555
N1_21 C6_21 1_555 1_555
N2_21 C18_21 1_555 1_555
C1_21 C3_21 1_555 1_555
C2_21 H1_21 1_555 1_555
C3_21 C2_21 1_555 1_555
C4_21 C3_21 1_555 1_555
H2_21 C4_21 1_555 1_555
C5_21 C4_21 1_555 1_555
H3_21 C5_21 1_555 1_555
C6_21 C5_21 1_555 1_555
C7_21 C2_21 1_555 1_555
C8_21 C7_21 1_555 1_555
C9_21 N1_21 1_555 1_555
C10_21 C9_21 1_555 1_555
H4_21 C10_21 1_555 1_555
C11_21 C10_21 1_555 1_555
H5_21 C11_21 1_555 1_555
C12_21 C11_21 1_555 1_555
C13_21 C8_21 1_555 1_555
H6_21 C13_21 1_555 1_555
C14_21 C12_21 1_555 1_555
C15_21 N1_21 1_555 1_555
C16_21 C15_21 1_555 1_555
C17_21 C16_21 1_555 1_555
C18_21 C17_21 1_555 1_555
C19_21 C18_21 1_555 1_555
H9_21 C19_21 1_555 1_555
C20_21 C15_21 1_555 1_555
H10_21 C20_21 1_555 1_555
C21_21 C22_21 1_555 1_555
C22_21 N2_21 1_555 1_555
C23_21 C22_21 1_555 1_555
H11_21 C23_21 1_555 1_555
C24_21 C23_21 1_555 1_555
H12_21 C24_21 1_555 1_555
C25_21 C24_21 1_555 1_555
C26_21 C21_21 1_555 1_555
H13_21 C26_21 1_555 1_555
C27_21 C25_21 1_555 1_555
C29_21 C21_21 1_555 1_555
C30_21 N2_21 1_555 1_555
C6_21 C7_21 1_555 1_555
C8_21 C9_21 1_555 1_555
C12_21 C13_21 1_555 1_555
C19_21 C20_21 1_555 1_555
C25_21 C26_21 1_555 1_555
C29_21 C30_21 1_555 1_555
O15_9 C34_21 1_555 1_555
O16_9 C34_21 1_555 1_555
C28_21 H14_21 1_555 1_555
H15_21 C31_21 1_555 1_555
C32_21 C31_21 1_555 1_555
H16_21 C32_21 1_555 1_555
C33_21 C28_21 1_555 1_555
C34_21 C33_21 1_555 1_555
C32_21 C33_21 1_555 1_555
O9_21 Cu3_12 1_555 1_555
O10_21 Cu6_12 1_555 1_555
O10_21 H17_21 1_555 1_555
O10_21 H18_21 1_555 1_555
O9_21 H19_21 1_555 1_555
O9_21 H20_21 1_555 1_555
Cu3_8 O2_22 1_555 1_555
Cu6_8 O1_22 1_555 1_555
O1_22 C1_22 1_555 1_555
O2_22 C1_22 1_555 1_555
O11_3 C14_22 1_555 1_555
O12_3 C14_22 1_555 1_555
O13_13 C27_22 1_555 1_555
O14_13 C27_22 1_555 1_555
O7_12 C34_22 1_555 1_555
O8_12 C34_22 1_555 1_555
O9_22 Cu3_8 1_555 1_555
O10_22 Cu6_8 1_555 1_555
N1_22 C6_22 1_555 1_555
N2_22 C18_22 1_555 1_555
C1_22 C3_22 1_555 1_555
C2_22 H1_22 1_555 1_555
C3_22 C2_22 1_555 1_555
C4_22 C3_22 1_555 1_555
H2_22 C4_22 1_555 1_555
C5_22 C4_22 1_555 1_555
H3_22 C5_22 1_555 1_555
C6_22 C5_22 1_555 1_555
C7_22 C2_22 1_555 1_555
C8_22 C7_22 1_555 1_555
C9_22 N1_22 1_555 1_555
C10_22 C9_22 1_555 1_555
H4_22 C10_22 1_555 1_555
C11_22 C10_22 1_555 1_555
H5_22 C11_22 1_555 1_555
C12_22 C11_22 1_555 1_555
C13_22 C8_22 1_555 1_555
H6_22 C13_22 1_555 1_555
C14_22 C12_22 1_555 1_555
C15_22 N1_22 1_555 1_555
C16_22 C15_22 1_555 1_555
H7_22 C16_22 1_555 1_555
C17_22 C16_22 1_555 1_555
H8_22 C17_22 1_555 1_555
C18_22 C17_22 1_555 1_555
C19_22 C18_22 1_555 1_555
H9_22 C19_22 1_555 1_555
C20_22 C15_22 1_555 1_555
H10_22 C20_22 1_555 1_555
C21_22 C22_22 1_555 1_555
C22_22 N2_22 1_555 1_555
C23_22 C22_22 1_555 1_555
H11_22 C23_22 1_555 1_555
C24_22 C23_22 1_555 1_555
H12_22 C24_22 1_555 1_555
C25_22 C24_22 1_555 1_555
C26_22 C21_22 1_555 1_555
H13_22 C26_22 1_555 1_555
C27_22 C25_22 1_555 1_555
C28_22 H14_22 1_555 1_555
C29_22 C21_22 1_555 1_555
C30_22 N2_22 1_555 1_555
C31_22 C30_22 1_555 1_555
H15_22 C31_22 1_555 1_555
C32_22 C31_22 1_555 1_555
H16_22 C32_22 1_555 1_555
C33_22 C28_22 1_555 1_555
C34_22 C33_22 1_555 1_555
Cu3_2 O8_12 1_555 1_555
Cu6_2 O7_12 1_555 1_555
O15_12 Cu6_8 1_555 1_555
O16_12 Cu3_8 1_555 1_555
C6_22 C7_22 1_555 1_555
C8_22 C9_22 1_555 1_555
C12_22 C13_22 1_555 1_555
C19_22 C20_22 1_555 1_555
C25_22 C26_22 1_555 1_555
C28_22 C29_22 1_555 1_555
C29_22 C30_22 1_555 1_555
C32_22 C33_22 1_555 1_555
O10_22 H17_22 1_555 1_555
O10_22 H18_22 1_555 1_555
O9_22 H19_22 1_555 1_555
O9_22 H20_22 1_555 1_555
O9_23 Cu3_2 1_555 1_555
O10_23 Cu6_2 1_555 1_555
O10_23 H17_23 1_555 1_555
O10_23 H18_23 1_555 1_555
O9_23 H19_23 1_555 1_555
O9_23 H20_23 1_555 1_555
O1_23 C1_23 1_555 1_555
O2_23 C1_23 1_555 1_555
O11_6 C14_23 1_555 1_555
O12_6 C14_23 1_555 1_555
O13_10 C27_23 1_555 1_555
O14_10 C27_23 1_555 1_555
O15_12 C34_23 1_555 1_555
O16_12 C34_23 1_555 1_555
N1_23 C6_23 1_555 1_555
N2_23 C18_23 1_555 1_555
C1_23 C3_23 1_555 1_555
C2_23 H1_23 1_555 1_555
C3_23 C2_23 1_555 1_555
C4_23 C3_23 1_555 1_555
H2_23 C4_23 1_555 1_555
C5_23 C4_23 1_555 1_555
H3_23 C5_23 1_555 1_555
C6_23 C5_23 1_555 1_555
C7_23 C2_23 1_555 1_555
C8_23 C7_23 1_555 1_555
C9_23 N1_23 1_555 1_555
C10_23 C9_23 1_555 1_555
H4_23 C10_23 1_555 1_555
C11_23 C10_23 1_555 1_555
H5_23 C11_23 1_555 1_555
C12_23 C11_23 1_555 1_555
C13_23 C8_23 1_555 1_555
H6_23 C13_23 1_555 1_555
C14_23 C12_23 1_555 1_555
C15_23 N1_23 1_555 1_555
C16_23 C15_23 1_555 1_555
H7_23 C16_23 1_555 1_555
C17_23 C16_23 1_555 1_555
H8_23 C17_23 1_555 1_555
C18_23 C17_23 1_555 1_555
C19_23 C18_23 1_555 1_555
H9_23 C19_23 1_555 1_555
C20_23 C15_23 1_555 1_555
H10_23 C20_23 1_555 1_555
C21_23 C22_23 1_555 1_555
C22_23 N2_23 1_555 1_555
C23_23 C22_23 1_555 1_555
H11_23 C23_23 1_555 1_555
C24_23 C23_23 1_555 1_555
H12_23 C24_23 1_555 1_555
C25_23 C24_23 1_555 1_555
C26_23 C21_23 1_555 1_555
H13_23 C26_23 1_555 1_555
C27_23 C25_23 1_555 1_555
C28_23 H14_23 1_555 1_555
C29_23 C21_23 1_555 1_555
C30_23 N2_23 1_555 1_555
C31_23 C30_23 1_555 1_555
H15_23 C31_23 1_555 1_555
C32_23 C31_23 1_555 1_555
H16_23 C32_23 1_555 1_555
C33_23 C28_23 1_555 1_555
C34_23 C33_23 1_555 1_555
C6_23 C7_23 1_555 1_555
C8_23 C9_23 1_555 1_555
C12_23 C13_23 1_555 1_555
C19_23 C20_23 1_555 1_555
C25_23 C26_23 1_555 1_555
C28_23 C29_23 1_555 1_555
C29_23 C30_23 1_555 1_555
C32_23 C33_23 1_555 1_555
O1_24 C1_24 1_555 1_555
O2_24 C1_24 1_555 1_555
O11_9 C14_24 1_555 1_555
O12_9 C14_24 1_555 1_555
O13_11 C27_24 1_555 1_555
O14_11 C27_24 1_555 1_555
N1_24 C6_24 1_555 1_555
N2_24 C18_24 1_555 1_555
C1_24 C3_24 1_555 1_555
C2_24 H1_24 1_555 1_555
C3_24 C2_24 1_555 1_555
C4_24 C3_24 1_555 1_555
H2_24 C4_24 1_555 1_555
C5_24 C4_24 1_555 1_555
H3_24 C5_24 1_555 1_555
C6_24 C5_24 1_555 1_555
C7_24 C2_24 1_555 1_555
C8_24 C7_24 1_555 1_555
C9_24 N1_24 1_555 1_555
C10_24 C9_24 1_555 1_555
H4_24 C10_24 1_555 1_555
C11_24 C10_24 1_555 1_555
H5_24 C11_24 1_555 1_555
C12_24 C11_24 1_555 1_555
C13_24 C8_24 1_555 1_555
H6_24 C13_24 1_555 1_555
C14_24 C12_24 1_555 1_555
C15_24 N1_24 1_555 1_555
C16_24 C15_24 1_555 1_555
C17_24 C16_24 1_555 1_555
C18_24 C17_24 1_555 1_555
C19_24 C18_24 1_555 1_555
H9_24 C19_24 1_555 1_555
C20_24 C15_24 1_555 1_555
H10_24 C20_24 1_555 1_555
C21_24 C22_24 1_555 1_555
C22_24 N2_24 1_555 1_555
C23_24 C22_24 1_555 1_555
H11_24 C23_24 1_555 1_555
C24_24 C23_24 1_555 1_555
H12_24 C24_24 1_555 1_555
C25_24 C24_24 1_555 1_555
C26_24 C21_24 1_555 1_555
H13_24 C26_24 1_555 1_555
C27_24 C25_24 1_555 1_555
C29_24 C21_24 1_555 1_555
C30_24 N2_24 1_555 1_555
C6_24 C7_24 1_555 1_555
C8_24 C9_24 1_555 1_555
C12_24 C13_24 1_555 1_555
C19_24 C20_24 1_555 1_555
C25_24 C26_24 1_555 1_555
C29_24 C30_24 1_555 1_555
O9_24 Cu3_7 1_555 1_555
O10_24 Cu6_7 1_555 1_555
O10_24 H17_24 1_555 1_555
O10_24 H18_24 1_555 1_555
O9_24 H19_24 1_555 1_555
O9_24 H20_24 1_555 1_555
O15_7 C34_24 1_555 1_555
O16_7 C34_24 1_555 1_555
C28_24 H14_24 1_555 1_555
H15_24 C31_24 1_555 1_555
C32_24 C31_24 1_555 1_555
H16_24 C32_24 1_555 1_555
C33_24 C28_24 1_555 1_555
C34_24 C33_24 1_555 1_555
C32_24 C33_24 1_555 1_555

#END
