
###############################################################################
#
# This file contains modified crystal structure data generated from the
# MOF subset of the Cambridge Structural Database (CSD) v543 
# hosted by the Cambridge Crystallographic Data Centre (CCDC).
#
# This work is licensed under the Creative Commons
# Attribution-NonCommercial-ShareAlike 4.0 International License.
# To view a copy of this license, visit
# http://creativecommons.org/licenses/by-nc-sa/4.0/
# or send a letter to
# Creative Commons, PO Box 1866, Mountain View, CA 94042, USA.
#
# CIF created using the CSD Python API on 29 September 2022
# The structure has been converted into the P1 space group
# The structure has a 3D framework
# The original CSD entry LELXEG is in the monoclinic crystal system
# The framework has been calculated to contain at least 10.0% void space
# The void calculation uses a probe of radius 1.32A, grid spacing 0.4
#
###############################################################################

data_LELXEG
_chemical_formula_moiety         '(C108 H64 Co8 N7 O40)n'
_symmetry_cell_setting           triclinic
_symmetry_space_group_name_H-M   'P 1'
_symmetry_Int_Tables_number      1
_space_group_name_Hall           'P 1'
loop_
_symmetry_equiv_pos_site_id
_symmetry_equiv_pos_as_xyz
1 x,y,z
_cell_length_a                   10.999(2)
_cell_length_b                   14.993(3)
_cell_length_c                   16.700(3)
_cell_angle_alpha                90
_cell_angle_beta                 95.57(3)
_cell_angle_gamma                90
_cell_volume                     2740.96
loop_
_atom_site_label
_atom_site_type_symbol
_atom_site_fract_x
_atom_site_fract_y
_atom_site_fract_z
O6 O 0.6513(2) 0.20477(15) 0.60542(13)
O7 O 0.51240(18) 0.26150(11) 0.67528(14)
O8 O 0.67435(16) 0.17763(11) 0.79772(10)
O9 O 0.58568(14) 0.09443(11) 0.88373(9)
C10 C 0.4686(2) 0.05370(14) 0.60436(13)
H7 H 0.4660 0.0747 0.5518
C11 C 0.5216(2) 0.10520(14) 0.66673(13)
C12 C 0.52712(19) 0.07326(13) 0.74578(13)
C16 C 0.5685(2) 0.19646(15) 0.64742(15)
C17 C 0.6006(2) 0.12066(13) 0.81329(13)
Co4 Co 0.72042(2) 0.116483(14) 0.965536(13)
Co8 Co 0.61432(2) 0.363460(16) 0.635270(14)
Co1 Co 0.22042(2) 0.383517(14) 0.465536(13)
Co2 Co 0.38568(2) 0.636540(16) 0.364730(14)
O1 O 0.24019(15) 0.49072(9) 0.53384(8)
O2 O 0.24060(16) 0.66866(12) 0.27170(10)
H1 H 0.242(3) 0.6371(14) 0.2292(11)
H2 H 0.259(4) 0.7215(9) 0.2595(19)
O3 O 0.27167(17) 0.56934(12) 0.42731(9)
O4 O 0.51737(16) 0.61703(13) 0.46121(10)
O5 O 0.62780(14) 0.66143(11) 0.56965(9)
O10 O 0.29785(18) 0.85952(10) 0.77758(10)
N1 N 0.15772(16) 0.29379(11) 0.54329(10)
C1 C 0.2265(2) 0.73664(14) 0.65384(13)
H3 H 0.1638 0.7536 0.6842
C2 C 0.2112(2) 0.66488(13) 0.60258(13)
H4 H 0.1376 0.6339 0.5982
C3 C 0.30399(19) 0.63787(13) 0.55710(12)
C4 C 0.41682(18) 0.68129(12) 0.56715(11)
C5 C 0.43047(19) 0.75437(13) 0.61838(12)
H5 H 0.5049 0.7842 0.6247
C6 C 0.33542(19) 0.78355(13) 0.66013(12)
C7 C 0.3480(2) 0.86063(13) 0.71653(13)
C8 C 0.4178(2) 0.94121(13) 0.69690(13)
C9 C 0.4192(2) 0.97107(14) 0.61926(13)
H6 H 0.3868 0.9358 0.5766
C13 C 0.4729(2) 0.99202(13) 0.75950(12)
H8 H 0.4735 0.9711 0.8120
C14 C 0.27295(18) 0.56042(13) 0.50153(12)
C15 C 0.52686(19) 0.65055(13) 0.52848(12)
C18 C 0.0449(2) 0.29577(17) 0.56412(14)
C19 C 0.0014(2) 0.23639(16) 0.61649(14)
C20 C 0.0768(2) 0.17148(13) 0.65230(12)
C21 C 0.1952(2) 0.17116(15) 0.63139(15)
H11 H 0.2504 0.1289 0.6538
C22 C 0.2320(2) 0.23233(15) 0.57811(15)
H12 H 0.3125 0.2308 0.5657
C25 C 0.0346(2) 0.10416(13) 0.70806(12)
C26 C 0.1120(2) 0.04137(17) 0.74598(15)
H15 H 0.1949 0.0431 0.7393
Co3 Co 0.77958(2) 0.616483(14) 0.534464(13)
O11 O 0.75981(15) 0.50928(9) 0.46616(8)
O12 O 0.75940(16) 0.33134(12) 0.72830(10)
H17 H 0.758(3) 0.3629(14) 0.7708(11)
H18 H 0.741(4) 0.2785(9) 0.7405(19)
O13 O 0.72833(17) 0.43066(12) 0.57269(9)
O14 O 0.48263(16) 0.38297(13) 0.53879(10)
O15 O 0.37220(14) 0.33857(11) 0.43035(9)
O18 O 0.48760(18) 0.73850(11) 0.32472(14)
O22 O 0.08568(14) 0.40557(11) 0.38373(9)
O23 O 0.91432(14) 0.59443(11) 0.61627(9)
O24 O 0.70215(18) 0.14048(10) 0.22242(10)
N3 N 0.65772(16) 0.20621(11) 0.04329(10)
N4 N 0.84228(16) 0.70621(11) 0.45671(10)
N5 N 0.45131(17) 0.52988(11) 0.30480(10)
N6 N 0.54869(17) 0.47012(11) 0.69520(10)
C28 C 0.7735(2) 0.26336(14) 0.34616(13)
H19 H 0.8362 0.2464 0.3158
C29 C 0.7888(2) 0.33512(13) 0.39742(13)
H20 H 0.8624 0.3661 0.4018
C30 C 0.69601(19) 0.36213(13) 0.44290(12)
C31 C 0.58318(18) 0.31871(12) 0.43285(11)
C32 C 0.56953(19) 0.24563(13) 0.38162(12)
H21 H 0.4951 0.2158 0.3753
C33 C 0.66458(19) 0.21645(13) 0.33987(12)
C34 C 0.6520(2) 0.13937(13) 0.28347(13)
C35 C 0.5822(2) 0.05879(13) 0.30310(13)
C36 C 0.5808(2) 0.02893(14) 0.38074(13)
H22 H 0.6132 0.0642 0.4234
C40 C 0.5271(2) 0.00798(13) 0.24050(12)
H24 H 0.5265 0.0289 0.1880
C41 C 0.72705(18) 0.43958(13) 0.49847(12)
C42 C 0.47314(19) 0.34945(13) 0.47152(12)
C45 C 0.5449(2) 0.20423(17) 0.06412(14)
H25 H 0.4924 0.1602 0.0420
C46 C 0.5014(2) 0.26361(16) 0.11649(14)
H26 H 0.4205 0.2602 0.1280
C47 C 0.5768(2) 0.32852(13) 0.15230(12)
C48 C 0.6952(2) 0.32884(15) 0.13139(15)
H27 H 0.7504 0.3711 0.1538
C49 C 0.7320(2) 0.26767(15) 0.07811(15)
H28 H 0.8125 0.2692 0.0657
C50 C 0.3779(2) 0.46770(15) 0.27179(16)
H29 H 0.2961 0.4695 0.2814
C51 C 0.4148(2) 0.40102(16) 0.22444(17)
H30 H 0.3587 0.3588 0.2031
C52 C 0.5346(2) 0.39584(13) 0.20806(12)
C53 C 0.6120(2) 0.45863(17) 0.24598(15)
H31 H 0.6949 0.4569 0.2393
C54 C 0.5681(2) 0.52345(17) 0.29334(15)
H32 H 0.6226 0.5645 0.3184
C27 C 0.0681(2) 0.97655(17) 0.79334(15)
H16 H 0.1226 0.9355 0.8184
Co5 Co 0.27958(2) 0.883517(14) 0.034464(13)
O16 O 0.3487(2) 0.79523(15) 0.39458(13)
O20 O 0.32565(16) 0.82237(11) 0.20228(10)
O21 O 0.41432(14) 0.90557(11) 0.11627(9)
C37 C 0.5314(2) 0.94630(14) 0.39564(13)
H23 H 0.5340 0.9253 0.4482
C38 C 0.4784(2) 0.89480(14) 0.33327(13)
C39 C 0.47288(19) 0.92674(13) 0.25422(13)
C43 C 0.4315(2) 0.80354(15) 0.35258(15)
C44 C 0.3994(2) 0.87934(13) 0.18671(13)
H9 H 0.9924 0.3398 0.5420
H10 H 0.9205 0.2398 0.6280
C23 C 0.8779(2) 0.03230(15) 0.77179(16)
H13 H 0.7961 0.0305 0.7814
C24 C 0.9148(2) 0.09898(16) 0.72444(17)
H14 H 0.8587 0.1412 0.7031
N2 N 0.95131(17) 0.97012(11) 0.80480(10)
Co9 Co 0.88568(2) 0.863460(16) 0.864730(14)
Co2_2 Co 0.11432(2) 0.136540(16) 0.135270(14)
O2_2 O 0.25940(16) 0.16866(12) 0.22830(10)
H1_2 H 0.258(3) 0.1371(14) 0.2708(11)
H2_2 H 0.241(4) 0.2215(9) 0.2405(19)
O3_2 O 0.22833(17) 0.06934(12) 0.07269(9)
O18_2 O 0.01240(18) 0.23850(11) 0.17528(14)
N5_2 N 0.04869(17) 0.02988(11) 0.19520(10)
O10_2 O 0.20215(18) 0.35952(10) 0.72242(10)
C1_2 C 0.2735(2) 0.23664(14) 0.84616(13)
H3_2 H 0.3362 0.2536 0.8158
C2_2 C 0.2888(2) 0.16488(13) 0.89742(13)
H4_2 H 0.3624 0.1339 0.9018
C3_2 C 0.19601(19) 0.13787(13) 0.94290(12)
C4_2 C 0.08318(18) 0.18129(12) 0.93285(11)
C5_2 C 0.06953(19) 0.25437(13) 0.88162(12)
C6_2 C 0.16458(19) 0.28355(13) 0.83987(12)
C7_2 C 0.1520(2) 0.36063(13) 0.78347(13)
C8_2 C 0.0822(2) 0.44121(13) 0.80310(13)
C9_2 C 0.0808(2) 0.47107(14) 0.88074(13)
H6_2 H 0.1132 0.4358 0.9234
C10_2 C 0.0314(2) 0.55370(14) 0.89564(13)
H7_2 H 0.0340 0.5747 0.9482
C13_2 C 0.0271(2) 0.49202(13) 0.74050(12)
H8_2 H 0.0265 0.4711 0.6880
C14_2 C 0.22705(18) 0.06042(13) 0.99847(12)
O15_2 O 0.12780(14) 0.83857(11) 0.06965(9)
O16_2 O 0.1513(2) 0.29523(15) 0.10542(13)
O20_2 O 0.17435(16) 0.32237(11) 0.29772(10)
H21_2 H 0.0049 0.7158 0.1247
C38_2 C 0.0216(2) 0.39480(14) 0.16673(13)
C39_2 C 0.02712(19) 0.42674(13) 0.24578(13)
C42_2 C 0.02686(19) 0.84945(13) 0.02848(12)
C43_2 C 0.0685(2) 0.30354(15) 0.14742(15)
C44_2 C 0.1006(2) 0.37934(13) 0.31329(13)
H25_2 H 0.0076 0.6602 0.4580
H26_2 H 0.0795 0.7602 0.3720
C50_2 C 0.1221(2) 0.96770(15) 0.22821(16)
H29_2 H 0.2039 0.9695 0.2186
C51_2 C 0.0852(2) 0.90102(16) 0.27556(17)
H30_2 H 0.1413 0.8588 0.2969
O1_2 O 0.25981(15) 0.99072(9) 0.96616(8)
N1_2 N 0.34228(16) 0.79379(11) 0.95671(10)
C18_2 C 0.4551(2) 0.79577(17) 0.93588(14)
H9_2 H 0.5076 0.8398 0.9580
C19_2 C 0.4986(2) 0.73639(16) 0.88351(14)
H10_2 H 0.5795 0.7398 0.8720
C20_2 C 0.4232(2) 0.67148(13) 0.84770(12)
C21_2 C 0.3048(2) 0.67116(15) 0.86861(15)
H11_2 H 0.2496 0.6289 0.8462
C22_2 C 0.2680(2) 0.73233(15) 0.92189(15)
H12_2 H 0.1875 0.7308 0.9343
C23_2 C 0.6221(2) 0.53230(15) 0.72821(16)
H13_2 H 0.7039 0.5305 0.7186
C24_2 C 0.5852(2) 0.59898(16) 0.77556(17)
H14_2 H 0.6413 0.6412 0.7969
C25_2 C 0.4654(2) 0.60416(13) 0.79194(12)
C26_2 C 0.3880(2) 0.54137(17) 0.75402(15)
H15_2 H 0.3051 0.5431 0.7607
C27_2 C 0.4319(2) 0.47655(17) 0.70666(15)
H16_2 H 0.3774 0.4355 0.6816
O14_2 O 0.01737(16) 0.88297(13) 0.96121(10)
O4_2 O 0.98263(16) 0.11703(13) 0.03879(10)
O11_2 O 0.74019(15) 0.00928(9) 0.03384(8)
C54_2 C 0.9319(2) 0.02345(17) 0.20666(15)
H32_2 H 0.8774 0.0645 0.1816
O5_2 O 0.87220(14) 0.16143(11) 0.93035(9)
O6_2 O 0.8487(2) 0.70477(15) 0.89458(13)
O7_2 O 0.98760(18) 0.76150(11) 0.82472(14)
O8_2 O 0.82565(16) 0.67763(11) 0.70228(10)
H5_2 H 0.9951 0.2842 0.8753
C11_2 C 0.9784(2) 0.60520(14) 0.83327(13)
C12_2 C 0.97288(19) 0.57326(13) 0.75422(13)
C15_2 C 0.97314(19) 0.15055(13) 0.97152(12)
C16_2 C 0.9315(2) 0.69646(15) 0.85258(15)
C17_2 C 0.8994(2) 0.62066(13) 0.68671(13)
O24_2 O 0.79785(18) 0.64048(10) 0.27758(10)
C28_2 C 0.7265(2) 0.76336(14) 0.15384(13)
H19_2 H 0.6638 0.7464 0.1842
C29_2 C 0.7112(2) 0.83512(13) 0.10258(13)
H20_2 H 0.6376 0.8661 0.0982
C30_2 C 0.80399(19) 0.86213(13) 0.05710(12)
C31_2 C 0.91682(18) 0.81871(12) 0.06715(11)
C32_2 C 0.93047(19) 0.74563(13) 0.11838(12)
C33_2 C 0.83542(19) 0.71645(13) 0.16013(12)
C34_2 C 0.8480(2) 0.63937(13) 0.21653(13)
C35_2 C 0.9178(2) 0.55879(13) 0.19690(13)
C36_2 C 0.9192(2) 0.52893(14) 0.11926(13)
H22_2 H 0.8868 0.5642 0.0766
C37_2 C 0.9686(2) 0.44630(14) 0.10436(13)
H23_2 H 0.9660 0.4253 0.0518
C40_2 C 0.9729(2) 0.50798(13) 0.25950(12)
H24_2 H 0.9735 0.5289 0.3120
C41_2 C 0.77295(18) 0.93958(13) 0.00153(12)
C45_2 C 0.9551(2) 0.70423(17) 0.43588(14)
C46_2 C 0.9986(2) 0.76361(16) 0.38351(14)
C47_2 C 0.9232(2) 0.82852(13) 0.34770(12)
C48_2 C 0.8048(2) 0.82884(15) 0.36861(15)
H27_2 H 0.7496 0.8711 0.3462
C49_2 C 0.7680(2) 0.76767(15) 0.42189(15)
H28_2 H 0.6875 0.7692 0.4343
C52_2 C 0.9654(2) 0.89584(13) 0.29194(12)
C53_2 C 0.8880(2) 0.95863(17) 0.25402(15)
H31_2 H 0.8051 0.9569 0.2607
O12_2 O 0.74060(16) 0.83134(12) 0.77170(10)
H17_2 H 0.742(3) 0.8629(14) 0.7292(11)
H18_2 H 0.759(4) 0.7785(9) 0.7595(19)
O13_2 O 0.77167(17) 0.93066(12) 0.92731(9)
loop_
_geom_bond_atom_site_label_1
_geom_bond_atom_site_label_2
_geom_bond_site_symmetry_1
_geom_bond_site_symmetry_2
O6 C16 1_555 1_555
O7 C16 1_555 1_555
O8 C17 1_555 1_555
O9 C17 1_555 1_555
H7 C10 1_555 1_555
C11 C10 1_555 1_555
C12 C11 1_555 1_555
C16 C11 1_555 1_555
C17 C12 1_555 1_555
Co4 O9 1_555 1_555
Co8 O7 1_555 1_555
Co1 O1 1_555 1_555
Co2 O2 1_555 1_555
O1 C14 1_555 1_555
O2 H1 1_555 1_555
H2 O2 1_555 1_555
O3 Co2 1_555 1_555
O4 Co2 1_555 1_555
O5 C15 1_555 1_555
O10 C7 1_555 1_555
N1 Co1 1_555 1_555
C1 H3 1_555 1_555
C2 C1 1_555 1_555
H4 C2 1_555 1_555
C3 C2 1_555 1_555
C4 C3 1_555 1_555
C5 C4 1_555 1_555
H5 C5 1_555 1_555
C6 C1 1_555 1_555
C7 C6 1_555 1_555
C8 C7 1_555 1_555
C9 C8 1_555 1_555
H6 C9 1_555 1_555
C13 C8 1_555 1_555
H8 C13 1_555 1_555
C14 O3 1_555 1_555
C15 O4 1_555 1_555
C18 N1 1_555 1_555
C19 C18 1_555 1_555
C20 C19 1_555 1_555
C21 C20 1_555 1_555
H11 C21 1_555 1_555
C22 N1 1_555 1_555
H12 C22 1_555 1_555
C25 C20 1_555 1_555
C26 C25 1_555 1_555
H15 C26 1_555 1_555
Co3 O5 1_555 1_555
Co8 O12 1_555 1_555
O11 Co3 1_555 1_555
O12 H17 1_555 1_555
H18 O12 1_555 1_555
O13 Co8 1_555 1_555
O14 Co8 1_555 1_555
O15 Co1 1_555 1_555
O18 Co2 1_555 1_555
O22 Co1 1_555 1_555
O23 Co3 1_555 1_555
O24 C34 1_555 1_555
N3 C45 1_555 1_555
N4 Co3 1_555 1_555
N5 Co2 1_555 1_555
N6 Co8 1_555 1_555
C28 H19 1_555 1_555
C29 C28 1_555 1_555
H20 C29 1_555 1_555
C30 C29 1_555 1_555
C31 C30 1_555 1_555
C32 C31 1_555 1_555
H21 C32 1_555 1_555
C33 C28 1_555 1_555
C34 C33 1_555 1_555
C35 C34 1_555 1_555
C36 C35 1_555 1_555
H22 C36 1_555 1_555
C40 C35 1_555 1_555
H24 C40 1_555 1_555
C41 O11 1_555 1_555
C42 O14 1_555 1_555
C45 H25 1_555 1_555
C46 C45 1_555 1_555
H26 C46 1_555 1_555
C47 C46 1_555 1_555
C48 C47 1_555 1_555
H27 C48 1_555 1_555
C49 N3 1_555 1_555
H28 C49 1_555 1_555
C50 N5 1_555 1_555
H29 C50 1_555 1_555
C51 C50 1_555 1_555
H30 C51 1_555 1_555
C52 C47 1_555 1_555
C53 C52 1_555 1_555
H31 C53 1_555 1_555
C54 N5 1_555 1_555
H32 C54 1_555 1_555
C3 C14 1_555 1_555
C4 C15 1_555 1_555
C5 C6 1_555 1_555
C21 C22 1_555 1_555
O13 C41 1_555 1_555
O15 C42 1_555 1_555
C30 C41 1_555 1_555
C31 C42 1_555 1_555
C32 C33 1_555 1_555
C48 C49 1_555 1_555
C51 C52 1_555 1_555
C53 C54 1_555 1_555
H16 C27 1_555 1_555
Co5 O21 1_555 1_555
O16 C43 1_555 1_555
O18 C43 1_555 1_555
O20 C44 1_555 1_555
O21 C44 1_555 1_555
H23 C37 1_555 1_555
C38 C37 1_555 1_555
C39 C38 1_555 1_555
C43 C38 1_555 1_555
C44 C39 1_555 1_555
C23 H13 1_555 1_555
C24 C23 1_555 1_555
H14 C24 1_555 1_555
Co9 N2 1_555 1_555
Co2_2 O2_2 1_555 1_555
O2_2 H1_2 1_555 1_555
H2_2 O2_2 1_555 1_555
O3_2 Co2_2 1_555 1_555
O18_2 Co2_2 1_555 1_555
N5_2 Co2_2 1_555 1_555
O10_2 C7_2 1_555 1_555
C1_2 H3_2 1_555 1_555
C2_2 C1_2 1_555 1_555
H4_2 C2_2 1_555 1_555
C3_2 C2_2 1_555 1_555
C4_2 C3_2 1_555 1_555
C5_2 C4_2 1_555 1_555
C6_2 C1_2 1_555 1_555
C7_2 C6_2 1_555 1_555
C8_2 C7_2 1_555 1_555
C9_2 C8_2 1_555 1_555
H6_2 C9_2 1_555 1_555
C10_2 C9_2 1_555 1_555
H7_2 C10_2 1_555 1_555
C13_2 C8_2 1_555 1_555
H8_2 C13_2 1_555 1_555
C3_2 C14_2 1_555 1_555
C5_2 C6_2 1_555 1_555
O15_2 Co5 1_555 1_555
O16_2 C43_2 1_555 1_555
O18_2 C43_2 1_555 1_555
O20_2 C44_2 1_555 1_555
O22 C44_2 1_555 1_555
C39_2 C38_2 1_555 1_555
C43_2 C38_2 1_555 1_555
C44_2 C39_2 1_555 1_555
H29_2 C50_2 1_555 1_555
C51_2 C50_2 1_555 1_555
H30_2 C51_2 1_555 1_555
O15_2 C42_2 1_555 1_555
N6 C23_2 1_555 1_555
C18_2 N1_2 1_555 1_555
H9_2 C18_2 1_555 1_555
C19_2 C18_2 1_555 1_555
H10_2 C19_2 1_555 1_555
C20_2 C19_2 1_555 1_555
C21_2 C20_2 1_555 1_555
H11_2 C21_2 1_555 1_555
C22_2 N1_2 1_555 1_555
H12_2 C22_2 1_555 1_555
C23_2 H13_2 1_555 1_555
C24_2 C23_2 1_555 1_555
H14_2 C24_2 1_555 1_555
C25_2 C20_2 1_555 1_555
C26_2 C25_2 1_555 1_555
H15_2 C26_2 1_555 1_555
C27_2 N6 1_555 1_555
H16_2 C27_2 1_555 1_555
C21_2 C22_2 1_555 1_555
C24_2 C25_2 1_555 1_555
C26_2 C27_2 1_555 1_555
H32_2 C54_2 1_555 1_555
O5_2 C15_2 1_555 1_555
O6_2 C16_2 1_555 1_555
O7_2 C16_2 1_555 1_555
O8_2 C17_2 1_555 1_555
O23 C17_2 1_555 1_555
C12_2 C11_2 1_555 1_555
C16_2 C11_2 1_555 1_555
C17_2 C12_2 1_555 1_555
Co4 O5_2 1_555 1_555
Co9 O7_2 1_555 1_555
O24_2 C34_2 1_555 1_555
N4 C45_2 1_555 1_555
C28_2 H19_2 1_555 1_555
C29_2 C28_2 1_555 1_555
H20_2 C29_2 1_555 1_555
C30_2 C29_2 1_555 1_555
C31_2 C30_2 1_555 1_555
C32_2 C31_2 1_555 1_555
C33_2 C28_2 1_555 1_555
C34_2 C33_2 1_555 1_555
C35_2 C34_2 1_555 1_555
C36_2 C35_2 1_555 1_555
H22_2 C36_2 1_555 1_555
C37_2 C36_2 1_555 1_555
H23_2 C37_2 1_555 1_555
C40_2 C35_2 1_555 1_555
H24_2 C40_2 1_555 1_555
C46_2 C45_2 1_555 1_555
C47_2 C46_2 1_555 1_555
C48_2 C47_2 1_555 1_555
H27_2 C48_2 1_555 1_555
C49_2 N4 1_555 1_555
H28_2 C49_2 1_555 1_555
C52_2 C47_2 1_555 1_555
C53_2 C52_2 1_555 1_555
H31_2 C53_2 1_555 1_555
C30_2 C41_2 1_555 1_555
C32_2 C33_2 1_555 1_555
C48_2 C49_2 1_555 1_555
Co9 O12_2 1_555 1_555
O12_2 H17_2 1_555 1_555
H18_2 O12_2 1_555 1_555
O13_2 Co9 1_555 1_555

#END
