
###############################################################################
#
# This file contains modified crystal structure data generated from the
# MOF subset of the Cambridge Structural Database (CSD) v543 
# hosted by the Cambridge Crystallographic Data Centre (CCDC).
#
# This work is licensed under the Creative Commons
# Attribution-NonCommercial-ShareAlike 4.0 International License.
# To view a copy of this license, visit
# http://creativecommons.org/licenses/by-nc-sa/4.0/
# or send a letter to
# Creative Commons, PO Box 1866, Mountain View, CA 94042, USA.
#
# CIF created using the CSD Python API on 29 September 2022
# The structure has been converted into the P1 space group
# The structure has a 3D framework
# The original CSD entry LELXIK is in the orthorhombic crystal system
# The framework has been calculated to contain at least 10.0% void space
# The void calculation uses a probe of radius 1.32A, grid spacing 0.4
#
###############################################################################

data_LELXIK
_chemical_formula_moiety         '(C301 H176 Cu13 N32 O77)n'
_symmetry_cell_setting           triclinic
_symmetry_space_group_name_H-M   'P 1'
_symmetry_Int_Tables_number      1
_space_group_name_Hall           'P 1'
loop_
_symmetry_equiv_pos_site_id
_symmetry_equiv_pos_as_xyz
1 x,y,z
_cell_length_a                   23.243(5)
_cell_length_b                   27.437(6)
_cell_length_c                   11.451(2)
_cell_angle_alpha                90
_cell_angle_beta                 90
_cell_angle_gamma                90
_cell_volume                     7302.51
loop_
_atom_site_label
_atom_site_type_symbol
_atom_site_fract_x
_atom_site_fract_y
_atom_site_fract_z
Cu3 Cu 0.32829(3) 0.00457(2) 0.01034(10)
O10 O 0.1661(3) 0.05306(18) 0.6117(5)
N5 N 0.1550(3) 0.0407(2) 0.3739(6)
C22 C 0.1142(3) 0.1358(3) 0.0850(7)
C23 C 0.0991(4) 0.1839(3) 0.1030(8)
H14 H 0.0953 0.1960 0.1785
C24 C 0.0898(4) 0.2137(3) 0.0085(8)
H15 H 0.0817 0.2463 0.0226
C25 C 0.1717(4) 0.0316(3) 0.2657(8)
H16 H 0.1937 0.0038 0.2536
C26 C 0.1593(4) 0.0598(3) 0.1691(8)
H17 H 0.1723 0.0508 0.0953
C27 C 0.1265(4) 0.1025(3) 0.1849(7)
C28 C 0.1088(4) 0.1131(3) 0.2978(8)
H18 H 0.0872 0.1409 0.3131
C29 C 0.1235(4) 0.0818(3) 0.3868(6)
H19 H 0.1108 0.0895 0.4616
Cu6 Cu 0.07829(3) 0.24543(2) 0.76034(10)
N3 N 0.0917(3) 0.1989(2) 0.8986(6)
C20 C 0.1069(4) 0.1523(2) 0.8811(7)
H12 H 0.1097 0.1411 0.8046
C21 C 0.1183(3) 0.1202(3) 0.9701(7)
H13 H 0.1288 0.0882 0.9535
N2 N 0.0950(3) 0.7907(2) 0.1239(6)
C6 C 0.0783(4) 0.7816(3) 0.0157(8)
H5 H 0.0563 0.7538 0.0036
C9 C 0.1412(4) 0.8631(3) 0.0478(8)
H7 H 0.1628 0.8909 0.0631
C10 C 0.1265(4) 0.8318(3) 0.1368(6)
H8 H 0.1392 0.8395 0.2116
Cu4 Cu 0.07829(3) 0.74543(2) 0.26034(10)
Cu1 Cu 0.17171(3) 0.99543(2) 0.51034(10)
O1 O 0.1808(2) 0.93880(16) 0.4076(5)
O2 O 0.2729(2) 0.96016(16) 0.4004(5)
O3 O 0.2382(2) 0.95836(19) 0.1130(6)
O4 O 0.3339(3) 0.94694(18) 0.1117(5)
O5 O 0.2500 0.7500 0.4872(8)
N1 N 0.1583(3) 0.9489(2) 0.6486(6)
C1 C 0.1431(4) 0.9023(2) 0.6311(7)
H1 H 0.1403 0.8911 0.5546
C2 C 0.1317(3) 0.8702(3) 0.7201(7)
H2 H 0.1212 0.8382 0.7035
C3 C 0.1358(3) 0.8858(3) 0.8350(7)
C4 C 0.1509(4) 0.9339(3) 0.8530(8)
H3 H 0.1547 0.9460 0.9285
C5 C 0.1602(4) 0.9637(3) 0.7585(8)
H4 H 0.1683 0.9963 0.7726
C7 C 0.0907(4) 0.8098(3) 0.9191(8)
H6 H 0.0777 0.8008 0.8453
C8 C 0.1235(4) 0.8525(3) 0.9349(7)
C11 C 0.2385(3) 0.8404(2) 0.3663(7)
H9 H 0.2197 0.8390 0.4380
C12 C 0.2479(3) 0.8852(2) 0.3143(7)
C13 C 0.2746(3) 0.8866(2) 0.2049(6)
C14 C 0.2921(3) 0.8435(2) 0.1531(7)
H10 H 0.3098 0.8448 0.0803
C15 C 0.2845(3) 0.7991(2) 0.2050(7)
H11 H 0.2976 0.7708 0.1686
C16 C 0.2569(3) 0.7965(2) 0.3125(6)
C17 C 0.2500 0.7500 0.3804(8)
C18 C 0.2336(3) 0.9319(2) 0.3781(6)
C19 C 0.2830(3) 0.9341(2) 0.1384(6)
Cu2 Cu 0.32829(3) 0.50457(2) 0.51034(10)
Cu5 Cu 0.17171(3) 0.49543(2) 0.01034(10)
O6 O 0.3192(2) 0.56120(16) 0.4076(5)
O7 O 0.2271(2) 0.53984(16) 0.4004(5)
O8 O 0.2618(2) 0.54164(19) 0.1130(6)
O9 O 0.1661(3) 0.55306(18) 0.1117(5)
O11 O 0.3339(3) 0.44694(18) 0.6117(5)
N4 N 0.3417(3) 0.5511(2) 0.6486(6)
N6 N 0.3450(3) 0.4593(2) 0.3739(6)
C30 C 0.2615(3) 0.6596(2) 0.3663(7)
H20 H 0.2803 0.6610 0.4380
C31 C 0.2521(3) 0.6148(2) 0.3143(7)
C32 C 0.2254(3) 0.6134(2) 0.2049(6)
C33 C 0.2079(3) 0.6565(2) 0.1531(7)
H21 H 0.1902 0.6552 0.0803
C34 C 0.2155(3) 0.7009(2) 0.2050(7)
H22 H 0.2024 0.7292 0.1686
C35 C 0.2431(3) 0.7035(2) 0.3125(6)
C36 C 0.2664(3) 0.5681(2) 0.3781(6)
C37 C 0.2170(3) 0.5659(2) 0.1384(6)
N2_2 N 0.9050(3) 0.2093(2) 0.1239(6)
C6_2 C 0.9217(4) 0.2184(3) 0.0157(8)
H5_2 H 0.9437 0.2462 0.0036
C9_2 C 0.8588(4) 0.1369(3) 0.0478(8)
H7_2 H 0.8372 0.1091 0.0631
C10_2 C 0.8735(4) 0.1682(3) 0.1368(6)
H8_2 H 0.8608 0.1605 0.2116
Cu4_2 Cu 0.92171(3) 0.25457(2) 0.26034(10)
Cu1_2 Cu 0.82829(3) 0.00457(2) 0.51034(10)
O1_2 O 0.8192(2) 0.06120(16) 0.4076(5)
O2_2 O 0.7271(2) 0.03984(16) 0.4004(5)
O3_2 O 0.7618(2) 0.04164(19) 0.1130(6)
O4_2 O 0.6661(3) 0.05306(18) 0.1117(5)
O5_2 O 0.7500 0.2500 0.4872(8)
N1_2 N 0.8417(3) 0.0511(2) 0.6486(6)
C1_2 C 0.8569(4) 0.0977(2) 0.6311(7)
H1_2 H 0.8597 0.1089 0.5546
C2_2 C 0.8683(3) 0.1298(3) 0.7201(7)
H2_2 H 0.8788 0.1618 0.7035
C3_2 C 0.8642(3) 0.1142(3) 0.8350(7)
C4_2 C 0.8491(4) 0.0661(3) 0.8530(8)
H3_2 H 0.8453 0.0540 0.9285
C5_2 C 0.8398(4) 0.0363(3) 0.7585(8)
H4_2 H 0.8317 0.0037 0.7726
C7_2 C 0.9093(4) 0.1902(3) 0.9191(8)
H6_2 H 0.9223 0.1992 0.8453
C8_2 C 0.8765(4) 0.1475(3) 0.9349(7)
C11_2 C 0.7615(3) 0.1596(2) 0.3663(7)
H9_2 H 0.7803 0.1610 0.4380
C12_2 C 0.7521(3) 0.1148(2) 0.3143(7)
C13_2 C 0.7254(3) 0.1134(2) 0.2049(6)
C14_2 C 0.7079(3) 0.1565(2) 0.1531(7)
H10_2 H 0.6902 0.1552 0.0803
C15_2 C 0.7155(3) 0.2009(2) 0.2050(7)
H11_2 H 0.7024 0.2292 0.1686
C16_2 C 0.7431(3) 0.2035(2) 0.3125(6)
C17_2 C 0.7500 0.2500 0.3804(8)
C18_2 C 0.7664(3) 0.0681(2) 0.3781(6)
C19_2 C 0.7170(3) 0.0659(2) 0.1384(6)
Cu2_2 Cu 0.67171(3) 0.49543(2) 0.51034(10)
Cu5_2 Cu 0.82829(3) 0.50457(2) 0.01034(10)
O6_2 O 0.6808(2) 0.43880(16) 0.4076(5)
O7_2 O 0.7729(2) 0.46016(16) 0.4004(5)
O8_2 O 0.7382(2) 0.45836(19) 0.1130(6)
O9_2 O 0.8339(3) 0.44694(18) 0.1117(5)
O11_2 O 0.6661(3) 0.55306(18) 0.6117(5)
N4_2 N 0.6583(3) 0.4489(2) 0.6486(6)
N6_2 N 0.6550(3) 0.5407(2) 0.3739(6)
C30_2 C 0.7385(3) 0.3404(2) 0.3663(7)
H20_2 H 0.7197 0.3390 0.4380
C31_2 C 0.7479(3) 0.3852(2) 0.3143(7)
C32_2 C 0.7746(3) 0.3866(2) 0.2049(6)
C33_2 C 0.7921(3) 0.3435(2) 0.1531(7)
H21_2 H 0.8098 0.3448 0.0803
C34_2 C 0.7845(3) 0.2991(2) 0.2050(7)
H22_2 H 0.7976 0.2708 0.1686
C35_2 C 0.7569(3) 0.2965(2) 0.3125(6)
C36_2 C 0.7336(3) 0.4319(2) 0.3781(6)
C37_2 C 0.7830(3) 0.4341(2) 0.1384(6)
Cu3_2 Cu 0.67171(3) 0.99543(2) 0.01034(10)
O10_2 O 0.8339(3) 0.94694(18) 0.6117(5)
N5_2 N 0.8450(3) 0.9593(2) 0.3739(6)
C22_2 C 0.8858(3) 0.8642(3) 0.0850(7)
C23_2 C 0.9009(4) 0.8161(3) 0.1030(8)
H14_2 H 0.9047 0.8040 0.1785
C24_2 C 0.9102(4) 0.7863(3) 0.0085(8)
H15_2 H 0.9183 0.7537 0.0226
C25_2 C 0.8283(4) 0.9684(3) 0.2657(8)
H16_2 H 0.8063 0.9962 0.2536
C26_2 C 0.8407(4) 0.9402(3) 0.1691(8)
H17_2 H 0.8277 0.9492 0.0953
C27_2 C 0.8735(4) 0.8975(3) 0.1849(7)
C28_2 C 0.8912(4) 0.8869(3) 0.2978(8)
H18_2 H 0.9128 0.8591 0.3131
C29_2 C 0.8765(4) 0.9182(3) 0.3868(6)
H19_2 H 0.8892 0.9105 0.4616
Cu6_2 Cu 0.92171(3) 0.75457(2) 0.76034(10)
N3_2 N 0.9083(3) 0.8011(2) 0.8986(6)
C20_2 C 0.8931(4) 0.8477(2) 0.8811(7)
H12_2 H 0.8903 0.8589 0.8046
C21_2 C 0.8817(3) 0.8798(3) 0.9701(7)
H13_2 H 0.8712 0.9118 0.9535
C3_3 C 0.3858(3) 0.3642(3) 0.0850(7)
C4_3 C 0.4009(4) 0.3161(3) 0.1030(8)
H3_3 H 0.4047 0.3040 0.1785
C5_3 C 0.4102(4) 0.2863(3) 0.0085(8)
H4_3 H 0.4183 0.2537 0.0226
C6_3 C 0.3283(4) 0.4684(3) 0.2657(8)
H5_3 H 0.3063 0.4962 0.2536
C7_3 C 0.3407(4) 0.4402(3) 0.1691(8)
H6_3 H 0.3277 0.4492 0.0953
C8_3 C 0.3735(4) 0.3975(3) 0.1849(7)
C9_3 C 0.3912(4) 0.3869(3) 0.2978(8)
H7_3 H 0.4128 0.3591 0.3131
C10_3 C 0.3765(4) 0.4182(3) 0.3868(6)
H8_3 H 0.3892 0.4105 0.4616
Cu1_3 Cu 0.42171(3) 0.25457(2) 0.76034(10)
O1_3 O 0.4308(2) 0.31120(16) 0.6576(5)
O2_3 O 0.5229(2) 0.28984(16) 0.6504(5)
O3_3 O 0.4882(2) 0.29164(19) 0.3630(6)
O4_3 O 0.5839(3) 0.30306(18) 0.3617(5)
O5_3 O 0.5000 0.5000 0.7372(8)
N1_3 N 0.4083(3) 0.3011(2) 0.8986(6)
C1_3 C 0.3931(4) 0.3477(2) 0.8811(7)
H1_3 H 0.3903 0.3589 0.8046
C2_3 C 0.3817(3) 0.3798(3) 0.9701(7)
H2_3 H 0.3712 0.4118 0.9535
C11_3 C 0.4885(3) 0.4096(2) 0.6163(7)
H9_3 H 0.4697 0.4110 0.6880
C12_3 C 0.4979(3) 0.3648(2) 0.5643(7)
C13_3 C 0.5246(3) 0.3634(2) 0.4549(6)
C14_3 C 0.5421(3) 0.4065(2) 0.4031(7)
H10_3 H 0.5598 0.4052 0.3303
C15_3 C 0.5345(3) 0.4509(2) 0.4550(7)
H11_3 H 0.5476 0.4792 0.4186
C16_3 C 0.5069(3) 0.4535(2) 0.5625(6)
C17_3 C 0.5000 0.5000 0.6304(8)
C18_3 C 0.4836(3) 0.3181(2) 0.6281(6)
C19_3 C 0.5330(3) 0.3159(2) 0.3884(6)
Cu2_3 Cu 0.57829(3) 0.74543(2) 0.76034(10)
Cu3_3 Cu 0.57829(3) 0.24543(2) 0.26034(10)
Cu5_3 Cu 0.42171(3) 0.75457(2) 0.26034(10)
O6_3 O 0.5692(2) 0.68880(16) 0.6576(5)
O7_3 O 0.4771(2) 0.71016(16) 0.6504(5)
O8_3 O 0.5118(2) 0.70836(19) 0.3630(6)
O9_3 O 0.4161(3) 0.69694(18) 0.3617(5)
O10_3 O 0.4161(3) 0.19694(18) 0.8617(5)
O11_3 O 0.5839(3) 0.80306(18) 0.8617(5)
N3_3 N 0.3417(3) 0.0511(2) 0.1486(6)
N4_3 N 0.5917(3) 0.6989(2) 0.8986(6)
N5_3 N 0.4050(3) 0.2093(2) 0.6239(6)
N6_3 N 0.5950(3) 0.7907(2) 0.6239(6)
C20_3 C 0.3569(4) 0.0977(2) 0.1311(7)
H12_3 H 0.3597 0.1089 0.0546
C21_3 C 0.3683(3) 0.1298(3) 0.2201(7)
H13_3 H 0.3788 0.1618 0.2035
C22_3 C 0.3642(3) 0.1142(3) 0.3350(7)
C23_3 C 0.3491(4) 0.0661(3) 0.3530(8)
H14_3 H 0.3453 0.0540 0.4285
C24_3 C 0.3398(4) 0.0363(3) 0.2585(8)
H15_3 H 0.3317 0.0037 0.2726
C25_3 C 0.4217(4) 0.2184(3) 0.5157(8)
H16_3 H 0.4437 0.2462 0.5036
C26_3 C 0.4093(4) 0.1902(3) 0.4191(8)
H17_3 H 0.4223 0.1992 0.3453
C27_3 C 0.3765(4) 0.1475(3) 0.4349(7)
C28_3 C 0.3588(4) 0.1369(3) 0.5478(8)
H18_3 H 0.3372 0.1091 0.5631
C29_3 C 0.3735(4) 0.1682(3) 0.6368(6)
H19_3 H 0.3608 0.1605 0.7116
C30_3 C 0.5115(3) 0.5904(2) 0.6163(7)
H20_3 H 0.5303 0.5890 0.6880
C31_3 C 0.5021(3) 0.6352(2) 0.5643(7)
C32_3 C 0.4754(3) 0.6366(2) 0.4549(6)
C33_3 C 0.4579(3) 0.5935(2) 0.4031(7)
H21_3 H 0.4402 0.5948 0.3303
C34_3 C 0.4655(3) 0.5491(2) 0.4550(7)
H22_3 H 0.4524 0.5208 0.4186
C35_3 C 0.4931(3) 0.5465(2) 0.5625(6)
C36_3 C 0.5164(3) 0.6819(2) 0.6281(6)
C37_3 C 0.4670(3) 0.6841(2) 0.3884(6)
O1_4 O 0.0692(2) 0.18880(16) 0.6576(5)
O3_4 O 0.0118(2) 0.20836(19) 0.3630(6)
O5_4 O 0.0000 0.0000 0.7372(8)
C11_4 C 0.0115(3) 0.0904(2) 0.6163(7)
H9_4 H 0.0303 0.0890 0.6880
C12_4 C 0.0021(3) 0.1352(2) 0.5643(7)
C17_4 C 0.0000 0.0000 0.6304(8)
C18_4 C 0.0164(3) 0.1819(2) 0.6281(6)
O10_4 O 0.0839(3) 0.30306(18) 0.8617(5)
N3_4 N 0.1583(3) 0.4489(2) 0.1486(6)
N5_4 N 0.0950(3) 0.2907(2) 0.6239(6)
C20_4 C 0.1431(4) 0.4023(2) 0.1311(7)
H12_4 H 0.1403 0.3911 0.0546
C21_4 C 0.1317(3) 0.3702(3) 0.2201(7)
H13_4 H 0.1212 0.3382 0.2035
C22_4 C 0.1358(3) 0.3858(3) 0.3350(7)
C23_4 C 0.1509(4) 0.4339(3) 0.3530(8)
H14_4 H 0.1547 0.4460 0.4285
C24_4 C 0.1602(4) 0.4637(3) 0.2585(8)
H15_4 H 0.1683 0.4963 0.2726
C25_4 C 0.0783(4) 0.2816(3) 0.5157(8)
H16_4 H 0.0563 0.2538 0.5036
C26_4 C 0.0907(4) 0.3098(3) 0.4191(8)
H17_4 H 0.0777 0.3008 0.3453
C27_4 C 0.1235(4) 0.3525(3) 0.4349(7)
C28_4 C 0.1412(4) 0.3631(3) 0.5478(8)
H18_4 H 0.1628 0.3909 0.5631
C29_4 C 0.1265(4) 0.3318(3) 0.6368(6)
H19_4 H 0.1392 0.3395 0.7116
O5_5 O 0.0000 1.0000 0.7372(8)
C17_5 C 0.0000 1.0000 0.6304(8)
O7_4 O 0.0229(2) 0.78984(16) 0.6504(5)
O9_4 O 0.0839(3) 0.80306(18) 0.3617(5)
C32_4 C 0.0246(3) 0.8634(2) 0.4549(6)
C33_4 C 0.0421(3) 0.9065(2) 0.4031(7)
H21_4 H 0.0598 0.9052 0.3303
C34_4 C 0.0345(3) 0.9509(2) 0.4550(7)
H22_4 H 0.0476 0.9792 0.4186
C35_4 C 0.0069(3) 0.9535(2) 0.5625(6)
C37_4 C 0.0330(3) 0.8159(2) 0.3884(6)
O2_4 O 0.9771(2) 0.21016(16) 0.6504(5)
O4_4 O 0.9161(3) 0.19694(18) 0.3617(5)
O5_6 O 1.0000 0.0000 0.7372(8)
C13_4 C 0.9754(3) 0.1366(2) 0.4549(6)
C14_4 C 0.9579(3) 0.0935(2) 0.4031(7)
H10_4 H 0.9402 0.0948 0.3303
C15_4 C 0.9655(3) 0.0491(2) 0.4550(7)
H11_4 H 0.9524 0.0208 0.4186
C16_4 C 0.9931(3) 0.0465(2) 0.5625(6)
C17_6 C 1.0000 0.0000 0.6304(8)
C19_4 C 0.9670(3) 0.1841(2) 0.3884(6)
O5_7 O 1.0000 1.0000 0.7372(8)
C17_7 C 1.0000 1.0000 0.6304(8)
O6_4 O 0.9308(2) 0.81120(16) 0.6576(5)
O8_4 O 0.9882(2) 0.79164(19) 0.3630(6)
O11_4 O 0.9161(3) 0.69694(18) 0.8617(5)
N6_4 N 0.9050(3) 0.7093(2) 0.6239(6)
C30_4 C 0.9885(3) 0.9096(2) 0.6163(7)
H20_4 H 0.9697 0.9110 0.6880
C31_4 C 0.9979(3) 0.8648(2) 0.5643(7)
C36_4 C 0.9836(3) 0.8181(2) 0.6281(6)
O1_5 O 0.1808(2) 0.43880(16) 0.9076(5)
O2_5 O 0.2729(2) 0.46016(16) 0.9004(5)
O3_5 O 0.2382(2) 0.45836(19) 0.6130(6)
O5_8 O 0.2500 0.2500 0.9872(8)
C11_5 C 0.2385(3) 0.3404(2) 0.8663(7)
H9_5 H 0.2197 0.3390 0.9380
C12_5 C 0.2479(3) 0.3852(2) 0.8143(7)
C13_5 C 0.2746(3) 0.3866(2) 0.7049(6)
C14_5 C 0.2921(3) 0.3435(2) 0.6531(7)
H10_5 H 0.3098 0.3448 0.5803
C15_5 C 0.2845(3) 0.2991(2) 0.7050(7)
H11_5 H 0.2976 0.2708 0.6686
C16_5 C 0.2569(3) 0.2965(2) 0.8125(6)
C17_8 C 0.2500 0.2500 0.8804(8)
C18_5 C 0.2336(3) 0.4319(2) 0.8781(6)
C19_5 C 0.2830(3) 0.4341(2) 0.6384(6)
O6_5 O 0.3192(2) 0.06120(16) 0.9076(5)
O7_5 O 0.2271(2) 0.03984(16) 0.9004(5)
O8_5 O 0.2618(2) 0.04164(19) 0.6130(6)
N3_5 N 0.0917(3) 0.6989(2) 0.3986(6)
N5_5 N 0.1550(3) 0.5407(2) 0.8739(6)
C20_5 C 0.1069(4) 0.6523(2) 0.3811(7)
H12_5 H 0.1097 0.6411 0.3046
C21_5 C 0.1183(3) 0.6202(3) 0.4701(7)
H13_5 H 0.1288 0.5882 0.4535
C22_5 C 0.1142(3) 0.6358(3) 0.5850(7)
C23_5 C 0.0991(4) 0.6839(3) 0.6030(8)
H14_5 H 0.0953 0.6960 0.6785
C24_5 C 0.0898(4) 0.7137(3) 0.5085(8)
H15_5 H 0.0817 0.7463 0.5226
C25_5 C 0.1717(4) 0.5316(3) 0.7657(8)
H16_5 H 0.1937 0.5038 0.7536
C26_5 C 0.1593(4) 0.5598(3) 0.6691(8)
H17_5 H 0.1723 0.5508 0.5953
C27_5 C 0.1265(4) 0.6025(3) 0.6849(7)
C28_5 C 0.1088(4) 0.6131(3) 0.7978(8)
H18_5 H 0.0872 0.6409 0.8131
C29_5 C 0.1235(4) 0.5818(3) 0.8868(6)
H19_5 H 0.1108 0.5895 0.9616
C30_5 C 0.2615(3) 0.1596(2) 0.8663(7)
H20_5 H 0.2803 0.1610 0.9380
C31_5 C 0.2521(3) 0.1148(2) 0.8143(7)
C32_5 C 0.2254(3) 0.1134(2) 0.7049(6)
C33_5 C 0.2079(3) 0.1565(2) 0.6531(7)
H21_5 H 0.1902 0.1552 0.5803
C34_5 C 0.2155(3) 0.2009(2) 0.7050(7)
H22_5 H 0.2024 0.2292 0.6686
C35_5 C 0.2431(3) 0.2035(2) 0.8125(6)
C36_5 C 0.2664(3) 0.0681(2) 0.8781(6)
C37_5 C 0.2170(3) 0.0659(2) 0.6384(6)
N6_5 N 0.3450(3) 0.9593(2) 0.8739(6)
N6_6 N 0.6550(3) 0.0407(2) 0.8739(6)
N1_4 N 0.8417(3) 0.5511(2) 0.1486(6)
C1_4 C 0.8569(4) 0.5977(2) 0.1311(7)
H1_4 H 0.8597 0.6089 0.0546
C2_4 C 0.8683(3) 0.6298(3) 0.2201(7)
H2_4 H 0.8788 0.6618 0.2035
C3_4 C 0.8642(3) 0.6142(3) 0.3350(7)
C4_4 C 0.8491(4) 0.5661(3) 0.3530(8)
H3_4 H 0.8453 0.5540 0.4285
C5_4 C 0.8398(4) 0.5363(3) 0.2585(8)
H4_4 H 0.8317 0.5037 0.2726
C6_4 C 0.9217(4) 0.7184(3) 0.5157(8)
H5_4 H 0.9437 0.7462 0.5036
C7_4 C 0.9093(4) 0.6902(3) 0.4191(8)
H6_4 H 0.9223 0.6992 0.3453
C8_4 C 0.8765(4) 0.6475(3) 0.4349(7)
C9_4 C 0.8588(4) 0.6369(3) 0.5478(8)
H7_4 H 0.8372 0.6091 0.5631
C10_4 C 0.8735(4) 0.6682(3) 0.6368(6)
H8_4 H 0.8608 0.6605 0.7116
N4_4 N 0.6583(3) 0.9489(2) 0.1486(6)
O1_6 O 0.8192(2) 0.56120(16) 0.9076(5)
O2_6 O 0.7271(2) 0.53984(16) 0.9004(5)
O3_6 O 0.7618(2) 0.54164(19) 0.6130(6)
O5_9 O 0.7500 0.7500 0.9872(8)
C11_6 C 0.7615(3) 0.6596(2) 0.8663(7)
H9_6 H 0.7803 0.6610 0.9380
C12_6 C 0.7521(3) 0.6148(2) 0.8143(7)
C13_6 C 0.7254(3) 0.6134(2) 0.7049(6)
C14_6 C 0.7079(3) 0.6565(2) 0.6531(7)
H10_6 H 0.6902 0.6552 0.5803
C15_6 C 0.7155(3) 0.7009(2) 0.7050(7)
H11_6 H 0.7024 0.7292 0.6686
C16_6 C 0.7431(3) 0.7035(2) 0.8125(6)
C17_9 C 0.7500 0.7500 0.8804(8)
C18_6 C 0.7664(3) 0.5681(2) 0.8781(6)
C19_6 C 0.7170(3) 0.5659(2) 0.6384(6)
O6_6 O 0.6808(2) 0.93880(16) 0.9076(5)
O7_6 O 0.7729(2) 0.96016(16) 0.9004(5)
O8_6 O 0.7382(2) 0.95836(19) 0.6130(6)
N3_6 N 0.9083(3) 0.3011(2) 0.3986(6)
N5_6 N 0.8450(3) 0.4593(2) 0.8739(6)
C20_6 C 0.8931(4) 0.3477(2) 0.3811(7)
H12_6 H 0.8903 0.3589 0.3046
C21_6 C 0.8817(3) 0.3798(3) 0.4701(7)
H13_6 H 0.8712 0.4118 0.4535
C22_6 C 0.8858(3) 0.3642(3) 0.5850(7)
C23_6 C 0.9009(4) 0.3161(3) 0.6030(8)
H14_6 H 0.9047 0.3040 0.6785
C24_6 C 0.9102(4) 0.2863(3) 0.5085(8)
H15_6 H 0.9183 0.2537 0.5226
C25_6 C 0.8283(4) 0.4684(3) 0.7657(8)
H16_6 H 0.8063 0.4962 0.7536
C26_6 C 0.8407(4) 0.4402(3) 0.6691(8)
H17_6 H 0.8277 0.4492 0.5953
C27_6 C 0.8735(4) 0.3975(3) 0.6849(7)
C28_6 C 0.8912(4) 0.3869(3) 0.7978(8)
H18_6 H 0.9128 0.3591 0.8131
C29_6 C 0.8765(4) 0.4182(3) 0.8868(6)
H19_6 H 0.8892 0.4105 0.9616
C30_6 C 0.7385(3) 0.8404(2) 0.8663(7)
H20_6 H 0.7197 0.8390 0.9380
C31_6 C 0.7479(3) 0.8852(2) 0.8143(7)
C32_6 C 0.7746(3) 0.8866(2) 0.7049(6)
C33_6 C 0.7921(3) 0.8435(2) 0.6531(7)
H21_6 H 0.8098 0.8448 0.5803
C34_6 C 0.7845(3) 0.7991(2) 0.7050(7)
H22_6 H 0.7976 0.7708 0.6686
C35_6 C 0.7569(3) 0.7965(2) 0.8125(6)
C36_6 C 0.7336(3) 0.9319(2) 0.8781(6)
C37_6 C 0.7830(3) 0.9341(2) 0.6384(6)
O5_10 O 0.5000 -0.0000 0.2372(8)
C17_10 C 0.5000 -0.0000 0.1304(8)
O6_7 O 0.5692(2) 0.18880(16) 0.1576(5)
O7_7 O 0.4771(2) 0.21016(16) 0.1504(5)
N4_5 N 0.5917(3) 0.1989(2) 0.3986(6)
N6_7 N 0.5950(3) 0.2907(2) 0.1239(6)
C30_7 C 0.5115(3) 0.0904(2) 0.1163(7)
H20_7 H 0.5303 0.0890 0.1880
C31_7 C 0.5021(3) 0.1352(2) 0.0643(7)
C35_7 C 0.4931(3) 0.0465(2) 0.0625(6)
C36_7 C 0.5164(3) 0.1819(2) 0.1281(6)
O8_7 O 0.5118(2) 0.20836(19) 0.8630(6)
C32_7 C 0.4754(3) 0.1366(2) 0.9549(6)
C33_7 C 0.4579(3) 0.0935(2) 0.9031(7)
H21_7 H 0.4402 0.0948 0.8303
C34_7 C 0.4655(3) 0.0491(2) 0.9550(7)
H22_7 H 0.4524 0.0208 0.9186
C37_7 C 0.4670(3) 0.1841(2) 0.8884(6)
O1_7 O 0.4308(2) 0.81120(16) 0.1576(5)
O2_7 O 0.5229(2) 0.78984(16) 0.1504(5)
O5_11 O 0.5000 1.0000 0.2372(8)
N1_5 N 0.4083(3) 0.8011(2) 0.3986(6)
C1_5 C 0.3931(4) 0.8477(2) 0.3811(7)
H1_5 H 0.3903 0.8589 0.3046
C2_5 C 0.3817(3) 0.8798(3) 0.4701(7)
H2_5 H 0.3712 0.9118 0.4535
C3_5 C 0.3858(3) 0.8642(3) 0.5850(7)
C4_5 C 0.4009(4) 0.8161(3) 0.6030(8)
H3_5 H 0.4047 0.8040 0.6785
C5_5 C 0.4102(4) 0.7863(3) 0.5085(8)
H4_5 H 0.4183 0.7537 0.5226
C6_5 C 0.3283(4) 0.9684(3) 0.7657(8)
H5_5 H 0.3063 0.9962 0.7536
C7_5 C 0.3407(4) 0.9402(3) 0.6691(8)
H6_5 H 0.3277 0.9492 0.5953
C8_5 C 0.3735(4) 0.8975(3) 0.6849(7)
C9_5 C 0.3912(4) 0.8869(3) 0.7978(8)
H7_5 H 0.4128 0.8591 0.8131
C10_5 C 0.3765(4) 0.9182(3) 0.8868(6)
H8_5 H 0.3892 0.9105 0.9616
C11_7 C 0.4885(3) 0.9096(2) 0.1163(7)
H9_7 H 0.4697 0.9110 0.1880
C12_7 C 0.4979(3) 0.8648(2) 0.0643(7)
C16_7 C 0.5069(3) 0.9535(2) 0.0625(6)
C17_11 C 0.5000 1.0000 0.1304(8)
C18_7 C 0.4836(3) 0.8181(2) 0.1281(6)
N5_7 N 0.4050(3) 0.7093(2) 0.1239(6)
C25_7 C 0.4217(4) 0.7184(3) 0.0157(8)
H16_7 H 0.4437 0.7462 0.0036
C28_7 C 0.3588(4) 0.6369(3) 0.0478(8)
H18_7 H 0.3372 0.6091 0.0631
C29_7 C 0.3735(4) 0.6682(3) 0.1368(6)
H19_7 H 0.3608 0.6605 0.2116
O3_7 O 0.4882(2) 0.79164(19) 0.8630(6)
C13_7 C 0.5246(3) 0.8634(2) 0.9549(6)
C14_7 C 0.5421(3) 0.9065(2) 0.9031(7)
H10_7 H 0.5598 0.9052 0.8303
C15_7 C 0.5345(3) 0.9509(2) 0.9550(7)
H11_7 H 0.5476 0.9792 0.9186
C19_7 C 0.5330(3) 0.8159(2) 0.8884(6)
C20_7 C 0.3569(4) 0.5977(2) 0.6311(7)
H12_7 H 0.3597 0.6089 0.5546
C21_7 C 0.3683(3) 0.6298(3) 0.7201(7)
H13_7 H 0.3788 0.6618 0.7035
C22_7 C 0.3642(3) 0.6142(3) 0.8350(7)
C23_7 C 0.3491(4) 0.5661(3) 0.8530(8)
H14_7 H 0.3453 0.5540 0.9285
C24_7 C 0.3398(4) 0.5363(3) 0.7585(8)
H15_7 H 0.3317 0.5037 0.7726
C26_7 C 0.4093(4) 0.6902(3) 0.9191(8)
H17_7 H 0.4223 0.6992 0.8453
C27_7 C 0.3765(4) 0.6475(3) 0.9349(7)
O1_8 O 0.0692(2) 0.68880(16) 0.1576(5)
O5_12 O 0.0000 0.5000 0.2372(8)
C11_8 C 0.0115(3) 0.5904(2) 0.1163(7)
H9_8 H 0.0303 0.5890 0.1880
C12_8 C 0.0021(3) 0.6352(2) 0.0643(7)
C17_12 C 0.0000 0.5000 0.1304(8)
C18_8 C 0.0164(3) 0.6819(2) 0.1281(6)
O7_8 O 0.0229(2) 0.28984(16) 0.1504(5)
C35_8 C 0.0069(3) 0.4535(2) 0.0625(6)
O3_8 O 0.0118(2) 0.70836(19) 0.8630(6)
C32_8 C 0.0246(3) 0.3634(2) 0.9549(6)
C33_8 C 0.0421(3) 0.4065(2) 0.9031(7)
H21_8 H 0.0598 0.4052 0.8303
C34_8 C 0.0345(3) 0.4509(2) 0.9550(7)
H22_8 H 0.0476 0.4792 0.9186
C37_8 C 0.0330(3) 0.3159(2) 0.8884(6)
O2_8 O 0.9771(2) 0.71016(16) 0.1504(5)
O5_13 O 1.0000 0.5000 0.2372(8)
C16_8 C 0.9931(3) 0.5465(2) 0.0625(6)
C17_13 C 1.0000 0.5000 0.1304(8)
O6_8 O 0.9308(2) 0.31120(16) 0.1576(5)
C30_8 C 0.9885(3) 0.4096(2) 0.1163(7)
H20_8 H 0.9697 0.4110 0.1880
C31_8 C 0.9979(3) 0.3648(2) 0.0643(7)
C36_8 C 0.9836(3) 0.3181(2) 0.1281(6)
C13_8 C 0.9754(3) 0.6366(2) 0.9549(6)
C14_8 C 0.9579(3) 0.5935(2) 0.9031(7)
H10_8 H 0.9402 0.5948 0.8303
C15_8 C 0.9655(3) 0.5491(2) 0.9550(7)
H11_8 H 0.9524 0.5208 0.9186
C19_8 C 0.9670(3) 0.6841(2) 0.8884(6)
O8_8 O 0.9882(2) 0.29164(19) 0.8630(6)
C20_8 C 0.6069(4) 0.1523(2) 0.3811(7)
H12_8 H 0.6097 0.1411 0.3046
C21_8 C 0.6183(3) 0.1202(3) 0.4701(7)
H13_8 H 0.6288 0.0882 0.4535
C22_8 C 0.6142(3) 0.1358(3) 0.5850(7)
C23_8 C 0.5991(4) 0.1839(3) 0.6030(8)
H14_8 H 0.5953 0.1960 0.6785
C24_8 C 0.5898(4) 0.2137(3) 0.5085(8)
H15_8 H 0.5817 0.2463 0.5226
C25_8 C 0.6717(4) 0.0316(3) 0.7657(8)
H16_8 H 0.6937 0.0038 0.7536
C26_8 C 0.6593(4) 0.0598(3) 0.6691(8)
H17_8 H 0.6723 0.0508 0.5953
C27_8 C 0.6265(4) 0.1025(3) 0.6849(7)
C28_8 C 0.6088(4) 0.1131(3) 0.7978(8)
H18_8 H 0.5872 0.1409 0.8131
C29_8 C 0.6235(4) 0.0818(3) 0.8868(6)
H19_8 H 0.6108 0.0895 0.9616
C1_6 C 0.6431(4) 0.9023(2) 0.1311(7)
H1_6 H 0.6403 0.8911 0.0546
C2_6 C 0.6317(3) 0.8702(3) 0.2201(7)
H2_6 H 0.6212 0.8382 0.2035
C3_6 C 0.6358(3) 0.8858(3) 0.3350(7)
C4_6 C 0.6509(4) 0.9339(3) 0.3530(8)
H3_6 H 0.6547 0.9460 0.4285
C5_6 C 0.6602(4) 0.9637(3) 0.2585(8)
H4_6 H 0.6683 0.9963 0.2726
C6_6 C 0.5783(4) 0.7816(3) 0.5157(8)
H5_6 H 0.5563 0.7538 0.5036
C7_6 C 0.5907(4) 0.8098(3) 0.4191(8)
H6_6 H 0.5777 0.8008 0.3453
C8_6 C 0.6235(4) 0.8525(3) 0.4349(7)
C9_6 C 0.6412(4) 0.8631(3) 0.5478(8)
H7_6 H 0.6628 0.8909 0.5631
C10_6 C 0.6265(4) 0.8318(3) 0.6368(6)
H8_6 H 0.6392 0.8395 0.7116
C25_9 C 0.5783(4) 0.2816(3) 0.0157(8)
H16_9 H 0.5563 0.2538 0.0036
C28_9 C 0.6412(4) 0.3631(3) 0.0478(8)
H18_9 H 0.6628 0.3909 0.0631
C29_9 C 0.6265(4) 0.3318(3) 0.1368(6)
H19_9 H 0.6392 0.3395 0.2116
C20_9 C 0.6431(4) 0.4023(2) 0.6311(7)
H12_9 H 0.6403 0.3911 0.5546
C21_9 C 0.6317(3) 0.3702(3) 0.7201(7)
H13_9 H 0.6212 0.3382 0.7035
C22_9 C 0.6358(3) 0.3858(3) 0.8350(7)
C23_9 C 0.6509(4) 0.4339(3) 0.8530(8)
H14_9 H 0.6547 0.4460 0.9285
C24_9 C 0.6602(4) 0.4637(3) 0.7585(8)
H15_9 H 0.6683 0.4963 0.7726
C26_9 C 0.5907(4) 0.3098(3) 0.9191(8)
H17_9 H 0.5777 0.3008 0.8453
C27_9 C 0.6235(4) 0.3525(3) 0.9349(7)
C22_10 C 0.6142(3) 0.6358(3) 0.0850(7)
C23_10 C 0.5991(4) 0.6839(3) 0.1030(8)
H14_10 H 0.5953 0.6960 0.1785
C24_10 C 0.5898(4) 0.7137(3) 0.0085(8)
H15_10 H 0.5817 0.7463 0.0226
C25_10 C 0.6717(4) 0.5316(3) 0.2657(8)
H16_10 H 0.6937 0.5038 0.2536
C26_10 C 0.6593(4) 0.5598(3) 0.1691(8)
H17_10 H 0.6723 0.5508 0.0953
C27_10 C 0.6265(4) 0.6025(3) 0.1849(7)
C28_10 C 0.6088(4) 0.6131(3) 0.2978(8)
H18_10 H 0.5872 0.6409 0.3131
C29_10 C 0.6235(4) 0.5818(3) 0.3868(6)
H19_10 H 0.6108 0.5895 0.4616
C20_10 C 0.6069(4) 0.6523(2) 0.8811(7)
H12_10 H 0.6097 0.6411 0.8046
C21_10 C 0.6183(3) 0.6202(3) 0.9701(7)
H13_10 H 0.6288 0.5882 0.9535
loop_
_geom_bond_atom_site_label_1
_geom_bond_atom_site_label_2
_geom_bond_site_symmetry_1
_geom_bond_site_symmetry_2
C23 C22 1_555 1_555
H14 C23 1_555 1_555
H15 C24 1_555 1_555
C25 N5 1_555 1_555
H16 C25 1_555 1_555
C26 C25 1_555 1_555
H17 C26 1_555 1_555
C27 C22 1_555 1_555
C28 C27 1_555 1_555
H18 C28 1_555 1_555
C29 N5 1_555 1_555
H19 C29 1_555 1_555
C23 C24 1_555 1_555
C26 C27 1_555 1_555
C28 C29 1_555 1_555
Cu6 N3 1_555 1_555
N3 C20 1_555 1_555
C20 H12 1_555 1_555
C21 C20 1_555 1_555
H13 C21 1_555 1_555
N2 C6 1_555 1_555
C6 H5 1_555 1_555
H7 C9 1_555 1_555
C10 N2 1_555 1_555
H8 C10 1_555 1_555
Cu4 N2 1_555 1_555
C9 C10 1_555 1_555
Cu1 O1 1_555 1_555
O1 C18 1_555 1_555
O2 C18 1_555 1_555
O3 C19 1_555 1_555
O4 C19 1_555 1_555
O5 C17 1_555 1_555
N1 Cu1 1_555 1_555
C1 N1 1_555 1_555
H1 C1 1_555 1_555
C2 C1 1_555 1_555
H2 C2 1_555 1_555
C3 C2 1_555 1_555
C4 C3 1_555 1_555
H3 C4 1_555 1_555
C5 N1 1_555 1_555
H4 C5 1_555 1_555
H6 C7 1_555 1_555
C8 C3 1_555 1_555
C11 H9 1_555 1_555
C12 C11 1_555 1_555
C13 C12 1_555 1_555
C14 C13 1_555 1_555
H10 C14 1_555 1_555
C15 C14 1_555 1_555
H11 C15 1_555 1_555
C16 C11 1_555 1_555
C17 C16 1_555 1_555
C18 C12 1_555 1_555
C19 C13 1_555 1_555
Cu2 O6 1_555 1_555
Cu5 O9 1_555 1_555
O6 C36 1_555 1_555
O7 C36 1_555 1_555
O8 C37 1_555 1_555
O9 C37 1_555 1_555
O11 Cu2 1_555 1_555
N4 Cu2 1_555 1_555
N6 Cu2 1_555 1_555
C30 H20 1_555 1_555
C31 C30 1_555 1_555
C32 C31 1_555 1_555
C33 C32 1_555 1_555
H21 C33 1_555 1_555
C34 C33 1_555 1_555
H22 C34 1_555 1_555
C35 C17 1_555 1_555
C36 C31 1_555 1_555
C37 C32 1_555 1_555
C4 C5 1_555 1_555
C7 C8 1_555 1_555
C15 C16 1_555 1_555
C30 C35 1_555 1_555
C34 C35 1_555 1_555
N2_2 C6_2 1_555 1_555
C6_2 H5_2 1_555 1_555
H7_2 C9_2 1_555 1_555
C10_2 N2_2 1_555 1_555
H8_2 C10_2 1_555 1_555
Cu4_2 N2_2 1_555 1_555
C9_2 C10_2 1_555 1_555
Cu1_2 O1_2 1_555 1_555
O1_2 C18_2 1_555 1_555
O2_2 C18_2 1_555 1_555
O3_2 C19_2 1_555 1_555
O4_2 C19_2 1_555 1_555
O5_2 C17_2 1_555 1_555
N1_2 Cu1_2 1_555 1_555
C1_2 N1_2 1_555 1_555
H1_2 C1_2 1_555 1_555
C2_2 C1_2 1_555 1_555
H2_2 C2_2 1_555 1_555
C3_2 C2_2 1_555 1_555
C4_2 C3_2 1_555 1_555
H3_2 C4_2 1_555 1_555
C5_2 N1_2 1_555 1_555
H4_2 C5_2 1_555 1_555
H6_2 C7_2 1_555 1_555
C8_2 C3_2 1_555 1_555
C11_2 H9_2 1_555 1_555
C12_2 C11_2 1_555 1_555
C13_2 C12_2 1_555 1_555
C14_2 C13_2 1_555 1_555
H10_2 C14_2 1_555 1_555
C15_2 C14_2 1_555 1_555
H11_2 C15_2 1_555 1_555
C16_2 C11_2 1_555 1_555
C17_2 C16_2 1_555 1_555
C18_2 C12_2 1_555 1_555
C19_2 C13_2 1_555 1_555
Cu2_2 O6_2 1_555 1_555
Cu5_2 O9_2 1_555 1_555
O6_2 C36_2 1_555 1_555
O7_2 C36_2 1_555 1_555
O8_2 C37_2 1_555 1_555
O9_2 C37_2 1_555 1_555
O11_2 Cu2_2 1_555 1_555
N4_2 Cu2_2 1_555 1_555
N6_2 Cu2_2 1_555 1_555
C30_2 H20_2 1_555 1_555
C31_2 C30_2 1_555 1_555
C32_2 C31_2 1_555 1_555
C33_2 C32_2 1_555 1_555
H21_2 C33_2 1_555 1_555
C34_2 C33_2 1_555 1_555
H22_2 C34_2 1_555 1_555
C35_2 C17_2 1_555 1_555
C36_2 C31_2 1_555 1_555
C37_2 C32_2 1_555 1_555
C4_2 C5_2 1_555 1_555
C7_2 C8_2 1_555 1_555
C15_2 C16_2 1_555 1_555
C30_2 C35_2 1_555 1_555
C34_2 C35_2 1_555 1_555
C23_2 C22_2 1_555 1_555
H14_2 C23_2 1_555 1_555
H15_2 C24_2 1_555 1_555
C25_2 N5_2 1_555 1_555
H16_2 C25_2 1_555 1_555
C26_2 C25_2 1_555 1_555
H17_2 C26_2 1_555 1_555
C27_2 C22_2 1_555 1_555
C28_2 C27_2 1_555 1_555
H18_2 C28_2 1_555 1_555
C29_2 N5_2 1_555 1_555
H19_2 C29_2 1_555 1_555
C23_2 C24_2 1_555 1_555
C26_2 C27_2 1_555 1_555
C28_2 C29_2 1_555 1_555
Cu6_2 N3_2 1_555 1_555
N3_2 C20_2 1_555 1_555
C20_2 H12_2 1_555 1_555
C21_2 C20_2 1_555 1_555
H13_2 C21_2 1_555 1_555
N6 C6_3 1_555 1_555
C4_3 C3_3 1_555 1_555
H3_3 C4_3 1_555 1_555
H4_3 C5_3 1_555 1_555
C6_3 H5_3 1_555 1_555
C7_3 C6_3 1_555 1_555
H6_3 C7_3 1_555 1_555
C8_3 C3_3 1_555 1_555
C9_3 C8_3 1_555 1_555
H7_3 C9_3 1_555 1_555
C10_3 N6 1_555 1_555
H8_3 C10_3 1_555 1_555
C4_3 C5_3 1_555 1_555
C7_3 C8_3 1_555 1_555
C9_3 C10_3 1_555 1_555
Cu1_3 O1_3 1_555 1_555
O1_3 C18_3 1_555 1_555
O2_3 C18_3 1_555 1_555
O3_3 C19_3 1_555 1_555
O4_3 C19_3 1_555 1_555
O5_3 C17_3 1_555 1_555
N1_3 Cu1_3 1_555 1_555
C1_3 N1_3 1_555 1_555
H1_3 C1_3 1_555 1_555
C2_3 C1_3 1_555 1_555
H2_3 C2_3 1_555 1_555
C11_3 H9_3 1_555 1_555
C12_3 C11_3 1_555 1_555
C13_3 C12_3 1_555 1_555
C14_3 C13_3 1_555 1_555
H10_3 C14_3 1_555 1_555
C15_3 C14_3 1_555 1_555
H11_3 C15_3 1_555 1_555
C16_3 C11_3 1_555 1_555
C17_3 C16_3 1_555 1_555
C18_3 C12_3 1_555 1_555
C19_3 C13_3 1_555 1_555
Cu2_3 O6_3 1_555 1_555
Cu3_3 O4_3 1_555 1_555
Cu5_3 O9_3 1_555 1_555
Cu3 N3_3 1_555 1_555
O6_3 C36_3 1_555 1_555
O7_3 C36_3 1_555 1_555
O8_3 C37_3 1_555 1_555
O9_3 C37_3 1_555 1_555
O10_3 Cu1_3 1_555 1_555
O11_3 Cu2_3 1_555 1_555
N3_3 C20_3 1_555 1_555
N4_3 Cu2_3 1_555 1_555
N5_3 Cu1_3 1_555 1_555
N6_3 Cu2_3 1_555 1_555
C20_3 H12_3 1_555 1_555
C21_3 C20_3 1_555 1_555
H13_3 C21_3 1_555 1_555
C22_3 C21_3 1_555 1_555
C23_3 C22_3 1_555 1_555
H14_3 C23_3 1_555 1_555
C24_3 N3_3 1_555 1_555
H15_3 C24_3 1_555 1_555
C25_3 N5_3 1_555 1_555
H16_3 C25_3 1_555 1_555
C26_3 C25_3 1_555 1_555
H17_3 C26_3 1_555 1_555
C27_3 C22_3 1_555 1_555
C28_3 C27_3 1_555 1_555
H18_3 C28_3 1_555 1_555
C29_3 N5_3 1_555 1_555
H19_3 C29_3 1_555 1_555
C30_3 H20_3 1_555 1_555
C31_3 C30_3 1_555 1_555
C32_3 C31_3 1_555 1_555
C33_3 C32_3 1_555 1_555
H21_3 C33_3 1_555 1_555
C34_3 C33_3 1_555 1_555
H22_3 C34_3 1_555 1_555
C35_3 C17_3 1_555 1_555
C36_3 C31_3 1_555 1_555
C37_3 C32_3 1_555 1_555
C15_3 C16_3 1_555 1_555
C23_3 C24_3 1_555 1_555
C26_3 C27_3 1_555 1_555
C28_3 C29_3 1_555 1_555
C30_3 C35_3 1_555 1_555
C34_3 C35_3 1_555 1_555
Cu6 O1_4 1_555 1_555
O1_4 C18_4 1_555 1_555
O5_4 C17_4 1_555 1_555
C11_4 H9_4 1_555 1_555
C12_4 C11_4 1_555 1_555
C18_4 C12_4 1_555 1_555
Cu5 N3_4 1_555 1_555
O10_4 Cu6 1_555 1_555
N3_4 C20_4 1_555 1_555
N5_4 Cu6 1_555 1_555
C20_4 H12_4 1_555 1_555
C21_4 C20_4 1_555 1_555
H13_4 C21_4 1_555 1_555
C22_4 C21_4 1_555 1_555
C23_4 C22_4 1_555 1_555
H14_4 C23_4 1_555 1_555
C24_4 N3_4 1_555 1_555
H15_4 C24_4 1_555 1_555
C25_4 N5_4 1_555 1_555
H16_4 C25_4 1_555 1_555
C26_4 C25_4 1_555 1_555
H17_4 C26_4 1_555 1_555
C27_4 C22_4 1_555 1_555
C28_4 C27_4 1_555 1_555
H18_4 C28_4 1_555 1_555
C29_4 N5_4 1_555 1_555
H19_4 C29_4 1_555 1_555
C23_4 C24_4 1_555 1_555
C26_4 C27_4 1_555 1_555
C28_4 C29_4 1_555 1_555
O5_5 C17_5 1_555 1_555
Cu4 O9_4 1_555 1_555
O9_4 C37_4 1_555 1_555
C33_4 C32_4 1_555 1_555
H21_4 C33_4 1_555 1_555
C34_4 C33_4 1_555 1_555
H22_4 C34_4 1_555 1_555
C35_4 C17_5 1_555 1_555
C37_4 C32_4 1_555 1_555
C34_4 C35_4 1_555 1_555
O4_4 C19_4 1_555 1_555
O5_6 C17_6 1_555 1_555
C14_4 C13_4 1_555 1_555
H10_4 C14_4 1_555 1_555
C15_4 C14_4 1_555 1_555
H11_4 C15_4 1_555 1_555
C17_6 C16_4 1_555 1_555
C19_4 C13_4 1_555 1_555
Cu4_2 O4_4 1_555 1_555
C15_4 C16_4 1_555 1_555
O5_7 C17_7 1_555 1_555
Cu6_2 O6_4 1_555 1_555
O6_4 C36_4 1_555 1_555
O11_4 Cu6_2 1_555 1_555
N6_4 Cu6_2 1_555 1_555
C30_4 H20_4 1_555 1_555
C31_4 C30_4 1_555 1_555
C36_4 C31_4 1_555 1_555
O1_5 C18_5 1_555 1_555
O2_5 C18_5 1_555 1_555
O3_5 C19_5 1_555 1_555
O11 C19_5 1_555 1_555
O5_8 C17_8 1_555 1_555
C11_5 H9_5 1_555 1_555
C12_5 C11_5 1_555 1_555
C13_5 C12_5 1_555 1_555
C14_5 C13_5 1_555 1_555
H10_5 C14_5 1_555 1_555
C15_5 C14_5 1_555 1_555
H11_5 C15_5 1_555 1_555
C16_5 C11_5 1_555 1_555
C17_8 C16_5 1_555 1_555
C18_5 C12_5 1_555 1_555
C19_5 C13_5 1_555 1_555
Cu4 N3_5 1_555 1_555
O6_5 C36_5 1_555 1_555
O7_5 C36_5 1_555 1_555
O8_5 C37_5 1_555 1_555
O10 C37_5 1_555 1_555
N3_5 C20_5 1_555 1_555
C20_5 H12_5 1_555 1_555
C21_5 C20_5 1_555 1_555
H13_5 C21_5 1_555 1_555
C22_5 C21_5 1_555 1_555
C23_5 C22_5 1_555 1_555
H14_5 C23_5 1_555 1_555
C24_5 N3_5 1_555 1_555
H15_5 C24_5 1_555 1_555
C25_5 N5_5 1_555 1_555
H16_5 C25_5 1_555 1_555
C26_5 C25_5 1_555 1_555
H17_5 C26_5 1_555 1_555
C27_5 C22_5 1_555 1_555
C28_5 C27_5 1_555 1_555
H18_5 C28_5 1_555 1_555
C29_5 N5_5 1_555 1_555
H19_5 C29_5 1_555 1_555
C30_5 H20_5 1_555 1_555
C31_5 C30_5 1_555 1_555
C32_5 C31_5 1_555 1_555
C33_5 C32_5 1_555 1_555
H21_5 C33_5 1_555 1_555
C34_5 C33_5 1_555 1_555
H22_5 C34_5 1_555 1_555
C35_5 C17_8 1_555 1_555
C36_5 C31_5 1_555 1_555
C37_5 C32_5 1_555 1_555
C15_5 C16_5 1_555 1_555
C23_5 C24_5 1_555 1_555
C26_5 C27_5 1_555 1_555
C28_5 C29_5 1_555 1_555
C30_5 C35_5 1_555 1_555
C34_5 C35_5 1_555 1_555
N1_4 Cu5_2 1_555 1_555
N6_4 C6_4 1_555 1_555
C1_4 N1_4 1_555 1_555
H1_4 C1_4 1_555 1_555
C2_4 C1_4 1_555 1_555
H2_4 C2_4 1_555 1_555
C3_4 C2_4 1_555 1_555
C4_4 C3_4 1_555 1_555
H3_4 C4_4 1_555 1_555
C5_4 N1_4 1_555 1_555
H4_4 C5_4 1_555 1_555
C6_4 H5_4 1_555 1_555
C7_4 C6_4 1_555 1_555
H6_4 C7_4 1_555 1_555
C8_4 C3_4 1_555 1_555
C9_4 C8_4 1_555 1_555
H7_4 C9_4 1_555 1_555
C10_4 N6_4 1_555 1_555
H8_4 C10_4 1_555 1_555
N4_4 Cu3_2 1_555 1_555
C4_4 C5_4 1_555 1_555
C7_4 C8_4 1_555 1_555
C9_4 C10_4 1_555 1_555
O1_6 C18_6 1_555 1_555
O2_6 C18_6 1_555 1_555
O3_6 C19_6 1_555 1_555
O11_2 C19_6 1_555 1_555
O5_9 C17_9 1_555 1_555
C11_6 H9_6 1_555 1_555
C12_6 C11_6 1_555 1_555
C13_6 C12_6 1_555 1_555
C14_6 C13_6 1_555 1_555
H10_6 C14_6 1_555 1_555
C15_6 C14_6 1_555 1_555
H11_6 C15_6 1_555 1_555
C16_6 C11_6 1_555 1_555
C17_9 C16_6 1_555 1_555
C18_6 C12_6 1_555 1_555
C19_6 C13_6 1_555 1_555
Cu4_2 N3_6 1_555 1_555
O6_6 C36_6 1_555 1_555
O7_6 C36_6 1_555 1_555
O8_6 C37_6 1_555 1_555
O10_2 C37_6 1_555 1_555
N3_6 C20_6 1_555 1_555
C20_6 H12_6 1_555 1_555
C21_6 C20_6 1_555 1_555
H13_6 C21_6 1_555 1_555
C22_6 C21_6 1_555 1_555
C23_6 C22_6 1_555 1_555
H14_6 C23_6 1_555 1_555
C24_6 N3_6 1_555 1_555
H15_6 C24_6 1_555 1_555
C25_6 N5_6 1_555 1_555
H16_6 C25_6 1_555 1_555
C26_6 C25_6 1_555 1_555
H17_6 C26_6 1_555 1_555
C27_6 C22_6 1_555 1_555
C28_6 C27_6 1_555 1_555
H18_6 C28_6 1_555 1_555
C29_6 N5_6 1_555 1_555
H19_6 C29_6 1_555 1_555
C30_6 H20_6 1_555 1_555
C31_6 C30_6 1_555 1_555
C32_6 C31_6 1_555 1_555
C33_6 C32_6 1_555 1_555
H21_6 C33_6 1_555 1_555
C34_6 C33_6 1_555 1_555
H22_6 C34_6 1_555 1_555
C35_6 C17_9 1_555 1_555
C36_6 C31_6 1_555 1_555
C37_6 C32_6 1_555 1_555
C15_6 C16_6 1_555 1_555
C23_6 C24_6 1_555 1_555
C26_6 C27_6 1_555 1_555
C28_6 C29_6 1_555 1_555
C30_6 C35_6 1_555 1_555
C34_6 C35_6 1_555 1_555
O5_10 C17_10 1_555 1_555
Cu3_3 O6_7 1_555 1_555
O6_7 C36_7 1_555 1_555
O7_7 C36_7 1_555 1_555
N4_5 Cu3_3 1_555 1_555
N6_7 Cu3_3 1_555 1_555
C30_7 H20_7 1_555 1_555
C31_7 C30_7 1_555 1_555
C35_7 C17_10 1_555 1_555
C36_7 C31_7 1_555 1_555
C30_7 C35_7 1_555 1_555
O8_7 C37_7 1_555 1_555
O10_3 C37_7 1_555 1_555
C33_7 C32_7 1_555 1_555
H21_7 C33_7 1_555 1_555
C34_7 C33_7 1_555 1_555
H22_7 C34_7 1_555 1_555
C37_7 C32_7 1_555 1_555
Cu5_3 O1_7 1_555 1_555
O1_7 C18_7 1_555 1_555
O2_7 C18_7 1_555 1_555
O5_11 C17_11 1_555 1_555
N1_5 Cu5_3 1_555 1_555
N6_5 C6_5 1_555 1_555
C1_5 N1_5 1_555 1_555
H1_5 C1_5 1_555 1_555
C2_5 C1_5 1_555 1_555
H2_5 C2_5 1_555 1_555
C3_5 C2_5 1_555 1_555
C4_5 C3_5 1_555 1_555
H3_5 C4_5 1_555 1_555
C5_5 N1_5 1_555 1_555
H4_5 C5_5 1_555 1_555
C6_5 H5_5 1_555 1_555
C7_5 C6_5 1_555 1_555
H6_5 C7_5 1_555 1_555
C8_5 C3_5 1_555 1_555
C9_5 C8_5 1_555 1_555
H7_5 C9_5 1_555 1_555
C10_5 N6_5 1_555 1_555
H8_5 C10_5 1_555 1_555
C11_7 H9_7 1_555 1_555
C12_7 C11_7 1_555 1_555
C16_7 C11_7 1_555 1_555
C17_11 C16_7 1_555 1_555
C18_7 C12_7 1_555 1_555
N5_7 Cu5_3 1_555 1_555
C25_7 N5_7 1_555 1_555
H16_7 C25_7 1_555 1_555
H18_7 C28_7 1_555 1_555
C29_7 N5_7 1_555 1_555
H19_7 C29_7 1_555 1_555
C4_5 C5_5 1_555 1_555
C7_5 C8_5 1_555 1_555
C9_5 C10_5 1_555 1_555
C28_7 C29_7 1_555 1_555
O3_7 C19_7 1_555 1_555
O11_3 C19_7 1_555 1_555
C14_7 C13_7 1_555 1_555
H10_7 C14_7 1_555 1_555
C15_7 C14_7 1_555 1_555
H11_7 C15_7 1_555 1_555
C19_7 C13_7 1_555 1_555
N4 C20_7 1_555 1_555
C20_7 H12_7 1_555 1_555
C21_7 C20_7 1_555 1_555
H13_7 C21_7 1_555 1_555
C22_7 C21_7 1_555 1_555
C23_7 C22_7 1_555 1_555
H14_7 C23_7 1_555 1_555
C24_7 N4 1_555 1_555
H15_7 C24_7 1_555 1_555
H17_7 C26_7 1_555 1_555
C27_7 C22_7 1_555 1_555
C23_7 C24_7 1_555 1_555
C26_7 C27_7 1_555 1_555
Cu4 O1_8 1_555 1_555
O1_8 C18_8 1_555 1_555
O5_12 C17_12 1_555 1_555
C11_8 H9_8 1_555 1_555
C12_8 C11_8 1_555 1_555
C18_8 C12_8 1_555 1_555
C35_8 C17_12 1_555 1_555
O10_4 C37_8 1_555 1_555
C33_8 C32_8 1_555 1_555
H21_8 C33_8 1_555 1_555
C34_8 C33_8 1_555 1_555
H22_8 C34_8 1_555 1_555
C37_8 C32_8 1_555 1_555
O5_13 C17_13 1_555 1_555
C17_13 C16_8 1_555 1_555
Cu4_2 O6_8 1_555 1_555
O6_8 C36_8 1_555 1_555
C30_8 H20_8 1_555 1_555
C31_8 C30_8 1_555 1_555
C36_8 C31_8 1_555 1_555
O11_4 C19_8 1_555 1_555
C14_8 C13_8 1_555 1_555
H10_8 C14_8 1_555 1_555
C15_8 C14_8 1_555 1_555
H11_8 C15_8 1_555 1_555
C19_8 C13_8 1_555 1_555
N4_5 C20_8 1_555 1_555
C20_8 H12_8 1_555 1_555
C21_8 C20_8 1_555 1_555
H13_8 C21_8 1_555 1_555
C22_8 C21_8 1_555 1_555
C23_8 C22_8 1_555 1_555
H14_8 C23_8 1_555 1_555
C24_8 N4_5 1_555 1_555
H15_8 C24_8 1_555 1_555
C25_8 N6_6 1_555 1_555
H16_8 C25_8 1_555 1_555
C26_8 C25_8 1_555 1_555
H17_8 C26_8 1_555 1_555
C27_8 C22_8 1_555 1_555
C28_8 C27_8 1_555 1_555
H18_8 C28_8 1_555 1_555
C29_8 N6_6 1_555 1_555
H19_8 C29_8 1_555 1_555
C23_8 C24_8 1_555 1_555
C26_8 C27_8 1_555 1_555
C28_8 C29_8 1_555 1_555
N6_3 C6_6 1_555 1_555
C1_6 N4_4 1_555 1_555
H1_6 C1_6 1_555 1_555
C2_6 C1_6 1_555 1_555
H2_6 C2_6 1_555 1_555
C3_6 C2_6 1_555 1_555
C4_6 C3_6 1_555 1_555
H3_6 C4_6 1_555 1_555
C5_6 N4_4 1_555 1_555
H4_6 C5_6 1_555 1_555
C6_6 H5_6 1_555 1_555
C7_6 C6_6 1_555 1_555
H6_6 C7_6 1_555 1_555
C8_6 C3_6 1_555 1_555
C9_6 C8_6 1_555 1_555
H7_6 C9_6 1_555 1_555
C10_6 N6_3 1_555 1_555
H8_6 C10_6 1_555 1_555
C4_6 C5_6 1_555 1_555
C7_6 C8_6 1_555 1_555
C9_6 C10_6 1_555 1_555
C25_9 N6_7 1_555 1_555
H16_9 C25_9 1_555 1_555
H18_9 C28_9 1_555 1_555
C29_9 N6_7 1_555 1_555
H19_9 C29_9 1_555 1_555
C28_9 C29_9 1_555 1_555
N4_2 C20_9 1_555 1_555
C20_9 H12_9 1_555 1_555
C21_9 C20_9 1_555 1_555
H13_9 C21_9 1_555 1_555
C22_9 C21_9 1_555 1_555
C23_9 C22_9 1_555 1_555
H14_9 C23_9 1_555 1_555
C24_9 N4_2 1_555 1_555
H15_9 C24_9 1_555 1_555
H17_9 C26_9 1_555 1_555
C27_9 C22_9 1_555 1_555
C23_9 C24_9 1_555 1_555
C26_9 C27_9 1_555 1_555
C23_10 C22_10 1_555 1_555
H14_10 C23_10 1_555 1_555
H15_10 C24_10 1_555 1_555
C25_10 N6_2 1_555 1_555
H16_10 C25_10 1_555 1_555
C26_10 C25_10 1_555 1_555
H17_10 C26_10 1_555 1_555
C27_10 C22_10 1_555 1_555
C28_10 C27_10 1_555 1_555
H18_10 C28_10 1_555 1_555
C29_10 N6_2 1_555 1_555
H19_10 C29_10 1_555 1_555
C23_10 C24_10 1_555 1_555
C26_10 C27_10 1_555 1_555
C28_10 C29_10 1_555 1_555
N4_3 C20_10 1_555 1_555
C20_10 H12_10 1_555 1_555
C21_10 C20_10 1_555 1_555
H13_10 C21_10 1_555 1_555

#END
