
###############################################################################
#
# This file contains modified crystal structure data generated from the
# MOF subset of the Cambridge Structural Database (CSD) v543 
# hosted by the Cambridge Crystallographic Data Centre (CCDC).
#
# This work is licensed under the Creative Commons
# Attribution-NonCommercial-ShareAlike 4.0 International License.
# To view a copy of this license, visit
# http://creativecommons.org/licenses/by-nc-sa/4.0/
# or send a letter to
# Creative Commons, PO Box 1866, Mountain View, CA 94042, USA.
#
# CIF created using the CSD Python API on 29 September 2022
# The structure has been converted into the P1 space group
# The structure has a 3D framework
# The original CSD entry LEMVOP is in the monoclinic crystal system
# The framework has been calculated to contain at least 10.0% void space
# The void calculation uses a probe of radius 1.32A, grid spacing 0.4
#
###############################################################################

data_LEMVOP
_chemical_formula_moiety         '(C192 H208 N128 Pr16)n'
_symmetry_cell_setting           triclinic
_symmetry_space_group_name_H-M   'P 1'
_symmetry_Int_Tables_number      1
_space_group_name_Hall           'P 1'
loop_
_symmetry_equiv_pos_site_id
_symmetry_equiv_pos_as_xyz
1 x,y,z
_cell_length_a                   23.292(5)
_cell_length_b                   14.004(3)
_cell_length_c                   23.479(5)
_cell_angle_alpha                90
_cell_angle_beta                 107.51(3)
_cell_angle_gamma                90
_cell_volume                     7303.55
loop_
_atom_site_label
_atom_site_type_symbol
_atom_site_fract_x
_atom_site_fract_y
_atom_site_fract_z
Pr2 Pr 0.25737(3) 0.14154(4) 0.20995(3)
N2 N 0.3575(5) 0.0554(8) 0.2370(5)
Pr3 Pr 0.74751(3) 0.05789(4) 0.29188(3)
C3 C 0.3921(6) 0.0456(10) 0.2945(6)
H3 H 0.3911 0.0870 0.3263
N6 N 0.6347(5) 0.0287(8) 0.2518(5)
C8 C 0.5347(6) 0.0399(10) 0.2311(7)
H8 H 0.4957 0.0650 0.2264
C9 C 0.5876(6) 0.0896(10) 0.2524(7)
H9 H 0.5915 0.1543 0.2653
N15 N 0.2692(5) 0.3160(7) 0.2414(5)
N16 N 0.2729(5) 0.4699(7) 0.2713(4)
N17 N 0.2635(5) 0.1395(7) 0.3229(5)
N18 N 0.2583(5) 0.1870(7) 0.4146(5)
N19 N 0.2204(5) 0.0717(8) 0.1065(5)
N21 N 0.3148(5) 0.2313(8) 0.1456(5)
C22 C 0.3170(7) 0.3192(11) 0.0674(6)
H23 H 0.3094 0.3685 0.0383
C23 C 0.2376(6) 0.3993(9) 0.2451(6)
H24 H 0.1951 0.4044 0.2303
N22 N 0.7256(4) 0.2263(7) 0.2531(4)
C24 C 0.3277(6) 0.3409(9) 0.2671(6)
H25 H 0.3612 0.2996 0.2716
N23 N 0.7386(5) 0.3842(7) 0.2344(5)
C25 C 0.3315(6) 0.4333(9) 0.2855(6)
H26 H 0.3675 0.4672 0.3046
N24 N 0.7618(5) 0.0615(7) 0.1852(5)
C26 C 0.2497(6) 0.2105(10) 0.3553(5)
H27 H 0.2355 0.2711 0.3390
N25 N 0.7745(6) 0.1133(8) 0.0983(5)
C27 C 0.2805(7) 0.0659(9) 0.3636(6)
H28 H 0.2927 0.0043 0.3548
C28 C 0.2775(6) 0.0936(9) 0.4184(6)
H29 H 0.2870 0.0549 0.4532
N28 N 0.7107(5) 0.1519(8) 0.3718(5)
C30 C 0.2095(8) 0.1222(11) 0.0544(7)
H31 H 0.2029 0.1891 0.0502
N29 N 0.6535(6) 0.1661(9) 0.4313(6)
H32 H 0.6359 0.1515 0.4585
C31 C 0.2098(8) 0.0607(10) 0.0093(6)
C32 C 0.2965(7) 0.3161(10) 0.1148(6)
H34 H 0.2730 0.3643 0.1256
C33 C 0.3488(7) 0.1878(10) 0.1171(6)
H36 H 0.3690 0.1288 0.1288
N32 N 0.3503(6) 0.2407(9) 0.0681(5)
H37 H 0.3694 0.2259 0.0422
C34 C 0.7632(6) 0.3011(9) 0.2620(5)
H38 H 0.8041 0.2967 0.2858
C35 C 0.6726(6) 0.2662(10) 0.2160(6)
H39 H 0.6361 0.2319 0.1999
C36 C 0.6798(6) 0.3598(9) 0.2061(6)
H40 H 0.6494 0.4017 0.1833
C37 C 0.7460(6) 0.1228(9) 0.1401(5)
H41 H 0.7163 0.1706 0.1375
C38 C 0.8071(6) 0.0059(10) 0.1732(6)
C39 C 0.8151(6) 0.0383(10) 0.1212(6)
H43 H 0.8436 0.0140 0.1033
H45 H 0.8446 0.0341 0.4585
C43 C 0.6880(7) 0.1099(10) 0.4105(6)
H47 H 0.6957 0.0451 0.4223
C44 C 0.6859(8) 0.2431(12) 0.3671(8)
H48 H 0.6930 0.2926 0.3424
C45 C 0.6505(7) 0.2508(12) 0.4026(7)
H49 H 0.6277 0.3052 0.4068
Pr6 Pr 0.24263(3) 0.64154(4) 0.29005(3)
Pr8 Pr 0.75249(3) 0.55789(4) 0.20812(3)
Pr10 Pr 0.27652(3) 0.29937(5) 0.50359(3)
Pr11 Pr 0.77652(3) 0.20063(5) 0.00359(3)
N33 N 0.1469(5) 0.1814(7) 0.1812(5)
N34 N 0.8547(5) 0.1228(8) 0.3217(5)
Pr1 Pr 0.48900(3) 0.79654(5) 0.22635(3)
N1 N 0.4196(5) 0.9289(7) 0.2442(5)
C1 C 0.3764(5) 0.9814(9) 0.2087(6)
H1 H 0.3598 0.9690 0.1672
C2 C 0.4286(6) 0.9680(10) 0.3002(6)
H2 H 0.4555 0.9447 0.3364
N3 N 0.4385(4) 0.7327(7) 0.2996(5)
Pr4 Pr 0.72348(3) 0.70063(5) 0.49641(3)
N4 N 0.3531(5) 0.6814(7) 0.3188(5)
C4 C 0.3788(6) 0.7323(8) 0.2858(5)
H4 H 0.3550 0.7680 0.2527
N5 N 0.5470(4) 0.9477(7) 0.2175(5)
C5 C 0.4536(6) 0.6729(9) 0.3496(7)
H5 H 0.4937 0.6572 0.3719
C6 C 0.4042(6) 0.6401(10) 0.3625(6)
H6 H 0.4035 0.5982 0.3941
N7 N 0.5713(4) 0.7195(7) 0.1910(4)
C7 C 0.6072(5) 0.9471(9) 0.2320(6)
H7 H 0.6290 0.8913 0.2283
N8 N 0.6453(5) 0.6228(8) 0.1783(5)
N9 N 0.5698(4) 0.8120(8) 0.3254(5)
N10 N 0.6364(5) 0.7759(8) 0.4165(5)
C10 C 0.6148(6) 0.6547(9) 0.2152(6)
H10 H 0.6233 0.6332 0.2552
N11 N 0.4252(5) 0.8319(7) 0.1202(4)
C11 C 0.5775(6) 0.7334(9) 0.1348(5)
H11 H 0.5549 0.7776 0.1060
N12 N 0.3342(5) 0.8351(8) 0.0497(5)
C12 C 0.6208(6) 0.6740(10) 0.1269(7)
H12 H 0.6322 0.6690 0.0914
N13 N 0.4497(5) 0.6234(8) 0.1874(5)
C13 C 0.6038(6) 0.7451(10) 0.3609(6)
H13 H 0.6051 0.6809 0.3482
N14 N 0.3980(6) 0.4880(9) 0.1720(6)
H14 H 0.3737 0.4424 0.1763
C14 C 0.5802(6) 0.8906(10) 0.3621(6)
H15 H 0.5629 0.9520 0.3515
C15 C 0.6198(6) 0.8663(9) 0.4171(5)
H16 H 0.6330 0.9081 0.4504
C16 C 0.3721(6) 0.7895(10) 0.0959(5)
H17 H 0.3618 0.7307 0.1106
C17 C 0.4217(6) 0.9105(9) 0.0868(6)
H18 H 0.4526 0.9569 0.0916
C18 C 0.3661(7) 0.9134(10) 0.0441(6)
H19 H 0.3523 0.9626 0.0153
C19 C 0.4129(7) 0.5698(9) 0.2054(7)
H20 H 0.3981 0.5854 0.2378
N20 N 0.2222(5) 0.9697(8) 0.0322(5)
C20 C 0.4609(7) 0.5763(10) 0.1410(7)
H21 H 0.4867 0.5981 0.1191
C21 C 0.4287(7) 0.4918(10) 0.1307(7)
H22 H 0.4280 0.4455 0.1009
N26 N 0.7816(5) 0.9582(8) 0.3928(5)
N27 N 0.7700(5) 0.8450(8) 0.4559(4)
C29 C 0.2265(7) 0.9805(9) 0.0890(7)
H30 H 0.2334 0.9282 0.1160
N30 N 0.6271(6) 0.6809(9) 0.5306(5)
N31 N 0.5608(6) 0.6696(10) 0.5798(6)
H35 H 0.5440 0.6770 0.6085
H42 H 0.8284 0.9548 0.1970
C40 C 0.7545(5) 0.8797(9) 0.3994(5)
H44 H 0.7260 0.8488 0.3670
C41 C 0.8188(6) 0.9801(9) 0.4486(6)
C42 C 0.8127(6) 0.9110(9) 0.4880(5)
H46 H 0.8337 0.9085 0.5294
C46 C 0.6140(6) 0.7087(11) 0.5788(6)
H50 H 0.6382 0.7499 0.6086
C47 C 0.5781(8) 0.6193(13) 0.4988(7)
H51 H 0.5743 0.5858 0.4626
C48 C 0.5386(8) 0.6190(15) 0.5311(8)
H52 H 0.5008 0.5873 0.5201
N35 N 0.8342(5) 0.6649(8) 0.5497(5)
N36 N 0.2271(5) 0.9699(7) 0.2287(4)
N37 N 0.7417(5) 0.8130(7) 0.5854(5)
N38 N 0.7222(5) 0.5303(8) 0.5322(5)
N39 N 0.7614(5) 0.8842(7) 0.2656(5)
N40 N 0.7255(6) 0.6133(8) 0.4017(5)
Pr9 Pr 0.22348(3) 0.79937(5) 0.99641(3)
Pr1_2 Pr 0.01100(3) 0.29654(5) 0.27365(3)
N1_2 N 0.0804(5) 0.4289(7) 0.2558(5)
C1_2 C 0.1236(5) 0.4814(9) 0.2913(6)
H1_2 H 0.1402 0.4690 0.3328
N2_2 N 0.1425(5) 0.5554(8) 0.2630(5)
C2_2 C 0.0714(6) 0.4680(10) 0.1998(6)
H2_2 H 0.0445 0.4447 0.1636
N3_2 N 0.0615(4) 0.2327(7) 0.2004(5)
C3_2 C 0.1079(6) 0.5456(10) 0.2055(6)
H3_2 H 0.1089 0.5870 0.1737
C4_2 C 0.1212(6) 0.2323(8) 0.2142(5)
H4_2 H 0.1450 0.2680 0.2473
C5_2 C 0.0464(6) 0.1729(9) 0.1504(7)
H5_2 H 0.0063 0.1572 0.1281
C6_2 C 0.0958(6) 0.1401(10) 0.1375(6)
H6_2 H 0.0965 0.0982 0.1059
H8_2 H 0.0043 0.5650 0.2736
N11_2 N 0.0748(5) 0.3319(7) 0.3798(4)
N12_2 N 0.1658(5) 0.3351(8) 0.4503(5)
N13_2 N 0.0503(5) 0.1234(8) 0.3126(5)
N15_2 N 0.2308(5) 0.8160(7) 0.2586(5)
C16_2 C 0.1279(6) 0.2895(10) 0.4041(5)
H17_2 H 0.1382 0.2307 0.3894
N17_2 N 0.2365(5) 0.6395(7) 0.1771(5)
C17_2 C 0.0783(6) 0.4105(9) 0.4132(6)
H18_2 H 0.0474 0.4569 0.4084
N18_2 N 0.2417(5) 0.6870(7) 0.0854(5)
C18_2 C 0.1339(7) 0.4134(10) 0.4559(6)
H19_2 H 0.1477 0.4626 0.4847
N19_2 N 0.2796(5) 0.5717(8) 0.3935(5)
C19_2 C 0.0871(7) 0.0698(9) 0.2946(7)
H20_2 H 0.1019 0.0854 0.2622
N20_2 N 0.2778(5) 0.4697(8) 0.4678(5)
C20_2 C 0.0391(7) 0.0763(10) 0.3590(7)
H21_2 H 0.0133 0.0981 0.3809
N21_2 N 0.1852(5) 0.7313(8) 0.3544(5)
C22_2 C 0.1830(7) 0.8192(11) 0.4326(6)
H23_2 H 0.1906 0.8685 0.4617
C23_2 C 0.2624(6) 0.8993(9) 0.2549(6)
H24_2 H 0.3049 0.9044 0.2697
C24_2 C 0.1723(6) 0.8409(9) 0.2329(6)
H25_2 H 0.1388 0.7996 0.2284
C25_2 C 0.1685(6) 0.9333(9) 0.2145(6)
H26_2 H 0.1325 0.9672 0.1954
C26_2 C 0.2503(6) 0.7105(10) 0.1447(5)
H27_2 H 0.2645 0.7711 0.1610
C27_2 C 0.2195(7) 0.5659(9) 0.1364(6)
H28_2 H 0.2073 0.5043 0.1452
C28_2 C 0.2225(6) 0.5936(9) 0.0816(6)
H29_2 H 0.2130 0.5549 0.0468
C29_2 C 0.2735(7) 0.4805(9) 0.4110(7)
H30_2 H 0.2666 0.4282 0.3840
C30_2 C 0.2905(8) 0.6222(11) 0.4456(7)
H31_2 H 0.2971 0.6891 0.4498
C31_2 C 0.2902(8) 0.5607(10) 0.4907(6)
H33 H 0.2974 0.5778 0.5314
C32_2 C 0.2035(7) 0.8161(10) 0.3852(6)
H34_2 H 0.2270 0.8643 0.3744
C33_2 C 0.1512(7) 0.6878(10) 0.3829(6)
H36_2 H 0.1310 0.6288 0.3712
N32_2 N 0.1497(6) 0.7407(9) 0.4319(5)
H37_2 H 0.1306 0.7259 0.4578
N5_2 N 0.9530(4) 0.4477(7) 0.2825(5)
N6_2 N 0.8653(5) 0.5287(8) 0.2482(5)
N7_2 N 0.9287(4) 0.2195(7) 0.3090(4)
C7_2 C 0.8928(5) 0.4471(9) 0.2680(6)
H7_2 H 0.8710 0.3913 0.2717
C8_2 C 0.9653(6) 0.5399(10) 0.2689(7)
N9_2 N 0.9302(4) 0.3120(8) 0.1746(5)
C9_2 C 0.9124(6) 0.5896(10) 0.2476(7)
H9_2 H 0.9085 0.6543 0.2347
N10_2 N 0.8636(5) 0.2759(8) 0.0835(5)
C10_2 C 0.8852(6) 0.1547(9) 0.2848(6)
H10_2 H 0.8767 0.1332 0.2448
C11_2 C 0.9225(6) 0.2334(9) 0.3652(5)
H11_2 H 0.9451 0.2776 0.3940
C12_2 C 0.8792(6) 0.1740(10) 0.3731(7)
H12_2 H 0.8678 0.1690 0.4086
C13_2 C 0.8962(6) 0.2451(10) 0.1391(6)
H13_2 H 0.8949 0.1809 0.1518
C14_2 C 0.9198(6) 0.3906(10) 0.1379(6)
H15_2 H 0.9371 0.4520 0.1485
C15_2 C 0.8802(6) 0.3663(9) 0.0829(5)
H16_2 H 0.8670 0.4081 0.0496
N22_2 N 0.7744(4) 0.7263(7) 0.2469(4)
N24_2 N 0.7382(5) 0.5615(7) 0.3148(5)
N26_2 N 0.7184(5) 0.4582(8) 0.1072(5)
N27_2 N 0.7300(5) 0.3450(8) 0.0441(4)
N28_2 N 0.7893(5) 0.6519(8) 0.1282(5)
N29_2 N 0.8465(6) 0.6661(9) 0.0687(6)
H32_2 H 0.8641 0.6515 0.0415
C34_2 C 0.7368(6) 0.8011(9) 0.2380(5)
H38_2 H 0.6959 0.7967 0.2142
C35_2 C 0.8274(6) 0.7662(10) 0.2840(6)
H39_2 H 0.8639 0.7319 0.3001
C36_2 C 0.8202(6) 0.8598(9) 0.2939(6)
H40_2 H 0.8506 0.9017 0.3167
C37_2 C 0.7540(6) 0.6228(9) 0.3599(5)
H41_2 H 0.7837 0.6706 0.3625
C38_2 C 0.6929(6) 0.5059(10) 0.3268(6)
H42_2 H 0.6716 0.4548 0.3030
C39_2 C 0.6849(6) 0.5383(10) 0.3788(6)
H43_2 H 0.6564 0.5140 0.3967
C40_2 C 0.7455(5) 0.3797(9) 0.1006(5)
H44_2 H 0.7740 0.3488 0.1330
C41_2 C 0.6812(6) 0.4801(9) 0.0514(6)
H45_2 H 0.6554 0.5341 0.0415
C42_2 C 0.6873(6) 0.4110(9) 0.0120(5)
C43_2 C 0.8120(7) 0.6099(10) 0.0895(6)
H47_2 H 0.8043 0.5451 0.0777
C44_2 C 0.8141(8) 0.7431(12) 0.1329(8)
H48_2 H 0.8070 0.7926 0.1576
C45_2 C 0.8495(7) 0.7508(12) 0.0974(7)
H49_2 H 0.8723 0.8052 0.0932
C47_2 C 0.9219(8) 0.1193(13) 0.0012(7)
H51_2 H 0.9257 0.0858 0.0374
N30_2 N 0.8729(6) 0.1809(9) 0.9694(5)
N31_2 N 0.9392(6) 0.1696(10) 0.9202(6)
H35_2 H 0.9560 0.1770 0.8915
H46_2 H 0.6663 0.4085 0.9706
C46_2 C 0.8860(6) 0.2087(11) 0.9212(6)
H50_2 H 0.8618 0.2499 0.8914
C48_2 C 0.9614(8) 0.1190(15) 0.9689(8)
H52_2 H 0.9992 0.0873 0.9799
N35_2 N 0.6658(5) 0.1649(8) 0.9503(5)
N37_2 N 0.7583(5) 0.3130(7) 0.9146(5)
N38_2 N 0.7778(5) 0.0303(8) 0.9678(5)
Pr1_3 Pr 0.51100(3) 0.20346(5) 0.77365(3)
N1_3 N 0.5804(5) 0.0711(7) 0.7558(5)
C1_3 C 0.6236(5) 0.0186(9) 0.7913(6)
H1_3 H 0.6402 0.0310 0.8328
C2_3 C 0.5714(6) 0.0320(10) 0.6998(6)
H2_3 H 0.5445 0.0553 0.6636
N3_3 N 0.5615(4) 0.2673(7) 0.7004(5)
N4_2 N 0.6469(5) 0.3186(7) 0.6812(5)
C4_3 C 0.6212(6) 0.2677(8) 0.7142(5)
H4_3 H 0.6450 0.2320 0.7473
N5_3 N 0.4530(4) 0.0523(7) 0.7825(5)
C5_3 C 0.5464(6) 0.3271(9) 0.6504(7)
H5_3 H 0.5063 0.3428 0.6281
C6_3 C 0.5958(6) 0.3599(10) 0.6375(6)
H6_3 H 0.5965 0.4018 0.6059
N7_3 N 0.4287(4) 0.2805(7) 0.8090(4)
C7_3 C 0.3928(5) 0.0529(9) 0.7680(6)
H7_3 H 0.3710 0.1087 0.7717
N8_2 N 0.3547(5) 0.3772(8) 0.8217(5)
N9_3 N 0.4302(4) 0.1880(8) 0.6746(5)
N10_3 N 0.3636(5) 0.2241(8) 0.5835(5)
C10_3 C 0.3852(6) 0.3453(9) 0.7848(6)
H10_3 H 0.3767 0.3668 0.7448
N11_3 N 0.5748(5) 0.1681(7) 0.8798(4)
C11_3 C 0.4225(6) 0.2666(9) 0.8652(5)
H11_3 H 0.4451 0.2224 0.8940
C12_3 C 0.3792(6) 0.3260(10) 0.8731(7)
H12_3 H 0.3678 0.3310 0.9086
N13_3 N 0.5503(5) 0.3766(8) 0.8126(5)
C13_3 C 0.3962(6) 0.2549(10) 0.6391(6)
H13_3 H 0.3949 0.3191 0.6518
N14_2 N 0.6020(6) 0.5120(9) 0.8280(6)
H14_2 H 0.6263 0.5576 0.8237
C14_3 C 0.4198(6) 0.1094(10) 0.6379(6)
H15_3 H 0.4371 0.0480 0.6485
C15_3 C 0.3802(6) 0.1337(9) 0.5829(5)
H16_3 H 0.3670 0.0919 0.5496
C16_3 C 0.6279(6) 0.2105(10) 0.9041(5)
H17_3 H 0.6382 0.2693 0.8894
C17_3 C 0.5783(6) 0.0895(9) 0.9132(6)
H18_3 H 0.5474 0.0431 0.9084
C18_3 C 0.6339(7) 0.0866(10) 0.9559(6)
H19_3 H 0.6477 0.0374 0.9847
C19_3 C 0.5871(7) 0.4302(9) 0.7946(7)
H20_3 H 0.6019 0.4146 0.7622
C20_3 C 0.5391(7) 0.4237(10) 0.8590(7)
H21_3 H 0.5133 0.4019 0.8809
C21_2 C 0.5713(7) 0.5082(10) 0.8693(7)
H22_2 H 0.5720 0.5545 0.8991
N26_3 N 0.2184(5) 0.0418(8) 0.6072(5)
N27_3 N 0.2300(5) 0.1550(8) 0.5441(4)
C29_3 C 0.7735(7) 0.0195(9) 0.9110(7)
H30_3 H 0.7666 0.0718 0.8840
N30_3 N 0.3729(6) 0.3191(9) 0.4694(5)
N31_3 N 0.4392(6) 0.3304(10) 0.4202(6)
H35_3 H 0.4560 0.3230 0.3915
H42_3 H 0.1716 0.0452 0.8030
C40_3 C 0.2455(5) 0.1203(9) 0.6006(5)
H44_3 H 0.2740 0.1512 0.6330
C41_3 C 0.1812(6) 0.0199(9) 0.5514(6)
C42_3 C 0.1873(6) 0.0890(9) 0.5120(5)
H46_3 H 0.1663 0.0915 0.4706
C46_3 C 0.3860(6) 0.2913(11) 0.4212(6)
H50_3 H 0.3618 0.2501 0.3914
C47_3 C 0.4219(8) 0.3807(13) 0.5012(7)
H51_3 H 0.4257 0.4142 0.5374
C48_3 C 0.4614(8) 0.3810(15) 0.4689(8)
H52_3 H 0.4992 0.4127 0.4799
Pr5 Pr 0.75737(3) 0.35846(4) 0.70995(3)
Pr7 Pr 0.24751(3) 0.44211(4) 0.79188(3)
N36_2 N 0.7729(5) 0.0301(7) 0.7713(4)
N39_2 N 0.2386(5) 0.1158(7) 0.7344(5)
N40_2 N 0.2745(6) 0.3867(8) 0.5983(5)
Pr2_2 Pr 0.74263(3) 0.85846(4) 0.79005(3)
N2_3 N 0.6425(5) 0.9446(8) 0.7630(5)
Pr3_2 Pr 0.25249(3) 0.94211(4) 0.70812(3)
C3_3 C 0.6079(6) 0.9544(10) 0.7055(6)
H3_3 H 0.6089 0.9130 0.6737
N6_3 N 0.3653(5) 0.9713(8) 0.7482(5)
C8_3 C 0.4653(6) 0.9601(10) 0.7689(7)
H8_3 H 0.5043 0.9350 0.7736
C9_3 C 0.4124(6) 0.9104(10) 0.7476(7)
H9_3 H 0.4085 0.8457 0.7347
N15_3 N 0.7308(5) 0.6840(7) 0.7586(5)
N16_2 N 0.7271(5) 0.5301(7) 0.7287(4)
N17_3 N 0.7365(5) 0.8605(7) 0.6771(5)
N19_3 N 0.7796(5) 0.9283(8) 0.8935(5)
N21_3 N 0.6852(5) 0.7687(8) 0.8544(5)
C22_3 C 0.6830(7) 0.6808(11) 0.9326(6)
H23_3 H 0.6906 0.6315 0.9617
C23_3 C 0.7624(6) 0.6007(9) 0.7549(6)
H24_3 H 0.8049 0.5956 0.7697
N22_3 N 0.2744(4) 0.7737(7) 0.7469(4)
C24_3 C 0.6723(6) 0.6591(9) 0.7329(6)
H25_3 H 0.6388 0.7004 0.7284
N23_2 N 0.2614(5) 0.6158(7) 0.7656(5)
C25_3 C 0.6685(6) 0.5667(9) 0.7145(6)
H26_3 H 0.6325 0.5328 0.6954
N24_3 N 0.2382(5) 0.9385(7) 0.8148(5)
C26_3 C 0.7503(6) 0.7895(10) 0.6447(5)
H27_3 H 0.7645 0.7289 0.6610
N25_2 N 0.2255(6) 0.8867(8) 0.9017(5)
C27_3 C 0.7195(7) 0.9341(9) 0.6364(6)
H28_3 H 0.7073 0.9957 0.6452
C28_3 C 0.7225(6) 0.9064(9) 0.5816(6)
H29_3 H 0.7130 0.9451 0.5468
N28_3 N 0.2893(5) 0.8481(8) 0.6282(5)
C30_3 C 0.7905(8) 0.8778(11) 0.9456(7)
H31_3 H 0.7971 0.8109 0.9498
N29_3 N 0.3465(6) 0.8339(9) 0.5687(6)
H32_3 H 0.3641 0.8485 0.5415
C31_3 C 0.7902(8) 0.9393(10) 0.9907(6)
C32_3 C 0.7035(7) 0.6839(10) 0.8852(6)
H34_3 H 0.7270 0.6357 0.8744
C33_3 C 0.6512(7) 0.8122(10) 0.8829(6)
H36_3 H 0.6310 0.8712 0.8712
N32_3 N 0.6497(6) 0.7593(9) 0.9319(5)
H37_3 H 0.6306 0.7741 0.9578
C34_3 C 0.2368(6) 0.6989(9) 0.7380(5)
H38_3 H 0.1959 0.7033 0.7142
C35_3 C 0.3274(6) 0.7338(10) 0.7840(6)
H39_3 H 0.3639 0.7681 0.8001
C36_3 C 0.3202(6) 0.6402(9) 0.7939(6)
H40_3 H 0.3506 0.5983 0.8167
C37_3 C 0.2540(6) 0.8772(9) 0.8599(5)
H41_3 H 0.2837 0.8294 0.8625
C38_3 C 0.1929(6) 0.9941(10) 0.8268(6)
C39_3 C 0.1849(6) 0.9617(10) 0.8788(6)
H43_3 H 0.1564 0.9860 0.8967
H45_3 H 0.1554 0.9659 0.5415
C43_3 C 0.3120(7) 0.8901(10) 0.5895(6)
H47_3 H 0.3043 0.9549 0.5777
C44_3 C 0.3141(8) 0.7569(12) 0.6329(8)
H48_3 H 0.3070 0.7074 0.6576
C45_3 C 0.3495(7) 0.7492(12) 0.5974(7)
H49_3 H 0.3723 0.6948 0.5932
N33_2 N 0.8531(5) 0.8186(7) 0.8188(5)
N34_2 N 0.1453(5) 0.8772(8) 0.6783(5)
N30_4 N 0.1271(6) 0.8191(9) 0.0306(5)
N31_4 N 0.0608(6) 0.8304(10) 0.0798(6)
H35_4 H 0.0440 0.8230 0.1085
H46_4 H 0.3337 0.5915 0.0294
C46_4 C 0.1140(6) 0.7913(11) 0.0788(6)
H50_4 H 0.1382 0.7501 0.1086
C48_4 C 0.0386(8) 0.8810(15) 0.0311(8)
H52_4 H 0.0008 0.9127 0.0201
N5_4 N 0.0470(4) 0.5523(7) 0.7175(5)
N6_4 N 0.1347(5) 0.4713(8) 0.7518(5)
N7_4 N 0.0713(4) 0.7805(7) 0.6910(4)
C7_4 C 0.1072(5) 0.5529(9) 0.7320(6)
H7_4 H 0.1290 0.6087 0.7283
C8_4 C 0.0347(6) 0.4601(10) 0.7311(7)
N9_4 N 0.0698(4) 0.6880(8) 0.8254(5)
C9_4 C 0.0876(6) 0.4104(10) 0.7524(7)
H9_4 H 0.0915 0.3457 0.7653
N10_4 N 0.1364(5) 0.7241(8) 0.9165(5)
C10_4 C 0.1148(6) 0.8453(9) 0.7152(6)
H10_4 H 0.1233 0.8668 0.7552
C11_4 C 0.0775(6) 0.7666(9) 0.6348(5)
H11_4 H 0.0549 0.7224 0.6060
C12_4 C 0.1208(6) 0.8260(10) 0.6269(7)
H12_4 H 0.1322 0.8310 0.5914
C13_4 C 0.1038(6) 0.7549(10) 0.8609(6)
H13_4 H 0.1051 0.8191 0.8482
C14_4 C 0.0802(6) 0.6094(10) 0.8621(6)
H15_4 H 0.0629 0.5480 0.8515
C15_4 C 0.1198(6) 0.6337(9) 0.9171(5)
H16_4 H 0.1330 0.5919 0.9504
N22_4 N 0.2256(4) 0.2737(7) 0.7531(4)
N24_4 N 0.2618(5) 0.4385(7) 0.6852(5)
N26_4 N 0.2816(5) 0.5418(8) 0.8928(5)
N27_4 N 0.2700(5) 0.6550(8) 0.9559(4)
N28_4 N 0.2107(5) 0.3481(8) 0.8718(5)
N29_4 N 0.1535(6) 0.3339(9) 0.9313(6)
H32_4 H 0.1359 0.3485 0.9585
C34_4 C 0.2632(6) 0.1989(9) 0.7620(5)
H38_4 H 0.3041 0.2033 0.7858
C35_4 C 0.1726(6) 0.2338(10) 0.7160(6)
H39_4 H 0.1361 0.2681 0.6999
C36_4 C 0.1798(6) 0.1402(9) 0.7061(6)
H40_4 H 0.1494 0.0983 0.6833
C37_4 C 0.2460(6) 0.3772(9) 0.6401(5)
H41_4 H 0.2163 0.3294 0.6375
C38_4 C 0.3071(6) 0.4941(10) 0.6732(6)
H42_4 H 0.3284 0.5452 0.6970
C39_4 C 0.3151(6) 0.4617(10) 0.6212(6)
H43_4 H 0.3436 0.4860 0.6033
C40_4 C 0.2545(5) 0.6203(9) 0.8994(5)
H44_4 H 0.2260 0.6512 0.8670
C41_4 C 0.3188(6) 0.5199(9) 0.9486(6)
H45_4 H 0.3446 0.4659 0.9585
C42_4 C 0.3127(6) 0.5890(9) 0.9880(5)
C43_4 C 0.1880(7) 0.3901(10) 0.9105(6)
H47_4 H 0.1957 0.4549 0.9223
C44_4 C 0.1859(8) 0.2569(12) 0.8671(8)
H48_4 H 0.1930 0.2074 0.8424
C45_4 C 0.1505(7) 0.2492(12) 0.9026(7)
H49_4 H 0.1277 0.1948 0.9068
C47_4 C 0.0781(8) 0.8807(13) 0.9988(7)
H51_4 H 0.0743 0.9142 0.9626
Pr1_4 Pr 0.98900(3) 0.70346(5) 0.72635(3)
N1_4 N 0.9196(5) 0.5711(7) 0.7442(5)
C1_4 C 0.8764(5) 0.5186(9) 0.7087(6)
H1_4 H 0.8598 0.5310 0.6672
N2_4 N 0.8575(5) 0.4446(8) 0.7370(5)
C2_4 C 0.9286(6) 0.5320(10) 0.8002(6)
H2_4 H 0.9555 0.5553 0.8364
N3_4 N 0.9385(4) 0.7673(7) 0.7996(5)
C3_4 C 0.8921(6) 0.4544(10) 0.7945(6)
H3_4 H 0.8911 0.4130 0.8263
C4_4 C 0.8788(6) 0.7677(8) 0.7858(5)
H4_4 H 0.8550 0.7320 0.7527
C5_4 C 0.9536(6) 0.8271(9) 0.8496(7)
H5_4 H 0.9937 0.8428 0.8719
C6_4 C 0.9042(6) 0.8599(10) 0.8625(6)
H6_4 H 0.9035 0.9018 0.8941
H8_4 H 0.9957 0.4350 0.7264
N11_4 N 0.9252(5) 0.6681(7) 0.6202(4)
N13_4 N 0.9497(5) 0.8766(8) 0.6874(5)
N15_4 N 0.7692(5) 0.1840(7) 0.7414(5)
C16_4 C 0.8721(6) 0.7105(10) 0.5959(5)
H17_4 H 0.8618 0.7693 0.6106
N17_4 N 0.7635(5) 0.3605(7) 0.8229(5)
C17_4 C 0.9217(6) 0.5895(9) 0.5868(6)
H18_4 H 0.9526 0.5431 0.5916
C18_4 C 0.8661(7) 0.5866(10) 0.5441(6)
H19_4 H 0.8523 0.5374 0.5153
N19_4 N 0.7204(5) 0.4283(8) 0.6065(5)
C19_4 C 0.9129(7) 0.9302(9) 0.7054(7)
H20_4 H 0.8981 0.9146 0.7378
C20_4 C 0.9609(7) 0.9237(10) 0.6410(7)
H21_4 H 0.9867 0.9019 0.6191
N21_4 N 0.8148(5) 0.2687(8) 0.6456(5)
C22_4 C 0.8170(7) 0.1808(11) 0.5674(6)
H23_4 H 0.8094 0.1315 0.5383
C23_4 C 0.7376(6) 0.1007(9) 0.7451(6)
H24_4 H 0.6951 0.0956 0.7303
C24_4 C 0.8277(6) 0.1591(9) 0.7671(6)
H25_4 H 0.8612 0.2004 0.7716
C25_4 C 0.8315(6) 0.0667(9) 0.7855(6)
H26_4 H 0.8675 0.0328 0.8046
C26_4 C 0.7497(6) 0.2895(10) 0.8553(5)
H27_4 H 0.7355 0.2289 0.8390
C27_4 C 0.7805(7) 0.4341(9) 0.8636(6)
H28_4 H 0.7927 0.4957 0.8548
C28_4 C 0.7775(6) 0.4064(9) 0.9184(6)
H29_4 H 0.7870 0.4451 0.9532
C29_4 C 0.7265(7) 0.5195(9) 0.5890(7)
H30_4 H 0.7334 0.5718 0.6160
C30_4 C 0.7095(8) 0.3778(11) 0.5544(7)
H31_4 H 0.7029 0.3109 0.5502
C31_4 C 0.7098(8) 0.4393(10) 0.5093(6)
H33_2 H 0.7026 0.4222 0.4686
C32_4 C 0.7965(7) 0.1839(10) 0.6148(6)
H34_4 H 0.7730 0.1357 0.6256
C33_4 C 0.8488(7) 0.3122(10) 0.6171(6)
H36_4 H 0.8690 0.3712 0.6288
N32_4 N 0.8503(6) 0.2593(9) 0.5681(5)
H37_4 H 0.8694 0.2741 0.5422
H33_3 H 0.2026 0.0778 0.9686
N14_3 N 0.1020(6) 0.9880(9) 0.3280(6)
H14_3 H 0.1263 0.9424 0.3237
C21_3 C 0.0713(7) 0.9918(10) 0.3693(7)
H22_3 H 0.0720 0.9455 0.3991
H33_4 H 0.7974 0.9222 0.0314
N14_4 N 0.8980(6) 0.0120(9) 0.6720(6)
H14_4 H 0.8737 0.0576 0.6763
C21_4 C 0.9287(7) 0.0082(10) 0.6307(7)
H22_4 H 0.9280 0.0545 0.6009
loop_
_geom_bond_atom_site_label_1
_geom_bond_atom_site_label_2
_geom_bond_site_symmetry_1
_geom_bond_site_symmetry_2
Pr2 N2 1_555 1_555
Pr3 N6 1_555 1_555
C3 N2 1_555 1_555
H3 C3 1_555 1_555
H8 C8 1_555 1_555
C9 N6 1_555 1_555
H9 C9 1_555 1_555
N15 Pr2 1_555 1_555
N16 C23 1_555 1_555
N17 Pr2 1_555 1_555
N18 C26 1_555 1_555
N19 Pr2 1_555 1_555
N21 Pr2 1_555 1_555
C22 H23 1_555 1_555
C23 N15 1_555 1_555
H24 C23 1_555 1_555
N22 Pr3 1_555 1_555
C24 N15 1_555 1_555
H25 C24 1_555 1_555
N23 C34 1_555 1_555
C25 N16 1_555 1_555
H26 C25 1_555 1_555
N24 Pr3 1_555 1_555
C26 N17 1_555 1_555
H27 C26 1_555 1_555
N25 C37 1_555 1_555
C27 N17 1_555 1_555
H28 C27 1_555 1_555
C28 N18 1_555 1_555
H29 C28 1_555 1_555
N28 Pr3 1_555 1_555
C30 N19 1_555 1_555
H31 C30 1_555 1_555
N29 H32 1_555 1_555
C32 N21 1_555 1_555
H34 C32 1_555 1_555
C33 N21 1_555 1_555
H36 C33 1_555 1_555
N32 C22 1_555 1_555
H37 N32 1_555 1_555
C34 N22 1_555 1_555
H38 C34 1_555 1_555
C35 N22 1_555 1_555
H39 C35 1_555 1_555
C36 N23 1_555 1_555
H40 C36 1_555 1_555
C37 N24 1_555 1_555
H41 C37 1_555 1_555
C38 N24 1_555 1_555
C39 N25 1_555 1_555
H43 C39 1_555 1_555
C43 N28 1_555 1_555
H47 C43 1_555 1_555
C44 N28 1_555 1_555
H48 C44 1_555 1_555
C45 N29 1_555 1_555
H49 C45 1_555 1_555
Pr6 N16 1_555 1_555
Pr8 N23 1_555 1_555
Pr10 N18 1_555 1_555
Pr11 N25 1_555 1_555
N33 Pr2 1_555 1_555
N34 Pr3 1_555 1_555
C8 C9 1_555 1_555
C22 C32 1_555 1_555
C24 C25 1_555 1_555
C27 C28 1_555 1_555
C30 C31 1_555 1_555
N29 C43 1_555 1_555
C33 N32 1_555 1_555
C35 C36 1_555 1_555
C38 C39 1_555 1_555
C44 C45 1_555 1_555
Pr1 N1 1_555 1_555
N1 C1 1_555 1_555
C1 H1 1_555 1_555
C2 N1 1_555 1_555
H2 C2 1_555 1_555
N3 Pr1 1_555 1_555
Pr4 N10 1_555 1_555
N4 C4 1_555 1_555
C4 N3 1_555 1_555
H4 C4 1_555 1_555
N5 Pr1 1_555 1_555
C5 N3 1_555 1_555
H5 C5 1_555 1_555
C6 N4 1_555 1_555
H6 C6 1_555 1_555
N7 Pr1 1_555 1_555
C7 N5 1_555 1_555
H7 C7 1_555 1_555
N8 C10 1_555 1_555
N9 Pr1 1_555 1_555
N10 C13 1_555 1_555
C10 N7 1_555 1_555
H10 C10 1_555 1_555
N11 Pr1 1_555 1_555
C11 N7 1_555 1_555
H11 C11 1_555 1_555
N12 C16 1_555 1_555
C12 N8 1_555 1_555
H12 C12 1_555 1_555
N13 Pr1 1_555 1_555
C13 N9 1_555 1_555
H13 C13 1_555 1_555
N14 H14 1_555 1_555
C14 N9 1_555 1_555
H15 C14 1_555 1_555
C15 N10 1_555 1_555
H16 C15 1_555 1_555
C16 N11 1_555 1_555
H17 C16 1_555 1_555
C17 N11 1_555 1_555
H18 C17 1_555 1_555
C18 N12 1_555 1_555
H19 C18 1_555 1_555
C19 N13 1_555 1_555
H20 C19 1_555 1_555
N20 C29 1_555 1_555
C20 N13 1_555 1_555
H21 C20 1_555 1_555
C21 N14 1_555 1_555
H22 C21 1_555 1_555
N27 Pr4 1_555 1_555
H30 C29 1_555 1_555
N30 Pr4 1_555 1_555
N31 H35 1_555 1_555
C40 N26 1_555 1_555
H44 C40 1_555 1_555
C41 N26 1_555 1_555
C42 N27 1_555 1_555
H46 C42 1_555 1_555
C46 N30 1_555 1_555
H50 C46 1_555 1_555
C47 N30 1_555 1_555
H51 C47 1_555 1_555
C48 N31 1_555 1_555
H52 C48 1_555 1_555
Pr6 N4 1_555 1_555
Pr8 N8 1_555 1_555
N35 Pr4 1_555 1_555
N37 Pr4 1_555 1_555
N38 Pr4 1_555 1_555
N40 Pr4 1_555 1_555
C5 C6 1_555 1_555
C11 C12 1_555 1_555
N14 C19 1_555 1_555
C14 C15 1_555 1_555
C17 C18 1_555 1_555
C20 C21 1_555 1_555
N27 C40 1_555 1_555
N31 C46 1_555 1_555
C41 C42 1_555 1_555
C47 C48 1_555 1_555
Pr1_2 N1_2 1_555 1_555
N1_2 C1_2 1_555 1_555
C1_2 H1_2 1_555 1_555
Pr6 N2_2 1_555 1_555
N2_2 C1_2 1_555 1_555
C2_2 N1_2 1_555 1_555
H2_2 C2_2 1_555 1_555
N3_2 Pr1_2 1_555 1_555
C3_2 N2_2 1_555 1_555
H3_2 C3_2 1_555 1_555
N33 C4_2 1_555 1_555
C4_2 N3_2 1_555 1_555
H4_2 C4_2 1_555 1_555
C5_2 N3_2 1_555 1_555
H5_2 C5_2 1_555 1_555
C6_2 N33 1_555 1_555
H6_2 C6_2 1_555 1_555
N11_2 Pr1_2 1_555 1_555
N12_2 C16_2 1_555 1_555
N13_2 Pr1_2 1_555 1_555
N15_2 Pr6 1_555 1_555
N36 C23_2 1_555 1_555
C16_2 N11_2 1_555 1_555
H17_2 C16_2 1_555 1_555
N17_2 Pr6 1_555 1_555
C17_2 N11_2 1_555 1_555
H18_2 C17_2 1_555 1_555
N18_2 C26_2 1_555 1_555
C18_2 N12_2 1_555 1_555
H19_2 C18_2 1_555 1_555
N19_2 Pr6 1_555 1_555
C19_2 N13_2 1_555 1_555
H20_2 C19_2 1_555 1_555
N20_2 C29_2 1_555 1_555
C20_2 N13_2 1_555 1_555
H21_2 C20_2 1_555 1_555
N21_2 Pr6 1_555 1_555
C22_2 H23_2 1_555 1_555
C23_2 N15_2 1_555 1_555
H24_2 C23_2 1_555 1_555
C24_2 N15_2 1_555 1_555
H25_2 C24_2 1_555 1_555
C25_2 N36 1_555 1_555
H26_2 C25_2 1_555 1_555
C26_2 N17_2 1_555 1_555
H27_2 C26_2 1_555 1_555
C27_2 N17_2 1_555 1_555
H28_2 C27_2 1_555 1_555
C28_2 N18_2 1_555 1_555
H29_2 C28_2 1_555 1_555
C29_2 N19_2 1_555 1_555
H30_2 C29_2 1_555 1_555
C30_2 N19_2 1_555 1_555
H31_2 C30_2 1_555 1_555
C31_2 N20_2 1_555 1_555
H33 C31_2 1_555 1_555
C32_2 N21_2 1_555 1_555
H34_2 C32_2 1_555 1_555
C33_2 N21_2 1_555 1_555
H36_2 C33_2 1_555 1_555
N32_2 C22_2 1_555 1_555
H37_2 N32_2 1_555 1_555
Pr10 N12_2 1_555 1_555
C2_2 C3_2 1_555 1_555
C5_2 C6_2 1_555 1_555
C17_2 C18_2 1_555 1_555
N20_2 Pr10 1_555 1_555
C22_2 C32_2 1_555 1_555
C24_2 C25_2 1_555 1_555
C27_2 C28_2 1_555 1_555
C30_2 C31_2 1_555 1_555
C33_2 N32_2 1_555 1_555
Pr8 N6_2 1_555 1_555
Pr11 N10_2 1_555 1_555
N6_2 C7_2 1_555 1_555
C7_2 N5_2 1_555 1_555
H7_2 C7_2 1_555 1_555
N34 C10_2 1_555 1_555
C8_2 N5_2 1_555 1_555
C9_2 N6_2 1_555 1_555
H9_2 C9_2 1_555 1_555
N10_2 C13_2 1_555 1_555
C10_2 N7_2 1_555 1_555
H10_2 C10_2 1_555 1_555
C11_2 N7_2 1_555 1_555
H11_2 C11_2 1_555 1_555
C12_2 N34 1_555 1_555
H12_2 C12_2 1_555 1_555
C13_2 N9_2 1_555 1_555
H13_2 C13_2 1_555 1_555
C14_2 N9_2 1_555 1_555
H15_2 C14_2 1_555 1_555
C15_2 N10_2 1_555 1_555
H16_2 C15_2 1_555 1_555
N22_2 Pr8 1_555 1_555
N39 C34_2 1_555 1_555
N24_2 Pr8 1_555 1_555
N40 C37_2 1_555 1_555
N26_2 Pr8 1_555 1_555
N27_2 Pr11 1_555 1_555
N28_2 Pr8 1_555 1_555
N29_2 H32_2 1_555 1_555
C34_2 N22_2 1_555 1_555
H38_2 C34_2 1_555 1_555
C35_2 N22_2 1_555 1_555
H39_2 C35_2 1_555 1_555
C36_2 N39 1_555 1_555
H40_2 C36_2 1_555 1_555
C37_2 N24_2 1_555 1_555
H41_2 C37_2 1_555 1_555
C38_2 N24_2 1_555 1_555
H42_2 C38_2 1_555 1_555
C39_2 N40 1_555 1_555
H43_2 C39_2 1_555 1_555
C40_2 N26_2 1_555 1_555
H44_2 C40_2 1_555 1_555
C41_2 N26_2 1_555 1_555
H45_2 C41_2 1_555 1_555
C42_2 N27_2 1_555 1_555
C43_2 N28_2 1_555 1_555
H47_2 C43_2 1_555 1_555
C44_2 N28_2 1_555 1_555
H48_2 C44_2 1_555 1_555
C45_2 N29_2 1_555 1_555
H49_2 C45_2 1_555 1_555
H51_2 C47_2 1_555 1_555
C8_2 C9_2 1_555 1_555
C11_2 C12_2 1_555 1_555
C14_2 C15_2 1_555 1_555
N27_2 C40_2 1_555 1_555
N29_2 C43_2 1_555 1_555
C35_2 C36_2 1_555 1_555
C38_2 C39_2 1_555 1_555
C41_2 C42_2 1_555 1_555
C44_2 C45_2 1_555 1_555
N31_2 H35_2 1_555 1_555
C46_2 N30_2 1_555 1_555
H50_2 C46_2 1_555 1_555
C48_2 N31_2 1_555 1_555
H52_2 C48_2 1_555 1_555
N31_2 C46_2 1_555 1_555
Pr1_3 N1_3 1_555 1_555
N1_3 C1_3 1_555 1_555
C1_3 H1_3 1_555 1_555
C2_3 N1_3 1_555 1_555
H2_3 C2_3 1_555 1_555
N3_3 Pr1_3 1_555 1_555
Pr10 N10_3 1_555 1_555
N4_2 C4_3 1_555 1_555
C4_3 N3_3 1_555 1_555
H4_3 C4_3 1_555 1_555
N5_3 Pr1_3 1_555 1_555
C5_3 N3_3 1_555 1_555
H5_3 C5_3 1_555 1_555
C6_3 N4_2 1_555 1_555
H6_3 C6_3 1_555 1_555
N7_3 Pr1_3 1_555 1_555
C7_3 N5_3 1_555 1_555
H7_3 C7_3 1_555 1_555
N8_2 C10_3 1_555 1_555
N9_3 Pr1_3 1_555 1_555
N10_3 C13_3 1_555 1_555
C10_3 N7_3 1_555 1_555
H10_3 C10_3 1_555 1_555
N11_3 Pr1_3 1_555 1_555
C11_3 N7_3 1_555 1_555
H11_3 C11_3 1_555 1_555
N35_2 C16_3 1_555 1_555
C12_3 N8_2 1_555 1_555
H12_3 C12_3 1_555 1_555
N13_3 Pr1_3 1_555 1_555
C13_3 N9_3 1_555 1_555
H13_3 C13_3 1_555 1_555
N14_2 H14_2 1_555 1_555
C14_3 N9_3 1_555 1_555
H15_3 C14_3 1_555 1_555
C15_3 N10_3 1_555 1_555
H16_3 C15_3 1_555 1_555
C16_3 N11_3 1_555 1_555
H17_3 C16_3 1_555 1_555
C17_3 N11_3 1_555 1_555
H18_3 C17_3 1_555 1_555
C18_3 N35_2 1_555 1_555
H19_3 C18_3 1_555 1_555
C19_3 N13_3 1_555 1_555
H20_3 C19_3 1_555 1_555
N38_2 C29_3 1_555 1_555
C20_3 N13_3 1_555 1_555
H21_3 C20_3 1_555 1_555
C21_2 N14_2 1_555 1_555
H22_2 C21_2 1_555 1_555
N27_3 Pr10 1_555 1_555
H30_3 C29_3 1_555 1_555
N30_3 Pr10 1_555 1_555
N31_3 H35_3 1_555 1_555
C40_3 N26_3 1_555 1_555
H44_3 C40_3 1_555 1_555
C41_3 N26_3 1_555 1_555
C42_3 N27_3 1_555 1_555
H46_3 C42_3 1_555 1_555
C46_3 N30_3 1_555 1_555
H50_3 C46_3 1_555 1_555
C47_3 N30_3 1_555 1_555
H51_3 C47_3 1_555 1_555
C48_3 N31_3 1_555 1_555
H52_3 C48_3 1_555 1_555
Pr5 N4_2 1_555 1_555
Pr7 N8_2 1_555 1_555
N40_2 Pr10 1_555 1_555
C5_3 C6_3 1_555 1_555
C11_3 C12_3 1_555 1_555
N14_2 C19_3 1_555 1_555
C14_3 C15_3 1_555 1_555
C17_3 C18_3 1_555 1_555
C20_3 C21_2 1_555 1_555
N27_3 C40_3 1_555 1_555
N31_3 C46_3 1_555 1_555
C41_3 C42_3 1_555 1_555
C47_3 C48_3 1_555 1_555
Pr2_2 N2_3 1_555 1_555
Pr3_2 N6_3 1_555 1_555
C3_3 N2_3 1_555 1_555
H3_3 C3_3 1_555 1_555
H8_3 C8_3 1_555 1_555
C9_3 N6_3 1_555 1_555
H9_3 C9_3 1_555 1_555
N15_3 Pr2_2 1_555 1_555
N16_2 C23_3 1_555 1_555
N17_3 Pr2_2 1_555 1_555
N37 C26_3 1_555 1_555
N19_3 Pr2_2 1_555 1_555
N21_3 Pr2_2 1_555 1_555
C22_3 H23_3 1_555 1_555
C23_3 N15_3 1_555 1_555
H24_3 C23_3 1_555 1_555
N22_3 Pr3_2 1_555 1_555
C24_3 N15_3 1_555 1_555
H25_3 C24_3 1_555 1_555
N23_2 C34_3 1_555 1_555
C25_3 N16_2 1_555 1_555
H26_3 C25_3 1_555 1_555
N24_3 Pr3_2 1_555 1_555
C26_3 N17_3 1_555 1_555
H27_3 C26_3 1_555 1_555
N25_2 C37_3 1_555 1_555
C27_3 N17_3 1_555 1_555
H28_3 C27_3 1_555 1_555
C28_3 N37 1_555 1_555
H29_3 C28_3 1_555 1_555
N28_3 Pr3_2 1_555 1_555
C30_3 N19_3 1_555 1_555
H31_3 C30_3 1_555 1_555
N29_3 H32_3 1_555 1_555
C32_3 N21_3 1_555 1_555
H34_3 C32_3 1_555 1_555
C33_3 N21_3 1_555 1_555
H36_3 C33_3 1_555 1_555
N32_3 C22_3 1_555 1_555
H37_3 N32_3 1_555 1_555
C34_3 N22_3 1_555 1_555
H38_3 C34_3 1_555 1_555
C35_3 N22_3 1_555 1_555
H39_3 C35_3 1_555 1_555
C36_3 N23_2 1_555 1_555
H40_3 C36_3 1_555 1_555
C37_3 N24_3 1_555 1_555
H41_3 C37_3 1_555 1_555
C38_3 N24_3 1_555 1_555
C39_3 N25_2 1_555 1_555
H43_3 C39_3 1_555 1_555
C43_3 N28_3 1_555 1_555
H47_3 C43_3 1_555 1_555
C44_3 N28_3 1_555 1_555
H48_3 C44_3 1_555 1_555
C45_3 N29_3 1_555 1_555
H49_3 C45_3 1_555 1_555
Pr5 N16_2 1_555 1_555
Pr7 N23_2 1_555 1_555
Pr9 N25_2 1_555 1_555
N33_2 Pr2_2 1_555 1_555
N34_2 Pr3_2 1_555 1_555
C8_3 C9_3 1_555 1_555
C22_3 C32_3 1_555 1_555
C24_3 C25_3 1_555 1_555
C27_3 C28_3 1_555 1_555
C30_3 C31_3 1_555 1_555
N29_3 C43_3 1_555 1_555
C33_3 N32_3 1_555 1_555
C35_3 C36_3 1_555 1_555
C38_3 C39_3 1_555 1_555
C44_3 C45_3 1_555 1_555
N31_4 H35_4 1_555 1_555
C46_4 N30_4 1_555 1_555
H50_4 C46_4 1_555 1_555
C48_4 N31_4 1_555 1_555
H52_4 C48_4 1_555 1_555
N31_4 C46_4 1_555 1_555
Pr7 N6_4 1_555 1_555
Pr9 N10_4 1_555 1_555
N6_4 C7_4 1_555 1_555
C7_4 N5_4 1_555 1_555
H7_4 C7_4 1_555 1_555
N34_2 C10_4 1_555 1_555
C8_4 N5_4 1_555 1_555
C9_4 N6_4 1_555 1_555
H9_4 C9_4 1_555 1_555
N10_4 C13_4 1_555 1_555
C10_4 N7_4 1_555 1_555
H10_4 C10_4 1_555 1_555
C11_4 N7_4 1_555 1_555
H11_4 C11_4 1_555 1_555
C12_4 N34_2 1_555 1_555
H12_4 C12_4 1_555 1_555
C13_4 N9_4 1_555 1_555
H13_4 C13_4 1_555 1_555
C14_4 N9_4 1_555 1_555
H15_4 C14_4 1_555 1_555
C15_4 N10_4 1_555 1_555
H16_4 C15_4 1_555 1_555
N22_4 Pr7 1_555 1_555
N39_2 C34_4 1_555 1_555
N24_4 Pr7 1_555 1_555
N40_2 C37_4 1_555 1_555
N26_4 Pr7 1_555 1_555
N27_4 Pr9 1_555 1_555
N28_4 Pr7 1_555 1_555
N29_4 H32_4 1_555 1_555
C34_4 N22_4 1_555 1_555
H38_4 C34_4 1_555 1_555
C35_4 N22_4 1_555 1_555
H39_4 C35_4 1_555 1_555
C36_4 N39_2 1_555 1_555
H40_4 C36_4 1_555 1_555
C37_4 N24_4 1_555 1_555
H41_4 C37_4 1_555 1_555
C38_4 N24_4 1_555 1_555
H42_4 C38_4 1_555 1_555
C39_4 N40_2 1_555 1_555
H43_4 C39_4 1_555 1_555
C40_4 N26_4 1_555 1_555
H44_4 C40_4 1_555 1_555
C41_4 N26_4 1_555 1_555
H45_4 C41_4 1_555 1_555
C42_4 N27_4 1_555 1_555
C43_4 N28_4 1_555 1_555
H47_4 C43_4 1_555 1_555
C44_4 N28_4 1_555 1_555
H48_4 C44_4 1_555 1_555
C45_4 N29_4 1_555 1_555
H49_4 C45_4 1_555 1_555
H51_4 C47_4 1_555 1_555
C8_4 C9_4 1_555 1_555
C11_4 C12_4 1_555 1_555
C14_4 C15_4 1_555 1_555
N27_4 C40_4 1_555 1_555
N29_4 C43_4 1_555 1_555
C35_4 C36_4 1_555 1_555
C38_4 C39_4 1_555 1_555
C41_4 C42_4 1_555 1_555
C44_4 C45_4 1_555 1_555
Pr1_4 N1_4 1_555 1_555
N1_4 C1_4 1_555 1_555
C1_4 H1_4 1_555 1_555
Pr5 N2_4 1_555 1_555
N2_4 C1_4 1_555 1_555
C2_4 N1_4 1_555 1_555
H2_4 C2_4 1_555 1_555
N3_4 Pr1_4 1_555 1_555
C3_4 N2_4 1_555 1_555
H3_4 C3_4 1_555 1_555
N33_2 C4_4 1_555 1_555
C4_4 N3_4 1_555 1_555
H4_4 C4_4 1_555 1_555
C5_4 N3_4 1_555 1_555
H5_4 C5_4 1_555 1_555
C6_4 N33_2 1_555 1_555
H6_4 C6_4 1_555 1_555
N11_4 Pr1_4 1_555 1_555
N35 C16_4 1_555 1_555
N13_4 Pr1_4 1_555 1_555
N15_4 Pr5 1_555 1_555
N36_2 C23_4 1_555 1_555
C16_4 N11_4 1_555 1_555
H17_4 C16_4 1_555 1_555
N17_4 Pr5 1_555 1_555
C17_4 N11_4 1_555 1_555
H18_4 C17_4 1_555 1_555
N37_2 C26_4 1_555 1_555
C18_4 N35 1_555 1_555
H19_4 C18_4 1_555 1_555
N19_4 Pr5 1_555 1_555
C19_4 N13_4 1_555 1_555
H20_4 C19_4 1_555 1_555
N38 C29_4 1_555 1_555
C20_4 N13_4 1_555 1_555
H21_4 C20_4 1_555 1_555
N21_4 Pr5 1_555 1_555
C22_4 H23_4 1_555 1_555
C23_4 N15_4 1_555 1_555
H24_4 C23_4 1_555 1_555
C24_4 N15_4 1_555 1_555
H25_4 C24_4 1_555 1_555
C25_4 N36_2 1_555 1_555
H26_4 C25_4 1_555 1_555
C26_4 N17_4 1_555 1_555
H27_4 C26_4 1_555 1_555
C27_4 N17_4 1_555 1_555
H28_4 C27_4 1_555 1_555
C28_4 N37_2 1_555 1_555
H29_4 C28_4 1_555 1_555
C29_4 N19_4 1_555 1_555
H30_4 C29_4 1_555 1_555
C30_4 N19_4 1_555 1_555
H31_4 C30_4 1_555 1_555
C31_4 N38 1_555 1_555
H33_2 C31_4 1_555 1_555
C32_4 N21_4 1_555 1_555
H34_4 C32_4 1_555 1_555
C33_4 N21_4 1_555 1_555
H36_4 C33_4 1_555 1_555
N32_4 C22_4 1_555 1_555
H37_4 N32_4 1_555 1_555
C2_4 C3_4 1_555 1_555
C5_4 C6_4 1_555 1_555
C17_4 C18_4 1_555 1_555
C22_4 C32_4 1_555 1_555
C24_4 C25_4 1_555 1_555
C27_4 C28_4 1_555 1_555
C30_4 C31_4 1_555 1_555
C33_4 N32_4 1_555 1_555
N14_3 H14_3 1_555 1_555
C21_3 N14_3 1_555 1_555
H22_3 C21_3 1_555 1_555
N14_4 H14_4 1_555 1_555
C21_4 N14_4 1_555 1_555
H22_4 C21_4 1_555 1_555

#END
