
###############################################################################
#
# This file contains modified crystal structure data generated from the
# MOF subset of the Cambridge Structural Database (CSD) v543 
# hosted by the Cambridge Crystallographic Data Centre (CCDC).
#
# This work is licensed under the Creative Commons
# Attribution-NonCommercial-ShareAlike 4.0 International License.
# To view a copy of this license, visit
# http://creativecommons.org/licenses/by-nc-sa/4.0/
# or send a letter to
# Creative Commons, PO Box 1866, Mountain View, CA 94042, USA.
#
# CIF created using the CSD Python API on 29 September 2022
# The structure has been converted into the P1 space group
# The structure has a 3D framework
# The original CSD entry LEMYUA is in the tetragonal crystal system
# The framework has been calculated to contain at least 10.0% void space
# The void calculation uses a probe of radius 1.32A, grid spacing 0.4
# The framework is charged, counterions have been retained in the structure
#
###############################################################################

data_LEMYUA
_chemical_formula_moiety         '(C40 H8 In2 O32 7-)n'
_symmetry_cell_setting           triclinic
_symmetry_space_group_name_H-M   'P 1'
_symmetry_Int_Tables_number      1
_space_group_name_Hall           'P 1'
loop_
_symmetry_equiv_pos_site_id
_symmetry_equiv_pos_as_xyz
1 x,y,z
_cell_length_a                   12.5808(3)
_cell_length_b                   12.5808(3)
_cell_length_c                   12.9625(3)
_cell_angle_alpha                90
_cell_angle_beta                 90
_cell_angle_gamma                90
_cell_volume                     2051.66
loop_
_atom_site_label
_atom_site_type_symbol
_atom_site_fract_x
_atom_site_fract_y
_atom_site_fract_z
O3 O 0.1353(4) 0.7379(4) 0.0972(3)
O4 O 0.1890(5) 0.6029(4) 0.1898(3)
C4 C 0.0696(7) 0.5653(7) 0.0542(4)
C5 C 0.0033(8) 0.4967(8) 0.1067(7)
H2 H 0.0049 0.4951 0.1799
C6 C 0.1358(6) 0.6415(7) 0.1155(5)
In4 In 0.2500 0.7500 0.2500
In1 In 0.2500 0.7500 0.7500
O1 O 0.2379(4) 0.6353(4) 0.9028(3)
O2 O 0.1029(4) 0.6890(5) 0.8102(3)
C1 C 0.0653(7) 0.5696(7) 0.9458(4)
C3 C 0.1415(7) 0.6358(6) 0.8845(5)
O9 O 0.2621(4) 0.8647(4) 0.9028(3)
O10 O 0.1353(4) 0.7621(4) 0.5972(3)
O11 O 0.3647(4) 0.7379(4) 0.5972(3)
O12 O 0.3971(4) 0.8110(5) 0.8102(3)
O13 O 0.1890(5) 0.8971(4) 0.6898(3)
O14 O 0.3110(5) 0.6029(4) 0.6898(3)
O5 O 0.7621(4) 0.3647(4) 0.0972(3)
O6 O 0.8971(4) 0.3110(5) 0.1898(3)
C7 C 0.9347(7) 0.4304(7) 0.0542(4)
C8 C 0.8585(7) 0.3642(6) 0.1155(5)
In2 In 0.7500 0.2500 0.2500
C2 C 0.9967(8) 0.5033(8) 0.8933(7)
H1 H 0.9951 0.5049 0.8201
O7 O 0.8647(4) 0.2621(4) 0.9028(3)
O8 O 0.8110(5) 0.3971(4) 0.8102(3)
C9 C 0.9304(7) 0.4347(7) 0.9458(4)
C10 C 0.8642(6) 0.3585(7) 0.8845(5)
In3 In 0.7500 0.2500 0.7500
C7_2 C 0.0696(7) 0.9347(7) 0.5542(4)
C8_2 C 0.1358(6) 0.8585(7) 0.6155(5)
O7_2 O 0.2379(4) 0.8647(4) 0.4028(3)
O8_2 O 0.1029(4) 0.8110(5) 0.3102(3)
C9_2 C 0.0653(7) 0.9304(7) 0.4458(4)
C10_2 C 0.1415(7) 0.8642(6) 0.3845(5)
O1_2 O 0.8647(4) 0.2379(4) 0.4028(3)
O2_2 O 0.8110(5) 0.1029(4) 0.3102(3)
C1_2 C 0.9304(7) 0.0653(7) 0.4458(4)
C3_2 C 0.8642(6) 0.1415(7) 0.3845(5)
O3_2 O 0.7621(4) 0.1353(4) 0.5972(3)
O4_2 O 0.8971(4) 0.1890(5) 0.6898(3)
C4_2 C 0.9347(7) 0.0696(7) 0.5542(4)
C6_2 C 0.8585(7) 0.1358(6) 0.6155(5)
O9_2 O 0.6353(4) 0.2621(4) 0.4028(3)
O10_2 O 0.7379(4) 0.1353(4) 0.0972(3)
O12_2 O 0.6890(5) 0.3971(4) 0.3102(3)
O13_2 O 0.6029(4) 0.1890(5) 0.1898(3)
C5_2 C 0.4967(8) 0.0033(8) 0.1067(7)
H2_2 H 0.4951 0.0049 0.1799
C7_3 C 0.5653(7) 0.0696(7) 0.0542(4)
C8_3 C 0.6415(7) 0.1358(6) 0.1155(5)
O7_3 O 0.6353(4) 0.2379(4) 0.9028(3)
O8_3 O 0.6890(5) 0.1029(4) 0.8102(3)
C9_3 C 0.5696(7) 0.0653(7) 0.9458(4)
C10_3 C 0.6358(6) 0.1415(7) 0.8845(5)
O3_3 O 0.3647(4) 0.7621(4) 0.0972(3)
O4_3 O 0.3110(5) 0.8971(4) 0.1898(3)
C4_3 C 0.4304(7) 0.9347(7) 0.0542(4)
C6_3 C 0.3642(6) 0.8585(7) 0.1155(5)
C1_3 C 0.4347(7) 0.9304(7) 0.9458(4)
C2_2 C 0.5033(8) 0.9967(8) 0.8933(7)
H1_2 H 0.5049 0.9951 0.8201
C3_3 C 0.3585(7) 0.8642(6) 0.8845(5)
C1_4 C 0.5696(7) 0.4347(7) 0.4458(4)
C2_3 C 0.5033(8) 0.5033(8) 0.3933(7)
H1_3 H 0.5049 0.5049 0.3201
C3_4 C 0.6358(6) 0.3585(7) 0.3845(5)
O3_4 O 0.7379(4) 0.3647(4) 0.5972(3)
O4_4 O 0.6029(4) 0.3110(5) 0.6898(3)
C4_4 C 0.5653(7) 0.4304(7) 0.5542(4)
C5_3 C 0.4967(8) 0.4967(8) 0.6067(7)
H2_3 H 0.4951 0.4951 0.6799
C6_4 C 0.6415(7) 0.3642(6) 0.6155(5)
C7_4 C 0.4304(7) 0.5653(7) 0.5542(4)
C8_4 C 0.3642(6) 0.6415(7) 0.6155(5)
O7_4 O 0.2621(4) 0.6353(4) 0.4028(3)
O8_4 O 0.3971(4) 0.6890(5) 0.3102(3)
C9_4 C 0.4347(7) 0.5696(7) 0.4458(4)
C10_4 C 0.3585(7) 0.6358(6) 0.3845(5)
C5_4 C 0.0033(8) 0.0033(8) 0.6067(7)
H2_4 H 0.0049 0.0049 0.6799
C2_4 C 0.9967(8) 0.9967(8) 0.3933(7)
H1_4 H 0.9951 0.9951 0.3201
loop_
_geom_bond_atom_site_label_1
_geom_bond_atom_site_label_2
_geom_bond_site_symmetry_1
_geom_bond_site_symmetry_2
O3 C6 1_555 1_555
O4 C6 1_555 1_555
C5 C4 1_555 1_555
H2 C5 1_555 1_555
C6 C4 1_555 1_555
In4 O3 1_555 1_555
O4 In4 1_555 1_555
In1 O1 1_555 1_555
O1 C3 1_555 1_555
O2 In1 1_555 1_555
C3 O2 1_555 1_555
O9 In1 1_555 1_555
O10 In1 1_555 1_555
O11 In1 1_555 1_555
O12 In1 1_555 1_555
O13 In1 1_555 1_555
O14 In1 1_555 1_555
C1 C3 1_555 1_555
O5 C8 1_555 1_555
O6 C8 1_555 1_555
C8 C7 1_555 1_555
In2 O5 1_555 1_555
O6 In2 1_555 1_555
C2 H1 1_555 1_555
O7 C10 1_555 1_555
O8 C10 1_555 1_555
C9 C2 1_555 1_555
C10 C9 1_555 1_555
In3 O7 1_555 1_555
O8 In3 1_555 1_555
O10 C8_2 1_555 1_555
O13 C8_2 1_555 1_555
C8_2 C7_2 1_555 1_555
O7_2 C10_2 1_555 1_555
O8_2 C10_2 1_555 1_555
C10_2 C9_2 1_555 1_555
In4 O7_2 1_555 1_555
C7_2 C9_2 1_555 1_555
O8_2 In4 1_555 1_555
In2 O1_2 1_555 1_555
O1_2 C3_2 1_555 1_555
O2_2 In2 1_555 1_555
C3_2 O2_2 1_555 1_555
O3_2 C6_2 1_555 1_555
O4_2 C6_2 1_555 1_555
C4_2 C1_2 1_555 1_555
C6_2 C4_2 1_555 1_555
In3 O3_2 1_555 1_555
O9_2 In2 1_555 1_555
O10_2 In2 1_555 1_555
O12_2 In2 1_555 1_555
O13_2 In2 1_555 1_555
C1_2 C3_2 1_555 1_555
O4_2 In3 1_555 1_555
H2_2 C5_2 1_555 1_555
O10_2 C8_3 1_555 1_555
O13_2 C8_3 1_555 1_555
C7_3 C5_2 1_555 1_555
C8_3 C7_3 1_555 1_555
O7_3 C10_3 1_555 1_555
O8_3 C10_3 1_555 1_555
C10_3 C9_3 1_555 1_555
In3 O7_3 1_555 1_555
O8_3 In3 1_555 1_555
O3_3 C6_3 1_555 1_555
O4_3 C6_3 1_555 1_555
C6_3 C4_3 1_555 1_555
In4 O3_3 1_555 1_555
O4_3 In4 1_555 1_555
O9 C3_3 1_555 1_555
C1_3 C2_2 1_555 1_555
C2_2 H1_2 1_555 1_555
C3_3 O12 1_555 1_555
C1_3 C3_3 1_555 1_555
O9_2 C3_4 1_555 1_555
C1_4 C2_3 1_555 1_555
C2_3 H1_3 1_555 1_555
C3_4 O12_2 1_555 1_555
O3_4 C6_4 1_555 1_555
O4_4 C6_4 1_555 1_555
C4_4 C1_4 1_555 1_555
C5_3 C4_4 1_555 1_555
H2_3 C5_3 1_555 1_555
C6_4 C4_4 1_555 1_555
O11 C8_4 1_555 1_555
O14 C8_4 1_555 1_555
C7_4 C5_3 1_555 1_555
C8_4 C7_4 1_555 1_555
O7_4 C10_4 1_555 1_555
O8_4 C10_4 1_555 1_555
C9_4 C2_3 1_555 1_555
C10_4 C9_4 1_555 1_555
In4 O7_4 1_555 1_555
In3 O3_4 1_555 1_555
C1_4 C3_4 1_555 1_555
O4_4 In3 1_555 1_555
C7_4 C9_4 1_555 1_555
O8_4 In4 1_555 1_555
H2_4 C5_4 1_555 1_555
C2_4 H1_4 1_555 1_555

#END
