
###############################################################################
#
# This file contains modified crystal structure data generated from the
# MOF subset of the Cambridge Structural Database (CSD) v543 
# hosted by the Cambridge Crystallographic Data Centre (CCDC).
#
# This work is licensed under the Creative Commons
# Attribution-NonCommercial-ShareAlike 4.0 International License.
# To view a copy of this license, visit
# http://creativecommons.org/licenses/by-nc-sa/4.0/
# or send a letter to
# Creative Commons, PO Box 1866, Mountain View, CA 94042, USA.
#
# CIF created using the CSD Python API on 29 September 2022
# The structure has been converted into the P1 space group
# The structure has a 3D framework
# The original CSD entry LEPKID is in the orthorhombic crystal system
# The framework has been calculated to contain at least 10.0% void space
# The void calculation uses a probe of radius 1.32A, grid spacing 0.4
# The framework is charged, counterions have been retained in the structure
# H atom positions have been added when not included in the experimental data
# Generated hydrogen atom positions removed from atoms on special positions
#
###############################################################################

data_LEPKID
_chemical_formula_moiety         '(C416 H288 Cu28 N40 O152 Y16 16+)n'
_symmetry_cell_setting           triclinic
_symmetry_space_group_name_H-M   'P 1'
_symmetry_Int_Tables_number      1
_space_group_name_Hall           'P 1'
loop_
_symmetry_equiv_pos_site_id
_symmetry_equiv_pos_as_xyz
1 x,y,z
_cell_length_a                   30.1135(9)
_cell_length_b                   30.6138(9)
_cell_length_c                   23.7409(13)
_cell_angle_alpha                90
_cell_angle_beta                 90
_cell_angle_gamma                90
_cell_volume                     21886.5
loop_
_atom_site_label
_atom_site_type_symbol
_atom_site_fract_x
_atom_site_fract_y
_atom_site_fract_z
Cu1 Cu 0.13701(12) 0.13993(8) 0.73330(10)
Cu1_2 Cu 0.86299(12) 0.36007(8) 0.23330(10)
Cu1_3 Cu 0.86299(12) 0.63993(8) 0.76670(10)
Cu1_4 Cu 0.13701(12) 0.86007(8) 0.26670(10)
Cu1_5 Cu 0.63701(12) 0.63993(8) 0.73330(10)
Cu1_6 Cu 0.36299(12) 0.86007(8) 0.23330(10)
Cu1_7 Cu 0.36299(12) 0.13993(8) 0.76670(10)
Cu1_8 Cu 0.63701(12) 0.36007(8) 0.26670(10)
Cu1_9 Cu 0.86299(12) 0.86007(8) 0.26670(10)
Cu1_10 Cu 0.13701(12) 0.63993(8) 0.76670(10)
Cu1_11 Cu 0.13701(12) 0.36007(8) 0.23330(10)
Cu1_12 Cu 0.86299(12) 0.13993(8) 0.73330(10)
Cu1_13 Cu 0.36299(12) 0.36007(8) 0.26670(10)
Cu1_14 Cu 0.63701(12) 0.13993(8) 0.76670(10)
Cu1_15 Cu 0.63701(12) 0.86007(8) 0.23330(10)
Cu1_16 Cu 0.36299(12) 0.63993(8) 0.73330(10)
Y1 Y 0.242454(19) 0.379677(16) 0.05272(3)
O9 O 0.2807(3) 0.3515(2) 0.1330(3)
O10 O 0.29302(19) 0.43592(19) 0.0847(2)
O21 O 0.1975(2) 0.42072(15) 0.1058(2)
O22 O 0.23179(14) 0.55997(13) 0.01029(19)
O23 O 0.18951(17) 0.61781(15) 0.0231(2)
O24 O 0.30499(16) 0.62815(14) 0.0102(2)
O27 O 0.26384(17) 0.31328(14) 0.0067(2)
O29 O 0.1919(2) 0.32768(16) 0.0812(3)
Cu2 Cu 0.0000 0.37668(4) 0.73861(6)
O1 O 0.1385(3) 0.5859(3) 0.8422(5)
O2 O 0.1975(2) 0.57928(15) 0.8942(2)
O3 O 0.23179(14) 0.44003(13) 0.98971(19)
O4 O 0.18951(17) 0.38219(15) 0.9769(2)
O5 O 0.19501(16) 0.37185(14) 0.5102(2)
O6 O 0.23616(17) 0.31328(14) 0.4933(2)
O7 O 0.1919(2) 0.17232(16) 0.5812(3)
O8 O 0.1405(4) 0.1683(3) 0.6445(4)
N1 N 0.0000 0.4178(2) 0.8030(3)
N2 N 0.06523(18) 0.37699(16) 0.7384(2)
N3 N -0.0000 0.3344(2) 0.6744(3)
C1 C 0.0231(2) 0.4635(2) 0.8751(3)
H1 H 0.0415 0.4786 0.8997
C2 C 0.0365(2) 0.4356(2) 0.8299(3)
C3 C 0.0810(2) 0.4273(2) 0.8156(3)
C4 C 0.0937(2) 0.3999(2) 0.7740(3)
C5 C 0.1395(2) 0.3907(3) 0.7596(4)
H2 H 0.1646 0.4016 0.7778
C6 C 0.1390(2) 0.3632(3) 0.7144(4)
H3 H 0.1635 0.3526 0.6950
C7 C 0.0947(2) 0.3542(2) 0.7030(3)
C8 C 0.0803(2) 0.3261(2) 0.6615(3)
C9 C 0.03736(19) 0.31610(18) 0.6487(3)
C10 C 0.0232(2) 0.2892(2) 0.6017(3)
H4 H 0.0415 0.2747 0.5763
C11 C 0.1160(2) 0.4500(2) 0.8501(4)
C12 C 0.1222(3) 0.4931(3) 0.8457(4)
H5 H 0.1037 0.5092 0.8221
C13 C 0.1558(3) 0.5149(2) 0.8755(4)
C14 C 0.1780(3) 0.4909(2) 0.9141(3)
H6 H 0.1987 0.5053 0.9365
C15 C 0.1724(2) 0.4469(2) 0.9228(3)
C16 C 0.1404(2) 0.4270(2) 0.8894(3)
H7 H 0.1352 0.3972 0.8937
C17 C 0.11523(18) 0.30346(19) 0.6260(3)
C18 C 0.1403(2) 0.3258(2) 0.5886(3)
H8 H 0.1342 0.3552 0.5826
C19 C 0.1758(2) 0.30604(18) 0.5581(3)
C20 C 0.1825(2) 0.26159(19) 0.5636(3)
H9 H 0.2038 0.2477 0.5416
C21 C 0.1571(2) 0.2373(2) 0.6025(3)
C22 C 0.1257(2) 0.25960(19) 0.6349(3)
H10 H 0.1113 0.2446 0.6637
C23 C 0.1645(4) 0.5612(3) 0.8693(5)
C24 C 0.1982(2) 0.4210(2) 0.9647(3)
C25 C 0.2027(2) 0.3316(2) 0.5172(3)
C26 C 0.1652(4) 0.1899(3) 0.6095(5)
Y2 Y 0.242454(19) 0.620323(16) 0.94728(3)
O19 O 0.2807(3) 0.6485(2) 0.8670(3)
O20 O 0.29302(19) 0.56408(19) 0.9153(2)
Y4 Y 0.257546(19) 0.379677(16) 0.44728(3)
Y6 Y 0.242454(19) 0.120323(16) 0.55272(3)
O25 O 0.30499(16) 0.37185(14) 0.9898(2)
O26 O 0.26384(17) 0.68672(14) 0.9933(2)
O28 O 0.1919(2) 0.67232(16) 0.9188(3)
Y7 Y 0.757546(19) 0.379677(16) 0.05272(3)
Cu2_2 Cu 1.0000 0.37668(4) 0.73861(6)
N1_2 N 1.0000 0.4178(2) 0.8030(3)
N3_2 N 1.0000 0.3344(2) 0.6744(3)
O11 O 0.8615(3) 0.5859(3) 0.8422(5)
O12 O 0.8025(2) 0.57928(15) 0.8942(2)
O13 O 0.76821(14) 0.44003(13) 0.98971(19)
O14 O 0.81049(17) 0.38219(15) 0.9769(2)
O15 O 0.80499(16) 0.37185(14) 0.5102(2)
O16 O 0.76384(17) 0.31328(14) 0.4933(2)
O17 O 0.8081(2) 0.17232(16) 0.5812(3)
O18 O 0.8595(4) 0.1683(3) 0.6445(4)
N4 N 0.93477(18) 0.37699(16) 0.7384(2)
C27 C 0.9769(2) 0.4635(2) 0.8751(3)
H11 H 0.9585 0.4786 0.8997
C28 C 0.9635(2) 0.4356(2) 0.8299(3)
C29 C 0.9190(2) 0.4273(2) 0.8156(3)
C30 C 0.9063(2) 0.3999(2) 0.7740(3)
C31 C 0.8605(2) 0.3907(3) 0.7596(4)
H12 H 0.8354 0.4016 0.7778
C32 C 0.8610(2) 0.3632(3) 0.7144(4)
H13 H 0.8365 0.3526 0.6950
C33 C 0.9053(2) 0.3542(2) 0.7030(3)
C34 C 0.9197(2) 0.3261(2) 0.6615(3)
C35 C 0.96264(19) 0.31610(18) 0.6487(3)
C36 C 0.9768(2) 0.2892(2) 0.6017(3)
H14 H 0.9585 0.2747 0.5763
C37 C 0.8840(2) 0.4500(2) 0.8501(4)
C38 C 0.8778(3) 0.4931(3) 0.8457(4)
H15 H 0.8963 0.5092 0.8221
C39 C 0.8442(3) 0.5149(2) 0.8755(4)
C40 C 0.8220(3) 0.4909(2) 0.9141(3)
H16 H 0.8013 0.5053 0.9365
C41 C 0.8276(2) 0.4469(2) 0.9228(3)
C42 C 0.8596(2) 0.4270(2) 0.8894(3)
H17 H 0.8648 0.3972 0.8937
C43 C 0.88477(18) 0.30346(19) 0.6260(3)
C44 C 0.8597(2) 0.3258(2) 0.5886(3)
H18 H 0.8658 0.3552 0.5826
C45 C 0.8242(2) 0.30604(18) 0.5581(3)
C46 C 0.8175(2) 0.26159(19) 0.5636(3)
H19 H 0.7962 0.2477 0.5416
C47 C 0.8429(2) 0.2373(2) 0.6025(3)
C48 C 0.8743(2) 0.25960(19) 0.6349(3)
H20 H 0.8887 0.2446 0.6637
C49 C 0.8355(4) 0.5612(3) 0.8693(5)
C50 C 0.8018(2) 0.4210(2) 0.9647(3)
C51 C 0.7973(2) 0.3316(2) 0.5172(3)
C52 C 0.8348(4) 0.1899(3) 0.6095(5)
Y3 Y 0.757546(19) 0.120323(16) 0.55272(3)
Y5 Y 0.757546(19) 0.620323(16) 0.94728(3)
Y8 Y 0.742454(19) 0.379677(16) 0.44728(3)
Cu2_3 Cu 0.0000 0.12332(4) 0.23861(6)
N1_3 N 0.0000 0.0822(2) 0.3030(3)
N3_3 N 0.0000 0.1656(2) 0.1744(3)
O13_2 O 0.23179(14) 0.05997(13) 0.48971(19)
O14_2 O 0.18951(17) 0.11781(15) 0.4769(2)
O15_2 O 0.19501(16) 0.12815(14) 0.0102(2)
O18_2 O 0.1405(4) 0.3317(3) 0.1445(4)
N4_2 N 0.06523(18) 0.12301(16) 0.2384(2)
C27_2 C 0.0231(2) 0.0365(2) 0.3751(3)
H11_2 H 0.0415 0.0214 0.3997
C28_2 C 0.0365(2) 0.0644(2) 0.3299(3)
C29_2 C 0.0810(2) 0.0727(2) 0.3156(3)
C30_2 C 0.0937(2) 0.1001(2) 0.2740(3)
C31_2 C 0.1395(2) 0.1093(3) 0.2596(4)
H12_2 H 0.1646 0.0984 0.2778
C32_2 C 0.1390(2) 0.1368(3) 0.2144(4)
H13_2 H 0.1635 0.1474 0.1950
C33_2 C 0.0947(2) 0.1458(2) 0.2030(3)
C34_2 C 0.0803(2) 0.1739(2) 0.1615(3)
C35_2 C 0.03736(19) 0.18390(18) 0.1487(3)
C36_2 C 0.0232(2) 0.2108(2) 0.1017(3)
H14_2 H 0.0415 0.2253 0.0763
C37_2 C 0.1160(2) 0.0500(2) 0.3501(4)
C38_2 C 0.1222(3) 0.0069(3) 0.3457(4)
C40_2 C 0.1780(3) 0.0091(2) 0.4141(3)
C41_2 C 0.1724(2) 0.0531(2) 0.4228(3)
C42_2 C 0.1404(2) 0.0730(2) 0.3894(3)
H17_2 H 0.1352 0.1028 0.3937
C43_2 C 0.11523(18) 0.19654(19) 0.1260(3)
C44_2 C 0.1403(2) 0.1742(2) 0.0886(3)
H18_2 H 0.1342 0.1448 0.0826
C45_2 C 0.1758(2) 0.19396(18) 0.0581(3)
C46_2 C 0.1825(2) 0.23841(19) 0.0636(3)
H19_2 H 0.2038 0.2523 0.0416
C47_2 C 0.1571(2) 0.2627(2) 0.1025(3)
C48_2 C 0.1257(2) 0.24040(19) 0.1349(3)
H20_2 H 0.1113 0.2554 0.1637
C50_2 C 0.1982(2) 0.0790(2) 0.4647(3)
C51_2 C 0.2027(2) 0.1684(2) 0.0172(3)
C52_2 C 0.1652(4) 0.3101(3) 0.1095(5)
O16_2 O 0.23616(17) 0.18672(14) 0.9933(2)
Y8_2 Y 0.257546(19) 0.120323(16) 0.94728(3)
O11_2 O 0.1385(3) 0.9141(3) 0.3422(5)
O12_2 O 0.1975(2) 0.92072(15) 0.3942(2)
H15_2 H 0.1037 0.9908 0.3221
C39_2 C 0.1558(3) 0.9851(2) 0.3755(4)
H16_2 H 0.1987 0.9947 0.4365
C49_2 C 0.1645(4) 0.9388(3) 0.3693(5)
Y5_2 Y 0.242454(19) 0.879677(16) 0.44728(3)
Cu2_4 Cu 1.0000 0.12332(4) 0.23861(6)
O3_2 O 0.76821(14) 0.05997(13) 0.48971(19)
O4_2 O 0.81049(17) 0.11781(15) 0.4769(2)
O5_2 O 0.80499(16) 0.12815(14) 0.0102(2)
O7_2 O 0.8081(2) 0.32768(16) 0.0812(3)
O8_2 O 0.8595(4) 0.3317(3) 0.1445(4)
O9_2 O 0.7193(3) 0.1485(2) 0.6330(3)
O10_2 O 0.70698(19) 0.06408(19) 0.5847(2)
N1_4 N 1.0000 0.0822(2) 0.3030(3)
N2_2 N 0.93477(18) 0.12301(16) 0.2384(2)
N3_4 N 1.0000 0.1656(2) 0.1744(3)
C1_2 C 0.9769(2) 0.0365(2) 0.3751(3)
H1_2 H 0.9585 0.0214 0.3997
C2_2 C 0.9635(2) 0.0644(2) 0.3299(3)
C3_2 C 0.9190(2) 0.0727(2) 0.3156(3)
C4_2 C 0.9063(2) 0.1001(2) 0.2740(3)
C5_2 C 0.8605(2) 0.1093(3) 0.2596(4)
H2_2 H 0.8354 0.0984 0.2778
C6_2 C 0.8610(2) 0.1368(3) 0.2144(4)
H3_2 H 0.8365 0.1474 0.1950
C7_2 C 0.9053(2) 0.1458(2) 0.2030(3)
C8_2 C 0.9197(2) 0.1739(2) 0.1615(3)
C9_2 C 0.96264(19) 0.18390(18) 0.1487(3)
C10_2 C 0.9768(2) 0.2108(2) 0.1017(3)
H4_2 H 0.9585 0.2253 0.0763
C11_2 C 0.8840(2) 0.0500(2) 0.3501(4)
C12_2 C 0.8778(3) 0.0069(3) 0.3457(4)
C14_2 C 0.8220(3) 0.0091(2) 0.4141(3)
C15_2 C 0.8276(2) 0.0531(2) 0.4228(3)
C16_2 C 0.8596(2) 0.0730(2) 0.3894(3)
H7_2 H 0.8648 0.1028 0.3937
C17_2 C 0.88477(18) 0.19654(19) 0.1260(3)
C18_2 C 0.8597(2) 0.1742(2) 0.0886(3)
H8_2 H 0.8658 0.1448 0.0826
C19_2 C 0.8242(2) 0.19396(18) 0.0581(3)
C20_2 C 0.8175(2) 0.23841(19) 0.0636(3)
H9_2 H 0.7962 0.2523 0.0416
C21_2 C 0.8429(2) 0.2627(2) 0.1025(3)
C22_2 C 0.8743(2) 0.24040(19) 0.1349(3)
H10_2 H 0.8887 0.2554 0.1637
C24_2 C 0.8018(2) 0.0790(2) 0.4647(3)
C25_2 C 0.7973(2) 0.1684(2) 0.0172(3)
C26_2 C 0.8348(4) 0.3101(3) 0.1095(5)
O21_2 O 0.8025(2) 0.07928(15) 0.6058(2)
O25_2 O 0.69501(16) 0.12815(14) 0.4898(2)
O27_2 O 0.73616(17) 0.18672(14) 0.5067(2)
O6_2 O 0.76384(17) 0.18672(14) 0.9933(2)
Y4_2 Y 0.742454(19) 0.120323(16) 0.94728(3)
O1_2 O 0.8615(3) 0.9141(3) 0.3422(5)
O2_2 O 0.8025(2) 0.92072(15) 0.3942(2)
H5_2 H 0.8963 0.9908 0.3221
C13_2 C 0.8442(3) 0.9851(2) 0.3755(4)
H6_2 H 0.8013 0.9947 0.4365
C23_2 C 0.8355(4) 0.9388(3) 0.3693(5)
Y2_2 Y 0.757546(19) 0.879677(16) 0.44728(3)
O19_2 O 0.7193(3) 0.8515(2) 0.3670(3)
O20_2 O 0.70698(19) 0.93592(19) 0.4153(2)
O22_2 O 0.76821(14) 0.94003(13) 0.51029(19)
O23_2 O 0.81049(17) 0.88219(15) 0.5231(2)
O24_2 O 0.69501(16) 0.87185(14) 0.5102(2)
O26_2 O 0.73616(17) 0.81328(14) 0.4933(2)
O28_2 O 0.8081(2) 0.82768(16) 0.4188(3)
O11_3 O 0.1385(3) 0.0859(3) 0.6578(5)
O12_3 O 0.1975(2) 0.07928(15) 0.6058(2)
H15_3 H 0.1037 0.0092 0.6779
C39_3 C 0.1558(3) 0.0149(2) 0.6245(4)
H16_3 H 0.1987 0.0053 0.5635
C49_3 C 0.1645(4) 0.0612(3) 0.6307(5)
O16_3 O 0.23616(17) 0.81328(14) 0.0067(2)
Y8_3 Y 0.257546(19) 0.879677(16) 0.05272(3)
Cu2_5 Cu -0.0000 0.87668(4) 0.76139(6)
N1_5 N 0.0000 0.9178(2) 0.6970(3)
N3_5 N 0.0000 0.8344(2) 0.8256(3)
O13_3 O 0.23179(14) 0.94003(13) 0.51029(19)
O14_3 O 0.18951(17) 0.88219(15) 0.5231(2)
O15_3 O 0.19501(16) 0.87185(14) 0.9898(2)
O18_3 O 0.1405(4) 0.6683(3) 0.8555(4)
N4_3 N 0.06523(18) 0.87699(16) 0.7616(2)
C27_3 C 0.0231(2) 0.9635(2) 0.6249(3)
H11_3 H 0.0415 0.9786 0.6003
C28_3 C 0.0365(2) 0.9356(2) 0.6701(3)
C29_3 C 0.0810(2) 0.9273(2) 0.6844(3)
C30_3 C 0.0937(2) 0.8999(2) 0.7260(3)
C31_3 C 0.1395(2) 0.8907(3) 0.7404(4)
H12_3 H 0.1646 0.9016 0.7222
C32_3 C 0.1390(2) 0.8632(3) 0.7856(4)
H13_3 H 0.1635 0.8526 0.8050
C33_3 C 0.0947(2) 0.8542(2) 0.7970(3)
C34_3 C 0.0803(2) 0.8261(2) 0.8385(3)
C35_3 C 0.03736(19) 0.81610(18) 0.8513(3)
C36_3 C 0.0232(2) 0.7892(2) 0.8983(3)
H14_3 H 0.0415 0.7747 0.9237
C37_3 C 0.1160(2) 0.9500(2) 0.6499(4)
C38_3 C 0.1222(3) 0.9931(3) 0.6543(4)
C40_3 C 0.1780(3) 0.9909(2) 0.5859(3)
C41_3 C 0.1724(2) 0.9469(2) 0.5772(3)
C42_3 C 0.1404(2) 0.9270(2) 0.6106(3)
H17_3 H 0.1352 0.8972 0.6063
C43_3 C 0.11523(18) 0.80346(19) 0.8740(3)
C44_3 C 0.1403(2) 0.8258(2) 0.9114(3)
H18_3 H 0.1342 0.8552 0.9174
C45_3 C 0.1758(2) 0.80604(18) 0.9419(3)
C46_3 C 0.1825(2) 0.76159(19) 0.9364(3)
H19_3 H 0.2038 0.7477 0.9584
C47_3 C 0.1571(2) 0.7373(2) 0.8975(3)
C48_3 C 0.1257(2) 0.75960(19) 0.8651(3)
H20_3 H 0.1113 0.7446 0.8363
C50_3 C 0.1982(2) 0.9210(2) 0.5353(3)
C51_3 C 0.2027(2) 0.8316(2) 0.9828(3)
C52_3 C 0.1652(4) 0.6899(3) 0.8905(5)
O1_3 O 0.8615(3) 0.0859(3) 0.6578(5)
H5_3 H 0.8963 0.0092 0.6779
C13_3 C 0.8442(3) 0.0149(2) 0.6245(4)
H6_3 H 0.8013 0.0053 0.5635
C23_3 C 0.8355(4) 0.0612(3) 0.6307(5)
O6_3 O 0.76384(17) 0.81328(14) 0.0067(2)
Y4_3 Y 0.742454(19) 0.879677(16) 0.05272(3)
Cu2_6 Cu 1.0000 0.87668(4) 0.76139(6)
O5_3 O 0.80499(16) 0.87185(14) 0.9898(2)
O7_3 O 0.8081(2) 0.67232(16) 0.9188(3)
O8_3 O 0.8595(4) 0.6683(3) 0.8555(4)
N1_6 N 1.0000 0.9178(2) 0.6970(3)
N2_3 N 0.93477(18) 0.87699(16) 0.7616(2)
N3_6 N 1.0000 0.8344(2) 0.8256(3)
C1_3 C 0.9769(2) 0.9635(2) 0.6249(3)
H1_3 H 0.9585 0.9786 0.6003
C2_3 C 0.9635(2) 0.9356(2) 0.6701(3)
C3_3 C 0.9190(2) 0.9273(2) 0.6844(3)
C4_3 C 0.9063(2) 0.8999(2) 0.7260(3)
C5_3 C 0.8605(2) 0.8907(3) 0.7404(4)
H2_3 H 0.8354 0.9016 0.7222
C6_3 C 0.8610(2) 0.8632(3) 0.7856(4)
H3_3 H 0.8365 0.8526 0.8050
C7_3 C 0.9053(2) 0.8542(2) 0.7970(3)
C8_3 C 0.9197(2) 0.8261(2) 0.8385(3)
C9_3 C 0.96264(19) 0.81610(18) 0.8513(3)
C10_3 C 0.9768(2) 0.7892(2) 0.8983(3)
H4_3 H 0.9585 0.7747 0.9237
C11_3 C 0.8840(2) 0.9500(2) 0.6499(4)
C12_3 C 0.8778(3) 0.9931(3) 0.6543(4)
C14_3 C 0.8220(3) 0.9909(2) 0.5859(3)
C15_3 C 0.8276(2) 0.9469(2) 0.5772(3)
C16_3 C 0.8596(2) 0.9270(2) 0.6106(3)
H7_3 H 0.8648 0.8972 0.6063
C17_3 C 0.88477(18) 0.80346(19) 0.8740(3)
C18_3 C 0.8597(2) 0.8258(2) 0.9114(3)
H8_3 H 0.8658 0.8552 0.9174
C19_3 C 0.8242(2) 0.80604(18) 0.9419(3)
C20_3 C 0.8175(2) 0.76159(19) 0.9364(3)
H9_3 H 0.7962 0.7477 0.9584
C21_3 C 0.8429(2) 0.7373(2) 0.8975(3)
C22_3 C 0.8743(2) 0.75960(19) 0.8651(3)
H10_3 H 0.8887 0.7446 0.8363
C24_3 C 0.8018(2) 0.9210(2) 0.5353(3)
C25_3 C 0.7973(2) 0.8316(2) 0.9828(3)
C26_3 C 0.8348(4) 0.6899(3) 0.8905(5)
Cu2_7 Cu -0.0000 0.62332(4) 0.26139(6)
O1_4 O 0.1385(3) 0.4141(3) 0.1578(5)
O5_4 O 0.19501(16) 0.62815(14) 0.4898(2)
O6_4 O 0.23616(17) 0.68672(14) 0.5067(2)
O7_4 O 0.1919(2) 0.82768(16) 0.4188(3)
O8_4 O 0.1405(4) 0.8317(3) 0.3555(4)
N1_7 N -0.0000 0.5822(2) 0.1970(3)
N2_4 N 0.06523(18) 0.62301(16) 0.2616(2)
N3_7 N -0.0000 0.6656(2) 0.3256(3)
C1_4 C 0.0231(2) 0.5365(2) 0.1249(3)
H1_4 H 0.0415 0.5214 0.1003
C2_4 C 0.0365(2) 0.5644(2) 0.1701(3)
C3_4 C 0.0810(2) 0.5727(2) 0.1844(3)
C4_4 C 0.0937(2) 0.6001(2) 0.2260(3)
C5_4 C 0.1395(2) 0.6093(3) 0.2404(4)
H2_4 H 0.1646 0.5984 0.2222
C6_4 C 0.1390(2) 0.6368(3) 0.2856(4)
H3_4 H 0.1635 0.6474 0.3050
C7_4 C 0.0947(2) 0.6458(2) 0.2970(3)
C8_4 C 0.0803(2) 0.6739(2) 0.3385(3)
C9_4 C 0.03736(19) 0.68390(18) 0.3513(3)
C10_4 C 0.0232(2) 0.7108(2) 0.3983(3)
H4_4 H 0.0415 0.7253 0.4237
C11_4 C 0.1160(2) 0.5500(2) 0.1499(4)
C12_4 C 0.1222(3) 0.5069(3) 0.1543(4)
H5_4 H 0.1037 0.4908 0.1779
C13_4 C 0.1558(3) 0.4851(2) 0.1245(4)
C14_4 C 0.1780(3) 0.5091(2) 0.0859(3)
H6_4 H 0.1987 0.4947 0.0635
C15_4 C 0.1724(2) 0.5531(2) 0.0772(3)
C16_4 C 0.1404(2) 0.5730(2) 0.1106(3)
H7_4 H 0.1352 0.6028 0.1063
C17_4 C 0.11523(18) 0.69654(19) 0.3740(3)
C18_4 C 0.1403(2) 0.6742(2) 0.4114(3)
H8_4 H 0.1342 0.6448 0.4174
C19_4 C 0.1758(2) 0.69396(18) 0.4419(3)
C20_4 C 0.1825(2) 0.73841(19) 0.4364(3)
H9_4 H 0.2038 0.7523 0.4584
C21_4 C 0.1571(2) 0.7627(2) 0.3975(3)
C22_4 C 0.1257(2) 0.74040(19) 0.3651(3)
H10_4 H 0.1113 0.7554 0.3363
C23_4 C 0.1645(4) 0.4388(3) 0.1307(5)
C24_4 C 0.1982(2) 0.5790(2) 0.0353(3)
C25_4 C 0.2027(2) 0.6684(2) 0.4828(3)
C26_4 C 0.1652(4) 0.8101(3) 0.3905(5)
Y4_4 Y 0.257546(19) 0.620323(16) 0.55272(3)
Cu2_8 Cu 1.0000 0.62332(4) 0.26139(6)
N1_8 N 1.0000 0.5822(2) 0.1970(3)
N3_8 N 1.0000 0.6656(2) 0.3256(3)
O11_4 O 0.8615(3) 0.4141(3) 0.1578(5)
O12_4 O 0.8025(2) 0.42072(15) 0.1058(2)
O13_4 O 0.76821(14) 0.55997(13) 0.01029(19)
O14_4 O 0.81049(17) 0.61781(15) 0.0231(2)
O15_4 O 0.80499(16) 0.62815(14) 0.4898(2)
O16_4 O 0.76384(17) 0.68672(14) 0.5067(2)
O18_4 O 0.8595(4) 0.8317(3) 0.3555(4)
N4_4 N 0.93477(18) 0.62301(16) 0.2616(2)
C27_4 C 0.9769(2) 0.5365(2) 0.1249(3)
H11_4 H 0.9585 0.5214 0.1003
C28_4 C 0.9635(2) 0.5644(2) 0.1701(3)
C29_4 C 0.9190(2) 0.5727(2) 0.1844(3)
C30_4 C 0.9063(2) 0.6001(2) 0.2260(3)
C31_4 C 0.8605(2) 0.6093(3) 0.2404(4)
H12_4 H 0.8354 0.5984 0.2222
C32_4 C 0.8610(2) 0.6368(3) 0.2856(4)
H13_4 H 0.8365 0.6474 0.3050
C33_4 C 0.9053(2) 0.6458(2) 0.2970(3)
C34_4 C 0.9197(2) 0.6739(2) 0.3385(3)
C35_4 C 0.96264(19) 0.68390(18) 0.3513(3)
C36_4 C 0.9768(2) 0.7108(2) 0.3983(3)
H14_4 H 0.9585 0.7253 0.4237
C37_4 C 0.8840(2) 0.5500(2) 0.1499(4)
C38_4 C 0.8778(3) 0.5069(3) 0.1543(4)
H15_4 H 0.8963 0.4908 0.1779
C39_4 C 0.8442(3) 0.4851(2) 0.1245(4)
C40_4 C 0.8220(3) 0.5091(2) 0.0859(3)
H16_4 H 0.8013 0.4947 0.0635
C41_4 C 0.8276(2) 0.5531(2) 0.0772(3)
C42_4 C 0.8596(2) 0.5730(2) 0.1106(3)
H17_4 H 0.8648 0.6028 0.1063
C43_4 C 0.88477(18) 0.69654(19) 0.3740(3)
C44_4 C 0.8597(2) 0.6742(2) 0.4114(3)
H18_4 H 0.8658 0.6448 0.4174
C45_4 C 0.8242(2) 0.69396(18) 0.4419(3)
C46_4 C 0.8175(2) 0.73841(19) 0.4364(3)
H19_4 H 0.7962 0.7523 0.4584
C47_4 C 0.8429(2) 0.7627(2) 0.3975(3)
C48_4 C 0.8743(2) 0.74040(19) 0.3651(3)
H20_4 H 0.8887 0.7554 0.3363
C49_4 C 0.8355(4) 0.4388(3) 0.1307(5)
C50_4 C 0.8018(2) 0.5790(2) 0.0353(3)
C51_4 C 0.7973(2) 0.6684(2) 0.4828(3)
C52_4 C 0.8348(4) 0.8101(3) 0.3905(5)
Y8_4 Y 0.742454(19) 0.620323(16) 0.55272(3)
O22_3 O 0.73179(14) 0.05997(13) 0.01029(19)
O23_3 O 0.68951(17) 0.11781(15) 0.0231(2)
O1_5 O 0.6385(3) 0.0859(3) 0.8422(5)
O2_3 O 0.6975(2) 0.07928(15) 0.8942(2)
H5_5 H 0.6037 0.0092 0.8221
C13_5 C 0.6558(3) 0.0149(2) 0.8755(4)
H6_5 H 0.6987 0.0053 0.9365
C23_5 C 0.6645(4) 0.0612(3) 0.8693(5)
O11_5 O 0.3615(3) 0.0859(3) 0.8422(5)
O12_5 O 0.3025(2) 0.07928(15) 0.8942(2)
H15_5 H 0.3963 0.0092 0.8221
C39_5 C 0.3442(3) 0.0149(2) 0.8755(4)
H16_5 H 0.3013 0.0053 0.9365
C49_5 C 0.3355(4) 0.0612(3) 0.8693(5)
O19_3 O 0.7807(3) 0.1485(2) 0.8670(3)
O20_3 O 0.79302(19) 0.06408(19) 0.9153(2)
O28_3 O 0.6919(2) 0.17232(16) 0.9188(3)
O9_3 O 0.7807(3) 0.8515(2) 0.1330(3)
O10_3 O 0.79302(19) 0.93592(19) 0.0847(2)
O21_3 O 0.6975(2) 0.92072(15) 0.1058(2)
O29_2 O 0.6919(2) 0.82768(16) 0.0812(3)
Cu2_9 Cu 0.5000 0.87668(4) 0.73861(6)
O3_3 O 0.73179(14) 0.94003(13) 0.98971(19)
O4_3 O 0.68951(17) 0.88219(15) 0.9769(2)
O7_5 O 0.6919(2) 0.67232(16) 0.5812(3)
O8_5 O 0.6405(4) 0.6683(3) 0.6445(4)
N1_9 N 0.5000 0.9178(2) 0.8030(3)
N2_5 N 0.56523(18) 0.87699(16) 0.7384(2)
N3_9 N 0.5000 0.8344(2) 0.6744(3)
C1_5 C 0.5231(2) 0.9635(2) 0.8751(3)
H1_5 H 0.5415 0.9786 0.8997
C2_5 C 0.5365(2) 0.9356(2) 0.8299(3)
C3_5 C 0.5810(2) 0.9273(2) 0.8156(3)
C4_5 C 0.5937(2) 0.8999(2) 0.7740(3)
C5_5 C 0.6395(2) 0.8907(3) 0.7596(4)
H2_5 H 0.6646 0.9016 0.7778
C6_5 C 0.6390(2) 0.8632(3) 0.7144(4)
H3_5 H 0.6635 0.8526 0.6950
C7_5 C 0.5947(2) 0.8542(2) 0.7030(3)
C8_5 C 0.5803(2) 0.8261(2) 0.6615(3)
C9_5 C 0.53736(19) 0.81610(18) 0.6487(3)
C10_5 C 0.5232(2) 0.7892(2) 0.6017(3)
H4_5 H 0.5415 0.7747 0.5763
C11_5 C 0.6160(2) 0.9500(2) 0.8501(4)
C12_5 C 0.6222(3) 0.9931(3) 0.8457(4)
C14_5 C 0.6780(3) 0.9909(2) 0.9141(3)
C15_5 C 0.6724(2) 0.9469(2) 0.9228(3)
C16_5 C 0.6404(2) 0.9270(2) 0.8894(3)
H7_5 H 0.6352 0.8972 0.8937
C17_5 C 0.61523(18) 0.80346(19) 0.6260(3)
C18_5 C 0.6403(2) 0.8258(2) 0.5886(3)
H8_5 H 0.6342 0.8552 0.5826
C19_5 C 0.6758(2) 0.80604(18) 0.5581(3)
C20_5 C 0.6825(2) 0.76159(19) 0.5636(3)
H9_5 H 0.7038 0.7477 0.5416
C21_5 C 0.6571(2) 0.7373(2) 0.6025(3)
C22_5 C 0.6257(2) 0.75960(19) 0.6349(3)
H10_5 H 0.6113 0.7446 0.6637
C24_5 C 0.6982(2) 0.9210(2) 0.9647(3)
C25_5 C 0.7027(2) 0.8316(2) 0.5172(3)
C26_5 C 0.6652(4) 0.6899(3) 0.6095(5)
O13_5 O 0.26821(14) 0.94003(13) 0.98971(19)
O14_5 O 0.31049(17) 0.88219(15) 0.9769(2)
O15_5 O 0.30499(16) 0.87185(14) 0.5102(2)
O16_5 O 0.26384(17) 0.81328(14) 0.4933(2)
O17_2 O 0.3081(2) 0.67232(16) 0.5812(3)
O18_5 O 0.3595(4) 0.6683(3) 0.6445(4)
N4_5 N 0.43477(18) 0.87699(16) 0.7384(2)
C27_5 C 0.4769(2) 0.9635(2) 0.8751(3)
H11_5 H 0.4585 0.9786 0.8997
C28_5 C 0.4635(2) 0.9356(2) 0.8299(3)
C29_5 C 0.4190(2) 0.9273(2) 0.8156(3)
C30_5 C 0.4063(2) 0.8999(2) 0.7740(3)
C31_5 C 0.3605(2) 0.8907(3) 0.7596(4)
H12_5 H 0.3354 0.9016 0.7778
C32_5 C 0.3610(2) 0.8632(3) 0.7144(4)
H13_5 H 0.3365 0.8526 0.6950
C33_5 C 0.4053(2) 0.8542(2) 0.7030(3)
C34_5 C 0.4197(2) 0.8261(2) 0.6615(3)
C35_5 C 0.46264(19) 0.81610(18) 0.6487(3)
C36_5 C 0.4768(2) 0.7892(2) 0.6017(3)
H14_5 H 0.4585 0.7747 0.5763
C37_5 C 0.3840(2) 0.9500(2) 0.8501(4)
C38_5 C 0.3778(3) 0.9931(3) 0.8457(4)
C40_5 C 0.3220(3) 0.9909(2) 0.9141(3)
C41_5 C 0.3276(2) 0.9469(2) 0.9228(3)
C42_5 C 0.3596(2) 0.9270(2) 0.8894(3)
H17_5 H 0.3648 0.8972 0.8937
C43_5 C 0.38477(18) 0.80346(19) 0.6260(3)
C44_5 C 0.3597(2) 0.8258(2) 0.5886(3)
H18_5 H 0.3658 0.8552 0.5826
C45_5 C 0.3242(2) 0.80604(18) 0.5581(3)
C46_5 C 0.3175(2) 0.76159(19) 0.5636(3)
H19_5 H 0.2962 0.7477 0.5416
C47_5 C 0.3429(2) 0.7373(2) 0.6025(3)
C48_5 C 0.3743(2) 0.75960(19) 0.6349(3)
H20_5 H 0.3887 0.7446 0.6637
C50_5 C 0.3018(2) 0.9210(2) 0.9647(3)
C51_5 C 0.2973(2) 0.8316(2) 0.5172(3)
C52_5 C 0.3348(4) 0.6899(3) 0.6095(5)
Cu2_10 Cu 0.5000 0.62332(4) 0.23861(6)
O1_6 O 0.3615(3) 0.4141(3) 0.3422(5)
O2_4 O 0.3025(2) 0.42072(15) 0.3942(2)
O3_4 O 0.26821(14) 0.55997(13) 0.48971(19)
O4_4 O 0.31049(17) 0.61781(15) 0.4769(2)
O7_6 O 0.3081(2) 0.82768(16) 0.0812(3)
O8_6 O 0.3595(4) 0.8317(3) 0.1445(4)
O9_4 O 0.2193(3) 0.6485(2) 0.6330(3)
O10_4 O 0.20698(19) 0.56408(19) 0.5847(2)
N1_10 N 0.5000 0.5822(2) 0.3030(3)
N2_6 N 0.43477(18) 0.62301(16) 0.2384(2)
N3_10 N 0.5000 0.6656(2) 0.1744(3)
C1_6 C 0.4769(2) 0.5365(2) 0.3751(3)
H1_6 H 0.4585 0.5214 0.3997
C2_6 C 0.4635(2) 0.5644(2) 0.3299(3)
C3_6 C 0.4190(2) 0.5727(2) 0.3156(3)
C4_6 C 0.4063(2) 0.6001(2) 0.2740(3)
C5_6 C 0.3605(2) 0.6093(3) 0.2596(4)
H2_6 H 0.3354 0.5984 0.2778
C6_6 C 0.3610(2) 0.6368(3) 0.2144(4)
H3_6 H 0.3365 0.6474 0.1950
C7_6 C 0.4053(2) 0.6458(2) 0.2030(3)
C8_6 C 0.4197(2) 0.6739(2) 0.1615(3)
C9_6 C 0.46264(19) 0.68390(18) 0.1487(3)
C10_6 C 0.4768(2) 0.7108(2) 0.1017(3)
H4_6 H 0.4585 0.7253 0.0763
C11_6 C 0.3840(2) 0.5500(2) 0.3501(4)
C12_6 C 0.3778(3) 0.5069(3) 0.3457(4)
H5_6 H 0.3963 0.4908 0.3221
C13_6 C 0.3442(3) 0.4851(2) 0.3755(4)
C14_6 C 0.3220(3) 0.5091(2) 0.4141(3)
H6_6 H 0.3013 0.4947 0.4365
C15_6 C 0.3276(2) 0.5531(2) 0.4228(3)
C16_6 C 0.3596(2) 0.5730(2) 0.3894(3)
H7_6 H 0.3648 0.6028 0.3937
C17_6 C 0.38477(18) 0.69654(19) 0.1260(3)
C18_6 C 0.3597(2) 0.6742(2) 0.0886(3)
H8_6 H 0.3658 0.6448 0.0826
C19_6 C 0.3242(2) 0.69396(18) 0.0581(3)
C20_6 C 0.3175(2) 0.73841(19) 0.0636(3)
H9_6 H 0.2962 0.7523 0.0416
C21_6 C 0.3429(2) 0.7627(2) 0.1025(3)
C22_6 C 0.3743(2) 0.74040(19) 0.1349(3)
H10_6 H 0.3887 0.7554 0.1637
C23_6 C 0.3355(4) 0.4388(3) 0.3693(5)
C24_6 C 0.3018(2) 0.5790(2) 0.4647(3)
C25_6 C 0.2973(2) 0.6684(2) 0.0172(3)
C26_6 C 0.3348(4) 0.8101(3) 0.1095(5)
O11_6 O 0.6385(3) 0.4141(3) 0.3422(5)
O12_6 O 0.6975(2) 0.42072(15) 0.3942(2)
O13_6 O 0.73179(14) 0.55997(13) 0.48971(19)
O14_6 O 0.68951(17) 0.61781(15) 0.4769(2)
O15_6 O 0.69501(16) 0.62815(14) 0.0102(2)
O18_6 O 0.6405(4) 0.8317(3) 0.1445(4)
N4_6 N 0.56523(18) 0.62301(16) 0.2384(2)
C27_6 C 0.5231(2) 0.5365(2) 0.3751(3)
H11_6 H 0.5415 0.5214 0.3997
C28_6 C 0.5365(2) 0.5644(2) 0.3299(3)
C29_6 C 0.5810(2) 0.5727(2) 0.3156(3)
C30_6 C 0.5937(2) 0.6001(2) 0.2740(3)
C31_6 C 0.6395(2) 0.6093(3) 0.2596(4)
H12_6 H 0.6646 0.5984 0.2778
C32_6 C 0.6390(2) 0.6368(3) 0.2144(4)
H13_6 H 0.6635 0.6474 0.1950
C33_6 C 0.5947(2) 0.6458(2) 0.2030(3)
C34_6 C 0.5803(2) 0.6739(2) 0.1615(3)
C35_6 C 0.53736(19) 0.68390(18) 0.1487(3)
C36_6 C 0.5232(2) 0.7108(2) 0.1017(3)
H14_6 H 0.5415 0.7253 0.0763
C37_6 C 0.6160(2) 0.5500(2) 0.3501(4)
C38_6 C 0.6222(3) 0.5069(3) 0.3457(4)
H15_6 H 0.6037 0.4908 0.3221
C39_6 C 0.6558(3) 0.4851(2) 0.3755(4)
C40_6 C 0.6780(3) 0.5091(2) 0.4141(3)
H16_6 H 0.6987 0.4947 0.4365
C41_6 C 0.6724(2) 0.5531(2) 0.4228(3)
C42_6 C 0.6404(2) 0.5730(2) 0.3894(3)
H17_6 H 0.6352 0.6028 0.3937
C43_6 C 0.61523(18) 0.69654(19) 0.1260(3)
C44_6 C 0.6403(2) 0.6742(2) 0.0886(3)
H18_6 H 0.6342 0.6448 0.0826
C45_6 C 0.6758(2) 0.69396(18) 0.0581(3)
C46_6 C 0.6825(2) 0.73841(19) 0.0636(3)
H19_6 H 0.7038 0.7523 0.0416
C47_6 C 0.6571(2) 0.7627(2) 0.1025(3)
C48_6 C 0.6257(2) 0.74040(19) 0.1349(3)
H20_6 H 0.6113 0.7554 0.1637
C49_6 C 0.6645(4) 0.4388(3) 0.3693(5)
C50_6 C 0.6982(2) 0.5790(2) 0.4647(3)
C51_6 C 0.7027(2) 0.6684(2) 0.0172(3)
C52_6 C 0.6652(4) 0.8101(3) 0.1095(5)
O19_4 O 0.2193(3) 0.3515(2) 0.3670(3)
O20_4 O 0.20698(19) 0.43592(19) 0.4153(2)
O21_4 O 0.3025(2) 0.57928(15) 0.6058(2)
O22_4 O 0.26821(14) 0.44003(13) 0.51029(19)
O23_4 O 0.31049(17) 0.38219(15) 0.5231(2)
O28_4 O 0.3081(2) 0.32768(16) 0.4188(3)
O16_6 O 0.73616(17) 0.68672(14) 0.9933(2)
O16_7 O 0.73616(17) 0.31328(14) 0.0067(2)
Cu2_11 Cu 0.5000 0.37668(4) 0.76139(6)
O1_7 O 0.3615(3) 0.5859(3) 0.6578(5)
O7_7 O 0.3081(2) 0.17232(16) 0.9188(3)
O8_7 O 0.3595(4) 0.1683(3) 0.8555(4)
N1_11 N 0.5000 0.4178(2) 0.6970(3)
N2_7 N 0.43477(18) 0.37699(16) 0.7616(2)
N3_11 N 0.5000 0.3344(2) 0.8256(3)
C1_7 C 0.4769(2) 0.4635(2) 0.6249(3)
H1_7 H 0.4585 0.4786 0.6003
C2_7 C 0.4635(2) 0.4356(2) 0.6701(3)
C3_7 C 0.4190(2) 0.4273(2) 0.6844(3)
C4_7 C 0.4063(2) 0.3999(2) 0.7260(3)
C5_7 C 0.3605(2) 0.3907(3) 0.7404(4)
H2_7 H 0.3354 0.4016 0.7222
C6_7 C 0.3610(2) 0.3632(3) 0.7856(4)
H3_7 H 0.3365 0.3526 0.8050
C7_7 C 0.4053(2) 0.3542(2) 0.7970(3)
C8_7 C 0.4197(2) 0.3261(2) 0.8385(3)
C9_7 C 0.46264(19) 0.31610(18) 0.8513(3)
C10_7 C 0.4768(2) 0.2892(2) 0.8983(3)
H4_7 H 0.4585 0.2747 0.9237
C11_7 C 0.3840(2) 0.4500(2) 0.6499(4)
C12_7 C 0.3778(3) 0.4931(3) 0.6543(4)
H5_7 H 0.3963 0.5092 0.6779
C13_7 C 0.3442(3) 0.5149(2) 0.6245(4)
C14_7 C 0.3220(3) 0.4909(2) 0.5859(3)
H6_7 H 0.3013 0.5053 0.5635
C15_7 C 0.3276(2) 0.4469(2) 0.5772(3)
C16_7 C 0.3596(2) 0.4270(2) 0.6106(3)
H7_7 H 0.3648 0.3972 0.6063
C17_7 C 0.38477(18) 0.30346(19) 0.8740(3)
C18_7 C 0.3597(2) 0.3258(2) 0.9114(3)
H8_7 H 0.3658 0.3552 0.9174
C19_7 C 0.3242(2) 0.30604(18) 0.9419(3)
C20_7 C 0.3175(2) 0.26159(19) 0.9364(3)
H9_7 H 0.2962 0.2477 0.9584
C21_7 C 0.3429(2) 0.2373(2) 0.8975(3)
C22_7 C 0.3743(2) 0.25960(19) 0.8651(3)
H10_7 H 0.3887 0.2446 0.8363
C23_7 C 0.3355(4) 0.5612(3) 0.6307(5)
C24_7 C 0.3018(2) 0.4210(2) 0.5353(3)
C25_7 C 0.2973(2) 0.3316(2) 0.9828(3)
C26_7 C 0.3348(4) 0.1899(3) 0.8905(5)
O11_7 O 0.6385(3) 0.5859(3) 0.6578(5)
O12_7 O 0.6975(2) 0.57928(15) 0.6058(2)
O13_7 O 0.73179(14) 0.44003(13) 0.51029(19)
O14_7 O 0.68951(17) 0.38219(15) 0.5231(2)
O15_7 O 0.69501(16) 0.37185(14) 0.9898(2)
O18_7 O 0.6405(4) 0.1683(3) 0.8555(4)
N4_7 N 0.56523(18) 0.37699(16) 0.7616(2)
C27_7 C 0.5231(2) 0.4635(2) 0.6249(3)
H11_7 H 0.5415 0.4786 0.6003
C28_7 C 0.5365(2) 0.4356(2) 0.6701(3)
C29_7 C 0.5810(2) 0.4273(2) 0.6844(3)
C30_7 C 0.5937(2) 0.3999(2) 0.7260(3)
C31_7 C 0.6395(2) 0.3907(3) 0.7404(4)
H12_7 H 0.6646 0.4016 0.7222
C32_7 C 0.6390(2) 0.3632(3) 0.7856(4)
H13_7 H 0.6635 0.3526 0.8050
C33_7 C 0.5947(2) 0.3542(2) 0.7970(3)
C34_7 C 0.5803(2) 0.3261(2) 0.8385(3)
C35_7 C 0.53736(19) 0.31610(18) 0.8513(3)
C36_7 C 0.5232(2) 0.2892(2) 0.8983(3)
H14_7 H 0.5415 0.2747 0.9237
C37_7 C 0.6160(2) 0.4500(2) 0.6499(4)
C38_7 C 0.6222(3) 0.4931(3) 0.6543(4)
H15_7 H 0.6037 0.5092 0.6779
C39_7 C 0.6558(3) 0.5149(2) 0.6245(4)
C40_7 C 0.6780(3) 0.4909(2) 0.5859(3)
H16_7 H 0.6987 0.5053 0.5635
C41_7 C 0.6724(2) 0.4469(2) 0.5772(3)
C42_7 C 0.6404(2) 0.4270(2) 0.6106(3)
H17_7 H 0.6352 0.3972 0.6063
C43_7 C 0.61523(18) 0.30346(19) 0.8740(3)
C44_7 C 0.6403(2) 0.3258(2) 0.9114(3)
H18_7 H 0.6342 0.3552 0.9174
C45_7 C 0.6758(2) 0.30604(18) 0.9419(3)
C46_7 C 0.6825(2) 0.26159(19) 0.9364(3)
H19_7 H 0.7038 0.2477 0.9584
C47_7 C 0.6571(2) 0.2373(2) 0.8975(3)
C48_7 C 0.6257(2) 0.25960(19) 0.8651(3)
H20_7 H 0.6113 0.2446 0.8363
C49_7 C 0.6645(4) 0.5612(3) 0.6307(5)
C50_7 C 0.6982(2) 0.4210(2) 0.5353(3)
C51_7 C 0.7027(2) 0.3316(2) 0.9828(3)
C52_7 C 0.6652(4) 0.1899(3) 0.8905(5)
Cu2_12 Cu 0.5000 0.12332(4) 0.26139(6)
O7_8 O 0.6919(2) 0.32768(16) 0.4188(3)
O8_8 O 0.6405(4) 0.3317(3) 0.3555(4)
N1_12 N 0.5000 0.0822(2) 0.1970(3)
N2_8 N 0.56523(18) 0.12301(16) 0.2616(2)
N3_12 N 0.5000 0.1656(2) 0.3256(3)
C1_8 C 0.5231(2) 0.0365(2) 0.1249(3)
H1_8 H 0.5415 0.0214 0.1003
C2_8 C 0.5365(2) 0.0644(2) 0.1701(3)
C3_8 C 0.5810(2) 0.0727(2) 0.1844(3)
C4_8 C 0.5937(2) 0.1001(2) 0.2260(3)
C5_8 C 0.6395(2) 0.1093(3) 0.2404(4)
H2_8 H 0.6646 0.0984 0.2222
C6_8 C 0.6390(2) 0.1368(3) 0.2856(4)
H3_8 H 0.6635 0.1474 0.3050
C7_8 C 0.5947(2) 0.1458(2) 0.2970(3)
C8_8 C 0.5803(2) 0.1739(2) 0.3385(3)
C9_8 C 0.53736(19) 0.18390(18) 0.3513(3)
C10_8 C 0.5232(2) 0.2108(2) 0.3983(3)
H4_8 H 0.5415 0.2253 0.4237
C11_8 C 0.6160(2) 0.0500(2) 0.1499(4)
C12_8 C 0.6222(3) 0.0069(3) 0.1543(4)
C14_8 C 0.6780(3) 0.0091(2) 0.0859(3)
C15_8 C 0.6724(2) 0.0531(2) 0.0772(3)
C16_8 C 0.6404(2) 0.0730(2) 0.1106(3)
H7_8 H 0.6352 0.1028 0.1063
C17_8 C 0.61523(18) 0.19654(19) 0.3740(3)
C18_8 C 0.6403(2) 0.1742(2) 0.4114(3)
H8_8 H 0.6342 0.1448 0.4174
C19_8 C 0.6758(2) 0.19396(18) 0.4419(3)
C20_8 C 0.6825(2) 0.23841(19) 0.4364(3)
H9_8 H 0.7038 0.2523 0.4584
C21_8 C 0.6571(2) 0.2627(2) 0.3975(3)
C22_8 C 0.6257(2) 0.24040(19) 0.3651(3)
H10_8 H 0.6113 0.2554 0.3363
C24_8 C 0.6982(2) 0.0790(2) 0.0353(3)
C25_8 C 0.7027(2) 0.1684(2) 0.4828(3)
C26_8 C 0.6652(4) 0.3101(3) 0.3905(5)
O13_8 O 0.26821(14) 0.05997(13) 0.01029(19)
O14_8 O 0.31049(17) 0.11781(15) 0.0231(2)
O15_8 O 0.30499(16) 0.12815(14) 0.4898(2)
O16_8 O 0.26384(17) 0.18672(14) 0.5067(2)
O18_8 O 0.3595(4) 0.3317(3) 0.3555(4)
N4_8 N 0.43477(18) 0.12301(16) 0.2616(2)
C27_8 C 0.4769(2) 0.0365(2) 0.1249(3)
H11_8 H 0.4585 0.0214 0.1003
C28_8 C 0.4635(2) 0.0644(2) 0.1701(3)
C29_8 C 0.4190(2) 0.0727(2) 0.1844(3)
C30_8 C 0.4063(2) 0.1001(2) 0.2260(3)
C31_8 C 0.3605(2) 0.1093(3) 0.2404(4)
H12_8 H 0.3354 0.0984 0.2222
C32_8 C 0.3610(2) 0.1368(3) 0.2856(4)
H13_8 H 0.3365 0.1474 0.3050
C33_8 C 0.4053(2) 0.1458(2) 0.2970(3)
C34_8 C 0.4197(2) 0.1739(2) 0.3385(3)
C35_8 C 0.46264(19) 0.18390(18) 0.3513(3)
C36_8 C 0.4768(2) 0.2108(2) 0.3983(3)
H14_8 H 0.4585 0.2253 0.4237
C37_8 C 0.3840(2) 0.0500(2) 0.1499(4)
C38_8 C 0.3778(3) 0.0069(3) 0.1543(4)
C40_8 C 0.3220(3) 0.0091(2) 0.0859(3)
C41_8 C 0.3276(2) 0.0531(2) 0.0772(3)
C42_8 C 0.3596(2) 0.0730(2) 0.1106(3)
H17_8 H 0.3648 0.1028 0.1063
C43_8 C 0.38477(18) 0.19654(19) 0.3740(3)
C44_8 C 0.3597(2) 0.1742(2) 0.4114(3)
H18_8 H 0.3658 0.1448 0.4174
C45_8 C 0.3242(2) 0.19396(18) 0.4419(3)
C46_8 C 0.3175(2) 0.23841(19) 0.4364(3)
H19_8 H 0.2962 0.2523 0.4584
C47_8 C 0.3429(2) 0.2627(2) 0.3975(3)
C48_8 C 0.3743(2) 0.24040(19) 0.3651(3)
H20_8 H 0.3887 0.2554 0.3363
C50_8 C 0.3018(2) 0.0790(2) 0.0353(3)
C51_8 C 0.2973(2) 0.1684(2) 0.4828(3)
C52_8 C 0.3348(4) 0.3101(3) 0.3905(5)
O1_8 O 0.6385(3) 0.9141(3) 0.1578(5)
H5_8 H 0.6037 0.9908 0.1779
C13_8 C 0.6558(3) 0.9851(2) 0.1245(4)
H6_8 H 0.6987 0.9947 0.0635
C23_8 C 0.6645(4) 0.9388(3) 0.1307(5)
O11_8 O 0.3615(3) 0.9141(3) 0.1578(5)
O12_8 O 0.3025(2) 0.92072(15) 0.1058(2)
H15_8 H 0.3963 0.9908 0.1779
C39_8 C 0.3442(3) 0.9851(2) 0.1245(4)
H16_8 H 0.3013 0.9947 0.0635
C49_8 C 0.3355(4) 0.9388(3) 0.1307(5)
O19_5 O 0.7193(3) 0.3515(2) 0.1330(3)
O20_5 O 0.70698(19) 0.43592(19) 0.0847(2)
O9_5 O 0.7193(3) 0.6485(2) 0.8670(3)
O10_5 O 0.70698(19) 0.56408(19) 0.9153(2)
O19_6 O 0.2807(3) 0.1485(2) 0.6330(3)
O20_6 O 0.29302(19) 0.06408(19) 0.5847(2)
O9_6 O 0.2807(3) 0.8515(2) 0.3670(3)
O10_6 O 0.29302(19) 0.93592(19) 0.4153(2)
O9_7 O 0.2193(3) 0.1485(2) 0.8670(3)
O10_7 O 0.20698(19) 0.06408(19) 0.9153(2)
O19_7 O 0.2193(3) 0.8515(2) 0.1330(3)
O20_7 O 0.20698(19) 0.93592(19) 0.0847(2)
O9_8 O 0.7807(3) 0.3515(2) 0.3670(3)
O10_8 O 0.79302(19) 0.43592(19) 0.4153(2)
O19_8 O 0.7807(3) 0.6485(2) 0.6330(3)
O20_8 O 0.79302(19) 0.56408(19) 0.5847(2)
loop_
_geom_bond_atom_site_label_1
_geom_bond_atom_site_label_2
_geom_bond_site_symmetry_1
_geom_bond_site_symmetry_2
O9 Y1 1_555 1_555
O10 Y1 1_555 1_555
O21 Y1 1_555 1_555
O27 Y1 1_555 1_555
O29 Y1 1_555 1_555
Cu2 N1 1_555 1_555
O1 C23 1_555 1_555
O2 C23 1_555 1_555
O3 C24 1_555 1_555
O5 C25 1_555 1_555
O6 C25 1_555 1_555
O7 C26 1_555 1_555
O8 C26 1_555 1_555
N1 C2 1_555 1_555
N2 Cu2 1_555 1_555
N3 Cu2 1_555 1_555
C1 H1 1_555 1_555
C2 C1 1_555 1_555
C3 C2 1_555 1_555
C4 N2 1_555 1_555
C5 C4 1_555 1_555
H2 C5 1_555 1_555
C6 C5 1_555 1_555
H3 C6 1_555 1_555
C7 N2 1_555 1_555
C8 C7 1_555 1_555
C9 N3 1_555 1_555
C10 C9 1_555 1_555
H4 C10 1_555 1_555
C11 C3 1_555 1_555
C12 C11 1_555 1_555
H5 C12 1_555 1_555
C13 C12 1_555 1_555
C14 C13 1_555 1_555
H6 C14 1_555 1_555
C15 C14 1_555 1_555
C16 C11 1_555 1_555
H7 C16 1_555 1_555
C17 C8 1_555 1_555
C18 C17 1_555 1_555
H8 C18 1_555 1_555
C19 C18 1_555 1_555
C20 C19 1_555 1_555
H9 C20 1_555 1_555
C21 C20 1_555 1_555
C22 C17 1_555 1_555
H10 C22 1_555 1_555
C23 C13 1_555 1_555
C24 O4 1_555 1_555
C25 C19 1_555 1_555
C26 C21 1_555 1_555
Y2 O2 1_555 1_555
O19 Y2 1_555 1_555
O20 Y2 1_555 1_555
Y4 O5 1_555 1_555
Y6 O7 1_555 1_555
O26 Y2 1_555 1_555
O28 Y2 1_555 1_555
O6 Y4 1_555 1_555
C3 C4 1_555 1_555
C6 C7 1_555 1_555
C8 C9 1_555 1_555
C15 C16 1_555 1_555
C15 C24 1_555 1_555
C21 C22 1_555 1_555
Cu2_2 N1_2 1_555 1_555
N3_2 Cu2_2 1_555 1_555
O11 C49 1_555 1_555
O12 C49 1_555 1_555
O13 C50 1_555 1_555
O14 C50 1_555 1_555
O15 C51 1_555 1_555
O16 C51 1_555 1_555
O17 C52 1_555 1_555
O18 C52 1_555 1_555
N4 Cu2_2 1_555 1_555
H11 C27 1_555 1_555
C28 N1_2 1_555 1_555
C29 C28 1_555 1_555
C30 N4 1_555 1_555
C31 C30 1_555 1_555
H12 C31 1_555 1_555
C32 C31 1_555 1_555
H13 C32 1_555 1_555
C33 N4 1_555 1_555
C34 C33 1_555 1_555
C35 N3_2 1_555 1_555
H14 C36 1_555 1_555
C37 C29 1_555 1_555
C38 C37 1_555 1_555
H15 C38 1_555 1_555
C39 C38 1_555 1_555
C40 C39 1_555 1_555
H16 C40 1_555 1_555
C41 C40 1_555 1_555
C42 C37 1_555 1_555
H17 C42 1_555 1_555
C43 C34 1_555 1_555
C44 C43 1_555 1_555
H18 C44 1_555 1_555
C45 C44 1_555 1_555
C46 C45 1_555 1_555
H19 C46 1_555 1_555
C47 C46 1_555 1_555
C48 C43 1_555 1_555
H20 C48 1_555 1_555
C49 C39 1_555 1_555
C50 C41 1_555 1_555
C51 C45 1_555 1_555
C52 C47 1_555 1_555
Y3 O17 1_555 1_555
Y5 O12 1_555 1_555
Y8 O15 1_555 1_555
O16 Y8 1_555 1_555
C27 C28 1_555 1_555
C29 C30 1_555 1_555
C32 C33 1_555 1_555
C34 C35 1_555 1_555
C35 C36 1_555 1_555
C41 C42 1_555 1_555
C47 C48 1_555 1_555
Cu2_3 N1_3 1_555 1_555
N3_3 Cu2_3 1_555 1_555
O13_2 C50_2 1_555 1_555
O14_2 C50_2 1_555 1_555
O15_2 C51_2 1_555 1_555
O29 C52_2 1_555 1_555
O18_2 C52_2 1_555 1_555
N4_2 Cu2_3 1_555 1_555
H11_2 C27_2 1_555 1_555
C28_2 N1_3 1_555 1_555
C29_2 C28_2 1_555 1_555
C30_2 N4_2 1_555 1_555
C31_2 C30_2 1_555 1_555
H12_2 C31_2 1_555 1_555
C32_2 C31_2 1_555 1_555
H13_2 C32_2 1_555 1_555
C33_2 N4_2 1_555 1_555
C34_2 C33_2 1_555 1_555
C35_2 N3_3 1_555 1_555
H14_2 C36_2 1_555 1_555
C37_2 C29_2 1_555 1_555
C38_2 C37_2 1_555 1_555
C41_2 C40_2 1_555 1_555
C42_2 C37_2 1_555 1_555
H17_2 C42_2 1_555 1_555
C43_2 C34_2 1_555 1_555
C44_2 C43_2 1_555 1_555
H18_2 C44_2 1_555 1_555
C45_2 C44_2 1_555 1_555
C46_2 C45_2 1_555 1_555
H19_2 C46_2 1_555 1_555
C47_2 C46_2 1_555 1_555
C48_2 C43_2 1_555 1_555
H20_2 C48_2 1_555 1_555
C50_2 C41_2 1_555 1_555
C51_2 C45_2 1_555 1_555
C52_2 C47_2 1_555 1_555
Y6 O13_2 1_555 1_555
O14_2 Y6 1_555 1_555
C27_2 C28_2 1_555 1_555
C29_2 C30_2 1_555 1_555
C32_2 C33_2 1_555 1_555
C34_2 C35_2 1_555 1_555
C35_2 C36_2 1_555 1_555
C41_2 C42_2 1_555 1_555
C47_2 C48_2 1_555 1_555
O16_2 Y8_2 1_555 1_555
O11_2 C49_2 1_555 1_555
O12_2 C49_2 1_555 1_555
C49_2 C39_2 1_555 1_555
Y5_2 O12_2 1_555 1_555
Y3 O3_2 1_555 1_555
Cu2_4 N1_4 1_555 1_555
O3_2 C24_2 1_555 1_555
O4_2 Y3 1_555 1_555
O5_2 C25_2 1_555 1_555
O7_2 C26_2 1_555 1_555
O8_2 C26_2 1_555 1_555
O9_2 Y3 1_555 1_555
O10_2 Y3 1_555 1_555
N1_4 C2_2 1_555 1_555
N2_2 Cu2_4 1_555 1_555
N3_4 Cu2_4 1_555 1_555
C1_2 H1_2 1_555 1_555
C2_2 C1_2 1_555 1_555
C3_2 C2_2 1_555 1_555
C4_2 N2_2 1_555 1_555
C5_2 C4_2 1_555 1_555
H2_2 C5_2 1_555 1_555
C6_2 C5_2 1_555 1_555
H3_2 C6_2 1_555 1_555
C7_2 N2_2 1_555 1_555
C8_2 C7_2 1_555 1_555
C9_2 N3_4 1_555 1_555
C10_2 C9_2 1_555 1_555
H4_2 C10_2 1_555 1_555
C11_2 C3_2 1_555 1_555
C12_2 C11_2 1_555 1_555
C15_2 C14_2 1_555 1_555
C16_2 C11_2 1_555 1_555
H7_2 C16_2 1_555 1_555
C17_2 C8_2 1_555 1_555
C18_2 C17_2 1_555 1_555
H8_2 C18_2 1_555 1_555
C19_2 C18_2 1_555 1_555
C20_2 C19_2 1_555 1_555
H9_2 C20_2 1_555 1_555
C21_2 C20_2 1_555 1_555
C22_2 C17_2 1_555 1_555
H10_2 C22_2 1_555 1_555
C24_2 O4_2 1_555 1_555
C25_2 C19_2 1_555 1_555
C26_2 C21_2 1_555 1_555
Y7 O7_2 1_555 1_555
O21_2 Y3 1_555 1_555
O25_2 Y3 1_555 1_555
O27_2 Y3 1_555 1_555
C3_2 C4_2 1_555 1_555
C6_2 C7_2 1_555 1_555
C8_2 C9_2 1_555 1_555
C15_2 C16_2 1_555 1_555
C15_2 C24_2 1_555 1_555
C21_2 C22_2 1_555 1_555
O6_2 Y4_2 1_555 1_555
O1_2 C23_2 1_555 1_555
O2_2 C23_2 1_555 1_555
C23_2 C13_2 1_555 1_555
Y2_2 O2_2 1_555 1_555
O19_2 Y2_2 1_555 1_555
O20_2 Y2_2 1_555 1_555
O22_2 Y2_2 1_555 1_555
O23_2 Y2_2 1_555 1_555
O24_2 Y2_2 1_555 1_555
O26_2 Y2_2 1_555 1_555
O28_2 Y2_2 1_555 1_555
O11_3 C49_3 1_555 1_555
O12_3 C49_3 1_555 1_555
C49_3 C39_3 1_555 1_555
Y6 O12_3 1_555 1_555
O16_3 Y8_3 1_555 1_555
Cu2_5 N1_5 1_555 1_555
N3_5 Cu2_5 1_555 1_555
O13_3 C50_3 1_555 1_555
O14_3 C50_3 1_555 1_555
O15_3 C51_3 1_555 1_555
O28 C52_3 1_555 1_555
O18_3 C52_3 1_555 1_555
N4_3 Cu2_5 1_555 1_555
H11_3 C27_3 1_555 1_555
C28_3 N1_5 1_555 1_555
C29_3 C28_3 1_555 1_555
C30_3 N4_3 1_555 1_555
C31_3 C30_3 1_555 1_555
H12_3 C31_3 1_555 1_555
C32_3 C31_3 1_555 1_555
H13_3 C32_3 1_555 1_555
C33_3 N4_3 1_555 1_555
C34_3 C33_3 1_555 1_555
C35_3 N3_5 1_555 1_555
H14_3 C36_3 1_555 1_555
C37_3 C29_3 1_555 1_555
C38_3 C37_3 1_555 1_555
C41_3 C40_3 1_555 1_555
C42_3 C37_3 1_555 1_555
H17_3 C42_3 1_555 1_555
C43_3 C34_3 1_555 1_555
C44_3 C43_3 1_555 1_555
H18_3 C44_3 1_555 1_555
C45_3 C44_3 1_555 1_555
C46_3 C45_3 1_555 1_555
H19_3 C46_3 1_555 1_555
C47_3 C46_3 1_555 1_555
C48_3 C43_3 1_555 1_555
H20_3 C48_3 1_555 1_555
C50_3 C41_3 1_555 1_555
C51_3 C45_3 1_555 1_555
C52_3 C47_3 1_555 1_555
Y5_2 O13_3 1_555 1_555
O14_3 Y5_2 1_555 1_555
C27_3 C28_3 1_555 1_555
C29_3 C30_3 1_555 1_555
C32_3 C33_3 1_555 1_555
C34_3 C35_3 1_555 1_555
C35_3 C36_3 1_555 1_555
C41_3 C42_3 1_555 1_555
C47_3 C48_3 1_555 1_555
O1_3 C23_3 1_555 1_555
O21_2 C23_3 1_555 1_555
C23_3 C13_3 1_555 1_555
O6_3 Y4_3 1_555 1_555
Cu2_6 N1_6 1_555 1_555
O22_2 C24_3 1_555 1_555
O5_3 C25_3 1_555 1_555
O7_3 C26_3 1_555 1_555
O8_3 C26_3 1_555 1_555
N1_6 C2_3 1_555 1_555
N2_3 Cu2_6 1_555 1_555
N3_6 Cu2_6 1_555 1_555
C1_3 H1_3 1_555 1_555
C2_3 C1_3 1_555 1_555
C3_3 C2_3 1_555 1_555
C4_3 N2_3 1_555 1_555
C5_3 C4_3 1_555 1_555
H2_3 C5_3 1_555 1_555
C6_3 C5_3 1_555 1_555
H3_3 C6_3 1_555 1_555
C7_3 N2_3 1_555 1_555
C8_3 C7_3 1_555 1_555
C9_3 N3_6 1_555 1_555
C10_3 C9_3 1_555 1_555
H4_3 C10_3 1_555 1_555
C11_3 C3_3 1_555 1_555
C12_3 C11_3 1_555 1_555
C15_3 C14_3 1_555 1_555
C16_3 C11_3 1_555 1_555
H7_3 C16_3 1_555 1_555
C17_3 C8_3 1_555 1_555
C18_3 C17_3 1_555 1_555
H8_3 C18_3 1_555 1_555
C19_3 C18_3 1_555 1_555
C20_3 C19_3 1_555 1_555
H9_3 C20_3 1_555 1_555
C21_3 C20_3 1_555 1_555
C22_3 C17_3 1_555 1_555
H10_3 C22_3 1_555 1_555
C24_3 O23_2 1_555 1_555
C25_3 C19_3 1_555 1_555
C26_3 C21_3 1_555 1_555
Y5 O7_3 1_555 1_555
C3_3 C4_3 1_555 1_555
C6_3 C7_3 1_555 1_555
C8_3 C9_3 1_555 1_555
C15_3 C16_3 1_555 1_555
C15_3 C24_3 1_555 1_555
C21_3 C22_3 1_555 1_555
Cu2_7 N1_7 1_555 1_555
O1_4 C23_4 1_555 1_555
O21 C23_4 1_555 1_555
O22 C24_4 1_555 1_555
O5_4 C25_4 1_555 1_555
O6_4 C25_4 1_555 1_555
O7_4 C26_4 1_555 1_555
O8_4 C26_4 1_555 1_555
N1_7 C2_4 1_555 1_555
N2_4 Cu2_7 1_555 1_555
N3_7 Cu2_7 1_555 1_555
C1_4 H1_4 1_555 1_555
C2_4 C1_4 1_555 1_555
C3_4 C2_4 1_555 1_555
C4_4 N2_4 1_555 1_555
C5_4 C4_4 1_555 1_555
H2_4 C5_4 1_555 1_555
C6_4 C5_4 1_555 1_555
H3_4 C6_4 1_555 1_555
C7_4 N2_4 1_555 1_555
C8_4 C7_4 1_555 1_555
C9_4 N3_7 1_555 1_555
C10_4 C9_4 1_555 1_555
H4_4 C10_4 1_555 1_555
C11_4 C3_4 1_555 1_555
C12_4 C11_4 1_555 1_555
H5_4 C12_4 1_555 1_555
C13_4 C12_4 1_555 1_555
C14_4 C13_4 1_555 1_555
H6_4 C14_4 1_555 1_555
C15_4 C14_4 1_555 1_555
C16_4 C11_4 1_555 1_555
H7_4 C16_4 1_555 1_555
C17_4 C8_4 1_555 1_555
C18_4 C17_4 1_555 1_555
H8_4 C18_4 1_555 1_555
C19_4 C18_4 1_555 1_555
C20_4 C19_4 1_555 1_555
H9_4 C20_4 1_555 1_555
C21_4 C20_4 1_555 1_555
C22_4 C17_4 1_555 1_555
H10_4 C22_4 1_555 1_555
C23_4 C13_4 1_555 1_555
C24_4 O23 1_555 1_555
C25_4 C19_4 1_555 1_555
C26_4 C21_4 1_555 1_555
Y4_4 O5_4 1_555 1_555
Y5_2 O7_4 1_555 1_555
O6_4 Y4_4 1_555 1_555
C3_4 C4_4 1_555 1_555
C6_4 C7_4 1_555 1_555
C8_4 C9_4 1_555 1_555
C15_4 C16_4 1_555 1_555
C15_4 C24_4 1_555 1_555
C21_4 C22_4 1_555 1_555
Cu2_8 N1_8 1_555 1_555
N3_8 Cu2_8 1_555 1_555
O11_4 C49_4 1_555 1_555
O12_4 C49_4 1_555 1_555
O13_4 C50_4 1_555 1_555
O14_4 C50_4 1_555 1_555
O15_4 C51_4 1_555 1_555
O16_4 C51_4 1_555 1_555
O28_2 C52_4 1_555 1_555
O18_4 C52_4 1_555 1_555
N4_4 Cu2_8 1_555 1_555
H11_4 C27_4 1_555 1_555
C28_4 N1_8 1_555 1_555
C29_4 C28_4 1_555 1_555
C30_4 N4_4 1_555 1_555
C31_4 C30_4 1_555 1_555
H12_4 C31_4 1_555 1_555
C32_4 C31_4 1_555 1_555
H13_4 C32_4 1_555 1_555
C33_4 N4_4 1_555 1_555
C34_4 C33_4 1_555 1_555
C35_4 N3_8 1_555 1_555
H14_4 C36_4 1_555 1_555
C37_4 C29_4 1_555 1_555
C38_4 C37_4 1_555 1_555
H15_4 C38_4 1_555 1_555
C39_4 C38_4 1_555 1_555
C40_4 C39_4 1_555 1_555
H16_4 C40_4 1_555 1_555
C41_4 C40_4 1_555 1_555
C42_4 C37_4 1_555 1_555
H17_4 C42_4 1_555 1_555
C43_4 C34_4 1_555 1_555
C44_4 C43_4 1_555 1_555
H18_4 C44_4 1_555 1_555
C45_4 C44_4 1_555 1_555
C46_4 C45_4 1_555 1_555
H19_4 C46_4 1_555 1_555
C47_4 C46_4 1_555 1_555
C48_4 C43_4 1_555 1_555
H20_4 C48_4 1_555 1_555
C49_4 C39_4 1_555 1_555
C50_4 C41_4 1_555 1_555
C51_4 C45_4 1_555 1_555
C52_4 C47_4 1_555 1_555
Y7 O12_4 1_555 1_555
Y8_4 O15_4 1_555 1_555
O16_4 Y8_4 1_555 1_555
C27_4 C28_4 1_555 1_555
C29_4 C30_4 1_555 1_555
C32_4 C33_4 1_555 1_555
C34_4 C35_4 1_555 1_555
C35_4 C36_4 1_555 1_555
C41_4 C42_4 1_555 1_555
C47_4 C48_4 1_555 1_555
O1_5 C23_5 1_555 1_555
O2_3 C23_5 1_555 1_555
C23_5 C13_5 1_555 1_555
O11_5 C49_5 1_555 1_555
O12_5 C49_5 1_555 1_555
C49_5 C39_5 1_555 1_555
Y4_2 O2_3 1_555 1_555
O19_3 Y4_2 1_555 1_555
O20_3 Y4_2 1_555 1_555
Y8_2 O12_5 1_555 1_555
O28_3 Y4_2 1_555 1_555
O9_3 Y4_3 1_555 1_555
O10_3 Y4_3 1_555 1_555
O21_3 Y4_3 1_555 1_555
O29_2 Y4_3 1_555 1_555
Cu2_9 N1_9 1_555 1_555
O3_3 C24_5 1_555 1_555
O24_2 C25_5 1_555 1_555
O26_2 C25_5 1_555 1_555
O7_5 C26_5 1_555 1_555
O8_5 C26_5 1_555 1_555
N1_9 C2_5 1_555 1_555
N2_5 Cu2_9 1_555 1_555
N3_9 Cu2_9 1_555 1_555
C1_5 H1_5 1_555 1_555
C2_5 C1_5 1_555 1_555
C3_5 C2_5 1_555 1_555
C4_5 N2_5 1_555 1_555
C5_5 C4_5 1_555 1_555
H2_5 C5_5 1_555 1_555
C6_5 C5_5 1_555 1_555
H3_5 C6_5 1_555 1_555
C7_5 N2_5 1_555 1_555
C8_5 C7_5 1_555 1_555
C9_5 N3_9 1_555 1_555
C10_5 C9_5 1_555 1_555
H4_5 C10_5 1_555 1_555
C11_5 C3_5 1_555 1_555
C12_5 C11_5 1_555 1_555
C15_5 C14_5 1_555 1_555
C16_5 C11_5 1_555 1_555
H7_5 C16_5 1_555 1_555
C17_5 C8_5 1_555 1_555
C18_5 C17_5 1_555 1_555
H8_5 C18_5 1_555 1_555
C19_5 C18_5 1_555 1_555
C20_5 C19_5 1_555 1_555
H9_5 C20_5 1_555 1_555
C21_5 C20_5 1_555 1_555
C22_5 C17_5 1_555 1_555
H10_5 C22_5 1_555 1_555
C24_5 O4_3 1_555 1_555
C25_5 C19_5 1_555 1_555
C26_5 C21_5 1_555 1_555
O13_5 C50_5 1_555 1_555
O14_5 C50_5 1_555 1_555
O15_5 C51_5 1_555 1_555
O16_5 C51_5 1_555 1_555
O17_2 C52_5 1_555 1_555
O18_5 C52_5 1_555 1_555
N4_5 Cu2_9 1_555 1_555
C27_5 C1_5 1_555 1_555
H11_5 C27_5 1_555 1_555
C28_5 N1_9 1_555 1_555
C29_5 C28_5 1_555 1_555
C30_5 N4_5 1_555 1_555
C31_5 C30_5 1_555 1_555
H12_5 C31_5 1_555 1_555
C32_5 C31_5 1_555 1_555
H13_5 C32_5 1_555 1_555
C33_5 N4_5 1_555 1_555
C34_5 C33_5 1_555 1_555
C35_5 N3_9 1_555 1_555
C36_5 C10_5 1_555 1_555
H14_5 C36_5 1_555 1_555
C37_5 C29_5 1_555 1_555
C38_5 C37_5 1_555 1_555
C41_5 C40_5 1_555 1_555
C42_5 C37_5 1_555 1_555
H17_5 C42_5 1_555 1_555
C43_5 C34_5 1_555 1_555
C44_5 C43_5 1_555 1_555
H18_5 C44_5 1_555 1_555
C45_5 C44_5 1_555 1_555
C46_5 C45_5 1_555 1_555
H19_5 C46_5 1_555 1_555
C47_5 C46_5 1_555 1_555
C48_5 C43_5 1_555 1_555
H20_5 C48_5 1_555 1_555
C50_5 C41_5 1_555 1_555
C51_5 C45_5 1_555 1_555
C52_5 C47_5 1_555 1_555
Y4_4 O17_2 1_555 1_555
Y8_4 O7_5 1_555 1_555
Y5_2 O15_5 1_555 1_555
C3_5 C4_5 1_555 1_555
C6_5 C7_5 1_555 1_555
C8_5 C9_5 1_555 1_555
C15_5 C16_5 1_555 1_555
C15_5 C24_5 1_555 1_555
C21_5 C22_5 1_555 1_555
O16_5 Y5_2 1_555 1_555
C27_5 C28_5 1_555 1_555
C29_5 C30_5 1_555 1_555
C32_5 C33_5 1_555 1_555
C34_5 C35_5 1_555 1_555
C35_5 C36_5 1_555 1_555
C41_5 C42_5 1_555 1_555
C47_5 C48_5 1_555 1_555
Y4_4 O3_4 1_555 1_555
Cu2_10 N1_10 1_555 1_555
O1_6 C23_6 1_555 1_555
O2_4 C23_6 1_555 1_555
O3_4 C24_6 1_555 1_555
O4_4 Y4_4 1_555 1_555
O24 C25_6 1_555 1_555
O7_6 C26_6 1_555 1_555
O8_6 C26_6 1_555 1_555
O9_4 Y4_4 1_555 1_555
O10_4 Y4_4 1_555 1_555
N1_10 C2_6 1_555 1_555
N2_6 Cu2_10 1_555 1_555
N3_10 Cu2_10 1_555 1_555
C1_6 H1_6 1_555 1_555
C2_6 C1_6 1_555 1_555
C3_6 C2_6 1_555 1_555
C4_6 N2_6 1_555 1_555
C5_6 C4_6 1_555 1_555
H2_6 C5_6 1_555 1_555
C6_6 C5_6 1_555 1_555
H3_6 C6_6 1_555 1_555
C7_6 N2_6 1_555 1_555
C8_6 C7_6 1_555 1_555
C9_6 N3_10 1_555 1_555
C10_6 C9_6 1_555 1_555
H4_6 C10_6 1_555 1_555
C11_6 C3_6 1_555 1_555
C12_6 C11_6 1_555 1_555
H5_6 C12_6 1_555 1_555
C13_6 C12_6 1_555 1_555
C14_6 C13_6 1_555 1_555
H6_6 C14_6 1_555 1_555
C15_6 C14_6 1_555 1_555
C16_6 C11_6 1_555 1_555
H7_6 C16_6 1_555 1_555
C17_6 C8_6 1_555 1_555
C18_6 C17_6 1_555 1_555
H8_6 C18_6 1_555 1_555
C19_6 C18_6 1_555 1_555
C20_6 C19_6 1_555 1_555
H9_6 C20_6 1_555 1_555
C21_6 C20_6 1_555 1_555
C22_6 C17_6 1_555 1_555
H10_6 C22_6 1_555 1_555
C23_6 C13_6 1_555 1_555
C24_6 O4_4 1_555 1_555
C25_6 C19_6 1_555 1_555
C26_6 C21_6 1_555 1_555
O11_6 C49_6 1_555 1_555
O12_6 C49_6 1_555 1_555
O13_6 C50_6 1_555 1_555
O14_6 C50_6 1_555 1_555
O15_6 C51_6 1_555 1_555
O29_2 C52_6 1_555 1_555
O18_6 C52_6 1_555 1_555
N4_6 Cu2_10 1_555 1_555
C27_6 C1_6 1_555 1_555
H11_6 C27_6 1_555 1_555
C28_6 N1_10 1_555 1_555
C29_6 C28_6 1_555 1_555
C30_6 N4_6 1_555 1_555
C31_6 C30_6 1_555 1_555
H12_6 C31_6 1_555 1_555
C32_6 C31_6 1_555 1_555
H13_6 C32_6 1_555 1_555
C33_6 N4_6 1_555 1_555
C34_6 C33_6 1_555 1_555
C35_6 N3_10 1_555 1_555
C36_6 C10_6 1_555 1_555
H14_6 C36_6 1_555 1_555
C37_6 C29_6 1_555 1_555
C38_6 C37_6 1_555 1_555
H15_6 C38_6 1_555 1_555
C39_6 C38_6 1_555 1_555
C40_6 C39_6 1_555 1_555
H16_6 C40_6 1_555 1_555
C41_6 C40_6 1_555 1_555
C42_6 C37_6 1_555 1_555
H17_6 C42_6 1_555 1_555
C43_6 C34_6 1_555 1_555
C44_6 C43_6 1_555 1_555
H18_6 C44_6 1_555 1_555
C45_6 C44_6 1_555 1_555
C46_6 C45_6 1_555 1_555
H19_6 C46_6 1_555 1_555
C47_6 C46_6 1_555 1_555
C48_6 C43_6 1_555 1_555
H20_6 C48_6 1_555 1_555
C49_6 C39_6 1_555 1_555
C50_6 C41_6 1_555 1_555
C51_6 C45_6 1_555 1_555
C52_6 C47_6 1_555 1_555
Y4 O2_4 1_555 1_555
O19_4 Y4 1_555 1_555
O20_4 Y4 1_555 1_555
Y8 O12_6 1_555 1_555
Y8_3 O7_6 1_555 1_555
Y8_4 O13_6 1_555 1_555
O21_4 Y4_4 1_555 1_555
O22_4 Y4 1_555 1_555
O23_4 Y4 1_555 1_555
O28_4 Y4 1_555 1_555
C3_6 C4_6 1_555 1_555
C6_6 C7_6 1_555 1_555
C8_6 C9_6 1_555 1_555
C15_6 C16_6 1_555 1_555
C15_6 C24_6 1_555 1_555
C21_6 C22_6 1_555 1_555
O14_6 Y8_4 1_555 1_555
C27_6 C28_6 1_555 1_555
C29_6 C30_6 1_555 1_555
C32_6 C33_6 1_555 1_555
C34_6 C35_6 1_555 1_555
C35_6 C36_6 1_555 1_555
C41_6 C42_6 1_555 1_555
C47_6 C48_6 1_555 1_555
O16_6 Y5 1_555 1_555
O16_7 Y7 1_555 1_555
Cu2_11 N1_11 1_555 1_555
O1_7 C23_7 1_555 1_555
O21_4 C23_7 1_555 1_555
O22_4 C24_7 1_555 1_555
O25 C25_7 1_555 1_555
O7_7 C26_7 1_555 1_555
O8_7 C26_7 1_555 1_555
N1_11 C2_7 1_555 1_555
N2_7 Cu2_11 1_555 1_555
N3_11 Cu2_11 1_555 1_555
C1_7 H1_7 1_555 1_555
C2_7 C1_7 1_555 1_555
C3_7 C2_7 1_555 1_555
C4_7 N2_7 1_555 1_555
C5_7 C4_7 1_555 1_555
H2_7 C5_7 1_555 1_555
C6_7 C5_7 1_555 1_555
H3_7 C6_7 1_555 1_555
C7_7 N2_7 1_555 1_555
C8_7 C7_7 1_555 1_555
C9_7 N3_11 1_555 1_555
C10_7 C9_7 1_555 1_555
H4_7 C10_7 1_555 1_555
C11_7 C3_7 1_555 1_555
C12_7 C11_7 1_555 1_555
H5_7 C12_7 1_555 1_555
C13_7 C12_7 1_555 1_555
C14_7 C13_7 1_555 1_555
H6_7 C14_7 1_555 1_555
C15_7 C14_7 1_555 1_555
C16_7 C11_7 1_555 1_555
H7_7 C16_7 1_555 1_555
C17_7 C8_7 1_555 1_555
C18_7 C17_7 1_555 1_555
H8_7 C18_7 1_555 1_555
C19_7 C18_7 1_555 1_555
C20_7 C19_7 1_555 1_555
H9_7 C20_7 1_555 1_555
C21_7 C20_7 1_555 1_555
C22_7 C17_7 1_555 1_555
H10_7 C22_7 1_555 1_555
C23_7 C13_7 1_555 1_555
C24_7 O23_4 1_555 1_555
C25_7 C19_7 1_555 1_555
C26_7 C21_7 1_555 1_555
O11_7 C49_7 1_555 1_555
O12_7 C49_7 1_555 1_555
O13_7 C50_7 1_555 1_555
O14_7 C50_7 1_555 1_555
O15_7 C51_7 1_555 1_555
O28_3 C52_7 1_555 1_555
O18_7 C52_7 1_555 1_555
N4_7 Cu2_11 1_555 1_555
C27_7 C1_7 1_555 1_555
H11_7 C27_7 1_555 1_555
C28_7 N1_11 1_555 1_555
C29_7 C28_7 1_555 1_555
C30_7 N4_7 1_555 1_555
C31_7 C30_7 1_555 1_555
H12_7 C31_7 1_555 1_555
C32_7 C31_7 1_555 1_555
H13_7 C32_7 1_555 1_555
C33_7 N4_7 1_555 1_555
C34_7 C33_7 1_555 1_555
C35_7 N3_11 1_555 1_555
C36_7 C10_7 1_555 1_555
H14_7 C36_7 1_555 1_555
C37_7 C29_7 1_555 1_555
C38_7 C37_7 1_555 1_555
H15_7 C38_7 1_555 1_555
C39_7 C38_7 1_555 1_555
C40_7 C39_7 1_555 1_555
H16_7 C40_7 1_555 1_555
C41_7 C40_7 1_555 1_555
C42_7 C37_7 1_555 1_555
H17_7 C42_7 1_555 1_555
C43_7 C34_7 1_555 1_555
C44_7 C43_7 1_555 1_555
H18_7 C44_7 1_555 1_555
C45_7 C44_7 1_555 1_555
C46_7 C45_7 1_555 1_555
H19_7 C46_7 1_555 1_555
C47_7 C46_7 1_555 1_555
C48_7 C43_7 1_555 1_555
H20_7 C48_7 1_555 1_555
C49_7 C39_7 1_555 1_555
C50_7 C41_7 1_555 1_555
C51_7 C45_7 1_555 1_555
C52_7 C47_7 1_555 1_555
Y8_4 O12_7 1_555 1_555
Y8_2 O7_7 1_555 1_555
Y8 O13_7 1_555 1_555
C3_7 C4_7 1_555 1_555
C6_7 C7_7 1_555 1_555
C8_7 C9_7 1_555 1_555
C15_7 C16_7 1_555 1_555
C15_7 C24_7 1_555 1_555
C21_7 C22_7 1_555 1_555
O14_7 Y8 1_555 1_555
C27_7 C28_7 1_555 1_555
C29_7 C30_7 1_555 1_555
C32_7 C33_7 1_555 1_555
C34_7 C35_7 1_555 1_555
C35_7 C36_7 1_555 1_555
C41_7 C42_7 1_555 1_555
C47_7 C48_7 1_555 1_555
Cu2_12 N1_12 1_555 1_555
O22_3 C24_8 1_555 1_555
O25_2 C25_8 1_555 1_555
O27_2 C25_8 1_555 1_555
O7_8 C26_8 1_555 1_555
O8_8 C26_8 1_555 1_555
N1_12 C2_8 1_555 1_555
N2_8 Cu2_12 1_555 1_555
N3_12 Cu2_12 1_555 1_555
C1_8 H1_8 1_555 1_555
C2_8 C1_8 1_555 1_555
C3_8 C2_8 1_555 1_555
C4_8 N2_8 1_555 1_555
C5_8 C4_8 1_555 1_555
H2_8 C5_8 1_555 1_555
C6_8 C5_8 1_555 1_555
H3_8 C6_8 1_555 1_555
C7_8 N2_8 1_555 1_555
C8_8 C7_8 1_555 1_555
C9_8 N3_12 1_555 1_555
C10_8 C9_8 1_555 1_555
H4_8 C10_8 1_555 1_555
C11_8 C3_8 1_555 1_555
C12_8 C11_8 1_555 1_555
C15_8 C14_8 1_555 1_555
C16_8 C11_8 1_555 1_555
H7_8 C16_8 1_555 1_555
C17_8 C8_8 1_555 1_555
C18_8 C17_8 1_555 1_555
H8_8 C18_8 1_555 1_555
C19_8 C18_8 1_555 1_555
C20_8 C19_8 1_555 1_555
H9_8 C20_8 1_555 1_555
C21_8 C20_8 1_555 1_555
C22_8 C17_8 1_555 1_555
H10_8 C22_8 1_555 1_555
C24_8 O23_3 1_555 1_555
C25_8 C19_8 1_555 1_555
C26_8 C21_8 1_555 1_555
O13_8 C50_8 1_555 1_555
O14_8 C50_8 1_555 1_555
O15_8 C51_8 1_555 1_555
O16_8 C51_8 1_555 1_555
O28_4 C52_8 1_555 1_555
O18_8 C52_8 1_555 1_555
N4_8 Cu2_12 1_555 1_555
C27_8 C1_8 1_555 1_555
H11_8 C27_8 1_555 1_555
C28_8 N1_12 1_555 1_555
C29_8 C28_8 1_555 1_555
C30_8 N4_8 1_555 1_555
C31_8 C30_8 1_555 1_555
H12_8 C31_8 1_555 1_555
C32_8 C31_8 1_555 1_555
H13_8 C32_8 1_555 1_555
C33_8 N4_8 1_555 1_555
C34_8 C33_8 1_555 1_555
C35_8 N3_12 1_555 1_555
C36_8 C10_8 1_555 1_555
H14_8 C36_8 1_555 1_555
C37_8 C29_8 1_555 1_555
C38_8 C37_8 1_555 1_555
C41_8 C40_8 1_555 1_555
C42_8 C37_8 1_555 1_555
H17_8 C42_8 1_555 1_555
C43_8 C34_8 1_555 1_555
C44_8 C43_8 1_555 1_555
H18_8 C44_8 1_555 1_555
C45_8 C44_8 1_555 1_555
C46_8 C45_8 1_555 1_555
H19_8 C46_8 1_555 1_555
C47_8 C46_8 1_555 1_555
C48_8 C43_8 1_555 1_555
H20_8 C48_8 1_555 1_555
C50_8 C41_8 1_555 1_555
C51_8 C45_8 1_555 1_555
C52_8 C47_8 1_555 1_555
Y8 O7_8 1_555 1_555
Y6 O15_8 1_555 1_555
C3_8 C4_8 1_555 1_555
C6_8 C7_8 1_555 1_555
C8_8 C9_8 1_555 1_555
C15_8 C16_8 1_555 1_555
C15_8 C24_8 1_555 1_555
C21_8 C22_8 1_555 1_555
O16_8 Y6 1_555 1_555
C27_8 C28_8 1_555 1_555
C29_8 C30_8 1_555 1_555
C32_8 C33_8 1_555 1_555
C34_8 C35_8 1_555 1_555
C35_8 C36_8 1_555 1_555
C41_8 C42_8 1_555 1_555
C47_8 C48_8 1_555 1_555
O1_8 C23_8 1_555 1_555
O21_3 C23_8 1_555 1_555
C23_8 C13_8 1_555 1_555
O11_8 C49_8 1_555 1_555
O12_8 C49_8 1_555 1_555
C49_8 C39_8 1_555 1_555
Y8_3 O12_8 1_555 1_555
O19_5 Y7 1_555 1_555
O20_5 Y7 1_555 1_555
O9_5 Y5 1_555 1_555
O10_5 Y5 1_555 1_555
O19_6 Y6 1_555 1_555
O20_6 Y6 1_555 1_555
O9_6 Y5_2 1_555 1_555
O10_6 Y5_2 1_555 1_555
O9_7 Y8_2 1_555 1_555
O10_7 Y8_2 1_555 1_555
O19_7 Y8_3 1_555 1_555
O20_7 Y8_3 1_555 1_555
O9_8 Y8 1_555 1_555
O10_8 Y8 1_555 1_555
O19_8 Y8_4 1_555 1_555
O20_8 Y8_4 1_555 1_555

#END
