
###############################################################################
#
# This file contains modified crystal structure data generated from the
# MOF subset of the Cambridge Structural Database (CSD) v543 
# hosted by the Cambridge Crystallographic Data Centre (CCDC).
#
# This work is licensed under the Creative Commons
# Attribution-NonCommercial-ShareAlike 4.0 International License.
# To view a copy of this license, visit
# http://creativecommons.org/licenses/by-nc-sa/4.0/
# or send a letter to
# Creative Commons, PO Box 1866, Mountain View, CA 94042, USA.
#
# CIF created using the CSD Python API on 29 September 2022
# The structure has been converted into the P1 space group
# The structure has a 3D framework
# The original CSD entry LEPKUO is in the monoclinic crystal system
# The framework has been calculated to contain at least 10.0% void space
# The void calculation uses a probe of radius 1.32A, grid spacing 0.4
# H atom positions have been added when not included in the experimental data
#
###############################################################################

data_LEPKUO
_chemical_formula_moiety         '(C96 H80 O64 Sm8)n'
_symmetry_cell_setting           triclinic
_symmetry_space_group_name_H-M   'P 1'
_symmetry_Int_Tables_number      1
_space_group_name_Hall           'P 1'
loop_
_symmetry_equiv_pos_site_id
_symmetry_equiv_pos_as_xyz
1 x,y,z
_cell_length_a                   13.3713(12)
_cell_length_b                   17.9197(16)
_cell_length_c                   18.7864(12)
_cell_angle_alpha                90
_cell_angle_beta                 133.543(4)
_cell_angle_gamma                90
_cell_volume                     3262.88
loop_
_atom_site_label
_atom_site_type_symbol
_atom_site_fract_x
_atom_site_fract_y
_atom_site_fract_z
Sm1 Sm 0.45147(2) 0.030275(11) 0.357392(17)
C1 C 0.3318(4) 0.1216(2) 0.1656(3)
C2 C 0.3170(4) 0.1952(2) 0.1204(3)
C3 C 0.3569(4) 0.2609(2) 0.1736(3)
H1 H 0.3834 0.2597 0.2342
C4 C 0.3574(4) 0.3279(2) 0.1372(3)
C5 C 0.3133(5) 0.3289(2) 0.0444(3)
H2 H 0.3129 0.3737 0.0191
C7 C 0.2746(5) 0.1971(2) 0.0290(3)
C8 C 0.4142(5) 0.3976(2) 0.1985(4)
C24 C 0.2502(5) 0.0171(2) 0.3900(4)
O1 O 0.3235(3) 0.12095(17) 0.2284(2)
O2 O 0.3540(3) 0.06418(17) 0.1401(3)
O3 O 0.4323(4) 0.45424(17) 0.1690(3)
O4 O 0.4413(4) 0.39564(17) 0.2767(2)
O11 O 0.2449(3) 0.04362(18) 0.3253(3)
O12 O 0.3631(3) 0.00614(18) 0.4772(3)
O15 O 0.6212(4) 0.10555(19) 0.3741(3)
H14 H 0.630(7) 0.104(4) 0.332(4)
H15 H 0.649(6) 0.1525(15) 0.394(4)
O16 O 0.5037(4) 0.14363(18) 0.4543(3)
H16 H 0.528(5) 0.133(3) 0.510(2)
Sm3 Sm 0.54853(2) 0.530275(11) 0.142608(17)
Sm5 Sm 0.54940(2) 0.487551(12) 0.402189(17)
O19 O 0.6457(3) 0.06013(16) 0.2465(2)
O20 O 0.5406(3) 0.11495(16) 0.1055(2)
H20 H 0.420182 0.175694 0.414704
C6 C 0.2706(5) 0.2644(3) 0.9905(4)
H3 H 0.2390 0.2659 0.9283
H4 H 0.2488 0.1533 0.9936
O21 O 0.2462(4) 0.0233(2) 0.9348(3)
Sm2 Sm 0.45060(2) 0.987551(12) 0.097811(17)
C9 C 0.3033(5) 0.8903(2) 0.2718(3)
C10 C 0.2461(4) 0.8145(2) 0.2309(3)
C11 C 0.3242(4) 0.7519(2) 0.2865(3)
H5 H 0.4086 0.7576 0.3508
C12 C 0.2767(5) 0.6808(2) 0.2462(3)
C13 C 0.1484(5) 0.6721(3) 0.1530(4)
H6 H 0.1161 0.6247 0.1260
C14 C 0.0674(5) 0.7341(3) 0.0994(4)
C15 C 0.1176(5) 0.8054(3) 0.1370(4)
H8 H 0.0650 0.8469 0.0991
C16 C 0.3684(4) 0.6149(2) 0.3020(3)
C20 C 0.1180(5) 0.9967(3) 0.3610(3)
C21 C 0.1151(5) 0.9782(3) 0.4316(4)
H10 H 0.1953 0.9810 0.4980
O5 O 0.3543(3) 0.56013(16) 0.2535(2)
O6 O 0.4594(3) 0.61495(16) 0.3945(2)
O7 O 0.3915(3) 0.90000(16) 0.3641(2)
O8 O 0.2678(3) 0.94381(16) 0.2146(2)
O13 O 0.2585(3) 0.91858(19) 0.0630(3)
O14 O 0.3998(5) 0.8724(2) 0.0071(3)
H17 H 0.176(3) 0.935(4) 0.021(4)
Sm4 Sm 0.54853(2) 0.969725(11) 0.642608(17)
O17 O 0.5677(4) 0.95424(17) 0.3310(3)
O18 O 0.5587(4) 0.89564(17) 0.2233(2)
O22 O 0.6291(3) 0.9664(2) 0.1016(3)
O23 O 0.6369(3) 0.99386(18) 0.5228(3)
H19 H 0.283418 0.914769 0.126359
Sm7 Sm 0.54940(2) 0.012449(12) 0.902189(17)
H7 H 0.9788 0.7279 0.0378
C17 C 0.7443(5) 0.9712(2) 0.1274(4)
C18 C 0.8731(5) 0.9716(2) 0.2331(3)
C19 C 0.9969(5) 0.9938(2) 0.2624(3)
C22 C 0.9924(5) 0.9555(3) 0.4025(4)
H11 H 0.9908 0.9430 0.4498
C23 C 0.8726(5) 0.9514(3) 0.3044(4)
H12 H 0.7913 0.9350 0.2858
O9 O 0.7538(4) 0.9767(2) 0.0652(3)
H7_2 H 0.0212 0.2279 0.4622
C17_2 C 0.2557(5) 0.4712(2) 0.3726(4)
C18_2 C 0.1269(5) 0.4716(2) 0.2669(3)
C19_2 C 0.0031(5) 0.4938(2) 0.2376(3)
H9 H 0.0018 0.5068 0.2848
C22_2 C 0.0076(5) 0.4555(3) 0.0975(4)
H11_2 H 0.0092 0.4430 0.0502
C23_2 C 0.1274(5) 0.4514(3) 0.1956(4)
H12_2 H 0.2087 0.4350 0.2142
O9_2 O 0.2462(4) 0.4767(2) 0.4348(3)
O10 O 0.3709(3) 0.4664(2) 0.3984(3)
Sm7_2 Sm 0.45060(2) 0.512449(12) 0.597811(17)
C1_2 C 0.6682(4) 0.6216(2) 0.3344(3)
C2_2 C 0.6830(4) 0.6952(2) 0.3796(3)
C3_2 C 0.6431(4) 0.7609(2) 0.3264(3)
H1_2 H 0.6166 0.7597 0.2658
C4_2 C 0.6426(4) 0.8279(2) 0.3628(3)
C5_2 C 0.6867(5) 0.8289(2) 0.4556(3)
H2_2 H 0.6871 0.8737 0.4809
C6_2 C 0.7294(5) 0.7644(3) 0.5095(4)
H3_2 H 0.7610 0.7659 0.5717
C7_2 C 0.7254(5) 0.6971(2) 0.4710(3)
H4_2 H 0.7512 0.6533 0.5064
C8_2 C 0.5858(5) 0.8976(2) 0.3015(4)
C9_2 C 0.6967(5) 0.3903(2) 0.2282(3)
C10_2 C 0.7539(4) 0.3145(2) 0.2691(3)
C11_2 C 0.6758(4) 0.2519(2) 0.2135(3)
H5_2 H 0.5914 0.2576 0.1492
C12_2 C 0.7233(5) 0.1808(2) 0.2538(3)
C13_2 C 0.8516(5) 0.1721(3) 0.3470(4)
H6_2 H 0.8839 0.1247 0.3740
C14_2 C 0.9326(5) 0.2341(3) 0.4006(4)
C15_2 C 0.8824(5) 0.3054(3) 0.3630(4)
H8_2 H 0.9350 0.3469 0.4009
C16_2 C 0.6316(4) 0.1149(2) 0.1980(3)
C20_2 C 0.8820(5) 0.4967(3) 0.1390(3)
C21_2 C 0.8849(5) 0.4782(3) 0.0684(4)
H10_2 H 0.8047 0.4810 0.0020
C24_2 C 0.7498(5) 0.5171(2) 0.1100(4)
O1_2 O 0.6765(3) 0.62095(17) 0.2716(2)
O2_2 O 0.6460(3) 0.56418(17) 0.3599(3)
O7_2 O 0.6085(3) 0.40000(16) 0.1359(2)
O8_2 O 0.7322(3) 0.44381(16) 0.2854(2)
O11_2 O 0.7551(3) 0.54362(18) 0.1747(3)
O12_2 O 0.6369(3) 0.50614(18) 0.0228(3)
O13_2 O 0.7415(3) 0.41858(19) 0.4370(3)
O14_2 O 0.6002(5) 0.3724(2) 0.4929(3)
H13 H 0.573(6) 0.357(3) 0.521(4)
O15_2 O 0.3788(4) 0.60555(19) 0.1259(3)
H14_2 H 0.370(7) 0.604(4) 0.168(4)
H15_2 H 0.351(6) 0.6525(15) 0.106(4)
O16_2 O 0.4963(4) 0.64363(18) 0.0457(3)
H17_2 H 0.824(3) 0.435(4) 0.479(4)
O21_2 O 0.7538(4) 0.5233(2) 0.5652(3)
H18 H 0.702394 0.372217 0.54676
H19_2 H 0.716582 0.414769 0.373641
H20_2 H 0.579818 0.675694 0.0852956
H16_2 H 0.472(5) 0.633(3) 0.990(2)
Sm4_2 Sm 0.45147(2) 0.469725(11) 0.857392(17)
O23_2 O 0.3631(3) 0.49386(18) 0.9772(3)
H7_3 H 0.0212 0.2721 0.9622
C17_3 C 0.2557(5) 0.0288(2) 0.8726(4)
C18_3 C 0.1269(5) 0.0284(2) 0.7669(3)
C19_3 C 0.0031(5) 0.0062(2) 0.7376(3)
C22_3 C 0.0076(5) 0.0445(3) 0.5975(4)
H11_3 H 0.0092 0.0570 0.5502
C23_3 C 0.1274(5) 0.0486(3) 0.6956(4)
H12_3 H 0.2087 0.0650 0.7142
O10_2 O 0.3709(3) 0.0336(2) 0.8984(3)
C9_3 C 0.6967(5) 0.1097(2) 0.7282(3)
C10_3 C 0.7539(4) 0.1855(2) 0.7691(3)
C11_3 C 0.6758(4) 0.2481(2) 0.7135(3)
H5_3 H 0.5914 0.2424 0.6492
C12_3 C 0.7233(5) 0.3192(2) 0.7538(3)
C13_3 C 0.8516(5) 0.3279(3) 0.8470(4)
H6_3 H 0.8839 0.3753 0.8740
C14_3 C 0.9326(5) 0.2659(3) 0.9006(4)
C15_3 C 0.8824(5) 0.1946(3) 0.8630(4)
H8_3 H 0.9350 0.1531 0.9009
C16_3 C 0.6316(4) 0.3851(2) 0.6980(3)
C20_3 C 0.8820(5) 0.0033(3) 0.6390(3)
C21_3 C 0.8849(5) 0.0218(3) 0.5684(4)
H10_3 H 0.8047 0.0190 0.5020
O5_2 O 0.6457(3) 0.43987(16) 0.7465(2)
O6_2 O 0.5406(3) 0.38505(16) 0.6055(2)
O7_3 O 0.6085(3) 0.10000(16) 0.6359(2)
O8_3 O 0.7322(3) 0.05619(16) 0.7854(2)
O13_3 O 0.7415(3) 0.08142(19) 0.9370(3)
O14_3 O 0.6002(5) 0.1276(2) 0.9929(3)
H17_3 H 0.824(3) 0.065(4) 0.979(4)
O17_2 O 0.4323(4) 0.04576(17) 0.6690(3)
O18_2 O 0.4413(4) 0.10436(17) 0.7767(2)
H19_3 H 0.716582 0.0852306 0.873641
C6_3 C 0.7294(5) 0.7356(3) 0.0095(4)
H3_3 H 0.7610 0.7341 0.0717
H4_3 H 0.7512 0.8467 0.0064
C1_3 C 0.6682(4) 0.8784(2) 0.8344(3)
C2_3 C 0.6830(4) 0.8048(2) 0.8796(3)
C3_3 C 0.6431(4) 0.7391(2) 0.8264(3)
H1_3 H 0.6166 0.7403 0.7658
C4_3 C 0.6426(4) 0.6721(2) 0.8628(3)
C5_3 C 0.6867(5) 0.6711(2) 0.9556(3)
H2_3 H 0.6871 0.6263 0.9809
C7_3 C 0.7254(5) 0.8029(2) 0.9710(3)
C8_3 C 0.5858(5) 0.6024(2) 0.8015(4)
C24_3 C 0.7498(5) 0.9829(2) 0.6100(4)
O1_3 O 0.6765(3) 0.87905(17) 0.7716(2)
O2_3 O 0.6460(3) 0.93582(17) 0.8599(3)
O3_2 O 0.5677(4) 0.54576(17) 0.8310(3)
O4_2 O 0.5587(4) 0.60436(17) 0.7233(2)
O11_3 O 0.7551(3) 0.95638(18) 0.6747(3)
O15_3 O 0.3788(4) 0.89445(19) 0.6259(3)
H14_3 H 0.370(7) 0.896(4) 0.668(4)
H15_3 H 0.351(6) 0.8475(15) 0.606(4)
O16_3 O 0.4963(4) 0.85637(18) 0.5457(3)
H16_3 H 0.472(5) 0.867(3) 0.490(2)
O19_2 O 0.3543(3) 0.93987(16) 0.7535(2)
O20_2 O 0.4594(3) 0.88505(16) 0.8945(2)
H20_3 H 0.579818 0.824306 0.585296
H16_4 H 0.528(5) 0.367(3) 0.010(2)
C1_4 C 0.3318(4) 0.3784(2) 0.6656(3)
C2_4 C 0.3170(4) 0.3048(2) 0.6204(3)
C3_4 C 0.3569(4) 0.2391(2) 0.6736(3)
H1_4 H 0.3834 0.2403 0.7342
C4_4 C 0.3574(4) 0.1721(2) 0.6372(3)
C5_4 C 0.3133(5) 0.1711(2) 0.5444(3)
H2_4 H 0.3129 0.1263 0.5191
C6_4 C 0.2706(5) 0.2356(3) 0.4905(4)
H3_4 H 0.2390 0.2341 0.4283
C7_4 C 0.2746(5) 0.3029(2) 0.5290(3)
H4_4 H 0.2488 0.3467 0.4936
C8_4 C 0.4142(5) 0.1024(2) 0.6985(4)
C9_4 C 0.3033(5) 0.6097(2) 0.7718(3)
C10_4 C 0.2461(4) 0.6855(2) 0.7309(3)
C11_4 C 0.3242(4) 0.7481(2) 0.7865(3)
H5_4 H 0.4086 0.7424 0.8508
C12_4 C 0.2767(5) 0.8192(2) 0.7462(3)
C13_4 C 0.1484(5) 0.8279(3) 0.6530(4)
H6_4 H 0.1161 0.8753 0.6260
C14_4 C 0.0674(5) 0.7659(3) 0.5994(4)
C15_4 C 0.1176(5) 0.6946(3) 0.6370(4)
H8_4 H 0.0650 0.6531 0.5991
C16_4 C 0.3684(4) 0.8851(2) 0.8020(3)
C20_4 C 0.1180(5) 0.5033(3) 0.8610(3)
C21_4 C 0.1151(5) 0.5218(3) 0.9316(4)
H10_4 H 0.1953 0.5190 0.9980
C24_4 C 0.2502(5) 0.4829(2) 0.8900(4)
O1_4 O 0.3235(3) 0.37905(17) 0.7284(2)
O2_4 O 0.3540(3) 0.43582(17) 0.6401(3)
O7_4 O 0.3915(3) 0.60000(16) 0.8641(2)
O8_4 O 0.2678(3) 0.55619(16) 0.7146(2)
O11_4 O 0.2449(3) 0.45638(18) 0.8253(3)
O13_4 O 0.2585(3) 0.58142(19) 0.5630(3)
O14_4 O 0.3998(5) 0.6276(2) 0.5071(3)
H13_2 H 0.427(6) 0.643(3) 0.479(4)
O15_4 O 0.6212(4) 0.39445(19) 0.8741(3)
H14_4 H 0.630(7) 0.396(4) 0.832(4)
H15_4 H 0.649(6) 0.3475(15) 0.894(4)
O16_4 O 0.5037(4) 0.35637(18) 0.9543(3)
H17_4 H 0.176(3) 0.565(4) 0.521(4)
O22_2 O 0.6291(3) 0.5336(2) 0.6016(3)
H18_2 H 0.297606 0.627783 0.45324
H19_4 H 0.283418 0.585231 0.626359
H20_4 H 0.420182 0.324306 0.914704
H7_4 H 0.9788 0.7721 0.5378
C17_4 C 0.7443(5) 0.5288(2) 0.6274(4)
C18_4 C 0.8731(5) 0.5284(2) 0.7331(3)
C19_4 C 0.9969(5) 0.5062(2) 0.7624(3)
H9_2 H 0.9982 0.4932 0.7152
C22_4 C 0.9924(5) 0.5445(3) 0.9025(4)
H11_4 H 0.9908 0.5570 0.9498
C23_4 C 0.8726(5) 0.5486(3) 0.8044(4)
H12_4 H 0.7913 0.5650 0.7858
H13_3 H 0.427(6) 0.857(3) 0.979(4)
H18_3 H 0.297606 0.872217 0.95324
H9_3 H 0.9982 0.0068 0.2152
H9_4 H 0.0018 0.9932 0.7848
H13_4 H 0.573(6) 0.143(3) 0.021(4)
H18_4 H 0.702394 0.127783 0.0467596
loop_
_geom_bond_atom_site_label_1
_geom_bond_atom_site_label_2
_geom_bond_site_symmetry_1
_geom_bond_site_symmetry_2
Sm1 O1 1_555 1_555
C1 C2 1_555 1_555
C2 C3 1_555 1_555
C3 H1 1_555 1_555
C4 C3 1_555 1_555
C5 C4 1_555 1_555
H2 C5 1_555 1_555
C7 C2 1_555 1_555
C8 C4 1_555 1_555
O1 C1 1_555 1_555
O2 C1 1_555 1_555
O3 C8 1_555 1_555
O4 C8 1_555 1_555
O11 Sm1 1_555 1_555
O12 C24 1_555 1_555
O15 Sm1 1_555 1_555
H14 O15 1_555 1_555
H15 O15 1_555 1_555
O16 Sm1 1_555 1_555
H16 O16 1_555 1_555
Sm3 O3 1_555 1_555
Sm5 O4 1_555 1_555
C24 O11 1_555 1_555
O16 H20 1_555 1_555
H3 C6 1_555 1_555
C9 C10 1_555 1_555
C10 C11 1_555 1_555
C11 H5 1_555 1_555
C12 C11 1_555 1_555
C13 C12 1_555 1_555
H6 C13 1_555 1_555
C14 C13 1_555 1_555
C15 C10 1_555 1_555
H8 C15 1_555 1_555
C16 C12 1_555 1_555
C21 C20 1_555 1_555
H10 C21 1_555 1_555
O5 C16 1_555 1_555
O6 C16 1_555 1_555
O13 Sm2 1_555 1_555
O14 Sm2 1_555 1_555
H17 O13 1_555 1_555
Sm5 O5 1_555 1_555
O18 Sm2 1_555 1_555
O22 Sm2 1_555 1_555
C9 O7 1_555 1_555
C9 O8 1_555 1_555
C14 C15 1_555 1_555
O6 Sm5 1_555 1_555
O13 H19 1_555 1_555
C17 C18 1_555 1_555
C18 C19 1_555 1_555
H11 C22 1_555 1_555
C23 C18 1_555 1_555
H12 C23 1_555 1_555
O9 C17 1_555 1_555
O22 C17 1_555 1_555
C22 C23 1_555 1_555
C17_2 C18_2 1_555 1_555
C18_2 C19_2 1_555 1_555
C19_2 H9 1_555 1_555
H11_2 C22_2 1_555 1_555
C23_2 C18_2 1_555 1_555
H12_2 C23_2 1_555 1_555
O9_2 C17_2 1_555 1_555
O10 C17_2 1_555 1_555
Sm7_2 O9_2 1_555 1_555
Sm5 O10 1_555 1_555
C22_2 C23_2 1_555 1_555
Sm3 O1_2 1_555 1_555
Sm5 O2_2 1_555 1_555
C1_2 C2_2 1_555 1_555
C2_2 C3_2 1_555 1_555
C3_2 H1_2 1_555 1_555
C4_2 C3_2 1_555 1_555
C5_2 C4_2 1_555 1_555
H2_2 C5_2 1_555 1_555
C6_2 C5_2 1_555 1_555
H3_2 C6_2 1_555 1_555
C7_2 C2_2 1_555 1_555
H4_2 C7_2 1_555 1_555
C8_2 C4_2 1_555 1_555
C9_2 C10_2 1_555 1_555
C10_2 C11_2 1_555 1_555
C11_2 H5_2 1_555 1_555
C12_2 C11_2 1_555 1_555
C13_2 C12_2 1_555 1_555
H6_2 C13_2 1_555 1_555
C14_2 C13_2 1_555 1_555
C15_2 C10_2 1_555 1_555
H8_2 C15_2 1_555 1_555
C16_2 C12_2 1_555 1_555
C21_2 C20_2 1_555 1_555
H10_2 C21_2 1_555 1_555
C24_2 C20_2 1_555 1_555
O1_2 C1_2 1_555 1_555
O2_2 C1_2 1_555 1_555
O17 C8_2 1_555 1_555
O18 C8_2 1_555 1_555
O19 C16_2 1_555 1_555
O20 C16_2 1_555 1_555
O7_2 Sm3 1_555 1_555
O8_2 Sm3 1_555 1_555
O11_2 Sm3 1_555 1_555
O12_2 C24_2 1_555 1_555
O13_2 Sm5 1_555 1_555
O14_2 Sm5 1_555 1_555
H13 O14_2 1_555 1_555
O15_2 Sm3 1_555 1_555
H14_2 O15_2 1_555 1_555
H15_2 O15_2 1_555 1_555
O16_2 Sm3 1_555 1_555
H17_2 O13_2 1_555 1_555
O21_2 Sm5 1_555 1_555
C6_2 C7_2 1_555 1_555
C9_2 O7_2 1_555 1_555
C9_2 O8_2 1_555 1_555
C14_2 C15_2 1_555 1_555
C24_2 O11_2 1_555 1_555
O14_2 H18 1_555 1_555
O13_2 H19_2 1_555 1_555
O16_2 H20_2 1_555 1_555
C17_3 C18_3 1_555 1_555
C18_3 C19_3 1_555 1_555
H11_3 C22_3 1_555 1_555
C23_3 C18_3 1_555 1_555
H12_3 C23_3 1_555 1_555
O21 C17_3 1_555 1_555
O10_2 C17_3 1_555 1_555
Sm7 O10_2 1_555 1_555
C22_3 C23_3 1_555 1_555
C9_3 C10_3 1_555 1_555
C10_3 C11_3 1_555 1_555
C11_3 H5_3 1_555 1_555
C12_3 C11_3 1_555 1_555
C13_3 C12_3 1_555 1_555
H6_3 C13_3 1_555 1_555
C14_3 C13_3 1_555 1_555
C15_3 C10_3 1_555 1_555
H8_3 C15_3 1_555 1_555
C16_3 C12_3 1_555 1_555
C21_3 C20_3 1_555 1_555
H10_3 C21_3 1_555 1_555
O5_2 C16_3 1_555 1_555
O6_2 C16_3 1_555 1_555
O13_3 Sm7 1_555 1_555
O14_3 Sm7 1_555 1_555
H17_3 O13_3 1_555 1_555
Sm7_2 O5_2 1_555 1_555
O18_2 Sm7 1_555 1_555
C9_3 O7_3 1_555 1_555
C9_3 O8_3 1_555 1_555
C14_3 C15_3 1_555 1_555
O6_2 Sm7_2 1_555 1_555
O13_3 H19_3 1_555 1_555
H3_3 C6_3 1_555 1_555
Sm4 O1_3 1_555 1_555
C1_3 C2_3 1_555 1_555
C2_3 C3_3 1_555 1_555
C3_3 H1_3 1_555 1_555
C4_3 C3_3 1_555 1_555
C5_3 C4_3 1_555 1_555
H2_3 C5_3 1_555 1_555
C7_3 C2_3 1_555 1_555
C8_3 C4_3 1_555 1_555
O1_3 C1_3 1_555 1_555
O2_3 C1_3 1_555 1_555
O3_2 C8_3 1_555 1_555
O4_2 C8_3 1_555 1_555
O11_3 Sm4 1_555 1_555
O23 C24_3 1_555 1_555
O15_3 Sm4 1_555 1_555
H14_3 O15_3 1_555 1_555
H15_3 O15_3 1_555 1_555
O16_3 Sm4 1_555 1_555
H16_3 O16_3 1_555 1_555
Sm4_2 O3_2 1_555 1_555
Sm7_2 O4_2 1_555 1_555
C24_3 O11_3 1_555 1_555
O16_3 H20_3 1_555 1_555
Sm4_2 O1_4 1_555 1_555
Sm7_2 O2_4 1_555 1_555
C1_4 C2_4 1_555 1_555
C2_4 C3_4 1_555 1_555
C3_4 H1_4 1_555 1_555
C4_4 C3_4 1_555 1_555
C5_4 C4_4 1_555 1_555
H2_4 C5_4 1_555 1_555
C6_4 C5_4 1_555 1_555
H3_4 C6_4 1_555 1_555
C7_4 C2_4 1_555 1_555
H4_4 C7_4 1_555 1_555
C8_4 C4_4 1_555 1_555
C9_4 C10_4 1_555 1_555
C10_4 C11_4 1_555 1_555
C11_4 H5_4 1_555 1_555
C12_4 C11_4 1_555 1_555
C13_4 C12_4 1_555 1_555
H6_4 C13_4 1_555 1_555
C14_4 C13_4 1_555 1_555
C15_4 C10_4 1_555 1_555
H8_4 C15_4 1_555 1_555
C16_4 C12_4 1_555 1_555
C21_4 C20_4 1_555 1_555
H10_4 C21_4 1_555 1_555
C24_4 C20_4 1_555 1_555
O1_4 C1_4 1_555 1_555
O2_4 C1_4 1_555 1_555
O17_2 C8_4 1_555 1_555
O18_2 C8_4 1_555 1_555
O19_2 C16_4 1_555 1_555
O20_2 C16_4 1_555 1_555
O7_4 Sm4_2 1_555 1_555
O8_4 Sm4_2 1_555 1_555
O11_4 Sm4_2 1_555 1_555
O23_2 C24_4 1_555 1_555
O13_4 Sm7_2 1_555 1_555
O14_4 Sm7_2 1_555 1_555
H13_2 O14_4 1_555 1_555
O15_4 Sm4_2 1_555 1_555
H14_4 O15_4 1_555 1_555
H15_4 O15_4 1_555 1_555
O16_4 Sm4_2 1_555 1_555
H17_4 O13_4 1_555 1_555
O22_2 Sm7_2 1_555 1_555
C6_4 C7_4 1_555 1_555
C9_4 O7_4 1_555 1_555
C9_4 O8_4 1_555 1_555
C14_4 C15_4 1_555 1_555
C24_4 O11_4 1_555 1_555
O14_4 H18_2 1_555 1_555
O13_4 H19_4 1_555 1_555
O16_4 H20_4 1_555 1_555
C17_4 C18_4 1_555 1_555
C18_4 C19_4 1_555 1_555
C19_4 H9_2 1_555 1_555
H11_4 C22_4 1_555 1_555
C23_4 C18_4 1_555 1_555
H12_4 C23_4 1_555 1_555
O21_2 C17_4 1_555 1_555
O22_2 C17_4 1_555 1_555
C22_4 C23_4 1_555 1_555

#END
