
###############################################################################
#
# This file contains modified crystal structure data generated from the
# MOF subset of the Cambridge Structural Database (CSD) v543 
# hosted by the Cambridge Crystallographic Data Centre (CCDC).
#
# This work is licensed under the Creative Commons
# Attribution-NonCommercial-ShareAlike 4.0 International License.
# To view a copy of this license, visit
# http://creativecommons.org/licenses/by-nc-sa/4.0/
# or send a letter to
# Creative Commons, PO Box 1866, Mountain View, CA 94042, USA.
#
# CIF created using the CSD Python API on 29 September 2022
# The structure has been converted into the P1 space group
# The structure has a 3D framework
# The original CSD entry LEPKOJ is in the orthorhombic crystal system
# The framework has been calculated to contain at least 10.0% void space
# The void calculation uses a probe of radius 1.32A, grid spacing 0.4
# The framework is charged, counterions have been retained in the structure
# H atom positions have been added when not included in the experimental data
# Generated hydrogen atom positions removed from atoms on special positions
#
###############################################################################

data_LEPKOJ
_chemical_formula_moiety         '(C416 H316 N40 O164 Y16 Zn12 16-)n'
_symmetry_cell_setting           triclinic
_symmetry_space_group_name_H-M   'P 1'
_symmetry_Int_Tables_number      1
_space_group_name_Hall           'P 1'
loop_
_symmetry_equiv_pos_site_id
_symmetry_equiv_pos_as_xyz
1 x,y,z
_cell_length_a                   30.078(3)
_cell_length_b                   30.676(3)
_cell_length_c                   22.729(6)
_cell_angle_alpha                90
_cell_angle_beta                 90
_cell_angle_gamma                90
_cell_volume                     20971.4
loop_
_atom_site_label
_atom_site_type_symbol
_atom_site_fract_x
_atom_site_fract_y
_atom_site_fract_z
Y1 Y 0.24963(3) 0.37722(3) 0.05850(5)
O9 O 0.1971(3) 0.4325(3) 0.0973(5)
O10 O 0.2074(3) 0.3377(3) 0.1334(4)
Y7 Y 0.75037(3) 0.37722(3) 0.05850(5)
O23 O 0.3004(3) 0.3272(2) 0.0921(4)
O25 O 0.2371(3) 0.3132(3) 0.0027(4)
O26 O 0.1908(2) 0.6307(3) 0.0103(4)
O28 O 0.2935(2) 0.4225(2) 0.1157(4)
O29 O 0.2570(3) 0.5631(2) 0.0055(4)
O30 O 0.3065(3) 0.6183(3) 0.0106(4)
Zn1 Zn 0.5000 0.37104(8) 0.75297(11)
O1 O 0.3506(4) 0.1669(4) 0.6689(6)
O2 O 0.3004(3) 0.1728(2) 0.5921(4)
O3 O 0.2629(3) 0.3132(3) 0.4973(4)
O4 O 0.3092(2) 0.3693(3) 0.5103(4)
O5 O 0.3586(2) 0.5887(2) 0.8441(4)
O6 O 0.2935(2) 0.5775(2) 0.8843(4)
O7 O 0.2570(3) 0.4369(2) 0.9945(4)
O8 O 0.3065(3) 0.3817(3) 0.9894(4)
O11 O 0.5000 0.3191(4) 0.8257(6)
N1 N 0.5000 0.3256(4) 0.6843(6)
N2 N 0.4324(2) 0.3755(3) 0.7464(4)
N3 N 0.5000 0.4201(4) 0.8092(8)
C1 C 0.4766(3) 0.2809(4) 0.6090(6)
H1 H 0.4582 0.2643 0.5849
C2 C 0.4622(4) 0.3119(3) 0.6543(6)
C3 C 0.4187(3) 0.3187(4) 0.6721(6)
C4 C 0.3826(4) 0.2993(4) 0.6370(7)
C5 C 0.3745(4) 0.2572(5) 0.6460(5)
H2 H 0.3916 0.2416 0.6729
C6 C 0.3403(4) 0.2363(3) 0.6151(5)
C7 C 0.3266(7) 0.1898(5) 0.6294(9)
C8 C 0.3142(4) 0.2602(4) 0.5689(6)
H3 H 0.2917 0.2468 0.5475
C9 C 0.3252(4) 0.3023(4) 0.5604(6)
C10 C 0.2991(4) 0.3302(4) 0.5167(6)
C11 C 0.3595(4) 0.3221(4) 0.5956(6)
H4 H 0.3661 0.3514 0.5898
C12 C 0.4056(4) 0.3513(4) 0.7172(6)
C13 C 0.3591(4) 0.3595(5) 0.7272(6)
H5 H 0.3343 0.3460 0.7109
C14 C 0.3614(3) 0.3896(5) 0.7633(6)
H6 H 0.3361 0.4039 0.7770
C15 C 0.4056(4) 0.4012(4) 0.7833(6)
C16 C 0.4188(3) 0.4302(4) 0.8229(6)
C17 C 0.3834(4) 0.4515(4) 0.8609(6)
C18 C 0.3737(4) 0.4936(4) 0.8497(5)
H7 H 0.3923 0.5092 0.8247
C19 C 0.3371(4) 0.5146(4) 0.8737(7)
C20 C 0.3280(3) 0.5593(3) 0.8673(6)
C21 C 0.3134(4) 0.4894(4) 0.9171(5)
H8 H 0.2900 0.5030 0.9365
C22 C 0.3228(4) 0.4464(4) 0.9322(5)
C23 C 0.2989(5) 0.4180(5) 0.9734(7)
C24 C 0.3591(4) 0.4277(4) 0.9016(6)
H9 H 0.3668 0.3989 0.9090
C25 C 0.4649(4) 0.4371(3) 0.8364(5)
C26 C 0.4757(4) 0.4661(4) 0.8826(7)
H10 H 0.4565 0.4815 0.9070
O12 O 0.6494(4) 0.1669(4) 0.6689(6)
O13 O 0.6996(3) 0.1728(2) 0.5921(4)
O14 O 0.7371(3) 0.3132(3) 0.4973(4)
O15 O 0.6908(2) 0.3693(3) 0.5103(4)
O16 O 0.6414(2) 0.5887(2) 0.8441(4)
O17 O 0.7065(2) 0.5775(2) 0.8843(4)
O18 O 0.7430(3) 0.4369(2) 0.9945(4)
O19 O 0.6935(3) 0.3817(3) 0.9894(4)
N4 N 0.5676(2) 0.3755(3) 0.7464(4)
C27 C 0.5234(3) 0.2809(4) 0.6090(6)
H11 H 0.5418 0.2643 0.5849
C28 C 0.5378(4) 0.3119(3) 0.6543(6)
C29 C 0.5813(3) 0.3187(4) 0.6721(6)
C30 C 0.6174(4) 0.2993(4) 0.6370(7)
C31 C 0.6255(4) 0.2572(5) 0.6460(5)
H12 H 0.6084 0.2416 0.6729
C32 C 0.6597(4) 0.2363(3) 0.6151(5)
C33 C 0.6734(7) 0.1898(5) 0.6294(9)
C34 C 0.6858(4) 0.2602(4) 0.5689(6)
H13 H 0.7083 0.2468 0.5475
C35 C 0.6748(4) 0.3023(4) 0.5604(6)
C36 C 0.7009(4) 0.3302(4) 0.5167(6)
C37 C 0.6405(4) 0.3221(4) 0.5956(6)
H14 H 0.6339 0.3514 0.5898
C38 C 0.5944(4) 0.3513(4) 0.7172(6)
C39 C 0.6409(4) 0.3595(5) 0.7272(6)
H15 H 0.6657 0.3460 0.7109
C40 C 0.6386(3) 0.3896(5) 0.7633(6)
H16 H 0.6639 0.4039 0.7770
C41 C 0.5944(4) 0.4012(4) 0.7833(6)
C42 C 0.5812(3) 0.4302(4) 0.8229(6)
C43 C 0.6166(4) 0.4515(4) 0.8609(6)
C44 C 0.6263(4) 0.4936(4) 0.8497(5)
H17 H 0.6077 0.5092 0.8247
C45 C 0.6629(4) 0.5146(4) 0.8737(7)
C46 C 0.6720(3) 0.5593(3) 0.8673(6)
C47 C 0.6866(4) 0.4894(4) 0.9171(5)
H18 H 0.7100 0.5030 0.9365
C48 C 0.6772(4) 0.4464(4) 0.9322(5)
C49 C 0.7011(5) 0.4180(5) 0.9734(7)
C50 C 0.6409(4) 0.4277(4) 0.9016(6)
H19 H 0.6332 0.3989 0.9090
C51 C 0.5351(4) 0.4371(3) 0.8364(5)
C52 C 0.5243(4) 0.4661(4) 0.8826(7)
H20 H 0.5435 0.4815 0.9070
Y2 Y 0.24963(3) 0.62278(3) 0.94150(5)
O20 O 0.1971(3) 0.5675(3) 0.9027(5)
O21 O 0.2074(3) 0.6623(3) 0.8666(4)
Y3 Y 0.75037(3) 0.12278(3) 0.55850(5)
Y4 Y 0.25037(3) 0.37722(3) 0.44150(5)
Y5 Y 0.75037(3) 0.62278(3) 0.94150(5)
Y6 Y 0.24963(3) 0.12278(3) 0.55850(5)
Y8 Y 0.74963(3) 0.37722(3) 0.44150(5)
O22 O 0.3004(3) 0.6728(2) 0.9079(4)
O24 O 0.2371(3) 0.6868(3) 0.9973(4)
O27 O 0.1908(2) 0.3693(3) 0.9897(4)
Zn1_2 Zn 0.5000 0.12896(8) 0.25297(11)
O1_2 O 0.6494(4) 0.3331(4) 0.1689(6)
O2_2 O 0.6996(3) 0.3272(2) 0.0921(4)
O4_2 O 0.6908(2) 0.1307(3) 0.0103(4)
O7_2 O 0.7430(3) 0.0631(2) 0.4945(4)
O8_2 O 0.6935(3) 0.1183(3) 0.4894(4)
O9_2 O 0.8029(3) 0.0675(3) 0.5973(5)
O10_2 O 0.7926(3) 0.1623(3) 0.6334(4)
O11_2 O 0.5000 0.1809(4) 0.3257(6)
N1_2 N 0.5000 0.1744(4) 0.1843(6)
N2_2 N 0.5676(2) 0.1245(3) 0.2464(4)
N3_2 N 0.5000 0.0799(4) 0.3092(8)
C1_2 C 0.5234(3) 0.2191(4) 0.1090(6)
H1_2 H 0.5418 0.2357 0.0849
C2_2 C 0.5378(4) 0.1881(3) 0.1543(6)
C3_2 C 0.5813(3) 0.1813(4) 0.1721(6)
C4_2 C 0.6174(4) 0.2007(4) 0.1370(7)
C5_2 C 0.6255(4) 0.2428(5) 0.1460(5)
H2_2 H 0.6084 0.2584 0.1729
C6_2 C 0.6597(4) 0.2637(3) 0.1151(5)
C7_2 C 0.6734(7) 0.3102(5) 0.1294(9)
C8_2 C 0.6858(4) 0.2398(4) 0.0689(6)
H3_2 H 0.7083 0.2532 0.0475
C9_2 C 0.6748(4) 0.1977(4) 0.0604(6)
C10_2 C 0.7009(4) 0.1698(4) 0.0167(6)
C11_2 C 0.6405(4) 0.1779(4) 0.0956(6)
H4_2 H 0.6339 0.1486 0.0898
C12_2 C 0.5944(4) 0.1487(4) 0.2172(6)
C13_2 C 0.6409(4) 0.1405(5) 0.2272(6)
H5_2 H 0.6657 0.1540 0.2109
C14_2 C 0.6386(3) 0.1104(5) 0.2633(6)
H6_2 H 0.6639 0.0961 0.2770
C15_2 C 0.5944(4) 0.0988(4) 0.2833(6)
C16_2 C 0.5812(3) 0.0698(4) 0.3229(6)
C17_2 C 0.6166(4) 0.0485(4) 0.3609(6)
C18_2 C 0.6263(4) 0.0064(4) 0.3497(5)
C21_2 C 0.6866(4) 0.0106(4) 0.4171(5)
C22_2 C 0.6772(4) 0.0536(4) 0.4322(5)
C23_2 C 0.7011(5) 0.0820(5) 0.4734(7)
C24_2 C 0.6409(4) 0.0723(4) 0.4016(6)
H9_2 H 0.6332 0.1011 0.4090
C25_2 C 0.5351(4) 0.0629(3) 0.3364(5)
C26_2 C 0.5243(4) 0.0339(4) 0.3826(7)
H10_2 H 0.5435 0.0185 0.4070
O12_2 O 0.3506(4) 0.3331(4) 0.1689(6)
O15_2 O 0.3092(2) 0.1307(3) 0.0103(4)
O18_2 O 0.2570(3) 0.0631(2) 0.4945(4)
O19_2 O 0.3065(3) 0.1183(3) 0.4894(4)
N4_2 N 0.4324(2) 0.1245(3) 0.2464(4)
C27_2 C 0.4766(3) 0.2191(4) 0.1090(6)
H11_2 H 0.4582 0.2357 0.0849
C28_2 C 0.4622(4) 0.1881(3) 0.1543(6)
C29_2 C 0.4187(3) 0.1813(4) 0.1721(6)
C30_2 C 0.3826(4) 0.2007(4) 0.1370(7)
C31_2 C 0.3745(4) 0.2428(5) 0.1460(5)
H12_2 H 0.3916 0.2584 0.1729
C32_2 C 0.3403(4) 0.2637(3) 0.1151(5)
C33_2 C 0.3266(7) 0.3102(5) 0.1294(9)
C34_2 C 0.3142(4) 0.2398(4) 0.0689(6)
H13_2 H 0.2917 0.2532 0.0475
C35_2 C 0.3252(4) 0.1977(4) 0.0604(6)
C36_2 C 0.2991(4) 0.1698(4) 0.0167(6)
C37_2 C 0.3595(4) 0.1779(4) 0.0956(6)
H14_2 H 0.3661 0.1486 0.0898
C38_2 C 0.4056(4) 0.1487(4) 0.2172(6)
C39_2 C 0.3591(4) 0.1405(5) 0.2272(6)
H15_2 H 0.3343 0.1540 0.2109
C40_2 C 0.3614(3) 0.1104(5) 0.2633(6)
H16_2 H 0.3361 0.0961 0.2770
C41_2 C 0.4056(4) 0.0988(4) 0.2833(6)
C42_2 C 0.4188(3) 0.0698(4) 0.3229(6)
C43_2 C 0.3834(4) 0.0485(4) 0.3609(6)
C44_2 C 0.3737(4) 0.0064(4) 0.3497(5)
C47_2 C 0.3134(4) 0.0106(4) 0.4171(5)
C48_2 C 0.3228(4) 0.0536(4) 0.4322(5)
C49_2 C 0.2989(5) 0.0820(5) 0.4734(7)
C50_2 C 0.3591(4) 0.0723(4) 0.4016(6)
H19_2 H 0.3668 0.1011 0.4090
C51_2 C 0.4649(4) 0.0629(3) 0.3364(5)
C52_2 C 0.4757(4) 0.0339(4) 0.3826(7)
H20_2 H 0.4565 0.0185 0.4070
O25_2 O 0.7629(3) 0.1868(3) 0.5027(4)
O27_2 O 0.8092(2) 0.1307(3) 0.4897(4)
O28_2 O 0.7065(2) 0.0775(2) 0.6157(4)
O3_2 O 0.7371(3) 0.1868(3) 0.9973(4)
O14_2 O 0.2629(3) 0.1868(3) 0.9973(4)
Y4_2 Y 0.74963(3) 0.12278(3) 0.94150(5)
Y8_2 Y 0.25037(3) 0.12278(3) 0.94150(5)
O5_2 O 0.6414(2) 0.9113(2) 0.3441(4)
O6_2 O 0.7065(2) 0.9225(2) 0.3843(4)
H7_2 H 0.6077 0.9908 0.3247
C19_2 C 0.6629(4) 0.9854(4) 0.3737(7)
C20_2 C 0.6720(3) 0.9407(3) 0.3673(6)
H8_2 H 0.7100 0.9970 0.4365
O16_2 O 0.3586(2) 0.9113(2) 0.3441(4)
O17_2 O 0.2935(2) 0.9225(2) 0.3843(4)
H17_2 H 0.3923 0.9908 0.3247
C45_2 C 0.3371(4) 0.9854(4) 0.3737(7)
C46_2 C 0.3280(3) 0.9407(3) 0.3673(6)
H18_2 H 0.2900 0.9970 0.4365
Y2_2 Y 0.75037(3) 0.87722(3) 0.44150(5)
O20_2 O 0.8029(3) 0.9325(3) 0.4027(5)
O21_2 O 0.7926(3) 0.8377(3) 0.3666(4)
Y5_2 Y 0.24963(3) 0.87722(3) 0.44150(5)
O22_2 O 0.6996(3) 0.8272(2) 0.4079(4)
O24_2 O 0.7629(3) 0.8132(3) 0.4973(4)
O26_2 O 0.8092(2) 0.8693(3) 0.5103(4)
O29_2 O 0.7430(3) 0.9369(2) 0.5055(4)
O30_2 O 0.6935(3) 0.8817(3) 0.5106(4)
O5_3 O 0.6414(2) 0.0887(2) 0.6559(4)
H7_3 H 0.6077 0.0092 0.6753
C19_3 C 0.6629(4) 0.0146(4) 0.6263(7)
C20_3 C 0.6720(3) 0.0593(3) 0.6327(6)
H8_3 H 0.7100 0.0030 0.5635
O16_3 O 0.3586(2) 0.0887(2) 0.6559(4)
O17_3 O 0.2935(2) 0.0775(2) 0.6157(4)
H17_3 H 0.3923 0.0092 0.6753
C45_3 C 0.3371(4) 0.0146(4) 0.6263(7)
C46_3 C 0.3280(3) 0.0593(3) 0.6327(6)
H18_3 H 0.2900 0.0030 0.5635
O3_3 O 0.7371(3) 0.8132(3) 0.0027(4)
O14_3 O 0.2629(3) 0.8132(3) 0.0027(4)
Y4_3 Y 0.74963(3) 0.87722(3) 0.05850(5)
Y8_3 Y 0.25037(3) 0.87722(3) 0.05850(5)
Zn1_3 Zn 0.5000 0.87104(8) 0.74703(11)
O1_3 O 0.6494(4) 0.6669(4) 0.8311(6)
O2_3 O 0.6996(3) 0.6728(2) 0.9079(4)
O4_3 O 0.6908(2) 0.8693(3) 0.9897(4)
O11_3 O 0.5000 0.8191(4) 0.6743(6)
N1_3 N 0.5000 0.8256(4) 0.8157(6)
N2_3 N 0.5676(2) 0.8755(3) 0.7536(4)
N3_3 N 0.5000 0.9201(4) 0.6908(8)
C1_3 C 0.5234(3) 0.7809(4) 0.8910(6)
H1_3 H 0.5418 0.7643 0.9151
C2_3 C 0.5378(4) 0.8119(3) 0.8457(6)
C3_3 C 0.5813(3) 0.8187(4) 0.8279(6)
C4_3 C 0.6174(4) 0.7993(4) 0.8630(7)
C5_3 C 0.6255(4) 0.7572(5) 0.8540(5)
H2_3 H 0.6084 0.7416 0.8271
C6_3 C 0.6597(4) 0.7363(3) 0.8849(5)
C7_3 C 0.6734(7) 0.6898(5) 0.8706(9)
C8_3 C 0.6858(4) 0.7602(4) 0.9311(6)
H3_3 H 0.7083 0.7468 0.9525
C9_3 C 0.6748(4) 0.8023(4) 0.9396(6)
C10_3 C 0.7009(4) 0.8302(4) 0.9833(6)
C11_3 C 0.6405(4) 0.8221(4) 0.9044(6)
H4_3 H 0.6339 0.8514 0.9102
C12_3 C 0.5944(4) 0.8513(4) 0.7828(6)
C13_3 C 0.6409(4) 0.8595(5) 0.7728(6)
H5_3 H 0.6657 0.8460 0.7891
C14_3 C 0.6386(3) 0.8896(5) 0.7367(6)
H6_3 H 0.6639 0.9039 0.7230
C15_3 C 0.5944(4) 0.9012(4) 0.7167(6)
C16_3 C 0.5812(3) 0.9302(4) 0.6771(6)
C17_3 C 0.6166(4) 0.9515(4) 0.6391(6)
C18_3 C 0.6263(4) 0.9936(4) 0.6503(5)
C21_3 C 0.6866(4) 0.9894(4) 0.5829(5)
C22_3 C 0.6772(4) 0.9464(4) 0.5678(5)
C23_3 C 0.7011(5) 0.9180(5) 0.5266(7)
C24_3 C 0.6409(4) 0.9277(4) 0.5984(6)
H9_3 H 0.6332 0.8989 0.5910
C25_3 C 0.5351(4) 0.9371(3) 0.6636(5)
C26_3 C 0.5243(4) 0.9661(4) 0.6174(7)
H10_3 H 0.5435 0.9815 0.5930
O12_3 O 0.3506(4) 0.6669(4) 0.8311(6)
O15_3 O 0.3092(2) 0.8693(3) 0.9897(4)
O18_3 O 0.2570(3) 0.9369(2) 0.5055(4)
O19_3 O 0.3065(3) 0.8817(3) 0.5106(4)
N4_3 N 0.4324(2) 0.8755(3) 0.7536(4)
C27_3 C 0.4766(3) 0.7809(4) 0.8910(6)
H11_3 H 0.4582 0.7643 0.9151
C28_3 C 0.4622(4) 0.8119(3) 0.8457(6)
C29_3 C 0.4187(3) 0.8187(4) 0.8279(6)
C30_3 C 0.3826(4) 0.7993(4) 0.8630(7)
C31_3 C 0.3745(4) 0.7572(5) 0.8540(5)
H12_3 H 0.3916 0.7416 0.8271
C32_3 C 0.3403(4) 0.7363(3) 0.8849(5)
C33_3 C 0.3266(7) 0.6898(5) 0.8706(9)
C34_3 C 0.3142(4) 0.7602(4) 0.9311(6)
H13_3 H 0.2917 0.7468 0.9525
C35_3 C 0.3252(4) 0.8023(4) 0.9396(6)
C36_3 C 0.2991(4) 0.8302(4) 0.9833(6)
C37_3 C 0.3595(4) 0.8221(4) 0.9044(6)
H14_3 H 0.3661 0.8514 0.9102
C38_3 C 0.4056(4) 0.8513(4) 0.7828(6)
C39_3 C 0.3591(4) 0.8595(5) 0.7728(6)
H15_3 H 0.3343 0.8460 0.7891
C40_3 C 0.3614(3) 0.8896(5) 0.7367(6)
H16_3 H 0.3361 0.9039 0.7230
C41_3 C 0.4056(4) 0.9012(4) 0.7167(6)
C42_3 C 0.4188(3) 0.9302(4) 0.6771(6)
C43_3 C 0.3834(4) 0.9515(4) 0.6391(6)
C44_3 C 0.3737(4) 0.9936(4) 0.6503(5)
C47_3 C 0.3134(4) 0.9894(4) 0.5829(5)
C48_3 C 0.3228(4) 0.9464(4) 0.5678(5)
C49_3 C 0.2989(5) 0.9180(5) 0.5266(7)
C50_3 C 0.3591(4) 0.9277(4) 0.5984(6)
H19_3 H 0.3668 0.8989 0.5910
C51_3 C 0.4649(4) 0.9371(3) 0.6636(5)
C52_3 C 0.4757(4) 0.9661(4) 0.6174(7)
H20_3 H 0.4565 0.9815 0.5930
Zn1_4 Zn 0.5000 0.62896(8) 0.24703(11)
O1_4 O 0.3506(4) 0.8331(4) 0.3311(6)
O2_4 O 0.3004(3) 0.8272(2) 0.4079(4)
O3_4 O 0.2629(3) 0.6868(3) 0.5027(4)
O4_4 O 0.3092(2) 0.6307(3) 0.4897(4)
O5_4 O 0.3586(2) 0.4113(2) 0.1559(4)
O11_4 O 0.5000 0.6809(4) 0.1743(6)
N1_4 N 0.5000 0.6744(4) 0.3157(6)
N2_4 N 0.4324(2) 0.6245(3) 0.2536(4)
N3_4 N 0.5000 0.5799(4) 0.1908(8)
C1_4 C 0.4766(3) 0.7191(4) 0.3910(6)
H1_4 H 0.4582 0.7357 0.4151
C2_4 C 0.4622(4) 0.6881(3) 0.3457(6)
C3_4 C 0.4187(3) 0.6813(4) 0.3279(6)
C4_4 C 0.3826(4) 0.7007(4) 0.3630(7)
C5_4 C 0.3745(4) 0.7428(5) 0.3540(5)
H2_4 H 0.3916 0.7584 0.3271
C6_4 C 0.3403(4) 0.7637(3) 0.3849(5)
C7_4 C 0.3266(7) 0.8102(5) 0.3706(9)
C8_4 C 0.3142(4) 0.7398(4) 0.4311(6)
H3_4 H 0.2917 0.7532 0.4525
C9_4 C 0.3252(4) 0.6977(4) 0.4396(6)
C10_4 C 0.2991(4) 0.6698(4) 0.4833(6)
C11_4 C 0.3595(4) 0.6779(4) 0.4044(6)
H4_4 H 0.3661 0.6486 0.4102
C12_4 C 0.4056(4) 0.6487(4) 0.2828(6)
C13_4 C 0.3591(4) 0.6405(5) 0.2728(6)
H5_4 H 0.3343 0.6540 0.2891
C14_4 C 0.3614(3) 0.6104(5) 0.2367(6)
H6_4 H 0.3361 0.5961 0.2230
C15_4 C 0.4056(4) 0.5988(4) 0.2167(6)
C16_4 C 0.4188(3) 0.5698(4) 0.1771(6)
C17_4 C 0.3834(4) 0.5485(4) 0.1391(6)
C18_4 C 0.3737(4) 0.5064(4) 0.1503(5)
H7_4 H 0.3923 0.4908 0.1753
C19_4 C 0.3371(4) 0.4854(4) 0.1263(7)
C20_4 C 0.3280(3) 0.4407(3) 0.1327(6)
C21_4 C 0.3134(4) 0.5106(4) 0.0829(5)
H8_4 H 0.2900 0.4970 0.0635
C22_4 C 0.3228(4) 0.5536(4) 0.0678(5)
C23_4 C 0.2989(5) 0.5820(5) 0.0266(7)
C24_4 C 0.3591(4) 0.5723(4) 0.0984(6)
H9_4 H 0.3668 0.6011 0.0910
C25_4 C 0.4649(4) 0.5629(3) 0.1636(5)
C26_4 C 0.4757(4) 0.5339(4) 0.1174(7)
H10_4 H 0.4565 0.5185 0.0930
O12_4 O 0.6494(4) 0.8331(4) 0.3311(6)
O14_4 O 0.7371(3) 0.6868(3) 0.5027(4)
O15_4 O 0.6908(2) 0.6307(3) 0.4897(4)
O16_4 O 0.6414(2) 0.4113(2) 0.1559(4)
O17_4 O 0.7065(2) 0.4225(2) 0.1157(4)
O18_4 O 0.7430(3) 0.5631(2) 0.0055(4)
O19_4 O 0.6935(3) 0.6183(3) 0.0106(4)
N4_4 N 0.5676(2) 0.6245(3) 0.2536(4)
C27_4 C 0.5234(3) 0.7191(4) 0.3910(6)
H11_4 H 0.5418 0.7357 0.4151
C28_4 C 0.5378(4) 0.6881(3) 0.3457(6)
C29_4 C 0.5813(3) 0.6813(4) 0.3279(6)
C30_4 C 0.6174(4) 0.7007(4) 0.3630(7)
C31_4 C 0.6255(4) 0.7428(5) 0.3540(5)
H12_4 H 0.6084 0.7584 0.3271
C32_4 C 0.6597(4) 0.7637(3) 0.3849(5)
C33_4 C 0.6734(7) 0.8102(5) 0.3706(9)
C34_4 C 0.6858(4) 0.7398(4) 0.4311(6)
H13_4 H 0.7083 0.7532 0.4525
C35_4 C 0.6748(4) 0.6977(4) 0.4396(6)
C36_4 C 0.7009(4) 0.6698(4) 0.4833(6)
C37_4 C 0.6405(4) 0.6779(4) 0.4044(6)
H14_4 H 0.6339 0.6486 0.4102
C38_4 C 0.5944(4) 0.6487(4) 0.2828(6)
C39_4 C 0.6409(4) 0.6405(5) 0.2728(6)
H15_4 H 0.6657 0.6540 0.2891
C40_4 C 0.6386(3) 0.6104(5) 0.2367(6)
H16_4 H 0.6639 0.5961 0.2230
C41_4 C 0.5944(4) 0.5988(4) 0.2167(6)
C42_4 C 0.5812(3) 0.5698(4) 0.1771(6)
C43_4 C 0.6166(4) 0.5485(4) 0.1391(6)
C44_4 C 0.6263(4) 0.5064(4) 0.1503(5)
H17_4 H 0.6077 0.4908 0.1753
C45_4 C 0.6629(4) 0.4854(4) 0.1263(7)
C46_4 C 0.6720(3) 0.4407(3) 0.1327(6)
C47_4 C 0.6866(4) 0.5106(4) 0.0829(5)
H18_4 H 0.7100 0.4970 0.0635
C48_4 C 0.6772(4) 0.5536(4) 0.0678(5)
C49_4 C 0.7011(5) 0.5820(5) 0.0266(7)
C50_4 C 0.6409(4) 0.5723(4) 0.0984(6)
H19_4 H 0.6332 0.6011 0.0910
C51_4 C 0.5351(4) 0.5629(3) 0.1636(5)
C52_4 C 0.5243(4) 0.5339(4) 0.1174(7)
H20_4 H 0.5435 0.5185 0.0930
Y4_4 Y 0.25037(3) 0.62278(3) 0.55850(5)
Y8_4 Y 0.74963(3) 0.62278(3) 0.55850(5)
O16_5 O 0.1414(2) 0.0887(2) 0.8441(4)
O17_5 O 0.2065(2) 0.0775(2) 0.8843(4)
H17_5 H 0.1077 0.0092 0.8247
C45_5 C 0.1629(4) 0.0146(4) 0.8737(7)
C46_5 C 0.1720(3) 0.0593(3) 0.8673(6)
H18_5 H 0.2100 0.0030 0.9365
Zn1_5 Zn 0.0000 0.87104(8) 0.75297(11)
O11_5 O 0.0000 0.8191(4) 0.8257(6)
N1_5 N 0.0000 0.8256(4) 0.6843(6)
N3_5 N 0.0000 0.9201(4) 0.8092(8)
O12_5 O 0.1494(4) 0.6669(4) 0.6689(6)
O13_2 O 0.1996(3) 0.6728(2) 0.5921(4)
O14_5 O 0.2371(3) 0.8132(3) 0.4973(4)
O15_5 O 0.1908(2) 0.8693(3) 0.5103(4)
O18_5 O 0.2430(3) 0.9369(2) 0.9945(4)
O19_5 O 0.1935(3) 0.8817(3) 0.9894(4)
N4_5 N 0.0676(2) 0.8755(3) 0.7464(4)
C27_5 C 0.0234(3) 0.7809(4) 0.6090(6)
H11_5 H 0.0418 0.7643 0.5849
C28_5 C 0.0378(4) 0.8119(3) 0.6543(6)
C29_5 C 0.0813(3) 0.8187(4) 0.6721(6)
C30_5 C 0.1174(4) 0.7993(4) 0.6370(7)
C31_5 C 0.1255(4) 0.7572(5) 0.6460(5)
H12_5 H 0.1084 0.7416 0.6729
C32_5 C 0.1597(4) 0.7363(3) 0.6151(5)
C33_5 C 0.1734(7) 0.6898(5) 0.6294(9)
C34_5 C 0.1858(4) 0.7602(4) 0.5689(6)
H13_5 H 0.2083 0.7468 0.5475
C35_5 C 0.1748(4) 0.8023(4) 0.5604(6)
C36_5 C 0.2009(4) 0.8302(4) 0.5167(6)
C37_5 C 0.1405(4) 0.8221(4) 0.5956(6)
H14_5 H 0.1339 0.8514 0.5898
C38_5 C 0.0944(4) 0.8513(4) 0.7172(6)
C39_5 C 0.1409(4) 0.8595(5) 0.7272(6)
H15_5 H 0.1657 0.8460 0.7109
C40_5 C 0.1386(3) 0.8896(5) 0.7633(6)
H16_5 H 0.1639 0.9039 0.7770
C41_5 C 0.0944(4) 0.9012(4) 0.7833(6)
C42_5 C 0.0812(3) 0.9302(4) 0.8229(6)
C43_5 C 0.1166(4) 0.9515(4) 0.8609(6)
C44_5 C 0.1263(4) 0.9936(4) 0.8497(5)
C47_5 C 0.1866(4) 0.9894(4) 0.9171(5)
C48_5 C 0.1772(4) 0.9464(4) 0.9322(5)
C49_5 C 0.2011(5) 0.9180(5) 0.9734(7)
C50_5 C 0.1409(4) 0.9277(4) 0.9016(6)
H19_5 H 0.1332 0.8989 0.9090
C51_5 C 0.0351(4) 0.9371(3) 0.8364(5)
C52_5 C 0.0243(4) 0.9661(4) 0.8826(7)
H20_5 H 0.0435 0.9815 0.9070
H25 H 0.026956 0.800625 0.821893
H26 H 3.08149e-32 0.833586 0.86477
O29_3 O 0.7570(3) 0.0631(2) 0.0055(4)
O30_3 O 0.8065(3) 0.1183(3) 0.0106(4)
O5_5 O 0.8586(2) 0.0887(2) 0.8441(4)
O6_3 O 0.7935(2) 0.0775(2) 0.8843(4)
H7_5 H 0.8923 0.0092 0.8247
C19_5 C 0.8371(4) 0.0146(4) 0.8737(7)
C20_5 C 0.8280(3) 0.0593(3) 0.8673(6)
H8_5 H 0.7900 0.0030 0.9365
O20_3 O 0.6971(3) 0.0675(3) 0.9027(5)
O21_3 O 0.7074(3) 0.1623(3) 0.8666(4)
O22_3 O 0.8004(3) 0.1728(2) 0.9079(4)
O9_3 O 0.6971(3) 0.9325(3) 0.0973(5)
O10_3 O 0.7074(3) 0.8377(3) 0.1334(4)
O23_2 O 0.8004(3) 0.8272(2) 0.0921(4)
O28_3 O 0.7935(2) 0.9225(2) 0.1157(4)
Zn1_6 Zn 1.0000 0.87104(8) 0.75297(11)
O1_5 O 0.8506(4) 0.6669(4) 0.6689(6)
O2_5 O 0.8004(3) 0.6728(2) 0.5921(4)
O7_3 O 0.7570(3) 0.9369(2) 0.9945(4)
O8_3 O 0.8065(3) 0.8817(3) 0.9894(4)
O11_6 O 1.0000 0.8191(4) 0.8257(6)
N1_6 N 1.0000 0.8256(4) 0.6843(6)
N2_5 N 0.9324(2) 0.8755(3) 0.7464(4)
N3_6 N 1.0000 0.9201(4) 0.8092(8)
C1_5 C 0.9766(3) 0.7809(4) 0.6090(6)
H1_5 H 0.9582 0.7643 0.5849
C2_5 C 0.9622(4) 0.8119(3) 0.6543(6)
C3_5 C 0.9187(3) 0.8187(4) 0.6721(6)
C4_5 C 0.8826(4) 0.7993(4) 0.6370(7)
C5_5 C 0.8745(4) 0.7572(5) 0.6460(5)
H2_5 H 0.8916 0.7416 0.6729
C6_5 C 0.8403(4) 0.7363(3) 0.6151(5)
C7_5 C 0.8266(7) 0.6898(5) 0.6294(9)
C8_5 C 0.8142(4) 0.7602(4) 0.5689(6)
H3_5 H 0.7917 0.7468 0.5475
C9_5 C 0.8252(4) 0.8023(4) 0.5604(6)
C10_5 C 0.7991(4) 0.8302(4) 0.5167(6)
C11_5 C 0.8595(4) 0.8221(4) 0.5956(6)
H4_5 H 0.8661 0.8514 0.5898
C12_5 C 0.9056(4) 0.8513(4) 0.7172(6)
C13_5 C 0.8591(4) 0.8595(5) 0.7272(6)
H5_5 H 0.8343 0.8460 0.7109
C14_5 C 0.8614(3) 0.8896(5) 0.7633(6)
H6_5 H 0.8361 0.9039 0.7770
C15_5 C 0.9056(4) 0.9012(4) 0.7833(6)
C16_5 C 0.9188(3) 0.9302(4) 0.8229(6)
C17_5 C 0.8834(4) 0.9515(4) 0.8609(6)
C18_5 C 0.8737(4) 0.9936(4) 0.8497(5)
C21_5 C 0.8134(4) 0.9894(4) 0.9171(5)
C22_5 C 0.8228(4) 0.9464(4) 0.9322(5)
C23_5 C 0.7989(5) 0.9180(5) 0.9734(7)
C24_5 C 0.8591(4) 0.9277(4) 0.9016(6)
H9_5 H 0.8668 0.8989 0.9090
C25_5 C 0.9649(4) 0.9371(3) 0.8364(5)
C26_5 C 0.9757(4) 0.9661(4) 0.8826(7)
H10_5 H 0.9565 0.9815 0.9070
H26_2 H 1 0.833586 0.86477
Zn1_7 Zn 0.0000 0.62896(8) 0.25297(11)
O1_6 O 0.1494(4) 0.8331(4) 0.1689(6)
O2_6 O 0.1996(3) 0.8272(2) 0.0921(4)
O5_6 O 0.1414(2) 0.4113(2) 0.3441(4)
O6_4 O 0.2065(2) 0.4225(2) 0.3843(4)
O7_4 O 0.2430(3) 0.5631(2) 0.4945(4)
O8_4 O 0.1935(3) 0.6183(3) 0.4894(4)
O9_4 O 0.3029(3) 0.5675(3) 0.5973(5)
O10_4 O 0.2926(3) 0.6623(3) 0.6334(4)
O11_7 O 0.0000 0.6809(4) 0.3257(6)
N1_7 N 0.0000 0.6744(4) 0.1843(6)
N2_6 N 0.0676(2) 0.6245(3) 0.2464(4)
N3_7 N 0.0000 0.5799(4) 0.3092(8)
C1_6 C 0.0234(3) 0.7191(4) 0.1090(6)
H1_6 H 0.0418 0.7357 0.0849
C2_6 C 0.0378(4) 0.6881(3) 0.1543(6)
C3_6 C 0.0813(3) 0.6813(4) 0.1721(6)
C4_6 C 0.1174(4) 0.7007(4) 0.1370(7)
C5_6 C 0.1255(4) 0.7428(5) 0.1460(5)
H2_6 H 0.1084 0.7584 0.1729
C6_6 C 0.1597(4) 0.7637(3) 0.1151(5)
C7_6 C 0.1734(7) 0.8102(5) 0.1294(9)
C8_6 C 0.1858(4) 0.7398(4) 0.0689(6)
H3_6 H 0.2083 0.7532 0.0475
C9_6 C 0.1748(4) 0.6977(4) 0.0604(6)
C10_6 C 0.2009(4) 0.6698(4) 0.0167(6)
C11_6 C 0.1405(4) 0.6779(4) 0.0956(6)
H4_6 H 0.1339 0.6486 0.0898
C12_6 C 0.0944(4) 0.6487(4) 0.2172(6)
C13_6 C 0.1409(4) 0.6405(5) 0.2272(6)
H5_6 H 0.1657 0.6540 0.2109
C14_6 C 0.1386(3) 0.6104(5) 0.2633(6)
H6_6 H 0.1639 0.5961 0.2770
C15_6 C 0.0944(4) 0.5988(4) 0.2833(6)
C16_6 C 0.0812(3) 0.5698(4) 0.3229(6)
C17_6 C 0.1166(4) 0.5485(4) 0.3609(6)
C18_6 C 0.1263(4) 0.5064(4) 0.3497(5)
H7_6 H 0.1077 0.4908 0.3247
C19_6 C 0.1629(4) 0.4854(4) 0.3737(7)
C20_6 C 0.1720(3) 0.4407(3) 0.3673(6)
C21_6 C 0.1866(4) 0.5106(4) 0.4171(5)
H8_6 H 0.2100 0.4970 0.4365
C22_6 C 0.1772(4) 0.5536(4) 0.4322(5)
C23_6 C 0.2011(5) 0.5820(5) 0.4734(7)
C24_6 C 0.1409(4) 0.5723(4) 0.4016(6)
H9_6 H 0.1332 0.6011 0.4090
C25_6 C 0.0351(4) 0.5629(3) 0.3364(5)
C26_6 C 0.0243(4) 0.5339(4) 0.3826(7)
H10_6 H 0.0435 0.5185 0.4070
O20_4 O 0.3029(3) 0.4325(3) 0.4027(5)
O21_4 O 0.2926(3) 0.3377(3) 0.3666(4)
O22_4 O 0.1996(3) 0.3272(2) 0.4079(4)
O28_4 O 0.2065(2) 0.5775(2) 0.6157(4)
O29_4 O 0.2430(3) 0.4369(2) 0.5055(4)
O30_4 O 0.1935(3) 0.3817(3) 0.5106(4)
H26_3 H 3.08149e-33 0.666414 0.36477
Zn1_8 Zn 1.0000 0.62896(8) 0.25297(11)
O11_8 O 1.0000 0.6809(4) 0.3257(6)
N1_8 N 1.0000 0.6744(4) 0.1843(6)
N3_8 N 1.0000 0.5799(4) 0.3092(8)
O12_6 O 0.8506(4) 0.8331(4) 0.1689(6)
O15_6 O 0.8092(2) 0.6307(3) 0.0103(4)
O16_6 O 0.8586(2) 0.4113(2) 0.3441(4)
O17_6 O 0.7935(2) 0.4225(2) 0.3843(4)
O18_6 O 0.7570(3) 0.5631(2) 0.4945(4)
O19_6 O 0.8065(3) 0.6183(3) 0.4894(4)
N4_6 N 0.9324(2) 0.6245(3) 0.2464(4)
C27_6 C 0.9766(3) 0.7191(4) 0.1090(6)
H11_6 H 0.9582 0.7357 0.0849
C28_6 C 0.9622(4) 0.6881(3) 0.1543(6)
C29_6 C 0.9187(3) 0.6813(4) 0.1721(6)
C30_6 C 0.8826(4) 0.7007(4) 0.1370(7)
C31_6 C 0.8745(4) 0.7428(5) 0.1460(5)
H12_6 H 0.8916 0.7584 0.1729
C32_6 C 0.8403(4) 0.7637(3) 0.1151(5)
C33_6 C 0.8266(7) 0.8102(5) 0.1294(9)
C34_6 C 0.8142(4) 0.7398(4) 0.0689(6)
H13_6 H 0.7917 0.7532 0.0475
C35_6 C 0.8252(4) 0.6977(4) 0.0604(6)
C36_6 C 0.7991(4) 0.6698(4) 0.0167(6)
C37_6 C 0.8595(4) 0.6779(4) 0.0956(6)
H14_6 H 0.8661 0.6486 0.0898
C38_6 C 0.9056(4) 0.6487(4) 0.2172(6)
C39_6 C 0.8591(4) 0.6405(5) 0.2272(6)
H15_6 H 0.8343 0.6540 0.2109
C40_6 C 0.8614(3) 0.6104(5) 0.2633(6)
H16_6 H 0.8361 0.5961 0.2770
C41_6 C 0.9056(4) 0.5988(4) 0.2833(6)
C42_6 C 0.9188(3) 0.5698(4) 0.3229(6)
C43_6 C 0.8834(4) 0.5485(4) 0.3609(6)
C44_6 C 0.8737(4) 0.5064(4) 0.3497(5)
H17_6 H 0.8923 0.4908 0.3247
C45_6 C 0.8371(4) 0.4854(4) 0.3737(7)
C46_6 C 0.8280(3) 0.4407(3) 0.3673(6)
C47_6 C 0.8134(4) 0.5106(4) 0.4171(5)
H18_6 H 0.7900 0.4970 0.4365
C48_6 C 0.8228(4) 0.5536(4) 0.4322(5)
C49_6 C 0.7989(5) 0.5820(5) 0.4734(7)
C50_6 C 0.8591(4) 0.5723(4) 0.4016(6)
H19_6 H 0.8668 0.6011 0.4090
C51_6 C 0.9649(4) 0.5629(3) 0.3364(5)
C52_6 C 0.9757(4) 0.5339(4) 0.3826(7)
H20_6 H 0.9565 0.5185 0.4070
H25_2 H 0.973044 0.699375 0.321893
H26_4 H 1 0.666414 0.36477
O14_6 O 0.7629(3) 0.6868(3) 0.9973(4)
Zn1_9 Zn 0.0000 0.37104(8) 0.74703(11)
O1_7 O 0.1494(4) 0.1669(4) 0.8311(6)
O2_7 O 0.1996(3) 0.1728(2) 0.9079(4)
O5_7 O 0.1414(2) 0.5887(2) 0.6559(4)
O11_9 O 0.0000 0.3191(4) 0.6743(6)
N1_9 N 0.0000 0.3256(4) 0.8157(6)
N2_7 N 0.0676(2) 0.3755(3) 0.7536(4)
N3_9 N 0.0000 0.4201(4) 0.6908(8)
C1_7 C 0.0234(3) 0.2809(4) 0.8910(6)
H1_7 H 0.0418 0.2643 0.9151
C2_7 C 0.0378(4) 0.3119(3) 0.8457(6)
C3_7 C 0.0813(3) 0.3187(4) 0.8279(6)
C4_7 C 0.1174(4) 0.2993(4) 0.8630(7)
C5_7 C 0.1255(4) 0.2572(5) 0.8540(5)
H2_7 H 0.1084 0.2416 0.8271
C6_7 C 0.1597(4) 0.2363(3) 0.8849(5)
C7_7 C 0.1734(7) 0.1898(5) 0.8706(9)
C8_7 C 0.1858(4) 0.2602(4) 0.9311(6)
H3_7 H 0.2083 0.2468 0.9525
C9_7 C 0.1748(4) 0.3023(4) 0.9396(6)
C10_7 C 0.2009(4) 0.3302(4) 0.9833(6)
C11_7 C 0.1405(4) 0.3221(4) 0.9044(6)
H4_7 H 0.1339 0.3514 0.9102
C12_7 C 0.0944(4) 0.3513(4) 0.7828(6)
C13_7 C 0.1409(4) 0.3595(5) 0.7728(6)
H5_7 H 0.1657 0.3460 0.7891
C14_7 C 0.1386(3) 0.3896(5) 0.7367(6)
H6_7 H 0.1639 0.4039 0.7230
C15_7 C 0.0944(4) 0.4012(4) 0.7167(6)
C16_7 C 0.0812(3) 0.4302(4) 0.6771(6)
C17_7 C 0.1166(4) 0.4515(4) 0.6391(6)
C18_7 C 0.1263(4) 0.4936(4) 0.6503(5)
H7_7 H 0.1077 0.5092 0.6753
C19_7 C 0.1629(4) 0.5146(4) 0.6263(7)
C20_7 C 0.1720(3) 0.5593(3) 0.6327(6)
C21_7 C 0.1866(4) 0.4894(4) 0.5829(5)
H8_7 H 0.2100 0.5030 0.5635
C22_7 C 0.1772(4) 0.4464(4) 0.5678(5)
C23_7 C 0.2011(5) 0.4180(5) 0.5266(7)
C24_7 C 0.1409(4) 0.4277(4) 0.5984(6)
H9_7 H 0.1332 0.3989 0.5910
C25_7 C 0.0351(4) 0.4371(3) 0.6636(5)
C26_7 C 0.0243(4) 0.4661(4) 0.6174(7)
H10_7 H 0.0435 0.4815 0.5930
H26_5 H 1.2326e-32 0.333586 0.63523
O14_7 O 0.7629(3) 0.3132(3) 0.0027(4)
Zn1_10 Zn 1.0000 0.37104(8) 0.74703(11)
O11_10 O 1.0000 0.3191(4) 0.6743(6)
N1_10 N 1.0000 0.3256(4) 0.8157(6)
N3_10 N 1.0000 0.4201(4) 0.6908(8)
O12_7 O 0.8506(4) 0.1669(4) 0.8311(6)
O15_7 O 0.8092(2) 0.3693(3) 0.9897(4)
O16_7 O 0.8586(2) 0.5887(2) 0.6559(4)
O17_7 O 0.7935(2) 0.5775(2) 0.6157(4)
O18_7 O 0.7570(3) 0.4369(2) 0.5055(4)
O19_7 O 0.8065(3) 0.3817(3) 0.5106(4)
N4_7 N 0.9324(2) 0.3755(3) 0.7536(4)
C27_7 C 0.9766(3) 0.2809(4) 0.8910(6)
H11_7 H 0.9582 0.2643 0.9151
C28_7 C 0.9622(4) 0.3119(3) 0.8457(6)
C29_7 C 0.9187(3) 0.3187(4) 0.8279(6)
C30_7 C 0.8826(4) 0.2993(4) 0.8630(7)
C31_7 C 0.8745(4) 0.2572(5) 0.8540(5)
H12_7 H 0.8916 0.2416 0.8271
C32_7 C 0.8403(4) 0.2363(3) 0.8849(5)
C33_7 C 0.8266(7) 0.1898(5) 0.8706(9)
C34_7 C 0.8142(4) 0.2602(4) 0.9311(6)
H13_7 H 0.7917 0.2468 0.9525
C35_7 C 0.8252(4) 0.3023(4) 0.9396(6)
C36_7 C 0.7991(4) 0.3302(4) 0.9833(6)
C37_7 C 0.8595(4) 0.3221(4) 0.9044(6)
H14_7 H 0.8661 0.3514 0.9102
C38_7 C 0.9056(4) 0.3513(4) 0.7828(6)
C39_7 C 0.8591(4) 0.3595(5) 0.7728(6)
H15_7 H 0.8343 0.3460 0.7891
C40_7 C 0.8614(3) 0.3896(5) 0.7367(6)
H16_7 H 0.8361 0.4039 0.7230
C41_7 C 0.9056(4) 0.4012(4) 0.7167(6)
C42_7 C 0.9188(3) 0.4302(4) 0.6771(6)
C43_7 C 0.8834(4) 0.4515(4) 0.6391(6)
C44_7 C 0.8737(4) 0.4936(4) 0.6503(5)
H17_7 H 0.8923 0.5092 0.6753
C45_7 C 0.8371(4) 0.5146(4) 0.6263(7)
C46_7 C 0.8280(3) 0.5593(3) 0.6327(6)
C47_7 C 0.8134(4) 0.4894(4) 0.5829(5)
H18_7 H 0.7900 0.5030 0.5635
C48_7 C 0.8228(4) 0.4464(4) 0.5678(5)
C49_7 C 0.7989(5) 0.4180(5) 0.5266(7)
C50_7 C 0.8591(4) 0.4277(4) 0.5984(6)
H19_7 H 0.8668 0.3989 0.5910
C51_7 C 0.9649(4) 0.4371(3) 0.6636(5)
C52_7 C 0.9757(4) 0.4661(4) 0.6174(7)
H20_7 H 0.9565 0.4815 0.5930
H25_3 H 0.973044 0.300625 0.678107
H26_6 H 1 0.333586 0.63523
Zn1_11 Zn 0.0000 0.12896(8) 0.24703(11)
O11_11 O 0.0000 0.1809(4) 0.1743(6)
N1_11 N 0.0000 0.1744(4) 0.3157(6)
N3_11 N 0.0000 0.0799(4) 0.1908(8)
O12_8 O 0.1494(4) 0.3331(4) 0.3311(6)
O14_8 O 0.2371(3) 0.1868(3) 0.5027(4)
O15_8 O 0.1908(2) 0.1307(3) 0.4897(4)
O18_8 O 0.2430(3) 0.0631(2) 0.0055(4)
O19_8 O 0.1935(3) 0.1183(3) 0.0106(4)
N4_8 N 0.0676(2) 0.1245(3) 0.2536(4)
C27_8 C 0.0234(3) 0.2191(4) 0.3910(6)
H11_8 H 0.0418 0.2357 0.4151
C28_8 C 0.0378(4) 0.1881(3) 0.3457(6)
C29_8 C 0.0813(3) 0.1813(4) 0.3279(6)
C30_8 C 0.1174(4) 0.2007(4) 0.3630(7)
C31_8 C 0.1255(4) 0.2428(5) 0.3540(5)
H12_8 H 0.1084 0.2584 0.3271
C32_8 C 0.1597(4) 0.2637(3) 0.3849(5)
C33_8 C 0.1734(7) 0.3102(5) 0.3706(9)
C34_8 C 0.1858(4) 0.2398(4) 0.4311(6)
H13_8 H 0.2083 0.2532 0.4525
C35_8 C 0.1748(4) 0.1977(4) 0.4396(6)
C36_8 C 0.2009(4) 0.1698(4) 0.4833(6)
C37_8 C 0.1405(4) 0.1779(4) 0.4044(6)
H14_8 H 0.1339 0.1486 0.4102
C38_8 C 0.0944(4) 0.1487(4) 0.2828(6)
C39_8 C 0.1409(4) 0.1405(5) 0.2728(6)
H15_8 H 0.1657 0.1540 0.2891
C40_8 C 0.1386(3) 0.1104(5) 0.2367(6)
H16_8 H 0.1639 0.0961 0.2230
C41_8 C 0.0944(4) 0.0988(4) 0.2167(6)
C42_8 C 0.0812(3) 0.0698(4) 0.1771(6)
C43_8 C 0.1166(4) 0.0485(4) 0.1391(6)
C44_8 C 0.1263(4) 0.0064(4) 0.1503(5)
C47_8 C 0.1866(4) 0.0106(4) 0.0829(5)
C48_8 C 0.1772(4) 0.0536(4) 0.0678(5)
C49_8 C 0.2011(5) 0.0820(5) 0.0266(7)
C50_8 C 0.1409(4) 0.0723(4) 0.0984(6)
H19_8 H 0.1332 0.1011 0.0910
C51_8 C 0.0351(4) 0.0629(3) 0.1636(5)
C52_8 C 0.0243(4) 0.0339(4) 0.1174(7)
H20_8 H 0.0435 0.0185 0.0930
H25_4 H 0.026956 0.199375 0.178107
H26_7 H 1.54074e-33 0.166414 0.13523
O16_8 O 0.1414(2) 0.9113(2) 0.1559(4)
O17_8 O 0.2065(2) 0.9225(2) 0.1157(4)
H17_8 H 0.1077 0.9908 0.1753
C45_8 C 0.1629(4) 0.9854(4) 0.1263(7)
C46_8 C 0.1720(3) 0.9407(3) 0.1327(6)
H18_8 H 0.2100 0.9970 0.0635
Zn1_12 Zn 1.0000 0.12896(8) 0.24703(11)
O1_8 O 0.8506(4) 0.3331(4) 0.3311(6)
O2_8 O 0.8004(3) 0.3272(2) 0.4079(4)
O11_12 O 1.0000 0.1809(4) 0.1743(6)
N1_12 N 1.0000 0.1744(4) 0.3157(6)
N2_8 N 0.9324(2) 0.1245(3) 0.2536(4)
N3_12 N 1.0000 0.0799(4) 0.1908(8)
C1_8 C 0.9766(3) 0.2191(4) 0.3910(6)
H1_8 H 0.9582 0.2357 0.4151
C2_8 C 0.9622(4) 0.1881(3) 0.3457(6)
C3_8 C 0.9187(3) 0.1813(4) 0.3279(6)
C4_8 C 0.8826(4) 0.2007(4) 0.3630(7)
C5_8 C 0.8745(4) 0.2428(5) 0.3540(5)
H2_8 H 0.8916 0.2584 0.3271
C6_8 C 0.8403(4) 0.2637(3) 0.3849(5)
C7_8 C 0.8266(7) 0.3102(5) 0.3706(9)
C8_8 C 0.8142(4) 0.2398(4) 0.4311(6)
H3_8 H 0.7917 0.2532 0.4525
C9_8 C 0.8252(4) 0.1977(4) 0.4396(6)
C10_8 C 0.7991(4) 0.1698(4) 0.4833(6)
C11_8 C 0.8595(4) 0.1779(4) 0.4044(6)
H4_8 H 0.8661 0.1486 0.4102
C12_8 C 0.9056(4) 0.1487(4) 0.2828(6)
C13_8 C 0.8591(4) 0.1405(5) 0.2728(6)
H5_8 H 0.8343 0.1540 0.2891
C14_8 C 0.8614(3) 0.1104(5) 0.2367(6)
H6_8 H 0.8361 0.0961 0.2230
C15_8 C 0.9056(4) 0.0988(4) 0.2167(6)
C16_8 C 0.9188(3) 0.0698(4) 0.1771(6)
C17_8 C 0.8834(4) 0.0485(4) 0.1391(6)
C18_8 C 0.8737(4) 0.0064(4) 0.1503(5)
C21_8 C 0.8134(4) 0.0106(4) 0.0829(5)
C22_8 C 0.8228(4) 0.0536(4) 0.0678(5)
C23_8 C 0.7989(5) 0.0820(5) 0.0266(7)
C24_8 C 0.8591(4) 0.0723(4) 0.0984(6)
H9_8 H 0.8668 0.1011 0.0910
C25_8 C 0.9649(4) 0.0629(3) 0.1636(5)
C26_8 C 0.9757(4) 0.0339(4) 0.1174(7)
H10_8 H 0.9565 0.0185 0.0930
H26_8 H 1 0.166414 0.13523
O5_8 O 0.8586(2) 0.9113(2) 0.1559(4)
H7_8 H 0.8923 0.9908 0.1753
C19_8 C 0.8371(4) 0.9854(4) 0.1263(7)
C20_8 C 0.8280(3) 0.9407(3) 0.1327(6)
H8_8 H 0.7900 0.9970 0.0635
O20_5 O 0.8029(3) 0.4325(3) 0.0973(5)
O21_5 O 0.7926(3) 0.3377(3) 0.1334(4)
O9_5 O 0.8029(3) 0.5675(3) 0.9027(5)
O10_5 O 0.7926(3) 0.6623(3) 0.8666(4)
O20_6 O 0.1971(3) 0.0675(3) 0.5973(5)
O21_6 O 0.2074(3) 0.1623(3) 0.6334(4)
O9_6 O 0.1971(3) 0.9325(3) 0.4027(5)
O10_6 O 0.2074(3) 0.8377(3) 0.3666(4)
O9_7 O 0.3029(3) 0.0675(3) 0.9027(5)
O10_7 O 0.2926(3) 0.1623(3) 0.8666(4)
O20_7 O 0.3029(3) 0.9325(3) 0.0973(5)
O21_7 O 0.2926(3) 0.8377(3) 0.1334(4)
H25_5 H 0.973044 0.199375 0.178107
H25_6 H 0.026956 0.300625 0.678107
O9_8 O 0.6971(3) 0.4325(3) 0.4027(5)
O10_8 O 0.7074(3) 0.3377(3) 0.3666(4)
O20_8 O 0.6971(3) 0.5675(3) 0.5973(5)
O21_8 O 0.7074(3) 0.6623(3) 0.6334(4)
H25_7 H 0.026956 0.699375 0.321893
H25_8 H 0.973044 0.800625 0.821893
loop_
_geom_bond_atom_site_label_1
_geom_bond_atom_site_label_2
_geom_bond_site_symmetry_1
_geom_bond_site_symmetry_2
O9 Y1 1_555 1_555
O10 Y1 1_555 1_555
O23 Y1 1_555 1_555
O25 Y1 1_555 1_555
O28 Y1 1_555 1_555
Zn1 O11 1_555 1_555
O1 C7 1_555 1_555
O2 C7 1_555 1_555
O3 C10 1_555 1_555
O4 C10 1_555 1_555
O5 C20 1_555 1_555
O6 C20 1_555 1_555
O7 C23 1_555 1_555
N1 Zn1 1_555 1_555
N2 Zn1 1_555 1_555
N3 Zn1 1_555 1_555
C1 H1 1_555 1_555
C2 N1 1_555 1_555
C3 C2 1_555 1_555
C4 C3 1_555 1_555
C5 C4 1_555 1_555
H2 C5 1_555 1_555
C6 C5 1_555 1_555
C7 C6 1_555 1_555
C8 C6 1_555 1_555
H3 C8 1_555 1_555
C9 C8 1_555 1_555
C10 C9 1_555 1_555
C11 C4 1_555 1_555
H4 C11 1_555 1_555
C12 N2 1_555 1_555
C13 C12 1_555 1_555
H5 C13 1_555 1_555
C14 C13 1_555 1_555
H6 C14 1_555 1_555
C15 N2 1_555 1_555
C16 C15 1_555 1_555
C17 C16 1_555 1_555
C18 C17 1_555 1_555
H7 C18 1_555 1_555
C19 C18 1_555 1_555
C20 C19 1_555 1_555
C21 C19 1_555 1_555
H8 C21 1_555 1_555
C22 C21 1_555 1_555
C23 O8 1_555 1_555
C24 C17 1_555 1_555
H9 C24 1_555 1_555
C25 N3 1_555 1_555
C26 C25 1_555 1_555
H10 C26 1_555 1_555
O12 C33 1_555 1_555
O13 C33 1_555 1_555
O14 C36 1_555 1_555
O15 C36 1_555 1_555
O16 C46 1_555 1_555
O17 C46 1_555 1_555
O18 C49 1_555 1_555
O19 C49 1_555 1_555
N4 Zn1 1_555 1_555
C27 C1 1_555 1_555
H11 C27 1_555 1_555
C28 N1 1_555 1_555
C29 C28 1_555 1_555
C30 C29 1_555 1_555
C31 C30 1_555 1_555
H12 C31 1_555 1_555
C32 C31 1_555 1_555
C33 C32 1_555 1_555
C34 C32 1_555 1_555
H13 C34 1_555 1_555
C35 C34 1_555 1_555
C36 C35 1_555 1_555
C37 C30 1_555 1_555
H14 C37 1_555 1_555
C38 N4 1_555 1_555
C39 C38 1_555 1_555
H15 C39 1_555 1_555
C40 C39 1_555 1_555
H16 C40 1_555 1_555
C41 N4 1_555 1_555
C42 C41 1_555 1_555
C43 C42 1_555 1_555
C44 C43 1_555 1_555
H17 C44 1_555 1_555
C45 C44 1_555 1_555
C46 C45 1_555 1_555
C47 C45 1_555 1_555
H18 C47 1_555 1_555
C48 C47 1_555 1_555
C49 C48 1_555 1_555
C50 C43 1_555 1_555
H19 C50 1_555 1_555
C51 N3 1_555 1_555
C52 C26 1_555 1_555
H20 C52 1_555 1_555
Y2 O6 1_555 1_555
O20 Y2 1_555 1_555
O21 Y2 1_555 1_555
Y3 O13 1_555 1_555
Y4 O3 1_555 1_555
Y5 O17 1_555 1_555
Y6 O2 1_555 1_555
Y8 O14 1_555 1_555
O22 Y2 1_555 1_555
O24 Y2 1_555 1_555
O4 Y4 1_555 1_555
C1 C2 1_555 1_555
C3 C12 1_555 1_555
C9 C11 1_555 1_555
C14 C15 1_555 1_555
C16 C25 1_555 1_555
C22 C23 1_555 1_555
C22 C24 1_555 1_555
O15 Y8 1_555 1_555
C27 C28 1_555 1_555
C29 C38 1_555 1_555
C35 C37 1_555 1_555
C40 C41 1_555 1_555
C42 C51 1_555 1_555
C48 C50 1_555 1_555
C51 C52 1_555 1_555
Y3 O7_2 1_555 1_555
Zn1_2 O11_2 1_555 1_555
O1_2 C7_2 1_555 1_555
O2_2 C7_2 1_555 1_555
O4_2 C10_2 1_555 1_555
O7_2 C23_2 1_555 1_555
O8_2 Y3 1_555 1_555
O9_2 Y3 1_555 1_555
O10_2 Y3 1_555 1_555
N1_2 Zn1_2 1_555 1_555
N2_2 Zn1_2 1_555 1_555
N3_2 Zn1_2 1_555 1_555
C1_2 H1_2 1_555 1_555
C2_2 N1_2 1_555 1_555
C3_2 C2_2 1_555 1_555
C4_2 C3_2 1_555 1_555
C5_2 C4_2 1_555 1_555
H2_2 C5_2 1_555 1_555
C6_2 C5_2 1_555 1_555
C7_2 C6_2 1_555 1_555
C8_2 C6_2 1_555 1_555
H3_2 C8_2 1_555 1_555
C9_2 C8_2 1_555 1_555
C10_2 C9_2 1_555 1_555
C11_2 C4_2 1_555 1_555
H4_2 C11_2 1_555 1_555
C12_2 N2_2 1_555 1_555
C13_2 C12_2 1_555 1_555
H5_2 C13_2 1_555 1_555
C14_2 C13_2 1_555 1_555
H6_2 C14_2 1_555 1_555
C15_2 N2_2 1_555 1_555
C16_2 C15_2 1_555 1_555
C17_2 C16_2 1_555 1_555
C18_2 C17_2 1_555 1_555
C22_2 C21_2 1_555 1_555
C23_2 O8_2 1_555 1_555
C24_2 C17_2 1_555 1_555
H9_2 C24_2 1_555 1_555
C25_2 N3_2 1_555 1_555
C26_2 C25_2 1_555 1_555
H10_2 C26_2 1_555 1_555
O12_2 C33_2 1_555 1_555
O23 C33_2 1_555 1_555
O15_2 C36_2 1_555 1_555
O18_2 C49_2 1_555 1_555
O19_2 C49_2 1_555 1_555
N4_2 Zn1_2 1_555 1_555
C27_2 C1_2 1_555 1_555
H11_2 C27_2 1_555 1_555
C28_2 N1_2 1_555 1_555
C29_2 C28_2 1_555 1_555
C30_2 C29_2 1_555 1_555
C31_2 C30_2 1_555 1_555
H12_2 C31_2 1_555 1_555
C32_2 C31_2 1_555 1_555
C33_2 C32_2 1_555 1_555
C34_2 C32_2 1_555 1_555
H13_2 C34_2 1_555 1_555
C35_2 C34_2 1_555 1_555
C36_2 C35_2 1_555 1_555
C37_2 C30_2 1_555 1_555
H14_2 C37_2 1_555 1_555
C38_2 N4_2 1_555 1_555
C39_2 C38_2 1_555 1_555
H15_2 C39_2 1_555 1_555
C40_2 C39_2 1_555 1_555
H16_2 C40_2 1_555 1_555
C41_2 N4_2 1_555 1_555
C42_2 C41_2 1_555 1_555
C43_2 C42_2 1_555 1_555
C44_2 C43_2 1_555 1_555
C48_2 C47_2 1_555 1_555
C49_2 C48_2 1_555 1_555
C50_2 C43_2 1_555 1_555
H19_2 C50_2 1_555 1_555
C51_2 N3_2 1_555 1_555
C52_2 C26_2 1_555 1_555
H20_2 C52_2 1_555 1_555
Y7 O2_2 1_555 1_555
Y6 O18_2 1_555 1_555
O25_2 Y3 1_555 1_555
O27_2 Y3 1_555 1_555
O28_2 Y3 1_555 1_555
C1_2 C2_2 1_555 1_555
C3_2 C12_2 1_555 1_555
C9_2 C11_2 1_555 1_555
C14_2 C15_2 1_555 1_555
C16_2 C25_2 1_555 1_555
C22_2 C23_2 1_555 1_555
C22_2 C24_2 1_555 1_555
O19_2 Y6 1_555 1_555
C27_2 C28_2 1_555 1_555
C29_2 C38_2 1_555 1_555
C35_2 C37_2 1_555 1_555
C40_2 C41_2 1_555 1_555
C42_2 C51_2 1_555 1_555
C48_2 C50_2 1_555 1_555
C51_2 C52_2 1_555 1_555
Y4_2 O3_2 1_555 1_555
Y8_2 O14_2 1_555 1_555
O5_2 C20_2 1_555 1_555
O6_2 C20_2 1_555 1_555
C20_2 C19_2 1_555 1_555
O16_2 C46_2 1_555 1_555
O17_2 C46_2 1_555 1_555
C46_2 C45_2 1_555 1_555
Y2_2 O6_2 1_555 1_555
O20_2 Y2_2 1_555 1_555
O21_2 Y2_2 1_555 1_555
Y5_2 O17_2 1_555 1_555
O22_2 Y2_2 1_555 1_555
O24_2 Y2_2 1_555 1_555
O26_2 Y2_2 1_555 1_555
O29_2 Y2_2 1_555 1_555
O30_2 Y2_2 1_555 1_555
O5_3 C20_3 1_555 1_555
O28_2 C20_3 1_555 1_555
C20_3 C19_3 1_555 1_555
O16_3 C46_3 1_555 1_555
O17_3 C46_3 1_555 1_555
C46_3 C45_3 1_555 1_555
Y6 O17_3 1_555 1_555
Y4_3 O3_3 1_555 1_555
Y8_3 O14_3 1_555 1_555
Zn1_3 O11_3 1_555 1_555
O1_3 C7_3 1_555 1_555
O2_3 C7_3 1_555 1_555
O4_3 C10_3 1_555 1_555
O29_2 C23_3 1_555 1_555
N1_3 Zn1_3 1_555 1_555
N2_3 Zn1_3 1_555 1_555
N3_3 Zn1_3 1_555 1_555
C1_3 H1_3 1_555 1_555
C2_3 N1_3 1_555 1_555
C3_3 C2_3 1_555 1_555
C4_3 C3_3 1_555 1_555
C5_3 C4_3 1_555 1_555
H2_3 C5_3 1_555 1_555
C6_3 C5_3 1_555 1_555
C7_3 C6_3 1_555 1_555
C8_3 C6_3 1_555 1_555
H3_3 C8_3 1_555 1_555
C9_3 C8_3 1_555 1_555
C10_3 C9_3 1_555 1_555
C11_3 C4_3 1_555 1_555
H4_3 C11_3 1_555 1_555
C12_3 N2_3 1_555 1_555
C13_3 C12_3 1_555 1_555
H5_3 C13_3 1_555 1_555
C14_3 C13_3 1_555 1_555
H6_3 C14_3 1_555 1_555
C15_3 N2_3 1_555 1_555
C16_3 C15_3 1_555 1_555
C17_3 C16_3 1_555 1_555
C18_3 C17_3 1_555 1_555
C22_3 C21_3 1_555 1_555
C23_3 O30_2 1_555 1_555
C24_3 C17_3 1_555 1_555
H9_3 C24_3 1_555 1_555
C25_3 N3_3 1_555 1_555
C26_3 C25_3 1_555 1_555
H10_3 C26_3 1_555 1_555
O12_3 C33_3 1_555 1_555
O22 C33_3 1_555 1_555
O15_3 C36_3 1_555 1_555
O18_3 C49_3 1_555 1_555
O19_3 C49_3 1_555 1_555
N4_3 Zn1_3 1_555 1_555
C27_3 C1_3 1_555 1_555
H11_3 C27_3 1_555 1_555
C28_3 N1_3 1_555 1_555
C29_3 C28_3 1_555 1_555
C30_3 C29_3 1_555 1_555
C31_3 C30_3 1_555 1_555
H12_3 C31_3 1_555 1_555
C32_3 C31_3 1_555 1_555
C33_3 C32_3 1_555 1_555
C34_3 C32_3 1_555 1_555
H13_3 C34_3 1_555 1_555
C35_3 C34_3 1_555 1_555
C36_3 C35_3 1_555 1_555
C37_3 C30_3 1_555 1_555
H14_3 C37_3 1_555 1_555
C38_3 N4_3 1_555 1_555
C39_3 C38_3 1_555 1_555
H15_3 C39_3 1_555 1_555
C40_3 C39_3 1_555 1_555
H16_3 C40_3 1_555 1_555
C41_3 N4_3 1_555 1_555
C42_3 C41_3 1_555 1_555
C43_3 C42_3 1_555 1_555
C44_3 C43_3 1_555 1_555
C48_3 C47_3 1_555 1_555
C49_3 C48_3 1_555 1_555
C50_3 C43_3 1_555 1_555
H19_3 C50_3 1_555 1_555
C51_3 N3_3 1_555 1_555
C52_3 C26_3 1_555 1_555
H20_3 C52_3 1_555 1_555
Y5 O2_3 1_555 1_555
Y5_2 O18_3 1_555 1_555
C1_3 C2_3 1_555 1_555
C3_3 C12_3 1_555 1_555
C9_3 C11_3 1_555 1_555
C14_3 C15_3 1_555 1_555
C16_3 C25_3 1_555 1_555
C22_3 C23_3 1_555 1_555
C22_3 C24_3 1_555 1_555
O19_3 Y5_2 1_555 1_555
C27_3 C28_3 1_555 1_555
C29_3 C38_3 1_555 1_555
C35_3 C37_3 1_555 1_555
C40_3 C41_3 1_555 1_555
C42_3 C51_3 1_555 1_555
C48_3 C50_3 1_555 1_555
C51_3 C52_3 1_555 1_555
Zn1_4 O11_4 1_555 1_555
O1_4 C7_4 1_555 1_555
O2_4 C7_4 1_555 1_555
O3_4 C10_4 1_555 1_555
O4_4 C10_4 1_555 1_555
O5_4 C20_4 1_555 1_555
O28 C20_4 1_555 1_555
O29 C23_4 1_555 1_555
N1_4 Zn1_4 1_555 1_555
N2_4 Zn1_4 1_555 1_555
N3_4 Zn1_4 1_555 1_555
C1_4 H1_4 1_555 1_555
C2_4 N1_4 1_555 1_555
C3_4 C2_4 1_555 1_555
C4_4 C3_4 1_555 1_555
C5_4 C4_4 1_555 1_555
H2_4 C5_4 1_555 1_555
C6_4 C5_4 1_555 1_555
C7_4 C6_4 1_555 1_555
C8_4 C6_4 1_555 1_555
H3_4 C8_4 1_555 1_555
C9_4 C8_4 1_555 1_555
C10_4 C9_4 1_555 1_555
C11_4 C4_4 1_555 1_555
H4_4 C11_4 1_555 1_555
C12_4 N2_4 1_555 1_555
C13_4 C12_4 1_555 1_555
H5_4 C13_4 1_555 1_555
C14_4 C13_4 1_555 1_555
H6_4 C14_4 1_555 1_555
C15_4 N2_4 1_555 1_555
C16_4 C15_4 1_555 1_555
C17_4 C16_4 1_555 1_555
C18_4 C17_4 1_555 1_555
H7_4 C18_4 1_555 1_555
C19_4 C18_4 1_555 1_555
C20_4 C19_4 1_555 1_555
C21_4 C19_4 1_555 1_555
H8_4 C21_4 1_555 1_555
C22_4 C21_4 1_555 1_555
C23_4 O30 1_555 1_555
C24_4 C17_4 1_555 1_555
H9_4 C24_4 1_555 1_555
C25_4 N3_4 1_555 1_555
C26_4 C25_4 1_555 1_555
H10_4 C26_4 1_555 1_555
O12_4 C33_4 1_555 1_555
O22_2 C33_4 1_555 1_555
O14_4 C36_4 1_555 1_555
O15_4 C36_4 1_555 1_555
O16_4 C46_4 1_555 1_555
O17_4 C46_4 1_555 1_555
O18_4 C49_4 1_555 1_555
O19_4 C49_4 1_555 1_555
N4_4 Zn1_4 1_555 1_555
C27_4 C1_4 1_555 1_555
H11_4 C27_4 1_555 1_555
C28_4 N1_4 1_555 1_555
C29_4 C28_4 1_555 1_555
C30_4 C29_4 1_555 1_555
C31_4 C30_4 1_555 1_555
H12_4 C31_4 1_555 1_555
C32_4 C31_4 1_555 1_555
C33_4 C32_4 1_555 1_555
C34_4 C32_4 1_555 1_555
H13_4 C34_4 1_555 1_555
C35_4 C34_4 1_555 1_555
C36_4 C35_4 1_555 1_555
C37_4 C30_4 1_555 1_555
H14_4 C37_4 1_555 1_555
C38_4 N4_4 1_555 1_555
C39_4 C38_4 1_555 1_555
H15_4 C39_4 1_555 1_555
C40_4 C39_4 1_555 1_555
H16_4 C40_4 1_555 1_555
C41_4 N4_4 1_555 1_555
C42_4 C41_4 1_555 1_555
C43_4 C42_4 1_555 1_555
C44_4 C43_4 1_555 1_555
H17_4 C44_4 1_555 1_555
C45_4 C44_4 1_555 1_555
C46_4 C45_4 1_555 1_555
C47_4 C45_4 1_555 1_555
H18_4 C47_4 1_555 1_555
C48_4 C47_4 1_555 1_555
C49_4 C48_4 1_555 1_555
C50_4 C43_4 1_555 1_555
H19_4 C50_4 1_555 1_555
C51_4 N3_4 1_555 1_555
C52_4 C26_4 1_555 1_555
H20_4 C52_4 1_555 1_555
Y4_4 O3_4 1_555 1_555
Y7 O17_4 1_555 1_555
Y5_2 O2_4 1_555 1_555
Y8_4 O14_4 1_555 1_555
O4_4 Y4_4 1_555 1_555
C1_4 C2_4 1_555 1_555
C3_4 C12_4 1_555 1_555
C9_4 C11_4 1_555 1_555
C14_4 C15_4 1_555 1_555
C16_4 C25_4 1_555 1_555
C22_4 C23_4 1_555 1_555
C22_4 C24_4 1_555 1_555
O15_4 Y8_4 1_555 1_555
C27_4 C28_4 1_555 1_555
C29_4 C38_4 1_555 1_555
C35_4 C37_4 1_555 1_555
C40_4 C41_4 1_555 1_555
C42_4 C51_4 1_555 1_555
C48_4 C50_4 1_555 1_555
C51_4 C52_4 1_555 1_555
O16_5 C46_5 1_555 1_555
O17_5 C46_5 1_555 1_555
C46_5 C45_5 1_555 1_555
Y8_2 O17_5 1_555 1_555
Zn1_5 O11_5 1_555 1_555
N1_5 Zn1_5 1_555 1_555
N3_5 Zn1_5 1_555 1_555
O12_5 C33_5 1_555 1_555
O13_2 C33_5 1_555 1_555
O14_5 C36_5 1_555 1_555
O15_5 C36_5 1_555 1_555
O18_5 C49_5 1_555 1_555
O19_5 C49_5 1_555 1_555
N4_5 Zn1_5 1_555 1_555
H11_5 C27_5 1_555 1_555
C28_5 N1_5 1_555 1_555
C29_5 C28_5 1_555 1_555
C30_5 C29_5 1_555 1_555
C31_5 C30_5 1_555 1_555
H12_5 C31_5 1_555 1_555
C32_5 C31_5 1_555 1_555
C33_5 C32_5 1_555 1_555
C34_5 C32_5 1_555 1_555
H13_5 C34_5 1_555 1_555
C35_5 C34_5 1_555 1_555
C36_5 C35_5 1_555 1_555
C37_5 C30_5 1_555 1_555
H14_5 C37_5 1_555 1_555
C38_5 N4_5 1_555 1_555
C39_5 C38_5 1_555 1_555
H15_5 C39_5 1_555 1_555
C40_5 C39_5 1_555 1_555
H16_5 C40_5 1_555 1_555
C41_5 N4_5 1_555 1_555
C42_5 C41_5 1_555 1_555
C43_5 C42_5 1_555 1_555
C44_5 C43_5 1_555 1_555
C48_5 C47_5 1_555 1_555
C49_5 C48_5 1_555 1_555
C50_5 C43_5 1_555 1_555
H19_5 C50_5 1_555 1_555
C51_5 N3_5 1_555 1_555
H20_5 C52_5 1_555 1_555
Y4_4 O13_2 1_555 1_555
Y5_2 O14_5 1_555 1_555
O15_5 Y5_2 1_555 1_555
C27_5 C28_5 1_555 1_555
C29_5 C38_5 1_555 1_555
C35_5 C37_5 1_555 1_555
C40_5 C41_5 1_555 1_555
C42_5 C51_5 1_555 1_555
C48_5 C50_5 1_555 1_555
C51_5 C52_5 1_555 1_555
O11_5 H25 1_555 1_555
O11_5 H26 1_555 1_555
O5_5 C20_5 1_555 1_555
O6_3 C20_5 1_555 1_555
C20_5 C19_5 1_555 1_555
Y4_2 O6_3 1_555 1_555
O20_3 Y4_2 1_555 1_555
O21_3 Y4_2 1_555 1_555
O22_3 Y4_2 1_555 1_555
O9_3 Y4_3 1_555 1_555
O10_3 Y4_3 1_555 1_555
O23_2 Y4_3 1_555 1_555
O28_3 Y4_3 1_555 1_555
Zn1_6 O11_6 1_555 1_555
O1_5 C7_5 1_555 1_555
O2_5 C7_5 1_555 1_555
O24_2 C10_5 1_555 1_555
O26_2 C10_5 1_555 1_555
O7_3 C23_5 1_555 1_555
N1_6 Zn1_6 1_555 1_555
N2_5 Zn1_6 1_555 1_555
N3_6 Zn1_6 1_555 1_555
C1_5 H1_5 1_555 1_555
C2_5 N1_6 1_555 1_555
C3_5 C2_5 1_555 1_555
C4_5 C3_5 1_555 1_555
C5_5 C4_5 1_555 1_555
H2_5 C5_5 1_555 1_555
C6_5 C5_5 1_555 1_555
C7_5 C6_5 1_555 1_555
C8_5 C6_5 1_555 1_555
H3_5 C8_5 1_555 1_555
C9_5 C8_5 1_555 1_555
C10_5 C9_5 1_555 1_555
C11_5 C4_5 1_555 1_555
H4_5 C11_5 1_555 1_555
C12_5 N2_5 1_555 1_555
C13_5 C12_5 1_555 1_555
H5_5 C13_5 1_555 1_555
C14_5 C13_5 1_555 1_555
H6_5 C14_5 1_555 1_555
C15_5 N2_5 1_555 1_555
C16_5 C15_5 1_555 1_555
C17_5 C16_5 1_555 1_555
C18_5 C17_5 1_555 1_555
C22_5 C21_5 1_555 1_555
C23_5 O8_3 1_555 1_555
C24_5 C17_5 1_555 1_555
H9_5 C24_5 1_555 1_555
C25_5 N3_6 1_555 1_555
C26_5 C25_5 1_555 1_555
H10_5 C26_5 1_555 1_555
Y8_4 O2_5 1_555 1_555
C1_5 C2_5 1_555 1_555
C3_5 C12_5 1_555 1_555
C9_5 C11_5 1_555 1_555
C14_5 C15_5 1_555 1_555
C16_5 C25_5 1_555 1_555
C22_5 C23_5 1_555 1_555
C22_5 C24_5 1_555 1_555
O11_6 H26_2 1_555 1_555
Y4_4 O7_4 1_555 1_555
Zn1_7 O11_7 1_555 1_555
O1_6 C7_6 1_555 1_555
O2_6 C7_6 1_555 1_555
O26 C10_6 1_555 1_555
O5_6 C20_6 1_555 1_555
O6_4 C20_6 1_555 1_555
O7_4 C23_6 1_555 1_555
O8_4 Y4_4 1_555 1_555
O9_4 Y4_4 1_555 1_555
O10_4 Y4_4 1_555 1_555
N1_7 Zn1_7 1_555 1_555
N2_6 Zn1_7 1_555 1_555
N3_7 Zn1_7 1_555 1_555
C1_6 H1_6 1_555 1_555
C2_6 N1_7 1_555 1_555
C3_6 C2_6 1_555 1_555
C4_6 C3_6 1_555 1_555
C5_6 C4_6 1_555 1_555
H2_6 C5_6 1_555 1_555
C6_6 C5_6 1_555 1_555
C7_6 C6_6 1_555 1_555
C8_6 C6_6 1_555 1_555
H3_6 C8_6 1_555 1_555
C9_6 C8_6 1_555 1_555
C10_6 C9_6 1_555 1_555
C11_6 C4_6 1_555 1_555
H4_6 C11_6 1_555 1_555
C12_6 N2_6 1_555 1_555
C13_6 C12_6 1_555 1_555
H5_6 C13_6 1_555 1_555
C14_6 C13_6 1_555 1_555
H6_6 C14_6 1_555 1_555
C15_6 N2_6 1_555 1_555
C16_6 C15_6 1_555 1_555
C17_6 C16_6 1_555 1_555
C18_6 C17_6 1_555 1_555
H7_6 C18_6 1_555 1_555
C19_6 C18_6 1_555 1_555
C20_6 C19_6 1_555 1_555
C21_6 C19_6 1_555 1_555
H8_6 C21_6 1_555 1_555
C22_6 C21_6 1_555 1_555
C23_6 O8_4 1_555 1_555
C24_6 C17_6 1_555 1_555
H9_6 C24_6 1_555 1_555
C25_6 N3_7 1_555 1_555
C26_6 C25_6 1_555 1_555
H10_6 C26_6 1_555 1_555
Y4 O6_4 1_555 1_555
O20_4 Y4 1_555 1_555
O21_4 Y4 1_555 1_555
Y8_3 O2_6 1_555 1_555
O22_4 Y4 1_555 1_555
O28_4 Y4_4 1_555 1_555
O29_4 Y4 1_555 1_555
O30_4 Y4 1_555 1_555
C1_6 C2_6 1_555 1_555
C3_6 C12_6 1_555 1_555
C9_6 C11_6 1_555 1_555
C14_6 C15_6 1_555 1_555
C16_6 C25_6 1_555 1_555
C22_6 C23_6 1_555 1_555
C22_6 C24_6 1_555 1_555
O11_7 H26_3 1_555 1_555
Zn1_8 O11_8 1_555 1_555
N1_8 Zn1_8 1_555 1_555
N3_8 Zn1_8 1_555 1_555
O12_6 C33_6 1_555 1_555
O23_2 C33_6 1_555 1_555
O15_6 C36_6 1_555 1_555
O16_6 C46_6 1_555 1_555
O17_6 C46_6 1_555 1_555
O18_6 C49_6 1_555 1_555
O19_6 C49_6 1_555 1_555
N4_6 Zn1_8 1_555 1_555
H11_6 C27_6 1_555 1_555
C28_6 N1_8 1_555 1_555
C29_6 C28_6 1_555 1_555
C30_6 C29_6 1_555 1_555
C31_6 C30_6 1_555 1_555
H12_6 C31_6 1_555 1_555
C32_6 C31_6 1_555 1_555
C33_6 C32_6 1_555 1_555
C34_6 C32_6 1_555 1_555
H13_6 C34_6 1_555 1_555
C35_6 C34_6 1_555 1_555
C36_6 C35_6 1_555 1_555
C37_6 C30_6 1_555 1_555
H14_6 C37_6 1_555 1_555
C38_6 N4_6 1_555 1_555
C39_6 C38_6 1_555 1_555
H15_6 C39_6 1_555 1_555
C40_6 C39_6 1_555 1_555
H16_6 C40_6 1_555 1_555
C41_6 N4_6 1_555 1_555
C42_6 C41_6 1_555 1_555
C43_6 C42_6 1_555 1_555
C44_6 C43_6 1_555 1_555
H17_6 C44_6 1_555 1_555
C45_6 C44_6 1_555 1_555
C46_6 C45_6 1_555 1_555
C47_6 C45_6 1_555 1_555
H18_6 C47_6 1_555 1_555
C48_6 C47_6 1_555 1_555
C49_6 C48_6 1_555 1_555
C50_6 C43_6 1_555 1_555
H19_6 C50_6 1_555 1_555
C51_6 N3_8 1_555 1_555
H20_6 C52_6 1_555 1_555
Y8 O17_6 1_555 1_555
Y8_4 O18_6 1_555 1_555
O19_6 Y8_4 1_555 1_555
C27_6 C28_6 1_555 1_555
C29_6 C38_6 1_555 1_555
C35_6 C37_6 1_555 1_555
C40_6 C41_6 1_555 1_555
C42_6 C51_6 1_555 1_555
C48_6 C50_6 1_555 1_555
C51_6 C52_6 1_555 1_555
O11_8 H25_2 1_555 1_555
O11_8 H26_4 1_555 1_555
Y5 O14_6 1_555 1_555
Zn1_9 O11_9 1_555 1_555
O1_7 C7_7 1_555 1_555
O2_7 C7_7 1_555 1_555
O27 C10_7 1_555 1_555
O5_7 C20_7 1_555 1_555
O28_4 C20_7 1_555 1_555
O29_4 C23_7 1_555 1_555
N1_9 Zn1_9 1_555 1_555
N2_7 Zn1_9 1_555 1_555
N3_9 Zn1_9 1_555 1_555
C1_7 H1_7 1_555 1_555
C2_7 N1_9 1_555 1_555
C3_7 C2_7 1_555 1_555
C4_7 C3_7 1_555 1_555
C5_7 C4_7 1_555 1_555
H2_7 C5_7 1_555 1_555
C6_7 C5_7 1_555 1_555
C7_7 C6_7 1_555 1_555
C8_7 C6_7 1_555 1_555
H3_7 C8_7 1_555 1_555
C9_7 C8_7 1_555 1_555
C10_7 C9_7 1_555 1_555
C11_7 C4_7 1_555 1_555
H4_7 C11_7 1_555 1_555
C12_7 N2_7 1_555 1_555
C13_7 C12_7 1_555 1_555
H5_7 C13_7 1_555 1_555
C14_7 C13_7 1_555 1_555
H6_7 C14_7 1_555 1_555
C15_7 N2_7 1_555 1_555
C16_7 C15_7 1_555 1_555
C17_7 C16_7 1_555 1_555
C18_7 C17_7 1_555 1_555
H7_7 C18_7 1_555 1_555
C19_7 C18_7 1_555 1_555
C20_7 C19_7 1_555 1_555
C21_7 C19_7 1_555 1_555
H8_7 C21_7 1_555 1_555
C22_7 C21_7 1_555 1_555
C23_7 O30_4 1_555 1_555
C24_7 C17_7 1_555 1_555
H9_7 C24_7 1_555 1_555
C25_7 N3_9 1_555 1_555
C26_7 C25_7 1_555 1_555
H10_7 C26_7 1_555 1_555
Y8_2 O2_7 1_555 1_555
C1_7 C2_7 1_555 1_555
C3_7 C12_7 1_555 1_555
C9_7 C11_7 1_555 1_555
C14_7 C15_7 1_555 1_555
C16_7 C25_7 1_555 1_555
C22_7 C23_7 1_555 1_555
C22_7 C24_7 1_555 1_555
O11_9 H26_5 1_555 1_555
Y7 O14_7 1_555 1_555
Zn1_10 O11_10 1_555 1_555
N1_10 Zn1_10 1_555 1_555
N3_10 Zn1_10 1_555 1_555
O12_7 C33_7 1_555 1_555
O22_3 C33_7 1_555 1_555
O15_7 C36_7 1_555 1_555
O16_7 C46_7 1_555 1_555
O17_7 C46_7 1_555 1_555
O18_7 C49_7 1_555 1_555
O19_7 C49_7 1_555 1_555
N4_7 Zn1_10 1_555 1_555
H11_7 C27_7 1_555 1_555
C28_7 N1_10 1_555 1_555
C29_7 C28_7 1_555 1_555
C30_7 C29_7 1_555 1_555
C31_7 C30_7 1_555 1_555
H12_7 C31_7 1_555 1_555
C32_7 C31_7 1_555 1_555
C33_7 C32_7 1_555 1_555
C34_7 C32_7 1_555 1_555
H13_7 C34_7 1_555 1_555
C35_7 C34_7 1_555 1_555
C36_7 C35_7 1_555 1_555
C37_7 C30_7 1_555 1_555
H14_7 C37_7 1_555 1_555
C38_7 N4_7 1_555 1_555
C39_7 C38_7 1_555 1_555
H15_7 C39_7 1_555 1_555
C40_7 C39_7 1_555 1_555
H16_7 C40_7 1_555 1_555
C41_7 N4_7 1_555 1_555
C42_7 C41_7 1_555 1_555
C43_7 C42_7 1_555 1_555
C44_7 C43_7 1_555 1_555
H17_7 C44_7 1_555 1_555
C45_7 C44_7 1_555 1_555
C46_7 C45_7 1_555 1_555
C47_7 C45_7 1_555 1_555
H18_7 C47_7 1_555 1_555
C48_7 C47_7 1_555 1_555
C49_7 C48_7 1_555 1_555
C50_7 C43_7 1_555 1_555
H19_7 C50_7 1_555 1_555
C51_7 N3_10 1_555 1_555
H20_7 C52_7 1_555 1_555
Y8_4 O17_7 1_555 1_555
Y8 O18_7 1_555 1_555
O19_7 Y8 1_555 1_555
C27_7 C28_7 1_555 1_555
C29_7 C38_7 1_555 1_555
C35_7 C37_7 1_555 1_555
C40_7 C41_7 1_555 1_555
C42_7 C51_7 1_555 1_555
C48_7 C50_7 1_555 1_555
C51_7 C52_7 1_555 1_555
O11_10 H25_3 1_555 1_555
O11_10 H26_6 1_555 1_555
Zn1_11 O11_11 1_555 1_555
N1_11 Zn1_11 1_555 1_555
N3_11 Zn1_11 1_555 1_555
O12_8 C33_8 1_555 1_555
O22_4 C33_8 1_555 1_555
O14_8 C36_8 1_555 1_555
O15_8 C36_8 1_555 1_555
O18_8 C49_8 1_555 1_555
O19_8 C49_8 1_555 1_555
N4_8 Zn1_11 1_555 1_555
H11_8 C27_8 1_555 1_555
C28_8 N1_11 1_555 1_555
C29_8 C28_8 1_555 1_555
C30_8 C29_8 1_555 1_555
C31_8 C30_8 1_555 1_555
H12_8 C31_8 1_555 1_555
C32_8 C31_8 1_555 1_555
C33_8 C32_8 1_555 1_555
C34_8 C32_8 1_555 1_555
H13_8 C34_8 1_555 1_555
C35_8 C34_8 1_555 1_555
C36_8 C35_8 1_555 1_555
C37_8 C30_8 1_555 1_555
H14_8 C37_8 1_555 1_555
C38_8 N4_8 1_555 1_555
C39_8 C38_8 1_555 1_555
H15_8 C39_8 1_555 1_555
C40_8 C39_8 1_555 1_555
H16_8 C40_8 1_555 1_555
C41_8 N4_8 1_555 1_555
C42_8 C41_8 1_555 1_555
C43_8 C42_8 1_555 1_555
C44_8 C43_8 1_555 1_555
C48_8 C47_8 1_555 1_555
C49_8 C48_8 1_555 1_555
C50_8 C43_8 1_555 1_555
H19_8 C50_8 1_555 1_555
C51_8 N3_11 1_555 1_555
H20_8 C52_8 1_555 1_555
Y6 O14_8 1_555 1_555
O15_8 Y6 1_555 1_555
C27_8 C28_8 1_555 1_555
C29_8 C38_8 1_555 1_555
C35_8 C37_8 1_555 1_555
C40_8 C41_8 1_555 1_555
C42_8 C51_8 1_555 1_555
C48_8 C50_8 1_555 1_555
C51_8 C52_8 1_555 1_555
O11_11 H25_4 1_555 1_555
O11_11 H26_7 1_555 1_555
O16_8 C46_8 1_555 1_555
O17_8 C46_8 1_555 1_555
C46_8 C45_8 1_555 1_555
Y8_3 O17_8 1_555 1_555
Zn1_12 O11_12 1_555 1_555
O1_8 C7_8 1_555 1_555
O2_8 C7_8 1_555 1_555
O25_2 C10_8 1_555 1_555
O27_2 C10_8 1_555 1_555
O29_3 C23_8 1_555 1_555
N1_12 Zn1_12 1_555 1_555
N2_8 Zn1_12 1_555 1_555
N3_12 Zn1_12 1_555 1_555
C1_8 H1_8 1_555 1_555
C2_8 N1_12 1_555 1_555
C3_8 C2_8 1_555 1_555
C4_8 C3_8 1_555 1_555
C5_8 C4_8 1_555 1_555
H2_8 C5_8 1_555 1_555
C6_8 C5_8 1_555 1_555
C7_8 C6_8 1_555 1_555
C8_8 C6_8 1_555 1_555
H3_8 C8_8 1_555 1_555
C9_8 C8_8 1_555 1_555
C10_8 C9_8 1_555 1_555
C11_8 C4_8 1_555 1_555
H4_8 C11_8 1_555 1_555
C12_8 N2_8 1_555 1_555
C13_8 C12_8 1_555 1_555
H5_8 C13_8 1_555 1_555
C14_8 C13_8 1_555 1_555
H6_8 C14_8 1_555 1_555
C15_8 N2_8 1_555 1_555
C16_8 C15_8 1_555 1_555
C17_8 C16_8 1_555 1_555
C18_8 C17_8 1_555 1_555
C22_8 C21_8 1_555 1_555
C23_8 O30_3 1_555 1_555
C24_8 C17_8 1_555 1_555
H9_8 C24_8 1_555 1_555
C25_8 N3_12 1_555 1_555
C26_8 C25_8 1_555 1_555
H10_8 C26_8 1_555 1_555
Y8 O2_8 1_555 1_555
C1_8 C2_8 1_555 1_555
C3_8 C12_8 1_555 1_555
C9_8 C11_8 1_555 1_555
C14_8 C15_8 1_555 1_555
C16_8 C25_8 1_555 1_555
C22_8 C23_8 1_555 1_555
C22_8 C24_8 1_555 1_555
O11_12 H26_8 1_555 1_555
O5_8 C20_8 1_555 1_555
O28_3 C20_8 1_555 1_555
C20_8 C19_8 1_555 1_555
O20_5 Y7 1_555 1_555
O21_5 Y7 1_555 1_555
O9_5 Y5 1_555 1_555
O10_5 Y5 1_555 1_555
O20_6 Y6 1_555 1_555
O21_6 Y6 1_555 1_555
O9_6 Y5_2 1_555 1_555
O10_6 Y5_2 1_555 1_555
O9_7 Y8_2 1_555 1_555
O10_7 Y8_2 1_555 1_555
O20_7 Y8_3 1_555 1_555
O21_7 Y8_3 1_555 1_555
O11_12 H25_5 1_555 1_555
O11_9 H25_6 1_555 1_555
O9_8 Y8 1_555 1_555
O10_8 Y8 1_555 1_555
O20_8 Y8_4 1_555 1_555
O21_8 Y8_4 1_555 1_555
O11_7 H25_7 1_555 1_555
O11_6 H25_8 1_555 1_555

#END
