
###############################################################################
#
# This file contains modified crystal structure data generated from the
# MOF subset of the Cambridge Structural Database (CSD) v543 
# hosted by the Cambridge Crystallographic Data Centre (CCDC).
#
# This work is licensed under the Creative Commons
# Attribution-NonCommercial-ShareAlike 4.0 International License.
# To view a copy of this license, visit
# http://creativecommons.org/licenses/by-nc-sa/4.0/
# or send a letter to
# Creative Commons, PO Box 1866, Mountain View, CA 94042, USA.
#
# CIF created using the CSD Python API on 29 September 2022
# The structure has been converted into the P1 space group
# The structure has a 3D framework
# The original CSD entry LEPKEZ is in the orthorhombic crystal system
# The framework has been calculated to contain at least 10.0% void space
# The void calculation uses a probe of radius 1.32A, grid spacing 0.4
# The framework is charged, counterions have been retained in the structure
# H atom positions have been added when not included in the experimental data
# Generated hydrogen atom positions removed from atoms on special positions
#
###############################################################################

data_LEPKEZ
_chemical_formula_moiety         '(C416 H288 Cu12 N40 O152 Y16 10-)n'
_symmetry_cell_setting           triclinic
_symmetry_space_group_name_H-M   'P 1'
_symmetry_Int_Tables_number      1
_space_group_name_Hall           'P 1'
loop_
_symmetry_equiv_pos_site_id
_symmetry_equiv_pos_as_xyz
1 x,y,z
_cell_length_a                   30.1088(9)
_cell_length_b                   30.5872(9)
_cell_length_c                   23.6853(13)
_cell_angle_alpha                90
_cell_angle_beta                 90
_cell_angle_gamma                90
_cell_volume                     21812.8
loop_
_atom_site_label
_atom_site_type_symbol
_atom_site_fract_x
_atom_site_fract_y
_atom_site_fract_z
Y1 Y 0.242873(17) 0.379827(16) 0.05271(3)
O9 O 0.2810(3) 0.3524(2) 0.1319(3)
O10 O 0.29325(16) 0.4380(2) 0.0834(2)
O21 O 0.19861(18) 0.42220(15) 0.1056(3)
O22 O 0.23155(13) 0.55939(13) 0.0119(2)
O23 O 0.18983(15) 0.61778(14) 0.0215(3)
O24 O 0.30464(15) 0.62760(13) 0.0098(2)
O27 O 0.26549(15) 0.31324(13) 0.0071(2)
O29 O 0.19363(16) 0.32722(14) 0.0814(2)
Cu1 Cu -0.0000 0.37659(3) 0.73888(5)
O1 O 0.1375(3) 0.5848(3) 0.8453(4)
O2 O 0.19861(18) 0.57780(15) 0.8944(3)
O3 O 0.23155(13) 0.44061(13) 0.9881(2)
O4 O 0.18983(15) 0.38222(14) 0.9785(3)
O5 O 0.19536(15) 0.37240(13) 0.5098(2)
O6 O 0.23451(15) 0.31324(13) 0.4929(2)
O7 O 0.19363(16) 0.17278(14) 0.5814(2)
O8 O 0.1404(3) 0.1689(2) 0.6432(4)
N1 N 0.0000 0.4183(2) 0.8037(3)
N2 N 0.06615(13) 0.37700(14) 0.7379(2)
N3 N 0.0000 0.3342(2) 0.6746(3)
C1 C 0.0224(2) 0.4629(2) 0.8745(3)
H1 H 0.0406 0.4781 0.8994
C2 C 0.03646(19) 0.4361(3) 0.8305(3)
C3 C 0.08028(18) 0.4278(2) 0.8166(3)
C4 C 0.09383(19) 0.4003(2) 0.7754(3)
C5 C 0.1398(2) 0.3918(3) 0.7589(4)
H2 H 0.1650 0.4033 0.7760
C6 C 0.13926(19) 0.3645(2) 0.7149(3)
H3 H 0.1644 0.3534 0.6971
C7 C 0.09457(17) 0.3546(2) 0.6992(3)
C8 C 0.08059(16) 0.32467(19) 0.6605(2)
C9 C 0.03644(16) 0.31590(18) 0.6480(3)
C10 C 0.02255(18) 0.2887(2) 0.6033(2)
H4 H 0.0409 0.2735 0.5785
C11 C 0.11538(19) 0.4492(2) 0.8527(3)
C12 C 0.1231(2) 0.4925(2) 0.8468(3)
H5 H 0.1046 0.5081 0.8226
C13 C 0.1568(2) 0.5155(2) 0.8745(4)
C14 C 0.1798(2) 0.49086(19) 0.9143(3)
H6 H 0.2010 0.5051 0.9363
C15 C 0.1733(2) 0.4462(2) 0.9236(3)
C16 C 0.14050(19) 0.4254(2) 0.8908(3)
H7 H 0.1357 0.3956 0.8948
C17 C 0.11656(17) 0.30401(18) 0.6274(3)
C18 C 0.14222(16) 0.32574(16) 0.5895(3)
H8 H 0.1372 0.3555 0.5845
C19 C 0.17480(16) 0.30649(17) 0.5584(2)
C20 C 0.18288(19) 0.2611(2) 0.5645(3)
H9 H 0.2051 0.2473 0.5440
C21 C 0.1565(2) 0.2381(2) 0.6022(3)
C22 C 0.12391(19) 0.2600(2) 0.6340(3)
H10 H 0.1070 0.2443 0.6600
C23 C 0.1668(3) 0.5616(3) 0.8678(5)
C24 C 0.1988(2) 0.4200(2) 0.9661(3)
C25 C 0.20231(18) 0.3314(2) 0.5164(3)
C26 C 0.1671(3) 0.1900(3) 0.6096(5)
Y2 Y 0.242873(17) 0.620173(16) 0.94729(3)
O19 O 0.2810(3) 0.6476(2) 0.8681(3)
O20 O 0.29325(16) 0.5620(2) 0.9166(2)
Y4 Y 0.257127(17) 0.379827(16) 0.44729(3)
Y6 Y 0.242873(17) 0.120173(16) 0.55271(3)
O25 O 0.30464(15) 0.37240(13) 0.9902(2)
O26 O 0.26549(15) 0.68676(13) 0.9929(2)
O28 O 0.19363(16) 0.67278(14) 0.9186(2)
Y7 Y 0.757127(17) 0.379827(16) 0.05271(3)
Cu1_2 Cu 1.0000 0.37659(3) 0.73888(5)
N1_2 N 1.0000 0.4183(2) 0.8037(3)
N3_2 N 1.0000 0.3342(2) 0.6746(3)
O11 O 0.8625(3) 0.5848(3) 0.8453(4)
O12 O 0.80139(18) 0.57780(15) 0.8944(3)
O13 O 0.76845(13) 0.44061(13) 0.9881(2)
O14 O 0.81017(15) 0.38222(14) 0.9785(3)
O15 O 0.80464(15) 0.37240(13) 0.5098(2)
O16 O 0.76549(15) 0.31324(13) 0.4929(2)
O17 O 0.80637(16) 0.17278(14) 0.5814(2)
O18 O 0.8596(3) 0.1689(2) 0.6432(4)
N4 N 0.93385(13) 0.37700(14) 0.7379(2)
C27 C 0.9776(2) 0.4629(2) 0.8745(3)
H11 H 0.9594 0.4781 0.8994
C28 C 0.96354(19) 0.4361(3) 0.8305(3)
C29 C 0.91972(18) 0.4278(2) 0.8166(3)
C30 C 0.90617(19) 0.4003(2) 0.7754(3)
C31 C 0.8602(2) 0.3918(3) 0.7589(4)
H12 H 0.8350 0.4033 0.7760
C32 C 0.86074(19) 0.3645(2) 0.7149(3)
H13 H 0.8356 0.3534 0.6971
C33 C 0.90543(17) 0.3546(2) 0.6992(3)
C34 C 0.91941(16) 0.32467(19) 0.6605(2)
C35 C 0.96356(16) 0.31590(18) 0.6480(3)
C36 C 0.97745(18) 0.2887(2) 0.6033(2)
H14 H 0.9591 0.2735 0.5785
C37 C 0.88462(19) 0.4492(2) 0.8527(3)
C38 C 0.8769(2) 0.4925(2) 0.8468(3)
H15 H 0.8954 0.5081 0.8226
C39 C 0.8432(2) 0.5155(2) 0.8745(4)
C40 C 0.8202(2) 0.49086(19) 0.9143(3)
H16 H 0.7990 0.5051 0.9363
C41 C 0.8267(2) 0.4462(2) 0.9236(3)
C42 C 0.85950(19) 0.4254(2) 0.8908(3)
H17 H 0.8643 0.3956 0.8948
C43 C 0.88344(17) 0.30401(18) 0.6274(3)
C44 C 0.85778(16) 0.32574(16) 0.5895(3)
H18 H 0.8628 0.3555 0.5845
C45 C 0.82520(16) 0.30649(17) 0.5584(2)
C46 C 0.81712(19) 0.2611(2) 0.5645(3)
H19 H 0.7949 0.2473 0.5440
C47 C 0.8435(2) 0.2381(2) 0.6022(3)
C48 C 0.87609(19) 0.2600(2) 0.6340(3)
H20 H 0.8930 0.2443 0.6600
C49 C 0.8332(3) 0.5616(3) 0.8678(5)
C50 C 0.8012(2) 0.4200(2) 0.9661(3)
C51 C 0.79769(18) 0.3314(2) 0.5164(3)
C52 C 0.8329(3) 0.1900(3) 0.6096(5)
Y3 Y 0.757127(17) 0.120173(16) 0.55271(3)
Y5 Y 0.757127(17) 0.620173(16) 0.94729(3)
Y8 Y 0.742873(17) 0.379827(16) 0.44729(3)
Cu1_3 Cu 0.0000 0.12341(3) 0.23888(5)
N1_3 N -0.0000 0.0817(2) 0.3037(3)
N3_3 N 0.0000 0.1658(2) 0.1746(3)
O13_2 O 0.23155(13) 0.05939(13) 0.4881(2)
O14_2 O 0.18983(15) 0.11778(14) 0.4785(3)
O15_2 O 0.19536(15) 0.12760(13) 0.0098(2)
O18_2 O 0.1404(3) 0.3311(2) 0.1432(4)
N4_2 N 0.06615(13) 0.12300(14) 0.2379(2)
C27_2 C 0.0224(2) 0.0371(2) 0.3745(3)
H11_2 H 0.0406 0.0219 0.3994
C28_2 C 0.03646(19) 0.0639(3) 0.3305(3)
C29_2 C 0.08028(18) 0.0722(2) 0.3166(3)
C30_2 C 0.09383(19) 0.0997(2) 0.2754(3)
C31_2 C 0.1398(2) 0.1082(3) 0.2589(4)
H12_2 H 0.1650 0.0967 0.2760
C32_2 C 0.13926(19) 0.1355(2) 0.2149(3)
H13_2 H 0.1644 0.1466 0.1971
C33_2 C 0.09457(17) 0.1454(2) 0.1992(3)
C34_2 C 0.08059(16) 0.17533(19) 0.1605(2)
C35_2 C 0.03644(16) 0.18410(18) 0.1480(3)
C36_2 C 0.02255(18) 0.2113(2) 0.1033(2)
H14_2 H 0.0409 0.2265 0.0785
C37_2 C 0.11538(19) 0.0508(2) 0.3527(3)
C38_2 C 0.1231(2) 0.0075(2) 0.3468(3)
C40_2 C 0.1798(2) 0.00914(19) 0.4143(3)
C41_2 C 0.1733(2) 0.0538(2) 0.4236(3)
C42_2 C 0.14050(19) 0.0746(2) 0.3908(3)
H17_2 H 0.1357 0.1044 0.3948
C43_2 C 0.11656(17) 0.19599(18) 0.1274(3)
C44_2 C 0.14222(16) 0.17426(16) 0.0895(3)
H18_2 H 0.1372 0.1445 0.0845
C45_2 C 0.17480(16) 0.19351(17) 0.0584(2)
C46_2 C 0.18288(19) 0.2389(2) 0.0645(3)
H19_2 H 0.2051 0.2527 0.0440
C47_2 C 0.1565(2) 0.2619(2) 0.1022(3)
C48_2 C 0.12391(19) 0.2400(2) 0.1340(3)
H20_2 H 0.1070 0.2557 0.1600
C50_2 C 0.1988(2) 0.0800(2) 0.4661(3)
C51_2 C 0.20231(18) 0.1686(2) 0.0164(3)
C52_2 C 0.1671(3) 0.3100(3) 0.1096(5)
O16_2 O 0.23451(15) 0.18676(13) 0.9929(2)
Y8_2 Y 0.257127(17) 0.120173(16) 0.94729(3)
O11_2 O 0.1375(3) 0.9152(3) 0.3453(4)
O12_2 O 0.19861(18) 0.92220(15) 0.3944(3)
H15_2 H 0.1046 0.9919 0.3226
C39_2 C 0.1568(2) 0.9845(2) 0.3745(4)
H16_2 H 0.2010 0.9949 0.4363
C49_2 C 0.1668(3) 0.9384(3) 0.3678(5)
Y5_2 Y 0.242873(17) 0.879827(16) 0.44729(3)
Cu1_4 Cu 1.0000 0.12341(3) 0.23888(5)
O3_2 O 0.76845(13) 0.05939(13) 0.4881(2)
O4_2 O 0.81017(15) 0.11778(14) 0.4785(3)
O5_2 O 0.80464(15) 0.12760(13) 0.0098(2)
O7_2 O 0.80637(16) 0.32722(14) 0.0814(2)
O8_2 O 0.8596(3) 0.3311(2) 0.1432(4)
O9_2 O 0.7190(3) 0.1476(2) 0.6319(3)
O10_2 O 0.70675(16) 0.0620(2) 0.5834(2)
N1_4 N 1.0000 0.0817(2) 0.3037(3)
N2_2 N 0.93385(13) 0.12300(14) 0.2379(2)
N3_4 N 1.0000 0.1658(2) 0.1746(3)
C1_2 C 0.9776(2) 0.0371(2) 0.3745(3)
H1_2 H 0.9594 0.0219 0.3994
C2_2 C 0.96354(19) 0.0639(3) 0.3305(3)
C3_2 C 0.91972(18) 0.0722(2) 0.3166(3)
C4_2 C 0.90617(19) 0.0997(2) 0.2754(3)
C5_2 C 0.8602(2) 0.1082(3) 0.2589(4)
H2_2 H 0.8350 0.0967 0.2760
C6_2 C 0.86074(19) 0.1355(2) 0.2149(3)
H3_2 H 0.8356 0.1466 0.1971
C7_2 C 0.90543(17) 0.1454(2) 0.1992(3)
C8_2 C 0.91941(16) 0.17533(19) 0.1605(2)
C9_2 C 0.96356(16) 0.18410(18) 0.1480(3)
C10_2 C 0.97745(18) 0.2113(2) 0.1033(2)
H4_2 H 0.9591 0.2265 0.0785
C11_2 C 0.88462(19) 0.0508(2) 0.3527(3)
C12_2 C 0.8769(2) 0.0075(2) 0.3468(3)
C14_2 C 0.8202(2) 0.00914(19) 0.4143(3)
C15_2 C 0.8267(2) 0.0538(2) 0.4236(3)
C16_2 C 0.85950(19) 0.0746(2) 0.3908(3)
H7_2 H 0.8643 0.1044 0.3948
C17_2 C 0.88344(17) 0.19599(18) 0.1274(3)
C18_2 C 0.85778(16) 0.17426(16) 0.0895(3)
H8_2 H 0.8628 0.1445 0.0845
C19_2 C 0.82520(16) 0.19351(17) 0.0584(2)
C20_2 C 0.81712(19) 0.2389(2) 0.0645(3)
H9_2 H 0.7949 0.2527 0.0440
C21_2 C 0.8435(2) 0.2619(2) 0.1022(3)
C22_2 C 0.87609(19) 0.2400(2) 0.1340(3)
H10_2 H 0.8930 0.2557 0.1600
C24_2 C 0.8012(2) 0.0800(2) 0.4661(3)
C25_2 C 0.79769(18) 0.1686(2) 0.0164(3)
C26_2 C 0.8329(3) 0.3100(3) 0.1096(5)
O21_2 O 0.80139(18) 0.07780(15) 0.6056(3)
O25_2 O 0.69536(15) 0.12760(13) 0.4902(2)
O27_2 O 0.73451(15) 0.18676(13) 0.5071(2)
O6_2 O 0.76549(15) 0.18676(13) 0.9929(2)
Y4_2 Y 0.742873(17) 0.120173(16) 0.94729(3)
O1_2 O 0.8625(3) 0.9152(3) 0.3453(4)
O2_2 O 0.80139(18) 0.92220(15) 0.3944(3)
H5_2 H 0.8954 0.9919 0.3226
C13_2 C 0.8432(2) 0.9845(2) 0.3745(4)
H6_2 H 0.7990 0.9949 0.4363
C23_2 C 0.8332(3) 0.9384(3) 0.3678(5)
Y2_2 Y 0.757127(17) 0.879827(16) 0.44729(3)
O19_2 O 0.7190(3) 0.8524(2) 0.3681(3)
O20_2 O 0.70675(16) 0.9380(2) 0.4166(2)
O22_2 O 0.76845(13) 0.94061(13) 0.5119(2)
O23_2 O 0.81017(15) 0.88222(14) 0.5215(3)
O24_2 O 0.69536(15) 0.87240(13) 0.5098(2)
O26_2 O 0.73451(15) 0.81324(13) 0.4929(2)
O28_2 O 0.80637(16) 0.82722(14) 0.4186(2)
O11_3 O 0.1375(3) 0.0848(3) 0.6547(4)
O12_3 O 0.19861(18) 0.07780(15) 0.6056(3)
H15_3 H 0.1046 0.0081 0.6774
C39_3 C 0.1568(2) 0.0155(2) 0.6255(4)
H16_3 H 0.2010 0.0051 0.5637
C49_3 C 0.1668(3) 0.0616(3) 0.6322(5)
O16_3 O 0.23451(15) 0.81324(13) 0.0071(2)
Y8_3 Y 0.257127(17) 0.879827(16) 0.05271(3)
Cu1_5 Cu 0.0000 0.87659(3) 0.76112(5)
N1_5 N -0.0000 0.9183(2) 0.6963(3)
N3_5 N 0.0000 0.8342(2) 0.8254(3)
O13_3 O 0.23155(13) 0.94061(13) 0.5119(2)
O14_3 O 0.18983(15) 0.88222(14) 0.5215(3)
O15_3 O 0.19536(15) 0.87240(13) 0.9902(2)
O18_3 O 0.1404(3) 0.6689(2) 0.8568(4)
N4_3 N 0.06615(13) 0.87700(14) 0.7621(2)
C27_3 C 0.0224(2) 0.9629(2) 0.6255(3)
H11_3 H 0.0406 0.9781 0.6006
C28_3 C 0.03646(19) 0.9361(3) 0.6695(3)
C29_3 C 0.08028(18) 0.9278(2) 0.6834(3)
C30_3 C 0.09383(19) 0.9003(2) 0.7246(3)
C31_3 C 0.1398(2) 0.8918(3) 0.7411(4)
H12_3 H 0.1650 0.9033 0.7240
C32_3 C 0.13926(19) 0.8645(2) 0.7851(3)
H13_3 H 0.1644 0.8534 0.8029
C33_3 C 0.09457(17) 0.8546(2) 0.8008(3)
C34_3 C 0.08059(16) 0.82467(19) 0.8395(2)
C35_3 C 0.03644(16) 0.81590(18) 0.8520(3)
C36_3 C 0.02255(18) 0.7887(2) 0.8967(2)
H14_3 H 0.0409 0.7735 0.9215
C37_3 C 0.11538(19) 0.9492(2) 0.6473(3)
C38_3 C 0.1231(2) 0.9925(2) 0.6532(3)
C40_3 C 0.1798(2) 0.99086(19) 0.5857(3)
C41_3 C 0.1733(2) 0.9462(2) 0.5764(3)
C42_3 C 0.14050(19) 0.9254(2) 0.6092(3)
H17_3 H 0.1357 0.8956 0.6052
C43_3 C 0.11656(17) 0.80401(18) 0.8726(3)
C44_3 C 0.14222(16) 0.82574(16) 0.9105(3)
H18_3 H 0.1372 0.8555 0.9155
C45_3 C 0.17480(16) 0.80649(17) 0.9416(2)
C46_3 C 0.18288(19) 0.7611(2) 0.9355(3)
H19_3 H 0.2051 0.7473 0.9560
C47_3 C 0.1565(2) 0.7381(2) 0.8978(3)
C48_3 C 0.12391(19) 0.7600(2) 0.8660(3)
H20_3 H 0.1070 0.7443 0.8400
C50_3 C 0.1988(2) 0.9200(2) 0.5339(3)
C51_3 C 0.20231(18) 0.8314(2) 0.9836(3)
C52_3 C 0.1671(3) 0.6900(3) 0.8904(5)
O1_3 O 0.8625(3) 0.0848(3) 0.6547(4)
H5_3 H 0.8954 0.0081 0.6774
C13_3 C 0.8432(2) 0.0155(2) 0.6255(4)
H6_3 H 0.7990 0.0051 0.5637
C23_3 C 0.8332(3) 0.0616(3) 0.6322(5)
O6_3 O 0.76549(15) 0.81324(13) 0.0071(2)
Y4_3 Y 0.742873(17) 0.879827(16) 0.05271(3)
Cu1_6 Cu 1.0000 0.87659(3) 0.76112(5)
O5_3 O 0.80464(15) 0.87240(13) 0.9902(2)
O7_3 O 0.80637(16) 0.67278(14) 0.9186(2)
O8_3 O 0.8596(3) 0.6689(2) 0.8568(4)
N1_6 N 1.0000 0.9183(2) 0.6963(3)
N2_3 N 0.93385(13) 0.87700(14) 0.7621(2)
N3_6 N 1.0000 0.8342(2) 0.8254(3)
C1_3 C 0.9776(2) 0.9629(2) 0.6255(3)
H1_3 H 0.9594 0.9781 0.6006
C2_3 C 0.96354(19) 0.9361(3) 0.6695(3)
C3_3 C 0.91972(18) 0.9278(2) 0.6834(3)
C4_3 C 0.90617(19) 0.9003(2) 0.7246(3)
C5_3 C 0.8602(2) 0.8918(3) 0.7411(4)
H2_3 H 0.8350 0.9033 0.7240
C6_3 C 0.86074(19) 0.8645(2) 0.7851(3)
H3_3 H 0.8356 0.8534 0.8029
C7_3 C 0.90543(17) 0.8546(2) 0.8008(3)
C8_3 C 0.91941(16) 0.82467(19) 0.8395(2)
C9_3 C 0.96356(16) 0.81590(18) 0.8520(3)
C10_3 C 0.97745(18) 0.7887(2) 0.8967(2)
H4_3 H 0.9591 0.7735 0.9215
C11_3 C 0.88462(19) 0.9492(2) 0.6473(3)
C12_3 C 0.8769(2) 0.9925(2) 0.6532(3)
C14_3 C 0.8202(2) 0.99086(19) 0.5857(3)
C15_3 C 0.8267(2) 0.9462(2) 0.5764(3)
C16_3 C 0.85950(19) 0.9254(2) 0.6092(3)
H7_3 H 0.8643 0.8956 0.6052
C17_3 C 0.88344(17) 0.80401(18) 0.8726(3)
C18_3 C 0.85778(16) 0.82574(16) 0.9105(3)
H8_3 H 0.8628 0.8555 0.9155
C19_3 C 0.82520(16) 0.80649(17) 0.9416(2)
C20_3 C 0.81712(19) 0.7611(2) 0.9355(3)
H9_3 H 0.7949 0.7473 0.9560
C21_3 C 0.8435(2) 0.7381(2) 0.8978(3)
C22_3 C 0.87609(19) 0.7600(2) 0.8660(3)
H10_3 H 0.8930 0.7443 0.8400
C24_3 C 0.8012(2) 0.9200(2) 0.5339(3)
C25_3 C 0.79769(18) 0.8314(2) 0.9836(3)
C26_3 C 0.8329(3) 0.6900(3) 0.8904(5)
Cu1_7 Cu 0.0000 0.62341(3) 0.26112(5)
O1_4 O 0.1375(3) 0.4152(3) 0.1547(4)
O5_4 O 0.19536(15) 0.62760(13) 0.4902(2)
O6_4 O 0.23451(15) 0.68676(13) 0.5071(2)
O7_4 O 0.19363(16) 0.82722(14) 0.4186(2)
O8_4 O 0.1404(3) 0.8311(2) 0.3568(4)
N1_7 N 0.0000 0.5817(2) 0.1963(3)
N2_4 N 0.06615(13) 0.62300(14) 0.2621(2)
N3_7 N 0.0000 0.6658(2) 0.3254(3)
C1_4 C 0.0224(2) 0.5371(2) 0.1255(3)
H1_4 H 0.0406 0.5219 0.1006
C2_4 C 0.03646(19) 0.5639(3) 0.1695(3)
C3_4 C 0.08028(18) 0.5722(2) 0.1834(3)
C4_4 C 0.09383(19) 0.5997(2) 0.2246(3)
C5_4 C 0.1398(2) 0.6082(3) 0.2411(4)
H2_4 H 0.1650 0.5967 0.2240
C6_4 C 0.13926(19) 0.6355(2) 0.2851(3)
H3_4 H 0.1644 0.6466 0.3029
C7_4 C 0.09457(17) 0.6454(2) 0.3008(3)
C8_4 C 0.08059(16) 0.67533(19) 0.3395(2)
C9_4 C 0.03644(16) 0.68410(18) 0.3520(3)
C10_4 C 0.02255(18) 0.7113(2) 0.3967(2)
H4_4 H 0.0409 0.7265 0.4215
C11_4 C 0.11538(19) 0.5508(2) 0.1473(3)
C12_4 C 0.1231(2) 0.5075(2) 0.1532(3)
H5_4 H 0.1046 0.4919 0.1774
C13_4 C 0.1568(2) 0.4845(2) 0.1255(4)
C14_4 C 0.1798(2) 0.50914(19) 0.0857(3)
H6_4 H 0.2010 0.4949 0.0637
C15_4 C 0.1733(2) 0.5538(2) 0.0764(3)
C16_4 C 0.14050(19) 0.5746(2) 0.1092(3)
H7_4 H 0.1357 0.6044 0.1052
C17_4 C 0.11656(17) 0.69599(18) 0.3726(3)
C18_4 C 0.14222(16) 0.67426(16) 0.4105(3)
H8_4 H 0.1372 0.6445 0.4155
C19_4 C 0.17480(16) 0.69351(17) 0.4416(2)
C20_4 C 0.18288(19) 0.7389(2) 0.4355(3)
H9_4 H 0.2051 0.7527 0.4560
C21_4 C 0.1565(2) 0.7619(2) 0.3978(3)
C22_4 C 0.12391(19) 0.7400(2) 0.3660(3)
H10_4 H 0.1070 0.7557 0.3400
C23_4 C 0.1668(3) 0.4384(3) 0.1322(5)
C24_4 C 0.1988(2) 0.5800(2) 0.0339(3)
C25_4 C 0.20231(18) 0.6686(2) 0.4836(3)
C26_4 C 0.1671(3) 0.8100(3) 0.3904(5)
Y4_4 Y 0.257127(17) 0.620173(16) 0.55271(3)
Cu1_8 Cu 1.0000 0.62341(3) 0.26112(5)
N1_8 N 1.0000 0.5817(2) 0.1963(3)
N3_8 N 1.0000 0.6658(2) 0.3254(3)
O11_4 O 0.8625(3) 0.4152(3) 0.1547(4)
O12_4 O 0.80139(18) 0.42220(15) 0.1056(3)
O13_4 O 0.76845(13) 0.55939(13) 0.0119(2)
O14_4 O 0.81017(15) 0.61778(14) 0.0215(3)
O15_4 O 0.80464(15) 0.62760(13) 0.4902(2)
O16_4 O 0.76549(15) 0.68676(13) 0.5071(2)
O18_4 O 0.8596(3) 0.8311(2) 0.3568(4)
N4_4 N 0.93385(13) 0.62300(14) 0.2621(2)
C27_4 C 0.9776(2) 0.5371(2) 0.1255(3)
H11_4 H 0.9594 0.5219 0.1006
C28_4 C 0.96354(19) 0.5639(3) 0.1695(3)
C29_4 C 0.91972(18) 0.5722(2) 0.1834(3)
C30_4 C 0.90617(19) 0.5997(2) 0.2246(3)
C31_4 C 0.8602(2) 0.6082(3) 0.2411(4)
H12_4 H 0.8350 0.5967 0.2240
C32_4 C 0.86074(19) 0.6355(2) 0.2851(3)
H13_4 H 0.8356 0.6466 0.3029
C33_4 C 0.90543(17) 0.6454(2) 0.3008(3)
C34_4 C 0.91941(16) 0.67533(19) 0.3395(2)
C35_4 C 0.96356(16) 0.68410(18) 0.3520(3)
C36_4 C 0.97745(18) 0.7113(2) 0.3967(2)
H14_4 H 0.9591 0.7265 0.4215
C37_4 C 0.88462(19) 0.5508(2) 0.1473(3)
C38_4 C 0.8769(2) 0.5075(2) 0.1532(3)
H15_4 H 0.8954 0.4919 0.1774
C39_4 C 0.8432(2) 0.4845(2) 0.1255(4)
C40_4 C 0.8202(2) 0.50914(19) 0.0857(3)
H16_4 H 0.7990 0.4949 0.0637
C41_4 C 0.8267(2) 0.5538(2) 0.0764(3)
C42_4 C 0.85950(19) 0.5746(2) 0.1092(3)
H17_4 H 0.8643 0.6044 0.1052
C43_4 C 0.88344(17) 0.69599(18) 0.3726(3)
C44_4 C 0.85778(16) 0.67426(16) 0.4105(3)
H18_4 H 0.8628 0.6445 0.4155
C45_4 C 0.82520(16) 0.69351(17) 0.4416(2)
C46_4 C 0.81712(19) 0.7389(2) 0.4355(3)
H19_4 H 0.7949 0.7527 0.4560
C47_4 C 0.8435(2) 0.7619(2) 0.3978(3)
C48_4 C 0.87609(19) 0.7400(2) 0.3660(3)
H20_4 H 0.8930 0.7557 0.3400
C49_4 C 0.8332(3) 0.4384(3) 0.1322(5)
C50_4 C 0.8012(2) 0.5800(2) 0.0339(3)
C51_4 C 0.79769(18) 0.6686(2) 0.4836(3)
C52_4 C 0.8329(3) 0.8100(3) 0.3904(5)
Y8_4 Y 0.742873(17) 0.620173(16) 0.55271(3)
O22_3 O 0.73155(13) 0.05939(13) 0.0119(2)
O23_3 O 0.68983(15) 0.11778(14) 0.0215(3)
O1_5 O 0.6375(3) 0.0848(3) 0.8453(4)
O2_3 O 0.69861(18) 0.07780(15) 0.8944(3)
H5_5 H 0.6046 0.0081 0.8226
C13_5 C 0.6568(2) 0.0155(2) 0.8745(4)
H6_5 H 0.7010 0.0051 0.9363
C23_5 C 0.6668(3) 0.0616(3) 0.8678(5)
O11_5 O 0.3625(3) 0.0848(3) 0.8453(4)
O12_5 O 0.30139(18) 0.07780(15) 0.8944(3)
H15_5 H 0.3954 0.0081 0.8226
C39_5 C 0.3432(2) 0.0155(2) 0.8745(4)
H16_5 H 0.2990 0.0051 0.9363
C49_5 C 0.3332(3) 0.0616(3) 0.8678(5)
O19_3 O 0.7810(3) 0.1476(2) 0.8681(3)
O20_3 O 0.79325(16) 0.0620(2) 0.9166(2)
O28_3 O 0.69363(16) 0.17278(14) 0.9186(2)
O9_3 O 0.7810(3) 0.8524(2) 0.1319(3)
O10_3 O 0.79325(16) 0.9380(2) 0.0834(2)
O21_3 O 0.69861(18) 0.92220(15) 0.1056(3)
O29_2 O 0.69363(16) 0.82722(14) 0.0814(2)
Cu1_9 Cu 0.5000 0.87659(3) 0.73888(5)
O3_3 O 0.73155(13) 0.94061(13) 0.9881(2)
O4_3 O 0.68983(15) 0.88222(14) 0.9785(3)
O7_5 O 0.69363(16) 0.67278(14) 0.5814(2)
O8_5 O 0.6404(3) 0.6689(2) 0.6432(4)
N1_9 N 0.5000 0.9183(2) 0.8037(3)
N2_5 N 0.56615(13) 0.87700(14) 0.7379(2)
N3_9 N 0.5000 0.8342(2) 0.6746(3)
C1_5 C 0.5224(2) 0.9629(2) 0.8745(3)
H1_5 H 0.5406 0.9781 0.8994
C2_5 C 0.53646(19) 0.9361(3) 0.8305(3)
C3_5 C 0.58028(18) 0.9278(2) 0.8166(3)
C4_5 C 0.59383(19) 0.9003(2) 0.7754(3)
C5_5 C 0.6398(2) 0.8918(3) 0.7589(4)
H2_5 H 0.6650 0.9033 0.7760
C6_5 C 0.63926(19) 0.8645(2) 0.7149(3)
H3_5 H 0.6644 0.8534 0.6971
C7_5 C 0.59457(17) 0.8546(2) 0.6992(3)
C8_5 C 0.58059(16) 0.82467(19) 0.6605(2)
C9_5 C 0.53644(16) 0.81590(18) 0.6480(3)
C10_5 C 0.52255(18) 0.7887(2) 0.6033(2)
H4_5 H 0.5409 0.7735 0.5785
C11_5 C 0.61538(19) 0.9492(2) 0.8527(3)
C12_5 C 0.6231(2) 0.9925(2) 0.8468(3)
C14_5 C 0.6798(2) 0.99086(19) 0.9143(3)
C15_5 C 0.6733(2) 0.9462(2) 0.9236(3)
C16_5 C 0.64050(19) 0.9254(2) 0.8908(3)
H7_5 H 0.6357 0.8956 0.8948
C17_5 C 0.61656(17) 0.80401(18) 0.6274(3)
C18_5 C 0.64222(16) 0.82574(16) 0.5895(3)
H8_5 H 0.6372 0.8555 0.5845
C19_5 C 0.67480(16) 0.80649(17) 0.5584(2)
C20_5 C 0.68288(19) 0.7611(2) 0.5645(3)
H9_5 H 0.7051 0.7473 0.5440
C21_5 C 0.6565(2) 0.7381(2) 0.6022(3)
C22_5 C 0.62391(19) 0.7600(2) 0.6340(3)
H10_5 H 0.6070 0.7443 0.6600
C24_5 C 0.6988(2) 0.9200(2) 0.9661(3)
C25_5 C 0.70231(18) 0.8314(2) 0.5164(3)
C26_5 C 0.6671(3) 0.6900(3) 0.6096(5)
O13_5 O 0.26845(13) 0.94061(13) 0.9881(2)
O14_5 O 0.31017(15) 0.88222(14) 0.9785(3)
O15_5 O 0.30464(15) 0.87240(13) 0.5098(2)
O16_5 O 0.26549(15) 0.81324(13) 0.4929(2)
O17_2 O 0.30637(16) 0.67278(14) 0.5814(2)
O18_5 O 0.3596(3) 0.6689(2) 0.6432(4)
N4_5 N 0.43385(13) 0.87700(14) 0.7379(2)
C27_5 C 0.4776(2) 0.9629(2) 0.8745(3)
H11_5 H 0.4594 0.9781 0.8994
C28_5 C 0.46354(19) 0.9361(3) 0.8305(3)
C29_5 C 0.41972(18) 0.9278(2) 0.8166(3)
C30_5 C 0.40617(19) 0.9003(2) 0.7754(3)
C31_5 C 0.3602(2) 0.8918(3) 0.7589(4)
H12_5 H 0.3350 0.9033 0.7760
C32_5 C 0.36074(19) 0.8645(2) 0.7149(3)
H13_5 H 0.3356 0.8534 0.6971
C33_5 C 0.40543(17) 0.8546(2) 0.6992(3)
C34_5 C 0.41941(16) 0.82467(19) 0.6605(2)
C35_5 C 0.46356(16) 0.81590(18) 0.6480(3)
C36_5 C 0.47745(18) 0.7887(2) 0.6033(2)
H14_5 H 0.4591 0.7735 0.5785
C37_5 C 0.38462(19) 0.9492(2) 0.8527(3)
C38_5 C 0.3769(2) 0.9925(2) 0.8468(3)
C40_5 C 0.3202(2) 0.99086(19) 0.9143(3)
C41_5 C 0.3267(2) 0.9462(2) 0.9236(3)
C42_5 C 0.35950(19) 0.9254(2) 0.8908(3)
H17_5 H 0.3643 0.8956 0.8948
C43_5 C 0.38344(17) 0.80401(18) 0.6274(3)
C44_5 C 0.35778(16) 0.82574(16) 0.5895(3)
H18_5 H 0.3628 0.8555 0.5845
C45_5 C 0.32520(16) 0.80649(17) 0.5584(2)
C46_5 C 0.31712(19) 0.7611(2) 0.5645(3)
H19_5 H 0.2949 0.7473 0.5440
C47_5 C 0.3435(2) 0.7381(2) 0.6022(3)
C48_5 C 0.37609(19) 0.7600(2) 0.6340(3)
H20_5 H 0.3930 0.7443 0.6600
C50_5 C 0.3012(2) 0.9200(2) 0.9661(3)
C51_5 C 0.29769(18) 0.8314(2) 0.5164(3)
C52_5 C 0.3329(3) 0.6900(3) 0.6096(5)
Cu1_10 Cu 0.5000 0.62341(3) 0.23888(5)
O1_6 O 0.3625(3) 0.4152(3) 0.3453(4)
O2_4 O 0.30139(18) 0.42220(15) 0.3944(3)
O3_4 O 0.26845(13) 0.55939(13) 0.4881(2)
O4_4 O 0.31017(15) 0.61778(14) 0.4785(3)
O7_6 O 0.30637(16) 0.82722(14) 0.0814(2)
O8_6 O 0.3596(3) 0.8311(2) 0.1432(4)
O9_4 O 0.2190(3) 0.6476(2) 0.6319(3)
O10_4 O 0.20675(16) 0.5620(2) 0.5834(2)
N1_10 N 0.5000 0.5817(2) 0.3037(3)
N2_6 N 0.43385(13) 0.62300(14) 0.2379(2)
N3_10 N 0.5000 0.6658(2) 0.1746(3)
C1_6 C 0.4776(2) 0.5371(2) 0.3745(3)
H1_6 H 0.4594 0.5219 0.3994
C2_6 C 0.46354(19) 0.5639(3) 0.3305(3)
C3_6 C 0.41972(18) 0.5722(2) 0.3166(3)
C4_6 C 0.40617(19) 0.5997(2) 0.2754(3)
C5_6 C 0.3602(2) 0.6082(3) 0.2589(4)
H2_6 H 0.3350 0.5967 0.2760
C6_6 C 0.36074(19) 0.6355(2) 0.2149(3)
H3_6 H 0.3356 0.6466 0.1971
C7_6 C 0.40543(17) 0.6454(2) 0.1992(3)
C8_6 C 0.41941(16) 0.67533(19) 0.1605(2)
C9_6 C 0.46356(16) 0.68410(18) 0.1480(3)
C10_6 C 0.47745(18) 0.7113(2) 0.1033(2)
H4_6 H 0.4591 0.7265 0.0785
C11_6 C 0.38462(19) 0.5508(2) 0.3527(3)
C12_6 C 0.3769(2) 0.5075(2) 0.3468(3)
H5_6 H 0.3954 0.4919 0.3226
C13_6 C 0.3432(2) 0.4845(2) 0.3745(4)
C14_6 C 0.3202(2) 0.50914(19) 0.4143(3)
H6_6 H 0.2990 0.4949 0.4363
C15_6 C 0.3267(2) 0.5538(2) 0.4236(3)
C16_6 C 0.35950(19) 0.5746(2) 0.3908(3)
H7_6 H 0.3643 0.6044 0.3948
C17_6 C 0.38344(17) 0.69599(18) 0.1274(3)
C18_6 C 0.35778(16) 0.67426(16) 0.0895(3)
H8_6 H 0.3628 0.6445 0.0845
C19_6 C 0.32520(16) 0.69351(17) 0.0584(2)
C20_6 C 0.31712(19) 0.7389(2) 0.0645(3)
H9_6 H 0.2949 0.7527 0.0440
C21_6 C 0.3435(2) 0.7619(2) 0.1022(3)
C22_6 C 0.37609(19) 0.7400(2) 0.1340(3)
H10_6 H 0.3930 0.7557 0.1600
C23_6 C 0.3332(3) 0.4384(3) 0.3678(5)
C24_6 C 0.3012(2) 0.5800(2) 0.4661(3)
C25_6 C 0.29769(18) 0.6686(2) 0.0164(3)
C26_6 C 0.3329(3) 0.8100(3) 0.1096(5)
O11_6 O 0.6375(3) 0.4152(3) 0.3453(4)
O12_6 O 0.69861(18) 0.42220(15) 0.3944(3)
O13_6 O 0.73155(13) 0.55939(13) 0.4881(2)
O14_6 O 0.68983(15) 0.61778(14) 0.4785(3)
O15_6 O 0.69536(15) 0.62760(13) 0.0098(2)
O18_6 O 0.6404(3) 0.8311(2) 0.1432(4)
N4_6 N 0.56615(13) 0.62300(14) 0.2379(2)
C27_6 C 0.5224(2) 0.5371(2) 0.3745(3)
H11_6 H 0.5406 0.5219 0.3994
C28_6 C 0.53646(19) 0.5639(3) 0.3305(3)
C29_6 C 0.58028(18) 0.5722(2) 0.3166(3)
C30_6 C 0.59383(19) 0.5997(2) 0.2754(3)
C31_6 C 0.6398(2) 0.6082(3) 0.2589(4)
H12_6 H 0.6650 0.5967 0.2760
C32_6 C 0.63926(19) 0.6355(2) 0.2149(3)
H13_6 H 0.6644 0.6466 0.1971
C33_6 C 0.59457(17) 0.6454(2) 0.1992(3)
C34_6 C 0.58059(16) 0.67533(19) 0.1605(2)
C35_6 C 0.53644(16) 0.68410(18) 0.1480(3)
C36_6 C 0.52255(18) 0.7113(2) 0.1033(2)
H14_6 H 0.5409 0.7265 0.0785
C37_6 C 0.61538(19) 0.5508(2) 0.3527(3)
C38_6 C 0.6231(2) 0.5075(2) 0.3468(3)
H15_6 H 0.6046 0.4919 0.3226
C39_6 C 0.6568(2) 0.4845(2) 0.3745(4)
C40_6 C 0.6798(2) 0.50914(19) 0.4143(3)
H16_6 H 0.7010 0.4949 0.4363
C41_6 C 0.6733(2) 0.5538(2) 0.4236(3)
C42_6 C 0.64050(19) 0.5746(2) 0.3908(3)
H17_6 H 0.6357 0.6044 0.3948
C43_6 C 0.61656(17) 0.69599(18) 0.1274(3)
C44_6 C 0.64222(16) 0.67426(16) 0.0895(3)
H18_6 H 0.6372 0.6445 0.0845
C45_6 C 0.67480(16) 0.69351(17) 0.0584(2)
C46_6 C 0.68288(19) 0.7389(2) 0.0645(3)
H19_6 H 0.7051 0.7527 0.0440
C47_6 C 0.6565(2) 0.7619(2) 0.1022(3)
C48_6 C 0.62391(19) 0.7400(2) 0.1340(3)
H20_6 H 0.6070 0.7557 0.1600
C49_6 C 0.6668(3) 0.4384(3) 0.3678(5)
C50_6 C 0.6988(2) 0.5800(2) 0.4661(3)
C51_6 C 0.70231(18) 0.6686(2) 0.0164(3)
C52_6 C 0.6671(3) 0.8100(3) 0.1096(5)
O19_4 O 0.2190(3) 0.3524(2) 0.3681(3)
O20_4 O 0.20675(16) 0.4380(2) 0.4166(2)
O21_4 O 0.30139(18) 0.57780(15) 0.6056(3)
O22_4 O 0.26845(13) 0.44061(13) 0.5119(2)
O23_4 O 0.31017(15) 0.38222(14) 0.5215(3)
O28_4 O 0.30637(16) 0.32722(14) 0.4186(2)
O16_6 O 0.73451(15) 0.68676(13) 0.9929(2)
O16_7 O 0.73451(15) 0.31324(13) 0.0071(2)
Cu1_11 Cu 0.5000 0.37659(3) 0.76112(5)
O1_7 O 0.3625(3) 0.5848(3) 0.6547(4)
O7_7 O 0.30637(16) 0.17278(14) 0.9186(2)
O8_7 O 0.3596(3) 0.1689(2) 0.8568(4)
N1_11 N 0.5000 0.4183(2) 0.6963(3)
N2_7 N 0.43385(13) 0.37700(14) 0.7621(2)
N3_11 N 0.5000 0.3342(2) 0.8254(3)
C1_7 C 0.4776(2) 0.4629(2) 0.6255(3)
H1_7 H 0.4594 0.4781 0.6006
C2_7 C 0.46354(19) 0.4361(3) 0.6695(3)
C3_7 C 0.41972(18) 0.4278(2) 0.6834(3)
C4_7 C 0.40617(19) 0.4003(2) 0.7246(3)
C5_7 C 0.3602(2) 0.3918(3) 0.7411(4)
H2_7 H 0.3350 0.4033 0.7240
C6_7 C 0.36074(19) 0.3645(2) 0.7851(3)
H3_7 H 0.3356 0.3534 0.8029
C7_7 C 0.40543(17) 0.3546(2) 0.8008(3)
C8_7 C 0.41941(16) 0.32467(19) 0.8395(2)
C9_7 C 0.46356(16) 0.31590(18) 0.8520(3)
C10_7 C 0.47745(18) 0.2887(2) 0.8967(2)
H4_7 H 0.4591 0.2735 0.9215
C11_7 C 0.38462(19) 0.4492(2) 0.6473(3)
C12_7 C 0.3769(2) 0.4925(2) 0.6532(3)
H5_7 H 0.3954 0.5081 0.6774
C13_7 C 0.3432(2) 0.5155(2) 0.6255(4)
C14_7 C 0.3202(2) 0.49086(19) 0.5857(3)
H6_7 H 0.2990 0.5051 0.5637
C15_7 C 0.3267(2) 0.4462(2) 0.5764(3)
C16_7 C 0.35950(19) 0.4254(2) 0.6092(3)
H7_7 H 0.3643 0.3956 0.6052
C17_7 C 0.38344(17) 0.30401(18) 0.8726(3)
C18_7 C 0.35778(16) 0.32574(16) 0.9105(3)
H8_7 H 0.3628 0.3555 0.9155
C19_7 C 0.32520(16) 0.30649(17) 0.9416(2)
C20_7 C 0.31712(19) 0.2611(2) 0.9355(3)
H9_7 H 0.2949 0.2473 0.9560
C21_7 C 0.3435(2) 0.2381(2) 0.8978(3)
C22_7 C 0.37609(19) 0.2600(2) 0.8660(3)
H10_7 H 0.3930 0.2443 0.8400
C23_7 C 0.3332(3) 0.5616(3) 0.6322(5)
C24_7 C 0.3012(2) 0.4200(2) 0.5339(3)
C25_7 C 0.29769(18) 0.3314(2) 0.9836(3)
C26_7 C 0.3329(3) 0.1900(3) 0.8904(5)
O11_7 O 0.6375(3) 0.5848(3) 0.6547(4)
O12_7 O 0.69861(18) 0.57780(15) 0.6056(3)
O13_7 O 0.73155(13) 0.44061(13) 0.5119(2)
O14_7 O 0.68983(15) 0.38222(14) 0.5215(3)
O15_7 O 0.69536(15) 0.37240(13) 0.9902(2)
O18_7 O 0.6404(3) 0.1689(2) 0.8568(4)
N4_7 N 0.56615(13) 0.37700(14) 0.7621(2)
C27_7 C 0.5224(2) 0.4629(2) 0.6255(3)
H11_7 H 0.5406 0.4781 0.6006
C28_7 C 0.53646(19) 0.4361(3) 0.6695(3)
C29_7 C 0.58028(18) 0.4278(2) 0.6834(3)
C30_7 C 0.59383(19) 0.4003(2) 0.7246(3)
C31_7 C 0.6398(2) 0.3918(3) 0.7411(4)
H12_7 H 0.6650 0.4033 0.7240
C32_7 C 0.63926(19) 0.3645(2) 0.7851(3)
H13_7 H 0.6644 0.3534 0.8029
C33_7 C 0.59457(17) 0.3546(2) 0.8008(3)
C34_7 C 0.58059(16) 0.32467(19) 0.8395(2)
C35_7 C 0.53644(16) 0.31590(18) 0.8520(3)
C36_7 C 0.52255(18) 0.2887(2) 0.8967(2)
H14_7 H 0.5409 0.2735 0.9215
C37_7 C 0.61538(19) 0.4492(2) 0.6473(3)
C38_7 C 0.6231(2) 0.4925(2) 0.6532(3)
H15_7 H 0.6046 0.5081 0.6774
C39_7 C 0.6568(2) 0.5155(2) 0.6255(4)
C40_7 C 0.6798(2) 0.49086(19) 0.5857(3)
H16_7 H 0.7010 0.5051 0.5637
C41_7 C 0.6733(2) 0.4462(2) 0.5764(3)
C42_7 C 0.64050(19) 0.4254(2) 0.6092(3)
H17_7 H 0.6357 0.3956 0.6052
C43_7 C 0.61656(17) 0.30401(18) 0.8726(3)
C44_7 C 0.64222(16) 0.32574(16) 0.9105(3)
H18_7 H 0.6372 0.3555 0.9155
C45_7 C 0.67480(16) 0.30649(17) 0.9416(2)
C46_7 C 0.68288(19) 0.2611(2) 0.9355(3)
H19_7 H 0.7051 0.2473 0.9560
C47_7 C 0.6565(2) 0.2381(2) 0.8978(3)
C48_7 C 0.62391(19) 0.2600(2) 0.8660(3)
H20_7 H 0.6070 0.2443 0.8400
C49_7 C 0.6668(3) 0.5616(3) 0.6322(5)
C50_7 C 0.6988(2) 0.4200(2) 0.5339(3)
C51_7 C 0.70231(18) 0.3314(2) 0.9836(3)
C52_7 C 0.6671(3) 0.1900(3) 0.8904(5)
Cu1_12 Cu 0.5000 0.12341(3) 0.26112(5)
O7_8 O 0.69363(16) 0.32722(14) 0.4186(2)
O8_8 O 0.6404(3) 0.3311(2) 0.3568(4)
N1_12 N 0.5000 0.0817(2) 0.1963(3)
N2_8 N 0.56615(13) 0.12300(14) 0.2621(2)
N3_12 N 0.5000 0.1658(2) 0.3254(3)
C1_8 C 0.5224(2) 0.0371(2) 0.1255(3)
H1_8 H 0.5406 0.0219 0.1006
C2_8 C 0.53646(19) 0.0639(3) 0.1695(3)
C3_8 C 0.58028(18) 0.0722(2) 0.1834(3)
C4_8 C 0.59383(19) 0.0997(2) 0.2246(3)
C5_8 C 0.6398(2) 0.1082(3) 0.2411(4)
H2_8 H 0.6650 0.0967 0.2240
C6_8 C 0.63926(19) 0.1355(2) 0.2851(3)
H3_8 H 0.6644 0.1466 0.3029
C7_8 C 0.59457(17) 0.1454(2) 0.3008(3)
C8_8 C 0.58059(16) 0.17533(19) 0.3395(2)
C9_8 C 0.53644(16) 0.18410(18) 0.3520(3)
C10_8 C 0.52255(18) 0.2113(2) 0.3967(2)
H4_8 H 0.5409 0.2265 0.4215
C11_8 C 0.61538(19) 0.0508(2) 0.1473(3)
C12_8 C 0.6231(2) 0.0075(2) 0.1532(3)
C14_8 C 0.6798(2) 0.00914(19) 0.0857(3)
C15_8 C 0.6733(2) 0.0538(2) 0.0764(3)
C16_8 C 0.64050(19) 0.0746(2) 0.1092(3)
H7_8 H 0.6357 0.1044 0.1052
C17_8 C 0.61656(17) 0.19599(18) 0.3726(3)
C18_8 C 0.64222(16) 0.17426(16) 0.4105(3)
H8_8 H 0.6372 0.1445 0.4155
C19_8 C 0.67480(16) 0.19351(17) 0.4416(2)
C20_8 C 0.68288(19) 0.2389(2) 0.4355(3)
H9_8 H 0.7051 0.2527 0.4560
C21_8 C 0.6565(2) 0.2619(2) 0.3978(3)
C22_8 C 0.62391(19) 0.2400(2) 0.3660(3)
H10_8 H 0.6070 0.2557 0.3400
C24_8 C 0.6988(2) 0.0800(2) 0.0339(3)
C25_8 C 0.70231(18) 0.1686(2) 0.4836(3)
C26_8 C 0.6671(3) 0.3100(3) 0.3904(5)
O13_8 O 0.26845(13) 0.05939(13) 0.0119(2)
O14_8 O 0.31017(15) 0.11778(14) 0.0215(3)
O15_8 O 0.30464(15) 0.12760(13) 0.4902(2)
O16_8 O 0.26549(15) 0.18676(13) 0.5071(2)
O18_8 O 0.3596(3) 0.3311(2) 0.3568(4)
N4_8 N 0.43385(13) 0.12300(14) 0.2621(2)
C27_8 C 0.4776(2) 0.0371(2) 0.1255(3)
H11_8 H 0.4594 0.0219 0.1006
C28_8 C 0.46354(19) 0.0639(3) 0.1695(3)
C29_8 C 0.41972(18) 0.0722(2) 0.1834(3)
C30_8 C 0.40617(19) 0.0997(2) 0.2246(3)
C31_8 C 0.3602(2) 0.1082(3) 0.2411(4)
H12_8 H 0.3350 0.0967 0.2240
C32_8 C 0.36074(19) 0.1355(2) 0.2851(3)
H13_8 H 0.3356 0.1466 0.3029
C33_8 C 0.40543(17) 0.1454(2) 0.3008(3)
C34_8 C 0.41941(16) 0.17533(19) 0.3395(2)
C35_8 C 0.46356(16) 0.18410(18) 0.3520(3)
C36_8 C 0.47745(18) 0.2113(2) 0.3967(2)
H14_8 H 0.4591 0.2265 0.4215
C37_8 C 0.38462(19) 0.0508(2) 0.1473(3)
C38_8 C 0.3769(2) 0.0075(2) 0.1532(3)
C40_8 C 0.3202(2) 0.00914(19) 0.0857(3)
C41_8 C 0.3267(2) 0.0538(2) 0.0764(3)
C42_8 C 0.35950(19) 0.0746(2) 0.1092(3)
H17_8 H 0.3643 0.1044 0.1052
C43_8 C 0.38344(17) 0.19599(18) 0.3726(3)
C44_8 C 0.35778(16) 0.17426(16) 0.4105(3)
H18_8 H 0.3628 0.1445 0.4155
C45_8 C 0.32520(16) 0.19351(17) 0.4416(2)
C46_8 C 0.31712(19) 0.2389(2) 0.4355(3)
H19_8 H 0.2949 0.2527 0.4560
C47_8 C 0.3435(2) 0.2619(2) 0.3978(3)
C48_8 C 0.37609(19) 0.2400(2) 0.3660(3)
H20_8 H 0.3930 0.2557 0.3400
C50_8 C 0.3012(2) 0.0800(2) 0.0339(3)
C51_8 C 0.29769(18) 0.1686(2) 0.4836(3)
C52_8 C 0.3329(3) 0.3100(3) 0.3904(5)
O1_8 O 0.6375(3) 0.9152(3) 0.1547(4)
H5_8 H 0.6046 0.9919 0.1774
C13_8 C 0.6568(2) 0.9845(2) 0.1255(4)
H6_8 H 0.7010 0.9949 0.0637
C23_8 C 0.6668(3) 0.9384(3) 0.1322(5)
O11_8 O 0.3625(3) 0.9152(3) 0.1547(4)
O12_8 O 0.30139(18) 0.92220(15) 0.1056(3)
H15_8 H 0.3954 0.9919 0.1774
C39_8 C 0.3432(2) 0.9845(2) 0.1255(4)
H16_8 H 0.2990 0.9949 0.0637
C49_8 C 0.3332(3) 0.9384(3) 0.1322(5)
O19_5 O 0.7190(3) 0.3524(2) 0.1319(3)
O20_5 O 0.70675(16) 0.4380(2) 0.0834(2)
O9_5 O 0.7190(3) 0.6476(2) 0.8681(3)
O10_5 O 0.70675(16) 0.5620(2) 0.9166(2)
O19_6 O 0.2810(3) 0.1476(2) 0.6319(3)
O20_6 O 0.29325(16) 0.0620(2) 0.5834(2)
O9_6 O 0.2810(3) 0.8524(2) 0.3681(3)
O10_6 O 0.29325(16) 0.9380(2) 0.4166(2)
O9_7 O 0.2190(3) 0.1476(2) 0.8681(3)
O10_7 O 0.20675(16) 0.0620(2) 0.9166(2)
O19_7 O 0.2190(3) 0.8524(2) 0.1319(3)
O20_7 O 0.20675(16) 0.9380(2) 0.0834(2)
O9_8 O 0.7810(3) 0.3524(2) 0.3681(3)
O10_8 O 0.79325(16) 0.4380(2) 0.4166(2)
O19_8 O 0.7810(3) 0.6476(2) 0.6319(3)
O20_8 O 0.79325(16) 0.5620(2) 0.5834(2)
loop_
_geom_bond_atom_site_label_1
_geom_bond_atom_site_label_2
_geom_bond_site_symmetry_1
_geom_bond_site_symmetry_2
O9 Y1 1_555 1_555
O10 Y1 1_555 1_555
O21 Y1 1_555 1_555
O27 Y1 1_555 1_555
O29 Y1 1_555 1_555
Cu1 N1 1_555 1_555
O1 C23 1_555 1_555
O2 C23 1_555 1_555
O3 C24 1_555 1_555
O5 C25 1_555 1_555
O6 C25 1_555 1_555
O7 C26 1_555 1_555
O8 C26 1_555 1_555
N1 C2 1_555 1_555
N2 Cu1 1_555 1_555
N3 Cu1 1_555 1_555
C1 H1 1_555 1_555
C2 C1 1_555 1_555
C3 C2 1_555 1_555
C4 N2 1_555 1_555
C5 C4 1_555 1_555
H2 C5 1_555 1_555
C6 C5 1_555 1_555
H3 C6 1_555 1_555
C7 N2 1_555 1_555
C8 C7 1_555 1_555
C9 N3 1_555 1_555
C10 C9 1_555 1_555
H4 C10 1_555 1_555
C11 C3 1_555 1_555
C12 C11 1_555 1_555
H5 C12 1_555 1_555
C13 C12 1_555 1_555
C14 C13 1_555 1_555
H6 C14 1_555 1_555
C15 C14 1_555 1_555
C16 C11 1_555 1_555
H7 C16 1_555 1_555
C17 C8 1_555 1_555
C18 C17 1_555 1_555
H8 C18 1_555 1_555
C19 C18 1_555 1_555
C20 C19 1_555 1_555
H9 C20 1_555 1_555
C21 C20 1_555 1_555
C22 C17 1_555 1_555
H10 C22 1_555 1_555
C23 C13 1_555 1_555
C24 O4 1_555 1_555
C25 C19 1_555 1_555
C26 C21 1_555 1_555
Y2 O2 1_555 1_555
O19 Y2 1_555 1_555
O20 Y2 1_555 1_555
Y4 O5 1_555 1_555
Y6 O7 1_555 1_555
O26 Y2 1_555 1_555
O28 Y2 1_555 1_555
O6 Y4 1_555 1_555
C3 C4 1_555 1_555
C6 C7 1_555 1_555
C8 C9 1_555 1_555
C15 C16 1_555 1_555
C15 C24 1_555 1_555
C21 C22 1_555 1_555
Cu1_2 N1_2 1_555 1_555
N3_2 Cu1_2 1_555 1_555
O11 C49 1_555 1_555
O12 C49 1_555 1_555
O13 C50 1_555 1_555
O14 C50 1_555 1_555
O15 C51 1_555 1_555
O16 C51 1_555 1_555
O17 C52 1_555 1_555
O18 C52 1_555 1_555
N4 Cu1_2 1_555 1_555
H11 C27 1_555 1_555
C28 N1_2 1_555 1_555
C29 C28 1_555 1_555
C30 N4 1_555 1_555
C31 C30 1_555 1_555
H12 C31 1_555 1_555
C32 C31 1_555 1_555
H13 C32 1_555 1_555
C33 N4 1_555 1_555
C34 C33 1_555 1_555
C35 N3_2 1_555 1_555
H14 C36 1_555 1_555
C37 C29 1_555 1_555
C38 C37 1_555 1_555
H15 C38 1_555 1_555
C39 C38 1_555 1_555
C40 C39 1_555 1_555
H16 C40 1_555 1_555
C41 C40 1_555 1_555
C42 C37 1_555 1_555
H17 C42 1_555 1_555
C43 C34 1_555 1_555
C44 C43 1_555 1_555
H18 C44 1_555 1_555
C45 C44 1_555 1_555
C46 C45 1_555 1_555
H19 C46 1_555 1_555
C47 C46 1_555 1_555
C48 C43 1_555 1_555
H20 C48 1_555 1_555
C49 C39 1_555 1_555
C50 C41 1_555 1_555
C51 C45 1_555 1_555
C52 C47 1_555 1_555
Y3 O17 1_555 1_555
Y5 O12 1_555 1_555
Y8 O15 1_555 1_555
O16 Y8 1_555 1_555
C27 C28 1_555 1_555
C29 C30 1_555 1_555
C32 C33 1_555 1_555
C34 C35 1_555 1_555
C35 C36 1_555 1_555
C41 C42 1_555 1_555
C47 C48 1_555 1_555
Cu1_3 N1_3 1_555 1_555
N3_3 Cu1_3 1_555 1_555
O13_2 C50_2 1_555 1_555
O14_2 C50_2 1_555 1_555
O15_2 C51_2 1_555 1_555
O29 C52_2 1_555 1_555
O18_2 C52_2 1_555 1_555
N4_2 Cu1_3 1_555 1_555
H11_2 C27_2 1_555 1_555
C28_2 N1_3 1_555 1_555
C29_2 C28_2 1_555 1_555
C30_2 N4_2 1_555 1_555
C31_2 C30_2 1_555 1_555
H12_2 C31_2 1_555 1_555
C32_2 C31_2 1_555 1_555
H13_2 C32_2 1_555 1_555
C33_2 N4_2 1_555 1_555
C34_2 C33_2 1_555 1_555
C35_2 N3_3 1_555 1_555
H14_2 C36_2 1_555 1_555
C37_2 C29_2 1_555 1_555
C38_2 C37_2 1_555 1_555
C41_2 C40_2 1_555 1_555
C42_2 C37_2 1_555 1_555
H17_2 C42_2 1_555 1_555
C43_2 C34_2 1_555 1_555
C44_2 C43_2 1_555 1_555
H18_2 C44_2 1_555 1_555
C45_2 C44_2 1_555 1_555
C46_2 C45_2 1_555 1_555
H19_2 C46_2 1_555 1_555
C47_2 C46_2 1_555 1_555
C48_2 C43_2 1_555 1_555
H20_2 C48_2 1_555 1_555
C50_2 C41_2 1_555 1_555
C51_2 C45_2 1_555 1_555
C52_2 C47_2 1_555 1_555
Y6 O13_2 1_555 1_555
O14_2 Y6 1_555 1_555
C27_2 C28_2 1_555 1_555
C29_2 C30_2 1_555 1_555
C32_2 C33_2 1_555 1_555
C34_2 C35_2 1_555 1_555
C35_2 C36_2 1_555 1_555
C41_2 C42_2 1_555 1_555
C47_2 C48_2 1_555 1_555
O16_2 Y8_2 1_555 1_555
O11_2 C49_2 1_555 1_555
O12_2 C49_2 1_555 1_555
C49_2 C39_2 1_555 1_555
Y5_2 O12_2 1_555 1_555
Y3 O3_2 1_555 1_555
Cu1_4 N1_4 1_555 1_555
O3_2 C24_2 1_555 1_555
O4_2 Y3 1_555 1_555
O5_2 C25_2 1_555 1_555
O7_2 C26_2 1_555 1_555
O8_2 C26_2 1_555 1_555
O9_2 Y3 1_555 1_555
O10_2 Y3 1_555 1_555
N1_4 C2_2 1_555 1_555
N2_2 Cu1_4 1_555 1_555
N3_4 Cu1_4 1_555 1_555
C1_2 H1_2 1_555 1_555
C2_2 C1_2 1_555 1_555
C3_2 C2_2 1_555 1_555
C4_2 N2_2 1_555 1_555
C5_2 C4_2 1_555 1_555
H2_2 C5_2 1_555 1_555
C6_2 C5_2 1_555 1_555
H3_2 C6_2 1_555 1_555
C7_2 N2_2 1_555 1_555
C8_2 C7_2 1_555 1_555
C9_2 N3_4 1_555 1_555
C10_2 C9_2 1_555 1_555
H4_2 C10_2 1_555 1_555
C11_2 C3_2 1_555 1_555
C12_2 C11_2 1_555 1_555
C15_2 C14_2 1_555 1_555
C16_2 C11_2 1_555 1_555
H7_2 C16_2 1_555 1_555
C17_2 C8_2 1_555 1_555
C18_2 C17_2 1_555 1_555
H8_2 C18_2 1_555 1_555
C19_2 C18_2 1_555 1_555
C20_2 C19_2 1_555 1_555
H9_2 C20_2 1_555 1_555
C21_2 C20_2 1_555 1_555
C22_2 C17_2 1_555 1_555
H10_2 C22_2 1_555 1_555
C24_2 O4_2 1_555 1_555
C25_2 C19_2 1_555 1_555
C26_2 C21_2 1_555 1_555
Y7 O7_2 1_555 1_555
O21_2 Y3 1_555 1_555
O25_2 Y3 1_555 1_555
O27_2 Y3 1_555 1_555
C3_2 C4_2 1_555 1_555
C6_2 C7_2 1_555 1_555
C8_2 C9_2 1_555 1_555
C15_2 C16_2 1_555 1_555
C15_2 C24_2 1_555 1_555
C21_2 C22_2 1_555 1_555
O6_2 Y4_2 1_555 1_555
O1_2 C23_2 1_555 1_555
O2_2 C23_2 1_555 1_555
C23_2 C13_2 1_555 1_555
Y2_2 O2_2 1_555 1_555
O19_2 Y2_2 1_555 1_555
O20_2 Y2_2 1_555 1_555
O22_2 Y2_2 1_555 1_555
O23_2 Y2_2 1_555 1_555
O24_2 Y2_2 1_555 1_555
O26_2 Y2_2 1_555 1_555
O28_2 Y2_2 1_555 1_555
O11_3 C49_3 1_555 1_555
O12_3 C49_3 1_555 1_555
C49_3 C39_3 1_555 1_555
Y6 O12_3 1_555 1_555
O16_3 Y8_3 1_555 1_555
Cu1_5 N1_5 1_555 1_555
N3_5 Cu1_5 1_555 1_555
O13_3 C50_3 1_555 1_555
O14_3 C50_3 1_555 1_555
O15_3 C51_3 1_555 1_555
O28 C52_3 1_555 1_555
O18_3 C52_3 1_555 1_555
N4_3 Cu1_5 1_555 1_555
H11_3 C27_3 1_555 1_555
C28_3 N1_5 1_555 1_555
C29_3 C28_3 1_555 1_555
C30_3 N4_3 1_555 1_555
C31_3 C30_3 1_555 1_555
H12_3 C31_3 1_555 1_555
C32_3 C31_3 1_555 1_555
H13_3 C32_3 1_555 1_555
C33_3 N4_3 1_555 1_555
C34_3 C33_3 1_555 1_555
C35_3 N3_5 1_555 1_555
H14_3 C36_3 1_555 1_555
C37_3 C29_3 1_555 1_555
C38_3 C37_3 1_555 1_555
C41_3 C40_3 1_555 1_555
C42_3 C37_3 1_555 1_555
H17_3 C42_3 1_555 1_555
C43_3 C34_3 1_555 1_555
C44_3 C43_3 1_555 1_555
H18_3 C44_3 1_555 1_555
C45_3 C44_3 1_555 1_555
C46_3 C45_3 1_555 1_555
H19_3 C46_3 1_555 1_555
C47_3 C46_3 1_555 1_555
C48_3 C43_3 1_555 1_555
H20_3 C48_3 1_555 1_555
C50_3 C41_3 1_555 1_555
C51_3 C45_3 1_555 1_555
C52_3 C47_3 1_555 1_555
Y5_2 O13_3 1_555 1_555
O14_3 Y5_2 1_555 1_555
C27_3 C28_3 1_555 1_555
C29_3 C30_3 1_555 1_555
C32_3 C33_3 1_555 1_555
C34_3 C35_3 1_555 1_555
C35_3 C36_3 1_555 1_555
C41_3 C42_3 1_555 1_555
C47_3 C48_3 1_555 1_555
O1_3 C23_3 1_555 1_555
O21_2 C23_3 1_555 1_555
C23_3 C13_3 1_555 1_555
O6_3 Y4_3 1_555 1_555
Cu1_6 N1_6 1_555 1_555
O22_2 C24_3 1_555 1_555
O5_3 C25_3 1_555 1_555
O7_3 C26_3 1_555 1_555
O8_3 C26_3 1_555 1_555
N1_6 C2_3 1_555 1_555
N2_3 Cu1_6 1_555 1_555
N3_6 Cu1_6 1_555 1_555
C1_3 H1_3 1_555 1_555
C2_3 C1_3 1_555 1_555
C3_3 C2_3 1_555 1_555
C4_3 N2_3 1_555 1_555
C5_3 C4_3 1_555 1_555
H2_3 C5_3 1_555 1_555
C6_3 C5_3 1_555 1_555
H3_3 C6_3 1_555 1_555
C7_3 N2_3 1_555 1_555
C8_3 C7_3 1_555 1_555
C9_3 N3_6 1_555 1_555
C10_3 C9_3 1_555 1_555
H4_3 C10_3 1_555 1_555
C11_3 C3_3 1_555 1_555
C12_3 C11_3 1_555 1_555
C15_3 C14_3 1_555 1_555
C16_3 C11_3 1_555 1_555
H7_3 C16_3 1_555 1_555
C17_3 C8_3 1_555 1_555
C18_3 C17_3 1_555 1_555
H8_3 C18_3 1_555 1_555
C19_3 C18_3 1_555 1_555
C20_3 C19_3 1_555 1_555
H9_3 C20_3 1_555 1_555
C21_3 C20_3 1_555 1_555
C22_3 C17_3 1_555 1_555
H10_3 C22_3 1_555 1_555
C24_3 O23_2 1_555 1_555
C25_3 C19_3 1_555 1_555
C26_3 C21_3 1_555 1_555
Y5 O7_3 1_555 1_555
C3_3 C4_3 1_555 1_555
C6_3 C7_3 1_555 1_555
C8_3 C9_3 1_555 1_555
C15_3 C16_3 1_555 1_555
C15_3 C24_3 1_555 1_555
C21_3 C22_3 1_555 1_555
Cu1_7 N1_7 1_555 1_555
O1_4 C23_4 1_555 1_555
O21 C23_4 1_555 1_555
O22 C24_4 1_555 1_555
O5_4 C25_4 1_555 1_555
O6_4 C25_4 1_555 1_555
O7_4 C26_4 1_555 1_555
O8_4 C26_4 1_555 1_555
N1_7 C2_4 1_555 1_555
N2_4 Cu1_7 1_555 1_555
N3_7 Cu1_7 1_555 1_555
C1_4 H1_4 1_555 1_555
C2_4 C1_4 1_555 1_555
C3_4 C2_4 1_555 1_555
C4_4 N2_4 1_555 1_555
C5_4 C4_4 1_555 1_555
H2_4 C5_4 1_555 1_555
C6_4 C5_4 1_555 1_555
H3_4 C6_4 1_555 1_555
C7_4 N2_4 1_555 1_555
C8_4 C7_4 1_555 1_555
C9_4 N3_7 1_555 1_555
C10_4 C9_4 1_555 1_555
H4_4 C10_4 1_555 1_555
C11_4 C3_4 1_555 1_555
C12_4 C11_4 1_555 1_555
H5_4 C12_4 1_555 1_555
C13_4 C12_4 1_555 1_555
C14_4 C13_4 1_555 1_555
H6_4 C14_4 1_555 1_555
C15_4 C14_4 1_555 1_555
C16_4 C11_4 1_555 1_555
H7_4 C16_4 1_555 1_555
C17_4 C8_4 1_555 1_555
C18_4 C17_4 1_555 1_555
H8_4 C18_4 1_555 1_555
C19_4 C18_4 1_555 1_555
C20_4 C19_4 1_555 1_555
H9_4 C20_4 1_555 1_555
C21_4 C20_4 1_555 1_555
C22_4 C17_4 1_555 1_555
H10_4 C22_4 1_555 1_555
C23_4 C13_4 1_555 1_555
C24_4 O23 1_555 1_555
C25_4 C19_4 1_555 1_555
C26_4 C21_4 1_555 1_555
Y4_4 O5_4 1_555 1_555
Y5_2 O7_4 1_555 1_555
O6_4 Y4_4 1_555 1_555
C3_4 C4_4 1_555 1_555
C6_4 C7_4 1_555 1_555
C8_4 C9_4 1_555 1_555
C15_4 C16_4 1_555 1_555
C15_4 C24_4 1_555 1_555
C21_4 C22_4 1_555 1_555
Cu1_8 N1_8 1_555 1_555
N3_8 Cu1_8 1_555 1_555
O11_4 C49_4 1_555 1_555
O12_4 C49_4 1_555 1_555
O13_4 C50_4 1_555 1_555
O14_4 C50_4 1_555 1_555
O15_4 C51_4 1_555 1_555
O16_4 C51_4 1_555 1_555
O28_2 C52_4 1_555 1_555
O18_4 C52_4 1_555 1_555
N4_4 Cu1_8 1_555 1_555
H11_4 C27_4 1_555 1_555
C28_4 N1_8 1_555 1_555
C29_4 C28_4 1_555 1_555
C30_4 N4_4 1_555 1_555
C31_4 C30_4 1_555 1_555
H12_4 C31_4 1_555 1_555
C32_4 C31_4 1_555 1_555
H13_4 C32_4 1_555 1_555
C33_4 N4_4 1_555 1_555
C34_4 C33_4 1_555 1_555
C35_4 N3_8 1_555 1_555
H14_4 C36_4 1_555 1_555
C37_4 C29_4 1_555 1_555
C38_4 C37_4 1_555 1_555
H15_4 C38_4 1_555 1_555
C39_4 C38_4 1_555 1_555
C40_4 C39_4 1_555 1_555
H16_4 C40_4 1_555 1_555
C41_4 C40_4 1_555 1_555
C42_4 C37_4 1_555 1_555
H17_4 C42_4 1_555 1_555
C43_4 C34_4 1_555 1_555
C44_4 C43_4 1_555 1_555
H18_4 C44_4 1_555 1_555
C45_4 C44_4 1_555 1_555
C46_4 C45_4 1_555 1_555
H19_4 C46_4 1_555 1_555
C47_4 C46_4 1_555 1_555
C48_4 C43_4 1_555 1_555
H20_4 C48_4 1_555 1_555
C49_4 C39_4 1_555 1_555
C50_4 C41_4 1_555 1_555
C51_4 C45_4 1_555 1_555
C52_4 C47_4 1_555 1_555
Y7 O12_4 1_555 1_555
Y8_4 O15_4 1_555 1_555
O16_4 Y8_4 1_555 1_555
C27_4 C28_4 1_555 1_555
C29_4 C30_4 1_555 1_555
C32_4 C33_4 1_555 1_555
C34_4 C35_4 1_555 1_555
C35_4 C36_4 1_555 1_555
C41_4 C42_4 1_555 1_555
C47_4 C48_4 1_555 1_555
O1_5 C23_5 1_555 1_555
O2_3 C23_5 1_555 1_555
C23_5 C13_5 1_555 1_555
O11_5 C49_5 1_555 1_555
O12_5 C49_5 1_555 1_555
C49_5 C39_5 1_555 1_555
Y4_2 O2_3 1_555 1_555
O19_3 Y4_2 1_555 1_555
O20_3 Y4_2 1_555 1_555
Y8_2 O12_5 1_555 1_555
O28_3 Y4_2 1_555 1_555
O9_3 Y4_3 1_555 1_555
O10_3 Y4_3 1_555 1_555
O21_3 Y4_3 1_555 1_555
O29_2 Y4_3 1_555 1_555
Cu1_9 N1_9 1_555 1_555
O3_3 C24_5 1_555 1_555
O24_2 C25_5 1_555 1_555
O26_2 C25_5 1_555 1_555
O7_5 C26_5 1_555 1_555
O8_5 C26_5 1_555 1_555
N1_9 C2_5 1_555 1_555
N2_5 Cu1_9 1_555 1_555
N3_9 Cu1_9 1_555 1_555
C1_5 H1_5 1_555 1_555
C2_5 C1_5 1_555 1_555
C3_5 C2_5 1_555 1_555
C4_5 N2_5 1_555 1_555
C5_5 C4_5 1_555 1_555
H2_5 C5_5 1_555 1_555
C6_5 C5_5 1_555 1_555
H3_5 C6_5 1_555 1_555
C7_5 N2_5 1_555 1_555
C8_5 C7_5 1_555 1_555
C9_5 N3_9 1_555 1_555
C10_5 C9_5 1_555 1_555
H4_5 C10_5 1_555 1_555
C11_5 C3_5 1_555 1_555
C12_5 C11_5 1_555 1_555
C15_5 C14_5 1_555 1_555
C16_5 C11_5 1_555 1_555
H7_5 C16_5 1_555 1_555
C17_5 C8_5 1_555 1_555
C18_5 C17_5 1_555 1_555
H8_5 C18_5 1_555 1_555
C19_5 C18_5 1_555 1_555
C20_5 C19_5 1_555 1_555
H9_5 C20_5 1_555 1_555
C21_5 C20_5 1_555 1_555
C22_5 C17_5 1_555 1_555
H10_5 C22_5 1_555 1_555
C24_5 O4_3 1_555 1_555
C25_5 C19_5 1_555 1_555
C26_5 C21_5 1_555 1_555
O13_5 C50_5 1_555 1_555
O14_5 C50_5 1_555 1_555
O15_5 C51_5 1_555 1_555
O16_5 C51_5 1_555 1_555
O17_2 C52_5 1_555 1_555
O18_5 C52_5 1_555 1_555
N4_5 Cu1_9 1_555 1_555
C27_5 C1_5 1_555 1_555
H11_5 C27_5 1_555 1_555
C28_5 N1_9 1_555 1_555
C29_5 C28_5 1_555 1_555
C30_5 N4_5 1_555 1_555
C31_5 C30_5 1_555 1_555
H12_5 C31_5 1_555 1_555
C32_5 C31_5 1_555 1_555
H13_5 C32_5 1_555 1_555
C33_5 N4_5 1_555 1_555
C34_5 C33_5 1_555 1_555
C35_5 N3_9 1_555 1_555
C36_5 C10_5 1_555 1_555
H14_5 C36_5 1_555 1_555
C37_5 C29_5 1_555 1_555
C38_5 C37_5 1_555 1_555
C41_5 C40_5 1_555 1_555
C42_5 C37_5 1_555 1_555
H17_5 C42_5 1_555 1_555
C43_5 C34_5 1_555 1_555
C44_5 C43_5 1_555 1_555
H18_5 C44_5 1_555 1_555
C45_5 C44_5 1_555 1_555
C46_5 C45_5 1_555 1_555
H19_5 C46_5 1_555 1_555
C47_5 C46_5 1_555 1_555
C48_5 C43_5 1_555 1_555
H20_5 C48_5 1_555 1_555
C50_5 C41_5 1_555 1_555
C51_5 C45_5 1_555 1_555
C52_5 C47_5 1_555 1_555
Y4_4 O17_2 1_555 1_555
Y8_4 O7_5 1_555 1_555
Y5_2 O15_5 1_555 1_555
C3_5 C4_5 1_555 1_555
C6_5 C7_5 1_555 1_555
C8_5 C9_5 1_555 1_555
C15_5 C16_5 1_555 1_555
C15_5 C24_5 1_555 1_555
C21_5 C22_5 1_555 1_555
O16_5 Y5_2 1_555 1_555
C27_5 C28_5 1_555 1_555
C29_5 C30_5 1_555 1_555
C32_5 C33_5 1_555 1_555
C34_5 C35_5 1_555 1_555
C35_5 C36_5 1_555 1_555
C41_5 C42_5 1_555 1_555
C47_5 C48_5 1_555 1_555
Y4_4 O3_4 1_555 1_555
Cu1_10 N1_10 1_555 1_555
O1_6 C23_6 1_555 1_555
O2_4 C23_6 1_555 1_555
O3_4 C24_6 1_555 1_555
O4_4 Y4_4 1_555 1_555
O24 C25_6 1_555 1_555
O7_6 C26_6 1_555 1_555
O8_6 C26_6 1_555 1_555
O9_4 Y4_4 1_555 1_555
O10_4 Y4_4 1_555 1_555
N1_10 C2_6 1_555 1_555
N2_6 Cu1_10 1_555 1_555
N3_10 Cu1_10 1_555 1_555
C1_6 H1_6 1_555 1_555
C2_6 C1_6 1_555 1_555
C3_6 C2_6 1_555 1_555
C4_6 N2_6 1_555 1_555
C5_6 C4_6 1_555 1_555
H2_6 C5_6 1_555 1_555
C6_6 C5_6 1_555 1_555
H3_6 C6_6 1_555 1_555
C7_6 N2_6 1_555 1_555
C8_6 C7_6 1_555 1_555
C9_6 N3_10 1_555 1_555
C10_6 C9_6 1_555 1_555
H4_6 C10_6 1_555 1_555
C11_6 C3_6 1_555 1_555
C12_6 C11_6 1_555 1_555
H5_6 C12_6 1_555 1_555
C13_6 C12_6 1_555 1_555
C14_6 C13_6 1_555 1_555
H6_6 C14_6 1_555 1_555
C15_6 C14_6 1_555 1_555
C16_6 C11_6 1_555 1_555
H7_6 C16_6 1_555 1_555
C17_6 C8_6 1_555 1_555
C18_6 C17_6 1_555 1_555
H8_6 C18_6 1_555 1_555
C19_6 C18_6 1_555 1_555
C20_6 C19_6 1_555 1_555
H9_6 C20_6 1_555 1_555
C21_6 C20_6 1_555 1_555
C22_6 C17_6 1_555 1_555
H10_6 C22_6 1_555 1_555
C23_6 C13_6 1_555 1_555
C24_6 O4_4 1_555 1_555
C25_6 C19_6 1_555 1_555
C26_6 C21_6 1_555 1_555
O11_6 C49_6 1_555 1_555
O12_6 C49_6 1_555 1_555
O13_6 C50_6 1_555 1_555
O14_6 C50_6 1_555 1_555
O15_6 C51_6 1_555 1_555
O29_2 C52_6 1_555 1_555
O18_6 C52_6 1_555 1_555
N4_6 Cu1_10 1_555 1_555
C27_6 C1_6 1_555 1_555
H11_6 C27_6 1_555 1_555
C28_6 N1_10 1_555 1_555
C29_6 C28_6 1_555 1_555
C30_6 N4_6 1_555 1_555
C31_6 C30_6 1_555 1_555
H12_6 C31_6 1_555 1_555
C32_6 C31_6 1_555 1_555
H13_6 C32_6 1_555 1_555
C33_6 N4_6 1_555 1_555
C34_6 C33_6 1_555 1_555
C35_6 N3_10 1_555 1_555
C36_6 C10_6 1_555 1_555
H14_6 C36_6 1_555 1_555
C37_6 C29_6 1_555 1_555
C38_6 C37_6 1_555 1_555
H15_6 C38_6 1_555 1_555
C39_6 C38_6 1_555 1_555
C40_6 C39_6 1_555 1_555
H16_6 C40_6 1_555 1_555
C41_6 C40_6 1_555 1_555
C42_6 C37_6 1_555 1_555
H17_6 C42_6 1_555 1_555
C43_6 C34_6 1_555 1_555
C44_6 C43_6 1_555 1_555
H18_6 C44_6 1_555 1_555
C45_6 C44_6 1_555 1_555
C46_6 C45_6 1_555 1_555
H19_6 C46_6 1_555 1_555
C47_6 C46_6 1_555 1_555
C48_6 C43_6 1_555 1_555
H20_6 C48_6 1_555 1_555
C49_6 C39_6 1_555 1_555
C50_6 C41_6 1_555 1_555
C51_6 C45_6 1_555 1_555
C52_6 C47_6 1_555 1_555
Y4 O2_4 1_555 1_555
O19_4 Y4 1_555 1_555
O20_4 Y4 1_555 1_555
Y8 O12_6 1_555 1_555
Y8_3 O7_6 1_555 1_555
Y8_4 O13_6 1_555 1_555
O21_4 Y4_4 1_555 1_555
O22_4 Y4 1_555 1_555
O23_4 Y4 1_555 1_555
O28_4 Y4 1_555 1_555
C3_6 C4_6 1_555 1_555
C6_6 C7_6 1_555 1_555
C8_6 C9_6 1_555 1_555
C15_6 C16_6 1_555 1_555
C15_6 C24_6 1_555 1_555
C21_6 C22_6 1_555 1_555
O14_6 Y8_4 1_555 1_555
C27_6 C28_6 1_555 1_555
C29_6 C30_6 1_555 1_555
C32_6 C33_6 1_555 1_555
C34_6 C35_6 1_555 1_555
C35_6 C36_6 1_555 1_555
C41_6 C42_6 1_555 1_555
C47_6 C48_6 1_555 1_555
O16_6 Y5 1_555 1_555
O16_7 Y7 1_555 1_555
Cu1_11 N1_11 1_555 1_555
O1_7 C23_7 1_555 1_555
O21_4 C23_7 1_555 1_555
O22_4 C24_7 1_555 1_555
O25 C25_7 1_555 1_555
O7_7 C26_7 1_555 1_555
O8_7 C26_7 1_555 1_555
N1_11 C2_7 1_555 1_555
N2_7 Cu1_11 1_555 1_555
N3_11 Cu1_11 1_555 1_555
C1_7 H1_7 1_555 1_555
C2_7 C1_7 1_555 1_555
C3_7 C2_7 1_555 1_555
C4_7 N2_7 1_555 1_555
C5_7 C4_7 1_555 1_555
H2_7 C5_7 1_555 1_555
C6_7 C5_7 1_555 1_555
H3_7 C6_7 1_555 1_555
C7_7 N2_7 1_555 1_555
C8_7 C7_7 1_555 1_555
C9_7 N3_11 1_555 1_555
C10_7 C9_7 1_555 1_555
H4_7 C10_7 1_555 1_555
C11_7 C3_7 1_555 1_555
C12_7 C11_7 1_555 1_555
H5_7 C12_7 1_555 1_555
C13_7 C12_7 1_555 1_555
C14_7 C13_7 1_555 1_555
H6_7 C14_7 1_555 1_555
C15_7 C14_7 1_555 1_555
C16_7 C11_7 1_555 1_555
H7_7 C16_7 1_555 1_555
C17_7 C8_7 1_555 1_555
C18_7 C17_7 1_555 1_555
H8_7 C18_7 1_555 1_555
C19_7 C18_7 1_555 1_555
C20_7 C19_7 1_555 1_555
H9_7 C20_7 1_555 1_555
C21_7 C20_7 1_555 1_555
C22_7 C17_7 1_555 1_555
H10_7 C22_7 1_555 1_555
C23_7 C13_7 1_555 1_555
C24_7 O23_4 1_555 1_555
C25_7 C19_7 1_555 1_555
C26_7 C21_7 1_555 1_555
O11_7 C49_7 1_555 1_555
O12_7 C49_7 1_555 1_555
O13_7 C50_7 1_555 1_555
O14_7 C50_7 1_555 1_555
O15_7 C51_7 1_555 1_555
O28_3 C52_7 1_555 1_555
O18_7 C52_7 1_555 1_555
N4_7 Cu1_11 1_555 1_555
C27_7 C1_7 1_555 1_555
H11_7 C27_7 1_555 1_555
C28_7 N1_11 1_555 1_555
C29_7 C28_7 1_555 1_555
C30_7 N4_7 1_555 1_555
C31_7 C30_7 1_555 1_555
H12_7 C31_7 1_555 1_555
C32_7 C31_7 1_555 1_555
H13_7 C32_7 1_555 1_555
C33_7 N4_7 1_555 1_555
C34_7 C33_7 1_555 1_555
C35_7 N3_11 1_555 1_555
C36_7 C10_7 1_555 1_555
H14_7 C36_7 1_555 1_555
C37_7 C29_7 1_555 1_555
C38_7 C37_7 1_555 1_555
H15_7 C38_7 1_555 1_555
C39_7 C38_7 1_555 1_555
C40_7 C39_7 1_555 1_555
H16_7 C40_7 1_555 1_555
C41_7 C40_7 1_555 1_555
C42_7 C37_7 1_555 1_555
H17_7 C42_7 1_555 1_555
C43_7 C34_7 1_555 1_555
C44_7 C43_7 1_555 1_555
H18_7 C44_7 1_555 1_555
C45_7 C44_7 1_555 1_555
C46_7 C45_7 1_555 1_555
H19_7 C46_7 1_555 1_555
C47_7 C46_7 1_555 1_555
C48_7 C43_7 1_555 1_555
H20_7 C48_7 1_555 1_555
C49_7 C39_7 1_555 1_555
C50_7 C41_7 1_555 1_555
C51_7 C45_7 1_555 1_555
C52_7 C47_7 1_555 1_555
Y8_4 O12_7 1_555 1_555
Y8_2 O7_7 1_555 1_555
Y8 O13_7 1_555 1_555
C3_7 C4_7 1_555 1_555
C6_7 C7_7 1_555 1_555
C8_7 C9_7 1_555 1_555
C15_7 C16_7 1_555 1_555
C15_7 C24_7 1_555 1_555
C21_7 C22_7 1_555 1_555
O14_7 Y8 1_555 1_555
C27_7 C28_7 1_555 1_555
C29_7 C30_7 1_555 1_555
C32_7 C33_7 1_555 1_555
C34_7 C35_7 1_555 1_555
C35_7 C36_7 1_555 1_555
C41_7 C42_7 1_555 1_555
C47_7 C48_7 1_555 1_555
Cu1_12 N1_12 1_555 1_555
O22_3 C24_8 1_555 1_555
O25_2 C25_8 1_555 1_555
O27_2 C25_8 1_555 1_555
O7_8 C26_8 1_555 1_555
O8_8 C26_8 1_555 1_555
N1_12 C2_8 1_555 1_555
N2_8 Cu1_12 1_555 1_555
N3_12 Cu1_12 1_555 1_555
C1_8 H1_8 1_555 1_555
C2_8 C1_8 1_555 1_555
C3_8 C2_8 1_555 1_555
C4_8 N2_8 1_555 1_555
C5_8 C4_8 1_555 1_555
H2_8 C5_8 1_555 1_555
C6_8 C5_8 1_555 1_555
H3_8 C6_8 1_555 1_555
C7_8 N2_8 1_555 1_555
C8_8 C7_8 1_555 1_555
C9_8 N3_12 1_555 1_555
C10_8 C9_8 1_555 1_555
H4_8 C10_8 1_555 1_555
C11_8 C3_8 1_555 1_555
C12_8 C11_8 1_555 1_555
C15_8 C14_8 1_555 1_555
C16_8 C11_8 1_555 1_555
H7_8 C16_8 1_555 1_555
C17_8 C8_8 1_555 1_555
C18_8 C17_8 1_555 1_555
H8_8 C18_8 1_555 1_555
C19_8 C18_8 1_555 1_555
C20_8 C19_8 1_555 1_555
H9_8 C20_8 1_555 1_555
C21_8 C20_8 1_555 1_555
C22_8 C17_8 1_555 1_555
H10_8 C22_8 1_555 1_555
C24_8 O23_3 1_555 1_555
C25_8 C19_8 1_555 1_555
C26_8 C21_8 1_555 1_555
O13_8 C50_8 1_555 1_555
O14_8 C50_8 1_555 1_555
O15_8 C51_8 1_555 1_555
O16_8 C51_8 1_555 1_555
O28_4 C52_8 1_555 1_555
O18_8 C52_8 1_555 1_555
N4_8 Cu1_12 1_555 1_555
C27_8 C1_8 1_555 1_555
H11_8 C27_8 1_555 1_555
C28_8 N1_12 1_555 1_555
C29_8 C28_8 1_555 1_555
C30_8 N4_8 1_555 1_555
C31_8 C30_8 1_555 1_555
H12_8 C31_8 1_555 1_555
C32_8 C31_8 1_555 1_555
H13_8 C32_8 1_555 1_555
C33_8 N4_8 1_555 1_555
C34_8 C33_8 1_555 1_555
C35_8 N3_12 1_555 1_555
C36_8 C10_8 1_555 1_555
H14_8 C36_8 1_555 1_555
C37_8 C29_8 1_555 1_555
C38_8 C37_8 1_555 1_555
C41_8 C40_8 1_555 1_555
C42_8 C37_8 1_555 1_555
H17_8 C42_8 1_555 1_555
C43_8 C34_8 1_555 1_555
C44_8 C43_8 1_555 1_555
H18_8 C44_8 1_555 1_555
C45_8 C44_8 1_555 1_555
C46_8 C45_8 1_555 1_555
H19_8 C46_8 1_555 1_555
C47_8 C46_8 1_555 1_555
C48_8 C43_8 1_555 1_555
H20_8 C48_8 1_555 1_555
C50_8 C41_8 1_555 1_555
C51_8 C45_8 1_555 1_555
C52_8 C47_8 1_555 1_555
Y8 O7_8 1_555 1_555
Y6 O15_8 1_555 1_555
C3_8 C4_8 1_555 1_555
C6_8 C7_8 1_555 1_555
C8_8 C9_8 1_555 1_555
C15_8 C16_8 1_555 1_555
C15_8 C24_8 1_555 1_555
C21_8 C22_8 1_555 1_555
O16_8 Y6 1_555 1_555
C27_8 C28_8 1_555 1_555
C29_8 C30_8 1_555 1_555
C32_8 C33_8 1_555 1_555
C34_8 C35_8 1_555 1_555
C35_8 C36_8 1_555 1_555
C41_8 C42_8 1_555 1_555
C47_8 C48_8 1_555 1_555
O1_8 C23_8 1_555 1_555
O21_3 C23_8 1_555 1_555
C23_8 C13_8 1_555 1_555
O11_8 C49_8 1_555 1_555
O12_8 C49_8 1_555 1_555
C49_8 C39_8 1_555 1_555
Y8_3 O12_8 1_555 1_555
O19_5 Y7 1_555 1_555
O20_5 Y7 1_555 1_555
O9_5 Y5 1_555 1_555
O10_5 Y5 1_555 1_555
O19_6 Y6 1_555 1_555
O20_6 Y6 1_555 1_555
O9_6 Y5_2 1_555 1_555
O10_6 Y5_2 1_555 1_555
O9_7 Y8_2 1_555 1_555
O10_7 Y8_2 1_555 1_555
O19_7 Y8_3 1_555 1_555
O20_7 Y8_3 1_555 1_555
O9_8 Y8 1_555 1_555
O10_8 Y8 1_555 1_555
O19_8 Y8_4 1_555 1_555
O20_8 Y8_4 1_555 1_555

#END
