
###############################################################################
#
# This file contains modified crystal structure data generated from the
# MOF subset of the Cambridge Structural Database (CSD) v543 
# hosted by the Cambridge Crystallographic Data Centre (CCDC).
#
# This work is licensed under the Creative Commons
# Attribution-NonCommercial-ShareAlike 4.0 International License.
# To view a copy of this license, visit
# http://creativecommons.org/licenses/by-nc-sa/4.0/
# or send a letter to
# Creative Commons, PO Box 1866, Mountain View, CA 94042, USA.
#
# CIF created using the CSD Python API on 29 September 2022
# The structure has been converted into the P1 space group
# The structure has a 3D framework
# The original CSD entry LEPSUX is in the orthorhombic crystal system
# The framework has been calculated to contain at least 10.0% void space
# The void calculation uses a probe of radius 1.32A, grid spacing 0.4
#
###############################################################################

data_LEPSUX
_chemical_formula_moiety         '(C312 H256 I18 In6 N16 O50 S32 10+)n'
_symmetry_cell_setting           triclinic
_symmetry_space_group_name_H-M   'P 1'
_symmetry_Int_Tables_number      1
_space_group_name_Hall           'P 1'
loop_
_symmetry_equiv_pos_site_id
_symmetry_equiv_pos_as_xyz
1 x,y,z
_cell_length_a                   15.0141(19)
_cell_length_b                   35.599(4)
_cell_length_c                   23.505(4)
_cell_angle_alpha                90
_cell_angle_beta                 90
_cell_angle_gamma                90
_cell_volume                     12563.1
loop_
_atom_site_label
_atom_site_type_symbol
_atom_site_fract_x
_atom_site_fract_y
_atom_site_fract_z
C1 C 0.1456(7) 0.3794(3) 0.2454(3)
H1 H 0.186470 0.358086 0.241470
H2 H 0.100559 0.373570 0.274245
H3 H 0.179145 0.401738 0.257050
C2 C 0.1428(13) 0.3761(4) 0.1438(8)
H4 H 0.195974 0.361091 0.152149
H5 H 0.159864 0.398559 0.122427
H6 H 0.101037 0.361080 0.121197
N1 N 0.1035(6) 0.3863(3) 0.1929(4)
H7 H 0.049402 0.374855 0.194102
H8 H 0.093176 0.411462 0.190841
C1_2 C 0.8544(7) 0.6206(3) 0.2454(3)
H1_2 H 0.813530 0.641914 0.241470
H2_2 H 0.899441 0.626430 0.274245
H3_2 H 0.820855 0.598262 0.257050
C2_2 C 0.8572(13) 0.6239(4) 0.1438(8)
H4_2 H 0.804026 0.638909 0.152149
H5_2 H 0.840136 0.601441 0.122427
H6_2 H 0.898963 0.638920 0.121197
N1_2 N 0.8965(6) 0.6137(3) 0.1929(4)
H7_2 H 0.950598 0.625145 0.194102
H8_2 H 0.906824 0.588538 0.190841
C1_3 C 0.1456(7) 0.6206(3) 0.2546(3)
H1_3 H 0.186470 0.641914 0.258530
H2_3 H 0.100559 0.626430 0.225755
H3_3 H 0.179145 0.598262 0.242950
C2_3 C 0.1428(13) 0.6239(4) 0.3562(8)
H4_3 H 0.195974 0.638909 0.347851
H5_3 H 0.159864 0.601441 0.377573
H6_3 H 0.101037 0.638920 0.378803
N1_3 N 0.1035(6) 0.6137(3) 0.3071(4)
H7_3 H 0.049402 0.625145 0.305898
H8_3 H 0.093176 0.588538 0.309159
C1_4 C 0.8544(7) 0.3794(3) 0.2546(3)
H1_4 H 0.813530 0.358086 0.258530
H2_4 H 0.899441 0.373570 0.225755
H3_4 H 0.820855 0.401738 0.242950
C2_4 C 0.8572(13) 0.3761(4) 0.3562(8)
H4_4 H 0.804026 0.361091 0.347851
H5_4 H 0.840136 0.398559 0.377573
H6_4 H 0.898963 0.361080 0.378803
N1_4 N 0.8965(6) 0.3863(3) 0.3071(4)
H7_4 H 0.950598 0.374855 0.305898
H8_4 H 0.906824 0.411462 0.309159
C1_5 C 0.6456(7) 0.8794(3) 0.2454(3)
H1_5 H 0.686470 0.858086 0.241470
H2_5 H 0.600559 0.873570 0.274245
H3_5 H 0.679145 0.901738 0.257050
C2_5 C 0.6428(13) 0.8761(4) 0.1438(8)
H4_5 H 0.695974 0.861091 0.152149
H5_5 H 0.659864 0.898559 0.122427
H6_5 H 0.601037 0.861080 0.121197
N1_5 N 0.6035(6) 0.8863(3) 0.1929(4)
H7_5 H 0.549402 0.874855 0.194102
H8_5 H 0.593176 0.911462 0.190841
C1_6 C 0.3544(7) 0.1206(3) 0.2454(3)
H1_6 H 0.313530 0.141914 0.241470
H2_6 H 0.399441 0.126430 0.274245
H3_6 H 0.320855 0.098262 0.257050
C2_6 C 0.3572(13) 0.1239(4) 0.1438(8)
H4_6 H 0.304026 0.138909 0.152149
H5_6 H 0.340136 0.101441 0.122427
H6_6 H 0.398963 0.138920 0.121197
N1_6 N 0.3965(6) 0.1137(3) 0.1929(4)
H7_6 H 0.450598 0.125145 0.194102
H8_6 H 0.406824 0.088538 0.190841
C1_7 C 0.6456(7) 0.1206(3) 0.2546(3)
H1_7 H 0.686470 0.141914 0.258530
H2_7 H 0.600559 0.126430 0.225755
H3_7 H 0.679145 0.098262 0.242950
C2_7 C 0.6428(13) 0.1239(4) 0.3562(8)
H4_7 H 0.695974 0.138909 0.347851
H5_7 H 0.659864 0.101441 0.377573
H6_7 H 0.601037 0.138920 0.378803
N1_7 N 0.6035(6) 0.1137(3) 0.3071(4)
H7_7 H 0.549402 0.125145 0.305898
H8_7 H 0.593176 0.088538 0.309159
C1_8 C 0.3544(7) 0.8794(3) 0.2546(3)
H1_8 H 0.313530 0.858086 0.258530
H2_8 H 0.399441 0.873570 0.225755
H3_8 H 0.320855 0.901738 0.242950
C2_8 C 0.3572(13) 0.8761(4) 0.3562(8)
H4_8 H 0.304026 0.861091 0.347851
H5_8 H 0.340136 0.898559 0.377573
H6_8 H 0.398963 0.861080 0.378803
N1_8 N 0.3965(6) 0.8863(3) 0.3071(4)
H7_8 H 0.450598 0.874855 0.305898
H8_8 H 0.406824 0.911462 0.309159
C1_9 C 0.8544(7) 0.6206(3) 0.7546(3)
H1_9 H 0.813530 0.641914 0.758530
H2_9 H 0.899441 0.626430 0.725755
H3_9 H 0.820855 0.598262 0.742950
C2_9 C 0.8572(13) 0.6239(4) 0.8562(8)
H4_9 H 0.804026 0.638909 0.847851
H5_9 H 0.840136 0.601441 0.877573
H6_9 H 0.898963 0.638920 0.878803
N1_9 N 0.8965(6) 0.6137(3) 0.8071(4)
H7_9 H 0.950598 0.625145 0.805898
H8_9 H 0.906824 0.588538 0.809159
C1_10 C 0.1456(7) 0.3794(3) 0.7546(3)
H1_10 H 0.186470 0.358086 0.758530
H2_10 H 0.100559 0.373570 0.725755
H3_10 H 0.179145 0.401738 0.742950
C2_10 C 0.1428(13) 0.3761(4) 0.8562(8)
H4_10 H 0.195974 0.361091 0.847851
H5_10 H 0.159864 0.398559 0.877573
H6_10 H 0.101037 0.361080 0.878803
N1_10 N 0.1035(6) 0.3863(3) 0.8071(4)
H7_10 H 0.049402 0.374855 0.805898
H8_10 H 0.093176 0.411462 0.809159
C1_11 C 0.8544(7) 0.3794(3) 0.7454(3)
H1_11 H 0.813530 0.358086 0.741470
H2_11 H 0.899441 0.373570 0.774245
H3_11 H 0.820855 0.401738 0.757050
C2_11 C 0.8572(13) 0.3761(4) 0.6438(8)
H4_11 H 0.804026 0.361091 0.652149
H5_11 H 0.840136 0.398559 0.622427
H6_11 H 0.898963 0.361080 0.621197
N1_11 N 0.8965(6) 0.3863(3) 0.6929(4)
H7_11 H 0.950598 0.374855 0.694102
H8_11 H 0.906824 0.411462 0.690841
C1_12 C 0.1456(7) 0.6206(3) 0.7454(3)
H1_12 H 0.186470 0.641914 0.741470
H2_12 H 0.100559 0.626430 0.774245
H3_12 H 0.179145 0.598262 0.757050
C2_12 C 0.1428(13) 0.6239(4) 0.6438(8)
H4_12 H 0.195974 0.638909 0.652149
H5_12 H 0.159864 0.601441 0.622427
H6_12 H 0.101037 0.638920 0.621197
N1_12 N 0.1035(6) 0.6137(3) 0.6929(4)
H7_12 H 0.049402 0.625145 0.694102
H8_12 H 0.093176 0.588538 0.690841
C1_13 C 0.3544(7) 0.1206(3) 0.7546(3)
H1_13 H 0.313530 0.141914 0.758530
H2_13 H 0.399441 0.126430 0.725755
H3_13 H 0.320855 0.098262 0.742950
C2_13 C 0.3572(13) 0.1239(4) 0.8562(8)
H4_13 H 0.304026 0.138909 0.847851
H5_13 H 0.340136 0.101441 0.877573
H6_13 H 0.398963 0.138920 0.878803
N1_13 N 0.3965(6) 0.1137(3) 0.8071(4)
H7_13 H 0.450598 0.125145 0.805898
H8_13 H 0.406824 0.088538 0.809159
C1_14 C 0.6456(7) 0.8794(3) 0.7546(3)
H1_14 H 0.686470 0.858086 0.758530
H2_14 H 0.600559 0.873570 0.725755
H3_14 H 0.679145 0.901738 0.742950
C2_14 C 0.6428(13) 0.8761(4) 0.8562(8)
H4_14 H 0.695974 0.861091 0.847851
H5_14 H 0.659864 0.898559 0.877573
H6_14 H 0.601037 0.861080 0.878803
N1_14 N 0.6035(6) 0.8863(3) 0.8071(4)
H7_14 H 0.549402 0.874855 0.805898
H8_14 H 0.593176 0.911462 0.809159
C1_15 C 0.3544(7) 0.8794(3) 0.7454(3)
H1_15 H 0.313530 0.858086 0.741470
H2_15 H 0.399441 0.873570 0.774245
H3_15 H 0.320855 0.901738 0.757050
C2_15 C 0.3572(13) 0.8761(4) 0.6438(8)
H4_15 H 0.304026 0.861091 0.652149
H5_15 H 0.340136 0.898559 0.622427
H6_15 H 0.398963 0.861080 0.621197
N1_15 N 0.3965(6) 0.8863(3) 0.6929(4)
H7_15 H 0.450598 0.874855 0.694102
H8_15 H 0.406824 0.911462 0.690841
C1_16 C 0.6456(7) 0.1206(3) 0.7454(3)
H1_16 H 0.686470 0.141914 0.741470
H2_16 H 0.600559 0.126430 0.774245
H3_16 H 0.679145 0.098262 0.757050
C2_16 C 0.6428(13) 0.1239(4) 0.6438(8)
H4_16 H 0.695974 0.138909 0.652149
H5_16 H 0.659864 0.101441 0.622427
H6_16 H 0.601037 0.138920 0.621197
N1_16 N 0.6035(6) 0.1137(3) 0.6929(4)
H7_16 H 0.549402 0.125145 0.694102
H8_16 H 0.593176 0.088538 0.690841
I1 I 0.750000 0.250000 0.500000
I2 I 0.65546(2) 0.17501(2) 0.500000
I3 I 0.84454(2) 0.32499(2) 0.500000
I1_2 I 0.250000 0.750000 0.500000
I2_2 I 0.34454(2) 0.82499(2) 0.500000
I3_2 I 0.15546(2) 0.67501(2) 0.500000
I1_3 I 0.750000 0.750000 0.000000
I2_3 I 0.65546(2) 0.82499(2) 0.000000
I3_3 I 0.84454(2) 0.67501(2) 0.000000
I1_4 I 0.750000 0.750000 1.000000
I2_4 I 0.65546(2) 0.82499(2) 1.000000
I3_4 I 0.84454(2) 0.67501(2) 1.000000
I1_5 I 0.250000 0.250000 0.000000
I2_5 I 0.34454(2) 0.17501(2) 0.000000
I3_5 I 0.15546(2) 0.32499(2) 0.000000
I1_6 I 0.250000 0.250000 1.000000
I2_6 I 0.34454(2) 0.17501(2) 1.000000
I3_6 I 0.15546(2) 0.32499(2) 1.000000
C3 C 0.0834(2) 0.26954(8) 0.31551(11)
C4 C 0.11876(19) 0.29690(8) 0.35565(12)
C5 C 0.2100(2) 0.30306(9) 0.35864(12)
H9 H 0.248763 0.288923 0.334912
C6 C 0.2455(2) 0.32936(8) 0.39547(11)
H10 H 0.308019 0.333398 0.396894
C7 C 0.18904(19) 0.34973(7) 0.43022(11)
C8 C 0.09630(19) 0.34519(8) 0.42713(12)
H11 H 0.057666 0.360128 0.449770
C9 C 0.0624(2) 0.31831(8) 0.39014(11)
C10 C 0.22467(19) 0.37822(8) 0.47254(12)
C11 C 0.3030(3) 0.44080(13) 0.500000
C12 C 0.3371(3) 0.47701(11) 0.500000
C13 C 0.3819(2) 0.54428(9) 0.53019(12)
C14 C 0.392(3) 0.5757(9) 0.5628(14)
C15 C 0.3293(4) 0.59261(16) 0.5998(2)
H13 H 0.270230 0.583095 0.599178
C16 C 0.3469(4) 0.62140(17) 0.6361(3)
H14 H 0.301114 0.631794 0.659096
C17 C 0.4374(9) 0.6360(4) 0.6390(4)
C18 C 0.4951(4) 0.62507(19) 0.5983(3)
H15 H 0.549463 0.638419 0.594059
C19 C 0.4775(4) 0.59447(17) 0.5617(2)
H16 H 0.522260 0.586170 0.536087
C20 C 0.4594(2) 0.66885(8) 0.67341(13)
In1 In 0.000000 0.21956(2) 0.250000
O1 O 0.12879(14) 0.25050(6) 0.28395(8)
O3 O 0.53870(15) 0.67449(6) 0.68991(9)
O4 O 0.39678(13) 0.68874(6) 0.69404(8)
S1 S 0.27658(5) 0.41655(2) 0.43762(3)
S2 S 0.35852(5) 0.50093(2) 0.56216(3)
C21 C 0.0834(2) 0.26954(8) 0.68449(11)
C22 C 0.11876(19) 0.29690(8) 0.64435(12)
C23 C 0.2100(2) 0.30306(9) 0.64136(12)
H17 H 0.248763 0.288923 0.665088
C24 C 0.2455(2) 0.32936(8) 0.60453(11)
H18 H 0.308019 0.333398 0.603106
C25 C 0.18904(19) 0.34973(7) 0.56978(11)
C26 C 0.09630(19) 0.34519(8) 0.57287(12)
H19 H 0.057666 0.360128 0.550230
C27 C 0.0624(2) 0.31831(8) 0.60986(11)
C28 C 0.22467(19) 0.37822(8) 0.52746(12)
C29 C 0.3819(2) 0.54428(9) 0.46981(12)
C30 C 0.392(3) 0.5757(9) 0.4372(14)
C31 C 0.3293(4) 0.59261(16) 0.4002(2)
H21 H 0.270230 0.583095 0.400822
C32 C 0.3469(4) 0.62140(17) 0.3639(3)
H22 H 0.301114 0.631794 0.340904
C33 C 0.4374(9) 0.6360(4) 0.3610(4)
C34 C 0.4951(4) 0.62507(19) 0.4017(3)
H23 H 0.549463 0.638419 0.405941
C35 C 0.4775(4) 0.59447(17) 0.4383(2)
H24 H 0.522260 0.586170 0.463913
C36 C 0.4594(2) 0.66885(8) 0.32659(13)
O5 O 0.12879(14) 0.25050(6) 0.71605(8)
O7 O 0.53870(15) 0.67449(6) 0.31009(9)
O8 O 0.39678(13) 0.68874(6) 0.30596(8)
S3 S 0.27658(5) 0.41655(2) 0.56238(3)
S4 S 0.35852(5) 0.50093(2) 0.43784(3)
In2 In 0.500000 0.71956(2) 0.250000
In3 In -0.000000 0.21956(2) 0.750000
In4 In 0.500000 0.71956(2) 0.750000
O10 O 0.00375(13) 0.26371(7) 0.18370(8)
O11 O 0.03870(15) 0.17449(6) 0.31009(9)
O14 O 0.10322(13) 0.18874(6) 0.19404(8)
H12 H 0.999839 0.314424 0.388253
In1_2 In 1.000000 0.21956(2) 0.250000
O2 O 0.99625(13) 0.26371(7) 0.31630(8)
H20 H 0.999839 0.314424 0.611747
O6 O 0.99625(13) 0.26371(7) 0.68370(8)
In3_2 In 1.000000 0.21956(2) 0.750000
O9 O 0.87121(14) 0.25050(6) 0.21605(8)
O12 O 0.96130(15) 0.17449(6) 0.18991(9)
O13 O 0.89678(13) 0.18874(6) 0.30596(8)
H12_2 H 0.000161 0.314424 0.111747
H20_2 H 0.000161 0.314424 0.888253
O6_2 O 0.00375(13) 0.26371(7) 0.81630(8)
C3_2 C 0.9166(2) 0.26954(8) 0.18449(11)
C4_2 C 0.88124(19) 0.29690(8) 0.14435(12)
C5_2 C 0.7900(2) 0.30306(9) 0.14136(12)
H9_2 H 0.751237 0.288923 0.165088
C6_2 C 0.7545(2) 0.32936(8) 0.10453(11)
H10_2 H 0.691981 0.333398 0.103106
C7_2 C 0.81096(19) 0.34973(7) 0.06978(11)
C8_2 C 0.90370(19) 0.34519(8) 0.07287(12)
H11_2 H 0.942334 0.360128 0.050230
C9_2 C 0.9376(2) 0.31831(8) 0.10986(11)
C10_2 C 0.77533(19) 0.37822(8) 0.02746(12)
C11_2 C 0.6970(3) 0.44080(13) 0.000000
C12_2 C 0.6629(3) 0.47701(11) 0.000000
S1_2 S 0.72342(5) 0.41655(2) 0.06238(3)
C29_2 C 0.6181(2) 0.54428(9) 0.03019(12)
C30_2 C 0.608(3) 0.5757(9) 0.0628(14)
C31_2 C 0.6707(4) 0.59261(16) 0.0998(2)
H21_2 H 0.729770 0.583095 0.099178
C32_2 C 0.6531(4) 0.62140(17) 0.1361(3)
H22_2 H 0.698886 0.631794 0.159096
C33_2 C 0.5626(9) 0.6360(4) 0.1390(4)
C34_2 C 0.5049(4) 0.62507(19) 0.0983(3)
H23_2 H 0.450537 0.638419 0.094059
C35_2 C 0.5225(4) 0.59447(17) 0.0617(2)
H24_2 H 0.477740 0.586170 0.036087
C36_2 C 0.5406(2) 0.66885(8) 0.17341(13)
O7_2 O 0.46130(15) 0.67449(6) 0.18991(9)
O8_2 O 0.60322(13) 0.68874(6) 0.19404(8)
S4_2 S 0.64148(5) 0.50093(2) 0.06216(3)
C11_3 C 0.6970(3) 0.44080(13) 1.000000
C12_3 C 0.6629(3) 0.47701(11) 1.000000
C13_2 C 0.6181(2) 0.54428(9) 0.96981(12)
C14_2 C 0.608(3) 0.5757(9) 0.9372(14)
C15_2 C 0.6707(4) 0.59261(16) 0.9002(2)
H13_2 H 0.729770 0.583095 0.900822
C16_2 C 0.6531(4) 0.62140(17) 0.8639(3)
H14_2 H 0.698886 0.631794 0.840904
C17_2 C 0.5626(9) 0.6360(4) 0.8610(4)
C18_2 C 0.5049(4) 0.62507(19) 0.9017(3)
H15_2 H 0.450537 0.638419 0.905941
C19_2 C 0.5225(4) 0.59447(17) 0.9383(2)
H16_2 H 0.477740 0.586170 0.963913
C20_2 C 0.5406(2) 0.66885(8) 0.82659(13)
O3_2 O 0.46130(15) 0.67449(6) 0.81009(9)
O4_2 O 0.60322(13) 0.68874(6) 0.80596(8)
S2_2 S 0.64148(5) 0.50093(2) 0.93784(3)
C21_2 C 0.9166(2) 0.26954(8) 0.81551(11)
C22_2 C 0.88124(19) 0.29690(8) 0.85565(12)
C23_2 C 0.7900(2) 0.30306(9) 0.85864(12)
H17_2 H 0.751237 0.288923 0.834912
C24_2 C 0.7545(2) 0.32936(8) 0.89547(11)
H18_2 H 0.691981 0.333398 0.896894
C25_2 C 0.81096(19) 0.34973(7) 0.93022(11)
C26_2 C 0.90370(19) 0.34519(8) 0.92713(12)
H19_2 H 0.942334 0.360128 0.949770
C27_2 C 0.9376(2) 0.31831(8) 0.89014(11)
C28_2 C 0.77533(19) 0.37822(8) 0.97254(12)
O5_2 O 0.87121(14) 0.25050(6) 0.78395(8)
S3_2 S 0.72342(5) 0.41655(2) 0.93762(3)
H15_3 H 0.049463 0.138419 0.594059
H16_3 H 0.022260 0.086170 0.536087
O3_3 O 0.03870(15) 0.17449(6) 0.68991(9)
H23_3 H 0.049463 0.138419 0.405941
H24_3 H 0.022260 0.086170 0.463913
C13_3 C 0.8819(2) 0.04428(9) 0.53019(12)
C14_3 C 0.892(3) 0.0757(9) 0.5628(14)
C15_3 C 0.8293(4) 0.09261(16) 0.5998(2)
H13_3 H 0.770230 0.083095 0.599178
C16_3 C 0.8469(4) 0.12140(17) 0.6361(3)
H14_3 H 0.801114 0.131794 0.659096
C17_3 C 0.9374(9) 0.1360(4) 0.6390(4)
C18_3 C 0.9951(4) 0.12507(19) 0.5983(3)
C19_3 C 0.9775(4) 0.09447(17) 0.5617(2)
C20_3 C 0.9594(2) 0.16885(8) 0.67341(13)
O4_3 O 0.89678(13) 0.18874(6) 0.69404(8)
S2_3 S 0.85852(5) 0.00093(2) 0.56216(3)
C29_3 C 0.8819(2) 0.04428(9) 0.46981(12)
C30_3 C 0.892(3) 0.0757(9) 0.4372(14)
C31_3 C 0.8293(4) 0.09261(16) 0.4002(2)
H21_3 H 0.770230 0.083095 0.400822
C32_3 C 0.8469(4) 0.12140(17) 0.3639(3)
H22_3 H 0.801114 0.131794 0.340904
C33_3 C 0.9374(9) 0.1360(4) 0.3610(4)
C34_3 C 0.9951(4) 0.12507(19) 0.4017(3)
C35_3 C 0.9775(4) 0.09447(17) 0.4383(2)
C36_3 C 0.9594(2) 0.16885(8) 0.32659(13)
S4_3 S 0.85852(5) 0.00093(2) 0.43784(3)
C3_3 C 0.5834(2) 0.76954(8) 0.31551(11)
C4_3 C 0.61876(19) 0.79690(8) 0.35565(12)
C5_3 C 0.7100(2) 0.80306(9) 0.35864(12)
H9_3 H 0.748763 0.788923 0.334912
C6_3 C 0.7455(2) 0.82936(8) 0.39547(11)
H10_3 H 0.808019 0.833398 0.396894
C7_3 C 0.68904(19) 0.84973(7) 0.43022(11)
C8_3 C 0.59630(19) 0.84519(8) 0.42713(12)
H11_3 H 0.557666 0.860128 0.449770
C9_3 C 0.5624(2) 0.81831(8) 0.39014(11)
H12_3 H 0.499839 0.814424 0.388253
C10_3 C 0.72467(19) 0.87822(8) 0.47254(12)
C11_4 C 0.8030(3) 0.94080(13) 0.500000
C12_4 C 0.8371(3) 0.97701(11) 0.500000
O1_2 O 0.62879(14) 0.75050(6) 0.28395(8)
O2_2 O 0.49625(13) 0.76371(7) 0.31630(8)
S1_3 S 0.77658(5) 0.91655(2) 0.43762(3)
C21_3 C 0.5834(2) 0.76954(8) 0.68449(11)
C22_3 C 0.61876(19) 0.79690(8) 0.64435(12)
C23_3 C 0.7100(2) 0.80306(9) 0.64136(12)
H17_3 H 0.748763 0.788923 0.665088
C24_3 C 0.7455(2) 0.82936(8) 0.60453(11)
H18_3 H 0.808019 0.833398 0.603106
C25_3 C 0.68904(19) 0.84973(7) 0.56978(11)
C26_3 C 0.59630(19) 0.84519(8) 0.57287(12)
H19_3 H 0.557666 0.860128 0.550230
C27_3 C 0.5624(2) 0.81831(8) 0.60986(11)
H20_3 H 0.499839 0.814424 0.611747
C28_3 C 0.72467(19) 0.87822(8) 0.52746(12)
O5_3 O 0.62879(14) 0.75050(6) 0.71605(8)
O6_3 O 0.49625(13) 0.76371(7) 0.68370(8)
S3_3 S 0.77658(5) 0.91655(2) 0.56238(3)
O9_2 O 0.37121(14) 0.75050(6) 0.21605(8)
O10_2 O 0.50375(13) 0.76371(7) 0.18370(8)
C29_4 C 0.1181(2) 0.04428(9) 0.03019(12)
C30_4 C 0.108(3) 0.0757(9) 0.0628(14)
C31_4 C 0.1707(4) 0.09261(16) 0.0998(2)
H21_4 H 0.229770 0.083095 0.099178
C32_4 C 0.1531(4) 0.12140(17) 0.1361(3)
H22_4 H 0.198886 0.131794 0.159096
C33_4 C 0.0626(9) 0.1360(4) 0.1390(4)
C34_4 C 0.0049(4) 0.12507(19) 0.0983(3)
C35_4 C 0.0225(4) 0.09447(17) 0.0617(2)
C36_4 C 0.0406(2) 0.16885(8) 0.17341(13)
S4_4 S 0.14148(5) 0.00093(2) 0.06216(3)
C13_4 C 0.1181(2) 0.04428(9) 0.96981(12)
C14_4 C 0.108(3) 0.0757(9) 0.9372(14)
C15_4 C 0.1707(4) 0.09261(16) 0.9002(2)
H13_4 H 0.229770 0.083095 0.900822
C16_4 C 0.1531(4) 0.12140(17) 0.8639(3)
H14_4 H 0.198886 0.131794 0.840904
C17_4 C 0.0626(9) 0.1360(4) 0.8610(4)
C18_4 C 0.0049(4) 0.12507(19) 0.9017(3)
C19_4 C 0.0225(4) 0.09447(17) 0.9383(2)
C20_4 C 0.0406(2) 0.16885(8) 0.82659(13)
O4_4 O 0.10322(13) 0.18874(6) 0.80596(8)
S2_4 S 0.14148(5) 0.00093(2) 0.93784(3)
C3_4 C 0.4166(2) 0.76954(8) 0.18449(11)
C4_4 C 0.38124(19) 0.79690(8) 0.14435(12)
C5_4 C 0.2900(2) 0.80306(9) 0.14136(12)
H9_4 H 0.251237 0.788923 0.165088
C6_4 C 0.2545(2) 0.82936(8) 0.10453(11)
H10_4 H 0.191981 0.833398 0.103106
C7_4 C 0.31096(19) 0.84973(7) 0.06978(11)
C8_4 C 0.40370(19) 0.84519(8) 0.07287(12)
H11_4 H 0.442334 0.860128 0.050230
C9_4 C 0.4376(2) 0.81831(8) 0.10986(11)
H12_4 H 0.500161 0.814424 0.111747
C10_4 C 0.27533(19) 0.87822(8) 0.02746(12)
C11_5 C 0.1970(3) 0.94080(13) 0.000000
C12_5 C 0.1629(3) 0.97701(11) 0.000000
S1_4 S 0.22342(5) 0.91655(2) 0.06238(3)
C11_6 C 0.1970(3) 0.94080(13) 1.000000
C12_6 C 0.1629(3) 0.97701(11) 1.000000
C21_4 C 0.4166(2) 0.76954(8) 0.81551(11)
C22_4 C 0.38124(19) 0.79690(8) 0.85565(12)
C23_4 C 0.2900(2) 0.80306(9) 0.85864(12)
H17_4 H 0.251237 0.788923 0.834912
C24_4 C 0.2545(2) 0.82936(8) 0.89547(11)
H18_4 H 0.191981 0.833398 0.896894
C25_4 C 0.31096(19) 0.84973(7) 0.93022(11)
C26_4 C 0.40370(19) 0.84519(8) 0.92713(12)
H19_4 H 0.442334 0.860128 0.949770
C27_4 C 0.4376(2) 0.81831(8) 0.89014(11)
H20_4 H 0.500161 0.814424 0.888253
C28_4 C 0.27533(19) 0.87822(8) 0.97254(12)
O5_4 O 0.37121(14) 0.75050(6) 0.78395(8)
O6_4 O 0.50375(13) 0.76371(7) 0.81630(8)
S3_4 S 0.22342(5) 0.91655(2) 0.93762(3)
H23_4 H 0.950537 0.138419 0.094059
H24_4 H 0.977740 0.086170 0.036087
H15_4 H 0.950537 0.138419 0.905941
H16_4 H 0.977740 0.086170 0.963913
O3_4 O 0.96130(15) 0.17449(6) 0.81009(9)
H12_5 H 0.000161 0.685576 0.388253
In1_3 In -0.000000 0.78044(2) 0.250000
O2_3 O 0.00375(13) 0.73629(7) 0.31630(8)
H20_5 H 0.000161 0.685576 0.611747
O6_5 O 0.00375(13) 0.73629(7) 0.68370(8)
In3_3 In 0.000000 0.78044(2) 0.750000
O9_3 O 0.12879(14) 0.74950(6) 0.21605(8)
O12_2 O 0.03870(15) 0.82551(6) 0.18991(9)
O13_2 O 0.10322(13) 0.81126(6) 0.30596(8)
C3_5 C 0.9166(2) 0.73046(8) 0.31551(11)
C4_5 C 0.88124(19) 0.70310(8) 0.35565(12)
C5_5 C 0.7900(2) 0.69694(9) 0.35864(12)
H9_5 H 0.751237 0.711077 0.334912
C6_5 C 0.7545(2) 0.67064(8) 0.39547(11)
H10_5 H 0.691981 0.666602 0.396894
C7_5 C 0.81096(19) 0.65027(7) 0.43022(11)
C8_5 C 0.90370(19) 0.65481(8) 0.42713(12)
H11_5 H 0.942334 0.639872 0.449770
C9_5 C 0.9376(2) 0.68169(8) 0.39014(11)
C10_5 C 0.77533(19) 0.62178(8) 0.47254(12)
C11_7 C 0.6970(3) 0.55920(13) 0.500000
C12_7 C 0.6629(3) 0.52299(11) 0.500000
C13_5 C 0.6181(2) 0.45572(9) 0.53019(12)
C14_5 C 0.608(3) 0.4243(9) 0.5628(14)
C15_5 C 0.6707(4) 0.40739(16) 0.5998(2)
H13_5 H 0.729770 0.416905 0.599178
C16_5 C 0.6531(4) 0.37860(17) 0.6361(3)
H14_5 H 0.698886 0.368206 0.659096
C17_5 C 0.5626(9) 0.3640(4) 0.6390(4)
C18_5 C 0.5049(4) 0.37493(19) 0.5983(3)
H15_5 H 0.450537 0.361581 0.594059
C19_5 C 0.5225(4) 0.40553(17) 0.5617(2)
H16_5 H 0.477740 0.413830 0.536087
C20_5 C 0.5406(2) 0.33115(8) 0.67341(13)
In1_4 In 1.000000 0.78044(2) 0.250000
O1_3 O 0.87121(14) 0.74950(6) 0.28395(8)
O3_5 O 0.46130(15) 0.32551(6) 0.68991(9)
O4_5 O 0.60322(13) 0.31126(6) 0.69404(8)
S1_5 S 0.72342(5) 0.58345(2) 0.43762(3)
S2_5 S 0.64148(5) 0.49907(2) 0.56216(3)
C21_5 C 0.9166(2) 0.73046(8) 0.68449(11)
C22_5 C 0.88124(19) 0.70310(8) 0.64435(12)
C23_5 C 0.7900(2) 0.69694(9) 0.64136(12)
H17_5 H 0.751237 0.711077 0.665088
C24_5 C 0.7545(2) 0.67064(8) 0.60453(11)
H18_5 H 0.691981 0.666602 0.603106
C25_5 C 0.81096(19) 0.65027(7) 0.56978(11)
C26_5 C 0.90370(19) 0.65481(8) 0.57287(12)
H19_5 H 0.942334 0.639872 0.550230
C27_5 C 0.9376(2) 0.68169(8) 0.60986(11)
C28_5 C 0.77533(19) 0.62178(8) 0.52746(12)
C29_5 C 0.6181(2) 0.45572(9) 0.46981(12)
C30_5 C 0.608(3) 0.4243(9) 0.4372(14)
C31_5 C 0.6707(4) 0.40739(16) 0.4002(2)
H21_5 H 0.729770 0.416905 0.400822
C32_5 C 0.6531(4) 0.37860(17) 0.3639(3)
H22_5 H 0.698886 0.368206 0.340904
C33_5 C 0.5626(9) 0.3640(4) 0.3610(4)
C34_5 C 0.5049(4) 0.37493(19) 0.4017(3)
H23_5 H 0.450537 0.361581 0.405941
C35_5 C 0.5225(4) 0.40553(17) 0.4383(2)
H24_5 H 0.477740 0.413830 0.463913
C36_5 C 0.5406(2) 0.33115(8) 0.32659(13)
O5_5 O 0.87121(14) 0.74950(6) 0.71605(8)
O7_3 O 0.46130(15) 0.32551(6) 0.31009(9)
O8_3 O 0.60322(13) 0.31126(6) 0.30596(8)
S3_5 S 0.72342(5) 0.58345(2) 0.56238(3)
S4_5 S 0.64148(5) 0.49907(2) 0.43784(3)
In2_2 In 0.500000 0.28044(2) 0.250000
In3_4 In 1.000000 0.78044(2) 0.750000
In4_2 In 0.500000 0.28044(2) 0.750000
O10_3 O 0.99625(13) 0.73629(7) 0.18370(8)
O11_2 O 0.96130(15) 0.82551(6) 0.31009(9)
O14_2 O 0.89678(13) 0.81126(6) 0.19404(8)
C3_6 C 0.0834(2) 0.73046(8) 0.18449(11)
C4_6 C 0.11876(19) 0.70310(8) 0.14435(12)
C5_6 C 0.2100(2) 0.69694(9) 0.14136(12)
H9_6 H 0.248763 0.711077 0.165088
C6_6 C 0.2455(2) 0.67064(8) 0.10453(11)
H10_6 H 0.308019 0.666602 0.103106
C7_6 C 0.18904(19) 0.65027(7) 0.06978(11)
C8_6 C 0.09630(19) 0.65481(8) 0.07287(12)
H11_6 H 0.057666 0.639872 0.050230
C9_6 C 0.0624(2) 0.68169(8) 0.10986(11)
C10_6 C 0.22467(19) 0.62178(8) 0.02746(12)
C11_8 C 0.3030(3) 0.55920(13) 0.000000
C12_8 C 0.3371(3) 0.52299(11) 0.000000
S1_6 S 0.27658(5) 0.58345(2) 0.06238(3)
C29_6 C 0.3819(2) 0.45572(9) 0.03019(12)
C30_6 C 0.392(3) 0.4243(9) 0.0628(14)
C31_6 C 0.3293(4) 0.40739(16) 0.0998(2)
H21_6 H 0.270230 0.416905 0.099178
C32_6 C 0.3469(4) 0.37860(17) 0.1361(3)
H22_6 H 0.301114 0.368206 0.159096
C33_6 C 0.4374(9) 0.3640(4) 0.1390(4)
C34_6 C 0.4951(4) 0.37493(19) 0.0983(3)
H23_6 H 0.549463 0.361581 0.094059
C35_6 C 0.4775(4) 0.40553(17) 0.0617(2)
H24_6 H 0.522260 0.413830 0.036087
C36_6 C 0.4594(2) 0.33115(8) 0.17341(13)
O7_4 O 0.53870(15) 0.32551(6) 0.18991(9)
O8_4 O 0.39678(13) 0.31126(6) 0.19404(8)
S4_6 S 0.35852(5) 0.49907(2) 0.06216(3)
C11_9 C 0.3030(3) 0.55920(13) 1.000000
C12_9 C 0.3371(3) 0.52299(11) 1.000000
C13_6 C 0.3819(2) 0.45572(9) 0.96981(12)
C14_6 C 0.392(3) 0.4243(9) 0.9372(14)
C15_6 C 0.3293(4) 0.40739(16) 0.9002(2)
H13_6 H 0.270230 0.416905 0.900822
C16_6 C 0.3469(4) 0.37860(17) 0.8639(3)
H14_6 H 0.301114 0.368206 0.840904
C17_6 C 0.4374(9) 0.3640(4) 0.8610(4)
C18_6 C 0.4951(4) 0.37493(19) 0.9017(3)
H15_6 H 0.549463 0.361581 0.905941
C19_6 C 0.4775(4) 0.40553(17) 0.9383(2)
H16_6 H 0.522260 0.413830 0.963913
C20_6 C 0.4594(2) 0.33115(8) 0.82659(13)
O3_6 O 0.53870(15) 0.32551(6) 0.81009(9)
O4_6 O 0.39678(13) 0.31126(6) 0.80596(8)
S2_6 S 0.35852(5) 0.49907(2) 0.93784(3)
C21_6 C 0.0834(2) 0.73046(8) 0.81551(11)
C22_6 C 0.11876(19) 0.70310(8) 0.85565(12)
C23_6 C 0.2100(2) 0.69694(9) 0.85864(12)
H17_6 H 0.248763 0.711077 0.834912
C24_6 C 0.2455(2) 0.67064(8) 0.89547(11)
H18_6 H 0.308019 0.666602 0.896894
C25_6 C 0.18904(19) 0.65027(7) 0.93022(11)
C26_6 C 0.09630(19) 0.65481(8) 0.92713(12)
H19_6 H 0.057666 0.639872 0.949770
C27_6 C 0.0624(2) 0.68169(8) 0.89014(11)
C28_6 C 0.22467(19) 0.62178(8) 0.97254(12)
O5_6 O 0.12879(14) 0.74950(6) 0.78395(8)
S3_6 S 0.27658(5) 0.58345(2) 0.93762(3)
H12_6 H 0.999839 0.685576 0.111747
H20_6 H 0.999839 0.685576 0.888253
O6_6 O 0.99625(13) 0.73629(7) 0.81630(8)
C3_7 C 0.4166(2) 0.23046(8) 0.31551(11)
C4_7 C 0.38124(19) 0.20310(8) 0.35565(12)
C5_7 C 0.2900(2) 0.19694(9) 0.35864(12)
H9_7 H 0.251237 0.211077 0.334912
C6_7 C 0.2545(2) 0.17064(8) 0.39547(11)
H10_7 H 0.191981 0.166602 0.396894
C7_7 C 0.31096(19) 0.15027(7) 0.43022(11)
C8_7 C 0.40370(19) 0.15481(8) 0.42713(12)
H11_7 H 0.442334 0.139872 0.449770
C9_7 C 0.4376(2) 0.18169(8) 0.39014(11)
H12_7 H 0.500161 0.185576 0.388253
C10_7 C 0.27533(19) 0.12178(8) 0.47254(12)
C11_10 C 0.1970(3) 0.05920(13) 0.500000
C12_10 C 0.1629(3) 0.02299(11) 0.500000
O1_4 O 0.37121(14) 0.24950(6) 0.28395(8)
O2_4 O 0.50375(13) 0.23629(7) 0.31630(8)
S1_7 S 0.22342(5) 0.08345(2) 0.43762(3)
C21_7 C 0.4166(2) 0.23046(8) 0.68449(11)
C22_7 C 0.38124(19) 0.20310(8) 0.64435(12)
C23_7 C 0.2900(2) 0.19694(9) 0.64136(12)
H17_7 H 0.251237 0.211077 0.665088
C24_7 C 0.2545(2) 0.17064(8) 0.60453(11)
H18_7 H 0.191981 0.166602 0.603106
C25_7 C 0.31096(19) 0.15027(7) 0.56978(11)
C26_7 C 0.40370(19) 0.15481(8) 0.57287(12)
H19_7 H 0.442334 0.139872 0.550230
C27_7 C 0.4376(2) 0.18169(8) 0.60986(11)
H20_7 H 0.500161 0.185576 0.611747
C28_7 C 0.27533(19) 0.12178(8) 0.52746(12)
O5_7 O 0.37121(14) 0.24950(6) 0.71605(8)
O6_7 O 0.50375(13) 0.23629(7) 0.68370(8)
S3_7 S 0.22342(5) 0.08345(2) 0.56238(3)
O9_4 O 0.62879(14) 0.24950(6) 0.21605(8)
O10_4 O 0.49625(13) 0.23629(7) 0.18370(8)
C13_7 C 0.1181(2) 0.95572(9) 0.53019(12)
C14_7 C 0.108(3) 0.9243(9) 0.5628(14)
C15_7 C 0.1707(4) 0.90739(16) 0.5998(2)
H13_7 H 0.229770 0.916905 0.599178
C16_7 C 0.1531(4) 0.87860(17) 0.6361(3)
H14_7 H 0.198886 0.868206 0.659096
C17_7 C 0.0626(9) 0.8640(4) 0.6390(4)
C18_7 C 0.0049(4) 0.87493(19) 0.5983(3)
C19_7 C 0.0225(4) 0.90553(17) 0.5617(2)
C20_7 C 0.0406(2) 0.83115(8) 0.67341(13)
O4_7 O 0.10322(13) 0.81126(6) 0.69404(8)
S2_7 S 0.14148(5) 0.99907(2) 0.56216(3)
C29_7 C 0.1181(2) 0.95572(9) 0.46981(12)
C30_7 C 0.108(3) 0.9243(9) 0.4372(14)
C31_7 C 0.1707(4) 0.90739(16) 0.4002(2)
H21_7 H 0.229770 0.916905 0.400822
C32_7 C 0.1531(4) 0.87860(17) 0.3639(3)
H22_7 H 0.198886 0.868206 0.340904
C33_7 C 0.0626(9) 0.8640(4) 0.3610(4)
C34_7 C 0.0049(4) 0.87493(19) 0.4017(3)
C35_7 C 0.0225(4) 0.90553(17) 0.4383(2)
C36_7 C 0.0406(2) 0.83115(8) 0.32659(13)
S4_7 S 0.14148(5) 0.99907(2) 0.43784(3)
H15_7 H 0.950537 0.861581 0.594059
H16_7 H 0.977740 0.913830 0.536087
O3_7 O 0.96130(15) 0.82551(6) 0.68991(9)
H23_7 H 0.950537 0.861581 0.405941
H24_7 H 0.977740 0.913830 0.463913
H23_8 H 0.049463 0.861581 0.094059
H24_8 H 0.022260 0.913830 0.036087
H15_8 H 0.049463 0.861581 0.905941
H16_8 H 0.022260 0.913830 0.963913
O3_8 O 0.03870(15) 0.82551(6) 0.81009(9)
C3_8 C 0.5834(2) 0.23046(8) 0.18449(11)
C4_8 C 0.61876(19) 0.20310(8) 0.14435(12)
C5_8 C 0.7100(2) 0.19694(9) 0.14136(12)
H9_8 H 0.748763 0.211077 0.165088
C6_8 C 0.7455(2) 0.17064(8) 0.10453(11)
H10_8 H 0.808019 0.166602 0.103106
C7_8 C 0.68904(19) 0.15027(7) 0.06978(11)
C8_8 C 0.59630(19) 0.15481(8) 0.07287(12)
H11_8 H 0.557666 0.139872 0.050230
C9_8 C 0.5624(2) 0.18169(8) 0.10986(11)
H12_8 H 0.499839 0.185576 0.111747
C10_8 C 0.72467(19) 0.12178(8) 0.02746(12)
C11_11 C 0.8030(3) 0.05920(13) 0.000000
C12_11 C 0.8371(3) 0.02299(11) 0.000000
S1_8 S 0.77658(5) 0.08345(2) 0.06238(3)
C11_12 C 0.8030(3) 0.05920(13) 1.000000
C12_12 C 0.8371(3) 0.02299(11) 1.000000
C21_8 C 0.5834(2) 0.23046(8) 0.81551(11)
C22_8 C 0.61876(19) 0.20310(8) 0.85565(12)
C23_8 C 0.7100(2) 0.19694(9) 0.85864(12)
H17_8 H 0.748763 0.211077 0.834912
C24_8 C 0.7455(2) 0.17064(8) 0.89547(11)
H18_8 H 0.808019 0.166602 0.896894
C25_8 C 0.68904(19) 0.15027(7) 0.93022(11)
C26_8 C 0.59630(19) 0.15481(8) 0.92713(12)
H19_8 H 0.557666 0.139872 0.949770
C27_8 C 0.5624(2) 0.18169(8) 0.89014(11)
H20_8 H 0.499839 0.185576 0.888253
C28_8 C 0.72467(19) 0.12178(8) 0.97254(12)
O5_8 O 0.62879(14) 0.24950(6) 0.78395(8)
O6_8 O 0.49625(13) 0.23629(7) 0.81630(8)
S3_8 S 0.77658(5) 0.08345(2) 0.93762(3)
C29_8 C 0.8819(2) 0.95572(9) 0.03019(12)
C30_8 C 0.892(3) 0.9243(9) 0.0628(14)
C31_8 C 0.8293(4) 0.90739(16) 0.0998(2)
H21_8 H 0.770230 0.916905 0.099178
C32_8 C 0.8469(4) 0.87860(17) 0.1361(3)
H22_8 H 0.801114 0.868206 0.159096
C33_8 C 0.9374(9) 0.8640(4) 0.1390(4)
C34_8 C 0.9951(4) 0.87493(19) 0.0983(3)
C35_8 C 0.9775(4) 0.90553(17) 0.0617(2)
C36_8 C 0.9594(2) 0.83115(8) 0.17341(13)
S4_8 S 0.85852(5) 0.99907(2) 0.06216(3)
C13_8 C 0.8819(2) 0.95572(9) 0.96981(12)
C14_8 C 0.892(3) 0.9243(9) 0.9372(14)
C15_8 C 0.8293(4) 0.90739(16) 0.9002(2)
H13_8 H 0.770230 0.916905 0.900822
C16_8 C 0.8469(4) 0.87860(17) 0.8639(3)
H14_8 H 0.801114 0.868206 0.840904
C17_8 C 0.9374(9) 0.8640(4) 0.8610(4)
C18_8 C 0.9951(4) 0.87493(19) 0.9017(3)
C19_8 C 0.9775(4) 0.90553(17) 0.9383(2)
C20_8 C 0.9594(2) 0.83115(8) 0.82659(13)
O4_8 O 0.89678(13) 0.81126(6) 0.80596(8)
S2_8 S 0.85852(5) 0.99907(2) 0.93784(3)
loop_
_geom_bond_atom_site_label_1
_geom_bond_atom_site_label_2
_geom_bond_site_symmetry_1
_geom_bond_site_symmetry_2
C1 H1 1_555 1_555
H2 C1 1_555 1_555
H3 C1 1_555 1_555
C2 H4 1_555 1_555
H5 C2 1_555 1_555
H6 C2 1_555 1_555
N1 C1 1_555 1_555
H7 N1 1_555 1_555
H8 N1 1_555 1_555
C2 N1 1_555 1_555
C1_2 H1_2 1_555 1_555
H2_2 C1_2 1_555 1_555
H3_2 C1_2 1_555 1_555
C2_2 H4_2 1_555 1_555
H5_2 C2_2 1_555 1_555
H6_2 C2_2 1_555 1_555
N1_2 C1_2 1_555 1_555
H7_2 N1_2 1_555 1_555
H8_2 N1_2 1_555 1_555
C2_2 N1_2 1_555 1_555
C1_3 H1_3 1_555 1_555
H2_3 C1_3 1_555 1_555
H3_3 C1_3 1_555 1_555
C2_3 H4_3 1_555 1_555
H5_3 C2_3 1_555 1_555
H6_3 C2_3 1_555 1_555
N1_3 C1_3 1_555 1_555
H7_3 N1_3 1_555 1_555
H8_3 N1_3 1_555 1_555
C2_3 N1_3 1_555 1_555
C1_4 H1_4 1_555 1_555
H2_4 C1_4 1_555 1_555
H3_4 C1_4 1_555 1_555
C2_4 H4_4 1_555 1_555
H5_4 C2_4 1_555 1_555
H6_4 C2_4 1_555 1_555
N1_4 C1_4 1_555 1_555
H7_4 N1_4 1_555 1_555
H8_4 N1_4 1_555 1_555
C2_4 N1_4 1_555 1_555
C1_5 H1_5 1_555 1_555
H2_5 C1_5 1_555 1_555
H3_5 C1_5 1_555 1_555
C2_5 H4_5 1_555 1_555
H5_5 C2_5 1_555 1_555
H6_5 C2_5 1_555 1_555
N1_5 C1_5 1_555 1_555
H7_5 N1_5 1_555 1_555
H8_5 N1_5 1_555 1_555
C2_5 N1_5 1_555 1_555
C1_6 H1_6 1_555 1_555
H2_6 C1_6 1_555 1_555
H3_6 C1_6 1_555 1_555
C2_6 H4_6 1_555 1_555
H5_6 C2_6 1_555 1_555
H6_6 C2_6 1_555 1_555
N1_6 C1_6 1_555 1_555
H7_6 N1_6 1_555 1_555
H8_6 N1_6 1_555 1_555
C2_6 N1_6 1_555 1_555
C1_7 H1_7 1_555 1_555
H2_7 C1_7 1_555 1_555
H3_7 C1_7 1_555 1_555
C2_7 H4_7 1_555 1_555
H5_7 C2_7 1_555 1_555
H6_7 C2_7 1_555 1_555
N1_7 C1_7 1_555 1_555
H7_7 N1_7 1_555 1_555
H8_7 N1_7 1_555 1_555
C2_7 N1_7 1_555 1_555
C1_8 H1_8 1_555 1_555
H2_8 C1_8 1_555 1_555
H3_8 C1_8 1_555 1_555
C2_8 H4_8 1_555 1_555
H5_8 C2_8 1_555 1_555
H6_8 C2_8 1_555 1_555
N1_8 C1_8 1_555 1_555
H7_8 N1_8 1_555 1_555
H8_8 N1_8 1_555 1_555
C2_8 N1_8 1_555 1_555
C1_9 H1_9 1_555 1_555
H2_9 C1_9 1_555 1_555
H3_9 C1_9 1_555 1_555
C2_9 H4_9 1_555 1_555
H5_9 C2_9 1_555 1_555
H6_9 C2_9 1_555 1_555
N1_9 C1_9 1_555 1_555
H7_9 N1_9 1_555 1_555
H8_9 N1_9 1_555 1_555
C2_9 N1_9 1_555 1_555
C1_10 H1_10 1_555 1_555
H2_10 C1_10 1_555 1_555
H3_10 C1_10 1_555 1_555
C2_10 H4_10 1_555 1_555
H5_10 C2_10 1_555 1_555
H6_10 C2_10 1_555 1_555
N1_10 C1_10 1_555 1_555
H7_10 N1_10 1_555 1_555
H8_10 N1_10 1_555 1_555
C2_10 N1_10 1_555 1_555
C1_11 H1_11 1_555 1_555
H2_11 C1_11 1_555 1_555
H3_11 C1_11 1_555 1_555
C2_11 H4_11 1_555 1_555
H5_11 C2_11 1_555 1_555
H6_11 C2_11 1_555 1_555
N1_11 C1_11 1_555 1_555
H7_11 N1_11 1_555 1_555
H8_11 N1_11 1_555 1_555
C2_11 N1_11 1_555 1_555
C1_12 H1_12 1_555 1_555
H2_12 C1_12 1_555 1_555
H3_12 C1_12 1_555 1_555
C2_12 H4_12 1_555 1_555
H5_12 C2_12 1_555 1_555
H6_12 C2_12 1_555 1_555
N1_12 C1_12 1_555 1_555
H7_12 N1_12 1_555 1_555
H8_12 N1_12 1_555 1_555
C2_12 N1_12 1_555 1_555
C1_13 H1_13 1_555 1_555
H2_13 C1_13 1_555 1_555
H3_13 C1_13 1_555 1_555
C2_13 H4_13 1_555 1_555
H5_13 C2_13 1_555 1_555
H6_13 C2_13 1_555 1_555
N1_13 C1_13 1_555 1_555
H7_13 N1_13 1_555 1_555
H8_13 N1_13 1_555 1_555
C2_13 N1_13 1_555 1_555
C1_14 H1_14 1_555 1_555
H2_14 C1_14 1_555 1_555
H3_14 C1_14 1_555 1_555
C2_14 H4_14 1_555 1_555
H5_14 C2_14 1_555 1_555
H6_14 C2_14 1_555 1_555
N1_14 C1_14 1_555 1_555
H7_14 N1_14 1_555 1_555
H8_14 N1_14 1_555 1_555
C2_14 N1_14 1_555 1_555
C1_15 H1_15 1_555 1_555
H2_15 C1_15 1_555 1_555
H3_15 C1_15 1_555 1_555
C2_15 H4_15 1_555 1_555
H5_15 C2_15 1_555 1_555
H6_15 C2_15 1_555 1_555
N1_15 C1_15 1_555 1_555
H7_15 N1_15 1_555 1_555
H8_15 N1_15 1_555 1_555
C2_15 N1_15 1_555 1_555
C1_16 H1_16 1_555 1_555
H2_16 C1_16 1_555 1_555
H3_16 C1_16 1_555 1_555
C2_16 H4_16 1_555 1_555
H5_16 C2_16 1_555 1_555
H6_16 C2_16 1_555 1_555
N1_16 C1_16 1_555 1_555
H7_16 N1_16 1_555 1_555
H8_16 N1_16 1_555 1_555
C2_16 N1_16 1_555 1_555
I1 I2 1_555 1_555
I3 I1 1_555 1_555
I1_2 I2_2 1_555 1_555
I3_2 I1_2 1_555 1_555
I1_3 I2_3 1_555 1_555
I3_3 I1_3 1_555 1_555
I1_4 I2_4 1_555 1_555
I3_4 I1_4 1_555 1_555
I1_5 I2_5 1_555 1_555
I3_5 I1_5 1_555 1_555
I1_6 I2_6 1_555 1_555
I3_6 I1_6 1_555 1_555
C3 C4 1_555 1_555
C4 C5 1_555 1_555
C5 H9 1_555 1_555
C6 C5 1_555 1_555
H10 C6 1_555 1_555
C7 C6 1_555 1_555
C8 C7 1_555 1_555
H11 C8 1_555 1_555
C9 C4 1_555 1_555
C10 C7 1_555 1_555
C11 C12 1_555 1_555
C12 S2 1_555 1_555
C13 C14 1_555 1_555
C14 C15 1_555 1_555
C15 H13 1_555 1_555
C16 C15 1_555 1_555
H14 C16 1_555 1_555
C17 C16 1_555 1_555
C18 C17 1_555 1_555
H15 C18 1_555 1_555
C19 C14 1_555 1_555
H16 C19 1_555 1_555
C20 C17 1_555 1_555
In1 O1 1_555 1_555
O1 C3 1_555 1_555
O3 C20 1_555 1_555
O4 C20 1_555 1_555
S1 C10 1_555 1_555
S2 C13 1_555 1_555
C21 C22 1_555 1_555
C22 C23 1_555 1_555
C23 H17 1_555 1_555
C24 C23 1_555 1_555
H18 C24 1_555 1_555
C25 C24 1_555 1_555
C26 C25 1_555 1_555
H19 C26 1_555 1_555
C27 C22 1_555 1_555
C28 C10 1_555 1_555
C29 C13 1_555 1_555
C30 C29 1_555 1_555
C31 C30 1_555 1_555
H21 C31 1_555 1_555
C32 C31 1_555 1_555
H22 C32 1_555 1_555
C33 C32 1_555 1_555
C34 C33 1_555 1_555
H23 C34 1_555 1_555
C35 C30 1_555 1_555
H24 C35 1_555 1_555
C36 C33 1_555 1_555
O5 C21 1_555 1_555
O7 C36 1_555 1_555
O8 C36 1_555 1_555
S3 C11 1_555 1_555
S4 C12 1_555 1_555
In2 O7 1_555 1_555
In3 O5 1_555 1_555
In4 O3 1_555 1_555
O10 In1 1_555 1_555
O11 In1 1_555 1_555
O14 In1 1_555 1_555
C8 C9 1_555 1_555
C11 S1 1_555 1_555
C18 C19 1_555 1_555
O4 In4 1_555 1_555
C25 C28 1_555 1_555
C26 C27 1_555 1_555
C28 S3 1_555 1_555
C29 S4 1_555 1_555
C34 C35 1_555 1_555
O8 In2 1_555 1_555
O9 In1_2 1_555 1_555
O12 In1_2 1_555 1_555
O13 In1_2 1_555 1_555
In1_2 O2 1_555 1_555
O6 In3_2 1_555 1_555
O6_2 In3 1_555 1_555
C3_2 C4_2 1_555 1_555
C4_2 C5_2 1_555 1_555
C5_2 H9_2 1_555 1_555
C6_2 C5_2 1_555 1_555
H10_2 C6_2 1_555 1_555
C7_2 C6_2 1_555 1_555
C8_2 C7_2 1_555 1_555
H11_2 C8_2 1_555 1_555
C9_2 C4_2 1_555 1_555
C10_2 C7_2 1_555 1_555
C11_2 C12_2 1_555 1_555
O9 C3_2 1_555 1_555
S1_2 C10_2 1_555 1_555
C30_2 C29_2 1_555 1_555
C31_2 C30_2 1_555 1_555
H21_2 C31_2 1_555 1_555
C32_2 C31_2 1_555 1_555
H22_2 C32_2 1_555 1_555
C33_2 C32_2 1_555 1_555
C34_2 C33_2 1_555 1_555
H23_2 C34_2 1_555 1_555
C35_2 C30_2 1_555 1_555
H24_2 C35_2 1_555 1_555
C36_2 C33_2 1_555 1_555
O7_2 C36_2 1_555 1_555
O8_2 C36_2 1_555 1_555
S4_2 C12_2 1_555 1_555
In2 O7_2 1_555 1_555
C8_2 C9_2 1_555 1_555
C11_2 S1_2 1_555 1_555
C29_2 S4_2 1_555 1_555
C34_2 C35_2 1_555 1_555
O8_2 In2 1_555 1_555
C11_3 C12_3 1_555 1_555
C12_3 S2_2 1_555 1_555
C13_2 C14_2 1_555 1_555
C14_2 C15_2 1_555 1_555
C15_2 H13_2 1_555 1_555
C16_2 C15_2 1_555 1_555
H14_2 C16_2 1_555 1_555
C17_2 C16_2 1_555 1_555
C18_2 C17_2 1_555 1_555
H15_2 C18_2 1_555 1_555
C19_2 C14_2 1_555 1_555
H16_2 C19_2 1_555 1_555
C20_2 C17_2 1_555 1_555
O3_2 C20_2 1_555 1_555
O4_2 C20_2 1_555 1_555
S2_2 C13_2 1_555 1_555
C21_2 C22_2 1_555 1_555
C22_2 C23_2 1_555 1_555
C23_2 H17_2 1_555 1_555
C24_2 C23_2 1_555 1_555
H18_2 C24_2 1_555 1_555
C25_2 C24_2 1_555 1_555
C26_2 C25_2 1_555 1_555
H19_2 C26_2 1_555 1_555
C27_2 C22_2 1_555 1_555
O5_2 C21_2 1_555 1_555
S3_2 C11_3 1_555 1_555
In3_2 O5_2 1_555 1_555
In4 O3_2 1_555 1_555
C18_2 C19_2 1_555 1_555
O4_2 In4 1_555 1_555
C25_2 C28_2 1_555 1_555
C26_2 C27_2 1_555 1_555
C28_2 S3_2 1_555 1_555
In3 O3_3 1_555 1_555
C13_3 C14_3 1_555 1_555
C14_3 C15_3 1_555 1_555
C15_3 H13_3 1_555 1_555
C16_3 C15_3 1_555 1_555
H14_3 C16_3 1_555 1_555
C17_3 C16_3 1_555 1_555
C18_3 C17_3 1_555 1_555
C19_3 C14_3 1_555 1_555
C20_3 C17_3 1_555 1_555
O4_3 C20_3 1_555 1_555
S2_3 C13_3 1_555 1_555
C29_3 C13_3 1_555 1_555
C30_3 C29_3 1_555 1_555
C31_3 C30_3 1_555 1_555
H21_3 C31_3 1_555 1_555
C32_3 C31_3 1_555 1_555
H22_3 C32_3 1_555 1_555
C33_3 C32_3 1_555 1_555
C34_3 C33_3 1_555 1_555
C35_3 C30_3 1_555 1_555
C36_3 C33_3 1_555 1_555
O13 C36_3 1_555 1_555
C18_3 C19_3 1_555 1_555
O4_3 In3_2 1_555 1_555
C29_3 S4_3 1_555 1_555
C34_3 C35_3 1_555 1_555
C3_3 C4_3 1_555 1_555
C4_3 C5_3 1_555 1_555
C5_3 H9_3 1_555 1_555
C6_3 C5_3 1_555 1_555
H10_3 C6_3 1_555 1_555
C7_3 C6_3 1_555 1_555
C8_3 C7_3 1_555 1_555
H11_3 C8_3 1_555 1_555
C9_3 C4_3 1_555 1_555
H12_3 C9_3 1_555 1_555
C10_3 C7_3 1_555 1_555
C11_4 C12_4 1_555 1_555
In2 O1_2 1_555 1_555
O1_2 C3_3 1_555 1_555
O2_2 C3_3 1_555 1_555
S1_3 C10_3 1_555 1_555
C21_3 C22_3 1_555 1_555
C22_3 C23_3 1_555 1_555
C23_3 H17_3 1_555 1_555
C24_3 C23_3 1_555 1_555
H18_3 C24_3 1_555 1_555
C25_3 C24_3 1_555 1_555
C26_3 C25_3 1_555 1_555
H19_3 C26_3 1_555 1_555
C27_3 C22_3 1_555 1_555
H20_3 C27_3 1_555 1_555
C28_3 C10_3 1_555 1_555
O5_3 C21_3 1_555 1_555
O6_3 C21_3 1_555 1_555
S3_3 C11_4 1_555 1_555
In4 O5_3 1_555 1_555
O9_2 In2 1_555 1_555
O10_2 In2 1_555 1_555
C8_3 C9_3 1_555 1_555
C11_4 S1_3 1_555 1_555
In2 O2_2 1_555 1_555
C25_3 C28_3 1_555 1_555
C26_3 C27_3 1_555 1_555
C28_3 S3_3 1_555 1_555
O6_3 In4 1_555 1_555
C30_4 C29_4 1_555 1_555
C31_4 C30_4 1_555 1_555
H21_4 C31_4 1_555 1_555
C32_4 C31_4 1_555 1_555
H22_4 C32_4 1_555 1_555
C33_4 C32_4 1_555 1_555
C34_4 C33_4 1_555 1_555
C35_4 C30_4 1_555 1_555
C36_4 C33_4 1_555 1_555
O14 C36_4 1_555 1_555
C29_4 S4_4 1_555 1_555
C34_4 C35_4 1_555 1_555
C13_4 C14_4 1_555 1_555
C14_4 C15_4 1_555 1_555
C15_4 H13_4 1_555 1_555
C16_4 C15_4 1_555 1_555
H14_4 C16_4 1_555 1_555
C17_4 C16_4 1_555 1_555
C18_4 C17_4 1_555 1_555
C19_4 C14_4 1_555 1_555
C20_4 C17_4 1_555 1_555
O4_4 C20_4 1_555 1_555
S2_4 C13_4 1_555 1_555
C18_4 C19_4 1_555 1_555
O4_4 In3 1_555 1_555
C3_4 C4_4 1_555 1_555
C4_4 C5_4 1_555 1_555
C5_4 H9_4 1_555 1_555
C6_4 C5_4 1_555 1_555
H10_4 C6_4 1_555 1_555
C7_4 C6_4 1_555 1_555
C8_4 C7_4 1_555 1_555
H11_4 C8_4 1_555 1_555
C9_4 C4_4 1_555 1_555
H12_4 C9_4 1_555 1_555
C10_4 C7_4 1_555 1_555
C11_5 C12_5 1_555 1_555
O9_2 C3_4 1_555 1_555
O10_2 C3_4 1_555 1_555
S1_4 C10_4 1_555 1_555
C8_4 C9_4 1_555 1_555
C11_5 S1_4 1_555 1_555
C11_6 C12_6 1_555 1_555
C21_4 C22_4 1_555 1_555
C22_4 C23_4 1_555 1_555
C23_4 H17_4 1_555 1_555
C24_4 C23_4 1_555 1_555
H18_4 C24_4 1_555 1_555
C25_4 C24_4 1_555 1_555
C26_4 C25_4 1_555 1_555
H19_4 C26_4 1_555 1_555
C27_4 C22_4 1_555 1_555
H20_4 C27_4 1_555 1_555
O5_4 C21_4 1_555 1_555
O6_4 C21_4 1_555 1_555
S3_4 C11_6 1_555 1_555
In4 O5_4 1_555 1_555
C25_4 C28_4 1_555 1_555
C26_4 C27_4 1_555 1_555
C28_4 S3_4 1_555 1_555
O6_4 In4 1_555 1_555
In3_2 O3_4 1_555 1_555
O9_3 In1_3 1_555 1_555
O12_2 In1_3 1_555 1_555
O13_2 In1_3 1_555 1_555
In1_3 O2_3 1_555 1_555
O6_5 In3_3 1_555 1_555
C3_5 C4_5 1_555 1_555
C4_5 C5_5 1_555 1_555
C5_5 H9_5 1_555 1_555
C6_5 C5_5 1_555 1_555
H10_5 C6_5 1_555 1_555
C7_5 C6_5 1_555 1_555
C8_5 C7_5 1_555 1_555
H11_5 C8_5 1_555 1_555
C9_5 C4_5 1_555 1_555
C10_5 C7_5 1_555 1_555
C11_7 C12_7 1_555 1_555
C12_7 S2_5 1_555 1_555
C13_5 C14_5 1_555 1_555
C14_5 C15_5 1_555 1_555
C15_5 H13_5 1_555 1_555
C16_5 C15_5 1_555 1_555
H14_5 C16_5 1_555 1_555
C17_5 C16_5 1_555 1_555
C18_5 C17_5 1_555 1_555
H15_5 C18_5 1_555 1_555
C19_5 C14_5 1_555 1_555
H16_5 C19_5 1_555 1_555
C20_5 C17_5 1_555 1_555
In1_4 O1_3 1_555 1_555
O1_3 C3_5 1_555 1_555
O3_5 C20_5 1_555 1_555
O4_5 C20_5 1_555 1_555
S1_5 C10_5 1_555 1_555
S2_5 C13_5 1_555 1_555
C21_5 C22_5 1_555 1_555
C22_5 C23_5 1_555 1_555
C23_5 H17_5 1_555 1_555
C24_5 C23_5 1_555 1_555
H18_5 C24_5 1_555 1_555
C25_5 C24_5 1_555 1_555
C26_5 C25_5 1_555 1_555
H19_5 C26_5 1_555 1_555
C27_5 C22_5 1_555 1_555
C28_5 C10_5 1_555 1_555
C29_5 C13_5 1_555 1_555
C30_5 C29_5 1_555 1_555
C31_5 C30_5 1_555 1_555
H21_5 C31_5 1_555 1_555
C32_5 C31_5 1_555 1_555
H22_5 C32_5 1_555 1_555
C33_5 C32_5 1_555 1_555
C34_5 C33_5 1_555 1_555
H23_5 C34_5 1_555 1_555
C35_5 C30_5 1_555 1_555
H24_5 C35_5 1_555 1_555
C36_5 C33_5 1_555 1_555
O5_5 C21_5 1_555 1_555
O7_3 C36_5 1_555 1_555
O8_3 C36_5 1_555 1_555
S3_5 C11_7 1_555 1_555
S4_5 C12_7 1_555 1_555
In2_2 O7_3 1_555 1_555
In3_4 O5_5 1_555 1_555
In4_2 O3_5 1_555 1_555
O10_3 In1_4 1_555 1_555
O11_2 In1_4 1_555 1_555
O14_2 In1_4 1_555 1_555
C8_5 C9_5 1_555 1_555
C11_7 S1_5 1_555 1_555
C18_5 C19_5 1_555 1_555
O4_5 In4_2 1_555 1_555
C25_5 C28_5 1_555 1_555
C26_5 C27_5 1_555 1_555
C28_5 S3_5 1_555 1_555
C29_5 S4_5 1_555 1_555
C34_5 C35_5 1_555 1_555
O8_3 In2_2 1_555 1_555
C3_6 C4_6 1_555 1_555
C4_6 C5_6 1_555 1_555
C5_6 H9_6 1_555 1_555
C6_6 C5_6 1_555 1_555
H10_6 C6_6 1_555 1_555
C7_6 C6_6 1_555 1_555
C8_6 C7_6 1_555 1_555
H11_6 C8_6 1_555 1_555
C9_6 C4_6 1_555 1_555
C10_6 C7_6 1_555 1_555
C11_8 C12_8 1_555 1_555
O9_3 C3_6 1_555 1_555
S1_6 C10_6 1_555 1_555
C30_6 C29_6 1_555 1_555
C31_6 C30_6 1_555 1_555
H21_6 C31_6 1_555 1_555
C32_6 C31_6 1_555 1_555
H22_6 C32_6 1_555 1_555
C33_6 C32_6 1_555 1_555
C34_6 C33_6 1_555 1_555
H23_6 C34_6 1_555 1_555
C35_6 C30_6 1_555 1_555
H24_6 C35_6 1_555 1_555
C36_6 C33_6 1_555 1_555
O7_4 C36_6 1_555 1_555
O8_4 C36_6 1_555 1_555
S4_6 C12_8 1_555 1_555
In2_2 O7_4 1_555 1_555
C8_6 C9_6 1_555 1_555
C11_8 S1_6 1_555 1_555
C29_6 S4_6 1_555 1_555
C34_6 C35_6 1_555 1_555
O8_4 In2_2 1_555 1_555
C11_9 C12_9 1_555 1_555
C12_9 S2_6 1_555 1_555
C13_6 C14_6 1_555 1_555
C14_6 C15_6 1_555 1_555
C15_6 H13_6 1_555 1_555
C16_6 C15_6 1_555 1_555
H14_6 C16_6 1_555 1_555
C17_6 C16_6 1_555 1_555
C18_6 C17_6 1_555 1_555
H15_6 C18_6 1_555 1_555
C19_6 C14_6 1_555 1_555
H16_6 C19_6 1_555 1_555
C20_6 C17_6 1_555 1_555
O3_6 C20_6 1_555 1_555
O4_6 C20_6 1_555 1_555
S2_6 C13_6 1_555 1_555
C21_6 C22_6 1_555 1_555
C22_6 C23_6 1_555 1_555
C23_6 H17_6 1_555 1_555
C24_6 C23_6 1_555 1_555
H18_6 C24_6 1_555 1_555
C25_6 C24_6 1_555 1_555
C26_6 C25_6 1_555 1_555
H19_6 C26_6 1_555 1_555
C27_6 C22_6 1_555 1_555
O5_6 C21_6 1_555 1_555
S3_6 C11_9 1_555 1_555
In3_3 O5_6 1_555 1_555
In4_2 O3_6 1_555 1_555
C18_6 C19_6 1_555 1_555
O4_6 In4_2 1_555 1_555
C25_6 C28_6 1_555 1_555
C26_6 C27_6 1_555 1_555
C28_6 S3_6 1_555 1_555
O6_6 In3_4 1_555 1_555
C3_7 C4_7 1_555 1_555
C4_7 C5_7 1_555 1_555
C5_7 H9_7 1_555 1_555
C6_7 C5_7 1_555 1_555
H10_7 C6_7 1_555 1_555
C7_7 C6_7 1_555 1_555
C8_7 C7_7 1_555 1_555
H11_7 C8_7 1_555 1_555
C9_7 C4_7 1_555 1_555
H12_7 C9_7 1_555 1_555
C10_7 C7_7 1_555 1_555
C11_10 C12_10 1_555 1_555
In2_2 O1_4 1_555 1_555
O1_4 C3_7 1_555 1_555
O2_4 C3_7 1_555 1_555
S1_7 C10_7 1_555 1_555
C21_7 C22_7 1_555 1_555
C22_7 C23_7 1_555 1_555
C23_7 H17_7 1_555 1_555
C24_7 C23_7 1_555 1_555
H18_7 C24_7 1_555 1_555
C25_7 C24_7 1_555 1_555
C26_7 C25_7 1_555 1_555
H19_7 C26_7 1_555 1_555
C27_7 C22_7 1_555 1_555
H20_7 C27_7 1_555 1_555
C28_7 C10_7 1_555 1_555
O5_7 C21_7 1_555 1_555
O6_7 C21_7 1_555 1_555
S3_7 C11_10 1_555 1_555
In4_2 O5_7 1_555 1_555
O9_4 In2_2 1_555 1_555
O10_4 In2_2 1_555 1_555
C8_7 C9_7 1_555 1_555
C11_10 S1_7 1_555 1_555
In2_2 O2_4 1_555 1_555
C25_7 C28_7 1_555 1_555
C26_7 C27_7 1_555 1_555
C28_7 S3_7 1_555 1_555
O6_7 In4_2 1_555 1_555
C13_7 C14_7 1_555 1_555
C14_7 C15_7 1_555 1_555
C15_7 H13_7 1_555 1_555
C16_7 C15_7 1_555 1_555
H14_7 C16_7 1_555 1_555
C17_7 C16_7 1_555 1_555
C18_7 C17_7 1_555 1_555
C19_7 C14_7 1_555 1_555
C20_7 C17_7 1_555 1_555
O4_7 C20_7 1_555 1_555
S2_7 C13_7 1_555 1_555
C29_7 C13_7 1_555 1_555
C30_7 C29_7 1_555 1_555
C31_7 C30_7 1_555 1_555
H21_7 C31_7 1_555 1_555
C32_7 C31_7 1_555 1_555
H22_7 C32_7 1_555 1_555
C33_7 C32_7 1_555 1_555
C34_7 C33_7 1_555 1_555
C35_7 C30_7 1_555 1_555
C36_7 C33_7 1_555 1_555
O13_2 C36_7 1_555 1_555
C18_7 C19_7 1_555 1_555
O4_7 In3_3 1_555 1_555
C29_7 S4_7 1_555 1_555
C34_7 C35_7 1_555 1_555
In3_4 O3_7 1_555 1_555
In3_3 O3_8 1_555 1_555
C3_8 C4_8 1_555 1_555
C4_8 C5_8 1_555 1_555
C5_8 H9_8 1_555 1_555
C6_8 C5_8 1_555 1_555
H10_8 C6_8 1_555 1_555
C7_8 C6_8 1_555 1_555
C8_8 C7_8 1_555 1_555
H11_8 C8_8 1_555 1_555
C9_8 C4_8 1_555 1_555
H12_8 C9_8 1_555 1_555
C10_8 C7_8 1_555 1_555
C11_11 C12_11 1_555 1_555
O9_4 C3_8 1_555 1_555
O10_4 C3_8 1_555 1_555
S1_8 C10_8 1_555 1_555
C8_8 C9_8 1_555 1_555
C11_11 S1_8 1_555 1_555
C11_12 C12_12 1_555 1_555
C21_8 C22_8 1_555 1_555
C22_8 C23_8 1_555 1_555
C23_8 H17_8 1_555 1_555
C24_8 C23_8 1_555 1_555
H18_8 C24_8 1_555 1_555
C25_8 C24_8 1_555 1_555
C26_8 C25_8 1_555 1_555
H19_8 C26_8 1_555 1_555
C27_8 C22_8 1_555 1_555
H20_8 C27_8 1_555 1_555
O5_8 C21_8 1_555 1_555
O6_8 C21_8 1_555 1_555
S3_8 C11_12 1_555 1_555
In4_2 O5_8 1_555 1_555
C25_8 C28_8 1_555 1_555
C26_8 C27_8 1_555 1_555
C28_8 S3_8 1_555 1_555
O6_8 In4_2 1_555 1_555
C30_8 C29_8 1_555 1_555
C31_8 C30_8 1_555 1_555
H21_8 C31_8 1_555 1_555
C32_8 C31_8 1_555 1_555
H22_8 C32_8 1_555 1_555
C33_8 C32_8 1_555 1_555
C34_8 C33_8 1_555 1_555
C35_8 C30_8 1_555 1_555
C36_8 C33_8 1_555 1_555
O14_2 C36_8 1_555 1_555
C29_8 S4_8 1_555 1_555
C34_8 C35_8 1_555 1_555
C13_8 C14_8 1_555 1_555
C14_8 C15_8 1_555 1_555
C15_8 H13_8 1_555 1_555
C16_8 C15_8 1_555 1_555
H14_8 C16_8 1_555 1_555
C17_8 C16_8 1_555 1_555
C18_8 C17_8 1_555 1_555
C19_8 C14_8 1_555 1_555
C20_8 C17_8 1_555 1_555
O4_8 C20_8 1_555 1_555
S2_8 C13_8 1_555 1_555
C18_8 C19_8 1_555 1_555
O4_8 In3_4 1_555 1_555

#END
